data_crystal

_cell_length_a 11.00800
_cell_length_b 12.00200
_cell_length_c 19.47300
_cell_angle_alpha 90.00000
_cell_angle_beta  90.00000
_cell_angle_gamma 90.00000

_symmetry_space_group_name_	'P 1'
_symmetry_space_group_name_H-M	'P 1'

loop_
_symmetry_equiv_pos_as_xyz
  x,y,z

loop_
_atom_site_label
_atom_site_type_symbol
_atom_site_fract_x
_atom_site_fract_y
_atom_site_fract_z
_atom_site_charge
Pr	Pr	0.86380 0.65899 0.64838 2.03100
Pr	Pr	0.38228 0.47717 0.86248 2.05700
Pr	Pr	0.13620 0.34101 0.14838 2.02800
Pr	Pr	0.61772 0.52283 0.36248 2.05700
Pr	Pr	0.63620 0.15899 0.64838 2.02900
Pr	Pr	0.11772 0.97717 0.86248 2.05400
Pr	Pr	0.36380 0.84101 0.14838 2.02700
Pr	Pr	0.88228 0.02283 0.36248 2.05400
H 	H 	0.65110 0.50800 0.75660 -0.03500
H 	H 	0.76870 0.76060 0.91590 0.06900
H 	H 	0.12960 0.60160 0.75970 -0.02100
H 	H 	0.99400 0.24480 0.74850 0.02500
H 	H 	0.34890 0.49200 0.25660 -0.03600
H 	H 	0.23130 0.23940 0.41590 0.06600
H 	H 	0.87040 0.39840 0.25970 -0.02200
H 	H 	0.00600 0.75520 0.24850 0.02800
H 	H 	0.84890 0.00800 0.75660 -0.03700
H 	H 	0.73130 0.26060 0.91590 0.06800
H 	H 	0.37040 0.10160 0.75970 -0.02100
H 	H 	0.50600 0.74480 0.74850 0.03300
H 	H 	0.15110 0.99200 0.25660 -0.03700
H 	H 	0.26870 0.73940 0.41590 0.06500
H 	H 	0.62960 0.89840 0.25970 -0.02300
H 	H 	0.49400 0.25520 0.24850 0.03100
C 	C 	0.67260 0.56280 0.78810 0.10500
C 	C 	0.63630 0.65040 0.88980 -0.02300
C 	C 	0.74250 0.71160 0.88200 -0.01200
C 	C 	0.80740 0.69730 0.82260 -0.03800
C 	C 	0.91380 0.77150 0.80430 0.38100
C 	C 	0.55320 0.66930 0.95060 0.32200
C 	C 	0.10170 0.52850 0.75820 0.09700
C 	C 	0.12610 0.34630 0.78720 -0.08100
C 	C 	0.02080 0.31810 0.75190 0.02700
C 	C 	0.95880 0.40520 0.72250 -0.06300
C 	C 	0.83940 0.38550 0.68450 0.37000
C 	C 	0.20340 0.25690 0.82220 0.40400
C 	C 	0.32230 0.38350 0.01780 0.15500
C 	C 	0.20010 0.43550 0.99380 0.32100
C 	C 	0.32740 0.43720 0.28810 0.10400
C 	C 	0.36370 0.34960 0.38980 -0.02600
C 	C 	0.25750 0.28840 0.38200 -0.01100
C 	C 	0.19260 0.30270 0.32260 -0.03900
C 	C 	0.08620 0.22850 0.30430 0.38200
C 	C 	0.44680 0.33070 0.45060 0.32400
C 	C 	0.89830 0.47150 0.25820 0.09300
C 	C 	0.87390 0.65370 0.28720 -0.08100
C 	C 	0.97920 0.68190 0.25190 0.02000
C 	C 	0.04120 0.59480 0.22250 -0.06100
C 	C 	0.16060 0.61450 0.18450 0.36900
C 	C 	0.79660 0.74310 0.32220 0.40300
C 	C 	0.67770 0.61650 0.51780 0.22000
C 	C 	0.79990 0.56450 0.49380 0.25600
C 	C 	0.82740 0.06280 0.78810 0.10500
C 	C 	0.86370 0.15040 0.88980 -0.02200
C 	C 	0.75750 0.21160 0.88200 -0.01300
C 	C 	0.69260 0.19730 0.82260 -0.03800
C 	C 	0.58620 0.27150 0.80430 0.38100
C 	C 	0.94680 0.16930 0.95060 0.31400
C 	C 	0.39830 0.02850 0.75820 0.10200
C 	C 	0.37390 0.84630 0.78720 -0.07700
C 	C 	0.47920 0.81810 0.75190 0.01200
C 	C 	0.54120 0.90520 0.72250 -0.05500
C 	C 	0.66060 0.88550 0.68450 0.36800
C 	C 	0.29660 0.75690 0.82220 0.40300
C 	C 	0.17770 0.88350 0.01780 0.16200
C 	C 	0.29990 0.93550 0.99380 0.31400
C 	C 	0.17260 0.93720 0.28810 0.10400
C 	C 	0.13630 0.84960 0.38980 -0.02500
C 	C 	0.24250 0.78840 0.38200 -0.01200
C 	C 	0.30740 0.80270 0.32260 -0.03900
C 	C 	0.41380 0.72850 0.30430 0.38200
C 	C 	0.05320 0.83070 0.45060 0.31600
C 	C 	0.60170 0.97150 0.25820 0.10200
C 	C 	0.62610 0.15370 0.28720 -0.08000
C 	C 	0.52080 0.18190 0.25190 0.01300
C 	C 	0.45880 0.09480 0.22250 -0.05900
C 	C 	0.33940 0.11450 0.18450 0.36800
C 	C 	0.70340 0.24310 0.32220 0.40200
C 	C 	0.82230 0.11650 0.51780 0.22000
C 	C 	0.70010 0.06450 0.49380 0.25600
N 	N 	0.77260 0.62250 0.77490 -0.20500
N 	N 	0.60120 0.57590 0.84290 -0.21900
N 	N 	0.99960 0.50940 0.72310 -0.21800
N 	N 	0.16670 0.45250 0.79120 -0.20300
N 	N 	0.22740 0.37750 0.27490 -0.20500
N 	N 	0.39880 0.42410 0.34290 -0.21900
N 	N 	0.00040 0.49060 0.22310 -0.21800
N 	N 	0.83330 0.54750 0.29120 -0.20500
N 	N 	0.72740 0.12250 0.77490 -0.20500
N 	N 	0.89880 0.07590 0.84290 -0.22100
N 	N 	0.50040 0.00940 0.72310 -0.22000
N 	N 	0.33330 0.95250 0.79120 -0.20700
N 	N 	0.27260 0.87750 0.27490 -0.20500
N 	N 	0.10120 0.92410 0.34290 -0.22000
N 	N 	0.49960 0.99060 0.22310 -0.21900
N 	N 	0.66670 0.04750 0.29120 -0.20800
O 	O 	0.95530 0.76270 0.74440 -0.52300
O 	O 	0.94910 0.83850 0.84980 -0.44500
O 	O 	0.45830 0.60860 0.95290 -0.42600
O 	O 	0.58420 0.73990 0.99180 -0.28300
O 	O 	0.79140 0.46560 0.65320 -0.49000
O 	O 	0.79460 0.28890 0.69090 -0.46000
O 	O 	0.29950 0.28660 0.85030 -0.46600
O 	O 	0.16580 0.15880 0.81790 -0.50900
O 	O 	0.40780 0.38110 0.97470 -0.34100
O 	O 	0.32600 0.34780 0.07810 -0.39000
O 	O 	0.20400 0.48930 0.93840 -0.41600
O 	O 	0.11060 0.42140 0.03170 -0.46800
O 	O 	0.04470 0.23730 0.24440 -0.52400
O 	O 	0.05090 0.16150 0.34980 -0.44600
O 	O 	0.54170 0.39140 0.45290 -0.43200
O 	O 	0.41580 0.26010 0.49180 -0.29400
O 	O 	0.20860 0.53440 0.15320 -0.49300
O 	O 	0.20540 0.71110 0.19090 -0.46200
O 	O 	0.70050 0.71340 0.35030 -0.46800
O 	O 	0.83420 0.84120 0.31790 -0.51100
O 	O 	0.59220 0.61890 0.47470 -0.37300
O 	O 	0.67400 0.65220 0.57810 -0.40000
O 	O 	0.79600 0.51070 0.43840 -0.40400
O 	O 	0.88940 0.57860 0.53170 -0.43000
O 	O 	0.54470 0.26270 0.74440 -0.52400
O 	O 	0.55090 0.33850 0.84980 -0.44900
O 	O 	0.04170 0.10860 0.95290 -0.41800
O 	O 	0.91580 0.23990 0.99180 -0.28200
O 	O 	0.70860 0.96560 0.65320 -0.48600
O 	O 	0.70540 0.78890 0.69090 -0.45800
O 	O 	0.20050 0.78660 0.85030 -0.46800
O 	O 	0.33420 0.65880 0.81790 -0.51200
O 	O 	0.09220 0.88110 0.97470 -0.34700
O 	O 	0.17400 0.84780 0.07810 -0.39200
O 	O 	0.29600 0.98930 0.93840 -0.41600
O 	O 	0.38940 0.92140 0.03170 -0.46500
O 	O 	0.45530 0.73730 0.24440 -0.52700
O 	O 	0.44910 0.66150 0.34980 -0.45000
O 	O 	0.95830 0.89140 0.45290 -0.42400
O 	O 	0.08420 0.76010 0.49180 -0.29300
O 	O 	0.29140 0.03440 0.15320 -0.49100
O 	O 	0.29460 0.21110 0.19090 -0.46100
O 	O 	0.79950 0.21340 0.35030 -0.47000
O 	O 	0.66580 0.34120 0.31790 -0.51400
O 	O 	0.90780 0.11890 0.47470 -0.37600
O 	O 	0.82600 0.15220 0.57810 -0.40200
O 	O 	0.70400 0.01070 0.43840 -0.40500
O 	O 	0.61060 0.07860 0.53170 -0.43100
