data_crystal

_cell_length_a 10.98900
_cell_length_b 11.94600
_cell_length_c 19.40200
_cell_angle_alpha 90.00000
_cell_angle_beta  90.00000
_cell_angle_gamma 90.00000

_symmetry_space_group_name_	'P 1'
_symmetry_space_group_name_H-M	'P 1'

loop_
_symmetry_equiv_pos_as_xyz
  x,y,z

loop_
_atom_site_label
_atom_site_type_symbol
_atom_site_fract_x
_atom_site_fract_y
_atom_site_fract_z
_atom_site_charge
Nd	Nd	0.13672 0.34181 0.01438 1.75700
Nd	Nd	0.61797 0.52400 0.22855 2.17600
Nd	Nd	0.86328 0.65819 0.51438 2.00600
Nd	Nd	0.38203 0.47600 0.72855 2.19800
Nd	Nd	0.36328 0.84181 0.01438 1.75300
Nd	Nd	0.88203 0.02400 0.22855 2.16100
Nd	Nd	0.63672 0.15819 0.51438 2.00500
Nd	Nd	0.11797 0.97600 0.72855 2.17700
H 	H 	0.34930 0.49330 0.12180 -0.06200
H 	H 	0.23180 0.24030 0.28210 0.06000
H 	H 	0.87010 0.39830 0.12570 -0.04300
H 	H 	0.00540 0.75640 0.11480 0.00400
H 	H 	0.65070 0.50670 0.62180 -0.06100
H 	H 	0.76820 0.75970 0.78210 0.07000
H 	H 	0.12990 0.60170 0.62570 -0.04300
H 	H 	0.99460 0.24360 0.61480 0.00400
H 	H 	0.15070 0.99330 0.12180 -0.06400
H 	H 	0.26820 0.74030 0.28210 0.05900
H 	H 	0.62990 0.89830 0.12570 -0.04300
H 	H 	0.49460 0.25640 0.11480 0.00800
H 	H 	0.84930 0.00670 0.62180 -0.06200
H 	H 	0.73180 0.25970 0.78210 0.07000
H 	H 	0.37010 0.10170 0.62570 -0.04300
H 	H 	0.50540 0.74360 0.61480 0.01500
C 	C 	0.32790 0.43830 0.15340 0.14400
C 	C 	0.36420 0.35180 0.25580 -0.02800
C 	C 	0.25770 0.28960 0.24810 -0.01900
C 	C 	0.19300 0.30400 0.18870 -0.04100
C 	C 	0.08620 0.22940 0.17040 0.41600
C 	C 	0.44730 0.33260 0.31670 0.34300
C 	C 	0.89820 0.47170 0.12400 0.11400
C 	C 	0.87360 0.65490 0.15370 -0.10700
C 	C 	0.97860 0.68270 0.11800 0.03100
C 	C 	0.04130 0.59610 0.08760 -0.08800
C 	C 	0.16050 0.61600 0.05010 0.40000
C 	C 	0.79600 0.74460 0.18790 0.46300
C 	C 	0.79920 0.56490 0.35990 0.29000
C 	C 	0.67740 0.61740 0.38370 0.24800
C 	C 	0.67210 0.56170 0.65340 0.15000
C 	C 	0.63580 0.64820 0.75580 -0.01800
C 	C 	0.74230 0.71040 0.74810 -0.02200
C 	C 	0.80700 0.69600 0.68870 -0.04000
C 	C 	0.91380 0.77060 0.67040 0.41900
C 	C 	0.55270 0.66740 0.81670 0.33800
C 	C 	0.10180 0.52830 0.62400 0.12900
C 	C 	0.12640 0.34510 0.65370 -0.10400
C 	C 	0.02140 0.31730 0.61800 0.04900
C 	C 	0.95870 0.40390 0.58760 -0.08600
C 	C 	0.83950 0.38400 0.55010 0.41900
C 	C 	0.20400 0.25540 0.68790 0.46700
C 	C 	0.20080 0.43510 0.85990 0.29500
C 	C 	0.32260 0.38260 0.88370 0.24700
C 	C 	0.17210 0.93830 0.15340 0.14400
C 	C 	0.13580 0.85180 0.25580 -0.02700
C 	C 	0.24230 0.78960 0.24810 -0.02000
C 	C 	0.30700 0.80400 0.18870 -0.04200
C 	C 	0.41380 0.72940 0.17040 0.41700
C 	C 	0.05270 0.83260 0.31670 0.33600
C 	C 	0.60180 0.97170 0.12400 0.11900
C 	C 	0.62640 0.15490 0.15370 -0.10400
C 	C 	0.52140 0.18270 0.11800 0.02200
C 	C 	0.45870 0.09610 0.08760 -0.08200
C 	C 	0.33950 0.11600 0.05010 0.39800
C 	C 	0.70400 0.24460 0.18790 0.46200
C 	C 	0.70080 0.06490 0.35990 0.28900
C 	C 	0.82260 0.11740 0.38370 0.24800
C 	C 	0.82790 0.06170 0.65340 0.15000
C 	C 	0.86420 0.14820 0.75580 -0.01600
C 	C 	0.75770 0.21040 0.74810 -0.02400
C 	C 	0.69300 0.19600 0.68870 -0.04000
C 	C 	0.58620 0.27060 0.67040 0.42000
C 	C 	0.94730 0.16740 0.81670 0.32600
C 	C 	0.39820 0.02830 0.62400 0.13500
C 	C 	0.37360 0.84510 0.65370 -0.09800
C 	C 	0.47860 0.81730 0.61800 0.02800
C 	C 	0.54130 0.90390 0.58760 -0.07600
C 	C 	0.66050 0.88400 0.55010 0.41600
C 	C 	0.29600 0.75540 0.68790 0.46600
C 	C 	0.29920 0.93510 0.85990 0.29400
C 	C 	0.17740 0.88260 0.88370 0.24600
N 	N 	0.22760 0.37880 0.14000 -0.20000
N 	N 	0.39990 0.42570 0.20820 -0.23100
N 	N 	0.00050 0.49090 0.08870 -0.21100
N 	N 	0.83290 0.54920 0.15710 -0.21100
N 	N 	0.77240 0.62120 0.64000 -0.21100
N 	N 	0.60010 0.57430 0.70820 -0.23300
N 	N 	0.99950 0.50910 0.58870 -0.21800
N 	N 	0.16710 0.45080 0.65710 -0.21000
N 	N 	0.27240 0.87880 0.14000 -0.20000
N 	N 	0.10010 0.92570 0.20820 -0.23200
N 	N 	0.49950 0.99090 0.08870 -0.21400
N 	N 	0.66710 0.04920 0.15710 -0.21200
N 	N 	0.72760 0.12120 0.64000 -0.21200
N 	N 	0.89990 0.07430 0.70820 -0.23400
N 	N 	0.50050 0.00910 0.58870 -0.21800
N 	N 	0.33290 0.95080 0.65710 -0.21400
O 	O 	0.04470 0.23870 0.11006 -0.51900
O 	O 	0.05030 0.16220 0.21588 -0.47000
O 	O 	0.54290 0.39190 0.31907 -0.45100
O 	O 	0.41480 0.26170 0.35810 -0.30600
O 	O 	0.20840 0.53450 0.01860 -0.52300
O 	O 	0.20570 0.71140 0.05666 -0.48000
O 	O 	0.70050 0.71310 0.21651 -0.50900
O 	O 	0.83410 0.84270 0.18380 -0.55700
O 	O 	0.88930 0.57900 0.39760 -0.44300
O 	O 	0.79520 0.51090 0.30440 -0.43400
O 	O 	0.67410 0.65150 0.44458 -0.41200
O 	O 	0.59180 0.62040 0.34009 -0.39900
O 	O 	0.95530 0.76130 0.61006 -0.53300
O 	O 	0.94970 0.83780 0.71588 -0.47000
O 	O 	0.45710 0.60810 0.81907 -0.43100
O 	O 	0.58520 0.73830 0.85810 -0.26400
O 	O 	0.79160 0.46550 0.51860 -0.50300
O 	O 	0.79430 0.28860 0.55666 -0.47900
O 	O 	0.29950 0.28690 0.71651 -0.50700
O 	O 	0.16590 0.15730 0.68380 -0.55100
O 	O 	0.11070 0.42100 0.89760 -0.36500
O 	O 	0.20480 0.48910 0.80440 -0.42700
O 	O 	0.32590 0.34850 0.94458 -0.30700
O 	O 	0.40820 0.37960 0.84009 -0.38000
O 	O 	0.45530 0.73870 0.11006 -0.52200
O 	O 	0.44970 0.66220 0.21588 -0.47700
O 	O 	0.95710 0.89190 0.31907 -0.44300
O 	O 	0.08520 0.76170 0.35810 -0.30600
O 	O 	0.29160 0.03450 0.01860 -0.51700
O 	O 	0.29430 0.21140 0.05666 -0.47900
O 	O 	0.79950 0.21310 0.21651 -0.50900
O 	O 	0.66590 0.34270 0.18380 -0.56100
O 	O 	0.61070 0.07900 0.39760 -0.44200
O 	O 	0.70480 0.01090 0.30440 -0.43300
O 	O 	0.82590 0.15150 0.44458 -0.41300
O 	O 	0.90820 0.12040 0.34009 -0.40000
O 	O 	0.54470 0.26130 0.61006 -0.53400
O 	O 	0.55030 0.33780 0.71588 -0.47400
O 	O 	0.04290 0.10810 0.81907 -0.41800
O 	O 	0.91480 0.23830 0.85810 -0.26300
O 	O 	0.70840 0.96550 0.51860 -0.50000
O 	O 	0.70570 0.78860 0.55666 -0.47800
O 	O 	0.20050 0.78690 0.71651 -0.50600
O 	O 	0.33410 0.65730 0.68380 -0.55800
O 	O 	0.38930 0.92100 0.89760 -0.36600
O 	O 	0.29520 0.98910 0.80440 -0.42700
O 	O 	0.17410 0.84850 0.94458 -0.31000
O 	O 	0.09180 0.87960 0.84009 -0.38100
