data_crystal

_cell_length_a 12.78460
_cell_length_b 12.83110
_cell_length_c 15.99370
_cell_angle_alpha 67.35800
_cell_angle_beta  67.22400
_cell_angle_gamma 63.05300

_symmetry_space_group_name_	'P 1'
_symmetry_space_group_name_H-M	'P 1'

loop_
_symmetry_equiv_pos_as_xyz
  x,y,z

loop_
_atom_site_label
_atom_site_type_symbol
_atom_site_fract_x
_atom_site_fract_y
_atom_site_fract_z
_atom_site_charge
Mo	Mo	0.66155 0.70436 0.15697 1.07800
Mo	Mo	0.20636 0.15811 0.16284 1.07400
Mo	Mo	0.20000 0.96118 0.15867 1.10100
Mo	Mo	0.47623 0.16176 0.16503 1.07400
Mo	Mo	0.46194 0.70115 0.15402 1.07400
Mo	Mo	0.66947 0.96767 0.16436 1.10600
Co	Co	0.03364 0.52729 0.38380 1.16500
P 	P 	0.21071 0.28542 0.30999 0.52600
P 	P 	0.79428 0.69981 0.30515 0.52100
P 	P 	0.20704 0.70239 0.31838 0.54200
P 	P 	0.40718 0.90026 0.27181 0.54800
O 	O 	0.23490 0.72320 0.39750 -0.16600
O 	O 	0.72650 0.67500 0.40830 -0.19100
O 	O 	0.19010 0.21580 0.41350 -0.20400
O 	O 	0.36400 0.85280 0.37520 -0.16100
O 	O 	0.15680 0.42080 0.29590 -0.41000
O 	O 	0.75480 0.64570 0.25530 -0.38500
O 	O 	0.34900 0.24930 0.26540 -0.37800
O 	O 	0.93140 0.64410 0.29020 -0.39800
O 	O 	0.74630 0.83120 0.09420 -0.48800
O 	O 	0.75760 0.83820 0.26270 -0.36100
O 	O 	0.36050 0.04040 0.23830 -0.43000
O 	O 	0.54730 0.85420 0.23460 -0.39500
O 	O 	0.14000 0.82500 0.25950 -0.37500
O 	O 	0.32740 0.63870 0.25520 -0.38800
O 	O 	0.15180 0.24810 0.26280 -0.39100
O 	O 	0.33500 0.24000 0.09910 -0.50100
O 	O 	0.10710 0.39210 0.50270 -0.35600
O 	O 	0.13050 0.62620 0.36990 -0.38700
O 	O 	0.32000 0.82420 0.08850 -0.48900
O 	O 	0.35770 0.85410 0.22270 -0.41400
O 	O 	0.13210 0.04300 0.25770 -0.49000
O 	O 	0.54780 0.62980 0.25170 -0.46200
O 	O 	0.56250 0.05400 0.26120 -0.48700
O 	O 	0.55730 0.05060 0.08190 -0.65600
O 	O 	0.31010 0.05080 0.07680 -0.64800
O 	O 	0.55190 0.81180 0.07310 -0.61800
Mo	Mo	0.33845 0.29564 0.84303 1.09100
Mo	Mo	0.79364 0.84189 0.83716 1.09400
Mo	Mo	0.80000 0.03882 0.84133 1.05900
Mo	Mo	0.52377 0.83824 0.83497 1.09300
Mo	Mo	0.53806 0.29885 0.84598 1.08800
Mo	Mo	0.33053 0.03233 0.83564 1.06100
Co	Co	0.96636 0.47271 0.61620 1.17100
P 	P 	0.78929 0.71458 0.69001 0.52600
P 	P 	0.20572 0.30019 0.69485 0.52200
P 	P 	0.79296 0.29761 0.68162 0.54200
P 	P 	0.59282 0.09974 0.72819 0.46800
O 	O 	0.76510 0.27680 0.60250 -0.17700
O 	O 	0.27350 0.32500 0.59170 -0.20100
O 	O 	0.80990 0.78420 0.58650 -0.18000
O 	O 	0.63600 0.14720 0.62480 -0.18200
O 	O 	0.84320 0.57920 0.70410 -0.39600
O 	O 	0.24520 0.35430 0.74470 -0.37600
O 	O 	0.65100 0.75070 0.73460 -0.36300
O 	O 	0.06860 0.35590 0.70980 -0.39900
O 	O 	0.25370 0.16880 0.90580 -0.46300
O 	O 	0.24240 0.16180 0.73730 -0.38200
O 	O 	0.63950 0.95960 0.76170 -0.36300
O 	O 	0.45270 0.14580 0.76540 -0.41200
O 	O 	0.86000 0.17500 0.74050 -0.38700
O 	O 	0.67260 0.36130 0.74480 -0.37600
O 	O 	0.84820 0.75190 0.73720 -0.37200
O 	O 	0.66500 0.76000 0.90090 -0.45300
O 	O 	0.89290 0.60790 0.49730 -0.34600
O 	O 	0.86950 0.37380 0.63010 -0.38400
O 	O 	0.68000 0.17580 0.91150 -0.45900
O 	O 	0.64230 0.14590 0.77730 -0.43000
O 	O 	0.86790 0.95700 0.74230 -0.41600
O 	O 	0.45220 0.37020 0.74830 -0.45000
O 	O 	0.43750 0.94600 0.73880 -0.41800
O 	O 	0.44270 0.94940 0.91810 -0.54200
O 	O 	0.68990 0.94920 0.92320 -0.53300
O 	O 	0.44810 0.18820 0.92690 -0.57800
Co	Co	0.50000 0.00000 -0.00000 1.14300
