data_crystal

_cell_length_a 11.10400
_cell_length_b 19.88340
_cell_length_c 21.30250
_cell_angle_alpha 90.00000
_cell_angle_beta  90.00000
_cell_angle_gamma 90.00000

_symmetry_space_group_name_	'P 1'
_symmetry_space_group_name_H-M	'P 1'

loop_
_symmetry_equiv_pos_as_xyz
  x,y,z

loop_
_atom_site_label
_atom_site_type_symbol
_atom_site_fract_x
_atom_site_fract_y
_atom_site_fract_z
_atom_site_charge
Co	Co	0.30595 0.53703 0.77648 1.16300
Co	Co	0.19405 0.96297 0.77648 1.17600
Co	Co	0.69405 0.03703 0.72352 1.14900
Co	Co	0.80595 0.46297 0.72352 1.16400
Co	Co	0.69405 0.46297 0.22352 1.16200
Co	Co	0.80595 0.03703 0.22352 1.14900
Co	Co	0.30595 0.96297 0.27648 1.17600
Co	Co	0.19405 0.53703 0.27648 1.16100
Co	Co	-0.00000 0.50000 -0.00000 1.11000
Co	Co	0.50000 0.00000 -0.00000 1.10600
Co	Co	0.00000 0.00000 0.50000 1.10800
Co	Co	0.50000 0.50000 0.50000 1.14900
H 	H 	0.04570 0.65260 0.02910 -0.08200
H 	H 	0.20810 0.41920 0.68930 0.00000
H 	H 	0.31640 0.41460 0.86490 0.01800
H 	H 	0.75620 0.55840 0.97100 -0.01100
H 	H 	0.30790 0.29900 0.86660 0.07900
H 	H 	0.37410 0.65950 0.69250 -0.00500
H 	H 	0.79400 0.44870 0.88510 -0.00300
H 	H 	0.94670 0.75470 0.02920 0.11500
H 	H 	0.19670 0.30330 0.68610 0.06700
H 	H 	0.64710 0.65740 0.96920 0.10100
H 	H 	0.42930 0.77140 0.69750 0.07600
H 	H 	0.43060 0.75680 0.88580 0.08000
H 	H 	0.37380 0.64460 0.87590 0.02200
H 	H 	0.45480 0.82270 0.79530 0.02100
H 	H 	0.45430 0.84740 0.02910 -0.01900
H 	H 	0.29190 0.08080 0.68930 -0.01000
H 	H 	0.18360 0.08540 0.86490 0.00500
H 	H 	0.74380 0.94160 0.97100 0.01300
H 	H 	0.19210 0.20100 0.86660 0.07600
H 	H 	0.12590 0.84050 0.69250 -0.00500
H 	H 	0.70600 0.05130 0.88510 -0.00300
H 	H 	0.55330 0.74530 0.02920 0.08000
H 	H 	0.30330 0.19670 0.68610 0.07300
H 	H 	0.85290 0.84260 0.96920 0.10200
H 	H 	0.07070 0.72860 0.69750 0.06700
H 	H 	0.06940 0.74320 0.88580 0.07100
H 	H 	0.12620 0.85540 0.87590 0.02200
H 	H 	0.04520 0.67730 0.79530 0.01600
H 	H 	0.95430 0.15260 0.47090 0.05500
H 	H 	0.79190 0.91920 0.81070 0.02400
H 	H 	0.68360 0.91460 0.63510 0.02200
H 	H 	0.24380 0.05840 0.52900 -0.00900
H 	H 	0.69210 0.79900 0.63340 0.07300
H 	H 	0.62590 0.15950 0.80750 -0.00200
H 	H 	0.20600 0.94870 0.61490 -0.00300
H 	H 	0.05330 0.25470 0.47080 0.04200
H 	H 	0.80330 0.80330 0.81390 0.08100
H 	H 	0.35290 0.15740 0.53080 0.06400
H 	H 	0.57070 0.27140 0.80250 0.07800
H 	H 	0.56940 0.25680 0.61420 0.07200
H 	H 	0.62620 0.14460 0.62410 0.01500
H 	H 	0.54520 0.32270 0.70470 0.02100
H 	H 	0.54570 0.34740 0.47090 -0.00200
H 	H 	0.70810 0.58080 0.81070 0.00600
H 	H 	0.81640 0.58540 0.63510 0.01400
H 	H 	0.25620 0.44160 0.52900 -0.00200
H 	H 	0.80790 0.70100 0.63340 0.07700
H 	H 	0.87410 0.34050 0.80750 0.00100
H 	H 	0.29400 0.55130 0.61490 -0.01300
H 	H 	0.44670 0.24530 0.47080 0.07300
H 	H 	0.69670 0.69670 0.81390 0.07700
H 	H 	0.14710 0.34260 0.53080 0.06700
H 	H 	0.92930 0.22860 0.80250 0.08700
H 	H 	0.93060 0.24320 0.61420 0.08200
H 	H 	0.87380 0.35540 0.62410 0.02200
H 	H 	0.95480 0.17730 0.70470 0.02600
H 	H 	0.95430 0.34740 0.97090 0.07300
H 	H 	0.79190 0.58080 0.31070 0.00900
H 	H 	0.68360 0.58540 0.13510 0.00600
H 	H 	0.24380 0.44160 0.02900 0.02000
H 	H 	0.69210 0.70100 0.13340 0.06800
H 	H 	0.62590 0.34050 0.30750 -0.00200
H 	H 	0.20600 0.55130 0.11490 -0.01300
H 	H 	0.05330 0.24530 0.97080 0.02900
H 	H 	0.80330 0.69670 0.31390 0.08100
H 	H 	0.35290 0.34260 0.03080 0.04400
H 	H 	0.57070 0.22860 0.30250 0.07500
H 	H 	0.56940 0.24320 0.11420 0.06400
H 	H 	0.62620 0.35540 0.12410 0.01500
H 	H 	0.54520 0.17730 0.20470 0.02100
H 	H 	0.54570 0.15260 0.97090 0.01700
H 	H 	0.70810 0.91920 0.31070 0.02000
H 	H 	0.81640 0.91460 0.13510 0.02000
H 	H 	0.25620 0.05840 0.02900 -0.00400
H 	H 	0.80790 0.79900 0.13340 0.07100
H 	H 	0.87410 0.15950 0.30750 -0.00100
H 	H 	0.29400 0.94870 0.11490 -0.01300
H 	H 	0.44670 0.25470 0.97080 0.06100
H 	H 	0.69670 0.80330 0.31390 0.07600
H 	H 	0.14710 0.15740 0.03080 0.04100
H 	H 	0.92930 0.27140 0.30250 0.08500
H 	H 	0.93060 0.25680 0.11420 0.07400
H 	H 	0.87380 0.14460 0.12410 0.01500
H 	H 	0.95480 0.32270 0.20470 0.02600
H 	H 	0.04570 0.84740 0.52910 -0.05900
H 	H 	0.20810 0.08080 0.18930 -0.01600
H 	H 	0.31640 0.08540 0.36490 0.00200
H 	H 	0.75620 0.94160 0.47100 0.01700
H 	H 	0.30790 0.20100 0.36660 0.07300
H 	H 	0.37410 0.84050 0.19250 -0.00400
H 	H 	0.79400 0.05130 0.38510 -0.01300
H 	H 	0.94670 0.74530 0.52920 0.10000
H 	H 	0.19670 0.19670 0.18610 0.06600
H 	H 	0.64710 0.84260 0.46920 0.08100
H 	H 	0.42930 0.72860 0.19750 0.07300
H 	H 	0.43060 0.74320 0.38580 0.07200
H 	H 	0.37380 0.85540 0.37590 0.02200
H 	H 	0.45480 0.67730 0.29530 0.02100
H 	H 	0.45430 0.65260 0.52910 -0.00300
H 	H 	0.29190 0.41920 0.18930 0.00300
H 	H 	0.18360 0.41460 0.36490 0.00900
H 	H 	0.74380 0.55840 0.47100 0.00700
H 	H 	0.19210 0.29900 0.36660 0.06900
H 	H 	0.12590 0.65950 0.19250 -0.00800
H 	H 	0.70600 0.44870 0.38510 -0.00400
H 	H 	0.55330 0.75470 0.52920 0.07000
H 	H 	0.30330 0.30330 0.18610 0.07100
H 	H 	0.85290 0.65740 0.46920 0.07900
H 	H 	0.07070 0.77140 0.19750 0.06400
H 	H 	0.06940 0.75680 0.38580 0.06200
H 	H 	0.12620 0.64460 0.37590 0.01500
H 	H 	0.04520 0.82270 0.29530 0.01500
C 	C 	0.15660 0.53563 0.89693 0.33100
C 	C 	0.25290 0.28742 0.77577 0.04800
C 	C 	0.96340 0.65397 0.01683 0.20600
C 	C 	0.22880 0.39433 0.72589 0.06800
C 	C 	0.04390 0.51164 0.86722 -0.08800
C 	C 	0.29170 0.39151 0.82800 0.06900
C 	C 	0.79480 0.59901 0.98300 0.15500
C 	C 	0.28740 0.32258 0.82936 -0.12100
C 	C 	0.78340 0.71808 0.99980 0.13200
C 	C 	0.38440 0.67971 0.73255 0.07300
C 	C 	0.86700 0.46744 0.86976 0.12000
C 	C 	0.90500 0.71500 0.01723 -0.26000
C 	C 	0.22220 0.32511 0.72346 -0.12500
C 	C 	0.72910 0.65791 0.98197 -0.17900
C 	C 	0.41760 0.74650 0.73510 -0.12200
C 	C 	0.41820 0.73790 0.84540 -0.12000
C 	C 	0.38430 0.67080 0.83901 0.06900
C 	C 	0.43370 0.77650 0.79230 0.04900
C 	C 	0.00260 0.50433 0.80588 -0.06400
C 	C 	0.04550 0.52153 0.74189 0.25600
C 	C 	0.34340 0.96437 0.89693 0.32100
C 	C 	0.24710 0.21258 0.77577 0.05000
C 	C 	0.53660 0.84603 0.01683 0.09900
C 	C 	0.27120 0.10567 0.72589 0.06700
C 	C 	0.45610 0.98836 0.86722 -0.02300
C 	C 	0.20830 0.10849 0.82800 0.06700
C 	C 	0.70520 0.90099 0.98300 0.13900
C 	C 	0.21260 0.17742 0.82936 -0.12800
C 	C 	0.71660 0.78192 0.99980 0.09300
C 	C 	0.11560 0.82029 0.73255 0.06700
C 	C 	0.63300 0.03256 0.86976 0.10200
C 	C 	0.59500 0.78500 0.01723 -0.20000
C 	C 	0.27780 0.17489 0.72346 -0.12800
C 	C 	0.77090 0.84209 0.98197 -0.15100
C 	C 	0.08240 0.75350 0.73510 -0.12200
C 	C 	0.08180 0.76210 0.84540 -0.12000
C 	C 	0.11570 0.82920 0.83901 0.06300
C 	C 	0.06630 0.72350 0.79230 0.03900
C 	C 	0.49740 0.99567 0.80588 -0.01200
C 	C 	0.45450 0.97847 0.74189 0.30000
C 	C 	0.84340 0.03563 0.60307 0.32400
C 	C 	0.74710 0.78742 0.72423 0.05400
C 	C 	0.03660 0.15397 0.48317 -0.02400
C 	C 	0.77120 0.89433 0.77411 0.07600
C 	C 	0.95610 0.01164 0.63278 -0.06500
C 	C 	0.70830 0.89151 0.67200 0.07300
C 	C 	0.20520 0.09901 0.51700 0.05400
C 	C 	0.71260 0.82258 0.67064 -0.11700
C 	C 	0.21660 0.21808 0.50020 0.02000
C 	C 	0.61560 0.17971 0.76745 0.07200
C 	C 	0.13300 0.96744 0.63024 0.11900
C 	C 	0.09500 0.21500 0.48277 -0.08000
C 	C 	0.77780 0.82511 0.77654 -0.11600
C 	C 	0.27090 0.15791 0.51803 -0.10800
C 	C 	0.58240 0.24650 0.76490 -0.12100
C 	C 	0.58180 0.23790 0.65460 -0.11900
C 	C 	0.61570 0.17080 0.66099 0.06700
C 	C 	0.56630 0.27650 0.70770 0.04600
C 	C 	0.99740 0.00433 0.69412 -0.06700
C 	C 	0.95450 0.02153 0.75811 0.35300
C 	C 	0.65660 0.46437 0.60307 0.32700
C 	C 	0.75290 0.71258 0.72423 0.05700
C 	C 	0.46340 0.34603 0.48317 0.07800
C 	C 	0.72880 0.60567 0.77411 0.07700
C 	C 	0.54390 0.48836 0.63278 -0.06300
C 	C 	0.79170 0.60849 0.67200 0.07500
C 	C 	0.29480 0.40099 0.51700 0.07100
C 	C 	0.78740 0.67742 0.67064 -0.11900
C 	C 	0.28340 0.28192 0.50020 0.05500
C 	C 	0.88440 0.32029 0.76745 0.08000
C 	C 	0.36700 0.53256 0.63024 0.11400
C 	C 	0.40500 0.28500 0.48277 -0.13300
C 	C 	0.72220 0.67489 0.77654 -0.12100
C 	C 	0.22910 0.34209 0.51803 -0.12800
C 	C 	0.91760 0.25350 0.76490 -0.11900
C 	C 	0.91820 0.26210 0.65460 -0.11700
C 	C 	0.88430 0.32920 0.66099 0.07400
C 	C 	0.93370 0.22350 0.70770 0.05500
C 	C 	0.50260 0.49567 0.69412 -0.04700
C 	C 	0.54550 0.47847 0.75811 0.30300
C 	C 	0.84340 0.46437 0.10307 0.32200
C 	C 	0.74710 0.71258 0.22423 0.05600
C 	C 	0.03660 0.34603 0.98317 -0.04800
C 	C 	0.77120 0.60567 0.27411 0.07500
C 	C 	0.95610 0.48836 0.13278 -0.03200
C 	C 	0.70830 0.60849 0.17200 0.07300
C 	C 	0.20520 0.40099 0.01700 -0.02300
C 	C 	0.71260 0.67742 0.17064 -0.12100
C 	C 	0.21660 0.28192 0.00020 -0.04400
C 	C 	0.61560 0.32029 0.26745 0.07100
C 	C 	0.13300 0.53256 0.13024 0.10700
C 	C 	0.09500 0.28500 0.98277 0.00800
C 	C 	0.77780 0.67489 0.27654 -0.12000
C 	C 	0.27090 0.34209 0.01803 -0.06300
C 	C 	0.58240 0.25350 0.26490 -0.11800
C 	C 	0.58180 0.26210 0.15460 -0.11600
C 	C 	0.61570 0.32920 0.16099 0.06500
C 	C 	0.56630 0.22350 0.20770 0.04300
C 	C 	0.99740 0.49567 0.19412 -0.03000
C 	C 	0.95450 0.47847 0.25811 0.35200
C 	C 	0.65660 0.03563 0.10307 0.33200
C 	C 	0.75290 0.78742 0.22423 0.05400
C 	C 	0.46340 0.15397 0.98317 0.04900
C 	C 	0.72880 0.89433 0.27411 0.07700
C 	C 	0.54390 0.01164 0.13278 -0.10200
C 	C 	0.79170 0.89151 0.17200 0.07500
C 	C 	0.29480 0.09901 0.01700 -0.00900
C 	C 	0.78740 0.82258 0.17064 -0.11500
C 	C 	0.28340 0.21808 0.00020 -0.00700
C 	C 	0.88440 0.17971 0.26745 0.07800
C 	C 	0.36700 0.96744 0.13024 0.12500
C 	C 	0.40500 0.21500 0.98277 -0.04700
C 	C 	0.72220 0.82511 0.27654 -0.11700
C 	C 	0.22910 0.15791 0.01803 -0.09000
C 	C 	0.91760 0.24650 0.26490 -0.11800
C 	C 	0.91820 0.23790 0.15460 -0.11600
C 	C 	0.88430 0.17080 0.16099 0.07100
C 	C 	0.93370 0.27650 0.20770 0.05300
C 	C 	0.50260 0.00433 0.19412 -0.08400
C 	C 	0.54550 0.02153 0.25811 0.30700
C 	C 	0.15660 0.96437 0.39693 0.32900
C 	C 	0.25290 0.21258 0.27577 0.04900
C 	C 	0.96340 0.84603 0.51683 0.17500
C 	C 	0.22880 0.10567 0.22589 0.06700
C 	C 	0.04390 0.98836 0.36722 -0.05800
C 	C 	0.29170 0.10849 0.32800 0.06800
C 	C 	0.79480 0.90099 0.48300 0.08500
C 	C 	0.28740 0.17742 0.32936 -0.12600
C 	C 	0.78340 0.78192 0.49980 0.07200
C 	C 	0.38440 0.82029 0.23255 0.07300
C 	C 	0.86700 0.03256 0.36976 0.10800
C 	C 	0.90500 0.78500 0.51723 -0.17600
C 	C 	0.22220 0.17489 0.22346 -0.12900
C 	C 	0.72910 0.84209 0.48197 -0.13600
C 	C 	0.41760 0.75350 0.23510 -0.12000
C 	C 	0.41820 0.76210 0.34540 -0.11700
C 	C 	0.38430 0.82920 0.33901 0.06800
C 	C 	0.43370 0.72350 0.29230 0.04500
C 	C 	0.00260 0.99567 0.30588 -0.02600
C 	C 	0.04550 0.97847 0.24189 0.25000
C 	C 	0.34340 0.53563 0.39693 0.32800
C 	C 	0.24710 0.28742 0.27577 0.04600
C 	C 	0.53660 0.65397 0.51683 0.07400
C 	C 	0.27120 0.39433 0.22589 0.06600
C 	C 	0.45610 0.51164 0.36722 -0.06300
C 	C 	0.20830 0.39151 0.32800 0.06600
C 	C 	0.70520 0.59901 0.48300 0.06800
C 	C 	0.21260 0.32258 0.32936 -0.12400
C 	C 	0.71660 0.71808 0.49980 0.03800
C 	C 	0.11560 0.67971 0.23255 0.06400
C 	C 	0.63300 0.46744 0.36976 0.11400
C 	C 	0.59500 0.71500 0.51723 -0.12400
C 	C 	0.27780 0.32511 0.22346 -0.12400
C 	C 	0.77090 0.65791 0.48197 -0.11700
C 	C 	0.08240 0.74650 0.23510 -0.12100
C 	C 	0.08180 0.73790 0.34540 -0.11900
C 	C 	0.11570 0.67080 0.33901 0.06000
C 	C 	0.06630 0.77650 0.29230 0.03600
C 	C 	0.49740 0.50433 0.30588 -0.04700
C 	C 	0.45450 0.52153 0.24189 0.30400
N 	N 	0.95660 0.48807 0.90718 -0.19300
N 	N 	0.36600 0.64180 0.78361 -0.22000
N 	N 	0.26260 0.42814 0.77705 -0.21700
N 	N 	0.91040 0.59674 0.00009 -0.27800
N 	N 	0.89020 0.47586 0.80881 -0.21000
N 	N 	0.54340 0.01193 0.90718 -0.24800
N 	N 	0.13400 0.85820 0.78361 -0.21800
N 	N 	0.23740 0.07186 0.77705 -0.23300
N 	N 	0.58960 0.90326 0.00009 -0.25600
N 	N 	0.60980 0.02414 0.80881 -0.25400
N 	N 	0.04340 0.98807 0.59282 -0.21700
N 	N 	0.63400 0.14180 0.71639 -0.22200
N 	N 	0.73740 0.92814 0.72295 -0.20200
N 	N 	0.08960 0.09674 0.49991 -0.22400
N 	N 	0.10980 0.97586 0.69119 -0.21400
N 	N 	0.45660 0.51193 0.59282 -0.22900
N 	N 	0.86600 0.35820 0.71639 -0.21800
N 	N 	0.76260 0.57186 0.72295 -0.21600
N 	N 	0.41040 0.40326 0.49991 -0.23100
N 	N 	0.39020 0.52414 0.69119 -0.22700
N 	N 	0.04340 0.51193 0.09282 -0.25600
N 	N 	0.63400 0.35820 0.21639 -0.21900
N 	N 	0.73740 0.57186 0.22295 -0.21800
N 	N 	0.08960 0.40326 0.99991 -0.17000
N 	N 	0.10980 0.52414 0.19119 -0.24400
N 	N 	0.45660 0.98807 0.09282 -0.19600
N 	N 	0.86600 0.14180 0.21639 -0.22100
N 	N 	0.76260 0.92814 0.22295 -0.20100
N 	N 	0.41040 0.09674 0.99991 -0.18800
N 	N 	0.39020 0.97586 0.19119 -0.19700
N 	N 	0.95660 0.01193 0.40718 -0.23000
N 	N 	0.36600 0.85820 0.28361 -0.21700
N 	N 	0.26260 0.07186 0.27705 -0.23300
N 	N 	0.91040 0.90326 0.50009 -0.22600
N 	N 	0.89020 0.02414 0.30881 -0.23900
N 	N 	0.54340 0.48807 0.40718 -0.22800
N 	N 	0.13400 0.64180 0.28361 -0.22100
N 	N 	0.23740 0.42814 0.27705 -0.21900
N 	N 	0.58960 0.59674 0.50009 -0.22900
N 	N 	0.60980 0.47586 0.30881 -0.22600
O 	O 	0.15285 0.54239 0.95638 -0.37300
O 	O 	0.14093 0.55584 0.73381 -0.39200
O 	O 	0.25072 0.54682 0.86648 -0.40800
O 	O 	0.98089 0.50098 0.69721 -0.32700
O 	O 	0.34715 0.95761 0.95638 -0.34700
O 	O 	0.35907 0.94416 0.73381 -0.39000
O 	O 	0.24928 0.95318 0.86648 -0.39400
O 	O 	0.51911 0.99902 0.69721 -0.34100
O 	O 	0.84715 0.04239 0.54362 -0.39400
O 	O 	0.85907 0.05584 0.76619 -0.40900
O 	O 	0.74928 0.04682 0.63352 -0.42400
O 	O 	0.01911 0.00098 0.80279 -0.43700
O 	O 	0.65285 0.45761 0.54362 -0.38900
O 	O 	0.64093 0.44416 0.76619 -0.39600
O 	O 	0.75072 0.45318 0.63352 -0.40900
O 	O 	0.48089 0.49902 0.80279 -0.36700
O 	O 	0.84715 0.45761 0.04362 -0.39700
O 	O 	0.85907 0.44416 0.26619 -0.40300
O 	O 	0.74928 0.45318 0.13352 -0.41400
O 	O 	0.01911 0.49902 0.30279 -0.41500
O 	O 	0.65285 0.04239 0.04362 -0.42400
O 	O 	0.64093 0.05584 0.26619 -0.40500
O 	O 	0.75072 0.04682 0.13352 -0.42900
O 	O 	0.48089 0.00098 0.30279 -0.40000
O 	O 	0.15285 0.95761 0.45638 -0.37700
O 	O 	0.14093 0.94416 0.23381 -0.38500
O 	O 	0.25072 0.95318 0.36648 -0.39800
O 	O 	0.98089 0.99902 0.19721 -0.29800
O 	O 	0.34715 0.54239 0.45638 -0.39500
O 	O 	0.35907 0.55584 0.23381 -0.39900
O 	O 	0.24928 0.54682 0.36648 -0.41400
O 	O 	0.51911 0.50098 0.19721 -0.37300
