data_crystal

_cell_length_a 8.50090
_cell_length_b 15.36520
_cell_length_c 13.37400
_cell_angle_alpha 90.00000
_cell_angle_beta  90.00000
_cell_angle_gamma 90.00000

_symmetry_space_group_name_	'P 1'
_symmetry_space_group_name_H-M	'P 1'

loop_
_symmetry_equiv_pos_as_xyz
  x,y,z

loop_
_atom_site_label
_atom_site_type_symbol
_atom_site_fract_x
_atom_site_fract_y
_atom_site_fract_z
_atom_site_charge
Be	Be	0.53430 0.41127 0.39087 1.48100
P 	P 	0.02744 0.09807 0.38781 0.40300
H 	H 	0.15770 0.09020 0.33780 -0.04000
P 	P 	0.25290 0.36865 0.27254 0.58300
H 	H 	0.16690 0.43850 0.26060 -0.07200
O 	O 	0.07181 0.12049 0.49494 -0.54200
O 	O 	0.93683 0.01426 0.37758 -0.49000
O 	O 	0.93716 0.17388 0.34073 -0.40600
O 	O 	0.14200 0.29438 0.29409 -0.58000
O 	O 	0.34447 0.35553 0.17718 -0.57000
O 	O 	0.35271 0.38425 0.36507 -0.55000
Be	Be	0.96570 0.08873 0.89087 1.48200
P 	P 	0.47256 0.40193 0.88781 0.55900
H 	H 	0.34230 0.40980 0.83780 -0.06200
P 	P 	0.24710 0.13135 0.77254 0.58200
H 	H 	0.33310 0.06150 0.76060 -0.04900
O 	O 	0.42819 0.37951 0.99494 -0.53100
O 	O 	0.56317 0.48574 0.87758 -0.57800
O 	O 	0.56284 0.32612 0.84073 -0.50200
O 	O 	0.35800 0.20562 0.79409 -0.54900
O 	O 	0.15553 0.14447 0.67718 -0.59100
O 	O 	0.14729 0.11575 0.86507 -0.58800
Be	Be	0.46570 0.41127 0.10913 1.48000
P 	P 	0.97256 0.09807 0.11219 0.71900
H 	H 	0.84230 0.09020 0.16220 -0.06200
P 	P 	0.74710 0.36865 0.22746 0.58100
H 	H 	0.83310 0.43850 0.23940 -0.02000
O 	O 	0.92819 0.12049 0.00506 -0.50900
O 	O 	0.06317 0.01426 0.12242 -0.68100
O 	O 	0.06284 0.17388 0.15927 -0.60900
O 	O 	0.85800 0.29438 0.20591 -0.50100
O 	O 	0.65553 0.35553 0.32282 -0.55200
O 	O 	0.64729 0.38425 0.13493 -0.53400
Be	Be	0.03430 0.08873 0.60913 1.47700
P 	P 	0.52744 0.40193 0.61219 0.56000
H 	H 	0.65770 0.40980 0.66220 -0.04100
P 	P 	0.75290 0.13135 0.72746 0.58100
H 	H 	0.66690 0.06150 0.73940 -0.04600
O 	O 	0.57181 0.37951 0.50506 -0.51800
O 	O 	0.43683 0.48574 0.62242 -0.59200
O 	O 	0.43716 0.32612 0.65927 -0.51400
O 	O 	0.64200 0.20562 0.70591 -0.53400
O 	O 	0.84447 0.14447 0.82282 -0.53200
O 	O 	0.85271 0.11575 0.63493 -0.49500
Be	Be	0.46570 0.58873 0.60913 1.48000
P 	P 	0.97256 0.90193 0.61219 0.71500
H 	H 	0.84230 0.90980 0.66220 -0.06100
P 	P 	0.74710 0.63135 0.72746 0.58100
H 	H 	0.83310 0.56150 0.73940 -0.02000
O 	O 	0.92819 0.87951 0.50506 -0.50800
O 	O 	0.06317 0.98574 0.62242 -0.67800
O 	O 	0.06284 0.82612 0.65927 -0.60600
O 	O 	0.85800 0.70562 0.70591 -0.50100
O 	O 	0.65553 0.64447 0.82282 -0.55100
O 	O 	0.64729 0.61575 0.63493 -0.53300
Be	Be	0.03430 0.91127 0.10913 1.47700
P 	P 	0.52744 0.59807 0.11219 0.55900
H 	H 	0.65770 0.59020 0.16220 -0.04100
P 	P 	0.75290 0.86865 0.22746 0.58200
H 	H 	0.66690 0.93850 0.23940 -0.04600
O 	O 	0.57181 0.62049 0.00506 -0.52400
O 	O 	0.43683 0.51426 0.12242 -0.59400
O 	O 	0.43716 0.67388 0.15927 -0.51600
O 	O 	0.64200 0.79438 0.20591 -0.53500
O 	O 	0.84447 0.85553 0.32282 -0.53000
O 	O 	0.85271 0.88425 0.13493 -0.49900
Be	Be	0.53430 0.58873 0.89087 1.48000
P 	P 	0.02744 0.90193 0.88781 0.40800
H 	H 	0.15770 0.90980 0.83780 -0.04100
P 	P 	0.25290 0.63135 0.77254 0.58200
H 	H 	0.16690 0.56150 0.76060 -0.07100
O 	O 	0.07181 0.87951 0.99494 -0.53500
O 	O 	0.93683 0.98574 0.87758 -0.49100
O 	O 	0.93716 0.82612 0.84073 -0.40900
O 	O 	0.14200 0.70562 0.79409 -0.57700
O 	O 	0.34447 0.64447 0.67718 -0.56900
O 	O 	0.35271 0.61575 0.86507 -0.54800
Be	Be	0.96570 0.91127 0.39087 1.48200
P 	P 	0.47256 0.59807 0.38781 0.55900
H 	H 	0.34230 0.59020 0.33780 -0.06300
P 	P 	0.24710 0.86865 0.27254 0.58200
H 	H 	0.33310 0.93850 0.26060 -0.05000
O 	O 	0.42819 0.62049 0.49494 -0.53200
O 	O 	0.56317 0.51426 0.37758 -0.57900
O 	O 	0.56284 0.67388 0.34073 -0.50200
O 	O 	0.35800 0.79438 0.29409 -0.55000
O 	O 	0.15553 0.85553 0.17718 -0.59600
O 	O 	0.14729 0.88425 0.36507 -0.58900
Be	Be	0.00000 0.23710 0.25000 1.47500
Be	Be	0.50000 0.26290 0.75000 1.48000
Be	Be	0.00000 0.76290 0.75000 1.47500
Be	Be	0.50000 0.73710 0.25000 1.48000
