data_crystal

_cell_length_a 17.50800
_cell_length_b 17.50800
_cell_length_c 20.78880
_cell_angle_alpha 90.00000
_cell_angle_beta  90.00000
_cell_angle_gamma 120.00000

_symmetry_space_group_name_	'P 1'
_symmetry_space_group_name_H-M	'P 1'

loop_
_symmetry_equiv_pos_as_xyz
  x,y,z

loop_
_atom_site_label
_atom_site_type_symbol
_atom_site_fract_x
_atom_site_fract_y
_atom_site_fract_z
_atom_site_charge
N 	N 	0.80070 0.56690 0.43744 -0.08900
N 	N 	0.74010 0.57668 0.47032 -0.04300
N 	N 	0.68720 0.50933 0.50554 -0.05900
N 	N 	0.71242 0.44997 0.49577 -0.20600
C 	C 	0.77990 0.48530 0.45398 0.09800
H 	H 	0.80910 0.45580 0.43820 0.00400
N 	N 	0.95170 0.76850 0.61567 -0.06300
N 	N 	0.87880 0.77380 0.61355 -0.04200
N 	N 	0.88380 0.84270 0.64370 -0.05800
N 	N 	0.96408 0.88470 0.66727 -0.16700
C 	C 	0.00430 0.83940 0.64927 0.03700
H 	H 	0.06360 0.85670 0.65970 0.02900
N 	N 	0.56270 0.77120 0.01104 -0.08800
N 	N 	0.57472 0.83920 0.97570 -0.04300
N 	N 	0.50812 0.82215 0.93688 -0.05700
N 	N 	0.44858 0.73893 0.94836 -0.20500
C 	C 	0.48320 0.70940 0.99284 0.09000
H 	H 	0.45390 0.65090 0.00930 0.00700
N 	N 	0.78060 0.80540 0.83860 -0.09200
N 	N 	0.76950 0.87430 0.83586 -0.04400
N 	N 	0.83010 0.94180 0.80387 -0.05000
N 	N 	0.88576 0.91725 0.78382 -0.19000
C 	C 	0.85530 0.83490 0.80520 0.10700
H 	H 	0.88350 0.80140 0.79750 0.01300
C 	C 	0.65790 0.92360 0.97355 -0.06600
H 	H 	0.67800 0.94470 0.01790 0.07700
H 	H 	0.64850 0.96820 0.95120 0.07700
C 	C 	0.72780 0.91300 0.93860 -0.09500
H 	H 	0.73990 0.87140 0.96270 0.08100
H 	H 	0.78310 0.97060 0.93680 0.07900
C 	C 	0.69870 0.87850 0.87040 -0.05000
H 	H 	0.64580 0.81890 0.87210 0.07100
H 	H 	0.68280 0.91780 0.84700 0.06700
C 	C 	0.73630 0.65850 0.46720 -0.04900
H 	H 	0.67940 0.64820 0.48490 0.06400
H 	H 	0.74040 0.67760 0.42190 0.06400
C 	C 	0.81240 0.73040 0.50600 -0.10800
H 	H 	0.86850 0.73460 0.49220 0.09200
H 	H 	0.81640 0.78790 0.49740 0.07700
C 	C 	0.79980 0.71130 0.57780 -0.04300
H 	H 	0.74860 0.71560 0.59300 0.06000
H 	H 	0.78750 0.65040 0.58590 0.06900
N 	N 	0.46737 0.90023 0.77077 -0.08600
N 	N 	0.40677 0.91001 0.80365 -0.05400
N 	N 	0.35387 0.84266 0.83887 -0.05700
N 	N 	0.37909 0.78330 0.82910 -0.20600
C 	C 	0.44657 0.81863 0.78731 0.09800
H 	H 	0.47577 0.78913 0.77153 0.00200
N 	N 	0.61837 0.10183 0.94900 -0.10300
N 	N 	0.54547 0.10713 0.94688 -0.04500
N 	N 	0.55047 0.17603 0.97703 -0.06700
N 	N 	0.63075 0.21803 0.00060 -0.20400
C 	C 	0.67097 0.17273 0.98260 0.10100
H 	H 	0.73027 0.19003 0.99303 0.00300
N 	N 	0.22937 0.10453 0.34437 -0.08600
N 	N 	0.24139 0.17253 0.30903 -0.04500
N 	N 	0.17479 0.15548 0.27021 -0.06100
N 	N 	0.11525 0.07226 0.28169 -0.20700
C 	C 	0.14987 0.04273 0.32617 0.02300
H 	H 	0.12057 0.98423 0.34263 0.04600
N 	N 	0.44727 0.13873 0.17193 -0.10200
N 	N 	0.43617 0.20763 0.16919 -0.04700
N 	N 	0.49677 0.27513 0.13720 -0.06100
N 	N 	0.55243 0.25058 0.11715 -0.20500
C 	C 	0.52197 0.16823 0.13853 0.10100
H 	H 	0.55017 0.13473 0.13083 -0.00200
C 	C 	0.32457 0.25693 0.30688 -0.05400
H 	H 	0.34467 0.27803 0.35123 0.06200
H 	H 	0.31517 0.30153 0.28453 0.06400
C 	C 	0.39447 0.24633 0.27193 -0.09800
H 	H 	0.40657 0.20473 0.29603 0.07600
H 	H 	0.44977 0.30393 0.27013 0.06800
C 	C 	0.36537 0.21183 0.20373 -0.05000
H 	H 	0.31247 0.15223 0.20543 0.06300
H 	H 	0.34947 0.25113 0.18033 0.06000
C 	C 	0.40297 0.99183 0.80053 0.07000
H 	H 	0.34607 0.98153 0.81823 0.04100
H 	H 	0.40707 0.01093 0.75523 0.00300
C 	C 	0.47907 0.06373 0.83933 -0.16900
H 	H 	0.53517 0.06793 0.82553 0.09300
H 	H 	0.48307 0.12123 0.83073 0.08500
C 	C 	0.46647 0.04463 0.91113 -0.08400
H 	H 	0.41527 0.04893 0.92633 0.05600
H 	H 	0.45417 0.98373 0.91923 0.10100
N 	N 	0.13403 0.23357 0.10411 -0.09400
N 	N 	0.07343 0.24335 0.13699 -0.04800
N 	N 	0.02053 0.17600 0.17221 -0.07100
N 	N 	0.04575 0.11664 0.16244 -0.21800
C 	C 	0.11323 0.15197 0.12065 0.09200
H 	H 	0.14243 0.12247 0.10487 -0.00800
N 	N 	0.28503 0.43517 0.28234 -0.09500
N 	N 	0.21213 0.44047 0.28022 -0.04700
N 	N 	0.21713 0.50937 0.31037 -0.06600
N 	N 	0.29741 0.55137 0.33394 -0.20700
C 	C 	0.33763 0.50607 0.31594 0.10600
H 	H 	0.39693 0.52337 0.32637 0.00400
N 	N 	0.89603 0.43787 0.67771 -0.08700
N 	N 	0.90805 0.50587 0.64237 -0.05400
N 	N 	0.84145 0.48882 0.60355 -0.05500
N 	N 	0.78191 0.40560 0.61503 -0.20700
C 	C 	0.81653 0.37607 0.65951 0.10000
H 	H 	0.78723 0.31757 0.67597 0.00200
N 	N 	0.11393 0.47207 0.50527 -0.10400
N 	N 	0.10283 0.54097 0.50253 -0.04500
N 	N 	0.16343 0.60847 0.47054 -0.06200
N 	N 	0.21909 0.58392 0.45049 -0.20500
C 	C 	0.18863 0.50157 0.47187 0.10000
H 	H 	0.21683 0.46807 0.46417 0.00100
C 	C 	0.99123 0.59027 0.64022 0.07000
H 	H 	0.01133 0.61137 0.68457 0.00400
H 	H 	0.98183 0.63487 0.61787 0.04300
C 	C 	0.06113 0.57967 0.60527 -0.16800
H 	H 	0.07323 0.53807 0.62937 0.08900
H 	H 	0.11643 0.63727 0.60347 0.08700
C 	C 	0.03203 0.54517 0.53707 -0.08600
H 	H 	0.97913 0.48557 0.53877 0.10300
H 	H 	0.01613 0.58447 0.51367 0.05800
C 	C 	0.06963 0.32517 0.13387 -0.04600
H 	H 	0.01273 0.31487 0.15157 0.05000
H 	H 	0.07373 0.34427 0.08857 0.05500
C 	C 	0.14573 0.39707 0.17267 -0.10800
H 	H 	0.20183 0.40127 0.15887 0.08600
H 	H 	0.14973 0.45457 0.16407 0.06800
C 	C 	0.13313 0.37797 0.24447 -0.04200
H 	H 	0.08193 0.38227 0.25967 0.04900
H 	H 	0.12083 0.31707 0.25257 0.06300
N 	N 	0.43310 0.23380 0.43744 -0.09400
N 	N 	0.42332 0.16342 0.47032 -0.04500
N 	N 	0.49067 0.17787 0.50554 -0.06100
N 	N 	0.55003 0.26245 0.49577 -0.20600
C 	C 	0.51470 0.29460 0.45398 0.09700
H 	H 	0.54420 0.35330 0.43820 0.00100
N 	N 	0.23150 0.18320 0.61567 -0.09700
N 	N 	0.22620 0.10500 0.61355 -0.04700
N 	N 	0.15730 0.04110 0.64370 -0.07600
N 	N 	0.11530 0.07938 0.66727 -0.21700
C 	C 	0.16060 0.16490 0.64927 0.10200
H 	H 	0.14330 0.20690 0.65970 -0.00400
N 	N 	0.22880 0.79150 0.01104 -0.08800
N 	N 	0.16080 0.73552 0.97570 -0.04600
N 	N 	0.17785 0.68597 0.93688 -0.06000
N 	N 	0.26107 0.70965 0.94836 -0.20600
C 	C 	0.29060 0.77380 0.99284 0.08900
H 	H 	0.34910 0.80300 0.00930 0.01000
N 	N 	0.19460 0.97520 0.83860 -0.06100
N 	N 	0.12570 0.89520 0.83586 -0.04400
N 	N 	0.05820 0.88830 0.80387 -0.06500
N 	N 	0.08275 0.96851 0.78382 -0.17300
C 	C 	0.16510 0.02040 0.80520 0.02100
H 	H 	0.19860 0.08210 0.79750 0.02300
C 	C 	0.07640 0.73430 0.97355 -0.05300
H 	H 	0.05530 0.73330 0.01790 0.05800
H 	H 	0.03180 0.68030 0.95120 0.05500
C 	C 	0.08700 0.81480 0.93860 -0.10000
H 	H 	0.12860 0.86850 0.96270 0.08200
H 	H 	0.02940 0.81250 0.93680 0.06200
C 	C 	0.12150 0.82020 0.87040 -0.04900
H 	H 	0.18110 0.82690 0.87210 0.07200
H 	H 	0.08220 0.76500 0.84700 0.05700
C 	C 	0.34150 0.07780 0.46720 -0.05000
H 	H 	0.35180 0.03120 0.48490 0.05300
H 	H 	0.32240 0.06280 0.42190 0.05400
C 	C 	0.26960 0.08200 0.50600 -0.09900
H 	H 	0.26540 0.13390 0.49220 0.07900
H 	H 	0.21210 0.02850 0.49740 0.05500
C 	C 	0.28870 0.08850 0.57780 -0.05100
H 	H 	0.28440 0.03300 0.59300 0.05100
H 	H 	0.34960 0.13710 0.58590 0.06800
N 	N 	0.09977 0.56713 0.77077 -0.09900
N 	N 	0.08999 0.49675 0.80365 -0.03400
N 	N 	0.15734 0.51120 0.83887 -0.06200
N 	N 	0.21670 0.59578 0.82910 -0.20600
C 	C 	0.18137 0.62793 0.78731 0.09600
H 	H 	0.21087 0.68663 0.77153 0.00200
N 	N 	0.89817 0.51653 0.94900 -0.08500
N 	N 	0.89287 0.43833 0.94688 -0.04600
N 	N 	0.82397 0.37443 0.97703 -0.06400
N 	N 	0.78197 0.41271 0.00060 -0.20300
C 	C 	0.82727 0.49823 0.98260 0.10600
H 	H 	0.80997 0.54023 0.99303 0.00800
N 	N 	0.89547 0.12483 0.34437 -0.10300
N 	N 	0.82747 0.06885 0.30903 -0.04700
N 	N 	0.84452 0.01930 0.27021 -0.06600
N 	N 	0.92774 0.04298 0.28169 -0.21500
C 	C 	0.95727 0.10713 0.32617 0.17000
H 	H 	0.01577 0.13633 0.34263 -0.05100
N 	N 	0.86127 0.30853 0.17193 -0.08600
N 	N 	0.79237 0.22853 0.16919 -0.04500
N 	N 	0.72487 0.22163 0.13720 -0.06200
N 	N 	0.74942 0.30184 0.11715 -0.20400
C 	C 	0.83177 0.35373 0.13853 0.10500
H 	H 	0.86527 0.41543 0.13083 0.01000
C 	C 	0.74307 0.06763 0.30688 -0.04400
H 	H 	0.72197 0.06663 0.35123 0.05400
H 	H 	0.69847 0.01363 0.28453 0.05100
C 	C 	0.75367 0.14813 0.27193 -0.10500
H 	H 	0.79527 0.20183 0.29603 0.08400
H 	H 	0.69607 0.14583 0.27013 0.06700
C 	C 	0.78817 0.15353 0.20373 -0.04600
H 	H 	0.84777 0.16023 0.20543 0.07500
H 	H 	0.74887 0.09833 0.18033 0.05500
C 	C 	0.00817 0.41113 0.80053 -0.17700
H 	H 	0.01847 0.36453 0.81823 0.08600
H 	H 	0.98907 0.39613 0.75523 0.12400
C 	C 	0.93627 0.41533 0.83933 -0.03100
H 	H 	0.93207 0.46723 0.82553 0.07400
H 	H 	0.87877 0.36183 0.83073 0.05000
C 	C 	0.95537 0.42183 0.91113 -0.01300
H 	H 	0.95107 0.36633 0.92633 0.06000
H 	H 	0.01627 0.47043 0.91923 0.03600
N 	N 	0.76643 0.90047 0.10411 -0.09700
N 	N 	0.75665 0.83009 0.13699 -0.04300
N 	N 	0.82400 0.84454 0.17221 -0.05600
N 	N 	0.88336 0.92912 0.16244 -0.19900
C 	C 	0.84803 0.96127 0.12065 0.16400
H 	H 	0.87753 0.01997 0.10487 -0.03300
N 	N 	0.56483 0.84987 0.28234 -0.08700
N 	N 	0.55953 0.77167 0.28022 -0.04400
N 	N 	0.49063 0.70777 0.31037 -0.06300
N 	N 	0.44863 0.74605 0.33394 -0.20600
C 	C 	0.49393 0.83157 0.31594 0.10900
H 	H 	0.47663 0.87357 0.32637 0.01000
N 	N 	0.56213 0.45817 0.67771 -0.09300
N 	N 	0.49413 0.40219 0.64237 -0.04400
N 	N 	0.51118 0.35264 0.60355 -0.05800
N 	N 	0.59440 0.37632 0.61503 -0.20700
C 	C 	0.62393 0.44047 0.65951 0.09800
H 	H 	0.68243 0.46967 0.67597 0.00300
N 	N 	0.52793 0.64187 0.50527 -0.09300
N 	N 	0.45903 0.56187 0.50253 -0.04600
N 	N 	0.39153 0.55497 0.47054 -0.06100
N 	N 	0.41608 0.63518 0.45049 -0.20400
C 	C 	0.49843 0.68707 0.47187 0.10300
H 	H 	0.53193 0.74877 0.46417 0.00700
C 	C 	0.40973 0.40097 0.64022 -0.05200
H 	H 	0.38863 0.39997 0.68457 0.06200
H 	H 	0.36513 0.34697 0.61787 0.06300
C 	C 	0.42033 0.48147 0.60527 -0.09800
H 	H 	0.46193 0.53517 0.62937 0.08000
H 	H 	0.36273 0.47917 0.60347 0.06700
C 	C 	0.45483 0.48687 0.53707 -0.05000
H 	H 	0.51443 0.49357 0.53877 0.07000
H 	H 	0.41553 0.43167 0.51367 0.06100
C 	C 	0.67483 0.74447 0.13387 -0.05200
H 	H 	0.68513 0.69787 0.15157 0.06500
H 	H 	0.65573 0.72947 0.08857 0.06500
C 	C 	0.60293 0.74867 0.17267 -0.10100
H 	H 	0.59873 0.80057 0.15887 0.08700
H 	H 	0.54543 0.69517 0.16407 0.06900
C 	C 	0.62203 0.75517 0.24447 -0.04800
H 	H 	0.61773 0.69967 0.25967 0.06000
H 	H 	0.68293 0.80377 0.25257 0.07300
N 	N 	0.76620 0.19930 0.43744 -0.09400
N 	N 	0.83658 0.25990 0.47032 -0.04200
N 	N 	0.82213 0.31280 0.50554 -0.05800
N 	N 	0.73755 0.28758 0.49577 -0.20600
C 	C 	0.70540 0.22010 0.45398 0.09700
H 	H 	0.64670 0.19090 0.43820 -0.00100
N 	N 	0.81680 0.04830 0.61567 -0.12400
N 	N 	0.89500 0.12120 0.61355 -0.04500
N 	N 	0.95890 0.11620 0.64370 -0.05600
N 	N 	0.92062 0.03592 0.66727 -0.22700
C 	C 	0.83510 0.99570 0.64927 0.18000
H 	H 	0.79310 0.93640 0.65970 -0.01200
N 	N 	0.20850 0.43730 0.01104 -0.09100
N 	N 	0.26448 0.42528 0.97570 -0.04400
N 	N 	0.31403 0.49188 0.93688 -0.05900
N 	N 	0.29035 0.55142 0.94836 -0.20600
C 	C 	0.22620 0.51680 0.99284 0.08900
H 	H 	0.19700 0.54610 0.00930 0.00500
N 	N 	0.02480 0.21940 0.83860 -0.13000
N 	N 	0.10480 0.23050 0.83586 -0.04800
N 	N 	0.11170 0.16990 0.80387 -0.06500
N 	N 	0.03149 0.11424 0.78382 -0.24300
C 	C 	0.97960 0.14470 0.80520 0.18200
H 	H 	0.91790 0.11650 0.79750 -0.02400
C 	C 	0.26570 0.34210 0.97355 -0.06400
H 	H 	0.26670 0.32200 0.01790 0.06700
H 	H 	0.31970 0.35150 0.95120 0.06600
C 	C 	0.18520 0.27220 0.93860 -0.08600
H 	H 	0.13150 0.26010 0.96270 0.06900
H 	H 	0.18750 0.21690 0.93680 0.05800
C 	C 	0.17980 0.30130 0.87040 -0.05900
H 	H 	0.17310 0.35420 0.87210 0.07000
H 	H 	0.23500 0.31720 0.84700 0.06200
C 	C 	0.92220 0.26370 0.46720 -0.06200
H 	H 	0.96880 0.32060 0.48490 0.07600
H 	H 	0.93720 0.25960 0.42190 0.07300
C 	C 	0.91800 0.18760 0.50600 -0.09200
H 	H 	0.86610 0.13150 0.49220 0.07900
H 	H 	0.97150 0.18360 0.49740 0.07300
C 	C 	0.91150 0.20020 0.57780 -0.05400
H 	H 	0.96700 0.25140 0.59300 0.06800
H 	H 	0.86290 0.21250 0.58590 0.07100
N 	N 	0.43287 0.53263 0.77077 -0.09300
N 	N 	0.50325 0.59323 0.80365 -0.04400
N 	N 	0.48880 0.64613 0.83887 -0.05900
N 	N 	0.40422 0.62091 0.82910 -0.20600
C 	C 	0.37207 0.55343 0.78731 0.09700
H 	H 	0.31337 0.52423 0.77153 0.00000
N 	N 	0.48347 0.38163 0.94900 -0.09600
N 	N 	0.56167 0.45453 0.94688 -0.04500
N 	N 	0.62557 0.44953 0.97703 -0.06500
N 	N 	0.58729 0.36925 0.00060 -0.20400
C 	C 	0.50177 0.32903 0.98260 0.10400
H 	H 	0.45977 0.26973 0.99303 0.00100
N 	N 	0.87517 0.77063 0.34437 -0.09100
N 	N 	0.93115 0.75861 0.30903 -0.04000
N 	N 	0.98070 0.82521 0.27021 -0.04700
N 	N 	0.95702 0.88475 0.28169 -0.19000
C 	C 	0.89287 0.85013 0.32617 0.10400
H 	H 	0.86367 0.87943 0.34263 0.01200
N 	N 	0.69147 0.55273 0.17193 -0.09400
N 	N 	0.77147 0.56383 0.16919 -0.04400
N 	N 	0.77837 0.50323 0.13720 -0.05800
N 	N 	0.69816 0.44757 0.11715 -0.20400
C 	C 	0.64627 0.47803 0.13853 0.10400
H 	H 	0.58457 0.44983 0.13083 0.00400
C 	C 	0.93237 0.67543 0.30688 -0.06100
H 	H 	0.93337 0.65533 0.35123 0.07200
H 	H 	0.98637 0.68483 0.28453 0.07800
C 	C 	0.85187 0.60553 0.27193 -0.09100
H 	H 	0.79817 0.59343 0.29603 0.07800
H 	H 	0.85417 0.55023 0.27013 0.06900
C 	C 	0.84647 0.63463 0.20373 -0.05600
H 	H 	0.83977 0.68753 0.20543 0.07400
H 	H 	0.90167 0.65053 0.18033 0.07000
C 	C 	0.58887 0.59703 0.80053 -0.05500
H 	H 	0.63547 0.65393 0.81823 0.06500
H 	H 	0.60387 0.59293 0.75523 0.06500
C 	C 	0.58467 0.52093 0.83933 -0.09900
H 	H 	0.53277 0.46483 0.82553 0.08300
H 	H 	0.63817 0.51693 0.83073 0.06900
C 	C 	0.57817 0.53353 0.91113 -0.05000
H 	H 	0.63367 0.58473 0.92633 0.06100
H 	H 	0.52957 0.54583 0.91923 0.06900
N 	N 	0.09953 0.86597 0.10411 -0.08500
N 	N 	0.16991 0.92657 0.13699 -0.04000
N 	N 	0.15546 0.97947 0.17221 -0.04900
N 	N 	0.07088 0.95425 0.16244 -0.19200
C 	C 	0.03873 0.88677 0.12065 0.03600
H 	H 	0.98003 0.85757 0.10487 0.04900
N 	N 	0.15013 0.71497 0.28234 -0.10200
N 	N 	0.22833 0.78787 0.28022 -0.04400
N 	N 	0.29223 0.78287 0.31037 -0.06200
N 	N 	0.25395 0.70259 0.33394 -0.20700
C 	C 	0.16843 0.66237 0.31594 0.10600
H 	H 	0.12643 0.60307 0.32637 -0.00300
N 	N 	0.54183 0.10397 0.67771 -0.10000
N 	N 	0.59781 0.09195 0.64237 -0.03400
N 	N 	0.64736 0.15855 0.60355 -0.06100
N 	N 	0.62368 0.21809 0.61503 -0.20700
C 	C 	0.55953 0.18347 0.65951 0.09800
H 	H 	0.53033 0.21277 0.67597 0.00100
N 	N 	0.35813 0.88607 0.50527 -0.08500
N 	N 	0.43813 0.89717 0.50253 -0.04600
N 	N 	0.44503 0.83657 0.47054 -0.05800
N 	N 	0.36482 0.78091 0.45049 -0.20400
C 	C 	0.31293 0.81137 0.47187 0.10500
H 	H 	0.25123 0.78317 0.46417 0.00400
C 	C 	0.59903 0.00877 0.64022 -0.17600
H 	H 	0.60003 0.98867 0.68457 0.12300
H 	H 	0.65303 0.01817 0.61787 0.08700
C 	C 	0.51853 0.93887 0.60527 -0.02800
H 	H 	0.46483 0.92677 0.62937 0.06900
H 	H 	0.52083 0.88357 0.60347 0.05100
C 	C 	0.51313 0.96797 0.53707 -0.01500
H 	H 	0.50643 0.02087 0.53877 0.03800
H 	H 	0.56833 0.98387 0.51367 0.06600
C 	C 	0.25553 0.93037 0.13387 -0.06400
H 	H 	0.30213 0.98727 0.15157 0.08000
H 	H 	0.27053 0.92627 0.08857 0.07300
C 	C 	0.25133 0.85427 0.17267 -0.08900
H 	H 	0.19943 0.79817 0.15887 0.07700
H 	H 	0.30483 0.85027 0.16407 0.06800
C 	C 	0.24483 0.86687 0.24447 -0.05800
H 	H 	0.30033 0.91807 0.25967 0.07000
H 	H 	0.19623 0.87917 0.25257 0.07200
Zn	Zn	-0.00000 0.00000 0.72463 1.16400
Zn	Zn	0.66667 0.33333 0.05796 1.18800
Zn	Zn	0.33333 0.66667 0.39130 1.18700
Zn	Zn	0.66667 0.33333 0.55502 1.18600
Zn	Zn	0.33333 0.66667 0.88835 1.18600
Zn	Zn	-0.00000 0.00000 0.22169 1.16200
