data_crystal

_cell_length_a 25.66700
_cell_length_b 13.07600
_cell_length_c 8.72500
_cell_angle_alpha 90.00000
_cell_angle_beta  95.07000
_cell_angle_gamma 90.00000

_symmetry_space_group_name_	'P 1'
_symmetry_space_group_name_H-M	'P 1'

loop_
_symmetry_equiv_pos_as_xyz
  x,y,z

loop_
_atom_site_label
_atom_site_type_symbol
_atom_site_fract_x
_atom_site_fract_y
_atom_site_fract_z
_atom_site_charge
Cu	Cu	0.29264 0.29674 0.06182 0.91700
O 	O 	0.25179 0.29209 0.24320 -0.44600
O 	O 	0.17892 0.21720 0.14010 -0.44500
O 	O 	0.18381 0.65509 0.39210 -0.45400
O 	O 	0.25549 0.57623 0.49320 -0.44600
N 	N 	0.35746 0.36600 0.20350 -0.20600
C 	C 	0.20543 0.26250 0.24830 0.48700
C 	C 	0.17914 0.28470 0.39430 -0.57600
H 	H 	0.18590 0.22850 0.46590 0.22300
H 	H 	0.14160 0.28890 0.36920 0.20600
C 	C 	0.19838 0.38430 0.47190 0.36400
H 	H 	0.18120 0.39390 0.56550 -0.07900
H 	H 	0.23570 0.37950 0.49990 -0.05600
C 	C 	0.18730 0.47620 0.36700 -0.57500
H 	H 	0.20010 0.46090 0.26810 0.21900
H 	H 	0.14970 0.48470 0.35010 0.20600
C 	C 	0.21093 0.57720 0.42370 0.50300
C 	C 	0.39522 0.30880 0.27120 0.11000
H 	H 	0.39610 0.23990 0.24540 -0.00400
C 	C 	0.43319 0.34580 0.37780 -0.21200
H 	H 	0.45930 0.30230 0.42010 0.09600
C 	C 	0.43277 0.44610 0.42190 0.15500
C 	C 	0.39278 0.50660 0.35090 -0.20900
H 	H 	0.39080 0.57560 0.37570 0.11200
C 	C 	0.35666 0.46470 0.24550 0.11700
H 	H 	0.33020 0.50650 0.20050 0.00500
C 	C 	0.47480 0.48970 0.53540 -0.17800
H 	H 	0.46230 0.55300 0.57700 0.08400
H 	H 	0.48150 0.44210 0.62010 0.07800
Cu	Cu	0.79264 0.79674 0.06182 0.91700
O 	O 	0.75179 0.79209 0.24320 -0.44500
O 	O 	0.67892 0.71720 0.14010 -0.44500
O 	O 	0.68381 0.15509 0.39210 -0.45300
O 	O 	0.75549 0.07623 0.49320 -0.44600
N 	N 	0.85746 0.86600 0.20350 -0.20400
C 	C 	0.70543 0.76250 0.24830 0.48700
C 	C 	0.67914 0.78470 0.39430 -0.57600
H 	H 	0.68590 0.72850 0.46590 0.22300
H 	H 	0.64160 0.78890 0.36920 0.20500
C 	C 	0.69838 0.88430 0.47190 0.36400
H 	H 	0.68120 0.89390 0.56550 -0.07900
H 	H 	0.73570 0.87950 0.49990 -0.05600
C 	C 	0.68730 0.97620 0.36700 -0.57500
H 	H 	0.70010 0.96090 0.26810 0.21900
H 	H 	0.64970 0.98470 0.35010 0.20600
C 	C 	0.71093 0.07720 0.42370 0.50400
C 	C 	0.89522 0.80880 0.27120 0.10900
H 	H 	0.89610 0.73990 0.24540 -0.00400
C 	C 	0.93319 0.84580 0.37780 -0.21000
H 	H 	0.95930 0.80230 0.42010 0.09600
C 	C 	0.93277 0.94610 0.42190 0.15200
C 	C 	0.89278 0.00660 0.35090 -0.20300
H 	H 	0.89080 0.07560 0.37570 0.11000
C 	C 	0.85666 0.96470 0.24550 0.11100
H 	H 	0.83020 0.00650 0.20050 0.00800
C 	C 	0.97480 0.98970 0.53540 -0.17800
H 	H 	0.96230 0.05300 0.57700 0.08400
H 	H 	0.98150 0.94210 0.62010 0.07800
Cu	Cu	0.70736 0.29674 0.43818 0.91800
O 	O 	0.74821 0.29209 0.25680 -0.44500
O 	O 	0.82108 0.21720 0.35990 -0.44500
O 	O 	0.81619 0.65509 0.10790 -0.45300
O 	O 	0.74451 0.57623 0.00680 -0.44500
N 	N 	0.64254 0.36600 0.29650 -0.20500
C 	C 	0.79457 0.26250 0.25170 0.48700
C 	C 	0.82086 0.28470 0.10570 -0.57800
H 	H 	0.81410 0.22850 0.03410 0.22400
H 	H 	0.85840 0.28890 0.13080 0.20600
C 	C 	0.80162 0.38430 0.02810 0.36600
H 	H 	0.81880 0.39390 0.93450 -0.07900
H 	H 	0.76430 0.37950 0.00010 -0.05700
C 	C 	0.81270 0.47620 0.13300 -0.57600
H 	H 	0.79990 0.46090 0.23190 0.22000
H 	H 	0.85030 0.48470 0.14990 0.20600
C 	C 	0.78907 0.57720 0.07630 0.50400
C 	C 	0.60478 0.30880 0.22880 0.11100
H 	H 	0.60390 0.23990 0.25460 -0.00500
C 	C 	0.56681 0.34580 0.12220 -0.21200
H 	H 	0.54070 0.30230 0.07990 0.09700
C 	C 	0.56723 0.44610 0.07810 0.15500
C 	C 	0.60722 0.50660 0.14910 -0.20900
H 	H 	0.60920 0.57560 0.12430 0.11200
C 	C 	0.64334 0.46470 0.25450 0.11700
H 	H 	0.66980 0.50650 0.29950 0.00500
C 	C 	0.52520 0.48970 0.96460 -0.17900
H 	H 	0.53770 0.55300 0.92300 0.08400
H 	H 	0.51850 0.44210 0.87990 0.07800
Cu	Cu	0.20736 0.79674 0.43818 0.91800
O 	O 	0.24821 0.79209 0.25680 -0.44500
O 	O 	0.32108 0.71720 0.35990 -0.44500
O 	O 	0.31619 0.15509 0.10790 -0.45200
O 	O 	0.24451 0.07623 0.00680 -0.44400
N 	N 	0.14254 0.86600 0.29650 -0.20300
C 	C 	0.29457 0.76250 0.25170 0.48600
C 	C 	0.32086 0.78470 0.10570 -0.57400
H 	H 	0.31410 0.72850 0.03410 0.22200
H 	H 	0.35840 0.78890 0.13080 0.20500
C 	C 	0.30162 0.88430 0.02810 0.36000
H 	H 	0.31880 0.89390 0.93450 -0.07600
H 	H 	0.26430 0.87950 0.00010 -0.05600
C 	C 	0.31270 0.97620 0.13300 -0.57600
H 	H 	0.29990 0.96090 0.23190 0.21900
H 	H 	0.35030 0.98470 0.14990 0.20600
C 	C 	0.28907 0.07720 0.07630 0.50400
C 	C 	0.10478 0.80880 0.22880 0.10700
H 	H 	0.10390 0.73990 0.25460 -0.00300
C 	C 	0.06681 0.84580 0.12220 -0.20700
H 	H 	0.04070 0.80230 0.07990 0.09400
C 	C 	0.06723 0.94610 0.07810 0.14600
C 	C 	0.10722 0.00660 0.14910 -0.19800
H 	H 	0.10920 0.07560 0.12430 0.10900
C 	C 	0.14334 0.96470 0.25450 0.10800
H 	H 	0.16980 0.00650 0.29950 0.00800
C 	C 	0.02520 0.98970 0.96460 -0.17100
H 	H 	0.03770 0.05300 0.92300 0.08100
H 	H 	0.01850 0.94210 0.87990 0.07700
Cu	Cu	0.70736 0.70326 0.93818 0.91800
O 	O 	0.74821 0.70791 0.75680 -0.44500
O 	O 	0.82108 0.78280 0.85990 -0.44400
O 	O 	0.81619 0.34491 0.60790 -0.45300
O 	O 	0.74451 0.42377 0.50680 -0.44500
N 	N 	0.64254 0.63400 0.79650 -0.20500
C 	C 	0.79457 0.73750 0.75170 0.48700
C 	C 	0.82086 0.71530 0.60570 -0.57600
H 	H 	0.81410 0.77150 0.53410 0.22300
H 	H 	0.85840 0.71110 0.63080 0.20600
C 	C 	0.80162 0.61570 0.52810 0.36400
H 	H 	0.81880 0.60610 0.43450 -0.07900
H 	H 	0.76430 0.62050 0.50010 -0.05600
C 	C 	0.81270 0.52380 0.63300 -0.57500
H 	H 	0.79990 0.53910 0.73190 0.21900
H 	H 	0.85030 0.51530 0.64990 0.20600
C 	C 	0.78907 0.42280 0.57630 0.50300
C 	C 	0.60478 0.69120 0.72880 0.11000
H 	H 	0.60390 0.76010 0.75460 -0.00400
C 	C 	0.56681 0.65420 0.62220 -0.21200
H 	H 	0.54070 0.69770 0.57990 0.09600
C 	C 	0.56723 0.55390 0.57810 0.15500
C 	C 	0.60722 0.49340 0.64910 -0.20900
H 	H 	0.60920 0.42440 0.62430 0.11200
C 	C 	0.64334 0.53530 0.75450 0.11700
H 	H 	0.66980 0.49350 0.79950 0.00500
C 	C 	0.52520 0.51030 0.46460 -0.17800
H 	H 	0.53770 0.44700 0.42300 0.08400
H 	H 	0.51850 0.55790 0.37990 0.07800
Cu	Cu	0.20736 0.20326 0.93818 0.91700
O 	O 	0.24821 0.20791 0.75680 -0.44500
O 	O 	0.32108 0.28280 0.85990 -0.44500
O 	O 	0.31619 0.84491 0.60790 -0.45300
O 	O 	0.24451 0.92377 0.50680 -0.44600
N 	N 	0.14254 0.13400 0.79650 -0.20400
C 	C 	0.29457 0.23750 0.75170 0.48700
C 	C 	0.32086 0.21530 0.60570 -0.57600
H 	H 	0.31410 0.27150 0.53410 0.22300
H 	H 	0.35840 0.21110 0.63080 0.20500
C 	C 	0.30162 0.11570 0.52810 0.36400
H 	H 	0.31880 0.10610 0.43450 -0.07900
H 	H 	0.26430 0.12050 0.50010 -0.05600
C 	C 	0.31270 0.02380 0.63300 -0.57500
H 	H 	0.29990 0.03910 0.73190 0.21900
H 	H 	0.35030 0.01530 0.64990 0.20600
C 	C 	0.28907 0.92280 0.57630 0.50400
C 	C 	0.10478 0.19120 0.72880 0.10900
H 	H 	0.10390 0.26010 0.75460 -0.00400
C 	C 	0.06681 0.15420 0.62220 -0.21000
H 	H 	0.04070 0.19770 0.57990 0.09600
C 	C 	0.06723 0.05390 0.57810 0.15200
C 	C 	0.10722 0.99340 0.64910 -0.20300
H 	H 	0.10920 0.92440 0.62430 0.11000
C 	C 	0.14334 0.03530 0.75450 0.11100
H 	H 	0.16980 0.99350 0.79950 0.00800
C 	C 	0.02520 0.01030 0.46460 -0.17800
H 	H 	0.03770 0.94700 0.42300 0.08400
H 	H 	0.01850 0.05790 0.37990 0.07800
Cu	Cu	0.29264 0.70326 0.56182 0.91800
O 	O 	0.25179 0.70791 0.74320 -0.44500
O 	O 	0.17892 0.78280 0.64010 -0.44500
O 	O 	0.18381 0.34491 0.89210 -0.45300
O 	O 	0.25549 0.42377 0.99320 -0.44500
N 	N 	0.35746 0.63400 0.70350 -0.20500
C 	C 	0.20543 0.73750 0.74830 0.48700
C 	C 	0.17914 0.71530 0.89430 -0.57800
H 	H 	0.18590 0.77150 0.96590 0.22400
H 	H 	0.14160 0.71110 0.86920 0.20600
C 	C 	0.19838 0.61570 0.97190 0.36600
H 	H 	0.18120 0.60610 0.06550 -0.07900
H 	H 	0.23570 0.62050 0.99990 -0.05700
C 	C 	0.18730 0.52380 0.86700 -0.57600
H 	H 	0.20010 0.53910 0.76810 0.22000
H 	H 	0.14970 0.51530 0.85010 0.20600
C 	C 	0.21093 0.42280 0.92370 0.50400
C 	C 	0.39522 0.69120 0.77120 0.11100
H 	H 	0.39610 0.76010 0.74540 -0.00500
C 	C 	0.43319 0.65420 0.87780 -0.21200
H 	H 	0.45930 0.69770 0.92010 0.09700
C 	C 	0.43277 0.55390 0.92190 0.15500
C 	C 	0.39278 0.49340 0.85090 -0.20900
H 	H 	0.39080 0.42440 0.87570 0.11200
C 	C 	0.35666 0.53530 0.74550 0.11700
H 	H 	0.33020 0.49350 0.70050 0.00500
C 	C 	0.47480 0.51030 0.03540 -0.17900
H 	H 	0.46230 0.44700 0.07700 0.08400
H 	H 	0.48150 0.55790 0.12010 0.07800
Cu	Cu	0.79264 0.20326 0.56182 0.91800
O 	O 	0.75179 0.20791 0.74320 -0.44500
O 	O 	0.67892 0.28280 0.64010 -0.44500
O 	O 	0.68381 0.84491 0.89210 -0.45200
O 	O 	0.75549 0.92377 0.99320 -0.44400
N 	N 	0.85746 0.13400 0.70350 -0.20300
C 	C 	0.70543 0.23750 0.74830 0.48600
C 	C 	0.67914 0.21530 0.89430 -0.57400
H 	H 	0.68590 0.27150 0.96590 0.22200
H 	H 	0.64160 0.21110 0.86920 0.20500
C 	C 	0.69838 0.11570 0.97190 0.36000
H 	H 	0.68120 0.10610 0.06550 -0.07600
H 	H 	0.73570 0.12050 0.99990 -0.05600
C 	C 	0.68730 0.02380 0.86700 -0.57600
H 	H 	0.70010 0.03910 0.76810 0.21900
H 	H 	0.64970 0.01530 0.85010 0.20600
C 	C 	0.71093 0.92280 0.92370 0.50400
C 	C 	0.89522 0.19120 0.77120 0.10700
H 	H 	0.89610 0.26010 0.74540 -0.00300
C 	C 	0.93319 0.15420 0.87780 -0.20700
H 	H 	0.95930 0.19770 0.92010 0.09400
C 	C 	0.93277 0.05390 0.92190 0.14600
C 	C 	0.89278 0.99340 0.85090 -0.19800
H 	H 	0.89080 0.92440 0.87570 0.10900
C 	C 	0.85666 0.03530 0.74550 0.10800
H 	H 	0.83020 0.99350 0.70050 0.00800
C 	C 	0.97480 0.01030 0.03540 -0.17100
H 	H 	0.96230 0.94700 0.07700 0.08100
H 	H 	0.98150 0.05790 0.12010 0.07700
