data_crystal

_cell_length_a 10.60100
_cell_length_b 26.84100
_cell_length_c 11.46400
_cell_angle_alpha 90.00000
_cell_angle_beta  97.32000
_cell_angle_gamma 90.00000

_symmetry_space_group_name_	'P 1'
_symmetry_space_group_name_H-M	'P 1'

loop_
_symmetry_equiv_pos_as_xyz
  x,y,z

loop_
_atom_site_label
_atom_site_type_symbol
_atom_site_fract_x
_atom_site_fract_y
_atom_site_fract_z
_atom_site_charge
Pb	Pb	0.13332 0.37412 0.56364 1.23400
Pb	Pb	0.26127 0.39041 0.91223 1.21500
Pb	Pb	0.39172 0.39575 0.27827 1.20900
K 	K 	0.51670 0.37406 0.68510 0.64000
K 	K 	0.89640 0.49039 0.63920 0.62200
K 	K 	0.81490 0.24226 0.61630 0.64600
S 	S 	0.53110 0.23030 0.93990 -0.27500
S 	S 	0.68450 0.35970 0.45950 -0.28000
S 	S 	0.51100 0.51700 0.49100 -0.13900
O 	O 	0.96260 0.32430 0.67840 -0.50000
O 	O 	0.03860 0.39690 0.73930 -0.59400
O 	O 	0.15650 0.46930 0.58310 -0.51300
O 	O 	0.30070 0.42900 0.70460 -0.53100
O 	O 	0.43780 0.35810 0.08140 -0.59000
O 	O 	0.48750 0.38310 0.91120 -0.56400
O 	O 	0.20200 0.30160 0.91210 -0.55600
O 	O 	0.27280 0.32920 0.75200 -0.57500
O 	O 	0.39320 0.30930 0.32060 -0.66700
O 	O 	0.37990 0.34980 0.47750 -0.66400
O 	O 	0.16410 0.40540 0.31980 -0.59600
O 	O 	0.20030 0.36900 0.15500 -0.57400
N 	N 	0.62150 0.27520 0.74730 -0.23500
N 	N 	0.91660 0.41060 0.48200 -0.26900
N 	N 	0.65100 0.47600 0.68500 -0.26300
C 	C 	0.96320 0.36150 0.74510 0.57200
C 	C 	0.87400 0.36220 0.83900 -1.00400
H 	H 	0.82300 0.33260 0.83270 0.28200
H 	H 	0.82000 0.39100 0.82800 0.26500
H 	H 	0.92320 0.36360 0.91520 0.27100
C 	C 	0.24750 0.46940 0.66780 0.46200
C 	C 	0.28800 0.51860 0.73500 -0.79300
H 	H 	0.23910 0.54590 0.69930 0.22600
H 	H 	0.37690 0.52460 0.73170 0.18900
H 	H 	0.27350 0.51550 0.81570 0.17500
C 	C 	0.52060 0.36960 0.01530 0.60100
C 	C 	0.65830 0.36730 0.06280 -1.09100
H 	H 	0.66720 0.35460 0.14180 0.30800
H 	H 	0.69450 0.40010 0.06280 0.29200
H 	H 	0.70180 0.34560 0.01450 0.31200
C 	C 	0.22580 0.29490 0.81090 0.64300
C 	C 	0.20000 0.24460 0.75380 -1.15400
H 	H 	0.27710 0.22540 0.76180 0.33900
H 	H 	0.16990 0.24900 0.67180 0.33500
H 	H 	0.13680 0.22740 0.79130 0.36200
C 	C 	0.38900 0.30860 0.42450 0.92500
C 	C 	0.39900 0.26270 0.48800 -1.64900
H 	H 	0.36230 0.26650 0.55960 0.48600
H 	H 	0.48670 0.25350 0.50530 0.49500
H 	H 	0.35390 0.23710 0.44060 0.48300
C 	C 	0.13200 0.38300 0.22760 0.53700
C 	C 	0.98410 0.37450 0.18790 -0.89300
H 	H 	0.94080 0.37170 0.25630 0.25700
H 	H 	0.97210 0.34440 0.14250 0.25400
H 	H 	0.95030 0.40220 0.14110 0.22700
C 	C 	0.58410 0.25580 0.82600 0.05600
C 	C 	0.82000 0.39090 0.47520 0.04000
C 	C 	0.59300 0.48850 0.60100 0.01200
Pb	Pb	0.36668 0.87412 0.93636 1.23400
Pb	Pb	0.23873 0.89041 0.58777 1.21500
Pb	Pb	0.10828 0.89575 0.22173 1.21100
K 	K 	0.98330 0.87406 0.81490 0.64000
K 	K 	0.60360 0.99039 0.86080 0.62200
K 	K 	0.68510 0.74226 0.88370 0.64700
S 	S 	0.96890 0.73030 0.56010 -0.28100
S 	S 	0.81550 0.85970 0.04050 -0.27700
S 	S 	0.98900 0.01700 0.00900 -0.14200
O 	O 	0.53740 0.82430 0.82160 -0.50000
O 	O 	0.46140 0.89690 0.76070 -0.59100
O 	O 	0.34350 0.96930 0.91690 -0.51400
O 	O 	0.19930 0.92900 0.79540 -0.53200
O 	O 	0.06220 0.85810 0.41860 -0.58800
O 	O 	0.01250 0.88310 0.58880 -0.56600
O 	O 	0.29800 0.80160 0.58790 -0.55800
O 	O 	0.22720 0.82920 0.74800 -0.57500
O 	O 	0.10680 0.80930 0.17940 -0.65300
O 	O 	0.12010 0.84980 0.02250 -0.64900
O 	O 	0.33590 0.90540 0.18020 -0.59500
O 	O 	0.29970 0.86900 0.34500 -0.57300
N 	N 	0.87850 0.77520 0.75270 -0.23500
N 	N 	0.58340 0.91060 0.01800 -0.26700
N 	N 	0.84900 0.97600 0.81500 -0.26500
C 	C 	0.53680 0.86150 0.75490 0.56500
C 	C 	0.62600 0.86220 0.66100 -0.99200
H 	H 	0.67700 0.83260 0.66730 0.27600
H 	H 	0.68000 0.89100 0.67200 0.26100
H 	H 	0.57680 0.86360 0.58480 0.26500
C 	C 	0.25250 0.96940 0.83220 0.46000
C 	C 	0.21200 0.01860 0.76500 -0.78800
H 	H 	0.26090 0.04590 0.80070 0.22500
H 	H 	0.12310 0.02460 0.76830 0.18800
H 	H 	0.22650 0.01550 0.68430 0.17400
C 	C 	0.97940 0.86960 0.48470 0.60100
C 	C 	0.84170 0.86730 0.43720 -1.09300
H 	H 	0.83280 0.85460 0.35820 0.30800
H 	H 	0.80550 0.90010 0.43720 0.29300
H 	H 	0.79820 0.84560 0.48550 0.31300
C 	C 	0.27420 0.79490 0.68910 0.64500
C 	C 	0.30000 0.74460 0.74620 -1.15600
H 	H 	0.22290 0.72540 0.73820 0.34100
H 	H 	0.33010 0.74900 0.82820 0.33600
H 	H 	0.36320 0.72740 0.70870 0.36300
C 	C 	0.11100 0.80860 0.07550 0.88700
C 	C 	0.10100 0.76270 0.01200 -1.54100
H 	H 	0.13770 0.76650 0.94040 0.45000
H 	H 	0.01330 0.75350 0.99470 0.45800
H 	H 	0.14610 0.73710 0.05940 0.45200
C 	C 	0.36800 0.88300 0.27240 0.53700
C 	C 	0.51590 0.87450 0.31210 -0.89400
H 	H 	0.55920 0.87170 0.24370 0.25700
H 	H 	0.52790 0.84440 0.35750 0.25400
H 	H 	0.54970 0.90220 0.35890 0.22800
C 	C 	0.91590 0.75580 0.67400 0.05600
C 	C 	0.68000 0.89090 0.02480 0.04100
C 	C 	0.90700 0.98850 0.89900 0.01400
Pb	Pb	0.86668 0.62588 0.43636 1.23500
Pb	Pb	0.73873 0.60959 0.08777 1.21600
Pb	Pb	0.60828 0.60425 0.72173 1.21000
K 	K 	0.48330 0.62594 0.31490 0.64100
K 	K 	0.10360 0.50961 0.36080 0.62300
K 	K 	0.18510 0.75774 0.38370 0.64700
S 	S 	0.46890 0.76970 0.06010 -0.27400
S 	S 	0.31550 0.64030 0.54050 -0.27900
S 	S 	0.48900 0.48300 0.50900 -0.13800
O 	O 	0.03740 0.67570 0.32160 -0.49900
O 	O 	0.96140 0.60310 0.26070 -0.59400
O 	O 	0.84350 0.53070 0.41690 -0.51300
O 	O 	0.69930 0.57100 0.29540 -0.53100
O 	O 	0.56220 0.64190 0.91860 -0.59000
O 	O 	0.51250 0.61690 0.08880 -0.56400
O 	O 	0.79800 0.69840 0.08790 -0.55600
O 	O 	0.72720 0.67080 0.24800 -0.57500
O 	O 	0.60680 0.69070 0.67940 -0.66700
O 	O 	0.62010 0.65020 0.52250 -0.66400
O 	O 	0.83590 0.59460 0.68020 -0.59600
O 	O 	0.79970 0.63100 0.84500 -0.57400
N 	N 	0.37850 0.72480 0.25270 -0.23500
N 	N 	0.08340 0.58940 0.51800 -0.26900
N 	N 	0.34900 0.52400 0.31500 -0.26300
C 	C 	0.03680 0.63850 0.25490 0.57200
C 	C 	0.12600 0.63780 0.16100 -1.00400
H 	H 	0.17700 0.66740 0.16730 0.28200
H 	H 	0.18000 0.60900 0.17200 0.26500
H 	H 	0.07680 0.63640 0.08480 0.27100
C 	C 	0.75250 0.53060 0.33220 0.46200
C 	C 	0.71200 0.48140 0.26500 -0.79300
H 	H 	0.76090 0.45410 0.30070 0.22600
H 	H 	0.62310 0.47540 0.26830 0.18900
H 	H 	0.72650 0.48450 0.18430 0.17500
C 	C 	0.47940 0.63040 0.98470 0.60100
C 	C 	0.34170 0.63270 0.93720 -1.09100
H 	H 	0.33280 0.64540 0.85820 0.30800
H 	H 	0.30550 0.59990 0.93720 0.29200
H 	H 	0.29820 0.65440 0.98550 0.31200
C 	C 	0.77420 0.70510 0.18910 0.64300
C 	C 	0.80000 0.75540 0.24620 -1.15400
H 	H 	0.72290 0.77460 0.23820 0.33900
H 	H 	0.83010 0.75100 0.32820 0.33500
H 	H 	0.86320 0.77260 0.20870 0.36200
C 	C 	0.61100 0.69140 0.57550 0.92500
C 	C 	0.60100 0.73730 0.51200 -1.64900
H 	H 	0.63770 0.73350 0.44040 0.48600
H 	H 	0.51330 0.74650 0.49470 0.49500
H 	H 	0.64610 0.76290 0.55940 0.48300
C 	C 	0.86800 0.61700 0.77240 0.53700
C 	C 	0.01590 0.62550 0.81210 -0.89300
H 	H 	0.05920 0.62830 0.74370 0.25700
H 	H 	0.02790 0.65560 0.85750 0.25400
H 	H 	0.04970 0.59780 0.85890 0.22700
C 	C 	0.41590 0.74420 0.17400 0.05600
C 	C 	0.18000 0.60910 0.52480 0.04000
C 	C 	0.40700 0.51150 0.39900 0.01200
Pb	Pb	0.63332 0.12588 0.06364 1.23400
Pb	Pb	0.76127 0.10959 0.41223 1.21500
Pb	Pb	0.89172 0.10425 0.77827 1.21100
K 	K 	0.01670 0.12594 0.18510 0.64000
K 	K 	0.39640 0.00961 0.13920 0.62200
K 	K 	0.31490 0.25774 0.11630 0.64700
S 	S 	0.03110 0.26970 0.43990 -0.28100
S 	S 	0.18450 0.14030 0.95950 -0.27700
S 	S 	0.01100 0.98300 0.99100 -0.14200
O 	O 	0.46260 0.17570 0.17840 -0.50000
O 	O 	0.53860 0.10310 0.23930 -0.59100
O 	O 	0.65650 0.03070 0.08310 -0.51400
O 	O 	0.80070 0.07100 0.20460 -0.53200
O 	O 	0.93780 0.14190 0.58140 -0.58800
O 	O 	0.98750 0.11690 0.41120 -0.56600
O 	O 	0.70200 0.19840 0.41210 -0.55800
O 	O 	0.77280 0.17080 0.25200 -0.57500
O 	O 	0.89320 0.19070 0.82060 -0.65300
O 	O 	0.87990 0.15020 0.97750 -0.64900
O 	O 	0.66410 0.09460 0.81980 -0.59500
O 	O 	0.70030 0.13100 0.65500 -0.57300
N 	N 	0.12150 0.22480 0.24730 -0.23500
N 	N 	0.41660 0.08940 0.98200 -0.26700
N 	N 	0.15100 0.02400 0.18500 -0.26500
C 	C 	0.46320 0.13850 0.24510 0.56500
C 	C 	0.37400 0.13780 0.33900 -0.99200
H 	H 	0.32300 0.16740 0.33270 0.27600
H 	H 	0.32000 0.10900 0.32800 0.26100
H 	H 	0.42320 0.13640 0.41520 0.26500
C 	C 	0.74750 0.03060 0.16780 0.46000
C 	C 	0.78800 0.98140 0.23500 -0.78800
H 	H 	0.73910 0.95410 0.19930 0.22500
H 	H 	0.87690 0.97540 0.23170 0.18800
H 	H 	0.77350 0.98450 0.31570 0.17400
C 	C 	0.02060 0.13040 0.51530 0.60100
C 	C 	0.15830 0.13270 0.56280 -1.09300
H 	H 	0.16720 0.14540 0.64180 0.30800
H 	H 	0.19450 0.09990 0.56280 0.29300
H 	H 	0.20180 0.15440 0.51450 0.31300
C 	C 	0.72580 0.20510 0.31090 0.64500
C 	C 	0.70000 0.25540 0.25380 -1.15600
H 	H 	0.77710 0.27460 0.26180 0.34100
H 	H 	0.66990 0.25100 0.17180 0.33600
H 	H 	0.63680 0.27260 0.29130 0.36300
C 	C 	0.88900 0.19140 0.92450 0.88700
C 	C 	0.89900 0.23730 0.98800 -1.54100
H 	H 	0.86230 0.23350 0.05960 0.45000
H 	H 	0.98670 0.24650 0.00530 0.45800
H 	H 	0.85390 0.26290 0.94060 0.45200
C 	C 	0.63200 0.11700 0.72760 0.53700
C 	C 	0.48410 0.12550 0.68790 -0.89400
H 	H 	0.44080 0.12830 0.75630 0.25700
H 	H 	0.47210 0.15560 0.64250 0.25400
H 	H 	0.45030 0.09780 0.64110 0.22800
C 	C 	0.08410 0.24420 0.32600 0.05600
C 	C 	0.32000 0.10910 0.97520 0.04100
C 	C 	0.09300 0.01150 0.10100 0.01400
