data_crystal

_cell_length_a 17.07130
_cell_length_b 17.07130
_cell_length_c 17.07130
_cell_angle_alpha 105.83000
_cell_angle_beta  105.83000
_cell_angle_gamma 117.02900

_symmetry_space_group_name_	'P 1'
_symmetry_space_group_name_H-M	'P 1'

loop_
_symmetry_equiv_pos_as_xyz
  x,y,z

loop_
_atom_site_label
_atom_site_type_symbol
_atom_site_fract_x
_atom_site_fract_y
_atom_site_fract_z
_atom_site_charge
Zn	Zn	0.16140 0.29871 0.62295 1.23100
Zn	Zn	0.67576 0.53845 0.37705 1.23200
Zn	Zn	0.53845 0.16140 0.86269 1.23200
Zn	Zn	0.29871 0.67576 0.13731 1.23300
Zn	Zn	0.17576 0.79871 0.13731 1.23300
Zn	Zn	0.66140 0.03845 0.86269 1.23200
Zn	Zn	0.79871 0.66140 0.62295 1.23300
Zn	Zn	0.03845 0.17576 0.37705 1.23200
Zn	Zn	0.92966 0.11582 0.50000 1.21400
Zn	Zn	0.61582 0.42966 0.50000 1.21400
Zn	Zn	0.42966 0.92966 0.81384 1.21400
Zn	Zn	0.11582 0.61582 0.18616 1.21400
H 	H 	0.94060 0.33290 0.96510 0.03900
H 	H 	0.85730 0.17150 0.69980 0.04000
H 	H 	0.12290 0.43580 0.85710 0.04300
H 	H 	0.36780 0.97550 0.03490 0.04200
H 	H 	0.47170 0.15750 0.30020 0.03900
H 	H 	0.57870 0.26580 0.14290 0.04300
H 	H 	0.97550 0.94060 0.60770 0.04400
H 	H 	0.15750 0.85730 0.68580 0.04000
H 	H 	0.26580 0.12290 0.68710 0.04400
H 	H 	0.33290 0.36780 0.39230 0.03900
H 	H 	0.17150 0.47170 0.31420 0.03900
H 	H 	0.43580 0.57870 0.31290 0.04300
H 	H 	0.86780 0.83290 0.39230 0.03900
H 	H 	0.97170 0.67150 0.31420 0.03900
H 	H 	0.07870 0.93580 0.31290 0.04300
H 	H 	0.44060 0.47550 0.60770 0.03900
H 	H 	0.35730 0.65750 0.68580 0.04000
H 	H 	0.62290 0.76580 0.68710 0.04300
H 	H 	0.83290 0.44060 0.96510 0.03900
H 	H 	0.67150 0.35730 0.69980 0.03900
H 	H 	0.93580 0.62290 0.85710 0.04300
H 	H 	0.47550 0.86780 0.03490 0.04000
H 	H 	0.65750 0.97170 0.30020 0.03900
H 	H 	0.76580 0.07870 0.14290 0.04400
C 	C 	0.04210 0.39990 0.92420 -0.12800
C 	C 	0.95390 0.32550 0.91520 0.06000
C 	C 	0.88470 0.23900 0.83070 -0.10500
C 	C 	0.90390 0.22800 0.75610 0.05500
C 	C 	0.99350 0.30210 0.76560 -0.11100
C 	C 	0.06280 0.38730 0.85030 0.06300
C 	C 	0.97880 0.99310 0.37810 0.40300
C 	C 	0.79080 0.15510 0.82010 0.34000
C 	C 	0.01750 0.28450 0.68600 0.37900
C 	C 	0.47570 0.11790 0.07580 -0.12700
C 	C 	0.41030 0.03870 0.08480 0.05500
C 	C 	0.40830 0.05400 0.16930 -0.10500
C 	C 	0.47190 0.14780 0.24390 0.05500
C 	C 	0.53650 0.22790 0.23440 -0.11300
C 	C 	0.53700 0.21250 0.14970 0.06500
C 	C 	0.61500 0.60070 0.62190 0.39800
C 	C 	0.33500 0.97070 0.17990 0.34100
C 	C 	0.59850 0.33150 0.31400 0.38100
C 	C 	0.11790 0.04210 0.64220 -0.12500
C 	C 	0.03870 0.95390 0.62840 0.05300
C 	C 	0.05400 0.88470 0.64570 -0.10400
C 	C 	0.14780 0.90390 0.67590 0.05400
C 	C 	0.22790 0.99350 0.69140 -0.11100
C 	C 	0.21250 0.06280 0.67550 0.06200
C 	C 	0.60070 0.97880 0.98570 0.39800
C 	C 	0.97070 0.79080 0.63570 0.34100
C 	C 	0.33150 0.01750 0.73300 0.37900
C 	C 	0.39990 0.47570 0.35780 -0.12800
C 	C 	0.32550 0.41030 0.37160 0.05900
C 	C 	0.23900 0.40830 0.35430 -0.10500
C 	C 	0.22800 0.47190 0.32410 0.05500
C 	C 	0.30210 0.53650 0.30860 -0.11300
C 	C 	0.38730 0.53700 0.32450 0.06500
C 	C 	0.99310 0.61500 0.01430 0.40200
C 	C 	0.15510 0.33500 0.36430 0.34000
C 	C 	0.28450 0.59850 0.26700 0.38100
C 	C 	0.97570 0.89990 0.35780 -0.12500
C 	C 	0.91030 0.82550 0.37160 0.05900
C 	C 	0.90830 0.73900 0.35430 -0.10500
C 	C 	0.97190 0.72800 0.32410 0.05900
C 	C 	0.03650 0.80210 0.30860 -0.11600
C 	C 	0.03700 0.88730 0.32450 0.06200
C 	C 	0.11500 0.49310 0.01430 0.39800
C 	C 	0.83500 0.65510 0.36430 0.34000
C 	C 	0.09850 0.78450 0.26700 0.38100
C 	C 	0.54210 0.61790 0.64220 -0.12700
C 	C 	0.45390 0.53870 0.62840 0.05900
C 	C 	0.38470 0.55400 0.64570 -0.10500
C 	C 	0.40390 0.64780 0.67590 0.05500
C 	C 	0.49350 0.72790 0.69140 -0.11300
C 	C 	0.56280 0.71250 0.67550 0.06500
C 	C 	0.47880 0.10070 0.98570 0.39800
C 	C 	0.29080 0.47070 0.63570 0.34000
C 	C 	0.51750 0.83150 0.73300 0.38100
C 	C 	0.89990 0.54210 0.92420 -0.12900
C 	C 	0.82550 0.45390 0.91520 0.06000
C 	C 	0.73900 0.38470 0.83070 -0.10500
C 	C 	0.72800 0.40390 0.75610 0.05600
C 	C 	0.80210 0.49350 0.76560 -0.11400
C 	C 	0.88730 0.56280 0.85030 0.06600
C 	C 	0.49310 0.47880 0.37810 0.39900
C 	C 	0.65510 0.29080 0.82010 0.34000
C 	C 	0.78450 0.51750 0.68600 0.38100
C 	C 	0.61790 0.97570 0.07580 -0.12300
C 	C 	0.53870 0.91030 0.08480 0.05800
C 	C 	0.55400 0.90830 0.16930 -0.10500
C 	C 	0.64780 0.97190 0.24390 0.05900
C 	C 	0.72790 0.03650 0.23440 -0.11500
C 	C 	0.71250 0.03700 0.14970 0.06100
C 	C 	0.10070 0.11500 0.62190 0.39700
C 	C 	0.47070 0.83500 0.17990 0.34000
C 	C 	0.83150 0.09850 0.31400 0.38100
O 	O 	0.04040 0.05830 0.36570 -0.47500
O 	O 	0.91890 0.99860 0.40370 -0.46700
O 	O 	0.78810 0.15340 0.89390 -0.44400
O 	O 	0.72390 0.09330 0.74380 -0.30600
O 	O 	0.94430 0.22520 0.60790 -0.43400
O 	O 	0.10950 0.33040 0.70610 -0.45900
O 	O 	0.69260 0.67470 0.63430 -0.47200
O 	O 	0.59490 0.51520 0.59630 -0.46800
O 	O 	0.25950 0.89420 0.10610 -0.44400
O 	O 	0.34950 0.98010 0.25620 -0.30600
O 	O 	0.61730 0.33640 0.39210 -0.43500
O 	O 	0.62430 0.40340 0.29390 -0.45900
O 	O 	0.67470 0.04040 0.98210 -0.47300
O 	O 	0.51520 0.91890 0.92030 -0.46800
O 	O 	0.89420 0.78810 0.63470 -0.44400
O 	O 	0.98010 0.72390 0.63060 -0.30500
O 	O 	0.33640 0.94430 0.71910 -0.43400
O 	O 	0.40340 0.10950 0.77910 -0.45900
O 	O 	0.05830 0.69260 0.01790 -0.47400
O 	O 	0.99860 0.59490 0.07970 -0.46800
O 	O 	0.15340 0.25950 0.36530 -0.44400
O 	O 	0.09330 0.34950 0.36940 -0.30600
O 	O 	0.22520 0.61730 0.28090 -0.43500
O 	O 	0.33040 0.62430 0.22090 -0.45900
O 	O 	0.19260 0.55830 0.01790 -0.47200
O 	O 	0.09490 0.49860 0.07970 -0.46900
O 	O 	0.75950 0.65340 0.36530 -0.44400
O 	O 	0.84950 0.59330 0.36940 -0.30600
O 	O 	0.11730 0.72520 0.28090 -0.43600
O 	O 	0.12430 0.83040 0.22090 -0.45900
O 	O 	0.54040 0.17470 0.98210 -0.47200
O 	O 	0.41890 0.01520 0.92030 -0.46900
O 	O 	0.28810 0.39420 0.63470 -0.44400
O 	O 	0.22390 0.48010 0.63060 -0.30600
O 	O 	0.44430 0.83640 0.71910 -0.43500
O 	O 	0.60950 0.90340 0.77910 -0.45800
O 	O 	0.55830 0.54040 0.36570 -0.47200
O 	O 	0.49860 0.41890 0.40370 -0.46800
O 	O 	0.65340 0.28810 0.89390 -0.44400
O 	O 	0.59330 0.22390 0.74380 -0.30600
O 	O 	0.72520 0.44430 0.60790 -0.43500
O 	O 	0.83040 0.60950 0.70610 -0.45900
O 	O 	0.17470 0.19260 0.63430 -0.47200
O 	O 	0.01520 0.09490 0.59630 -0.46900
O 	O 	0.39420 0.75950 0.10610 -0.44400
O 	O 	0.48010 0.84950 0.25620 -0.30600
O 	O 	0.83640 0.11730 0.39210 -0.43600
O 	O 	0.90340 0.12430 0.29390 -0.45900
O 	O 	0.05109 0.23111 0.50000 -0.66000
O 	O 	0.73111 0.55109 0.50000 -0.66000
O 	O 	0.55109 0.05109 0.81998 -0.66000
O 	O 	0.23111 0.73111 0.18002 -0.66000
