data_crystal

_cell_length_a 15.96560
_cell_length_b 15.96560
_cell_length_c 25.25710
_cell_angle_alpha 128.03700
_cell_angle_beta  128.03700
_cell_angle_gamma 19.28690

_symmetry_space_group_name_	'P 1'
_symmetry_space_group_name_H-M	'P 1'

loop_
_symmetry_equiv_pos_as_xyz
  x,y,z

loop_
_atom_site_label
_atom_site_type_symbol
_atom_site_fract_x
_atom_site_fract_y
_atom_site_fract_z
_atom_site_charge
Cd	Cd	0.26922 0.26922 0.95490 1.21700
Cd	Cd	0.79958 0.57612 0.42153 1.21400
P 	P 	0.79890 0.87610 0.04150 0.52200
P 	P 	0.82730 0.69310 0.59060 0.50000
C 	C 	0.41100 0.76100 0.33200 0.28900
C 	C 	0.02000 0.48000 0.83900 0.25600
C 	C 	0.62700 0.54700 0.25600 0.17100
C 	C 	0.36300 0.26700 0.86000 0.18100
C 	C 	0.42900 0.65500 0.20000 -0.12900
C 	C 	0.23600 0.39200 0.80900 -0.13500
C 	C 	0.24700 0.79500 0.21600 0.09900
C 	C 	0.02700 0.53100 0.77100 0.08700
C 	C 	0.00700 0.03700 0.30100 0.12200
C 	C 	0.65100 0.75300 0.74800 0.11100
C 	C 	0.07000 0.90400 0.31900 0.05000
C 	C 	0.75000 0.54400 0.68100 0.03600
C 	C 	0.99400 0.87800 0.25500 0.04000
C 	C 	0.69500 0.59700 0.63400 0.03800
C 	C 	0.70300 0.17500 0.22900 0.08500
C 	C 	0.49000 0.86200 0.64600 0.06100
C 	C 	0.61600 0.18200 0.15400 0.02900
C 	C 	0.50100 0.90300 0.60700 0.04900
N 	N 	0.22800 0.86200 0.28300 -0.17400
N 	N 	0.90700 0.58500 0.78800 -0.16100
N 	N 	0.60500 0.60700 0.31800 -0.28700
N 	N 	0.23800 0.33400 0.87700 -0.27000
N 	N 	0.83900 0.37700 0.24100 -0.19400
N 	N 	0.58500 0.10900 0.89600 -0.19700
O 	O 	0.38600 0.82000 0.39000 -0.32100
O 	O 	0.91500 0.52700 0.85400 -0.34700
O 	O 	0.80000 0.18400 0.24900 -0.20900
O 	O 	0.53600 0.90000 0.71500 -0.19700
O 	O 	0.91100 0.06300 0.36400 -0.22500
O 	O 	0.55800 0.65400 0.67500 -0.20400
O 	O 	0.94300 0.83100 0.25000 -0.22700
O 	O 	0.66100 0.52300 0.57200 -0.21900
O 	O 	0.82500 0.95100 0.11800 -0.25100
O 	O 	0.75600 0.70200 0.62000 -0.25000
O 	O 	0.62200 0.95800 0.03100 -0.52400
O 	O 	0.66800 0.78800 0.52200 -0.48900
O 	O 	0.66400 0.03400 0.00200 -0.34000
O 	O 	0.75900 0.86900 0.63600 -0.41700
O 	O 	0.06700 0.59500 0.03100 -0.42100
O 	O 	0.11400 0.40800 0.58600 -0.41600
H 	H 	0.44183 0.61338 0.14627 0.06500
H 	H 	0.31880 0.37056 0.80090 0.05500
H 	H 	0.10236 0.86280 0.17451 0.04300
H 	H 	0.94726 0.60406 0.72639 0.04200
H 	H 	0.94987 0.34196 0.28875 0.09400
H 	H 	0.48973 0.34355 0.13922 0.05000
H 	H 	0.36977 0.09460 0.62805 0.03400
H 	H 	0.55369 0.21126 0.94687 0.09000
H 	H 	0.68619 0.03667 0.86987 0.07500
H 	H 	0.54008 0.22563 0.79198 0.06800
H 	H 	0.10358 0.56037 0.44965 0.03600
H 	H 	0.95699 0.33379 0.68886 0.04200
H 	H 	0.87263 0.46733 0.63184 0.05000
H 	H 	0.46206 0.69457 0.54668 0.11500
H 	H 	0.37832 0.81932 0.64600 0.12300
H 	H 	0.52515 0.86399 0.77903 0.03500
H 	H 	0.29420 0.00305 0.63212 0.01700
H 	H 	0.82460 0.05950 0.65247 0.01600
H 	H 	0.28845 0.71790 0.66282 0.05000
H 	H 	0.27358 0.86345 0.78089 0.05400
H 	H 	0.05547 0.97841 0.60262 0.13300
H 	H 	0.98444 0.26463 0.75000 0.12700
H 	H 	0.78254 0.49861 0.85945 0.03300
Cd	Cd	0.73078 0.73078 0.04510 1.21700
Cd	Cd	0.42388 0.20042 0.57847 1.21400
P 	P 	0.12390 0.20110 0.95850 0.52200
P 	P 	0.30690 0.17270 0.40940 0.50000
C 	C 	0.23900 0.58900 0.66800 0.28900
C 	C 	0.52000 0.98000 0.16100 0.25600
C 	C 	0.45300 0.37300 0.74400 0.17100
C 	C 	0.73300 0.63700 0.14000 0.18100
C 	C 	0.34500 0.57100 0.80000 -0.12900
C 	C 	0.60800 0.76400 0.19100 -0.13500
C 	C 	0.20500 0.75300 0.78400 0.09900
C 	C 	0.46900 0.97300 0.22900 0.08700
C 	C 	0.96300 0.99300 0.69900 0.12200
C 	C 	0.24700 0.34900 0.25200 0.11100
C 	C 	0.09600 0.93000 0.68100 0.05000
C 	C 	0.45600 0.25000 0.31900 0.03600
C 	C 	0.12200 0.00600 0.74500 0.04000
C 	C 	0.40300 0.30500 0.36600 0.03800
C 	C 	0.82500 0.29700 0.77100 0.08500
C 	C 	0.13800 0.51000 0.35400 0.06100
C 	C 	0.81800 0.38400 0.84600 0.02900
C 	C 	0.09700 0.49900 0.39300 0.04900
N 	N 	0.13800 0.77200 0.71700 -0.17400
N 	N 	0.41500 0.09300 0.21200 -0.16100
N 	N 	0.39300 0.39500 0.68200 -0.28700
N 	N 	0.66600 0.76200 0.12300 -0.27000
N 	N 	0.62300 0.16100 0.75900 -0.19400
N 	N 	0.89100 0.41500 0.10400 -0.19700
O 	O 	0.18000 0.61400 0.61000 -0.32100
O 	O 	0.47300 0.08500 0.14600 -0.34700
O 	O 	0.81600 0.20000 0.75100 -0.20900
O 	O 	0.10000 0.46400 0.28500 -0.19700
O 	O 	0.93700 0.08900 0.63600 -0.22500
O 	O 	0.34600 0.44200 0.32500 -0.20400
O 	O 	0.16900 0.05700 0.75000 -0.22700
O 	O 	0.47700 0.33900 0.42800 -0.21900
O 	O 	0.04900 0.17500 0.88200 -0.25100
O 	O 	0.29800 0.24400 0.38000 -0.25000
O 	O 	0.04200 0.37800 0.96900 -0.52400
O 	O 	0.21200 0.33200 0.47800 -0.48900
O 	O 	0.96600 0.33600 0.99800 -0.34000
O 	O 	0.13100 0.24100 0.36400 -0.41700
O 	O 	0.40500 0.93300 0.96900 -0.42100
O 	O 	0.59200 0.88600 0.41400 -0.41600
H 	H 	0.38662 0.55817 0.85373 0.06500
H 	H 	0.62944 0.68120 0.19910 0.05500
H 	H 	0.13720 0.89764 0.82549 0.04300
H 	H 	0.39594 0.05274 0.27361 0.04200
H 	H 	0.65804 0.05013 0.71125 0.09400
H 	H 	0.65645 0.51027 0.86078 0.05000
H 	H 	0.90540 0.63023 0.37195 0.03400
H 	H 	0.78874 0.44631 0.05313 0.09000
H 	H 	0.96333 0.31381 0.13013 0.07500
H 	H 	0.77437 0.45992 0.20802 0.06800
H 	H 	0.43963 0.89642 0.55035 0.03600
H 	H 	0.66621 0.04301 0.31114 0.04200
H 	H 	0.53267 0.12737 0.36816 0.05000
H 	H 	0.30543 0.53794 0.45332 0.11500
H 	H 	0.18068 0.62168 0.35400 0.12300
H 	H 	0.13601 0.47485 0.22097 0.03500
H 	H 	0.99695 0.70580 0.36788 0.01700
H 	H 	0.94050 0.17540 0.34753 0.01600
H 	H 	0.28210 0.71155 0.33718 0.05000
H 	H 	0.13655 0.72642 0.21911 0.05400
H 	H 	0.02159 0.94453 0.39738 0.13300
H 	H 	0.73537 0.01556 0.25000 0.12700
H 	H 	0.50139 0.21746 0.14055 0.03300
