data_crystal

_cell_length_a 17.06000
_cell_length_b 17.06000
_cell_length_c 9.23760
_cell_angle_alpha 90.00000
_cell_angle_beta  90.00000
_cell_angle_gamma 120.00000

_symmetry_space_group_name_	'P 1'
_symmetry_space_group_name_H-M	'P 1'

loop_
_symmetry_equiv_pos_as_xyz
  x,y,z

loop_
_atom_site_label
_atom_site_type_symbol
_atom_site_fract_x
_atom_site_fract_y
_atom_site_fract_z
_atom_site_charge
C 	C 	0.18440 0.32030 0.13190 0.01800
C 	C 	0.21370 0.29000 0.02660 -0.13100
H 	H 	0.19730 0.22820 0.01830 0.06700
C 	C 	0.26700 0.35140 0.93400 0.06500
H 	H 	0.28470 0.32760 0.85600 0.01700
C 	C 	0.30200 0.44150 0.92740 -0.07700
H 	H 	0.34510 0.47900 0.85700 0.05800
C 	C 	0.26880 0.47340 0.03290 -0.01000
C 	C 	0.18400 0.44810 0.25250 -0.03300
H 	H 	0.20140 0.51090 0.24690 0.03300
C 	C 	0.12670 0.39240 0.36710 -0.08700
H 	H 	0.10720 0.41720 0.44140 0.03200
C 	C 	0.10050 0.30140 0.36670 0.01200
H 	H 	0.05960 0.26090 0.43840 -0.00300
C 	C 	0.67970 0.86410 0.13190 0.02000
C 	C 	0.71000 0.92370 0.02660 -0.11100
H 	H 	0.77180 0.96910 0.01830 0.12000
C 	C 	0.64860 0.91560 0.93400 0.06600
H 	H 	0.67240 0.95710 0.85600 0.05300
C 	C 	0.55850 0.86050 0.92740 -0.06900
H 	H 	0.52100 0.86610 0.85700 0.06800
C 	C 	0.52660 0.79540 0.03290 -0.00700
C 	C 	0.55190 0.73590 0.25250 -0.03500
H 	H 	0.48910 0.69050 0.24690 0.04000
C 	C 	0.60760 0.73430 0.36710 -0.06300
H 	H 	0.58280 0.69000 0.44140 0.04700
C 	C 	0.69860 0.79910 0.36670 0.00600
H 	H 	0.73910 0.79870 0.43840 0.03600
C 	C 	0.13590 0.81560 0.13190 0.20500
C 	C 	0.07630 0.78630 0.02660 -0.27200
H 	H 	0.03090 0.80270 0.01830 0.05600
C 	C 	0.08440 0.73300 0.93400 0.14500
H 	H 	0.04290 0.71530 0.85600 -0.04500
C 	C 	0.13950 0.69800 0.92740 -0.15600
H 	H 	0.13390 0.65490 0.85700 0.07100
C 	C 	0.20460 0.73120 0.03290 0.02500
C 	C 	0.26410 0.81600 0.25250 0.03400
H 	H 	0.30950 0.79860 0.24690 0.02500
C 	C 	0.26570 0.87330 0.36710 -0.09100
H 	H 	0.31000 0.89280 0.44140 0.07800
C 	C 	0.20090 0.89950 0.36670 0.06000
H 	H 	0.20130 0.94040 0.43840 0.04700
C 	C 	0.32030 0.18440 0.86810 -0.02600
C 	C 	0.29000 0.21370 0.97340 0.01200
H 	H 	0.22820 0.19730 0.98170 0.03000
C 	C 	0.35140 0.26700 0.06600 -0.07600
H 	H 	0.32760 0.28470 0.14400 0.05500
C 	C 	0.44150 0.30200 0.07260 -0.06100
H 	H 	0.47900 0.34510 0.14300 0.04000
C 	C 	0.47340 0.26880 0.96710 0.00000
C 	C 	0.44810 0.18400 0.74750 -0.04700
H 	H 	0.51090 0.20140 0.75310 0.03700
C 	C 	0.39240 0.12670 0.63290 -0.07100
H 	H 	0.41720 0.10720 0.55860 0.02600
C 	C 	0.30140 0.10050 0.63330 -0.00200
H 	H 	0.26090 0.05960 0.56160 0.00000
C 	C 	0.86410 0.67970 0.86810 -0.01000
C 	C 	0.92370 0.71000 0.97340 -0.00100
H 	H 	0.96910 0.77180 0.98170 0.09000
C 	C 	0.91560 0.64860 0.06600 -0.04000
H 	H 	0.95710 0.67240 0.14400 0.08200
C 	C 	0.86050 0.55850 0.07260 -0.06300
H 	H 	0.86610 0.52100 0.14300 0.05600
C 	C 	0.79540 0.52660 0.96710 0.00500
C 	C 	0.73590 0.55190 0.74750 -0.04400
H 	H 	0.69050 0.48910 0.75310 0.04200
C 	C 	0.73430 0.60760 0.63290 -0.05200
H 	H 	0.69000 0.58280 0.55860 0.04300
C 	C 	0.79910 0.69860 0.63330 -0.00400
H 	H 	0.79870 0.73910 0.56160 0.03900
C 	C 	0.81560 0.13590 0.86810 0.17300
C 	C 	0.78630 0.07630 0.97340 -0.14800
H 	H 	0.80270 0.03090 0.98170 0.02300
C 	C 	0.73300 0.08440 0.06600 0.02400
H 	H 	0.71530 0.04290 0.14400 -0.01300
C 	C 	0.69800 0.13950 0.07260 -0.15000
H 	H 	0.65490 0.13390 0.14300 0.05700
C 	C 	0.73120 0.20460 0.96710 0.04300
C 	C 	0.81600 0.26410 0.74750 0.02400
H 	H 	0.79860 0.30950 0.75310 0.02700
C 	C 	0.87330 0.26570 0.63290 -0.07900
H 	H 	0.89280 0.31000 0.55860 0.07200
C 	C 	0.89950 0.20090 0.63330 0.04900
H 	H 	0.94040 0.20130 0.56160 0.05000
C 	C 	0.81560 0.67970 0.86810 0.10700
C 	C 	0.78630 0.71000 0.97340 -0.09800
H 	H 	0.80270 0.77180 0.98170 0.06500
C 	C 	0.73300 0.64860 0.06600 0.01200
H 	H 	0.71530 0.67240 0.14400 0.03000
C 	C 	0.69800 0.55850 0.07260 -0.11800
H 	H 	0.65490 0.52100 0.14300 0.06100
C 	C 	0.73120 0.52660 0.96710 0.02800
C 	C 	0.81600 0.55190 0.74750 0.00000
H 	H 	0.79860 0.48910 0.75310 0.03400
C 	C 	0.87330 0.60760 0.63290 -0.06300
H 	H 	0.89280 0.58280 0.55860 0.06700
C 	C 	0.89950 0.69860 0.63330 0.03000
H 	H 	0.94040 0.73910 0.56160 0.05700
C 	C 	0.32030 0.13590 0.86810 0.11100
C 	C 	0.29000 0.07630 0.97340 -0.09700
H 	H 	0.22820 0.03090 0.98170 0.00200
C 	C 	0.35140 0.08440 0.06600 -0.01700
H 	H 	0.32760 0.04290 0.14400 -0.00300
C 	C 	0.44150 0.13950 0.07260 -0.12400
H 	H 	0.47900 0.13390 0.14300 0.04700
C 	C 	0.47340 0.20460 0.96710 0.03000
C 	C 	0.44810 0.26410 0.74750 0.00200
H 	H 	0.51090 0.30950 0.75310 0.02800
C 	C 	0.39240 0.26570 0.63290 -0.08500
H 	H 	0.41720 0.31000 0.55860 0.05200
C 	C 	0.30140 0.20090 0.63330 0.03400
H 	H 	0.26090 0.20130 0.56160 0.02000
C 	C 	0.86410 0.18440 0.86810 -0.08300
C 	C 	0.92370 0.21370 0.97340 0.06000
H 	H 	0.96910 0.19730 0.98170 0.07700
C 	C 	0.91560 0.26700 0.06600 -0.08800
H 	H 	0.95710 0.28470 0.14400 0.09900
C 	C 	0.86050 0.30200 0.07260 -0.03200
H 	H 	0.86610 0.34510 0.14300 0.04400
C 	C 	0.79540 0.26880 0.96710 -0.01100
C 	C 	0.73590 0.18400 0.74750 -0.06900
H 	H 	0.69050 0.20140 0.75310 0.04400
C 	C 	0.73430 0.12670 0.63290 -0.05400
H 	H 	0.69000 0.10720 0.55860 0.02100
C 	C 	0.79910 0.10050 0.63330 -0.02100
H 	H 	0.79870 0.05960 0.56160 0.01200
C 	C 	0.67970 0.81560 0.13190 0.13800
C 	C 	0.71000 0.78630 0.02660 -0.21100
H 	H 	0.77180 0.80270 0.01830 0.09300
C 	C 	0.64860 0.73300 0.93400 0.11900
H 	H 	0.67240 0.71530 0.85600 -0.00000
C 	C 	0.55850 0.69800 0.92740 -0.12100
H 	H 	0.52100 0.65490 0.85700 0.07300
C 	C 	0.52660 0.73120 0.03290 0.01200
C 	C 	0.55190 0.81600 0.25250 0.00900
H 	H 	0.48910 0.79860 0.24690 0.03200
C 	C 	0.60760 0.87330 0.36710 -0.07400
H 	H 	0.58280 0.89280 0.44140 0.07200
C 	C 	0.69860 0.89950 0.36670 0.04000
H 	H 	0.73910 0.94040 0.43840 0.05500
C 	C 	0.13590 0.32030 0.13190 0.14800
C 	C 	0.07630 0.29000 0.02660 -0.23800
H 	H 	0.03090 0.22820 0.01830 0.03800
C 	C 	0.08440 0.35140 0.93400 0.12100
H 	H 	0.04290 0.32760 0.85600 -0.04000
C 	C 	0.13950 0.44150 0.92740 -0.13600
H 	H 	0.13390 0.47900 0.85700 0.06400
C 	C 	0.20460 0.47340 0.03290 0.01500
C 	C 	0.26410 0.44810 0.25250 0.01400
H 	H 	0.30950 0.51090 0.24690 0.02400
C 	C 	0.26570 0.39240 0.36710 -0.09900
H 	H 	0.31000 0.41720 0.44140 0.05700
C 	C 	0.20090 0.30140 0.36670 0.04800
H 	H 	0.20130 0.26090 0.43840 0.01500
C 	C 	0.18440 0.86410 0.13190 -0.04500
C 	C 	0.21370 0.92370 0.02660 -0.06600
H 	H 	0.19730 0.96910 0.01830 0.11100
C 	C 	0.26700 0.91560 0.93400 0.03300
H 	H 	0.28470 0.95710 0.85600 0.06500
C 	C 	0.30200 0.86050 0.92740 -0.04400
H 	H 	0.34510 0.86610 0.85700 0.06000
C 	C 	0.26880 0.79540 0.03290 -0.01900
C 	C 	0.18400 0.73590 0.25250 -0.05800
H 	H 	0.20140 0.69050 0.24690 0.04000
C 	C 	0.12670 0.73430 0.36710 -0.06700
H 	H 	0.10720 0.69000 0.44140 0.02700
C 	C 	0.10050 0.79910 0.36670 -0.00900
H 	H 	0.05960 0.79870 0.43840 0.00900
Yb	Yb	-0.00000 0.00000 0.50000 1.45300
Yb	Yb	-0.00000 0.00000 -0.00000 1.43700
O 	O 	0.06205 0.12410 0.36980 -0.51700
O 	O 	0.06175 0.12350 0.13200 -0.52700
C 	C 	0.08230 0.16460 0.24980 0.44400
C 	C 	0.13225 0.26450 0.24960 -0.20200
C 	C 	0.20825 0.41650 0.13890 -0.05300
C 	C 	0.28670 0.57340 0.02840 0.06000
O 	O 	0.87590 0.93795 0.36980 -0.37800
O 	O 	0.87650 0.93825 0.13200 -0.39000
C 	C 	0.83540 0.91770 0.24980 0.42300
C 	C 	0.73550 0.86775 0.24960 -0.16300
C 	C 	0.58350 0.79175 0.13890 -0.03800
C 	C 	0.42660 0.71330 0.02840 0.06300
O 	O 	0.06205 0.93795 0.36980 -0.43900
O 	O 	0.06175 0.93825 0.13200 -0.45000
C 	C 	0.08230 0.91770 0.24980 0.43200
C 	C 	0.13225 0.86775 0.24960 -0.17900
C 	C 	0.20825 0.79175 0.13890 -0.04400
C 	C 	0.28670 0.71330 0.02840 0.06200
O 	O 	0.12410 0.06205 0.63020 -0.51100
O 	O 	0.12350 0.06175 0.86800 -0.50400
C 	C 	0.16460 0.08230 0.75020 0.42800
C 	C 	0.26450 0.13225 0.75040 -0.16700
C 	C 	0.41650 0.20825 0.86110 -0.01600
C 	C 	0.57340 0.28670 0.97160 0.06600
O 	O 	0.93795 0.87590 0.63020 -0.37400
O 	O 	0.93825 0.87650 0.86800 -0.37600
C 	C 	0.91770 0.83540 0.75020 0.41100
C 	C 	0.86775 0.73550 0.75040 -0.13600
C 	C 	0.79175 0.58350 0.86110 -0.01300
C 	C 	0.71330 0.42660 0.97160 0.06700
O 	O 	0.93795 0.06205 0.63020 -0.43700
O 	O 	0.93825 0.06175 0.86800 -0.43400
C 	C 	0.91770 0.08230 0.75020 0.41800
C 	C 	0.86775 0.13225 0.75040 -0.14900
C 	C 	0.79175 0.20825 0.86110 -0.01400
C 	C 	0.71330 0.28670 0.97160 0.06700
C 	C 	0.23970 0.61985 0.02720 -0.13800
H 	H 	0.17540 0.58770 0.02560 0.05900
C 	C 	0.38015 0.61985 0.02720 -0.13800
H 	H 	0.41230 0.58770 0.02560 0.07000
C 	C 	0.38015 0.76030 0.02720 -0.13800
H 	H 	0.41230 0.82460 0.02560 0.08200
C 	C 	0.61985 0.23970 0.97280 -0.13500
H 	H 	0.58770 0.17540 0.97440 0.07100
C 	C 	0.61985 0.38015 0.97280 -0.13400
H 	H 	0.58770 0.41230 0.97440 0.08100
C 	C 	0.76030 0.38015 0.97280 -0.13300
H 	H 	0.82460 0.41230 0.97440 0.09100
