data_crystal

_cell_length_a 10.55730
_cell_length_b 14.47940
_cell_length_c 23.31600
_cell_angle_alpha 107.31600
_cell_angle_beta  90.00000
_cell_angle_gamma 90.00000

_symmetry_space_group_name_	'P 1'
_symmetry_space_group_name_H-M	'P 1'

loop_
_symmetry_equiv_pos_as_xyz
  x,y,z

loop_
_atom_site_label
_atom_site_type_symbol
_atom_site_fract_x
_atom_site_fract_y
_atom_site_fract_z
_atom_site_charge
Tb	Tb	0.04805 0.42591 0.76997 2.09200
Tb	Tb	0.04805 0.07409 0.73003 2.08200
Tb	Tb	0.95195 0.57409 0.23003 2.09200
Tb	Tb	0.95195 0.92591 0.26997 2.08200
P 	P 	0.83973 0.59847 0.87798 0.23400
P 	P 	0.83973 0.90153 0.62202 0.23300
P 	P 	0.16027 0.40153 0.12202 0.23400
P 	P 	0.16027 0.09847 0.37798 0.23300
H 	H 	0.70320 0.75000 0.84620 0.05100
H 	H 	0.71560 0.46270 0.78490 0.06800
H 	H 	0.86070 0.78220 0.96780 0.07700
H 	H 	0.88200 0.83330 0.07020 0.01400
H 	H 	0.85050 0.50810 0.97050 0.08000
H 	H 	0.51050 0.42170 0.75730 0.05900
H 	H 	0.38780 0.62050 0.90590 0.04900
H 	H 	0.59500 0.66280 0.93310 0.05200
H 	H 	0.06700 0.67940 0.85180 0.05100
H 	H 	0.12490 0.80990 0.82240 0.05400
H 	H 	0.76080 0.88120 0.81510 0.05200
H 	H 	0.87610 0.56030 0.07350 0.00600
H 	H 	0.70320 0.75000 0.65380 0.05000
H 	H 	0.71560 0.03730 0.71510 0.06600
H 	H 	0.86070 0.71780 0.53220 0.08100
H 	H 	0.88200 0.66670 0.42980 0.01100
H 	H 	0.85050 0.99190 0.52950 0.08200
H 	H 	0.51050 0.07830 0.74270 0.06300
H 	H 	0.38780 0.87950 0.59410 0.05200
H 	H 	0.59500 0.83720 0.56690 0.05000
H 	H 	0.06700 0.82060 0.64820 0.04900
H 	H 	0.12490 0.69010 0.67760 0.05600
H 	H 	0.76080 0.61880 0.68490 0.05300
H 	H 	0.87610 0.93970 0.42650 0.00100
H 	H 	0.29680 0.25000 0.15380 0.05100
H 	H 	0.28440 0.53730 0.21510 0.06800
H 	H 	0.13930 0.21780 0.03220 0.07700
H 	H 	0.11800 0.16670 0.92980 0.01400
H 	H 	0.14950 0.49190 0.02950 0.08000
H 	H 	0.48950 0.57830 0.24270 0.05900
H 	H 	0.61220 0.37950 0.09410 0.04900
H 	H 	0.40500 0.33720 0.06690 0.05200
H 	H 	0.93300 0.32060 0.14820 0.05100
H 	H 	0.87510 0.19010 0.17760 0.05400
H 	H 	0.23920 0.11880 0.18490 0.05200
H 	H 	0.12390 0.43970 0.92650 0.00600
H 	H 	0.29680 0.25000 0.34620 0.05000
H 	H 	0.28440 0.96270 0.28490 0.06600
H 	H 	0.13930 0.28220 0.46780 0.08100
H 	H 	0.11800 0.33330 0.57020 0.01100
H 	H 	0.14950 0.00810 0.47050 0.08200
H 	H 	0.48950 0.92170 0.25730 0.06300
H 	H 	0.61220 0.12050 0.40590 0.05200
H 	H 	0.40500 0.16280 0.43310 0.05000
H 	H 	0.93300 0.17940 0.35180 0.04900
H 	H 	0.87510 0.30990 0.32240 0.05600
H 	H 	0.23920 0.38120 0.31510 0.05300
H 	H 	0.12390 0.06030 0.57350 0.00100
H 	H 	0.73210 0.25000 0.75000 -0.21100
H 	H 	0.26790 0.75000 0.25000 -0.21100
C 	C 	0.87840 0.70010 0.85210 -0.03500
C 	C 	0.78840 0.76150 0.84100 -0.05200
C 	C 	0.67800 0.56790 0.86160 -0.02700
C 	C 	0.64990 0.49510 0.80930 -0.04600
C 	C 	0.85550 0.63970 0.95820 0.02200
C 	C 	0.86400 0.73690 0.98880 -0.12400
C 	C 	0.87720 0.76740 0.05020 0.09100
C 	C 	0.85850 0.57390 0.99030 -0.11800
C 	C 	0.52710 0.47020 0.79290 -0.00900
C 	C 	0.42610 0.51670 0.82910 -0.06300
C 	C 	0.45340 0.58860 0.88130 -0.00700
C 	C 	0.57810 0.61420 0.89770 -0.05800
C 	C 	0.29340 0.48670 0.80910 0.31700
C 	C 	0.00480 0.71990 0.84440 -0.04700
C 	C 	0.03960 0.79720 0.82630 -0.01000
C 	C 	0.94880 0.85690 0.81370 -0.06200
C 	C 	0.82260 0.84010 0.82210 -0.01200
C 	C 	0.98470 0.93950 0.78990 0.31000
C 	C 	0.87320 0.60520 0.05220 0.09000
C 	C 	0.88350 0.70250 0.08250 -0.20500
C 	C 	0.90040 0.73810 0.14950 0.55200
C 	C 	0.87840 0.79990 0.64790 -0.04000
C 	C 	0.78840 0.73850 0.65900 -0.04900
C 	C 	0.67800 0.93210 0.63840 -0.03300
C 	C 	0.64990 0.00490 0.69070 -0.03700
C 	C 	0.85550 0.86030 0.54180 0.02900
C 	C 	0.86400 0.76310 0.51120 -0.13900
C 	C 	0.87720 0.73260 0.44980 0.10600
C 	C 	0.85850 0.92610 0.50970 -0.13200
C 	C 	0.52710 0.02980 0.70710 -0.02000
C 	C 	0.42610 0.98330 0.67090 -0.05100
C 	C 	0.45340 0.91140 0.61870 -0.01500
C 	C 	0.57810 0.88580 0.60230 -0.05100
C 	C 	0.29340 0.01330 0.69090 0.30500
C 	C 	0.00480 0.78010 0.65560 -0.03900
C 	C 	0.03960 0.70280 0.67370 -0.01600
C 	C 	0.94880 0.64310 0.68630 -0.05900
C 	C 	0.82260 0.65990 0.67790 -0.01500
C 	C 	0.98470 0.56050 0.71010 0.31600
C 	C 	0.87320 0.89480 0.44780 0.10300
C 	C 	0.88350 0.79750 0.41750 -0.21400
C 	C 	0.90040 0.76190 0.35050 0.55500
C 	C 	0.12160 0.29990 0.14790 -0.03500
C 	C 	0.21160 0.23850 0.15900 -0.05200
C 	C 	0.32200 0.43210 0.13840 -0.02700
C 	C 	0.35010 0.50490 0.19070 -0.04600
C 	C 	0.14450 0.36030 0.04180 0.02200
C 	C 	0.13600 0.26310 0.01120 -0.12400
C 	C 	0.12280 0.23260 0.94980 0.09100
C 	C 	0.14150 0.42610 0.00970 -0.11800
C 	C 	0.47290 0.52980 0.20710 -0.00900
C 	C 	0.57390 0.48330 0.17090 -0.06300
C 	C 	0.54660 0.41140 0.11870 -0.00700
C 	C 	0.42190 0.38580 0.10230 -0.05800
C 	C 	0.70660 0.51330 0.19090 0.31700
C 	C 	0.99520 0.28010 0.15560 -0.04700
C 	C 	0.96040 0.20280 0.17370 -0.01000
C 	C 	0.05120 0.14310 0.18630 -0.06200
C 	C 	0.17740 0.15990 0.17790 -0.01200
C 	C 	0.01530 0.06050 0.21010 0.31000
C 	C 	0.12680 0.39480 0.94780 0.09000
C 	C 	0.11650 0.29750 0.91750 -0.20500
C 	C 	0.09960 0.26190 0.85050 0.55200
C 	C 	0.12160 0.20010 0.35210 -0.04000
C 	C 	0.21160 0.26150 0.34100 -0.04900
C 	C 	0.32200 0.06790 0.36160 -0.03300
C 	C 	0.35010 0.99510 0.30930 -0.03700
C 	C 	0.14450 0.13970 0.45820 0.02900
C 	C 	0.13600 0.23690 0.48880 -0.13900
C 	C 	0.12280 0.26740 0.55020 0.10600
C 	C 	0.14150 0.07390 0.49030 -0.13200
C 	C 	0.47290 0.97020 0.29290 -0.02000
C 	C 	0.57390 0.01670 0.32910 -0.05100
C 	C 	0.54660 0.08860 0.38130 -0.01500
C 	C 	0.42190 0.11420 0.39770 -0.05100
C 	C 	0.70660 0.98670 0.30910 0.30500
C 	C 	0.99520 0.21990 0.34440 -0.03900
C 	C 	0.96040 0.29720 0.32630 -0.01600
C 	C 	0.05120 0.35690 0.31370 -0.05900
C 	C 	0.17740 0.34010 0.32210 -0.01500
C 	C 	0.01530 0.43950 0.28990 0.31600
C 	C 	0.12680 0.10520 0.55220 0.10300
C 	C 	0.11650 0.20250 0.58250 -0.21400
C 	C 	0.09960 0.23810 0.64950 0.55500
C 	C 	0.82020 0.25000 0.75000 0.77800
C 	C 	0.17980 0.75000 0.25000 0.77800
O 	O 	0.92480 0.51390 0.85051 -0.41900
O 	O 	0.20270 0.53000 0.84134 -0.39700
O 	O 	0.27530 0.41940 0.76172 -0.40600
O 	O 	0.09930 0.94960 0.77801 -0.39700
O 	O 	0.90170 0.99370 0.77938 -0.41000
O 	O 	0.90100 0.67790 0.17739 -0.57200
O 	O 	0.91080 0.82700 0.17287 -0.52000
O 	O 	0.86720 0.32670 0.75183 -0.60300
O 	O 	0.92480 0.98610 0.64949 -0.42100
O 	O 	0.20270 0.97000 0.65866 -0.38900
O 	O 	0.27530 0.08060 0.73828 -0.40400
O 	O 	0.09930 0.55040 0.72199 -0.40400
O 	O 	0.90170 0.50630 0.72062 -0.41100
O 	O 	0.90100 0.82210 0.32261 -0.57200
O 	O 	0.91080 0.67300 0.32713 -0.52100
O 	O 	0.86720 0.17330 0.74817 -0.60000
O 	O 	0.07520 0.48610 0.14949 -0.41900
O 	O 	0.79730 0.47000 0.15866 -0.39700
O 	O 	0.72470 0.58060 0.23828 -0.40600
O 	O 	0.90070 0.05040 0.22199 -0.39700
O 	O 	0.09830 0.00630 0.22062 -0.41000
O 	O 	0.09900 0.32210 0.82261 -0.57200
O 	O 	0.08920 0.17300 0.82713 -0.52000
O 	O 	0.13280 0.67330 0.24817 -0.60300
O 	O 	0.07520 0.01390 0.35051 -0.42100
O 	O 	0.79730 0.03000 0.34134 -0.38900
O 	O 	0.72470 0.91940 0.26172 -0.40400
O 	O 	0.90070 0.44960 0.27801 -0.40400
O 	O 	0.09830 0.49370 0.27938 -0.41100
O 	O 	0.09900 0.17790 0.67739 -0.57200
O 	O 	0.08920 0.32700 0.67287 -0.52100
O 	O 	0.13280 0.82670 0.25183 -0.60000
