data_crystal

_cell_length_a 9.98170
_cell_length_b 16.63820
_cell_length_c 17.06750
_cell_angle_alpha 100.54400
_cell_angle_beta  107.00300
_cell_angle_gamma 90.00000

_symmetry_space_group_name_	'P 1'
_symmetry_space_group_name_H-M	'P 1'

loop_
_symmetry_equiv_pos_as_xyz
  x,y,z

loop_
_atom_site_label
_atom_site_type_symbol
_atom_site_fract_x
_atom_site_fract_y
_atom_site_fract_z
_atom_site_charge
Cd	Cd	-0.00000 0.00000 -0.00000 1.14600
Cd	Cd	-0.00000 0.50000 -0.00000 1.15400
H 	H 	0.15180 0.83300 0.97380 0.00300
H 	H 	0.78080 0.86570 0.84800 -0.01900
H 	H 	0.77500 0.75060 0.75140 0.17300
H 	H 	0.15610 0.71440 0.88580 0.17800
H 	H 	0.05240 0.45580 0.62740 0.06500
H 	H 	0.09830 0.51640 0.71360 0.07200
H 	H 	0.09450 0.58630 0.57620 0.03200
H 	H 	0.20100 0.60720 0.66600 0.03000
H 	H 	0.89470 0.56390 0.49180 0.07100
H 	H 	0.74250 0.58870 0.49020 0.08400
H 	H 	0.71940 0.49990 0.57040 0.07800
H 	H 	0.83430 0.44450 0.54720 0.06800
H 	H 	0.67240 0.49040 0.70160 0.14900
H 	H 	0.50410 0.60910 0.87440 0.14100
H 	H 	0.70820 0.59480 0.97300 0.01400
H 	H 	0.87450 0.48620 0.80820 -0.01500
H 	H 	0.05240 0.62010 0.76880 0.12100
H 	H 	0.38100 0.59180 0.72880 0.14700
H 	H 	0.17800 0.66700 0.02620 -0.06900
H 	H 	0.93280 0.63430 0.15200 0.04000
H 	H 	0.02360 0.74940 0.24860 0.12600
H 	H 	0.27030 0.78560 0.11420 0.12800
H 	H 	0.42500 0.04420 0.37260 0.03300
H 	H 	0.38470 0.98360 0.28640 0.05200
H 	H 	0.51830 0.91370 0.42380 0.05700
H 	H 	0.53500 0.89280 0.33400 0.04400
H 	H 	0.40290 0.93610 0.50820 0.06600
H 	H 	0.25230 0.91130 0.50980 0.08700
H 	H 	0.14900 0.00010 0.42960 0.02000
H 	H 	0.28710 0.05550 0.45280 0.01500
H 	H 	0.97080 0.00960 0.29840 0.16800
H 	H 	0.62970 0.89090 0.12560 0.13000
H 	H 	0.73520 0.90520 0.02700 -0.05600
H 	H 	0.06630 0.01380 0.19180 -0.12600
H 	H 	0.28360 0.87990 0.23120 0.15200
H 	H 	0.65220 0.90820 0.27120 0.14600
H 	H 	0.84820 0.16700 0.02620 -0.07700
H 	H 	0.21920 0.13430 0.15200 -0.03100
H 	H 	0.22500 0.24940 0.24860 0.15000
H 	H 	0.84390 0.28560 0.11420 0.11700
H 	H 	0.94760 0.54420 0.37260 0.06100
H 	H 	0.90170 0.48360 0.28640 0.05400
H 	H 	0.90550 0.41370 0.42380 0.07300
H 	H 	0.79900 0.39280 0.33400 0.05000
H 	H 	0.10530 0.43610 0.50820 0.04100
H 	H 	0.25750 0.41130 0.50980 0.07400
H 	H 	0.28060 0.50010 0.42960 0.07800
H 	H 	0.16570 0.55550 0.45280 0.05300
H 	H 	0.32760 0.50960 0.29840 0.14900
H 	H 	0.49590 0.39090 0.12560 0.12100
H 	H 	0.29180 0.40520 0.02700 -0.06200
H 	H 	0.12550 0.51380 0.19180 -0.04100
H 	H 	0.94760 0.37990 0.23120 0.19100
H 	H 	0.61900 0.40820 0.27120 0.14200
H 	H 	0.82200 0.33300 0.97380 -0.00400
H 	H 	0.06720 0.36570 0.84800 -0.08500
H 	H 	0.97640 0.25060 0.75140 0.19700
H 	H 	0.72970 0.21440 0.88580 0.16900
H 	H 	0.57500 0.95580 0.62740 0.09000
H 	H 	0.61530 0.01640 0.71360 0.07400
H 	H 	0.48170 0.08630 0.57620 0.04700
H 	H 	0.46500 0.10720 0.66600 0.03500
H 	H 	0.59710 0.06390 0.49180 0.04800
H 	H 	0.74770 0.08870 0.49020 0.07400
H 	H 	0.85100 0.99990 0.57040 0.12800
H 	H 	0.71290 0.94450 0.54720 0.09900
H 	H 	0.02920 0.99040 0.70160 0.13500
H 	H 	0.37030 0.10910 0.87440 0.13300
H 	H 	0.26480 0.09480 0.97300 0.01100
H 	H 	0.93370 0.98620 0.80820 0.05700
H 	H 	0.71640 0.12010 0.76880 0.15700
H 	H 	0.34780 0.09180 0.72880 0.14300
C 	C 	0.07350 0.81690 0.92780 0.16600
C 	C 	0.86100 0.83600 0.85500 0.20200
C 	C 	0.85480 0.76550 0.79700 -0.31800
C 	C 	0.07700 0.74500 0.87480 -0.36500
C 	C 	0.96737 0.71820 0.80734 0.35600
C 	C 	0.87883 0.61120 0.68046 0.28700
C 	C 	0.05671 0.51290 0.65402 -0.12400
C 	C 	0.15204 0.56260 0.62168 -0.01700
C 	C 	0.80177 0.54270 0.48754 -0.06000
C 	C 	0.81084 0.50080 0.56128 -0.05600
C 	C 	0.39110 0.50670 0.63700 0.28600
C 	C 	0.67675 0.51280 0.75650 -0.24400
C 	C 	0.56324 0.54930 0.77508 0.24700
C 	C 	0.57700 0.58240 0.85900 -0.24200
C 	C 	0.70100 0.57430 0.91740 0.15500
C 	C 	0.79789 0.51020 0.82158 0.14600
C 	C 	0.14570 0.68310 0.07220 0.15500
C 	C 	0.00600 0.66400 0.14500 0.04900
C 	C 	0.05780 0.73450 0.20300 -0.23700
C 	C 	0.20220 0.75500 0.12520 -0.29900
C 	C 	0.16003 0.78180 0.19266 0.25400
C 	C 	0.19837 0.88880 0.31954 0.28400
C 	C 	0.40269 0.98710 0.34598 -0.02000
C 	C 	0.53036 0.93740 0.37832 -0.05900
C 	C 	0.31423 0.95730 0.51246 -0.08000
C 	C 	0.24956 0.99920 0.43872 0.04500
C 	C 	0.75410 0.99330 0.36300 0.31100
C 	C 	0.92025 0.98720 0.24350 -0.29000
C 	C 	0.78816 0.95070 0.22492 0.27600
C 	C 	0.71800 0.91760 0.14100 -0.28000
C 	C 	0.78360 0.92570 0.08260 0.16800
C 	C 	0.97631 0.98980 0.17842 0.29400
C 	C 	0.92650 0.18310 0.07220 0.19800
C 	C 	0.13900 0.16400 0.14500 0.14400
C 	C 	0.14520 0.23450 0.20300 -0.27700
C 	C 	0.92300 0.25500 0.12520 -0.25500
C 	C 	0.03263 0.28180 0.19266 0.22200
C 	C 	0.12117 0.38880 0.31954 0.27900
C 	C 	0.94329 0.48710 0.34598 -0.01900
C 	C 	0.84796 0.43740 0.37832 -0.06700
C 	C 	0.19823 0.45730 0.51246 -0.04700
C 	C 	0.18916 0.49920 0.43872 -0.06200
C 	C 	0.60890 0.49330 0.36300 0.28400
C 	C 	0.32325 0.48720 0.24350 -0.25500
C 	C 	0.43676 0.45070 0.22492 0.24700
C 	C 	0.42300 0.41760 0.14100 -0.26400
C 	C 	0.29900 0.42570 0.08260 0.14800
C 	C 	0.20211 0.48980 0.17842 0.14600
C 	C 	0.85430 0.31690 0.92780 0.20300
C 	C 	0.99400 0.33600 0.85500 0.29100
C 	C 	0.94220 0.26550 0.79700 -0.35500
C 	C 	0.79780 0.24500 0.87480 -0.32500
C 	C 	0.83997 0.21820 0.80734 0.33000
C 	C 	0.80163 0.11120 0.68046 0.28300
C 	C 	0.59731 0.01290 0.65402 -0.11800
C 	C 	0.46964 0.06260 0.62168 -0.02800
C 	C 	0.68577 0.04270 0.48754 -0.03400
C 	C 	0.75044 0.00080 0.56128 -0.14800
C 	C 	0.24590 0.00670 0.63700 0.25800
C 	C 	0.07975 0.01280 0.75650 -0.21900
C 	C 	0.21184 0.04930 0.77508 0.22300
C 	C 	0.28200 0.08240 0.85900 -0.22800
C 	C 	0.21640 0.07430 0.91740 0.13700
C 	C 	0.02369 0.01020 0.82158 0.01900
Br	Br	0.28028 0.97159 0.09644 -0.44500
Br	Br	0.18384 0.52841 0.90356 -0.35300
Br	Br	0.71972 0.02841 0.90356 -0.34300
Br	Br	0.81616 0.47159 0.09644 -0.43900
N 	N 	0.96891 0.86480 0.91862 -0.22700
N 	N 	0.91435 0.54060 0.63870 -0.11700
N 	N 	0.97714 0.64580 0.75408 -0.25800
N 	N 	0.81167 0.53930 0.90074 -0.23700
N 	N 	0.25467 0.51280 0.59274 -0.14800
N 	N 	0.43571 0.55530 0.71562 -0.27000
N 	N 	0.05029 0.63520 0.08138 -0.27300
N 	N 	0.27565 0.95940 0.36130 -0.15900
N 	N 	0.22306 0.85420 0.24592 -0.28200
N 	N 	0.91093 0.96070 0.09926 -0.29100
N 	N 	0.66193 0.98720 0.40726 -0.13900
N 	N 	0.72009 0.94470 0.28438 -0.27600
N 	N 	0.03109 0.13520 0.08138 -0.31600
N 	N 	0.08565 0.45940 0.36130 -0.16500
N 	N 	0.02286 0.35420 0.24592 -0.31500
N 	N 	0.18833 0.46070 0.09926 -0.28700
N 	N 	0.74533 0.48720 0.40726 -0.13800
N 	N 	0.56429 0.44470 0.28438 -0.27000
N 	N 	0.94971 0.36480 0.91862 -0.26400
N 	N 	0.72435 0.04060 0.63870 -0.12500
N 	N 	0.77694 0.14580 0.75408 -0.28900
N 	N 	0.08907 0.03930 0.90074 -0.23200
N 	N 	0.33807 0.01280 0.59274 -0.14600
N 	N 	0.27991 0.05530 0.71562 -0.26500
O 	O 	0.76735 0.64150 0.65470 -0.24800
O 	O 	0.46734 0.46000 0.60948 -0.24700
O 	O 	0.11265 0.85850 0.34530 -0.26200
O 	O 	0.85786 0.04000 0.39052 -0.25600
O 	O 	0.23265 0.35850 0.34530 -0.25200
O 	O 	0.53266 0.54000 0.39052 -0.24700
O 	O 	0.88735 0.14150 0.65470 -0.23800
O 	O 	0.14214 0.96000 0.60948 -0.23800
