data_crystal

_cell_length_a 17.65600
_cell_length_b 19.40840
_cell_length_c 20.50400
_cell_angle_alpha 106.26100
_cell_angle_beta  90.00000
_cell_angle_gamma 117.05500

_symmetry_space_group_name_	'P 1'
_symmetry_space_group_name_H-M	'P 1'

loop_
_symmetry_equiv_pos_as_xyz
  x,y,z

loop_
_atom_site_label
_atom_site_type_symbol
_atom_site_fract_x
_atom_site_fract_y
_atom_site_fract_z
_atom_site_charge
Mn	Mn	0.54667 0.88530 0.97626 1.27000
Mn	Mn	0.33863 0.88530 0.47626 1.27700
H 	H 	0.51640 0.00220 0.80960 0.09200
H 	H 	0.36960 0.75580 0.74940 0.07400
H 	H 	0.34700 0.75800 0.63960 0.03200
H 	H 	0.46420 0.68800 0.88280 0.00800
H 	H 	0.70720 0.86780 0.90230 0.03000
H 	H 	0.71140 0.73940 0.85430 0.03800
H 	H 	0.66390 0.60160 0.81340 0.07500
H 	H 	0.60930 0.46640 0.74660 0.03800
H 	H 	0.36860 0.43680 0.75300 0.03900
H 	H 	0.42360 0.57260 0.81790 0.08500
H 	H 	0.54710 0.32600 0.72220 0.03700
H 	H 	0.48130 0.19220 0.64790 0.08500
H 	H 	0.26630 0.20720 0.61020 0.07500
H 	H 	0.33920 0.34200 0.66760 0.03300
H 	H 	0.43430 0.08620 0.54920 0.00400
H 	H 	0.20020 0.06280 0.57210 0.03800
H 	H 	0.18040 0.93080 0.50890 0.01400
H 	H 	0.53400 0.07040 0.73540 0.16300
H 	H 	0.49940 0.03240 0.66070 0.19100
H 	H 	0.48580 0.00220 0.30960 0.09000
H 	H 	0.38620 0.75580 0.24940 0.07300
H 	H 	0.41100 0.75800 0.13960 0.03000
H 	H 	0.22380 0.68800 0.38280 0.00900
H 	H 	0.16060 0.86780 0.40230 0.03100
H 	H 	0.02800 0.73940 0.35430 0.03400
H 	H 	0.93770 0.60160 0.31340 0.06100
H 	H 	0.85710 0.46640 0.24660 0.05300
H 	H 	0.06820 0.43680 0.25300 0.05600
H 	H 	0.14900 0.57260 0.31790 0.07100
H 	H 	0.77890 0.32600 0.22220 0.02700
H 	H 	0.71090 0.19220 0.14790 0.09300
H 	H 	0.94090 0.20720 0.11020 0.09400
H 	H 	0.00280 0.34200 0.16760 0.00500
H 	H 	0.65190 0.08620 0.04920 0.00600
H 	H 	0.86260 0.06280 0.07210 0.04400
H 	H 	0.75040 0.93080 0.00890 0.01800
H 	H 	0.53640 0.07040 0.23540 0.16300
H 	H 	0.53300 0.03240 0.16070 0.19100
C 	C 	0.41670 0.87720 0.65768 -0.16300
C 	C 	0.46895 0.95210 0.70880 0.19500
C 	C 	0.48312 0.95284 0.77540 -0.14200
C 	C 	0.44767 0.87954 0.79210 -0.01800
C 	C 	0.39467 0.80474 0.73960 -0.09000
C 	C 	0.38150 0.80680 0.67410 0.05300
C 	C 	0.39108 0.87636 0.58700 0.33400
C 	C 	0.47194 0.88028 0.86162 0.30900
C 	C 	0.52305 0.71610 0.88250 0.05900
C 	C 	0.66012 0.81624 0.89330 -0.01400
C 	C 	0.66323 0.74526 0.86560 0.00300
C 	C 	0.54944 0.60048 0.82300 0.12500
C 	C 	0.60474 0.56848 0.80120 -0.12000
C 	C 	0.57215 0.48750 0.76140 -0.01400
C 	C 	0.48356 0.43792 0.74380 0.00100
C 	C 	0.42775 0.46990 0.76500 -0.01000
C 	C 	0.46065 0.55110 0.80420 -0.12400
C 	C 	0.44975 0.35070 0.70510 -0.01200
C 	C 	0.49239 0.30358 0.69790 -0.00800
C 	C 	0.45270 0.22320 0.65410 -0.12400
C 	C 	0.37011 0.19002 0.62000 0.12200
C 	C 	0.32386 0.23192 0.62900 -0.13300
C 	C 	0.36670 0.31080 0.66670 0.00200
C 	C 	0.37484 0.06468 0.54580 0.06600
C 	C 	0.24436 0.05072 0.55930 -0.01100
C 	C 	0.23310 0.97800 0.52310 -0.00500
C 	C 	0.46050 0.87720 0.15768 -0.16200
C 	C 	0.48315 0.95210 0.20880 0.19600
C 	C 	0.46972 0.95284 0.27540 -0.14000
C 	C 	0.43187 0.87954 0.29210 -0.01800
C 	C 	0.41007 0.80474 0.23960 -0.09000
C 	C 	0.42530 0.80680 0.17410 0.05400
C 	C 	0.48528 0.87636 0.08700 0.33300
C 	C 	0.40834 0.88028 0.36162 0.30800
C 	C 	0.19305 0.71610 0.38250 0.05900
C 	C 	0.15612 0.81624 0.39330 -0.01400
C 	C 	0.08203 0.74526 0.36560 0.00300
C 	C 	0.05104 0.60048 0.32300 0.08600
C 	C 	0.96374 0.56848 0.30120 -0.06700
C 	C 	0.91535 0.48750 0.26140 -0.05800
C 	C 	0.95436 0.43792 0.24380 0.05400
C 	C 	0.04215 0.46990 0.26500 -0.06500
C 	C 	0.09045 0.55110 0.30420 -0.08400
C 	C 	0.90095 0.35070 0.20510 -0.05000
C 	C 	0.81119 0.30358 0.19790 0.02100
C 	C 	0.77050 0.22320 0.15410 -0.14700
C 	C 	0.81991 0.19002 0.12000 0.14400
C 	C 	0.90806 0.23192 0.12900 -0.17100
C 	C 	0.94410 0.31080 0.16670 0.06100
C 	C 	0.68984 0.06468 0.04580 0.06500
C 	C 	0.80636 0.05072 0.05930 -0.02000
C 	C 	0.74490 0.97800 0.02310 0.01000
N 	N 	0.50534 0.02768 0.70060 -0.34100
N 	N 	0.57484 0.80168 0.90690 -0.24500
N 	N 	0.57597 0.68054 0.85750 -0.13700
N 	N 	0.33310 0.10780 0.57590 -0.13600
N 	N 	0.31501 0.98322 0.50920 -0.24800
N 	N 	0.52234 0.02768 0.20060 -0.34200
N 	N 	0.22684 0.80168 0.40690 -0.24200
N 	N 	0.10457 0.68054 0.35750 -0.13000
N 	N 	0.77470 0.10780 0.07590 -0.13700
N 	N 	0.66821 0.98322 0.00920 -0.24200
O 	O 	0.32740 0.81676 0.54865 -0.43200
O 	O 	0.43985 0.93968 0.57318 -0.40300
O 	O 	0.52894 0.94218 0.90223 -0.41500
O 	O 	0.43692 0.81844 0.88105 -0.38200
O 	O 	0.48936 0.81676 0.04865 -0.42500
O 	O 	0.49983 0.93968 0.07318 -0.39700
O 	O 	0.41324 0.94218 0.40223 -0.41000
O 	O 	0.38152 0.81844 0.38105 -0.37900
Mn	Mn	0.98330 0.16838 0.92295 1.27900
Mn	Mn	0.18508 0.16838 0.42295 1.27800
H 	H 	0.10410 0.27900 0.75390 0.10900
H 	H 	0.00940 0.03600 0.68850 0.06600
H 	H 	0.03860 0.03980 0.57860 0.01300
H 	H 	0.87250 0.96960 0.82900 0.01500
H 	H 	0.77310 0.11880 0.92170 0.02400
H 	H 	0.65150 0.97680 0.86540 0.03700
H 	H 	0.58640 0.83940 0.81680 0.07500
H 	H 	0.52100 0.70560 0.77610 0.04100
H 	H 	0.73430 0.70460 0.70990 0.04200
H 	H 	0.80450 0.84200 0.75890 0.08200
H 	H 	0.44690 0.61440 0.69190 0.03900
H 	H 	0.36280 0.49180 0.60740 0.08800
H 	H 	0.56280 0.44740 0.58600 0.07600
H 	H 	0.64860 0.56940 0.67110 0.03800
H 	H 	0.29050 0.36360 0.53430 0.01100
H 	H 	0.50610 0.35380 0.48200 0.02700
H 	H 	0.38100 0.23420 0.39720 0.01600
H 	H 	0.16790 0.35400 0.68290 0.16600
H 	H 	0.16570 0.31720 0.60820 0.18800
H 	H 	0.17490 0.27900 0.25390 0.10900
H 	H 	0.02660 0.03600 0.18850 0.06700
H 	H 	0.00120 0.03980 0.07860 0.01500
H 	H 	0.09710 0.96960 0.32900 0.01200
H 	H 	0.34570 0.11880 0.42170 0.02600
H 	H 	0.32530 0.97680 0.36540 0.04000
H 	H 	0.25300 0.83940 0.31680 0.06600
H 	H 	0.18460 0.70560 0.27610 0.05100
H 	H 	0.97030 0.70460 0.20990 0.07200
H 	H 	0.03750 0.84200 0.25890 0.06400
H 	H 	0.16750 0.61440 0.19190 0.03500
H 	H 	0.12900 0.49180 0.10740 0.08800
H 	H 	0.88460 0.44740 0.08600 0.07600
H 	H 	0.92080 0.56940 0.17110 0.03200
H 	H 	0.07310 0.36360 0.03430 0.01400
H 	H 	0.84770 0.35380 0.98200 0.03000
H 	H 	0.85320 0.23420 0.89720 0.01400
H 	H 	0.18610 0.35400 0.18290 0.16500
H 	H 	0.15150 0.31720 0.10820 0.18800
C 	C 	0.09037 0.16194 0.60020 -0.21400
C 	C 	0.10863 0.23446 0.65410 0.20600
C 	C 	0.09091 0.23102 0.71880 -0.16800
C 	C 	0.05383 0.15766 0.73303 -0.00100
C 	C 	0.03446 0.08572 0.67974 -0.10400
C 	C 	0.05221 0.08782 0.61361 0.07200
C 	C 	0.11477 0.16254 0.53350 0.39000
C 	C 	0.03634 0.15408 0.80310 0.31100
C 	C 	0.83400 0.98900 0.84380 0.06100
C 	C 	0.77852 0.07384 0.89630 -0.02000
C 	C 	0.70968 0.99276 0.86478 0.01400
C 	C 	0.70326 0.85792 0.79250 0.10700
C 	C 	0.61680 0.81300 0.79570 -0.11000
C 	C 	0.57772 0.73364 0.76910 0.00600
C 	C 	0.61448 0.68656 0.73040 -0.00800
C 	C 	0.70401 0.73142 0.73030 -0.01400
C 	C 	0.74587 0.81374 0.76000 -0.11400
C 	C 	0.55686 0.60432 0.68900 0.00400
C 	C 	0.47033 0.58106 0.67050 -0.00900
C 	C 	0.42045 0.50790 0.61990 -0.12500
C 	C 	0.45457 0.45814 0.58760 0.11900
C 	C 	0.53989 0.48118 0.60710 -0.11200
C 	C 	0.59139 0.55418 0.65800 -0.01600
C 	C 	0.32732 0.34664 0.51110 0.07000
C 	C 	0.44886 0.34192 0.48177 0.02100
C 	C 	0.37838 0.27336 0.43430 -0.02800
C 	C 	0.07157 0.16194 0.10020 -0.21500
C 	C 	0.12583 0.23446 0.15410 0.20600
C 	C 	0.14011 0.23102 0.21880 -0.16800
C 	C 	0.10383 0.15766 0.23303 0.00000
C 	C 	0.05126 0.08572 0.17974 -0.10400
C 	C 	0.03561 0.08782 0.11361 0.07300
C 	C 	0.04777 0.16254 0.03350 0.39700
C 	C 	0.11774 0.15408 0.30310 0.31000
C 	C 	0.15500 0.98900 0.34380 0.05800
C 	C 	0.29532 0.07384 0.39630 -0.01500
C 	C 	0.28308 0.99276 0.36478 0.01200
C 	C 	0.15466 0.85792 0.29250 0.08600
C 	C 	0.19620 0.81300 0.29570 -0.08400
C 	C 	0.15592 0.73364 0.26910 -0.02200
C 	C 	0.07208 0.68656 0.23040 0.02500
C 	C 	0.02741 0.73142 0.23030 -0.07200
C 	C 	0.06787 0.81374 0.26000 -0.07800
C 	C 	0.04746 0.60432 0.18900 -0.02800
C 	C 	0.11073 0.58106 0.17050 0.00300
C 	C 	0.08745 0.50790 0.11990 -0.12300
C 	C 	0.00357 0.45814 0.08760 0.10000
C 	C 	0.94129 0.48118 0.10710 -0.10100
C 	C 	0.96279 0.55418 0.15800 0.00900
C 	C 	0.01932 0.34664 0.01110 0.06600
C 	C 	0.89306 0.34192 0.98177 -0.00000
C 	C 	0.89498 0.27336 0.93430 -0.02300
N 	N 	0.15299 0.31164 0.64757 -0.34100
N 	N 	0.85599 0.07238 0.88135 -0.24000
N 	N 	0.74338 0.94256 0.83360 -0.13200
N 	N 	0.41905 0.38810 0.52755 -0.13300
N 	N 	0.30218 0.27716 0.45539 -0.23500
N 	N 	0.15865 0.31164 0.14757 -0.34100
N 	N 	0.21639 0.07238 0.38135 -0.23900
N 	N 	0.19918 0.94256 0.33360 -0.12900
N 	N 	0.96905 0.38810 0.02755 -0.11200
N 	N 	0.97498 0.27716 0.95539 -0.23600
O 	O 	0.10453 0.09914 0.48913 -0.44000
O 	O 	0.14367 0.22486 0.51711 -0.43900
O 	O 	0.04054 0.21734 0.84252 -0.42100
O 	O 	0.02352 0.09886 0.82602 -0.39400
O 	O 	0.99461 0.09914 0.98913 -0.44600
O 	O 	0.08119 0.22486 0.01711 -0.43600
O 	O 	0.17680 0.21734 0.34252 -0.41600
O 	O 	0.07534 0.09886 0.32602 -0.39100
Mn	Mn	0.71832 0.23158 0.75022 1.28000
Mn	Mn	0.51326 0.23158 0.25022 1.28000
H 	H 	0.69720 0.35380 0.58700 0.09500
H 	H 	0.56130 0.11060 0.52270 0.06900
H 	H 	0.52940 0.11020 0.41290 0.02700
H 	H 	0.64570 0.04600 0.61910 0.01500
H 	H 	0.84850 0.15080 0.77090 0.01800
H 	H 	0.82650 0.01380 0.71120 0.03400
H 	H 	0.57650 0.90700 0.56110 0.08300
H 	H 	0.51930 0.77420 0.48790 0.03700
H 	H 	0.72620 0.76120 0.55170 0.04800
H 	H 	0.78340 0.89400 0.62490 0.07600
H 	H 	0.47120 0.64660 0.48250 0.04400
H 	H 	0.40060 0.51640 0.40360 0.07700
H 	H 	0.63100 0.52940 0.37450 0.06900
H 	H 	0.70110 0.66340 0.44530 0.04500
H 	H 	0.56240 0.39540 0.33130 -0.00300
H 	H 	0.33410 0.38960 0.30190 0.05000
H 	H 	0.31690 0.25440 0.23720 0.02400
H 	H 	0.67760 0.39160 0.44440 0.15300
H 	H 	0.71740 0.42780 0.52060 0.12900
H 	H 	0.65660 0.35380 0.08700 0.08200
H 	H 	0.54930 0.11060 0.02270 0.05400
H 	H 	0.58080 0.11020 0.91290 0.04300
H 	H 	0.40030 0.04600 0.11910 0.01600
H 	H 	0.30230 0.15080 0.27090 0.01700
H 	H 	0.18730 0.01380 0.21120 0.03300
H 	H 	0.33050 0.90700 0.06110 0.08900
H 	H 	0.25490 0.77420 0.98790 0.01700
H 	H 	0.03500 0.76120 0.05170 0.05200
H 	H 	0.11060 0.89400 0.12490 0.07200
H 	H 	0.17540 0.64660 0.98250 0.02300
H 	H 	0.11580 0.51640 0.90360 0.09300
H 	H 	0.89840 0.52940 0.87450 0.08300
H 	H 	0.96230 0.66340 0.94530 0.02500
H 	H 	0.83300 0.39540 0.83130 -0.00500
H 	H 	0.05550 0.38960 0.80190 0.03400
H 	H 	0.93750 0.25440 0.73720 0.03100
H 	H 	0.71400 0.39160 0.94440 0.15200
H 	H 	0.71040 0.42780 0.02060 0.14300
C 	C 	0.59873 0.23426 0.43400 -0.17400
C 	C 	0.64819 0.30518 0.48483 0.18800
C 	C 	0.66310 0.30520 0.55240 -0.15100
C 	C 	0.62699 0.23298 0.56650 -0.00400
C 	C 	0.58071 0.15962 0.51350 -0.09600
C 	C 	0.56339 0.15898 0.44750 0.04900
C 	C 	0.57396 0.23392 0.36310 0.34900
C 	C 	0.64610 0.22940 0.63640 0.29300
C 	C 	0.69143 0.05506 0.64880 0.06400
C 	C 	0.80557 0.11294 0.73420 -0.00600
C 	C 	0.79430 0.03720 0.70070 -0.00200
C 	C 	0.68566 0.91372 0.60030 0.10900
C 	C 	0.60651 0.87782 0.55920 -0.11000
C 	C 	0.57223 0.79826 0.51530 -0.01600
C 	C 	0.61709 0.75458 0.51250 0.00100
C 	C 	0.69623 0.79046 0.55360 -0.02100
C 	C 	0.73052 0.87004 0.59740 -0.10400
C 	C 	0.58994 0.66948 0.46970 0.00400
C 	C 	0.50353 0.62406 0.45860 -0.02300
C 	C 	0.46023 0.54506 0.41310 -0.10600
C 	C 	0.51181 0.51122 0.38260 0.09400
C 	C 	0.59902 0.55424 0.39520 -0.10600
C 	C 	0.64134 0.63388 0.43770 -0.02400
C 	C 	0.50487 0.37774 0.31650 0.03000
C 	C 	0.37706 0.37432 0.30040 -0.02000
C 	C 	0.36751 0.29842 0.26328 0.02600
C 	C 	0.63553 0.23426 0.93400 -0.14900
C 	C 	0.65699 0.30518 0.98483 0.15300
C 	C 	0.64210 0.30520 0.05240 -0.10600
C 	C 	0.60599 0.23298 0.06650 -0.03500
C 	C 	0.57891 0.15962 0.01350 -0.04400
C 	C 	0.59559 0.15898 0.94750 -0.00200
C 	C 	0.65996 0.23392 0.86310 0.33900
C 	C 	0.58330 0.22940 0.13640 0.30400
C 	C 	0.36363 0.05506 0.14880 0.06600
C 	C 	0.30737 0.11294 0.23420 -0.00700
C 	C 	0.24290 0.03720 0.20070 0.00000
C 	C 	0.22806 0.91372 0.10030 0.11200
C 	C 	0.27131 0.87782 0.05920 -0.12000
C 	C 	0.22603 0.79826 0.01530 0.00800
C 	C 	0.13749 0.75458 0.01250 0.02600
C 	C 	0.09423 0.79046 0.05360 -0.03200
C 	C 	0.13952 0.87004 0.09740 -0.09900
C 	C 	0.07954 0.66948 0.96970 -0.05700
C 	C 	0.12053 0.62406 0.95860 0.02400
C 	C 	0.08483 0.54506 0.91310 -0.16100
C 	C 	0.99941 0.51122 0.88260 0.13500
C 	C 	0.95522 0.55424 0.89520 -0.15000
C 	C 	0.99254 0.63388 0.93770 0.03200
C 	C 	0.87287 0.37774 0.81650 0.03100
C 	C 	0.99726 0.37432 0.80040 0.00800
C 	C 	0.93091 0.29842 0.76328 0.01400
N 	N 	0.68533 0.38346 0.48438 -0.29500
N 	N 	0.73993 0.12626 0.70421 -0.21900
N 	N 	0.72360 0.99970 0.64576 -0.11700
N 	N 	0.46108 0.42456 0.33508 -0.11900
N 	N 	0.44622 0.29924 0.27155 -0.24600
N 	N 	0.69813 0.38346 0.98438 -0.30300
N 	N 	0.38633 0.12626 0.20421 -0.21900
N 	N 	0.27610 0.99970 0.14576 -0.11800
N 	N 	0.96348 0.42456 0.83508 -0.12700
N 	N 	0.85302 0.29924 0.77155 -0.24500
O 	O 	0.51512 0.17092 0.31942 -0.44300
O 	O 	0.61570 0.29626 0.34906 -0.41100
O 	O 	0.70337 0.29402 0.67642 -0.39400
O 	O 	0.61511 0.17120 0.66039 -0.40300
O 	O 	0.65580 0.17092 0.81942 -0.44100
O 	O 	0.68056 0.29626 0.84906 -0.40800
O 	O 	0.59065 0.29402 0.17642 -0.39700
O 	O 	0.55609 0.17120 0.16039 -0.40600
Mn	Mn	0.00966 0.81442 0.64789 1.27000
Mn	Mn	0.80476 0.81442 0.14789 1.27700
H 	H 	0.98600 0.91860 0.47900 0.11400
H 	H 	0.84430 0.67680 0.41110 0.07700
H 	H 	0.81710 0.68000 0.30170 0.01300
H 	H 	0.91410 0.60620 0.57860 -0.00200
H 	H 	0.15490 0.77280 0.56890 0.01500
H 	H 	0.13190 0.63340 0.50010 0.03300
H 	H 	0.08530 0.50300 0.46580 0.10800
H 	H 	0.02800 0.36640 0.40630 -0.00200
H 	H 	0.79010 0.33560 0.43080 0.03000
H 	H 	0.84770 0.47340 0.49000 0.08600
H 	H 	0.97370 0.23300 0.38460 0.04900
H 	H 	0.91080 0.09680 0.31960 0.07600
H 	H 	0.68860 0.09580 0.28150 0.06400
H 	H 	0.74990 0.23220 0.34330 0.04900
H 	H 	0.85630 0.98080 0.23670 0.00300
H 	H 	0.61590 0.95340 0.25590 0.04000
H 	H 	0.60300 0.81900 0.18200 0.02800
H 	H 	0.96380 0.95540 0.32930 0.19500
H 	H 	0.00650 0.99200 0.40210 0.15700
H 	H 	0.93260 0.91860 0.97900 0.10100
H 	H 	0.83250 0.67680 0.91110 0.06700
H 	H 	0.86290 0.68000 0.80170 0.01700
H 	H 	0.69210 0.60620 0.07860 0.01000
H 	H 	0.61790 0.77280 0.06890 0.01600
H 	H 	0.50150 0.63340 0.00010 0.04300
H 	H 	0.41770 0.50300 0.96580 0.06600
H 	H 	0.33840 0.36640 0.90630 0.04400
H 	H 	0.54550 0.33560 0.93080 0.05000
H 	H 	0.62570 0.47340 0.99000 0.05600
H 	H 	0.25930 0.23300 0.88460 0.03300
H 	H 	0.18600 0.09680 0.81960 0.08200
H 	H 	0.40720 0.09580 0.78150 0.07200
H 	H 	0.48230 0.23220 0.84330 0.03900
H 	H 	0.12450 0.98080 0.73670 -0.00400
H 	H 	0.33750 0.95340 0.75590 0.03900
H 	H 	0.21600 0.81900 0.68200 0.02800
H 	H 	0.99160 0.95540 0.82930 0.19900
H 	H 	0.98550 0.99200 0.90210 0.17600
C 	C 	0.88762 0.80304 0.32270 -0.22100
C 	C 	0.93965 0.87330 0.37506 0.21200
C 	C 	0.95319 0.87058 0.44340 -0.16600
C 	C 	0.91753 0.79726 0.45570 0.01700
C 	C 	0.86768 0.72656 0.40269 -0.11600
C 	C 	0.85163 0.72826 0.33660 0.08100
C 	C 	0.87020 0.80580 0.25660 0.37600
C 	C 	0.93239 0.79638 0.52683 0.29300
C 	C 	0.96928 0.62936 0.56730 0.10400
C 	C 	0.10501 0.72382 0.56230 -0.00700
C 	C 	0.09190 0.64500 0.52350 0.00600
C 	C 	0.97204 0.50228 0.48380 0.17000
C 	C 	0.02609 0.46958 0.45860 -0.20700
C 	C 	0.99168 0.38776 0.42320 0.08100
C 	C 	0.90325 0.33670 0.41230 -0.05000
C 	C 	0.84933 0.36926 0.43770 0.02500
C 	C 	0.88394 0.45188 0.47320 -0.15500
C 	C 	0.86741 0.24782 0.37270 0.02700
C 	C 	0.91648 0.20596 0.36440 -0.03100
C 	C 	0.87827 0.12414 0.32580 -0.10000
C 	C 	0.79412 0.08304 0.29690 0.09500
C 	C 	0.74557 0.12354 0.30270 -0.09400
C 	C 	0.78236 0.20512 0.33990 -0.04000
C 	C 	0.79671 0.95782 0.23220 0.04000
C 	C 	0.66082 0.94244 0.24308 -0.00300
C 	C 	0.65414 0.86668 0.20150 0.01500
C 	C 	0.91542 0.80304 0.82270 -0.21400
C 	C 	0.93365 0.87330 0.87506 0.20400
C 	C 	0.91739 0.87058 0.94340 -0.15200
C 	C 	0.87973 0.79726 0.95570 -0.01500
C 	C 	0.85888 0.72656 0.90269 -0.09900
C 	C 	0.87663 0.72826 0.83660 0.06900
C 	C 	0.93560 0.80580 0.75660 0.37300
C 	C 	0.86399 0.79638 0.02683 0.31800
C 	C 	0.66008 0.62936 0.06730 0.07600
C 	C 	0.61881 0.72382 0.06230 -0.00200
C 	C 	0.55310 0.64500 0.02350 0.00600
C 	C 	0.53024 0.50228 0.98380 0.08100
C 	C 	0.44349 0.46958 0.95860 -0.09800
C 	C 	0.39608 0.38776 0.92320 -0.03200
C 	C 	0.43345 0.33670 0.91230 0.01100
C 	C 	0.51993 0.36926 0.93770 -0.04000
C 	C 	0.56794 0.45188 0.97320 -0.09000
C 	C 	0.38041 0.24782 0.87270 -0.01000
C 	C 	0.28948 0.20596 0.86440 -0.00500
C 	C 	0.24587 0.12414 0.82580 -0.12200
C 	C 	0.28892 0.08304 0.79690 0.11300
C 	C 	0.37797 0.12354 0.80270 -0.11400
C 	C 	0.42276 0.20512 0.83990 -0.01400
C 	C 	0.16111 0.95782 0.73220 0.03900
C 	C 	0.28162 0.94244 0.74308 -0.00200
C 	C 	0.21254 0.86668 0.70150 0.01400
N 	N 	0.97433 0.94980 0.36793 -0.33100
N 	N 	0.02851 0.71362 0.58875 -0.24000
N 	N 	0.00677 0.58654 0.52663 -0.15400
N 	N 	0.74958 0.99696 0.26046 -0.11700
N 	N 	0.73622 0.87580 0.19513 -0.24300
N 	N 	0.97547 0.94980 0.86793 -0.34600
N 	N 	0.68511 0.71362 0.08875 -0.23000
N 	N 	0.57977 0.58654 0.02663 -0.12100
N 	N 	0.24738 0.99696 0.76046 -0.12300
N 	N 	0.13958 0.87580 0.69513 -0.24500
O 	O 	0.81498 0.74164 0.21065 -0.41100
O 	O 	0.90374 0.86742 0.23835 -0.43300
O 	O 	0.99288 0.86010 0.56647 -0.40700
O 	O 	0.89149 0.73966 0.54928 -0.34700
O 	O 	0.92666 0.74164 0.71065 -0.40600
O 	O 	0.96368 0.86742 0.73835 -0.43100
O 	O 	0.86722 0.86010 0.06647 -0.41300
O 	O 	0.84817 0.73966 0.04928 -0.34800
Mn	Mn	0.34729 0.51092 0.19396 1.27600
Mn	Mn	0.16363 0.51092 0.69396 1.27600
H 	H 	0.33890 0.63840 0.03220 0.15800
H 	H 	0.19500 0.39700 0.97380 0.10300
H 	H 	0.17830 0.39380 0.86040 -0.00300
H 	H 	0.27150 0.33120 0.07240 0.01100
H 	H 	0.49570 0.44880 0.20250 0.02100
H 	H 	0.48500 0.31760 0.12110 0.03500
H 	H 	0.44450 0.22300 0.00590 0.12000
H 	H 	0.38810 0.09420 0.93380 0.01500
H 	H 	0.14840 0.04500 0.97570 0.03000
H 	H 	0.20520 0.17940 0.04480 0.08900
H 	H 	0.34470 0.97520 0.88620 0.04100
H 	H 	0.29250 0.84040 0.81730 0.07900
H 	H 	0.05100 0.80340 0.82820 0.07300
H 	H 	0.10190 0.93640 0.89780 0.03900
H 	H 	0.23660 0.70220 0.78480 0.00700
H 	H 	0.00950 0.69440 0.73490 0.03400
H 	H 	0.00370 0.56180 0.66080 0.02000
H 	H 	0.36800 0.70700 0.95650 0.15900
H 	H 	0.33270 0.66940 0.88200 0.19300
H 	H 	0.29950 0.63840 0.53220 0.11200
H 	H 	0.20200 0.39700 0.47380 0.08000
H 	H 	0.21550 0.39380 0.36040 0.01700
H 	H 	0.05970 0.33120 0.57240 0.01200
H 	H 	0.95310 0.44880 0.70250 0.01900
H 	H 	0.83260 0.31760 0.62110 0.03600
H 	H 	0.77850 0.22300 0.50590 0.08500
H 	H 	0.70610 0.09420 0.43380 0.02700
H 	H 	0.89660 0.04500 0.47570 0.03000
H 	H 	0.97420 0.17940 0.54480 0.09400
H 	H 	0.63050 0.97520 0.38620 0.04400
H 	H 	0.54790 0.84040 0.31730 0.07900
H 	H 	0.75240 0.80340 0.32820 0.07600
H 	H 	0.83450 0.93640 0.39780 0.04700
H 	H 	0.46560 0.70220 0.28480 0.00700
H 	H 	0.68490 0.69440 0.23490 0.03900
H 	H 	0.55810 0.56180 0.16080 0.02600
H 	H 	0.33900 0.70700 0.45650 0.16100
H 	H 	0.33670 0.66940 0.38200 0.19100
C 	C 	0.24523 0.51466 0.87970 -0.23400
C 	C 	0.29481 0.59062 0.93100 0.25400
C 	C 	0.30582 0.58964 0.99730 -0.28800
C 	C 	0.26856 0.51752 0.01240 0.11100
C 	C 	0.22044 0.44508 0.96260 -0.20500
C 	C 	0.20960 0.44320 0.89500 0.13500
C 	C 	0.23070 0.51620 0.80780 0.37500
C 	C 	0.28355 0.51770 0.08350 0.24700
C 	C 	0.32368 0.34296 0.09502 0.06900
C 	C 	0.45027 0.40994 0.16790 -0.00300
C 	C 	0.44386 0.33512 0.12210 0.00200
C 	C 	0.32901 0.21302 0.03540 0.15600
C 	C 	0.38585 0.18770 0.99980 -0.20200
C 	C 	0.35170 0.11140 0.95750 0.04300
C 	C 	0.26245 0.05490 0.94660 -0.03400
C 	C 	0.20686 0.08052 0.98110 -0.00800
C 	C 	0.24180 0.16060 0.02360 -0.12700
C 	C 	0.22863 0.96966 0.89957 0.01500
C 	C 	0.28572 0.94064 0.87490 -0.02100
C 	C 	0.25445 0.85990 0.83330 -0.11400
C 	C 	0.16634 0.80868 0.81570 0.11600
C 	C 	0.10994 0.83768 0.84000 -0.12000
C 	C 	0.14046 0.91752 0.88170 -0.02100
C 	C 	0.18126 0.68412 0.76400 0.05600
C 	C 	0.05299 0.67998 0.73500 -0.01100
C 	C 	0.04887 0.60394 0.69400 -0.00300
C 	C 	0.26943 0.51466 0.37970 -0.19600
C 	C 	0.29581 0.59062 0.43100 0.20800
C 	C 	0.28382 0.58964 0.49730 -0.18300
C 	C 	0.24896 0.51752 0.51240 0.01800
C 	C 	0.22464 0.44508 0.46260 -0.12100
C 	C 	0.23360 0.44320 0.39500 0.08000
C 	C 	0.28550 0.51620 0.30780 0.36200
C 	C 	0.23415 0.51770 0.58350 0.27700
C 	C 	0.01928 0.34296 0.59502 0.05400
C 	C 	0.95967 0.40994 0.66790 0.01000
C 	C 	0.89126 0.33512 0.62210 -0.00400
C 	C 	0.88401 0.21302 0.53540 0.12600
C 	C 	0.80185 0.18770 0.49980 -0.13300
C 	C 	0.75970 0.11140 0.45750 0.01200
C 	C 	0.79245 0.05490 0.44660 -0.02900
C 	C 	0.87366 0.08052 0.48110 0.00600
C 	C 	0.91880 0.16060 0.52360 -0.13400
C 	C 	0.74103 0.96966 0.39957 0.02300
C 	C 	0.65492 0.94064 0.37490 -0.02200
C 	C 	0.60545 0.85990 0.33330 -0.11100
C 	C 	0.64234 0.80868 0.31570 0.11600
C 	C 	0.72774 0.83768 0.34000 -0.11600
C 	C 	0.77706 0.91752 0.38170 -0.02300
C 	C 	0.50286 0.68412 0.26400 0.05700
C 	C 	0.62699 0.67998 0.23500 -0.00900
C 	C 	0.55507 0.60394 0.19400 -0.00100
N 	N 	0.33693 0.66466 0.92210 -0.35700
N 	N 	0.37522 0.41304 0.15041 -0.23900
N 	N 	0.36413 0.29386 0.07953 -0.13800
N 	N 	0.13548 0.72816 0.77530 -0.13300
N 	N 	0.12787 0.60634 0.71460 -0.23400
N 	N 	0.32773 0.66466 0.42210 -0.34600
N 	N 	0.03782 0.41304 0.65041 -0.24500
N 	N 	0.92973 0.29386 0.57953 -0.12800
N 	N 	0.59268 0.72816 0.27530 -0.13200
N 	N 	0.47847 0.60634 0.21460 -0.23300
O 	O 	0.17987 0.45290 0.76486 -0.45600
O 	O 	0.27248 0.57884 0.79036 -0.40600
O 	O 	0.34107 0.58418 0.12419 -0.35800
O 	O 	0.24840 0.46120 0.10751 -0.40700
O 	O 	0.27303 0.45290 0.26486 -0.45300
O 	O 	0.30636 0.57884 0.29036 -0.40200
O 	O 	0.24311 0.58418 0.62419 -0.36700
O 	O 	0.21280 0.46120 0.60751 -0.41700
