data_crystal

_cell_length_a 7.08840
_cell_length_b 11.17390
_cell_length_c 23.98930
_cell_angle_alpha 90.00000
_cell_angle_beta  92.16800
_cell_angle_gamma 90.00000

_symmetry_space_group_name_	'P 1'
_symmetry_space_group_name_H-M	'P 1'

loop_
_symmetry_equiv_pos_as_xyz
  x,y,z

loop_
_atom_site_label
_atom_site_type_symbol
_atom_site_fract_x
_atom_site_fract_y
_atom_site_fract_z
_atom_site_charge
Cu	Cu	0.37829 0.14356 0.37803 0.77400
N 	N 	0.37850 0.96167 0.37648 -0.26800
N 	N 	0.37970 0.32625 0.37598 -0.26700
C 	C 	0.33940 0.89819 0.42220 0.05400
H 	H 	0.31330 0.93930 0.45470 -0.05600
C 	C 	0.33620 0.77538 0.42307 -0.14400
H 	H 	0.30780 0.73540 0.45570 0.05300
C 	C 	0.37520 0.71020 0.37532 0.03900
C 	C 	0.41330 0.77690 0.32790 -0.13800
H 	H 	0.43860 0.73810 0.29470 0.04900
C 	C 	0.41370 0.89966 0.33015 0.05200
H 	H 	0.43970 0.94190 0.29790 -0.04100
C 	C 	0.37660 0.57796 0.37522 0.04100
C 	C 	0.41090 0.39017 0.42285 0.05700
H 	H 	0.43440 0.34930 0.45620 -0.04300
C 	C 	0.34390 0.51111 0.32665 -0.14000
H 	H 	0.32050 0.54980 0.29280 0.05100
C 	C 	0.40960 0.51265 0.42380 -0.14200
H 	H 	0.43110 0.55260 0.45750 0.06200
C 	C 	0.34630 0.38840 0.32883 0.05600
H 	H 	0.32350 0.34610 0.29590 -0.04300
Cu	Cu	0.62171 0.64356 0.12197 0.77400
N 	N 	0.62150 0.46167 0.12352 -0.26900
N 	N 	0.62030 0.82625 0.12402 -0.26800
C 	C 	0.66060 0.39819 0.07780 0.05300
H 	H 	0.68670 0.43930 0.04530 -0.05700
C 	C 	0.66380 0.27538 0.07693 -0.14500
H 	H 	0.69220 0.23540 0.04430 0.05200
C 	C 	0.62480 0.21020 0.12468 0.03800
C 	C 	0.58670 0.27690 0.17210 -0.13700
H 	H 	0.56140 0.23810 0.20530 0.04900
C 	C 	0.58630 0.39966 0.16985 0.05200
H 	H 	0.56030 0.44190 0.20210 -0.04100
C 	C 	0.62340 0.07796 0.12478 0.04100
C 	C 	0.58910 0.89017 0.07715 0.05700
H 	H 	0.56560 0.84930 0.04380 -0.04300
C 	C 	0.65610 0.01111 0.17335 -0.14100
H 	H 	0.67950 0.04980 0.20720 0.05100
C 	C 	0.59040 0.01265 0.07620 -0.14300
H 	H 	0.56890 0.05260 0.04250 0.06200
C 	C 	0.65370 0.88840 0.17117 0.05600
H 	H 	0.67650 0.84610 0.20410 -0.04300
Cu	Cu	0.62171 0.85644 0.62197 0.77300
N 	N 	0.62150 0.03833 0.62352 -0.26900
N 	N 	0.62030 0.67375 0.62402 -0.26800
C 	C 	0.66060 0.10181 0.57780 0.05300
H 	H 	0.68670 0.06070 0.54530 -0.05700
C 	C 	0.66380 0.22462 0.57693 -0.14500
H 	H 	0.69220 0.26460 0.54430 0.05200
C 	C 	0.62480 0.28980 0.62468 0.03800
C 	C 	0.58670 0.22310 0.67210 -0.13800
H 	H 	0.56140 0.26190 0.70530 0.04900
C 	C 	0.58630 0.10034 0.66985 0.05200
H 	H 	0.56030 0.05810 0.70210 -0.04100
C 	C 	0.62340 0.42204 0.62478 0.04100
C 	C 	0.58910 0.60983 0.57715 0.05700
H 	H 	0.56560 0.65070 0.54380 -0.04300
C 	C 	0.65610 0.48889 0.67335 -0.14000
H 	H 	0.67950 0.45020 0.70720 0.05100
C 	C 	0.59040 0.48735 0.57620 -0.14200
H 	H 	0.56890 0.44740 0.54250 0.06200
C 	C 	0.65370 0.61160 0.67117 0.05600
H 	H 	0.67650 0.65390 0.70410 -0.04300
Cu	Cu	0.37829 0.35644 0.87803 0.77400
N 	N 	0.37850 0.53833 0.87648 -0.26900
N 	N 	0.37970 0.17375 0.87598 -0.26800
C 	C 	0.33940 0.60181 0.92220 0.05300
H 	H 	0.31330 0.56070 0.95470 -0.05700
C 	C 	0.33620 0.72462 0.92307 -0.14500
H 	H 	0.30780 0.76460 0.95570 0.05200
C 	C 	0.37520 0.78980 0.87532 0.03800
C 	C 	0.41330 0.72310 0.82790 -0.13700
H 	H 	0.43860 0.76190 0.79470 0.04900
C 	C 	0.41370 0.60034 0.83015 0.05200
H 	H 	0.43970 0.55810 0.79790 -0.04100
C 	C 	0.37660 0.92204 0.87522 0.04100
C 	C 	0.41090 0.10983 0.92285 0.05700
H 	H 	0.43440 0.15070 0.95620 -0.04300
C 	C 	0.34390 0.98889 0.82665 -0.14100
H 	H 	0.32050 0.95020 0.79280 0.05100
C 	C 	0.40960 0.98735 0.92380 -0.14300
H 	H 	0.43110 0.94740 0.95750 0.06200
C 	C 	0.34630 0.11160 0.82883 0.05600
H 	H 	0.32350 0.15390 0.79590 -0.04300
