data_crystal

_cell_length_a 46.18520
_cell_length_b 16.17220
_cell_length_c 21.96130
_cell_angle_alpha 90.00000
_cell_angle_beta  98.08800
_cell_angle_gamma 90.00000

_symmetry_space_group_name_	'P 1'
_symmetry_space_group_name_H-M	'P 1'

loop_
_symmetry_equiv_pos_as_xyz
  x,y,z

loop_
_atom_site_label
_atom_site_type_symbol
_atom_site_fract_x
_atom_site_fract_y
_atom_site_fract_z
_atom_site_charge
W 	W 	0.29024 0.21723 0.85138 0.98000
W 	W 	0.32877 0.40125 0.08799 0.98300
W 	W 	0.32491 0.02748 0.08864 0.98100
W 	W 	0.40393 0.02144 0.05726 1.03300
W 	W 	0.36872 0.20645 0.81594 0.99000
W 	W 	0.41813 0.19778 0.13576 1.00700
W 	W 	0.38507 0.40132 0.90175 1.00500
W 	W 	0.33827 0.20286 0.16761 0.95400
W 	W 	0.40781 0.39752 0.05328 1.02400
W 	W 	0.30647 0.40989 0.93573 0.96600
W 	W 	0.37750 0.02517 0.89059 1.01200
W 	W 	0.29861 0.03563 0.92450 0.97600
W 	W 	0.45503 0.07761 0.94826 1.00200
W 	W 	0.46937 0.25804 0.02713 0.97300
W 	W 	0.44595 0.26206 0.87290 1.00200
Co	Co	0.26511 0.15761 0.10600 1.14000
Co	Co	0.24299 0.16625 0.96325 1.17400
P 	P 	0.31135 0.21680 0.01060 0.54100
P 	P 	0.39673 0.20690 0.97400 0.54300
O 	O 	0.45900 0.15220 0.88000 -0.44700
O 	O 	0.38460 0.00150 0.97590 -0.46500
O 	O 	0.31180 0.17230 0.94890 -0.33900
O 	O 	0.47360 0.29330 0.94300 -0.44300
O 	O 	0.30700 0.32100 0.87730 -0.46200
O 	O 	0.38850 0.29860 0.97940 -0.31600
O 	O 	0.32320 0.30610 0.00920 -0.33600
O 	O 	0.45230 0.20690 0.09010 -0.44300
O 	O 	0.44490 0.35050 0.03110 -0.44200
O 	O 	0.38160 0.18800 0.15460 -0.42700
O 	O 	0.37010 0.41040 0.06200 -0.43600
O 	O 	0.41080 0.30760 0.11030 -0.46600
O 	O 	0.48020 0.14920 0.00190 -0.45300
O 	O 	0.43920 0.04230 0.01830 -0.45200
O 	O 	0.26580 0.06360 0.95490 -0.50600
O 	O 	0.32170 0.01220 0.00270 -0.44500
O 	O 	0.37440 0.08550 0.81590 -0.44000
O 	O 	0.37030 0.31500 0.84820 -0.46300
O 	O 	0.28770 0.05250 0.09260 -0.53200
O 	O 	0.32970 0.16730 0.06230 -0.33500
O 	O 	0.40430 0.45270 0.97720 -0.45900
O 	O 	0.37830 0.16560 0.91960 -0.32600
O 	O 	0.25910 0.23370 0.88850 -0.61200
O 	O 	0.36910 0.03090 0.08340 -0.43300
O 	O 	0.27100 0.37870 0.95320 -0.61400
O 	O 	0.39650 0.16090 0.03660 -0.32400
O 	O 	0.33860 0.08390 0.16540 -0.44600
O 	O 	0.33080 0.19610 0.82880 -0.43100
O 	O 	0.28780 0.09880 0.85150 -0.45700
O 	O 	0.42310 0.35390 0.89170 -0.44900
O 	O 	0.34490 0.31140 0.13560 -0.44400
O 	O 	0.42410 0.07760 0.12720 -0.43900
O 	O 	0.42120 0.04770 0.89950 -0.44600
O 	O 	0.34940 0.41550 0.92640 -0.43300
O 	O 	0.29890 0.21060 0.15770 -0.52900
O 	O 	0.41250 0.21640 0.82960 -0.44400
O 	O 	0.31770 0.46350 0.01120 -0.45100
O 	O 	0.33880 0.03530 0.89480 -0.42900
O 	O 	0.42980 0.20360 0.96090 -0.36600
O 	O 	0.29170 0.37780 0.09310 -0.50500
O 	O 	0.27900 0.22060 0.02270 -0.60500
W 	W 	0.20976 0.28277 0.14862 0.98000
W 	W 	0.17123 0.09875 0.91201 0.98300
W 	W 	0.17509 0.47252 0.91136 0.98100
W 	W 	0.09607 0.47856 0.94274 1.03200
W 	W 	0.13128 0.29355 0.18406 0.99000
W 	W 	0.08187 0.30222 0.86424 1.00700
W 	W 	0.11493 0.09868 0.09825 1.00500
W 	W 	0.16173 0.29714 0.83239 0.95400
W 	W 	0.09219 0.10248 0.94672 1.02300
W 	W 	0.19353 0.09011 0.06427 0.96700
W 	W 	0.12250 0.47483 0.10941 1.01200
W 	W 	0.20139 0.46437 0.07550 0.97700
W 	W 	0.04497 0.42239 0.05174 1.00400
W 	W 	0.03063 0.24196 0.97287 0.97200
W 	W 	0.05405 0.23794 0.12710 1.00300
Co	Co	0.23489 0.34239 0.89400 1.14000
Co	Co	0.25701 0.33375 0.03675 1.17400
P 	P 	0.18865 0.28320 0.98940 0.54000
P 	P 	0.10327 0.29310 0.02600 0.54400
O 	O 	0.04100 0.34780 0.12000 -0.44700
O 	O 	0.11540 0.49850 0.02410 -0.46400
O 	O 	0.18820 0.32770 0.05110 -0.33900
O 	O 	0.02640 0.20670 0.05700 -0.44200
O 	O 	0.19300 0.17900 0.12270 -0.46200
O 	O 	0.11150 0.20140 0.02060 -0.31600
O 	O 	0.17680 0.19390 0.99080 -0.33600
O 	O 	0.04770 0.29310 0.90990 -0.44300
O 	O 	0.05510 0.14950 0.96890 -0.44300
O 	O 	0.11840 0.31200 0.84540 -0.42700
O 	O 	0.12990 0.08960 0.93800 -0.43600
O 	O 	0.08920 0.19240 0.88970 -0.46500
O 	O 	0.01980 0.35080 0.99810 -0.45300
O 	O 	0.06080 0.45770 0.98170 -0.45300
O 	O 	0.23420 0.43640 0.04510 -0.50500
O 	O 	0.17830 0.48780 0.99730 -0.44600
O 	O 	0.12560 0.41450 0.18410 -0.44000
O 	O 	0.12970 0.18500 0.15180 -0.46300
O 	O 	0.21230 0.44750 0.90740 -0.53200
O 	O 	0.17030 0.33270 0.93770 -0.33500
O 	O 	0.09570 0.04730 0.02280 -0.45800
O 	O 	0.12170 0.33440 0.08040 -0.32600
O 	O 	0.24090 0.26630 0.11150 -0.61200
O 	O 	0.13090 0.46910 0.91660 -0.43300
O 	O 	0.22900 0.12130 0.04680 -0.61400
O 	O 	0.10350 0.33910 0.96340 -0.32500
O 	O 	0.16140 0.41610 0.83460 -0.44600
O 	O 	0.16920 0.30390 0.17120 -0.43100
O 	O 	0.21220 0.40120 0.14850 -0.45700
O 	O 	0.07690 0.14610 0.10830 -0.44900
O 	O 	0.15510 0.18860 0.86440 -0.44400
O 	O 	0.07590 0.42240 0.87280 -0.43900
O 	O 	0.07880 0.45230 0.10050 -0.44600
O 	O 	0.15060 0.08450 0.07360 -0.43300
O 	O 	0.20110 0.28940 0.84230 -0.52900
O 	O 	0.08750 0.28360 0.17040 -0.44400
O 	O 	0.18230 0.03650 0.98880 -0.45200
O 	O 	0.16120 0.46470 0.10520 -0.42900
O 	O 	0.07020 0.29640 0.03910 -0.36600
O 	O 	0.20830 0.12220 0.90690 -0.50500
O 	O 	0.22100 0.27940 0.97730 -0.60500
W 	W 	0.79024 0.71723 0.85138 0.98000
W 	W 	0.82877 0.90125 0.08799 0.98300
W 	W 	0.82491 0.52748 0.08864 0.98100
W 	W 	0.90393 0.52144 0.05726 1.03200
W 	W 	0.86872 0.70645 0.81594 0.99000
W 	W 	0.91813 0.69778 0.13576 1.00700
W 	W 	0.88507 0.90132 0.90175 1.00500
W 	W 	0.83827 0.70286 0.16761 0.95400
W 	W 	0.90781 0.89752 0.05328 1.02300
W 	W 	0.80647 0.90989 0.93573 0.96700
W 	W 	0.87750 0.52517 0.89059 1.01200
W 	W 	0.79861 0.53563 0.92450 0.97700
W 	W 	0.95503 0.57761 0.94826 1.00400
W 	W 	0.96937 0.75804 0.02713 0.97200
W 	W 	0.94595 0.76206 0.87290 1.00300
Co	Co	0.76511 0.65761 0.10600 1.14000
Co	Co	0.74299 0.66625 0.96325 1.17400
P 	P 	0.81135 0.71680 0.01060 0.54000
P 	P 	0.89673 0.70690 0.97400 0.54400
O 	O 	0.95900 0.65220 0.88000 -0.44700
O 	O 	0.88460 0.50150 0.97590 -0.46400
O 	O 	0.81180 0.67230 0.94890 -0.33900
O 	O 	0.97360 0.79330 0.94300 -0.44200
O 	O 	0.80700 0.82100 0.87730 -0.46200
O 	O 	0.88850 0.79860 0.97940 -0.31600
O 	O 	0.82320 0.80610 0.00920 -0.33600
O 	O 	0.95230 0.70690 0.09010 -0.44300
O 	O 	0.94490 0.85050 0.03110 -0.44300
O 	O 	0.88160 0.68800 0.15460 -0.42700
O 	O 	0.87010 0.91040 0.06200 -0.43600
O 	O 	0.91080 0.80760 0.11030 -0.46500
O 	O 	0.98020 0.64920 0.00190 -0.45300
O 	O 	0.93920 0.54230 0.01830 -0.45300
O 	O 	0.76580 0.56360 0.95490 -0.50500
O 	O 	0.82170 0.51220 0.00270 -0.44600
O 	O 	0.87440 0.58550 0.81590 -0.44000
O 	O 	0.87030 0.81500 0.84820 -0.46300
O 	O 	0.78770 0.55250 0.09260 -0.53200
O 	O 	0.82970 0.66730 0.06230 -0.33500
O 	O 	0.90430 0.95270 0.97720 -0.45800
O 	O 	0.87830 0.66560 0.91960 -0.32600
O 	O 	0.75910 0.73370 0.88850 -0.61200
O 	O 	0.86910 0.53090 0.08340 -0.43300
O 	O 	0.77100 0.87870 0.95320 -0.61400
O 	O 	0.89650 0.66090 0.03660 -0.32500
O 	O 	0.83860 0.58390 0.16540 -0.44600
O 	O 	0.83080 0.69610 0.82880 -0.43100
O 	O 	0.78780 0.59880 0.85150 -0.45700
O 	O 	0.92310 0.85390 0.89170 -0.44900
O 	O 	0.84490 0.81140 0.13560 -0.44400
O 	O 	0.92410 0.57760 0.12720 -0.43900
O 	O 	0.92120 0.54770 0.89950 -0.44600
O 	O 	0.84940 0.91550 0.92640 -0.43300
O 	O 	0.79890 0.71060 0.15770 -0.52900
O 	O 	0.91250 0.71640 0.82960 -0.44400
O 	O 	0.81770 0.96350 0.01120 -0.45200
O 	O 	0.83880 0.53530 0.89480 -0.42900
O 	O 	0.92980 0.70360 0.96090 -0.36600
O 	O 	0.79170 0.87780 0.09310 -0.50500
O 	O 	0.77900 0.72060 0.02270 -0.60500
W 	W 	0.70976 0.78277 0.14862 0.98000
W 	W 	0.67123 0.59875 0.91201 0.98300
W 	W 	0.67509 0.97252 0.91136 0.98100
W 	W 	0.59607 0.97856 0.94274 1.03300
W 	W 	0.63128 0.79355 0.18406 0.99000
W 	W 	0.58187 0.80222 0.86424 1.00700
W 	W 	0.61493 0.59868 0.09825 1.00500
W 	W 	0.66173 0.79714 0.83239 0.95400
W 	W 	0.59219 0.60248 0.94672 1.02400
W 	W 	0.69353 0.59011 0.06427 0.96600
W 	W 	0.62250 0.97483 0.10941 1.01200
W 	W 	0.70139 0.96437 0.07550 0.97600
W 	W 	0.54497 0.92239 0.05174 1.00200
W 	W 	0.53063 0.74196 0.97287 0.97300
W 	W 	0.55405 0.73794 0.12710 1.00200
Co	Co	0.73489 0.84239 0.89400 1.14000
Co	Co	0.75701 0.83375 0.03675 1.17400
P 	P 	0.68865 0.78320 0.98940 0.54100
P 	P 	0.60327 0.79310 0.02600 0.54300
O 	O 	0.54100 0.84780 0.12000 -0.44700
O 	O 	0.61540 0.99850 0.02410 -0.46500
O 	O 	0.68820 0.82770 0.05110 -0.33900
O 	O 	0.52640 0.70670 0.05700 -0.44300
O 	O 	0.69300 0.67900 0.12270 -0.46200
O 	O 	0.61150 0.70140 0.02060 -0.31600
O 	O 	0.67680 0.69390 0.99080 -0.33600
O 	O 	0.54770 0.79310 0.90990 -0.44300
O 	O 	0.55510 0.64950 0.96890 -0.44200
O 	O 	0.61840 0.81200 0.84540 -0.42700
O 	O 	0.62990 0.58960 0.93800 -0.43600
O 	O 	0.58920 0.69240 0.88970 -0.46600
O 	O 	0.51980 0.85080 0.99810 -0.45300
O 	O 	0.56080 0.95770 0.98170 -0.45200
O 	O 	0.73420 0.93640 0.04510 -0.50600
O 	O 	0.67830 0.98780 0.99730 -0.44500
O 	O 	0.62560 0.91450 0.18410 -0.44000
O 	O 	0.62970 0.68500 0.15180 -0.46300
O 	O 	0.71230 0.94750 0.90740 -0.53200
O 	O 	0.67030 0.83270 0.93770 -0.33500
O 	O 	0.59570 0.54730 0.02280 -0.45900
O 	O 	0.62170 0.83440 0.08040 -0.32600
O 	O 	0.74090 0.76630 0.11150 -0.61200
O 	O 	0.63090 0.96910 0.91660 -0.43300
O 	O 	0.72900 0.62130 0.04680 -0.61400
O 	O 	0.60350 0.83910 0.96340 -0.32400
O 	O 	0.66140 0.91610 0.83460 -0.44600
O 	O 	0.66920 0.80390 0.17120 -0.43100
O 	O 	0.71220 0.90120 0.14850 -0.45700
O 	O 	0.57690 0.64610 0.10830 -0.44900
O 	O 	0.65510 0.68860 0.86440 -0.44400
O 	O 	0.57590 0.92240 0.87280 -0.43900
O 	O 	0.57880 0.95230 0.10050 -0.44600
O 	O 	0.65060 0.58450 0.07360 -0.43300
O 	O 	0.70110 0.78940 0.84230 -0.52900
O 	O 	0.58750 0.78360 0.17040 -0.44400
O 	O 	0.68230 0.53650 0.98880 -0.45100
O 	O 	0.66120 0.96470 0.10520 -0.42900
O 	O 	0.57020 0.79640 0.03910 -0.36600
O 	O 	0.70830 0.62220 0.90690 -0.50500
O 	O 	0.72100 0.77940 0.97730 -0.60500
W 	W 	0.70976 0.21723 0.64862 0.98000
W 	W 	0.67123 0.40125 0.41201 0.98300
W 	W 	0.67509 0.02748 0.41136 0.98100
W 	W 	0.59607 0.02144 0.44274 1.03200
W 	W 	0.63128 0.20645 0.68406 0.99000
W 	W 	0.58187 0.19778 0.36424 1.00700
W 	W 	0.61493 0.40132 0.59825 1.00500
W 	W 	0.66173 0.20286 0.33239 0.95400
W 	W 	0.59219 0.39752 0.44672 1.02400
W 	W 	0.69353 0.40989 0.56427 0.96600
W 	W 	0.62250 0.02517 0.60941 1.01200
W 	W 	0.70139 0.03563 0.57550 0.97700
W 	W 	0.54497 0.07761 0.55174 1.00400
W 	W 	0.53063 0.25804 0.47287 0.97300
W 	W 	0.55405 0.26206 0.62710 1.00200
Co	Co	0.73489 0.15761 0.39400 1.14000
Co	Co	0.75701 0.16625 0.53675 1.17400
P 	P 	0.68865 0.21680 0.48940 0.54100
P 	P 	0.60327 0.20690 0.52600 0.54400
O 	O 	0.54100 0.15220 0.62000 -0.44700
O 	O 	0.61540 0.00150 0.52410 -0.46400
O 	O 	0.68820 0.17230 0.55110 -0.33900
O 	O 	0.52640 0.29330 0.55700 -0.44200
O 	O 	0.69300 0.32100 0.62270 -0.46200
O 	O 	0.61150 0.29860 0.52060 -0.31600
O 	O 	0.67680 0.30610 0.49080 -0.33600
O 	O 	0.54770 0.20690 0.40990 -0.44300
O 	O 	0.55510 0.35050 0.46890 -0.44200
O 	O 	0.61840 0.18800 0.34540 -0.42700
O 	O 	0.62990 0.41040 0.43800 -0.43600
O 	O 	0.58920 0.30760 0.38970 -0.46600
O 	O 	0.51980 0.14920 0.49810 -0.45300
O 	O 	0.56080 0.04230 0.48170 -0.45300
O 	O 	0.73420 0.06360 0.54510 -0.50500
O 	O 	0.67830 0.01220 0.49730 -0.44500
O 	O 	0.62560 0.08550 0.68410 -0.44000
O 	O 	0.62970 0.31500 0.65180 -0.46300
O 	O 	0.71230 0.05250 0.40740 -0.53200
O 	O 	0.67030 0.16730 0.43770 -0.33500
O 	O 	0.59570 0.45270 0.52280 -0.45800
O 	O 	0.62170 0.16560 0.58040 -0.32600
O 	O 	0.74090 0.23370 0.61150 -0.61200
O 	O 	0.63090 0.03090 0.41660 -0.43300
O 	O 	0.72900 0.37870 0.54680 -0.61400
O 	O 	0.60350 0.16090 0.46340 -0.32400
O 	O 	0.66140 0.08390 0.33460 -0.44600
O 	O 	0.66920 0.19610 0.67120 -0.43100
O 	O 	0.71220 0.09880 0.64850 -0.45700
O 	O 	0.57690 0.35390 0.60830 -0.44900
O 	O 	0.65510 0.31140 0.36440 -0.44400
O 	O 	0.57590 0.07760 0.37280 -0.43900
O 	O 	0.57880 0.04770 0.60050 -0.44600
O 	O 	0.65060 0.41550 0.57360 -0.43300
O 	O 	0.70110 0.21060 0.34230 -0.52900
O 	O 	0.58750 0.21640 0.67040 -0.44400
O 	O 	0.68230 0.46350 0.48880 -0.45100
O 	O 	0.66120 0.03530 0.60520 -0.42900
O 	O 	0.57020 0.20360 0.53910 -0.36600
O 	O 	0.70830 0.37780 0.40690 -0.50500
O 	O 	0.72100 0.22060 0.47730 -0.60500
W 	W 	0.79024 0.28277 0.35138 0.98000
W 	W 	0.82877 0.09875 0.58799 0.98300
W 	W 	0.82491 0.47252 0.58864 0.98100
W 	W 	0.90393 0.47856 0.55726 1.03200
W 	W 	0.86872 0.29355 0.31594 0.99000
W 	W 	0.91813 0.30222 0.63576 1.00700
W 	W 	0.88507 0.09868 0.40175 1.00500
W 	W 	0.83827 0.29714 0.66761 0.95400
W 	W 	0.90781 0.10248 0.55328 1.02400
W 	W 	0.80647 0.09011 0.43573 0.96700
W 	W 	0.87750 0.47483 0.39059 1.01200
W 	W 	0.79861 0.46437 0.42450 0.97700
W 	W 	0.95503 0.42239 0.44826 1.00400
W 	W 	0.96937 0.24196 0.52713 0.97300
W 	W 	0.94595 0.23794 0.37290 1.00300
Co	Co	0.76511 0.34239 0.60600 1.14000
Co	Co	0.74299 0.33375 0.46325 1.17400
P 	P 	0.81135 0.28320 0.51060 0.54100
P 	P 	0.89673 0.29310 0.47400 0.54400
O 	O 	0.95900 0.34780 0.38000 -0.44700
O 	O 	0.88460 0.49850 0.47590 -0.46400
O 	O 	0.81180 0.32770 0.44890 -0.33900
O 	O 	0.97360 0.20670 0.44300 -0.44200
O 	O 	0.80700 0.17900 0.37730 -0.46200
O 	O 	0.88850 0.20140 0.47940 -0.31600
O 	O 	0.82320 0.19390 0.50920 -0.33600
O 	O 	0.95230 0.29310 0.59010 -0.44300
O 	O 	0.94490 0.14950 0.53110 -0.44200
O 	O 	0.88160 0.31200 0.65460 -0.42700
O 	O 	0.87010 0.08960 0.56200 -0.43600
O 	O 	0.91080 0.19240 0.61030 -0.46600
O 	O 	0.98020 0.35080 0.50190 -0.45300
O 	O 	0.93920 0.45770 0.51830 -0.45300
O 	O 	0.76580 0.43640 0.45490 -0.50500
O 	O 	0.82170 0.48780 0.50270 -0.44500
O 	O 	0.87440 0.41450 0.31590 -0.44000
O 	O 	0.87030 0.18500 0.34820 -0.46300
O 	O 	0.78770 0.44750 0.59260 -0.53200
O 	O 	0.82970 0.33270 0.56230 -0.33500
O 	O 	0.90430 0.04730 0.47720 -0.45800
O 	O 	0.87830 0.33440 0.41960 -0.32600
O 	O 	0.75910 0.26630 0.38850 -0.61200
O 	O 	0.86910 0.46910 0.58340 -0.43300
O 	O 	0.77100 0.12130 0.45320 -0.61400
O 	O 	0.89650 0.33910 0.53660 -0.32400
O 	O 	0.83860 0.41610 0.66540 -0.44600
O 	O 	0.83080 0.30390 0.32880 -0.43100
O 	O 	0.78780 0.40120 0.35150 -0.45700
O 	O 	0.92310 0.14610 0.39170 -0.44900
O 	O 	0.84490 0.18860 0.63560 -0.44400
O 	O 	0.92410 0.42240 0.62720 -0.43900
O 	O 	0.92120 0.45230 0.39950 -0.44600
O 	O 	0.84940 0.08450 0.42640 -0.43300
O 	O 	0.79890 0.28940 0.65770 -0.52900
O 	O 	0.91250 0.28360 0.32960 -0.44400
O 	O 	0.81770 0.03650 0.51120 -0.45100
O 	O 	0.83880 0.46470 0.39480 -0.42900
O 	O 	0.92980 0.29640 0.46090 -0.36600
O 	O 	0.79170 0.12220 0.59310 -0.50500
O 	O 	0.77900 0.27940 0.52270 -0.60500
W 	W 	0.20976 0.71723 0.64862 0.98000
W 	W 	0.17123 0.90125 0.41201 0.98300
W 	W 	0.17509 0.52748 0.41136 0.98100
W 	W 	0.09607 0.52144 0.44274 1.03200
W 	W 	0.13128 0.70645 0.68406 0.99000
W 	W 	0.08187 0.69778 0.36424 1.00700
W 	W 	0.11493 0.90132 0.59825 1.00500
W 	W 	0.16173 0.70286 0.33239 0.95400
W 	W 	0.09219 0.89752 0.44672 1.02400
W 	W 	0.19353 0.90989 0.56427 0.96700
W 	W 	0.12250 0.52517 0.60941 1.01200
W 	W 	0.20139 0.53563 0.57550 0.97700
W 	W 	0.04497 0.57761 0.55174 1.00400
W 	W 	0.03063 0.75804 0.47287 0.97300
W 	W 	0.05405 0.76206 0.62710 1.00300
Co	Co	0.23489 0.65761 0.39400 1.14000
Co	Co	0.25701 0.66625 0.53675 1.17400
P 	P 	0.18865 0.71680 0.48940 0.54100
P 	P 	0.10327 0.70690 0.52600 0.54400
O 	O 	0.04100 0.65220 0.62000 -0.44700
O 	O 	0.11540 0.50150 0.52410 -0.46400
O 	O 	0.18820 0.67230 0.55110 -0.33900
O 	O 	0.02640 0.79330 0.55700 -0.44200
O 	O 	0.19300 0.82100 0.62270 -0.46200
O 	O 	0.11150 0.79860 0.52060 -0.31600
O 	O 	0.17680 0.80610 0.49080 -0.33600
O 	O 	0.04770 0.70690 0.40990 -0.44300
O 	O 	0.05510 0.85050 0.46890 -0.44200
O 	O 	0.11840 0.68800 0.34540 -0.42700
O 	O 	0.12990 0.91040 0.43800 -0.43600
O 	O 	0.08920 0.80760 0.38970 -0.46600
O 	O 	0.01980 0.64920 0.49810 -0.45300
O 	O 	0.06080 0.54230 0.48170 -0.45300
O 	O 	0.23420 0.56360 0.54510 -0.50500
O 	O 	0.17830 0.51220 0.49730 -0.44500
O 	O 	0.12560 0.58550 0.68410 -0.44000
O 	O 	0.12970 0.81500 0.65180 -0.46300
O 	O 	0.21230 0.55250 0.40740 -0.53200
O 	O 	0.17030 0.66730 0.43770 -0.33500
O 	O 	0.09570 0.95270 0.52280 -0.45800
O 	O 	0.12170 0.66560 0.58040 -0.32600
O 	O 	0.24090 0.73370 0.61150 -0.61200
O 	O 	0.13090 0.53090 0.41660 -0.43300
O 	O 	0.22900 0.87870 0.54680 -0.61400
O 	O 	0.10350 0.66090 0.46340 -0.32400
O 	O 	0.16140 0.58390 0.33460 -0.44600
O 	O 	0.16920 0.69610 0.67120 -0.43100
O 	O 	0.21220 0.59880 0.64850 -0.45700
O 	O 	0.07690 0.85390 0.60830 -0.44900
O 	O 	0.15510 0.81140 0.36440 -0.44400
O 	O 	0.07590 0.57760 0.37280 -0.43900
O 	O 	0.07880 0.54770 0.60050 -0.44600
O 	O 	0.15060 0.91550 0.57360 -0.43300
O 	O 	0.20110 0.71060 0.34230 -0.52900
O 	O 	0.08750 0.71640 0.67040 -0.44400
O 	O 	0.18230 0.96350 0.48880 -0.45100
O 	O 	0.16120 0.53530 0.60520 -0.42900
O 	O 	0.07020 0.70360 0.53910 -0.36600
O 	O 	0.20830 0.87780 0.40690 -0.50500
O 	O 	0.22100 0.72060 0.47730 -0.60500
W 	W 	0.29024 0.78277 0.35138 0.98000
W 	W 	0.32877 0.59875 0.58799 0.98300
W 	W 	0.32491 0.97252 0.58864 0.98100
W 	W 	0.40393 0.97856 0.55726 1.03200
W 	W 	0.36872 0.79355 0.31594 0.99000
W 	W 	0.41813 0.80222 0.63576 1.00700
W 	W 	0.38507 0.59868 0.40175 1.00500
W 	W 	0.33827 0.79714 0.66761 0.95400
W 	W 	0.40781 0.60248 0.55328 1.02400
W 	W 	0.30647 0.59011 0.43573 0.96600
W 	W 	0.37750 0.97483 0.39059 1.01200
W 	W 	0.29861 0.96437 0.42450 0.97700
W 	W 	0.45503 0.92239 0.44826 1.00400
W 	W 	0.46937 0.74196 0.52713 0.97300
W 	W 	0.44595 0.73794 0.37290 1.00200
Co	Co	0.26511 0.84239 0.60600 1.14000
Co	Co	0.24299 0.83375 0.46325 1.17400
P 	P 	0.31135 0.78320 0.51060 0.54100
P 	P 	0.39673 0.79310 0.47400 0.54400
O 	O 	0.45900 0.84780 0.38000 -0.44700
O 	O 	0.38460 0.99850 0.47590 -0.46400
O 	O 	0.31180 0.82770 0.44890 -0.33900
O 	O 	0.47360 0.70670 0.44300 -0.44200
O 	O 	0.30700 0.67900 0.37730 -0.46200
O 	O 	0.38850 0.70140 0.47940 -0.31600
O 	O 	0.32320 0.69390 0.50920 -0.33600
O 	O 	0.45230 0.79310 0.59010 -0.44300
O 	O 	0.44490 0.64950 0.53110 -0.44200
O 	O 	0.38160 0.81200 0.65460 -0.42700
O 	O 	0.37010 0.58960 0.56200 -0.43600
O 	O 	0.41080 0.69240 0.61030 -0.46600
O 	O 	0.48020 0.85080 0.50190 -0.45300
O 	O 	0.43920 0.95770 0.51830 -0.45300
O 	O 	0.26580 0.93640 0.45490 -0.50500
O 	O 	0.32170 0.98780 0.50270 -0.44500
O 	O 	0.37440 0.91450 0.31590 -0.44000
O 	O 	0.37030 0.68500 0.34820 -0.46300
O 	O 	0.28770 0.94750 0.59260 -0.53200
O 	O 	0.32970 0.83270 0.56230 -0.33500
O 	O 	0.40430 0.54730 0.47720 -0.45800
O 	O 	0.37830 0.83440 0.41960 -0.32600
O 	O 	0.25910 0.76630 0.38850 -0.61200
O 	O 	0.36910 0.96910 0.58340 -0.43300
O 	O 	0.27100 0.62130 0.45320 -0.61400
O 	O 	0.39650 0.83910 0.53660 -0.32400
O 	O 	0.33860 0.91610 0.66540 -0.44600
O 	O 	0.33080 0.80390 0.32880 -0.43100
O 	O 	0.28780 0.90120 0.35150 -0.45700
O 	O 	0.42310 0.64610 0.39170 -0.44900
O 	O 	0.34490 0.68860 0.63560 -0.44400
O 	O 	0.42410 0.92240 0.62720 -0.43900
O 	O 	0.42120 0.95230 0.39950 -0.44600
O 	O 	0.34940 0.58450 0.42640 -0.43300
O 	O 	0.29890 0.78940 0.65770 -0.52900
O 	O 	0.41250 0.78360 0.32960 -0.44400
O 	O 	0.31770 0.53650 0.51120 -0.45100
O 	O 	0.33880 0.96470 0.39480 -0.42900
O 	O 	0.42980 0.79640 0.46090 -0.36600
O 	O 	0.29170 0.62220 0.59310 -0.50500
O 	O 	0.27900 0.77940 0.52270 -0.60500
