data_crystal

_cell_length_a 14.82730
_cell_length_b 14.82730
_cell_length_c 20.91740
_cell_angle_alpha 90.00000
_cell_angle_beta  90.00000
_cell_angle_gamma 90.00000

_symmetry_space_group_name_	'P 1'
_symmetry_space_group_name_H-M	'P 1'

loop_
_symmetry_equiv_pos_as_xyz
  x,y,z

loop_
_atom_site_label
_atom_site_type_symbol
_atom_site_fract_x
_atom_site_fract_y
_atom_site_fract_z
_atom_site_charge
C 	C 	0.84640 0.15970 0.15010 0.48500
C 	C 	0.28940 0.70090 0.29890 -0.12200
C 	C 	0.27550 0.73470 0.81380 0.00700
C 	C 	0.41880 0.04690 0.50790 -0.06200
C 	C 	0.30940 0.31980 0.23530 -0.01400
H 	H 	0.08460 0.64410 0.49220 0.05200
H 	H 	0.86030 0.87070 0.72570 0.05100
H 	H 	0.27980 0.28980 0.13630 -0.01300
O 	O 	0.40290 0.60230 0.66930 -0.52800
O 	O 	0.76500 0.42420 0.49590 -0.65400
O 	O 	0.67270 0.67470 0.59220 -0.64300
C 	C 	0.34640 0.65970 0.65010 0.47300
C 	C 	0.78940 0.20090 0.79890 -0.09100
C 	C 	0.77550 0.23470 0.31380 -0.00000
C 	C 	0.91880 0.54690 0.00790 0.00600
C 	C 	0.80940 0.81980 0.73530 0.00100
H 	H 	0.58460 0.14410 0.99220 0.10300
H 	H 	0.36030 0.37070 0.22570 0.02000
H 	H 	0.77980 0.78980 0.63630 0.04300
O 	O 	0.90290 0.10230 0.16930 -0.53000
O 	O 	0.26500 0.92420 0.99590 -0.46400
O 	O 	0.17270 0.17470 0.09220 -0.73600
C 	C 	0.15360 0.84030 0.15010 0.48600
C 	C 	0.71060 0.29910 0.29890 -0.12100
C 	C 	0.72450 0.26530 0.81380 0.00800
C 	C 	0.58120 0.95310 0.50790 0.07000
C 	C 	0.69060 0.68020 0.23530 -0.00900
H 	H 	0.91540 0.35590 0.49220 0.03000
H 	H 	0.13970 0.12930 0.72570 0.03100
H 	H 	0.72020 0.71020 0.13630 -0.01000
O 	O 	0.59710 0.39770 0.66930 -0.52800
O 	O 	0.23500 0.57580 0.49590 -0.64900
O 	O 	0.32730 0.32530 0.59220 -0.64800
C 	C 	0.65360 0.34030 0.65010 0.47300
C 	C 	0.21060 0.79910 0.79890 -0.09100
C 	C 	0.22450 0.76530 0.31380 -0.00000
C 	C 	0.08120 0.45310 0.00790 -0.01800
C 	C 	0.19060 0.18020 0.73530 -0.00300
H 	H 	0.41540 0.85590 0.99220 0.10100
H 	H 	0.63970 0.62930 0.22570 0.02100
H 	H 	0.22020 0.21020 0.63630 0.03200
O 	O 	0.09710 0.89770 0.16930 -0.53200
O 	O 	0.73500 0.07580 0.99590 -0.49500
O 	O 	0.82730 0.82530 0.09220 -0.72500
C 	C 	0.15970 0.15360 0.84990 0.45200
C 	C 	0.70090 0.71060 0.70110 -0.12100
C 	C 	0.73470 0.72450 0.18620 0.00700
C 	C 	0.04690 0.58120 0.49210 -0.05700
C 	C 	0.31980 0.69060 0.76470 0.02400
H 	H 	0.64410 0.91540 0.50780 0.03000
H 	H 	0.87070 0.13970 0.27430 0.03600
H 	H 	0.28980 0.72020 0.86370 0.09000
O 	O 	0.60230 0.59710 0.33070 -0.53900
O 	O 	0.42420 0.23500 0.50410 -0.65200
O 	O 	0.67470 0.32730 0.40780 -0.64600
C 	C 	0.65970 0.65360 0.34990 0.46900
C 	C 	0.20090 0.21060 0.20110 -0.15400
C 	C 	0.23470 0.22450 0.68620 0.01200
C 	C 	0.54690 0.08120 0.99210 0.03500
C 	C 	0.81980 0.19060 0.26470 0.01100
H 	H 	0.14410 0.41540 0.00780 -0.02500
H 	H 	0.37070 0.63970 0.77430 0.05600
H 	H 	0.78980 0.22020 0.36370 0.04000
O 	O 	0.10230 0.09710 0.83070 -0.53900
O 	O 	0.92420 0.73500 0.00410 -0.76200
O 	O 	0.17470 0.82730 0.90780 -0.54100
C 	C 	0.84030 0.84640 0.84990 0.45000
C 	C 	0.29910 0.28940 0.70110 -0.12400
C 	C 	0.26530 0.27550 0.18620 0.00600
C 	C 	0.95310 0.41880 0.49210 0.07900
C 	C 	0.68020 0.30940 0.76470 0.02400
H 	H 	0.35590 0.08460 0.50780 0.04600
H 	H 	0.12930 0.86030 0.27430 0.03500
H 	H 	0.71020 0.27980 0.86370 0.09000
O 	O 	0.39770 0.40290 0.33070 -0.54100
O 	O 	0.57580 0.76500 0.50410 -0.65500
O 	O 	0.32530 0.67270 0.40780 -0.64600
C 	C 	0.34030 0.34640 0.34990 0.46700
C 	C 	0.79910 0.78940 0.20110 -0.14300
C 	C 	0.76530 0.77550 0.68620 0.02100
C 	C 	0.45310 0.91880 0.99210 0.06400
C 	C 	0.18020 0.80940 0.26470 0.01100
H 	H 	0.85590 0.58460 0.00780 -0.02600
H 	H 	0.62930 0.36030 0.77430 0.05600
H 	H 	0.21020 0.77980 0.36370 0.03900
O 	O 	0.89770 0.90290 0.83070 -0.50100
O 	O 	0.07580 0.26500 0.00410 -0.78300
O 	O 	0.82530 0.17270 0.90780 -0.54000
C 	C 	0.84640 0.84030 0.15010 0.48600
C 	C 	0.28940 0.29910 0.29890 -0.12200
C 	C 	0.27550 0.26530 0.81380 0.00800
C 	C 	0.41880 0.95310 0.50790 0.07300
C 	C 	0.30940 0.68020 0.23530 -0.01100
H 	H 	0.08460 0.35590 0.49220 0.04900
H 	H 	0.86030 0.12930 0.72570 0.04300
H 	H 	0.27980 0.71020 0.13630 -0.01100
O 	O 	0.40290 0.39770 0.66930 -0.52800
O 	O 	0.76500 0.57580 0.49590 -0.65300
O 	O 	0.67270 0.32530 0.59220 -0.64500
C 	C 	0.34640 0.34030 0.65010 0.47200
C 	C 	0.78940 0.79910 0.79890 -0.08700
C 	C 	0.77550 0.76530 0.31380 0.00300
C 	C 	0.91880 0.45310 0.00790 0.01000
C 	C 	0.80940 0.18020 0.73530 -0.00100
H 	H 	0.58460 0.85590 0.99220 0.10200
H 	H 	0.36030 0.62930 0.22570 0.02000
H 	H 	0.77980 0.21020 0.63630 0.03900
O 	O 	0.90290 0.89770 0.16930 -0.51900
O 	O 	0.26500 0.07580 0.99590 -0.49400
O 	O 	0.17270 0.82530 0.09220 -0.72800
C 	C 	0.15360 0.15970 0.15010 0.48700
C 	C 	0.71060 0.70090 0.29890 -0.12000
C 	C 	0.72450 0.73470 0.81380 0.00900
C 	C 	0.58120 0.04690 0.50790 -0.05800
C 	C 	0.69060 0.31980 0.23530 -0.01100
H 	H 	0.91540 0.64410 0.49220 0.03200
H 	H 	0.13970 0.87070 0.72570 0.04400
H 	H 	0.72020 0.28980 0.13630 -0.01100
O 	O 	0.59710 0.60230 0.66930 -0.52700
O 	O 	0.23500 0.42420 0.49590 -0.65000
O 	O 	0.32730 0.67470 0.59220 -0.64500
C 	C 	0.65360 0.65970 0.65010 0.47400
C 	C 	0.21060 0.20090 0.79890 -0.09900
C 	C 	0.22450 0.23470 0.31380 -0.00500
C 	C 	0.08120 0.54690 0.00790 -0.01900
C 	C 	0.19060 0.81980 0.73530 -0.00000
H 	H 	0.41540 0.14410 0.99220 0.10300
H 	H 	0.63970 0.37070 0.22570 0.02000
H 	H 	0.22020 0.78980 0.63630 0.03900
O 	O 	0.09710 0.10230 0.16930 -0.55600
O 	O 	0.73500 0.92420 0.99590 -0.47100
O 	O 	0.82730 0.17470 0.09220 -0.72900
C 	C 	0.15970 0.84640 0.84990 0.45000
C 	C 	0.70090 0.28940 0.70110 -0.12300
C 	C 	0.73470 0.27550 0.18620 0.00600
C 	C 	0.04690 0.41880 0.49210 -0.06100
C 	C 	0.31980 0.30940 0.76470 0.02100
H 	H 	0.64410 0.08460 0.50780 0.05000
H 	H 	0.87070 0.86030 0.27430 0.04300
H 	H 	0.28980 0.27980 0.86370 0.08800
O 	O 	0.60230 0.40290 0.33070 -0.54000
O 	O 	0.42420 0.76500 0.50410 -0.65600
O 	O 	0.67470 0.67270 0.40780 -0.64400
C 	C 	0.65970 0.34640 0.34990 0.46800
C 	C 	0.20090 0.78940 0.20110 -0.14700
C 	C 	0.23470 0.77550 0.68620 0.01800
C 	C 	0.54690 0.91880 0.99210 0.06000
C 	C 	0.81980 0.80940 0.26470 0.01300
H 	H 	0.14410 0.58460 0.00780 -0.02400
H 	H 	0.37070 0.36030 0.77430 0.05500
H 	H 	0.78980 0.77980 0.36370 0.04400
O 	O 	0.10230 0.90290 0.83070 -0.51400
O 	O 	0.92420 0.26500 0.00410 -0.75300
O 	O 	0.17470 0.17270 0.90780 -0.54800
C 	C 	0.84030 0.15360 0.84990 0.45000
C 	C 	0.29910 0.71060 0.70110 -0.12300
C 	C 	0.26530 0.72450 0.18620 0.00600
C 	C 	0.95310 0.58120 0.49210 0.07600
C 	C 	0.68020 0.69060 0.76470 0.02600
H 	H 	0.35590 0.91540 0.50780 0.02800
H 	H 	0.12930 0.13970 0.27430 0.02300
H 	H 	0.71020 0.72020 0.86370 0.09100
O 	O 	0.39770 0.59710 0.33070 -0.54000
O 	O 	0.57580 0.23500 0.50410 -0.65100
O 	O 	0.32530 0.32730 0.40780 -0.64900
C 	C 	0.34030 0.65360 0.34990 0.46800
C 	C 	0.79910 0.21060 0.20110 -0.14600
C 	C 	0.76530 0.22450 0.68620 0.01800
C 	C 	0.45310 0.08120 0.99210 0.03600
C 	C 	0.18020 0.19060 0.26470 0.00900
H 	H 	0.85590 0.41540 0.00780 -0.02600
H 	H 	0.62930 0.63970 0.77430 0.05600
H 	H 	0.21020 0.22020 0.36370 0.03300
O 	O 	0.89770 0.09710 0.83070 -0.51400
O 	O 	0.07580 0.73500 0.00410 -0.78400
O 	O 	0.82530 0.82730 0.90780 -0.53600
C 	C 	0.50000 0.09450 0.50760 -0.08900
C 	C 	-0.00000 0.59450 0.00760 -0.20100
C 	C 	0.50000 0.90550 0.50760 -0.15900
C 	C 	-0.00000 0.40550 0.00760 -0.20200
C 	C 	0.09450 0.50000 0.49240 -0.08400
C 	C 	0.59450 0.00000 0.99240 -0.09300
C 	C 	0.90550 0.50000 0.49240 -0.15700
C 	C 	0.40550 0.00000 0.99240 -0.09400
C 	C 	0.19590 0.50000 0.49440 0.48400
O 	O 	0.39960 0.50000 0.45140 -1.22200
O 	O 	0.36250 0.50000 0.56550 -1.07900
C 	C 	0.69590 0.00000 0.99440 0.45700
O 	O 	0.89960 0.00000 0.95140 -1.08200
O 	O 	0.86250 0.00000 0.06550 -1.18600
C 	C 	0.80410 0.50000 0.49440 0.51400
O 	O 	0.60040 0.50000 0.45140 -1.22200
O 	O 	0.63750 0.50000 0.56550 -1.07900
C 	C 	0.30410 0.00000 0.99440 0.44900
O 	O 	0.10040 0.00000 0.95140 -1.10900
O 	O 	0.13750 0.00000 0.06550 -1.20300
C 	C 	0.50000 0.80410 0.50560 0.51100
O 	O 	0.50000 0.60040 0.54860 -1.22200
O 	O 	0.50000 0.63750 0.43450 -1.07800
C 	C 	-0.00000 0.30410 0.00560 0.46800
O 	O 	-0.00000 0.10040 0.04860 -1.34700
O 	O 	0.00000 0.13750 0.93450 -0.96000
C 	C 	0.50000 0.19590 0.50560 0.48300
O 	O 	0.50000 0.39960 0.54860 -1.22200
O 	O 	0.50000 0.36250 0.43450 -1.07800
C 	C 	0.00000 0.69590 0.00560 0.47700
O 	O 	-0.00000 0.89960 0.04860 -1.32200
O 	O 	-0.00000 0.86250 0.93450 -0.94300
Ce	Ce	0.00000 0.00000 0.87590 2.21800
Ce	Ce	0.50000 0.50000 0.37590 2.24600
Ce	Ce	0.00000 0.00000 0.12410 2.22600
Ce	Ce	0.50000 0.50000 0.62410 2.24900
H 	H 	-0.00000 0.80760 0.90980 0.32300
H 	H 	0.50000 0.30760 0.40980 0.27600
H 	H 	-0.00000 0.19240 0.90980 0.32400
H 	H 	0.50000 0.69240 0.40980 0.27800
H 	H 	0.80760 0.00000 0.09020 0.21900
H 	H 	0.30760 0.50000 0.59020 0.28300
H 	H 	0.19240 0.00000 0.09020 0.22000
H 	H 	0.69240 0.50000 0.59020 0.28500
Zr	Zr	0.38010 0.38010 0.50000 3.21200
Zr	Zr	0.88010 0.88010 -0.00000 3.16700
Zr	Zr	0.61990 0.61990 0.50000 3.21200
Zr	Zr	0.11990 0.11990 -0.00000 3.16400
Zr	Zr	0.38010 0.61990 0.50000 3.21200
Zr	Zr	0.88010 0.11990 -0.00000 3.16600
Zr	Zr	0.61990 0.38010 0.50000 3.21200
Zr	Zr	0.11990 0.88010 -0.00000 3.16600
