data_crystal

_cell_length_a 8.79700
_cell_length_b 13.65400
_cell_length_c 18.42000
_cell_angle_alpha 82.25600
_cell_angle_beta  83.82800
_cell_angle_gamma 73.18600

_symmetry_space_group_name_	'P 1'
_symmetry_space_group_name_H-M	'P 1'

loop_
_symmetry_equiv_pos_as_xyz
  x,y,z

loop_
_atom_site_label
_atom_site_type_symbol
_atom_site_fract_x
_atom_site_fract_y
_atom_site_fract_z
_atom_site_charge
Ag	Ag	0.03460 0.09610 0.02120 0.75000
Ag	Ag	0.94760 0.11530 0.03270 -0.20000
Ag	Ag	0.63521 0.55725 0.84913 0.92000
Si	Si	0.84280 0.39520 0.60893 27.86500
Si	Si	0.51750 0.35681 0.64927 -9.94600
Si	Si	0.67750 0.13720 0.60373 35.54400
O 	O 	0.66390 0.40290 0.64840 -7.37600
O 	O 	0.57650 0.23650 0.64170 -9.37200
O 	O 	0.78480 0.16820 0.53460 -56.20200
O 	O 	0.86380 0.34490 0.53320 -55.55300
C 	C 	0.86880 0.52300 0.58910 -14.94000
H 	H 	0.85630 0.55440 0.63500 1.14300
H 	H 	0.97550 0.51860 0.56550 3.15300
H 	H 	0.78880 0.56520 0.55610 2.09500
C 	C 	0.38850 0.42070 0.57260 26.19300
H 	H 	0.29940 0.39060 0.57470 -10.01200
H 	H 	0.34720 0.49450 0.57730 -18.93700
H 	H 	0.45120 0.41060 0.52550 -19.14800
C 	C 	0.54330 0.07200 0.57400 -23.96500
H 	H 	0.60610 0.01110 0.55070 7.78000
H 	H 	0.47880 0.05090 0.61670 6.92500
H 	H 	0.47320 0.11910 0.53870 6.39500
C 	C 	0.10590 0.16590 0.49430 -130.30900
H 	H 	0.12270 0.10370 0.47000 41.91100
H 	H 	0.17270 0.20780 0.46840 40.25000
H 	H 	0.13450 0.14660 0.54530 34.63600
C 	C 	0.98830 0.31160 0.67270 -14.83400
H 	H 	0.09760 0.29630 0.65570 3.06100
C 	C 	0.95450 0.27240 0.73770 8.35900
H 	H 	0.84400 0.28380 0.75110 -3.43600
C 	C 	0.05800 0.21360 0.79370 -4.89100
C 	C 	0.00100 0.19430 0.86290 2.42500
H 	H 	0.88970 0.21770 0.87470 -0.91000
N 	N 	0.10600 0.13780 0.92150 -0.84300
C 	C 	0.25800 0.10510 0.90010 1.10300
H 	H 	0.32790 0.06560 0.93590 -0.40900
C 	C 	0.32300 0.12290 0.83190 -2.15100
H 	H 	0.43460 0.09890 0.82120 0.57700
C 	C 	0.22500 0.17620 0.77830 2.81300
H 	H 	0.27010 0.18840 0.72980 -1.78100
C 	C 	0.40330 0.37120 0.73880 1.47200
H 	H 	0.45660 0.34020 0.78180 -0.65100
C 	C 	0.25660 0.42070 0.74610 -0.90400
H 	H 	0.21080 0.45730 0.70250 -3.38000
C 	C 	0.14870 0.42840 0.81330 -1.81600
C 	C 	0.98720 0.47480 0.80960 0.70000
H 	H 	0.95060 0.50370 0.76260 -2.77500
N 	N 	0.88020 0.48230 0.86560 -0.51700
C 	C 	0.93530 0.43840 0.93110 -0.13900
H 	H 	0.86040 0.44140 0.97250 0.30100
C 	C 	0.09070 0.39020 0.94210 -0.30500
H 	H 	0.12330 0.36140 0.98970 -0.43400
C 	C 	0.20050 0.38430 0.88160 0.55900
H 	H 	0.31000 0.35040 0.88710 -0.28600
C 	C 	0.80930 0.06030 0.68050 -19.30700
H 	H 	0.75580 0.04850 0.72710 6.20000
C 	C 	0.95460 0.02490 0.67640 16.52400
H 	H 	0.00740 0.03170 0.62900 -6.29100
C 	C 	0.05250 0.97490 0.73430 -8.33000
C 	C 	0.99450 0.96200 0.81010 4.36900
H 	H 	0.88390 0.98560 0.82370 -1.56100
N 	N 	0.10400 0.91390 0.86420 -1.23400
C 	C 	0.25000 0.88990 0.83970 1.42700
H 	H 	0.32340 0.86240 0.87660 -0.29200
C 	C 	0.31800 0.89700 0.77130 -0.23600
H 	H 	0.42950 0.87310 0.76030 3.74600
C 	C 	0.21270 0.94170 0.71800 7.96300
H 	H 	0.25320 0.94970 0.66830 4.17500
Si	Si	0.89610 0.24030 0.49299 209.16800
C 	C 	0.79200 0.27600 0.40370 1.90400
H 	H 	0.67920 0.29440 0.40480 700.00800
C 	C 	0.87500 0.27500 0.34290 563.53700
H 	H 	0.98770 0.25150 0.34270 -200.63700
C 	C 	0.90100 0.27780 0.39180 -437.69600
H 	H 	0.99150 0.29150 0.36390 170.02000
C 	C 	0.77200 0.28300 0.36330 -127.99200
H 	H 	0.67780 0.27410 0.38970 -660.79000
C 	C 	0.79770 0.31050 0.26990 -188.42400
C 	C 	0.64280 0.35430 0.25100 108.51900
H 	H 	0.56020 0.36460 0.28930 -26.38600
N 	N 	0.60280 0.38330 0.18110 -25.10600
C 	C 	0.72610 0.36760 0.12880 35.93100
H 	H 	0.70220 0.38710 0.07890 -11.65200
C 	C 	0.88300 0.32520 0.14330 -62.48800
H 	H 	0.96440 0.31530 0.10440 20.86600
C 	C 	0.91990 0.29720 0.21600 102.33300
H 	H 	0.02740 0.26950 0.22810 -38.77500
Ag	Ag	0.96540 0.90390 0.97880 0.74900
Ag	Ag	0.05240 0.88470 0.96730 -0.20100
Ag	Ag	0.36479 0.44275 0.15087 0.92000
Si	Si	0.15720 0.60480 0.39107 27.86500
Si	Si	0.48250 0.64319 0.35073 -9.94600
Si	Si	0.32250 0.86280 0.39627 35.54400
O 	O 	0.33610 0.59710 0.35160 -7.37600
O 	O 	0.42350 0.76350 0.35830 -9.37200
O 	O 	0.21520 0.83180 0.46540 -56.20200
O 	O 	0.13620 0.65510 0.46680 -55.55300
C 	C 	0.13120 0.47700 0.41090 -14.94000
H 	H 	0.14370 0.44560 0.36500 1.14300
H 	H 	0.02450 0.48140 0.43450 3.15300
H 	H 	0.21120 0.43480 0.44390 2.09500
C 	C 	0.61150 0.57930 0.42740 26.19300
H 	H 	0.70060 0.60940 0.42530 -10.01200
H 	H 	0.65280 0.50550 0.42270 -18.93700
H 	H 	0.54880 0.58940 0.47450 -19.14800
C 	C 	0.45670 0.92800 0.42600 -23.96500
H 	H 	0.39390 0.98890 0.44930 7.78000
H 	H 	0.52120 0.94910 0.38330 6.92500
H 	H 	0.52680 0.88090 0.46130 6.39500
C 	C 	0.89410 0.83410 0.50570 -130.30900
H 	H 	0.87730 0.89630 0.53000 41.91100
H 	H 	0.82730 0.79220 0.53160 40.25000
H 	H 	0.86550 0.85340 0.45470 34.63600
C 	C 	0.01170 0.68840 0.32730 -14.83400
H 	H 	0.90240 0.70370 0.34430 3.06100
C 	C 	0.04550 0.72760 0.26230 8.35900
H 	H 	0.15600 0.71620 0.24890 -3.43600
C 	C 	0.94200 0.78640 0.20630 -4.89100
C 	C 	0.99900 0.80570 0.13710 2.42500
H 	H 	0.11030 0.78230 0.12530 -0.91000
N 	N 	0.89400 0.86220 0.07850 -0.84300
C 	C 	0.74200 0.89490 0.09990 1.10300
H 	H 	0.67210 0.93440 0.06410 -0.40900
C 	C 	0.67700 0.87710 0.16810 -2.15100
H 	H 	0.56540 0.90110 0.17880 0.57700
C 	C 	0.77500 0.82380 0.22170 2.81300
H 	H 	0.72990 0.81160 0.27020 -1.78100
C 	C 	0.59670 0.62880 0.26120 1.47200
H 	H 	0.54340 0.65980 0.21820 -0.65100
C 	C 	0.74340 0.57930 0.25390 -0.90400
H 	H 	0.78920 0.54270 0.29750 -3.38000
C 	C 	0.85130 0.57160 0.18670 -1.81600
C 	C 	0.01280 0.52520 0.19040 0.70000
H 	H 	0.04940 0.49630 0.23740 -2.77500
N 	N 	0.11980 0.51770 0.13440 -0.51700
C 	C 	0.06470 0.56160 0.06890 -0.13900
H 	H 	0.13960 0.55860 0.02750 0.30100
C 	C 	0.90930 0.60980 0.05790 -0.30500
H 	H 	0.87670 0.63860 0.01030 -0.43400
C 	C 	0.79950 0.61570 0.11840 0.55900
H 	H 	0.69000 0.64960 0.11290 -0.28600
C 	C 	0.19070 0.93970 0.31950 -19.30700
H 	H 	0.24420 0.95150 0.27290 6.20000
C 	C 	0.04540 0.97510 0.32360 16.52400
H 	H 	0.99260 0.96830 0.37100 -6.29100
C 	C 	0.94750 0.02510 0.26570 -8.33000
C 	C 	0.00550 0.03800 0.18990 4.36900
H 	H 	0.11610 0.01440 0.17630 -1.56100
N 	N 	0.89600 0.08610 0.13580 -1.23400
C 	C 	0.75000 0.11010 0.16030 1.42700
H 	H 	0.67660 0.13760 0.12340 -0.29200
C 	C 	0.68200 0.10300 0.22870 -0.23600
H 	H 	0.57050 0.12690 0.23970 3.74600
C 	C 	0.78730 0.05830 0.28200 7.96300
H 	H 	0.74680 0.05030 0.33170 4.17500
Si	Si	0.10390 0.75970 0.50701 209.16800
C 	C 	0.20800 0.72400 0.59630 1.90400
H 	H 	0.32080 0.70560 0.59520 700.00800
C 	C 	0.12500 0.72500 0.65710 563.53700
H 	H 	0.01230 0.74850 0.65730 -200.63700
C 	C 	0.09900 0.72220 0.60820 -437.69600
H 	H 	0.00850 0.70850 0.63610 170.02000
C 	C 	0.22800 0.71700 0.63670 -127.99200
H 	H 	0.32220 0.72590 0.61030 -660.79000
C 	C 	0.20230 0.68950 0.73010 -188.42400
C 	C 	0.35720 0.64570 0.74900 108.51900
H 	H 	0.43980 0.63540 0.71070 -26.38600
N 	N 	0.39720 0.61670 0.81890 -25.10600
C 	C 	0.27390 0.63240 0.87120 35.93100
H 	H 	0.29780 0.61290 0.92110 -11.65200
C 	C 	0.11700 0.67480 0.85670 -62.48800
H 	H 	0.03560 0.68470 0.89560 20.86600
C 	C 	0.08010 0.70280 0.78400 102.33300
H 	H 	0.97260 0.73050 0.77190 -38.77500
