data_crystal

_cell_length_a 18.63450
_cell_length_b 18.63450
_cell_length_c 21.56300
_cell_angle_alpha 90.00000
_cell_angle_beta  90.00000
_cell_angle_gamma 120.00000

_symmetry_space_group_name_	'P 1'
_symmetry_space_group_name_H-M	'P 1'

loop_
_symmetry_equiv_pos_as_xyz
  x,y,z

loop_
_atom_site_label
_atom_site_type_symbol
_atom_site_fract_x
_atom_site_fract_y
_atom_site_fract_z
_atom_site_charge
O 	O 	0.76290 0.64390 0.30380 -0.35400
C 	C 	0.70390 0.60000 0.34200 0.30300
O 	O 	0.66460 0.52690 0.33970 -0.32300
C 	C 	0.68730 0.64990 0.39020 -0.01200
C 	C 	0.62490 0.60980 0.43399 -0.07500
H 	H 	0.59370 0.55230 0.43450 0.07300
C 	C 	0.60910 0.65580 0.47702 0.05600
N 	N 	0.65570 0.74180 0.47630 -0.11200
C 	C 	0.71820 0.78190 0.43250 0.04200
H 	H 	0.74940 0.83940 0.43210 0.03300
C 	C 	0.73390 0.73590 0.38950 -0.06700
H 	H 	0.77570 0.76270 0.36020 0.08200
C 	C 	0.41910 0.54260 0.61610 -0.10200
C 	C 	0.50120 0.52980 0.53740 -0.11900
H 	H 	0.51340 0.49520 0.51430 0.08900
C 	C 	0.54360 0.61670 0.52450 0.06100
C 	C 	0.45660 0.62860 0.60140 0.03600
H 	H 	0.43990 0.66190 0.62150 0.04200
C 	C 	0.51930 0.66220 0.55590 -0.10600
H 	H 	0.54470 0.71860 0.54750 0.08200
O 	O 	0.31470 0.43230 0.67200 -0.32700
C 	C 	0.35360 0.50830 0.66380 0.33500
C 	C 	0.44420 0.49780 0.58210 0.05600
H 	H 	0.42030 0.44150 0.59050 0.04100
O 	O 	0.33670 0.55520 0.69260 -0.36500
O 	O 	0.23710 0.35610 0.80380 -0.35300
C 	C 	0.29610 0.40000 0.84200 0.30400
O 	O 	0.33540 0.47310 0.83970 -0.32200
C 	C 	0.31270 0.35010 0.89020 -0.01100
C 	C 	0.37510 0.39020 0.93399 -0.07400
H 	H 	0.40630 0.44770 0.93450 0.07400
C 	C 	0.39090 0.34420 0.97702 0.05700
N 	N 	0.34430 0.25820 0.97630 -0.11200
C 	C 	0.28180 0.21810 0.93250 0.04200
H 	H 	0.25060 0.16060 0.93210 0.03300
C 	C 	0.26610 0.26410 0.88950 -0.06700
H 	H 	0.22430 0.23730 0.86020 0.08200
C 	C 	0.58090 0.45740 0.11610 -0.10200
C 	C 	0.49880 0.47020 0.03740 -0.11900
H 	H 	0.48660 0.50480 0.01430 0.08900
C 	C 	0.45640 0.38330 0.02450 0.06000
C 	C 	0.54340 0.37140 0.10140 0.03500
H 	H 	0.56010 0.33810 0.12150 0.04200
C 	C 	0.48070 0.33780 0.05590 -0.10600
H 	H 	0.45530 0.28140 0.04750 0.08200
O 	O 	0.68530 0.56770 0.17200 -0.32700
C 	C 	0.64640 0.49170 0.16380 0.33500
C 	C 	0.55580 0.50220 0.08210 0.05600
H 	H 	0.57970 0.55850 0.09050 0.04100
O 	O 	0.66330 0.44480 0.19260 -0.36500
O 	O 	0.11900 0.35610 0.69620 -0.35300
C 	C 	0.10390 0.40000 0.65800 0.30400
O 	O 	0.13770 0.47310 0.66030 -0.32200
C 	C 	0.03740 0.35010 0.60980 -0.01100
C 	C 	0.01510 0.39020 0.56601 -0.07400
H 	H 	0.04140 0.44770 0.56550 0.07400
C 	C 	0.95330 0.34420 0.52298 0.05700
N 	N 	0.91390 0.25820 0.52370 -0.11200
C 	C 	0.93630 0.21810 0.56750 0.04200
H 	H 	0.91000 0.16060 0.56790 0.03300
C 	C 	0.99800 0.26410 0.61050 -0.06600
H 	H 	0.01300 0.23730 0.63980 0.08200
C 	C 	0.87650 0.45740 0.38390 -0.10200
C 	C 	0.97140 0.47020 0.46260 -0.11900
H 	H 	0.01820 0.50480 0.48570 0.08800
C 	C 	0.92690 0.38330 0.47550 0.06100
C 	C 	0.82800 0.37140 0.39860 0.03500
H 	H 	0.77800 0.33810 0.37850 0.04200
C 	C 	0.85710 0.33780 0.44410 -0.10600
H 	H 	0.82610 0.28140 0.45250 0.08200
O 	O 	0.88240 0.56770 0.32800 -0.32700
C 	C 	0.84530 0.49170 0.33620 0.33500
C 	C 	0.94640 0.50220 0.41790 0.05600
H 	H 	0.97880 0.55850 0.40950 0.04100
O 	O 	0.78150 0.44480 0.30740 -0.36500
O 	O 	0.88100 0.64390 0.19620 -0.35300
C 	C 	0.89610 0.60000 0.15800 0.30400
O 	O 	0.86230 0.52690 0.16030 -0.32200
C 	C 	0.96260 0.64990 0.10980 -0.01100
C 	C 	0.98490 0.60980 0.06601 -0.07500
H 	H 	0.95860 0.55230 0.06550 0.07400
C 	C 	0.04670 0.65580 0.02298 0.05800
N 	N 	0.08610 0.74180 0.02370 -0.11100
C 	C 	0.06370 0.78190 0.06750 0.04200
H 	H 	0.09000 0.83940 0.06790 0.03300
C 	C 	0.00200 0.73590 0.11050 -0.06600
H 	H 	0.98700 0.76270 0.13980 0.08200
C 	C 	0.12350 0.54260 0.88390 -0.10200
C 	C 	0.02860 0.52980 0.96260 -0.12000
H 	H 	0.98180 0.49520 0.98570 0.09000
C 	C 	0.07310 0.61670 0.97550 0.06000
C 	C 	0.17200 0.62860 0.89860 0.03600
H 	H 	0.22200 0.66190 0.87850 0.04200
C 	C 	0.14290 0.66220 0.94410 -0.10600
H 	H 	0.17390 0.71860 0.95250 0.08100
O 	O 	0.11760 0.43230 0.82800 -0.32700
C 	C 	0.15470 0.50830 0.83620 0.33500
C 	C 	0.05360 0.49780 0.91790 0.05700
H 	H 	0.02120 0.44150 0.90950 0.04100
O 	O 	0.21850 0.55520 0.80740 -0.36500
Cd	Cd	0.77262 0.54524 0.25000 1.25000
Cd	Cd	0.22738 0.45476 0.75000 1.25000
O 	O 	0.35610 0.11900 0.63713 -0.35200
C 	C 	0.40000 0.10390 0.67533 0.30400
O 	O 	0.47310 0.13770 0.67303 -0.32200
C 	C 	0.35010 0.03740 0.72353 -0.01000
C 	C 	0.39020 0.01510 0.76732 -0.07300
H 	H 	0.44770 0.04140 0.76783 0.07400
C 	C 	0.34420 0.95330 0.81035 0.05500
N 	N 	0.25820 0.91390 0.80963 -0.11200
C 	C 	0.21810 0.93630 0.76583 0.04300
H 	H 	0.16060 0.91000 0.76543 0.03200
C 	C 	0.26410 0.99800 0.72283 -0.06900
H 	H 	0.23730 0.01300 0.69353 0.08300
C 	C 	0.45740 0.87650 0.94943 -0.10200
C 	C 	0.47020 0.97140 0.87073 -0.12200
H 	H 	0.50480 0.01820 0.84763 0.09000
C 	C 	0.38330 0.92690 0.85783 0.06200
C 	C 	0.37140 0.82800 0.93473 0.03600
H 	H 	0.33810 0.77800 0.95483 0.04100
C 	C 	0.33780 0.85710 0.88923 -0.10700
H 	H 	0.28140 0.82610 0.88083 0.08200
O 	O 	0.56770 0.88240 0.00533 -0.32500
C 	C 	0.49170 0.84530 0.99713 0.33300
C 	C 	0.50220 0.94640 0.91543 0.05700
H 	H 	0.55850 0.97880 0.92383 0.04000
O 	O 	0.44480 0.78150 0.02593 -0.36400
O 	O 	0.64390 0.88100 0.13713 -0.35200
C 	C 	0.60000 0.89610 0.17533 0.30400
O 	O 	0.52690 0.86230 0.17303 -0.32200
C 	C 	0.64990 0.96260 0.22353 -0.00900
C 	C 	0.60980 0.98490 0.26732 -0.07400
H 	H 	0.55230 0.95860 0.26783 0.07400
C 	C 	0.65580 0.04670 0.31035 0.05600
N 	N 	0.74180 0.08610 0.30963 -0.11200
C 	C 	0.78190 0.06370 0.26583 0.04300
H 	H 	0.83940 0.09000 0.26543 0.03200
C 	C 	0.73590 0.00200 0.22283 -0.07000
H 	H 	0.76270 0.98700 0.19353 0.08400
C 	C 	0.54260 0.12350 0.44943 -0.10200
C 	C 	0.52980 0.02860 0.37073 -0.12000
H 	H 	0.49520 0.98180 0.34763 0.08900
C 	C 	0.61670 0.07310 0.35783 0.06100
C 	C 	0.62860 0.17200 0.43473 0.03600
H 	H 	0.66190 0.22200 0.45483 0.04200
C 	C 	0.66220 0.14290 0.38923 -0.10600
H 	H 	0.71860 0.17390 0.38083 0.08200
O 	O 	0.43230 0.11760 0.50533 -0.32700
C 	C 	0.50830 0.15470 0.49713 0.33600
C 	C 	0.49780 0.05360 0.41543 0.05700
H 	H 	0.44150 0.02120 0.42383 0.04100
O 	O 	0.55520 0.21850 0.52593 -0.36500
O 	O 	0.64390 0.76290 0.02953 -0.35200
C 	C 	0.60000 0.70390 0.99133 0.30400
O 	O 	0.52690 0.66460 0.99363 -0.32200
C 	C 	0.64990 0.68730 0.94313 -0.01000
C 	C 	0.60980 0.62490 0.89934 -0.07400
H 	H 	0.55230 0.59370 0.89883 0.07400
C 	C 	0.65580 0.60910 0.85631 0.05600
N 	N 	0.74180 0.65570 0.85703 -0.11200
C 	C 	0.78190 0.71820 0.90083 0.04200
H 	H 	0.83940 0.74940 0.90123 0.03300
C 	C 	0.73590 0.73390 0.94383 -0.06800
H 	H 	0.76270 0.77570 0.97313 0.08200
C 	C 	0.54260 0.41910 0.71723 -0.10200
C 	C 	0.52980 0.50120 0.79593 -0.11900
H 	H 	0.49520 0.51340 0.81903 0.08900
C 	C 	0.61670 0.54360 0.80883 0.06100
C 	C 	0.62860 0.45660 0.73193 0.03600
H 	H 	0.66190 0.43990 0.71183 0.04200
C 	C 	0.66220 0.51930 0.77743 -0.10600
H 	H 	0.71860 0.54470 0.78583 0.08200
O 	O 	0.43230 0.31470 0.66133 -0.32700
C 	C 	0.50830 0.35360 0.66953 0.33500
C 	C 	0.49780 0.44420 0.75123 0.05600
H 	H 	0.44150 0.42030 0.74283 0.04100
O 	O 	0.55520 0.33670 0.64073 -0.36500
O 	O 	0.35610 0.23710 0.52953 -0.35300
C 	C 	0.40000 0.29610 0.49133 0.30400
O 	O 	0.47310 0.33540 0.49363 -0.32200
C 	C 	0.35010 0.31270 0.44313 -0.01100
C 	C 	0.39020 0.37510 0.39934 -0.07400
H 	H 	0.44770 0.40630 0.39883 0.07400
C 	C 	0.34420 0.39090 0.35631 0.05600
N 	N 	0.25820 0.34430 0.35703 -0.11200
C 	C 	0.21810 0.28180 0.40083 0.04200
H 	H 	0.16060 0.25060 0.40123 0.03300
C 	C 	0.26410 0.26610 0.44383 -0.06700
H 	H 	0.23730 0.22430 0.47313 0.08200
C 	C 	0.45740 0.58090 0.21723 -0.10200
C 	C 	0.47020 0.49880 0.29593 -0.11900
H 	H 	0.50480 0.48660 0.31903 0.08900
C 	C 	0.38330 0.45640 0.30883 0.06100
C 	C 	0.37140 0.54340 0.23193 0.03600
H 	H 	0.33810 0.56010 0.21183 0.04200
C 	C 	0.33780 0.48070 0.27743 -0.10600
H 	H 	0.28140 0.45530 0.28583 0.08200
O 	O 	0.56770 0.68530 0.16133 -0.32700
C 	C 	0.49170 0.64640 0.16953 0.33500
C 	C 	0.50220 0.55580 0.25123 0.05600
H 	H 	0.55850 0.57970 0.24283 0.04100
O 	O 	0.44480 0.66330 0.14073 -0.36500
Cd	Cd	0.45476 0.22738 0.58333 1.25000
Cd	Cd	0.54524 0.77262 0.08333 1.25000
O 	O 	0.88100 0.23710 0.97047 -0.35200
C 	C 	0.89610 0.29610 0.00867 0.30300
O 	O 	0.86230 0.33540 0.00637 -0.32200
C 	C 	0.96260 0.31270 0.05687 -0.01100
C 	C 	0.98490 0.37510 0.10066 -0.07500
H 	H 	0.95860 0.40630 0.10117 0.07400
C 	C 	0.04670 0.39090 0.14369 0.05700
N 	N 	0.08610 0.34430 0.14297 -0.11200
C 	C 	0.06370 0.28180 0.09917 0.04100
H 	H 	0.09000 0.25060 0.09877 0.03300
C 	C 	0.00200 0.26610 0.05617 -0.06600
H 	H 	0.98700 0.22430 0.02687 0.08100
C 	C 	0.12350 0.58090 0.28277 -0.10100
C 	C 	0.02860 0.49880 0.20407 -0.11800
H 	H 	0.98180 0.48660 0.18097 0.08800
C 	C 	0.07310 0.45640 0.19117 0.06000
C 	C 	0.17200 0.54340 0.26807 0.03500
H 	H 	0.22200 0.56010 0.28817 0.04200
C 	C 	0.14290 0.48070 0.22257 -0.10500
H 	H 	0.17390 0.45530 0.21417 0.08200
O 	O 	0.11760 0.68530 0.33867 -0.32700
C 	C 	0.15470 0.64640 0.33047 0.33500
C 	C 	0.05360 0.55580 0.24877 0.05500
H 	H 	0.02120 0.57970 0.25717 0.04100
O 	O 	0.21850 0.66330 0.35927 -0.36500
O 	O 	0.11900 0.76290 0.47047 -0.35300
C 	C 	0.10390 0.70390 0.50867 0.30400
O 	O 	0.13770 0.66460 0.50637 -0.32200
C 	C 	0.03740 0.68730 0.55687 -0.01100
C 	C 	0.01510 0.62490 0.60066 -0.07500
H 	H 	0.04140 0.59370 0.60117 0.07400
C 	C 	0.95330 0.60910 0.64369 0.05700
N 	N 	0.91390 0.65570 0.64297 -0.11200
C 	C 	0.93630 0.71820 0.59917 0.04200
H 	H 	0.91000 0.74940 0.59877 0.03300
C 	C 	0.99800 0.73390 0.55617 -0.06700
H 	H 	0.01300 0.77570 0.52687 0.08200
C 	C 	0.87650 0.41910 0.78277 -0.10100
C 	C 	0.97140 0.50120 0.70407 -0.11700
H 	H 	0.01820 0.51340 0.68097 0.08800
C 	C 	0.92690 0.54360 0.69117 0.06000
C 	C 	0.82800 0.45660 0.76807 0.03500
H 	H 	0.77800 0.43990 0.78817 0.04200
C 	C 	0.85710 0.51930 0.72257 -0.10500
H 	H 	0.82610 0.54470 0.71417 0.08200
O 	O 	0.88240 0.31470 0.83867 -0.32700
C 	C 	0.84530 0.35360 0.83047 0.33500
C 	C 	0.94640 0.44420 0.74877 0.05500
H 	H 	0.97880 0.42030 0.75717 0.04200
O 	O 	0.78150 0.33670 0.85927 -0.36500
O 	O 	0.23710 0.88100 0.36287 -0.35200
C 	C 	0.29610 0.89610 0.32467 0.30400
O 	O 	0.33540 0.86230 0.32697 -0.32200
C 	C 	0.31270 0.96260 0.27647 -0.01000
C 	C 	0.37510 0.98490 0.23268 -0.07300
H 	H 	0.40630 0.95860 0.23217 0.07400
C 	C 	0.39090 0.04670 0.18965 0.05500
N 	N 	0.34430 0.08610 0.19037 -0.11200
C 	C 	0.28180 0.06370 0.23417 0.04300
H 	H 	0.25060 0.09000 0.23457 0.03200
C 	C 	0.26610 0.00200 0.27717 -0.06900
H 	H 	0.22430 0.98700 0.30647 0.08300
C 	C 	0.58090 0.12350 0.05057 -0.10200
C 	C 	0.49880 0.02860 0.12927 -0.12200
H 	H 	0.48660 0.98180 0.15237 0.09000
C 	C 	0.45640 0.07310 0.14217 0.06200
C 	C 	0.54340 0.17200 0.06527 0.03600
H 	H 	0.56010 0.22200 0.04517 0.04200
C 	C 	0.48070 0.14290 0.11077 -0.10700
H 	H 	0.45530 0.17390 0.11917 0.08200
O 	O 	0.68530 0.11760 0.99467 -0.32500
C 	C 	0.64640 0.15470 0.00287 0.33300
C 	C 	0.55580 0.05360 0.08457 0.05700
H 	H 	0.57970 0.02120 0.07617 0.04000
O 	O 	0.66330 0.21850 0.97407 -0.36400
O 	O 	0.76290 0.11900 0.86287 -0.35200
C 	C 	0.70390 0.10390 0.82467 0.30400
O 	O 	0.66460 0.13770 0.82697 -0.32200
C 	C 	0.68730 0.03740 0.77647 -0.00900
C 	C 	0.62490 0.01510 0.73268 -0.07400
H 	H 	0.59370 0.04140 0.73217 0.07400
C 	C 	0.60910 0.95330 0.68965 0.05600
N 	N 	0.65570 0.91390 0.69037 -0.11200
C 	C 	0.71820 0.93630 0.73417 0.04300
H 	H 	0.74940 0.91000 0.73457 0.03200
C 	C 	0.73390 0.99800 0.77717 -0.07000
H 	H 	0.77570 0.01300 0.80647 0.08400
C 	C 	0.41910 0.87650 0.55057 -0.10200
C 	C 	0.50120 0.97140 0.62927 -0.12000
H 	H 	0.51340 0.01820 0.65237 0.08900
C 	C 	0.54360 0.92690 0.64217 0.06100
C 	C 	0.45660 0.82800 0.56527 0.03600
H 	H 	0.43990 0.77800 0.54517 0.04200
C 	C 	0.51930 0.85710 0.61077 -0.10600
H 	H 	0.54470 0.82610 0.61917 0.08200
O 	O 	0.31470 0.88240 0.49467 -0.32700
C 	C 	0.35360 0.84530 0.50287 0.33600
C 	C 	0.44420 0.94640 0.58457 0.05700
H 	H 	0.42030 0.97880 0.57617 0.04100
O 	O 	0.33670 0.78150 0.47407 -0.36500
Cd	Cd	0.77262 0.22738 0.91667 1.25000
Cd	Cd	0.22738 0.77262 0.41667 1.25000
