data_crystal

_cell_length_a 9.13700
_cell_length_b 15.43810
_cell_length_c 10.66890
_cell_angle_alpha 90.00000
_cell_angle_beta  103.54400
_cell_angle_gamma 90.00000

_symmetry_space_group_name_	'P 1'
_symmetry_space_group_name_H-M	'P 1'

loop_
_symmetry_equiv_pos_as_xyz
  x,y,z

loop_
_atom_site_label
_atom_site_type_symbol
_atom_site_fract_x
_atom_site_fract_y
_atom_site_fract_z
_atom_site_charge
Ni	Ni	0.13164 0.10083 0.46740 0.95300
N 	N 	0.92920 0.05905 0.35550 -0.26400
N 	N 	0.84960 0.99113 0.39330 -0.27100
N 	N 	0.71420 0.04694 0.21640 -0.12800
N 	N 	0.58870 0.05670 0.11330 -0.21900
H 	H 	0.61610 0.04830 0.03940 0.08700
H 	H 	0.55240 0.11000 0.11490 0.07700
N 	N 	0.61030 0.92847 0.31290 -0.20500
H 	H 	0.52060 0.93150 0.26490 0.08700
N 	N 	0.65930 0.86261 0.40720 -0.30600
H 	H 	0.67060 0.81230 0.36780 0.04200
H 	H 	0.58960 0.85470 0.45330 0.04600
C 	C 	0.72100 0.98570 0.30760 0.11100
C 	C 	0.84570 0.09130 0.24950 0.05100
H 	H 	0.87230 0.13760 0.20370 -0.06300
Ni	Ni	0.86836 0.89917 0.53260 0.95200
N 	N 	0.07080 0.94095 0.64450 -0.26500
N 	N 	0.15040 0.00887 0.60670 -0.27100
N 	N 	0.28580 0.95306 0.78360 -0.12800
N 	N 	0.41130 0.94330 0.88670 -0.21900
H 	H 	0.38390 0.95170 0.96060 0.08700
H 	H 	0.44760 0.89000 0.88510 0.07700
N 	N 	0.38970 0.07153 0.68710 -0.20500
H 	H 	0.47940 0.06850 0.73510 0.08700
N 	N 	0.34070 0.13739 0.59280 -0.30600
H 	H 	0.32940 0.18770 0.63220 0.04200
H 	H 	0.41040 0.14530 0.54670 0.04600
C 	C 	0.27900 0.01430 0.69240 0.11100
C 	C 	0.15430 0.90870 0.75050 0.05100
H 	H 	0.12770 0.86240 0.79630 -0.06300
Ni	Ni	0.86836 0.60083 0.03260 0.95000
N 	N 	0.07080 0.55905 0.14450 -0.26500
N 	N 	0.15040 0.49113 0.10670 -0.26800
N 	N 	0.28580 0.54694 0.28360 -0.12900
N 	N 	0.41130 0.55670 0.38670 -0.21900
H 	H 	0.38390 0.54830 0.46060 0.08700
H 	H 	0.44760 0.61000 0.38510 0.07700
N 	N 	0.38970 0.42847 0.18710 -0.20600
H 	H 	0.47940 0.43150 0.23510 0.08800
N 	N 	0.34070 0.36261 0.09280 -0.30500
H 	H 	0.32940 0.31230 0.13220 0.04300
H 	H 	0.41040 0.35470 0.04670 0.04600
C 	C 	0.27900 0.48570 0.19240 0.11500
C 	C 	0.15430 0.59130 0.25050 0.05100
H 	H 	0.12770 0.63760 0.29630 -0.06200
Ni	Ni	0.13164 0.39917 0.96740 0.95000
N 	N 	0.92920 0.44095 0.85550 -0.26500
N 	N 	0.84960 0.50887 0.89330 -0.26800
N 	N 	0.71420 0.45306 0.71640 -0.12900
N 	N 	0.58870 0.44330 0.61330 -0.21900
H 	H 	0.61610 0.45170 0.53940 0.08700
H 	H 	0.55240 0.39000 0.61490 0.07700
N 	N 	0.61030 0.57153 0.81290 -0.20600
H 	H 	0.52060 0.56850 0.76490 0.08800
N 	N 	0.65930 0.63739 0.90720 -0.30500
H 	H 	0.67060 0.68770 0.86780 0.04300
H 	H 	0.58960 0.64530 0.95330 0.04600
C 	C 	0.72100 0.51430 0.80760 0.11500
C 	C 	0.84570 0.40870 0.74950 0.05100
H 	H 	0.87230 0.36240 0.70370 -0.06200
