data_crystal

_cell_length_a 13.62870
_cell_length_b 13.96570
_cell_length_c 26.65350
_cell_angle_alpha 85.31900
_cell_angle_beta  89.28600
_cell_angle_gamma 86.17200

_symmetry_space_group_name_	'P 1'
_symmetry_space_group_name_H-M	'P 1'

loop_
_symmetry_equiv_pos_as_xyz
  x,y,z

loop_
_atom_site_label
_atom_site_type_symbol
_atom_site_fract_x
_atom_site_fract_y
_atom_site_fract_z
_atom_site_charge
Zn	Zn	0.49459 0.89776 0.99980 1.21900
Zn	Zn	0.36202 0.45986 0.82668 1.19300
Zn	Zn	0.25020 0.59770 0.54220 1.19000
O 	O 	0.63860 0.91030 0.98631 -0.46000
O 	O 	0.64990 0.07030 0.99055 -0.46500
O 	O 	0.47170 0.93090 0.92554 -0.46800
O 	O 	0.48890 0.08860 0.92558 -0.46500
O 	O 	0.21430 0.37910 0.80750 -0.35700
O 	O 	0.33830 0.32680 0.85580 -0.44800
O 	O 	0.28070 0.54210 0.89010 -0.39000
O 	O 	0.30930 0.60080 0.81340 -0.43700
O 	O 	0.19450 0.49380 0.63270 -0.34600
O 	O 	0.28830 0.46650 0.56760 -0.48500
O 	O 	0.39560 0.67590 0.58270 -0.35600
O 	O 	0.24230 0.72430 0.56880 -0.50400
N 	N 	0.06930 0.96710 0.89430 -0.19100
N 	N 	0.36920 0.06300 0.69730 -0.21100
N 	N 	0.32820 0.59570 0.47670 -0.29900
N 	N 	0.49620 0.75450 0.00026 -0.26000
N 	N 	0.42400 0.44860 0.75660 -0.27000
C 	C 	0.97470 0.97100 0.91730 0.19800
C 	C 	0.94320 0.04910 0.94260 -0.23400
H 	H 	0.98530 0.09750 0.94670 0.12000
C 	C 	0.85110 0.05570 0.96150 0.13000
H 	H 	0.82810 0.11160 0.97580 -0.00200
C 	C 	0.78890 0.97920 0.95990 -0.17000
C 	C 	0.82580 0.89860 0.93640 0.13200
H 	H 	0.78750 0.84600 0.93580 -0.00100
C 	C 	0.91550 0.89520 0.91470 -0.23800
H 	H 	0.93760 0.84190 0.89800 0.11800
C 	C 	0.68330 0.98930 0.98140 0.38600
C 	C 	0.11810 0.05630 0.87950 0.17400
C 	C 	0.20880 0.07000 0.89760 -0.21200
H 	H 	0.24130 0.02290 0.91910 0.11800
C 	C 	0.25090 0.15430 0.88370 0.11200
H 	H 	0.31290 0.16370 0.89590 0.01600
C 	C 	0.20450 0.22600 0.85210 -0.15800
C 	C 	0.11450 0.21100 0.83440 0.10100
H 	H 	0.08260 0.25870 0.81290 0.01000
C 	C 	0.06810 0.12620 0.84750 -0.20400
H 	H 	0.00610 0.11690 0.83540 0.10500
C 	C 	0.25410 0.31660 0.83640 0.34300
C 	C 	0.12440 0.87760 0.88600 0.18600
C 	C 	0.12990 0.80070 0.92230 -0.21700
H 	H 	0.10070 0.80760 0.95360 0.11100
C 	C 	0.17750 0.71480 0.91280 0.11700
H 	H 	0.17790 0.66330 0.93720 0.00400
C 	C 	0.22440 0.70360 0.86800 -0.16000
C 	C 	0.21940 0.78170 0.83160 0.10500
H 	H 	0.24970 0.77520 0.80050 0.00800
C 	C 	0.16980 0.86930 0.84100 -0.21200
H 	H 	0.16800 0.92110 0.81660 0.10900
C 	C 	0.27500 0.60900 0.85710 0.34600
C 	C 	0.39850 0.04890 0.74640 0.22000
C 	C 	0.38110 0.96640 0.77510 -0.26000
H 	H 	0.35100 0.91770 0.76060 0.12500
C 	C 	0.40640 0.95370 0.82420 0.14900
H 	H 	0.39220 0.89670 0.84260 -0.00600
C 	C 	0.45420 0.02420 0.84880 -0.19800
C 	C 	0.47290 0.10760 0.81770 0.15300
H 	H 	0.50390 0.15650 0.83150 -0.01100
C 	C 	0.44790 0.11970 0.76880 -0.25200
H 	H 	0.46340 0.17530 0.74960 0.12000
C 	C 	0.47340 0.01310 0.90350 0.41700
C 	C 	0.33700 0.15910 0.67430 0.18600
C 	C 	0.28210 0.22450 0.70170 -0.23900
H 	H 	0.26410 0.20680 0.73480 0.12100
C 	C 	0.25500 0.31230 0.68100 0.14500
H 	H 	0.21890 0.35480 0.70030 0.00100
C 	C 	0.27820 0.34220 0.63270 -0.18900
C 	C 	0.33380 0.27560 0.60550 0.12700
H 	H 	0.34980 0.29350 0.57220 0.00000
C 	C 	0.36580 0.18600 0.62530 -0.22700
H 	H 	0.40520 0.14460 0.60680 0.11200
C 	C 	0.25000 0.44140 0.61010 0.38200
C 	C 	0.36210 0.98340 0.66740 0.22000
C 	C 	0.27550 0.97500 0.64090 -0.25200
H 	H 	0.22350 0.02160 0.64150 0.11900
C 	C 	0.26930 0.89470 0.61360 0.16600
H 	H 	0.21330 0.89090 0.59450 -0.01500
C 	C 	0.33870 0.82330 0.61330 -0.22900
C 	C 	0.41780 0.83060 0.64050 0.17100
H 	H 	0.46640 0.78050 0.64220 -0.01700
C 	C 	0.43100 0.91250 0.66730 -0.27200
H 	H 	0.48880 0.91630 0.68490 0.12700
C 	C 	0.32250 0.73610 0.58600 0.40000
C 	C 	0.56440 0.69660 0.02450 0.08500
H 	H 	0.61230 0.72460 0.04190 0.00400
C 	C 	0.56860 0.59630 0.02540 -0.15200
H 	H 	0.61730 0.55950 0.04370 0.08100
C 	C 	0.50130 0.55270 0.99950 0.06200
C 	C 	0.43070 0.61330 0.97410 -0.16100
H 	H 	0.38290 0.58760 0.95560 0.09300
C 	C 	0.43120 0.71090 0.97610 0.10300
H 	H 	0.38180 0.74910 0.95910 -0.00600
C 	C 	0.40660 0.51030 0.71740 0.08400
H 	H 	0.36120 0.56220 0.72090 0.00200
C 	C 	0.45200 0.50240 0.67090 -0.12500
H 	H 	0.43650 0.54870 0.64460 0.08400
C 	C 	0.51980 0.42750 0.66290 0.03000
C 	C 	0.53820 0.35980 0.70300 -0.11500
H 	H 	0.58300 0.30720 0.70020 0.06400
C 	C 	0.48550 0.37380 0.74920 0.06000
H 	H 	0.49550 0.32690 0.77570 -0.02200
C 	C 	0.43170 0.58100 0.38300 0.11500
C 	C 	0.43850 0.51080 0.41660 -0.17700
H 	H 	0.47840 0.45570 0.41160 0.10500
C 	C 	0.37930 0.51950 0.46550 0.08800
H 	H 	0.38040 0.46590 0.48870 -0.00500
C 	C 	0.32580 0.65970 0.44350 0.12400
H 	H 	0.28250 0.71270 0.44790 -0.04800
C 	C 	0.38760 0.66320 0.39380 -0.18000
H 	H 	0.39280 0.71970 0.37320 0.09000
Zn	Zn	0.50541 0.10224 0.00020 1.21800
Zn	Zn	0.63798 0.54014 0.17332 1.19200
Zn	Zn	0.74980 0.40230 0.45780 1.18900
O 	O 	0.36140 0.08970 0.01369 -0.46100
O 	O 	0.35010 0.92970 0.00945 -0.46600
O 	O 	0.52830 0.06910 0.07446 -0.46900
O 	O 	0.51110 0.91140 0.07442 -0.46600
O 	O 	0.78570 0.62090 0.19250 -0.35800
O 	O 	0.66170 0.67320 0.14420 -0.44900
O 	O 	0.71930 0.45790 0.10990 -0.39100
O 	O 	0.69070 0.39920 0.18660 -0.43800
O 	O 	0.80550 0.50620 0.36730 -0.34700
O 	O 	0.71170 0.53350 0.43240 -0.48600
O 	O 	0.60440 0.32410 0.41730 -0.35700
O 	O 	0.75770 0.27570 0.43120 -0.50500
N 	N 	0.93070 0.03290 0.10570 -0.19200
N 	N 	0.63080 0.93700 0.30270 -0.21100
N 	N 	0.67180 0.40430 0.52330 -0.29900
N 	N 	0.50380 0.24550 0.99974 -0.26000
N 	N 	0.57600 0.55140 0.24340 -0.27000
C 	C 	0.02530 0.02900 0.08270 0.19800
C 	C 	0.05680 0.95090 0.05740 -0.23400
H 	H 	0.01470 0.90250 0.05330 0.12000
C 	C 	0.14890 0.94430 0.03850 0.13000
H 	H 	0.17190 0.88840 0.02420 -0.00200
C 	C 	0.21110 0.02080 0.04010 -0.17000
C 	C 	0.17420 0.10140 0.06360 0.13200
H 	H 	0.21250 0.15400 0.06420 -0.00100
C 	C 	0.08450 0.10480 0.08530 -0.23800
H 	H 	0.06240 0.15810 0.10200 0.11800
C 	C 	0.31670 0.01070 0.01860 0.38600
C 	C 	0.88190 0.94370 0.12050 0.17400
C 	C 	0.79120 0.93000 0.10240 -0.21200
H 	H 	0.75870 0.97710 0.08090 0.11800
C 	C 	0.74910 0.84570 0.11630 0.11200
H 	H 	0.68710 0.83630 0.10410 0.01600
C 	C 	0.79550 0.77400 0.14790 -0.15800
C 	C 	0.88550 0.78900 0.16560 0.10100
H 	H 	0.91740 0.74130 0.18710 0.01000
C 	C 	0.93190 0.87380 0.15250 -0.20400
H 	H 	0.99390 0.88310 0.16460 0.10500
C 	C 	0.74590 0.68340 0.16360 0.34300
C 	C 	0.87560 0.12240 0.11400 0.18600
C 	C 	0.87010 0.19930 0.07770 -0.21700
H 	H 	0.89930 0.19240 0.04640 0.11100
C 	C 	0.82250 0.28520 0.08720 0.11700
H 	H 	0.82210 0.33670 0.06280 0.00400
C 	C 	0.77560 0.29640 0.13200 -0.16000
C 	C 	0.78060 0.21830 0.16840 0.10500
H 	H 	0.75030 0.22480 0.19950 0.00800
C 	C 	0.83020 0.13070 0.15900 -0.21200
H 	H 	0.83200 0.07890 0.18340 0.10900
C 	C 	0.72500 0.39100 0.14290 0.34600
C 	C 	0.60150 0.95110 0.25360 0.22000
C 	C 	0.61890 0.03360 0.22490 -0.26000
H 	H 	0.64900 0.08230 0.23940 0.12500
C 	C 	0.59360 0.04630 0.17580 0.14900
H 	H 	0.60780 0.10330 0.15740 -0.00600
C 	C 	0.54580 0.97580 0.15120 -0.19800
C 	C 	0.52710 0.89240 0.18230 0.15300
H 	H 	0.49610 0.84350 0.16850 -0.01100
C 	C 	0.55210 0.88030 0.23120 -0.25200
H 	H 	0.53660 0.82470 0.25040 0.12000
C 	C 	0.52660 0.98690 0.09650 0.41700
C 	C 	0.66300 0.84090 0.32570 0.18600
C 	C 	0.71790 0.77550 0.29830 -0.23900
H 	H 	0.73590 0.79320 0.26520 0.12100
C 	C 	0.74500 0.68770 0.31900 0.14500
H 	H 	0.78110 0.64520 0.29970 0.00100
C 	C 	0.72180 0.65780 0.36730 -0.18900
C 	C 	0.66620 0.72440 0.39450 0.12700
H 	H 	0.65020 0.70650 0.42780 0.00000
C 	C 	0.63420 0.81400 0.37470 -0.22700
H 	H 	0.59480 0.85540 0.39320 0.11200
C 	C 	0.75000 0.55860 0.38990 0.38200
C 	C 	0.63790 0.01660 0.33260 0.22000
C 	C 	0.72450 0.02500 0.35910 -0.25200
H 	H 	0.77650 0.97840 0.35850 0.11900
C 	C 	0.73070 0.10530 0.38640 0.16600
H 	H 	0.78670 0.10910 0.40550 -0.01500
C 	C 	0.66130 0.17670 0.38670 -0.22900
C 	C 	0.58220 0.16940 0.35950 0.17100
H 	H 	0.53360 0.21950 0.35780 -0.01700
C 	C 	0.56900 0.08750 0.33270 -0.27200
H 	H 	0.51120 0.08370 0.31510 0.12700
C 	C 	0.67750 0.26390 0.41400 0.40000
C 	C 	0.43560 0.30340 0.97550 0.08500
H 	H 	0.38770 0.27540 0.95810 0.00400
C 	C 	0.43140 0.40370 0.97460 -0.15200
H 	H 	0.38270 0.44050 0.95630 0.08100
C 	C 	0.49870 0.44730 0.00050 0.06200
C 	C 	0.56930 0.38670 0.02590 -0.16100
H 	H 	0.61710 0.41240 0.04440 0.09300
C 	C 	0.56880 0.28910 0.02390 0.10300
H 	H 	0.61820 0.25090 0.04090 -0.00600
C 	C 	0.59340 0.48970 0.28260 0.08400
H 	H 	0.63880 0.43780 0.27910 0.00200
C 	C 	0.54800 0.49760 0.32910 -0.12500
H 	H 	0.56350 0.45130 0.35540 0.08400
C 	C 	0.48020 0.57250 0.33710 0.03000
C 	C 	0.46180 0.64020 0.29700 -0.11500
H 	H 	0.41700 0.69280 0.29980 0.06400
C 	C 	0.51450 0.62620 0.25080 0.06000
H 	H 	0.50450 0.67310 0.22430 -0.02200
C 	C 	0.56830 0.41900 0.61700 0.11500
C 	C 	0.56150 0.48920 0.58340 -0.17700
H 	H 	0.52160 0.54430 0.58840 0.10500
C 	C 	0.62070 0.48050 0.53450 0.08800
H 	H 	0.61960 0.53410 0.51130 -0.00500
C 	C 	0.67420 0.34030 0.55650 0.12400
H 	H 	0.71750 0.28730 0.55210 -0.04800
C 	C 	0.61240 0.33680 0.60620 -0.18000
H 	H 	0.60720 0.28030 0.62680 0.09000
