data_crystal

_cell_length_a 6.84850
_cell_length_b 27.35310
_cell_length_c 17.08240
_cell_angle_alpha 90.00000
_cell_angle_beta  91.63100
_cell_angle_gamma 90.00000

_symmetry_space_group_name_	'P 1'
_symmetry_space_group_name_H-M	'P 1'

loop_
_symmetry_equiv_pos_as_xyz
  x,y,z

loop_
_atom_site_label
_atom_site_type_symbol
_atom_site_fract_x
_atom_site_fract_y
_atom_site_fract_z
_atom_site_charge
C 	C 	0.99420 0.74510 0.59220 -0.10900
H 	H 	0.99050 0.71030 0.57650 0.03800
H 	H 	0.99040 0.74640 0.65000 0.06600
C 	C 	0.16920 0.77250 0.45510 -0.11300
H 	H 	0.27200 0.79110 0.42830 0.05600
H 	H 	0.17100 0.73860 0.43520 0.05200
C 	C 	0.17150 0.83650 0.58190 -0.11600
H 	H 	0.17340 0.84160 0.63930 0.07600
H 	H 	0.27430 0.85750 0.55980 0.05900
C 	C 	0.81660 0.76770 0.47140 -0.00600
H 	H 	0.82360 0.73310 0.45510 0.02300
H 	H 	0.69100 0.78110 0.45080 0.02000
C 	C 	0.97040 0.84570 0.46300 -0.00300
H 	H 	0.08120 0.86370 0.44080 0.03200
H 	H 	0.84830 0.86090 0.44240 0.03600
C 	C 	0.82040 0.82300 0.58140 -0.01700
H 	H 	0.69450 0.83790 0.56430 0.02500
H 	H 	0.83030 0.82540 0.63920 0.04900
C 	C 	0.75270 0.63270 0.63990 -0.10500
H 	H 	0.86420 0.65390 0.65590 0.03700
H 	H 	0.75200 0.63010 0.58210 0.03800
C 	C 	0.55860 0.54504 0.65650 -0.12500
H 	H 	0.54890 0.53940 0.59930 0.07200
H 	H 	0.54950 0.51290 0.68280 0.06500
C 	C 	0.75400 0.58700 0.78280 -0.11200
H 	H 	0.75310 0.55640 0.81380 0.05300
H 	H 	0.86360 0.60740 0.80300 0.05100
C 	C 	0.39410 0.62380 0.64020 -0.01100
H 	H 	0.27170 0.64130 0.65210 0.00300
H 	H 	0.39420 0.61820 0.58300 0.01000
C 	C 	0.56670 0.66050 0.75270 -0.02500
H 	H 	0.68180 0.67960 0.77100 0.04300
H 	H 	0.44850 0.67870 0.76770 0.03800
C 	C 	0.39930 0.58400 0.76560 -0.00900
H 	H 	0.40290 0.55190 0.79220 0.02600
H 	H 	0.27780 0.60080 0.78050 0.01700
N 	N 	0.81810 0.76993 0.55880 -0.13300
N 	N 	0.97700 0.79465 0.43560 -0.08800
N 	N 	0.97900 0.85140 0.54850 -0.08800
N 	N 	0.56850 0.65708 0.66300 -0.13500
N 	N 	0.39320 0.57607 0.68000 -0.12700
N 	N 	0.56890 0.61334 0.79360 -0.08900
P 	P 	0.22570 0.77206 0.56088 0.05000
P 	P 	0.79340 0.57223 0.68098 0.04500
Ag	Ag	0.52199 0.73794 0.61471 0.52300
Ag	Ag	0.08214 0.53264 0.65106 0.52000
C 	C 	0.00580 0.24510 0.90780 -0.11000
H 	H 	0.00950 0.21030 0.92350 0.03700
H 	H 	0.00960 0.24640 0.85000 0.06500
C 	C 	0.83080 0.27250 0.04490 -0.11400
H 	H 	0.72800 0.29110 0.07170 0.05500
H 	H 	0.82900 0.23860 0.06480 0.05100
C 	C 	0.82850 0.33650 0.91810 -0.11700
H 	H 	0.82660 0.34160 0.86070 0.07500
H 	H 	0.72570 0.35750 0.94020 0.05800
C 	C 	0.18340 0.26770 0.02860 -0.00700
H 	H 	0.17640 0.23310 0.04490 0.02200
H 	H 	0.30900 0.28110 0.04920 0.01900
C 	C 	0.02960 0.34570 0.03700 -0.00500
H 	H 	0.91880 0.36370 0.05920 0.03100
H 	H 	0.15170 0.36090 0.05760 0.03500
C 	C 	0.17960 0.32300 0.91860 -0.01800
H 	H 	0.30550 0.33790 0.93570 0.02500
H 	H 	0.16970 0.32540 0.86080 0.04900
C 	C 	0.24730 0.13270 0.86010 -0.10500
H 	H 	0.13580 0.15390 0.84410 0.03700
H 	H 	0.24800 0.13010 0.91790 0.03800
C 	C 	0.44140 0.04504 0.84350 -0.12500
H 	H 	0.45110 0.03940 0.90070 0.07100
H 	H 	0.45050 0.01290 0.81720 0.06400
C 	C 	0.24600 0.08700 0.71720 -0.11200
H 	H 	0.24690 0.05640 0.68620 0.05300
H 	H 	0.13640 0.10740 0.69700 0.05100
C 	C 	0.60590 0.12380 0.85980 -0.01100
H 	H 	0.72830 0.14130 0.84790 0.00300
H 	H 	0.60580 0.11820 0.91700 0.01000
C 	C 	0.43330 0.16050 0.74730 -0.02500
H 	H 	0.31820 0.17960 0.72900 0.04300
H 	H 	0.55150 0.17870 0.73230 0.03800
C 	C 	0.60070 0.08400 0.73440 -0.00900
H 	H 	0.59710 0.05190 0.70780 0.02600
H 	H 	0.72220 0.10080 0.71950 0.01700
N 	N 	0.18190 0.26993 0.94120 -0.13300
N 	N 	0.02300 0.29465 0.06440 -0.08800
N 	N 	0.02100 0.35140 0.95150 -0.08800
N 	N 	0.43150 0.15708 0.83700 -0.13500
N 	N 	0.60680 0.07607 0.82000 -0.12700
N 	N 	0.43110 0.11334 0.70640 -0.08900
P 	P 	0.77430 0.27206 0.93912 0.04900
P 	P 	0.20660 0.07223 0.81902 0.04500
Ag	Ag	0.47801 0.23794 0.88529 0.52300
Ag	Ag	0.91786 0.03264 0.84894 0.52000
C 	C 	0.00580 0.25490 0.40780 -0.11000
H 	H 	0.00950 0.28970 0.42350 0.03700
H 	H 	0.00960 0.25360 0.35000 0.06500
C 	C 	0.83080 0.22750 0.54490 -0.11400
H 	H 	0.72800 0.20890 0.57170 0.05500
H 	H 	0.82900 0.26140 0.56480 0.05100
C 	C 	0.82850 0.16350 0.41810 -0.11700
H 	H 	0.82660 0.15840 0.36070 0.07500
H 	H 	0.72570 0.14250 0.44020 0.05800
C 	C 	0.18340 0.23230 0.52860 -0.00700
H 	H 	0.17640 0.26690 0.54490 0.02200
H 	H 	0.30900 0.21890 0.54920 0.01900
C 	C 	0.02960 0.15430 0.53700 -0.00400
H 	H 	0.91880 0.13630 0.55920 0.03100
H 	H 	0.15170 0.13910 0.55760 0.03500
C 	C 	0.17960 0.17700 0.41860 -0.01800
H 	H 	0.30550 0.16210 0.43570 0.02500
H 	H 	0.16970 0.17460 0.36080 0.04900
C 	C 	0.24730 0.36730 0.36010 -0.10500
H 	H 	0.13580 0.34610 0.34410 0.03700
H 	H 	0.24800 0.36990 0.41790 0.03800
C 	C 	0.44140 0.45496 0.34350 -0.12500
H 	H 	0.45110 0.46060 0.40070 0.07200
H 	H 	0.45050 0.48710 0.31720 0.06500
C 	C 	0.24600 0.41300 0.21720 -0.11200
H 	H 	0.24690 0.44360 0.18620 0.05300
H 	H 	0.13640 0.39260 0.19700 0.05100
C 	C 	0.60590 0.37620 0.35980 -0.01100
H 	H 	0.72830 0.35870 0.34790 0.00300
H 	H 	0.60580 0.38180 0.41700 0.01000
C 	C 	0.43330 0.33950 0.24730 -0.02500
H 	H 	0.31820 0.32040 0.22900 0.04300
H 	H 	0.55150 0.32130 0.23230 0.03800
C 	C 	0.60070 0.41600 0.23440 -0.00900
H 	H 	0.59710 0.44810 0.20780 0.02600
H 	H 	0.72220 0.39920 0.21950 0.01700
N 	N 	0.18190 0.23007 0.44120 -0.13300
N 	N 	0.02300 0.20535 0.56440 -0.08800
N 	N 	0.02100 0.14860 0.45150 -0.08800
N 	N 	0.43150 0.34292 0.33700 -0.13500
N 	N 	0.60680 0.42393 0.32000 -0.12700
N 	N 	0.43110 0.38666 0.20640 -0.08900
P 	P 	0.77430 0.22794 0.43912 0.05000
P 	P 	0.20660 0.42777 0.31902 0.04500
Ag	Ag	0.47801 0.26206 0.38529 0.52300
Ag	Ag	0.91786 0.46736 0.34894 0.52000
C 	C 	0.99420 0.75490 0.09220 -0.11000
H 	H 	0.99050 0.78970 0.07650 0.03700
H 	H 	0.99040 0.75360 0.15000 0.06500
C 	C 	0.16920 0.72750 0.95510 -0.11400
H 	H 	0.27200 0.70890 0.92830 0.05500
H 	H 	0.17100 0.76140 0.93520 0.05100
C 	C 	0.17150 0.66350 0.08190 -0.11700
H 	H 	0.17340 0.65840 0.13930 0.07500
H 	H 	0.27430 0.64250 0.05980 0.05800
C 	C 	0.81660 0.73230 0.97140 -0.00700
H 	H 	0.82360 0.76690 0.95510 0.02200
H 	H 	0.69100 0.71890 0.95080 0.01900
C 	C 	0.97040 0.65430 0.96300 -0.00500
H 	H 	0.08120 0.63630 0.94080 0.03100
H 	H 	0.84830 0.63910 0.94240 0.03500
C 	C 	0.82040 0.67700 0.08140 -0.01800
H 	H 	0.69450 0.66210 0.06430 0.02500
H 	H 	0.83030 0.67460 0.13920 0.04900
C 	C 	0.75270 0.86730 0.13990 -0.10500
H 	H 	0.86420 0.84610 0.15590 0.03700
H 	H 	0.75200 0.86990 0.08210 0.03800
C 	C 	0.55860 0.95496 0.15650 -0.12500
H 	H 	0.54890 0.96060 0.09930 0.07100
H 	H 	0.54950 0.98710 0.18280 0.06400
C 	C 	0.75400 0.91300 0.28280 -0.11200
H 	H 	0.75310 0.94360 0.31380 0.05300
H 	H 	0.86360 0.89260 0.30300 0.05100
C 	C 	0.39410 0.87620 0.14020 -0.01100
H 	H 	0.27170 0.85870 0.15210 0.00300
H 	H 	0.39420 0.88180 0.08300 0.01000
C 	C 	0.56670 0.83950 0.25270 -0.02500
H 	H 	0.68180 0.82040 0.27100 0.04300
H 	H 	0.44850 0.82130 0.26770 0.03800
C 	C 	0.39930 0.91600 0.26560 -0.00900
H 	H 	0.40290 0.94810 0.29220 0.02600
H 	H 	0.27780 0.89920 0.28050 0.01700
N 	N 	0.81810 0.73007 0.05880 -0.13300
N 	N 	0.97700 0.70535 0.93560 -0.08800
N 	N 	0.97900 0.64860 0.04850 -0.08800
N 	N 	0.56850 0.84292 0.16300 -0.13500
N 	N 	0.39320 0.92393 0.18000 -0.12700
N 	N 	0.56890 0.88666 0.29360 -0.08900
P 	P 	0.22570 0.72794 0.06088 0.04900
P 	P 	0.79340 0.92777 0.18098 0.04500
Ag	Ag	0.52199 0.76206 0.11471 0.52300
Ag	Ag	0.08214 0.96736 0.15106 0.52000
C 	C 	0.56880 0.40399 0.73210 -0.03000
C 	C 	0.48400 0.42090 0.79930 -0.03700
H 	H 	0.35090 0.41360 0.80820 0.04400
C 	C 	0.58930 0.44850 0.85420 -0.04700
H 	H 	0.52750 0.46050 0.89940 0.03700
C 	C 	0.78490 0.45830 0.84280 -0.03700
H 	H 	0.85820 0.47660 0.88060 0.03100
C 	C 	0.87240 0.44160 0.77670 -0.05500
H 	H 	0.00650 0.44840 0.76910 0.03900
C 	C 	0.76730 0.41480 0.72090 -0.04000
H 	H 	0.82910 0.40380 0.67510 0.03500
C 	C 	0.54780 0.29090 0.73070 0.37600
C 	C 	0.53740 0.32340 0.65850 -0.37800
H 	H 	0.45770 0.30660 0.61740 0.12600
H 	H 	0.67100 0.32710 0.63860 0.13500
C 	C 	0.30360 0.44440 0.58680 0.39800
C 	C 	0.43470 0.39990 0.59120 -0.39300
H 	H 	0.56730 0.40980 0.57590 0.13500
H 	H 	0.38580 0.37580 0.55220 0.13000
C 	C 	0.45140 0.37458 0.67110 0.16800
H 	H 	0.31630 0.37040 0.69080 -0.00200
O 	O 	0.39230 0.28170 0.76460 -0.33300
O 	O 	0.71340 0.27414 0.75270 -0.30900
O 	O 	0.23510 0.46111 0.64810 -0.36500
O 	O 	0.27130 0.46185 0.51880 -0.32700
C 	C 	0.43120 0.90399 0.76790 -0.03000
C 	C 	0.51600 0.92090 0.70070 -0.03700
H 	H 	0.64910 0.91360 0.69180 0.04400
C 	C 	0.41070 0.94850 0.64580 -0.04700
H 	H 	0.47250 0.96050 0.60060 0.03700
C 	C 	0.21510 0.95830 0.65720 -0.03700
H 	H 	0.14180 0.97660 0.61940 0.03100
C 	C 	0.12760 0.94160 0.72330 -0.05500
H 	H 	0.99350 0.94840 0.73090 0.04000
C 	C 	0.23270 0.91480 0.77910 -0.03900
H 	H 	0.17090 0.90380 0.82490 0.03500
C 	C 	0.45220 0.79090 0.76930 0.37600
C 	C 	0.46260 0.82340 0.84150 -0.37800
H 	H 	0.54230 0.80660 0.88260 0.12600
H 	H 	0.32900 0.82710 0.86140 0.13500
C 	C 	0.69640 0.94440 0.91320 0.39800
C 	C 	0.56530 0.89990 0.90880 -0.39300
H 	H 	0.43270 0.90980 0.92410 0.13500
H 	H 	0.61420 0.87580 0.94780 0.13100
C 	C 	0.54860 0.87458 0.82890 0.16800
H 	H 	0.68370 0.87040 0.80920 -0.00300
O 	O 	0.60770 0.78170 0.73540 -0.33300
O 	O 	0.28660 0.77414 0.74730 -0.30900
O 	O 	0.76490 0.96111 0.85190 -0.36500
O 	O 	0.72870 0.96185 0.98120 -0.32700
C 	C 	0.43120 0.59601 0.26790 -0.03000
C 	C 	0.51600 0.57910 0.20070 -0.03700
H 	H 	0.64910 0.58640 0.19180 0.04400
C 	C 	0.41070 0.55150 0.14580 -0.04700
H 	H 	0.47250 0.53950 0.10060 0.03700
C 	C 	0.21510 0.54170 0.15720 -0.03700
H 	H 	0.14180 0.52340 0.11940 0.03100
C 	C 	0.12760 0.55840 0.22330 -0.05500
H 	H 	0.99350 0.55160 0.23090 0.03900
C 	C 	0.23270 0.58520 0.27910 -0.04000
H 	H 	0.17090 0.59620 0.32490 0.03500
C 	C 	0.45220 0.70910 0.26930 0.37600
C 	C 	0.46260 0.67660 0.34150 -0.37800
H 	H 	0.54230 0.69340 0.38260 0.12600
H 	H 	0.32900 0.67290 0.36140 0.13500
C 	C 	0.69640 0.55560 0.41320 0.39800
C 	C 	0.56530 0.60010 0.40880 -0.39300
H 	H 	0.43270 0.59020 0.42410 0.13500
H 	H 	0.61420 0.62420 0.44780 0.13000
C 	C 	0.54860 0.62542 0.32890 0.16800
H 	H 	0.68370 0.62960 0.30920 -0.00200
O 	O 	0.60770 0.71830 0.23540 -0.33300
O 	O 	0.28660 0.72586 0.24730 -0.30900
O 	O 	0.76490 0.53889 0.35190 -0.36500
O 	O 	0.72870 0.53815 0.48120 -0.32700
C 	C 	0.56880 0.09601 0.23210 -0.03000
C 	C 	0.48400 0.07910 0.29930 -0.03700
H 	H 	0.35090 0.08640 0.30820 0.04400
C 	C 	0.58930 0.05150 0.35420 -0.04700
H 	H 	0.52750 0.03950 0.39940 0.03700
C 	C 	0.78490 0.04170 0.34280 -0.03700
H 	H 	0.85820 0.02340 0.38060 0.03100
C 	C 	0.87240 0.05840 0.27670 -0.05500
H 	H 	0.00650 0.05160 0.26910 0.04000
C 	C 	0.76730 0.08520 0.22090 -0.03900
H 	H 	0.82910 0.09620 0.17510 0.03500
C 	C 	0.54780 0.20910 0.23070 0.37600
C 	C 	0.53740 0.17660 0.15850 -0.37800
H 	H 	0.45770 0.19340 0.11740 0.12600
H 	H 	0.67100 0.17290 0.13860 0.13500
C 	C 	0.30360 0.05560 0.08680 0.39800
C 	C 	0.43470 0.10010 0.09120 -0.39300
H 	H 	0.56730 0.09020 0.07590 0.13500
H 	H 	0.38580 0.12420 0.05220 0.13100
C 	C 	0.45140 0.12542 0.17110 0.16800
H 	H 	0.31630 0.12960 0.19080 -0.00300
O 	O 	0.39230 0.21830 0.26460 -0.33300
O 	O 	0.71340 0.22586 0.25270 -0.30900
O 	O 	0.23510 0.03889 0.14810 -0.36500
O 	O 	0.27130 0.03815 0.01880 -0.32700
