data_crystal

_cell_length_a 23.29670
_cell_length_b 13.07790
_cell_length_c 6.92670
_cell_angle_alpha 90.00000
_cell_angle_beta  90.00000
_cell_angle_gamma 90.00000

_symmetry_space_group_name_	'P 1'
_symmetry_space_group_name_H-M	'P 1'

loop_
_symmetry_equiv_pos_as_xyz
  x,y,z

loop_
_atom_site_label
_atom_site_type_symbol
_atom_site_fract_x
_atom_site_fract_y
_atom_site_fract_z
_atom_site_charge
C 	C 	0.10828 0.36690 0.96970 0.06900
H 	H 	0.13450 0.34140 0.88070 -0.02600
C 	C 	0.06385 0.42710 0.90420 -0.14500
H 	H 	0.06050 0.44090 0.77300 0.06900
C 	C 	0.02414 0.46700 0.03250 0.05300
C 	C 	0.03172 0.44210 0.22670 -0.14200
H 	H 	0.00630 0.46690 0.31910 0.07900
C 	C 	0.07640 0.38130 0.28090 0.07500
H 	H 	0.08020 0.36490 0.41090 -0.01700
C 	C 	0.28806 0.16920 0.34220 0.52000
C 	C 	0.31970 0.08390 0.43670 -1.08900
H 	H 	0.36020 0.09510 0.42420 0.35400
H 	H 	0.30960 0.08120 0.57110 0.33700
H 	H 	0.30950 0.02050 0.37600 0.35800
C 	C 	0.41238 0.30110 0.39370 0.37100
C 	C 	0.38330 0.35800 0.55390 -0.85900
H 	H 	0.34250 0.35210 0.54000 0.26600
H 	H 	0.39480 0.32960 0.67580 0.27100
H 	H 	0.39410 0.42880 0.54880 0.27500
N 	N 	0.11514 0.34380 0.15680 -0.23400
O 	O 	0.23372 0.16030 0.35230 -0.50800
O 	O 	0.46817 0.30300 0.39570 -0.33200
C 	C 	0.10828 0.13310 0.53030 0.07300
H 	H 	0.13450 0.15860 0.61930 -0.02600
C 	C 	0.06385 0.07290 0.59580 -0.14300
H 	H 	0.06050 0.05910 0.72700 0.06900
C 	C 	0.02414 0.03300 0.46750 0.05300
C 	C 	0.03172 0.05790 0.27330 -0.14100
H 	H 	0.00630 0.03310 0.18090 0.08000
C 	C 	0.07640 0.11870 0.21910 0.07600
H 	H 	0.08020 0.13510 0.08910 -0.01500
C 	C 	0.28806 0.33080 0.15780 0.51500
C 	C 	0.31970 0.41610 0.06330 -1.06500
H 	H 	0.36020 0.40490 0.07580 0.34800
H 	H 	0.30960 0.41880 0.92890 0.32700
H 	H 	0.30950 0.47950 0.12400 0.35100
C 	C 	0.41238 0.19890 0.10630 0.37500
C 	C 	0.38330 0.14200 0.94610 -0.86600
H 	H 	0.34250 0.14790 0.96000 0.26600
H 	H 	0.39480 0.17040 0.82420 0.27300
H 	H 	0.39410 0.07120 0.95120 0.27600
N 	N 	0.11514 0.15620 0.34320 -0.23600
O 	O 	0.23372 0.33970 0.14770 -0.50500
O 	O 	0.46817 0.19700 0.10430 -0.33200
C 	C 	0.89172 0.63310 0.03030 0.07000
H 	H 	0.86550 0.65860 0.11930 -0.02500
C 	C 	0.93615 0.57290 0.09580 -0.14400
H 	H 	0.93950 0.55910 0.22700 0.07000
C 	C 	0.97586 0.53300 0.96750 0.05400
C 	C 	0.96828 0.55790 0.77330 -0.14100
H 	H 	0.99370 0.53310 0.68090 0.08000
C 	C 	0.92360 0.61870 0.71910 0.07600
H 	H 	0.91980 0.63510 0.58910 -0.01600
C 	C 	0.71194 0.83080 0.65780 0.52100
C 	C 	0.68030 0.91610 0.56330 -1.08800
H 	H 	0.63980 0.90490 0.57580 0.35500
H 	H 	0.69040 0.91880 0.42890 0.33700
H 	H 	0.69050 0.97950 0.62400 0.35800
C 	C 	0.58762 0.69890 0.60630 0.37100
C 	C 	0.61670 0.64200 0.44610 -0.85900
H 	H 	0.65750 0.64790 0.46000 0.26600
H 	H 	0.60520 0.67040 0.32420 0.27100
H 	H 	0.60590 0.57120 0.45120 0.27500
N 	N 	0.88486 0.65620 0.84320 -0.23400
O 	O 	0.76628 0.83970 0.64770 -0.50800
O 	O 	0.53183 0.69700 0.60430 -0.33200
C 	C 	0.89172 0.86690 0.46970 0.07300
H 	H 	0.86550 0.84140 0.38070 -0.02600
C 	C 	0.93615 0.92710 0.40420 -0.14300
H 	H 	0.93950 0.94090 0.27300 0.06900
C 	C 	0.97586 0.96700 0.53250 0.05300
C 	C 	0.96828 0.94210 0.72670 -0.14100
H 	H 	0.99370 0.96690 0.81910 0.08000
C 	C 	0.92360 0.88130 0.78090 0.07600
H 	H 	0.91980 0.86490 0.91090 -0.01500
C 	C 	0.71194 0.66920 0.84220 0.51500
C 	C 	0.68030 0.58390 0.93670 -1.06500
H 	H 	0.63980 0.59510 0.92420 0.34800
H 	H 	0.69040 0.58120 0.07110 0.32700
H 	H 	0.69050 0.52050 0.87600 0.35100
C 	C 	0.58762 0.80110 0.89370 0.37500
C 	C 	0.61670 0.85800 0.05390 -0.86600
H 	H 	0.65750 0.85210 0.04000 0.26600
H 	H 	0.60520 0.82960 0.17580 0.27300
H 	H 	0.60590 0.92880 0.04880 0.27600
N 	N 	0.88486 0.84380 0.65680 -0.23600
O 	O 	0.76628 0.66030 0.85230 -0.50500
O 	O 	0.53183 0.80300 0.89570 -0.33200
C 	C 	0.31710 0.25000 0.25000 -0.35800
C 	C 	0.38120 0.25000 0.25000 -0.21200
Cu	Cu	0.17754 0.25000 0.25000 0.89200
H 	H 	0.47100 0.25000 0.25000 0.17000
C 	C 	0.68290 0.75000 0.75000 -0.35800
C 	C 	0.61880 0.75000 0.75000 -0.21200
Cu	Cu	0.82246 0.75000 0.75000 0.89200
H 	H 	0.52900 0.75000 0.75000 0.17000
C 	C 	0.39172 0.63310 0.96970 0.07000
H 	H 	0.36550 0.65860 0.88070 -0.02500
C 	C 	0.43615 0.57290 0.90420 -0.14300
H 	H 	0.43950 0.55910 0.77300 0.07000
C 	C 	0.47586 0.53300 0.03250 0.05300
C 	C 	0.46828 0.55790 0.22670 -0.14100
H 	H 	0.49370 0.53310 0.31910 0.08000
C 	C 	0.42360 0.61870 0.28090 0.07600
H 	H 	0.41980 0.63510 0.41090 -0.01600
C 	C 	0.21194 0.83080 0.34220 0.52100
C 	C 	0.18030 0.91610 0.43670 -1.08800
H 	H 	0.13980 0.90490 0.42420 0.35500
H 	H 	0.19040 0.91880 0.57110 0.33700
H 	H 	0.19050 0.97950 0.37600 0.35800
C 	C 	0.08762 0.69890 0.39370 0.37100
C 	C 	0.11670 0.64200 0.55390 -0.85900
H 	H 	0.15750 0.64790 0.54000 0.26600
H 	H 	0.10520 0.67040 0.67580 0.27100
H 	H 	0.10590 0.57120 0.54880 0.27500
N 	N 	0.38486 0.65620 0.15680 -0.23400
O 	O 	0.26628 0.83970 0.35230 -0.50800
O 	O 	0.03183 0.69700 0.39570 -0.33200
C 	C 	0.39172 0.86690 0.53030 0.07400
H 	H 	0.36550 0.84140 0.61930 -0.02600
C 	C 	0.43615 0.92710 0.59580 -0.14300
H 	H 	0.43950 0.94090 0.72700 0.07000
C 	C 	0.47586 0.96700 0.46750 0.05300
C 	C 	0.46828 0.94210 0.27330 -0.14100
H 	H 	0.49370 0.96690 0.18090 0.08000
C 	C 	0.42360 0.88130 0.21910 0.07600
H 	H 	0.41980 0.86490 0.08910 -0.01600
C 	C 	0.21194 0.66920 0.15780 0.51500
C 	C 	0.18030 0.58390 0.06330 -1.06400
H 	H 	0.13980 0.59510 0.07580 0.34800
H 	H 	0.19040 0.58120 0.92890 0.32700
H 	H 	0.19050 0.52050 0.12400 0.35100
C 	C 	0.08762 0.80110 0.10630 0.37600
C 	C 	0.11670 0.85800 0.94610 -0.86700
H 	H 	0.15750 0.85210 0.96000 0.26600
H 	H 	0.10520 0.82960 0.82420 0.27300
H 	H 	0.10590 0.92880 0.95120 0.27600
N 	N 	0.38486 0.84380 0.34320 -0.23600
O 	O 	0.26628 0.66030 0.14770 -0.50500
O 	O 	0.03183 0.80300 0.10430 -0.33200
C 	C 	0.60828 0.36690 0.03030 0.07000
H 	H 	0.63450 0.34140 0.11930 -0.02500
C 	C 	0.56385 0.42710 0.09580 -0.14300
H 	H 	0.56050 0.44090 0.22700 0.07000
C 	C 	0.52414 0.46700 0.96750 0.05300
C 	C 	0.53172 0.44210 0.77330 -0.14100
H 	H 	0.50630 0.46690 0.68090 0.08000
C 	C 	0.57640 0.38130 0.71910 0.07600
H 	H 	0.58020 0.36490 0.58910 -0.01600
C 	C 	0.78806 0.16920 0.65780 0.52100
C 	C 	0.81970 0.08390 0.56330 -1.08800
H 	H 	0.86020 0.09510 0.57580 0.35500
H 	H 	0.80960 0.08120 0.42890 0.33700
H 	H 	0.80950 0.02050 0.62400 0.35800
C 	C 	0.91238 0.30110 0.60630 0.37100
C 	C 	0.88330 0.35800 0.44610 -0.85900
H 	H 	0.84250 0.35210 0.46000 0.26600
H 	H 	0.89480 0.32960 0.32420 0.27100
H 	H 	0.89410 0.42880 0.45120 0.27500
N 	N 	0.61514 0.34380 0.84320 -0.23400
O 	O 	0.73372 0.16030 0.64770 -0.50800
O 	O 	0.96817 0.30300 0.60430 -0.33200
C 	C 	0.60828 0.13310 0.46970 0.07400
H 	H 	0.63450 0.15860 0.38070 -0.02600
C 	C 	0.56385 0.07290 0.40420 -0.14300
H 	H 	0.56050 0.05910 0.27300 0.07000
C 	C 	0.52414 0.03300 0.53250 0.05300
C 	C 	0.53172 0.05790 0.72670 -0.14100
H 	H 	0.50630 0.03310 0.81910 0.08000
C 	C 	0.57640 0.11870 0.78090 0.07600
H 	H 	0.58020 0.13510 0.91090 -0.01600
C 	C 	0.78806 0.33080 0.84220 0.51500
C 	C 	0.81970 0.41610 0.93670 -1.06400
H 	H 	0.86020 0.40490 0.92420 0.34800
H 	H 	0.80960 0.41880 0.07110 0.32700
H 	H 	0.80950 0.47950 0.87600 0.35100
C 	C 	0.91238 0.19890 0.89370 0.37600
C 	C 	0.88330 0.14200 0.05390 -0.86700
H 	H 	0.84250 0.14790 0.04000 0.26600
H 	H 	0.89480 0.17040 0.17580 0.27300
H 	H 	0.89410 0.07120 0.04880 0.27600
N 	N 	0.61514 0.15620 0.65680 -0.23600
O 	O 	0.73372 0.33970 0.85230 -0.50500
O 	O 	0.96817 0.19700 0.89570 -0.33200
C 	C 	0.18290 0.75000 0.25000 -0.35800
C 	C 	0.11880 0.75000 0.25000 -0.21200
Cu	Cu	0.32246 0.75000 0.25000 0.89200
H 	H 	0.02900 0.75000 0.25000 0.17000
C 	C 	0.81710 0.25000 0.75000 -0.35800
C 	C 	0.88120 0.25000 0.75000 -0.21200
Cu	Cu	0.67754 0.25000 0.75000 0.89200
H 	H 	0.97100 0.25000 0.75000 0.17000
