data_crystal

_cell_length_a 12.72480
_cell_length_b 14.34330
_cell_length_c 14.70810
_cell_angle_alpha 72.93600
_cell_angle_beta  81.38000
_cell_angle_gamma 71.36400

_symmetry_space_group_name_	'P 1'
_symmetry_space_group_name_H-M	'P 1'

loop_
_symmetry_equiv_pos_as_xyz
  x,y,z

loop_
_atom_site_label
_atom_site_type_symbol
_atom_site_fract_x
_atom_site_fract_y
_atom_site_fract_z
_atom_site_charge
Ru	Ru	0.73281 0.68555 0.76367 0.95000
N 	N 	0.69500 0.81090 0.64830 -0.21100
N 	N 	0.78590 0.61740 0.65320 -0.21100
N 	N 	0.76590 0.55030 0.86880 -0.21000
N 	N 	0.58510 0.65140 0.77330 -0.20800
N 	N 	0.68910 0.76470 0.86700 -0.20800
N 	N 	0.88000 0.71780 0.76630 -0.20800
N 	N 	0.48280 0.29470 0.59570 -0.13300
N 	N 	0.00820 0.15440 0.62000 -0.13600
C 	C 	0.56040 0.27290 0.52700 0.08300
H 	H 	0.58270 0.32720 0.48240 0.01000
C 	C 	0.61000 0.17460 0.51780 -0.15200
H 	H 	0.66480 0.16260 0.46770 0.07900
C 	C 	0.45500 0.21710 0.65840 0.08000
H 	H 	0.40100 0.23140 0.70840 0.00600
C 	C 	0.50050 0.11620 0.65480 -0.15000
H 	H 	0.47840 0.06300 0.70130 0.07700
C 	C 	0.57960 0.09500 0.58100 0.10400
C 	C 	0.62820 0.98960 0.57220 -0.06100
C 	C 	0.66050 0.96780 0.48310 0.00700
H 	H 	0.64960 0.02170 0.42630 0.02600
C 	C 	0.64950 0.90770 0.65200 0.04500
H 	H 	0.63070 0.92100 0.71290 0.00600
C 	C 	0.70730 0.86960 0.47830 -0.09000
H 	H 	0.72880 0.85490 0.41810 0.06100
C 	C 	0.72360 0.79100 0.56140 0.05000
C 	C 	0.77230 0.68260 0.56370 0.04700
C 	C 	0.80280 0.64620 0.48390 -0.08700
H 	H 	0.79350 0.69220 0.42230 0.06000
C 	C 	0.84720 0.54210 0.49400 0.00400
H 	H 	0.86700 0.51660 0.43910 0.02800
C 	C 	0.86240 0.47580 0.58330 -0.05900
C 	C 	0.83000 0.51720 0.66030 0.04300
H 	H 	0.83940 0.47190 0.72230 0.00900
C 	C 	0.91020 0.36320 0.59780 0.10200
C 	C 	0.89360 0.31570 0.53450 -0.15100
H 	H 	0.84770 0.35320 0.48270 0.08000
C 	C 	0.94540 0.21160 0.54820 0.08300
H 	H 	0.93500 0.17980 0.50340 0.01000
C 	C 	0.02020 0.19940 0.68300 0.08200
H 	H 	0.06270 0.15900 0.73630 0.00400
C 	C 	0.97350 0.30280 0.67450 -0.15300
H 	H 	0.98470 0.33220 0.72100 0.07900
C 	C 	0.85730 0.50070 0.91700 0.04800
H 	H 	0.91460 0.53250 0.90760 0.00400
C 	C 	0.87250 0.40470 0.98020 -0.08100
H 	H 	0.93980 0.37150 0.01150 0.05600
C 	C 	0.79060 0.35820 0.99730 -0.03300
H 	H 	0.80020 0.29310 0.04120 0.03800
C 	C 	0.69170 0.40740 0.94940 0.00500
C 	C 	0.68330 0.50430 0.88610 0.02600
C 	C 	0.58540 0.55900 0.83490 0.02300
C 	C 	0.49560 0.51730 0.85000 0.01400
C 	C 	0.50590 0.41980 0.91480 -0.05600
H 	H 	0.44610 0.39100 0.92500 0.05000
C 	C 	0.59930 0.36710 0.96260 -0.04700
H 	H 	0.60360 0.30220 0.00560 0.04400
C 	C 	0.40170 0.57700 0.79920 -0.04000
H 	H 	0.33830 0.55340 0.80700 0.04400
C 	C 	0.40160 0.66970 0.73820 -0.07500
H 	H 	0.33790 0.71030 0.70370 0.04900
C 	C 	0.49400 0.70480 0.72620 0.04600
H 	H 	0.49210 0.76920 0.68300 0.00500
C 	C 	0.59190 0.78850 0.91650 0.04400
H 	H 	0.53250 0.76800 0.90450 0.00300
C 	C 	0.57430 0.84200 0.98480 -0.07500
H 	H 	0.50460 0.85560 0.01990 0.05200
C 	C 	0.65780 0.87570 0.00210 -0.04300
H 	H 	0.64610 0.91260 0.04870 0.04100
C 	C 	0.75910 0.85460 0.95030 0.01000
C 	C 	0.77270 0.79840 0.88380 0.02000
C 	C 	0.87490 0.77340 0.82830 0.02700
C 	C 	0.85200 0.88810 0.95980 -0.05500
H 	H 	0.84560 0.92580 0.00480 0.04400
C 	C 	0.94770 0.86660 0.90550 -0.04900
H 	H 	0.00660 0.89080 0.91250 0.04200
C 	C 	0.96300 0.80830 0.83790 0.00600
C 	C 	0.05820 0.78400 0.77990 -0.03800
H 	H 	0.11940 0.80720 0.78270 0.03900
C 	C 	0.06430 0.72710 0.71930 -0.07800
H 	H 	0.13060 0.70940 0.68060 0.05000
C 	C 	0.97420 0.69440 0.71320 0.04800
H 	H 	0.98000 0.65450 0.67030 0.00600
Ru	Ru	0.26719 0.31445 0.23633 0.94900
N 	N 	0.30500 0.18910 0.35170 -0.21200
N 	N 	0.21410 0.38260 0.34680 -0.21100
N 	N 	0.23410 0.44970 0.13120 -0.21000
N 	N 	0.41490 0.34860 0.22670 -0.20800
N 	N 	0.31090 0.23530 0.13300 -0.20800
N 	N 	0.12000 0.28220 0.23370 -0.20800
N 	N 	0.51720 0.70530 0.40430 -0.13300
N 	N 	0.99180 0.84560 0.38000 -0.13600
C 	C 	0.43960 0.72710 0.47300 0.08300
H 	H 	0.41730 0.67280 0.51760 0.01000
C 	C 	0.39000 0.82540 0.48220 -0.15200
H 	H 	0.33520 0.83740 0.53230 0.07900
C 	C 	0.54500 0.78290 0.34160 0.08000
H 	H 	0.59900 0.76860 0.29160 0.00600
C 	C 	0.49950 0.88380 0.34520 -0.15000
H 	H 	0.52160 0.93700 0.29870 0.07700
C 	C 	0.42040 0.90500 0.41900 0.10400
C 	C 	0.37180 0.01040 0.42780 -0.06100
C 	C 	0.33950 0.03220 0.51690 0.00700
H 	H 	0.35040 0.97830 0.57370 0.02600
C 	C 	0.35050 0.09230 0.34800 0.04500
H 	H 	0.36930 0.07900 0.28710 0.00600
C 	C 	0.29270 0.13040 0.52170 -0.09000
H 	H 	0.27120 0.14510 0.58190 0.06100
C 	C 	0.27640 0.20900 0.43860 0.05000
C 	C 	0.22770 0.31740 0.43630 0.04700
C 	C 	0.19720 0.35380 0.51610 -0.08700
H 	H 	0.20650 0.30780 0.57770 0.06000
C 	C 	0.15280 0.45790 0.50600 0.00400
H 	H 	0.13300 0.48340 0.56090 0.02800
C 	C 	0.13760 0.52420 0.41670 -0.05900
C 	C 	0.17000 0.48280 0.33970 0.04300
H 	H 	0.16060 0.52810 0.27770 0.00900
C 	C 	0.08980 0.63680 0.40220 0.10200
C 	C 	0.10640 0.68430 0.46550 -0.15100
H 	H 	0.15230 0.64680 0.51730 0.08000
C 	C 	0.05460 0.78840 0.45180 0.08300
H 	H 	0.06500 0.82020 0.49660 0.01000
C 	C 	0.97980 0.80060 0.31700 0.08200
H 	H 	0.93730 0.84100 0.26370 0.00400
C 	C 	0.02650 0.69720 0.32550 -0.15300
H 	H 	0.01530 0.66780 0.27900 0.07900
C 	C 	0.14270 0.49930 0.08300 0.04800
H 	H 	0.08540 0.46750 0.09240 0.00400
C 	C 	0.12750 0.59530 0.01980 -0.08100
H 	H 	0.06020 0.62850 0.98850 0.05600
C 	C 	0.20940 0.64180 0.00270 -0.03300
H 	H 	0.19980 0.70690 0.95880 0.03800
C 	C 	0.30830 0.59260 0.05060 0.00500
C 	C 	0.31670 0.49570 0.11390 0.02600
C 	C 	0.41460 0.44100 0.16510 0.02300
C 	C 	0.50440 0.48270 0.15000 0.01400
C 	C 	0.49410 0.58020 0.08520 -0.05600
H 	H 	0.55390 0.60900 0.07500 0.05000
C 	C 	0.40070 0.63290 0.03740 -0.04700
H 	H 	0.39640 0.69780 0.99440 0.04400
C 	C 	0.59830 0.42300 0.20080 -0.04000
H 	H 	0.66170 0.44660 0.19300 0.04400
C 	C 	0.59840 0.33030 0.26180 -0.07500
H 	H 	0.66210 0.28970 0.29630 0.04900
C 	C 	0.50600 0.29520 0.27380 0.04600
H 	H 	0.50790 0.23080 0.31700 0.00500
C 	C 	0.40810 0.21150 0.08350 0.04400
H 	H 	0.46750 0.23200 0.09550 0.00300
C 	C 	0.42570 0.15800 0.01520 -0.07500
H 	H 	0.49540 0.14440 0.98010 0.05200
C 	C 	0.34220 0.12430 0.99790 -0.04300
H 	H 	0.35390 0.08740 0.95130 0.04100
C 	C 	0.24090 0.14540 0.04970 0.01000
C 	C 	0.22730 0.20160 0.11620 0.02000
C 	C 	0.12510 0.22660 0.17170 0.02700
C 	C 	0.14800 0.11190 0.04020 -0.05500
H 	H 	0.15440 0.07420 0.99520 0.04400
C 	C 	0.05230 0.13340 0.09450 -0.04900
H 	H 	0.99340 0.10920 0.08750 0.04200
C 	C 	0.03700 0.19170 0.16210 0.00600
C 	C 	0.94180 0.21600 0.22010 -0.03800
H 	H 	0.88060 0.19280 0.21730 0.03900
C 	C 	0.93570 0.27290 0.28070 -0.07800
H 	H 	0.86940 0.29060 0.31940 0.05000
C 	C 	0.02580 0.30560 0.28680 0.04800
H 	H 	0.02000 0.34550 0.32970 0.00600
