data_crystal

_cell_length_a 22.32900
_cell_length_b 16.02600
_cell_length_c 24.52700
_cell_angle_alpha 90.00000
_cell_angle_beta  104.36900
_cell_angle_gamma 90.00000

_symmetry_space_group_name_	'P 1'
_symmetry_space_group_name_H-M	'P 1'

loop_
_symmetry_equiv_pos_as_xyz
  x,y,z

loop_
_atom_site_label
_atom_site_type_symbol
_atom_site_fract_x
_atom_site_fract_y
_atom_site_fract_z
_atom_site_charge
N 	N 	0.93550 0.40630 0.02950 -0.18800
H 	H 	0.91790 0.36310 0.01180 0.09300
C 	C 	0.98940 0.26120 0.92570 0.06300
C 	C 	0.99250 0.33020 0.11240 -0.11000
C 	C 	0.97990 0.25080 0.09040 0.03300
H 	H 	0.96400 0.24540 0.05170 0.00700
C 	C 	0.98940 0.18060 0.12200 -0.14500
H 	H 	0.98300 0.12740 0.10650 0.06400
C 	C 	0.01200 0.33570 0.16820 0.05100
H 	H 	0.02090 0.38850 0.18400 -0.00800
C 	C 	0.00810 0.19370 0.17610 0.06200
H 	H 	0.01440 0.14650 0.19890 -0.00800
C 	C 	0.03080 0.38000 0.95010 0.04600
C 	C 	0.76500 0.56510 0.81960 0.06500
C 	C 	0.79780 0.50230 0.76150 0.10000
C 	C 	0.72800 0.61320 0.85320 0.04400
C 	C 	0.65320 0.66690 0.87760 0.09000
H 	H 	0.61390 0.68440 0.87910 -0.03300
C 	C 	0.80700 0.46720 0.70320 -0.09100
C 	C 	0.76530 0.41820 0.67240 0.02100
H 	H 	0.72790 0.40920 0.68170 -0.00100
C 	C 	0.50780 0.56800 0.56080 0.08600
H 	H 	0.49020 0.58640 0.52440 0.00300
C 	C 	0.53960 0.37940 0.75680 0.10800
C 	C 	0.52690 0.44530 0.67590 0.07600
C 	C 	0.52920 0.49960 0.63640 0.04300
C 	C 	0.55850 0.35010 0.81430 -0.09800
C 	C 	0.52910 0.29810 0.83890 0.05200
H 	H 	0.49260 0.27500 0.81750 -0.00100
C 	C 	0.61480 0.39420 0.84820 0.05300
H 	H 	0.63640 0.43390 0.83300 -0.02600
C 	C 	0.60150 0.32100 0.92130 0.08600
H 	H 	0.61720 0.31220 0.95970 -0.00400
C 	C 	0.62980 0.37290 0.89840 -0.17400
H 	H 	0.66500 0.39750 0.92110 0.06900
C 	C 	0.86420 0.48900 0.69120 0.01700
H 	H 	0.89300 0.52490 0.71300 0.00000
C 	C 	0.87140 0.45200 0.64650 -0.14100
H 	H 	0.90680 0.46460 0.63470 0.06300
N 	N 	0.01970 0.26970 0.20330 -0.14200
N 	N 	0.06420 0.32360 0.98540 -0.16500
N 	N 	0.03780 0.25160 0.96790 -0.16600
H 	H 	0.05080 0.20420 0.98260 0.08200
N 	N 	0.84370 0.49930 0.80700 -0.18000
N 	N 	0.74900 0.54400 0.76870 -0.21600
N 	N 	0.82130 0.54050 0.84490 -0.18500
N 	N 	0.66730 0.61870 0.83870 -0.20700
N 	N 	0.92420 0.48660 0.01200 -0.17500
N 	N 	0.70520 0.68510 0.91340 -0.17200
H 	H 	0.70700 0.71530 0.94280 0.08100
N 	N 	0.98390 0.34360 0.91270 -0.19200
N 	N 	0.75400 0.65400 0.90130 -0.17000
N 	N 	0.57530 0.55790 0.64110 -0.16100
N 	N 	0.55350 0.45170 0.73320 -0.20900
N 	N 	0.54850 0.27460 0.89480 -0.13500
N 	N 	0.50340 0.37240 0.66940 -0.16800
H 	H 	0.48560 0.35360 0.63650 0.11300
N 	N 	0.50730 0.32610 0.71540 -0.10600
N 	N 	0.56180 0.59500 0.59580 -0.15900
H 	H 	0.58410 0.63430 0.58710 0.08300
N 	N 	0.48480 0.50830 0.58910 -0.12900
N 	N 	0.77790 0.37820 0.62370 -0.13300
Ag	Ag	0.15407 0.32879 0.04484 0.46700
Ag	Ag	0.57985 0.57521 0.77242 0.47100
Ag	Ag	0.66578 0.56896 0.70262 0.47400
Ag	Ag	0.86869 0.50429 0.93045 0.46000
Ag	Ag	0.92922 0.42554 0.83804 0.48700
C 	C 	0.83200 0.39800 0.61600 0.07500
H 	H 	0.84420 0.37210 0.58650 0.00000
C 	C 	0.97650 0.40510 0.07650 0.13100
C 	C 	0.96320 0.52920 0.05000 0.06100
N 	N 	0.99690 0.48360 0.09170 -0.20000
N 	N 	0.06450 0.59370 0.97050 -0.18700
H 	H 	0.08210 0.63690 0.98820 0.09400
C 	C 	0.01060 0.73880 0.07430 0.06400
C 	C 	0.00750 0.66980 0.88760 -0.10900
C 	C 	0.02010 0.74920 0.90960 0.03400
H 	H 	0.03600 0.75460 0.94830 0.00800
C 	C 	0.01060 0.81940 0.87800 -0.14400
H 	H 	0.01700 0.87260 0.89350 0.06500
C 	C 	0.98800 0.66430 0.83180 0.05200
H 	H 	0.97910 0.61150 0.81600 -0.00700
C 	C 	0.99190 0.80630 0.82390 0.06300
H 	H 	0.98560 0.85350 0.80110 -0.00700
C 	C 	0.96920 0.62000 0.04990 0.04700
C 	C 	0.23500 0.43490 0.18040 0.06600
C 	C 	0.20220 0.49770 0.23850 0.10100
C 	C 	0.27200 0.38680 0.14680 0.04500
C 	C 	0.34680 0.33310 0.12240 0.09100
H 	H 	0.38610 0.31560 0.12090 -0.03200
C 	C 	0.19300 0.53280 0.29680 -0.09100
C 	C 	0.23470 0.58180 0.32760 0.02100
H 	H 	0.27210 0.59080 0.31830 -0.00100
C 	C 	0.49220 0.43200 0.43920 0.08600
H 	H 	0.50980 0.41360 0.47560 0.00300
C 	C 	0.46040 0.62060 0.24320 0.10800
C 	C 	0.47310 0.55470 0.32410 0.07600
C 	C 	0.47080 0.50040 0.36360 0.04300
C 	C 	0.44150 0.64990 0.18570 -0.09800
C 	C 	0.47090 0.70190 0.16110 0.05200
H 	H 	0.50740 0.72500 0.18250 -0.00100
C 	C 	0.38520 0.60580 0.15180 0.05300
H 	H 	0.36360 0.56610 0.16700 -0.02600
C 	C 	0.39850 0.67900 0.07870 0.08600
H 	H 	0.38280 0.68780 0.04030 -0.00400
C 	C 	0.37020 0.62710 0.10160 -0.17400
H 	H 	0.33500 0.60250 0.07890 0.06900
C 	C 	0.13580 0.51100 0.30880 0.01700
H 	H 	0.10700 0.47510 0.28700 0.00000
C 	C 	0.12860 0.54800 0.35350 -0.14100
H 	H 	0.09320 0.53540 0.36530 0.06300
N 	N 	0.98030 0.73030 0.79670 -0.14200
N 	N 	0.93580 0.67640 0.01460 -0.16500
N 	N 	0.96220 0.74840 0.03210 -0.16600
H 	H 	0.94920 0.79580 0.01740 0.08200
N 	N 	0.15630 0.50070 0.19300 -0.18000
N 	N 	0.25100 0.45600 0.23130 -0.21600
N 	N 	0.17870 0.45950 0.15510 -0.18500
N 	N 	0.33270 0.38130 0.16130 -0.20700
N 	N 	0.07580 0.51340 0.98800 -0.17500
N 	N 	0.29480 0.31490 0.08660 -0.17200
H 	H 	0.29300 0.28470 0.05720 0.08100
N 	N 	0.01610 0.65640 0.08730 -0.19200
N 	N 	0.24600 0.34600 0.09870 -0.17000
N 	N 	0.42470 0.44210 0.35890 -0.16100
N 	N 	0.44650 0.54830 0.26680 -0.20900
N 	N 	0.45150 0.72540 0.10520 -0.13500
N 	N 	0.49660 0.62760 0.33060 -0.16800
H 	H 	0.51440 0.64640 0.36350 0.11300
N 	N 	0.49270 0.67390 0.28460 -0.10600
N 	N 	0.43820 0.40500 0.40420 -0.15900
H 	H 	0.41590 0.36570 0.41290 0.08300
N 	N 	0.51520 0.49170 0.41090 -0.12900
N 	N 	0.22210 0.62180 0.37630 -0.13300
Ag	Ag	0.84593 0.67121 0.95516 0.46700
Ag	Ag	0.42015 0.42479 0.22758 0.47100
Ag	Ag	0.33422 0.43104 0.29738 0.47400
Ag	Ag	0.13131 0.49571 0.06955 0.46000
Ag	Ag	0.07078 0.57446 0.16196 0.48700
C 	C 	0.16800 0.60200 0.38400 0.07500
H 	H 	0.15580 0.62790 0.41350 0.00000
C 	C 	0.02350 0.59490 0.92350 0.13100
C 	C 	0.03680 0.47080 0.95000 0.06100
N 	N 	0.00310 0.51640 0.90830 -0.20000
N 	N 	0.06450 0.90630 0.47050 -0.18700
H 	H 	0.08210 0.86310 0.48820 0.09400
C 	C 	0.01060 0.76120 0.57430 0.06600
C 	C 	0.00750 0.83020 0.38760 -0.11300
C 	C 	0.02010 0.75080 0.40960 0.03900
H 	H 	0.03600 0.74540 0.44830 0.00600
C 	C 	0.01060 0.68060 0.37800 -0.15200
H 	H 	0.01700 0.62740 0.39350 0.06700
C 	C 	0.98800 0.83570 0.33180 0.05500
H 	H 	0.97910 0.88850 0.31600 -0.00900
C 	C 	0.99190 0.69370 0.32390 0.07000
H 	H 	0.98560 0.64650 0.30110 -0.00800
C 	C 	0.96920 0.88000 0.54990 0.04600
C 	C 	0.23500 0.06510 0.68040 0.06600
C 	C 	0.20220 0.00230 0.73850 0.09900
C 	C 	0.27200 0.11320 0.64680 0.04500
C 	C 	0.34680 0.16690 0.62240 0.09100
H 	H 	0.38610 0.18440 0.62090 -0.03200
C 	C 	0.19300 0.96720 0.79680 -0.09100
C 	C 	0.23470 0.91820 0.82760 0.02200
H 	H 	0.27210 0.90920 0.81830 -0.00100
C 	C 	0.49220 0.06800 0.93920 0.08600
H 	H 	0.50980 0.08640 0.97560 0.00300
C 	C 	0.46040 0.87940 0.74320 0.10800
C 	C 	0.47310 0.94530 0.82410 0.07500
C 	C 	0.47080 0.99960 0.86360 0.04400
C 	C 	0.44150 0.85010 0.68570 -0.09800
C 	C 	0.47090 0.79810 0.66110 0.05200
H 	H 	0.50740 0.77500 0.68250 -0.00100
C 	C 	0.38520 0.89420 0.65180 0.05300
H 	H 	0.36360 0.93390 0.66700 -0.02500
C 	C 	0.39850 0.82100 0.57870 0.08600
H 	H 	0.38280 0.81220 0.54030 -0.00300
C 	C 	0.37020 0.87290 0.60160 -0.17400
H 	H 	0.33500 0.89750 0.57890 0.07000
C 	C 	0.13580 0.98900 0.80880 0.02300
H 	H 	0.10700 0.02490 0.78700 -0.00300
C 	C 	0.12860 0.95200 0.85350 -0.14500
H 	H 	0.09320 0.96460 0.86530 0.06600
N 	N 	0.98030 0.76970 0.29670 -0.14300
N 	N 	0.93580 0.82360 0.51460 -0.16500
N 	N 	0.96220 0.75160 0.53210 -0.16700
H 	H 	0.94920 0.70420 0.51740 0.08200
N 	N 	0.15630 0.99930 0.69300 -0.17900
N 	N 	0.25100 0.04400 0.73130 -0.21600
N 	N 	0.17870 0.04050 0.65510 -0.18500
N 	N 	0.33270 0.11870 0.66130 -0.20700
N 	N 	0.07580 0.98660 0.48800 -0.17400
N 	N 	0.29480 0.18510 0.58660 -0.17200
H 	H 	0.29300 0.21530 0.55720 0.08100
N 	N 	0.01610 0.84360 0.58730 -0.19100
N 	N 	0.24600 0.15400 0.59870 -0.17000
N 	N 	0.42470 0.05790 0.85890 -0.16200
N 	N 	0.44650 0.95170 0.76680 -0.20900
N 	N 	0.45150 0.77460 0.60520 -0.13500
N 	N 	0.49660 0.87240 0.83060 -0.16800
H 	H 	0.51440 0.85360 0.86350 0.11300
N 	N 	0.49270 0.82610 0.78460 -0.10600
N 	N 	0.43820 0.09500 0.90420 -0.15900
H 	H 	0.41590 0.13430 0.91290 0.08300
N 	N 	0.51520 0.00830 0.91090 -0.12900
N 	N 	0.22210 0.87820 0.87630 -0.13300
Ag	Ag	0.84593 0.82879 0.45516 0.46800
Ag	Ag	0.42015 0.07521 0.72758 0.47100
Ag	Ag	0.33422 0.06896 0.79738 0.47400
Ag	Ag	0.13131 0.00429 0.56955 0.46000
Ag	Ag	0.07078 0.92554 0.66196 0.48800
C 	C 	0.16800 0.89800 0.88400 0.07800
H 	H 	0.15580 0.87210 0.91350 -0.00000
C 	C 	0.02350 0.90510 0.42350 0.13300
C 	C 	0.03680 0.02920 0.45000 0.05800
N 	N 	0.00310 0.98360 0.40830 -0.20000
N 	N 	0.93550 0.09370 0.52950 -0.18700
H 	H 	0.91790 0.13690 0.51180 0.09400
C 	C 	0.98940 0.23880 0.42570 0.06600
C 	C 	0.99250 0.16980 0.61240 -0.11300
C 	C 	0.97990 0.24920 0.59040 0.03900
H 	H 	0.96400 0.25460 0.55170 0.00600
C 	C 	0.98940 0.31940 0.62200 -0.15200
H 	H 	0.98300 0.37260 0.60650 0.06700
C 	C 	0.01200 0.16430 0.66820 0.05500
H 	H 	0.02090 0.11150 0.68400 -0.00900
C 	C 	0.00810 0.30630 0.67610 0.07000
H 	H 	0.01440 0.35350 0.69890 -0.00800
C 	C 	0.03080 0.12000 0.45010 0.04600
C 	C 	0.76500 0.93490 0.31960 0.06600
C 	C 	0.79780 0.99770 0.26150 0.09900
C 	C 	0.72800 0.88680 0.35320 0.04500
C 	C 	0.65320 0.83310 0.37760 0.09100
H 	H 	0.61390 0.81560 0.37910 -0.03200
C 	C 	0.80700 0.03280 0.20320 -0.09100
C 	C 	0.76530 0.08180 0.17240 0.02200
H 	H 	0.72790 0.09080 0.18170 -0.00100
C 	C 	0.50780 0.93200 0.06080 0.08600
H 	H 	0.49020 0.91360 0.02440 0.00300
C 	C 	0.53960 0.12060 0.25680 0.10800
C 	C 	0.52690 0.05470 0.17590 0.07500
C 	C 	0.52920 0.00040 0.13640 0.04400
C 	C 	0.55850 0.14990 0.31430 -0.09800
C 	C 	0.52910 0.20190 0.33890 0.05200
H 	H 	0.49260 0.22500 0.31750 -0.00100
C 	C 	0.61480 0.10580 0.34820 0.05300
H 	H 	0.63640 0.06610 0.33300 -0.02500
C 	C 	0.60150 0.17900 0.42130 0.08600
H 	H 	0.61720 0.18780 0.45970 -0.00300
C 	C 	0.62980 0.12710 0.39840 -0.17400
H 	H 	0.66500 0.10250 0.42110 0.07000
C 	C 	0.86420 0.01100 0.19120 0.02300
H 	H 	0.89300 0.97510 0.21300 -0.00300
C 	C 	0.87140 0.04800 0.14650 -0.14500
H 	H 	0.90680 0.03540 0.13470 0.06600
N 	N 	0.01970 0.23030 0.70330 -0.14300
N 	N 	0.06420 0.17640 0.48540 -0.16500
N 	N 	0.03780 0.24840 0.46790 -0.16700
H 	H 	0.05080 0.29580 0.48260 0.08200
N 	N 	0.84370 0.00070 0.30700 -0.17900
N 	N 	0.74900 0.95600 0.26870 -0.21600
N 	N 	0.82130 0.95950 0.34490 -0.18500
N 	N 	0.66730 0.88130 0.33870 -0.20700
N 	N 	0.92420 0.01340 0.51200 -0.17400
N 	N 	0.70520 0.81490 0.41340 -0.17200
H 	H 	0.70700 0.78470 0.44280 0.08100
N 	N 	0.98390 0.15640 0.41270 -0.19100
N 	N 	0.75400 0.84600 0.40130 -0.17000
N 	N 	0.57530 0.94210 0.14110 -0.16200
N 	N 	0.55350 0.04830 0.23320 -0.20900
N 	N 	0.54850 0.22540 0.39480 -0.13500
N 	N 	0.50340 0.12760 0.16940 -0.16800
H 	H 	0.48560 0.14640 0.13650 0.11300
N 	N 	0.50730 0.17390 0.21540 -0.10600
N 	N 	0.56180 0.90500 0.09580 -0.15900
H 	H 	0.58410 0.86570 0.08710 0.08300
N 	N 	0.48480 0.99170 0.08910 -0.12900
N 	N 	0.77790 0.12180 0.12370 -0.13300
Ag	Ag	0.15407 0.17121 0.54484 0.46800
Ag	Ag	0.57985 0.92479 0.27242 0.47100
Ag	Ag	0.66578 0.93104 0.20262 0.47400
Ag	Ag	0.86869 0.99571 0.43045 0.46000
Ag	Ag	0.92922 0.07446 0.33804 0.48800
C 	C 	0.83200 0.10200 0.11600 0.07800
H 	H 	0.84420 0.12790 0.08650 -0.00000
C 	C 	0.97650 0.09490 0.57650 0.13300
C 	C 	0.96320 0.97080 0.55000 0.05800
N 	N 	0.99690 0.01640 0.59170 -0.20000
