data_crystal

_cell_length_a 21.56690
_cell_length_b 21.56690
_cell_length_c 7.79690
_cell_angle_alpha 90.00000
_cell_angle_beta  90.00000
_cell_angle_gamma 120.00000

_symmetry_space_group_name_	'P 1'
_symmetry_space_group_name_H-M	'P 1'

loop_
_symmetry_equiv_pos_as_xyz
  x,y,z

loop_
_atom_site_label
_atom_site_type_symbol
_atom_site_fract_x
_atom_site_fract_y
_atom_site_fract_z
_atom_site_charge
F 	F 	0.40670 0.05394 0.52840 -0.48600
F 	F 	0.30760 0.99540 0.66980 -0.39600
F 	F 	0.36250 0.11042 0.65770 -0.44400
O 	O 	0.42226 0.00073 0.83780 -0.22300
O 	O 	0.50349 0.08603 0.14060 -0.30800
N 	N 	0.49523 0.42559 0.83560 -0.19400
C 	C 	0.48600 0.43260 0.66760 0.13200
H 	H 	0.48040 0.47080 0.63240 0.03800
C 	C 	0.48430 0.38610 0.54660 -0.12800
H 	H 	0.47730 0.39260 0.43190 0.12100
C 	C 	0.49310 0.32880 0.59520 0.10700
C 	C 	0.50470 0.37120 0.88220 0.11600
H 	H 	0.51190 0.36610 0.99770 0.03000
C 	C 	0.50430 0.32270 0.76800 -0.13700
H 	H 	0.51160 0.28600 0.80610 0.10400
C 	C 	0.49040 0.27750 0.46450 0.03100
C 	C 	0.44470 0.25960 0.32440 -0.05300
H 	H 	0.41780 0.28210 0.31070 0.11500
C 	C 	0.43830 0.20970 0.20560 -0.00800
H 	H 	0.40590 0.19750 0.11560 0.06000
C 	C 	0.48050 0.17700 0.21980 -0.00600
C 	C 	0.52920 0.19770 0.35630 0.00100
H 	H 	0.55860 0.17780 0.36550 0.05400
C 	C 	0.53430 0.24660 0.47690 -0.05100
H 	H 	0.56680 0.25920 0.56670 0.05600
C 	C 	0.47410 0.12180 0.09690 0.12700
C 	C 	0.43650 0.11200 0.93910 -0.06000
H 	H 	0.42620 0.14750 0.90760 0.12100
C 	C 	0.41450 0.05500 0.83060 0.03000
C 	C 	0.37380 0.05500 0.67110 0.79500
F 	F 	0.94606 0.35276 0.52840 -0.47700
F 	F 	0.00460 0.31220 0.66980 -0.44200
F 	F 	0.88958 0.25208 0.65770 -0.44300
O 	O 	0.99927 0.42153 0.83780 -0.18800
O 	O 	0.91397 0.41746 0.14060 -0.28800
N 	N 	0.57441 0.06964 0.83560 -0.19800
C 	C 	0.56740 0.05340 0.66760 0.13200
H 	H 	0.52920 0.00960 0.63240 0.02500
C 	C 	0.61390 0.09820 0.54660 -0.13100
H 	H 	0.60740 0.08470 0.43190 0.11500
C 	C 	0.67120 0.16430 0.59520 0.10900
C 	C 	0.62880 0.13350 0.88220 0.11600
H 	H 	0.63390 0.14580 0.99770 0.02800
C 	C 	0.67730 0.18160 0.76800 -0.13900
H 	H 	0.71400 0.22560 0.80610 0.10400
C 	C 	0.72250 0.21290 0.46450 0.02700
C 	C 	0.74040 0.18510 0.32440 -0.04600
H 	H 	0.71790 0.13570 0.31070 0.11100
C 	C 	0.79030 0.22860 0.20560 -0.01300
H 	H 	0.80250 0.20840 0.11560 0.06500
C 	C 	0.82300 0.30350 0.21980 0.00300
C 	C 	0.80230 0.33150 0.35630 -0.00500
H 	H 	0.82220 0.38080 0.36550 0.05800
C 	C 	0.75340 0.28770 0.47690 -0.04600
H 	H 	0.74080 0.30760 0.56670 0.05400
C 	C 	0.87820 0.35230 0.09690 0.12000
C 	C 	0.88800 0.32450 0.93910 -0.04200
H 	H 	0.85250 0.27870 0.90760 0.11600
C 	C 	0.94500 0.35950 0.83060 0.01700
C 	C 	0.94500 0.31880 0.67110 0.84200
F 	F 	0.64724 0.59330 0.52840 -0.48000
F 	F 	0.68780 0.69240 0.66980 -0.41500
F 	F 	0.74792 0.63750 0.65770 -0.43700
O 	O 	0.57847 0.57774 0.83780 -0.20600
O 	O 	0.58254 0.49651 0.14060 -0.29900
N 	N 	0.93036 0.50477 0.83560 -0.18800
C 	C 	0.94660 0.51400 0.66760 0.13400
H 	H 	0.99040 0.51960 0.63240 0.04800
C 	C 	0.90180 0.51570 0.54660 -0.12600
H 	H 	0.91530 0.52270 0.43190 0.12700
C 	C 	0.83570 0.50690 0.59520 0.10900
C 	C 	0.86650 0.49530 0.88220 0.11800
H 	H 	0.85420 0.48810 0.99770 0.03100
C 	C 	0.81840 0.49570 0.76800 -0.13600
H 	H 	0.77440 0.48840 0.80610 0.10400
C 	C 	0.78710 0.50960 0.46450 0.03100
C 	C 	0.81490 0.55530 0.32440 -0.04900
H 	H 	0.86430 0.58220 0.31070 0.11900
C 	C 	0.77140 0.56170 0.20560 -0.00900
H 	H 	0.79160 0.59410 0.11560 0.06700
C 	C 	0.69650 0.51950 0.21980 -0.00100
C 	C 	0.66850 0.47080 0.35630 -0.00100
H 	H 	0.61920 0.44140 0.36550 0.05600
C 	C 	0.71230 0.46570 0.47690 -0.04900
H 	H 	0.69240 0.43320 0.56670 0.05500
C 	C 	0.64770 0.52590 0.09690 0.12500
C 	C 	0.67550 0.56350 0.93910 -0.05100
H 	H 	0.72130 0.57380 0.90760 0.12100
C 	C 	0.64050 0.58550 0.83060 0.02500
C 	C 	0.68120 0.62620 0.67110 0.82000
F 	F 	0.59330 0.94606 0.47160 -0.46800
F 	F 	0.69240 0.00460 0.33020 -0.44900
F 	F 	0.63750 0.88958 0.34230 -0.44400
O 	O 	0.57774 0.99927 0.16220 -0.24700
O 	O 	0.49651 0.91397 0.85940 -0.28700
N 	N 	0.50477 0.57441 0.16440 -0.21900
C 	C 	0.51400 0.56740 0.33240 0.13000
H 	H 	0.51960 0.52920 0.36760 0.03500
C 	C 	0.51570 0.61390 0.45340 -0.13000
H 	H 	0.52270 0.60740 0.56810 0.12700
C 	C 	0.50690 0.67120 0.40480 0.10300
C 	C 	0.49530 0.62880 0.11780 0.10800
H 	H 	0.48810 0.63390 0.00230 -0.02200
C 	C 	0.49570 0.67730 0.23200 -0.14700
H 	H 	0.48840 0.71400 0.19390 0.08500
C 	C 	0.50960 0.72250 0.53550 0.04600
C 	C 	0.55530 0.74040 0.67560 -0.06200
H 	H 	0.58220 0.71790 0.68930 0.13300
C 	C 	0.56170 0.79030 0.79440 0.04100
H 	H 	0.59410 0.80250 0.88440 0.09100
C 	C 	0.51950 0.82300 0.78020 -0.04400
C 	C 	0.47080 0.80230 0.64370 0.04000
H 	H 	0.44140 0.82220 0.63450 0.04900
C 	C 	0.46570 0.75340 0.52310 -0.06700
H 	H 	0.43320 0.74080 0.43330 0.05800
C 	C 	0.52590 0.87820 0.90310 0.31100
C 	C 	0.56350 0.88800 0.06090 -0.27100
H 	H 	0.57380 0.85250 0.09240 0.15900
C 	C 	0.58550 0.94500 0.16940 0.08700
C 	C 	0.62620 0.94500 0.32890 0.82100
F 	F 	0.05394 0.64724 0.47160 -0.47700
F 	F 	0.99540 0.68780 0.33020 -0.40100
F 	F 	0.11042 0.74792 0.34230 -0.44500
O 	O 	0.00073 0.57847 0.16220 -0.28400
O 	O 	0.08603 0.58254 0.85940 -0.30800
N 	N 	0.42559 0.93036 0.16440 -0.21100
C 	C 	0.43260 0.94660 0.33240 0.13000
H 	H 	0.47080 0.99040 0.36760 0.04800
C 	C 	0.38610 0.90180 0.45340 -0.12600
H 	H 	0.39260 0.91530 0.56810 0.13200
C 	C 	0.32880 0.83570 0.40480 0.10100
C 	C 	0.37120 0.86650 0.11780 0.10800
H 	H 	0.36610 0.85420 0.00230 -0.01900
C 	C 	0.32270 0.81840 0.23200 -0.14500
H 	H 	0.28600 0.77440 0.19390 0.08400
C 	C 	0.27750 0.78710 0.53550 0.05100
C 	C 	0.25960 0.81490 0.67560 -0.07000
H 	H 	0.28210 0.86430 0.68930 0.13700
C 	C 	0.20970 0.77140 0.79440 0.04700
H 	H 	0.19750 0.79160 0.88440 0.08600
C 	C 	0.17700 0.69650 0.78020 -0.05500
C 	C 	0.19770 0.66850 0.64370 0.04700
H 	H 	0.17780 0.61920 0.63450 0.04500
C 	C 	0.24660 0.71230 0.52310 -0.07300
H 	H 	0.25920 0.69240 0.43330 0.06000
C 	C 	0.12180 0.64770 0.90310 0.32100
C 	C 	0.11200 0.67550 0.06090 -0.29300
H 	H 	0.14750 0.72130 0.09240 0.16500
C 	C 	0.05500 0.64050 0.16940 0.10200
C 	C 	0.05500 0.68120 0.32890 0.77200
F 	F 	0.35276 0.40670 0.47160 -0.47400
F 	F 	0.31220 0.30760 0.33020 -0.42900
F 	F 	0.25208 0.36250 0.34230 -0.45000
O 	O 	0.42153 0.42226 0.16220 -0.27000
O 	O 	0.41746 0.50349 0.85940 -0.30100
N 	N 	0.06964 0.49523 0.16440 -0.22200
C 	C 	0.05340 0.48600 0.33240 0.12700
H 	H 	0.00960 0.48040 0.36760 0.02500
C 	C 	0.09820 0.48430 0.45340 -0.13200
H 	H 	0.08470 0.47730 0.56810 0.12100
C 	C 	0.16430 0.49310 0.40480 0.10100
C 	C 	0.13350 0.50470 0.11780 0.10600
H 	H 	0.14580 0.51190 0.00230 -0.02400
C 	C 	0.18160 0.50430 0.23200 -0.14800
H 	H 	0.22560 0.51160 0.19390 0.08500
C 	C 	0.21290 0.49040 0.53550 0.04700
C 	C 	0.18510 0.44470 0.67560 -0.06700
H 	H 	0.13570 0.41780 0.68930 0.12900
C 	C 	0.22860 0.43830 0.79440 0.04300
H 	H 	0.20840 0.40590 0.88440 0.08400
C 	C 	0.30350 0.48050 0.78020 -0.05100
C 	C 	0.33150 0.52920 0.64370 0.04300
H 	H 	0.38080 0.55860 0.63450 0.04700
C 	C 	0.28770 0.53430 0.52310 -0.07000
H 	H 	0.30760 0.56680 0.43330 0.05900
C 	C 	0.35230 0.47410 0.90310 0.31700
C 	C 	0.32450 0.43650 0.06090 -0.28500
H 	H 	0.27870 0.42620 0.09240 0.16100
C 	C 	0.35950 0.41450 0.16940 0.09400
C 	C 	0.31880 0.37380 0.32890 0.79400
Cu	Cu	0.50000 0.00000 -0.00000 0.88500
Cu	Cu	-0.00000 0.50000 -0.00000 0.88800
Cu	Cu	0.50000 0.50000 -0.00000 0.90000
