data_crystal

_cell_length_a 15.57050
_cell_length_b 22.38230
_cell_length_c 27.29690
_cell_angle_alpha 90.00000
_cell_angle_beta  101.10200
_cell_angle_gamma 90.00000

_symmetry_space_group_name_	'P 1'
_symmetry_space_group_name_H-M	'P 1'

loop_
_symmetry_equiv_pos_as_xyz
  x,y,z

loop_
_atom_site_label
_atom_site_type_symbol
_atom_site_fract_x
_atom_site_fract_y
_atom_site_fract_z
_atom_site_charge
Cu	Cu	0.00319 0.00057 0.38876 0.83500
Cu	Cu	0.83524 0.04574 0.42440 0.84600
Cu	Cu	0.83289 0.04743 0.53716 0.84400
O 	O 	0.07700 0.01900 0.45250 -0.76700
H 	H 	0.10410 0.05180 0.45530 0.23400
O 	O 	0.92490 0.98100 0.43500 -0.77800
H 	H 	0.89720 0.95110 0.43160 0.29500
O 	O 	0.90620 0.06960 0.48930 -0.81600
H 	H 	0.91530 0.10410 0.49020 0.31800
N 	N 	0.66630 0.98030 0.29630 -0.16700
C 	C 	0.69740 0.00900 0.33840 0.12900
H 	H 	0.65790 0.02650 0.35570 -0.04400
N 	N 	0.78030 0.01370 0.35650 -0.31400
C 	C 	0.82880 0.98390 0.32540 0.32400
C 	C 	0.80080 0.95120 0.28370 -0.24900
C 	C 	0.71000 0.95140 0.26500 0.39500
N 	N 	0.66290 0.92700 0.22570 -0.27100
H 	H 	0.60680 0.92970 0.22070 0.11300
H 	H 	0.68750 0.90810 0.20470 1.03400
C 	C 	0.76400 0.96180 0.28570 -0.40200
C 	C 	0.78700 0.93120 0.25310 0.73200
N 	N 	0.72300 0.90700 0.21780 -1.06800
H 	H 	0.73680 0.88480 0.19490 0.15700
H 	H 	0.66890 0.91460 0.21810 -0.23100
N 	N 	0.85870 0.92610 0.25760 -0.30800
C 	C 	0.92970 0.94140 0.29280 0.19200
H 	H 	0.98520 0.92730 0.29110 -0.03400
N 	N 	0.91710 0.97770 0.33030 -0.30500
N 	N 	0.66510 0.19450 0.53360 -0.16900
C 	C 	0.71150 0.14850 0.54430 0.12900
H 	H 	0.72210 0.13720 0.57770 -0.04700
N 	N 	0.74650 0.11450 0.51440 -0.27300
C 	C 	0.73150 0.13400 0.46570 0.09400
C 	C 	0.67720 0.18650 0.45250 -0.05600
C 	C 	0.64250 0.21700 0.48340 0.14700
N 	N 	0.59550 0.26680 0.46990 -0.30200
H 	H 	0.58780 0.27930 0.43950 0.12400
H 	H 	0.57310 0.28620 0.49160 0.10900
N 	N 	0.67100 0.19870 0.39820 -0.11900
C 	C 	0.71880 0.14920 0.38640 0.07300
H 	H 	0.72600 0.14180 0.35390 -0.01800
N 	N 	0.75370 0.11320 0.42450 -0.26700
N 	N 	0.14150 0.07710 0.28650 -0.16700
C 	C 	0.08130 0.05470 0.31000 0.09500
H 	H 	0.02310 0.06290 0.29620 -0.04200
N 	N 	0.09600 0.02200 0.35060 -0.27200
C 	C 	0.18280 0.01410 0.36820 0.06000
C 	C 	0.25200 0.03750 0.34530 -0.05300
C 	C 	0.22970 0.06720 0.30290 0.14400
N 	N 	0.28900 0.09450 0.28050 -0.31500
H 	H 	0.34360 0.09300 0.29390 0.14400
H 	H 	0.27210 0.11340 0.25290 0.14100
N 	N 	0.33200 0.02180 0.37260 -0.14500
C 	C 	0.31010 0.98900 0.40990 0.09200
H 	H 	0.35260 0.97120 0.43410 -0.02500
N 	N 	0.22450 0.98300 0.41060 -0.26000
Cu	Cu	0.99681 0.99943 0.61124 0.88600
Cu	Cu	0.16476 0.95426 0.57560 0.85300
Cu	Cu	0.16711 0.95257 0.46284 0.85400
O 	O 	0.92300 0.98100 0.54750 -0.72000
H 	H 	0.89590 0.94820 0.54470 0.23800
O 	O 	0.07510 0.01900 0.56500 -0.84800
H 	H 	0.10280 0.04890 0.56840 0.30000
O 	O 	0.09380 0.93040 0.51070 -0.81100
H 	H 	0.08470 0.89590 0.50980 0.30700
N 	N 	0.33370 0.01970 0.70370 -0.19500
C 	C 	0.30260 0.99100 0.66160 0.17800
H 	H 	0.34210 0.97350 0.64430 -0.05100
N 	N 	0.21970 0.98630 0.64350 -0.29900
C 	C 	0.17120 0.01610 0.67460 0.27300
C 	C 	0.19920 0.04880 0.71630 -0.25600
C 	C 	0.29000 0.04860 0.73500 0.37100
N 	N 	0.33710 0.07300 0.77430 -0.26600
H 	H 	0.39320 0.07030 0.77930 0.10500
H 	H 	0.31250 0.09190 0.79530 1.02200
C 	C 	0.23600 0.03820 0.71430 -0.37700
C 	C 	0.21300 0.06880 0.74690 0.71600
N 	N 	0.27700 0.09300 0.78220 -1.05800
H 	H 	0.26320 0.11520 0.80510 0.14900
H 	H 	0.33110 0.08540 0.78190 -0.23100
N 	N 	0.14130 0.07390 0.74240 -0.31500
C 	C 	0.07030 0.05860 0.70720 0.17500
H 	H 	0.01480 0.07270 0.70890 -0.06700
N 	N 	0.08290 0.02230 0.66970 -0.33200
N 	N 	0.33490 0.80550 0.46640 -0.16800
C 	C 	0.28850 0.85150 0.45570 0.13100
H 	H 	0.27790 0.86280 0.42230 -0.04700
N 	N 	0.25350 0.88550 0.48560 -0.27300
C 	C 	0.26850 0.86600 0.53430 0.09600
C 	C 	0.32280 0.81350 0.54750 -0.05600
C 	C 	0.35750 0.78300 0.51660 0.15000
N 	N 	0.40450 0.73320 0.53010 -0.30300
H 	H 	0.41220 0.72070 0.56050 0.12600
H 	H 	0.42690 0.71380 0.50840 0.11100
N 	N 	0.32900 0.80130 0.60180 -0.11800
C 	C 	0.28120 0.85080 0.61360 0.07200
H 	H 	0.27400 0.85820 0.64610 -0.01900
N 	N 	0.24630 0.88680 0.57550 -0.26800
N 	N 	0.85850 0.92290 0.71350 -0.15600
C 	C 	0.91870 0.94530 0.69000 0.10800
H 	H 	0.97690 0.93710 0.70380 -0.01000
N 	N 	0.90400 0.97800 0.64940 -0.26100
C 	C 	0.81720 0.98590 0.63180 0.10400
C 	C 	0.74800 0.96250 0.65470 -0.05400
C 	C 	0.77030 0.93280 0.69710 0.16000
N 	N 	0.71100 0.90550 0.71950 -0.31800
H 	H 	0.65640 0.90700 0.70610 0.15300
H 	H 	0.72790 0.88660 0.74710 0.15100
N 	N 	0.66800 0.97820 0.62740 -0.11300
C 	C 	0.68990 0.01100 0.59010 0.04200
H 	H 	0.64740 0.02880 0.56590 -0.01800
N 	N 	0.77550 0.01700 0.58940 -0.27700
Cu	Cu	0.00000 0.00000 0.50000 0.92300
Cu	Cu	0.50319 0.50057 0.38876 0.86100
Cu	Cu	0.33524 0.54574 0.42440 0.84900
Cu	Cu	0.33289 0.54743 0.53716 0.84800
O 	O 	0.57700 0.51900 0.45250 -0.74700
H 	H 	0.60410 0.55180 0.45530 0.23900
O 	O 	0.42490 0.48100 0.43500 -0.81700
H 	H 	0.39720 0.45110 0.43160 0.29800
O 	O 	0.40620 0.56960 0.48930 -0.81800
H 	H 	0.41530 0.60410 0.49020 0.31500
N 	N 	0.16630 0.48030 0.29630 -0.18500
C 	C 	0.19740 0.50900 0.33840 0.15100
H 	H 	0.15790 0.52650 0.35570 -0.05300
N 	N 	0.28030 0.51370 0.35650 -0.30700
C 	C 	0.32880 0.48390 0.32540 0.29600
C 	C 	0.30080 0.45120 0.28370 -0.24900
C 	C 	0.21000 0.45140 0.26500 0.37800
N 	N 	0.16290 0.42700 0.22570 -0.26600
H 	H 	0.10680 0.42970 0.22070 0.10000
H 	H 	0.18750 0.40810 0.20470 1.02000
C 	C 	0.26400 0.46180 0.28570 -0.38800
C 	C 	0.28700 0.43120 0.25310 0.71800
N 	N 	0.22300 0.40700 0.21780 -1.05700
H 	H 	0.23680 0.38480 0.19490 0.15000
H 	H 	0.16890 0.41460 0.21810 -0.23000
N 	N 	0.35870 0.42610 0.25760 -0.31000
C 	C 	0.42970 0.44140 0.29280 0.18200
H 	H 	0.48520 0.42730 0.29110 -0.05000
N 	N 	0.41710 0.47770 0.33030 -0.31800
N 	N 	0.16510 0.69450 0.53360 -0.17000
C 	C 	0.21150 0.64850 0.54430 0.12800
H 	H 	0.22210 0.63720 0.57770 -0.04800
N 	N 	0.24650 0.61450 0.51440 -0.27300
C 	C 	0.23150 0.63400 0.46570 0.09300
C 	C 	0.17720 0.68650 0.45250 -0.05700
C 	C 	0.14250 0.71700 0.48340 0.14300
N 	N 	0.09550 0.76680 0.46990 -0.30000
H 	H 	0.08780 0.77930 0.43950 0.11900
H 	H 	0.07310 0.78620 0.49160 0.10400
N 	N 	0.17100 0.69870 0.39820 -0.12200
C 	C 	0.21880 0.64920 0.38640 0.07100
H 	H 	0.22600 0.64180 0.35390 -0.02000
N 	N 	0.25370 0.61320 0.42450 -0.26800
N 	N 	0.64150 0.57710 0.28650 -0.16100
C 	C 	0.58130 0.55470 0.31000 0.10300
H 	H 	0.52310 0.56290 0.29620 -0.02600
N 	N 	0.59600 0.52200 0.35060 -0.26600
C 	C 	0.68280 0.51410 0.36820 0.08400
C 	C 	0.75200 0.53750 0.34530 -0.05300
C 	C 	0.72970 0.56720 0.30290 0.15500
N 	N 	0.78900 0.59450 0.28050 -0.31900
H 	H 	0.84360 0.59300 0.29390 0.15500
H 	H 	0.77210 0.61340 0.25290 0.14900
N 	N 	0.83200 0.52180 0.37260 -0.12400
C 	C 	0.81010 0.48900 0.40990 0.06700
H 	H 	0.85260 0.47120 0.43410 -0.01500
N 	N 	0.72450 0.48300 0.41060 -0.26800
Cu	Cu	0.49681 0.49943 0.61124 0.86100
Cu	Cu	0.66476 0.45426 0.57560 0.85000
Cu	Cu	0.66711 0.45257 0.46284 0.85000
O 	O 	0.42300 0.48100 0.54750 -0.74700
H 	H 	0.39590 0.44820 0.54470 0.23500
O 	O 	0.57510 0.51900 0.56500 -0.81700
H 	H 	0.60280 0.54890 0.56840 0.30100
O 	O 	0.59380 0.43040 0.51070 -0.81800
H 	H 	0.58470 0.39590 0.50980 0.31300
N 	N 	0.83370 0.51970 0.70370 -0.17700
C 	C 	0.80260 0.49100 0.66160 0.15500
H 	H 	0.84210 0.47350 0.64430 -0.04200
N 	N 	0.71970 0.48630 0.64350 -0.30700
C 	C 	0.67120 0.51610 0.67460 0.30200
C 	C 	0.69920 0.54880 0.71630 -0.25600
C 	C 	0.79000 0.54860 0.73500 0.38800
N 	N 	0.83710 0.57300 0.77430 -0.27100
H 	H 	0.89320 0.57030 0.77930 0.11900
H 	H 	0.81250 0.59190 0.79530 1.03700
C 	C 	0.73600 0.53820 0.71430 -0.39100
C 	C 	0.71300 0.56880 0.74690 0.73000
N 	N 	0.77700 0.59300 0.78220 -1.07000
H 	H 	0.76320 0.61520 0.80510 0.15600
H 	H 	0.83110 0.58540 0.78190 -0.23200
N 	N 	0.64130 0.57390 0.74240 -0.31200
C 	C 	0.57030 0.55860 0.70720 0.18500
H 	H 	0.51480 0.57270 0.70890 -0.05000
N 	N 	0.58290 0.52230 0.66970 -0.31900
N 	N 	0.83490 0.30550 0.46640 -0.16600
C 	C 	0.78850 0.35150 0.45570 0.13200
H 	H 	0.77790 0.36280 0.42230 -0.04600
N 	N 	0.75350 0.38550 0.48560 -0.27200
C 	C 	0.76850 0.36600 0.53430 0.09700
C 	C 	0.82280 0.31350 0.54750 -0.05600
C 	C 	0.85750 0.28300 0.51660 0.15400
N 	N 	0.90450 0.23320 0.53010 -0.30500
H 	H 	0.91220 0.22070 0.56050 0.13100
H 	H 	0.92690 0.21380 0.50840 0.11700
N 	N 	0.82900 0.30130 0.60180 -0.11500
C 	C 	0.78120 0.35080 0.61360 0.07500
H 	H 	0.77400 0.35820 0.64610 -0.01700
N 	N 	0.74630 0.38680 0.57550 -0.26700
N 	N 	0.35850 0.42290 0.71350 -0.16100
C 	C 	0.41870 0.44530 0.69000 0.10100
H 	H 	0.47690 0.43710 0.70380 -0.02600
N 	N 	0.40400 0.47800 0.64940 -0.26600
C 	C 	0.31720 0.48590 0.63180 0.08200
C 	C 	0.24800 0.46250 0.65470 -0.05400
C 	C 	0.27030 0.43280 0.69710 0.15000
N 	N 	0.21100 0.40550 0.71950 -0.31400
H 	H 	0.15640 0.40700 0.70610 0.14200
H 	H 	0.22790 0.38660 0.74710 0.14300
N 	N 	0.16800 0.47820 0.62740 -0.13300
C 	C 	0.18990 0.51100 0.59010 0.06400
H 	H 	0.14740 0.52880 0.56590 -0.02600
N 	N 	0.27550 0.51700 0.58940 -0.27000
Cu	Cu	0.50000 0.50000 0.50000 0.95000
Cu	Cu	0.99681 0.00057 0.11124 0.86600
Cu	Cu	0.16476 0.04574 0.07560 0.83900
Cu	Cu	0.16711 0.04743 0.96284 0.84800
O 	O 	0.92300 0.01900 0.04750 -0.74900
H 	H 	0.89590 0.05180 0.04470 0.23600
O 	O 	0.07510 0.98100 0.06500 -0.81200
H 	H 	0.10280 0.95110 0.06840 0.29300
O 	O 	0.09380 0.06960 0.01070 -0.83800
H 	H 	0.08470 0.10410 0.00980 0.30800
N 	N 	0.33370 0.98030 0.20370 -0.16600
C 	C 	0.30260 0.00900 0.16160 0.12500
H 	H 	0.34210 0.02650 0.14430 -0.04500
N 	N 	0.21970 0.01370 0.14350 -0.31900
C 	C 	0.17120 0.98390 0.17460 0.31800
C 	C 	0.19920 0.95120 0.21630 -0.24900
C 	C 	0.29000 0.95140 0.23500 0.39400
N 	N 	0.33710 0.92700 0.27430 -0.27200
H 	H 	0.39320 0.92970 0.27930 0.11400
H 	H 	0.31250 0.90810 0.29530 1.03400
C 	C 	0.23600 0.96180 0.21430 -0.40100
C 	C 	0.21300 0.93120 0.24690 0.72800
N 	N 	0.27700 0.90700 0.28220 -1.06800
H 	H 	0.26320 0.88480 0.30510 0.15300
H 	H 	0.33110 0.91460 0.28190 -0.23100
N 	N 	0.14130 0.92610 0.24240 -0.31400
C 	C 	0.07030 0.94140 0.20720 0.18400
H 	H 	0.01480 0.92730 0.20890 -0.06100
N 	N 	0.08290 0.97770 0.16970 -0.32500
N 	N 	0.33490 0.19450 0.96640 -0.15500
C 	C 	0.28850 0.14850 0.95570 0.13100
H 	H 	0.27790 0.13720 0.92230 -0.04800
N 	N 	0.25350 0.11450 0.98560 -0.25900
C 	C 	0.26850 0.13400 0.03430 0.07000
C 	C 	0.32280 0.18650 0.04750 -0.04800
C 	C 	0.35750 0.21700 0.01660 0.12300
N 	N 	0.40450 0.26680 0.03010 -0.29600
H 	H 	0.41220 0.27930 0.06050 0.12000
H 	H 	0.42690 0.28620 0.00840 0.10000
N 	N 	0.32900 0.19870 0.10180 -0.12100
C 	C 	0.28120 0.14920 0.11360 0.06900
H 	H 	0.27400 0.14180 0.14610 -0.02100
N 	N 	0.24630 0.11320 0.07550 -0.26700
N 	N 	0.85850 0.07710 0.21350 -0.15800
C 	C 	0.91870 0.05470 0.19000 0.10000
H 	H 	0.97690 0.06290 0.20380 -0.01500
N 	N 	0.90400 0.02200 0.14940 -0.26300
C 	C 	0.81720 0.01410 0.13180 0.06500
C 	C 	0.74800 0.03750 0.15470 -0.05300
C 	C 	0.77030 0.06720 0.19710 0.14800
N 	N 	0.71100 0.09450 0.21950 -0.31600
H 	H 	0.65640 0.09300 0.20610 0.14500
H 	H 	0.72790 0.11340 0.24710 0.14500
N 	N 	0.66800 0.02180 0.12740 -0.14500
C 	C 	0.68990 0.98900 0.09010 0.09100
H 	H 	0.64740 0.97120 0.06590 -0.02800
N 	N 	0.77550 0.98300 0.08940 -0.26000
Cu	Cu	0.00319 0.99943 0.88876 0.85600
Cu	Cu	0.83524 0.95426 0.92440 0.85800
Cu	Cu	0.83289 0.95257 0.03716 0.85000
O 	O 	0.07700 0.98100 0.95250 -0.73200
H 	H 	0.10410 0.94820 0.95530 0.23600
O 	O 	0.92490 0.01900 0.93500 -0.80500
H 	H 	0.89720 0.04890 0.93160 0.30200
O 	O 	0.90620 0.93040 0.98930 -0.78700
H 	H 	0.91530 0.89590 0.99020 0.31800
N 	N 	0.66630 0.01970 0.79630 -0.19400
C 	C 	0.69740 0.99100 0.83840 0.17800
H 	H 	0.65790 0.97350 0.85570 -0.04900
N 	N 	0.78030 0.98630 0.85650 -0.29700
C 	C 	0.82880 0.01610 0.82540 0.28300
C 	C 	0.80080 0.04880 0.78370 -0.25500
C 	C 	0.71000 0.04860 0.76500 0.37400
N 	N 	0.66290 0.07300 0.72570 -0.26500
H 	H 	0.60680 0.07030 0.72070 0.10500
H 	H 	0.68750 0.09190 0.70470 1.02300
C 	C 	0.76400 0.03820 0.78570 -0.38000
C 	C 	0.78700 0.06880 0.75310 0.72100
N 	N 	0.72300 0.09300 0.71780 -1.05900
H 	H 	0.73680 0.11520 0.69490 0.15300
H 	H 	0.66890 0.08540 0.71810 -0.23200
N 	N 	0.85870 0.07390 0.75760 -0.30700
C 	C 	0.92970 0.05860 0.79280 0.18400
H 	H 	0.98520 0.07270 0.79110 -0.03800
N 	N 	0.91710 0.02230 0.83030 -0.31200
N 	N 	0.66510 0.80550 0.03360 -0.18100
C 	C 	0.71150 0.85150 0.04430 0.13000
H 	H 	0.72210 0.86280 0.07770 -0.04600
N 	N 	0.74650 0.88550 0.01440 -0.28600
C 	C 	0.73150 0.86600 0.96570 0.12000
C 	C 	0.67720 0.81350 0.95250 -0.06500
C 	C 	0.64250 0.78300 0.98340 0.17300
N 	N 	0.59550 0.73320 0.96990 -0.30900
H 	H 	0.58780 0.72070 0.93950 0.12900
H 	H 	0.57310 0.71380 0.99160 0.12000
N 	N 	0.67100 0.80130 0.89820 -0.11600
C 	C 	0.71880 0.85080 0.88640 0.07700
H 	H 	0.72600 0.85820 0.85390 -0.01700
N 	N 	0.75370 0.88680 0.92450 -0.26800
N 	N 	0.14150 0.92290 0.78650 -0.16400
C 	C 	0.08130 0.94530 0.81000 0.10400
H 	H 	0.02310 0.93710 0.79620 -0.03600
N 	N 	0.09600 0.97800 0.85060 -0.27000
C 	C 	0.18280 0.98590 0.86820 0.10100
C 	C 	0.25200 0.96250 0.84530 -0.05400
C 	C 	0.22970 0.93280 0.80290 0.15800
N 	N 	0.28900 0.90550 0.78050 -0.31700
H 	H 	0.34360 0.90700 0.79390 0.15200
H 	H 	0.27210 0.88660 0.75290 0.14700
N 	N 	0.33200 0.97820 0.87260 -0.11200
C 	C 	0.31010 0.01100 0.90990 0.04100
H 	H 	0.35260 0.02880 0.93410 -0.01300
N 	N 	0.22450 0.01700 0.91060 -0.27800
Cu	Cu	-0.00000 0.00000 -0.00000 0.91300
Cu	Cu	0.49681 0.50057 0.11124 0.86000
Cu	Cu	0.66476 0.54574 0.07560 0.84800
Cu	Cu	0.66711 0.54743 0.96284 0.85600
O 	O 	0.42300 0.51900 0.04750 -0.75100
H 	H 	0.39590 0.55180 0.04470 0.23300
O 	O 	0.57510 0.48100 0.06500 -0.81900
H 	H 	0.60280 0.45110 0.06840 0.29700
O 	O 	0.59380 0.56960 0.01070 -0.82700
H 	H 	0.58470 0.60410 0.00980 0.31000
N 	N 	0.83370 0.48030 0.20370 -0.17700
C 	C 	0.80260 0.50900 0.16160 0.15400
H 	H 	0.84210 0.52650 0.14430 -0.04400
N 	N 	0.71970 0.51370 0.14350 -0.30800
C 	C 	0.67120 0.48390 0.17460 0.30000
C 	C 	0.69920 0.45120 0.21630 -0.25600
C 	C 	0.79000 0.45140 0.23500 0.38700
N 	N 	0.83710 0.42700 0.27430 -0.27100
H 	H 	0.89320 0.42970 0.27930 0.11800
H 	H 	0.81250 0.40810 0.29530 1.03500
C 	C 	0.73600 0.46180 0.21430 -0.39100
C 	C 	0.71300 0.43120 0.24690 0.72800
N 	N 	0.77700 0.40700 0.28220 -1.06800
H 	H 	0.76320 0.38480 0.30510 0.15500
H 	H 	0.83110 0.41460 0.28190 -0.23200
N 	N 	0.64130 0.42610 0.24240 -0.31200
C 	C 	0.57030 0.44140 0.20720 0.18400
H 	H 	0.51480 0.42730 0.20890 -0.05000
N 	N 	0.58290 0.47770 0.16970 -0.31900
N 	N 	0.83490 0.69450 0.96640 -0.15200
C 	C 	0.78850 0.64850 0.95570 0.13400
H 	H 	0.77790 0.63720 0.92230 -0.04500
N 	N 	0.75350 0.61450 0.98560 -0.25800
C 	C 	0.76850 0.63400 0.03430 0.07400
C 	C 	0.82280 0.68650 0.04750 -0.04700
C 	C 	0.85750 0.71700 0.01660 0.13000
N 	N 	0.90450 0.76680 0.03010 -0.29900
H 	H 	0.91220 0.77930 0.06050 0.12800
H 	H 	0.92690 0.78620 0.00840 0.10900
N 	N 	0.82900 0.69870 0.10180 -0.11700
C 	C 	0.78120 0.64920 0.11360 0.07300
H 	H 	0.77400 0.64180 0.14610 -0.01700
N 	N 	0.74630 0.61320 0.07550 -0.26500
N 	N 	0.35850 0.57710 0.21350 -0.16100
C 	C 	0.41870 0.55470 0.19000 0.10100
H 	H 	0.47690 0.56290 0.20380 -0.02600
N 	N 	0.40400 0.52200 0.14940 -0.26600
C 	C 	0.31720 0.51410 0.13180 0.08100
C 	C 	0.24800 0.53750 0.15470 -0.05500
C 	C 	0.27030 0.56720 0.19710 0.15000
N 	N 	0.21100 0.59450 0.21950 -0.31400
H 	H 	0.15640 0.59300 0.20610 0.14100
H 	H 	0.22790 0.61340 0.24710 0.14300
N 	N 	0.16800 0.52180 0.12740 -0.13400
C 	C 	0.18990 0.48900 0.09010 0.06300
H 	H 	0.14740 0.47120 0.06590 -0.03000
N 	N 	0.27550 0.48300 0.08940 -0.27100
Cu	Cu	0.50319 0.49943 0.88876 0.86200
Cu	Cu	0.33524 0.45426 0.92440 0.85100
Cu	Cu	0.33289 0.45257 0.03716 0.84300
O 	O 	0.57700 0.48100 0.95250 -0.74000
H 	H 	0.60410 0.44820 0.95530 0.24100
O 	O 	0.42490 0.51900 0.93500 -0.81100
H 	H 	0.39720 0.54890 0.93160 0.30000
O 	O 	0.40620 0.43040 0.98930 -0.80500
H 	H 	0.41530 0.39590 0.99020 0.31800
N 	N 	0.16630 0.51970 0.79630 -0.18400
C 	C 	0.19740 0.49100 0.83840 0.15200
H 	H 	0.15790 0.47350 0.85570 -0.05200
N 	N 	0.28030 0.48630 0.85650 -0.30700
C 	C 	0.32880 0.51610 0.82540 0.29700
C 	C 	0.30080 0.54880 0.78370 -0.24900
C 	C 	0.21000 0.54860 0.76500 0.37900
N 	N 	0.16290 0.57300 0.72570 -0.26600
H 	H 	0.10680 0.57030 0.72070 0.10100
H 	H 	0.18750 0.59190 0.70470 1.02100
C 	C 	0.26400 0.53820 0.78570 -0.38900
C 	C 	0.28700 0.56880 0.75310 0.72000
N 	N 	0.22300 0.59300 0.71780 -1.05800
H 	H 	0.23680 0.61520 0.69490 0.15100
H 	H 	0.16890 0.58540 0.71810 -0.23000
N 	N 	0.35870 0.57390 0.75760 -0.31000
C 	C 	0.42970 0.55860 0.79280 0.18300
H 	H 	0.48520 0.57270 0.79110 -0.04900
N 	N 	0.41710 0.52230 0.83030 -0.31800
N 	N 	0.16510 0.30550 0.03360 -0.18400
C 	C 	0.21150 0.35150 0.04430 0.12700
H 	H 	0.22210 0.36280 0.07770 -0.04900
N 	N 	0.24650 0.38550 0.01440 -0.28800
C 	C 	0.23150 0.36600 0.96570 0.11600
C 	C 	0.17720 0.31350 0.95250 -0.06600
C 	C 	0.14250 0.28300 0.98340 0.16700
N 	N 	0.09550 0.23320 0.96990 -0.30600
H 	H 	0.08780 0.22070 0.93950 0.12100
H 	H 	0.07310 0.21380 0.99160 0.11200
N 	N 	0.17100 0.30130 0.89820 -0.12000
C 	C 	0.21880 0.35080 0.88640 0.07200
H 	H 	0.22600 0.35820 0.85390 -0.02100
N 	N 	0.25370 0.38680 0.92450 -0.27000
N 	N 	0.64150 0.42290 0.78650 -0.16100
C 	C 	0.58130 0.44530 0.81000 0.10300
H 	H 	0.52310 0.43710 0.79620 -0.02600
N 	N 	0.59600 0.47800 0.85060 -0.26600
C 	C 	0.68280 0.48590 0.86820 0.08400
C 	C 	0.75200 0.46250 0.84530 -0.05300
C 	C 	0.72970 0.43280 0.80290 0.15600
N 	N 	0.78900 0.40550 0.78050 -0.31900
H 	H 	0.84360 0.40700 0.79390 0.15600
H 	H 	0.77210 0.38660 0.75290 0.14900
N 	N 	0.83200 0.47820 0.87260 -0.12300
C 	C 	0.81010 0.51100 0.90990 0.06800
H 	H 	0.85260 0.52880 0.93410 -0.01200
N 	N 	0.72450 0.51700 0.91060 -0.26700
Cu	Cu	0.50000 0.50000 -0.00000 0.94000
