data_crystal

_cell_length_a 13.34510
_cell_length_b 23.73490
_cell_length_c 13.17090
_cell_angle_alpha 90.00000
_cell_angle_beta  90.00000
_cell_angle_gamma 90.00000

_symmetry_space_group_name_	'P 1'
_symmetry_space_group_name_H-M	'P 1'

loop_
_symmetry_equiv_pos_as_xyz
  x,y,z

loop_
_atom_site_label
_atom_site_type_symbol
_atom_site_fract_x
_atom_site_fract_y
_atom_site_fract_z
_atom_site_charge
O 	O 	0.56380 0.56556 0.39850 -0.46500
O 	O 	0.69580 0.61877 0.40890 0.35400
O 	O 	0.51360 0.68395 0.33240 -0.37200
N 	N 	0.97480 0.52230 0.22770 0.10600
C 	C 	0.65240 0.57782 0.37190 0.23100
C 	C 	0.47960 0.66570 0.25930 0.28300
H 	H 	0.44180 0.63310 0.26760 -0.04800
C 	C 	0.70600 0.54920 0.28590 -0.06400
C 	C 	0.82000 0.53230 0.32320 -0.12000
C 	C 	0.81460 0.55200 0.28340 0.16900
C 	C 	0.86800 0.51360 0.23280 0.20900
C 	C 	0.71280 0.53470 0.31490 0.02700
O 	O 	0.68560 0.63100 0.37980 -0.66200
O 	O 	0.36600 0.53400 0.48180 -0.20100
C 	C 	0.55900 0.93370 0.52160 -0.07100
O 	O 	0.06380 0.06556 0.89850 -0.61400
O 	O 	0.19580 0.11877 0.90890 -5.53600
O 	O 	0.01360 0.18395 0.83240 -1.08000
N 	N 	0.47480 0.02230 0.72770 3.75400
C 	C 	0.15240 0.07782 0.87190 3.18400
C 	C 	0.97960 0.16570 0.75930 0.03700
H 	H 	0.94180 0.13310 0.76760 -0.68400
C 	C 	0.20600 0.04920 0.78590 12.48700
C 	C 	0.32000 0.03230 0.82320 -18.38900
C 	C 	0.31460 0.05200 0.78340 25.69300
C 	C 	0.36800 0.01360 0.73280 -26.59800
C 	C 	0.21280 0.03470 0.81490 -17.31800
O 	O 	0.18560 0.13100 0.87980 4.08100
O 	O 	0.86600 0.03400 0.98180 0.65400
C 	C 	0.05900 0.43370 0.02160 -0.84500
O 	O 	0.43620 0.43444 0.39850 -0.47000
O 	O 	0.30420 0.38123 0.40890 -0.01900
O 	O 	0.48640 0.31605 0.33240 -0.55400
N 	N 	0.02520 0.47770 0.22770 -0.16000
C 	C 	0.34760 0.42218 0.37190 0.29000
C 	C 	0.52040 0.33430 0.25930 0.27100
H 	H 	0.55820 0.36690 0.26760 -0.07800
C 	C 	0.29400 0.45080 0.28590 0.00500
C 	C 	0.18000 0.46770 0.32320 -0.14500
C 	C 	0.18540 0.44800 0.28340 0.14100
C 	C 	0.13200 0.48640 0.23280 0.04700
C 	C 	0.28720 0.46530 0.31490 -0.06800
O 	O 	0.31440 0.36900 0.37980 -0.38200
O 	O 	0.63400 0.46600 0.48180 -0.21000
C 	C 	0.44100 0.06630 0.52160 0.22700
O 	O 	0.93620 0.93444 0.89850 -1.88000
O 	O 	0.80420 0.88123 0.90890 6.60300
O 	O 	0.98640 0.81605 0.83240 0.02300
N 	N 	0.52520 0.97770 0.72770 -3.85000
C 	C 	0.84760 0.92218 0.87190 -0.84400
C 	C 	0.02040 0.83430 0.75930 0.56800
H 	H 	0.05820 0.86690 0.76760 0.32800
C 	C 	0.79400 0.95080 0.78590 -15.44200
C 	C 	0.68000 0.96770 0.82320 15.74100
C 	C 	0.68540 0.94800 0.78340 -21.45900
C 	C 	0.63200 0.98640 0.73280 26.44000
C 	C 	0.78720 0.96530 0.81490 13.23200
O 	O 	0.81440 0.86900 0.87980 -6.42200
O 	O 	0.13400 0.96600 0.98180 0.11200
C 	C 	0.94100 0.56630 0.02160 -0.94800
O 	O 	0.93620 0.06556 0.60150 -0.46300
O 	O 	0.80420 0.11877 0.59110 -5.57300
O 	O 	0.98640 0.18395 0.66760 -0.99700
N 	N 	0.52520 0.02230 0.77230 3.76600
C 	C 	0.84760 0.07782 0.62810 3.16400
C 	C 	0.02040 0.16570 0.74070 1.15300
H 	H 	0.05820 0.13310 0.73240 -1.07200
C 	C 	0.79400 0.04920 0.71410 12.57700
C 	C 	0.68000 0.03230 0.67680 -18.22600
C 	C 	0.68540 0.05200 0.71660 25.60900
C 	C 	0.63200 0.01360 0.76720 -26.90400
C 	C 	0.78720 0.03470 0.68510 -17.37000
O 	O 	0.81440 0.13100 0.62020 4.14200
O 	O 	0.13400 0.03400 0.51820 -0.19400
C 	C 	0.94100 0.43370 0.47840 0.00100
O 	O 	0.43620 0.56556 0.10150 -0.43700
O 	O 	0.30420 0.61877 0.09110 0.25500
O 	O 	0.48640 0.68395 0.16760 -0.38400
N 	N 	0.02520 0.52230 0.27230 -0.16500
C 	C 	0.34760 0.57782 0.12810 0.24700
C 	C 	0.52040 0.66570 0.24070 0.27500
H 	H 	0.55820 0.63310 0.23240 -0.03300
C 	C 	0.29400 0.54920 0.21410 0.01100
C 	C 	0.18000 0.53230 0.17680 -0.07700
C 	C 	0.18540 0.55200 0.21660 0.11300
C 	C 	0.13200 0.51360 0.26720 0.06200
C 	C 	0.28720 0.53470 0.18510 -0.03900
O 	O 	0.31440 0.63100 0.12020 -0.58100
O 	O 	0.63400 0.53400 0.01820 -1.12000
C 	C 	0.44100 0.93370 0.97840 0.75800
O 	O 	0.06380 0.93444 0.60150 -1.90200
O 	O 	0.19580 0.88123 0.59110 6.45100
O 	O 	0.01360 0.81605 0.66760 0.01800
N 	N 	0.47480 0.97770 0.77230 -3.83700
C 	C 	0.15240 0.92218 0.62810 -0.78400
C 	C 	0.97960 0.83430 0.74070 -0.45900
H 	H 	0.94180 0.86690 0.73240 0.72500
C 	C 	0.20600 0.95080 0.71410 -15.33100
C 	C 	0.32000 0.96770 0.67680 15.70500
C 	C 	0.31460 0.94800 0.71660 -21.35200
C 	C 	0.36800 0.98640 0.76720 26.14700
C 	C 	0.21280 0.96530 0.68510 13.06400
O 	O 	0.18560 0.86900 0.62020 -6.23500
O 	O 	0.86600 0.96600 0.51820 -0.71400
C 	C 	0.05900 0.56630 0.47840 0.00900
O 	O 	0.56380 0.43444 0.10150 -0.44300
O 	O 	0.69580 0.38123 0.09110 -0.06000
O 	O 	0.51360 0.31605 0.16760 -0.56200
N 	N 	0.97480 0.47770 0.27230 0.11300
C 	C 	0.65240 0.42218 0.12810 0.31000
C 	C 	0.47960 0.33430 0.24070 0.27700
H 	H 	0.44180 0.36690 0.23240 -0.07300
C 	C 	0.70600 0.45080 0.21410 0.06200
C 	C 	0.82000 0.46770 0.17680 -0.08600
C 	C 	0.81460 0.44800 0.21660 0.18400
C 	C 	0.86800 0.48640 0.26720 -0.16300
C 	C 	0.71280 0.46530 0.18510 -0.14200
O 	O 	0.68560 0.36900 0.12020 -0.33600
O 	O 	0.36600 0.46600 0.01820 -1.07900
C 	C 	0.55900 0.06630 0.97840 0.97500
O 	O 	0.43620 0.43444 0.60150 -0.47300
O 	O 	0.30420 0.38123 0.59110 -0.07600
O 	O 	0.48640 0.31605 0.66760 -0.57100
N 	N 	0.02520 0.47770 0.77230 -0.17600
C 	C 	0.34760 0.42218 0.62810 0.29800
C 	C 	0.52040 0.33430 0.74070 0.28700
H 	H 	0.55820 0.36690 0.73240 -0.08200
C 	C 	0.29400 0.45080 0.71410 0.08400
C 	C 	0.18000 0.46770 0.67680 -0.16600
C 	C 	0.18540 0.44800 0.71660 0.17200
C 	C 	0.13200 0.48640 0.76720 -0.19000
C 	C 	0.28720 0.46530 0.68510 -0.17900
O 	O 	0.31440 0.36900 0.62020 -0.34200
O 	O 	0.63400 0.46600 0.51820 -0.22900
C 	C 	0.44100 0.06630 0.47840 0.16000
O 	O 	0.93620 0.93444 0.10150 -1.77800
O 	O 	0.80420 0.88123 0.09110 6.48800
O 	O 	0.98640 0.81605 0.16760 0.07400
N 	N 	0.52520 0.97770 0.27230 -3.81200
C 	C 	0.84760 0.92218 0.12810 -0.81400
C 	C 	0.02040 0.83430 0.24070 0.58400
H 	H 	0.05820 0.86690 0.23240 0.35000
C 	C 	0.79400 0.95080 0.21410 -15.35000
C 	C 	0.68000 0.96770 0.17680 15.87800
C 	C 	0.68540 0.94800 0.21660 -21.48000
C 	C 	0.63200 0.98640 0.26720 26.19500
C 	C 	0.78720 0.96530 0.18510 13.16300
O 	O 	0.81440 0.86900 0.12020 -6.26200
O 	O 	0.13400 0.96600 0.01820 -1.60200
C 	C 	0.94100 0.56630 0.97840 0.93400
O 	O 	0.56380 0.56556 0.60150 -0.46700
O 	O 	0.69580 0.61877 0.59110 0.29200
O 	O 	0.51360 0.68395 0.66760 -0.39000
N 	N 	0.97480 0.52230 0.77230 0.07500
C 	C 	0.65240 0.57782 0.62810 0.23900
C 	C 	0.47960 0.66570 0.74070 0.29900
H 	H 	0.44180 0.63310 0.73240 -0.05200
C 	C 	0.70600 0.54920 0.71410 0.01800
C 	C 	0.82000 0.53230 0.67680 -0.13700
C 	C 	0.81460 0.55200 0.71660 0.19300
C 	C 	0.86800 0.51360 0.76720 -0.04600
C 	C 	0.71280 0.53470 0.68510 -0.08900
O 	O 	0.68560 0.63100 0.62020 -0.61800
O 	O 	0.36600 0.53400 0.51820 -0.22000
C 	C 	0.55900 0.93370 0.47840 -0.14200
O 	O 	0.06380 0.06556 0.10150 -0.52700
O 	O 	0.19580 0.11877 0.09110 -5.62700
O 	O 	0.01360 0.18395 0.16760 -1.03900
N 	N 	0.47480 0.02230 0.27230 3.78100
C 	C 	0.15240 0.07782 0.12810 3.20900
C 	C 	0.97960 0.16570 0.24070 0.00800
H 	H 	0.94180 0.13310 0.23240 -0.64400
C 	C 	0.20600 0.04920 0.21410 12.54600
C 	C 	0.32000 0.03230 0.17680 -18.23000
C 	C 	0.31460 0.05200 0.21660 25.62700
C 	C 	0.36800 0.01360 0.26720 -26.77200
C 	C 	0.21280 0.03470 0.18510 -17.35400
O 	O 	0.18560 0.13100 0.12020 4.21100
O 	O 	0.86600 0.03400 0.01820 -1.01900
C 	C 	0.05900 0.43370 0.97840 0.78600
O 	O 	0.06380 0.93444 0.39850 -1.89900
O 	O 	0.19580 0.88123 0.40890 6.50300
O 	O 	0.01360 0.81605 0.33240 0.03600
N 	N 	0.47480 0.97770 0.22770 -3.80500
C 	C 	0.15240 0.92218 0.37190 -0.79100
C 	C 	0.97960 0.83430 0.25930 -0.49900
H 	H 	0.94180 0.86690 0.26760 0.73700
C 	C 	0.20600 0.95080 0.28590 -15.38300
C 	C 	0.32000 0.96770 0.32320 15.68300
C 	C 	0.31460 0.94800 0.28340 -21.32900
C 	C 	0.36800 0.98640 0.23280 26.35800
C 	C 	0.21280 0.96530 0.31490 13.15000
O 	O 	0.18560 0.86900 0.37980 -6.27200
O 	O 	0.86600 0.96600 0.48180 -0.69400
C 	C 	0.05900 0.56630 0.52160 0.07400
O 	O 	0.56380 0.43444 0.89850 -0.53900
O 	O 	0.69580 0.38123 0.90890 0.04700
O 	O 	0.51360 0.31605 0.83240 -0.60800
N 	N 	0.97480 0.47770 0.72770 0.07300
C 	C 	0.65240 0.42218 0.87190 0.27900
C 	C 	0.47960 0.33430 0.75930 0.28200
H 	H 	0.44180 0.36690 0.76760 -0.10200
C 	C 	0.70600 0.45080 0.78590 -0.01500
C 	C 	0.82000 0.46770 0.82320 -0.23900
C 	C 	0.81460 0.44800 0.78340 0.22700
C 	C 	0.86800 0.48640 0.73280 0.05800
C 	C 	0.71280 0.46530 0.81490 -0.08400
O 	O 	0.68560 0.36900 0.87980 -0.48600
O 	O 	0.36600 0.46600 0.98180 0.59900
C 	C 	0.55900 0.06630 0.02160 -0.70000
O 	O 	0.93620 0.06556 0.39850 -0.45900
O 	O 	0.80420 0.11877 0.40890 -5.50800
O 	O 	0.98640 0.18395 0.33240 -0.97900
N 	N 	0.52520 0.02230 0.22770 3.78300
C 	C 	0.84760 0.07782 0.37190 3.15300
C 	C 	0.02040 0.16570 0.25930 1.16300
H 	H 	0.05820 0.13310 0.26760 -1.07600
C 	C 	0.79400 0.04920 0.28590 12.47700
C 	C 	0.68000 0.03230 0.32320 -18.16700
C 	C 	0.68540 0.05200 0.28340 25.53200
C 	C 	0.63200 0.01360 0.23280 -26.62800
C 	C 	0.78720 0.03470 0.31490 -17.22900
O 	O 	0.81440 0.13100 0.37980 4.09700
O 	O 	0.13400 0.03400 0.48180 -0.17900
C 	C 	0.94100 0.43370 0.52160 0.07300
O 	O 	0.43620 0.56556 0.89850 -0.53400
O 	O 	0.30420 0.61877 0.90890 0.35700
O 	O 	0.48640 0.68395 0.83240 -0.43200
N 	N 	0.02520 0.52230 0.72770 -0.19200
C 	C 	0.34760 0.57782 0.87190 0.21900
C 	C 	0.52040 0.66570 0.75930 0.28100
H 	H 	0.55820 0.63310 0.76760 -0.06400
C 	C 	0.29400 0.54920 0.78590 -0.06200
C 	C 	0.18000 0.53230 0.82320 -0.22000
C 	C 	0.18540 0.55200 0.78340 0.15400
C 	C 	0.13200 0.51360 0.73280 0.26600
C 	C 	0.28720 0.53470 0.81490 0.01600
O 	O 	0.31440 0.63100 0.87980 -0.72500
O 	O 	0.63400 0.53400 0.98180 0.64200
C 	C 	0.44100 0.93370 0.02160 -1.09300
Dy	Dy	0.55404 0.65525 0.50000 2.05100
O 	O 	0.39670 0.62594 0.50000 -0.49700
O 	O 	0.64270 0.73826 0.50000 -0.30300
O 	O 	0.48150 0.75769 0.50000 -0.20000
C 	C 	0.33900 0.58390 0.50000 0.41200
C 	C 	0.22990 0.59630 0.50000 -0.02900
C 	C 	0.16130 0.55330 0.50000 -0.05600
H 	H 	0.18400 0.51400 0.50000 0.07600
C 	C 	0.19890 0.65250 0.50000 -0.07100
H 	H 	0.24670 0.68100 0.50000 0.15500
C 	C 	0.57270 0.77390 0.50000 0.37600
C 	C 	0.59810 0.83350 0.50000 0.16200
C 	C 	0.52600 0.87885 0.50000 0.07900
H 	H 	0.45410 0.87030 0.50000 -0.07900
N 	N 	0.48480 0.97541 0.50000 -2.57100
Dy	Dy	0.05404 0.15525 -0.00000 1.99600
O 	O 	0.89670 0.12594 -0.00000 -0.60900
O 	O 	0.14270 0.23826 -0.00000 -0.52000
O 	O 	0.98150 0.25769 -0.00000 -0.23400
C 	C 	0.83900 0.08390 -0.00000 -0.14100
C 	C 	0.72990 0.09630 -0.00000 -0.86100
C 	C 	0.66130 0.05330 -0.00000 0.20500
H 	H 	0.68400 0.01400 -0.00000 0.22500
C 	C 	0.69890 0.15250 -0.00000 -0.10300
H 	H 	0.74670 0.18100 -0.00000 -0.09900
C 	C 	0.07270 0.27390 -0.00000 0.12000
C 	C 	0.09810 0.33350 -0.00000 -0.03200
C 	C 	0.02600 0.37885 -0.00000 -0.22200
H 	H 	0.95410 0.37030 -0.00000 0.20300
N 	N 	0.98480 0.47541 -0.00000 0.07400
Dy	Dy	0.44596 0.34475 0.50000 1.92800
O 	O 	0.60330 0.37406 0.50000 -0.53700
O 	O 	0.35730 0.26174 0.50000 -0.53000
O 	O 	0.51850 0.24231 0.50000 -0.44400
C 	C 	0.66100 0.41610 0.50000 0.44300
C 	C 	0.77010 0.40370 0.50000 -0.17000
C 	C 	0.83870 0.44670 0.50000 0.01100
H 	H 	0.81600 0.48600 0.50000 0.06400
C 	C 	0.80110 0.34750 0.50000 0.12600
H 	H 	0.75330 0.31900 0.50000 -0.02500
C 	C 	0.42730 0.22610 0.50000 0.25400
C 	C 	0.40190 0.16650 0.50000 -0.31100
C 	C 	0.47400 0.12115 0.50000 -0.22100
H 	H 	0.54590 0.12970 0.50000 0.22900
N 	N 	0.51520 0.02459 0.50000 2.47300
Dy	Dy	0.94596 0.84475 -0.00000 2.13100
O 	O 	0.10330 0.87406 -0.00000 -0.58400
O 	O 	0.85730 0.76174 -0.00000 -0.24800
O 	O 	0.01850 0.74231 -0.00000 -0.36100
C 	C 	0.16100 0.91610 -0.00000 1.08800
C 	C 	0.27010 0.90370 -0.00000 0.43100
C 	C 	0.33870 0.94670 -0.00000 -0.14500
H 	H 	0.31600 0.98600 -0.00000 0.01700
C 	C 	0.30110 0.84750 -0.00000 0.24700
H 	H 	0.25330 0.81900 -0.00000 0.19800
C 	C 	0.92730 0.72610 -0.00000 0.55000
C 	C 	0.90190 0.66650 -0.00000 -0.13700
C 	C 	0.97400 0.62115 -0.00000 0.31600
H 	H 	0.04590 0.62970 -0.00000 -0.06900
N 	N 	0.01520 0.52459 -0.00000 -0.14200
Dy	Dy	0.94596 0.15525 0.50000 2.32800
O 	O 	0.10330 0.12594 0.50000 -0.78300
O 	O 	0.85730 0.23826 0.50000 -0.63900
O 	O 	0.01850 0.25769 0.50000 -0.61800
C 	C 	0.16100 0.08390 0.50000 -0.16400
C 	C 	0.27010 0.09630 0.50000 -0.83800
C 	C 	0.33870 0.05330 0.50000 0.12700
H 	H 	0.31600 0.01400 0.50000 0.26100
C 	C 	0.30110 0.15250 0.50000 -0.13800
H 	H 	0.25330 0.18100 0.50000 -0.11300
C 	C 	0.92730 0.27390 0.50000 0.54900
C 	C 	0.90190 0.33350 0.50000 -0.25900
C 	C 	0.97400 0.37885 0.50000 0.23300
H 	H 	0.04590 0.37030 0.50000 -0.11100
N 	N 	0.01520 0.47541 0.50000 -0.18100
Dy	Dy	0.44596 0.65525 -0.00000 2.19500
O 	O 	0.60330 0.62594 -0.00000 -0.51200
O 	O 	0.35730 0.73826 -0.00000 -0.30800
O 	O 	0.51850 0.75769 -0.00000 -0.18200
C 	C 	0.66100 0.58390 -0.00000 0.51800
C 	C 	0.77010 0.59630 -0.00000 -0.15100
C 	C 	0.83870 0.55330 -0.00000 0.09300
H 	H 	0.81600 0.51400 -0.00000 0.06300
C 	C 	0.80110 0.65250 -0.00000 0.14800
H 	H 	0.75330 0.68100 -0.00000 0.09900
C 	C 	0.42730 0.77390 -0.00000 0.40400
C 	C 	0.40190 0.83350 -0.00000 0.12200
C 	C 	0.47400 0.87885 -0.00000 0.18900
H 	H 	0.54590 0.87030 -0.00000 -0.08700
N 	N 	0.51520 0.97541 -0.00000 -2.49000
Dy	Dy	0.05404 0.84475 0.50000 1.57500
O 	O 	0.89670 0.87406 0.50000 -0.40100
O 	O 	0.14270 0.76174 0.50000 -0.14500
O 	O 	0.98150 0.74231 0.50000 -0.01100
C 	C 	0.83900 0.91610 0.50000 0.96800
C 	C 	0.72990 0.90370 0.50000 0.50500
C 	C 	0.66130 0.94670 0.50000 -0.27200
H 	H 	0.68400 0.98600 0.50000 0.00100
C 	C 	0.69890 0.84750 0.50000 0.17200
H 	H 	0.74670 0.81900 0.50000 0.22800
C 	C 	0.07270 0.72610 0.50000 0.09600
C 	C 	0.09810 0.66650 0.50000 0.14500
C 	C 	0.02600 0.62115 0.50000 -0.31100
H 	H 	0.95410 0.62970 0.50000 0.26100
N 	N 	0.98480 0.52459 0.50000 0.03700
Dy	Dy	0.55404 0.34475 -0.00000 2.03800
O 	O 	0.39670 0.37406 -0.00000 -0.54600
O 	O 	0.64270 0.26174 -0.00000 -0.51500
O 	O 	0.48150 0.24231 -0.00000 -0.44500
C 	C 	0.33900 0.41610 -0.00000 0.48700
C 	C 	0.22990 0.40370 -0.00000 -0.14600
C 	C 	0.16130 0.44670 -0.00000 0.06700
H 	H 	0.18400 0.48600 -0.00000 0.05500
C 	C 	0.19890 0.34750 -0.00000 0.01200
H 	H 	0.24670 0.31900 -0.00000 0.01500
C 	C 	0.57270 0.22610 -0.00000 0.27000
C 	C 	0.59810 0.16650 -0.00000 -0.33300
C 	C 	0.52600 0.12115 -0.00000 -0.14400
H 	H 	0.45410 0.12970 -0.00000 0.21200
N 	N 	0.48480 0.02459 -0.00000 2.46500
Ni	Ni	0.50000 0.50000 0.50000 1.10800
Ni	Ni	-0.00000 0.00000 -0.00000 2.67000
Ni	Ni	0.00000 0.00000 0.50000 2.67200
Ni	Ni	0.50000 0.50000 -0.00000 1.13900
C 	C 	0.66130 0.50000 0.25000 0.02000
H 	H 	0.59160 0.50000 0.25000 0.05100
C 	C 	0.33870 0.50000 0.25000 0.00500
H 	H 	0.40840 0.50000 0.25000 0.05500
C 	C 	0.83870 0.00000 0.75000 6.89000
H 	H 	0.90840 0.00000 0.75000 -1.02700
C 	C 	0.16130 0.00000 0.75000 6.93700
H 	H 	0.09160 0.00000 0.75000 -1.11000
C 	C 	0.33870 0.50000 0.75000 -0.02200
H 	H 	0.40840 0.50000 0.75000 0.03700
C 	C 	0.66130 0.50000 0.75000 -0.01000
H 	H 	0.59160 0.50000 0.75000 0.03200
C 	C 	0.16130 0.00000 0.25000 6.95900
H 	H 	0.09160 0.00000 0.25000 -1.09200
C 	C 	0.83870 0.00000 0.25000 6.90500
H 	H 	0.90840 0.00000 0.25000 -1.00500
