data_crystal

_cell_length_a 21.71900
_cell_length_b 19.46900
_cell_length_c 20.83500
_cell_angle_alpha 90.00000
_cell_angle_beta  108.85600
_cell_angle_gamma 90.00000

_symmetry_space_group_name_	'P 1'
_symmetry_space_group_name_H-M	'P 1'

loop_
_symmetry_equiv_pos_as_xyz
  x,y,z

loop_
_atom_site_label
_atom_site_type_symbol
_atom_site_fract_x
_atom_site_fract_y
_atom_site_fract_z
_atom_site_charge
Zn	Zn	0.73716 0.72601 0.71030 1.20700
Zn	Zn	0.72787 0.22757 0.93465 1.21000
Zn	Zn	0.25809 0.80337 0.62482 1.20800
O 	O 	0.65776 0.73900 0.63270 -0.46900
C 	C 	0.77090 0.33760 0.88810 0.34700
N 	N 	0.79240 0.19750 0.02300 -0.27800
N 	N 	0.79770 0.76410 0.66390 -0.27500
N 	N 	0.87330 0.18770 0.12170 -0.13200
C 	C 	0.84820 0.22050 0.06140 0.17500
N 	N 	0.87870 0.79890 0.62580 -0.12500
O 	O 	0.73440 0.63040 0.73480 -0.44800
C 	C 	0.60010 0.73090 0.63220 0.36300
C 	C 	0.73720 0.05650 0.77080 0.12900
O 	O 	0.81870 0.30030 0.89870 -0.34900
C 	C 	0.54900 0.72950 0.56350 -0.08000
C 	C 	0.77060 0.07050 0.01530 0.02300
C 	C 	0.78670 0.60950 0.78120 0.30500
C 	C 	0.82870 0.13170 0.12790 -0.08100
H 	H 	0.81090 0.14060 0.16420 0.06200
H 	H 	0.85030 0.08730 0.13520 0.06500
C 	C 	0.74440 0.99700 0.72760 -0.04500
C 	C 	0.78140 0.53740 0.80630 -0.03900
C 	C 	0.94180 0.80510 0.62620 0.03800
H 	H 	0.95080 0.83150 0.59310 0.02000
C 	C 	0.83680 0.50670 0.85060 -0.04200
H 	H 	0.87640 0.52980 0.86280 0.05800
C 	C 	0.68410 0.06080 0.79240 -0.18200
H 	H 	0.65040 0.02910 0.77790 0.09600
C 	C 	0.76030 0.88400 0.65170 0.02900
C 	C 	0.86000 0.75820 0.67210 0.16700
C 	C 	0.77580 0.13600 0.05730 -0.00700
H 	H 	0.73370 0.14430 0.06390 0.03400
O 	O 	0.58530 0.71730 0.68230 -0.31000
C 	C 	0.91020 0.72220 0.71870 -0.18900
H 	H 	0.90080 0.69210 0.74890 0.10300
C 	C 	0.94340 0.29160 0.09590 0.06500
H 	H 	0.96920 0.32590 0.08670 0.00600
C 	C 	0.82000 0.05140 0.99210 -0.08100
H 	H 	0.85770 0.07780 0.00310 0.06100
C 	C 	0.69070 0.96630 0.68130 -0.00900
H 	H 	0.64920 0.98330 0.67520 0.03200
C 	C 	0.77400 0.40750 0.85950 -0.08000
C 	C 	0.83320 0.44260 0.87640 -0.00400
H 	H 	0.87060 0.42220 0.90540 0.03700
C 	C 	0.71500 0.03130 0.99910 -0.08000
H 	H 	0.68070 0.04400 0.01420 0.06200
C 	C 	0.71790 0.43780 0.81640 -0.00600
H 	H 	0.67800 0.41560 0.80610 0.04900
C 	C 	0.69940 0.90940 0.64370 -0.10200
H 	H 	0.66330 0.88860 0.61300 0.06600
C 	C 	0.80640 0.97120 0.73460 -0.00600
H 	H 	0.84300 0.99130 0.76520 0.03200
C 	C 	0.93060 0.20310 0.16820 0.04900
H 	H 	0.94530 0.17730 0.20780 0.03000
C 	C 	0.97350 0.73080 0.72060 0.04700
H 	H 	0.00660 0.70790 0.75350 0.03600
C 	C 	0.81270 0.91700 0.69680 -0.09300
H 	H 	0.85430 0.90110 0.70150 0.06900
C 	C 	0.96720 0.25560 0.15820 -0.08200
C 	C 	0.76980 0.82010 0.61400 -0.01100
H 	H 	0.72820 0.80550 0.58150 0.03800
O 	O 	0.83500 0.64500 0.80640 -0.32300
C 	C 	0.98970 0.77430 0.67280 -0.06900
C 	C 	0.72290 0.50340 0.78850 -0.03400
H 	H 	0.68630 0.52350 0.75780 0.06200
C 	C 	0.82080 0.83020 0.57760 -0.08100
H 	H 	0.80820 0.80680 0.53420 0.06900
H 	H 	0.82770 0.87860 0.57070 0.06600
C 	C 	0.78470 0.10640 0.79280 -0.19100
H 	H 	0.82020 0.10730 0.77720 0.10800
O 	O 	0.72020 0.32190 0.89830 -0.46100
O 	O 	0.25130 0.88600 0.57110 -0.50600
C 	C 	0.56420 0.73000 0.50650 -0.01600
H 	H 	0.60760 0.73260 0.50900 0.05100
O 	O 	0.26530 0.94580 0.66030 -0.32900
C 	C 	0.48360 0.72670 0.55660 -0.01700
H 	H 	0.47130 0.72240 0.59520 0.04500
C 	C 	0.25750 0.00410 0.55610 -0.08000
C 	C 	0.25660 0.93880 0.59890 0.39600
C 	C 	0.24500 0.06510 0.57730 -0.00700
H 	H 	0.23970 0.06860 0.61970 0.04600
C 	C 	0.88500 0.27830 0.04940 -0.19900
H 	H 	0.86900 0.30540 0.01080 0.10100
C 	C 	0.26380 0.99720 0.49330 -0.00600
H 	H 	0.27110 0.95420 0.47760 0.04500
C 	C 	0.24950 0.11790 0.47650 -0.03200
C 	C 	0.23970 0.12360 0.53840 -0.04300
H 	H 	0.22970 0.16580 0.55360 0.05100
C 	C 	0.25950 0.05270 0.45450 -0.04600
H 	H 	0.26340 0.04770 0.41160 0.06600
C 	C 	0.07400 0.84510 0.64690 -0.14900
H 	H 	0.04380 0.88040 0.63290 0.08400
C 	C 	0.13490 0.85150 0.63900 0.06100
H 	H 	0.14540 0.89110 0.61980 -0.00200
N 	N 	0.18016 0.79870 0.65980 -0.25900
C 	C 	0.16450 0.73960 0.68850 0.06300
H 	H 	0.19470 0.70430 0.70240 0.00700
C 	C 	0.10360 0.73320 0.69640 -0.14800
H 	H 	0.09310 0.69360 0.71560 0.09000
C 	C 	0.05840 0.78590 0.67560 0.10700
C 	C 	0.10580 0.26280 0.32430 0.08200
H 	H 	0.11470 0.24810 0.36890 -0.01100
N 	N 	0.15383 0.29540 0.30470 -0.26600
C 	C 	0.14060 0.31740 0.23810 0.08300
H 	H 	0.17270 0.33910 0.22500 -0.00100
C 	C 	0.07920 0.30680 0.19110 -0.15900
H 	H 	0.07030 0.32150 0.14660 0.09700
C 	C 	0.03119 0.27420 0.21070 0.11900
C 	C 	0.04450 0.25220 0.27730 -0.16800
H 	H 	0.01230 0.23040 0.29040 0.10800
C 	C 	0.75940 0.95210 0.93500 -0.03700
C 	C 	0.75340 0.89290 0.88810 0.11200
C 	C 	0.81490 0.99360 0.95240 -0.01900
H 	H 	0.84920 0.98190 0.93690 0.03600
C 	C 	0.71050 0.97130 0.95930 -0.02000
H 	H 	0.67320 0.94430 0.94930 0.03400
C 	C 	0.68990 0.82380 0.79520 0.10600
H 	H 	0.64920 0.81260 0.76490 -0.01200
C 	C 	0.79810 0.80560 0.83770 0.10400
H 	H 	0.83500 0.78180 0.83690 -0.02200
C 	C 	0.68160 0.11370 0.83650 0.10500
H 	H 	0.64480 0.11700 0.85000 -0.01100
C 	C 	0.69340 0.87540 0.84260 -0.17400
H 	H 	0.65590 0.89780 0.84360 0.09100
C 	C 	0.80480 0.85420 0.88570 -0.18300
H 	H 	0.84550 0.86140 0.91780 0.09600
C 	C 	0.77820 0.15400 0.83770 0.11600
H 	H 	0.81190 0.18550 0.85390 -0.01700
N 	N 	0.74060 0.79010 0.79080 -0.27500
N 	N 	0.72850 0.15930 0.86030 -0.28100
O 	O 	0.65210 0.21190 0.96310 -0.48300
O 	O 	0.57570 0.21200 0.86680 -0.32400
C 	C 	0.54520 0.20820 0.96580 -0.08100
C 	C 	0.59430 0.20910 0.92680 0.39500
C 	C 	0.47990 0.21010 0.93260 -0.01500
H 	H 	0.46540 0.21370 0.88550 0.05300
C 	C 	0.56530 0.20700 0.03440 -0.01700
H 	H 	0.60940 0.20410 0.05890 0.05600
O 	O 	0.25780 0.73540 0.55140 -0.46400
C 	C 	0.25410 0.68150 0.57430 0.33600
O 	O 	0.26190 0.66420 0.63430 -0.33100
Zn	Zn	0.23716 0.22601 0.71030 1.20800
Zn	Zn	0.22787 0.72757 0.93465 1.21100
Zn	Zn	0.75809 0.30337 0.62482 1.20900
O 	O 	0.15776 0.23900 0.63270 -0.46700
C 	C 	0.27090 0.83760 0.88810 0.34600
N 	N 	0.29240 0.69750 0.02300 -0.27600
N 	N 	0.29770 0.26410 0.66390 -0.27500
N 	N 	0.37330 0.68770 0.12170 -0.13200
C 	C 	0.34820 0.72050 0.06140 0.17500
N 	N 	0.37870 0.29890 0.62580 -0.12500
O 	O 	0.23440 0.13040 0.73480 -0.44900
C 	C 	0.10010 0.23090 0.63220 0.36300
C 	C 	0.23720 0.55650 0.77080 0.12300
O 	O 	0.31870 0.80030 0.89870 -0.34800
C 	C 	0.04900 0.22950 0.56350 -0.08000
C 	C 	0.27060 0.57050 0.01530 0.02700
C 	C 	0.28670 0.10950 0.78120 0.30800
C 	C 	0.32870 0.63170 0.12790 -0.08000
H 	H 	0.31090 0.64060 0.16420 0.06100
H 	H 	0.35030 0.58730 0.13520 0.06400
C 	C 	0.24440 0.49700 0.72760 -0.03900
C 	C 	0.28140 0.03740 0.80630 -0.04600
C 	C 	0.44180 0.30510 0.62620 0.03800
H 	H 	0.45080 0.33150 0.59310 0.02000
C 	C 	0.33680 0.00670 0.85060 -0.03100
H 	H 	0.37640 0.02980 0.86280 0.05500
C 	C 	0.18410 0.56080 0.79240 -0.17900
H 	H 	0.15040 0.52910 0.77790 0.09300
C 	C 	0.26030 0.38400 0.65170 0.02700
C 	C 	0.36000 0.25820 0.67210 0.16700
C 	C 	0.27580 0.63600 0.05730 -0.01000
H 	H 	0.23370 0.64430 0.06390 0.03500
O 	O 	0.08530 0.21730 0.68230 -0.31000
C 	C 	0.41020 0.22220 0.71870 -0.18900
H 	H 	0.40080 0.19210 0.74890 0.10400
C 	C 	0.44340 0.79160 0.09590 0.06600
H 	H 	0.46920 0.82590 0.08670 0.00600
C 	C 	0.32000 0.55140 0.99210 -0.09000
H 	H 	0.35770 0.57780 0.00310 0.06300
C 	C 	0.19070 0.46630 0.68130 -0.01300
H 	H 	0.14920 0.48330 0.67520 0.03400
C 	C 	0.27400 0.90750 0.85950 -0.07400
C 	C 	0.33320 0.94260 0.87640 -0.01600
H 	H 	0.37060 0.92220 0.90540 0.04100
C 	C 	0.21500 0.53130 0.99910 -0.08900
H 	H 	0.18070 0.54400 0.01420 0.06300
C 	C 	0.21790 0.93780 0.81640 -0.01700
H 	H 	0.17800 0.91560 0.80610 0.05200
C 	C 	0.19940 0.40940 0.64370 -0.09900
H 	H 	0.16330 0.38860 0.61300 0.06500
C 	C 	0.30640 0.47120 0.73460 -0.01000
H 	H 	0.34300 0.49130 0.76520 0.03500
C 	C 	0.43060 0.70310 0.16820 0.04900
H 	H 	0.44530 0.67730 0.20780 0.03000
C 	C 	0.47350 0.23080 0.72060 0.04800
H 	H 	0.50660 0.20790 0.75350 0.03600
C 	C 	0.31270 0.41700 0.69680 -0.08900
H 	H 	0.35430 0.40110 0.70150 0.06800
C 	C 	0.46720 0.75560 0.15820 -0.08300
C 	C 	0.26980 0.32010 0.61400 -0.01000
H 	H 	0.22820 0.30550 0.58150 0.03800
O 	O 	0.33500 0.14500 0.80640 -0.32300
C 	C 	0.48970 0.27430 0.67280 -0.06900
C 	C 	0.22290 0.00340 0.78850 -0.02300
H 	H 	0.18630 0.02350 0.75780 0.05900
C 	C 	0.32080 0.33020 0.57760 -0.08200
H 	H 	0.30820 0.30680 0.53420 0.07000
H 	H 	0.32770 0.37860 0.57070 0.06700
C 	C 	0.28470 0.60640 0.79280 -0.18800
H 	H 	0.32020 0.60730 0.77720 0.10600
O 	O 	0.22020 0.82190 0.89830 -0.46100
O 	O 	0.75130 0.38600 0.57110 -0.50800
C 	C 	0.06420 0.23000 0.50650 -0.01600
H 	H 	0.10760 0.23260 0.50900 0.05100
O 	O 	0.76530 0.44580 0.66030 -0.32900
C 	C 	0.98360 0.22670 0.55660 -0.01700
H 	H 	0.97130 0.22240 0.59520 0.04600
C 	C 	0.75750 0.50410 0.55610 -0.10000
C 	C 	0.75660 0.43880 0.59890 0.40400
C 	C 	0.74500 0.56510 0.57730 0.00900
H 	H 	0.73970 0.56860 0.61970 0.04100
C 	C 	0.38500 0.77830 0.04940 -0.19900
H 	H 	0.36900 0.80540 0.01080 0.10100
C 	C 	0.76380 0.49720 0.49330 0.01900
H 	H 	0.77110 0.45420 0.47760 0.03700
C 	C 	0.74950 0.61790 0.47650 -0.02200
C 	C 	0.73970 0.62360 0.53840 -0.05600
H 	H 	0.72970 0.66580 0.55360 0.05600
C 	C 	0.75950 0.55270 0.45450 -0.06600
H 	H 	0.76340 0.54770 0.41160 0.07200
C 	C 	0.57400 0.34510 0.64690 -0.14900
H 	H 	0.54380 0.38040 0.63290 0.08400
C 	C 	0.63490 0.35150 0.63900 0.06200
H 	H 	0.64540 0.39110 0.61980 -0.00200
N 	N 	0.68016 0.29870 0.65980 -0.25900
C 	C 	0.66450 0.23960 0.68850 0.06400
H 	H 	0.69470 0.20430 0.70240 0.00700
C 	C 	0.60360 0.23320 0.69640 -0.14800
H 	H 	0.59310 0.19360 0.71560 0.09000
C 	C 	0.55840 0.28590 0.67560 0.10700
C 	C 	0.60580 0.76280 0.32430 0.08200
H 	H 	0.61470 0.74810 0.36890 -0.01100
N 	N 	0.65383 0.79540 0.30470 -0.26600
C 	C 	0.64060 0.81740 0.23810 0.08300
H 	H 	0.67270 0.83910 0.22500 -0.00100
C 	C 	0.57920 0.80680 0.19110 -0.16000
H 	H 	0.57030 0.82150 0.14660 0.09700
C 	C 	0.53119 0.77420 0.21070 0.12000
C 	C 	0.54450 0.75220 0.27730 -0.16800
H 	H 	0.51230 0.73040 0.29040 0.10800
C 	C 	0.25940 0.45210 0.93500 -0.04300
C 	C 	0.25340 0.39290 0.88810 0.11500
C 	C 	0.31490 0.49360 0.95240 -0.00900
H 	H 	0.34920 0.48190 0.93690 0.03400
C 	C 	0.21050 0.47130 0.95930 -0.01100
H 	H 	0.17320 0.44430 0.94930 0.03200
C 	C 	0.18990 0.32380 0.79520 0.10800
H 	H 	0.14920 0.31260 0.76490 -0.01200
C 	C 	0.29810 0.30560 0.83770 0.10500
H 	H 	0.33500 0.28180 0.83690 -0.02200
C 	C 	0.18160 0.61370 0.83650 0.10300
H 	H 	0.14480 0.61700 0.85000 -0.01100
C 	C 	0.19340 0.37540 0.84260 -0.17600
H 	H 	0.15590 0.39780 0.84360 0.09200
C 	C 	0.30480 0.35420 0.88570 -0.18600
H 	H 	0.34550 0.36140 0.91780 0.09700
C 	C 	0.27820 0.65400 0.83770 0.11400
H 	H 	0.31190 0.68550 0.85390 -0.01700
N 	N 	0.24060 0.29010 0.79080 -0.27500
N 	N 	0.22850 0.65930 0.86030 -0.28000
O 	O 	0.15210 0.71190 0.96310 -0.48300
O 	O 	0.07570 0.71200 0.86680 -0.32400
C 	C 	0.04520 0.70820 0.96580 -0.08000
C 	C 	0.09430 0.70910 0.92680 0.39500
C 	C 	0.97990 0.71010 0.93260 -0.01500
H 	H 	0.96540 0.71370 0.88550 0.05300
C 	C 	0.06530 0.70700 0.03440 -0.01800
H 	H 	0.10940 0.70410 0.05890 0.05600
O 	O 	0.75780 0.23540 0.55140 -0.46500
C 	C 	0.75410 0.18150 0.57430 0.34000
O 	O 	0.76190 0.16420 0.63430 -0.33200
Zn	Zn	0.26284 0.72601 0.28970 1.20800
Zn	Zn	0.27213 0.22757 0.06535 1.21100
Zn	Zn	0.74191 0.80337 0.37518 1.20900
O 	O 	0.34224 0.73900 0.36730 -0.46800
C 	C 	0.22910 0.33760 0.11190 0.34800
N 	N 	0.20760 0.19750 0.97700 -0.27700
N 	N 	0.20230 0.76410 0.33610 -0.27500
N 	N 	0.12670 0.18770 0.87830 -0.13200
C 	C 	0.15180 0.22050 0.93860 0.17500
N 	N 	0.12130 0.79890 0.37420 -0.12500
O 	O 	0.26560 0.63040 0.26520 -0.44800
C 	C 	0.39990 0.73090 0.36780 0.36300
C 	C 	0.26280 0.05650 0.22920 0.12900
O 	O 	0.18130 0.30030 0.10130 -0.34900
C 	C 	0.45100 0.72950 0.43650 -0.08000
C 	C 	0.22940 0.07050 0.98470 0.02300
C 	C 	0.21330 0.60950 0.21880 0.30500
C 	C 	0.17130 0.13170 0.87210 -0.08100
H 	H 	0.18910 0.14060 0.83580 0.06200
H 	H 	0.14970 0.08730 0.86480 0.06500
C 	C 	0.25560 0.99700 0.27240 -0.04500
C 	C 	0.21860 0.53740 0.19370 -0.03900
C 	C 	0.05820 0.80510 0.37380 0.03800
H 	H 	0.04920 0.83150 0.40690 0.02000
C 	C 	0.16320 0.50670 0.14940 -0.04200
H 	H 	0.12360 0.52980 0.13720 0.05800
C 	C 	0.31590 0.06080 0.20760 -0.18200
H 	H 	0.34960 0.02910 0.22210 0.09600
C 	C 	0.23970 0.88400 0.34830 0.02900
C 	C 	0.14000 0.75820 0.32790 0.16700
C 	C 	0.22420 0.13600 0.94270 -0.00700
H 	H 	0.26630 0.14430 0.93610 0.03400
O 	O 	0.41470 0.71730 0.31770 -0.31000
C 	C 	0.08980 0.72220 0.28130 -0.18900
H 	H 	0.09920 0.69210 0.25110 0.10300
C 	C 	0.05660 0.29160 0.90410 0.06500
H 	H 	0.03080 0.32590 0.91330 0.00600
C 	C 	0.18000 0.05140 0.00790 -0.08100
H 	H 	0.14230 0.07780 0.99690 0.06100
C 	C 	0.30930 0.96630 0.31870 -0.00900
H 	H 	0.35080 0.98330 0.32480 0.03200
C 	C 	0.22600 0.40750 0.14050 -0.08000
C 	C 	0.16680 0.44260 0.12360 -0.00400
H 	H 	0.12940 0.42220 0.09460 0.03700
C 	C 	0.28500 0.03130 0.00090 -0.08000
H 	H 	0.31930 0.04400 0.98580 0.06200
C 	C 	0.28210 0.43780 0.18360 -0.00600
H 	H 	0.32200 0.41560 0.19390 0.04900
C 	C 	0.30060 0.90940 0.35630 -0.10200
H 	H 	0.33670 0.88860 0.38700 0.06600
C 	C 	0.19360 0.97120 0.26540 -0.00600
H 	H 	0.15700 0.99130 0.23480 0.03200
C 	C 	0.06940 0.20310 0.83180 0.04900
H 	H 	0.05470 0.17730 0.79220 0.03000
C 	C 	0.02650 0.73080 0.27940 0.04700
H 	H 	0.99340 0.70790 0.24650 0.03600
C 	C 	0.18730 0.91700 0.30320 -0.09300
H 	H 	0.14570 0.90110 0.29850 0.06900
C 	C 	0.03280 0.25560 0.84180 -0.08200
C 	C 	0.23020 0.82010 0.38600 -0.01100
H 	H 	0.27180 0.80550 0.41850 0.03800
O 	O 	0.16500 0.64500 0.19360 -0.32300
C 	C 	0.01030 0.77430 0.32720 -0.06900
C 	C 	0.27710 0.50340 0.21150 -0.03400
H 	H 	0.31370 0.52350 0.24220 0.06200
C 	C 	0.17920 0.83020 0.42240 -0.08100
H 	H 	0.19180 0.80680 0.46580 0.06900
H 	H 	0.17230 0.87860 0.42930 0.06600
C 	C 	0.21530 0.10640 0.20720 -0.19100
H 	H 	0.17980 0.10730 0.22280 0.10800
O 	O 	0.27980 0.32190 0.10170 -0.46100
O 	O 	0.74870 0.88600 0.42890 -0.50600
C 	C 	0.43580 0.73000 0.49350 -0.01600
H 	H 	0.39240 0.73260 0.49100 0.05100
O 	O 	0.73470 0.94580 0.33970 -0.32900
C 	C 	0.51640 0.72670 0.44340 -0.01700
H 	H 	0.52870 0.72240 0.40480 0.04500
C 	C 	0.74250 0.00410 0.44390 -0.08000
C 	C 	0.74340 0.93880 0.40110 0.39600
C 	C 	0.75500 0.06510 0.42270 -0.00700
H 	H 	0.76030 0.06860 0.38030 0.04600
C 	C 	0.11500 0.27830 0.95060 -0.19900
H 	H 	0.13100 0.30540 0.98920 0.10100
C 	C 	0.73620 0.99720 0.50670 -0.00600
H 	H 	0.72890 0.95420 0.52240 0.04500
C 	C 	0.75050 0.11790 0.52350 -0.03200
C 	C 	0.76030 0.12360 0.46160 -0.04300
H 	H 	0.77030 0.16580 0.44640 0.05100
C 	C 	0.74050 0.05270 0.54550 -0.04600
H 	H 	0.73660 0.04770 0.58840 0.06600
C 	C 	0.92600 0.84510 0.35310 -0.14900
H 	H 	0.95620 0.88040 0.36710 0.08400
C 	C 	0.86510 0.85150 0.36100 0.06100
H 	H 	0.85460 0.89110 0.38020 -0.00200
N 	N 	0.81984 0.79870 0.34020 -0.25900
C 	C 	0.83550 0.73960 0.31150 0.06300
H 	H 	0.80530 0.70430 0.29760 0.00700
C 	C 	0.89640 0.73320 0.30360 -0.14800
H 	H 	0.90690 0.69360 0.28440 0.09000
C 	C 	0.94160 0.78590 0.32440 0.10700
C 	C 	0.89420 0.26280 0.67570 0.08200
H 	H 	0.88530 0.24810 0.63110 -0.01100
N 	N 	0.84617 0.29540 0.69530 -0.26600
C 	C 	0.85940 0.31740 0.76190 0.08300
H 	H 	0.82730 0.33910 0.77500 -0.00100
C 	C 	0.92080 0.30680 0.80890 -0.15900
H 	H 	0.92970 0.32150 0.85340 0.09700
C 	C 	0.96881 0.27420 0.78930 0.11900
C 	C 	0.95550 0.25220 0.72270 -0.16800
H 	H 	0.98770 0.23040 0.70960 0.10800
C 	C 	0.24060 0.95210 0.06500 -0.03700
C 	C 	0.24660 0.89290 0.11190 0.11200
C 	C 	0.18510 0.99360 0.04760 -0.01900
H 	H 	0.15080 0.98190 0.06310 0.03600
C 	C 	0.28950 0.97130 0.04070 -0.02000
H 	H 	0.32680 0.94430 0.05070 0.03400
C 	C 	0.31010 0.82380 0.20480 0.10600
H 	H 	0.35080 0.81260 0.23510 -0.01200
C 	C 	0.20190 0.80560 0.16230 0.10400
H 	H 	0.16500 0.78180 0.16310 -0.02200
C 	C 	0.31840 0.11370 0.16350 0.10500
H 	H 	0.35520 0.11700 0.15000 -0.01100
C 	C 	0.30660 0.87540 0.15740 -0.17400
H 	H 	0.34410 0.89780 0.15640 0.09100
C 	C 	0.19520 0.85420 0.11430 -0.18300
H 	H 	0.15450 0.86140 0.08220 0.09600
C 	C 	0.22180 0.15400 0.16230 0.11600
H 	H 	0.18810 0.18550 0.14610 -0.01700
N 	N 	0.25940 0.79010 0.20920 -0.27500
N 	N 	0.27150 0.15930 0.13970 -0.28100
O 	O 	0.34790 0.21190 0.03690 -0.48300
O 	O 	0.42430 0.21200 0.13320 -0.32400
C 	C 	0.45480 0.20820 0.03420 -0.08100
C 	C 	0.40570 0.20910 0.07320 0.39500
C 	C 	0.52010 0.21010 0.06740 -0.01500
H 	H 	0.53460 0.21370 0.11450 0.05300
C 	C 	0.43470 0.20700 0.96560 -0.01700
H 	H 	0.39060 0.20410 0.94110 0.05600
O 	O 	0.74220 0.73540 0.44860 -0.46400
C 	C 	0.74590 0.68150 0.42570 0.33600
O 	O 	0.73810 0.66420 0.36570 -0.33100
Zn	Zn	0.76284 0.22601 0.28970 1.20800
Zn	Zn	0.77213 0.72757 0.06535 1.21100
Zn	Zn	0.24191 0.30337 0.37518 1.20900
O 	O 	0.84224 0.23900 0.36730 -0.46700
C 	C 	0.72910 0.83760 0.11190 0.34600
N 	N 	0.70760 0.69750 0.97700 -0.27600
N 	N 	0.70230 0.26410 0.33610 -0.27500
N 	N 	0.62670 0.68770 0.87830 -0.13200
C 	C 	0.65180 0.72050 0.93860 0.17500
N 	N 	0.62130 0.29890 0.37420 -0.12500
O 	O 	0.76560 0.13040 0.26520 -0.44900
C 	C 	0.89990 0.23090 0.36780 0.36300
C 	C 	0.76280 0.55650 0.22920 0.12300
O 	O 	0.68130 0.80030 0.10130 -0.34800
C 	C 	0.95100 0.22950 0.43650 -0.08000
C 	C 	0.72940 0.57050 0.98470 0.02700
C 	C 	0.71330 0.10950 0.21880 0.30800
C 	C 	0.67130 0.63170 0.87210 -0.08000
H 	H 	0.68910 0.64060 0.83580 0.06100
H 	H 	0.64970 0.58730 0.86480 0.06400
C 	C 	0.75560 0.49700 0.27240 -0.03900
C 	C 	0.71860 0.03740 0.19370 -0.04600
C 	C 	0.55820 0.30510 0.37380 0.03800
H 	H 	0.54920 0.33150 0.40690 0.02000
C 	C 	0.66320 0.00670 0.14940 -0.03100
H 	H 	0.62360 0.02980 0.13720 0.05500
C 	C 	0.81590 0.56080 0.20760 -0.17900
H 	H 	0.84960 0.52910 0.22210 0.09300
C 	C 	0.73970 0.38400 0.34830 0.02700
C 	C 	0.64000 0.25820 0.32790 0.16700
C 	C 	0.72420 0.63600 0.94270 -0.01000
H 	H 	0.76630 0.64430 0.93610 0.03500
O 	O 	0.91470 0.21730 0.31770 -0.31000
C 	C 	0.58980 0.22220 0.28130 -0.18900
H 	H 	0.59920 0.19210 0.25110 0.10400
C 	C 	0.55660 0.79160 0.90410 0.06600
H 	H 	0.53080 0.82590 0.91330 0.00600
C 	C 	0.68000 0.55140 0.00790 -0.09000
H 	H 	0.64230 0.57780 0.99690 0.06300
C 	C 	0.80930 0.46630 0.31870 -0.01300
H 	H 	0.85080 0.48330 0.32480 0.03400
C 	C 	0.72600 0.90750 0.14050 -0.07400
C 	C 	0.66680 0.94260 0.12360 -0.01600
H 	H 	0.62940 0.92220 0.09460 0.04100
C 	C 	0.78500 0.53130 0.00090 -0.08900
H 	H 	0.81930 0.54400 0.98580 0.06300
C 	C 	0.78210 0.93780 0.18360 -0.01700
H 	H 	0.82200 0.91560 0.19390 0.05200
C 	C 	0.80060 0.40940 0.35630 -0.09900
H 	H 	0.83670 0.38860 0.38700 0.06500
C 	C 	0.69360 0.47120 0.26540 -0.01000
H 	H 	0.65700 0.49130 0.23480 0.03500
C 	C 	0.56940 0.70310 0.83180 0.04900
H 	H 	0.55470 0.67730 0.79220 0.03000
C 	C 	0.52650 0.23080 0.27940 0.04800
H 	H 	0.49340 0.20790 0.24650 0.03600
C 	C 	0.68730 0.41700 0.30320 -0.08900
H 	H 	0.64570 0.40110 0.29850 0.06800
C 	C 	0.53280 0.75560 0.84180 -0.08300
C 	C 	0.73020 0.32010 0.38600 -0.01000
H 	H 	0.77180 0.30550 0.41850 0.03800
O 	O 	0.66500 0.14500 0.19360 -0.32300
C 	C 	0.51030 0.27430 0.32720 -0.06900
C 	C 	0.77710 0.00340 0.21150 -0.02300
H 	H 	0.81370 0.02350 0.24220 0.05900
C 	C 	0.67920 0.33020 0.42240 -0.08200
H 	H 	0.69180 0.30680 0.46580 0.07000
H 	H 	0.67230 0.37860 0.42930 0.06700
C 	C 	0.71530 0.60640 0.20720 -0.18800
H 	H 	0.67980 0.60730 0.22280 0.10600
O 	O 	0.77980 0.82190 0.10170 -0.46100
O 	O 	0.24870 0.38600 0.42890 -0.50800
C 	C 	0.93580 0.23000 0.49350 -0.01600
H 	H 	0.89240 0.23260 0.49100 0.05100
O 	O 	0.23470 0.44580 0.33970 -0.32900
C 	C 	0.01640 0.22670 0.44340 -0.01700
H 	H 	0.02870 0.22240 0.40480 0.04600
C 	C 	0.24250 0.50410 0.44390 -0.10000
C 	C 	0.24340 0.43880 0.40110 0.40400
C 	C 	0.25500 0.56510 0.42270 0.00900
H 	H 	0.26030 0.56860 0.38030 0.04100
C 	C 	0.61500 0.77830 0.95060 -0.19900
H 	H 	0.63100 0.80540 0.98920 0.10100
C 	C 	0.23620 0.49720 0.50670 0.01900
H 	H 	0.22890 0.45420 0.52240 0.03700
C 	C 	0.25050 0.61790 0.52350 -0.02200
C 	C 	0.26030 0.62360 0.46160 -0.05600
H 	H 	0.27030 0.66580 0.44640 0.05600
C 	C 	0.24050 0.55270 0.54550 -0.06600
H 	H 	0.23660 0.54770 0.58840 0.07200
C 	C 	0.42600 0.34510 0.35310 -0.14900
H 	H 	0.45620 0.38040 0.36710 0.08400
C 	C 	0.36510 0.35150 0.36100 0.06200
H 	H 	0.35460 0.39110 0.38020 -0.00200
N 	N 	0.31984 0.29870 0.34020 -0.25900
C 	C 	0.33550 0.23960 0.31150 0.06400
H 	H 	0.30530 0.20430 0.29760 0.00700
C 	C 	0.39640 0.23320 0.30360 -0.14800
H 	H 	0.40690 0.19360 0.28440 0.09000
C 	C 	0.44160 0.28590 0.32440 0.10700
C 	C 	0.39420 0.76280 0.67570 0.08200
H 	H 	0.38530 0.74810 0.63110 -0.01100
N 	N 	0.34617 0.79540 0.69530 -0.26600
C 	C 	0.35940 0.81740 0.76190 0.08300
H 	H 	0.32730 0.83910 0.77500 -0.00100
C 	C 	0.42080 0.80680 0.80890 -0.16000
H 	H 	0.42970 0.82150 0.85340 0.09700
C 	C 	0.46881 0.77420 0.78930 0.12000
C 	C 	0.45550 0.75220 0.72270 -0.16800
H 	H 	0.48770 0.73040 0.70960 0.10800
C 	C 	0.74060 0.45210 0.06500 -0.04300
C 	C 	0.74660 0.39290 0.11190 0.11500
C 	C 	0.68510 0.49360 0.04760 -0.00900
H 	H 	0.65080 0.48190 0.06310 0.03400
C 	C 	0.78950 0.47130 0.04070 -0.01100
H 	H 	0.82680 0.44430 0.05070 0.03200
C 	C 	0.81010 0.32380 0.20480 0.10800
H 	H 	0.85080 0.31260 0.23510 -0.01200
C 	C 	0.70190 0.30560 0.16230 0.10500
H 	H 	0.66500 0.28180 0.16310 -0.02200
C 	C 	0.81840 0.61370 0.16350 0.10300
H 	H 	0.85520 0.61700 0.15000 -0.01100
C 	C 	0.80660 0.37540 0.15740 -0.17600
H 	H 	0.84410 0.39780 0.15640 0.09200
C 	C 	0.69520 0.35420 0.11430 -0.18600
H 	H 	0.65450 0.36140 0.08220 0.09700
C 	C 	0.72180 0.65400 0.16230 0.11400
H 	H 	0.68810 0.68550 0.14610 -0.01700
N 	N 	0.75940 0.29010 0.20920 -0.27500
N 	N 	0.77150 0.65930 0.13970 -0.28000
O 	O 	0.84790 0.71190 0.03690 -0.48300
O 	O 	0.92430 0.71200 0.13320 -0.32400
C 	C 	0.95480 0.70820 0.03420 -0.08000
C 	C 	0.90570 0.70910 0.07320 0.39500
C 	C 	0.02010 0.71010 0.06740 -0.01500
H 	H 	0.03460 0.71370 0.11450 0.05300
C 	C 	0.93470 0.70700 0.96560 -0.01800
H 	H 	0.89060 0.70410 0.94110 0.05600
O 	O 	0.24220 0.23540 0.44860 -0.46500
C 	C 	0.24590 0.18150 0.42570 0.34000
O 	O 	0.23810 0.16420 0.36570 -0.33200
