data_crystal

_cell_length_a 5.64480
_cell_length_b 16.11370
_cell_length_c 15.81330
_cell_angle_alpha 90.00000
_cell_angle_beta  95.09000
_cell_angle_gamma 90.00000

_symmetry_space_group_name_	'P 1'
_symmetry_space_group_name_H-M	'P 1'

loop_
_symmetry_equiv_pos_as_xyz
  x,y,z

loop_
_atom_site_label
_atom_site_type_symbol
_atom_site_fract_x
_atom_site_fract_y
_atom_site_fract_z
_atom_site_charge
Ag	Ag	0.57247 0.36077 0.77167 0.50200
N 	N 	0.59710 0.80474 0.61633 -0.14300
N 	N 	0.77390 0.46808 0.73480 -0.20900
C 	C 	0.92570 0.50840 0.71690 0.06500
C 	C 	0.12190 0.55980 0.69540 -0.05400
C 	C 	0.20670 0.55330 0.61610 -0.01900
H 	H 	0.13970 0.51390 0.57620 0.01900
C 	C 	0.38940 0.60460 0.59560 -0.10300
H 	H 	0.44560 0.60130 0.54080 0.04900
C 	C 	0.49130 0.66102 0.65480 0.06000
C 	C 	0.68660 0.71859 0.63220 -0.13500
H 	H 	0.81490 0.71920 0.67910 0.05000
H 	H 	0.75480 0.69760 0.58070 0.06200
C 	C 	0.42690 0.80698 0.53875 -0.03900
H 	H 	0.28840 0.77120 0.54730 0.02400
H 	H 	0.50540 0.78480 0.49000 0.03000
C 	C 	0.34250 0.89473 0.51922 -0.13500
H 	H 	0.25400 0.91490 0.56650 0.04100
H 	H 	0.23100 0.89400 0.46720 0.05400
C 	C 	0.54380 0.95502 0.50634 -0.00100
H 	H 	0.61970 0.93770 0.45430 0.02300
C 	C 	0.73070 0.94699 0.58312 -0.14100
H 	H 	0.87260 0.98020 0.57250 0.05500
H 	H 	0.66430 0.96980 0.63410 0.04200
C 	C 	0.80450 0.85755 0.59980 -0.03100
H 	H 	0.87910 0.83560 0.55010 0.02900
H 	H 	0.92410 0.85530 0.64950 -0.00300
C 	C 	0.22130 0.61574 0.75530 -0.02100
H 	H 	0.16110 0.62020 0.80940 0.01800
C 	C 	0.41050 0.66510 0.73490 -0.11100
H 	H 	0.48470 0.70180 0.77610 0.02200
Ag	Ag	0.42753 0.86077 0.72833 0.50300
N 	N 	0.40290 0.30474 0.88367 -0.14200
N 	N 	0.22610 0.96808 0.76520 -0.20900
C 	C 	0.07430 0.00840 0.78310 0.06400
C 	C 	0.87810 0.05980 0.80460 -0.05300
C 	C 	0.79330 0.05330 0.88390 -0.02000
H 	H 	0.86030 0.01390 0.92380 0.01900
C 	C 	0.61060 0.10460 0.90440 -0.10300
H 	H 	0.55440 0.10130 0.95920 0.04900
C 	C 	0.50870 0.16102 0.84520 0.05900
C 	C 	0.31340 0.21859 0.86780 -0.13500
H 	H 	0.18510 0.21920 0.82090 0.04900
H 	H 	0.24520 0.19760 0.91930 0.06200
C 	C 	0.57310 0.30698 0.96125 -0.03900
H 	H 	0.71160 0.27120 0.95270 0.02400
H 	H 	0.49460 0.28480 0.01000 0.03000
C 	C 	0.65750 0.39473 0.98078 -0.13500
H 	H 	0.74600 0.41490 0.93350 0.04100
H 	H 	0.76900 0.39400 0.03280 0.05300
C 	C 	0.45620 0.45502 0.99366 -0.00100
H 	H 	0.38030 0.43770 0.04570 0.02300
C 	C 	0.26930 0.44699 0.91688 -0.14100
H 	H 	0.12740 0.48020 0.92750 0.05500
H 	H 	0.33570 0.46980 0.86590 0.04200
C 	C 	0.19550 0.35755 0.90020 -0.03100
H 	H 	0.12090 0.33560 0.94990 0.02900
H 	H 	0.07590 0.35530 0.85050 -0.00300
C 	C 	0.77870 0.11574 0.74470 -0.02200
H 	H 	0.83890 0.12020 0.69060 0.01900
C 	C 	0.58950 0.16510 0.76510 -0.11000
H 	H 	0.51530 0.20180 0.72390 0.02200
Ag	Ag	0.42753 0.63923 0.22833 0.50300
N 	N 	0.40290 0.19526 0.38367 -0.14200
N 	N 	0.22610 0.53192 0.26520 -0.20900
C 	C 	0.07430 0.49160 0.28310 0.06500
C 	C 	0.87810 0.44020 0.30460 -0.05400
C 	C 	0.79330 0.44670 0.38390 -0.01900
H 	H 	0.86030 0.48610 0.42380 0.01900
C 	C 	0.61060 0.39540 0.40440 -0.10300
H 	H 	0.55440 0.39870 0.45920 0.04900
C 	C 	0.50870 0.33898 0.34520 0.06000
C 	C 	0.31340 0.28141 0.36780 -0.13500
H 	H 	0.18510 0.28080 0.32090 0.05000
H 	H 	0.24520 0.30240 0.41930 0.06200
C 	C 	0.57310 0.19302 0.46125 -0.03900
H 	H 	0.71160 0.22880 0.45270 0.02400
H 	H 	0.49460 0.21520 0.51000 0.03000
C 	C 	0.65750 0.10527 0.48078 -0.13500
H 	H 	0.74600 0.08510 0.43350 0.04100
H 	H 	0.76900 0.10600 0.53280 0.05400
C 	C 	0.45620 0.04498 0.49366 -0.00100
H 	H 	0.38030 0.06230 0.54570 0.02300
C 	C 	0.26930 0.05301 0.41688 -0.14100
H 	H 	0.12740 0.01980 0.42750 0.05500
H 	H 	0.33570 0.03020 0.36590 0.04200
C 	C 	0.19550 0.14245 0.40020 -0.03100
H 	H 	0.12090 0.16440 0.44990 0.02900
H 	H 	0.07590 0.14470 0.35050 -0.00300
C 	C 	0.77870 0.38426 0.24470 -0.02100
H 	H 	0.83890 0.37980 0.19060 0.01800
C 	C 	0.58950 0.33490 0.26510 -0.11100
H 	H 	0.51530 0.29820 0.22390 0.02200
Ag	Ag	0.57247 0.13923 0.27167 0.50300
N 	N 	0.59710 0.69526 0.11633 -0.14200
N 	N 	0.77390 0.03192 0.23480 -0.20900
C 	C 	0.92570 0.99160 0.21690 0.06400
C 	C 	0.12190 0.94020 0.19540 -0.05300
C 	C 	0.20670 0.94670 0.11610 -0.02000
H 	H 	0.13970 0.98610 0.07620 0.01900
C 	C 	0.38940 0.89540 0.09560 -0.10300
H 	H 	0.44560 0.89870 0.04080 0.04900
C 	C 	0.49130 0.83898 0.15480 0.05900
C 	C 	0.68660 0.78141 0.13220 -0.13500
H 	H 	0.81490 0.78080 0.17910 0.04900
H 	H 	0.75480 0.80240 0.08070 0.06200
C 	C 	0.42690 0.69302 0.03875 -0.03900
H 	H 	0.28840 0.72880 0.04730 0.02400
H 	H 	0.50540 0.71520 0.99000 0.03000
C 	C 	0.34250 0.60527 0.01922 -0.13500
H 	H 	0.25400 0.58510 0.06650 0.04100
H 	H 	0.23100 0.60600 0.96720 0.05300
C 	C 	0.54380 0.54498 0.00634 -0.00100
H 	H 	0.61970 0.56230 0.95430 0.02300
C 	C 	0.73070 0.55301 0.08312 -0.14100
H 	H 	0.87260 0.51980 0.07250 0.05500
H 	H 	0.66430 0.53020 0.13410 0.04200
C 	C 	0.80450 0.64245 0.09980 -0.03100
H 	H 	0.87910 0.66440 0.05010 0.02900
H 	H 	0.92410 0.64470 0.14950 -0.00300
C 	C 	0.22130 0.88426 0.25530 -0.02200
H 	H 	0.16110 0.87980 0.30940 0.01900
C 	C 	0.41050 0.83490 0.23490 -0.11000
H 	H 	0.48470 0.79820 0.27610 0.02200
