data_crystal

_cell_length_a 18.54740
_cell_length_b 18.54740
_cell_length_c 18.54740
_cell_angle_alpha 90.00000
_cell_angle_beta  90.00000
_cell_angle_gamma 90.00000

_symmetry_space_group_name_	'P 1'
_symmetry_space_group_name_H-M	'P 1'

loop_
_symmetry_equiv_pos_as_xyz
  x,y,z

loop_
_atom_site_label
_atom_site_type_symbol
_atom_site_fract_x
_atom_site_fract_y
_atom_site_fract_z
_atom_site_charge
C 	C 	0.32030 0.34940 0.24710 -0.00300
C 	C 	0.29400 0.26470 0.36750 -0.04700
C 	C 	0.39070 0.18160 0.33100 -0.02800
C 	C 	0.40230 0.14800 0.39520 0.01900
C 	C 	0.35720 0.07550 0.77880 -0.03400
N 	N 	0.38260 0.44330 0.08860 -0.25200
N 	N 	0.04290 0.18940 0.58540 -0.30600
C 	C 	0.67970 0.65060 0.24710 0.00700
C 	C 	0.70600 0.73530 0.36750 -0.02300
C 	C 	0.60930 0.81840 0.33100 -0.03400
C 	C 	0.59770 0.85200 0.39520 0.06700
C 	C 	0.64280 0.92450 0.77880 0.03900
N 	N 	0.61740 0.55670 0.08860 -0.25100
N 	N 	0.95710 0.81060 0.58540 -0.24600
C 	C 	0.67970 0.34940 0.75290 0.01600
C 	C 	0.70600 0.26470 0.63250 -0.03700
C 	C 	0.60930 0.18160 0.66900 -0.02700
C 	C 	0.59770 0.14800 0.60480 0.02600
C 	C 	0.64280 0.07550 0.22120 -0.04300
N 	N 	0.61740 0.44330 0.91140 -0.20600
N 	N 	0.95710 0.18940 0.41460 -0.25500
C 	C 	0.32030 0.65060 0.75290 0.01600
C 	C 	0.29400 0.73530 0.63250 -0.02700
C 	C 	0.39070 0.81840 0.66900 -0.03600
C 	C 	0.40230 0.85200 0.60480 0.06500
C 	C 	0.35720 0.92450 0.22120 0.01900
N 	N 	0.38260 0.55670 0.91140 -0.20700
N 	N 	0.04290 0.81060 0.41460 -0.29900
C 	C 	0.24710 0.32030 0.34940 -0.00200
C 	C 	0.36750 0.29400 0.26470 -0.04600
C 	C 	0.33100 0.39070 0.18160 -0.02700
C 	C 	0.39520 0.40230 0.14800 0.01900
C 	C 	0.77880 0.35720 0.07550 -0.03400
N 	N 	0.08860 0.38260 0.44330 -0.25200
N 	N 	0.58540 0.04290 0.18940 -0.30600
C 	C 	0.24710 0.67970 0.65060 0.00700
C 	C 	0.36750 0.70600 0.73530 -0.02300
C 	C 	0.33100 0.60930 0.81840 -0.03400
C 	C 	0.39520 0.59770 0.85200 0.06700
C 	C 	0.77880 0.64280 0.92450 0.03900
N 	N 	0.08860 0.61740 0.55670 -0.25100
N 	N 	0.58540 0.95710 0.81060 -0.24600
C 	C 	0.75290 0.67970 0.34940 0.01600
C 	C 	0.63250 0.70600 0.26470 -0.03700
C 	C 	0.66900 0.60930 0.18160 -0.02700
C 	C 	0.60480 0.59770 0.14800 0.02600
C 	C 	0.22120 0.64280 0.07550 -0.04300
N 	N 	0.91140 0.61740 0.44330 -0.20600
N 	N 	0.41460 0.95710 0.18940 -0.25500
C 	C 	0.75290 0.32030 0.65060 0.01600
C 	C 	0.63250 0.29400 0.73530 -0.02700
C 	C 	0.66900 0.39070 0.81840 -0.03600
C 	C 	0.60480 0.40230 0.85200 0.06500
C 	C 	0.22120 0.35720 0.92450 0.01900
N 	N 	0.91140 0.38260 0.55670 -0.20700
N 	N 	0.41460 0.04290 0.81060 -0.29900
C 	C 	0.34940 0.24710 0.32030 -0.00200
C 	C 	0.26470 0.36750 0.29400 -0.04600
C 	C 	0.18160 0.33100 0.39070 -0.02700
C 	C 	0.14800 0.39520 0.40230 0.01900
C 	C 	0.07550 0.77880 0.35720 -0.03400
N 	N 	0.44330 0.08860 0.38260 -0.25200
N 	N 	0.18940 0.58540 0.04290 -0.30600
C 	C 	0.65060 0.24710 0.67970 0.00700
C 	C 	0.73530 0.36750 0.70600 -0.02300
C 	C 	0.81840 0.33100 0.60930 -0.03400
C 	C 	0.85200 0.39520 0.59770 0.06700
C 	C 	0.92450 0.77880 0.64280 0.03900
N 	N 	0.55670 0.08860 0.61740 -0.25100
N 	N 	0.81060 0.58540 0.95710 -0.24600
C 	C 	0.34940 0.75290 0.67970 0.01600
C 	C 	0.26470 0.63250 0.70600 -0.03700
C 	C 	0.18160 0.66900 0.60930 -0.02700
C 	C 	0.14800 0.60480 0.59770 0.02600
C 	C 	0.07550 0.22120 0.64280 -0.04300
N 	N 	0.44330 0.91140 0.61740 -0.20600
N 	N 	0.18940 0.41460 0.95710 -0.25500
C 	C 	0.65060 0.75290 0.32030 0.01600
C 	C 	0.73530 0.63250 0.29400 -0.02700
C 	C 	0.81840 0.66900 0.39070 -0.03600
C 	C 	0.85200 0.60480 0.40230 0.06500
C 	C 	0.92450 0.22120 0.35720 0.01900
N 	N 	0.55670 0.91140 0.38260 -0.20700
N 	N 	0.81060 0.41460 0.04290 -0.29900
C 	C 	0.84940 0.82030 0.74710 0.01800
C 	C 	0.76470 0.79400 0.86750 0.00900
C 	C 	0.68160 0.89070 0.83100 -0.03500
C 	C 	0.64800 0.90230 0.89520 0.11800
C 	C 	0.57550 0.85720 0.27880 0.01100
N 	N 	0.94330 0.88260 0.58860 -0.19600
N 	N 	0.68940 0.54290 0.08540 -0.29900
C 	C 	0.15060 0.17970 0.74710 0.00100
C 	C 	0.23530 0.20600 0.86750 -0.02800
C 	C 	0.31840 0.10930 0.83100 -0.03300
C 	C 	0.35200 0.09770 0.89520 0.05300
C 	C 	0.42450 0.14280 0.27880 -0.04400
N 	N 	0.05670 0.11740 0.58860 -0.26100
N 	N 	0.31060 0.45710 0.08540 -0.30000
C 	C 	0.84940 0.17970 0.25290 0.01100
C 	C 	0.76470 0.20600 0.13250 -0.05800
C 	C 	0.68160 0.10930 0.16900 -0.02200
C 	C 	0.64800 0.09770 0.10480 -0.01800
C 	C 	0.57550 0.14280 0.72120 -0.01500
N 	N 	0.94330 0.11740 0.41140 -0.22100
N 	N 	0.68940 0.45710 0.91460 -0.25300
C 	C 	0.15060 0.82030 0.25290 0.00800
C 	C 	0.23530 0.79400 0.13250 -0.05400
C 	C 	0.31840 0.89070 0.16900 -0.03300
C 	C 	0.35200 0.90230 0.10480 0.02500
C 	C 	0.42450 0.85720 0.72120 0.02900
N 	N 	0.05670 0.88260 0.41140 -0.23800
N 	N 	0.31060 0.54290 0.91460 -0.25400
C 	C 	0.82030 0.74710 0.84940 0.01800
C 	C 	0.79400 0.86750 0.76470 0.00900
C 	C 	0.89070 0.83100 0.68160 -0.03500
C 	C 	0.90230 0.89520 0.64800 0.11800
C 	C 	0.85720 0.27880 0.57550 0.01100
N 	N 	0.88260 0.58860 0.94330 -0.19600
N 	N 	0.54290 0.08540 0.68940 -0.29900
C 	C 	0.17970 0.74710 0.15060 0.00100
C 	C 	0.20600 0.86750 0.23530 -0.02800
C 	C 	0.10930 0.83100 0.31840 -0.03300
C 	C 	0.09770 0.89520 0.35200 0.05300
C 	C 	0.14280 0.27880 0.42450 -0.04400
N 	N 	0.11740 0.58860 0.05670 -0.26100
N 	N 	0.45710 0.08540 0.31060 -0.30000
C 	C 	0.17970 0.25290 0.84940 0.01100
C 	C 	0.20600 0.13250 0.76470 -0.05800
C 	C 	0.10930 0.16900 0.68160 -0.02200
C 	C 	0.09770 0.10480 0.64800 -0.01800
C 	C 	0.14280 0.72120 0.57550 -0.01500
N 	N 	0.11740 0.41140 0.94330 -0.22100
N 	N 	0.45710 0.91460 0.68940 -0.25300
C 	C 	0.82030 0.25290 0.15060 0.00800
C 	C 	0.79400 0.13250 0.23530 -0.05400
C 	C 	0.89070 0.16900 0.31840 -0.03300
C 	C 	0.90230 0.10480 0.35200 0.02500
C 	C 	0.85720 0.72120 0.42450 0.02900
N 	N 	0.88260 0.41140 0.05670 -0.23800
N 	N 	0.54290 0.91460 0.31060 -0.25400
C 	C 	0.74710 0.84940 0.82030 0.01800
C 	C 	0.86750 0.76470 0.79400 0.00900
C 	C 	0.83100 0.68160 0.89070 -0.03500
C 	C 	0.89520 0.64800 0.90230 0.11800
C 	C 	0.27880 0.57550 0.85720 0.01100
N 	N 	0.58860 0.94330 0.88260 -0.19600
N 	N 	0.08540 0.68940 0.54290 -0.29900
C 	C 	0.74710 0.15060 0.17970 0.00100
C 	C 	0.86750 0.23530 0.20600 -0.02800
C 	C 	0.83100 0.31840 0.10930 -0.03300
C 	C 	0.89520 0.35200 0.09770 0.05300
C 	C 	0.27880 0.42450 0.14280 -0.04400
N 	N 	0.58860 0.05670 0.11740 -0.26100
N 	N 	0.08540 0.31060 0.45710 -0.30000
C 	C 	0.25290 0.84940 0.17970 0.01100
C 	C 	0.13250 0.76470 0.20600 -0.05800
C 	C 	0.16900 0.68160 0.10930 -0.02200
C 	C 	0.10480 0.64800 0.09770 -0.01800
C 	C 	0.72120 0.57550 0.14280 -0.01500
N 	N 	0.41140 0.94330 0.11740 -0.22100
N 	N 	0.91460 0.68940 0.45710 -0.25300
C 	C 	0.25290 0.15060 0.82030 0.00800
C 	C 	0.13250 0.23530 0.79400 -0.05400
C 	C 	0.16900 0.31840 0.89070 -0.03300
C 	C 	0.10480 0.35200 0.90230 0.02500
C 	C 	0.72120 0.42450 0.85720 0.02900
N 	N 	0.41140 0.05670 0.88260 -0.23800
N 	N 	0.91460 0.31060 0.54290 -0.25400
O 	O 	0.57000 0.00000 0.50000 -0.62600
O 	O 	0.43000 0.00000 0.50000 -0.63000
O 	O 	0.50000 0.57000 -0.00000 -0.62600
O 	O 	0.50000 0.43000 -0.00000 -0.63000
O 	O 	0.00000 0.50000 0.57000 -0.62600
O 	O 	0.00000 0.50000 0.43000 -0.63000
O 	O 	0.50000 0.07000 -0.00000 -0.67900
O 	O 	0.50000 0.93000 -0.00000 -0.57600
O 	O 	0.07000 0.00000 0.50000 -0.67900
O 	O 	0.93000 0.00000 0.50000 -0.57600
O 	O 	0.00000 0.50000 0.07000 -0.67900
O 	O 	0.00000 0.50000 0.93000 -0.57600
Zn	Zn	0.50000 0.00000 0.42000 1.13300
Zn	Zn	0.50000 0.00000 0.58000 1.13300
Zn	Zn	0.42000 0.50000 -0.00000 1.13300
Zn	Zn	0.58000 0.50000 -0.00000 1.13300
Zn	Zn	0.00000 0.42000 0.50000 1.13300
Zn	Zn	-0.00000 0.58000 0.50000 1.13300
Zn	Zn	0.50000 0.00000 0.92000 1.15400
Zn	Zn	0.50000 0.00000 0.08000 1.11200
Zn	Zn	0.00000 0.92000 0.50000 1.15400
Zn	Zn	0.00000 0.08000 0.50000 1.11200
Zn	Zn	0.92000 0.50000 -0.00000 1.15400
Zn	Zn	0.08000 0.50000 -0.00000 1.11200
Zn	Zn	0.00000 0.25000 0.50000 1.06900
Zn	Zn	-0.00000 0.75000 0.50000 1.07400
Zn	Zn	0.50000 0.00000 0.25000 1.06900
Zn	Zn	0.50000 0.00000 0.75000 1.07400
Zn	Zn	0.25000 0.50000 -0.00000 1.06900
Zn	Zn	0.75000 0.50000 -0.00000 1.07400
