data_crystal

_cell_length_a 27.98100
_cell_length_b 11.29830
_cell_length_c 11.87550
_cell_angle_alpha 90.00000
_cell_angle_beta  98.93900
_cell_angle_gamma 90.00000

_symmetry_space_group_name_	'P 1'
_symmetry_space_group_name_H-M	'P 1'

loop_
_symmetry_equiv_pos_as_xyz
  x,y,z

loop_
_atom_site_label
_atom_site_type_symbol
_atom_site_fract_x
_atom_site_fract_y
_atom_site_fract_z
_atom_site_charge
Eu	Eu	0.49505 0.36741 0.16823 1.37200
O 	O 	0.98209 0.11630 0.35680 -0.18000
O 	O 	0.98355 0.45020 0.35820 -0.17100
O 	O 	0.55973 0.50740 0.17220 -0.49000
O 	O 	0.45084 0.38800 0.98780 -0.52900
O 	O 	0.54988 0.28860 0.03500 -0.41400
O 	O 	0.56948 0.24210 0.21500 -0.42600
O 	O 	0.78140 0.45230 0.94190 -0.19600
O 	O 	0.77949 0.12020 0.93910 -0.20700
O 	O 	0.94358 0.55290 0.47570 -0.18900
C 	C 	0.70874 0.13480 0.16480 -0.10800
H 	H 	0.73050 0.09790 0.22370 0.07500
C 	C 	0.62934 0.21180 0.09430 -0.12400
C 	C 	0.72425 0.16670 0.06270 0.02900
C 	C 	0.81750 0.54300 0.23540 -0.06100
H 	H 	0.78800 0.57550 0.25170 0.05800
C 	C 	0.90276 0.11680 0.18470 -0.00200
H 	H 	0.93240 0.08550 0.16840 0.08600
C 	C 	0.77413 0.14460 0.03660 0.10700
C 	C 	0.69442 0.55730 0.97430 -0.14500
H 	H 	0.70600 0.58000 0.90650 0.08300
C 	C 	0.81891 0.48880 0.13030 0.01600
C 	C 	0.90187 0.50210 0.29250 -0.04300
C 	C 	0.72580 0.50370 0.06200 0.06100
C 	C 	0.77591 0.48000 0.03830 0.09400
C 	C 	0.62841 0.54150 0.08220 -0.20400
C 	C 	0.94560 0.50370 0.38280 0.27700
C 	C 	0.70819 0.47050 0.16110 -0.13900
H 	H 	0.72950 0.43590 0.22250 0.08700
C 	C 	0.86302 0.44350 0.10650 -0.05100
H 	H 	0.86450 0.40830 0.03450 0.07900
C 	C 	0.57582 0.55570 0.09020 0.43800
C 	C 	0.64627 0.57800 0.98460 0.09600
H 	H 	0.62560 0.61710 0.92510 -0.05400
C 	C 	0.69156 0.21660 0.97530 -0.09000
H 	H 	0.70170 0.23480 0.90460 0.07600
C 	C 	0.90071 0.16870 0.29010 -0.04900
C 	C 	0.86190 0.11080 0.10440 -0.04700
H 	H 	0.86350 0.07580 0.03230 0.07600
O 	O 	0.94220 0.22080 0.47290 -0.20700
C 	C 	0.85722 0.21720 0.31280 0.00200
H 	H 	0.85610 0.25460 0.38400 0.05800
C 	C 	0.81606 0.21110 0.23260 -0.05700
H 	H 	0.78660 0.24440 0.24840 0.06600
C 	C 	0.81776 0.15590 0.12790 0.01100
C 	C 	0.94390 0.17130 0.38030 0.28100
C 	C 	0.66151 0.15730 0.17980 0.03100
H 	H 	0.65100 0.13530 0.24910 0.01500
C 	C 	0.58038 0.24770 0.11540 0.31800
C 	C 	0.90420 0.44950 0.18670 -0.00200
H 	H 	0.93390 0.41830 0.17030 0.07900
C 	C 	0.85884 0.54940 0.31570 -0.00000
H 	H 	0.85770 0.58630 0.38710 0.05600
C 	C 	0.65987 0.48750 0.17070 0.08800
H 	H 	0.64810 0.46250 0.23770 0.00400
C 	C 	0.64433 0.23980 0.99030 0.02800
H 	H 	0.62230 0.27450 0.93050 0.02500
Eu	Eu	0.50495 0.63259 0.83177 1.37300
O 	O 	0.01791 0.88370 0.64320 -0.17900
O 	O 	0.01645 0.54980 0.64180 -0.17000
O 	O 	0.44027 0.49260 0.82780 -0.48900
O 	O 	0.54916 0.61200 0.01220 -0.52800
O 	O 	0.45012 0.71140 0.96500 -0.41300
O 	O 	0.43052 0.75790 0.78500 -0.42500
O 	O 	0.21860 0.54770 0.05810 -0.19500
O 	O 	0.22051 0.87980 0.06090 -0.20600
O 	O 	0.05642 0.44710 0.52430 -0.18800
C 	C 	0.29126 0.86520 0.83520 -0.10700
H 	H 	0.26950 0.90210 0.77630 0.07600
C 	C 	0.37066 0.78820 0.90570 -0.12300
C 	C 	0.27575 0.83330 0.93730 0.03000
C 	C 	0.18250 0.45700 0.76460 -0.06000
H 	H 	0.21200 0.42450 0.74830 0.05900
C 	C 	0.09724 0.88320 0.81530 -0.00200
H 	H 	0.06760 0.91450 0.83160 0.08600
C 	C 	0.22587 0.85540 0.96340 0.10700
C 	C 	0.30558 0.44270 0.02570 -0.14500
H 	H 	0.29400 0.42000 0.09350 0.08300
C 	C 	0.18109 0.51120 0.86970 0.01600
C 	C 	0.09813 0.49790 0.70750 -0.04300
C 	C 	0.27420 0.49630 0.93800 0.06100
C 	C 	0.22409 0.52000 0.96170 0.09400
C 	C 	0.37159 0.45850 0.91780 -0.20400
C 	C 	0.05440 0.49630 0.61720 0.27700
C 	C 	0.29181 0.52950 0.83890 -0.13900
H 	H 	0.27050 0.56410 0.77750 0.08700
C 	C 	0.13698 0.55650 0.89350 -0.05100
H 	H 	0.13550 0.59170 0.96550 0.07900
C 	C 	0.42418 0.44430 0.90980 0.43800
C 	C 	0.35373 0.42200 0.01540 0.09600
H 	H 	0.37440 0.38290 0.07490 -0.05400
C 	C 	0.30844 0.78340 0.02470 -0.09000
H 	H 	0.29830 0.76520 0.09540 0.07600
C 	C 	0.09929 0.83130 0.70990 -0.04900
C 	C 	0.13810 0.88920 0.89560 -0.04700
H 	H 	0.13650 0.92420 0.96770 0.07600
O 	O 	0.05780 0.77920 0.52710 -0.20700
C 	C 	0.14278 0.78280 0.68720 0.00200
H 	H 	0.14390 0.74540 0.61600 0.05800
C 	C 	0.18394 0.78890 0.76740 -0.05700
H 	H 	0.21340 0.75560 0.75160 0.06600
C 	C 	0.18224 0.84410 0.87210 0.01100
C 	C 	0.05610 0.82870 0.61970 0.28100
C 	C 	0.33849 0.84270 0.82020 0.03100
H 	H 	0.34900 0.86470 0.75090 0.01500
C 	C 	0.41962 0.75230 0.88460 0.31800
C 	C 	0.09580 0.55050 0.81330 -0.00200
H 	H 	0.06610 0.58170 0.82970 0.07900
C 	C 	0.14116 0.45060 0.68430 -0.00000
H 	H 	0.14230 0.41370 0.61290 0.05600
C 	C 	0.34013 0.51250 0.82930 0.08800
H 	H 	0.35190 0.53750 0.76230 0.00400
C 	C 	0.35567 0.76020 0.00970 0.02800
H 	H 	0.37770 0.72550 0.06950 0.02500
Eu	Eu	0.50495 0.86741 0.33177 1.37400
O 	O 	0.01791 0.61630 0.14320 -0.17900
O 	O 	0.01645 0.95020 0.14180 -0.16900
O 	O 	0.44027 0.00740 0.32780 -0.48900
O 	O 	0.54916 0.88800 0.51220 -0.52800
O 	O 	0.45012 0.78860 0.46500 -0.41300
O 	O 	0.43052 0.74210 0.28500 -0.42500
O 	O 	0.21860 0.95230 0.55810 -0.19600
O 	O 	0.22051 0.62020 0.56090 -0.20700
O 	O 	0.05642 0.05290 0.02430 -0.18900
C 	C 	0.29126 0.63480 0.33520 -0.10700
H 	H 	0.26950 0.59790 0.27630 0.07600
C 	C 	0.37066 0.71180 0.40570 -0.12300
C 	C 	0.27575 0.66670 0.43730 0.03100
C 	C 	0.18250 0.04300 0.26460 -0.06100
H 	H 	0.21200 0.07550 0.24830 0.05900
C 	C 	0.09724 0.61680 0.31530 -0.00200
H 	H 	0.06760 0.58550 0.33160 0.08600
C 	C 	0.22587 0.64460 0.46340 0.10800
C 	C 	0.30558 0.05730 0.52570 -0.14500
H 	H 	0.29400 0.08000 0.59350 0.08300
C 	C 	0.18109 0.98880 0.36970 0.01700
C 	C 	0.09813 0.00210 0.20750 -0.04400
C 	C 	0.27420 0.00370 0.43800 0.06100
C 	C 	0.22409 0.98000 0.46170 0.09400
C 	C 	0.37159 0.04150 0.41780 -0.20400
C 	C 	0.05440 0.00370 0.11720 0.27600
C 	C 	0.29181 0.97050 0.33890 -0.13800
H 	H 	0.27050 0.93590 0.27750 0.08700
C 	C 	0.13698 0.94350 0.39350 -0.05100
H 	H 	0.13550 0.90830 0.46550 0.08000
C 	C 	0.42418 0.05570 0.40980 0.43900
C 	C 	0.35373 0.07800 0.51540 0.09700
H 	H 	0.37440 0.11710 0.57490 -0.05400
C 	C 	0.30844 0.71660 0.52470 -0.09100
H 	H 	0.29830 0.73480 0.59540 0.07600
C 	C 	0.09929 0.66870 0.20990 -0.04900
C 	C 	0.13810 0.61080 0.39560 -0.04700
H 	H 	0.13650 0.57580 0.46770 0.07600
O 	O 	0.05780 0.72080 0.02710 -0.20700
C 	C 	0.14278 0.71720 0.18720 0.00200
H 	H 	0.14390 0.75460 0.11600 0.05800
C 	C 	0.18394 0.71110 0.26740 -0.05700
H 	H 	0.21340 0.74440 0.25160 0.06600
C 	C 	0.18224 0.65590 0.37210 0.01100
C 	C 	0.05610 0.67130 0.11970 0.28100
C 	C 	0.33849 0.65730 0.32020 0.03100
H 	H 	0.34900 0.63530 0.25090 0.01500
C 	C 	0.41962 0.74770 0.38460 0.31800
C 	C 	0.09580 0.94950 0.31330 -0.00100
H 	H 	0.06610 0.91830 0.32970 0.07800
C 	C 	0.14116 0.04940 0.18430 0.00000
H 	H 	0.14230 0.08630 0.11290 0.05600
C 	C 	0.34013 0.98750 0.32930 0.08900
H 	H 	0.35190 0.96250 0.26230 0.00400
C 	C 	0.35567 0.73980 0.50970 0.02700
H 	H 	0.37770 0.77450 0.56950 0.02500
Eu	Eu	0.49505 0.13259 0.66823 1.37400
O 	O 	0.98209 0.38370 0.85680 -0.17900
O 	O 	0.98355 0.04980 0.85820 -0.16900
O 	O 	0.55973 0.99260 0.67220 -0.48900
O 	O 	0.45084 0.11200 0.48780 -0.52800
O 	O 	0.54988 0.21140 0.53500 -0.41300
O 	O 	0.56948 0.25790 0.71500 -0.42500
O 	O 	0.78140 0.04770 0.44190 -0.19600
O 	O 	0.77949 0.37980 0.43910 -0.20700
O 	O 	0.94358 0.94710 0.97570 -0.18900
C 	C 	0.70874 0.36520 0.66480 -0.10700
H 	H 	0.73050 0.40210 0.72370 0.07600
C 	C 	0.62934 0.28820 0.59430 -0.12300
C 	C 	0.72425 0.33330 0.56270 0.03100
C 	C 	0.81750 0.95700 0.73540 -0.06100
H 	H 	0.78800 0.92450 0.75170 0.05900
C 	C 	0.90276 0.38320 0.68470 -0.00200
H 	H 	0.93240 0.41450 0.66840 0.08600
C 	C 	0.77413 0.35540 0.53660 0.10800
C 	C 	0.69442 0.94270 0.47430 -0.14500
H 	H 	0.70600 0.92000 0.40650 0.08300
C 	C 	0.81891 0.01120 0.63030 0.01700
C 	C 	0.90187 0.99790 0.79250 -0.04400
C 	C 	0.72580 0.99630 0.56200 0.06100
C 	C 	0.77591 0.02000 0.53830 0.09400
C 	C 	0.62841 0.95850 0.58220 -0.20400
C 	C 	0.94560 0.99630 0.88280 0.27600
C 	C 	0.70819 0.02950 0.66110 -0.13800
H 	H 	0.72950 0.06410 0.72250 0.08700
C 	C 	0.86302 0.05650 0.60650 -0.05100
H 	H 	0.86450 0.09170 0.53450 0.08000
C 	C 	0.57582 0.94430 0.59020 0.43900
C 	C 	0.64627 0.92200 0.48460 0.09700
H 	H 	0.62560 0.88290 0.42510 -0.05400
C 	C 	0.69156 0.28340 0.47530 -0.09100
H 	H 	0.70170 0.26520 0.40460 0.07600
C 	C 	0.90071 0.33130 0.79010 -0.04900
C 	C 	0.86190 0.38920 0.60440 -0.04700
H 	H 	0.86350 0.42420 0.53230 0.07600
O 	O 	0.94220 0.27920 0.97290 -0.20700
C 	C 	0.85722 0.28280 0.81280 0.00200
H 	H 	0.85610 0.24540 0.88400 0.05800
C 	C 	0.81606 0.28890 0.73260 -0.05700
H 	H 	0.78660 0.25560 0.74840 0.06600
C 	C 	0.81776 0.34410 0.62790 0.01100
C 	C 	0.94390 0.32870 0.88030 0.28100
C 	C 	0.66151 0.34270 0.67980 0.03100
H 	H 	0.65100 0.36470 0.74910 0.01500
C 	C 	0.58038 0.25230 0.61540 0.31800
C 	C 	0.90420 0.05050 0.68670 -0.00100
H 	H 	0.93390 0.08170 0.67030 0.07800
C 	C 	0.85884 0.95060 0.81570 0.00000
H 	H 	0.85770 0.91370 0.88710 0.05600
C 	C 	0.65987 0.01250 0.67070 0.08900
H 	H 	0.64810 0.03750 0.73770 0.00400
C 	C 	0.64433 0.26020 0.49030 0.02700
H 	H 	0.62230 0.22550 0.43050 0.02500
