data_crystal

_cell_length_a 20.56200
_cell_length_b 9.21200
_cell_length_c 15.03800
_cell_angle_alpha 90.00000
_cell_angle_beta  90.00000
_cell_angle_gamma 90.00000

_symmetry_space_group_name_	'P 1'
_symmetry_space_group_name_H-M	'P 1'

loop_
_symmetry_equiv_pos_as_xyz
  x,y,z

loop_
_atom_site_label
_atom_site_type_symbol
_atom_site_fract_x
_atom_site_fract_y
_atom_site_fract_z
_atom_site_charge
Ag	Ag	0.71390 0.56628 0.64233 0.53900
S 	S 	0.72652 0.44940 0.27861 -0.12200
N 	N 	0.75870 0.47630 0.50110 -0.07800
C 	C 	0.65430 0.37030 0.45640 0.04300
H 	H 	0.64430 0.29580 0.41200 0.06700
N 	N 	0.61520 0.33870 0.53500 -0.06300
F 	F 	0.56870 0.09610 0.42550 -0.52100
N 	N 	0.63000 0.40400 0.61490 -0.18900
N 	N 	0.72390 0.35600 0.47890 -0.15200
C 	C 	0.64000 0.51800 0.41400 0.00900
C 	C 	0.55780 0.26960 0.53900 -0.03600
F 	F 	0.47480 0.12360 0.48720 -0.47300
C 	C 	0.65430 0.69720 0.29690 -0.07500
H 	H 	0.67370 0.72610 0.24390 0.07400
F 	F 	0.51170 0.28350 0.39730 -0.46400
C 	C 	0.57990 0.42210 0.76370 -0.97900
H 	H 	0.62090 0.39970 0.79100 0.34200
H 	H 	0.54550 0.37540 0.79610 0.36600
H 	H 	0.57320 0.52520 0.76430 0.37000
C 	C 	0.53420 0.28750 0.62360 -0.16000
H 	H 	0.49520 0.25220 0.64620 0.15200
C 	C 	0.57990 0.36820 0.66830 0.34500
C 	C 	0.52860 0.19250 0.46320 0.86300
F 	F 	0.86980 0.59730 0.59130 -0.56100
C 	C 	0.67890 0.30740 0.23160 0.13600
C 	C 	0.66890 0.56100 0.33430 0.04700
F 	F 	0.87870 0.62450 0.45410 -0.52500
C 	C 	0.61130 0.78620 0.33950 -0.00900
H 	H 	0.60220 0.87700 0.31550 0.07400
C 	C 	0.81950 0.42920 0.50020 -0.09900
C 	C 	0.71260 0.18530 0.20260 -0.21500
H 	H 	0.75760 0.18110 0.20840 0.09600
C 	C 	0.59460 0.61160 0.45410 -0.04200
H 	H 	0.57350 0.58290 0.50590 0.09000
C 	C 	0.61260 0.31390 0.22360 -0.15700
H 	H 	0.58970 0.39560 0.24220 0.14200
C 	C 	0.87180 0.53500 0.51590 0.96700
C 	C 	0.76190 0.23770 0.46580 0.36200
C 	C 	0.57960 0.19310 0.18620 0.15200
H 	H 	0.53450 0.19360 0.18120 0.02000
C 	C 	0.58100 0.74420 0.41790 -0.04000
H 	H 	0.55150 0.80610 0.44570 0.10000
C 	C 	0.73620 0.09190 0.44310 -0.98100
H 	H 	0.70550 0.06210 0.48750 0.34700
H 	H 	0.77150 0.02360 0.44080 0.33900
H 	H 	0.71510 0.09570 0.38620 0.34400
C 	C 	0.82390 0.28350 0.47890 -0.18700
H 	H 	0.86160 0.22830 0.47440 0.13700
C 	C 	0.67950 0.07100 0.16520 0.14400
H 	H 	0.70230 0.99020 0.14520 -0.02300
C 	C 	0.61490 0.07490 0.15730 -0.21200
H 	H 	0.59330 0.99650 0.13190 0.15200
F 	F 	0.93050 0.46680 0.51730 -0.48500
Ag	Ag	0.78610 0.56628 0.14233 0.53500
S 	S 	0.77348 0.44940 0.77861 -0.12400
N 	N 	0.74130 0.47630 0.00110 -0.08800
C 	C 	0.84570 0.37030 0.95640 0.08400
H 	H 	0.85570 0.29580 0.91200 0.05900
N 	N 	0.88480 0.33870 0.03500 -0.07400
F 	F 	0.93130 0.09610 0.92550 -0.52100
N 	N 	0.87000 0.40400 0.11490 -0.19000
N 	N 	0.77610 0.35600 0.97890 -0.14100
C 	C 	0.86000 0.51800 0.91400 -0.03600
C 	C 	0.94220 0.26960 0.03900 -0.07300
F 	F 	0.02520 0.12360 0.98720 -0.46500
C 	C 	0.84570 0.69720 0.79690 -0.11600
H 	H 	0.82630 0.72610 0.74390 0.09000
F 	F 	0.98830 0.28350 0.89730 -0.46400
C 	C 	0.92010 0.42210 0.26370 -0.96100
H 	H 	0.87910 0.39970 0.29100 0.33400
H 	H 	0.95450 0.37540 0.29610 0.35800
H 	H 	0.92680 0.52520 0.26430 0.36200
C 	C 	0.96580 0.28750 0.12360 -0.14100
H 	H 	0.00480 0.25220 0.14620 0.14100
C 	C 	0.92010 0.36820 0.16830 0.33400
C 	C 	0.97140 0.19250 0.96320 0.89000
F 	F 	0.63020 0.59730 0.09130 -0.56200
C 	C 	0.82110 0.30740 0.73160 0.13800
C 	C 	0.83110 0.56100 0.83430 0.07800
F 	F 	0.62130 0.62450 0.95410 -0.50100
C 	C 	0.88870 0.78620 0.83950 0.05000
H 	H 	0.89780 0.87700 0.81550 0.05500
C 	C 	0.68050 0.42920 0.00020 -0.13800
C 	C 	0.78740 0.18530 0.70260 -0.21400
H 	H 	0.74240 0.18110 0.70840 0.09900
C 	C 	0.90540 0.61160 0.95410 0.07100
H 	H 	0.92650 0.58290 0.00590 0.03000
C 	C 	0.88740 0.31390 0.72360 -0.15800
H 	H 	0.91030 0.39560 0.74220 0.14300
C 	C 	0.62820 0.53500 0.01590 0.94900
C 	C 	0.73810 0.23770 0.96580 0.35600
C 	C 	0.92040 0.19310 0.68620 0.15600
H 	H 	0.96550 0.19360 0.68120 0.02200
C 	C 	0.91900 0.74420 0.91790 -0.11800
H 	H 	0.94850 0.80610 0.94570 0.13500
C 	C 	0.76380 0.09190 0.94310 -0.97900
H 	H 	0.79450 0.06210 0.98750 0.35400
H 	H 	0.72850 0.02360 0.94080 0.34300
H 	H 	0.78490 0.09570 0.88620 0.34500
C 	C 	0.67610 0.28350 0.97890 -0.13600
H 	H 	0.63840 0.22830 0.97440 0.12900
C 	C 	0.82050 0.07100 0.66520 0.14900
H 	H 	0.79770 0.99020 0.64520 -0.01900
C 	C 	0.88510 0.07490 0.65730 -0.21200
H 	H 	0.90670 0.99650 0.63190 0.15800
F 	F 	0.56950 0.46680 0.01730 -0.49400
Ag	Ag	0.28610 0.43372 0.14233 0.53500
S 	S 	0.27348 0.55060 0.77861 -0.12400
N 	N 	0.24130 0.52370 0.00110 -0.08900
C 	C 	0.34570 0.62970 0.95640 0.08600
H 	H 	0.35570 0.70420 0.91200 0.05800
N 	N 	0.38480 0.66130 0.03500 -0.07500
F 	F 	0.43130 0.90390 0.92550 -0.52100
N 	N 	0.37000 0.59600 0.11490 -0.19000
N 	N 	0.27610 0.64400 0.97890 -0.14100
C 	C 	0.36000 0.48200 0.91400 -0.03800
C 	C 	0.44220 0.73040 0.03900 -0.07500
F 	F 	0.52520 0.87640 0.98720 -0.46700
C 	C 	0.34570 0.30280 0.79690 -0.11900
H 	H 	0.32630 0.27390 0.74390 0.09100
F 	F 	0.48830 0.71650 0.89730 -0.46300
C 	C 	0.42010 0.57790 0.26370 -0.96000
H 	H 	0.37910 0.60030 0.29100 0.33400
H 	H 	0.45450 0.62460 0.29610 0.35800
H 	H 	0.42680 0.47480 0.26430 0.36200
C 	C 	0.46580 0.71250 0.12360 -0.14100
H 	H 	0.50480 0.74780 0.14620 0.14100
C 	C 	0.42010 0.63180 0.16830 0.33400
C 	C 	0.47140 0.80750 0.96320 0.89400
F 	F 	0.13020 0.40270 0.09130 -0.56200
C 	C 	0.32110 0.69260 0.73160 0.13800
C 	C 	0.33110 0.43900 0.83430 0.08000
F 	F 	0.12130 0.37550 0.95410 -0.50000
C 	C 	0.38870 0.21380 0.83950 0.05300
H 	H 	0.39780 0.12300 0.81550 0.05400
C 	C 	0.18050 0.57080 0.00020 -0.13900
C 	C 	0.28740 0.81470 0.70260 -0.21300
H 	H 	0.24240 0.81890 0.70840 0.09900
C 	C 	0.40540 0.38840 0.95410 0.07700
H 	H 	0.42650 0.41710 0.00590 0.02700
C 	C 	0.38740 0.68610 0.72360 -0.15700
H 	H 	0.41030 0.60440 0.74220 0.14300
C 	C 	0.12820 0.46500 0.01590 0.94900
C 	C 	0.23810 0.76230 0.96580 0.35600
C 	C 	0.42040 0.80690 0.68620 0.15500
H 	H 	0.46550 0.80640 0.68120 0.02300
C 	C 	0.41900 0.25580 0.91790 -0.12200
H 	H 	0.44850 0.19390 0.94570 0.13700
C 	C 	0.26380 0.90810 0.94310 -0.98000
H 	H 	0.29450 0.93790 0.98750 0.35500
H 	H 	0.22850 0.97640 0.94080 0.34400
H 	H 	0.28490 0.90430 0.88620 0.34500
C 	C 	0.17610 0.71650 0.97890 -0.13400
H 	H 	0.13840 0.77170 0.97440 0.12900
C 	C 	0.32050 0.92900 0.66520 0.14800
H 	H 	0.29770 0.00980 0.64520 -0.01800
C 	C 	0.38510 0.92510 0.65730 -0.21000
H 	H 	0.40670 0.00350 0.63190 0.15800
F 	F 	0.06950 0.53320 0.01730 -0.49500
Ag	Ag	0.21390 0.43372 0.64233 0.54100
S 	S 	0.22652 0.55060 0.27861 -0.12100
N 	N 	0.25870 0.52370 0.50110 -0.07700
C 	C 	0.15430 0.62970 0.45640 0.04400
H 	H 	0.14430 0.70420 0.41200 0.06800
N 	N 	0.11520 0.66130 0.53500 -0.06100
F 	F 	0.06870 0.90390 0.42550 -0.52100
N 	N 	0.13000 0.59600 0.61490 -0.18900
N 	N 	0.22390 0.64400 0.47890 -0.15200
C 	C 	0.14000 0.48200 0.41400 0.00900
C 	C 	0.05780 0.73040 0.53900 -0.03700
F 	F 	0.97480 0.87640 0.48720 -0.47400
C 	C 	0.15430 0.30280 0.29690 -0.07400
H 	H 	0.17370 0.27390 0.24390 0.07400
F 	F 	0.01170 0.71650 0.39730 -0.46400
C 	C 	0.07990 0.57790 0.76370 -0.97900
H 	H 	0.12090 0.60030 0.79100 0.34200
H 	H 	0.04550 0.62460 0.79610 0.36600
H 	H 	0.07320 0.47480 0.76430 0.37000
C 	C 	0.03420 0.71250 0.62360 -0.15800
H 	H 	0.99520 0.74780 0.64620 0.15100
C 	C 	0.07990 0.63180 0.66830 0.34500
C 	C 	0.02860 0.80750 0.46320 0.86300
F 	F 	0.36980 0.40270 0.59130 -0.56100
C 	C 	0.17890 0.69260 0.23160 0.13600
C 	C 	0.16890 0.43900 0.33430 0.04700
F 	F 	0.37870 0.37550 0.45410 -0.52500
C 	C 	0.11130 0.21380 0.33950 -0.00900
H 	H 	0.10220 0.12300 0.31550 0.07400
C 	C 	0.31950 0.57080 0.50020 -0.09900
C 	C 	0.21260 0.81470 0.20260 -0.21500
H 	H 	0.25760 0.81890 0.20840 0.09600
C 	C 	0.09460 0.38840 0.45410 -0.04200
H 	H 	0.07350 0.41710 0.50590 0.09000
C 	C 	0.11260 0.68610 0.22360 -0.15800
H 	H 	0.08970 0.60440 0.24220 0.14200
C 	C 	0.37180 0.46500 0.51590 0.96700
C 	C 	0.26190 0.76230 0.46580 0.36200
C 	C 	0.07960 0.80690 0.18620 0.15300
H 	H 	0.03450 0.80640 0.18120 0.02000
C 	C 	0.08100 0.25580 0.41790 -0.04000
H 	H 	0.05150 0.19390 0.44570 0.10100
C 	C 	0.23620 0.90810 0.44310 -0.98100
H 	H 	0.20550 0.93790 0.48750 0.34700
H 	H 	0.27150 0.97640 0.44080 0.33900
H 	H 	0.21510 0.90430 0.38620 0.34400
C 	C 	0.32390 0.71650 0.47890 -0.18700
H 	H 	0.36160 0.77170 0.47440 0.13700
C 	C 	0.17950 0.92900 0.16520 0.14400
H 	H 	0.20230 0.00980 0.14520 -0.02400
C 	C 	0.11490 0.92510 0.15730 -0.21400
H 	H 	0.09330 0.00350 0.13190 0.15200
F 	F 	0.43050 0.53320 0.51730 -0.48500
