data_crystal

_cell_length_a 10.31400
_cell_length_b 7.44700
_cell_length_c 24.04000
_cell_angle_alpha 90.00000
_cell_angle_beta  95.03400
_cell_angle_gamma 90.00000

_symmetry_space_group_name_	'P 1'
_symmetry_space_group_name_H-M	'P 1'

loop_
_symmetry_equiv_pos_as_xyz
  x,y,z

loop_
_atom_site_label
_atom_site_type_symbol
_atom_site_fract_x
_atom_site_fract_y
_atom_site_fract_z
_atom_site_charge
S 	S 	0.67310 0.80353 0.29921 0.10300
C 	C 	0.22840 0.82390 0.25854 0.09200
N 	N 	0.84126 0.59560 0.04204 -0.27200
C 	C 	0.62290 0.56450 0.06840 -0.17300
H 	H 	0.54190 0.50990 0.06190 0.07400
N 	N 	0.69190 0.77370 0.23407 -0.11300
N 	N 	0.51570 0.81280 0.29780 -0.11400
C 	C 	0.54110 0.73290 0.14862 -0.04400
C 	C 	0.64470 0.68920 0.11135 0.11100
C 	C 	0.46990 0.79150 0.24369 0.05700
C 	C 	0.86170 0.71990 0.08256 0.08800
H 	H 	0.94260 0.77570 0.08710 -0.02800
C 	C 	0.41110 0.73590 0.12937 -0.03900
H 	H 	0.38800 0.71580 0.09160 0.01700
C 	C 	0.33530 0.79500 0.22206 -0.03200
C 	C 	0.11610 0.92030 0.23992 -0.11300
H 	H 	0.10670 0.96610 0.20380 0.05800
C 	C 	0.57090 0.76790 0.20692 0.05700
C 	C 	0.23340 0.75620 0.31282 -0.14400
H 	H 	0.30490 0.68950 0.32720 0.09300
C 	C 	0.31100 0.76870 0.16526 -0.04200
H 	H 	0.22520 0.77260 0.14970 0.01500
C 	C 	0.76870 0.76870 0.11773 -0.16600
H 	H 	0.78810 0.85380 0.14550 0.10800
N 	N 	0.02500 0.88470 0.32780 -0.15100
C 	C 	0.72160 0.52200 0.03541 0.08400
H 	H 	0.70450 0.43800 0.00710 -0.05300
C 	C 	0.13070 0.78920 0.34542 0.08300
H 	H 	0.13580 0.74220 0.38140 -0.02600
C 	C 	0.01950 0.94710 0.27547 0.01100
H 	H 	0.94640 0.01240 0.26220 0.04900
S 	S 	0.32690 0.19647 0.70079 0.03000
C 	C 	0.77160 0.17610 0.74146 0.12200
N 	N 	0.15874 0.40440 0.95796 -0.28300
C 	C 	0.37710 0.43550 0.93160 -0.17100
H 	H 	0.45810 0.49010 0.93810 0.09400
N 	N 	0.30810 0.22630 0.76593 -0.12100
N 	N 	0.48430 0.18720 0.70220 -0.12300
C 	C 	0.45890 0.26710 0.85138 -0.04600
C 	C 	0.35530 0.31080 0.88865 0.10900
C 	C 	0.53010 0.20850 0.75631 0.05200
C 	C 	0.13830 0.28010 0.91744 0.08300
H 	H 	0.05740 0.22430 0.91290 -0.07000
C 	C 	0.58890 0.26410 0.87063 -0.04300
H 	H 	0.61200 0.28420 0.90840 0.03500
C 	C 	0.66470 0.20500 0.77794 -0.05100
C 	C 	0.88390 0.07970 0.76008 -0.19400
H 	H 	0.89330 0.03390 0.79620 0.10500
C 	C 	0.42910 0.23210 0.79308 0.04900
C 	C 	0.76660 0.24380 0.68718 -0.17500
H 	H 	0.69510 0.31050 0.67280 0.09700
C 	C 	0.68900 0.23130 0.83474 -0.03900
H 	H 	0.77480 0.22740 0.85030 0.03600
C 	C 	0.23130 0.23130 0.88227 -0.17300
H 	H 	0.21190 0.14620 0.85450 0.08100
N 	N 	0.97500 0.11530 0.67220 -0.15800
C 	C 	0.27840 0.47800 0.96459 0.08500
H 	H 	0.29550 0.56200 0.99290 -0.03400
C 	C 	0.86930 0.21080 0.65458 0.09600
H 	H 	0.86420 0.25780 0.61860 -0.02400
C 	C 	0.98050 0.05290 0.72453 0.16200
H 	H 	0.05360 0.98760 0.73780 -0.03000
Ni	Ni	-0.00000 0.50000 -0.00000 0.90900
S 	S 	0.32690 0.30353 0.20079 0.03000
C 	C 	0.77160 0.32390 0.24146 0.15400
N 	N 	0.15874 0.09560 0.45796 -0.27900
C 	C 	0.37710 0.06450 0.43160 -0.11500
H 	H 	0.45810 0.00990 0.43810 0.05000
N 	N 	0.30810 0.27370 0.26593 -0.12200
N 	N 	0.48430 0.31280 0.20220 -0.12200
C 	C 	0.45890 0.23290 0.35138 -0.03400
C 	C 	0.35530 0.18920 0.38865 0.07600
C 	C 	0.53010 0.29150 0.25631 0.05900
C 	C 	0.13830 0.21990 0.41744 0.06600
H 	H 	0.05740 0.27570 0.41290 -0.06800
C 	C 	0.58890 0.23590 0.37063 -0.05400
H 	H 	0.61200 0.21580 0.40840 0.03200
C 	C 	0.66470 0.29500 0.27794 -0.06400
C 	C 	0.88390 0.42030 0.26008 -0.25300
H 	H 	0.89330 0.46610 0.29620 0.13700
C 	C 	0.42910 0.26790 0.29308 0.04200
C 	C 	0.76660 0.25620 0.18718 -0.19600
H 	H 	0.69510 0.18950 0.17280 0.09700
C 	C 	0.68900 0.26870 0.33474 -0.03000
H 	H 	0.77480 0.27260 0.35030 0.02900
C 	C 	0.23130 0.26870 0.38227 -0.15500
H 	H 	0.21190 0.35380 0.35450 0.08200
N 	N 	0.97500 0.38470 0.17220 -0.17500
C 	C 	0.27840 0.02200 0.46459 -0.03000
H 	H 	0.29550 0.93800 0.49290 0.01900
C 	C 	0.86930 0.28920 0.15458 0.11200
H 	H 	0.86420 0.24220 0.11860 -0.03400
C 	C 	0.98050 0.44710 0.22453 0.27200
H 	H 	0.05360 0.51240 0.23780 -0.10300
S 	S 	0.67310 0.69647 0.79921 0.10300
C 	C 	0.22840 0.67610 0.75854 0.06300
N 	N 	0.84126 0.90440 0.54204 -0.27700
C 	C 	0.62290 0.93550 0.56840 -0.22800
H 	H 	0.54190 0.99010 0.56190 0.11800
N 	N 	0.69190 0.72630 0.73407 -0.11300
N 	N 	0.51570 0.68720 0.79780 -0.11600
C 	C 	0.54110 0.76710 0.64862 -0.05500
C 	C 	0.64470 0.81080 0.61135 0.14300
C 	C 	0.46990 0.70850 0.74369 0.05100
C 	C 	0.86170 0.78010 0.58256 0.10500
H 	H 	0.94260 0.72430 0.58710 -0.03000
C 	C 	0.41110 0.76410 0.62937 -0.02700
H 	H 	0.38800 0.78420 0.59160 0.02100
C 	C 	0.33530 0.70500 0.72206 -0.01900
C 	C 	0.11610 0.57970 0.73992 -0.05700
H 	H 	0.10670 0.53390 0.70380 0.02800
C 	C 	0.57090 0.73210 0.70692 0.06300
C 	C 	0.23340 0.74380 0.81282 -0.12500
H 	H 	0.30490 0.81050 0.82720 0.09400
C 	C 	0.31100 0.73130 0.66526 -0.05100
H 	H 	0.22520 0.72740 0.64970 0.02200
C 	C 	0.76870 0.73130 0.61773 -0.18400
H 	H 	0.78810 0.64620 0.64550 0.10800
N 	N 	0.02500 0.61530 0.82780 -0.13600
C 	C 	0.72160 0.97800 0.53541 0.19700
H 	H 	0.70450 0.06200 0.50710 -0.10500
C 	C 	0.13070 0.71080 0.84542 0.06800
H 	H 	0.13580 0.75780 0.88140 -0.01600
C 	C 	0.01950 0.55290 0.77547 -0.09200
H 	H 	0.94640 0.48760 0.76220 0.11700
Ni	Ni	0.00000 0.00000 0.50000 0.90700
