data_crystal

_cell_length_a 17.01920
_cell_length_b 27.79600
_cell_length_c 9.32380
_cell_angle_alpha 90.00000
_cell_angle_beta  90.00000
_cell_angle_gamma 90.00000

_symmetry_space_group_name_	'P 1'
_symmetry_space_group_name_H-M	'P 1'

loop_
_symmetry_equiv_pos_as_xyz
  x,y,z

loop_
_atom_site_label
_atom_site_type_symbol
_atom_site_fract_x
_atom_site_fract_y
_atom_site_fract_z
_atom_site_charge
O 	O 	0.51180 0.23014 0.13400 -0.16400
O 	O 	0.90330 0.82450 0.13180 -1.72400
C 	C 	0.70060 0.90900 0.12970 0.35900
H 	H 	0.68800 0.93070 0.05720 -0.17400
C 	C 	0.77000 0.88340 0.12450 -0.45100
H 	H 	0.80120 0.88380 0.04270 -0.02100
C 	C 	0.74020 0.84750 0.15750 1.23900
H 	H 	0.74990 0.82370 0.08970 -0.55000
C 	C 	0.67100 0.87080 0.15140 -1.13000
H 	H 	0.63820 0.86480 0.07370 0.38300
O 	O 	0.01180 0.73014 0.13400 -11.00200
O 	O 	0.40330 0.32450 0.13180 -0.57100
C 	C 	0.20060 0.40900 0.12970 0.19600
H 	H 	0.18800 0.43070 0.05720 -0.02400
C 	C 	0.27000 0.38340 0.12450 -0.28100
H 	H 	0.30120 0.38380 0.04270 0.15200
C 	C 	0.24020 0.34750 0.15750 0.75100
H 	H 	0.24990 0.32370 0.08970 -0.12800
C 	C 	0.17100 0.37080 0.15140 -0.76500
H 	H 	0.13820 0.36480 0.07370 0.40700
O 	O 	0.48820 0.23014 0.36600 -0.31200
O 	O 	0.09670 0.82450 0.36820 0.01000
C 	C 	0.29940 0.90900 0.37030 -0.05000
H 	H 	0.31200 0.93070 0.44280 0.10200
C 	C 	0.23000 0.88340 0.37550 0.04300
H 	H 	0.19880 0.88380 0.45730 0.14100
C 	C 	0.25980 0.84750 0.34250 -0.01600
H 	H 	0.25010 0.82370 0.41030 0.11800
C 	C 	0.32900 0.87080 0.34860 -0.09000
H 	H 	0.36180 0.86480 0.42630 0.08200
O 	O 	0.98820 0.73014 0.36600 9.25700
O 	O 	0.59670 0.32450 0.36820 -0.63900
C 	C 	0.79940 0.40900 0.37030 0.35100
H 	H 	0.81200 0.43070 0.44280 -0.28600
C 	C 	0.73000 0.38340 0.37550 -0.35700
H 	H 	0.69880 0.38380 0.45730 0.08900
C 	C 	0.75980 0.34750 0.34250 0.84600
H 	H 	0.75010 0.32370 0.41030 -0.46900
C 	C 	0.82900 0.37080 0.34860 -1.10800
H 	H 	0.86180 0.36480 0.42630 -0.16900
O 	O 	0.51180 0.23014 0.36600 -0.16400
O 	O 	0.90330 0.82450 0.36820 -1.73100
C 	C 	0.70060 0.90900 0.37030 0.35700
H 	H 	0.68800 0.93070 0.44280 -0.17700
C 	C 	0.77000 0.88340 0.37550 -0.45100
H 	H 	0.80120 0.88380 0.45730 -0.02400
C 	C 	0.74020 0.84750 0.34250 1.23900
H 	H 	0.74990 0.82370 0.41030 -0.55200
C 	C 	0.67100 0.87080 0.34860 -1.13000
H 	H 	0.63820 0.86480 0.42630 0.38300
O 	O 	0.01180 0.73014 0.36600 -11.05900
O 	O 	0.40330 0.32450 0.36820 -0.57000
C 	C 	0.20060 0.40900 0.37030 0.19600
H 	H 	0.18800 0.43070 0.44280 -0.02100
C 	C 	0.27000 0.38340 0.37550 -0.28100
H 	H 	0.30120 0.38380 0.45730 0.15500
C 	C 	0.24020 0.34750 0.34250 0.75100
H 	H 	0.24990 0.32370 0.41030 -0.12600
C 	C 	0.17100 0.37080 0.34860 -0.76600
H 	H 	0.13820 0.36480 0.42630 0.41100
O 	O 	0.48820 0.23014 0.13400 -0.31100
O 	O 	0.09670 0.82450 0.13180 0.00500
C 	C 	0.29940 0.90900 0.12970 -0.05000
H 	H 	0.31200 0.93070 0.05720 0.10000
C 	C 	0.23000 0.88340 0.12450 0.04300
H 	H 	0.19880 0.88380 0.04270 0.13700
C 	C 	0.25980 0.84750 0.15750 -0.01500
H 	H 	0.25010 0.82370 0.08970 0.11600
C 	C 	0.32900 0.87080 0.15140 -0.09000
H 	H 	0.36180 0.86480 0.07370 0.08100
O 	O 	0.98820 0.73014 0.13400 9.20200
O 	O 	0.59670 0.32450 0.13180 -0.63800
C 	C 	0.79940 0.40900 0.12970 0.35000
H 	H 	0.81200 0.43070 0.05720 -0.28200
C 	C 	0.73000 0.38340 0.12450 -0.35500
H 	H 	0.69880 0.38380 0.04270 0.09000
C 	C 	0.75980 0.34750 0.15750 0.84400
H 	H 	0.75010 0.32370 0.08970 -0.46700
C 	C 	0.82900 0.37080 0.15140 -1.10800
H 	H 	0.86180 0.36480 0.07370 -0.16300
Zn	Zn	-0.00000 0.79807 0.07129 1.68600
N 	N 	-0.00000 0.78850 0.87110 0.02100
Zn	Zn	0.50000 0.29807 0.07129 1.22100
N 	N 	0.50000 0.28850 0.87110 -0.32600
Zn	Zn	-0.00000 0.79807 0.42871 1.69100
N 	N 	-0.00000 0.78850 0.62890 0.02600
Zn	Zn	0.50000 0.29807 0.42871 1.22100
N 	N 	0.50000 0.28850 0.62890 -0.32600
C 	C 	-0.00000 0.80190 0.75000 0.77100
C 	C 	0.50000 0.30190 0.75000 0.16800
C 	C 	0.50000 0.90270 0.25000 0.26000
C 	C 	0.50000 0.00250 0.25000 -0.18400
C 	C 	0.50000 0.05570 0.25000 0.20900
C 	C 	0.50000 0.20980 0.25000 0.39800
C 	C 	0.50000 0.15610 0.25000 -0.21400
N 	N 	0.50000 0.85850 0.25000 -0.16300
C 	C 	-0.00000 0.40270 0.25000 2.27700
C 	C 	-0.00000 0.50250 0.25000 1.49000
C 	C 	-0.00000 0.55570 0.25000 0.19500
C 	C 	-0.00000 0.70980 0.25000 2.88000
C 	C 	-0.00000 0.65610 0.25000 -0.76600
N 	N 	-0.00000 0.35850 0.25000 -0.10900
C 	C 	0.50000 0.08060 0.12310 -0.24700
H 	H 	0.50000 0.06400 0.03650 0.12100
C 	C 	0.50000 0.13030 0.12380 0.13100
H 	H 	0.50000 0.14680 0.03690 -0.01400
C 	C 	-0.00000 0.58060 0.12310 -0.14000
H 	H 	-0.00000 0.56400 0.03650 0.42300
C 	C 	-0.00000 0.63030 0.12380 0.75300
H 	H 	-0.00000 0.64680 0.03690 0.10700
C 	C 	0.50000 0.08060 0.37690 -0.24700
H 	H 	0.50000 0.06400 0.46350 0.12200
C 	C 	0.50000 0.13030 0.37620 0.13100
H 	H 	0.50000 0.14680 0.46310 -0.01400
C 	C 	-0.00000 0.58060 0.37690 -0.13800
H 	H 	-0.00000 0.56400 0.46350 0.43100
C 	C 	-0.00000 0.63030 0.37620 0.75400
H 	H 	-0.00000 0.64680 0.46310 0.11500
C 	C 	0.57040 0.92730 0.25000 -0.38300
C 	C 	0.57160 0.97730 0.25000 0.19600
C 	C 	0.64700 0.90180 0.25000 0.66400
C 	C 	0.79300 0.85600 0.25000 -1.17200
C 	C 	0.87080 0.83210 0.25000 0.92000
N 	N 	0.64310 0.00410 0.25000 -0.22000
C 	C 	0.07040 0.42730 0.25000 -0.72600
C 	C 	0.07160 0.47730 0.25000 0.02600
C 	C 	0.14700 0.40180 0.25000 0.65500
C 	C 	0.29300 0.35600 0.25000 -0.58600
C 	C 	0.37080 0.33210 0.25000 0.63000
N 	N 	0.14310 0.50410 0.25000 -0.11400
C 	C 	0.42960 0.92730 0.25000 -0.19000
C 	C 	0.42840 0.97730 0.25000 0.16200
C 	C 	0.35300 0.90180 0.25000 0.15400
C 	C 	0.20700 0.85600 0.25000 -0.02200
C 	C 	0.12920 0.83210 0.25000 0.47900
N 	N 	0.35690 0.00410 0.25000 -0.07800
C 	C 	0.92960 0.42730 0.25000 -2.19600
C 	C 	0.92840 0.47730 0.25000 -1.33100
C 	C 	0.85300 0.40180 0.25000 0.80700
C 	C 	0.70700 0.35600 0.25000 -0.68000
C 	C 	0.62920 0.33210 0.25000 0.62800
N 	N 	0.85690 0.50410 0.25000 -0.30900
O 	O 	0.48820 0.76986 0.63400 -0.31200
O 	O 	0.09670 0.17550 0.63180 0.01000
C 	C 	0.29940 0.09100 0.62970 -0.05000
H 	H 	0.31200 0.06930 0.55720 0.10200
C 	C 	0.23000 0.11660 0.62450 0.04300
H 	H 	0.19880 0.11620 0.54270 0.14100
C 	C 	0.25980 0.15250 0.65750 -0.01600
H 	H 	0.25010 0.17630 0.58970 0.11800
C 	C 	0.32900 0.12920 0.65140 -0.09000
H 	H 	0.36180 0.13520 0.57370 0.08200
O 	O 	0.98820 0.26986 0.63400 9.25700
O 	O 	0.59670 0.67550 0.63180 -0.63900
C 	C 	0.79940 0.59100 0.62970 0.35100
H 	H 	0.81200 0.56930 0.55720 -0.28600
C 	C 	0.73000 0.61660 0.62450 -0.35700
H 	H 	0.69880 0.61620 0.54270 0.08900
C 	C 	0.75980 0.65250 0.65750 0.84600
H 	H 	0.75010 0.67630 0.58970 -0.46900
C 	C 	0.82900 0.62920 0.65140 -1.10800
H 	H 	0.86180 0.63520 0.57370 -0.16900
O 	O 	0.51180 0.76986 0.86600 -0.16500
O 	O 	0.90330 0.17550 0.86820 -1.72500
C 	C 	0.70060 0.09100 0.87030 0.35800
H 	H 	0.68800 0.06930 0.94280 -0.17500
C 	C 	0.77000 0.11660 0.87550 -0.45100
H 	H 	0.80120 0.11620 0.95730 -0.02100
C 	C 	0.74020 0.15250 0.84250 1.23900
H 	H 	0.74990 0.17630 0.91030 -0.55000
C 	C 	0.67100 0.12920 0.84860 -1.13000
H 	H 	0.63820 0.13520 0.92630 0.38300
O 	O 	0.01180 0.26986 0.86600 -11.00200
O 	O 	0.40330 0.67550 0.86820 -0.57100
C 	C 	0.20060 0.59100 0.87030 0.19600
H 	H 	0.18800 0.56930 0.94280 -0.02400
C 	C 	0.27000 0.61660 0.87550 -0.28100
H 	H 	0.30120 0.61620 0.95730 0.15200
C 	C 	0.24020 0.65250 0.84250 0.75100
H 	H 	0.24990 0.67630 0.91030 -0.12800
C 	C 	0.17100 0.62920 0.84860 -0.76500
H 	H 	0.13820 0.63520 0.92630 0.40700
O 	O 	0.48820 0.76986 0.86600 -0.31100
O 	O 	0.09670 0.17550 0.86820 0.00500
C 	C 	0.29940 0.09100 0.87030 -0.05000
H 	H 	0.31200 0.06930 0.94280 0.10000
C 	C 	0.23000 0.11660 0.87550 0.04300
H 	H 	0.19880 0.11620 0.95730 0.13700
C 	C 	0.25980 0.15250 0.84250 -0.01500
H 	H 	0.25010 0.17630 0.91030 0.11600
C 	C 	0.32900 0.12920 0.84860 -0.09000
H 	H 	0.36180 0.13520 0.92630 0.08100
O 	O 	0.98820 0.26986 0.86600 9.20200
O 	O 	0.59670 0.67550 0.86820 -0.63800
C 	C 	0.79940 0.59100 0.87030 0.35000
H 	H 	0.81200 0.56930 0.94280 -0.28200
C 	C 	0.73000 0.61660 0.87550 -0.35500
H 	H 	0.69880 0.61620 0.95730 0.09000
C 	C 	0.75980 0.65250 0.84250 0.84400
H 	H 	0.75010 0.67630 0.91030 -0.46700
C 	C 	0.82900 0.62920 0.84860 -1.10800
H 	H 	0.86180 0.63520 0.92630 -0.16300
O 	O 	0.51180 0.76986 0.63400 -0.16400
O 	O 	0.90330 0.17550 0.63180 -1.73100
C 	C 	0.70060 0.09100 0.62970 0.35700
H 	H 	0.68800 0.06930 0.55720 -0.17700
C 	C 	0.77000 0.11660 0.62450 -0.45100
H 	H 	0.80120 0.11620 0.54270 -0.02400
C 	C 	0.74020 0.15250 0.65750 1.23900
H 	H 	0.74990 0.17630 0.58970 -0.55200
C 	C 	0.67100 0.12920 0.65140 -1.13000
H 	H 	0.63820 0.13520 0.57370 0.38300
O 	O 	0.01180 0.26986 0.63400 -11.05900
O 	O 	0.40330 0.67550 0.63180 -0.57000
C 	C 	0.20060 0.59100 0.62970 0.19600
H 	H 	0.18800 0.56930 0.55720 -0.02100
C 	C 	0.27000 0.61660 0.62450 -0.28100
H 	H 	0.30120 0.61620 0.54270 0.15500
C 	C 	0.24020 0.65250 0.65750 0.75100
H 	H 	0.24990 0.67630 0.58970 -0.12600
C 	C 	0.17100 0.62920 0.65140 -0.76600
H 	H 	0.13820 0.63520 0.57370 0.41100
Zn	Zn	-0.00000 0.20193 0.57129 1.69100
N 	N 	-0.00000 0.21150 0.37110 0.02600
Zn	Zn	0.50000 0.70193 0.57129 1.22100
N 	N 	0.50000 0.71150 0.37110 -0.32600
Zn	Zn	-0.00000 0.20193 0.92871 1.68600
N 	N 	-0.00000 0.21150 0.12890 0.02100
Zn	Zn	0.50000 0.70193 0.92871 1.22100
N 	N 	0.50000 0.71150 0.12890 -0.32600
C 	C 	-0.00000 0.19810 0.25000 0.77100
C 	C 	0.50000 0.69810 0.25000 0.16800
C 	C 	0.50000 0.09730 0.75000 0.26000
C 	C 	0.50000 0.99750 0.75000 -0.18400
C 	C 	0.50000 0.94430 0.75000 0.20900
C 	C 	0.50000 0.79020 0.75000 0.39800
C 	C 	0.50000 0.84390 0.75000 -0.21400
N 	N 	0.50000 0.14150 0.75000 -0.16300
C 	C 	0.00000 0.59730 0.75000 2.27700
C 	C 	-0.00000 0.49750 0.75000 1.49000
C 	C 	-0.00000 0.44430 0.75000 0.19500
C 	C 	-0.00000 0.29020 0.75000 2.88000
C 	C 	-0.00000 0.34390 0.75000 -0.76600
N 	N 	-0.00000 0.64150 0.75000 -0.10900
C 	C 	0.50000 0.91940 0.62310 -0.24700
H 	H 	0.50000 0.93600 0.53650 0.12200
C 	C 	0.50000 0.86970 0.62380 0.13100
H 	H 	0.50000 0.85320 0.53690 -0.01400
C 	C 	-0.00000 0.41940 0.62310 -0.13800
H 	H 	-0.00000 0.43600 0.53650 0.43100
C 	C 	-0.00000 0.36970 0.62380 0.75400
H 	H 	-0.00000 0.35320 0.53690 0.11500
C 	C 	0.50000 0.91940 0.87690 -0.24700
H 	H 	0.50000 0.93600 0.96350 0.12100
C 	C 	0.50000 0.86970 0.87620 0.13100
H 	H 	0.50000 0.85320 0.96310 -0.01400
C 	C 	-0.00000 0.41940 0.87690 -0.14000
H 	H 	-0.00000 0.43600 0.96350 0.42300
C 	C 	-0.00000 0.36970 0.87620 0.75300
H 	H 	-0.00000 0.35320 0.96310 0.10700
C 	C 	0.42960 0.07270 0.75000 -0.19000
C 	C 	0.42840 0.02270 0.75000 0.16200
C 	C 	0.35300 0.09820 0.75000 0.15400
C 	C 	0.20700 0.14400 0.75000 -0.02200
C 	C 	0.12920 0.16790 0.75000 0.47900
N 	N 	0.35690 0.99590 0.75000 -0.07800
C 	C 	0.92960 0.57270 0.75000 -2.19600
C 	C 	0.92840 0.52270 0.75000 -1.33100
C 	C 	0.85300 0.59820 0.75000 0.80700
C 	C 	0.70700 0.64400 0.75000 -0.68000
C 	C 	0.62920 0.66790 0.75000 0.62800
N 	N 	0.85690 0.49590 0.75000 -0.30900
C 	C 	0.57040 0.07270 0.75000 -0.38300
C 	C 	0.57160 0.02270 0.75000 0.19600
C 	C 	0.64700 0.09820 0.75000 0.66400
C 	C 	0.79300 0.14400 0.75000 -1.17200
C 	C 	0.87080 0.16790 0.75000 0.92000
N 	N 	0.64310 0.99590 0.75000 -0.22000
C 	C 	0.07040 0.57270 0.75000 -0.72600
C 	C 	0.07160 0.52270 0.75000 0.02600
C 	C 	0.14700 0.59820 0.75000 0.65500
C 	C 	0.29300 0.64400 0.75000 -0.58600
C 	C 	0.37080 0.66790 0.75000 0.63000
N 	N 	0.14310 0.49590 0.75000 -0.11400
