data_crystal

_cell_length_a 22.77100
_cell_length_b 13.15300
_cell_length_c 15.40200
_cell_angle_alpha 90.00000
_cell_angle_beta  130.59700
_cell_angle_gamma 90.00000

_symmetry_space_group_name_	'P 1'
_symmetry_space_group_name_H-M	'P 1'

loop_
_symmetry_equiv_pos_as_xyz
  x,y,z

loop_
_atom_site_label
_atom_site_type_symbol
_atom_site_fract_x
_atom_site_fract_y
_atom_site_fract_z
_atom_site_charge
Ru	Ru	0.64504 0.67051 0.83701 0.94800
O 	O 	0.03140 0.50160 0.15150 -0.23000
O 	O 	0.04230 0.60200 0.27660 -0.22100
O 	O 	0.83670 0.70030 0.41170 -0.23100
O 	O 	0.74750 0.81260 0.36400 -0.23600
N 	N 	0.53580 0.73350 0.74280 -0.21800
N 	N 	0.66050 0.80430 0.78830 -0.21600
N 	N 	0.61550 0.59100 0.69680 -0.21300
N 	N 	0.61240 0.53160 0.85740 -0.21400
N 	N 	0.75860 0.62100 0.93950 -0.21100
N 	N 	0.68640 0.72400 0.99380 -0.21200
C 	C 	0.47570 0.69300 0.73040 0.06900
H 	H 	0.48300 0.62990 0.76630 0.00100
C 	C 	0.40410 0.74060 0.66720 -0.12500
H 	H 	0.36340 0.71240 0.66190 0.09200
C 	C 	0.39450 0.82740 0.61420 0.05600
H 	H 	0.34510 0.85920 0.56720 0.03500
C 	C 	0.45560 0.87350 0.62580 -0.11200
H 	H 	0.44860 0.93630 0.58950 0.08000
C 	C 	0.52620 0.82320 0.69240 0.06300
C 	C 	0.59520 0.86160 0.71410 0.03700
C 	C 	0.59670 0.94910 0.66350 -0.07800
H 	H 	0.55120 0.98860 0.61290 0.05700
C 	C 	0.66360 0.97800 0.68660 -0.01500
H 	H 	0.66400 0.03540 0.64960 0.06200
C 	C 	0.73040 0.92210 0.76470 -0.08500
H 	H 	0.77790 0.94200 0.78460 0.06000
C 	C 	0.72630 0.83650 0.81320 0.05100
H 	H 	0.77230 0.79850 0.86680 0.00700
C 	C 	0.62280 0.62570 0.62180 0.06200
H 	H 	0.63300 0.69570 0.62220 0.00700
C 	C 	0.61560 0.56000 0.54300 -0.10600
H 	H 	0.62110 0.58550 0.49090 0.07500
C 	C 	0.60060 0.45940 0.54260 0.03700
H 	H 	0.59720 0.41380 0.49160 0.03600
C 	C 	0.59050 0.42380 0.61720 -0.10200
H 	H 	0.57860 0.35440 0.61610 0.07200
C 	C 	0.59790 0.49080 0.69250 0.05400
C 	C 	0.58920 0.46140 0.77590 0.05100
C 	C 	0.55610 0.37060 0.76950 -0.09800
H 	H 	0.53980 0.32310 0.71110 0.07000
C 	C 	0.54630 0.34780 0.84780 0.02400
H 	H 	0.52160 0.28700 0.84250 0.03800
C 	C 	0.57510 0.41970 0.93590 -0.10900
H 	H 	0.57300 0.40590 0.99440 0.06700
C 	C 	0.60560 0.50900 0.93610 0.06400
H 	H 	0.62280 0.55740 0.99420 0.00200
C 	C 	0.79490 0.57570 0.90700 0.05500
H 	H 	0.76550 0.56040 0.82820 0.01400
C 	C 	0.87210 0.55060 0.98180 -0.08300
H 	H 	0.89440 0.51630 0.95520 0.08400
C 	C 	0.91750 0.57600 0.09780 -0.01100
C 	C 	0.00390 0.55520 0.18160 0.27600
C 	C 	0.87990 0.61860 0.13220 -0.07200
H 	H 	0.90790 0.63130 0.21110 0.06500
C 	C 	0.80190 0.64310 0.05320 0.04300
C 	C 	0.76070 0.69450 0.08400 0.04400
C 	C 	0.79200 0.71000 0.19580 -0.07800
H 	H 	0.84370 0.68960 0.25730 0.06400
C 	C 	0.74850 0.75490 0.21820 -0.00700
C 	C 	0.78000 0.75830 0.34220 0.27400
C 	C 	0.67500 0.78930 0.12760 -0.08600
H 	H 	0.64490 0.82390 0.14090 0.07800
C 	C 	0.64590 0.77210 0.01660 0.05300
H 	H 	0.59540 0.79540 0.95450 0.01100
Ru	Ru	0.14504 0.17051 0.83701 0.95000
O 	O 	0.53140 0.00160 0.15150 -0.22600
O 	O 	0.54230 0.10200 0.27660 -0.21800
O 	O 	0.33670 0.20030 0.41170 -0.22900
O 	O 	0.24750 0.31260 0.36400 -0.23200
N 	N 	0.03580 0.23350 0.74280 -0.21600
N 	N 	0.16050 0.30430 0.78830 -0.21700
N 	N 	0.11550 0.09100 0.69680 -0.20400
N 	N 	0.11240 0.03160 0.85740 -0.21200
N 	N 	0.25860 0.12100 0.93950 -0.20900
N 	N 	0.18640 0.22400 0.99380 -0.21200
C 	C 	0.97570 0.19300 0.73040 0.07000
H 	H 	0.98300 0.12990 0.76630 0.00200
C 	C 	0.90410 0.24060 0.66720 -0.12300
H 	H 	0.86340 0.21240 0.66190 0.09300
C 	C 	0.89450 0.32740 0.61420 0.05600
H 	H 	0.84510 0.35920 0.56720 0.03700
C 	C 	0.95560 0.37350 0.62580 -0.10900
H 	H 	0.94860 0.43630 0.58950 0.08100
C 	C 	0.02620 0.32320 0.69240 0.06100
C 	C 	0.09520 0.36160 0.71410 0.04500
C 	C 	0.09670 0.44910 0.66350 -0.09400
H 	H 	0.05120 0.48860 0.61290 0.06500
C 	C 	0.16360 0.47800 0.68660 0.01600
H 	H 	0.16400 0.53540 0.64960 0.04500
C 	C 	0.23040 0.42210 0.76470 -0.10100
H 	H 	0.27790 0.44200 0.78460 0.06800
C 	C 	0.22630 0.33650 0.81320 0.06100
H 	H 	0.27230 0.29850 0.86680 0.00500
C 	C 	0.12280 0.12570 0.62180 0.05200
H 	H 	0.13300 0.19570 0.62220 0.01000
C 	C 	0.11560 0.06000 0.54300 -0.07900
H 	H 	0.12110 0.08550 0.49090 0.06800
C 	C 	0.10060 0.95940 0.54260 0.00900
H 	H 	0.09720 0.91380 0.49160 0.04300
C 	C 	0.09050 0.92380 0.61720 -0.08700
H 	H 	0.07860 0.85440 0.61610 0.06600
C 	C 	0.09790 0.99080 0.69250 0.03900
C 	C 	0.08920 0.96140 0.77590 0.04900
C 	C 	0.05610 0.87060 0.76950 -0.10400
H 	H 	0.03980 0.82310 0.71110 0.07200
C 	C 	0.04630 0.84780 0.84780 0.03200
H 	H 	0.02160 0.78700 0.84250 0.03500
C 	C 	0.07510 0.91970 0.93590 -0.12900
H 	H 	0.07300 0.90590 0.99440 0.07200
C 	C 	0.10560 0.00900 0.93610 0.08300
H 	H 	0.12280 0.05740 0.99420 -0.00200
C 	C 	0.29490 0.07570 0.90700 0.05700
H 	H 	0.26550 0.06040 0.82820 0.01600
C 	C 	0.37210 0.05060 0.98180 -0.08300
H 	H 	0.39440 0.01630 0.95520 0.08600
C 	C 	0.41750 0.07600 0.09780 -0.00800
C 	C 	0.50390 0.05520 0.18160 0.27600
C 	C 	0.37990 0.11860 0.13220 -0.07200
H 	H 	0.40790 0.13130 0.21110 0.06600
C 	C 	0.30190 0.14310 0.05320 0.04400
C 	C 	0.26070 0.19450 0.08400 0.04500
C 	C 	0.29200 0.21000 0.19580 -0.07800
H 	H 	0.34370 0.18960 0.25730 0.06500
C 	C 	0.24850 0.25490 0.21820 -0.00500
C 	C 	0.28000 0.25830 0.34220 0.27400
C 	C 	0.17500 0.28930 0.12760 -0.08600
H 	H 	0.14490 0.32390 0.14090 0.08000
C 	C 	0.14590 0.27210 0.01660 0.05500
H 	H 	0.09540 0.29540 0.95450 0.01200
Ru	Ru	0.35496 0.67051 0.16299 0.94900
O 	O 	0.96860 0.50160 0.84850 -0.22900
O 	O 	0.95770 0.60200 0.72340 -0.22000
O 	O 	0.16330 0.70030 0.58830 -0.23000
O 	O 	0.25250 0.81260 0.63600 -0.23500
N 	N 	0.46420 0.73350 0.25720 -0.21700
N 	N 	0.33950 0.80430 0.21170 -0.21500
N 	N 	0.38450 0.59100 0.30320 -0.21200
N 	N 	0.38760 0.53160 0.14260 -0.21300
N 	N 	0.24140 0.62100 0.06050 -0.21000
N 	N 	0.31360 0.72400 0.00620 -0.21200
C 	C 	0.52430 0.69300 0.26960 0.06900
H 	H 	0.51700 0.62990 0.23370 0.00100
C 	C 	0.59590 0.74060 0.33280 -0.12500
H 	H 	0.63660 0.71240 0.33810 0.09200
C 	C 	0.60550 0.82740 0.38580 0.05600
H 	H 	0.65490 0.85920 0.43280 0.03500
C 	C 	0.54440 0.87350 0.37420 -0.11200
H 	H 	0.55140 0.93630 0.41050 0.08000
C 	C 	0.47380 0.82320 0.30760 0.06300
C 	C 	0.40480 0.86160 0.28590 0.03700
C 	C 	0.40330 0.94910 0.33650 -0.07800
H 	H 	0.44880 0.98860 0.38710 0.05700
C 	C 	0.33640 0.97800 0.31340 -0.01500
H 	H 	0.33600 0.03540 0.35040 0.06200
C 	C 	0.26960 0.92210 0.23530 -0.08500
H 	H 	0.22210 0.94200 0.21540 0.06000
C 	C 	0.27370 0.83650 0.18680 0.05100
H 	H 	0.22770 0.79850 0.13320 0.00700
C 	C 	0.37720 0.62570 0.37820 0.06200
H 	H 	0.36700 0.69570 0.37780 0.00700
C 	C 	0.38440 0.56000 0.45700 -0.10600
H 	H 	0.37890 0.58550 0.50910 0.07500
C 	C 	0.39940 0.45940 0.45740 0.03700
H 	H 	0.40280 0.41380 0.50840 0.03600
C 	C 	0.40950 0.42380 0.38280 -0.10200
H 	H 	0.42140 0.35440 0.38390 0.07200
C 	C 	0.40210 0.49080 0.30750 0.05400
C 	C 	0.41080 0.46140 0.22410 0.05100
C 	C 	0.44390 0.37060 0.23050 -0.09800
H 	H 	0.46020 0.32310 0.28890 0.07000
C 	C 	0.45370 0.34780 0.15220 0.02400
H 	H 	0.47840 0.28700 0.15750 0.03800
C 	C 	0.42490 0.41970 0.06410 -0.10900
H 	H 	0.42700 0.40590 0.00560 0.06700
C 	C 	0.39440 0.50900 0.06390 0.06400
H 	H 	0.37720 0.55740 0.00580 0.00200
C 	C 	0.20510 0.57570 0.09300 0.05500
H 	H 	0.23450 0.56040 0.17180 0.01400
C 	C 	0.12790 0.55060 0.01820 -0.08300
H 	H 	0.10560 0.51630 0.04480 0.08400
C 	C 	0.08250 0.57600 0.90220 -0.01100
C 	C 	0.99610 0.55520 0.81840 0.27600
C 	C 	0.12010 0.61860 0.86780 -0.07200
H 	H 	0.09210 0.63130 0.78890 0.06500
C 	C 	0.19810 0.64310 0.94680 0.04300
C 	C 	0.23930 0.69450 0.91600 0.04400
C 	C 	0.20800 0.71000 0.80420 -0.07800
H 	H 	0.15630 0.68960 0.74270 0.06400
C 	C 	0.25150 0.75490 0.78180 -0.00700
C 	C 	0.22000 0.75830 0.65780 0.27400
C 	C 	0.32500 0.78930 0.87240 -0.08600
H 	H 	0.35510 0.82390 0.85910 0.07800
C 	C 	0.35410 0.77210 0.98340 0.05300
H 	H 	0.40460 0.79540 0.04550 0.01100
Ru	Ru	0.85496 0.17051 0.16299 0.95000
O 	O 	0.46860 0.00160 0.84850 -0.22600
O 	O 	0.45770 0.10200 0.72340 -0.21800
O 	O 	0.66330 0.20030 0.58830 -0.22900
O 	O 	0.75250 0.31260 0.63600 -0.23200
N 	N 	0.96420 0.23350 0.25720 -0.21600
N 	N 	0.83950 0.30430 0.21170 -0.21700
N 	N 	0.88450 0.09100 0.30320 -0.20400
N 	N 	0.88760 0.03160 0.14260 -0.21200
N 	N 	0.74140 0.12100 0.06050 -0.20900
N 	N 	0.81360 0.22400 0.00620 -0.21200
C 	C 	0.02430 0.19300 0.26960 0.07000
H 	H 	0.01700 0.12990 0.23370 0.00200
C 	C 	0.09590 0.24060 0.33280 -0.12300
H 	H 	0.13660 0.21240 0.33810 0.09300
C 	C 	0.10550 0.32740 0.38580 0.05600
H 	H 	0.15490 0.35920 0.43280 0.03700
C 	C 	0.04440 0.37350 0.37420 -0.10900
H 	H 	0.05140 0.43630 0.41050 0.08100
C 	C 	0.97380 0.32320 0.30760 0.06100
C 	C 	0.90480 0.36160 0.28590 0.04500
C 	C 	0.90330 0.44910 0.33650 -0.09400
H 	H 	0.94880 0.48860 0.38710 0.06500
C 	C 	0.83640 0.47800 0.31340 0.01600
H 	H 	0.83600 0.53540 0.35040 0.04500
C 	C 	0.76960 0.42210 0.23530 -0.10100
H 	H 	0.72210 0.44200 0.21540 0.06800
C 	C 	0.77370 0.33650 0.18680 0.06100
H 	H 	0.72770 0.29850 0.13320 0.00500
C 	C 	0.87720 0.12570 0.37820 0.05200
H 	H 	0.86700 0.19570 0.37780 0.01000
C 	C 	0.88440 0.06000 0.45700 -0.07900
H 	H 	0.87890 0.08550 0.50910 0.06800
C 	C 	0.89940 0.95940 0.45740 0.00900
H 	H 	0.90280 0.91380 0.50840 0.04300
C 	C 	0.90950 0.92380 0.38280 -0.08700
H 	H 	0.92140 0.85440 0.38390 0.06600
C 	C 	0.90210 0.99080 0.30750 0.03900
C 	C 	0.91080 0.96140 0.22410 0.04900
C 	C 	0.94390 0.87060 0.23050 -0.10400
H 	H 	0.96020 0.82310 0.28890 0.07200
C 	C 	0.95370 0.84780 0.15220 0.03200
H 	H 	0.97840 0.78700 0.15750 0.03500
C 	C 	0.92490 0.91970 0.06410 -0.12900
H 	H 	0.92700 0.90590 0.00560 0.07200
C 	C 	0.89440 0.00900 0.06390 0.08300
H 	H 	0.87720 0.05740 0.00580 -0.00200
C 	C 	0.70510 0.07570 0.09300 0.05700
H 	H 	0.73450 0.06040 0.17180 0.01600
C 	C 	0.62790 0.05060 0.01820 -0.08300
H 	H 	0.60560 0.01630 0.04480 0.08600
C 	C 	0.58250 0.07600 0.90220 -0.00800
C 	C 	0.49610 0.05520 0.81840 0.27600
C 	C 	0.62010 0.11860 0.86780 -0.07200
H 	H 	0.59210 0.13130 0.78890 0.06600
C 	C 	0.69810 0.14310 0.94680 0.04400
C 	C 	0.73930 0.19450 0.91600 0.04500
C 	C 	0.70800 0.21000 0.80420 -0.07800
H 	H 	0.65630 0.18960 0.74270 0.06500
C 	C 	0.75150 0.25490 0.78180 -0.00500
C 	C 	0.72000 0.25830 0.65780 0.27400
C 	C 	0.82500 0.28930 0.87240 -0.08600
H 	H 	0.85510 0.32390 0.85910 0.08000
C 	C 	0.85410 0.27210 0.98340 0.05500
H 	H 	0.90460 0.29540 0.04550 0.01200
