data_crystal

_cell_length_a 33.32700
_cell_length_b 10.31530
_cell_length_c 13.32120
_cell_angle_alpha 90.00000
_cell_angle_beta  112.45300
_cell_angle_gamma 90.00000

_symmetry_space_group_name_	'P 1'
_symmetry_space_group_name_H-M	'P 1'

loop_
_symmetry_equiv_pos_as_xyz
  x,y,z

loop_
_atom_site_label
_atom_site_type_symbol
_atom_site_fract_x
_atom_site_fract_y
_atom_site_fract_z
_atom_site_charge
Ag	Ag	0.11951 0.09716 0.92676 0.21600
Ag	Ag	0.12480 0.04630 0.93820 0.31300
Ag	Ag	0.85592 0.91569 0.77974 0.50300
N 	N 	0.39233 0.43050 0.40120 -0.14200
N 	N 	0.17230 0.14990 0.07920 -0.21900
N 	N 	0.58726 0.55520 0.29820 -0.14800
N 	N 	0.80270 0.87220 0.62920 -0.20900
C 	C 	0.50190 0.53160 0.31720 -0.01100
H 	H 	0.48230 0.59420 0.26330 0.02000
C 	C 	0.45970 0.55750 0.44040 -0.12400
H 	H 	0.48510 0.59500 0.49990 0.04800
H 	H 	0.44360 0.62940 0.39290 0.02400
C 	C 	0.55020 0.49360 0.21020 -0.04400
H 	H 	0.56110 0.42510 0.17490 0.01300
H 	H 	0.53480 0.55920 0.15460 0.03400
C 	C 	0.65860 0.66180 0.33290 0.04900
C 	C 	0.24420 0.23560 0.21990 -0.04900
C 	C 	0.40860 0.33260 0.34830 -0.03900
H 	H 	0.38380 0.28660 0.29360 0.02200
H 	H 	0.42590 0.26840 0.40290 0.03200
C 	C 	0.27930 0.14690 0.26790 -0.00800
H 	H 	0.27650 0.05780 0.24840 0.01700
C 	C 	0.31670 0.19410 0.34190 -0.10600
H 	H 	0.34030 0.13630 0.37400 0.04900
C 	C 	0.43650 0.39080 0.29310 -0.13000
H 	H 	0.41890 0.45160 0.23570 0.03000
H 	H 	0.44700 0.32100 0.25810 0.04700
C 	C 	0.36510 0.37310 0.45450 -0.12600
H 	H 	0.35890 0.43970 0.50010 0.04000
H 	H 	0.38130 0.30180 0.50270 0.05200
C 	C 	0.28730 0.40690 0.32540 -0.10800
H 	H 	0.29060 0.49560 0.34610 0.03100
C 	C 	0.24770 0.36270 0.24790 -0.00900
H 	H 	0.22390 0.42030 0.21590 0.02200
C 	C 	0.54050 0.60810 0.39870 -0.12000
H 	H 	0.52930 0.68040 0.42920 0.04500
H 	H 	0.55750 0.55020 0.45940 0.02200
C 	C 	0.73060 0.63560 0.47060 -0.01500
H 	H 	0.75410 0.58140 0.51270 0.02200
C 	C 	0.69330 0.58240 0.39640 -0.11000
H 	H 	0.69090 0.49090 0.38790 0.02600
C 	C 	0.20320 0.18880 0.13850 0.08200
C 	C 	0.51900 0.43460 0.25640 -0.12500
H 	H 	0.53400 0.36340 0.30660 0.02800
H 	H 	0.49400 0.39650 0.19620 0.04800
C 	C 	0.66210 0.79540 0.34510 -0.09800
H 	H 	0.63900 0.84990 0.30200 0.04700
C 	C 	0.57020 0.66200 0.34660 -0.05700
H 	H 	0.55390 0.72470 0.28920 0.03800
H 	H 	0.59470 0.70840 0.40190 0.02100
C 	C 	0.77160 0.82670 0.56160 0.06300
C 	C 	0.61830 0.60520 0.24980 -0.13400
H 	H 	0.62650 0.53330 0.21210 0.04100
H 	H 	0.60360 0.67240 0.19500 0.05500
C 	C 	0.43060 0.49110 0.48790 -0.04800
H 	H 	0.44730 0.42340 0.53970 0.03600
H 	H 	0.42050 0.55520 0.52830 0.01400
C 	C 	0.73390 0.77170 0.48390 -0.04000
C 	C 	0.32190 0.31990 0.37220 0.05500
C 	C 	0.70080 0.85000 0.42310 -0.01800
H 	H 	0.70330 0.94140 0.43260 0.02300
C 	C 	0.47560 0.46330 0.37450 -0.00600
H 	H 	0.49500 0.39810 0.42590 0.01900
Ag	Ag	0.61951 0.40284 0.42676 0.21400
Ag	Ag	0.62480 0.45370 0.43820 0.31200
Ag	Ag	0.35592 0.58431 0.27974 0.50200
N 	N 	0.89233 0.06950 0.90120 -0.14200
N 	N 	0.67230 0.35010 0.57920 -0.21900
N 	N 	0.08726 0.94480 0.79820 -0.14800
N 	N 	0.30270 0.62780 0.12920 -0.20900
C 	C 	0.00190 0.96840 0.81720 -0.00300
H 	H 	0.98230 0.90580 0.76330 0.01600
C 	C 	0.95970 0.94250 0.94040 -0.12300
H 	H 	0.98510 0.90500 0.99990 0.04600
H 	H 	0.94360 0.87060 0.89290 0.02400
C 	C 	0.05020 0.00640 0.71020 -0.04600
H 	H 	0.06110 0.07490 0.67490 0.01400
H 	H 	0.03480 0.94080 0.65460 0.03600
C 	C 	0.15860 0.83820 0.83290 0.05000
C 	C 	0.74420 0.26440 0.71990 -0.04900
C 	C 	0.90860 0.16740 0.84830 -0.04000
H 	H 	0.88380 0.21340 0.79360 0.02200
H 	H 	0.92590 0.23160 0.90290 0.03200
C 	C 	0.77930 0.35310 0.76790 -0.00900
H 	H 	0.77650 0.44220 0.74840 0.01800
C 	C 	0.81670 0.30590 0.84190 -0.10500
H 	H 	0.84030 0.36370 0.87400 0.04800
C 	C 	0.93650 0.10920 0.79310 -0.12700
H 	H 	0.91890 0.04840 0.73570 0.02900
H 	H 	0.94700 0.17900 0.75810 0.04600
C 	C 	0.86510 0.12690 0.95450 -0.12300
H 	H 	0.85890 0.06030 0.00010 0.03900
H 	H 	0.88130 0.19820 0.00270 0.05100
C 	C 	0.78730 0.09310 0.82540 -0.10700
H 	H 	0.79060 0.00440 0.84610 0.03100
C 	C 	0.74770 0.13730 0.74790 -0.00900
H 	H 	0.72390 0.07970 0.71590 0.02200
C 	C 	0.04050 0.89190 0.89870 -0.12400
H 	H 	0.02930 0.81960 0.92920 0.04700
H 	H 	0.05750 0.94980 0.95940 0.02300
C 	C 	0.23060 0.86440 0.97060 -0.01400
H 	H 	0.25410 0.91860 0.01270 0.02100
C 	C 	0.19330 0.91760 0.89640 -0.11000
H 	H 	0.19090 0.00910 0.88790 0.02600
C 	C 	0.70320 0.31120 0.63850 0.08200
C 	C 	0.01900 0.06540 0.75640 -0.12200
H 	H 	0.03400 0.13660 0.80660 0.02800
H 	H 	0.99400 0.10350 0.69620 0.04500
C 	C 	0.16210 0.70460 0.84510 -0.09900
H 	H 	0.13900 0.65010 0.80200 0.04800
C 	C 	0.07020 0.83800 0.84660 -0.05500
H 	H 	0.05390 0.77530 0.78920 0.03800
H 	H 	0.09470 0.79160 0.90190 0.02100
C 	C 	0.27160 0.67330 0.06160 0.06200
C 	C 	0.11830 0.89480 0.74980 -0.13500
H 	H 	0.12650 0.96670 0.71210 0.04100
H 	H 	0.10360 0.82760 0.69500 0.05500
C 	C 	0.93060 0.00890 0.98790 -0.04600
H 	H 	0.94730 0.07660 0.03970 0.03400
H 	H 	0.92050 0.94480 0.02830 0.01300
C 	C 	0.23390 0.72830 0.98390 -0.04000
C 	C 	0.82190 0.18010 0.87220 0.05300
C 	C 	0.20080 0.65000 0.92310 -0.01800
H 	H 	0.20330 0.55860 0.93260 0.02400
C 	C 	0.97560 0.03670 0.87450 -0.01100
H 	H 	0.99500 0.10190 0.92590 0.01900
Ag	Ag	0.61951 0.59716 0.92676 0.21400
Ag	Ag	0.62480 0.54630 0.93820 0.31200
Ag	Ag	0.35592 0.41569 0.77974 0.50200
N 	N 	0.89233 0.93050 0.40120 -0.14100
N 	N 	0.67230 0.64990 0.07920 -0.21900
N 	N 	0.08726 0.05520 0.29820 -0.14800
N 	N 	0.30270 0.37220 0.62920 -0.20900
C 	C 	0.00190 0.03160 0.31720 -0.00300
H 	H 	0.98230 0.09420 0.26330 0.01600
C 	C 	0.95970 0.05750 0.44040 -0.12100
H 	H 	0.98510 0.09500 0.49990 0.04600
H 	H 	0.94360 0.12940 0.39290 0.02300
C 	C 	0.05020 0.99360 0.21020 -0.04600
H 	H 	0.06110 0.92510 0.17490 0.01400
H 	H 	0.03480 0.05920 0.15460 0.03500
C 	C 	0.15860 0.16180 0.33290 0.04900
C 	C 	0.74420 0.73560 0.21990 -0.04900
C 	C 	0.90860 0.83260 0.34830 -0.04000
H 	H 	0.88380 0.78660 0.29360 0.02200
H 	H 	0.92590 0.76840 0.40290 0.03200
C 	C 	0.77930 0.64690 0.26790 -0.00800
H 	H 	0.77650 0.55780 0.24840 0.01700
C 	C 	0.81670 0.69410 0.34190 -0.10600
H 	H 	0.84030 0.63630 0.37400 0.04800
C 	C 	0.93650 0.89080 0.29310 -0.12700
H 	H 	0.91890 0.95160 0.23570 0.02900
H 	H 	0.94700 0.82100 0.25810 0.04600
C 	C 	0.86510 0.87310 0.45450 -0.12600
H 	H 	0.85890 0.93970 0.50010 0.04000
H 	H 	0.88130 0.80180 0.50270 0.05200
C 	C 	0.78730 0.90690 0.32540 -0.10800
H 	H 	0.79060 0.99560 0.34610 0.03100
C 	C 	0.74770 0.86270 0.24790 -0.00900
H 	H 	0.72390 0.92030 0.21590 0.02200
C 	C 	0.04050 0.10810 0.39870 -0.12400
H 	H 	0.02930 0.18040 0.42920 0.04700
H 	H 	0.05750 0.05020 0.45940 0.02300
C 	C 	0.23060 0.13560 0.47060 -0.01500
H 	H 	0.25410 0.08140 0.51270 0.02200
C 	C 	0.19330 0.08240 0.39640 -0.11000
H 	H 	0.19090 0.99090 0.38790 0.02600
C 	C 	0.70320 0.68880 0.13850 0.08200
C 	C 	0.01900 0.93460 0.25640 -0.12200
H 	H 	0.03400 0.86340 0.30660 0.02800
H 	H 	0.99400 0.89650 0.19620 0.04500
C 	C 	0.16210 0.29540 0.34510 -0.09800
H 	H 	0.13900 0.34990 0.30200 0.04700
C 	C 	0.07020 0.16200 0.34660 -0.05500
H 	H 	0.05390 0.22470 0.28920 0.03800
H 	H 	0.09470 0.20840 0.40190 0.02100
C 	C 	0.27160 0.32670 0.56160 0.06300
C 	C 	0.11830 0.10520 0.24980 -0.13400
H 	H 	0.12650 0.03330 0.21210 0.04100
H 	H 	0.10360 0.17240 0.19500 0.05500
C 	C 	0.93060 0.99110 0.48790 -0.05000
H 	H 	0.94730 0.92340 0.53970 0.03600
H 	H 	0.92050 0.05520 0.52830 0.01400
C 	C 	0.23390 0.27170 0.48390 -0.04000
C 	C 	0.82190 0.81990 0.37220 0.05500
C 	C 	0.20080 0.35000 0.42310 -0.01800
H 	H 	0.20330 0.44140 0.43260 0.02400
C 	C 	0.97560 0.96330 0.37450 -0.01200
H 	H 	0.99500 0.89810 0.42590 0.01900
Ag	Ag	0.11951 0.90284 0.42676 0.21400
Ag	Ag	0.12480 0.95370 0.43820 0.31200
Ag	Ag	0.85592 0.08431 0.27974 0.50200
N 	N 	0.39233 0.56950 0.90120 -0.14200
N 	N 	0.17230 0.85010 0.57920 -0.21900
N 	N 	0.58726 0.44480 0.79820 -0.14800
N 	N 	0.80270 0.12780 0.12920 -0.20900
C 	C 	0.50190 0.46840 0.81720 -0.01100
H 	H 	0.48230 0.40580 0.76330 0.02000
C 	C 	0.45970 0.44250 0.94040 -0.12600
H 	H 	0.48510 0.40500 0.99990 0.04800
H 	H 	0.44360 0.37060 0.89290 0.02500
C 	C 	0.55020 0.50640 0.71020 -0.04400
H 	H 	0.56110 0.57490 0.67490 0.01400
H 	H 	0.53480 0.44080 0.65460 0.03400
C 	C 	0.65860 0.33820 0.83290 0.05000
C 	C 	0.24420 0.76440 0.71990 -0.04900
C 	C 	0.40860 0.66740 0.84830 -0.03900
H 	H 	0.38380 0.71340 0.79360 0.02200
H 	H 	0.42590 0.73160 0.90290 0.03200
C 	C 	0.27930 0.85310 0.76790 -0.00900
H 	H 	0.27650 0.94220 0.74840 0.01800
C 	C 	0.31670 0.80590 0.84190 -0.10600
H 	H 	0.34030 0.86370 0.87400 0.04800
C 	C 	0.43650 0.60920 0.79310 -0.13000
H 	H 	0.41890 0.54840 0.73570 0.03000
H 	H 	0.44700 0.67900 0.75810 0.04700
C 	C 	0.36510 0.62690 0.95450 -0.12300
H 	H 	0.35890 0.56030 0.00010 0.03900
H 	H 	0.38130 0.69820 0.00270 0.05100
C 	C 	0.28730 0.59310 0.82540 -0.10700
H 	H 	0.29060 0.50440 0.84610 0.03100
C 	C 	0.24770 0.63730 0.74790 -0.00900
H 	H 	0.22390 0.57970 0.71590 0.02200
C 	C 	0.54050 0.39190 0.89870 -0.12000
H 	H 	0.52930 0.31960 0.92920 0.04500
H 	H 	0.55750 0.44980 0.95940 0.02200
C 	C 	0.73060 0.36440 0.97060 -0.01400
H 	H 	0.75410 0.41860 0.01270 0.02100
C 	C 	0.69330 0.41760 0.89640 -0.11100
H 	H 	0.69090 0.50910 0.88790 0.02600
C 	C 	0.20320 0.81120 0.63850 0.08200
C 	C 	0.51900 0.56540 0.75640 -0.12500
H 	H 	0.53400 0.63660 0.80660 0.02800
H 	H 	0.49400 0.60350 0.69620 0.04800
C 	C 	0.66210 0.20460 0.84510 -0.09900
H 	H 	0.63900 0.15010 0.80200 0.04700
C 	C 	0.57020 0.33800 0.84660 -0.05700
H 	H 	0.55390 0.27530 0.78920 0.03800
H 	H 	0.59470 0.29160 0.90190 0.02200
C 	C 	0.77160 0.17330 0.06160 0.06200
C 	C 	0.61830 0.39480 0.74980 -0.13500
H 	H 	0.62650 0.46670 0.71210 0.04100
H 	H 	0.60360 0.32760 0.69500 0.05500
C 	C 	0.43060 0.50890 0.98790 -0.04500
H 	H 	0.44730 0.57660 0.03970 0.03400
H 	H 	0.42050 0.44480 0.02830 0.01300
C 	C 	0.73390 0.22830 0.98390 -0.04000
C 	C 	0.32190 0.68010 0.87220 0.05400
C 	C 	0.70080 0.15000 0.92310 -0.01800
H 	H 	0.70330 0.05860 0.93260 0.02400
C 	C 	0.47560 0.53670 0.87450 -0.00500
H 	H 	0.49500 0.60190 0.92590 0.01800
