data_crystal

_cell_length_a 18.80640
_cell_length_b 18.78730
_cell_length_c 22.38980
_cell_angle_alpha 90.00000
_cell_angle_beta  102.72600
_cell_angle_gamma 90.00000

_symmetry_space_group_name_	'P 1'
_symmetry_space_group_name_H-M	'P 1'

loop_
_symmetry_equiv_pos_as_xyz
  x,y,z

loop_
_atom_site_label
_atom_site_type_symbol
_atom_site_fract_x
_atom_site_fract_y
_atom_site_fract_z
_atom_site_charge
Ru	Ru	0.49991 0.44006 0.50191 0.95300
Br	Br	0.73483 0.33366 0.39525 -0.22900
Br	Br	0.21118 0.54861 0.38936 -0.22400
N 	N 	0.54600 0.41340 0.43030 -0.18800
N 	N 	0.41830 0.46950 0.42800 -0.19000
N 	N 	0.54100 0.54260 0.50690 -0.20600
N 	N 	0.45110 0.48080 0.56840 -0.20600
N 	N 	0.58340 0.39910 0.56970 -0.20600
N 	N 	0.46050 0.33860 0.50680 -0.20700
C 	C 	0.53040 0.41350 0.32200 -0.02500
H 	H 	0.50130 0.42360 0.28260 0.03900
C 	C 	0.59940 0.38300 0.32730 -0.10500
H 	H 	0.61740 0.37220 0.29190 0.08600
C 	C 	0.63980 0.36920 0.38390 0.14300
C 	C 	0.61400 0.38560 0.43480 -0.03800
H 	H 	0.64420 0.37740 0.47420 0.06100
C 	C 	0.50430 0.42890 0.37310 0.02600
C 	C 	0.43380 0.46170 0.37240 0.04000
C 	C 	0.38670 0.48420 0.32140 -0.03700
H 	H 	0.40040 0.48150 0.28300 0.04100
C 	C 	0.32010 0.51060 0.32370 -0.08800
H 	H 	0.28670 0.52550 0.28770 0.07900
C 	C 	0.30290 0.51490 0.38060 0.13100
C 	C 	0.35250 0.49380 0.43200 -0.02700
H 	H 	0.34010 0.49640 0.47080 0.05500
C 	C 	0.40590 0.44940 0.59880 0.04800
H 	H 	0.39420 0.40070 0.59070 0.00700
C 	C 	0.37480 0.48500 0.64190 -0.07400
H 	H 	0.34080 0.46180 0.66100 0.05500
C 	C 	0.39530 0.55560 0.65590 -0.04100
H 	H 	0.37620 0.58030 0.68590 0.04200
C 	C 	0.44340 0.59010 0.62660 0.01700
C 	C 	0.47130 0.55020 0.58230 0.02300
C 	C 	0.51770 0.58350 0.55010 0.03000
C 	C 	0.53820 0.65570 0.56100 0.01000
C 	C 	0.51350 0.69250 0.60740 -0.05200
H 	H 	0.52940 0.73990 0.61750 0.04700
C 	C 	0.46640 0.66010 0.63820 -0.05600
H 	H 	0.44910 0.68650 0.66830 0.05100
C 	C 	0.58420 0.68330 0.52610 -0.03100
H 	H 	0.60110 0.73090 0.53290 0.04000
C 	C 	0.60530 0.64390 0.48270 -0.08100
H 	H 	0.63520 0.66400 0.45800 0.05500
C 	C 	0.58300 0.57420 0.47480 0.06200
H 	H 	0.59880 0.54700 0.44430 0.00600
C 	C 	0.64250 0.42980 0.59900 0.05800
H 	H 	0.65160 0.47770 0.58920 0.00400
C 	C 	0.69430 0.39440 0.64540 -0.07700
H 	H 	0.73770 0.41800 0.66510 0.05800
C 	C 	0.68130 0.32580 0.66150 -0.03600
H 	H 	0.71570 0.30170 0.69230 0.04200
C 	C 	0.61670 0.29180 0.63200 0.01700
C 	C 	0.56720 0.33020 0.58530 0.02000
C 	C 	0.59600 0.22210 0.64350 -0.05500
H 	H 	0.62620 0.19590 0.67560 0.05100
C 	C 	0.53650 0.19150 0.61180 -0.04900
H 	H 	0.52650 0.14370 0.62100 0.04700
C 	C 	0.48550 0.22800 0.56310 0.00800
C 	C 	0.50430 0.29920 0.55090 0.03400
C 	C 	0.42230 0.19820 0.52720 -0.03300
H 	H 	0.40930 0.15030 0.53310 0.04400
C 	C 	0.38070 0.23860 0.48420 -0.07400
H 	H 	0.33690 0.21950 0.46020 0.05200
C 	C 	0.40030 0.30860 0.47390 0.05200
H 	H 	0.36980 0.33550 0.44240 0.00800
Ru	Ru	0.95585 0.55827 0.81429 0.93800
Br	Br	0.09392 0.29983 0.92942 -0.20600
Br	Br	0.87506 0.82161 0.91935 -0.22300
N 	N 	0.00140 0.49740 0.88800 -0.15400
N 	N 	0.94580 0.62270 0.88500 -0.20200
N 	N 	0.85340 0.51900 0.80960 -0.21000
N 	N 	0.89590 0.62190 0.74550 -0.20900
N 	N 	0.98000 0.49140 0.74780 -0.24200
N 	N 	0.05740 0.59820 0.80900 -0.19300
C 	C 	0.02950 0.42820 0.88590 -0.04900
H 	H 	0.02880 0.40680 0.84730 0.07500
C 	C 	0.05720 0.39170 0.93720 0.15200
C 	C 	0.05730 0.41830 0.99370 -0.08800
H 	H 	0.07680 0.39180 0.02970 0.06200
C 	C 	0.02760 0.48610 0.99700 0.08600
H 	H 	0.02680 0.50640 0.03570 -0.00800
C 	C 	0.99920 0.52420 0.94310 -0.04900
C 	C 	0.96640 0.59510 0.94240 0.05100
C 	C 	0.95640 0.62910 0.99270 -0.01500
H 	H 	0.96820 0.60640 0.03150 0.00400
C 	C 	0.92810 0.69900 0.98720 -0.04100
H 	H 	0.92240 0.72490 0.02230 0.03600
C 	C 	0.90940 0.72790 0.93060 0.11700
C 	C 	0.91890 0.69040 0.87960 -0.02800
H 	H 	0.90650 0.71210 0.84030 0.05100
C 	C 	0.91900 0.67530 0.71640 0.04900
H 	H 	0.96900 0.68800 0.72730 -0.00600
C 	C 	0.87210 0.71450 0.66930 -0.07700
H 	H 	0.89020 0.75220 0.64870 0.05400
C 	C 	0.79860 0.69560 0.65440 -0.03700
H 	H 	0.76580 0.72000 0.62270 0.04300
C 	C 	0.77340 0.64100 0.68630 0.01400
C 	C 	0.82450 0.60430 0.73150 0.02700
C 	C 	0.80040 0.54940 0.76660 0.03600
C 	C 	0.72740 0.53000 0.75490 0.00700
C 	C 	0.67690 0.56770 0.70670 -0.05000
H 	H 	0.62680 0.55480 0.69800 0.04700
C 	C 	0.69880 0.62020 0.67400 -0.05500
H 	H 	0.66440 0.64340 0.64260 0.05200
C 	C 	0.70800 0.47590 0.78880 -0.03100
H 	H 	0.65890 0.45980 0.78170 0.04300
C 	C 	0.76060 0.44550 0.83320 -0.07700
H 	H 	0.74780 0.40820 0.85750 0.05500
C 	C 	0.83090 0.46760 0.84320 0.05400
H 	H 	0.86570 0.44600 0.87530 0.00600
C 	C 	0.94080 0.43910 0.71780 0.08900
H 	H 	0.89400 0.43030 0.72580 -0.01100
C 	C 	0.96460 0.39530 0.67410 -0.18400
H 	H 	0.93610 0.35590 0.65590 0.08400
C 	C 	0.02720 0.41060 0.65960 0.07600
H 	H 	0.04340 0.38210 0.63020 0.01300
C 	C 	0.07120 0.46910 0.68720 -0.04100
C 	C 	0.04370 0.50860 0.73300 0.08200
C 	C 	0.08660 0.56490 0.76500 0.01300
C 	C 	0.15280 0.58260 0.75150 0.03000
C 	C 	0.17590 0.54560 0.70520 -0.08100
H 	H 	0.22050 0.55890 0.69490 0.05700
C 	C 	0.13690 0.49170 0.67460 -0.01100
H 	H 	0.15480 0.46820 0.64330 0.03700
C 	C 	0.19200 0.63770 0.78720 -0.04500
H 	H 	0.23790 0.65220 0.78030 0.04500
C 	C 	0.16410 0.67010 0.83130 -0.06700
H 	H 	0.19070 0.70660 0.85590 0.05400
C 	C 	0.09500 0.64860 0.84020 0.06200
H 	H 	0.07540 0.67230 0.87050 0.01700
Ru	Ru	0.99991 0.94006 0.50191 0.92700
Br	Br	0.23483 0.83366 0.39525 -0.22800
Br	Br	0.71118 0.04861 0.38936 -0.22800
N 	N 	0.04600 0.91340 0.43030 -0.18800
N 	N 	0.91830 0.96950 0.42800 -0.18600
N 	N 	0.04100 0.04260 0.50690 -0.21000
N 	N 	0.95110 0.98080 0.56840 -0.20000
N 	N 	0.08340 0.89910 0.56970 -0.19000
N 	N 	0.96050 0.83860 0.50680 -0.24500
C 	C 	0.03040 0.91350 0.32200 -0.05300
H 	H 	0.00130 0.92360 0.28260 0.06100
C 	C 	0.09940 0.88300 0.32730 -0.08500
H 	H 	0.11740 0.87220 0.29190 0.08200
C 	C 	0.13980 0.86920 0.38390 0.13500
C 	C 	0.11400 0.88560 0.43480 -0.03100
H 	H 	0.14420 0.87740 0.47420 0.06100
C 	C 	0.00430 0.92890 0.37310 0.07800
C 	C 	0.93380 0.96170 0.37240 -0.01000
C 	C 	0.88670 0.98420 0.32140 -0.01000
H 	H 	0.90040 0.98150 0.28300 0.02400
C 	C 	0.82010 0.01060 0.32370 -0.10500
H 	H 	0.78670 0.02550 0.28770 0.08500
C 	C 	0.80290 0.01490 0.38060 0.14000
C 	C 	0.85250 0.99380 0.43200 -0.03600
H 	H 	0.84010 0.99640 0.47080 0.05700
C 	C 	0.90590 0.94940 0.59880 0.03300
H 	H 	0.89420 0.90070 0.59070 0.00700
C 	C 	0.87480 0.98500 0.64190 -0.05500
H 	H 	0.84080 0.96180 0.66100 0.04700
C 	C 	0.89530 0.05560 0.65590 -0.07800
H 	H 	0.87620 0.08030 0.68590 0.05100
C 	C 	0.94340 0.09010 0.62660 0.07100
C 	C 	0.97130 0.05020 0.58230 -0.04200
C 	C 	0.01770 0.08350 0.55010 0.09800
C 	C 	0.03820 0.15570 0.56100 -0.04400
C 	C 	0.01350 0.19250 0.60740 0.05300
H 	H 	0.02940 0.23990 0.61750 0.02200
C 	C 	0.96640 0.16010 0.63820 -0.16100
H 	H 	0.94910 0.18650 0.66830 0.07600
C 	C 	0.08420 0.18330 0.52610 0.01300
H 	H 	0.10110 0.23090 0.53290 0.03000
C 	C 	0.10530 0.14390 0.48270 -0.10600
H 	H 	0.13520 0.16400 0.45800 0.06700
C 	C 	0.08300 0.07420 0.47480 0.08100
H 	H 	0.09880 0.04700 0.44430 0.00400
C 	C 	0.14250 0.92980 0.59900 0.04800
H 	H 	0.15160 0.97770 0.58920 0.00800
C 	C 	0.19430 0.89440 0.64540 -0.05600
H 	H 	0.23770 0.91800 0.66510 0.05100
C 	C 	0.18130 0.82580 0.66150 -0.06800
H 	H 	0.21570 0.80170 0.69230 0.05400
C 	C 	0.11670 0.79180 0.63200 0.07100
C 	C 	0.06720 0.83020 0.58530 -0.02100
C 	C 	0.09600 0.72210 0.64350 -0.13300
H 	H 	0.12620 0.69590 0.67560 0.07900
C 	C 	0.03650 0.69150 0.61180 0.07000
H 	H 	0.02650 0.64370 0.62100 0.01800
C 	C 	0.98550 0.72800 0.56310 -0.12600
C 	C 	0.00430 0.79920 0.55090 0.13900
C 	C 	0.92230 0.69820 0.52720 0.04700
H 	H 	0.90930 0.65030 0.53310 0.00900
C 	C 	0.88070 0.73860 0.48420 -0.13500
H 	H 	0.83690 0.71950 0.46020 0.07100
C 	C 	0.90030 0.80860 0.47390 0.08000
H 	H 	0.86980 0.83550 0.44240 -0.00400
Ru	Ru	0.45585 0.05827 0.81429 0.95500
Br	Br	0.59392 0.79983 0.92942 -0.21100
Br	Br	0.37506 0.32161 0.91935 -0.21300
N 	N 	0.50140 0.99740 0.88800 -0.19200
N 	N 	0.44580 0.12270 0.88500 -0.19300
N 	N 	0.35340 0.01900 0.80960 -0.20800
N 	N 	0.39590 0.12190 0.74550 -0.20700
N 	N 	0.48000 0.99140 0.74780 -0.21000
N 	N 	0.55740 0.09820 0.80900 -0.20700
C 	C 	0.52950 0.92820 0.88590 -0.04000
H 	H 	0.52880 0.90680 0.84730 0.06400
C 	C 	0.55720 0.89170 0.93720 0.12800
C 	C 	0.55730 0.91830 0.99370 -0.04900
H 	H 	0.57680 0.89180 0.02970 0.04500
C 	C 	0.52760 0.98610 0.99700 0.00200
H 	H 	0.52680 0.00640 0.03570 0.00900
C 	C 	0.49920 0.02420 0.94310 0.03500
C 	C 	0.46640 0.09510 0.94240 0.03100
C 	C 	0.45640 0.12910 0.99270 0.00500
H 	H 	0.46820 0.10640 0.03150 0.00700
C 	C 	0.42810 0.19900 0.98720 -0.04600
H 	H 	0.42240 0.22490 0.02230 0.04500
C 	C 	0.40940 0.22790 0.93060 0.12400
C 	C 	0.41890 0.19040 0.87960 -0.02600
H 	H 	0.40650 0.21210 0.84030 0.05400
C 	C 	0.41900 0.17530 0.71640 0.05100
H 	H 	0.46900 0.18800 0.72730 0.00600
C 	C 	0.37210 0.21450 0.66930 -0.07500
H 	H 	0.39020 0.25220 0.64870 0.05800
C 	C 	0.29860 0.19560 0.65440 -0.03600
H 	H 	0.26580 0.22000 0.62270 0.04400
C 	C 	0.27340 0.14100 0.68630 0.01300
C 	C 	0.32450 0.10430 0.73150 0.02800
C 	C 	0.30040 0.04940 0.76660 0.03400
C 	C 	0.22740 0.03000 0.75490 0.01300
C 	C 	0.17690 0.06770 0.70670 -0.05400
H 	H 	0.12680 0.05480 0.69800 0.05400
C 	C 	0.19880 0.12020 0.67400 -0.05000
H 	H 	0.16440 0.14340 0.64260 0.05100
C 	C 	0.20800 0.97590 0.78880 -0.03800
H 	H 	0.15890 0.95980 0.78170 0.04900
C 	C 	0.26060 0.94550 0.83320 -0.07200
H 	H 	0.24780 0.90820 0.85750 0.05500
C 	C 	0.33090 0.96760 0.84320 0.05100
H 	H 	0.36570 0.94600 0.87530 0.01200
C 	C 	0.44080 0.93910 0.71780 0.05400
H 	H 	0.39400 0.93030 0.72580 0.00400
C 	C 	0.46460 0.89530 0.67410 -0.08000
H 	H 	0.43610 0.85590 0.65590 0.05700
C 	C 	0.52720 0.91060 0.65960 -0.03000
H 	H 	0.54340 0.88210 0.63020 0.03800
C 	C 	0.57120 0.96910 0.68720 0.00800
C 	C 	0.54370 0.00860 0.73300 0.03200
C 	C 	0.58660 0.06490 0.76500 0.02900
C 	C 	0.65280 0.08260 0.75150 0.00900
C 	C 	0.67590 0.04560 0.70520 -0.05100
H 	H 	0.72050 0.05890 0.69490 0.04700
C 	C 	0.63690 0.99170 0.67460 -0.05300
H 	H 	0.65480 0.96820 0.64330 0.04900
C 	C 	0.69200 0.13770 0.78720 -0.03100
H 	H 	0.73790 0.15220 0.78030 0.03900
C 	C 	0.66410 0.17010 0.83130 -0.07900
H 	H 	0.69070 0.20660 0.85590 0.05600
C 	C 	0.59500 0.14860 0.84020 0.06500
H 	H 	0.57540 0.17230 0.87050 0.00600
Ru	Ru	0.49991 0.55994 0.00191 0.93300
Br	Br	0.73483 0.66634 0.89525 -0.22300
Br	Br	0.21118 0.45139 0.88936 -0.21900
N 	N 	0.54600 0.58660 0.93030 -0.18000
N 	N 	0.41830 0.53050 0.92800 -0.18200
N 	N 	0.54100 0.45740 0.00690 -0.22200
N 	N 	0.45110 0.51920 0.06840 -0.21100
N 	N 	0.58340 0.60090 0.06970 -0.21100
N 	N 	0.46050 0.66140 0.00680 -0.22300
C 	C 	0.53040 0.58650 0.82200 -0.02600
H 	H 	0.50130 0.57640 0.78260 0.03800
C 	C 	0.59940 0.61700 0.82730 -0.10500
H 	H 	0.61740 0.62780 0.79190 0.08600
C 	C 	0.63980 0.63080 0.88390 0.14400
C 	C 	0.61400 0.61440 0.93480 -0.03700
H 	H 	0.64420 0.62260 0.97420 0.07200
C 	C 	0.50430 0.57110 0.87310 0.02800
C 	C 	0.43380 0.53830 0.87240 0.04200
C 	C 	0.38670 0.51580 0.82140 -0.03700
H 	H 	0.40040 0.51850 0.78300 0.04100
C 	C 	0.32010 0.48940 0.82370 -0.08800
H 	H 	0.28670 0.47450 0.78770 0.08000
C 	C 	0.30290 0.48510 0.88060 0.13200
C 	C 	0.35250 0.50620 0.93200 -0.02700
H 	H 	0.34010 0.50360 0.97080 0.06600
C 	C 	0.40590 0.55060 0.09880 0.04600
H 	H 	0.39420 0.59930 0.09070 0.00200
C 	C 	0.37480 0.51500 0.14190 -0.07900
H 	H 	0.34080 0.53820 0.16100 0.05500
C 	C 	0.39530 0.44440 0.15590 -0.03700
H 	H 	0.37620 0.41970 0.18590 0.03900
C 	C 	0.44340 0.40990 0.12660 0.00700
C 	C 	0.47130 0.44980 0.08230 0.02700
C 	C 	0.51770 0.41650 0.05010 0.01200
C 	C 	0.53820 0.34430 0.06100 0.03700
C 	C 	0.51350 0.30750 0.10740 -0.07300
H 	H 	0.52940 0.26010 0.11750 0.05200
C 	C 	0.46640 0.33990 0.13820 -0.04500
H 	H 	0.44910 0.31350 0.16830 0.04600
C 	C 	0.58420 0.31670 0.02610 -0.10700
H 	H 	0.60110 0.26910 0.03290 0.05500
C 	C 	0.60530 0.35610 0.98270 -0.01200
H 	H 	0.63520 0.33600 0.95800 0.03900
C 	C 	0.58300 0.42580 0.97480 0.07200
H 	H 	0.59880 0.45300 0.94430 0.00900
C 	C 	0.64250 0.57020 0.09900 0.05600
H 	H 	0.65160 0.52230 0.08920 -0.00100
C 	C 	0.69430 0.60560 0.14540 -0.08200
H 	H 	0.73770 0.58200 0.16510 0.05800
C 	C 	0.68130 0.67420 0.16150 -0.03300
H 	H 	0.71570 0.69830 0.19230 0.03900
C 	C 	0.61670 0.70820 0.13200 0.00800
C 	C 	0.56720 0.66980 0.08530 0.02400
C 	C 	0.59600 0.77790 0.14350 -0.04400
H 	H 	0.62620 0.80410 0.17560 0.04700
C 	C 	0.53650 0.80850 0.11180 -0.06900
H 	H 	0.52650 0.85630 0.12100 0.05200
C 	C 	0.48550 0.77200 0.06310 0.03300
C 	C 	0.50430 0.70080 0.05090 0.01600
C 	C 	0.42230 0.80180 0.02720 -0.11100
H 	H 	0.40930 0.84970 0.03310 0.05900
C 	C 	0.38070 0.76140 0.98420 -0.00300
H 	H 	0.33690 0.78050 0.96020 0.03600
C 	C 	0.40030 0.69140 0.97390 0.06100
H 	H 	0.36980 0.66450 0.94240 0.01000
Ru	Ru	0.95585 0.44173 0.31429 0.93700
Br	Br	0.09392 0.70017 0.42942 -0.22400
Br	Br	0.87506 0.17839 0.41935 -0.23900
N 	N 	0.00140 0.50260 0.38800 -0.15200
N 	N 	0.94580 0.37730 0.38500 -0.20200
N 	N 	0.85340 0.48100 0.30960 -0.21000
N 	N 	0.89590 0.37810 0.24550 -0.21000
N 	N 	0.98000 0.50860 0.24780 -0.24300
N 	N 	0.05740 0.40180 0.30900 -0.19200
C 	C 	0.02950 0.57180 0.38590 -0.05800
H 	H 	0.02880 0.59320 0.34730 0.07800
C 	C 	0.05720 0.60830 0.43720 0.16900
C 	C 	0.05730 0.58170 0.49370 -0.13900
H 	H 	0.07680 0.60820 0.52970 0.10000
C 	C 	0.02760 0.51390 0.49700 0.05100
H 	H 	0.02680 0.49360 0.53570 0.02400
C 	C 	0.99920 0.47580 0.44310 -0.04900
C 	C 	0.96640 0.40490 0.44240 0.05800
C 	C 	0.95640 0.37090 0.49270 -0.05700
H 	H 	0.96820 0.39360 0.53150 0.03900
C 	C 	0.92810 0.30100 0.48720 -0.09000
H 	H 	0.92240 0.27510 0.52230 0.07500
C 	C 	0.90940 0.27210 0.43060 0.13200
C 	C 	0.91890 0.30960 0.37960 -0.03500
H 	H 	0.90650 0.28790 0.34030 0.05300
C 	C 	0.91900 0.32470 0.21640 0.04900
H 	H 	0.96900 0.31200 0.22730 -0.00600
C 	C 	0.87210 0.28550 0.16930 -0.07900
H 	H 	0.89020 0.24780 0.14870 0.05300
C 	C 	0.79860 0.30440 0.15440 -0.03800
H 	H 	0.76580 0.28000 0.12270 0.03800
C 	C 	0.77340 0.35900 0.18630 0.01200
C 	C 	0.82450 0.39570 0.23150 0.02600
C 	C 	0.80040 0.45060 0.26660 0.03600
C 	C 	0.72740 0.47000 0.25490 0.00700
C 	C 	0.67690 0.43230 0.20670 -0.05000
H 	H 	0.62680 0.44520 0.19800 0.04800
C 	C 	0.69880 0.37980 0.17400 -0.05500
H 	H 	0.66440 0.35660 0.14260 0.05000
C 	C 	0.70800 0.52410 0.28880 -0.03200
H 	H 	0.65890 0.54020 0.28170 0.04300
C 	C 	0.76060 0.55450 0.33320 -0.07800
H 	H 	0.74780 0.59180 0.35750 0.05300
C 	C 	0.83090 0.53240 0.34320 0.05300
H 	H 	0.86570 0.55400 0.37530 0.00400
C 	C 	0.94080 0.56090 0.21780 0.08900
H 	H 	0.89400 0.56970 0.22580 -0.01200
C 	C 	0.96460 0.60470 0.17410 -0.18600
H 	H 	0.93610 0.64410 0.15590 0.08300
C 	C 	0.02720 0.58940 0.15960 0.07900
H 	H 	0.04340 0.61790 0.13020 0.00900
C 	C 	0.07120 0.53090 0.18720 -0.04400
C 	C 	0.04370 0.49140 0.23300 0.08300
C 	C 	0.08660 0.43510 0.26500 0.01200
C 	C 	0.15280 0.41740 0.25150 0.03100
C 	C 	0.17590 0.45440 0.20520 -0.08300
H 	H 	0.22050 0.44110 0.19490 0.05600
C 	C 	0.13690 0.50830 0.17460 -0.00900
H 	H 	0.15480 0.53180 0.14330 0.03300
C 	C 	0.19200 0.36230 0.28720 -0.04600
H 	H 	0.23790 0.34780 0.28030 0.04500
C 	C 	0.16410 0.32990 0.33130 -0.06700
H 	H 	0.19070 0.29340 0.35590 0.05200
C 	C 	0.09500 0.35140 0.34020 0.06100
H 	H 	0.07540 0.32770 0.37050 0.01500
Ru	Ru	0.99991 0.05994 0.00191 0.90900
Br	Br	0.23483 0.16634 0.89525 -0.22100
Br	Br	0.71118 0.95139 0.88936 -0.22300
N 	N 	0.04600 0.08660 0.93030 -0.17900
N 	N 	0.91830 0.03050 0.92800 -0.17700
N 	N 	0.04100 0.95740 0.00690 -0.22600
N 	N 	0.95110 0.01920 0.06840 -0.20200
N 	N 	0.08340 0.10090 0.06970 -0.19400
N 	N 	0.96050 0.16140 0.00680 -0.26000
C 	C 	0.03040 0.08650 0.82200 -0.05300
H 	H 	0.00130 0.07640 0.78260 0.06100
C 	C 	0.09940 0.11700 0.82730 -0.08500
H 	H 	0.11740 0.12780 0.79190 0.08200
C 	C 	0.13980 0.13080 0.88390 0.13600
C 	C 	0.11400 0.11440 0.93480 -0.03000
H 	H 	0.14420 0.12260 0.97420 0.07100
C 	C 	0.00430 0.07110 0.87310 0.07900
C 	C 	0.93380 0.03830 0.87240 -0.00900
C 	C 	0.88670 0.01580 0.82140 -0.00700
H 	H 	0.90040 0.01850 0.78300 0.02400
C 	C 	0.82010 0.98940 0.82370 -0.10900
H 	H 	0.78670 0.97450 0.78770 0.08600
C 	C 	0.80290 0.98510 0.88060 0.14000
C 	C 	0.85250 0.00620 0.93200 -0.03300
H 	H 	0.84010 0.00360 0.97080 0.06700
C 	C 	0.90590 0.05060 0.09880 0.02900
H 	H 	0.89420 0.09930 0.09070 0.00400
C 	C 	0.87480 0.01500 0.14190 -0.05400
H 	H 	0.84080 0.03820 0.16100 0.04500
C 	C 	0.89530 0.94440 0.15590 -0.08100
H 	H 	0.87620 0.91970 0.18590 0.05000
C 	C 	0.94340 0.90990 0.12660 0.06500
C 	C 	0.97130 0.94980 0.08230 -0.04200
C 	C 	0.01770 0.91650 0.05010 0.08200
C 	C 	0.03820 0.84430 0.06100 -0.02000
C 	C 	0.01350 0.80750 0.10740 0.03600
H 	H 	0.02940 0.76010 0.11750 0.02600
C 	C 	0.96640 0.83990 0.13820 -0.15300
H 	H 	0.94910 0.81350 0.16830 0.07200
C 	C 	0.08420 0.81670 0.02610 -0.06100
H 	H 	0.10110 0.76910 0.03290 0.04400
C 	C 	0.10530 0.85610 0.98270 -0.04000
H 	H 	0.13520 0.83600 0.95800 0.05100
C 	C 	0.08300 0.92580 0.97480 0.09000
H 	H 	0.09880 0.95300 0.94430 0.00600
C 	C 	0.14250 0.07020 0.09900 0.04700
H 	H 	0.15160 0.02230 0.08920 0.00400
C 	C 	0.19430 0.10560 0.14540 -0.06100
H 	H 	0.23770 0.08200 0.16510 0.05100
C 	C 	0.18130 0.17420 0.16150 -0.06400
H 	H 	0.21570 0.19830 0.19230 0.05200
C 	C 	0.11670 0.20820 0.13200 0.06100
C 	C 	0.06720 0.16980 0.08530 -0.01700
C 	C 	0.09600 0.27790 0.14350 -0.12100
H 	H 	0.12620 0.30410 0.17560 0.07500
C 	C 	0.03650 0.30850 0.11180 0.05000
H 	H 	0.02650 0.35630 0.12100 0.02300
C 	C 	0.98550 0.27200 0.06310 -0.10100
C 	C 	0.00430 0.20080 0.05090 0.12200
C 	C 	0.92230 0.30180 0.02720 -0.03100
H 	H 	0.90930 0.34970 0.03310 0.02500
C 	C 	0.88070 0.26140 0.98420 -0.06400
H 	H 	0.83690 0.28050 0.96020 0.05400
C 	C 	0.90030 0.19140 0.97390 0.08800
H 	H 	0.86980 0.16450 0.94240 -0.00100
Ru	Ru	0.45585 0.94173 0.31429 0.95300
Br	Br	0.59392 0.20017 0.42942 -0.23000
Br	Br	0.37506 0.67839 0.41935 -0.23000
N 	N 	0.50140 0.00260 0.38800 -0.18900
N 	N 	0.44580 0.87730 0.38500 -0.19400
N 	N 	0.35340 0.98100 0.30960 -0.21000
N 	N 	0.39590 0.87810 0.24550 -0.20800
N 	N 	0.48000 0.00860 0.24780 -0.20800
N 	N 	0.55740 0.90180 0.30900 -0.20800
C 	C 	0.52950 0.07180 0.38590 -0.05000
H 	H 	0.52880 0.09320 0.34730 0.06700
C 	C 	0.55720 0.10830 0.43720 0.14600
C 	C 	0.55730 0.08170 0.49370 -0.10600
H 	H 	0.57680 0.10820 0.52970 0.08600
C 	C 	0.52760 0.01390 0.49700 -0.02500
H 	H 	0.52680 0.99360 0.53570 0.03700
C 	C 	0.49920 0.97580 0.44310 0.03000
C 	C 	0.46640 0.90490 0.44240 0.03900
C 	C 	0.45640 0.87090 0.49270 -0.03800
H 	H 	0.46820 0.89360 0.53150 0.04200
C 	C 	0.42810 0.80100 0.48720 -0.09500
H 	H 	0.42240 0.77510 0.52230 0.08300
C 	C 	0.40940 0.77210 0.43060 0.13900
C 	C 	0.41890 0.80960 0.37960 -0.03300
H 	H 	0.40650 0.78790 0.34030 0.05600
C 	C 	0.41900 0.82470 0.21640 0.05000
H 	H 	0.46900 0.81200 0.22730 0.00600
C 	C 	0.37210 0.78550 0.16930 -0.07600
H 	H 	0.39020 0.74780 0.14870 0.05600
C 	C 	0.29860 0.80440 0.15440 -0.03700
H 	H 	0.26580 0.78000 0.12270 0.03900
C 	C 	0.27340 0.85900 0.18630 0.01200
C 	C 	0.32450 0.89570 0.23150 0.02700
C 	C 	0.30040 0.95060 0.26660 0.03500
C 	C 	0.22740 0.97000 0.25490 0.00800
C 	C 	0.17690 0.93230 0.20670 -0.05300
H 	H 	0.12680 0.94520 0.19800 0.05300
C 	C 	0.19880 0.87980 0.17400 -0.05200
H 	H 	0.16440 0.85660 0.14260 0.05000
C 	C 	0.20800 0.02410 0.28880 -0.03200
H 	H 	0.15890 0.04020 0.28170 0.04700
C 	C 	0.26060 0.05450 0.33320 -0.07600
H 	H 	0.24780 0.09180 0.35750 0.05500
C 	C 	0.33090 0.03240 0.34320 0.05400
H 	H 	0.36570 0.05400 0.37530 0.00900
C 	C 	0.44080 0.06090 0.21780 0.05300
H 	H 	0.39400 0.06970 0.22580 0.00400
C 	C 	0.46460 0.10470 0.17410 -0.08100
H 	H 	0.43610 0.14410 0.15590 0.05500
C 	C 	0.52720 0.08940 0.15960 -0.02900
H 	H 	0.54340 0.11790 0.13020 0.03500
C 	C 	0.57120 0.03090 0.18720 0.00700
C 	C 	0.54370 0.99140 0.23300 0.02900
C 	C 	0.58660 0.93510 0.26500 0.02900
C 	C 	0.65280 0.91740 0.25150 0.01100
C 	C 	0.67590 0.95440 0.20520 -0.05700
H 	H 	0.72050 0.94110 0.19490 0.04600
C 	C 	0.63690 0.00830 0.17460 -0.04800
H 	H 	0.65480 0.03180 0.14330 0.04400
C 	C 	0.69200 0.86230 0.28720 -0.03300
H 	H 	0.73790 0.84780 0.28030 0.03900
C 	C 	0.66410 0.82990 0.33130 -0.07900
H 	H 	0.69070 0.79340 0.35590 0.05300
C 	C 	0.59500 0.85140 0.34020 0.06400
H 	H 	0.57540 0.82770 0.37050 0.00400
