data_crystal

_cell_length_a 15.24650
_cell_length_b 18.30600
_cell_length_c 28.54860
_cell_angle_alpha 90.00000
_cell_angle_beta  90.00000
_cell_angle_gamma 90.00000

_symmetry_space_group_name_	'P 1'
_symmetry_space_group_name_H-M	'P 1'

loop_
_symmetry_equiv_pos_as_xyz
  x,y,z

loop_
_atom_site_label
_atom_site_type_symbol
_atom_site_fract_x
_atom_site_fract_y
_atom_site_fract_z
_atom_site_charge
Ag	Ag	0.07309 0.58327 0.62560 0.48800
Ag	Ag	0.58409 0.82392 0.62771 0.47700
N 	N 	0.64350 0.76441 0.68974 -0.13700
N 	N 	0.03420 0.65010 0.56140 -0.14000
N 	N 	0.17930 0.62850 0.67518 -0.20100
N 	N 	0.52580 0.69740 0.58755 -0.17200
C 	C 	0.23760 0.59640 0.55937 -0.09900
H 	H 	0.21040 0.55050 0.56480 0.02000
C 	C 	0.79510 0.79400 0.66266 -0.11900
H 	H 	0.85130 0.81560 0.67310 0.04900
H 	H 	0.77380 0.82310 0.63570 0.02800
C 	C 	0.09670 0.63950 0.52226 -0.11600
H 	H 	0.08190 0.67380 0.49670 0.04000
H 	H 	0.09040 0.58920 0.51000 0.02900
C 	C 	0.58400 0.76900 0.73102 -0.13400
H 	H 	0.57950 0.82050 0.74130 0.04400
H 	H 	0.60940 0.74040 0.75720 0.06300
C 	C 	0.35320 0.75270 0.68259 -0.02200
H 	H 	0.31360 0.78080 0.66430 0.02100
C 	C 	0.38900 0.64160 0.72461 -0.02100
H 	H 	0.37300 0.59440 0.73550 0.01700
C 	C 	0.43370 0.78120 0.69520 -0.10300
H 	H 	0.44810 0.82980 0.68650 0.01000
C 	C 	0.94630 0.62700 0.54494 -0.04300
H 	H 	0.94890 0.57530 0.53480 0.00400
H 	H 	0.92940 0.65690 0.51750 0.03100
C 	C 	0.72880 0.79940 0.70231 -0.05400
H 	H 	0.75300 0.77540 0.73060 0.04600
H 	H 	0.71870 0.85150 0.70990 0.01500
C 	C 	0.49350 0.74040 0.72016 0.05000
C 	C 	0.32330 0.60760 0.57382 -0.02300
H 	H 	0.35440 0.56970 0.58940 0.02700
C 	C 	0.33070 0.68240 0.69702 -0.04000
C 	C 	0.46990 0.67090 0.73579 -0.09600
H 	H 	0.50980 0.64340 0.75430 0.03900
C 	C 	0.96530 0.73840 0.61596 -0.12300
H 	H 	0.96300 0.79070 0.62460 0.05100
H 	H 	0.98650 0.71080 0.64350 0.03300
C 	C 	0.87210 0.71200 0.60319 -0.01000
H 	H 	0.84780 0.74540 0.57870 0.02500
C 	C 	0.19120 0.65170 0.53701 0.03800
C 	C 	0.81170 0.71500 0.64634 -0.01000
H 	H 	0.84050 0.68770 0.67250 0.02400
C 	C 	0.72190 0.67970 0.63654 -0.12400
H 	H 	0.69510 0.70330 0.60880 0.04200
H 	H 	0.73040 0.62730 0.62920 0.04900
C 	C 	0.66040 0.68680 0.67770 -0.04800
H 	H 	0.60420 0.66250 0.67020 0.03700
H 	H 	0.68630 0.66180 0.70520 0.04100
C 	C 	0.36370 0.67470 0.56541 -0.03500
C 	C 	0.24700 0.65180 0.68475 0.06600
C 	C 	0.23260 0.71810 0.52866 -0.09500
H 	H 	0.20140 0.75580 0.51300 0.04700
C 	C 	0.02950 0.72820 0.57566 -0.05200
H 	H 	0.01050 0.75820 0.54860 0.04200
H 	H 	0.08840 0.74520 0.58540 0.03200
C 	C 	0.31810 0.73040 0.54273 -0.02300
H 	H 	0.34540 0.77620 0.53700 0.01800
C 	C 	0.87760 0.63520 0.58257 -0.12200
H 	H 	0.89050 0.60020 0.60810 0.02000
H 	H 	0.81970 0.62210 0.56930 0.04600
C 	C 	0.45380 0.68680 0.57848 0.05400
Ag	Ag	0.42691 0.41673 0.12560 0.48800
Ag	Ag	0.91591 0.17608 0.12771 0.47700
N 	N 	0.85650 0.23559 0.18974 -0.13700
N 	N 	0.46580 0.34990 0.06140 -0.14000
N 	N 	0.32070 0.37150 0.17518 -0.20100
N 	N 	0.97420 0.30260 0.08755 -0.17200
C 	C 	0.26240 0.40360 0.05937 -0.09900
H 	H 	0.28960 0.44950 0.06480 0.02000
C 	C 	0.70490 0.20600 0.16266 -0.11900
H 	H 	0.64870 0.18440 0.17310 0.04900
H 	H 	0.72620 0.17690 0.13570 0.02800
C 	C 	0.40330 0.36050 0.02226 -0.11700
H 	H 	0.41810 0.32620 0.99670 0.04000
H 	H 	0.40960 0.41080 0.01000 0.02900
C 	C 	0.91600 0.23100 0.23102 -0.13500
H 	H 	0.92050 0.17950 0.24130 0.04400
H 	H 	0.89060 0.25960 0.25720 0.06400
C 	C 	0.14680 0.24730 0.18259 -0.02200
H 	H 	0.18640 0.21920 0.16430 0.02100
C 	C 	0.11100 0.35840 0.22461 -0.02100
H 	H 	0.12700 0.40560 0.23550 0.01700
C 	C 	0.06630 0.21880 0.19520 -0.10400
H 	H 	0.05190 0.17020 0.18650 0.01000
C 	C 	0.55370 0.37300 0.04494 -0.04400
H 	H 	0.55110 0.42470 0.03480 0.00400
H 	H 	0.57060 0.34310 0.01750 0.03100
C 	C 	0.77120 0.20060 0.20231 -0.05500
H 	H 	0.74700 0.22460 0.23060 0.04600
H 	H 	0.78130 0.14850 0.20990 0.01500
C 	C 	0.00650 0.25960 0.22016 0.05100
C 	C 	0.17670 0.39240 0.07382 -0.02300
H 	H 	0.14560 0.43030 0.08940 0.02700
C 	C 	0.16930 0.31760 0.19702 -0.04000
C 	C 	0.03010 0.32910 0.23579 -0.09600
H 	H 	0.99020 0.35660 0.25430 0.03800
C 	C 	0.53470 0.26160 0.11596 -0.12300
H 	H 	0.53700 0.20930 0.12460 0.05100
H 	H 	0.51350 0.28920 0.14350 0.03300
C 	C 	0.62790 0.28800 0.10319 -0.01000
H 	H 	0.65220 0.25460 0.07870 0.02500
C 	C 	0.30880 0.34830 0.03701 0.03800
C 	C 	0.68830 0.28500 0.14634 -0.01000
H 	H 	0.65950 0.31230 0.17250 0.02400
C 	C 	0.77810 0.32030 0.13654 -0.12300
H 	H 	0.80490 0.29670 0.10880 0.04200
H 	H 	0.76960 0.37270 0.12920 0.04900
C 	C 	0.83960 0.31320 0.17770 -0.04800
H 	H 	0.89580 0.33750 0.17020 0.03700
H 	H 	0.81370 0.33820 0.20520 0.04100
C 	C 	0.13630 0.32530 0.06541 -0.03500
C 	C 	0.25300 0.34820 0.18475 0.06600
C 	C 	0.26740 0.28190 0.02866 -0.09500
H 	H 	0.29860 0.24420 0.01300 0.04700
C 	C 	0.47050 0.27180 0.07566 -0.05100
H 	H 	0.48950 0.24180 0.04860 0.04200
H 	H 	0.41160 0.25480 0.08540 0.03200
C 	C 	0.18190 0.26960 0.04273 -0.02300
H 	H 	0.15460 0.22380 0.03700 0.01800
C 	C 	0.62240 0.36480 0.08257 -0.12300
H 	H 	0.60950 0.39980 0.10810 0.02000
H 	H 	0.68030 0.37790 0.06930 0.04600
C 	C 	0.04620 0.31320 0.07848 0.05400
Ag	Ag	0.92691 0.08327 0.87440 0.48800
Ag	Ag	0.41591 0.32392 0.87229 0.47700
N 	N 	0.35650 0.26441 0.81026 -0.13700
N 	N 	0.96580 0.15010 0.93860 -0.14100
N 	N 	0.82070 0.12850 0.82482 -0.20100
N 	N 	0.47420 0.19740 0.91245 -0.17200
C 	C 	0.76240 0.09640 0.94063 -0.09900
H 	H 	0.78960 0.05050 0.93520 0.02000
C 	C 	0.20490 0.29400 0.83734 -0.11900
H 	H 	0.14870 0.31560 0.82690 0.04900
H 	H 	0.22620 0.32310 0.86430 0.02800
C 	C 	0.90330 0.13950 0.97774 -0.11600
H 	H 	0.91810 0.17380 0.00330 0.04000
H 	H 	0.90960 0.08920 0.99000 0.02900
C 	C 	0.41600 0.26900 0.76898 -0.13400
H 	H 	0.42050 0.32050 0.75870 0.04400
H 	H 	0.39060 0.24040 0.74280 0.06300
C 	C 	0.64680 0.25270 0.81741 -0.02200
H 	H 	0.68640 0.28080 0.83570 0.02100
C 	C 	0.61100 0.14160 0.77539 -0.02100
H 	H 	0.62700 0.09440 0.76450 0.01700
C 	C 	0.56630 0.28120 0.80480 -0.10300
H 	H 	0.55190 0.32980 0.81350 0.01000
C 	C 	0.05370 0.12700 0.95506 -0.04300
H 	H 	0.05110 0.07530 0.96520 0.00400
H 	H 	0.07060 0.15690 0.98250 0.03100
C 	C 	0.27120 0.29940 0.79769 -0.05500
H 	H 	0.24700 0.27540 0.76940 0.04600
H 	H 	0.28130 0.35150 0.79010 0.01500
C 	C 	0.50650 0.24040 0.77984 0.05000
C 	C 	0.67670 0.10760 0.92618 -0.02300
H 	H 	0.64560 0.06970 0.91060 0.02700
C 	C 	0.66930 0.18240 0.80298 -0.04000
C 	C 	0.53010 0.17090 0.76421 -0.09600
H 	H 	0.49020 0.14340 0.74570 0.03900
C 	C 	0.03470 0.23840 0.88404 -0.12300
H 	H 	0.03700 0.29070 0.87540 0.05100
H 	H 	0.01350 0.21080 0.85650 0.03300
C 	C 	0.12790 0.21200 0.89681 -0.01000
H 	H 	0.15220 0.24540 0.92130 0.02500
C 	C 	0.80880 0.15170 0.96299 0.03800
C 	C 	0.18830 0.21500 0.85366 -0.01000
H 	H 	0.15950 0.18770 0.82750 0.02400
C 	C 	0.27810 0.17970 0.86346 -0.12300
H 	H 	0.30490 0.20330 0.89120 0.04200
H 	H 	0.26960 0.12730 0.87080 0.04900
C 	C 	0.33960 0.18680 0.82230 -0.04800
H 	H 	0.39580 0.16250 0.82980 0.03700
H 	H 	0.31370 0.16180 0.79480 0.04100
C 	C 	0.63630 0.17470 0.93459 -0.03500
C 	C 	0.75300 0.15180 0.81525 0.06600
C 	C 	0.76740 0.21810 0.97134 -0.09500
H 	H 	0.79860 0.25580 0.98700 0.04700
C 	C 	0.97050 0.22820 0.92434 -0.05200
H 	H 	0.98950 0.25820 0.95140 0.04200
H 	H 	0.91160 0.24520 0.91460 0.03200
C 	C 	0.68190 0.23040 0.95727 -0.02300
H 	H 	0.65460 0.27620 0.96300 0.01800
C 	C 	0.12240 0.13520 0.91743 -0.12300
H 	H 	0.10950 0.10020 0.89190 0.02000
H 	H 	0.18030 0.12210 0.93070 0.04700
C 	C 	0.54620 0.18680 0.92152 0.05400
Ag	Ag	0.57309 0.91673 0.37440 0.48800
Ag	Ag	0.08409 0.67608 0.37229 0.47700
N 	N 	0.14350 0.73559 0.31026 -0.13700
N 	N 	0.53420 0.84990 0.43860 -0.14000
N 	N 	0.67930 0.87150 0.32482 -0.20100
N 	N 	0.02580 0.80260 0.41245 -0.17200
C 	C 	0.73760 0.90360 0.44063 -0.09900
H 	H 	0.71040 0.94950 0.43520 0.02000
C 	C 	0.29510 0.70600 0.33734 -0.11900
H 	H 	0.35130 0.68440 0.32690 0.04900
H 	H 	0.27380 0.67690 0.36430 0.02800
C 	C 	0.59670 0.86050 0.47774 -0.11700
H 	H 	0.58190 0.82620 0.50330 0.04000
H 	H 	0.59040 0.91080 0.49000 0.02900
C 	C 	0.08400 0.73100 0.26898 -0.13400
H 	H 	0.07950 0.67950 0.25870 0.04400
H 	H 	0.10940 0.75960 0.24280 0.06300
C 	C 	0.85320 0.74730 0.31741 -0.02300
H 	H 	0.81360 0.71920 0.33570 0.02100
C 	C 	0.88900 0.85840 0.27539 -0.02100
H 	H 	0.87300 0.90560 0.26450 0.01700
C 	C 	0.93370 0.71880 0.30480 -0.10300
H 	H 	0.94810 0.67020 0.31350 0.01000
C 	C 	0.44630 0.87300 0.45506 -0.04400
H 	H 	0.44890 0.92470 0.46520 0.00400
H 	H 	0.42940 0.84310 0.48250 0.03100
C 	C 	0.22880 0.70060 0.29769 -0.05500
H 	H 	0.25300 0.72460 0.26940 0.04600
H 	H 	0.21870 0.64850 0.29010 0.01500
C 	C 	0.99350 0.75960 0.27984 0.05000
C 	C 	0.82330 0.89240 0.42618 -0.02300
H 	H 	0.85440 0.93030 0.41060 0.02700
C 	C 	0.83070 0.81760 0.30298 -0.03900
C 	C 	0.96990 0.82910 0.26421 -0.09400
H 	H 	0.00980 0.85660 0.24570 0.03800
C 	C 	0.46530 0.76160 0.38404 -0.12300
H 	H 	0.46300 0.70930 0.37540 0.05100
H 	H 	0.48650 0.78920 0.35650 0.03300
C 	C 	0.37210 0.78800 0.39681 -0.01000
H 	H 	0.34780 0.75460 0.42130 0.02500
C 	C 	0.69120 0.84830 0.46299 0.03800
C 	C 	0.31170 0.78500 0.35366 -0.01000
H 	H 	0.34050 0.81230 0.32750 0.02400
C 	C 	0.22190 0.82030 0.36346 -0.12400
H 	H 	0.19510 0.79670 0.39120 0.04200
H 	H 	0.23040 0.87270 0.37080 0.04900
C 	C 	0.16040 0.81320 0.32230 -0.04800
H 	H 	0.10420 0.83750 0.32980 0.03700
H 	H 	0.18630 0.83820 0.29480 0.04100
C 	C 	0.86370 0.82530 0.43459 -0.03500
C 	C 	0.74700 0.84820 0.31525 0.06600
C 	C 	0.73260 0.78190 0.47134 -0.09500
H 	H 	0.70140 0.74420 0.48700 0.04700
C 	C 	0.52950 0.77180 0.42434 -0.05100
H 	H 	0.51050 0.74180 0.45140 0.04200
H 	H 	0.58840 0.75480 0.41460 0.03200
C 	C 	0.81810 0.76960 0.45727 -0.02300
H 	H 	0.84540 0.72380 0.46300 0.01800
C 	C 	0.37760 0.86480 0.41743 -0.12200
H 	H 	0.39050 0.89980 0.39190 0.02000
H 	H 	0.31970 0.87790 0.43070 0.04600
C 	C 	0.95380 0.81320 0.42152 0.05500
Ag	Ag	0.92691 0.41673 0.37440 0.48800
Ag	Ag	0.41591 0.17608 0.37229 0.47700
N 	N 	0.35650 0.23559 0.31026 -0.13700
N 	N 	0.96580 0.34990 0.43860 -0.14000
N 	N 	0.82070 0.37150 0.32482 -0.20100
N 	N 	0.47420 0.30260 0.41245 -0.17200
C 	C 	0.76240 0.40360 0.44063 -0.09900
H 	H 	0.78960 0.44950 0.43520 0.02000
C 	C 	0.20490 0.20600 0.33734 -0.11900
H 	H 	0.14870 0.18440 0.32690 0.04900
H 	H 	0.22620 0.17690 0.36430 0.02800
C 	C 	0.90330 0.36050 0.47774 -0.11600
H 	H 	0.91810 0.32620 0.50330 0.04000
H 	H 	0.90960 0.41080 0.49000 0.02900
C 	C 	0.41600 0.23100 0.26898 -0.13400
H 	H 	0.42050 0.17950 0.25870 0.04400
H 	H 	0.39060 0.25960 0.24280 0.06300
C 	C 	0.64680 0.24730 0.31741 -0.02200
H 	H 	0.68640 0.21920 0.33570 0.02100
C 	C 	0.61100 0.35840 0.27539 -0.02100
H 	H 	0.62700 0.40560 0.26450 0.01700
C 	C 	0.56630 0.21880 0.30480 -0.10300
H 	H 	0.55190 0.17020 0.31350 0.01000
C 	C 	0.05370 0.37300 0.45506 -0.04300
H 	H 	0.05110 0.42470 0.46520 0.00400
H 	H 	0.07060 0.34310 0.48250 0.03100
C 	C 	0.27120 0.20060 0.29769 -0.05400
H 	H 	0.24700 0.22460 0.26940 0.04600
H 	H 	0.28130 0.14850 0.29010 0.01500
C 	C 	0.50650 0.25960 0.27984 0.05000
C 	C 	0.67670 0.39240 0.42618 -0.02300
H 	H 	0.64560 0.43030 0.41060 0.02700
C 	C 	0.66930 0.31760 0.30298 -0.04000
C 	C 	0.53010 0.32910 0.26421 -0.09600
H 	H 	0.49020 0.35660 0.24570 0.03900
C 	C 	0.03470 0.26160 0.38404 -0.12300
H 	H 	0.03700 0.20930 0.37540 0.05100
H 	H 	0.01350 0.28920 0.35650 0.03300
C 	C 	0.12790 0.28800 0.39681 -0.01000
H 	H 	0.15220 0.25460 0.42130 0.02500
C 	C 	0.80880 0.34830 0.46299 0.03800
C 	C 	0.18830 0.28500 0.35366 -0.01000
H 	H 	0.15950 0.31230 0.32750 0.02400
C 	C 	0.27810 0.32030 0.36346 -0.12400
H 	H 	0.30490 0.29670 0.39120 0.04200
H 	H 	0.26960 0.37270 0.37080 0.04900
C 	C 	0.33960 0.31320 0.32230 -0.04800
H 	H 	0.39580 0.33750 0.32980 0.03700
H 	H 	0.31370 0.33820 0.29480 0.04100
C 	C 	0.63630 0.32530 0.43459 -0.03500
C 	C 	0.75300 0.34820 0.31525 0.06600
C 	C 	0.76740 0.28190 0.47134 -0.09500
H 	H 	0.79860 0.24420 0.48700 0.04700
C 	C 	0.97050 0.27180 0.42434 -0.05200
H 	H 	0.98950 0.24180 0.45140 0.04200
H 	H 	0.91160 0.25480 0.41460 0.03200
C 	C 	0.68190 0.26960 0.45727 -0.02300
H 	H 	0.65460 0.22380 0.46300 0.01800
C 	C 	0.12240 0.36480 0.41743 -0.12200
H 	H 	0.10950 0.39980 0.39190 0.02000
H 	H 	0.18030 0.37790 0.43070 0.04600
C 	C 	0.54620 0.31320 0.42152 0.05400
Ag	Ag	0.57309 0.58327 0.87440 0.48800
Ag	Ag	0.08409 0.82392 0.87229 0.47700
N 	N 	0.14350 0.76441 0.81026 -0.13700
N 	N 	0.53420 0.65010 0.93860 -0.14000
N 	N 	0.67930 0.62850 0.82482 -0.20100
N 	N 	0.02580 0.69740 0.91245 -0.17200
C 	C 	0.73760 0.59640 0.94063 -0.09900
H 	H 	0.71040 0.55050 0.93520 0.02000
C 	C 	0.29510 0.79400 0.83734 -0.11900
H 	H 	0.35130 0.81560 0.82690 0.04900
H 	H 	0.27380 0.82310 0.86430 0.02800
C 	C 	0.59670 0.63950 0.97774 -0.11700
H 	H 	0.58190 0.67380 0.00330 0.04000
H 	H 	0.59040 0.58920 0.99000 0.02900
C 	C 	0.08400 0.76900 0.76898 -0.13500
H 	H 	0.07950 0.82050 0.75870 0.04400
H 	H 	0.10940 0.74040 0.74280 0.06400
C 	C 	0.85320 0.75270 0.81741 -0.02200
H 	H 	0.81360 0.78080 0.83570 0.02100
C 	C 	0.88900 0.64160 0.77539 -0.02100
H 	H 	0.87300 0.59440 0.76450 0.01700
C 	C 	0.93370 0.78120 0.80480 -0.10400
H 	H 	0.94810 0.82980 0.81350 0.01000
C 	C 	0.44630 0.62700 0.95506 -0.04400
H 	H 	0.44890 0.57530 0.96520 0.00400
H 	H 	0.42940 0.65690 0.98250 0.03100
C 	C 	0.22880 0.79940 0.79769 -0.05500
H 	H 	0.25300 0.77540 0.76940 0.04600
H 	H 	0.21870 0.85150 0.79010 0.01500
C 	C 	0.99350 0.74040 0.77984 0.05100
C 	C 	0.82330 0.60760 0.92618 -0.02300
H 	H 	0.85440 0.56970 0.91060 0.02700
C 	C 	0.83070 0.68240 0.80298 -0.04000
C 	C 	0.96990 0.67090 0.76421 -0.09600
H 	H 	0.00980 0.64340 0.74570 0.03800
C 	C 	0.46530 0.73840 0.88404 -0.12300
H 	H 	0.46300 0.79070 0.87540 0.05100
H 	H 	0.48650 0.71080 0.85650 0.03300
C 	C 	0.37210 0.71200 0.89681 -0.01000
H 	H 	0.34780 0.74540 0.92130 0.02500
C 	C 	0.69120 0.65170 0.96299 0.03800
C 	C 	0.31170 0.71500 0.85366 -0.01000
H 	H 	0.34050 0.68770 0.82750 0.02400
C 	C 	0.22190 0.67970 0.86346 -0.12300
H 	H 	0.19510 0.70330 0.89120 0.04200
H 	H 	0.23040 0.62730 0.87080 0.04900
C 	C 	0.16040 0.68680 0.82230 -0.04800
H 	H 	0.10420 0.66250 0.82980 0.03700
H 	H 	0.18630 0.66180 0.79480 0.04100
C 	C 	0.86370 0.67470 0.93459 -0.03500
C 	C 	0.74700 0.65180 0.81525 0.06600
C 	C 	0.73260 0.71810 0.97134 -0.09500
H 	H 	0.70140 0.75580 0.98700 0.04700
C 	C 	0.52950 0.72820 0.92434 -0.05100
H 	H 	0.51050 0.75820 0.95140 0.04200
H 	H 	0.58840 0.74520 0.91460 0.03200
C 	C 	0.81810 0.73040 0.95727 -0.02300
H 	H 	0.84540 0.77620 0.96300 0.01800
C 	C 	0.37760 0.63520 0.91743 -0.12300
H 	H 	0.39050 0.60020 0.89190 0.02000
H 	H 	0.31970 0.62210 0.93070 0.04600
C 	C 	0.95380 0.68680 0.92152 0.05400
Ag	Ag	0.07309 0.91673 0.12560 0.48800
Ag	Ag	0.58409 0.67608 0.12771 0.47700
N 	N 	0.64350 0.73559 0.18974 -0.13700
N 	N 	0.03420 0.84990 0.06140 -0.14100
N 	N 	0.17930 0.87150 0.17518 -0.20100
N 	N 	0.52580 0.80260 0.08755 -0.17200
C 	C 	0.23760 0.90360 0.05937 -0.09900
H 	H 	0.21040 0.94950 0.06480 0.02000
C 	C 	0.79510 0.70600 0.16266 -0.11900
H 	H 	0.85130 0.68440 0.17310 0.04900
H 	H 	0.77380 0.67690 0.13570 0.02800
C 	C 	0.09670 0.86050 0.02226 -0.11600
H 	H 	0.08190 0.82620 0.99670 0.04000
H 	H 	0.09040 0.91080 0.01000 0.02900
C 	C 	0.58400 0.73100 0.23102 -0.13400
H 	H 	0.57950 0.67950 0.24130 0.04400
H 	H 	0.60940 0.75960 0.25720 0.06300
C 	C 	0.35320 0.74730 0.18259 -0.02200
H 	H 	0.31360 0.71920 0.16430 0.02100
C 	C 	0.38900 0.85840 0.22461 -0.02100
H 	H 	0.37300 0.90560 0.23550 0.01700
C 	C 	0.43370 0.71880 0.19520 -0.10300
H 	H 	0.44810 0.67020 0.18650 0.01000
C 	C 	0.94630 0.87300 0.04494 -0.04300
H 	H 	0.94890 0.92470 0.03480 0.00400
H 	H 	0.92940 0.84310 0.01750 0.03100
C 	C 	0.72880 0.70060 0.20231 -0.05500
H 	H 	0.75300 0.72460 0.23060 0.04600
H 	H 	0.71870 0.64850 0.20990 0.01500
C 	C 	0.49350 0.75960 0.22016 0.05000
C 	C 	0.32330 0.89240 0.07382 -0.02300
H 	H 	0.35440 0.93030 0.08940 0.02700
C 	C 	0.33070 0.81760 0.19702 -0.04000
C 	C 	0.46990 0.82910 0.23579 -0.09600
H 	H 	0.50980 0.85660 0.25430 0.03900
C 	C 	0.96530 0.76160 0.11596 -0.12300
H 	H 	0.96300 0.70930 0.12460 0.05100
H 	H 	0.98650 0.78920 0.14350 0.03300
C 	C 	0.87210 0.78800 0.10319 -0.01000
H 	H 	0.84780 0.75460 0.07870 0.02500
C 	C 	0.19120 0.84830 0.03701 0.03800
C 	C 	0.81170 0.78500 0.14634 -0.01000
H 	H 	0.84050 0.81230 0.17250 0.02400
C 	C 	0.72190 0.82030 0.13654 -0.12300
H 	H 	0.69510 0.79670 0.10880 0.04200
H 	H 	0.73040 0.87270 0.12920 0.04900
C 	C 	0.66040 0.81320 0.17770 -0.04800
H 	H 	0.60420 0.83750 0.17020 0.03700
H 	H 	0.68630 0.83820 0.20520 0.04100
C 	C 	0.36370 0.82530 0.06541 -0.03500
C 	C 	0.24700 0.84820 0.18475 0.06600
C 	C 	0.23260 0.78190 0.02866 -0.09500
H 	H 	0.20140 0.74420 0.01300 0.04700
C 	C 	0.02950 0.77180 0.07566 -0.05200
H 	H 	0.01050 0.74180 0.04860 0.04200
H 	H 	0.08840 0.75480 0.08540 0.03200
C 	C 	0.31810 0.76960 0.04273 -0.02300
H 	H 	0.34540 0.72380 0.03700 0.01800
C 	C 	0.87760 0.86480 0.08257 -0.12300
H 	H 	0.89050 0.89980 0.10810 0.02000
H 	H 	0.81970 0.87790 0.06930 0.04700
C 	C 	0.45380 0.81320 0.07848 0.05400
Ag	Ag	0.42691 0.08327 0.62560 0.48800
Ag	Ag	0.91591 0.32392 0.62771 0.47700
N 	N 	0.85650 0.26441 0.68974 -0.13700
N 	N 	0.46580 0.15010 0.56140 -0.14000
N 	N 	0.32070 0.12850 0.67518 -0.20100
N 	N 	0.97420 0.19740 0.58755 -0.17200
C 	C 	0.26240 0.09640 0.55937 -0.09900
H 	H 	0.28960 0.05050 0.56480 0.02000
C 	C 	0.70490 0.29400 0.66266 -0.11900
H 	H 	0.64870 0.31560 0.67310 0.04900
H 	H 	0.72620 0.32310 0.63570 0.02800
C 	C 	0.40330 0.13950 0.52226 -0.11700
H 	H 	0.41810 0.17380 0.49670 0.04000
H 	H 	0.40960 0.08920 0.51000 0.02900
C 	C 	0.91600 0.26900 0.73102 -0.13400
H 	H 	0.92050 0.32050 0.74130 0.04400
H 	H 	0.89060 0.24040 0.75720 0.06300
C 	C 	0.14680 0.25270 0.68259 -0.02300
H 	H 	0.18640 0.28080 0.66430 0.02100
C 	C 	0.11100 0.14160 0.72461 -0.02100
H 	H 	0.12700 0.09440 0.73550 0.01700
C 	C 	0.06630 0.28120 0.69520 -0.10300
H 	H 	0.05190 0.32980 0.68650 0.01000
C 	C 	0.55370 0.12700 0.54494 -0.04400
H 	H 	0.55110 0.07530 0.53480 0.00400
H 	H 	0.57060 0.15690 0.51750 0.03100
C 	C 	0.77120 0.29940 0.70231 -0.05500
H 	H 	0.74700 0.27540 0.73060 0.04600
H 	H 	0.78130 0.35150 0.70990 0.01500
C 	C 	0.00650 0.24040 0.72016 0.05000
C 	C 	0.17670 0.10760 0.57382 -0.02300
H 	H 	0.14560 0.06970 0.58940 0.02700
C 	C 	0.16930 0.18240 0.69702 -0.03900
C 	C 	0.03010 0.17090 0.73579 -0.09400
H 	H 	0.99020 0.14340 0.75430 0.03800
C 	C 	0.53470 0.23840 0.61596 -0.12300
H 	H 	0.53700 0.29070 0.62460 0.05100
H 	H 	0.51350 0.21080 0.64350 0.03300
C 	C 	0.62790 0.21200 0.60319 -0.01000
H 	H 	0.65220 0.24540 0.57870 0.02500
C 	C 	0.30880 0.15170 0.53701 0.03800
C 	C 	0.68830 0.21500 0.64634 -0.01000
H 	H 	0.65950 0.18770 0.67250 0.02400
C 	C 	0.77810 0.17970 0.63654 -0.12400
H 	H 	0.80490 0.20330 0.60880 0.04200
H 	H 	0.76960 0.12730 0.62920 0.04900
C 	C 	0.83960 0.18680 0.67770 -0.04800
H 	H 	0.89580 0.16250 0.67020 0.03700
H 	H 	0.81370 0.16180 0.70520 0.04100
C 	C 	0.13630 0.17470 0.56541 -0.03500
C 	C 	0.25300 0.15180 0.68475 0.06600
C 	C 	0.26740 0.21810 0.52866 -0.09500
H 	H 	0.29860 0.25580 0.51300 0.04700
C 	C 	0.47050 0.22820 0.57566 -0.05100
H 	H 	0.48950 0.25820 0.54860 0.04200
H 	H 	0.41160 0.24520 0.58540 0.03200
C 	C 	0.18190 0.23040 0.54273 -0.02300
H 	H 	0.15460 0.27620 0.53700 0.01800
C 	C 	0.62240 0.13520 0.58257 -0.12200
H 	H 	0.60950 0.10020 0.60810 0.02000
H 	H 	0.68030 0.12210 0.56930 0.04600
C 	C 	0.04620 0.18680 0.57848 0.05500
