data_crystal

_cell_length_a 17.69790
_cell_length_b 17.62610
_cell_length_c 18.87860
_cell_angle_alpha 90.00000
_cell_angle_beta  90.00300
_cell_angle_gamma 90.00000

_symmetry_space_group_name_	'P 1'
_symmetry_space_group_name_H-M	'P 1'

loop_
_symmetry_equiv_pos_as_xyz
  x,y,z

loop_
_atom_site_label
_atom_site_type_symbol
_atom_site_fract_x
_atom_site_fract_y
_atom_site_fract_z
_atom_site_charge
O 	O 	0.33590 0.11110 0.30880 -0.42800
O 	O 	0.33520 0.11100 0.19130 -0.41800
N 	N 	0.33540 0.38500 0.25020 -0.22200
C 	C 	0.33510 0.14210 0.25130 0.36600
C 	C 	0.33610 0.22740 0.25030 -0.05400
C 	C 	0.68060 0.04100 0.29710 0.00200
H 	H 	0.70760 0.07060 0.33070 0.00200
C 	C 	0.30120 0.34760 0.30410 -0.00200
H 	H 	0.27600 0.37500 0.34040 0.00300
C 	C 	0.68050 0.96170 0.20130 0.06100
H 	H 	0.70790 0.93500 0.16600 -0.00800
C 	C 	0.30180 0.34690 0.19600 -0.01800
H 	H 	0.27760 0.37450 0.15920 0.00900
C 	C 	0.37040 0.34540 0.30020 0.03000
H 	H 	0.39580 0.37250 0.33660 -0.00700
C 	C 	0.60230 0.95880 0.19890 -0.00200
H 	H 	0.57660 0.92990 0.16400 0.04500
C 	C 	0.37020 0.34560 0.19970 0.04500
H 	H 	0.39580 0.37290 0.16360 -0.01200
C 	C 	0.30310 0.26840 0.30580 -0.02500
H 	H 	0.28200 0.24210 0.34500 0.04100
C 	C 	0.06890 0.02900 0.30580 0.26700
H 	H 	0.09530 0.04760 0.34610 -0.06200
C 	C 	0.37140 0.26750 0.19690 -0.05700
H 	H 	0.39590 0.24190 0.15910 0.05200
C 	C 	0.30260 0.26790 0.19410 -0.01000
H 	H 	0.28070 0.24150 0.15530 0.03600
C 	C 	0.37190 0.26790 0.30240 -0.04200
H 	H 	0.39760 0.24240 0.33970 0.04600
C 	C 	0.99100 0.03260 0.30450 -0.31100
H 	H 	0.96500 0.05770 0.34170 0.10300
C 	C 	0.06840 0.97230 0.19300 -0.21100
H 	H 	0.09420 0.95660 0.15130 0.11500
C 	C 	0.99020 0.96860 0.19770 0.29400
H 	H 	0.96370 0.94200 0.16170 -0.08500
C 	C 	0.60280 0.04250 0.29900 -0.04700
H 	H 	0.57700 0.07220 0.33330 0.04500
O 	O 	0.83590 0.61110 0.30880 -0.42600
O 	O 	0.83520 0.61100 0.19130 -0.41700
N 	N 	0.83540 0.88500 0.25020 -0.21700
C 	C 	0.83510 0.64210 0.25130 0.36400
C 	C 	0.83610 0.72740 0.25030 -0.05500
C 	C 	0.18060 0.54100 0.29710 0.02300
H 	H 	0.20760 0.57060 0.33070 -0.00100
C 	C 	0.80120 0.84760 0.30410 0.00200
H 	H 	0.77600 0.87500 0.34040 0.00700
C 	C 	0.18050 0.46170 0.20130 0.02100
H 	H 	0.20790 0.43500 0.16600 -0.00300
C 	C 	0.80180 0.84690 0.19600 -0.01100
H 	H 	0.77760 0.87450 0.15920 0.01200
C 	C 	0.87040 0.84540 0.30020 0.02100
H 	H 	0.89580 0.87250 0.33660 0.00400
C 	C 	0.10230 0.45880 0.19890 -0.04700
H 	H 	0.07660 0.42990 0.16400 0.04900
C 	C 	0.87020 0.84560 0.19970 0.03400
H 	H 	0.89580 0.87290 0.16360 -0.00000
C 	C 	0.80310 0.76840 0.30580 -0.02800
H 	H 	0.78200 0.74210 0.34500 0.04400
C 	C 	0.56890 0.52900 0.30580 -0.03300
H 	H 	0.59530 0.54760 0.34610 0.04400
C 	C 	0.87140 0.76750 0.19690 -0.05000
H 	H 	0.89590 0.74190 0.15910 0.05100
C 	C 	0.80260 0.76790 0.19410 -0.01500
H 	H 	0.78070 0.74150 0.15530 0.04000
C 	C 	0.87190 0.76790 0.30240 -0.03700
H 	H 	0.89760 0.74240 0.33970 0.04600
C 	C 	0.49100 0.53260 0.30450 0.00900
H 	H 	0.46500 0.55770 0.34170 0.00200
C 	C 	0.56840 0.47230 0.19300 -0.03400
H 	H 	0.59420 0.45660 0.15130 0.04200
C 	C 	0.49020 0.46860 0.19770 0.01400
H 	H 	0.46370 0.44200 0.16170 -0.00100
C 	C 	0.10280 0.54250 0.29900 -0.04900
H 	H 	0.07700 0.57220 0.33330 0.05000
O 	O 	0.33590 0.88890 0.30880 -0.40400
O 	O 	0.33520 0.88900 0.19130 -0.39500
N 	N 	0.33540 0.61500 0.25020 -0.22400
C 	C 	0.33510 0.85790 0.25130 0.35900
C 	C 	0.33610 0.77260 0.25030 -0.04700
C 	C 	0.68060 0.95900 0.29710 0.04200
H 	H 	0.70760 0.92940 0.33070 -0.00000
C 	C 	0.30120 0.65240 0.30410 -0.00200
H 	H 	0.27600 0.62500 0.34040 0.00400
C 	C 	0.68050 0.03830 0.20130 -0.02200
H 	H 	0.70790 0.06500 0.16600 0.00600
C 	C 	0.30180 0.65310 0.19600 -0.01800
H 	H 	0.27760 0.62550 0.15920 0.00900
C 	C 	0.37040 0.65460 0.30020 0.03200
H 	H 	0.39580 0.62750 0.33660 -0.00700
C 	C 	0.60230 0.04120 0.19890 -0.03500
H 	H 	0.57660 0.07010 0.16400 0.04100
C 	C 	0.37020 0.65440 0.19970 0.04800
H 	H 	0.39580 0.62710 0.16360 -0.01200
C 	C 	0.30310 0.73160 0.30580 -0.02700
H 	H 	0.28200 0.75790 0.34500 0.04500
C 	C 	0.06890 0.97100 0.30580 -0.28200
H 	H 	0.09530 0.95240 0.34610 0.13800
C 	C 	0.37140 0.73250 0.19690 -0.06100
H 	H 	0.39590 0.75810 0.15910 0.05700
C 	C 	0.30260 0.73210 0.19410 -0.01000
H 	H 	0.28070 0.75850 0.15530 0.04000
C 	C 	0.37190 0.73210 0.30240 -0.04500
H 	H 	0.39760 0.75760 0.33970 0.05100
C 	C 	0.99100 0.96740 0.30450 0.32400
H 	H 	0.96500 0.94230 0.34170 -0.09500
C 	C 	0.06840 0.02770 0.19300 0.18000
H 	H 	0.09420 0.04340 0.15130 -0.03600
C 	C 	0.99020 0.03140 0.19770 -0.25700
H 	H 	0.96370 0.05800 0.16170 0.08400
C 	C 	0.60280 0.95750 0.29900 0.00900
H 	H 	0.57700 0.92780 0.33330 0.04200
O 	O 	0.83590 0.38890 0.30880 -0.42700
O 	O 	0.83520 0.38900 0.19130 -0.41700
N 	N 	0.83540 0.11500 0.25020 -0.22200
C 	C 	0.83510 0.35790 0.25130 0.36300
C 	C 	0.83610 0.27260 0.25030 -0.05200
C 	C 	0.18060 0.45900 0.29710 0.02300
H 	H 	0.20760 0.42940 0.33070 -0.00200
C 	C 	0.80120 0.15240 0.30410 -0.00700
H 	H 	0.77600 0.12500 0.34040 0.00200
C 	C 	0.18050 0.53830 0.20130 0.02100
H 	H 	0.20790 0.56500 0.16600 -0.00200
C 	C 	0.80180 0.15310 0.19600 -0.02500
H 	H 	0.77760 0.12550 0.15920 0.00800
C 	C 	0.87040 0.15460 0.30020 0.04000
H 	H 	0.89580 0.12750 0.33660 -0.01400
C 	C 	0.10230 0.54120 0.19890 -0.04700
H 	H 	0.07660 0.57010 0.16400 0.05000
C 	C 	0.87020 0.15440 0.19970 0.05700
H 	H 	0.89580 0.12710 0.16360 -0.02000
C 	C 	0.80310 0.23160 0.30580 -0.02200
H 	H 	0.78200 0.25790 0.34500 0.04000
C 	C 	0.56890 0.47100 0.30580 -0.02800
H 	H 	0.59530 0.45240 0.34610 0.04100
C 	C 	0.87140 0.23250 0.19690 -0.06500
H 	H 	0.89590 0.25810 0.15910 0.05400
C 	C 	0.80260 0.23210 0.19410 -0.00500
H 	H 	0.78070 0.25850 0.15530 0.03500
C 	C 	0.87190 0.23210 0.30240 -0.04700
H 	H 	0.89760 0.25760 0.33970 0.04800
C 	C 	0.49100 0.46740 0.30450 0.00400
H 	H 	0.46500 0.44230 0.34170 0.00300
C 	C 	0.56840 0.52770 0.19300 -0.03700
H 	H 	0.59420 0.54340 0.15130 0.04400
C 	C 	0.49020 0.53140 0.19770 0.01800
H 	H 	0.46370 0.55800 0.16170 -0.00200
C 	C 	0.10280 0.45750 0.29900 -0.04900
H 	H 	0.07700 0.42780 0.33330 0.05000
Cu	Cu	0.33593 0.00000 0.17965 0.89000
Cu	Cu	0.33608 0.00000 0.32051 0.89100
Cu	Cu	0.83481 0.00000 0.25006 0.83500
C 	C 	0.19310 0.00000 0.25010 0.34700
O 	O 	0.44540 0.00000 0.31020 -0.42300
O 	O 	0.44600 0.00000 0.19050 -0.42600
O 	O 	0.22480 0.00000 0.30990 -0.42300
N 	N 	0.72000 0.00000 0.25040 -0.24800
O 	O 	0.22490 0.00000 0.19050 -0.42500
C 	C 	0.56290 0.00000 0.24980 -0.10000
N 	N 	0.95000 0.00000 0.24970 -0.24000
C 	C 	0.47750 0.00000 0.24990 0.34000
C 	C 	0.10780 0.00000 0.25150 -0.11000
Cu	Cu	0.83593 0.50000 0.17965 0.89900
Cu	Cu	0.83608 0.50000 0.32051 0.90000
Cu	Cu	0.33481 0.50000 0.25006 0.84800
C 	C 	0.69310 0.50000 0.25010 0.33100
O 	O 	0.94540 0.50000 0.31020 -0.40500
O 	O 	0.94600 0.50000 0.19050 -0.40800
O 	O 	0.72480 0.50000 0.30990 -0.40600
N 	N 	0.22000 0.50000 0.25040 -0.22800
O 	O 	0.72490 0.50000 0.19050 -0.40700
C 	C 	0.06290 0.50000 0.24980 -0.02300
N 	N 	0.45000 0.50000 0.24970 -0.22000
C 	C 	0.97750 0.50000 0.24990 0.32100
C 	C 	0.60780 0.50000 0.25150 -0.04500
O 	O 	0.66410 0.11110 0.69120 -0.42900
O 	O 	0.66480 0.11100 0.80870 -0.41900
N 	N 	0.66460 0.38500 0.74980 -0.22300
C 	C 	0.66490 0.14210 0.74870 0.36500
C 	C 	0.66390 0.22740 0.74970 -0.05500
C 	C 	0.31940 0.04100 0.70290 0.00100
H 	H 	0.29240 0.07060 0.66930 0.00100
C 	C 	0.69880 0.34760 0.69590 -0.00300
H 	H 	0.72400 0.37500 0.65960 0.00300
C 	C 	0.31950 0.96170 0.79870 0.06100
H 	H 	0.29210 0.93500 0.83400 -0.00800
C 	C 	0.69820 0.34690 0.80400 -0.01800
H 	H 	0.72240 0.37450 0.84080 0.00900
C 	C 	0.62960 0.34540 0.69980 0.03000
H 	H 	0.60420 0.37250 0.66340 -0.00700
C 	C 	0.39770 0.95880 0.80110 -0.00200
H 	H 	0.42340 0.92990 0.83600 0.04500
C 	C 	0.62980 0.34560 0.80030 0.04500
H 	H 	0.60420 0.37290 0.83640 -0.01200
C 	C 	0.69690 0.26840 0.69420 -0.02500
H 	H 	0.71800 0.24210 0.65500 0.04100
C 	C 	0.93110 0.02900 0.69420 0.26700
H 	H 	0.90470 0.04760 0.65390 -0.06200
C 	C 	0.62860 0.26750 0.80310 -0.05700
H 	H 	0.60410 0.24190 0.84090 0.05200
C 	C 	0.69740 0.26790 0.80590 -0.01000
H 	H 	0.71930 0.24150 0.84470 0.03600
C 	C 	0.62810 0.26790 0.69760 -0.04200
H 	H 	0.60240 0.24240 0.66030 0.04600
C 	C 	0.00900 0.03260 0.69550 -0.31100
H 	H 	0.03500 0.05770 0.65830 0.10300
C 	C 	0.93160 0.97230 0.80700 -0.21100
H 	H 	0.90580 0.95660 0.84870 0.11500
C 	C 	0.00980 0.96860 0.80230 0.29400
H 	H 	0.03630 0.94200 0.83830 -0.08500
C 	C 	0.39720 0.04250 0.70100 -0.04700
H 	H 	0.42300 0.07220 0.66670 0.04500
O 	O 	0.16410 0.61110 0.69120 -0.42600
O 	O 	0.16480 0.61100 0.80870 -0.41700
N 	N 	0.16460 0.88500 0.74980 -0.21700
C 	C 	0.16490 0.64210 0.74870 0.36400
C 	C 	0.16390 0.72740 0.74970 -0.05500
C 	C 	0.81940 0.54100 0.70290 0.02300
H 	H 	0.79240 0.57060 0.66930 -0.00100
C 	C 	0.19880 0.84760 0.69590 0.00200
H 	H 	0.22400 0.87500 0.65960 0.00700
C 	C 	0.81950 0.46170 0.79870 0.02100
H 	H 	0.79210 0.43500 0.83400 -0.00300
C 	C 	0.19820 0.84690 0.80400 -0.01100
H 	H 	0.22240 0.87450 0.84080 0.01200
C 	C 	0.12960 0.84540 0.69980 0.02100
H 	H 	0.10420 0.87250 0.66340 0.00400
C 	C 	0.89770 0.45880 0.80110 -0.04700
H 	H 	0.92340 0.42990 0.83600 0.04900
C 	C 	0.12980 0.84560 0.80030 0.03400
H 	H 	0.10420 0.87290 0.83640 -0.00000
C 	C 	0.19690 0.76840 0.69420 -0.02800
H 	H 	0.21800 0.74210 0.65500 0.04400
C 	C 	0.43110 0.52900 0.69420 -0.03300
H 	H 	0.40470 0.54760 0.65390 0.04400
C 	C 	0.12860 0.76750 0.80310 -0.05000
H 	H 	0.10410 0.74190 0.84090 0.05100
C 	C 	0.19740 0.76790 0.80590 -0.01500
H 	H 	0.21930 0.74150 0.84470 0.04000
C 	C 	0.12810 0.76790 0.69760 -0.03700
H 	H 	0.10240 0.74240 0.66030 0.04600
C 	C 	0.50900 0.53260 0.69550 0.00900
H 	H 	0.53500 0.55770 0.65830 0.00200
C 	C 	0.43160 0.47230 0.80700 -0.03400
H 	H 	0.40580 0.45660 0.84870 0.04200
C 	C 	0.50980 0.46860 0.80230 0.01400
H 	H 	0.53630 0.44200 0.83830 -0.00100
C 	C 	0.89720 0.54250 0.70100 -0.04900
H 	H 	0.92300 0.57220 0.66670 0.05000
O 	O 	0.66410 0.88890 0.69120 -0.40400
O 	O 	0.66480 0.88900 0.80870 -0.39500
N 	N 	0.66460 0.61500 0.74980 -0.22400
C 	C 	0.66490 0.85790 0.74870 0.35900
C 	C 	0.66390 0.77260 0.74970 -0.04700
C 	C 	0.31940 0.95900 0.70290 0.04200
H 	H 	0.29240 0.92940 0.66930 -0.00000
C 	C 	0.69880 0.65240 0.69590 -0.00200
H 	H 	0.72400 0.62500 0.65960 0.00400
C 	C 	0.31950 0.03830 0.79870 -0.02200
H 	H 	0.29210 0.06500 0.83400 0.00600
C 	C 	0.69820 0.65310 0.80400 -0.01800
H 	H 	0.72240 0.62550 0.84080 0.00900
C 	C 	0.62960 0.65460 0.69980 0.03200
H 	H 	0.60420 0.62750 0.66340 -0.00700
C 	C 	0.39770 0.04120 0.80110 -0.03500
H 	H 	0.42340 0.07010 0.83600 0.04100
C 	C 	0.62980 0.65440 0.80030 0.04800
H 	H 	0.60420 0.62710 0.83640 -0.01200
C 	C 	0.69690 0.73160 0.69420 -0.02700
H 	H 	0.71800 0.75790 0.65500 0.04500
C 	C 	0.93110 0.97100 0.69420 -0.28200
H 	H 	0.90470 0.95240 0.65390 0.13800
C 	C 	0.62860 0.73250 0.80310 -0.06100
H 	H 	0.60410 0.75810 0.84090 0.05700
C 	C 	0.69740 0.73210 0.80590 -0.01000
H 	H 	0.71930 0.75850 0.84470 0.04000
C 	C 	0.62810 0.73210 0.69760 -0.04500
H 	H 	0.60240 0.75760 0.66030 0.05100
C 	C 	0.00900 0.96740 0.69550 0.32400
H 	H 	0.03500 0.94230 0.65830 -0.09500
C 	C 	0.93160 0.02770 0.80700 0.18000
H 	H 	0.90580 0.04340 0.84870 -0.03600
C 	C 	0.00980 0.03140 0.80230 -0.25700
H 	H 	0.03630 0.05800 0.83830 0.08400
C 	C 	0.39720 0.95750 0.70100 0.00900
H 	H 	0.42300 0.92780 0.66670 0.04200
O 	O 	0.16410 0.38890 0.69120 -0.42700
O 	O 	0.16480 0.38900 0.80870 -0.41700
N 	N 	0.16460 0.11500 0.74980 -0.22200
C 	C 	0.16490 0.35790 0.74870 0.36300
C 	C 	0.16390 0.27260 0.74970 -0.05200
C 	C 	0.81940 0.45900 0.70290 0.02300
H 	H 	0.79240 0.42940 0.66930 -0.00200
C 	C 	0.19880 0.15240 0.69590 -0.00700
H 	H 	0.22400 0.12500 0.65960 0.00200
C 	C 	0.81950 0.53830 0.79870 0.02100
H 	H 	0.79210 0.56500 0.83400 -0.00200
C 	C 	0.19820 0.15310 0.80400 -0.02500
H 	H 	0.22240 0.12550 0.84080 0.00800
C 	C 	0.12960 0.15460 0.69980 0.04000
H 	H 	0.10420 0.12750 0.66340 -0.01400
C 	C 	0.89770 0.54120 0.80110 -0.04700
H 	H 	0.92340 0.57010 0.83600 0.05000
C 	C 	0.12980 0.15440 0.80030 0.05700
H 	H 	0.10420 0.12710 0.83640 -0.02000
C 	C 	0.19690 0.23160 0.69420 -0.02200
H 	H 	0.21800 0.25790 0.65500 0.04000
C 	C 	0.43110 0.47100 0.69420 -0.02800
H 	H 	0.40470 0.45240 0.65390 0.04100
C 	C 	0.12860 0.23250 0.80310 -0.06500
H 	H 	0.10410 0.25810 0.84090 0.05400
C 	C 	0.19740 0.23210 0.80590 -0.00500
H 	H 	0.21930 0.25850 0.84470 0.03500
C 	C 	0.12810 0.23210 0.69760 -0.04700
H 	H 	0.10240 0.25760 0.66030 0.04800
C 	C 	0.50900 0.46740 0.69550 0.00400
H 	H 	0.53500 0.44230 0.65830 0.00300
C 	C 	0.43160 0.52770 0.80700 -0.03700
H 	H 	0.40580 0.54340 0.84870 0.04400
C 	C 	0.50980 0.53140 0.80230 0.01800
H 	H 	0.53630 0.55800 0.83830 -0.00200
C 	C 	0.89720 0.45750 0.70100 -0.04900
H 	H 	0.92300 0.42780 0.66670 0.05000
Cu	Cu	0.66407 0.00000 0.82035 0.89000
Cu	Cu	0.66392 0.00000 0.67949 0.89100
Cu	Cu	0.16519 0.00000 0.74994 0.83500
C 	C 	0.80690 0.00000 0.74990 0.34700
O 	O 	0.55460 0.00000 0.68980 -0.42300
O 	O 	0.55400 0.00000 0.80950 -0.42600
O 	O 	0.77520 0.00000 0.69010 -0.42300
N 	N 	0.28000 0.00000 0.74960 -0.24800
O 	O 	0.77510 0.00000 0.80950 -0.42500
C 	C 	0.43710 0.00000 0.75020 -0.10000
N 	N 	0.05000 0.00000 0.75030 -0.24000
C 	C 	0.52250 0.00000 0.75010 0.34000
C 	C 	0.89220 0.00000 0.74850 -0.11000
Cu	Cu	0.16407 0.50000 0.82035 0.89900
Cu	Cu	0.16392 0.50000 0.67949 0.90000
Cu	Cu	0.66519 0.50000 0.74994 0.84800
C 	C 	0.30690 0.50000 0.74990 0.33100
O 	O 	0.05460 0.50000 0.68980 -0.40500
O 	O 	0.05400 0.50000 0.80950 -0.40800
O 	O 	0.27520 0.50000 0.69010 -0.40600
N 	N 	0.78000 0.50000 0.74960 -0.22800
O 	O 	0.27510 0.50000 0.80950 -0.40700
C 	C 	0.93710 0.50000 0.75020 -0.02300
N 	N 	0.55000 0.50000 0.75030 -0.22000
C 	C 	0.02250 0.50000 0.75010 0.32100
C 	C 	0.39220 0.50000 0.74850 -0.04500
