data_crystal

_cell_length_a 15.16750
_cell_length_b 15.16750
_cell_length_c 11.91970
_cell_angle_alpha 90.00000
_cell_angle_beta  90.00000
_cell_angle_gamma 90.00000

_symmetry_space_group_name_	'P 1'
_symmetry_space_group_name_H-M	'P 1'

loop_
_symmetry_equiv_pos_as_xyz
  x,y,z

loop_
_atom_site_label
_atom_site_type_symbol
_atom_site_fract_x
_atom_site_fract_y
_atom_site_fract_z
_atom_site_charge
O 	O 	0.09990 0.28670 0.99850 -0.45700
O 	O 	0.12520 0.11990 0.10680 -0.57000
C 	C 	0.09210 0.36000 0.04880 0.20300
C 	C 	0.04080 0.43100 0.99010 0.22500
C 	C 	0.03900 0.43100 0.87150 -0.21000
H 	H 	0.06420 0.38440 0.83220 0.11200
O 	O 	0.59990 0.78670 0.49850 -0.56800
O 	O 	0.62520 0.61990 0.60680 -0.54200
C 	C 	0.59210 0.86000 0.54880 0.43100
C 	C 	0.54080 0.93100 0.49010 -0.06900
C 	C 	0.53900 0.93100 0.37150 -0.02600
H 	H 	0.56420 0.88440 0.33220 0.04800
O 	O 	0.40010 0.21330 0.49850 -0.57000
O 	O 	0.37480 0.38010 0.60680 -0.54200
C 	C 	0.40790 0.14000 0.54880 0.43200
C 	C 	0.45920 0.06900 0.49010 -0.08500
C 	C 	0.46100 0.06900 0.37150 -0.04600
H 	H 	0.43580 0.11560 0.33220 0.05100
O 	O 	0.90010 0.71330 0.99850 -0.45100
O 	O 	0.87480 0.88010 0.10680 -0.56300
C 	C 	0.90790 0.64000 0.04880 0.19900
C 	C 	0.95920 0.56900 0.99010 0.23100
C 	C 	0.96100 0.56900 0.87150 -0.20800
H 	H 	0.93580 0.61560 0.83220 0.11300
O 	O 	0.71330 0.59990 0.24850 -0.58400
O 	O 	0.88010 0.62520 0.35680 -0.55400
C 	C 	0.64000 0.59210 0.29880 0.45800
C 	C 	0.56900 0.54080 0.24010 -0.15900
C 	C 	0.56900 0.53900 0.12150 0.07000
H 	H 	0.61560 0.56420 0.08220 -0.01100
O 	O 	0.21330 0.09990 0.74850 -0.56600
O 	O 	0.38010 0.12520 0.85680 -0.59400
C 	C 	0.14000 0.09210 0.79880 0.43700
C 	C 	0.06900 0.04080 0.74010 -0.09900
C 	C 	0.06900 0.03900 0.62150 -0.00700
H 	H 	0.11560 0.06420 0.58220 0.03700
O 	O 	0.78670 0.90010 0.74850 -0.56100
O 	O 	0.61990 0.87480 0.85680 -0.58900
C 	C 	0.86000 0.90790 0.79880 0.43600
C 	C 	0.93100 0.95920 0.74010 -0.07900
C 	C 	0.93100 0.96100 0.62150 0.01700
H 	H 	0.88440 0.93580 0.58220 0.03400
O 	O 	0.28670 0.40010 0.24850 -0.58300
O 	O 	0.11990 0.37480 0.35680 -0.55600
C 	C 	0.36000 0.40790 0.29880 0.45800
C 	C 	0.43100 0.45920 0.24010 -0.15900
C 	C 	0.43100 0.46100 0.12150 0.07000
H 	H 	0.38440 0.43580 0.08220 -0.01000
O 	O 	0.40010 0.28670 0.75150 -0.56100
O 	O 	0.37480 0.11990 0.64320 -0.54100
C 	C 	0.40790 0.36000 0.70120 0.43100
C 	C 	0.45920 0.43100 0.75990 -0.07400
C 	C 	0.46100 0.43100 0.87850 -0.06700
H 	H 	0.43580 0.38440 0.91780 0.08000
O 	O 	0.90010 0.78670 0.25150 -0.57600
O 	O 	0.87480 0.61990 0.14320 -0.49900
C 	C 	0.90790 0.86000 0.20120 0.44300
C 	C 	0.95920 0.93100 0.25990 -0.10600
C 	C 	0.96100 0.93100 0.37850 0.03100
H 	H 	0.93580 0.88440 0.41780 0.02800
O 	O 	0.09990 0.21330 0.25150 -0.57900
O 	O 	0.12520 0.38010 0.14320 -0.50000
C 	C 	0.09210 0.14000 0.20120 0.44400
C 	C 	0.04080 0.06900 0.25990 -0.12300
C 	C 	0.03900 0.06900 0.37850 0.00800
H 	H 	0.06420 0.11560 0.41780 0.03100
O 	O 	0.59990 0.71330 0.75150 -0.55900
O 	O 	0.62520 0.88010 0.64320 -0.53300
C 	C 	0.59210 0.64000 0.70120 0.43100
C 	C 	0.54080 0.56900 0.75990 -0.07300
C 	C 	0.53900 0.56900 0.87850 -0.06600
H 	H 	0.56420 0.61560 0.91780 0.08100
O 	O 	0.78670 0.59990 0.50150 -0.57500
O 	O 	0.61990 0.62520 0.39320 -0.55200
C 	C 	0.86000 0.59210 0.45120 0.45300
C 	C 	0.93100 0.54080 0.50990 -0.14000
C 	C 	0.93100 0.53900 0.62850 0.05300
H 	H 	0.88440 0.56420 0.66780 0.01800
O 	O 	0.28670 0.09990 0.00150 -0.68500
O 	O 	0.11990 0.12520 0.89320 -0.52200
C 	C 	0.36000 0.09210 0.95120 0.68000
C 	C 	0.43100 0.04080 0.00990 -0.45000
C 	C 	0.43100 0.03900 0.12850 0.21100
H 	H 	0.38440 0.06420 0.16780 -0.04300
O 	O 	0.71330 0.90010 0.00150 -0.68400
O 	O 	0.88010 0.87480 0.89320 -0.51400
C 	C 	0.64000 0.90790 0.95120 0.68500
C 	C 	0.56900 0.95920 0.00990 -0.43800
C 	C 	0.56900 0.96100 0.12850 0.23200
H 	H 	0.61560 0.93580 0.16780 -0.04500
O 	O 	0.21330 0.40010 0.50150 -0.57400
O 	O 	0.38010 0.37480 0.39320 -0.55200
C 	C 	0.14000 0.40790 0.45120 0.45300
C 	C 	0.06900 0.45920 0.50990 -0.14200
C 	C 	0.06900 0.46100 0.62850 0.05000
H 	H 	0.11560 0.43580 0.66780 0.01900
Ga	Ga	0.19430 0.19430 -0.00000 2.07800
Ga	Ga	0.69430 0.69430 0.50000 2.09100
Ga	Ga	0.30570 0.30570 0.50000 2.09100
Ga	Ga	0.80570 0.69430 0.25000 2.09000
Ga	Ga	0.69430 0.80570 0.75000 2.09200
Ga	Ga	0.30570 0.19430 0.75000 2.09200
Ga	Ga	0.19430 0.30570 0.25000 2.09000
Ga	Ga	0.80570 0.80570 -0.00000 2.07700
O 	O 	0.25270 0.25000 0.12500 -1.08200
H 	H 	0.30830 0.25000 0.12500 0.37300
O 	O 	0.75270 0.75000 0.62500 -1.07000
H 	H 	0.80830 0.75000 0.62500 0.38000
O 	O 	0.24730 0.25000 0.62500 -1.07000
H 	H 	0.19170 0.25000 0.62500 0.37900
O 	O 	0.74730 0.75000 0.12500 -1.08200
H 	H 	0.69170 0.75000 0.12500 0.37400
O 	O 	0.75000 0.75270 0.37500 -1.07100
H 	H 	0.75000 0.80830 0.37500 0.38200
O 	O 	0.25000 0.25270 0.87500 -1.05300
H 	H 	0.25000 0.30830 0.87500 0.38500
O 	O 	0.75000 0.74730 0.87500 -1.05300
H 	H 	0.75000 0.69170 0.87500 0.38500
O 	O 	0.25000 0.24730 0.37500 -1.07100
H 	H 	0.25000 0.19170 0.37500 0.38000
C 	C 	-0.00000 0.50000 0.04800 -0.35900
H 	H 	-0.00000 0.50000 0.12600 0.18400
C 	C 	0.00000 0.50000 0.81320 0.16100
C 	C 	0.50000 0.00000 0.54800 0.01100
H 	H 	0.50000 0.00000 0.62600 0.06800
C 	C 	0.50000 0.00000 0.31320 0.05000
C 	C 	0.50000 0.50000 0.29800 0.10200
H 	H 	0.50000 0.50000 0.37600 0.03700
C 	C 	0.50000 0.50000 0.06320 -0.14200
C 	C 	-0.00000 0.00000 0.79800 0.02200
H 	H 	0.00000 0.00000 0.87600 0.07300
C 	C 	0.00000 0.00000 0.56320 -0.02000
C 	C 	0.50000 0.50000 0.70200 0.03200
H 	H 	0.50000 0.50000 0.62400 0.06200
C 	C 	0.50000 0.50000 0.93680 0.12900
C 	C 	0.00000 0.00000 0.20200 0.04400
H 	H 	0.00000 0.00000 0.12400 0.03600
C 	C 	0.00000 0.00000 0.43680 -0.03400
C 	C 	0.00000 0.50000 0.45200 0.08900
H 	H 	-0.00000 0.50000 0.37400 0.03500
C 	C 	-0.00000 0.50000 0.68680 -0.08500
C 	C 	0.50000 0.00000 0.95200 0.45800
H 	H 	0.50000 0.00000 0.87400 -0.08000
C 	C 	0.50000 0.00000 0.18680 -0.19300
