data_crystal

_cell_length_a 14.04200
_cell_length_b 26.31070
_cell_length_c 16.81700
_cell_angle_alpha 90.00000
_cell_angle_beta  105.54800
_cell_angle_gamma 90.00000

_symmetry_space_group_name_	'P 1'
_symmetry_space_group_name_H-M	'P 1'

loop_
_symmetry_equiv_pos_as_xyz
  x,y,z

loop_
_atom_site_label
_atom_site_type_symbol
_atom_site_fract_x
_atom_site_fract_y
_atom_site_fract_z
_atom_site_charge
C 	C 	0.25660 0.47150 0.55300 -0.94100
H 	H 	0.20910 0.45170 0.51110 0.27500
H 	H 	0.25330 0.46080 0.60810 0.03400
H 	H 	0.24040 0.50770 0.54550 0.47900
Si	Si	0.38170 0.46070 0.54270 2.35200
C 	C 	0.40760 0.39370 0.55630 -1.10300
H 	H 	0.36420 0.37060 0.52070 0.37500
C 	C 	0.48760 0.37370 0.61600 0.50000
C 	C 	0.50570 0.31880 0.62960 -0.28200
C 	C 	0.58890 0.30270 0.68930 0.14500
H 	H 	0.63130 0.32800 0.72030 -0.06300
N 	N 	0.61330 0.25460 0.70600 -0.32200
C 	C 	0.55520 0.22010 0.65980 0.13300
H 	H 	0.57040 0.18520 0.67170 -0.07400
C 	C 	0.47720 0.23120 0.59780 -0.24200
H 	H 	0.44010 0.20490 0.56480 0.09800
C 	C 	0.45000 0.28260 0.58160 0.14700
H 	H 	0.39400 0.29160 0.53800 -0.03500
C 	C 	0.65850 0.50910 0.71810 -1.05700
H 	H 	0.71610 0.53140 0.72530 0.12300
H 	H 	0.63150 0.51240 0.76580 0.67900
H 	H 	0.67830 0.47380 0.71310 0.18300
Si	Si	0.56440 0.52740 0.62450 2.64100
C 	C 	0.53210 0.59400 0.62920 -1.17900
H 	H 	0.57890 0.61910 0.62420 0.40500
C 	C 	0.44230 0.60990 0.63960 0.47200
C 	C 	0.41580 0.66390 0.64610 -0.27000
C 	C 	0.34810 0.67500 0.69020 0.14500
H 	H 	0.31450 0.64740 0.70700 -0.07500
N 	N 	0.32690 0.72100 0.71050 -0.30300
C 	C 	0.36510 0.75920 0.68030 0.12400
H 	H 	0.35020 0.79270 0.69410 -0.04400
C 	C 	0.42490 0.75300 0.63010 -0.20400
H 	H 	0.44830 0.78170 0.60680 0.09600
C 	C 	0.45240 0.70310 0.61260 0.14300
H 	H 	0.49520 0.69770 0.57820 -0.02400
Si	Si	0.57700 0.47320 0.62090 0.23000
C 	C 	0.57200 0.40500 0.63700 -0.38500
H 	H 	0.63320 0.38860 0.66190 0.12900
Si	Si	0.37300 0.51850 0.54040 -0.05900
C 	C 	0.36800 0.58060 0.58600 -0.33200
H 	H 	0.30450 0.59620 0.57080 0.08800
C 	C 	0.26100 0.48400 0.54200 -0.74200
H 	H 	0.20430 0.49860 0.50120 0.06400
H 	H 	0.26830 0.44800 0.52730 0.16200
H 	H 	0.25050 0.48560 0.59680 0.34700
C 	C 	0.62000 0.50200 0.72400 -1.38300
H 	H 	0.69110 0.49540 0.74630 0.65200
H 	H 	0.60850 0.53870 0.71960 0.13200
H 	H 	0.58390 0.48710 0.76040 0.19400
O 	O 	0.46830 0.49190 0.61000 -1.31800
O 	O 	0.38390 0.48160 0.45050 -1.28900
Zn	Zn	0.73959 0.23359 0.78939 1.16700
I 	I 	0.83010 0.32520 0.87080 -0.50400
I 	I 	0.76220 0.16060 0.87020 -0.84300
I 	I 	0.80570 0.31220 0.88030 -0.08100
I 	I 	0.69960 0.14630 0.84860 0.07100
I 	I 	0.80240 0.30350 0.88000 0.19700
I 	I 	0.69820 0.14270 0.84180 0.17600
C 	C 	0.75660 0.97150 0.55300 -0.94200
H 	H 	0.70910 0.95170 0.51110 0.27500
H 	H 	0.75330 0.96080 0.60810 0.03500
H 	H 	0.74040 0.00770 0.54550 0.48000
Si	Si	0.88170 0.96070 0.54270 2.35300
C 	C 	0.90760 0.89370 0.55630 -1.10300
H 	H 	0.86420 0.87060 0.52070 0.37500
C 	C 	0.98760 0.87370 0.61600 0.50000
C 	C 	0.00570 0.81880 0.62960 -0.28300
C 	C 	0.08890 0.80270 0.68930 0.14600
H 	H 	0.13130 0.82800 0.72030 -0.06300
N 	N 	0.11330 0.75460 0.70600 -0.32200
C 	C 	0.05520 0.72010 0.65980 0.13200
H 	H 	0.07040 0.68520 0.67170 -0.07400
C 	C 	0.97720 0.73120 0.59780 -0.24200
H 	H 	0.94010 0.70490 0.56480 0.09800
C 	C 	0.95000 0.78260 0.58160 0.14700
H 	H 	0.89400 0.79160 0.53800 -0.03500
C 	C 	0.15850 0.00910 0.71810 -1.05300
H 	H 	0.21610 0.03140 0.72530 0.12200
H 	H 	0.13150 0.01240 0.76580 0.67800
H 	H 	0.17830 0.97380 0.71310 0.18300
Si	Si	0.06440 0.02740 0.62450 2.64700
C 	C 	0.03210 0.09400 0.62920 -1.18200
H 	H 	0.07890 0.11910 0.62420 0.40600
C 	C 	0.94230 0.10990 0.63960 0.47300
C 	C 	0.91580 0.16390 0.64610 -0.27000
C 	C 	0.84810 0.17500 0.69020 0.14500
H 	H 	0.81450 0.14740 0.70700 -0.07500
N 	N 	0.82690 0.22100 0.71050 -0.30300
C 	C 	0.86510 0.25920 0.68030 0.12400
H 	H 	0.85020 0.29270 0.69410 -0.04400
C 	C 	0.92490 0.25300 0.63010 -0.20400
H 	H 	0.94830 0.28170 0.60680 0.09600
C 	C 	0.95240 0.20310 0.61260 0.14300
H 	H 	0.99520 0.19770 0.57820 -0.02400
Si	Si	0.07700 0.97320 0.62090 0.22100
C 	C 	0.07200 0.90500 0.63700 -0.38300
H 	H 	0.13320 0.88860 0.66190 0.12800
Si	Si	0.87300 0.01850 0.54040 -0.05900
C 	C 	0.86800 0.08060 0.58600 -0.33200
H 	H 	0.80450 0.09620 0.57080 0.08800
C 	C 	0.76100 0.98400 0.54200 -0.74300
H 	H 	0.70430 0.99860 0.50120 0.06400
H 	H 	0.76830 0.94800 0.52730 0.16200
H 	H 	0.75050 0.98560 0.59680 0.34700
C 	C 	0.12000 0.00200 0.72400 -1.37700
H 	H 	0.19110 0.99540 0.74630 0.64700
H 	H 	0.10850 0.03870 0.71960 0.12900
H 	H 	0.08390 0.98710 0.76040 0.19200
O 	O 	0.96830 0.99190 0.61000 -1.31800
O 	O 	0.88390 0.98160 0.45050 -1.28900
Zn	Zn	0.23959 0.73359 0.78939 1.16700
I 	I 	0.33010 0.82520 0.87080 -0.50500
I 	I 	0.26220 0.66060 0.87020 -0.84500
I 	I 	0.30570 0.81220 0.88030 -0.08100
I 	I 	0.19960 0.64630 0.84860 0.07100
I 	I 	0.30240 0.80350 0.88000 0.19700
I 	I 	0.19820 0.64270 0.84180 0.17600
C 	C 	0.74340 0.52850 0.44700 -0.94100
H 	H 	0.79090 0.54830 0.48890 0.27500
H 	H 	0.74670 0.53920 0.39190 0.03400
H 	H 	0.75960 0.49230 0.45450 0.47900
Si	Si	0.61830 0.53930 0.45730 2.35200
C 	C 	0.59240 0.60630 0.44370 -1.10300
H 	H 	0.63580 0.62940 0.47930 0.37500
C 	C 	0.51240 0.62630 0.38400 0.50000
C 	C 	0.49430 0.68120 0.37040 -0.28200
C 	C 	0.41110 0.69730 0.31070 0.14500
H 	H 	0.36870 0.67200 0.27970 -0.06300
N 	N 	0.38670 0.74540 0.29400 -0.32200
C 	C 	0.44480 0.77990 0.34020 0.13300
H 	H 	0.42960 0.81480 0.32830 -0.07400
C 	C 	0.52280 0.76880 0.40220 -0.24200
H 	H 	0.55990 0.79510 0.43520 0.09800
C 	C 	0.55000 0.71740 0.41840 0.14700
H 	H 	0.60600 0.70840 0.46200 -0.03500
C 	C 	0.34150 0.49090 0.28190 -1.05700
H 	H 	0.28390 0.46860 0.27470 0.12300
H 	H 	0.36850 0.48760 0.23420 0.67900
H 	H 	0.32170 0.52620 0.28690 0.18300
Si	Si	0.43560 0.47260 0.37550 2.64100
C 	C 	0.46790 0.40600 0.37080 -1.17900
H 	H 	0.42110 0.38090 0.37580 0.40500
C 	C 	0.55770 0.39010 0.36040 0.47200
C 	C 	0.58420 0.33610 0.35390 -0.27000
C 	C 	0.65190 0.32500 0.30980 0.14500
H 	H 	0.68550 0.35260 0.29300 -0.07500
N 	N 	0.67310 0.27900 0.28950 -0.30300
C 	C 	0.63490 0.24080 0.31970 0.12400
H 	H 	0.64980 0.20730 0.30590 -0.04400
C 	C 	0.57510 0.24700 0.36990 -0.20400
H 	H 	0.55170 0.21830 0.39320 0.09600
C 	C 	0.54760 0.29690 0.38740 0.14300
H 	H 	0.50480 0.30230 0.42180 -0.02400
Si	Si	0.42300 0.52680 0.37910 0.23000
C 	C 	0.42800 0.59500 0.36300 -0.38500
H 	H 	0.36680 0.61140 0.33810 0.12900
Si	Si	0.62700 0.48150 0.45960 -0.05900
C 	C 	0.63200 0.41940 0.41400 -0.33200
H 	H 	0.69550 0.40380 0.42920 0.08800
C 	C 	0.73900 0.51600 0.45800 -0.74200
H 	H 	0.79570 0.50140 0.49880 0.06400
H 	H 	0.73170 0.55200 0.47270 0.16200
H 	H 	0.74950 0.51440 0.40320 0.34700
C 	C 	0.38000 0.49800 0.27600 -1.38300
H 	H 	0.30890 0.50460 0.25370 0.65200
H 	H 	0.39150 0.46130 0.28040 0.13200
H 	H 	0.41610 0.51290 0.23960 0.19400
O 	O 	0.53170 0.50810 0.39000 -1.31800
O 	O 	0.61610 0.51840 0.54950 -1.28900
Zn	Zn	0.26041 0.76641 0.21061 1.16700
I 	I 	0.16990 0.67480 0.12920 -0.50400
I 	I 	0.23780 0.83940 0.12980 -0.84300
I 	I 	0.19430 0.68780 0.11970 -0.08100
I 	I 	0.30040 0.85370 0.15140 0.07100
I 	I 	0.19760 0.69650 0.12000 0.19700
I 	I 	0.30180 0.85730 0.15820 0.17600
C 	C 	0.24340 0.02850 0.44700 -0.94200
H 	H 	0.29090 0.04830 0.48890 0.27500
H 	H 	0.24670 0.03920 0.39190 0.03500
H 	H 	0.25960 0.99230 0.45450 0.48000
Si	Si	0.11830 0.03930 0.45730 2.35300
C 	C 	0.09240 0.10630 0.44370 -1.10300
H 	H 	0.13580 0.12940 0.47930 0.37500
C 	C 	0.01240 0.12630 0.38400 0.50000
C 	C 	0.99430 0.18120 0.37040 -0.28300
C 	C 	0.91110 0.19730 0.31070 0.14600
H 	H 	0.86870 0.17200 0.27970 -0.06300
N 	N 	0.88670 0.24540 0.29400 -0.32200
C 	C 	0.94480 0.27990 0.34020 0.13200
H 	H 	0.92960 0.31480 0.32830 -0.07400
C 	C 	0.02280 0.26880 0.40220 -0.24200
H 	H 	0.05990 0.29510 0.43520 0.09800
C 	C 	0.05000 0.21740 0.41840 0.14700
H 	H 	0.10600 0.20840 0.46200 -0.03500
C 	C 	0.84150 0.99090 0.28190 -1.05300
H 	H 	0.78390 0.96860 0.27470 0.12200
H 	H 	0.86850 0.98760 0.23420 0.67800
H 	H 	0.82170 0.02620 0.28690 0.18300
Si	Si	0.93560 0.97260 0.37550 2.64700
C 	C 	0.96790 0.90600 0.37080 -1.18200
H 	H 	0.92110 0.88090 0.37580 0.40600
C 	C 	0.05770 0.89010 0.36040 0.47300
C 	C 	0.08420 0.83610 0.35390 -0.27000
C 	C 	0.15190 0.82500 0.30980 0.14500
H 	H 	0.18550 0.85260 0.29300 -0.07500
N 	N 	0.17310 0.77900 0.28950 -0.30300
C 	C 	0.13490 0.74080 0.31970 0.12400
H 	H 	0.14980 0.70730 0.30590 -0.04400
C 	C 	0.07510 0.74700 0.36990 -0.20400
H 	H 	0.05170 0.71830 0.39320 0.09600
C 	C 	0.04760 0.79690 0.38740 0.14300
H 	H 	0.00480 0.80230 0.42180 -0.02400
Si	Si	0.92300 0.02680 0.37910 0.22100
C 	C 	0.92800 0.09500 0.36300 -0.38300
H 	H 	0.86680 0.11140 0.33810 0.12800
Si	Si	0.12700 0.98150 0.45960 -0.05900
C 	C 	0.13200 0.91940 0.41400 -0.33200
H 	H 	0.19550 0.90380 0.42920 0.08800
C 	C 	0.23900 0.01600 0.45800 -0.74300
H 	H 	0.29570 0.00140 0.49880 0.06400
H 	H 	0.23170 0.05200 0.47270 0.16200
H 	H 	0.24950 0.01440 0.40320 0.34700
C 	C 	0.88000 0.99800 0.27600 -1.37700
H 	H 	0.80890 0.00460 0.25370 0.64700
H 	H 	0.89150 0.96130 0.28040 0.12900
H 	H 	0.91610 0.01290 0.23960 0.19200
O 	O 	0.03170 0.00810 0.39000 -1.31800
O 	O 	0.11610 0.01840 0.54950 -1.28900
Zn	Zn	0.76041 0.26641 0.21061 1.16700
I 	I 	0.66990 0.17480 0.12920 -0.50500
I 	I 	0.73780 0.33940 0.12980 -0.84500
I 	I 	0.69430 0.18780 0.11970 -0.08100
I 	I 	0.80040 0.35370 0.15140 0.07100
I 	I 	0.69760 0.19650 0.12000 0.19700
I 	I 	0.80180 0.35730 0.15820 0.17600
C 	C 	0.74340 0.47150 0.94700 -0.94200
H 	H 	0.79090 0.45170 0.98890 0.27500
H 	H 	0.74670 0.46080 0.89190 0.03400
H 	H 	0.75960 0.50770 0.95450 0.48000
Si	Si	0.61830 0.46070 0.95730 2.35400
C 	C 	0.59240 0.39370 0.94370 -1.10400
H 	H 	0.63580 0.37060 0.97930 0.37600
C 	C 	0.51240 0.37370 0.88400 0.50000
C 	C 	0.49430 0.31880 0.87040 -0.28200
C 	C 	0.41110 0.30270 0.81070 0.14600
H 	H 	0.36870 0.32800 0.77970 -0.06300
N 	N 	0.38670 0.25460 0.79400 -0.32200
C 	C 	0.44480 0.22010 0.84020 0.13300
H 	H 	0.42960 0.18520 0.82830 -0.07400
C 	C 	0.52280 0.23120 0.90220 -0.24200
H 	H 	0.55990 0.20490 0.93520 0.09900
C 	C 	0.55000 0.28260 0.91840 0.14700
H 	H 	0.60600 0.29160 0.96200 -0.03500
C 	C 	0.34150 0.50910 0.78190 -1.05700
H 	H 	0.28390 0.53140 0.77470 0.12300
H 	H 	0.36850 0.51240 0.73420 0.67900
H 	H 	0.32170 0.47380 0.78690 0.18300
Si	Si	0.43560 0.52740 0.87550 2.64100
C 	C 	0.46790 0.59400 0.87080 -1.17900
H 	H 	0.42110 0.61910 0.87580 0.40500
C 	C 	0.55770 0.60990 0.86040 0.47200
C 	C 	0.58420 0.66390 0.85390 -0.27000
C 	C 	0.65190 0.67500 0.80980 0.14500
H 	H 	0.68550 0.64740 0.79300 -0.07500
N 	N 	0.67310 0.72100 0.78950 -0.30300
C 	C 	0.63490 0.75920 0.81970 0.12400
H 	H 	0.64980 0.79270 0.80590 -0.04400
C 	C 	0.57510 0.75300 0.86990 -0.20400
H 	H 	0.55170 0.78170 0.89320 0.09600
C 	C 	0.54760 0.70310 0.88740 0.14300
H 	H 	0.50480 0.69770 0.92180 -0.02400
Si	Si	0.42300 0.47320 0.87910 0.23000
C 	C 	0.42800 0.40500 0.86300 -0.38600
H 	H 	0.36680 0.38860 0.83810 0.12900
Si	Si	0.62700 0.51850 0.95960 -0.05900
C 	C 	0.63200 0.58060 0.91400 -0.33200
H 	H 	0.69550 0.59620 0.92920 0.08800
C 	C 	0.73900 0.48400 0.95800 -0.74300
H 	H 	0.79570 0.49860 0.99880 0.06500
H 	H 	0.73170 0.44800 0.97270 0.16200
H 	H 	0.74950 0.48560 0.90320 0.34700
C 	C 	0.38000 0.50200 0.77600 -1.38300
H 	H 	0.30890 0.49540 0.75370 0.65200
H 	H 	0.39150 0.53870 0.78040 0.13200
H 	H 	0.41610 0.48710 0.73960 0.19400
O 	O 	0.53170 0.49190 0.89000 -1.31900
O 	O 	0.61610 0.48160 0.04950 -1.29000
Zn	Zn	0.26041 0.23359 0.71061 1.16700
I 	I 	0.16990 0.32520 0.62920 -0.50400
I 	I 	0.23780 0.16060 0.62980 -0.84500
I 	I 	0.19430 0.31220 0.61970 -0.08100
I 	I 	0.30040 0.14630 0.65140 0.07100
I 	I 	0.19760 0.30350 0.62000 0.19600
I 	I 	0.30180 0.14270 0.65820 0.17700
C 	C 	0.24340 0.97150 0.94700 -0.94800
H 	H 	0.29090 0.95170 0.98890 0.27500
H 	H 	0.24670 0.96080 0.89190 0.03600
H 	H 	0.25960 0.00770 0.95450 0.48400
Si	Si	0.11830 0.96070 0.95730 2.33300
C 	C 	0.09240 0.89370 0.94370 -1.09400
H 	H 	0.13580 0.87060 0.97930 0.37100
C 	C 	0.01240 0.87370 0.88400 0.49000
C 	C 	0.99430 0.81880 0.87040 -0.27600
C 	C 	0.91110 0.80270 0.81070 0.14300
H 	H 	0.86870 0.82800 0.77970 -0.06200
N 	N 	0.88670 0.75460 0.79400 -0.32100
C 	C 	0.94480 0.72010 0.84020 0.13300
H 	H 	0.92960 0.68520 0.82830 -0.07400
C 	C 	0.02280 0.73120 0.90220 -0.24200
H 	H 	0.05990 0.70490 0.93520 0.09800
C 	C 	0.05000 0.78260 0.91840 0.14200
H 	H 	0.10600 0.79160 0.96200 -0.03400
C 	C 	0.84150 0.00910 0.78190 -1.05200
H 	H 	0.78390 0.03140 0.77470 0.12200
H 	H 	0.86850 0.01240 0.73420 0.67800
H 	H 	0.82170 0.97380 0.78690 0.18400
Si	Si	0.93560 0.02740 0.87550 2.65600
C 	C 	0.96790 0.09400 0.87080 -1.18500
H 	H 	0.92110 0.11910 0.87580 0.40800
C 	C 	0.05770 0.10990 0.86040 0.47600
C 	C 	0.08420 0.16390 0.85390 -0.27200
C 	C 	0.15190 0.17500 0.80980 0.14600
H 	H 	0.18550 0.14740 0.79300 -0.07500
N 	N 	0.17310 0.22100 0.78950 -0.30300
C 	C 	0.13490 0.25920 0.81970 0.12500
H 	H 	0.14980 0.29270 0.80590 -0.04400
C 	C 	0.07510 0.25300 0.86990 -0.20500
H 	H 	0.05170 0.28170 0.89320 0.09600
C 	C 	0.04760 0.20310 0.88740 0.14400
H 	H 	0.00480 0.19770 0.92180 -0.02500
Si	Si	0.92300 0.97320 0.87910 0.21200
C 	C 	0.92800 0.90500 0.86300 -0.37500
H 	H 	0.86680 0.88860 0.83810 0.12600
Si	Si	0.12700 0.01850 0.95960 -0.04100
C 	C 	0.13200 0.08060 0.91400 -0.33900
H 	H 	0.19550 0.09620 0.92920 0.09000
C 	C 	0.23900 0.98400 0.95800 -0.74500
H 	H 	0.29570 0.99860 0.99880 0.06300
H 	H 	0.23170 0.94800 0.97270 0.16800
H 	H 	0.24950 0.98560 0.90320 0.34700
C 	C 	0.88000 0.00200 0.77600 -1.37800
H 	H 	0.80890 0.99540 0.75370 0.64700
H 	H 	0.89150 0.03870 0.78040 0.12800
H 	H 	0.91610 0.98710 0.73960 0.19200
O 	O 	0.03170 0.99190 0.89000 -1.31900
O 	O 	0.11610 0.98160 0.04950 -1.28700
Zn	Zn	0.76041 0.73359 0.71061 1.16700
I 	I 	0.66990 0.82520 0.62920 -0.50500
I 	I 	0.73780 0.66060 0.62980 -0.84500
I 	I 	0.69430 0.81220 0.61970 -0.08100
I 	I 	0.80040 0.64630 0.65140 0.07100
I 	I 	0.69760 0.80350 0.62000 0.19700
I 	I 	0.80180 0.64270 0.65820 0.17600
C 	C 	0.25660 0.52850 0.05300 -0.94200
H 	H 	0.20910 0.54830 0.01110 0.27500
H 	H 	0.25330 0.53920 0.10810 0.03400
H 	H 	0.24040 0.49230 0.04550 0.48000
Si	Si	0.38170 0.53930 0.04270 2.35400
C 	C 	0.40760 0.60630 0.05630 -1.10400
H 	H 	0.36420 0.62940 0.02070 0.37600
C 	C 	0.48760 0.62630 0.11600 0.50000
C 	C 	0.50570 0.68120 0.12960 -0.28200
C 	C 	0.58890 0.69730 0.18930 0.14600
H 	H 	0.63130 0.67200 0.22030 -0.06300
N 	N 	0.61330 0.74540 0.20600 -0.32200
C 	C 	0.55520 0.77990 0.15980 0.13300
H 	H 	0.57040 0.81480 0.17170 -0.07400
C 	C 	0.47720 0.76880 0.09780 -0.24200
H 	H 	0.44010 0.79510 0.06480 0.09900
C 	C 	0.45000 0.71740 0.08160 0.14700
H 	H 	0.39400 0.70840 0.03800 -0.03500
C 	C 	0.65850 0.49090 0.21810 -1.05700
H 	H 	0.71610 0.46860 0.22530 0.12300
H 	H 	0.63150 0.48760 0.26580 0.67900
H 	H 	0.67830 0.52620 0.21310 0.18300
Si	Si	0.56440 0.47260 0.12450 2.64100
C 	C 	0.53210 0.40600 0.12920 -1.17900
H 	H 	0.57890 0.38090 0.12420 0.40500
C 	C 	0.44230 0.39010 0.13960 0.47200
C 	C 	0.41580 0.33610 0.14610 -0.27000
C 	C 	0.34810 0.32500 0.19020 0.14500
H 	H 	0.31450 0.35260 0.20700 -0.07500
N 	N 	0.32690 0.27900 0.21050 -0.30300
C 	C 	0.36510 0.24080 0.18030 0.12400
H 	H 	0.35020 0.20730 0.19410 -0.04400
C 	C 	0.42490 0.24700 0.13010 -0.20400
H 	H 	0.44830 0.21830 0.10680 0.09600
C 	C 	0.45240 0.29690 0.11260 0.14300
H 	H 	0.49520 0.30230 0.07820 -0.02400
Si	Si	0.57700 0.52680 0.12090 0.23000
C 	C 	0.57200 0.59500 0.13700 -0.38600
H 	H 	0.63320 0.61140 0.16190 0.12900
Si	Si	0.37300 0.48150 0.04040 -0.05900
C 	C 	0.36800 0.41940 0.08600 -0.33200
H 	H 	0.30450 0.40380 0.07080 0.08800
C 	C 	0.26100 0.51600 0.04200 -0.74300
H 	H 	0.20430 0.50140 0.00120 0.06500
H 	H 	0.26830 0.55200 0.02730 0.16200
H 	H 	0.25050 0.51440 0.09680 0.34700
C 	C 	0.62000 0.49800 0.22400 -1.38300
H 	H 	0.69110 0.50460 0.24630 0.65200
H 	H 	0.60850 0.46130 0.21960 0.13200
H 	H 	0.58390 0.51290 0.26040 0.19400
O 	O 	0.46830 0.50810 0.11000 -1.31900
O 	O 	0.38390 0.51840 0.95050 -1.29000
Zn	Zn	0.73959 0.76641 0.28939 1.16700
I 	I 	0.83010 0.67480 0.37080 -0.50400
I 	I 	0.76220 0.83940 0.37020 -0.84500
I 	I 	0.80570 0.68780 0.38030 -0.08100
I 	I 	0.69960 0.85370 0.34860 0.07100
I 	I 	0.80240 0.69650 0.38000 0.19600
I 	I 	0.69820 0.85730 0.34180 0.17700
C 	C 	0.75660 0.02850 0.05300 -0.94800
H 	H 	0.70910 0.04830 0.01110 0.27500
H 	H 	0.75330 0.03920 0.10810 0.03600
H 	H 	0.74040 0.99230 0.04550 0.48400
Si	Si	0.88170 0.03930 0.04270 2.33300
C 	C 	0.90760 0.10630 0.05630 -1.09400
H 	H 	0.86420 0.12940 0.02070 0.37100
C 	C 	0.98760 0.12630 0.11600 0.49000
C 	C 	0.00570 0.18120 0.12960 -0.27600
C 	C 	0.08890 0.19730 0.18930 0.14300
H 	H 	0.13130 0.17200 0.22030 -0.06200
N 	N 	0.11330 0.24540 0.20600 -0.32100
C 	C 	0.05520 0.27990 0.15980 0.13300
H 	H 	0.07040 0.31480 0.17170 -0.07400
C 	C 	0.97720 0.26880 0.09780 -0.24200
H 	H 	0.94010 0.29510 0.06480 0.09800
C 	C 	0.95000 0.21740 0.08160 0.14200
H 	H 	0.89400 0.20840 0.03800 -0.03400
C 	C 	0.15850 0.99090 0.21810 -1.05200
H 	H 	0.21610 0.96860 0.22530 0.12200
H 	H 	0.13150 0.98760 0.26580 0.67800
H 	H 	0.17830 0.02620 0.21310 0.18400
Si	Si	0.06440 0.97260 0.12450 2.65600
C 	C 	0.03210 0.90600 0.12920 -1.18500
H 	H 	0.07890 0.88090 0.12420 0.40800
C 	C 	0.94230 0.89010 0.13960 0.47600
C 	C 	0.91580 0.83610 0.14610 -0.27200
C 	C 	0.84810 0.82500 0.19020 0.14600
H 	H 	0.81450 0.85260 0.20700 -0.07500
N 	N 	0.82690 0.77900 0.21050 -0.30300
C 	C 	0.86510 0.74080 0.18030 0.12500
H 	H 	0.85020 0.70730 0.19410 -0.04400
C 	C 	0.92490 0.74700 0.13010 -0.20500
H 	H 	0.94830 0.71830 0.10680 0.09600
C 	C 	0.95240 0.79690 0.11260 0.14400
H 	H 	0.99520 0.80230 0.07820 -0.02500
Si	Si	0.07700 0.02680 0.12090 0.21200
C 	C 	0.07200 0.09500 0.13700 -0.37500
H 	H 	0.13320 0.11140 0.16190 0.12600
Si	Si	0.87300 0.98150 0.04040 -0.04100
C 	C 	0.86800 0.91940 0.08600 -0.33900
H 	H 	0.80450 0.90380 0.07080 0.09000
C 	C 	0.76100 0.01600 0.04200 -0.74500
H 	H 	0.70430 0.00140 0.00120 0.06300
H 	H 	0.76830 0.05200 0.02730 0.16800
H 	H 	0.75050 0.01440 0.09680 0.34700
C 	C 	0.12000 0.99800 0.22400 -1.37800
H 	H 	0.19110 0.00460 0.24630 0.64700
H 	H 	0.10850 0.96130 0.21960 0.12800
H 	H 	0.08390 0.01290 0.26040 0.19200
O 	O 	0.96830 0.00810 0.11000 -1.31900
O 	O 	0.88390 0.01840 0.95050 -1.28700
Zn	Zn	0.23959 0.26641 0.28939 1.16700
I 	I 	0.33010 0.17480 0.37080 -0.50500
I 	I 	0.26220 0.33940 0.37020 -0.84500
I 	I 	0.30570 0.18780 0.38030 -0.08100
I 	I 	0.19960 0.35370 0.34860 0.07100
I 	I 	0.30240 0.19650 0.38000 0.19700
I 	I 	0.19820 0.35730 0.34180 0.17600
