data_crystal

_cell_length_a 12.63800
_cell_length_b 23.85300
_cell_length_c 16.77200
_cell_angle_alpha 90.00000
_cell_angle_beta  95.94000
_cell_angle_gamma 90.00000

_symmetry_space_group_name_	'P 1'
_symmetry_space_group_name_H-M	'P 1'

loop_
_symmetry_equiv_pos_as_xyz
  x,y,z

loop_
_atom_site_label
_atom_site_type_symbol
_atom_site_fract_x
_atom_site_fract_y
_atom_site_fract_z
_atom_site_charge
Ru	Ru	0.48986 0.46171 0.77804 0.95000
N 	N 	0.41260 0.53680 0.74880 -0.21000
N 	N 	0.61430 0.51670 0.78800 -0.21300
N 	N 	0.47380 0.47070 0.89770 -0.21100
N 	N 	0.57980 0.39430 0.82350 -0.20700
N 	N 	0.36270 0.40790 0.75550 -0.20800
N 	N 	0.49610 0.44760 0.65730 -0.20800
N 	N 	0.92850 0.60640 0.63450 -0.13700
N 	N 	0.12110 0.47970 0.82800 -0.13700
C 	C 	0.25950 0.59380 0.71480 -0.05800
C 	C 	0.98570 0.56380 0.61320 0.08700
H 	H 	0.95130 0.53570 0.57970 0.00900
C 	C 	0.97690 0.64500 0.68110 0.08600
H 	H 	0.93570 0.67580 0.69600 0.00100
C 	C 	0.32130 0.64070 0.72930 0.00300
H 	H 	0.28920 0.67670 0.72480 0.02400
C 	C 	0.08300 0.64390 0.70990 -0.15200
H 	H 	0.11360 0.67290 0.74360 0.07700
C 	C 	0.09300 0.55780 0.63710 -0.14400
H 	H 	0.13140 0.52670 0.61960 0.08300
C 	C 	0.14450 0.59870 0.68800 0.09900
C 	C 	0.30770 0.54290 0.72660 0.04300
H 	H 	0.26520 0.51010 0.71880 0.01300
C 	C 	0.43070 0.63620 0.75050 -0.09200
H 	H 	0.47400 0.66870 0.75920 0.05700
C 	C 	0.47430 0.58290 0.75840 0.05200
C 	C 	0.58730 0.57220 0.77710 0.04100
C 	C 	0.66650 0.61380 0.78060 -0.08700
H 	H 	0.64790 0.65230 0.77500 0.05500
C 	C 	0.77220 0.59750 0.79210 0.00100
H 	H 	0.82630 0.62520 0.79320 0.02900
C 	C 	0.71680 0.50290 0.80000 0.04000
H 	H 	0.73460 0.46440 0.80760 0.00700
C 	C 	0.80060 0.54230 0.80220 -0.05700
C 	C 	0.91180 0.52140 0.81110 0.10200
C 	C 	0.99190 0.54890 0.85520 -0.15100
H 	H 	0.97800 0.58320 0.88110 0.08200
C 	C 	0.09510 0.52650 0.86230 0.08500
H 	H 	0.14950 0.54640 0.89390 0.00600
C 	C 	0.04210 0.45330 0.78300 0.07700
H 	H 	0.05880 0.41960 0.75680 0.01000
C 	C 	0.93810 0.47200 0.77240 -0.14600
H 	H 	0.88550 0.45180 0.73950 0.07700
C 	C 	0.41900 0.50810 0.93500 0.05200
H 	H 	0.38100 0.53650 0.90420 0.00600
C 	C 	0.41500 0.50720 0.01700 -0.08100
H 	H 	0.37290 0.53420 0.04090 0.05200
C 	C 	0.46920 0.46920 0.06300 -0.03500
H 	H 	0.46660 0.46990 0.11940 0.03600
C 	C 	0.52970 0.42850 0.02900 0.00400
C 	C 	0.52850 0.43150 0.94510 0.02400
C 	C 	0.59520 0.38830 0.07240 -0.05300
H 	H 	0.60160 0.38870 0.12940 0.04300
C 	C 	0.64800 0.34990 0.03400 -0.05400
H 	H 	0.68790 0.32220 0.06470 0.04500
C 	C 	0.58650 0.39070 0.90460 0.02500
C 	C 	0.64710 0.34890 0.94960 0.00800
C 	C 	0.70210 0.31050 0.90590 -0.03800
H 	H 	0.74470 0.28210 0.93260 0.04200
C 	C 	0.69340 0.31460 0.82490 -0.07500
H 	H 	0.73110 0.28870 0.79530 0.05900
C 	C 	0.63090 0.35550 0.78360 0.04400
H 	H 	0.62420 0.35600 0.72670 0.00600
C 	C 	0.30460 0.38220 0.80730 0.05000
H 	H 	0.32050 0.38900 0.86300 0.01100
C 	C 	0.22060 0.34530 0.78170 -0.07600
H 	H 	0.18300 0.32660 0.82010 0.05900
C 	C 	0.19350 0.33650 0.70280 -0.03400
H 	H 	0.13440 0.31330 0.68560 0.04100
C 	C 	0.25320 0.36180 0.64590 0.00700
C 	C 	0.33940 0.39580 0.67610 0.02500
C 	C 	0.40990 0.41760 0.62240 0.02100
C 	C 	0.39200 0.40700 0.53940 0.00600
C 	C 	0.29810 0.37560 0.51010 -0.05500
H 	H 	0.28240 0.36950 0.45410 0.04400
C 	C 	0.23240 0.35480 0.56140 -0.05300
H 	H 	0.17050 0.33490 0.54050 0.04500
C 	C 	0.46930 0.42790 0.49220 -0.03800
H 	H 	0.46220 0.42150 0.43600 0.03900
C 	C 	0.55400 0.45730 0.52720 -0.07700
H 	H 	0.60540 0.47160 0.49510 0.05200
C 	C 	0.56600 0.46660 0.60920 0.04700
H 	H 	0.62590 0.48730 0.63200 0.00800
Ru	Ru	0.05298 0.13454 0.71825 0.94700
N 	N 	0.96300 0.16210 0.61540 -0.20700
N 	N 	0.16600 0.17620 0.66010 -0.21300
N 	N 	0.02900 0.20250 0.79140 -0.20900
N 	N 	0.14770 0.11160 0.82110 -0.20900
N 	N 	0.93310 0.08710 0.75810 -0.21100
N 	N 	0.07460 0.06020 0.65660 -0.21000
N 	N 	0.47330 0.13680 0.46180 -0.13300
N 	N 	0.67790 0.20030 0.71630 -0.14400
C 	C 	0.64110 0.11120 0.53210 -0.14400
H 	H 	0.68060 0.08500 0.56600 0.08300
C 	C 	0.53460 0.10300 0.50980 0.08600
H 	H 	0.50230 0.07080 0.53010 0.01000
C 	C 	0.52140 0.18290 0.43480 0.08100
H 	H 	0.48010 0.20780 0.40000 0.00400
C 	C 	0.62570 0.19530 0.45500 -0.14900
H 	H 	0.65460 0.22890 0.43590 0.07600
C 	C 	0.69060 0.15920 0.50350 0.09800
C 	C 	0.80410 0.16950 0.52350 -0.05400
C 	C 	0.85840 0.15410 0.59720 0.04000
H 	H 	0.81920 0.13710 0.63610 0.01400
C 	C 	0.86350 0.19890 0.46920 -0.00200
H 	H 	0.82910 0.21260 0.42000 0.02800
C 	C 	0.96960 0.20730 0.48800 -0.08200
H 	H 	0.00960 0.22620 0.45120 0.05300
C 	C 	0.01980 0.18840 0.56090 0.04000
C 	C 	0.13300 0.19330 0.58460 0.04900
C 	C 	0.20380 0.21460 0.53360 -0.09300
H 	H 	0.17870 0.22650 0.48100 0.05900
C 	C 	0.31060 0.21820 0.56040 0.00800
H 	H 	0.35980 0.23160 0.52570 0.02900
C 	C 	0.34610 0.20220 0.63890 -0.06300
C 	C 	0.26950 0.18110 0.68700 0.04100
H 	H 	0.29210 0.16990 0.74040 0.00500
C 	C 	0.45840 0.20440 0.66910 0.11600
C 	C 	0.52780 0.23900 0.63240 -0.15100
H 	H 	0.50250 0.26440 0.59120 0.08300
C 	C 	0.63740 0.23480 0.65920 0.08100
H 	H 	0.68530 0.25830 0.63450 0.00600
C 	C 	0.60910 0.16960 0.75050 0.09700
H 	H 	0.63520 0.14480 0.79240 0.00100
C 	C 	0.50110 0.17140 0.72860 -0.16900
H 	H 	0.45550 0.14860 0.75640 0.08600
C 	C 	0.97220 0.24820 0.77430 0.04700
H 	H 	0.93810 0.25270 0.72150 0.00400
C 	C 	0.96020 0.29040 0.83130 -0.07700
H 	H 	0.92100 0.32330 0.81600 0.05300
C 	C 	0.00500 0.28410 0.90910 -0.04300
H 	H 	0.99490 0.31170 0.94850 0.04400
C 	C 	0.06660 0.23550 0.92910 0.00800
C 	C 	0.07750 0.19570 0.86750 0.02000
C 	C 	0.13970 0.14720 0.88350 0.02600
C 	C 	0.19330 0.13870 0.96080 0.00600
C 	C 	0.17930 0.17910 0.02230 -0.05400
H 	H 	0.21520 0.17380 0.07440 0.04500
C 	C 	0.11610 0.22460 0.00780 -0.05600
H 	H 	0.10470 0.24940 0.05040 0.04500
C 	C 	0.25700 0.08990 0.97170 -0.03800
H 	H 	0.29210 0.08120 0.02310 0.04700
C 	C 	0.26760 0.05530 0.90790 -0.07600
H 	H 	0.31340 0.02360 0.91390 0.05800
C 	C 	0.21000 0.06690 0.83310 0.04700
H 	H 	0.21600 0.04190 0.78970 0.00500
C 	C 	0.86540 0.10020 0.81080 0.05800
H 	H 	0.87090 0.13610 0.83540 0.00600
C 	C 	0.78530 0.06300 0.83180 -0.09400
H 	H 	0.74030 0.07360 0.87130 0.05800
C 	C 	0.77300 0.01260 0.79570 -0.00200
H 	H 	0.71610 0.98860 0.80640 0.02300
C 	C 	0.84650 0.99580 0.74110 -0.01900
C 	C 	0.92500 0.03420 0.72380 0.03400
C 	C 	0.99830 0.02060 0.67050 0.02700
C 	C 	0.99750 0.96760 0.63390 -0.00200
C 	C 	0.91550 0.92840 0.65300 -0.05700
H 	H 	0.91280 0.89210 0.62960 0.04400
C 	C 	0.84400 0.94260 0.70270 -0.04400
H 	H 	0.79010 0.91660 0.71270 0.03900
C 	C 	0.07480 0.95600 0.58260 -0.02800
H 	H 	0.07660 0.92050 0.55710 0.03500
C 	C 	0.14770 0.99610 0.56930 -0.09600
H 	H 	0.20000 0.98890 0.53380 0.05600
C 	C 	0.14550 0.04850 0.60830 0.06700
H 	H 	0.19740 0.07590 0.59900 0.00300
Ru	Ru	0.51014 0.96171 0.22196 0.94800
N 	N 	0.58740 0.03680 0.25120 -0.20700
N 	N 	0.38570 0.01670 0.21200 -0.21300
N 	N 	0.52620 0.97070 0.10230 -0.21400
N 	N 	0.42020 0.89430 0.17650 -0.20800
N 	N 	0.63730 0.90790 0.24450 -0.20800
N 	N 	0.50390 0.94760 0.34270 -0.20900
N 	N 	0.07150 0.10640 0.36550 -0.13700
N 	N 	0.87890 0.97970 0.17200 -0.14400
C 	C 	0.74050 0.09380 0.28520 -0.05700
C 	C 	0.01430 0.06380 0.38680 0.08700
H 	H 	0.04870 0.03570 0.42030 0.01100
C 	C 	0.02310 0.14500 0.31890 0.08600
H 	H 	0.06430 0.17580 0.30400 0.00200
C 	C 	0.67870 0.14070 0.27070 0.00300
H 	H 	0.71080 0.17670 0.27520 0.02500
C 	C 	0.91700 0.14390 0.29010 -0.15200
H 	H 	0.88640 0.17290 0.25640 0.07700
C 	C 	0.90700 0.05780 0.36290 -0.14400
H 	H 	0.86860 0.02670 0.38040 0.08400
C 	C 	0.85550 0.09870 0.31200 0.09900
C 	C 	0.69230 0.04290 0.27340 0.04300
H 	H 	0.73480 0.01010 0.28120 0.01500
C 	C 	0.56930 0.13620 0.24950 -0.09200
H 	H 	0.52600 0.16870 0.24080 0.05700
C 	C 	0.52570 0.08290 0.24160 0.05200
C 	C 	0.41270 0.07220 0.22290 0.04400
C 	C 	0.33350 0.11380 0.21940 -0.09100
H 	H 	0.35210 0.15230 0.22500 0.05700
C 	C 	0.22780 0.09750 0.20790 0.00800
H 	H 	0.17370 0.12520 0.20680 0.02700
C 	C 	0.28320 0.00290 0.20000 0.05600
H 	H 	0.26540 0.96440 0.19240 -0.00200
C 	C 	0.19940 0.04230 0.19780 -0.06700
C 	C 	0.08820 0.02140 0.18890 0.11800
C 	C 	0.00810 0.04890 0.14480 -0.16200
H 	H 	0.02200 0.08320 0.11890 0.08600
C 	C 	0.90490 0.02650 0.13770 0.09800
H 	H 	0.85050 0.04640 0.10610 0.00200
C 	C 	0.95790 0.95330 0.21700 0.08000
H 	H 	0.94120 0.91960 0.24320 0.00800
C 	C 	0.06190 0.97200 0.22760 -0.16000
H 	H 	0.11450 0.95180 0.26050 0.08000
C 	C 	0.58100 0.00810 0.06500 0.05500
H 	H 	0.61900 0.03650 0.09580 0.00600
C 	C 	0.58500 0.00720 0.98300 -0.06900
H 	H 	0.62710 0.03420 0.95910 0.04900
C 	C 	0.53080 0.96920 0.93700 -0.04900
H 	H 	0.53340 0.96990 0.88060 0.04000
C 	C 	0.47030 0.92850 0.97100 0.00800
C 	C 	0.47150 0.93150 0.05490 0.02100
C 	C 	0.40480 0.88830 0.92760 -0.05700
H 	H 	0.39840 0.88870 0.87060 0.04400
C 	C 	0.35200 0.84990 0.96600 -0.05300
H 	H 	0.31210 0.82220 0.93530 0.04400
C 	C 	0.41350 0.89070 0.09540 0.02600
C 	C 	0.35290 0.84890 0.05040 0.00700
C 	C 	0.29790 0.81050 0.09410 -0.03700
H 	H 	0.25530 0.78210 0.06740 0.04200
C 	C 	0.30660 0.81460 0.17510 -0.07500
H 	H 	0.26890 0.78870 0.20470 0.05900
C 	C 	0.36910 0.85550 0.21640 0.04400
H 	H 	0.37580 0.85600 0.27330 0.00600
C 	C 	0.69540 0.88220 0.19270 0.05000
H 	H 	0.67950 0.88900 0.13700 0.01000
C 	C 	0.77940 0.84530 0.21830 -0.07600
H 	H 	0.81700 0.82660 0.17990 0.05900
C 	C 	0.80650 0.83650 0.29720 -0.03400
H 	H 	0.86560 0.81330 0.31440 0.04100
C 	C 	0.74680 0.86180 0.35410 0.00600
C 	C 	0.66060 0.89580 0.32390 0.02400
C 	C 	0.59010 0.91760 0.37760 0.02000
C 	C 	0.60800 0.90700 0.46060 0.00600
C 	C 	0.70190 0.87560 0.48990 -0.05600
H 	H 	0.71760 0.86950 0.54590 0.04300
C 	C 	0.76760 0.85480 0.43860 -0.05300
H 	H 	0.82950 0.83490 0.45950 0.04500
C 	C 	0.53070 0.92790 0.50780 -0.03900
H 	H 	0.53780 0.92150 0.56400 0.03800
C 	C 	0.44600 0.95730 0.47280 -0.07800
H 	H 	0.39460 0.97160 0.50490 0.05000
C 	C 	0.43400 0.96660 0.39080 0.04600
H 	H 	0.37410 0.98730 0.36800 0.00600
Ru	Ru	0.94702 0.63454 0.28175 0.94700
N 	N 	0.03700 0.66210 0.38460 -0.20700
N 	N 	0.83400 0.67620 0.33990 -0.21300
N 	N 	0.97100 0.70250 0.20860 -0.20900
N 	N 	0.85230 0.61160 0.17890 -0.20900
N 	N 	0.06690 0.58710 0.24190 -0.20700
N 	N 	0.92540 0.56020 0.34340 -0.20700
N 	N 	0.52670 0.63680 0.53820 -0.13300
N 	N 	0.32210 0.70030 0.28370 -0.14400
C 	C 	0.35890 0.61120 0.46790 -0.14400
H 	H 	0.31940 0.58500 0.43400 0.08200
C 	C 	0.46540 0.60300 0.49020 0.08500
H 	H 	0.49770 0.57080 0.46990 0.00900
C 	C 	0.47860 0.68290 0.56520 0.08000
H 	H 	0.51990 0.70780 0.60000 0.00400
C 	C 	0.37430 0.69530 0.54500 -0.14900
H 	H 	0.34540 0.72890 0.56410 0.07600
C 	C 	0.30940 0.65920 0.49650 0.09800
C 	C 	0.19590 0.66950 0.47650 -0.05400
C 	C 	0.14160 0.65410 0.40280 0.04000
H 	H 	0.18080 0.63710 0.36390 0.01400
C 	C 	0.13650 0.69890 0.53080 -0.00300
H 	H 	0.17090 0.71260 0.58000 0.02800
C 	C 	0.03040 0.70730 0.51200 -0.08000
H 	H 	0.99040 0.72620 0.54880 0.05300
C 	C 	0.98020 0.68840 0.43910 0.03900
C 	C 	0.86700 0.69330 0.41540 0.04900
C 	C 	0.79620 0.71460 0.46640 -0.09300
H 	H 	0.82130 0.72650 0.51900 0.05900
C 	C 	0.68940 0.71820 0.43960 0.00800
H 	H 	0.64020 0.73160 0.47430 0.02900
C 	C 	0.65390 0.70220 0.36110 -0.06300
C 	C 	0.73050 0.68110 0.31300 0.04100
H 	H 	0.70790 0.66990 0.25960 0.00500
C 	C 	0.54160 0.70440 0.33090 0.11600
C 	C 	0.47220 0.73900 0.36760 -0.15100
H 	H 	0.49750 0.76440 0.40880 0.08300
C 	C 	0.36260 0.73480 0.34080 0.08100
H 	H 	0.31470 0.75830 0.36550 0.00600
C 	C 	0.39090 0.66960 0.24950 0.09600
H 	H 	0.36480 0.64480 0.20760 0.00000
C 	C 	0.49890 0.67140 0.27140 -0.16900
H 	H 	0.54450 0.64860 0.24360 0.08500
C 	C 	0.02780 0.74820 0.22570 0.04700
H 	H 	0.06190 0.75270 0.27850 0.00400
C 	C 	0.03980 0.79040 0.16870 -0.07600
H 	H 	0.07900 0.82330 0.18400 0.05300
C 	C 	0.99500 0.78410 0.09090 -0.04600
H 	H 	0.00510 0.81170 0.05150 0.04500
C 	C 	0.93340 0.73550 0.07090 0.01000
C 	C 	0.92250 0.69570 0.13250 0.01900
C 	C 	0.86030 0.64720 0.11650 0.02600
C 	C 	0.80670 0.63870 0.03920 0.00600
C 	C 	0.82070 0.67910 0.97770 -0.05400
H 	H 	0.78480 0.67380 0.92560 0.04500
C 	C 	0.88390 0.72460 0.99220 -0.05700
H 	H 	0.89530 0.74940 0.94960 0.04500
C 	C 	0.74300 0.58990 0.02830 -0.03800
H 	H 	0.70790 0.58120 0.97690 0.04600
C 	C 	0.73240 0.55530 0.09210 -0.07700
H 	H 	0.68660 0.52360 0.08610 0.05600
C 	C 	0.79000 0.56690 0.16690 0.04700
H 	H 	0.78400 0.54190 0.21030 0.00400
C 	C 	0.13460 0.60020 0.18920 0.04700
H 	H 	0.12910 0.63610 0.16460 0.00900
C 	C 	0.21470 0.56300 0.16820 -0.07300
H 	H 	0.25970 0.57360 0.12870 0.05000
C 	C 	0.22700 0.51260 0.20430 -0.03900
H 	H 	0.28390 0.48860 0.19360 0.03900
C 	C 	0.15350 0.49580 0.25890 0.00800
C 	C 	0.07500 0.53420 0.27620 0.02100
C 	C 	0.00170 0.52060 0.32950 0.02200
C 	C 	0.00250 0.46760 0.36610 0.00700
C 	C 	0.08450 0.42840 0.34700 -0.05300
H 	H 	0.08720 0.39210 0.37040 0.04300
C 	C 	0.15600 0.44260 0.29730 -0.05500
H 	H 	0.20990 0.41660 0.28730 0.04400
C 	C 	0.92520 0.45600 0.41740 -0.03700
H 	H 	0.92340 0.42050 0.44290 0.03900
C 	C 	0.85230 0.49610 0.43070 -0.08000
H 	H 	0.80000 0.48890 0.46620 0.05300
C 	C 	0.85450 0.54850 0.39170 0.05400
H 	H 	0.80260 0.57590 0.40100 0.00600
