data_crystal

_cell_length_a 46.45180
_cell_length_b 16.15740
_cell_length_c 22.00110
_cell_angle_alpha 90.00000
_cell_angle_beta  97.90300
_cell_angle_gamma 90.00000

_symmetry_space_group_name_	'P 1'
_symmetry_space_group_name_H-M	'P 1'

loop_
_symmetry_equiv_pos_as_xyz
  x,y,z

loop_
_atom_site_label
_atom_site_type_symbol
_atom_site_fract_x
_atom_site_fract_y
_atom_site_fract_z
_atom_site_charge
W 	W 	0.58122 0.69800 0.36624 1.01400
W 	W 	0.61460 0.90109 0.59874 1.01900
W 	W 	0.66971 0.90229 0.41071 1.00400
W 	W 	0.67329 0.52562 0.41140 0.98800
W 	W 	0.59160 0.89789 0.44819 1.01600
W 	W 	0.70855 0.71592 0.64747 0.97900
W 	W 	0.63066 0.70594 0.68401 1.02100
W 	W 	0.62136 0.52454 0.61012 1.03300
W 	W 	0.66033 0.70239 0.33239 0.96500
W 	W 	0.59503 0.52134 0.44416 1.01800
W 	W 	0.69240 0.90948 0.56283 0.96400
W 	W 	0.69970 0.53274 0.57513 0.98500
W 	W 	0.54445 0.57806 0.55347 0.90000
W 	W 	0.55390 0.76251 0.62878 0.99600
W 	W 	0.53038 0.75882 0.47520 1.01600
P 	P 	0.60245 0.70670 0.52670 0.54900
P 	P 	0.68827 0.71530 0.48840 0.55400
Mn	Mn	0.73451 0.65446 0.39229 1.25600
Mn	Mn	0.75758 0.66220 0.53918 1.29300
O 	O 	0.52860 0.65100 0.48580 -0.46600
O 	O 	0.52980 0.80110 0.55690 -0.47600
O 	O 	0.55060 0.65310 0.62860 -0.44100
O 	O 	0.61080 0.80000 0.52100 -0.31300
O 	O 	0.68780 0.67190 0.55070 -0.34300
O 	O 	0.67780 0.51030 0.49710 -0.45400
O 	O 	0.54690 0.70950 0.41200 -0.43100
O 	O 	0.65460 0.81250 0.36340 -0.45500
O 	O 	0.62930 0.81610 0.65240 -0.46900
O 	O 	0.67710 0.80470 0.49020 -0.34400
O 	O 	0.66990 0.66560 0.43770 -0.34300
O 	O 	0.71100 0.59810 0.64830 -0.46100
O 	O 	0.61340 0.50340 0.52550 -0.47300
O 	O 	0.57540 0.57930 0.37480 -0.44500
O 	O 	0.58790 0.80820 0.39190 -0.47100
O 	O 	0.55980 0.54390 0.48360 -0.42800
O 	O 	0.62460 0.58750 0.68440 -0.44800
O 	O 	0.74020 0.73080 0.61140 -0.64800
O 	O 	0.58040 0.54810 0.60340 -0.42200
O 	O 	0.69340 0.82050 0.62170 -0.47100
O 	O 	0.62170 0.66460 0.58080 -0.31600
O 	O 	0.60370 0.66300 0.46630 -0.32100
O 	O 	0.55460 0.85260 0.47070 -0.44000
O 	O 	0.57010 0.70400 0.54150 -0.34700
O 	O 	0.59620 0.95180 0.52590 -0.46900
O 	O 	0.69860 0.71040 0.33880 -0.55300
O 	O 	0.70620 0.88280 0.40290 -0.53300
O 	O 	0.58820 0.71670 0.67110 -0.43000
O 	O 	0.66020 0.58300 0.33580 -0.45400
O 	O 	0.68110 0.96360 0.48590 -0.45800
O 	O 	0.71080 0.54570 0.40710 -0.54600
O 	O 	0.65070 0.91230 0.57390 -0.43700
O 	O 	0.57690 0.85400 0.60990 -0.44500
O 	O 	0.73240 0.55610 0.54520 -0.52600
O 	O 	0.72790 0.88070 0.54500 -0.65000
O 	O 	0.65980 0.53390 0.60410 -0.43700
O 	O 	0.61710 0.68640 0.34710 -0.43300
O 	O 	0.62950 0.90810 0.43890 -0.43800
O 	O 	0.62970 0.53180 0.41780 -0.43300
O 	O 	0.66740 0.69570 0.67030 -0.44200
O 	O 	0.71990 0.71680 0.47560 -0.64400
W 	W 	0.91878 0.80200 0.63376 1.01300
W 	W 	0.88540 0.59891 0.40126 1.01800
W 	W 	0.83029 0.59771 0.58929 1.00300
W 	W 	0.82671 0.97438 0.58860 0.98700
W 	W 	0.90840 0.60211 0.55181 1.01500
W 	W 	0.79145 0.78408 0.35253 0.97700
W 	W 	0.86934 0.79406 0.31599 1.02000
W 	W 	0.87864 0.97546 0.38988 1.03200
W 	W 	0.83967 0.79761 0.66761 0.96500
W 	W 	0.90497 0.97866 0.55584 1.01700
W 	W 	0.80760 0.59052 0.43717 0.96300
W 	W 	0.80030 0.96726 0.42487 0.98400
W 	W 	0.95555 0.92194 0.44653 0.89900
W 	W 	0.94610 0.73749 0.37122 0.99500
W 	W 	0.96962 0.74118 0.52480 1.01500
P 	P 	0.89755 0.79330 0.47330 0.54800
P 	P 	0.81173 0.78470 0.51160 0.55400
Mn	Mn	0.76549 0.84554 0.60771 1.25600
Mn	Mn	0.74242 0.83780 0.46082 1.29300
O 	O 	0.97140 0.84900 0.51420 -0.46600
O 	O 	0.97020 0.69890 0.44310 -0.47600
O 	O 	0.94940 0.84690 0.37140 -0.44100
O 	O 	0.88920 0.70000 0.47900 -0.31300
O 	O 	0.81220 0.82810 0.44930 -0.34300
O 	O 	0.82220 0.98970 0.50290 -0.45400
O 	O 	0.95310 0.79050 0.58800 -0.43100
O 	O 	0.84540 0.68750 0.63660 -0.45500
O 	O 	0.87070 0.68390 0.34760 -0.46900
O 	O 	0.82290 0.69530 0.50980 -0.34400
O 	O 	0.83010 0.83440 0.56230 -0.34300
O 	O 	0.78900 0.90190 0.35170 -0.46100
O 	O 	0.88660 0.99660 0.47450 -0.47300
O 	O 	0.92460 0.92070 0.62520 -0.44500
O 	O 	0.91210 0.69180 0.60810 -0.47100
O 	O 	0.94020 0.95610 0.51640 -0.42800
O 	O 	0.87540 0.91250 0.31560 -0.44800
O 	O 	0.75980 0.76920 0.38860 -0.64800
O 	O 	0.91960 0.95190 0.39660 -0.42200
O 	O 	0.80660 0.67950 0.37830 -0.47100
O 	O 	0.87830 0.83540 0.41920 -0.31600
O 	O 	0.89630 0.83700 0.53370 -0.32100
O 	O 	0.94540 0.64740 0.52930 -0.44000
O 	O 	0.92990 0.79600 0.45850 -0.34700
O 	O 	0.90380 0.54820 0.47410 -0.46900
O 	O 	0.80140 0.78960 0.66120 -0.55300
O 	O 	0.79380 0.61720 0.59710 -0.53300
O 	O 	0.91180 0.78330 0.32890 -0.43000
O 	O 	0.83980 0.91700 0.66420 -0.45400
O 	O 	0.81890 0.53640 0.51410 -0.45800
O 	O 	0.78920 0.95430 0.59290 -0.54600
O 	O 	0.84930 0.58770 0.42610 -0.43700
O 	O 	0.92310 0.64600 0.39010 -0.44500
O 	O 	0.76760 0.94390 0.45480 -0.52600
O 	O 	0.77210 0.61930 0.45500 -0.65000
O 	O 	0.84020 0.96610 0.39590 -0.43700
O 	O 	0.88290 0.81360 0.65290 -0.43300
O 	O 	0.87050 0.59190 0.56110 -0.43800
O 	O 	0.87030 0.96820 0.58220 -0.43300
O 	O 	0.83260 0.80430 0.32970 -0.44200
O 	O 	0.78010 0.78320 0.52440 -0.64400
W 	W 	0.08122 0.19800 0.36624 1.01300
W 	W 	0.11460 0.40109 0.59874 1.01800
W 	W 	0.16971 0.40229 0.41071 1.00300
W 	W 	0.17329 0.02562 0.41140 0.98700
W 	W 	0.09160 0.39789 0.44819 1.01500
W 	W 	0.20855 0.21592 0.64747 0.97700
W 	W 	0.13066 0.20594 0.68401 1.02000
W 	W 	0.12136 0.02454 0.61012 1.03200
W 	W 	0.16033 0.20239 0.33239 0.96500
W 	W 	0.09503 0.02134 0.44416 1.01700
W 	W 	0.19240 0.40948 0.56283 0.96300
W 	W 	0.19970 0.03274 0.57513 0.98400
W 	W 	0.04445 0.07806 0.55347 0.89900
W 	W 	0.05390 0.26251 0.62878 0.99500
W 	W 	0.03038 0.25882 0.47520 1.01500
P 	P 	0.10245 0.20670 0.52670 0.54800
P 	P 	0.18827 0.21530 0.48840 0.55400
Mn	Mn	0.23451 0.15446 0.39229 1.25600
Mn	Mn	0.25758 0.16220 0.53918 1.29300
O 	O 	0.02860 0.15100 0.48580 -0.46600
O 	O 	0.02980 0.30110 0.55690 -0.47600
O 	O 	0.05060 0.15310 0.62860 -0.44100
O 	O 	0.11080 0.30000 0.52100 -0.31300
O 	O 	0.18780 0.17190 0.55070 -0.34300
O 	O 	0.17780 0.01030 0.49710 -0.45400
O 	O 	0.04690 0.20950 0.41200 -0.43100
O 	O 	0.15460 0.31250 0.36340 -0.45500
O 	O 	0.12930 0.31610 0.65240 -0.46900
O 	O 	0.17710 0.30470 0.49020 -0.34400
O 	O 	0.16990 0.16560 0.43770 -0.34300
O 	O 	0.21100 0.09810 0.64830 -0.46100
O 	O 	0.11340 0.00340 0.52550 -0.47300
O 	O 	0.07540 0.07930 0.37480 -0.44500
O 	O 	0.08790 0.30820 0.39190 -0.47100
O 	O 	0.05980 0.04390 0.48360 -0.42800
O 	O 	0.12460 0.08750 0.68440 -0.44800
O 	O 	0.24020 0.23080 0.61140 -0.64800
O 	O 	0.08040 0.04810 0.60340 -0.42200
O 	O 	0.19340 0.32050 0.62170 -0.47100
O 	O 	0.12170 0.16460 0.58080 -0.31600
O 	O 	0.10370 0.16300 0.46630 -0.32100
O 	O 	0.05460 0.35260 0.47070 -0.44000
O 	O 	0.07010 0.20400 0.54150 -0.34700
O 	O 	0.09620 0.45180 0.52590 -0.46900
O 	O 	0.19860 0.21040 0.33880 -0.55300
O 	O 	0.20620 0.38280 0.40290 -0.53300
O 	O 	0.08820 0.21670 0.67110 -0.43000
O 	O 	0.16020 0.08300 0.33580 -0.45400
O 	O 	0.18110 0.46360 0.48590 -0.45800
O 	O 	0.21080 0.04570 0.40710 -0.54600
O 	O 	0.15070 0.41230 0.57390 -0.43700
O 	O 	0.07690 0.35400 0.60990 -0.44500
O 	O 	0.23240 0.05610 0.54520 -0.52600
O 	O 	0.22790 0.38070 0.54500 -0.65000
O 	O 	0.15980 0.03390 0.60410 -0.43700
O 	O 	0.11710 0.18640 0.34710 -0.43300
O 	O 	0.12950 0.40810 0.43890 -0.43800
O 	O 	0.12970 0.03180 0.41780 -0.43300
O 	O 	0.16740 0.19570 0.67030 -0.44200
O 	O 	0.21990 0.21680 0.47560 -0.64400
W 	W 	0.41878 0.30200 0.63376 1.01300
W 	W 	0.38540 0.09891 0.40126 1.01800
W 	W 	0.33029 0.09771 0.58929 1.00300
W 	W 	0.32671 0.47438 0.58860 0.98700
W 	W 	0.40840 0.10211 0.55181 1.01500
W 	W 	0.29145 0.28408 0.35253 0.97800
W 	W 	0.36934 0.29406 0.31599 1.02000
W 	W 	0.37864 0.47546 0.38988 1.03200
W 	W 	0.33967 0.29761 0.66761 0.96400
W 	W 	0.40497 0.47866 0.55584 1.01700
W 	W 	0.30760 0.09052 0.43717 0.96300
W 	W 	0.30030 0.46726 0.42487 0.98400
W 	W 	0.45555 0.42194 0.44653 0.89900
W 	W 	0.44610 0.23749 0.37122 0.99500
W 	W 	0.46962 0.24118 0.52480 1.01500
P 	P 	0.39755 0.29330 0.47330 0.54800
P 	P 	0.31173 0.28470 0.51160 0.55400
Mn	Mn	0.26549 0.34554 0.60771 1.25600
Mn	Mn	0.24242 0.33780 0.46082 1.29300
O 	O 	0.47140 0.34900 0.51420 -0.46600
O 	O 	0.47020 0.19890 0.44310 -0.47600
O 	O 	0.44940 0.34690 0.37140 -0.44100
O 	O 	0.38920 0.20000 0.47900 -0.31300
O 	O 	0.31220 0.32810 0.44930 -0.34300
O 	O 	0.32220 0.48970 0.50290 -0.45400
O 	O 	0.45310 0.29050 0.58800 -0.43100
O 	O 	0.34540 0.18750 0.63660 -0.45500
O 	O 	0.37070 0.18390 0.34760 -0.46900
O 	O 	0.32290 0.19530 0.50980 -0.34400
O 	O 	0.33010 0.33440 0.56230 -0.34300
O 	O 	0.28900 0.40190 0.35170 -0.46100
O 	O 	0.38660 0.49660 0.47450 -0.47300
O 	O 	0.42460 0.42070 0.62520 -0.44500
O 	O 	0.41210 0.19180 0.60810 -0.47100
O 	O 	0.44020 0.45610 0.51640 -0.42800
O 	O 	0.37540 0.41250 0.31560 -0.44800
O 	O 	0.25980 0.26920 0.38860 -0.64800
O 	O 	0.41960 0.45190 0.39660 -0.42200
O 	O 	0.30660 0.17950 0.37830 -0.47100
O 	O 	0.37830 0.33540 0.41920 -0.31600
O 	O 	0.39630 0.33700 0.53370 -0.32100
O 	O 	0.44540 0.14740 0.52930 -0.44000
O 	O 	0.42990 0.29600 0.45850 -0.34700
O 	O 	0.40380 0.04820 0.47410 -0.46900
O 	O 	0.30140 0.28960 0.66120 -0.55300
O 	O 	0.29380 0.11720 0.59710 -0.53300
O 	O 	0.41180 0.28330 0.32890 -0.43000
O 	O 	0.33980 0.41700 0.66420 -0.45400
O 	O 	0.31890 0.03640 0.51410 -0.45800
O 	O 	0.28920 0.45430 0.59290 -0.54600
O 	O 	0.34930 0.08770 0.42610 -0.43700
O 	O 	0.42310 0.14600 0.39010 -0.44500
O 	O 	0.26760 0.44390 0.45480 -0.52600
O 	O 	0.27210 0.11930 0.45500 -0.65000
O 	O 	0.34020 0.46610 0.39590 -0.43700
O 	O 	0.38290 0.31360 0.65290 -0.43300
O 	O 	0.37050 0.09190 0.56110 -0.43800
O 	O 	0.37030 0.46820 0.58220 -0.43300
O 	O 	0.33260 0.30430 0.32970 -0.44200
O 	O 	0.28010 0.28320 0.52440 -0.64400
W 	W 	0.41878 0.69800 0.13376 1.01300
W 	W 	0.38540 0.90109 0.90126 1.01800
W 	W 	0.33029 0.90229 0.08929 1.00300
W 	W 	0.32671 0.52562 0.08860 0.98700
W 	W 	0.40840 0.89789 0.05181 1.01400
W 	W 	0.29145 0.71592 0.85253 0.97800
W 	W 	0.36934 0.70594 0.81599 1.02000
W 	W 	0.37864 0.52454 0.88988 1.03200
W 	W 	0.33967 0.70239 0.16761 0.96400
W 	W 	0.40497 0.52134 0.05584 1.01700
W 	W 	0.30760 0.90948 0.93717 0.96400
W 	W 	0.30030 0.53274 0.92487 0.98400
W 	W 	0.45555 0.57806 0.94653 0.89800
W 	W 	0.44610 0.76251 0.87122 0.99500
W 	W 	0.46962 0.75882 0.02480 1.01400
P 	P 	0.39755 0.70670 0.97330 0.54800
P 	P 	0.31173 0.71530 0.01160 0.55400
Mn	Mn	0.26549 0.65446 0.10771 1.25600
Mn	Mn	0.24242 0.66220 0.96082 1.29300
O 	O 	0.47140 0.65100 0.01420 -0.46600
O 	O 	0.47020 0.80110 0.94310 -0.47600
O 	O 	0.44940 0.65310 0.87140 -0.44100
O 	O 	0.38920 0.80000 0.97900 -0.31300
O 	O 	0.31220 0.67190 0.94930 -0.34300
O 	O 	0.32220 0.51030 0.00290 -0.45400
O 	O 	0.45310 0.70950 0.08800 -0.43100
O 	O 	0.34540 0.81250 0.13660 -0.45500
O 	O 	0.37070 0.81610 0.84760 -0.46900
O 	O 	0.32290 0.80470 0.00980 -0.34500
O 	O 	0.33010 0.66560 0.06230 -0.34300
O 	O 	0.28900 0.59810 0.85170 -0.46100
O 	O 	0.38660 0.50340 0.97450 -0.47300
O 	O 	0.42460 0.57930 0.12520 -0.44500
O 	O 	0.41210 0.80820 0.10810 -0.47100
O 	O 	0.44020 0.54390 0.01640 -0.42800
O 	O 	0.37540 0.58750 0.81560 -0.44800
O 	O 	0.25980 0.73080 0.88860 -0.64800
O 	O 	0.41960 0.54810 0.89660 -0.42200
O 	O 	0.30660 0.82050 0.87830 -0.47100
O 	O 	0.37830 0.66460 0.91920 -0.31600
O 	O 	0.39630 0.66300 0.03370 -0.32100
O 	O 	0.44540 0.85260 0.02930 -0.44000
O 	O 	0.42990 0.70400 0.95850 -0.34700
O 	O 	0.40380 0.95180 0.97410 -0.46900
O 	O 	0.30140 0.71040 0.16120 -0.55300
O 	O 	0.29380 0.88280 0.09710 -0.53300
O 	O 	0.41180 0.71670 0.82890 -0.43000
O 	O 	0.33980 0.58300 0.16420 -0.45400
O 	O 	0.31890 0.96360 0.01410 -0.45900
O 	O 	0.28920 0.54570 0.09290 -0.54600
O 	O 	0.34930 0.91230 0.92610 -0.43700
O 	O 	0.42310 0.85400 0.89010 -0.44500
O 	O 	0.26760 0.55610 0.95480 -0.52600
O 	O 	0.27210 0.88070 0.95500 -0.65000
O 	O 	0.34020 0.53390 0.89590 -0.43700
O 	O 	0.38290 0.68640 0.15290 -0.43300
O 	O 	0.37050 0.90810 0.06110 -0.43800
O 	O 	0.37030 0.53180 0.08220 -0.43300
O 	O 	0.33260 0.69570 0.82970 -0.44200
O 	O 	0.28010 0.71680 0.02440 -0.64400
W 	W 	0.08122 0.80200 0.86624 1.01300
W 	W 	0.11460 0.59891 0.09874 1.01800
W 	W 	0.16971 0.59771 0.91071 1.00300
W 	W 	0.17329 0.97438 0.91140 0.98700
W 	W 	0.09160 0.60211 0.94819 1.01500
W 	W 	0.20855 0.78408 0.14747 0.97800
W 	W 	0.13066 0.79406 0.18401 1.02000
W 	W 	0.12136 0.97546 0.11012 1.03200
W 	W 	0.16033 0.79761 0.83239 0.96400
W 	W 	0.09503 0.97866 0.94416 1.01800
W 	W 	0.19240 0.59052 0.06283 0.96300
W 	W 	0.19970 0.96726 0.07513 0.98300
W 	W 	0.04445 0.92194 0.05347 0.89700
W 	W 	0.05390 0.73749 0.12878 0.99500
W 	W 	0.03038 0.74118 0.97520 1.01500
P 	P 	0.10245 0.79330 0.02670 0.54700
P 	P 	0.18827 0.78470 0.98840 0.55400
Mn	Mn	0.23451 0.84554 0.89229 1.25600
Mn	Mn	0.25758 0.83780 0.03918 1.29200
O 	O 	0.02860 0.84900 0.98580 -0.46600
O 	O 	0.02980 0.69890 0.05690 -0.47600
O 	O 	0.05060 0.84690 0.12860 -0.44100
O 	O 	0.11080 0.70000 0.02100 -0.31300
O 	O 	0.18780 0.82810 0.05070 -0.34300
O 	O 	0.17780 0.98970 0.99710 -0.45300
O 	O 	0.04690 0.79050 0.91200 -0.43100
O 	O 	0.15460 0.68750 0.86340 -0.45500
O 	O 	0.12930 0.68390 0.15240 -0.46900
O 	O 	0.17710 0.69530 0.99020 -0.34400
O 	O 	0.16990 0.83440 0.93770 -0.34300
O 	O 	0.21100 0.90190 0.14830 -0.46100
O 	O 	0.11340 0.99660 0.02550 -0.47400
O 	O 	0.07540 0.92070 0.87480 -0.44500
O 	O 	0.08790 0.69180 0.89190 -0.47100
O 	O 	0.05980 0.95610 0.98360 -0.42700
O 	O 	0.12460 0.91250 0.18440 -0.44800
O 	O 	0.24020 0.76920 0.11140 -0.64800
O 	O 	0.08040 0.95190 0.10340 -0.42200
O 	O 	0.19340 0.67950 0.12170 -0.47100
O 	O 	0.12170 0.83540 0.08080 -0.31600
O 	O 	0.10370 0.83700 0.96630 -0.32100
O 	O 	0.05460 0.64740 0.97070 -0.44000
O 	O 	0.07010 0.79600 0.04150 -0.34700
O 	O 	0.09620 0.54820 0.02590 -0.47000
O 	O 	0.19860 0.78960 0.83880 -0.55300
O 	O 	0.20620 0.61720 0.90290 -0.53300
O 	O 	0.08820 0.78330 0.17110 -0.43000
O 	O 	0.16020 0.91700 0.83580 -0.45400
O 	O 	0.18110 0.53640 0.98590 -0.45800
O 	O 	0.21080 0.95430 0.90710 -0.54600
O 	O 	0.15070 0.58770 0.07390 -0.43700
O 	O 	0.07690 0.64600 0.10990 -0.44500
O 	O 	0.23240 0.94390 0.04520 -0.52600
O 	O 	0.22790 0.61930 0.04500 -0.65000
O 	O 	0.15980 0.96610 0.10410 -0.43700
O 	O 	0.11710 0.81360 0.84710 -0.43300
O 	O 	0.12950 0.59190 0.93890 -0.43800
O 	O 	0.12970 0.96820 0.91780 -0.43300
O 	O 	0.16740 0.80430 0.17030 -0.44200
O 	O 	0.21990 0.78320 0.97560 -0.64400
W 	W 	0.91878 0.19800 0.13376 1.01300
W 	W 	0.88540 0.40109 0.90126 1.01800
W 	W 	0.83029 0.40229 0.08929 1.00300
W 	W 	0.82671 0.02562 0.08860 0.98700
W 	W 	0.90840 0.39789 0.05181 1.01500
W 	W 	0.79145 0.21592 0.85253 0.97800
W 	W 	0.86934 0.20594 0.81599 1.02000
W 	W 	0.87864 0.02454 0.88988 1.03200
W 	W 	0.83967 0.20239 0.16761 0.96400
W 	W 	0.90497 0.02134 0.05584 1.01800
W 	W 	0.80760 0.40948 0.93717 0.96300
W 	W 	0.80030 0.03274 0.92487 0.98300
W 	W 	0.95555 0.07806 0.94653 0.89700
W 	W 	0.94610 0.26251 0.87122 0.99500
W 	W 	0.96962 0.25882 0.02480 1.01500
P 	P 	0.89755 0.20670 0.97330 0.54700
P 	P 	0.81173 0.21530 0.01160 0.55400
Mn	Mn	0.76549 0.15446 0.10771 1.25600
Mn	Mn	0.74242 0.16220 0.96082 1.29200
O 	O 	0.97140 0.15100 0.01420 -0.46600
O 	O 	0.97020 0.30110 0.94310 -0.47600
O 	O 	0.94940 0.15310 0.87140 -0.44100
O 	O 	0.88920 0.30000 0.97900 -0.31300
O 	O 	0.81220 0.17190 0.94930 -0.34300
O 	O 	0.82220 0.01030 0.00290 -0.45300
O 	O 	0.95310 0.20950 0.08800 -0.43100
O 	O 	0.84540 0.31250 0.13660 -0.45500
O 	O 	0.87070 0.31610 0.84760 -0.46900
O 	O 	0.82290 0.30470 0.00980 -0.34400
O 	O 	0.83010 0.16560 0.06230 -0.34300
O 	O 	0.78900 0.09810 0.85170 -0.46100
O 	O 	0.88660 0.00340 0.97450 -0.47400
O 	O 	0.92460 0.07930 0.12520 -0.44500
O 	O 	0.91210 0.30820 0.10810 -0.47100
O 	O 	0.94020 0.04390 0.01640 -0.42700
O 	O 	0.87540 0.08750 0.81560 -0.44800
O 	O 	0.75980 0.23080 0.88860 -0.64800
O 	O 	0.91960 0.04810 0.89660 -0.42200
O 	O 	0.80660 0.32050 0.87830 -0.47100
O 	O 	0.87830 0.16460 0.91920 -0.31600
O 	O 	0.89630 0.16300 0.03370 -0.32100
O 	O 	0.94540 0.35260 0.02930 -0.44000
O 	O 	0.92990 0.20400 0.95850 -0.34700
O 	O 	0.90380 0.45180 0.97410 -0.47000
O 	O 	0.80140 0.21040 0.16120 -0.55300
O 	O 	0.79380 0.38280 0.09710 -0.53300
O 	O 	0.91180 0.21670 0.82890 -0.43000
O 	O 	0.83980 0.08300 0.16420 -0.45400
O 	O 	0.81890 0.46360 0.01410 -0.45800
O 	O 	0.78920 0.04570 0.09290 -0.54600
O 	O 	0.84930 0.41230 0.92610 -0.43700
O 	O 	0.92310 0.35400 0.89010 -0.44500
O 	O 	0.76760 0.05610 0.95480 -0.52600
O 	O 	0.77210 0.38070 0.95500 -0.65000
O 	O 	0.84020 0.03390 0.89590 -0.43700
O 	O 	0.88290 0.18640 0.15290 -0.43300
O 	O 	0.87050 0.40810 0.06110 -0.43800
O 	O 	0.87030 0.03180 0.08220 -0.43300
O 	O 	0.83260 0.19570 0.82970 -0.44200
O 	O 	0.78010 0.21680 0.02440 -0.64400
W 	W 	0.58122 0.30200 0.86624 1.01300
W 	W 	0.61460 0.09891 0.09874 1.01800
W 	W 	0.66971 0.09771 0.91071 1.00300
W 	W 	0.67329 0.47438 0.91140 0.98700
W 	W 	0.59160 0.10211 0.94819 1.01400
W 	W 	0.70855 0.28408 0.14747 0.97800
W 	W 	0.63066 0.29406 0.18401 1.02000
W 	W 	0.62136 0.47546 0.11012 1.03200
W 	W 	0.66033 0.29761 0.83239 0.96400
W 	W 	0.59503 0.47866 0.94416 1.01700
W 	W 	0.69240 0.09052 0.06283 0.96400
W 	W 	0.69970 0.46726 0.07513 0.98400
W 	W 	0.54445 0.42194 0.05347 0.89800
W 	W 	0.55390 0.23749 0.12878 0.99500
W 	W 	0.53038 0.24118 0.97520 1.01400
P 	P 	0.60245 0.29330 0.02670 0.54800
P 	P 	0.68827 0.28470 0.98840 0.55400
Mn	Mn	0.73451 0.34554 0.89229 1.25600
Mn	Mn	0.75758 0.33780 0.03918 1.29300
O 	O 	0.52860 0.34900 0.98580 -0.46600
O 	O 	0.52980 0.19890 0.05690 -0.47600
O 	O 	0.55060 0.34690 0.12860 -0.44100
O 	O 	0.61080 0.20000 0.02100 -0.31300
O 	O 	0.68780 0.32810 0.05070 -0.34300
O 	O 	0.67780 0.48970 0.99710 -0.45400
O 	O 	0.54690 0.29050 0.91200 -0.43100
O 	O 	0.65460 0.18750 0.86340 -0.45500
O 	O 	0.62930 0.18390 0.15240 -0.46900
O 	O 	0.67710 0.19530 0.99020 -0.34500
O 	O 	0.66990 0.33440 0.93770 -0.34300
O 	O 	0.71100 0.40190 0.14830 -0.46100
O 	O 	0.61340 0.49660 0.02550 -0.47300
O 	O 	0.57540 0.42070 0.87480 -0.44500
O 	O 	0.58790 0.19180 0.89190 -0.47100
O 	O 	0.55980 0.45610 0.98360 -0.42800
O 	O 	0.62460 0.41250 0.18440 -0.44800
O 	O 	0.74020 0.26920 0.11140 -0.64800
O 	O 	0.58040 0.45190 0.10340 -0.42200
O 	O 	0.69340 0.17950 0.12170 -0.47100
O 	O 	0.62170 0.33540 0.08080 -0.31600
O 	O 	0.60370 0.33700 0.96630 -0.32100
O 	O 	0.55460 0.14740 0.97070 -0.44000
O 	O 	0.57010 0.29600 0.04150 -0.34700
O 	O 	0.59620 0.04820 0.02590 -0.46900
O 	O 	0.69860 0.28960 0.83880 -0.55300
O 	O 	0.70620 0.11720 0.90290 -0.53300
O 	O 	0.58820 0.28330 0.17110 -0.43000
O 	O 	0.66020 0.41700 0.83580 -0.45400
O 	O 	0.68110 0.03640 0.98590 -0.45900
O 	O 	0.71080 0.45430 0.90710 -0.54600
O 	O 	0.65070 0.08770 0.07390 -0.43700
O 	O 	0.57690 0.14600 0.10990 -0.44500
O 	O 	0.73240 0.44390 0.04520 -0.52600
O 	O 	0.72790 0.11930 0.04500 -0.65000
O 	O 	0.65980 0.46610 0.10410 -0.43700
O 	O 	0.61710 0.31360 0.84710 -0.43300
O 	O 	0.62950 0.09190 0.93890 -0.43800
O 	O 	0.62970 0.46820 0.91780 -0.43300
O 	O 	0.66740 0.30430 0.17030 -0.44200
O 	O 	0.71990 0.28320 0.97560 -0.64400
