data_crystal

_cell_length_a 9.92400
_cell_length_b 11.94300
_cell_length_c 12.99000
_cell_angle_alpha 83.38000
_cell_angle_beta  78.43000
_cell_angle_gamma 84.24000

_symmetry_space_group_name_	'P 1'
_symmetry_space_group_name_H-M	'P 1'

loop_
_symmetry_equiv_pos_as_xyz
  x,y,z

loop_
_atom_site_label
_atom_site_type_symbol
_atom_site_fract_x
_atom_site_fract_y
_atom_site_fract_z
_atom_site_charge
Ru	Ru	0.11965 0.99195 0.98512 0.90500
Cl	Cl	0.99050 0.20910 0.33350 -0.37300
Cl	Cl	0.96940 0.33910 0.78150 -0.38200
O 	O 	0.12460 0.04060 0.82360 -0.37100
O 	O 	0.89140 0.05620 0.85200 -0.37000
O 	O 	0.25720 0.11620 0.63880 -0.17200
O 	O 	0.11920 0.82490 0.94870 -0.36000
O 	O 	0.88190 0.83930 0.98010 -0.36600
O 	O 	0.23930 0.62050 0.92200 -0.19000
N 	N 	0.36890 0.98120 0.97080 -0.16100
C 	C 	0.01160 0.06210 0.79330 0.37900
C 	C 	0.00820 0.09970 0.67690 -0.14600
C 	C 	0.13300 0.12270 0.59870 0.25500
C 	C 	0.38400 0.14600 0.56390 -0.17200
C 	C 	0.12000 0.15660 0.49600 -0.31100
C 	C 	0.99500 0.16680 0.46870 0.32300
C 	C 	0.87300 0.14510 0.53650 -0.25800
C 	C 	0.87870 0.11090 0.64090 0.14600
C 	C 	0.00220 0.78630 0.94960 0.34800
C 	C 	0.00190 0.67220 0.91100 -0.19500
C 	C 	0.11610 0.59570 0.89310 0.29700
C 	C 	0.36400 0.53620 0.90300 -0.16900
C 	C 	0.10800 0.48880 0.84900 -0.51000
C 	C 	0.97800 0.47150 0.82950 0.37400
C 	C 	0.86700 0.54480 0.84120 -0.27200
C 	C 	0.87750 0.65120 0.88580 0.11200
C 	C 	0.44070 0.07860 0.92870 0.06000
C 	C 	0.56680 0.09480 0.95950 0.06600
C 	C 	0.63010 0.19940 0.92000 -0.08000
C 	C 	0.57410 0.27580 0.85000 -0.01500
C 	C 	0.45370 0.25540 0.81250 -0.02300
C 	C 	0.38550 0.16040 0.85400 -0.08200
H 	H 	0.46181 0.13836 0.60133 0.09400
H 	H 	0.40364 0.09584 0.50752 0.08800
H 	H 	0.37187 0.22472 0.53339 0.09200
H 	H 	0.19976 0.17298 0.44410 0.16200
H 	H 	0.78788 0.15343 0.51251 0.14200
H 	H 	0.79639 0.09449 0.68950 0.01300
H 	H 	0.44123 0.56404 0.92656 0.08900
H 	H 	0.34176 0.46336 0.94277 0.08100
H 	H 	0.38964 0.52647 0.82757 0.08500
H 	H 	0.17594 0.48639 0.78203 0.19900
H 	H 	0.13543 0.42532 0.89864 0.19400
H 	H 	0.78385 0.52921 0.82175 0.14500
H 	H 	0.85292 0.71444 0.83483 0.04800
H 	H 	0.80602 0.65472 0.95075 0.01000
H 	H 	0.71090 0.21514 0.94274 0.09400
H 	H 	0.61656 0.34432 0.82565 0.04900
H 	H 	0.42103 0.30667 0.75976 0.04200
H 	H 	0.30184 0.14873 0.83336 0.08800
Ru	Ru	0.88035 0.00805 0.01488 0.90400
Cl	Cl	0.00950 0.79090 0.66650 -0.37400
Cl	Cl	0.03060 0.66090 0.21850 -0.38300
O 	O 	0.87540 0.95940 0.17640 -0.37200
O 	O 	0.10860 0.94380 0.14800 -0.37000
O 	O 	0.74280 0.88380 0.36120 -0.17200
O 	O 	0.88080 0.17510 0.05130 -0.36000
O 	O 	0.11810 0.16070 0.01990 -0.36600
O 	O 	0.76070 0.37950 0.07800 -0.19000
N 	N 	0.63110 0.01880 0.02920 -0.16100
C 	C 	0.98840 0.93790 0.20670 0.37900
C 	C 	0.99180 0.90030 0.32310 -0.14600
C 	C 	0.86700 0.87730 0.40130 0.25500
C 	C 	0.61600 0.85400 0.43610 -0.17200
C 	C 	0.88000 0.84340 0.50400 -0.31100
C 	C 	0.00500 0.83320 0.53130 0.32300
C 	C 	0.12700 0.85490 0.46350 -0.25800
C 	C 	0.12130 0.88910 0.35910 0.14600
C 	C 	0.99780 0.21370 0.05040 0.34800
C 	C 	0.99810 0.32780 0.08900 -0.19500
C 	C 	0.88390 0.40430 0.10690 0.29700
C 	C 	0.63600 0.46380 0.09700 -0.16900
C 	C 	0.89200 0.51120 0.15100 -0.51000
C 	C 	0.02200 0.52850 0.17050 0.37400
C 	C 	0.13300 0.45520 0.15880 -0.27200
C 	C 	0.12250 0.34880 0.11420 0.11200
C 	C 	0.55930 0.92140 0.07130 0.06000
C 	C 	0.43320 0.90520 0.04050 0.06600
C 	C 	0.36990 0.80060 0.08000 -0.08000
C 	C 	0.42590 0.72420 0.15000 -0.01500
C 	C 	0.54630 0.74460 0.18750 -0.02300
C 	C 	0.61450 0.83960 0.14600 -0.08200
H 	H 	0.53819 0.86164 0.39867 0.09400
H 	H 	0.59636 0.90416 0.49248 0.08800
H 	H 	0.62813 0.77528 0.46661 0.09200
H 	H 	0.80024 0.82702 0.55590 0.16200
H 	H 	0.21212 0.84657 0.48749 0.14200
H 	H 	0.20361 0.90551 0.31050 0.01300
H 	H 	0.55877 0.43596 0.07344 0.08900
H 	H 	0.65824 0.53664 0.05723 0.08100
H 	H 	0.61036 0.47353 0.17243 0.08500
H 	H 	0.82406 0.51361 0.21797 0.19900
H 	H 	0.86457 0.57468 0.10136 0.19400
H 	H 	0.21615 0.47079 0.17825 0.14500
H 	H 	0.14708 0.28556 0.16517 0.04800
H 	H 	0.19398 0.34528 0.04925 0.01000
H 	H 	0.28910 0.78486 0.05726 0.09400
H 	H 	0.38344 0.65568 0.17435 0.04900
H 	H 	0.57897 0.69333 0.24024 0.04200
H 	H 	0.69816 0.85127 0.16664 0.08800
