data_crystal

_cell_length_a 13.32430
_cell_length_b 12.64040
_cell_length_c 28.09800
_cell_angle_alpha 90.00000
_cell_angle_beta  101.44800
_cell_angle_gamma 90.00000

_symmetry_space_group_name_	'P 1'
_symmetry_space_group_name_H-M	'P 1'

loop_
_symmetry_equiv_pos_as_xyz
  x,y,z

loop_
_atom_site_label
_atom_site_type_symbol
_atom_site_fract_x
_atom_site_fract_y
_atom_site_fract_z
_atom_site_charge
Ag	Ag	0.50246 0.17974 0.36638 0.51500
N 	N 	0.99793 0.07957 0.26516 -0.09300
N 	N 	0.59986 0.32260 0.37623 -0.13800
N 	N 	0.44568 0.01609 0.36703 -0.14000
N 	N 	0.66150 0.16570 0.14402 -0.13400
N 	N 	0.35270 0.29080 0.59814 -0.13700
N 	N 	0.14290 0.04840 0.01451 -0.13000
C 	C 	0.77816 0.25082 0.33522 -0.01500
H 	H 	0.82250 0.31530 0.34010 0.03600
C 	C 	0.83263 0.16601 0.31057 0.01300
H 	H 	0.78890 0.10110 0.30650 0.02300
C 	C 	0.04226 0.98666 0.24262 -0.12900
H 	H 	0.10850 0.96720 0.26360 0.06100
H 	H 	0.99550 0.92550 0.24180 0.06100
C 	C 	0.84835 0.19971 0.26032 -0.14100
H 	H 	0.78140 0.21880 0.23990 0.06600
H 	H 	0.89260 0.26320 0.26360 0.06800
C 	C 	0.89711 0.11246 0.23546 -0.02600
H 	H 	0.85060 0.05060 0.23010 0.03800
H 	H 	0.90700 0.13770 0.20340 0.04300
C 	C 	0.05914 0.00682 0.19207 0.07400
C 	C 	0.40798 0.97671 0.31652 -0.14600
H 	H 	0.33560 0.99820 0.30570 0.05900
H 	H 	0.41040 0.89840 0.31670 0.07200
C 	C 	0.75957 0.21577 0.38469 -0.12000
H 	H 	0.72100 0.14840 0.38090 0.03900
H 	H 	0.82630 0.20260 0.40660 0.05500
C 	C 	0.93745 0.13605 0.34030 -0.14300
H 	H 	0.98200 0.19940 0.34490 0.06800
H 	H 	0.92950 0.11120 0.37280 0.06100
C 	C 	0.43117 0.10460 0.25208 -0.11800
H 	H 	0.37070 0.13900 0.25710 0.04600
C 	C 	0.46880 0.01718 0.28062 0.05200
C 	C 	0.14305 0.06538 0.18466 -0.09900
H 	H 	0.18730 0.09690 0.21160 0.05800
C 	C 	0.55835 0.96797 0.27313 -0.11100
H 	H 	0.58460 0.90860 0.29240 0.05800
C 	C 	0.48097 0.14153 0.21665 -0.01700
H 	H 	0.45480 0.20070 0.19730 0.03400
C 	C 	0.39169 0.04396 0.44591 -0.13000
H 	H 	0.33290 0.03670 0.46240 0.05700
H 	H 	0.41090 0.11970 0.44670 0.04400
C 	C 	0.09790 0.03150 0.09943 -0.03100
C 	C 	0.35934 0.00898 0.39369 -0.04900
H 	H 	0.33450 0.93500 0.39280 0.04700
H 	H 	0.30200 0.05400 0.37720 0.02300
C 	C 	0.99386 0.96169 0.15222 -0.10500
H 	H 	0.93600 0.92220 0.15700 0.05800
C 	C 	0.67498 0.28150 0.30406 -0.12400
H 	H 	0.68610 0.31170 0.27300 0.05700
H 	H 	0.63230 0.21720 0.29650 0.04600
C 	C 	0.56975 0.09130 0.20965 -0.04000
C 	C 	0.48215 0.97989 0.47389 -0.00500
H 	H 	0.45910 0.90490 0.47560 0.03000
C 	C 	0.50520 0.38012 0.44136 0.06900
C 	C 	0.16270 0.07830 0.13879 -0.01800
H 	H 	0.22000 0.11870 0.13400 0.04300
C 	C 	0.60907 0.00490 0.23800 -0.01800
H 	H 	0.67030 0.97160 0.23330 0.02500
C 	C 	0.61810 0.36144 0.32905 -0.05400
H 	H 	0.65830 0.42780 0.33430 0.05300
H 	H 	0.55150 0.37780 0.30760 0.03400
C 	C 	0.70047 0.29713 0.40778 -0.05500
H 	H 	0.68910 0.26970 0.43930 0.03100
H 	H 	0.74170 0.36260 0.41420 0.05200
C 	C 	0.01250 0.97380 0.10596 -0.01200
H 	H 	0.96770 0.94320 0.07890 0.03900
C 	C 	0.98820 0.04990 0.31569 -0.02300
H 	H 	0.05710 0.03540 0.33530 0.03000
H 	H 	0.94740 0.98410 0.31450 0.03400
C 	C 	0.62110 0.13120 0.17271 0.06400
C 	C 	0.56818 0.98158 0.44499 -0.12500
H 	H 	0.59670 0.05400 0.44550 0.03800
H 	H 	0.62380 0.93370 0.46060 0.05900
C 	C 	0.53059 0.94739 0.39257 -0.05500
H 	H 	0.58820 0.95030 0.37520 0.03300
H 	H 	0.50640 0.87320 0.39190 0.05500
C 	C 	0.54790 0.41029 0.39750 -0.15600
H 	H 	0.49130 0.43750 0.37220 0.06700
H 	H 	0.59750 0.46870 0.40660 0.08300
C 	C 	0.56750 0.38130 0.48740 -0.10400
H 	H 	0.63790 0.39940 0.49100 0.06800
C 	C 	0.40250 0.35600 0.43579 -0.11900
H 	H 	0.36030 0.35540 0.40430 0.04800
C 	C 	0.42510 0.33260 0.52164 -0.03600
C 	C 	0.36060 0.33300 0.47562 -0.01000
H 	H 	0.28960 0.31780 0.47200 0.03300
C 	C 	0.52820 0.35660 0.52747 -0.01200
H 	H 	0.57100 0.35590 0.55880 0.04300
C 	C 	0.12140 0.04120 0.05181 0.07500
C 	C 	0.38340 0.30900 0.56413 0.07300
Ag	Ag	0.49754 0.82026 0.63362 0.51600
N 	N 	0.00207 0.92043 0.73484 -0.09200
N 	N 	0.40014 0.67740 0.62377 -0.13700
N 	N 	0.55432 0.98391 0.63297 -0.13900
N 	N 	0.33850 0.83430 0.85598 -0.13300
N 	N 	0.64730 0.70920 0.40186 -0.13600
N 	N 	0.85710 0.95160 0.98549 -0.12900
C 	C 	0.22184 0.74918 0.66478 -0.01400
H 	H 	0.17750 0.68470 0.65990 0.03700
C 	C 	0.16737 0.83399 0.68943 0.01400
H 	H 	0.21110 0.89890 0.69350 0.02400
C 	C 	0.95774 0.01334 0.75738 -0.12800
H 	H 	0.89150 0.03280 0.73640 0.06100
H 	H 	0.00450 0.07450 0.75820 0.06100
C 	C 	0.15165 0.80029 0.73968 -0.14100
H 	H 	0.21860 0.78120 0.76010 0.06600
H 	H 	0.10740 0.73680 0.73640 0.06800
C 	C 	0.10289 0.88754 0.76454 -0.02600
H 	H 	0.14940 0.94940 0.76990 0.03800
H 	H 	0.09300 0.86230 0.79660 0.04300
C 	C 	0.94086 0.99318 0.80793 0.07400
C 	C 	0.59202 0.02329 0.68348 -0.14600
H 	H 	0.66440 0.00180 0.69430 0.05900
H 	H 	0.58960 0.10160 0.68330 0.07200
C 	C 	0.24043 0.78423 0.61531 -0.12000
H 	H 	0.27900 0.85160 0.61910 0.03900
H 	H 	0.17370 0.79740 0.59340 0.05500
C 	C 	0.06255 0.86395 0.65970 -0.14300
H 	H 	0.01800 0.80060 0.65510 0.06800
H 	H 	0.07050 0.88880 0.62720 0.06100
C 	C 	0.56883 0.89540 0.74792 -0.11800
H 	H 	0.62930 0.86100 0.74290 0.04600
C 	C 	0.53120 0.98282 0.71938 0.05200
C 	C 	0.85695 0.93462 0.81534 -0.09900
H 	H 	0.81270 0.90310 0.78840 0.05800
C 	C 	0.44165 0.03203 0.72687 -0.11100
H 	H 	0.41540 0.09140 0.70760 0.05800
C 	C 	0.51903 0.85847 0.78335 -0.01700
H 	H 	0.54520 0.79930 0.80270 0.03400
C 	C 	0.60831 0.95604 0.55409 -0.13000
H 	H 	0.66710 0.96330 0.53760 0.05700
H 	H 	0.58910 0.88030 0.55330 0.04400
C 	C 	0.90210 0.96850 0.90057 -0.03100
C 	C 	0.64066 0.99102 0.60631 -0.04900
H 	H 	0.66550 0.06500 0.60720 0.04700
H 	H 	0.69800 0.94600 0.62280 0.02300
C 	C 	0.00614 0.03831 0.84778 -0.10500
H 	H 	0.06400 0.07780 0.84300 0.05800
C 	C 	0.32502 0.71850 0.69594 -0.12400
H 	H 	0.31390 0.68830 0.72700 0.05700
H 	H 	0.36770 0.78280 0.70350 0.04600
C 	C 	0.43025 0.90870 0.79035 -0.04000
C 	C 	0.51785 0.02011 0.52611 -0.00500
H 	H 	0.54090 0.09510 0.52440 0.03000
C 	C 	0.49480 0.61988 0.55864 0.06900
C 	C 	0.83730 0.92170 0.86121 -0.01800
H 	H 	0.78000 0.88130 0.86600 0.04300
C 	C 	0.39093 0.99510 0.76200 -0.01800
H 	H 	0.32970 0.02840 0.76670 0.02500
C 	C 	0.38190 0.63856 0.67095 -0.05400
H 	H 	0.34170 0.57220 0.66570 0.05300
H 	H 	0.44850 0.62220 0.69240 0.03400
C 	C 	0.29953 0.70287 0.59222 -0.05500
H 	H 	0.31090 0.73030 0.56070 0.03100
H 	H 	0.25830 0.63740 0.58580 0.05200
C 	C 	0.98750 0.02620 0.89404 -0.01200
H 	H 	0.03230 0.05680 0.92110 0.03900
C 	C 	0.01180 0.95010 0.68431 -0.02300
H 	H 	0.94290 0.96460 0.66470 0.03000
H 	H 	0.05260 0.01590 0.68550 0.03400
C 	C 	0.37890 0.86880 0.82729 0.06400
C 	C 	0.43182 0.01842 0.55501 -0.12500
H 	H 	0.40330 0.94600 0.55450 0.03800
H 	H 	0.37620 0.06630 0.53940 0.05900
C 	C 	0.46941 0.05261 0.60743 -0.05500
H 	H 	0.41180 0.04970 0.62480 0.03300
H 	H 	0.49360 0.12680 0.60810 0.05500
C 	C 	0.45210 0.58971 0.60250 -0.15600
H 	H 	0.50870 0.56250 0.62780 0.06700
H 	H 	0.40250 0.53130 0.59340 0.08300
C 	C 	0.43250 0.61870 0.51260 -0.10400
H 	H 	0.36210 0.60060 0.50900 0.06800
C 	C 	0.59750 0.64400 0.56421 -0.11900
H 	H 	0.63970 0.64460 0.59570 0.04800
C 	C 	0.57490 0.66740 0.47836 -0.03600
C 	C 	0.63940 0.66700 0.52438 -0.01000
H 	H 	0.71040 0.68220 0.52800 0.03300
C 	C 	0.47180 0.64340 0.47253 -0.01200
H 	H 	0.42900 0.64410 0.44120 0.04300
C 	C 	0.87860 0.95880 0.94819 0.07500
C 	C 	0.61660 0.69100 0.43587 0.07300
Ag	Ag	0.49754 0.67974 0.13362 0.51600
N 	N 	0.00207 0.57957 0.23484 -0.09200
N 	N 	0.40014 0.82260 0.12377 -0.13700
N 	N 	0.55432 0.51609 0.13297 -0.13900
N 	N 	0.33850 0.66570 0.35598 -0.13300
N 	N 	0.64730 0.79080 0.90186 -0.13600
N 	N 	0.85710 0.54840 0.48549 -0.12900
C 	C 	0.22184 0.75082 0.16478 -0.01400
H 	H 	0.17750 0.81530 0.15990 0.03700
C 	C 	0.16737 0.66601 0.18943 0.01400
H 	H 	0.21110 0.60110 0.19350 0.02400
C 	C 	0.95774 0.48666 0.25738 -0.12900
H 	H 	0.89150 0.46720 0.23640 0.06100
H 	H 	0.00450 0.42550 0.25820 0.06200
C 	C 	0.15165 0.69971 0.23968 -0.14100
H 	H 	0.21860 0.71880 0.26010 0.06600
H 	H 	0.10740 0.76320 0.23640 0.06800
C 	C 	0.10289 0.61246 0.26454 -0.02600
H 	H 	0.14940 0.55060 0.26990 0.03800
H 	H 	0.09300 0.63770 0.29660 0.04300
C 	C 	0.94086 0.50682 0.30793 0.07300
C 	C 	0.59202 0.47671 0.18348 -0.14600
H 	H 	0.66440 0.49820 0.19430 0.05900
H 	H 	0.58960 0.39840 0.18330 0.07200
C 	C 	0.24043 0.71577 0.11531 -0.12000
H 	H 	0.27900 0.64840 0.11910 0.03900
H 	H 	0.17370 0.70260 0.09340 0.05500
C 	C 	0.06255 0.63605 0.15970 -0.14100
H 	H 	0.01800 0.69940 0.15510 0.06800
H 	H 	0.07050 0.61120 0.12720 0.06000
C 	C 	0.56883 0.60460 0.24792 -0.11700
H 	H 	0.62930 0.63900 0.24290 0.04600
C 	C 	0.53120 0.51718 0.21938 0.05100
C 	C 	0.85695 0.56538 0.31534 -0.09800
H 	H 	0.81270 0.59690 0.28840 0.05800
C 	C 	0.44165 0.46797 0.22687 -0.11000
H 	H 	0.41540 0.40860 0.20760 0.05700
C 	C 	0.51903 0.64153 0.28335 -0.01800
H 	H 	0.54520 0.70070 0.30270 0.03400
C 	C 	0.60831 0.54396 0.05409 -0.13000
H 	H 	0.66710 0.53670 0.03760 0.05700
H 	H 	0.58910 0.61970 0.05330 0.04400
C 	C 	0.90210 0.53150 0.40057 -0.02900
C 	C 	0.64066 0.50898 0.10631 -0.04900
H 	H 	0.66550 0.43500 0.10720 0.04600
H 	H 	0.69800 0.55400 0.12280 0.02300
C 	C 	0.00614 0.46169 0.34778 -0.10200
H 	H 	0.06400 0.42220 0.34300 0.05700
C 	C 	0.32502 0.78150 0.19594 -0.12400
H 	H 	0.31390 0.81170 0.22700 0.05700
H 	H 	0.36770 0.71720 0.20350 0.04600
C 	C 	0.43025 0.59130 0.29035 -0.03900
C 	C 	0.51785 0.47989 0.02611 -0.00500
H 	H 	0.54090 0.40490 0.02440 0.03000
C 	C 	0.49480 0.88012 0.05864 0.06900
C 	C 	0.83730 0.57830 0.36121 -0.01900
H 	H 	0.78000 0.61870 0.36600 0.04400
C 	C 	0.39093 0.50490 0.26200 -0.02000
H 	H 	0.32970 0.47160 0.26670 0.02500
C 	C 	0.38190 0.86144 0.17095 -0.05400
H 	H 	0.34170 0.92780 0.16570 0.05300
H 	H 	0.44850 0.87780 0.19240 0.03400
C 	C 	0.29953 0.79713 0.09222 -0.05500
H 	H 	0.31090 0.76970 0.06070 0.03100
H 	H 	0.25830 0.86260 0.08580 0.05200
C 	C 	0.98750 0.47380 0.39404 -0.01700
H 	H 	0.03230 0.44320 0.42110 0.04100
C 	C 	0.01180 0.54990 0.18431 -0.02600
H 	H 	0.94290 0.53540 0.16470 0.03100
H 	H 	0.05260 0.48410 0.18550 0.03500
C 	C 	0.37890 0.63120 0.32729 0.06300
C 	C 	0.43182 0.48158 0.05501 -0.12500
H 	H 	0.40330 0.55400 0.05450 0.03800
H 	H 	0.37620 0.43370 0.03940 0.05900
C 	C 	0.46941 0.44739 0.10743 -0.05600
H 	H 	0.41180 0.45030 0.12480 0.03300
H 	H 	0.49360 0.37320 0.10810 0.05500
C 	C 	0.45210 0.91029 0.10250 -0.15600
H 	H 	0.50870 0.93750 0.12780 0.06700
H 	H 	0.40250 0.96870 0.09340 0.08300
C 	C 	0.43250 0.88130 0.01260 -0.10400
H 	H 	0.36210 0.89940 0.00900 0.06800
C 	C 	0.59750 0.85600 0.06421 -0.11900
H 	H 	0.63970 0.85540 0.09570 0.04800
C 	C 	0.57490 0.83260 0.97836 -0.03600
C 	C 	0.63940 0.83300 0.02438 -0.01100
H 	H 	0.71040 0.81780 0.02800 0.03300
C 	C 	0.47180 0.85660 0.97253 -0.01100
H 	H 	0.42900 0.85590 0.94120 0.04300
C 	C 	0.87860 0.54120 0.44819 0.07500
C 	C 	0.61660 0.80900 0.93587 0.07300
Ag	Ag	0.50246 0.32026 0.86638 0.51600
N 	N 	0.99793 0.42043 0.76516 -0.09200
N 	N 	0.59986 0.17740 0.87623 -0.13700
N 	N 	0.44568 0.48391 0.86703 -0.13900
N 	N 	0.66150 0.33430 0.64402 -0.13300
N 	N 	0.35270 0.20920 0.09814 -0.13600
N 	N 	0.14290 0.45160 0.51451 -0.12900
C 	C 	0.77816 0.24918 0.83522 -0.01400
H 	H 	0.82250 0.18470 0.84010 0.03700
C 	C 	0.83263 0.33399 0.81057 0.01400
H 	H 	0.78890 0.39890 0.80650 0.02400
C 	C 	0.04226 0.51334 0.74262 -0.12900
H 	H 	0.10850 0.53280 0.76360 0.06100
H 	H 	0.99550 0.57450 0.74180 0.06200
C 	C 	0.84835 0.30029 0.76032 -0.14100
H 	H 	0.78140 0.28120 0.73990 0.06600
H 	H 	0.89260 0.23680 0.76360 0.06800
C 	C 	0.89711 0.38754 0.73546 -0.02600
H 	H 	0.85060 0.44940 0.73010 0.03800
H 	H 	0.90700 0.36230 0.70340 0.04300
C 	C 	0.05914 0.49318 0.69207 0.07300
C 	C 	0.40798 0.52329 0.81652 -0.14600
H 	H 	0.33560 0.50180 0.80570 0.05900
H 	H 	0.41040 0.60160 0.81670 0.07200
C 	C 	0.75957 0.28423 0.88469 -0.12000
H 	H 	0.72100 0.35160 0.88090 0.03900
H 	H 	0.82630 0.29740 0.90660 0.05500
C 	C 	0.93745 0.36395 0.84030 -0.14100
H 	H 	0.98200 0.30060 0.84490 0.06800
H 	H 	0.92950 0.38880 0.87280 0.06000
C 	C 	0.43117 0.39540 0.75208 -0.11700
H 	H 	0.37070 0.36100 0.75710 0.04600
C 	C 	0.46880 0.48282 0.78062 0.05100
C 	C 	0.14305 0.43462 0.68466 -0.09800
H 	H 	0.18730 0.40310 0.71160 0.05800
C 	C 	0.55835 0.53203 0.77313 -0.11000
H 	H 	0.58460 0.59140 0.79240 0.05700
C 	C 	0.48097 0.35847 0.71665 -0.01800
H 	H 	0.45480 0.29930 0.69730 0.03400
C 	C 	0.39169 0.45604 0.94591 -0.13000
H 	H 	0.33290 0.46330 0.96240 0.05700
H 	H 	0.41090 0.38030 0.94670 0.04400
C 	C 	0.09790 0.46850 0.59943 -0.02900
C 	C 	0.35934 0.49102 0.89369 -0.04900
H 	H 	0.33450 0.56500 0.89280 0.04600
H 	H 	0.30200 0.44600 0.87720 0.02300
C 	C 	0.99386 0.53831 0.65222 -0.10200
H 	H 	0.93600 0.57780 0.65700 0.05700
C 	C 	0.67498 0.21850 0.80406 -0.12400
H 	H 	0.68610 0.18830 0.77300 0.05700
H 	H 	0.63230 0.28280 0.79650 0.04600
C 	C 	0.56975 0.40870 0.70965 -0.03900
C 	C 	0.48215 0.52011 0.97389 -0.00500
H 	H 	0.45910 0.59510 0.97560 0.03000
C 	C 	0.50520 0.11988 0.94136 0.06900
C 	C 	0.16270 0.42170 0.63879 -0.01900
H 	H 	0.22000 0.38130 0.63400 0.04400
C 	C 	0.60907 0.49510 0.73800 -0.02000
H 	H 	0.67030 0.52840 0.73330 0.02500
C 	C 	0.61810 0.13856 0.82905 -0.05400
H 	H 	0.65830 0.07220 0.83430 0.05300
H 	H 	0.55150 0.12220 0.80760 0.03400
C 	C 	0.70047 0.20287 0.90778 -0.05500
H 	H 	0.68910 0.23030 0.93930 0.03100
H 	H 	0.74170 0.13740 0.91420 0.05200
C 	C 	0.01250 0.52620 0.60596 -0.01700
H 	H 	0.96770 0.55680 0.57890 0.04100
C 	C 	0.98820 0.45010 0.81569 -0.02600
H 	H 	0.05710 0.46460 0.83530 0.03100
H 	H 	0.94740 0.51590 0.81450 0.03500
C 	C 	0.62110 0.36880 0.67271 0.06300
C 	C 	0.56818 0.51842 0.94499 -0.12500
H 	H 	0.59670 0.44600 0.94550 0.03800
H 	H 	0.62380 0.56630 0.96060 0.05900
C 	C 	0.53059 0.55261 0.89257 -0.05600
H 	H 	0.58820 0.54970 0.87520 0.03300
H 	H 	0.50640 0.62680 0.89190 0.05500
C 	C 	0.54790 0.08971 0.89750 -0.15600
H 	H 	0.49130 0.06250 0.87220 0.06700
H 	H 	0.59750 0.03130 0.90660 0.08300
C 	C 	0.56750 0.11870 0.98740 -0.10400
H 	H 	0.63790 0.10060 0.99100 0.06800
C 	C 	0.40250 0.14400 0.93579 -0.11900
H 	H 	0.36030 0.14460 0.90430 0.04800
C 	C 	0.42510 0.16740 0.02164 -0.03600
C 	C 	0.36060 0.16700 0.97562 -0.01100
H 	H 	0.28960 0.18220 0.97200 0.03300
C 	C 	0.52820 0.14340 0.02747 -0.01100
H 	H 	0.57100 0.14410 0.05880 0.04300
C 	C 	0.12140 0.45880 0.55181 0.07500
C 	C 	0.38340 0.19100 0.06413 0.07300
