data_crystal

_cell_length_a 9.09800
_cell_length_b 11.71700
_cell_length_c 14.37100
_cell_angle_alpha 87.01500
_cell_angle_beta  80.22900
_cell_angle_gamma 86.04100

_symmetry_space_group_name_	'P 1'
_symmetry_space_group_name_H-M	'P 1'

loop_
_symmetry_equiv_pos_as_xyz
  x,y,z

loop_
_atom_site_label
_atom_site_type_symbol
_atom_site_fract_x
_atom_site_fract_y
_atom_site_fract_z
_atom_site_charge
Sm	Sm	0.51032 0.25225 0.87350 1.85400
Sm	Sm	0.56022 0.35792 0.43059 1.52900
O 	O 	0.32190 0.28030 0.52660 -0.42900
O 	O 	0.26160 0.36550 0.87280 -0.39600
O 	O 	0.77080 0.22930 0.90200 -0.43500
O 	O 	0.36890 0.28760 0.74050 -0.42500
O 	O 	0.31980 0.17300 0.00330 -0.38600
O 	O 	0.66780 0.54670 0.62050 -0.44700
O 	O 	0.60890 0.42490 0.80490 -0.48400
O 	O 	0.36180 0.08260 0.87050 -0.41100
O 	O 	0.73180 0.38570 0.54180 -0.48200
O 	O 	0.39380 0.44050 0.57340 -0.53900
O 	O 	0.62670 0.08890 0.95020 -0.41200
C 	C 	0.13380 0.38630 0.73890 -0.04900
C 	C 	0.74790 0.45680 0.60180 0.41900
C 	C 	0.75180 0.13090 0.93910 0.29500
C 	C 	0.87790 0.06200 0.97170 -0.05100
C 	C 	0.99640 0.41740 0.79220 -0.02300
H 	H 	0.98790 0.42130 0.85740 0.05600
O 	O 	0.72460 0.55500 0.86670 -0.29600
C 	C 	0.72460 0.47740 0.81120 0.35400
C 	C 	0.87040 0.44310 0.74940 -0.05800
C 	C 	0.88180 0.43150 0.65200 -0.11000
C 	C 	0.85890 0.95710 0.02080 -0.04800
C 	C 	0.28680 0.09860 0.95090 0.32800
C 	C 	0.01970 0.10450 0.95130 -0.02000
H 	H 	0.03270 0.17470 0.91880 0.05200
C 	C 	0.14720 0.38350 0.64120 -0.10600
C 	C 	0.02070 0.40300 0.59840 0.02500
H 	H 	0.02920 0.39700 0.53340 0.01500
C 	C 	0.29630 0.36380 0.57840 0.38200
C 	C 	0.26280 0.34630 0.78670 0.29700
Sm	Sm	0.48968 0.74775 0.12650 1.85500
Sm	Sm	0.43978 0.64208 0.56941 1.53000
O 	O 	0.67810 0.71970 0.47340 -0.42900
O 	O 	0.73840 0.63450 0.12720 -0.39600
O 	O 	0.22920 0.77070 0.09800 -0.43500
O 	O 	0.63110 0.71240 0.25950 -0.42500
O 	O 	0.68020 0.82700 0.99670 -0.38600
O 	O 	0.33220 0.45330 0.37950 -0.44700
O 	O 	0.39110 0.57510 0.19510 -0.48400
O 	O 	0.63820 0.91740 0.12950 -0.41100
O 	O 	0.26820 0.61430 0.45820 -0.48200
O 	O 	0.60620 0.55950 0.42660 -0.53900
O 	O 	0.37330 0.91110 0.04980 -0.41200
C 	C 	0.86620 0.61370 0.26110 -0.04900
C 	C 	0.25210 0.54320 0.39820 0.41900
C 	C 	0.24820 0.86910 0.06090 0.29500
C 	C 	0.12210 0.93800 0.02830 -0.05100
C 	C 	0.00360 0.58260 0.20780 -0.02300
H 	H 	0.01210 0.57870 0.14260 0.05600
O 	O 	0.27540 0.44500 0.13330 -0.29600
C 	C 	0.27540 0.52260 0.18880 0.35400
C 	C 	0.12960 0.55690 0.25060 -0.05800
C 	C 	0.11820 0.56850 0.34800 -0.11000
C 	C 	0.14110 0.04290 0.97920 -0.04800
C 	C 	0.71320 0.90140 0.04910 0.32800
C 	C 	0.98030 0.89550 0.04870 -0.02000
H 	H 	0.96730 0.82530 0.08120 0.05200
C 	C 	0.85280 0.61650 0.35880 -0.10600
C 	C 	0.97930 0.59700 0.40160 0.02500
H 	H 	0.97080 0.60300 0.46660 0.01500
C 	C 	0.70370 0.63620 0.42160 0.38200
C 	C 	0.73720 0.65370 0.21330 0.29700
