data_crystal

_cell_length_a 25.01410
_cell_length_b 21.23830
_cell_length_c 10.03240
_cell_angle_alpha 90.00000
_cell_angle_beta  97.16600
_cell_angle_gamma 90.00000

_symmetry_space_group_name_	'P 1'
_symmetry_space_group_name_H-M	'P 1'

loop_
_symmetry_equiv_pos_as_xyz
  x,y,z

loop_
_atom_site_label
_atom_site_type_symbol
_atom_site_fract_x
_atom_site_fract_y
_atom_site_fract_z
_atom_site_charge
C 	C 	0.28800 0.17220 0.09820 0.37000
C 	C 	0.27190 0.13340 0.97510 -0.13500
C 	C 	0.25790 0.16510 0.85540 0.07100
H 	H 	0.25980 0.20976 0.85455 0.00800
C 	C 	0.24100 0.13350 0.73650 -0.19000
C 	C 	0.22630 0.17380 0.61460 0.41400
C 	C 	0.23990 0.06720 0.73400 0.10300
C 	C 	0.22320 0.03160 0.61360 -0.07600
H 	H 	0.21195 0.05343 0.53229 0.08500
C 	C 	0.28430 0.03190 0.09860 -0.07200
H 	H 	0.29428 0.05366 0.18064 0.07100
C 	C 	0.26990 0.06700 0.97950 0.08900
C 	C 	0.25430 0.03380 0.85630 -0.04200
C 	C 	0.40620 0.17200 0.38810 0.38500
C 	C 	0.45480 0.13320 0.44270 -0.13400
C 	C 	0.40850 0.03190 0.37810 -0.07000
H 	H 	0.37784 0.05379 0.33569 0.07100
C 	C 	0.45380 0.06730 0.44080 0.08600
C 	C 	0.39710 0.38400 0.23210 0.33000
C 	C 	0.41990 0.44290 0.17850 -0.10300
C 	C 	0.48050 0.38430 0.04050 -0.05800
H 	H 	0.46630 0.34533 0.06685 0.07400
C 	C 	0.45990 0.44190 0.08740 0.07500
Li	Li	0.28830 0.18490 0.38530 0.56100
O 	O 	0.32232 0.21496 0.08730 -0.44700
O 	O 	0.26580 0.16183 0.20190 -0.36000
O 	O 	0.19836 0.22332 0.63080 -0.51400
O 	O 	0.24247 0.16055 0.50670 -0.36100
O 	O 	0.41611 0.22117 0.32380 -0.44700
O 	O 	0.36092 0.15550 0.40980 -0.38700
O 	O 	0.38035 0.34161 0.14600 -0.42900
O 	O 	0.39470 0.37890 0.35310 -0.29600
Zn	Zn	0.35423 0.26896 0.23699 1.23500
C 	C 	0.78800 0.67220 0.09820 0.37000
C 	C 	0.77190 0.63340 0.97510 -0.13100
C 	C 	0.75790 0.66510 0.85540 0.06900
H 	H 	0.75980 0.70976 0.85455 0.00900
C 	C 	0.74100 0.63350 0.73650 -0.18800
C 	C 	0.72630 0.67380 0.61460 0.41400
C 	C 	0.73990 0.56720 0.73400 0.09900
C 	C 	0.72320 0.53160 0.61360 -0.06900
H 	H 	0.71195 0.55343 0.53229 0.08300
C 	C 	0.78430 0.53190 0.09860 -0.06500
H 	H 	0.79428 0.55366 0.18064 0.06900
C 	C 	0.76990 0.56700 0.97950 0.08500
C 	C 	0.75430 0.53380 0.85630 -0.03600
C 	C 	0.90620 0.67200 0.38810 0.38300
C 	C 	0.95480 0.63320 0.44270 -0.12800
C 	C 	0.90850 0.53190 0.37810 -0.06300
H 	H 	0.87784 0.55379 0.33569 0.07000
C 	C 	0.95380 0.56730 0.44080 0.08400
C 	C 	0.89710 0.88400 0.23210 0.32800
C 	C 	0.91990 0.94290 0.17850 -0.09800
C 	C 	0.98050 0.88430 0.04050 -0.04700
H 	H 	0.96630 0.84533 0.06685 0.07100
C 	C 	0.95990 0.94190 0.08740 0.07100
Li	Li	0.78830 0.68490 0.38530 0.56100
O 	O 	0.82232 0.71496 0.08730 -0.44700
O 	O 	0.76580 0.66183 0.20190 -0.36000
O 	O 	0.69836 0.72332 0.63080 -0.51400
O 	O 	0.74247 0.66055 0.50670 -0.36100
O 	O 	0.91611 0.72117 0.32380 -0.44600
O 	O 	0.86092 0.65550 0.40980 -0.38600
O 	O 	0.88035 0.84161 0.14600 -0.42800
O 	O 	0.89470 0.87890 0.35310 -0.29500
Zn	Zn	0.85423 0.76896 0.23699 1.23500
C 	C 	0.71200 0.17220 0.90180 0.37200
C 	C 	0.72810 0.13340 0.02490 -0.13400
C 	C 	0.74210 0.16510 0.14460 0.07100
H 	H 	0.74020 0.20976 0.14545 0.00800
C 	C 	0.75900 0.13350 0.26350 -0.19000
C 	C 	0.77370 0.17380 0.38540 0.41400
C 	C 	0.76010 0.06720 0.26600 0.10300
C 	C 	0.77680 0.03160 0.38640 -0.07700
H 	H 	0.78805 0.05343 0.46771 0.08500
C 	C 	0.71570 0.03190 0.90140 -0.07100
H 	H 	0.70572 0.05366 0.81936 0.07100
C 	C 	0.73010 0.06700 0.02050 0.08800
C 	C 	0.74570 0.03380 0.14370 -0.04200
C 	C 	0.59380 0.17200 0.61190 0.38500
C 	C 	0.54520 0.13320 0.55730 -0.13400
C 	C 	0.59150 0.03190 0.62190 -0.07000
H 	H 	0.62216 0.05379 0.66431 0.07100
C 	C 	0.54620 0.06730 0.55920 0.08600
C 	C 	0.60290 0.38400 0.76790 0.33000
C 	C 	0.58010 0.44290 0.82150 -0.10200
C 	C 	0.51950 0.38430 0.95950 -0.05500
H 	H 	0.53370 0.34533 0.93315 0.07300
C 	C 	0.54010 0.44190 0.91260 0.07300
Li	Li	0.71170 0.18490 0.61470 0.56100
O 	O 	0.67768 0.21496 0.91270 -0.44700
O 	O 	0.73420 0.16183 0.79810 -0.36000
O 	O 	0.80164 0.22332 0.36920 -0.51400
O 	O 	0.75753 0.16055 0.49330 -0.36100
O 	O 	0.58389 0.22117 0.67620 -0.44700
O 	O 	0.63908 0.15550 0.59020 -0.38700
O 	O 	0.61965 0.34161 0.85400 -0.42900
O 	O 	0.60530 0.37890 0.64690 -0.29600
Zn	Zn	0.64577 0.26896 0.76301 1.23500
C 	C 	0.21200 0.67220 0.90180 0.37100
C 	C 	0.22810 0.63340 0.02490 -0.13200
C 	C 	0.24210 0.66510 0.14460 0.06900
H 	H 	0.24020 0.70976 0.14545 0.00900
C 	C 	0.25900 0.63350 0.26350 -0.18800
C 	C 	0.27370 0.67380 0.38540 0.41400
C 	C 	0.26010 0.56720 0.26600 0.09900
C 	C 	0.27680 0.53160 0.38640 -0.06900
H 	H 	0.28805 0.55343 0.46771 0.08300
C 	C 	0.21570 0.53190 0.90140 -0.06400
H 	H 	0.20572 0.55366 0.81936 0.06900
C 	C 	0.23010 0.56700 0.02050 0.08400
C 	C 	0.24570 0.53380 0.14370 -0.03600
C 	C 	0.09380 0.67200 0.61190 0.38400
C 	C 	0.04520 0.63320 0.55730 -0.13100
C 	C 	0.09150 0.53190 0.62190 -0.06300
H 	H 	0.12216 0.55379 0.66431 0.06900
C 	C 	0.04620 0.56730 0.55920 0.08200
C 	C 	0.10290 0.88400 0.76790 0.33000
C 	C 	0.08010 0.94290 0.82150 -0.10300
C 	C 	0.01950 0.88430 0.95950 -0.06500
H 	H 	0.03370 0.84533 0.93315 0.07600
C 	C 	0.04010 0.94190 0.91260 0.08000
Li	Li	0.21170 0.68490 0.61470 0.56100
O 	O 	0.17768 0.71496 0.91270 -0.44700
O 	O 	0.23420 0.66183 0.79810 -0.36000
O 	O 	0.30164 0.72332 0.36920 -0.51400
O 	O 	0.25753 0.66055 0.49330 -0.36100
O 	O 	0.08389 0.72117 0.67620 -0.44700
O 	O 	0.13908 0.65550 0.59020 -0.38600
O 	O 	0.11965 0.84161 0.85400 -0.42900
O 	O 	0.10530 0.87890 0.64690 -0.29700
Zn	Zn	0.14577 0.76896 0.76301 1.23500
C 	C 	0.71200 0.82780 0.90180 0.37000
C 	C 	0.72810 0.86660 0.02490 -0.13000
C 	C 	0.74210 0.83490 0.14460 0.06700
H 	H 	0.74020 0.79024 0.14545 0.00900
C 	C 	0.75900 0.86650 0.26350 -0.18600
C 	C 	0.77370 0.82620 0.38540 0.41300
C 	C 	0.76010 0.93280 0.26600 0.09500
C 	C 	0.77680 0.96840 0.38640 -0.06200
H 	H 	0.78805 0.94657 0.46771 0.08100
C 	C 	0.71570 0.96810 0.90140 -0.05700
H 	H 	0.70572 0.94633 0.81936 0.06700
C 	C 	0.73010 0.93300 0.02050 0.08000
C 	C 	0.74570 0.96620 0.14370 -0.03000
C 	C 	0.59380 0.82800 0.61190 0.38300
C 	C 	0.54520 0.86680 0.55730 -0.13000
C 	C 	0.59150 0.96810 0.62190 -0.05600
H 	H 	0.62216 0.94621 0.66431 0.06800
C 	C 	0.54620 0.93270 0.55920 0.07800
C 	C 	0.60290 0.61600 0.76790 0.33000
C 	C 	0.58010 0.55710 0.82150 -0.10200
C 	C 	0.51950 0.61570 0.95950 -0.05500
H 	H 	0.53370 0.65467 0.93315 0.07300
C 	C 	0.54010 0.55810 0.91260 0.07300
Li	Li	0.71170 0.81510 0.61470 0.56100
O 	O 	0.67768 0.78504 0.91270 -0.44700
O 	O 	0.73420 0.83817 0.79810 -0.35900
O 	O 	0.80164 0.77668 0.36920 -0.51400
O 	O 	0.75753 0.83945 0.49330 -0.36000
O 	O 	0.58389 0.77883 0.67620 -0.44600
O 	O 	0.63908 0.84450 0.59020 -0.38600
O 	O 	0.61965 0.65839 0.85400 -0.42900
O 	O 	0.60530 0.62110 0.64690 -0.29600
Zn	Zn	0.64577 0.73104 0.76301 1.23500
C 	C 	0.21200 0.32780 0.90180 0.37100
C 	C 	0.22810 0.36660 0.02490 -0.13200
C 	C 	0.24210 0.33490 0.14460 0.06900
H 	H 	0.24020 0.29024 0.14545 0.00900
C 	C 	0.25900 0.36650 0.26350 -0.18800
C 	C 	0.27370 0.32620 0.38540 0.41400
C 	C 	0.26010 0.43280 0.26600 0.09900
C 	C 	0.27680 0.46840 0.38640 -0.06900
H 	H 	0.28805 0.44657 0.46771 0.08300
C 	C 	0.21570 0.46810 0.90140 -0.06400
H 	H 	0.20572 0.44633 0.81936 0.06900
C 	C 	0.23010 0.43300 0.02050 0.08400
C 	C 	0.24570 0.46620 0.14370 -0.03600
C 	C 	0.09380 0.32800 0.61190 0.38400
C 	C 	0.04520 0.36680 0.55730 -0.13100
C 	C 	0.09150 0.46810 0.62190 -0.06300
H 	H 	0.12216 0.44621 0.66431 0.06900
C 	C 	0.04620 0.43270 0.55920 0.08200
C 	C 	0.10290 0.11600 0.76790 0.33000
C 	C 	0.08010 0.05710 0.82150 -0.10500
C 	C 	0.01950 0.11570 0.95950 -0.06500
H 	H 	0.03370 0.15467 0.93315 0.07600
C 	C 	0.04010 0.05810 0.91260 0.07900
Li	Li	0.21170 0.31510 0.61470 0.56100
O 	O 	0.17768 0.28504 0.91270 -0.44700
O 	O 	0.23420 0.33817 0.79810 -0.36000
O 	O 	0.30164 0.27668 0.36920 -0.51400
O 	O 	0.25753 0.33945 0.49330 -0.36100
O 	O 	0.08389 0.27883 0.67620 -0.44700
O 	O 	0.13908 0.34450 0.59020 -0.38600
O 	O 	0.11965 0.15839 0.85400 -0.42900
O 	O 	0.10530 0.12110 0.64690 -0.29700
Zn	Zn	0.14577 0.23104 0.76301 1.23500
C 	C 	0.28800 0.82780 0.09820 0.36900
C 	C 	0.27190 0.86660 0.97510 -0.12900
C 	C 	0.25790 0.83490 0.85540 0.06700
H 	H 	0.25980 0.79024 0.85455 0.01000
C 	C 	0.24100 0.86650 0.73650 -0.18500
C 	C 	0.22630 0.82620 0.61460 0.41300
C 	C 	0.23990 0.93280 0.73400 0.09500
C 	C 	0.22320 0.96840 0.61360 -0.06200
H 	H 	0.21195 0.94657 0.53229 0.08100
C 	C 	0.28430 0.96810 0.09860 -0.05800
H 	H 	0.29428 0.94633 0.18064 0.06700
C 	C 	0.26990 0.93300 0.97950 0.08100
C 	C 	0.25430 0.96620 0.85630 -0.03000
C 	C 	0.40620 0.82800 0.38810 0.38300
C 	C 	0.45480 0.86680 0.44270 -0.13000
C 	C 	0.40850 0.96810 0.37810 -0.05600
H 	H 	0.37784 0.94621 0.33569 0.06800
C 	C 	0.45380 0.93270 0.44080 0.07800
C 	C 	0.39710 0.61600 0.23210 0.33000
C 	C 	0.41990 0.55710 0.17850 -0.10300
C 	C 	0.48050 0.61570 0.04050 -0.05800
H 	H 	0.46630 0.65467 0.06685 0.07400
C 	C 	0.45990 0.55810 0.08740 0.07500
Li	Li	0.28830 0.81510 0.38530 0.56100
O 	O 	0.32232 0.78504 0.08730 -0.44700
O 	O 	0.26580 0.83817 0.20190 -0.35900
O 	O 	0.19836 0.77668 0.63080 -0.51400
O 	O 	0.24247 0.83945 0.50670 -0.36000
O 	O 	0.41611 0.77883 0.32380 -0.44600
O 	O 	0.36092 0.84450 0.40980 -0.38600
O 	O 	0.38035 0.65839 0.14600 -0.42900
O 	O 	0.39470 0.62110 0.35310 -0.29600
Zn	Zn	0.35423 0.73104 0.23699 1.23500
C 	C 	0.78800 0.32780 0.09820 0.37000
C 	C 	0.77190 0.36660 0.97510 -0.13100
C 	C 	0.75790 0.33490 0.85540 0.06900
H 	H 	0.75980 0.29024 0.85455 0.00900
C 	C 	0.74100 0.36650 0.73650 -0.18800
C 	C 	0.72630 0.32620 0.61460 0.41400
C 	C 	0.73990 0.43280 0.73400 0.09900
C 	C 	0.72320 0.46840 0.61360 -0.06900
H 	H 	0.71195 0.44657 0.53229 0.08300
C 	C 	0.78430 0.46810 0.09860 -0.06500
H 	H 	0.79428 0.44633 0.18064 0.06900
C 	C 	0.76990 0.43300 0.97950 0.08500
C 	C 	0.75430 0.46620 0.85630 -0.03600
C 	C 	0.90620 0.32800 0.38810 0.38300
C 	C 	0.95480 0.36680 0.44270 -0.12800
C 	C 	0.90850 0.46810 0.37810 -0.06300
H 	H 	0.87784 0.44621 0.33569 0.07000
C 	C 	0.95380 0.43270 0.44080 0.08400
C 	C 	0.89710 0.11600 0.23210 0.32800
C 	C 	0.91990 0.05710 0.17850 -0.09900
C 	C 	0.98050 0.11570 0.04050 -0.04800
H 	H 	0.96630 0.15467 0.06685 0.07100
C 	C 	0.95990 0.05810 0.08740 0.06900
Li	Li	0.78830 0.31510 0.38530 0.56100
O 	O 	0.82232 0.28504 0.08730 -0.44700
O 	O 	0.76580 0.33817 0.20190 -0.36000
O 	O 	0.69836 0.27668 0.63080 -0.51400
O 	O 	0.74247 0.33945 0.50670 -0.36100
O 	O 	0.91611 0.27883 0.32380 -0.44600
O 	O 	0.86092 0.34450 0.40980 -0.38600
O 	O 	0.88035 0.15839 0.14600 -0.42900
O 	O 	0.89470 0.12110 0.35310 -0.29600
Zn	Zn	0.85423 0.23104 0.23699 1.23500
C 	C 	0.50000 0.16500 0.50000 0.07900
H 	H 	0.50000 0.20970 0.50000 0.03800
C 	C 	0.50000 0.03370 0.50000 -0.03800
C 	C 	0.00000 0.66500 0.50000 0.07200
H 	H 	-0.00000 0.70970 0.50000 0.04000
C 	C 	0.00000 0.53370 0.50000 -0.03400
C 	C 	0.50000 0.83500 0.50000 0.07400
H 	H 	0.50000 0.79030 0.50000 0.04000
C 	C 	0.50000 0.96630 0.50000 -0.02600
C 	C 	0.00000 0.33500 0.50000 0.07200
H 	H 	-0.00000 0.29030 0.50000 0.04000
C 	C 	-0.00000 0.46630 0.50000 -0.03400
C 	C 	0.40320 0.50000 0.22390 0.05300
H 	H 	0.37899 0.50000 0.28968 0.04100
C 	C 	0.47950 0.50000 0.04450 -0.02600
C 	C 	0.90320 0.00000 0.22390 0.04700
H 	H 	0.87899 -0.00000 0.28968 0.04200
C 	C 	0.97950 0.00000 0.04450 -0.01900
C 	C 	0.59680 0.50000 0.77610 0.05200
H 	H 	0.62101 0.50000 0.71032 0.04100
C 	C 	0.52050 0.50000 0.95550 -0.02300
C 	C 	0.09680 0.00000 0.77610 0.05200
H 	H 	0.12101 0.00000 0.71032 0.04100
C 	C 	0.02050 0.00000 0.95550 -0.03300
