data_crystal

_cell_length_a 9.44170
_cell_length_b 10.15330
_cell_length_c 10.84750
_cell_angle_alpha 95.60000
_cell_angle_beta  108.98500
_cell_angle_gamma 94.33600

_symmetry_space_group_name_	'P 1'
_symmetry_space_group_name_H-M	'P 1'

loop_
_symmetry_equiv_pos_as_xyz
  x,y,z

loop_
_atom_site_label
_atom_site_type_symbol
_atom_site_fract_x
_atom_site_fract_y
_atom_site_fract_z
_atom_site_charge
Co	Co	0.40827 0.51811 0.78236 1.15300
O 	O 	0.35860 0.22760 0.71930 -0.30200
O 	O 	0.52820 0.37775 0.86717 -0.43900
O 	O 	0.01010 0.19990 0.13970 -0.27300
N 	N 	0.21920 0.48500 0.82630 -0.19300
N 	N 	0.20570 0.40400 0.91500 -0.14800
H 	H 	0.28060 0.37440 0.97010 0.12600
C 	C 	0.47530 0.25860 0.81440 0.32900
C 	C 	0.06130 0.37550 0.90640 -0.01200
H 	H 	0.02650 0.32240 0.95810 0.06400
O 	O 	0.98410 0.98530 0.16870 -0.37400
C 	C 	0.97390 0.43920 0.80690 0.07400
C 	C 	0.56250 0.14770 0.87250 -0.10100
C 	C 	0.70550 0.17120 0.96460 0.04000
H 	H 	0.75160 0.25800 0.99380 0.03700
C 	C 	0.07850 0.50590 0.76040 -0.01100
H 	H 	0.05270 0.55800 0.69230 0.04300
C 	C 	0.80410 0.43640 0.75910 -0.24500
H 	H 	0.75900 0.34500 0.74730 0.10800
H 	H 	0.77470 0.48620 0.82610 0.11100
C 	C 	0.78130 0.06390 0.01420 -0.09800
C 	C 	0.93640 0.09250 0.11380 0.34400
C 	C 	0.71250 0.93480 0.97050 0.03900
H 	H 	0.76300 0.86380 0.00320 0.05800
C 	C 	0.56730 0.91050 0.87760 -0.09500
C 	C 	0.49370 0.01740 0.82910 0.03600
H 	H 	0.39740 0.00190 0.76690 0.05500
C 	C 	0.49010 0.77200 0.83060 0.31000
O 	O 	0.56310 0.67441 0.87343 -0.42000
O 	O 	0.35950 0.75100 0.75102 -0.33500
C 	C 	0.74390 0.49330 0.63350 0.06500
C 	C 	0.68500 0.42580 0.50690 -0.02400
H 	H 	0.67130 0.33350 0.48740 0.04700
C 	C 	0.74280 0.62700 0.61570 -0.01900
H 	H 	0.77530 0.69950 0.68140 0.06300
N 	N 	0.65030 0.50950 0.41640 -0.19300
N 	N 	0.68610 0.63170 0.48560 -0.15400
H 	H 	0.67400 0.70440 0.45070 0.12700
H 	H 	0.08000 0.00200 0.22700 0.21000
Co	Co	0.59173 0.48189 0.21764 1.15200
O 	O 	0.64140 0.77240 0.28070 -0.30300
O 	O 	0.47180 0.62225 0.13283 -0.44000
O 	O 	0.98990 0.80010 0.86030 -0.27400
N 	N 	0.78080 0.51500 0.17370 -0.19400
N 	N 	0.79430 0.59600 0.08500 -0.14900
H 	H 	0.71940 0.62560 0.02990 0.12600
C 	C 	0.52470 0.74140 0.18560 0.32900
C 	C 	0.93870 0.62450 0.09360 -0.01200
H 	H 	0.97350 0.67760 0.04190 0.06400
O 	O 	0.01590 0.01470 0.83130 -0.37400
C 	C 	0.02610 0.56080 0.19310 0.07400
C 	C 	0.43750 0.85230 0.12750 -0.10100
C 	C 	0.29450 0.82880 0.03540 0.04000
H 	H 	0.24840 0.74200 0.00620 0.03700
C 	C 	0.92150 0.49410 0.23960 -0.01100
H 	H 	0.94730 0.44200 0.30770 0.04300
C 	C 	0.19590 0.56360 0.24090 -0.24500
H 	H 	0.24100 0.65500 0.25270 0.10800
H 	H 	0.22530 0.51380 0.17390 0.11100
C 	C 	0.21870 0.93610 0.98580 -0.09800
C 	C 	0.06360 0.90750 0.88620 0.34400
C 	C 	0.28750 0.06520 0.02950 0.03900
H 	H 	0.23700 0.13620 0.99680 0.05800
C 	C 	0.43270 0.08950 0.12240 -0.09500
C 	C 	0.50630 0.98260 0.17090 0.03600
H 	H 	0.60260 0.99810 0.23310 0.05500
C 	C 	0.50990 0.22800 0.16940 0.31000
O 	O 	0.43690 0.32559 0.12657 -0.42000
O 	O 	0.64050 0.24900 0.24898 -0.33500
C 	C 	0.25610 0.50670 0.36650 0.06500
C 	C 	0.31500 0.57420 0.49310 -0.02400
H 	H 	0.32870 0.66650 0.51260 0.04700
C 	C 	0.25720 0.37300 0.38430 -0.01900
H 	H 	0.22470 0.30050 0.31860 0.06300
N 	N 	0.34970 0.49050 0.58360 -0.19300
N 	N 	0.31390 0.36830 0.51440 -0.15400
H 	H 	0.32600 0.29560 0.54930 0.12700
H 	H 	0.92000 0.99800 0.77300 0.21000
