data_crystal

_cell_length_a 17.88920
_cell_length_b 17.88920
_cell_length_c 52.10120
_cell_angle_alpha 90.00000
_cell_angle_beta  90.00000
_cell_angle_gamma 120.00000

_symmetry_space_group_name_	'P 1'
_symmetry_space_group_name_H-M	'P 1'

loop_
_symmetry_equiv_pos_as_xyz
  x,y,z

loop_
_atom_site_label
_atom_site_type_symbol
_atom_site_fract_x
_atom_site_fract_y
_atom_site_fract_z
_atom_site_charge
C 	C 	0.88520 0.25030 0.15720 -0.00900
H 	H 	0.05740 0.40890 0.48300 0.03600
O 	O 	0.49340 0.31000 0.11990 -0.47900
C 	C 	0.55187 0.58363 0.49053 -0.00900
H 	H 	0.72407 0.74223 0.81633 0.03500
O 	O 	0.16007 0.64333 0.45323 -0.47800
C 	C 	0.21853 0.91697 0.82387 -0.00900
H 	H 	0.39073 0.07557 0.14967 0.03300
O 	O 	0.82673 0.97667 0.78657 -0.47300
C 	C 	0.74970 0.63490 0.15720 -0.00900
H 	H 	0.59110 0.64850 0.48300 0.03500
O 	O 	0.69000 0.18340 0.11990 -0.47900
C 	C 	0.41637 0.96823 0.49053 0.00600
H 	H 	0.25777 0.98183 0.81633 0.03600
O 	O 	0.35667 0.51673 0.45323 -0.47900
C 	C 	0.08303 0.30157 0.82387 -0.01000
H 	H 	0.92443 0.31517 0.14967 0.03500
O 	O 	0.02333 0.85007 0.78657 -0.47700
C 	C 	0.36510 0.11480 0.15720 -0.01000
H 	H 	0.35150 0.94260 0.48300 0.03200
O 	O 	0.81660 0.50660 0.11990 -0.47700
C 	C 	0.03177 0.44813 0.49053 -0.02500
H 	H 	0.01817 0.27593 0.81633 0.03300
O 	O 	0.48327 0.83993 0.45323 -0.47800
C 	C 	0.69843 0.78147 0.82387 -0.00900
H 	H 	0.68483 0.60927 0.14967 0.03400
O 	O 	0.14993 0.17327 0.78657 -0.48100
C 	C 	0.25030 0.88520 0.84280 -0.00900
H 	H 	0.40890 0.05740 0.51700 0.03600
O 	O 	0.31000 0.49340 0.88010 -0.47900
C 	C 	0.91697 0.21853 0.17613 -0.00900
H 	H 	0.07557 0.39073 0.85033 0.03300
O 	O 	0.97667 0.82673 0.21343 -0.47300
C 	C 	0.58363 0.55187 0.50947 -0.00900
H 	H 	0.74223 0.72407 0.18367 0.03500
O 	O 	0.64333 0.16007 0.54677 -0.47800
C 	C 	0.63490 0.74970 0.84280 -0.00900
H 	H 	0.64850 0.59110 0.51700 0.03500
O 	O 	0.18340 0.69000 0.88010 -0.47900
C 	C 	0.30157 0.08303 0.17613 -0.01000
H 	H 	0.31517 0.92443 0.85033 0.03500
O 	O 	0.85007 0.02333 0.21343 -0.47700
C 	C 	0.96823 0.41637 0.50947 0.00600
H 	H 	0.98183 0.25777 0.18367 0.03600
O 	O 	0.51673 0.35667 0.54677 -0.47900
C 	C 	0.11480 0.36510 0.84280 -0.01000
H 	H 	0.94260 0.35150 0.51700 0.03200
O 	O 	0.50660 0.81660 0.88010 -0.47700
C 	C 	0.78147 0.69843 0.17613 -0.00900
H 	H 	0.60927 0.68483 0.85033 0.03400
O 	O 	0.17327 0.14993 0.21343 -0.48100
C 	C 	0.44813 0.03177 0.50947 -0.02500
H 	H 	0.27593 0.01817 0.18367 0.03300
O 	O 	0.83993 0.48327 0.54677 -0.47800
C 	C 	0.11480 0.74970 0.84280 -0.00900
H 	H 	0.94260 0.59110 0.51700 0.03300
O 	O 	0.50660 0.69000 0.88010 -0.47800
C 	C 	0.78147 0.08303 0.17613 -0.01000
H 	H 	0.60927 0.92443 0.85033 0.03600
O 	O 	0.17327 0.02333 0.21343 -0.48100
C 	C 	0.44813 0.41637 0.50947 -0.01000
H 	H 	0.27593 0.25777 0.18367 0.03300
O 	O 	0.83993 0.35667 0.54677 -0.47900
C 	C 	0.25030 0.36510 0.84280 -0.01000
H 	H 	0.40890 0.35150 0.51700 0.03300
O 	O 	0.31000 0.81660 0.88010 -0.47800
C 	C 	0.91697 0.69843 0.17613 -0.00900
H 	H 	0.07557 0.68483 0.85033 0.03400
O 	O 	0.97667 0.14993 0.21343 -0.47300
C 	C 	0.58363 0.03177 0.50947 -0.02500
H 	H 	0.74223 0.01817 0.18367 0.03400
O 	O 	0.64333 0.48327 0.54677 -0.47800
C 	C 	0.63490 0.88520 0.84280 -0.00900
H 	H 	0.64850 0.05740 0.51700 0.03700
O 	O 	0.18340 0.49340 0.88010 -0.47900
C 	C 	0.30157 0.21853 0.17613 -0.01000
H 	H 	0.31517 0.39073 0.85033 0.03400
O 	O 	0.85007 0.82673 0.21343 -0.47600
C 	C 	0.96823 0.55187 0.50947 0.00600
H 	H 	0.98183 0.72407 0.18367 0.03700
O 	O 	0.51673 0.16007 0.54677 -0.47900
C 	C 	0.74970 0.11480 0.15720 -0.00900
H 	H 	0.59110 0.94260 0.48300 0.03300
O 	O 	0.69000 0.50660 0.11990 -0.47800
C 	C 	0.41637 0.44813 0.49053 -0.01000
H 	H 	0.25777 0.27593 0.81633 0.03300
O 	O 	0.35667 0.83993 0.45323 -0.47900
C 	C 	0.08303 0.78147 0.82387 -0.01000
H 	H 	0.92443 0.60927 0.14967 0.03600
O 	O 	0.02333 0.17327 0.78657 -0.48100
C 	C 	0.36510 0.25030 0.15720 -0.01000
H 	H 	0.35150 0.40890 0.48300 0.03300
O 	O 	0.81660 0.31000 0.11990 -0.47800
C 	C 	0.03177 0.58363 0.49053 -0.02500
H 	H 	0.01817 0.74223 0.81633 0.03400
O 	O 	0.48327 0.64333 0.45323 -0.47800
C 	C 	0.69843 0.91697 0.82387 -0.00900
H 	H 	0.68483 0.07557 0.14967 0.03400
O 	O 	0.14993 0.97667 0.78657 -0.47300
C 	C 	0.88520 0.63490 0.15720 -0.00900
H 	H 	0.05740 0.64850 0.48300 0.03700
O 	O 	0.49340 0.18340 0.11990 -0.47900
C 	C 	0.55187 0.96823 0.49053 0.00600
H 	H 	0.72407 0.98183 0.81633 0.03700
O 	O 	0.16007 0.51673 0.45323 -0.47900
C 	C 	0.21853 0.30157 0.82387 -0.01000
H 	H 	0.39073 0.31517 0.14967 0.03400
O 	O 	0.82673 0.85007 0.78657 -0.47600
C 	C 	0.56950 0.43050 0.03740 0.36400
C 	C 	0.76660 0.23340 0.12760 0.35800
C 	C 	0.54290 0.45710 0.99170 -0.00900
C 	C 	0.49050 0.50950 0.02620 -0.00900
C 	C 	0.53360 0.46640 0.01800 -0.09300
C 	C 	0.80140 0.19860 0.14770 -0.09200
H 	H 	0.09030 0.90970 0.34780 0.03700
O 	O 	0.55870 0.44130 0.06090 -0.48000
O 	O 	0.60780 0.39220 0.02870 -0.50300
C 	C 	0.23617 0.76383 0.37073 0.36400
C 	C 	0.43327 0.56673 0.46093 0.35800
C 	C 	0.20957 0.79043 0.32503 -0.00900
C 	C 	0.15717 0.84283 0.35953 -0.00900
C 	C 	0.20027 0.79973 0.35133 -0.09300
C 	C 	0.46807 0.53193 0.48103 -0.09200
H 	H 	0.75697 0.24303 0.68113 0.03700
O 	O 	0.22537 0.77463 0.39423 -0.48000
O 	O 	0.27447 0.72553 0.36203 -0.50300
C 	C 	0.90283 0.09717 0.70407 0.36400
C 	C 	0.09993 0.90007 0.79427 0.35800
C 	C 	0.87623 0.12377 0.65837 -0.00900
C 	C 	0.82383 0.17617 0.69287 -0.00900
C 	C 	0.86693 0.13307 0.68467 -0.09300
C 	C 	0.13473 0.86527 0.81437 -0.09100
H 	H 	0.42363 0.57637 0.01447 0.03700
O 	O 	0.89203 0.10797 0.72757 -0.48100
O 	O 	0.94113 0.05887 0.69537 -0.50400
C 	C 	0.56950 0.13900 0.03740 0.36700
C 	C 	0.76660 0.53320 0.12760 0.35800
C 	C 	0.54290 0.08580 0.99170 -0.00200
C 	C 	0.49050 0.98100 0.02620 0.00200
C 	C 	0.53360 0.06720 0.01800 -0.10300
C 	C 	0.80140 0.60280 0.14770 -0.09200
H 	H 	0.09030 0.18060 0.34780 0.03600
O 	O 	0.55870 0.11740 0.06090 -0.48200
O 	O 	0.60780 0.21560 0.02870 -0.50400
C 	C 	0.23617 0.47233 0.37073 0.36400
C 	C 	0.43327 0.86653 0.46093 0.36100
C 	C 	0.20957 0.41913 0.32503 -0.00900
C 	C 	0.15717 0.31433 0.35953 -0.01000
C 	C 	0.20027 0.40053 0.35133 -0.09300
C 	C 	0.46807 0.93613 0.48103 -0.10000
H 	H 	0.75697 0.51393 0.68113 0.03800
O 	O 	0.22537 0.45073 0.39423 -0.48100
O 	O 	0.27447 0.54893 0.36203 -0.50300
C 	C 	0.90283 0.80567 0.70407 0.36400
C 	C 	0.09993 0.19987 0.79427 0.35800
C 	C 	0.87623 0.75247 0.65837 -0.00800
C 	C 	0.82383 0.64767 0.69287 -0.00900
C 	C 	0.86693 0.73387 0.68467 -0.09100
C 	C 	0.13473 0.26947 0.81437 -0.09400
H 	H 	0.42363 0.84727 0.01447 0.04000
O 	O 	0.89203 0.78407 0.72757 -0.47700
O 	O 	0.94113 0.88227 0.69537 -0.49600
C 	C 	0.86100 0.43050 0.03740 0.36100
C 	C 	0.46680 0.23340 0.12760 0.35800
C 	C 	0.91420 0.45710 0.99170 -0.01500
C 	C 	0.01900 0.50950 0.02620 -0.02200
C 	C 	0.93280 0.46640 0.01800 -0.08100
C 	C 	0.39720 0.19860 0.14770 -0.09300
H 	H 	0.81940 0.90970 0.34780 0.04000
O 	O 	0.88260 0.44130 0.06090 -0.47700
O 	O 	0.78440 0.39220 0.02870 -0.50200
C 	C 	0.52767 0.76383 0.37073 0.36400
C 	C 	0.13347 0.56673 0.46093 0.35500
C 	C 	0.58087 0.79043 0.32503 -0.00800
C 	C 	0.68567 0.84283 0.35953 -0.00800
C 	C 	0.59947 0.79973 0.35133 -0.09200
C 	C 	0.06387 0.53193 0.48103 -0.08400
H 	H 	0.48607 0.24303 0.68113 0.03700
O 	O 	0.54927 0.77463 0.39423 -0.47900
O 	O 	0.45107 0.72553 0.36203 -0.50300
C 	C 	0.19433 0.09717 0.70407 0.36400
C 	C 	0.80013 0.90007 0.79427 0.35800
C 	C 	0.24753 0.12377 0.65837 -0.00900
C 	C 	0.35233 0.17617 0.69287 -0.00900
C 	C 	0.26613 0.13307 0.68467 -0.09400
C 	C 	0.73053 0.86527 0.81437 -0.09100
H 	H 	0.15273 0.57637 0.01447 0.03500
O 	O 	0.21593 0.10797 0.72757 -0.48200
O 	O 	0.11773 0.05887 0.69537 -0.50600
C 	C 	0.43050 0.56950 0.96260 0.36400
C 	C 	0.23340 0.76660 0.87240 0.35800
C 	C 	0.45710 0.54290 0.00830 -0.00900
C 	C 	0.50950 0.49050 0.97380 -0.00900
C 	C 	0.46640 0.53360 0.98200 -0.09300
C 	C 	0.19860 0.80140 0.85230 -0.09200
H 	H 	0.90970 0.09030 0.65220 0.03700
O 	O 	0.44130 0.55870 0.93910 -0.48000
O 	O 	0.39220 0.60780 0.97130 -0.50300
C 	C 	0.09717 0.90283 0.29593 0.36400
C 	C 	0.90007 0.09993 0.20573 0.35800
C 	C 	0.12377 0.87623 0.34163 -0.00900
C 	C 	0.17617 0.82383 0.30713 -0.00900
C 	C 	0.13307 0.86693 0.31533 -0.09300
C 	C 	0.86527 0.13473 0.18563 -0.09100
H 	H 	0.57637 0.42363 0.98553 0.03700
O 	O 	0.10797 0.89203 0.27243 -0.48100
O 	O 	0.05887 0.94113 0.30463 -0.50400
C 	C 	0.76383 0.23617 0.62927 0.36400
C 	C 	0.56673 0.43327 0.53907 0.35800
C 	C 	0.79043 0.20957 0.67497 -0.00900
C 	C 	0.84283 0.15717 0.64047 -0.00900
C 	C 	0.79973 0.20027 0.64867 -0.09300
C 	C 	0.53193 0.46807 0.51897 -0.09200
H 	H 	0.24303 0.75697 0.31887 0.03700
O 	O 	0.77463 0.22537 0.60577 -0.48000
O 	O 	0.72553 0.27447 0.63797 -0.50300
C 	C 	0.13900 0.56950 0.96260 0.36700
C 	C 	0.53320 0.76660 0.87240 0.35800
C 	C 	0.08580 0.54290 0.00830 -0.00200
C 	C 	0.98100 0.49050 0.97380 0.00200
C 	C 	0.06720 0.53360 0.98200 -0.10300
C 	C 	0.60280 0.80140 0.85230 -0.09200
H 	H 	0.18060 0.09030 0.65220 0.03600
O 	O 	0.11740 0.55870 0.93910 -0.48200
O 	O 	0.21560 0.60780 0.97130 -0.50400
C 	C 	0.80567 0.90283 0.29593 0.36400
C 	C 	0.19987 0.09993 0.20573 0.35800
C 	C 	0.75247 0.87623 0.34163 -0.00800
C 	C 	0.64767 0.82383 0.30713 -0.00900
C 	C 	0.73387 0.86693 0.31533 -0.09100
C 	C 	0.26947 0.13473 0.18563 -0.09400
H 	H 	0.84727 0.42363 0.98553 0.04000
O 	O 	0.78407 0.89203 0.27243 -0.47700
O 	O 	0.88227 0.94113 0.30463 -0.49600
C 	C 	0.47233 0.23617 0.62927 0.36400
C 	C 	0.86653 0.43327 0.53907 0.36100
C 	C 	0.41913 0.20957 0.67497 -0.00900
C 	C 	0.31433 0.15717 0.64047 -0.01000
C 	C 	0.40053 0.20027 0.64867 -0.09300
C 	C 	0.93613 0.46807 0.51897 -0.10000
H 	H 	0.51393 0.75697 0.31887 0.03800
O 	O 	0.45073 0.22537 0.60577 -0.48100
O 	O 	0.54893 0.27447 0.63797 -0.50300
C 	C 	0.43050 0.86100 0.96260 0.36100
C 	C 	0.23340 0.46680 0.87240 0.35800
C 	C 	0.45710 0.91420 0.00830 -0.01500
C 	C 	0.50950 0.01900 0.97380 -0.02200
C 	C 	0.46640 0.93280 0.98200 -0.08100
C 	C 	0.19860 0.39720 0.85230 -0.09300
H 	H 	0.90970 0.81940 0.65220 0.04000
O 	O 	0.44130 0.88260 0.93910 -0.47700
O 	O 	0.39220 0.78440 0.97130 -0.50200
C 	C 	0.09717 0.19433 0.29593 0.36400
C 	C 	0.90007 0.80013 0.20573 0.35800
C 	C 	0.12377 0.24753 0.34163 -0.00900
C 	C 	0.17617 0.35233 0.30713 -0.00900
C 	C 	0.13307 0.26613 0.31533 -0.09400
C 	C 	0.86527 0.73053 0.18563 -0.09100
H 	H 	0.57637 0.15273 0.98553 0.03500
O 	O 	0.10797 0.21593 0.27243 -0.48200
O 	O 	0.05887 0.11773 0.30463 -0.50600
C 	C 	0.76383 0.52767 0.62927 0.36400
C 	C 	0.56673 0.13347 0.53907 0.35500
C 	C 	0.79043 0.58087 0.67497 -0.00800
C 	C 	0.84283 0.68567 0.64047 -0.00800
C 	C 	0.79973 0.59947 0.64867 -0.09200
C 	C 	0.53193 0.06387 0.51897 -0.08400
H 	H 	0.24303 0.48607 0.31887 0.03700
O 	O 	0.77463 0.54927 0.60577 -0.47900
O 	O 	0.72553 0.45107 0.63797 -0.50300
Cd	Cd	0.20080 0.60040 0.90500 1.19400
H 	H 	0.69930 0.84965 0.38000 0.03700
Cd	Cd	0.86747 0.93373 0.23833 1.19600
H 	H 	0.36597 0.18298 0.71333 0.03400
Cd	Cd	0.53413 0.26707 0.57167 1.19300
H 	H 	0.03263 0.51632 0.04667 0.03600
Cd	Cd	0.39960 0.60040 0.90500 1.19400
H 	H 	0.15035 0.84965 0.38000 0.03500
Cd	Cd	0.06627 0.93373 0.23833 1.19300
H 	H 	0.81702 0.18298 0.71333 0.03500
Cd	Cd	0.73293 0.26707 0.57167 1.19400
H 	H 	0.48368 0.51632 0.04667 0.03500
Cd	Cd	0.39960 0.79920 0.90500 1.19400
H 	H 	0.15035 0.30070 0.38000 0.03400
Cd	Cd	0.06627 0.13253 0.23833 1.19200
H 	H 	0.81702 0.63403 0.71333 0.03600
Cd	Cd	0.73293 0.46587 0.57167 1.19400
H 	H 	0.48368 0.96737 0.04667 0.03400
Cd	Cd	0.60040 0.20080 0.09500 1.19400
H 	H 	0.84965 0.69930 0.62000 0.03700
Cd	Cd	0.26707 0.53413 0.42833 1.19300
H 	H 	0.51632 0.03263 0.95333 0.03600
Cd	Cd	0.93373 0.86747 0.76167 1.19600
H 	H 	0.18298 0.36597 0.28667 0.03400
Cd	Cd	0.60040 0.39960 0.09500 1.19400
H 	H 	0.84965 0.15035 0.62000 0.03500
Cd	Cd	0.26707 0.73293 0.42833 1.19400
H 	H 	0.51632 0.48368 0.95333 0.03500
Cd	Cd	0.93373 0.06627 0.76167 1.19300
H 	H 	0.18298 0.81702 0.28667 0.03500
Cd	Cd	0.79920 0.39960 0.09500 1.19400
H 	H 	0.30070 0.15035 0.62000 0.03400
Cd	Cd	0.46587 0.73293 0.42833 1.19400
H 	H 	0.96737 0.48368 0.95333 0.03400
Cd	Cd	0.13253 0.06627 0.76167 1.19200
H 	H 	0.63403 0.81702 0.28667 0.03600
O 	O 	0.33333 0.66667 0.91960 -0.89100
O 	O 	0.00000 0.00000 0.25293 -0.89800
O 	O 	0.66667 0.33333 0.58627 -0.89100
O 	O 	0.66667 0.33333 0.08040 -0.89100
O 	O 	0.33333 0.66667 0.41373 -0.89100
O 	O 	-0.00000 0.00000 0.74707 -0.89800
Zn	Zn	-0.00000 -0.00000 0.29010 1.19900
Zn	Zn	0.66667 0.33333 0.62343 1.20200
Zn	Zn	0.33333 0.66667 0.95677 1.20200
Zn	Zn	0.00000 0.00000 0.70990 1.19900
Zn	Zn	0.66667 0.33333 0.04323 1.20200
Zn	Zn	0.33333 0.66667 0.37657 1.20200
