data_crystal

_cell_length_a 22.20300
_cell_length_b 13.67400
_cell_length_c 27.30300
_cell_angle_alpha 90.00000
_cell_angle_beta  94.76000
_cell_angle_gamma 90.00000

_symmetry_space_group_name_	'P 1'
_symmetry_space_group_name_H-M	'P 1'

loop_
_symmetry_equiv_pos_as_xyz
  x,y,z

loop_
_atom_site_label
_atom_site_type_symbol
_atom_site_fract_x
_atom_site_fract_y
_atom_site_fract_z
_atom_site_charge
Ru	Ru	0.16157 0.59796 0.63847 0.95200
Br	Br	0.93124 0.47280 0.70141 -0.26500
N 	N 	0.09290 0.49810 0.64227 -0.19000
N 	N 	0.19800 0.47600 0.60810 -0.21800
N 	N 	0.13260 0.64920 0.56970 -0.20800
N 	N 	0.22850 0.69950 0.62830 -0.20900
N 	N 	0.19470 0.56800 0.70940 -0.20600
N 	N 	0.12080 0.70870 0.67460 -0.20800
C 	C 	0.04200 0.51460 0.66350 -0.02900
H 	H 	0.03570 0.57680 0.67780 0.05600
C 	C 	0.99810 0.44330 0.66530 0.12700
C 	C 	0.00500 0.35530 0.64270 -0.10200
H 	H 	0.97420 0.30700 0.64260 0.07400
C 	C 	0.05710 0.33700 0.61990 -0.02800
H 	H 	0.06270 0.27670 0.60360 0.03500
C 	C 	0.10160 0.40990 0.62150 0.02000
C 	C 	0.16090 0.39630 0.60200 0.06400
C 	C 	0.17930 0.31070 0.58130 -0.11700
H 	H 	0.15250 0.25660 0.57710 0.06500
C 	C 	0.23780 0.30460 0.56670 0.03500
H 	H 	0.25140 0.24600 0.55240 0.01400
C 	C 	0.27600 0.38440 0.57300 -0.12200
H 	H 	0.31610 0.38120 0.56340 0.06600
C 	C 	0.25480 0.46880 0.59370 0.06400
H 	H 	0.28100 0.52360 0.59790 -0.00600
C 	C 	0.08540 0.62170 0.53950 0.04800
H 	H 	0.06160 0.56820 0.54900 0.00600
C 	C 	0.06900 0.66780 0.49460 -0.07900
H 	H 	0.03520 0.64520 0.47410 0.05600
C 	C 	0.10230 0.74580 0.48030 -0.03800
H 	H 	0.09140 0.77870 0.45020 0.04100
C 	C 	0.15190 0.77570 0.51040 0.01000
C 	C 	0.16640 0.72670 0.55450 0.02100
C 	C 	0.19030 0.85580 0.49820 -0.05300
H 	H 	0.18140 0.89040 0.46830 0.04600
C 	C 	0.23950 0.88290 0.52920 -0.05300
H 	H 	0.26400 0.93590 0.52040 0.04900
C 	C 	0.25390 0.83310 0.57390 0.00700
C 	C 	0.21740 0.75340 0.58620 0.02600
C 	C 	0.27550 0.72470 0.65850 0.05600
H 	H 	0.28380 0.68780 0.68780 0.00500
C 	C 	0.31380 0.80320 0.64960 -0.08700
H 	H 	0.34680 0.81880 0.67270 0.07800
C 	C 	0.30370 0.85670 0.60800 -0.02900
H 	H 	0.32960 0.90970 0.60170 0.05000
C 	C 	0.23130 0.49620 0.72670 0.05500
H 	H 	0.24330 0.44850 0.70410 0.00700
C 	C 	0.25310 0.48730 0.77610 -0.07400
H 	H 	0.27930 0.43530 0.78670 0.06000
C 	C 	0.23500 0.55770 0.80960 -0.03300
H 	H 	0.24880 0.55340 0.84350 0.04500
C 	C 	0.19710 0.63350 0.79290 0.02100
C 	C 	0.17670 0.63690 0.74280 0.02800
C 	C 	0.13720 0.71210 0.72410 0.03300
C 	C 	0.11630 0.78410 0.75460 0.00400
C 	C 	0.13920 0.77870 0.80570 -0.04400
H 	H 	0.12740 0.82790 0.82760 0.04400
C 	C 	0.17570 0.70870 0.82350 -0.05200
H 	H 	0.18810 0.70830 0.85770 0.05000
C 	C 	0.08200 0.77630 0.65570 0.04900
H 	H 	0.06860 0.77280 0.62180 0.00600
C 	C 	0.06040 0.85180 0.68390 -0.07800
H 	H 	0.03400 0.89980 0.66900 0.05300
C 	C 	0.07730 0.85620 0.73220 -0.03100
H 	H 	0.06300 0.90780 0.75150 0.03900
Ru	Ru	0.66157 0.09796 0.63847 0.95100
Br	Br	0.43124 0.97280 0.70141 -0.26600
N 	N 	0.59290 0.99810 0.64227 -0.19000
N 	N 	0.69800 0.97600 0.60810 -0.21900
N 	N 	0.63260 0.14920 0.56970 -0.20900
N 	N 	0.72850 0.19950 0.62830 -0.21000
N 	N 	0.69470 0.06800 0.70940 -0.20600
N 	N 	0.62080 0.20870 0.67460 -0.20800
C 	C 	0.54200 0.01460 0.66350 -0.03000
H 	H 	0.53570 0.07680 0.67780 0.05600
C 	C 	0.49810 0.94330 0.66530 0.12800
C 	C 	0.50500 0.85530 0.64270 -0.10200
H 	H 	0.47420 0.80700 0.64260 0.07500
C 	C 	0.55710 0.83700 0.61990 -0.02800
H 	H 	0.56270 0.77670 0.60360 0.03500
C 	C 	0.60160 0.90990 0.62150 0.02000
C 	C 	0.66090 0.89630 0.60200 0.06400
C 	C 	0.67930 0.81070 0.58130 -0.11700
H 	H 	0.65250 0.75660 0.57710 0.06500
C 	C 	0.73780 0.80460 0.56670 0.03500
H 	H 	0.75140 0.74600 0.55240 0.01400
C 	C 	0.77600 0.88440 0.57300 -0.12200
H 	H 	0.81610 0.88120 0.56340 0.06600
C 	C 	0.75480 0.96880 0.59370 0.06500
H 	H 	0.78100 0.02360 0.59790 -0.00700
C 	C 	0.58540 0.12170 0.53950 0.04800
H 	H 	0.56160 0.06820 0.54900 0.00600
C 	C 	0.56900 0.16780 0.49460 -0.07900
H 	H 	0.53520 0.14520 0.47410 0.05600
C 	C 	0.60230 0.24580 0.48030 -0.03800
H 	H 	0.59140 0.27870 0.45020 0.04100
C 	C 	0.65190 0.27570 0.51040 0.01000
C 	C 	0.66640 0.22670 0.55450 0.02100
C 	C 	0.69030 0.35580 0.49820 -0.05300
H 	H 	0.68140 0.39040 0.46830 0.04600
C 	C 	0.73950 0.38290 0.52920 -0.05300
H 	H 	0.76400 0.43590 0.52040 0.04900
C 	C 	0.75390 0.33310 0.57390 0.00700
C 	C 	0.71740 0.25340 0.58620 0.02600
C 	C 	0.77550 0.22470 0.65850 0.05600
H 	H 	0.78380 0.18780 0.68780 0.00500
C 	C 	0.81380 0.30320 0.64960 -0.08800
H 	H 	0.84680 0.31880 0.67270 0.07800
C 	C 	0.80370 0.35670 0.60800 -0.02900
H 	H 	0.82960 0.40970 0.60170 0.05000
C 	C 	0.73130 0.99620 0.72670 0.05500
H 	H 	0.74330 0.94850 0.70410 0.00700
C 	C 	0.75310 0.98730 0.77610 -0.07300
H 	H 	0.77930 0.93530 0.78670 0.06000
C 	C 	0.73500 0.05770 0.80960 -0.03400
H 	H 	0.74880 0.05340 0.84350 0.04500
C 	C 	0.69710 0.13350 0.79290 0.02100
C 	C 	0.67670 0.13690 0.74280 0.02700
C 	C 	0.63720 0.21210 0.72410 0.03300
C 	C 	0.61630 0.28410 0.75460 0.00400
C 	C 	0.63920 0.27870 0.80570 -0.04400
H 	H 	0.62740 0.32790 0.82760 0.04400
C 	C 	0.67570 0.20870 0.82350 -0.05200
H 	H 	0.68810 0.20830 0.85770 0.05000
C 	C 	0.58200 0.27630 0.65570 0.04900
H 	H 	0.56860 0.27280 0.62180 0.00600
C 	C 	0.56040 0.35180 0.68390 -0.07800
H 	H 	0.53400 0.39980 0.66900 0.05300
C 	C 	0.57730 0.35620 0.73220 -0.03100
H 	H 	0.56300 0.40780 0.75150 0.03900
Ru	Ru	0.83843 0.59796 0.86153 0.95100
Br	Br	0.06876 0.47280 0.79859 -0.26600
N 	N 	0.90710 0.49810 0.85773 -0.19100
N 	N 	0.80200 0.47600 0.89190 -0.21900
N 	N 	0.86740 0.64920 0.93030 -0.20900
N 	N 	0.77150 0.69950 0.87170 -0.21000
N 	N 	0.80530 0.56800 0.79060 -0.20600
N 	N 	0.87920 0.70870 0.82540 -0.20800
C 	C 	0.95800 0.51460 0.83650 -0.02900
H 	H 	0.96430 0.57680 0.82220 0.05600
C 	C 	0.00190 0.44330 0.83470 0.12700
C 	C 	0.99500 0.35530 0.85730 -0.10200
H 	H 	0.02580 0.30700 0.85740 0.07400
C 	C 	0.94290 0.33700 0.88010 -0.02900
H 	H 	0.93730 0.27670 0.89640 0.03500
C 	C 	0.89840 0.40990 0.87850 0.02000
C 	C 	0.83910 0.39630 0.89800 0.06400
C 	C 	0.82070 0.31070 0.91870 -0.11700
H 	H 	0.84750 0.25660 0.92290 0.06500
C 	C 	0.76220 0.30460 0.93330 0.03500
H 	H 	0.74860 0.24600 0.94760 0.01400
C 	C 	0.72400 0.38440 0.92700 -0.12200
H 	H 	0.68390 0.38120 0.93660 0.06600
C 	C 	0.74520 0.46880 0.90630 0.06400
H 	H 	0.71900 0.52360 0.90210 -0.00600
C 	C 	0.91460 0.62170 0.96050 0.04800
H 	H 	0.93840 0.56820 0.95100 0.00600
C 	C 	0.93100 0.66780 0.00540 -0.07800
H 	H 	0.96480 0.64520 0.02590 0.05600
C 	C 	0.89770 0.74580 0.01970 -0.04000
H 	H 	0.90860 0.77870 0.04980 0.04200
C 	C 	0.84810 0.77570 0.98960 0.01300
C 	C 	0.83360 0.72670 0.94550 0.02000
C 	C 	0.80970 0.85580 0.00180 -0.05600
H 	H 	0.81860 0.89040 0.03170 0.04700
C 	C 	0.76050 0.88290 0.97080 -0.05100
H 	H 	0.73600 0.93590 0.97960 0.04900
C 	C 	0.74610 0.83310 0.92610 0.00600
C 	C 	0.78260 0.75340 0.91380 0.02600
C 	C 	0.72450 0.72470 0.84150 0.05600
H 	H 	0.71620 0.68780 0.81220 0.00500
C 	C 	0.68620 0.80320 0.85040 -0.08800
H 	H 	0.65320 0.81880 0.82730 0.07800
C 	C 	0.69630 0.85670 0.89200 -0.02900
H 	H 	0.67040 0.90970 0.89830 0.04900
C 	C 	0.76870 0.49620 0.77330 0.05500
H 	H 	0.75670 0.44850 0.79590 0.00700
C 	C 	0.74690 0.48730 0.72390 -0.07400
H 	H 	0.72070 0.43530 0.71330 0.06000
C 	C 	0.76500 0.55770 0.69040 -0.03300
H 	H 	0.75120 0.55340 0.65650 0.04500
C 	C 	0.80290 0.63350 0.70710 0.02100
C 	C 	0.82330 0.63690 0.75720 0.02700
C 	C 	0.86280 0.71210 0.77590 0.03300
C 	C 	0.88370 0.78410 0.74540 0.00400
C 	C 	0.86080 0.77870 0.69430 -0.04400
H 	H 	0.87260 0.82790 0.67240 0.04400
C 	C 	0.82430 0.70870 0.67650 -0.05200
H 	H 	0.81190 0.70830 0.64230 0.05000
C 	C 	0.91800 0.77630 0.84430 0.05000
H 	H 	0.93140 0.77280 0.87820 0.00600
C 	C 	0.93960 0.85180 0.81610 -0.07800
H 	H 	0.96600 0.89980 0.83100 0.05300
C 	C 	0.92270 0.85620 0.76780 -0.03100
H 	H 	0.93700 0.90780 0.74850 0.03900
Ru	Ru	0.33843 0.09796 0.86153 0.95100
Br	Br	0.56876 0.97280 0.79859 -0.26600
N 	N 	0.40710 0.99810 0.85773 -0.19000
N 	N 	0.30200 0.97600 0.89190 -0.21900
N 	N 	0.36740 0.14920 0.93030 -0.20900
N 	N 	0.27150 0.19950 0.87170 -0.21000
N 	N 	0.30530 0.06800 0.79060 -0.20600
N 	N 	0.37920 0.20870 0.82540 -0.20800
C 	C 	0.45800 0.01460 0.83650 -0.03100
H 	H 	0.46430 0.07680 0.82220 0.05700
C 	C 	0.50190 0.94330 0.83470 0.12800
C 	C 	0.49500 0.85530 0.85730 -0.10300
H 	H 	0.52580 0.80700 0.85740 0.07500
C 	C 	0.44290 0.83700 0.88010 -0.02800
H 	H 	0.43730 0.77670 0.89640 0.03500
C 	C 	0.39840 0.90990 0.87850 0.01900
C 	C 	0.33910 0.89630 0.89800 0.06400
C 	C 	0.32070 0.81070 0.91870 -0.11700
H 	H 	0.34750 0.75660 0.92290 0.06600
C 	C 	0.26220 0.80460 0.93330 0.03500
H 	H 	0.24860 0.74600 0.94760 0.01400
C 	C 	0.22400 0.88440 0.92700 -0.12300
H 	H 	0.18390 0.88120 0.93660 0.06600
C 	C 	0.24520 0.96880 0.90630 0.06600
H 	H 	0.21900 0.02360 0.90210 -0.00700
C 	C 	0.41460 0.12170 0.96050 0.04700
H 	H 	0.43840 0.06820 0.95100 0.00600
C 	C 	0.43100 0.16780 0.00540 -0.07800
H 	H 	0.46480 0.14520 0.02590 0.05600
C 	C 	0.39770 0.24580 0.01970 -0.03700
H 	H 	0.40860 0.27870 0.04980 0.04100
C 	C 	0.34810 0.27570 0.98960 0.00900
C 	C 	0.33360 0.22670 0.94550 0.02100
C 	C 	0.30970 0.35580 0.00180 -0.05100
H 	H 	0.31860 0.39040 0.03170 0.04500
C 	C 	0.26050 0.38290 0.97080 -0.05400
H 	H 	0.23600 0.43590 0.97960 0.05000
C 	C 	0.24610 0.33310 0.92610 0.00700
C 	C 	0.28260 0.25340 0.91380 0.02500
C 	C 	0.22450 0.22470 0.84150 0.05600
H 	H 	0.21620 0.18780 0.81220 0.00500
C 	C 	0.18620 0.30320 0.85040 -0.08700
H 	H 	0.15320 0.31880 0.82730 0.07800
C 	C 	0.19630 0.35670 0.89200 -0.03000
H 	H 	0.17040 0.40970 0.89830 0.05000
C 	C 	0.26870 0.99620 0.77330 0.05500
H 	H 	0.25670 0.94850 0.79590 0.00700
C 	C 	0.24690 0.98730 0.72390 -0.07300
H 	H 	0.22070 0.93530 0.71330 0.06000
C 	C 	0.26500 0.05770 0.69040 -0.03400
H 	H 	0.25120 0.05340 0.65650 0.04500
C 	C 	0.30290 0.13350 0.70710 0.02100
C 	C 	0.32330 0.13690 0.75720 0.02700
C 	C 	0.36280 0.21210 0.77590 0.03300
C 	C 	0.38370 0.28410 0.74540 0.00400
C 	C 	0.36080 0.27870 0.69430 -0.04400
H 	H 	0.37260 0.32790 0.67240 0.04400
C 	C 	0.32430 0.20870 0.67650 -0.05200
H 	H 	0.31190 0.20830 0.64230 0.05000
C 	C 	0.41800 0.27630 0.84430 0.04900
H 	H 	0.43140 0.27280 0.87820 0.00600
C 	C 	0.43960 0.35180 0.81610 -0.07800
H 	H 	0.46600 0.39980 0.83100 0.05300
C 	C 	0.42270 0.35620 0.76780 -0.03100
H 	H 	0.43700 0.40780 0.74850 0.03900
Ru	Ru	0.83843 0.40204 0.36153 0.95100
Br	Br	0.06876 0.52720 0.29859 -0.26600
N 	N 	0.90710 0.50190 0.35773 -0.19100
N 	N 	0.80200 0.52400 0.39190 -0.21900
N 	N 	0.86740 0.35080 0.43030 -0.20900
N 	N 	0.77150 0.30050 0.37170 -0.21000
N 	N 	0.80530 0.43200 0.29060 -0.20600
N 	N 	0.87920 0.29130 0.32540 -0.20800
C 	C 	0.95800 0.48540 0.33650 -0.02900
H 	H 	0.96430 0.42320 0.32220 0.05600
C 	C 	0.00190 0.55670 0.33470 0.12700
C 	C 	0.99500 0.64470 0.35730 -0.10200
H 	H 	0.02580 0.69300 0.35740 0.07400
C 	C 	0.94290 0.66300 0.38010 -0.02800
H 	H 	0.93730 0.72330 0.39640 0.03500
C 	C 	0.89840 0.59010 0.37850 0.02000
C 	C 	0.83910 0.60370 0.39800 0.06400
C 	C 	0.82070 0.68930 0.41870 -0.11700
H 	H 	0.84750 0.74340 0.42290 0.06500
C 	C 	0.76220 0.69540 0.43330 0.03500
H 	H 	0.74860 0.75400 0.44760 0.01400
C 	C 	0.72400 0.61560 0.42700 -0.12200
H 	H 	0.68390 0.61880 0.43660 0.06600
C 	C 	0.74520 0.53120 0.40630 0.06400
H 	H 	0.71900 0.47640 0.40210 -0.00600
C 	C 	0.91460 0.37830 0.46050 0.04800
H 	H 	0.93840 0.43180 0.45100 0.00600
C 	C 	0.93100 0.33220 0.50540 -0.07900
H 	H 	0.96480 0.35480 0.52590 0.05600
C 	C 	0.89770 0.25420 0.51970 -0.03800
H 	H 	0.90860 0.22130 0.54980 0.04100
C 	C 	0.84810 0.22430 0.48960 0.01000
C 	C 	0.83360 0.27330 0.44550 0.02100
C 	C 	0.80970 0.14420 0.50180 -0.05300
H 	H 	0.81860 0.10960 0.53170 0.04600
C 	C 	0.76050 0.11710 0.47080 -0.05300
H 	H 	0.73600 0.06410 0.47960 0.04900
C 	C 	0.74610 0.16690 0.42610 0.00700
C 	C 	0.78260 0.24660 0.41380 0.02600
C 	C 	0.72450 0.27530 0.34150 0.05600
H 	H 	0.71620 0.31220 0.31220 0.00500
C 	C 	0.68620 0.19680 0.35040 -0.08700
H 	H 	0.65320 0.18120 0.32730 0.07800
C 	C 	0.69630 0.14330 0.39200 -0.02900
H 	H 	0.67040 0.09030 0.39830 0.05000
C 	C 	0.76870 0.50380 0.27330 0.05500
H 	H 	0.75670 0.55150 0.29590 0.00700
C 	C 	0.74690 0.51270 0.22390 -0.07400
H 	H 	0.72070 0.56470 0.21330 0.06000
C 	C 	0.76500 0.44230 0.19040 -0.03300
H 	H 	0.75120 0.44660 0.15650 0.04500
C 	C 	0.80290 0.36650 0.20710 0.02100
C 	C 	0.82330 0.36310 0.25720 0.02800
C 	C 	0.86280 0.28790 0.27590 0.03300
C 	C 	0.88370 0.21590 0.24540 0.00400
C 	C 	0.86080 0.22130 0.19430 -0.04400
H 	H 	0.87260 0.17210 0.17240 0.04400
C 	C 	0.82430 0.29130 0.17650 -0.05200
H 	H 	0.81190 0.29170 0.14230 0.05000
C 	C 	0.91800 0.22370 0.34430 0.04900
H 	H 	0.93140 0.22720 0.37820 0.00600
C 	C 	0.93960 0.14820 0.31610 -0.07800
H 	H 	0.96600 0.10020 0.33100 0.05300
C 	C 	0.92270 0.14380 0.26780 -0.03100
H 	H 	0.93700 0.09220 0.24850 0.03900
Ru	Ru	0.33843 0.90204 0.36153 0.95100
Br	Br	0.56876 0.02720 0.29859 -0.26600
N 	N 	0.40710 0.00190 0.35773 -0.19000
N 	N 	0.30200 0.02400 0.39190 -0.21900
N 	N 	0.36740 0.85080 0.43030 -0.20900
N 	N 	0.27150 0.80050 0.37170 -0.21000
N 	N 	0.30530 0.93200 0.29060 -0.20600
N 	N 	0.37920 0.79130 0.32540 -0.20800
C 	C 	0.45800 0.98540 0.33650 -0.03000
H 	H 	0.46430 0.92320 0.32220 0.05600
C 	C 	0.50190 0.05670 0.33470 0.12800
C 	C 	0.49500 0.14470 0.35730 -0.10200
H 	H 	0.52580 0.19300 0.35740 0.07500
C 	C 	0.44290 0.16300 0.38010 -0.02800
H 	H 	0.43730 0.22330 0.39640 0.03500
C 	C 	0.39840 0.09010 0.37850 0.02000
C 	C 	0.33910 0.10370 0.39800 0.06400
C 	C 	0.32070 0.18930 0.41870 -0.11700
H 	H 	0.34750 0.24340 0.42290 0.06500
C 	C 	0.26220 0.19540 0.43330 0.03500
H 	H 	0.24860 0.25400 0.44760 0.01400
C 	C 	0.22400 0.11560 0.42700 -0.12200
H 	H 	0.18390 0.11880 0.43660 0.06600
C 	C 	0.24520 0.03120 0.40630 0.06500
H 	H 	0.21900 0.97640 0.40210 -0.00700
C 	C 	0.41460 0.87830 0.46050 0.04800
H 	H 	0.43840 0.93180 0.45100 0.00600
C 	C 	0.43100 0.83220 0.50540 -0.07900
H 	H 	0.46480 0.85480 0.52590 0.05600
C 	C 	0.39770 0.75420 0.51970 -0.03800
H 	H 	0.40860 0.72130 0.54980 0.04100
C 	C 	0.34810 0.72430 0.48960 0.01000
C 	C 	0.33360 0.77330 0.44550 0.02100
C 	C 	0.30970 0.64420 0.50180 -0.05300
H 	H 	0.31860 0.60960 0.53170 0.04600
C 	C 	0.26050 0.61710 0.47080 -0.05300
H 	H 	0.23600 0.56410 0.47960 0.04900
C 	C 	0.24610 0.66690 0.42610 0.00700
C 	C 	0.28260 0.74660 0.41380 0.02600
C 	C 	0.22450 0.77530 0.34150 0.05600
H 	H 	0.21620 0.81220 0.31220 0.00500
C 	C 	0.18620 0.69680 0.35040 -0.08800
H 	H 	0.15320 0.68120 0.32730 0.07800
C 	C 	0.19630 0.64330 0.39200 -0.02900
H 	H 	0.17040 0.59030 0.39830 0.05000
C 	C 	0.26870 0.00380 0.27330 0.05500
H 	H 	0.25670 0.05150 0.29590 0.00700
C 	C 	0.24690 0.01270 0.22390 -0.07300
H 	H 	0.22070 0.06470 0.21330 0.06000
C 	C 	0.26500 0.94230 0.19040 -0.03400
H 	H 	0.25120 0.94660 0.15650 0.04500
C 	C 	0.30290 0.86650 0.20710 0.02100
C 	C 	0.32330 0.86310 0.25720 0.02700
C 	C 	0.36280 0.78790 0.27590 0.03300
C 	C 	0.38370 0.71590 0.24540 0.00400
C 	C 	0.36080 0.72130 0.19430 -0.04400
H 	H 	0.37260 0.67210 0.17240 0.04400
C 	C 	0.32430 0.79130 0.17650 -0.05200
H 	H 	0.31190 0.79170 0.14230 0.05000
C 	C 	0.41800 0.72370 0.34430 0.04900
H 	H 	0.43140 0.72720 0.37820 0.00600
C 	C 	0.43960 0.64820 0.31610 -0.07800
H 	H 	0.46600 0.60020 0.33100 0.05300
C 	C 	0.42270 0.64380 0.26780 -0.03100
H 	H 	0.43700 0.59220 0.24850 0.03900
Ru	Ru	0.16157 0.40204 0.13847 0.95100
Br	Br	0.93124 0.52720 0.20141 -0.26600
N 	N 	0.09290 0.50190 0.14227 -0.19100
N 	N 	0.19800 0.52400 0.10810 -0.21900
N 	N 	0.13260 0.35080 0.06970 -0.20900
N 	N 	0.22850 0.30050 0.12830 -0.21000
N 	N 	0.19470 0.43200 0.20940 -0.20600
N 	N 	0.12080 0.29130 0.17460 -0.20800
C 	C 	0.04200 0.48540 0.16350 -0.02900
H 	H 	0.03570 0.42320 0.17780 0.05600
C 	C 	0.99810 0.55670 0.16530 0.12700
C 	C 	0.00500 0.64470 0.14270 -0.10200
H 	H 	0.97420 0.69300 0.14260 0.07400
C 	C 	0.05710 0.66300 0.11990 -0.02900
H 	H 	0.06270 0.72330 0.10360 0.03500
C 	C 	0.10160 0.59010 0.12150 0.02000
C 	C 	0.16090 0.60370 0.10200 0.06400
C 	C 	0.17930 0.68930 0.08130 -0.11700
H 	H 	0.15250 0.74340 0.07710 0.06500
C 	C 	0.23780 0.69540 0.06670 0.03500
H 	H 	0.25140 0.75400 0.05240 0.01400
C 	C 	0.27600 0.61560 0.07300 -0.12200
H 	H 	0.31610 0.61880 0.06340 0.06600
C 	C 	0.25480 0.53120 0.09370 0.06400
H 	H 	0.28100 0.47640 0.09790 -0.00600
C 	C 	0.08540 0.37830 0.03950 0.04800
H 	H 	0.06160 0.43180 0.04900 0.00600
C 	C 	0.06900 0.33220 0.99460 -0.07800
H 	H 	0.03520 0.35480 0.97410 0.05600
C 	C 	0.10230 0.25420 0.98030 -0.04000
H 	H 	0.09140 0.22130 0.95020 0.04200
C 	C 	0.15190 0.22430 0.01040 0.01300
C 	C 	0.16640 0.27330 0.05450 0.02000
C 	C 	0.19030 0.14420 0.99820 -0.05600
H 	H 	0.18140 0.10960 0.96830 0.04700
C 	C 	0.23950 0.11710 0.02920 -0.05100
H 	H 	0.26400 0.06410 0.02040 0.04900
C 	C 	0.25390 0.16690 0.07390 0.00600
C 	C 	0.21740 0.24660 0.08620 0.02600
C 	C 	0.27550 0.27530 0.15850 0.05600
H 	H 	0.28380 0.31220 0.18780 0.00500
C 	C 	0.31380 0.19680 0.14960 -0.08800
H 	H 	0.34680 0.18120 0.17270 0.07800
C 	C 	0.30370 0.14330 0.10800 -0.02900
H 	H 	0.32960 0.09030 0.10170 0.04900
C 	C 	0.23130 0.50380 0.22670 0.05500
H 	H 	0.24330 0.55150 0.20410 0.00700
C 	C 	0.25310 0.51270 0.27610 -0.07400
H 	H 	0.27930 0.56470 0.28670 0.06000
C 	C 	0.23500 0.44230 0.30960 -0.03300
H 	H 	0.24880 0.44660 0.34350 0.04500
C 	C 	0.19710 0.36650 0.29290 0.02100
C 	C 	0.17670 0.36310 0.24280 0.02700
C 	C 	0.13720 0.28790 0.22410 0.03300
C 	C 	0.11630 0.21590 0.25460 0.00400
C 	C 	0.13920 0.22130 0.30570 -0.04400
H 	H 	0.12740 0.17210 0.32760 0.04400
C 	C 	0.17570 0.29130 0.32350 -0.05200
H 	H 	0.18810 0.29170 0.35770 0.05000
C 	C 	0.08200 0.22370 0.15570 0.05000
H 	H 	0.06860 0.22720 0.12180 0.00600
C 	C 	0.06040 0.14820 0.18390 -0.07800
H 	H 	0.03400 0.10020 0.16900 0.05300
C 	C 	0.07730 0.14380 0.23220 -0.03100
H 	H 	0.06300 0.09220 0.25150 0.03900
Ru	Ru	0.66157 0.90204 0.13847 0.95100
Br	Br	0.43124 0.02720 0.20141 -0.26600
N 	N 	0.59290 0.00190 0.14227 -0.19000
N 	N 	0.69800 0.02400 0.10810 -0.21900
N 	N 	0.63260 0.85080 0.06970 -0.20900
N 	N 	0.72850 0.80050 0.12830 -0.21000
N 	N 	0.69470 0.93200 0.20940 -0.20600
N 	N 	0.62080 0.79130 0.17460 -0.20800
C 	C 	0.54200 0.98540 0.16350 -0.03100
H 	H 	0.53570 0.92320 0.17780 0.05700
C 	C 	0.49810 0.05670 0.16530 0.12800
C 	C 	0.50500 0.14470 0.14270 -0.10300
H 	H 	0.47420 0.19300 0.14260 0.07500
C 	C 	0.55710 0.16300 0.11990 -0.02800
H 	H 	0.56270 0.22330 0.10360 0.03500
C 	C 	0.60160 0.09010 0.12150 0.01900
C 	C 	0.66090 0.10370 0.10200 0.06400
C 	C 	0.67930 0.18930 0.08130 -0.11700
H 	H 	0.65250 0.24340 0.07710 0.06600
C 	C 	0.73780 0.19540 0.06670 0.03500
H 	H 	0.75140 0.25400 0.05240 0.01400
C 	C 	0.77600 0.11560 0.07300 -0.12300
H 	H 	0.81610 0.11880 0.06340 0.06600
C 	C 	0.75480 0.03120 0.09370 0.06600
H 	H 	0.78100 0.97640 0.09790 -0.00700
C 	C 	0.58540 0.87830 0.03950 0.04700
H 	H 	0.56160 0.93180 0.04900 0.00600
C 	C 	0.56900 0.83220 0.99460 -0.07800
H 	H 	0.53520 0.85480 0.97410 0.05600
C 	C 	0.60230 0.75420 0.98030 -0.03700
H 	H 	0.59140 0.72130 0.95020 0.04100
C 	C 	0.65190 0.72430 0.01040 0.00900
C 	C 	0.66640 0.77330 0.05450 0.02100
C 	C 	0.69030 0.64420 0.99820 -0.05100
H 	H 	0.68140 0.60960 0.96830 0.04500
C 	C 	0.73950 0.61710 0.02920 -0.05400
H 	H 	0.76400 0.56410 0.02040 0.05000
C 	C 	0.75390 0.66690 0.07390 0.00700
C 	C 	0.71740 0.74660 0.08620 0.02500
C 	C 	0.77550 0.77530 0.15850 0.05600
H 	H 	0.78380 0.81220 0.18780 0.00500
C 	C 	0.81380 0.69680 0.14960 -0.08700
H 	H 	0.84680 0.68120 0.17270 0.07800
C 	C 	0.80370 0.64330 0.10800 -0.03000
H 	H 	0.82960 0.59030 0.10170 0.05000
C 	C 	0.73130 0.00380 0.22670 0.05500
H 	H 	0.74330 0.05150 0.20410 0.00700
C 	C 	0.75310 0.01270 0.27610 -0.07300
H 	H 	0.77930 0.06470 0.28670 0.06000
C 	C 	0.73500 0.94230 0.30960 -0.03400
H 	H 	0.74880 0.94660 0.34350 0.04500
C 	C 	0.69710 0.86650 0.29290 0.02100
C 	C 	0.67670 0.86310 0.24280 0.02700
C 	C 	0.63720 0.78790 0.22410 0.03300
C 	C 	0.61630 0.71590 0.25460 0.00400
C 	C 	0.63920 0.72130 0.30570 -0.04400
H 	H 	0.62740 0.67210 0.32760 0.04400
C 	C 	0.67570 0.79130 0.32350 -0.05200
H 	H 	0.68810 0.79170 0.35770 0.05000
C 	C 	0.58200 0.72370 0.15570 0.04900
H 	H 	0.56860 0.72720 0.12180 0.00600
C 	C 	0.56040 0.64820 0.18390 -0.07800
H 	H 	0.53400 0.60020 0.16900 0.05300
C 	C 	0.57730 0.64380 0.23220 -0.03100
H 	H 	0.56300 0.59220 0.25150 0.03900
