data_crystal

_cell_length_a 9.71930
_cell_length_b 23.10920
_cell_length_c 7.19300
_cell_angle_alpha 90.00000
_cell_angle_beta  131.00600
_cell_angle_gamma 90.00000

_symmetry_space_group_name_	'P 1'
_symmetry_space_group_name_H-M	'P 1'

loop_
_symmetry_equiv_pos_as_xyz
  x,y,z

loop_
_atom_site_label
_atom_site_type_symbol
_atom_site_fract_x
_atom_site_fract_y
_atom_site_fract_z
_atom_site_charge
C 	C 	0.34490 0.45616 0.56290 0.33700
C 	C 	0.34670 0.51647 0.56410 0.28400
F 	F 	0.19160 0.42986 0.37320 -0.36900
F 	F 	0.19450 0.54356 0.37140 -0.33700
O 	O 	0.35170 0.33512 0.66030 -0.56000
O 	O 	0.36110 0.63775 0.69320 -0.23100
H 	H 	0.99900 0.32200 0.19000 0.25500
C 	C 	0.65510 0.45616 0.93710 0.44100
C 	C 	0.65330 0.51647 0.93590 0.38200
F 	F 	0.80840 0.42986 0.12680 -0.48700
F 	F 	0.80550 0.54356 0.12860 -0.45200
O 	O 	0.64830 0.33512 0.83970 -0.53100
O 	O 	0.63890 0.63775 0.80680 -0.23000
H 	H 	0.00100 0.32200 0.31000 0.43500
C 	C 	0.15510 0.04384 0.43710 0.31800
C 	C 	0.15330 0.98353 0.43590 0.26000
F 	F 	0.30840 0.07014 0.62680 -0.35300
F 	F 	0.30550 0.95644 0.62860 -0.30900
O 	O 	0.14830 0.16488 0.33970 -0.61400
O 	O 	0.13890 0.86225 0.30680 -0.29000
H 	H 	0.50100 0.17800 0.81000 0.42400
C 	C 	0.84490 0.04384 0.06290 0.16800
C 	C 	0.84670 0.98353 0.06410 0.11100
F 	F 	0.69160 0.07014 0.87320 -0.27000
F 	F 	0.69450 0.95644 0.87140 -0.23000
O 	O 	0.85170 0.16488 0.16030 -0.70200
O 	O 	0.86110 0.86225 0.19320 -0.36900
H 	H 	0.49900 0.17800 0.69000 0.38500
C 	C 	0.50000 0.35940 0.75000 0.55400
C 	C 	0.50000 0.42470 0.75000 -0.26100
C 	C 	0.50000 0.54790 0.75000 -0.18600
C 	C 	0.50000 0.61410 0.75000 0.42200
C 	C 	0.00000 0.14060 0.25000 0.58600
C 	C 	0.00000 0.07530 0.25000 -0.20100
C 	C 	0.00000 0.95210 0.25000 -0.11900
C 	C 	0.00000 0.88590 0.25000 0.44600
In	In	0.25000 0.25000 0.50000 1.97700
In	In	0.75000 0.25000 -0.00000 1.92900
O 	O 	0.00000 0.29212 0.25000 -1.27700
O 	O 	0.50000 0.20788 0.75000 -1.32900
C 	C 	0.84490 0.95616 0.56290 0.28900
C 	C 	0.84670 0.01647 0.56410 0.23300
F 	F 	0.69160 0.92986 0.37320 -0.38500
F 	F 	0.69450 0.04356 0.37140 -0.35300
O 	O 	0.85170 0.83512 0.66030 -0.62800
O 	O 	0.86110 0.13775 0.69320 -0.30100
H 	H 	0.49900 0.82200 0.19000 0.36700
C 	C 	0.15510 0.95616 0.93710 0.43600
C 	C 	0.15330 0.01647 0.93590 0.37600
F 	F 	0.30840 0.92986 0.12680 -0.46600
F 	F 	0.30550 0.04356 0.12860 -0.43000
O 	O 	0.14830 0.83512 0.83970 -0.53100
O 	O 	0.13890 0.13775 0.80680 -0.22700
H 	H 	0.50100 0.82200 0.31000 0.40500
C 	C 	0.65510 0.54384 0.43710 0.31900
C 	C 	0.65330 0.48353 0.43590 0.26000
F 	F 	0.80840 0.57014 0.62680 -0.37100
F 	F 	0.80550 0.45644 0.62860 -0.32700
O 	O 	0.64830 0.66488 0.33970 -0.61500
O 	O 	0.63890 0.36225 0.30680 -0.29400
H 	H 	0.00100 0.67800 0.81000 0.45200
C 	C 	0.34490 0.54384 0.06290 0.21900
C 	C 	0.34670 0.48353 0.06410 0.16400
F 	F 	0.19160 0.57014 0.87320 -0.25400
F 	F 	0.19450 0.45644 0.87140 -0.21500
O 	O 	0.35170 0.66488 0.16030 -0.63200
O 	O 	0.36110 0.36225 0.19320 -0.29600
H 	H 	0.99900 0.67800 0.69000 0.27700
C 	C 	0.00000 0.85940 0.75000 0.61600
C 	C 	0.00000 0.92470 0.75000 -0.21600
C 	C 	0.00000 0.04790 0.75000 -0.13700
C 	C 	0.00000 0.11410 0.75000 0.48400
C 	C 	0.50000 0.64060 0.25000 0.51900
C 	C 	0.50000 0.57530 0.25000 -0.25000
C 	C 	0.50000 0.45210 0.25000 -0.17000
C 	C 	0.50000 0.38590 0.25000 0.37900
In	In	0.75000 0.75000 0.50000 1.96700
In	In	0.25000 0.75000 -0.00000 1.94000
O 	O 	0.50000 0.79212 0.25000 -1.38500
O 	O 	0.00000 0.70788 0.75000 -1.22600
