data_crystal

_cell_length_a 10.42500
_cell_length_b 31.10600
_cell_length_c 11.86500
_cell_angle_alpha 90.00000
_cell_angle_beta  115.06600
_cell_angle_gamma 90.00000

_symmetry_space_group_name_	'P 1'
_symmetry_space_group_name_H-M	'P 1'

loop_
_symmetry_equiv_pos_as_xyz
  x,y,z

loop_
_atom_site_label
_atom_site_type_symbol
_atom_site_fract_x
_atom_site_fract_y
_atom_site_fract_z
_atom_site_charge
C 	C 	0.16820 0.24453 0.73628 -0.09500
H 	H 	0.10930 0.24960 0.78210 0.02100
H 	H 	0.23160 0.26960 0.75040 0.02600
C 	C 	0.34573 0.18981 0.68037 -0.09600
H 	H 	0.41660 0.21260 0.69200 0.03300
H 	H 	0.39400 0.16170 0.69150 0.03200
C 	C 	0.13358 0.15587 0.73795 -0.09600
H 	H 	0.17520 0.12670 0.75180 0.01500
H 	H 	0.07370 0.15810 0.78390 0.01800
C 	C 	0.15967 0.23402 0.52972 0.00200
H 	H 	0.09620 0.23610 0.43990 0.00400
H 	H 	0.23090 0.25720 0.54990 0.00900
C 	C 	0.12906 0.15833 0.52897 0.00200
H 	H 	0.17900 0.13040 0.54770 -0.00100
H 	H 	0.06380 0.15850 0.43940 0.00200
C 	C 	0.97477 0.20467 0.57751 -0.00300
H 	H 	0.92230 0.20820 0.62960 -0.00600
H 	H 	0.90500 0.20570 0.48930 -0.01100
C 	C 	0.64409 0.13807 0.23611 -0.09400
H 	H 	0.57850 0.14750 0.27190 0.01500
H 	H 	0.71220 0.16170 0.24770 0.02300
C 	C 	0.59550 0.05101 0.25969 -0.09100
H 	H 	0.63380 0.02170 0.28540 0.02700
H 	H 	0.52690 0.05690 0.29530 0.02800
C 	C 	0.82941 0.07783 0.21932 -0.09300
H 	H 	0.90180 0.10000 0.23020 0.03100
H 	H 	0.87820 0.04980 0.24380 0.02500
C 	C 	0.45715 0.09495 0.07891 -0.00100
H 	H 	0.39560 0.10220 0.12080 0.00500
H 	H 	0.39640 0.09300 0.98850 0.00500
C 	C 	0.65653 0.11803 0.04299 0.00200
H 	H 	0.72960 0.14060 0.06070 0.00900
H 	H 	0.60060 0.11670 0.95170 0.00400
C 	C 	0.61710 0.04285 0.06560 -0.00200
H 	H 	0.56020 0.03950 0.97490 0.02700
H 	H 	0.66410 0.01500 0.09850 0.02400
N 	N 	0.07493 0.24116 0.60195 -0.14300
N 	N 	0.23263 0.19254 0.55328 -0.10300
N 	N 	0.04404 0.16205 0.60308 -0.14900
N 	N 	0.56209 0.13025 0.10148 -0.14900
N 	N 	0.52275 0.05301 0.12366 -0.10100
N 	N 	0.72733 0.07614 0.08715 -0.10300
P 	P 	0.27702 0.19586 0.79949 0.01500
P 	P 	0.74186 0.09040 0.32153 -0.00100
Ag	Ag	0.43713 0.19417 0.01206 0.48100
Ag	Ag	0.88884 0.10260 0.53176 0.45100
C 	C 	0.66820 0.25547 0.23628 -0.09400
H 	H 	0.60930 0.25040 0.28210 0.02000
H 	H 	0.73160 0.23040 0.25040 0.02600
C 	C 	0.84573 0.31019 0.18037 -0.09400
H 	H 	0.91660 0.28740 0.19200 0.03200
H 	H 	0.89400 0.33830 0.19150 0.03100
C 	C 	0.63358 0.34413 0.23795 -0.09500
H 	H 	0.67520 0.37330 0.25180 0.01400
H 	H 	0.57370 0.34190 0.28390 0.01600
C 	C 	0.65967 0.26598 0.02972 0.00100
H 	H 	0.59620 0.26390 0.93990 0.00300
H 	H 	0.73090 0.24280 0.04990 0.00900
C 	C 	0.62906 0.34167 0.02897 0.00200
H 	H 	0.67900 0.36960 0.04770 -0.00100
H 	H 	0.56380 0.34150 0.93940 0.00200
C 	C 	0.47477 0.29533 0.07751 0.00200
H 	H 	0.42230 0.29180 0.12960 -0.00600
H 	H 	0.40500 0.29430 0.98930 -0.01000
C 	C 	0.14409 0.36193 0.73611 -0.09400
H 	H 	0.07850 0.35250 0.77190 0.01700
H 	H 	0.21220 0.33830 0.74770 0.02400
C 	C 	0.09550 0.44899 0.75969 -0.09100
H 	H 	0.13380 0.47830 0.78540 0.02700
H 	H 	0.02690 0.44310 0.79530 0.02900
C 	C 	0.32941 0.42217 0.71932 -0.09300
H 	H 	0.40180 0.40000 0.73020 0.03200
H 	H 	0.37820 0.45020 0.74380 0.02500
C 	C 	0.95715 0.40505 0.57891 -0.00300
H 	H 	0.89560 0.39780 0.62080 0.00500
H 	H 	0.89640 0.40700 0.48850 0.00500
C 	C 	0.15653 0.38197 0.54299 0.00200
H 	H 	0.22960 0.35940 0.56070 0.00900
H 	H 	0.10060 0.38330 0.45170 0.00500
C 	C 	0.11710 0.45715 0.56560 -0.00100
H 	H 	0.06020 0.46050 0.47490 0.02600
H 	H 	0.16410 0.48500 0.59850 0.02300
N 	N 	0.57493 0.25884 0.10195 -0.14500
N 	N 	0.73263 0.30746 0.05328 -0.10300
N 	N 	0.54404 0.33795 0.10308 -0.15100
N 	N 	0.06209 0.36975 0.60148 -0.14700
N 	N 	0.02275 0.44699 0.62366 -0.10000
N 	N 	0.22733 0.42386 0.58715 -0.10300
P 	P 	0.77702 0.30414 0.29949 0.01300
P 	P 	0.24186 0.40960 0.82153 0.00000
Ag	Ag	0.93713 0.30583 0.51206 0.47900
Ag	Ag	0.38884 0.39740 0.03176 0.45200
C 	C 	0.33180 0.74453 0.76372 -0.09400
H 	H 	0.39070 0.74960 0.71790 0.02000
H 	H 	0.26840 0.76960 0.74960 0.02600
C 	C 	0.15427 0.68981 0.81963 -0.09400
H 	H 	0.08340 0.71260 0.80800 0.03200
H 	H 	0.10600 0.66170 0.80850 0.03100
C 	C 	0.36642 0.65587 0.76205 -0.09500
H 	H 	0.32480 0.62670 0.74820 0.01400
H 	H 	0.42630 0.65810 0.71610 0.01600
C 	C 	0.34033 0.73402 0.97028 0.00100
H 	H 	0.40380 0.73610 0.06010 0.00300
H 	H 	0.26910 0.75720 0.95010 0.00900
C 	C 	0.37094 0.65833 0.97103 0.00200
H 	H 	0.32100 0.63040 0.95230 -0.00100
H 	H 	0.43620 0.65850 0.06060 0.00200
C 	C 	0.52523 0.70467 0.92249 0.00200
H 	H 	0.57770 0.70820 0.87040 -0.00600
H 	H 	0.59500 0.70570 0.01070 -0.01000
C 	C 	0.85591 0.63807 0.26389 -0.09400
H 	H 	0.92150 0.64750 0.22810 0.01700
H 	H 	0.78780 0.66170 0.25230 0.02400
C 	C 	0.90450 0.55101 0.24031 -0.09100
H 	H 	0.86620 0.52170 0.21460 0.02700
H 	H 	0.97310 0.55690 0.20470 0.02900
C 	C 	0.67059 0.57783 0.28068 -0.09300
H 	H 	0.59820 0.60000 0.26980 0.03200
H 	H 	0.62180 0.54980 0.25620 0.02500
C 	C 	0.04285 0.59495 0.42109 -0.00300
H 	H 	0.10440 0.60220 0.37920 0.00500
H 	H 	0.10360 0.59300 0.51150 0.00500
C 	C 	0.84347 0.61803 0.45701 0.00200
H 	H 	0.77040 0.64060 0.43930 0.00900
H 	H 	0.89940 0.61670 0.54830 0.00500
C 	C 	0.88290 0.54285 0.43440 -0.00100
H 	H 	0.93980 0.53950 0.52510 0.02600
H 	H 	0.83590 0.51500 0.40150 0.02300
N 	N 	0.42507 0.74116 0.89805 -0.14500
N 	N 	0.26737 0.69254 0.94672 -0.10300
N 	N 	0.45596 0.66205 0.89692 -0.15100
N 	N 	0.93791 0.63025 0.39852 -0.14700
N 	N 	0.97725 0.55301 0.37634 -0.10000
N 	N 	0.77267 0.57614 0.41285 -0.10300
P 	P 	0.22298 0.69586 0.70051 0.01300
P 	P 	0.75814 0.59040 0.17847 0.00000
Ag	Ag	0.06287 0.69417 0.48794 0.47900
Ag	Ag	0.61116 0.60260 0.96824 0.45200
C 	C 	0.83180 0.75547 0.26372 -0.09400
H 	H 	0.89070 0.75040 0.21790 0.02200
H 	H 	0.76840 0.73040 0.24960 0.02700
C 	C 	0.65427 0.81019 0.31963 -0.09500
H 	H 	0.58340 0.78740 0.30800 0.03300
H 	H 	0.60600 0.83830 0.30850 0.03200
C 	C 	0.86642 0.84413 0.26205 -0.09600
H 	H 	0.82480 0.87330 0.24820 0.01500
H 	H 	0.92630 0.84190 0.21610 0.01800
C 	C 	0.84033 0.76598 0.47028 0.00200
H 	H 	0.90380 0.76390 0.56010 0.00400
H 	H 	0.76910 0.74280 0.45010 0.00900
C 	C 	0.87094 0.84167 0.47103 0.00200
H 	H 	0.82100 0.86960 0.45230 -0.00100
H 	H 	0.93620 0.84150 0.56060 0.00200
C 	C 	0.02523 0.79533 0.42249 -0.00300
H 	H 	0.07770 0.79180 0.37040 -0.00600
H 	H 	0.09500 0.79430 0.51070 -0.01100
C 	C 	0.35591 0.86193 0.76389 -0.09400
H 	H 	0.42150 0.85250 0.72810 0.01500
H 	H 	0.28780 0.83830 0.75230 0.02300
C 	C 	0.40450 0.94899 0.74031 -0.09100
H 	H 	0.36620 0.97830 0.71460 0.02700
H 	H 	0.47310 0.94310 0.70470 0.02800
C 	C 	0.17059 0.92217 0.78068 -0.09300
H 	H 	0.09820 0.90000 0.76980 0.03100
H 	H 	0.12180 0.95020 0.75620 0.02500
C 	C 	0.54285 0.90505 0.92109 -0.00100
H 	H 	0.60440 0.89780 0.87920 0.00500
H 	H 	0.60360 0.90700 0.01150 0.00500
C 	C 	0.34347 0.88197 0.95701 0.00200
H 	H 	0.27040 0.85940 0.93930 0.00900
H 	H 	0.39940 0.88330 0.04830 0.00400
C 	C 	0.38290 0.95715 0.93440 -0.00200
H 	H 	0.43980 0.96050 0.02510 0.02700
H 	H 	0.33590 0.98500 0.90150 0.02400
N 	N 	0.92507 0.75884 0.39805 -0.14300
N 	N 	0.76737 0.80746 0.44672 -0.10300
N 	N 	0.95596 0.83795 0.39692 -0.14900
N 	N 	0.43791 0.86975 0.89852 -0.14900
N 	N 	0.47725 0.94699 0.87634 -0.10100
N 	N 	0.27267 0.92386 0.91285 -0.10300
P 	P 	0.72298 0.80414 0.20051 0.01500
P 	P 	0.25814 0.90960 0.67847 -0.00100
Ag	Ag	0.56287 0.80583 0.98794 0.48100
Ag	Ag	0.11116 0.89740 0.46824 0.45100
