data_crystal

_cell_length_a 11.35100
_cell_length_b 17.59600
_cell_length_c 8.70100
_cell_angle_alpha 90.00000
_cell_angle_beta  115.43100
_cell_angle_gamma 90.00000

_symmetry_space_group_name_	'P 1'
_symmetry_space_group_name_H-M	'P 1'

loop_
_symmetry_equiv_pos_as_xyz
  x,y,z

loop_
_atom_site_label
_atom_site_type_symbol
_atom_site_fract_x
_atom_site_fract_y
_atom_site_fract_z
_atom_site_charge
La	La	0.32928 0.29579 0.20304 1.70200
P 	P 	0.52359 0.27932 0.70349 0.44700
P 	P 	0.17989 0.20953 0.75713 0.49400
P 	P 	0.48253 0.11508 0.41905 0.46300
O 	O 	0.27650 0.23965 0.92490 -0.43000
N 	N 	0.34840 0.15921 0.61970 -0.08500
H 	H 	0.31160 0.20290 0.55140 0.11000
O 	O 	0.44290 0.28793 0.51590 -0.38900
O 	O 	0.61390 0.14218 0.54400 -0.41500
O 	O 	0.49000 0.03192 0.35420 -0.33900
H 	H 	0.55760 0.00080 0.44160 0.14500
O 	O 	0.40780 0.16236 0.26450 -0.36400
O 	O 	0.33650 0.42496 0.34190 -0.45500
H 	H 	0.27980 0.46210 0.25430 0.14200
H 	H 	0.27770 0.41030 0.39580 0.12900
O 	O 	0.15360 0.26897 0.61140 -0.43000
H 	H 	0.16900 0.31670 0.63130 0.22100
C 	C 	0.46730 0.19210 0.76360 -0.20000
H 	H 	0.53850 0.15400 0.80100 0.08300
H 	H 	0.44670 0.20280 0.86110 0.11200
C 	C 	0.37980 0.09458 0.52970 -0.21500
H 	H 	0.29630 0.07330 0.44530 0.10400
H 	H 	0.42340 0.05430 0.61470 0.11000
O 	O 	0.67000 0.27618 0.76930 -0.39500
O 	O 	0.05510 0.17836 0.75020 -0.43300
C 	C 	0.24940 0.13188 0.68300 -0.20800
H 	H 	0.29250 0.09540 0.77730 0.09900
H 	H 	0.17810 0.10470 0.58960 0.10200
O 	O 	0.48700 0.34371 0.80350 -0.34800
H 	H 	0.54280 0.37350 0.77270 0.16200
La	La	0.82928 0.20421 0.70304 1.68900
P 	P 	0.02359 0.22068 0.20349 0.36900
P 	P 	0.67989 0.29047 0.25713 0.49600
P 	P 	0.98253 0.38492 0.91905 0.43300
O 	O 	0.77650 0.26035 0.42490 -0.40600
N 	N 	0.84840 0.34079 0.11970 -0.10400
H 	H 	0.81160 0.29710 0.05140 0.12300
O 	O 	0.94290 0.21207 0.01590 -0.33500
O 	O 	0.11390 0.35782 0.04400 -0.41000
O 	O 	0.99000 0.46808 0.85420 -0.30600
H 	H 	0.05760 0.49920 0.94160 0.10100
O 	O 	0.90780 0.33764 0.76450 -0.36500
O 	O 	0.83650 0.07504 0.84190 -0.45400
H 	H 	0.77980 0.03790 0.75430 0.13900
H 	H 	0.77770 0.08970 0.89580 0.12200
O 	O 	0.65360 0.23103 0.11140 -0.41200
H 	H 	0.66900 0.18330 0.13130 0.23100
C 	C 	0.96730 0.30790 0.26360 -0.10200
H 	H 	0.03850 0.34600 0.30100 0.03500
H 	H 	0.94670 0.29720 0.36110 0.10100
C 	C 	0.87980 0.40542 0.02970 -0.12100
H 	H 	0.79630 0.42670 0.94530 0.05500
H 	H 	0.92340 0.44570 0.11470 0.10000
O 	O 	0.17000 0.22382 0.26930 -0.37300
O 	O 	0.55510 0.32164 0.25020 -0.40000
C 	C 	0.74940 0.36812 0.18300 -0.20600
H 	H 	0.79250 0.40460 0.27730 0.10700
H 	H 	0.67810 0.39530 0.08960 0.11900
O 	O 	0.98700 0.15629 0.30350 -0.27500
H 	H 	0.04280 0.12650 0.27270 0.13100
La	La	0.82928 0.79579 0.20304 1.71700
P 	P 	0.02359 0.77932 0.70349 0.37000
P 	P 	0.67989 0.70953 0.75713 0.49400
P 	P 	0.98253 0.61508 0.41905 0.48700
O 	O 	0.77650 0.73965 0.92490 -0.42500
N 	N 	0.84840 0.65921 0.61970 -0.09400
H 	H 	0.81160 0.70290 0.55140 0.11200
O 	O 	0.94290 0.78793 0.51590 -0.35500
O 	O 	0.11390 0.64218 0.54400 -0.44000
O 	O 	0.99000 0.53192 0.35420 -0.30500
H 	H 	0.05760 0.50080 0.44160 0.11200
O 	O 	0.90780 0.66236 0.26450 -0.35900
O 	O 	0.83650 0.92496 0.34190 -0.44600
H 	H 	0.77980 0.96210 0.25430 0.14600
H 	H 	0.77770 0.91030 0.39580 0.13100
O 	O 	0.65360 0.76897 0.61140 -0.42300
H 	H 	0.66900 0.81670 0.63130 0.22400
C 	C 	0.96730 0.69210 0.76360 -0.10400
H 	H 	0.03850 0.65400 0.80100 0.03200
H 	H 	0.94670 0.70280 0.86110 0.09400
C 	C 	0.87980 0.59458 0.52970 -0.21200
H 	H 	0.79630 0.57330 0.44530 0.10400
H 	H 	0.92340 0.55430 0.61470 0.11800
O 	O 	0.17000 0.77618 0.76930 -0.38500
O 	O 	0.55510 0.67836 0.75020 -0.41200
C 	C 	0.74940 0.63188 0.68300 -0.20700
H 	H 	0.79250 0.59540 0.77730 0.10200
H 	H 	0.67810 0.60470 0.58960 0.10800
O 	O 	0.98700 0.84371 0.80350 -0.28800
H 	H 	0.04280 0.87350 0.77270 0.12700
La	La	0.32928 0.70421 0.70304 1.67300
P 	P 	0.52359 0.72068 0.20349 0.44600
P 	P 	0.17989 0.79047 0.25713 0.49500
P 	P 	0.48253 0.88492 0.91905 0.40800
O 	O 	0.27650 0.76035 0.42490 -0.41200
N 	N 	0.34840 0.84079 0.11970 -0.09500
H 	H 	0.31160 0.79710 0.05140 0.12100
O 	O 	0.44290 0.71207 0.01590 -0.36900
O 	O 	0.61390 0.85782 0.04400 -0.38600
O 	O 	0.49000 0.96808 0.85420 -0.33900
H 	H 	0.55760 0.99920 0.94160 0.13300
O 	O 	0.40780 0.83764 0.76450 -0.36900
O 	O 	0.33650 0.57504 0.84190 -0.46200
H 	H 	0.27980 0.53790 0.75430 0.13500
H 	H 	0.27770 0.58970 0.89580 0.12100
O 	O 	0.15360 0.73103 0.11140 -0.41900
H 	H 	0.16900 0.68330 0.13130 0.22800
C 	C 	0.46730 0.80790 0.26360 -0.19900
H 	H 	0.53850 0.84600 0.30100 0.08700
H 	H 	0.44670 0.79720 0.36110 0.12000
C 	C 	0.37980 0.90542 0.02970 -0.12500
H 	H 	0.29630 0.92670 0.94530 0.05500
H 	H 	0.42340 0.94570 0.11470 0.09300
O 	O 	0.67000 0.72382 0.26930 -0.38300
O 	O 	0.05510 0.82164 0.25020 -0.42100
C 	C 	0.24940 0.86812 0.18300 -0.20700
H 	H 	0.29250 0.90460 0.27730 0.10400
H 	H 	0.17810 0.89530 0.08960 0.11300
O 	O 	0.48700 0.65629 0.30350 -0.33700
H 	H 	0.54280 0.62650 0.27270 0.16700
