data_crystal

_cell_length_a 19.95000
_cell_length_b 22.63900
_cell_length_c 10.83300
_cell_angle_alpha 90.00000
_cell_angle_beta  93.90000
_cell_angle_gamma 90.00000

_symmetry_space_group_name_	'P 1'
_symmetry_space_group_name_H-M	'P 1'

loop_
_symmetry_equiv_pos_as_xyz
  x,y,z

loop_
_atom_site_label
_atom_site_type_symbol
_atom_site_fract_x
_atom_site_fract_y
_atom_site_fract_z
_atom_site_charge
C 	C 	0.30590 0.34476 0.96010 -0.66400
C 	C 	0.30730 0.36005 0.08550 0.36500
H 	H 	0.34790 0.37480 0.12490 -0.08800
C 	C 	0.25080 0.35428 0.15490 -0.29500
C 	C 	0.19210 0.33090 0.09890 0.23800
H 	H 	0.15400 0.32560 0.14570 -0.02500
B 	B 	0.37220 0.34770 0.88580 1.45000
C 	C 	0.24490 0.32260 0.90630 0.38100
H 	H 	0.24180 0.31250 0.82110 -0.09500
C 	C 	0.18900 0.31520 0.97470 -0.34500
H 	H 	0.14860 0.29950 0.93640 0.15000
O 	O 	0.40489 0.40798 0.90080 -0.48000
N 	N 	0.45865 0.41381 0.82740 -0.18100
C 	C 	0.47470 0.46740 0.79470 0.06300
C 	C 	0.44510 0.52320 0.84220 -0.15700
H 	H 	0.44070 0.51960 0.93240 0.10100
H 	H 	0.39960 0.52920 0.80160 0.10800
O 	O 	0.20273 0.36230 0.34800 -0.48000
H 	H 	0.20660 0.37840 0.41800 0.26400
O 	O 	0.30500 0.40109 0.33230 -0.30600
C 	C 	0.25570 0.37460 0.28730 0.42900
C 	C 	0.48960 0.57670 0.81640 -0.06500
H 	H 	0.46470 0.61350 0.83180 0.05100
H 	H 	0.53030 0.57590 0.87400 0.06400
O 	O 	0.35497 0.33558 0.75260 -0.49600
N 	N 	0.41122 0.32770 0.68740 -0.17900
C 	C 	0.40340 0.29673 0.58600 0.07400
C 	C 	0.46720 0.28674 0.53120 0.05700
N 	N 	0.51774 0.30519 0.60450 -0.18100
O 	O 	0.58050 0.30144 0.55840 -0.48800
C 	C 	0.33820 0.27250 0.53050 -0.16100
H 	H 	0.30810 0.30550 0.50330 0.09700
H 	H 	0.31580 0.24950 0.59370 0.10400
C 	C 	0.35000 0.23250 0.41940 -0.05600
H 	H 	0.36420 0.19300 0.45020 0.05200
H 	H 	0.30710 0.22770 0.36890 0.04800
C 	C 	0.47190 0.25910 0.40700 -0.14100
H 	H 	0.49060 0.21880 0.41680 0.08000
H 	H 	0.50240 0.28260 0.35810 0.07800
C 	C 	0.40220 0.25610 0.33830 -0.07300
H 	H 	0.38890 0.29610 0.30910 0.05700
H 	H 	0.40440 0.23030 0.26490 0.04300
C 	C 	0.69410 0.34476 0.53990 -0.65800
C 	C 	0.69270 0.36005 0.41450 0.36200
H 	H 	0.65210 0.37480 0.37510 -0.08600
C 	C 	0.74920 0.35428 0.34510 -0.29000
C 	C 	0.80790 0.33090 0.40110 0.23300
H 	H 	0.84600 0.32560 0.35430 -0.01700
B 	B 	0.62780 0.34770 0.61420 1.44800
C 	C 	0.75510 0.32260 0.59370 0.37900
H 	H 	0.75820 0.31250 0.67890 -0.09300
C 	C 	0.81100 0.31520 0.52530 -0.33800
H 	H 	0.85140 0.29950 0.56360 0.15400
O 	O 	0.59511 0.40798 0.59920 -0.47900
N 	N 	0.54135 0.41381 0.67260 -0.18100
C 	C 	0.52530 0.46740 0.70530 0.06300
C 	C 	0.55490 0.52320 0.65780 -0.15800
H 	H 	0.55930 0.51960 0.56760 0.10200
H 	H 	0.60040 0.52920 0.69840 0.10900
O 	O 	0.79727 0.36230 0.15200 -0.47600
H 	H 	0.79340 0.37840 0.08200 0.26700
O 	O 	0.69500 0.40109 0.16770 -0.30400
C 	C 	0.74430 0.37460 0.21270 0.42800
C 	C 	0.51040 0.57670 0.68360 -0.06400
H 	H 	0.53530 0.61350 0.66820 0.05100
H 	H 	0.46970 0.57590 0.62600 0.06400
O 	O 	0.64503 0.33558 0.74740 -0.49500
N 	N 	0.58878 0.32770 0.81260 -0.18000
C 	C 	0.59660 0.29673 0.91400 0.07500
C 	C 	0.53280 0.28674 0.96880 0.05500
N 	N 	0.48226 0.30519 0.89550 -0.18000
O 	O 	0.41950 0.30144 0.94160 -0.48800
C 	C 	0.66180 0.27250 0.96950 -0.16300
H 	H 	0.69190 0.30550 0.99670 0.09700
H 	H 	0.68420 0.24950 0.90630 0.10500
C 	C 	0.65000 0.23250 0.08060 -0.05400
H 	H 	0.63580 0.19300 0.04980 0.05200
H 	H 	0.69290 0.22770 0.13110 0.04800
C 	C 	0.52810 0.25910 0.09300 -0.13900
H 	H 	0.50940 0.21880 0.08320 0.08000
H 	H 	0.49760 0.28260 0.14190 0.07800
C 	C 	0.59780 0.25610 0.16170 -0.07400
H 	H 	0.61110 0.29610 0.19090 0.05700
H 	H 	0.59560 0.23030 0.23510 0.04300
Fe	Fe	0.50000 0.34839 0.75000 1.16400
C 	C 	0.80590 0.84476 0.96010 -0.66200
C 	C 	0.80730 0.86005 0.08550 0.36400
H 	H 	0.84790 0.87480 0.12490 -0.08800
C 	C 	0.75080 0.85428 0.15490 -0.29300
C 	C 	0.69210 0.83090 0.09890 0.23500
H 	H 	0.65400 0.82560 0.14570 -0.02100
B 	B 	0.87220 0.84770 0.88580 1.45100
C 	C 	0.74490 0.82260 0.90630 0.38000
H 	H 	0.74180 0.81250 0.82110 -0.09400
C 	C 	0.68900 0.81520 0.97470 -0.34100
H 	H 	0.64860 0.79950 0.93640 0.15200
O 	O 	0.90489 0.90798 0.90080 -0.48000
N 	N 	0.95865 0.91381 0.82740 -0.18700
C 	C 	0.97470 0.96740 0.79470 0.14400
C 	C 	0.94510 0.02320 0.84220 -0.27900
H 	H 	0.94070 0.01960 0.93240 0.14200
H 	H 	0.89960 0.02920 0.80160 0.14200
O 	O 	0.70273 0.86230 0.34800 -0.47800
H 	H 	0.70660 0.87840 0.41800 0.26500
O 	O 	0.80500 0.90109 0.33230 -0.30600
C 	C 	0.75570 0.87460 0.28730 0.42900
C 	C 	0.98960 0.07670 0.81640 0.15500
H 	H 	0.96470 0.11350 0.83180 -0.00600
H 	H 	0.03030 0.07590 0.87400 -0.01500
O 	O 	0.85497 0.83558 0.75260 -0.49600
N 	N 	0.91122 0.82770 0.68740 -0.17300
C 	C 	0.90340 0.79673 0.58600 0.07800
C 	C 	0.96720 0.78674 0.53120 0.07100
N 	N 	0.01774 0.80519 0.60450 -0.19700
O 	O 	0.08050 0.80144 0.55840 -0.49100
C 	C 	0.83820 0.77250 0.53050 -0.17000
H 	H 	0.80810 0.80550 0.50330 0.10000
H 	H 	0.81580 0.74950 0.59370 0.10700
C 	C 	0.85000 0.73250 0.41940 -0.03800
H 	H 	0.86420 0.69300 0.45020 0.04900
H 	H 	0.80710 0.72770 0.36890 0.04300
C 	C 	0.97190 0.75910 0.40700 -0.07900
H 	H 	0.99060 0.71880 0.41680 0.07400
H 	H 	0.00240 0.78260 0.35810 0.03900
C 	C 	0.90220 0.75610 0.33830 -0.10600
H 	H 	0.88890 0.79610 0.30910 0.06900
H 	H 	0.90440 0.73030 0.26490 0.05600
C 	C 	0.19410 0.84476 0.53990 -0.65800
C 	C 	0.19270 0.86005 0.41450 0.36200
H 	H 	0.15210 0.87480 0.37510 -0.08400
C 	C 	0.24920 0.85428 0.34510 -0.29000
C 	C 	0.30790 0.83090 0.40110 0.23300
H 	H 	0.34600 0.82560 0.35430 -0.02000
B 	B 	0.12780 0.84770 0.61420 1.44800
C 	C 	0.25510 0.82260 0.59370 0.37800
H 	H 	0.25820 0.81250 0.67890 -0.09300
C 	C 	0.31100 0.81520 0.52530 -0.33900
H 	H 	0.35140 0.79950 0.56360 0.15100
O 	O 	0.09511 0.90798 0.59920 -0.47800
N 	N 	0.04135 0.91381 0.67260 -0.17200
C 	C 	0.02530 0.96740 0.70530 -0.01600
C 	C 	0.05490 0.02320 0.65780 -0.03700
H 	H 	0.05930 0.01960 0.56760 0.06100
H 	H 	0.10040 0.02920 0.69840 0.07500
O 	O 	0.29727 0.86230 0.15200 -0.47800
H 	H 	0.29340 0.87840 0.08200 0.26600
O 	O 	0.19500 0.90109 0.16770 -0.30300
C 	C 	0.24430 0.87460 0.21270 0.42800
C 	C 	0.01040 0.07670 0.68360 -0.28300
H 	H 	0.03530 0.11350 0.66820 0.10800
H 	H 	0.96970 0.07590 0.62600 0.14300
O 	O 	0.14503 0.83558 0.74740 -0.49500
N 	N 	0.08878 0.82770 0.81260 -0.18200
C 	C 	0.09660 0.79673 0.91400 0.07200
C 	C 	0.03280 0.78674 0.96880 0.04100
N 	N 	0.98226 0.80519 0.89550 -0.15900
O 	O 	0.91950 0.80144 0.94160 -0.48500
C 	C 	0.16180 0.77250 0.96950 -0.15500
H 	H 	0.19190 0.80550 0.99670 0.09500
H 	H 	0.18420 0.74950 0.90630 0.10200
C 	C 	0.15000 0.73250 0.08060 -0.07100
H 	H 	0.13580 0.69300 0.04980 0.05500
H 	H 	0.19290 0.72770 0.13110 0.05200
C 	C 	0.02810 0.75910 0.09300 -0.20000
H 	H 	0.00940 0.71880 0.08320 0.08700
H 	H 	0.99760 0.78260 0.14190 0.11700
C 	C 	0.09780 0.75610 0.16170 -0.04100
H 	H 	0.11110 0.79610 0.19090 0.04500
H 	H 	0.09560 0.73030 0.23510 0.03000
Fe	Fe	0.00000 0.84839 0.75000 1.14700
C 	C 	0.69410 0.65524 0.03990 -0.65800
C 	C 	0.69270 0.63995 0.91450 0.36200
H 	H 	0.65210 0.62520 0.87510 -0.08600
C 	C 	0.74920 0.64572 0.84510 -0.28900
C 	C 	0.80790 0.66910 0.90110 0.23300
H 	H 	0.84600 0.67440 0.85430 -0.01700
B 	B 	0.62780 0.65230 0.11420 1.44800
C 	C 	0.75510 0.67740 0.09370 0.37800
H 	H 	0.75820 0.68750 0.17890 -0.09300
C 	C 	0.81100 0.68480 0.02530 -0.33800
H 	H 	0.85140 0.70050 0.06360 0.15300
O 	O 	0.59511 0.59202 0.09920 -0.47800
N 	N 	0.54135 0.58619 0.17260 -0.18100
C 	C 	0.52530 0.53260 0.20530 0.06400
C 	C 	0.55490 0.47680 0.15780 -0.15800
H 	H 	0.55930 0.48040 0.06760 0.10200
H 	H 	0.60040 0.47080 0.19840 0.10900
O 	O 	0.79727 0.63770 0.65200 -0.47600
H 	H 	0.79340 0.62160 0.58200 0.26700
O 	O 	0.69500 0.59891 0.66770 -0.30400
C 	C 	0.74430 0.62540 0.71270 0.42800
C 	C 	0.51040 0.42330 0.18360 -0.06400
H 	H 	0.53530 0.38650 0.16820 0.05100
H 	H 	0.46970 0.42410 0.12600 0.06400
O 	O 	0.64503 0.66442 0.24740 -0.49500
N 	N 	0.58878 0.67230 0.31260 -0.17900
C 	C 	0.59660 0.70327 0.41400 0.07400
C 	C 	0.53280 0.71326 0.46880 0.05700
N 	N 	0.48226 0.69481 0.39550 -0.18100
O 	O 	0.41950 0.69856 0.44160 -0.48800
C 	C 	0.66180 0.72750 0.46950 -0.16100
H 	H 	0.69190 0.69450 0.49670 0.09700
H 	H 	0.68420 0.75050 0.40630 0.10400
C 	C 	0.65000 0.76750 0.58060 -0.05600
H 	H 	0.63580 0.80700 0.54980 0.05200
H 	H 	0.69290 0.77230 0.63110 0.04800
C 	C 	0.52810 0.74090 0.59300 -0.14100
H 	H 	0.50940 0.78120 0.58320 0.08000
H 	H 	0.49760 0.71740 0.64190 0.07800
C 	C 	0.59780 0.74390 0.66170 -0.07300
H 	H 	0.61110 0.70390 0.69090 0.05700
H 	H 	0.59560 0.76970 0.73510 0.04200
C 	C 	0.30590 0.65524 0.46010 -0.66000
C 	C 	0.30730 0.63995 0.58550 0.36300
H 	H 	0.34790 0.62520 0.62490 -0.08600
C 	C 	0.25080 0.64572 0.65490 -0.29200
C 	C 	0.19210 0.66910 0.59890 0.23300
H 	H 	0.15400 0.67440 0.64570 -0.02400
B 	B 	0.37220 0.65230 0.38580 1.44900
C 	C 	0.24490 0.67740 0.40630 0.37800
H 	H 	0.24180 0.68750 0.32110 -0.09400
C 	C 	0.18900 0.68480 0.47470 -0.34100
H 	H 	0.14860 0.70050 0.43640 0.14900
O 	O 	0.40489 0.59202 0.40080 -0.47900
N 	N 	0.45865 0.58619 0.32740 -0.18100
C 	C 	0.47470 0.53260 0.29470 0.06300
C 	C 	0.44510 0.47680 0.34220 -0.15700
H 	H 	0.44070 0.48040 0.43240 0.10100
H 	H 	0.39960 0.47080 0.30160 0.10800
O 	O 	0.20273 0.63770 0.84800 -0.48000
H 	H 	0.20660 0.62160 0.91800 0.26400
O 	O 	0.30500 0.59891 0.83230 -0.30600
C 	C 	0.25570 0.62540 0.78730 0.42800
C 	C 	0.48960 0.42330 0.31640 -0.06500
H 	H 	0.46470 0.38650 0.33180 0.05200
H 	H 	0.53030 0.42410 0.37400 0.06400
O 	O 	0.35497 0.66442 0.25260 -0.49600
N 	N 	0.41122 0.67230 0.18740 -0.17900
C 	C 	0.40340 0.70327 0.08600 0.07300
C 	C 	0.46720 0.71326 0.03120 0.05800
N 	N 	0.51774 0.69481 0.10450 -0.18100
O 	O 	0.58050 0.69856 0.05840 -0.48800
C 	C 	0.33820 0.72750 0.03050 -0.16000
H 	H 	0.30810 0.69450 0.00330 0.09700
H 	H 	0.31580 0.75050 0.09370 0.10400
C 	C 	0.35000 0.76750 0.91940 -0.05800
H 	H 	0.36420 0.80700 0.95020 0.05300
H 	H 	0.30710 0.77230 0.86890 0.04900
C 	C 	0.47190 0.74090 0.90700 -0.14300
H 	H 	0.49060 0.78120 0.91680 0.08100
H 	H 	0.50240 0.71740 0.85810 0.07900
C 	C 	0.40220 0.74390 0.83830 -0.07100
H 	H 	0.38890 0.70390 0.80910 0.05600
H 	H 	0.40440 0.76970 0.76490 0.04200
Fe	Fe	0.50000 0.65161 0.25000 1.16400
C 	C 	0.19410 0.15524 0.03990 -0.65400
C 	C 	0.19270 0.13995 0.91450 0.35800
H 	H 	0.15210 0.12520 0.87510 -0.08300
C 	C 	0.24920 0.14572 0.84510 -0.28700
C 	C 	0.30790 0.16910 0.90110 0.22800
H 	H 	0.34600 0.17440 0.85430 -0.01900
B 	B 	0.12780 0.15230 0.11420 1.44700
C 	C 	0.25510 0.17740 0.09370 0.37500
H 	H 	0.25820 0.18750 0.17890 -0.09200
C 	C 	0.31100 0.18480 0.02530 -0.33400
H 	H 	0.35140 0.20050 0.06360 0.15000
O 	O 	0.09511 0.09202 0.09920 -0.47700
N 	N 	0.04135 0.08619 0.17260 -0.17200
C 	C 	0.02530 0.03260 0.20530 -0.01400
C 	C 	0.05490 0.97680 0.15780 -0.04100
H 	H 	0.05930 0.98040 0.06760 0.06300
H 	H 	0.10040 0.97080 0.19840 0.07600
O 	O 	0.29727 0.13770 0.65200 -0.47800
H 	H 	0.29340 0.12160 0.58200 0.26500
O 	O 	0.19500 0.09891 0.66770 -0.30300
C 	C 	0.24430 0.12540 0.71270 0.42700
C 	C 	0.01040 0.92330 0.18360 -0.27600
H 	H 	0.03530 0.88650 0.16820 0.10600
H 	H 	0.96970 0.92410 0.12600 0.14000
O 	O 	0.14503 0.16442 0.24740 -0.49500
N 	N 	0.08878 0.17230 0.31260 -0.18100
C 	C 	0.09660 0.20327 0.41400 0.07000
C 	C 	0.03280 0.21326 0.46880 0.04500
N 	N 	0.98226 0.19481 0.39550 -0.16000
O 	O 	0.91950 0.19856 0.44160 -0.48500
C 	C 	0.16180 0.22750 0.46950 -0.15100
H 	H 	0.19190 0.19450 0.49670 0.09400
H 	H 	0.18420 0.25050 0.40630 0.10100
C 	C 	0.15000 0.26750 0.58060 -0.07500
H 	H 	0.13580 0.30700 0.54980 0.05600
H 	H 	0.19290 0.27230 0.63110 0.05400
C 	C 	0.02810 0.24090 0.59300 -0.20600
H 	H 	0.00940 0.28120 0.58320 0.08800
H 	H 	0.99760 0.21740 0.64190 0.11900
C 	C 	0.09780 0.24390 0.66170 -0.03700
H 	H 	0.11110 0.20390 0.69090 0.04300
H 	H 	0.09560 0.26970 0.73510 0.02800
C 	C 	0.80590 0.15524 0.46010 -0.66100
C 	C 	0.80730 0.13995 0.58550 0.36400
H 	H 	0.84790 0.12520 0.62490 -0.08800
C 	C 	0.75080 0.14572 0.65490 -0.29300
C 	C 	0.69210 0.16910 0.59890 0.23400
H 	H 	0.65400 0.17440 0.64570 -0.02100
B 	B 	0.87220 0.15230 0.38580 1.45100
C 	C 	0.74490 0.17740 0.40630 0.38000
H 	H 	0.74180 0.18750 0.32110 -0.09400
C 	C 	0.68900 0.18480 0.47470 -0.34000
H 	H 	0.64860 0.20050 0.43640 0.15200
O 	O 	0.90489 0.09202 0.40080 -0.48000
N 	N 	0.95865 0.08619 0.32740 -0.18600
C 	C 	0.97470 0.03260 0.29470 0.14200
C 	C 	0.94510 0.97680 0.34220 -0.27600
H 	H 	0.94070 0.98040 0.43240 0.14100
H 	H 	0.89960 0.97080 0.30160 0.14100
O 	O 	0.70273 0.13770 0.84800 -0.47800
H 	H 	0.70660 0.12160 0.91800 0.26500
O 	O 	0.80500 0.09891 0.83230 -0.30700
C 	C 	0.75570 0.12540 0.78730 0.42900
C 	C 	0.98960 0.92330 0.31640 0.14900
H 	H 	0.96470 0.88650 0.33180 -0.00400
H 	H 	0.03030 0.92410 0.37400 -0.01300
O 	O 	0.85497 0.16442 0.25260 -0.49600
N 	N 	0.91122 0.17230 0.18740 -0.17300
C 	C 	0.90340 0.20327 0.08600 0.07800
C 	C 	0.96720 0.21326 0.03120 0.06900
N 	N 	0.01774 0.19481 0.10450 -0.19600
O 	O 	0.08050 0.19856 0.05840 -0.49000
C 	C 	0.83820 0.22750 0.03050 -0.17100
H 	H 	0.80810 0.19450 0.00330 0.10000
H 	H 	0.81580 0.25050 0.09370 0.10700
C 	C 	0.85000 0.26750 0.91940 -0.03700
H 	H 	0.86420 0.30700 0.95020 0.04900
H 	H 	0.80710 0.27230 0.86890 0.04300
C 	C 	0.97190 0.24090 0.90700 -0.07600
H 	H 	0.99060 0.28120 0.91680 0.07300
H 	H 	0.00240 0.21740 0.85810 0.03700
C 	C 	0.90220 0.24390 0.83830 -0.10800
H 	H 	0.88890 0.20390 0.80910 0.07000
H 	H 	0.90440 0.26970 0.76490 0.05700
Fe	Fe	0.00000 0.15161 0.25000 1.14800
