data_crystal

_cell_length_a 9.40500
_cell_length_b 20.38900
_cell_length_c 31.79900
_cell_angle_alpha 90.00000
_cell_angle_beta  90.00000
_cell_angle_gamma 90.00000

_symmetry_space_group_name_	'P 1'
_symmetry_space_group_name_H-M	'P 1'

loop_
_symmetry_equiv_pos_as_xyz
  x,y,z

loop_
_atom_site_label
_atom_site_type_symbol
_atom_site_fract_x
_atom_site_fract_y
_atom_site_fract_z
_atom_site_charge
Cd	Cd	0.00604 0.38513 0.38104 1.16500
O 	O 	0.94000 0.45402 0.32006 -0.37500
O 	O 	0.90930 0.49019 0.38361 -0.45100
O 	O 	0.60210 0.77966 0.11165 -0.44200
O 	O 	0.57590 0.81468 0.17600 -0.38300
N 	N 	0.79460 0.59360 0.19636 -0.12400
C 	C 	0.89830 0.49670 0.34494 0.31400
C 	C 	0.83160 0.55850 0.32827 -0.06300
C 	C 	0.77130 0.60320 0.35558 -0.03100
H 	H 	0.77740 0.59690 0.38450 0.03300
C 	C 	0.82220 0.56930 0.28513 -0.03900
H 	H 	0.86090 0.53910 0.26640 0.06800
C 	C 	0.70200 0.65720 0.33950 -0.03100
H 	H 	0.65910 0.68660 0.35790 0.02200
C 	C 	0.69470 0.66850 0.29754 -0.06600
H 	H 	0.64860 0.70570 0.28760 0.05200
C 	C 	0.75460 0.62560 0.26989 0.00700
C 	C 	0.74460 0.63860 0.22392 0.06900
C 	C 	0.68470 0.69690 0.20901 -0.08600
H 	H 	0.65170 0.72810 0.22790 0.07200
C 	C 	0.78480 0.60500 0.15377 0.03800
H 	H 	0.81970 0.57380 0.13510 0.00200
C 	C 	0.72470 0.66140 0.13826 -0.07800
H 	H 	0.71780 0.66820 0.10940 0.04900
C 	C 	0.67450 0.70810 0.16622 -0.02800
C 	C 	0.61400 0.77180 0.15024 0.29000
Cd	Cd	0.50604 0.88513 0.11896 1.16600
O 	O 	0.44000 0.95402 0.17994 -0.37400
O 	O 	0.40930 0.99019 0.11639 -0.45100
O 	O 	0.10210 0.27966 0.38835 -0.44100
O 	O 	0.07590 0.31468 0.32400 -0.38200
N 	N 	0.29460 0.09360 0.30364 -0.12300
C 	C 	0.39830 0.99670 0.15506 0.31500
C 	C 	0.33160 0.05850 0.17173 -0.06100
C 	C 	0.27130 0.10320 0.14442 -0.03000
H 	H 	0.27740 0.09690 0.11550 0.03400
C 	C 	0.32220 0.06930 0.21487 -0.03800
H 	H 	0.36090 0.03910 0.23360 0.06900
C 	C 	0.20200 0.15720 0.16050 -0.03000
H 	H 	0.15910 0.18660 0.14210 0.02400
C 	C 	0.19470 0.16850 0.20246 -0.06500
H 	H 	0.14860 0.20570 0.21240 0.05300
C 	C 	0.25460 0.12560 0.23011 0.00800
C 	C 	0.24460 0.13860 0.27608 0.07000
C 	C 	0.18470 0.19690 0.29099 -0.08600
H 	H 	0.15170 0.22810 0.27210 0.07200
C 	C 	0.28480 0.10500 0.34623 0.03800
H 	H 	0.31970 0.07380 0.36490 0.00100
C 	C 	0.22470 0.16140 0.36174 -0.07800
H 	H 	0.21780 0.16820 0.39060 0.04900
C 	C 	0.17450 0.20810 0.33378 -0.02800
C 	C 	0.11400 0.27180 0.34976 0.29000
Cd	Cd	0.49396 0.11487 0.88104 1.16600
O 	O 	0.56000 0.04598 0.82006 -0.37400
O 	O 	0.59070 0.00981 0.88361 -0.45100
O 	O 	0.89790 0.72034 0.61165 -0.44100
O 	O 	0.92410 0.68532 0.67600 -0.38200
N 	N 	0.70540 0.90640 0.69636 -0.12300
C 	C 	0.60170 0.00330 0.84494 0.31500
C 	C 	0.66840 0.94150 0.82827 -0.06100
C 	C 	0.72870 0.89680 0.85558 -0.03000
H 	H 	0.72260 0.90310 0.88450 0.03400
C 	C 	0.67780 0.93070 0.78513 -0.03800
H 	H 	0.63910 0.96090 0.76640 0.06900
C 	C 	0.79800 0.84280 0.83950 -0.03000
H 	H 	0.84090 0.81340 0.85790 0.02400
C 	C 	0.80530 0.83150 0.79754 -0.06500
H 	H 	0.85140 0.79430 0.78760 0.05300
C 	C 	0.74540 0.87440 0.76989 0.00800
C 	C 	0.75540 0.86140 0.72392 0.07000
C 	C 	0.81530 0.80310 0.70901 -0.08600
H 	H 	0.84830 0.77190 0.72790 0.07200
C 	C 	0.71520 0.89500 0.65377 0.03800
H 	H 	0.68030 0.92620 0.63510 0.00100
C 	C 	0.77530 0.83860 0.63826 -0.07800
H 	H 	0.78220 0.83180 0.60940 0.04900
C 	C 	0.82550 0.79190 0.66622 -0.02800
C 	C 	0.88600 0.72820 0.65024 0.29000
Cd	Cd	0.99396 0.61487 0.61896 1.16600
O 	O 	0.06000 0.54598 0.67994 -0.37400
O 	O 	0.09070 0.50981 0.61639 -0.45000
O 	O 	0.39790 0.22034 0.88835 -0.44100
O 	O 	0.42410 0.18532 0.82400 -0.38200
N 	N 	0.20540 0.40640 0.80364 -0.12300
C 	C 	0.10170 0.50330 0.65506 0.31500
C 	C 	0.16840 0.44150 0.67173 -0.06200
C 	C 	0.22870 0.39680 0.64442 -0.03000
H 	H 	0.22260 0.40310 0.61550 0.03400
C 	C 	0.17780 0.43070 0.71487 -0.03800
H 	H 	0.13910 0.46090 0.73360 0.06900
C 	C 	0.29800 0.34280 0.66050 -0.03000
H 	H 	0.34090 0.31340 0.64210 0.02300
C 	C 	0.30530 0.33150 0.70246 -0.06500
H 	H 	0.35140 0.29430 0.71240 0.05300
C 	C 	0.24540 0.37440 0.73011 0.00800
C 	C 	0.25540 0.36140 0.77608 0.07000
C 	C 	0.31530 0.30310 0.79099 -0.08600
H 	H 	0.34830 0.27190 0.77210 0.07200
C 	C 	0.21520 0.39500 0.84623 0.03800
H 	H 	0.18030 0.42620 0.86490 0.00200
C 	C 	0.27530 0.33860 0.86174 -0.07800
H 	H 	0.28220 0.33180 0.89060 0.04900
C 	C 	0.32550 0.29190 0.83378 -0.02800
C 	C 	0.38600 0.22820 0.84976 0.29000
Cd	Cd	0.99396 0.38513 0.11896 1.16600
O 	O 	0.06000 0.45402 0.17994 -0.37400
O 	O 	0.09070 0.49019 0.11639 -0.45000
O 	O 	0.39790 0.77966 0.38835 -0.44100
O 	O 	0.42410 0.81468 0.32400 -0.38200
N 	N 	0.20540 0.59360 0.30364 -0.12300
C 	C 	0.10170 0.49670 0.15506 0.31500
C 	C 	0.16840 0.55850 0.17173 -0.06100
C 	C 	0.22870 0.60320 0.14442 -0.03000
H 	H 	0.22260 0.59690 0.11550 0.03400
C 	C 	0.17780 0.56930 0.21487 -0.03800
H 	H 	0.13910 0.53910 0.23360 0.06900
C 	C 	0.29800 0.65720 0.16050 -0.03000
H 	H 	0.34090 0.68660 0.14210 0.02300
C 	C 	0.30530 0.66850 0.20246 -0.06500
H 	H 	0.35140 0.70570 0.21240 0.05300
C 	C 	0.24540 0.62560 0.23011 0.00800
C 	C 	0.25540 0.63860 0.27608 0.07000
C 	C 	0.31530 0.69690 0.29099 -0.08600
H 	H 	0.34830 0.72810 0.27210 0.07200
C 	C 	0.21520 0.60500 0.34623 0.03800
H 	H 	0.18030 0.57380 0.36490 0.00200
C 	C 	0.27530 0.66140 0.36174 -0.07800
H 	H 	0.28220 0.66820 0.39060 0.04900
C 	C 	0.32550 0.70810 0.33378 -0.02800
C 	C 	0.38600 0.77180 0.34976 0.29000
Cd	Cd	0.49396 0.88513 0.38104 1.16600
O 	O 	0.56000 0.95402 0.32006 -0.37400
O 	O 	0.59070 0.99019 0.38361 -0.45100
O 	O 	0.89790 0.27966 0.11165 -0.44100
O 	O 	0.92410 0.31468 0.17600 -0.38200
N 	N 	0.70540 0.09360 0.19636 -0.12300
C 	C 	0.60170 0.99670 0.34494 0.31500
C 	C 	0.66840 0.05850 0.32827 -0.06200
C 	C 	0.72870 0.10320 0.35558 -0.03000
H 	H 	0.72260 0.09690 0.38450 0.03400
C 	C 	0.67780 0.06930 0.28513 -0.03800
H 	H 	0.63910 0.03910 0.26640 0.06900
C 	C 	0.79800 0.15720 0.33950 -0.03000
H 	H 	0.84090 0.18660 0.35790 0.02400
C 	C 	0.80530 0.16850 0.29754 -0.06500
H 	H 	0.85140 0.20570 0.28760 0.05300
C 	C 	0.74540 0.12560 0.26989 0.00800
C 	C 	0.75540 0.13860 0.22392 0.07000
C 	C 	0.81530 0.19690 0.20901 -0.08600
H 	H 	0.84830 0.22810 0.22790 0.07200
C 	C 	0.71520 0.10500 0.15377 0.03800
H 	H 	0.68030 0.07380 0.13510 0.00200
C 	C 	0.77530 0.16140 0.13826 -0.07800
H 	H 	0.78220 0.16820 0.10940 0.04900
C 	C 	0.82550 0.20810 0.16622 -0.02800
C 	C 	0.88600 0.27180 0.15024 0.29000
Cd	Cd	0.50604 0.11487 0.61896 1.16600
O 	O 	0.44000 0.04598 0.67994 -0.37400
O 	O 	0.40930 0.00981 0.61639 -0.45100
O 	O 	0.10210 0.72034 0.88835 -0.44100
O 	O 	0.07590 0.68532 0.82400 -0.38200
N 	N 	0.29460 0.90640 0.80364 -0.12300
C 	C 	0.39830 0.00330 0.65506 0.31500
C 	C 	0.33160 0.94150 0.67173 -0.06200
C 	C 	0.27130 0.89680 0.64442 -0.03000
H 	H 	0.27740 0.90310 0.61550 0.03400
C 	C 	0.32220 0.93070 0.71487 -0.03800
H 	H 	0.36090 0.96090 0.73360 0.06900
C 	C 	0.20200 0.84280 0.66050 -0.03000
H 	H 	0.15910 0.81340 0.64210 0.02400
C 	C 	0.19470 0.83150 0.70246 -0.06500
H 	H 	0.14860 0.79430 0.71240 0.05300
C 	C 	0.25460 0.87440 0.73011 0.00800
C 	C 	0.24460 0.86140 0.77608 0.07000
C 	C 	0.18470 0.80310 0.79099 -0.08600
H 	H 	0.15170 0.77190 0.77210 0.07200
C 	C 	0.28480 0.89500 0.84623 0.03800
H 	H 	0.31970 0.92620 0.86490 0.00200
C 	C 	0.22470 0.83860 0.86174 -0.07800
H 	H 	0.21780 0.83180 0.89060 0.04900
C 	C 	0.17450 0.79190 0.83378 -0.02800
C 	C 	0.11400 0.72820 0.84976 0.29000
Cd	Cd	0.00604 0.61487 0.88104 1.16600
O 	O 	0.94000 0.54598 0.82006 -0.37400
O 	O 	0.90930 0.50981 0.88361 -0.45000
O 	O 	0.60210 0.22034 0.61165 -0.44100
O 	O 	0.57590 0.18532 0.67600 -0.38200
N 	N 	0.79460 0.40640 0.69636 -0.12300
C 	C 	0.89830 0.50330 0.84494 0.31500
C 	C 	0.83160 0.44150 0.82827 -0.06100
C 	C 	0.77130 0.39680 0.85558 -0.03000
H 	H 	0.77740 0.40310 0.88450 0.03400
C 	C 	0.82220 0.43070 0.78513 -0.03800
H 	H 	0.86090 0.46090 0.76640 0.06900
C 	C 	0.70200 0.34280 0.83950 -0.03000
H 	H 	0.65910 0.31340 0.85790 0.02300
C 	C 	0.69470 0.33150 0.79754 -0.06500
H 	H 	0.64860 0.29430 0.78760 0.05300
C 	C 	0.75460 0.37440 0.76989 0.00800
C 	C 	0.74460 0.36140 0.72392 0.07000
C 	C 	0.68470 0.30310 0.70901 -0.08600
H 	H 	0.65170 0.27190 0.72790 0.07200
C 	C 	0.78480 0.39500 0.65377 0.03800
H 	H 	0.81970 0.42620 0.63510 0.00200
C 	C 	0.72470 0.33860 0.63826 -0.07800
H 	H 	0.71780 0.33180 0.60940 0.04900
C 	C 	0.67450 0.29190 0.66622 -0.02800
C 	C 	0.61400 0.22820 0.65024 0.29000
