data_crystal

_cell_length_a 7.67240
_cell_length_b 13.74900
_cell_length_c 8.71000
_cell_angle_alpha 90.00000
_cell_angle_beta  107.53100
_cell_angle_gamma 90.00000

_symmetry_space_group_name_	'P 1'
_symmetry_space_group_name_H-M	'P 1'

loop_
_symmetry_equiv_pos_as_xyz
  x,y,z

loop_
_atom_site_label
_atom_site_type_symbol
_atom_site_fract_x
_atom_site_fract_y
_atom_site_fract_z
_atom_site_charge
Cu	Cu	0.15400 0.14078 0.35914 0.89900
O 	O 	0.11628 0.16792 0.13005 -0.46600
N 	N 	0.17516 0.08634 0.58332 -0.21500
C 	C 	0.05730 0.01546 0.57997 0.03800
N 	N 	0.96893 0.03034 0.29464 -0.22600
C 	C 	0.86260 0.00295 0.14846 0.06700
H 	H 	0.87640 0.03360 0.05500 0.00600
C 	C 	0.73260 0.93019 0.13250 -0.13400
H 	H 	0.65620 0.91120 0.02930 0.06400
C 	C 	0.28260 0.11384 0.72960 0.06500
H 	H 	0.36990 0.16410 0.73800 0.01300
Cu	Cu	0.84600 0.64078 0.64086 0.90000
O 	O 	0.88372 0.66792 0.86995 -0.46400
N 	N 	0.82484 0.58634 0.41668 -0.21400
C 	C 	0.94270 0.51546 0.42003 0.04000
N 	N 	0.03107 0.53034 0.70536 -0.22700
C 	C 	0.13740 0.50295 0.85154 0.06600
H 	H 	0.12360 0.53360 0.94500 0.00600
C 	C 	0.26740 0.43019 0.86750 -0.13300
H 	H 	0.34380 0.41120 0.97070 0.06400
C 	C 	0.71740 0.61384 0.27040 0.06400
H 	H 	0.63010 0.66410 0.26200 0.01300
Cu	Cu	0.84600 0.85922 0.64086 0.90000
O 	O 	0.88372 0.83208 0.86995 -0.46500
N 	N 	0.82484 0.91366 0.41668 -0.21400
C 	C 	0.94270 0.98454 0.42003 0.03900
N 	N 	0.03107 0.96966 0.70536 -0.22600
C 	C 	0.13740 0.99705 0.85154 0.06700
H 	H 	0.12360 0.96640 0.94500 0.00600
C 	C 	0.26740 0.06981 0.86750 -0.13400
H 	H 	0.34380 0.08880 0.97070 0.06400
C 	C 	0.71740 0.88616 0.27040 0.06500
H 	H 	0.63010 0.83590 0.26200 0.01300
Cu	Cu	0.15400 0.35922 0.35914 0.90000
O 	O 	0.11628 0.33208 0.13005 -0.46400
N 	N 	0.17516 0.41366 0.58332 -0.21400
C 	C 	0.05730 0.48454 0.57997 0.04000
N 	N 	0.96893 0.46966 0.29464 -0.22700
C 	C 	0.86260 0.49705 0.14846 0.06600
H 	H 	0.87640 0.46640 0.05500 0.00600
C 	C 	0.73260 0.56981 0.13250 -0.13300
H 	H 	0.65620 0.58880 0.02930 0.06400
C 	C 	0.28260 0.38616 0.72960 0.06400
H 	H 	0.36990 0.33590 0.73800 0.01300
C 	C 	0.10120 0.25000 0.06470 0.40300
H 	H 	0.07490 0.25000 0.95090 -0.08700
O 	O 	0.30670 0.25000 0.44450 -1.55800
H 	H 	0.36800 0.25000 0.41600 1.01400
C 	C 	0.89880 0.75000 0.93530 0.40300
H 	H 	0.92510 0.75000 0.04910 -0.08700
O 	O 	0.69330 0.75000 0.55550 -1.55800
H 	H 	0.63200 0.75000 0.58400 1.01400
