data_crystal

_cell_length_a 22.52100
_cell_length_b 13.22000
_cell_length_c 24.87000
_cell_angle_alpha 90.00000
_cell_angle_beta  90.00000
_cell_angle_gamma 90.00000

_symmetry_space_group_name_	'P 1'
_symmetry_space_group_name_H-M	'P 1'

loop_
_symmetry_equiv_pos_as_xyz
  x,y,z

loop_
_atom_site_label
_atom_site_type_symbol
_atom_site_fract_x
_atom_site_fract_y
_atom_site_fract_z
_atom_site_charge
Cu	Cu	0.37966 0.23854 0.53218 0.87800
N 	N 	0.35018 0.19650 0.46134 -0.25400
O 	O 	0.43168 0.40030 0.40658 -0.34000
O 	O 	0.41896 0.34660 0.49082 -0.43400
O 	O 	0.35876 0.24340 0.37229 -0.17700
N 	N 	0.34280 0.02500 0.43645 -0.17100
N 	N 	0.34243 0.14700 0.58484 -0.25500
O 	O 	0.40251 0.30200 0.68660 -0.24500
O 	O 	0.40818 0.30800 0.59702 -0.42100
H 	H 	0.53140 0.60820 0.31930 0.27600
C 	C 	0.31386 0.11230 0.44647 0.17400
C 	C 	0.30922 0.05630 0.57645 0.18400
O 	O 	0.33015 0.13420 0.67691 -0.16000
C 	C 	0.36969 0.25410 0.42001 0.08600
C 	C 	0.41053 0.34210 0.43978 0.27400
C 	C 	0.34944 0.17530 0.63603 0.10700
C 	C 	0.38984 0.27050 0.64117 0.26000
C 	C 	0.24833 0.05300 0.58076 -0.21500
H 	H 	0.22690 0.11050 0.59020 0.12300
C 	C 	0.21959 0.96230 0.57081 0.12600
H 	H 	0.17850 0.95800 0.57360 -0.01100
C 	C 	0.25242 0.12140 0.44317 -0.20100
H 	H 	0.23390 0.18280 0.45030 0.07000
Cu	Cu	0.37966 0.76146 0.46782 0.87900
N 	N 	0.35018 0.80350 0.53866 -0.25300
O 	O 	0.43168 0.59970 0.59342 -0.33900
O 	O 	0.41896 0.65340 0.50918 -0.43300
O 	O 	0.35876 0.75660 0.62771 -0.17600
N 	N 	0.34280 0.97500 0.56355 -0.17000
N 	N 	0.34243 0.85300 0.41516 -0.25400
O 	O 	0.40251 0.69800 0.31340 -0.24400
O 	O 	0.40818 0.69200 0.40298 -0.42000
H 	H 	0.53140 0.39180 0.68070 0.27700
C 	C 	0.31386 0.88770 0.55353 0.17500
C 	C 	0.30922 0.94370 0.42355 0.18500
O 	O 	0.33015 0.86580 0.32309 -0.15900
C 	C 	0.36969 0.74590 0.57999 0.08700
C 	C 	0.41053 0.65790 0.56022 0.27400
C 	C 	0.34944 0.82470 0.36397 0.10700
C 	C 	0.38984 0.72950 0.35883 0.26000
C 	C 	0.24833 0.94700 0.41924 -0.21500
H 	H 	0.22690 0.88950 0.40980 0.12300
C 	C 	0.21959 0.03770 0.42919 0.12600
H 	H 	0.17850 0.04200 0.42640 -0.01100
C 	C 	0.25242 0.87860 0.55683 -0.20100
H 	H 	0.23390 0.81720 0.54970 0.07000
Cu	Cu	0.62034 0.76146 0.46782 0.87900
N 	N 	0.64982 0.80350 0.53866 -0.25300
O 	O 	0.56832 0.59970 0.59342 -0.33900
O 	O 	0.58104 0.65340 0.50918 -0.43300
O 	O 	0.64124 0.75660 0.62771 -0.17500
N 	N 	0.65720 0.97500 0.56355 -0.17000
N 	N 	0.65757 0.85300 0.41516 -0.25400
O 	O 	0.59749 0.69800 0.31340 -0.24400
O 	O 	0.59182 0.69200 0.40298 -0.42000
H 	H 	0.46860 0.39180 0.68070 0.27700
C 	C 	0.68614 0.88770 0.55353 0.17400
C 	C 	0.69078 0.94370 0.42355 0.18400
O 	O 	0.66985 0.86580 0.32309 -0.15800
C 	C 	0.63031 0.74590 0.57999 0.08700
C 	C 	0.58947 0.65790 0.56022 0.27400
C 	C 	0.65056 0.82470 0.36397 0.10700
C 	C 	0.61016 0.72950 0.35883 0.26000
C 	C 	0.75167 0.94700 0.41924 -0.21400
H 	H 	0.77310 0.88950 0.40980 0.12300
C 	C 	0.78041 0.03770 0.42919 0.12400
H 	H 	0.82150 0.04200 0.42640 -0.01000
C 	C 	0.74758 0.87860 0.55683 -0.20000
H 	H 	0.76610 0.81720 0.54970 0.06900
Cu	Cu	0.62034 0.23854 0.53218 0.87900
N 	N 	0.64982 0.19650 0.46134 -0.25300
O 	O 	0.56832 0.40030 0.40658 -0.33900
O 	O 	0.58104 0.34660 0.49082 -0.43300
O 	O 	0.64124 0.24340 0.37229 -0.17500
N 	N 	0.65720 0.02500 0.43645 -0.17000
N 	N 	0.65757 0.14700 0.58484 -0.25400
O 	O 	0.59749 0.30200 0.68660 -0.24400
O 	O 	0.59182 0.30800 0.59702 -0.42000
H 	H 	0.46860 0.60820 0.31930 0.27700
C 	C 	0.68614 0.11230 0.44647 0.17400
C 	C 	0.69078 0.05630 0.57645 0.18400
O 	O 	0.66985 0.13420 0.67691 -0.15800
C 	C 	0.63031 0.25410 0.42001 0.08700
C 	C 	0.58947 0.34210 0.43978 0.27400
C 	C 	0.65056 0.17530 0.63603 0.10700
C 	C 	0.61016 0.27050 0.64117 0.26000
C 	C 	0.75167 0.05300 0.58076 -0.21400
H 	H 	0.77310 0.11050 0.59020 0.12300
C 	C 	0.78041 0.96230 0.57081 0.12400
H 	H 	0.82150 0.95800 0.57360 -0.01000
C 	C 	0.74758 0.12140 0.44317 -0.20000
H 	H 	0.76610 0.18280 0.45030 0.06900
Na	Na	0.50000 0.39605 0.33129 0.58500
O 	O 	0.50000 0.56570 0.32193 -0.61300
K 	K 	0.50000 0.56811 0.43681 0.65600
Na	Na	0.50000 0.60395 0.66871 0.58500
O 	O 	0.50000 0.43430 0.67807 -0.61300
K 	K 	0.50000 0.43189 0.56319 0.65600
Cu	Cu	0.87966 0.73854 0.53218 0.88200
N 	N 	0.85018 0.69650 0.46134 -0.25200
O 	O 	0.93168 0.90030 0.40658 -0.32000
O 	O 	0.91896 0.84660 0.49082 -0.42000
O 	O 	0.85876 0.74340 0.37229 -0.17000
N 	N 	0.84280 0.52500 0.43645 -0.16700
N 	N 	0.84243 0.64700 0.58484 -0.25300
O 	O 	0.90251 0.80200 0.68660 -0.23700
O 	O 	0.90818 0.80800 0.59702 -0.41000
H 	H 	0.03140 0.10820 0.31930 0.28600
C 	C 	0.81386 0.61230 0.44647 0.17600
C 	C 	0.80922 0.55630 0.57645 0.18600
O 	O 	0.83015 0.63420 0.67691 -0.15500
C 	C 	0.86969 0.75410 0.42001 0.09100
C 	C 	0.91053 0.84210 0.43978 0.27300
C 	C 	0.84944 0.67530 0.63603 0.11000
C 	C 	0.88984 0.77050 0.64117 0.26100
C 	C 	0.74833 0.55300 0.58076 -0.21600
H 	H 	0.72690 0.61050 0.59020 0.12300
C 	C 	0.71959 0.46230 0.57081 0.12700
H 	H 	0.67850 0.45800 0.57360 -0.01200
C 	C 	0.75242 0.62140 0.44317 -0.20100
H 	H 	0.73390 0.68280 0.45030 0.07000
Cu	Cu	0.87966 0.26146 0.46782 0.88200
N 	N 	0.85018 0.30350 0.53866 -0.25200
O 	O 	0.93168 0.09970 0.59342 -0.32000
O 	O 	0.91896 0.15340 0.50918 -0.42000
O 	O 	0.85876 0.25660 0.62771 -0.17000
N 	N 	0.84280 0.47500 0.56355 -0.16700
N 	N 	0.84243 0.35300 0.41516 -0.25300
O 	O 	0.90251 0.19800 0.31340 -0.23700
O 	O 	0.90818 0.19200 0.40298 -0.41000
H 	H 	0.03140 0.89180 0.68070 0.28600
C 	C 	0.81386 0.38770 0.55353 0.17600
C 	C 	0.80922 0.44370 0.42355 0.18600
O 	O 	0.83015 0.36580 0.32309 -0.15500
C 	C 	0.86969 0.24590 0.57999 0.09100
C 	C 	0.91053 0.15790 0.56022 0.27300
C 	C 	0.84944 0.32470 0.36397 0.11000
C 	C 	0.88984 0.22950 0.35883 0.26100
C 	C 	0.74833 0.44700 0.41924 -0.21600
H 	H 	0.72690 0.38950 0.40980 0.12300
C 	C 	0.71959 0.53770 0.42919 0.12700
H 	H 	0.67850 0.54200 0.42640 -0.01200
C 	C 	0.75242 0.37860 0.55683 -0.20100
H 	H 	0.73390 0.31720 0.54970 0.07000
Cu	Cu	0.12034 0.26146 0.46782 0.87600
N 	N 	0.14982 0.30350 0.53866 -0.25500
O 	O 	0.06832 0.09970 0.59342 -0.34800
O 	O 	0.08104 0.15340 0.50918 -0.44100
O 	O 	0.14124 0.25660 0.62771 -0.17900
N 	N 	0.15720 0.47500 0.56355 -0.17300
N 	N 	0.15757 0.35300 0.41516 -0.25600
O 	O 	0.09749 0.19800 0.31340 -0.25300
O 	O 	0.09182 0.19200 0.40298 -0.42700
H 	H 	0.96860 0.89180 0.68070 0.32600
C 	C 	0.18614 0.38770 0.55353 0.17300
C 	C 	0.19078 0.44370 0.42355 0.18300
O 	O 	0.16985 0.36580 0.32309 -0.16100
C 	C 	0.13031 0.24590 0.57999 0.08400
C 	C 	0.08947 0.15790 0.56022 0.27200
C 	C 	0.15056 0.32470 0.36397 0.10400
C 	C 	0.11016 0.22950 0.35883 0.25900
C 	C 	0.25167 0.44700 0.41924 -0.21400
H 	H 	0.27310 0.38950 0.40980 0.12200
C 	C 	0.28041 0.53770 0.42919 0.12500
H 	H 	0.32150 0.54200 0.42640 -0.01100
C 	C 	0.24758 0.37860 0.55683 -0.19900
H 	H 	0.26610 0.31720 0.54970 0.07000
Cu	Cu	0.12034 0.73854 0.53218 0.87600
N 	N 	0.14982 0.69650 0.46134 -0.25500
O 	O 	0.06832 0.90030 0.40658 -0.34800
O 	O 	0.08104 0.84660 0.49082 -0.44100
O 	O 	0.14124 0.74340 0.37229 -0.17900
N 	N 	0.15720 0.52500 0.43645 -0.17300
N 	N 	0.15757 0.64700 0.58484 -0.25600
O 	O 	0.09749 0.80200 0.68660 -0.25300
O 	O 	0.09182 0.80800 0.59702 -0.42700
H 	H 	0.96860 0.10820 0.31930 0.32600
C 	C 	0.18614 0.61230 0.44647 0.17300
C 	C 	0.19078 0.55630 0.57645 0.18300
O 	O 	0.16985 0.63420 0.67691 -0.16100
C 	C 	0.13031 0.75410 0.42001 0.08400
C 	C 	0.08947 0.84210 0.43978 0.27200
C 	C 	0.15056 0.67530 0.63603 0.10400
C 	C 	0.11016 0.77050 0.64117 0.25900
C 	C 	0.25167 0.55300 0.58076 -0.21400
H 	H 	0.27310 0.61050 0.59020 0.12200
C 	C 	0.28041 0.46230 0.57081 0.12500
H 	H 	0.32150 0.45800 0.57360 -0.01100
C 	C 	0.24758 0.62140 0.44317 -0.19900
H 	H 	0.26610 0.68280 0.45030 0.07000
Na	Na	0.00000 0.89605 0.33129 0.58000
O 	O 	-0.00000 0.06570 0.32193 -0.67900
K 	K 	-0.00000 0.06811 0.43681 0.64700
Na	Na	0.00000 0.10395 0.66871 0.58000
O 	O 	0.00000 0.93430 0.67807 -0.67900
K 	K 	-0.00000 0.93189 0.56319 0.64700
Cu	Cu	0.62034 0.26146 0.03218 0.87900
N 	N 	0.64982 0.30350 0.96134 -0.25300
O 	O 	0.56832 0.09970 0.90658 -0.33900
O 	O 	0.58104 0.15340 0.99082 -0.43300
O 	O 	0.64124 0.25660 0.87229 -0.17500
N 	N 	0.65720 0.47500 0.93645 -0.17000
N 	N 	0.65757 0.35300 0.08484 -0.25400
O 	O 	0.59749 0.19800 0.18660 -0.24400
O 	O 	0.59182 0.19200 0.09702 -0.42000
H 	H 	0.46860 0.89180 0.81930 0.27700
C 	C 	0.68614 0.38770 0.94647 0.17400
C 	C 	0.69078 0.44370 0.07645 0.18400
O 	O 	0.66985 0.36580 0.17691 -0.15800
C 	C 	0.63031 0.24590 0.92001 0.08700
C 	C 	0.58947 0.15790 0.93978 0.27400
C 	C 	0.65056 0.32470 0.13603 0.10700
C 	C 	0.61016 0.22950 0.14117 0.26000
C 	C 	0.75167 0.44700 0.08076 -0.21400
H 	H 	0.77310 0.38950 0.09020 0.12300
C 	C 	0.78041 0.53770 0.07081 0.12500
H 	H 	0.82150 0.54200 0.07360 -0.01000
C 	C 	0.74758 0.37860 0.94317 -0.20000
H 	H 	0.76610 0.31720 0.95030 0.07000
Cu	Cu	0.62034 0.73854 0.96782 0.87900
N 	N 	0.64982 0.69650 0.03866 -0.25300
O 	O 	0.56832 0.90030 0.09342 -0.33900
O 	O 	0.58104 0.84660 0.00918 -0.43300
O 	O 	0.64124 0.74340 0.12771 -0.17500
N 	N 	0.65720 0.52500 0.06355 -0.17000
N 	N 	0.65757 0.64700 0.91516 -0.25400
O 	O 	0.59749 0.80200 0.81340 -0.24400
O 	O 	0.59182 0.80800 0.90298 -0.42000
H 	H 	0.46860 0.10820 0.18070 0.27700
C 	C 	0.68614 0.61230 0.05353 0.17400
C 	C 	0.69078 0.55630 0.92355 0.18400
O 	O 	0.66985 0.63420 0.82309 -0.15800
C 	C 	0.63031 0.75410 0.07999 0.08700
C 	C 	0.58947 0.84210 0.06022 0.27400
C 	C 	0.65056 0.67530 0.86397 0.10700
C 	C 	0.61016 0.77050 0.85883 0.26000
C 	C 	0.75167 0.55300 0.91924 -0.21400
H 	H 	0.77310 0.61050 0.90980 0.12300
C 	C 	0.78041 0.46230 0.92919 0.12500
H 	H 	0.82150 0.45800 0.92640 -0.01000
C 	C 	0.74758 0.62140 0.05683 -0.20000
H 	H 	0.76610 0.68280 0.04970 0.07000
Cu	Cu	0.37966 0.73854 0.96782 0.87900
N 	N 	0.35018 0.69650 0.03866 -0.25300
O 	O 	0.43168 0.90030 0.09342 -0.33900
O 	O 	0.41896 0.84660 0.00918 -0.43300
O 	O 	0.35876 0.74340 0.12771 -0.17600
N 	N 	0.34280 0.52500 0.06355 -0.17000
N 	N 	0.34243 0.64700 0.91516 -0.25400
O 	O 	0.40251 0.80200 0.81340 -0.24400
O 	O 	0.40818 0.80800 0.90298 -0.42000
H 	H 	0.53140 0.10820 0.18070 0.27700
C 	C 	0.31386 0.61230 0.05353 0.17500
C 	C 	0.30922 0.55630 0.92355 0.18500
O 	O 	0.33015 0.63420 0.82309 -0.15900
C 	C 	0.36969 0.75410 0.07999 0.08700
C 	C 	0.41053 0.84210 0.06022 0.27400
C 	C 	0.34944 0.67530 0.86397 0.10700
C 	C 	0.38984 0.77050 0.85883 0.26000
C 	C 	0.24833 0.55300 0.91924 -0.21500
H 	H 	0.22690 0.61050 0.90980 0.12300
C 	C 	0.21959 0.46230 0.92919 0.12600
H 	H 	0.17850 0.45800 0.92640 -0.01100
C 	C 	0.25242 0.62140 0.05683 -0.20100
H 	H 	0.23390 0.68280 0.04970 0.07000
Cu	Cu	0.37966 0.26146 0.03218 0.87900
N 	N 	0.35018 0.30350 0.96134 -0.25300
O 	O 	0.43168 0.09970 0.90658 -0.33900
O 	O 	0.41896 0.15340 0.99082 -0.43300
O 	O 	0.35876 0.25660 0.87229 -0.17600
N 	N 	0.34280 0.47500 0.93645 -0.17000
N 	N 	0.34243 0.35300 0.08484 -0.25400
O 	O 	0.40251 0.19800 0.18660 -0.24400
O 	O 	0.40818 0.19200 0.09702 -0.42000
H 	H 	0.53140 0.89180 0.81930 0.27700
C 	C 	0.31386 0.38770 0.94647 0.17500
C 	C 	0.30922 0.44370 0.07645 0.18500
O 	O 	0.33015 0.36580 0.17691 -0.15900
C 	C 	0.36969 0.24590 0.92001 0.08700
C 	C 	0.41053 0.15790 0.93978 0.27400
C 	C 	0.34944 0.32470 0.13603 0.10700
C 	C 	0.38984 0.22950 0.14117 0.26000
C 	C 	0.24833 0.44700 0.08076 -0.21500
H 	H 	0.22690 0.38950 0.09020 0.12300
C 	C 	0.21959 0.53770 0.07081 0.12600
H 	H 	0.17850 0.54200 0.07360 -0.01100
C 	C 	0.25242 0.37860 0.94317 -0.20100
H 	H 	0.23390 0.31720 0.95030 0.07000
Na	Na	0.50000 0.10395 0.83129 0.58500
O 	O 	0.50000 0.93430 0.82193 -0.61400
K 	K 	0.50000 0.93189 0.93681 0.65600
Na	Na	0.50000 0.89605 0.16871 0.58500
O 	O 	0.50000 0.06570 0.17807 -0.61400
K 	K 	0.50000 0.06811 0.06319 0.65600
Cu	Cu	0.12034 0.76146 0.03218 0.87600
N 	N 	0.14982 0.80350 0.96134 -0.25400
O 	O 	0.06832 0.59970 0.90658 -0.34800
O 	O 	0.08104 0.65340 0.99082 -0.44000
O 	O 	0.14124 0.75660 0.87229 -0.17900
N 	N 	0.15720 0.97500 0.93645 -0.17300
N 	N 	0.15757 0.85300 0.08484 -0.25500
O 	O 	0.09749 0.69800 0.18660 -0.25300
O 	O 	0.09182 0.69200 0.09702 -0.42700
H 	H 	0.96860 0.39180 0.81930 0.32700
C 	C 	0.18614 0.88770 0.94647 0.17300
C 	C 	0.19078 0.94370 0.07645 0.18300
O 	O 	0.16985 0.86580 0.17691 -0.16100
C 	C 	0.13031 0.74590 0.92001 0.08400
C 	C 	0.08947 0.65790 0.93978 0.27200
C 	C 	0.15056 0.82470 0.13603 0.10400
C 	C 	0.11016 0.72950 0.14117 0.25900
C 	C 	0.25167 0.94700 0.08076 -0.21300
H 	H 	0.27310 0.88950 0.09020 0.12200
C 	C 	0.28041 0.03770 0.07081 0.12400
H 	H 	0.32150 0.04200 0.07360 -0.01100
C 	C 	0.24758 0.87860 0.94317 -0.19900
H 	H 	0.26610 0.81720 0.95030 0.07000
Cu	Cu	0.12034 0.23854 0.96782 0.87600
N 	N 	0.14982 0.19650 0.03866 -0.25400
O 	O 	0.06832 0.40030 0.09342 -0.34800
O 	O 	0.08104 0.34660 0.00918 -0.44000
O 	O 	0.14124 0.24340 0.12771 -0.17900
N 	N 	0.15720 0.02500 0.06355 -0.17300
N 	N 	0.15757 0.14700 0.91516 -0.25500
O 	O 	0.09749 0.30200 0.81340 -0.25300
O 	O 	0.09182 0.30800 0.90298 -0.42700
H 	H 	0.96860 0.60820 0.18070 0.32700
C 	C 	0.18614 0.11230 0.05353 0.17300
C 	C 	0.19078 0.05630 0.92355 0.18300
O 	O 	0.16985 0.13420 0.82309 -0.16100
C 	C 	0.13031 0.25410 0.07999 0.08400
C 	C 	0.08947 0.34210 0.06022 0.27200
C 	C 	0.15056 0.17530 0.86397 0.10400
C 	C 	0.11016 0.27050 0.85883 0.25900
C 	C 	0.25167 0.05300 0.91924 -0.21300
H 	H 	0.27310 0.11050 0.90980 0.12200
C 	C 	0.28041 0.96230 0.92919 0.12400
H 	H 	0.32150 0.95800 0.92640 -0.01100
C 	C 	0.24758 0.12140 0.05683 -0.19900
H 	H 	0.26610 0.18280 0.04970 0.07000
Cu	Cu	0.87966 0.23854 0.96782 0.88200
N 	N 	0.85018 0.19650 0.03866 -0.25200
O 	O 	0.93168 0.40030 0.09342 -0.32000
O 	O 	0.91896 0.34660 0.00918 -0.42000
O 	O 	0.85876 0.24340 0.12771 -0.17100
N 	N 	0.84280 0.02500 0.06355 -0.16700
N 	N 	0.84243 0.14700 0.91516 -0.25300
O 	O 	0.90251 0.30200 0.81340 -0.23700
O 	O 	0.90818 0.30800 0.90298 -0.41000
H 	H 	0.03140 0.60820 0.18070 0.28600
C 	C 	0.81386 0.11230 0.05353 0.17600
C 	C 	0.80922 0.05630 0.92355 0.18600
O 	O 	0.83015 0.13420 0.82309 -0.15500
C 	C 	0.86969 0.25410 0.07999 0.09100
C 	C 	0.91053 0.34210 0.06022 0.27300
C 	C 	0.84944 0.17530 0.86397 0.11000
C 	C 	0.88984 0.27050 0.85883 0.26100
C 	C 	0.74833 0.05300 0.91924 -0.21500
H 	H 	0.72690 0.11050 0.90980 0.12300
C 	C 	0.71959 0.96230 0.92919 0.12600
H 	H 	0.67850 0.95800 0.92640 -0.01100
C 	C 	0.75242 0.12140 0.05683 -0.20100
H 	H 	0.73390 0.18280 0.04970 0.07000
Cu	Cu	0.87966 0.76146 0.03218 0.88200
N 	N 	0.85018 0.80350 0.96134 -0.25200
O 	O 	0.93168 0.59970 0.90658 -0.32000
O 	O 	0.91896 0.65340 0.99082 -0.42000
O 	O 	0.85876 0.75660 0.87229 -0.17100
N 	N 	0.84280 0.97500 0.93645 -0.16700
N 	N 	0.84243 0.85300 0.08484 -0.25300
O 	O 	0.90251 0.69800 0.18660 -0.23700
O 	O 	0.90818 0.69200 0.09702 -0.41000
H 	H 	0.03140 0.39180 0.81930 0.28600
C 	C 	0.81386 0.88770 0.94647 0.17600
C 	C 	0.80922 0.94370 0.07645 0.18600
O 	O 	0.83015 0.86580 0.17691 -0.15500
C 	C 	0.86969 0.74590 0.92001 0.09100
C 	C 	0.91053 0.65790 0.93978 0.27300
C 	C 	0.84944 0.82470 0.13603 0.11000
C 	C 	0.88984 0.72950 0.14117 0.26100
C 	C 	0.74833 0.94700 0.08076 -0.21500
H 	H 	0.72690 0.88950 0.09020 0.12300
C 	C 	0.71959 0.03770 0.07081 0.12600
H 	H 	0.67850 0.04200 0.07360 -0.01100
C 	C 	0.75242 0.87860 0.94317 -0.20100
H 	H 	0.73390 0.81720 0.95030 0.07000
Na	Na	-0.00000 0.60395 0.83129 0.58000
O 	O 	-0.00000 0.43430 0.82193 -0.67900
K 	K 	-0.00000 0.43189 0.93681 0.64700
Na	Na	-0.00000 0.39605 0.16871 0.58000
O 	O 	-0.00000 0.56570 0.17807 -0.67900
K 	K 	0.00000 0.56811 0.06319 0.64700
