data_crystal

_cell_length_a 6.93230
_cell_length_b 7.54160
_cell_length_c 12.93990
_cell_angle_alpha 99.42200
_cell_angle_beta  91.31600
_cell_angle_gamma 102.57900

_symmetry_space_group_name_	'P 1'
_symmetry_space_group_name_H-M	'P 1'

loop_
_symmetry_equiv_pos_as_xyz
  x,y,z

loop_
_atom_site_label
_atom_site_type_symbol
_atom_site_fract_x
_atom_site_fract_y
_atom_site_fract_z
_atom_site_charge
O 	O 	0.14200 0.79980 0.88800 -0.01100
O 	O 	0.99450 0.51900 0.81660 -0.07200
O 	O 	0.48330 0.38750 0.15080 -0.04500
O 	O 	0.27320 0.18350 0.21700 -0.10100
N 	N 	0.33640 0.84310 0.60250 -0.16700
N 	N 	0.28020 0.86910 0.70330 -0.05500
N 	N 	0.17190 0.56590 0.63220 -0.12700
N 	N 	0.10140 0.67170 0.81360 -0.02000
N 	N 	0.41820 0.73550 0.40870 -0.16900
N 	N 	0.45410 0.65200 0.31230 -0.05800
N 	N 	0.28680 0.43310 0.39980 -0.13700
N 	N 	0.37630 0.33960 0.22080 -0.02000
C 	C 	0.18520 0.70180 0.71480 0.20300
C 	C 	0.26950 0.66220 0.56460 0.08300
C 	C 	0.31940 0.60220 0.45720 0.08500
C 	C 	0.37310 0.47580 0.31260 0.19200
O 	O 	0.85800 0.20020 0.11200 -0.06700
O 	O 	0.00550 0.48100 0.18340 -0.04000
O 	O 	0.51670 0.61250 0.84920 -0.04500
O 	O 	0.72680 0.81650 0.78300 -0.03800
N 	N 	0.66360 0.15690 0.39750 -0.21500
N 	N 	0.71980 0.13090 0.29670 -0.10000
N 	N 	0.82810 0.43410 0.36780 -0.11500
N 	N 	0.89860 0.32830 0.18640 -0.02000
N 	N 	0.58180 0.26450 0.59130 -0.21600
N 	N 	0.54590 0.34800 0.68770 -0.09500
N 	N 	0.71320 0.56690 0.60020 -0.12400
N 	N 	0.62370 0.66040 0.77920 -0.02500
C 	C 	0.81480 0.29820 0.28520 0.19400
C 	C 	0.73050 0.33780 0.43540 0.07300
C 	C 	0.68060 0.39780 0.54280 0.07500
C 	C 	0.62690 0.52420 0.68740 0.19000
Ni	Ni	0.50000 0.00000 0.50000 0.98700
