data_crystal

_cell_length_a 8.10510
_cell_length_b 8.15100
_cell_length_c 9.90030
_cell_angle_alpha 75.85180
_cell_angle_beta  82.35960
_cell_angle_gamma 76.93430

_symmetry_space_group_name_	'P 1'
_symmetry_space_group_name_H-M	'P 1'

loop_
_symmetry_equiv_pos_as_xyz
  x,y,z

loop_
_atom_site_label
_atom_site_type_symbol
_atom_site_fract_x
_atom_site_fract_y
_atom_site_fract_z
_atom_site_charge
Ti	Ti	0.78900 0.48020 0.08437 3.11900
O 	O 	0.21450 0.36410 0.79030 -0.72900
O 	O 	0.31070 0.17190 0.66180 -0.22300
O 	O 	0.33360 0.32910 0.01960 -0.82500
O 	O 	0.87650 0.29950 0.23870 -0.74300
O 	O 	0.07190 0.08370 0.33530 -0.11800
O 	O 	0.77100 0.30410 0.01110 -0.85600
C 	C 	0.40560 0.10670 0.89098 -0.30100
C 	C 	0.41530 0.16740 0.00999 0.43000
C 	C 	0.50973 0.06069 0.11901 -0.08300
H 	H 	0.51650 0.10310 0.20220 0.09800
C 	C 	0.30550 0.21980 0.77540 0.46800
C 	C 	0.98972 0.07623 0.11420 -0.38400
C 	C 	0.88350 0.15470 0.00564 0.46100
C 	C 	0.89379 0.07850 0.89144 -0.28500
H 	H 	0.81960 0.13330 0.81560 0.13800
C 	C 	0.97880 0.15710 0.23530 0.39000
Ti	Ti	0.21100 0.51980 0.91563 3.11100
O 	O 	0.78550 0.63590 0.20970 -0.72600
O 	O 	0.68930 0.82810 0.33820 -0.26300
O 	O 	0.66640 0.67090 0.98040 -0.89100
O 	O 	0.12350 0.70050 0.76130 -0.74700
O 	O 	0.92810 0.91630 0.66470 -0.31300
O 	O 	0.22900 0.69590 0.98890 -0.83400
C 	C 	0.59440 0.89330 0.10902 -0.18900
C 	C 	0.58470 0.83260 0.99001 0.25200
C 	C 	0.49027 0.93931 0.88099 -0.08200
H 	H 	0.48350 0.89690 0.79780 0.07100
C 	C 	0.69450 0.78020 0.22460 0.43900
C 	C 	0.01028 0.92377 0.88580 -0.11600
C 	C 	0.11650 0.84530 0.99436 0.13400
C 	C 	0.10621 0.92150 0.10856 0.17900
H 	H 	0.18040 0.86670 0.18440 0.02900
C 	C 	0.02120 0.84290 0.76470 0.50000
O 	O 	-0.00000 0.50000 -0.00000 -1.11100
