data_crystal

_cell_length_a 18.58600
_cell_length_b 18.58600
_cell_length_c 38.46100
_cell_angle_alpha 90.00000
_cell_angle_beta  90.00000
_cell_angle_gamma 120.00000

_symmetry_space_group_name_	'P 1'
_symmetry_space_group_name_H-M	'P 1'

loop_
_symmetry_equiv_pos_as_xyz
  x,y,z

loop_
_atom_site_label
_atom_site_type_symbol
_atom_site_fract_x
_atom_site_fract_y
_atom_site_fract_z
_atom_site_charge
C 	C 	0.35980 0.90730 0.97298 0.36200
C 	C 	0.28060 0.84910 0.95601 -0.08300
C 	C 	0.26520 0.86360 0.92230 -0.01300
H 	H 	0.30400 0.91340 0.91080 0.06300
C 	C 	0.54780 0.90740 0.97298 0.36200
C 	C 	0.56870 0.84900 0.95606 -0.08200
C 	C 	0.55370 0.77670 0.97311 0.03400
H 	H 	0.53340 0.76650 0.99630 0.05600
C 	C 	0.59840 0.86360 0.92225 -0.01500
H 	H 	0.60900 0.91320 0.91080 0.06300
C 	C 	0.61270 0.80650 0.90501 0.01500
C 	C 	0.64050 0.82030 0.86797 0.00700
C 	C 	0.70360 0.89680 0.85700 0.07300
C 	C 	0.70470 0.80740 0.85750 0.07400
C 	C 	0.60490 0.84890 0.84440 -0.08800
H 	H 	0.56410 0.86190 0.85200 0.07900
C 	C 	0.60500 0.75540 0.84460 -0.08700
H 	H 	0.56420 0.70150 0.85210 0.07800
N 	N 	0.75780 0.78960 0.88080 -0.09000
N 	N 	0.75680 0.96900 0.88080 -0.08900
O 	O 	0.51812 0.88967 0.00346 -0.40000
O 	O 	0.58856 0.03039 0.04400 -0.40400
O 	O 	0.44177 0.03045 0.04401 -0.40400
O 	O 	0.37163 0.88979 0.00349 -0.40100
Cu	Cu	0.47633 0.95271 0.02832 0.91000
C 	C 	0.02647 0.24063 0.30631 0.36100
C 	C 	0.94727 0.18243 0.28934 -0.08300
C 	C 	0.93187 0.19693 0.25563 -0.01500
H 	H 	0.97067 0.24673 0.24413 0.06200
C 	C 	0.21447 0.24073 0.30631 0.36100
C 	C 	0.23537 0.18233 0.28939 -0.08300
C 	C 	0.22037 0.11003 0.30644 0.03300
H 	H 	0.20007 0.09983 0.32963 0.05500
C 	C 	0.26507 0.19693 0.25558 -0.01600
H 	H 	0.27567 0.24653 0.24413 0.06200
C 	C 	0.27937 0.13983 0.23834 0.01400
C 	C 	0.30717 0.15363 0.20130 0.00600
C 	C 	0.37027 0.23013 0.19033 0.07200
C 	C 	0.37137 0.14073 0.19083 0.07300
C 	C 	0.27157 0.18223 0.17773 -0.08900
H 	H 	0.23077 0.19523 0.18533 0.07700
C 	C 	0.27167 0.08873 0.17793 -0.08800
H 	H 	0.23087 0.03483 0.18543 0.07700
N 	N 	0.42447 0.12293 0.21413 -0.09100
N 	N 	0.42347 0.30233 0.21413 -0.09000
O 	O 	0.18479 0.22300 0.33679 -0.40000
O 	O 	0.25523 0.36372 0.37733 -0.40400
O 	O 	0.10844 0.36378 0.37734 -0.40400
O 	O 	0.03830 0.22312 0.33682 -0.40100
Cu	Cu	0.14300 0.28604 0.36165 0.91000
C 	C 	0.69313 0.57397 0.63965 0.36100
C 	C 	0.61393 0.51577 0.62268 -0.08400
C 	C 	0.59853 0.53027 0.58897 -0.01500
H 	H 	0.63733 0.58007 0.57747 0.06200
C 	C 	0.88113 0.57407 0.63965 0.36100
C 	C 	0.90203 0.51567 0.62273 -0.08300
C 	C 	0.88703 0.44337 0.63978 0.03300
H 	H 	0.86673 0.43317 0.66297 0.05500
C 	C 	0.93173 0.53027 0.58892 -0.01600
H 	H 	0.94233 0.57987 0.57747 0.06200
C 	C 	0.94603 0.47317 0.57168 0.01400
C 	C 	0.97383 0.48697 0.53464 0.00600
C 	C 	0.03693 0.56347 0.52367 0.07200
C 	C 	0.03803 0.47407 0.52417 0.07300
C 	C 	0.93823 0.51557 0.51107 -0.08900
H 	H 	0.89743 0.52857 0.51867 0.07700
C 	C 	0.93833 0.42207 0.51127 -0.08800
H 	H 	0.89753 0.36817 0.51877 0.07700
N 	N 	0.09113 0.45627 0.54747 -0.09100
N 	N 	0.09013 0.63567 0.54747 -0.09000
O 	O 	0.85145 0.55634 0.67013 -0.40000
O 	O 	0.92189 0.69706 0.71067 -0.40400
O 	O 	0.77510 0.69712 0.71068 -0.40400
O 	O 	0.70496 0.55646 0.67016 -0.40100
Cu	Cu	0.80966 0.61938 0.69498 0.91000
C 	C 	0.09270 0.45250 0.97298 0.36100
C 	C 	0.15090 0.43150 0.95601 -0.08400
C 	C 	0.13640 0.40160 0.92230 -0.01400
H 	H 	0.08660 0.39060 0.91080 0.06200
C 	C 	0.09260 0.64040 0.97298 0.36100
C 	C 	0.15100 0.71970 0.95606 -0.08300
C 	C 	0.22330 0.77700 0.97311 0.03300
H 	H 	0.23350 0.76690 0.99630 0.05500
C 	C 	0.13640 0.73480 0.92225 -0.01600
H 	H 	0.08680 0.69580 0.91080 0.06200
C 	C 	0.19350 0.80620 0.90501 0.01400
C 	C 	0.17970 0.82020 0.86797 0.00600
C 	C 	0.10320 0.80680 0.85700 0.07200
C 	C 	0.19260 0.89730 0.85750 0.07300
C 	C 	0.15110 0.75600 0.84440 -0.08900
H 	H 	0.13810 0.70220 0.85200 0.07800
C 	C 	0.24460 0.84960 0.84460 -0.08800
H 	H 	0.29850 0.86270 0.85210 0.07700
N 	N 	0.21040 0.96820 0.88080 -0.09100
N 	N 	0.03100 0.78780 0.88080 -0.09000
O 	O 	0.11033 0.62845 0.00346 -0.40000
O 	O 	0.96961 0.55817 0.04400 -0.40400
O 	O 	0.96955 0.41132 0.04401 -0.40400
O 	O 	0.11021 0.48184 0.00349 -0.40100
Cu	Cu	0.04729 0.52362 0.02832 0.91000
C 	C 	0.75937 0.78583 0.30631 0.36100
C 	C 	0.81757 0.76483 0.28934 -0.08400
C 	C 	0.80307 0.73493 0.25563 -0.01500
H 	H 	0.75327 0.72393 0.24413 0.06200
C 	C 	0.75927 0.97373 0.30631 0.36000
C 	C 	0.81767 0.05303 0.28939 -0.08300
C 	C 	0.88997 0.11033 0.30644 0.03300
H 	H 	0.90017 0.10023 0.32963 0.05500
C 	C 	0.80307 0.06813 0.25558 -0.01600
H 	H 	0.75347 0.02913 0.24413 0.06300
C 	C 	0.86017 0.13953 0.23834 0.01400
C 	C 	0.84637 0.15353 0.20130 0.00600
C 	C 	0.76987 0.14013 0.19033 0.07200
C 	C 	0.85927 0.23063 0.19083 0.07300
C 	C 	0.81777 0.08933 0.17773 -0.08900
H 	H 	0.80477 0.03553 0.18533 0.07800
C 	C 	0.91127 0.18293 0.17793 -0.08800
H 	H 	0.96517 0.19603 0.18543 0.07700
N 	N 	0.87707 0.30153 0.21413 -0.09100
N 	N 	0.69767 0.12113 0.21413 -0.09000
O 	O 	0.77700 0.96178 0.33679 -0.40000
O 	O 	0.63628 0.89150 0.37733 -0.40400
O 	O 	0.63622 0.74465 0.37734 -0.40400
O 	O 	0.77688 0.81517 0.33682 -0.40100
Cu	Cu	0.71396 0.85695 0.36165 0.91000
C 	C 	0.42603 0.11917 0.63965 0.36100
C 	C 	0.48423 0.09817 0.62268 -0.08400
C 	C 	0.46973 0.06827 0.58897 -0.01500
H 	H 	0.41993 0.05727 0.57747 0.06200
C 	C 	0.42593 0.30707 0.63965 0.36100
C 	C 	0.48433 0.38637 0.62273 -0.08300
C 	C 	0.55663 0.44367 0.63978 0.03300
H 	H 	0.56683 0.43357 0.66297 0.05500
C 	C 	0.46973 0.40147 0.58892 -0.01600
H 	H 	0.42013 0.36247 0.57747 0.06200
C 	C 	0.52683 0.47287 0.57168 0.01400
C 	C 	0.51303 0.48687 0.53464 0.00600
C 	C 	0.43653 0.47347 0.52367 0.07200
C 	C 	0.52593 0.56397 0.52417 0.07300
C 	C 	0.48443 0.42267 0.51107 -0.08900
H 	H 	0.47143 0.36887 0.51867 0.07700
C 	C 	0.57793 0.51627 0.51127 -0.08800
H 	H 	0.63183 0.52937 0.51877 0.07700
N 	N 	0.54373 0.63487 0.54747 -0.09100
N 	N 	0.36433 0.45447 0.54747 -0.09000
O 	O 	0.44366 0.29512 0.67013 -0.40000
O 	O 	0.30294 0.22484 0.71067 -0.40400
O 	O 	0.30288 0.07799 0.71068 -0.40400
O 	O 	0.44354 0.14851 0.67016 -0.40100
Cu	Cu	0.38062 0.19029 0.69498 0.91000
C 	C 	0.54750 0.64020 0.97298 0.36100
C 	C 	0.56850 0.71940 0.95601 -0.08400
C 	C 	0.59840 0.73480 0.92230 -0.01400
H 	H 	0.60940 0.69600 0.91080 0.06200
C 	C 	0.35960 0.45220 0.97298 0.36100
C 	C 	0.28030 0.43130 0.95606 -0.08300
C 	C 	0.22300 0.44630 0.97311 0.03300
H 	H 	0.23310 0.46660 0.99630 0.05500
C 	C 	0.26520 0.40160 0.92225 -0.01600
H 	H 	0.30420 0.39100 0.91080 0.06200
C 	C 	0.19380 0.38730 0.90501 0.01400
C 	C 	0.17980 0.35950 0.86797 0.00600
C 	C 	0.19320 0.29640 0.85700 0.07200
C 	C 	0.10270 0.29530 0.85750 0.07300
C 	C 	0.24400 0.39510 0.84440 -0.08900
H 	H 	0.29780 0.43590 0.85200 0.07700
C 	C 	0.15040 0.39500 0.84460 -0.08800
H 	H 	0.13730 0.43580 0.85210 0.07700
N 	N 	0.03180 0.24220 0.88080 -0.09100
N 	N 	0.21220 0.24320 0.88080 -0.09000
O 	O 	0.37155 0.48188 0.00346 -0.40000
O 	O 	0.44183 0.41144 0.04400 -0.40400
O 	O 	0.58868 0.55823 0.04401 -0.40400
O 	O 	0.51816 0.62837 0.00349 -0.40100
Cu	Cu	0.47638 0.52367 0.02832 0.91000
C 	C 	0.21417 0.97353 0.30631 0.36100
C 	C 	0.23517 0.05273 0.28934 -0.08300
C 	C 	0.26507 0.06813 0.25563 -0.01500
H 	H 	0.27607 0.02933 0.24413 0.06200
C 	C 	0.02627 0.78553 0.30631 0.36000
C 	C 	0.94697 0.76463 0.28939 -0.08300
C 	C 	0.88967 0.77963 0.30644 0.03300
H 	H 	0.89977 0.79993 0.32963 0.05500
C 	C 	0.93187 0.73493 0.25558 -0.01600
H 	H 	0.97087 0.72433 0.24413 0.06300
C 	C 	0.86047 0.72063 0.23834 0.01400
C 	C 	0.84647 0.69283 0.20130 0.00600
C 	C 	0.85987 0.62973 0.19033 0.07200
C 	C 	0.76937 0.62863 0.19083 0.07300
C 	C 	0.91067 0.72843 0.17773 -0.08900
H 	H 	0.96447 0.76923 0.18533 0.07700
C 	C 	0.81707 0.72833 0.17793 -0.08800
H 	H 	0.80397 0.76913 0.18543 0.07700
N 	N 	0.69847 0.57553 0.21413 -0.09100
N 	N 	0.87887 0.57653 0.21413 -0.09000
O 	O 	0.03822 0.81521 0.33679 -0.40000
O 	O 	0.10850 0.74477 0.37733 -0.40400
O 	O 	0.25535 0.89156 0.37734 -0.40400
O 	O 	0.18483 0.96170 0.33682 -0.40100
Cu	Cu	0.14305 0.85700 0.36165 0.91000
C 	C 	0.88083 0.30687 0.63965 0.36100
C 	C 	0.90183 0.38607 0.62268 -0.08400
C 	C 	0.93173 0.40147 0.58897 -0.01500
H 	H 	0.94273 0.36267 0.57747 0.06200
C 	C 	0.69293 0.11887 0.63965 0.36100
C 	C 	0.61363 0.09797 0.62273 -0.08300
C 	C 	0.55633 0.11297 0.63978 0.03300
H 	H 	0.56643 0.13327 0.66297 0.05500
C 	C 	0.59853 0.06827 0.58892 -0.01600
H 	H 	0.63753 0.05767 0.57747 0.06200
C 	C 	0.52713 0.05397 0.57168 0.01400
C 	C 	0.51313 0.02617 0.53464 0.00600
C 	C 	0.52653 0.96307 0.52367 0.07200
C 	C 	0.43603 0.96197 0.52417 0.07300
C 	C 	0.57733 0.06177 0.51107 -0.08900
H 	H 	0.63113 0.10257 0.51867 0.07700
C 	C 	0.48373 0.06167 0.51127 -0.08800
H 	H 	0.47063 0.10247 0.51877 0.07700
N 	N 	0.36513 0.90887 0.54747 -0.09100
N 	N 	0.54553 0.90987 0.54747 -0.09000
O 	O 	0.70488 0.14855 0.67013 -0.40000
O 	O 	0.77516 0.07811 0.71067 -0.40400
O 	O 	0.92201 0.22490 0.71068 -0.40400
O 	O 	0.85149 0.29504 0.67016 -0.40100
Cu	Cu	0.80971 0.19034 0.69498 0.91000
C 	C 	0.64020 0.09270 0.02702 0.36100
C 	C 	0.71940 0.15090 0.04399 -0.08400
C 	C 	0.73480 0.13640 0.07770 -0.01400
H 	H 	0.69600 0.08660 0.08920 0.06200
C 	C 	0.45220 0.09260 0.02702 0.36100
C 	C 	0.43130 0.15100 0.04394 -0.08300
C 	C 	0.44630 0.22330 0.02689 0.03300
H 	H 	0.46660 0.23350 0.00370 0.05500
C 	C 	0.40160 0.13640 0.07775 -0.01600
H 	H 	0.39100 0.08680 0.08920 0.06200
C 	C 	0.38730 0.19350 0.09499 0.01400
C 	C 	0.35950 0.17970 0.13203 0.00600
C 	C 	0.29640 0.10320 0.14300 0.07200
C 	C 	0.29530 0.19260 0.14250 0.07300
C 	C 	0.39510 0.15110 0.15560 -0.08900
H 	H 	0.43590 0.13810 0.14800 0.07800
C 	C 	0.39500 0.24460 0.15540 -0.08800
H 	H 	0.43580 0.29850 0.14790 0.07700
N 	N 	0.24220 0.21040 0.11920 -0.09100
N 	N 	0.24320 0.03100 0.11920 -0.09000
O 	O 	0.48188 0.11033 0.99654 -0.40000
O 	O 	0.41144 0.96961 0.95600 -0.40400
O 	O 	0.55823 0.96955 0.95599 -0.40400
O 	O 	0.62837 0.11021 0.99651 -0.40100
Cu	Cu	0.52367 0.04729 0.97168 0.91000
C 	C 	0.30687 0.42603 0.36035 0.36100
C 	C 	0.38607 0.48423 0.37732 -0.08400
C 	C 	0.40147 0.46973 0.41103 -0.01500
H 	H 	0.36267 0.41993 0.42253 0.06200
C 	C 	0.11887 0.42593 0.36035 0.36100
C 	C 	0.09797 0.48433 0.37727 -0.08300
C 	C 	0.11297 0.55663 0.36022 0.03300
H 	H 	0.13327 0.56683 0.33703 0.05500
C 	C 	0.06827 0.46973 0.41108 -0.01600
H 	H 	0.05767 0.42013 0.42253 0.06200
C 	C 	0.05397 0.52683 0.42832 0.01400
C 	C 	0.02617 0.51303 0.46536 0.00600
C 	C 	0.96307 0.43653 0.47633 0.07200
C 	C 	0.96197 0.52593 0.47583 0.07300
C 	C 	0.06177 0.48443 0.48893 -0.08900
H 	H 	0.10257 0.47143 0.48133 0.07700
C 	C 	0.06167 0.57793 0.48873 -0.08800
H 	H 	0.10247 0.63183 0.48123 0.07700
N 	N 	0.90887 0.54373 0.45253 -0.09100
N 	N 	0.90987 0.36433 0.45253 -0.09000
O 	O 	0.14855 0.44366 0.32987 -0.40000
O 	O 	0.07811 0.30294 0.28933 -0.40400
O 	O 	0.22490 0.30288 0.28932 -0.40400
O 	O 	0.29504 0.44354 0.32984 -0.40100
Cu	Cu	0.19034 0.38062 0.30502 0.91000
C 	C 	0.97353 0.75937 0.69369 0.36100
C 	C 	0.05273 0.81757 0.71066 -0.08300
C 	C 	0.06813 0.80307 0.74437 -0.01500
H 	H 	0.02933 0.75327 0.75587 0.06200
C 	C 	0.78553 0.75927 0.69369 0.36100
C 	C 	0.76463 0.81767 0.71061 -0.08300
C 	C 	0.77963 0.88997 0.69356 0.03300
H 	H 	0.79993 0.90017 0.67037 0.05500
C 	C 	0.73493 0.80307 0.74442 -0.01600
H 	H 	0.72433 0.75347 0.75587 0.06200
C 	C 	0.72063 0.86017 0.76166 0.01400
C 	C 	0.69283 0.84637 0.79870 0.00600
C 	C 	0.62973 0.76987 0.80967 0.07200
C 	C 	0.62863 0.85927 0.80917 0.07300
C 	C 	0.72843 0.81777 0.82227 -0.08900
H 	H 	0.76923 0.80477 0.81467 0.07700
C 	C 	0.72833 0.91127 0.82207 -0.08800
H 	H 	0.76913 0.96517 0.81457 0.07700
N 	N 	0.57553 0.87707 0.78587 -0.09100
N 	N 	0.57653 0.69767 0.78587 -0.09000
O 	O 	0.81521 0.77700 0.66321 -0.40000
O 	O 	0.74477 0.63628 0.62267 -0.40400
O 	O 	0.89156 0.63622 0.62266 -0.40400
O 	O 	0.96170 0.77688 0.66318 -0.40100
Cu	Cu	0.85700 0.71396 0.63835 0.91000
C 	C 	0.90730 0.54750 0.02702 0.36100
C 	C 	0.84910 0.56850 0.04399 -0.08400
C 	C 	0.86360 0.59840 0.07770 -0.01400
H 	H 	0.91340 0.60940 0.08920 0.06200
C 	C 	0.90740 0.35960 0.02702 0.36100
C 	C 	0.84900 0.28030 0.04394 -0.08300
C 	C 	0.77670 0.22300 0.02689 0.03300
H 	H 	0.76650 0.23310 0.00370 0.05500
C 	C 	0.86360 0.26520 0.07775 -0.01600
H 	H 	0.91320 0.30420 0.08920 0.06200
C 	C 	0.80650 0.19380 0.09499 0.01400
C 	C 	0.82030 0.17980 0.13203 0.00600
C 	C 	0.89680 0.19320 0.14300 0.07200
C 	C 	0.80740 0.10270 0.14250 0.07300
C 	C 	0.84890 0.24400 0.15560 -0.08900
H 	H 	0.86190 0.29780 0.14800 0.07800
C 	C 	0.75540 0.15040 0.15540 -0.08800
H 	H 	0.70150 0.13730 0.14790 0.07700
N 	N 	0.78960 0.03180 0.11920 -0.09100
N 	N 	0.96900 0.21220 0.11920 -0.09000
O 	O 	0.88967 0.37155 0.99654 -0.40000
O 	O 	0.03039 0.44183 0.95600 -0.40400
O 	O 	0.03045 0.58868 0.95599 -0.40400
O 	O 	0.88979 0.51816 0.99651 -0.40100
Cu	Cu	0.95271 0.47638 0.97168 0.91000
C 	C 	0.57397 0.88083 0.36035 0.36100
C 	C 	0.51577 0.90183 0.37732 -0.08400
C 	C 	0.53027 0.93173 0.41103 -0.01500
H 	H 	0.58007 0.94273 0.42253 0.06200
C 	C 	0.57407 0.69293 0.36035 0.36100
C 	C 	0.51567 0.61363 0.37727 -0.08300
C 	C 	0.44337 0.55633 0.36022 0.03300
H 	H 	0.43317 0.56643 0.33703 0.05500
C 	C 	0.53027 0.59853 0.41108 -0.01600
H 	H 	0.57987 0.63753 0.42253 0.06200
C 	C 	0.47317 0.52713 0.42832 0.01400
C 	C 	0.48697 0.51313 0.46536 0.00600
C 	C 	0.56347 0.52653 0.47633 0.07200
C 	C 	0.47407 0.43603 0.47583 0.07300
C 	C 	0.51557 0.57733 0.48893 -0.08900
H 	H 	0.52857 0.63113 0.48133 0.07700
C 	C 	0.42207 0.48373 0.48873 -0.08800
H 	H 	0.36817 0.47063 0.48123 0.07700
N 	N 	0.45627 0.36513 0.45253 -0.09100
N 	N 	0.63567 0.54553 0.45253 -0.09000
O 	O 	0.55634 0.70488 0.32987 -0.40000
O 	O 	0.69706 0.77516 0.28933 -0.40400
O 	O 	0.69712 0.92201 0.28932 -0.40400
O 	O 	0.55646 0.85149 0.32984 -0.40100
Cu	Cu	0.61938 0.80971 0.30502 0.91000
C 	C 	0.24063 0.21417 0.69369 0.36100
C 	C 	0.18243 0.23517 0.71066 -0.08400
C 	C 	0.19693 0.26507 0.74437 -0.01500
H 	H 	0.24673 0.27607 0.75587 0.06200
C 	C 	0.24073 0.02627 0.69369 0.36000
C 	C 	0.18233 0.94697 0.71061 -0.08300
C 	C 	0.11003 0.88967 0.69356 0.03300
H 	H 	0.09983 0.89977 0.67037 0.05500
C 	C 	0.19693 0.93187 0.74442 -0.01600
H 	H 	0.24653 0.97087 0.75587 0.06300
C 	C 	0.13983 0.86047 0.76166 0.01400
C 	C 	0.15363 0.84647 0.79870 0.00600
C 	C 	0.23013 0.85987 0.80967 0.07200
C 	C 	0.14073 0.76937 0.80917 0.07300
C 	C 	0.18223 0.91067 0.82227 -0.08900
H 	H 	0.19523 0.96447 0.81467 0.07800
C 	C 	0.08873 0.81707 0.82207 -0.08800
H 	H 	0.03483 0.80397 0.81457 0.07700
N 	N 	0.12293 0.69847 0.78587 -0.09100
N 	N 	0.30233 0.87887 0.78587 -0.09000
O 	O 	0.22300 0.03822 0.66321 -0.40000
O 	O 	0.36372 0.10850 0.62267 -0.40400
O 	O 	0.36378 0.25535 0.62266 -0.40400
O 	O 	0.22312 0.18483 0.66318 -0.40100
Cu	Cu	0.28604 0.14305 0.63835 0.91000
C 	C 	0.45250 0.35980 0.02702 0.36100
C 	C 	0.43150 0.28060 0.04399 -0.08400
C 	C 	0.40160 0.26520 0.07770 -0.01400
H 	H 	0.39060 0.30400 0.08920 0.06200
C 	C 	0.64040 0.54780 0.02702 0.36100
C 	C 	0.71970 0.56870 0.04394 -0.08300
C 	C 	0.77700 0.55370 0.02689 0.03300
H 	H 	0.76690 0.53340 0.00370 0.05500
C 	C 	0.73480 0.59840 0.07775 -0.01600
H 	H 	0.69580 0.60900 0.08920 0.06200
C 	C 	0.80620 0.61270 0.09499 0.01400
C 	C 	0.82020 0.64050 0.13203 0.00600
C 	C 	0.80680 0.70360 0.14300 0.07200
C 	C 	0.89730 0.70470 0.14250 0.07300
C 	C 	0.75600 0.60490 0.15560 -0.08900
H 	H 	0.70220 0.56410 0.14800 0.07700
C 	C 	0.84960 0.60500 0.15540 -0.08800
H 	H 	0.86270 0.56420 0.14790 0.07700
N 	N 	0.96820 0.75780 0.11920 -0.09100
N 	N 	0.78780 0.75680 0.11920 -0.09000
O 	O 	0.62845 0.51812 0.99654 -0.40000
O 	O 	0.55817 0.58856 0.95600 -0.40400
O 	O 	0.41132 0.44177 0.95599 -0.40400
O 	O 	0.48184 0.37163 0.99651 -0.40100
Cu	Cu	0.52362 0.47633 0.97168 0.91000
C 	C 	0.11917 0.69313 0.36035 0.36100
C 	C 	0.09817 0.61393 0.37732 -0.08400
C 	C 	0.06827 0.59853 0.41103 -0.01500
H 	H 	0.05727 0.63733 0.42253 0.06200
C 	C 	0.30707 0.88113 0.36035 0.36100
C 	C 	0.38637 0.90203 0.37727 -0.08300
C 	C 	0.44367 0.88703 0.36022 0.03300
H 	H 	0.43357 0.86673 0.33703 0.05500
C 	C 	0.40147 0.93173 0.41108 -0.01600
H 	H 	0.36247 0.94233 0.42253 0.06200
C 	C 	0.47287 0.94603 0.42832 0.01400
C 	C 	0.48687 0.97383 0.46536 0.00600
C 	C 	0.47347 0.03693 0.47633 0.07200
C 	C 	0.56397 0.03803 0.47583 0.07300
C 	C 	0.42267 0.93823 0.48893 -0.08900
H 	H 	0.36887 0.89743 0.48133 0.07700
C 	C 	0.51627 0.93833 0.48873 -0.08800
H 	H 	0.52937 0.89753 0.48123 0.07700
N 	N 	0.63487 0.09113 0.45253 -0.09100
N 	N 	0.45447 0.09013 0.45253 -0.09000
O 	O 	0.29512 0.85145 0.32987 -0.40000
O 	O 	0.22484 0.92189 0.28933 -0.40400
O 	O 	0.07799 0.77510 0.28932 -0.40400
O 	O 	0.14851 0.70496 0.32984 -0.40100
Cu	Cu	0.19029 0.80966 0.30502 0.91000
C 	C 	0.78583 0.02647 0.69369 0.36100
C 	C 	0.76483 0.94727 0.71066 -0.08300
C 	C 	0.73493 0.93187 0.74437 -0.01500
H 	H 	0.72393 0.97067 0.75587 0.06200
C 	C 	0.97373 0.21447 0.69369 0.36000
C 	C 	0.05303 0.23537 0.71061 -0.08300
C 	C 	0.11033 0.22037 0.69356 0.03300
H 	H 	0.10023 0.20007 0.67037 0.05500
C 	C 	0.06813 0.26507 0.74442 -0.01600
H 	H 	0.02913 0.27567 0.75587 0.06300
C 	C 	0.13953 0.27937 0.76166 0.01400
C 	C 	0.15353 0.30717 0.79870 0.00600
C 	C 	0.14013 0.37027 0.80967 0.07200
C 	C 	0.23063 0.37137 0.80917 0.07300
C 	C 	0.08933 0.27157 0.82227 -0.08900
H 	H 	0.03553 0.23077 0.81467 0.07700
C 	C 	0.18293 0.27167 0.82207 -0.08800
H 	H 	0.19603 0.23087 0.81457 0.07700
N 	N 	0.30153 0.42447 0.78587 -0.09100
N 	N 	0.12113 0.42347 0.78587 -0.09000
O 	O 	0.96178 0.18479 0.66321 -0.40000
O 	O 	0.89150 0.25523 0.62267 -0.40400
O 	O 	0.74465 0.10844 0.62266 -0.40400
O 	O 	0.81517 0.03830 0.66318 -0.40100
Cu	Cu	0.85695 0.14300 0.63835 0.91000
