data_crystal

_cell_length_a 13.36770
_cell_length_b 16.86350
_cell_length_c 10.76220
_cell_angle_alpha 90.00000
_cell_angle_beta  90.00000
_cell_angle_gamma 90.00000

_symmetry_space_group_name_	'P 1'
_symmetry_space_group_name_H-M	'P 1'

loop_
_symmetry_equiv_pos_as_xyz
  x,y,z

loop_
_atom_site_label
_atom_site_type_symbol
_atom_site_fract_x
_atom_site_fract_y
_atom_site_fract_z
_atom_site_charge
C 	C 	0.58940 0.50750 0.06320 -0.08000
H 	H 	0.64930 0.51310 0.10620 0.10000
C 	C 	0.53420 0.43860 0.07680 0.28000
C 	C 	0.44390 0.43050 0.01540 -0.20700
C 	C 	0.37810 0.35880 0.03000 0.44500
O 	O 	0.57200 0.37980 0.14950 -0.69600
O 	O 	0.39530 0.31080 0.12010 -0.69900
O 	O 	0.30750 0.34760 0.95460 -0.24800
C 	C 	0.53910 0.14710 0.20850 0.14400
C 	C 	0.58090 0.07750 0.16580 -0.11800
H 	H 	0.63480 0.07730 0.11130 0.11800
C 	C 	0.53730 0.00710 0.20920 -0.01100
H 	H 	0.56130 0.95890 0.17990 0.05400
O 	O 	0.57180 0.21840 0.17520 -0.62600
C 	C 	0.41060 0.50750 0.43680 -0.09200
H 	H 	0.35070 0.51310 0.39380 0.09900
C 	C 	0.46580 0.43860 0.42320 0.28300
C 	C 	0.55610 0.43050 0.48460 -0.21300
C 	C 	0.62190 0.35880 0.47000 0.44500
O 	O 	0.42800 0.37980 0.35050 -0.70700
O 	O 	0.60470 0.31080 0.37990 -0.68900
O 	O 	0.69250 0.34760 0.54540 -0.23900
C 	C 	0.46090 0.14710 0.29150 0.14900
C 	C 	0.41910 0.07750 0.33420 -0.12700
H 	H 	0.36520 0.07730 0.38870 0.12000
C 	C 	0.46270 0.00710 0.29080 -0.00300
H 	H 	0.43870 0.95890 0.32010 0.05000
O 	O 	0.42820 0.21840 0.32480 -0.63400
C 	C 	0.41060 0.49250 0.93680 -0.10100
H 	H 	0.35070 0.48690 0.89380 0.10100
C 	C 	0.46580 0.56140 0.92320 0.28700
C 	C 	0.55610 0.56950 0.98460 -0.22000
C 	C 	0.62190 0.64120 0.97000 0.44200
O 	O 	0.42800 0.62020 0.85050 -0.70800
O 	O 	0.60470 0.68920 0.87990 -0.68900
O 	O 	0.69250 0.65240 0.04540 -0.23500
C 	C 	0.46090 0.85290 0.79150 0.14900
C 	C 	0.41910 0.92250 0.83420 -0.13000
H 	H 	0.36520 0.92270 0.88870 0.12000
C 	C 	0.46270 0.99290 0.79080 0.00100
H 	H 	0.43870 0.04110 0.82010 0.04700
O 	O 	0.42820 0.78160 0.82480 -0.63500
C 	C 	0.58940 0.49250 0.56320 -0.08900
H 	H 	0.64930 0.48690 0.60620 0.10200
C 	C 	0.53420 0.56140 0.57680 0.28400
C 	C 	0.44390 0.56950 0.51540 -0.21300
C 	C 	0.37810 0.64120 0.53000 0.44200
O 	O 	0.57200 0.62020 0.64950 -0.69800
O 	O 	0.39530 0.68920 0.62010 -0.69900
O 	O 	0.30750 0.65240 0.45460 -0.24400
C 	C 	0.53910 0.85290 0.70850 0.14300
C 	C 	0.58090 0.92250 0.66580 -0.11700
H 	H 	0.63480 0.92270 0.61130 0.11700
C 	C 	0.53730 0.99290 0.70920 -0.01200
H 	H 	0.56130 0.04110 0.67990 0.05400
O 	O 	0.57180 0.78160 0.67520 -0.62600
Ti	Ti	0.50000 0.30538 0.25000 3.11100
Ti	Ti	0.50000 0.69462 0.75000 3.11100
C 	C 	0.91060 0.99250 0.56320 -0.30400
H 	H 	0.85070 0.98690 0.60620 0.18000
C 	C 	0.96580 0.06140 0.57680 0.58900
C 	C 	0.05610 0.06950 0.51540 -0.51300
C 	C 	0.12190 0.14120 0.53000 0.52300
O 	O 	0.92800 0.12020 0.64950 -0.71100
O 	O 	0.10470 0.18920 0.62010 -0.76300
O 	O 	0.19250 0.15240 0.45460 -0.27700
C 	C 	0.96090 0.35290 0.70850 0.65700
C 	C 	0.91910 0.42250 0.66580 -0.69500
H 	H 	0.86520 0.42270 0.61130 0.33400
C 	C 	0.96270 0.49290 0.70920 0.84800
H 	H 	0.93870 0.54110 0.67990 -0.20500
O 	O 	0.92820 0.28160 0.67520 -0.69300
C 	C 	0.08940 0.99250 0.93680 0.11700
H 	H 	0.14930 0.98690 0.89380 0.02200
C 	C 	0.03420 0.06140 0.92320 -0.01600
C 	C 	0.94390 0.06950 0.98460 0.07700
C 	C 	0.87810 0.14120 0.97000 0.35800
O 	O 	0.07200 0.12020 0.85050 -0.68900
O 	O 	0.89530 0.18920 0.87990 -0.62000
O 	O 	0.80750 0.15240 0.04540 -0.20000
C 	C 	0.03910 0.35290 0.79150 -0.36500
C 	C 	0.08090 0.42250 0.83420 0.45000
H 	H 	0.13480 0.42270 0.88870 -0.09700
C 	C 	0.03730 0.49290 0.79080 -0.86100
H 	H 	0.06130 0.54110 0.82010 0.30900
O 	O 	0.07180 0.28160 0.82480 -0.56100
C 	C 	0.08940 0.00750 0.43680 0.12200
H 	H 	0.14930 0.01310 0.39380 0.02100
C 	C 	0.03420 0.93860 0.42320 -0.02200
C 	C 	0.94390 0.93050 0.48460 0.09000
C 	C 	0.87810 0.85880 0.47000 0.36200
O 	O 	0.07200 0.87980 0.35050 -0.68700
O 	O 	0.89530 0.81080 0.37990 -0.61900
O 	O 	0.80750 0.84760 0.54540 -0.20500
C 	C 	0.03910 0.64710 0.29150 -0.36800
C 	C 	0.08090 0.57750 0.33420 0.45500
H 	H 	0.13480 0.57730 0.38870 -0.09800
C 	C 	0.03730 0.50710 0.29080 -0.86800
H 	H 	0.06130 0.45890 0.32010 0.31200
O 	O 	0.07180 0.71840 0.32480 -0.56000
C 	C 	0.91060 0.00750 0.06320 -0.29200
H 	H 	0.85070 0.01310 0.10620 0.17700
C 	C 	0.96580 0.93860 0.07680 0.58400
C 	C 	0.05610 0.93050 0.01540 -0.50700
C 	C 	0.12190 0.85880 0.03000 0.52500
O 	O 	0.92800 0.87980 0.14950 -0.70900
O 	O 	0.10470 0.81080 0.12010 -0.76300
O 	O 	0.19250 0.84760 0.95460 -0.28000
C 	C 	0.96090 0.64710 0.20850 0.66200
C 	C 	0.91910 0.57750 0.16580 -0.70000
H 	H 	0.86520 0.57730 0.11130 0.33600
C 	C 	0.96270 0.50710 0.20920 0.85600
H 	H 	0.93870 0.45890 0.17990 -0.20700
O 	O 	0.92820 0.71840 0.17520 -0.69400
Ti	Ti	0.00000 0.19462 0.75000 3.09500
Ti	Ti	0.00000 0.80538 0.25000 3.09500
