data_crystal

_cell_length_a 8.34250
_cell_length_b 11.93370
_cell_length_c 21.66410
_cell_angle_alpha 90.00000
_cell_angle_beta  90.00000
_cell_angle_gamma 90.00000

_symmetry_space_group_name_	'P 1'
_symmetry_space_group_name_H-M	'P 1'

loop_
_symmetry_equiv_pos_as_xyz
  x,y,z

loop_
_atom_site_label
_atom_site_type_symbol
_atom_site_fract_x
_atom_site_fract_y
_atom_site_fract_z
_atom_site_charge
Cu	Cu	0.52683 0.35891 0.50162 0.78600
Cu	Cu	0.94142 0.35636 0.49905 0.78000
Cu	Cu	0.75900 0.52245 0.74610 0.84100
N 	N 	0.82210 0.40660 0.57510 -0.22200
N 	N 	0.84630 0.59180 0.92670 -0.19400
N 	N 	0.68420 0.60040 0.92250 -0.22600
C 	C 	0.30390 0.33440 0.49930 -0.32900
N 	N 	0.65630 0.40520 0.57420 -0.19900
N 	N 	0.72710 0.46140 0.66350 -0.20500
N 	N 	0.90940 0.56900 0.87290 -0.09700
C 	C 	0.65230 0.58000 0.86450 0.04400
N 	N 	0.78610 0.56040 0.83340 -0.21400
N 	N 	0.60050 0.43840 0.62680 -0.09000
C 	C 	0.86080 0.44180 0.63120 0.02100
N 	N 	0.16770 0.33520 0.49810 -0.25200
N 	N 	0.52520 0.53200 0.76760 -0.23900
C 	C 	0.02180 0.46230 0.66010 0.11600
H 	H 	0.07508 0.52377 0.63823 -0.04300
C 	C 	0.49800 0.57630 0.83100 0.05500
H 	H 	0.45750 0.65308 0.82737 -0.01700
C 	C 	0.12830 0.36120 0.65890 -0.55100
H 	H 	0.07682 0.30052 0.68020 0.16000
H 	H 	0.22803 0.37848 0.67890 0.16900
H 	H 	0.14845 0.33982 0.61690 0.14800
C 	C 	0.36890 0.50530 0.86260 -0.46400
H 	H 	0.40330 0.42859 0.86424 0.13500
H 	H 	0.27073 0.51028 0.83964 0.14400
H 	H 	0.35169 0.53253 0.90378 0.11900
N 	N 	0.98910 0.49760 0.72500 -0.35400
H 	H 	0.04245 0.56084 0.73227 0.08600
H 	H 	0.02814 0.44556 0.75027 0.09000
Cu	Cu	0.97317 0.64109 0.00162 0.78700
Cu	Cu	0.55858 0.64364 0.99905 0.78100
Cu	Cu	0.74100 0.47755 0.24610 0.84200
N 	N 	0.67790 0.59340 0.07510 -0.22200
N 	N 	0.65370 0.40820 0.42670 -0.19300
N 	N 	0.81580 0.39960 0.42250 -0.22600
C 	C 	0.19610 0.66560 0.99930 -0.32800
N 	N 	0.84370 0.59480 0.07420 -0.19800
N 	N 	0.77290 0.53860 0.16350 -0.20500
N 	N 	0.59060 0.43100 0.37290 -0.09700
C 	C 	0.84770 0.42000 0.36450 0.04400
N 	N 	0.71390 0.43960 0.33340 -0.21400
N 	N 	0.89950 0.56160 0.12680 -0.09000
C 	C 	0.63920 0.55820 0.13120 0.02100
N 	N 	0.33230 0.66480 0.99810 -0.25200
N 	N 	0.97480 0.46800 0.26760 -0.23900
C 	C 	0.47820 0.53770 0.16010 0.11500
H 	H 	0.42492 0.47623 0.13823 -0.04300
C 	C 	0.00200 0.42370 0.33100 0.05400
H 	H 	0.04250 0.34692 0.32737 -0.01700
C 	C 	0.37170 0.63880 0.15890 -0.55100
H 	H 	0.42318 0.69948 0.18020 0.16000
H 	H 	0.27197 0.62152 0.17890 0.16900
H 	H 	0.35155 0.66018 0.11690 0.14800
C 	C 	0.13110 0.49470 0.36260 -0.46300
H 	H 	0.09670 0.57141 0.36424 0.13500
H 	H 	0.22927 0.48972 0.33964 0.14400
H 	H 	0.14831 0.46747 0.40378 0.11900
N 	N 	0.51090 0.50240 0.22500 -0.35300
H 	H 	0.45755 0.43916 0.23227 0.08600
H 	H 	0.47186 0.55444 0.25027 0.09000
Cu	Cu	0.47317 0.85891 0.99838 0.78700
Cu	Cu	0.05858 0.85636 0.00095 0.78100
Cu	Cu	0.24100 0.02245 0.75390 0.84200
N 	N 	0.17790 0.90660 0.92490 -0.22200
N 	N 	0.15370 0.09180 0.57330 -0.19400
N 	N 	0.31580 0.10040 0.57750 -0.22600
C 	C 	0.69610 0.83440 0.00070 -0.32800
N 	N 	0.34370 0.90520 0.92580 -0.19900
N 	N 	0.27290 0.96140 0.83650 -0.20600
N 	N 	0.09060 0.06900 0.62710 -0.09800
C 	C 	0.34770 0.08000 0.63550 0.04400
N 	N 	0.21390 0.06040 0.66660 -0.21400
N 	N 	0.39950 0.93840 0.87320 -0.09000
C 	C 	0.13920 0.94180 0.86880 0.02300
N 	N 	0.83230 0.83520 0.00190 -0.25200
N 	N 	0.47480 0.03200 0.73240 -0.23900
C 	C 	0.97820 0.96230 0.83990 0.11200
H 	H 	0.92492 0.02377 0.86177 -0.04200
C 	C 	0.50200 0.07630 0.66900 0.05500
H 	H 	0.54250 0.15308 0.67263 -0.01700
C 	C 	0.87170 0.86120 0.84110 -0.54800
H 	H 	0.92318 0.80052 0.81980 0.15900
H 	H 	0.77197 0.87848 0.82110 0.16800
H 	H 	0.85155 0.83982 0.88310 0.14700
C 	C 	0.63110 0.00530 0.63740 -0.46500
H 	H 	0.59670 0.92859 0.63576 0.13500
H 	H 	0.72927 0.01028 0.66036 0.14400
H 	H 	0.64831 0.03253 0.59622 0.11900
N 	N 	0.01090 0.99760 0.77500 -0.35100
H 	H 	0.95755 0.06084 0.76773 0.08500
H 	H 	0.97186 0.94556 0.74973 0.08900
Cu	Cu	0.02683 0.14109 0.49838 0.78700
Cu	Cu	0.44142 0.14364 0.50095 0.78100
Cu	Cu	0.25900 0.97755 0.25390 0.84200
N 	N 	0.32210 0.09340 0.42490 -0.22200
N 	N 	0.34630 0.90820 0.07330 -0.19400
N 	N 	0.18420 0.89960 0.07750 -0.22600
C 	C 	0.80390 0.16560 0.50070 -0.32800
N 	N 	0.15630 0.09480 0.42580 -0.19900
N 	N 	0.22710 0.03860 0.33650 -0.20500
N 	N 	0.40940 0.93100 0.12710 -0.09800
C 	C 	0.15230 0.92000 0.13550 0.04300
N 	N 	0.28610 0.93960 0.16660 -0.21400
N 	N 	0.10050 0.06160 0.37320 -0.09000
C 	C 	0.36080 0.05820 0.36880 0.02100
N 	N 	0.66770 0.16480 0.50190 -0.25200
N 	N 	0.02520 0.96800 0.23240 -0.24000
C 	C 	0.52180 0.03770 0.33990 0.11700
H 	H 	0.57508 0.97623 0.36177 -0.04400
C 	C 	0.99800 0.92370 0.16900 0.05700
H 	H 	0.95750 0.84692 0.17263 -0.01800
C 	C 	0.62830 0.13880 0.34110 -0.55300
H 	H 	0.57682 0.19948 0.31980 0.16000
H 	H 	0.72803 0.12152 0.32110 0.17000
H 	H 	0.64845 0.16018 0.38310 0.14800
C 	C 	0.86890 0.99470 0.13740 -0.47100
H 	H 	0.90330 0.07141 0.13576 0.13800
H 	H 	0.77073 0.98972 0.16036 0.14600
H 	H 	0.85169 0.96747 0.09622 0.12100
N 	N 	0.48910 0.00240 0.27500 -0.35300
H 	H 	0.54245 0.93916 0.26773 0.08500
H 	H 	0.52814 0.05444 0.24973 0.09000
