data_crystal

_cell_length_a 9.73730
_cell_length_b 15.15420
_cell_length_c 21.16950
_cell_angle_alpha 90.00000
_cell_angle_beta  98.75600
_cell_angle_gamma 90.00000

_symmetry_space_group_name_	'P 1'
_symmetry_space_group_name_H-M	'P 1'

loop_
_symmetry_equiv_pos_as_xyz
  x,y,z

loop_
_atom_site_label
_atom_site_type_symbol
_atom_site_fract_x
_atom_site_fract_y
_atom_site_fract_z
_atom_site_charge
C 	C 	0.42110 0.33620 0.16324 0.40500
C 	C 	0.45450 0.41750 0.12812 -0.14300
C 	C 	0.46600 0.49620 0.16242 0.08400
H 	H 	0.45180 0.49570 0.20580 0.02600
C 	C 	0.49740 0.57500 0.13521 -0.13900
C 	C 	0.52100 0.65350 0.17922 0.38700
C 	C 	0.51050 0.57850 0.06964 0.08900
C 	C 	0.53190 0.65990 0.03789 -0.06600
H 	H 	0.54040 0.71330 0.06160 0.07700
C 	C 	0.45970 0.33820 0.02525 -0.06600
H 	H 	0.44600 0.28320 0.04500 0.07000
C 	C 	0.47090 0.41690 0.06317 0.08600
C 	C 	0.49540 0.49890 0.03372 -0.03400
C 	C 	0.18350 0.39570 0.33692 0.32900
C 	C 	0.08820 0.45260 0.37032 -0.11000
C 	C 	0.99950 0.51070 0.33383 0.06400
H 	H 	0.99960 0.51380 0.28900 0.03000
C 	C 	0.91000 0.56490 0.36200 -0.12600
C 	C 	0.80880 0.62260 0.31973 0.37900
C 	C 	0.09090 0.44710 0.43676 0.07100
C 	C 	0.18000 0.38700 0.47661 -0.06100
H 	H 	0.23980 0.34920 0.45760 0.06500
C 	C 	0.81920 0.61700 0.45951 -0.06100
H 	H 	0.75820 0.65710 0.43470 0.05800
C 	C 	0.90900 0.56170 0.42833 0.07500
C 	C 	0.99980 0.50240 0.46606 -0.02800
O 	O 	0.47480 0.26456 0.15315 -0.39800
O 	O 	0.33780 0.35008 0.20298 -0.47000
O 	O 	0.44480 0.66348 0.22020 -0.37800
O 	O 	0.62490 0.70148 0.17184 -0.46300
O 	O 	0.12490 0.33651 0.29945 -0.40900
O 	O 	0.30950 0.40953 0.34639 -0.30700
O 	O 	0.68490 0.60314 0.31301 -0.39800
O 	O 	0.85990 0.68768 0.29286 -0.42700
Li	Li	0.49620 0.15010 0.18910 0.55500
Zn	Zn	0.26936 0.27102 0.26169 1.24000
C 	C 	0.57890 0.83620 0.33676 0.40400
C 	C 	0.54550 0.91750 0.37188 -0.14400
C 	C 	0.53400 0.99620 0.33758 0.08300
H 	H 	0.54820 0.99570 0.29420 0.02500
C 	C 	0.50260 0.07500 0.36479 -0.14000
C 	C 	0.47900 0.15350 0.32078 0.38600
C 	C 	0.48950 0.07850 0.43036 0.08800
C 	C 	0.46810 0.15990 0.46211 -0.06700
H 	H 	0.45960 0.21330 0.43840 0.07700
C 	C 	0.54030 0.83820 0.47475 -0.06600
H 	H 	0.55400 0.78320 0.45500 0.07000
C 	C 	0.52910 0.91690 0.43683 0.08600
C 	C 	0.50460 0.99890 0.46628 -0.03400
C 	C 	0.81650 0.89570 0.16308 0.32900
C 	C 	0.91180 0.95260 0.12968 -0.10900
C 	C 	0.00050 0.01070 0.16617 0.06400
H 	H 	0.00040 0.01380 0.21100 0.03000
C 	C 	0.09000 0.06490 0.13800 -0.12600
C 	C 	0.19120 0.12260 0.18027 0.37900
C 	C 	0.90910 0.94710 0.06324 0.07100
C 	C 	0.82000 0.88700 0.02339 -0.06100
H 	H 	0.76020 0.84920 0.04240 0.06500
C 	C 	0.18080 0.11700 0.04049 -0.06200
H 	H 	0.24180 0.15710 0.06530 0.05800
C 	C 	0.09100 0.06170 0.07167 0.07500
C 	C 	0.00020 0.00240 0.03394 -0.02800
O 	O 	0.52520 0.76456 0.34685 -0.39800
O 	O 	0.66220 0.85008 0.29702 -0.47000
O 	O 	0.55520 0.16348 0.27980 -0.37800
O 	O 	0.37510 0.20148 0.32816 -0.46300
O 	O 	0.87510 0.83651 0.20055 -0.40900
O 	O 	0.69050 0.90953 0.15361 -0.30700
O 	O 	0.31510 0.10314 0.18699 -0.39800
O 	O 	0.14010 0.18768 0.20714 -0.42700
Li	Li	0.50380 0.65010 0.31090 0.55500
Zn	Zn	0.73064 0.77102 0.23831 1.24000
C 	C 	0.57890 0.66380 0.83676 0.40400
C 	C 	0.54550 0.58250 0.87188 -0.14400
C 	C 	0.53400 0.50380 0.83758 0.08300
H 	H 	0.54820 0.50430 0.79420 0.02500
C 	C 	0.50260 0.42500 0.86479 -0.14000
C 	C 	0.47900 0.34650 0.82078 0.38600
C 	C 	0.48950 0.42150 0.93036 0.08800
C 	C 	0.46810 0.34010 0.96211 -0.06700
H 	H 	0.45960 0.28670 0.93840 0.07700
C 	C 	0.54030 0.66180 0.97475 -0.06600
H 	H 	0.55400 0.71680 0.95500 0.07000
C 	C 	0.52910 0.58310 0.93683 0.08600
C 	C 	0.50460 0.50110 0.96628 -0.03400
C 	C 	0.81650 0.60430 0.66308 0.32900
C 	C 	0.91180 0.54740 0.62968 -0.11000
C 	C 	0.00050 0.48930 0.66617 0.06400
H 	H 	0.00040 0.48620 0.71100 0.03000
C 	C 	0.09000 0.43510 0.63800 -0.12600
C 	C 	0.19120 0.37740 0.68027 0.37900
C 	C 	0.90910 0.55290 0.56324 0.07100
C 	C 	0.82000 0.61300 0.52339 -0.06100
H 	H 	0.76020 0.65080 0.54240 0.06500
C 	C 	0.18080 0.38300 0.54049 -0.06100
H 	H 	0.24180 0.34290 0.56530 0.05800
C 	C 	0.09100 0.43830 0.57167 0.07500
C 	C 	0.00020 0.49760 0.53394 -0.02800
O 	O 	0.52520 0.73544 0.84685 -0.39800
O 	O 	0.66220 0.64992 0.79702 -0.47000
O 	O 	0.55520 0.33652 0.77980 -0.37800
O 	O 	0.37510 0.29852 0.82816 -0.46300
O 	O 	0.87510 0.66349 0.70055 -0.40900
O 	O 	0.69050 0.59047 0.65361 -0.30700
O 	O 	0.31510 0.39686 0.68699 -0.39800
O 	O 	0.14010 0.31232 0.70714 -0.42700
Li	Li	0.50380 0.84990 0.81090 0.55500
Zn	Zn	0.73064 0.72898 0.73831 1.24000
C 	C 	0.42110 0.16380 0.66324 0.40400
C 	C 	0.45450 0.08250 0.62812 -0.14400
C 	C 	0.46600 0.00380 0.66242 0.08300
H 	H 	0.45180 0.00430 0.70580 0.02500
C 	C 	0.49740 0.92500 0.63521 -0.14000
C 	C 	0.52100 0.84650 0.67922 0.38600
C 	C 	0.51050 0.92150 0.56964 0.08800
C 	C 	0.53190 0.84010 0.53789 -0.06700
H 	H 	0.54040 0.78670 0.56160 0.07700
C 	C 	0.45970 0.16180 0.52525 -0.06600
H 	H 	0.44600 0.21680 0.54500 0.07000
C 	C 	0.47090 0.08310 0.56317 0.08600
C 	C 	0.49540 0.00110 0.53372 -0.03400
C 	C 	0.18350 0.10430 0.83692 0.32900
C 	C 	0.08820 0.04740 0.87032 -0.10900
C 	C 	0.99950 0.98930 0.83383 0.06400
H 	H 	0.99960 0.98620 0.78900 0.03000
C 	C 	0.91000 0.93510 0.86200 -0.12600
C 	C 	0.80880 0.87740 0.81973 0.37900
C 	C 	0.09090 0.05290 0.93676 0.07100
C 	C 	0.18000 0.11300 0.97661 -0.06100
H 	H 	0.23980 0.15080 0.95760 0.06500
C 	C 	0.81920 0.88300 0.95951 -0.06200
H 	H 	0.75820 0.84290 0.93470 0.05800
C 	C 	0.90900 0.93830 0.92833 0.07500
C 	C 	0.99980 0.99760 0.96606 -0.02800
O 	O 	0.47480 0.23544 0.65315 -0.39800
O 	O 	0.33780 0.14992 0.70298 -0.47000
O 	O 	0.44480 0.83652 0.72020 -0.37800
O 	O 	0.62490 0.79852 0.67184 -0.46300
O 	O 	0.12490 0.16349 0.79945 -0.40900
O 	O 	0.30950 0.09047 0.84639 -0.30700
O 	O 	0.68490 0.89686 0.81301 -0.39800
O 	O 	0.85990 0.81232 0.79286 -0.42700
Li	Li	0.49620 0.34990 0.68910 0.55500
Zn	Zn	0.26936 0.22898 0.76169 1.24000
