data_crystal

_cell_length_a 9.03800
_cell_length_b 16.48100
_cell_length_c 15.13200
_cell_angle_alpha 90.00000
_cell_angle_beta  94.58500
_cell_angle_gamma 90.00000

_symmetry_space_group_name_	'P 1'
_symmetry_space_group_name_H-M	'P 1'

loop_
_symmetry_equiv_pos_as_xyz
  x,y,z

loop_
_atom_site_label
_atom_site_type_symbol
_atom_site_fract_x
_atom_site_fract_y
_atom_site_fract_z
_atom_site_charge
O 	O 	0.24840 0.31752 0.09743 -0.40300
C 	C 	0.24640 0.39340 0.11290 0.29900
N 	N 	0.71270 0.70576 0.08540 -0.24000
C 	C 	0.73340 0.66500 0.16160 0.12400
H 	H 	0.82710 0.64390 0.17760 -0.02300
C 	C 	0.57690 0.73670 0.06600 0.13200
H 	H 	0.55850 0.76480 0.01290 -0.01800
Cu	Cu	0.62068 0.21242 0.49369 0.88700
O 	O 	0.57400 0.35948 0.48187 -0.33300
O 	O 	0.49010 0.25857 0.39648 -0.39200
O 	O 	0.19200 0.44400 0.06027 -0.29800
C 	C 	0.31530 0.42080 0.20210 -0.02500
C 	C 	0.32340 0.50340 0.22050 -0.11000
H 	H 	0.28930 0.54040 0.17710 0.08500
C 	C 	0.37010 0.36480 0.26510 -0.04000
H 	H 	0.36610 0.30960 0.25260 0.06400
C 	C 	0.50200 0.33390 0.41390 0.28300
N 	N 	0.38740 0.61271 0.32431 -0.25100
H 	H 	0.47650 0.62140 0.35220 0.11800
H 	H 	0.32160 0.62030 0.36420 0.12500
C 	C 	0.43590 0.47430 0.36580 -0.11900
H 	H 	0.47570 0.49180 0.42110 0.08600
C 	C 	0.38190 0.53160 0.30280 0.12400
C 	C 	0.43100 0.39230 0.34710 -0.02100
C 	C 	0.48480 0.68600 0.19760 0.16200
C 	C 	0.36350 0.67700 0.25990 -0.15900
H 	H 	0.35370 0.72790 0.29120 0.07300
H 	H 	0.27050 0.66710 0.22510 0.08200
C 	C 	0.46460 0.72890 0.12030 -0.22000
H 	H 	0.37320 0.75300 0.10460 0.10800
C 	C 	0.62400 0.65290 0.21720 -0.20900
H 	H 	0.64310 0.62230 0.26840 0.10300
O 	O 	0.25160 0.81752 0.40257 -0.40300
C 	C 	0.25360 0.89340 0.38710 0.29900
N 	N 	0.78730 0.20576 0.41460 -0.23800
C 	C 	0.76660 0.16500 0.33840 0.12600
H 	H 	0.67290 0.14390 0.32240 -0.02100
C 	C 	0.92310 0.23670 0.43400 0.13400
H 	H 	0.94150 0.26480 0.48710 -0.01800
Cu	Cu	0.87932 0.71242 0.00631 0.88500
O 	O 	0.92600 0.85948 0.01813 -0.33300
O 	O 	0.00990 0.75857 0.10352 -0.38500
O 	O 	0.30800 0.94400 0.43973 -0.30000
C 	C 	0.18470 0.92080 0.29790 -0.02100
C 	C 	0.17660 0.00340 0.27950 -0.11400
H 	H 	0.21070 0.04040 0.32290 0.08600
C 	C 	0.12990 0.86480 0.23490 -0.04500
H 	H 	0.13390 0.80960 0.24740 0.06600
C 	C 	0.99800 0.83390 0.08610 0.27100
N 	N 	0.11260 0.11271 0.17569 -0.25100
H 	H 	0.02350 0.12140 0.14780 0.11900
H 	H 	0.17840 0.12030 0.13580 0.12600
C 	C 	0.06410 0.97430 0.13420 -0.12300
H 	H 	0.02430 0.99180 0.07890 0.08900
C 	C 	0.11810 0.03160 0.19720 0.12600
C 	C 	0.06900 0.89230 0.15290 -0.01200
C 	C 	0.01520 0.18600 0.30240 0.16300
C 	C 	0.13650 0.17700 0.24010 -0.15900
H 	H 	0.14630 0.22790 0.20880 0.07400
H 	H 	0.22950 0.16710 0.27490 0.08200
C 	C 	0.03540 0.22890 0.37970 -0.22200
H 	H 	0.12680 0.25300 0.39540 0.10800
C 	C 	0.87600 0.15290 0.28280 -0.20900
H 	H 	0.85690 0.12230 0.23160 0.10300
O 	O 	0.75160 0.68248 0.90257 -0.40200
C 	C 	0.75360 0.60660 0.88710 0.30000
N 	N 	0.28730 0.29424 0.91460 -0.23900
C 	C 	0.26660 0.33500 0.83840 0.12500
H 	H 	0.17290 0.35610 0.82240 -0.02200
C 	C 	0.42310 0.26330 0.93400 0.13300
H 	H 	0.44150 0.23520 0.98710 -0.01800
Cu	Cu	0.37932 0.78758 0.50631 0.88700
O 	O 	0.42600 0.64052 0.51813 -0.33300
O 	O 	0.50990 0.74143 0.60352 -0.39200
O 	O 	0.80800 0.55600 0.93973 -0.29800
C 	C 	0.68470 0.57920 0.79790 -0.02500
C 	C 	0.67660 0.49660 0.77950 -0.11000
H 	H 	0.71070 0.45960 0.82290 0.08500
C 	C 	0.62990 0.63520 0.73490 -0.04000
H 	H 	0.63390 0.69040 0.74740 0.06400
C 	C 	0.49800 0.66610 0.58610 0.28300
N 	N 	0.61260 0.38729 0.67569 -0.25100
H 	H 	0.52350 0.37860 0.64780 0.11800
H 	H 	0.67840 0.37970 0.63580 0.12500
C 	C 	0.56410 0.52570 0.63420 -0.11900
H 	H 	0.52430 0.50820 0.57890 0.08600
C 	C 	0.61810 0.46840 0.69720 0.12400
C 	C 	0.56900 0.60770 0.65290 -0.02100
C 	C 	0.51520 0.31400 0.80240 0.16200
C 	C 	0.63650 0.32300 0.74010 -0.15900
H 	H 	0.64630 0.27210 0.70880 0.07300
H 	H 	0.72950 0.33290 0.77490 0.08200
C 	C 	0.53540 0.27110 0.87970 -0.22000
H 	H 	0.62680 0.24700 0.89540 0.10800
C 	C 	0.37600 0.34710 0.78280 -0.20900
H 	H 	0.35690 0.37770 0.73160 0.10300
O 	O 	0.74840 0.18248 0.59743 -0.40300
C 	C 	0.74640 0.10660 0.61290 0.29900
N 	N 	0.21270 0.79424 0.58540 -0.23800
C 	C 	0.23340 0.83500 0.66160 0.12600
H 	H 	0.32710 0.85610 0.67760 -0.02100
C 	C 	0.07690 0.76330 0.56600 0.13400
H 	H 	0.05850 0.73520 0.51290 -0.01800
Cu	Cu	0.12068 0.28758 0.99369 0.88500
O 	O 	0.07400 0.14052 0.98187 -0.33300
O 	O 	0.99010 0.24143 0.89648 -0.38500
O 	O 	0.69200 0.05600 0.56027 -0.30000
C 	C 	0.81530 0.07920 0.70210 -0.02100
C 	C 	0.82340 0.99660 0.72050 -0.11400
H 	H 	0.78930 0.95960 0.67710 0.08600
C 	C 	0.87010 0.13520 0.76510 -0.04500
H 	H 	0.86610 0.19040 0.75260 0.06600
C 	C 	0.00200 0.16610 0.91390 0.27100
N 	N 	0.88740 0.88729 0.82431 -0.25100
H 	H 	0.97650 0.87860 0.85220 0.11900
H 	H 	0.82160 0.87970 0.86420 0.12600
C 	C 	0.93590 0.02570 0.86580 -0.12300
H 	H 	0.97570 0.00820 0.92110 0.08900
C 	C 	0.88190 0.96840 0.80280 0.12600
C 	C 	0.93100 0.10770 0.84710 -0.01200
C 	C 	0.98480 0.81400 0.69760 0.16300
C 	C 	0.86350 0.82300 0.75990 -0.15900
H 	H 	0.85370 0.77210 0.79120 0.07400
H 	H 	0.77050 0.83290 0.72510 0.08200
C 	C 	0.96460 0.77110 0.62030 -0.22200
H 	H 	0.87320 0.74700 0.60460 0.10800
C 	C 	0.12400 0.84710 0.71720 -0.20900
H 	H 	0.14310 0.87770 0.76840 0.10300
