data_crystal

_cell_length_a 12.10650
_cell_length_b 12.71700
_cell_length_c 16.22400
_cell_angle_alpha 79.35000
_cell_angle_beta  89.02900
_cell_angle_gamma 78.23700

_symmetry_space_group_name_	'P 1'
_symmetry_space_group_name_H-M	'P 1'

loop_
_symmetry_equiv_pos_as_xyz
  x,y,z

loop_
_atom_site_label
_atom_site_type_symbol
_atom_site_fract_x
_atom_site_fract_y
_atom_site_fract_z
_atom_site_charge
Fe	Fe	0.86512 0.49770 0.24390 1.16300
C 	C 	0.09580 0.64380 0.39750 -0.61200
C 	C 	0.14540 0.59130 0.47550 0.31700
H 	H 	0.13460 0.51990 0.49860 -0.06400
C 	C 	0.21030 0.64160 0.51980 -0.23900
H 	H 	0.24290 0.60450 0.57270 0.11900
C 	C 	0.22770 0.74600 0.48700 0.08600
C 	C 	0.18130 0.79870 0.40860 -0.25000
H 	H 	0.19420 0.86910 0.38490 0.11800
C 	C 	0.11610 0.74810 0.36520 0.31500
H 	H 	0.08420 0.78530 0.31200 -0.07700
B 	B 	0.01620 0.59020 0.34640 1.43100
O 	O 	0.02930 0.47140 0.38090 -0.49500
N 	N 	0.97060 0.42070 0.33360 -0.17900
C 	C 	0.99670 0.31490 0.34570 0.06400
C 	C 	0.93720 0.27130 0.28670 0.06100
N 	N 	0.87960 0.34940 0.23020 -0.18200
O 	O 	0.81420 0.31630 0.17470 -0.46600
B 	B 	0.71410 0.40330 0.14180 1.31000
O 	O 	0.05020 0.60970 0.25620 -0.48500
N 	N 	0.97800 0.58020 0.20400 -0.17900
C 	C 	0.97450 0.62770 0.12560 0.05600
C 	C 	0.88790 0.59800 0.07810 0.07200
N 	N 	0.82830 0.53910 0.12710 -0.18500
O 	O 	0.75030 0.49860 0.08690 -0.46100
O 	O 	0.89580 0.64800 0.35430 -0.47900
N 	N 	0.82020 0.60200 0.31630 -0.18100
C 	C 	0.71720 0.61690 0.34400 0.06000
C 	C 	0.64920 0.55890 0.30390 0.06300
N 	N 	0.70740 0.49500 0.25810 -0.17400
O 	O 	0.64800 0.44200 0.21320 -0.46300
C 	C 	0.63230 0.35500 0.08820 -0.15300
C 	C 	0.63510 0.37430 0.00060 -0.01100
H 	H 	0.68640 0.41640 0.97370 0.02100
C 	C 	0.56680 0.33510 0.95110 -0.02500
H 	H 	0.57260 0.35010 0.89180 0.04200
C 	C 	0.48970 0.27390 0.98770 -0.07600
C 	C 	0.48290 0.25450 0.07510 -0.58400
H 	H 	0.43000 0.21400 0.10160 0.23200
C 	C 	0.55280 0.29370 0.12350 0.64800
H 	H 	0.54680 0.27870 0.18280 -0.18600
C 	C 	0.41720 0.22750 0.93660 0.07200
O 	O 	0.44530 0.23900 0.85540 -0.17300
H 	H 	0.40310 0.21150 0.82920 0.08000
O 	O 	0.33770 0.18760 0.96410 -0.12900
C 	C 	0.64400 0.35070 0.08450 -0.22900
C 	C 	0.59210 0.40820 0.00910 0.12100
H 	H 	0.60060 0.48130 0.98980 -0.01500
C 	C 	0.52810 0.36150 0.96140 -0.09800
H 	H 	0.49460 0.40230 0.90970 0.06700
C 	C 	0.51310 0.25550 0.98890 0.13100
C 	C 	0.56520 0.19550 0.06410 0.39000
H 	H 	0.55660 0.12250 0.08330 -0.08400
C 	C 	0.62980 0.24340 0.11070 -0.53100
H 	H 	0.66510 0.20200 0.16160 0.19800
C 	C 	0.44650 0.20390 0.93790 0.17100
O 	O 	0.42800 0.25100 0.85900 -0.14700
H 	H 	0.38510 0.22070 0.83630 0.10400
O 	O 	0.40590 0.12490 0.96900 -0.15300
C 	C 	0.47930 0.65990 0.36790 -0.07100
H 	H 	0.40410 0.65120 0.38960 0.05200
H 	H 	0.47040 0.73230 0.33070 0.05900
C 	C 	0.52460 0.57010 0.31740 -0.14400
H 	H 	0.50940 0.49960 0.34770 0.08700
H 	H 	0.48440 0.58760 0.26240 0.09200
C 	C 	0.55960 0.65450 0.44160 -0.06500
H 	H 	0.52430 0.70730 0.47690 0.05400
H 	H 	0.57260 0.58040 0.47660 0.04800
C 	C 	0.67300 0.68080 0.41020 -0.15100
H 	H 	0.66300 0.76000 0.38710 0.08800
H 	H 	0.72810 0.66280 0.45770 0.09100
C 	C 	0.96740 0.68940 0.94740 -0.04800
H 	H 	0.03590 0.63400 0.94120 0.05200
H 	H 	0.94260 0.73090 0.89070 0.04500
C 	C 	0.87480 0.63120 0.98490 -0.16600
H 	H 	0.80040 0.68040 0.97070 0.10400
H 	H 	0.87700 0.56550 0.95990 0.09000
C 	C 	0.99700 0.76630 0.99920 -0.07600
H 	H 	0.92860 0.82160 0.00580 0.06000
H 	H 	0.05330 0.80500 0.96930 0.05500
C 	C 	0.04510 0.70700 0.08660 -0.13900
H 	H 	0.12350 0.66750 0.08140 0.08200
H 	H 	0.04640 0.76130 0.12300 0.08800
C 	C 	0.99070 0.08720 0.37880 -0.07300
H 	H 	0.93580 0.09950 0.42370 0.05700
H 	H 	0.00740 0.00820 0.37690 0.04600
C 	C 	0.93850 0.15260 0.29360 -0.14200
H 	H 	0.98290 0.12490 0.24750 0.07900
H 	H 	0.86050 0.14180 0.28800 0.09100
C 	C 	0.09960 0.12250 0.39880 -0.06400
H 	H 	0.15240 0.11470 0.35200 0.05000
H 	H 	0.13610 0.07380 0.45010 0.05200
C 	C 	0.07620 0.24130 0.41220 -0.15200
H 	H 	0.04300 0.24500 0.46800 0.09300
H 	H 	0.14810 0.26700 0.41100 0.09100
O 	O 	0.32580 0.88750 0.50110 -0.26200
O 	O 	0.32190 0.75370 0.61150 -0.43200
H 	H 	0.36090 0.78890 0.63370 0.25300
C 	C 	0.29670 0.80210 0.53380 0.28100
Fe	Fe	0.13488 0.50230 0.75610 1.16200
C 	C 	0.90420 0.35620 0.60250 -0.61300
C 	C 	0.85460 0.40870 0.52450 0.31600
H 	H 	0.86540 0.48010 0.50140 -0.06500
C 	C 	0.78970 0.35840 0.48020 -0.23900
H 	H 	0.75710 0.39550 0.42730 0.11900
C 	C 	0.77230 0.25400 0.51300 0.08600
C 	C 	0.81870 0.20130 0.59140 -0.25000
H 	H 	0.80580 0.13090 0.61510 0.11800
C 	C 	0.88390 0.25190 0.63480 0.31500
H 	H 	0.91580 0.21470 0.68800 -0.07700
B 	B 	0.98380 0.40980 0.65360 1.43100
O 	O 	0.97070 0.52860 0.61910 -0.49500
N 	N 	0.02940 0.57930 0.66640 -0.17900
C 	C 	0.00330 0.68510 0.65430 0.06400
C 	C 	0.06280 0.72870 0.71330 0.06100
N 	N 	0.12040 0.65060 0.76980 -0.18200
O 	O 	0.18580 0.68370 0.82530 -0.46600
B 	B 	0.28590 0.59670 0.85820 1.31000
O 	O 	0.94980 0.39030 0.74380 -0.48500
N 	N 	0.02200 0.41980 0.79600 -0.17900
C 	C 	0.02550 0.37230 0.87440 0.05600
C 	C 	0.11210 0.40200 0.92190 0.07200
N 	N 	0.17170 0.46090 0.87290 -0.18500
O 	O 	0.24970 0.50140 0.91310 -0.46100
O 	O 	0.10420 0.35200 0.64570 -0.47900
N 	N 	0.17980 0.39800 0.68370 -0.18100
C 	C 	0.28280 0.38310 0.65600 0.06000
C 	C 	0.35080 0.44110 0.69610 0.06300
N 	N 	0.29260 0.50500 0.74190 -0.17400
O 	O 	0.35200 0.55800 0.78680 -0.46300
C 	C 	0.36770 0.64500 0.91180 -0.15300
C 	C 	0.36490 0.62570 0.99940 -0.01100
H 	H 	0.31360 0.58360 0.02630 0.02100
C 	C 	0.43320 0.66490 0.04890 -0.02500
H 	H 	0.42740 0.64990 0.10820 0.04200
C 	C 	0.51030 0.72610 0.01230 -0.07600
C 	C 	0.51710 0.74550 0.92490 -0.58400
H 	H 	0.57000 0.78600 0.89840 0.23200
C 	C 	0.44720 0.70630 0.87650 0.64800
H 	H 	0.45320 0.72130 0.81720 -0.18600
C 	C 	0.58280 0.77250 0.06340 0.07200
O 	O 	0.55470 0.76100 0.14460 -0.17300
H 	H 	0.59690 0.78850 0.17080 0.08000
O 	O 	0.66230 0.81240 0.03590 -0.12900
C 	C 	0.35600 0.64930 0.91550 -0.22900
C 	C 	0.40790 0.59180 0.99090 0.12100
H 	H 	0.39940 0.51870 0.01020 -0.01500
C 	C 	0.47190 0.63850 0.03860 -0.09800
H 	H 	0.50540 0.59770 0.09030 0.06700
C 	C 	0.48690 0.74450 0.01110 0.13100
C 	C 	0.43480 0.80450 0.93590 0.39000
H 	H 	0.44340 0.87750 0.91670 -0.08400
C 	C 	0.37020 0.75660 0.88930 -0.53100
H 	H 	0.33490 0.79800 0.83840 0.19800
C 	C 	0.55350 0.79610 0.06210 0.17100
O 	O 	0.57200 0.74900 0.14100 -0.14700
H 	H 	0.61490 0.77930 0.16370 0.10400
O 	O 	0.59410 0.87510 0.03100 -0.15300
C 	C 	0.52070 0.34010 0.63210 -0.07100
H 	H 	0.59590 0.34880 0.61040 0.05200
H 	H 	0.52960 0.26770 0.66930 0.05900
C 	C 	0.47540 0.42990 0.68260 -0.14400
H 	H 	0.49060 0.50040 0.65230 0.08700
H 	H 	0.51560 0.41240 0.73760 0.09200
C 	C 	0.44040 0.34550 0.55840 -0.06500
H 	H 	0.47570 0.29270 0.52310 0.05400
H 	H 	0.42740 0.41960 0.52340 0.04800
C 	C 	0.32700 0.31920 0.58980 -0.15100
H 	H 	0.33700 0.24000 0.61290 0.08800
H 	H 	0.27190 0.33720 0.54230 0.09100
C 	C 	0.03260 0.31060 0.05260 -0.04800
H 	H 	0.96410 0.36600 0.05880 0.05200
H 	H 	0.05740 0.26910 0.10930 0.04500
C 	C 	0.12520 0.36880 0.01510 -0.16600
H 	H 	0.19960 0.31960 0.02930 0.10400
H 	H 	0.12300 0.43450 0.04010 0.09000
C 	C 	0.00300 0.23370 0.00080 -0.07600
H 	H 	0.07140 0.17840 0.99420 0.06000
H 	H 	0.94670 0.19500 0.03070 0.05500
C 	C 	0.95490 0.29300 0.91340 -0.13900
H 	H 	0.87650 0.33250 0.91860 0.08200
H 	H 	0.95360 0.23870 0.87700 0.08800
C 	C 	0.00930 0.91280 0.62120 -0.07300
H 	H 	0.06420 0.90050 0.57630 0.05700
H 	H 	0.99260 0.99180 0.62310 0.04600
C 	C 	0.06150 0.84740 0.70640 -0.14200
H 	H 	0.01710 0.87510 0.75250 0.07900
H 	H 	0.13950 0.85820 0.71200 0.09100
C 	C 	0.90040 0.87750 0.60120 -0.06400
H 	H 	0.84760 0.88530 0.64800 0.05000
H 	H 	0.86390 0.92620 0.54990 0.05200
C 	C 	0.92380 0.75870 0.58780 -0.15200
H 	H 	0.95700 0.75500 0.53200 0.09300
H 	H 	0.85190 0.73300 0.58900 0.09100
O 	O 	0.67420 0.11250 0.49890 -0.26200
O 	O 	0.67810 0.24630 0.38850 -0.43200
H 	H 	0.63910 0.21110 0.36630 0.25300
C 	C 	0.70330 0.19790 0.46620 0.28100
