data_crystal

_cell_length_a 28.61200
_cell_length_b 9.38990
_cell_length_c 9.27410
_cell_angle_alpha 90.00000
_cell_angle_beta  92.65700
_cell_angle_gamma 90.00000

_symmetry_space_group_name_	'P 1'
_symmetry_space_group_name_H-M	'P 1'

loop_
_symmetry_equiv_pos_as_xyz
  x,y,z

loop_
_atom_site_label
_atom_site_type_symbol
_atom_site_fract_x
_atom_site_fract_y
_atom_site_fract_z
_atom_site_charge
Cu	Cu	0.30754 0.66933 0.12004 0.89100
C 	C 	0.38060 0.98830 0.89780 -0.25700
H 	H 	0.37300 0.07740 0.85690 0.14100
C 	C 	0.34730 0.91110 0.96320 0.15000
H 	H 	0.31680 0.94850 0.96440 -0.02100
C 	C 	0.43490 0.80400 0.95740 -0.24700
H 	H 	0.46490 0.76350 0.95660 0.11600
N 	N 	0.35573 0.78450 0.02600 -0.24800
C 	C 	0.42610 0.93510 0.89160 0.23500
C 	C 	0.39930 0.73350 0.02380 0.13600
H 	H 	0.40600 0.64600 0.06930 -0.01000
C 	C 	0.46320 0.01970 0.81960 -0.37200
H 	H 	0.47870 0.08210 0.89170 0.13800
H 	H 	0.44800 0.08070 0.74560 0.14300
H 	H 	0.48480 0.87000 0.67760 -0.02200
N 	N 	0.27842 0.60610 0.92770 -0.17300
N 	N 	0.24377 0.65510 0.84080 -0.12400
N 	N 	0.24145 0.57950 0.72030 -0.05100
C 	C 	0.29680 0.49810 0.85960 0.01500
N 	N 	0.27503 0.47990 0.73100 -0.16700
C 	C 	0.33780 0.40540 0.90080 0.27900
O 	O 	0.34730 0.31840 0.80170 -0.36500
O 	O 	0.35748 0.42030 0.02040 -0.27200
Cu	Cu	0.80754 0.16933 0.12004 0.89100
C 	C 	0.88060 0.48830 0.89780 -0.24700
H 	H 	0.87300 0.57740 0.85690 0.13600
C 	C 	0.84730 0.41110 0.96320 0.14800
H 	H 	0.81680 0.44850 0.96440 -0.01900
C 	C 	0.93490 0.30400 0.95740 -0.23600
H 	H 	0.96490 0.26350 0.95660 0.11500
N 	N 	0.85573 0.28450 0.02600 -0.24700
C 	C 	0.92610 0.43510 0.89160 0.22600
C 	C 	0.89930 0.23350 0.02380 0.12800
H 	H 	0.90600 0.14600 0.06930 -0.00800
C 	C 	0.96320 0.51970 0.81960 -0.35000
H 	H 	0.97870 0.58210 0.89170 0.13300
H 	H 	0.94800 0.58070 0.74560 0.13800
H 	H 	0.98480 0.37000 0.67760 -0.00800
N 	N 	0.77842 0.10610 0.92770 -0.17100
N 	N 	0.74377 0.15510 0.84080 -0.12300
N 	N 	0.74145 0.07950 0.72030 -0.05100
C 	C 	0.79680 0.99810 0.85960 0.01400
N 	N 	0.77503 0.97990 0.73100 -0.16700
C 	C 	0.83780 0.90540 0.90080 0.27500
O 	O 	0.84730 0.81840 0.80170 -0.36400
O 	O 	0.85748 0.92030 0.02040 -0.26900
Cu	Cu	0.69246 0.66933 0.37996 0.89200
C 	C 	0.61940 0.98830 0.60220 -0.25500
H 	H 	0.62700 0.07740 0.64310 0.13900
C 	C 	0.65270 0.91110 0.53680 0.15000
H 	H 	0.68320 0.94850 0.53560 -0.02100
C 	C 	0.56510 0.80400 0.54260 -0.24400
H 	H 	0.53510 0.76350 0.54340 0.11500
N 	N 	0.64427 0.78450 0.47400 -0.24800
C 	C 	0.57390 0.93510 0.60840 0.23400
C 	C 	0.60070 0.73350 0.47620 0.13200
H 	H 	0.59400 0.64600 0.43070 -0.00900
C 	C 	0.53680 0.01970 0.68040 -0.37200
H 	H 	0.52130 0.08210 0.60830 0.13700
H 	H 	0.55200 0.08070 0.75440 0.14400
H 	H 	0.51520 0.87000 0.82240 -0.02200
N 	N 	0.72158 0.60610 0.57230 -0.17300
N 	N 	0.75623 0.65510 0.65920 -0.12400
N 	N 	0.75855 0.57950 0.77970 -0.05100
C 	C 	0.70320 0.49810 0.64040 0.01500
N 	N 	0.72497 0.47990 0.76900 -0.16700
C 	C 	0.66220 0.40540 0.59920 0.27800
O 	O 	0.65270 0.31840 0.69830 -0.36500
O 	O 	0.64252 0.42030 0.47960 -0.27200
Cu	Cu	0.19246 0.16933 0.37996 0.89200
C 	C 	0.11940 0.48830 0.60220 -0.24700
H 	H 	0.12700 0.57740 0.64310 0.13600
C 	C 	0.15270 0.41110 0.53680 0.14600
H 	H 	0.18320 0.44850 0.53560 -0.01900
C 	C 	0.06510 0.30400 0.54260 -0.23800
H 	H 	0.03510 0.26350 0.54340 0.11200
N 	N 	0.14427 0.28450 0.47400 -0.24700
C 	C 	0.07390 0.43510 0.60840 0.22600
C 	C 	0.10070 0.23350 0.47620 0.12900
H 	H 	0.09400 0.14600 0.43070 -0.00900
C 	C 	0.03680 0.51970 0.68040 -0.35400
H 	H 	0.02130 0.58210 0.60830 0.13000
H 	H 	0.05200 0.58070 0.75440 0.13700
H 	H 	0.01520 0.37000 0.82240 -0.01300
N 	N 	0.22158 0.10610 0.57230 -0.17200
N 	N 	0.25623 0.15510 0.65920 -0.12400
N 	N 	0.25855 0.07950 0.77970 -0.05000
C 	C 	0.20320 0.99810 0.64040 0.01500
N 	N 	0.22497 0.97990 0.76900 -0.16700
C 	C 	0.16220 0.90540 0.59920 0.27800
O 	O 	0.15270 0.81840 0.69830 -0.36500
O 	O 	0.14252 0.92030 0.47960 -0.27200
Cu	Cu	0.69246 0.33067 0.87996 0.89200
C 	C 	0.61940 0.01170 0.10220 -0.25700
H 	H 	0.62700 0.92260 0.14310 0.14100
C 	C 	0.65270 0.08890 0.03680 0.15000
H 	H 	0.68320 0.05150 0.03560 -0.02100
C 	C 	0.56510 0.19600 0.04260 -0.24700
H 	H 	0.53510 0.23650 0.04340 0.11600
N 	N 	0.64427 0.21550 0.97400 -0.24800
C 	C 	0.57390 0.06490 0.10840 0.23500
C 	C 	0.60070 0.26650 0.97620 0.13500
H 	H 	0.59400 0.35400 0.93070 -0.01000
C 	C 	0.53680 0.98030 0.18040 -0.37200
H 	H 	0.52130 0.91790 0.10830 0.13800
H 	H 	0.55200 0.91930 0.25440 0.14300
H 	H 	0.51520 0.13000 0.32240 -0.02200
N 	N 	0.72158 0.39390 0.07230 -0.17300
N 	N 	0.75623 0.34490 0.15920 -0.12400
N 	N 	0.75855 0.42050 0.27970 -0.05100
C 	C 	0.70320 0.50190 0.14040 0.01500
N 	N 	0.72497 0.52010 0.26900 -0.16700
C 	C 	0.66220 0.59460 0.09920 0.27900
O 	O 	0.65270 0.68160 0.19830 -0.36500
O 	O 	0.64252 0.57970 0.97960 -0.27300
Cu	Cu	0.19246 0.83067 0.87996 0.89100
C 	C 	0.11940 0.51170 0.10220 -0.24700
H 	H 	0.12700 0.42260 0.14310 0.13600
C 	C 	0.15270 0.58890 0.03680 0.14700
H 	H 	0.18320 0.55150 0.03560 -0.01900
C 	C 	0.06510 0.69600 0.04260 -0.23600
H 	H 	0.03510 0.73650 0.04340 0.11100
N 	N 	0.14427 0.71550 0.97400 -0.24700
C 	C 	0.07390 0.56490 0.10840 0.22500
C 	C 	0.10070 0.76650 0.97620 0.12700
H 	H 	0.09400 0.85400 0.93070 -0.00900
C 	C 	0.03680 0.48030 0.18040 -0.35400
H 	H 	0.02130 0.41790 0.10830 0.13000
H 	H 	0.05200 0.41930 0.25440 0.13700
H 	H 	0.01520 0.63000 0.32240 -0.01300
N 	N 	0.22158 0.89390 0.07230 -0.17100
N 	N 	0.25623 0.84490 0.15920 -0.12300
N 	N 	0.25855 0.92050 0.27970 -0.05100
C 	C 	0.20320 0.00190 0.14040 0.01400
N 	N 	0.22497 0.02010 0.26900 -0.16700
C 	C 	0.16220 0.09460 0.09920 0.27500
O 	O 	0.15270 0.18160 0.19830 -0.36500
O 	O 	0.14252 0.07970 0.97960 -0.27000
Cu	Cu	0.30754 0.33067 0.62004 0.89200
C 	C 	0.38060 0.01170 0.39780 -0.25500
H 	H 	0.37300 0.92260 0.35690 0.13900
C 	C 	0.34730 0.08890 0.46320 0.15000
H 	H 	0.31680 0.05150 0.46440 -0.02100
C 	C 	0.43490 0.19600 0.45740 -0.24400
H 	H 	0.46490 0.23650 0.45660 0.11500
N 	N 	0.35573 0.21550 0.52600 -0.24800
C 	C 	0.42610 0.06490 0.39160 0.23400
C 	C 	0.39930 0.26650 0.52380 0.13200
H 	H 	0.40600 0.35400 0.56930 -0.00900
C 	C 	0.46320 0.98030 0.31960 -0.37200
H 	H 	0.47870 0.91790 0.39170 0.13700
H 	H 	0.44800 0.91930 0.24560 0.14400
H 	H 	0.48480 0.13000 0.17760 -0.02200
N 	N 	0.27842 0.39390 0.42770 -0.17300
N 	N 	0.24377 0.34490 0.34080 -0.12400
N 	N 	0.24145 0.42050 0.22030 -0.05100
C 	C 	0.29680 0.50190 0.35960 0.01500
N 	N 	0.27503 0.52010 0.23100 -0.16700
C 	C 	0.33780 0.59460 0.40080 0.27800
O 	O 	0.34730 0.68160 0.30170 -0.36500
O 	O 	0.35748 0.57970 0.52040 -0.27200
Cu	Cu	0.80754 0.83067 0.62004 0.89200
C 	C 	0.88060 0.51170 0.39780 -0.24700
H 	H 	0.87300 0.42260 0.35690 0.13600
C 	C 	0.84730 0.58890 0.46320 0.14700
H 	H 	0.81680 0.55150 0.46440 -0.01900
C 	C 	0.93490 0.69600 0.45740 -0.23800
H 	H 	0.96490 0.73650 0.45660 0.11500
N 	N 	0.85573 0.71550 0.52600 -0.24700
C 	C 	0.92610 0.56490 0.39160 0.22600
C 	C 	0.89930 0.76650 0.52380 0.13000
H 	H 	0.90600 0.85400 0.56930 -0.00800
C 	C 	0.96320 0.48030 0.31960 -0.35000
H 	H 	0.97870 0.41790 0.39170 0.13300
H 	H 	0.94800 0.41930 0.24560 0.13800
H 	H 	0.98480 0.63000 0.17760 -0.00700
N 	N 	0.77842 0.89390 0.42770 -0.17200
N 	N 	0.74377 0.84490 0.34080 -0.12400
N 	N 	0.74145 0.92050 0.22030 -0.05000
C 	C 	0.79680 0.00190 0.35960 0.01500
N 	N 	0.77503 0.02010 0.23100 -0.16700
C 	C 	0.83780 0.09460 0.40080 0.27800
O 	O 	0.84730 0.18160 0.30170 -0.36500
O 	O 	0.85748 0.07970 0.52040 -0.27100
C 	C 	0.50000 0.93090 0.75000 0.16900
C 	C 	-0.00000 0.43090 0.75000 0.13700
C 	C 	0.50000 0.06910 0.25000 0.16900
C 	C 	0.00000 0.56910 0.25000 0.13600
