data_crystal

_cell_length_a 10.79610
_cell_length_b 8.79500
_cell_length_c 25.17480
_cell_angle_alpha 90.00000
_cell_angle_beta  98.81100
_cell_angle_gamma 90.00000

_symmetry_space_group_name_	'P 1'
_symmetry_space_group_name_H-M	'P 1'

loop_
_symmetry_equiv_pos_as_xyz
  x,y,z

loop_
_atom_site_label
_atom_site_type_symbol
_atom_site_fract_x
_atom_site_fract_y
_atom_site_fract_z
_atom_site_charge
Cu	Cu	0.83861 0.21905 0.26336 0.92500
O 	O 	0.00950 0.17790 0.25196 -0.36400
N 	N 	0.77280 0.18080 0.18547 -0.22500
O 	O 	0.03470 0.99660 0.31456 -0.27600
N 	N 	0.50240 0.92810 0.35902 -0.01700
O 	O 	0.60810 0.97400 0.37332 -0.11300
N 	N 	0.39900 0.23500 0.84159 -0.22500
N 	N 	0.63140 0.13510 0.02122 -0.09400
C 	C 	0.42170 0.01040 0.31696 0.14200
C 	C 	0.21260 0.08450 0.28001 0.00700
C 	C 	0.47370 0.08980 0.27775 -0.13200
C 	C 	0.62490 0.25490 0.11019 -0.21600
H 	H 	0.55730 0.31550 0.09600 0.13100
C 	C 	0.67560 0.26590 0.16302 0.14000
H 	H 	0.64130 0.33550 0.18450 -0.00100
O 	O 	0.45850 0.81350 0.37745 -0.11400
C 	C 	0.67530 0.15270 0.07833 0.20300
C 	C 	0.77340 0.06250 0.10051 -0.21100
H 	H 	0.80820 0.99190 0.07960 0.12800
C 	C 	0.50130 0.21590 0.94886 0.19700
C 	C 	0.26140 0.16100 0.24006 -0.08100
H 	H 	0.20740 0.21050 0.21330 0.08800
C 	C 	0.39040 0.16570 0.23903 0.04200
H 	H 	0.42090 0.22010 0.21210 0.03700
C 	C 	0.29530 0.00720 0.31839 -0.12500
H 	H 	0.26470 0.95290 0.34530 0.10700
C 	C 	0.07420 0.08260 0.28318 0.29500
C 	C 	0.81980 0.07870 0.15472 0.14100
H 	H 	0.88540 0.01670 0.17010 0.00100
C 	C 	0.54990 0.12850 0.91105 -0.20600
H 	H 	0.61660 0.06250 0.92130 0.12400
N 	N 	0.54910 0.22390 0.00496 -0.09900
C 	C 	0.49620 0.14230 0.85757 0.12900
H 	H 	0.52890 0.08530 0.83190 -0.00600
C 	C 	0.35250 0.31560 0.87883 0.13200
H 	H 	0.28370 0.37800 0.86810 0.00500
C 	C 	0.40190 0.31030 0.93215 -0.21500
H 	H 	0.36830 0.37020 0.95690 0.12600
O 	O 	0.65990 0.97280 0.26015 -0.37500
C 	C 	0.61090 0.09070 0.27278 0.38100
O 	O 	0.66430 0.21900 0.27946 -0.38500
Cu	Cu	0.33861 0.28095 0.76336 0.92500
O 	O 	0.50950 0.32210 0.75196 -0.36500
N 	N 	0.27280 0.31920 0.68547 -0.22400
O 	O 	0.53470 0.50340 0.81456 -0.27900
N 	N 	0.00240 0.57190 0.85902 -0.01800
O 	O 	0.10810 0.52600 0.87332 -0.11400
N 	N 	0.89900 0.26500 0.34159 -0.22500
N 	N 	0.13140 0.36490 0.52122 -0.09400
C 	C 	0.92170 0.48960 0.81696 0.14300
C 	C 	0.71260 0.41550 0.78001 0.00500
C 	C 	0.97370 0.41020 0.77775 -0.13100
C 	C 	0.12490 0.24510 0.61019 -0.21500
H 	H 	0.05730 0.18450 0.59600 0.13100
C 	C 	0.17560 0.23410 0.66302 0.13900
H 	H 	0.14130 0.16450 0.68450 -0.00000
O 	O 	0.95850 0.68650 0.87745 -0.11400
C 	C 	0.17530 0.34730 0.57833 0.20200
C 	C 	0.27340 0.43750 0.60051 -0.20700
H 	H 	0.30820 0.50810 0.57960 0.12600
C 	C 	0.00130 0.28410 0.44886 0.19700
C 	C 	0.76140 0.33900 0.74006 -0.07900
H 	H 	0.70740 0.28950 0.71330 0.08800
C 	C 	0.89040 0.33430 0.73903 0.04100
H 	H 	0.92090 0.27990 0.71210 0.03700
C 	C 	0.79530 0.49280 0.81839 -0.12100
H 	H 	0.76470 0.54710 0.84530 0.10400
C 	C 	0.57420 0.41740 0.78318 0.29800
C 	C 	0.31980 0.42130 0.65472 0.13900
H 	H 	0.38540 0.48330 0.67010 0.00300
C 	C 	0.04990 0.37150 0.41105 -0.20400
H 	H 	0.11660 0.43750 0.42130 0.12300
N 	N 	0.04910 0.27610 0.50496 -0.09900
C 	C 	0.99620 0.35770 0.35757 0.12600
H 	H 	0.02890 0.41470 0.33190 -0.00500
C 	C 	0.85250 0.18440 0.37883 0.13100
H 	H 	0.78370 0.12200 0.36810 0.00400
C 	C 	0.90190 0.18970 0.43215 -0.21500
H 	H 	0.86830 0.12980 0.45690 0.12600
O 	O 	0.15990 0.52720 0.76015 -0.37800
C 	C 	0.11090 0.40930 0.77278 0.38400
O 	O 	0.16430 0.28100 0.77946 -0.38600
Cu	Cu	0.66139 0.71905 0.23664 0.92500
O 	O 	0.49050 0.67790 0.24804 -0.36500
N 	N 	0.72720 0.68080 0.31453 -0.22400
O 	O 	0.46530 0.49660 0.18544 -0.27900
N 	N 	0.99760 0.42810 0.14098 -0.01800
O 	O 	0.89190 0.47400 0.12668 -0.11400
N 	N 	0.10100 0.73500 0.65841 -0.22500
N 	N 	0.86860 0.63510 0.47878 -0.09400
C 	C 	0.07830 0.51040 0.18304 0.14300
C 	C 	0.28740 0.58450 0.21999 0.00500
C 	C 	0.02630 0.58980 0.22225 -0.13100
C 	C 	0.87510 0.75490 0.38981 -0.21500
H 	H 	0.94270 0.81550 0.40400 0.13100
C 	C 	0.82440 0.76590 0.33698 0.13900
H 	H 	0.85870 0.83550 0.31550 -0.00000
O 	O 	0.04150 0.31350 0.12255 -0.11400
C 	C 	0.82470 0.65270 0.42167 0.20200
C 	C 	0.72660 0.56250 0.39949 -0.20700
H 	H 	0.69180 0.49190 0.42040 0.12600
C 	C 	0.99870 0.71590 0.55114 0.19700
C 	C 	0.23860 0.66100 0.25994 -0.07900
H 	H 	0.29260 0.71050 0.28670 0.08800
C 	C 	0.10960 0.66570 0.26097 0.04100
H 	H 	0.07910 0.72010 0.28790 0.03700
C 	C 	0.20470 0.50720 0.18161 -0.12100
H 	H 	0.23530 0.45290 0.15470 0.10400
C 	C 	0.42580 0.58260 0.21682 0.29800
C 	C 	0.68020 0.57870 0.34528 0.13900
H 	H 	0.61460 0.51670 0.32990 0.00300
C 	C 	0.95010 0.62850 0.58895 -0.20400
H 	H 	0.88340 0.56250 0.57870 0.12300
N 	N 	0.95090 0.72390 0.49504 -0.09900
C 	C 	0.00380 0.64230 0.64243 0.12600
H 	H 	0.97110 0.58530 0.66810 -0.00500
C 	C 	0.14750 0.81560 0.62117 0.13100
H 	H 	0.21630 0.87800 0.63190 0.00400
C 	C 	0.09810 0.81030 0.56785 -0.21500
H 	H 	0.13170 0.87020 0.54310 0.12600
O 	O 	0.84010 0.47280 0.23985 -0.37800
C 	C 	0.88910 0.59070 0.22722 0.38400
O 	O 	0.83570 0.71900 0.22054 -0.38600
Cu	Cu	0.16139 0.78095 0.73664 0.92500
O 	O 	0.99050 0.82210 0.74804 -0.36400
N 	N 	0.22720 0.81920 0.81453 -0.22500
O 	O 	0.96530 0.00340 0.68544 -0.27600
N 	N 	0.49760 0.07190 0.64098 -0.01700
O 	O 	0.39190 0.02600 0.62668 -0.11300
N 	N 	0.60100 0.76500 0.15841 -0.22500
N 	N 	0.36860 0.86490 0.97878 -0.09400
C 	C 	0.57830 0.98960 0.68304 0.14200
C 	C 	0.78740 0.91550 0.71999 0.00700
C 	C 	0.52630 0.91020 0.72225 -0.13200
C 	C 	0.37510 0.74510 0.88981 -0.21600
H 	H 	0.44270 0.68450 0.90400 0.13100
C 	C 	0.32440 0.73410 0.83698 0.14000
H 	H 	0.35870 0.66450 0.81550 -0.00100
O 	O 	0.54150 0.18650 0.62255 -0.11400
C 	C 	0.32470 0.84730 0.92167 0.20300
C 	C 	0.22660 0.93750 0.89949 -0.21100
H 	H 	0.19180 0.00810 0.92040 0.12800
C 	C 	0.49870 0.78410 0.05114 0.19700
C 	C 	0.73860 0.83900 0.75994 -0.08100
H 	H 	0.79260 0.78950 0.78670 0.08800
C 	C 	0.60960 0.83430 0.76097 0.04200
H 	H 	0.57910 0.77990 0.78790 0.03700
C 	C 	0.70470 0.99280 0.68161 -0.12500
H 	H 	0.73530 0.04710 0.65470 0.10700
C 	C 	0.92580 0.91740 0.71682 0.29500
C 	C 	0.18020 0.92130 0.84528 0.14100
H 	H 	0.11460 0.98330 0.82990 0.00100
C 	C 	0.45010 0.87150 0.08895 -0.20600
H 	H 	0.38340 0.93750 0.07870 0.12400
N 	N 	0.45090 0.77610 0.99504 -0.09900
C 	C 	0.50380 0.85770 0.14243 0.12900
H 	H 	0.47110 0.91470 0.16810 -0.00600
C 	C 	0.64750 0.68440 0.12117 0.13200
H 	H 	0.71630 0.62200 0.13190 0.00500
C 	C 	0.59810 0.68970 0.06785 -0.21500
H 	H 	0.63170 0.62980 0.04310 0.12600
O 	O 	0.34010 0.02720 0.73985 -0.37500
C 	C 	0.38910 0.90930 0.72722 0.38100
O 	O 	0.33570 0.78100 0.72054 -0.38500
