data_crystal

_cell_length_a 10.76600
_cell_length_b 12.99300
_cell_length_c 20.03500
_cell_angle_alpha 76.46000
_cell_angle_beta  85.52000
_cell_angle_gamma 69.16000

_symmetry_space_group_name_	'P 1'
_symmetry_space_group_name_H-M	'P 1'

loop_
_symmetry_equiv_pos_as_xyz
  x,y,z

loop_
_atom_site_label
_atom_site_type_symbol
_atom_site_fract_x
_atom_site_fract_y
_atom_site_fract_z
_atom_site_charge
Zn	Zn	0.25199 0.26564 0.24625 1.23200
Zn	Zn	0.95759 0.32808 0.18180 1.19300
O 	O 	0.21410 0.41160 0.18231 -0.50800
O 	O 	0.04820 0.41760 0.11968 -0.53200
O 	O 	0.09530 0.28390 0.30720 -0.50900
O 	O 	0.89630 0.39140 0.26250 -0.50800
O 	O 	0.24890 0.13390 0.21660 -0.50400
O 	O 	0.03270 0.16590 0.19861 -0.52500
O 	O 	0.37400 0.25060 0.31856 -0.44800
O 	O 	0.49370 0.21180 0.23000 -0.35300
N 	N 	0.82030 0.45720 0.57090 -0.12800
N 	N 	0.10900 0.90290 0.99160 -0.08800
N 	N 	0.90500 0.11090 0.02070 -0.05700
N 	N 	0.25390 0.62910 0.28690 -0.13000
N 	N 	0.93140 0.12160 0.46590 -0.09800
N 	N 	0.04820 0.90290 0.55900 -0.11100
C 	C 	0.12990 0.45850 0.13480 0.42900
C 	C 	0.12460 0.57090 0.09459 -0.18900
C 	C 	0.19880 0.62630 0.11360 0.10500
H 	H 	0.25650 0.58990 0.15220 0.00800
C 	C 	0.19240 0.73240 0.07890 -0.18100
H 	H 	0.25400 0.76200 0.08700 0.09400
C 	C 	0.10200 0.78810 0.01580 0.06700
C 	C 	0.03550 0.73140 0.00190 -0.18000
H 	H 	0.97700 0.76800 0.96400 0.07200
C 	C 	0.04280 0.62560 0.03700 0.09600
H 	H 	0.99140 0.58900 0.02200 -0.00000
C 	C 	0.13260 0.98170 0.02980 -0.07600
H 	H 	0.20470 0.93740 0.06380 0.03400
H 	H 	0.16310 0.03750 0.99680 0.03400
C 	C 	0.02400 0.03750 0.06260 -0.10300
H 	H 	0.04990 0.08450 0.08730 0.04400
H 	H 	0.99870 0.98090 0.09760 0.03600
C 	C 	0.82730 0.04770 0.99940 0.08200
H 	H 	0.82670 0.98450 0.03810 -0.00500
H 	H 	0.73420 0.09920 0.99030 -0.00300
C 	C 	0.87990 0.00150 0.93730 -0.04400
H 	H 	0.83890 0.06110 0.89650 0.03000
H 	H 	0.84810 0.93830 0.93850 0.03100
C 	C 	0.03430 0.95750 0.92570 0.08900
H 	H 	0.05670 0.90240 0.89600 -0.00300
H 	H 	0.06200 0.02160 0.90180 -0.01000
C 	C 	0.88600 0.20640 0.97230 0.06100
C 	C 	0.97800 0.35030 0.31220 0.41000
C 	C 	0.93530 0.37800 0.37950 -0.18200
C 	C 	0.02770 0.34440 0.43260 0.10600
H 	H 	0.11800 0.30260 0.42530 0.00500
C 	C 	0.99020 0.37080 0.49480 -0.18800
H 	H 	0.05560 0.34800 0.52960 0.09200
C 	C 	0.85710 0.43080 0.50870 0.15400
C 	C 	0.76460 0.46220 0.45540 -0.18700
H 	H 	0.67370 0.50210 0.46300 0.08600
C 	C 	0.80260 0.43650 0.39240 0.10200
H 	H 	0.73780 0.45870 0.35730 0.00200
C 	C 	0.91540 0.40640 0.62760 -0.05200
H 	H 	0.98310 0.44320 0.61990 0.04800
H 	H 	0.96160 0.32560 0.62720 0.04500
C 	C 	0.69460 0.54230 0.57990 -0.01600
H 	H 	0.65880 0.58880 0.53430 0.03000
H 	H 	0.70940 0.59250 0.60630 0.05000
C 	C 	0.59000 0.49340 0.61750 -0.13200
H 	H 	0.50050 0.55180 0.60880 0.06200
H 	H 	0.59180 0.42880 0.59880 0.06700
C 	C 	0.15210 0.10160 0.21570 0.41600
C 	C 	0.17660 0.97910 0.23560 -0.19500
C 	C 	0.30290 0.90300 0.25160 0.10600
H 	H 	0.37400 0.93080 0.24950 0.00400
C 	C 	0.33050 0.78850 0.27040 -0.19100
H 	H 	0.41920 0.73950 0.28160 0.09000
C 	C 	0.22920 0.74270 0.27340 0.15800
C 	C 	0.10020 0.82030 0.25840 -0.18500
H 	H 	0.02810 0.79350 0.26100 0.09000
C 	C 	0.07550 0.93660 0.23940 0.09900
H 	H 	0.98710 0.98720 0.22900 0.00000
C 	C 	0.38510 0.54530 0.30640 -0.00900
H 	H 	0.45310 0.57760 0.28510 0.02700
H 	H 	0.39640 0.47880 0.28730 0.03900
C 	C 	0.14510 0.58510 0.30190 -0.04100
H 	H 	0.17840 0.50490 0.29870 0.04500
H 	H 	0.07480 0.62720 0.26660 0.03900
C 	C 	0.48420 0.21980 0.29080 0.35300
C 	C 	0.60450 0.19490 0.33300 -0.15500
C 	C 	0.73220 0.16100 0.30680 0.07500
H 	H 	0.74630 0.15110 0.26090 0.00300
C 	C 	0.84320 0.14090 0.34980 -0.18800
H 	H 	0.92450 0.10500 0.33100 0.09200
C 	C 	0.82400 0.14290 0.42500 0.09800
C 	C 	0.70390 0.17820 0.43830 -0.19500
H 	H 	0.68480 0.18920 0.48380 0.09000
C 	C 	0.59340 0.20410 0.39880 0.10000
H 	H 	0.50760 0.22890 0.41840 0.00600
C 	C 	0.06560 0.07930 0.44450 0.22400
H 	H 	0.12490 0.07910 0.47990 -0.03700
H 	H 	0.07850 0.13020 0.40140 -0.01900
C 	C 	0.10360 0.96220 0.43290 -0.17200
H 	H 	0.20150 0.92980 0.42920 0.07200
H 	H 	0.06470 0.96600 0.38890 0.07200
C 	C 	0.05500 0.88150 0.49250 0.01800
H 	H 	0.96560 0.88630 0.48010 0.02000
H 	H 	0.11550 0.80300 0.49450 0.02500
C 	C 	0.92300 0.97650 0.57290 -0.10800
H 	H 	0.90880 0.96480 0.62310 0.04800
H 	H 	0.85290 0.96090 0.55220 0.00300
C 	C 	0.91450 0.10320 0.54200 0.06400
H 	H 	0.82730 0.15570 0.55310 -0.00300
H 	H 	0.98490 0.11850 0.56260 -0.00300
C 	C 	0.16550 0.86620 0.59220 0.08000
Zn	Zn	0.74801 0.73436 0.75375 1.23100
Zn	Zn	0.04241 0.67192 0.81820 1.19200
O 	O 	0.78590 0.58840 0.81769 -0.50800
O 	O 	0.95180 0.58240 0.88032 -0.53200
O 	O 	0.90470 0.71610 0.69280 -0.50900
O 	O 	0.10370 0.60860 0.73750 -0.50800
O 	O 	0.75110 0.86610 0.78340 -0.50400
O 	O 	0.96730 0.83410 0.80139 -0.52500
O 	O 	0.62600 0.74940 0.68144 -0.44800
O 	O 	0.50630 0.78820 0.77000 -0.35300
N 	N 	0.17970 0.54280 0.42910 -0.12800
N 	N 	0.89100 0.09710 0.00840 -0.08800
N 	N 	0.09500 0.88910 0.97930 -0.05700
N 	N 	0.74610 0.37090 0.71310 -0.13000
N 	N 	0.06860 0.87840 0.53410 -0.09800
N 	N 	0.95180 0.09710 0.44100 -0.11100
C 	C 	0.87010 0.54150 0.86520 0.42900
C 	C 	0.87540 0.42910 0.90541 -0.18900
C 	C 	0.80120 0.37370 0.88640 0.10500
H 	H 	0.74350 0.41010 0.84780 0.00800
C 	C 	0.80760 0.26760 0.92110 -0.18100
H 	H 	0.74600 0.23800 0.91300 0.09400
C 	C 	0.89800 0.21190 0.98420 0.06700
C 	C 	0.96450 0.26860 0.99810 -0.18000
H 	H 	0.02300 0.23200 0.03600 0.07200
C 	C 	0.95720 0.37440 0.96300 0.09600
H 	H 	0.00860 0.41100 0.97800 -0.00000
C 	C 	0.86740 0.01830 0.97020 -0.07600
H 	H 	0.79530 0.06260 0.93620 0.03400
H 	H 	0.83690 0.96250 0.00320 0.03400
C 	C 	0.97600 0.96250 0.93740 -0.10300
H 	H 	0.95010 0.91550 0.91270 0.04400
H 	H 	0.00130 0.01910 0.90240 0.03600
C 	C 	0.17270 0.95230 0.00060 0.08200
H 	H 	0.17330 0.01550 0.96190 -0.00500
H 	H 	0.26580 0.90080 0.00970 -0.00300
C 	C 	0.12010 0.99850 0.06270 -0.04400
H 	H 	0.16110 0.93890 0.10350 0.03000
H 	H 	0.15190 0.06170 0.06150 0.03100
C 	C 	0.96570 0.04250 0.07430 0.08900
H 	H 	0.94330 0.09760 0.10400 -0.00300
H 	H 	0.93800 0.97840 0.09820 -0.01000
C 	C 	0.11400 0.79360 0.02770 0.06100
C 	C 	0.02200 0.64970 0.68780 0.41000
C 	C 	0.06470 0.62200 0.62050 -0.18200
C 	C 	0.97230 0.65560 0.56740 0.10600
H 	H 	0.88200 0.69740 0.57470 0.00500
C 	C 	0.00980 0.62920 0.50520 -0.18800
H 	H 	0.94440 0.65200 0.47040 0.09200
C 	C 	0.14290 0.56920 0.49130 0.15400
C 	C 	0.23540 0.53780 0.54460 -0.18700
H 	H 	0.32630 0.49790 0.53700 0.08600
C 	C 	0.19740 0.56350 0.60760 0.10200
H 	H 	0.26220 0.54130 0.64270 0.00200
C 	C 	0.08460 0.59360 0.37240 -0.05200
H 	H 	0.01690 0.55680 0.38010 0.04800
H 	H 	0.03840 0.67440 0.37280 0.04500
C 	C 	0.30540 0.45770 0.42010 -0.01600
H 	H 	0.34120 0.41120 0.46570 0.03000
H 	H 	0.29060 0.40750 0.39370 0.05000
C 	C 	0.41000 0.50660 0.38250 -0.13200
H 	H 	0.49950 0.44820 0.39120 0.06200
H 	H 	0.40820 0.57120 0.40120 0.06700
C 	C 	0.84790 0.89840 0.78430 0.41600
C 	C 	0.82340 0.02090 0.76440 -0.19500
C 	C 	0.69710 0.09700 0.74840 0.10600
H 	H 	0.62600 0.06920 0.75050 0.00400
C 	C 	0.66950 0.21150 0.72960 -0.19100
H 	H 	0.58080 0.26050 0.71840 0.09000
C 	C 	0.77080 0.25730 0.72660 0.15800
C 	C 	0.89980 0.17970 0.74160 -0.18500
H 	H 	0.97190 0.20650 0.73900 0.09000
C 	C 	0.92450 0.06340 0.76060 0.09900
H 	H 	0.01290 0.01280 0.77100 0.00000
C 	C 	0.61490 0.45470 0.69360 -0.00900
H 	H 	0.54690 0.42240 0.71490 0.02700
H 	H 	0.60360 0.52120 0.71270 0.03900
C 	C 	0.85490 0.41490 0.69810 -0.04100
H 	H 	0.82160 0.49510 0.70130 0.04500
H 	H 	0.92520 0.37280 0.73340 0.03900
C 	C 	0.51580 0.78020 0.70920 0.35300
C 	C 	0.39550 0.80510 0.66700 -0.15500
C 	C 	0.26780 0.83900 0.69320 0.07500
H 	H 	0.25370 0.84890 0.73910 0.00300
C 	C 	0.15680 0.85910 0.65020 -0.18800
H 	H 	0.07550 0.89500 0.66900 0.09200
C 	C 	0.17600 0.85710 0.57500 0.09800
C 	C 	0.29610 0.82180 0.56170 -0.19500
H 	H 	0.31520 0.81080 0.51620 0.09000
C 	C 	0.40660 0.79590 0.60120 0.10000
H 	H 	0.49240 0.77110 0.58160 0.00600
C 	C 	0.93440 0.92070 0.55550 0.22400
H 	H 	0.87510 0.92090 0.52010 -0.03700
H 	H 	0.92150 0.86980 0.59860 -0.01900
C 	C 	0.89640 0.03780 0.56710 -0.17200
H 	H 	0.79850 0.07020 0.57080 0.07200
H 	H 	0.93530 0.03400 0.61110 0.07200
C 	C 	0.94500 0.11850 0.50750 0.01800
H 	H 	0.03440 0.11370 0.51990 0.02000
H 	H 	0.88450 0.19700 0.50550 0.02500
C 	C 	0.07700 0.02350 0.42710 -0.10800
H 	H 	0.09120 0.03520 0.37690 0.04800
H 	H 	0.14710 0.03910 0.44780 0.00300
C 	C 	0.08550 0.89680 0.45800 0.06400
H 	H 	0.17270 0.84430 0.44690 -0.00300
H 	H 	0.01510 0.88150 0.43740 -0.00300
C 	C 	0.83450 0.13380 0.40780 0.08000
