data_crystal

_cell_length_a 11.50810
_cell_length_b 11.42730
_cell_length_c 13.27280
_cell_angle_alpha 90.00000
_cell_angle_beta  91.88900
_cell_angle_gamma 90.00000

_symmetry_space_group_name_	'P 1'
_symmetry_space_group_name_H-M	'P 1'

loop_
_symmetry_equiv_pos_as_xyz
  x,y,z

loop_
_atom_site_label
_atom_site_type_symbol
_atom_site_fract_x
_atom_site_fract_y
_atom_site_fract_z
_atom_site_charge
U 	U 	0.51266 0.86579 0.77026 -0.00200
O 	O 	0.37360 0.71740 0.70949 -0.25600
O 	O 	0.49130 0.66620 0.83490 -0.22200
O 	O 	0.84560 0.31960 0.59124 -0.21400
O 	O 	0.83650 0.49340 0.65680 -0.21800
O 	O 	0.51050 0.06540 0.70120 -0.22100
O 	O 	0.39310 0.94210 0.62501 -0.25100
C 	C 	0.42950 0.44090 0.69000 0.41400
C 	C 	0.53130 0.47850 0.64440 -0.43900
H 	H 	0.56430 0.55230 0.66180 0.20700
C 	C 	0.58400 0.40750 0.57370 0.41200
C 	C 	0.53570 0.29930 0.54810 -0.44300
H 	H 	0.57150 0.25140 0.49950 0.21500
C 	C 	0.43430 0.26090 0.59390 0.42600
C 	C 	0.38250 0.33230 0.66400 -0.45700
H 	H 	0.31360 0.30660 0.69490 0.20600
C 	C 	0.36600 0.51610 0.76420 -0.55000
H 	H 	0.28240 0.51790 0.74450 0.20700
H 	H 	0.37360 0.48010 0.83200 0.21500
C 	C 	0.41130 0.63970 0.76980 0.40100
C 	C 	0.69500 0.44810 0.52480 -0.53500
H 	H 	0.70330 0.40810 0.45930 0.20800
H 	H 	0.69140 0.53350 0.51240 0.20100
C 	C 	0.79740 0.42000 0.59380 0.41500
C 	C 	0.38430 0.14200 0.56850 -0.55300
H 	H 	0.29880 0.14510 0.57440 0.20300
H 	H 	0.40070 0.12340 0.49750 0.21500
C 	C 	0.43170 0.04570 0.63470 0.41400
U 	U 	0.98734 0.36579 0.72974 -0.00200
O 	O 	0.12640 0.21740 0.79051 -0.25100
O 	O 	0.00870 0.16620 0.66510 -0.21600
O 	O 	0.65440 0.81960 0.90876 -0.20500
O 	O 	0.66350 0.99340 0.84320 -0.20900
O 	O 	0.98950 0.56540 0.79880 -0.21200
O 	O 	0.10690 0.44210 0.87499 -0.24800
C 	C 	0.07050 0.94090 0.81000 0.35800
C 	C 	0.96870 0.97850 0.85560 -0.36200
H 	H 	0.93570 0.05230 0.83820 0.17500
C 	C 	0.91600 0.90750 0.92630 0.35700
C 	C 	0.96430 0.79930 0.95190 -0.37700
H 	H 	0.92850 0.75140 0.00050 0.19000
C 	C 	0.06570 0.76090 0.90610 0.37900
C 	C 	0.11750 0.83230 0.83600 -0.41300
H 	H 	0.18640 0.80660 0.80510 0.19200
C 	C 	0.13400 0.01610 0.73580 -0.50700
H 	H 	0.21760 0.01790 0.75550 0.19600
H 	H 	0.12640 0.98010 0.66800 0.20000
C 	C 	0.08870 0.13970 0.73020 0.38900
C 	C 	0.80500 0.94810 0.97520 -0.46700
H 	H 	0.79670 0.90810 0.04070 0.18500
H 	H 	0.80860 0.03350 0.98760 0.17500
C 	C 	0.70260 0.92000 0.90620 0.39600
C 	C 	0.11570 0.64200 0.93150 -0.52900
H 	H 	0.20120 0.64510 0.92560 0.19600
H 	H 	0.09930 0.62340 0.00250 0.21000
C 	C 	0.06830 0.54570 0.86530 0.40000
U 	U 	0.48734 0.13421 0.22974 -0.00100
O 	O 	0.62640 0.28260 0.29051 -0.25500
O 	O 	0.50870 0.33380 0.16510 -0.22100
O 	O 	0.15440 0.68040 0.40876 -0.21300
O 	O 	0.16350 0.50660 0.34320 -0.21800
O 	O 	0.48950 0.93460 0.29880 -0.22100
O 	O 	0.60690 0.05790 0.37499 -0.25100
C 	C 	0.57050 0.55910 0.31000 0.41400
C 	C 	0.46870 0.52150 0.35560 -0.43900
H 	H 	0.43570 0.44770 0.33820 0.20700
C 	C 	0.41600 0.59250 0.42630 0.41200
C 	C 	0.46430 0.70070 0.45190 -0.44300
H 	H 	0.42850 0.74860 0.50050 0.21500
C 	C 	0.56570 0.73910 0.40610 0.42600
C 	C 	0.61750 0.66770 0.33600 -0.45700
H 	H 	0.68640 0.69340 0.30510 0.20600
C 	C 	0.63400 0.48390 0.23580 -0.55000
H 	H 	0.71760 0.48210 0.25550 0.20700
H 	H 	0.62640 0.51990 0.16800 0.21500
C 	C 	0.58870 0.36030 0.23020 0.40100
C 	C 	0.30500 0.55190 0.47520 -0.53500
H 	H 	0.29670 0.59190 0.54070 0.20800
H 	H 	0.30860 0.46650 0.48760 0.20100
C 	C 	0.20260 0.58000 0.40620 0.41500
C 	C 	0.61570 0.85800 0.43150 -0.55300
H 	H 	0.70120 0.85490 0.42560 0.20300
H 	H 	0.59930 0.87660 0.50250 0.21500
C 	C 	0.56830 0.95430 0.36530 0.41400
U 	U 	0.01266 0.63421 0.27026 -0.00200
O 	O 	0.87360 0.78260 0.20949 -0.25100
O 	O 	0.99130 0.83380 0.33490 -0.21600
O 	O 	0.34560 0.18040 0.09124 -0.20500
O 	O 	0.33650 0.00660 0.15680 -0.20900
O 	O 	0.01050 0.43460 0.20120 -0.21200
O 	O 	0.89310 0.55790 0.12501 -0.24800
C 	C 	0.92950 0.05910 0.19000 0.35800
C 	C 	0.03130 0.02150 0.14440 -0.36200
H 	H 	0.06430 0.94770 0.16180 0.17500
C 	C 	0.08400 0.09250 0.07370 0.35700
C 	C 	0.03570 0.20070 0.04810 -0.37700
H 	H 	0.07150 0.24860 0.99950 0.19000
C 	C 	0.93430 0.23910 0.09390 0.37900
C 	C 	0.88250 0.16770 0.16400 -0.41300
H 	H 	0.81360 0.19340 0.19490 0.19200
C 	C 	0.86600 0.98390 0.26420 -0.50700
H 	H 	0.78240 0.98210 0.24450 0.19600
H 	H 	0.87360 0.01990 0.33200 0.20000
C 	C 	0.91130 0.86030 0.26980 0.38900
C 	C 	0.19500 0.05190 0.02480 -0.46700
H 	H 	0.20330 0.09190 0.95930 0.18500
H 	H 	0.19140 0.96650 0.01240 0.17500
C 	C 	0.29740 0.08000 0.09380 0.39600
C 	C 	0.88430 0.35800 0.06850 -0.52900
H 	H 	0.79880 0.35490 0.07440 0.19600
H 	H 	0.90070 0.37660 0.99750 0.21000
C 	C 	0.93170 0.45430 0.13470 0.40000
