data_crystal

_cell_length_a 13.36900
_cell_length_b 16.12000
_cell_length_c 16.45900
_cell_angle_alpha 78.68400
_cell_angle_beta  83.29700
_cell_angle_gamma 72.57900

_symmetry_space_group_name_	'P 1'
_symmetry_space_group_name_H-M	'P 1'

loop_
_symmetry_equiv_pos_as_xyz
  x,y,z

loop_
_atom_site_label
_atom_site_type_symbol
_atom_site_fract_x
_atom_site_fract_y
_atom_site_fract_z
_atom_site_charge
Zn	Zn	0.80258 0.14682 0.15520 1.26200
C 	C 	0.18500 0.77670 0.01740 0.34000
C 	C 	0.20820 0.68520 0.00010 -0.17900
H 	H 	0.28170 0.65520 0.00910 0.09600
H 	H 	0.16690 0.65420 0.04020 0.09400
C 	C 	0.09450 0.66590 0.91550 0.15600
C 	C 	0.00100 0.71690 0.94800 -0.22700
H 	H 	0.00150 0.75860 0.97980 0.12700
C 	C 	0.90750 0.70520 0.93270 0.15700
C 	C 	0.90590 0.64300 0.88700 -0.01100
C 	C 	0.00110 0.59610 0.85550 -0.07500
H 	H 	0.00090 0.55490 0.82310 0.06300
C 	C 	0.09760 0.60540 0.86830 -0.01600
C 	C 	0.80860 0.82030 0.00260 -0.24600
H 	H 	0.73680 0.84920 0.01770 0.11900
H 	H 	0.84020 0.86260 0.96880 0.13900
H 	H 	0.84630 0.79470 0.05180 0.11200
C 	C 	0.80140 0.63070 0.86980 -0.11600
H 	H 	0.75870 0.68920 0.84520 0.08400
C 	C 	0.80350 0.57380 0.81390 0.13900
C 	C 	0.75410 0.60470 0.73780 -0.19000
H 	H 	0.72330 0.66520 0.72400 0.10000
C 	C 	0.74830 0.55560 0.68530 0.09800
H 	H 	0.71160 0.58080 0.63770 0.00400
C 	C 	0.79750 0.46480 0.70080 -0.16600
H 	H 	0.79760 0.42890 0.66290 0.08800
C 	C 	0.84650 0.43040 0.77540 0.09200
H 	H 	0.87640 0.36990 0.78930 0.00300
C 	C 	0.85090 0.48360 0.82730 -0.18800
H 	H 	0.88780 0.45860 0.87490 0.09500
C 	C 	0.16540 0.42430 0.78480 -0.16700
H 	H 	0.15510 0.39640 0.83890 0.09300
C 	C 	0.15290 0.38750 0.71830 0.07300
H 	H 	0.13430 0.33510 0.72790 0.00400
C 	C 	0.16830 0.42910 0.63740 -0.15200
H 	H 	0.16000 0.40450 0.59290 0.09000
C 	C 	0.19620 0.50740 0.62300 0.06500
H 	H 	0.20650 0.53520 0.56890 0.00000
C 	C 	0.20860 0.54420 0.68950 -0.16500
H 	H 	0.22720 0.59660 0.67990 0.08600
C 	C 	0.19320 0.50260 0.77040 0.12300
C 	C 	0.74210 0.60450 0.95290 -0.00300
C 	C 	0.79110 0.54680 0.01990 -0.06900
H 	H 	0.86420 0.52950 0.01740 0.06300
C 	C 	0.20220 0.54910 0.83800 -0.09900
H 	H 	0.24450 0.58920 0.81420 0.08400
C 	C 	0.26030 0.48660 0.91020 -0.00400
C 	C 	0.36960 0.45710 0.90690 0.15800
C 	C 	0.42090 0.40040 0.97200 -0.22200
H 	H 	0.49390 0.38180 0.96950 0.12000
C 	C 	0.36510 0.37100 0.04080 0.15800
C 	C 	0.53180 0.46450 0.83320 -0.20900
H 	H 	0.55790 0.49170 0.78120 0.10400
H 	H 	0.55830 0.40150 0.83820 0.10500
H 	H 	0.55460 0.48320 0.87800 0.09500
C 	C 	0.50590 0.31680 0.13060 -0.21800
H 	H 	0.49860 0.32100 0.18910 0.11700
H 	H 	0.51960 0.37060 0.10000 0.10700
C 	C 	0.59730 0.24200 0.11660 0.40400
C 	C 	0.97690 0.14260 0.23190 0.42400
C 	C 	0.02550 0.17650 0.29030 -0.22500
H 	H 	0.03940 0.23130 0.26310 0.11200
H 	H 	0.97710 0.18840 0.33810 0.11400
C 	C 	0.17040 0.14110 0.37260 0.15400
C 	C 	0.13690 0.21940 0.39660 -0.23100
H 	H 	0.07610 0.25960 0.37540 0.11400
C 	C 	0.18810 0.24270 0.45090 0.16500
C 	C 	0.28130 0.18120 0.48290 0.01100
C 	C 	0.31230 0.10280 0.45740 -0.08800
H 	H 	0.37410 0.06300 0.47730 0.07100
C 	C 	0.26020 0.07580 0.40400 0.01200
C 	C 	0.06250 0.38580 0.44650 -0.19900
H 	H 	0.05110 0.43820 0.47000 0.09100
H 	H 	0.00400 0.36210 0.46250 0.09200
H 	H 	0.06960 0.40010 0.38710 0.09600
C 	C 	0.34310 0.21130 0.53770 -0.14500
H 	H 	0.29120 0.24790 0.57300 0.09000
C 	C 	0.46260 0.24620 0.41280 -0.21800
H 	H 	0.46230 0.19570 0.39350 0.11100
C 	C 	0.40180 0.26880 0.48670 0.18500
C 	C 	0.40980 0.34070 0.51130 -0.25400
H 	H 	0.37230 0.35470 0.56040 0.12100
C 	C 	0.46540 0.39410 0.47330 0.16600
H 	H 	0.46390 0.44510 0.49230 -0.03100
C 	C 	0.52520 0.36940 0.40410 -0.21800
H 	H 	0.57070 0.40180 0.37860 0.10800
C 	C 	0.52110 0.29910 0.37060 0.13500
H 	H 	0.55730 0.28770 0.32030 -0.01000
C 	C 	0.29740 0.98830 0.37970 -0.11400
H 	H 	0.26620 0.99470 0.32700 0.09800
C 	C 	0.23450 0.77190 0.45720 0.06400
H 	H 	0.23220 0.72330 0.43580 0.00800
C 	C 	0.26030 0.84240 0.40490 -0.15700
H 	H 	0.27540 0.84090 0.34850 0.09900
C 	C 	0.26370 0.91500 0.43700 0.12400
C 	C 	0.24120 0.91720 0.52120 -0.15300
H 	H 	0.24350 0.96590 0.54270 0.10100
C 	C 	0.21540 0.84680 0.57350 0.05800
H 	H 	0.20040 0.84820 0.62990 0.02700
C 	C 	0.21200 0.77410 0.54150 -0.12600
H 	H 	0.19470 0.72700 0.57640 0.07000
C 	C 	0.41830 0.95750 0.36050 0.00500
C 	C 	0.48230 0.89390 0.41670 -0.09600
H 	H 	0.45090 0.86990 0.46540 0.07500
C 	C 	0.58960 0.86450 0.40430 0.02500
C 	C 	0.63120 0.90330 0.33070 0.09700
C 	C 	0.57100 0.96540 0.27310 -0.16600
H 	H 	0.60090 0.98940 0.22360 0.09500
C 	C 	0.46310 0.99120 0.29160 0.12700
C 	C 	0.41920 0.12310 0.19240 -0.21200
H 	H 	0.36560 0.15540 0.15480 0.11100
H 	H 	0.48580 0.10730 0.16180 0.02000
H 	H 	0.42250 0.15920 0.23150 0.11100
C 	C 	0.44690 0.07910 0.15250 0.07300
H 	H 	0.39410 0.11790 0.11690 0.00700
H 	H 	0.48430 0.02890 0.12710 0.01500
H 	H 	0.49510 0.10990 0.16110 0.04300
C 	C 	0.77920 0.88970 0.23530 -0.59200
H 	H 	0.73050 0.88050 0.20100 0.20900
H 	H 	0.84480 0.84400 0.22930 0.22200
C 	C 	0.79920 0.97320 0.19810 0.95500
O 	O 	0.39630 0.04920 0.23360 -0.17300
O 	O 	0.74110 0.87320 0.31650 -0.06800
O 	O 	0.84220 0.97270 0.12730 -0.44500
O 	O 	0.78880 0.02680 0.21910 -0.76500
O 	O 	0.19600 0.78560 0.08780 -0.24000
O 	O 	0.14860 0.84450 0.95990 -0.39800
O 	O 	0.18980 0.67870 0.92560 -0.20500
O 	O 	0.81200 0.75540 0.95880 -0.16300
O 	O 	0.42090 0.48940 0.83640 -0.18100
O 	O 	0.41270 0.31230 0.10780 -0.17000
O 	O 	0.60070 0.20530 0.05760 -0.29800
O 	O 	0.66310 0.22450 0.16930 -0.46200
O 	O 	0.88180 0.17960 0.22690 -0.46900
O 	O 	0.02980 0.08550 0.19400 -0.28500
O 	O 	0.12080 0.11420 0.31700 -0.15300
O 	O 	0.15790 0.32090 0.47670 -0.19400
Zn	Zn	0.19742 0.85318 0.84480 1.26100
C 	C 	0.81500 0.22330 0.98260 0.33900
C 	C 	0.79180 0.31480 0.99990 -0.18000
H 	H 	0.71830 0.34480 0.99090 0.09500
H 	H 	0.83310 0.34580 0.95980 0.09400
C 	C 	0.90550 0.33410 0.08450 0.15600
C 	C 	0.99900 0.28310 0.05200 -0.22700
H 	H 	0.99850 0.24140 0.02020 0.12700
C 	C 	0.09250 0.29480 0.06730 0.15700
C 	C 	0.09410 0.35700 0.11300 -0.01100
C 	C 	0.99890 0.40390 0.14450 -0.07500
H 	H 	0.99910 0.44510 0.17690 0.06300
C 	C 	0.90240 0.39460 0.13170 -0.01600
C 	C 	0.19140 0.17970 0.99740 -0.24600
H 	H 	0.26320 0.15080 0.98230 0.11900
H 	H 	0.15980 0.13740 0.03120 0.13900
H 	H 	0.15370 0.20530 0.94820 0.11200
C 	C 	0.19860 0.36930 0.13020 -0.11600
H 	H 	0.24130 0.31080 0.15480 0.08400
C 	C 	0.19650 0.42620 0.18610 0.13900
C 	C 	0.24590 0.39530 0.26220 -0.19000
H 	H 	0.27670 0.33480 0.27600 0.10000
C 	C 	0.25170 0.44440 0.31470 0.09800
H 	H 	0.28840 0.41920 0.36230 0.00400
C 	C 	0.20250 0.53520 0.29920 -0.16600
H 	H 	0.20240 0.57110 0.33710 0.08800
C 	C 	0.15350 0.56960 0.22460 0.09200
H 	H 	0.12360 0.63010 0.21070 0.00300
C 	C 	0.14910 0.51640 0.17270 -0.18800
H 	H 	0.11220 0.54140 0.12510 0.09500
C 	C 	0.83460 0.57570 0.21520 -0.16700
H 	H 	0.84490 0.60360 0.16110 0.09300
C 	C 	0.84710 0.61250 0.28170 0.07300
H 	H 	0.86570 0.66490 0.27210 0.00400
C 	C 	0.83170 0.57090 0.36260 -0.15200
H 	H 	0.84000 0.59550 0.40710 0.09000
C 	C 	0.80380 0.49260 0.37700 0.06500
H 	H 	0.79350 0.46480 0.43110 0.00000
C 	C 	0.79140 0.45580 0.31050 -0.16500
H 	H 	0.77280 0.40340 0.32010 0.08600
C 	C 	0.80680 0.49740 0.22960 0.12300
C 	C 	0.25790 0.39550 0.04710 -0.00300
C 	C 	0.20890 0.45320 0.98010 -0.06900
H 	H 	0.13580 0.47050 0.98260 0.06300
C 	C 	0.79780 0.45090 0.16200 -0.09900
H 	H 	0.75550 0.41080 0.18580 0.08400
C 	C 	0.73970 0.51340 0.08980 -0.00400
C 	C 	0.63040 0.54290 0.09310 0.15800
C 	C 	0.57910 0.59960 0.02800 -0.22200
H 	H 	0.50610 0.61820 0.03050 0.12000
C 	C 	0.63490 0.62900 0.95920 0.15800
C 	C 	0.46820 0.53550 0.16680 -0.20900
H 	H 	0.44210 0.50830 0.21880 0.10400
H 	H 	0.44170 0.59850 0.16180 0.10500
H 	H 	0.44540 0.51680 0.12200 0.09500
C 	C 	0.49410 0.68320 0.86940 -0.21800
H 	H 	0.50140 0.67900 0.81090 0.11700
H 	H 	0.48040 0.62940 0.90000 0.10700
C 	C 	0.40270 0.75800 0.88340 0.40400
C 	C 	0.02310 0.85740 0.76810 0.42400
C 	C 	0.97450 0.82350 0.70970 -0.22500
H 	H 	0.96060 0.76870 0.73690 0.11200
H 	H 	0.02290 0.81160 0.66190 0.11400
C 	C 	0.82960 0.85890 0.62740 0.15400
C 	C 	0.86310 0.78060 0.60340 -0.23100
H 	H 	0.92390 0.74040 0.62460 0.11400
C 	C 	0.81190 0.75730 0.54910 0.16500
C 	C 	0.71870 0.81880 0.51710 0.01100
C 	C 	0.68770 0.89720 0.54260 -0.08800
H 	H 	0.62590 0.93700 0.52270 0.07100
C 	C 	0.73980 0.92420 0.59600 0.01200
C 	C 	0.93750 0.61420 0.55350 -0.19900
H 	H 	0.94890 0.56180 0.53000 0.09100
H 	H 	0.99600 0.63790 0.53750 0.09200
H 	H 	0.93040 0.59990 0.61290 0.09600
C 	C 	0.65690 0.78870 0.46230 -0.14500
H 	H 	0.70880 0.75210 0.42700 0.09000
C 	C 	0.53740 0.75380 0.58720 -0.21800
H 	H 	0.53770 0.80430 0.60650 0.11100
C 	C 	0.59820 0.73120 0.51330 0.18500
C 	C 	0.59020 0.65930 0.48870 -0.25400
H 	H 	0.62770 0.64530 0.43960 0.12100
C 	C 	0.53460 0.60590 0.52670 0.16600
H 	H 	0.53610 0.55490 0.50770 -0.03100
C 	C 	0.47480 0.63060 0.59590 -0.21800
H 	H 	0.42930 0.59820 0.62140 0.10800
C 	C 	0.47890 0.70090 0.62940 0.13500
H 	H 	0.44270 0.71230 0.67970 -0.01000
C 	C 	0.70260 0.01170 0.62030 -0.11400
H 	H 	0.73380 0.00530 0.67300 0.09800
C 	C 	0.76550 0.22810 0.54280 0.06400
H 	H 	0.76780 0.27670 0.56420 0.00800
C 	C 	0.73970 0.15760 0.59510 -0.15700
H 	H 	0.72460 0.15910 0.65150 0.09900
C 	C 	0.73630 0.08500 0.56300 0.12400
C 	C 	0.75880 0.08280 0.47880 -0.15300
H 	H 	0.75650 0.03410 0.45730 0.10100
C 	C 	0.78460 0.15320 0.42650 0.05800
H 	H 	0.79960 0.15180 0.37010 0.02700
C 	C 	0.78800 0.22590 0.45850 -0.12600
H 	H 	0.80530 0.27300 0.42360 0.07000
C 	C 	0.58170 0.04250 0.63950 0.00500
C 	C 	0.51770 0.10610 0.58330 -0.09600
H 	H 	0.54910 0.13010 0.53460 0.07500
C 	C 	0.41040 0.13550 0.59570 0.02500
C 	C 	0.36880 0.09670 0.66930 0.09700
C 	C 	0.42900 0.03460 0.72690 -0.16600
H 	H 	0.39910 0.01060 0.77640 0.09500
C 	C 	0.53690 0.00880 0.70840 0.12700
C 	C 	0.58080 0.87690 0.80760 -0.21200
H 	H 	0.63440 0.84460 0.84520 0.11100
H 	H 	0.51420 0.89270 0.83820 0.02000
H 	H 	0.57750 0.84080 0.76850 0.11100
C 	C 	0.55310 0.92090 0.84750 0.07300
H 	H 	0.60590 0.88210 0.88310 0.00700
H 	H 	0.51570 0.97110 0.87290 0.01500
H 	H 	0.50490 0.89010 0.83890 0.04300
C 	C 	0.22080 0.11030 0.76470 -0.59200
H 	H 	0.26950 0.11950 0.79900 0.20900
H 	H 	0.15520 0.15600 0.77070 0.22200
C 	C 	0.20080 0.02680 0.80190 0.95500
O 	O 	0.60370 0.95080 0.76640 -0.17300
O 	O 	0.25890 0.12680 0.68350 -0.06800
O 	O 	0.15780 0.02730 0.87270 -0.44500
O 	O 	0.21120 0.97320 0.78090 -0.76500
O 	O 	0.80400 0.21440 0.91220 -0.24000
O 	O 	0.85140 0.15550 0.04010 -0.39800
O 	O 	0.81020 0.32130 0.07440 -0.20500
O 	O 	0.18800 0.24460 0.04120 -0.16300
O 	O 	0.57910 0.51060 0.16360 -0.18100
O 	O 	0.58730 0.68770 0.89220 -0.17000
O 	O 	0.39930 0.79470 0.94240 -0.29800
O 	O 	0.33690 0.77550 0.83070 -0.46200
O 	O 	0.11820 0.82040 0.77310 -0.46900
O 	O 	0.97020 0.91450 0.80600 -0.28500
O 	O 	0.87920 0.88580 0.68300 -0.15300
O 	O 	0.84210 0.67910 0.52330 -0.19400
