data_crystal

_cell_length_a 35.42470
_cell_length_b 13.94020
_cell_length_c 9.45160
_cell_angle_alpha 90.00000
_cell_angle_beta  101.69300
_cell_angle_gamma 90.00000

_symmetry_space_group_name_	'P 1'
_symmetry_space_group_name_H-M	'P 1'

loop_
_symmetry_equiv_pos_as_xyz
  x,y,z

loop_
_atom_site_label
_atom_site_type_symbol
_atom_site_fract_x
_atom_site_fract_y
_atom_site_fract_z
_atom_site_charge
Ni	Ni	0.86393 0.29425 0.16184 1.05700
O 	O 	0.83504 0.17700 0.21590 -0.42200
O 	O 	0.82037 0.37820 0.21470 -0.42600
O 	O 	0.85215 0.44300 0.42040 -0.32700
O 	O 	0.86800 0.14060 0.43480 -0.31000
N 	N 	0.83261 0.28330 0.95170 -0.25500
N 	N 	0.90700 0.20700 0.10650 -0.27000
C 	C 	0.77403 0.24570 0.78770 -0.21100
H 	H 	0.74860 0.22490 0.77350 0.11500
C 	C 	0.78796 0.49010 0.33470 -0.23200
H 	H 	0.78930 0.52750 0.41700 0.12200
C 	C 	0.79092 0.26720 0.67000 0.16200
C 	C 	0.77756 0.04870 0.24780 0.02100
H 	H 	0.77620 0.08090 0.16070 0.03800
C 	C 	0.79593 0.25580 0.92530 0.12600
H 	H 	0.78450 0.24270 0.00340 -0.01000
C 	C 	0.80973 0.05990 0.34730 -0.23000
H 	H 	0.81340 0.02200 0.42990 0.12200
C 	C 	0.75560 0.49120 0.23810 0.03000
H 	H 	0.75380 0.45320 0.15620 0.03100
C 	C 	0.84000 0.13060 0.33140 0.38700
C 	C 	0.84842 0.30310 0.83820 0.13000
H 	H 	0.87410 0.32250 0.85540 -0.03600
C 	C 	0.82283 0.43290 0.32180 0.37800
C 	C 	0.82890 0.29630 0.69820 -0.21700
H 	H 	0.84110 0.31110 0.62270 0.11800
C 	C 	0.94264 0.23730 0.11190 0.11700
H 	H 	0.94920 0.29890 0.14580 -0.05100
C 	C 	0.89883 0.11800 0.06010 0.13500
H 	H 	0.87420 0.09460 0.05920 -0.01600
C 	C 	0.92450 0.05910 0.01370 -0.22600
H 	H 	0.91730 0.99720 0.98310 0.12300
C 	C 	0.76840 0.26510 0.51490 -0.16700
H 	H 	0.76870 0.32960 0.47680 0.08500
H 	H 	0.78270 0.22500 0.46030 0.08500
C 	C 	0.97052 0.18150 0.06950 -0.21400
H 	H 	0.99560 0.20430 0.07940 0.09600
C 	C 	0.96090 0.09140 0.01220 0.15500
C 	C 	0.99050 0.03110 0.94430 -0.16400
H 	H 	0.97710 0.99420 0.86230 0.07700
H 	H 	0.00890 0.07300 0.91210 0.07500
Ni	Ni	0.36393 0.79425 0.16184 1.05600
O 	O 	0.33504 0.67700 0.21590 -0.42300
O 	O 	0.32037 0.87820 0.21470 -0.42500
O 	O 	0.35215 0.94300 0.42040 -0.32700
O 	O 	0.36800 0.64060 0.43480 -0.31000
N 	N 	0.33261 0.78330 0.95170 -0.25500
N 	N 	0.40700 0.70700 0.10650 -0.27000
C 	C 	0.27403 0.74570 0.78770 -0.20900
H 	H 	0.24860 0.72490 0.77350 0.11400
C 	C 	0.28796 0.99010 0.33470 -0.23200
H 	H 	0.28930 0.02750 0.41700 0.12100
C 	C 	0.29092 0.76720 0.67000 0.16000
C 	C 	0.27756 0.54870 0.24780 0.02100
H 	H 	0.27620 0.58090 0.16070 0.03800
C 	C 	0.29593 0.75580 0.92530 0.12300
H 	H 	0.28450 0.74270 0.00340 -0.00800
C 	C 	0.30973 0.55990 0.34730 -0.22900
H 	H 	0.31340 0.52200 0.42990 0.12200
C 	C 	0.25560 0.99120 0.23810 0.03000
H 	H 	0.25380 0.95320 0.15620 0.03100
C 	C 	0.34000 0.63060 0.33140 0.38700
C 	C 	0.34842 0.80310 0.83820 0.13000
H 	H 	0.37410 0.82250 0.85540 -0.03600
C 	C 	0.32283 0.93290 0.32180 0.37800
C 	C 	0.32890 0.79630 0.69820 -0.21600
H 	H 	0.34110 0.81110 0.62270 0.11700
C 	C 	0.44264 0.73730 0.11190 0.11800
H 	H 	0.44920 0.79890 0.14580 -0.05100
C 	C 	0.39883 0.61800 0.06010 0.13500
H 	H 	0.37420 0.59460 0.05920 -0.01600
C 	C 	0.42450 0.55910 0.01370 -0.22700
H 	H 	0.41730 0.49720 0.98310 0.12300
C 	C 	0.26840 0.76510 0.51490 -0.16500
H 	H 	0.26870 0.82960 0.47680 0.08400
H 	H 	0.28270 0.72500 0.46030 0.08500
C 	C 	0.47052 0.68150 0.06950 -0.21500
H 	H 	0.49560 0.70430 0.07940 0.09700
C 	C 	0.46090 0.59140 0.01220 0.15700
C 	C 	0.49050 0.53110 0.94430 -0.16600
H 	H 	0.47710 0.49420 0.86230 0.07800
H 	H 	0.50890 0.57300 0.91210 0.07500
Ni	Ni	0.13607 0.29425 0.33816 1.05600
O 	O 	0.16496 0.17700 0.28410 -0.42300
O 	O 	0.17963 0.37820 0.28530 -0.42600
O 	O 	0.14785 0.44300 0.07960 -0.32700
O 	O 	0.13200 0.14060 0.06520 -0.31000
N 	N 	0.16739 0.28330 0.54830 -0.25400
N 	N 	0.09300 0.20700 0.39350 -0.27000
C 	C 	0.22597 0.24570 0.71230 -0.20800
H 	H 	0.25140 0.22490 0.72650 0.11400
C 	C 	0.21204 0.49010 0.16530 -0.23200
H 	H 	0.21070 0.52750 0.08300 0.12200
C 	C 	0.20908 0.26720 0.83000 0.15700
C 	C 	0.22244 0.04870 0.25220 0.02000
H 	H 	0.22380 0.08090 0.33930 0.03800
C 	C 	0.20407 0.25580 0.57470 0.12400
H 	H 	0.21550 0.24270 0.49660 -0.00900
C 	C 	0.19027 0.05990 0.15270 -0.22900
H 	H 	0.18660 0.02200 0.07010 0.12200
C 	C 	0.24440 0.49120 0.26190 0.03000
H 	H 	0.24620 0.45320 0.34380 0.03200
C 	C 	0.16000 0.13060 0.16860 0.38700
C 	C 	0.15158 0.30310 0.66180 0.12900
H 	H 	0.12590 0.32250 0.64460 -0.03600
C 	C 	0.17717 0.43290 0.17820 0.37800
C 	C 	0.17110 0.29630 0.80180 -0.21400
H 	H 	0.15890 0.31110 0.87730 0.11700
C 	C 	0.05736 0.23730 0.38810 0.11800
H 	H 	0.05080 0.29890 0.35420 -0.05100
C 	C 	0.10117 0.11800 0.43990 0.13500
H 	H 	0.12580 0.09460 0.44080 -0.01600
C 	C 	0.07550 0.05910 0.48630 -0.22700
H 	H 	0.08270 0.99720 0.51690 0.12300
C 	C 	0.23160 0.26510 0.98510 -0.15800
H 	H 	0.23130 0.32960 0.02320 0.08200
H 	H 	0.21730 0.22500 0.03970 0.08300
C 	C 	0.02948 0.18150 0.43050 -0.21500
H 	H 	0.00440 0.20430 0.42060 0.09700
C 	C 	0.03910 0.09140 0.48780 0.15700
C 	C 	0.00950 0.03110 0.55570 -0.16600
H 	H 	0.02290 0.99420 0.63770 0.07800
H 	H 	0.99110 0.07300 0.58790 0.07500
Ni	Ni	0.63607 0.79425 0.33816 1.05600
O 	O 	0.66496 0.67700 0.28410 -0.42300
O 	O 	0.67963 0.87820 0.28530 -0.42600
O 	O 	0.64785 0.94300 0.07960 -0.32700
O 	O 	0.63200 0.64060 0.06520 -0.31000
N 	N 	0.66739 0.78330 0.54830 -0.25500
N 	N 	0.59300 0.70700 0.39350 -0.27000
C 	C 	0.72597 0.74570 0.71230 -0.21200
H 	H 	0.75140 0.72490 0.72650 0.11600
C 	C 	0.71204 0.99010 0.16530 -0.23100
H 	H 	0.71070 0.02750 0.08300 0.12100
C 	C 	0.70908 0.76720 0.83000 0.16400
C 	C 	0.72244 0.54870 0.25220 0.02100
H 	H 	0.72380 0.58090 0.33930 0.03800
C 	C 	0.70407 0.75580 0.57470 0.12600
H 	H 	0.71550 0.74270 0.49660 -0.01000
C 	C 	0.69027 0.55990 0.15270 -0.23000
H 	H 	0.68660 0.52200 0.07010 0.12200
C 	C 	0.74440 0.99120 0.26190 0.02900
H 	H 	0.74620 0.95320 0.34380 0.03200
C 	C 	0.66000 0.63060 0.16860 0.38700
C 	C 	0.65158 0.80310 0.66180 0.13100
H 	H 	0.62590 0.82250 0.64460 -0.03700
C 	C 	0.67717 0.93290 0.17820 0.37700
C 	C 	0.67110 0.79630 0.80180 -0.21800
H 	H 	0.65890 0.81110 0.87730 0.11800
C 	C 	0.55736 0.73730 0.38810 0.11800
H 	H 	0.55080 0.79890 0.35420 -0.05100
C 	C 	0.60117 0.61800 0.43990 0.13500
H 	H 	0.62580 0.59460 0.44080 -0.01600
C 	C 	0.57550 0.55910 0.48630 -0.22700
H 	H 	0.58270 0.49720 0.51690 0.12300
C 	C 	0.73160 0.76510 0.98510 -0.17400
H 	H 	0.73130 0.82960 0.02320 0.08700
H 	H 	0.71730 0.72500 0.03970 0.08800
C 	C 	0.52948 0.68150 0.43050 -0.21500
H 	H 	0.50440 0.70430 0.42060 0.09600
C 	C 	0.53910 0.59140 0.48780 0.15700
C 	C 	0.50950 0.53110 0.55570 -0.16600
H 	H 	0.52290 0.49420 0.63770 0.07800
H 	H 	0.49110 0.57300 0.58790 0.07500
Ni	Ni	0.13607 0.70575 0.83816 1.05600
O 	O 	0.16496 0.82300 0.78410 -0.42300
O 	O 	0.17963 0.62180 0.78530 -0.42600
O 	O 	0.14785 0.55700 0.57960 -0.32700
O 	O 	0.13200 0.85940 0.56520 -0.31000
N 	N 	0.16739 0.71670 0.04830 -0.25500
N 	N 	0.09300 0.79300 0.89350 -0.27000
C 	C 	0.22597 0.75430 0.21230 -0.21100
H 	H 	0.25140 0.77510 0.22650 0.11500
C 	C 	0.21204 0.50990 0.66530 -0.23200
H 	H 	0.21070 0.47250 0.58300 0.12200
C 	C 	0.20908 0.73280 0.33000 0.16200
C 	C 	0.22244 0.95130 0.75220 0.02100
H 	H 	0.22380 0.91910 0.83930 0.03800
C 	C 	0.20407 0.74420 0.07470 0.12600
H 	H 	0.21550 0.75730 0.99660 -0.01000
C 	C 	0.19027 0.94010 0.65270 -0.23000
H 	H 	0.18660 0.97800 0.57010 0.12200
C 	C 	0.24440 0.50880 0.76190 0.03000
H 	H 	0.24620 0.54680 0.84380 0.03100
C 	C 	0.16000 0.86940 0.66860 0.38700
C 	C 	0.15158 0.69690 0.16180 0.13000
H 	H 	0.12590 0.67750 0.14460 -0.03600
C 	C 	0.17717 0.56710 0.67820 0.37800
C 	C 	0.17110 0.70370 0.30180 -0.21700
H 	H 	0.15890 0.68890 0.37730 0.11800
C 	C 	0.05736 0.76270 0.88810 0.11700
H 	H 	0.05080 0.70110 0.85420 -0.05100
C 	C 	0.10117 0.88200 0.93990 0.13500
H 	H 	0.12580 0.90540 0.94080 -0.01600
C 	C 	0.07550 0.94090 0.98630 -0.22600
H 	H 	0.08270 0.00280 0.01690 0.12300
C 	C 	0.23160 0.73490 0.48510 -0.16700
H 	H 	0.23130 0.67040 0.52320 0.08500
H 	H 	0.21730 0.77500 0.53970 0.08500
C 	C 	0.02948 0.81850 0.93050 -0.21400
H 	H 	0.00440 0.79570 0.92060 0.09600
C 	C 	0.03910 0.90860 0.98780 0.15500
C 	C 	0.00950 0.96890 0.05570 -0.16400
H 	H 	0.02290 0.00580 0.13770 0.07700
H 	H 	0.99110 0.92700 0.08790 0.07500
Ni	Ni	0.63607 0.20575 0.83816 1.05600
O 	O 	0.66496 0.32300 0.78410 -0.42300
O 	O 	0.67963 0.12180 0.78530 -0.42500
O 	O 	0.64785 0.05700 0.57960 -0.32700
O 	O 	0.63200 0.35940 0.56520 -0.31000
N 	N 	0.66739 0.21670 0.04830 -0.25500
N 	N 	0.59300 0.29300 0.89350 -0.27000
C 	C 	0.72597 0.25430 0.21230 -0.20900
H 	H 	0.75140 0.27510 0.22650 0.11400
C 	C 	0.71204 0.00990 0.66530 -0.23200
H 	H 	0.71070 0.97250 0.58300 0.12100
C 	C 	0.70908 0.23280 0.33000 0.16000
C 	C 	0.72244 0.45130 0.75220 0.02100
H 	H 	0.72380 0.41910 0.83930 0.03800
C 	C 	0.70407 0.24420 0.07470 0.12300
H 	H 	0.71550 0.25730 0.99660 -0.00800
C 	C 	0.69027 0.44010 0.65270 -0.22900
H 	H 	0.68660 0.47800 0.57010 0.12200
C 	C 	0.74440 0.00880 0.76190 0.03000
H 	H 	0.74620 0.04680 0.84380 0.03100
C 	C 	0.66000 0.36940 0.66860 0.38700
C 	C 	0.65158 0.19690 0.16180 0.13000
H 	H 	0.62590 0.17750 0.14460 -0.03600
C 	C 	0.67717 0.06710 0.67820 0.37800
C 	C 	0.67110 0.20370 0.30180 -0.21600
H 	H 	0.65890 0.18890 0.37730 0.11700
C 	C 	0.55736 0.26270 0.88810 0.11800
H 	H 	0.55080 0.20110 0.85420 -0.05100
C 	C 	0.60117 0.38200 0.93990 0.13500
H 	H 	0.62580 0.40540 0.94080 -0.01600
C 	C 	0.57550 0.44090 0.98630 -0.22700
H 	H 	0.58270 0.50280 0.01690 0.12300
C 	C 	0.73160 0.23490 0.48510 -0.16500
H 	H 	0.73130 0.17040 0.52320 0.08400
H 	H 	0.71730 0.27500 0.53970 0.08500
C 	C 	0.52948 0.31850 0.93050 -0.21500
H 	H 	0.50440 0.29570 0.92060 0.09700
C 	C 	0.53910 0.40860 0.98780 0.15700
C 	C 	0.50950 0.46890 0.05570 -0.16600
H 	H 	0.52290 0.50580 0.13770 0.07800
H 	H 	0.49110 0.42700 0.08790 0.07500
Ni	Ni	0.86393 0.70575 0.66184 1.05600
O 	O 	0.83504 0.82300 0.71590 -0.42300
O 	O 	0.82037 0.62180 0.71470 -0.42600
O 	O 	0.85215 0.55700 0.92040 -0.32700
O 	O 	0.86800 0.85940 0.93480 -0.31000
N 	N 	0.83261 0.71670 0.45170 -0.25400
N 	N 	0.90700 0.79300 0.60650 -0.27000
C 	C 	0.77403 0.75430 0.28770 -0.20800
H 	H 	0.74860 0.77510 0.27350 0.11400
C 	C 	0.78796 0.50990 0.83470 -0.23200
H 	H 	0.78930 0.47250 0.91700 0.12200
C 	C 	0.79092 0.73280 0.17000 0.15700
C 	C 	0.77756 0.95130 0.74780 0.02000
H 	H 	0.77620 0.91910 0.66070 0.03800
C 	C 	0.79593 0.74420 0.42530 0.12400
H 	H 	0.78450 0.75730 0.50340 -0.00900
C 	C 	0.80973 0.94010 0.84730 -0.22900
H 	H 	0.81340 0.97800 0.92990 0.12200
C 	C 	0.75560 0.50880 0.73810 0.03000
H 	H 	0.75380 0.54680 0.65620 0.03200
C 	C 	0.84000 0.86940 0.83140 0.38700
C 	C 	0.84842 0.69690 0.33820 0.12900
H 	H 	0.87410 0.67750 0.35540 -0.03600
C 	C 	0.82283 0.56710 0.82180 0.37800
C 	C 	0.82890 0.70370 0.19820 -0.21400
H 	H 	0.84110 0.68890 0.12270 0.11700
C 	C 	0.94264 0.76270 0.61190 0.11800
H 	H 	0.94920 0.70110 0.64580 -0.05100
C 	C 	0.89883 0.88200 0.56010 0.13500
H 	H 	0.87420 0.90540 0.55920 -0.01600
C 	C 	0.92450 0.94090 0.51370 -0.22700
H 	H 	0.91730 0.00280 0.48310 0.12300
C 	C 	0.76840 0.73490 0.01490 -0.15800
H 	H 	0.76870 0.67040 0.97680 0.08200
H 	H 	0.78270 0.77500 0.96030 0.08300
C 	C 	0.97052 0.81850 0.56950 -0.21500
H 	H 	0.99560 0.79570 0.57940 0.09700
C 	C 	0.96090 0.90860 0.51220 0.15700
C 	C 	0.99050 0.96890 0.44430 -0.16600
H 	H 	0.97710 0.00580 0.36230 0.07800
H 	H 	0.00890 0.92700 0.41210 0.07500
Ni	Ni	0.36393 0.20575 0.66184 1.05600
O 	O 	0.33504 0.32300 0.71590 -0.42300
O 	O 	0.32037 0.12180 0.71470 -0.42600
O 	O 	0.35215 0.05700 0.92040 -0.32700
O 	O 	0.36800 0.35940 0.93480 -0.31000
N 	N 	0.33261 0.21670 0.45170 -0.25500
N 	N 	0.40700 0.29300 0.60650 -0.27000
C 	C 	0.27403 0.25430 0.28770 -0.21200
H 	H 	0.24860 0.27510 0.27350 0.11600
C 	C 	0.28796 0.00990 0.83470 -0.23100
H 	H 	0.28930 0.97250 0.91700 0.12100
C 	C 	0.29092 0.23280 0.17000 0.16400
C 	C 	0.27756 0.45130 0.74780 0.02100
H 	H 	0.27620 0.41910 0.66070 0.03800
C 	C 	0.29593 0.24420 0.42530 0.12600
H 	H 	0.28450 0.25730 0.50340 -0.01000
C 	C 	0.30973 0.44010 0.84730 -0.23000
H 	H 	0.31340 0.47800 0.92990 0.12200
C 	C 	0.25560 0.00880 0.73810 0.02900
H 	H 	0.25380 0.04680 0.65620 0.03200
C 	C 	0.34000 0.36940 0.83140 0.38700
C 	C 	0.34842 0.19690 0.33820 0.13100
H 	H 	0.37410 0.17750 0.35540 -0.03700
C 	C 	0.32283 0.06710 0.82180 0.37700
C 	C 	0.32890 0.20370 0.19820 -0.21800
H 	H 	0.34110 0.18890 0.12270 0.11800
C 	C 	0.44264 0.26270 0.61190 0.11800
H 	H 	0.44920 0.20110 0.64580 -0.05100
C 	C 	0.39883 0.38200 0.56010 0.13500
H 	H 	0.37420 0.40540 0.55920 -0.01600
C 	C 	0.42450 0.44090 0.51370 -0.22700
H 	H 	0.41730 0.50280 0.48310 0.12300
C 	C 	0.26840 0.23490 0.01490 -0.17400
H 	H 	0.26870 0.17040 0.97680 0.08700
H 	H 	0.28270 0.27500 0.96030 0.08800
C 	C 	0.47052 0.31850 0.56950 -0.21500
H 	H 	0.49560 0.29570 0.57940 0.09600
C 	C 	0.46090 0.40860 0.51220 0.15700
C 	C 	0.49050 0.46890 0.44430 -0.16600
H 	H 	0.47710 0.50580 0.36230 0.07800
H 	H 	0.50890 0.42700 0.41210 0.07500
