data_crystal

_cell_length_a 16.64500
_cell_length_b 18.26800
_cell_length_c 23.74700
_cell_angle_alpha 89.54300
_cell_angle_beta  74.20900
_cell_angle_gamma 76.89700

_symmetry_space_group_name_	'P 1'
_symmetry_space_group_name_H-M	'P 1'

loop_
_symmetry_equiv_pos_as_xyz
  x,y,z

loop_
_atom_site_label
_atom_site_type_symbol
_atom_site_fract_x
_atom_site_fract_y
_atom_site_fract_z
_atom_site_charge
Mo	Mo	0.23727 0.79256 0.14962 1.13100
Mo	Mo	0.22085 0.98198 0.09152 1.15900
Mo	Mo	0.30031 0.33715 0.16042 1.12800
Mo	Mo	0.00049 0.02584 0.34442 1.16100
Mo	Mo	0.04638 0.84927 0.25783 1.15500
Mo	Mo	0.00656 0.03761 0.20167 1.14300
Mo	Mo	0.29781 0.32534 0.30909 1.14000
Mo	Mo	0.21040 0.96037 0.37864 1.17200
Mo	Mo	0.23520 0.15873 0.38229 1.17000
Mo	Mo	0.02501 0.22544 0.34962 1.16200
Mo	Mo	0.24264 0.18062 0.09470 1.15600
Mo	Mo	0.42183 0.72857 0.18972 1.03500
Mo	Mo	0.02914 0.23703 0.20627 1.15000
Mo	Mo	0.23203 0.78168 0.29844 1.14500
Mo	Mo	0.57947 0.07588 0.17744 1.06700
Mo	Mo	0.55621 0.87351 0.17452 1.15700
Mo	Mo	0.10940 0.37901 0.27024 1.14800
Mo	Mo	0.48644 0.28380 0.19977 1.02600
Sr	Sr	0.36916 0.03018 0.21202 1.53400
P 	P 	0.19609 0.96305 0.23781 0.49800
P 	P 	0.22230 0.18892 0.24204 0.50100
P 	P 	0.40260 0.85914 0.30039 0.51700
P 	P 	0.40930 0.87479 0.09798 0.39700
P 	P 	0.44170 0.16872 0.10272 0.39200
Mn	Mn	0.60739 0.78024 0.30439 1.29800
P 	P 	0.43780 0.15418 0.30571 0.50300
O 	O 	0.00600 0.12850 0.34800 -0.51600
O 	O 	0.12560 0.21070 0.13910 -0.52300
O 	O 	0.24130 0.07940 0.08620 -0.54000
O 	O 	0.10470 0.01790 0.13480 -0.52900
O 	O 	0.20850 0.87600 0.11100 -0.53100
O 	O 	0.09540 0.99860 0.37670 -0.49000
O 	O 	0.01090 0.14010 0.20700 -0.53900
O 	O 	0.25630 0.28360 0.11900 -0.53100
O 	O 	0.44220 0.90950 0.25350 -0.46000
O 	O 	0.12500 0.19380 0.25940 -0.40100
O 	O 	0.01830 0.91320 0.32170 -0.49000
O 	O 	0.23090 0.05670 0.38310 -0.51900
O 	O 	0.02120 0.92100 0.20800 -0.51500
O 	O 	0.11880 0.19010 0.38010 -0.49700
O 	O 	0.20100 0.85660 0.35350 -0.50300
O 	O 	0.35720 0.82410 0.14000 -0.47700
O 	O 	0.55200 0.97530 0.18080 -0.59500
O 	O 	0.36090 0.34420 0.22550 -0.63000
O 	O 	0.18860 0.87900 0.23500 -0.42500
O 	O 	0.26640 0.15120 0.18120 -0.42600
O 	O 	0.94130 0.04180 0.28450 -0.49900
O 	O 	0.06650 0.32620 0.33080 -0.50800
O 	O 	0.46840 0.10040 0.13760 -0.42500
O 	O 	0.36650 0.13430 0.35630 -0.39400
O 	O 	0.28960 0.73920 0.21250 -0.62000
O 	O 	0.23470 0.27250 0.24300 -0.42300
O 	O 	0.35200 0.81330 0.27140 -0.46700
O 	O 	0.33860 0.90980 0.35390 -0.39600
O 	O 	0.35000 0.93040 0.06890 -0.37300
O 	O 	0.24940 0.98270 0.17750 -0.42600
O 	O 	0.96790 0.25750 0.28890 -0.50600
O 	O 	0.07040 0.33570 0.21600 -0.50600
O 	O 	0.20390 0.40500 0.19910 -0.52900
O 	O 	0.24350 0.97400 0.28300 -0.42700
O 	O 	0.51670 0.09050 0.04860 -0.18300
O 	O 	0.26420 0.14310 0.28520 -0.43300
O 	O 	0.13190 0.78000 0.18570 -0.52600
O 	O 	0.10420 0.01280 0.25460 -0.40700
O 	O 	0.40200 0.23060 0.27860 -0.46700
O 	O 	0.37430 0.15630 0.07270 -0.37800
O 	O 	0.46460 0.09250 0.25610 -0.46600
O 	O 	0.61940 0.83500 0.22020 -0.55100
O 	O 	0.40470 0.23940 0.14790 -0.47500
O 	O 	0.55610 0.18660 0.18350 -0.58800
O 	O 	0.20130 0.39570 0.30960 -0.52100
O 	O 	0.49810 0.91600 0.05620 -0.17200
O 	O 	0.44980 0.91740 0.13440 -0.41700
O 	O 	0.12870 0.77130 0.29490 -0.50600
O 	O 	0.51230 0.15990 0.32890 -0.30700
O 	O 	0.47030 0.80560 0.32210 -0.44600
O 	O 	0.24840 0.26560 0.36240 -0.50200
O 	O 	0.50560 0.78120 0.17740 -0.54400
N 	N 	0.80080 0.90230 0.41040 -0.14400
N 	N 	0.66340 0.99350 0.37100 -0.13800
N 	N 	0.84900 0.77800 0.39460 -0.11000
C 	C 	0.75190 0.87370 0.38410 0.06300
O 	O 	0.74540 0.72570 0.28580 -0.48500
H 	H 	0.77400 0.75430 0.26840 0.21700
O 	O 	0.61150 0.67340 0.25520 -0.51200
H 	H 	0.57780 0.65100 0.27570 0.20400
C 	C 	0.59590 0.01340 0.34630 0.07100
H 	H 	0.56710 0.06290 0.34430 0.02800
C 	C 	0.93300 0.83970 0.44120 0.00000
C 	C 	0.86030 0.84100 0.41610 0.07100
N 	N 	0.62710 0.89280 0.33890 -0.18600
C 	C 	0.67830 0.91960 0.36620 0.07700
N 	N 	0.77810 0.80050 0.37260 -0.10300
C 	C 	0.93190 0.89660 0.47890 -0.00500
H 	H 	0.88440 0.93700 0.49020 -0.00800
O 	O 	0.59630 0.73140 0.38960 -0.51100
H 	H 	0.56020 0.76060 0.41500 0.23600
N 	N 	0.00870 0.77870 0.42360 -0.17700
H 	H 	0.01260 0.74410 0.39800 0.10100
N 	N 	0.57680 0.95490 0.32590 -0.17500
H 	H 	0.53860 0.95620 0.30750 0.10000
C 	C 	0.06940 0.83270 0.48470 -0.01300
H 	H 	0.11450 0.83110 0.50110 -0.01000
N 	N 	0.00060 0.89320 0.49950 -0.17900
H 	H 	0.00110 0.92950 0.52220 0.08000
C 	C 	0.07480 0.77680 0.44870 0.00200
H 	H 	0.12250 0.73650 0.44010 -0.01300
C 	C 	0.93060 0.16730 0.51530 -0.01300
H 	H 	0.88550 0.16890 0.49890 -0.01000
N 	N 	0.99940 0.10680 0.50050 -0.17900
H 	H 	0.99890 0.07050 0.47780 0.08000
C 	C 	0.92520 0.22320 0.55130 0.00200
H 	H 	0.87750 0.26350 0.55990 -0.01300
Mo	Mo	0.76273 0.20744 0.85038 1.13000
Mo	Mo	0.77915 0.01802 0.90848 1.15800
Mo	Mo	0.69969 0.66285 0.83958 1.12800
Mo	Mo	0.99951 0.97416 0.65558 1.16100
Mo	Mo	0.95362 0.15073 0.74217 1.15500
Mo	Mo	0.99344 0.96239 0.79833 1.14300
Mo	Mo	0.70219 0.67466 0.69091 1.14000
Mo	Mo	0.78960 0.03963 0.62136 1.17200
Mo	Mo	0.76480 0.84127 0.61771 1.17000
Mo	Mo	0.97499 0.77456 0.65038 1.16200
Mo	Mo	0.75736 0.81938 0.90530 1.15600
Mo	Mo	0.57817 0.27143 0.81028 1.03500
Mo	Mo	0.97086 0.76297 0.79373 1.15000
Mo	Mo	0.76797 0.21832 0.70156 1.14500
Mo	Mo	0.42053 0.92412 0.82256 1.06700
Mo	Mo	0.44379 0.12649 0.82548 1.15700
Mo	Mo	0.89060 0.62099 0.72976 1.14800
Mo	Mo	0.51356 0.71620 0.80023 1.02600
Sr	Sr	0.63084 0.96982 0.78798 1.53400
P 	P 	0.80391 0.03695 0.76219 0.49800
P 	P 	0.77770 0.81108 0.75796 0.50100
P 	P 	0.59740 0.14086 0.69961 0.51700
P 	P 	0.59070 0.12521 0.90202 0.39700
P 	P 	0.55830 0.83128 0.89728 0.39200
Mn	Mn	0.39261 0.21976 0.69561 1.29800
P 	P 	0.56220 0.84582 0.69429 0.50300
O 	O 	0.99400 0.87150 0.65200 -0.51600
O 	O 	0.87440 0.78930 0.86090 -0.52300
O 	O 	0.75870 0.92060 0.91380 -0.54000
O 	O 	0.89530 0.98210 0.86520 -0.52900
O 	O 	0.79150 0.12400 0.88900 -0.53100
O 	O 	0.90460 0.00140 0.62330 -0.49000
O 	O 	0.98910 0.85990 0.79300 -0.53900
O 	O 	0.74370 0.71640 0.88100 -0.53100
O 	O 	0.55780 0.09050 0.74650 -0.46000
O 	O 	0.87500 0.80620 0.74060 -0.40100
O 	O 	0.98170 0.08680 0.67830 -0.49000
O 	O 	0.76910 0.94330 0.61690 -0.51900
O 	O 	0.97880 0.07900 0.79200 -0.51500
O 	O 	0.88120 0.80990 0.61990 -0.49700
O 	O 	0.79900 0.14340 0.64650 -0.50300
O 	O 	0.64280 0.17590 0.86000 -0.47700
O 	O 	0.44800 0.02470 0.81920 -0.59500
O 	O 	0.63910 0.65580 0.77450 -0.63000
O 	O 	0.81140 0.12100 0.76500 -0.42500
O 	O 	0.73360 0.84880 0.81880 -0.42600
O 	O 	0.05870 0.95820 0.71550 -0.49900
O 	O 	0.93350 0.67380 0.66920 -0.50800
O 	O 	0.53160 0.89960 0.86240 -0.42500
O 	O 	0.63350 0.86570 0.64370 -0.39400
O 	O 	0.71040 0.26080 0.78750 -0.62000
O 	O 	0.76530 0.72750 0.75700 -0.42300
O 	O 	0.64800 0.18670 0.72860 -0.46700
O 	O 	0.66140 0.09020 0.64610 -0.39600
O 	O 	0.65000 0.06960 0.93110 -0.37300
O 	O 	0.75060 0.01730 0.82250 -0.42600
O 	O 	0.03210 0.74250 0.71110 -0.50600
O 	O 	0.92960 0.66430 0.78400 -0.50600
O 	O 	0.79610 0.59500 0.80090 -0.52900
O 	O 	0.75650 0.02600 0.71700 -0.42700
O 	O 	0.48330 0.90950 0.95140 -0.18300
O 	O 	0.73580 0.85690 0.71480 -0.43300
O 	O 	0.86810 0.22000 0.81430 -0.52600
O 	O 	0.89580 0.98720 0.74540 -0.40700
O 	O 	0.59800 0.76940 0.72140 -0.46700
O 	O 	0.62570 0.84370 0.92730 -0.37800
O 	O 	0.53540 0.90750 0.74390 -0.46600
O 	O 	0.38060 0.16500 0.77980 -0.55100
O 	O 	0.59530 0.76060 0.85210 -0.47500
O 	O 	0.44390 0.81340 0.81650 -0.58800
O 	O 	0.79870 0.60430 0.69040 -0.52100
O 	O 	0.50190 0.08400 0.94380 -0.17200
O 	O 	0.55020 0.08260 0.86560 -0.41700
O 	O 	0.87130 0.22870 0.70510 -0.50600
O 	O 	0.48770 0.84010 0.67110 -0.30700
O 	O 	0.52970 0.19440 0.67790 -0.44600
O 	O 	0.75160 0.73440 0.63760 -0.50200
O 	O 	0.49440 0.21880 0.82260 -0.54400
N 	N 	0.19920 0.09770 0.58960 -0.14400
N 	N 	0.33660 0.00650 0.62900 -0.13800
N 	N 	0.15100 0.22200 0.60540 -0.11000
C 	C 	0.24810 0.12630 0.61590 0.06300
O 	O 	0.25460 0.27430 0.71420 -0.48500
H 	H 	0.22600 0.24570 0.73160 0.21700
O 	O 	0.38850 0.32660 0.74480 -0.51200
H 	H 	0.42220 0.34900 0.72430 0.20400
C 	C 	0.40410 0.98660 0.65370 0.07100
H 	H 	0.43290 0.93710 0.65570 0.02800
C 	C 	0.06700 0.16030 0.55880 0.00000
C 	C 	0.13970 0.15900 0.58390 0.07100
N 	N 	0.37290 0.10720 0.66110 -0.18600
C 	C 	0.32170 0.08040 0.63380 0.07700
N 	N 	0.22190 0.19950 0.62740 -0.10300
C 	C 	0.06810 0.10340 0.52110 -0.00500
H 	H 	0.11560 0.06300 0.50980 -0.00800
O 	O 	0.40370 0.26860 0.61040 -0.51100
H 	H 	0.43980 0.23940 0.58500 0.23600
N 	N 	0.99130 0.22130 0.57640 -0.17700
H 	H 	0.98740 0.25590 0.60200 0.10100
N 	N 	0.42320 0.04510 0.67410 -0.17500
H 	H 	0.46140 0.04380 0.69250 0.10000
