data_crystal

_cell_length_a 16.37300
_cell_length_b 24.22800
_cell_length_c 20.18400
_cell_angle_alpha 90.00000
_cell_angle_beta  105.82000
_cell_angle_gamma 90.00000

_symmetry_space_group_name_	'P 1'
_symmetry_space_group_name_H-M	'P 1'

loop_
_symmetry_equiv_pos_as_xyz
  x,y,z

loop_
_atom_site_label
_atom_site_type_symbol
_atom_site_fract_x
_atom_site_fract_y
_atom_site_fract_z
_atom_site_charge
Cl	Cl	0.37249 0.06061 0.22665 -0.50000
N 	N 	0.49180 0.28020 0.81960 -0.20900
N 	N 	0.49960 0.15360 0.68550 -0.21500
N 	N 	0.50720 0.12160 0.36890 -0.22100
C 	C 	0.26260 0.26990 0.77150 0.03000
C 	C 	0.20090 0.23930 0.72500 -0.06500
H 	H 	0.14260 0.24490 0.72200 0.07900
C 	C 	0.22460 0.20040 0.68310 -0.04500
H 	H 	0.18250 0.17950 0.65130 0.04900
C 	C 	0.31000 0.19220 0.68760 0.02400
H 	H 	0.32620 0.16570 0.65890 0.01800
N 	N 	0.37160 0.22280 0.73400 -0.20100
C 	C 	0.34790 0.26160 0.77600 0.01400
C 	C 	0.24030 0.31240 0.81540 -0.04900
H 	H 	0.18280 0.32060 0.81310 0.04900
C 	C 	0.30000 0.33730 0.85580 -0.03900
H 	H 	0.28620 0.36370 0.88580 0.05800
C 	C 	0.38680 0.32920 0.86040 0.00400
C 	C 	0.45630 0.35910 0.90540 -0.02500
H 	H 	0.44550 0.38540 0.93690 0.04500
C 	C 	0.53440 0.34980 0.90290 -0.07900
H 	H 	0.57920 0.37120 0.93110 0.06100
C 	C 	0.55360 0.30920 0.85970 0.05500
H 	H 	0.61080 0.30280 0.85960 0.00700
C 	C 	0.40930 0.29180 0.82010 0.03200
C 	C 	0.50250 0.10310 0.71400 0.06500
C 	C 	0.50670 0.05780 0.67850 -0.09900
H 	H 	0.50920 0.02250 0.69960 0.08300
C 	C 	0.50740 0.06220 0.60970 0.02200
H 	H 	0.51100 0.02980 0.58410 0.03000
C 	C 	0.50290 0.11190 0.57930 -0.06900
C 	C 	0.49980 0.15800 0.61900 0.04900
H 	H 	0.49780 0.19360 0.59890 0.00800
C 	C 	0.50490 0.11650 0.50700 0.11900
C 	C 	0.55850 0.08490 0.48250 -0.16200
H 	H 	0.59650 0.06030 0.51230 0.09400
C 	C 	0.55760 0.08870 0.41330 0.09000
H 	H 	0.59580 0.06610 0.39750 0.01300
C 	C 	0.45820 0.15460 0.39500 0.10000
H 	H 	0.42400 0.18090 0.36490 -0.00100
C 	C 	0.45320 0.15360 0.46150 -0.16300
H 	H 	0.41560 0.17740 0.47620 0.08800
Cl	Cl	0.62751 0.06061 0.27335 -0.49200
N 	N 	0.50820 0.28020 0.68040 -0.20900
N 	N 	0.50040 0.15360 0.81450 -0.21400
N 	N 	0.49280 0.12160 0.13110 -0.21800
C 	C 	0.73740 0.26990 0.72850 0.03600
C 	C 	0.79910 0.23930 0.77500 -0.06600
H 	H 	0.85740 0.24490 0.77800 0.09100
C 	C 	0.77540 0.20040 0.81690 -0.04100
H 	H 	0.81750 0.17950 0.84870 0.05700
C 	C 	0.69000 0.19220 0.81240 0.02500
H 	H 	0.67380 0.16570 0.84110 0.02000
N 	N 	0.62840 0.22280 0.76600 -0.20100
C 	C 	0.65210 0.26160 0.72400 0.01300
C 	C 	0.75970 0.31240 0.68460 -0.05100
H 	H 	0.81720 0.32060 0.68690 0.05800
C 	C 	0.70000 0.33730 0.64420 -0.03500
H 	H 	0.71380 0.36370 0.61420 0.06000
C 	C 	0.61320 0.32920 0.63960 0.00400
C 	C 	0.54370 0.35910 0.59460 -0.02400
H 	H 	0.55450 0.38540 0.56310 0.04700
C 	C 	0.46560 0.34980 0.59710 -0.07900
H 	H 	0.42080 0.37120 0.56890 0.06000
C 	C 	0.44640 0.30920 0.64030 0.05500
H 	H 	0.38920 0.30280 0.64040 0.00500
C 	C 	0.59070 0.29180 0.67990 0.03400
C 	C 	0.49750 0.10310 0.78600 0.06200
C 	C 	0.49330 0.05780 0.82150 -0.09500
H 	H 	0.49080 0.02250 0.80040 0.08100
C 	C 	0.49260 0.06220 0.89030 0.01600
H 	H 	0.48900 0.02980 0.91590 0.03100
C 	C 	0.49710 0.11190 0.92070 -0.06100
C 	C 	0.50020 0.15800 0.88100 0.04500
H 	H 	0.50220 0.19360 0.90110 0.00900
C 	C 	0.49510 0.11650 0.99300 0.09900
C 	C 	0.44150 0.08490 0.01750 -0.14000
H 	H 	0.40350 0.06030 0.98770 0.08100
C 	C 	0.44240 0.08870 0.08670 0.07900
H 	H 	0.40420 0.06610 0.10250 0.01500
C 	C 	0.54180 0.15460 0.10500 0.09300
H 	H 	0.57600 0.18090 0.13510 0.00200
C 	C 	0.54680 0.15360 0.03850 -0.14800
H 	H 	0.58440 0.17740 0.02380 0.08500
Ru	Ru	0.50000 0.21902 0.75000 0.95300
Cd	Cd	0.50000 0.11974 0.25000 1.23300
Cl	Cl	0.50000 0.22186 0.25000 -0.50700
Cl	Cl	0.87249 0.56061 0.22665 -0.47600
N 	N 	0.99180 0.78020 0.81960 -0.18500
N 	N 	0.99960 0.65360 0.68550 -0.18000
N 	N 	0.00720 0.62160 0.36890 -0.24200
C 	C 	0.76260 0.76990 0.77150 0.04400
C 	C 	0.70090 0.73930 0.72500 -0.07000
H 	H 	0.64260 0.74490 0.72200 0.08400
C 	C 	0.72460 0.70040 0.68310 -0.03900
H 	H 	0.68250 0.67950 0.65130 0.05200
C 	C 	0.81000 0.69220 0.68760 0.02300
H 	H 	0.82620 0.66570 0.65890 0.02500
N 	N 	0.87160 0.72280 0.73400 -0.19000
C 	C 	0.84790 0.76160 0.77600 0.00700
C 	C 	0.74030 0.81240 0.81540 -0.07000
H 	H 	0.68280 0.82060 0.81310 0.05800
C 	C 	0.80000 0.83730 0.85580 -0.00500
H 	H 	0.78620 0.86370 0.88580 0.05100
C 	C 	0.88680 0.82920 0.86040 -0.03200
C 	C 	0.95630 0.85910 0.90540 0.07000
H 	H 	0.94550 0.88540 0.93690 0.02600
C 	C 	0.03440 0.84980 0.90290 -0.16500
H 	H 	0.07920 0.87120 0.93110 0.08100
C 	C 	0.05360 0.80920 0.85970 0.04800
H 	H 	0.11080 0.80280 0.85960 0.00400
C 	C 	0.90930 0.79180 0.82010 0.05900
C 	C 	0.00250 0.60310 0.71400 -0.03200
C 	C 	0.00670 0.55780 0.67850 -0.05800
H 	H 	0.00920 0.52250 0.69960 0.05400
C 	C 	0.00740 0.56220 0.60970 0.00200
H 	H 	0.01100 0.52980 0.58410 0.02700
C 	C 	0.00290 0.61190 0.57930 -0.09700
C 	C 	0.99980 0.65800 0.61900 0.09600
H 	H 	0.99780 0.69360 0.59890 0.00700
C 	C 	0.00490 0.61650 0.50700 0.07300
C 	C 	0.05850 0.58490 0.48250 -0.14900
H 	H 	0.09650 0.56030 0.51230 0.08400
C 	C 	0.05760 0.58870 0.41330 0.07200
H 	H 	0.09580 0.56610 0.39750 0.01200
C 	C 	0.95820 0.65460 0.39500 0.12500
H 	H 	0.92400 0.68090 0.36490 0.00000
C 	C 	0.95320 0.65360 0.46150 -0.11500
H 	H 	0.91560 0.67740 0.47620 0.08000
Cl	Cl	0.12751 0.56061 0.27335 -0.50900
N 	N 	0.00820 0.78020 0.68040 -0.22600
N 	N 	0.00040 0.65360 0.81450 -0.24200
N 	N 	0.99280 0.62160 0.13110 -0.19200
C 	C 	0.23740 0.76990 0.72850 0.01500
C 	C 	0.29910 0.73930 0.77500 -0.05500
H 	H 	0.35740 0.74490 0.77800 0.07800
C 	C 	0.27540 0.70040 0.81690 -0.05200
H 	H 	0.31750 0.67950 0.84870 0.05400
C 	C 	0.19000 0.69220 0.81240 0.02700
H 	H 	0.17380 0.66570 0.84110 0.01400
N 	N 	0.12840 0.72280 0.76600 -0.20600
C 	C 	0.15210 0.76160 0.72400 0.02400
C 	C 	0.25970 0.81240 0.68460 -0.02300
H 	H 	0.31720 0.82060 0.68690 0.04100
C 	C 	0.20000 0.83730 0.64420 -0.07500
H 	H 	0.21380 0.86370 0.61420 0.06900
C 	C 	0.11320 0.82920 0.63960 0.04500
C 	C 	0.04370 0.85910 0.59460 -0.12300
H 	H 	0.05450 0.88540 0.56310 0.06800
C 	C 	0.96560 0.84980 0.59710 0.01100
H 	H 	0.92080 0.87120 0.56890 0.04000
C 	C 	0.94640 0.80920 0.64030 0.06000
H 	H 	0.88920 0.80280 0.64040 0.01000
C 	C 	0.09070 0.79180 0.67990 0.00500
C 	C 	0.99750 0.60310 0.78600 0.16100
C 	C 	0.99330 0.55780 0.82150 -0.13700
H 	H 	0.99080 0.52250 0.80040 0.11100
C 	C 	0.99260 0.56220 0.89030 0.03700
H 	H 	0.98900 0.52980 0.91590 0.03500
C 	C 	0.99710 0.61190 0.92070 -0.03500
C 	C 	0.00020 0.65800 0.88100 -0.00100
H 	H 	0.00220 0.69360 0.90110 0.01100
C 	C 	0.99510 0.61650 0.99300 0.14500
C 	C 	0.94150 0.58490 0.01750 -0.15300
H 	H 	0.90350 0.56030 0.98770 0.09100
C 	C 	0.94240 0.58870 0.08670 0.09800
H 	H 	0.90420 0.56610 0.10250 0.01700
C 	C 	0.04180 0.65460 0.10500 0.06800
H 	H 	0.07600 0.68090 0.13510 0.00500
C 	C 	0.04680 0.65360 0.03850 -0.19500
H 	H 	0.08440 0.67740 0.02380 0.09300
Ru	Ru	0.00000 0.71902 0.75000 0.92500
Cd	Cd	0.00000 0.61974 0.25000 1.22300
Cl	Cl	0.00000 0.72186 0.25000 -0.53700
Cl	Cl	0.62751 0.93939 0.77335 -0.49300
N 	N 	0.50820 0.71980 0.18040 -0.20900
N 	N 	0.50040 0.84640 0.31450 -0.21500
N 	N 	0.49280 0.87840 0.63110 -0.22100
C 	C 	0.73740 0.73010 0.22850 0.03600
C 	C 	0.79910 0.76070 0.27500 -0.06600
H 	H 	0.85740 0.75510 0.27800 0.09200
C 	C 	0.77540 0.79960 0.31690 -0.04100
H 	H 	0.81750 0.82050 0.34870 0.05800
C 	C 	0.69000 0.80780 0.31240 0.02500
H 	H 	0.67380 0.83430 0.34110 0.02000
N 	N 	0.62840 0.77720 0.26600 -0.20100
C 	C 	0.65210 0.73840 0.22400 0.01300
C 	C 	0.75970 0.68760 0.18460 -0.05100
H 	H 	0.81720 0.67940 0.18690 0.05800
C 	C 	0.70000 0.66270 0.14420 -0.03500
H 	H 	0.71380 0.63630 0.11420 0.06100
C 	C 	0.61320 0.67080 0.13960 0.00400
C 	C 	0.54370 0.64090 0.09460 -0.02400
H 	H 	0.55450 0.61460 0.06310 0.04700
C 	C 	0.46560 0.65020 0.09710 -0.07900
H 	H 	0.42080 0.62880 0.06890 0.06100
C 	C 	0.44640 0.69080 0.14030 0.05500
H 	H 	0.38920 0.69720 0.14040 0.00600
C 	C 	0.59070 0.70820 0.17990 0.03400
C 	C 	0.49750 0.89690 0.28600 0.06400
C 	C 	0.49330 0.94220 0.32150 -0.09800
H 	H 	0.49080 0.97750 0.30040 0.08200
C 	C 	0.49260 0.93780 0.39030 0.02200
H 	H 	0.48900 0.97020 0.41590 0.03000
C 	C 	0.49710 0.88810 0.42070 -0.06900
C 	C 	0.50020 0.84200 0.38100 0.04900
H 	H 	0.50220 0.80640 0.40110 0.00800
C 	C 	0.49510 0.88350 0.49300 0.11800
C 	C 	0.44150 0.91510 0.51750 -0.16300
H 	H 	0.40350 0.93970 0.48770 0.09100
C 	C 	0.44240 0.91130 0.58670 0.09000
H 	H 	0.40420 0.93390 0.60250 0.01100
C 	C 	0.54180 0.84540 0.60500 0.10000
H 	H 	0.57600 0.81910 0.63510 -0.00100
C 	C 	0.54680 0.84640 0.53850 -0.16300
H 	H 	0.58440 0.82260 0.52380 0.08900
Cl	Cl	0.37249 0.93939 0.72665 -0.49900
N 	N 	0.49180 0.71980 0.31960 -0.20900
N 	N 	0.49960 0.84640 0.18550 -0.21500
N 	N 	0.50720 0.87840 0.86890 -0.22400
C 	C 	0.26260 0.73010 0.27150 0.03000
C 	C 	0.20090 0.76070 0.22500 -0.06500
H 	H 	0.14260 0.75510 0.22200 0.07900
C 	C 	0.22460 0.79960 0.18310 -0.04500
H 	H 	0.18250 0.82050 0.15130 0.04900
C 	C 	0.31000 0.80780 0.18760 0.02400
H 	H 	0.32620 0.83430 0.15890 0.01800
N 	N 	0.37160 0.77720 0.23400 -0.20100
C 	C 	0.34790 0.73840 0.27600 0.01400
C 	C 	0.24030 0.68760 0.31540 -0.04800
H 	H 	0.18280 0.67940 0.31310 0.04900
C 	C 	0.30000 0.66270 0.35580 -0.03900
H 	H 	0.28620 0.63630 0.38580 0.05900
C 	C 	0.38680 0.67080 0.36040 0.00500
C 	C 	0.45630 0.64090 0.40540 -0.02500
H 	H 	0.44550 0.61460 0.43690 0.04600
C 	C 	0.53440 0.65020 0.40290 -0.07900
H 	H 	0.57920 0.62880 0.43110 0.06200
C 	C 	0.55360 0.69080 0.35970 0.05500
H 	H 	0.61080 0.69720 0.35960 0.00700
C 	C 	0.40930 0.70820 0.32010 0.03200
C 	C 	0.50250 0.89690 0.21400 0.06600
C 	C 	0.50670 0.94220 0.17850 -0.10100
H 	H 	0.50920 0.97750 0.19960 0.08300
C 	C 	0.50740 0.93780 0.10970 0.02600
H 	H 	0.51100 0.97020 0.08410 0.02900
C 	C 	0.50290 0.88810 0.07930 -0.07500
C 	C 	0.49980 0.84200 0.11900 0.05300
H 	H 	0.49780 0.80640 0.09890 0.00700
C 	C 	0.50490 0.88350 0.00700 0.13300
C 	C 	0.55850 0.91510 0.98250 -0.17900
H 	H 	0.59650 0.93970 0.01230 0.10100
C 	C 	0.55760 0.91130 0.91330 0.09800
H 	H 	0.59580 0.93390 0.89750 0.01000
C 	C 	0.45820 0.84540 0.89500 0.10500
H 	H 	0.42400 0.81910 0.86490 -0.00300
C 	C 	0.45320 0.84640 0.96150 -0.17400
H 	H 	0.41560 0.82260 0.97620 0.09000
Ru	Ru	0.50000 0.78098 0.25000 0.95300
Cd	Cd	0.50000 0.88026 0.75000 1.23300
Cl	Cl	0.50000 0.77814 0.75000 -0.50700
Cl	Cl	0.12751 0.43939 0.77335 -0.50900
N 	N 	0.00820 0.21980 0.18040 -0.22700
N 	N 	0.00040 0.34640 0.31450 -0.24400
N 	N 	0.99280 0.37840 0.63110 -0.19600
C 	C 	0.23740 0.23010 0.22850 0.01500
C 	C 	0.29910 0.26070 0.27500 -0.05400
H 	H 	0.35740 0.25510 0.27800 0.07800
C 	C 	0.27540 0.29960 0.31690 -0.05200
H 	H 	0.31750 0.32050 0.34870 0.05500
C 	C 	0.19000 0.30780 0.31240 0.02700
H 	H 	0.17380 0.33430 0.34110 0.01400
N 	N 	0.12840 0.27720 0.26600 -0.20700
C 	C 	0.15210 0.23840 0.22400 0.02500
C 	C 	0.25970 0.18760 0.18460 -0.02200
H 	H 	0.31720 0.17940 0.18690 0.04100
C 	C 	0.20000 0.16270 0.14420 -0.07600
H 	H 	0.21380 0.13630 0.11420 0.07000
C 	C 	0.11320 0.17080 0.13960 0.04500
C 	C 	0.04370 0.14090 0.09460 -0.12400
H 	H 	0.05450 0.11460 0.06310 0.06900
C 	C 	0.96560 0.15020 0.09710 0.01300
H 	H 	0.92080 0.12880 0.06890 0.04000
C 	C 	0.94640 0.19080 0.14030 0.06000
H 	H 	0.88920 0.19720 0.14040 0.01000
C 	C 	0.09070 0.20820 0.17990 0.00400
C 	C 	0.99750 0.39690 0.28600 0.16400
C 	C 	0.99330 0.44220 0.32150 -0.14100
H 	H 	0.99080 0.47750 0.30040 0.11200
C 	C 	0.99260 0.43780 0.39030 0.04200
H 	H 	0.98900 0.47020 0.41590 0.03300
C 	C 	0.99710 0.38810 0.42070 -0.04200
C 	C 	0.00020 0.34200 0.38100 0.00200
H 	H 	0.00220 0.30640 0.40110 0.01000
C 	C 	0.99510 0.38350 0.49300 0.16400
C 	C 	0.94150 0.41510 0.51750 -0.17500
H 	H 	0.90350 0.43970 0.48770 0.10100
C 	C 	0.94240 0.41130 0.58670 0.10800
H 	H 	0.90420 0.43390 0.60250 0.01300
C 	C 	0.04180 0.34540 0.60500 0.07600
H 	H 	0.07600 0.31910 0.63510 0.00200
C 	C 	0.04680 0.34640 0.53850 -0.21000
H 	H 	0.08440 0.32260 0.52380 0.09700
Cl	Cl	0.87249 0.43939 0.72665 -0.47700
N 	N 	0.99180 0.21980 0.31960 -0.18400
N 	N 	0.99960 0.34640 0.18550 -0.18000
N 	N 	0.00720 0.37840 0.86890 -0.24400
C 	C 	0.76260 0.23010 0.27150 0.04500
C 	C 	0.70090 0.26070 0.22500 -0.07000
H 	H 	0.64260 0.25510 0.22200 0.08400
C 	C 	0.72460 0.29960 0.18310 -0.03900
H 	H 	0.68250 0.32050 0.15130 0.05300
C 	C 	0.81000 0.30780 0.18760 0.02400
H 	H 	0.82620 0.33430 0.15890 0.02500
N 	N 	0.87160 0.27720 0.23400 -0.19000
C 	C 	0.84790 0.23840 0.27600 0.00700
C 	C 	0.74030 0.18760 0.31540 -0.07100
H 	H 	0.68280 0.17940 0.31310 0.05900
C 	C 	0.80000 0.16270 0.35580 -0.00400
H 	H 	0.78620 0.13630 0.38580 0.05100
C 	C 	0.88680 0.17080 0.36040 -0.03300
C 	C 	0.95630 0.14090 0.40540 0.07300
H 	H 	0.94550 0.11460 0.43690 0.02600
C 	C 	0.03440 0.15020 0.40290 -0.16800
H 	H 	0.07920 0.12880 0.43110 0.08200
C 	C 	0.05360 0.19080 0.35970 0.04900
H 	H 	0.11080 0.19720 0.35960 0.00400
C 	C 	0.90930 0.20820 0.32010 0.06000
C 	C 	0.00250 0.39690 0.21400 -0.03300
C 	C 	0.00670 0.44220 0.17850 -0.05900
H 	H 	0.00920 0.47750 0.19960 0.05400
C 	C 	0.00740 0.43780 0.10970 0.00600
H 	H 	0.01100 0.47020 0.08410 0.02600
C 	C 	0.00290 0.38810 0.07930 -0.10300
C 	C 	0.99980 0.34200 0.11900 0.10000
H 	H 	0.99780 0.30640 0.09890 0.00700
C 	C 	0.00490 0.38350 0.00700 0.08800
C 	C 	0.05850 0.41510 0.98250 -0.16600
H 	H 	0.09650 0.43970 0.01230 0.09100
C 	C 	0.05760 0.41130 0.91330 0.07900
H 	H 	0.09580 0.43390 0.89750 0.00900
C 	C 	0.95820 0.34540 0.89500 0.13000
H 	H 	0.92400 0.31910 0.86490 -0.00200
C 	C 	0.95320 0.34640 0.96150 -0.12700
H 	H 	0.91560 0.32260 0.97620 0.08200
Ru	Ru	0.00000 0.28098 0.25000 0.92500
Cd	Cd	0.00000 0.38026 0.75000 1.22300
Cl	Cl	-0.00000 0.27814 0.75000 -0.53700
