data_crystal

_cell_length_a 10.25300
_cell_length_b 12.90000
_cell_length_c 20.00900
_cell_angle_alpha 90.00000
_cell_angle_beta  90.94000
_cell_angle_gamma 90.00000

_symmetry_space_group_name_	'P 1'
_symmetry_space_group_name_H-M	'P 1'

loop_
_symmetry_equiv_pos_as_xyz
  x,y,z

loop_
_atom_site_label
_atom_site_type_symbol
_atom_site_fract_x
_atom_site_fract_y
_atom_site_fract_z
_atom_site_charge
Zn	Zn	0.00297 0.85400 0.01239 1.23800
Cl	Cl	0.10342 0.82166 0.91648 -0.49200
Cl	Cl	0.96246 0.71533 0.07523 -0.46100
O 	O 	0.11640 0.94850 0.06447 -0.48600
O 	O 	0.17250 0.08660 0.00334 -0.46700
N 	N 	0.70290 0.00200 0.16479 -0.15900
C 	C 	0.19660 0.01500 0.04425 0.42000
C 	C 	0.33260 0.00980 0.07273 -0.18200
C 	C 	0.42270 0.08670 0.05880 0.13700
H 	H 	0.40000 0.14010 0.02970 0.01300
C 	C 	0.54630 0.08470 0.08803 -0.22700
H 	H 	0.60690 0.13650 0.07950 0.14600
C 	C 	0.57610 0.00350 0.12982 0.20500
C 	C 	0.49070 0.92440 0.14350 -0.22300
H 	H 	0.51520 0.86980 0.17130 0.12600
C 	C 	0.36710 0.92850 0.11440 0.13000
H 	H 	0.30720 0.87630 0.12310 0.00900
C 	C 	0.78850 0.92620 0.15249 0.09800
H 	H 	0.76810 0.87520 0.12120 0.02300
C 	C 	0.90630 0.92390 0.18613 -0.14900
H 	H 	0.96560 0.87100 0.17820 0.11100
C 	C 	0.93580 0.00100 0.23197 0.09100
C 	C 	0.84540 0.07770 0.24418 -0.13700
H 	H 	0.86350 0.12920 0.27550 0.11100
C 	C 	0.72860 0.07730 0.20966 0.11400
H 	H 	0.66730 0.12900 0.21730 0.01700
Zn	Zn	0.99703 0.85400 0.48761 1.23900
Cl	Cl	0.89658 0.82166 0.58352 -0.49600
Cl	Cl	0.03754 0.71533 0.42477 -0.46400
O 	O 	0.88360 0.94850 0.43553 -0.48200
O 	O 	0.82750 0.08660 0.49666 -0.46600
N 	N 	0.29710 0.00200 0.33521 -0.15800
C 	C 	0.80340 0.01500 0.45575 0.41800
C 	C 	0.66740 0.00980 0.42727 -0.18200
C 	C 	0.57730 0.08670 0.44120 0.13600
H 	H 	0.60000 0.14010 0.47030 0.01400
C 	C 	0.45370 0.08470 0.41197 -0.22700
H 	H 	0.39310 0.13650 0.42050 0.14500
C 	C 	0.42390 0.00350 0.37018 0.20300
C 	C 	0.50930 0.92440 0.35650 -0.22100
H 	H 	0.48480 0.86980 0.32870 0.12500
C 	C 	0.63290 0.92850 0.38560 0.13100
H 	H 	0.69280 0.87630 0.37690 0.00900
C 	C 	0.21150 0.92620 0.34751 0.09600
H 	H 	0.23190 0.87520 0.37880 0.02400
C 	C 	0.09370 0.92390 0.31387 -0.14400
H 	H 	0.03440 0.87100 0.32180 0.10800
C 	C 	0.06420 0.00100 0.26803 0.08100
C 	C 	0.15460 0.07770 0.25582 -0.13100
H 	H 	0.13650 0.12920 0.22450 0.10800
C 	C 	0.27140 0.07730 0.29034 0.11100
H 	H 	0.33270 0.12900 0.28270 0.01800
Zn	Zn	0.99703 0.14600 0.98761 1.23700
Cl	Cl	0.89658 0.17834 0.08352 -0.49300
Cl	Cl	0.03754 0.28467 0.92477 -0.46100
O 	O 	0.88360 0.05150 0.93553 -0.48600
O 	O 	0.82750 0.91340 0.99666 -0.46700
N 	N 	0.29710 0.99800 0.83521 -0.15900
C 	C 	0.80340 0.98500 0.95575 0.42000
C 	C 	0.66740 0.99020 0.92727 -0.18200
C 	C 	0.57730 0.91330 0.94120 0.13700
H 	H 	0.60000 0.85990 0.97030 0.01300
C 	C 	0.45370 0.91530 0.91197 -0.22700
H 	H 	0.39310 0.86350 0.92050 0.14600
C 	C 	0.42390 0.99650 0.87018 0.20500
C 	C 	0.50930 0.07560 0.85650 -0.22300
H 	H 	0.48480 0.13020 0.82870 0.12600
C 	C 	0.63290 0.07150 0.88560 0.13000
H 	H 	0.69280 0.12370 0.87690 0.00900
C 	C 	0.21150 0.07380 0.84751 0.09800
H 	H 	0.23190 0.12480 0.87880 0.02300
C 	C 	0.09370 0.07610 0.81387 -0.14900
H 	H 	0.03440 0.12900 0.82180 0.11100
C 	C 	0.06420 0.99900 0.76803 0.09100
C 	C 	0.15460 0.92230 0.75582 -0.13700
H 	H 	0.13650 0.87080 0.72450 0.11100
C 	C 	0.27140 0.92270 0.79034 0.11400
H 	H 	0.33270 0.87100 0.78270 0.01700
Zn	Zn	0.00297 0.14600 0.51239 1.23900
Cl	Cl	0.10342 0.17834 0.41648 -0.49600
Cl	Cl	0.96246 0.28467 0.57523 -0.46400
O 	O 	0.11640 0.05150 0.56447 -0.48200
O 	O 	0.17250 0.91340 0.50334 -0.46600
N 	N 	0.70290 0.99800 0.66479 -0.15800
C 	C 	0.19660 0.98500 0.54425 0.41800
C 	C 	0.33260 0.99020 0.57273 -0.18200
C 	C 	0.42270 0.91330 0.55880 0.13600
H 	H 	0.40000 0.85990 0.52970 0.01400
C 	C 	0.54630 0.91530 0.58803 -0.22700
H 	H 	0.60690 0.86350 0.57950 0.14500
C 	C 	0.57610 0.99650 0.62982 0.20300
C 	C 	0.49070 0.07560 0.64350 -0.22100
H 	H 	0.51520 0.13020 0.67130 0.12500
C 	C 	0.36710 0.07150 0.61440 0.13100
H 	H 	0.30720 0.12370 0.62310 0.00900
C 	C 	0.78850 0.07380 0.65249 0.09600
H 	H 	0.76810 0.12480 0.62120 0.02400
C 	C 	0.90630 0.07610 0.68613 -0.14400
H 	H 	0.96560 0.12900 0.67820 0.10800
C 	C 	0.93580 0.99900 0.73197 0.08100
C 	C 	0.84540 0.92230 0.74418 -0.13100
H 	H 	0.86350 0.87080 0.77550 0.10800
C 	C 	0.72860 0.92270 0.70966 0.11100
H 	H 	0.66730 0.87100 0.71730 0.01800
