data_crystal

_cell_length_a 10.96410
_cell_length_b 30.76900
_cell_length_c 12.29460
_cell_angle_alpha 90.00000
_cell_angle_beta  100.83000
_cell_angle_gamma 90.00000

_symmetry_space_group_name_	'P 1'
_symmetry_space_group_name_H-M	'P 1'

loop_
_symmetry_equiv_pos_as_xyz
  x,y,z

loop_
_atom_site_label
_atom_site_type_symbol
_atom_site_fract_x
_atom_site_fract_y
_atom_site_fract_z
_atom_site_charge
Ru	Ru	0.57560 0.63861 0.02316 0.94900
N 	N 	0.43010 0.62707 0.89590 -0.22100
N 	N 	0.66260 0.60553 0.91450 -0.21300
N 	N 	0.72960 0.64337 0.14710 -0.21100
N 	N 	0.55800 0.58222 0.10930 -0.21100
N 	N 	0.47390 0.67598 0.11360 -0.20800
N 	N 	0.59990 0.69921 0.95820 -0.20700
N 	N 	0.20390 0.51789 0.95210 -0.13600
C 	C 	0.30880 0.63503 0.89540 0.07400
H 	H 	0.28610 0.64690 0.96000 -0.00300
C 	C 	0.21640 0.62659 0.80490 -0.12900
H 	H 	0.13200 0.63240 0.80760 0.07300
C 	C 	0.24810 0.60990 0.71240 0.04700
H 	H 	0.18590 0.60430 0.64900 0.00900
C 	C 	0.37100 0.60105 0.71010 -0.12100
H 	H 	0.39390 0.58900 0.64560 0.06300
C 	C 	0.46020 0.60989 0.80250 0.05900
C 	C 	0.59210 0.59868 0.81240 0.03900
C 	C 	0.64440 0.58043 0.72850 -0.09200
H 	H 	0.59640 0.57720 0.65620 0.05400
C 	C 	0.76570 0.56719 0.75120 0.00100
H 	H 	0.80220 0.55530 0.69370 0.02400
C 	C 	0.77990 0.59111 0.93550 0.04500
H 	H 	0.82700 0.59500 0.00800 0.00700
C 	C 	0.83640 0.57092 0.85740 -0.06100
C 	C 	0.96450 0.55400 0.88910 0.09900
C 	C 	0.00890 0.52256 0.82510 -0.14700
H 	H 	0.95860 0.51240 0.75850 0.07700
C 	C 	0.12730 0.50638 0.85990 0.08200
H 	H 	0.15620 0.48530 0.81410 0.01300
C 	C 	0.16010 0.54756 0.01200 0.08100
H 	H 	0.21190 0.55660 0.07890 0.00500
C 	C 	0.04350 0.56642 0.98390 -0.14600
H 	H 	0.01850 0.58800 0.03050 0.07700
C 	C 	0.82080 0.67253 0.16130 0.04600
H 	H 	0.81800 0.69510 0.10820 0.00400
C 	C 	0.92000 0.67147 0.25020 -0.08100
H 	H 	0.98280 0.69310 0.25650 0.05200
C 	C 	0.92780 0.63990 0.32760 -0.03700
H 	H 	0.99600 0.63890 0.38800 0.03800
C 	C 	0.83300 0.60848 0.31730 0.00500
C 	C 	0.73640 0.61127 0.22560 0.02100
C 	C 	0.64320 0.57870 0.20580 0.02600
C 	C 	0.64290 0.54478 0.28030 0.00200
C 	C 	0.73930 0.54394 0.37750 -0.05300
H 	H 	0.73890 0.52160 0.43080 0.04200
C 	C 	0.82930 0.57382 0.39450 -0.05700
H 	H 	0.89210 0.57210 0.45920 0.04400
C 	C 	0.55050 0.51283 0.25350 -0.02900
H 	H 	0.54490 0.48960 0.30320 0.03700
C 	C 	0.46950 0.51557 0.15580 -0.08300
H 	H 	0.40780 0.49380 0.13610 0.06600
C 	C 	0.47640 0.54988 0.08490 0.05100
H 	H 	0.42050 0.55050 0.01580 0.01300
C 	C 	0.40600 0.66310 0.18750 0.04200
H 	H 	0.40460 0.63320 0.20650 0.00600
C 	C 	0.33710 0.69272 0.23730 -0.07300
H 	H 	0.28950 0.68270 0.28940 0.05100
C 	C 	0.33750 0.73575 0.21210 -0.03900
H 	H 	0.29090 0.75570 0.24680 0.04300
C 	C 	0.40650 0.75048 0.13510 0.01000
C 	C 	0.47290 0.71949 0.08700 0.02200
C 	C 	0.54250 0.73165 0.00550 0.02000
C 	C 	0.54920 0.77571 0.97600 0.01200
C 	C 	0.48200 0.80662 0.02720 -0.05600
H 	H 	0.48500 0.83640 0.00740 0.04500
C 	C 	0.41470 0.79500 0.10250 -0.05600
H 	H 	0.37140 0.81670 0.13520 0.05000
C 	C 	0.62220 0.78579 0.89620 -0.03700
H 	H 	0.63250 0.81520 0.87580 0.04500
C 	C 	0.67760 0.75327 0.84890 -0.07300
H 	H 	0.72520 0.75980 0.79380 0.05500
C 	C 	0.66480 0.71041 0.88100 0.04700
H 	H 	0.70400 0.68810 0.84650 0.00700
Ru	Ru	0.42440 0.13861 0.47684 0.95100
N 	N 	0.56990 0.12707 0.60410 -0.22100
N 	N 	0.33740 0.10553 0.58550 -0.21200
N 	N 	0.27040 0.14337 0.35290 -0.21000
N 	N 	0.44200 0.08222 0.39070 -0.21000
N 	N 	0.52610 0.17598 0.38640 -0.20700
N 	N 	0.40010 0.19921 0.54180 -0.20900
N 	N 	0.79610 0.01789 0.54790 -0.13800
C 	C 	0.69120 0.13503 0.60460 0.07300
H 	H 	0.71390 0.14690 0.54000 -0.00400
C 	C 	0.78360 0.12659 0.69510 -0.12900
H 	H 	0.86800 0.13240 0.69240 0.07300
C 	C 	0.75190 0.10990 0.78760 0.04700
H 	H 	0.81410 0.10430 0.85100 0.00800
C 	C 	0.62900 0.10105 0.78990 -0.12100
H 	H 	0.60610 0.08900 0.85440 0.06300
C 	C 	0.53980 0.10989 0.69750 0.05900
C 	C 	0.40790 0.09868 0.68760 0.03900
C 	C 	0.35560 0.08043 0.77150 -0.09300
H 	H 	0.40360 0.07720 0.84380 0.05400
C 	C 	0.23430 0.06719 0.74880 0.00200
H 	H 	0.19780 0.05530 0.80630 0.02400
C 	C 	0.22010 0.09111 0.56450 0.04500
H 	H 	0.17300 0.09500 0.49200 0.00700
C 	C 	0.16360 0.07092 0.64260 -0.06400
C 	C 	0.03550 0.05400 0.61090 0.10400
C 	C 	0.99110 0.02256 0.67490 -0.15200
H 	H 	0.04140 0.01240 0.74150 0.07900
C 	C 	0.87270 0.00638 0.64010 0.08400
H 	H 	0.84380 0.98530 0.68590 0.01100
C 	C 	0.83990 0.04756 0.48800 0.08700
H 	H 	0.78810 0.05660 0.42110 0.00300
C 	C 	0.95650 0.06642 0.51610 -0.15600
H 	H 	0.98150 0.08800 0.46950 0.08100
C 	C 	0.17920 0.17253 0.33870 0.04600
H 	H 	0.18200 0.19510 0.39180 0.00400
C 	C 	0.08000 0.17147 0.24980 -0.08100
H 	H 	0.01720 0.19310 0.24350 0.05200
C 	C 	0.07220 0.13990 0.17240 -0.03700
H 	H 	0.00400 0.13890 0.11200 0.03800
C 	C 	0.16700 0.10848 0.18270 0.00500
C 	C 	0.26360 0.11127 0.27440 0.02100
C 	C 	0.35680 0.07870 0.29420 0.02600
C 	C 	0.35710 0.04478 0.21970 0.00100
C 	C 	0.26070 0.04394 0.12250 -0.05200
H 	H 	0.26110 0.02160 0.06920 0.04200
C 	C 	0.17070 0.07382 0.10550 -0.05700
H 	H 	0.10790 0.07210 0.04080 0.04400
C 	C 	0.44950 0.01283 0.24650 -0.02900
H 	H 	0.45510 0.98960 0.19680 0.03700
C 	C 	0.53050 0.01557 0.34420 -0.08300
H 	H 	0.59220 0.99380 0.36390 0.06500
C 	C 	0.52360 0.04988 0.41510 0.05100
H 	H 	0.57950 0.05050 0.48420 0.01300
C 	C 	0.59400 0.16310 0.31250 0.04200
H 	H 	0.59540 0.13320 0.29350 0.00600
C 	C 	0.66290 0.19272 0.26270 -0.07200
H 	H 	0.71050 0.18270 0.21060 0.05100
C 	C 	0.66250 0.23575 0.28790 -0.04000
H 	H 	0.70910 0.25570 0.25320 0.04400
C 	C 	0.59350 0.25048 0.36490 0.01300
C 	C 	0.52710 0.21949 0.41300 0.02000
C 	C 	0.45750 0.23165 0.49450 0.02500
C 	C 	0.45080 0.27571 0.52400 0.00500
C 	C 	0.51800 0.30662 0.47280 -0.05000
H 	H 	0.51500 0.33640 0.49260 0.04300
C 	C 	0.58530 0.29500 0.39750 -0.06000
H 	H 	0.62860 0.31670 0.36480 0.05100
C 	C 	0.37780 0.28579 0.60380 -0.03300
H 	H 	0.36750 0.31520 0.62420 0.04400
C 	C 	0.32240 0.25327 0.65110 -0.07600
H 	H 	0.27480 0.25980 0.70620 0.05600
C 	C 	0.33520 0.21041 0.61900 0.04800
H 	H 	0.29600 0.18810 0.65350 0.00600
Ru	Ru	0.42440 0.36139 0.97684 0.95000
N 	N 	0.56990 0.37293 0.10410 -0.22000
N 	N 	0.33740 0.39447 0.08550 -0.21200
N 	N 	0.27040 0.35663 0.85290 -0.21000
N 	N 	0.44200 0.41778 0.89070 -0.21000
N 	N 	0.52610 0.32402 0.88640 -0.20700
N 	N 	0.40010 0.30079 0.04180 -0.20700
N 	N 	0.79610 0.48211 0.04790 -0.13600
C 	C 	0.69120 0.36497 0.10460 0.07400
H 	H 	0.71390 0.35310 0.04000 -0.00300
C 	C 	0.78360 0.37341 0.19510 -0.12900
H 	H 	0.86800 0.36760 0.19240 0.07300
C 	C 	0.75190 0.39010 0.28760 0.04700
H 	H 	0.81410 0.39570 0.35100 0.00900
C 	C 	0.62900 0.39895 0.28990 -0.12100
H 	H 	0.60610 0.41100 0.35440 0.06300
C 	C 	0.53980 0.39011 0.19750 0.05900
C 	C 	0.40790 0.40132 0.18760 0.03900
C 	C 	0.35560 0.41957 0.27150 -0.09200
H 	H 	0.40360 0.42280 0.34380 0.05400
C 	C 	0.23430 0.43281 0.24880 0.00100
H 	H 	0.19780 0.44470 0.30630 0.02400
C 	C 	0.22010 0.40889 0.06450 0.04500
H 	H 	0.17300 0.40500 0.99200 0.00700
C 	C 	0.16360 0.42908 0.14260 -0.06100
C 	C 	0.03550 0.44600 0.11090 0.09900
C 	C 	0.99110 0.47744 0.17490 -0.14700
H 	H 	0.04140 0.48760 0.24150 0.07700
C 	C 	0.87270 0.49362 0.14010 0.08200
H 	H 	0.84380 0.51470 0.18590 0.01300
C 	C 	0.83990 0.45244 0.98800 0.08100
H 	H 	0.78810 0.44340 0.92110 0.00500
C 	C 	0.95650 0.43358 0.01610 -0.14600
H 	H 	0.98150 0.41200 0.96950 0.07700
C 	C 	0.17920 0.32747 0.83870 0.04600
H 	H 	0.18200 0.30490 0.89180 0.00400
C 	C 	0.08000 0.32853 0.74980 -0.08100
H 	H 	0.01720 0.30690 0.74350 0.05200
C 	C 	0.07220 0.36010 0.67240 -0.03700
H 	H 	0.00400 0.36110 0.61200 0.03800
C 	C 	0.16700 0.39152 0.68270 0.00500
C 	C 	0.26360 0.38873 0.77440 0.02100
C 	C 	0.35680 0.42130 0.79420 0.02600
C 	C 	0.35710 0.45522 0.71970 0.00200
C 	C 	0.26070 0.45606 0.62250 -0.05300
H 	H 	0.26110 0.47840 0.56920 0.04200
C 	C 	0.17070 0.42618 0.60550 -0.05700
H 	H 	0.10790 0.42790 0.54080 0.04400
C 	C 	0.44950 0.48717 0.74650 -0.02900
H 	H 	0.45510 0.51040 0.69680 0.03700
C 	C 	0.53050 0.48443 0.84420 -0.08300
H 	H 	0.59220 0.50620 0.86390 0.06600
C 	C 	0.52360 0.45012 0.91510 0.05100
H 	H 	0.57950 0.44950 0.98420 0.01300
C 	C 	0.59400 0.33690 0.81250 0.04200
H 	H 	0.59540 0.36680 0.79350 0.00600
C 	C 	0.66290 0.30728 0.76270 -0.07300
H 	H 	0.71050 0.31730 0.71060 0.05100
C 	C 	0.66250 0.26425 0.78790 -0.03900
H 	H 	0.70910 0.24430 0.75320 0.04300
C 	C 	0.59350 0.24952 0.86490 0.01000
C 	C 	0.52710 0.28051 0.91300 0.02200
C 	C 	0.45750 0.26835 0.99450 0.02000
C 	C 	0.45080 0.22429 0.02400 0.01200
C 	C 	0.51800 0.19338 0.97280 -0.05600
H 	H 	0.51500 0.16360 0.99260 0.04500
C 	C 	0.58530 0.20500 0.89750 -0.05600
H 	H 	0.62860 0.18330 0.86480 0.05000
C 	C 	0.37780 0.21421 0.10380 -0.03700
H 	H 	0.36750 0.18480 0.12420 0.04500
C 	C 	0.32240 0.24673 0.15110 -0.07300
H 	H 	0.27480 0.24020 0.20620 0.05500
C 	C 	0.33520 0.28959 0.11900 0.04700
H 	H 	0.29600 0.31190 0.15350 0.00700
Ru	Ru	0.57560 0.86139 0.52316 0.95100
N 	N 	0.43010 0.87293 0.39590 -0.22100
N 	N 	0.66260 0.89447 0.41450 -0.21200
N 	N 	0.72960 0.85663 0.64710 -0.21000
N 	N 	0.55800 0.91778 0.60930 -0.21000
N 	N 	0.47390 0.82402 0.61360 -0.20700
N 	N 	0.59990 0.80079 0.45820 -0.20900
N 	N 	0.20390 0.98211 0.45210 -0.13800
C 	C 	0.30880 0.86497 0.39540 0.07300
H 	H 	0.28610 0.85310 0.46000 -0.00400
C 	C 	0.21640 0.87341 0.30490 -0.12900
H 	H 	0.13200 0.86760 0.30760 0.07300
C 	C 	0.24810 0.89010 0.21240 0.04700
H 	H 	0.18590 0.89570 0.14900 0.00800
C 	C 	0.37100 0.89895 0.21010 -0.12100
H 	H 	0.39390 0.91100 0.14560 0.06300
C 	C 	0.46020 0.89011 0.30250 0.05900
C 	C 	0.59210 0.90132 0.31240 0.03900
C 	C 	0.64440 0.91957 0.22850 -0.09300
H 	H 	0.59640 0.92280 0.15620 0.05400
C 	C 	0.76570 0.93281 0.25120 0.00200
H 	H 	0.80220 0.94470 0.19370 0.02400
C 	C 	0.77990 0.90889 0.43550 0.04500
H 	H 	0.82700 0.90500 0.50800 0.00700
C 	C 	0.83640 0.92908 0.35740 -0.06400
C 	C 	0.96450 0.94600 0.38910 0.10400
C 	C 	0.00890 0.97744 0.32510 -0.15200
H 	H 	0.95860 0.98760 0.25850 0.07900
C 	C 	0.12730 0.99362 0.35990 0.08400
H 	H 	0.15620 0.01470 0.31410 0.01100
C 	C 	0.16010 0.95244 0.51200 0.08700
H 	H 	0.21190 0.94340 0.57890 0.00300
C 	C 	0.04350 0.93358 0.48390 -0.15600
H 	H 	0.01850 0.91200 0.53050 0.08100
C 	C 	0.82080 0.82747 0.66130 0.04600
H 	H 	0.81800 0.80490 0.60820 0.00400
C 	C 	0.92000 0.82853 0.75020 -0.08100
H 	H 	0.98280 0.80690 0.75650 0.05200
C 	C 	0.92780 0.86010 0.82760 -0.03700
H 	H 	0.99600 0.86110 0.88800 0.03800
C 	C 	0.83300 0.89152 0.81730 0.00500
C 	C 	0.73640 0.88873 0.72560 0.02100
C 	C 	0.64320 0.92130 0.70580 0.02600
C 	C 	0.64290 0.95522 0.78030 0.00100
C 	C 	0.73930 0.95606 0.87750 -0.05200
H 	H 	0.73890 0.97840 0.93080 0.04200
C 	C 	0.82930 0.92618 0.89450 -0.05700
H 	H 	0.89210 0.92790 0.95920 0.04400
C 	C 	0.55050 0.98717 0.75350 -0.02900
H 	H 	0.54490 0.01040 0.80320 0.03700
C 	C 	0.46950 0.98443 0.65580 -0.08300
H 	H 	0.40780 0.00620 0.63610 0.06500
C 	C 	0.47640 0.95012 0.58490 0.05100
H 	H 	0.42050 0.94950 0.51580 0.01300
C 	C 	0.40600 0.83690 0.68750 0.04200
H 	H 	0.40460 0.86680 0.70650 0.00600
C 	C 	0.33710 0.80728 0.73730 -0.07200
H 	H 	0.28950 0.81730 0.78940 0.05100
C 	C 	0.33750 0.76425 0.71210 -0.04000
H 	H 	0.29090 0.74430 0.74680 0.04400
C 	C 	0.40650 0.74952 0.63510 0.01300
C 	C 	0.47290 0.78051 0.58700 0.02000
C 	C 	0.54250 0.76835 0.50550 0.02500
C 	C 	0.54920 0.72429 0.47600 0.00500
C 	C 	0.48200 0.69338 0.52720 -0.05000
H 	H 	0.48500 0.66360 0.50740 0.04300
C 	C 	0.41470 0.70500 0.60250 -0.06000
H 	H 	0.37140 0.68330 0.63520 0.05100
C 	C 	0.62220 0.71421 0.39620 -0.03300
H 	H 	0.63250 0.68480 0.37580 0.04400
C 	C 	0.67760 0.74673 0.34890 -0.07600
H 	H 	0.72520 0.74020 0.29380 0.05600
C 	C 	0.66480 0.78959 0.38100 0.04800
H 	H 	0.70400 0.81190 0.34650 0.00600
