data_crystal

_cell_length_a 10.57850
_cell_length_b 14.49390
_cell_length_c 20.50000
_cell_angle_alpha 90.00000
_cell_angle_beta  97.35500
_cell_angle_gamma 90.00000

_symmetry_space_group_name_	'P 1'
_symmetry_space_group_name_H-M	'P 1'

loop_
_symmetry_equiv_pos_as_xyz
  x,y,z

loop_
_atom_site_label
_atom_site_type_symbol
_atom_site_fract_x
_atom_site_fract_y
_atom_site_fract_z
_atom_site_charge
Cd	Cd	0.80905 0.33828 0.55194 1.21700
O 	O 	0.94681 0.23366 0.60155 -0.42800
N 	N 	0.79920 0.45125 0.47519 -0.25400
O 	O 	0.00940 0.28813 0.51053 -0.38800
N 	N 	0.31670 0.22669 0.00388 -0.23700
C 	C 	0.61800 0.77824 0.26986 0.03000
O 	O 	0.81550 0.44160 0.63990 -0.38000
C 	C 	0.63390 0.71117 0.31764 -0.08500
H 	H 	0.56800 0.69850 0.34380 0.07200
O 	O 	0.63000 0.37480 0.60462 -0.39200
C 	C 	0.74900 0.66162 0.32728 -0.00500
C 	C 	0.84410 0.68208 0.28758 -0.03600
H 	H 	0.92200 0.64870 0.29390 0.04600
C 	C 	0.82740 0.74965 0.23942 -0.06100
H 	H 	0.89300 0.76290 0.21320 0.05900
C 	C 	0.71290 0.79761 0.23024 -0.00400
C 	C 	0.66540 0.87047 0.18335 -0.00800
C 	C 	0.72060 0.91560 0.13387 -0.05300
H 	H 	0.80350 0.89930 0.12470 0.05500
C 	C 	0.65240 0.98440 0.09851 -0.04800
H 	H 	0.69020 0.01580 0.06520 0.04700
C 	C 	0.52890 0.00947 0.11019 0.00700
C 	C 	0.47350 0.96274 0.15954 -0.08700
H 	H 	0.39030 0.97840 0.16850 0.06000
C 	C 	0.54150 0.89407 0.19462 0.03200
C 	C 	0.70870 0.51330 0.47280 0.09800
H 	H 	0.65300 0.51080 0.50560 -0.01700
C 	C 	0.68870 0.58160 0.42610 -0.15700
H 	H 	0.62010 0.62370 0.42710 0.09300
C 	C 	0.76730 0.58920 0.37815 0.09700
C 	C 	0.86700 0.52800 0.38310 -0.16200
H 	H 	0.92770 0.53140 0.35280 0.08800
C 	C 	0.88010 0.46170 0.43140 0.08700
H 	H 	0.95100 0.42110 0.43350 -0.00000
C 	C 	0.44350 0.22260 0.00770 0.07500
H 	H 	0.48600 0.26910 0.98610 -0.00200
C 	C 	0.51630 0.15440 0.04130 -0.13000
H 	H 	0.60650 0.15540 0.04310 0.07100
C 	C 	0.45740 0.08410 0.07256 0.06700
C 	C 	0.32440 0.08840 0.06784 -0.12800
H 	H 	0.27890 0.04210 0.08790 0.07200
C 	C 	0.25950 0.15970 0.03411 0.06800
H 	H 	0.16930 0.16140 0.03220 -0.00200
C 	C 	0.02310 0.23426 0.55863 0.39200
C 	C 	0.12620 0.16100 0.56399 -0.39400
H 	H 	0.19890 0.18150 0.54160 0.14900
H 	H 	0.15760 0.14820 0.61070 0.15200
C 	C 	0.06570 0.07538 0.53103 0.13500
C 	C 	0.05650 0.06450 0.46352 -0.09700
H 	H 	0.09460 0.10890 0.43800 0.06600
C 	C 	0.99240 0.98980 0.43263 -0.09600
H 	H 	0.98800 0.98290 0.38630 0.06500
C 	C 	0.69760 0.42460 0.64390 0.32000
H 	H 	0.66010 0.45190 0.67890 -0.04900
Cd	Cd	0.19095 0.33828 0.94806 1.21700
O 	O 	0.05319 0.23366 0.89845 -0.42800
N 	N 	0.20080 0.45125 0.02481 -0.25300
O 	O 	0.99060 0.28813 0.98947 -0.38700
N 	N 	0.68330 0.22669 0.49612 -0.23600
C 	C 	0.38200 0.77824 0.23014 0.03100
O 	O 	0.18450 0.44160 0.86010 -0.38000
C 	C 	0.36610 0.71117 0.18236 -0.08500
H 	H 	0.43200 0.69850 0.15620 0.07200
O 	O 	0.37000 0.37480 0.89538 -0.39200
C 	C 	0.25100 0.66162 0.17272 -0.00500
C 	C 	0.15590 0.68208 0.21242 -0.03600
H 	H 	0.07800 0.64870 0.20610 0.04600
C 	C 	0.17260 0.74965 0.26058 -0.06100
H 	H 	0.10700 0.76290 0.28680 0.06000
C 	C 	0.28710 0.79761 0.26976 -0.00400
C 	C 	0.33460 0.87047 0.31665 -0.00800
C 	C 	0.27940 0.91560 0.36613 -0.05500
H 	H 	0.19650 0.89930 0.37530 0.05600
C 	C 	0.34760 0.98440 0.40149 -0.04600
H 	H 	0.30980 0.01580 0.43480 0.04600
C 	C 	0.47110 0.00947 0.38981 0.00500
C 	C 	0.52650 0.96274 0.34046 -0.08600
H 	H 	0.60970 0.97840 0.33150 0.06000
C 	C 	0.45850 0.89407 0.30538 0.03100
C 	C 	0.29130 0.51330 0.02720 0.09900
H 	H 	0.34700 0.51080 0.99440 -0.01800
C 	C 	0.31130 0.58160 0.07390 -0.15700
H 	H 	0.37990 0.62370 0.07290 0.09300
C 	C 	0.23270 0.58920 0.12185 0.09700
C 	C 	0.13300 0.52800 0.11690 -0.16300
H 	H 	0.07230 0.53140 0.14720 0.08900
C 	C 	0.11990 0.46170 0.06860 0.08700
H 	H 	0.04900 0.42110 0.06650 0.00000
C 	C 	0.55650 0.22260 0.49230 0.07400
H 	H 	0.51400 0.26910 0.51390 -0.00200
C 	C 	0.48370 0.15440 0.45870 -0.13000
H 	H 	0.39350 0.15540 0.45690 0.07100
C 	C 	0.54260 0.08410 0.42744 0.06700
C 	C 	0.67560 0.08840 0.43216 -0.12900
H 	H 	0.72110 0.04210 0.41210 0.07200
C 	C 	0.74050 0.15970 0.46589 0.06800
H 	H 	0.83070 0.16140 0.46780 -0.00300
C 	C 	0.97690 0.23426 0.94137 0.39400
C 	C 	0.87380 0.16100 0.93601 -0.39500
H 	H 	0.80110 0.18150 0.95840 0.15000
H 	H 	0.84240 0.14820 0.88930 0.15300
C 	C 	0.93430 0.07538 0.96897 0.13600
C 	C 	0.94350 0.06450 0.03648 -0.09900
H 	H 	0.90540 0.10890 0.06200 0.06700
C 	C 	0.00760 0.98980 0.06737 -0.09400
H 	H 	0.01200 0.98290 0.11370 0.06400
C 	C 	0.30240 0.42460 0.85610 0.32000
H 	H 	0.33990 0.45190 0.82110 -0.04900
Cd	Cd	0.19095 0.66172 0.44806 1.21800
O 	O 	0.05319 0.76634 0.39845 -0.42700
N 	N 	0.20080 0.54875 0.52481 -0.25300
O 	O 	0.99060 0.71187 0.48947 -0.38700
N 	N 	0.68330 0.77331 0.99612 -0.23600
C 	C 	0.38200 0.22176 0.73014 0.03100
O 	O 	0.18450 0.55840 0.36010 -0.38000
C 	C 	0.36610 0.28883 0.68236 -0.08500
H 	H 	0.43200 0.30150 0.65620 0.07200
O 	O 	0.37000 0.62520 0.39538 -0.39200
C 	C 	0.25100 0.33838 0.67272 -0.00500
C 	C 	0.15590 0.31792 0.71242 -0.03600
H 	H 	0.07800 0.35130 0.70610 0.04600
C 	C 	0.17260 0.25035 0.76058 -0.06100
H 	H 	0.10700 0.23710 0.78680 0.05900
C 	C 	0.28710 0.20239 0.76976 -0.00400
C 	C 	0.33460 0.12953 0.81665 -0.00800
C 	C 	0.27940 0.08440 0.86613 -0.05300
H 	H 	0.19650 0.10070 0.87530 0.05500
C 	C 	0.34760 0.01560 0.90149 -0.04800
H 	H 	0.30980 0.98420 0.93480 0.04700
C 	C 	0.47110 0.99053 0.88981 0.00700
C 	C 	0.52650 0.03726 0.84046 -0.08700
H 	H 	0.60970 0.02160 0.83150 0.06000
C 	C 	0.45850 0.10593 0.80538 0.03200
C 	C 	0.29130 0.48670 0.52720 0.09800
H 	H 	0.34700 0.48920 0.49440 -0.01700
C 	C 	0.31130 0.41840 0.57390 -0.15700
H 	H 	0.37990 0.37630 0.57290 0.09300
C 	C 	0.23270 0.41080 0.62185 0.09700
C 	C 	0.13300 0.47200 0.61690 -0.16200
H 	H 	0.07230 0.46860 0.64720 0.08800
C 	C 	0.11990 0.53830 0.56860 0.08700
H 	H 	0.04900 0.57890 0.56650 -0.00000
C 	C 	0.55650 0.77740 0.99230 0.07500
H 	H 	0.51400 0.73090 0.01390 -0.00200
C 	C 	0.48370 0.84560 0.95870 -0.13000
H 	H 	0.39350 0.84460 0.95690 0.07100
C 	C 	0.54260 0.91590 0.92744 0.06700
C 	C 	0.67560 0.91160 0.93216 -0.12800
H 	H 	0.72110 0.95790 0.91210 0.07200
C 	C 	0.74050 0.84030 0.96589 0.06800
H 	H 	0.83070 0.83860 0.96780 -0.00200
C 	C 	0.97690 0.76574 0.44137 0.39200
C 	C 	0.87380 0.83900 0.43601 -0.39400
H 	H 	0.80110 0.81850 0.45840 0.14900
H 	H 	0.84240 0.85180 0.38930 0.15200
C 	C 	0.93430 0.92462 0.46897 0.13500
C 	C 	0.94350 0.93550 0.53648 -0.09700
H 	H 	0.90540 0.89110 0.56200 0.06600
C 	C 	0.00760 0.01020 0.56737 -0.09600
H 	H 	0.01200 0.01710 0.61370 0.06500
C 	C 	0.30240 0.57540 0.35610 0.32000
H 	H 	0.33990 0.54810 0.32110 -0.04900
Cd	Cd	0.80905 0.66172 0.05194 1.21700
O 	O 	0.94681 0.76634 0.10155 -0.42800
N 	N 	0.79920 0.54875 0.97519 -0.25300
O 	O 	0.00940 0.71187 0.01053 -0.38700
N 	N 	0.31670 0.77331 0.50388 -0.23600
C 	C 	0.61800 0.22176 0.76986 0.03100
O 	O 	0.81550 0.55840 0.13990 -0.38000
C 	C 	0.63390 0.28883 0.81764 -0.08500
H 	H 	0.56800 0.30150 0.84380 0.07200
O 	O 	0.63000 0.62520 0.10462 -0.39200
C 	C 	0.74900 0.33838 0.82728 -0.00500
C 	C 	0.84410 0.31792 0.78758 -0.03600
H 	H 	0.92200 0.35130 0.79390 0.04600
C 	C 	0.82740 0.25035 0.73942 -0.06100
H 	H 	0.89300 0.23710 0.71320 0.06000
C 	C 	0.71290 0.20239 0.73024 -0.00400
C 	C 	0.66540 0.12953 0.68335 -0.00800
C 	C 	0.72060 0.08440 0.63387 -0.05500
H 	H 	0.80350 0.10070 0.62470 0.05600
C 	C 	0.65240 0.01560 0.59851 -0.04600
H 	H 	0.69020 0.98420 0.56520 0.04600
C 	C 	0.52890 0.99053 0.61019 0.00500
C 	C 	0.47350 0.03726 0.65954 -0.08600
H 	H 	0.39030 0.02160 0.66850 0.06000
C 	C 	0.54150 0.10593 0.69462 0.03100
C 	C 	0.70870 0.48670 0.97280 0.09900
H 	H 	0.65300 0.48920 0.00560 -0.01800
C 	C 	0.68870 0.41840 0.92610 -0.15700
H 	H 	0.62010 0.37630 0.92710 0.09300
C 	C 	0.76730 0.41080 0.87815 0.09700
C 	C 	0.86700 0.47200 0.88310 -0.16300
H 	H 	0.92770 0.46860 0.85280 0.08900
C 	C 	0.88010 0.53830 0.93140 0.08700
H 	H 	0.95100 0.57890 0.93350 0.00000
C 	C 	0.44350 0.77740 0.50770 0.07400
H 	H 	0.48600 0.73090 0.48610 -0.00200
C 	C 	0.51630 0.84560 0.54130 -0.13000
H 	H 	0.60650 0.84460 0.54310 0.07100
C 	C 	0.45740 0.91590 0.57256 0.06700
C 	C 	0.32440 0.91160 0.56784 -0.12900
H 	H 	0.27890 0.95790 0.58790 0.07200
C 	C 	0.25950 0.84030 0.53411 0.06800
H 	H 	0.16930 0.83860 0.53220 -0.00300
C 	C 	0.02310 0.76574 0.05863 0.39400
C 	C 	0.12620 0.83900 0.06399 -0.39500
H 	H 	0.19890 0.81850 0.04160 0.15000
H 	H 	0.15760 0.85180 0.11070 0.15300
C 	C 	0.06570 0.92462 0.03103 0.13600
C 	C 	0.05650 0.93550 0.96352 -0.09900
H 	H 	0.09460 0.89110 0.93800 0.06700
C 	C 	0.99240 0.01020 0.93263 -0.09400
H 	H 	0.98800 0.01710 0.88630 0.06400
C 	C 	0.69760 0.57540 0.14390 0.32000
H 	H 	0.66010 0.54810 0.17890 -0.04900
C 	C 	0.50000 0.83710 0.25000 -0.04700
C 	C 	0.50000 0.16290 0.75000 -0.04700
