data_crystal

_cell_length_a 7.67890
_cell_length_b 13.77710
_cell_length_c 8.70800
_cell_angle_alpha 90.00000
_cell_angle_beta  107.60600
_cell_angle_gamma 90.00000

_symmetry_space_group_name_	'P 1'
_symmetry_space_group_name_H-M	'P 1'

loop_
_symmetry_equiv_pos_as_xyz
  x,y,z

loop_
_atom_site_label
_atom_site_type_symbol
_atom_site_fract_x
_atom_site_fract_y
_atom_site_fract_z
_atom_site_charge
Cu	Cu	0.15389 0.14078 0.35918 0.87900
O 	O 	0.11650 0.16790 0.12988 -0.46300
N 	N 	0.17530 0.08634 0.58340 -0.22500
N 	N 	0.96870 0.03023 0.29460 -0.22700
C 	C 	0.05730 0.01554 0.58010 0.03900
C 	C 	0.28240 0.11383 0.72940 0.06600
H 	H 	0.36970 0.16400 0.73800 0.00100
C 	C 	0.86200 0.00273 0.14860 0.07000
H 	H 	0.87510 0.03350 0.05500 0.00500
C 	C 	0.73310 0.93013 0.13260 -0.13800
H 	H 	0.65700 0.91100 0.02930 0.06700
Cu	Cu	0.84611 0.64078 0.64082 0.88000
O 	O 	0.88350 0.66790 0.87012 -0.46100
N 	N 	0.82470 0.58634 0.41660 -0.22500
N 	N 	0.03130 0.53023 0.70540 -0.22800
C 	C 	0.94270 0.51554 0.41990 0.04000
C 	C 	0.71760 0.61383 0.27060 0.06500
H 	H 	0.63030 0.66400 0.26200 0.00100
C 	C 	0.13800 0.50273 0.85140 0.06800
H 	H 	0.12490 0.53350 0.94500 0.00500
C 	C 	0.26690 0.43013 0.86740 -0.13600
H 	H 	0.34300 0.41100 0.97070 0.06700
Cu	Cu	0.84611 0.85922 0.64082 0.88000
O 	O 	0.88350 0.83210 0.87012 -0.46200
N 	N 	0.82470 0.91366 0.41660 -0.22500
N 	N 	0.03130 0.96977 0.70540 -0.22700
C 	C 	0.94270 0.98446 0.41990 0.03900
C 	C 	0.71760 0.88617 0.27060 0.06600
H 	H 	0.63030 0.83600 0.26200 0.00100
C 	C 	0.13800 0.99727 0.85140 0.07000
H 	H 	0.12490 0.96650 0.94500 0.00500
C 	C 	0.26690 0.06987 0.86740 -0.13800
H 	H 	0.34300 0.08900 0.97070 0.06700
Cu	Cu	0.15389 0.35922 0.35918 0.88000
O 	O 	0.11650 0.33210 0.12988 -0.46100
N 	N 	0.17530 0.41366 0.58340 -0.22500
N 	N 	0.96870 0.46977 0.29460 -0.22800
C 	C 	0.05730 0.48446 0.58010 0.04000
C 	C 	0.28240 0.38617 0.72940 0.06500
H 	H 	0.36970 0.33600 0.73800 0.00100
C 	C 	0.86200 0.49727 0.14860 0.06800
H 	H 	0.87510 0.46650 0.05500 0.00500
C 	C 	0.73310 0.56987 0.13260 -0.13600
H 	H 	0.65700 0.58900 0.02930 0.06700
C 	C 	0.10140 0.25000 0.06460 0.40100
H 	H 	0.07500 0.25000 0.95070 -0.08700
O 	O 	0.30630 0.25000 0.44410 -1.00300
H 	H 	0.38000 0.25000 0.41700 0.53800
C 	C 	0.89860 0.75000 0.93540 0.40100
H 	H 	0.92500 0.75000 0.04930 -0.08700
O 	O 	0.69370 0.75000 0.55590 -1.00300
H 	H 	0.62000 0.75000 0.58300 0.53800
