data_crystal

_cell_length_a 21.71700
_cell_length_b 23.36900
_cell_length_c 15.07100
_cell_angle_alpha 90.00000
_cell_angle_beta  90.00000
_cell_angle_gamma 90.00000

_symmetry_space_group_name_	'P 1'
_symmetry_space_group_name_H-M	'P 1'

loop_
_symmetry_equiv_pos_as_xyz
  x,y,z

loop_
_atom_site_label
_atom_site_type_symbol
_atom_site_fract_x
_atom_site_fract_y
_atom_site_fract_z
_atom_site_charge
Cs	Cs	0.55817 0.52697 0.85943 0.62700
Cu	Cu	0.55865 0.68578 0.91513 0.89900
Si	Si	0.69306 0.62504 0.72359 2.16100
Si	Si	0.56325 0.63730 0.67961 2.04000
Si	Si	0.43255 0.62408 0.71886 2.12800
Si	Si	0.42346 0.62932 0.92011 2.03400
Si	Si	0.69322 0.62921 0.92514 2.09500
O 	O 	0.69300 0.69200 0.70360 -0.97100
O 	O 	0.56240 0.69560 0.73720 -0.96500
O 	O 	0.43250 0.69140 0.70420 -0.93500
O 	O 	0.62300 0.59880 0.70760 -1.16600
O 	O 	0.50310 0.59820 0.70390 -1.15500
O 	O 	0.41170 0.60560 0.81970 -1.16400
O 	O 	0.49520 0.63160 0.94410 -0.91000
O 	O 	0.62040 0.63000 0.93800 -0.93300
O 	O 	0.71360 0.60950 0.82500 -1.18500
O 	O 	0.72160 0.69410 0.94180 -1.15300
O 	O 	0.39320 0.69420 0.92810 -1.11000
C 	C 	0.73230 0.57950 0.00250 -1.58500
H 	H 	0.72510 0.59190 0.06370 0.37400
H 	H 	0.77670 0.57950 0.99040 0.38800
H 	H 	0.71590 0.54080 0.99430 0.37300
C 	C 	0.74600 0.58590 0.65010 -1.68500
H 	H 	0.73770 0.59640 0.58830 0.38300
H 	H 	0.73990 0.54460 0.65780 0.41900
H 	H 	0.78860 0.59580 0.66510 0.42400
C 	C 	0.56530 0.65110 0.55920 -1.57600
H 	H 	0.57180 0.61500 0.52750 0.37100
H 	H 	0.59900 0.67750 0.54570 0.33500
H 	H 	0.52610 0.66810 0.54050 0.35400
C 	C 	0.38040 0.58530 0.64300 -1.66200
H 	H 	0.33760 0.59500 0.65700 0.41800
H 	H 	0.38650 0.54400 0.65010 0.41100
H 	H 	0.38950 0.59620 0.58160 0.39300
C 	C 	0.38110 0.58080 0.99590 -1.54400
H 	H 	0.33710 0.58980 0.99360 0.36200
H 	H 	0.39630 0.58600 0.05660 0.32700
H 	H 	0.38760 0.54110 0.97740 0.34400
H 	H 	0.40600 0.75650 0.10720 0.13000
H 	H 	0.47450 0.78050 0.09410 0.13900
H 	H 	0.46240 0.71300 0.09640 0.11800
H 	H 	0.62940 0.77750 0.09880 0.18800
H 	H 	0.69930 0.76090 0.12040 0.19900
H 	H 	0.64920 0.71160 0.10490 0.19800
Cs	Cs	0.94183 0.47303 0.35943 0.62700
Cu	Cu	0.94135 0.31422 0.41513 0.89900
Si	Si	0.80694 0.37496 0.22359 2.16400
Si	Si	0.93675 0.36270 0.17961 2.04200
Si	Si	0.06745 0.37592 0.21886 2.11600
Si	Si	0.07654 0.37068 0.42011 2.03300
Si	Si	0.80678 0.37079 0.42514 2.11800
O 	O 	0.80700 0.30800 0.20360 -0.97200
O 	O 	0.93760 0.30440 0.23720 -0.96400
O 	O 	0.06750 0.30860 0.20420 -0.93400
O 	O 	0.87700 0.40120 0.20760 -1.16700
O 	O 	0.99690 0.40180 0.20390 -1.15000
O 	O 	0.08830 0.39440 0.31970 -1.16200
O 	O 	0.00480 0.36840 0.44410 -0.91000
O 	O 	0.87960 0.37000 0.43800 -0.93700
O 	O 	0.78640 0.39050 0.32500 -1.19000
O 	O 	0.77840 0.30590 0.44180 -1.15800
O 	O 	0.10680 0.30580 0.42810 -1.11100
C 	C 	0.76770 0.42050 0.50250 -1.63100
H 	H 	0.77490 0.40810 0.56370 0.38500
H 	H 	0.72330 0.42050 0.49040 0.40400
H 	H 	0.78410 0.45920 0.49430 0.38800
C 	C 	0.75400 0.41410 0.15010 -1.68800
H 	H 	0.76230 0.40360 0.08830 0.38400
H 	H 	0.76010 0.45540 0.15780 0.42100
H 	H 	0.71140 0.40420 0.16510 0.42500
C 	C 	0.93470 0.34890 0.05920 -1.57900
H 	H 	0.92820 0.38500 0.02750 0.37300
H 	H 	0.90100 0.32250 0.04570 0.33600
H 	H 	0.97390 0.33190 0.04050 0.35700
C 	C 	0.11960 0.41470 0.14300 -1.65400
H 	H 	0.16240 0.40500 0.15700 0.41600
H 	H 	0.11350 0.45600 0.15010 0.40800
H 	H 	0.11050 0.40380 0.08160 0.38900
C 	C 	0.11890 0.41920 0.49590 -1.54500
H 	H 	0.16290 0.41020 0.49360 0.36200
H 	H 	0.10370 0.41400 0.55660 0.32800
H 	H 	0.11240 0.45890 0.47740 0.34300
H 	H 	0.09400 0.24350 0.60720 0.13100
H 	H 	0.02550 0.21950 0.59410 0.13900
H 	H 	0.03760 0.28700 0.59640 0.11800
H 	H 	0.87060 0.22250 0.59880 0.18900
H 	H 	0.80070 0.23910 0.62040 0.19900
H 	H 	0.85080 0.28840 0.60490 0.19800
Cs	Cs	0.44183 0.02697 0.14057 0.62600
Cu	Cu	0.44135 0.18578 0.08487 0.89800
Si	Si	0.30694 0.12504 0.27641 2.15900
Si	Si	0.43675 0.13730 0.32039 2.04000
Si	Si	0.56745 0.12408 0.28114 2.12800
Si	Si	0.57654 0.12932 0.07989 2.03800
Si	Si	0.30678 0.12921 0.07486 2.07900
O 	O 	0.30700 0.19200 0.29640 -0.97100
O 	O 	0.43760 0.19560 0.26280 -0.96500
O 	O 	0.56750 0.19140 0.29580 -0.93500
O 	O 	0.37700 0.09880 0.29240 -1.16600
O 	O 	0.49690 0.09820 0.29610 -1.15500
O 	O 	0.58830 0.10560 0.18030 -1.16500
O 	O 	0.50480 0.13160 0.05590 -0.91100
O 	O 	0.37960 0.13000 0.06200 -0.93000
O 	O 	0.28640 0.10950 0.17500 -1.18100
O 	O 	0.27840 0.19410 0.05820 -1.15000
O 	O 	0.60680 0.19420 0.07190 -1.11100
C 	C 	0.26770 0.07950 0.99750 -1.55100
H 	H 	0.27490 0.09190 0.93630 0.36600
H 	H 	0.22330 0.07950 0.00960 0.37600
H 	H 	0.28410 0.04080 0.00570 0.36100
C 	C 	0.25400 0.08590 0.34990 -1.68400
H 	H 	0.26230 0.09640 0.41170 0.38300
H 	H 	0.26010 0.04460 0.34220 0.41900
H 	H 	0.21140 0.09580 0.33490 0.42300
C 	C 	0.43470 0.15110 0.44080 -1.57700
H 	H 	0.42820 0.11500 0.47250 0.37100
H 	H 	0.40100 0.17750 0.45430 0.33500
H 	H 	0.47390 0.16810 0.45950 0.35400
C 	C 	0.61960 0.08530 0.35700 -1.66200
H 	H 	0.66240 0.09500 0.34300 0.41800
H 	H 	0.61350 0.04400 0.34990 0.41100
H 	H 	0.61050 0.09620 0.41840 0.39300
C 	C 	0.61890 0.08080 0.00410 -1.55700
H 	H 	0.66290 0.08980 0.00640 0.36500
H 	H 	0.60370 0.08600 0.94340 0.33400
H 	H 	0.61240 0.04110 0.02260 0.34600
H 	H 	0.59400 0.25650 0.89280 0.13000
H 	H 	0.52550 0.28050 0.90590 0.13800
H 	H 	0.53760 0.21300 0.90360 0.11800
H 	H 	0.37060 0.27750 0.90120 0.18800
H 	H 	0.30070 0.26090 0.87960 0.19900
H 	H 	0.35080 0.21160 0.89510 0.19900
Cs	Cs	0.05817 0.97303 0.64057 0.62600
Cu	Cu	0.05865 0.81422 0.58487 0.89900
Si	Si	0.19306 0.87496 0.77641 2.16400
Si	Si	0.06325 0.86270 0.82039 2.04100
Si	Si	0.93255 0.87592 0.78114 2.11600
Si	Si	0.92346 0.87068 0.57989 2.03400
Si	Si	0.19322 0.87079 0.57486 2.11800
O 	O 	0.19300 0.80800 0.79640 -0.97200
O 	O 	0.06240 0.80440 0.76280 -0.96400
O 	O 	0.93250 0.80860 0.79580 -0.93400
O 	O 	0.12300 0.90120 0.79240 -1.16700
O 	O 	0.00310 0.90180 0.79610 -1.15000
O 	O 	0.91170 0.89440 0.68030 -1.16200
O 	O 	0.99520 0.86840 0.55590 -0.91000
O 	O 	0.12040 0.87000 0.56200 -0.93700
O 	O 	0.21360 0.89050 0.67500 -1.19000
O 	O 	0.22160 0.80590 0.55820 -1.15800
O 	O 	0.89320 0.80580 0.57190 -1.11100
C 	C 	0.23230 0.92050 0.49750 -1.63200
H 	H 	0.22510 0.90810 0.43630 0.38500
H 	H 	0.27670 0.92050 0.50960 0.40400
H 	H 	0.21590 0.95920 0.50570 0.38900
C 	C 	0.24600 0.91410 0.84990 -1.68700
H 	H 	0.23770 0.90360 0.91170 0.38400
H 	H 	0.23990 0.95540 0.84220 0.42100
H 	H 	0.28860 0.90420 0.83490 0.42400
C 	C 	0.06530 0.84890 0.94080 -1.57900
H 	H 	0.07180 0.88500 0.97250 0.37200
H 	H 	0.09900 0.82250 0.95430 0.33500
H 	H 	0.02610 0.83190 0.95950 0.35600
C 	C 	0.88040 0.91470 0.85700 -1.65300
H 	H 	0.83760 0.90500 0.84300 0.41600
H 	H 	0.88650 0.95600 0.84990 0.40700
H 	H 	0.88950 0.90380 0.91840 0.38900
C 	C 	0.88110 0.91920 0.50410 -1.54600
H 	H 	0.83710 0.91020 0.50640 0.36200
H 	H 	0.89630 0.91400 0.44340 0.32900
H 	H 	0.88760 0.95890 0.52260 0.34300
H 	H 	0.90600 0.74350 0.39280 0.13100
H 	H 	0.97450 0.71950 0.40590 0.13900
H 	H 	0.96240 0.78700 0.40360 0.11800
H 	H 	0.12940 0.72250 0.40120 0.18900
H 	H 	0.19930 0.73910 0.37960 0.19900
H 	H 	0.14920 0.78840 0.39510 0.19800
Cs	Cs	0.44183 0.47303 0.14057 0.62600
Cu	Cu	0.44135 0.31422 0.08487 0.89800
Si	Si	0.30694 0.37496 0.27641 2.16100
Si	Si	0.43675 0.36270 0.32039 2.04000
Si	Si	0.56745 0.37592 0.28114 2.12800
Si	Si	0.57654 0.37068 0.07989 2.03400
Si	Si	0.30678 0.37079 0.07486 2.09500
O 	O 	0.30700 0.30800 0.29640 -0.97100
O 	O 	0.43760 0.30440 0.26280 -0.96500
O 	O 	0.56750 0.30860 0.29580 -0.93500
O 	O 	0.37700 0.40120 0.29240 -1.16600
O 	O 	0.49690 0.40180 0.29610 -1.15500
O 	O 	0.58830 0.39440 0.18030 -1.16400
O 	O 	0.50480 0.36840 0.05590 -0.91000
O 	O 	0.37960 0.37000 0.06200 -0.93300
O 	O 	0.28640 0.39050 0.17500 -1.18500
O 	O 	0.27840 0.30590 0.05820 -1.15300
O 	O 	0.60680 0.30580 0.07190 -1.11000
C 	C 	0.26770 0.42050 0.99750 -1.58500
H 	H 	0.27490 0.40810 0.93630 0.37400
H 	H 	0.22330 0.42050 0.00960 0.38800
H 	H 	0.28410 0.45920 0.00570 0.37300
C 	C 	0.25400 0.41410 0.34990 -1.68500
H 	H 	0.26230 0.40360 0.41170 0.38300
H 	H 	0.26010 0.45540 0.34220 0.41900
H 	H 	0.21140 0.40420 0.33490 0.42400
C 	C 	0.43470 0.34890 0.44080 -1.57600
H 	H 	0.42820 0.38500 0.47250 0.37100
H 	H 	0.40100 0.32250 0.45430 0.33500
H 	H 	0.47390 0.33190 0.45950 0.35400
C 	C 	0.61960 0.41470 0.35700 -1.66200
H 	H 	0.66240 0.40500 0.34300 0.41800
H 	H 	0.61350 0.45600 0.34990 0.41100
H 	H 	0.61050 0.40380 0.41840 0.39300
C 	C 	0.61890 0.41920 0.00410 -1.54400
H 	H 	0.66290 0.41020 0.00640 0.36200
H 	H 	0.60370 0.41400 0.94340 0.32700
H 	H 	0.61240 0.45890 0.02260 0.34400
H 	H 	0.59400 0.24350 0.89280 0.13000
H 	H 	0.52550 0.21950 0.90590 0.13900
H 	H 	0.53760 0.28700 0.90360 0.11800
H 	H 	0.37060 0.22250 0.90120 0.18800
H 	H 	0.30070 0.23910 0.87960 0.19900
H 	H 	0.35080 0.28840 0.89510 0.19800
Cs	Cs	0.05817 0.52697 0.64057 0.62700
Cu	Cu	0.05865 0.68578 0.58487 0.89900
Si	Si	0.19306 0.62504 0.77641 2.16400
Si	Si	0.06325 0.63730 0.82039 2.04200
Si	Si	0.93255 0.62408 0.78114 2.11600
Si	Si	0.92346 0.62932 0.57989 2.03300
Si	Si	0.19322 0.62921 0.57486 2.11800
O 	O 	0.19300 0.69200 0.79640 -0.97200
O 	O 	0.06240 0.69560 0.76280 -0.96400
O 	O 	0.93250 0.69140 0.79580 -0.93400
O 	O 	0.12300 0.59880 0.79240 -1.16700
O 	O 	0.00310 0.59820 0.79610 -1.15000
O 	O 	0.91170 0.60560 0.68030 -1.16200
O 	O 	0.99520 0.63160 0.55590 -0.91000
O 	O 	0.12040 0.63000 0.56200 -0.93700
O 	O 	0.21360 0.60950 0.67500 -1.19000
O 	O 	0.22160 0.69410 0.55820 -1.15800
O 	O 	0.89320 0.69420 0.57190 -1.11100
C 	C 	0.23230 0.57950 0.49750 -1.63100
H 	H 	0.22510 0.59190 0.43630 0.38500
H 	H 	0.27670 0.57950 0.50960 0.40400
H 	H 	0.21590 0.54080 0.50570 0.38800
C 	C 	0.24600 0.58590 0.84990 -1.68800
H 	H 	0.23770 0.59640 0.91170 0.38400
H 	H 	0.23990 0.54460 0.84220 0.42100
H 	H 	0.28860 0.59580 0.83490 0.42500
C 	C 	0.06530 0.65110 0.94080 -1.57900
H 	H 	0.07180 0.61500 0.97250 0.37300
H 	H 	0.09900 0.67750 0.95430 0.33600
H 	H 	0.02610 0.66810 0.95950 0.35700
C 	C 	0.88040 0.58530 0.85700 -1.65400
H 	H 	0.83760 0.59500 0.84300 0.41600
H 	H 	0.88650 0.54400 0.84990 0.40800
H 	H 	0.88950 0.59620 0.91840 0.38900
C 	C 	0.88110 0.58080 0.50410 -1.54500
H 	H 	0.83710 0.58980 0.50640 0.36200
H 	H 	0.89630 0.58600 0.44340 0.32800
H 	H 	0.88760 0.54110 0.52260 0.34300
H 	H 	0.90600 0.75650 0.39280 0.13100
H 	H 	0.97450 0.78050 0.40590 0.13900
H 	H 	0.96240 0.71300 0.40360 0.11800
H 	H 	0.12940 0.77750 0.40120 0.18900
H 	H 	0.19930 0.76090 0.37960 0.19900
H 	H 	0.14920 0.71160 0.39510 0.19800
Cs	Cs	0.55817 0.97303 0.85943 0.62600
Cu	Cu	0.55865 0.81422 0.91513 0.89800
Si	Si	0.69306 0.87496 0.72359 2.15900
Si	Si	0.56325 0.86270 0.67961 2.04000
Si	Si	0.43255 0.87592 0.71886 2.12800
Si	Si	0.42346 0.87068 0.92011 2.03800
Si	Si	0.69322 0.87079 0.92514 2.07900
O 	O 	0.69300 0.80800 0.70360 -0.97100
O 	O 	0.56240 0.80440 0.73720 -0.96500
O 	O 	0.43250 0.80860 0.70420 -0.93500
O 	O 	0.62300 0.90120 0.70760 -1.16600
O 	O 	0.50310 0.90180 0.70390 -1.15500
O 	O 	0.41170 0.89440 0.81970 -1.16500
O 	O 	0.49520 0.86840 0.94410 -0.91100
O 	O 	0.62040 0.87000 0.93800 -0.93000
O 	O 	0.71360 0.89050 0.82500 -1.18100
O 	O 	0.72160 0.80590 0.94180 -1.15000
O 	O 	0.39320 0.80580 0.92810 -1.11100
C 	C 	0.73230 0.92050 0.00250 -1.55100
H 	H 	0.72510 0.90810 0.06370 0.36600
H 	H 	0.77670 0.92050 0.99040 0.37600
H 	H 	0.71590 0.95920 0.99430 0.36100
C 	C 	0.74600 0.91410 0.65010 -1.68400
H 	H 	0.73770 0.90360 0.58830 0.38300
H 	H 	0.73990 0.95540 0.65780 0.41900
H 	H 	0.78860 0.90420 0.66510 0.42300
C 	C 	0.56530 0.84890 0.55920 -1.57700
H 	H 	0.57180 0.88500 0.52750 0.37100
H 	H 	0.59900 0.82250 0.54570 0.33500
H 	H 	0.52610 0.83190 0.54050 0.35400
C 	C 	0.38040 0.91470 0.64300 -1.66200
H 	H 	0.33760 0.90500 0.65700 0.41800
H 	H 	0.38650 0.95600 0.65010 0.41100
H 	H 	0.38950 0.90380 0.58160 0.39300
C 	C 	0.38110 0.91920 0.99590 -1.55700
H 	H 	0.33710 0.91020 0.99360 0.36500
H 	H 	0.39630 0.91400 0.05660 0.33400
H 	H 	0.38760 0.95890 0.97740 0.34600
H 	H 	0.40600 0.74350 0.10720 0.13000
H 	H 	0.47450 0.71950 0.09410 0.13800
H 	H 	0.46240 0.78700 0.09640 0.11800
H 	H 	0.62940 0.72250 0.09880 0.18800
H 	H 	0.69930 0.73910 0.12040 0.19900
H 	H 	0.64920 0.78840 0.10490 0.19900
Cs	Cs	0.94183 0.02697 0.35943 0.62600
Cu	Cu	0.94135 0.18578 0.41513 0.89900
Si	Si	0.80694 0.12504 0.22359 2.16400
Si	Si	0.93675 0.13730 0.17961 2.04100
Si	Si	0.06745 0.12408 0.21886 2.11600
Si	Si	0.07654 0.12932 0.42011 2.03400
Si	Si	0.80678 0.12921 0.42514 2.11800
O 	O 	0.80700 0.19200 0.20360 -0.97200
O 	O 	0.93760 0.19560 0.23720 -0.96400
O 	O 	0.06750 0.19140 0.20420 -0.93400
O 	O 	0.87700 0.09880 0.20760 -1.16700
O 	O 	0.99690 0.09820 0.20390 -1.15000
O 	O 	0.08830 0.10560 0.31970 -1.16200
O 	O 	0.00480 0.13160 0.44410 -0.91000
O 	O 	0.87960 0.13000 0.43800 -0.93700
O 	O 	0.78640 0.10950 0.32500 -1.19000
O 	O 	0.77840 0.19410 0.44180 -1.15800
O 	O 	0.10680 0.19420 0.42810 -1.11100
C 	C 	0.76770 0.07950 0.50250 -1.63200
H 	H 	0.77490 0.09190 0.56370 0.38500
H 	H 	0.72330 0.07950 0.49040 0.40400
H 	H 	0.78410 0.04080 0.49430 0.38900
C 	C 	0.75400 0.08590 0.15010 -1.68700
H 	H 	0.76230 0.09640 0.08830 0.38400
H 	H 	0.76010 0.04460 0.15780 0.42100
H 	H 	0.71140 0.09580 0.16510 0.42400
C 	C 	0.93470 0.15110 0.05920 -1.57900
H 	H 	0.92820 0.11500 0.02750 0.37200
H 	H 	0.90100 0.17750 0.04570 0.33500
H 	H 	0.97390 0.16810 0.04050 0.35600
C 	C 	0.11960 0.08530 0.14300 -1.65300
H 	H 	0.16240 0.09500 0.15700 0.41600
H 	H 	0.11350 0.04400 0.15010 0.40700
H 	H 	0.11050 0.09620 0.08160 0.38900
C 	C 	0.11890 0.08080 0.49590 -1.54600
H 	H 	0.16290 0.08980 0.49360 0.36200
H 	H 	0.10370 0.08600 0.55660 0.32900
H 	H 	0.11240 0.04110 0.47740 0.34300
H 	H 	0.09400 0.25650 0.60720 0.13100
H 	H 	0.02550 0.28050 0.59410 0.13900
H 	H 	0.03760 0.21300 0.59640 0.11800
H 	H 	0.87060 0.27750 0.59880 0.18900
H 	H 	0.80070 0.26090 0.62040 0.19900
H 	H 	0.85080 0.21160 0.60490 0.19800
Cs	Cs	0.75085 0.75000 0.54064 0.60900
Cs	Cs	0.31026 0.75000 0.70572 0.65200
Cu	Cu	0.63265 0.75000 0.73002 0.88900
Cu	Cu	0.49184 0.75000 0.72817 0.90200
Si	Si	0.43446 0.75000 0.95647 1.86000
Si	Si	0.68013 0.75000 0.96761 2.04500
O 	O 	0.61770 0.75000 0.90680 -0.95400
O 	O 	0.49970 0.75000 0.90240 -0.91400
C 	C 	0.44560 0.75000 0.07770 -1.29400
C 	C 	0.66240 0.75000 0.08690 -1.66000
Cs	Cs	0.74915 0.25000 0.04064 0.60900
Cs	Cs	0.18974 0.25000 0.20572 0.65200
Cu	Cu	0.86735 0.25000 0.23002 0.88900
Cu	Cu	0.00816 0.25000 0.22817 0.90000
Si	Si	0.06554 0.25000 0.45647 1.86400
Si	Si	0.81987 0.25000 0.46761 2.05800
O 	O 	0.88230 0.25000 0.40680 -0.95600
O 	O 	0.00030 0.25000 0.40240 -0.91500
C 	C 	0.05440 0.25000 0.57770 -1.29800
C 	C 	0.83760 0.25000 0.58690 -1.67000
Cs	Cs	0.24915 0.25000 0.45936 0.60900
Cs	Cs	0.68974 0.25000 0.29428 0.65200
Cu	Cu	0.36735 0.25000 0.26998 0.88900
Cu	Cu	0.50816 0.25000 0.27183 0.90200
Si	Si	0.56554 0.25000 0.04353 1.86000
Si	Si	0.31987 0.25000 0.03239 2.04500
O 	O 	0.38230 0.25000 0.09320 -0.95400
O 	O 	0.50030 0.25000 0.09760 -0.91400
C 	C 	0.55440 0.25000 0.92230 -1.29400
C 	C 	0.33760 0.25000 0.91310 -1.66000
Cs	Cs	0.25085 0.75000 0.95936 0.60900
Cs	Cs	0.81026 0.75000 0.79428 0.65200
Cu	Cu	0.13265 0.75000 0.76998 0.88900
Cu	Cu	0.99184 0.75000 0.77183 0.90000
Si	Si	0.93446 0.75000 0.54353 1.86400
Si	Si	0.18013 0.75000 0.53239 2.05800
O 	O 	0.11770 0.75000 0.59320 -0.95600
O 	O 	0.99970 0.75000 0.59760 -0.91500
C 	C 	0.94560 0.75000 0.42230 -1.29800
C 	C 	0.16240 0.75000 0.41310 -1.67000
