data_crystal

_cell_length_a 20.40620
_cell_length_b 20.40620
_cell_length_c 15.39750
_cell_angle_alpha 90.00000
_cell_angle_beta  90.00000
_cell_angle_gamma 90.00000

_symmetry_space_group_name_	'P 1'
_symmetry_space_group_name_H-M	'P 1'

loop_
_symmetry_equiv_pos_as_xyz
  x,y,z

loop_
_atom_site_label
_atom_site_type_symbol
_atom_site_fract_x
_atom_site_fract_y
_atom_site_fract_z
_atom_site_charge
Cd	Cd	0.22439 0.57498 0.11403 1.17900
N 	N 	0.31710 0.51310 0.08840 -0.22500
N 	N 	0.24820 0.59470 0.25790 -0.23800
N 	N 	0.29630 0.65470 0.35720 -0.12100
N 	N 	0.33610 0.70460 0.39150 -0.22300
H 	H 	0.37810 0.69370 0.38560 0.10600
H 	H 	0.32680 0.70950 0.44760 0.11000
N 	N 	0.30360 0.69060 0.21140 -0.19700
H 	H 	0.32240 0.72680 0.22540 0.11600
N 	N 	0.29170 0.67370 0.12380 -0.28800
H 	H 	0.33010 0.66680 0.09650 0.08300
H 	H 	0.27110 0.70700 0.09700 0.09600
N 	N 	0.16170 0.48280 0.13780 -0.22800
N 	N 	0.20160 0.59440 0.96820 -0.23600
N 	N 	0.15320 0.65780 0.87420 -0.12100
N 	N 	0.11340 0.71020 0.84630 -0.22000
H 	H 	0.08740 0.69600 0.80390 0.11000
H 	H 	0.13840 0.74270 0.82660 0.11200
N 	N 	0.11350 0.65950 0.01870 -0.20000
H 	H 	0.08240 0.68630 0.00640 0.11800
N 	N 	0.12360 0.63670 0.10470 -0.29200
H 	H 	0.08980 0.61110 0.12070 0.08600
H 	H 	0.12540 0.67100 0.14130 0.08900
C 	C 	0.28420 0.64760 0.27110 0.14900
C 	C 	0.35260 0.48270 0.14590 0.07500
H 	H 	0.34350 0.48110 0.20510 -0.02400
C 	C 	0.15430 0.63760 0.95790 0.14800
C 	C 	0.20270 0.62630 0.83380 0.07800
H 	H 	0.21350 0.63120 0.77550 -0.02200
Cd	Cd	0.27561 0.42502 0.61403 1.17800
N 	N 	0.18290 0.48690 0.58840 -0.22600
N 	N 	0.25180 0.40530 0.75790 -0.23900
N 	N 	0.20370 0.34530 0.85720 -0.12200
N 	N 	0.16390 0.29540 0.89150 -0.22400
H 	H 	0.12190 0.30630 0.88560 0.10500
H 	H 	0.17320 0.29050 0.94760 0.10900
N 	N 	0.19640 0.30940 0.71140 -0.19800
H 	H 	0.17760 0.27320 0.72540 0.11500
N 	N 	0.20830 0.32630 0.62380 -0.28900
H 	H 	0.16990 0.33320 0.59650 0.08200
H 	H 	0.22890 0.29300 0.59700 0.09500
N 	N 	0.33830 0.51720 0.63780 -0.22900
N 	N 	0.29840 0.40560 0.46820 -0.23700
N 	N 	0.34680 0.34220 0.37420 -0.12200
N 	N 	0.38660 0.28980 0.34630 -0.22000
H 	H 	0.41260 0.30400 0.30390 0.10900
H 	H 	0.36160 0.25730 0.32660 0.11200
N 	N 	0.38650 0.34050 0.51870 -0.20100
H 	H 	0.41760 0.31370 0.50640 0.11700
N 	N 	0.37640 0.36330 0.60470 -0.29300
H 	H 	0.41020 0.38890 0.62070 0.08500
H 	H 	0.37460 0.32900 0.64130 0.08800
C 	C 	0.21580 0.35240 0.77110 0.14800
C 	C 	0.14740 0.51730 0.64590 0.07500
H 	H 	0.15650 0.51890 0.70510 -0.02400
C 	C 	0.34570 0.36240 0.45790 0.14900
C 	C 	0.29730 0.37370 0.33380 0.07800
H 	H 	0.28650 0.36880 0.27550 -0.02200
Cd	Cd	0.17502 0.47439 0.36403 1.17800
N 	N 	0.23690 0.56710 0.33840 -0.22600
N 	N 	0.15530 0.49820 0.50790 -0.23900
N 	N 	0.09530 0.54630 0.60720 -0.12200
N 	N 	0.04540 0.58610 0.64150 -0.22400
H 	H 	0.05630 0.62810 0.63560 0.10500
H 	H 	0.04050 0.57680 0.69760 0.10900
N 	N 	0.05940 0.55360 0.46140 -0.19800
H 	H 	0.02320 0.57240 0.47540 0.11500
N 	N 	0.07630 0.54170 0.37380 -0.28900
H 	H 	0.08320 0.58010 0.34650 0.08200
H 	H 	0.04300 0.52110 0.34700 0.09500
N 	N 	0.26720 0.41170 0.38780 -0.22900
N 	N 	0.15560 0.45160 0.21820 -0.23700
N 	N 	0.09220 0.40320 0.12420 -0.12200
N 	N 	0.03980 0.36340 0.09630 -0.22000
H 	H 	0.05400 0.33740 0.05390 0.10900
H 	H 	0.00730 0.38840 0.07660 0.11100
N 	N 	0.09050 0.36350 0.26870 -0.20100
H 	H 	0.06370 0.33240 0.25640 0.11700
N 	N 	0.11330 0.37360 0.35470 -0.29300
H 	H 	0.13890 0.33980 0.37070 0.08500
H 	H 	0.07900 0.37540 0.39130 0.08800
C 	C 	0.10240 0.53420 0.52110 0.14800
C 	C 	0.26730 0.60260 0.39590 0.07500
H 	H 	0.26890 0.59350 0.45510 -0.02400
C 	C 	0.11240 0.40430 0.20790 0.14900
C 	C 	0.12370 0.45270 0.08380 0.07800
H 	H 	0.11880 0.46350 0.02550 -0.02200
Cd	Cd	0.32498 0.52561 0.86403 1.17800
N 	N 	0.26310 0.43290 0.83840 -0.22600
N 	N 	0.34470 0.50180 0.00790 -0.23900
N 	N 	0.40470 0.45370 0.10720 -0.12200
N 	N 	0.45460 0.41390 0.14150 -0.22400
H 	H 	0.44370 0.37190 0.13560 0.10500
H 	H 	0.45950 0.42320 0.19760 0.10900
N 	N 	0.44060 0.44640 0.96140 -0.19800
H 	H 	0.47680 0.42760 0.97540 0.11500
N 	N 	0.42370 0.45830 0.87380 -0.28900
H 	H 	0.41680 0.41990 0.84650 0.08200
H 	H 	0.45700 0.47890 0.84700 0.09500
N 	N 	0.23280 0.58830 0.88780 -0.22900
N 	N 	0.34440 0.54840 0.71820 -0.23700
N 	N 	0.40780 0.59680 0.62420 -0.12200
N 	N 	0.46020 0.63660 0.59630 -0.22000
H 	H 	0.44600 0.66260 0.55390 0.10900
H 	H 	0.49270 0.61160 0.57660 0.11200
N 	N 	0.40950 0.63650 0.76870 -0.20100
H 	H 	0.43630 0.66760 0.75640 0.11700
N 	N 	0.38670 0.62640 0.85470 -0.29300
H 	H 	0.36110 0.66020 0.87070 0.08500
H 	H 	0.42100 0.62460 0.89130 0.08800
C 	C 	0.39760 0.46580 0.02110 0.14800
C 	C 	0.23270 0.39740 0.89590 0.07500
H 	H 	0.23110 0.40650 0.95510 -0.02400
C 	C 	0.38760 0.59570 0.70790 0.14900
C 	C 	0.37630 0.54730 0.58380 0.07800
H 	H 	0.38120 0.53650 0.52550 -0.02200
Cd	Cd	0.72439 0.07498 0.61403 1.17800
N 	N 	0.81710 0.01310 0.58840 -0.22600
N 	N 	0.74820 0.09470 0.75790 -0.23900
N 	N 	0.79630 0.15470 0.85720 -0.12200
N 	N 	0.83610 0.20460 0.89150 -0.22400
H 	H 	0.87810 0.19370 0.88560 0.10500
H 	H 	0.82680 0.20950 0.94760 0.11000
N 	N 	0.80360 0.19060 0.71140 -0.19800
H 	H 	0.82240 0.22680 0.72540 0.11500
N 	N 	0.79170 0.17370 0.62380 -0.28900
H 	H 	0.83010 0.16680 0.59650 0.08200
H 	H 	0.77110 0.20700 0.59700 0.09500
N 	N 	0.66170 0.98280 0.63780 -0.22900
N 	N 	0.70160 0.09440 0.46820 -0.23700
N 	N 	0.65320 0.15780 0.37420 -0.12200
N 	N 	0.61340 0.21020 0.34630 -0.22000
H 	H 	0.58740 0.19600 0.30390 0.10900
H 	H 	0.63840 0.24270 0.32660 0.11200
N 	N 	0.61350 0.15950 0.51870 -0.20100
H 	H 	0.58240 0.18630 0.50640 0.11700
N 	N 	0.62360 0.13670 0.60470 -0.29300
H 	H 	0.58980 0.11110 0.62070 0.08500
H 	H 	0.62540 0.17100 0.64130 0.08800
C 	C 	0.78420 0.14760 0.77110 0.14800
C 	C 	0.85260 0.98270 0.64590 0.07500
H 	H 	0.84350 0.98110 0.70510 -0.02400
C 	C 	0.65430 0.13760 0.45790 0.14900
C 	C 	0.70270 0.12630 0.33380 0.07800
H 	H 	0.71350 0.13120 0.27550 -0.02200
Cd	Cd	0.77561 0.92502 0.11403 1.17800
N 	N 	0.68290 0.98690 0.08840 -0.22500
N 	N 	0.75180 0.90530 0.25790 -0.23900
N 	N 	0.70370 0.84530 0.35720 -0.12200
N 	N 	0.66390 0.79540 0.39150 -0.22400
H 	H 	0.62190 0.80630 0.38560 0.10500
H 	H 	0.67320 0.79050 0.44760 0.10900
N 	N 	0.69640 0.80940 0.21140 -0.19800
H 	H 	0.67760 0.77320 0.22540 0.11500
N 	N 	0.70830 0.82630 0.12380 -0.28900
H 	H 	0.66990 0.83320 0.09650 0.08300
H 	H 	0.72890 0.79300 0.09700 0.09500
N 	N 	0.83830 0.01720 0.13780 -0.22900
N 	N 	0.79840 0.90560 0.96820 -0.23700
N 	N 	0.84680 0.84220 0.87420 -0.12200
N 	N 	0.88660 0.78980 0.84630 -0.22100
H 	H 	0.91260 0.80400 0.80390 0.10900
H 	H 	0.86160 0.75730 0.82660 0.11200
N 	N 	0.88650 0.84050 0.01870 -0.20100
H 	H 	0.91760 0.81370 0.00640 0.11700
N 	N 	0.87640 0.86330 0.10470 -0.29300
H 	H 	0.91020 0.88890 0.12070 0.08500
H 	H 	0.87460 0.82900 0.14130 0.08800
C 	C 	0.71580 0.85240 0.27110 0.14800
C 	C 	0.64740 0.01730 0.14590 0.07400
H 	H 	0.65650 0.01890 0.20510 -0.02400
C 	C 	0.84570 0.86240 0.95790 0.14800
C 	C 	0.79730 0.87370 0.83380 0.07800
H 	H 	0.78650 0.86880 0.77550 -0.02200
Cd	Cd	0.67502 0.97439 0.86403 1.17800
N 	N 	0.73690 0.06710 0.83840 -0.22500
N 	N 	0.65530 0.99820 0.00790 -0.23700
N 	N 	0.59530 0.04630 0.10720 -0.12100
N 	N 	0.54540 0.08610 0.14150 -0.22400
H 	H 	0.55630 0.12810 0.13560 0.10500
H 	H 	0.54050 0.07680 0.19760 0.10900
N 	N 	0.55940 0.05360 0.96140 -0.19700
H 	H 	0.52320 0.07240 0.97540 0.11500
N 	N 	0.57630 0.04170 0.87380 -0.28900
H 	H 	0.58320 0.08010 0.84650 0.08200
H 	H 	0.54300 0.02110 0.84700 0.09600
N 	N 	0.76720 0.91170 0.88780 -0.22900
N 	N 	0.65560 0.95160 0.71820 -0.23700
N 	N 	0.59220 0.90320 0.62420 -0.12200
N 	N 	0.53980 0.86340 0.59630 -0.22000
H 	H 	0.55400 0.83740 0.55390 0.10900
H 	H 	0.50730 0.88840 0.57660 0.11200
N 	N 	0.59050 0.86350 0.76870 -0.20100
H 	H 	0.56370 0.83240 0.75640 0.11700
N 	N 	0.61330 0.87360 0.85470 -0.29300
H 	H 	0.63890 0.83980 0.87070 0.08500
H 	H 	0.57900 0.87540 0.89130 0.08800
C 	C 	0.60240 0.03420 0.02110 0.14600
C 	C 	0.76730 0.10260 0.89590 0.07500
H 	H 	0.76890 0.09350 0.95510 -0.02400
C 	C 	0.61240 0.90430 0.70790 0.14900
C 	C 	0.62370 0.95270 0.58380 0.07800
H 	H 	0.61880 0.96350 0.52550 -0.02200
Cd	Cd	0.82498 0.02561 0.36403 1.17800
N 	N 	0.76310 0.93290 0.33840 -0.22600
N 	N 	0.84470 0.00180 0.50790 -0.23900
N 	N 	0.90470 0.95370 0.60720 -0.12200
N 	N 	0.95460 0.91390 0.64150 -0.22400
H 	H 	0.94370 0.87190 0.63560 0.10500
H 	H 	0.95950 0.92320 0.69760 0.10900
N 	N 	0.94060 0.94640 0.46140 -0.19800
H 	H 	0.97680 0.92760 0.47540 0.11500
N 	N 	0.92370 0.95830 0.37380 -0.28900
H 	H 	0.91680 0.91990 0.34650 0.08200
H 	H 	0.95700 0.97890 0.34700 0.09500
N 	N 	0.73280 0.08830 0.38780 -0.22900
N 	N 	0.84440 0.04840 0.21820 -0.23700
N 	N 	0.90780 0.09680 0.12420 -0.12300
N 	N 	0.96020 0.13660 0.09630 -0.22000
H 	H 	0.94600 0.16260 0.05390 0.10900
H 	H 	0.99270 0.11160 0.07660 0.11100
N 	N 	0.90950 0.13650 0.26870 -0.20100
H 	H 	0.93630 0.16760 0.25640 0.11700
N 	N 	0.88670 0.12640 0.35470 -0.29300
H 	H 	0.86110 0.16020 0.37070 0.08500
H 	H 	0.92100 0.12460 0.39130 0.08800
C 	C 	0.89760 0.96580 0.52110 0.14800
C 	C 	0.73270 0.89740 0.39590 0.07500
H 	H 	0.73110 0.90650 0.45510 -0.02400
C 	C 	0.88760 0.09570 0.20790 0.14800
C 	C 	0.87630 0.04730 0.08380 0.07700
H 	H 	0.88120 0.03650 0.02550 -0.02200
Cd	Cd	0.77561 0.42502 0.88597 1.17800
N 	N 	0.68290 0.48690 0.91160 -0.22600
N 	N 	0.75180 0.40530 0.74210 -0.23900
N 	N 	0.70370 0.34530 0.64280 -0.12200
N 	N 	0.66390 0.29540 0.60850 -0.22400
H 	H 	0.62190 0.30630 0.61440 0.10500
H 	H 	0.67320 0.29050 0.55240 0.10900
N 	N 	0.69640 0.30940 0.78860 -0.19800
H 	H 	0.67760 0.27320 0.77460 0.11500
N 	N 	0.70830 0.32630 0.87620 -0.28900
H 	H 	0.66990 0.33320 0.90350 0.08200
H 	H 	0.72890 0.29300 0.90300 0.09500
N 	N 	0.83830 0.51720 0.86220 -0.22900
N 	N 	0.79840 0.40560 0.03180 -0.23700
N 	N 	0.84680 0.34220 0.12580 -0.12200
N 	N 	0.88660 0.28980 0.15370 -0.22100
H 	H 	0.91260 0.30400 0.19610 0.10900
H 	H 	0.86160 0.25730 0.17340 0.11100
N 	N 	0.88650 0.34050 0.98130 -0.20100
H 	H 	0.91760 0.31370 0.99360 0.11700
N 	N 	0.87640 0.36330 0.89530 -0.29300
H 	H 	0.91020 0.38890 0.87930 0.08500
H 	H 	0.87460 0.32900 0.85870 0.08800
C 	C 	0.71580 0.35240 0.72890 0.14800
C 	C 	0.64740 0.51730 0.85410 0.07500
H 	H 	0.65650 0.51890 0.79490 -0.02400
C 	C 	0.84570 0.36240 0.04210 0.14800
C 	C 	0.79730 0.37370 0.16620 0.07800
H 	H 	0.78650 0.36880 0.22450 -0.02200
Cd	Cd	0.72439 0.57498 0.38597 1.17800
N 	N 	0.81710 0.51310 0.41160 -0.22600
N 	N 	0.74820 0.59470 0.24210 -0.23900
N 	N 	0.79630 0.65470 0.14280 -0.12200
N 	N 	0.83610 0.70460 0.10850 -0.22400
H 	H 	0.87810 0.69370 0.11440 0.10500
H 	H 	0.82680 0.70950 0.05240 0.10900
N 	N 	0.80360 0.69060 0.28860 -0.19800
H 	H 	0.82240 0.72680 0.27460 0.11500
N 	N 	0.79170 0.67370 0.37620 -0.28900
H 	H 	0.83010 0.66680 0.40350 0.08200
H 	H 	0.77110 0.70700 0.40300 0.09500
N 	N 	0.66170 0.48280 0.36220 -0.22900
N 	N 	0.70160 0.59440 0.53180 -0.23700
N 	N 	0.65320 0.65780 0.62580 -0.12200
N 	N 	0.61340 0.71020 0.65370 -0.22000
H 	H 	0.58740 0.69600 0.69610 0.10900
H 	H 	0.63840 0.74270 0.67340 0.11200
N 	N 	0.61350 0.65950 0.48130 -0.20100
H 	H 	0.58240 0.68630 0.49360 0.11700
N 	N 	0.62360 0.63670 0.39530 -0.29300
H 	H 	0.58980 0.61110 0.37930 0.08500
H 	H 	0.62540 0.67100 0.35870 0.08800
C 	C 	0.78420 0.64760 0.22890 0.14800
C 	C 	0.85260 0.48270 0.35410 0.07500
H 	H 	0.84350 0.48110 0.29490 -0.02400
C 	C 	0.65430 0.63760 0.54210 0.14900
C 	C 	0.70270 0.62630 0.66620 0.07800
H 	H 	0.71350 0.63120 0.72450 -0.02200
Cd	Cd	0.82498 0.52561 0.63597 1.17800
N 	N 	0.76310 0.43290 0.66160 -0.22600
N 	N 	0.84470 0.50180 0.49210 -0.23900
N 	N 	0.90470 0.45370 0.39280 -0.12200
N 	N 	0.95460 0.41390 0.35850 -0.22400
H 	H 	0.94370 0.37190 0.36440 0.10500
H 	H 	0.95950 0.42320 0.30240 0.10900
N 	N 	0.94060 0.44640 0.53860 -0.19800
H 	H 	0.97680 0.42760 0.52460 0.11500
N 	N 	0.92370 0.45830 0.62620 -0.28900
H 	H 	0.91680 0.41990 0.65350 0.08200
H 	H 	0.95700 0.47890 0.65300 0.09500
N 	N 	0.73280 0.58830 0.61220 -0.22900
N 	N 	0.84440 0.54840 0.78180 -0.23700
N 	N 	0.90780 0.59680 0.87580 -0.12200
N 	N 	0.96020 0.63660 0.90370 -0.22000
H 	H 	0.94600 0.66260 0.94610 0.10900
H 	H 	0.99270 0.61160 0.92340 0.11100
N 	N 	0.90950 0.63650 0.73130 -0.20100
H 	H 	0.93630 0.66760 0.74360 0.11700
N 	N 	0.88670 0.62640 0.64530 -0.29300
H 	H 	0.86110 0.66020 0.62930 0.08500
H 	H 	0.92100 0.62460 0.60870 0.08800
C 	C 	0.89760 0.46580 0.47890 0.14800
C 	C 	0.73270 0.39740 0.60410 0.07500
H 	H 	0.73110 0.40650 0.54490 -0.02400
C 	C 	0.88760 0.59570 0.79210 0.14900
C 	C 	0.87630 0.54730 0.91620 0.07800
H 	H 	0.88120 0.53650 0.97450 -0.02200
Cd	Cd	0.67502 0.47439 0.13597 1.17800
N 	N 	0.73690 0.56710 0.16160 -0.22600
N 	N 	0.65530 0.49820 0.99210 -0.23900
N 	N 	0.59530 0.54630 0.89280 -0.12200
N 	N 	0.54540 0.58610 0.85850 -0.22400
H 	H 	0.55630 0.62810 0.86440 0.10500
H 	H 	0.54050 0.57680 0.80240 0.10900
N 	N 	0.55940 0.55360 0.03860 -0.19800
H 	H 	0.52320 0.57240 0.02460 0.11500
N 	N 	0.57630 0.54170 0.12620 -0.28900
H 	H 	0.58320 0.58010 0.15350 0.08200
H 	H 	0.54300 0.52110 0.15300 0.09500
N 	N 	0.76720 0.41170 0.11220 -0.22900
N 	N 	0.65560 0.45160 0.28180 -0.23700
N 	N 	0.59220 0.40320 0.37580 -0.12200
N 	N 	0.53980 0.36340 0.40370 -0.22000
H 	H 	0.55400 0.33740 0.44610 0.10900
H 	H 	0.50730 0.38840 0.42340 0.11200
N 	N 	0.59050 0.36350 0.23130 -0.20100
H 	H 	0.56370 0.33240 0.24360 0.11700
N 	N 	0.61330 0.37360 0.14530 -0.29300
H 	H 	0.63890 0.33980 0.12930 0.08500
H 	H 	0.57900 0.37540 0.10870 0.08800
C 	C 	0.60240 0.53420 0.97890 0.14800
C 	C 	0.76730 0.60260 0.10410 0.07500
H 	H 	0.76890 0.59350 0.04490 -0.02400
C 	C 	0.61240 0.40430 0.29210 0.14900
C 	C 	0.62370 0.45270 0.41620 0.07800
H 	H 	0.61880 0.46350 0.47450 -0.02200
Cd	Cd	0.27561 0.92502 0.38597 1.17800
N 	N 	0.18290 0.98690 0.41160 -0.22600
N 	N 	0.25180 0.90530 0.24210 -0.23900
N 	N 	0.20370 0.84530 0.14280 -0.12200
N 	N 	0.16390 0.79540 0.10850 -0.22400
H 	H 	0.12190 0.80630 0.11440 0.10500
H 	H 	0.17320 0.79050 0.05240 0.11000
N 	N 	0.19640 0.80940 0.28860 -0.19800
H 	H 	0.17760 0.77320 0.27460 0.11500
N 	N 	0.20830 0.82630 0.37620 -0.28900
H 	H 	0.16990 0.83320 0.40350 0.08200
H 	H 	0.22890 0.79300 0.40300 0.09500
N 	N 	0.33830 0.01720 0.36220 -0.22900
N 	N 	0.29840 0.90560 0.53180 -0.23700
N 	N 	0.34680 0.84220 0.62580 -0.12200
N 	N 	0.38660 0.78980 0.65370 -0.22000
H 	H 	0.41260 0.80400 0.69610 0.10900
H 	H 	0.36160 0.75730 0.67340 0.11200
N 	N 	0.38650 0.84050 0.48130 -0.20100
H 	H 	0.41760 0.81370 0.49360 0.11700
N 	N 	0.37640 0.86330 0.39530 -0.29300
H 	H 	0.41020 0.88890 0.37930 0.08500
H 	H 	0.37460 0.82900 0.35870 0.08800
C 	C 	0.21580 0.85240 0.22890 0.14800
C 	C 	0.14740 0.01730 0.35410 0.07500
H 	H 	0.15650 0.01890 0.29490 -0.02400
C 	C 	0.34570 0.86240 0.54210 0.14900
C 	C 	0.29730 0.87370 0.66620 0.07800
H 	H 	0.28650 0.86880 0.72450 -0.02200
Cd	Cd	0.22439 0.07498 0.88597 1.17800
N 	N 	0.31710 0.01310 0.91160 -0.22500
N 	N 	0.24820 0.09470 0.74210 -0.23900
N 	N 	0.29630 0.15470 0.64280 -0.12200
N 	N 	0.33610 0.20460 0.60850 -0.22400
H 	H 	0.37810 0.19370 0.61440 0.10500
H 	H 	0.32680 0.20950 0.55240 0.10900
N 	N 	0.30360 0.19060 0.78860 -0.19800
H 	H 	0.32240 0.22680 0.77460 0.11500
N 	N 	0.29170 0.17370 0.87620 -0.28900
H 	H 	0.33010 0.16680 0.90350 0.08300
H 	H 	0.27110 0.20700 0.90300 0.09500
N 	N 	0.16170 0.98280 0.86220 -0.22900
N 	N 	0.20160 0.09440 0.03180 -0.23700
N 	N 	0.15320 0.15780 0.12580 -0.12200
N 	N 	0.11340 0.21020 0.15370 -0.22100
H 	H 	0.08740 0.19600 0.19610 0.10900
H 	H 	0.13840 0.24270 0.17340 0.11200
N 	N 	0.11350 0.15950 0.98130 -0.20100
H 	H 	0.08240 0.18630 0.99360 0.11700
N 	N 	0.12360 0.13670 0.89530 -0.29300
H 	H 	0.08980 0.11110 0.87930 0.08500
H 	H 	0.12540 0.17100 0.85870 0.08800
C 	C 	0.28420 0.14760 0.72890 0.14800
C 	C 	0.35260 0.98270 0.85410 0.07400
H 	H 	0.34350 0.98110 0.79490 -0.02400
C 	C 	0.15430 0.13760 0.04210 0.14800
C 	C 	0.20270 0.12630 0.16620 0.07800
H 	H 	0.21350 0.13120 0.22450 -0.02200
Cd	Cd	0.32498 0.02561 0.13597 1.17800
N 	N 	0.26310 0.93290 0.16160 -0.22500
N 	N 	0.34470 0.00180 0.99210 -0.23700
N 	N 	0.40470 0.95370 0.89280 -0.12100
N 	N 	0.45460 0.91390 0.85850 -0.22400
H 	H 	0.44370 0.87190 0.86440 0.10500
H 	H 	0.45950 0.92320 0.80240 0.10900
N 	N 	0.44060 0.94640 0.03860 -0.19700
H 	H 	0.47680 0.92760 0.02460 0.11500
N 	N 	0.42370 0.95830 0.12620 -0.28900
H 	H 	0.41680 0.91990 0.15350 0.08200
H 	H 	0.45700 0.97890 0.15300 0.09600
N 	N 	0.23280 0.08830 0.11220 -0.22900
N 	N 	0.34440 0.04840 0.28180 -0.23700
N 	N 	0.40780 0.09680 0.37580 -0.12200
N 	N 	0.46020 0.13660 0.40370 -0.22000
H 	H 	0.44600 0.16260 0.44610 0.10900
H 	H 	0.49270 0.11160 0.42340 0.11200
N 	N 	0.40950 0.13650 0.23130 -0.20100
H 	H 	0.43630 0.16760 0.24360 0.11700
N 	N 	0.38670 0.12640 0.14530 -0.29300
H 	H 	0.36110 0.16020 0.12930 0.08500
H 	H 	0.42100 0.12460 0.10870 0.08800
C 	C 	0.39760 0.96580 0.97890 0.14600
C 	C 	0.23270 0.89740 0.10410 0.07500
H 	H 	0.23110 0.90650 0.04490 -0.02400
C 	C 	0.38760 0.09570 0.29210 0.14900
C 	C 	0.37630 0.04730 0.41620 0.07800
H 	H 	0.38120 0.03650 0.47450 -0.02200
Cd	Cd	0.17502 0.97439 0.63597 1.17800
N 	N 	0.23690 0.06710 0.66160 -0.22600
N 	N 	0.15530 0.99820 0.49210 -0.23900
N 	N 	0.09530 0.04630 0.39280 -0.12200
N 	N 	0.04540 0.08610 0.35850 -0.22400
H 	H 	0.05630 0.12810 0.36440 0.10500
H 	H 	0.04050 0.07680 0.30240 0.10900
N 	N 	0.05940 0.05360 0.53860 -0.19800
H 	H 	0.02320 0.07240 0.52460 0.11500
N 	N 	0.07630 0.04170 0.62620 -0.28900
H 	H 	0.08320 0.08010 0.65350 0.08200
H 	H 	0.04300 0.02110 0.65300 0.09500
N 	N 	0.26720 0.91170 0.61220 -0.22900
N 	N 	0.15560 0.95160 0.78180 -0.23700
N 	N 	0.09220 0.90320 0.87580 -0.12300
N 	N 	0.03980 0.86340 0.90370 -0.22000
H 	H 	0.05400 0.83740 0.94610 0.10900
H 	H 	0.00730 0.88840 0.92340 0.11100
N 	N 	0.09050 0.86350 0.73130 -0.20100
H 	H 	0.06370 0.83240 0.74360 0.11700
N 	N 	0.11330 0.87360 0.64530 -0.29300
H 	H 	0.13890 0.83980 0.62930 0.08500
H 	H 	0.07900 0.87540 0.60870 0.08800
C 	C 	0.10240 0.03420 0.47890 0.14800
C 	C 	0.26730 0.10260 0.60410 0.07500
H 	H 	0.26890 0.09350 0.54490 -0.02400
C 	C 	0.11240 0.90430 0.79210 0.14800
C 	C 	0.12370 0.95270 0.91620 0.07700
H 	H 	0.11880 0.96350 0.97450 -0.02200
