data_crystal

_cell_length_a 42.48080
_cell_length_b 12.01080
_cell_length_c 19.24980
_cell_angle_alpha 90.00000
_cell_angle_beta  115.58800
_cell_angle_gamma 90.00000

_symmetry_space_group_name_	'P 1'
_symmetry_space_group_name_H-M	'P 1'

loop_
_symmetry_equiv_pos_as_xyz
  x,y,z

loop_
_atom_site_label
_atom_site_type_symbol
_atom_site_fract_x
_atom_site_fract_y
_atom_site_fract_z
_atom_site_charge
U 	U 	0.37064 0.21098 0.09124 0.00600
O 	O 	0.38521 0.41310 0.09533 -0.21900
O 	O 	0.39849 0.30700 0.01964 -0.21800
O 	O 	0.38592 0.08200 0.00967 -0.20800
O 	O 	0.35595 0.01140 0.06660 -0.20900
O 	O 	0.41495 0.85780 0.27796 -0.21300
O 	O 	0.45261 0.75060 0.37005 -0.22800
O 	O 	0.34455 0.12940 0.17283 -0.19800
O 	O 	0.35036 0.31020 0.17812 -0.21700
O 	O 	0.37023 0.66980 0.28720 -0.23800
O 	O 	0.31704 0.71890 0.20631 -0.23100
O 	O 	0.15581 0.43260 0.17654 -0.23100
O 	O 	0.20525 0.44030 0.28179 -0.23000
C 	C 	0.41367 0.61110 0.05720 0.40600
C 	C 	0.39330 0.69530 0.01060 -0.42500
H 	H 	0.37940 0.68080 0.95750 0.17000
C 	C 	0.39274 0.80130 0.03990 0.39500
C 	C 	0.41355 0.82160 0.11790 -0.41200
H 	H 	0.41360 0.89350 0.13850 0.21200
C 	C 	0.43424 0.73760 0.16620 0.40400
C 	C 	0.43404 0.63430 0.13540 -0.42700
H 	H 	0.44810 0.57700 0.16790 0.18600
C 	C 	0.41453 0.49730 0.02460 -0.52700
H 	H 	0.40260 0.50280 0.96770 0.19100
H 	H 	0.43920 0.47820 0.03880 0.20000
C 	C 	0.39845 0.40190 0.04840 0.40500
C 	C 	0.36922 0.88880 0.98400 -0.51400
H 	H 	0.37630 0.89890 0.94180 0.19900
H 	H 	0.34490 0.86120 0.96110 0.18600
C 	C 	0.37048 0.99950 0.02146 0.39300
C 	C 	0.45753 0.75970 0.25010 -0.50100
H 	H 	0.47370 0.82090 0.25310 0.17800
H 	H 	0.47190 0.69240 0.27190 0.18100
C 	C 	0.43966 0.79050 0.30180 0.41100
C 	C 	0.30286 0.33060 0.24970 0.37400
C 	C 	0.32082 0.42650 0.28640 -0.39800
H 	H 	0.34560 0.42500 0.31330 0.17600
C 	C 	0.30285 0.52450 0.28400 0.38300
C 	C 	0.26666 0.52540 0.24370 -0.39500
H 	H 	0.25430 0.59210 0.24190 0.17000
C 	C 	0.24805 0.43100 0.20610 0.38000
C 	C 	0.26650 0.33410 0.20980 -0.40200
H 	H 	0.25420 0.26890 0.18470 0.16700
C 	C 	0.32299 0.22540 0.25280 -0.49600
H 	H 	0.30690 0.16120 0.24080 0.19100
H 	H 	0.34130 0.21540 0.30600 0.17600
C 	C 	0.34023 0.22320 0.19802 0.39900
C 	C 	0.32313 0.62920 0.31950 -0.52000
H 	H 	0.34210 0.61220 0.37080 0.20200
H 	H 	0.30750 0.68500 0.32610 0.19200
C 	C 	0.33858 0.67640 0.26730 0.44400
C 	C 	0.20846 0.43810 0.16080 -0.50000
H 	H 	0.20050 0.37490 0.12420 0.19000
H 	H 	0.20260 0.50760 0.13010 0.18100
C 	C 	0.18823 0.43640 0.20990 0.39900
U 	U 	0.12936 0.71098 0.40876 0.00700
O 	O 	0.11479 0.91310 0.40467 -0.21800
O 	O 	0.10151 0.80700 0.48036 -0.21700
O 	O 	0.11408 0.58200 0.49033 -0.20800
O 	O 	0.14405 0.51140 0.43340 -0.20800
O 	O 	0.08505 0.35780 0.22204 -0.21200
O 	O 	0.04739 0.25060 0.12995 -0.22700
O 	O 	0.15545 0.62940 0.32717 -0.19700
O 	O 	0.14964 0.81020 0.32188 -0.21600
O 	O 	0.12977 0.16980 0.21280 -0.23700
O 	O 	0.18296 0.21890 0.29369 -0.23100
O 	O 	0.34419 0.93260 0.32346 -0.23100
O 	O 	0.29475 0.94030 0.21821 -0.23100
C 	C 	0.08633 0.11110 0.44280 0.40600
C 	C 	0.10670 0.19530 0.48940 -0.42500
H 	H 	0.12060 0.18080 0.54250 0.17000
C 	C 	0.10726 0.30130 0.46010 0.39600
C 	C 	0.08645 0.32160 0.38210 -0.41300
H 	H 	0.08640 0.39350 0.36150 0.21200
C 	C 	0.06576 0.23760 0.33380 0.40400
C 	C 	0.06596 0.13430 0.36460 -0.42700
H 	H 	0.05190 0.07700 0.33210 0.18600
C 	C 	0.08547 0.99730 0.47540 -0.52700
H 	H 	0.09740 0.00280 0.53230 0.19100
H 	H 	0.06080 0.97820 0.46120 0.20000
C 	C 	0.10155 0.90190 0.45160 0.40500
C 	C 	0.13078 0.38880 0.51600 -0.51600
H 	H 	0.12370 0.39890 0.55820 0.20000
H 	H 	0.15510 0.36120 0.53890 0.18700
C 	C 	0.12952 0.49950 0.47854 0.39500
C 	C 	0.04247 0.25970 0.24990 -0.50100
H 	H 	0.02630 0.32090 0.24690 0.17800
H 	H 	0.02810 0.19240 0.22810 0.18100
C 	C 	0.06034 0.29050 0.19820 0.41100
C 	C 	0.19714 0.83060 0.25030 0.37400
C 	C 	0.17918 0.92650 0.21360 -0.39800
H 	H 	0.15440 0.92500 0.18670 0.17600
C 	C 	0.19715 0.02450 0.21600 0.38400
C 	C 	0.23334 0.02540 0.25630 -0.39500
H 	H 	0.24570 0.09210 0.25810 0.17000
C 	C 	0.25195 0.93100 0.29390 0.38000
C 	C 	0.23350 0.83410 0.29020 -0.40200
H 	H 	0.24580 0.76890 0.31530 0.16700
C 	C 	0.17701 0.72540 0.24720 -0.49600
H 	H 	0.19310 0.66120 0.25920 0.19100
H 	H 	0.15870 0.71540 0.19400 0.17600
C 	C 	0.15977 0.72320 0.30198 0.39900
C 	C 	0.17687 0.12920 0.18050 -0.52000
H 	H 	0.15790 0.11220 0.12920 0.20200
H 	H 	0.19250 0.18500 0.17390 0.19200
C 	C 	0.16142 0.17640 0.23270 0.44400
C 	C 	0.29154 0.93810 0.33920 -0.50000
H 	H 	0.29950 0.87490 0.37580 0.19000
H 	H 	0.29740 0.00760 0.36990 0.18100
C 	C 	0.31177 0.93640 0.29010 0.39900
U 	U 	0.87064 0.71098 0.09124 0.00700
O 	O 	0.88521 0.91310 0.09533 -0.21800
O 	O 	0.89849 0.80700 0.01964 -0.21700
O 	O 	0.88592 0.58200 0.00967 -0.20800
O 	O 	0.85595 0.51140 0.06660 -0.20900
O 	O 	0.91495 0.35780 0.27796 -0.21200
O 	O 	0.95261 0.25060 0.37005 -0.22700
O 	O 	0.84455 0.62940 0.17283 -0.19700
O 	O 	0.85036 0.81020 0.17812 -0.21600
O 	O 	0.87023 0.16980 0.28720 -0.23700
O 	O 	0.81704 0.21890 0.20631 -0.23100
O 	O 	0.65581 0.93260 0.17654 -0.23200
O 	O 	0.70525 0.94030 0.28179 -0.23000
C 	C 	0.91367 0.11110 0.05720 0.40600
C 	C 	0.89330 0.19530 0.01060 -0.42400
H 	H 	0.87940 0.18080 0.95750 0.17000
C 	C 	0.89274 0.30130 0.03990 0.39600
C 	C 	0.91355 0.32160 0.11790 -0.41300
H 	H 	0.91360 0.39350 0.13850 0.21200
C 	C 	0.93424 0.23760 0.16620 0.40400
C 	C 	0.93404 0.13430 0.13540 -0.42700
H 	H 	0.94810 0.07700 0.16790 0.18600
C 	C 	0.91453 0.99730 0.02460 -0.52700
H 	H 	0.90260 0.00280 0.96770 0.19100
H 	H 	0.93920 0.97820 0.03880 0.20000
C 	C 	0.89845 0.90190 0.04840 0.40500
C 	C 	0.86922 0.38880 0.98400 -0.51600
H 	H 	0.87630 0.39890 0.94180 0.20000
H 	H 	0.84490 0.36120 0.96110 0.18700
C 	C 	0.87048 0.49950 0.02146 0.39500
C 	C 	0.95753 0.25970 0.25010 -0.50100
H 	H 	0.97370 0.32090 0.25310 0.17800
H 	H 	0.97190 0.19240 0.27190 0.18100
C 	C 	0.93966 0.29050 0.30180 0.41200
C 	C 	0.80286 0.83060 0.24970 0.37400
C 	C 	0.82082 0.92650 0.28640 -0.39800
H 	H 	0.84560 0.92500 0.31330 0.17600
C 	C 	0.80285 0.02450 0.28400 0.38400
C 	C 	0.76666 0.02540 0.24370 -0.39500
H 	H 	0.75430 0.09210 0.24190 0.17000
C 	C 	0.74805 0.93100 0.20610 0.38000
C 	C 	0.76650 0.83410 0.20980 -0.40200
H 	H 	0.75420 0.76890 0.18470 0.16700
C 	C 	0.82299 0.72540 0.25280 -0.49600
H 	H 	0.80690 0.66120 0.24080 0.19100
H 	H 	0.84130 0.71540 0.30600 0.17600
C 	C 	0.84023 0.72320 0.19802 0.39900
C 	C 	0.82313 0.12920 0.31950 -0.52000
H 	H 	0.84210 0.11220 0.37080 0.20200
H 	H 	0.80750 0.18500 0.32610 0.19200
C 	C 	0.83858 0.17640 0.26730 0.44400
C 	C 	0.70846 0.93810 0.16080 -0.50100
H 	H 	0.70050 0.87490 0.12420 0.19000
H 	H 	0.70260 0.00760 0.13010 0.18200
C 	C 	0.68823 0.93640 0.20990 0.39900
U 	U 	0.62936 0.21098 0.40876 0.00700
O 	O 	0.61479 0.41310 0.40467 -0.21800
O 	O 	0.60151 0.30700 0.48036 -0.21700
O 	O 	0.61408 0.08200 0.49033 -0.20800
O 	O 	0.64405 0.01140 0.43340 -0.20800
O 	O 	0.58505 0.85780 0.22204 -0.21200
O 	O 	0.54739 0.75060 0.12995 -0.22700
O 	O 	0.65545 0.12940 0.32717 -0.19700
O 	O 	0.64964 0.31020 0.32188 -0.21600
O 	O 	0.62977 0.66980 0.21280 -0.23700
O 	O 	0.68296 0.71890 0.29369 -0.23100
O 	O 	0.84419 0.43260 0.32346 -0.23100
O 	O 	0.79475 0.44030 0.21821 -0.23000
C 	C 	0.58633 0.61110 0.44280 0.40600
C 	C 	0.60670 0.69530 0.48940 -0.42500
H 	H 	0.62060 0.68080 0.54250 0.17000
C 	C 	0.60726 0.80130 0.46010 0.39600
C 	C 	0.58645 0.82160 0.38210 -0.41300
H 	H 	0.58640 0.89350 0.36150 0.21200
C 	C 	0.56576 0.73760 0.33380 0.40400
C 	C 	0.56596 0.63430 0.36460 -0.42700
H 	H 	0.55190 0.57700 0.33210 0.18600
C 	C 	0.58547 0.49730 0.47540 -0.52700
H 	H 	0.59740 0.50280 0.53230 0.19100
H 	H 	0.56080 0.47820 0.46120 0.20000
C 	C 	0.60155 0.40190 0.45160 0.40500
C 	C 	0.63078 0.88880 0.51600 -0.51500
H 	H 	0.62370 0.89890 0.55820 0.20000
H 	H 	0.65510 0.86120 0.53890 0.18700
C 	C 	0.62952 0.99950 0.47854 0.39500
C 	C 	0.54247 0.75970 0.24990 -0.50100
H 	H 	0.52630 0.82090 0.24690 0.17800
H 	H 	0.52810 0.69240 0.22810 0.18100
C 	C 	0.56034 0.79050 0.19820 0.41100
C 	C 	0.69714 0.33060 0.25030 0.37400
C 	C 	0.67918 0.42650 0.21360 -0.39800
H 	H 	0.65440 0.42500 0.18670 0.17600
C 	C 	0.69715 0.52450 0.21600 0.38300
C 	C 	0.73334 0.52540 0.25630 -0.39500
H 	H 	0.74570 0.59210 0.25810 0.17000
C 	C 	0.75195 0.43100 0.29390 0.38000
C 	C 	0.73350 0.33410 0.29020 -0.40200
H 	H 	0.74580 0.26890 0.31530 0.16700
C 	C 	0.67701 0.22540 0.24720 -0.49600
H 	H 	0.69310 0.16120 0.25920 0.19100
H 	H 	0.65870 0.21540 0.19400 0.17600
C 	C 	0.65977 0.22320 0.30198 0.39900
C 	C 	0.67687 0.62920 0.18050 -0.52000
H 	H 	0.65790 0.61220 0.12920 0.20200
H 	H 	0.69250 0.68500 0.17390 0.19200
C 	C 	0.66142 0.67640 0.23270 0.44400
C 	C 	0.79154 0.43810 0.33920 -0.50000
H 	H 	0.79950 0.37490 0.37580 0.19000
H 	H 	0.79740 0.50760 0.36990 0.18100
C 	C 	0.81177 0.43640 0.29010 0.39900
U 	U 	0.62936 0.78902 0.90876 0.00700
O 	O 	0.61479 0.58690 0.90467 -0.21800
O 	O 	0.60151 0.69300 0.98036 -0.21700
O 	O 	0.61408 0.91800 0.99033 -0.20700
O 	O 	0.64405 0.98860 0.93340 -0.20800
O 	O 	0.58505 0.14220 0.72204 -0.21200
O 	O 	0.54739 0.24940 0.62995 -0.22700
O 	O 	0.65545 0.87060 0.82717 -0.19700
O 	O 	0.64964 0.68980 0.82188 -0.21600
O 	O 	0.62977 0.33020 0.71280 -0.23700
O 	O 	0.68296 0.28110 0.79369 -0.23100
O 	O 	0.84419 0.56740 0.82346 -0.23100
O 	O 	0.79475 0.55970 0.71821 -0.23000
C 	C 	0.58633 0.38890 0.94280 0.40600
C 	C 	0.60670 0.30470 0.98940 -0.42500
H 	H 	0.62060 0.31920 0.04250 0.17000
C 	C 	0.60726 0.19870 0.96010 0.39500
C 	C 	0.58645 0.17840 0.88210 -0.41200
H 	H 	0.58640 0.10650 0.86150 0.21200
C 	C 	0.56576 0.26240 0.83380 0.40400
C 	C 	0.56596 0.36570 0.86460 -0.42700
H 	H 	0.55190 0.42300 0.83210 0.18600
C 	C 	0.58547 0.50270 0.97540 -0.52700
H 	H 	0.59740 0.49720 0.03230 0.19100
H 	H 	0.56080 0.52180 0.96120 0.20000
C 	C 	0.60155 0.59810 0.95160 0.40500
C 	C 	0.63078 0.11120 0.01600 -0.51400
H 	H 	0.62370 0.10110 0.05820 0.19900
H 	H 	0.65510 0.13880 0.03890 0.18600
C 	C 	0.62952 0.00050 0.97854 0.39300
C 	C 	0.54247 0.24030 0.74990 -0.50100
H 	H 	0.52630 0.17910 0.74690 0.17800
H 	H 	0.52810 0.30760 0.72810 0.18100
C 	C 	0.56034 0.20950 0.69820 0.41100
C 	C 	0.69714 0.66940 0.75030 0.37400
C 	C 	0.67918 0.57350 0.71360 -0.39800
H 	H 	0.65440 0.57500 0.68670 0.17600
C 	C 	0.69715 0.47550 0.71600 0.38300
C 	C 	0.73334 0.47460 0.75630 -0.39500
H 	H 	0.74570 0.40790 0.75810 0.17000
C 	C 	0.75195 0.56900 0.79390 0.38000
C 	C 	0.73350 0.66590 0.79020 -0.40200
H 	H 	0.74580 0.73110 0.81530 0.16700
C 	C 	0.67701 0.77460 0.74720 -0.49600
H 	H 	0.69310 0.83880 0.75920 0.19100
H 	H 	0.65870 0.78460 0.69400 0.17600
C 	C 	0.65977 0.77680 0.80198 0.39900
C 	C 	0.67687 0.37080 0.68050 -0.52000
H 	H 	0.65790 0.38780 0.62920 0.20200
H 	H 	0.69250 0.31500 0.67390 0.19200
C 	C 	0.66142 0.32360 0.73270 0.44400
C 	C 	0.79154 0.56190 0.83920 -0.50000
H 	H 	0.79950 0.62510 0.87580 0.19000
H 	H 	0.79740 0.49240 0.86990 0.18100
C 	C 	0.81177 0.56360 0.79010 0.39900
U 	U 	0.87064 0.28902 0.59124 0.00700
O 	O 	0.88521 0.08690 0.59533 -0.21800
O 	O 	0.89849 0.19300 0.51964 -0.21700
O 	O 	0.88592 0.41800 0.50967 -0.20800
O 	O 	0.85595 0.48860 0.56660 -0.20800
O 	O 	0.91495 0.64220 0.77796 -0.21200
O 	O 	0.95261 0.74940 0.87005 -0.22700
O 	O 	0.84455 0.37060 0.67283 -0.19700
O 	O 	0.85036 0.18980 0.67812 -0.21600
O 	O 	0.87023 0.83020 0.78720 -0.23700
O 	O 	0.81704 0.78110 0.70631 -0.23100
O 	O 	0.65581 0.06740 0.67654 -0.23100
O 	O 	0.70525 0.05970 0.78179 -0.23100
C 	C 	0.91367 0.88890 0.55720 0.40600
C 	C 	0.89330 0.80470 0.51060 -0.42500
H 	H 	0.87940 0.81920 0.45750 0.17000
C 	C 	0.89274 0.69870 0.53990 0.39600
C 	C 	0.91355 0.67840 0.61790 -0.41300
H 	H 	0.91360 0.60650 0.63850 0.21200
C 	C 	0.93424 0.76240 0.66620 0.40400
C 	C 	0.93404 0.86570 0.63540 -0.42700
H 	H 	0.94810 0.92300 0.66790 0.18600
C 	C 	0.91453 0.00270 0.52460 -0.52700
H 	H 	0.90260 0.99720 0.46770 0.19100
H 	H 	0.93920 0.02180 0.53880 0.20000
C 	C 	0.89845 0.09810 0.54840 0.40500
C 	C 	0.86922 0.61120 0.48400 -0.51600
H 	H 	0.87630 0.60110 0.44180 0.20000
H 	H 	0.84490 0.63880 0.46110 0.18700
C 	C 	0.87048 0.50050 0.52146 0.39500
C 	C 	0.95753 0.74030 0.75010 -0.50100
H 	H 	0.97370 0.67910 0.75310 0.17800
H 	H 	0.97190 0.80760 0.77190 0.18100
C 	C 	0.93966 0.70950 0.80180 0.41100
C 	C 	0.80286 0.16940 0.74970 0.37400
C 	C 	0.82082 0.07350 0.78640 -0.39800
H 	H 	0.84560 0.07500 0.81330 0.17600
C 	C 	0.80285 0.97550 0.78400 0.38400
C 	C 	0.76666 0.97460 0.74370 -0.39500
H 	H 	0.75430 0.90790 0.74190 0.17000
C 	C 	0.74805 0.06900 0.70610 0.38000
C 	C 	0.76650 0.16590 0.70980 -0.40200
H 	H 	0.75420 0.23110 0.68470 0.16700
C 	C 	0.82299 0.27460 0.75280 -0.49600
H 	H 	0.80690 0.33880 0.74080 0.19100
H 	H 	0.84130 0.28460 0.80600 0.17600
C 	C 	0.84023 0.27680 0.69802 0.39900
C 	C 	0.82313 0.87080 0.81950 -0.52000
H 	H 	0.84210 0.88780 0.87080 0.20200
H 	H 	0.80750 0.81500 0.82610 0.19200
C 	C 	0.83858 0.82360 0.76730 0.44400
C 	C 	0.70846 0.06190 0.66080 -0.50000
H 	H 	0.70050 0.12510 0.62420 0.19000
H 	H 	0.70260 0.99240 0.63010 0.18100
C 	C 	0.68823 0.06360 0.70990 0.39900
U 	U 	0.12936 0.28902 0.90876 0.00700
O 	O 	0.11479 0.08690 0.90467 -0.21800
O 	O 	0.10151 0.19300 0.98036 -0.21700
O 	O 	0.11408 0.41800 0.99033 -0.20800
O 	O 	0.14405 0.48860 0.93340 -0.20900
O 	O 	0.08505 0.64220 0.72204 -0.21200
O 	O 	0.04739 0.74940 0.62995 -0.22700
O 	O 	0.15545 0.37060 0.82717 -0.19700
O 	O 	0.14964 0.18980 0.82188 -0.21600
O 	O 	0.12977 0.83020 0.71280 -0.23700
O 	O 	0.18296 0.78110 0.79369 -0.23100
O 	O 	0.34419 0.06740 0.82346 -0.23200
O 	O 	0.29475 0.05970 0.71821 -0.23000
C 	C 	0.08633 0.88890 0.94280 0.40600
C 	C 	0.10670 0.80470 0.98940 -0.42400
H 	H 	0.12060 0.81920 0.04250 0.17000
C 	C 	0.10726 0.69870 0.96010 0.39600
C 	C 	0.08645 0.67840 0.88210 -0.41300
H 	H 	0.08640 0.60650 0.86150 0.21200
C 	C 	0.06576 0.76240 0.83380 0.40400
C 	C 	0.06596 0.86570 0.86460 -0.42700
H 	H 	0.05190 0.92300 0.83210 0.18600
C 	C 	0.08547 0.00270 0.97540 -0.52700
H 	H 	0.09740 0.99720 0.03230 0.19100
H 	H 	0.06080 0.02180 0.96120 0.20000
C 	C 	0.10155 0.09810 0.95160 0.40500
C 	C 	0.13078 0.61120 0.01600 -0.51600
H 	H 	0.12370 0.60110 0.05820 0.20000
H 	H 	0.15510 0.63880 0.03890 0.18700
C 	C 	0.12952 0.50050 0.97854 0.39500
C 	C 	0.04247 0.74030 0.74990 -0.50100
H 	H 	0.02630 0.67910 0.74690 0.17800
H 	H 	0.02810 0.80760 0.72810 0.18100
C 	C 	0.06034 0.70950 0.69820 0.41200
C 	C 	0.19714 0.16940 0.75030 0.37400
C 	C 	0.17918 0.07350 0.71360 -0.39800
H 	H 	0.15440 0.07500 0.68670 0.17600
C 	C 	0.19715 0.97550 0.71600 0.38400
C 	C 	0.23334 0.97460 0.75630 -0.39500
H 	H 	0.24570 0.90790 0.75810 0.17000
C 	C 	0.25195 0.06900 0.79390 0.38000
C 	C 	0.23350 0.16590 0.79020 -0.40200
H 	H 	0.24580 0.23110 0.81530 0.16700
C 	C 	0.17701 0.27460 0.74720 -0.49600
H 	H 	0.19310 0.33880 0.75920 0.19100
H 	H 	0.15870 0.28460 0.69400 0.17600
C 	C 	0.15977 0.27680 0.80198 0.39900
C 	C 	0.17687 0.87080 0.68050 -0.52000
H 	H 	0.15790 0.88780 0.62920 0.20200
H 	H 	0.19250 0.81500 0.67390 0.19200
C 	C 	0.16142 0.82360 0.73270 0.44400
C 	C 	0.29154 0.06190 0.83920 -0.50100
H 	H 	0.29950 0.12510 0.87580 0.19000
H 	H 	0.29740 0.99240 0.86990 0.18200
C 	C 	0.31177 0.06360 0.79010 0.39900
U 	U 	0.37064 0.78902 0.59124 0.00700
O 	O 	0.38521 0.58690 0.59533 -0.21800
O 	O 	0.39849 0.69300 0.51964 -0.21700
O 	O 	0.38592 0.91800 0.50967 -0.20800
O 	O 	0.35595 0.98860 0.56660 -0.20800
O 	O 	0.41495 0.14220 0.77796 -0.21200
O 	O 	0.45261 0.24940 0.87005 -0.22700
O 	O 	0.34455 0.87060 0.67283 -0.19700
O 	O 	0.35036 0.68980 0.67812 -0.21600
O 	O 	0.37023 0.33020 0.78720 -0.23700
O 	O 	0.31704 0.28110 0.70631 -0.23100
O 	O 	0.15581 0.56740 0.67654 -0.23100
O 	O 	0.20525 0.55970 0.78179 -0.23000
C 	C 	0.41367 0.38890 0.55720 0.40600
C 	C 	0.39330 0.30470 0.51060 -0.42500
H 	H 	0.37940 0.31920 0.45750 0.17000
C 	C 	0.39274 0.19870 0.53990 0.39600
C 	C 	0.41355 0.17840 0.61790 -0.41300
H 	H 	0.41360 0.10650 0.63850 0.21200
C 	C 	0.43424 0.26240 0.66620 0.40400
C 	C 	0.43404 0.36570 0.63540 -0.42700
H 	H 	0.44810 0.42300 0.66790 0.18600
C 	C 	0.41453 0.50270 0.52460 -0.52700
H 	H 	0.40260 0.49720 0.46770 0.19100
H 	H 	0.43920 0.52180 0.53880 0.20000
C 	C 	0.39845 0.59810 0.54840 0.40500
C 	C 	0.36922 0.11120 0.48400 -0.51500
H 	H 	0.37630 0.10110 0.44180 0.20000
H 	H 	0.34490 0.13880 0.46110 0.18700
C 	C 	0.37048 0.00050 0.52146 0.39500
C 	C 	0.45753 0.24030 0.75010 -0.50100
H 	H 	0.47370 0.17910 0.75310 0.17800
H 	H 	0.47190 0.30760 0.77190 0.18100
C 	C 	0.43966 0.20950 0.80180 0.41100
C 	C 	0.30286 0.66940 0.74970 0.37400
C 	C 	0.32082 0.57350 0.78640 -0.39800
H 	H 	0.34560 0.57500 0.81330 0.17600
C 	C 	0.30285 0.47550 0.78400 0.38300
C 	C 	0.26666 0.47460 0.74370 -0.39500
H 	H 	0.25430 0.40790 0.74190 0.17000
C 	C 	0.24805 0.56900 0.70610 0.38000
C 	C 	0.26650 0.66590 0.70980 -0.40200
H 	H 	0.25420 0.73110 0.68470 0.16700
C 	C 	0.32299 0.77460 0.75280 -0.49600
H 	H 	0.30690 0.83880 0.74080 0.19100
H 	H 	0.34130 0.78460 0.80600 0.17600
C 	C 	0.34023 0.77680 0.69802 0.39900
C 	C 	0.32313 0.37080 0.81950 -0.52000
H 	H 	0.34210 0.38780 0.87080 0.20200
H 	H 	0.30750 0.31500 0.82610 0.19200
C 	C 	0.33858 0.32360 0.76730 0.44400
C 	C 	0.20846 0.56190 0.66080 -0.50000
H 	H 	0.20050 0.62510 0.62420 0.19000
H 	H 	0.20260 0.49240 0.63010 0.18100
C 	C 	0.18823 0.56360 0.70990 0.39900
