data_crystal

_cell_length_a 14.07850
_cell_length_b 14.24230
_cell_length_c 27.22430
_cell_angle_alpha 76.50000
_cell_angle_beta  88.45200
_cell_angle_gamma 74.83100

_symmetry_space_group_name_	'P 1'
_symmetry_space_group_name_H-M	'P 1'

loop_
_symmetry_equiv_pos_as_xyz
  x,y,z

loop_
_atom_site_label
_atom_site_type_symbol
_atom_site_fract_x
_atom_site_fract_y
_atom_site_fract_z
_atom_site_charge
Ni	Ni	0.71949 0.20692 0.03341 1.09600
Ni	Ni	0.76083 0.06161 0.14226 1.09400
S 	S 	0.62533 0.07144 0.95405 -0.00400
S 	S 	0.59898 0.11264 0.02209 -0.15600
S 	S 	0.73409 0.93115 0.10227 -0.15800
S 	S 	0.62156 0.87844 0.13992 -0.00000
N 	N 	0.60990 0.32180 0.99387 -0.24100
N 	N 	0.79200 0.17180 0.96982 -0.23800
N 	N 	0.86490 0.93990 0.18415 -0.23800
N 	N 	0.64790 0.04230 0.19185 -0.23800
O 	O 	0.79490 0.30570 0.03688 -0.38700
O 	O 	0.82990 0.09610 0.07512 -0.50700
O 	O 	0.80530 0.14810 0.17937 -0.39300
O 	O 	0.66090 0.18770 0.10400 -0.50700
C 	C 	0.65770 0.17330 0.91410 -0.04500
C 	C 	0.60110 0.21950 0.86940 -0.01500
H 	H 	0.54540 0.19940 0.86380 0.04000
C 	C 	0.62550 0.29360 0.83350 -0.08300
H 	H 	0.58670 0.32290 0.80400 0.05600
C 	C 	0.70690 0.32460 0.84120 0.02000
H 	H 	0.72380 0.37490 0.81690 0.01800
C 	C 	0.76400 0.28090 0.88510 -0.12700
H 	H 	0.81940 0.30190 0.89020 0.07900
C 	C 	0.74000 0.20620 0.92180 0.08100
C 	C 	0.88640 0.14410 0.97060 0.09700
H 	H 	0.91530 0.14050 0.93970 0.00800
C 	C 	0.95220 0.11820 0.01380 -0.18100
C 	C 	0.05170 0.11440 0.00460 0.11600
H 	H 	0.07160 0.12660 0.97130 -0.00300
C 	C 	0.11940 0.09350 0.04270 -0.22300
H 	H 	0.18460 0.09290 0.03580 0.10800
C 	C 	0.09060 0.07330 0.09170 0.17800
H 	H 	0.13680 0.05940 0.11790 -0.03400
C 	C 	0.99490 0.07300 0.10280 -0.30300
H 	H 	0.97780 0.05670 0.13640 0.13600
C 	C 	0.92300 0.09670 0.06440 0.30100
C 	C 	0.49790 0.21730 0.00610 -0.00600
C 	C 	0.40370 0.20410 0.00640 -0.04800
H 	H 	0.39520 0.13980 0.01510 0.05300
C 	C 	0.32250 0.28520 0.99400 -0.04700
H 	H 	0.25960 0.27580 0.99390 0.04500
C 	C 	0.33570 0.38020 0.98180 -0.01000
H 	H 	0.28150 0.43540 0.97360 0.03800
C 	C 	0.43020 0.39380 0.98170 -0.09500
H 	H 	0.43850 0.45830 0.97400 0.06500
C 	C 	0.51180 0.31260 0.99291 0.06200
C 	C 	0.62970 0.39840 0.96440 0.07700
H 	H 	0.57860 0.44180 0.94290 0.00900
C 	C 	0.72280 0.42470 0.96100 -0.17500
C 	C 	0.73510 0.50250 0.92120 0.10100
H 	H 	0.68380 0.53500 0.89740 -0.00300
C 	C 	0.82080 0.53170 0.91650 -0.20800
H 	H 	0.82760 0.58320 0.88970 0.09900
C 	C 	0.89630 0.48460 0.95140 0.15200
H 	H 	0.95480 0.50390 0.94790 -0.02900
C 	C 	0.88690 0.41000 0.99110 -0.26800
H 	H 	0.93890 0.38020 0.01480 0.13500
C 	C 	0.80000 0.37650 0.99760 0.26500
C 	C 	0.84040 0.83570 0.13020 -0.01500
C 	C 	0.86480 0.74790 0.11340 -0.03500
H 	H 	0.82530 0.73990 0.08860 0.04700
C 	C 	0.94710 0.67270 0.13300 -0.06600
H 	H 	0.96340 0.61350 0.12210 0.04900
C 	C 	0.00420 0.68710 0.16890 0.00300
H 	H 	0.06010 0.63690 0.18230 0.02500
C 	C 	0.98090 0.77430 0.18550 -0.10800
H 	H 	0.02230 0.78310 0.20910 0.07100
C 	C 	0.89550 0.84950 0.16730 0.06600
C 	C 	0.88920 0.94060 0.22990 0.08100
H 	H 	0.92570 0.87990 0.24950 0.01000
C 	C 	0.86680 0.02260 0.25370 -0.18600
C 	C 	0.88900 0.00030 0.30590 0.11600
H 	H 	0.91920 0.93480 0.32280 -0.00700
C 	C 	0.86700 0.07340 0.33190 -0.21500
H 	H 	0.88150 0.05820 0.36640 0.10800
C 	C 	0.82280 0.17030 0.30660 0.16300
H 	H 	0.80720 0.22020 0.32450 -0.02500
C 	C 	0.80120 0.19490 0.25570 -0.28300
H 	H 	0.77150 0.26100 0.23960 0.14200
C 	C 	0.82340 0.12170 0.22760 0.28600
C 	C 	0.65390 0.86480 0.20420 -0.04300
C 	C 	0.67220 0.77060 0.23480 -0.02100
H 	H 	0.67070 0.71640 0.22160 0.03900
C 	C 	0.69380 0.75650 0.28760 -0.07900
H 	H 	0.70810 0.69280 0.30880 0.05400
C 	C 	0.69330 0.83700 0.30640 0.01500
H 	H 	0.70590 0.82820 0.34070 0.02700
C 	C 	0.67430 0.93180 0.27500 -0.12500
H 	H 	0.67380 0.98650 0.28830 0.07800
C 	C 	0.65620 0.94520 0.22420 0.08000
C 	C 	0.58460 0.11680 0.20220 0.10000
H 	H 	0.54390 0.10300 0.22890 0.00600
C 	C 	0.57040 0.21900 0.17670 -0.17600
C 	C 	0.51610 0.28770 0.20230 0.10200
H 	H 	0.48710 0.26480 0.23220 0.00100
C 	C 	0.50410 0.38800 0.18450 -0.19400
H 	H 	0.46800 0.43290 0.20230 0.09700
C 	C 	0.54730 0.42290 0.13870 0.14600
H 	H 	0.54090 0.49100 0.12650 -0.02100
C 	C 	0.59900 0.35540 0.11230 -0.28600
H 	H 	0.62620 0.37920 0.08190 0.12900
C 	C 	0.61170 0.25260 0.12970 0.29700
Ni	Ni	0.25171 0.07865 0.34139 1.09300
Ni	Ni	0.20178 0.22145 0.41800 1.09600
S 	S 	0.22778 0.94656 0.41453 -0.16200
S 	S 	0.12170 0.88809 0.39142 -0.00100
S 	S 	0.08897 0.11467 0.46036 -0.14600
S 	S 	0.11112 0.09150 0.53714 -0.00800
N 	N 	0.35680 0.95680 0.32730 -0.23900
N 	N 	0.14100 0.05820 0.29921 -0.24000
N 	N 	0.07850 0.32890 0.42942 -0.23900
N 	N 	0.27430 0.19160 0.48752 -0.24000
O 	O 	0.29940 0.16400 0.28273 -0.38800
O 	O 	0.14920 0.20200 0.35283 -0.51800
O 	O 	0.26720 0.32960 0.39175 -0.39200
O 	O 	0.31740 0.11770 0.39867 -0.51000
C 	C 	0.33780 0.85630 0.41000 -0.01300
C 	C 	0.45600 0.70420 0.44770 -0.06600
H 	H 	0.47810 0.64940 0.47470 0.04900
C 	C 	0.50930 0.71680 0.40380 0.00500
H 	H 	0.56740 0.66900 0.40130 0.02400
C 	C 	0.47730 0.79890 0.36410 -0.11100
H 	H 	0.51440 0.80620 0.33530 0.07400
C 	C 	0.39090 0.87020 0.36660 0.06800
C 	C 	0.38150 0.95610 0.28090 0.07800
H 	H 	0.41750 0.89480 0.27550 0.01100
C 	C 	0.36080 0.03620 0.23780 -0.17000
C 	C 	0.38310 0.01300 0.19040 0.09100
H 	H 	0.40970 0.94670 0.18890 0.00200
C 	C 	0.36640 0.08610 0.14660 -0.18800
H 	H 	0.38150 0.07000 0.11570 0.09800
C 	C 	0.32630 0.18500 0.14920 0.13600
H 	H 	0.31530 0.23530 0.11960 -0.01700
C 	C 	0.30280 0.20950 0.19440 -0.25800
H 	H 	0.27520 0.27620 0.19480 0.13000
C 	C 	0.31890 0.13680 0.24050 0.26500
C 	C 	0.15190 0.87880 0.32930 -0.04100
C 	C 	0.17100 0.78440 0.31900 -0.02300
H 	H 	0.17360 0.72850 0.34520 0.04200
C 	C 	0.18610 0.77380 0.27000 -0.07300
H 	H 	0.19820 0.71060 0.26340 0.05300
C 	C 	0.18330 0.85480 0.23150 0.00700
H 	H 	0.19420 0.84640 0.19870 0.03000
C 	C 	0.16440 0.95070 0.24050 -0.11600
H 	H 	0.16130 0.00590 0.21380 0.07400
C 	C 	0.15010 0.96250 0.28960 0.07800
C 	C 	0.07620 0.13420 0.27310 0.10400
H 	H 	0.03530 0.12100 0.25080 0.00500
C 	C 	0.06080 0.23640 0.27480 -0.20300
C 	C 	0.00490 0.30580 0.23520 0.13500
H 	H 	0.97810 0.28350 0.21070 -0.01100
C 	C 	0.98800 0.40550 0.23100 -0.23400
H 	H 	0.95180 0.45120 0.20350 0.11000
C 	C 	0.02570 0.43830 0.26860 0.18300
H 	H 	0.01360 0.50650 0.26660 -0.03600
C 	C 	0.08070 0.37050 0.30870 -0.31400
H 	H 	0.10620 0.39360 0.33340 0.14000
C 	C 	0.09920 0.26710 0.31330 0.32000
C 	C 	0.97960 0.21010 0.44540 -0.00800
C 	C 	0.88990 0.18720 0.44680 -0.04200
H 	H 	0.88660 0.12140 0.45870 0.05300
C 	C 	0.80470 0.26290 0.43050 -0.06200
H 	H 	0.74400 0.24820 0.43140 0.04800
C 	C 	0.81080 0.35850 0.41320 0.00300
H 	H 	0.75380 0.40900 0.40180 0.02400
C 	C 	0.89920 0.38220 0.41210 -0.10600
H 	H 	0.90180 0.44800 0.39950 0.06800
C 	C 	0.98500 0.30830 0.42990 0.06500
C 	C 	0.08270 0.41390 0.43740 0.08300
H 	H 	0.02520 0.45400 0.44700 0.00600
C 	C 	0.16790 0.45130 0.43280 -0.18000
C 	C 	0.16120 0.53780 0.45080 0.10700
H 	H 	0.10300 0.56640 0.46480 -0.00400
C 	C 	0.23690 0.58010 0.44830 -0.20800
H 	H 	0.23180 0.63660 0.46080 0.10500
C 	C 	0.32230 0.53730 0.42660 0.14600
H 	H 	0.37520 0.56550 0.42520 -0.02200
C 	C 	0.33190 0.45420 0.40690 -0.27400
H 	H 	0.38970 0.42910 0.39160 0.13700
C 	C 	0.25550 0.40810 0.41010 0.27700
C 	C 	0.14260 0.19840 0.54780 -0.04600
C 	C 	0.08760 0.24520 0.58330 -0.01500
H 	H 	0.03250 0.22540 0.59660 0.03900
C 	C 	0.11460 0.31990 0.59870 -0.08400
H 	H 	0.07870 0.34930 0.62290 0.05600
C 	C 	0.19430 0.35110 0.57850 0.02000
H 	H 	0.21270 0.40180 0.58890 0.01700
C 	C 	0.24750 0.30670 0.54250 -0.12700
H 	H 	0.30100 0.32900 0.52850 0.07700
C 	C 	0.22290 0.23030 0.52690 0.08100
C 	C 	0.36900 0.16010 0.49280 0.09500
H 	H 	0.39620 0.16020 0.52350 0.00700
C 	C 	0.43640 0.12540 0.45710 -0.17700
C 	C 	0.53690 0.10820 0.46930 0.10400
H 	H 	0.55430 0.11910 0.49980 -0.00000
C 	C 	0.61060 0.07590 0.43810 -0.20500
H 	H 	0.67640 0.06460 0.44740 0.10200
C 	C 	0.58360 0.06050 0.39200 0.16700
H 	H 	0.63200 0.04010 0.36990 -0.02900
C 	C 	0.48720 0.07520 0.37920 -0.30100
H 	H 	0.47160 0.06370 0.34860 0.13500
C 	C 	0.40980 0.10710 0.41060 0.30600
C 	C 	0.36920 0.77600 0.44960 -0.03800
H 	H 	0.33180 0.76930 0.47830 0.04500
Ni	Ni	0.28051 0.79308 0.96659 1.09500
Ni	Ni	0.23917 0.93839 0.85774 1.09300
S 	S 	0.37467 0.92856 0.04595 -0.00400
S 	S 	0.40102 0.88736 0.97791 -0.15600
S 	S 	0.26591 0.06885 0.89773 -0.15800
S 	S 	0.37844 0.12156 0.86008 -0.00000
N 	N 	0.39010 0.67820 0.00613 -0.24100
N 	N 	0.20800 0.82820 0.03018 -0.23800
N 	N 	0.13510 0.06010 0.81585 -0.23800
N 	N 	0.35210 0.95770 0.80815 -0.23800
O 	O 	0.20510 0.69430 0.96312 -0.38700
O 	O 	0.17010 0.90390 0.92488 -0.50700
O 	O 	0.19470 0.85190 0.82063 -0.39300
O 	O 	0.33910 0.81230 0.89600 -0.50700
C 	C 	0.34230 0.82670 0.08590 -0.04500
C 	C 	0.39890 0.78050 0.13060 -0.01500
H 	H 	0.45460 0.80060 0.13620 0.04000
C 	C 	0.37450 0.70640 0.16650 -0.08300
H 	H 	0.41330 0.67710 0.19600 0.05600
C 	C 	0.29310 0.67540 0.15880 0.02000
H 	H 	0.27620 0.62510 0.18310 0.01800
C 	C 	0.23600 0.71910 0.11490 -0.12700
H 	H 	0.18060 0.69810 0.10980 0.07900
C 	C 	0.26000 0.79380 0.07820 0.08100
C 	C 	0.11360 0.85590 0.02940 0.09700
H 	H 	0.08470 0.85950 0.06030 0.00800
C 	C 	0.04780 0.88180 0.98620 -0.18100
C 	C 	0.94830 0.88560 0.99540 0.11600
H 	H 	0.92840 0.87340 0.02870 -0.00300
C 	C 	0.88060 0.90650 0.95730 -0.22300
H 	H 	0.81540 0.90710 0.96420 0.10800
C 	C 	0.90940 0.92670 0.90830 0.17800
H 	H 	0.86320 0.94060 0.88210 -0.03400
C 	C 	0.00510 0.92700 0.89720 -0.30300
H 	H 	0.02220 0.94330 0.86360 0.13600
C 	C 	0.07700 0.90330 0.93560 0.30100
C 	C 	0.50210 0.78270 0.99390 -0.00600
C 	C 	0.59630 0.79590 0.99360 -0.04800
H 	H 	0.60480 0.86020 0.98490 0.05300
C 	C 	0.67750 0.71480 0.00600 -0.04700
H 	H 	0.74040 0.72420 0.00610 0.04500
C 	C 	0.66430 0.61980 0.01820 -0.01000
H 	H 	0.71850 0.56460 0.02640 0.03800
C 	C 	0.56980 0.60620 0.01830 -0.09500
H 	H 	0.56150 0.54170 0.02600 0.06500
C 	C 	0.48820 0.68740 0.00709 0.06200
C 	C 	0.37030 0.60160 0.03560 0.07700
H 	H 	0.42140 0.55820 0.05710 0.00900
C 	C 	0.27720 0.57530 0.03900 -0.17500
C 	C 	0.26490 0.49750 0.07880 0.10100
H 	H 	0.31620 0.46500 0.10260 -0.00300
C 	C 	0.17920 0.46830 0.08350 -0.20800
H 	H 	0.17240 0.41680 0.11030 0.09900
C 	C 	0.10370 0.51540 0.04860 0.15200
H 	H 	0.04520 0.49610 0.05210 -0.02900
C 	C 	0.11310 0.59000 0.00890 -0.26800
H 	H 	0.06110 0.61980 0.98520 0.13500
C 	C 	0.20000 0.62350 0.00240 0.26500
C 	C 	0.15960 0.16430 0.86980 -0.01500
C 	C 	0.13520 0.25210 0.88660 -0.03500
H 	H 	0.17470 0.26010 0.91140 0.04700
C 	C 	0.05290 0.32730 0.86700 -0.06600
H 	H 	0.03660 0.38650 0.87790 0.04900
C 	C 	0.99580 0.31290 0.83110 0.00300
H 	H 	0.93990 0.36310 0.81770 0.02500
C 	C 	0.01910 0.22570 0.81450 -0.10800
H 	H 	0.97770 0.21690 0.79090 0.07100
C 	C 	0.10450 0.15050 0.83270 0.06600
C 	C 	0.11080 0.05940 0.77010 0.08100
H 	H 	0.07430 0.12010 0.75050 0.01000
C 	C 	0.13320 0.97740 0.74630 -0.18600
C 	C 	0.11100 0.99970 0.69410 0.11600
H 	H 	0.08080 0.06520 0.67720 -0.00700
C 	C 	0.13300 0.92660 0.66810 -0.21500
H 	H 	0.11850 0.94180 0.63360 0.10800
C 	C 	0.17720 0.82970 0.69340 0.16300
H 	H 	0.19280 0.77980 0.67550 -0.02500
C 	C 	0.19880 0.80510 0.74430 -0.28300
H 	H 	0.22850 0.73900 0.76040 0.14200
C 	C 	0.17660 0.87830 0.77240 0.28600
C 	C 	0.34610 0.13520 0.79580 -0.04300
C 	C 	0.32780 0.22940 0.76520 -0.02100
H 	H 	0.32930 0.28360 0.77840 0.03900
C 	C 	0.30620 0.24350 0.71240 -0.07900
H 	H 	0.29190 0.30720 0.69120 0.05400
C 	C 	0.30670 0.16300 0.69360 0.01500
H 	H 	0.29410 0.17180 0.65930 0.02700
C 	C 	0.32570 0.06820 0.72500 -0.12500
H 	H 	0.32620 0.01350 0.71170 0.07800
C 	C 	0.34380 0.05480 0.77580 0.08000
C 	C 	0.41540 0.88320 0.79780 0.10000
H 	H 	0.45610 0.89700 0.77110 0.00600
C 	C 	0.42960 0.78100 0.82330 -0.17600
C 	C 	0.48390 0.71230 0.79770 0.10200
H 	H 	0.51290 0.73520 0.76780 0.00100
C 	C 	0.49590 0.61200 0.81550 -0.19400
H 	H 	0.53200 0.56710 0.79770 0.09700
C 	C 	0.45270 0.57710 0.86130 0.14600
H 	H 	0.45910 0.50900 0.87350 -0.02100
C 	C 	0.40100 0.64460 0.88770 -0.28600
H 	H 	0.37380 0.62080 0.91810 0.12900
C 	C 	0.38830 0.74740 0.87030 0.29700
Ni	Ni	0.74829 0.92135 0.65861 1.09300
Ni	Ni	0.79822 0.77855 0.58200 1.09600
S 	S 	0.77222 0.05344 0.58547 -0.16200
S 	S 	0.87830 0.11191 0.60858 -0.00100
S 	S 	0.91103 0.88533 0.53964 -0.14600
S 	S 	0.88888 0.90850 0.46286 -0.00800
N 	N 	0.64320 0.04320 0.67270 -0.23900
N 	N 	0.85900 0.94180 0.70079 -0.24000
N 	N 	0.92150 0.67110 0.57058 -0.23900
N 	N 	0.72570 0.80840 0.51248 -0.24000
O 	O 	0.70060 0.83600 0.71727 -0.38800
O 	O 	0.85080 0.79800 0.64717 -0.51800
O 	O 	0.73280 0.67040 0.60825 -0.39200
O 	O 	0.68260 0.88230 0.60133 -0.51000
C 	C 	0.66220 0.14370 0.59000 -0.01300
C 	C 	0.54400 0.29580 0.55230 -0.06600
H 	H 	0.52190 0.35060 0.52530 0.04900
C 	C 	0.49070 0.28320 0.59620 0.00500
H 	H 	0.43260 0.33100 0.59870 0.02400
C 	C 	0.52270 0.20110 0.63590 -0.11100
H 	H 	0.48560 0.19380 0.66470 0.07400
C 	C 	0.60910 0.12980 0.63340 0.06800
C 	C 	0.61850 0.04390 0.71910 0.07800
H 	H 	0.58250 0.10520 0.72450 0.01100
C 	C 	0.63920 0.96380 0.76220 -0.17000
C 	C 	0.61690 0.98700 0.80960 0.09100
H 	H 	0.59030 0.05330 0.81110 0.00200
C 	C 	0.63360 0.91390 0.85340 -0.18800
H 	H 	0.61850 0.93000 0.88430 0.09800
C 	C 	0.67370 0.81500 0.85080 0.13600
H 	H 	0.68470 0.76470 0.88040 -0.01700
C 	C 	0.69720 0.79050 0.80560 -0.25800
H 	H 	0.72480 0.72380 0.80520 0.13000
C 	C 	0.68110 0.86320 0.75950 0.26500
C 	C 	0.84810 0.12120 0.67070 -0.04100
C 	C 	0.82900 0.21560 0.68100 -0.02300
H 	H 	0.82640 0.27150 0.65480 0.04200
C 	C 	0.81390 0.22620 0.73000 -0.07300
H 	H 	0.80180 0.28940 0.73660 0.05300
C 	C 	0.81670 0.14520 0.76850 0.00700
H 	H 	0.80580 0.15360 0.80130 0.03000
C 	C 	0.83560 0.04930 0.75950 -0.11600
H 	H 	0.83870 0.99410 0.78620 0.07400
C 	C 	0.84990 0.03750 0.71040 0.07800
C 	C 	0.92380 0.86580 0.72690 0.10400
H 	H 	0.96470 0.87900 0.74920 0.00500
C 	C 	0.93920 0.76360 0.72520 -0.20300
C 	C 	0.99510 0.69420 0.76480 0.13500
H 	H 	0.02190 0.71650 0.78930 -0.01100
C 	C 	0.01200 0.59450 0.76900 -0.23400
H 	H 	0.04820 0.54880 0.79650 0.11000
C 	C 	0.97430 0.56170 0.73140 0.18300
H 	H 	0.98640 0.49350 0.73340 -0.03600
C 	C 	0.91930 0.62950 0.69130 -0.31400
H 	H 	0.89380 0.60640 0.66660 0.14000
C 	C 	0.90080 0.73290 0.68670 0.32000
C 	C 	0.02040 0.78990 0.55460 -0.00800
C 	C 	0.11010 0.81280 0.55320 -0.04200
H 	H 	0.11340 0.87860 0.54130 0.05300
C 	C 	0.19530 0.73710 0.56950 -0.06200
H 	H 	0.25600 0.75180 0.56860 0.04800
C 	C 	0.18920 0.64150 0.58680 0.00300
H 	H 	0.24620 0.59100 0.59820 0.02400
C 	C 	0.10080 0.61780 0.58790 -0.10600
H 	H 	0.09820 0.55200 0.60050 0.06800
C 	C 	0.01500 0.69170 0.57010 0.06500
C 	C 	0.91730 0.58610 0.56260 0.08300
H 	H 	0.97480 0.54600 0.55300 0.00600
C 	C 	0.83210 0.54870 0.56720 -0.18000
C 	C 	0.83880 0.46220 0.54920 0.10700
H 	H 	0.89700 0.43360 0.53520 -0.00400
C 	C 	0.76310 0.41990 0.55170 -0.20800
H 	H 	0.76820 0.36340 0.53920 0.10500
C 	C 	0.67770 0.46270 0.57340 0.14600
H 	H 	0.62480 0.43450 0.57480 -0.02200
C 	C 	0.66810 0.54580 0.59310 -0.27400
H 	H 	0.61030 0.57090 0.60840 0.13700
C 	C 	0.74450 0.59190 0.58990 0.27700
C 	C 	0.85740 0.80160 0.45220 -0.04600
C 	C 	0.91240 0.75480 0.41670 -0.01500
H 	H 	0.96750 0.77460 0.40340 0.03900
C 	C 	0.88540 0.68010 0.40130 -0.08400
H 	H 	0.92130 0.65070 0.37710 0.05600
C 	C 	0.80570 0.64890 0.42150 0.02000
H 	H 	0.78730 0.59820 0.41110 0.01700
C 	C 	0.75250 0.69330 0.45750 -0.12700
H 	H 	0.69900 0.67100 0.47150 0.07700
C 	C 	0.77710 0.76970 0.47310 0.08100
C 	C 	0.63100 0.83990 0.50720 0.09500
H 	H 	0.60380 0.83980 0.47650 0.00700
C 	C 	0.56360 0.87460 0.54290 -0.17700
C 	C 	0.46310 0.89180 0.53070 0.10400
H 	H 	0.44570 0.88090 0.50020 -0.00000
C 	C 	0.38940 0.92410 0.56190 -0.20500
H 	H 	0.32360 0.93540 0.55260 0.10200
C 	C 	0.41640 0.93950 0.60800 0.16700
H 	H 	0.36800 0.95990 0.63010 -0.02900
C 	C 	0.51280 0.92480 0.62080 -0.30100
H 	H 	0.52840 0.93630 0.65140 0.13500
C 	C 	0.59020 0.89290 0.58940 0.30600
C 	C 	0.63080 0.22400 0.55040 -0.03800
H 	H 	0.66820 0.23070 0.52170 0.04500
