data_crystal

_cell_length_a 21.43220
_cell_length_b 23.05400
_cell_length_c 12.13090
_cell_angle_alpha 90.00000
_cell_angle_beta  119.61800
_cell_angle_gamma 90.00000

_symmetry_space_group_name_	'P 1'
_symmetry_space_group_name_H-M	'P 1'

loop_
_symmetry_equiv_pos_as_xyz
  x,y,z

loop_
_atom_site_label
_atom_site_type_symbol
_atom_site_fract_x
_atom_site_fract_y
_atom_site_fract_z
_atom_site_charge
Ni	Ni	0.28404 0.15886 0.27570 1.01600
N 	N 	0.28290 0.24780 0.27690 -0.23400
N 	N 	0.27270 0.28240 0.17790 -0.22200
N 	N 	0.28720 0.33660 0.33330 -0.11800
N 	N 	0.29370 0.38490 0.41050 -0.21200
H 	H 	0.28770 0.37320 0.47460 0.08500
H 	H 	0.26000 0.41080 0.36410 0.09800
N 	N 	0.34580 0.15530 0.18730 -0.21900
N 	N 	0.33340 0.18770 0.08670 -0.20100
N 	N 	0.42200 0.12940 0.12890 -0.09700
N 	N 	0.47830 0.10200 0.12060 -0.22300
H 	H 	0.46670 0.06510 0.09810 0.09700
H 	H 	0.51790 0.10350 0.19620 0.10500
N 	N 	0.18950 0.15540 0.10250 -0.23200
N 	N 	0.17740 0.19040 0.00230 -0.25900
N 	N 	0.08580 0.13500 0.94950 -0.08700
N 	N 	0.01790 0.10630 0.87740 -0.20700
H 	H 	0.02240 0.07790 0.83200 0.11600
H 	H 	0.98530 0.13170 0.82550 0.11000
O 	O 	0.37640 0.15590 0.44940 -0.71700
H 	H 	0.34190 0.17840 0.43580 0.16800
H 	H 	0.41710 0.17040 0.50080 0.30500
C 	C 	0.27690 0.33590 0.21590 0.09200
H 	H 	0.27320 0.36860 0.16810 -0.02500
C 	C 	0.29140 0.28170 0.36900 0.08300
H 	H 	0.29930 0.26930 0.44780 -0.04000
C 	C 	0.37930 0.17140 0.05110 -0.02200
H 	H 	0.38200 0.18650 0.98250 0.07100
C 	C 	0.39970 0.12120 0.21380 0.07300
H 	H 	0.41980 0.09520 0.28110 -0.01900
C 	C 	0.11440 0.17730 0.91020 0.15600
H 	H 	0.09230 0.19400 0.83000 -0.03100
C 	C 	0.13320 0.12250 0.06640 0.02700
H 	H 	0.12780 0.09450 0.11620 -0.01900
Ni	Ni	0.21596 0.34114 0.72430 1.01900
N 	N 	0.21710 0.25220 0.72310 -0.23300
N 	N 	0.22730 0.21760 0.82210 -0.20300
N 	N 	0.21280 0.16340 0.66670 -0.11500
N 	N 	0.20630 0.11510 0.58950 -0.21300
H 	H 	0.21230 0.12680 0.52540 0.08500
H 	H 	0.24000 0.08920 0.63590 0.10600
N 	N 	0.15420 0.34470 0.81270 -0.21400
N 	N 	0.16660 0.31230 0.91330 -0.21600
N 	N 	0.07800 0.37060 0.87110 -0.12400
N 	N 	0.02170 0.39800 0.87940 -0.20600
H 	H 	0.03330 0.43490 0.90190 0.11800
H 	H 	0.98210 0.39650 0.80380 0.11000
N 	N 	0.31050 0.34460 0.89750 -0.24300
N 	N 	0.32260 0.30960 0.99770 -0.17100
N 	N 	0.41420 0.36500 0.05050 -0.14000
N 	N 	0.48210 0.39370 0.12260 -0.22200
H 	H 	0.47760 0.42210 0.16800 0.10400
H 	H 	0.51470 0.36830 0.17450 0.10600
O 	O 	0.12360 0.34410 0.55060 -0.71600
H 	H 	0.15810 0.32160 0.56420 0.16700
H 	H 	0.08290 0.32960 0.49920 0.30400
C 	C 	0.22310 0.16410 0.78410 0.09600
H 	H 	0.22680 0.13140 0.83190 0.00100
C 	C 	0.20860 0.21830 0.63100 0.08600
H 	H 	0.20070 0.23070 0.55220 -0.04100
C 	C 	0.12070 0.32860 0.94890 0.19900
H 	H 	0.11800 0.31350 0.01750 -0.08300
C 	C 	0.10030 0.37880 0.78620 0.07900
H 	H 	0.08020 0.40480 0.71890 -0.01700
C 	C 	0.38560 0.32270 0.08980 0.02100
H 	H 	0.40770 0.30600 0.17000 0.00500
C 	C 	0.36680 0.37750 0.93360 0.15800
H 	H 	0.37220 0.40550 0.88380 -0.04400
Ni	Ni	0.25000 0.25000 -0.00000 1.02300
Ni	Ni	0.78404 0.65886 0.27570 1.01500
N 	N 	0.78290 0.74780 0.27690 -0.23500
N 	N 	0.77270 0.78240 0.17790 -0.22100
N 	N 	0.78720 0.83660 0.33330 -0.11800
N 	N 	0.79370 0.88490 0.41050 -0.21200
H 	H 	0.78770 0.87320 0.47460 0.08500
H 	H 	0.76000 0.91080 0.36410 0.09800
N 	N 	0.84580 0.65530 0.18730 -0.21900
N 	N 	0.83340 0.68770 0.08670 -0.20100
N 	N 	0.92200 0.62940 0.12890 -0.09700
N 	N 	0.97830 0.60200 0.12060 -0.22300
H 	H 	0.96670 0.56510 0.09810 0.09600
H 	H 	0.01790 0.60350 0.19620 0.10600
N 	N 	0.68950 0.65540 0.10250 -0.23200
N 	N 	0.67740 0.69040 0.00230 -0.25900
N 	N 	0.58580 0.63500 0.94950 -0.08700
N 	N 	0.51790 0.60630 0.87740 -0.20900
H 	H 	0.52240 0.57790 0.83200 0.11600
H 	H 	0.48530 0.63170 0.82550 0.11300
O 	O 	0.87640 0.65590 0.44940 -0.71700
H 	H 	0.84190 0.67840 0.43580 0.16700
H 	H 	0.91710 0.67040 0.50080 0.30500
C 	C 	0.77690 0.83590 0.21590 0.09200
H 	H 	0.77320 0.86860 0.16810 -0.02500
C 	C 	0.79140 0.78170 0.36900 0.08300
H 	H 	0.79930 0.76930 0.44780 -0.04000
C 	C 	0.87930 0.67140 0.05110 -0.02000
H 	H 	0.88200 0.68650 0.98250 0.06900
C 	C 	0.89970 0.62120 0.21380 0.07200
H 	H 	0.91980 0.59520 0.28110 -0.01900
C 	C 	0.61440 0.67730 0.91020 0.15500
H 	H 	0.59230 0.69400 0.83000 -0.03100
C 	C 	0.63320 0.62250 0.06640 0.02800
H 	H 	0.62780 0.59450 0.11620 -0.02000
Ni	Ni	0.71596 0.84114 0.72430 1.01900
N 	N 	0.71710 0.75220 0.72310 -0.23300
N 	N 	0.72730 0.71760 0.82210 -0.20300
N 	N 	0.71280 0.66340 0.66670 -0.11500
N 	N 	0.70630 0.61510 0.58950 -0.21300
H 	H 	0.71230 0.62680 0.52540 0.08500
H 	H 	0.74000 0.58920 0.63590 0.10600
N 	N 	0.65420 0.84470 0.81270 -0.21500
N 	N 	0.66660 0.81230 0.91330 -0.21600
N 	N 	0.57800 0.87060 0.87110 -0.12400
N 	N 	0.52170 0.89800 0.87940 -0.20800
H 	H 	0.53330 0.93490 0.90190 0.11800
H 	H 	0.48210 0.89650 0.80380 0.11200
N 	N 	0.81050 0.84460 0.89750 -0.24300
N 	N 	0.82260 0.80960 0.99770 -0.17200
N 	N 	0.91420 0.86500 0.05050 -0.13900
N 	N 	0.98210 0.89370 0.12260 -0.22200
H 	H 	0.97760 0.92210 0.16800 0.10400
H 	H 	0.01470 0.86830 0.17450 0.10600
O 	O 	0.62360 0.84410 0.55060 -0.71600
H 	H 	0.65810 0.82160 0.56420 0.16700
H 	H 	0.58290 0.82960 0.49920 0.30400
C 	C 	0.72310 0.66410 0.78410 0.09500
H 	H 	0.72680 0.63140 0.83190 0.00100
C 	C 	0.70860 0.71830 0.63100 0.08600
H 	H 	0.70070 0.73070 0.55220 -0.04100
C 	C 	0.62070 0.82860 0.94890 0.19700
H 	H 	0.61800 0.81350 0.01750 -0.08200
C 	C 	0.60030 0.87880 0.78620 0.07900
H 	H 	0.58020 0.90480 0.71890 -0.01700
C 	C 	0.88560 0.82270 0.08980 0.02300
H 	H 	0.90770 0.80600 0.17000 0.00400
C 	C 	0.86680 0.87750 0.93360 0.15600
H 	H 	0.87220 0.90550 0.88380 -0.04400
Ni	Ni	0.75000 0.75000 -0.00000 1.02300
Ni	Ni	0.71596 0.15886 0.72430 1.01900
N 	N 	0.71710 0.24780 0.72310 -0.23300
N 	N 	0.72730 0.28240 0.82210 -0.20300
N 	N 	0.71280 0.33660 0.66670 -0.11500
N 	N 	0.70630 0.38490 0.58950 -0.21300
H 	H 	0.71230 0.37320 0.52540 0.08500
H 	H 	0.74000 0.41080 0.63590 0.10600
N 	N 	0.65420 0.15530 0.81270 -0.21500
N 	N 	0.66660 0.18770 0.91330 -0.21600
N 	N 	0.57800 0.12940 0.87110 -0.12400
N 	N 	0.52170 0.10200 0.87940 -0.20800
H 	H 	0.53330 0.06510 0.90190 0.11800
H 	H 	0.48210 0.10350 0.80380 0.11200
N 	N 	0.81050 0.15540 0.89750 -0.24300
N 	N 	0.82260 0.19040 0.99770 -0.17200
N 	N 	0.91420 0.13500 0.05050 -0.13900
N 	N 	0.98210 0.10630 0.12260 -0.22200
H 	H 	0.97760 0.07790 0.16800 0.10400
H 	H 	0.01470 0.13170 0.17450 0.10600
O 	O 	0.62360 0.15590 0.55060 -0.71600
H 	H 	0.65810 0.17840 0.56420 0.16700
H 	H 	0.58290 0.17040 0.49920 0.30400
C 	C 	0.72310 0.33590 0.78410 0.09500
H 	H 	0.72680 0.36860 0.83190 0.00100
C 	C 	0.70860 0.28170 0.63100 0.08600
H 	H 	0.70070 0.26930 0.55220 -0.04100
C 	C 	0.62070 0.17140 0.94890 0.19700
H 	H 	0.61800 0.18650 0.01750 -0.08200
C 	C 	0.60030 0.12120 0.78620 0.07900
H 	H 	0.58020 0.09520 0.71890 -0.01700
C 	C 	0.88560 0.17730 0.08980 0.02300
H 	H 	0.90770 0.19400 0.17000 0.00400
C 	C 	0.86680 0.12250 0.93360 0.15600
H 	H 	0.87220 0.09450 0.88380 -0.04400
Ni	Ni	0.78404 0.34114 0.27570 1.01500
N 	N 	0.78290 0.25220 0.27690 -0.23500
N 	N 	0.77270 0.21760 0.17790 -0.22100
N 	N 	0.78720 0.16340 0.33330 -0.11800
N 	N 	0.79370 0.11510 0.41050 -0.21200
H 	H 	0.78770 0.12680 0.47460 0.08500
H 	H 	0.76000 0.08920 0.36410 0.09800
N 	N 	0.84580 0.34470 0.18730 -0.21900
N 	N 	0.83340 0.31230 0.08670 -0.20100
N 	N 	0.92200 0.37060 0.12890 -0.09700
N 	N 	0.97830 0.39800 0.12060 -0.22300
H 	H 	0.96670 0.43490 0.09810 0.09600
H 	H 	0.01790 0.39650 0.19620 0.10600
N 	N 	0.68950 0.34460 0.10250 -0.23200
N 	N 	0.67740 0.30960 0.00230 -0.25900
N 	N 	0.58580 0.36500 0.94950 -0.08700
N 	N 	0.51790 0.39370 0.87740 -0.20900
H 	H 	0.52240 0.42210 0.83200 0.11600
H 	H 	0.48530 0.36830 0.82550 0.11300
O 	O 	0.87640 0.34410 0.44940 -0.71700
H 	H 	0.84190 0.32160 0.43580 0.16700
H 	H 	0.91710 0.32960 0.50080 0.30500
C 	C 	0.77690 0.16410 0.21590 0.09200
H 	H 	0.77320 0.13140 0.16810 -0.02500
C 	C 	0.79140 0.21830 0.36900 0.08300
H 	H 	0.79930 0.23070 0.44780 -0.04000
C 	C 	0.87930 0.32860 0.05110 -0.02000
H 	H 	0.88200 0.31350 0.98250 0.06900
C 	C 	0.89970 0.37880 0.21380 0.07200
H 	H 	0.91980 0.40480 0.28110 -0.01900
C 	C 	0.61440 0.32270 0.91020 0.15500
H 	H 	0.59230 0.30600 0.83000 -0.03100
C 	C 	0.63320 0.37750 0.06640 0.02800
H 	H 	0.62780 0.40550 0.11620 -0.02000
Ni	Ni	0.75000 0.25000 -0.00000 1.02300
Ni	Ni	0.21596 0.65886 0.72430 1.01900
N 	N 	0.21710 0.74780 0.72310 -0.23300
N 	N 	0.22730 0.78240 0.82210 -0.20300
N 	N 	0.21280 0.83660 0.66670 -0.11500
N 	N 	0.20630 0.88490 0.58950 -0.21300
H 	H 	0.21230 0.87320 0.52540 0.08500
H 	H 	0.24000 0.91080 0.63590 0.10600
N 	N 	0.15420 0.65530 0.81270 -0.21400
N 	N 	0.16660 0.68770 0.91330 -0.21600
N 	N 	0.07800 0.62940 0.87110 -0.12400
N 	N 	0.02170 0.60200 0.87940 -0.20600
H 	H 	0.03330 0.56510 0.90190 0.11800
H 	H 	0.98210 0.60350 0.80380 0.11000
N 	N 	0.31050 0.65540 0.89750 -0.24300
N 	N 	0.32260 0.69040 0.99770 -0.17100
N 	N 	0.41420 0.63500 0.05050 -0.14000
N 	N 	0.48210 0.60630 0.12260 -0.22200
H 	H 	0.47760 0.57790 0.16800 0.10400
H 	H 	0.51470 0.63170 0.17450 0.10600
O 	O 	0.12360 0.65590 0.55060 -0.71600
H 	H 	0.15810 0.67840 0.56420 0.16700
H 	H 	0.08290 0.67040 0.49920 0.30400
C 	C 	0.22310 0.83590 0.78410 0.09600
H 	H 	0.22680 0.86860 0.83190 0.00100
C 	C 	0.20860 0.78170 0.63100 0.08600
H 	H 	0.20070 0.76930 0.55220 -0.04100
C 	C 	0.12070 0.67140 0.94890 0.19900
H 	H 	0.11800 0.68650 0.01750 -0.08300
C 	C 	0.10030 0.62120 0.78620 0.07900
H 	H 	0.08020 0.59520 0.71890 -0.01700
C 	C 	0.38560 0.67730 0.08980 0.02100
H 	H 	0.40770 0.69400 0.17000 0.00500
C 	C 	0.36680 0.62250 0.93360 0.15800
H 	H 	0.37220 0.59450 0.88380 -0.04400
Ni	Ni	0.28404 0.84114 0.27570 1.01500
N 	N 	0.28290 0.75220 0.27690 -0.23500
N 	N 	0.27270 0.71760 0.17790 -0.22200
N 	N 	0.28720 0.66340 0.33330 -0.11800
N 	N 	0.29370 0.61510 0.41050 -0.21200
H 	H 	0.28770 0.62680 0.47460 0.08500
H 	H 	0.26000 0.58920 0.36410 0.09800
N 	N 	0.34580 0.84470 0.18730 -0.21900
N 	N 	0.33340 0.81230 0.08670 -0.20100
N 	N 	0.42200 0.87060 0.12890 -0.09700
N 	N 	0.47830 0.89800 0.12060 -0.22300
H 	H 	0.46670 0.93490 0.09810 0.09700
H 	H 	0.51790 0.89650 0.19620 0.10500
N 	N 	0.18950 0.84460 0.10250 -0.23200
N 	N 	0.17740 0.80960 0.00230 -0.25900
N 	N 	0.08580 0.86500 0.94950 -0.08700
N 	N 	0.01790 0.89370 0.87740 -0.20700
H 	H 	0.02240 0.92210 0.83200 0.11600
H 	H 	0.98530 0.86830 0.82550 0.11000
O 	O 	0.37640 0.84410 0.44940 -0.71700
H 	H 	0.34190 0.82160 0.43580 0.16800
H 	H 	0.41710 0.82960 0.50080 0.30500
C 	C 	0.27690 0.66410 0.21590 0.09200
H 	H 	0.27320 0.63140 0.16810 -0.02500
C 	C 	0.29140 0.71830 0.36900 0.08300
H 	H 	0.29930 0.73070 0.44780 -0.04000
C 	C 	0.37930 0.82860 0.05110 -0.02200
H 	H 	0.38200 0.81350 0.98250 0.07100
C 	C 	0.39970 0.87880 0.21380 0.07300
H 	H 	0.41980 0.90480 0.28110 -0.01900
C 	C 	0.11440 0.82270 0.91020 0.15600
H 	H 	0.09230 0.80600 0.83000 -0.03100
C 	C 	0.13320 0.87750 0.06640 0.02700
H 	H 	0.12780 0.90550 0.11620 -0.01900
Ni	Ni	0.25000 0.75000 -0.00000 1.02300
