data_crystal

_cell_length_a 13.95850
_cell_length_b 13.95850
_cell_length_c 20.05290
_cell_angle_alpha 90.00000
_cell_angle_beta  90.00000
_cell_angle_gamma 90.00000

_symmetry_space_group_name_	'P 1'
_symmetry_space_group_name_H-M	'P 1'

loop_
_symmetry_equiv_pos_as_xyz
  x,y,z

loop_
_atom_site_label
_atom_site_type_symbol
_atom_site_fract_x
_atom_site_fract_y
_atom_site_fract_z
_atom_site_charge
N 	N 	0.17660 0.89190 0.93190 -0.08300
C 	C 	0.23010 0.87880 0.87910 -0.14400
H 	H 	0.28280 0.91640 0.86830 0.14900
C 	C 	0.27450 0.84460 0.80830 0.32800
H 	H 	0.30230 0.89900 0.82680 -0.12700
O 	O 	0.20210 0.90970 0.92690 -0.31200
N 	N 	0.67660 0.39190 0.43190 -0.12500
C 	C 	0.73010 0.37880 0.37910 -0.16000
H 	H 	0.78280 0.41640 0.36830 0.14200
C 	C 	0.77450 0.34460 0.30830 0.34300
H 	H 	0.80230 0.39900 0.32680 -0.13800
O 	O 	0.70210 0.40970 0.42690 -0.32900
N 	N 	0.82340 0.10810 0.93190 -0.12000
C 	C 	0.76990 0.12120 0.87910 -0.15600
H 	H 	0.71720 0.08360 0.86830 0.13700
C 	C 	0.72550 0.15540 0.80830 0.32800
H 	H 	0.69770 0.10100 0.82680 -0.13500
O 	O 	0.79790 0.09030 0.92690 -0.28400
N 	N 	0.32340 0.60810 0.43190 -0.13100
C 	C 	0.26990 0.62120 0.37910 -0.16100
H 	H 	0.21720 0.58360 0.36830 0.13700
C 	C 	0.22550 0.65540 0.30830 0.34100
H 	H 	0.19770 0.60100 0.32680 -0.14300
O 	O 	0.29790 0.59030 0.42690 -0.32400
N 	N 	0.10810 0.17660 0.93190 -0.10900
C 	C 	0.12120 0.23010 0.87910 -0.16100
H 	H 	0.08360 0.28280 0.86830 0.14000
C 	C 	0.15540 0.27450 0.80830 0.33000
H 	H 	0.10100 0.30230 0.82680 -0.13800
O 	O 	0.09030 0.20210 0.92690 -0.30400
N 	N 	0.60810 0.67660 0.43190 -0.12600
C 	C 	0.62120 0.73010 0.37910 -0.15600
H 	H 	0.58360 0.78280 0.36830 0.14100
C 	C 	0.65540 0.77450 0.30830 0.34200
H 	H 	0.60100 0.80230 0.32680 -0.13700
O 	O 	0.59030 0.70210 0.42690 -0.32600
N 	N 	0.89190 0.82340 0.93190 -0.09200
C 	C 	0.87880 0.76990 0.87910 -0.13700
H 	H 	0.91640 0.71720 0.86830 0.14700
C 	C 	0.84460 0.72550 0.80830 0.32700
H 	H 	0.89900 0.69770 0.82680 -0.12200
O 	O 	0.90970 0.79790 0.92690 -0.29000
N 	N 	0.39190 0.32340 0.43190 -0.13000
C 	C 	0.37880 0.26990 0.37910 -0.16500
H 	H 	0.41640 0.21720 0.36830 0.13800
C 	C 	0.34460 0.22550 0.30830 0.34100
H 	H 	0.39900 0.19770 0.32680 -0.14400
O 	O 	0.40970 0.29790 0.42690 -0.32700
N 	N 	0.82340 0.89190 0.06810 -0.12400
C 	C 	0.76990 0.87880 0.12090 -0.15600
H 	H 	0.71720 0.91640 0.13170 0.14000
C 	C 	0.72550 0.84460 0.19170 0.34300
H 	H 	0.69770 0.89900 0.17320 -0.13500
O 	O 	0.79790 0.90970 0.07310 -0.32200
N 	N 	0.32340 0.39190 0.56810 -0.12900
C 	C 	0.26990 0.37880 0.62090 -0.16500
H 	H 	0.21720 0.41640 0.63170 0.13800
C 	C 	0.22550 0.34460 0.69170 0.33600
H 	H 	0.19770 0.39900 0.67320 -0.13900
O 	O 	0.29790 0.40970 0.57310 -0.32600
N 	N 	0.17660 0.10810 0.06810 -0.14400
C 	C 	0.23010 0.12120 0.12090 -0.18200
H 	H 	0.28280 0.08360 0.13170 0.13300
C 	C 	0.27450 0.15540 0.19170 0.34800
H 	H 	0.30230 0.10100 0.17320 -0.15200
O 	O 	0.20210 0.09030 0.07310 -0.33800
N 	N 	0.67660 0.60810 0.56810 -0.12500
C 	C 	0.73010 0.62120 0.62090 -0.15600
H 	H 	0.78280 0.58360 0.63170 0.14100
C 	C 	0.77450 0.65540 0.69170 0.33700
H 	H 	0.80230 0.60100 0.67320 -0.13300
O 	O 	0.70210 0.59030 0.57310 -0.32500
N 	N 	0.89190 0.17660 0.06810 -0.11400
C 	C 	0.87880 0.23010 0.12090 -0.16300
H 	H 	0.91640 0.28280 0.13170 0.14400
C 	C 	0.84460 0.27450 0.19170 0.34600
H 	H 	0.89900 0.30230 0.17320 -0.13800
O 	O 	0.90970 0.20210 0.07310 -0.34400
N 	N 	0.39190 0.67660 0.56810 -0.12400
C 	C 	0.37880 0.73010 0.62090 -0.16000
H 	H 	0.41640 0.78280 0.63170 0.14200
C 	C 	0.34460 0.77450 0.69170 0.33800
H 	H 	0.39900 0.80230 0.67320 -0.13400
O 	O 	0.40970 0.70210 0.57310 -0.32800
N 	N 	0.10810 0.82340 0.06810 -0.15500
C 	C 	0.12120 0.76990 0.12090 -0.17600
H 	H 	0.08360 0.71720 0.13170 0.13000
C 	C 	0.15540 0.72550 0.19170 0.34500
H 	H 	0.10100 0.69770 0.17320 -0.14900
O 	O 	0.09030 0.79790 0.07310 -0.31600
N 	N 	0.60810 0.32340 0.56810 -0.13100
C 	C 	0.62120 0.26990 0.62090 -0.16200
H 	H 	0.58360 0.21720 0.63170 0.13700
C 	C 	0.65540 0.22550 0.69170 0.33600
H 	H 	0.60100 0.19770 0.67320 -0.13800
O 	O 	0.59030 0.29790 0.57310 -0.32300
N 	N 	0.82340 0.10810 0.06810 -0.15500
C 	C 	0.76990 0.12120 0.12090 -0.17600
H 	H 	0.71720 0.08360 0.13170 0.13000
C 	C 	0.72550 0.15540 0.19170 0.34500
H 	H 	0.69770 0.10100 0.17320 -0.14900
O 	O 	0.79790 0.09030 0.07310 -0.31600
N 	N 	0.32340 0.60810 0.56810 -0.13100
C 	C 	0.26990 0.62120 0.62090 -0.16200
H 	H 	0.21720 0.58360 0.63170 0.13700
C 	C 	0.22550 0.65540 0.69170 0.33600
H 	H 	0.19770 0.60100 0.67320 -0.13800
O 	O 	0.29790 0.59030 0.57310 -0.32300
N 	N 	0.17660 0.89190 0.06810 -0.11400
C 	C 	0.23010 0.87880 0.12090 -0.16300
H 	H 	0.28280 0.91640 0.13170 0.14400
C 	C 	0.27450 0.84460 0.19170 0.34600
H 	H 	0.30230 0.89900 0.17320 -0.13800
O 	O 	0.20210 0.90970 0.07310 -0.34400
N 	N 	0.67660 0.39190 0.56810 -0.12400
C 	C 	0.73010 0.37880 0.62090 -0.16000
H 	H 	0.78280 0.41640 0.63170 0.14200
C 	C 	0.77450 0.34460 0.69170 0.33800
H 	H 	0.80230 0.39900 0.67320 -0.13400
O 	O 	0.70210 0.40970 0.57310 -0.32800
N 	N 	0.89190 0.82340 0.06810 -0.12400
C 	C 	0.87880 0.76990 0.12090 -0.15600
H 	H 	0.91640 0.71720 0.13170 0.14000
C 	C 	0.84460 0.72550 0.19170 0.34300
H 	H 	0.89900 0.69770 0.17320 -0.13500
O 	O 	0.90970 0.79790 0.07310 -0.32200
N 	N 	0.39190 0.32340 0.56810 -0.12900
C 	C 	0.37880 0.26990 0.62090 -0.16500
H 	H 	0.41640 0.21720 0.63170 0.13800
C 	C 	0.34460 0.22550 0.69170 0.33600
H 	H 	0.39900 0.19770 0.67320 -0.13900
O 	O 	0.40970 0.29790 0.57310 -0.32600
N 	N 	0.10810 0.17660 0.06810 -0.14400
C 	C 	0.12120 0.23010 0.12090 -0.18200
H 	H 	0.08360 0.28280 0.13170 0.13300
C 	C 	0.15540 0.27450 0.19170 0.34800
H 	H 	0.10100 0.30230 0.17320 -0.15200
O 	O 	0.09030 0.20210 0.07310 -0.33800
N 	N 	0.60810 0.67660 0.56810 -0.12500
C 	C 	0.62120 0.73010 0.62090 -0.15600
H 	H 	0.58360 0.78280 0.63170 0.14100
C 	C 	0.65540 0.77450 0.69170 0.33700
H 	H 	0.60100 0.80230 0.67320 -0.13300
O 	O 	0.59030 0.70210 0.57310 -0.32500
N 	N 	0.17660 0.10810 0.93190 -0.10900
C 	C 	0.23010 0.12120 0.87910 -0.16100
H 	H 	0.28280 0.08360 0.86830 0.14000
C 	C 	0.27450 0.15540 0.80830 0.33000
H 	H 	0.30230 0.10100 0.82680 -0.13800
O 	O 	0.20210 0.09030 0.92690 -0.30400
N 	N 	0.67660 0.60810 0.43190 -0.12600
C 	C 	0.73010 0.62120 0.37910 -0.15600
H 	H 	0.78280 0.58360 0.36830 0.14100
C 	C 	0.77450 0.65540 0.30830 0.34200
H 	H 	0.80230 0.60100 0.32680 -0.13700
O 	O 	0.70210 0.59030 0.42690 -0.32600
N 	N 	0.82340 0.89190 0.93190 -0.09200
C 	C 	0.76990 0.87880 0.87910 -0.13700
H 	H 	0.71720 0.91640 0.86830 0.14700
C 	C 	0.72550 0.84460 0.80830 0.32700
H 	H 	0.69770 0.89900 0.82680 -0.12200
O 	O 	0.79790 0.90970 0.92690 -0.29000
N 	N 	0.32340 0.39190 0.43190 -0.13000
C 	C 	0.26990 0.37880 0.37910 -0.16500
H 	H 	0.21720 0.41640 0.36830 0.13800
C 	C 	0.22550 0.34460 0.30830 0.34100
H 	H 	0.19770 0.39900 0.32680 -0.14400
O 	O 	0.29790 0.40970 0.42690 -0.32700
N 	N 	0.10810 0.82340 0.93190 -0.12000
C 	C 	0.12120 0.76990 0.87910 -0.15600
H 	H 	0.08360 0.71720 0.86830 0.13700
C 	C 	0.15540 0.72550 0.80830 0.32800
H 	H 	0.10100 0.69770 0.82680 -0.13500
O 	O 	0.09030 0.79790 0.92690 -0.28400
N 	N 	0.60810 0.32340 0.43190 -0.13100
C 	C 	0.62120 0.26990 0.37910 -0.16100
H 	H 	0.58360 0.21720 0.36830 0.13700
C 	C 	0.65540 0.22550 0.30830 0.34100
H 	H 	0.60100 0.19770 0.32680 -0.14300
O 	O 	0.59030 0.29790 0.42690 -0.32400
N 	N 	0.89190 0.17660 0.93190 -0.08200
C 	C 	0.87880 0.23010 0.87910 -0.14300
H 	H 	0.91640 0.28280 0.86830 0.15000
C 	C 	0.84460 0.27450 0.80830 0.32900
H 	H 	0.89900 0.30230 0.82680 -0.12600
O 	O 	0.90970 0.20210 0.92690 -0.31100
N 	N 	0.39190 0.67660 0.43190 -0.12400
C 	C 	0.37880 0.73010 0.37910 -0.15900
H 	H 	0.41640 0.78280 0.36830 0.14200
C 	C 	0.34460 0.77450 0.30830 0.34300
H 	H 	0.39900 0.80230 0.32680 -0.13800
O 	O 	0.40970 0.70210 0.42690 -0.32900
Cu	Cu	0.18418 0.00000 -0.00000 0.88700
Cu	Cu	0.68418 0.50000 0.50000 0.94600
Cu	Cu	0.81582 0.00000 -0.00000 0.89100
Cu	Cu	0.31582 0.50000 0.50000 0.94200
Cu	Cu	-0.00000 0.18418 -0.00000 0.88700
Cu	Cu	0.50000 0.68418 0.50000 0.94600
Cu	Cu	-0.00000 0.81582 -0.00000 0.89100
Cu	Cu	0.50000 0.31582 0.50000 0.94200
Cl	Cl	-0.00000 0.00000 -0.00000 -0.77900
Cl	Cl	0.50000 0.50000 0.50000 -0.65200
C 	C 	0.19830 0.80170 0.84140 -0.40400
C 	C 	0.23430 0.76570 0.78200 0.21900
C 	C 	0.16120 0.83880 0.90370 0.71600
C 	C 	0.69830 0.30170 0.34140 -0.43300
C 	C 	0.73430 0.26570 0.28200 0.22200
C 	C 	0.66120 0.33880 0.40370 0.75600
C 	C 	0.80170 0.19830 0.84140 -0.40400
C 	C 	0.76570 0.23430 0.78200 0.21900
C 	C 	0.83880 0.16120 0.90370 0.71600
C 	C 	0.30170 0.69830 0.34140 -0.43300
C 	C 	0.26570 0.73430 0.28200 0.22200
C 	C 	0.33880 0.66120 0.40370 0.75600
C 	C 	0.19830 0.19830 0.84140 -0.40900
C 	C 	0.23430 0.23430 0.78200 0.21500
C 	C 	0.16120 0.16120 0.90370 0.73200
C 	C 	0.69830 0.69830 0.34140 -0.43000
C 	C 	0.73430 0.73430 0.28200 0.22500
C 	C 	0.66120 0.66120 0.40370 0.75200
C 	C 	0.80170 0.80170 0.84140 -0.39800
C 	C 	0.76570 0.76570 0.78200 0.22300
C 	C 	0.83880 0.83880 0.90370 0.69800
C 	C 	0.30170 0.30170 0.34140 -0.43500
C 	C 	0.26570 0.26570 0.28200 0.22000
C 	C 	0.33880 0.33880 0.40370 0.75900
C 	C 	0.80170 0.80170 0.15860 -0.42800
C 	C 	0.76570 0.76570 0.21800 0.22000
C 	C 	0.83880 0.83880 0.09630 0.74500
C 	C 	0.30170 0.30170 0.65860 -0.42400
C 	C 	0.26570 0.26570 0.71800 0.21100
C 	C 	0.33880 0.33880 0.59630 0.75600
C 	C 	0.19830 0.19830 0.15860 -0.44100
C 	C 	0.23430 0.23430 0.21800 0.21100
C 	C 	0.16120 0.16120 0.09630 0.78300
C 	C 	0.69830 0.69830 0.65860 -0.41900
C 	C 	0.73430 0.73430 0.71800 0.21600
C 	C 	0.66120 0.66120 0.59630 0.74900
C 	C 	0.80170 0.19830 0.15860 -0.43500
C 	C 	0.76570 0.23430 0.21800 0.21500
C 	C 	0.83880 0.16120 0.09630 0.76400
C 	C 	0.30170 0.69830 0.65860 -0.42100
C 	C 	0.26570 0.73430 0.71800 0.21400
C 	C 	0.33880 0.66120 0.59630 0.75300
C 	C 	0.19830 0.80170 0.15860 -0.43500
C 	C 	0.23430 0.76570 0.21800 0.21500
C 	C 	0.16120 0.83880 0.09630 0.76400
C 	C 	0.69830 0.30170 0.65860 -0.42100
C 	C 	0.73430 0.26570 0.71800 0.21400
C 	C 	0.66120 0.33880 0.59630 0.75300
C 	C 	0.31020 0.81020 0.75000 -0.58900
H 	H 	0.35735 0.85735 0.75000 0.21800
C 	C 	0.68980 0.18980 0.75000 -0.58900
H 	H 	0.64265 0.14265 0.75000 0.20700
C 	C 	0.18980 0.31020 0.75000 -0.59100
H 	H 	0.14265 0.35735 0.75000 0.20600
C 	C 	0.81020 0.68980 0.75000 -0.58500
H 	H 	0.85735 0.64265 0.75000 0.21900
C 	C 	0.31020 0.18980 0.25000 -0.61200
H 	H 	0.35735 0.14265 0.25000 0.20600
C 	C 	0.68980 0.81020 0.25000 -0.60500
H 	H 	0.64265 0.85735 0.25000 0.21900
C 	C 	0.81020 0.31020 0.25000 -0.60900
H 	H 	0.85735 0.35735 0.25000 0.21900
C 	C 	0.18980 0.68980 0.25000 -0.60900
H 	H 	0.14265 0.64265 0.25000 0.20600
C 	C 	0.68980 0.18980 0.25000 -0.60900
H 	H 	0.64265 0.14265 0.25000 0.20600
C 	C 	0.31020 0.81020 0.25000 -0.60900
H 	H 	0.35735 0.85735 0.25000 0.21900
C 	C 	0.81020 0.68980 0.25000 -0.60500
H 	H 	0.85735 0.64265 0.25000 0.21900
C 	C 	0.18980 0.31020 0.25000 -0.61200
H 	H 	0.14265 0.35735 0.25000 0.20600
C 	C 	0.31020 0.18980 0.75000 -0.59100
H 	H 	0.35735 0.14265 0.75000 0.20600
C 	C 	0.68980 0.81020 0.75000 -0.58500
H 	H 	0.64265 0.85735 0.75000 0.21900
C 	C 	0.18980 0.68980 0.75000 -0.58900
H 	H 	0.14265 0.64265 0.75000 0.20700
C 	C 	0.81020 0.31020 0.75000 -0.58900
H 	H 	0.85735 0.35735 0.75000 0.21800
