data_crystal

_cell_length_a 11.44000
_cell_length_b 14.71000
_cell_length_c 14.99000
_cell_angle_alpha 76.03000
_cell_angle_beta  78.88000
_cell_angle_gamma 86.64000

_symmetry_space_group_name_	'P 1'
_symmetry_space_group_name_H-M	'P 1'

loop_
_symmetry_equiv_pos_as_xyz
  x,y,z

loop_
_atom_site_label
_atom_site_type_symbol
_atom_site_fract_x
_atom_site_fract_y
_atom_site_fract_z
_atom_site_charge
Ru	Ru	0.35399 0.66977 0.74402 0.94800
N 	N 	0.23150 0.63710 0.86750 -0.21700
N 	N 	0.43570 0.55550 0.81870 -0.20700
N 	N 	0.28240 0.58360 0.67830 -0.21000
N 	N 	0.47480 0.68950 0.61870 -0.20500
N 	N 	0.26370 0.78880 0.68640 -0.20600
N 	N 	0.42880 0.76840 0.79290 -0.20900
N 	N 	0.06630 0.19810 0.64950 -0.14100
C 	C 	0.12830 0.68370 0.88680 0.06500
H 	H 	0.10750 0.73540 0.84050 -0.00100
C 	C 	0.05210 0.65850 0.97150 -0.11700
H 	H 	0.97880 0.69130 0.98240 0.06500
C 	C 	0.08220 0.58580 0.04050 0.03400
H 	H 	0.03200 0.56960 0.10030 0.01600
C 	C 	0.18830 0.53630 0.02080 -0.11200
H 	H 	0.21010 0.48410 0.06610 0.06500
C 	C 	0.26100 0.56430 0.93430 0.05900
C 	C 	0.37430 0.51600 0.90570 0.03400
C 	C 	0.41680 0.43680 0.96160 -0.07200
H 	H 	0.37400 0.41080 0.02260 0.05000
C 	C 	0.52230 0.39620 0.92750 -0.02600
H 	H 	0.55240 0.34150 0.96480 0.04100
C 	C 	0.58480 0.43530 0.83810 -0.02100
C 	C 	0.53890 0.51570 0.78710 0.01900
H 	H 	0.58220 0.54410 0.72700 0.01200
C 	C 	0.69120 0.39070 0.79840 0.01100
C 	C 	0.77620 0.35190 0.76470 -0.06400
C 	C 	0.87560 0.30070 0.72540 0.10700
C 	C 	0.93310 0.23260 0.78320 -0.15400
H 	H 	0.90990 0.22060 0.84930 0.08300
C 	C 	0.02600 0.18210 0.74210 0.07700
H 	H 	0.06310 0.13350 0.78190 0.00700
C 	C 	0.01210 0.26560 0.59500 0.08200
H 	H 	0.03960 0.27820 0.52930 0.00300
C 	C 	0.91760 0.31860 0.62930 -0.15700
H 	H 	0.88180 0.36640 0.58780 0.08400
C 	C 	0.19000 0.52660 0.71120 0.05000
H 	H 	0.15020 0.52130 0.77400 0.00400
C 	C 	0.14880 0.47420 0.65790 -0.08300
H 	H 	0.08350 0.43340 0.68490 0.05900
C 	C 	0.20250 0.48150 0.56640 -0.03600
H 	H 	0.17360 0.44740 0.52900 0.04100
C 	C 	0.30270 0.54130 0.52870 0.00500
C 	C 	0.33920 0.58990 0.58830 0.02500
C 	C 	0.44230 0.64670 0.55640 0.02400
C 	C 	0.50720 0.65630 0.46500 0.01200
C 	C 	0.46550 0.60880 0.40430 -0.05400
H 	H 	0.50690 0.61580 0.34170 0.05100
C 	C 	0.36690 0.55340 0.43540 -0.05000
H 	H 	0.34090 0.52250 0.39400 0.04700
C 	C 	0.61180 0.70920 0.43950 -0.03900
H 	H 	0.65890 0.71680 0.37860 0.04500
C 	C 	0.64420 0.74920 0.50300 -0.07100
H 	H 	0.71520 0.78470 0.48630 0.05600
C 	C 	0.57570 0.73970 0.59310 0.04000
H 	H 	0.60050 0.76890 0.63620 0.00800
C 	C 	0.18010 0.79750 0.63410 0.04400
H 	H 	0.15830 0.74390 0.61650 0.00800
C 	C 	0.12260 0.88420 0.60410 -0.07100
H 	H 	0.06240 0.88790 0.56760 0.05300
C 	C 	0.15350 0.96270 0.62750 -0.04300
H 	H 	0.11560 0.02120 0.60700 0.04800
C 	C 	0.24100 0.95580 0.68170 0.01500
C 	C 	0.29330 0.86700 0.71040 0.02100
C 	C 	0.38220 0.85590 0.76730 0.02600
C 	C 	0.41870 0.93360 0.79420 0.00600
C 	C 	0.36440 0.02220 0.76520 -0.04900
H 	H 	0.38750 0.07470 0.78390 0.04600
C 	C 	0.28000 0.03310 0.71100 -0.06000
H 	H 	0.24570 0.09350 0.69200 0.05400
C 	C 	0.50920 0.91710 0.85000 -0.03600
H 	H 	0.53700 0.96690 0.87020 0.04100
C 	C 	0.55540 0.82860 0.87400 -0.07900
H 	H 	0.61490 0.81670 0.91180 0.05200
C 	C 	0.51550 0.75610 0.84320 0.04600
H 	H 	0.55110 0.69570 0.85840 0.00200
Ru	Ru	0.64601 0.33023 0.25598 0.94700
N 	N 	0.76850 0.36290 0.13250 -0.21800
N 	N 	0.56430 0.44450 0.18130 -0.20700
N 	N 	0.71760 0.41640 0.32170 -0.21000
N 	N 	0.52520 0.31050 0.38130 -0.20500
N 	N 	0.73630 0.21120 0.31360 -0.20600
N 	N 	0.57120 0.23160 0.20710 -0.20900
N 	N 	0.93370 0.80190 0.35050 -0.14100
C 	C 	0.87170 0.31630 0.11320 0.06500
H 	H 	0.89250 0.26460 0.15950 -0.00100
C 	C 	0.94790 0.34150 0.02850 -0.11700
H 	H 	0.02120 0.30870 0.01760 0.06500
C 	C 	0.91780 0.41420 0.95950 0.03400
H 	H 	0.96800 0.43040 0.89970 0.01600
C 	C 	0.81170 0.46370 0.97920 -0.11200
H 	H 	0.78990 0.51590 0.93390 0.06500
C 	C 	0.73900 0.43570 0.06570 0.05900
C 	C 	0.62570 0.48400 0.09430 0.03400
C 	C 	0.58320 0.56320 0.03840 -0.07200
H 	H 	0.62600 0.58920 0.97740 0.05000
C 	C 	0.47770 0.60380 0.07250 -0.02600
H 	H 	0.44760 0.65850 0.03520 0.04100
C 	C 	0.41520 0.56470 0.16190 -0.02100
C 	C 	0.46110 0.48430 0.21290 0.01900
H 	H 	0.41780 0.45590 0.27300 0.01200
C 	C 	0.30880 0.60930 0.20160 0.01100
C 	C 	0.22380 0.64810 0.23530 -0.06400
C 	C 	0.12440 0.69930 0.27460 0.10700
C 	C 	0.06690 0.76740 0.21680 -0.15400
H 	H 	0.09010 0.77940 0.15070 0.08300
C 	C 	0.97400 0.81790 0.25790 0.07700
H 	H 	0.93690 0.86650 0.21810 0.00700
C 	C 	0.98790 0.73440 0.40500 0.08200
H 	H 	0.96040 0.72180 0.47070 0.00300
C 	C 	0.08240 0.68140 0.37070 -0.15700
H 	H 	0.11820 0.63360 0.41220 0.08400
C 	C 	0.81000 0.47340 0.28880 0.05000
H 	H 	0.84980 0.47870 0.22600 0.00400
C 	C 	0.85120 0.52580 0.34210 -0.08300
H 	H 	0.91650 0.56660 0.31510 0.05900
C 	C 	0.79750 0.51850 0.43360 -0.03600
H 	H 	0.82640 0.55260 0.47100 0.04100
C 	C 	0.69730 0.45870 0.47130 0.00500
C 	C 	0.66080 0.41010 0.41170 0.02500
C 	C 	0.55770 0.35330 0.44360 0.02400
C 	C 	0.49280 0.34370 0.53500 0.01200
C 	C 	0.53450 0.39120 0.59570 -0.05400
H 	H 	0.49310 0.38420 0.65830 0.05100
C 	C 	0.63310 0.44660 0.56460 -0.05000
H 	H 	0.65910 0.47750 0.60600 0.04700
C 	C 	0.38820 0.29080 0.56050 -0.03900
H 	H 	0.34110 0.28320 0.62140 0.04500
C 	C 	0.35580 0.25080 0.49700 -0.07100
H 	H 	0.28480 0.21530 0.51370 0.05600
C 	C 	0.42430 0.26030 0.40690 0.04000
H 	H 	0.39950 0.23110 0.36380 0.00800
C 	C 	0.81990 0.20250 0.36590 0.04400
H 	H 	0.84170 0.25610 0.38350 0.00800
C 	C 	0.87740 0.11580 0.39590 -0.07100
H 	H 	0.93760 0.11210 0.43240 0.05300
C 	C 	0.84650 0.03730 0.37250 -0.04300
H 	H 	0.88440 0.97880 0.39300 0.04800
C 	C 	0.75900 0.04420 0.31830 0.01500
C 	C 	0.70670 0.13300 0.28960 0.02100
C 	C 	0.61780 0.14410 0.23270 0.02600
C 	C 	0.58130 0.06640 0.20580 0.00600
C 	C 	0.63560 0.97780 0.23480 -0.04900
H 	H 	0.61250 0.92530 0.21610 0.04600
C 	C 	0.72000 0.96690 0.28900 -0.06000
H 	H 	0.75430 0.90650 0.30800 0.05400
C 	C 	0.49080 0.08290 0.15000 -0.03600
H 	H 	0.46300 0.03310 0.12980 0.04100
C 	C 	0.44460 0.17140 0.12600 -0.07900
H 	H 	0.38510 0.18330 0.08820 0.05200
C 	C 	0.48450 0.24390 0.15680 0.04600
H 	H 	0.44890 0.30430 0.14160 0.00200
