data_crystal

_cell_length_a 16.29000
_cell_length_b 11.09000
_cell_length_c 16.96000
_cell_angle_alpha 90.00000
_cell_angle_beta  109.86000
_cell_angle_gamma 90.00000

_symmetry_space_group_name_	'P 1'
_symmetry_space_group_name_H-M	'P 1'

loop_
_symmetry_equiv_pos_as_xyz
  x,y,z

loop_
_atom_site_label
_atom_site_type_symbol
_atom_site_fract_x
_atom_site_fract_y
_atom_site_fract_z
_atom_site_charge
Cu	Cu	0.53820 0.19890 0.69160 0.71200
Cu	Cu	0.57730 0.02440 0.81280 0.71100
I 	I 	0.64060 0.25740 0.84906 -0.63100
I 	I 	0.57390 0.96550 0.65569 -0.60800
Si	Si	0.87490 0.67600 0.64500 1.90500
Si	Si	0.93600 0.56600 0.83310 1.29400
O 	O 	0.88700 0.65300 0.74200 -0.89500
O 	O 	0.95300 0.61900 0.62200 -0.91800
C 	C 	0.84600 0.84500 0.62000 -1.45900
H 	H 	0.79710 0.86720 0.63780 0.42700
H 	H 	0.89710 0.89490 0.65010 0.38500
H 	H 	0.83070 0.85860 0.55950 0.40500
C 	C 	0.91800 0.39000 0.82500 -1.06800
H 	H 	0.94800 0.35250 0.87910 0.28700
H 	H 	0.85500 0.37210 0.80780 0.28700
H 	H 	0.94070 0.35720 0.78260 0.26100
C 	C 	0.78100 0.57900 0.58000 -0.94300
H 	H 	0.77190 0.59450 0.52000 0.26800
H 	H 	0.79900 0.49310 0.59100 0.25600
C 	C 	0.69400 0.59600 0.59500 0.27300
H 	H 	0.66160 0.66470 0.56140 -0.06100
H 	H 	0.70440 0.61200 0.65490 -0.07800
C 	C 	0.64200 0.47200 0.56600 -0.09300
C 	C 	0.62460 0.40400 0.62710 0.02800
H 	H 	0.65190 0.42380 0.68460 -0.01100
N 	N 	0.56730 0.30700 0.60430 -0.22100
C 	C 	0.52730 0.27800 0.52010 0.02600
H 	H 	0.48820 0.21180 0.50460 0.00700
C 	C 	0.54470 0.34600 0.45870 -0.08100
H 	H 	0.51740 0.32620 0.40120 0.05300
C 	C 	0.60200 0.44300 0.48150 0.00900
H 	H 	0.61390 0.48950 0.43950 0.02500
C 	C 	0.85800 0.62000 0.89800 -0.57500
H 	H 	0.79570 0.61200 0.86330 0.17600
H 	H 	0.86940 0.57150 0.94950 0.15100
C 	C 	0.88100 0.75500 0.92100 0.09700
H 	H 	0.88800 0.80040 0.87320 -0.03400
H 	H 	0.93460 0.76350 0.97050 -0.04300
C 	C 	0.79700 0.79600 0.94000 -0.04400
C 	C 	0.73200 0.85800 0.87900 -0.00800
H 	H 	0.72770 0.85400 0.82220 0.00400
N 	N 	0.67100 0.92500 0.90220 -0.21800
C 	C 	0.67700 0.93100 0.98600 0.02100
H 	H 	0.63580 0.97710 0.00140 0.00100
C 	C 	0.74300 0.86900 0.04650 -0.09100
H 	H 	0.74660 0.87280 0.10360 0.03400
C 	C 	0.80300 0.80100 0.02400 -0.02900
H 	H 	0.84800 0.75900 0.06520 0.00000
Cu	Cu	0.46180 0.19890 0.80840 0.71000
Cu	Cu	0.42270 0.02440 0.68720 0.71100
I 	I 	0.35940 0.25740 0.65094 -0.63000
I 	I 	0.42610 0.96550 0.84431 -0.60500
Si	Si	0.12510 0.67600 0.85500 1.90700
Si	Si	0.06400 0.56600 0.66690 1.29700
O 	O 	0.11300 0.65300 0.75800 -0.89600
O 	O 	0.04700 0.61900 0.87800 -0.91700
C 	C 	0.15400 0.84500 0.88000 -1.46200
H 	H 	0.20290 0.86720 0.86220 0.42900
H 	H 	0.10290 0.89490 0.84990 0.38700
H 	H 	0.16930 0.85860 0.94050 0.40800
C 	C 	0.08200 0.39000 0.67500 -1.07000
H 	H 	0.05200 0.35250 0.62090 0.28800
H 	H 	0.14500 0.37210 0.69220 0.28700
H 	H 	0.05930 0.35720 0.71740 0.26100
C 	C 	0.21900 0.57900 0.92000 -0.94300
H 	H 	0.22810 0.59450 0.98000 0.26800
H 	H 	0.20100 0.49310 0.90900 0.25600
C 	C 	0.30600 0.59600 0.90500 0.27300
H 	H 	0.33840 0.66470 0.93860 -0.06100
H 	H 	0.29560 0.61200 0.84510 -0.07800
C 	C 	0.35800 0.47200 0.93400 -0.09200
C 	C 	0.37540 0.40400 0.87290 0.02800
H 	H 	0.34810 0.42380 0.81540 -0.01000
N 	N 	0.43270 0.30700 0.89570 -0.22000
C 	C 	0.47270 0.27800 0.97990 0.02200
H 	H 	0.51180 0.21180 0.99540 0.00600
C 	C 	0.45530 0.34600 0.04130 -0.07600
H 	H 	0.48260 0.32620 0.09880 0.05200
C 	C 	0.39800 0.44300 0.01850 0.00600
H 	H 	0.38610 0.48950 0.06050 0.02600
C 	C 	0.14200 0.62000 0.60200 -0.57500
H 	H 	0.20430 0.61200 0.63670 0.17700
H 	H 	0.13060 0.57150 0.55050 0.15100
C 	C 	0.11900 0.75500 0.57900 0.09700
H 	H 	0.11200 0.80040 0.62680 -0.03400
H 	H 	0.06540 0.76350 0.52950 -0.04300
C 	C 	0.20300 0.79600 0.56000 -0.04400
C 	C 	0.26800 0.85800 0.62100 -0.00900
H 	H 	0.27230 0.85400 0.67780 0.00400
N 	N 	0.32900 0.92500 0.59780 -0.21600
C 	C 	0.32300 0.93100 0.51400 0.00400
H 	H 	0.36420 0.97710 0.49860 0.01100
C 	C 	0.25700 0.86900 0.45350 -0.07800
H 	H 	0.25340 0.87280 0.39640 0.03000
C 	C 	0.19700 0.80100 0.47600 -0.03100
H 	H 	0.15200 0.75900 0.43480 0.00200
Cu	Cu	0.46180 0.80110 0.30840 0.71100
Cu	Cu	0.42270 0.97560 0.18720 0.71000
I 	I 	0.35940 0.74260 0.15094 -0.63200
I 	I 	0.42610 0.03450 0.34431 -0.60900
Si	Si	0.12510 0.32400 0.35500 1.90500
Si	Si	0.06400 0.43400 0.16690 1.29400
O 	O 	0.11300 0.34700 0.25800 -0.89500
O 	O 	0.04700 0.38100 0.37800 -0.91800
C 	C 	0.15400 0.15500 0.38000 -1.45900
H 	H 	0.20290 0.13280 0.36220 0.42700
H 	H 	0.10290 0.10510 0.34990 0.38500
H 	H 	0.16930 0.14140 0.44050 0.40500
C 	C 	0.08200 0.61000 0.17500 -1.06800
H 	H 	0.05200 0.64750 0.12090 0.28700
H 	H 	0.14500 0.62790 0.19220 0.28700
H 	H 	0.05930 0.64280 0.21740 0.26100
C 	C 	0.21900 0.42100 0.42000 -0.94300
H 	H 	0.22810 0.40550 0.48000 0.26800
H 	H 	0.20100 0.50690 0.40900 0.25600
C 	C 	0.30600 0.40400 0.40500 0.27300
H 	H 	0.33840 0.33530 0.43860 -0.06100
H 	H 	0.29560 0.38800 0.34510 -0.07800
C 	C 	0.35800 0.52800 0.43400 -0.09300
C 	C 	0.37540 0.59600 0.37290 0.02800
H 	H 	0.34810 0.57620 0.31540 -0.01100
N 	N 	0.43270 0.69300 0.39570 -0.22100
C 	C 	0.47270 0.72200 0.47990 0.02600
H 	H 	0.51180 0.78820 0.49540 0.00700
C 	C 	0.45530 0.65400 0.54130 -0.08100
H 	H 	0.48260 0.67380 0.59880 0.05300
C 	C 	0.39800 0.55700 0.51850 0.00900
H 	H 	0.38610 0.51050 0.56050 0.02500
C 	C 	0.14200 0.38000 0.10200 -0.57500
H 	H 	0.20430 0.38800 0.13670 0.17600
H 	H 	0.13060 0.42850 0.05050 0.15100
C 	C 	0.11900 0.24500 0.07900 0.09700
H 	H 	0.11200 0.19960 0.12680 -0.03400
H 	H 	0.06540 0.23650 0.02950 -0.04300
C 	C 	0.20300 0.20400 0.06000 -0.04400
C 	C 	0.26800 0.14200 0.12100 -0.00800
H 	H 	0.27230 0.14600 0.17780 0.00400
N 	N 	0.32900 0.07500 0.09780 -0.21800
C 	C 	0.32300 0.06900 0.01400 0.02100
H 	H 	0.36420 0.02290 0.99860 0.00100
C 	C 	0.25700 0.13100 0.95350 -0.09100
H 	H 	0.25340 0.12720 0.89640 0.03400
C 	C 	0.19700 0.19900 0.97600 -0.02900
H 	H 	0.15200 0.24100 0.93480 0.00000
Cu	Cu	0.53820 0.80110 0.19160 0.71000
Cu	Cu	0.57730 0.97560 0.31280 0.71100
I 	I 	0.64060 0.74260 0.34906 -0.63000
I 	I 	0.57390 0.03450 0.15569 -0.60500
Si	Si	0.87490 0.32400 0.14500 1.90700
Si	Si	0.93600 0.43400 0.33310 1.29700
O 	O 	0.88700 0.34700 0.24200 -0.89600
O 	O 	0.95300 0.38100 0.12200 -0.91700
C 	C 	0.84600 0.15500 0.12000 -1.46200
H 	H 	0.79710 0.13280 0.13780 0.42900
H 	H 	0.89710 0.10510 0.15010 0.38700
H 	H 	0.83070 0.14140 0.05950 0.40800
C 	C 	0.91800 0.61000 0.32500 -1.07000
H 	H 	0.94800 0.64750 0.37910 0.28800
H 	H 	0.85500 0.62790 0.30780 0.28700
H 	H 	0.94070 0.64280 0.28260 0.26100
C 	C 	0.78100 0.42100 0.08000 -0.94300
H 	H 	0.77190 0.40550 0.02000 0.26800
H 	H 	0.79900 0.50690 0.09100 0.25600
C 	C 	0.69400 0.40400 0.09500 0.27300
H 	H 	0.66160 0.33530 0.06140 -0.06100
H 	H 	0.70440 0.38800 0.15490 -0.07800
C 	C 	0.64200 0.52800 0.06600 -0.09200
C 	C 	0.62460 0.59600 0.12710 0.02800
H 	H 	0.65190 0.57620 0.18460 -0.01000
N 	N 	0.56730 0.69300 0.10430 -0.22000
C 	C 	0.52730 0.72200 0.02010 0.02200
H 	H 	0.48820 0.78820 0.00460 0.00600
C 	C 	0.54470 0.65400 0.95870 -0.07600
H 	H 	0.51740 0.67380 0.90120 0.05200
C 	C 	0.60200 0.55700 0.98150 0.00600
H 	H 	0.61390 0.51050 0.93950 0.02600
C 	C 	0.85800 0.38000 0.39800 -0.57500
H 	H 	0.79570 0.38800 0.36330 0.17700
H 	H 	0.86940 0.42850 0.44950 0.15100
C 	C 	0.88100 0.24500 0.42100 0.09700
H 	H 	0.88800 0.19960 0.37320 -0.03400
H 	H 	0.93460 0.23650 0.47050 -0.04300
C 	C 	0.79700 0.20400 0.44000 -0.04400
C 	C 	0.73200 0.14200 0.37900 -0.00900
H 	H 	0.72770 0.14600 0.32220 0.00400
N 	N 	0.67100 0.07500 0.40220 -0.21600
C 	C 	0.67700 0.06900 0.48600 0.00400
H 	H 	0.63580 0.02290 0.50140 0.01100
C 	C 	0.74300 0.13100 0.54650 -0.07800
H 	H 	0.74660 0.12720 0.60360 0.03000
C 	C 	0.80300 0.19900 0.52400 -0.03100
H 	H 	0.84800 0.24100 0.56520 0.00200
