data_crystal

_cell_length_a 10.49850
_cell_length_b 14.52620
_cell_length_c 20.63600
_cell_angle_alpha 90.00000
_cell_angle_beta  97.61100
_cell_angle_gamma 90.00000

_symmetry_space_group_name_	'P 1'
_symmetry_space_group_name_H-M	'P 1'

loop_
_symmetry_equiv_pos_as_xyz
  x,y,z

loop_
_atom_site_label
_atom_site_type_symbol
_atom_site_fract_x
_atom_site_fract_y
_atom_site_fract_z
_atom_site_charge
Cd	Cd	0.80925 0.66036 0.55047 1.21700
C 	C 	0.61873 0.22189 0.26937 0.02800
C 	C 	0.63598 0.28702 0.31807 -0.10100
H 	H 	0.57090 0.29780 0.34510 0.06900
C 	C 	0.75075 0.33725 0.32732 -0.01100
C 	C 	0.84438 0.31935 0.28626 -0.04000
H 	H 	0.92250 0.35320 0.29230 0.04500
C 	C 	0.82631 0.25394 0.23732 -0.06100
H 	H 	0.89110 0.24280 0.21020 0.05900
C 	C 	0.71182 0.20459 0.22827 -0.00700
C 	C 	0.66383 0.13260 0.18163 -0.00800
C 	C 	0.71776 0.08940 0.13172 -0.05400
H 	H 	0.80010 0.10710 0.12170 0.05400
C 	C 	0.64901 0.01985 0.09676 -0.05000
H 	H 	0.68570 0.99000 0.06270 0.04800
C 	C 	0.52732 0.99215 0.11004 0.00600
C 	C 	0.47325 0.03733 0.15991 -0.08800
H 	H 	0.39050 0.02030 0.16960 0.05900
C 	C 	0.54087 0.10645 0.19466 0.03100
N 	N 	0.80295 0.54586 0.47552 -0.25200
C 	C 	0.71110 0.48350 0.47297 0.09200
H 	H 	0.65500 0.48570 0.50550 -0.02000
C 	C 	0.69140 0.41570 0.42653 -0.16300
H 	H 	0.62280 0.37330 0.42740 0.09300
C 	C 	0.77064 0.40882 0.37857 0.08600
C 	C 	0.86960 0.47183 0.38289 -0.16500
H 	H 	0.92950 0.46960 0.35220 0.08500
C 	C 	0.88250 0.53766 0.43088 0.08100
H 	H 	0.95210 0.57970 0.43230 -0.00100
N 	N 	0.31566 0.77201 0.00754 -0.23400
C 	C 	0.44360 0.77691 0.01091 0.06800
H 	H 	0.48660 0.73030 0.98990 -0.00000
C 	C 	0.51640 0.84620 0.04339 -0.12900
H 	H 	0.60720 0.84610 0.04480 0.06900
C 	C 	0.45586 0.91640 0.07423 0.06300
C 	C 	0.32271 0.91033 0.07026 -0.12800
H 	H 	0.27660 0.95620 0.09030 0.07100
C 	C 	0.25700 0.83819 0.03748 0.06400
H 	H 	0.16630 0.83550 0.03620 -0.00100
O 	O 	0.94859 0.76437 0.60039 -0.42900
O 	O 	0.01022 0.71226 0.50936 -0.39100
C 	C 	0.02396 0.76479 0.55753 0.39800
C 	C 	0.12730 0.83861 0.56310 -0.39600
H 	H 	0.15930 0.85090 0.60960 0.15300
H 	H 	0.20040 0.81860 0.54080 0.15000
C 	C 	0.06558 0.92443 0.53080 0.13400
C 	C 	0.05830 0.93693 0.46330 -0.09400
H 	H 	0.09790 0.89370 0.43780 0.06300
C 	C 	0.99371 0.01180 0.43339 -0.09900
H 	H 	0.99000 0.01960 0.38750 0.06500
O 	O 	0.62649 0.62531 0.59983 -0.45900
O 	O 	0.80790 0.55677 0.63749 -0.44800
C 	C 	0.68940 0.57106 0.63841 0.52200
C 	C 	0.61950 0.51950 0.68698 -0.82100
H 	H 	0.67350 0.46890 0.70620 0.26900
H 	H 	0.53870 0.49460 0.66450 0.26300
H 	H 	0.60100 0.56170 0.72160 0.26400
Cd	Cd	0.19075 0.66036 0.94953 1.21800
C 	C 	0.38127 0.22189 0.23063 0.02900
C 	C 	0.36402 0.28702 0.18193 -0.10000
H 	H 	0.42910 0.29780 0.15490 0.07000
C 	C 	0.24925 0.33725 0.17268 -0.01100
C 	C 	0.15562 0.31935 0.21374 -0.04000
H 	H 	0.07750 0.35320 0.20770 0.04600
C 	C 	0.17369 0.25394 0.26268 -0.06100
H 	H 	0.10890 0.24280 0.28980 0.05900
C 	C 	0.28818 0.20459 0.27173 -0.00700
C 	C 	0.33617 0.13260 0.31837 -0.00700
C 	C 	0.28224 0.08940 0.36828 -0.05500
H 	H 	0.19990 0.10710 0.37830 0.05500
C 	C 	0.35099 0.01985 0.40324 -0.04800
H 	H 	0.31430 0.99000 0.43730 0.04700
C 	C 	0.47268 0.99215 0.38996 0.00500
C 	C 	0.52675 0.03733 0.34009 -0.08700
H 	H 	0.60950 0.02030 0.33040 0.05900
C 	C 	0.45913 0.10645 0.30534 0.03100
N 	N 	0.19705 0.54586 0.02448 -0.25200
C 	C 	0.28890 0.48350 0.02703 0.09300
H 	H 	0.34500 0.48570 0.99450 -0.02100
C 	C 	0.30860 0.41570 0.07347 -0.16400
H 	H 	0.37720 0.37330 0.07260 0.09300
C 	C 	0.22936 0.40882 0.12143 0.08600
C 	C 	0.13040 0.47183 0.11711 -0.16500
H 	H 	0.07050 0.46960 0.14780 0.08500
C 	C 	0.11750 0.53766 0.06912 0.08100
H 	H 	0.04790 0.57970 0.06770 -0.00000
N 	N 	0.68434 0.77201 0.49246 -0.23400
C 	C 	0.55640 0.77691 0.48909 0.06800
H 	H 	0.51340 0.73030 0.51010 0.00000
C 	C 	0.48360 0.84620 0.45661 -0.12900
H 	H 	0.39280 0.84610 0.45520 0.06900
C 	C 	0.54414 0.91640 0.42577 0.06400
C 	C 	0.67729 0.91033 0.42974 -0.12800
H 	H 	0.72340 0.95620 0.40970 0.07100
C 	C 	0.74300 0.83819 0.46252 0.06400
H 	H 	0.83370 0.83550 0.46380 -0.00200
O 	O 	0.05141 0.76437 0.89961 -0.43100
O 	O 	0.98978 0.71226 0.99064 -0.39100
C 	C 	0.97604 0.76479 0.94247 0.40000
C 	C 	0.87270 0.83861 0.93690 -0.39700
H 	H 	0.84070 0.85090 0.89040 0.15400
H 	H 	0.79960 0.81860 0.95920 0.15000
C 	C 	0.93442 0.92443 0.96920 0.13600
C 	C 	0.94170 0.93693 0.03670 -0.09700
H 	H 	0.90210 0.89370 0.06220 0.06400
C 	C 	0.00629 0.01180 0.06661 -0.09700
H 	H 	0.01000 0.01960 0.11250 0.06500
O 	O 	0.37351 0.62531 0.90017 -0.45900
O 	O 	0.19210 0.55677 0.86251 -0.44800
C 	C 	0.31060 0.57106 0.86159 0.52200
C 	C 	0.38050 0.51950 0.81302 -0.82100
H 	H 	0.32650 0.46890 0.79380 0.26900
H 	H 	0.46130 0.49460 0.83550 0.26300
H 	H 	0.39900 0.56170 0.77840 0.26400
Cd	Cd	0.19075 0.33964 0.44953 1.21800
C 	C 	0.38127 0.77811 0.73063 0.02900
C 	C 	0.36402 0.71298 0.68193 -0.10000
H 	H 	0.42910 0.70220 0.65490 0.07000
C 	C 	0.24925 0.66275 0.67268 -0.01100
C 	C 	0.15562 0.68065 0.71374 -0.04000
H 	H 	0.07750 0.64680 0.70770 0.04500
C 	C 	0.17369 0.74606 0.76268 -0.06100
H 	H 	0.10890 0.75720 0.78980 0.05900
C 	C 	0.28818 0.79541 0.77173 -0.00700
C 	C 	0.33617 0.86740 0.81837 -0.00800
C 	C 	0.28224 0.91060 0.86828 -0.05400
H 	H 	0.19990 0.89290 0.87830 0.05400
C 	C 	0.35099 0.98015 0.90324 -0.05000
H 	H 	0.31430 0.01000 0.93730 0.04800
C 	C 	0.47268 0.00785 0.88996 0.00600
C 	C 	0.52675 0.96267 0.84009 -0.08800
H 	H 	0.60950 0.97970 0.83040 0.05900
C 	C 	0.45913 0.89355 0.80534 0.03100
N 	N 	0.19705 0.45414 0.52448 -0.25200
C 	C 	0.28890 0.51650 0.52703 0.09200
H 	H 	0.34500 0.51430 0.49450 -0.02000
C 	C 	0.30860 0.58430 0.57347 -0.16300
H 	H 	0.37720 0.62670 0.57260 0.09300
C 	C 	0.22936 0.59118 0.62143 0.08600
C 	C 	0.13040 0.52817 0.61711 -0.16500
H 	H 	0.07050 0.53040 0.64780 0.08500
C 	C 	0.11750 0.46234 0.56912 0.08100
H 	H 	0.04790 0.42030 0.56770 -0.00100
N 	N 	0.68434 0.22799 0.99246 -0.23400
C 	C 	0.55640 0.22309 0.98909 0.06800
H 	H 	0.51340 0.26970 0.01010 -0.00000
C 	C 	0.48360 0.15380 0.95661 -0.12900
H 	H 	0.39280 0.15390 0.95520 0.06900
C 	C 	0.54414 0.08360 0.92577 0.06300
C 	C 	0.67729 0.08967 0.92974 -0.12800
H 	H 	0.72340 0.04380 0.90970 0.07100
C 	C 	0.74300 0.16181 0.96252 0.06400
H 	H 	0.83370 0.16450 0.96380 -0.00100
O 	O 	0.05141 0.23563 0.39961 -0.42900
O 	O 	0.98978 0.28774 0.49064 -0.39100
C 	C 	0.97604 0.23521 0.44247 0.39800
C 	C 	0.87270 0.16139 0.43690 -0.39600
H 	H 	0.84070 0.14910 0.39040 0.15300
H 	H 	0.79960 0.18140 0.45920 0.15000
C 	C 	0.93442 0.07557 0.46920 0.13400
C 	C 	0.94170 0.06307 0.53670 -0.09400
H 	H 	0.90210 0.10630 0.56220 0.06300
C 	C 	0.00629 0.98820 0.56661 -0.09900
H 	H 	0.01000 0.98040 0.61250 0.06500
O 	O 	0.37351 0.37469 0.40017 -0.45900
O 	O 	0.19210 0.44323 0.36251 -0.44800
C 	C 	0.31060 0.42894 0.36159 0.52200
C 	C 	0.38050 0.48050 0.31302 -0.82100
H 	H 	0.32650 0.53110 0.29380 0.26900
H 	H 	0.46130 0.50540 0.33550 0.26300
H 	H 	0.39900 0.43830 0.27840 0.26400
Cd	Cd	0.80925 0.33964 0.05047 1.21800
C 	C 	0.61873 0.77811 0.76937 0.02900
C 	C 	0.63598 0.71298 0.81807 -0.10000
H 	H 	0.57090 0.70220 0.84510 0.07000
C 	C 	0.75075 0.66275 0.82732 -0.01100
C 	C 	0.84438 0.68065 0.78626 -0.04000
H 	H 	0.92250 0.64680 0.79230 0.04600
C 	C 	0.82631 0.74606 0.73732 -0.06100
H 	H 	0.89110 0.75720 0.71020 0.05900
C 	C 	0.71182 0.79541 0.72827 -0.00700
C 	C 	0.66383 0.86740 0.68163 -0.00700
C 	C 	0.71776 0.91060 0.63172 -0.05500
H 	H 	0.80010 0.89290 0.62170 0.05500
C 	C 	0.64901 0.98015 0.59676 -0.04800
H 	H 	0.68570 0.01000 0.56270 0.04700
C 	C 	0.52732 0.00785 0.61004 0.00500
C 	C 	0.47325 0.96267 0.65991 -0.08700
H 	H 	0.39050 0.97970 0.66960 0.05900
C 	C 	0.54087 0.89355 0.69466 0.03100
N 	N 	0.80295 0.45414 0.97552 -0.25200
C 	C 	0.71110 0.51650 0.97297 0.09300
H 	H 	0.65500 0.51430 0.00550 -0.02100
C 	C 	0.69140 0.58430 0.92653 -0.16400
H 	H 	0.62280 0.62670 0.92740 0.09300
C 	C 	0.77064 0.59118 0.87857 0.08600
C 	C 	0.86960 0.52817 0.88289 -0.16500
H 	H 	0.92950 0.53040 0.85220 0.08500
C 	C 	0.88250 0.46234 0.93088 0.08100
H 	H 	0.95210 0.42030 0.93230 -0.00000
N 	N 	0.31566 0.22799 0.50754 -0.23400
C 	C 	0.44360 0.22309 0.51091 0.06800
H 	H 	0.48660 0.26970 0.48990 0.00000
C 	C 	0.51640 0.15380 0.54339 -0.12900
H 	H 	0.60720 0.15390 0.54480 0.06900
C 	C 	0.45586 0.08360 0.57423 0.06400
C 	C 	0.32271 0.08967 0.57026 -0.12800
H 	H 	0.27660 0.04380 0.59030 0.07100
C 	C 	0.25700 0.16181 0.53748 0.06400
H 	H 	0.16630 0.16450 0.53620 -0.00200
O 	O 	0.94859 0.23563 0.10039 -0.43100
O 	O 	0.01022 0.28774 0.00936 -0.39100
C 	C 	0.02396 0.23521 0.05753 0.40000
C 	C 	0.12730 0.16139 0.06310 -0.39700
H 	H 	0.15930 0.14910 0.10960 0.15400
H 	H 	0.20040 0.18140 0.04080 0.15000
C 	C 	0.06558 0.07557 0.03080 0.13600
C 	C 	0.05830 0.06307 0.96330 -0.09700
H 	H 	0.09790 0.10630 0.93780 0.06400
C 	C 	0.99371 0.98820 0.93339 -0.09700
H 	H 	0.99000 0.98040 0.88750 0.06500
O 	O 	0.62649 0.37469 0.09983 -0.45900
O 	O 	0.80790 0.44323 0.13749 -0.44800
C 	C 	0.68940 0.42894 0.13841 0.52200
C 	C 	0.61950 0.48050 0.18698 -0.82100
H 	H 	0.67350 0.53110 0.20620 0.26900
H 	H 	0.53870 0.50540 0.16450 0.26300
H 	H 	0.60100 0.43830 0.22160 0.26400
C 	C 	0.50000 0.16261 0.25000 -0.04900
C 	C 	0.50000 0.83739 0.75000 -0.04900
