data_crystal

_cell_length_a 13.10660
_cell_length_b 13.10660
_cell_length_c 8.77010
_cell_angle_alpha 90.00000
_cell_angle_beta  90.00000
_cell_angle_gamma 120.00000

_symmetry_space_group_name_	'P 1'
_symmetry_space_group_name_H-M	'P 1'

loop_
_symmetry_equiv_pos_as_xyz
  x,y,z

loop_
_atom_site_label
_atom_site_type_symbol
_atom_site_fract_x
_atom_site_fract_y
_atom_site_fract_z
_atom_site_charge
O 	O 	0.65371 0.20482 0.11264 -0.52700
C 	C 	0.52391 0.10912 0.93467 0.52000
O 	O 	0.79518 0.44889 0.11264 -0.52800
C 	C 	0.89088 0.41479 0.93467 0.51200
O 	O 	0.55111 0.34629 0.11264 -0.52700
C 	C 	0.58521 0.47609 0.93467 0.52400
O 	O 	0.79518 0.34629 0.88736 -0.56700
C 	C 	0.89088 0.47609 0.06533 -0.17300
O 	O 	0.55111 0.20482 0.88736 -0.56700
C 	C 	0.58521 0.10912 0.06533 -0.16800
O 	O 	0.65371 0.44889 0.88736 -0.57000
C 	C 	0.52391 0.41479 0.06533 -0.17000
O 	O 	0.34629 0.79518 0.88736 -0.56700
C 	C 	0.47609 0.89088 0.06533 -0.17300
O 	O 	0.20482 0.55111 0.88736 -0.56700
C 	C 	0.10912 0.58521 0.06533 -0.16800
O 	O 	0.44889 0.65371 0.88736 -0.57000
C 	C 	0.41479 0.52391 0.06533 -0.17000
O 	O 	0.20482 0.65371 0.11264 -0.52800
C 	C 	0.10912 0.52391 0.93467 0.51900
O 	O 	0.44889 0.79518 0.11264 -0.52800
C 	C 	0.41479 0.89088 0.93467 0.51200
O 	O 	0.34629 0.55111 0.11264 -0.52700
C 	C 	0.47609 0.58521 0.93467 0.52400
Al	Al	0.66667 0.33333 -0.00000 2.38000
Al	Al	0.33333 0.66667 -0.00000 2.38000
C 	C 	0.54563 0.00000 0.13808 0.08300
C 	C 	-0.00000 0.54563 0.13808 0.08300
C 	C 	0.45437 0.45437 0.13808 0.07800
C 	C 	0.00000 0.45437 0.86192 -0.17000
C 	C 	0.45437 0.00000 0.86192 -0.17000
C 	C 	0.54563 0.54563 0.86192 -0.18000
