data_crystal

_cell_length_a 19.26010
_cell_length_b 19.76480
_cell_length_c 21.60770
_cell_angle_alpha 78.14100
_cell_angle_beta  82.00100
_cell_angle_gamma 79.39200

_symmetry_space_group_name_	'P 1'
_symmetry_space_group_name_H-M	'P 1'

loop_
_symmetry_equiv_pos_as_xyz
  x,y,z

loop_
_atom_site_label
_atom_site_type_symbol
_atom_site_fract_x
_atom_site_fract_y
_atom_site_fract_z
_atom_site_charge
Ag	Ag	0.24137 0.74254 0.34640 0.36000
Ag	Ag	0.08223 0.69846 0.35677 0.35800
Ag	Ag	0.21345 0.89786 0.30056 0.45600
Ag	Ag	0.27918 0.77362 0.20663 0.47200
Ag	Ag	0.12421 0.83383 0.23642 0.36700
Ag	Ag	0.14811 0.71447 0.46527 0.44300
Ag	Ag	0.21400 0.59256 0.37406 0.45000
Ag	Ag	0.98943 0.83602 0.31681 0.44900
Ag	Ag	0.04230 0.71170 0.22896 0.47500
Zn	Zn	0.20400 0.07727 0.33487 1.18900
Zn	Zn	0.11367 0.76875 0.60852 1.15800
S 	S 	0.92669 0.78795 0.25187 -0.27000
S 	S 	0.11679 0.60513 0.29710 -0.33100
S 	S 	0.20077 0.58968 0.48984 -0.28600
S 	S 	0.30174 0.65510 0.28455 -0.32400
S 	S 	0.31195 0.88538 0.21390 -0.27100
S 	S 	0.07175 0.92639 0.29587 -0.35600
S 	S 	0.02382 0.77768 0.42734 -0.37300
S 	S 	0.16427 0.74678 0.17094 -0.34500
S 	S 	0.20442 0.82903 0.41541 -0.39100
O 	O 	0.87630 0.71990 0.10130 -0.22600
O 	O 	0.97580 0.69480 0.14550 -0.28700
O 	O 	0.30420 0.68440 0.02870 -0.22200
O 	O 	0.32500 0.73590 0.10250 -0.28400
O 	O 	0.09030 0.47380 0.19910 -0.22900
O 	O 	0.17920 0.45510 0.25700 -0.23300
O 	O 	0.39450 0.52390 0.22380 -0.19600
O 	O 	0.39320 0.46030 0.32160 -0.23900
O 	O 	0.19870 0.61430 0.65320 -0.29300
O 	O 	0.20680 0.71380 0.58390 -0.50500
O 	O 	0.05460 0.72270 0.56930 -0.51800
O 	O 	0.95800 0.78750 0.60950 -0.35600
O 	O 	0.21240 0.97770 0.48090 -0.31200
O 	O 	0.26830 0.99560 0.38350 -0.46600
O 	O 	0.21790 0.02750 0.26120 -0.48800
O 	O 	0.30580 0.08820 0.22390 -0.29200
O 	O 	0.96610 0.03860 0.35170 -0.28400
O 	O 	0.87250 0.06630 0.29670 -0.26300
N 	N 	0.15760 0.17120 0.27280 -0.24000
N 	N 	0.25480 0.15640 0.35160 -0.23900
C 	C 	0.30710 0.14530 0.38960 0.06400
H 	H 	0.32290 0.09950 0.41170 0.00800
C 	C 	0.33820 0.20150 0.39660 -0.10400
H 	H 	0.37680 0.19280 0.42170 0.06900
C 	C 	0.31440 0.26840 0.36830 0.03800
H 	H 	0.33370 0.30650 0.37580 0.03100
C 	C 	0.26210 0.27960 0.32890 -0.09900
H 	H 	0.24660 0.32540 0.30670 0.08300
C 	C 	0.23150 0.22330 0.32130 0.04800
C 	C 	0.17640 0.23060 0.27880 0.07300
C 	C 	0.14870 0.29370 0.24510 -0.11400
H 	H 	0.16290 0.33540 0.25060 0.09100
C 	C 	0.09990 0.29690 0.20280 0.04500
H 	H 	0.08130 0.34020 0.17790 0.03900
C 	C 	0.07870 0.23450 0.19810 -0.12700
H 	H 	0.04350 0.23410 0.17150 0.07500
C 	C 	0.11080 0.17360 0.23340 0.08100
H 	H 	0.09830 0.13070 0.22890 -0.00500
C 	C 	0.25440 0.07450 0.10200 0.04700
H 	H 	0.24750 0.12270 0.10480 0.03300
C 	C 	0.24920 0.05500 0.04550 -0.10500
H 	H 	0.24070 0.09050 0.00910 0.07600
C 	C 	0.25610 0.98570 0.03950 0.03700
H 	H 	0.24960 0.97360 0.00060 0.02300
C 	C 	0.27310 0.93300 0.09300 -0.13600
H 	H 	0.27890 0.88510 0.08970 0.06700
C 	C 	0.28140 0.95110 0.15050 0.08800
C 	C 	0.26960 0.02340 0.15500 -0.12200
C 	C 	0.04770 0.99600 0.23200 0.09600
C 	C 	0.08830 0.00320 0.17470 -0.15000
H 	H 	0.12980 0.96970 0.16930 0.04300
C 	C 	0.07210 0.05710 0.12360 0.04900
H 	H 	0.10220 0.06050 0.08470 0.01200
C 	C 	0.01270 0.10440 0.13050 -0.12100
H 	H 	0.00080 0.14130 0.09600 0.07200
C 	C 	0.96850 0.09970 0.18790 0.04000
H 	H 	0.92630 0.13270 0.19180 0.01900
C 	C 	0.26730 0.04730 0.21820 0.34100
C 	C 	0.98620 0.04710 0.23910 -0.13000
C 	C 	0.93850 0.04960 0.30100 0.29400
C 	C 	0.92400 0.73690 0.12430 0.33100
C 	C 	0.92010 0.81450 0.12180 -0.12800
C 	C 	0.92840 0.84100 0.17510 0.08200
C 	C 	0.93380 0.91060 0.16730 -0.14400
H 	H 	0.94080 0.92930 0.20270 0.05500
C 	C 	0.92910 0.95510 0.10640 0.04000
H 	H 	0.93310 0.00320 0.10160 0.01700
C 	C 	0.91900 0.92920 0.05600 -0.11700
H 	H 	0.91430 0.95910 0.01580 0.06600
C 	C 	0.91540 0.85960 0.06310 0.04900
H 	H 	0.90960 0.84140 0.02700 0.02500
C 	C 	0.28840 0.72970 0.06070 0.34000
C 	C 	0.22280 0.78390 0.04700 -0.13500
C 	C 	0.21970 0.81950 0.98370 0.05700
H 	H 	0.25900 0.81070 0.95290 0.03000
C 	C 	0.16230 0.86570 0.96580 -0.11500
H 	H 	0.16070 0.88780 0.92250 0.07300
C 	C 	0.10360 0.88170 0.01190 0.04600
H 	H 	0.06390 0.91620 0.00020 0.01100
C 	C 	0.10650 0.84620 0.07280 -0.14800
H 	H 	0.06740 0.85600 0.10340 0.05500
C 	C 	0.16490 0.79560 0.09240 0.10500
C 	C 	0.98750 0.74620 0.57400 0.35500
C 	C 	0.95990 0.72690 0.46900 0.10300
C 	C 	0.94490 0.71890 0.53550 -0.15300
C 	C 	0.89120 0.68230 0.56650 0.06000
H 	H 	0.87970 0.67930 0.61110 0.01800
C 	C 	0.85370 0.64990 0.53320 -0.11800
H 	H 	0.81840 0.62350 0.55550 0.06900
C 	C 	0.86760 0.65630 0.46830 0.04700
H 	H 	0.84210 0.63460 0.44540 0.01600
C 	C 	0.91940 0.69480 0.43690 -0.15200
H 	H 	0.92820 0.70000 0.39190 0.04000
C 	C 	0.02090 0.54810 0.39180 -0.14100
H 	H 	0.02250 0.58540 0.41300 0.03200
C 	C 	0.06210 0.54210 0.33570 0.08800
C 	C 	0.11410 0.47230 0.24850 0.31400
C 	C 	0.06050 0.48590 0.30590 -0.10800
C 	C 	0.01370 0.43750 0.33190 0.04200
H 	H 	0.01180 0.40050 0.31060 0.02400
C 	C 	0.97120 0.44340 0.38720 -0.10500
H 	H 	0.93950 0.41100 0.40400 0.07500
C 	C 	0.97470 0.49640 0.41850 0.03400
H 	H 	0.94660 0.49930 0.45790 0.01500
C 	C 	0.22660 0.64920 0.60490 0.35500
C 	C 	0.29210 0.61570 0.56770 -0.12800
C 	C 	0.35770 0.61130 0.59040 0.04800
H 	H 	0.36080 0.62530 0.62930 0.02600
C 	C 	0.41870 0.58540 0.55350 -0.11100
H 	H 	0.46410 0.58330 0.56690 0.07300
C 	C 	0.41410 0.56270 0.49780 0.04200
H 	H 	0.45610 0.54420 0.47410 0.01800
C 	C 	0.34850 0.56700 0.47670 -0.14200
H 	H 	0.34650 0.55380 0.43720 0.05900
C 	C 	0.28530 0.59030 0.51190 0.08700
C 	C 	0.25710 0.96030 0.43850 0.37000
C 	C 	0.30570 0.89120 0.45390 -0.15800
C 	C 	0.37110 0.88920 0.47410 0.08600
H 	H 	0.38400 0.93210 0.47810 0.01000
C 	C 	0.41690 0.83090 0.48800 -0.14000
H 	H 	0.46050 0.83180 0.50320 0.08000
C 	C 	0.39930 0.76720 0.47970 0.06000
H 	H 	0.43110 0.72460 0.48940 0.01300
C 	C 	0.33510 0.76730 0.45720 -0.15800
H 	H 	0.32370 0.72450 0.45110 0.04900
C 	C 	0.28750 0.82850 0.44340 0.10600
C 	C 	0.38920 0.63620 0.30940 0.08800
C 	C 	0.41730 0.68550 0.33260 -0.14000
H 	H 	0.39020 0.73050 0.33480 0.03800
C 	C 	0.48440 0.66860 0.35240 0.04300
H 	H 	0.50290 0.70140 0.36940 0.01800
C 	C 	0.52510 0.60390 0.34740 -0.10900
H 	H 	0.57200 0.59350 0.35950 0.07400
C 	C 	0.49910 0.55570 0.32580 0.04300
H 	H 	0.52730 0.51130 0.32400 0.03000
C 	C 	0.43050 0.57020 0.30580 -0.10800
C 	C 	0.40290 0.51440 0.28240 0.29700
Ag	Ag	0.75863 0.25746 0.65360 0.36100
Ag	Ag	0.91777 0.30154 0.64323 0.35900
Ag	Ag	0.78655 0.10214 0.69944 0.45700
Ag	Ag	0.72082 0.22638 0.79337 0.47300
Ag	Ag	0.87579 0.16617 0.76358 0.36800
Ag	Ag	0.85189 0.28553 0.53473 0.44400
Ag	Ag	0.78600 0.40744 0.62594 0.45100
Ag	Ag	0.01057 0.16398 0.68319 0.45000
Ag	Ag	0.95770 0.28830 0.77104 0.47500
Zn	Zn	0.79600 0.92273 0.66513 1.18900
Zn	Zn	0.88633 0.23125 0.39148 1.15800
S 	S 	0.07331 0.21205 0.74813 -0.27000
S 	S 	0.88321 0.39487 0.70290 -0.33100
S 	S 	0.79923 0.41032 0.51016 -0.28600
S 	S 	0.69826 0.34490 0.71545 -0.32400
S 	S 	0.68805 0.11462 0.78610 -0.27100
S 	S 	0.92825 0.07361 0.70413 -0.35600
S 	S 	0.97618 0.22232 0.57266 -0.37300
S 	S 	0.83573 0.25322 0.82906 -0.34500
S 	S 	0.79558 0.17097 0.58459 -0.39100
O 	O 	0.12370 0.28010 0.89870 -0.22600
O 	O 	0.02420 0.30520 0.85450 -0.28700
O 	O 	0.69580 0.31560 0.97130 -0.22200
O 	O 	0.67500 0.26410 0.89750 -0.28400
O 	O 	0.90970 0.52620 0.80090 -0.22900
O 	O 	0.82080 0.54490 0.74300 -0.23300
O 	O 	0.60550 0.47610 0.77620 -0.19600
O 	O 	0.60680 0.53970 0.67840 -0.23900
O 	O 	0.80130 0.38570 0.34680 -0.29300
O 	O 	0.79320 0.28620 0.41610 -0.50500
O 	O 	0.94540 0.27730 0.43070 -0.51800
O 	O 	0.04200 0.21250 0.39050 -0.35600
O 	O 	0.78760 0.02230 0.51910 -0.31200
O 	O 	0.73170 0.00440 0.61650 -0.46600
O 	O 	0.78210 0.97250 0.73880 -0.48800
O 	O 	0.69420 0.91180 0.77610 -0.29200
O 	O 	0.03390 0.96140 0.64830 -0.28400
O 	O 	0.12750 0.93370 0.70330 -0.26300
N 	N 	0.84240 0.82880 0.72720 -0.24000
N 	N 	0.74520 0.84360 0.64840 -0.23900
C 	C 	0.69290 0.85470 0.61040 0.06400
H 	H 	0.67710 0.90050 0.58830 0.00800
C 	C 	0.66180 0.79850 0.60340 -0.10400
H 	H 	0.62320 0.80720 0.57830 0.06900
C 	C 	0.68560 0.73160 0.63170 0.03800
H 	H 	0.66630 0.69350 0.62420 0.03100
C 	C 	0.73790 0.72040 0.67110 -0.09900
H 	H 	0.75340 0.67460 0.69330 0.08300
C 	C 	0.76850 0.77670 0.67870 0.04800
C 	C 	0.82360 0.76940 0.72120 0.07300
C 	C 	0.85130 0.70630 0.75490 -0.11400
H 	H 	0.83710 0.66460 0.74940 0.09100
C 	C 	0.90010 0.70310 0.79720 0.04500
H 	H 	0.91870 0.65980 0.82210 0.03900
C 	C 	0.92130 0.76550 0.80190 -0.12700
H 	H 	0.95650 0.76590 0.82850 0.07500
C 	C 	0.88920 0.82640 0.76660 0.08100
H 	H 	0.90170 0.86930 0.77110 -0.00500
C 	C 	0.74560 0.92550 0.89800 0.04700
H 	H 	0.75250 0.87730 0.89520 0.03300
C 	C 	0.75080 0.94500 0.95450 -0.10500
H 	H 	0.75930 0.90950 0.99090 0.07600
C 	C 	0.74390 0.01430 0.96050 0.03700
H 	H 	0.75040 0.02640 0.99940 0.02300
C 	C 	0.72690 0.06700 0.90700 -0.13600
H 	H 	0.72110 0.11490 0.91030 0.06700
C 	C 	0.71860 0.04890 0.84950 0.08800
C 	C 	0.73040 0.97660 0.84500 -0.12200
C 	C 	0.95230 0.00400 0.76800 0.09600
C 	C 	0.91170 0.99680 0.82530 -0.15000
H 	H 	0.87020 0.03030 0.83070 0.04300
C 	C 	0.92790 0.94290 0.87640 0.04900
H 	H 	0.89780 0.93950 0.91530 0.01200
C 	C 	0.98730 0.89560 0.86950 -0.12100
H 	H 	0.99920 0.85870 0.90400 0.07200
C 	C 	0.03150 0.90030 0.81210 0.04000
H 	H 	0.07370 0.86730 0.80820 0.01900
C 	C 	0.73270 0.95270 0.78180 0.34100
C 	C 	0.01380 0.95290 0.76090 -0.13000
C 	C 	0.06150 0.95040 0.69900 0.29400
C 	C 	0.07600 0.26310 0.87570 0.33100
C 	C 	0.07990 0.18550 0.87820 -0.12800
C 	C 	0.07160 0.15900 0.82490 0.08200
C 	C 	0.06620 0.08940 0.83270 -0.14400
H 	H 	0.05920 0.07070 0.79730 0.05500
C 	C 	0.07090 0.04490 0.89360 0.04000
H 	H 	0.06690 0.99680 0.89840 0.01700
C 	C 	0.08100 0.07080 0.94400 -0.11700
H 	H 	0.08570 0.04090 0.98420 0.06600
C 	C 	0.08460 0.14040 0.93690 0.04900
H 	H 	0.09040 0.15860 0.97300 0.02500
C 	C 	0.71160 0.27030 0.93930 0.34000
C 	C 	0.77720 0.21610 0.95300 -0.13500
C 	C 	0.78030 0.18050 0.01630 0.05700
H 	H 	0.74100 0.18930 0.04710 0.03000
C 	C 	0.83770 0.13430 0.03420 -0.11500
H 	H 	0.83930 0.11220 0.07750 0.07300
C 	C 	0.89640 0.11830 0.98810 0.04600
H 	H 	0.93610 0.08380 0.99980 0.01100
C 	C 	0.89350 0.15380 0.92720 -0.14800
H 	H 	0.93260 0.14400 0.89660 0.05500
C 	C 	0.83510 0.20440 0.90760 0.10500
C 	C 	0.01250 0.25380 0.42600 0.35500
C 	C 	0.04010 0.27310 0.53100 0.10300
C 	C 	0.05510 0.28110 0.46450 -0.15300
C 	C 	0.10880 0.31770 0.43350 0.06000
H 	H 	0.12030 0.32070 0.38890 0.01800
C 	C 	0.14630 0.35010 0.46680 -0.11800
H 	H 	0.18160 0.37650 0.44450 0.06900
C 	C 	0.13240 0.34370 0.53170 0.04700
H 	H 	0.15790 0.36540 0.55460 0.01600
C 	C 	0.08060 0.30520 0.56310 -0.15200
H 	H 	0.07180 0.30000 0.60810 0.04000
C 	C 	0.97910 0.45190 0.60820 -0.14100
H 	H 	0.97750 0.41460 0.58700 0.03200
C 	C 	0.93790 0.45790 0.66430 0.08800
C 	C 	0.88590 0.52770 0.75150 0.31400
C 	C 	0.93950 0.51410 0.69410 -0.10800
C 	C 	0.98630 0.56250 0.66810 0.04200
H 	H 	0.98820 0.59950 0.68940 0.02400
C 	C 	0.02880 0.55660 0.61280 -0.10500
H 	H 	0.06050 0.58900 0.59600 0.07500
C 	C 	0.02530 0.50360 0.58150 0.03400
H 	H 	0.05340 0.50070 0.54210 0.01500
C 	C 	0.77340 0.35080 0.39510 0.35500
C 	C 	0.70790 0.38430 0.43230 -0.12800
C 	C 	0.64230 0.38870 0.40960 0.04800
H 	H 	0.63920 0.37470 0.37070 0.02600
C 	C 	0.58130 0.41460 0.44650 -0.11100
H 	H 	0.53590 0.41670 0.43310 0.07300
C 	C 	0.58590 0.43730 0.50220 0.04200
H 	H 	0.54390 0.45580 0.52590 0.01800
C 	C 	0.65150 0.43300 0.52330 -0.14200
H 	H 	0.65350 0.44620 0.56280 0.05900
C 	C 	0.71470 0.40970 0.48810 0.08700
C 	C 	0.74290 0.03970 0.56150 0.37000
C 	C 	0.69430 0.10880 0.54610 -0.15800
C 	C 	0.62890 0.11080 0.52590 0.08600
H 	H 	0.61600 0.06790 0.52190 0.01000
C 	C 	0.58310 0.16910 0.51200 -0.14000
H 	H 	0.53950 0.16820 0.49680 0.08000
C 	C 	0.60070 0.23280 0.52030 0.06000
H 	H 	0.56890 0.27540 0.51060 0.01300
C 	C 	0.66490 0.23270 0.54280 -0.15800
H 	H 	0.67630 0.27550 0.54890 0.04900
C 	C 	0.71250 0.17150 0.55660 0.10600
C 	C 	0.61080 0.36380 0.69060 0.08800
C 	C 	0.58270 0.31450 0.66740 -0.14000
H 	H 	0.60980 0.26950 0.66520 0.03800
C 	C 	0.51560 0.33140 0.64760 0.04300
H 	H 	0.49710 0.29860 0.63060 0.01800
C 	C 	0.47490 0.39610 0.65260 -0.10900
H 	H 	0.42800 0.40650 0.64050 0.07400
C 	C 	0.50090 0.44430 0.67420 0.04300
H 	H 	0.47270 0.48870 0.67600 0.03000
C 	C 	0.56950 0.42980 0.69420 -0.10800
C 	C 	0.59710 0.48560 0.71760 0.29700
