data_crystal

_cell_length_a 9.39400
_cell_length_b 14.00820
_cell_length_c 15.00440
_cell_angle_alpha 116.24900
_cell_angle_beta  106.52000
_cell_angle_gamma 91.90600

_symmetry_space_group_name_	'P 1'
_symmetry_space_group_name_H-M	'P 1'

loop_
_symmetry_equiv_pos_as_xyz
  x,y,z

loop_
_atom_site_label
_atom_site_type_symbol
_atom_site_fract_x
_atom_site_fract_y
_atom_site_fract_z
_atom_site_charge
Ag	Ag	0.72870 0.73057 0.48473 0.51700
N 	N 	0.77940 0.69873 0.61977 -0.13900
N 	N 	0.68950 0.76558 0.35277 -0.14100
N 	N 	0.82030 0.31487 0.89370 -0.12900
N 	N 	0.70100 0.17320 0.07500 -0.12600
C 	C 	0.79290 0.51111 0.49910 -0.12800
H 	H 	0.76150 0.52430 0.43730 0.03700
H 	H 	0.75400 0.43410 0.47460 0.05200
C 	C 	0.67140 0.93020 0.67770 -0.10300
H 	H 	0.60510 0.88530 0.60780 0.02600
C 	C 	0.69870 0.04090 0.71630 -0.01900
H 	H 	0.65430 0.07200 0.67260 0.02500
C 	C 	0.54330 0.50870 0.25820 -0.11200
H 	H 	0.50400 0.53650 0.31480 0.03700
C 	C 	0.72280 0.58158 0.57910 -0.05000
H 	H 	0.61150 0.56550 0.54590 0.01900
H 	H 	0.74720 0.56460 0.63850 0.04100
C 	C 	0.57270 0.57370 0.21490 0.06800
C 	C 	0.02560 0.65481 0.59627 -0.12200
H 	H 	0.13540 0.66980 0.63470 0.05700
H 	H 	0.01120 0.67780 0.54120 0.03300
C 	C 	0.96610 0.53232 0.54320 -0.00800
H 	H 	0.99620 0.50820 0.59830 0.02700
C 	C 	0.78700 0.96200 0.47840 -0.12900
H 	H 	0.80390 0.95020 0.54070 0.04100
H 	H 	0.76030 0.03460 0.49710 0.05400
C 	C 	0.93310 0.95970 0.45260 -0.00600
H 	H 	0.91770 0.98060 0.39530 0.02800
C 	C 	0.79160 0.10680 0.81980 -0.03100
C 	C 	0.96220 0.84300 0.40960 -0.12400
H 	H 	0.04900 0.83890 0.38380 0.05500
H 	H 	0.98970 0.82380 0.46760 0.03700
C 	C 	0.62270 0.52940 0.12850 -0.10100
H 	H 	0.63830 0.57190 0.09620 0.06500
C 	C 	0.81020 0.22310 0.86190 0.06900
C 	C 	0.57060 0.40420 0.21990 -0.01300
H 	H 	0.55120 0.36070 0.25050 0.02600
C 	C 	0.82610 0.76120 0.32040 -0.05400
H 	H 	0.80450 0.77590 0.25960 0.04900
H 	H 	0.84990 0.68750 0.29770 0.03400
C 	C 	0.65010 0.42510 0.08900 -0.01500
H 	H 	0.68450 0.39620 0.03020 0.04400
C 	C 	0.86120 0.06130 0.88290 -0.01100
H 	H 	0.92550 0.10620 0.95340 0.03700
C 	C 	0.73980 0.88310 0.73950 0.06000
C 	C 	0.55400 0.69040 0.26080 -0.14900
H 	H 	0.53500 0.71300 0.20520 0.07700
H 	H 	0.46440 0.69680 0.28390 0.05900
C 	C 	0.83530 0.94960 0.84150 -0.09600
H 	H 	0.88400 0.91820 0.88390 0.06200
C 	C 	0.65590 0.87730 0.38790 -0.05000
H 	H 	0.56570 0.88100 0.41020 0.02100
H 	H 	0.63210 0.89330 0.32780 0.04600
C 	C 	0.62680 0.36250 0.13630 -0.03300
C 	C 	0.94680 0.72140 0.67300 -0.05800
H 	H 	0.96930 0.70400 0.73210 0.05300
H 	H 	0.98630 0.79940 0.70240 0.03700
C 	C 	0.70360 0.76210 0.69730 -0.14200
H 	H 	0.73420 0.74590 0.75720 0.07100
H 	H 	0.59290 0.73760 0.66290 0.05400
C 	C 	0.66610 0.25630 0.10100 0.07200
Ag	Ag	0.27130 0.26943 0.51527 0.51600
N 	N 	0.22060 0.30127 0.38023 -0.14000
N 	N 	0.31050 0.23442 0.64723 -0.14100
N 	N 	0.17970 0.68513 0.10630 -0.12900
N 	N 	0.29900 0.82680 0.92500 -0.12600
C 	C 	0.20710 0.48889 0.50090 -0.12800
H 	H 	0.23850 0.47570 0.56270 0.03700
H 	H 	0.24600 0.56590 0.52540 0.05200
C 	C 	0.32860 0.06980 0.32230 -0.10300
H 	H 	0.39490 0.11470 0.39220 0.02600
C 	C 	0.30130 0.95910 0.28370 -0.01900
H 	H 	0.34570 0.92800 0.32740 0.02500
C 	C 	0.45670 0.49130 0.74180 -0.11200
H 	H 	0.49600 0.46350 0.68520 0.03700
C 	C 	0.27720 0.41842 0.42090 -0.05000
H 	H 	0.38850 0.43450 0.45410 0.01900
H 	H 	0.25280 0.43540 0.36150 0.04100
C 	C 	0.42730 0.42630 0.78510 0.06800
C 	C 	0.97440 0.34519 0.40373 -0.12200
H 	H 	0.86460 0.33020 0.36530 0.05700
H 	H 	0.98880 0.32220 0.45880 0.03300
C 	C 	0.03390 0.46768 0.45680 -0.00800
H 	H 	0.00380 0.49180 0.40170 0.02700
C 	C 	0.21300 0.03800 0.52160 -0.12900
H 	H 	0.19610 0.04980 0.45930 0.04100
H 	H 	0.23970 0.96540 0.50290 0.05400
C 	C 	0.06690 0.04030 0.54740 -0.00600
H 	H 	0.08230 0.01940 0.60470 0.02800
C 	C 	0.20840 0.89320 0.18020 -0.03100
C 	C 	0.03780 0.15700 0.59040 -0.12400
H 	H 	0.95100 0.16110 0.61620 0.05500
H 	H 	0.01030 0.17620 0.53240 0.03700
C 	C 	0.37730 0.47060 0.87150 -0.10100
H 	H 	0.36170 0.42810 0.90380 0.06500
C 	C 	0.18980 0.77690 0.13810 0.06900
C 	C 	0.42940 0.59580 0.78010 -0.01300
H 	H 	0.44880 0.63930 0.74950 0.02600
C 	C 	0.17390 0.23880 0.67960 -0.05400
H 	H 	0.19550 0.22410 0.74040 0.04900
H 	H 	0.15010 0.31250 0.70230 0.03400
C 	C 	0.34990 0.57490 0.91100 -0.01500
H 	H 	0.31550 0.60380 0.96980 0.04400
C 	C 	0.13880 0.93870 0.11710 -0.01100
H 	H 	0.07450 0.89380 0.04660 0.03700
C 	C 	0.26020 0.11690 0.26050 0.06000
C 	C 	0.44600 0.30960 0.73920 -0.14900
H 	H 	0.46500 0.28700 0.79480 0.07700
H 	H 	0.53560 0.30320 0.71610 0.05900
C 	C 	0.16470 0.05040 0.15850 -0.09600
H 	H 	0.11600 0.08180 0.11610 0.06200
C 	C 	0.34410 0.12270 0.61210 -0.05000
H 	H 	0.43430 0.11900 0.58980 0.02100
H 	H 	0.36790 0.10670 0.67220 0.04600
C 	C 	0.37320 0.63750 0.86370 -0.03300
C 	C 	0.05320 0.27860 0.32700 -0.05800
H 	H 	0.03070 0.29600 0.26790 0.05300
H 	H 	0.01370 0.20060 0.29760 0.03700
C 	C 	0.29640 0.23790 0.30270 -0.14200
H 	H 	0.26580 0.25410 0.24280 0.07100
H 	H 	0.40710 0.26240 0.33710 0.05400
C 	C 	0.33390 0.74370 0.89900 0.07200
