data_crystal

_cell_length_a 16.35900
_cell_length_b 16.50400
_cell_length_c 32.22800
_cell_angle_alpha 79.27800
_cell_angle_beta  77.95900
_cell_angle_gamma 62.97200

_symmetry_space_group_name_	'P 1'
_symmetry_space_group_name_H-M	'P 1'

loop_
_symmetry_equiv_pos_as_xyz
  x,y,z

loop_
_atom_site_label
_atom_site_type_symbol
_atom_site_fract_x
_atom_site_fract_y
_atom_site_fract_z
_atom_site_charge
Co	Co	0.02931 0.50347 0.90686 1.13200
Co	Co	0.90462 0.57571 0.84061 1.14000
O 	O 	0.08540 0.39880 0.99200 -0.53700
O 	O 	0.12390 0.52960 0.97210 -0.53000
O 	O 	0.21930 0.39100 0.93600 -0.50000
O 	O 	0.73720 0.59780 0.80570 -0.55400
O 	O 	0.77010 0.73230 0.78690 -0.52400
O 	O 	0.86830 0.59400 0.75020 -0.47800
O 	O 	0.91170 0.49270 0.89900 -0.51900
O 	O 	0.94240 0.63480 0.88130 -0.49900
O 	O 	0.04810 0.49630 0.84040 -0.52600
O 	O 	0.42100 0.20420 0.12610 -0.23700
O 	O 	0.48090 0.30500 0.10210 -0.24500
O 	O 	0.46390 0.76870 0.64310 -0.32300
O 	O 	0.56350 0.83320 0.60190 -0.28400
N 	N 	0.01880 0.42290 0.96340 -0.18200
N 	N 	0.05700 0.57840 0.94320 -0.16100
N 	N 	0.17310 0.41820 0.89970 -0.16700
N 	N 	0.78690 0.55720 0.84030 -0.16000
N 	N 	0.82370 0.71160 0.82060 -0.16800
N 	N 	0.94030 0.55420 0.77630 -0.15700
B 	B 	0.15880 0.42860 0.97660 1.48700
B 	B 	0.77000 0.65210 0.77250 1.47800
C 	C 	0.95990 0.38850 0.98050 0.10300
H 	H 	0.96990 0.35220 0.00710 0.03600
C 	C 	0.88020 0.40140 0.96190 -0.20100
C 	C 	0.82450 0.36290 0.98540 0.15200
H 	H 	0.84110 0.32840 0.01190 -0.03200
C 	C 	0.74440 0.37180 0.97220 -0.30200
C 	C 	0.72240 0.42540 0.93390 0.13900
H 	H 	0.66700 0.43480 0.92470 -0.02400
C 	C 	0.77560 0.46590 0.90840 -0.17900
C 	C 	0.86100 0.45440 0.92260 0.25700
C 	C 	0.74630 0.51880 0.86910 0.07900
H 	H 	0.68810 0.52610 0.86390 0.03700
C 	C 	0.68710 0.32450 0.00060 0.69100
C 	C 	0.74130 0.23790 0.02540 -1.06000
H 	H 	0.69940 0.21270 0.04240 0.33600
H 	H 	0.78670 0.19400 0.00580 0.31300
H 	H 	0.77360 0.24950 0.04430 0.34900
C 	C 	0.61650 0.39350 0.03250 -0.93900
H 	H 	0.57990 0.45140 0.01660 0.28500
H 	H 	0.57500 0.36820 0.04990 0.30500
H 	H 	0.65010 0.40430 0.05110 0.29900
C 	C 	0.63070 0.30920 0.97180 -0.92400
H 	H 	0.59530 0.36730 0.95560 0.29600
H 	H 	0.67330 0.26470 0.95190 0.27900
H 	H 	0.58790 0.28610 0.98970 0.28700
C 	C 	0.02820 0.66700 0.94280 0.04700
H 	H 	0.05420 0.68640 0.96050 0.03700
C 	C 	0.96000 0.73760 0.91770 -0.14100
C 	C 	0.93430 0.82810 0.92440 0.09500
H 	H 	0.96280 0.83840 0.94450 -0.00500
C 	C 	0.86770 0.90490 0.90290 -0.26200
C 	C 	0.82930 0.88490 0.87370 0.11700
H 	H 	0.78450 0.93420 0.85840 -0.02500
C 	C 	0.85380 0.79510 0.86570 -0.17400
C 	C 	0.91960 0.71880 0.88760 0.25000
C 	C 	0.81180 0.78660 0.83240 0.08400
H 	H 	0.77160 0.84180 0.81800 0.02800
C 	C 	0.83900 0.00100 0.91490 0.63900
C 	C 	0.92440 0.02060 0.90170 -0.92200
H 	H 	0.94550 0.01540 0.87110 0.29800
H 	H 	0.90820 0.08260 0.90760 0.28100
H 	H 	0.97400 0.97630 0.91780 0.30000
C 	C 	0.80590 0.00870 0.96130 -0.92400
H 	H 	0.75140 0.99600 0.96940 0.27500
H 	H 	0.85520 0.96430 0.97760 0.28300
H 	H 	0.78940 0.07060 0.96740 0.27100
C 	C 	0.75970 0.07060 0.88810 -0.86800
H 	H 	0.78220 0.06500 0.85770 0.27200
H 	H 	0.70580 0.05690 0.89610 0.26900
H 	H 	0.74200 0.13310 0.89400 0.25900
C 	C 	0.23220 0.38650 0.86540 0.08000
H 	H 	0.29520 0.34950 0.86910 0.03600
C 	C 	0.21030 0.40270 0.82370 -0.20500
C 	C 	0.28070 0.36100 0.79120 0.15500
H 	H 	0.34070 0.32540 0.79920 -0.02800
C 	C 	0.27440 0.36480 0.74930 -0.32100
C 	C 	0.18310 0.41750 0.73850 0.13000
H 	H 	0.17240 0.42640 0.70970 -0.04200
C 	C 	0.10920 0.45590 0.77070 -0.19100
C 	C 	0.11940 0.45230 0.81330 0.26700
C 	C 	0.02000 0.51040 0.75340 0.06000
H 	H 	0.02110 0.51370 0.72360 0.01700
C 	C 	0.35330 0.32470 0.71510 0.66300
C 	C 	0.44740 0.27230 0.73010 -0.93000
H 	H 	0.49500 0.24830 0.70570 0.27600
H 	H 	0.46100 0.31320 0.74300 0.28500
H 	H 	0.44700 0.22140 0.75130 0.28500
C 	C 	0.36320 0.40260 0.68260 -0.81700
H 	H 	0.41500 0.37640 0.66000 0.20700
H 	H 	0.30580 0.43830 0.67000 0.23200
H 	H 	0.37500 0.44260 0.69720 0.23700
C 	C 	0.33950 0.26570 0.68980 -0.92700
H 	H 	0.39340 0.24140 0.66790 0.26600
H 	H 	0.33230 0.21490 0.70880 0.27300
H 	H 	0.28370 0.30210 0.67600 0.27000
C 	C 	0.22930 0.38770 0.01230 -0.66300
C 	C 	0.28950 0.42330 0.01210 0.35900
H 	H 	0.28830 0.47360 0.99190 -0.09700
C 	C 	0.35360 0.38700 0.04120 -0.30100
H 	H 	0.39760 0.41030 0.03980 0.11200
C 	C 	0.35170 0.31850 0.07120 0.12400
C 	C 	0.28960 0.28090 0.07210 -0.29800
H 	H 	0.28970 0.23140 0.09260 0.12500
C 	C 	0.22850 0.31720 0.04270 0.36300
H 	H 	0.18520 0.29320 0.04340 -0.08800
C 	C 	0.42460 0.27100 0.10240 0.21200
C 	C 	0.70600 0.68890 0.73510 -0.66000
C 	C 	0.63090 0.67140 0.73990 0.34600
H 	H 	0.61680 0.63820 0.76550 -0.08600
C 	C 	0.57330 0.70140 0.70790 -0.30200
H 	H 	0.52290 0.68580 0.71130 0.12200
C 	C 	0.59010 0.75190 0.67270 0.08500
C 	C 	0.67050 0.77670 0.66710 -0.29100
H 	H 	0.68140 0.81520 0.64300 0.10400
C 	C 	0.72610 0.74180 0.69790 0.33100
H 	H 	0.77940 0.75290 0.69460 -0.08600
C 	C 	0.53500 0.78600 0.63900 0.09700
Co	Co	0.86503 0.36336 0.17658 1.13700
Co	Co	0.78931 0.49385 0.24170 1.13500
O 	O 	0.97810 0.17270 0.14900 -0.51000
O 	O 	0.84060 0.26580 0.11270 -0.51900
O 	O 	0.97740 0.29800 0.09290 -0.51000
O 	O 	0.76800 0.54030 0.33150 -0.55200
O 	O 	0.62800 0.63300 0.29550 -0.53700
O 	O 	0.76400 0.66190 0.27600 -0.58400
O 	O 	0.87100 0.35170 0.24190 -0.52900
O 	O 	0.73100 0.45020 0.20290 -0.51000
O 	O 	0.87480 0.48320 0.18270 -0.52600
O 	O 	0.07860 0.90010 0.98290 -0.26300
O 	O 	0.18340 0.95180 0.95950 -0.23200
O 	O 	0.53830 0.89280 0.46600 -0.31300
O 	O 	0.62710 0.95200 0.43020 -0.26500
N 	N 	0.94800 0.22150 0.18450 -0.17600
N 	N 	0.79070 0.33340 0.14120 -0.16400
N 	N 	0.95140 0.36620 0.11850 -0.15800
N 	N 	0.80730 0.46400 0.30680 -0.17500
N 	N 	0.64920 0.57540 0.26330 -0.16800
N 	N 	0.80720 0.61370 0.23970 -0.15300
B 	B 	0.94340 0.22780 0.10940 1.44800
B 	B 	0.71090 0.62960 0.30930 1.54800
C 	C 	0.97720 0.16690 0.21780 0.14800
H 	H 	0.01360 0.10400 0.21390 -0.00100
C 	C 	0.96050 0.19140 0.26010 -0.25000
C 	C 	0.99540 0.12560 0.29120 0.24800
H 	H 	0.02750 0.06500 0.28330 -0.07100
C 	C 	0.99060 0.13470 0.33480 -0.40400
C 	C 	0.93590 0.22910 0.34340 0.20800
H 	H 	0.92490 0.24210 0.37210 -0.06400
C 	C 	0.89990 0.29910 0.31430 -0.25000
C 	C 	0.90930 0.28670 0.27120 0.29500
C 	C 	0.84780 0.39130 0.32890 0.12300
H 	H 	0.84490 0.39530 0.35830 -0.00800
C 	C 	0.03530 0.06210 0.36820 0.84200
C 	C 	0.12660 0.05600 0.37120 -1.09900
H 	H 	0.15470 0.00720 0.39360 0.31400
H 	H 	0.16680 0.04150 0.34390 0.32100
H 	H 	0.11920 0.11420 0.37830 0.31600
C 	C 	0.05130 0.96830 0.36310 -1.14400
H 	H 	0.99240 0.96840 0.36090 0.36000
H 	H 	0.09500 0.94800 0.33710 0.34400
H 	H 	0.07720 0.92660 0.38780 0.33700
C 	C 	0.98410 0.07720 0.41280 -0.97400
H 	H 	0.92160 0.08230 0.41390 0.31100
H 	H 	0.01750 0.02540 0.43280 0.27300
H 	H 	0.97970 0.13360 0.42080 0.29900
C 	C 	0.70310 0.35850 0.14230 0.07500
H 	H 	0.68450 0.32860 0.12620 0.03200
C 	C 	0.62940 0.43250 0.16800 -0.18000
C 	C 	0.53930 0.45650 0.16040 0.11400
H 	H 	0.53110 0.42460 0.14110 -0.01500
C 	C 	0.45970 0.52740 0.18070 -0.27400
C 	C 	0.47910 0.56660 0.21000 0.12200
H 	H 	0.42880 0.61340 0.22490 -0.02500
C 	C 	0.57050 0.54030 0.21870 -0.18300
C 	C 	0.64680 0.47410 0.19530 0.27300
C 	C 	0.57750 0.58850 0.24980 0.09400
H 	H 	0.52120 0.63550 0.26130 0.02500
C 	C 	0.36150 0.55550 0.17040 0.68200
C 	C 	0.33980 0.47260 0.18210 -0.97500
H 	H 	0.34040 0.45350 0.21270 0.30900
H 	H 	0.27840 0.48890 0.17500 0.29000
H 	H 	0.38660 0.42230 0.16600 0.31400
C 	C 	0.36030 0.58370 0.12410 -0.99100
H 	H 	0.37420 0.63690 0.11630 0.29700
H 	H 	0.40710 0.53310 0.10820 0.30200
H 	H 	0.29890 0.59970 0.11710 0.28600
C 	C 	0.28800 0.63530 0.19690 -0.91200
H 	H 	0.28990 0.61520 0.22740 0.28000
H 	H 	0.30200 0.68840 0.18940 0.27900
H 	H 	0.22600 0.65200 0.19040 0.27200
C 	C 	0.98410 0.42500 0.10090 0.09000
H 	H 	0.01940 0.41540 0.07340 0.02600
C 	C 	0.97120 0.50540 0.12000 -0.17400
C 	C 	0.01860 0.55450 0.09680 0.11000
H 	H 	0.05910 0.53160 0.07170 -0.01800
C 	C 	0.01050 0.63400 0.10820 -0.27700
C 	C 	0.94960 0.66270 0.14730 0.12500
H 	H 	0.93940 0.71900 0.15590 -0.01900
C 	C 	0.90550 0.61420 0.17290 -0.18100
C 	C 	0.91620 0.53020 0.15980 0.25900
C 	C 	0.85250 0.64820 0.21180 0.08300
H 	H 	0.85090 0.70330 0.21760 0.03700
C 	C 	0.05440 0.69510 0.08210 0.59400
C 	C 	0.14460 0.63640 0.05500 -0.89100
H 	H 	0.13110 0.60510 0.03620 0.30000
H 	H 	0.17230 0.67560 0.03780 0.28700
H 	H 	0.18800 0.59090 0.07380 0.26600
C 	C 	0.98840 0.76580 0.04980 -0.81400
H 	H 	0.97440 0.73290 0.03200 0.26700
H 	H 	0.93070 0.80700 0.06570 0.25300
H 	H 	0.01910 0.80150 0.03170 0.26600
C 	C 	0.07880 0.74210 0.11070 -0.88100
H 	H 	0.10670 0.78080 0.09310 0.27100
H 	H 	0.02240 0.78010 0.12860 0.27500
H 	H 	0.12290 0.69590 0.12900 0.25900
C 	C 	0.98310 0.15790 0.07290 -0.54700
C 	C 	0.06280 0.14930 0.04400 0.23900
H 	H 	0.09020 0.18900 0.04430 -0.04900
C 	C 	0.10290 0.08450 0.01510 -0.21100
H 	H 	0.15710 0.07990 0.99590 0.10000
C 	C 	0.06350 0.02690 0.01430 0.02100
C 	C 	0.99050 0.02870 0.04260 -0.16900
H 	H 	0.96630 0.98610 0.04270 0.06900
C 	C 	0.94940 0.09390 0.07210 0.24700
H 	H 	0.89740 0.09470 0.09200 -0.06100
C 	C 	0.10750 0.95470 0.98420 0.24600
C 	C 	0.67220 0.70180 0.34510 -0.62800
C 	C 	0.61550 0.69250 0.38260 0.28100
H 	H 	0.59550 0.64530 0.38710 -0.12100
C 	C 	0.58820 0.75210 0.41340 -0.25600
H 	H 	0.54950 0.74570 0.43890 -0.00400
C 	C 	0.61750 0.82100 0.40670 0.05300
C 	C 	0.67410 0.83030 0.36930 -0.25200
H 	H 	0.69420 0.87740 0.36480 0.12300
C 	C 	0.70150 0.77070 0.33850 0.30400
H 	H 	0.74020 0.77710 0.31290 -0.06200
C 	C 	0.59000 0.90200 0.43350 0.26300
Co	Co	0.24762 0.61267 0.35290 1.14000
Co	Co	0.09779 0.74732 0.30409 1.13000
O 	O 	0.38850 0.42000 0.37590 -0.48300
O 	O 	0.32350 0.51510 0.43620 -0.47100
O 	O 	0.43760 0.54020 0.37740 -0.56700
O 	O 	0.97120 0.79570 0.23890 -0.53100
O 	O 	0.90300 0.89110 0.29930 -0.51200
O 	O 	0.01670 0.91430 0.24150 -0.57100
O 	O 	0.17400 0.60250 0.31010 -0.52200
O 	O 	0.11150 0.70770 0.37020 -0.54100
O 	O 	0.23050 0.72640 0.30800 -0.52500
O 	O 	0.72210 0.12450 0.51000 -0.25100
O 	O 	0.78230 0.22070 0.49690 -0.32000
O 	O 	0.54430 0.13400 0.17770 -0.24100
O 	O 	0.62290 0.20930 0.14160 -0.21900
N 	N 	0.31710 0.47320 0.35070 -0.17300
N 	N 	0.24330 0.57960 0.41940 -0.17600
N 	N 	0.37570 0.61070 0.35350 -0.16000
N 	N 	0.03770 0.72170 0.25940 -0.16400
N 	N 	0.95950 0.83250 0.32900 -0.16200
N 	N 	0.09540 0.86170 0.26130 -0.16100
B 	B 	0.40900 0.47490 0.40090 1.37900
B 	B 	0.94230 0.88680 0.25240 1.54900
C 	C 	0.30330 0.41680 0.33360 0.08100
H 	H 	0.33900 0.35320 0.34060 0.02500
C 	C 	0.23470 0.44520 0.30350 -0.19000
C 	C 	0.23710 0.37170 0.28600 0.11100
H 	H 	0.27970 0.31070 0.29380 -0.03300
C 	C 	0.17420 0.38930 0.25600 -0.30400
C 	C 	0.11770 0.47900 0.24560 0.12900
H 	H 	0.07820 0.49300 0.22490 -0.03500
C 	C 	0.11390 0.55440 0.26420 -0.19200
C 	C 	0.17500 0.53640 0.29310 0.26400
C 	C 	0.05220 0.64830 0.24720 0.07600
H 	H 	0.02060 0.65280 0.22470 0.02100
C 	C 	0.17780 0.31120 0.23680 0.69900
C 	C 	0.26680 0.27490 0.20920 -1.05300
H 	H 	0.31720 0.25400 0.22620 0.32900
H 	H 	0.27240 0.22330 0.19600 0.32000
H 	H 	0.27030 0.32290 0.18690 0.32800
C 	C 	0.16710 0.23570 0.27490 -0.85200
H 	H 	0.10660 0.26300 0.29250 0.25700
H 	H 	0.17180 0.18340 0.26260 0.24600
H 	H 	0.21640 0.21500 0.29260 0.24900
C 	C 	0.10350 0.34190 0.20920 -0.97800
H 	H 	0.04250 0.36680 0.22670 0.28900
H 	H 	0.10860 0.38930 0.18690 0.29800
H 	H 	0.11070 0.28970 0.19600 0.28900
C 	C 	0.17350 0.60700 0.44900 0.10300
H 	H 	0.18430 0.58150 0.47740 0.01700
C 	C 	0.07720 0.67500 0.44280 -0.29500
C 	C 	0.01750 0.67920 0.48050 0.29100
H 	H 	0.04060 0.63940 0.50500 -0.09500
C 	C 	0.92540 0.73970 0.48330 -0.55300
C 	C 	0.89710 0.78880 0.44310 0.22900
H 	H 	0.83360 0.82980 0.44270 -0.07800
C 	C 	0.95880 0.77970 0.40370 -0.24300
C 	C 	0.05360 0.71780 0.40480 0.33200
C 	C 	0.91930 0.83570 0.36660 0.10100
H 	H 	0.85640 0.87950 0.37120 0.01700
C 	C 	0.85130 0.76000 0.52140 1.26600
C 	C 	0.82300 0.85500 0.52760 -1.51900
H 	H 	0.80230 0.89470 0.50150 0.46800
H 	H 	0.77170 0.87350 0.55130 0.45000
H 	H 	0.87530 0.86160 0.53430 0.46100
C 	C 	0.76770 0.75400 0.51510 -1.44600
H 	H 	0.74630 0.79160 0.48860 0.42100
H 	H 	0.78210 0.69070 0.51320 0.32400
H 	H 	0.71890 0.77750 0.53920 0.39300
C 	C 	0.88080 0.70500 0.56070 -1.52400
H 	H 	0.90040 0.64020 0.55750 0.39100
H 	H 	0.93290 0.71200 0.56710 0.46100
H 	H 	0.82920 0.72400 0.58410 0.42600
C 	C 	0.40760 0.66710 0.33740 0.08900
H 	H 	0.46480 0.65670 0.34510 0.03300
C 	C 	0.36470 0.74850 0.30730 -0.19600
C 	C 	0.40940 0.80790 0.29150 0.18100
H 	H 	0.46340 0.79480 0.30310 -0.04100
C 	C 	0.38310 0.87730 0.26280 -0.35200
C 	C 	0.29940 0.90060 0.24740 0.16100
H 	H 	0.27910 0.94990 0.22570 -0.04900
C 	C 	0.24800 0.85420 0.26300 -0.21300
C 	C 	0.27830 0.77610 0.29310 0.24700
C 	C 	0.15710 0.88920 0.24780 0.07300
H 	H 	0.14420 0.93780 0.22540 0.02800
C 	C 	0.44460 0.92780 0.24310 0.75300
C 	C 	0.54320 0.86070 0.22790 -1.02600
H 	H 	0.56720 0.81250 0.25100 0.33200
H 	H 	0.54340 0.83320 0.20340 0.31400
H 	H 	0.58260 0.89310 0.21940 0.31500
C 	C 	0.44800 0.97230 0.27980 -0.99800
H 	H 	0.47050 0.92550 0.30360 0.31000
H 	H 	0.49000 0.00170 0.27020 0.30600
H 	H 	0.38570 0.01840 0.28920 0.29300
C 	C 	0.41000 0.00060 0.20690 -1.05300
H 	H 	0.34650 0.04460 0.21600 0.31100
H 	H 	0.45010 0.03220 0.19850 0.33800
H 	H 	0.41090 0.97230 0.18250 0.31900
C 	C 	0.49440 0.39730 0.42880 -0.53600
C 	C 	0.57480 0.40950 0.42320 0.21700
H 	H 	0.57900 0.46030 0.40510 -0.07400
C 	C 	0.64910 0.34730 0.44410 -0.28100
H 	H 	0.70410 0.35560 0.44020 0.05800
C 	C 	0.64300 0.27290 0.47050 0.00600
C 	C 	0.56250 0.26070 0.47620 -0.23600
H 	H 	0.55830 0.20990 0.49430 0.09900
C 	C 	0.48820 0.32290 0.45530 0.25100
H 	H 	0.43330 0.31460 0.45920 -0.07000
C 	C 	0.72250 0.19850 0.49080 0.23100
C 	C 	0.85830 0.95800 0.22760 -0.65400
C 	C 	0.77470 0.94700 0.23530 0.30300
H 	H 	0.77210 0.89630 0.25420 -0.07300
C 	C 	0.69650 0.00750 0.21640 -0.23100
H 	H 	0.64220 0.99770 0.22200 0.08800
C 	C 	0.69910 0.08280 0.18900 0.09600
C 	C 	0.78040 0.09500 0.18090 -0.26700
H 	H 	0.78330 0.14490 0.16150 0.14000
C 	C 	0.85680 0.03530 0.20070 0.35500
H 	H 	0.90980 0.04720 0.19570 -0.06800
C 	C 	0.61620 0.14500 0.16830 0.23400
Co	Co	0.65132 0.26364 0.78414 1.14400
Co	Co	0.78688 0.11625 0.73177 1.15200
O 	O 	0.48070 0.34590 0.84870 -0.57800
O 	O 	0.50890 0.45650 0.79220 -0.49100
O 	O 	0.60270 0.39000 0.85120 -0.51400
O 	O 	0.85840 0.92960 0.70200 -0.56500
O 	O 	0.88830 0.04280 0.64720 -0.46500
O 	O 	0.98020 0.97110 0.70610 -0.59200
O 	O 	0.67200 0.13320 0.77830 -0.51700
O 	O 	0.69300 0.25380 0.71780 -0.69600
O 	O 	0.79760 0.18720 0.77640 -0.52200
O 	O 	0.17620 0.75200 0.94530 -0.21800
O 	O 	0.26210 0.82090 0.91040 -0.23700
O 	O 	0.17880 0.62160 0.55490 -0.27300
O 	O 	0.27510 0.68330 0.54940 -0.35100
N 	N 	0.53460 0.26810 0.82830 -0.15400
N 	N 	0.56450 0.39920 0.76190 -0.28500
N 	N 	0.67740 0.32420 0.82840 -0.16700
N 	N 	0.78730 0.99200 0.72840 -0.16000
N 	N 	0.82160 0.11970 0.66800 -0.25400
N 	N 	0.92610 0.04830 0.73110 -0.16800
B 	B 	0.50980 0.41660 0.83860 1.50200
B 	B 	0.92950 0.95730 0.68030 1.56600
C 	C 	0.50940 0.20630 0.84040 0.06400
H 	H 	0.45860 0.21900 0.86270 0.03200
C 	C 	0.54780 0.11430 0.82480 -0.19100
C 	C 	0.49720 0.06150 0.84090 0.14000
H 	H 	0.44510 0.08400 0.86230 -0.04200
C 	C 	0.52170 0.97710 0.82640 -0.33400
C 	C 	0.60080 0.94890 0.79340 0.13400
H 	H 	0.62120 0.89200 0.78260 -0.01900
C 	C 	0.64710 0.00110 0.77740 -0.18000
C 	C 	0.62560 0.08170 0.79360 0.24400
C 	C 	0.73110 0.95700 0.74600 0.07500
H 	H 	0.74380 0.89890 0.73860 0.04600
C 	C 	0.47330 0.91730 0.84310 0.75700
C 	C 	0.40020 0.95460 0.88280 -0.97600
H 	H 	0.35640 0.01780 0.87530 0.28800
H 	H 	0.36660 0.91670 0.89230 0.31300
H 	H 	0.43180 0.95280 0.90590 0.29800
C 	C 	0.41820 0.91820 0.81060 -1.01000
H 	H 	0.37490 0.98130 0.80250 0.29700
H 	H 	0.46060 0.89170 0.78520 0.31000
H 	H 	0.38340 0.88210 0.82290 0.30700
C 	C 	0.53900 0.82130 0.85530 -1.07600
H 	H 	0.50450 0.78450 0.86610 0.33000
H 	H 	0.58360 0.79600 0.83030 0.34200
H 	H 	0.57220 0.82030 0.87760 0.33000
C 	C 	0.56110 0.43880 0.72520 0.64000
H 	H 	0.52020 0.50210 0.72350 -0.17600
C 	C 	0.60940 0.40440 0.68470 -1.39400
C 	C 	0.59820 0.46250 0.64890 2.48000
H 	H 	0.55860 0.52510 0.65230 -1.00300
C 	C 	0.63830 0.44130 0.60730 -4.17100
C 	C 	0.70360 0.34010 0.60590 1.79500
H 	H 	0.73350 0.31790 0.57900 -0.72200
C 	C 	0.72080 0.27920 0.64240 -1.07800
C 	C 	0.67660 0.30780 0.68310 0.96400
C 	C 	0.79530 0.18570 0.63750 0.44500
H 	H 	0.82680 0.17270 0.60950 -0.10400
C 	C 	0.62420 0.50800 0.56740 10.70900
C 	C 	0.66300 0.47300 0.52810 -11.24500
H 	H 	0.73070 0.44610 0.52550 3.12600
H 	H 	0.64370 0.42570 0.52620 3.15800
H 	H 	0.64180 0.52210 0.50500 3.13500
C 	C 	0.64400 0.58200 0.56640 -10.82800
H 	H 	0.61790 0.60920 0.59360 3.03700
H 	H 	0.71160 0.56160 0.56190 2.94700
H 	H 	0.61730 0.62870 0.54310 2.98200
C 	C 	0.52800 0.54500 0.56900 -10.74400
H 	H 	0.49760 0.57110 0.59620 3.06500
H 	H 	0.50860 0.59360 0.54540 2.96500
H 	H 	0.51050 0.49710 0.56660 3.06700
C 	C 	0.75240 0.30920 0.84020 0.09600
H 	H 	0.74800 0.34350 0.86190 0.01900
C 	C 	0.84570 0.24410 0.82370 -0.23000
C 	C 	0.92360 0.23990 0.83900 0.20700
H 	H 	0.91090 0.27950 0.85980 -0.05300
C 	C 	0.01300 0.18530 0.82680 -0.37900
C 	C 	0.02910 0.12630 0.79820 0.15000
H 	H 	0.09130 0.08380 0.79030 -0.05100
C 	C 	0.95860 0.12460 0.77990 -0.19700
C 	C 	0.86230 0.18800 0.79240 0.28700
C 	C 	0.98800 0.05600 0.75170 0.11800
H 	H 	0.05170 0.01450 0.74700 -0.00200
C 	C 	0.09520 0.17940 0.84720 0.82100
C 	C 	0.06020 0.25900 0.87380 -1.06600
H 	H 	0.03670 0.31680 0.85540 0.31800
H 	H 	0.01030 0.25680 0.89620 0.32100
H 	H 	0.11120 0.25470 0.88690 0.31800
C 	C 	0.17030 0.18840 0.81170 -1.05300
H 	H 	0.14410 0.24770 0.79470 0.32100
H 	H 	0.22180 0.18390 0.82440 0.30900
H 	H 	0.19290 0.13930 0.79330 0.30800
C 	C 	0.13090 0.09190 0.87350 -1.17900
H 	H 	0.15290 0.04200 0.85560 0.35900
H 	H 	0.18240 0.08640 0.88660 0.35500
H 	H 	0.08140 0.08860 0.89590 0.36000
C 	C 	0.44070 0.50430 0.86420 -0.60100
C 	C 	0.45300 0.58580 0.85490 0.29500
H 	H 	0.50450 0.58650 0.83510 -0.06800
C 	C 	0.39160 0.66520 0.87420 -0.24300
H 	H 	0.40230 0.71840 0.86890 0.09500
C 	C 	0.31350 0.66300 0.90160 0.10700
C 	C 	0.29550 0.59020 0.90830 -0.26000
H 	H 	0.23910 0.59370 0.92510 0.13900
C 	C 	0.35800 0.50920 0.89110 0.30100
H 	H 	0.34550 0.45700 0.89740 -0.05600
C 	C 	0.24750 0.75140 0.91990 0.22300
C 	C 	0.00370 0.88270 0.64750 -0.66600
C 	C 	0.98810 0.80860 0.64360 0.36200
H 	H 	0.93320 0.80410 0.65820 -0.09300
C 	C 	0.05270 0.74100 0.61840 -0.29500
H 	H 	0.04200 0.69030 0.61570 0.10300
C 	C 	0.13290 0.74750 0.59700 0.09900
C 	C 	0.14850 0.82170 0.60090 -0.28400
H 	H 	0.20330 0.82610 0.58630 0.10200
C 	C 	0.08390 0.88920 0.62620 0.35900
H 	H 	0.09450 0.93990 0.62880 -0.10100
C 	C 	0.19570 0.68500 0.56200 0.23000
