data_crystal

_cell_length_a 10.66650
_cell_length_b 11.93250
_cell_length_c 13.78320
_cell_angle_alpha 95.75200
_cell_angle_beta  105.00300
_cell_angle_gamma 90.67700

_symmetry_space_group_name_	'P 1'
_symmetry_space_group_name_H-M	'P 1'

loop_
_symmetry_equiv_pos_as_xyz
  x,y,z

loop_
_atom_site_label
_atom_site_type_symbol
_atom_site_fract_x
_atom_site_fract_y
_atom_site_fract_z
_atom_site_charge
N 	N 	0.82250 0.06600 0.96260 -0.20700
H 	H 	0.83470 0.13860 0.95110 0.10000
N 	N 	0.04210 0.07020 0.14300 -0.25500
H 	H 	0.06660 0.14330 0.14220 -0.00800
C 	C 	0.93730 0.07230 0.19510 -0.00900
H 	H 	0.97020 0.10940 0.26310 0.03400
H 	H 	0.91070 0.99550 0.20010 0.00100
C 	C 	0.15890 0.01530 0.20010 -0.24800
H 	H 	0.13340 0.94450 0.22000 0.08000
H 	H 	0.20190 0.06370 0.26070 0.06000
C 	C 	0.75060 0.00560 0.86610 -0.11200
H 	H 	0.67940 0.05010 0.83360 0.03900
H 	H 	0.71480 0.93450 0.87750 0.03200
C 	C 	0.82190 0.13250 0.14090 -0.17400
H 	H 	0.85050 0.20630 0.12940 0.07100
H 	H 	0.76270 0.14340 0.18360 0.06400
C 	C 	0.74950 0.06920 0.03990 -0.09700
H 	H 	0.72980 0.99250 0.05050 0.00400
H 	H 	0.66770 0.10470 0.01500 0.02100
N 	N 	0.17750 0.93400 0.03740 -0.30900
H 	H 	0.16530 0.86140 0.04890 0.07300
N 	N 	0.95790 0.92980 0.85700 -0.21300
H 	H 	0.93340 0.85670 0.85780 0.03300
C 	C 	0.06270 0.92770 0.80490 0.02200
H 	H 	0.02980 0.89060 0.73690 -0.01300
H 	H 	0.08930 0.00450 0.79990 -0.05100
C 	C 	0.84110 0.98470 0.79990 -0.06900
H 	H 	0.86660 0.05550 0.78000 0.03400
H 	H 	0.79810 0.93630 0.73930 0.02600
C 	C 	0.24940 0.99440 0.13390 0.06800
H 	H 	0.32060 0.94990 0.16640 -0.01900
H 	H 	0.28520 0.06550 0.12250 -0.06400
C 	C 	0.17810 0.86750 0.85910 -0.26700
H 	H 	0.14950 0.79370 0.87060 0.09300
H 	H 	0.23730 0.85660 0.81640 0.09600
C 	C 	0.25050 0.93080 0.96010 0.10000
H 	H 	0.27020 0.00750 0.94950 -0.04400
H 	H 	0.33230 0.89530 0.98500 0.01400
Cu	Cu	-0.00000 0.00000 -0.00000 0.75700
N 	N 	0.89390 0.35640 0.48280 -0.25900
H 	H 	0.90670 0.33300 0.54530 0.08500
N 	N 	0.86670 0.59470 0.54690 -0.26200
H 	H 	0.87790 0.58650 0.61350 0.08400
C 	C 	0.09740 0.28670 0.45900 -0.16700
H 	H 	0.12710 0.26850 0.52810 0.02100
H 	H 	0.13780 0.23680 0.41700 0.04300
C 	C 	0.72680 0.56860 0.49650 -0.01900
H 	H 	0.70910 0.58330 0.42630 -0.00300
H 	H 	0.67440 0.61770 0.52890 0.01000
C 	C 	0.68890 0.44690 0.50130 -0.17400
H 	H 	0.59520 0.43710 0.47690 0.05600
H 	H 	0.71300 0.43160 0.57140 0.04600
C 	C 	0.75070 0.36010 0.44040 -0.02500
H 	H 	0.71140 0.28620 0.43940 0.01500
H 	H 	0.73290 0.37840 0.37120 0.00400
C 	C 	0.95230 0.27170 0.42300 -0.00600
H 	H 	0.92350 0.28190 0.35180 0.02100
H 	H 	0.92530 0.19620 0.43170 0.02500
N 	N 	0.10610 0.64360 0.51720 -0.24900
H 	H 	0.09330 0.66700 0.45470 0.06200
N 	N 	0.13330 0.40530 0.45310 -0.25400
H 	H 	0.12210 0.41350 0.38650 0.06700
C 	C 	0.90260 0.71330 0.54100 0.02800
H 	H 	0.87290 0.73150 0.47190 -0.00600
H 	H 	0.86220 0.76320 0.58300 0.01100
C 	C 	0.27320 0.43140 0.50350 -0.02500
H 	H 	0.29090 0.41670 0.57370 -0.00700
H 	H 	0.32560 0.38230 0.47110 0.01000
C 	C 	0.31110 0.55310 0.49870 -0.17400
H 	H 	0.40480 0.56290 0.52310 0.05700
H 	H 	0.28700 0.56840 0.42860 0.04600
C 	C 	0.24930 0.63990 0.55960 -0.03300
H 	H 	0.28860 0.71380 0.56060 0.01900
H 	H 	0.26710 0.62160 0.62880 0.00100
C 	C 	0.04770 0.72830 0.57700 -0.20400
H 	H 	0.07650 0.71810 0.64820 0.05200
H 	H 	0.07470 0.80380 0.56830 0.06500
Cu	Cu	0.00000 0.50000 0.50000 0.78900
N 	N 	0.41700 0.36180 0.91260 -0.23800
H 	H 	0.33010 0.36530 0.90630 0.09300
N 	N 	0.50990 0.55990 0.87200 -0.21300
H 	H 	0.59400 0.55640 0.86890 0.07700
C 	C 	0.45610 0.25130 0.94760 0.03300
H 	H 	0.54590 0.24070 0.94690 0.03200
H 	H 	0.40330 0.19240 0.90060 0.00300
C 	C 	0.47250 0.67930 0.86430 -0.13300
H 	H 	0.38310 0.68550 0.86750 0.06600
H 	H 	0.47760 0.70030 0.79920 0.04600
C 	C 	0.43190 0.48620 0.78650 -0.07600
H 	H 	0.46450 0.49290 0.72780 0.03200
H 	H 	0.34270 0.50960 0.77090 0.01200
C 	C 	0.44220 0.23930 0.05310 -0.20700
H 	H 	0.35230 0.24990 0.05330 0.00200
H 	H 	0.46250 0.16300 0.06860 0.05200
C 	C 	0.43570 0.36640 0.80890 -0.06000
H 	H 	0.51870 0.33590 0.80580 0.00300
H 	H 	0.36750 0.32170 0.75940 0.01300
N 	N 	0.58300 0.63820 0.08740 -0.22500
H 	H 	0.66990 0.63470 0.09370 0.06500
N 	N 	0.49010 0.44010 0.12800 -0.24300
H 	H 	0.40600 0.44360 0.13110 0.07300
C 	C 	0.54390 0.74870 0.05240 -0.19500
H 	H 	0.45410 0.75930 0.05310 0.06400
H 	H 	0.59670 0.80760 0.09940 0.05700
C 	C 	0.52750 0.32070 0.13570 -0.03500
H 	H 	0.61690 0.31450 0.13250 0.02300
H 	H 	0.52240 0.29970 0.20080 0.01500
C 	C 	0.56810 0.51380 0.21350 -0.07000
H 	H 	0.53550 0.50710 0.27220 0.03200
H 	H 	0.65730 0.49040 0.22910 0.01200
C 	C 	0.55780 0.76070 0.94690 0.03800
H 	H 	0.64770 0.75010 0.94670 -0.03600
H 	H 	0.53750 0.83700 0.93140 0.00900
C 	C 	0.56430 0.63360 0.19110 -0.07800
H 	H 	0.48130 0.66410 0.19420 0.00800
H 	H 	0.63250 0.67830 0.24060 0.02500
Cu	Cu	0.50000 0.50000 -0.00000 0.84400
V 	V 	0.06059 0.29266 0.93458 1.70600
V 	V 	0.13729 0.39299 0.15476 1.71800
V 	V 	0.79866 0.35110 0.79013 1.73900
V 	V 	0.86385 0.44604 0.01392 1.77900
V 	V 	0.94637 0.54979 0.23353 1.75000
O 	O 	0.18700 0.40650 0.02630 -0.94300
O 	O 	0.90350 0.24220 0.85310 -0.76800
O 	O 	0.12740 0.32570 0.83040 -0.80500
O 	O 	0.74130 0.49820 0.78080 -0.79500
O 	O 	0.81150 0.45920 0.12070 -0.76000
O 	O 	0.03530 0.41560 0.24180 -0.82900
O 	O 	0.74640 0.36950 0.92450 -0.70900
O 	O 	0.90260 0.36710 0.70540 -0.79100
O 	O 	0.98080 0.32660 0.04770 -0.91200
O 	O 	0.96750 0.45680 0.90360 -1.00500
V 	V 	0.93941 0.70734 0.06542 1.71400
V 	V 	0.86271 0.60701 0.84524 1.73400
V 	V 	0.20134 0.64890 0.20987 1.73900
V 	V 	0.13615 0.55396 0.98608 1.81900
V 	V 	0.05363 0.45021 0.76647 1.69900
O 	O 	0.81300 0.59350 0.97370 -0.84300
O 	O 	0.09650 0.75780 0.14690 -0.82900
O 	O 	0.87260 0.67430 0.16960 -0.77800
O 	O 	0.25870 0.50180 0.21920 -0.79600
O 	O 	0.18850 0.54080 0.87930 -0.75800
O 	O 	0.96470 0.58440 0.75820 -0.76400
O 	O 	0.25360 0.63050 0.07550 -0.76700
O 	O 	0.09740 0.63290 0.29460 -0.83000
O 	O 	0.01920 0.67340 0.95230 -0.93400
O 	O 	0.03250 0.54320 0.09640 -1.11400
