data_crystal

_cell_length_a 10.94100
_cell_length_b 33.97300
_cell_length_c 14.01400
_cell_angle_alpha 90.00000
_cell_angle_beta  98.89000
_cell_angle_gamma 90.00000

_symmetry_space_group_name_	'P 1'
_symmetry_space_group_name_H-M	'P 1'

loop_
_symmetry_equiv_pos_as_xyz
  x,y,z

loop_
_atom_site_label
_atom_site_type_symbol
_atom_site_fract_x
_atom_site_fract_y
_atom_site_fract_z
_atom_site_charge
Cl	Cl	0.67800 0.45000 0.28600 -0.18900
O 	O 	0.35900 0.41480 0.69300 -0.37600
O 	O 	0.28600 0.35580 0.66300 -0.35700
O 	O 	0.58600 0.37100 0.60500 -0.36600
O 	O 	0.55500 0.31040 0.64700 -0.36500
O 	O 	0.78300 0.46900 0.22800 -0.05500
O 	O 	0.74000 0.43400 0.37700 -0.12300
O 	O 	0.62400 0.48600 0.31300 -0.06200
O 	O 	0.62000 0.41900 0.22200 -0.02200
C 	C 	0.27400 0.39280 0.66400 0.35900
C 	C 	0.14500 0.41040 0.63300 -0.19700
C 	C 	0.04800 0.38900 0.59600 0.12100
H 	H 	0.05960 0.36190 0.58120 0.00300
C 	C 	0.92900 0.40400 0.57900 -0.21600
H 	H 	0.85930 0.38810 0.55860 0.13300
C 	C 	0.91500 0.44400 0.59100 0.29700
C 	C 	0.00900 0.46600 0.62700 -0.36800
H 	H 	0.99810 0.49350 0.63690 0.19500
C 	C 	0.12600 0.44830 0.65100 0.18500
H 	H 	0.19340 0.46380 0.68100 0.00100
N 	N 	0.70500 0.28450 0.22600 -0.15700
C 	C 	0.69900 0.45100 0.61300 0.15300
H 	H 	0.71200 0.43030 0.65850 0.01800
C 	C 	0.58200 0.46600 0.59100 0.04000
H 	H 	0.51410 0.45440 0.61530 0.06200
C 	C 	0.56500 0.49800 0.53200 0.12900
C 	C 	0.66700 0.51600 0.50500 -0.14400
H 	H 	0.65970 0.53990 0.47200 0.10500
C 	C 	0.78000 0.49800 0.52700 0.07500
H 	H 	0.85030 0.50930 0.50640 0.02100
N 	N 	0.78800 0.44500 0.52000 -0.10800
C 	C 	0.70600 0.44100 0.58400 -0.04400
C 	C 	0.59000 0.46200 0.56100 -0.11600
C 	C 	0.55800 0.47900 0.48100 -0.06500
C 	C 	0.63700 0.47400 0.41100 0.09900
C 	C 	0.75100 0.45800 0.43400 0.17500
C 	C 	0.58600 0.33530 0.59100 0.33400
C 	C 	0.62300 0.32160 0.49500 -0.12300
C 	C 	0.65300 0.34830 0.43000 0.08300
H 	H 	0.65490 0.37550 0.44570 0.04400
C 	C 	0.67900 0.33630 0.34100 -0.17400
H 	H 	0.69840 0.35520 0.29510 0.12500
C 	C 	0.67800 0.29810 0.31900 0.16100
C 	C 	0.64800 0.26930 0.38400 -0.15900
H 	H 	0.64700 0.24210 0.36810 0.09500
C 	C 	0.62000 0.28170 0.47300 0.06600
H 	H 	0.59900 0.26300 0.51860 0.02600
C 	C 	0.77800 0.25300 0.22000 0.08600
H 	H 	0.81710 0.24030 0.27770 0.02900
C 	C 	0.79500 0.23880 0.13300 -0.12200
H 	H 	0.84380 0.21600 0.13000 0.09700
C 	C 	0.74200 0.25690 0.04800 0.06500
C 	C 	0.68500 0.29300 0.05800 -0.12300
H 	H 	0.65950 0.30920 0.00320 0.08600
C 	C 	0.66500 0.30500 0.14800 0.09000
H 	H 	0.62160 0.32860 0.15380 0.01900
N 	N 	0.79300 0.46410 0.57600 -0.13300
Cl	Cl	0.17800 0.95000 0.28600 -0.19000
O 	O 	0.85900 0.91480 0.69300 -0.35900
O 	O 	0.78600 0.85580 0.66300 -0.34600
O 	O 	0.08600 0.87100 0.60500 -0.37400
O 	O 	0.05500 0.81040 0.64700 -0.37800
O 	O 	0.28300 0.96900 0.22800 -0.05900
O 	O 	0.24000 0.93400 0.37700 -0.12700
O 	O 	0.12400 0.98600 0.31300 -0.07200
O 	O 	0.12000 0.91900 0.22200 -0.03500
C 	C 	0.77400 0.89280 0.66400 0.34700
C 	C 	0.64500 0.91040 0.63300 -0.16500
C 	C 	0.54800 0.88900 0.59600 0.12800
H 	H 	0.55960 0.86190 0.58120 0.00900
C 	C 	0.42900 0.90400 0.57900 -0.21400
H 	H 	0.35930 0.88810 0.55860 0.12800
C 	C 	0.41500 0.94400 0.59100 0.22000
C 	C 	0.50900 0.96600 0.62700 -0.22700
H 	H 	0.49810 0.99350 0.63690 0.12900
C 	C 	0.62600 0.94830 0.65100 0.11700
H 	H 	0.69340 0.96380 0.68100 0.02700
N 	N 	0.20500 0.78450 0.22600 -0.15800
C 	C 	0.19900 0.95100 0.61300 0.15300
H 	H 	0.21200 0.93030 0.65850 0.02000
C 	C 	0.08200 0.96600 0.59100 0.04900
H 	H 	0.01410 0.95440 0.61530 0.04300
C 	C 	0.06500 0.99800 0.53200 0.08100
C 	C 	0.16700 0.01600 0.50500 -0.11300
H 	H 	0.15970 0.03990 0.47200 0.08700
C 	C 	0.28000 0.99800 0.52700 0.05600
H 	H 	0.35030 0.00930 0.50640 0.02400
N 	N 	0.28800 0.94500 0.52000 -0.10200
C 	C 	0.20600 0.94100 0.58400 -0.05600
C 	C 	0.09000 0.96200 0.56100 -0.10600
C 	C 	0.05800 0.97900 0.48100 -0.07700
C 	C 	0.13700 0.97400 0.41100 0.09400
C 	C 	0.25100 0.95800 0.43400 0.17400
C 	C 	0.08600 0.83530 0.59100 0.33400
C 	C 	0.12300 0.82160 0.49500 -0.13000
C 	C 	0.15300 0.84830 0.43000 0.08000
H 	H 	0.15490 0.87550 0.44570 0.04200
C 	C 	0.17900 0.83630 0.34100 -0.17800
H 	H 	0.19840 0.85520 0.29510 0.12300
C 	C 	0.17800 0.79810 0.31900 0.15500
C 	C 	0.14800 0.76930 0.38400 -0.16300
H 	H 	0.14700 0.74210 0.36810 0.09100
C 	C 	0.12000 0.78170 0.47300 0.06300
H 	H 	0.09900 0.76300 0.51860 0.02100
C 	C 	0.27800 0.75300 0.22000 0.08000
H 	H 	0.31710 0.74030 0.27770 0.02800
C 	C 	0.29500 0.73880 0.13300 -0.12300
H 	H 	0.34380 0.71600 0.13000 0.09100
C 	C 	0.24200 0.75690 0.04800 0.06000
C 	C 	0.18500 0.79300 0.05800 -0.12700
H 	H 	0.15950 0.80920 0.00320 0.08100
C 	C 	0.16500 0.80500 0.14800 0.08400
H 	H 	0.12160 0.82860 0.15380 0.01200
N 	N 	0.29300 0.96410 0.57600 -0.12000
Cl	Cl	0.32200 0.45000 0.21400 -0.19100
O 	O 	0.64100 0.41480 0.80700 -0.37000
O 	O 	0.71400 0.35580 0.83700 -0.34900
O 	O 	0.41400 0.37100 0.89500 -0.36600
O 	O 	0.44500 0.31040 0.85300 -0.36500
O 	O 	0.21700 0.46900 0.27200 -0.06300
O 	O 	0.26000 0.43400 0.12300 -0.12600
O 	O 	0.37600 0.48600 0.18700 -0.06200
O 	O 	0.38000 0.41900 0.27800 -0.02400
C 	C 	0.72600 0.39280 0.83600 0.34200
C 	C 	0.85500 0.41040 0.86700 -0.14000
C 	C 	0.95200 0.38900 0.90400 0.14000
H 	H 	0.94040 0.36190 0.91880 0.01300
C 	C 	0.07100 0.40400 0.92100 -0.21600
H 	H 	0.14070 0.38810 0.94140 0.12400
C 	C 	0.08500 0.44400 0.90900 0.14700
C 	C 	0.99100 0.46600 0.87300 -0.09100
H 	H 	0.00190 0.49350 0.86310 0.06400
C 	C 	0.87400 0.44830 0.84900 0.05400
H 	H 	0.80660 0.46380 0.81900 0.04900
N 	N 	0.29500 0.28450 0.27400 -0.15700
C 	C 	0.30100 0.45100 0.88700 0.15100
H 	H 	0.28800 0.43030 0.84150 0.02000
C 	C 	0.41800 0.46600 0.90900 0.04100
H 	H 	0.48590 0.45440 0.88470 0.06200
C 	C 	0.43500 0.49800 0.96800 0.12700
C 	C 	0.33300 0.51600 0.99500 -0.14300
H 	H 	0.34030 0.53990 0.02800 0.10500
C 	C 	0.22000 0.49800 0.97300 0.07100
H 	H 	0.14970 0.50930 0.99360 0.01600
N 	N 	0.21200 0.44500 0.98000 -0.09700
C 	C 	0.29400 0.44100 0.91600 -0.04700
C 	C 	0.41000 0.46200 0.93900 -0.11400
C 	C 	0.44200 0.47900 0.01900 -0.06500
C 	C 	0.36300 0.47400 0.08900 0.10200
C 	C 	0.24900 0.45800 0.06600 0.16600
C 	C 	0.41400 0.33530 0.90900 0.33200
C 	C 	0.37700 0.32160 0.00500 -0.12300
C 	C 	0.34700 0.34830 0.07000 0.07900
H 	H 	0.34510 0.37550 0.05430 0.04500
C 	C 	0.32100 0.33630 0.15900 -0.17400
H 	H 	0.30160 0.35520 0.20490 0.12100
C 	C 	0.32200 0.29810 0.18100 0.15600
C 	C 	0.35200 0.26930 0.11600 -0.15900
H 	H 	0.35300 0.24210 0.13190 0.09500
C 	C 	0.38000 0.28170 0.02700 0.06400
H 	H 	0.40100 0.26300 0.98140 0.02600
C 	C 	0.22200 0.25300 0.28000 0.07700
H 	H 	0.18290 0.24030 0.22230 0.02600
C 	C 	0.20500 0.23880 0.36700 -0.12100
H 	H 	0.15620 0.21600 0.37000 0.08400
C 	C 	0.25800 0.25690 0.45200 0.05800
C 	C 	0.31500 0.29300 0.44200 -0.12300
H 	H 	0.34050 0.30920 0.49680 0.08400
C 	C 	0.33500 0.30500 0.35200 0.08500
H 	H 	0.37840 0.32860 0.34620 0.01900
N 	N 	0.20700 0.46410 0.92400 -0.11800
Cl	Cl	0.82200 0.95000 0.21400 -0.19000
O 	O 	0.14100 0.91480 0.80700 -0.38400
O 	O 	0.21400 0.85580 0.83700 -0.35800
O 	O 	0.91400 0.87100 0.89500 -0.35500
O 	O 	0.94500 0.81040 0.85300 -0.35000
O 	O 	0.71700 0.96900 0.27200 -0.05800
O 	O 	0.76000 0.93400 0.12300 -0.12200
O 	O 	0.87600 0.98600 0.18700 -0.05200
O 	O 	0.88000 0.91900 0.27800 -0.01000
C 	C 	0.22600 0.89280 0.83600 0.35400
C 	C 	0.35500 0.91040 0.86700 -0.17200
C 	C 	0.45200 0.88900 0.90400 0.13300
H 	H 	0.44040 0.86190 0.91880 0.00700
C 	C 	0.57100 0.90400 0.92100 -0.21800
H 	H 	0.64070 0.88810 0.94140 0.12800
C 	C 	0.58500 0.94400 0.90900 0.22400
C 	C 	0.49100 0.96600 0.87300 -0.23200
H 	H 	0.50190 0.99350 0.86310 0.13000
C 	C 	0.37400 0.94830 0.84900 0.12200
H 	H 	0.30660 0.96380 0.81900 0.02400
N 	N 	0.79500 0.78450 0.27400 -0.15600
C 	C 	0.80100 0.95100 0.88700 0.15000
H 	H 	0.78800 0.93030 0.84150 0.01800
C 	C 	0.91800 0.96600 0.90900 0.03100
H 	H 	0.98590 0.95440 0.88470 0.08200
C 	C 	0.93500 0.99800 0.96800 0.17200
C 	C 	0.83300 0.01600 0.99500 -0.16900
H 	H 	0.84030 0.03990 0.02800 0.12100
C 	C 	0.72000 0.99800 0.97300 0.08700
H 	H 	0.64970 0.00930 0.99360 0.01400
N 	N 	0.71200 0.94500 0.98000 -0.10300
C 	C 	0.79400 0.94100 0.91600 -0.03600
C 	C 	0.91000 0.96200 0.93900 -0.12300
C 	C 	0.94200 0.97900 0.01900 -0.05000
C 	C 	0.86300 0.97400 0.08900 0.10500
C 	C 	0.74900 0.95800 0.06600 0.16700
C 	C 	0.91400 0.83530 0.90900 0.33300
C 	C 	0.87700 0.82160 0.00500 -0.11700
C 	C 	0.84700 0.84830 0.07000 0.08200
H 	H 	0.84510 0.87550 0.05430 0.04700
C 	C 	0.82100 0.83630 0.15900 -0.17000
H 	H 	0.80160 0.85520 0.20490 0.12400
C 	C 	0.82200 0.79810 0.18100 0.16100
C 	C 	0.85200 0.76930 0.11600 -0.15400
H 	H 	0.85300 0.74210 0.13190 0.09900
C 	C 	0.88000 0.78170 0.02700 0.06700
H 	H 	0.90100 0.76300 0.98140 0.03200
C 	C 	0.72200 0.75300 0.28000 0.08400
H 	H 	0.68290 0.74030 0.22230 0.02800
C 	C 	0.70500 0.73880 0.36700 -0.12100
H 	H 	0.65620 0.71600 0.37000 0.09100
C 	C 	0.75800 0.75690 0.45200 0.06400
C 	C 	0.81500 0.79300 0.44200 -0.12000
H 	H 	0.84050 0.80920 0.49680 0.09100
C 	C 	0.83500 0.80500 0.35200 0.09200
H 	H 	0.87840 0.82860 0.34620 0.02600
N 	N 	0.70700 0.96410 0.92400 -0.13000
Cl	Cl	0.32200 0.55000 0.71400 -0.19100
O 	O 	0.64100 0.58520 0.30700 -0.37000
O 	O 	0.71400 0.64420 0.33700 -0.34900
O 	O 	0.41400 0.62900 0.39500 -0.36600
O 	O 	0.44500 0.68960 0.35300 -0.36500
O 	O 	0.21700 0.53100 0.77200 -0.06300
O 	O 	0.26000 0.56600 0.62300 -0.12600
O 	O 	0.37600 0.51400 0.68700 -0.06200
O 	O 	0.38000 0.58100 0.77800 -0.02400
C 	C 	0.72600 0.60720 0.33600 0.34200
C 	C 	0.85500 0.58960 0.36700 -0.14000
C 	C 	0.95200 0.61100 0.40400 0.14000
H 	H 	0.94040 0.63810 0.41880 0.01400
C 	C 	0.07100 0.59600 0.42100 -0.21600
H 	H 	0.14070 0.61190 0.44140 0.12400
C 	C 	0.08500 0.55600 0.40900 0.14700
C 	C 	0.99100 0.53400 0.37300 -0.09200
H 	H 	0.00190 0.50650 0.36310 0.06400
C 	C 	0.87400 0.55170 0.34900 0.05500
H 	H 	0.80660 0.53620 0.31900 0.04900
N 	N 	0.29500 0.71550 0.77400 -0.15700
C 	C 	0.30100 0.54900 0.38700 0.15100
H 	H 	0.28800 0.56970 0.34150 0.02000
C 	C 	0.41800 0.53400 0.40900 0.04200
H 	H 	0.48590 0.54560 0.38470 0.06200
C 	C 	0.43500 0.50200 0.46800 0.12800
C 	C 	0.33300 0.48400 0.49500 -0.14200
H 	H 	0.34030 0.46010 0.52800 0.10400
C 	C 	0.22000 0.50200 0.47300 0.07000
H 	H 	0.14970 0.49070 0.49360 0.01600
N 	N 	0.21200 0.55500 0.48000 -0.09600
C 	C 	0.29400 0.55900 0.41600 -0.04800
C 	C 	0.41000 0.53800 0.43900 -0.11500
C 	C 	0.44200 0.52100 0.51900 -0.06600
C 	C 	0.36300 0.52600 0.58900 0.10300
C 	C 	0.24900 0.54200 0.56600 0.16500
C 	C 	0.41400 0.66470 0.40900 0.33300
C 	C 	0.37700 0.67840 0.50500 -0.12400
C 	C 	0.34700 0.65170 0.57000 0.07800
H 	H 	0.34510 0.62450 0.55430 0.04500
C 	C 	0.32100 0.66370 0.65900 -0.17400
H 	H 	0.30160 0.64480 0.70490 0.12100
C 	C 	0.32200 0.70190 0.68100 0.15600
C 	C 	0.35200 0.73070 0.61600 -0.15800
H 	H 	0.35300 0.75790 0.63190 0.09500
C 	C 	0.38000 0.71830 0.52700 0.06300
H 	H 	0.40100 0.73700 0.48140 0.02700
C 	C 	0.22200 0.74700 0.78000 0.07600
H 	H 	0.18290 0.75970 0.72230 0.02600
C 	C 	0.20500 0.76120 0.86700 -0.12000
H 	H 	0.15620 0.78400 0.87000 0.08300
C 	C 	0.25800 0.74310 0.95200 0.05600
C 	C 	0.31500 0.70700 0.94200 -0.12200
H 	H 	0.34050 0.69080 0.99680 0.08400
C 	C 	0.33500 0.69500 0.85200 0.08500
H 	H 	0.37840 0.67140 0.84620 0.01900
N 	N 	0.20700 0.53590 0.42400 -0.11800
Cl	Cl	0.82200 0.05000 0.71400 -0.19000
O 	O 	0.14100 0.08520 0.30700 -0.38400
O 	O 	0.21400 0.14420 0.33700 -0.35800
O 	O 	0.91400 0.12900 0.39500 -0.35500
O 	O 	0.94500 0.18960 0.35300 -0.35000
O 	O 	0.71700 0.03100 0.77200 -0.05800
O 	O 	0.76000 0.06600 0.62300 -0.12200
O 	O 	0.87600 0.01400 0.68700 -0.05200
O 	O 	0.88000 0.08100 0.77800 -0.01000
C 	C 	0.22600 0.10720 0.33600 0.35400
C 	C 	0.35500 0.08960 0.36700 -0.17200
C 	C 	0.45200 0.11100 0.40400 0.13300
H 	H 	0.44040 0.13810 0.41880 0.00700
C 	C 	0.57100 0.09600 0.42100 -0.21800
H 	H 	0.64070 0.11190 0.44140 0.12900
C 	C 	0.58500 0.05600 0.40900 0.22400
C 	C 	0.49100 0.03400 0.37300 -0.23200
H 	H 	0.50190 0.00650 0.36310 0.13000
C 	C 	0.37400 0.05170 0.34900 0.12200
H 	H 	0.30660 0.03620 0.31900 0.02400
N 	N 	0.79500 0.21550 0.77400 -0.15600
C 	C 	0.80100 0.04900 0.38700 0.15100
H 	H 	0.78800 0.06970 0.34150 0.01800
C 	C 	0.91800 0.03400 0.40900 0.03200
H 	H 	0.98590 0.04560 0.38470 0.08100
C 	C 	0.93500 0.00200 0.46800 0.17500
C 	C 	0.83300 0.98400 0.49500 -0.17100
H 	H 	0.84030 0.96010 0.52800 0.12200
C 	C 	0.72000 0.00200 0.47300 0.08900
H 	H 	0.64970 0.99070 0.49360 0.01300
N 	N 	0.71200 0.05500 0.48000 -0.10200
C 	C 	0.79400 0.05900 0.41600 -0.03700
C 	C 	0.91000 0.03800 0.43900 -0.12500
C 	C 	0.94200 0.02100 0.51900 -0.05300
C 	C 	0.86300 0.02600 0.58900 0.10700
C 	C 	0.74900 0.04200 0.56600 0.16500
C 	C 	0.91400 0.16470 0.40900 0.33300
C 	C 	0.87700 0.17840 0.50500 -0.11700
C 	C 	0.84700 0.15170 0.57000 0.08200
H 	H 	0.84510 0.12450 0.55430 0.04700
C 	C 	0.82100 0.16370 0.65900 -0.17000
H 	H 	0.80160 0.14480 0.70490 0.12400
C 	C 	0.82200 0.20190 0.68100 0.16100
C 	C 	0.85200 0.23070 0.61600 -0.15400
H 	H 	0.85300 0.25790 0.63190 0.09800
C 	C 	0.88000 0.21830 0.52700 0.06600
H 	H 	0.90100 0.23700 0.48140 0.03300
C 	C 	0.72200 0.24700 0.78000 0.08300
H 	H 	0.68290 0.25970 0.72230 0.02800
C 	C 	0.70500 0.26120 0.86700 -0.12000
H 	H 	0.65620 0.28400 0.87000 0.09100
C 	C 	0.75800 0.24310 0.95200 0.06300
C 	C 	0.81500 0.20700 0.94200 -0.12000
H 	H 	0.84050 0.19080 0.99680 0.09100
C 	C 	0.83500 0.19500 0.85200 0.09100
H 	H 	0.87840 0.17140 0.84620 0.02600
N 	N 	0.70700 0.03590 0.42400 -0.13000
Cl	Cl	0.67800 0.55000 0.78600 -0.19000
O 	O 	0.35900 0.58520 0.19300 -0.37600
O 	O 	0.28600 0.64420 0.16300 -0.35700
O 	O 	0.58600 0.62900 0.10500 -0.36600
O 	O 	0.55500 0.68960 0.14700 -0.36500
O 	O 	0.78300 0.53100 0.72800 -0.05400
O 	O 	0.74000 0.56600 0.87700 -0.12300
O 	O 	0.62400 0.51400 0.81300 -0.06200
O 	O 	0.62000 0.58100 0.72200 -0.02200
C 	C 	0.27400 0.60720 0.16400 0.35900
C 	C 	0.14500 0.58960 0.13300 -0.19600
C 	C 	0.04800 0.61100 0.09600 0.12200
H 	H 	0.05960 0.63810 0.08120 0.00400
C 	C 	0.92900 0.59600 0.07900 -0.21700
H 	H 	0.85930 0.61190 0.05860 0.13300
C 	C 	0.91500 0.55600 0.09100 0.29600
C 	C 	0.00900 0.53400 0.12700 -0.36500
H 	H 	0.99810 0.50650 0.13690 0.19400
C 	C 	0.12600 0.55170 0.15100 0.18400
H 	H 	0.19340 0.53620 0.18100 0.00200
N 	N 	0.70500 0.71550 0.72600 -0.15700
C 	C 	0.69900 0.54900 0.11300 0.15300
H 	H 	0.71200 0.56970 0.15850 0.01800
C 	C 	0.58200 0.53400 0.09100 0.04100
H 	H 	0.51410 0.54560 0.11530 0.06200
C 	C 	0.56500 0.50200 0.03200 0.13000
C 	C 	0.66700 0.48400 0.00500 -0.14300
H 	H 	0.65970 0.46010 0.97200 0.10500
C 	C 	0.78000 0.50200 0.02700 0.07500
H 	H 	0.85030 0.49070 0.00640 0.02100
N 	N 	0.78800 0.55500 0.02000 -0.10800
C 	C 	0.70600 0.55900 0.08400 -0.04500
C 	C 	0.59000 0.53800 0.06100 -0.11600
C 	C 	0.55800 0.52100 0.98100 -0.06600
C 	C 	0.63700 0.52600 0.91100 0.09900
C 	C 	0.75100 0.54200 0.93400 0.17400
C 	C 	0.58600 0.66470 0.09100 0.33500
C 	C 	0.62300 0.67840 0.99500 -0.12400
C 	C 	0.65300 0.65170 0.93000 0.08300
H 	H 	0.65490 0.62450 0.94570 0.04400
C 	C 	0.67900 0.66370 0.84100 -0.17400
H 	H 	0.69840 0.64480 0.79510 0.12500
C 	C 	0.67800 0.70190 0.81900 0.16000
C 	C 	0.64800 0.73070 0.88400 -0.15800
H 	H 	0.64700 0.75790 0.86810 0.09400
C 	C 	0.62000 0.71830 0.97300 0.06500
H 	H 	0.59900 0.73700 0.01860 0.02700
C 	C 	0.77800 0.74700 0.72000 0.08600
H 	H 	0.81710 0.75970 0.77770 0.02900
C 	C 	0.79500 0.76120 0.63300 -0.12200
H 	H 	0.84380 0.78400 0.63000 0.09700
C 	C 	0.74200 0.74310 0.54800 0.06400
C 	C 	0.68500 0.70700 0.55800 -0.12300
H 	H 	0.65950 0.69080 0.50320 0.08600
C 	C 	0.66500 0.69500 0.64800 0.09000
H 	H 	0.62160 0.67140 0.65380 0.01900
N 	N 	0.79300 0.53590 0.07600 -0.13300
Cl	Cl	0.17800 0.05000 0.78600 -0.19000
O 	O 	0.85900 0.08520 0.19300 -0.35900
O 	O 	0.78600 0.14420 0.16300 -0.34600
O 	O 	0.08600 0.12900 0.10500 -0.37400
O 	O 	0.05500 0.18960 0.14700 -0.37800
O 	O 	0.28300 0.03100 0.72800 -0.06000
O 	O 	0.24000 0.06600 0.87700 -0.12700
O 	O 	0.12400 0.01400 0.81300 -0.07100
O 	O 	0.12000 0.08100 0.72200 -0.03500
C 	C 	0.77400 0.10720 0.16400 0.34700
C 	C 	0.64500 0.08960 0.13300 -0.16500
C 	C 	0.54800 0.11100 0.09600 0.12800
H 	H 	0.55960 0.13810 0.08120 0.00900
C 	C 	0.42900 0.09600 0.07900 -0.21400
H 	H 	0.35930 0.11190 0.05860 0.12800
C 	C 	0.41500 0.05600 0.09100 0.22000
C 	C 	0.50900 0.03400 0.12700 -0.22700
H 	H 	0.49810 0.00650 0.13690 0.12900
C 	C 	0.62600 0.05170 0.15100 0.11700
H 	H 	0.69340 0.03620 0.18100 0.02700
N 	N 	0.20500 0.21550 0.72600 -0.15800
C 	C 	0.19900 0.04900 0.11300 0.15300
H 	H 	0.21200 0.06970 0.15850 0.02000
C 	C 	0.08200 0.03400 0.09100 0.05000
H 	H 	0.01410 0.04560 0.11530 0.04300
C 	C 	0.06500 0.00200 0.03200 0.07800
C 	C 	0.16700 0.98400 0.00500 -0.10800
H 	H 	0.15970 0.96010 0.97200 0.08400
C 	C 	0.28000 0.00200 0.02700 0.05300
H 	H 	0.35030 0.99070 0.00640 0.02600
N 	N 	0.28800 0.05500 0.02000 -0.10200
C 	C 	0.20600 0.05900 0.08400 -0.05600
C 	C 	0.09000 0.03800 0.06100 -0.10600
C 	C 	0.05800 0.02100 0.98100 -0.07500
C 	C 	0.13700 0.02600 0.91100 0.09300
C 	C 	0.25100 0.04200 0.93400 0.17500
C 	C 	0.08600 0.16470 0.09100 0.33400
C 	C 	0.12300 0.17840 0.99500 -0.13000
C 	C 	0.15300 0.15170 0.93000 0.07900
H 	H 	0.15490 0.12450 0.94570 0.04100
C 	C 	0.17900 0.16370 0.84100 -0.17800
H 	H 	0.19840 0.14480 0.79510 0.12200
C 	C 	0.17800 0.20190 0.81900 0.15500
C 	C 	0.14800 0.23070 0.88400 -0.16200
H 	H 	0.14700 0.25790 0.86810 0.09100
C 	C 	0.12000 0.21830 0.97300 0.06200
H 	H 	0.09900 0.23700 0.01860 0.02200
C 	C 	0.27800 0.24700 0.72000 0.07900
H 	H 	0.31710 0.25970 0.77770 0.02800
C 	C 	0.29500 0.26120 0.63300 -0.12200
H 	H 	0.34380 0.28400 0.63000 0.09000
C 	C 	0.24200 0.24310 0.54800 0.05900
C 	C 	0.18500 0.20700 0.55800 -0.12600
H 	H 	0.15950 0.19080 0.50320 0.08000
C 	C 	0.16500 0.19500 0.64800 0.08400
H 	H 	0.12160 0.17140 0.65380 0.01300
N 	N 	0.29300 0.03590 0.07600 -0.12000
Cd	Cd	0.50000 0.36359 0.75000 1.24400
Cd	Cd	0.00000 0.86359 0.75000 1.23300
Cd	Cd	0.50000 0.63641 0.25000 1.24400
Cd	Cd	0.00000 0.13641 0.25000 1.23300
