data_crystal

_cell_length_a 12.57570
_cell_length_b 13.47050
_cell_length_c 14.24080
_cell_angle_alpha 99.64100
_cell_angle_beta  95.82300
_cell_angle_gamma 117.24500

_symmetry_space_group_name_	'P 1'
_symmetry_space_group_name_H-M	'P 1'

loop_
_symmetry_equiv_pos_as_xyz
  x,y,z

loop_
_atom_site_label
_atom_site_type_symbol
_atom_site_fract_x
_atom_site_fract_y
_atom_site_fract_z
_atom_site_charge
N 	N 	0.91250 0.59264 0.49308 -0.23500
N 	N 	0.82560 0.69310 0.44307 -0.09700
N 	N 	0.81720 0.68649 0.53695 -0.10200
N 	N 	0.56160 0.86833 0.74207 -0.09800
N 	N 	0.44700 0.84790 0.70288 -0.09600
N 	N 	0.50150 0.93673 0.86154 -0.22900
N 	N 	0.54790 0.88810 0.04050 -0.23300
N 	N 	0.55200 0.73020 0.04187 -0.08900
N 	N 	0.65450 0.81350 0.10680 -0.09600
N 	N 	0.13850 0.61749 0.44911 -0.24300
N 	N 	0.23160 0.73020 0.35062 -0.10100
N 	N 	0.29340 0.77883 0.44516 -0.10000
C 	C 	0.88440 0.63660 0.42040 0.09400
H 	H 	0.90580 0.62690 0.35870 -0.00100
C 	C 	0.86920 0.62670 0.56520 0.09200
H 	H 	0.87430 0.61090 0.62760 -0.01000
C 	C 	0.80050 0.85310 0.61410 -0.00600
C 	C 	0.91530 0.93050 0.59540 -0.03100
H 	H 	0.96080 0.90110 0.56260 0.06600
C 	C 	0.95980 0.04570 0.62400 -0.00600
H 	H 	0.03790 0.09630 0.61360 0.00900
C 	C 	0.89130 0.09200 0.66950 -0.02700
H 	H 	0.92290 0.17300 0.68770 0.05400
C 	C 	0.78110 0.02110 0.68710 -0.08300
H 	H 	0.73510 0.05280 0.71600 0.06700
C 	C 	0.73330 0.89980 0.66280 0.03600
C 	C 	0.62590 0.82280 0.68767 0.03000
C 	C 	0.58200 0.70470 0.66910 0.00900
C 	C 	0.47890 0.62930 0.70300 -0.05400
H 	H 	0.43650 0.65980 0.73910 0.05600
C 	C 	0.44050 0.51490 0.68440 -0.02600
H 	H 	0.37310 0.46620 0.70930 0.04400
C 	C 	0.50020 0.46740 0.62820 -0.03200
H 	H 	0.47030 0.38660 0.61310 0.04700
C 	C 	0.59940 0.53600 0.59560 -0.04600
H 	H 	0.63820 0.50250 0.55800 0.05500
C 	C 	0.64670 0.65770 0.61650 -0.00600
C 	C 	0.75250 0.73380 0.58970 0.04300
C 	C 	0.59170 0.91990 0.83580 0.09200
H 	H 	0.66620 0.94150 0.87810 0.00100
C 	C 	0.41540 0.89060 0.77790 0.09400
H 	H 	0.33900 0.88940 0.77420 -0.00800
C 	C 	0.48980 0.77530 0.00320 0.03400
H 	H 	0.41550 0.73370 0.95620 0.02200
C 	C 	0.64780 0.90670 0.10330 0.09100
H 	H 	0.70740 0.98090 0.14110 -0.00200
C 	C 	0.52600 0.61260 0.02090 -0.03000
C 	C 	0.58510 0.57920 0.95530 0.07500
C 	C 	0.67230 0.65720 0.91010 -0.09100
H 	H 	0.69110 0.73560 0.92380 0.08400
C 	C 	0.72850 0.62070 0.84790 0.01000
H 	H 	0.78720 0.67360 0.81900 0.03500
C 	C 	0.70010 0.50360 0.82580 -0.06500
H 	H 	0.74050 0.47910 0.78210 0.05500
C 	C 	0.61730 0.42630 0.86540 -0.00900
H 	H 	0.59860 0.34800 0.84850 0.04200
C 	C 	0.55770 0.46150 0.93250 -0.04700
C 	C 	0.39900 0.89200 0.47353 0.03400
C 	C 	0.50450 0.90730 0.43950 0.03100
C 	C 	0.51210 0.81570 0.37890 -0.04600
H 	H 	0.44320 0.74080 0.36050 0.05700
C 	C 	0.61660 0.83430 0.34740 -0.04600
H 	H 	0.62010 0.77240 0.30730 0.05300
C 	C 	0.72060 0.94570 0.37400 0.01700
H 	H 	0.79260 0.95810 0.35060 0.03800
C 	C 	0.71790 0.03460 0.43260 -0.08800
H 	H 	0.78890 0.10800 0.45100 0.06600
C 	C 	0.61000 0.01940 0.46704 -0.01300
C 	C 	0.13960 0.63350 0.35710 0.08300
H 	H 	0.07900 0.57920 0.30230 -0.02600
C 	C 	0.23760 0.71070 0.50270 0.08400
H 	H 	0.26440 0.72640 0.57090 -0.00700
N 	N 	0.08750 0.40736 0.50692 -0.24900
N 	N 	0.17440 0.30690 0.55693 -0.10000
N 	N 	0.18280 0.31351 0.46305 -0.10300
N 	N 	0.43840 0.13167 0.25793 -0.10700
N 	N 	0.55300 0.15210 0.29712 -0.09800
N 	N 	0.49850 0.06327 0.13846 -0.25000
N 	N 	0.45210 0.11190 0.95950 -0.24900
N 	N 	0.44800 0.26980 0.95813 -0.12000
N 	N 	0.34550 0.18650 0.89320 -0.09700
N 	N 	0.86150 0.38251 0.55089 -0.22900
N 	N 	0.76840 0.26980 0.64938 -0.09700
N 	N 	0.70660 0.22117 0.55484 -0.10100
C 	C 	0.11560 0.36340 0.57960 0.08400
H 	H 	0.09420 0.37310 0.64130 -0.01800
C 	C 	0.13080 0.37330 0.43480 0.08200
H 	H 	0.12570 0.38910 0.37240 -0.02100
C 	C 	0.19950 0.14690 0.38590 0.01200
C 	C 	0.08470 0.06950 0.40460 -0.07100
H 	H 	0.03920 0.09890 0.43740 0.04600
C 	C 	0.04020 0.95430 0.37600 -0.06600
H 	H 	0.96210 0.90370 0.38640 0.08300
C 	C 	0.10870 0.90800 0.33050 -0.03200
H 	H 	0.07710 0.82700 0.31230 0.03400
C 	C 	0.21890 0.97890 0.31290 -0.01200
H 	H 	0.26490 0.94720 0.28400 0.05100
C 	C 	0.26670 0.10020 0.33720 -0.03700
C 	C 	0.37410 0.17720 0.31233 0.04700
C 	C 	0.41800 0.29530 0.33090 -0.00600
C 	C 	0.52110 0.37070 0.29700 -0.04500
H 	H 	0.56350 0.34020 0.26090 0.05200
C 	C 	0.55950 0.48510 0.31560 -0.03400
H 	H 	0.62690 0.53380 0.29070 0.04700
C 	C 	0.49980 0.53260 0.37180 -0.02400
H 	H 	0.52970 0.61340 0.38690 0.04500
C 	C 	0.40060 0.46400 0.40440 -0.05500
H 	H 	0.36180 0.49750 0.44200 0.05800
C 	C 	0.35330 0.34230 0.38350 0.00400
C 	C 	0.24750 0.26620 0.41030 0.02700
C 	C 	0.40830 0.08010 0.16420 0.08300
H 	H 	0.33380 0.05850 0.12190 -0.02700
C 	C 	0.58460 0.10940 0.22210 0.08600
H 	H 	0.66100 0.11060 0.22580 -0.01600
C 	C 	0.51020 0.22470 0.99680 0.15400
H 	H 	0.58450 0.26630 0.04380 -0.05600
C 	C 	0.35220 0.09330 0.89670 0.09400
H 	H 	0.29260 0.01910 0.85890 -0.02100
C 	C 	0.47400 0.38740 0.97910 0.10500
C 	C 	0.41490 0.42080 0.04470 -0.07500
C 	C 	0.32770 0.34280 0.08990 -0.00500
H 	H 	0.30890 0.26440 0.07620 0.02900
C 	C 	0.27150 0.37930 0.15210 -0.07600
H 	H 	0.21280 0.32640 0.18100 0.04600
C 	C 	0.29990 0.49640 0.17420 0.00100
H 	H 	0.25950 0.52090 0.21790 0.02400
C 	C 	0.38270 0.57370 0.13460 -0.09600
H 	H 	0.40140 0.65200 0.15150 0.06800
C 	C 	0.44230 0.53850 0.06750 0.04700
C 	C 	0.60100 0.10800 0.52647 0.04800
C 	C 	0.49550 0.09270 0.56050 -0.01600
C 	C 	0.48790 0.18430 0.62110 -0.05200
H 	H 	0.55680 0.25920 0.63950 0.05900
C 	C 	0.38340 0.16570 0.65260 -0.01700
H 	H 	0.37990 0.22760 0.69270 0.04100
C 	C 	0.27940 0.05430 0.62600 -0.07600
H 	H 	0.20740 0.04190 0.64940 0.04400
C 	C 	0.28210 0.96540 0.56740 -0.00800
H 	H 	0.21110 0.89200 0.54900 0.03600
C 	C 	0.39000 0.98060 0.53296 0.02100
C 	C 	0.86040 0.36650 0.64290 0.08900
H 	H 	0.92100 0.42080 0.69770 -0.00400
C 	C 	0.76240 0.28930 0.49730 0.08700
H 	H 	0.73560 0.27360 0.42910 -0.00400
Cu	Cu	0.00000 0.50000 0.50000 0.83300
Cu	Cu	0.50000 0.00000 -0.00000 0.82800
