data_crystal

_cell_length_a 7.35300
_cell_length_b 7.38760
_cell_length_c 10.11540
_cell_angle_alpha 73.52600
_cell_angle_beta  88.66500
_cell_angle_gamma 63.87800

_symmetry_space_group_name_	'P 1'
_symmetry_space_group_name_H-M	'P 1'

loop_
_symmetry_equiv_pos_as_xyz
  x,y,z

loop_
_atom_site_label
_atom_site_type_symbol
_atom_site_fract_x
_atom_site_fract_y
_atom_site_fract_z
_atom_site_charge
O 	O 	0.77430 0.66470 0.32569 -0.45600
O 	O 	0.97410 0.68060 0.15724 -0.21600
O 	O 	0.22420 0.76910 0.69551 -0.31800
O 	O 	0.00740 0.91650 0.83414 -0.41000
N 	N 	0.30220 0.83960 0.01517 -0.23900
C 	C 	0.35890 0.78910 0.89810 0.08100
C 	C 	0.55830 0.70950 0.87130 -0.09100
H 	H 	0.59420 0.67630 0.78930 0.10600
C 	C 	0.70500 0.68000 0.97010 0.14800
H 	H 	0.84060 0.63230 0.95290 0.11300
C 	C 	0.64960 0.72150 0.09420 -0.16800
C 	C 	0.81160 0.68660 0.20120 0.38400
C 	C 	0.44500 0.80210 0.11310 0.12400
H 	H 	0.40570 0.83090 0.19580 -0.00600
C 	C 	0.18460 0.82840 0.79930 0.29300
O 	O 	0.22570 0.33530 0.67431 -0.61300
O 	O 	0.02590 0.31940 0.84276 -0.50600
O 	O 	0.77580 0.23090 0.30449 -0.28500
O 	O 	0.99260 0.08350 0.16586 -0.28600
N 	N 	0.69780 0.16040 0.98483 -0.10500
C 	C 	0.64110 0.21090 0.10190 -0.11200
C 	C 	0.44170 0.29050 0.12870 -0.00500
H 	H 	0.40580 0.32370 0.21070 -0.03100
C 	C 	0.29500 0.32000 0.02990 -0.13800
H 	H 	0.15940 0.36770 0.04710 -0.02600
C 	C 	0.35040 0.27850 0.90580 -0.05100
C 	C 	0.18840 0.31340 0.79880 0.35300
C 	C 	0.55500 0.19790 0.88690 0.03900
H 	H 	0.59430 0.16910 0.80420 0.02700
C 	C 	0.81540 0.17160 0.20070 0.28800
Cu	Cu	-0.00000 0.00000 -0.00000 0.69100
Mg	Mg	0.00000 0.50000 0.50000 1.41500
