data_crystal

_cell_length_a 7.69850
_cell_length_b 8.68320
_cell_length_c 10.96720
_cell_angle_alpha 71.11800
_cell_angle_beta  72.43400
_cell_angle_gamma 86.01200

_symmetry_space_group_name_	'P 1'
_symmetry_space_group_name_H-M	'P 1'

loop_
_symmetry_equiv_pos_as_xyz
  x,y,z

loop_
_atom_site_label
_atom_site_type_symbol
_atom_site_fract_x
_atom_site_fract_y
_atom_site_fract_z
_atom_site_charge
Ni	Ni	0.39738 0.28629 0.49901 1.02200
Cl	Cl	0.30503 0.16237 0.35304 -0.54400
N 	N 	0.51100 0.50390 0.65890 -0.23000
N 	N 	0.45540 0.36440 0.64120 -0.25300
N 	N 	0.43420 0.31290 0.85380 -0.12300
N 	N 	0.35430 0.10070 0.78430 -0.26100
H 	H 	0.25400 0.07520 0.85620 0.11700
H 	H 	0.44180 0.03240 0.80560 0.13100
N 	N 	0.31380 0.07550 0.67330 -0.30100
H 	H 	0.19330 0.05610 0.69430 0.09300
H 	H 	0.37250 0.98820 0.65580 0.09300
N 	N 	0.37960 0.22340 0.99300 -0.22400
H 	H 	0.29000 0.27430 0.03620 0.12600
H 	H 	0.47410 0.21650 0.02510 0.12400
C 	C 	0.40990 0.25380 0.76030 0.15300
C 	C 	0.49500 0.46900 0.78630 0.07300
H 	H 	0.52150 0.54110 0.82560 0.00400
Ni	Ni	0.60262 0.71371 0.50099 1.02200
Cl	Cl	0.69497 0.83763 0.64696 -0.54400
N 	N 	0.48900 0.49610 0.34110 -0.23000
N 	N 	0.54460 0.63560 0.35880 -0.25300
N 	N 	0.56580 0.68710 0.14620 -0.12300
N 	N 	0.64570 0.89930 0.21570 -0.26100
H 	H 	0.74600 0.92480 0.14380 0.11700
H 	H 	0.55820 0.96760 0.19440 0.13100
N 	N 	0.68620 0.92450 0.32670 -0.30100
H 	H 	0.80670 0.94390 0.30570 0.09300
H 	H 	0.62750 0.01180 0.34420 0.09300
N 	N 	0.62040 0.77660 0.00700 -0.22400
H 	H 	0.71000 0.72570 0.96380 0.12600
H 	H 	0.52590 0.78350 0.97490 0.12400
C 	C 	0.59010 0.74620 0.23970 0.15300
C 	C 	0.50500 0.53100 0.21370 0.07300
H 	H 	0.47850 0.45890 0.17440 0.00400
