data_crystal

_cell_length_a 10.91220
_cell_length_b 14.81090
_cell_length_c 23.25000
_cell_angle_alpha 90.00000
_cell_angle_beta  90.00000
_cell_angle_gamma 90.00000

_symmetry_space_group_name_	'P 1'
_symmetry_space_group_name_H-M	'P 1'

loop_
_symmetry_equiv_pos_as_xyz
  x,y,z

loop_
_atom_site_label
_atom_site_type_symbol
_atom_site_fract_x
_atom_site_fract_y
_atom_site_fract_z
_atom_site_charge
Mn	Mn	0.22838 0.57081 0.60878 1.18200
C 	C 	0.32276 0.36384 0.61311 0.07500
H 	H 	0.24250 0.35320 0.62480 -0.02500
C 	C 	0.39921 0.29090 0.60674 -0.15500
H 	H 	0.37170 0.23250 0.61380 0.07100
C 	C 	0.51571 0.30688 0.58988 0.05700
H 	H 	0.57030 0.25920 0.58530 -0.00500
C 	C 	0.55271 0.39327 0.57964 -0.13400
H 	H 	0.63280 0.40460 0.56800 0.06300
C 	C 	0.47171 0.46390 0.58653 0.04400
C 	C 	0.50501 0.55954 0.57398 0.04400
C 	C 	0.61929 0.58501 0.55572 -0.13500
H 	H 	0.68050 0.54190 0.55100 0.05800
C 	C 	0.64306 0.67373 0.54444 0.04600
H 	H 	0.72050 0.69140 0.53210 -0.02000
C 	C 	0.55242 0.73630 0.55147 -0.15800
H 	H 	0.56660 0.79720 0.54440 0.04400
C 	C 	0.44071 0.70652 0.56924 0.07300
H 	H 	0.37840 0.74880 0.57360 -0.05000
C 	C 	0.34081 0.66710 0.72155 0.07700
H 	H 	0.39670 0.68980 0.69510 -0.02600
C 	C 	0.34450 0.69985 0.77626 -0.15800
H 	H 	0.40140 0.74350 0.78700 0.07800
C 	C 	0.26230 0.66656 0.81453 0.05900
H 	H 	0.26210 0.68740 0.85230 -0.00500
C 	C 	0.17970 0.60232 0.79767 -0.13600
H 	H 	0.12290 0.57940 0.82370 0.06300
C 	C 	0.18183 0.57200 0.74152 0.04400
C 	C 	0.09464 0.50356 0.72001 0.05100
C 	C 	0.02130 0.45284 0.75537 -0.14100
H 	H 	0.02730 0.45900 0.79510 0.06300
C 	C 	0.93980 0.39341 0.73227 0.06600
H 	H 	0.88850 0.35980 0.75600 -0.00900
C 	C 	0.93390 0.38370 0.67418 -0.16400
H 	H 	0.87950 0.34310 0.65750 0.07800
C 	C 	0.01045 0.43543 0.64091 0.08400
H 	H 	0.00640 0.42910 0.60120 -0.05200
N 	N 	0.35666 0.44886 0.60360 -0.25600
N 	N 	0.41510 0.62049 0.58079 -0.26700
N 	N 	0.26194 0.60448 0.70371 -0.25500
N 	N 	0.09003 0.49404 0.66267 -0.26900
Mn	Mn	0.27162 0.42919 0.10878 1.18100
C 	C 	0.17724 0.63616 0.11311 0.07400
H 	H 	0.25750 0.64680 0.12480 -0.02500
C 	C 	0.10079 0.70910 0.10674 -0.15600
H 	H 	0.12830 0.76750 0.11380 0.07100
C 	C 	0.98429 0.69312 0.08988 0.05700
H 	H 	0.92970 0.74080 0.08530 -0.00500
C 	C 	0.94729 0.60673 0.07964 -0.13400
H 	H 	0.86720 0.59540 0.06800 0.06300
C 	C 	0.02829 0.53610 0.08653 0.04300
C 	C 	0.99499 0.44046 0.07398 0.04500
C 	C 	0.88071 0.41499 0.05572 -0.13500
H 	H 	0.81950 0.45810 0.05100 0.05900
C 	C 	0.85694 0.32627 0.04444 0.04600
H 	H 	0.77950 0.30860 0.03210 -0.02000
C 	C 	0.94758 0.26370 0.05147 -0.15800
H 	H 	0.93340 0.20280 0.04440 0.04500
C 	C 	0.05929 0.29348 0.06924 0.07300
H 	H 	0.12160 0.25120 0.07360 -0.05000
C 	C 	0.15919 0.33290 0.22155 0.07700
H 	H 	0.10330 0.31020 0.19510 -0.02600
C 	C 	0.15550 0.30015 0.27626 -0.15800
H 	H 	0.09860 0.25650 0.28700 0.07900
C 	C 	0.23770 0.33344 0.31453 0.05900
H 	H 	0.23790 0.31260 0.35230 -0.00500
C 	C 	0.32030 0.39768 0.29767 -0.13600
H 	H 	0.37710 0.42060 0.32370 0.06300
C 	C 	0.31817 0.42800 0.24152 0.04400
C 	C 	0.40536 0.49644 0.22001 0.05100
C 	C 	0.47870 0.54716 0.25537 -0.14200
H 	H 	0.47270 0.54100 0.29510 0.06300
C 	C 	0.56020 0.60659 0.23227 0.06700
H 	H 	0.61150 0.64020 0.25600 -0.00900
C 	C 	0.56610 0.61630 0.17418 -0.16400
H 	H 	0.62050 0.65690 0.15750 0.07800
C 	C 	0.48955 0.56457 0.14091 0.08400
H 	H 	0.49360 0.57090 0.10120 -0.05200
N 	N 	0.14334 0.55114 0.10360 -0.25600
N 	N 	0.08490 0.37951 0.08079 -0.26800
N 	N 	0.23806 0.39552 0.20371 -0.25500
N 	N 	0.40997 0.50596 0.16267 -0.26900
Mn	Mn	0.77162 0.07081 0.89122 1.18100
C 	C 	0.67724 0.86384 0.88689 0.07400
H 	H 	0.75750 0.85320 0.87520 -0.02500
C 	C 	0.60079 0.79090 0.89326 -0.15500
H 	H 	0.62830 0.73250 0.88620 0.07100
C 	C 	0.48429 0.80688 0.91012 0.05800
H 	H 	0.42970 0.75920 0.91470 -0.00500
C 	C 	0.44729 0.89327 0.92036 -0.13500
H 	H 	0.36720 0.90460 0.93200 0.06300
C 	C 	0.52829 0.96390 0.91347 0.04500
C 	C 	0.49499 0.05954 0.92602 0.04300
C 	C 	0.38071 0.08501 0.94428 -0.13400
H 	H 	0.31950 0.04190 0.94900 0.05800
C 	C 	0.35694 0.17373 0.95556 0.04500
H 	H 	0.27950 0.19140 0.96790 -0.02000
C 	C 	0.44758 0.23630 0.94853 -0.15800
H 	H 	0.43340 0.29720 0.95560 0.04400
C 	C 	0.55929 0.20652 0.93076 0.07300
H 	H 	0.62160 0.24880 0.92640 -0.05000
C 	C 	0.65919 0.16710 0.77845 0.07700
H 	H 	0.60330 0.18980 0.80490 -0.02700
C 	C 	0.65550 0.19985 0.72374 -0.15900
H 	H 	0.59860 0.24350 0.71300 0.07900
C 	C 	0.73770 0.16656 0.68547 0.06000
H 	H 	0.73790 0.18740 0.64770 -0.00500
C 	C 	0.82030 0.10232 0.70233 -0.13600
H 	H 	0.87710 0.07940 0.67630 0.06300
C 	C 	0.81817 0.07200 0.75848 0.04400
C 	C 	0.90536 0.00356 0.77999 0.04800
C 	C 	0.97870 0.95284 0.74463 -0.13800
H 	H 	0.97270 0.95900 0.70490 0.06200
C 	C 	0.06020 0.89341 0.76773 0.06400
H 	H 	0.11150 0.85980 0.74400 -0.00800
C 	C 	0.06610 0.88370 0.82582 -0.16200
H 	H 	0.12050 0.84310 0.84250 0.07700
C 	C 	0.98955 0.93543 0.85909 0.08300
H 	H 	0.99360 0.92910 0.89880 -0.05100
N 	N 	0.64334 0.94886 0.89640 -0.25600
N 	N 	0.58490 0.12049 0.91921 -0.26700
N 	N 	0.73806 0.10448 0.79629 -0.25500
N 	N 	0.90997 0.99404 0.83733 -0.26700
Mn	Mn	0.72838 0.92919 0.39122 1.18100
C 	C 	0.82276 0.13616 0.38689 0.07500
H 	H 	0.74250 0.14680 0.37520 -0.02500
C 	C 	0.89921 0.20910 0.39326 -0.15600
H 	H 	0.87170 0.26750 0.38620 0.07100
C 	C 	0.01571 0.19312 0.41012 0.05800
H 	H 	0.07030 0.24080 0.41470 -0.00500
C 	C 	0.05271 0.10673 0.42036 -0.13400
H 	H 	0.13280 0.09540 0.43200 0.06300
C 	C 	0.97171 0.03610 0.41347 0.04500
C 	C 	0.00501 0.94046 0.42602 0.04300
C 	C 	0.11929 0.91499 0.44428 -0.13400
H 	H 	0.18050 0.95810 0.44900 0.05800
C 	C 	0.14306 0.82627 0.45556 0.04500
H 	H 	0.22050 0.80860 0.46790 -0.02000
C 	C 	0.05242 0.76370 0.44853 -0.15900
H 	H 	0.06660 0.70280 0.45560 0.04500
C 	C 	0.94071 0.79348 0.43076 0.07400
H 	H 	0.87840 0.75120 0.42640 -0.05000
C 	C 	0.84081 0.83290 0.27845 0.07700
H 	H 	0.89670 0.81020 0.30490 -0.02700
C 	C 	0.84450 0.80015 0.22374 -0.15900
H 	H 	0.90140 0.75650 0.21300 0.07900
C 	C 	0.76230 0.83344 0.18547 0.06000
H 	H 	0.76210 0.81260 0.14770 -0.00500
C 	C 	0.67970 0.89768 0.20233 -0.13600
H 	H 	0.62290 0.92060 0.17630 0.06200
C 	C 	0.68183 0.92800 0.25848 0.04400
C 	C 	0.59464 0.99644 0.27999 0.04800
C 	C 	0.52130 0.04716 0.24463 -0.13800
H 	H 	0.52730 0.04100 0.20490 0.06300
C 	C 	0.43980 0.10659 0.26773 0.06400
H 	H 	0.38850 0.14020 0.24400 -0.00800
C 	C 	0.43390 0.11630 0.32582 -0.16100
H 	H 	0.37950 0.15690 0.34250 0.07700
C 	C 	0.51045 0.06457 0.35909 0.08300
H 	H 	0.50640 0.07090 0.39880 -0.05100
N 	N 	0.85666 0.05114 0.39640 -0.25600
N 	N 	0.91510 0.87951 0.41921 -0.26700
N 	N 	0.76194 0.89552 0.29629 -0.25500
N 	N 	0.59003 0.00596 0.33733 -0.26700
