data_crystal

_cell_length_a 10.59590
_cell_length_b 19.51810
_cell_length_c 7.73100
_cell_angle_alpha 90.00000
_cell_angle_beta  104.95600
_cell_angle_gamma 90.00000

_symmetry_space_group_name_	'P 1'
_symmetry_space_group_name_H-M	'P 1'

loop_
_symmetry_equiv_pos_as_xyz
  x,y,z

loop_
_atom_site_label
_atom_site_type_symbol
_atom_site_fract_x
_atom_site_fract_y
_atom_site_fract_z
_atom_site_charge
N 	N 	0.37620 0.02900 0.32190 -0.23200
N 	N 	0.38960 0.05970 0.48850 -0.25300
N 	N 	0.24080 0.11420 0.28950 -0.12700
N 	N 	0.29560 0.15650 0.58910 -0.19800
H 	H 	0.25600 0.19520 0.56630 0.10200
N 	N 	0.35590 0.13420 0.76360 -0.29100
H 	H 	0.29500 0.11930 0.81710 0.07800
H 	H 	0.39940 0.16910 0.82840 0.08900
N 	N 	0.14600 0.16430 0.22130 -0.22200
H 	H 	0.07350 0.14390 0.15820 0.07100
H 	H 	0.17590 0.19250 0.15050 0.09300
C 	C 	0.30560 0.11160 0.46050 0.14300
C 	C 	0.28590 0.06150 0.20500 0.06400
H 	H 	0.25680 0.05080 0.08410 -0.02700
N 	N 	0.62380 0.02900 0.17810 -0.22900
N 	N 	0.61040 0.05970 0.01150 -0.24900
N 	N 	0.75920 0.11420 0.21050 -0.11700
N 	N 	0.70440 0.15650 0.91090 -0.20600
H 	H 	0.74400 0.19520 0.93370 0.12800
N 	N 	0.64410 0.13420 0.73640 -0.29600
H 	H 	0.70500 0.11930 0.68290 0.10700
H 	H 	0.60060 0.16910 0.67160 0.09800
N 	N 	0.85400 0.16430 0.27870 -0.22000
H 	H 	0.92650 0.14390 0.34180 0.16300
H 	H 	0.82410 0.19250 0.34950 0.12200
C 	C 	0.69440 0.11160 0.03950 0.18300
C 	C 	0.71410 0.06150 0.29500 0.07900
H 	H 	0.74320 0.05080 0.41590 -0.01100
N 	N 	0.62380 0.97100 0.67810 -0.23100
N 	N 	0.61040 0.94030 0.51150 -0.25300
N 	N 	0.75920 0.88580 0.71050 -0.11600
N 	N 	0.70440 0.84350 0.41090 -0.19600
H 	H 	0.74400 0.80480 0.43370 0.13300
N 	N 	0.64410 0.86580 0.23640 -0.29500
H 	H 	0.70500 0.88070 0.18290 0.11200
H 	H 	0.60060 0.83090 0.17160 0.10200
N 	N 	0.85400 0.83570 0.77870 -0.22000
H 	H 	0.92650 0.85610 0.84180 0.16000
H 	H 	0.82410 0.80750 0.84950 0.11800
C 	C 	0.69440 0.88840 0.53950 0.16900
C 	C 	0.71410 0.93850 0.79500 0.07700
H 	H 	0.74320 0.94920 0.91590 -0.01500
N 	N 	0.37620 0.97100 0.82190 -0.23500
N 	N 	0.38960 0.94030 0.98850 -0.25700
N 	N 	0.24080 0.88580 0.78950 -0.12800
N 	N 	0.29560 0.84350 0.08910 -0.19100
H 	H 	0.25600 0.80480 0.06630 0.10600
N 	N 	0.35590 0.86580 0.26360 -0.29100
H 	H 	0.29500 0.88070 0.31710 0.08400
H 	H 	0.39940 0.83090 0.32840 0.09400
N 	N 	0.14600 0.83570 0.72130 -0.22200
H 	H 	0.07350 0.85610 0.65820 0.06800
H 	H 	0.17590 0.80750 0.65050 0.08900
C 	C 	0.30560 0.88840 0.96050 0.13000
C 	C 	0.28590 0.93850 0.70500 0.06200
H 	H 	0.25680 0.94920 0.58410 -0.03200
Zn	Zn	0.50000 0.04598 0.75000 1.16900
Zn	Zn	0.50000 0.95402 0.25000 1.17300
N 	N 	0.87620 0.52900 0.32190 -0.19700
N 	N 	0.88960 0.55970 0.48850 -0.21600
N 	N 	0.74080 0.61420 0.28950 -0.12000
N 	N 	0.79560 0.65650 0.58910 -0.19000
H 	H 	0.75600 0.69520 0.56630 0.12400
N 	N 	0.85590 0.63420 0.76360 -0.28100
H 	H 	0.79500 0.61930 0.81710 0.10000
H 	H 	0.89940 0.66910 0.82840 0.13100
N 	N 	0.64600 0.66430 0.22130 -0.22200
H 	H 	0.57350 0.64390 0.15820 0.11800
H 	H 	0.67590 0.69250 0.15050 0.11700
C 	C 	0.80560 0.61160 0.46050 0.17400
C 	C 	0.78590 0.56150 0.20500 0.08300
H 	H 	0.75680 0.55080 0.08410 -0.01000
N 	N 	0.12380 0.52900 0.17810 -0.25200
N 	N 	0.11040 0.55970 0.01150 -0.27300
N 	N 	0.25920 0.61420 0.21050 -0.12500
N 	N 	0.20440 0.65650 0.91090 -0.21200
H 	H 	0.24400 0.69520 0.93370 0.10700
N 	N 	0.14410 0.63420 0.73640 -0.29900
H 	H 	0.20500 0.61930 0.68290 0.08700
H 	H 	0.10060 0.66910 0.67160 0.05900
N 	N 	0.35400 0.66430 0.27870 -0.21900
H 	H 	0.42650 0.64390 0.34180 0.11500
H 	H 	0.32410 0.69250 0.34950 0.09700
C 	C 	0.19440 0.61160 0.03950 0.15400
C 	C 	0.21410 0.56150 0.29500 0.06000
H 	H 	0.24320 0.55080 0.41590 -0.02500
N 	N 	0.12380 0.47100 0.67810 -0.25600
N 	N 	0.11040 0.44030 0.51150 -0.27800
N 	N 	0.25920 0.38580 0.71050 -0.12500
N 	N 	0.20440 0.34350 0.41090 -0.20400
H 	H 	0.24400 0.30480 0.43370 0.11100
N 	N 	0.14410 0.36580 0.23640 -0.29900
H 	H 	0.20500 0.38070 0.18290 0.09300
H 	H 	0.10060 0.33090 0.17160 0.06300
N 	N 	0.35400 0.33570 0.77870 -0.21900
H 	H 	0.42650 0.35610 0.84180 0.11100
H 	H 	0.32410 0.30750 0.84950 0.09300
C 	C 	0.19440 0.38840 0.53950 0.13900
C 	C 	0.21410 0.43850 0.79500 0.05800
H 	H 	0.24320 0.44920 0.91590 -0.03000
N 	N 	0.87620 0.47100 0.82190 -0.20000
N 	N 	0.88960 0.44030 0.98850 -0.22000
N 	N 	0.74080 0.38580 0.78950 -0.11900
N 	N 	0.79560 0.34350 0.08910 -0.18100
H 	H 	0.75600 0.30480 0.06630 0.12700
N 	N 	0.85590 0.36580 0.26360 -0.28100
H 	H 	0.79500 0.38070 0.31710 0.10600
H 	H 	0.89940 0.33090 0.32840 0.13500
N 	N 	0.64600 0.33570 0.72130 -0.22300
H 	H 	0.57350 0.35610 0.65820 0.11500
H 	H 	0.67590 0.30750 0.65050 0.11400
C 	C 	0.80560 0.38840 0.96050 0.15900
C 	C 	0.78590 0.43850 0.70500 0.08100
H 	H 	0.75680 0.44920 0.58410 -0.01500
Zn	Zn	0.00000 0.54598 0.75000 1.12500
Zn	Zn	-0.00000 0.45402 0.25000 1.12900
