data_crystal

_cell_length_a 10.60010
_cell_length_b 19.33090
_cell_length_c 7.93100
_cell_angle_alpha 90.00000
_cell_angle_beta  104.92800
_cell_angle_gamma 90.00000

_symmetry_space_group_name_	'P 1'
_symmetry_space_group_name_H-M	'P 1'

loop_
_symmetry_equiv_pos_as_xyz
  x,y,z

loop_
_atom_site_label
_atom_site_type_symbol
_atom_site_fract_x
_atom_site_fract_y
_atom_site_fract_z
_atom_site_charge
Mn	Mn	0.21135 0.19908 0.21798 1.22300
N 	N 	0.34280 0.22353 0.64520 -0.23700
N 	N 	0.32600 0.18733 0.48820 -0.25100
N 	N 	0.48970 0.14256 0.68250 -0.12200
N 	N 	0.59520 0.09815 0.75500 -0.22100
H 	H 	0.57240 0.06950 0.82980 0.10500
H 	H 	0.66360 0.12330 0.81090 0.11500
N 	N 	0.43230 0.09104 0.39880 -0.19700
H 	H 	0.47360 0.05270 0.42670 0.11600
N 	N 	0.37200 0.11113 0.22400 -0.29400
H 	H 	0.33390 0.07410 0.16290 0.09000
H 	H 	0.43310 0.12720 0.17350 0.09200
N 	N 	0.08180 0.22006 0.78800 -0.23300
N 	N 	0.09270 0.18824 0.94980 -0.25100
N 	N 	0.95900 0.12776 0.74850 -0.12300
N 	N 	0.87500 0.07269 0.67540 -0.22200
H 	H 	0.90930 0.04960 0.60080 0.10200
H 	H 	0.79770 0.08980 0.61890 0.11400
N 	N 	0.00670 0.08513 0.03950 -0.20100
H 	H 	0.96590 0.04660 0.01250 0.11700
N 	N 	0.06880 0.10454 0.21510 -0.29800
H 	H 	0.11420 0.06840 0.27180 0.09400
H 	H 	0.00780 0.11640 0.27070 0.09000
C 	C 	0.41720 0.13930 0.51690 0.15000
C 	C 	0.44030 0.19545 0.75680 0.07100
H 	H 	0.47200 0.20970 0.87190 -0.02300
C 	C 	0.01820 0.13294 0.91950 0.14900
C 	C 	0.00050 0.18284 0.67280 0.07100
H 	H 	0.97450 0.19280 0.55420 -0.02700
Mn	Mn	0.21135 0.30092 0.71798 1.22500
N 	N 	0.34280 0.27647 0.14520 -0.23700
N 	N 	0.32600 0.31267 0.98820 -0.25000
N 	N 	0.48970 0.35744 0.18250 -0.12200
N 	N 	0.59520 0.40185 0.25500 -0.22100
H 	H 	0.57240 0.43050 0.32980 0.10500
H 	H 	0.66360 0.37670 0.31090 0.11400
N 	N 	0.43230 0.40896 0.89880 -0.19700
H 	H 	0.47360 0.44730 0.92670 0.11600
N 	N 	0.37200 0.38887 0.72400 -0.29400
H 	H 	0.33390 0.42590 0.66290 0.09000
H 	H 	0.43310 0.37280 0.67350 0.09200
N 	N 	0.08180 0.27994 0.28800 -0.23300
N 	N 	0.09270 0.31176 0.44980 -0.25100
N 	N 	0.95900 0.37224 0.24850 -0.12300
N 	N 	0.87500 0.42731 0.17540 -0.22200
H 	H 	0.90930 0.45040 0.10080 0.10200
H 	H 	0.79770 0.41020 0.11890 0.11400
N 	N 	0.00670 0.41487 0.53950 -0.20000
H 	H 	0.96590 0.45340 0.51250 0.11700
N 	N 	0.06880 0.39546 0.71510 -0.29800
H 	H 	0.11420 0.43160 0.77180 0.09400
H 	H 	0.00780 0.38360 0.77070 0.09000
C 	C 	0.41720 0.36070 0.01690 0.14900
C 	C 	0.44030 0.30455 0.25680 0.07100
H 	H 	0.47200 0.29030 0.37190 -0.02300
C 	C 	0.01820 0.36706 0.41950 0.14800
C 	C 	0.00050 0.31716 0.17280 0.07100
H 	H 	0.97450 0.30720 0.05420 -0.02700
Mn	Mn	0.78865 0.69908 0.28202 1.22500
N 	N 	0.65720 0.72353 0.85480 -0.23700
N 	N 	0.67400 0.68733 0.01180 -0.25000
N 	N 	0.51030 0.64256 0.81750 -0.12200
N 	N 	0.40480 0.59815 0.74500 -0.22100
H 	H 	0.42760 0.56950 0.67020 0.10500
H 	H 	0.33640 0.62330 0.68910 0.11400
N 	N 	0.56770 0.59104 0.10120 -0.19700
H 	H 	0.52640 0.55270 0.07330 0.11600
N 	N 	0.62800 0.61113 0.27600 -0.29400
H 	H 	0.66610 0.57410 0.33710 0.09000
H 	H 	0.56690 0.62720 0.32650 0.09200
N 	N 	0.91820 0.72006 0.71200 -0.23300
N 	N 	0.90730 0.68824 0.55020 -0.25100
N 	N 	0.04100 0.62776 0.75150 -0.12300
N 	N 	0.12500 0.57269 0.82460 -0.22200
H 	H 	0.09070 0.54960 0.89920 0.10200
H 	H 	0.20230 0.58980 0.88110 0.11400
N 	N 	0.99330 0.58513 0.46050 -0.20000
H 	H 	0.03410 0.54660 0.48750 0.11700
N 	N 	0.93120 0.60454 0.28490 -0.29800
H 	H 	0.88580 0.56840 0.22820 0.09400
H 	H 	0.99220 0.61640 0.22930 0.09000
C 	C 	0.58280 0.63930 0.98310 0.14900
C 	C 	0.55970 0.69545 0.74320 0.07100
H 	H 	0.52800 0.70970 0.62810 -0.02300
C 	C 	0.98180 0.63294 0.58050 0.14800
C 	C 	0.99950 0.68284 0.82720 0.07100
H 	H 	0.02550 0.69280 0.94580 -0.02700
Mn	Mn	0.78865 0.80092 0.78202 1.22400
N 	N 	0.65720 0.77647 0.35480 -0.23600
N 	N 	0.67400 0.81267 0.51180 -0.25100
N 	N 	0.51030 0.85744 0.31750 -0.12200
N 	N 	0.40480 0.90185 0.24500 -0.22100
H 	H 	0.42760 0.93050 0.17020 0.10500
H 	H 	0.33640 0.87670 0.18910 0.11500
N 	N 	0.56770 0.90896 0.60120 -0.19700
H 	H 	0.52640 0.94730 0.57330 0.11600
N 	N 	0.62800 0.88887 0.77600 -0.29400
H 	H 	0.66610 0.92590 0.83710 0.09000
H 	H 	0.56690 0.87280 0.82650 0.09200
N 	N 	0.91820 0.77994 0.21200 -0.23300
N 	N 	0.90730 0.81176 0.05020 -0.25100
N 	N 	0.04100 0.87224 0.25150 -0.12300
N 	N 	0.12500 0.92731 0.32460 -0.22200
H 	H 	0.09070 0.95040 0.39920 0.10200
H 	H 	0.20230 0.91020 0.38110 0.11400
N 	N 	0.99330 0.91487 0.96050 -0.20100
H 	H 	0.03410 0.95340 0.98750 0.11700
N 	N 	0.93120 0.89546 0.78490 -0.29800
H 	H 	0.88580 0.93160 0.72820 0.09400
H 	H 	0.99220 0.88360 0.72930 0.09000
C 	C 	0.58280 0.86070 0.48310 0.15000
C 	C 	0.55970 0.80455 0.24320 0.07100
H 	H 	0.52800 0.79030 0.12810 -0.02300
C 	C 	0.98180 0.86706 0.08050 0.14900
C 	C 	0.99950 0.81716 0.32720 0.07100
H 	H 	0.02550 0.80720 0.44580 -0.02700
