data_crystal

_cell_length_a 21.49110
_cell_length_b 23.28080
_cell_length_c 12.27290
_cell_angle_alpha 90.00000
_cell_angle_beta  119.76300
_cell_angle_gamma 90.00000

_symmetry_space_group_name_	'P 1'
_symmetry_space_group_name_H-M	'P 1'

loop_
_symmetry_equiv_pos_as_xyz
  x,y,z

loop_
_atom_site_label
_atom_site_type_symbol
_atom_site_fract_x
_atom_site_fract_y
_atom_site_fract_z
_atom_site_charge
Co	Co	0.21540 0.34170 0.22134 1.01700
N 	N 	0.21530 0.25060 0.21940 -0.24900
N 	N 	0.22750 0.21740 0.31830 -0.21700
N 	N 	0.21330 0.16360 0.16710 -0.12100
N 	N 	0.20740 0.11440 0.09060 -0.21000
H 	H 	0.17440 0.12100 0.01100 0.08200
H 	H 	0.24980 0.10900 0.09580 0.07500
N 	N 	0.15290 0.34480 0.30950 -0.25200
N 	N 	0.16420 0.31230 0.41200 -0.21800
N 	N 	0.07780 0.36920 0.37160 -0.11500
N 	N 	0.02050 0.39900 0.37110 -0.22500
H 	H 	0.00230 0.37700 0.40790 0.10100
H 	H 	0.03700 0.43150 0.41420 0.10000
N 	N 	0.31210 0.34400 0.39940 -0.24300
N 	N 	0.32360 0.31060 0.49740 -0.22200
N 	N 	0.41500 0.36570 0.55230 -0.11100
N 	N 	0.48150 0.39450 0.62100 -0.21500
H 	H 	0.51390 0.37030 0.67610 0.10100
H 	H 	0.47630 0.42410 0.66150 0.10400
C 	C 	0.22460 0.16380 0.28450 0.08600
H 	H 	0.22960 0.13170 0.33320 -0.01500
C 	C 	0.20760 0.21830 0.13100 0.08500
H 	H 	0.19930 0.23070 0.05280 -0.06100
C 	C 	0.11980 0.32780 0.45040 0.07500
H 	H 	0.11760 0.31310 0.51890 -0.01700
C 	C 	0.09900 0.37930 0.28850 0.07300
H 	H 	0.07890 0.40650 0.22480 -0.05100
C 	C 	0.38630 0.32320 0.59080 0.07800
H 	H 	0.40790 0.30630 0.66990 -0.02000
C 	C 	0.36680 0.37830 0.43570 0.08200
H 	H 	0.37110 0.40710 0.38720 -0.04100
Co	Co	0.28460 0.15830 0.77866 1.01500
N 	N 	0.28470 0.24940 0.78060 -0.25000
N 	N 	0.27250 0.28260 0.68170 -0.21800
N 	N 	0.28670 0.33640 0.83290 -0.12200
N 	N 	0.29260 0.38560 0.90940 -0.21000
H 	H 	0.32560 0.37900 0.98900 0.08100
H 	H 	0.25020 0.39100 0.90420 0.07500
N 	N 	0.34710 0.15520 0.69050 -0.25200
N 	N 	0.33580 0.18770 0.58800 -0.21800
N 	N 	0.42220 0.13080 0.62840 -0.11500
N 	N 	0.47950 0.10100 0.62890 -0.22500
H 	H 	0.49770 0.12300 0.59210 0.10100
H 	H 	0.46300 0.06850 0.58580 0.10000
N 	N 	0.18790 0.15600 0.60060 -0.24300
N 	N 	0.17640 0.18940 0.50260 -0.22200
N 	N 	0.08500 0.13430 0.44770 -0.11100
N 	N 	0.01850 0.10550 0.37900 -0.21400
H 	H 	0.98610 0.12970 0.32390 0.10000
H 	H 	0.02370 0.07590 0.33850 0.10400
C 	C 	0.27540 0.33620 0.71550 0.08600
H 	H 	0.27040 0.36830 0.66680 -0.01500
C 	C 	0.29240 0.28170 0.86900 0.08500
H 	H 	0.30070 0.26930 0.94720 -0.06100
C 	C 	0.38020 0.17220 0.54960 0.07500
H 	H 	0.38240 0.18690 0.48110 -0.01700
C 	C 	0.40100 0.12070 0.71150 0.07300
H 	H 	0.42110 0.09350 0.77520 -0.05100
C 	C 	0.11370 0.17680 0.40920 0.07800
H 	H 	0.09210 0.19370 0.33010 -0.02000
C 	C 	0.13320 0.12170 0.56430 0.08200
H 	H 	0.12890 0.09290 0.61280 -0.04100
Co	Co	0.25000 0.25000 0.50000 1.09700
Co	Co	0.71540 0.84170 0.22134 1.01500
N 	N 	0.71530 0.75060 0.21940 -0.25000
N 	N 	0.72750 0.71740 0.31830 -0.21800
N 	N 	0.71330 0.66360 0.16710 -0.12200
N 	N 	0.70740 0.61440 0.09060 -0.21000
H 	H 	0.67440 0.62100 0.01100 0.08100
H 	H 	0.74980 0.60900 0.09580 0.07500
N 	N 	0.65290 0.84480 0.30950 -0.25200
N 	N 	0.66420 0.81230 0.41200 -0.21800
N 	N 	0.57780 0.86920 0.37160 -0.11500
N 	N 	0.52050 0.89900 0.37110 -0.22500
H 	H 	0.50230 0.87700 0.40790 0.10100
H 	H 	0.53700 0.93150 0.41420 0.10000
N 	N 	0.81210 0.84400 0.39940 -0.24300
N 	N 	0.82360 0.81060 0.49740 -0.22200
N 	N 	0.91500 0.86570 0.55230 -0.11100
N 	N 	0.98150 0.89450 0.62100 -0.21400
H 	H 	0.01390 0.87030 0.67610 0.10000
H 	H 	0.97630 0.92410 0.66150 0.10400
C 	C 	0.72460 0.66380 0.28450 0.08600
H 	H 	0.72960 0.63170 0.33320 -0.01500
C 	C 	0.70760 0.71830 0.13100 0.08500
H 	H 	0.69930 0.73070 0.05280 -0.06100
C 	C 	0.61980 0.82780 0.45040 0.07500
H 	H 	0.61760 0.81310 0.51890 -0.01700
C 	C 	0.59900 0.87930 0.28850 0.07300
H 	H 	0.57890 0.90650 0.22480 -0.05100
C 	C 	0.88630 0.82320 0.59080 0.07800
H 	H 	0.90790 0.80630 0.66990 -0.02000
C 	C 	0.86680 0.87830 0.43570 0.08200
H 	H 	0.87110 0.90710 0.38720 -0.04100
Co	Co	0.78460 0.65830 0.77866 1.01600
N 	N 	0.78470 0.74940 0.78060 -0.25000
N 	N 	0.77250 0.78260 0.68170 -0.21800
N 	N 	0.78670 0.83640 0.83290 -0.12200
N 	N 	0.79260 0.88560 0.90940 -0.21000
H 	H 	0.82560 0.87900 0.98900 0.08200
H 	H 	0.75020 0.89100 0.90420 0.07500
N 	N 	0.84710 0.65520 0.69050 -0.25200
N 	N 	0.83580 0.68770 0.58800 -0.21800
N 	N 	0.92220 0.63080 0.62840 -0.11500
N 	N 	0.97950 0.60100 0.62890 -0.22500
H 	H 	0.99770 0.62300 0.59210 0.10100
H 	H 	0.96300 0.56850 0.58580 0.10000
N 	N 	0.68790 0.65600 0.60060 -0.24300
N 	N 	0.67640 0.68940 0.50260 -0.22200
N 	N 	0.58500 0.63430 0.44770 -0.11100
N 	N 	0.51850 0.60550 0.37900 -0.21500
H 	H 	0.48610 0.62970 0.32390 0.10100
H 	H 	0.52370 0.57590 0.33850 0.10400
C 	C 	0.77540 0.83620 0.71550 0.08600
H 	H 	0.77040 0.86830 0.66680 -0.01500
C 	C 	0.79240 0.78170 0.86900 0.08500
H 	H 	0.80070 0.76930 0.94720 -0.06100
C 	C 	0.88020 0.67220 0.54960 0.07500
H 	H 	0.88240 0.68690 0.48110 -0.01700
C 	C 	0.90100 0.62070 0.71150 0.07300
H 	H 	0.92110 0.59350 0.77520 -0.05100
C 	C 	0.61370 0.67680 0.40920 0.07800
H 	H 	0.59210 0.69370 0.33010 -0.02000
C 	C 	0.63320 0.62170 0.56430 0.08200
H 	H 	0.62890 0.59290 0.61280 -0.04100
Co	Co	0.75000 0.75000 0.50000 1.09700
Co	Co	0.78460 0.34170 0.77866 1.01600
N 	N 	0.78470 0.25060 0.78060 -0.25000
N 	N 	0.77250 0.21740 0.68170 -0.21800
N 	N 	0.78670 0.16360 0.83290 -0.12200
N 	N 	0.79260 0.11440 0.90940 -0.21000
H 	H 	0.82560 0.12100 0.98900 0.08200
H 	H 	0.75020 0.10900 0.90420 0.07500
N 	N 	0.84710 0.34480 0.69050 -0.25200
N 	N 	0.83580 0.31230 0.58800 -0.21800
N 	N 	0.92220 0.36920 0.62840 -0.11500
N 	N 	0.97950 0.39900 0.62890 -0.22500
H 	H 	0.99770 0.37700 0.59210 0.10100
H 	H 	0.96300 0.43150 0.58580 0.10000
N 	N 	0.68790 0.34400 0.60060 -0.24300
N 	N 	0.67640 0.31060 0.50260 -0.22200
N 	N 	0.58500 0.36570 0.44770 -0.11100
N 	N 	0.51850 0.39450 0.37900 -0.21500
H 	H 	0.48610 0.37030 0.32390 0.10100
H 	H 	0.52370 0.42410 0.33850 0.10400
C 	C 	0.77540 0.16380 0.71550 0.08600
H 	H 	0.77040 0.13170 0.66680 -0.01500
C 	C 	0.79240 0.21830 0.86900 0.08500
H 	H 	0.80070 0.23070 0.94720 -0.06100
C 	C 	0.88020 0.32780 0.54960 0.07500
H 	H 	0.88240 0.31310 0.48110 -0.01700
C 	C 	0.90100 0.37930 0.71150 0.07300
H 	H 	0.92110 0.40650 0.77520 -0.05100
C 	C 	0.61370 0.32320 0.40920 0.07800
H 	H 	0.59210 0.30630 0.33010 -0.02000
C 	C 	0.63320 0.37830 0.56430 0.08200
H 	H 	0.62890 0.40710 0.61280 -0.04100
Co	Co	0.71540 0.15830 0.22134 1.01500
N 	N 	0.71530 0.24940 0.21940 -0.25000
N 	N 	0.72750 0.28260 0.31830 -0.21800
N 	N 	0.71330 0.33640 0.16710 -0.12200
N 	N 	0.70740 0.38560 0.09060 -0.21000
H 	H 	0.67440 0.37900 0.01100 0.08100
H 	H 	0.74980 0.39100 0.09580 0.07500
N 	N 	0.65290 0.15520 0.30950 -0.25200
N 	N 	0.66420 0.18770 0.41200 -0.21800
N 	N 	0.57780 0.13080 0.37160 -0.11500
N 	N 	0.52050 0.10100 0.37110 -0.22500
H 	H 	0.50230 0.12300 0.40790 0.10100
H 	H 	0.53700 0.06850 0.41420 0.10000
N 	N 	0.81210 0.15600 0.39940 -0.24300
N 	N 	0.82360 0.18940 0.49740 -0.22200
N 	N 	0.91500 0.13430 0.55230 -0.11100
N 	N 	0.98150 0.10550 0.62100 -0.21400
H 	H 	0.01390 0.12970 0.67610 0.10000
H 	H 	0.97630 0.07590 0.66150 0.10400
C 	C 	0.72460 0.33620 0.28450 0.08600
H 	H 	0.72960 0.36830 0.33320 -0.01500
C 	C 	0.70760 0.28170 0.13100 0.08500
H 	H 	0.69930 0.26930 0.05280 -0.06100
C 	C 	0.61980 0.17220 0.45040 0.07500
H 	H 	0.61760 0.18690 0.51890 -0.01700
C 	C 	0.59900 0.12070 0.28850 0.07300
H 	H 	0.57890 0.09350 0.22480 -0.05100
C 	C 	0.88630 0.17680 0.59080 0.07800
H 	H 	0.90790 0.19370 0.66990 -0.02000
C 	C 	0.86680 0.12170 0.43570 0.08200
H 	H 	0.87110 0.09290 0.38720 -0.04100
Co	Co	0.75000 0.25000 0.50000 1.09700
Co	Co	0.28460 0.84170 0.77866 1.01500
N 	N 	0.28470 0.75060 0.78060 -0.25000
N 	N 	0.27250 0.71740 0.68170 -0.21800
N 	N 	0.28670 0.66360 0.83290 -0.12200
N 	N 	0.29260 0.61440 0.90940 -0.21000
H 	H 	0.32560 0.62100 0.98900 0.08100
H 	H 	0.25020 0.60900 0.90420 0.07500
N 	N 	0.34710 0.84480 0.69050 -0.25200
N 	N 	0.33580 0.81230 0.58800 -0.21800
N 	N 	0.42220 0.86920 0.62840 -0.11500
N 	N 	0.47950 0.89900 0.62890 -0.22500
H 	H 	0.49770 0.87700 0.59210 0.10100
H 	H 	0.46300 0.93150 0.58580 0.10000
N 	N 	0.18790 0.84400 0.60060 -0.24300
N 	N 	0.17640 0.81060 0.50260 -0.22200
N 	N 	0.08500 0.86570 0.44770 -0.11100
N 	N 	0.01850 0.89450 0.37900 -0.21400
H 	H 	0.98610 0.87030 0.32390 0.10000
H 	H 	0.02370 0.92410 0.33850 0.10400
C 	C 	0.27540 0.66380 0.71550 0.08600
H 	H 	0.27040 0.63170 0.66680 -0.01500
C 	C 	0.29240 0.71830 0.86900 0.08500
H 	H 	0.30070 0.73070 0.94720 -0.06100
C 	C 	0.38020 0.82780 0.54960 0.07500
H 	H 	0.38240 0.81310 0.48110 -0.01700
C 	C 	0.40100 0.87930 0.71150 0.07300
H 	H 	0.42110 0.90650 0.77520 -0.05100
C 	C 	0.11370 0.82320 0.40920 0.07800
H 	H 	0.09210 0.80630 0.33010 -0.02000
C 	C 	0.13320 0.87830 0.56430 0.08200
H 	H 	0.12890 0.90710 0.61280 -0.04100
Co	Co	0.21540 0.65830 0.22134 1.01600
N 	N 	0.21530 0.74940 0.21940 -0.25000
N 	N 	0.22750 0.78260 0.31830 -0.21800
N 	N 	0.21330 0.83640 0.16710 -0.12200
N 	N 	0.20740 0.88560 0.09060 -0.21000
H 	H 	0.17440 0.87900 0.01100 0.08200
H 	H 	0.24980 0.89100 0.09580 0.07500
N 	N 	0.15290 0.65520 0.30950 -0.25200
N 	N 	0.16420 0.68770 0.41200 -0.21800
N 	N 	0.07780 0.63080 0.37160 -0.11500
N 	N 	0.02050 0.60100 0.37110 -0.22500
H 	H 	0.00230 0.62300 0.40790 0.10100
H 	H 	0.03700 0.56850 0.41420 0.10000
N 	N 	0.31210 0.65600 0.39940 -0.24300
N 	N 	0.32360 0.68940 0.49740 -0.22200
N 	N 	0.41500 0.63430 0.55230 -0.11100
N 	N 	0.48150 0.60550 0.62100 -0.21500
H 	H 	0.51390 0.62970 0.67610 0.10100
H 	H 	0.47630 0.57590 0.66150 0.10400
C 	C 	0.22460 0.83620 0.28450 0.08600
H 	H 	0.22960 0.86830 0.33320 -0.01500
C 	C 	0.20760 0.78170 0.13100 0.08500
H 	H 	0.19930 0.76930 0.05280 -0.06100
C 	C 	0.11980 0.67220 0.45040 0.07500
H 	H 	0.11760 0.68690 0.51890 -0.01700
C 	C 	0.09900 0.62070 0.28850 0.07300
H 	H 	0.07890 0.59350 0.22480 -0.05100
C 	C 	0.38630 0.67680 0.59080 0.07800
H 	H 	0.40790 0.69370 0.66990 -0.02000
C 	C 	0.36680 0.62170 0.43570 0.08200
H 	H 	0.37110 0.59290 0.38720 -0.04100
Co	Co	0.25000 0.75000 0.50000 1.09700
