data_crystal

_cell_length_a 8.87670
_cell_length_b 8.62190
_cell_length_c 13.14570
_cell_angle_alpha 90.00000
_cell_angle_beta  91.37200
_cell_angle_gamma 90.00000

_symmetry_space_group_name_	'P 1'
_symmetry_space_group_name_H-M	'P 1'

loop_
_symmetry_equiv_pos_as_xyz
  x,y,z

loop_
_atom_site_label
_atom_site_type_symbol
_atom_site_fract_x
_atom_site_fract_y
_atom_site_fract_z
_atom_site_charge
Zn	Zn	0.29619 0.65077 0.70738 1.17100
Cl	Cl	0.08197 0.69629 0.78287 -0.58800
N 	N 	0.42820 0.52149 0.79905 -0.24500
N 	N 	0.58290 0.33269 0.83555 -0.25100
N 	N 	0.50640 0.40501 0.76148 -0.10300
C 	C 	0.45370 0.52800 0.90253 0.07300
C 	C 	0.55290 0.40510 0.92635 0.06200
C 	C 	0.60350 0.37120 0.02495 -0.17500
H 	H 	0.66870 0.28980 0.04080 0.05700
Zn	Zn	0.70381 0.15077 0.79262 1.17100
Cl	Cl	0.91803 0.19629 0.71713 -0.58900
N 	N 	0.57180 0.02149 0.70095 -0.24600
N 	N 	0.41710 0.83269 0.66445 -0.25100
N 	N 	0.49360 0.90501 0.73852 -0.10300
C 	C 	0.54630 0.02800 0.59747 0.07300
C 	C 	0.44710 0.90510 0.57365 0.06400
C 	C 	0.39650 0.87120 0.47505 -0.17600
H 	H 	0.33130 0.78980 0.45920 0.05600
Zn	Zn	0.70381 0.34923 0.29262 1.17100
Cl	Cl	0.91803 0.30371 0.21713 -0.58800
N 	N 	0.57180 0.47851 0.20095 -0.24500
N 	N 	0.41710 0.66731 0.16445 -0.25100
N 	N 	0.49360 0.59499 0.23852 -0.10300
C 	C 	0.54630 0.47200 0.09747 0.07300
C 	C 	0.44710 0.59490 0.07365 0.06200
C 	C 	0.39650 0.62880 0.97505 -0.17500
H 	H 	0.33130 0.71020 0.95920 0.05700
Zn	Zn	0.29619 0.84923 0.20738 1.17100
Cl	Cl	0.08197 0.80371 0.28287 -0.58900
N 	N 	0.42820 0.97851 0.29905 -0.24600
N 	N 	0.58290 0.16731 0.33555 -0.25100
N 	N 	0.50640 0.09499 0.26148 -0.10300
C 	C 	0.45370 0.97200 0.40253 0.07300
C 	C 	0.55290 0.09490 0.42635 0.06400
C 	C 	0.60350 0.12880 0.52495 -0.17600
H 	H 	0.66870 0.21020 0.54080 0.05600
