data_crystal

_cell_length_a 16.86100
_cell_length_b 15.80500
_cell_length_c 13.91310
_cell_angle_alpha 90.00000
_cell_angle_beta  90.00000
_cell_angle_gamma 90.00000

_symmetry_space_group_name_	'P 1'
_symmetry_space_group_name_H-M	'P 1'

loop_
_symmetry_equiv_pos_as_xyz
  x,y,z

loop_
_atom_site_label
_atom_site_type_symbol
_atom_site_fract_x
_atom_site_fract_y
_atom_site_fract_z
_atom_site_charge
Ag	Ag	0.15763 0.23487 0.33176 0.47100
Ag	Ag	0.40196 0.72294 0.26762 0.47600
N 	N 	0.29910 0.66680 0.17440 -0.13500
N 	N 	0.34060 0.81470 0.37670 -0.20100
N 	N 	0.23660 0.27840 0.45130 -0.14000
N 	N 	0.27440 0.14000 0.24480 -0.16700
C 	C 	0.31590 0.29430 0.40690 -0.05400
H 	H 	0.33700 0.24070 0.38040 0.03600
H 	H 	0.35320 0.31460 0.45670 0.03300
C 	C 	0.36120 0.01820 0.46500 -0.02100
H 	H 	0.41470 0.99950 0.46560 0.02100
C 	C 	0.20460 0.85440 0.14670 -0.09000
H 	H 	0.15680 0.82300 0.14020 0.04600
C 	C 	0.33520 0.51780 0.21280 -0.12900
H 	H 	0.38280 0.53460 0.24980 0.02700
H 	H 	0.34600 0.46230 0.18250 0.04700
C 	C 	0.34460 0.94470 0.16530 -0.02000
H 	H 	0.39250 0.97600 0.17140 0.02000
C 	C 	0.34710 0.86270 0.13470 -0.10700
H 	H 	0.39670 0.83730 0.12030 0.01800
C 	C 	0.34100 0.09920 0.49560 -0.08900
H 	H 	0.38160 0.13620 0.51730 0.03800
C 	C 	0.24450 0.59790 0.32090 -0.12300
H 	H 	0.28980 0.61850 0.35960 0.03200
H 	H 	0.19760 0.59440 0.36350 0.04700
C 	C 	0.20190 0.93870 0.17860 -0.02100
H 	H 	0.15260 0.96460 0.19360 0.02100
C 	C 	0.19970 0.42780 0.41720 -0.11500
H 	H 	0.18140 0.48100 0.44760 0.04300
H 	H 	0.15870 0.40970 0.37060 0.01500
C 	C 	0.26340 0.12690 0.49520 0.04600
C 	C 	0.31010 0.35980 0.32690 -0.11800
H 	H 	0.27530 0.33790 0.27530 0.02600
H 	H 	0.36340 0.36920 0.29910 0.04500
C 	C 	0.27680 0.44450 0.36400 -0.01600
H 	H 	0.31570 0.46900 0.41050 0.02000
C 	C 	0.20850 0.36030 0.49410 -0.05400
H 	H 	0.24690 0.37960 0.54320 0.03300
H 	H 	0.15680 0.35130 0.52620 0.01400
C 	C 	0.26360 0.50990 0.28130 -0.00500
H 	H 	0.21700 0.49060 0.24260 0.01500
C 	C 	0.32070 0.87970 0.40100 0.07100
C 	C 	0.22160 0.99110 0.43240 -0.01500
H 	H 	0.18080 0.95410 0.41090 0.02600
C 	C 	0.20300 0.07210 0.46320 -0.09700
H 	H 	0.14950 0.09080 0.46280 0.02400
C 	C 	0.29910 0.96440 0.43300 -0.03400
C 	C 	0.22770 0.66060 0.23900 -0.05300
H 	H 	0.18130 0.64110 0.20140 0.03400
H 	H 	0.21530 0.71690 0.26610 0.03300
C 	C 	0.24320 0.21590 0.53050 -0.12100
H 	H 	0.19230 0.21400 0.56600 0.04800
H 	H 	0.28480 0.23490 0.57590 0.04400
C 	C 	0.28160 0.72460 0.09360 -0.12900
H 	H 	0.23020 0.70840 0.06450 0.05600
H 	H 	0.32310 0.71810 0.04390 0.04600
C 	C 	0.31860 0.58340 0.13510 -0.04000
H 	H 	0.36580 0.58860 0.09320 0.00800
H 	H 	0.27380 0.56360 0.09490 0.03100
C 	C 	0.27780 0.81600 0.12420 0.04800
C 	C 	0.27170 0.98330 0.18810 -0.02900
C 	C 	0.27280 0.06870 0.21770 0.05000
Ag	Ag	0.84237 0.76513 0.83176 0.47100
Ag	Ag	0.59804 0.27706 0.76762 0.47600
N 	N 	0.70090 0.33320 0.67440 -0.13500
N 	N 	0.65940 0.18530 0.87670 -0.20100
N 	N 	0.76340 0.72160 0.95130 -0.14100
N 	N 	0.72560 0.86000 0.74480 -0.16800
C 	C 	0.68410 0.70570 0.90690 -0.05400
H 	H 	0.66300 0.75930 0.88040 0.03600
H 	H 	0.64680 0.68540 0.95670 0.03400
C 	C 	0.63880 0.98180 0.96500 -0.02800
H 	H 	0.58530 0.00050 0.96560 0.02400
C 	C 	0.79540 0.14560 0.64670 -0.09100
H 	H 	0.84320 0.17700 0.64020 0.04800
C 	C 	0.66480 0.48220 0.71280 -0.12700
H 	H 	0.61720 0.46540 0.74980 0.02700
H 	H 	0.65400 0.53770 0.68250 0.04700
C 	C 	0.65540 0.05530 0.66530 -0.01900
H 	H 	0.60750 0.02400 0.67140 0.02100
C 	C 	0.65290 0.13730 0.63470 -0.10800
H 	H 	0.60330 0.16270 0.62030 0.01900
C 	C 	0.65900 0.90080 0.99560 -0.07500
H 	H 	0.61840 0.86380 0.01730 0.02800
C 	C 	0.75550 0.40210 0.82090 -0.12200
H 	H 	0.71020 0.38150 0.85960 0.03300
H 	H 	0.80240 0.40560 0.86350 0.04800
C 	C 	0.79810 0.06130 0.67860 -0.01900
H 	H 	0.84740 0.03540 0.69360 0.02200
C 	C 	0.80030 0.57220 0.91720 -0.13100
H 	H 	0.81860 0.51900 0.94760 0.05000
H 	H 	0.84130 0.59030 0.87060 0.02000
C 	C 	0.73660 0.87310 0.99520 0.04900
C 	C 	0.68990 0.64020 0.82690 -0.12100
H 	H 	0.72470 0.66210 0.77530 0.02700
H 	H 	0.63660 0.63080 0.79910 0.04700
C 	C 	0.72320 0.55550 0.86400 -0.00900
H 	H 	0.68430 0.53100 0.91050 0.02000
C 	C 	0.79150 0.63970 0.99410 -0.02100
H 	H 	0.75310 0.62040 0.04320 0.01900
H 	H 	0.84320 0.64870 0.02620 0.00000
C 	C 	0.73640 0.49010 0.78130 -0.00700
H 	H 	0.78300 0.50940 0.74260 0.01600
C 	C 	0.67930 0.12030 0.90100 0.07200
C 	C 	0.77840 0.00890 0.93240 -0.01600
H 	H 	0.81920 0.04590 0.91090 0.02800
C 	C 	0.79700 0.92790 0.96320 -0.09600
H 	H 	0.85050 0.90920 0.96280 0.02600
C 	C 	0.70090 0.03560 0.93300 -0.03100
C 	C 	0.77230 0.33940 0.73900 -0.05300
H 	H 	0.81870 0.35890 0.70140 0.03500
H 	H 	0.78470 0.28310 0.76610 0.03300
C 	C 	0.75680 0.78410 0.03050 -0.13300
H 	H 	0.80770 0.78600 0.06600 0.04900
H 	H 	0.71520 0.76510 0.07590 0.04500
C 	C 	0.71840 0.27540 0.59360 -0.13100
H 	H 	0.76980 0.29160 0.56450 0.05900
H 	H 	0.67690 0.28190 0.54390 0.04900
C 	C 	0.68140 0.41660 0.63510 -0.04200
H 	H 	0.63420 0.41140 0.59320 0.01100
H 	H 	0.72620 0.43640 0.59490 0.03300
C 	C 	0.72220 0.18400 0.62420 0.05100
C 	C 	0.72830 0.01670 0.68810 -0.02900
C 	C 	0.72720 0.93130 0.71770 0.05200
Ag	Ag	0.65763 0.76513 0.33176 0.47000
Ag	Ag	0.90196 0.27706 0.26762 0.47600
N 	N 	0.79910 0.33320 0.17440 -0.13600
N 	N 	0.84060 0.18530 0.37670 -0.20200
N 	N 	0.73660 0.72160 0.45130 -0.14100
N 	N 	0.77440 0.86000 0.24480 -0.16800
C 	C 	0.81590 0.70570 0.40690 -0.05500
H 	H 	0.83700 0.75930 0.38040 0.03500
H 	H 	0.85320 0.68540 0.45670 0.03200
C 	C 	0.86120 0.98180 0.46500 -0.02200
H 	H 	0.91470 0.00050 0.46560 0.02000
C 	C 	0.70460 0.14560 0.14670 -0.09000
H 	H 	0.65680 0.17700 0.14020 0.04600
C 	C 	0.83520 0.48220 0.21280 -0.12900
H 	H 	0.88280 0.46540 0.24980 0.02700
H 	H 	0.84600 0.53770 0.18250 0.04700
C 	C 	0.84460 0.05530 0.16530 -0.02000
H 	H 	0.89250 0.02400 0.17140 0.02100
C 	C 	0.84710 0.13730 0.13470 -0.10700
H 	H 	0.89670 0.16270 0.12030 0.01800
C 	C 	0.84100 0.90080 0.49560 -0.08900
H 	H 	0.88160 0.86380 0.51730 0.03800
C 	C 	0.74450 0.40210 0.32090 -0.12300
H 	H 	0.78980 0.38150 0.35960 0.03200
H 	H 	0.69760 0.40560 0.36350 0.04700
C 	C 	0.70190 0.06130 0.17860 -0.02100
H 	H 	0.65260 0.03540 0.19360 0.02100
C 	C 	0.69970 0.57220 0.41720 -0.11500
H 	H 	0.68140 0.51900 0.44760 0.04300
H 	H 	0.65870 0.59030 0.37060 0.01500
C 	C 	0.76340 0.87310 0.49520 0.04600
C 	C 	0.81010 0.64020 0.32690 -0.11800
H 	H 	0.77530 0.66210 0.27530 0.02600
H 	H 	0.86340 0.63080 0.29910 0.04500
C 	C 	0.77680 0.55550 0.36400 -0.01600
H 	H 	0.81570 0.53100 0.41050 0.02100
C 	C 	0.70850 0.63970 0.49410 -0.05400
H 	H 	0.74690 0.62040 0.54320 0.03300
H 	H 	0.65680 0.64870 0.52620 0.01400
C 	C 	0.76360 0.49010 0.28130 -0.00400
H 	H 	0.71700 0.50940 0.24260 0.01500
C 	C 	0.82070 0.12030 0.40100 0.07100
C 	C 	0.72160 0.00890 0.43240 -0.01500
H 	H 	0.68080 0.04590 0.41090 0.02600
C 	C 	0.70300 0.92790 0.46320 -0.09700
H 	H 	0.64950 0.90920 0.46280 0.02400
C 	C 	0.79910 0.03560 0.43300 -0.03400
C 	C 	0.72770 0.33940 0.23900 -0.05300
H 	H 	0.68130 0.35890 0.20140 0.03400
H 	H 	0.71530 0.28310 0.26610 0.03200
C 	C 	0.74320 0.78410 0.53050 -0.12100
H 	H 	0.69230 0.78600 0.56600 0.04800
H 	H 	0.78480 0.76510 0.57590 0.04400
C 	C 	0.78160 0.27540 0.09360 -0.12900
H 	H 	0.73020 0.29160 0.06450 0.05600
H 	H 	0.82310 0.28190 0.04390 0.04600
C 	C 	0.81860 0.41660 0.13510 -0.04000
H 	H 	0.86580 0.41140 0.09320 0.00900
H 	H 	0.77380 0.43640 0.09490 0.03100
C 	C 	0.77780 0.18400 0.12420 0.04900
C 	C 	0.77170 0.01670 0.18810 -0.02900
C 	C 	0.77280 0.93130 0.21770 0.05000
Ag	Ag	0.34237 0.23487 0.83176 0.47100
Ag	Ag	0.09804 0.72294 0.76762 0.47600
N 	N 	0.20090 0.66680 0.67440 -0.13500
N 	N 	0.15940 0.81470 0.87670 -0.20100
N 	N 	0.26340 0.27840 0.95130 -0.14100
N 	N 	0.22560 0.14000 0.74480 -0.16800
C 	C 	0.18410 0.29430 0.90690 -0.05400
H 	H 	0.16300 0.24070 0.88040 0.03600
H 	H 	0.14680 0.31460 0.95670 0.03400
C 	C 	0.13880 0.01820 0.96500 -0.02800
H 	H 	0.08530 0.99950 0.96560 0.02400
C 	C 	0.29540 0.85440 0.64670 -0.09000
H 	H 	0.34320 0.82300 0.64020 0.04800
C 	C 	0.16480 0.51780 0.71280 -0.12700
H 	H 	0.11720 0.53460 0.74980 0.02700
H 	H 	0.15400 0.46230 0.68250 0.04700
C 	C 	0.15540 0.94470 0.66530 -0.01900
H 	H 	0.10750 0.97600 0.67140 0.02100
C 	C 	0.15290 0.86270 0.63470 -0.10800
H 	H 	0.10330 0.83730 0.62030 0.01900
C 	C 	0.15900 0.09920 0.99560 -0.07500
H 	H 	0.11840 0.13620 0.01730 0.02800
C 	C 	0.25550 0.59790 0.82090 -0.12200
H 	H 	0.21020 0.61850 0.85960 0.03300
H 	H 	0.30240 0.59440 0.86350 0.04800
C 	C 	0.29810 0.93870 0.67860 -0.01900
H 	H 	0.34740 0.96460 0.69360 0.02200
C 	C 	0.30030 0.42780 0.91720 -0.13200
H 	H 	0.31860 0.48100 0.94760 0.05000
H 	H 	0.34130 0.40970 0.87060 0.02000
C 	C 	0.23660 0.12690 0.99520 0.04900
C 	C 	0.18990 0.35980 0.82690 -0.12100
H 	H 	0.22470 0.33790 0.77530 0.02700
H 	H 	0.13660 0.36920 0.79910 0.04700
C 	C 	0.22320 0.44450 0.86400 -0.00900
H 	H 	0.18430 0.46900 0.91050 0.02000
C 	C 	0.29150 0.36030 0.99410 -0.02100
H 	H 	0.25310 0.37960 0.04320 0.01900
H 	H 	0.34320 0.35130 0.02620 -0.00000
C 	C 	0.23640 0.50990 0.78130 -0.00700
H 	H 	0.28300 0.49060 0.74260 0.01600
C 	C 	0.17930 0.87970 0.90100 0.07200
C 	C 	0.27840 0.99110 0.93240 -0.01600
H 	H 	0.31920 0.95410 0.91090 0.02800
C 	C 	0.29700 0.07210 0.96320 -0.09600
H 	H 	0.35050 0.09080 0.96280 0.02600
C 	C 	0.20090 0.96440 0.93300 -0.03100
C 	C 	0.27230 0.66060 0.73900 -0.05300
H 	H 	0.31870 0.64110 0.70140 0.03500
H 	H 	0.28470 0.71690 0.76610 0.03300
C 	C 	0.25680 0.21590 0.03050 -0.13300
H 	H 	0.30770 0.21400 0.06600 0.04900
H 	H 	0.21520 0.23490 0.07590 0.04500
C 	C 	0.21840 0.72460 0.59360 -0.13100
H 	H 	0.26980 0.70840 0.56450 0.05900
H 	H 	0.17690 0.71810 0.54390 0.04900
C 	C 	0.18140 0.58340 0.63510 -0.04200
H 	H 	0.13420 0.58860 0.59320 0.01100
H 	H 	0.22620 0.56360 0.59490 0.03300
C 	C 	0.22220 0.81600 0.62420 0.05100
C 	C 	0.22830 0.98330 0.68810 -0.02900
C 	C 	0.22720 0.06870 0.71770 0.05200
