data_crystal

_cell_length_a 16.84700
_cell_length_b 6.27410
_cell_length_c 15.81400
_cell_angle_alpha 90.00000
_cell_angle_beta  106.32100
_cell_angle_gamma 90.00000

_symmetry_space_group_name_	'P 1'
_symmetry_space_group_name_H-M	'P 1'

loop_
_symmetry_equiv_pos_as_xyz
  x,y,z

loop_
_atom_site_label
_atom_site_type_symbol
_atom_site_fract_x
_atom_site_fract_y
_atom_site_fract_z
_atom_site_charge
Co	Co	0.34508 0.50366 0.03158 1.12400
P 	P 	0.31566 0.46070 0.82921 0.45800
P 	P 	0.29034 0.03590 0.03217 0.49100
C 	C 	0.90310 0.39420 0.81630 -0.19400
H 	H 	0.84940 0.37860 0.78010 0.10100
C 	C 	0.94900 0.56810 0.80950 0.12500
H 	H 	0.92530 0.67200 0.76810 -0.01500
C 	C 	0.02870 0.59750 0.86070 -0.22300
H 	H 	0.05710 0.72120 0.85490 0.10500
C 	C 	0.06700 0.44240 0.92150 0.18600
C 	C 	0.02050 0.26730 0.92910 -0.21200
H 	H 	0.04470 0.16200 0.96950 0.10600
C 	C 	0.93830 0.24060 0.87870 0.10000
H 	H 	0.90800 0.12230 0.88690 0.00100
C 	C 	0.15380 0.46940 0.97950 -0.23700
H 	H 	0.15850 0.39460 0.03430 0.10200
H 	H 	0.16280 0.61950 0.99340 0.09100
C 	C 	0.21830 0.48990 0.85620 -0.27900
H 	H 	0.20510 0.64020 0.85760 0.11400
H 	H 	0.17450 0.42280 0.81070 0.12900
C 	C 	0.22090 0.15570 0.93630 -0.29300
H 	H 	0.23670 0.11320 0.88430 0.14200
H 	H 	0.16520 0.10450 0.92980 0.13100
N 	N 	0.22190 0.39230 0.94260 -0.09600
O 	O 	0.31330 0.61240 0.75480 -0.29600
O 	O 	0.38230 0.51080 0.91510 -0.39200
O 	O 	0.32390 0.22970 0.80000 -0.46000
H 	H 	0.36500 0.21610 0.78240 0.25100
O 	O 	0.36510 0.17950 0.05870 -0.42500
O 	O 	0.30830 0.81260 0.00820 -0.43300
O 	O 	0.24090 0.03730 0.10100 -0.49900
H 	H 	0.26940 0.98660 0.14740 0.30100
Co	Co	0.65492 0.00366 0.46842 1.12300
P 	P 	0.68434 0.96070 0.67079 0.45800
P 	P 	0.70966 0.53590 0.46783 0.49100
C 	C 	0.09690 0.89420 0.68370 -0.22200
H 	H 	0.15060 0.87860 0.71990 0.10900
C 	C 	0.05100 0.06810 0.69050 0.15500
H 	H 	0.07470 0.17200 0.73190 -0.02500
C 	C 	0.97130 0.09750 0.63930 -0.25100
H 	H 	0.94290 0.22120 0.64510 0.11400
C 	C 	0.93300 0.94240 0.57850 0.20500
C 	C 	0.97950 0.76730 0.57090 -0.23500
H 	H 	0.95530 0.66200 0.53050 0.11200
C 	C 	0.06170 0.74060 0.62130 0.12600
H 	H 	0.09200 0.62230 0.61310 -0.00700
C 	C 	0.84620 0.96940 0.52050 -0.24700
H 	H 	0.84150 0.89460 0.46570 0.10700
H 	H 	0.83720 0.11950 0.50660 0.09300
C 	C 	0.78170 0.98990 0.64380 -0.27600
H 	H 	0.79490 0.14020 0.64240 0.11300
H 	H 	0.82550 0.92280 0.68930 0.12800
C 	C 	0.77910 0.65570 0.56370 -0.29500
H 	H 	0.76330 0.61320 0.61570 0.14200
H 	H 	0.83480 0.60450 0.57020 0.13000
N 	N 	0.77810 0.89230 0.55740 -0.09500
O 	O 	0.68670 0.11240 0.74520 -0.29600
O 	O 	0.61770 0.01080 0.58490 -0.39300
O 	O 	0.67610 0.72970 0.70000 -0.46100
H 	H 	0.63500 0.71610 0.71760 0.25100
O 	O 	0.63490 0.67950 0.44130 -0.42400
O 	O 	0.69170 0.31260 0.49180 -0.43300
O 	O 	0.75910 0.53730 0.39900 -0.49900
H 	H 	0.73060 0.48660 0.35260 0.30100
Co	Co	0.65492 0.49634 0.96842 1.12300
P 	P 	0.68434 0.53930 0.17079 0.45700
P 	P 	0.70966 0.96410 0.96783 0.49000
C 	C 	0.09690 0.60580 0.18370 -0.19500
H 	H 	0.15060 0.62140 0.21990 0.10000
C 	C 	0.05100 0.43190 0.19050 0.12400
H 	H 	0.07470 0.32800 0.23190 -0.01500
C 	C 	0.97130 0.40250 0.13930 -0.22300
H 	H 	0.94290 0.27880 0.14510 0.10500
C 	C 	0.93300 0.55760 0.07850 0.18600
C 	C 	0.97950 0.73270 0.07090 -0.21200
H 	H 	0.95530 0.83800 0.03050 0.10600
C 	C 	0.06170 0.75940 0.12130 0.10000
H 	H 	0.09200 0.87770 0.11310 0.00100
C 	C 	0.84620 0.53060 0.02050 -0.23700
H 	H 	0.84150 0.60540 0.96570 0.10200
H 	H 	0.83720 0.38050 0.00660 0.09100
C 	C 	0.78170 0.51010 0.14380 -0.27900
H 	H 	0.79490 0.35980 0.14240 0.11400
H 	H 	0.82550 0.57720 0.18930 0.12900
C 	C 	0.77910 0.84430 0.06370 -0.29300
H 	H 	0.76330 0.88680 0.11570 0.14200
H 	H 	0.83480 0.89550 0.07020 0.13100
N 	N 	0.77810 0.60770 0.05740 -0.09600
O 	O 	0.68670 0.38760 0.24520 -0.29600
O 	O 	0.61770 0.48920 0.08490 -0.39200
O 	O 	0.67610 0.77030 0.20000 -0.46000
H 	H 	0.63500 0.78390 0.21760 0.25100
O 	O 	0.63490 0.82050 0.94130 -0.42500
O 	O 	0.69170 0.18740 0.99180 -0.43300
O 	O 	0.75910 0.96270 0.89900 -0.49900
H 	H 	0.73060 0.01340 0.85260 0.30100
Co	Co	0.34508 0.99634 0.53158 1.12300
P 	P 	0.31566 0.03930 0.32921 0.45800
P 	P 	0.29034 0.46410 0.53217 0.49100
C 	C 	0.90310 0.10580 0.31630 -0.22200
H 	H 	0.84940 0.12140 0.28010 0.10900
C 	C 	0.94900 0.93190 0.30950 0.15500
H 	H 	0.92530 0.82800 0.26810 -0.02500
C 	C 	0.02870 0.90250 0.36070 -0.25100
H 	H 	0.05710 0.77880 0.35490 0.11400
C 	C 	0.06700 0.05760 0.42150 0.20500
C 	C 	0.02050 0.23270 0.42910 -0.23500
H 	H 	0.04470 0.33800 0.46950 0.11200
C 	C 	0.93830 0.25940 0.37870 0.12600
H 	H 	0.90800 0.37770 0.38690 -0.00700
C 	C 	0.15380 0.03060 0.47950 -0.24700
H 	H 	0.15850 0.10540 0.53430 0.10700
H 	H 	0.16280 0.88050 0.49340 0.09300
C 	C 	0.21830 0.01010 0.35620 -0.27600
H 	H 	0.20510 0.85980 0.35760 0.11300
H 	H 	0.17450 0.07720 0.31070 0.12800
C 	C 	0.22090 0.34430 0.43630 -0.29500
H 	H 	0.23670 0.38680 0.38430 0.14200
H 	H 	0.16520 0.39550 0.42980 0.13000
N 	N 	0.22190 0.10770 0.44260 -0.09500
O 	O 	0.31330 0.88760 0.25480 -0.29600
O 	O 	0.38230 0.98920 0.41510 -0.39300
O 	O 	0.32390 0.27030 0.30000 -0.46100
H 	H 	0.36500 0.28390 0.28240 0.25100
O 	O 	0.36510 0.32050 0.55870 -0.42400
O 	O 	0.30830 0.68740 0.50820 -0.43300
O 	O 	0.24090 0.46270 0.60100 -0.49900
H 	H 	0.26940 0.51340 0.64740 0.30100
