data_crystal

_cell_length_a 9.46600
_cell_length_b 24.35800
_cell_length_c 22.39300
_cell_angle_alpha 90.00000
_cell_angle_beta  91.74000
_cell_angle_gamma 90.00000

_symmetry_space_group_name_	'P 1'
_symmetry_space_group_name_H-M	'P 1'

loop_
_symmetry_equiv_pos_as_xyz
  x,y,z

loop_
_atom_site_label
_atom_site_type_symbol
_atom_site_fract_x
_atom_site_fract_y
_atom_site_fract_z
_atom_site_charge
Co	Co	0.04678 0.87847 0.58245 1.10600
C 	C 	0.67260 0.91510 0.49960 -0.09300
C 	C 	0.80350 0.89810 0.53450 0.32700
O 	O 	0.92220 0.91884 0.51677 -0.48300
O 	O 	0.80040 0.86563 0.57628 -0.36500
C 	C 	0.53920 0.91180 0.52360 0.04000
H 	H 	0.52860 0.89620 0.56110 0.04000
C 	C 	0.42200 0.93150 0.49180 -0.10600
C 	C 	0.27640 0.93290 0.51830 0.38100
O 	O 	0.25110 0.90154 0.56144 -0.45600
O 	O 	0.19150 0.96519 0.49264 -0.43700
C 	C 	0.43790 0.95370 0.43570 0.01300
H 	H 	0.35960 0.96760 0.41460 0.04700
C 	C 	0.56930 0.95550 0.41060 -0.04200
C 	C 	0.59100 0.98070 0.35280 0.12600
N 	N 	0.61020 0.00280 0.30950 -0.14300
C 	C 	0.68730 0.93600 0.44280 0.00000
H 	H 	0.77590 0.93710 0.42600 0.04900
C 	C 	0.00390 0.02060 0.69550 -0.24500
C 	C 	0.01140 0.98920 0.63820 0.48500
O 	O 	0.00910 0.93790 0.64238 -0.48600
O 	O 	0.02050 0.01708 0.59124 -0.46900
C 	C 	0.00430 0.07710 0.69610 0.12000
H 	H 	0.00750 0.09670 0.66050 -0.00400
Co	Co	0.95322 0.87847 0.91755 1.13400
C 	C 	0.32740 0.91510 0.00040 -0.18900
C 	C 	0.19650 0.89810 0.96550 0.37200
O 	O 	0.07780 0.91884 0.98323 -0.52200
O 	O 	0.19960 0.86563 0.92372 -0.39800
C 	C 	0.46080 0.91180 0.97640 0.15200
H 	H 	0.47140 0.89620 0.93890 0.00400
C 	C 	0.57800 0.93150 0.00820 -0.19200
C 	C 	0.72360 0.93290 0.98170 0.43900
O 	O 	0.74890 0.90154 0.93856 -0.45700
O 	O 	0.80850 0.96519 0.00736 -0.44000
C 	C 	0.56210 0.95370 0.06430 0.07000
H 	H 	0.64040 0.96760 0.08540 0.03600
C 	C 	0.43070 0.95550 0.08940 -0.08700
C 	C 	0.40900 0.98070 0.14720 0.14400
N 	N 	0.38980 0.00280 0.19050 -0.15300
C 	C 	0.31270 0.93600 0.05720 0.05800
H 	H 	0.22410 0.93710 0.07400 0.02300
C 	C 	0.99610 0.02060 0.80450 -0.20300
C 	C 	0.98860 0.98920 0.86180 0.47100
O 	O 	0.99090 0.93790 0.85762 -0.45200
O 	O 	0.97950 0.01708 0.90876 -0.43400
C 	C 	0.99570 0.07710 0.80390 0.15500
H 	H 	0.99250 0.09670 0.83950 0.00300
Co	Co	0.95322 0.12153 0.41755 1.12900
C 	C 	0.32740 0.08490 0.50040 -0.09200
C 	C 	0.19650 0.10190 0.46550 0.32400
O 	O 	0.07780 0.08116 0.48323 -0.53000
O 	O 	0.19960 0.13437 0.42372 -0.39500
C 	C 	0.46080 0.08820 0.47640 0.02500
H 	H 	0.47140 0.10380 0.43890 0.03900
C 	C 	0.57800 0.06850 0.50820 -0.09600
C 	C 	0.72360 0.06710 0.48170 0.37200
O 	O 	0.74890 0.09846 0.43856 -0.45100
O 	O 	0.80850 0.03481 0.50736 -0.42800
C 	C 	0.56210 0.04630 0.56430 -0.01500
H 	H 	0.64040 0.03240 0.58540 0.05700
C 	C 	0.43070 0.04450 0.58940 -0.01300
C 	C 	0.40900 0.01930 0.64720 0.05200
N 	N 	0.38980 0.99720 0.69050 -0.09000
C 	C 	0.31270 0.06400 0.55720 -0.02700
H 	H 	0.22410 0.06290 0.57400 0.05400
C 	C 	0.99610 0.97940 0.30450 0.05800
C 	C 	0.98860 0.01080 0.36180 0.29700
O 	O 	0.99090 0.06210 0.35762 -0.41700
O 	O 	0.97950 0.98292 0.40876 -0.36100
C 	C 	0.99570 0.92290 0.30390 -0.02700
H 	H 	0.99250 0.90330 0.33950 0.06500
Co	Co	0.04678 0.12153 0.08245 1.09800
C 	C 	0.67260 0.08490 0.99960 0.02500
C 	C 	0.80350 0.10190 0.03450 0.26900
O 	O 	0.92220 0.08116 0.01677 -0.48400
O 	O 	0.80040 0.13437 0.07628 -0.35800
C 	C 	0.53920 0.08820 0.02360 -0.11800
H 	H 	0.52860 0.10380 0.06110 0.08500
C 	C 	0.42200 0.06850 0.99180 0.01800
C 	C 	0.27640 0.06710 0.01830 0.29100
O 	O 	0.25110 0.09846 0.06144 -0.44700
O 	O 	0.19150 0.03481 0.99264 -0.41100
C 	C 	0.43790 0.04630 0.93570 -0.08900
H 	H 	0.35960 0.03240 0.91460 0.07400
C 	C 	0.56930 0.04450 0.91060 0.04400
C 	C 	0.59100 0.01930 0.85280 0.03300
N 	N 	0.61020 0.99720 0.80950 -0.08300
C 	C 	0.68730 0.06400 0.94280 -0.09800
H 	H 	0.77590 0.06290 0.92600 0.08600
C 	C 	0.00390 0.97940 0.19550 0.02700
C 	C 	0.01140 0.01080 0.13820 0.29200
O 	O 	0.00910 0.06210 0.14238 -0.45000
O 	O 	0.02050 0.98292 0.09124 -0.38400
C 	C 	0.00430 0.92290 0.19610 -0.06600
H 	H 	0.00750 0.90330 0.16050 0.06000
Co	Co	0.00000 0.00000 0.50000 1.17600
Co	Co	-0.00000 0.00000 -0.00000 1.16400
C 	C 	0.00000 0.99240 0.75000 0.16300
H 	H 	0.00000 0.95430 0.75000 -0.00900
C 	C 	0.00000 0.10420 0.75000 -0.16500
C 	C 	0.00000 0.16370 0.75000 0.10000
N 	N 	0.00000 0.21070 0.75000 -0.15000
C 	C 	0.00000 0.00760 0.25000 -0.16000
H 	H 	0.00000 0.04570 0.25000 0.09000
C 	C 	0.00000 0.89580 0.25000 -0.02100
C 	C 	0.00000 0.83630 0.25000 0.05100
N 	N 	0.00000 0.78930 0.25000 -0.13800
Co	Co	0.54678 0.37847 0.58245 1.11800
C 	C 	0.17260 0.41510 0.49960 -0.08800
C 	C 	0.30350 0.39810 0.53450 0.32300
O 	O 	0.42220 0.41884 0.51677 -0.51000
O 	O 	0.30040 0.36563 0.57628 -0.38200
C 	C 	0.03920 0.41180 0.52360 -0.01700
H 	H 	0.02860 0.39620 0.56110 0.04400
C 	C 	0.92200 0.43150 0.49180 -0.06800
C 	C 	0.77640 0.43290 0.51830 0.37100
O 	O 	0.75110 0.40154 0.56144 -0.44400
O 	O 	0.69150 0.46519 0.49264 -0.43600
C 	C 	0.93790 0.45370 0.43570 0.04500
H 	H 	0.85960 0.46760 0.41460 0.04200
C 	C 	0.06930 0.45550 0.41060 -0.07400
C 	C 	0.09100 0.48070 0.35280 0.08700
N 	N 	0.11020 0.50280 0.30950 -0.12800
C 	C 	0.18730 0.43600 0.44280 -0.00500
H 	H 	0.27590 0.43710 0.42600 0.04700
C 	C 	0.50390 0.52060 0.69550 -0.11600
C 	C 	0.51140 0.48920 0.63820 0.39600
O 	O 	0.50910 0.43790 0.64238 -0.45600
O 	O 	0.52050 0.51708 0.59124 -0.42100
C 	C 	0.50430 0.57710 0.69610 0.02000
H 	H 	0.50750 0.59670 0.66050 0.03600
Co	Co	0.45322 0.37847 0.91755 1.11900
C 	C 	0.82740 0.41510 0.00040 -0.19900
C 	C 	0.69650 0.39810 0.96550 0.37500
O 	O 	0.57780 0.41884 0.98323 -0.51000
O 	O 	0.69960 0.36563 0.92372 -0.38400
C 	C 	0.96080 0.41180 0.97640 0.21000
H 	H 	0.97140 0.39620 0.93890 -0.00500
C 	C 	0.07800 0.43150 0.00820 -0.24400
C 	C 	0.22360 0.43290 0.98170 0.46000
O 	O 	0.24890 0.40154 0.93856 -0.47800
O 	O 	0.30850 0.46519 0.00736 -0.47700
C 	C 	0.06210 0.45370 0.06430 0.02200
H 	H 	0.14040 0.46760 0.08540 0.03500
C 	C 	0.93070 0.45550 0.08940 -0.03300
C 	C 	0.90900 0.48070 0.14720 0.10300
N 	N 	0.88980 0.50280 0.19050 -0.11200
C 	C 	0.81270 0.43600 0.05720 0.04200
H 	H 	0.72410 0.43710 0.07400 0.02900
C 	C 	0.49610 0.52060 0.80450 -0.11400
C 	C 	0.48860 0.48920 0.86180 0.39600
O 	O 	0.49090 0.43790 0.85762 -0.45500
O 	O 	0.47950 0.51708 0.90876 -0.41600
C 	C 	0.49570 0.57710 0.80390 0.02000
H 	H 	0.49250 0.59670 0.83950 0.03800
Co	Co	0.45322 0.62153 0.41755 1.11600
C 	C 	0.82740 0.58490 0.50040 -0.10000
C 	C 	0.69650 0.60190 0.46550 0.33000
O 	O 	0.57780 0.58116 0.48323 -0.51100
O 	O 	0.69960 0.63437 0.42372 -0.37700
C 	C 	0.96080 0.58820 0.47640 0.08300
H 	H 	0.97140 0.60380 0.43890 0.03500
C 	C 	0.07800 0.56850 0.50820 -0.13600
C 	C 	0.22360 0.56710 0.48170 0.38500
O 	O 	0.24890 0.59846 0.43856 -0.46500
O 	O 	0.30850 0.53481 0.50736 -0.44100
C 	C 	0.06210 0.54630 0.56430 -0.04500
H 	H 	0.14040 0.53240 0.58540 0.06000
C 	C 	0.93070 0.54450 0.58940 0.01700
C 	C 	0.90900 0.51930 0.64720 0.08700
N 	N 	0.88980 0.49720 0.69050 -0.10600
C 	C 	0.81270 0.56400 0.55720 -0.02100
H 	H 	0.72410 0.56290 0.57400 0.05500
C 	C 	0.49610 0.47940 0.30450 -0.11600
C 	C 	0.48860 0.51080 0.36180 0.39800
O 	O 	0.49090 0.56210 0.35762 -0.45700
O 	O 	0.47950 0.48292 0.40876 -0.42000
C 	C 	0.49570 0.42290 0.30390 0.02200
H 	H 	0.49250 0.40330 0.33950 0.03600
Co	Co	0.54678 0.62153 0.08245 1.11600
C 	C 	0.17260 0.58490 0.99960 0.01800
C 	C 	0.30350 0.60190 0.03450 0.27400
O 	O 	0.42220 0.58116 0.01677 -0.50700
O 	O 	0.30040 0.63437 0.07628 -0.37400
C 	C 	0.03920 0.58820 0.02360 -0.14700
H 	H 	0.02860 0.60380 0.06110 0.08500
C 	C 	0.92200 0.56850 0.99180 0.03800
C 	C 	0.77640 0.56710 0.01830 0.30000
O 	O 	0.75110 0.59846 0.06144 -0.43100
O 	O 	0.69150 0.53481 0.99264 -0.40000
C 	C 	0.93790 0.54630 0.93570 -0.02800
H 	H 	0.85960 0.53240 0.91460 0.06800
C 	C 	0.06930 0.54450 0.91060 -0.01600
C 	C 	0.09100 0.51930 0.85280 0.07000
N 	N 	0.11020 0.49720 0.80950 -0.12100
C 	C 	0.18730 0.56400 0.94280 -0.07200
H 	H 	0.27590 0.56290 0.92600 0.07400
C 	C 	0.50390 0.47940 0.19550 -0.11800
C 	C 	0.51140 0.51080 0.13820 0.39800
O 	O 	0.50910 0.56210 0.14238 -0.45800
O 	O 	0.52050 0.48292 0.09124 -0.42200
C 	C 	0.50430 0.42290 0.19610 0.02200
H 	H 	0.50750 0.40330 0.16050 0.03400
Co	Co	0.50000 0.50000 0.50000 1.20500
Co	Co	0.50000 0.50000 -0.00000 1.19600
C 	C 	0.50000 0.49240 0.75000 0.05900
H 	H 	0.50000 0.45430 0.75000 0.03400
C 	C 	0.50000 0.60420 0.75000 -0.04700
C 	C 	0.50000 0.66370 0.75000 0.07700
N 	N 	0.50000 0.71070 0.75000 -0.13100
C 	C 	0.50000 0.50760 0.25000 0.06100
H 	H 	0.50000 0.54570 0.25000 0.03300
C 	C 	0.50000 0.39580 0.25000 -0.04900
C 	C 	0.50000 0.33630 0.25000 0.07500
N 	N 	0.50000 0.28930 0.25000 -0.13500
