data_crystal

_cell_length_a 15.20320
_cell_length_b 15.20320
_cell_length_c 46.09000
_cell_angle_alpha 90.00000
_cell_angle_beta  90.00000
_cell_angle_gamma 120.00000

_symmetry_space_group_name_	'P 1'
_symmetry_space_group_name_H-M	'P 1'

loop_
_symmetry_equiv_pos_as_xyz
  x,y,z

loop_
_atom_site_label
_atom_site_type_symbol
_atom_site_fract_x
_atom_site_fract_y
_atom_site_fract_z
_atom_site_charge
O 	O 	0.83350 0.98900 0.29967 -0.54700
C 	C 	0.72650 0.78610 0.24839 0.20100
H 	H 	0.74660 0.74210 0.25690 -0.03600
C 	C 	0.67310 0.75690 0.22251 -0.28900
H 	H 	0.65400 0.69330 0.21370 0.10500
H 	H 	0.52940 0.74190 0.18500 0.06500
H 	H 	0.62660 0.78000 0.16900 0.06500
H 	H 	0.58710 0.84960 0.17550 0.06600
O 	O 	0.83210 0.98840 0.36085 -0.55400
C 	C 	0.70640 0.77760 0.40850 0.24800
H 	H 	0.72850 0.73420 0.40060 -0.05400
C 	C 	0.64450 0.74830 0.43240 -0.34000
H 	H 	0.62610 0.68470 0.44110 0.12200
H 	H 	0.48230 0.71070 0.46260 0.06600
H 	H 	0.52190 0.81730 0.47210 0.06700
H 	H 	0.56840 0.75830 0.48330 0.06700
O 	O 	0.01100 0.84450 0.29967 -0.52700
C 	C 	0.21390 0.94040 0.24839 0.33400
H 	H 	0.25790 0.00450 0.25690 -0.10200
C 	C 	0.24310 0.91620 0.22251 -0.36500
H 	H 	0.30670 0.96070 0.21370 0.14600
H 	H 	0.25810 0.78750 0.18500 0.06800
H 	H 	0.22000 0.84660 0.16900 0.07300
H 	H 	0.15040 0.73750 0.17550 0.06800
O 	O 	0.01160 0.84370 0.36085 -0.52600
C 	C 	0.22240 0.92880 0.40850 0.24200
H 	H 	0.26580 0.99430 0.40060 -0.03600
C 	C 	0.25170 0.89620 0.43240 -0.32900
H 	H 	0.31530 0.94140 0.44110 0.12900
H 	H 	0.28930 0.77160 0.46260 0.06700
H 	H 	0.18270 0.70460 0.47210 0.06900
H 	H 	0.24170 0.81010 0.48330 0.07300
O 	O 	0.15550 0.16650 0.29967 -0.56000
C 	C 	0.05960 0.27350 0.24839 0.33600
H 	H 	0.99550 0.25340 0.25690 -0.12500
C 	C 	0.08380 0.32690 0.22251 -0.34900
H 	H 	0.03930 0.34600 0.21370 0.14300
H 	H 	0.21250 0.47060 0.18500 0.06800
H 	H 	0.15340 0.37340 0.16900 0.06900
H 	H 	0.26250 0.41290 0.17550 0.06400
O 	O 	0.15630 0.16790 0.36085 -0.56100
C 	C 	0.07120 0.29360 0.40850 0.24800
H 	H 	0.00570 0.27150 0.40060 -0.03800
C 	C 	0.10380 0.35550 0.43240 -0.33500
H 	H 	0.05860 0.37390 0.44110 0.13300
H 	H 	0.22840 0.51770 0.46260 0.06700
H 	H 	0.29540 0.47810 0.47210 0.06500
H 	H 	0.18990 0.43160 0.48330 0.07200
O 	O 	0.01100 0.16650 0.29967 -0.53400
C 	C 	0.21390 0.27350 0.24839 0.22300
H 	H 	0.25790 0.25340 0.25690 -0.03900
C 	C 	0.24310 0.32690 0.22251 -0.30500
H 	H 	0.30670 0.34600 0.21370 0.11300
H 	H 	0.25810 0.47060 0.18500 0.06500
H 	H 	0.22000 0.37340 0.16900 0.06700
H 	H 	0.15040 0.41290 0.17550 0.06800
O 	O 	0.01160 0.16790 0.36085 -0.54000
C 	C 	0.22240 0.29360 0.40850 0.24600
H 	H 	0.26580 0.27150 0.40060 -0.05000
C 	C 	0.25170 0.35550 0.43240 -0.33700
H 	H 	0.31530 0.37390 0.44110 0.12200
H 	H 	0.28930 0.51770 0.46260 0.06600
H 	H 	0.18270 0.47810 0.47210 0.06800
H 	H 	0.24170 0.43160 0.48330 0.06800
O 	O 	0.15550 0.98900 0.29967 -0.53600
C 	C 	0.05960 0.78610 0.24839 0.37200
H 	H 	0.99550 0.74210 0.25690 -0.13100
C 	C 	0.08380 0.75690 0.22251 -0.38000
H 	H 	0.03930 0.69330 0.21370 0.15600
H 	H 	0.21250 0.74190 0.18500 0.06900
H 	H 	0.15340 0.78000 0.16900 0.07400
H 	H 	0.26250 0.84960 0.17550 0.06700
O 	O 	0.15630 0.98840 0.36085 -0.53300
C 	C 	0.07120 0.77760 0.40850 0.24300
H 	H 	0.00570 0.73420 0.40060 -0.03100
C 	C 	0.10380 0.74830 0.43240 -0.32800
H 	H 	0.05860 0.68470 0.44110 0.13200
H 	H 	0.22840 0.71070 0.46260 0.06700
H 	H 	0.29540 0.81730 0.47210 0.06800
H 	H 	0.18990 0.75830 0.48330 0.07400
O 	O 	0.83350 0.84450 0.29967 -0.56400
C 	C 	0.72650 0.94040 0.24839 0.27600
H 	H 	0.74660 0.00450 0.25690 -0.09100
C 	C 	0.67310 0.91620 0.22251 -0.31700
H 	H 	0.65400 0.96070 0.21370 0.12600
H 	H 	0.52940 0.78750 0.18500 0.06600
H 	H 	0.62660 0.84660 0.16900 0.06600
H 	H 	0.58710 0.73750 0.17550 0.06300
O 	O 	0.83210 0.84370 0.36085 -0.56900
C 	C 	0.70640 0.92880 0.40850 0.25000
H 	H 	0.72850 0.99430 0.40060 -0.04500
C 	C 	0.64450 0.89620 0.43240 -0.33900
H 	H 	0.62610 0.94140 0.44110 0.12900
H 	H 	0.48230 0.77160 0.46260 0.06600
H 	H 	0.52190 0.70460 0.47210 0.06400
H 	H 	0.56840 0.81010 0.48330 0.07000
Cr	Cr	0.92791 0.07209 0.33046 1.52100
Cr	Cr	0.92791 0.85582 0.33046 1.53900
Cr	Cr	0.14418 0.07209 0.33046 1.54900
O 	O 	0.00000 0.00000 0.33007 -0.81500
C 	C 	0.81010 0.90505 0.28909 0.53900
C 	C 	0.75190 0.87595 0.26240 -0.31400
C 	C 	0.64950 0.82475 0.21040 0.22600
N 	N 	0.59260 0.79630 0.18221 -0.37400
C 	C 	0.80630 0.90315 0.37045 0.52800
C 	C 	0.73500 0.86750 0.39647 -0.31500
C 	C 	0.60870 0.80435 0.44405 0.28400
N 	N 	0.53910 0.76955 0.46765 -0.40100
C 	C 	0.09495 0.90505 0.28909 0.57000
C 	C 	0.12405 0.87595 0.26240 -0.38100
C 	C 	0.17525 0.82475 0.21040 0.28200
N 	N 	0.20370 0.79630 0.18221 -0.39000
C 	C 	0.09685 0.90315 0.37045 0.52100
C 	C 	0.13250 0.86750 0.39647 -0.29400
C 	C 	0.19565 0.80435 0.44405 0.28500
N 	N 	0.23045 0.76955 0.46765 -0.40600
C 	C 	0.09495 0.18990 0.28909 0.55000
C 	C 	0.12405 0.24810 0.26240 -0.33800
C 	C 	0.17525 0.35050 0.21040 0.24600
N 	N 	0.20370 0.40740 0.18221 -0.37900
C 	C 	0.09685 0.19370 0.37045 0.52600
C 	C 	0.13250 0.26500 0.39647 -0.30800
C 	C 	0.19565 0.39130 0.44405 0.28400
N 	N 	0.23045 0.46090 0.46765 -0.40200
O 	O 	0.50017 0.32233 0.63300 -0.54400
C 	C 	0.39317 0.11943 0.58172 0.16000
H 	H 	0.41327 0.07543 0.59023 -0.01700
C 	C 	0.33977 0.09023 0.55584 -0.24600
H 	H 	0.32067 0.02663 0.54703 0.09300
H 	H 	0.19607 0.07523 0.51833 0.06500
H 	H 	0.29327 0.11333 0.50233 0.06200
H 	H 	0.25377 0.18293 0.50883 0.06500
O 	O 	0.49877 0.32173 0.69418 -0.55300
C 	C 	0.37307 0.11093 0.74183 0.24700
H 	H 	0.39517 0.06753 0.73393 -0.04600
C 	C 	0.31117 0.08163 0.76573 -0.33700
H 	H 	0.29277 0.01803 0.77443 0.12400
H 	H 	0.14897 0.04403 0.79593 0.06900
H 	H 	0.18857 0.15063 0.80543 0.06800
H 	H 	0.23507 0.09163 0.81663 0.06700
O 	O 	0.67767 0.17783 0.63300 -0.54900
C 	C 	0.88057 0.27373 0.58172 0.15000
H 	H 	0.92457 0.33783 0.59023 -0.01900
C 	C 	0.90977 0.24953 0.55584 -0.24100
H 	H 	0.97337 0.29403 0.54703 0.08100
H 	H 	0.92477 0.12083 0.51833 0.05200
H 	H 	0.88667 0.17993 0.50233 0.05600
H 	H 	0.81707 0.07083 0.50883 0.05300
O 	O 	0.67827 0.17703 0.69418 -0.55700
C 	C 	0.88907 0.26213 0.74183 0.23400
H 	H 	0.93247 0.32763 0.73393 -0.04700
C 	C 	0.91837 0.22953 0.76573 -0.32600
H 	H 	0.98197 0.27473 0.77443 0.11300
H 	H 	0.95597 0.10493 0.79593 0.05500
H 	H 	0.84937 0.03793 0.80543 0.05800
H 	H 	0.90837 0.14343 0.81663 0.06100
O 	O 	0.82217 0.49983 0.63300 -0.54900
C 	C 	0.72627 0.60683 0.58172 0.15800
H 	H 	0.66217 0.58673 0.59023 -0.01200
C 	C 	0.75047 0.66023 0.55584 -0.24300
H 	H 	0.70597 0.67933 0.54703 0.09800
H 	H 	0.87917 0.80393 0.51833 0.06500
H 	H 	0.82007 0.70673 0.50233 0.06100
H 	H 	0.92917 0.74623 0.50883 0.05600
O 	O 	0.82297 0.50123 0.69418 -0.55700
C 	C 	0.73787 0.62693 0.74183 0.24400
H 	H 	0.67237 0.60483 0.73393 -0.04200
C 	C 	0.77047 0.68883 0.76573 -0.33300
H 	H 	0.72527 0.70723 0.77443 0.12700
H 	H 	0.89507 0.85103 0.79593 0.06800
H 	H 	0.96207 0.81143 0.80543 0.06200
H 	H 	0.85657 0.76493 0.81663 0.06600
O 	O 	0.67767 0.49983 0.63300 -0.54500
C 	C 	0.88057 0.60683 0.58172 0.15600
H 	H 	0.92457 0.58673 0.59023 -0.01900
C 	C 	0.90977 0.66023 0.55584 -0.24500
H 	H 	0.97337 0.67933 0.54703 0.08700
H 	H 	0.92477 0.80393 0.51833 0.05900
H 	H 	0.88667 0.70673 0.50233 0.05900
H 	H 	0.81707 0.74623 0.50883 0.06200
O 	O 	0.67827 0.50123 0.69418 -0.55400
C 	C 	0.88907 0.62693 0.74183 0.24300
H 	H 	0.93247 0.60483 0.73393 -0.04800
C 	C 	0.91837 0.68883 0.76573 -0.33400
H 	H 	0.98197 0.70723 0.77443 0.11900
H 	H 	0.95597 0.85103 0.79593 0.06400
H 	H 	0.84937 0.81143 0.80543 0.06600
H 	H 	0.90837 0.76493 0.81663 0.06500
O 	O 	0.82217 0.32233 0.63300 -0.55000
C 	C 	0.72627 0.11943 0.58172 0.15100
H 	H 	0.66217 0.07543 0.59023 -0.01700
C 	C 	0.75047 0.09023 0.55584 -0.24100
H 	H 	0.70597 0.02663 0.54703 0.08500
H 	H 	0.87917 0.07523 0.51833 0.05400
H 	H 	0.82007 0.11333 0.50233 0.05600
H 	H 	0.92917 0.18293 0.50883 0.05100
O 	O 	0.82297 0.32173 0.69418 -0.55900
C 	C 	0.73787 0.11093 0.74183 0.23400
H 	H 	0.67237 0.06753 0.73393 -0.04500
C 	C 	0.77047 0.08163 0.76573 -0.32600
H 	H 	0.72527 0.01803 0.77443 0.11500
H 	H 	0.89507 0.04403 0.79593 0.05600
H 	H 	0.96207 0.15063 0.80543 0.05700
H 	H 	0.85657 0.09163 0.81663 0.06100
O 	O 	0.50017 0.17783 0.63300 -0.54700
C 	C 	0.39317 0.27373 0.58172 0.16100
H 	H 	0.41327 0.33783 0.59023 -0.01200
C 	C 	0.33977 0.24953 0.55584 -0.24500
H 	H 	0.32067 0.29403 0.54703 0.10100
H 	H 	0.19607 0.12083 0.51833 0.06800
H 	H 	0.29327 0.17993 0.50233 0.06300
H 	H 	0.25377 0.07083 0.50883 0.06100
O 	O 	0.49877 0.17703 0.69418 -0.55600
C 	C 	0.37307 0.26213 0.74183 0.24800
H 	H 	0.39517 0.32763 0.73393 -0.04200
C 	C 	0.31117 0.22953 0.76573 -0.33600
H 	H 	0.29277 0.27473 0.77443 0.13000
H 	H 	0.14897 0.10493 0.79593 0.07200
H 	H 	0.18857 0.03793 0.80543 0.06500
H 	H 	0.23507 0.14343 0.81663 0.06800
Cr	Cr	0.59458 0.40542 0.66379 1.56100
Cr	Cr	0.59458 0.18915 0.66379 1.55900
Cr	Cr	0.81085 0.40542 0.66379 1.55900
O 	O 	0.66667 0.33333 0.66340 -0.82000
C 	C 	0.47677 0.23838 0.62242 0.51600
C 	C 	0.41857 0.20928 0.59573 -0.25300
C 	C 	0.31617 0.15808 0.54373 0.19100
N 	N 	0.25927 0.12963 0.51554 -0.36600
C 	C 	0.47297 0.23648 0.70378 0.52900
C 	C 	0.40167 0.20083 0.72980 -0.30800
C 	C 	0.27537 0.13768 0.77738 0.28500
N 	N 	0.20577 0.10288 0.80098 -0.40300
C 	C 	0.76162 0.23838 0.62242 0.51300
C 	C 	0.79072 0.20928 0.59573 -0.25300
C 	C 	0.84192 0.15808 0.54373 0.17400
N 	N 	0.87037 0.12963 0.51554 -0.34800
C 	C 	0.76352 0.23648 0.70378 0.52500
C 	C 	0.79917 0.20083 0.72980 -0.30500
C 	C 	0.86232 0.13768 0.77738 0.26500
N 	N 	0.89712 0.10288 0.80098 -0.38300
C 	C 	0.76162 0.52323 0.62242 0.51500
C 	C 	0.79072 0.58143 0.59573 -0.25300
C 	C 	0.84192 0.68383 0.54373 0.18600
N 	N 	0.87037 0.74073 0.51554 -0.36000
C 	C 	0.76352 0.52703 0.70378 0.52700
C 	C 	0.79917 0.59833 0.72980 -0.30700
C 	C 	0.86232 0.72463 0.77738 0.27900
N 	N 	0.89712 0.79423 0.80098 -0.39700
O 	O 	0.16683 0.65567 0.96634 -0.52500
C 	C 	0.05983 0.45277 0.91506 -0.06100
H 	H 	0.07993 0.40877 0.92357 0.06300
C 	C 	0.00643 0.42357 0.88918 0.09300
H 	H 	0.98733 0.35997 0.88037 -0.04400
H 	H 	0.86273 0.40857 0.85167 0.05800
H 	H 	0.95993 0.44667 0.83567 0.05700
H 	H 	0.92043 0.51627 0.84217 0.05900
O 	O 	0.16543 0.65507 0.02752 -0.56400
C 	C 	0.03973 0.44427 0.07517 0.48500
H 	H 	0.06183 0.40087 0.06727 -0.11600
C 	C 	0.97783 0.41497 0.09907 -0.56800
H 	H 	0.95943 0.35137 0.10777 0.17900
H 	H 	0.81563 0.37737 0.12927 0.06300
H 	H 	0.85523 0.48397 0.13877 0.06000
H 	H 	0.90173 0.42497 0.14997 0.05800
O 	O 	0.34433 0.51117 0.96634 -0.54900
C 	C 	0.54723 0.60707 0.91506 0.16300
H 	H 	0.59123 0.67117 0.92357 -0.01800
C 	C 	0.57643 0.58287 0.88918 -0.24900
H 	H 	0.64003 0.62737 0.88037 0.09800
H 	H 	0.59143 0.45417 0.85167 0.06400
H 	H 	0.55333 0.51327 0.83567 0.06800
H 	H 	0.48373 0.40417 0.84217 0.06300
O 	O 	0.34493 0.51037 0.02752 -0.55200
C 	C 	0.55573 0.59547 0.07517 0.23600
H 	H 	0.59913 0.66097 0.06727 -0.04400
C 	C 	0.58503 0.56287 0.09907 -0.32700
H 	H 	0.64863 0.60807 0.10777 0.11700
H 	H 	0.62263 0.43827 0.12927 0.06100
H 	H 	0.51603 0.37127 0.13877 0.06100
H 	H 	0.57503 0.47677 0.14997 0.06300
O 	O 	0.48883 0.83317 0.96634 -0.53500
C 	C 	0.39293 0.94017 0.91506 0.00900
H 	H 	0.32883 0.92007 0.92357 0.04200
C 	C 	0.41713 0.99357 0.88918 -0.01300
H 	H 	0.37263 0.01267 0.88037 0.00400
H 	H 	0.54583 0.13727 0.85167 0.06000
H 	H 	0.48673 0.04007 0.83567 0.06100
H 	H 	0.59583 0.07957 0.84217 0.05900
O 	O 	0.48963 0.83457 0.02752 -0.56300
C 	C 	0.40453 0.96027 0.07517 0.40200
H 	H 	0.33903 0.93817 0.06727 -0.08700
C 	C 	0.43713 0.02217 0.09907 -0.48700
H 	H 	0.39193 0.04057 0.10777 0.16300
H 	H 	0.56173 0.18437 0.12927 0.06300
H 	H 	0.62873 0.14477 0.13877 0.05800
H 	H 	0.52323 0.09827 0.14997 0.06000
O 	O 	0.34433 0.83317 0.96634 -0.53200
C 	C 	0.54723 0.94017 0.91506 0.00800
H 	H 	0.59123 0.92007 0.92357 0.03700
C 	C 	0.57643 0.99357 0.88918 -0.01300
H 	H 	0.64003 0.01267 0.88037 -0.00200
H 	H 	0.59143 0.13727 0.85167 0.05900
H 	H 	0.55333 0.04007 0.83567 0.06000
H 	H 	0.48373 0.07957 0.84217 0.06000
O 	O 	0.34493 0.83457 0.02752 -0.55900
C 	C 	0.55573 0.96027 0.07517 0.40200
H 	H 	0.59913 0.93817 0.06727 -0.09300
C 	C 	0.58503 0.02217 0.09907 -0.48800
H 	H 	0.64863 0.04057 0.10777 0.15700
H 	H 	0.62263 0.18437 0.12927 0.06200
H 	H 	0.51603 0.14477 0.13877 0.06100
H 	H 	0.57503 0.09827 0.14997 0.05900
O 	O 	0.48883 0.65567 0.96634 -0.55000
C 	C 	0.39293 0.45277 0.91506 0.16300
H 	H 	0.32883 0.40877 0.92357 -0.01600
C 	C 	0.41713 0.42357 0.88918 -0.24900
H 	H 	0.37263 0.35997 0.88037 0.09900
H 	H 	0.54583 0.40857 0.85167 0.06400
H 	H 	0.48673 0.44667 0.83567 0.06800
H 	H 	0.59583 0.51627 0.84217 0.06300
O 	O 	0.48963 0.65507 0.02752 -0.55300
C 	C 	0.40453 0.44427 0.07517 0.23600
H 	H 	0.33903 0.40087 0.06727 -0.04200
C 	C 	0.43713 0.41497 0.09907 -0.32700
H 	H 	0.39193 0.35137 0.10777 0.11900
H 	H 	0.56173 0.37737 0.12927 0.06200
H 	H 	0.62873 0.48397 0.13877 0.06000
H 	H 	0.52323 0.42497 0.14997 0.06300
O 	O 	0.16683 0.51117 0.96634 -0.52700
C 	C 	0.05983 0.60707 0.91506 -0.06000
H 	H 	0.07993 0.67117 0.92357 0.06700
C 	C 	0.00643 0.58287 0.88918 0.09300
H 	H 	0.98733 0.62737 0.88037 -0.04100
H 	H 	0.86273 0.45417 0.85167 0.05800
H 	H 	0.95993 0.51327 0.83567 0.05800
H 	H 	0.92043 0.40417 0.84217 0.05800
O 	O 	0.16543 0.51037 0.02752 -0.56700
C 	C 	0.03973 0.59547 0.07517 0.48500
H 	H 	0.06183 0.66097 0.06727 -0.11100
C 	C 	0.97783 0.56287 0.09907 -0.56700
H 	H 	0.95943 0.60807 0.10777 0.18300
H 	H 	0.81563 0.43827 0.12927 0.06300
H 	H 	0.85523 0.37127 0.13877 0.05800
H 	H 	0.90173 0.47677 0.14997 0.05900
Cr	Cr	0.26124 0.73876 0.99713 1.56000
Cr	Cr	0.26124 0.52249 0.99713 1.55800
Cr	Cr	0.47751 0.73876 0.99713 1.55800
O 	O 	0.33333 0.66667 0.99674 -0.82200
C 	C 	0.14343 0.57172 0.95576 0.44800
C 	C 	0.08523 0.54262 0.92907 -0.08000
C 	C 	0.98283 0.49142 0.87707 -0.08800
N 	N 	0.92593 0.46297 0.84888 -0.31500
C 	C 	0.13963 0.56982 0.03712 0.59000
C 	C 	0.06833 0.53417 0.06314 -0.47700
C 	C 	0.94203 0.47102 0.11072 0.42600
N 	N 	0.87243 0.43622 0.13432 -0.42000
C 	C 	0.42828 0.57172 0.95576 0.51700
C 	C 	0.45738 0.54262 0.92907 -0.25800
C 	C 	0.50858 0.49142 0.87707 0.19400
N 	N 	0.53703 0.46297 0.84888 -0.36800
C 	C 	0.43018 0.56982 0.03712 0.52400
C 	C 	0.46583 0.53417 0.06314 -0.30200
C 	C 	0.52898 0.47102 0.11072 0.27000
N 	N 	0.56378 0.43622 0.13432 -0.39000
C 	C 	0.42828 0.85657 0.95576 0.46900
C 	C 	0.45738 0.91477 0.92907 -0.13500
C 	C 	0.50858 0.01717 0.87707 -0.00100
N 	N 	0.53703 0.07407 0.84888 -0.33100
C 	C 	0.43018 0.86037 0.03712 0.56800
C 	C 	0.46583 0.93167 0.06314 -0.41900
C 	C 	0.52898 0.05797 0.11072 0.37400
N 	N 	0.56378 0.12757 0.13432 -0.41000
