data_crystal

_cell_length_a 8.49740
_cell_length_b 8.49740
_cell_length_c 19.80540
_cell_angle_alpha 89.99890
_cell_angle_beta  90.00490
_cell_angle_gamma 90.00440

_symmetry_space_group_name_	'P 1'
_symmetry_space_group_name_H-M	'P 1'

loop_
_symmetry_equiv_pos_as_xyz
  x,y,z

loop_
_atom_site_label
_atom_site_type_symbol
_atom_site_fract_x
_atom_site_fract_y
_atom_site_fract_z
_atom_site_charge
Zn	Zn	0.89222 0.62832 0.03476 1.20800
Zn	Zn	0.62849 0.89207 0.03475 1.20700
Zn	Zn	0.62844 0.62829 0.92160 1.21600
Zn	Zn	0.89221 0.89205 0.92158 1.19400
O 	O 	0.76034 0.76018 0.97817 -0.98100
O 	O 	0.85727 0.66332 0.12947 -0.47100
O 	O 	0.40772 0.85707 0.01974 -0.44100
O 	O 	0.66342 0.40753 0.93662 -0.43200
O 	O 	0.66350 0.85710 0.12947 -0.47100
O 	O 	0.85722 0.40755 0.01975 -0.43900
O 	O 	0.40768 0.66328 0.93661 -0.43400
O 	O 	0.66340 0.66326 0.82688 -0.47600
O 	O 	0.11297 0.85707 0.93659 -0.40700
O 	O 	0.85719 0.85704 0.82687 -0.45600
O 	O 	0.11298 0.66330 0.01974 -0.38600
O 	O 	0.66349 0.11283 0.01973 -0.38800
O 	O 	0.85724 0.11281 0.93659 -0.40900
C 	C 	0.76029 0.76015 0.80232 0.38400
C 	C 	0.76030 0.76018 0.72709 -0.08200
C 	C 	0.86105 0.86123 0.69175 0.21600
C 	C 	0.86107 0.86123 0.62106 0.22700
C 	C 	0.76034 0.76019 0.58571 -0.08400
C 	C 	0.65959 0.65912 0.62105 0.30200
C 	C 	0.65958 0.65912 0.69173 -0.04900
C 	C 	0.65964 0.65916 0.33597 0.30400
C 	C 	0.65966 0.65918 0.26528 -0.04700
C 	C 	0.86114 0.86128 0.26530 0.21600
C 	C 	0.86112 0.86127 0.33599 0.23000
C 	C 	0.76038 0.76020 0.37132 -0.08400
C 	C 	0.76036 0.76019 0.44797 0.13400
C 	C 	0.76035 0.76020 0.50906 0.13400
C 	C 	0.35046 0.76021 0.97818 0.27800
C 	C 	0.17182 0.76020 0.97817 0.26700
C 	C 	0.76036 0.17006 0.97817 0.27000
C 	C 	0.76034 0.34871 0.97818 0.27600
C 	C 	0.76039 0.76021 0.15472 0.39400
C 	C 	0.76041 0.76023 0.22995 -0.07900
H 	H 	0.57755 0.57682 0.72050 0.13000
F 	F 	0.96825 0.96878 0.72937 -0.37200
F 	F 	0.96836 0.96884 0.22770 -0.38300
F 	F 	0.55243 0.55159 0.37357 -0.32500
F 	F 	0.55240 0.55158 0.58342 -0.32600
F 	F 	0.96830 0.96879 0.58346 -0.34200
H 	H 	0.57763 0.57689 0.23650 0.11800
F 	F 	0.96833 0.96882 0.37362 -0.34100
