data_crystal

_cell_length_a 10.65460
_cell_length_b 10.65450
_cell_length_c 9.13030
_cell_angle_alpha 89.99570
_cell_angle_beta  89.99970
_cell_angle_gamma 84.48440

_symmetry_space_group_name_	'P 1'
_symmetry_space_group_name_H-M	'P 1'

loop_
_symmetry_equiv_pos_as_xyz
  x,y,z

loop_
_atom_site_label
_atom_site_type_symbol
_atom_site_fract_x
_atom_site_fract_y
_atom_site_fract_z
_atom_site_charge
O 	O 	0.66784 0.17640 0.87831 -0.34000
O 	O 	0.30236 0.19320 0.87828 -0.35000
O 	O 	0.49350 0.00206 0.87831 -0.27900
O 	O 	0.47669 0.36754 0.87829 -0.34500
O 	O 	0.49349 0.00206 0.12191 -0.31700
O 	O 	0.30235 0.19320 0.12188 -0.39000
O 	O 	0.66783 0.17639 0.12191 -0.37800
Cu	Cu	0.48508 0.18480 0.14414 0.93300
Cu	Cu	0.48510 0.18480 0.85605 0.94400
O 	O 	0.47668 0.36754 0.12189 -0.38200
C 	C 	0.25555 0.19197 0.00008 0.44200
C 	C 	0.11611 0.18828 0.00007 -0.08900
C 	C 	0.03662 0.30082 0.00007 0.13000
C 	C 	0.90560 0.29734 0.00009 0.03900
C 	C 	0.93357 0.06877 0.00012 0.13900
C 	C 	0.06459 0.07225 0.00010 0.01100
C 	C 	0.49226 0.95526 0.00011 0.28100
C 	C 	0.48857 0.81582 0.00010 -0.02800
C 	C 	0.71714 0.78785 0.00014 0.09100
C 	C 	0.82968 0.70835 0.00016 0.08500
C 	C 	0.82620 0.57734 0.00015 -0.00600
C 	C 	0.71017 0.52581 0.00012 0.10100
C 	C 	0.59763 0.60530 0.00010 0.02800
C 	C 	0.60112 0.73632 0.00011 -0.00500
C 	C 	0.36907 0.63328 0.00006 0.07000
C 	C 	0.37254 0.76429 0.00007 -0.01300
C 	C 	0.25304 0.58175 0.00003 -0.07500
C 	C 	0.14049 0.66124 0.00002 0.09500
C 	C 	0.14397 0.79227 0.00002 0.02700
C 	C 	0.26000 0.84379 0.00005 0.06700
C 	C 	0.71463 0.17763 0.00011 0.49400
C 	C 	0.85407 0.18132 0.00011 -0.08100
C 	C 	0.47792 0.41434 0.00009 0.36700
C 	C 	0.48161 0.55378 0.00008 -0.08800
N 	N 	0.48508 0.18479 0.34676 -0.18100
N 	N 	0.48511 0.18480 0.65343 -0.18000
C 	C 	0.56975 0.10019 0.42342 0.03800
C 	C 	0.56976 0.10019 0.57676 0.03800
C 	C 	0.40043 0.26940 0.57676 0.03500
C 	C 	0.40042 0.26940 0.42343 0.03500
H 	H 	0.12931 0.98060 0.00011 0.08700
Br	Br	0.98714 0.77829 0.00018 -0.26800
Br	Br	0.98304 0.59131 0.99995 0.13200
H 	H 	0.33150 0.33829 0.63920 0.05900
H 	H 	0.33146 0.33829 0.36100 0.05500
Br	Br	0.10655 0.45828 0.00003 -0.23400
H 	H 	0.84089 0.38899 0.00009 0.14400
Br	Br	0.86364 0.91131 0.00015 -0.10600
Br	Br	0.97894 0.46944 0.00016 -0.19200
Br	Br	0.70546 0.34800 -0.00000 -0.38500
Br	Br	0.72186 0.96566 0.00019 -0.26200
H 	H 	0.25022 0.47507 0.00002 0.11100
Br	Br	0.99123 0.90015 0.99998 0.07400
Br	Br	0.26473 0.02160 0.00008 -0.32600
H 	H 	0.63870 0.03130 0.63917 0.07600
H 	H 	0.63869 0.03129 0.36101 0.07200
