data_crystal

_cell_length_a 8.59740
_cell_length_b 10.65460
_cell_length_c 7.68150
_cell_angle_alpha 84.20500
_cell_angle_beta  103.47500
_cell_angle_gamma 84.90990

_symmetry_space_group_name_	'P 1'
_symmetry_space_group_name_H-M	'P 1'

loop_
_symmetry_equiv_pos_as_xyz
  x,y,z

loop_
_atom_site_label
_atom_site_type_symbol
_atom_site_fract_x
_atom_site_fract_y
_atom_site_fract_z
_atom_site_charge
O 	O 	0.10176 0.17366 0.17245 -0.43500
O 	O 	0.63792 0.19367 0.10208 -0.49500
O 	O 	0.88051 0.00085 0.13888 -0.55900
O 	O 	0.85918 0.36648 0.13565 -0.53900
O 	O 	0.91036 0.97707 0.43627 -0.51200
O 	O 	0.66778 0.16988 0.39947 -0.48900
O 	O 	0.13162 0.14987 0.46984 -0.42900
Zn	Zn	0.90444 0.15610 0.48187 1.21700
Zn	Zn	0.86510 0.18744 0.09005 1.21400
O 	O 	0.88904 0.34269 0.43304 -0.51400
C 	C 	0.59346 0.18095 0.24176 0.44600
C 	C 	0.41649 0.17849 0.21491 -0.10100
C 	C 	0.89387 0.94217 0.28733 0.47000
C 	C 	0.88918 0.80276 0.28661 -0.13100
C 	C 	0.87071 0.75023 0.12418 0.04100
C 	C 	0.86629 0.61924 0.12351 0.02200
C 	C 	0.89883 0.59332 0.44774 0.00300
C 	C 	0.90323 0.72431 0.44840 0.01000
C 	C 	0.85665 0.82868 0.96239 -0.05000
C 	C 	0.83818 0.77615 0.79994 0.01500
C 	C 	0.83376 0.64516 0.79928 -0.03600
C 	C 	0.84782 0.56670 0.96107 -0.02400
C 	C 	0.17608 0.16259 0.33015 0.43400
C 	C 	0.35305 0.16506 0.35699 -0.08300
C 	C 	0.87567 0.40137 0.28458 0.44900
C 	C 	0.88036 0.54078 0.28529 -0.12000
N 	N 	0.93130 0.13471 0.74928 -0.27200
N 	N 	0.83826 0.20882 0.82264 -0.22300
H 	H 	0.86025 0.93534 0.96291 0.09700
H 	H 	0.43414 0.15545 0.49920 0.09300
H 	H 	0.02630 0.05907 0.83890 0.14300
H 	H 	0.33541 0.18808 0.07272 0.09600
C 	C 	0.82272 0.86246 0.62198 0.00500
N 	N 	0.81107 0.92746 0.48794 -0.01300
H 	H 	0.91028 0.52943 0.57946 0.03300
H 	H 	0.81871 0.60240 0.66700 0.04000
H 	H 	0.84420 0.46004 0.96051 0.08800
H 	H 	0.91824 0.76709 0.58066 0.03800
H 	H 	0.74328 0.28446 0.73304 0.07100
