data_crystal

_cell_length_a 8.94420
_cell_length_b 25.15400
_cell_length_c 6.79660
_cell_angle_alpha 90.00000
_cell_angle_beta  98.63200
_cell_angle_gamma 90.00000

_symmetry_space_group_name_	'P 1'
_symmetry_space_group_name_H-M	'P 1'

loop_
_symmetry_equiv_pos_as_xyz
  x,y,z

loop_
_atom_site_label
_atom_site_type_symbol
_atom_site_fract_x
_atom_site_fract_y
_atom_site_fract_z
_atom_site_charge
C 	C 	0.66500 0.62350 0.86880 0.35800
C 	C 	0.56780 0.67100 0.79710 -0.10300
C 	C 	0.64030 0.71890 0.79700 -0.02200
H 	H 	0.74760 0.71960 0.81340 0.07300
C 	C 	0.56000 0.76720 0.77340 0.01600
H 	H 	0.61300 0.79990 0.77600 0.03700
C 	C 	0.40440 0.76660 0.74640 -0.12700
C 	C 	0.32120 0.81640 0.73520 0.36300
C 	C 	0.07980 0.76800 0.68300 0.30000
C 	C 	0.16430 0.71750 0.70290 -0.08000
C 	C 	0.32460 0.71770 0.73480 0.05400
C 	C 	0.40580 0.66830 0.75790 0.06200
C 	C 	0.31880 0.62018 0.74230 -0.14000
C 	C 	0.38860 0.56560 0.74590 0.37600
C 	C 	0.16200 0.62210 0.71560 0.01900
H 	H 	0.10640 0.58980 0.71150 0.02300
C 	C 	0.08390 0.67040 0.69450 -0.02400
H 	H 	0.97650 0.67090 0.67460 0.07100
O 	O 	0.62380 0.59713 0.00760 -0.43500
O 	O 	0.78470 0.61551 0.79670 -0.28700
O 	O 	0.37830 0.86067 0.75250 -0.42200
O 	O 	0.16520 0.81473 0.70160 -0.29900
O 	O 	0.94470 0.77332 0.65680 -0.23900
O 	O 	0.35980 0.53346 0.87940 -0.54000
O 	O 	0.46610 0.55330 0.61220 -0.56100
Sr	Sr	0.48891 0.54741 0.24495 1.51400
C 	C 	0.33500 0.12350 0.63120 0.36300
C 	C 	0.43220 0.17100 0.70290 -0.10200
C 	C 	0.35970 0.21890 0.70300 -0.02000
H 	H 	0.25240 0.21960 0.68660 0.07400
C 	C 	0.44000 0.26720 0.72660 0.01600
H 	H 	0.38700 0.29990 0.72400 0.03900
C 	C 	0.59560 0.26660 0.75360 -0.12500
C 	C 	0.67880 0.31640 0.76480 0.36300
C 	C 	0.92020 0.26800 0.81700 0.29800
C 	C 	0.83570 0.21750 0.79710 -0.07700
C 	C 	0.67540 0.21770 0.76520 0.05300
C 	C 	0.59420 0.16830 0.74210 0.06500
C 	C 	0.68120 0.12018 0.75770 -0.14100
C 	C 	0.61140 0.06560 0.75410 0.37700
C 	C 	0.83800 0.12210 0.78440 0.02300
H 	H 	0.89360 0.08980 0.78850 0.02200
C 	C 	0.91610 0.17040 0.80550 -0.02800
H 	H 	0.02350 0.17090 0.82540 0.07500
O 	O 	0.37620 0.09713 0.49240 -0.43800
O 	O 	0.21530 0.11551 0.70330 -0.28600
O 	O 	0.62170 0.36067 0.74750 -0.42000
O 	O 	0.83480 0.31473 0.79840 -0.29800
O 	O 	0.05530 0.27332 0.84320 -0.23500
O 	O 	0.64020 0.03346 0.62060 -0.54000
O 	O 	0.53390 0.05330 0.88780 -0.56000
Sr	Sr	0.51109 0.04741 0.25505 1.51400
C 	C 	0.33500 0.37650 0.13120 0.35900
C 	C 	0.43220 0.32900 0.20290 -0.10200
C 	C 	0.35970 0.28110 0.20300 -0.02200
H 	H 	0.25240 0.28040 0.18660 0.07300
C 	C 	0.44000 0.23280 0.22660 0.01600
H 	H 	0.38700 0.20010 0.22400 0.03700
C 	C 	0.59560 0.23340 0.25360 -0.12700
C 	C 	0.67880 0.18360 0.26480 0.36300
C 	C 	0.92020 0.23200 0.31700 0.30000
C 	C 	0.83570 0.28250 0.29710 -0.08000
C 	C 	0.67540 0.28230 0.26520 0.05400
C 	C 	0.59420 0.33170 0.24210 0.06200
C 	C 	0.68120 0.37982 0.25770 -0.14000
C 	C 	0.61140 0.43440 0.25410 0.37600
C 	C 	0.83800 0.37790 0.28440 0.01900
H 	H 	0.89360 0.41020 0.28850 0.02300
C 	C 	0.91610 0.32960 0.30550 -0.02400
H 	H 	0.02350 0.32910 0.32540 0.07100
O 	O 	0.37620 0.40287 0.99240 -0.43500
O 	O 	0.21530 0.38449 0.20330 -0.28700
O 	O 	0.62170 0.13933 0.24750 -0.42200
O 	O 	0.83480 0.18527 0.29840 -0.29900
O 	O 	0.05530 0.22668 0.34320 -0.23900
O 	O 	0.64020 0.46654 0.12060 -0.54000
O 	O 	0.53390 0.44670 0.38780 -0.56100
Sr	Sr	0.51109 0.45259 0.75505 1.51400
C 	C 	0.66500 0.87650 0.36880 0.36300
C 	C 	0.56780 0.82900 0.29710 -0.10200
C 	C 	0.64030 0.78110 0.29700 -0.02000
H 	H 	0.74760 0.78040 0.31340 0.07400
C 	C 	0.56000 0.73280 0.27340 0.01600
H 	H 	0.61300 0.70010 0.27600 0.03900
C 	C 	0.40440 0.73340 0.24640 -0.12500
C 	C 	0.32120 0.68360 0.23520 0.36300
C 	C 	0.07980 0.73200 0.18300 0.29800
C 	C 	0.16430 0.78250 0.20290 -0.07700
C 	C 	0.32460 0.78230 0.23480 0.05300
C 	C 	0.40580 0.83170 0.25790 0.06500
C 	C 	0.31880 0.87982 0.24230 -0.14100
C 	C 	0.38860 0.93440 0.24590 0.37700
C 	C 	0.16200 0.87790 0.21560 0.02300
H 	H 	0.10640 0.91020 0.21150 0.02200
C 	C 	0.08390 0.82960 0.19450 -0.02800
H 	H 	0.97650 0.82910 0.17460 0.07500
O 	O 	0.62380 0.90287 0.50760 -0.43800
O 	O 	0.78470 0.88449 0.29670 -0.28600
O 	O 	0.37830 0.63933 0.25250 -0.42000
O 	O 	0.16520 0.68527 0.20160 -0.29800
O 	O 	0.94470 0.72668 0.15680 -0.23500
O 	O 	0.35980 0.96654 0.37940 -0.54000
O 	O 	0.46610 0.94670 0.11220 -0.56000
Sr	Sr	0.48891 0.95259 0.74495 1.51400
