data_crystal

_cell_length_a 7.08220
_cell_length_b 20.72000
_cell_length_c 22.87800
_cell_angle_alpha 90.00000
_cell_angle_beta  90.00000
_cell_angle_gamma 90.00000

_symmetry_space_group_name_	'P 1'
_symmetry_space_group_name_H-M	'P 1'

loop_
_symmetry_equiv_pos_as_xyz
  x,y,z

loop_
_atom_site_label
_atom_site_type_symbol
_atom_site_fract_x
_atom_site_fract_y
_atom_site_fract_z
_atom_site_charge
Na	Na	0.82640 0.54417 0.95041 0.58400
Na	Na	0.67360 0.95583 0.45041 0.58400
Na	Na	0.82640 0.45583 0.54959 0.58400
Na	Na	0.67360 0.04417 0.04959 0.58400
Na	Na	0.17360 0.45583 0.04959 0.58400
Na	Na	0.32640 0.04417 0.54959 0.58400
Na	Na	0.17360 0.54417 0.45041 0.58400
Na	Na	0.32640 0.95583 0.95041 0.58400
Cd	Cd	0.77942 0.04032 0.90310 1.23100
Cd	Cd	0.72058 0.45968 0.40310 1.23100
Cd	Cd	0.77942 0.95968 0.59690 1.23100
Cd	Cd	0.72058 0.54032 0.09690 1.23100
Cd	Cd	0.22058 0.95968 0.09690 1.23000
Cd	Cd	0.27942 0.54032 0.59690 1.23000
Cd	Cd	0.22058 0.04032 0.40310 1.23000
Cd	Cd	0.27942 0.45968 0.90310 1.23000
H 	H 	0.78090 0.27630 0.89020 0.05500
H 	H 	0.73710 0.20510 0.05200 0.02800
H 	H 	0.71070 0.30840 0.08870 0.05100
H 	H 	0.03010 0.97930 0.80480 0.03900
H 	H 	0.01970 0.05190 0.78580 0.05400
H 	H 	0.54810 0.95230 0.80950 0.02400
H 	H 	0.74610 0.91860 0.81430 0.03700
H 	H 	0.73220 0.10340 0.77880 0.05000
H 	H 	0.54200 0.06530 0.78450 0.05300
H 	H 	0.71910 0.22370 0.39020 0.05500
H 	H 	0.76290 0.29490 0.55200 0.02800
H 	H 	0.78930 0.19160 0.58870 0.05200
H 	H 	0.46990 0.52070 0.30480 0.04000
H 	H 	0.48030 0.44810 0.28580 0.05500
H 	H 	0.95190 0.54770 0.30950 0.02300
H 	H 	0.75390 0.58140 0.31430 0.03700
H 	H 	0.76780 0.39660 0.27880 0.05000
H 	H 	0.95800 0.43470 0.28450 0.05200
H 	H 	0.78090 0.72370 0.60980 0.05500
H 	H 	0.73710 0.79490 0.44800 0.02800
H 	H 	0.71070 0.69160 0.41130 0.05100
H 	H 	0.03010 0.02070 0.69520 0.04000
H 	H 	0.01970 0.94810 0.71420 0.05400
H 	H 	0.54810 0.04770 0.69050 0.02400
H 	H 	0.74610 0.08140 0.68570 0.03700
H 	H 	0.73220 0.89660 0.72120 0.05000
H 	H 	0.54200 0.93470 0.71550 0.05300
H 	H 	0.71910 0.77630 0.10980 0.05500
H 	H 	0.76290 0.70510 0.94800 0.02900
H 	H 	0.78930 0.80840 0.91130 0.05100
H 	H 	0.46990 0.47930 0.19520 0.04000
H 	H 	0.48030 0.55190 0.21420 0.05500
H 	H 	0.95190 0.45230 0.19050 0.02300
H 	H 	0.75390 0.41860 0.18570 0.03700
H 	H 	0.76780 0.60340 0.22120 0.05000
H 	H 	0.95800 0.56530 0.21550 0.05200
H 	H 	0.21910 0.72370 0.10980 0.05500
H 	H 	0.26290 0.79490 0.94800 0.02800
H 	H 	0.28930 0.69160 0.91130 0.05100
H 	H 	0.96990 0.02070 0.19520 0.03900
H 	H 	0.98030 0.94810 0.21420 0.05400
H 	H 	0.45190 0.04770 0.19050 0.02400
H 	H 	0.25390 0.08140 0.18570 0.03700
H 	H 	0.26780 0.89660 0.22120 0.05000
H 	H 	0.45800 0.93470 0.21550 0.05300
H 	H 	0.28090 0.77630 0.60980 0.05500
H 	H 	0.23710 0.70510 0.44800 0.02800
H 	H 	0.21070 0.80840 0.41130 0.05200
H 	H 	0.53010 0.47930 0.69520 0.04000
H 	H 	0.51970 0.55190 0.71420 0.05500
H 	H 	0.04810 0.45230 0.69050 0.02300
H 	H 	0.24610 0.41860 0.68570 0.03700
H 	H 	0.23220 0.60340 0.72120 0.05000
H 	H 	0.04200 0.56530 0.71550 0.05200
H 	H 	0.21910 0.27630 0.39020 0.05500
H 	H 	0.26290 0.20510 0.55200 0.02800
H 	H 	0.28930 0.30840 0.58870 0.05100
H 	H 	0.96990 0.97930 0.30480 0.04000
H 	H 	0.98030 0.05190 0.28580 0.05400
H 	H 	0.45190 0.95230 0.30950 0.02400
H 	H 	0.25390 0.91860 0.31430 0.03700
H 	H 	0.26780 0.10340 0.27880 0.05000
H 	H 	0.45800 0.06530 0.28450 0.05300
H 	H 	0.28090 0.22370 0.89020 0.05500
H 	H 	0.23710 0.29490 0.05200 0.02900
H 	H 	0.21070 0.19160 0.08870 0.05100
H 	H 	0.53010 0.52070 0.80480 0.04000
H 	H 	0.51970 0.44810 0.78580 0.05500
H 	H 	0.04810 0.54770 0.80950 0.02300
H 	H 	0.24610 0.58140 0.81430 0.03700
H 	H 	0.23220 0.39660 0.77880 0.05000
H 	H 	0.04200 0.43470 0.78450 0.05200
C 	C 	0.73820 0.35620 0.01170 -0.04300
C 	C 	0.76970 0.28290 0.93030 0.03200
C 	C 	0.76940 0.16250 0.94320 0.34900
C 	C 	0.76140 0.34530 0.95120 -0.08600
C 	C 	0.76200 0.22980 0.96690 -0.09300
C 	C 	0.74150 0.24020 0.02670 0.01200
C 	C 	0.72740 0.30230 0.04870 -0.05300
C 	C 	0.72000 0.42020 0.04140 0.31900
C 	C 	0.95830 0.01030 0.78210 -0.06400
C 	C 	0.67600 0.95220 0.79440 -0.05000
C 	C 	0.67200 0.06200 0.77180 -0.06200
C 	C 	0.76180 0.14380 0.51170 -0.04300
C 	C 	0.73030 0.21710 0.43030 0.03200
C 	C 	0.73060 0.33750 0.44320 0.34900
C 	C 	0.73860 0.15470 0.45120 -0.08600
C 	C 	0.73800 0.27020 0.46690 -0.09300
C 	C 	0.75850 0.25980 0.52670 0.01200
C 	C 	0.77260 0.19770 0.54870 -0.05400
C 	C 	0.78000 0.07980 0.54140 0.31900
C 	C 	0.54170 0.48970 0.28210 -0.06700
C 	C 	0.82400 0.54780 0.29440 -0.05000
C 	C 	0.82800 0.43800 0.27180 -0.06200
C 	C 	0.73820 0.64380 0.48830 -0.04300
C 	C 	0.76970 0.71710 0.56970 0.03200
C 	C 	0.76940 0.83750 0.55680 0.34900
C 	C 	0.76140 0.65470 0.54880 -0.08600
C 	C 	0.76200 0.77020 0.53310 -0.09300
C 	C 	0.74150 0.75980 0.47330 0.01200
C 	C 	0.72740 0.69770 0.45130 -0.05400
C 	C 	0.72000 0.57980 0.45860 0.31900
C 	C 	0.95830 0.98970 0.71790 -0.06600
C 	C 	0.67600 0.04780 0.70560 -0.04900
C 	C 	0.67200 0.93800 0.72820 -0.06200
C 	C 	0.76180 0.85620 0.98830 -0.04400
C 	C 	0.73030 0.78290 0.06970 0.03100
C 	C 	0.73060 0.66250 0.05680 0.34900
C 	C 	0.73860 0.84530 0.04880 -0.08500
C 	C 	0.73800 0.72980 0.03310 -0.09300
C 	C 	0.75850 0.74020 0.97330 0.01100
C 	C 	0.77260 0.80230 0.95130 -0.05300
C 	C 	0.78000 0.92020 0.95860 0.31900
C 	C 	0.54170 0.51030 0.21790 -0.06700
C 	C 	0.82400 0.45220 0.20560 -0.05000
C 	C 	0.82800 0.56200 0.22820 -0.06200
C 	C 	0.26180 0.64380 0.98830 -0.04300
C 	C 	0.23030 0.71710 0.06970 0.03200
C 	C 	0.23060 0.83750 0.05680 0.34900
C 	C 	0.23860 0.65470 0.04880 -0.08600
C 	C 	0.23800 0.77020 0.03310 -0.09300
C 	C 	0.25850 0.75980 0.97330 0.01200
C 	C 	0.27260 0.69770 0.95130 -0.05300
C 	C 	0.28000 0.57980 0.95860 0.31900
C 	C 	0.04170 0.98970 0.21790 -0.06400
C 	C 	0.32400 0.04780 0.20560 -0.05000
C 	C 	0.32800 0.93800 0.22820 -0.06200
C 	C 	0.23820 0.85620 0.48830 -0.04300
C 	C 	0.26970 0.78290 0.56970 0.03200
C 	C 	0.26940 0.66250 0.55680 0.34900
C 	C 	0.26140 0.84530 0.54880 -0.08600
C 	C 	0.26200 0.72980 0.53310 -0.09300
C 	C 	0.24150 0.74020 0.47330 0.01200
C 	C 	0.22740 0.80230 0.45130 -0.05400
C 	C 	0.22000 0.92020 0.45860 0.31900
C 	C 	0.45830 0.51030 0.71790 -0.06700
C 	C 	0.17600 0.45220 0.70560 -0.05000
C 	C 	0.17200 0.56200 0.72820 -0.06200
C 	C 	0.26180 0.35620 0.51170 -0.04300
C 	C 	0.23030 0.28290 0.43030 0.03200
C 	C 	0.23060 0.16250 0.44320 0.34900
C 	C 	0.23860 0.34530 0.45120 -0.08600
C 	C 	0.23800 0.22980 0.46690 -0.09300
C 	C 	0.25850 0.24020 0.52670 0.01200
C 	C 	0.27260 0.30230 0.54870 -0.05400
C 	C 	0.28000 0.42020 0.54140 0.31900
C 	C 	0.04170 0.01030 0.28210 -0.06600
C 	C 	0.32400 0.95220 0.29440 -0.04900
C 	C 	0.32800 0.06200 0.27180 -0.06200
C 	C 	0.23820 0.14380 0.01170 -0.04400
C 	C 	0.26970 0.21710 0.93030 0.03100
C 	C 	0.26940 0.33750 0.94320 0.34900
C 	C 	0.26140 0.15470 0.95120 -0.08500
C 	C 	0.26200 0.27020 0.96690 -0.09300
C 	C 	0.24150 0.25980 0.02670 0.01100
C 	C 	0.22740 0.19770 0.04870 -0.05300
C 	C 	0.22000 0.07980 0.04140 0.31900
C 	C 	0.45830 0.48970 0.78210 -0.06700
C 	C 	0.17600 0.54780 0.79440 -0.05000
C 	C 	0.17200 0.43800 0.77180 -0.06200
S 	S 	0.76330 0.40906 0.89904 0.55100
S 	S 	0.73670 0.09094 0.39904 0.55100
S 	S 	0.76330 0.59094 0.60096 0.55100
S 	S 	0.73670 0.90906 0.10096 0.55100
S 	S 	0.23670 0.59094 0.10096 0.55100
S 	S 	0.26330 0.90906 0.60096 0.55100
S 	S 	0.23670 0.40906 0.39904 0.55100
S 	S 	0.26330 0.09094 0.89904 0.55100
N 	N 	0.76400 0.01460 0.80600 -0.18100
N 	N 	0.73600 0.48540 0.30600 -0.18100
N 	N 	0.76400 0.98540 0.69400 -0.18100
N 	N 	0.73600 0.51460 0.19400 -0.18100
N 	N 	0.23600 0.98540 0.19400 -0.18100
N 	N 	0.26400 0.51460 0.69400 -0.18100
N 	N 	0.23600 0.01460 0.30600 -0.18100
N 	N 	0.26400 0.48540 0.80600 -0.18100
O 	O 	0.78390 0.15420 0.88970 -0.36900
O 	O 	0.93970 0.44490 0.90450 -0.43700
O 	O 	0.75990 0.11610 0.97840 -0.44400
O 	O 	0.82800 0.46420 0.03000 -0.47900
O 	O 	0.73650 0.37880 0.84380 -0.29400
O 	O 	0.60920 0.45280 0.91510 -0.43800
O 	O 	0.59490 0.42720 0.08110 -0.37300
O 	O 	0.71610 0.34580 0.38970 -0.36900
O 	O 	0.56030 0.05510 0.40450 -0.43700
O 	O 	0.74010 0.38390 0.47840 -0.44400
O 	O 	0.67200 0.03580 0.53000 -0.47900
O 	O 	0.76350 0.12120 0.34380 -0.29500
O 	O 	0.89080 0.04720 0.41510 -0.43900
O 	O 	0.90510 0.07280 0.58110 -0.37300
O 	O 	0.78390 0.84580 0.61030 -0.36900
O 	O 	0.93970 0.55510 0.59550 -0.43700
O 	O 	0.75990 0.88390 0.52160 -0.44400
O 	O 	0.82800 0.53580 0.47000 -0.47900
O 	O 	0.73650 0.62120 0.65620 -0.29400
O 	O 	0.60920 0.54720 0.58490 -0.43800
O 	O 	0.59490 0.57280 0.41890 -0.37300
O 	O 	0.71610 0.65420 0.11030 -0.36900
O 	O 	0.56030 0.94490 0.09550 -0.43700
O 	O 	0.74010 0.61610 0.02160 -0.44400
O 	O 	0.67200 0.96420 0.97000 -0.47900
O 	O 	0.76350 0.87880 0.15620 -0.29400
O 	O 	0.89080 0.95280 0.08490 -0.43800
O 	O 	0.90510 0.92720 0.91890 -0.37300
O 	O 	0.21610 0.84580 0.11030 -0.36900
O 	O 	0.06030 0.55510 0.09550 -0.43700
O 	O 	0.24010 0.88390 0.02160 -0.44400
O 	O 	0.17200 0.53580 0.97000 -0.47900
O 	O 	0.26350 0.62120 0.15620 -0.29400
O 	O 	0.39080 0.54720 0.08490 -0.43800
O 	O 	0.40510 0.57280 0.91890 -0.37300
O 	O 	0.28390 0.65420 0.61030 -0.36900
O 	O 	0.43970 0.94490 0.59550 -0.43700
O 	O 	0.25990 0.61610 0.52160 -0.44400
O 	O 	0.32800 0.96420 0.47000 -0.47900
O 	O 	0.23650 0.87880 0.65620 -0.29500
O 	O 	0.10920 0.95280 0.58490 -0.43900
O 	O 	0.09490 0.92720 0.41890 -0.37300
O 	O 	0.21610 0.15420 0.38970 -0.36900
O 	O 	0.06030 0.44490 0.40450 -0.43700
O 	O 	0.24010 0.11610 0.47840 -0.44400
O 	O 	0.17200 0.46420 0.53000 -0.47900
O 	O 	0.26350 0.37880 0.34380 -0.29400
O 	O 	0.39080 0.45280 0.41510 -0.43800
O 	O 	0.40510 0.42720 0.58110 -0.37300
O 	O 	0.28390 0.34580 0.88970 -0.36900
O 	O 	0.43970 0.05510 0.90450 -0.43700
O 	O 	0.25990 0.38390 0.97840 -0.44400
O 	O 	0.32800 0.03580 0.03000 -0.47900
O 	O 	0.23650 0.12120 0.84380 -0.29400
O 	O 	0.10920 0.04720 0.91510 -0.43800
O 	O 	0.09490 0.07280 0.08110 -0.37300
