data_crystal

_cell_length_a 9.25530
_cell_length_b 9.35370
_cell_length_c 13.87350
_cell_angle_alpha 109.70100
_cell_angle_beta  101.75800
_cell_angle_gamma 90.00000

_symmetry_space_group_name_	'P 1'
_symmetry_space_group_name_H-M	'P 1'

loop_
_symmetry_equiv_pos_as_xyz
  x,y,z

loop_
_atom_site_label
_atom_site_type_symbol
_atom_site_fract_x
_atom_site_fract_y
_atom_site_fract_z
_atom_site_charge
Cu	Cu	0.03860 0.02030 0.38460 0.88800
Cu	Cu	0.46140 0.63570 0.61540 0.89100
Cu	Cu	0.96140 0.97970 0.61540 0.88700
Cu	Cu	0.53860 0.36430 0.38460 0.89100
H 	H 	0.82334 0.93081 0.18072 -0.01100
H 	H 	0.68184 0.72310 0.04864 0.10700
H 	H 	0.81792 0.46746 0.23376 0.15000
H 	H 	0.95505 0.68382 0.35980 -0.01200
H 	H 	0.58907 0.46518 0.99258 0.19400
H 	H 	0.58465 0.39326 0.07648 0.19200
H 	H 	0.80901 0.26485 0.04674 -0.01100
H 	H 	0.67666 0.75009 0.81928 -0.00400
H 	H 	0.81816 0.67446 0.95136 0.11000
H 	H 	0.68208 0.23370 0.76624 0.14400
H 	H 	0.54495 0.32402 0.64020 -0.00800
H 	H 	0.91093 0.47260 0.00742 0.14000
H 	H 	0.91535 0.31678 0.92352 0.16800
H 	H 	0.69099 0.21811 0.95326 0.00200
H 	H 	0.17666 0.06919 0.81928 -0.00500
H 	H 	0.31816 0.27690 0.95136 0.11200
H 	H 	0.18208 0.53254 0.76624 0.14400
H 	H 	0.04495 0.31618 0.64020 -0.01000
H 	H 	0.41093 0.53482 0.00742 0.14400
H 	H 	0.41535 0.60674 0.92352 0.16900
H 	H 	0.19099 0.73515 0.95326 -0.00100
H 	H 	0.32334 0.24991 0.18072 -0.00900
H 	H 	0.18184 0.32554 0.04864 0.10700
H 	H 	0.31792 0.76630 0.23376 0.15000
H 	H 	0.45505 0.67598 0.35980 -0.01200
H 	H 	0.08907 0.52740 0.99258 0.19400
H 	H 	0.08465 0.68322 0.07648 0.19500
H 	H 	0.30901 0.78189 0.04674 -0.01300
C 	C 	0.76960 0.25680 0.30160 0.27700
C 	C 	0.77500 0.20250 0.39200 0.02400
C 	C 	0.82190 0.83460 0.19140 0.12700
C 	C 	0.73720 0.71240 0.11200 -0.25700
C 	C 	0.73630 0.57390 0.12860 0.26400
C 	C 	0.81740 0.56250 0.22140 -0.25400
C 	C 	0.89880 0.69170 0.29580 0.13500
C 	C 	0.64687 0.43600 0.04600 -0.49700
C 	C 	0.73040 0.95520 0.69840 0.26800
C 	C 	0.72500 0.81050 0.60800 0.02500
C 	C 	0.67810 0.64320 0.80860 0.12000
C 	C 	0.76280 0.60040 0.88800 -0.23500
C 	C 	0.76370 0.44530 0.87140 0.23300
C 	C 	0.68260 0.34110 0.77860 -0.23500
C 	C 	0.60120 0.39590 0.70420 0.12700
C 	C 	0.85313 0.39000 0.95400 -0.39900
C 	C 	0.23040 0.74320 0.69840 0.27700
C 	C 	0.22500 0.79750 0.60800 0.02400
C 	C 	0.17810 0.16540 0.80860 0.12100
C 	C 	0.26280 0.28760 0.88800 -0.23800
C 	C 	0.26370 0.42610 0.87140 0.23600
C 	C 	0.18260 0.43750 0.77860 -0.23700
C 	C 	0.10120 0.30830 0.70420 0.12700
C 	C 	0.35313 0.56400 0.95400 -0.41000
C 	C 	0.26960 0.04480 0.30160 0.27000
C 	C 	0.27500 0.18950 0.39200 0.02500
C 	C 	0.32190 0.35680 0.19140 0.12800
C 	C 	0.23720 0.39960 0.11200 -0.25700
C 	C 	0.23630 0.55470 0.12860 0.26600
C 	C 	0.31740 0.65890 0.22140 -0.25500
C 	C 	0.39880 0.60410 0.29580 0.13600
C 	C 	0.14687 0.61000 0.04600 -0.50000
C 	C 	0.75000 0.32000 -0.00000 0.18100
C 	C 	0.25000 0.68000 -0.00000 0.19000
N 	N 	0.67580 0.24640 0.45080 -0.17500
N 	N 	0.70640 0.18270 0.52540 -0.04700
N 	N 	0.82280 0.10190 0.50980 -0.12200
N 	N 	0.86600 0.11350 0.42700 -0.19000
N 	N 	0.90200 0.82740 0.28200 -0.23200
N 	N 	0.82420 0.79560 0.54920 -0.17700
N 	N 	0.79360 0.65730 0.47460 -0.04700
N 	N 	0.67720 0.59210 0.49020 -0.12400
N 	N 	0.63400 0.68650 0.57300 -0.19300
N 	N 	0.59800 0.54540 0.71800 -0.22600
N 	N 	0.32420 0.75360 0.54920 -0.17500
N 	N 	0.29360 0.81730 0.47460 -0.04700
N 	N 	0.17720 0.89810 0.49020 -0.12200
N 	N 	0.13400 0.88650 0.57300 -0.19000
N 	N 	0.09800 0.17260 0.71800 -0.22800
N 	N 	0.17580 0.20440 0.45080 -0.17700
N 	N 	0.20640 0.34270 0.52540 -0.04800
N 	N 	0.32280 0.40790 0.50980 -0.12400
N 	N 	0.36600 0.31350 0.42700 -0.19300
N 	N 	0.40200 0.45460 0.28200 -0.23000
O 	O 	0.86640 0.22820 0.25040 -0.26300
O 	O 	0.65500 0.32950 0.28900 -0.39800
O 	O 	0.63360 0.97780 0.74960 -0.26200
O 	O 	0.84500 0.04050 0.71100 -0.38700
O 	O 	0.13360 0.77180 0.74960 -0.26200
O 	O 	0.34500 0.67050 0.71100 -0.39600
O 	O 	0.36640 0.02220 0.25040 -0.26400
O 	O 	0.15500 0.95950 0.28900 -0.39100
