data_crystal

_cell_length_a 29.33040
_cell_length_b 29.33040
_cell_length_c 29.33040
_cell_angle_alpha 60.00000
_cell_angle_beta  60.00000
_cell_angle_gamma 60.00000

_symmetry_space_group_name_	'P 1'
_symmetry_space_group_name_H-M	'P 1'

loop_
_symmetry_equiv_pos_as_xyz
  x,y,z

loop_
_atom_site_label
_atom_site_type_symbol
_atom_site_fract_x
_atom_site_fract_y
_atom_site_fract_z
_atom_site_charge
Cu	Cu	0.36049 0.00127 0.63951 0.91600
Cu	Cu	0.27052 0.00052 0.72948 0.90900
Cu	Cu	0.00127 0.36049 0.99873 0.91600
Cu	Cu	0.00052 0.27052 0.99948 0.90900
Cu	Cu	0.63951 0.99873 0.36049 0.91600
Cu	Cu	0.72948 0.99948 0.27052 0.90900
Cu	Cu	0.99873 0.63951 0.00127 0.91600
Cu	Cu	0.99948 0.72948 0.00052 0.90900
Cu	Cu	0.36049 0.63951 0.99873 0.91600
Cu	Cu	0.27052 0.72948 0.99948 0.90900
Cu	Cu	0.00127 0.99873 0.63951 0.91600
Cu	Cu	0.00052 0.99948 0.72948 0.90900
Cu	Cu	0.63951 0.36049 0.00127 0.91600
Cu	Cu	0.72948 0.27052 0.00052 0.90900
Cu	Cu	0.99873 0.00127 0.36049 0.91600
Cu	Cu	0.99948 0.00052 0.27052 0.90900
Cu	Cu	0.36049 0.99873 0.00127 0.91600
Cu	Cu	0.27052 0.99948 0.00052 0.90900
Cu	Cu	0.00127 0.63951 0.36049 0.91600
Cu	Cu	0.00052 0.72948 0.27052 0.90900
Cu	Cu	0.63951 0.00127 0.99873 0.91600
Cu	Cu	0.72948 0.00052 0.99948 0.90900
Cu	Cu	0.99873 0.36049 0.63951 0.91600
Cu	Cu	0.99948 0.27052 0.72948 0.90900
H 	H 	0.32480 0.83320 0.82880 0.06700
H 	H 	0.45770 0.69130 0.82170 0.08300
H 	H 	0.44730 0.82650 0.67930 0.09300
H 	H 	0.51950 0.65350 0.74070 0.04700
H 	H 	0.54480 0.66880 0.76700 0.04500
H 	H 	0.62220 0.58520 0.74000 0.10300
H 	H 	0.83320 0.32480 0.01320 0.06800
H 	H 	0.69130 0.45770 0.02930 0.08400
H 	H 	0.82650 0.44730 0.04690 0.09400
H 	H 	0.65350 0.51950 0.08630 0.04800
H 	H 	0.66880 0.54480 0.01940 0.04700
H 	H 	0.58520 0.62220 0.05260 0.10500
H 	H 	0.82880 0.01320 0.32480 0.06800
H 	H 	0.82170 0.02930 0.45770 0.08400
H 	H 	0.67930 0.04690 0.44730 0.09400
H 	H 	0.74070 0.08630 0.51950 0.04800
H 	H 	0.76700 0.01940 0.54480 0.04700
H 	H 	0.74000 0.05260 0.62220 0.10500
H 	H 	0.01320 0.82880 0.83320 0.06800
H 	H 	0.02930 0.82170 0.69130 0.08400
H 	H 	0.04690 0.67930 0.82650 0.09400
H 	H 	0.08630 0.74070 0.65350 0.04800
H 	H 	0.01940 0.76700 0.66880 0.04700
H 	H 	0.05260 0.74000 0.58520 0.10500
H 	H 	0.32480 0.82880 0.01320 0.06800
H 	H 	0.45770 0.82170 0.02930 0.08400
H 	H 	0.44730 0.67930 0.04690 0.09400
H 	H 	0.51950 0.74070 0.08630 0.04800
H 	H 	0.54480 0.76700 0.01940 0.04700
H 	H 	0.62220 0.74000 0.05260 0.10500
H 	H 	0.83320 0.01320 0.82880 0.06800
H 	H 	0.69130 0.02930 0.82170 0.08400
H 	H 	0.82650 0.04690 0.67930 0.09400
H 	H 	0.65350 0.08630 0.74070 0.04800
H 	H 	0.66880 0.01940 0.76700 0.04700
H 	H 	0.58520 0.05260 0.74000 0.10500
H 	H 	0.82880 0.32480 0.83320 0.06800
H 	H 	0.82170 0.45770 0.69130 0.08400
H 	H 	0.67930 0.44730 0.82650 0.09400
H 	H 	0.74070 0.51950 0.65350 0.04800
H 	H 	0.76700 0.54480 0.66880 0.04600
H 	H 	0.74000 0.62220 0.58520 0.10400
H 	H 	0.01320 0.83320 0.32480 0.06800
H 	H 	0.02930 0.69130 0.45770 0.08400
H 	H 	0.04690 0.82650 0.44730 0.09400
H 	H 	0.08630 0.65350 0.51950 0.04800
H 	H 	0.01940 0.66880 0.54480 0.04700
H 	H 	0.05260 0.58520 0.62220 0.10500
H 	H 	0.32480 0.01320 0.83320 0.06800
H 	H 	0.45770 0.02930 0.69130 0.08400
H 	H 	0.44730 0.04690 0.82650 0.09400
H 	H 	0.51950 0.08630 0.65350 0.04800
H 	H 	0.54480 0.01940 0.66880 0.04700
H 	H 	0.62220 0.05260 0.58520 0.10500
H 	H 	0.83320 0.82880 0.32480 0.06800
H 	H 	0.69130 0.82170 0.45770 0.08400
H 	H 	0.82650 0.67930 0.44730 0.09400
H 	H 	0.65350 0.74070 0.51950 0.04800
H 	H 	0.66880 0.76700 0.54480 0.04600
H 	H 	0.58520 0.74000 0.62220 0.10400
H 	H 	0.82880 0.83320 0.01320 0.06800
H 	H 	0.82170 0.69130 0.02930 0.08400
H 	H 	0.67930 0.82650 0.04690 0.09400
H 	H 	0.74070 0.65350 0.08630 0.04800
H 	H 	0.76700 0.66880 0.01940 0.04700
H 	H 	0.74000 0.58520 0.05260 0.10500
H 	H 	0.01320 0.32480 0.82880 0.06800
H 	H 	0.02930 0.45770 0.82170 0.08400
H 	H 	0.04690 0.44730 0.67930 0.09400
H 	H 	0.08630 0.51950 0.74070 0.04800
H 	H 	0.01940 0.54480 0.76700 0.04700
H 	H 	0.05260 0.62220 0.74000 0.10500
H 	H 	0.67520 0.16680 0.17120 0.06800
H 	H 	0.54230 0.30870 0.17830 0.08400
H 	H 	0.55270 0.17350 0.32070 0.09400
H 	H 	0.48050 0.34650 0.25930 0.04800
H 	H 	0.45520 0.33120 0.23300 0.04600
H 	H 	0.37780 0.41480 0.26000 0.10400
H 	H 	0.16680 0.67520 0.98680 0.06800
H 	H 	0.30870 0.54230 0.97070 0.08400
H 	H 	0.17350 0.55270 0.95310 0.09400
H 	H 	0.34650 0.48050 0.91370 0.04800
H 	H 	0.33120 0.45520 0.98060 0.04700
H 	H 	0.41480 0.37780 0.94740 0.10500
H 	H 	0.17120 0.98680 0.67520 0.06800
H 	H 	0.17830 0.97070 0.54230 0.08400
H 	H 	0.32070 0.95310 0.55270 0.09400
H 	H 	0.25930 0.91370 0.48050 0.04800
H 	H 	0.23300 0.98060 0.45520 0.04700
H 	H 	0.26000 0.94740 0.37780 0.10500
H 	H 	0.98680 0.17120 0.16680 0.06800
H 	H 	0.97070 0.17830 0.30870 0.08400
H 	H 	0.95310 0.32070 0.17350 0.09400
H 	H 	0.91370 0.25930 0.34650 0.04800
H 	H 	0.98060 0.23300 0.33120 0.04700
H 	H 	0.94740 0.26000 0.41480 0.10500
H 	H 	0.67520 0.17120 0.98680 0.06800
H 	H 	0.54230 0.17830 0.97070 0.08400
H 	H 	0.55270 0.32070 0.95310 0.09400
H 	H 	0.48050 0.25930 0.91370 0.04800
H 	H 	0.45520 0.23300 0.98060 0.04700
H 	H 	0.37780 0.26000 0.94740 0.10500
H 	H 	0.16680 0.98680 0.17120 0.06800
H 	H 	0.30870 0.97070 0.17830 0.08400
H 	H 	0.17350 0.95310 0.32070 0.09400
H 	H 	0.34650 0.91370 0.25930 0.04800
H 	H 	0.33120 0.98060 0.23300 0.04700
H 	H 	0.41480 0.94740 0.26000 0.10500
H 	H 	0.17120 0.67520 0.16680 0.06800
H 	H 	0.17830 0.54230 0.30870 0.08400
H 	H 	0.32070 0.55270 0.17350 0.09400
H 	H 	0.25930 0.48050 0.34650 0.04800
H 	H 	0.23300 0.45520 0.33120 0.04600
H 	H 	0.26000 0.37780 0.41480 0.10400
H 	H 	0.98680 0.16680 0.67520 0.06800
H 	H 	0.97070 0.30870 0.54230 0.08400
H 	H 	0.95310 0.17350 0.55270 0.09400
H 	H 	0.91370 0.34650 0.48050 0.04800
H 	H 	0.98060 0.33120 0.45520 0.04700
H 	H 	0.94740 0.41480 0.37780 0.10500
H 	H 	0.67520 0.98680 0.16680 0.06800
H 	H 	0.54230 0.97070 0.30870 0.08400
H 	H 	0.55270 0.95310 0.17350 0.09400
H 	H 	0.48050 0.91370 0.34650 0.04800
H 	H 	0.45520 0.98060 0.33120 0.04700
H 	H 	0.37780 0.94740 0.41480 0.10500
H 	H 	0.16680 0.17120 0.67520 0.06800
H 	H 	0.30870 0.17830 0.54230 0.08400
H 	H 	0.17350 0.32070 0.55270 0.09400
H 	H 	0.34650 0.25930 0.48050 0.04800
H 	H 	0.33120 0.23300 0.45520 0.04600
H 	H 	0.41480 0.26000 0.37780 0.10400
H 	H 	0.17120 0.16680 0.98680 0.06800
H 	H 	0.17830 0.30870 0.97070 0.08400
H 	H 	0.32070 0.17350 0.95310 0.09400
H 	H 	0.25930 0.34650 0.91370 0.04800
H 	H 	0.23300 0.33120 0.98060 0.04700
H 	H 	0.26000 0.41480 0.94740 0.10500
H 	H 	0.98680 0.67520 0.17120 0.06800
H 	H 	0.97070 0.54230 0.17830 0.08400
H 	H 	0.95310 0.55270 0.32070 0.09400
H 	H 	0.91370 0.48050 0.25930 0.04800
H 	H 	0.98060 0.45520 0.23300 0.04700
H 	H 	0.94740 0.37780 0.26000 0.10500
C 	C 	0.38450 0.83670 0.75270 -0.02500
C 	C 	0.35950 0.81224 0.80854 -0.02100
C 	C 	0.38520 0.75680 0.83520 -0.03400
C 	C 	0.43780 0.72840 0.80400 -0.10700
C 	C 	0.46070 0.75470 0.74710 0.15800
C 	C 	0.43350 0.80950 0.71850 -0.10800
C 	C 	0.35790 0.73190 0.89730 0.34800
C 	C 	0.35900 0.89660 0.72120 0.31500
C 	C 	0.54010 0.67670 0.73230 -0.02900
C 	C 	0.59740 0.66480 0.68620 0.12000
C 	C 	0.63310 0.61110 0.70370 -0.17000
C 	C 	0.83670 0.38450 0.02610 -0.02500
C 	C 	0.81224 0.35950 0.01972 -0.02100
C 	C 	0.75680 0.38520 0.02280 -0.03400
C 	C 	0.72840 0.43780 0.02980 -0.10700
C 	C 	0.75470 0.46070 0.03750 0.15900
C 	C 	0.80950 0.43350 0.03850 -0.10800
C 	C 	0.73190 0.35790 0.01290 0.34800
C 	C 	0.89660 0.35900 0.02320 0.31500
C 	C 	0.67670 0.54010 0.05090 -0.02900
C 	C 	0.66480 0.59740 0.05160 0.12000
C 	C 	0.61110 0.63310 0.05210 -0.17000
C 	C 	0.75270 0.02610 0.38450 -0.02500
C 	C 	0.80854 0.01972 0.35950 -0.02100
C 	C 	0.83520 0.02280 0.38520 -0.03400
C 	C 	0.80400 0.02980 0.43780 -0.10700
C 	C 	0.74710 0.03750 0.46070 0.15900
C 	C 	0.71850 0.03850 0.43350 -0.10800
C 	C 	0.89730 0.01290 0.35790 0.34800
C 	C 	0.72120 0.02320 0.35900 0.31500
C 	C 	0.73230 0.05090 0.54010 -0.02900
C 	C 	0.68620 0.05160 0.59740 0.12000
C 	C 	0.70370 0.05210 0.63310 -0.17000
C 	C 	0.02610 0.75270 0.83670 -0.02500
C 	C 	0.01972 0.80854 0.81224 -0.02100
C 	C 	0.02280 0.83520 0.75680 -0.03400
C 	C 	0.02980 0.80400 0.72840 -0.10700
C 	C 	0.03750 0.74710 0.75470 0.15900
C 	C 	0.03850 0.71850 0.80950 -0.10800
C 	C 	0.01290 0.89730 0.73190 0.34800
C 	C 	0.02320 0.72120 0.89660 0.31500
C 	C 	0.05090 0.73230 0.67670 -0.02900
C 	C 	0.05160 0.68620 0.66480 0.12000
C 	C 	0.05210 0.70370 0.61110 -0.17000
C 	C 	0.38450 0.75270 0.02610 -0.02500
C 	C 	0.35950 0.80854 0.01972 -0.02100
C 	C 	0.38520 0.83520 0.02280 -0.03400
C 	C 	0.43780 0.80400 0.02980 -0.10700
C 	C 	0.46070 0.74710 0.03750 0.15900
C 	C 	0.43350 0.71850 0.03850 -0.10800
C 	C 	0.35790 0.89730 0.01290 0.34800
C 	C 	0.35900 0.72120 0.02320 0.31500
C 	C 	0.54010 0.73230 0.05090 -0.02900
C 	C 	0.59740 0.68620 0.05160 0.12000
C 	C 	0.63310 0.70370 0.05210 -0.17000
C 	C 	0.83670 0.02610 0.75270 -0.02500
C 	C 	0.81224 0.01972 0.80854 -0.02100
C 	C 	0.75680 0.02280 0.83520 -0.03400
C 	C 	0.72840 0.02980 0.80400 -0.10700
C 	C 	0.75470 0.03750 0.74710 0.15900
C 	C 	0.80950 0.03850 0.71850 -0.10800
C 	C 	0.73190 0.01290 0.89730 0.34800
C 	C 	0.89660 0.02320 0.72120 0.31500
C 	C 	0.67670 0.05090 0.73230 -0.02900
C 	C 	0.66480 0.05160 0.68620 0.12000
C 	C 	0.61110 0.05210 0.70370 -0.17000
C 	C 	0.75270 0.38450 0.83670 -0.02500
C 	C 	0.80854 0.35950 0.81224 -0.02100
C 	C 	0.83520 0.38520 0.75680 -0.03400
C 	C 	0.80400 0.43780 0.72840 -0.10700
C 	C 	0.74710 0.46070 0.75470 0.15800
C 	C 	0.71850 0.43350 0.80950 -0.10800
C 	C 	0.89730 0.35790 0.73190 0.34800
C 	C 	0.72120 0.35900 0.89660 0.31500
C 	C 	0.73230 0.54010 0.67670 -0.02900
C 	C 	0.68620 0.59740 0.66480 0.12000
C 	C 	0.70370 0.63310 0.61110 -0.17000
C 	C 	0.02610 0.83670 0.38450 -0.02500
C 	C 	0.01972 0.81224 0.35950 -0.02100
C 	C 	0.02280 0.75680 0.38520 -0.03400
C 	C 	0.02980 0.72840 0.43780 -0.10700
C 	C 	0.03750 0.75470 0.46070 0.15900
C 	C 	0.03850 0.80950 0.43350 -0.10800
C 	C 	0.01290 0.73190 0.35790 0.34800
C 	C 	0.02320 0.89660 0.35900 0.31500
C 	C 	0.05090 0.67670 0.54010 -0.02900
C 	C 	0.05160 0.66480 0.59740 0.12000
C 	C 	0.05210 0.61110 0.63310 -0.17000
C 	C 	0.38450 0.02610 0.83670 -0.02500
C 	C 	0.35950 0.01972 0.81224 -0.02100
C 	C 	0.38520 0.02280 0.75680 -0.03400
C 	C 	0.43780 0.02980 0.72840 -0.10700
C 	C 	0.46070 0.03750 0.75470 0.15900
C 	C 	0.43350 0.03850 0.80950 -0.10800
C 	C 	0.35790 0.01290 0.73190 0.34800
C 	C 	0.35900 0.02320 0.89660 0.31500
C 	C 	0.54010 0.05090 0.67670 -0.02900
C 	C 	0.59740 0.05160 0.66480 0.12000
C 	C 	0.63310 0.05210 0.61110 -0.17000
C 	C 	0.83670 0.75270 0.38450 -0.02500
C 	C 	0.81224 0.80854 0.35950 -0.02100
C 	C 	0.75680 0.83520 0.38520 -0.03400
C 	C 	0.72840 0.80400 0.43780 -0.10700
C 	C 	0.75470 0.74710 0.46070 0.15800
C 	C 	0.80950 0.71850 0.43350 -0.10800
C 	C 	0.73190 0.89730 0.35790 0.34800
C 	C 	0.89660 0.72120 0.35900 0.31500
C 	C 	0.67670 0.73230 0.54010 -0.02900
C 	C 	0.66480 0.68620 0.59740 0.12000
C 	C 	0.61110 0.70370 0.63310 -0.17000
C 	C 	0.75270 0.83670 0.02610 -0.02500
C 	C 	0.80854 0.81224 0.01972 -0.02100
C 	C 	0.83520 0.75680 0.02280 -0.03400
C 	C 	0.80400 0.72840 0.02980 -0.10700
C 	C 	0.74710 0.75470 0.03750 0.15900
C 	C 	0.71850 0.80950 0.03850 -0.10800
C 	C 	0.89730 0.73190 0.01290 0.34800
C 	C 	0.72120 0.89660 0.02320 0.31500
C 	C 	0.73230 0.67670 0.05090 -0.02900
C 	C 	0.68620 0.66480 0.05160 0.12000
C 	C 	0.70370 0.61110 0.05210 -0.17000
C 	C 	0.02610 0.38450 0.75270 -0.02500
C 	C 	0.01972 0.35950 0.80854 -0.02100
C 	C 	0.02280 0.38520 0.83520 -0.03400
C 	C 	0.02980 0.43780 0.80400 -0.10700
C 	C 	0.03750 0.46070 0.74710 0.15900
C 	C 	0.03850 0.43350 0.71850 -0.10800
C 	C 	0.01290 0.35790 0.89730 0.34800
C 	C 	0.02320 0.35900 0.72120 0.31500
C 	C 	0.05090 0.54010 0.73230 -0.02900
C 	C 	0.05160 0.59740 0.68620 0.12000
C 	C 	0.05210 0.63310 0.70370 -0.17000
C 	C 	0.61550 0.16330 0.24730 -0.02500
C 	C 	0.64050 0.18776 0.19146 -0.02100
C 	C 	0.61480 0.24320 0.16480 -0.03400
C 	C 	0.56220 0.27160 0.19600 -0.10700
C 	C 	0.53930 0.24530 0.25290 0.15800
C 	C 	0.56650 0.19050 0.28150 -0.10800
C 	C 	0.64210 0.26810 0.10270 0.34800
C 	C 	0.64100 0.10340 0.27880 0.31500
C 	C 	0.45990 0.32330 0.26770 -0.02900
C 	C 	0.40260 0.33520 0.31380 0.12000
C 	C 	0.36690 0.38890 0.29630 -0.17000
C 	C 	0.16330 0.61550 0.97390 -0.02500
C 	C 	0.18776 0.64050 0.98028 -0.02100
C 	C 	0.24320 0.61480 0.97720 -0.03400
C 	C 	0.27160 0.56220 0.97020 -0.10700
C 	C 	0.24530 0.53930 0.96250 0.15900
C 	C 	0.19050 0.56650 0.96150 -0.10800
C 	C 	0.26810 0.64210 0.98710 0.34800
C 	C 	0.10340 0.64100 0.97680 0.31500
C 	C 	0.32330 0.45990 0.94910 -0.02900
C 	C 	0.33520 0.40260 0.94840 0.12000
C 	C 	0.38890 0.36690 0.94790 -0.17000
C 	C 	0.24730 0.97390 0.61550 -0.02500
C 	C 	0.19146 0.98028 0.64050 -0.02100
C 	C 	0.16480 0.97720 0.61480 -0.03400
C 	C 	0.19600 0.97020 0.56220 -0.10700
C 	C 	0.25290 0.96250 0.53930 0.15900
C 	C 	0.28150 0.96150 0.56650 -0.10800
C 	C 	0.10270 0.98710 0.64210 0.34800
C 	C 	0.27880 0.97680 0.64100 0.31500
C 	C 	0.26770 0.94910 0.45990 -0.02900
C 	C 	0.31380 0.94840 0.40260 0.12000
C 	C 	0.29630 0.94790 0.36690 -0.17000
C 	C 	0.97390 0.24730 0.16330 -0.02500
C 	C 	0.98028 0.19146 0.18776 -0.02100
C 	C 	0.97720 0.16480 0.24320 -0.03400
C 	C 	0.97020 0.19600 0.27160 -0.10700
C 	C 	0.96250 0.25290 0.24530 0.15900
C 	C 	0.96150 0.28150 0.19050 -0.10800
C 	C 	0.98710 0.10270 0.26810 0.34800
C 	C 	0.97680 0.27880 0.10340 0.31500
C 	C 	0.94910 0.26770 0.32330 -0.02900
C 	C 	0.94840 0.31380 0.33520 0.12000
C 	C 	0.94790 0.29630 0.38890 -0.17000
C 	C 	0.61550 0.24730 0.97390 -0.02500
C 	C 	0.64050 0.19146 0.98028 -0.02100
C 	C 	0.61480 0.16480 0.97720 -0.03400
C 	C 	0.56220 0.19600 0.97020 -0.10700
C 	C 	0.53930 0.25290 0.96250 0.15900
C 	C 	0.56650 0.28150 0.96150 -0.10800
C 	C 	0.64210 0.10270 0.98710 0.34800
C 	C 	0.64100 0.27880 0.97680 0.31500
C 	C 	0.45990 0.26770 0.94910 -0.02900
C 	C 	0.40260 0.31380 0.94840 0.12000
C 	C 	0.36690 0.29630 0.94790 -0.17000
C 	C 	0.16330 0.97390 0.24730 -0.02500
C 	C 	0.18776 0.98028 0.19146 -0.02100
C 	C 	0.24320 0.97720 0.16480 -0.03400
C 	C 	0.27160 0.97020 0.19600 -0.10700
C 	C 	0.24530 0.96250 0.25290 0.15900
C 	C 	0.19050 0.96150 0.28150 -0.10800
C 	C 	0.26810 0.98710 0.10270 0.34800
C 	C 	0.10340 0.97680 0.27880 0.31500
C 	C 	0.32330 0.94910 0.26770 -0.02900
C 	C 	0.33520 0.94840 0.31380 0.12000
C 	C 	0.38890 0.94790 0.29630 -0.17000
C 	C 	0.24730 0.61550 0.16330 -0.02500
C 	C 	0.19146 0.64050 0.18776 -0.02100
C 	C 	0.16480 0.61480 0.24320 -0.03400
C 	C 	0.19600 0.56220 0.27160 -0.10700
C 	C 	0.25290 0.53930 0.24530 0.15800
C 	C 	0.28150 0.56650 0.19050 -0.10800
C 	C 	0.10270 0.64210 0.26810 0.34800
C 	C 	0.27880 0.64100 0.10340 0.31500
C 	C 	0.26770 0.45990 0.32330 -0.02900
C 	C 	0.31380 0.40260 0.33520 0.12000
C 	C 	0.29630 0.36690 0.38890 -0.17000
C 	C 	0.97390 0.16330 0.61550 -0.02500
C 	C 	0.98028 0.18776 0.64050 -0.02100
C 	C 	0.97720 0.24320 0.61480 -0.03400
C 	C 	0.97020 0.27160 0.56220 -0.10700
C 	C 	0.96250 0.24530 0.53930 0.15900
C 	C 	0.96150 0.19050 0.56650 -0.10800
C 	C 	0.98710 0.26810 0.64210 0.34800
C 	C 	0.97680 0.10340 0.64100 0.31500
C 	C 	0.94910 0.32330 0.45990 -0.02900
C 	C 	0.94840 0.33520 0.40260 0.12000
C 	C 	0.94790 0.38890 0.36690 -0.17000
C 	C 	0.61550 0.97390 0.16330 -0.02500
C 	C 	0.64050 0.98028 0.18776 -0.02100
C 	C 	0.61480 0.97720 0.24320 -0.03400
C 	C 	0.56220 0.97020 0.27160 -0.10700
C 	C 	0.53930 0.96250 0.24530 0.15900
C 	C 	0.56650 0.96150 0.19050 -0.10800
C 	C 	0.64210 0.98710 0.26810 0.34800
C 	C 	0.64100 0.97680 0.10340 0.31500
C 	C 	0.45990 0.94910 0.32330 -0.02900
C 	C 	0.40260 0.94840 0.33520 0.12000
C 	C 	0.36690 0.94790 0.38890 -0.17000
C 	C 	0.16330 0.24730 0.61550 -0.02500
C 	C 	0.18776 0.19146 0.64050 -0.02100
C 	C 	0.24320 0.16480 0.61480 -0.03400
C 	C 	0.27160 0.19600 0.56220 -0.10700
C 	C 	0.24530 0.25290 0.53930 0.15800
C 	C 	0.19050 0.28150 0.56650 -0.10800
C 	C 	0.26810 0.10270 0.64210 0.34800
C 	C 	0.10340 0.27880 0.64100 0.31500
C 	C 	0.32330 0.26770 0.45990 -0.02900
C 	C 	0.33520 0.31380 0.40260 0.12000
C 	C 	0.38890 0.29630 0.36690 -0.17000
C 	C 	0.24730 0.16330 0.97390 -0.02500
C 	C 	0.19146 0.18776 0.98028 -0.02100
C 	C 	0.16480 0.24320 0.97720 -0.03400
C 	C 	0.19600 0.27160 0.97020 -0.10700
C 	C 	0.25290 0.24530 0.96250 0.15900
C 	C 	0.28150 0.19050 0.96150 -0.10800
C 	C 	0.10270 0.26810 0.98710 0.34800
C 	C 	0.27880 0.10340 0.97680 0.31500
C 	C 	0.26770 0.32330 0.94910 -0.02900
C 	C 	0.31380 0.33520 0.94840 0.12000
C 	C 	0.29630 0.38890 0.94790 -0.17000
C 	C 	0.97390 0.61550 0.24730 -0.02500
C 	C 	0.98028 0.64050 0.19146 -0.02100
C 	C 	0.97720 0.61480 0.16480 -0.03400
C 	C 	0.97020 0.56220 0.19600 -0.10700
C 	C 	0.96250 0.53930 0.25290 0.15900
C 	C 	0.96150 0.56650 0.28150 -0.10800
C 	C 	0.98710 0.64210 0.10270 0.34800
C 	C 	0.97680 0.64100 0.27880 0.31500
C 	C 	0.94910 0.45990 0.26770 -0.02900
C 	C 	0.94840 0.40260 0.31380 0.12000
C 	C 	0.94790 0.36690 0.29630 -0.17000
O 	O 	0.31070 0.92150 0.75570 -0.37900
O 	O 	0.38471 0.92291 0.67569 -0.40800
O 	O 	0.31172 0.75448 0.92048 -0.42600
O 	O 	0.38780 0.67840 0.92040 -0.38700
O 	O 	0.51330 0.73110 0.71090 -0.20600
O 	O 	0.92150 0.31070 0.01210 -0.37900
O 	O 	0.92291 0.38471 0.01669 -0.40800
O 	O 	0.75448 0.31172 0.01332 -0.42600
O 	O 	0.67840 0.38780 0.01340 -0.38700
O 	O 	0.73110 0.51330 0.04470 -0.20600
O 	O 	0.75570 0.01210 0.31070 -0.37900
O 	O 	0.67569 0.01669 0.38471 -0.40800
O 	O 	0.92048 0.01332 0.31172 -0.42500
O 	O 	0.92040 0.01340 0.38780 -0.38700
O 	O 	0.71090 0.04470 0.51330 -0.20600
O 	O 	0.01210 0.75570 0.92150 -0.37900
O 	O 	0.01669 0.67569 0.92291 -0.40800
O 	O 	0.01332 0.92048 0.75448 -0.42500
O 	O 	0.01340 0.92040 0.67840 -0.38700
O 	O 	0.04470 0.71090 0.73110 -0.20600
O 	O 	0.31070 0.75570 0.01210 -0.37900
O 	O 	0.38471 0.67569 0.01669 -0.40800
O 	O 	0.31172 0.92048 0.01332 -0.42500
O 	O 	0.38780 0.92040 0.01340 -0.38700
O 	O 	0.51330 0.71090 0.04470 -0.20600
O 	O 	0.92150 0.01210 0.75570 -0.37900
O 	O 	0.92291 0.01669 0.67569 -0.40800
O 	O 	0.75448 0.01332 0.92048 -0.42500
O 	O 	0.67840 0.01340 0.92040 -0.38700
O 	O 	0.73110 0.04470 0.71090 -0.20600
O 	O 	0.75570 0.31070 0.92150 -0.37900
O 	O 	0.67569 0.38471 0.92291 -0.40800
O 	O 	0.92048 0.31172 0.75448 -0.42600
O 	O 	0.92040 0.38780 0.67840 -0.38700
O 	O 	0.71090 0.51330 0.73110 -0.20600
O 	O 	0.01210 0.92150 0.31070 -0.37900
O 	O 	0.01669 0.92291 0.38471 -0.40800
O 	O 	0.01332 0.75448 0.31172 -0.42600
O 	O 	0.01340 0.67840 0.38780 -0.38700
O 	O 	0.04470 0.73110 0.51330 -0.20600
O 	O 	0.31070 0.01210 0.92150 -0.37900
O 	O 	0.38471 0.01669 0.92291 -0.40800
O 	O 	0.31172 0.01332 0.75448 -0.42600
O 	O 	0.38780 0.01340 0.67840 -0.38700
O 	O 	0.51330 0.04470 0.73110 -0.20600
O 	O 	0.92150 0.75570 0.31070 -0.37900
O 	O 	0.92291 0.67569 0.38471 -0.40800
O 	O 	0.75448 0.92048 0.31172 -0.42600
O 	O 	0.67840 0.92040 0.38780 -0.38700
O 	O 	0.73110 0.71090 0.51330 -0.20600
O 	O 	0.75570 0.92150 0.01210 -0.37900
O 	O 	0.67569 0.92291 0.01669 -0.40800
O 	O 	0.92048 0.75448 0.01332 -0.42500
O 	O 	0.92040 0.67840 0.01340 -0.38700
O 	O 	0.71090 0.73110 0.04470 -0.20600
O 	O 	0.01210 0.31070 0.75570 -0.37900
O 	O 	0.01669 0.38471 0.67569 -0.40800
O 	O 	0.01332 0.31172 0.92048 -0.42500
O 	O 	0.01340 0.38780 0.92040 -0.38700
O 	O 	0.04470 0.51330 0.71090 -0.20600
O 	O 	0.68930 0.07850 0.24430 -0.37900
O 	O 	0.61529 0.07709 0.32431 -0.40800
O 	O 	0.68828 0.24552 0.07952 -0.42600
O 	O 	0.61220 0.32160 0.07960 -0.38700
O 	O 	0.48670 0.26890 0.28910 -0.20600
O 	O 	0.07850 0.68930 0.98790 -0.37900
O 	O 	0.07709 0.61529 0.98331 -0.40800
O 	O 	0.24552 0.68828 0.98668 -0.42600
O 	O 	0.32160 0.61220 0.98660 -0.38700
O 	O 	0.26890 0.48670 0.95530 -0.20600
O 	O 	0.24430 0.98790 0.68930 -0.37900
O 	O 	0.32431 0.98331 0.61529 -0.40800
O 	O 	0.07952 0.98668 0.68828 -0.42500
O 	O 	0.07960 0.98660 0.61220 -0.38700
O 	O 	0.28910 0.95530 0.48670 -0.20600
O 	O 	0.98790 0.24430 0.07850 -0.37900
O 	O 	0.98331 0.32431 0.07709 -0.40800
O 	O 	0.98668 0.07952 0.24552 -0.42500
O 	O 	0.98660 0.07960 0.32160 -0.38700
O 	O 	0.95530 0.28910 0.26890 -0.20600
O 	O 	0.68930 0.24430 0.98790 -0.37900
O 	O 	0.61529 0.32431 0.98331 -0.40800
O 	O 	0.68828 0.07952 0.98668 -0.42500
O 	O 	0.61220 0.07960 0.98660 -0.38700
O 	O 	0.48670 0.28910 0.95530 -0.20600
O 	O 	0.07850 0.98790 0.24430 -0.37900
O 	O 	0.07709 0.98331 0.32431 -0.40800
O 	O 	0.24552 0.98668 0.07952 -0.42500
O 	O 	0.32160 0.98660 0.07960 -0.38700
O 	O 	0.26890 0.95530 0.28910 -0.20600
O 	O 	0.24430 0.68930 0.07850 -0.37900
O 	O 	0.32431 0.61529 0.07709 -0.40800
O 	O 	0.07952 0.68828 0.24552 -0.42600
O 	O 	0.07960 0.61220 0.32160 -0.38700
O 	O 	0.28910 0.48670 0.26890 -0.20600
O 	O 	0.98790 0.07850 0.68930 -0.37900
O 	O 	0.98331 0.07709 0.61529 -0.40800
O 	O 	0.98668 0.24552 0.68828 -0.42600
O 	O 	0.98660 0.32160 0.61220 -0.38700
O 	O 	0.95530 0.26890 0.48670 -0.20600
O 	O 	0.68930 0.98790 0.07850 -0.37900
O 	O 	0.61529 0.98331 0.07709 -0.40800
O 	O 	0.68828 0.98668 0.24552 -0.42600
O 	O 	0.61220 0.98660 0.32160 -0.38700
O 	O 	0.48670 0.95530 0.26890 -0.20600
O 	O 	0.07850 0.24430 0.68930 -0.37900
O 	O 	0.07709 0.32431 0.61529 -0.40800
O 	O 	0.24552 0.07952 0.68828 -0.42600
O 	O 	0.32160 0.07960 0.61220 -0.38700
O 	O 	0.26890 0.28910 0.48670 -0.20600
O 	O 	0.24430 0.07850 0.98790 -0.37900
O 	O 	0.32431 0.07709 0.98331 -0.40800
O 	O 	0.07952 0.24552 0.98668 -0.42500
O 	O 	0.07960 0.32160 0.98660 -0.38700
O 	O 	0.28910 0.26890 0.95530 -0.20600
O 	O 	0.98790 0.68930 0.24430 -0.37900
O 	O 	0.98331 0.61529 0.32431 -0.40800
O 	O 	0.98668 0.68828 0.07952 -0.42500
O 	O 	0.98660 0.61220 0.07960 -0.38700
O 	O 	0.95530 0.48670 0.28910 -0.20600
