data_crystal

_cell_length_a 29.30260
_cell_length_b 29.30260
_cell_length_c 29.38470
_cell_angle_alpha 60.09230
_cell_angle_beta  60.09230
_cell_angle_gamma 89.99990

_symmetry_space_group_name_	'P 1'
_symmetry_space_group_name_H-M	'P 1'

loop_
_symmetry_equiv_pos_as_xyz
  x,y,z

loop_
_atom_site_label
_atom_site_type_symbol
_atom_site_fract_x
_atom_site_fract_y
_atom_site_fract_z
_atom_site_charge
Zn	Zn	0.00947 0.74402 0.26718 1.19900
Zn	Zn	0.64498 0.61847 0.36840 1.20000
Zn	Zn	0.72335 0.98880 0.26718 1.20000
Zn	Zn	0.98662 0.01313 0.36840 1.19900
Zn	Zn	0.74402 0.72335 0.26718 1.20000
Zn	Zn	0.61847 0.98662 0.36840 1.20000
Zn	Zn	0.98880 0.00947 0.26718 1.20000
Zn	Zn	0.01313 0.64498 0.36840 1.20000
Zn	Zn	0.99053 0.25598 0.73282 1.20000
Zn	Zn	0.35502 0.38153 0.63160 1.20100
Zn	Zn	0.27665 0.01120 0.73282 1.20100
Zn	Zn	0.01338 0.98687 0.63160 1.20000
Zn	Zn	0.25598 0.27665 0.73282 1.20100
Zn	Zn	0.38153 0.01338 0.63160 1.20100
Zn	Zn	0.01120 0.99053 0.73282 1.20000
Zn	Zn	0.98687 0.35502 0.63160 1.20000
Zn	Zn	0.26529 0.02006 1.00000 1.20400
Zn	Zn	0.63265 0.97455 1.00000 1.20200
Zn	Zn	0.73471 0.97994 -0.00000 1.20400
Zn	Zn	0.36735 0.02545 -0.00000 1.20200
Zn	Zn	0.02006 0.73471 1.00000 1.20300
Zn	Zn	0.97455 0.36735 1.00000 1.20200
Zn	Zn	0.97994 0.26529 -0.00000 1.20300
Zn	Zn	0.02545 0.63265 -0.00000 1.20200
H 	H 	0.18000 0.85000 0.15040 0.04200
H 	H 	0.32230 0.84810 0.14120 0.07300
H 	H 	0.18770 0.70400 0.26820 0.06600
H 	H 	0.25990 0.66880 0.26200 0.06300
H 	H 	0.23520 0.68100 0.31580 0.06100
H 	H 	0.68230 0.80680 0.15740 0.04000
H 	H 	0.55030 0.66540 0.28360 0.07900
H 	H 	0.55440 0.80090 0.14020 0.06900
H 	H 	0.48070 0.73940 0.17320 0.06000
H 	H 	0.46000 0.75670 0.22260 0.06100
H 	H 	0.15720 0.32610 0.65520 0.03900
H 	H 	0.16580 0.44940 0.50500 0.07600
H 	H 	0.29730 0.45880 0.51480 0.06800
H 	H 	0.25740 0.59300 0.37040 0.12900
H 	H 	0.34230 0.52350 0.39660 0.06300
H 	H 	0.31890 0.54580 0.44120 0.05900
H 	H 	0.37760 0.73960 0.21260 0.12300
H 	H 	0.41190 0.62300 0.32660 0.13200
H 	H 	0.66960 0.99960 0.15040 0.04400
H 	H 	0.53650 0.01070 0.14120 0.07300
H 	H 	0.54410 0.02780 0.26820 0.06700
H 	H 	0.47810 0.06920 0.26200 0.06300
H 	H 	0.44900 0.00320 0.31580 0.06100
H 	H 	0.16030 0.03580 0.15740 0.04000
H 	H 	0.16610 0.05100 0.28360 0.07900
H 	H 	0.30540 0.05890 0.14020 0.06900
H 	H 	0.34610 0.08740 0.17320 0.06000
H 	H 	0.31740 0.02070 0.22260 0.06200
H 	H 	0.18760 0.01870 0.65520 0.04000
H 	H 	0.32920 0.04560 0.50500 0.07600
H 	H 	0.18790 0.02640 0.51480 0.06800
H 	H 	0.37220 0.03660 0.37040 0.12900
H 	H 	0.26110 0.07990 0.39660 0.06300
H 	H 	0.23990 0.01300 0.44120 0.06000
H 	H 	0.40980 0.04780 0.21260 0.12300
H 	H 	0.26150 0.05040 0.32660 0.13200
H 	H 	0.85000 0.66960 0.15040 0.04200
H 	H 	0.84810 0.53650 0.14120 0.07300
H 	H 	0.70400 0.54410 0.26820 0.06600
H 	H 	0.66880 0.47810 0.26200 0.06300
H 	H 	0.68100 0.44900 0.31580 0.06100
H 	H 	0.80680 0.16030 0.15740 0.04000
H 	H 	0.66540 0.16610 0.28360 0.07900
H 	H 	0.80090 0.30540 0.14020 0.06900
H 	H 	0.73940 0.34610 0.17320 0.06000
H 	H 	0.75670 0.31740 0.22260 0.06100
H 	H 	0.32610 0.18760 0.65520 0.03900
H 	H 	0.44940 0.32920 0.50500 0.07600
H 	H 	0.45880 0.18790 0.51480 0.06800
H 	H 	0.59300 0.37220 0.37040 0.12900
H 	H 	0.52350 0.26110 0.39660 0.06300
H 	H 	0.54580 0.23990 0.44120 0.05900
H 	H 	0.73960 0.40980 0.21260 0.12300
H 	H 	0.62300 0.26150 0.32660 0.13200
H 	H 	0.99960 0.18000 0.15040 0.04100
H 	H 	0.01070 0.32230 0.14120 0.07300
H 	H 	0.02780 0.18770 0.26820 0.06600
H 	H 	0.06920 0.25990 0.26200 0.06300
H 	H 	0.00320 0.23520 0.31580 0.06200
H 	H 	0.03580 0.68230 0.15740 0.04000
H 	H 	0.05100 0.55030 0.28360 0.07900
H 	H 	0.05890 0.55440 0.14020 0.06900
H 	H 	0.08740 0.48070 0.17320 0.06000
H 	H 	0.02070 0.46000 0.22260 0.06200
H 	H 	0.01870 0.15720 0.65520 0.04000
H 	H 	0.04560 0.16580 0.50500 0.07600
H 	H 	0.02640 0.29730 0.51480 0.06800
H 	H 	0.03660 0.25740 0.37040 0.12900
H 	H 	0.07990 0.34230 0.39660 0.06300
H 	H 	0.01300 0.31890 0.44120 0.06000
H 	H 	0.04780 0.37760 0.21260 0.12300
H 	H 	0.05040 0.41190 0.32660 0.13200
H 	H 	0.82000 0.15000 0.84960 0.04200
H 	H 	0.67770 0.15190 0.85880 0.07300
H 	H 	0.81230 0.29600 0.73180 0.06600
H 	H 	0.74010 0.33120 0.73800 0.06300
H 	H 	0.76480 0.31900 0.68420 0.06100
H 	H 	0.31770 0.19320 0.84260 0.04000
H 	H 	0.44970 0.33460 0.71640 0.07900
H 	H 	0.44560 0.19910 0.85980 0.06900
H 	H 	0.51930 0.26060 0.82680 0.06000
H 	H 	0.54000 0.24330 0.77740 0.06100
H 	H 	0.84280 0.67390 0.34480 0.03900
H 	H 	0.83420 0.55060 0.49500 0.07600
H 	H 	0.70270 0.54120 0.48520 0.06800
H 	H 	0.74260 0.40700 0.62960 0.12900
H 	H 	0.65770 0.47650 0.60340 0.06300
H 	H 	0.68110 0.45420 0.55880 0.05900
H 	H 	0.62240 0.26040 0.78740 0.12300
H 	H 	0.58810 0.37700 0.67340 0.13200
H 	H 	0.33040 0.00040 0.84960 0.04400
H 	H 	0.46350 0.98930 0.85880 0.07300
H 	H 	0.45590 0.97220 0.73180 0.06700
H 	H 	0.52190 0.93080 0.73800 0.06300
H 	H 	0.55100 0.99680 0.68420 0.06100
H 	H 	0.83970 0.96420 0.84260 0.04000
H 	H 	0.83390 0.94900 0.71640 0.07900
H 	H 	0.69460 0.94110 0.85980 0.06900
H 	H 	0.65390 0.91260 0.82680 0.06000
H 	H 	0.68260 0.97930 0.77740 0.06200
H 	H 	0.81240 0.98130 0.34480 0.04000
H 	H 	0.67080 0.95440 0.49500 0.07600
H 	H 	0.81210 0.97360 0.48520 0.06800
H 	H 	0.62780 0.96340 0.62960 0.12900
H 	H 	0.73890 0.92010 0.60340 0.06300
H 	H 	0.76010 0.98700 0.55880 0.06000
H 	H 	0.59020 0.95220 0.78740 0.12300
H 	H 	0.73850 0.94960 0.67340 0.13200
H 	H 	0.15000 0.33040 0.84960 0.04200
H 	H 	0.15190 0.46350 0.85880 0.07300
H 	H 	0.29600 0.45590 0.73180 0.06600
H 	H 	0.33120 0.52190 0.73800 0.06300
H 	H 	0.31900 0.55100 0.68420 0.06100
H 	H 	0.19320 0.83970 0.84260 0.04000
H 	H 	0.33460 0.83390 0.71640 0.07900
H 	H 	0.19910 0.69460 0.85980 0.06900
H 	H 	0.26060 0.65390 0.82680 0.06000
H 	H 	0.24330 0.68260 0.77740 0.06100
H 	H 	0.67390 0.81240 0.34480 0.03900
H 	H 	0.55060 0.67080 0.49500 0.07600
H 	H 	0.54120 0.81210 0.48520 0.06800
H 	H 	0.40700 0.62780 0.62960 0.12900
H 	H 	0.47650 0.73890 0.60340 0.06300
H 	H 	0.45420 0.76010 0.55880 0.05900
H 	H 	0.26040 0.59020 0.78740 0.12300
H 	H 	0.37700 0.73850 0.67340 0.13200
H 	H 	0.00040 0.82000 0.84960 0.04100
H 	H 	0.98930 0.67770 0.85880 0.07300
H 	H 	0.97220 0.81230 0.73180 0.06600
H 	H 	0.93080 0.74010 0.73800 0.06300
H 	H 	0.99680 0.76480 0.68420 0.06200
H 	H 	0.96420 0.31770 0.84260 0.04000
H 	H 	0.94900 0.44970 0.71640 0.07900
H 	H 	0.94110 0.44560 0.85980 0.06900
H 	H 	0.91260 0.51930 0.82680 0.06000
H 	H 	0.97930 0.54000 0.77740 0.06200
H 	H 	0.98130 0.84280 0.34480 0.04000
H 	H 	0.95440 0.83420 0.49500 0.07600
H 	H 	0.97360 0.70270 0.48520 0.06800
H 	H 	0.96340 0.74260 0.62960 0.12900
H 	H 	0.92010 0.65770 0.60340 0.06300
H 	H 	0.98700 0.68110 0.55880 0.06000
H 	H 	0.95220 0.62240 0.78740 0.12300
H 	H 	0.94960 0.58810 0.67340 0.13200
C 	C 	0.11360 0.74670 0.25280 0.39100
C 	C 	0.17420 0.77450 0.21860 -0.07800
C 	C 	0.20010 0.83060 0.16660 0.02300
C 	C 	0.25560 0.85880 0.13800 -0.08700
C 	C 	0.28010 0.91900 0.08760 0.39300
C 	C 	0.28440 0.83030 0.16060 -0.06100
C 	C 	0.25650 0.77330 0.21400 0.12600
C 	C 	0.20280 0.74350 0.23900 -0.07200
C 	C 	0.26970 0.68900 0.27640 -0.09600
C 	C 	0.64670 0.87230 0.09080 0.38800
C 	C 	0.62230 0.81370 0.14180 -0.08900
C 	C 	0.64650 0.78730 0.17280 0.02800
C 	C 	0.61970 0.73290 0.22580 -0.07600
C 	C 	0.64550 0.70600 0.26000 0.37100
C 	C 	0.56840 0.70320 0.24760 -0.08100
C 	C 	0.54400 0.72960 0.21580 0.14800
C 	C 	0.57070 0.78370 0.16280 -0.08300
C 	C 	0.46250 0.72490 0.21880 -0.09400
C 	C 	0.25700 0.36430 0.62500 0.37900
C 	C 	0.22940 0.38880 0.59260 -0.08300
C 	C 	0.17640 0.36270 0.61680 0.03300
C 	C 	0.15010 0.38590 0.58920 -0.08500
C 	C 	0.09130 0.35760 0.61680 0.40600
C 	C 	0.18140 0.43450 0.52880 -0.07200
C 	C 	0.23540 0.46210 0.50180 0.13300
C 	C 	0.26000 0.43980 0.53320 -0.07900
C 	C 	0.33510 0.60120 0.35200 0.19800
C 	C 	0.29490 0.61740 0.34200 -0.25200
C 	C 	0.31660 0.54310 0.41000 -0.09500
C 	C 	0.36660 0.70310 0.24860 -0.23600
C 	C 	0.40490 0.68390 0.25960 0.19100
C 	C 	0.38690 0.63410 0.31480 -0.26400
C 	C 	0.31050 0.66840 0.29140 0.18400
C 	C 	0.63360 0.00050 0.25280 0.38700
C 	C 	0.60720 0.00690 0.21860 -0.07500
C 	C 	0.63330 0.00280 0.16660 0.01900
C 	C 	0.60640 0.00320 0.13800 -0.08700
C 	C 	0.63230 0.99340 0.08760 0.39400
C 	C 	0.55500 0.00910 0.16060 -0.06100
C 	C 	0.52950 0.01270 0.21400 0.12700
C 	C 	0.55820 0.01750 0.23900 -0.07300
C 	C 	0.45390 0.03460 0.27640 -0.09600
C 	C 	0.26250 0.03690 0.09080 0.38800
C 	C 	0.23590 0.04450 0.14180 -0.08900
C 	C 	0.18070 0.03990 0.17280 0.02800
C 	C 	0.15450 0.04130 0.22580 -0.07500
C 	C 	0.09450 0.03400 0.26000 0.37100
C 	C 	0.18400 0.04920 0.24760 -0.08100
C 	C 	0.24020 0.05460 0.21580 0.14800
C 	C 	0.26650 0.05350 0.16280 -0.08200
C 	C 	0.31870 0.05630 0.21880 -0.09400
C 	C 	0.11800 0.01070 0.62500 0.37900
C 	C 	0.17800 0.01860 0.59260 -0.08200
C 	C 	0.20680 0.02050 0.61680 0.03300
C 	C 	0.26070 0.02490 0.58920 -0.08400
C 	C 	0.29190 0.02560 0.61680 0.40600
C 	C 	0.28980 0.03670 0.52880 -0.07200
C 	C 	0.26280 0.03610 0.50180 0.13400
C 	C 	0.20680 0.02700 0.53320 -0.07900
C 	C 	0.31290 0.04680 0.35200 0.19900
C 	C 	0.36310 0.04060 0.34200 -0.25200
C 	C 	0.27340 0.04690 0.41000 -0.09600
C 	C 	0.38480 0.04830 0.24860 -0.23700
C 	C 	0.33550 0.05650 0.25960 0.19100
C 	C 	0.29830 0.05110 0.31480 -0.26400
C 	C 	0.39810 0.04020 0.29140 0.18400
C 	C 	0.74670 0.63360 0.25280 0.39100
C 	C 	0.77450 0.60720 0.21860 -0.07800
C 	C 	0.83060 0.63330 0.16660 0.02200
C 	C 	0.85880 0.60640 0.13800 -0.08600
C 	C 	0.91900 0.63230 0.08760 0.39300
C 	C 	0.83030 0.55500 0.16060 -0.06100
C 	C 	0.77330 0.52950 0.21400 0.12600
C 	C 	0.74350 0.55820 0.23900 -0.07200
C 	C 	0.68900 0.45390 0.27640 -0.09600
C 	C 	0.87230 0.26250 0.09080 0.38800
C 	C 	0.81370 0.23590 0.14180 -0.09000
C 	C 	0.78730 0.18070 0.17280 0.02800
C 	C 	0.73290 0.15450 0.22580 -0.07600
C 	C 	0.70600 0.09450 0.26000 0.37100
C 	C 	0.70320 0.18400 0.24760 -0.08100
C 	C 	0.72960 0.24020 0.21580 0.14800
C 	C 	0.78370 0.26650 0.16280 -0.08200
C 	C 	0.72490 0.31870 0.21880 -0.09300
C 	C 	0.36430 0.11800 0.62500 0.37900
C 	C 	0.38880 0.17800 0.59260 -0.08300
C 	C 	0.36270 0.20680 0.61680 0.03300
C 	C 	0.38590 0.26070 0.58920 -0.08500
C 	C 	0.35760 0.29190 0.61680 0.40700
C 	C 	0.43450 0.28980 0.52880 -0.07200
C 	C 	0.46210 0.26280 0.50180 0.13300
C 	C 	0.43980 0.20680 0.53320 -0.07900
C 	C 	0.60120 0.31290 0.35200 0.19800
C 	C 	0.61740 0.36310 0.34200 -0.25200
C 	C 	0.54310 0.27340 0.41000 -0.09500
C 	C 	0.70310 0.38480 0.24860 -0.23600
C 	C 	0.68390 0.33550 0.25960 0.19000
C 	C 	0.63410 0.29830 0.31480 -0.26400
C 	C 	0.66840 0.39810 0.29140 0.18400
C 	C 	0.00050 0.11360 0.25280 0.39500
C 	C 	0.00690 0.17420 0.21860 -0.07900
C 	C 	0.00280 0.20010 0.16660 0.02500
C 	C 	0.00320 0.25560 0.13800 -0.08700
C 	C 	0.99340 0.28010 0.08760 0.39300
C 	C 	0.00910 0.28440 0.16060 -0.06000
C 	C 	0.01270 0.25650 0.21400 0.12500
C 	C 	0.01750 0.20280 0.23900 -0.07000
C 	C 	0.03460 0.26970 0.27640 -0.09600
C 	C 	0.03690 0.64670 0.09080 0.38800
C 	C 	0.04450 0.62230 0.14180 -0.08900
C 	C 	0.03990 0.64650 0.17280 0.02800
C 	C 	0.04130 0.61970 0.22580 -0.07600
C 	C 	0.03400 0.64550 0.26000 0.37100
C 	C 	0.04920 0.56840 0.24760 -0.08100
C 	C 	0.05460 0.54400 0.21580 0.14800
C 	C 	0.05350 0.57070 0.16280 -0.08200
C 	C 	0.05630 0.46250 0.21880 -0.09400
C 	C 	0.01070 0.25700 0.62500 0.37900
C 	C 	0.01860 0.22940 0.59260 -0.08200
C 	C 	0.02050 0.17640 0.61680 0.03300
C 	C 	0.02490 0.15010 0.58920 -0.08400
C 	C 	0.02560 0.09130 0.61680 0.40600
C 	C 	0.03670 0.18140 0.52880 -0.07200
C 	C 	0.03610 0.23540 0.50180 0.13400
C 	C 	0.02700 0.26000 0.53320 -0.07900
C 	C 	0.04680 0.33510 0.35200 0.19900
C 	C 	0.04060 0.29490 0.34200 -0.25200
C 	C 	0.04690 0.31660 0.41000 -0.09600
C 	C 	0.04830 0.36660 0.24860 -0.23700
C 	C 	0.05650 0.40490 0.25960 0.19100
C 	C 	0.05110 0.38690 0.31480 -0.26400
C 	C 	0.04020 0.31050 0.29140 0.18500
C 	C 	0.88640 0.25330 0.74720 0.39100
C 	C 	0.82580 0.22550 0.78140 -0.07800
C 	C 	0.79990 0.16940 0.83340 0.02300
C 	C 	0.74440 0.14120 0.86200 -0.08700
C 	C 	0.71990 0.08100 0.91240 0.39300
C 	C 	0.71560 0.16970 0.83940 -0.06100
C 	C 	0.74350 0.22670 0.78600 0.12600
C 	C 	0.79720 0.25650 0.76100 -0.07200
C 	C 	0.73030 0.31100 0.72360 -0.09600
C 	C 	0.35330 0.12770 0.90920 0.38800
C 	C 	0.37770 0.18630 0.85820 -0.08900
C 	C 	0.35350 0.21270 0.82720 0.02800
C 	C 	0.38030 0.26710 0.77420 -0.07600
C 	C 	0.35450 0.29400 0.74000 0.37100
C 	C 	0.43160 0.29680 0.75240 -0.08100
C 	C 	0.45600 0.27040 0.78420 0.14800
C 	C 	0.42930 0.21630 0.83720 -0.08300
C 	C 	0.53750 0.27510 0.78120 -0.09400
C 	C 	0.74300 0.63570 0.37500 0.37900
C 	C 	0.77060 0.61120 0.40740 -0.08300
C 	C 	0.82360 0.63730 0.38320 0.03300
C 	C 	0.84990 0.61410 0.41080 -0.08500
C 	C 	0.90870 0.64240 0.38320 0.40600
C 	C 	0.81860 0.56550 0.47120 -0.07200
C 	C 	0.76460 0.53790 0.49820 0.13300
C 	C 	0.74000 0.56020 0.46680 -0.07900
C 	C 	0.66490 0.39880 0.64800 0.19800
C 	C 	0.70510 0.38260 0.65800 -0.25200
C 	C 	0.68340 0.45690 0.59000 -0.09500
C 	C 	0.63340 0.29690 0.75140 -0.23600
C 	C 	0.59510 0.31610 0.74040 0.19100
C 	C 	0.61310 0.36590 0.68520 -0.26400
C 	C 	0.68950 0.33160 0.70860 0.18400
C 	C 	0.36640 0.99950 0.74720 0.38700
C 	C 	0.39280 0.99310 0.78140 -0.07500
C 	C 	0.36670 0.99720 0.83340 0.01900
C 	C 	0.39360 0.99680 0.86200 -0.08700
C 	C 	0.36770 0.00660 0.91240 0.39400
C 	C 	0.44500 0.99090 0.83940 -0.06100
C 	C 	0.47050 0.98730 0.78600 0.12700
C 	C 	0.44180 0.98250 0.76100 -0.07300
C 	C 	0.54610 0.96540 0.72360 -0.09600
C 	C 	0.73750 0.96310 0.90920 0.38800
C 	C 	0.76410 0.95550 0.85820 -0.08900
C 	C 	0.81930 0.96010 0.82720 0.02800
C 	C 	0.84550 0.95870 0.77420 -0.07500
C 	C 	0.90550 0.96600 0.74000 0.37100
C 	C 	0.81600 0.95080 0.75240 -0.08100
C 	C 	0.75980 0.94540 0.78420 0.14800
C 	C 	0.73350 0.94650 0.83720 -0.08200
C 	C 	0.68130 0.94370 0.78120 -0.09400
C 	C 	0.88200 0.98930 0.37500 0.37900
C 	C 	0.82200 0.98140 0.40740 -0.08200
C 	C 	0.79320 0.97950 0.38320 0.03300
C 	C 	0.73930 0.97510 0.41080 -0.08400
C 	C 	0.70810 0.97440 0.38320 0.40600
C 	C 	0.71020 0.96330 0.47120 -0.07200
C 	C 	0.73720 0.96390 0.49820 0.13400
C 	C 	0.79320 0.97300 0.46680 -0.07900
C 	C 	0.68710 0.95320 0.64800 0.19900
C 	C 	0.63690 0.95940 0.65800 -0.25200
C 	C 	0.72660 0.95310 0.59000 -0.09600
C 	C 	0.61520 0.95170 0.75140 -0.23700
C 	C 	0.66450 0.94350 0.74040 0.19100
C 	C 	0.70170 0.94890 0.68520 -0.26400
C 	C 	0.60190 0.95980 0.70860 0.18400
C 	C 	0.25330 0.36640 0.74720 0.39100
C 	C 	0.22550 0.39280 0.78140 -0.07800
C 	C 	0.16940 0.36670 0.83340 0.02200
C 	C 	0.14120 0.39360 0.86200 -0.08600
C 	C 	0.08100 0.36770 0.91240 0.39300
C 	C 	0.16970 0.44500 0.83940 -0.06100
C 	C 	0.22670 0.47050 0.78600 0.12600
C 	C 	0.25650 0.44180 0.76100 -0.07200
C 	C 	0.31100 0.54610 0.72360 -0.09600
C 	C 	0.12770 0.73750 0.90920 0.38800
C 	C 	0.18630 0.76410 0.85820 -0.09000
C 	C 	0.21270 0.81930 0.82720 0.02800
C 	C 	0.26710 0.84550 0.77420 -0.07600
C 	C 	0.29400 0.90550 0.74000 0.37100
C 	C 	0.29680 0.81600 0.75240 -0.08100
C 	C 	0.27040 0.75980 0.78420 0.14800
C 	C 	0.21630 0.73350 0.83720 -0.08200
C 	C 	0.27510 0.68130 0.78120 -0.09300
C 	C 	0.63570 0.88200 0.37500 0.37900
C 	C 	0.61120 0.82200 0.40740 -0.08300
C 	C 	0.63730 0.79320 0.38320 0.03300
C 	C 	0.61410 0.73930 0.41080 -0.08500
C 	C 	0.64240 0.70810 0.38320 0.40700
C 	C 	0.56550 0.71020 0.47120 -0.07200
C 	C 	0.53790 0.73720 0.49820 0.13300
C 	C 	0.56020 0.79320 0.46680 -0.07900
C 	C 	0.39880 0.68710 0.64800 0.19800
C 	C 	0.38260 0.63690 0.65800 -0.25200
C 	C 	0.45690 0.72660 0.59000 -0.09500
C 	C 	0.29690 0.61520 0.75140 -0.23600
C 	C 	0.31610 0.66450 0.74040 0.19000
C 	C 	0.36590 0.70170 0.68520 -0.26400
C 	C 	0.33160 0.60190 0.70860 0.18400
C 	C 	0.99950 0.88640 0.74720 0.39500
C 	C 	0.99310 0.82580 0.78140 -0.07900
C 	C 	0.99720 0.79990 0.83340 0.02500
C 	C 	0.99680 0.74440 0.86200 -0.08700
C 	C 	0.00660 0.71990 0.91240 0.39300
C 	C 	0.99090 0.71560 0.83940 -0.06000
C 	C 	0.98730 0.74350 0.78600 0.12500
C 	C 	0.98250 0.79720 0.76100 -0.07000
C 	C 	0.96540 0.73030 0.72360 -0.09600
C 	C 	0.96310 0.35330 0.90920 0.38800
C 	C 	0.95550 0.37770 0.85820 -0.08900
C 	C 	0.96010 0.35350 0.82720 0.02800
C 	C 	0.95870 0.38030 0.77420 -0.07600
C 	C 	0.96600 0.35450 0.74000 0.37100
C 	C 	0.95080 0.43160 0.75240 -0.08100
C 	C 	0.94540 0.45600 0.78420 0.14800
C 	C 	0.94650 0.42930 0.83720 -0.08200
C 	C 	0.94370 0.53750 0.78120 -0.09400
C 	C 	0.98930 0.74300 0.37500 0.37900
C 	C 	0.98140 0.77060 0.40740 -0.08200
C 	C 	0.97950 0.82360 0.38320 0.03300
C 	C 	0.97510 0.84990 0.41080 -0.08400
C 	C 	0.97440 0.90870 0.38320 0.40600
C 	C 	0.96330 0.81860 0.47120 -0.07200
C 	C 	0.96390 0.76460 0.49820 0.13400
C 	C 	0.97300 0.74000 0.46680 -0.07900
C 	C 	0.95320 0.66490 0.64800 0.19900
C 	C 	0.95940 0.70510 0.65800 -0.25200
C 	C 	0.95310 0.68340 0.59000 -0.09600
C 	C 	0.95170 0.63340 0.75140 -0.23700
C 	C 	0.94350 0.59510 0.74040 0.19100
C 	C 	0.94890 0.61310 0.68520 -0.26400
C 	C 	0.95980 0.68950 0.70860 0.18500
O 	O 	0.25392 0.94257 0.06550 -0.49700
O 	O 	0.32954 0.94235 0.06718 -0.46300
O 	O 	0.09001 0.77498 0.22862 -0.48200
O 	O 	0.09153 0.69766 0.30294 -0.49000
O 	O 	0.29210 0.74720 0.22780 -0.19200
O 	O 	0.69288 0.73366 0.23718 -0.47600
O 	O 	0.61578 0.65740 0.31478 -0.45400
O 	O 	0.69537 0.89744 0.06868 -0.47000
O 	O 	0.62103 0.89637 0.06570 -0.47900
O 	O 	0.49360 0.69660 0.24100 -0.20100
O 	O 	0.30327 0.39220 0.60244 -0.48600
O 	O 	0.22769 0.31406 0.67868 -0.46300
O 	O 	0.06763 0.31124 0.66932 -0.50100
O 	O 	0.06883 0.38579 0.59110 -0.47700
O 	O 	0.26170 0.51200 0.44000 -0.19300
O 	O 	0.68058 0.99193 0.06550 -0.49600
O 	O 	0.60328 0.99047 0.06718 -0.46200
O 	O 	0.68137 0.99640 0.22862 -0.47900
O 	O 	0.60553 0.99940 0.30294 -0.48800
O 	O 	0.48010 0.02500 0.22780 -0.19200
O 	O 	0.06994 0.02916 0.23718 -0.47500
O 	O 	0.06944 0.02782 0.31478 -0.45200
O 	O 	0.23595 0.03388 0.06868 -0.47100
O 	O 	0.31327 0.03793 0.06570 -0.47900
O 	O 	0.26540 0.06240 0.24100 -0.20100
O 	O 	0.09429 0.00536 0.60244 -0.48500
O 	O 	0.09363 0.00726 0.67868 -0.46200
O 	O 	0.26305 0.01944 0.66932 -0.50000
O 	O 	0.34007 0.02311 0.59110 -0.47700
O 	O 	0.29830 0.04800 0.44000 -0.19300
O 	O 	0.94257 0.68058 0.06550 -0.49600
O 	O 	0.94235 0.60328 0.06718 -0.46200
O 	O 	0.77498 0.68137 0.22862 -0.48100
O 	O 	0.69766 0.60553 0.30294 -0.49000
O 	O 	0.74720 0.48010 0.22780 -0.19200
O 	O 	0.73366 0.06994 0.23718 -0.47700
O 	O 	0.65740 0.06944 0.31478 -0.45400
O 	O 	0.89744 0.23595 0.06868 -0.47100
O 	O 	0.89637 0.31327 0.06570 -0.47900
O 	O 	0.69660 0.26540 0.24100 -0.20100
O 	O 	0.39220 0.09429 0.60244 -0.48600
O 	O 	0.31406 0.09363 0.67868 -0.46300
O 	O 	0.31124 0.26305 0.66932 -0.50100
O 	O 	0.38579 0.34007 0.59110 -0.47700
O 	O 	0.51200 0.29830 0.44000 -0.19300
O 	O 	0.99193 0.25392 0.06550 -0.49700
O 	O 	0.99047 0.32954 0.06718 -0.46300
O 	O 	0.99640 0.09001 0.22862 -0.48400
O 	O 	0.99940 0.09153 0.30294 -0.49200
O 	O 	0.02500 0.29210 0.22780 -0.19100
O 	O 	0.02916 0.69288 0.23718 -0.47600
O 	O 	0.02782 0.61578 0.31478 -0.45300
O 	O 	0.03388 0.69537 0.06868 -0.47000
O 	O 	0.03793 0.62103 0.06570 -0.47900
O 	O 	0.06240 0.49360 0.24100 -0.20100
O 	O 	0.00536 0.30327 0.60244 -0.48500
O 	O 	0.00726 0.22769 0.67868 -0.46200
O 	O 	0.01944 0.06763 0.66932 -0.50000
O 	O 	0.02311 0.06883 0.59110 -0.47600
O 	O 	0.04800 0.26170 0.44000 -0.19300
O 	O 	0.74608 0.05743 0.93450 -0.49700
O 	O 	0.67046 0.05765 0.93282 -0.46300
O 	O 	0.90999 0.22502 0.77138 -0.48200
O 	O 	0.90847 0.30234 0.69706 -0.49000
O 	O 	0.70790 0.25280 0.77220 -0.19200
O 	O 	0.30712 0.26634 0.76282 -0.47600
O 	O 	0.38422 0.34260 0.68522 -0.45400
O 	O 	0.30463 0.10256 0.93132 -0.47000
O 	O 	0.37897 0.10363 0.93430 -0.47900
O 	O 	0.50640 0.30340 0.75900 -0.20100
O 	O 	0.69673 0.60780 0.39756 -0.48600
O 	O 	0.77231 0.68594 0.32132 -0.46300
O 	O 	0.93237 0.68876 0.33068 -0.50100
O 	O 	0.93117 0.61421 0.40890 -0.47700
O 	O 	0.73830 0.48800 0.56000 -0.19300
O 	O 	0.31942 0.00807 0.93450 -0.49600
O 	O 	0.39672 0.00953 0.93282 -0.46200
O 	O 	0.31863 0.00360 0.77138 -0.47900
O 	O 	0.39447 0.00060 0.69706 -0.48800
O 	O 	0.51990 0.97500 0.77220 -0.19200
O 	O 	0.93006 0.97084 0.76282 -0.47500
O 	O 	0.93056 0.97218 0.68522 -0.45200
O 	O 	0.76405 0.96612 0.93132 -0.47100
O 	O 	0.68673 0.96207 0.93430 -0.47900
O 	O 	0.73460 0.93760 0.75900 -0.20100
O 	O 	0.90571 0.99464 0.39756 -0.48500
O 	O 	0.90637 0.99274 0.32132 -0.46200
O 	O 	0.73695 0.98056 0.33068 -0.50000
O 	O 	0.65993 0.97689 0.40890 -0.47700
O 	O 	0.70170 0.95200 0.56000 -0.19300
O 	O 	0.05743 0.31942 0.93450 -0.49600
O 	O 	0.05765 0.39672 0.93282 -0.46200
O 	O 	0.22502 0.31863 0.77138 -0.48100
O 	O 	0.30234 0.39447 0.69706 -0.49000
O 	O 	0.25280 0.51990 0.77220 -0.19200
O 	O 	0.26634 0.93006 0.76282 -0.47700
O 	O 	0.34260 0.93056 0.68522 -0.45400
O 	O 	0.10256 0.76405 0.93132 -0.47100
O 	O 	0.10363 0.68673 0.93430 -0.47900
O 	O 	0.30340 0.73460 0.75900 -0.20100
O 	O 	0.60780 0.90571 0.39756 -0.48600
O 	O 	0.68594 0.90637 0.32132 -0.46300
O 	O 	0.68876 0.73695 0.33068 -0.50100
O 	O 	0.61421 0.65993 0.40890 -0.47700
O 	O 	0.48800 0.70170 0.56000 -0.19300
O 	O 	0.00807 0.74608 0.93450 -0.49700
O 	O 	0.00953 0.67046 0.93282 -0.46300
O 	O 	0.00360 0.90999 0.77138 -0.48400
O 	O 	0.00060 0.90847 0.69706 -0.49200
O 	O 	0.97500 0.70790 0.77220 -0.19100
O 	O 	0.97084 0.30712 0.76282 -0.47600
O 	O 	0.97218 0.38422 0.68522 -0.45300
O 	O 	0.96612 0.30463 0.93132 -0.47000
O 	O 	0.96207 0.37897 0.93430 -0.47900
O 	O 	0.93760 0.50640 0.75900 -0.20100
O 	O 	0.99464 0.69673 0.39756 -0.48500
O 	O 	0.99274 0.77231 0.32132 -0.46200
O 	O 	0.98056 0.93237 0.33068 -0.50000
O 	O 	0.97689 0.93117 0.40890 -0.47600
O 	O 	0.95200 0.73830 0.56000 -0.19300
