data_crystal

_cell_length_a 29.39510
_cell_length_b 29.39510
_cell_length_c 29.41880
_cell_angle_alpha 60.02670
_cell_angle_beta  60.02670
_cell_angle_gamma 90.00000

_symmetry_space_group_name_	'P 1'
_symmetry_space_group_name_H-M	'P 1'

loop_
_symmetry_equiv_pos_as_xyz
  x,y,z

loop_
_atom_site_label
_atom_site_type_symbol
_atom_site_fract_x
_atom_site_fract_y
_atom_site_fract_z
_atom_site_charge
Co	Co	0.24154 0.50886 0.26906 1.13300
Co	Co	0.14435 0.51113 0.36696 1.13700
Co	Co	0.48940 0.22208 0.26906 1.13300
Co	Co	0.48869 0.12191 0.36696 1.13600
Co	Co	0.50886 0.48940 0.26906 1.13400
Co	Co	0.51113 0.48869 0.36696 1.13800
Co	Co	0.22208 0.24154 0.26906 1.13400
Co	Co	0.12191 0.14435 0.36696 1.13700
Co	Co	0.75846 0.49114 0.73094 1.13900
Co	Co	0.85565 0.48887 0.63304 1.13800
Co	Co	0.51060 0.77792 0.73094 1.13900
Co	Co	0.51131 0.87809 0.63304 1.13800
Co	Co	0.49114 0.51060 0.73094 1.13900
Co	Co	0.48887 0.51131 0.63304 1.13800
Co	Co	0.77792 0.75846 0.73094 1.13900
Co	Co	0.87809 0.85565 0.63304 1.13900
Co	Co	0.52208 0.86563 -0.00000 1.14400
Co	Co	0.51883 0.76686 -0.00000 1.10400
Co	Co	0.47792 0.13437 -0.00000 1.14300
Co	Co	0.48117 0.23314 -0.00000 1.10400
Co	Co	0.86563 0.47792 -0.00000 1.14400
Co	Co	0.76686 0.48117 -0.00000 1.10400
Co	Co	0.13437 0.52208 -0.00000 1.14300
Co	Co	0.23314 0.51883 -0.00000 1.10400
H 	H 	0.69090 0.82010 0.84220 0.06400
H 	H 	0.65030 0.31830 0.85100 0.05700
H 	H 	0.17210 0.34390 0.34160 0.04700
H 	H 	0.84290 0.94190 0.73560 0.09300
H 	H 	0.70130 0.94090 0.87000 0.10200
H 	H 	0.66170 0.17400 0.87040 0.10100
H 	H 	0.78300 0.32330 0.70360 0.06700
H 	H 	0.05180 0.32690 0.50660 0.08300
H 	H 	0.05110 0.19530 0.49780 0.07400
H 	H 	0.77320 0.01300 0.84240 0.07200
H 	H 	0.74330 0.03080 0.80560 0.06500
H 	H 	0.98800 0.15180 0.62000 0.06000
H 	H 	0.96600 0.16550 0.57600 0.05600
H 	H 	0.83540 0.22440 0.76680 0.06700
H 	H 	0.83670 0.26090 0.70300 0.05700
H 	H 	0.91830 0.23250 0.64360 0.10900
H 	H 	0.76660 0.11680 0.80000 0.11300
H 	H 	0.88640 0.07400 0.69660 0.11800
H 	H 	0.46690 0.33770 0.84220 0.06300
H 	H 	0.49870 0.83070 0.85100 0.05800
H 	H 	0.48630 0.31450 0.34160 0.04800
H 	H 	0.42150 0.32250 0.73560 0.09000
H 	H 	0.42870 0.18910 0.87000 0.09800
H 	H 	0.46790 0.95560 0.87040 0.10500
H 	H 	0.51340 0.97310 0.70360 0.07000
H 	H 	0.44160 0.16650 0.50660 0.08600
H 	H 	0.45110 0.30690 0.49780 0.07800
H 	H 	0.38440 0.14460 0.84240 0.07300
H 	H 	0.45110 0.16360 0.80560 0.06700
H 	H 	0.39200 0.22820 0.62000 0.05700
H 	H 	0.45800 0.25850 0.57600 0.05300
H 	H 	0.39780 0.00880 0.76680 0.06300
H 	H 	0.46030 0.03610 0.70300 0.05400
H 	H 	0.43810 0.12390 0.64360 0.10700
H 	H 	0.43340 0.08320 0.80000 0.11200
H 	H 	0.41700 0.22940 0.69660 0.11800
H 	H 	0.82010 0.46690 0.84220 0.06400
H 	H 	0.31830 0.49870 0.85100 0.05700
H 	H 	0.34390 0.48630 0.34160 0.04800
H 	H 	0.94190 0.42150 0.73560 0.09300
H 	H 	0.94090 0.42870 0.87000 0.10200
H 	H 	0.17400 0.46790 0.87040 0.10100
H 	H 	0.32330 0.51340 0.70360 0.06700
H 	H 	0.32690 0.44160 0.50660 0.08700
H 	H 	0.19530 0.45110 0.49780 0.07800
H 	H 	0.01300 0.38440 0.84240 0.07100
H 	H 	0.03080 0.45110 0.80560 0.06500
H 	H 	0.15180 0.39200 0.62000 0.05600
H 	H 	0.16550 0.45800 0.57600 0.05200
H 	H 	0.22440 0.39780 0.76680 0.06600
H 	H 	0.26090 0.46030 0.70300 0.05600
H 	H 	0.23250 0.43810 0.64360 0.10800
H 	H 	0.11680 0.43340 0.80000 0.11300
H 	H 	0.07400 0.41700 0.69660 0.11600
H 	H 	0.33770 0.69090 0.84220 0.06300
H 	H 	0.83070 0.65030 0.85100 0.05800
H 	H 	0.31450 0.17210 0.34160 0.04700
H 	H 	0.32250 0.84290 0.73560 0.09000
H 	H 	0.18910 0.70130 0.87000 0.09800
H 	H 	0.95560 0.66170 0.87040 0.10500
H 	H 	0.97310 0.78300 0.70360 0.07000
H 	H 	0.16650 0.05180 0.50660 0.08300
H 	H 	0.30690 0.05110 0.49780 0.07500
H 	H 	0.14460 0.77320 0.84240 0.07400
H 	H 	0.16360 0.74330 0.80560 0.06800
H 	H 	0.22820 0.98800 0.62000 0.06000
H 	H 	0.25850 0.96600 0.57600 0.05600
H 	H 	0.00880 0.83540 0.76680 0.06400
H 	H 	0.03610 0.83670 0.70300 0.05500
H 	H 	0.12390 0.91830 0.64360 0.10900
H 	H 	0.08320 0.76660 0.80000 0.11300
H 	H 	0.22940 0.88640 0.69660 0.11900
H 	H 	0.30910 0.17990 0.15780 0.04800
H 	H 	0.34970 0.68170 0.14900 0.04100
H 	H 	0.82790 0.65610 0.65840 0.05400
H 	H 	0.15710 0.05810 0.26440 0.08100
H 	H 	0.29870 0.05910 0.13000 0.08300
H 	H 	0.33830 0.82600 0.12960 0.08600
H 	H 	0.21700 0.67670 0.29640 0.06400
H 	H 	0.94820 0.67310 0.49340 0.08900
H 	H 	0.94890 0.80470 0.50220 0.08200
H 	H 	0.22680 0.98700 0.15760 0.05400
H 	H 	0.25670 0.96920 0.19440 0.06600
H 	H 	0.01200 0.84820 0.38000 0.04800
H 	H 	0.03400 0.83450 0.42400 0.04800
H 	H 	0.16460 0.77560 0.23320 0.05200
H 	H 	0.16330 0.73910 0.29700 0.05200
H 	H 	0.08170 0.76750 0.35640 0.10300
H 	H 	0.23340 0.88320 0.20000 0.10300
H 	H 	0.11360 0.92600 0.30340 0.11200
H 	H 	0.53310 0.66230 0.15780 0.04900
H 	H 	0.50130 0.16930 0.14900 0.04000
H 	H 	0.51370 0.68550 0.65840 0.05300
H 	H 	0.57850 0.67750 0.26440 0.08500
H 	H 	0.57130 0.81090 0.13000 0.08700
H 	H 	0.53210 0.04440 0.12960 0.08300
H 	H 	0.48660 0.02690 0.29640 0.06200
H 	H 	0.55840 0.83350 0.49340 0.08600
H 	H 	0.54890 0.69310 0.50220 0.07800
H 	H 	0.61560 0.85540 0.15760 0.05300
H 	H 	0.54890 0.83640 0.19440 0.06300
H 	H 	0.60800 0.77180 0.38000 0.05100
H 	H 	0.54200 0.74150 0.42400 0.05100
H 	H 	0.60220 0.99120 0.23320 0.05500
H 	H 	0.53970 0.96390 0.29700 0.05600
H 	H 	0.56190 0.87610 0.35640 0.10500
H 	H 	0.56660 0.91680 0.20000 0.10400
H 	H 	0.58300 0.77060 0.30340 0.11200
H 	H 	0.17990 0.53310 0.15780 0.04800
H 	H 	0.68170 0.50130 0.14900 0.04100
H 	H 	0.65610 0.51370 0.65840 0.05300
H 	H 	0.05810 0.57850 0.26440 0.08200
H 	H 	0.05910 0.57130 0.13000 0.08300
H 	H 	0.82600 0.53210 0.12960 0.08600
H 	H 	0.67670 0.48660 0.29640 0.06500
H 	H 	0.67310 0.55840 0.49340 0.08600
H 	H 	0.80470 0.54890 0.50220 0.07900
H 	H 	0.98700 0.61560 0.15760 0.05500
H 	H 	0.96920 0.54890 0.19440 0.06600
H 	H 	0.84820 0.60800 0.38000 0.05200
H 	H 	0.83450 0.54200 0.42400 0.05200
H 	H 	0.77560 0.60220 0.23320 0.05300
H 	H 	0.73910 0.53970 0.29700 0.05300
H 	H 	0.76750 0.56190 0.35640 0.10500
H 	H 	0.88320 0.56660 0.20000 0.10400
H 	H 	0.92600 0.58300 0.30340 0.11300
H 	H 	0.66230 0.30910 0.15780 0.04900
H 	H 	0.16930 0.34970 0.14900 0.04000
H 	H 	0.68550 0.82790 0.65840 0.05400
H 	H 	0.67750 0.15710 0.26440 0.08400
H 	H 	0.81090 0.29870 0.13000 0.08700
H 	H 	0.04440 0.33830 0.12960 0.08200
H 	H 	0.02690 0.21700 0.29640 0.06200
H 	H 	0.83350 0.94820 0.49340 0.09000
H 	H 	0.69310 0.94890 0.50220 0.08200
H 	H 	0.85540 0.22680 0.15760 0.05200
H 	H 	0.83640 0.25670 0.19440 0.06300
H 	H 	0.77180 0.01200 0.38000 0.04800
H 	H 	0.74150 0.03400 0.42400 0.04800
H 	H 	0.99120 0.16460 0.23320 0.05400
H 	H 	0.96390 0.16330 0.29700 0.05500
H 	H 	0.87610 0.08170 0.35640 0.10400
H 	H 	0.91680 0.23340 0.20000 0.10400
H 	H 	0.77060 0.11360 0.30340 0.11100
C 	C 	0.71110 0.85540 0.82720 -0.01900
C 	C 	0.76660 0.88130 0.77440 -0.04000
C 	C 	0.68510 0.87960 0.85780 -0.01900
C 	C 	0.75410 0.38630 0.74780 0.39600
C 	C 	0.58320 0.21940 0.91240 0.34800
C 	C 	0.67060 0.29920 0.83420 0.00400
C 	C 	0.64560 0.24580 0.85960 -0.03700
C 	C 	0.72670 0.32570 0.78280 -0.07100
C 	C 	0.13820 0.24500 0.37300 0.34700
C 	C 	0.13870 0.40740 0.38600 0.38000
C 	C 	0.13740 0.32280 0.38240 0.00300
C 	C 	0.11190 0.34720 0.41560 -0.05800
C 	C 	0.11190 0.26850 0.40940 -0.06000
C 	C 	0.79250 0.85660 0.73740 0.34800
C 	C 	0.62330 0.85020 0.91100 0.33300
C 	C 	0.80350 0.92850 0.76340 -0.11000
C 	C 	0.71830 0.92650 0.84520 -0.12500
C 	C 	0.67810 0.21320 0.84580 -0.09500
C 	C 	0.75510 0.30290 0.74860 -0.06600
C 	C 	0.06630 0.31240 0.48160 -0.09500
C 	C 	0.06600 0.23430 0.47620 -0.10200
C 	C 	0.77350 0.94910 0.79800 0.19000
C 	C 	0.73290 0.23910 0.79700 0.14400
C 	C 	0.04380 0.25750 0.50840 0.15600
C 	C 	0.77910 0.02980 0.80040 -0.08300
C 	C 	0.96730 0.17370 0.60420 -0.06700
C 	C 	0.82100 0.22320 0.74320 -0.07200
C 	C 	0.90880 0.15680 0.66060 0.14200
C 	C 	0.89300 0.19560 0.67200 -0.17500
C 	C 	0.80360 0.12820 0.76440 -0.17800
C 	C 	0.83700 0.18150 0.72800 0.13000
C 	C 	0.82280 0.08680 0.75040 0.15700
C 	C 	0.87320 0.10120 0.70300 -0.20900
C 	C 	0.46170 0.31740 0.82720 -0.01700
C 	C 	0.45900 0.34430 0.77440 -0.04300
C 	C 	0.45710 0.26260 0.85780 -0.02200
C 	C 	0.49810 0.86590 0.74780 0.39600
C 	C 	0.50440 0.86820 0.91240 0.34700
C 	C 	0.49520 0.86660 0.83420 0.00200
C 	C 	0.49480 0.89460 0.85960 -0.03400
C 	C 	0.49050 0.89150 0.78280 -0.07000
C 	C 	0.48880 0.38200 0.37300 0.34600
C 	C 	0.47530 0.20660 0.38600 0.37900
C 	C 	0.48020 0.29480 0.38240 0.00100
C 	C 	0.47250 0.23720 0.41560 -0.05500
C 	C 	0.47870 0.32210 0.40940 -0.05700
C 	C 	0.47010 0.40600 0.73740 0.34800
C 	C 	0.46570 0.23880 0.91100 0.33400
C 	C 	0.43310 0.30810 0.76340 -0.10700
C 	C 	0.43650 0.22830 0.84520 -0.12000
C 	C 	0.47610 0.94100 0.84580 -0.09900
C 	C 	0.49630 0.94850 0.74860 -0.06900
C 	C 	0.45210 0.20600 0.48160 -0.10000
C 	C 	0.45780 0.28950 0.47620 -0.10700
C 	C 	0.42850 0.25290 0.79800 0.18100
C 	C 	0.47010 0.96390 0.79700 0.15300
C 	C 	0.44780 0.23410 0.50840 0.16700
C 	C 	0.42050 0.16980 0.80040 -0.08500
C 	C 	0.42850 0.22210 0.60420 -0.06200
C 	C 	0.43580 0.03360 0.74320 -0.06700
C 	C 	0.43060 0.18260 0.66060 0.13900
C 	C 	0.43500 0.13240 0.67200 -0.17300
C 	C 	0.43200 0.10740 0.76440 -0.17600
C 	C 	0.43500 0.09050 0.72800 0.12700
C 	C 	0.42680 0.16280 0.75040 0.15700
C 	C 	0.42380 0.19580 0.70300 -0.20800
C 	C 	0.85540 0.46170 0.82720 -0.01900
C 	C 	0.88130 0.45900 0.77440 -0.04000
C 	C 	0.87960 0.45710 0.85780 -0.01900
C 	C 	0.38630 0.49810 0.74780 0.39600
C 	C 	0.21940 0.50440 0.91240 0.34800
C 	C 	0.29920 0.49520 0.83420 0.00400
C 	C 	0.24580 0.49480 0.85960 -0.03700
C 	C 	0.32570 0.49050 0.78280 -0.07200
C 	C 	0.24500 0.48880 0.37300 0.34600
C 	C 	0.40740 0.47530 0.38600 0.37800
C 	C 	0.32280 0.48020 0.38240 0.00100
C 	C 	0.34720 0.47250 0.41560 -0.05500
C 	C 	0.26850 0.47870 0.40940 -0.05700
C 	C 	0.85660 0.47010 0.73740 0.34800
C 	C 	0.85020 0.46570 0.91100 0.33300
C 	C 	0.92850 0.43310 0.76340 -0.11000
C 	C 	0.92650 0.43650 0.84520 -0.12500
C 	C 	0.21320 0.47610 0.84580 -0.09500
C 	C 	0.30290 0.49630 0.74860 -0.06600
C 	C 	0.31240 0.45210 0.48160 -0.10000
C 	C 	0.23430 0.45780 0.47620 -0.10700
C 	C 	0.94910 0.42850 0.79800 0.19100
C 	C 	0.23910 0.47010 0.79700 0.14400
C 	C 	0.25750 0.44780 0.50840 0.16700
C 	C 	0.02980 0.42050 0.80040 -0.08100
C 	C 	0.17370 0.42850 0.60420 -0.06200
C 	C 	0.22320 0.43580 0.74320 -0.07100
C 	C 	0.15680 0.43060 0.66060 0.13800
C 	C 	0.19560 0.43500 0.67200 -0.17300
C 	C 	0.12820 0.43200 0.76440 -0.17600
C 	C 	0.18150 0.43500 0.72800 0.12900
C 	C 	0.08680 0.42680 0.75040 0.15500
C 	C 	0.10120 0.42380 0.70300 -0.20600
C 	C 	0.31740 0.71110 0.82720 -0.01700
C 	C 	0.34430 0.76660 0.77440 -0.04200
C 	C 	0.26260 0.68510 0.85780 -0.02200
C 	C 	0.86590 0.75410 0.74780 0.39600
C 	C 	0.86820 0.58320 0.91240 0.34700
C 	C 	0.86660 0.67060 0.83420 0.00200
C 	C 	0.89460 0.64560 0.85960 -0.03400
C 	C 	0.89150 0.72670 0.78280 -0.06900
C 	C 	0.38200 0.13820 0.37300 0.34700
C 	C 	0.20660 0.13870 0.38600 0.38000
C 	C 	0.29480 0.13740 0.38240 0.00300
C 	C 	0.23720 0.11190 0.41560 -0.05800
C 	C 	0.32210 0.11190 0.40940 -0.06000
C 	C 	0.40600 0.79250 0.73740 0.34800
C 	C 	0.23880 0.62330 0.91100 0.33400
C 	C 	0.30810 0.80350 0.76340 -0.10700
C 	C 	0.22830 0.71830 0.84520 -0.12000
C 	C 	0.94100 0.67810 0.84580 -0.09900
C 	C 	0.94850 0.75510 0.74860 -0.06900
C 	C 	0.20600 0.06630 0.48160 -0.09500
C 	C 	0.28950 0.06600 0.47620 -0.10200
C 	C 	0.25290 0.77350 0.79800 0.18100
C 	C 	0.96390 0.73290 0.79700 0.15300
C 	C 	0.23410 0.04380 0.50840 0.15600
C 	C 	0.16980 0.77910 0.80040 -0.08600
C 	C 	0.22210 0.96730 0.60420 -0.06700
C 	C 	0.03360 0.82100 0.74320 -0.06800
C 	C 	0.18260 0.90880 0.66060 0.14200
C 	C 	0.13240 0.89300 0.67200 -0.17500
C 	C 	0.10740 0.80360 0.76440 -0.17800
C 	C 	0.09050 0.83700 0.72800 0.12900
C 	C 	0.16280 0.82280 0.75040 0.15900
C 	C 	0.19580 0.87320 0.70300 -0.21000
C 	C 	0.28890 0.14460 0.17280 -0.01100
C 	C 	0.23340 0.11870 0.22560 -0.05500
C 	C 	0.31490 0.12040 0.14220 -0.04200
C 	C 	0.24590 0.61370 0.25220 0.40000
C 	C 	0.41680 0.78060 0.08760 0.35000
C 	C 	0.32940 0.70080 0.16580 0.01100
C 	C 	0.35440 0.75420 0.14040 -0.05600
C 	C 	0.27330 0.67430 0.21720 -0.08700
C 	C 	0.86180 0.75500 0.62700 0.34300
C 	C 	0.86130 0.59260 0.61400 0.37600
C 	C 	0.86260 0.67720 0.61760 -0.00500
C 	C 	0.88810 0.65280 0.58440 -0.04900
C 	C 	0.88810 0.73150 0.59060 -0.05000
C 	C 	0.20750 0.14340 0.26260 0.35100
C 	C 	0.37670 0.14980 0.08900 0.33800
C 	C 	0.19650 0.07150 0.23660 -0.10300
C 	C 	0.28170 0.07350 0.15480 -0.11500
C 	C 	0.32190 0.78680 0.15420 -0.09100
C 	C 	0.24490 0.69710 0.25140 -0.06100
C 	C 	0.93370 0.68760 0.51840 -0.10700
C 	C 	0.93400 0.76570 0.52380 -0.11500
C 	C 	0.22650 0.05090 0.20200 0.16100
C 	C 	0.26710 0.76090 0.20300 0.13300
C 	C 	0.95620 0.74250 0.49160 0.17800
C 	C 	0.22090 0.97020 0.19960 -0.07600
C 	C 	0.03270 0.82630 0.39580 -0.05300
C 	C 	0.17900 0.77680 0.25680 -0.06200
C 	C 	0.09120 0.84320 0.33940 0.12900
C 	C 	0.10700 0.80440 0.32800 -0.16900
C 	C 	0.19640 0.87180 0.23560 -0.17200
C 	C 	0.16300 0.81850 0.27200 0.11700
C 	C 	0.17720 0.91320 0.24960 0.14400
C 	C 	0.12680 0.89880 0.29700 -0.20100
C 	C 	0.53830 0.68260 0.17280 -0.01300
C 	C 	0.54100 0.65570 0.22560 -0.05200
C 	C 	0.54290 0.73740 0.14220 -0.03900
C 	C 	0.50190 0.13410 0.25220 0.40000
C 	C 	0.49560 0.13180 0.08760 0.35100
C 	C 	0.50480 0.13340 0.16580 0.01300
C 	C 	0.50520 0.10540 0.14040 -0.05900
C 	C 	0.50950 0.10850 0.21720 -0.08900
C 	C 	0.51120 0.61800 0.62700 0.34400
C 	C 	0.52470 0.79340 0.61400 0.37700
C 	C 	0.51980 0.70520 0.61760 -0.00200
C 	C 	0.52750 0.76280 0.58440 -0.05200
C 	C 	0.52130 0.67790 0.59060 -0.05400
C 	C 	0.52990 0.59400 0.26260 0.35000
C 	C 	0.53430 0.76120 0.08900 0.33700
C 	C 	0.56690 0.69190 0.23660 -0.10700
C 	C 	0.56350 0.77170 0.15480 -0.11900
C 	C 	0.52390 0.05900 0.15420 -0.08700
C 	C 	0.50370 0.05150 0.25140 -0.05800
C 	C 	0.54790 0.79400 0.51840 -0.10200
C 	C 	0.54220 0.71050 0.52380 -0.10900
C 	C 	0.57150 0.74710 0.20200 0.17200
C 	C 	0.52990 0.03610 0.20300 0.12400
C 	C 	0.55220 0.76590 0.49160 0.16800
C 	C 	0.57950 0.83020 0.19960 -0.07400
C 	C 	0.57150 0.77790 0.39580 -0.05800
C 	C 	0.56420 0.96640 0.25680 -0.06700
C 	C 	0.56940 0.81740 0.33940 0.13200
C 	C 	0.56500 0.86760 0.32800 -0.17100
C 	C 	0.56800 0.89260 0.23560 -0.17300
C 	C 	0.56500 0.90950 0.27200 0.12000
C 	C 	0.57320 0.83720 0.24960 0.14500
C 	C 	0.57620 0.80420 0.29700 -0.20200
C 	C 	0.14460 0.53830 0.17280 -0.01100
C 	C 	0.11870 0.54100 0.22560 -0.05400
C 	C 	0.12040 0.54290 0.14220 -0.04200
C 	C 	0.61370 0.50190 0.25220 0.40000
C 	C 	0.78060 0.49560 0.08760 0.35000
C 	C 	0.70080 0.50480 0.16580 0.01100
C 	C 	0.75420 0.50520 0.14040 -0.05600
C 	C 	0.67430 0.50950 0.21720 -0.08600
C 	C 	0.75500 0.51120 0.62700 0.34400
C 	C 	0.59260 0.52470 0.61400 0.37700
C 	C 	0.67720 0.51980 0.61760 -0.00200
C 	C 	0.65280 0.52750 0.58440 -0.05300
C 	C 	0.73150 0.52130 0.59060 -0.05400
C 	C 	0.14340 0.52990 0.26260 0.35100
C 	C 	0.14980 0.53430 0.08900 0.33800
C 	C 	0.07150 0.56690 0.23660 -0.10300
C 	C 	0.07350 0.56350 0.15480 -0.11500
C 	C 	0.78680 0.52390 0.15420 -0.09100
C 	C 	0.69710 0.50370 0.25140 -0.06100
C 	C 	0.68760 0.54790 0.51840 -0.10200
C 	C 	0.76570 0.54220 0.52380 -0.10900
C 	C 	0.05090 0.57150 0.20200 0.16200
C 	C 	0.76090 0.52990 0.20300 0.13300
C 	C 	0.74250 0.55220 0.49160 0.16800
C 	C 	0.97020 0.57950 0.19960 -0.07700
C 	C 	0.82630 0.57150 0.39580 -0.05800
C 	C 	0.77680 0.56420 0.25680 -0.06400
C 	C 	0.84320 0.56940 0.33940 0.13200
C 	C 	0.80440 0.56500 0.32800 -0.17000
C 	C 	0.87180 0.56800 0.23560 -0.17300
C 	C 	0.81850 0.56500 0.27200 0.11900
C 	C 	0.91320 0.57320 0.24960 0.14600
C 	C 	0.89880 0.57620 0.29700 -0.20300
C 	C 	0.68260 0.28890 0.17280 -0.01300
C 	C 	0.65570 0.23340 0.22560 -0.05200
C 	C 	0.73740 0.31490 0.14220 -0.03900
C 	C 	0.13410 0.24590 0.25220 0.40100
C 	C 	0.13180 0.41680 0.08760 0.35100
C 	C 	0.13340 0.32940 0.16580 0.01300
C 	C 	0.10540 0.35440 0.14040 -0.05900
C 	C 	0.10850 0.27330 0.21720 -0.08900
C 	C 	0.61800 0.86180 0.62700 0.34300
C 	C 	0.79340 0.86130 0.61400 0.37600
C 	C 	0.70520 0.86260 0.61760 -0.00500
C 	C 	0.76280 0.88810 0.58440 -0.04900
C 	C 	0.67790 0.88810 0.59060 -0.05100
C 	C 	0.59400 0.20750 0.26260 0.35000
C 	C 	0.76120 0.37670 0.08900 0.33700
C 	C 	0.69190 0.19650 0.23660 -0.10700
C 	C 	0.77170 0.28170 0.15480 -0.11900
C 	C 	0.05900 0.32190 0.15420 -0.08600
C 	C 	0.05150 0.24490 0.25140 -0.05800
C 	C 	0.79400 0.93370 0.51840 -0.10700
C 	C 	0.71050 0.93400 0.52380 -0.11500
C 	C 	0.74710 0.22650 0.20200 0.17100
C 	C 	0.03610 0.26710 0.20300 0.12400
C 	C 	0.76590 0.95620 0.49160 0.17800
C 	C 	0.83020 0.22090 0.19960 -0.07300
C 	C 	0.77790 0.03270 0.39580 -0.05200
C 	C 	0.96640 0.17900 0.25680 -0.06600
C 	C 	0.81740 0.09120 0.33940 0.12800
C 	C 	0.86760 0.10700 0.32800 -0.16900
C 	C 	0.89260 0.19640 0.23560 -0.17200
C 	C 	0.90950 0.16300 0.27200 0.11900
C 	C 	0.83720 0.17720 0.24960 0.14300
C 	C 	0.80420 0.12680 0.29700 -0.20000
O 	O 	0.18709 0.43069 0.33422 -0.47200
O 	O 	0.11155 0.42945 0.41170 -0.46100
O 	O 	0.10942 0.19612 0.39636 -0.44300
O 	O 	0.18705 0.27155 0.32230 -0.44700
O 	O 	0.80260 0.40920 0.69760 -0.46600
O 	O 	0.72770 0.40940 0.77260 -0.46000
O 	O 	0.84266 0.88536 0.68528 -0.43300
O 	O 	0.76570 0.80870 0.76120 -0.45400
O 	O 	0.60118 0.88008 0.93364 -0.38900
O 	O 	0.60001 0.80341 0.93218 -0.42400
O 	O 	0.55990 0.17020 0.93260 -0.38900
O 	O 	0.56043 0.24693 0.93254 -0.43000
O 	O 	0.54480 0.94040 0.98360 0.21900
O 	O 	0.80440 0.00090 0.77240 -0.21000
O 	O 	0.99510 0.23110 0.56900 -0.20000
O 	O 	0.76130 0.20520 0.78200 -0.19000
O 	O 	0.47869 0.23509 0.33422 -0.47100
O 	O 	0.47675 0.15885 0.41170 -0.46000
O 	O 	0.49422 0.40752 0.39636 -0.44100
O 	O 	0.49065 0.40615 0.32230 -0.44700
O 	O 	0.49980 0.89320 0.69760 -0.46600
O 	O 	0.49970 0.81800 0.77260 -0.46000
O 	O 	0.47206 0.42936 0.68528 -0.43500
O 	O 	0.47310 0.43010 0.76120 -0.45500
O 	O 	0.46518 0.18628 0.93364 -0.39000
O 	O 	0.46781 0.26441 0.93218 -0.42400
O 	O 	0.50750 0.89720 0.93260 -0.38800
O 	O 	0.50703 0.82053 0.93254 -0.42900
O 	O 	0.47160 0.07600 0.98360 0.21900
O 	O 	0.42320 0.22670 0.77240 -0.20400
O 	O 	0.43590 0.19990 0.56900 -0.20800
O 	O 	0.45670 0.01280 0.78200 -0.19700
O 	O 	0.43069 0.47869 0.33422 -0.47100
O 	O 	0.42945 0.47675 0.41170 -0.46000
O 	O 	0.19612 0.49422 0.39636 -0.44200
O 	O 	0.27155 0.49065 0.32230 -0.44700
O 	O 	0.40920 0.49980 0.69760 -0.46700
O 	O 	0.40940 0.49970 0.77260 -0.46000
O 	O 	0.88536 0.47206 0.68528 -0.43400
O 	O 	0.80870 0.47310 0.76120 -0.45400
O 	O 	0.88008 0.46518 0.93364 -0.38900
O 	O 	0.80341 0.46781 0.93218 -0.42400
O 	O 	0.17020 0.50750 0.93260 -0.38900
O 	O 	0.24693 0.50703 0.93254 -0.43000
O 	O 	0.94040 0.47160 0.98360 0.21900
O 	O 	0.00090 0.42320 0.77240 -0.21100
O 	O 	0.23110 0.43590 0.56900 -0.20800
O 	O 	0.20520 0.45670 0.78200 -0.19000
O 	O 	0.23509 0.18709 0.33422 -0.47200
O 	O 	0.15885 0.11155 0.41170 -0.46200
O 	O 	0.40752 0.10942 0.39636 -0.44300
O 	O 	0.40615 0.18705 0.32230 -0.44700
O 	O 	0.89320 0.80260 0.69760 -0.46500
O 	O 	0.81800 0.72770 0.77260 -0.46000
O 	O 	0.42936 0.84266 0.68528 -0.43400
O 	O 	0.43010 0.76570 0.76120 -0.45400
O 	O 	0.18628 0.60118 0.93364 -0.39000
O 	O 	0.26441 0.60001 0.93218 -0.42400
O 	O 	0.89720 0.55990 0.93260 -0.38800
O 	O 	0.82053 0.56043 0.93254 -0.42900
O 	O 	0.07600 0.54480 0.98360 0.21900
O 	O 	0.22670 0.80440 0.77240 -0.20300
O 	O 	0.19990 0.99510 0.56900 -0.20000
O 	O 	0.01280 0.76130 0.78200 -0.19600
O 	O 	0.81291 0.56931 0.66578 -0.46700
O 	O 	0.88845 0.57055 0.58830 -0.45900
O 	O 	0.89058 0.80388 0.60364 -0.44000
O 	O 	0.81295 0.72845 0.67770 -0.44100
O 	O 	0.19740 0.59080 0.30240 -0.47000
O 	O 	0.27230 0.59060 0.22740 -0.47300
O 	O 	0.15734 0.11464 0.31472 -0.43900
O 	O 	0.23430 0.19130 0.23880 -0.46600
O 	O 	0.39882 0.11992 0.06636 -0.42500
O 	O 	0.39999 0.19659 0.06782 -0.47900
O 	O 	0.44010 0.82980 0.06740 -0.42300
O 	O 	0.43957 0.75307 0.06746 -0.48200
O 	O 	0.45520 0.05960 0.01640 -0.49500
O 	O 	0.19560 0.99910 0.22760 -0.20200
O 	O 	0.00490 0.76890 0.43100 -0.21800
O 	O 	0.23870 0.79480 0.21800 -0.19600
O 	O 	0.52131 0.76491 0.66578 -0.46700
O 	O 	0.52325 0.84115 0.58830 -0.45900
O 	O 	0.50578 0.59248 0.60364 -0.44100
O 	O 	0.50935 0.59385 0.67770 -0.44100
O 	O 	0.50020 0.10680 0.30240 -0.47100
O 	O 	0.50030 0.18200 0.22740 -0.47400
O 	O 	0.52794 0.57064 0.31472 -0.43700
O 	O 	0.52690 0.56990 0.23880 -0.46500
O 	O 	0.53482 0.81372 0.06636 -0.42300
O 	O 	0.53219 0.73559 0.06782 -0.47900
O 	O 	0.49250 0.10280 0.06740 -0.42400
O 	O 	0.49297 0.17947 0.06746 -0.48200
O 	O 	0.52840 0.92400 0.01640 -0.49000
O 	O 	0.57680 0.77330 0.22760 -0.20900
O 	O 	0.56410 0.80010 0.43100 -0.21000
O 	O 	0.54330 0.98720 0.21800 -0.19000
O 	O 	0.56931 0.52131 0.66578 -0.46700
O 	O 	0.57055 0.52325 0.58830 -0.46000
O 	O 	0.80388 0.50578 0.60364 -0.44100
O 	O 	0.72845 0.50935 0.67770 -0.44100
O 	O 	0.59080 0.50020 0.30240 -0.47000
O 	O 	0.59060 0.50030 0.22740 -0.47300
O 	O 	0.11464 0.52794 0.31472 -0.43800
O 	O 	0.19130 0.52690 0.23880 -0.46500
O 	O 	0.11992 0.53482 0.06636 -0.42400
O 	O 	0.19659 0.53219 0.06782 -0.47900
O 	O 	0.82980 0.49250 0.06740 -0.42300
O 	O 	0.75307 0.49297 0.06746 -0.48200
O 	O 	0.05960 0.52840 0.01640 -0.49400
O 	O 	0.99910 0.57680 0.22760 -0.20200
O 	O 	0.76890 0.56410 0.43100 -0.21000
O 	O 	0.79480 0.54330 0.21800 -0.19600
O 	O 	0.76491 0.81291 0.66578 -0.46700
O 	O 	0.84115 0.88845 0.58830 -0.45800
O 	O 	0.59248 0.89058 0.60364 -0.44000
O 	O 	0.59385 0.81295 0.67770 -0.44100
O 	O 	0.10680 0.19740 0.30240 -0.47200
O 	O 	0.18200 0.27230 0.22740 -0.47400
O 	O 	0.57064 0.15734 0.31472 -0.43800
O 	O 	0.56990 0.23430 0.23880 -0.46500
O 	O 	0.81372 0.39882 0.06636 -0.42300
O 	O 	0.73559 0.39999 0.06782 -0.47900
O 	O 	0.10280 0.44010 0.06740 -0.42400
O 	O 	0.17947 0.43957 0.06746 -0.48200
O 	O 	0.92400 0.45520 0.01640 -0.49000
O 	O 	0.77330 0.19560 0.22760 -0.21000
O 	O 	0.80010 0.00490 0.43100 -0.21800
O 	O 	0.98720 0.23870 0.21800 -0.19000
