data_crystal

_cell_length_a 8.60660
_cell_length_b 10.15600
_cell_length_c 11.16100
_cell_angle_alpha 65.26000
_cell_angle_beta  71.76000
_cell_angle_gamma 78.68000

_symmetry_space_group_name_	'P 1'
_symmetry_space_group_name_H-M	'P 1'

loop_
_symmetry_equiv_pos_as_xyz
  x,y,z

loop_
_atom_site_label
_atom_site_type_symbol
_atom_site_fract_x
_atom_site_fract_y
_atom_site_fract_z
_atom_site_charge
Gd	Gd	0.86814 0.56025 0.34671 1.38600
Gd	Gd	0.13186 0.43975 0.65329 1.38600
H 	H 	0.92870 0.78140 0.68110 0.04300
H 	H 	0.01670 0.02740 0.28030 0.05100
H 	H 	0.36530 0.88490 0.22730 0.04700
H 	H 	0.77130 0.93120 0.91890 0.05900
H 	H 	0.45750 0.64510 0.12230 0.05000
H 	H 	0.28400 0.38340 0.01480 0.05800
H 	H 	0.07130 0.21860 0.31890 0.04300
H 	H 	0.98330 0.97260 0.71970 0.05100
H 	H 	0.63470 0.11510 0.77270 0.04700
H 	H 	0.22870 0.06880 0.08110 0.05900
H 	H 	0.54250 0.35490 0.87770 0.05000
H 	H 	0.71600 0.61660 0.98520 0.05800
C 	C 	0.93160 0.76520 0.44740 0.35500
C 	C 	0.96740 0.88560 0.47640 -0.09300
C 	C 	0.95720 0.86880 0.60850 -0.02700
C 	C 	0.01000 0.01640 0.36870 -0.01800
C 	C 	0.67460 0.76800 0.18010 0.30500
C 	C 	0.58260 0.88900 0.08890 -0.05700
C 	C 	0.41990 0.93090 0.13600 -0.01800
C 	C 	0.66200 0.95890 0.95180 -0.02600
C 	C 	0.17890 0.53890 0.16910 0.30800
C 	C 	0.34520 0.51770 0.08240 -0.06000
C 	C 	0.47470 0.58670 0.07300 -0.02800
C 	C 	0.37040 0.43020 0.00900 -0.03100
C 	C 	0.06840 0.23480 0.55260 0.35500
C 	C 	0.03260 0.11440 0.52360 -0.09300
C 	C 	0.04280 0.13120 0.39150 -0.02700
C 	C 	0.99000 0.98360 0.63130 -0.01800
C 	C 	0.32540 0.23200 0.81990 0.30500
C 	C 	0.41740 0.11100 0.91110 -0.05700
C 	C 	0.58010 0.06910 0.86400 -0.01800
C 	C 	0.33800 0.04110 0.04820 -0.02600
C 	C 	0.82110 0.46110 0.83090 0.30800
C 	C 	0.65480 0.48230 0.91760 -0.06000
C 	C 	0.52530 0.41330 0.92700 -0.02800
C 	C 	0.62960 0.56980 0.99100 -0.03100
O 	O 	0.96380 0.63354 0.51944 -0.47000
O 	O 	0.86890 0.79781 0.35090 -0.37300
O 	O 	0.60220 0.70040 0.30452 -0.38200
O 	O 	0.82170 0.73500 0.13105 -0.35800
O 	O 	0.15690 0.61894 0.23584 -0.35600
O 	O 	0.06310 0.47663 0.17499 -0.36500
O 	O 	0.03620 0.36646 0.48056 -0.47000
O 	O 	0.13110 0.20219 0.64910 -0.37300
O 	O 	0.39780 0.29960 0.69548 -0.38200
O 	O 	0.17830 0.26500 0.86895 -0.35800
O 	O 	0.84310 0.38106 0.76416 -0.35600
O 	O 	0.93690 0.52337 0.82501 -0.36500
