data_crystal

_cell_length_a 8.20100
_cell_length_b 10.49200
_cell_length_c 11.12500
_cell_angle_alpha 90.00000
_cell_angle_beta  95.28000
_cell_angle_gamma 90.00000

_symmetry_space_group_name_	'P 1'
_symmetry_space_group_name_H-M	'P 1'

loop_
_symmetry_equiv_pos_as_xyz
  x,y,z

loop_
_atom_site_label
_atom_site_type_symbol
_atom_site_fract_x
_atom_site_fract_y
_atom_site_fract_z
_atom_site_charge
Co	Co	0.00000 0.50000 -0.00000 1.09000
Co	Co	0.50000 0.00000 0.50000 1.15300
H 	H 	0.70160 0.40010 0.90040 -0.00100
H 	H 	0.45800 0.46550 0.81230 0.14500
H 	H 	0.63700 0.82410 0.79900 0.15800
H 	H 	0.87490 0.74890 0.88910 0.00700
H 	H 	0.26800 0.82210 0.63150 -0.03300
H 	H 	0.11910 0.69130 0.76060 -0.05500
H 	H 	0.79840 0.90010 0.59960 -0.08000
H 	H 	0.04200 0.96550 0.68770 0.18800
H 	H 	0.86300 0.32410 0.70100 0.21200
H 	H 	0.62510 0.24890 0.61090 -0.06600
H 	H 	0.23200 0.32210 0.86850 -0.03100
H 	H 	0.38090 0.19130 0.73940 -0.05300
H 	H 	0.29840 0.59990 0.09960 -0.06100
H 	H 	0.54200 0.53450 0.18770 0.13800
H 	H 	0.36300 0.17590 0.20100 0.12800
H 	H 	0.12510 0.25110 0.11090 -0.07800
H 	H 	0.73200 0.17790 0.36850 -0.03600
H 	H 	0.88090 0.30870 0.23940 -0.02300
H 	H 	0.20160 0.09990 0.40040 0.01500
H 	H 	0.95800 0.03450 0.31230 0.09600
H 	H 	0.13700 0.67590 0.29900 0.07100
H 	H 	0.37490 0.75110 0.38910 -0.00400
H 	H 	0.76800 0.67790 0.13150 -0.03200
H 	H 	0.61910 0.80870 0.26060 -0.02900
C 	C 	0.68530 0.48730 0.87980 0.19500
C 	C 	0.54460 0.52480 0.82890 -0.27100
C 	C 	0.64860 0.73680 0.82070 -0.27600
C 	C 	0.78540 0.69220 0.87230 0.19800
C 	C 	0.52210 0.65250 0.79890 0.27900
C 	C 	0.37090 0.69690 0.75070 -0.21700
C 	C 	0.37230 0.78830 0.65880 0.20500
C 	C 	0.21560 0.65390 0.79910 0.22600
C 	C 	0.81470 0.98730 0.62020 0.39000
C 	C 	0.95540 0.02480 0.67110 -0.46000
C 	C 	0.85140 0.23680 0.67930 -0.43400
C 	C 	0.71460 0.19220 0.62770 0.28400
C 	C 	0.97790 0.15250 0.70110 0.48800
C 	C 	0.12910 0.19690 0.74930 -0.37100
C 	C 	0.12770 0.28830 0.84120 0.25500
C 	C 	0.28440 0.15390 0.70090 0.27600
C 	C 	0.31470 0.51270 0.12020 0.17500
C 	C 	0.45540 0.47520 0.17110 -0.30000
C 	C 	0.35140 0.26320 0.17930 -0.30900
C 	C 	0.21460 0.30780 0.12770 0.17500
C 	C 	0.47790 0.34750 0.20110 0.26900
C 	C 	0.62910 0.30310 0.24930 -0.22900
C 	C 	0.62770 0.21170 0.34120 0.20300
C 	C 	0.78440 0.34610 0.20090 0.21800
C 	C 	0.18530 0.01270 0.37980 -0.02000
C 	C 	0.04460 0.97520 0.32890 -0.11100
C 	C 	0.14860 0.76320 0.32070 -0.14600
C 	C 	0.28540 0.80780 0.37230 0.08800
C 	C 	0.02210 0.84750 0.29890 0.05100
C 	C 	0.87090 0.80310 0.25070 -0.06600
C 	C 	0.87230 0.71170 0.15880 0.14600
C 	C 	0.71560 0.84610 0.29910 0.17200
N 	N 	0.80490 0.56920 0.90272 -0.24600
N 	N 	0.69510 0.06920 0.59728 -0.36100
N 	N 	0.19510 0.43080 0.09728 -0.31500
N 	N 	0.30490 0.93080 0.40272 -0.21100
O 	O 	0.49890 0.83585 0.60306 -0.34700
O 	O 	0.19070 0.57570 0.88302 -0.31800
O 	O 	0.00110 0.33585 0.89694 -0.37200
O 	O 	0.30930 0.07570 0.61698 -0.38300
O 	O 	0.50110 0.16415 0.39694 -0.37300
O 	O 	0.80930 0.42430 0.11698 -0.35100
O 	O 	0.99890 0.66415 0.10306 -0.32100
O 	O 	0.69070 0.92430 0.38302 -0.30400
