data_crystal

_cell_length_a 17.06600
_cell_length_b 17.06600
_cell_length_c 14.62500
_cell_angle_alpha 90.00000
_cell_angle_beta  90.00000
_cell_angle_gamma 90.00000

_symmetry_space_group_name_	'P 1'
_symmetry_space_group_name_H-M	'P 1'

loop_
_symmetry_equiv_pos_as_xyz
  x,y,z

loop_
_atom_site_label
_atom_site_type_symbol
_atom_site_fract_x
_atom_site_fract_y
_atom_site_fract_z
_atom_site_charge
V 	V 	0.38949 0.37923 0.62762 1.80700
V 	V 	0.46786 0.31311 0.41377 1.68400
V 	V 	0.57029 0.43535 0.73354 1.73500
V 	V 	0.55121 0.31810 0.58822 1.67900
C 	C 	0.30520 0.16290 0.57050 0.03700
H 	H 	0.31770 0.21340 0.55130 -0.04000
C 	C 	0.30580 0.10530 0.50830 -0.12700
H 	H 	0.31570 0.11770 0.44750 0.01400
C 	C 	0.29240 0.02920 0.53110 0.00000
C 	C 	0.27670 0.01340 0.62650 -0.00200
H 	H 	0.26960 0.96240 0.64750 -0.09000
C 	C 	0.27250 0.07740 0.68620 -0.02800
H 	H 	0.25880 0.06860 0.74690 -0.02900
C 	C 	0.30490 0.82840 0.42580 0.04900
H 	H 	0.31960 0.77810 0.44320 -0.05100
C 	C 	0.31080 0.88750 0.49000 -0.17600
H 	H 	0.32810 0.87680 0.54900 0.00900
C 	C 	0.29050 0.96320 0.46460 0.04400
C 	C 	0.26370 0.97470 0.37800 -0.30900
H 	H 	0.24770 0.02410 0.35860 0.08700
C 	C 	0.26100 0.91200 0.32030 0.12600
H 	H 	0.24440 0.92170 0.26080 -0.10600
N 	N 	0.28780 0.15210 0.65870 -0.21900
N 	N 	0.16100 0.27950 0.65960 -0.22400
O 	O 	0.33230 0.31940 0.68240 -0.72400
O 	O 	0.44290 0.31450 0.53820 -1.01100
O 	O 	0.49430 0.37530 0.67760 -1.01200
O 	O 	0.32220 0.42460 0.53760 -1.01800
O 	O 	0.37490 0.48130 0.67910 -0.99000
O 	O 	0.37920 0.36450 0.37710 -1.05100
V 	V 	0.61051 0.62077 0.62762 1.80700
V 	V 	0.53214 0.68689 0.41377 1.68200
V 	V 	0.42971 0.56465 0.73354 1.73500
V 	V 	0.44879 0.68190 0.58822 1.67800
C 	C 	0.69480 0.83710 0.57050 0.04900
H 	H 	0.68230 0.78660 0.55130 -0.04700
C 	C 	0.69420 0.89470 0.50830 -0.15700
H 	H 	0.68430 0.88230 0.44750 0.00800
C 	C 	0.70760 0.97080 0.53110 0.00800
C 	C 	0.72330 0.98660 0.62650 -0.25700
H 	H 	0.73040 0.03760 0.64750 0.06800
C 	C 	0.72750 0.92260 0.68620 0.07200
H 	H 	0.74120 0.93140 0.74690 -0.08500
C 	C 	0.69510 0.17160 0.42580 0.02700
H 	H 	0.68040 0.22190 0.44320 -0.04200
C 	C 	0.68920 0.11250 0.49000 -0.13400
H 	H 	0.67190 0.12320 0.54900 0.00900
C 	C 	0.70950 0.03680 0.46460 0.01300
C 	C 	0.73630 0.02530 0.37800 -0.02600
H 	H 	0.75230 0.97590 0.35860 -0.08900
C 	C 	0.73900 0.08800 0.32030 -0.00800
H 	H 	0.75560 0.07830 0.26080 -0.04100
N 	N 	0.71220 0.84790 0.65870 -0.24200
N 	N 	0.83900 0.72050 0.65960 -0.25600
O 	O 	0.66770 0.68060 0.68240 -0.72400
O 	O 	0.55710 0.68550 0.53820 -1.01400
O 	O 	0.50570 0.62470 0.67760 -1.01300
O 	O 	0.67780 0.57540 0.53760 -1.02000
O 	O 	0.62510 0.51870 0.67910 -0.99000
O 	O 	0.62080 0.63550 0.37710 -1.05400
V 	V 	0.37923 0.61051 0.37238 1.80700
V 	V 	0.31311 0.53214 0.58623 1.68400
V 	V 	0.43535 0.42971 0.26646 1.73500
V 	V 	0.31810 0.44879 0.41178 1.68000
C 	C 	0.16290 0.69480 0.42950 0.03600
H 	H 	0.21340 0.68230 0.44870 -0.04000
C 	C 	0.10530 0.69420 0.49170 -0.12900
H 	H 	0.11770 0.68430 0.55250 0.01300
C 	C 	0.02920 0.70760 0.46890 -0.00100
C 	C 	0.01340 0.72330 0.37350 -0.01300
H 	H 	0.96240 0.73040 0.35250 -0.08600
C 	C 	0.07740 0.72750 0.31380 -0.02700
H 	H 	0.06860 0.74120 0.25310 -0.03100
C 	C 	0.82840 0.69510 0.57420 0.04600
H 	H 	0.77810 0.68040 0.55680 -0.05000
C 	C 	0.88750 0.68920 0.51000 -0.17400
H 	H 	0.87680 0.67190 0.45100 0.00800
C 	C 	0.96320 0.70950 0.53540 0.03800
C 	C 	0.97470 0.73630 0.62200 -0.29700
H 	H 	0.02410 0.75230 0.64140 0.07500
C 	C 	0.91200 0.73900 0.67970 0.11700
H 	H 	0.92170 0.75560 0.73920 -0.10300
N 	N 	0.15210 0.71220 0.34130 -0.22000
N 	N 	0.27950 0.83900 0.34040 -0.25700
O 	O 	0.31940 0.66770 0.31760 -0.72400
O 	O 	0.31450 0.55710 0.46180 -1.01100
O 	O 	0.37530 0.50570 0.32240 -1.01200
O 	O 	0.42460 0.67780 0.46240 -1.02000
O 	O 	0.48130 0.62510 0.32090 -0.99000
O 	O 	0.36450 0.62080 0.62290 -1.05200
V 	V 	0.62077 0.38949 0.37238 1.80700
V 	V 	0.68689 0.46786 0.58623 1.68200
V 	V 	0.56465 0.57029 0.26646 1.73500
V 	V 	0.68190 0.55121 0.41178 1.67800
C 	C 	0.83710 0.30520 0.42950 0.05200
H 	H 	0.78660 0.31770 0.44870 -0.04800
C 	C 	0.89470 0.30580 0.49170 -0.15800
H 	H 	0.88230 0.31570 0.55250 0.00900
C 	C 	0.97080 0.29240 0.46890 0.01200
C 	C 	0.98660 0.27670 0.37350 -0.26600
H 	H 	0.03760 0.26960 0.35250 0.07700
C 	C 	0.92260 0.27250 0.31380 0.08000
H 	H 	0.93140 0.25880 0.25310 -0.08700
C 	C 	0.17160 0.30490 0.57420 0.02700
H 	H 	0.22190 0.31960 0.55680 -0.04100
C 	C 	0.11250 0.31080 0.51000 -0.13100
H 	H 	0.12320 0.32810 0.45100 0.01000
C 	C 	0.03680 0.29050 0.53540 0.01300
C 	C 	0.02530 0.26370 0.62200 -0.01400
H 	H 	0.97590 0.24770 0.64140 -0.09200
C 	C 	0.08800 0.26100 0.67970 -0.01000
H 	H 	0.07830 0.24440 0.73920 -0.03800
N 	N 	0.84790 0.28780 0.34130 -0.24300
N 	N 	0.72050 0.16100 0.34040 -0.22600
O 	O 	0.68060 0.33230 0.31760 -0.72400
O 	O 	0.68550 0.44290 0.46180 -1.01400
O 	O 	0.62470 0.49430 0.32240 -1.01300
O 	O 	0.57540 0.32220 0.46240 -1.01800
O 	O 	0.51870 0.37490 0.32090 -0.98900
O 	O 	0.63550 0.37920 0.62290 -1.05300
V 	V 	0.88949 0.12077 0.12762 1.80600
V 	V 	0.96786 0.18689 0.91377 1.66300
V 	V 	0.07029 0.06465 0.23354 1.75400
V 	V 	0.05121 0.18190 0.08822 1.69800
C 	C 	0.80520 0.33710 0.07050 0.04000
H 	H 	0.81770 0.28660 0.05130 -0.04400
C 	C 	0.80580 0.39470 0.00830 -0.14300
H 	H 	0.81570 0.38230 0.94750 0.00700
C 	C 	0.79240 0.47080 0.03110 0.00200
C 	C 	0.77670 0.48660 0.12650 -0.13500
H 	H 	0.76960 0.53760 0.14750 -0.00900
C 	C 	0.77250 0.42260 0.18620 0.02200
H 	H 	0.75880 0.43140 0.24690 -0.05900
C 	C 	0.80490 0.67160 0.92580 0.03300
H 	H 	0.81960 0.72190 0.94320 -0.04700
C 	C 	0.81080 0.61250 0.99000 -0.15400
H 	H 	0.82810 0.62320 0.04900 0.00300
C 	C 	0.79050 0.53680 0.96460 0.02300
C 	C 	0.76370 0.52530 0.87800 -0.16200
H 	H 	0.74770 0.47590 0.85860 -0.00500
C 	C 	0.76100 0.58800 0.82030 0.05400
H 	H 	0.74440 0.57830 0.76080 -0.07300
N 	N 	0.78780 0.34790 0.15870 -0.23200
N 	N 	0.66100 0.22050 0.15960 -0.24000
O 	O 	0.83230 0.18060 0.18240 -0.72500
O 	O 	0.94290 0.18550 0.03820 -1.03100
O 	O 	0.99430 0.12470 0.17760 -1.05100
O 	O 	0.82220 0.07540 0.03760 -1.00400
O 	O 	0.87490 0.01870 0.17910 -0.97600
O 	O 	0.87920 0.13550 0.87710 -1.05600
V 	V 	0.11051 0.87923 0.12762 1.80600
V 	V 	0.03214 0.81311 0.91377 1.70000
V 	V 	0.92971 0.93535 0.23354 1.69400
V 	V 	0.94879 0.81810 0.08822 1.66000
C 	C 	0.19480 0.66290 0.07050 0.04800
H 	H 	0.18230 0.71340 0.05130 -0.04300
C 	C 	0.19420 0.60530 0.00830 -0.14200
H 	H 	0.18430 0.61770 0.94750 0.01500
C 	C 	0.20760 0.52920 0.03110 0.00900
C 	C 	0.22330 0.51340 0.12650 -0.13300
H 	H 	0.23040 0.46240 0.14750 -0.00500
C 	C 	0.22750 0.57740 0.18620 0.02800
H 	H 	0.24120 0.56860 0.24690 -0.05700
C 	C 	0.19510 0.32840 0.92580 0.04200
H 	H 	0.18040 0.27810 0.94320 -0.04600
C 	C 	0.18920 0.38750 0.99000 -0.15400
H 	H 	0.17190 0.37680 0.04900 0.01500
C 	C 	0.20950 0.46320 0.96460 0.03100
C 	C 	0.23630 0.47470 0.87800 -0.16100
H 	H 	0.25230 0.52410 0.85860 -0.00200
C 	C 	0.23900 0.41200 0.82030 0.06100
H 	H 	0.25560 0.42170 0.76080 -0.07100
N 	N 	0.21220 0.65210 0.15870 -0.23100
N 	N 	0.33900 0.77950 0.15960 -0.24100
O 	O 	0.16770 0.81940 0.18240 -0.72400
O 	O 	0.05710 0.81450 0.03820 -0.99700
O 	O 	0.00570 0.87530 0.17760 -0.99800
O 	O 	0.17780 0.92460 0.03760 -1.03700
O 	O 	0.12510 0.98130 0.17910 -1.02700
O 	O 	0.12080 0.86450 0.87710 -1.05400
V 	V 	0.87923 0.88949 0.87238 1.80400
V 	V 	0.81311 0.96786 0.08623 1.66400
V 	V 	0.93535 0.07029 0.76646 1.72100
V 	V 	0.81810 0.05121 0.91178 1.69500
C 	C 	0.66290 0.80520 0.92950 0.04000
H 	H 	0.71340 0.81770 0.94870 -0.04400
C 	C 	0.60530 0.80580 0.99170 -0.14300
H 	H 	0.61770 0.81570 0.05250 0.00600
C 	C 	0.52920 0.79240 0.96890 0.00200
C 	C 	0.51340 0.77670 0.87350 -0.13500
H 	H 	0.46240 0.76960 0.85250 -0.00900
C 	C 	0.57740 0.77250 0.81380 0.02200
H 	H 	0.56860 0.75880 0.75310 -0.05900
C 	C 	0.32840 0.80490 0.07420 0.03300
H 	H 	0.27810 0.81960 0.05680 -0.04700
C 	C 	0.38750 0.81080 0.01000 -0.15400
H 	H 	0.37680 0.82810 0.95100 0.00400
C 	C 	0.46320 0.79050 0.03540 0.02300
C 	C 	0.47470 0.76370 0.12200 -0.16200
H 	H 	0.52410 0.74770 0.14140 -0.00600
C 	C 	0.41200 0.76100 0.17970 0.05400
H 	H 	0.42170 0.74440 0.23920 -0.07300
N 	N 	0.65210 0.78780 0.84130 -0.23200
N 	N 	0.77950 0.66100 0.84040 -0.24100
O 	O 	0.81940 0.83230 0.81760 -0.72700
O 	O 	0.81450 0.94290 0.96180 -1.03300
O 	O 	0.87530 0.99430 0.82240 -1.06200
O 	O 	0.92460 0.82220 0.96240 -1.03900
O 	O 	0.98130 0.87490 0.82090 -1.03700
O 	O 	0.86450 0.87920 0.12290 -1.07200
V 	V 	0.12077 0.11051 0.87238 1.80800
V 	V 	0.18689 0.03214 0.08623 1.70300
V 	V 	0.06465 0.92971 0.76646 1.72000
V 	V 	0.18190 0.94879 0.91178 1.66000
C 	C 	0.33710 0.19480 0.92950 0.04900
H 	H 	0.28660 0.18230 0.94870 -0.04300
C 	C 	0.39470 0.19420 0.99170 -0.14400
H 	H 	0.38230 0.18430 0.05250 0.01600
C 	C 	0.47080 0.20760 0.96890 0.00900
C 	C 	0.48660 0.22330 0.87350 -0.13300
H 	H 	0.53760 0.23040 0.85250 -0.00500
C 	C 	0.42260 0.22750 0.81380 0.02800
H 	H 	0.43140 0.24120 0.75310 -0.05700
C 	C 	0.67160 0.19510 0.07420 0.04200
H 	H 	0.72190 0.18040 0.05680 -0.04500
C 	C 	0.61250 0.18920 0.01000 -0.15300
H 	H 	0.62320 0.17190 0.95100 0.01400
C 	C 	0.53680 0.20950 0.03540 0.03100
C 	C 	0.52530 0.23630 0.12200 -0.16100
H 	H 	0.47590 0.25230 0.14140 -0.00200
C 	C 	0.58800 0.23900 0.17970 0.06100
H 	H 	0.57830 0.25560 0.23920 -0.07100
N 	N 	0.34790 0.21220 0.84130 -0.23100
N 	N 	0.22050 0.33900 0.84040 -0.24100
O 	O 	0.18060 0.16770 0.81760 -0.72200
O 	O 	0.18550 0.05710 0.96180 -0.99200
O 	O 	0.12470 0.00570 0.82240 -0.97900
O 	O 	0.07540 0.17780 0.96240 -0.99900
O 	O 	0.01870 0.12510 0.82090 -0.95800
O 	O 	0.13550 0.12080 0.12290 -1.03400
Co	Co	0.25480 0.24520 0.75000 1.16000
Co	Co	0.74520 0.75480 0.75000 1.15900
Co	Co	0.24520 0.74520 0.25000 1.16000
Co	Co	0.75480 0.25480 0.25000 1.16000
O 	O 	0.50000 0.50000 0.79800 -0.05100
O 	O 	0.50000 0.50000 0.70460 -0.63000
O 	O 	0.50000 0.50000 0.77200 -0.51000
O 	O 	0.50000 0.50000 0.20200 -0.05100
O 	O 	0.50000 0.50000 0.29540 -0.63000
O 	O 	0.50000 0.50000 0.22800 -0.51000
O 	O 	0.00000 0.00000 0.29800 -0.06300
O 	O 	0.00000 0.00000 0.20460 -0.58800
O 	O 	0.00000 0.00000 0.27200 -0.45200
O 	O 	0.00000 -0.00000 0.70200 -0.06200
O 	O 	-0.00000 0.00000 0.79540 -0.58900
O 	O 	0.00000 -0.00000 0.72800 -0.45200
