data_crystal

_cell_length_a 17.09100
_cell_length_b 17.09100
_cell_length_c 14.61100
_cell_angle_alpha 90.00000
_cell_angle_beta  90.00000
_cell_angle_gamma 90.00000

_symmetry_space_group_name_	'P 1'
_symmetry_space_group_name_H-M	'P 1'

loop_
_symmetry_equiv_pos_as_xyz
  x,y,z

loop_
_atom_site_label
_atom_site_type_symbol
_atom_site_fract_x
_atom_site_fract_y
_atom_site_fract_z
_atom_site_charge
V 	V 	0.37871 0.38682 0.62810 1.78800
V 	V 	0.68544 0.45266 0.58869 1.67100
V 	V 	0.53321 0.31133 0.58704 1.67200
V 	V 	0.56627 0.42894 0.73017 1.68000
C 	C 	0.07860 0.27260 0.68410 0.00500
H 	H 	0.06890 0.26150 0.74540 -0.03600
C 	C 	0.01580 0.27580 0.62590 -0.04200
H 	H 	0.96540 0.26740 0.64770 -0.06200
C 	C 	0.02860 0.29210 0.53270 0.01200
C 	C 	0.16440 0.30480 0.57310 0.03800
H 	H 	0.21480 0.31850 0.55550 -0.03900
C 	C 	0.82800 0.30460 0.42660 0.03200
H 	H 	0.77760 0.31840 0.44450 -0.04400
C 	C 	0.88810 0.31170 0.48860 -0.14900
H 	H 	0.87790 0.33050 0.54710 0.00200
C 	C 	0.96350 0.29100 0.46500 0.02100
C 	C 	0.91420 0.26330 0.31570 0.08600
H 	H 	0.92390 0.24930 0.25530 -0.08500
C 	C 	0.97670 0.26740 0.37470 -0.24200
H 	H 	0.02690 0.25480 0.35500 0.05900
C 	C 	0.10570 0.30680 0.50790 -0.13100
H 	H 	0.11800 0.31810 0.44730 0.01200
N 	N 	0.15240 0.28430 0.65910 -0.21700
N 	N 	0.27830 0.16020 0.65980 -0.21400
O 	O 	0.48090 0.37070 0.68200 -1.03000
O 	O 	0.62040 0.36920 0.62340 -1.07500
O 	O 	0.36890 0.49080 0.68220 -1.03700
O 	O 	0.31350 0.44050 0.53890 -1.02100
O 	O 	0.42710 0.32030 0.53700 -1.02900
O 	O 	0.31880 0.32830 0.68180 -0.71100
V 	V 	0.62129 0.61318 0.62810 1.78700
V 	V 	0.31456 0.54734 0.58869 1.67100
V 	V 	0.46679 0.68867 0.58704 1.67000
V 	V 	0.43373 0.57106 0.73017 1.68000
C 	C 	0.92140 0.72740 0.68410 0.09200
H 	H 	0.93110 0.73850 0.74540 -0.08200
C 	C 	0.98420 0.72420 0.62590 -0.24300
H 	H 	0.03460 0.73260 0.64770 0.05900
C 	C 	0.97140 0.70790 0.53270 0.02300
C 	C 	0.83560 0.69520 0.57310 0.04900
H 	H 	0.78520 0.68150 0.55550 -0.04500
C 	C 	0.17200 0.69540 0.42660 0.01800
H 	H 	0.22240 0.68160 0.44450 -0.03800
C 	C 	0.11190 0.68830 0.48860 -0.12300
H 	H 	0.12210 0.66950 0.54710 0.00300
C 	C 	0.03650 0.70900 0.46500 0.00400
C 	C 	0.08580 0.73670 0.31570 -0.00500
H 	H 	0.07610 0.75070 0.25530 -0.04000
C 	C 	0.02330 0.73260 0.37470 -0.04300
H 	H 	0.97310 0.74520 0.35500 -0.06600
C 	C 	0.89430 0.69320 0.50790 -0.15700
H 	H 	0.88200 0.68190 0.44730 0.00900
N 	N 	0.84760 0.71570 0.65910 -0.23800
N 	N 	0.72170 0.83980 0.65980 -0.23400
O 	O 	0.51910 0.62930 0.68200 -1.03100
O 	O 	0.37960 0.63080 0.62340 -1.07600
O 	O 	0.63110 0.50920 0.68220 -1.03800
O 	O 	0.68650 0.55950 0.53890 -1.02300
O 	O 	0.57290 0.67970 0.53700 -1.03000
O 	O 	0.68120 0.67170 0.68180 -0.71200
V 	V 	0.38682 0.62129 0.37190 1.78700
V 	V 	0.45266 0.31456 0.41131 1.67100
V 	V 	0.31133 0.46679 0.41296 1.67200
V 	V 	0.42894 0.43373 0.26983 1.68000
C 	C 	0.27260 0.92140 0.31590 0.09800
H 	H 	0.26150 0.93110 0.25460 -0.08400
C 	C 	0.27580 0.98420 0.37410 -0.25000
H 	H 	0.26740 0.03460 0.35230 0.06600
C 	C 	0.29210 0.97140 0.46730 0.02600
C 	C 	0.30480 0.83560 0.42690 0.05100
H 	H 	0.31850 0.78520 0.44450 -0.04600
C 	C 	0.30460 0.17200 0.57340 0.01900
H 	H 	0.31840 0.22240 0.55550 -0.03700
C 	C 	0.31170 0.11190 0.51140 -0.12200
H 	H 	0.33050 0.12210 0.45290 0.00400
C 	C 	0.29100 0.03650 0.53500 0.00500
C 	C 	0.26330 0.08580 0.68430 -0.00600
H 	H 	0.24930 0.07610 0.74470 -0.03800
C 	C 	0.26740 0.02330 0.62530 -0.03500
H 	H 	0.25480 0.97310 0.64500 -0.06900
C 	C 	0.30680 0.89430 0.49210 -0.15800
H 	H 	0.31810 0.88200 0.55270 0.01000
N 	N 	0.28430 0.84760 0.34090 -0.23900
N 	N 	0.16020 0.72170 0.34020 -0.21500
O 	O 	0.37070 0.51910 0.31800 -1.03000
O 	O 	0.36920 0.37960 0.37660 -1.07400
O 	O 	0.49080 0.63110 0.31780 -1.03800
O 	O 	0.44050 0.68650 0.46110 -1.02300
O 	O 	0.32030 0.57290 0.46300 -1.02900
O 	O 	0.32830 0.68120 0.31820 -0.71200
V 	V 	0.61318 0.37871 0.37190 1.78700
V 	V 	0.54734 0.68544 0.41131 1.67000
V 	V 	0.68867 0.53321 0.41296 1.67000
V 	V 	0.57106 0.56627 0.26983 1.68000
C 	C 	0.72740 0.07860 0.31590 0.00600
H 	H 	0.73850 0.06890 0.25460 -0.03800
C 	C 	0.72420 0.01580 0.37410 -0.05100
H 	H 	0.73260 0.96540 0.35230 -0.05900
C 	C 	0.70790 0.02860 0.46730 0.01100
C 	C 	0.69520 0.16440 0.42690 0.03700
H 	H 	0.68150 0.21480 0.44450 -0.03900
C 	C 	0.69540 0.82800 0.57340 0.03000
H 	H 	0.68160 0.77760 0.55550 -0.04300
C 	C 	0.68830 0.88810 0.51140 -0.14800
H 	H 	0.66950 0.87790 0.45290 0.00100
C 	C 	0.70900 0.96350 0.53500 0.01800
C 	C 	0.73670 0.91420 0.68430 0.07900
H 	H 	0.75070 0.92390 0.74470 -0.08300
C 	C 	0.73260 0.97670 0.62530 -0.23400
H 	H 	0.74520 0.02690 0.64500 0.05200
C 	C 	0.69320 0.10570 0.49210 -0.13300
H 	H 	0.68190 0.11800 0.55270 0.01100
N 	N 	0.71570 0.15240 0.34090 -0.21800
N 	N 	0.83980 0.27830 0.34020 -0.23500
O 	O 	0.62930 0.48090 0.31800 -1.03100
O 	O 	0.63080 0.62040 0.37660 -1.07700
O 	O 	0.50920 0.36890 0.31780 -1.03700
O 	O 	0.55950 0.31350 0.46110 -1.02100
O 	O 	0.67970 0.42710 0.46300 -1.03000
O 	O 	0.67170 0.31880 0.31820 -0.71200
V 	V 	0.87871 0.11318 0.12810 1.78700
V 	V 	0.18544 0.04734 0.08869 1.68500
V 	V 	0.03321 0.18867 0.08704 1.68600
V 	V 	0.06627 0.07106 0.23017 1.69600
C 	C 	0.57860 0.22740 0.18410 0.05400
H 	H 	0.56890 0.23850 0.24540 -0.05900
C 	C 	0.51580 0.22420 0.12590 -0.14600
H 	H 	0.46540 0.23260 0.14770 0.00300
C 	C 	0.52860 0.20790 0.03270 0.02100
C 	C 	0.66440 0.19520 0.07310 0.04700
H 	H 	0.71480 0.18150 0.05550 -0.04200
C 	C 	0.32800 0.19540 0.92660 0.02900
H 	H 	0.27760 0.18160 0.94450 -0.04000
C 	C 	0.38810 0.18830 0.98860 -0.13600
H 	H 	0.37790 0.16950 0.04710 0.00700
C 	C 	0.46350 0.20900 0.96500 0.01500
C 	C 	0.41420 0.23670 0.81570 0.04200
H 	H 	0.42390 0.25070 0.75530 -0.06100
C 	C 	0.47670 0.23260 0.87470 -0.13800
H 	H 	0.52690 0.24520 0.85500 -0.00400
C 	C 	0.60570 0.19320 0.00790 -0.14400
H 	H 	0.61800 0.18190 0.94730 0.01400
N 	N 	0.65240 0.21570 0.15910 -0.22800
N 	N 	0.77830 0.33980 0.15980 -0.22500
O 	O 	0.98090 0.12930 0.18200 -1.05500
O 	O 	0.12040 0.13080 0.12340 -1.06200
O 	O 	0.86890 0.00920 0.18220 -1.02400
O 	O 	0.81350 0.05950 0.03890 -1.01000
O 	O 	0.92710 0.17970 0.03700 -1.04200
O 	O 	0.81880 0.17170 0.18180 -0.71200
V 	V 	0.12129 0.88682 0.12810 1.78700
V 	V 	0.81456 0.95266 0.08869 1.65700
V 	V 	0.96679 0.81133 0.08704 1.65700
V 	V 	0.93373 0.92894 0.23017 1.65300
C 	C 	0.42140 0.77260 0.18410 0.04900
H 	H 	0.43110 0.76150 0.24540 -0.06100
C 	C 	0.48420 0.77580 0.12590 -0.14700
H 	H 	0.53460 0.76740 0.14770 0.00000
C 	C 	0.47140 0.79210 0.03270 0.01600
C 	C 	0.33560 0.80480 0.07310 0.04100
H 	H 	0.28520 0.81850 0.05550 -0.04300
C 	C 	0.67200 0.80460 0.92660 0.02200
H 	H 	0.72240 0.81840 0.94450 -0.04100
C 	C 	0.61190 0.81170 0.98860 -0.13600
H 	H 	0.62210 0.83050 0.04710 -0.00200
C 	C 	0.53650 0.79100 0.96500 0.01000
C 	C 	0.58580 0.76330 0.81570 0.03700
H 	H 	0.57610 0.74930 0.75530 -0.06200
C 	C 	0.52330 0.76740 0.87470 -0.13900
H 	H 	0.47310 0.75480 0.85500 -0.00600
C 	C 	0.39430 0.80680 0.00790 -0.14600
H 	H 	0.38200 0.81810 0.94730 0.00800
N 	N 	0.34760 0.78430 0.15910 -0.22800
N 	N 	0.22170 0.66020 0.15980 -0.22400
O 	O 	0.01910 0.87070 0.18200 -1.01700
O 	O 	0.87960 0.86920 0.12340 -1.09000
O 	O 	0.13110 0.99080 0.18220 -1.06200
O 	O 	0.18650 0.94050 0.03890 -1.03500
O 	O 	0.07290 0.82030 0.03700 -1.01800
O 	O 	0.18120 0.82830 0.18180 -0.71200
V 	V 	0.88682 0.87871 0.87190 1.78500
V 	V 	0.95266 0.18544 0.91131 1.65700
V 	V 	0.81133 0.03321 0.91296 1.68300
V 	V 	0.92894 0.06627 0.76983 1.67200
C 	C 	0.77260 0.57860 0.81590 0.04900
H 	H 	0.76150 0.56890 0.75460 -0.06100
C 	C 	0.77580 0.51580 0.87410 -0.14700
H 	H 	0.76740 0.46540 0.85230 0.00000
C 	C 	0.79210 0.52860 0.96730 0.01600
C 	C 	0.80480 0.66440 0.92690 0.04100
H 	H 	0.81850 0.71480 0.94450 -0.04300
C 	C 	0.80460 0.32800 0.07340 0.02200
H 	H 	0.81840 0.27760 0.05550 -0.04100
C 	C 	0.81170 0.38810 0.01140 -0.13600
H 	H 	0.83050 0.37790 0.95290 -0.00200
C 	C 	0.79100 0.46350 0.03500 0.01000
C 	C 	0.76330 0.41420 0.18430 0.03700
H 	H 	0.74930 0.42390 0.24470 -0.06200
C 	C 	0.76740 0.47670 0.12530 -0.13900
H 	H 	0.75480 0.52690 0.14500 -0.00700
C 	C 	0.80680 0.60570 0.99210 -0.14600
H 	H 	0.81810 0.61800 0.05270 0.00700
N 	N 	0.78430 0.65240 0.84090 -0.22800
N 	N 	0.66020 0.77830 0.84020 -0.22400
O 	O 	0.87070 0.98090 0.81800 -1.06200
O 	O 	0.86920 0.12040 0.87660 -1.07700
O 	O 	0.99080 0.86890 0.81780 -1.07000
O 	O 	0.94050 0.81350 0.96110 -1.03700
O 	O 	0.82030 0.92710 0.96300 -1.04400
O 	O 	0.82830 0.81880 0.81820 -0.71400
V 	V 	0.11318 0.12129 0.87190 1.78900
V 	V 	0.04734 0.81456 0.91131 1.68300
V 	V 	0.18867 0.96679 0.91296 1.65600
V 	V 	0.07106 0.93373 0.76983 1.67200
C 	C 	0.22740 0.42140 0.81590 0.05400
H 	H 	0.23850 0.43110 0.75460 -0.05900
C 	C 	0.22420 0.48420 0.87410 -0.14600
H 	H 	0.23260 0.53460 0.85230 0.00300
C 	C 	0.20790 0.47140 0.96730 0.02100
C 	C 	0.19520 0.33560 0.92690 0.04700
H 	H 	0.18150 0.28520 0.94450 -0.04200
C 	C 	0.19540 0.67200 0.07340 0.02800
H 	H 	0.18160 0.72240 0.05550 -0.04000
C 	C 	0.18830 0.61190 0.01140 -0.13500
H 	H 	0.16950 0.62210 0.95290 0.00600
C 	C 	0.20900 0.53650 0.03500 0.01500
C 	C 	0.23670 0.58580 0.18430 0.04200
H 	H 	0.25070 0.57610 0.24470 -0.06100
C 	C 	0.23260 0.52330 0.12530 -0.13800
H 	H 	0.24520 0.47310 0.14500 -0.00400
C 	C 	0.19320 0.39430 0.99210 -0.14500
H 	H 	0.18190 0.38200 0.05270 0.01500
N 	N 	0.21570 0.34760 0.84090 -0.22800
N 	N 	0.33980 0.22170 0.84020 -0.22400
O 	O 	0.12930 0.01910 0.81800 -1.00500
O 	O 	0.13080 0.87960 0.87660 -1.07700
O 	O 	0.00920 0.13110 0.81780 -1.01100
O 	O 	0.05950 0.18650 0.96110 -1.00600
O 	O 	0.17970 0.07290 0.96300 -1.01400
O 	O 	0.17170 0.18120 0.81820 -0.71100
Ni	Ni	0.24639 0.25361 0.75000 1.09900
Ni	Ni	0.75361 0.74639 0.75000 1.09900
Ni	Ni	0.25361 0.75361 0.25000 1.09900
Ni	Ni	0.74639 0.24639 0.25000 1.09900
O 	O 	0.50000 0.50000 0.78240 -0.86200
O 	O 	0.50000 0.50000 0.21760 -0.86200
O 	O 	0.00000 0.00000 0.28240 -0.81200
O 	O 	0.00000 0.00000 0.71760 -0.81200
