data_crystal

_cell_length_a 7.39330
_cell_length_b 14.34900
_cell_length_c 16.97540
_cell_angle_alpha 104.15400
_cell_angle_beta  102.57800
_cell_angle_gamma 90.00000

_symmetry_space_group_name_	'P 1'
_symmetry_space_group_name_H-M	'P 1'

loop_
_symmetry_equiv_pos_as_xyz
  x,y,z

loop_
_atom_site_label
_atom_site_type_symbol
_atom_site_fract_x
_atom_site_fract_y
_atom_site_fract_z
_atom_site_charge
La	La	0.50739 0.96377 0.50132 1.67700
La	La	0.00607 0.03623 0.49868 1.63400
H 	H 	0.28080 0.52700 0.09880 0.05100
H 	H 	0.30160 0.43340 0.03120 0.05000
H 	H 	0.89800 0.49210 0.11040 0.01400
H 	H 	0.92280 0.42400 0.17140 0.01600
H 	H 	0.36880 0.34370 0.13060 0.03600
H 	H 	0.35120 0.43310 0.20300 0.03800
H 	H 	0.96680 0.28100 0.06880 0.11000
H 	H 	0.89940 0.34770 0.00840 0.10100
H 	H 	0.57410 0.34190 0.24840 0.14500
H 	H 	0.77600 0.26880 0.33820 -0.01200
H 	H 	0.34420 0.12730 0.37160 -0.04400
H 	H 	0.14730 0.19940 0.28240 0.14900
H 	H 	0.25200 0.21060 0.86280 0.10300
H 	H 	0.10800 0.11890 0.73060 0.01700
H 	H 	0.62910 0.11880 0.80240 0.01700
H 	H 	0.77260 0.20640 0.93460 0.08900
H 	H 	0.72590 0.55600 0.19840 0.16600
H 	H 	0.58140 0.67220 0.27600 -0.03700
H 	H 	0.07100 0.79040 0.41760 -0.05400
H 	H 	0.22050 0.67560 0.33560 0.19000
H 	H 	0.18200 0.47300 0.90120 0.03500
H 	H 	0.27040 0.56660 0.96880 0.03200
H 	H 	0.78760 0.50790 0.88960 0.01100
H 	H 	0.75140 0.57600 0.82860 0.01400
H 	H 	0.23820 0.65630 0.86940 0.02400
H 	H 	0.14820 0.56690 0.79700 0.02600
H 	H 	0.89800 0.71900 0.93120 0.01800
H 	H 	0.89100 0.65230 0.99160 0.00700
H 	H 	0.32570 0.65810 0.75160 0.09900
H 	H 	0.43780 0.73120 0.66180 0.02600
H 	H 	0.97260 0.87270 0.62840 0.06800
H 	H 	0.86490 0.80060 0.71760 0.07700
H 	H 	0.38920 0.78940 0.13720 0.15300
H 	H 	0.37740 0.88110 0.26940 -0.03200
H 	H 	0.82670 0.88120 0.19760 -0.03500
H 	H 	0.83800 0.79360 0.06540 0.14700
H 	H 	0.52750 0.44400 0.80160 0.14800
H 	H 	0.30540 0.32780 0.72400 -0.03500
H 	H 	0.65340 0.20960 0.58240 -0.05100
H 	H 	0.88490 0.32440 0.66440 0.17900
C 	C 	0.12480 0.41050 0.10400 -0.00200
C 	C 	0.21370 0.47090 0.05880 -0.00600
C 	C 	0.98830 0.46610 0.14880 0.11600
C 	C 	0.28370 0.37760 0.16240 0.02500
C 	C 	0.00820 0.32470 0.04000 -0.11400
C 	C 	0.34230 0.27550 0.25560 0.32000
C 	C 	0.52810 0.29810 0.27260 -0.30600
C 	C 	0.64890 0.25440 0.32700 0.19700
C 	C 	0.58310 0.19110 0.36400 -0.24300
C 	C 	0.39180 0.17000 0.34700 0.20700
C 	C 	0.27470 0.21290 0.29340 -0.31400
C 	C 	0.02170 0.21870 0.90880 0.17000
C 	C 	0.12630 0.19220 0.85020 -0.17600
C 	C 	0.03940 0.13710 0.77120 0.04300
C 	C 	0.85230 0.10890 0.75240 -0.12500
C 	C 	0.75500 0.13660 0.81420 0.08300
C 	C 	0.83930 0.19020 0.89300 -0.15400
C 	C 	0.75460 0.05380 0.66880 0.39000
C 	C 	0.98670 0.60510 0.25800 0.42700
C 	C 	0.79600 0.60370 0.24160 -0.37900
C 	C 	0.71020 0.67230 0.28900 0.23900
C 	C 	0.81020 0.74280 0.35700 -0.23900
C 	C 	0.00130 0.74360 0.37340 0.20300
C 	C 	0.09160 0.67480 0.32420 -0.38500
C 	C 	0.71240 0.81750 0.40620 0.41600
C 	C 	0.71630 0.14370 0.41860 0.42000
C 	C 	0.02080 0.58950 0.89600 -0.08500
C 	C 	0.15490 0.52910 0.94120 0.01900
C 	C 	0.83950 0.53390 0.85120 0.10700
C 	C 	0.12130 0.62240 0.83760 0.05300
C 	C 	0.96820 0.67530 0.96000 0.12200
C 	C 	0.08670 0.72450 0.74440 0.16500
C 	C 	0.25550 0.70190 0.72740 -0.18000
C 	C 	0.32190 0.74560 0.67300 0.07000
C 	C 	0.21910 0.80890 0.63600 -0.11700
C 	C 	0.04480 0.83000 0.65300 -0.05100
C 	C 	0.98130 0.78710 0.70660 -0.06000
C 	C 	0.11290 0.78130 0.09120 0.29300
C 	C 	0.27610 0.80780 0.14980 -0.30300
C 	C 	0.26820 0.86290 0.22880 0.20900
C 	C 	0.09990 0.89110 0.24760 -0.28900
C 	C 	0.94080 0.86340 0.18580 0.24800
C 	C 	0.94630 0.80980 0.10700 -0.29300
C 	C 	0.08580 0.94620 0.33120 0.40900
C 	C 	0.72870 0.39490 0.74200 0.33600
C 	C 	0.55440 0.39630 0.75840 -0.33700
C 	C 	0.42120 0.32770 0.71100 0.22000
C 	C 	0.45320 0.25720 0.64300 -0.26500
C 	C 	0.62790 0.25640 0.62660 0.22100
C 	C 	0.76740 0.32520 0.67580 -0.31700
C 	C 	0.30620 0.18250 0.59380 0.42300
C 	C 	0.29770 0.85630 0.58140 0.37200
O 	O 	0.83229 0.04240 0.60778 -0.48600
O 	O 	0.59327 0.02220 0.65794 -0.40500
O 	O 	0.88300 0.17390 0.44260 -0.38800
O 	O 	0.66035 0.07190 0.44010 -0.50800
O 	O 	0.80697 0.88390 0.46534 -0.49700
O 	O 	0.54063 0.81540 0.39046 -0.40900
O 	O 	0.21310 0.31540 0.20420 -0.25800
O 	O 	0.08835 0.54230 0.21450 -0.32200
O 	O 	0.11595 0.27560 0.98510 -0.20900
O 	O 	0.22451 0.95760 0.39222 -0.50900
O 	O 	0.93533 0.97780 0.34206 -0.38700
O 	O 	0.44040 0.82610 0.55740 -0.39600
O 	O 	0.22025 0.92810 0.55990 -0.51000
O 	O 	0.34163 0.11610 0.53466 -0.51000
O 	O 	0.15017 0.18460 0.60954 -0.42300
O 	O 	0.00890 0.68460 0.79580 -0.23600
O 	O 	0.87385 0.45770 0.78550 -0.25500
O 	O 	0.13085 0.72440 0.01490 -0.26500
O 	O 	0.07750 0.50000 -0.00000 -0.17700
