data_crystal

_cell_length_a 7.06650
_cell_length_b 14.52620
_cell_length_c 16.71090
_cell_angle_alpha 104.06600
_cell_angle_beta  102.20600
_cell_angle_gamma 90.00000

_symmetry_space_group_name_	'P 1'
_symmetry_space_group_name_H-M	'P 1'

loop_
_symmetry_equiv_pos_as_xyz
  x,y,z

loop_
_atom_site_label
_atom_site_type_symbol
_atom_site_fract_x
_atom_site_fract_y
_atom_site_fract_z
_atom_site_charge
Tb	Tb	0.50772 0.96952 0.50268 1.94500
Tb	Tb	0.00504 0.03048 0.49732 1.84500
H 	H 	0.29210 0.52700 0.10100 0.04700
H 	H 	0.31510 0.43390 0.03320 0.04500
H 	H 	0.89140 0.49570 0.11320 0.00800
H 	H 	0.91450 0.42900 0.17580 0.01100
H 	H 	0.38150 0.34600 0.13360 0.03300
H 	H 	0.36250 0.43390 0.20720 0.03700
H 	H 	0.95960 0.28670 0.07140 0.12200
H 	H 	0.89400 0.35250 0.00960 0.10900
H 	H 	0.59520 0.34120 0.25260 0.14500
H 	H 	0.79740 0.26110 0.33920 -0.00900
H 	H 	0.33700 0.12540 0.37080 -0.03900
H 	H 	0.13610 0.20580 0.28620 0.14900
H 	H 	0.26940 0.20870 0.86660 0.10200
H 	H 	0.12570 0.11670 0.73260 0.02000
H 	H 	0.61500 0.12780 0.79980 0.01800
H 	H 	0.75680 0.21980 0.93220 0.09000
H 	H 	0.71300 0.56330 0.20340 0.16100
H 	H 	0.56190 0.68420 0.28140 -0.03500
H 	H 	0.07920 0.78830 0.42820 -0.06100
H 	H 	0.23030 0.67550 0.34200 0.19300
H 	H 	0.19110 0.47300 0.89900 0.03000
H 	H 	0.28190 0.56610 0.96680 0.03200
H 	H 	0.77820 0.50430 0.88680 0.01100
H 	H 	0.73870 0.57100 0.82420 0.01000
H 	H 	0.24790 0.65400 0.86640 0.02400
H 	H 	0.15530 0.56610 0.79280 0.02200
H 	H 	0.88820 0.71330 0.92860 0.01000
H 	H 	0.88440 0.64750 0.99040 0.00100
H 	H 	0.34260 0.65880 0.74740 0.09800
H 	H 	0.45820 0.73890 0.66080 0.02800
H 	H 	0.96620 0.87460 0.62920 0.08000
H 	H 	0.84990 0.79420 0.71380 0.07400
H 	H 	0.40280 0.79130 0.13340 0.15600
H 	H 	0.39310 0.88330 0.26740 -0.03800
H 	H 	0.81520 0.87220 0.20020 -0.04500
H 	H 	0.82460 0.78020 0.06780 0.14600
H 	H 	0.50960 0.43670 0.79660 0.14500
H 	H 	0.28050 0.31580 0.71860 -0.03600
H 	H 	0.65100 0.21170 0.57180 -0.05900
H 	H 	0.88830 0.32450 0.65800 0.18400
C 	C 	0.12757 0.41300 0.10674 0.00100
C 	C 	0.22260 0.47140 0.06080 -0.00900
C 	C 	0.98450 0.46980 0.15240 0.13000
C 	C 	0.29200 0.37950 0.16560 0.02600
C 	C 	0.00580 0.32930 0.04220 -0.15600
C 	C 	0.34580 0.27680 0.25820 0.32100
C 	C 	0.54360 0.29700 0.27520 -0.30400
C 	C 	0.66400 0.24850 0.32760 0.19500
C 	C 	0.59280 0.18360 0.36240 -0.24600
C 	C 	0.38990 0.16780 0.34680 0.20900
C 	C 	0.26990 0.21550 0.29540 -0.31600
C 	C 	0.02480 0.22380 0.91140 0.16200
C 	C 	0.13710 0.19280 0.85280 -0.17000
C 	C 	0.05110 0.13750 0.77260 0.04100
C 	C 	0.85300 0.11370 0.75240 -0.12300
C 	C 	0.74710 0.14440 0.81280 0.08100
C 	C 	0.83140 0.19950 0.89220 -0.14100
C 	C 	0.75100 0.05950 0.66640 0.44300
C 	C 	0.98610 0.60860 0.26260 0.43400
C 	C 	0.78750 0.61020 0.24680 -0.36800
C 	C 	0.69610 0.68110 0.29500 0.22800
C 	C 	0.80700 0.74700 0.36300 -0.24200
C 	C 	0.00560 0.74460 0.38180 0.21800
C 	C 	0.09580 0.67610 0.33060 -0.40000
C 	C 	0.70820 0.82360 0.41220 0.45000
C 	C 	0.72850 0.13420 0.41600 0.46000
C 	C 	0.02083 0.58700 0.89326 -0.10800
C 	C 	0.16180 0.52860 0.93920 0.04400
C 	C 	0.83210 0.53020 0.84760 0.12200
C 	C 	0.12640 0.62050 0.83440 0.06500
C 	C 	0.96360 0.67070 0.95780 0.16800
C 	C 	0.08760 0.72320 0.74180 0.15900
C 	C 	0.26840 0.70300 0.72480 -0.17400
C 	C 	0.33640 0.75150 0.67240 0.06600
C 	C 	0.23040 0.81640 0.63760 -0.11600
C 	C 	0.04310 0.83220 0.65320 -0.06300
C 	C 	0.97450 0.78450 0.70460 -0.04600
C 	C 	0.11340 0.77620 0.08860 0.30300
C 	C 	0.28430 0.80720 0.14720 -0.31900
C 	C 	0.27850 0.86250 0.22740 0.23000
C 	C 	0.10060 0.88630 0.24760 -0.31500
C 	C 	0.93430 0.85560 0.18720 0.27300
C 	C 	0.93920 0.80050 0.10780 -0.30700
C 	C 	0.08460 0.94050 0.33360 0.46500
C 	C 	0.72350 0.39140 0.73740 0.33600
C 	C 	0.54070 0.38980 0.75320 -0.32600
C 	C 	0.40110 0.31890 0.70500 0.21500
C 	C 	0.44400 0.25300 0.63700 -0.27800
C 	C 	0.62380 0.25540 0.61820 0.24400
C 	C 	0.76520 0.32390 0.66940 -0.32700
C 	C 	0.29600 0.17640 0.58780 0.46000
C 	C 	0.31250 0.86580 0.58400 0.40700
O 	O 	0.83861 0.04090 0.60622 -0.54900
O 	O 	0.57930 0.03450 0.65340 -0.46000
O 	O 	0.90729 0.15670 0.43358 -0.42600
O 	O 	0.66538 0.06650 0.44156 -0.59300
O 	O 	0.80643 0.88940 0.47226 -0.56800
O 	O 	0.52735 0.82470 0.39730 -0.44800
O 	O 	0.21619 0.31790 0.20758 -0.26500
O 	O 	0.09013 0.54450 0.21826 -0.33100
O 	O 	0.12034 0.28000 0.98768 -0.18600
O 	O 	0.23239 0.95910 0.39378 -0.58200
O 	O 	0.92590 0.96550 0.34660 -0.43600
O 	O 	0.47371 0.84330 0.56642 -0.44400
O 	O 	0.22382 0.93350 0.55844 -0.59700
O 	O 	0.33417 0.11060 0.52774 -0.58300
O 	O 	0.13005 0.17530 0.60270 -0.46200
O 	O 	0.00861 0.68210 0.79242 -0.23900
O 	O 	0.87187 0.45550 0.78174 -0.25600
O 	O 	0.13266 0.72000 0.01232 -0.29500
O 	O 	0.08010 0.50000 1.00000 -0.19100
