data_crystal

_cell_length_a 13.47790
_cell_length_b 13.47790
_cell_length_c 11.10850
_cell_angle_alpha 93.04760
_cell_angle_beta  93.04760
_cell_angle_gamma 69.23250

_symmetry_space_group_name_	'P 1'
_symmetry_space_group_name_H-M	'P 1'

loop_
_symmetry_equiv_pos_as_xyz
  x,y,z

loop_
_atom_site_label
_atom_site_type_symbol
_atom_site_fract_x
_atom_site_fract_y
_atom_site_fract_z
_atom_site_charge
F 	F 	0.73100 0.52440 0.66290 -0.38000
N 	N 	0.27080 0.72540 0.81740 -0.19700
N 	N 	0.36090 0.82130 0.00670 -0.20300
C 	C 	0.31150 0.63690 0.75140 0.11200
C 	C 	0.31370 0.63590 0.62530 -0.09000
C 	C 	0.26790 0.72990 0.56690 0.09000
C 	C 	0.22500 0.81960 0.63680 -0.08500
C 	C 	0.22710 0.81650 0.75980 0.08900
C 	C 	0.44780 0.79780 0.94410 0.07900
C 	C 	0.50300 0.86740 0.93900 0.02700
C 	C 	0.47040 0.96180 0.00100 -0.07200
C 	C 	0.38210 0.98430 0.06890 0.09900
C 	C 	0.32920 0.91400 0.06890 0.00300
H 	H 	0.34080 0.57060 0.79230 0.04700
H 	H 	0.34760 0.56960 0.57900 0.16200
H 	H 	0.19000 0.88700 0.59750 0.10900
H 	H 	0.19530 0.88190 0.80760 0.09700
H 	H 	0.47200 0.73080 0.89890 0.09300
H 	H 	0.56590 0.84730 0.89110 0.10800
H 	H 	0.35490 0.05170 0.11460 0.00500
H 	H 	0.26670 0.93090 0.11530 0.10600
F 	F 	0.47560 0.26900 0.33710 -0.38900
N 	N 	0.27460 0.72920 0.18260 -0.21000
N 	N 	0.17870 0.63910 0.99330 -0.20100
C 	C 	0.36310 0.68850 0.24860 0.12100
C 	C 	0.36410 0.68630 0.37470 -0.09500
C 	C 	0.27010 0.73210 0.43310 0.09800
C 	C 	0.18040 0.77500 0.36320 -0.09500
C 	C 	0.18350 0.77290 0.24020 0.09600
C 	C 	0.20220 0.55220 0.05590 0.10300
C 	C 	0.13260 0.49700 0.06100 -0.22200
C 	C 	0.03820 0.52960 0.99900 0.23300
C 	C 	0.01570 0.61790 0.93110 -0.28100
C 	C 	0.08600 0.67080 0.93110 0.19100
H 	H 	0.42940 0.65920 0.20770 0.03300
H 	H 	0.43040 0.65240 0.42100 0.16600
H 	H 	0.11300 0.81000 0.40250 0.10100
H 	H 	0.11810 0.80470 0.19240 0.06600
H 	H 	0.26920 0.52800 0.10110 0.07200
H 	H 	0.15270 0.43410 0.10890 0.16700
H 	H 	0.94830 0.64510 0.88540 0.21500
H 	H 	0.06910 0.73330 0.88470 0.03000
F 	F 	0.26900 0.47560 0.33710 -0.38900
N 	N 	0.72920 0.27460 0.18260 -0.21000
N 	N 	0.63910 0.17870 0.99330 -0.20100
C 	C 	0.68850 0.36310 0.24860 0.12100
C 	C 	0.68630 0.36410 0.37470 -0.09500
C 	C 	0.73210 0.27010 0.43310 0.09800
C 	C 	0.77500 0.18040 0.36320 -0.09500
C 	C 	0.77290 0.18350 0.24020 0.09600
C 	C 	0.55220 0.20220 0.05590 0.10300
C 	C 	0.49700 0.13260 0.06100 -0.22200
C 	C 	0.52960 0.03820 0.99900 0.23300
C 	C 	0.61790 0.01570 0.93110 -0.28100
C 	C 	0.67080 0.08600 0.93110 0.19100
H 	H 	0.65920 0.42940 0.20770 0.03300
H 	H 	0.65240 0.43040 0.42100 0.16600
H 	H 	0.81000 0.11300 0.40250 0.10100
H 	H 	0.80470 0.11810 0.19240 0.06600
H 	H 	0.52800 0.26920 0.10110 0.07200
H 	H 	0.43410 0.15270 0.10890 0.16700
H 	H 	0.64510 0.94830 0.88540 0.21500
H 	H 	0.73330 0.06910 0.88470 0.03000
F 	F 	0.52440 0.73100 0.66290 -0.37900
N 	N 	0.72540 0.27080 0.81740 -0.19600
N 	N 	0.82130 0.36090 0.00670 -0.20200
C 	C 	0.63690 0.31150 0.75140 0.11300
C 	C 	0.63590 0.31370 0.62530 -0.09000
C 	C 	0.72990 0.26790 0.56690 0.09000
C 	C 	0.81960 0.22500 0.63680 -0.08500
C 	C 	0.81650 0.22710 0.75980 0.08900
C 	C 	0.79780 0.44780 0.94410 0.07900
C 	C 	0.86740 0.50300 0.93900 0.02700
C 	C 	0.96180 0.47040 0.00100 -0.07200
C 	C 	0.98430 0.38210 0.06890 0.09900
C 	C 	0.91400 0.32920 0.06890 0.00300
H 	H 	0.57060 0.34080 0.79230 0.04700
H 	H 	0.56960 0.34760 0.57900 0.16200
H 	H 	0.88700 0.19000 0.59750 0.10900
H 	H 	0.88190 0.19530 0.80760 0.09700
H 	H 	0.73080 0.47200 0.89890 0.09300
H 	H 	0.84730 0.56590 0.89110 0.10800
H 	H 	0.05170 0.35490 0.11460 0.00500
H 	H 	0.93090 0.26670 0.11530 0.10600
Cu	Cu	0.27775 0.72225 -0.00000 0.89800
F 	F 	0.10270 0.89730 -0.00000 -0.45600
O 	O 	0.42840 0.57160 -0.00000 -0.24400
Cu	Cu	0.72225 0.27775 -0.00000 0.89800
F 	F 	0.89730 0.10270 -0.00000 -0.45600
O 	O 	0.57160 0.42840 -0.00000 -0.24400
P 	P 	-0.00000 0.00000 -0.00000 1.09300
P 	P 	0.63160 0.63160 0.66000 1.17800
F 	F 	0.58210 0.58210 0.75750 -0.38400
F 	F 	0.58390 0.58390 0.55610 -0.41200
F 	F 	0.68200 0.68200 0.57090 -0.36600
F 	F 	0.67590 0.67590 0.77290 -0.40000
P 	P 	0.36840 0.36840 0.34000 1.18000
F 	F 	0.41790 0.41790 0.24250 -0.38900
F 	F 	0.41610 0.41610 0.44390 -0.41500
F 	F 	0.31800 0.31800 0.42910 -0.38600
F 	F 	0.32410 0.32410 0.22710 -0.41500
O 	O 	0.43410 0.43410 0.92750 -0.08300
N 	N 	0.48620 0.48620 0.98100 0.16200
F 	F 	0.97290 0.97290 0.11750 -0.34900
F 	F 	0.06310 0.06310 0.05700 -0.45300
F 	F 	0.02710 0.02710 0.88250 -0.43500
F 	F 	0.93690 0.93690 0.94300 -0.32200
