data_crystal

_cell_length_a 11.54000
_cell_length_b 11.54000
_cell_length_c 14.94300
_cell_angle_alpha 90.00000
_cell_angle_beta  90.00000
_cell_angle_gamma 90.00000

_symmetry_space_group_name_	'P 1'
_symmetry_space_group_name_H-M	'P 1'

loop_
_symmetry_equiv_pos_as_xyz
  x,y,z

loop_
_atom_site_label
_atom_site_type_symbol
_atom_site_fract_x
_atom_site_fract_y
_atom_site_fract_z
_atom_site_charge
N 	N 	0.92720 0.68960 0.92620 -0.17700
C 	C 	0.87630 0.71740 0.00470 0.06300
H 	H 	0.86530 0.65850 0.04840 -0.00300
C 	C 	0.83970 0.82910 0.02360 -0.11200
H 	H 	0.80570 0.84580 0.08010 0.05900
C 	C 	0.85220 0.91550 0.96170 0.03700
C 	C 	0.89820 0.88610 0.87810 -0.11400
H 	H 	0.90440 0.94230 0.83190 0.08000
C 	C 	0.93470 0.77260 0.86420 0.05600
H 	H 	0.96670 0.75310 0.80760 0.00600
C 	C 	0.81680 0.03770 0.98520 0.09700
C 	C 	0.75290 0.10660 0.91630 -0.46700
H 	H 	0.67360 0.12100 0.93690 0.14400
H 	H 	0.75080 0.06330 0.85990 0.13800
H 	H 	0.79250 0.18080 0.90690 0.16700
N 	N 	0.84460 0.07070 0.06340 -0.16800
C 	C 	0.81260 0.18560 0.09670 -0.06800
H 	H 	0.73400 0.20560 0.07510 0.04100
H 	H 	0.86740 0.24390 0.07280 0.05400
C 	C 	0.81440 0.18950 0.19780 -0.04100
H 	H 	0.79590 0.26880 0.21870 0.03200
H 	H 	0.75520 0.13590 0.22210 0.02400
N 	N 	0.92950 0.15560 0.23000 -0.19200
C 	C 	0.96240 0.18240 0.30850 0.23100
C 	C 	0.89410 0.24810 0.37680 -0.59000
H 	H 	0.89030 0.32990 0.35970 0.19500
H 	H 	0.93160 0.24100 0.43540 0.19900
H 	H 	0.81540 0.21630 0.38010 0.19500
C 	C 	0.08440 0.14820 0.33280 -0.10800
C 	C 	0.17140 0.16110 0.27000 -0.06200
H 	H 	0.15500 0.19620 0.21380 0.01900
C 	C 	0.28240 0.12290 0.28900 0.00600
H 	H 	0.34100 0.13250 0.24500 -0.00200
N 	N 	0.31040 0.07270 0.36720 -0.17500
C 	C 	0.22780 0.06440 0.42890 0.00700
H 	H 	0.24710 0.03170 0.48530 -0.01100
C 	C 	0.11360 0.10170 0.41470 -0.05600
H 	H 	0.05720 0.09490 0.46070 0.00400
N 	N 	0.07280 0.31040 0.92620 -0.18000
C 	C 	0.12370 0.28260 0.00470 0.01200
H 	H 	0.13470 0.34150 0.04840 -0.00100
C 	C 	0.16030 0.17090 0.02360 -0.05000
H 	H 	0.19430 0.15420 0.08010 0.01500
C 	C 	0.14780 0.08450 0.96170 -0.11500
C 	C 	0.10180 0.11390 0.87810 -0.05800
H 	H 	0.09560 0.05770 0.83190 0.00600
C 	C 	0.06530 0.22740 0.86420 0.00500
H 	H 	0.03330 0.24690 0.80760 -0.01000
C 	C 	0.18320 0.96230 0.98520 0.21600
C 	C 	0.24710 0.89340 0.91630 -0.57700
H 	H 	0.32640 0.87900 0.93690 0.18800
H 	H 	0.24920 0.93670 0.85990 0.19500
H 	H 	0.20750 0.81920 0.90690 0.18900
N 	N 	0.15540 0.92930 0.06340 -0.18200
C 	C 	0.18740 0.81440 0.09670 -0.04500
H 	H 	0.26600 0.79440 0.07510 0.03700
H 	H 	0.13260 0.75610 0.07280 0.02900
C 	C 	0.18560 0.81050 0.19780 -0.06400
H 	H 	0.20410 0.73120 0.21870 0.03700
H 	H 	0.24480 0.86410 0.22210 0.05100
N 	N 	0.07050 0.84440 0.23000 -0.17200
C 	C 	0.03760 0.81760 0.30850 0.10200
C 	C 	0.10590 0.75190 0.37680 -0.47100
H 	H 	0.10970 0.67010 0.35970 0.14500
H 	H 	0.06840 0.75900 0.43540 0.14100
H 	H 	0.18460 0.78370 0.38010 0.17000
C 	C 	0.91560 0.85180 0.33280 0.05500
C 	C 	0.82860 0.83890 0.27000 -0.13100
H 	H 	0.84500 0.80380 0.21380 0.06400
C 	C 	0.71760 0.87710 0.28900 0.06000
H 	H 	0.65900 0.86750 0.24500 -0.00300
N 	N 	0.68960 0.92730 0.36720 -0.17300
C 	C 	0.77220 0.93560 0.42890 0.06300
H 	H 	0.75290 0.96830 0.48530 0.00500
C 	C 	0.88640 0.89830 0.41470 -0.12200
H 	H 	0.94280 0.90510 0.46070 0.08300
N 	N 	0.42720 0.81040 0.42620 -0.16600
C 	C 	0.37630 0.78260 0.50470 0.03100
H 	H 	0.36530 0.84150 0.54840 0.00600
C 	C 	0.33970 0.67090 0.52360 -0.09600
H 	H 	0.30570 0.65420 0.58010 0.03700
C 	C 	0.35220 0.58450 0.46170 -0.02800
C 	C 	0.39820 0.61390 0.37810 -0.08900
H 	H 	0.40440 0.55770 0.33190 0.04400
C 	C 	0.43470 0.72740 0.36420 0.03400
H 	H 	0.46670 0.74690 0.30760 0.00100
C 	C 	0.31680 0.46230 0.48520 0.16000
C 	C 	0.25290 0.39340 0.41630 -0.51600
H 	H 	0.17360 0.37900 0.43690 0.15900
H 	H 	0.25080 0.43670 0.35990 0.16200
H 	H 	0.29250 0.31920 0.40690 0.17700
N 	N 	0.34460 0.42930 0.56340 -0.18800
C 	C 	0.31260 0.31440 0.59670 -0.05400
H 	H 	0.23400 0.29440 0.57510 0.02800
H 	H 	0.36740 0.25610 0.57280 0.03300
C 	C 	0.31440 0.31050 0.69780 -0.05500
H 	H 	0.29590 0.23120 0.71870 0.02800
H 	H 	0.25520 0.36410 0.72210 0.03300
N 	N 	0.42950 0.34440 0.73000 -0.18600
C 	C 	0.46240 0.31760 0.80850 0.15700
C 	C 	0.39410 0.25190 0.87680 -0.51100
H 	H 	0.39030 0.17010 0.85970 0.15500
H 	H 	0.43160 0.25900 0.93540 0.15900
H 	H 	0.31540 0.28370 0.88010 0.17400
C 	C 	0.58440 0.35180 0.83280 -0.02600
C 	C 	0.67140 0.33890 0.77000 -0.09800
H 	H 	0.65500 0.30380 0.71380 0.03800
C 	C 	0.78240 0.37710 0.78900 0.03400
H 	H 	0.84100 0.36750 0.74500 0.00400
N 	N 	0.81040 0.42730 0.86720 -0.16800
C 	C 	0.72780 0.43560 0.92890 0.03500
H 	H 	0.74710 0.46830 0.98530 -0.00300
C 	C 	0.61360 0.39830 0.91470 -0.09000
H 	H 	0.55720 0.40510 0.96070 0.04200
N 	N 	0.57280 0.18960 0.42620 -0.18100
C 	C 	0.62370 0.21740 0.50470 0.02900
H 	H 	0.63470 0.15850 0.54840 -0.01100
C 	C 	0.66030 0.32910 0.52360 -0.09700
H 	H 	0.69430 0.34580 0.58010 0.04000
C 	C 	0.64780 0.41550 0.46170 -0.02900
C 	C 	0.60180 0.38610 0.37810 -0.09000
H 	H 	0.59560 0.44230 0.33190 0.04500
C 	C 	0.56530 0.27260 0.36420 0.03300
H 	H 	0.53330 0.25310 0.30760 -0.00600
C 	C 	0.68320 0.53770 0.48520 0.17200
C 	C 	0.74710 0.60660 0.41630 -0.54400
H 	H 	0.82640 0.62100 0.43690 0.18300
H 	H 	0.74920 0.56330 0.35990 0.17600
H 	H 	0.70750 0.68080 0.40690 0.18600
N 	N 	0.65540 0.57070 0.56340 -0.18800
C 	C 	0.68740 0.68560 0.59670 -0.05500
H 	H 	0.76600 0.70560 0.57510 0.04100
H 	H 	0.63260 0.74390 0.57280 0.04100
C 	C 	0.68560 0.68950 0.69780 -0.05700
H 	H 	0.70410 0.76880 0.71870 0.04100
H 	H 	0.74480 0.63590 0.72210 0.04000
N 	N 	0.57050 0.65560 0.73000 -0.18600
C 	C 	0.53760 0.68240 0.80850 0.16900
C 	C 	0.60590 0.74810 0.87680 -0.53700
H 	H 	0.60970 0.82990 0.85970 0.17900
H 	H 	0.56840 0.74100 0.93540 0.17200
H 	H 	0.68460 0.71630 0.88010 0.18300
C 	C 	0.41560 0.64820 0.83280 -0.02700
C 	C 	0.32860 0.66110 0.77000 -0.10000
H 	H 	0.34500 0.69620 0.71380 0.04100
C 	C 	0.21760 0.62290 0.78900 0.03200
H 	H 	0.15900 0.63250 0.74500 -0.01300
N 	N 	0.18960 0.57270 0.86720 -0.18200
C 	C 	0.27220 0.56440 0.92890 0.03400
H 	H 	0.25290 0.53170 0.98530 -0.01000
C 	C 	0.38640 0.60170 0.91470 -0.09100
H 	H 	0.44280 0.59490 0.96070 0.04200
Ag	Ag	0.00000 0.00000 0.14600 0.50000
Ag	Ag	0.50000 0.50000 0.64600 0.54700
Ag	Ag	0.00000 0.50000 0.89600 0.49900
Ag	Ag	0.50000 0.00000 0.39600 0.50000
