data_crystal

_cell_length_a 9.16640
_cell_length_b 9.16640
_cell_length_c 14.96900
_cell_angle_alpha 79.96640
_cell_angle_beta  79.96670
_cell_angle_gamma 115.52900

_symmetry_space_group_name_	'P 1'
_symmetry_space_group_name_H-M	'P 1'

loop_
_symmetry_equiv_pos_as_xyz
  x,y,z

loop_
_atom_site_label
_atom_site_type_symbol
_atom_site_fract_x
_atom_site_fract_y
_atom_site_fract_z
_atom_site_charge
La	La	0.25916 0.50916 0.48168 1.61300
La	La	0.49084 0.74084 0.01832 1.61200
La	La	0.74084 0.49084 0.51832 1.61300
La	La	0.50916 0.25916 0.98168 1.61200
H 	H 	0.30800 0.86800 0.57000 0.06300
H 	H 	0.12200 0.06200 0.57000 0.06300
H 	H 	0.13200 0.69200 0.93000 0.06400
H 	H 	0.93800 0.87800 0.93000 0.06400
H 	H 	0.69200 0.13200 0.43000 0.06300
H 	H 	0.87800 0.93800 0.43000 0.06300
H 	H 	0.86800 0.30800 0.07000 0.06400
H 	H 	0.06200 0.12200 0.07000 0.06400
C 	C 	0.05917 0.75137 0.55826 0.35000
C 	C 	0.21284 0.89444 0.56432 -0.12100
C 	C 	0.38257 0.19037 0.55826 0.35100
C 	C 	0.22284 0.04124 0.56432 -0.12000
C 	C 	0.24863 0.94083 0.94174 0.35500
C 	C 	0.10556 0.78716 0.93568 -0.12400
C 	C 	0.80963 0.61743 0.94174 0.35100
C 	C 	0.95876 0.77716 0.93568 -0.11800
C 	C 	0.94083 0.24863 0.44174 0.35000
C 	C 	0.78716 0.10556 0.43568 -0.12100
C 	C 	0.61743 0.80963 0.44174 0.35100
C 	C 	0.77716 0.95876 0.43568 -0.12000
C 	C 	0.75137 0.05917 0.05826 0.35500
C 	C 	0.89444 0.21284 0.06432 -0.12400
C 	C 	0.19037 0.38257 0.05826 0.35100
C 	C 	0.04124 0.22284 0.06432 -0.11800
C 	C 	0.32460 0.67540 0.25000 0.24500
C 	C 	0.42540 0.57460 0.25000 0.24500
C 	C 	0.67540 0.32460 0.75000 0.24500
C 	C 	0.57460 0.42540 0.75000 0.24500
O 	O 	0.23841 0.66119 0.32840 -0.35700
O 	O 	0.07629 0.63451 0.53260 -0.48800
O 	O 	0.91780 0.74802 0.57558 -0.37700
O 	O 	0.43319 0.51041 0.32840 -0.35700
O 	O 	0.39111 0.33289 0.53260 -0.48800
O 	O 	0.50662 0.17640 0.57558 -0.37800
O 	O 	0.33881 0.76159 0.17160 -0.35800
O 	O 	0.36549 0.92371 0.96740 -0.48700
O 	O 	0.25198 0.08220 0.92442 -0.38100
O 	O 	0.48959 0.56681 0.17160 -0.35700
O 	O 	0.66711 0.60889 0.96740 -0.48700
O 	O 	0.82360 0.49338 0.92442 -0.37800
O 	O 	0.76159 0.33881 0.67160 -0.35700
O 	O 	0.92371 0.36549 0.46740 -0.48800
O 	O 	0.08220 0.25198 0.42442 -0.37700
O 	O 	0.56681 0.48959 0.67160 -0.35700
O 	O 	0.60889 0.66711 0.46740 -0.48800
O 	O 	0.49338 0.82360 0.42442 -0.37800
O 	O 	0.66119 0.23841 0.82840 -0.35800
O 	O 	0.63451 0.07629 0.03260 -0.48700
O 	O 	0.74802 0.91780 0.07558 -0.38100
O 	O 	0.51041 0.43319 0.82840 -0.35700
O 	O 	0.33289 0.39111 0.03260 -0.48700
O 	O 	0.17640 0.50662 0.07558 -0.37800
