data_crystal

_cell_length_a 6.17510
_cell_length_b 14.75080
_cell_length_c 17.14400
_cell_angle_alpha 98.64070
_cell_angle_beta  90.00000
_cell_angle_gamma 102.08200

_symmetry_space_group_name_	'P 1'
_symmetry_space_group_name_H-M	'P 1'

loop_
_symmetry_equiv_pos_as_xyz
  x,y,z

loop_
_atom_site_label
_atom_site_type_symbol
_atom_site_fract_x
_atom_site_fract_y
_atom_site_fract_z
_atom_site_charge
Zn	Zn	0.58053 0.00000 0.75000 1.18800
Zn	Zn	0.41947 0.00000 0.25000 1.18800
H 	H 	0.41440 0.63760 0.65140 0.03700
H 	H 	0.00160 0.82060 0.64620 0.05100
H 	H 	0.14910 0.70400 0.57060 0.07400
H 	H 	0.56280 0.52020 0.57820 0.07100
H 	H 	0.12710 0.89860 0.78850 -0.00900
H 	H 	0.57400 0.09220 0.91770 -0.02000
H 	H 	0.33710 0.09900 0.02090 0.12200
H 	H 	0.87800 0.90100 0.88660 0.11500
H 	H 	0.77680 0.36240 0.84860 0.03300
H 	H 	0.18100 0.17940 0.85380 0.03200
H 	H 	0.44510 0.29600 0.92940 0.07800
H 	H 	0.04260 0.47980 0.92180 0.07400
H 	H 	0.22850 0.10140 0.71150 0.02900
H 	H 	0.48180 0.90780 0.58230 0.01100
H 	H 	0.23810 0.90100 0.47910 0.01300
H 	H 	0.97700 0.09900 0.61340 0.01400
H 	H 	0.58560 0.36240 0.34860 0.03300
H 	H 	0.99840 0.17940 0.35380 0.03300
H 	H 	0.85090 0.29600 0.42940 0.07700
H 	H 	0.43720 0.47980 0.42180 0.07400
H 	H 	0.87290 0.10140 0.21150 0.02900
H 	H 	0.42600 0.90780 0.08230 0.01000
H 	H 	0.66290 0.90100 0.97910 0.01300
H 	H 	0.12200 0.09900 0.11340 0.01400
H 	H 	0.22320 0.63760 0.15140 0.03600
H 	H 	0.81900 0.82060 0.14620 0.04900
H 	H 	0.55490 0.70400 0.07060 0.07500
H 	H 	0.95740 0.52020 0.07820 0.07100
H 	H 	0.77150 0.89860 0.28850 -0.01000
H 	H 	0.51820 0.09220 0.41770 -0.02000
H 	H 	0.76190 0.09900 0.52090 0.12400
H 	H 	0.02300 0.90100 0.38660 0.11700
C 	C 	0.59714 0.81848 0.69990 0.31700
C 	C 	0.69613 0.74106 0.65540 -0.08900
C 	C 	0.56339 0.65078 0.63520 0.02600
C 	C 	0.91201 0.75962 0.63180 0.03000
C 	C 	0.00051 0.69002 0.58710 -0.10000
C 	C 	0.65175 0.58150 0.59160 -0.10500
C 	C 	0.87159 0.60038 0.56670 0.06400
C 	C 	0.96053 0.52906 0.51970 -0.02500
C 	C 	0.16959 0.93998 0.83650 0.14900
C 	C 	0.43049 0.05258 0.91170 0.08000
C 	C 	0.28982 0.05684 0.97360 -0.30300
C 	C 	0.02110 0.94060 0.89470 -0.23700
C 	C 	0.07871 0.99982 0.96710 0.29500
C 	C 	0.77866 0.18152 0.80010 0.33000
C 	C 	0.95507 0.25894 0.84460 -0.10500
C 	C 	0.91261 0.34922 0.86480 0.03600
C 	C 	0.15239 0.24038 0.86820 0.04600
C 	C 	0.31049 0.30998 0.91290 -0.11400
C 	C 	0.07025 0.41850 0.90840 -0.11400
C 	C 	0.27121 0.39962 0.93330 0.07300
C 	C 	0.43147 0.47094 0.98030 -0.02900
C 	C 	0.22961 0.06002 0.66350 -0.01500
C 	C 	0.37791 0.94742 0.58830 0.06100
C 	C 	0.23298 0.94316 0.52640 0.06600
C 	C 	0.08050 0.05940 0.60530 0.00400
C 	C 	0.07889 0.00018 0.53290 -0.20400
C 	C 	0.40286 0.18152 0.30010 0.33000
C 	C 	0.30387 0.25894 0.34460 -0.10500
C 	C 	0.43661 0.34922 0.36480 0.03600
C 	C 	0.08799 0.24038 0.36820 0.04400
C 	C 	0.99949 0.30998 0.41290 -0.11200
C 	C 	0.34825 0.41850 0.40840 -0.11400
C 	C 	0.12841 0.39962 0.43330 0.07200
C 	C 	0.03947 0.47094 0.48030 -0.02900
C 	C 	0.83041 0.06002 0.16350 -0.01500
C 	C 	0.56951 0.94742 0.08830 0.06200
C 	C 	0.71018 0.94316 0.02640 0.06300
C 	C 	0.97890 0.05940 0.10530 0.00400
C 	C 	0.92129 0.00018 0.03290 -0.20100
C 	C 	0.22134 0.81848 0.19990 0.31800
C 	C 	0.04493 0.74106 0.15540 -0.09100
C 	C 	0.08739 0.65078 0.13520 0.02600
C 	C 	0.84761 0.75962 0.13180 0.03400
C 	C 	0.68951 0.69002 0.08710 -0.10300
C 	C 	0.92975 0.58150 0.09160 -0.10600
C 	C 	0.72879 0.60038 0.06670 0.06600
C 	C 	0.56853 0.52906 0.01970 -0.02500
C 	C 	0.77039 0.93998 0.33650 0.15100
C 	C 	0.62209 0.05258 0.41170 0.08100
C 	C 	0.76702 0.05684 0.47360 -0.30600
C 	C 	0.91950 0.94060 0.39470 -0.24100
C 	C 	0.92111 0.99982 0.46710 0.29800
N 	N 	0.37448 0.99516 0.84330 -0.23900
N 	N 	0.37932 0.00484 0.65670 -0.28000
N 	N 	0.62552 0.00484 0.15670 -0.28000
N 	N 	0.62068 0.99516 0.34330 -0.23900
O 	O 	0.73098 0.89896 0.71438 -0.42500
O 	O 	0.40106 0.80372 0.71659 -0.30900
O 	O 	0.83202 0.10104 0.78562 -0.47400
O 	O 	0.59734 0.19628 0.78341 -0.32300
O 	O 	0.26902 0.10104 0.28562 -0.47400
O 	O 	0.59894 0.19628 0.28341 -0.32300
O 	O 	0.16798 0.89896 0.21438 -0.42500
O 	O 	0.40266 0.80372 0.21659 -0.30900
