data_crystal

_cell_length_a 14.08280
_cell_length_b 21.45180
_cell_length_c 28.25180
_cell_angle_alpha 90.00000
_cell_angle_beta  90.00000
_cell_angle_gamma 93.56000

_symmetry_space_group_name_	'P 1'
_symmetry_space_group_name_H-M	'P 1'

loop_
_symmetry_equiv_pos_as_xyz
  x,y,z

loop_
_atom_site_label
_atom_site_type_symbol
_atom_site_fract_x
_atom_site_fract_y
_atom_site_fract_z
_atom_site_charge
Zn	Zn	0.89093 0.74522 0.30998 1.21500
Zn	Zn	0.10358 0.75466 0.31025 1.21800
Zn	Zn	0.10907 0.25478 0.80998 1.21700
Zn	Zn	0.89642 0.24534 0.81025 1.21800
H 	H 	0.13640 0.64250 0.42810 0.08600
H 	H 	0.84840 0.61070 0.42950 0.05000
H 	H 	0.86190 0.55670 0.49970 0.06700
H 	H 	0.86650 0.43300 0.62040 0.06400
H 	H 	0.85900 0.36240 0.68500 0.05500
H 	H 	0.14280 0.40000 0.70700 0.08200
H 	H 	0.14400 0.88530 0.43060 0.04800
H 	H 	0.85690 0.86010 0.42710 0.08500
H 	H 	0.13450 0.94700 0.49710 0.06700
H 	H 	0.13340 0.07910 0.61320 0.07100
H 	H 	0.85840 0.09920 0.70690 0.08200
H 	H 	0.14200 0.13970 0.68180 0.04800
H 	H 	0.73780 0.79250 0.24860 0.01300
H 	H 	0.72820 0.70710 0.37290 0.01000
H 	H 	0.57620 0.79650 0.24820 0.09600
H 	H 	0.56450 0.71510 0.37730 0.08200
H 	H 	0.42190 0.71250 0.24850 0.11400
H 	H 	0.42640 0.79790 0.37680 0.09300
H 	H 	0.26420 0.79770 0.37160 -0.00000
H 	H 	0.25900 0.71130 0.25090 0.00100
H 	H 	0.86360 0.35750 0.92810 0.05100
H 	H 	0.15160 0.38930 0.92950 0.01000
H 	H 	0.13810 0.44330 0.99970 0.10600
H 	H 	0.13350 0.56700 0.12040 0.06000
H 	H 	0.14100 0.63760 0.18500 0.05700
H 	H 	0.85720 0.60000 0.20700 0.08400
H 	H 	0.85600 0.11470 0.93060 0.00600
H 	H 	0.14310 0.13990 0.92710 0.04800
H 	H 	0.86550 0.05300 0.99710 0.11000
H 	H 	0.86660 0.92090 0.11320 0.06700
H 	H 	0.14160 0.90080 0.20690 0.08400
H 	H 	0.85800 0.86030 0.18180 0.05000
H 	H 	0.26220 0.20750 0.74860 0.01400
H 	H 	0.27180 0.29290 0.87290 0.00800
H 	H 	0.42380 0.20350 0.74820 0.09600
H 	H 	0.43550 0.28490 0.87730 0.07700
H 	H 	0.57810 0.28750 0.74850 0.11400
H 	H 	0.57360 0.20210 0.87680 0.08800
H 	H 	0.73580 0.20230 0.87160 -0.00200
H 	H 	0.74100 0.28870 0.75090 0.00100
C 	C 	0.00550 0.16800 0.74280 0.38200
C 	C 	0.98420 0.67130 0.37760 0.39000
C 	C 	0.99200 0.63260 0.42280 -0.06100
C 	C 	0.08040 0.62560 0.44330 -0.06300
C 	C 	0.90900 0.60620 0.44350 0.00200
C 	C 	0.08730 0.59360 0.48640 0.10600
C 	C 	0.91830 0.57360 0.48480 -0.06200
C 	C 	0.00290 0.56370 0.50590 -0.00100
C 	C 	0.00840 0.52770 0.54890 0.01400
C 	C 	0.00980 0.49450 0.58220 0.01800
C 	C 	0.00970 0.45560 0.62190 -0.00700
C 	C 	0.09130 0.44450 0.64700 0.10500
C 	C 	0.92310 0.42540 0.63710 -0.05600
C 	C 	0.91740 0.38410 0.67650 -0.00700
C 	C 	0.08690 0.40550 0.68910 -0.06000
C 	C 	0.00110 0.37650 0.70270 -0.06100
C 	C 	0.99930 0.33130 0.74390 0.37700
C 	C 	0.00670 0.82970 0.37820 0.37800
C 	C 	0.00160 0.86850 0.42200 -0.06700
C 	C 	0.08360 0.89300 0.44350 0.00800
C 	C 	0.91360 0.87710 0.44160 -0.05600
C 	C 	0.91000 0.91190 0.48380 0.10200
C 	C 	0.07770 0.92860 0.48340 -0.06500
C 	C 	0.99360 0.93840 0.50400 0.00400
C 	C 	0.98720 0.97750 0.54700 0.01300
C 	C 	0.98640 0.01030 0.57940 0.02400
C 	C 	0.99170 0.04980 0.62080 0.00400
C 	C 	0.07880 0.08230 0.63250 -0.06600
C 	C 	0.91150 0.05700 0.64990 0.10800
C 	C 	0.91410 0.09440 0.68860 -0.06100
C 	C 	0.08280 0.11910 0.67320 0.01500
C 	C 	0.00430 0.12710 0.70150 -0.08000
C 	C 	0.70140 0.77570 0.27440 0.07400
C 	C 	0.69600 0.72620 0.34780 0.07500
C 	C 	0.60570 0.77790 0.27450 -0.10700
C 	C 	0.59800 0.72950 0.34980 -0.10400
C 	C 	0.54740 0.75370 0.31170 0.05200
C 	C 	0.44420 0.75660 0.31180 0.08700
C 	C 	0.39110 0.73040 0.27470 -0.14400
C 	C 	0.39410 0.78110 0.34970 -0.14300
C 	C 	0.29820 0.77980 0.34640 0.10400
C 	C 	0.29470 0.73040 0.27610 0.10800
C 	C 	0.99450 0.83200 0.24280 0.38000
C 	C 	0.01580 0.32870 0.87760 0.41400
C 	C 	0.00800 0.36740 0.92280 -0.13500
C 	C 	0.91960 0.37440 0.94330 0.02500
C 	C 	0.09100 0.39380 0.94350 0.10800
C 	C 	0.91270 0.40640 0.98640 -0.04200
C 	C 	0.08170 0.42640 0.98480 -0.23800
C 	C 	0.99710 0.43630 0.00590 0.19000
C 	C 	0.99160 0.47230 0.04890 -0.04700
C 	C 	0.99020 0.50550 0.08220 0.06500
C 	C 	0.99030 0.54440 0.12190 -0.03000
C 	C 	0.90870 0.55550 0.14700 0.11400
C 	C 	0.07690 0.57460 0.13710 -0.04200
C 	C 	0.08260 0.61590 0.17650 -0.01400
C 	C 	0.91310 0.59450 0.18910 -0.06500
C 	C 	0.99890 0.62350 0.20270 -0.05700
C 	C 	0.00070 0.66870 0.24390 0.37600
C 	C 	0.99330 0.17030 0.87820 0.40500
C 	C 	0.99840 0.13150 0.92200 -0.15000
C 	C 	0.91640 0.10700 0.94350 0.12500
C 	C 	0.08640 0.12290 0.94160 0.03800
C 	C 	0.09000 0.08810 0.98380 -0.04900
C 	C 	0.92230 0.07140 0.98340 -0.24900
C 	C 	0.00640 0.06160 0.00400 0.19800
C 	C 	0.01280 0.02250 0.04700 -0.04000
C 	C 	0.01360 0.98970 0.07940 0.06300
C 	C 	0.00830 0.95020 0.12080 -0.01400
C 	C 	0.92120 0.91770 0.13250 -0.05500
C 	C 	0.08850 0.94300 0.14990 0.11500
C 	C 	0.08590 0.90560 0.18860 -0.06600
C 	C 	0.91720 0.88090 0.17320 0.00900
C 	C 	0.99570 0.87290 0.20150 -0.07700
C 	C 	0.29860 0.22430 0.77440 0.07400
C 	C 	0.30400 0.27380 0.84780 0.07300
C 	C 	0.39430 0.22210 0.77450 -0.10700
C 	C 	0.40200 0.27050 0.84980 -0.10400
C 	C 	0.45260 0.24630 0.81170 0.05100
C 	C 	0.55580 0.24340 0.81180 0.08600
C 	C 	0.60890 0.26960 0.77470 -0.14300
C 	C 	0.60590 0.21890 0.84970 -0.14300
C 	C 	0.70180 0.22020 0.84640 0.10200
C 	C 	0.70530 0.26960 0.77610 0.10800
Br	Br	0.20603 0.58627 0.51412 -0.21700
Br	Br	0.20835 0.48189 0.63012 -0.19800
Br	Br	0.79009 0.92056 0.51268 -0.22100
Br	Br	0.79503 0.01405 0.63309 -0.21400
Br	Br	0.79397 0.41373 0.01412 -0.13500
Br	Br	0.79165 0.51811 0.13012 -0.19200
Br	Br	0.20991 0.07944 0.01268 -0.14400
Br	Br	0.20497 0.98595 0.13309 -0.21500
N 	N 	0.74490 0.74960 0.31130 -0.24200
N 	N 	0.24900 0.75560 0.31080 -0.26000
N 	N 	0.25510 0.25040 0.81130 -0.24100
N 	N 	0.75100 0.24440 0.81080 -0.26000
O 	O 	0.90610 0.68680 0.36440 -0.46800
O 	O 	0.06280 0.68710 0.35800 -0.46200
O 	O 	0.91980 0.30560 0.75499 -0.45400
O 	O 	0.07720 0.32340 0.76331 -0.46300
O 	O 	0.92960 0.81550 0.35730 -0.45000
O 	O 	0.08710 0.81460 0.36476 -0.44900
O 	O 	0.92970 0.17730 0.76428 -0.46500
O 	O 	0.08570 0.19430 0.75454 -0.44600
O 	O 	0.09390 0.31320 0.86440 -0.47600
O 	O 	0.93720 0.31290 0.85800 -0.46900
O 	O 	0.08020 0.69440 0.25499 -0.45400
O 	O 	0.92280 0.67660 0.26331 -0.46400
O 	O 	0.07040 0.18450 0.85730 -0.45800
O 	O 	0.91290 0.18540 0.86476 -0.45800
O 	O 	0.07030 0.82270 0.26428 -0.46400
O 	O 	0.91430 0.80570 0.25454 -0.44600
Zn	Zn	0.20437 0.11308 0.48463 1.21500
Zn	Zn	0.41647 0.12150 0.48594 1.21900
Zn	Zn	0.20096 0.60978 0.98657 1.20000
Zn	Zn	0.41216 0.62354 0.98463 1.20500
H 	H 	0.57000 0.06160 0.53800 0.00500
H 	H 	0.73090 0.05710 0.54170 0.13200
H 	H 	0.87130 0.05940 0.43110 0.08200
H 	H 	0.88610 0.17840 0.54210 0.08000
H 	H 	0.05220 0.17420 0.53950 0.00800
H 	H 	0.03600 0.05520 0.43250 0.01400
H 	H 	0.45360 0.98640 0.59760 0.07200
H 	H 	0.16670 0.96770 0.58870 0.08700
H 	H 	0.44670 0.92910 0.66880 0.08300
H 	H 	0.16030 0.78010 0.79170 0.07100
H 	H 	0.16080 0.72230 0.86070 0.04500
H 	H 	0.44730 0.76000 0.87130 0.09000
H 	H 	0.44730 0.27430 0.58620 0.08400
H 	H 	0.17340 0.22590 0.61350 0.04300
H 	H 	0.17760 0.28570 0.68070 0.06200
H 	H 	0.16880 0.41840 0.79830 0.06800
H 	H 	0.16030 0.47890 0.86720 0.05000
H 	H 	0.45160 0.49020 0.87600 0.09700
H 	H 	0.43540 0.79030 0.07730 0.09300
H 	H 	0.17390 0.72120 0.11300 0.05000
H 	H 	0.17980 0.78200 0.18220 0.05900
H 	H 	0.17150 0.91360 0.30010 0.06900
H 	H 	0.16810 0.97190 0.37100 0.05000
H 	H 	0.44750 0.02170 0.35920 0.09600
H 	H 	0.45980 0.50720 0.10670 0.11100
H 	H 	0.17940 0.45640 0.09200 0.05200
H 	H 	0.19070 0.38500 0.15140 0.06900
H 	H 	0.22870 0.23960 0.27040 0.07100
H 	H 	0.21470 0.18910 0.34350 0.05100
H 	H 	0.43470 0.29890 0.39360 0.08000
H 	H 	0.55410 0.53330 0.96070 0.00800
H 	H 	0.58470 0.71050 0.99810 -0.01400
H 	H 	0.74720 0.70790 0.99520 0.07500
H 	H 	0.72070 0.52810 0.95570 0.09100
H 	H 	0.87890 0.67210 0.03980 0.06300
H 	H 	0.86960 0.54840 0.93140 0.06900
H 	H 	0.03600 0.54930 0.93420 0.01300
H 	H 	0.04350 0.66950 0.04060 0.01100
H 	H 	0.58810 0.20290 0.46090 0.00200
H 	H 	0.74730 0.20570 0.46400 0.09900
C 	C 	0.60650 0.08680 0.51620 0.13800
C 	C 	0.70310 0.08330 0.51920 -0.17800
C 	C 	0.75650 0.11860 0.48910 0.10700
C 	C 	0.86390 0.11940 0.49000 0.04600
C 	C 	0.90840 0.08220 0.45400 -0.10300
C 	C 	0.91490 0.15290 0.51940 -0.11700
C 	C 	0.01490 0.15060 0.51710 0.07000
C 	C 	0.00580 0.08140 0.45430 0.06000
C 	C 	0.31170 0.03170 0.54930 0.35400
C 	C 	0.30810 0.98590 0.59070 -0.03900
C 	C 	0.39440 0.97190 0.61110 -0.00500
C 	C 	0.22310 0.96010 0.60560 -0.07800
C 	C 	0.21920 0.92380 0.64430 0.11300
C 	C 	0.39020 0.93620 0.65180 -0.03800
C 	C 	0.30170 0.91060 0.66800 -0.00100
C 	C 	0.30020 0.87030 0.71080 0.03200
C 	C 	0.30120 0.84330 0.74790 0.02400
C 	C 	0.30010 0.80690 0.79010 0.00600
C 	C 	0.21870 0.77660 0.80810 -0.05900
C 	C 	0.38570 0.80190 0.81540 0.11100
C 	C 	0.21870 0.74140 0.84890 0.01100
C 	C 	0.38870 0.76480 0.85550 -0.05500
C 	C 	0.30330 0.73400 0.87270 -0.07300
C 	C 	0.30550 0.69580 0.91520 0.37300
C 	C 	0.30930 0.19810 0.55230 0.38400
C 	C 	0.31110 0.24260 0.59430 -0.06100
C 	C 	0.39260 0.27660 0.60560 -0.05800
C 	C 	0.23120 0.24810 0.62220 0.00400
C 	C 	0.23270 0.28410 0.66150 -0.06100
C 	C 	0.39610 0.31470 0.64560 0.10900
C 	C 	0.31740 0.31950 0.67360 -0.00100
C 	C 	0.32020 0.35770 0.71620 0.02200
C 	C 	0.31900 0.38640 0.75190 0.02200
C 	C 	0.31590 0.42120 0.79490 0.00200
C 	C 	0.39970 0.44380 0.82000 0.12100
C 	C 	0.22540 0.43400 0.81370 -0.05800
C 	C 	0.22040 0.46960 0.85470 0.00300
C 	C 	0.39480 0.47690 0.85990 -0.06700
C 	C 	0.30620 0.49230 0.87820 -0.05800
C 	C 	0.30230 0.53410 0.92090 0.39300
C 	C 	0.30510 0.70220 0.04950 0.36400
C 	C 	0.30670 0.74720 0.09040 -0.04200
C 	C 	0.38430 0.78780 0.09930 -0.07500
C 	C 	0.22950 0.74680 0.12010 -0.00900
C 	C 	0.23230 0.78410 0.16110 -0.05300
C 	C 	0.38970 0.82390 0.13810 0.11600
C 	C 	0.31230 0.82460 0.17100 -0.00200
C 	C 	0.31690 0.86160 0.21240 0.01700
C 	C 	0.31870 0.89300 0.24650 0.02000
C 	C 	0.31560 0.93070 0.28820 0.00000
C 	C 	0.39360 0.96440 0.30750 0.10900
C 	C 	0.22800 0.93460 0.31200 -0.06100
C 	C 	0.22640 0.97090 0.35420 0.00500
C 	C 	0.39140 0.00000 0.34770 -0.05900
C 	C 	0.30300 0.00380 0.37170 -0.06200
C 	C 	0.30090 0.03970 0.41600 0.36600
C 	C 	0.31400 0.53610 0.05200 0.39400
C 	C 	0.31750 0.48920 0.09170 -0.05400
C 	C 	0.40450 0.48260 0.11600 -0.05900
C 	C 	0.23890 0.45250 0.10720 0.00600
C 	C 	0.24440 0.41160 0.14290 -0.05300
C 	C 	0.40950 0.44240 0.15190 0.10800
C 	C 	0.33340 0.40870 0.16840 0.00200
C 	C 	0.33380 0.36810 0.20990 0.02500
C 	C 	0.33860 0.33820 0.24550 0.02700
C 	C 	0.33530 0.30440 0.28820 0.00500
C 	C 	0.39800 0.32040 0.32650 0.11100
C 	C 	0.26960 0.25320 0.29560 -0.05000
C 	C 	0.26290 0.22160 0.33890 0.00700
C 	C 	0.39220 0.28720 0.36860 -0.06000
C 	C 	0.32650 0.23750 0.37520 -0.05800
C 	C 	0.32350 0.19990 0.41930 0.36600
C 	C 	0.59460 0.56860 0.96900 0.08000
C 	C 	0.61230 0.67220 0.99110 0.09200
C 	C 	0.70870 0.67040 0.99050 -0.15100
C 	C 	0.69360 0.56450 0.96740 -0.13000
C 	C 	0.75100 0.61550 0.98330 0.08800
C 	C 	0.85830 0.61320 0.98530 -0.02200
C 	C 	0.90980 0.64720 0.01750 -0.02900
C 	C 	0.90460 0.57420 0.95340 -0.08500
C 	C 	0.00400 0.57500 0.95550 0.04900
C 	C 	0.00780 0.64550 0.01780 0.07800
C 	C 	0.61700 0.16740 0.47310 0.10700
C 	C 	0.71130 0.16910 0.47390 -0.16500
Br	Br	0.09647 0.89236 0.66789 -0.22000
Br	Br	0.49873 0.83947 0.79198 -0.22200
Br	Br	0.51300 0.35930 0.66106 -0.22000
Br	Br	0.51846 0.42432 0.79519 -0.21000
Br	Br	0.49852 0.87879 0.14892 -0.22800
Br	Br	0.51312 0.96111 0.27550 -0.21100
Br	Br	0.53312 0.45222 0.18897 -0.15600
Br	Br	0.48821 0.38792 0.32027 -0.21100
N 	N 	0.06050 0.11720 0.48510 -0.24500
N 	N 	0.55910 0.11930 0.48810 -0.26900
N 	N 	0.55600 0.62190 0.98200 -0.25800
N 	N 	0.05560 0.60980 0.98580 -0.26600
O 	O 	0.23100 0.04930 0.53457 -0.45200
O 	O 	0.39110 0.05020 0.53240 -0.43800
O 	O 	0.22840 0.67720 0.93559 -0.46100
O 	O 	0.38640 0.68330 0.93020 -0.44900
O 	O 	0.22900 0.17900 0.53744 -0.45800
O 	O 	0.38750 0.18260 0.53779 -0.46200
O 	O 	0.22000 0.54680 0.93412 -0.46100
O 	O 	0.37730 0.55150 0.94007 -0.47800
O 	O 	0.22720 0.67580 0.03827 -0.44000
O 	O 	0.38530 0.69470 0.03031 -0.41600
O 	O 	0.21900 0.04770 0.43302 -0.44000
O 	O 	0.37910 0.06340 0.43159 -0.45300
O 	O 	0.23370 0.54300 0.03520 -0.44200
O 	O 	0.38990 0.56290 0.03920 -0.43200
O 	O 	0.24490 0.17630 0.43396 -0.46300
O 	O 	0.40370 0.19340 0.43819 -0.43300
Zn	Zn	0.79563 0.88692 0.98463 1.20200
Zn	Zn	0.58353 0.87850 0.98594 1.20500
Zn	Zn	0.79904 0.39022 0.48657 1.21300
Zn	Zn	0.58784 0.37646 0.48463 1.21700
H 	H 	0.43000 0.93840 0.03800 -0.00200
H 	H 	0.26910 0.94290 0.04170 0.12000
H 	H 	0.12870 0.94060 0.93110 0.07100
H 	H 	0.11390 0.82160 0.04210 0.06300
H 	H 	0.94780 0.82580 0.03950 0.00700
H 	H 	0.96400 0.94480 0.93250 0.01700
H 	H 	0.54640 0.01360 0.09760 0.07700
H 	H 	0.83330 0.03230 0.08870 0.09400
H 	H 	0.55330 0.07090 0.16880 0.08300
H 	H 	0.83970 0.21990 0.29170 0.07200
H 	H 	0.83920 0.27770 0.36070 0.04700
H 	H 	0.55270 0.24000 0.37130 0.09000
H 	H 	0.55270 0.72570 0.08620 0.09100
H 	H 	0.82660 0.77410 0.11350 0.04500
H 	H 	0.82240 0.71430 0.18070 0.06100
H 	H 	0.83120 0.58160 0.29830 0.06800
H 	H 	0.83970 0.52110 0.36720 0.05100
H 	H 	0.54840 0.50980 0.37600 0.09900
H 	H 	0.56460 0.20970 0.57730 0.08600
H 	H 	0.82610 0.27880 0.61300 0.04700
H 	H 	0.82020 0.21800 0.68220 0.06000
H 	H 	0.82850 0.08640 0.80010 0.07200
H 	H 	0.83190 0.02810 0.87100 0.04700
H 	H 	0.55250 0.97830 0.85920 0.08800
H 	H 	0.54020 0.49280 0.60670 0.10500
H 	H 	0.82060 0.54360 0.59200 0.04500
H 	H 	0.80930 0.61500 0.65140 0.06800
H 	H 	0.77130 0.76040 0.77040 0.07000
H 	H 	0.78530 0.81090 0.84350 0.05100
H 	H 	0.56530 0.70110 0.89360 0.08000
H 	H 	0.44590 0.46670 0.46070 0.01700
H 	H 	0.41530 0.28950 0.49810 0.00200
H 	H 	0.25280 0.29210 0.49520 0.08400
H 	H 	0.27930 0.47190 0.45570 0.09300
H 	H 	0.12110 0.32790 0.53980 0.07900
H 	H 	0.13040 0.45160 0.43140 0.08100
H 	H 	0.96400 0.45070 0.43420 0.00800
H 	H 	0.95650 0.33050 0.54060 0.01000
H 	H 	0.41190 0.79710 0.96090 0.00300
H 	H 	0.25270 0.79430 0.96400 0.08700
C 	C 	0.39350 0.91320 0.01620 0.17800
C 	C 	0.29690 0.91670 0.01920 -0.12100
C 	C 	0.24350 0.88140 0.98910 0.05900
C 	C 	0.13610 0.88060 0.99000 -0.02400
C 	C 	0.09160 0.91780 0.95400 -0.08400
C 	C 	0.08510 0.84710 0.01940 -0.03800
C 	C 	0.98510 0.84940 0.01710 0.09400
C 	C 	0.99420 0.91860 0.95430 0.03600
C 	C 	0.68830 0.96830 0.04930 0.34700
C 	C 	0.69190 0.01410 0.09070 -0.02800
C 	C 	0.60560 0.02810 0.11110 -0.00800
C 	C 	0.77690 0.03990 0.10560 -0.08200
C 	C 	0.78080 0.07620 0.14430 0.11800
C 	C 	0.60980 0.06380 0.15180 -0.03300
C 	C 	0.69830 0.08940 0.16800 -0.00200
C 	C 	0.69980 0.12970 0.21080 0.03400
C 	C 	0.69880 0.15670 0.24790 0.02500
C 	C 	0.69990 0.19310 0.29010 0.00600
C 	C 	0.78130 0.22340 0.30810 -0.05800
C 	C 	0.61430 0.19810 0.31540 0.11200
C 	C 	0.78130 0.25860 0.34890 0.01000
C 	C 	0.61130 0.23520 0.35550 -0.05500
C 	C 	0.69670 0.26600 0.37270 -0.07200
C 	C 	0.69450 0.30420 0.41520 0.37200
C 	C 	0.69070 0.80190 0.05230 0.38300
C 	C 	0.68890 0.75740 0.09430 -0.05100
C 	C 	0.60740 0.72340 0.10560 -0.06000
C 	C 	0.76880 0.75190 0.12220 0.00100
C 	C 	0.76730 0.71590 0.16150 -0.05700
C 	C 	0.60390 0.68530 0.14560 0.11300
C 	C 	0.68260 0.68050 0.17360 -0.00200
C 	C 	0.67980 0.64230 0.21620 0.02300
C 	C 	0.68100 0.61360 0.25190 0.02100
C 	C 	0.68410 0.57880 0.29490 0.00200
C 	C 	0.60030 0.55620 0.32000 0.12200
C 	C 	0.77460 0.56600 0.31370 -0.05700
C 	C 	0.77960 0.53040 0.35470 0.00200
C 	C 	0.60520 0.52310 0.35990 -0.06800
C 	C 	0.69380 0.50770 0.37820 -0.05600
C 	C 	0.69770 0.46590 0.42090 0.39300
C 	C 	0.69490 0.29780 0.54950 0.36800
C 	C 	0.69330 0.25280 0.59040 -0.05100
C 	C 	0.61570 0.21220 0.59930 -0.07100
C 	C 	0.77050 0.25320 0.62010 -0.00500
C 	C 	0.76770 0.21590 0.66110 -0.05600
C 	C 	0.61030 0.17610 0.63810 0.11300
C 	C 	0.68770 0.17540 0.67100 -0.00100
C 	C 	0.68310 0.13840 0.71240 0.01800
C 	C 	0.68130 0.10700 0.74650 0.01800
C 	C 	0.68440 0.06930 0.78820 0.00500
C 	C 	0.60640 0.03560 0.80750 0.10300
C 	C 	0.77200 0.06540 0.81200 -0.06900
C 	C 	0.77360 0.02910 0.85420 0.01900
C 	C 	0.60860 0.00000 0.84770 -0.04600
C 	C 	0.69700 0.99620 0.87170 -0.07900
C 	C 	0.69910 0.96030 0.91600 0.37000
C 	C 	0.68600 0.46390 0.55200 0.39900
C 	C 	0.68250 0.51080 0.59170 -0.06400
C 	C 	0.59550 0.51740 0.61600 -0.05500
C 	C 	0.76110 0.54750 0.60720 0.00900
C 	C 	0.75560 0.58840 0.64290 -0.05800
C 	C 	0.59050 0.55760 0.65190 0.10300
C 	C 	0.66660 0.59130 0.66840 0.00400
C 	C 	0.66620 0.63190 0.70990 0.02300
C 	C 	0.66140 0.66180 0.74550 0.02700
C 	C 	0.66470 0.69560 0.78820 0.00500
C 	C 	0.60200 0.67960 0.82650 0.11100
C 	C 	0.73040 0.74680 0.79560 -0.05000
C 	C 	0.73710 0.77840 0.83890 0.00700
C 	C 	0.60780 0.71280 0.86860 -0.05900
C 	C 	0.67350 0.76250 0.87520 -0.05900
C 	C 	0.67650 0.80010 0.91930 0.36800
C 	C 	0.40540 0.43140 0.46900 0.08100
C 	C 	0.38770 0.32780 0.49110 0.09100
C 	C 	0.29130 0.32960 0.49050 -0.13000
C 	C 	0.30640 0.43550 0.46740 -0.11200
C 	C 	0.24900 0.38450 0.48330 0.07100
C 	C 	0.14170 0.38680 0.48530 0.06000
C 	C 	0.09020 0.35280 0.51750 -0.11400
C 	C 	0.09540 0.42580 0.45340 -0.11300
C 	C 	0.99600 0.42500 0.45550 0.07600
C 	C 	0.99220 0.35450 0.51780 0.06100
C 	C 	0.38300 0.83260 0.97310 0.08300
C 	C 	0.28870 0.83090 0.97390 -0.15500
Br	Br	0.90353 0.10764 0.16789 -0.21400
Br	Br	0.50127 0.16053 0.29198 -0.22000
Br	Br	0.48700 0.64070 0.16106 -0.21900
Br	Br	0.48154 0.57568 0.29519 -0.20800
Br	Br	0.50148 0.12121 0.64892 -0.22700
Br	Br	0.48688 0.03889 0.77550 -0.20900
Br	Br	0.46688 0.54778 0.68897 -0.15900
Br	Br	0.51179 0.61208 0.82027 -0.21100
N 	N 	0.93950 0.88280 0.98510 -0.27000
N 	N 	0.44090 0.88070 0.98810 -0.29900
N 	N 	0.44400 0.37810 0.48200 -0.24800
N 	N 	0.94440 0.39020 0.48580 -0.24400
O 	O 	0.76900 0.95070 0.03457 -0.43100
O 	O 	0.60890 0.94980 0.03240 -0.41700
O 	O 	0.77160 0.32280 0.43559 -0.45100
O 	O 	0.61360 0.31670 0.43020 -0.44100
O 	O 	0.77100 0.82100 0.03744 -0.43600
O 	O 	0.61250 0.81740 0.03779 -0.43900
O 	O 	0.78000 0.45320 0.43412 -0.45300
O 	O 	0.62270 0.44850 0.44007 -0.46800
O 	O 	0.77280 0.32420 0.53827 -0.46000
O 	O 	0.61470 0.30530 0.53031 -0.44300
O 	O 	0.78100 0.95230 0.93302 -0.45100
O 	O 	0.62090 0.93660 0.93159 -0.46500
O 	O 	0.76630 0.45700 0.53520 -0.46500
O 	O 	0.61010 0.43710 0.53920 -0.45600
O 	O 	0.75510 0.82370 0.93396 -0.47200
O 	O 	0.59630 0.80660 0.93819 -0.44000
