data_crystal

_cell_length_a 9.45260
_cell_length_b 24.34060
_cell_length_c 24.84700
_cell_angle_alpha 91.87700
_cell_angle_beta  90.00000
_cell_angle_gamma 90.00000

_symmetry_space_group_name_	'P 1'
_symmetry_space_group_name_H-M	'P 1'

loop_
_symmetry_equiv_pos_as_xyz
  x,y,z

loop_
_atom_site_label
_atom_site_type_symbol
_atom_site_fract_x
_atom_site_fract_y
_atom_site_fract_z
_atom_site_charge
Co	Co	0.04557 0.26288 0.67944 1.09800
Co	Co	0.25970 0.48431 0.71488 1.10200
Co	Co	0.76462 0.46921 0.85810 1.10000
Co	Co	0.66747 0.16012 0.51687 1.09900
Co	Co	0.46415 0.71489 0.68106 1.09900
Co	Co	0.54557 0.23712 0.82056 1.09800
Co	Co	0.75970 0.01569 0.78512 1.10100
Co	Co	0.26462 0.03079 0.64190 1.09900
Co	Co	0.16747 0.33988 0.98313 1.09800
Co	Co	0.96415 0.78511 0.81894 1.09800
Co	Co	0.95443 0.73712 0.32056 1.09700
Co	Co	0.74030 0.51569 0.28512 1.10100
Co	Co	0.23538 0.53079 0.14190 1.10000
Co	Co	0.33253 0.83988 0.48313 1.09900
Co	Co	0.53585 0.28511 0.31894 1.09900
Co	Co	0.45443 0.76288 0.17944 1.09800
Co	Co	0.24030 0.98431 0.21488 1.10100
Co	Co	0.73538 0.96921 0.35810 1.09900
Co	Co	0.83253 0.66012 0.01687 1.09800
Co	Co	0.03585 0.21489 0.18106 1.09800
H 	H 	0.78140 0.35300 0.68020 0.00100
H 	H 	0.57270 0.34250 0.73850 -0.00200
H 	H 	0.83370 0.21890 0.76480 -0.04500
H 	H 	0.29980 0.30930 0.60370 -0.00000
H 	H 	0.38670 0.40550 0.61390 -0.00200
H 	H 	0.05750 0.38880 0.70870 -0.05300
H 	H 	0.99140 0.57010 0.70500 0.00400
H 	H 	0.78650 0.56710 0.76740 -0.00300
H 	H 	0.05680 0.45200 0.80710 -0.04900
H 	H 	0.25260 0.54020 0.59970 0.00600
H 	H 	0.37730 0.63200 0.58610 -0.00400
H 	H 	0.36950 0.60440 0.73950 -0.06100
H 	H 	0.34670 0.15760 0.68070 0.00200
H 	H 	0.51770 0.21220 0.63170 0.00100
H 	H 	0.45810 0.07080 0.55120 -0.05300
H 	H 	0.86580 0.97310 0.47690 -0.00500
H 	H 	0.83700 0.05210 0.54140 -0.00200
H 	H 	0.63570 0.08550 0.40760 -0.05000
H 	H 	0.48890 0.39090 0.87110 0.00300
H 	H 	0.27770 0.39770 0.81140 -0.00500
H 	H 	0.56310 0.50600 0.76700 -0.05400
H 	H 	0.39420 0.23240 0.50600 -0.00300
H 	H 	0.33650 0.28770 0.42530 -0.00100
H 	H 	0.69330 0.20760 0.39890 -0.05800
H 	H 	0.01160 0.15650 0.50150 -0.00700
H 	H 	0.17650 0.19820 0.56870 0.00800
H 	H 	0.78320 0.22280 0.61930 -0.05100
H 	H 	0.42900 0.83510 0.73630 -0.00300
H 	H 	0.22790 0.86350 0.79300 0.00300
H 	H 	0.16270 0.71010 0.74070 -0.04900
H 	H 	0.28140 0.14700 0.81980 0.00000
H 	H 	0.07270 0.15750 0.76150 -0.00300
H 	H 	0.33370 0.28110 0.73520 -0.04600
H 	H 	0.79980 0.19070 0.89630 0.00000
H 	H 	0.88670 0.09450 0.88610 -0.00200
H 	H 	0.55750 0.11120 0.79130 -0.05200
H 	H 	0.49140 0.92990 0.79500 0.00400
H 	H 	0.28650 0.93290 0.73260 -0.00300
H 	H 	0.55680 0.04800 0.69290 -0.04900
H 	H 	0.75260 0.95980 0.90030 0.00600
H 	H 	0.87730 0.86800 0.91390 -0.00400
H 	H 	0.86950 0.89560 0.76050 -0.06200
H 	H 	0.84670 0.34240 0.81930 0.00400
H 	H 	0.01770 0.28780 0.86830 -0.00300
H 	H 	0.95810 0.42920 0.94880 -0.05300
H 	H 	0.36580 0.52690 0.02310 -0.00400
H 	H 	0.33700 0.44790 0.95860 -0.00200
H 	H 	0.13570 0.41450 0.09240 -0.05000
H 	H 	0.98890 0.10910 0.62890 0.00300
H 	H 	0.77770 0.10230 0.68860 -0.00500
H 	H 	0.06310 0.99400 0.73300 -0.05100
H 	H 	0.89420 0.26760 0.99400 -0.00300
H 	H 	0.83650 0.21230 0.07470 -0.00100
H 	H 	0.19330 0.29240 0.10110 -0.05800
H 	H 	0.51160 0.34350 0.99850 -0.00300
H 	H 	0.67650 0.30180 0.93130 0.00500
H 	H 	0.28320 0.27720 0.88070 -0.05100
H 	H 	0.92900 0.66490 0.76370 -0.00300
H 	H 	0.72790 0.63650 0.70700 0.00300
H 	H 	0.66270 0.78990 0.75930 -0.04900
H 	H 	0.21860 0.64700 0.31980 0.00100
H 	H 	0.42730 0.65750 0.26150 -0.00200
H 	H 	0.16630 0.78110 0.23520 -0.04500
H 	H 	0.70020 0.69070 0.39630 -0.00000
H 	H 	0.61330 0.59450 0.38610 -0.00200
H 	H 	0.94250 0.61120 0.29130 -0.05300
H 	H 	0.00860 0.42990 0.29500 0.00400
H 	H 	0.21350 0.43290 0.23260 -0.00300
H 	H 	0.94320 0.54800 0.19290 -0.04900
H 	H 	0.74740 0.45980 0.40030 0.00600
H 	H 	0.62270 0.36800 0.41390 -0.00400
H 	H 	0.63050 0.39560 0.26050 -0.06100
H 	H 	0.65330 0.84240 0.31930 0.00200
H 	H 	0.48230 0.78780 0.36830 0.00100
H 	H 	0.54190 0.92920 0.44880 -0.05300
H 	H 	0.13420 0.02690 0.52310 -0.00500
H 	H 	0.16300 0.94790 0.45860 -0.00200
H 	H 	0.36430 0.91450 0.59240 -0.05000
H 	H 	0.51110 0.60910 0.12890 0.00300
H 	H 	0.72230 0.60230 0.18860 -0.00500
H 	H 	0.43690 0.49400 0.23300 -0.05400
H 	H 	0.60580 0.76760 0.49400 -0.00300
H 	H 	0.66350 0.71230 0.57470 -0.00100
H 	H 	0.30670 0.79240 0.60110 -0.05800
H 	H 	0.98840 0.84350 0.49850 -0.00700
H 	H 	0.82350 0.80180 0.43130 0.00800
H 	H 	0.21680 0.77720 0.38070 -0.05100
H 	H 	0.57100 0.16490 0.26370 -0.00300
H 	H 	0.77210 0.13650 0.20700 0.00300
H 	H 	0.83730 0.28990 0.25930 -0.04900
H 	H 	0.71860 0.85300 0.18020 0.00000
H 	H 	0.92730 0.84250 0.23850 -0.00300
H 	H 	0.66630 0.71890 0.26480 -0.04600
H 	H 	0.20020 0.80930 0.10370 0.00000
H 	H 	0.11330 0.90550 0.11390 -0.00200
H 	H 	0.44250 0.88880 0.20870 -0.05200
H 	H 	0.50860 0.07010 0.20500 0.00400
H 	H 	0.71350 0.06710 0.26740 -0.00300
H 	H 	0.44320 0.95200 0.30710 -0.04900
H 	H 	0.24740 0.04020 0.09970 0.00600
H 	H 	0.12270 0.13200 0.08610 -0.00400
H 	H 	0.13050 0.10440 0.23950 -0.06200
H 	H 	0.15330 0.65760 0.18070 0.00400
H 	H 	0.98230 0.71220 0.13170 -0.00300
H 	H 	0.04190 0.57080 0.05120 -0.05300
H 	H 	0.63420 0.47310 0.97690 -0.00400
H 	H 	0.66300 0.55210 0.04140 -0.00200
H 	H 	0.86430 0.58550 0.90760 -0.05000
H 	H 	0.01110 0.89090 0.37110 0.00300
H 	H 	0.22230 0.89770 0.31140 -0.00500
H 	H 	0.93690 0.00600 0.26700 -0.05100
H 	H 	0.10580 0.73240 0.00600 -0.00300
H 	H 	0.16350 0.78770 0.92530 -0.00100
H 	H 	0.80670 0.70760 0.89890 -0.05800
H 	H 	0.48840 0.65650 0.00150 -0.00300
H 	H 	0.32350 0.69820 0.06870 0.00500
H 	H 	0.71680 0.72280 0.11930 -0.05100
H 	H 	0.07100 0.33510 0.23630 -0.00300
H 	H 	0.27210 0.36350 0.29300 0.00300
H 	H 	0.33730 0.21010 0.24070 -0.04900
C 	C 	0.76710 0.32460 0.70490 -0.01800
C 	C 	0.65210 0.31850 0.73690 -0.00200
C 	C 	0.79510 0.25160 0.75100 0.06400
C 	C 	0.26050 0.33710 0.62690 -0.01000
C 	C 	0.30860 0.39050 0.63250 -0.00400
C 	C 	0.13080 0.38060 0.68350 0.07200
C 	C 	0.98050 0.54570 0.73370 -0.01900
C 	C 	0.86650 0.54350 0.76800 0.00200
C 	C 	0.01460 0.48170 0.78900 0.07400
C 	C 	0.30300 0.56190 0.62560 -0.03900
C 	C 	0.36500 0.61480 0.61950 0.00100
C 	C 	0.36970 0.59790 0.70160 0.09800
C 	C 	0.39130 0.14670 0.64780 -0.02000
C 	C 	0.48530 0.17660 0.62110 -0.01300
C 	C 	0.45190 0.09970 0.57770 0.08300
C 	C 	0.81520 0.00590 0.47010 -0.00300
C 	C 	0.79850 0.04950 0.50610 -0.01200
C 	C 	0.69070 0.06690 0.43340 0.07800
C 	C 	0.47870 0.41500 0.84210 -0.02400
C 	C 	0.36170 0.41890 0.80900 -0.00800
C 	C 	0.51810 0.47720 0.78540 0.08000
C 	C 	0.44950 0.23420 0.47420 -0.00700
C 	C 	0.41610 0.26440 0.42910 -0.01300
C 	C 	0.60930 0.22100 0.41570 0.08700
C 	C 	0.98480 0.17570 0.53390 0.00300
C 	C 	0.07620 0.19800 0.57110 -0.02600
C 	C 	0.86200 0.21140 0.59790 0.07400
C 	C 	0.34960 0.81280 0.74410 -0.00800
C 	C 	0.23930 0.82840 0.77570 -0.02100
C 	C 	0.20470 0.74510 0.74700 0.07500
C 	C 	0.26710 0.17540 0.79510 -0.01800
C 	C 	0.15210 0.18150 0.76310 -0.00200
C 	C 	0.29510 0.24840 0.74900 0.06400
C 	C 	0.76050 0.16290 0.87310 -0.01000
C 	C 	0.80860 0.10950 0.86750 -0.00400
C 	C 	0.63080 0.11940 0.81650 0.07200
C 	C 	0.48050 0.95430 0.76630 -0.02000
C 	C 	0.36650 0.95650 0.73200 0.00200
C 	C 	0.51460 0.01830 0.71100 0.07300
C 	C 	0.80300 0.93810 0.87440 -0.03900
C 	C 	0.86500 0.88520 0.88050 0.00100
C 	C 	0.86970 0.90210 0.79840 0.09800
C 	C 	0.89130 0.35330 0.85220 -0.02300
C 	C 	0.98530 0.32340 0.87890 -0.00500
C 	C 	0.95190 0.40030 0.92230 0.08500
C 	C 	0.31520 0.49410 0.02990 -0.00400
C 	C 	0.29850 0.45050 0.99390 -0.01300
C 	C 	0.19070 0.43310 0.06660 0.07800
C 	C 	0.97870 0.08500 0.65790 -0.02200
C 	C 	0.86170 0.08110 0.69100 -0.00900
C 	C 	0.01810 0.02280 0.71460 0.07500
C 	C 	0.94950 0.26580 0.02580 -0.00600
C 	C 	0.91610 0.23560 0.07090 -0.01300
C 	C 	0.10930 0.27900 0.08430 0.08700
C 	C 	0.48480 0.32430 0.96610 -0.00600
C 	C 	0.57620 0.30200 0.92890 -0.01800
C 	C 	0.36200 0.28860 0.90210 0.07400
C 	C 	0.84960 0.68720 0.75590 -0.00800
C 	C 	0.73930 0.67160 0.72430 -0.02100
C 	C 	0.70470 0.75490 0.75300 0.07500
C 	C 	0.23290 0.67540 0.29510 -0.01800
C 	C 	0.34790 0.68150 0.26310 -0.00200
C 	C 	0.20490 0.74840 0.24900 0.06400
C 	C 	0.73950 0.66290 0.37310 -0.01000
C 	C 	0.69140 0.60950 0.36750 -0.00400
C 	C 	0.86920 0.61940 0.31650 0.07200
C 	C 	0.01950 0.45430 0.26630 -0.01900
C 	C 	0.13350 0.45650 0.23200 0.00200
C 	C 	0.98540 0.51830 0.21100 0.07400
C 	C 	0.69700 0.43810 0.37440 -0.03900
C 	C 	0.63500 0.38520 0.38050 0.00100
C 	C 	0.63030 0.40210 0.29840 0.09800
C 	C 	0.60870 0.85330 0.35220 -0.02000
C 	C 	0.51470 0.82340 0.37890 -0.01300
C 	C 	0.54810 0.90030 0.42230 0.08300
C 	C 	0.18480 0.99410 0.52990 -0.00300
C 	C 	0.20150 0.95050 0.49390 -0.01200
C 	C 	0.30930 0.93310 0.56660 0.07800
C 	C 	0.52130 0.58500 0.15790 -0.02400
C 	C 	0.63830 0.58110 0.19100 -0.00800
C 	C 	0.48190 0.52280 0.21460 0.08000
C 	C 	0.55050 0.76580 0.52580 -0.00700
C 	C 	0.58390 0.73560 0.57090 -0.01300
C 	C 	0.39070 0.77900 0.58430 0.08700
C 	C 	0.01520 0.82430 0.46610 0.00300
C 	C 	0.92380 0.80200 0.42890 -0.02600
C 	C 	0.13800 0.78860 0.40210 0.07400
C 	C 	0.65040 0.18720 0.25590 -0.00800
C 	C 	0.76070 0.17160 0.22430 -0.02100
C 	C 	0.79530 0.25490 0.25300 0.07500
C 	C 	0.73290 0.82460 0.20490 -0.01800
C 	C 	0.84790 0.81850 0.23690 -0.00200
C 	C 	0.70490 0.75160 0.25100 0.06400
C 	C 	0.23950 0.83710 0.12690 -0.01000
C 	C 	0.19140 0.89050 0.13250 -0.00400
C 	C 	0.36920 0.88060 0.18350 0.07200
C 	C 	0.51950 0.04570 0.23370 -0.02000
C 	C 	0.63350 0.04350 0.26800 0.00200
C 	C 	0.48540 0.98170 0.28900 0.07300
C 	C 	0.19700 0.06190 0.12560 -0.03900
C 	C 	0.13500 0.11480 0.11950 0.00100
C 	C 	0.13030 0.09790 0.20160 0.09800
C 	C 	0.10870 0.64670 0.14780 -0.02300
C 	C 	0.01470 0.67660 0.12110 -0.00500
C 	C 	0.04810 0.59970 0.07770 0.08500
C 	C 	0.68480 0.50590 0.97010 -0.00400
C 	C 	0.70150 0.54950 0.00610 -0.01300
C 	C 	0.80930 0.56690 0.93340 0.07800
C 	C 	0.02130 0.91500 0.34210 -0.02200
C 	C 	0.13830 0.91890 0.30900 -0.00900
C 	C 	0.98190 0.97720 0.28540 0.07500
C 	C 	0.05050 0.73420 0.97420 -0.00600
C 	C 	0.08390 0.76440 0.92910 -0.01300
C 	C 	0.89070 0.72100 0.91570 0.08700
C 	C 	0.51520 0.67570 0.03390 -0.00600
C 	C 	0.42380 0.69800 0.07110 -0.01800
C 	C 	0.63800 0.71140 0.09790 0.07400
C 	C 	0.15040 0.31280 0.24410 -0.00800
C 	C 	0.26070 0.32840 0.27570 -0.02100
C 	C 	0.29530 0.24510 0.24700 0.07500
N 	N 	0.85980 0.28210 0.71440 -0.26600
N 	N 	0.66840 0.27310 0.76610 -0.27100
N 	N 	0.14760 0.33080 0.66000 -0.27400
N 	N 	0.22600 0.41790 0.66870 -0.27600
N 	N 	0.07590 0.50610 0.74840 -0.27200
N 	N 	0.88670 0.50250 0.80240 -0.27500
N 	N 	0.33520 0.54930 0.67970 -0.27900
N 	N 	0.40450 0.63700 0.66790 -0.28000
N 	N 	0.36930 0.09730 0.61970 -0.27400
N 	N 	0.52790 0.14640 0.57490 -0.27300
N 	N 	0.74850 0.01680 0.42370 -0.27900
N 	N 	0.71820 0.08790 0.48270 -0.27400
N 	N 	0.57750 0.45220 0.82560 -0.27700
N 	N 	0.38720 0.45840 0.77230 -0.27600
N 	N 	0.57210 0.20830 0.46510 -0.28200
N 	N 	0.51840 0.25420 0.39140 -0.27800
N 	N 	0.84880 0.18520 0.55030 -0.27700
N 	N 	0.99610 0.22030 0.61300 -0.27300
N 	N 	0.32940 0.75980 0.72520 -0.27700
N 	N 	0.14570 0.78480 0.77870 -0.27400
N 	N 	0.35980 0.21790 0.78560 -0.26600
N 	N 	0.16840 0.22690 0.73390 -0.27100
N 	N 	0.64760 0.16920 0.84000 -0.27300
N 	N 	0.72600 0.08210 0.83130 -0.27600
N 	N 	0.57590 0.99390 0.75160 -0.27100
N 	N 	0.38670 0.99750 0.69760 -0.27400
N 	N 	0.83520 0.95070 0.82030 -0.27900
N 	N 	0.90450 0.86300 0.83210 -0.28100
N 	N 	0.86930 0.40270 0.88030 -0.27300
N 	N 	0.02790 0.35360 0.92510 -0.27600
N 	N 	0.24850 0.48320 0.07630 -0.27900
N 	N 	0.21820 0.41210 0.01730 -0.27400
N 	N 	0.07750 0.04780 0.67440 -0.27700
N 	N 	0.88720 0.04160 0.72770 -0.27400
N 	N 	0.07210 0.29170 0.03490 -0.28200
N 	N 	0.01840 0.24580 0.10860 -0.27900
N 	N 	0.34880 0.31480 0.94970 -0.27600
N 	N 	0.49610 0.27970 0.88700 -0.27500
N 	N 	0.82940 0.74020 0.77480 -0.27700
N 	N 	0.64570 0.71520 0.72130 -0.27400
N 	N 	0.14020 0.71790 0.28560 -0.26600
N 	N 	0.33160 0.72690 0.23390 -0.27100
N 	N 	0.85240 0.66920 0.34000 -0.27400
N 	N 	0.77400 0.58210 0.33130 -0.27600
N 	N 	0.92410 0.49390 0.25160 -0.27200
N 	N 	0.11330 0.49750 0.19760 -0.27500
N 	N 	0.66480 0.45070 0.32030 -0.27900
N 	N 	0.59550 0.36300 0.33210 -0.28000
N 	N 	0.63070 0.90270 0.38030 -0.27400
N 	N 	0.47210 0.85360 0.42510 -0.27300
N 	N 	0.25150 0.98320 0.57630 -0.27900
N 	N 	0.28180 0.91210 0.51730 -0.27400
N 	N 	0.42250 0.54780 0.17440 -0.27700
N 	N 	0.61280 0.54160 0.22770 -0.27600
N 	N 	0.42790 0.79170 0.53490 -0.28200
N 	N 	0.48160 0.74580 0.60860 -0.27800
N 	N 	0.15120 0.81480 0.44970 -0.27700
N 	N 	0.00390 0.77970 0.38700 -0.27300
N 	N 	0.67060 0.24020 0.27480 -0.27700
N 	N 	0.85430 0.21520 0.22130 -0.27400
N 	N 	0.64020 0.78210 0.21440 -0.26600
N 	N 	0.83160 0.77310 0.26610 -0.27100
N 	N 	0.35240 0.83080 0.16000 -0.27300
N 	N 	0.27400 0.91790 0.16870 -0.27600
N 	N 	0.42410 0.00610 0.24840 -0.27100
N 	N 	0.61330 0.00250 0.30240 -0.27400
N 	N 	0.16480 0.04930 0.17970 -0.27900
N 	N 	0.09550 0.13700 0.16790 -0.28100
N 	N 	0.13070 0.59730 0.11970 -0.27300
N 	N 	0.97210 0.64640 0.07490 -0.27600
N 	N 	0.75150 0.51680 0.92370 -0.27900
N 	N 	0.78180 0.58790 0.98270 -0.27400
N 	N 	0.92250 0.95220 0.32560 -0.27700
N 	N 	0.11280 0.95840 0.27230 -0.27400
N 	N 	0.92790 0.70830 0.96510 -0.28200
N 	N 	0.98160 0.75420 0.89140 -0.27900
N 	N 	0.65120 0.68520 0.05030 -0.27600
N 	N 	0.50390 0.72030 0.11300 -0.27500
N 	N 	0.17060 0.25980 0.22520 -0.27700
N 	N 	0.35430 0.28480 0.27870 -0.27400
