data_crystal

_cell_length_a 8.65500
_cell_length_b 14.10500
_cell_length_c 15.10560
_cell_angle_alpha 115.14400
_cell_angle_beta  106.64700
_cell_angle_gamma 90.00000

_symmetry_space_group_name_	'P 1'
_symmetry_space_group_name_H-M	'P 1'

loop_
_symmetry_equiv_pos_as_xyz
  x,y,z

loop_
_atom_site_label
_atom_site_type_symbol
_atom_site_fract_x
_atom_site_fract_y
_atom_site_fract_z
_atom_site_charge
Eu	Eu	0.50507 0.00551 0.54554 2.05200
Eu	Eu	0.95953 0.99449 0.45446 1.97600
H 	H 	0.44520 0.80160 0.66460 -0.02000
H 	H 	0.44970 0.64640 0.68960 0.07200
H 	H 	0.97720 0.55920 0.53180 0.03500
H 	H 	0.96440 0.71950 0.52400 -0.05100
H 	H 	0.42140 0.53110 0.74640 0.07100
H 	H 	0.45740 0.36260 0.73600 0.01600
H 	H 	0.06650 0.23340 0.48520 -0.02300
H 	H 	0.04750 0.39490 0.48000 0.09400
H 	H 	0.39640 0.71600 0.22800 -0.04200
H 	H 	0.33230 0.56800 0.06680 0.11600
H 	H 	0.85870 0.58060 0.05280 0.17400
H 	H 	0.94090 0.71540 0.21800 -0.14100
H 	H 	0.78060 0.19840 0.33540 -0.02400
H 	H 	0.76010 0.35360 0.31040 0.07100
H 	H 	0.44540 0.44080 0.46820 0.08700
H 	H 	0.44040 0.28050 0.47600 0.00100
H 	H 	0.67500 0.46890 0.25360 0.06600
H 	H 	0.72140 0.63740 0.26400 0.01600
H 	H 	0.58130 0.76660 0.51480 -0.03500
H 	H 	0.56750 0.60510 0.52000 0.07600
H 	H 	0.16840 0.28400 0.77200 -0.02600
H 	H 	0.26550 0.43200 0.93320 0.09400
H 	H 	0.80590 0.41940 0.94720 0.10500
H 	H 	0.72290 0.28460 0.78200 -0.02800
C 	C 	0.19980 0.87240 0.57460 0.51900
C 	C 	0.20160 0.77200 0.58940 -0.22200
C 	C 	0.35120 0.75390 0.63960 0.10100
C 	C 	0.35370 0.65820 0.65100 -0.14700
C 	C 	0.21960 0.58400 0.60660 0.05100
C 	C 	0.07160 0.60740 0.55920 -0.10200
C 	C 	0.06460 0.70280 0.55320 0.17000
C 	C 	0.22850 0.47840 0.61100 0.06400
C 	C 	0.35420 0.47120 0.69200 -0.13400
C 	C 	0.37220 0.37020 0.68640 0.06700
C 	C 	0.26860 0.28280 0.60940 -0.15500
C 	C 	0.14170 0.29230 0.53460 0.10000
C 	C 	0.12690 0.38970 0.53360 -0.15200
C 	C 	0.30880 0.17310 0.59840 0.40900
C 	C 	0.22180 0.83360 0.33280 0.59700
C 	C 	0.17550 0.73580 0.23540 -0.40200
C 	C 	0.28760 0.68740 0.19220 0.25200
C 	C 	0.25210 0.59620 0.09620 -0.26400
C 	C 	0.07920 0.54910 0.04640 0.21100
C 	C 	0.96920 0.60220 0.08880 -0.46400
C 	C 	0.01880 0.68870 0.18580 0.44500
C 	C 	0.62520 0.12760 0.42540 0.51100
C 	C 	0.61220 0.22800 0.41060 -0.20900
C 	C 	0.71160 0.24610 0.36040 0.09300
C 	C 	0.70270 0.34180 0.34900 -0.15800
C 	C 	0.61300 0.41600 0.39340 0.07000
C 	C 	0.51240 0.39260 0.44080 -0.16000
C 	C 	0.51140 0.29720 0.44680 0.11000
C 	C 	0.61750 0.52160 0.38900 0.04600
C 	C 	0.66220 0.52880 0.30800 -0.12800
C 	C 	0.68580 0.62980 0.31360 0.06000
C 	C 	0.65920 0.71720 0.39060 -0.15700
C 	C 	0.60710 0.70770 0.46540 0.09200
C 	C 	0.59330 0.61030 0.46640 -0.14700
C 	C 	0.71040 0.82690 0.40160 0.40800
C 	C 	0.88900 0.16640 0.66720 0.56800
C 	C 	0.94010 0.26420 0.76460 -0.34200
C 	C 	0.09540 0.31260 0.80780 0.22500
C 	C 	0.15590 0.40380 0.90380 -0.19400
C 	C 	0.03280 0.45090 0.95360 0.09600
C 	C 	0.88040 0.39780 0.91120 -0.25300
C 	C 	0.83300 0.31130 0.81420 0.19600
O 	O 	0.32870 0.91780 0.58300 -0.58400
O 	O 	0.06040 0.90190 0.55380 -0.47100
O 	O 	0.22950 0.09400 0.51920 -0.56000
O 	O 	0.43470 0.16910 0.66400 -0.45200
O 	O 	0.36760 0.87160 0.37800 -0.54400
O 	O 	0.10620 0.87680 0.36160 -0.54700
O 	O 	0.74570 0.08220 0.41700 -0.58600
O 	O 	0.50660 0.09810 0.44620 -0.50500
O 	O 	0.71030 0.90600 0.48080 -0.57300
O 	O 	0.77070 0.83090 0.33600 -0.45200
O 	O 	0.98960 0.12840 0.62200 -0.55500
O 	O 	0.74460 0.12320 0.63840 -0.57400
