data_crystal

_cell_length_a 8.72300
_cell_length_b 14.17900
_cell_length_c 15.03120
_cell_angle_alpha 114.83000
_cell_angle_beta  106.86800
_cell_angle_gamma 90.00000

_symmetry_space_group_name_	'P 1'
_symmetry_space_group_name_H-M	'P 1'

loop_
_symmetry_equiv_pos_as_xyz
  x,y,z

loop_
_atom_site_label
_atom_site_type_symbol
_atom_site_fract_x
_atom_site_fract_y
_atom_site_fract_z
_atom_site_charge
Nd	Nd	0.90417 0.00504 0.54618 2.30400
Nd	Nd	0.35799 0.99496 0.45382 2.34400
H 	H 	0.84310 0.79670 0.66340 -0.03500
H 	H 	0.85330 0.64160 0.68280 0.07500
H 	H 	0.37940 0.55870 0.53720 0.08800
H 	H 	0.36400 0.71790 0.52540 -0.00500
H 	H 	0.82050 0.52990 0.74580 0.06800
H 	H 	0.85840 0.36380 0.73960 0.00400
H 	H 	0.46850 0.23600 0.48680 -0.05600
H 	H 	0.44420 0.39250 0.48140 0.08400
H 	H 	0.79280 0.71540 0.22520 -0.01100
H 	H 	0.72560 0.56430 0.07360 0.07600
H 	H 	0.25680 0.58490 0.05120 0.08300
H 	H 	0.33440 0.71970 0.21360 -0.00600
H 	H 	0.17970 0.20330 0.33660 -0.02300
H 	H 	0.17050 0.35840 0.31720 0.06900
H 	H 	0.84220 0.44130 0.46280 0.07900
H 	H 	0.83860 0.28210 0.47460 0.00800
H 	H 	0.07470 0.47010 0.25420 0.10100
H 	H 	0.11880 0.63620 0.26040 -0.01400
H 	H 	0.98170 0.76400 0.51320 -0.13200
H 	H 	0.96280 0.60750 0.51860 0.13900
H 	H 	0.56760 0.28460 0.77480 -0.00600
H 	H 	0.65200 0.43570 0.92640 0.08000
H 	H 	0.20560 0.41510 0.94880 0.08700
H 	H 	0.12080 0.28030 0.78640 0.00100
C 	C 	0.59770 0.86820 0.57480 0.54800
C 	C 	0.60250 0.76980 0.58860 -0.23900
C 	C 	0.74970 0.74920 0.63760 0.12000
C 	C 	0.75540 0.65470 0.64780 -0.17000
C 	C 	0.61900 0.58060 0.60680 0.07100
C 	C 	0.47330 0.60560 0.56240 -0.16300
C 	C 	0.46370 0.70130 0.55400 0.11800
C 	C 	0.62940 0.47860 0.61200 0.05400
C 	C 	0.75350 0.47020 0.69160 -0.13900
C 	C 	0.77490 0.37040 0.68840 0.07700
C 	C 	0.67210 0.28240 0.60960 -0.18700
C 	C 	0.54380 0.29420 0.53600 0.12600
C 	C 	0.52620 0.38810 0.53460 -0.17100
C 	C 	0.71160 0.17550 0.60240 0.44400
C 	C 	0.61650 0.83330 0.33080 0.56400
C 	C 	0.57280 0.73520 0.23600 -0.25800
C 	C 	0.68470 0.68600 0.19220 0.12900
C 	C 	0.64550 0.59450 0.10100 -0.16200
C 	C 	0.47930 0.54610 0.04860 0.05500
C 	C 	0.36620 0.60470 0.08920 -0.16500
C 	C 	0.41280 0.69060 0.18360 0.12700
C 	C 	0.02290 0.13180 0.42520 0.56900
C 	C 	0.01390 0.23020 0.41140 -0.19800
C 	C 	0.11210 0.25080 0.36240 0.09700
C 	C 	0.10760 0.34530 0.35220 -0.13900
C 	C 	0.01220 0.41940 0.39320 0.05000
C 	C 	0.91090 0.39440 0.43760 -0.15700
C 	C 	0.90970 0.29870 0.44600 0.06600
C 	C 	0.01740 0.52140 0.38800 0.15700
C 	C 	0.06190 0.52980 0.30840 -0.21400
C 	C 	0.08650 0.62960 0.31160 0.15600
C 	C 	0.06250 0.71760 0.39040 -0.26700
C 	C 	0.00780 0.70580 0.46400 0.30600
C 	C 	0.99160 0.61190 0.46540 -0.34800
C 	C 	0.10920 0.82450 0.39760 0.47400
C 	C 	0.28570 0.16670 0.66920 0.55900
C 	C 	0.33680 0.26480 0.76400 -0.25200
C 	C 	0.49250 0.31400 0.80780 0.13000
C 	C 	0.54450 0.40550 0.89900 -0.16300
C 	C 	0.43070 0.45390 0.95140 0.06700
C 	C 	0.27700 0.39530 0.91080 -0.16600
C 	C 	0.22920 0.30940 0.81640 0.12800
O 	O 	0.72390 0.91540 0.58560 -0.63100
O 	O 	0.45800 0.89850 0.55120 -0.55100
O 	O 	0.62760 0.09580 0.52160 -0.63100
O 	O 	0.83270 0.16990 0.66540 -0.51100
O 	O 	0.76610 0.87110 0.37520 -0.56800
O 	O 	0.50740 0.87630 0.36160 -0.62600
O 	O 	0.13830 0.08460 0.41440 -0.63300
O 	O 	0.90680 0.10150 0.44880 -0.57300
O 	O 	0.10600 0.90420 0.47840 -0.63000
O 	O 	0.16730 0.83010 0.33460 -0.51100
O 	O 	0.39090 0.12890 0.62480 -0.56400
O 	O 	0.14580 0.12370 0.63840 -0.60700
