data_crystal

_cell_length_a 5.12750
_cell_length_b 16.37260
_cell_length_c 10.80050
_cell_angle_alpha 90.00000
_cell_angle_beta  99.53100
_cell_angle_gamma 90.00000

_symmetry_space_group_name_	'P 1'
_symmetry_space_group_name_H-M	'P 1'

loop_
_symmetry_equiv_pos_as_xyz
  x,y,z

loop_
_atom_site_label
_atom_site_type_symbol
_atom_site_fract_x
_atom_site_fract_y
_atom_site_fract_z
_atom_site_charge
Cu	Cu	0.45756 0.68434 0.62846 0.77200
O 	O 	0.28440 0.58844 0.55140 -0.74600
H 	H 	0.16810 0.60090 0.49850 0.26500
N 	N 	0.75510 0.53137 0.65249 -0.22100
N 	N 	0.75130 0.60939 0.69979 -0.23700
N 	N 	0.06550 0.54151 0.81611 -0.14900
C 	C 	0.94220 0.49176 0.72336 0.09800
H 	H 	0.98620 0.43680 0.71230 -0.06700
C 	C 	0.93850 0.61461 0.79727 0.07600
H 	H 	0.97940 0.66160 0.84680 -0.07100
C 	C 	0.28610 0.52046 0.91055 -0.01000
C 	C 	0.34280 0.43875 0.93680 0.04700
H 	H 	0.23590 0.39770 0.89380 -0.03500
C 	C 	0.44180 0.58185 0.97330 0.05000
H 	H 	0.40150 0.63700 0.95500 -0.05500
Cu	Cu	0.54244 0.31566 0.37154 0.76900
O 	O 	0.71560 0.41156 0.44860 -0.74600
H 	H 	0.83190 0.39910 0.50150 0.26900
N 	N 	0.24490 0.46863 0.34751 -0.22200
N 	N 	0.24870 0.39061 0.30021 -0.23900
N 	N 	0.93450 0.45849 0.18389 -0.16600
C 	C 	0.05780 0.50824 0.27664 0.08900
H 	H 	0.01380 0.56320 0.28770 -0.07500
C 	C 	0.06150 0.38539 0.20273 0.06700
H 	H 	0.02060 0.33840 0.15320 -0.08800
C 	C 	0.71390 0.47954 0.08945 0.13200
C 	C 	0.65720 0.56125 0.06320 -0.21300
H 	H 	0.76410 0.60230 0.10620 0.03700
C 	C 	0.55820 0.41815 0.02670 -0.20900
H 	H 	0.59850 0.36300 0.04500 0.01300
Cu	Cu	0.50000 0.50000 0.50000 0.86500
Cu	Cu	0.54244 0.18434 0.87154 0.77700
O 	O 	0.71560 0.08844 0.94860 -0.66900
H 	H 	0.83190 0.10090 0.00150 0.19700
N 	N 	0.24490 0.03137 0.84751 -0.24100
N 	N 	0.24870 0.10939 0.80021 -0.23500
N 	N 	0.93450 0.04151 0.68389 -0.16100
C 	C 	0.05780 0.99176 0.77664 0.15800
H 	H 	0.01380 0.93680 0.78770 -0.08400
C 	C 	0.06150 0.11461 0.70273 0.05800
H 	H 	0.02060 0.16160 0.65320 -0.07500
C 	C 	0.71390 0.02046 0.58945 -0.03500
C 	C 	0.65720 0.93875 0.56320 0.03400
H 	H 	0.76410 0.89770 0.60620 -0.03100
C 	C 	0.55820 0.08185 0.52670 0.00700
H 	H 	0.59850 0.13700 0.54500 -0.04900
Cu	Cu	0.45756 0.81566 0.12846 0.76600
O 	O 	0.28440 0.91156 0.05140 -0.78300
H 	H 	0.16810 0.89910 0.99850 0.31500
N 	N 	0.75510 0.96863 0.15249 -0.18200
N 	N 	0.75130 0.89061 0.19979 -0.23900
N 	N 	0.06550 0.95849 0.31611 -0.14800
C 	C 	0.94220 0.00824 0.22336 0.00900
H 	H 	0.98620 0.06320 0.21230 -0.05200
C 	C 	0.93850 0.88539 0.29727 0.08500
H 	H 	0.97940 0.83840 0.34680 -0.08300
C 	C 	0.28610 0.97954 0.41055 0.16000
C 	C 	0.34280 0.06125 0.43680 -0.20500
H 	H 	0.23590 0.10230 0.39380 0.03500
C 	C 	0.44180 0.91815 0.47330 -0.16400
H 	H 	0.40150 0.86300 0.45500 0.00800
Cu	Cu	0.50000 0.00000 -0.00000 0.82700
