data_crystal

_cell_length_a 7.14420
_cell_length_b 19.43870
_cell_length_c 17.31140
_cell_angle_alpha 90.00000
_cell_angle_beta  90.00000
_cell_angle_gamma 90.00000

_symmetry_space_group_name_	'P 1'
_symmetry_space_group_name_H-M	'P 1'

loop_
_symmetry_equiv_pos_as_xyz
  x,y,z

loop_
_atom_site_label
_atom_site_type_symbol
_atom_site_fract_x
_atom_site_fract_y
_atom_site_fract_z
_atom_site_charge
N 	N 	0.06660 0.67796 0.19876 -0.21900
N 	N 	0.87460 0.67760 0.19458 -0.21800
N 	N 	0.98130 0.59919 0.11729 -0.15000
C 	C 	0.12960 0.63046 0.15152 0.09300
H 	H 	0.25490 0.62000 0.14290 -0.02400
C 	C 	0.82510 0.62997 0.14561 0.09800
H 	H 	0.70260 0.61890 0.13230 -0.02500
C 	C 	0.99020 0.54760 0.05727 0.08400
C 	C 	0.86920 0.49260 0.05860 -0.08100
H 	H 	0.78130 0.48810 0.09790 0.05800
C 	C 	0.11930 0.55580 0.99930 -0.07800
H 	H 	0.19850 0.59380 0.99920 0.05300
N 	N 	0.43340 0.32204 0.69876 -0.22000
N 	N 	0.62540 0.32240 0.69458 -0.21900
N 	N 	0.51870 0.40081 0.61729 -0.15200
C 	C 	0.37040 0.36954 0.65152 0.09300
H 	H 	0.24510 0.38000 0.64290 -0.02500
C 	C 	0.67490 0.37003 0.64561 0.09700
H 	H 	0.79740 0.38110 0.63230 -0.02500
C 	C 	0.50980 0.45240 0.55727 0.08400
C 	C 	0.63080 0.50740 0.55860 -0.08100
H 	H 	0.71870 0.51190 0.59790 0.05800
C 	C 	0.38070 0.44420 0.49930 -0.07800
H 	H 	0.30150 0.40620 0.49920 0.05300
N 	N 	0.93340 0.17796 0.80124 -0.22000
N 	N 	0.12540 0.17760 0.80542 -0.21900
N 	N 	0.01870 0.09919 0.88271 -0.15100
C 	C 	0.87040 0.13046 0.84848 0.09200
H 	H 	0.74510 0.12000 0.85710 -0.02500
C 	C 	0.17490 0.12997 0.85439 0.09700
H 	H 	0.29740 0.11890 0.86770 -0.02500
C 	C 	0.00980 0.04760 0.94273 0.08400
C 	C 	0.13080 0.99260 0.94140 -0.08000
H 	H 	0.21870 0.98810 0.90210 0.05800
C 	C 	0.88070 0.05580 0.00070 -0.07800
H 	H 	0.80150 0.09380 0.00080 0.05300
N 	N 	0.56660 0.82204 0.30124 -0.22000
N 	N 	0.37460 0.82240 0.30542 -0.21900
N 	N 	0.48130 0.90081 0.38271 -0.15200
C 	C 	0.62960 0.86954 0.34848 0.09300
H 	H 	0.75490 0.88000 0.35710 -0.02500
C 	C 	0.32510 0.87003 0.35439 0.09700
H 	H 	0.20260 0.88110 0.36770 -0.02500
C 	C 	0.49020 0.95240 0.44273 0.08400
C 	C 	0.36920 0.00740 0.44140 -0.08100
H 	H 	0.28130 0.01190 0.40210 0.05800
C 	C 	0.61930 0.94420 0.50070 -0.07800
H 	H 	0.69850 0.90620 0.50080 0.05300
N 	N 	0.93340 0.32204 0.80124 -0.22000
N 	N 	0.12540 0.32240 0.80542 -0.21900
N 	N 	0.01870 0.40081 0.88271 -0.15100
C 	C 	0.87040 0.36954 0.84848 0.09200
H 	H 	0.74510 0.38000 0.85710 -0.02500
C 	C 	0.17490 0.37003 0.85439 0.09700
H 	H 	0.29740 0.38110 0.86770 -0.02500
C 	C 	0.00980 0.45240 0.94273 0.08400
C 	C 	0.13080 0.50740 0.94140 -0.08100
H 	H 	0.21870 0.51190 0.90210 0.05800
C 	C 	0.88070 0.44420 0.00070 -0.07800
H 	H 	0.80150 0.40620 0.00080 0.05300
N 	N 	0.56660 0.67796 0.30124 -0.22000
N 	N 	0.37460 0.67760 0.30542 -0.21900
N 	N 	0.48130 0.59919 0.38271 -0.15200
C 	C 	0.62960 0.63046 0.34848 0.09300
H 	H 	0.75490 0.62000 0.35710 -0.02500
C 	C 	0.32510 0.62997 0.35439 0.09700
H 	H 	0.20260 0.61890 0.36770 -0.02500
C 	C 	0.49020 0.54760 0.44273 0.08400
C 	C 	0.36920 0.49260 0.44140 -0.08100
H 	H 	0.28130 0.48810 0.40210 0.05800
C 	C 	0.61930 0.55580 0.50070 -0.07800
H 	H 	0.69850 0.59380 0.50080 0.05300
N 	N 	0.06660 0.82204 0.19876 -0.22000
N 	N 	0.87460 0.82240 0.19458 -0.21900
N 	N 	0.98130 0.90081 0.11729 -0.15100
C 	C 	0.12960 0.86954 0.15152 0.09200
H 	H 	0.25490 0.88000 0.14290 -0.02500
C 	C 	0.82510 0.87003 0.14561 0.09700
H 	H 	0.70260 0.88110 0.13230 -0.02500
C 	C 	0.99020 0.95240 0.05727 0.08400
C 	C 	0.86920 0.00740 0.05860 -0.08000
H 	H 	0.78130 0.01190 0.09790 0.05800
C 	C 	0.11930 0.94420 0.99930 -0.07800
H 	H 	0.19850 0.90620 0.99920 0.05300
N 	N 	0.43340 0.17796 0.69876 -0.22000
N 	N 	0.62540 0.17760 0.69458 -0.21900
N 	N 	0.51870 0.09919 0.61729 -0.15200
C 	C 	0.37040 0.13046 0.65152 0.09300
H 	H 	0.24510 0.12000 0.64290 -0.02500
C 	C 	0.67490 0.12997 0.64561 0.09700
H 	H 	0.79740 0.11890 0.63230 -0.02500
C 	C 	0.50980 0.04760 0.55727 0.08400
C 	C 	0.63080 0.99260 0.55860 -0.08100
H 	H 	0.71870 0.98810 0.59790 0.05800
C 	C 	0.38070 0.05580 0.49930 -0.07800
H 	H 	0.30150 0.09380 0.49920 0.05300
Cu	Cu	0.21540 0.75000 0.25440 0.82800
Cu	Cu	0.28460 0.25000 0.75440 0.82800
Cu	Cu	0.78460 0.25000 0.74560 0.82800
Cu	Cu	0.71540 0.75000 0.24560 0.82800
