data_crystal

_cell_length_a 7.71190
_cell_length_b 13.47450
_cell_length_c 25.18920
_cell_angle_alpha 90.00000
_cell_angle_beta  90.00000
_cell_angle_gamma 106.62900

_symmetry_space_group_name_	'P 1'
_symmetry_space_group_name_H-M	'P 1'

loop_
_symmetry_equiv_pos_as_xyz
  x,y,z

loop_
_atom_site_label
_atom_site_type_symbol
_atom_site_fract_x
_atom_site_fract_y
_atom_site_fract_z
_atom_site_charge
Cu	Cu	0.50000 0.50000 0.50000 0.87200
Cu	Cu	0.50000 0.50000 -0.00000 0.85300
Cu	Cu	-0.00000 0.50000 -0.00000 0.83600
Cu	Cu	-0.00000 0.50000 0.50000 0.85300
H 	H 	0.03380 0.69280 0.70340 0.00800
H 	H 	0.49460 0.58160 0.70380 0.05100
H 	H 	0.35490 0.09060 0.44440 0.04800
H 	H 	0.96620 0.30720 0.20340 0.09600
H 	H 	0.50540 0.41840 0.20380 0.05500
H 	H 	0.64510 0.90940 0.94440 0.05400
H 	H 	0.34100 0.30720 0.79660 0.05700
H 	H 	0.91300 0.41840 0.79620 0.09700
H 	H 	0.26430 0.90940 0.05560 0.04300
H 	H 	0.65900 0.69280 0.29660 0.05100
H 	H 	0.08700 0.58160 0.29620 0.01000
H 	H 	0.73570 0.09060 0.55560 0.05900
H 	H 	0.96620 0.30720 0.29660 0.09800
H 	H 	0.50540 0.41840 0.29620 0.05600
H 	H 	0.64510 0.90940 0.55560 0.05900
H 	H 	0.03380 0.69280 0.79660 0.01100
H 	H 	0.49460 0.58160 0.79620 0.05300
H 	H 	0.35490 0.09060 0.05560 0.04400
H 	H 	0.65900 0.69280 0.20340 0.05000
H 	H 	0.08700 0.58160 0.20380 0.00900
H 	H 	0.73570 0.09060 0.94440 0.05400
H 	H 	0.34100 0.30720 0.70340 0.05400
H 	H 	0.91300 0.41840 0.70380 0.09600
H 	H 	0.26430 0.90940 0.44440 0.04700
C 	C 	0.61646 0.59032 0.60735 0.04500
C 	C 	0.76477 0.61774 0.63785 -0.04700
C 	C 	0.90749 0.61078 0.60830 0.06900
C 	C 	0.76569 0.63198 0.69516 0.02700
C 	C 	0.92304 0.66768 0.72218 -0.00900
C 	C 	0.60596 0.60232 0.72257 -0.05600
C 	C 	0.49750 0.27960 0.49999 0.04600
C 	C 	0.41442 0.05364 0.46710 -0.05400
C 	C 	0.38354 0.40968 0.10735 0.04400
C 	C 	0.23523 0.38226 0.13785 -0.05900
C 	C 	0.09251 0.38922 0.10830 0.02000
C 	C 	0.23431 0.36802 0.19516 0.05500
C 	C 	0.07696 0.33232 0.22218 -0.11400
C 	C 	0.39404 0.39768 0.22257 -0.06600
C 	C 	0.50250 0.72040 0.99999 0.10500
C 	C 	0.58558 0.94636 0.96710 -0.02800
C 	C 	0.02614 0.40968 0.89265 0.02700
C 	C 	0.14703 0.38226 0.86215 -0.06200
C 	C 	0.29671 0.38922 0.89170 0.05400
C 	C 	0.13371 0.36802 0.80484 0.05800
C 	C 	0.25536 0.33232 0.77782 -0.07100
C 	C 	0.00364 0.39768 0.77743 -0.11500
C 	C 	0.21790 0.72040 0.00001 0.02600
C 	C 	0.36078 0.94636 0.03290 -0.06800
C 	C 	0.97386 0.59032 0.39265 0.07100
C 	C 	0.85297 0.61774 0.36215 -0.04900
C 	C 	0.70329 0.61078 0.39170 0.04700
C 	C 	0.86629 0.63198 0.30484 0.03100
C 	C 	0.74464 0.66768 0.27782 -0.06000
C 	C 	0.99636 0.60232 0.27743 -0.01200
C 	C 	0.78210 0.27960 0.50001 0.06700
C 	C 	0.63922 0.05364 0.53290 -0.05300
C 	C 	0.38354 0.40968 0.39265 0.04700
C 	C 	0.23523 0.38226 0.36215 -0.06100
C 	C 	0.09251 0.38922 0.39170 0.02600
C 	C 	0.23431 0.36802 0.30484 0.05800
C 	C 	0.07696 0.33232 0.27782 -0.11700
C 	C 	0.39404 0.39768 0.27743 -0.06800
C 	C 	0.50250 0.72040 0.50001 0.05100
C 	C 	0.58558 0.94636 0.53290 -0.06700
C 	C 	0.61646 0.59032 0.89265 0.04900
C 	C 	0.76477 0.61774 0.86215 -0.05000
C 	C 	0.90749 0.61078 0.89170 0.07600
C 	C 	0.76569 0.63198 0.80484 0.03200
C 	C 	0.92304 0.66768 0.77782 -0.01500
C 	C 	0.60596 0.60232 0.77743 -0.06000
C 	C 	0.49750 0.27960 0.00001 0.04100
C 	C 	0.41442 0.05364 0.03290 -0.05300
C 	C 	0.97386 0.59032 0.10735 0.06800
C 	C 	0.85297 0.61774 0.13785 -0.04700
C 	C 	0.70329 0.61078 0.10830 0.04100
C 	C 	0.86629 0.63198 0.19516 0.02800
C 	C 	0.74464 0.66768 0.22218 -0.05700
C 	C 	0.99636 0.60232 0.22257 -0.01000
C 	C 	0.78210 0.27960 0.99999 0.12100
C 	C 	0.63922 0.05364 0.96710 -0.01500
C 	C 	0.02614 0.40968 0.60735 0.02200
C 	C 	0.14703 0.38226 0.63785 -0.05900
C 	C 	0.29671 0.38922 0.60830 0.04700
C 	C 	0.13371 0.36802 0.69516 0.05400
C 	C 	0.25536 0.33232 0.72218 -0.06700
C 	C 	0.00364 0.39768 0.72257 -0.11200
C 	C 	0.21790 0.72040 0.49999 0.03100
C 	C 	0.36078 0.94636 0.46710 -0.07000
C 	C 	0.60916 0.21832 0.50000 -0.05400
C 	C 	0.55292 0.10584 0.50000 0.04100
C 	C 	0.39084 0.78168 -0.00000 -0.09300
C 	C 	0.44708 0.89416 -0.00000 0.01000
C 	C 	0.39084 0.78168 0.50000 -0.05100
C 	C 	0.44708 0.89416 0.50000 0.04400
C 	C 	0.60916 0.21832 -0.00000 -0.09600
C 	C 	0.55292 0.10584 -0.00000 0.00800
N 	N 	0.66849 0.56678 0.56019 -0.18500
N 	N 	0.84816 0.57952 0.56031 -0.15000
N 	N 	0.60020 0.37620 0.49998 -0.18700
N 	N 	0.33151 0.43322 0.06019 -0.19200
N 	N 	0.15184 0.42048 0.06031 -0.16800
N 	N 	0.39980 0.62380 0.99998 -0.17100
N 	N 	0.10171 0.43322 0.93981 -0.18100
N 	N 	0.26864 0.42048 0.93969 -0.14900
N 	N 	0.22400 0.62380 0.00002 -0.21100
N 	N 	0.89829 0.56678 0.43981 -0.17800
N 	N 	0.73136 0.57952 0.43969 -0.15500
N 	N 	0.77600 0.37620 0.50002 -0.18000
N 	N 	0.33151 0.43322 0.43981 -0.18800
N 	N 	0.15184 0.42048 0.43969 -0.16200
N 	N 	0.39980 0.62380 0.50002 -0.18900
N 	N 	0.66849 0.56678 0.93981 -0.17600
N 	N 	0.84816 0.57952 0.93969 -0.14100
N 	N 	0.60020 0.37620 0.00002 -0.20600
N 	N 	0.89829 0.56678 0.06019 -0.18300
N 	N 	0.73136 0.57952 0.06031 -0.16200
N 	N 	0.77600 0.37620 0.99998 -0.16200
N 	N 	0.10171 0.43322 0.56019 -0.19000
N 	N 	0.26864 0.42048 0.56031 -0.15900
N 	N 	0.22400 0.62380 0.49998 -0.19100
