data_crystal

_cell_length_a 18.96800
_cell_length_b 18.96800
_cell_length_c 5.77300
_cell_angle_alpha 90.00000
_cell_angle_beta  90.00000
_cell_angle_gamma 90.00000

_symmetry_space_group_name_	'P 1'
_symmetry_space_group_name_H-M	'P 1'

loop_
_symmetry_equiv_pos_as_xyz
  x,y,z

loop_
_atom_site_label
_atom_site_type_symbol
_atom_site_fract_x
_atom_site_fract_y
_atom_site_fract_z
_atom_site_charge
O 	O 	0.24260 0.68540 0.43400 -0.56800
O 	O 	0.22440 0.59280 0.23100 -0.29900
C 	C 	0.23840 0.62500 0.40800 0.47100
C 	C 	0.24990 0.57570 0.63200 -0.11000
H 	H 	0.20620 0.54780 0.66430 0.10100
O 	O 	0.26390 0.62610 0.82500 -0.23300
C 	C 	0.31520 0.52560 0.61500 0.11400
H 	H 	0.30690 0.49450 0.47760 0.05100
O 	O 	0.37360 0.56220 0.57000 -0.13000
C 	C 	0.31610 0.47860 0.82300 0.00200
H 	H 	0.32430 0.50880 0.96210 0.11600
O 	O 	0.37980 0.43140 0.79300 -0.08400
C 	C 	0.25200 0.42920 0.87600 -0.01300
H 	H 	0.21000 0.45860 0.91580 0.08900
O 	O 	0.27110 0.38640 0.07300 -0.28700
C 	C 	0.23720 0.38870 0.66900 0.29300
O 	O 	0.24550 0.32040 0.68900 -0.47600
O 	O 	0.21420 0.42220 0.48200 -0.21900
O 	O 	0.75740 0.31460 0.93400 -0.54700
O 	O 	0.77560 0.40720 0.73100 -0.27800
C 	C 	0.76160 0.37500 0.90800 0.50100
C 	C 	0.75010 0.42430 0.13200 -0.12300
H 	H 	0.79380 0.45220 0.16430 0.08800
O 	O 	0.73610 0.37390 0.32500 -0.24900
C 	C 	0.68480 0.47440 0.11500 0.04100
H 	H 	0.69310 0.50550 0.97760 0.10800
O 	O 	0.62640 0.43780 0.07000 -0.13100
C 	C 	0.68390 0.52140 0.32300 0.02900
H 	H 	0.67570 0.49120 0.46210 0.09700
O 	O 	0.62020 0.56860 0.29300 -0.11300
C 	C 	0.74800 0.57080 0.37600 -0.05200
H 	H 	0.79000 0.54140 0.41580 0.08400
O 	O 	0.72890 0.61360 0.57300 -0.24400
C 	C 	0.76280 0.61130 0.16900 0.24900
O 	O 	0.75450 0.67960 0.18900 -0.49000
O 	O 	0.78580 0.57780 0.98200 -0.17000
O 	O 	0.81460 0.74260 0.68400 -0.54700
O 	O 	0.90720 0.72440 0.48100 -0.27800
C 	C 	0.87500 0.73840 0.65800 0.46000
C 	C 	0.92430 0.74990 0.88200 -0.06900
H 	H 	0.95220 0.70620 0.91430 0.10100
O 	O 	0.87390 0.76390 0.07500 -0.28300
C 	C 	0.97440 0.81520 0.86500 0.13100
H 	H 	0.00550 0.80690 0.72760 0.05700
O 	O 	0.93780 0.87360 0.82000 -0.11300
C 	C 	0.02140 0.81610 0.07300 -0.00800
H 	H 	0.99120 0.82430 0.21210 0.09700
O 	O 	0.06860 0.87980 0.04300 -0.11900
C 	C 	0.07080 0.75200 0.12600 -0.10400
H 	H 	0.04140 0.71000 0.16580 0.08900
O 	O 	0.11360 0.77110 0.32300 -0.24300
C 	C 	0.11130 0.73720 0.91900 0.35000
O 	O 	0.17960 0.74550 0.93900 -0.47900
O 	O 	0.07780 0.71420 0.73200 -0.22200
O 	O 	0.18540 0.25740 0.18400 -0.55100
O 	O 	0.09280 0.27560 0.98100 -0.21700
C 	C 	0.12500 0.26160 0.15800 0.39600
C 	C 	0.07570 0.25010 0.38200 -0.08900
H 	H 	0.04780 0.29380 0.41430 0.09000
O 	O 	0.12610 0.23610 0.57500 -0.24700
C 	C 	0.02560 0.18480 0.36500 0.10800
H 	H 	0.99450 0.19310 0.22760 0.04400
O 	O 	0.06220 0.12640 0.32000 -0.13400
C 	C 	0.97860 0.18390 0.57300 0.01300
H 	H 	0.00880 0.17570 0.71210 0.10500
O 	O 	0.93140 0.12020 0.54300 -0.10400
C 	C 	0.92920 0.24800 0.62600 -0.06500
H 	H 	0.95860 0.29000 0.66580 0.09400
O 	O 	0.88640 0.22890 0.82300 -0.23000
C 	C 	0.88870 0.26280 0.41900 0.30600
O 	O 	0.82040 0.25450 0.43900 -0.49700
O 	O 	0.92220 0.28580 0.23200 -0.23800
O 	O 	0.25740 0.18540 0.81600 -0.56400
O 	O 	0.27560 0.09280 0.01900 -0.33100
C 	C 	0.26160 0.12500 0.84200 0.52900
C 	C 	0.25010 0.07570 0.61800 -0.10900
H 	H 	0.29380 0.04780 0.58570 0.10100
O 	O 	0.23610 0.12610 0.42500 -0.25000
C 	C 	0.18480 0.02560 0.63500 0.09200
H 	H 	0.19310 0.99450 0.77240 0.07500
O 	O 	0.12640 0.06220 0.68000 -0.11300
C 	C 	0.18390 0.97860 0.42700 0.03000
H 	H 	0.17570 0.00880 0.28790 0.08500
O 	O 	0.12020 0.93140 0.45700 -0.10000
C 	C 	0.24800 0.92920 0.37400 -0.06300
H 	H 	0.29000 0.95860 0.33420 0.08600
O 	O 	0.22890 0.88640 0.17700 -0.26100
C 	C 	0.26280 0.88870 0.58100 0.30300
O 	O 	0.25450 0.82040 0.56100 -0.48700
O 	O 	0.28580 0.92220 0.76800 -0.20000
O 	O 	0.74260 0.81460 0.31600 -0.56800
O 	O 	0.72440 0.90720 0.51900 -0.27300
C 	C 	0.73840 0.87500 0.34200 0.46800
C 	C 	0.74990 0.92430 0.11800 -0.13000
H 	H 	0.70620 0.95220 0.08570 0.09000
O 	O 	0.76390 0.87390 0.92500 -0.20600
C 	C 	0.81520 0.97440 0.13500 0.06800
H 	H 	0.80690 0.00550 0.27240 0.06200
O 	O 	0.87360 0.93780 0.18000 -0.13300
C 	C 	0.81610 0.02140 0.92700 0.05200
H 	H 	0.82430 0.99120 0.78790 0.09300
O 	O 	0.87980 0.06860 0.95700 -0.08400
C 	C 	0.75200 0.07080 0.87400 -0.02200
H 	H 	0.71000 0.04140 0.83420 0.09000
O 	O 	0.77110 0.11360 0.67700 -0.24900
C 	C 	0.73720 0.11130 0.08100 0.25600
O 	O 	0.74550 0.17960 0.06100 -0.50600
O 	O 	0.71420 0.07780 0.26800 -0.21500
O 	O 	0.68540 0.24260 0.56600 -0.55400
O 	O 	0.59280 0.22440 0.76900 -0.25200
C 	C 	0.62500 0.23840 0.59200 0.45800
C 	C 	0.57570 0.24990 0.36800 -0.09000
H 	H 	0.54780 0.20620 0.33570 0.09000
O 	O 	0.62610 0.26390 0.17500 -0.26400
C 	C 	0.52560 0.31520 0.38500 0.08700
H 	H 	0.49450 0.30690 0.52240 0.06800
O 	O 	0.56220 0.37360 0.43000 -0.11700
C 	C 	0.47860 0.31610 0.17700 0.04000
H 	H 	0.50880 0.32430 0.03790 0.07400
O 	O 	0.43140 0.37980 0.20700 -0.11900
C 	C 	0.42920 0.25200 0.12400 -0.11500
H 	H 	0.45860 0.21000 0.08420 0.09100
O 	O 	0.38640 0.27110 0.92700 -0.19800
C 	C 	0.38870 0.23720 0.33100 0.31500
O 	O 	0.32040 0.24550 0.31100 -0.50100
O 	O 	0.42220 0.21420 0.51800 -0.21700
O 	O 	0.31460 0.75740 0.06600 -0.57400
O 	O 	0.40720 0.77560 0.26900 -0.27400
C 	C 	0.37500 0.76160 0.09200 0.43000
C 	C 	0.42430 0.75010 0.86800 -0.07900
H 	H 	0.45220 0.79380 0.83570 0.10300
O 	O 	0.37390 0.73610 0.67500 -0.24800
C 	C 	0.47440 0.68480 0.88500 0.15800
H 	H 	0.50550 0.69310 0.02240 0.01300
O 	O 	0.43780 0.62640 0.93000 -0.11700
C 	C 	0.52140 0.68390 0.67700 0.01300
H 	H 	0.49120 0.67570 0.53790 0.09400
O 	O 	0.56860 0.62020 0.70700 -0.09100
C 	C 	0.57080 0.74800 0.62400 -0.07500
H 	H 	0.54140 0.79000 0.58420 0.09500
O 	O 	0.61360 0.72890 0.42700 -0.24700
C 	C 	0.61130 0.76280 0.83100 0.35600
O 	O 	0.67960 0.75450 0.81100 -0.48600
O 	O 	0.57780 0.78580 0.01800 -0.26400
Co	Co	0.27032 0.72968 0.75000 1.21100
Co	Co	0.72968 0.27032 0.25000 1.19600
Co	Co	0.77032 0.77032 -0.00000 1.18200
Co	Co	0.22968 0.22968 0.50000 1.20400
Co	Co	0.27992 0.27992 -0.00000 1.17500
Co	Co	0.72008 0.72008 0.50000 1.19700
Co	Co	0.22008 0.77992 0.25000 1.18900
Co	Co	0.77992 0.22008 0.75000 1.20500
