data_crystal

_cell_length_a 10.80100
_cell_length_b 10.90600
_cell_length_c 15.55000
_cell_angle_alpha 90.00000
_cell_angle_beta  90.00000
_cell_angle_gamma 100.40100

_symmetry_space_group_name_	'P 1'
_symmetry_space_group_name_H-M	'P 1'

loop_
_symmetry_equiv_pos_as_xyz
  x,y,z

loop_
_atom_site_label
_atom_site_type_symbol
_atom_site_fract_x
_atom_site_fract_y
_atom_site_fract_z
_atom_site_charge
Tm	Tm	0.35641 0.60211 0.89792 1.51000
Tm	Tm	0.14359 0.89789 0.39792 1.50500
Tm	Tm	0.64359 0.39789 0.10208 1.51100
Tm	Tm	0.85641 0.10211 0.60208 1.50600
H 	H 	0.31860 0.22260 0.18560 0.00800
H 	H 	0.94810 0.18130 0.23350 0.03000
H 	H 	0.10150 0.40960 0.04500 0.04200
H 	H 	0.18140 0.27740 0.68560 0.01000
H 	H 	0.55190 0.31870 0.73350 0.04000
H 	H 	0.39850 0.09040 0.54500 0.04300
H 	H 	0.68140 0.77740 0.81440 0.00800
H 	H 	0.05190 0.81870 0.76650 0.03000
H 	H 	0.89850 0.59040 0.95500 0.04200
H 	H 	0.81860 0.72260 0.31440 0.01000
H 	H 	0.44810 0.68130 0.26650 0.04000
H 	H 	0.60150 0.90960 0.45500 0.04300
C 	C 	0.34080 0.38650 0.05630 0.43700
C 	C 	0.22830 0.32530 0.10870 -0.15800
C 	C 	0.24020 0.24240 0.17340 0.08200
C 	C 	0.13520 0.18780 0.22090 -0.12800
C 	C 	0.01820 0.21830 0.20210 0.06500
C 	C 	0.00410 0.30220 0.13790 -0.11900
C 	C 	0.10960 0.35500 0.08960 0.06500
C 	C 	0.14380 0.09710 0.29210 0.31500
C 	C 	0.87790 0.33540 0.12220 0.32600
C 	C 	0.15920 0.11350 0.55630 0.43500
C 	C 	0.27170 0.17470 0.60870 -0.15500
C 	C 	0.25980 0.25760 0.67340 0.07800
C 	C 	0.36480 0.31220 0.72090 -0.12200
C 	C 	0.48180 0.28170 0.70210 0.05000
C 	C 	0.49590 0.19780 0.63790 -0.11700
C 	C 	0.39040 0.14500 0.58960 0.06200
C 	C 	0.35620 0.40290 0.79210 0.31300
C 	C 	0.62210 0.16460 0.62220 0.32800
C 	C 	0.65920 0.61350 0.94370 0.43700
C 	C 	0.77170 0.67470 0.89130 -0.15800
C 	C 	0.75980 0.75760 0.82660 0.08200
C 	C 	0.86480 0.81220 0.77910 -0.12800
C 	C 	0.98180 0.78170 0.79790 0.06500
C 	C 	0.99590 0.69780 0.86210 -0.11900
C 	C 	0.89040 0.64500 0.91040 0.06500
C 	C 	0.85620 0.90290 0.70790 0.31500
C 	C 	0.12210 0.66460 0.87780 0.32600
C 	C 	0.84080 0.88650 0.44370 0.43500
C 	C 	0.72830 0.82530 0.39130 -0.15500
C 	C 	0.74020 0.74240 0.32660 0.07800
C 	C 	0.63520 0.68780 0.27910 -0.12200
C 	C 	0.51820 0.71830 0.29790 0.05000
C 	C 	0.50410 0.80220 0.36210 -0.11700
C 	C 	0.60960 0.85500 0.41040 0.06200
C 	C 	0.64380 0.59710 0.20790 0.31300
C 	C 	0.37790 0.83540 0.37780 0.32800
O 	O 	0.32980 0.47620 0.01050 -0.46300
O 	O 	0.43810 0.33650 0.06270 -0.46300
O 	O 	0.24370 0.05460 0.30200 -0.38000
O 	O 	0.04940 0.06000 0.33840 -0.38200
O 	O 	0.86410 0.41000 0.06370 -0.37100
O 	O 	0.78750 0.28840 0.16960 -0.41300
O 	O 	0.17020 0.02380 0.51050 -0.46000
O 	O 	0.06190 0.16350 0.56270 -0.46000
O 	O 	0.25630 0.44540 0.80200 -0.38200
O 	O 	0.45060 0.44000 0.83840 -0.38600
O 	O 	0.63590 0.09000 0.56370 -0.37200
O 	O 	0.71250 0.21160 0.66960 -0.41400
O 	O 	0.67020 0.52380 0.98950 -0.46300
O 	O 	0.56190 0.66350 0.93730 -0.46300
O 	O 	0.75630 0.94540 0.69800 -0.38000
O 	O 	0.95060 0.94000 0.66160 -0.38200
O 	O 	0.13590 0.59000 0.93630 -0.37100
O 	O 	0.21250 0.71160 0.83040 -0.41300
O 	O 	0.82980 0.97620 0.48950 -0.46000
O 	O 	0.93810 0.83650 0.43730 -0.46000
O 	O 	0.74370 0.55460 0.19800 -0.38200
O 	O 	0.54940 0.56000 0.16160 -0.38600
O 	O 	0.36410 0.91000 0.43630 -0.37200
O 	O 	0.28750 0.78840 0.33040 -0.41400
