data_crystal

_cell_length_a 18.60500
_cell_length_b 18.60500
_cell_length_c 14.90400
_cell_angle_alpha 90.00000
_cell_angle_beta  90.00000
_cell_angle_gamma 120.00000

_symmetry_space_group_name_	'P 1'
_symmetry_space_group_name_H-M	'P 1'

loop_
_symmetry_equiv_pos_as_xyz
  x,y,z

loop_
_atom_site_label
_atom_site_type_symbol
_atom_site_fract_x
_atom_site_fract_y
_atom_site_fract_z
_atom_site_charge
O 	O 	0.49370 0.91280 0.08290 -0.22500
O 	O 	0.40930 0.90190 0.93220 -0.23600
O 	O 	0.34390 0.76330 0.93780 -0.30400
N 	N 	0.42580 0.76900 0.08660 -0.23200
C 	C 	0.46500 0.76750 0.16850 0.07700
C 	C 	0.52990 0.75010 0.16770 -0.02600
C 	C 	0.44270 0.84050 0.05370 0.06800
C 	C 	0.39440 0.83430 0.96740 0.29000
O 	O 	0.08720 0.58090 0.08290 -0.25800
O 	O 	0.09810 0.50740 0.93220 -0.26700
O 	O 	0.23670 0.58060 0.93780 -0.31000
N 	N 	0.23100 0.65680 0.08660 -0.23300
C 	C 	0.23250 0.69750 0.16850 0.07500
C 	C 	0.24990 0.77980 0.16770 -0.03200
C 	C 	0.15950 0.60220 0.05370 0.06500
C 	C 	0.16570 0.56010 0.96740 0.29000
O 	O 	0.41910 0.50630 0.08290 -0.24600
O 	O 	0.49260 0.59070 0.93220 -0.24800
O 	O 	0.41940 0.65610 0.93780 -0.30400
N 	N 	0.34320 0.57420 0.08660 -0.23400
C 	C 	0.30250 0.53500 0.16850 0.07600
C 	C 	0.22020 0.47010 0.16770 -0.03900
C 	C 	0.39780 0.55730 0.05370 0.06700
C 	C 	0.43990 0.60560 0.96740 0.28900
O 	O 	0.50630 0.08720 0.58290 -0.25500
O 	O 	0.59070 0.09810 0.43220 -0.27500
O 	O 	0.65610 0.23670 0.43780 -0.31900
N 	N 	0.57420 0.23100 0.58660 -0.23400
C 	C 	0.53500 0.23250 0.66850 0.07600
C 	C 	0.47010 0.24990 0.66770 -0.02600
C 	C 	0.55730 0.15950 0.55370 0.11300
C 	C 	0.60560 0.16570 0.46740 0.23900
O 	O 	0.91280 0.41910 0.58290 -0.22400
O 	O 	0.90190 0.49260 0.43220 -0.24200
O 	O 	0.76330 0.41940 0.43780 -0.31400
N 	N 	0.76900 0.34320 0.58660 -0.23200
C 	C 	0.76750 0.30250 0.66850 0.07700
C 	C 	0.75010 0.22020 0.66770 -0.02000
C 	C 	0.84050 0.39780 0.55370 0.11500
C 	C 	0.83430 0.43990 0.46740 0.23900
O 	O 	0.58090 0.49370 0.58290 -0.23600
O 	O 	0.50740 0.40930 0.43220 -0.26400
O 	O 	0.58060 0.34390 0.43780 -0.32000
N 	N 	0.65680 0.42580 0.58660 -0.23100
C 	C 	0.69750 0.46500 0.66850 0.07600
C 	C 	0.77980 0.52990 0.66770 -0.01300
C 	C 	0.60220 0.44270 0.55370 0.11400
C 	C 	0.56010 0.39440 0.46740 0.24000
O 	O 	0.50630 0.08720 0.91710 -0.25000
O 	O 	0.59070 0.09810 0.06780 -0.27800
O 	O 	0.65610 0.23670 0.06220 -0.32600
N 	N 	0.57420 0.23100 0.91340 -0.23300
C 	C 	0.53500 0.23250 0.83150 0.07600
C 	C 	0.47010 0.24990 0.83230 -0.01500
C 	C 	0.55730 0.15950 0.94630 0.15900
C 	C 	0.60560 0.16570 0.03260 0.19100
O 	O 	0.91280 0.41910 0.91710 -0.22000
O 	O 	0.90190 0.49260 0.06780 -0.24600
O 	O 	0.76330 0.41940 0.06220 -0.32100
N 	N 	0.76900 0.34320 0.91340 -0.23100
C 	C 	0.76750 0.30250 0.83150 0.07800
C 	C 	0.75010 0.22020 0.83230 -0.00900
C 	C 	0.84050 0.39780 0.94630 0.16100
C 	C 	0.83430 0.43990 0.03260 0.19200
O 	O 	0.58090 0.49370 0.91710 -0.23200
O 	O 	0.50740 0.40930 0.06780 -0.26700
O 	O 	0.58060 0.34390 0.06220 -0.32800
N 	N 	0.65680 0.42580 0.91340 -0.23100
C 	C 	0.69750 0.46500 0.83150 0.07700
C 	C 	0.77980 0.52990 0.83230 -0.00300
C 	C 	0.60220 0.44270 0.94630 0.16200
C 	C 	0.56010 0.39440 0.03260 0.19100
O 	O 	0.49370 0.91280 0.41710 -0.22300
O 	O 	0.40930 0.90190 0.56780 -0.24100
O 	O 	0.34390 0.76330 0.56220 -0.31200
N 	N 	0.42580 0.76900 0.41340 -0.23100
C 	C 	0.46500 0.76750 0.33150 0.07700
C 	C 	0.52990 0.75010 0.33230 -0.01500
C 	C 	0.44270 0.84050 0.44630 0.11600
C 	C 	0.39440 0.83430 0.53260 0.24000
O 	O 	0.08720 0.58090 0.41710 -0.25500
O 	O 	0.09810 0.50740 0.56780 -0.27300
O 	O 	0.23670 0.58060 0.56220 -0.31800
N 	N 	0.23100 0.65680 0.41340 -0.23300
C 	C 	0.23250 0.69750 0.33150 0.07600
C 	C 	0.24990 0.77980 0.33230 -0.02200
C 	C 	0.15950 0.60220 0.44630 0.11400
C 	C 	0.16570 0.56010 0.53260 0.23900
O 	O 	0.41910 0.50630 0.41710 -0.24300
O 	O 	0.49260 0.59070 0.56780 -0.25400
O 	O 	0.41940 0.65610 0.56220 -0.31200
N 	N 	0.34320 0.57420 0.41340 -0.23300
C 	C 	0.30250 0.53500 0.33150 0.07700
C 	C 	0.22020 0.47010 0.33230 -0.02800
C 	C 	0.39780 0.55730 0.44630 0.11500
C 	C 	0.43990 0.60560 0.53260 0.23800
Ni	Ni	0.33333 0.66667 0.02000 1.07300
Ni	Ni	0.66667 0.33333 0.52000 1.09400
Ni	Ni	0.66667 0.33333 0.98000 1.11400
Ni	Ni	0.33333 0.66667 0.48000 1.09400
C 	C 	0.43420 0.77780 0.25000 -0.04200
C 	C 	0.56120 0.74120 0.25000 0.03700
C 	C 	0.22220 0.65640 0.25000 -0.04800
C 	C 	0.25880 0.82000 0.25000 0.03500
C 	C 	0.34360 0.56580 0.25000 -0.04600
C 	C 	0.18000 0.43880 0.25000 0.01900
C 	C 	0.56580 0.22220 0.75000 -0.04700
C 	C 	0.43880 0.25880 0.75000 0.02900
C 	C 	0.77780 0.34360 0.75000 -0.04000
C 	C 	0.74120 0.18000 0.75000 0.03100
C 	C 	0.65640 0.43420 0.75000 -0.04200
C 	C 	0.82000 0.56120 0.75000 0.04700
Li	Li	0.50000 0.00000 -0.00000 0.54800
Li	Li	-0.00000 0.50000 -0.00000 0.54800
Li	Li	0.50000 0.50000 -0.00000 0.55200
Li	Li	0.50000 0.00000 0.50000 0.55200
Li	Li	0.00000 0.50000 0.50000 0.55300
Li	Li	0.50000 0.50000 0.50000 0.55600
