data_crystal

_cell_length_a 8.52100
_cell_length_b 15.38000
_cell_length_c 18.47700
_cell_angle_alpha 90.00000
_cell_angle_beta  90.00000
_cell_angle_gamma 90.00000

_symmetry_space_group_name_	'P 1'
_symmetry_space_group_name_H-M	'P 1'

loop_
_symmetry_equiv_pos_as_xyz
  x,y,z

loop_
_atom_site_label
_atom_site_type_symbol
_atom_site_fract_x
_atom_site_fract_y
_atom_site_fract_z
_atom_site_charge
La	La	0.65604 0.71554 0.38324 1.66200
La	La	0.84396 0.21554 0.61676 1.66000
La	La	0.34396 0.28446 0.88324 1.66200
La	La	0.15604 0.78446 0.11676 1.65600
La	La	0.34396 0.28446 0.61676 1.66200
La	La	0.15604 0.78446 0.38324 1.66000
La	La	0.65604 0.71554 0.11676 1.66200
La	La	0.84396 0.21554 0.88324 1.65600
H 	H 	0.47960 0.98100 0.58630 0.03000
H 	H 	0.03330 0.95100 0.54420 0.11400
H 	H 	0.02040 0.48100 0.41370 0.03000
H 	H 	0.46670 0.45100 0.45580 0.11600
H 	H 	0.52040 0.01900 0.08630 0.03300
H 	H 	0.96670 0.04900 0.04420 0.11600
H 	H 	0.97960 0.51900 0.91370 0.02900
H 	H 	0.53330 0.54900 0.95580 0.11600
H 	H 	0.52040 0.01900 0.41370 0.03100
H 	H 	0.96670 0.04900 0.45580 0.11500
H 	H 	0.97960 0.51900 0.58630 0.03000
H 	H 	0.53330 0.54900 0.54420 0.11600
H 	H 	0.47960 0.98100 0.91370 0.03300
H 	H 	0.03330 0.95100 0.95580 0.11600
H 	H 	0.02040 0.48100 0.08630 0.02900
H 	H 	0.46670 0.45100 0.04420 0.11600
C 	C 	0.46910 0.82190 0.49650 0.32700
C 	C 	0.35910 0.88500 0.52810 -0.05900
C 	C 	0.38330 0.95970 0.56900 0.01600
C 	C 	0.23730 0.99600 0.57890 -0.04500
C 	C 	0.18590 0.07860 0.61220 0.38600
C 	C 	0.03090 0.32190 0.50350 0.32900
C 	C 	0.14090 0.38500 0.47190 -0.06000
C 	C 	0.11670 0.45970 0.43100 0.01600
C 	C 	0.26270 0.49600 0.42110 -0.04300
C 	C 	0.31410 0.57860 0.38780 0.38500
C 	C 	0.53090 0.17810 0.99650 0.31800
C 	C 	0.64090 0.11500 0.02810 -0.05300
C 	C 	0.61670 0.04030 0.06900 0.01100
C 	C 	0.76270 0.00400 0.07890 -0.04000
C 	C 	0.81410 0.92140 0.11220 0.38100
C 	C 	0.96910 0.67810 0.00350 0.32800
C 	C 	0.85910 0.61500 0.97190 -0.06000
C 	C 	0.88330 0.54030 0.93100 0.01500
C 	C 	0.73730 0.50400 0.92110 -0.04400
C 	C 	0.68590 0.42140 0.88780 0.38500
C 	C 	0.53090 0.17810 0.50350 0.32700
C 	C 	0.64090 0.11500 0.47190 -0.05900
C 	C 	0.61670 0.04030 0.43100 0.01600
C 	C 	0.76270 0.00400 0.42110 -0.04500
C 	C 	0.81410 0.92140 0.38780 0.38600
C 	C 	0.96910 0.67810 0.49650 0.32900
C 	C 	0.85910 0.61500 0.52810 -0.06000
C 	C 	0.88330 0.54030 0.56900 0.01600
C 	C 	0.73730 0.50400 0.57890 -0.04300
C 	C 	0.68590 0.42140 0.61220 0.38500
C 	C 	0.46910 0.82190 0.00350 0.31800
C 	C 	0.35910 0.88500 0.97190 -0.05300
C 	C 	0.38330 0.95970 0.93100 0.01100
C 	C 	0.23730 0.99600 0.92110 -0.04000
C 	C 	0.18590 0.07860 0.88780 0.38100
C 	C 	0.03090 0.32190 0.99650 0.32800
C 	C 	0.14090 0.38500 0.02810 -0.06000
C 	C 	0.11670 0.45970 0.06900 0.01500
C 	C 	0.26270 0.49600 0.07890 -0.04400
C 	C 	0.31410 0.57860 0.11220 0.38500
C 	C 	0.46970 0.75090 0.25000 0.57700
C 	C 	0.03030 0.25090 0.75000 0.58200
C 	C 	0.53030 0.24910 0.75000 0.57700
C 	C 	0.96970 0.74910 0.25000 0.58200
N 	N 	0.13420 0.94230 0.54510 -0.13400
N 	N 	0.20430 0.87500 0.51360 -0.12300
N 	N 	0.36580 0.44230 0.45490 -0.13500
N 	N 	0.29570 0.37500 0.48640 -0.12300
N 	N 	0.86580 0.05770 0.04510 -0.13500
N 	N 	0.79570 0.12500 0.01360 -0.12300
N 	N 	0.63420 0.55770 0.95490 -0.13500
N 	N 	0.70430 0.62500 0.98640 -0.12300
N 	N 	0.86580 0.05770 0.45490 -0.13400
N 	N 	0.79570 0.12500 0.48640 -0.12300
N 	N 	0.63420 0.55770 0.54510 -0.13500
N 	N 	0.70430 0.62500 0.51360 -0.12300
N 	N 	0.13420 0.94230 0.95490 -0.13500
N 	N 	0.20430 0.87500 0.98640 -0.12300
N 	N 	0.36580 0.44230 0.04510 -0.13500
N 	N 	0.29570 0.37500 0.01360 -0.12300
O 	O 	0.61030 0.82460 0.50990 -0.32400
O 	O 	0.41100 0.76590 0.45420 -0.47700
O 	O 	0.04280 0.09410 0.60910 -0.42300
O 	O 	0.29000 0.12530 0.63870 -0.41200
O 	O 	0.41330 0.77350 0.31080 -0.54300
O 	O 	0.88970 0.32460 0.49010 -0.32500
O 	O 	0.08900 0.26590 0.54580 -0.47700
O 	O 	0.45720 0.59410 0.39090 -0.42500
O 	O 	0.21000 0.62530 0.36130 -0.41200
O 	O 	0.08670 0.27350 0.68920 -0.54300
O 	O 	0.38970 0.17540 0.00990 -0.32000
O 	O 	0.58900 0.23410 0.95420 -0.47600
O 	O 	0.95720 0.90590 0.10910 -0.42300
O 	O 	0.71000 0.87470 0.13870 -0.41200
O 	O 	0.58670 0.22650 0.81080 -0.54300
O 	O 	0.11030 0.67540 0.99010 -0.32300
O 	O 	0.91100 0.73410 0.04580 -0.47700
O 	O 	0.54280 0.40590 0.89090 -0.42500
O 	O 	0.79000 0.37470 0.86130 -0.41200
O 	O 	0.91330 0.72650 0.18920 -0.54200
O 	O 	0.38970 0.17540 0.49010 -0.32400
O 	O 	0.58900 0.23410 0.54580 -0.47700
O 	O 	0.95720 0.90590 0.39090 -0.42300
O 	O 	0.71000 0.87470 0.36130 -0.41200
O 	O 	0.58670 0.22650 0.68920 -0.54300
O 	O 	0.11030 0.67540 0.50990 -0.32500
O 	O 	0.91100 0.73410 0.45420 -0.47700
O 	O 	0.54280 0.40590 0.60910 -0.42500
O 	O 	0.79000 0.37470 0.63870 -0.41200
O 	O 	0.91330 0.72650 0.31080 -0.54300
O 	O 	0.61030 0.82460 0.99010 -0.32000
O 	O 	0.41100 0.76590 0.04580 -0.47600
O 	O 	0.04280 0.09410 0.89090 -0.42300
O 	O 	0.29000 0.12530 0.86130 -0.41200
O 	O 	0.41330 0.77350 0.18920 -0.54300
O 	O 	0.88970 0.32460 0.00990 -0.32300
O 	O 	0.08900 0.26590 0.95420 -0.47700
O 	O 	0.45720 0.59410 0.10910 -0.42500
O 	O 	0.21000 0.62530 0.13870 -0.41200
O 	O 	0.08670 0.27350 0.81080 -0.54200
O 	O 	0.59640 0.70570 0.25000 -0.56400
O 	O 	0.90360 0.20570 0.75000 -0.56800
O 	O 	0.40360 0.29430 0.75000 -0.56400
O 	O 	0.09640 0.79430 0.25000 -0.56800
