data_crystal

_cell_length_a 11.03180
_cell_length_b 18.06730
_cell_length_c 18.45280
_cell_angle_alpha 104.81200
_cell_angle_beta  97.07500
_cell_angle_gamma 95.20600

_symmetry_space_group_name_	'P 1'
_symmetry_space_group_name_H-M	'P 1'

loop_
_symmetry_equiv_pos_as_xyz
  x,y,z

loop_
_atom_site_label
_atom_site_type_symbol
_atom_site_fract_x
_atom_site_fract_y
_atom_site_fract_z
_atom_site_charge
Cu	Cu	0.57586 0.44756 0.98229 0.90300
Cu	Cu	0.96106 0.55487 0.55117 0.90100
Cu	Cu	0.42471 0.02014 0.55054 0.90100
Cu	Cu	0.10828 0.97871 0.98263 0.90500
Cu	Cu	0.42414 0.55244 0.01771 0.90400
Cu	Cu	0.03894 0.44513 0.44883 0.90200
Cu	Cu	0.57529 0.97986 0.44946 0.90200
Cu	Cu	0.89172 0.02129 0.01737 0.90600
H 	H 	0.48370 0.39530 0.72400 0.04700
H 	H 	0.36140 0.39630 0.60230 0.04700
H 	H 	0.66240 0.40190 0.61890 0.05000
H 	H 	0.54610 0.28210 0.62170 0.04500
H 	H 	0.89100 0.93240 0.60870 0.05000
H 	H 	0.01120 0.93130 0.73080 0.04900
H 	H 	0.08350 0.39260 0.01050 0.04800
H 	H 	0.96230 0.27120 0.01160 0.04600
H 	H 	0.51630 0.60470 0.27600 0.04700
H 	H 	0.63860 0.60370 0.39770 0.04700
H 	H 	0.33760 0.59810 0.38110 0.05000
H 	H 	0.45390 0.71790 0.37830 0.04500
H 	H 	0.10900 0.06760 0.39130 0.05000
H 	H 	0.98880 0.06870 0.26920 0.04900
H 	H 	0.91650 0.60740 0.98950 0.04800
H 	H 	0.03770 0.72880 0.98840 0.04600
C 	C 	0.42700 0.48660 0.86160 0.36500
C 	C 	0.38050 0.47500 0.77870 -0.09000
C 	C 	0.41850 0.42550 0.71960 -0.01100
C 	C 	0.34680 0.42560 0.65040 0.00200
C 	C 	0.25740 0.47020 0.65880 -0.09900
C 	C 	0.16390 0.48120 0.59930 0.36900
C 	C 	0.84590 0.40240 0.52550 0.36100
C 	C 	0.75560 0.34230 0.53880 -0.08800
C 	C 	0.67290 0.35270 0.58800 -0.01000
C 	C 	0.60550 0.28460 0.58890 -0.00200
C 	C 	0.63250 0.22240 0.53880 -0.09200
C 	C 	0.58280 0.14000 0.52350 0.35800
C 	C 	0.65950 0.98570 0.60250 0.34900
C 	C 	0.75340 0.97400 0.66210 -0.08800
C 	C 	0.86200 0.94820 0.65590 -0.00600
C 	C 	0.93100 0.94630 0.72570 -0.00500
C 	C 	0.86800 0.96840 0.78280 -0.09400
C 	C 	0.91250 0.97780 0.86440 0.36800
C 	C 	0.33370 0.39550 0.99890 0.36100
C 	C 	0.23540 0.33550 0.00070 -0.09700
C 	C 	0.11630 0.34520 0.00700 -0.00600
C 	C 	0.04760 0.27590 0.00770 -0.00100
C 	C 	0.11610 0.21650 0.00230 -0.10500
C 	C 	0.07510 0.13640 0.00050 0.37500
C 	C 	0.57300 0.51340 0.13840 0.36500
C 	C 	0.61950 0.52500 0.22130 -0.09000
C 	C 	0.58150 0.57450 0.28040 -0.01100
C 	C 	0.65320 0.57440 0.34960 0.00200
C 	C 	0.74260 0.52980 0.34120 -0.09900
C 	C 	0.83610 0.51880 0.40070 0.36900
C 	C 	0.15410 0.59760 0.47450 0.36100
C 	C 	0.24440 0.65770 0.46120 -0.08800
C 	C 	0.32710 0.64730 0.41200 -0.01000
C 	C 	0.39450 0.71540 0.41110 -0.00200
C 	C 	0.36750 0.77760 0.46120 -0.09200
C 	C 	0.41720 0.86000 0.47650 0.35800
C 	C 	0.34050 0.01430 0.39750 0.34900
C 	C 	0.24660 0.02600 0.33790 -0.08800
C 	C 	0.13800 0.05180 0.34410 -0.00600
C 	C 	0.06900 0.05370 0.27430 -0.00500
C 	C 	0.13200 0.03160 0.21720 -0.09400
C 	C 	0.08750 0.02220 0.13560 0.36800
C 	C 	0.66630 0.60450 0.00110 0.36100
C 	C 	0.76460 0.66450 0.99930 -0.09700
C 	C 	0.88370 0.65480 0.99300 -0.00600
C 	C 	0.95240 0.72410 0.99230 -0.00100
C 	C 	0.88390 0.78350 0.99770 -0.10500
C 	C 	0.92490 0.86360 0.99950 0.37500
S 	S 	0.26130 0.51877 0.75150 0.08800
S 	S 	0.74800 0.24774 0.49034 0.08400
S 	S 	0.72890 0.99534 0.75475 0.08400
S 	S 	0.26400 0.24332 0.99439 0.09200
S 	S 	0.73870 0.48123 0.24850 0.08800
S 	S 	0.25200 0.75226 0.50966 0.08400
S 	S 	0.27110 0.00466 0.24525 0.08400
S 	S 	0.73600 0.75668 0.00561 0.09200
O 	O 	0.50920 0.44710 0.87820 -0.40600
O 	O 	0.38240 0.53640 0.90690 -0.40200
O 	O 	0.09370 0.52980 0.62000 -0.40800
O 	O 	0.16080 0.43800 0.53300 -0.40100
O 	O 	0.84510 0.47080 0.56350 -0.40000
O 	O 	0.91340 0.37750 0.47740 -0.40400
O 	O 	0.50170 0.12550 0.56120 -0.40500
O 	O 	0.62940 0.09170 0.47510 -0.39800
O 	O 	0.69080 0.97230 0.53670 -0.39600
O 	O 	0.56210 0.00750 0.62370 -0.39900
O 	O 	0.01940 0.96190 0.87920 -0.40900
O 	O 	0.83860 0.99970 0.90910 -0.40900
O 	O 	0.43440 0.37410 0.98320 -0.40400
O 	O 	0.30490 0.46380 0.01260 -0.40300
O 	O 	0.14810 0.08860 0.98840 -0.41000
O 	O 	0.96780 0.12400 0.01610 -0.40200
O 	O 	0.49080 0.55290 0.12180 -0.40600
O 	O 	0.61760 0.46360 0.09310 -0.40200
O 	O 	0.90630 0.47020 0.38000 -0.40800
O 	O 	0.83920 0.56200 0.46700 -0.40100
O 	O 	0.15490 0.52920 0.43650 -0.40000
O 	O 	0.08660 0.62250 0.52260 -0.40400
O 	O 	0.49830 0.87450 0.43880 -0.40500
O 	O 	0.37060 0.90830 0.52490 -0.39800
O 	O 	0.30920 0.02770 0.46330 -0.39600
O 	O 	0.43790 0.99250 0.37630 -0.39900
O 	O 	0.98060 0.03810 0.12080 -0.40900
O 	O 	0.16140 0.00030 0.09090 -0.40900
O 	O 	0.56560 0.62590 0.01680 -0.40400
O 	O 	0.69510 0.53620 0.98740 -0.40300
O 	O 	0.85190 0.91140 0.01160 -0.41000
O 	O 	0.03220 0.87600 0.98390 -0.40200
