data_crystal

_cell_length_a 10.67700
_cell_length_b 18.78100
_cell_length_c 21.05200
_cell_angle_alpha 90.00000
_cell_angle_beta  102.16000
_cell_angle_gamma 90.00000

_symmetry_space_group_name_	'P 1'
_symmetry_space_group_name_H-M	'P 1'

loop_
_symmetry_equiv_pos_as_xyz
  x,y,z

loop_
_atom_site_label
_atom_site_type_symbol
_atom_site_fract_x
_atom_site_fract_y
_atom_site_fract_z
_atom_site_charge
Cu	Cu	0.65392 0.21683 0.51886 0.90800
Br	Br	0.86160 0.02930 0.62620 -0.38700
Br	Br	0.09710 0.12220 0.40030 -0.24000
Br	Br	0.74410 0.36935 0.71024 -0.29400
O 	O 	0.75370 0.23530 0.60700 -0.39000
O 	O 	0.91620 0.29180 0.57480 -0.39400
O 	O 	0.76120 0.13270 0.51490 -0.38400
O 	O 	0.92320 0.18980 0.48220 -0.39400
C 	C 	0.88500 0.23240 0.73580 0.00600
C 	C 	0.95200 0.23040 0.79880 0.05200
C 	C 	0.89290 0.31030 0.73060 0.12300
C 	C 	0.04140 0.31040 0.70330 0.01500
C 	C 	0.93100 0.27120 0.68530 -0.14300
C 	C 	0.86100 0.26570 0.61720 0.39400
C 	C 	0.91890 0.01160 0.54090 0.11600
C 	C 	0.94070 0.06500 0.50100 -0.12100
C 	C 	0.98190 0.94500 0.54110 0.11600
C 	C 	0.87080 0.13650 0.49870 0.38900
O 	O 	0.25500 0.09500 0.37950 -0.21100
N 	N 	0.21300 0.21900 0.39100 -0.26500
C 	C 	0.22300 0.16300 0.37100 0.33500
C 	C 	0.09500 0.22360 0.34880 0.01900
C 	C 	0.24200 0.27700 0.43200 0.38700
O 	O 	0.26700 0.31300 0.40700 -0.39700
N 	N 	0.21000 0.34700 0.31500 -0.12600
C 	C 	0.18000 0.28900 0.35800 0.18700
C 	C 	0.24200 0.40800 0.28600 0.17000
C 	C 	0.09500 0.31700 0.28600 0.01400
C 	C 	0.74400 0.98610 0.58300 0.22500
C 	C 	0.77700 0.06800 0.74400 -0.12400
C 	C 	0.68300 0.32300 0.75000 0.15500
C 	C 	0.84400 0.04500 0.69500 0.24500
Cu	Cu	0.15392 0.71683 0.51886 0.90900
Br	Br	0.36160 0.52930 0.62620 -0.38600
Br	Br	0.59710 0.62220 0.40030 -0.23900
Br	Br	0.24410 0.86935 0.71024 -0.29300
O 	O 	0.25370 0.73530 0.60700 -0.38900
O 	O 	0.41620 0.79180 0.57480 -0.39200
O 	O 	0.26120 0.63270 0.51490 -0.38300
O 	O 	0.42320 0.68980 0.48220 -0.39300
C 	C 	0.38500 0.73240 0.73580 0.00700
C 	C 	0.45200 0.73040 0.79880 0.05400
C 	C 	0.39290 0.81030 0.73060 0.12400
C 	C 	0.54140 0.81040 0.70330 0.01500
C 	C 	0.43100 0.77120 0.68530 -0.14200
C 	C 	0.36100 0.76570 0.61720 0.39400
C 	C 	0.41890 0.51160 0.54090 0.11600
C 	C 	0.44070 0.56500 0.50100 -0.12100
C 	C 	0.48190 0.44500 0.54110 0.11700
C 	C 	0.37080 0.63650 0.49870 0.38900
O 	O 	0.75500 0.59500 0.37950 -0.21100
N 	N 	0.71300 0.71900 0.39100 -0.26500
C 	C 	0.72300 0.66300 0.37100 0.33500
C 	C 	0.59500 0.72360 0.34880 0.01900
C 	C 	0.74200 0.77700 0.43200 0.38800
O 	O 	0.76700 0.81300 0.40700 -0.39700
N 	N 	0.71000 0.84700 0.31500 -0.12600
C 	C 	0.68000 0.78900 0.35800 0.18700
C 	C 	0.74200 0.90800 0.28600 0.17000
C 	C 	0.59500 0.81700 0.28600 0.01400
C 	C 	0.24400 0.48610 0.58300 0.22500
C 	C 	0.27700 0.56800 0.74400 -0.12400
C 	C 	0.18300 0.82300 0.75000 0.15500
C 	C 	0.34400 0.54500 0.69500 0.24500
Cu	Cu	0.34608 0.21683 0.98114 0.91000
Br	Br	0.13840 0.02930 0.87380 -0.38500
Br	Br	0.90290 0.12220 0.09970 -0.23800
Br	Br	0.25590 0.36935 0.78976 -0.29300
O 	O 	0.24630 0.23530 0.89300 -0.38800
O 	O 	0.08380 0.29180 0.92520 -0.39100
O 	O 	0.23880 0.13270 0.98510 -0.38100
O 	O 	0.07680 0.18980 0.01780 -0.39300
C 	C 	0.11500 0.23240 0.76420 0.00700
C 	C 	0.04800 0.23040 0.70120 0.05400
C 	C 	0.10710 0.31030 0.76940 0.12300
C 	C 	0.95860 0.31040 0.79670 0.01400
C 	C 	0.06900 0.27120 0.81470 -0.14000
C 	C 	0.13900 0.26570 0.88280 0.39300
C 	C 	0.08110 0.01160 0.95910 0.11600
C 	C 	0.05930 0.06500 0.99900 -0.11700
C 	C 	0.01810 0.94500 0.95890 0.11400
C 	C 	0.12920 0.13650 0.00130 0.38600
O 	O 	0.74500 0.09500 0.12050 -0.21100
N 	N 	0.78700 0.21900 0.10900 -0.26500
C 	C 	0.77700 0.16300 0.12900 0.33500
C 	C 	0.90500 0.22360 0.15120 0.01900
C 	C 	0.75800 0.27700 0.06800 0.38800
O 	O 	0.73300 0.31300 0.09300 -0.39700
N 	N 	0.79000 0.34700 0.18500 -0.12600
C 	C 	0.82000 0.28900 0.14200 0.18700
C 	C 	0.75800 0.40800 0.21400 0.17100
C 	C 	0.90500 0.31700 0.21400 0.01400
C 	C 	0.25600 0.98610 0.91700 0.22400
C 	C 	0.22300 0.06800 0.75600 -0.12400
C 	C 	0.31700 0.32300 0.75000 0.15500
C 	C 	0.15600 0.04500 0.80500 0.24500
Cu	Cu	0.84608 0.71683 0.98114 0.90900
Br	Br	0.63840 0.52930 0.87380 -0.38600
Br	Br	0.40290 0.62220 0.09970 -0.23900
Br	Br	0.75590 0.86935 0.78976 -0.29400
O 	O 	0.74630 0.73530 0.89300 -0.38900
O 	O 	0.58380 0.79180 0.92520 -0.39300
O 	O 	0.73880 0.63270 0.98510 -0.38400
O 	O 	0.57680 0.68980 0.01780 -0.39300
C 	C 	0.61500 0.73240 0.76420 0.00700
C 	C 	0.54800 0.73040 0.70120 0.05400
C 	C 	0.60710 0.81030 0.76940 0.12400
C 	C 	0.45860 0.81040 0.79670 0.01500
C 	C 	0.56900 0.77120 0.81470 -0.14200
C 	C 	0.63900 0.76570 0.88280 0.39400
C 	C 	0.58110 0.51160 0.95910 0.11600
C 	C 	0.55930 0.56500 0.99900 -0.12100
C 	C 	0.51810 0.44500 0.95890 0.11700
C 	C 	0.62920 0.63650 0.00130 0.39100
O 	O 	0.24500 0.59500 0.12050 -0.21100
N 	N 	0.28700 0.71900 0.10900 -0.26500
C 	C 	0.27700 0.66300 0.12900 0.33500
C 	C 	0.40500 0.72360 0.15120 0.01900
C 	C 	0.25800 0.77700 0.06800 0.38800
O 	O 	0.23300 0.81300 0.09300 -0.39800
N 	N 	0.29000 0.84700 0.18500 -0.12600
C 	C 	0.32000 0.78900 0.14200 0.18700
C 	C 	0.25800 0.90800 0.21400 0.17000
C 	C 	0.40500 0.81700 0.21400 0.01400
C 	C 	0.75600 0.48610 0.91700 0.22500
C 	C 	0.72300 0.56800 0.75600 -0.12400
C 	C 	0.81700 0.82300 0.75000 0.15500
C 	C 	0.65600 0.54500 0.80500 0.24500
Cu	Cu	0.34608 0.78317 0.48114 0.90900
Br	Br	0.13840 0.97070 0.37380 -0.38600
Br	Br	0.90290 0.87780 0.59970 -0.23900
Br	Br	0.25590 0.63065 0.28976 -0.29300
O 	O 	0.24630 0.76470 0.39300 -0.38900
O 	O 	0.08380 0.70820 0.42520 -0.39300
O 	O 	0.23880 0.86730 0.48510 -0.38300
O 	O 	0.07680 0.81020 0.51780 -0.39300
C 	C 	0.11500 0.76760 0.26420 0.00700
C 	C 	0.04800 0.76960 0.20120 0.05300
C 	C 	0.10710 0.68970 0.26940 0.12400
C 	C 	0.95860 0.68960 0.29670 0.01600
C 	C 	0.06900 0.72880 0.31470 -0.14300
C 	C 	0.13900 0.73430 0.38280 0.39400
C 	C 	0.08110 0.98840 0.45910 0.11600
C 	C 	0.05930 0.93500 0.49900 -0.12100
C 	C 	0.01810 0.05500 0.45890 0.11600
C 	C 	0.12920 0.86350 0.50130 0.38900
O 	O 	0.74500 0.90500 0.62050 -0.21100
N 	N 	0.78700 0.78100 0.60900 -0.26500
C 	C 	0.77700 0.83700 0.62900 0.33500
C 	C 	0.90500 0.77640 0.65120 0.01900
C 	C 	0.75800 0.72300 0.56800 0.38700
O 	O 	0.73300 0.68700 0.59300 -0.39700
N 	N 	0.79000 0.65300 0.68500 -0.12600
C 	C 	0.82000 0.71100 0.64200 0.18700
C 	C 	0.75800 0.59200 0.71400 0.17000
C 	C 	0.90500 0.68300 0.71400 0.01400
C 	C 	0.25600 0.01390 0.41700 0.22500
C 	C 	0.22300 0.93200 0.25600 -0.12400
C 	C 	0.31700 0.67700 0.25000 0.15500
C 	C 	0.15600 0.95500 0.30500 0.24500
Cu	Cu	0.84608 0.28317 0.48114 0.90900
Br	Br	0.63840 0.47070 0.37380 -0.38600
Br	Br	0.40290 0.37780 0.59970 -0.23900
Br	Br	0.75590 0.13065 0.28976 -0.29300
O 	O 	0.74630 0.26470 0.39300 -0.38900
O 	O 	0.58380 0.20820 0.42520 -0.39200
O 	O 	0.73880 0.36730 0.48510 -0.38300
O 	O 	0.57680 0.31020 0.51780 -0.39300
C 	C 	0.61500 0.26760 0.26420 0.00700
C 	C 	0.54800 0.26960 0.20120 0.05400
C 	C 	0.60710 0.18970 0.26940 0.12400
C 	C 	0.45860 0.18960 0.29670 0.01500
C 	C 	0.56900 0.22880 0.31470 -0.14200
C 	C 	0.63900 0.23430 0.38280 0.39400
C 	C 	0.58110 0.48840 0.45910 0.11600
C 	C 	0.55930 0.43500 0.49900 -0.12100
C 	C 	0.51810 0.55500 0.45890 0.11700
C 	C 	0.62920 0.36350 0.50130 0.38900
O 	O 	0.24500 0.40500 0.62050 -0.21100
N 	N 	0.28700 0.28100 0.60900 -0.26500
C 	C 	0.27700 0.33700 0.62900 0.33500
C 	C 	0.40500 0.27640 0.65120 0.01900
C 	C 	0.25800 0.22300 0.56800 0.38800
O 	O 	0.23300 0.18700 0.59300 -0.39700
N 	N 	0.29000 0.15300 0.68500 -0.12600
C 	C 	0.32000 0.21100 0.64200 0.18700
C 	C 	0.25800 0.09200 0.71400 0.17000
C 	C 	0.40500 0.18300 0.71400 0.01400
C 	C 	0.75600 0.51390 0.41700 0.22500
C 	C 	0.72300 0.43200 0.25600 -0.12400
C 	C 	0.81700 0.17700 0.25000 0.15500
C 	C 	0.65600 0.45500 0.30500 0.24500
Cu	Cu	0.65392 0.78317 0.01886 0.91000
Br	Br	0.86160 0.97070 0.12620 -0.38500
Br	Br	0.09710 0.87780 0.90030 -0.23800
Br	Br	0.74410 0.63065 0.21024 -0.29300
O 	O 	0.75370 0.76470 0.10700 -0.38800
O 	O 	0.91620 0.70820 0.07480 -0.39100
O 	O 	0.76120 0.86730 0.01490 -0.38100
O 	O 	0.92320 0.81020 0.98220 -0.39300
C 	C 	0.88500 0.76760 0.23580 0.00700
C 	C 	0.95200 0.76960 0.29880 0.05400
C 	C 	0.89290 0.68970 0.23060 0.12300
C 	C 	0.04140 0.68960 0.20330 0.01400
C 	C 	0.93100 0.72880 0.18530 -0.14000
C 	C 	0.86100 0.73430 0.11720 0.39300
C 	C 	0.91890 0.98840 0.04090 0.11600
C 	C 	0.94070 0.93500 0.00100 -0.11700
C 	C 	0.98190 0.05500 0.04110 0.11400
C 	C 	0.87080 0.86350 0.99870 0.38600
O 	O 	0.25500 0.90500 0.87950 -0.21100
N 	N 	0.21300 0.78100 0.89100 -0.26500
C 	C 	0.22300 0.83700 0.87100 0.33500
C 	C 	0.09500 0.77640 0.84880 0.01900
C 	C 	0.24200 0.72300 0.93200 0.38800
O 	O 	0.26700 0.68700 0.90700 -0.39700
N 	N 	0.21000 0.65300 0.81500 -0.12600
C 	C 	0.18000 0.71100 0.85800 0.18700
C 	C 	0.24200 0.59200 0.78600 0.17100
C 	C 	0.09500 0.68300 0.78600 0.01400
C 	C 	0.74400 0.01390 0.08300 0.22400
C 	C 	0.77700 0.93200 0.24400 -0.12400
C 	C 	0.68300 0.67700 0.25000 0.15500
C 	C 	0.84400 0.95500 0.19500 0.24500
Cu	Cu	0.15392 0.28317 0.01886 0.90900
Br	Br	0.36160 0.47070 0.12620 -0.38600
Br	Br	0.59710 0.37780 0.90030 -0.23900
Br	Br	0.24410 0.13065 0.21024 -0.29400
O 	O 	0.25370 0.26470 0.10700 -0.38900
O 	O 	0.41620 0.20820 0.07480 -0.39300
O 	O 	0.26120 0.36730 0.01490 -0.38400
O 	O 	0.42320 0.31020 0.98220 -0.39300
C 	C 	0.38500 0.26760 0.23580 0.00700
C 	C 	0.45200 0.26960 0.29880 0.05400
C 	C 	0.39290 0.18970 0.23060 0.12400
C 	C 	0.54140 0.18960 0.20330 0.01500
C 	C 	0.43100 0.22880 0.18530 -0.14200
C 	C 	0.36100 0.23430 0.11720 0.39400
C 	C 	0.41890 0.48840 0.04090 0.11600
C 	C 	0.44070 0.43500 0.00100 -0.12100
C 	C 	0.48190 0.55500 0.04110 0.11700
C 	C 	0.37080 0.36350 0.99870 0.39100
O 	O 	0.75500 0.40500 0.87950 -0.21100
N 	N 	0.71300 0.28100 0.89100 -0.26500
C 	C 	0.72300 0.33700 0.87100 0.33500
C 	C 	0.59500 0.27640 0.84880 0.01900
C 	C 	0.74200 0.22300 0.93200 0.38800
O 	O 	0.76700 0.18700 0.90700 -0.39800
N 	N 	0.71000 0.15300 0.81500 -0.12600
C 	C 	0.68000 0.21100 0.85800 0.18700
C 	C 	0.74200 0.09200 0.78600 0.17000
C 	C 	0.59500 0.18300 0.78600 0.01400
C 	C 	0.24400 0.51390 0.08300 0.22500
C 	C 	0.27700 0.43200 0.24400 -0.12400
C 	C 	0.18300 0.17700 0.25000 0.15500
C 	C 	0.34400 0.45500 0.19500 0.24500
