data_crystal

_cell_length_a 5.64370
_cell_length_b 9.15070
_cell_length_c 12.83570
_cell_angle_alpha 90.00000
_cell_angle_beta  90.00000
_cell_angle_gamma 95.89200

_symmetry_space_group_name_	'P 1'
_symmetry_space_group_name_H-M	'P 1'

loop_
_symmetry_equiv_pos_as_xyz
  x,y,z

loop_
_atom_site_label
_atom_site_type_symbol
_atom_site_fract_x
_atom_site_fract_y
_atom_site_fract_z
_atom_site_charge
Cu	Cu	0.01236 0.53936 0.11172 0.93500
Cu	Cu	0.98764 0.96064 0.61172 0.98200
Cu	Cu	0.98764 0.46064 0.88828 0.96000
Cu	Cu	0.01236 0.03936 0.38828 0.91500
Cu	Cu	0.50000 0.00000 0.50000 0.89600
Cu	Cu	0.50000 0.50000 -0.00000 0.89300
H 	H 	0.77700 0.83900 0.46700 0.43300
H 	H 	0.22300 0.66100 0.96700 0.46400
H 	H 	0.22300 0.16100 0.53300 0.47500
H 	H 	0.77700 0.33900 0.03300 0.44300
C 	C 	0.36670 0.75860 0.21143 0.08200
C 	C 	0.46000 0.86050 0.29159 0.08800
C 	C 	0.69390 0.87480 0.24292 0.06700
C 	C 	0.60510 0.76740 0.16248 0.08100
C 	C 	0.63330 0.74140 0.71143 0.09900
C 	C 	0.54000 0.63950 0.79159 0.08000
C 	C 	0.30610 0.62520 0.74292 0.07400
C 	C 	0.39490 0.73260 0.66248 0.08300
C 	C 	0.63330 0.24140 0.78857 0.09000
C 	C 	0.54000 0.13950 0.70841 0.06900
C 	C 	0.30610 0.12520 0.75708 0.06500
C 	C 	0.39490 0.23260 0.83752 0.07300
C 	C 	0.36670 0.25860 0.28857 0.07200
C 	C 	0.46000 0.36050 0.20841 0.07800
C 	C 	0.69390 0.37480 0.25708 0.05700
C 	C 	0.60510 0.26740 0.33752 0.07100
O 	O 	0.16350 0.69460 0.19792 -0.30500
O 	O 	0.36200 0.90940 0.37197 -0.32200
O 	O 	0.89160 0.94790 0.25912 -0.26200
O 	O 	0.69520 0.70690 0.08709 -0.33100
O 	O 	0.80590 0.91582 0.48290 -0.84700
O 	O 	0.83650 0.80540 0.69792 -0.28800
O 	O 	0.63800 0.59060 0.87197 -0.32800
O 	O 	0.10840 0.55210 0.75912 -0.28200
O 	O 	0.30480 0.79310 0.58709 -0.28100
O 	O 	0.19410 0.58418 0.98290 -0.83800
O 	O 	0.83650 0.30540 0.80208 -0.30500
O 	O 	0.63800 0.09060 0.62803 -0.39200
O 	O 	0.10840 0.05210 0.74088 -0.31900
O 	O 	0.30480 0.29310 0.91291 -0.27100
O 	O 	0.19410 0.08418 0.51710 -0.95900
O 	O 	0.16350 0.19460 0.30208 -0.32400
O 	O 	0.36200 0.40940 0.12803 -0.38900
O 	O 	0.89160 0.44790 0.24088 -0.29800
O 	O 	0.69520 0.20690 0.41291 -0.32400
O 	O 	0.80590 0.41582 0.01710 -0.96000
