data_crystal

_cell_length_a 9.33480
_cell_length_b 9.36060
_cell_length_c 13.00090
_cell_angle_alpha 90.00000
_cell_angle_beta  90.00000
_cell_angle_gamma 91.28200

_symmetry_space_group_name_	'P 1'
_symmetry_space_group_name_H-M	'P 1'

loop_
_symmetry_equiv_pos_as_xyz
  x,y,z

loop_
_atom_site_label
_atom_site_type_symbol
_atom_site_fract_x
_atom_site_fract_y
_atom_site_fract_z
_atom_site_charge
Mn	Mn	0.78361 0.51438 0.75730 1.22800
Mn	Mn	0.71639 0.98562 0.25730 1.25400
Mn	Mn	0.50000 0.00000 0.50000 1.21900
Mn	Mn	0.21639 0.48562 0.24270 1.21800
Mn	Mn	0.28361 0.01438 0.74270 1.18700
Mn	Mn	-0.00000 0.50000 -0.00000 1.19500
H 	H 	0.48580 0.41920 0.87300 0.18500
H 	H 	0.01940 0.15210 0.59150 0.08800
H 	H 	0.36720 0.31050 0.86660 0.16000
H 	H 	0.01420 0.08080 0.37300 0.12600
H 	H 	0.51940 0.65210 0.90850 0.19700
H 	H 	0.13280 0.18950 0.36660 0.12900
H 	H 	0.48060 0.34790 0.09150 0.14000
H 	H 	0.09640 0.74130 0.40220 0.15200
H 	H 	0.59640 0.24130 0.09780 0.10300
H 	H 	0.86720 0.81050 0.63340 0.16100
H 	H 	0.90360 0.25870 0.59780 0.12300
H 	H 	0.98060 0.84790 0.40850 0.23600
H 	H 	0.51420 0.58080 0.12700 0.15300
H 	H 	0.40360 0.75870 0.90220 0.17700
H 	H 	0.63280 0.68950 0.13340 0.13000
H 	H 	0.98580 0.91920 0.62700 0.20900
C 	C 	0.00300 0.79470 0.74420 0.15300
C 	C 	0.01470 0.24830 0.72320 0.10200
C 	C 	0.98530 0.75170 0.27680 0.27700
C 	C 	0.48530 0.25170 0.22320 0.17500
C 	C 	0.51470 0.74830 0.77680 0.21700
C 	C 	0.99700 0.20530 0.25580 0.25500
C 	C 	0.49700 0.70530 0.24420 0.19100
C 	C 	0.50300 0.29470 0.75580 0.19700
N 	N 	0.44500 0.34790 0.84230 -0.35300
N 	N 	0.62220 0.34710 0.71082 -0.23900
N 	N 	0.12970 0.25100 0.86567 -0.08600
N 	N 	0.47170 0.15690 0.37169 -0.18500
N 	N 	0.54770 0.15490 0.28280 -0.25600
N 	N 	0.96150 0.32910 0.12065 -0.15700
N 	N 	0.87780 0.15290 0.21082 -0.26400
N 	N 	0.37780 0.65290 0.28918 -0.24000
N 	N 	0.05130 0.31550 0.20207 -0.30000
N 	N 	0.94870 0.68450 0.79793 -0.20600
N 	N 	0.97430 0.21570 0.62560 -0.25400
N 	N 	0.04770 0.65490 0.21720 -0.28600
N 	N 	0.87570 0.81280 0.22752 -0.23700
N 	N 	0.02830 0.34310 0.87169 -0.17500
N 	N 	0.87030 0.74900 0.13433 -0.09600
N 	N 	0.94500 0.84790 0.65770 -0.32900
N 	N 	0.52830 0.84310 0.62831 -0.15200
N 	N 	0.03850 0.67090 0.87935 -0.16200
N 	N 	0.64130 0.26610 0.62564 -0.08000
N 	N 	0.55130 0.81550 0.29793 -0.23700
N 	N 	0.46150 0.82910 0.37935 -0.15100
N 	N 	0.47430 0.71570 0.87440 -0.35500
N 	N 	0.12430 0.18720 0.77248 -0.23700
N 	N 	0.12220 0.84710 0.78918 -0.21400
N 	N 	0.62970 0.75100 0.63433 -0.08200
N 	N 	0.14130 0.76610 0.87436 -0.05700
N 	N 	0.02570 0.78430 0.37440 -0.41700
N 	N 	0.35870 0.73390 0.37436 -0.08100
N 	N 	0.55500 0.65210 0.15770 -0.34000
N 	N 	0.53850 0.17090 0.62065 -0.18000
N 	N 	0.62430 0.68720 0.72752 -0.23400
N 	N 	0.95230 0.34510 0.78280 -0.19200
N 	N 	0.05500 0.15210 0.34230 -0.37200
N 	N 	0.37570 0.31280 0.27248 -0.24000
N 	N 	0.37030 0.24900 0.36567 -0.10000
N 	N 	0.45230 0.84510 0.71720 -0.22400
N 	N 	0.97170 0.65690 0.12831 -0.15700
N 	N 	0.52570 0.28430 0.12560 -0.33200
N 	N 	0.85870 0.23390 0.12564 -0.10000
N 	N 	0.44870 0.18450 0.70207 -0.25900
Cl	Cl	0.76598 0.00736 0.45163 -0.74000
Cl	Cl	0.26598 0.50736 0.04837 -0.76300
Cl	Cl	0.23402 0.99264 0.54837 -0.61500
Cl	Cl	0.73402 0.49264 0.95163 -0.60100
