data_crystal

_cell_length_a 19.73900
_cell_length_b 28.42450
_cell_length_c 28.42450
_cell_angle_alpha 61.59500
_cell_angle_beta  69.68270
_cell_angle_gamma 69.68270

_symmetry_space_group_name_	'P 1'
_symmetry_space_group_name_H-M	'P 1'

loop_
_symmetry_equiv_pos_as_xyz
  x,y,z

loop_
_atom_site_label
_atom_site_type_symbol
_atom_site_fract_x
_atom_site_fract_y
_atom_site_fract_z
_atom_site_charge
Zn	Zn	0.96710 0.28290 0.78290 1.19900
Zn	Zn	0.35227 0.94364 0.80266 1.18000
Zn	Zn	0.24091 0.89574 0.89574 1.17900
Zn	Zn	0.20575 0.59295 0.59295 1.20900
Zn	Zn	0.96710 0.78290 0.28290 1.19900
Zn	Zn	0.96761 0.39574 0.39574 1.17900
Zn	Zn	0.64242 0.55064 0.68078 1.23200
Zn	Zn	0.58512 0.57581 0.57582 1.22000
Zn	Zn	0.87384 0.94936 0.81922 1.23200
Zn	Zn	0.12616 0.18078 0.05064 1.23200
Zn	Zn	0.35227 0.80266 0.94364 1.18000
Zn	Zn	0.80749 0.52066 0.01445 1.19600
Zn	Zn	0.09857 0.55636 0.69734 1.18000
Zn	Zn	0.26326 0.07581 0.07581 1.22000
Zn	Zn	0.19251 0.47934 0.98555 1.19600
Zn	Zn	0.39165 0.90705 0.90705 1.20900
Zn	Zn	0.03290 0.21710 0.71710 1.19900
Zn	Zn	0.60835 0.09295 0.09295 1.20900
Zn	Zn	0.73674 0.92419 0.92419 1.22000
Zn	Zn	0.75909 0.10426 0.10426 1.17900
Zn	Zn	0.90143 0.44364 0.30266 1.18000
Zn	Zn	0.64242 0.68078 0.55064 1.23200
Zn	Zn	0.35758 0.31922 0.44936 1.23100
Zn	Zn	0.34260 0.48555 0.97935 1.19600
Zn	Zn	0.03290 0.71710 0.21710 1.19800
Zn	Zn	0.41488 0.42419 0.42418 1.21900
Zn	Zn	0.12616 0.05064 0.18078 1.23100
Zn	Zn	0.87384 0.81922 0.94936 1.23100
Zn	Zn	0.79425 0.40705 0.40705 1.20800
Zn	Zn	0.80750 0.01445 0.52065 1.19500
Zn	Zn	0.03239 0.60426 0.60426 1.17800
Zn	Zn	0.65739 0.02066 0.51445 1.19600
Zn	Zn	0.34261 0.97934 0.48555 1.19600
Zn	Zn	0.35758 0.44936 0.31922 1.23100
Zn	Zn	0.90143 0.30266 0.44364 1.17900
Zn	Zn	0.65740 0.51445 0.02065 1.19600
Zn	Zn	0.09857 0.69734 0.55636 1.17900
Zn	Zn	0.19250 0.98555 0.47935 1.19500
Zn	Zn	0.64773 0.05636 0.19734 1.17900
Zn	Zn	0.64773 0.19734 0.05636 1.17900
H 	H 	0.76260 0.97890 0.69510 0.02600
H 	H 	0.43660 0.52110 0.80490 0.02600
H 	H 	0.76260 0.69510 0.97890 0.02600
H 	H 	0.17330 0.42360 0.29240 0.03100
H 	H 	0.20190 0.60210 0.31270 0.02700
H 	H 	0.72410 0.06080 0.94860 0.03100
H 	H 	0.88330 0.81270 0.10210 0.02700
H 	H 	0.88330 0.10210 0.81270 0.02700
H 	H 	0.11070 0.79240 0.92360 0.03100
H 	H 	0.56670 0.68880 0.97280 0.01600
H 	H 	0.43330 0.02720 0.31120 0.01600
H 	H 	0.39840 0.05660 0.16820 0.02200
H 	H 	0.79810 0.39790 0.68730 0.02700
H 	H 	0.69070 0.54410 0.85610 0.02200
H 	H 	0.37680 0.55660 0.66820 0.02200
H 	H 	0.82670 0.57640 0.70760 0.03100
H 	H 	0.80810 0.90520 0.18920 0.01800
H 	H 	0.90250 0.59480 0.31080 0.01700
H 	H 	0.11670 0.18730 0.89790 0.02700
H 	H 	0.28850 0.66670 0.94070 0.02400
H 	H 	0.73350 0.43920 0.55140 0.03100
H 	H 	0.10410 0.16670 0.44070 0.02500
H 	H 	0.69070 0.85610 0.54410 0.02200
H 	H 	0.09090 0.95590 0.64390 0.02200
H 	H 	0.90910 0.35610 0.04410 0.02200
H 	H 	0.88930 0.07640 0.20760 0.03100
H 	H 	0.56670 0.97280 0.68880 0.01600
H 	H 	0.11070 0.92360 0.79240 0.03100
H 	H 	0.56340 0.19510 0.47890 0.02600
H 	H 	0.56340 0.47890 0.19510 0.02600
H 	H 	0.60160 0.94340 0.83180 0.02200
H 	H 	0.30930 0.14390 0.45590 0.02200
H 	H 	0.30930 0.45590 0.14390 0.02200
H 	H 	0.89590 0.55930 0.83330 0.02500
H 	H 	0.23740 0.02110 0.30490 0.02600
H 	H 	0.10410 0.44070 0.16670 0.02500
H 	H 	0.20190 0.31270 0.60210 0.02700
H 	H 	0.27590 0.05140 0.93920 0.03100
H 	H 	0.19190 0.09480 0.81080 0.01800
H 	H 	0.26650 0.44860 0.56080 0.03100
H 	H 	0.80810 0.18920 0.90520 0.01800
H 	H 	0.77170 0.18880 0.47280 0.01600
H 	H 	0.27590 0.93920 0.05140 0.03100
H 	H 	0.22830 0.81120 0.52720 0.01600
H 	H 	0.90910 0.04410 0.35610 0.02200
H 	H 	0.72410 0.94860 0.06080 0.03100
H 	H 	0.88930 0.20760 0.07640 0.03100
H 	H 	0.71150 0.05930 0.33330 0.02400
H 	H 	0.71150 0.33330 0.05930 0.02400
H 	H 	0.39840 0.16820 0.05660 0.02200
H 	H 	0.82670 0.70760 0.57640 0.03100
H 	H 	0.62320 0.44340 0.33180 0.02200
H 	H 	0.22830 0.52720 0.81120 0.01600
H 	H 	0.62320 0.33180 0.44340 0.02200
H 	H 	0.89590 0.83330 0.55930 0.02500
H 	H 	0.37680 0.66820 0.55660 0.02200
H 	H 	0.09750 0.68920 0.40520 0.01700
H 	H 	0.43660 0.80490 0.52110 0.02600
H 	H 	0.09750 0.40520 0.68920 0.01700
H 	H 	0.17330 0.29240 0.42360 0.03100
H 	H 	0.43330 0.31120 0.02720 0.01600
H 	H 	0.19190 0.81080 0.09480 0.01800
H 	H 	0.60160 0.83180 0.94340 0.02200
H 	H 	0.90250 0.31080 0.59480 0.01700
H 	H 	0.11670 0.89790 0.18730 0.02700
H 	H 	0.73350 0.55140 0.43920 0.03100
H 	H 	0.79810 0.68730 0.39790 0.02700
H 	H 	0.09090 0.64390 0.95590 0.02200
H 	H 	0.28850 0.94070 0.66670 0.02400
H 	H 	0.77170 0.47280 0.18880 0.01600
H 	H 	0.23740 0.30490 0.02110 0.02600
H 	H 	0.26650 0.56080 0.44860 0.03100
C 	C 	0.76454 0.29504 0.44308 0.46600
C 	C 	0.19717 0.12848 0.97398 0.42500
C 	C 	0.80741 0.89879 0.16019 0.08700
C 	C 	0.80741 0.16019 0.89879 0.08700
C 	C 	0.28527 0.28748 0.02658 0.10400
C 	C 	0.77137 0.41358 0.03968 0.41800
C 	C 	0.23493 0.58332 0.42462 0.09000
C 	C 	0.75713 0.08332 0.92462 0.09100
C 	C 	0.81815 0.56904 0.74446 0.07600
C 	C 	0.14093 0.18027 0.44047 0.08900
C 	C 	0.61853 0.79450 0.95144 0.10900
C 	C 	0.81815 0.74446 0.56904 0.07600
C 	C 	0.67081 0.18227 0.47891 -0.16700
C 	C 	0.61853 0.95144 0.79450 0.10900
C 	C 	0.77537 0.53968 0.91358 0.41800
C 	C 	0.13165 0.93096 0.75554 0.07500
C 	C 	0.30556 0.00523 0.37865 0.41700
C 	C 	0.40218 0.03053 0.29111 0.11500
C 	C 	0.30944 0.04019 0.23153 -0.16800
C 	C 	0.58116 0.45981 0.26847 -0.16800
C 	C 	0.36447 0.70550 0.54856 0.10900
C 	C 	0.75031 0.77939 0.55879 -0.13500
C 	C 	0.14566 0.84808 0.14760 -0.16100
C 	C 	0.24969 0.44121 0.22061 -0.13500
C 	C 	0.82054 0.56446 0.37446 -0.14200
C 	C 	0.80407 0.05112 0.35434 -0.15500
C 	C 	0.80253 0.87922 0.07432 -0.16300
C 	C 	0.23833 0.94047 0.68027 0.08800
C 	C 	0.16808 0.48702 0.63242 0.35400
C 	C 	0.20953 0.14566 0.44888 -0.15500
C 	C 	0.31056 0.50523 0.87865 0.41700
C 	C 	0.79047 0.55112 0.85434 -0.15500
C 	C 	0.80340 0.65680 0.39160 0.09600
C 	C 	0.09311 0.81162 0.18576 0.43400
C 	C 	0.99400 0.25830 0.05290 0.34400
C 	C 	0.59782 0.70889 0.96947 0.11500
C 	C 	0.83192 0.51298 0.36758 0.35400
C 	C 	0.08849 0.94121 0.72061 -0.13400
C 	C 	0.28527 0.02658 0.28748 0.10400
C 	C 	0.13361 0.66019 0.39879 0.08700
C 	C 	0.50404 0.45276 0.30336 0.44600
C 	C 	0.85907 0.81973 0.55953 0.08900
C 	C 	0.18185 0.43096 0.25554 0.07600
C 	C 	0.66801 0.68227 0.97891 -0.16700
C 	C 	0.25022 0.92450 0.77246 0.39100
C 	C 	0.18185 0.25554 0.43096 0.07600
C 	C 	0.90951 0.68576 0.31162 0.43400
C 	C 	0.57209 0.76510 0.95512 -0.18900
C 	C 	0.68944 0.49477 0.12135 0.41700
C 	C 	0.70037 0.47398 0.62848 0.42500
C 	C 	0.79330 0.26535 0.06825 -0.14800
C 	C 	0.80253 0.07432 0.87922 -0.16300
C 	C 	0.50266 0.20496 0.05692 0.46600
C 	C 	0.75031 0.55879 0.77939 -0.13500
C 	C 	0.32919 0.52109 0.81773 -0.16700
C 	C 	0.85866 0.64760 0.34808 -0.16100
C 	C 	0.14134 0.65192 0.35240 -0.16100
C 	C 	0.86639 0.60121 0.33981 0.08700
C 	C 	0.17946 0.62554 0.43554 -0.14200
C 	C 	0.14566 0.14760 0.84808 -0.16100
C 	C 	0.69480 0.75830 0.55290 0.34800
C 	C 	0.16808 0.63242 0.48702 0.35400
C 	C 	0.85434 0.85240 0.15192 -0.16100
C 	C 	0.79330 0.06825 0.26535 -0.14800
C 	C 	0.17946 0.43554 0.62554 -0.14200
C 	C 	0.77537 0.91358 0.53968 0.41800
C 	C 	0.69056 0.76847 0.95981 -0.16800
C 	C 	0.73984 0.80336 0.95276 0.44600
C 	C 	0.12690 0.23465 0.43175 -0.14900
C 	C 	0.67081 0.47891 0.18227 -0.16700
C 	C 	0.14820 0.15680 0.89160 0.09600
C 	C 	0.29231 0.54488 0.73490 -0.18900
C 	C 	0.22863 0.58642 0.96032 0.41800
C 	C 	0.32919 0.81773 0.52109 -0.16700
C 	C 	0.41884 0.73153 0.54019 -0.16800
C 	C 	0.19747 0.92568 0.12078 -0.16300
C 	C 	0.05282 0.42450 0.27246 0.39100
C 	C 	0.50404 0.30336 0.45276 0.44600
C 	C 	0.85180 0.84320 0.10840 0.09600
C 	C 	0.86835 0.24446 0.06904 0.07500
C 	C 	0.14093 0.44047 0.18027 0.08900
C 	C 	0.83192 0.36758 0.51298 0.35400
C 	C 	0.24054 0.87446 0.06446 -0.14300
C 	C 	0.13361 0.39879 0.66019 0.08700
C 	C 	0.76507 0.57538 0.41668 0.09000
C 	C 	0.20953 0.44888 0.14566 -0.15500
C 	C 	0.49596 0.54724 0.69664 0.44600
C 	C 	0.09049 0.68838 0.31424 0.43400
C 	C 	0.19593 0.64566 0.94888 -0.15500
C 	C 	0.74978 0.07550 0.22754 0.39100
C 	C 	0.24287 0.91668 0.07538 0.09100
C 	C 	0.40218 0.29111 0.03053 0.11500
C 	C 	0.41884 0.54019 0.73153 -0.16800
C 	C 	0.23546 0.70496 0.55692 0.46600
C 	C 	0.49734 0.79504 0.94308 0.46600
C 	C 	0.85434 0.15192 0.85240 -0.16100
C 	C 	0.38147 0.20550 0.04856 0.10900
C 	C 	0.26353 0.16667 0.44967 0.08200
C 	C 	0.85907 0.55953 0.81973 0.08900
C 	C 	0.22463 0.08642 0.46032 0.41800
C 	C 	0.26016 0.04724 0.19664 0.44600
C 	C 	0.08849 0.72061 0.94121 -0.13400
C 	C 	0.26016 0.19664 0.04724 0.44600
C 	C 	0.25022 0.77246 0.92450 0.39100
C 	C 	0.70769 0.26510 0.45512 -0.18900
C 	C 	0.75713 0.92462 0.08332 0.09100
C 	C 	0.69444 0.99477 0.62135 0.41700
C 	C 	0.75946 0.93554 0.12554 -0.14300
C 	C 	0.29231 0.73490 0.54488 -0.18900
C 	C 	0.71248 0.13242 0.98702 0.35600
C 	C 	0.33199 0.31773 0.02109 -0.16700
C 	C 	0.75607 0.42568 0.62078 -0.16300
C 	C 	0.23493 0.42462 0.58332 0.09000
C 	C 	0.19660 0.60840 0.34320 0.09600
C 	C 	0.30556 0.37865 0.00523 0.41700
C 	C 	0.59933 0.21252 0.47342 0.10400
C 	C 	0.12013 0.66667 0.94967 0.08100
C 	C 	0.75946 0.12554 0.93554 -0.14300
C 	C 	0.09311 0.18576 0.81162 0.43400
C 	C 	0.82054 0.37446 0.56446 -0.14200
C 	C 	0.85866 0.34808 0.64760 -0.16100
C 	C 	0.63553 0.45144 0.29450 0.10900
C 	C 	0.26353 0.44967 0.16667 0.08200
C 	C 	0.27618 0.79111 0.53053 0.11500
C 	C 	0.90689 0.81424 0.18838 0.43400
C 	C 	0.80340 0.39160 0.65680 0.09600
C 	C 	0.90689 0.18838 0.81424 0.43400
C 	C 	0.30520 0.24170 0.44710 0.34800
C 	C 	0.00600 0.94710 0.74170 0.34400
C 	C 	0.19593 0.94888 0.64566 -0.15500
C 	C 	0.71473 0.97342 0.71252 0.10400
C 	C 	0.38147 0.04856 0.20550 0.10900
C 	C 	0.42791 0.23490 0.04488 -0.18900
C 	C 	0.22463 0.46032 0.08642 0.41800
C 	C 	0.19259 0.10121 0.83981 0.08700
C 	C 	0.33199 0.02109 0.31773 -0.16700
C 	C 	0.40067 0.52658 0.78748 0.10400
C 	C 	0.73647 0.55033 0.83333 0.08200
C 	C 	0.24393 0.57432 0.37922 -0.16300
C 	C 	0.70769 0.45512 0.26510 -0.18900
C 	C 	0.73647 0.83333 0.55033 0.08200
C 	C 	0.80283 0.87152 0.02602 0.42500
C 	C 	0.87987 0.33333 0.05033 0.08100
C 	C 	0.19259 0.83981 0.10121 0.08700
C 	C 	0.22863 0.96032 0.58642 0.41800
C 	C 	0.23546 0.55692 0.70496 0.46600
C 	C 	0.19747 0.12078 0.92568 -0.16300
C 	C 	0.30944 0.23153 0.04019 -0.16800
C 	C 	0.29963 0.37152 0.52602 0.42400
C 	C 	0.40067 0.78748 0.52658 0.10400
C 	C 	0.24287 0.07538 0.91668 0.09100
C 	C 	0.12690 0.43175 0.23465 -0.14900
C 	C 	0.79047 0.85434 0.55112 -0.15500
C 	C 	0.14820 0.89160 0.15680 0.09600
C 	C 	0.30520 0.44710 0.24170 0.34800
C 	C 	0.85180 0.10840 0.84320 0.09600
C 	C 	0.28752 0.86758 0.01298 0.35600
C 	C 	0.71248 0.98702 0.13242 0.35600
C 	C 	0.76167 0.05953 0.31973 0.08800
C 	C 	0.57209 0.95512 0.76510 -0.18900
C 	C 	0.66801 0.97891 0.68227 -0.16700
C 	C 	0.72382 0.20889 0.46947 0.11500
C 	C 	0.77137 0.03968 0.41358 0.41800
C 	C 	0.71473 0.71252 0.97342 0.10400
C 	C 	0.19660 0.34320 0.60840 0.09600
C 	C 	0.76454 0.44308 0.29504 0.46600
C 	C 	0.58116 0.26847 0.45981 -0.16800
C 	C 	0.24393 0.37922 0.57432 -0.16300
C 	C 	0.20670 0.93175 0.73465 -0.14800
C 	C 	0.86835 0.06904 0.24446 0.07500
C 	C 	0.59782 0.96947 0.70889 0.11500
C 	C 	0.90951 0.31162 0.68576 0.43400
C 	C 	0.29963 0.52602 0.37152 0.42500
C 	C 	0.49734 0.94308 0.79504 0.46600
C 	C 	0.36447 0.54856 0.70550 0.10900
C 	C 	0.87987 0.05033 0.33333 0.08100
C 	C 	0.14134 0.35240 0.65192 -0.16100
C 	C 	0.23833 0.68027 0.94047 0.08800
C 	C 	0.80407 0.35434 0.05112 -0.15500
C 	C 	0.42791 0.04488 0.23490 -0.18900
C 	C 	0.70037 0.62848 0.47398 0.42400
C 	C 	0.74978 0.22754 0.07550 0.39100
C 	C 	0.24969 0.22061 0.44121 -0.13500
C 	C 	0.80283 0.02602 0.87152 0.42500
C 	C 	0.76507 0.41668 0.57538 0.09000
C 	C 	0.91151 0.05879 0.27939 -0.13400
C 	C 	0.91151 0.27939 0.05879 -0.13400
C 	C 	0.12013 0.94967 0.66667 0.08100
C 	C 	0.87310 0.76535 0.56825 -0.14900
C 	C 	0.50266 0.05692 0.20496 0.46600
C 	C 	0.20670 0.73465 0.93175 -0.14800
C 	C 	0.00600 0.74170 0.94710 0.34400
C 	C 	0.19717 0.97398 0.12848 0.42500
C 	C 	0.27618 0.53053 0.79111 0.11500
C 	C 	0.76167 0.31973 0.05953 0.08800
C 	C 	0.87310 0.56825 0.76535 -0.14900
C 	C 	0.28752 0.01298 0.86758 0.35600
C 	C 	0.49596 0.69664 0.54724 0.44600
C 	C 	0.73984 0.95276 0.80336 0.44600
C 	C 	0.13165 0.75554 0.93096 0.07500
C 	C 	0.63553 0.29450 0.45144 0.10900
C 	C 	0.94718 0.57550 0.72754 0.39100
C 	C 	0.86639 0.33981 0.60121 0.08700
C 	C 	0.31056 0.87865 0.50523 0.41700
C 	C 	0.05282 0.27246 0.42450 0.39100
C 	C 	0.24054 0.06446 0.87446 -0.14300
C 	C 	0.09049 0.31424 0.68838 0.43400
C 	C 	0.72382 0.46947 0.20889 0.11500
C 	C 	0.99400 0.05290 0.25830 0.34400
C 	C 	0.69444 0.62135 0.99477 0.41700
C 	C 	0.69056 0.95981 0.76847 -0.16800
C 	C 	0.68944 0.12135 0.49477 0.41700
C 	C 	0.75607 0.62078 0.42568 -0.16300
C 	C 	0.69480 0.55290 0.75830 0.34800
C 	C 	0.59933 0.47342 0.21252 0.10400
C 	C 	0.94718 0.72754 0.57550 0.39100
O 	O 	0.70444 0.04039 0.43147 -0.46900
O 	O 	0.03630 0.01700 0.29360 -0.27500
O 	O 	0.69018 0.05602 0.25062 -0.47800
O 	O 	0.09537 0.51043 0.64283 -0.49000
O 	O 	0.17630 0.45961 0.06853 -0.46900
O 	O 	0.21797 0.91902 0.81928 -0.50000
O 	O 	0.78671 0.48624 0.39274 -0.48400
O 	O 	0.71052 0.84961 0.94835 -0.50100
O 	O 	0.09445 0.17464 0.77432 -0.49600
O 	O 	0.76007 0.99931 0.60043 -0.47900
O 	O 	0.85223 0.01675 0.83139 -0.46500
O 	O 	0.34690 0.20640 0.48300 -0.27700
O 	O 	0.96370 0.70640 0.98300 -0.27500
O 	O 	0.21329 0.60726 0.51376 -0.48400
O 	O 	0.50848 0.65039 0.55165 -0.50100
O 	O 	0.75458 0.50142 0.09622 -0.47600
O 	O 	0.65310 0.51700 0.79360 -0.27700
O 	O 	0.00318 0.55602 0.75062 -0.47900
O 	O 	0.64019 0.49931 0.10043 -0.48000
O 	O 	0.04373 0.31928 0.41902 -0.50000
O 	O 	0.45968 0.45451 0.27945 -0.49400
O 	O 	0.49152 0.44835 0.34961 -0.50100
O 	O 	0.90124 0.32202 0.72600 -0.47500
O 	O 	0.04341 0.72568 0.32536 -0.49600
O 	O 	0.24490 0.09847 0.99973 -0.47800
O 	O 	0.64019 0.10043 0.49931 -0.48000
O 	O 	0.25548 0.56338 0.65732 -0.51000
O 	O 	0.97933 0.79018 0.93508 -0.46900
O 	O 	0.85233 0.89577 0.89577 -0.66800
O 	O 	0.29541 0.43508 0.29018 -0.47100
O 	O 	0.90463 0.35717 0.48957 -0.49000
O 	O 	0.24863 0.98957 0.85717 -0.49200
O 	O 	0.82789 0.44811 0.26791 -0.52600
O 	O 	0.03630 0.29360 0.01700 -0.27500
O 	O 	0.05074 0.22600 0.82202 -0.47500
O 	O 	0.54391 0.05189 0.23209 -0.52600
O 	O 	0.65417 0.12199 0.12199 -0.89700
O 	O 	0.30982 0.74938 0.94398 -0.47800
O 	O 	0.19364 0.04549 0.22055 -0.49400
O 	O 	0.24542 0.90378 0.49858 -0.47600
O 	O 	0.95659 0.67464 0.27432 -0.49600
O 	O 	0.24863 0.85717 0.98957 -0.49200
O 	O 	0.85223 0.83139 0.01675 -0.46500
O 	O 	0.45609 0.76791 0.94811 -0.52600
O 	O 	0.81650 0.44214 0.02886 -0.49000
O 	O 	0.33431 0.98624 0.89274 -0.48600
O 	O 	0.14777 0.98325 0.16861 -0.46500
O 	O 	0.71250 0.52886 0.94214 -0.49000
O 	O 	0.94926 0.17798 0.77400 -0.47500
O 	O 	0.75137 0.14283 0.01043 -0.49200
O 	O 	0.17211 0.73209 0.55189 -0.52600
O 	O 	0.34583 0.87801 0.87801 -0.89700
O 	O 	0.29556 0.95961 0.56853 -0.46900
O 	O 	0.78203 0.18072 0.08098 -0.50000
O 	O 	0.54032 0.72055 0.54549 -0.49400
O 	O 	0.94926 0.77400 0.17798 -0.47500
O 	O 	0.47618 0.93662 0.84268 -0.51100
O 	O 	0.80636 0.95451 0.77945 -0.49400
O 	O 	0.02067 0.20982 0.06492 -0.46900
O 	O 	0.70444 0.43147 0.04039 -0.46900
O 	O 	0.19364 0.22055 0.04549 -0.49400
O 	O 	0.23993 0.00069 0.39957 -0.47900
O 	O 	0.34310 0.50027 0.40153 -0.47800
O 	O 	0.52382 0.06338 0.15732 -0.51100
O 	O 	0.97933 0.93508 0.79018 -0.46900
O 	O 	0.74452 0.43662 0.34268 -0.51000
O 	O 	0.64778 0.59622 0.00142 -0.47600
O 	O 	0.21329 0.51376 0.60726 -0.48400
O 	O 	0.29556 0.56853 0.95961 -0.46900
O 	O 	0.65690 0.49973 0.59847 -0.47800
O 	O 	0.18350 0.55786 0.97114 -0.49000
O 	O 	0.35981 0.89957 0.50069 -0.48000
O 	O 	0.90463 0.48957 0.35717 -0.49000
O 	O 	0.71250 0.94214 0.52886 -0.49000
O 	O 	0.09876 0.27400 0.67798 -0.47500
O 	O 	0.82370 0.93147 0.54039 -0.46900
O 	O 	0.64778 0.00142 0.59622 -0.47600
O 	O 	0.78203 0.08098 0.18072 -0.50000
O 	O 	0.69018 0.25062 0.05602 -0.47800
O 	O 	0.70037 0.48325 0.66861 -0.46500
O 	O 	0.09876 0.67798 0.27400 -0.47500
O 	O 	0.35613 0.39577 0.39577 -0.66800
O 	O 	0.65690 0.59847 0.49973 -0.47800
O 	O 	0.66569 0.01376 0.10726 -0.48600
O 	O 	0.45968 0.27945 0.45451 -0.49400
O 	O 	0.66569 0.10726 0.01376 -0.48600
O 	O 	0.99682 0.24938 0.44398 -0.47900
O 	O 	0.35222 0.99858 0.40378 -0.47600
O 	O 	0.49152 0.34961 0.44835 -0.50100
O 	O 	0.50848 0.55165 0.65039 -0.50100
O 	O 	0.25548 0.65732 0.56338 -0.51000
O 	O 	0.70459 0.56492 0.70982 -0.47100
O 	O 	0.65310 0.79360 0.51700 -0.27700
O 	O 	0.28948 0.15039 0.05165 -0.50100
O 	O 	0.45609 0.94811 0.76791 -0.52600
O 	O 	0.28750 0.47114 0.05786 -0.49000
O 	O 	0.70037 0.66861 0.48325 -0.46500
O 	O 	0.75510 0.00027 0.90153 -0.47800
O 	O 	0.17630 0.06853 0.45961 -0.46900
O 	O 	0.04373 0.41902 0.31928 -0.50000
O 	O 	0.34310 0.40153 0.50027 -0.47800
O 	O 	0.29963 0.33139 0.51675 -0.46500
O 	O 	0.78671 0.39274 0.48624 -0.48400
O 	O 	0.95659 0.27432 0.67464 -0.49600
O 	O 	0.34690 0.48300 0.20640 -0.27700
O 	O 	0.95627 0.68072 0.58098 -0.50000
O 	O 	0.89815 0.37801 0.37801 -0.89700
O 	O 	0.70459 0.70982 0.56492 -0.47100
O 	O 	0.24490 0.99973 0.09847 -0.47800
O 	O 	0.75510 0.90153 0.00027 -0.47800
O 	O 	0.90555 0.82536 0.22568 -0.49600
O 	O 	0.74452 0.34268 0.43662 -0.51000
O 	O 	0.54391 0.23209 0.05189 -0.52600
O 	O 	0.30982 0.94398 0.74938 -0.47800
O 	O 	0.64387 0.60423 0.60423 -0.66800
O 	O 	0.82789 0.26791 0.44811 -0.52600
O 	O 	0.82370 0.54039 0.93147 -0.46900
O 	O 	0.90555 0.22568 0.82536 -0.49600
O 	O 	0.21797 0.81928 0.91902 -0.50000
O 	O 	0.75458 0.09622 0.50142 -0.47600
O 	O 	0.14767 0.10423 0.10423 -0.66800
O 	O 	0.02067 0.06492 0.20982 -0.46900
O 	O 	0.90124 0.72600 0.32202 -0.47500
O 	O 	0.35981 0.50069 0.89957 -0.48000
O 	O 	0.04341 0.32536 0.72568 -0.49600
O 	O 	0.99682 0.44398 0.24938 -0.47900
O 	O 	0.33431 0.89274 0.98624 -0.48600
O 	O 	0.00318 0.75062 0.55602 -0.47900
O 	O 	0.35222 0.40378 0.99858 -0.47600
O 	O 	0.10185 0.62199 0.62199 -0.89700
O 	O 	0.54032 0.54549 0.72055 -0.49400
O 	O 	0.96370 0.98300 0.70640 -0.27500
O 	O 	0.71052 0.94835 0.84961 -0.50100
O 	O 	0.52382 0.15732 0.06338 -0.51100
O 	O 	0.95627 0.58098 0.68072 -0.50000
O 	O 	0.29541 0.29018 0.43508 -0.47100
O 	O 	0.29963 0.51675 0.33139 -0.46500
O 	O 	0.76007 0.60043 0.99931 -0.47900
O 	O 	0.17211 0.55189 0.73209 -0.52600
O 	O 	0.47618 0.84268 0.93662 -0.51100
O 	O 	0.05074 0.82202 0.22600 -0.47500
O 	O 	0.09445 0.77432 0.17464 -0.49600
O 	O 	0.23993 0.39957 0.00069 -0.47900
O 	O 	0.81650 0.02886 0.44214 -0.49000
O 	O 	0.80636 0.77945 0.95451 -0.49400
O 	O 	0.28948 0.05165 0.15039 -0.50100
O 	O 	0.24542 0.49858 0.90378 -0.47600
O 	O 	0.18350 0.97114 0.55786 -0.49000
O 	O 	0.28750 0.05786 0.47114 -0.49000
O 	O 	0.75137 0.01043 0.14283 -0.49200
O 	O 	0.09537 0.64283 0.51043 -0.49000
O 	O 	0.14777 0.16861 0.98325 -0.46500
