data_crystal

_cell_length_a 29.05050
_cell_length_b 29.05050
_cell_length_c 28.79670
_cell_angle_alpha 90.00000
_cell_angle_beta  90.00000
_cell_angle_gamma 90.00000

_symmetry_space_group_name_	'P 1'
_symmetry_space_group_name_H-M	'P 1'

loop_
_symmetry_equiv_pos_as_xyz
  x,y,z

loop_
_atom_site_label
_atom_site_type_symbol
_atom_site_fract_x
_atom_site_fract_y
_atom_site_fract_z
_atom_site_charge
In	In	0.20910 0.79089 0.38455 2.00800
In	In	0.20388 0.88138 0.30323 1.96300
In	In	0.11873 0.79609 0.30321 1.96400
O 	O 	0.17720 0.82220 0.33020 -1.09400
O 	O 	0.20070 0.72360 0.35510 -0.57500
O 	O 	0.14700 0.72760 0.29810 -0.56000
O 	O 	0.27280 0.85240 0.29850 -0.57900
O 	O 	0.21830 0.85350 0.42280 -0.58200
O 	O 	0.21860 0.14790 0.57800 -0.59500
O 	O 	0.27600 0.79990 0.35490 -0.57800
O 	O 	0.35890 0.69510 0.73260 -0.63200
N 	N 	0.24260 0.75760 0.44250 -0.27900
O 	O 	0.30510 0.64000 0.73180 -0.61000
O 	O 	0.21900 0.90900 0.37060 -0.63500
O 	O 	0.22030 0.09070 0.62920 -0.62300
C 	C 	0.22180 0.89540 0.41150 0.50900
N 	N 	0.26630 0.44600 0.22480 -0.32200
C 	C 	0.19020 0.66170 0.30670 -0.17300
C 	C 	0.17900 0.70800 0.32130 0.46800
C 	C 	0.33890 0.81020 0.30760 -0.19700
C 	C 	0.29340 0.82320 0.32160 0.49600
C 	C 	0.42670 0.78220 0.27680 0.01700
N 	N 	0.55410 0.73320 0.22260 -0.33600
C 	C 	0.22610 0.07060 0.55200 -0.18100
C 	C 	0.22550 0.92850 0.44800 -0.20900
C 	C 	0.24580 0.70000 0.50180 -0.01500
C 	C 	0.29780 0.75730 0.50540 -0.01500
C 	C 	0.28070 0.77620 0.46310 0.03900
C 	C 	0.36580 0.78210 0.33430 0.08000
C 	C 	0.32760 0.67350 0.71260 0.48800
C 	C 	0.21340 0.63010 0.33530 0.07400
C 	C 	0.41080 0.77180 0.32020 -0.04000
C 	C 	0.22340 0.71890 0.46440 0.03800
C 	C 	0.22290 0.10610 0.58900 0.48900
C 	C 	0.29480 0.70510 0.57470 0.02500
C 	C 	0.21600 0.57320 0.27860 0.02400
C 	C 	0.28280 0.66140 0.64150 0.08800
C 	C 	0.31760 0.68170 0.66600 -0.21500
C 	C 	0.22800 0.00540 0.47850 -0.02900
C 	C 	0.27460 0.72300 0.52830 0.00600
C 	C 	0.33750 0.71660 0.64060 0.08500
C 	C 	0.22920 0.02620 0.55720 0.06100
C 	C 	0.22970 0.99320 0.52220 -0.00900
C 	C 	0.22730 0.97410 0.44270 0.07200
C 	C 	0.22940 0.58930 0.31880 -0.04400
C 	C 	0.35810 0.82510 0.26810 0.08600
C 	C 	0.17840 0.64650 0.26470 0.07600
C 	C 	0.33210 0.72690 0.59610 -0.04700
C 	C 	0.27010 0.67210 0.59830 -0.04700
C 	C 	0.24190 0.52720 0.26090 -0.00100
C 	C 	0.18790 0.59950 0.25160 -0.03400
C 	C 	0.22500 0.08700 0.50870 0.05600
C 	C 	0.40080 0.81090 0.25120 -0.03800
C 	C 	0.24200 0.04500 0.46810 -0.01300
C 	C 	0.22700 0.91090 0.49150 0.07200
C 	C 	0.23000 0.94960 0.53110 -0.02900
C 	C 	0.46910 0.76180 0.25680 0.02100
C 	C 	0.52100 0.71560 0.20830 -0.00200
C 	C 	0.51060 0.76620 0.27480 -0.05900
C 	C 	0.23090 0.48860 0.27890 -0.03500
C 	C 	0.55070 0.75700 0.25300 0.10700
C 	C 	0.27300 0.49600 0.21200 -0.01700
C 	C 	0.25030 0.44660 0.25920 0.08500
C 	C 	0.47080 0.73100 0.21470 -0.03300
In	In	0.70910 0.29089 0.88455 2.00700
In	In	0.70388 0.38138 0.80323 1.96200
In	In	0.61873 0.29609 0.80321 1.96300
O 	O 	0.67720 0.32220 0.83020 -1.09500
O 	O 	0.70070 0.22360 0.85510 -0.57600
O 	O 	0.64700 0.22760 0.79810 -0.56100
O 	O 	0.77280 0.35240 0.79850 -0.58000
O 	O 	0.71830 0.35350 0.92280 -0.58300
O 	O 	0.71860 0.64790 0.07800 -0.59600
O 	O 	0.77600 0.29990 0.85490 -0.57900
O 	O 	0.85890 0.19510 0.23260 -0.63300
N 	N 	0.74260 0.25760 0.94250 -0.28000
O 	O 	0.80510 0.14000 0.23180 -0.61100
O 	O 	0.71900 0.40900 0.87060 -0.63600
O 	O 	0.72030 0.59070 0.12920 -0.62400
C 	C 	0.72180 0.39540 0.91150 0.50800
N 	N 	0.76630 0.94600 0.72480 -0.32200
C 	C 	0.69020 0.16170 0.80670 -0.17300
C 	C 	0.67900 0.20800 0.82130 0.46800
C 	C 	0.83890 0.31020 0.80760 -0.19700
C 	C 	0.79340 0.32320 0.82160 0.49600
C 	C 	0.92670 0.28220 0.77680 0.01700
N 	N 	0.05410 0.23320 0.72260 -0.33600
C 	C 	0.72610 0.57060 0.05200 -0.18100
C 	C 	0.72550 0.42850 0.94800 -0.20900
C 	C 	0.74580 0.20000 0.00180 -0.01500
C 	C 	0.79780 0.25730 0.00540 -0.01500
C 	C 	0.78070 0.27620 0.96310 0.03900
C 	C 	0.86580 0.28210 0.83430 0.08000
C 	C 	0.82760 0.17350 0.21260 0.48800
C 	C 	0.71340 0.13010 0.83530 0.07400
C 	C 	0.91080 0.27180 0.82020 -0.04000
C 	C 	0.72340 0.21890 0.96440 0.03800
C 	C 	0.72290 0.60610 0.08900 0.48900
C 	C 	0.79480 0.20510 0.07470 0.02500
C 	C 	0.71600 0.07320 0.77860 0.02400
C 	C 	0.78280 0.16140 0.14150 0.08800
C 	C 	0.81760 0.18170 0.16600 -0.21500
C 	C 	0.72800 0.50540 0.97850 -0.02900
C 	C 	0.77460 0.22300 0.02830 0.00600
C 	C 	0.83750 0.21660 0.14060 0.08500
C 	C 	0.72920 0.52620 0.05720 0.06100
C 	C 	0.72970 0.49320 0.02220 -0.00900
C 	C 	0.72730 0.47410 0.94270 0.07200
C 	C 	0.72940 0.08930 0.81880 -0.04400
C 	C 	0.85810 0.32510 0.76810 0.08600
C 	C 	0.67840 0.14650 0.76470 0.07600
C 	C 	0.83210 0.22690 0.09610 -0.04800
C 	C 	0.77010 0.17210 0.09830 -0.04700
C 	C 	0.74190 0.02720 0.76090 -0.00100
C 	C 	0.68790 0.09950 0.75160 -0.03400
C 	C 	0.72500 0.58700 0.00870 0.05600
C 	C 	0.90080 0.31090 0.75120 -0.03800
C 	C 	0.74200 0.54500 0.96810 -0.01300
C 	C 	0.72700 0.41090 0.99150 0.07200
C 	C 	0.73000 0.44960 0.03110 -0.02900
C 	C 	0.96910 0.26180 0.75680 0.02100
C 	C 	0.02100 0.21560 0.70830 -0.00200
C 	C 	0.01060 0.26620 0.77480 -0.05900
C 	C 	0.73090 0.98860 0.77890 -0.03500
C 	C 	0.05070 0.25700 0.75300 0.10700
C 	C 	0.77300 0.99600 0.71200 -0.01700
C 	C 	0.75030 0.94660 0.75920 0.08400
C 	C 	0.97080 0.23100 0.71470 -0.03300
In	In	0.79090 0.20911 0.38455 2.00700
In	In	0.79612 0.11862 0.30323 1.96200
In	In	0.88127 0.20391 0.30321 1.96300
O 	O 	0.82280 0.17780 0.33020 -1.09500
O 	O 	0.79930 0.27640 0.35510 -0.57600
O 	O 	0.85300 0.27240 0.29810 -0.56100
O 	O 	0.72720 0.14760 0.29850 -0.58000
O 	O 	0.78170 0.14650 0.42280 -0.58300
O 	O 	0.78140 0.85210 0.57800 -0.59600
O 	O 	0.72400 0.20010 0.35490 -0.57900
O 	O 	0.64110 0.30490 0.73260 -0.63300
N 	N 	0.75740 0.24240 0.44250 -0.28000
O 	O 	0.69490 0.36000 0.73180 -0.61100
O 	O 	0.78100 0.09100 0.37060 -0.63600
O 	O 	0.77970 0.90930 0.62920 -0.62400
C 	C 	0.77820 0.10460 0.41150 0.50800
N 	N 	0.73370 0.55400 0.22480 -0.32200
C 	C 	0.80980 0.33830 0.30670 -0.17300
C 	C 	0.82100 0.29200 0.32130 0.46800
C 	C 	0.66110 0.18980 0.30760 -0.19700
C 	C 	0.70660 0.17680 0.32160 0.49600
C 	C 	0.57330 0.21780 0.27680 0.01700
N 	N 	0.44590 0.26680 0.22260 -0.33600
C 	C 	0.77390 0.92940 0.55200 -0.18100
C 	C 	0.77450 0.07150 0.44800 -0.20900
C 	C 	0.75420 0.30000 0.50180 -0.01500
C 	C 	0.70220 0.24270 0.50540 -0.01500
C 	C 	0.71930 0.22380 0.46310 0.03900
C 	C 	0.63420 0.21790 0.33430 0.08000
C 	C 	0.67240 0.32650 0.71260 0.48800
C 	C 	0.78660 0.36990 0.33530 0.07400
C 	C 	0.58920 0.22820 0.32020 -0.04000
C 	C 	0.77660 0.28110 0.46440 0.03800
C 	C 	0.77710 0.89390 0.58900 0.48900
C 	C 	0.70520 0.29490 0.57470 0.02500
C 	C 	0.78400 0.42680 0.27860 0.02400
C 	C 	0.71720 0.33860 0.64150 0.08800
C 	C 	0.68240 0.31830 0.66600 -0.21500
C 	C 	0.77200 0.99460 0.47850 -0.02900
C 	C 	0.72540 0.27700 0.52830 0.00600
C 	C 	0.66250 0.28340 0.64060 0.08500
C 	C 	0.77080 0.97380 0.55720 0.06100
C 	C 	0.77030 0.00680 0.52220 -0.00900
C 	C 	0.77270 0.02590 0.44270 0.07200
C 	C 	0.77060 0.41070 0.31880 -0.04400
C 	C 	0.64190 0.17490 0.26810 0.08600
C 	C 	0.82160 0.35350 0.26470 0.07600
C 	C 	0.66790 0.27310 0.59610 -0.04700
C 	C 	0.72990 0.32790 0.59830 -0.04700
C 	C 	0.75810 0.47280 0.26090 -0.00100
C 	C 	0.81210 0.40050 0.25160 -0.03400
C 	C 	0.77500 0.91300 0.50870 0.05600
C 	C 	0.59920 0.18910 0.25120 -0.03800
C 	C 	0.75800 0.95500 0.46810 -0.01300
C 	C 	0.77300 0.08910 0.49150 0.07200
C 	C 	0.77000 0.05040 0.53110 -0.02900
C 	C 	0.53090 0.23820 0.25680 0.02100
C 	C 	0.47900 0.28440 0.20830 -0.00200
C 	C 	0.48940 0.23380 0.27480 -0.05900
C 	C 	0.76910 0.51140 0.27890 -0.03500
C 	C 	0.44930 0.24300 0.25300 0.10700
C 	C 	0.72700 0.50400 0.21200 -0.01700
C 	C 	0.74970 0.55340 0.25920 0.08500
C 	C 	0.52920 0.26900 0.21470 -0.03300
In	In	0.29090 0.70911 0.88455 2.00700
In	In	0.29612 0.61862 0.80323 1.96200
In	In	0.38127 0.70391 0.80321 1.96300
O 	O 	0.32280 0.67780 0.83020 -1.09500
O 	O 	0.29930 0.77640 0.85510 -0.57600
O 	O 	0.35300 0.77240 0.79810 -0.56100
O 	O 	0.22720 0.64760 0.79850 -0.58000
O 	O 	0.28170 0.64650 0.92280 -0.58300
O 	O 	0.28140 0.35210 0.07800 -0.59600
O 	O 	0.22400 0.70010 0.85490 -0.57900
O 	O 	0.14110 0.80490 0.23260 -0.63300
N 	N 	0.25740 0.74240 0.94250 -0.28000
O 	O 	0.19490 0.86000 0.23180 -0.61100
O 	O 	0.28100 0.59100 0.87060 -0.63600
O 	O 	0.27970 0.40930 0.12920 -0.62400
C 	C 	0.27820 0.60460 0.91150 0.50800
N 	N 	0.23370 0.05400 0.72480 -0.32200
C 	C 	0.30980 0.83830 0.80670 -0.17300
C 	C 	0.32100 0.79200 0.82130 0.46800
C 	C 	0.16110 0.68980 0.80760 -0.19700
C 	C 	0.20660 0.67680 0.82160 0.49600
C 	C 	0.07330 0.71780 0.77680 0.01700
N 	N 	0.94590 0.76680 0.72260 -0.33600
C 	C 	0.27390 0.42940 0.05200 -0.18100
C 	C 	0.27450 0.57150 0.94800 -0.20900
C 	C 	0.25420 0.80000 0.00180 -0.01500
C 	C 	0.20220 0.74270 0.00540 -0.01500
C 	C 	0.21930 0.72380 0.96310 0.03900
C 	C 	0.13420 0.71790 0.83430 0.08000
C 	C 	0.17240 0.82650 0.21260 0.48800
C 	C 	0.28660 0.86990 0.83530 0.07400
C 	C 	0.08920 0.72820 0.82020 -0.04000
C 	C 	0.27660 0.78110 0.96440 0.03800
C 	C 	0.27710 0.39390 0.08900 0.48900
C 	C 	0.20520 0.79490 0.07470 0.02500
C 	C 	0.28400 0.92680 0.77860 0.02400
C 	C 	0.21720 0.83860 0.14150 0.08800
C 	C 	0.18240 0.81830 0.16600 -0.21500
C 	C 	0.27200 0.49460 0.97850 -0.02900
C 	C 	0.22540 0.77700 0.02830 0.00600
C 	C 	0.16250 0.78340 0.14060 0.08500
C 	C 	0.27080 0.47380 0.05720 0.06100
C 	C 	0.27030 0.50680 0.02220 -0.00900
C 	C 	0.27270 0.52590 0.94270 0.07200
C 	C 	0.27060 0.91070 0.81880 -0.04400
C 	C 	0.14190 0.67490 0.76810 0.08600
C 	C 	0.32160 0.85350 0.76470 0.07600
C 	C 	0.16790 0.77310 0.09610 -0.04800
C 	C 	0.22990 0.82790 0.09830 -0.04700
C 	C 	0.25810 0.97280 0.76090 -0.00100
C 	C 	0.31210 0.90050 0.75160 -0.03400
C 	C 	0.27500 0.41300 0.00870 0.05600
C 	C 	0.09920 0.68910 0.75120 -0.03800
C 	C 	0.25800 0.45500 0.96810 -0.01300
C 	C 	0.27300 0.58910 0.99150 0.07200
C 	C 	0.27000 0.55040 0.03110 -0.02900
C 	C 	0.03090 0.73820 0.75680 0.02100
C 	C 	0.97900 0.78440 0.70830 -0.00200
C 	C 	0.98940 0.73380 0.77480 -0.05900
C 	C 	0.26910 0.01140 0.77890 -0.03500
C 	C 	0.94930 0.74300 0.75300 0.10700
C 	C 	0.22700 0.00400 0.71200 -0.01700
C 	C 	0.24970 0.05340 0.75920 0.08400
C 	C 	0.02920 0.76900 0.71470 -0.03300
In	In	0.79089 0.79090 0.61545 2.00700
In	In	0.88138 0.79612 0.69677 1.96200
In	In	0.79609 0.88127 0.69679 1.96300
O 	O 	0.82220 0.82280 0.66980 -1.09500
O 	O 	0.72360 0.79930 0.64490 -0.57600
O 	O 	0.72760 0.85300 0.70190 -0.56100
O 	O 	0.85240 0.72720 0.70150 -0.58000
O 	O 	0.85350 0.78170 0.57720 -0.58300
O 	O 	0.14790 0.78140 0.42200 -0.59600
O 	O 	0.79990 0.72400 0.64510 -0.57900
O 	O 	0.69510 0.64110 0.26740 -0.63300
N 	N 	0.75760 0.75740 0.55750 -0.28000
O 	O 	0.64000 0.69490 0.26820 -0.61100
O 	O 	0.90900 0.78100 0.62940 -0.63600
O 	O 	0.09070 0.77970 0.37080 -0.62400
C 	C 	0.89540 0.77820 0.58850 0.50800
N 	N 	0.44600 0.73370 0.77520 -0.32200
C 	C 	0.66170 0.80980 0.69330 -0.17300
C 	C 	0.70800 0.82100 0.67870 0.46800
C 	C 	0.81020 0.66110 0.69240 -0.19700
C 	C 	0.82320 0.70660 0.67840 0.49600
C 	C 	0.78220 0.57330 0.72320 0.01700
N 	N 	0.73320 0.44590 0.77740 -0.33600
C 	C 	0.07060 0.77390 0.44800 -0.18100
C 	C 	0.92850 0.77450 0.55200 -0.20900
C 	C 	0.70000 0.75420 0.49820 -0.01500
C 	C 	0.75730 0.70220 0.49460 -0.01500
C 	C 	0.77620 0.71930 0.53690 0.03900
C 	C 	0.78210 0.63420 0.66570 0.08000
C 	C 	0.67350 0.67240 0.28740 0.48800
C 	C 	0.63010 0.78660 0.66470 0.07400
C 	C 	0.77180 0.58920 0.67980 -0.04000
C 	C 	0.71890 0.77660 0.53560 0.03800
C 	C 	0.10610 0.77710 0.41100 0.48900
C 	C 	0.70510 0.70520 0.42530 0.02500
C 	C 	0.57320 0.78400 0.72140 0.02400
C 	C 	0.66140 0.71720 0.35850 0.08800
C 	C 	0.68170 0.68240 0.33400 -0.21500
C 	C 	0.00540 0.77200 0.52150 -0.02900
C 	C 	0.72300 0.72540 0.47170 0.00600
C 	C 	0.71660 0.66250 0.35940 0.08500
C 	C 	0.02620 0.77080 0.44280 0.06100
C 	C 	0.99320 0.77030 0.47780 -0.00900
C 	C 	0.97410 0.77270 0.55730 0.07200
C 	C 	0.58930 0.77060 0.68120 -0.04400
C 	C 	0.82510 0.64190 0.73190 0.08600
C 	C 	0.64650 0.82160 0.73530 0.07600
C 	C 	0.72690 0.66790 0.40390 -0.04700
C 	C 	0.67210 0.72990 0.40170 -0.04700
C 	C 	0.52720 0.75810 0.73910 -0.00100
C 	C 	0.59950 0.81210 0.74840 -0.03400
C 	C 	0.08700 0.77500 0.49130 0.05600
C 	C 	0.81090 0.59920 0.74880 -0.03800
C 	C 	0.04500 0.75800 0.53190 -0.01300
C 	C 	0.91090 0.77300 0.50850 0.07200
C 	C 	0.94960 0.77000 0.46890 -0.02900
C 	C 	0.76180 0.53090 0.74320 0.02100
C 	C 	0.71560 0.47900 0.79170 -0.00200
C 	C 	0.76620 0.48940 0.72520 -0.05900
C 	C 	0.48860 0.76910 0.72110 -0.03500
C 	C 	0.75700 0.44930 0.74700 0.10700
C 	C 	0.49600 0.72700 0.78800 -0.01700
C 	C 	0.44660 0.74970 0.74080 0.08500
C 	C 	0.73100 0.52920 0.78530 -0.03300
In	In	0.29089 0.29090 0.11545 2.00700
In	In	0.38138 0.29612 0.19677 1.96200
In	In	0.29609 0.38127 0.19679 1.96300
O 	O 	0.32220 0.32280 0.16980 -1.09500
O 	O 	0.22360 0.29930 0.14490 -0.57600
O 	O 	0.22760 0.35300 0.20190 -0.56100
O 	O 	0.35240 0.22720 0.20150 -0.58000
O 	O 	0.35350 0.28170 0.07720 -0.58300
O 	O 	0.64790 0.28140 0.92200 -0.59600
O 	O 	0.29990 0.22400 0.14510 -0.57900
O 	O 	0.19510 0.14110 0.76740 -0.63300
N 	N 	0.25760 0.25740 0.05750 -0.28000
O 	O 	0.14000 0.19490 0.76820 -0.61100
O 	O 	0.40900 0.28100 0.12940 -0.63600
O 	O 	0.59070 0.27970 0.87080 -0.62400
C 	C 	0.39540 0.27820 0.08850 0.50800
N 	N 	0.94600 0.23370 0.27520 -0.32200
C 	C 	0.16170 0.30980 0.19330 -0.17300
C 	C 	0.20800 0.32100 0.17870 0.46800
C 	C 	0.31020 0.16110 0.19240 -0.19700
C 	C 	0.32320 0.20660 0.17840 0.49600
C 	C 	0.28220 0.07330 0.22320 0.01700
N 	N 	0.23320 0.94590 0.27740 -0.33600
C 	C 	0.57060 0.27390 0.94800 -0.18100
C 	C 	0.42850 0.27450 0.05200 -0.20900
C 	C 	0.20000 0.25420 0.99820 -0.01500
C 	C 	0.25730 0.20220 0.99460 -0.01500
C 	C 	0.27620 0.21930 0.03690 0.03900
C 	C 	0.28210 0.13420 0.16570 0.08000
C 	C 	0.17350 0.17240 0.78740 0.48800
C 	C 	0.13010 0.28660 0.16470 0.07400
C 	C 	0.27180 0.08920 0.17980 -0.04000
C 	C 	0.21890 0.27660 0.03560 0.03800
C 	C 	0.60610 0.27710 0.91100 0.48900
C 	C 	0.20510 0.20520 0.92530 0.02500
C 	C 	0.07320 0.28400 0.22140 0.02400
C 	C 	0.16140 0.21720 0.85850 0.08800
C 	C 	0.18170 0.18240 0.83400 -0.21500
C 	C 	0.50540 0.27200 0.02150 -0.02900
C 	C 	0.22300 0.22540 0.97170 0.00600
C 	C 	0.21660 0.16250 0.85940 0.08500
C 	C 	0.52620 0.27080 0.94280 0.06100
C 	C 	0.49320 0.27030 0.97780 -0.00900
C 	C 	0.47410 0.27270 0.05730 0.07200
C 	C 	0.08930 0.27060 0.18120 -0.04400
C 	C 	0.32510 0.14190 0.23190 0.08600
C 	C 	0.14650 0.32160 0.23530 0.07600
C 	C 	0.22690 0.16790 0.90390 -0.04800
C 	C 	0.17210 0.22990 0.90170 -0.04700
C 	C 	0.02720 0.25810 0.23910 -0.00100
C 	C 	0.09950 0.31210 0.24840 -0.03400
C 	C 	0.58700 0.27500 0.99130 0.05600
C 	C 	0.31090 0.09920 0.24880 -0.03800
C 	C 	0.54500 0.25800 0.03190 -0.01300
C 	C 	0.41090 0.27300 0.00850 0.07200
C 	C 	0.44960 0.27000 0.96890 -0.02900
C 	C 	0.26180 0.03090 0.24320 0.02100
C 	C 	0.21560 0.97900 0.29170 -0.00200
C 	C 	0.26620 0.98940 0.22520 -0.05900
C 	C 	0.98860 0.26910 0.22110 -0.03500
C 	C 	0.25700 0.94930 0.24700 0.10700
C 	C 	0.99600 0.22700 0.28800 -0.01700
C 	C 	0.94660 0.24970 0.24080 0.08400
C 	C 	0.23100 0.02920 0.28530 -0.03300
In	In	0.20911 0.20910 0.61545 2.00700
In	In	0.11862 0.20388 0.69677 1.96200
In	In	0.20391 0.11873 0.69679 1.96300
O 	O 	0.17780 0.17720 0.66980 -1.09500
O 	O 	0.27640 0.20070 0.64490 -0.57600
O 	O 	0.27240 0.14700 0.70190 -0.56100
O 	O 	0.14760 0.27280 0.70150 -0.58000
O 	O 	0.14650 0.21830 0.57720 -0.58300
O 	O 	0.85210 0.21860 0.42200 -0.59600
O 	O 	0.20010 0.27600 0.64510 -0.57900
O 	O 	0.30490 0.35890 0.26740 -0.63300
N 	N 	0.24240 0.24260 0.55750 -0.28000
O 	O 	0.36000 0.30510 0.26820 -0.61100
O 	O 	0.09100 0.21900 0.62940 -0.63600
O 	O 	0.90930 0.22030 0.37080 -0.62400
C 	C 	0.10460 0.22180 0.58850 0.50800
N 	N 	0.55400 0.26630 0.77520 -0.32200
C 	C 	0.33830 0.19020 0.69330 -0.17300
C 	C 	0.29200 0.17900 0.67870 0.46800
C 	C 	0.18980 0.33890 0.69240 -0.19700
C 	C 	0.17680 0.29340 0.67840 0.49600
C 	C 	0.21780 0.42670 0.72320 0.01700
N 	N 	0.26680 0.55410 0.77740 -0.33600
C 	C 	0.92940 0.22610 0.44800 -0.18100
C 	C 	0.07150 0.22550 0.55200 -0.20900
C 	C 	0.30000 0.24580 0.49820 -0.01500
C 	C 	0.24270 0.29780 0.49460 -0.01500
C 	C 	0.22380 0.28070 0.53690 0.03900
C 	C 	0.21790 0.36580 0.66570 0.08000
C 	C 	0.32650 0.32760 0.28740 0.48800
C 	C 	0.36990 0.21340 0.66470 0.07400
C 	C 	0.22820 0.41080 0.67980 -0.04000
C 	C 	0.28110 0.22340 0.53560 0.03800
C 	C 	0.89390 0.22290 0.41100 0.48900
C 	C 	0.29490 0.29480 0.42530 0.02500
C 	C 	0.42680 0.21600 0.72140 0.02400
C 	C 	0.33860 0.28280 0.35850 0.08800
C 	C 	0.31830 0.31760 0.33400 -0.21500
C 	C 	0.99460 0.22800 0.52150 -0.02900
C 	C 	0.27700 0.27460 0.47170 0.00600
C 	C 	0.28340 0.33750 0.35940 0.08500
C 	C 	0.97380 0.22920 0.44280 0.06100
C 	C 	0.00680 0.22970 0.47780 -0.00900
C 	C 	0.02590 0.22730 0.55730 0.07200
C 	C 	0.41070 0.22940 0.68120 -0.04400
C 	C 	0.17490 0.35810 0.73190 0.08600
C 	C 	0.35350 0.17840 0.73530 0.07600
C 	C 	0.27310 0.33210 0.40390 -0.04700
C 	C 	0.32790 0.27010 0.40170 -0.04700
C 	C 	0.47280 0.24190 0.73910 -0.00100
C 	C 	0.40050 0.18790 0.74840 -0.03400
C 	C 	0.91300 0.22500 0.49130 0.05600
C 	C 	0.18910 0.40080 0.74880 -0.03800
C 	C 	0.95500 0.24200 0.53190 -0.01300
C 	C 	0.08910 0.22700 0.50850 0.07200
C 	C 	0.05040 0.23000 0.46890 -0.02900
C 	C 	0.23820 0.46910 0.74320 0.02100
C 	C 	0.28440 0.52100 0.79170 -0.00200
C 	C 	0.23380 0.51060 0.72520 -0.05900
C 	C 	0.51140 0.23090 0.72110 -0.03500
C 	C 	0.24300 0.55070 0.74700 0.10700
C 	C 	0.50400 0.27300 0.78800 -0.01700
C 	C 	0.55340 0.25030 0.74080 0.08500
C 	C 	0.26900 0.47080 0.78530 -0.03300
In	In	0.70911 0.70910 0.11545 2.00700
In	In	0.61862 0.70388 0.19677 1.96200
In	In	0.70391 0.61873 0.19679 1.96300
O 	O 	0.67780 0.67720 0.16980 -1.09500
O 	O 	0.77640 0.70070 0.14490 -0.57600
O 	O 	0.77240 0.64700 0.20190 -0.56100
O 	O 	0.64760 0.77280 0.20150 -0.58000
O 	O 	0.64650 0.71830 0.07720 -0.58300
O 	O 	0.35210 0.71860 0.92200 -0.59600
O 	O 	0.70010 0.77600 0.14510 -0.57900
O 	O 	0.80490 0.85890 0.76740 -0.63300
N 	N 	0.74240 0.74260 0.05750 -0.28000
O 	O 	0.86000 0.80510 0.76820 -0.61100
O 	O 	0.59100 0.71900 0.12940 -0.63600
O 	O 	0.40930 0.72030 0.87080 -0.62400
C 	C 	0.60460 0.72180 0.08850 0.50800
N 	N 	0.05400 0.76630 0.27520 -0.32200
C 	C 	0.83830 0.69020 0.19330 -0.17300
C 	C 	0.79200 0.67900 0.17870 0.46800
C 	C 	0.68980 0.83890 0.19240 -0.19700
C 	C 	0.67680 0.79340 0.17840 0.49600
C 	C 	0.71780 0.92670 0.22320 0.01700
N 	N 	0.76680 0.05410 0.27740 -0.33600
C 	C 	0.42940 0.72610 0.94800 -0.18100
C 	C 	0.57150 0.72550 0.05200 -0.20900
C 	C 	0.80000 0.74580 0.99820 -0.01500
C 	C 	0.74270 0.79780 0.99460 -0.01500
C 	C 	0.72380 0.78070 0.03690 0.03900
C 	C 	0.71790 0.86580 0.16570 0.08000
C 	C 	0.82650 0.82760 0.78740 0.48800
C 	C 	0.86990 0.71340 0.16470 0.07400
C 	C 	0.72820 0.91080 0.17980 -0.04000
C 	C 	0.78110 0.72340 0.03560 0.03800
C 	C 	0.39390 0.72290 0.91100 0.48900
C 	C 	0.79490 0.79480 0.92530 0.02500
C 	C 	0.92680 0.71600 0.22140 0.02400
C 	C 	0.83860 0.78280 0.85850 0.08800
C 	C 	0.81830 0.81760 0.83400 -0.21500
C 	C 	0.49460 0.72800 0.02150 -0.02900
C 	C 	0.77700 0.77460 0.97170 0.00600
C 	C 	0.78340 0.83750 0.85940 0.08500
C 	C 	0.47380 0.72920 0.94280 0.06100
C 	C 	0.50680 0.72970 0.97780 -0.00900
C 	C 	0.52590 0.72730 0.05730 0.07200
C 	C 	0.91070 0.72940 0.18120 -0.04400
C 	C 	0.67490 0.85810 0.23190 0.08600
C 	C 	0.85350 0.67840 0.23530 0.07600
C 	C 	0.77310 0.83210 0.90390 -0.04800
C 	C 	0.82790 0.77010 0.90170 -0.04700
C 	C 	0.97280 0.74190 0.23910 -0.00100
C 	C 	0.90050 0.68790 0.24840 -0.03400
C 	C 	0.41300 0.72500 0.99130 0.05600
C 	C 	0.68910 0.90080 0.24880 -0.03800
C 	C 	0.45500 0.74200 0.03190 -0.01300
C 	C 	0.58910 0.72700 0.00850 0.07200
C 	C 	0.55040 0.73000 0.96890 -0.02900
C 	C 	0.73820 0.96910 0.24320 0.02100
C 	C 	0.78440 0.02100 0.29170 -0.00200
C 	C 	0.73380 0.01060 0.22520 -0.05900
C 	C 	0.01140 0.73090 0.22110 -0.03500
C 	C 	0.74300 0.05070 0.24700 0.10700
C 	C 	0.00400 0.77300 0.28800 -0.01700
C 	C 	0.05340 0.75030 0.24080 0.08400
C 	C 	0.76900 0.97080 0.28530 -0.03300
