data_crystal

_cell_length_a 10.08900
_cell_length_b 14.78900
_cell_length_c 13.98800
_cell_angle_alpha 90.00000
_cell_angle_beta  90.00000
_cell_angle_gamma 90.00000

_symmetry_space_group_name_	'P 1'
_symmetry_space_group_name_H-M	'P 1'

loop_
_symmetry_equiv_pos_as_xyz
  x,y,z

loop_
_atom_site_label
_atom_site_type_symbol
_atom_site_fract_x
_atom_site_fract_y
_atom_site_fract_z
_atom_site_charge
Zn	Zn	0.04048 0.41273 0.10600 1.21200
P 	P 	0.01889 0.37686 0.88962 0.32100
H 	H 	0.11700 0.39300 0.83300 -0.06700
P 	P 	0.26875 0.10697 0.78128 0.23700
O 	O 	0.08620 0.35680 0.98460 -0.43600
O 	O 	0.94100 0.29560 0.85370 -0.33600
O 	O 	0.93110 0.45910 0.89450 -0.40600
O 	O 	0.33700 0.14510 0.69180 -0.49900
O 	O 	0.14220 0.15020 0.80300 -0.47500
O 	O 	0.35550 0.11370 0.87000 -0.46100
P 	P 	0.20500 0.33250 0.28610 0.22700
Zn	Zn	0.45952 0.08727 0.60600 1.23000
P 	P 	0.48111 0.12314 0.38962 0.44900
H 	H 	0.38300 0.10700 0.33300 -0.07800
P 	P 	0.23125 0.39303 0.28128 0.26400
O 	O 	0.41380 0.14320 0.48460 -0.43400
O 	O 	0.55900 0.20440 0.35370 -0.41600
O 	O 	0.56890 0.04090 0.39450 -0.47200
O 	O 	0.16300 0.35490 0.19180 -0.51100
O 	O 	0.35780 0.34980 0.30300 -0.45300
O 	O 	0.14450 0.38630 0.37000 -0.48700
P 	P 	0.29500 0.16750 0.78610 0.25800
Zn	Zn	0.95952 0.41273 0.39400 1.24900
P 	P 	0.98111 0.37686 0.61038 0.58100
H 	H 	0.88300 0.39300 0.66700 -0.07700
P 	P 	0.73125 0.10697 0.71872 0.26000
O 	O 	0.91380 0.35680 0.51540 -0.42000
O 	O 	0.05900 0.29560 0.64630 -0.49500
O 	O 	0.06890 0.45910 0.60550 -0.55200
O 	O 	0.66300 0.14510 0.80820 -0.48800
O 	O 	0.85780 0.15020 0.69700 -0.41500
O 	O 	0.64450 0.11370 0.63000 -0.44900
P 	P 	0.79500 0.33250 0.21390 0.27100
Zn	Zn	0.54048 0.08727 0.89400 1.23000
P 	P 	0.51889 0.12314 0.11038 0.44900
H 	H 	0.61700 0.10700 0.16700 -0.06600
P 	P 	0.76875 0.39303 0.21872 0.23700
O 	O 	0.58620 0.14320 0.01540 -0.42300
O 	O 	0.44100 0.20440 0.14630 -0.42400
O 	O 	0.43110 0.04090 0.10550 -0.48200
O 	O 	0.83700 0.35490 0.30820 -0.47500
O 	O 	0.64220 0.34980 0.19700 -0.44900
O 	O 	0.85550 0.38630 0.13000 -0.42100
P 	P 	0.70500 0.16750 0.71390 0.24200
Zn	Zn	0.95952 0.58727 0.89400 1.24900
P 	P 	0.98111 0.62314 0.11038 0.58400
H 	H 	0.88300 0.60700 0.16700 -0.07700
P 	P 	0.73125 0.89303 0.21872 0.26100
O 	O 	0.91380 0.64320 0.01540 -0.42200
O 	O 	0.05900 0.70440 0.14630 -0.49900
O 	O 	0.06890 0.54090 0.10550 -0.55500
O 	O 	0.66300 0.85490 0.30820 -0.48700
O 	O 	0.85780 0.84980 0.19700 -0.41500
O 	O 	0.64450 0.88630 0.13000 -0.45100
P 	P 	0.79500 0.66750 0.71390 0.27100
Zn	Zn	0.54048 0.91273 0.39400 1.23100
P 	P 	0.51889 0.87686 0.61038 0.44900
H 	H 	0.61700 0.89300 0.66700 -0.06600
P 	P 	0.76875 0.60697 0.71872 0.23800
O 	O 	0.58620 0.85680 0.51540 -0.42300
O 	O 	0.44100 0.79560 0.64630 -0.42300
O 	O 	0.43110 0.95910 0.60550 -0.48200
O 	O 	0.83700 0.64510 0.80820 -0.47500
O 	O 	0.64220 0.65020 0.69700 -0.44900
O 	O 	0.85550 0.61370 0.63000 -0.42100
P 	P 	0.70500 0.83250 0.21390 0.24200
Zn	Zn	0.04048 0.58727 0.60600 1.21200
P 	P 	0.01889 0.62314 0.38962 0.31600
H 	H 	0.11700 0.60700 0.33300 -0.06700
P 	P 	0.26875 0.89303 0.28128 0.23600
O 	O 	0.08620 0.64320 0.48460 -0.43600
O 	O 	0.94100 0.70440 0.35370 -0.33200
O 	O 	0.93110 0.54090 0.39450 -0.40200
O 	O 	0.33700 0.85490 0.19180 -0.50000
O 	O 	0.14220 0.84980 0.30300 -0.47600
O 	O 	0.35550 0.88630 0.37000 -0.46000
P 	P 	0.20500 0.66750 0.78610 0.22800
Zn	Zn	0.45952 0.91273 0.10600 1.22800
P 	P 	0.48111 0.87686 0.88962 0.44900
H 	H 	0.38300 0.89300 0.83300 -0.07700
P 	P 	0.23125 0.60697 0.78128 0.26300
O 	O 	0.41380 0.85680 0.98460 -0.43100
O 	O 	0.55900 0.79560 0.85370 -0.41600
O 	O 	0.56890 0.95910 0.89450 -0.47100
O 	O 	0.16300 0.64510 0.69180 -0.51000
O 	O 	0.35780 0.65020 0.80300 -0.45300
O 	O 	0.14450 0.61370 0.87000 -0.48500
P 	P 	0.29500 0.83250 0.28610 0.25900
Zn	Zn	0.00000 0.21703 0.75000 1.21000
Zn	Zn	0.50000 0.28297 0.25000 1.23800
Zn	Zn	0.00000 0.78297 0.25000 1.20900
Zn	Zn	0.50000 0.71703 0.75000 1.23800
