data_crystal

_cell_length_a 8.19330
_cell_length_b 8.86460
_cell_length_c 12.20280
_cell_angle_alpha 110.05700
_cell_angle_beta  92.89700
_cell_angle_gamma 105.74100

_symmetry_space_group_name_	'P 1'
_symmetry_space_group_name_H-M	'P 1'

loop_
_symmetry_equiv_pos_as_xyz
  x,y,z

loop_
_atom_site_label
_atom_site_type_symbol
_atom_site_fract_x
_atom_site_fract_y
_atom_site_fract_z
_atom_site_charge
Ni	Ni	0.02606 0.05655 0.17948 1.03600
Ni	Ni	0.97394 0.94345 0.82052 1.03700
Ni	Ni	0.50000 0.50000 0.50000 1.12100
H 	H 	0.03270 0.78160 0.54950 0.04000
H 	H 	0.19850 0.62450 0.45190 0.03400
H 	H 	0.43150 0.66930 0.75350 0.03800
H 	H 	0.37570 0.86920 0.30370 0.04700
H 	H 	0.96730 0.21840 0.45050 0.04000
H 	H 	0.80150 0.37550 0.54810 0.03400
H 	H 	0.56850 0.33070 0.24650 0.03800
H 	H 	0.62430 0.13080 0.69630 0.04700
C 	C 	0.24740 0.83670 0.89680 0.09400
C 	C 	0.24460 0.77870 0.76860 0.00200
C 	C 	0.11250 0.75820 0.59290 0.01400
C 	C 	0.21400 0.66470 0.53400 0.01000
C 	C 	0.34880 0.68940 0.71010 0.01600
C 	C 	0.27370 0.13340 0.39420 0.35900
C 	C 	0.39190 0.06780 0.45170 -0.08100
C 	C 	0.46770 0.14750 0.57120 -0.06700
C 	C 	0.45160 0.31270 0.65280 0.32900
C 	C 	0.42570 0.92190 0.38280 0.01500
C 	C 	0.75260 0.16330 0.10320 0.09400
C 	C 	0.75540 0.22130 0.23140 0.00200
C 	C 	0.88750 0.24180 0.40710 0.01400
C 	C 	0.78600 0.33530 0.46600 0.01000
C 	C 	0.65120 0.31060 0.28990 0.01600
C 	C 	0.72630 0.86660 0.60580 0.35900
C 	C 	0.60810 0.93220 0.54830 -0.08100
C 	C 	0.53230 0.85250 0.42880 -0.06700
C 	C 	0.54840 0.68730 0.34720 0.32900
C 	C 	0.57430 0.07810 0.61720 0.01500
N 	N 	0.13590 0.91410 0.94404 -0.22400
N 	N 	0.16610 0.94340 0.05926 -0.17200
N 	N 	0.29170 0.88590 0.08020 -0.05100
N 	N 	0.34500 0.81710 0.97770 -0.08600
N 	N 	0.12660 0.81530 0.71027 -0.20700
N 	N 	0.33320 0.63110 0.59203 -0.18700
N 	N 	0.86410 0.08590 0.05596 -0.22400
N 	N 	0.83390 0.05660 0.94074 -0.17200
N 	N 	0.70830 0.11410 0.91980 -0.05100
N 	N 	0.65500 0.18290 0.02230 -0.08600
N 	N 	0.87340 0.18470 0.28973 -0.20700
N 	N 	0.66680 0.36890 0.40797 -0.18700
O 	O 	0.15670 0.02380 0.31250 -0.42600
O 	O 	0.29420 0.28900 0.42789 -0.43100
O 	O 	0.54670 0.44480 0.64332 -0.39800
O 	O 	0.35800 0.31370 0.72700 -0.26500
O 	O 	0.84330 0.97620 0.68750 -0.42600
O 	O 	0.70580 0.71100 0.57211 -0.43100
O 	O 	0.45330 0.55520 0.35668 -0.39800
O 	O 	0.64200 0.68630 0.27300 -0.26500
