data_crystal

_cell_length_a 10.24920
_cell_length_b 11.07160
_cell_length_c 12.89910
_cell_angle_alpha 92.51800
_cell_angle_beta  95.25500
_cell_angle_gamma 107.33100

_symmetry_space_group_name_	'P 1'
_symmetry_space_group_name_H-M	'P 1'

loop_
_symmetry_equiv_pos_as_xyz
  x,y,z

loop_
_atom_site_label
_atom_site_type_symbol
_atom_site_fract_x
_atom_site_fract_y
_atom_site_fract_z
_atom_site_charge
Zn	Zn	0.61550 0.84909 0.66980 1.21800
Zn	Zn	0.97877 0.71857 0.98951 1.24100
Zn	Zn	0.38259 0.64828 0.32538 1.21900
Zn	Zn	0.92425 0.55982 0.41275 1.24000
Zn	Zn	0.08008 0.94119 0.58357 1.24200
P 	P 	0.84357 0.91635 0.87777 0.47100
P 	P 	0.15804 0.56979 0.11577 0.45100
P 	P 	0.77677 0.77120 0.47915 0.48600
P 	P 	0.22315 0.72693 0.51800 0.47900
O 	O 	0.72220 0.84380 0.80256 -0.44700
O 	O 	0.83060 0.04710 0.91790 -0.48600
H 	H 	0.75120 0.04780 0.90410 0.26900
O 	O 	0.86980 0.84440 0.97023 -0.38800
O 	O 	0.98560 0.01960 0.71886 -0.48400
H 	H 	0.00340 0.09600 0.73350 0.28800
O 	O 	0.06400 0.77170 0.85310 -0.42100
O 	O 	0.03490 0.80690 0.68765 -0.43100
O 	O 	0.13300 0.64540 0.02454 -0.40100
O 	O 	0.28400 0.64430 0.18836 -0.42800
O 	O 	0.16720 0.43950 0.07985 -0.39900
O 	O 	0.02110 0.48280 0.28328 -0.48300
H 	H 	0.00350 0.40600 0.27090 0.27700
O 	O 	0.97050 0.69580 0.30860 -0.42700
O 	O 	0.94450 0.72750 0.14248 -0.42500
O 	O 	0.82210 0.65420 0.49520 -0.41800
O 	O 	0.89810 0.89350 0.48664 -0.57300
O 	O 	0.66730 0.77850 0.54735 -0.46500
O 	O 	0.58490 0.63870 0.32660 -0.48600
H 	H 	0.58880 0.60280 0.27050 0.25700
O 	O 	0.71780 0.97330 0.32551 -0.41600
O 	O 	0.50730 0.83650 0.30527 -0.40700
O 	O 	0.10180 0.60580 0.51359 -0.55800
O 	O 	0.17910 0.84440 0.50080 -0.42700
O 	O 	0.33090 0.71650 0.44960 -0.46400
O 	O 	0.41630 0.85990 0.67140 -0.54300
H 	H 	0.38600 0.92050 0.67390 0.31200
O 	O 	0.27690 0.52760 0.68005 -0.38000
O 	O 	0.48870 0.66140 0.69856 -0.38000
C 	C 	-0.00000 0.95740 0.81190 -0.12800
H 	H 	0.07570 0.01350 0.85980 0.10200
C 	C 	0.03580 0.83710 0.78250 0.37800
C 	C 	0.00520 0.54090 0.18770 -0.12700
H 	H 	0.92660 0.48360 0.14320 0.06600
C 	C 	0.97130 0.66300 0.21430 0.35900
C 	C 	0.69500 0.75470 0.34380 -0.12300
H 	H 	0.76320 0.75470 0.29530 0.08400
C 	C 	0.63550 0.86280 0.32340 0.35500
C 	C 	0.30460 0.74480 0.65320 -0.11400
H 	H 	0.23600 0.74750 0.70060 0.08600
C 	C 	0.36050 0.63670 0.67850 0.35400
Zn	Zn	0.38450 0.15091 0.33020 1.22000
Zn	Zn	0.02123 0.28143 0.01049 1.24500
Zn	Zn	0.61741 0.35172 0.67462 1.21900
Zn	Zn	0.07575 0.44018 0.58725 1.24300
Zn	Zn	0.91992 0.05881 0.41643 1.23900
P 	P 	0.15643 0.08365 0.12223 0.47900
P 	P 	0.84196 0.43021 0.88423 0.45400
P 	P 	0.22323 0.22880 0.52085 0.48500
P 	P 	0.77685 0.27307 0.48200 0.47900
O 	O 	0.27780 0.15620 0.19744 -0.44600
O 	O 	0.16940 0.95290 0.08210 -0.48300
H 	H 	0.24880 0.95220 0.09590 0.26800
O 	O 	0.13020 0.15560 0.02977 -0.38500
O 	O 	0.01440 0.98040 0.28114 -0.45100
H 	H 	0.99660 0.90400 0.26650 0.26500
O 	O 	0.93600 0.22830 0.14690 -0.42800
O 	O 	0.96510 0.19310 0.31235 -0.43900
O 	O 	0.86700 0.35460 0.97546 -0.40600
O 	O 	0.71600 0.35570 0.81164 -0.43000
O 	O 	0.83280 0.56050 0.92015 -0.40200
O 	O 	0.97890 0.51720 0.71672 -0.47800
H 	H 	0.99650 0.59400 0.72910 0.26800
O 	O 	0.02950 0.30420 0.69140 -0.42700
O 	O 	0.05550 0.27250 0.85752 -0.42600
O 	O 	0.17790 0.34580 0.50480 -0.41400
O 	O 	0.10190 0.10650 0.51336 -0.56600
O 	O 	0.33270 0.22150 0.45265 -0.46400
O 	O 	0.41510 0.36130 0.67340 -0.48600
H 	H 	0.41120 0.39720 0.72950 0.25700
O 	O 	0.28220 0.02670 0.67449 -0.41500
O 	O 	0.49270 0.16350 0.69473 -0.40700
O 	O 	0.89820 0.39420 0.48641 -0.56500
O 	O 	0.82090 0.15560 0.49920 -0.43000
O 	O 	0.66910 0.28350 0.55040 -0.46500
O 	O 	0.58370 0.14010 0.32860 -0.54300
H 	H 	0.61400 0.07950 0.32610 0.31200
O 	O 	0.72310 0.47240 0.31995 -0.38000
O 	O 	0.51130 0.33860 0.30144 -0.38000
C 	C 	0.00000 0.04260 0.18810 -0.13900
H 	H 	0.92430 0.98650 0.14020 0.10000
C 	C 	0.96420 0.16290 0.21750 0.37600
C 	C 	0.99480 0.45910 0.81230 -0.16800
H 	H 	0.07340 0.51640 0.85680 0.08700
C 	C 	0.02870 0.33700 0.78570 0.38100
C 	C 	0.30500 0.24530 0.65620 -0.12200
H 	H 	0.23680 0.24530 0.70470 0.08400
C 	C 	0.36450 0.13720 0.67660 0.35500
C 	C 	0.69540 0.25520 0.34680 -0.11400
H 	H 	0.76400 0.25250 0.29940 0.08500
C 	C 	0.63950 0.36330 0.32150 0.35300
