data_crystal

_cell_length_a 20.79290
_cell_length_b 12.48710
_cell_length_c 19.50250
_cell_angle_alpha 90.00000
_cell_angle_beta  97.32900
_cell_angle_gamma 90.00000

_symmetry_space_group_name_	'P 1'
_symmetry_space_group_name_H-M	'P 1'

loop_
_symmetry_equiv_pos_as_xyz
  x,y,z

loop_
_atom_site_label
_atom_site_type_symbol
_atom_site_fract_x
_atom_site_fract_y
_atom_site_fract_z
_atom_site_charge
Cu	Cu	0.30278 0.23703 0.18793 0.90300
Cu	Cu	0.39069 0.37236 0.14997 0.91500
Cu	Cu	0.51996 0.83561 0.43707 0.91700
O 	O 	0.46110 0.71770 0.40950 -0.38500
O 	O 	0.05670 0.43320 0.57920 -0.40200
O 	O 	0.45310 0.26880 0.19550 -0.39700
O 	O 	0.37700 0.43620 0.24080 -0.40300
O 	O 	0.30900 0.31500 0.27480 -0.41900
O 	O 	0.07790 0.45170 0.46950 -0.38900
N 	N 	0.55610 0.82780 0.34100 -0.19800
O 	O 	0.41918 0.73150 0.51020 -0.38500
O 	O 	0.61821 0.27810 0.93230 -0.39500
O 	O 	0.81770 0.95880 0.10800 -0.38800
O 	O 	0.37960 0.14940 0.22160 -0.40200
O 	O 	0.74380 0.85070 0.14880 -0.40400
N 	N 	0.19270 0.55940 0.51240 -0.11900
O 	O 	0.69870 0.17340 0.90300 -0.39200
O 	O 	0.21940 0.38380 0.50640 -0.22300
N 	N 	0.54560 0.10720 0.20400 -0.11700
C 	C 	0.43680 0.17940 0.21600 0.36200
C 	C 	0.65660 0.13500 0.00770 -0.08700
N 	N 	0.46850 0.46350 0.11610 -0.18900
C 	C 	0.42090 0.69120 0.45060 0.34300
C 	C 	0.28600 0.44340 0.38740 0.01600
H 	H 	0.25830 0.38570 0.37630 0.04200
C 	C 	0.60060 0.08070 0.10300 -0.05600
C 	C 	0.08910 0.46830 0.53450 0.34600
C 	C 	0.60250 0.14170 0.04290 0.01800
H 	H 	0.56800 0.18610 0.02670 0.05200
C 	C 	0.54100 0.08130 0.13840 0.19500
C 	C 	0.65640 0.20110 0.94330 0.34500
O 	O 	0.48710 0.05450 0.10570 -0.20400
C 	C 	0.49010 0.10140 0.24340 -0.08800
H 	H 	0.47290 0.02830 0.24210 0.08400
C 	C 	0.27820 0.50620 0.44490 -0.06300
C 	C 	0.32210 0.58560 0.46360 0.01500
H 	H 	0.31760 0.62720 0.50230 0.04800
C 	C 	0.37880 0.54820 0.36670 0.03800
H 	H 	0.41150 0.56390 0.33990 0.04900
C 	C 	0.34230 0.39870 0.28260 0.36500
C 	C 	0.70600 0.00750 0.09060 -0.08900
C 	C 	0.33490 0.46560 0.34610 -0.10000
C 	C 	0.65060 0.01370 0.12410 0.01400
H 	H 	0.64800 0.97020 0.16240 0.04200
C 	C 	0.22680 0.47720 0.49040 0.20400
C 	C 	0.76010 0.93320 0.11800 0.34300
C 	C 	0.70790 0.07130 0.03140 0.03700
H 	H 	0.74430 0.07000 0.00830 0.04600
C 	C 	0.14750 0.53780 0.56210 -0.07200
H 	H 	0.17070 0.50440 0.60350 0.07600
C 	C 	0.37420 0.60620 0.42550 -0.09500
C 	C 	0.61890 0.81980 0.33830 0.08300
H 	H 	0.64730 0.82490 0.37910 0.01500
C 	C 	0.60290 0.15560 0.24730 -0.02100
H 	H 	0.64290 0.12130 0.23850 0.04200
H 	H 	0.60580 0.23180 0.23870 0.05000
C 	C 	0.19080 0.67130 0.48980 -0.03200
H 	H 	0.19040 0.67640 0.44010 0.04800
H 	H 	0.22760 0.71100 0.51250 0.06100
C 	C 	0.60180 0.79730 0.21600 0.06600
H 	H 	0.61740 0.78580 0.17400 0.01400
C 	C 	0.51570 0.82010 0.28240 0.08600
H 	H 	0.47130 0.82340 0.28460 0.01100
C 	C 	0.51960 0.13000 0.31770 -0.04500
H 	H 	0.50320 0.19850 0.33130 0.04900
H 	H 	0.50860 0.07580 0.34990 0.05100
C 	C 	0.12620 0.64840 0.57950 -0.07100
H 	H 	0.15540 0.67920 0.61710 0.06400
H 	H 	0.08260 0.64750 0.59230 0.05600
C 	C 	0.64420 0.80410 0.27590 -0.14100
H 	H 	0.68870 0.79830 0.27510 0.08600
C 	C 	0.51760 0.40680 0.09620 0.07400
H 	H 	0.51600 0.33260 0.09960 0.02100
C 	C 	0.12860 0.71150 0.51130 -0.10800
H 	H 	0.09190 0.69440 0.47720 0.06800
H 	H 	0.13000 0.78820 0.51930 0.06800
C 	C 	0.57140 0.45270 0.07060 -0.12500
H 	H 	0.60430 0.41020 0.05710 0.08800
C 	C 	0.53680 0.80750 0.21850 -0.13900
H 	H 	0.50750 0.80610 0.17820 0.08800
C 	C 	0.47050 0.56910 0.10970 0.07500
H 	H 	0.43790 0.61050 0.12480 0.01200
C 	C 	0.52210 0.62120 0.07960 -0.12800
H 	H 	0.51970 0.69400 0.06970 0.07900
C 	C 	0.58960 0.13500 0.31800 -0.12200
H 	H 	0.60920 0.06780 0.33450 0.07700
H 	H 	0.60770 0.19180 0.34840 0.06600
C 	C 	0.57380 0.56400 0.06600 0.05700
H 	H 	0.61040 0.59810 0.05380 0.01800
Cu	Cu	0.80278 0.73703 0.18793 0.90400
Cu	Cu	0.89069 0.87236 0.14997 0.91600
Cu	Cu	0.01996 0.33561 0.43707 0.91800
O 	O 	0.96110 0.21770 0.40950 -0.38300
O 	O 	0.55670 0.93320 0.57920 -0.40100
O 	O 	0.95310 0.76880 0.19550 -0.39600
O 	O 	0.87700 0.93620 0.24080 -0.40300
O 	O 	0.80900 0.81500 0.27480 -0.41900
O 	O 	0.57790 0.95170 0.46950 -0.38900
N 	N 	0.05610 0.32780 0.34100 -0.19800
O 	O 	0.91918 0.23150 0.51020 -0.38500
O 	O 	0.11821 0.77810 0.93230 -0.39500
O 	O 	0.31770 0.45880 0.10800 -0.38800
O 	O 	0.87960 0.64940 0.22160 -0.40200
O 	O 	0.24380 0.35070 0.14880 -0.40400
N 	N 	0.69270 0.05940 0.51240 -0.11900
O 	O 	0.19870 0.67340 0.90300 -0.39200
O 	O 	0.71940 0.88380 0.50640 -0.22300
N 	N 	0.04560 0.60720 0.20400 -0.11800
C 	C 	0.93680 0.67940 0.21600 0.36200
C 	C 	0.15660 0.63500 0.00770 -0.08900
N 	N 	0.96850 0.96350 0.11610 -0.18900
C 	C 	0.92090 0.19120 0.45060 0.34300
C 	C 	0.78600 0.94340 0.38740 0.01600
H 	H 	0.75830 0.88570 0.37630 0.04200
C 	C 	0.10060 0.58070 0.10300 -0.05600
C 	C 	0.58910 0.96830 0.53450 0.34600
C 	C 	0.10250 0.64170 0.04290 0.01900
H 	H 	0.06800 0.68610 0.02670 0.05100
C 	C 	0.04100 0.58130 0.13840 0.19400
C 	C 	0.15640 0.70110 0.94330 0.34700
O 	O 	0.98710 0.55450 0.10570 -0.20200
C 	C 	0.99010 0.60140 0.24340 -0.08600
H 	H 	0.97290 0.52830 0.24210 0.08400
C 	C 	0.77820 0.00620 0.44490 -0.06300
C 	C 	0.82210 0.08560 0.46360 0.01500
H 	H 	0.81760 0.12720 0.50230 0.04800
C 	C 	0.87880 0.04820 0.36670 0.03800
H 	H 	0.91150 0.06390 0.33990 0.04900
C 	C 	0.84230 0.89870 0.28260 0.36500
C 	C 	0.20600 0.50750 0.09060 -0.09000
C 	C 	0.83490 0.96560 0.34610 -0.10000
C 	C 	0.15060 0.51370 0.12410 0.01500
H 	H 	0.14800 0.47020 0.16240 0.04200
C 	C 	0.72680 0.97720 0.49040 0.20400
C 	C 	0.26010 0.43320 0.11800 0.34300
C 	C 	0.20790 0.57130 0.03140 0.03700
H 	H 	0.24430 0.57000 0.00830 0.04600
C 	C 	0.64750 0.03780 0.56210 -0.07200
H 	H 	0.67070 0.00440 0.60350 0.07600
C 	C 	0.87420 0.10620 0.42550 -0.09500
C 	C 	0.11890 0.31980 0.33830 0.08300
H 	H 	0.14730 0.32490 0.37910 0.01600
C 	C 	0.10290 0.65560 0.24730 -0.02100
H 	H 	0.14290 0.62130 0.23850 0.04300
H 	H 	0.10580 0.73180 0.23870 0.05000
C 	C 	0.69080 0.17130 0.48980 -0.03200
H 	H 	0.69040 0.17640 0.44010 0.04800
H 	H 	0.72760 0.21100 0.51250 0.06100
C 	C 	0.10180 0.29730 0.21600 0.06500
H 	H 	0.11740 0.28580 0.17400 0.01400
C 	C 	0.01570 0.32010 0.28240 0.08400
H 	H 	0.97130 0.32340 0.28460 0.01200
C 	C 	0.01960 0.63000 0.31770 -0.04700
H 	H 	0.00320 0.69850 0.33130 0.05000
H 	H 	0.00860 0.57580 0.34990 0.05100
C 	C 	0.62620 0.14840 0.57950 -0.07100
H 	H 	0.65540 0.17920 0.61710 0.06400
H 	H 	0.58260 0.14750 0.59230 0.05600
C 	C 	0.14420 0.30410 0.27590 -0.14000
H 	H 	0.18870 0.29830 0.27510 0.08500
C 	C 	0.01760 0.90680 0.09620 0.07300
H 	H 	0.01600 0.83260 0.09960 0.02100
C 	C 	0.62860 0.21150 0.51130 -0.10800
H 	H 	0.59190 0.19440 0.47720 0.06800
H 	H 	0.63000 0.28820 0.51930 0.06800
C 	C 	0.07140 0.95270 0.07060 -0.12600
H 	H 	0.10430 0.91020 0.05710 0.08800
C 	C 	0.03680 0.30750 0.21850 -0.13800
H 	H 	0.00750 0.30610 0.17820 0.08700
C 	C 	0.97050 0.06910 0.10970 0.07700
H 	H 	0.93790 0.11050 0.12480 0.01100
C 	C 	0.02210 0.12120 0.07960 -0.13000
H 	H 	0.01970 0.19400 0.06970 0.08000
C 	C 	0.08960 0.63500 0.31800 -0.12000
H 	H 	0.10920 0.56780 0.33450 0.07700
H 	H 	0.10770 0.69180 0.34840 0.06500
C 	C 	0.07380 0.06400 0.06600 0.05800
H 	H 	0.11040 0.09810 0.05380 0.01700
Cu	Cu	0.69722 0.23703 0.81207 0.90400
Cu	Cu	0.60931 0.37236 0.85003 0.91600
Cu	Cu	0.48004 0.83561 0.56293 0.91800
O 	O 	0.53890 0.71770 0.59050 -0.38400
O 	O 	0.94330 0.43320 0.42080 -0.40100
O 	O 	0.54690 0.26880 0.80450 -0.39600
O 	O 	0.62300 0.43620 0.75920 -0.40300
O 	O 	0.69100 0.31500 0.72520 -0.41900
O 	O 	0.92210 0.45170 0.53050 -0.38900
N 	N 	0.44390 0.82780 0.65900 -0.19800
O 	O 	0.58082 0.73150 0.48980 -0.38500
O 	O 	0.38179 0.27810 0.06770 -0.39500
O 	O 	0.18230 0.95880 0.89200 -0.38800
O 	O 	0.62040 0.14940 0.77840 -0.40200
O 	O 	0.25620 0.85070 0.85120 -0.40400
N 	N 	0.80730 0.55940 0.48760 -0.11900
O 	O 	0.30130 0.17340 0.09700 -0.39200
O 	O 	0.78060 0.38380 0.49360 -0.22300
N 	N 	0.45440 0.10720 0.79600 -0.11700
C 	C 	0.56320 0.17940 0.78400 0.36200
C 	C 	0.34340 0.13500 0.99230 -0.08700
N 	N 	0.53150 0.46350 0.88390 -0.18900
C 	C 	0.57910 0.69120 0.54940 0.34300
C 	C 	0.71400 0.44340 0.61260 0.01600
H 	H 	0.74170 0.38570 0.62370 0.04200
C 	C 	0.39940 0.08070 0.89700 -0.05600
C 	C 	0.91090 0.46830 0.46550 0.34600
C 	C 	0.39750 0.14170 0.95710 0.01800
H 	H 	0.43200 0.18610 0.97330 0.05200
C 	C 	0.45900 0.08130 0.86160 0.19500
C 	C 	0.34360 0.20110 0.05670 0.34500
O 	O 	0.51290 0.05450 0.89430 -0.20400
C 	C 	0.50990 0.10140 0.75660 -0.08800
H 	H 	0.52710 0.02830 0.75790 0.08400
C 	C 	0.72180 0.50620 0.55510 -0.06300
C 	C 	0.67790 0.58560 0.53640 0.01500
H 	H 	0.68240 0.62720 0.49770 0.04800
C 	C 	0.62120 0.54820 0.63330 0.03800
H 	H 	0.58850 0.56390 0.66010 0.04900
C 	C 	0.65770 0.39870 0.71740 0.36500
C 	C 	0.29400 0.00750 0.90940 -0.08900
C 	C 	0.66510 0.46560 0.65390 -0.10000
C 	C 	0.34940 0.01370 0.87590 0.01400
H 	H 	0.35200 0.97020 0.83760 0.04200
C 	C 	0.77320 0.47720 0.50960 0.20400
C 	C 	0.23990 0.93320 0.88200 0.34300
C 	C 	0.29210 0.07130 0.96860 0.03700
H 	H 	0.25570 0.07000 0.99170 0.04600
C 	C 	0.85250 0.53780 0.43790 -0.07200
H 	H 	0.82930 0.50440 0.39650 0.07600
C 	C 	0.62580 0.60620 0.57450 -0.09500
C 	C 	0.38110 0.81980 0.66170 0.08300
H 	H 	0.35270 0.82490 0.62090 0.01500
C 	C 	0.39710 0.15560 0.75270 -0.02100
H 	H 	0.35710 0.12130 0.76150 0.04200
H 	H 	0.39420 0.23180 0.76130 0.05000
C 	C 	0.80920 0.67130 0.51020 -0.03200
H 	H 	0.80960 0.67640 0.55990 0.04800
H 	H 	0.77240 0.71100 0.48750 0.06100
C 	C 	0.39820 0.79730 0.78400 0.06600
H 	H 	0.38260 0.78580 0.82600 0.01400
C 	C 	0.48430 0.82010 0.71760 0.08600
H 	H 	0.52870 0.82340 0.71540 0.01100
C 	C 	0.48040 0.13000 0.68230 -0.04500
H 	H 	0.49680 0.19850 0.66870 0.04900
H 	H 	0.49140 0.07580 0.65010 0.05100
C 	C 	0.87380 0.64840 0.42050 -0.07100
H 	H 	0.84460 0.67920 0.38290 0.06400
H 	H 	0.91740 0.64750 0.40770 0.05600
C 	C 	0.35580 0.80410 0.72410 -0.14100
H 	H 	0.31130 0.79830 0.72490 0.08600
C 	C 	0.48240 0.40680 0.90380 0.07400
H 	H 	0.48400 0.33260 0.90040 0.02100
C 	C 	0.87140 0.71150 0.48870 -0.10800
H 	H 	0.90810 0.69440 0.52280 0.06800
H 	H 	0.87000 0.78820 0.48070 0.06800
C 	C 	0.42860 0.45270 0.92940 -0.12500
H 	H 	0.39570 0.41020 0.94290 0.08800
C 	C 	0.46320 0.80750 0.78150 -0.13900
H 	H 	0.49250 0.80610 0.82180 0.08800
C 	C 	0.52950 0.56910 0.89030 0.07500
H 	H 	0.56210 0.61050 0.87520 0.01200
C 	C 	0.47790 0.62120 0.92040 -0.12800
H 	H 	0.48030 0.69400 0.93030 0.07900
C 	C 	0.41040 0.13500 0.68200 -0.12200
H 	H 	0.39080 0.06780 0.66550 0.07700
H 	H 	0.39230 0.19180 0.65160 0.06600
C 	C 	0.42620 0.56400 0.93400 0.05700
H 	H 	0.38960 0.59810 0.94620 0.01800
Cu	Cu	0.19722 0.73703 0.81207 0.90400
Cu	Cu	0.10931 0.87236 0.85003 0.91600
Cu	Cu	0.98004 0.33561 0.56293 0.91800
O 	O 	0.03890 0.21770 0.59050 -0.38300
O 	O 	0.44330 0.93320 0.42080 -0.40100
O 	O 	0.04690 0.76880 0.80450 -0.39600
O 	O 	0.12300 0.93620 0.75920 -0.40300
O 	O 	0.19100 0.81500 0.72520 -0.41900
O 	O 	0.42210 0.95170 0.53050 -0.38900
N 	N 	0.94390 0.32780 0.65900 -0.19800
O 	O 	0.08082 0.23150 0.48980 -0.38500
O 	O 	0.88179 0.77810 0.06770 -0.39500
O 	O 	0.68230 0.45880 0.89200 -0.38800
O 	O 	0.12040 0.64940 0.77840 -0.40200
O 	O 	0.75620 0.35070 0.85120 -0.40400
N 	N 	0.30730 0.05940 0.48760 -0.11900
O 	O 	0.80130 0.67340 0.09700 -0.39200
O 	O 	0.28060 0.88380 0.49360 -0.22300
N 	N 	0.95440 0.60720 0.79600 -0.11800
C 	C 	0.06320 0.67940 0.78400 0.36200
C 	C 	0.84340 0.63500 0.99230 -0.08900
N 	N 	0.03150 0.96350 0.88390 -0.18900
C 	C 	0.07910 0.19120 0.54940 0.34300
C 	C 	0.21400 0.94340 0.61260 0.01600
H 	H 	0.24170 0.88570 0.62370 0.04200
C 	C 	0.89940 0.58070 0.89700 -0.05600
C 	C 	0.41090 0.96830 0.46550 0.34600
C 	C 	0.89750 0.64170 0.95710 0.01900
H 	H 	0.93200 0.68610 0.97330 0.05100
C 	C 	0.95900 0.58130 0.86160 0.19400
C 	C 	0.84360 0.70110 0.05670 0.34700
O 	O 	0.01290 0.55450 0.89430 -0.20200
C 	C 	0.00990 0.60140 0.75660 -0.08600
H 	H 	0.02710 0.52830 0.75790 0.08400
C 	C 	0.22180 0.00620 0.55510 -0.06300
C 	C 	0.17790 0.08560 0.53640 0.01500
H 	H 	0.18240 0.12720 0.49770 0.04800
C 	C 	0.12120 0.04820 0.63330 0.03800
H 	H 	0.08850 0.06390 0.66010 0.04900
C 	C 	0.15770 0.89870 0.71740 0.36500
C 	C 	0.79400 0.50750 0.90940 -0.09000
C 	C 	0.16510 0.96560 0.65390 -0.10000
C 	C 	0.84940 0.51370 0.87590 0.01500
H 	H 	0.85200 0.47020 0.83760 0.04200
C 	C 	0.27320 0.97720 0.50960 0.20400
C 	C 	0.73990 0.43320 0.88200 0.34300
C 	C 	0.79210 0.57130 0.96860 0.03700
H 	H 	0.75570 0.57000 0.99170 0.04600
C 	C 	0.35250 0.03780 0.43790 -0.07200
H 	H 	0.32930 0.00440 0.39650 0.07600
C 	C 	0.12580 0.10620 0.57450 -0.09500
C 	C 	0.88110 0.31980 0.66170 0.08300
H 	H 	0.85270 0.32490 0.62090 0.01600
C 	C 	0.89710 0.65560 0.75270 -0.02100
H 	H 	0.85710 0.62130 0.76150 0.04300
H 	H 	0.89420 0.73180 0.76130 0.05000
C 	C 	0.30920 0.17130 0.51020 -0.03200
H 	H 	0.30960 0.17640 0.55990 0.04800
H 	H 	0.27240 0.21100 0.48750 0.06100
C 	C 	0.89820 0.29730 0.78400 0.06500
H 	H 	0.88260 0.28580 0.82600 0.01400
C 	C 	0.98430 0.32010 0.71760 0.08400
H 	H 	0.02870 0.32340 0.71540 0.01200
C 	C 	0.98040 0.63000 0.68230 -0.04700
H 	H 	0.99680 0.69850 0.66870 0.05000
H 	H 	0.99140 0.57580 0.65010 0.05100
C 	C 	0.37380 0.14840 0.42050 -0.07100
H 	H 	0.34460 0.17920 0.38290 0.06400
H 	H 	0.41740 0.14750 0.40770 0.05600
C 	C 	0.85580 0.30410 0.72410 -0.14000
H 	H 	0.81130 0.29830 0.72490 0.08500
C 	C 	0.98240 0.90680 0.90380 0.07300
H 	H 	0.98400 0.83260 0.90040 0.02100
C 	C 	0.37140 0.21150 0.48870 -0.10800
H 	H 	0.40810 0.19440 0.52280 0.06800
H 	H 	0.37000 0.28820 0.48070 0.06800
C 	C 	0.92860 0.95270 0.92940 -0.12600
H 	H 	0.89570 0.91020 0.94290 0.08800
C 	C 	0.96320 0.30750 0.78150 -0.13800
H 	H 	0.99250 0.30610 0.82180 0.08700
C 	C 	0.02950 0.06910 0.89030 0.07700
H 	H 	0.06210 0.11050 0.87520 0.01100
C 	C 	0.97790 0.12120 0.92040 -0.13000
H 	H 	0.98030 0.19400 0.93030 0.08000
C 	C 	0.91040 0.63500 0.68200 -0.12000
H 	H 	0.89080 0.56780 0.66550 0.07700
H 	H 	0.89230 0.69180 0.65160 0.06500
C 	C 	0.92620 0.06400 0.93400 0.05800
H 	H 	0.88960 0.09810 0.94620 0.01700
