data_crystal

_cell_length_a 10.55300
_cell_length_b 12.78900
_cell_length_c 14.44300
_cell_angle_alpha 112.20600
_cell_angle_beta  90.40100
_cell_angle_gamma 94.83900

_symmetry_space_group_name_	'P 1'
_symmetry_space_group_name_H-M	'P 1'

loop_
_symmetry_equiv_pos_as_xyz
  x,y,z

loop_
_atom_site_label
_atom_site_type_symbol
_atom_site_fract_x
_atom_site_fract_y
_atom_site_fract_z
_atom_site_charge
Co	Co	0.26373 0.42354 0.22962 1.16000
Co	Co	0.81787 0.27114 0.67833 1.13600
O 	O 	0.29890 0.39870 0.35820 -0.41200
O 	O 	0.36070 0.56760 0.47621 -0.30800
O 	O 	0.23270 0.05940 0.43930 -0.27200
O 	O 	0.26860 0.07790 0.59440 -0.25900
O 	O 	0.54410 0.59440 0.81290 -0.40200
O 	O 	0.49400 0.41910 0.80790 -0.31800
O 	O 	0.24510 0.70120 0.17203 -0.39900
O 	O 	0.12480 0.81020 0.12620 -0.28800
O 	O 	0.96660 0.38960 0.75333 -0.43800
O 	O 	0.93090 0.55770 0.74731 -0.43400
O 	O 	0.31290 0.60630 0.31175 -1.01100
H 	H 	0.33700 0.60200 0.36600 0.40700
H 	H 	0.37600 0.61200 0.27800 0.40500
N 	N 	0.22200 0.24760 0.15560 -0.22600
N 	N 	0.17930 0.08420 0.02810 -0.13000
N 	N 	0.10100 0.79080 0.62450 -0.13000
N 	N 	0.12140 0.73150 0.46110 -0.23700
C 	C 	0.32040 0.46460 0.44780 0.34300
C 	C 	0.29440 0.41250 0.52410 -0.07200
C 	C 	0.28050 0.29580 0.49450 0.01200
H 	H 	0.28900 0.25030 0.42760 0.05500
C 	C 	0.25440 0.24570 0.56280 -0.06800
C 	C 	0.23690 0.31440 0.66240 -0.02200
H 	H 	0.21770 0.28140 0.70860 0.05700
C 	C 	0.24810 0.43180 0.69290 -0.01100
C 	C 	0.27820 0.48060 0.62370 -0.02200
H 	H 	0.28760 0.55920 0.64410 0.06000
C 	C 	0.24870 0.11740 0.53010 0.30500
C 	C 	0.23360 0.50860 0.80010 0.09800
C 	C 	0.34170 0.55310 0.86550 -0.12600
C 	C 	0.32970 0.62480 0.96470 0.06600
H 	H 	0.40110 0.65000 0.00820 0.02700
C 	C 	0.21210 0.65840 0.99870 -0.12400
C 	C 	0.10550 0.62100 0.93360 0.06800
H 	H 	0.02740 0.64780 0.95510 0.00800
C 	C 	0.11570 0.54320 0.83570 -0.15000
C 	C 	0.47020 0.51930 0.82620 0.34400
C 	C 	0.19390 0.73070 0.10780 0.34300
C 	C 	0.99430 0.49320 0.77300 0.38200
C 	C 	0.20400 0.19780 0.05770 0.10100
H 	H 	0.20790 0.23620 0.01430 -0.01900
C 	C 	0.20700 0.16220 0.19080 0.02600
H 	H 	0.21370 0.17180 0.25780 0.03700
C 	C 	0.18080 0.06080 0.11290 0.00000
H 	H 	0.16680 0.98980 0.11680 0.05600
C 	C 	0.15750 0.00750 0.92620 0.09100
C 	C 	0.15510 0.05010 0.85200 -0.06400
H 	H 	0.16830 0.12800 0.86890 0.06700
C 	C 	0.13320 0.97900 0.75270 -0.07800
H 	H 	0.12880 0.00880 0.70330 0.07800
C 	C 	0.11810 0.86320 0.72780 0.10200
C 	C 	0.11890 0.82000 0.80160 -0.08100
H 	H 	0.10590 0.74200 0.78460 0.07700
C 	C 	0.13900 0.89190 0.90150 -0.06600
H 	H 	0.14010 0.86230 0.95120 0.07300
C 	C 	0.14530 0.81700 0.54720 0.08900
H 	H 	0.18710 0.88670 0.55420 0.00100
C 	C 	0.04490 0.68090 0.58390 -0.00200
H 	H 	0.00590 0.63920 0.61820 0.04700
C 	C 	0.05800 0.64640 0.48430 0.01700
H 	H 	0.02850 0.57520 0.43780 0.02900
Co	Co	0.73627 0.57646 0.77038 1.16100
Co	Co	0.18213 0.72886 0.32167 1.13700
O 	O 	0.70110 0.60130 0.64180 -0.41100
O 	O 	0.63930 0.43240 0.52379 -0.30700
O 	O 	0.76730 0.94060 0.56070 -0.27200
O 	O 	0.73140 0.92210 0.40560 -0.25900
O 	O 	0.45590 0.40560 0.18710 -0.40200
O 	O 	0.50600 0.58090 0.19210 -0.31800
O 	O 	0.75490 0.29880 0.82797 -0.39900
O 	O 	0.87520 0.18980 0.87380 -0.28800
O 	O 	0.03340 0.61040 0.24667 -0.43800
O 	O 	0.06910 0.44230 0.25269 -0.43400
O 	O 	0.68710 0.39370 0.68825 -1.01100
H 	H 	0.66300 0.39800 0.63400 0.40700
H 	H 	0.62400 0.38800 0.72200 0.40500
N 	N 	0.77800 0.75240 0.84440 -0.22600
N 	N 	0.82070 0.91580 0.97190 -0.13000
N 	N 	0.89900 0.20920 0.37550 -0.13000
N 	N 	0.87860 0.26850 0.53890 -0.23700
C 	C 	0.67960 0.53540 0.55220 0.34300
C 	C 	0.70560 0.58750 0.47590 -0.07200
C 	C 	0.71950 0.70420 0.50550 0.01200
H 	H 	0.71100 0.74970 0.57240 0.05500
C 	C 	0.74560 0.75430 0.43720 -0.06800
C 	C 	0.76310 0.68560 0.33760 -0.02200
H 	H 	0.78230 0.71860 0.29140 0.05700
C 	C 	0.75190 0.56820 0.30710 -0.01100
C 	C 	0.72180 0.51940 0.37630 -0.02200
H 	H 	0.71240 0.44080 0.35590 0.06000
C 	C 	0.75130 0.88260 0.46990 0.30500
C 	C 	0.76640 0.49140 0.19990 0.09800
C 	C 	0.65830 0.44690 0.13450 -0.12600
C 	C 	0.67030 0.37520 0.03530 0.06600
H 	H 	0.59890 0.35000 0.99180 0.02700
C 	C 	0.78790 0.34160 0.00130 -0.12400
C 	C 	0.89450 0.37900 0.06640 0.06800
H 	H 	0.97260 0.35220 0.04490 0.00800
C 	C 	0.88430 0.45680 0.16430 -0.15000
C 	C 	0.52980 0.48070 0.17380 0.34400
C 	C 	0.80610 0.26930 0.89220 0.34300
C 	C 	0.00570 0.50680 0.22700 0.38200
C 	C 	0.79600 0.80220 0.94230 0.10100
H 	H 	0.79210 0.76380 0.98570 -0.01900
C 	C 	0.79300 0.83780 0.80920 0.02600
H 	H 	0.78630 0.82820 0.74220 0.03700
C 	C 	0.81920 0.93920 0.88710 0.00000
H 	H 	0.83320 0.01020 0.88320 0.05600
C 	C 	0.84250 0.99250 0.07380 0.09100
C 	C 	0.84490 0.94990 0.14800 -0.06400
H 	H 	0.83170 0.87200 0.13110 0.06700
C 	C 	0.86680 0.02100 0.24730 -0.07800
H 	H 	0.87120 0.99120 0.29670 0.07800
C 	C 	0.88190 0.13680 0.27220 0.10200
C 	C 	0.88110 0.18000 0.19840 -0.08100
H 	H 	0.89410 0.25800 0.21540 0.07700
C 	C 	0.86100 0.10810 0.09850 -0.06600
H 	H 	0.85990 0.13770 0.04880 0.07300
C 	C 	0.85470 0.18300 0.45280 0.08900
H 	H 	0.81290 0.11330 0.44580 0.00100
C 	C 	0.95510 0.31910 0.41610 -0.00200
H 	H 	0.99410 0.36080 0.38180 0.04700
C 	C 	0.94200 0.35360 0.51570 0.01700
H 	H 	0.97150 0.42480 0.56220 0.02900
