data_crystal

_cell_length_a 4.39990
_cell_length_b 6.67080
_cell_length_c 10.55870
_cell_angle_alpha 108.41500
_cell_angle_beta  91.18690
_cell_angle_gamma 90.00000

_symmetry_space_group_name_	'P 1'
_symmetry_space_group_name_H-M	'P 1'

loop_
_symmetry_equiv_pos_as_xyz
  x,y,z

loop_
_atom_site_label
_atom_site_type_symbol
_atom_site_fract_x
_atom_site_fract_y
_atom_site_fract_z
_atom_site_charge
Cu	Cu	0.50000 -0.00000 0.50000 0.88800
Cu	Cu	0.50000 0.50000 0.50000 0.89600
P 	P 	0.98060 0.17422 0.34844 0.37300
P 	P 	0.01940 0.82578 0.65156 0.35300
H 	H 	0.23000 0.99700 0.18400 0.09000
H 	H 	0.80300 0.96100 0.06400 0.36400
H 	H 	0.77000 0.81300 0.81600 -0.13500
H 	H 	0.19700 0.89700 0.93600 0.25000
H 	H 	0.77000 0.00300 0.81600 -0.15300
H 	H 	0.19700 0.03900 0.93600 0.22000
H 	H 	0.23000 0.18700 0.18400 0.07600
H 	H 	0.80300 0.10300 0.06400 0.34600
C 	C 	0.13600 0.09130 0.18260 -0.10200
C 	C 	0.92400 0.03330 0.06660 -0.78300
C 	C 	0.86400 0.90870 0.81740 0.35500
C 	C 	0.07600 0.96670 0.93340 -0.50400
O 	O 	0.79210 0.99110 0.36300 -0.38900
O 	O 	0.20790 0.62810 0.63700 -0.39500
O 	O 	0.20790 0.00890 0.63700 -0.40900
O 	O 	0.79210 0.37190 0.36300 -0.40400
O 	O 	0.25500 0.22450 0.44900 -0.47500
O 	O 	0.74500 0.77550 0.55100 -0.46200
