data_crystal

_cell_length_a 20.03050
_cell_length_b 6.67130
_cell_length_c 4.39960
_cell_angle_alpha 90.00000
_cell_angle_beta  91.37900
_cell_angle_gamma 90.00000

_symmetry_space_group_name_	'P 1'
_symmetry_space_group_name_H-M	'P 1'

loop_
_symmetry_equiv_pos_as_xyz
  x,y,z

loop_
_atom_site_label
_atom_site_type_symbol
_atom_site_fract_x
_atom_site_fract_y
_atom_site_fract_z
_atom_site_charge
O 	O 	0.18150 0.30400 0.30080 -0.41900
O 	O 	0.68150 0.80400 0.30080 -0.43000
O 	O 	0.81850 0.30400 0.69920 -0.29500
O 	O 	0.31850 0.80400 0.69920 -0.30700
O 	O 	0.81850 0.69600 0.69920 -0.30000
O 	O 	0.31850 0.19600 0.69920 -0.29800
O 	O 	0.18150 0.69600 0.30080 -0.42600
O 	O 	0.68150 0.19600 0.30080 -0.42300
Cu	Cu	0.25000 0.25000 -0.00000 0.79600
Cu	Cu	0.75000 0.25000 -0.00000 0.79600
Cu	Cu	0.75000 0.75000 -0.00000 0.79300
Cu	Cu	0.25000 0.75000 -0.00000 0.79200
P 	P 	0.17500 0.50000 0.47880 0.37800
C 	C 	0.09610 0.50000 0.66700 0.04500
C 	C 	0.03690 0.50000 0.43800 -0.05900
P 	P 	0.67500 0.00000 0.47880 0.38500
C 	C 	0.59610 0.00000 0.66700 0.04400
C 	C 	0.53690 0.00000 0.43800 -0.06200
P 	P 	0.82500 0.50000 0.52120 0.41000
C 	C 	0.90390 0.50000 0.33300 -0.17400
C 	C 	0.96310 0.50000 0.56200 0.09800
P 	P 	0.32500 0.00000 0.52120 0.41700
C 	C 	0.40390 0.00000 0.33300 -0.17000
C 	C 	0.46310 0.00000 0.56200 0.10400
O 	O 	0.27230 0.00000 0.25300 -0.50300
O 	O 	0.77230 0.50000 0.25300 -0.50900
O 	O 	0.72770 -0.00000 0.74700 -0.34000
O 	O 	0.22770 0.50000 0.74700 -0.34300
