data_crystal

_cell_length_a 6.10710
_cell_length_b 7.69620
_cell_length_c 22.70200
_cell_angle_alpha 90.00000
_cell_angle_beta  91.64500
_cell_angle_gamma 90.00000

_symmetry_space_group_name_	'P 1'
_symmetry_space_group_name_H-M	'P 1'

loop_
_symmetry_equiv_pos_as_xyz
  x,y,z

loop_
_atom_site_label
_atom_site_type_symbol
_atom_site_fract_x
_atom_site_fract_y
_atom_site_fract_z
_atom_site_charge
La	La	0.54514 0.99824 0.14605 1.67600
La	La	0.45486 0.49824 0.35395 1.68500
La	La	0.45486 0.00176 0.85395 1.67600
La	La	0.54514 0.50176 0.64605 1.68500
H 	H 	0.95960 0.02070 0.28270 0.08100
H 	H 	0.88620 0.93270 0.37440 0.06800
H 	H 	0.04040 0.52070 0.21730 0.06600
H 	H 	0.11380 0.43270 0.12560 0.07300
H 	H 	0.04040 0.97930 0.71730 0.08100
H 	H 	0.11380 0.06730 0.62560 0.06800
H 	H 	0.95960 0.47930 0.78270 0.06600
H 	H 	0.88620 0.56730 0.87440 0.07300
C 	C 	0.63990 0.10310 0.28860 0.35500
C 	C 	0.81750 0.96300 0.28630 -0.05800
C 	C 	0.82190 0.85990 0.34300 -0.04800
C 	C 	0.95330 0.69420 0.33970 0.37100
C 	C 	0.58380 0.07510 0.99920 0.22200
C 	C 	0.36010 0.60310 0.21140 0.34000
C 	C 	0.18250 0.46300 0.21370 -0.03100
C 	C 	0.17810 0.35990 0.15700 -0.05600
C 	C 	0.04670 0.19420 0.16030 0.37200
C 	C 	0.41620 0.57510 0.50080 0.22500
C 	C 	0.36010 0.89690 0.71140 0.35500
C 	C 	0.18250 0.03700 0.71370 -0.05800
C 	C 	0.17810 0.14010 0.65700 -0.04800
C 	C 	0.04670 0.30580 0.66030 0.37100
C 	C 	0.41620 0.92490 0.00080 0.22200
C 	C 	0.63990 0.39690 0.78860 0.34000
C 	C 	0.81750 0.53700 0.78630 -0.03100
C 	C 	0.82190 0.64010 0.84300 -0.05600
C 	C 	0.95330 0.80580 0.83970 0.37200
C 	C 	0.58380 0.42490 0.49920 0.22500
O 	O 	0.48940 0.10320 0.24920 -0.36100
O 	O 	0.65000 0.21280 0.32990 -0.36500
O 	O 	0.77980 0.85650 0.23470 -0.24000
O 	O 	0.60020 0.81460 0.35860 -0.23800
O 	O 	0.85640 0.55240 0.34540 -0.40000
O 	O 	0.15340 0.70950 0.33340 -0.39300
O 	O 	0.62360 0.13230 0.94800 -0.34100
O 	O 	0.65940 0.13060 0.04640 -0.33600
O 	O 	0.51060 0.60320 0.25080 -0.36200
O 	O 	0.35000 0.71280 0.17010 -0.36300
O 	O 	0.22020 0.35650 0.26530 -0.24200
O 	O 	0.39980 0.31460 0.14140 -0.23400
O 	O 	0.14360 0.05240 0.15460 -0.39600
O 	O 	0.84660 0.20950 0.16660 -0.39000
O 	O 	0.37640 0.63230 0.55200 -0.34000
O 	O 	0.34060 0.63060 0.45360 -0.34000
O 	O 	0.51060 0.89680 0.75080 -0.36100
O 	O 	0.35000 0.78720 0.67010 -0.36500
O 	O 	0.22020 0.14350 0.76530 -0.24000
O 	O 	0.39980 0.18540 0.64140 -0.23800
O 	O 	0.14360 0.44760 0.65460 -0.40000
O 	O 	0.84660 0.29050 0.66660 -0.39300
O 	O 	0.37640 0.86770 0.05200 -0.34100
O 	O 	0.34060 0.86940 0.95360 -0.33600
O 	O 	0.48940 0.39680 0.74920 -0.36200
O 	O 	0.65000 0.28720 0.82990 -0.36300
O 	O 	0.77980 0.64350 0.73470 -0.24200
O 	O 	0.60020 0.68540 0.85860 -0.23400
O 	O 	0.85640 0.94760 0.84540 -0.39600
O 	O 	0.15340 0.79050 0.83340 -0.39000
O 	O 	0.62360 0.36770 0.44800 -0.34000
O 	O 	0.65940 0.36940 0.54640 -0.34000
