data_crystal

_cell_length_a 6.10920
_cell_length_b 7.68660
_cell_length_c 22.69870
_cell_angle_alpha 90.00000
_cell_angle_beta  91.65700
_cell_angle_gamma 90.00000

_symmetry_space_group_name_	'P 1'
_symmetry_space_group_name_H-M	'P 1'

loop_
_symmetry_equiv_pos_as_xyz
  x,y,z

loop_
_atom_site_label
_atom_site_type_symbol
_atom_site_fract_x
_atom_site_fract_y
_atom_site_fract_z
_atom_site_charge
La	La	0.45487 0.50172 0.85390 1.68700
La	La	0.54513 0.00172 0.64610 1.67900
La	La	0.54513 0.49828 0.14610 1.68700
La	La	0.45487 0.99828 0.35390 1.67900
H 	H 	0.30200 0.72400 0.75810 0.25400
H 	H 	0.44400 0.62500 0.61660 0.27800
H 	H 	0.04160 0.47800 0.71760 0.05400
H 	H 	0.12020 0.56560 0.62510 0.03000
H 	H 	0.69800 0.22400 0.74190 0.25100
H 	H 	0.55600 0.12500 0.88340 0.27700
H 	H 	0.95840 0.97800 0.78240 0.06900
H 	H 	0.87980 0.06560 0.87490 0.02500
H 	H 	0.69800 0.27600 0.24190 0.25300
H 	H 	0.55600 0.37500 0.38340 0.27700
H 	H 	0.95840 0.52200 0.28240 0.05400
H 	H 	0.87980 0.43440 0.37490 0.03000
H 	H 	0.30200 0.77600 0.25810 0.25100
H 	H 	0.44400 0.87500 0.11660 0.27700
H 	H 	0.04160 0.02200 0.21760 0.06900
H 	H 	0.12020 0.93440 0.12510 0.02500
C 	C 	0.36140 0.39410 0.71127 0.33900
C 	C 	0.18400 0.53540 0.71445 0.00100
C 	C 	0.18260 0.63910 0.65667 0.01900
C 	C 	0.04660 0.80580 0.65986 0.33700
C 	C 	0.58240 0.57600 0.99870 0.22300
C 	C 	0.63860 0.89410 0.78873 0.35400
C 	C 	0.81600 0.03540 0.78555 -0.02500
C 	C 	0.81740 0.13910 0.84333 0.02700
C 	C 	0.95340 0.30580 0.84014 0.33500
C 	C 	0.41760 0.07600 0.50130 0.22300
C 	C 	0.63860 0.60590 0.28873 0.33900
C 	C 	0.81600 0.46460 0.28555 0.00100
C 	C 	0.81740 0.36090 0.34333 0.01900
C 	C 	0.95340 0.19420 0.34014 0.33700
C 	C 	0.41760 0.42400 0.00130 0.22300
C 	C 	0.36140 0.10590 0.21127 0.35400
C 	C 	0.18400 0.96460 0.21445 -0.02500
C 	C 	0.18260 0.86090 0.15667 0.02700
C 	C 	0.04660 0.69420 0.15986 0.33500
C 	C 	0.58240 0.92400 0.49870 0.22300
O 	O 	0.51110 0.39790 0.75078 -0.40000
O 	O 	0.35060 0.28690 0.67020 -0.38900
O 	O 	0.22020 0.64020 0.76536 -0.44900
O 	O 	0.39980 0.68590 0.64175 -0.50100
O 	O 	0.14550 0.94730 0.65467 -0.38600
O 	O 	0.84620 0.78930 0.66667 -0.38200
O 	O 	0.62350 0.63190 0.94824 -0.35300
O 	O 	0.66150 0.63060 0.04630 -0.35400
O 	O 	0.48890 0.89790 0.74922 -0.40000
O 	O 	0.64940 0.78690 0.82980 -0.39000
O 	O 	0.77980 0.14020 0.73464 -0.44600
O 	O 	0.60020 0.18590 0.85825 -0.50500
O 	O 	0.85450 0.44730 0.84533 -0.39000
O 	O 	0.15380 0.28930 0.83333 -0.38500
O 	O 	0.37650 0.13190 0.55176 -0.35400
O 	O 	0.33850 0.13060 0.45370 -0.35200
O 	O 	0.48890 0.60210 0.24922 -0.40000
O 	O 	0.64940 0.71310 0.32980 -0.38900
O 	O 	0.77980 0.35980 0.23464 -0.44900
O 	O 	0.60020 0.31410 0.35825 -0.50100
O 	O 	0.85450 0.05270 0.34533 -0.38600
O 	O 	0.15380 0.21070 0.33333 -0.38200
O 	O 	0.37650 0.36810 0.05176 -0.35300
O 	O 	0.33850 0.36940 0.95370 -0.35400
O 	O 	0.51110 0.10210 0.25078 -0.40000
O 	O 	0.35060 0.21310 0.17020 -0.39000
O 	O 	0.22020 0.85980 0.26536 -0.44600
O 	O 	0.39980 0.81410 0.14175 -0.50500
O 	O 	0.14550 0.55270 0.15467 -0.39000
O 	O 	0.84620 0.71070 0.16667 -0.38500
O 	O 	0.62350 0.86810 0.44824 -0.35400
O 	O 	0.66150 0.86940 0.54630 -0.35200
