data_crystal

_cell_length_a 14.41440
_cell_length_b 23.39640
_cell_length_c 15.56410
_cell_angle_alpha 90.00000
_cell_angle_beta  107.63200
_cell_angle_gamma 90.00000

_symmetry_space_group_name_	'P 1'
_symmetry_space_group_name_H-M	'P 1'

loop_
_symmetry_equiv_pos_as_xyz
  x,y,z

loop_
_atom_site_label
_atom_site_type_symbol
_atom_site_fract_x
_atom_site_fract_y
_atom_site_fract_z
_atom_site_charge
Cd	Cd	0.24684 0.44474 0.58252 1.23800
Cd	Cd	0.27371 0.30844 0.69252 1.21700
O 	O 	0.41290 0.43560 0.60010 -0.36100
O 	O 	0.33750 0.35230 0.59120 -0.48000
C 	C 	0.41610 0.38220 0.60470 0.34400
C 	C 	0.51030 0.35240 0.62520 -0.18100
C 	C 	0.68920 0.29700 0.67260 0.18100
C 	C 	0.60400 0.26630 0.63610 -0.21900
H 	H 	0.60660 0.22730 0.62560 0.10700
C 	C 	0.51510 0.29390 0.61520 0.10800
H 	H 	0.45790 0.27290 0.59410 -0.02000
C 	C 	0.59710 0.38340 0.65710 0.11700
H 	H 	0.59520 0.42300 0.66200 0.01100
C 	C 	0.68550 0.35540 0.68140 -0.21600
H 	H 	0.74280 0.37610 0.70380 0.11800
O 	O 	0.16000 0.38100 0.63230 -0.51200
N 	N 	0.78230 0.26880 0.69840 -0.18700
C 	C 	0.73450 0.20160 0.79670 -0.20000
H 	H 	0.69320 0.22900 0.80850 0.10100
C 	C 	0.79400 0.21550 0.74150 0.17300
O 	O 	0.04510 0.40720 0.50930 -0.45800
O 	O 	0.18680 0.22300 0.70990 -0.38300
O 	O 	0.16660 0.25850 0.57610 -0.38300
C 	C 	0.99940 0.34790 0.61260 -0.08400
C 	C 	0.07020 0.38060 0.58060 0.34600
C 	C 	0.06300 0.18100 0.58910 -0.15600
C 	C 	0.02070 0.32780 0.70060 -0.02100
H 	H 	0.08310 0.33230 0.74040 0.03300
C 	C 	0.73830 0.14810 0.83220 0.10400
H 	H 	0.69520 0.13820 0.86380 0.01200
C 	C 	0.14410 0.22290 0.62870 0.32800
N 	N 	0.85360 0.05580 0.46480 -0.18700
C 	C 	0.81720 0.01750 0.51930 0.13500
C 	C 	0.84030 0.00660 0.20010 -0.25200
C 	C 	0.76790 0.01080 0.32150 -0.28400
H 	H 	0.71600 0.00290 0.34340 0.13200
C 	C 	0.94960 0.30090 0.72930 -0.10500
H 	H 	0.96400 0.28770 0.78820 0.08200
C 	C 	0.91870 0.03710 0.25370 0.17600
H 	H 	0.96880 0.04730 0.23070 -0.01000
C 	C 	0.05690 0.13090 0.63290 0.03700
H 	H 	0.10030 0.12410 0.68980 0.02800
C 	C 	0.98630 0.08980 0.59330 -0.14900
H 	H 	0.98350 0.05590 0.62350 0.09700
C 	C 	0.77380 0.03980 0.57990 -0.16100
H 	H 	0.76730 0.07910 0.58460 0.09300
C 	C 	0.86200 0.17630 0.73170 -0.20200
H 	H 	0.90240 0.18520 0.69700 0.11600
C 	C 	0.82700 0.95900 0.51110 -0.15200
H 	H 	0.85630 0.94430 0.47020 0.09900
C 	C 	0.84950 0.04030 0.37490 0.21800
C 	C 	0.92100 0.09960 0.50970 0.15400
C 	C 	0.92420 0.05280 0.34020 -0.26900
H 	H 	0.97900 0.07210 0.37560 0.13700
C 	C 	0.86960 0.12340 0.77440 0.10400
H 	H 	0.91800 0.09800 0.77110 0.01300
C 	C 	0.83670 0.31270 0.57990 -0.15200
H 	H 	0.77540 0.30670 0.53890 0.09000
C 	C 	0.74790 0.94490 0.62810 -0.10700
C 	C 	0.99500 0.19140 0.50560 0.11200
H 	H 	0.99810 0.22530 0.47550 0.01600
C 	C 	0.85720 0.29380 0.66970 0.13000
C 	C 	0.76520 0.99360 0.23590 0.20500
H 	H 	0.71200 0.97280 0.20130 -0.01700
C 	C 	0.73970 0.00250 0.63430 0.04900
H 	H 	0.71080 0.01760 0.67530 0.02700
C 	C 	0.79230 0.92260 0.56550 0.05700
H 	H 	0.79840 0.88320 0.56060 0.03100
C 	C 	0.90650 0.33950 0.55400 0.05900
H 	H 	0.89190 0.35260 0.49500 0.02700
C 	C 	0.92160 0.15140 0.46630 -0.19200
H 	H 	0.87420 0.15950 0.41210 0.10200
C 	C 	0.80530 0.10800 0.82210 -0.16000
C 	C 	0.83560 0.99030 0.10780 0.42500
O 	O 	0.67530 0.92610 0.74280 -0.37100
C 	C 	0.71690 0.90600 0.68930 0.33500
O 	O 	0.77550 0.95200 0.06660 -0.41000
O 	O 	0.89400 0.01650 0.07310 -0.45600
C 	C 	0.80680 0.04960 0.86050 0.36700
O 	O 	0.73130 0.85250 0.68190 -0.40300
O 	O 	0.87780 0.01670 0.86860 -0.45200
O 	O 	0.73140 0.03510 0.87850 -0.41200
Cd	Cd	0.75316 0.94474 0.91748 1.24400
Cd	Cd	0.72629 0.80844 0.80748 1.21800
O 	O 	0.58710 0.93560 0.89990 -0.35300
O 	O 	0.66250 0.85230 0.90880 -0.47500
C 	C 	0.58390 0.88220 0.89530 0.34300
C 	C 	0.48970 0.85240 0.87480 -0.17800
C 	C 	0.31080 0.79700 0.82740 0.18400
C 	C 	0.39600 0.76630 0.86390 -0.22000
H 	H 	0.39340 0.72730 0.87440 0.10900
C 	C 	0.48490 0.79390 0.88480 0.10900
H 	H 	0.54210 0.77290 0.90590 -0.01700
C 	C 	0.40290 0.88340 0.84290 0.11700
H 	H 	0.40480 0.92300 0.83800 0.01400
C 	C 	0.31450 0.85540 0.81860 -0.21800
H 	H 	0.25720 0.87610 0.79620 0.11800
O 	O 	0.84000 0.88100 0.86770 -0.53400
N 	N 	0.21770 0.76880 0.80160 -0.21000
C 	C 	0.26550 0.70160 0.70330 -0.20700
H 	H 	0.30680 0.72900 0.69150 0.10100
C 	C 	0.20600 0.71550 0.75850 0.17800
O 	O 	0.95490 0.90720 0.99070 -0.45900
O 	O 	0.81320 0.72300 0.79010 -0.38100
O 	O 	0.83340 0.75850 0.92390 -0.37100
C 	C 	0.00060 0.84790 0.88740 -0.35100
C 	C 	0.92980 0.88060 0.91940 0.47500
C 	C 	0.93700 0.68100 0.91090 -0.16600
C 	C 	0.97930 0.82780 0.79940 0.30100
H 	H 	0.91690 0.83230 0.75960 -0.06700
C 	C 	0.26170 0.64810 0.66780 0.11000
H 	H 	0.30480 0.63820 0.63620 0.00700
C 	C 	0.85590 0.72290 0.87130 0.34300
N 	N 	0.14640 0.55580 0.03520 -0.20800
C 	C 	0.18280 0.51750 0.98070 0.16500
C 	C 	0.15970 0.50660 0.29990 -0.17900
C 	C 	0.23210 0.51080 0.17850 -0.21300
H 	H 	0.28400 0.50290 0.15660 0.11000
C 	C 	0.05040 0.80090 0.77070 -0.35700
H 	H 	0.03600 0.78770 0.71180 0.15700
C 	C 	0.08130 0.53710 0.24630 0.11900
H 	H 	0.03120 0.54730 0.26930 -0.00400
C 	C 	0.94310 0.63090 0.86710 0.16100
H 	H 	0.89970 0.62410 0.81020 -0.00300
C 	C 	0.01370 0.58980 0.90670 -0.28400
H 	H 	0.01650 0.55590 0.87650 0.13000
C 	C 	0.22620 0.53980 0.92010 -0.19000
H 	H 	0.23270 0.57910 0.91540 0.10500
C 	C 	0.13800 0.67630 0.76830 -0.21100
H 	H 	0.09760 0.68520 0.80300 0.11100
C 	C 	0.17300 0.45900 0.98890 -0.16400
H 	H 	0.14370 0.44430 0.02980 0.08100
C 	C 	0.15050 0.54030 0.12510 0.17800
C 	C 	0.07900 0.59960 0.99030 0.23500
C 	C 	0.07580 0.55280 0.15980 -0.22700
H 	H 	0.02100 0.57210 0.12440 0.10600
C 	C 	0.13040 0.62340 0.72560 0.10700
H 	H 	0.08200 0.59800 0.72890 0.00200
C 	C 	0.16330 0.81270 0.92010 -0.33700
H 	H 	0.22460 0.80670 0.96110 0.15800
C 	C 	0.25210 0.44490 0.87190 -0.14000
C 	C 	0.00500 0.69140 0.99440 0.14900
H 	H 	0.00190 0.72530 0.02450 -0.02400
C 	C 	0.14280 0.79380 0.83030 0.26700
C 	C 	0.23480 0.49360 0.26410 0.11100
H 	H 	0.28800 0.47280 0.29870 0.01100
C 	C 	0.26030 0.50250 0.86570 0.08900
H 	H 	0.28920 0.51760 0.82470 0.01700
C 	C 	0.20770 0.42260 0.93450 0.06700
H 	H 	0.20160 0.38320 0.93940 0.02500
C 	C 	0.09350 0.83950 0.94600 0.28900
H 	H 	0.10810 0.85260 0.00500 -0.06900
C 	C 	0.07840 0.65140 0.03370 -0.28400
H 	H 	0.12580 0.65950 0.08790 0.12900
C 	C 	0.19470 0.60800 0.67790 -0.16600
C 	C 	0.16440 0.49030 0.39220 0.37300
O 	O 	0.32470 0.42610 0.75720 -0.37800
C 	C 	0.28310 0.40600 0.81070 0.34300
O 	O 	0.22450 0.45200 0.43340 -0.40000
O 	O 	0.10600 0.51650 0.42690 -0.44500
C 	C 	0.19320 0.54960 0.63950 0.37000
O 	O 	0.26870 0.35250 0.81810 -0.41100
O 	O 	0.12220 0.51670 0.63140 -0.46200
O 	O 	0.26860 0.53510 0.62150 -0.40900
Cd	Cd	0.75316 0.55526 0.41748 1.24000
Cd	Cd	0.72629 0.69156 0.30748 1.21800
O 	O 	0.58710 0.56440 0.39990 -0.36100
O 	O 	0.66250 0.64770 0.40880 -0.47800
C 	C 	0.58390 0.61780 0.39530 0.34400
C 	C 	0.48970 0.64760 0.37480 -0.18300
C 	C 	0.31080 0.70300 0.32740 0.18400
C 	C 	0.39600 0.73370 0.36390 -0.22300
H 	H 	0.39340 0.77270 0.37440 0.10900
C 	C 	0.48490 0.70610 0.38480 0.11000
H 	H 	0.54210 0.72710 0.40590 -0.02000
C 	C 	0.40290 0.61660 0.34290 0.11900
H 	H 	0.40480 0.57700 0.33800 0.00900
C 	C 	0.31450 0.64460 0.31860 -0.22100
H 	H 	0.25720 0.62390 0.29620 0.11700
O 	O 	0.84000 0.61900 0.36770 -0.53600
N 	N 	0.21770 0.73120 0.30160 -0.21000
C 	C 	0.26550 0.79840 0.20330 -0.20600
H 	H 	0.30680 0.77100 0.19150 0.09900
C 	C 	0.20600 0.78450 0.25850 0.17600
O 	O 	0.95490 0.59280 0.49070 -0.46700
O 	O 	0.81320 0.77700 0.29010 -0.37600
O 	O 	0.83340 0.74150 0.42390 -0.37000
C 	C 	0.00060 0.65210 0.38740 -0.34900
C 	C 	0.92980 0.61940 0.41940 0.47700
C 	C 	0.93700 0.81900 0.41090 -0.11200
C 	C 	0.97930 0.67220 0.29940 0.30600
H 	H 	0.91690 0.66770 0.25960 -0.06800
C 	C 	0.26170 0.85190 0.16780 0.10700
H 	H 	0.30480 0.86180 0.13620 0.00700
C 	C 	0.85590 0.77710 0.37130 0.32300
N 	N 	0.14640 0.94420 0.53520 -0.18800
C 	C 	0.18280 0.98250 0.48070 0.21400
C 	C 	0.15970 0.99340 0.79990 -0.08000
C 	C 	0.23210 0.98920 0.67850 -0.12500
H 	H 	0.28400 0.99710 0.65660 0.08800
C 	C 	0.05040 0.69910 0.27070 -0.35900
H 	H 	0.03600 0.71230 0.21180 0.15700
C 	C 	0.08130 0.96290 0.74630 0.04900
H 	H 	0.03120 0.95270 0.76930 0.02400
C 	C 	0.94310 0.86910 0.36710 0.11000
H 	H 	0.89970 0.87590 0.31020 0.01500
C 	C 	0.01370 0.91020 0.40670 -0.23000
H 	H 	0.01650 0.94410 0.37650 0.11500
C 	C 	0.22620 0.96020 0.42010 -0.24000
H 	H 	0.23270 0.92090 0.41540 0.12100
C 	C 	0.13800 0.82370 0.26830 -0.20900
H 	H 	0.09760 0.81480 0.30300 0.10900
C 	C 	0.17300 0.04100 0.48890 -0.26000
H 	H 	0.14370 0.05570 0.52980 0.11800
C 	C 	0.15050 0.95970 0.62510 0.13600
C 	C 	0.07900 0.90040 0.49030 0.16800
C 	C 	0.07580 0.94720 0.65980 -0.16600
H 	H 	0.02100 0.92790 0.62440 0.09000
C 	C 	0.13040 0.87660 0.22560 0.10400
H 	H 	0.08200 0.90200 0.22890 0.00400
C 	C 	0.16330 0.68730 0.42010 -0.31900
H 	H 	0.22460 0.69330 0.46110 0.14700
C 	C 	0.25210 0.05510 0.37190 -0.20400
C 	C 	0.00500 0.80860 0.49440 0.04400
H 	H 	0.00190 0.77470 0.52450 0.02200
C 	C 	0.14280 0.70620 0.33030 0.26100
C 	C 	0.23480 0.00640 0.76410 -0.00300
H 	H 	0.28800 0.02720 0.79870 0.04700
C 	C 	0.26030 0.99750 0.36570 0.16100
H 	H 	0.28920 0.98240 0.32470 -0.00300
C 	C 	0.20770 0.07740 0.43450 0.12900
H 	H 	0.20160 0.11680 0.43940 -0.00100
C 	C 	0.09350 0.66050 0.44600 0.25500
H 	H 	0.10810 0.64740 0.50500 -0.04800
C 	C 	0.07840 0.84860 0.53370 -0.18200
H 	H 	0.12580 0.84050 0.58790 0.09600
C 	C 	0.19470 0.89200 0.17790 -0.16200
C 	C 	0.16440 0.00970 0.89220 0.30600
O 	O 	0.32470 0.07390 0.25720 -0.39000
C 	C 	0.28310 0.09400 0.31070 0.36400
O 	O 	0.22450 0.04800 0.93340 -0.38000
O 	O 	0.10600 0.98350 0.92690 -0.40900
C 	C 	0.19320 0.95040 0.13950 0.36600
O 	O 	0.26870 0.14750 0.31810 -0.41900
O 	O 	0.12220 0.98330 0.13140 -0.45300
O 	O 	0.26860 0.96490 0.12150 -0.40300
Cd	Cd	0.24684 0.05526 0.08252 1.23300
Cd	Cd	0.27371 0.19156 0.19252 1.21600
O 	O 	0.41290 0.06440 0.10010 -0.37000
O 	O 	0.33750 0.14770 0.09120 -0.48400
C 	C 	0.41610 0.11780 0.10470 0.34500
C 	C 	0.51030 0.14760 0.12520 -0.18500
C 	C 	0.68920 0.20300 0.17260 0.18100
C 	C 	0.60400 0.23370 0.13610 -0.22200
H 	H 	0.60660 0.27270 0.12560 0.10700
C 	C 	0.51510 0.20610 0.11520 0.11000
H 	H 	0.45790 0.22710 0.09410 -0.02200
C 	C 	0.59710 0.11660 0.15710 0.11800
H 	H 	0.59520 0.07700 0.16200 0.00600
C 	C 	0.68550 0.14460 0.18140 -0.21900
H 	H 	0.74280 0.12390 0.20380 0.11700
O 	O 	0.16000 0.11900 0.13230 -0.51200
N 	N 	0.78230 0.23120 0.19840 -0.18400
C 	C 	0.73450 0.29840 0.29670 -0.19900
H 	H 	0.69320 0.27100 0.30850 0.09900
C 	C 	0.79400 0.28450 0.24150 0.17100
O 	O 	0.04510 0.09280 0.00930 -0.46500
O 	O 	0.18680 0.27700 0.20990 -0.38000
O 	O 	0.16660 0.24150 0.07610 -0.38400
C 	C 	0.99940 0.15210 0.11260 -0.04900
C 	C 	0.07020 0.11940 0.08060 0.33100
C 	C 	0.06300 0.31900 0.08910 -0.11700
C 	C 	0.02070 0.17220 0.20060 -0.05500
H 	H 	0.08310 0.16770 0.24040 0.04300
C 	C 	0.73830 0.35190 0.33220 0.10200
H 	H 	0.69520 0.36180 0.36380 0.01000
C 	C 	0.14410 0.27710 0.12870 0.31300
N 	N 	0.85360 0.44420 0.96480 -0.17100
C 	C 	0.81720 0.48250 0.01930 0.17000
C 	C 	0.84030 0.49340 0.70010 -0.17100
C 	C 	0.76790 0.48920 0.82150 -0.21100
H 	H 	0.71600 0.49710 0.84340 0.11400
C 	C 	0.94960 0.19910 0.22930 -0.07600
H 	H 	0.96400 0.21230 0.28820 0.07200
C 	C 	0.91870 0.46290 0.75370 0.11800
H 	H 	0.96880 0.45270 0.73070 0.01100
C 	C 	0.05690 0.36910 0.13290 -0.00100
H 	H 	0.10030 0.37590 0.18980 0.04200
C 	C 	0.98630 0.41020 0.09330 -0.10700
H 	H 	0.98350 0.44410 0.12350 0.08600
C 	C 	0.77380 0.46020 0.07990 -0.19800
H 	H 	0.76730 0.42090 0.08460 0.10500
C 	C 	0.86200 0.32370 0.23170 -0.20000
H 	H 	0.90240 0.31480 0.19700 0.11500
C 	C 	0.82700 0.54100 0.01110 -0.22400
H 	H 	0.85630 0.55570 0.97020 0.12700
C 	C 	0.84950 0.45970 0.87490 0.18300
C 	C 	0.92100 0.40040 0.00970 0.10100
C 	C 	0.92420 0.44720 0.84020 -0.21900
H 	H 	0.97900 0.42790 0.87560 0.12200
C 	C 	0.86960 0.37660 0.27440 0.10100
H 	H 	0.91800 0.40200 0.27110 0.01500
C 	C 	0.83670 0.18730 0.07990 -0.11600
H 	H 	0.77540 0.19330 0.03890 0.07400
C 	C 	0.74790 0.55510 0.12810 -0.15500
C 	C 	0.99500 0.30860 0.00560 0.03200
H 	H 	0.99810 0.27470 0.97550 0.05200
C 	C 	0.85720 0.20620 0.16970 0.10800
C 	C 	0.76520 0.50640 0.73590 0.11100
H 	H 	0.71200 0.52720 0.70130 0.01200
C 	C 	0.73970 0.49750 0.13430 0.10200
H 	H 	0.71080 0.48240 0.17530 0.01200
C 	C 	0.79230 0.57740 0.06550 0.10400
H 	H 	0.79840 0.61680 0.06060 0.01200
C 	C 	0.90650 0.16050 0.05400 0.00400
H 	H 	0.89190 0.14740 0.99500 0.05600
C 	C 	0.92160 0.34860 0.96630 -0.11300
H 	H 	0.87420 0.34050 0.91210 0.07700
C 	C 	0.80530 0.39200 0.32210 -0.15800
C 	C 	0.83560 0.50970 0.60780 0.37200
O 	O 	0.67530 0.57390 0.24280 -0.38000
C 	C 	0.71690 0.59400 0.18930 0.35100
O 	O 	0.77550 0.54800 0.56660 -0.39500
O 	O 	0.89400 0.48350 0.57310 -0.43100
C 	C 	0.80680 0.45040 0.36050 0.36500
O 	O 	0.73130 0.64750 0.18190 -0.40900
O 	O 	0.87780 0.48330 0.36860 -0.44800
O 	O 	0.73140 0.46490 0.37850 -0.40800
Cd	Cd	0.00000 0.50000 0.50000 1.23900
Cd	Cd	-0.00000 0.00000 -0.00000 1.22800
