data_crystal

_cell_length_a 13.31690
_cell_length_b 13.31690
_cell_length_c 14.29700
_cell_angle_alpha 90.00000
_cell_angle_beta  90.00000
_cell_angle_gamma 120.00000

_symmetry_space_group_name_	'P 1'
_symmetry_space_group_name_H-M	'P 1'

loop_
_symmetry_equiv_pos_as_xyz
  x,y,z

loop_
_atom_site_label
_atom_site_type_symbol
_atom_site_fract_x
_atom_site_fract_y
_atom_site_fract_z
_atom_site_charge
Er	Er	0.33333 0.66666 0.84568 1.95700
Er	Er	0.33333 0.66666 0.34568 1.95500
Er	Er	0.66667 0.33334 0.18054 1.82500
Er	Er	0.66667 0.33334 0.68054 1.82600
Cu	Cu	0.00050 0.50020 0.01330 0.88800
Cu	Cu	0.49970 0.99950 0.01330 0.88800
Cu	Cu	0.49980 0.50030 0.01330 0.92300
Cu	Cu	0.49970 0.50020 0.51330 0.93100
Cu	Cu	0.49980 0.99950 0.51330 0.89700
Cu	Cu	0.00050 0.50030 0.51330 0.89700
H 	H 	0.01880 0.66910 0.93570 0.02000
H 	H 	0.97360 0.32390 0.09340 0.17300
H 	H 	0.92200 0.60920 0.82290 0.15500
H 	H 	0.81010 0.54840 0.88540 0.15100
H 	H 	0.09750 0.40690 0.21150 0.16400
H 	H 	0.20090 0.47100 0.14160 0.18800
H 	H 	0.95810 0.70130 0.06190 0.19300
H 	H 	0.85830 0.67540 0.99150 0.19100
H 	H 	0.03820 0.29050 0.95910 0.11400
H 	H 	0.13530 0.31210 0.03240 0.11300
H 	H 	0.65030 0.98120 0.93570 0.02400
H 	H 	0.35030 0.02640 0.09340 0.16800
H 	H 	0.68720 0.07800 0.82290 0.16300
H 	H 	0.73830 0.18990 0.88540 0.15800
H 	H 	0.30940 0.90250 0.21150 0.15700
H 	H 	0.27010 0.79910 0.14160 0.18300
H 	H 	0.74320 0.04190 0.06190 0.20700
H 	H 	0.81710 0.14170 0.99150 0.20900
H 	H 	0.25230 0.96180 0.95910 0.10000
H 	H 	0.17680 0.86470 0.03240 0.09200
H 	H 	0.33090 0.34970 0.93570 0.09000
H 	H 	0.67610 0.64970 0.09340 0.10100
H 	H 	0.39080 0.31280 0.82290 0.13200
H 	H 	0.45160 0.26170 0.88540 0.15000
H 	H 	0.59310 0.69060 0.21150 0.18100
H 	H 	0.52900 0.72990 0.14160 0.18600
H 	H 	0.29870 0.25680 0.06190 0.16500
H 	H 	0.32460 0.18290 0.99150 0.19100
H 	H 	0.70950 0.74770 0.95910 0.13800
H 	H 	0.68790 0.82320 0.03240 0.11300
H 	H 	0.65030 0.66910 0.43570 0.08900
H 	H 	0.35030 0.32390 0.59340 0.10500
H 	H 	0.68720 0.60920 0.32290 0.13000
H 	H 	0.73830 0.54840 0.38540 0.14600
H 	H 	0.30940 0.40690 0.71150 0.18100
H 	H 	0.27010 0.47100 0.64160 0.18800
H 	H 	0.74320 0.70130 0.56190 0.15000
H 	H 	0.81710 0.67540 0.49150 0.15700
H 	H 	0.25230 0.29050 0.45910 0.10600
H 	H 	0.17680 0.31210 0.53240 0.10000
H 	H 	0.33090 0.98120 0.43570 0.01600
H 	H 	0.67610 0.02640 0.59340 0.17600
H 	H 	0.39080 0.07800 0.32290 0.15400
H 	H 	0.45160 0.18990 0.38540 0.14700
H 	H 	0.59310 0.90250 0.71150 0.16400
H 	H 	0.52900 0.79910 0.64160 0.19000
H 	H 	0.29870 0.04190 0.56190 0.17800
H 	H 	0.32460 0.14170 0.49150 0.15800
H 	H 	0.70950 0.96180 0.45910 0.08000
H 	H 	0.68790 0.86470 0.53240 0.09900
H 	H 	0.01880 0.34970 0.43570 0.02000
H 	H 	0.97360 0.64970 0.59340 0.17200
H 	H 	0.92200 0.31280 0.32290 0.16300
H 	H 	0.81010 0.26170 0.38540 0.15400
H 	H 	0.09750 0.69060 0.71150 0.15700
H 	H 	0.20090 0.72990 0.64160 0.18400
H 	H 	0.95810 0.25680 0.56190 0.19400
H 	H 	0.85830 0.18290 0.49150 0.17900
H 	H 	0.03820 0.74770 0.45910 0.06400
H 	H 	0.13530 0.82320 0.53240 0.07700
C 	C 	0.12970 0.56400 0.17850 0.57000
C 	C 	0.87430 0.43620 0.85390 0.43500
C 	C 	0.88630 0.55750 0.87570 -0.32900
C 	C 	0.12350 0.45590 0.15640 -0.47400
C 	C 	0.89770 0.64100 0.02400 -0.46900
C 	C 	0.09560 0.34700 0.00130 -0.29800
C 	C 	0.18720 0.46210 0.94450 0.35400
C 	C 	0.81480 0.55200 0.08630 0.51800
C 	C 	0.43430 0.87030 0.17850 0.56800
C 	C 	0.56190 0.12570 0.85390 0.43700
C 	C 	0.67120 0.11370 0.87570 -0.33500
C 	C 	0.33240 0.87650 0.15640 -0.46900
C 	C 	0.74330 0.10230 0.02400 -0.47900
C 	C 	0.25140 0.90440 0.00130 -0.28900
C 	C 	0.27490 0.81280 0.94450 0.35100
C 	C 	0.73720 0.18520 0.08630 0.52300
C 	C 	0.43600 0.56570 0.17850 0.57600
C 	C 	0.56380 0.43810 0.85390 0.42700
C 	C 	0.44250 0.32880 0.87570 -0.31800
C 	C 	0.54410 0.66760 0.15640 -0.47700
C 	C 	0.35900 0.25670 0.02400 -0.45700
C 	C 	0.65300 0.74860 0.00130 -0.30700
C 	C 	0.53790 0.72510 0.94450 0.36200
C 	C 	0.44800 0.26280 0.08630 0.50800
C 	C 	0.43430 0.56400 0.67850 0.57700
C 	C 	0.56190 0.43620 0.35390 0.42500
C 	C 	0.67120 0.55750 0.37570 -0.31400
C 	C 	0.33240 0.45590 0.65640 -0.47500
C 	C 	0.74330 0.64100 0.52400 -0.38600
C 	C 	0.25140 0.34700 0.50130 -0.23900
C 	C 	0.27490 0.46210 0.44450 0.33200
C 	C 	0.73720 0.55200 0.58630 0.48600
C 	C 	0.43600 0.87030 0.67850 0.57000
C 	C 	0.56380 0.12570 0.35390 0.43300
C 	C 	0.44250 0.11370 0.37570 -0.32600
C 	C 	0.54410 0.87650 0.65640 -0.47100
C 	C 	0.35900 0.10230 0.52400 -0.40000
C 	C 	0.65300 0.90440 0.50130 -0.22800
C 	C 	0.53790 0.81280 0.44450 0.32400
C 	C 	0.44800 0.18520 0.58630 0.49700
C 	C 	0.12970 0.56570 0.67850 0.56800
C 	C 	0.87430 0.43810 0.35390 0.43500
C 	C 	0.88630 0.32880 0.37570 -0.33200
C 	C 	0.12350 0.66760 0.65640 -0.46700
C 	C 	0.89770 0.25670 0.52400 -0.41500
C 	C 	0.09560 0.74860 0.50130 -0.21600
C 	C 	0.18720 0.72510 0.44450 0.31900
C 	C 	0.81480 0.26280 0.58630 0.50400
N 	N 	0.95280 0.60440 0.95420 -0.05300
N 	N 	0.03930 0.38610 0.07120 -0.22300
N 	N 	0.65160 0.04720 0.95420 -0.05100
N 	N 	0.34680 0.96070 0.07120 -0.22500
N 	N 	0.39560 0.34840 0.95420 -0.12100
N 	N 	0.61390 0.65320 0.07120 -0.16100
N 	N 	0.65160 0.60440 0.45420 -0.14000
N 	N 	0.34680 0.38610 0.57120 -0.16700
N 	N 	0.39560 0.04720 0.45420 -0.07000
N 	N 	0.61390 0.96070 0.57120 -0.22800
N 	N 	0.95280 0.34840 0.45420 -0.06600
N 	N 	0.03930 0.65320 0.57120 -0.23100
O 	O 	0.19060 0.55580 0.95500 -0.48800
O 	O 	0.07610 0.59830 0.12360 -0.47200
O 	O 	0.81130 0.45590 0.07460 -0.50900
O 	O 	0.92820 0.40240 0.90610 -0.37000
O 	O 	0.25240 0.44620 0.88430 -0.36100
O 	O 	0.75890 0.56800 0.14110 -0.42700
O 	O 	0.81480 0.37690 0.78440 -0.45100
O 	O 	0.18530 0.61590 0.24540 -0.56400
O 	O 	0.36520 0.80940 0.95500 -0.48800
O 	O 	0.52220 0.92390 0.12360 -0.47000
O 	O 	0.64460 0.18870 0.07460 -0.50900
O 	O 	0.47420 0.07180 0.90610 -0.37300
O 	O 	0.19380 0.74760 0.88430 -0.37000
O 	O 	0.80910 0.24110 0.14110 -0.41700
O 	O 	0.56210 0.18520 0.78440 -0.45300
O 	O 	0.43060 0.81470 0.24540 -0.56200
O 	O 	0.44420 0.63480 0.95500 -0.48600
O 	O 	0.40170 0.47780 0.12360 -0.44600
O 	O 	0.54410 0.35540 0.07460 -0.51900
O 	O 	0.59760 0.52580 0.90610 -0.40800
O 	O 	0.55380 0.80620 0.88430 -0.36600
O 	O 	0.43200 0.19090 0.14110 -0.42100
O 	O 	0.62310 0.43790 0.78440 -0.46000
O 	O 	0.38410 0.56940 0.24540 -0.55600
O 	O 	0.36520 0.55580 0.45500 -0.48600
O 	O 	0.52220 0.59830 0.62360 -0.44200
O 	O 	0.64460 0.45590 0.57460 -0.50900
O 	O 	0.47420 0.40240 0.40610 -0.41500
O 	O 	0.19380 0.44620 0.38430 -0.36200
O 	O 	0.80910 0.56800 0.64110 -0.41100
O 	O 	0.56210 0.37690 0.28440 -0.45900
O 	O 	0.43060 0.61590 0.74540 -0.55600
O 	O 	0.44420 0.80940 0.45500 -0.48900
O 	O 	0.40170 0.92390 0.62360 -0.46800
O 	O 	0.54410 0.18870 0.57460 -0.50000
O 	O 	0.59760 0.07180 0.40610 -0.37600
O 	O 	0.55380 0.74760 0.38430 -0.35700
O 	O 	0.43200 0.24110 0.64110 -0.41800
O 	O 	0.62310 0.18520 0.28440 -0.45000
O 	O 	0.38410 0.81470 0.74540 -0.56400
O 	O 	0.19060 0.63480 0.45500 -0.48800
O 	O 	0.07610 0.47780 0.62360 -0.46500
O 	O 	0.81130 0.35540 0.57460 -0.50000
O 	O 	0.92820 0.52580 0.40610 -0.37800
O 	O 	0.25240 0.80620 0.38430 -0.36700
O 	O 	0.75890 0.19090 0.64110 -0.40800
O 	O 	0.81480 0.43790 0.28440 -0.45200
O 	O 	0.18530 0.56940 0.74540 -0.56200
