data_crystal

_cell_length_a 9.99830
_cell_length_b 11.01590
_cell_length_c 12.37460
_cell_angle_alpha 90.95500
_cell_angle_beta  110.69400
_cell_angle_gamma 95.11600

_symmetry_space_group_name_	'P 1'
_symmetry_space_group_name_H-M	'P 1'

loop_
_symmetry_equiv_pos_as_xyz
  x,y,z

loop_
_atom_site_label
_atom_site_type_symbol
_atom_site_fract_x
_atom_site_fract_y
_atom_site_fract_z
_atom_site_charge
Cu	Cu	0.67535 0.87699 0.50347 0.92300
O 	O 	0.69390 0.71430 0.43810 -0.36100
O 	O 	0.91990 0.79390 0.51760 -0.30700
O 	O 	0.24550 0.96670 0.41100 -0.40900
O 	O 	0.43270 0.86670 0.41710 -0.38600
O 	O 	0.69050 0.13030 0.99790 -0.22000
O 	O 	0.78940 0.71920 0.05990 -0.22300
N 	N 	0.66170 0.80490 0.64760 -0.21100
N 	N 	0.69850 0.94780 0.36080 -0.20400
N 	N 	0.90410 0.05090 0.04480 -0.12200
N 	N 	0.57740 0.60890 0.99100 -0.12300
C 	C 	0.82910 0.71360 0.45630 0.30700
C 	C 	0.87020 0.61020 0.39820 -0.09500
C 	C 	0.98210 0.62700 0.35350 0.05100
C 	C 	0.00810 0.52710 0.29570 -0.09200
H 	H 	0.07910 0.53720 0.26110 0.06400
C 	C 	0.93320 0.41430 0.28760 0.01800
H 	H 	0.95250 0.34800 0.24710 0.02800
C 	C 	0.83060 0.39680 0.33750 -0.08500
H 	H 	0.78290 0.31770 0.33560 0.06700
C 	C 	0.79730 0.49490 0.39070 0.02200
H 	H 	0.72370 0.48360 0.42250 0.03500
C 	C 	0.07240 0.74350 0.36780 0.03100
H 	H 	0.02850 0.81670 0.36660 0.04800
C 	C 	0.30500 0.86990 0.40540 0.41000
C 	C 	0.81430 0.02460 0.37160 0.05900
H 	H 	0.87580 0.05420 0.44700 0.03100
C 	C 	0.84830 0.06280 0.27790 -0.09600
H 	H 	0.93260 0.11630 0.28930 0.07600
C 	C 	0.75880 0.02250 0.16730 0.02000
C 	C 	0.63750 0.94340 0.15510 -0.09300
H 	H 	0.57270 0.91440 0.08070 0.08600
C 	C 	0.61310 0.90800 0.25350 0.06500
H 	H 	0.53130 0.85230 0.24480 0.02400
C 	C 	0.78320 0.07130 0.06270 0.17100
C 	C 	0.01800 0.98290 0.11970 -0.03400
H 	H 	0.98370 0.93980 0.17600 0.05600
H 	H 	0.10260 0.04050 0.16350 0.05500
C 	C 	0.93880 0.10850 0.95110 -0.04900
H 	H 	0.01840 0.17410 0.98410 0.07100
H 	H 	0.85410 0.14620 0.90020 0.06800
C 	C 	0.43970 0.56840 0.89830 -0.04800
H 	H 	0.44310 0.59380 0.82290 0.05000
H 	H 	0.36110 0.60700 0.91220 0.06100
C 	C 	0.58880 0.56610 0.10470 -0.04700
H 	H 	0.51900 0.60410 0.13130 0.06200
H 	H 	0.68640 0.59160 0.16080 0.06800
C 	C 	0.68100 0.68340 0.97870 0.18100
C 	C 	0.66510 0.72270 0.85990 0.01800
C 	C 	0.59070 0.81950 0.81110 -0.10200
H 	H 	0.53810 0.85910 0.84950 0.07600
C 	C 	0.59300 0.85840 0.70700 0.06800
H 	H 	0.54330 0.92660 0.67580 0.00800
C 	C 	0.73390 0.71170 0.69510 0.06300
H 	H 	0.78400 0.67250 0.65420 0.01000
C 	C 	0.73950 0.66940 0.80000 -0.10100
H 	H 	0.79430 0.60380 0.83130 0.06800
C 	C 	0.21100 0.75320 0.38230 -0.22800
H 	H 	0.25300 0.68020 0.37750 0.11700
Cu	Cu	0.32465 0.12301 0.49653 0.92300
O 	O 	0.30610 0.28570 0.56190 -0.36100
O 	O 	0.08010 0.20610 0.48240 -0.30700
O 	O 	0.75450 0.03330 0.58900 -0.40900
O 	O 	0.56730 0.13330 0.58290 -0.38600
O 	O 	0.30950 0.86970 0.00210 -0.22000
O 	O 	0.21060 0.28080 0.94010 -0.22300
N 	N 	0.33830 0.19510 0.35240 -0.21100
N 	N 	0.30150 0.05220 0.63920 -0.20400
N 	N 	0.09590 0.94910 0.95520 -0.12200
N 	N 	0.42260 0.39110 0.00900 -0.12300
C 	C 	0.17090 0.28640 0.54370 0.30700
C 	C 	0.12980 0.38980 0.60180 -0.09500
C 	C 	0.01790 0.37300 0.64650 0.05100
C 	C 	0.99190 0.47290 0.70430 -0.09200
H 	H 	0.92090 0.46280 0.73890 0.06400
C 	C 	0.06680 0.58570 0.71240 0.01800
H 	H 	0.04750 0.65200 0.75290 0.02800
C 	C 	0.16940 0.60320 0.66250 -0.08500
H 	H 	0.21710 0.68230 0.66440 0.06700
C 	C 	0.20270 0.50510 0.60930 0.02200
H 	H 	0.27630 0.51640 0.57750 0.03500
C 	C 	0.92760 0.25650 0.63220 0.03100
H 	H 	0.97150 0.18330 0.63340 0.04800
C 	C 	0.69500 0.13010 0.59460 0.41000
C 	C 	0.18570 0.97540 0.62840 0.05900
H 	H 	0.12420 0.94580 0.55300 0.03100
C 	C 	0.15170 0.93720 0.72210 -0.09600
H 	H 	0.06740 0.88370 0.71070 0.07600
C 	C 	0.24120 0.97750 0.83270 0.02000
C 	C 	0.36250 0.05660 0.84490 -0.09300
H 	H 	0.42730 0.08560 0.91930 0.08600
C 	C 	0.38690 0.09200 0.74650 0.06500
H 	H 	0.46870 0.14770 0.75520 0.02400
C 	C 	0.21680 0.92870 0.93730 0.17100
C 	C 	0.98200 0.01710 0.88030 -0.03400
H 	H 	0.01630 0.06020 0.82400 0.05600
H 	H 	0.89740 0.95950 0.83650 0.05500
C 	C 	0.06120 0.89150 0.04890 -0.04900
H 	H 	0.98160 0.82590 0.01590 0.07100
H 	H 	0.14590 0.85380 0.09980 0.06800
C 	C 	0.56030 0.43160 0.10170 -0.04800
H 	H 	0.55690 0.40620 0.17710 0.05000
H 	H 	0.63890 0.39300 0.08780 0.06100
C 	C 	0.41120 0.43390 0.89530 -0.04700
H 	H 	0.48100 0.39590 0.86870 0.06200
H 	H 	0.31360 0.40840 0.83920 0.06800
C 	C 	0.31900 0.31660 0.02130 0.18100
C 	C 	0.33490 0.27730 0.14010 0.01800
C 	C 	0.40930 0.18050 0.18890 -0.10200
H 	H 	0.46190 0.14090 0.15050 0.07600
C 	C 	0.40700 0.14160 0.29300 0.06800
H 	H 	0.45670 0.07340 0.32420 0.00800
C 	C 	0.26610 0.28830 0.30490 0.06300
H 	H 	0.21600 0.32750 0.34580 0.01000
C 	C 	0.26050 0.33060 0.20000 -0.10100
H 	H 	0.20570 0.39620 0.16870 0.06800
C 	C 	0.78900 0.24680 0.61770 -0.22800
H 	H 	0.74700 0.31980 0.62250 0.11700
