data_crystal

_cell_length_a 19.07660
_cell_length_b 9.16570
_cell_length_c 14.18060
_cell_angle_alpha 90.00000
_cell_angle_beta  90.00000
_cell_angle_gamma 90.00000

_symmetry_space_group_name_	'P 1'
_symmetry_space_group_name_H-M	'P 1'

loop_
_symmetry_equiv_pos_as_xyz
  x,y,z

loop_
_atom_site_label
_atom_site_type_symbol
_atom_site_fract_x
_atom_site_fract_y
_atom_site_fract_z
_atom_site_charge
V 	V 	0.13916 0.23073 0.13449 1.69700
V 	V 	0.99958 0.71660 0.35135 1.69300
V 	V 	0.24556 0.75327 0.33742 1.68800
P 	P 	0.11568 0.92576 0.23766 0.38800
P 	P 	0.12393 0.06368 0.93163 0.40200
P 	P 	0.12241 0.52983 0.26083 0.41500
P 	P 	0.13616 0.45803 0.95072 0.42400
O 	O 	0.09910 0.08850 0.22610 -0.50900
O 	O 	0.17190 0.90220 0.31220 -0.58300
O 	O 	0.04830 0.84420 0.25700 -0.53100
O 	O 	0.10640 0.10080 0.03220 -0.54700
O 	O 	0.19810 0.10370 0.90490 -0.59000
O 	O 	0.07060 0.12290 0.86150 -0.57000
O 	O 	0.14050 0.37220 0.24180 -0.52300
O 	O 	0.04800 0.54300 0.29750 -0.53600
O 	O 	0.17530 0.59450 0.32890 -0.57600
O 	O 	0.14490 0.39980 0.04970 -0.55700
O 	O 	0.06360 0.43060 0.91220 -0.57300
O 	O 	0.19490 0.41470 0.88560 -0.59300
V 	V 	0.86084 0.76927 0.63449 1.69400
V 	V 	0.00042 0.28340 0.85135 1.68900
V 	V 	0.75444 0.24673 0.83742 1.68500
P 	P 	0.88432 0.07424 0.73766 0.38600
P 	P 	0.87607 0.93632 0.43163 0.44500
P 	P 	0.87759 0.47017 0.76083 0.41000
P 	P 	0.86384 0.54197 0.45072 0.46900
O 	O 	0.90090 0.91150 0.72610 -0.51900
O 	O 	0.82810 0.09780 0.81220 -0.58900
O 	O 	0.95170 0.15580 0.75700 -0.53700
O 	O 	0.89360 0.89920 0.53220 -0.59200
O 	O 	0.80190 0.89630 0.40490 -0.58400
O 	O 	0.92940 0.87710 0.36150 -0.56700
O 	O 	0.85950 0.62780 0.74180 -0.52900
O 	O 	0.95200 0.45700 0.79750 -0.54200
O 	O 	0.82470 0.40550 0.82890 -0.58300
O 	O 	0.85510 0.60020 0.54970 -0.59800
O 	O 	0.93640 0.56940 0.41220 -0.56500
O 	O 	0.80510 0.58530 0.38560 -0.58800
V 	V 	0.63916 0.26927 0.13449 1.69800
V 	V 	0.49958 0.78340 0.35135 1.69500
V 	V 	0.74556 0.74673 0.33742 1.68900
P 	P 	0.61568 0.57424 0.23766 0.38900
P 	P 	0.62393 0.43632 0.93163 0.40600
P 	P 	0.62241 0.97017 0.26083 0.41100
P 	P 	0.63616 0.04197 0.95072 0.42800
O 	O 	0.59910 0.41150 0.22610 -0.51100
O 	O 	0.67190 0.59780 0.31220 -0.58300
O 	O 	0.54830 0.65580 0.25700 -0.53300
O 	O 	0.60640 0.39920 0.03220 -0.55200
O 	O 	0.69810 0.39630 0.90490 -0.59000
O 	O 	0.57060 0.37710 0.86150 -0.56900
O 	O 	0.64050 0.12780 0.24180 -0.52100
O 	O 	0.54800 0.95700 0.29750 -0.53800
O 	O 	0.67530 0.90550 0.32890 -0.57700
O 	O 	0.64490 0.10020 0.04970 -0.55900
O 	O 	0.56360 0.06940 0.91220 -0.57200
O 	O 	0.69490 0.08530 0.88560 -0.59200
V 	V 	0.36084 0.73073 0.63449 1.69400
V 	V 	0.50042 0.21660 0.85135 1.69000
V 	V 	0.25444 0.25327 0.83742 1.68500
P 	P 	0.38432 0.42576 0.73766 0.38300
P 	P 	0.37607 0.56368 0.43163 0.44700
P 	P 	0.37759 0.02983 0.76083 0.41000
P 	P 	0.36384 0.95803 0.45072 0.46800
O 	O 	0.40090 0.58850 0.72610 -0.51800
O 	O 	0.32810 0.40220 0.81220 -0.59000
O 	O 	0.45170 0.34420 0.75700 -0.54000
O 	O 	0.39360 0.60080 0.53220 -0.59200
O 	O 	0.30190 0.60370 0.40490 -0.58300
O 	O 	0.42940 0.62290 0.36150 -0.56500
O 	O 	0.35950 0.87220 0.74180 -0.53000
O 	O 	0.45200 0.04300 0.79750 -0.54400
O 	O 	0.32470 0.09450 0.82890 -0.58400
O 	O 	0.35510 0.89980 0.54970 -0.59900
O 	O 	0.43640 0.93060 0.41220 -0.56600
O 	O 	0.30510 0.91470 0.38560 -0.58900
