data_crystal

_cell_length_a 7.72010
_cell_length_b 23.25070
_cell_length_c 23.25070
_cell_angle_alpha 61.20840
_cell_angle_beta  83.64550
_cell_angle_gamma 96.35450

_symmetry_space_group_name_	'P 1'
_symmetry_space_group_name_H-M	'P 1'

loop_
_symmetry_equiv_pos_as_xyz
  x,y,z

loop_
_atom_site_label
_atom_site_type_symbol
_atom_site_fract_x
_atom_site_fract_y
_atom_site_fract_z
_atom_site_charge
Cd	Cd	0.74563 0.52422 0.43716 1.24000
Cd	Cd	0.18297 0.47828 0.40088 1.21200
Cd	Cd	0.18279 0.43716 0.03862 1.23900
Cd	Cd	0.58385 0.40088 0.12084 1.21200
Cd	Cd	0.22141 0.03862 0.52422 1.23900
Cd	Cd	0.70469 0.12084 0.47828 1.21200
Cd	Cd	0.25437 0.47578 0.56284 1.24000
Cd	Cd	0.81703 0.52172 0.59912 1.21200
Cd	Cd	0.81721 0.56284 0.96138 1.24000
Cd	Cd	0.41615 0.59912 0.87916 1.21300
Cd	Cd	0.77859 0.96138 0.47578 1.24000
Cd	Cd	0.29531 0.87916 0.52172 1.21300
H 	H 	0.53670 0.70420 0.29830 0.07300
H 	H 	0.39770 0.79210 0.24190 0.26900
H 	H 	0.96970 0.70040 0.39020 0.12000
H 	H 	0.11500 0.83010 0.37590 0.16600
H 	H 	0.52590 0.83220 0.35940 0.03900
H 	H 	0.71410 0.81970 0.28420 0.23700
H 	H 	0.83500 0.29830 0.99750 0.07200
H 	H 	0.63960 0.24190 0.96600 0.26900
H 	H 	0.35990 0.39020 0.90940 0.12400
H 	H 	0.49090 0.37590 0.79400 0.16200
H 	H 	0.88530 0.35940 0.80840 0.04000
H 	H 	0.99830 0.28420 0.89610 0.23600
H 	H 	0.83250 0.99750 0.70420 0.07200
H 	H 	0.60560 0.96600 0.79210 0.26900
H 	H 	0.26930 0.90940 0.70040 0.12400
H 	H 	0.28490 0.79400 0.83010 0.16300
H 	H 	0.69370 0.80840 0.83220 0.03800
H 	H 	0.89440 0.89610 0.81970 0.23800
H 	H 	0.46330 0.29580 0.70170 0.07300
H 	H 	0.60230 0.20790 0.75810 0.26900
H 	H 	0.03030 0.29960 0.60980 0.12000
H 	H 	0.88500 0.16990 0.62410 0.16600
H 	H 	0.47410 0.16780 0.64060 0.03900
H 	H 	0.28590 0.18030 0.71580 0.23700
H 	H 	0.16500 0.70170 0.00250 0.07200
H 	H 	0.36040 0.75810 0.03400 0.26900
H 	H 	0.64010 0.60980 0.09060 0.12400
H 	H 	0.50910 0.62410 0.20600 0.16200
H 	H 	0.11470 0.64060 0.19160 0.04000
H 	H 	0.00170 0.71580 0.10390 0.23600
H 	H 	0.16750 0.00250 0.29580 0.07200
H 	H 	0.39440 0.03400 0.20790 0.26900
H 	H 	0.73070 0.09060 0.29960 0.12400
H 	H 	0.71510 0.20600 0.16990 0.16300
H 	H 	0.30630 0.19160 0.16780 0.03800
H 	H 	0.10560 0.10390 0.18030 0.23800
C 	C 	0.34443 0.65091 0.37992 -0.14600
C 	C 	0.42430 0.70402 0.31762 0.15000
C 	C 	0.34071 0.75669 0.28356 -0.23800
C 	C 	0.17218 0.64996 0.40762 0.03500
C 	C 	0.08568 0.70220 0.37256 -0.19700
C 	C 	0.17080 0.75745 0.31105 0.32600
C 	C 	0.44481 0.59548 0.41335 0.37700
C 	C 	0.08180 0.59659 0.47659 0.29000
C 	C 	0.07361 0.81502 0.27349 -0.46800
C 	C 	0.20592 0.88297 0.23161 0.96000
C 	C 	0.98610 0.80032 0.22432 0.95700
C 	C 	0.93602 0.82348 0.32152 0.34200
C 	C 	0.99712 0.83185 0.37159 -0.21700
C 	C 	0.88608 0.84284 0.41570 0.05700
C 	C 	0.70721 0.84322 0.41179 -0.12600
C 	C 	0.64542 0.83324 0.36218 0.16900
C 	C 	0.75806 0.82471 0.31753 -0.23800
C 	C 	0.96758 0.85413 0.46629 0.30100
C 	C 	0.57206 0.85300 0.45682 0.34700
C 	C 	0.72435 0.37992 0.96917 -0.14700
C 	C 	0.74192 0.31762 0.97836 0.15100
C 	C 	0.62427 0.28356 0.95975 -0.24000
C 	C 	0.57980 0.40762 0.94242 0.03700
C 	C 	0.45824 0.37256 0.92524 -0.20400
C 	C 	0.48185 0.31105 0.93150 0.33000
C 	C 	0.85816 0.41335 0.99117 0.37300
C 	C 	0.55839 0.47659 0.92682 0.28800
C 	C 	0.34710 0.27349 0.91149 -0.47400
C 	C 	0.43753 0.23161 0.88542 0.96000
C 	C 	0.21042 0.22432 0.97536 0.96300
C 	C 	0.25754 0.32152 0.85500 0.34300
C 	C 	0.36871 0.37159 0.79656 -0.20900
C 	C 	0.30178 0.41570 0.74146 0.05400
C 	C 	0.11900 0.41179 0.74499 -0.12400
C 	C 	0.00760 0.36218 0.80458 0.16800
C 	C 	0.07559 0.31753 0.85776 -0.23700
C 	C 	0.43387 0.46629 0.67958 0.30600
C 	C 	0.02888 0.45682 0.69018 0.34700
C 	C 	0.69352 0.96917 0.65091 -0.14800
C 	C 	0.72028 0.97836 0.70402 0.15200
C 	C 	0.58402 0.95975 0.75669 -0.24100
C 	C 	0.52222 0.94242 0.64996 0.03800
C 	C 	0.38348 0.92524 0.70220 -0.20500
C 	C 	0.41335 0.93150 0.75745 0.33000
C 	C 	0.84933 0.99117 0.59548 0.37600
C 	C 	0.48521 0.92682 0.59659 0.28800
C 	C 	0.25859 0.91149 0.81502 -0.47400
C 	C 	0.32295 0.88542 0.88297 0.96100
C 	C 	0.18578 0.97536 0.80032 0.96200
C 	C 	0.11254 0.85500 0.82348 0.34600
C 	C 	0.16527 0.79656 0.83185 -0.21100
C 	C 	0.04324 0.74146 0.84284 0.05700
C 	C 	0.86399 0.74499 0.84322 -0.12800
C 	C 	0.81218 0.80458 0.83324 0.17100
C 	C 	0.93335 0.85776 0.82471 -0.24100
C 	C 	0.11345 0.67958 0.85413 0.30500
C 	C 	0.71906 0.69018 0.85300 0.34700
C 	C 	0.65557 0.34909 0.62008 -0.14600
C 	C 	0.57570 0.29598 0.68238 0.15000
C 	C 	0.65929 0.24331 0.71644 -0.23800
C 	C 	0.82782 0.35004 0.59238 0.03500
C 	C 	0.91432 0.29780 0.62744 -0.19700
C 	C 	0.82920 0.24255 0.68895 0.32600
C 	C 	0.55519 0.40452 0.58665 0.37700
C 	C 	0.91820 0.40341 0.52341 0.29000
C 	C 	0.92639 0.18498 0.72651 -0.46800
C 	C 	0.79408 0.11703 0.76839 0.96000
C 	C 	0.01390 0.19968 0.77568 0.95700
C 	C 	0.06398 0.17652 0.67848 0.34200
C 	C 	0.00288 0.16815 0.62841 -0.21700
C 	C 	0.11392 0.15716 0.58430 0.05700
C 	C 	0.29279 0.15678 0.58821 -0.12600
C 	C 	0.35458 0.16676 0.63782 0.16900
C 	C 	0.24194 0.17529 0.68247 -0.23800
C 	C 	0.03242 0.14587 0.53371 0.30100
C 	C 	0.42794 0.14700 0.54318 0.34700
C 	C 	0.27565 0.62008 0.03083 -0.14700
C 	C 	0.25808 0.68238 0.02164 0.15100
C 	C 	0.37573 0.71644 0.04025 -0.24000
C 	C 	0.42020 0.59238 0.05758 0.03700
C 	C 	0.54176 0.62744 0.07476 -0.20400
C 	C 	0.51815 0.68895 0.06850 0.33000
C 	C 	0.14184 0.58665 0.00883 0.37300
C 	C 	0.44161 0.52341 0.07318 0.28800
C 	C 	0.65290 0.72651 0.08851 -0.47400
C 	C 	0.56247 0.76839 0.11458 0.96000
C 	C 	0.78958 0.77568 0.02464 0.96300
C 	C 	0.74246 0.67848 0.14500 0.34300
C 	C 	0.63129 0.62841 0.20344 -0.20900
C 	C 	0.69822 0.58430 0.25854 0.05400
C 	C 	0.88100 0.58821 0.25501 -0.12400
C 	C 	0.99240 0.63782 0.19542 0.16800
C 	C 	0.92441 0.68247 0.14224 -0.23700
C 	C 	0.56613 0.53371 0.32042 0.30600
C 	C 	0.97112 0.54318 0.30982 0.34700
C 	C 	0.30648 0.03083 0.34909 -0.14800
C 	C 	0.27972 0.02164 0.29598 0.15200
C 	C 	0.41598 0.04025 0.24331 -0.24100
C 	C 	0.47778 0.05758 0.35004 0.03800
C 	C 	0.61652 0.07476 0.29780 -0.20500
C 	C 	0.58665 0.06850 0.24255 0.33000
C 	C 	0.15067 0.00883 0.40452 0.37600
C 	C 	0.51479 0.07318 0.40341 0.28800
C 	C 	0.74141 0.08851 0.18498 -0.47400
C 	C 	0.67705 0.11458 0.11703 0.96100
C 	C 	0.81422 0.02464 0.19968 0.96200
C 	C 	0.88746 0.14500 0.17652 0.34600
C 	C 	0.83473 0.20344 0.16815 -0.21100
C 	C 	0.95676 0.25854 0.15716 0.05700
C 	C 	0.13601 0.25501 0.15678 -0.12800
C 	C 	0.18782 0.19542 0.16676 0.17100
C 	C 	0.06665 0.14224 0.17529 -0.24100
C 	C 	0.88655 0.32042 0.14587 0.30500
C 	C 	0.28094 0.30982 0.14700 0.34700
O 	O 	0.60883 0.61050 0.40221 -0.41100
O 	O 	0.35875 0.53507 0.44912 -0.54100
O 	O 	0.16462 0.58065 0.52359 -0.42700
O 	O 	0.91994 0.57044 0.48572 -0.52600
O 	O 	0.87199 0.86344 0.50737 -0.41900
O 	O 	0.13009 0.85282 0.46405 -0.40000
O 	O 	0.46410 0.80391 0.50181 -0.36600
O 	O 	0.56289 0.91251 0.44394 -0.47800
O 	O 	0.01104 0.40221 0.98729 -0.40800
O 	O 	0.80787 0.44912 0.01581 -0.53900
O 	O 	0.68821 0.52359 0.89576 -0.42700
O 	O 	0.40566 0.48572 0.94384 -0.52500
O 	O 	0.37936 0.50737 0.62919 -0.42000
O 	O 	0.59414 0.46405 0.68313 -0.40400
O 	O 	0.96591 0.50181 0.69428 -0.36700
O 	O 	0.00683 0.44394 0.64355 -0.47800
O 	O 	0.99833 0.98729 0.61050 -0.41100
O 	O 	0.82368 0.01581 0.53507 -0.54000
O 	O 	0.58397 0.89576 0.58065 -0.42700
O 	O 	0.34950 0.94384 0.57044 -0.52500
O 	O 	0.00855 0.62919 0.86344 -0.41900
O 	O 	0.27727 0.68313 0.85282 -0.40300
O 	O 	0.66019 0.69428 0.80391 -0.36600
O 	O 	0.65038 0.64355 0.91251 -0.47800
O 	O 	0.39117 0.38950 0.59779 -0.41100
O 	O 	0.64125 0.46493 0.55088 -0.54100
O 	O 	0.83538 0.41935 0.47641 -0.42700
O 	O 	0.08006 0.42956 0.51428 -0.52600
O 	O 	0.12801 0.13656 0.49263 -0.41900
O 	O 	0.86991 0.14718 0.53595 -0.40000
O 	O 	0.53590 0.19609 0.49819 -0.36600
O 	O 	0.43711 0.08749 0.55606 -0.47800
O 	O 	0.98896 0.59779 0.01271 -0.40800
O 	O 	0.19213 0.55088 0.98419 -0.53900
O 	O 	0.31179 0.47641 0.10424 -0.42700
O 	O 	0.59434 0.51428 0.05616 -0.52500
O 	O 	0.62064 0.49263 0.37081 -0.42000
O 	O 	0.40586 0.53595 0.31687 -0.40400
O 	O 	0.03409 0.49819 0.30572 -0.36700
O 	O 	0.99317 0.55606 0.35645 -0.47800
O 	O 	0.00167 0.01271 0.38950 -0.41100
O 	O 	0.17632 0.98419 0.46493 -0.54000
O 	O 	0.41603 0.10424 0.41935 -0.42700
O 	O 	0.65050 0.05616 0.42956 -0.52500
O 	O 	0.99145 0.37081 0.13656 -0.41900
O 	O 	0.72273 0.31687 0.14718 -0.40300
O 	O 	0.33981 0.30572 0.19609 -0.36600
O 	O 	0.34962 0.35645 0.08749 -0.47800
F 	F 	0.12281 0.93449 0.21236 -0.38900
F 	F 	0.30162 0.89035 0.17659 -0.36000
F 	F 	0.32087 0.89003 0.26822 -0.47600
F 	F 	0.91136 0.85030 0.18382 -0.35700
F 	F 	0.10066 0.78871 0.18553 -0.39600
F 	F 	0.85877 0.74522 0.25781 -0.49000
F 	F 	0.33517 0.21236 0.85315 -0.39000
F 	F 	0.47821 0.17659 0.93306 -0.36000
F 	F 	0.58909 0.26822 0.84175 -0.47600
F 	F 	0.09518 0.18382 0.96588 -0.35700
F 	F 	0.28619 0.18553 0.02576 -0.39900
F 	F 	0.11658 0.25781 0.99697 -0.49000
F 	F 	0.18832 0.85315 0.93449 -0.38900
F 	F 	0.41127 0.93306 0.89035 -0.36100
F 	F 	0.43084 0.84175 0.89003 -0.47600
F 	F 	0.06106 0.96588 0.85030 -0.35800
F 	F 	0.31195 0.02576 0.78871 -0.39800
F 	F 	0.11355 0.99697 0.74522 -0.49100
F 	F 	0.87719 0.06551 0.78764 -0.38900
F 	F 	0.69838 0.10965 0.82341 -0.36000
F 	F 	0.67913 0.10997 0.73178 -0.47600
F 	F 	0.08864 0.14970 0.81618 -0.35700
F 	F 	0.89934 0.21129 0.81447 -0.39600
F 	F 	0.14123 0.25478 0.74219 -0.49000
F 	F 	0.66483 0.78764 0.14685 -0.39000
F 	F 	0.52179 0.82341 0.06694 -0.36000
F 	F 	0.41091 0.73178 0.15825 -0.47600
F 	F 	0.90482 0.81618 0.03412 -0.35700
F 	F 	0.71381 0.81447 0.97424 -0.39900
F 	F 	0.88342 0.74219 0.00303 -0.49000
F 	F 	0.81168 0.14685 0.06551 -0.38900
F 	F 	0.58873 0.06694 0.10965 -0.36100
F 	F 	0.56916 0.15825 0.10997 -0.47600
F 	F 	0.93894 0.03412 0.14970 -0.35800
F 	F 	0.68805 0.97424 0.21129 -0.39800
F 	F 	0.88645 0.00303 0.25478 -0.49100
