data_crystal

_cell_length_a 17.24890
_cell_length_b 11.75390
_cell_length_c 17.75270
_cell_angle_alpha 90.00000
_cell_angle_beta  105.38400
_cell_angle_gamma 90.00000

_symmetry_space_group_name_	'P 1'
_symmetry_space_group_name_H-M	'P 1'

loop_
_symmetry_equiv_pos_as_xyz
  x,y,z

loop_
_atom_site_label
_atom_site_type_symbol
_atom_site_fract_x
_atom_site_fract_y
_atom_site_fract_z
_atom_site_charge
Nd	Nd	0.51247 0.10289 0.91461 2.34900
Nd	Nd	0.48682 0.06222 0.61185 2.34000
S 	S 	0.74597 0.21879 0.45841 0.07900
S 	S 	0.74846 0.71378 0.59136 0.04300
S 	S 	0.23405 0.21790 0.62871 0.06800
O 	O 	0.42970 0.15550 0.79400 -0.62300
O 	O 	0.57430 0.93340 0.57980 -0.61900
O 	O 	0.92000 0.44440 0.51130 -0.65700
O 	O 	0.89720 0.59560 0.78150 -0.59500
O 	O 	0.89490 0.56880 0.65630 -0.62000
O 	O 	0.06840 0.44360 0.63510 -0.57700
O 	O 	0.90620 0.28390 0.44500 -0.52500
O 	O 	0.56390 0.17380 0.54610 -0.58100
O 	O 	0.61610 0.84360 0.48660 -0.55100
O 	O 	0.08580 0.33060 0.53880 -0.60100
O 	O 	0.59870 0.08990 0.44590 -0.57100
O 	O 	0.38130 0.07730 0.67580 -0.57400
C 	C 	0.68020 0.80100 0.61770 -0.15600
C 	C 	0.79500 0.68460 0.68700 -0.18000
C 	C 	0.61900 0.86260 0.55680 0.49500
C 	C 	0.10530 0.36750 0.60790 0.50800
C 	C 	0.80380 0.33090 0.50500 -0.14000
C 	C 	0.86810 0.61150 0.71110 0.51000
C 	C 	0.37690 0.14290 0.73030 0.50500
C 	C 	0.67690 0.24080 0.51070 -0.16600
C 	C 	0.88120 0.35450 0.48620 0.44200
C 	C 	0.60720 0.16210 0.49990 0.51700
C 	C 	0.17830 0.31820 0.66190 -0.16200
C 	C 	0.77020 0.38310 0.55690 -0.01400
H 	H 	0.79260 0.44580 0.58670 0.03400
C 	C 	0.30340 0.21360 0.71920 -0.16700
C 	C 	0.28310 0.28550 0.77120 0.00600
H 	H 	0.31350 0.29390 0.82260 0.03200
C 	C 	0.69750 0.33140 0.56030 0.01700
H 	H 	0.66680 0.35630 0.59290 0.01700
C 	C 	0.21110 0.34630 0.73870 0.00200
H 	H 	0.18880 0.39870 0.76620 0.03500
C 	C 	0.75910 0.73910 0.73670 0.00600
H 	H 	0.77610 0.73250 0.79080 0.02500
C 	C 	0.69310 0.80650 0.69700 0.00500
H 	H 	0.66200 0.84960 0.72190 0.01500
Nd	Nd	0.98753 0.60289 0.58539 2.38700
Nd	Nd	0.01318 0.56222 0.88815 2.33200
S 	S 	0.75403 0.71879 0.04159 0.05400
S 	S 	0.75154 0.21378 0.90864 0.04000
S 	S 	0.26595 0.71790 0.87129 0.07000
O 	O 	0.07030 0.65550 0.70600 -0.62600
O 	O 	0.92570 0.43340 0.92020 -0.61600
O 	O 	0.58000 0.94440 0.98870 -0.63600
O 	O 	0.60280 0.09560 0.71850 -0.59900
O 	O 	0.60510 0.06880 0.84370 -0.62000
O 	O 	0.43160 0.94360 0.86490 -0.56800
O 	O 	0.59380 0.78390 0.05500 -0.51600
O 	O 	0.93610 0.67380 0.95390 -0.56500
O 	O 	0.88390 0.34360 0.01340 -0.55200
O 	O 	0.41420 0.83060 0.96120 -0.59300
O 	O 	0.90130 0.58990 0.05410 -0.56600
O 	O 	0.11870 0.57730 0.82420 -0.57300
C 	C 	0.81980 0.30100 0.88230 -0.15600
C 	C 	0.70500 0.18460 0.81300 -0.18000
C 	C 	0.88100 0.36260 0.94320 0.49700
C 	C 	0.39470 0.86750 0.89210 0.50400
C 	C 	0.69620 0.83090 0.99500 -0.11400
C 	C 	0.63190 0.11150 0.78890 0.50900
C 	C 	0.12310 0.64290 0.76970 0.50800
C 	C 	0.82310 0.74080 0.98930 -0.14200
C 	C 	0.61880 0.85450 0.01380 0.41100
C 	C 	0.89280 0.66210 0.00010 0.48900
C 	C 	0.32170 0.81820 0.83810 -0.15900
C 	C 	0.72980 0.88310 0.94310 -0.02200
H 	H 	0.70740 0.94580 0.91330 0.04000
C 	C 	0.19660 0.71360 0.78080 -0.16800
C 	C 	0.21690 0.78550 0.72880 0.00800
H 	H 	0.18650 0.79390 0.67740 0.03100
C 	C 	0.80250 0.83140 0.93970 0.01200
H 	H 	0.83320 0.85630 0.90710 0.02100
C 	C 	0.28890 0.84630 0.76130 0.00100
H 	H 	0.31120 0.89870 0.73380 0.03700
C 	C 	0.74090 0.23910 0.76330 0.00600
H 	H 	0.72390 0.23250 0.70920 0.02500
C 	C 	0.80690 0.30650 0.80300 0.00500
H 	H 	0.83800 0.34960 0.77810 0.01500
Nd	Nd	0.48753 0.89711 0.08539 2.34800
Nd	Nd	0.51318 0.93778 0.38815 2.33900
S 	S 	0.25403 0.78121 0.54159 0.07800
S 	S 	0.25154 0.28622 0.40864 0.04200
S 	S 	0.76595 0.78210 0.37129 0.06800
O 	O 	0.57030 0.84450 0.20600 -0.62300
O 	O 	0.42570 0.06660 0.42020 -0.61900
O 	O 	0.08000 0.55560 0.48870 -0.65700
O 	O 	0.10280 0.40440 0.21850 -0.59500
O 	O 	0.10510 0.43120 0.34370 -0.62000
O 	O 	0.93160 0.55640 0.36490 -0.57700
O 	O 	0.09380 0.71610 0.55500 -0.52500
O 	O 	0.43610 0.82620 0.45390 -0.58100
O 	O 	0.38390 0.15640 0.51340 -0.55100
O 	O 	0.91420 0.66940 0.46120 -0.60100
O 	O 	0.40130 0.91010 0.55410 -0.57100
O 	O 	0.61870 0.92270 0.32420 -0.57400
C 	C 	0.31980 0.19900 0.38230 -0.15600
C 	C 	0.20500 0.31540 0.31300 -0.18000
C 	C 	0.38100 0.13740 0.44320 0.49500
C 	C 	0.89470 0.63250 0.39210 0.50800
C 	C 	0.19620 0.66910 0.49500 -0.14000
C 	C 	0.13190 0.38850 0.28890 0.51000
C 	C 	0.62310 0.85710 0.26970 0.50500
C 	C 	0.32310 0.75920 0.48930 -0.16600
C 	C 	0.11880 0.64550 0.51380 0.44200
C 	C 	0.39280 0.83790 0.50010 0.51700
C 	C 	0.82170 0.68180 0.33810 -0.16200
C 	C 	0.22980 0.61690 0.44310 -0.01400
H 	H 	0.20740 0.55420 0.41330 0.03400
C 	C 	0.69660 0.78640 0.28080 -0.16700
C 	C 	0.71690 0.71450 0.22880 0.00600
H 	H 	0.68650 0.70610 0.17740 0.03200
C 	C 	0.30250 0.66860 0.43970 0.01700
H 	H 	0.33320 0.64370 0.40710 0.01700
C 	C 	0.78890 0.65370 0.26130 0.00200
H 	H 	0.81120 0.60130 0.23380 0.03500
C 	C 	0.24090 0.26090 0.26330 0.00600
H 	H 	0.22390 0.26750 0.20920 0.02500
C 	C 	0.30690 0.19350 0.30300 0.00500
H 	H 	0.33800 0.15040 0.27810 0.01500
Nd	Nd	0.01247 0.39711 0.41461 2.38700
Nd	Nd	0.98682 0.43778 0.11185 2.33200
S 	S 	0.24597 0.28121 0.95841 0.05400
S 	S 	0.24846 0.78622 0.09136 0.04000
S 	S 	0.73405 0.28210 0.12871 0.07000
O 	O 	0.92970 0.34450 0.29400 -0.62600
O 	O 	0.07430 0.56660 0.07980 -0.61600
O 	O 	0.42000 0.05560 0.01130 -0.63600
O 	O 	0.39720 0.90440 0.28150 -0.59900
O 	O 	0.39490 0.93120 0.15630 -0.62000
O 	O 	0.56840 0.05640 0.13510 -0.56800
O 	O 	0.40620 0.21610 0.94500 -0.51600
O 	O 	0.06390 0.32620 0.04610 -0.56500
O 	O 	0.11610 0.65640 0.98660 -0.55200
O 	O 	0.58580 0.16940 0.03880 -0.59300
O 	O 	0.09870 0.41010 0.94590 -0.56600
O 	O 	0.88130 0.42270 0.17580 -0.57300
C 	C 	0.18020 0.69900 0.11770 -0.15600
C 	C 	0.29500 0.81540 0.18700 -0.18000
C 	C 	0.11900 0.63740 0.05680 0.49700
C 	C 	0.60530 0.13250 0.10790 0.50400
C 	C 	0.30380 0.16910 0.00500 -0.11400
C 	C 	0.36810 0.88850 0.21110 0.50900
C 	C 	0.87690 0.35710 0.23030 0.50800
C 	C 	0.17690 0.25920 0.01070 -0.14200
C 	C 	0.38120 0.14550 0.98620 0.41100
C 	C 	0.10720 0.33790 0.99990 0.48900
C 	C 	0.67830 0.18180 0.16190 -0.15900
C 	C 	0.27020 0.11690 0.05690 -0.02200
H 	H 	0.29260 0.05420 0.08670 0.04000
C 	C 	0.80340 0.28640 0.21920 -0.16800
C 	C 	0.78310 0.21450 0.27120 0.00800
H 	H 	0.81350 0.20610 0.32260 0.03100
C 	C 	0.19750 0.16860 0.06030 0.01200
H 	H 	0.16680 0.14370 0.09290 0.02100
C 	C 	0.71110 0.15370 0.23870 0.00100
H 	H 	0.68880 0.10130 0.26620 0.03700
C 	C 	0.25910 0.76090 0.23670 0.00600
H 	H 	0.27610 0.76750 0.29080 0.02500
C 	C 	0.19310 0.69350 0.19700 0.00500
H 	H 	0.16200 0.65040 0.22190 0.01500
