data_crystal

_cell_length_a 23.40400
_cell_length_b 11.09710
_cell_length_c 20.76600
_cell_angle_alpha 90.00000
_cell_angle_beta  120.47600
_cell_angle_gamma 90.00000

_symmetry_space_group_name_	'P 1'
_symmetry_space_group_name_H-M	'P 1'

loop_
_symmetry_equiv_pos_as_xyz
  x,y,z

loop_
_atom_site_label
_atom_site_type_symbol
_atom_site_fract_x
_atom_site_fract_y
_atom_site_fract_z
_atom_site_charge
O 	O 	0.50613 0.34240 0.33160 -0.31200
N 	N 	0.47268 0.88350 0.30229 -0.20600
N 	N 	0.55943 0.16760 0.37505 -0.28100
H 	H 	0.59760 0.13600 0.40440 0.16700
C 	C 	0.50573 0.08940 0.33938 0.14600
C 	C 	0.51898 0.96730 0.33707 -0.06700
H 	H 	0.56310 0.94300 0.36150 0.05000
C 	C 	0.40875 0.91890 0.26822 -0.00700
H 	H 	0.37560 0.86140 0.24400 -0.00100
C 	C 	0.39091 0.03600 0.26802 -0.01600
H 	H 	0.34630 0.05690 0.24400 0.02200
C 	C 	0.43911 0.12420 0.30357 -0.12900
H 	H 	0.42740 0.20430 0.30350 0.09100
C 	C 	0.62110 0.35670 0.40040 -0.41800
H 	H 	0.61700 0.42470 0.42720 0.15000
H 	H 	0.62350 0.38980 0.35860 0.15000
C 	C 	0.68730 0.29910 0.45180 0.14700
C 	C 	0.72240 0.24450 0.42480 -0.10000
H 	H 	0.70430 0.23890 0.37340 0.06000
C 	C 	0.71570 0.30300 0.52860 -0.09300
H 	H 	0.69260 0.33840 0.54910 0.05300
C 	C 	0.55700 0.28780 0.36780 0.34700
N 	N 	0.60377 0.69280 0.35706 -0.22400
N 	N 	0.76173 0.56250 0.40165 -0.25500
H 	H 	0.75350 0.56980 0.35650 0.12000
C 	C 	0.71314 0.60770 0.41575 0.11900
C 	C 	0.65544 0.64820 0.35372 -0.06300
H 	H 	0.65240 0.64430 0.30730 0.01000
C 	C 	0.60948 0.70030 0.42450 0.00200
H 	H 	0.57450 0.73250 0.42810 -0.00100
C 	C 	0.66534 0.66210 0.48871 -0.02300
H 	H 	0.66750 0.66810 0.53460 0.03100
C 	C 	0.71838 0.61450 0.48482 -0.12300
H 	H 	0.75640 0.58790 0.52760 0.09400
O 	O 	0.83991 0.49880 0.51704 -0.27100
C 	C 	0.85746 0.45910 0.41420 -0.31000
H 	H 	0.84920 0.37320 0.40650 0.11700
H 	H 	0.84030 0.49640 0.36560 0.11300
C 	C 	0.93122 0.48000 0.45949 0.02100
C 	C 	0.97471 0.38410 0.48197 0.08100
H 	H 	0.95840 0.30590 0.46980 0.00300
C 	C 	0.04292 0.40350 0.52268 -0.27000
H 	H 	0.07160 0.33800 0.53820 0.11500
C 	C 	0.82030 0.50850 0.45037 0.28800
O 	O 	0.00613 0.84240 0.33160 -0.33000
N 	N 	0.97268 0.38350 0.30229 -0.18100
N 	N 	0.05943 0.66760 0.37505 -0.27500
H 	H 	0.09760 0.63600 0.40440 0.16700
C 	C 	0.00573 0.58940 0.33938 0.10000
C 	C 	0.01898 0.46730 0.33707 -0.09600
H 	H 	0.06310 0.44300 0.36150 0.05800
C 	C 	0.90875 0.41890 0.26822 0.01500
H 	H 	0.87560 0.36140 0.24400 -0.00300
C 	C 	0.89091 0.53600 0.26802 -0.04600
H 	H 	0.84630 0.55690 0.24400 0.03500
C 	C 	0.93911 0.62420 0.30357 -0.06100
H 	H 	0.92740 0.70430 0.30350 0.07900
C 	C 	0.12110 0.85670 0.40040 -0.41500
H 	H 	0.11700 0.92470 0.42720 0.14600
H 	H 	0.12350 0.88980 0.35860 0.14500
C 	C 	0.18730 0.79910 0.45180 0.14500
C 	C 	0.22240 0.74450 0.42480 -0.10000
H 	H 	0.20430 0.73890 0.37340 0.05900
C 	C 	0.21570 0.80300 0.52860 -0.09200
H 	H 	0.19260 0.83840 0.54910 0.05100
C 	C 	0.05700 0.78780 0.36780 0.34100
N 	N 	0.10377 0.19280 0.35706 -0.22800
N 	N 	0.26173 0.06250 0.40165 -0.25900
H 	H 	0.25350 0.06980 0.35650 0.11900
C 	C 	0.21314 0.10770 0.41575 0.11800
C 	C 	0.15544 0.14820 0.35372 -0.06400
H 	H 	0.15240 0.14430 0.30730 0.00700
C 	C 	0.10948 0.20030 0.42450 0.00100
H 	H 	0.07450 0.23250 0.42810 -0.00900
C 	C 	0.16534 0.16210 0.48871 -0.02400
H 	H 	0.16750 0.16810 0.53460 0.02800
C 	C 	0.21838 0.11450 0.48482 -0.12300
H 	H 	0.25640 0.08790 0.52760 0.09300
O 	O 	0.33991 0.99880 0.51704 -0.27800
C 	C 	0.35746 0.95910 0.41420 -0.38500
H 	H 	0.34920 0.87320 0.40650 0.13700
H 	H 	0.34030 0.99640 0.36560 0.13300
C 	C 	0.43122 0.98000 0.45949 0.14200
C 	C 	0.47471 0.88410 0.48197 -0.09700
H 	H 	0.45840 0.80590 0.46980 0.05500
C 	C 	0.54292 0.90350 0.52268 -0.09300
H 	H 	0.57160 0.83800 0.53820 0.06100
C 	C 	0.32030 0.00850 0.45037 0.30700
O 	O 	0.49387 0.34240 0.16840 -0.31200
N 	N 	0.52732 0.88350 0.19771 -0.20500
N 	N 	0.44057 0.16760 0.12495 -0.28100
H 	H 	0.40240 0.13600 0.09560 0.16900
C 	C 	0.49427 0.08940 0.16062 0.14700
C 	C 	0.48102 0.96730 0.16293 -0.06600
H 	H 	0.43690 0.94300 0.13850 0.05100
C 	C 	0.59125 0.91890 0.23178 -0.00600
H 	H 	0.62440 0.86140 0.25600 0.00100
C 	C 	0.60909 0.03600 0.23198 -0.01600
H 	H 	0.65370 0.05690 0.25600 0.02400
C 	C 	0.56089 0.12420 0.19643 -0.12900
H 	H 	0.57260 0.20430 0.19650 0.09100
C 	C 	0.37890 0.35670 0.09960 -0.43400
H 	H 	0.38300 0.42470 0.07280 0.15500
H 	H 	0.37650 0.38980 0.14140 0.15400
C 	C 	0.31270 0.29910 0.04820 0.17300
C 	C 	0.27760 0.24450 0.07520 -0.12800
H 	H 	0.29570 0.23890 0.12660 0.06800
C 	C 	0.28430 0.30300 0.97140 -0.12300
H 	H 	0.30740 0.33840 0.95090 0.06200
C 	C 	0.44300 0.28780 0.13220 0.35200
N 	N 	0.39623 0.69280 0.14294 -0.22300
N 	N 	0.23827 0.56250 0.09835 -0.26400
H 	H 	0.24650 0.56980 0.14350 0.12000
C 	C 	0.28686 0.60770 0.08425 0.12000
C 	C 	0.34456 0.64820 0.14628 -0.06400
H 	H 	0.34760 0.64430 0.19270 0.01000
C 	C 	0.39052 0.70030 0.07550 -0.00200
H 	H 	0.42550 0.73250 0.07190 0.00100
C 	C 	0.33466 0.66210 0.01129 -0.01500
H 	H 	0.33250 0.66810 0.96540 0.02500
C 	C 	0.28162 0.61450 0.01518 -0.12100
H 	H 	0.24360 0.58790 0.97240 0.09000
O 	O 	0.16009 0.49880 0.98296 -0.28900
C 	C 	0.14254 0.45910 0.08580 -0.45700
H 	H 	0.15080 0.37320 0.09350 0.15700
H 	H 	0.15970 0.49640 0.13440 0.15300
C 	C 	0.06878 0.48000 0.04051 0.25000
C 	C 	0.02529 0.38410 0.01803 -0.25300
H 	H 	0.04160 0.30590 0.03020 0.10000
C 	C 	0.95708 0.40350 0.97732 0.06200
H 	H 	0.92840 0.33800 0.96180 0.01300
C 	C 	0.17970 0.50850 0.04963 0.33100
O 	O 	0.99387 0.84240 0.16840 -0.29200
N 	N 	0.02732 0.38350 0.19771 -0.22500
N 	N 	0.94057 0.66760 0.12495 -0.28700
H 	H 	0.90240 0.63600 0.09560 0.17000
C 	C 	0.99427 0.58940 0.16062 0.19600
C 	C 	0.98102 0.46730 0.16293 -0.03700
H 	H 	0.93690 0.44300 0.13850 0.04500
C 	C 	0.09125 0.41890 0.23178 -0.02900
H 	H 	0.12440 0.36140 0.25600 0.00600
C 	C 	0.10909 0.53600 0.23198 0.01800
H 	H 	0.15370 0.55690 0.25600 0.01000
C 	C 	0.06089 0.62420 0.19643 -0.19900
H 	H 	0.07260 0.70430 0.19650 0.10400
C 	C 	0.87890 0.85670 0.09960 -0.44000
H 	H 	0.88300 0.92470 0.07280 0.16000
H 	H 	0.87650 0.88980 0.14140 0.15900
C 	C 	0.81270 0.79910 0.04820 0.17900
C 	C 	0.77760 0.74450 0.07520 -0.13200
H 	H 	0.79570 0.73890 0.12660 0.07100
C 	C 	0.78430 0.80300 0.97140 -0.12800
H 	H 	0.80740 0.83840 0.95090 0.06700
C 	C 	0.94300 0.78780 0.13220 0.35800
N 	N 	0.89623 0.19280 0.14294 -0.21600
N 	N 	0.73827 0.06250 0.09835 -0.26000
H 	H 	0.74650 0.06980 0.14350 0.12100
C 	C 	0.78686 0.10770 0.08425 0.12000
C 	C 	0.84456 0.14820 0.14628 -0.06400
H 	H 	0.84760 0.14430 0.19270 0.01400
C 	C 	0.89052 0.20030 0.07550 -0.00200
H 	H 	0.92550 0.23250 0.07190 0.01000
C 	C 	0.83466 0.16210 0.01129 -0.01300
H 	H 	0.83250 0.16810 0.96540 0.02700
C 	C 	0.78162 0.11450 0.01518 -0.12000
H 	H 	0.74360 0.08790 0.97240 0.09000
O 	O 	0.66009 0.99880 0.98296 -0.28200
C 	C 	0.64254 0.95910 0.08580 -0.38300
H 	H 	0.65080 0.87320 0.09350 0.13700
H 	H 	0.65970 0.99640 0.13440 0.13300
C 	C 	0.56878 0.98000 0.04051 0.13400
C 	C 	0.52529 0.88410 0.01803 -0.08200
H 	H 	0.54160 0.80590 0.03020 0.05100
C 	C 	0.45708 0.90350 0.97732 -0.10800
H 	H 	0.42840 0.83800 0.96180 0.06500
C 	C 	0.67970 0.00850 0.04963 0.31200
O 	O 	0.49387 0.65760 0.66840 -0.31100
N 	N 	0.52732 0.11650 0.69771 -0.20400
N 	N 	0.44057 0.83240 0.62495 -0.28100
H 	H 	0.40240 0.86400 0.59560 0.16800
C 	C 	0.49427 0.91060 0.66062 0.14800
C 	C 	0.48102 0.03270 0.66293 -0.06800
H 	H 	0.43690 0.05700 0.63850 0.05100
C 	C 	0.59125 0.08110 0.73178 -0.00800
H 	H 	0.62440 0.13860 0.75600 0.00200
C 	C 	0.60909 0.96400 0.73198 -0.01300
H 	H 	0.65370 0.94310 0.75600 0.02300
C 	C 	0.56089 0.87580 0.69643 -0.13000
H 	H 	0.57260 0.79570 0.69650 0.09200
C 	C 	0.37890 0.64330 0.59960 -0.42200
H 	H 	0.38300 0.57530 0.57280 0.15100
H 	H 	0.37650 0.61020 0.64140 0.15000
C 	C 	0.31270 0.70090 0.54820 0.15300
C 	C 	0.27760 0.75550 0.57520 -0.10900
H 	H 	0.29570 0.76110 0.62660 0.06200
C 	C 	0.28430 0.69700 0.47140 -0.10000
H 	H 	0.30740 0.66160 0.45090 0.05600
C 	C 	0.44300 0.71220 0.63220 0.34800
N 	N 	0.39623 0.30720 0.64294 -0.22400
N 	N 	0.23827 0.43750 0.59835 -0.26400
H 	H 	0.24650 0.43020 0.64350 0.12000
C 	C 	0.28686 0.39230 0.58425 0.12000
C 	C 	0.34456 0.35180 0.64628 -0.06400
H 	H 	0.34760 0.35570 0.69270 0.01000
C 	C 	0.39052 0.29970 0.57550 0.00100
H 	H 	0.42550 0.26750 0.57190 -0.00100
C 	C 	0.33466 0.33790 0.51129 -0.02200
H 	H 	0.33250 0.33190 0.46540 0.03000
C 	C 	0.28162 0.38550 0.51518 -0.12500
H 	H 	0.24360 0.41210 0.47240 0.09400
O 	O 	0.16009 0.50120 0.48296 -0.28600
C 	C 	0.14254 0.54090 0.58580 -0.46400
H 	H 	0.15080 0.62680 0.59350 0.15800
H 	H 	0.15970 0.50360 0.63440 0.15400
C 	C 	0.06878 0.52000 0.54051 0.26300
C 	C 	0.02529 0.61590 0.51803 -0.27400
H 	H 	0.04160 0.69410 0.53020 0.10600
C 	C 	0.95708 0.59650 0.47732 0.08300
H 	H 	0.92840 0.66200 0.46180 0.00700
C 	C 	0.17970 0.49150 0.54963 0.32900
O 	O 	0.99387 0.15760 0.66840 -0.29100
N 	N 	0.02732 0.61650 0.69771 -0.22500
N 	N 	0.94057 0.33240 0.62495 -0.28600
H 	H 	0.90240 0.36400 0.59560 0.17000
C 	C 	0.99427 0.41060 0.66062 0.19500
C 	C 	0.98102 0.53270 0.66293 -0.03700
H 	H 	0.93690 0.55700 0.63850 0.04500
C 	C 	0.09125 0.58110 0.73178 -0.02900
H 	H 	0.12440 0.63860 0.75600 0.00600
C 	C 	0.10909 0.46400 0.73198 0.01700
H 	H 	0.15370 0.44310 0.75600 0.01000
C 	C 	0.06089 0.37580 0.69643 -0.19800
H 	H 	0.07260 0.29570 0.69650 0.10400
C 	C 	0.87890 0.14330 0.59960 -0.42600
H 	H 	0.88300 0.07530 0.57280 0.15500
H 	H 	0.87650 0.11020 0.64140 0.15500
C 	C 	0.81270 0.20090 0.54820 0.15600
C 	C 	0.77760 0.25550 0.57520 -0.10900
H 	H 	0.79570 0.26110 0.62660 0.06300
C 	C 	0.78430 0.19700 0.47140 -0.10200
H 	H 	0.80740 0.16160 0.45090 0.05900
C 	C 	0.94300 0.21220 0.63220 0.35300
N 	N 	0.89623 0.80720 0.64294 -0.21700
N 	N 	0.73827 0.93750 0.59835 -0.26000
H 	H 	0.74650 0.93020 0.64350 0.12100
C 	C 	0.78686 0.89230 0.58425 0.12100
C 	C 	0.84456 0.85180 0.64628 -0.06400
H 	H 	0.84760 0.85570 0.69270 0.01400
C 	C 	0.89052 0.79970 0.57550 0.00200
H 	H 	0.92550 0.76750 0.57190 0.00800
C 	C 	0.83466 0.83790 0.51129 -0.02000
H 	H 	0.83250 0.83190 0.46540 0.03300
C 	C 	0.78162 0.88550 0.51518 -0.12500
H 	H 	0.74360 0.91210 0.47240 0.09500
O 	O 	0.66009 0.00120 0.48296 -0.27900
C 	C 	0.64254 0.04090 0.58580 -0.38700
H 	H 	0.65080 0.12680 0.59350 0.13800
H 	H 	0.65970 0.00360 0.63440 0.13400
C 	C 	0.56878 0.02000 0.54051 0.14100
C 	C 	0.52529 0.11590 0.51803 -0.09600
H 	H 	0.54160 0.19410 0.53020 0.05500
C 	C 	0.45708 0.09650 0.47732 -0.09400
H 	H 	0.42840 0.16200 0.46180 0.06100
C 	C 	0.67970 0.99150 0.54963 0.30900
O 	O 	0.50613 0.65760 0.83160 -0.31000
N 	N 	0.47268 0.11650 0.80229 -0.20500
N 	N 	0.55943 0.83240 0.87505 -0.27900
H 	H 	0.59760 0.86400 0.90440 0.16700
C 	C 	0.50573 0.91060 0.83938 0.14800
C 	C 	0.51898 0.03270 0.83707 -0.06800
H 	H 	0.56310 0.05700 0.86150 0.05100
C 	C 	0.40875 0.08110 0.76822 -0.00800
H 	H 	0.37560 0.13860 0.74400 0.00100
C 	C 	0.39091 0.96400 0.76802 -0.01300
H 	H 	0.34630 0.94310 0.74400 0.02100
C 	C 	0.43911 0.87580 0.80357 -0.13000
H 	H 	0.42740 0.79570 0.80350 0.09100
C 	C 	0.62110 0.64330 0.90040 -0.40400
H 	H 	0.61700 0.57530 0.92720 0.14500
H 	H 	0.62350 0.61020 0.85860 0.14600
C 	C 	0.68730 0.70090 0.95180 0.12400
C 	C 	0.72240 0.75550 0.92480 -0.07700
H 	H 	0.70430 0.76110 0.87340 0.05200
C 	C 	0.71570 0.69700 0.02860 -0.06700
H 	H 	0.69260 0.66160 0.04910 0.04600
C 	C 	0.55700 0.71220 0.86780 0.34200
N 	N 	0.60377 0.30720 0.85706 -0.22400
N 	N 	0.76173 0.43750 0.90165 -0.25500
H 	H 	0.75350 0.43020 0.85650 0.12000
C 	C 	0.71314 0.39230 0.91575 0.12000
C 	C 	0.65544 0.35180 0.85372 -0.06300
H 	H 	0.65240 0.35570 0.80730 0.01000
C 	C 	0.60948 0.29970 0.92450 0.00500
H 	H 	0.57450 0.26750 0.92810 -0.00300
C 	C 	0.66534 0.33790 0.98871 -0.03000
H 	H 	0.66750 0.33190 0.03460 0.03600
C 	C 	0.71838 0.38550 0.98482 -0.12900
H 	H 	0.75640 0.41210 0.02760 0.09800
O 	O 	0.83991 0.50120 0.01704 -0.26700
C 	C 	0.85746 0.54090 0.91420 -0.31600
H 	H 	0.84920 0.62680 0.90650 0.11800
H 	H 	0.84030 0.50360 0.86560 0.11400
C 	C 	0.93122 0.52000 0.95949 0.03300
C 	C 	0.97471 0.61590 0.98197 0.06000
H 	H 	0.95840 0.69410 0.96980 0.00900
C 	C 	0.04292 0.59650 0.02268 -0.24800
H 	H 	0.07160 0.66200 0.03820 0.10900
C 	C 	0.82030 0.49150 0.95037 0.28400
O 	O 	0.00613 0.15760 0.83160 -0.32900
N 	N 	0.97268 0.61650 0.80229 -0.18100
N 	N 	0.05943 0.33240 0.87505 -0.27400
H 	H 	0.09760 0.36400 0.90440 0.16600
C 	C 	0.00573 0.41060 0.83938 0.10000
C 	C 	0.01898 0.53270 0.83707 -0.09500
H 	H 	0.06310 0.55700 0.86150 0.05800
C 	C 	0.90875 0.58110 0.76822 0.01400
H 	H 	0.87560 0.63860 0.74400 -0.00300
C 	C 	0.89091 0.46400 0.76802 -0.04600
H 	H 	0.84630 0.44310 0.74400 0.03500
C 	C 	0.93911 0.37580 0.80357 -0.06200
H 	H 	0.92740 0.29570 0.80350 0.07900
C 	C 	0.12110 0.14330 0.90040 -0.40300
H 	H 	0.11700 0.07530 0.92720 0.14200
H 	H 	0.12350 0.11020 0.85860 0.14200
C 	C 	0.18730 0.20090 0.95180 0.12600
C 	C 	0.22240 0.25550 0.92480 -0.08100
H 	H 	0.20430 0.26110 0.87340 0.05200
C 	C 	0.21570 0.19700 0.02860 -0.07000
H 	H 	0.19260 0.16160 0.04910 0.04400
C 	C 	0.05700 0.21220 0.86780 0.33700
N 	N 	0.10377 0.80720 0.85706 -0.22800
N 	N 	0.26173 0.93750 0.90165 -0.25900
H 	H 	0.25350 0.93020 0.85650 0.11900
C 	C 	0.21314 0.89230 0.91575 0.11900
C 	C 	0.15544 0.85180 0.85372 -0.06400
H 	H 	0.15240 0.85570 0.80730 0.00700
C 	C 	0.10948 0.79970 0.92450 0.00400
H 	H 	0.07450 0.76750 0.92810 -0.01100
C 	C 	0.16534 0.83790 0.98871 -0.03100
H 	H 	0.16750 0.83190 0.03460 0.03300
C 	C 	0.21838 0.88550 0.98482 -0.12800
H 	H 	0.25640 0.91210 0.02760 0.09700
O 	O 	0.33991 0.00120 0.01704 -0.27500
C 	C 	0.35746 0.04090 0.91420 -0.39000
H 	H 	0.34920 0.12680 0.90650 0.13800
H 	H 	0.34030 0.00360 0.86560 0.13400
C 	C 	0.43122 0.02000 0.95949 0.15000
C 	C 	0.47471 0.11590 0.98197 -0.11200
H 	H 	0.45840 0.19410 0.96980 0.05800
C 	C 	0.54292 0.09650 0.02268 -0.07900
H 	H 	0.57160 0.16200 0.03820 0.05700
C 	C 	0.32030 0.99150 0.95037 0.30500
Cd	Cd	0.50000 0.71802 0.25000 1.15800
Cd	Cd	0.00000 0.21802 0.25000 1.14600
Cd	Cd	0.50000 0.28198 0.75000 1.15800
Cd	Cd	0.00000 0.78198 0.75000 1.14600
