data_crystal

_cell_length_a 16.20450
_cell_length_b 11.86800
_cell_length_c 17.95910
_cell_angle_alpha 90.00000
_cell_angle_beta  103.64400
_cell_angle_gamma 90.00000

_symmetry_space_group_name_	'P 1'
_symmetry_space_group_name_H-M	'P 1'

loop_
_symmetry_equiv_pos_as_xyz
  x,y,z

loop_
_atom_site_label
_atom_site_type_symbol
_atom_site_fract_x
_atom_site_fract_y
_atom_site_fract_z
_atom_site_charge
O 	O 	0.25932 0.95970 0.15808 -0.32000
Mo	Mo	0.28341 0.85884 0.93257 1.09500
Mo	Mo	0.28416 0.15174 0.96297 1.09000
Mo	Mo	0.38256 0.73304 0.03342 1.07000
Mo	Mo	0.52040 0.85432 0.19515 1.08600
Mo	Mo	0.52341 0.07098 0.21317 1.06300
Mo	Mo	0.38886 0.24451 0.07816 1.07300
Fe	Fe	0.12405 0.99744 0.13432 1.22400
P 	P 	0.43881 0.29944 0.26284 0.51300
P 	P 	0.37691 0.66303 0.21043 0.53100
P 	P 	0.32700 0.97546 0.11415 0.54400
P 	P 	0.11100 0.99195 0.94206 0.59400
O 	O 	0.26078 0.75450 0.00831 -0.49700
O 	O 	0.40825 0.13850 0.99896 -0.57800
O 	O 	0.40744 0.86540 0.97588 -0.57500
O 	O 	0.26599 0.22610 0.05365 -0.52300
O 	O 	0.47090 0.17650 0.27839 -0.37000
O 	O 	0.53556 0.97640 0.12513 -0.58000
O 	O 	0.15839 0.89960 0.90847 -0.39100
O 	O 	0.50842 0.74560 0.09971 -0.47800
O 	O 	0.02265 0.00230 0.88290 -0.32500
O 	O 	0.38439 0.86880 0.12297 -0.41500
O 	O 	0.15646 0.10590 0.93902 -0.39600
O 	O 	0.38563 0.07720 0.14191 -0.44600
O 	O 	0.28831 0.99030 0.02684 -0.45200
O 	O 	0.29506 0.01940 0.88538 -0.47700
O 	O 	0.48230 0.95000 0.26768 -0.43900
O 	O 	0.51501 0.37830 0.26586 -0.26200
O 	O 	0.37814 0.30430 0.18205 -0.36100
O 	O 	0.51385 0.20980 0.13731 -0.48100
O 	O 	0.39152 0.33180 0.32285 -0.31500
O 	O 	0.09830 0.95970 0.01858 -0.40600
O 	O 	0.46120 0.72470 0.24007 -0.36800
O 	O 	0.36570 0.63710 0.12422 -0.38900
O 	O 	0.30000 0.73960 0.21970 -0.16900
O 	O 	0.37020 0.55640 0.25281 -0.34200
O 	O 	0.12190 0.18040 0.10500 -0.45400
H 	H 	0.15870 0.19360 0.08170 0.26800
O 	O 	0.24068 0.45970 0.34192 -0.32600
Mo	Mo	0.21659 0.35884 0.56743 1.08100
Mo	Mo	0.21584 0.65174 0.53703 1.08200
Mo	Mo	0.11744 0.23304 0.46658 1.07200
Mo	Mo	0.97960 0.35432 0.30485 1.09500
Mo	Mo	0.97659 0.57098 0.28683 1.09600
Mo	Mo	0.11114 0.74451 0.42184 1.07900
Fe	Fe	0.37595 0.49744 0.36568 1.21900
P 	P 	0.06119 0.79944 0.23716 0.48600
P 	P 	0.12309 0.16303 0.28957 0.53200
P 	P 	0.17300 0.47546 0.38585 0.51900
P 	P 	0.38900 0.49195 0.55794 0.54800
O 	O 	0.23922 0.25450 0.49169 -0.48200
O 	O 	0.09175 0.63850 0.50104 -0.61000
O 	O 	0.09256 0.36540 0.52412 -0.61600
O 	O 	0.23401 0.72610 0.44635 -0.49700
O 	O 	0.02910 0.67650 0.22161 -0.37800
O 	O 	0.96444 0.47640 0.37487 -0.59000
O 	O 	0.34161 0.39960 0.59153 -0.39600
O 	O 	0.99158 0.24560 0.40029 -0.46000
O 	O 	0.47735 0.50230 0.61710 -0.28900
O 	O 	0.11561 0.36880 0.37703 -0.42000
O 	O 	0.34354 0.60590 0.56098 -0.38600
O 	O 	0.11437 0.57720 0.35809 -0.42500
O 	O 	0.21169 0.49030 0.47316 -0.44600
O 	O 	0.20494 0.51940 0.61462 -0.46600
O 	O 	0.01770 0.45000 0.23232 -0.48200
O 	O 	0.98499 0.87830 0.23414 -0.22200
O 	O 	0.12186 0.80430 0.31795 -0.35500
O 	O 	0.98615 0.70980 0.36269 -0.44600
O 	O 	0.10848 0.83180 0.17715 -0.31600
O 	O 	0.40170 0.45970 0.48142 -0.38100
O 	O 	0.03880 0.22470 0.25993 -0.39000
O 	O 	0.13430 0.13710 0.37578 -0.39800
O 	O 	0.20000 0.23960 0.28030 -0.17400
O 	O 	0.12980 0.05640 0.24719 -0.36700
O 	O 	0.37810 0.68040 0.39500 -0.42800
H 	H 	0.34130 0.69360 0.41830 0.27300
O 	O 	0.74068 0.04030 0.84192 -0.33100
Mo	Mo	0.71659 0.14116 0.06743 1.05700
Mo	Mo	0.71584 0.84826 0.03703 1.07200
Mo	Mo	0.61744 0.26696 0.96658 1.09500
Mo	Mo	0.47960 0.14568 0.80485 1.08100
Mo	Mo	0.47659 0.92902 0.78683 1.09500
Mo	Mo	0.61114 0.75549 0.92184 1.09600
Fe	Fe	0.87595 0.00256 0.86568 1.21100
P 	P 	0.56119 0.70056 0.73716 0.51200
P 	P 	0.62309 0.33697 0.78957 0.53100
P 	P 	0.67300 0.02454 0.88585 0.49700
P 	P 	0.88900 0.00805 0.05794 0.44600
O 	O 	0.73922 0.24550 0.99169 -0.45200
O 	O 	0.59175 0.86150 0.00104 -0.61200
O 	O 	0.59256 0.13460 0.02412 -0.64300
O 	O 	0.73401 0.77390 0.94635 -0.47900
O 	O 	0.52910 0.82350 0.72161 -0.35400
O 	O 	0.46444 0.02360 0.87487 -0.60800
O 	O 	0.84161 0.10040 0.09153 -0.40400
O 	O 	0.49158 0.25440 0.90029 -0.46300
O 	O 	0.97735 0.99770 0.11710 -0.23100
O 	O 	0.61561 0.13120 0.87703 -0.40700
O 	O 	0.84354 0.89410 0.06098 -0.36200
O 	O 	0.61437 0.92280 0.85809 -0.38900
O 	O 	0.71169 0.00970 0.97316 -0.43200
O 	O 	0.70494 0.98060 0.11462 -0.44400
O 	O 	0.51770 0.05000 0.73232 -0.47500
O 	O 	0.48499 0.62170 0.73414 -0.25700
O 	O 	0.62186 0.69570 0.81795 -0.35500
O 	O 	0.48615 0.79020 0.86269 -0.46000
O 	O 	0.60848 0.66820 0.67715 -0.31000
O 	O 	0.90170 0.04030 0.98142 -0.33600
O 	O 	0.53880 0.27530 0.75993 -0.37000
O 	O 	0.63430 0.36290 0.87578 -0.37900
O 	O 	0.70000 0.26040 0.78030 -0.17000
O 	O 	0.62980 0.44360 0.74719 -0.34000
O 	O 	0.87810 0.81960 0.89500 -0.40400
H 	H 	0.84130 0.80640 0.91830 0.27600
O 	O 	0.75932 0.54030 0.65808 -0.32400
Mo	Mo	0.78341 0.64116 0.43257 1.08300
Mo	Mo	0.78416 0.34826 0.46297 1.07900
Mo	Mo	0.88256 0.76696 0.53342 1.09200
Mo	Mo	0.02040 0.64568 0.69515 1.06500
Mo	Mo	0.02341 0.42902 0.71317 1.06500
Mo	Mo	0.88886 0.25549 0.57816 1.08900
Fe	Fe	0.62405 0.50256 0.63432 1.21900
P 	P 	0.93881 0.20056 0.76284 0.53300
P 	P 	0.87691 0.83697 0.71043 0.53100
P 	P 	0.82700 0.52454 0.61415 0.51700
P 	P 	0.61100 0.50805 0.44206 0.54800
O 	O 	0.76078 0.74550 0.50831 -0.47300
O 	O 	0.90825 0.36150 0.49896 -0.59300
O 	O 	0.90744 0.63460 0.47588 -0.59500
O 	O 	0.76599 0.27390 0.55365 -0.50500
O 	O 	0.97090 0.32350 0.77839 -0.34400
O 	O 	0.03556 0.52360 0.62513 -0.61300
O 	O 	0.65839 0.60040 0.40847 -0.39300
O 	O 	0.00842 0.75440 0.59971 -0.49100
O 	O 	0.52265 0.49770 0.38290 -0.28900
O 	O 	0.88439 0.63120 0.62297 -0.40100
O 	O 	0.65646 0.39410 0.43902 -0.39100
O 	O 	0.88563 0.42280 0.64191 -0.40500
O 	O 	0.78831 0.50970 0.52684 -0.44500
O 	O 	0.79506 0.48060 0.38538 -0.46700
O 	O 	0.98230 0.55000 0.76768 -0.43200
O 	O 	0.01501 0.12170 0.76586 -0.29000
O 	O 	0.87814 0.19570 0.68205 -0.36200
O 	O 	0.01385 0.29020 0.63731 -0.49000
O 	O 	0.89152 0.16820 0.82285 -0.31000
O 	O 	0.59830 0.54030 0.51858 -0.37900
O 	O 	0.96120 0.77530 0.74007 -0.34300
O 	O 	0.86570 0.86290 0.62422 -0.36800
O 	O 	0.80000 0.76040 0.71970 -0.16500
O 	O 	0.87020 0.94360 0.75281 -0.31300
O 	O 	0.62190 0.31960 0.60500 -0.43300
H 	H 	0.65870 0.30640 0.58170 0.27100
Fe	Fe	0.50000 0.00000 -0.00000 1.15900
Fe	Fe	0.00000 0.50000 0.50000 1.18300
