data_crystal

_cell_length_a 8.85450
_cell_length_b 10.67200
_cell_length_c 15.38900
_cell_angle_alpha 76.40000
_cell_angle_beta  78.58000
_cell_angle_gamma 79.92000

_symmetry_space_group_name_	'P 1'
_symmetry_space_group_name_H-M	'P 1'

loop_
_symmetry_equiv_pos_as_xyz
  x,y,z

loop_
_atom_site_label
_atom_site_type_symbol
_atom_site_fract_x
_atom_site_fract_y
_atom_site_fract_z
_atom_site_charge
Ni	Ni	0.80774 0.92526 0.62692 1.10400
C 	C 	0.82430 0.85130 0.45600 -0.00400
C 	C 	0.81260 0.87060 0.35700 -0.08200
H 	H 	0.86920 0.94170 0.32330 0.08200
H 	H 	0.86400 0.79270 0.33580 0.06900
N 	N 	0.65370 0.89870 0.33560 -0.10600
C 	C 	0.53940 0.98960 0.36040 0.09500
H 	H 	0.54920 0.04780 0.39480 0.04100
N 	N 	0.41200 0.98640 0.33020 -0.21700
C 	C 	0.44580 0.88710 0.28500 0.02000
H 	H 	0.37700 0.86110 0.25640 0.02400
C 	C 	0.59550 0.83170 0.28820 -0.01500
H 	H 	0.64740 0.76180 0.26290 0.04300
P 	P 	0.71541 0.72695 0.53786 0.42700
O 	O 	0.77220 0.59710 0.51540 -0.35800
O 	O 	0.72690 0.75000 0.62940 -0.35400
O 	O 	0.53750 0.76160 0.52830 -0.40600
H 	H 	0.52770 0.76300 0.47620 0.26400
P 	P 	0.03409 0.81387 0.47125 0.38900
O 	O 	0.09100 0.67120 0.47360 -0.37200
O 	O 	0.03270 0.85410 0.56080 -0.39100
O 	O 	0.11720 0.90030 0.39110 -0.39200
O 	O 	0.76540 0.97120 0.48800 -0.44000
H 	H 	0.82850 0.02590 0.47270 0.23900
N 	N 	0.99590 0.52850 0.35920 -0.21700
C 	C 	0.87960 0.49530 0.33070 0.14900
H 	H 	0.81110 0.44490 0.37230 -0.00100
C 	C 	0.85640 0.53240 0.24220 -0.25200
H 	H 	0.76900 0.51220 0.22620 0.12600
C 	C 	0.95730 0.59700 0.17880 0.23200
C 	C 	0.08710 0.62650 0.20720 -0.25700
H 	H 	0.16220 0.66960 0.16540 0.11600
C 	C 	0.10050 0.59060 0.29740 0.10500
H 	H 	0.18570 0.61040 0.31600 0.00300
C 	C 	0.93050 0.64010 0.08240 -0.20500
H 	H 	0.87920 0.58390 0.06450 0.09900
C 	C 	0.96140 0.73150 0.02420 0.05400
H 	H 	0.02100 0.78430 0.03940 -0.01600
C 	C 	0.92300 0.77460 0.93510 0.08000
C 	C 	0.92040 0.89900 0.89050 -0.14000
H 	H 	0.93910 0.95930 0.92060 0.08300
C 	C 	0.89240 0.94200 0.80490 0.07700
H 	H 	0.89380 0.02950 0.77800 0.00600
C 	C 	0.84410 0.74200 0.80180 0.09200
H 	H 	0.80930 0.68580 0.77450 0.01000
C 	C 	0.87570 0.69660 0.89170 -0.14000
H 	H 	0.86350 0.61140 0.92110 0.08700
N 	N 	0.86170 0.85880 0.75620 -0.22900
Ni	Ni	0.19226 0.07474 0.37308 1.09500
C 	C 	0.17570 0.14870 0.54400 -0.04600
C 	C 	0.18740 0.12940 0.64300 -0.05000
H 	H 	0.13080 0.05830 0.67670 0.05200
H 	H 	0.13600 0.20730 0.66420 0.04300
N 	N 	0.34630 0.10130 0.66440 -0.11000
C 	C 	0.46060 0.01040 0.63960 0.08700
H 	H 	0.45080 0.95220 0.60520 0.04500
N 	N 	0.58800 0.01360 0.66980 -0.21700
C 	C 	0.55420 0.11290 0.71500 0.01800
H 	H 	0.62300 0.13890 0.74360 0.02600
C 	C 	0.40450 0.16830 0.71180 -0.01400
H 	H 	0.35260 0.23820 0.73710 0.04100
P 	P 	0.28459 0.27305 0.46214 0.42700
O 	O 	0.22780 0.40290 0.48460 -0.37100
O 	O 	0.27310 0.25000 0.37060 -0.36400
O 	O 	0.46250 0.23840 0.47170 -0.40500
H 	H 	0.47230 0.23700 0.52380 0.26400
P 	P 	0.96591 0.18613 0.52875 0.42700
O 	O 	0.90900 0.32880 0.52640 -0.35700
O 	O 	0.96730 0.14590 0.43920 -0.36500
O 	O 	0.88280 0.09970 0.60890 -0.38100
O 	O 	0.23460 0.02880 0.51200 -0.43900
H 	H 	0.17150 0.97410 0.52730 0.23300
N 	N 	0.00410 0.47150 0.64080 -0.23200
C 	C 	0.12040 0.50470 0.66930 0.05600
H 	H 	0.18890 0.55510 0.62770 0.02700
C 	C 	0.14360 0.46760 0.75780 -0.10400
H 	H 	0.23100 0.48780 0.77380 0.07100
C 	C 	0.04270 0.40300 0.82120 -0.01200
C 	C 	0.91290 0.37350 0.79280 -0.07700
H 	H 	0.83780 0.33040 0.83460 0.06100
C 	C 	0.89950 0.40940 0.70260 0.09200
H 	H 	0.81430 0.38960 0.68400 0.01400
C 	C 	0.06950 0.35990 0.91760 0.08800
H 	H 	0.12080 0.41610 0.93550 0.00200
C 	C 	0.03860 0.26850 0.97580 -0.30500
H 	H 	0.97900 0.21570 0.96060 0.15800
C 	C 	0.07700 0.22540 0.06490 0.24000
C 	C 	0.07960 0.10100 0.10950 -0.26800
H 	H 	0.06090 0.04070 0.07940 0.10500
C 	C 	0.10760 0.05800 0.19510 0.12500
H 	H 	0.10620 0.97050 0.22200 -0.02000
C 	C 	0.15590 0.25800 0.19820 0.13700
H 	H 	0.19070 0.31420 0.22550 -0.01500
C 	C 	0.12430 0.30340 0.10830 -0.25800
H 	H 	0.13650 0.38860 0.07890 0.11500
N 	N 	0.13830 0.14120 0.24380 -0.25700
Ni	Ni	0.00000 0.50000 0.50000 1.09600
