data_crystal

_cell_length_a 10.64120
_cell_length_b 10.64120
_cell_length_c 11.01540
_cell_angle_alpha 78.61400
_cell_angle_beta  62.53470
_cell_angle_gamma 108.55500

_symmetry_space_group_name_	'P 1'
_symmetry_space_group_name_H-M	'P 1'

loop_
_symmetry_equiv_pos_as_xyz
  x,y,z

loop_
_atom_site_label
_atom_site_type_symbol
_atom_site_fract_x
_atom_site_fract_y
_atom_site_fract_z
_atom_site_charge
Pr	Pr	0.05028 0.86352 0.88008 2.02200
Pr	Pr	0.74360 0.43036 0.61992 2.03600
Pr	Pr	0.94972 0.13648 0.11992 2.02200
Pr	Pr	0.25640 0.56964 0.38008 2.03600
H 	H 	0.45100 0.88600 0.81700 0.27400
H 	H 	0.60700 0.99200 0.64900 0.25300
H 	H 	0.22600 0.88500 0.22300 0.30500
H 	H 	0.70300 0.76800 0.68300 0.27600
H 	H 	0.64100 0.75600 0.85100 0.24800
H 	H 	0.10800 0.94900 0.27700 0.30500
H 	H 	0.54900 0.11400 0.18300 0.27400
H 	H 	0.39300 0.00800 0.35100 0.25300
H 	H 	0.77400 0.11500 0.77700 0.30500
H 	H 	0.29700 0.23200 0.31700 0.27600
H 	H 	0.35900 0.24400 0.14900 0.24800
H 	H 	0.89200 0.05100 0.72300 0.30500
C 	C 	0.40420 0.84950 0.66830 0.60000
C 	C 	0.48830 0.94590 0.71960 -0.83600
C 	C 	0.45300 0.06900 0.74200 0.66200
C 	C 	0.10030 0.87390 0.12480 0.60300
C 	C 	0.51780 0.57250 0.83170 0.59800
C 	C 	0.66550 0.70790 0.78040 -0.82400
C 	C 	0.81100 0.69500 0.75800 0.65300
C 	C 	0.99870 0.72510 0.37520 0.59500
C 	C 	0.59580 0.15050 0.33170 0.60000
C 	C 	0.51170 0.05410 0.28040 -0.83600
C 	C 	0.54700 0.93100 0.25800 0.66200
C 	C 	0.89970 0.12610 0.87520 0.60300
C 	C 	0.48220 0.42750 0.16830 0.59800
C 	C 	0.33450 0.29210 0.21960 -0.82400
C 	C 	0.18900 0.30500 0.24200 0.65300
C 	C 	0.00130 0.27490 0.62480 0.59500
C 	C 	0.12510 0.87510 0.25000 -0.92000
C 	C 	0.87490 0.12490 0.75000 -0.92000
O 	O 	0.25667 0.80657 0.72630 -0.58800
O 	O 	0.56730 0.18060 0.71430 -0.64400
O 	O 	0.31570 0.05620 0.78990 -0.57900
O 	O 	0.04111 0.94915 0.09116 -0.68600
O 	O 	0.13370 0.79289 0.06101 -0.53100
O 	O 	0.48500 0.81300 0.57220 -0.39400
O 	O 	0.53287 0.48297 0.77370 -0.58200
O 	O 	0.89490 0.78160 0.78570 -0.63600
O 	O 	0.84610 0.60560 0.71010 -0.57300
O 	O 	0.04031 0.63227 0.40884 -0.69600
O 	O 	0.85390 0.69471 0.43899 -0.54300
O 	O 	0.38520 0.55720 0.92780 -0.39800
O 	O 	0.74333 0.19343 0.27370 -0.58800
O 	O 	0.43270 0.81940 0.28570 -0.64400
O 	O 	0.68430 0.94380 0.21010 -0.57900
O 	O 	0.95889 0.05085 0.90884 -0.68600
O 	O 	0.86630 0.20711 0.93899 -0.53100
O 	O 	0.51500 0.18700 0.42780 -0.39400
O 	O 	0.46713 0.51703 0.22630 -0.58200
O 	O 	0.10510 0.21840 0.21430 -0.63600
O 	O 	0.15390 0.39440 0.28990 -0.57300
O 	O 	0.95969 0.36773 0.59116 -0.69600
O 	O 	0.14610 0.30529 0.56101 -0.54300
O 	O 	0.61480 0.44280 0.07220 -0.39800
