data_crystal

_cell_length_a 10.63300
_cell_length_b 10.63300
_cell_length_c 11.01180
_cell_angle_alpha 78.59540
_cell_angle_beta  62.52850
_cell_angle_gamma 108.51100

_symmetry_space_group_name_	'P 1'
_symmetry_space_group_name_H-M	'P 1'

loop_
_symmetry_equiv_pos_as_xyz
  x,y,z

loop_
_atom_site_label
_atom_site_type_symbol
_atom_site_fract_x
_atom_site_fract_y
_atom_site_fract_z
_atom_site_charge
Pr	Pr	0.44984 0.63660 0.61976 2.03700
Pr	Pr	0.75636 0.06960 0.88024 2.03600
Pr	Pr	0.55016 0.36340 0.38024 2.03700
Pr	Pr	0.24364 0.93040 0.11976 2.03600
H 	H 	0.03730 0.61880 0.68830 0.27700
H 	H 	0.89770 0.51460 0.85590 0.27000
H 	H 	0.80710 0.72560 0.81170 0.27800
H 	H 	0.87050 0.75360 0.64410 0.27600
H 	H 	0.96270 0.38120 0.31170 0.27700
H 	H 	0.10230 0.48540 0.14410 0.27000
H 	H 	0.19290 0.27440 0.18830 0.27800
H 	H 	0.12950 0.24640 0.35590 0.27600
C 	C 	0.09540 0.65040 0.83240 0.57300
C 	C 	0.01010 0.55390 0.78080 -0.82100
C 	C 	0.04730 0.43020 0.75790 0.66900
C 	C 	0.60030 0.37370 0.62480 0.41000
C 	C 	0.98280 0.92780 0.66760 0.56400
C 	C 	0.83470 0.79090 0.71920 -0.82900
C 	C 	0.68810 0.80520 0.74210 0.66600
C 	C 	0.49850 0.22510 0.87520 0.41000
C 	C 	0.90460 0.34960 0.16760 0.57300
C 	C 	0.98990 0.44610 0.21920 -0.82100
C 	C 	0.95270 0.56980 0.24210 0.66900
C 	C 	0.39970 0.62630 0.37520 0.41000
C 	C 	0.01720 0.07220 0.33240 0.56400
C 	C 	0.16530 0.20910 0.28080 -0.82900
C 	C 	0.31190 0.19480 0.25790 0.66600
C 	C 	0.50150 0.77490 0.12480 0.41000
C 	C 	0.62480 0.37480 0.75000 -0.25200
C 	C 	0.37520 0.62520 0.25000 -0.25200
O 	O 	0.24439 0.69339 0.77300 -0.57100
O 	O 	0.01510 0.68790 0.92820 -0.38500
O 	O 	0.18470 0.44410 0.70980 -0.57900
O 	O 	0.93280 0.31960 0.78480 -0.63300
O 	O 	0.54130 0.44950 0.59120 -0.63800
O 	O 	0.63474 0.29316 0.56010 -0.48100
O 	O 	0.96639 0.01739 0.72700 -0.57100
O 	O 	0.11610 0.94330 0.57180 -0.38300
O 	O 	0.65390 0.89450 0.79020 -0.57700
O 	O 	0.60440 0.71760 0.71520 -0.62700
O 	O 	0.54070 0.13250 0.90880 -0.63900
O 	O 	0.35326 0.19484 0.93990 -0.48000
O 	O 	0.75561 0.30661 0.22700 -0.57100
O 	O 	0.98490 0.31210 0.07180 -0.38500
O 	O 	0.81530 0.55590 0.29020 -0.57900
O 	O 	0.06720 0.68040 0.21520 -0.63300
O 	O 	0.45870 0.55050 0.40880 -0.63800
O 	O 	0.36526 0.70684 0.43990 -0.48100
O 	O 	0.03361 0.98261 0.27300 -0.57100
O 	O 	0.88390 0.05670 0.42820 -0.38300
O 	O 	0.34610 0.10550 0.20980 -0.57700
O 	O 	0.39560 0.28240 0.28480 -0.62700
O 	O 	0.45930 0.86750 0.09120 -0.63900
O 	O 	0.64674 0.80516 0.06010 -0.48000
