data_crystal

_cell_length_a 14.16000
_cell_length_b 7.27100
_cell_length_c 8.98200
_cell_angle_alpha 90.00000
_cell_angle_beta  108.85100
_cell_angle_gamma 90.00000

_symmetry_space_group_name_	'P 1'
_symmetry_space_group_name_H-M	'P 1'

loop_
_symmetry_equiv_pos_as_xyz
  x,y,z

loop_
_atom_site_label
_atom_site_type_symbol
_atom_site_fract_x
_atom_site_fract_y
_atom_site_fract_z
_atom_site_charge
O 	O 	0.32740 0.81970 0.95680 -0.51700
O 	O 	0.34697 0.18050 0.29350 -0.35300
C 	C 	0.41101 0.89450 0.97690 0.35100
C 	C 	0.42077 0.10560 0.39450 -0.11000
O 	O 	0.82740 0.31970 0.95680 -0.52800
O 	O 	0.84697 0.68050 0.29350 -0.33900
C 	C 	0.91101 0.39450 0.97690 0.07500
C 	C 	0.92077 0.60560 0.39450 0.10900
O 	O 	0.67260 0.81970 0.04320 -0.49600
O 	O 	0.65303 0.18050 0.70650 -0.37000
C 	C 	0.58899 0.89450 0.02310 0.38600
C 	C 	0.57923 0.10560 0.60550 -0.11300
O 	O 	0.17260 0.31970 0.04320 -0.50500
O 	O 	0.15303 0.68050 0.70650 -0.35200
C 	C 	0.08899 0.39450 0.02310 0.13400
C 	C 	0.07923 0.60560 0.60550 0.13200
O 	O 	0.67260 0.18030 0.04320 -0.46800
O 	O 	0.65303 0.81950 0.70650 -0.39700
C 	C 	0.58899 0.10550 0.02310 -0.10000
C 	C 	0.57923 0.89440 0.60550 0.37700
O 	O 	0.17260 0.68030 0.04320 -0.44800
O 	O 	0.15303 0.31950 0.70650 -0.41100
C 	C 	0.08899 0.60550 0.02310 0.14200
C 	C 	0.07923 0.39440 0.60550 0.12300
O 	O 	0.32740 0.18030 0.95680 -0.48900
O 	O 	0.34697 0.81950 0.29350 -0.37900
C 	C 	0.41101 0.10550 0.97690 -0.13300
C 	C 	0.42077 0.89440 0.39450 0.38000
O 	O 	0.82740 0.68030 0.95680 -0.47100
O 	O 	0.84697 0.31950 0.29350 -0.39800
C 	C 	0.91101 0.60550 0.97690 0.08400
C 	C 	0.92077 0.39440 0.39450 0.09900
Ca	Ca	0.22726 0.00000 0.08784 1.47300
Ca	Ca	0.72726 0.50000 0.08784 1.50200
Ca	Ca	0.77274 0.00000 0.91216 1.46300
Ca	Ca	0.27274 0.50000 0.91216 1.49300
C 	C 	0.50000 0.80010 -0.00000 -0.29800
H 	H 	0.50000 0.65120 -0.00000 0.03300
C 	C 	-0.00000 0.30010 -0.00000 -0.13600
H 	H 	0.00000 0.15120 -0.00000 -0.05600
C 	C 	0.50000 0.19990 -0.00000 -0.03200
H 	H 	0.50000 0.34880 -0.00000 -0.04100
C 	C 	-0.00000 0.69990 -0.00000 -0.12100
H 	H 	-0.00000 0.84880 -0.00000 0.04800
C 	C 	0.50000 0.19930 0.50000 -0.04000
H 	H 	0.50000 0.34840 0.50000 0.03200
C 	C 	0.00000 0.69930 0.50000 -0.12700
H 	H 	-0.00000 0.84840 0.50000 0.12000
C 	C 	0.50000 0.80070 0.50000 -0.30400
H 	H 	0.50000 0.65160 0.50000 0.10600
C 	C 	0.00000 0.30070 0.50000 -0.14500
H 	H 	0.00000 0.15160 0.50000 0.01500
