data_crystal

_cell_length_a 24.41860
_cell_length_b 24.41860
_cell_length_c 55.47570
_cell_angle_alpha 90.00000
_cell_angle_beta  90.00000
_cell_angle_gamma 120.00000

_symmetry_space_group_name_	'P 1'
_symmetry_space_group_name_H-M	'P 1'

loop_
_symmetry_equiv_pos_as_xyz
  x,y,z

loop_
_atom_site_label
_atom_site_type_symbol
_atom_site_fract_x
_atom_site_fract_y
_atom_site_fract_z
_atom_site_charge
In	In	0.77849 0.72900 0.47478 1.99300
O 	O 	0.76350 0.63450 0.47460 -0.61000
O 	O 	0.66840 0.56860 0.49132 -0.60300
O 	O 	0.75520 0.85280 0.49959 -0.58900
O 	O 	0.79690 0.82220 0.47021 -0.62600
O 	O 	0.97710 0.36620 0.20510 -0.59700
O 	O 	0.00860 0.29940 0.22046 -0.59900
O 	O 	0.78900 0.12580 0.44333 -0.26800
O 	O 	0.80710 0.41040 0.41900 -0.26400
O 	O 	0.89160 0.26200 0.33387 -0.26800
N 	N 	0.73870 0.37170 0.45067 -0.27300
H 	H 	0.71610 0.33800 0.45890 0.13400
N 	N 	0.76480 0.30630 0.43047 -0.29000
H 	H 	0.74370 0.28090 0.44200 0.13800
N 	N 	0.82520 0.06850 0.42292 -0.27400
H 	H 	0.83860 0.06590 0.40890 0.13400
N 	N 	0.83470 0.15770 0.40524 -0.27700
H 	H 	0.85430 0.15030 0.39400 0.13700
N 	N 	0.85230 0.31920 0.35214 -0.29000
H 	H 	0.84740 0.35140 0.35030 0.13900
N 	N 	0.89090 0.34390 0.31408 -0.27900
H 	H 	0.88150 0.37340 0.31560 0.13400
C 	C 	0.71920 0.58150 0.48091 0.49700
C 	C 	0.72740 0.52710 0.47385 -0.23200
C 	C 	0.67940 0.46750 0.47922 0.15100
H 	H 	0.64500 0.46240 0.48820 -0.01500
C 	C 	0.68150 0.41350 0.47118 -0.24200
H 	H 	0.64920 0.37260 0.47450 0.11000
C 	C 	0.73590 0.42560 0.45778 0.22600
C 	C 	0.78400 0.48540 0.45219 -0.24700
H 	H 	0.81930 0.49130 0.44370 0.13900
C 	C 	0.77840 0.53860 0.45987 0.15500
H 	H 	0.80840 0.57960 0.45550 -0.01600
C 	C 	0.77320 0.36640 0.43216 0.30600
C 	C 	0.78600 0.28160 0.41274 0.30000
C 	C 	0.79540 0.23180 0.41946 -0.34100
H 	H 	0.78310 0.21340 0.43460 0.16900
C 	C 	0.82390 0.20990 0.40290 0.28100
C 	C 	0.84280 0.23660 0.38020 -0.32900
H 	H 	0.86190 0.22230 0.36940 0.16900
C 	C 	0.83160 0.28730 0.37414 0.28800
C 	C 	0.80420 0.30970 0.39020 -0.35100
H 	H 	0.79810 0.34310 0.38600 0.16900
C 	C 	0.81370 0.11820 0.42571 0.30000
C 	C 	0.81860 0.02230 0.43898 0.23300
C 	C 	0.78820 0.01160 0.46097 -0.28100
H 	H 	0.77450 0.03820 0.46690 0.14900
C 	C 	0.77930 0.95810 0.47382 0.19300
H 	H 	0.75890 0.94940 0.48870 -0.02300
C 	C 	0.79870 0.91910 0.46571 -0.24800
C 	C 	0.82930 0.92970 0.44273 0.15300
H 	H 	0.84090 0.90140 0.43680 -0.02000
C 	C 	0.84140 0.98310 0.42936 -0.24100
H 	H 	0.86320 0.99270 0.41480 0.11100
C 	C 	0.78640 0.86220 0.47978 0.49700
C 	C 	0.87910 0.30540 0.33334 0.30900
C 	C 	0.91690 0.34040 0.29188 0.23900
C 	C 	0.94450 0.30490 0.28745 -0.27400
H 	H 	0.94840 0.28140 0.29990 0.14700
C 	C 	0.96680 0.30320 0.26481 0.17700
H 	H 	0.98570 0.27890 0.26210 -0.02100
C 	C 	0.96130 0.33800 0.24584 -0.23300
C 	C 	0.93520 0.37480 0.25010 0.16000
H 	H 	0.93390 0.39980 0.23770 -0.01600
C 	C 	0.91020 0.37620 0.27290 -0.24700
H 	H 	0.89010 0.39950 0.27550 0.11300
C 	C 	0.98490 0.33560 0.22118 0.49200
In	In	0.27100 0.04949 0.80811 1.99100
O 	O 	0.36550 0.12900 0.80793 -0.61200
O 	O 	0.43140 0.09980 0.82465 -0.60600
O 	O 	0.14720 0.90240 0.83292 -0.58900
O 	O 	0.17780 0.97470 0.80354 -0.62400
O 	O 	0.63380 0.61090 0.53843 -0.59900
O 	O 	0.70060 0.70920 0.55379 -0.59000
O 	O 	0.87420 0.66320 0.77666 -0.26700
O 	O 	0.58960 0.39670 0.75233 -0.26700
O 	O 	0.73800 0.62960 0.66720 -0.26800
N 	N 	0.62830 0.36700 0.78400 -0.27500
H 	H 	0.66200 0.37810 0.79223 0.13400
N 	N 	0.69370 0.45850 0.76380 -0.29100
H 	H 	0.71910 0.46280 0.77533 0.13800
N 	N 	0.93150 0.75670 0.75625 -0.27600
H 	H 	0.93410 0.77270 0.74223 0.13600
N 	N 	0.84230 0.67700 0.73857 -0.27800
H 	H 	0.84970 0.70400 0.72733 0.13800
N 	N 	0.68080 0.53310 0.68547 -0.29000
H 	H 	0.64860 0.49600 0.68363 0.13900
N 	N 	0.65610 0.54700 0.64741 -0.27900
H 	H 	0.62660 0.50810 0.64893 0.13300
C 	C 	0.41850 0.13770 0.81424 0.49700
C 	C 	0.47290 0.20030 0.80718 -0.23300
C 	C 	0.53250 0.21190 0.81255 0.15200
H 	H 	0.53760 0.18260 0.82153 -0.01500
C 	C 	0.58650 0.26800 0.80451 -0.24300
H 	H 	0.62740 0.27660 0.80783 0.11100
C 	C 	0.57440 0.31030 0.79111 0.22600
C 	C 	0.51460 0.29860 0.78552 -0.24800
H 	H 	0.50870 0.32800 0.77703 0.13900
C 	C 	0.46140 0.23980 0.79320 0.15500
H 	H 	0.42040 0.22880 0.78883 -0.01700
C 	C 	0.63360 0.40680 0.76549 0.30600
C 	C 	0.71840 0.50440 0.74607 0.30100
C 	C 	0.76820 0.56360 0.75279 -0.34100
H 	H 	0.78660 0.56970 0.76793 0.17000
C 	C 	0.79010 0.61400 0.73623 0.28200
C 	C 	0.76340 0.60620 0.71353 -0.32900
H 	H 	0.77770 0.63960 0.70273 0.16900
C 	C 	0.71270 0.54430 0.70747 0.28900
C 	C 	0.69030 0.49450 0.72353 -0.35100
H 	H 	0.65690 0.45500 0.71933 0.16900
C 	C 	0.88180 0.69550 0.75904 0.30100
C 	C 	0.97770 0.79630 0.77231 0.24300
C 	C 	0.98840 0.77660 0.79430 -0.26300
H 	H 	0.96180 0.73630 0.80023 0.14600
C 	C 	0.04190 0.82120 0.80715 0.17200
H 	H 	0.05060 0.80950 0.82203 -0.01800
C 	C 	0.08090 0.87960 0.79904 -0.24200
C 	C 	0.07030 0.89960 0.77606 0.15300
H 	H 	0.09860 0.93950 0.77013 -0.02100
C 	C 	0.01690 0.85830 0.76269 -0.25600
H 	H 	0.00730 0.87050 0.74813 0.11200
C 	C 	0.13780 0.92420 0.81311 0.49400
C 	C 	0.69460 0.57370 0.66667 0.30900
C 	C 	0.65960 0.57650 0.62521 0.23700
C 	C 	0.69510 0.63960 0.62078 -0.27300
H 	H 	0.71860 0.66700 0.63323 0.14700
C 	C 	0.69680 0.66360 0.59814 0.17400
H 	H 	0.72110 0.70680 0.59543 -0.02100
C 	C 	0.66200 0.62330 0.57917 -0.23000
C 	C 	0.62520 0.56040 0.58343 0.15800
H 	H 	0.60020 0.53410 0.57103 -0.01600
C 	C 	0.62380 0.53400 0.60623 -0.24600
H 	H 	0.60050 0.49060 0.60883 0.11200
C 	C 	0.66440 0.64930 0.55451 0.48200
In	In	0.95051 0.22151 0.14145 1.99300
O 	O 	0.87100 0.23650 0.14127 -0.61000
O 	O 	0.90020 0.33160 0.15799 -0.60200
O 	O 	0.09760 0.24480 0.16626 -0.59200
O 	O 	0.02530 0.20310 0.13688 -0.63100
O 	O 	0.38910 0.02290 0.87177 -0.59800
O 	O 	0.29080 0.99140 0.88713 -0.58100
O 	O 	0.33680 0.21100 0.11000 -0.26900
O 	O 	0.60330 0.19290 0.08567 -0.26600
O 	O 	0.37040 0.10840 0.00054 -0.26900
N 	N 	0.63300 0.26130 0.11734 -0.27500
H 	H 	0.62190 0.28390 0.12557 0.13400
N 	N 	0.54150 0.23520 0.09714 -0.29100
H 	H 	0.53720 0.25630 0.10867 0.13800
N 	N 	0.24330 0.17480 0.08959 -0.27500
H 	H 	0.22730 0.16140 0.07557 0.13400
N 	N 	0.32300 0.16530 0.07191 -0.27700
H 	H 	0.29600 0.14570 0.06067 0.13700
N 	N 	0.46690 0.14770 0.01881 -0.29000
H 	H 	0.50400 0.15260 0.01697 0.13900
N 	N 	0.45300 0.10910 0.98075 -0.27900
H 	H 	0.49190 0.11850 0.98227 0.13300
C 	C 	0.86230 0.28080 0.14758 0.49700
C 	C 	0.79970 0.27260 0.14052 -0.23100
C 	C 	0.78810 0.32060 0.14589 0.15100
H 	H 	0.81740 0.35500 0.15487 -0.01400
C 	C 	0.73200 0.31850 0.13785 -0.24200
H 	H 	0.72340 0.35080 0.14117 0.11100
C 	C 	0.68970 0.26410 0.12445 0.22600
C 	C 	0.70140 0.21600 0.11886 -0.24700
H 	H 	0.67200 0.18070 0.11037 0.13800
C 	C 	0.76020 0.22160 0.12654 0.15500
H 	H 	0.77120 0.19160 0.12217 -0.01600
C 	C 	0.59320 0.22680 0.09883 0.30600
C 	C 	0.49560 0.21400 0.07941 0.30000
C 	C 	0.43640 0.20460 0.08613 -0.34100
H 	H 	0.43030 0.21690 0.10127 0.16900
C 	C 	0.38600 0.17610 0.06957 0.28100
C 	C 	0.39380 0.15720 0.04687 -0.32900
H 	H 	0.36040 0.13810 0.03607 0.16800
C 	C 	0.45570 0.16840 0.04081 0.28800
C 	C 	0.50550 0.19580 0.05687 -0.35100
H 	H 	0.54500 0.20190 0.05267 0.16900
C 	C 	0.30450 0.18630 0.09238 0.30000
C 	C 	0.20370 0.18140 0.10565 0.23700
C 	C 	0.22340 0.21180 0.12764 -0.27300
H 	H 	0.26370 0.22550 0.13357 0.14700
C 	C 	0.17880 0.22070 0.14049 0.18300
H 	H 	0.19050 0.24110 0.15537 -0.02200
C 	C 	0.12040 0.20130 0.13238 -0.24700
C 	C 	0.10040 0.17070 0.10940 0.15300
H 	H 	0.06050 0.15910 0.10347 -0.02300
C 	C 	0.14170 0.15860 0.09603 -0.25000
H 	H 	0.12950 0.13680 0.08147 0.11000
C 	C 	0.07580 0.21360 0.14645 0.49600
C 	C 	0.42630 0.12090 0.00001 0.30900
C 	C 	0.42350 0.08310 0.95855 0.23600
C 	C 	0.36040 0.05550 0.95412 -0.27200
H 	H 	0.33300 0.05160 0.96657 0.14500
C 	C 	0.33640 0.03320 0.93148 0.17100
H 	H 	0.29320 0.01430 0.92877 -0.02200
C 	C 	0.37670 0.03870 0.91251 -0.22800
C 	C 	0.43960 0.06480 0.91677 0.15500
H 	H 	0.46590 0.06610 0.90437 -0.01500
C 	C 	0.46600 0.08980 0.93957 -0.24500
H 	H 	0.50940 0.10990 0.94217 0.11200
C 	C 	0.35070 0.01510 0.88785 0.47200
In	In	0.72900 0.77849 0.52522 1.99200
O 	O 	0.63450 0.76350 0.52540 -0.61100
O 	O 	0.56860 0.66840 0.50868 -0.60400
O 	O 	0.85280 0.75520 0.50041 -0.59000
O 	O 	0.82220 0.79690 0.52979 -0.62700
O 	O 	0.36620 0.97710 0.79490 -0.59800
O 	O 	0.29940 0.00860 0.77954 -0.60000
O 	O 	0.12580 0.78900 0.55667 -0.26900
O 	O 	0.41040 0.80710 0.58100 -0.26500
O 	O 	0.26200 0.89160 0.66613 -0.26900
N 	N 	0.37170 0.73870 0.54933 -0.27400
H 	H 	0.33800 0.71610 0.54110 0.13300
N 	N 	0.30630 0.76480 0.56953 -0.29100
H 	H 	0.28090 0.74370 0.55800 0.13700
N 	N 	0.06850 0.82520 0.57708 -0.27500
H 	H 	0.06590 0.83860 0.59110 0.13300
N 	N 	0.15770 0.83470 0.59476 -0.27700
H 	H 	0.15030 0.85430 0.60600 0.13700
N 	N 	0.31920 0.85230 0.64786 -0.29000
H 	H 	0.35140 0.84740 0.64970 0.13900
N 	N 	0.34390 0.89090 0.68592 -0.27900
H 	H 	0.37340 0.88150 0.68440 0.13400
C 	C 	0.58150 0.71920 0.51909 0.49700
C 	C 	0.52710 0.72740 0.52615 -0.23200
C 	C 	0.46750 0.67940 0.52078 0.15100
H 	H 	0.46240 0.64500 0.51180 -0.01500
C 	C 	0.41350 0.68150 0.52882 -0.24200
H 	H 	0.37260 0.64920 0.52550 0.11000
C 	C 	0.42560 0.73590 0.54222 0.22600
C 	C 	0.48540 0.78400 0.54781 -0.24700
H 	H 	0.49130 0.81930 0.55630 0.13900
C 	C 	0.53860 0.77840 0.54013 0.15500
H 	H 	0.57960 0.80840 0.54450 -0.01600
C 	C 	0.36640 0.77320 0.56784 0.30600
C 	C 	0.28160 0.78600 0.58726 0.30000
C 	C 	0.23180 0.79540 0.58054 -0.34100
H 	H 	0.21340 0.78310 0.56540 0.16900
C 	C 	0.20990 0.82390 0.59710 0.28100
C 	C 	0.23660 0.84280 0.61980 -0.32900
H 	H 	0.22230 0.86190 0.63060 0.16900
C 	C 	0.28730 0.83160 0.62586 0.28800
C 	C 	0.30970 0.80420 0.60980 -0.35100
H 	H 	0.34310 0.79810 0.61400 0.16900
C 	C 	0.11820 0.81370 0.57429 0.30000
C 	C 	0.02230 0.81860 0.56102 0.23300
C 	C 	0.01160 0.78820 0.53903 -0.28100
H 	H 	0.03820 0.77450 0.53310 0.14900
C 	C 	0.95810 0.77930 0.52618 0.19300
H 	H 	0.94940 0.75890 0.51130 -0.02300
C 	C 	0.91910 0.79870 0.53429 -0.24800
C 	C 	0.92970 0.82930 0.55727 0.15300
H 	H 	0.90140 0.84090 0.56320 -0.02000
C 	C 	0.98310 0.84140 0.57064 -0.24100
H 	H 	0.99270 0.86320 0.58520 0.11100
C 	C 	0.86220 0.78640 0.52022 0.49700
C 	C 	0.30540 0.87910 0.66666 0.30900
C 	C 	0.34040 0.91690 0.70812 0.23900
C 	C 	0.30490 0.94450 0.71255 -0.27400
H 	H 	0.28140 0.94840 0.70010 0.14700
C 	C 	0.30320 0.96680 0.73519 0.17700
H 	H 	0.27890 0.98570 0.73790 -0.02100
C 	C 	0.33800 0.96130 0.75416 -0.23300
C 	C 	0.37480 0.93520 0.74990 0.16000
H 	H 	0.39980 0.93390 0.76230 -0.01600
C 	C 	0.37620 0.91020 0.72710 -0.24700
H 	H 	0.39950 0.89010 0.72450 0.11300
C 	C 	0.33560 0.98490 0.77882 0.49200
In	In	0.04949 0.27100 0.19189 1.99100
O 	O 	0.12900 0.36550 0.19207 -0.61200
O 	O 	0.09980 0.43140 0.17535 -0.60600
O 	O 	0.90240 0.14720 0.16708 -0.58900
O 	O 	0.97470 0.17780 0.19646 -0.62400
O 	O 	0.61090 0.63380 0.46157 -0.59900
O 	O 	0.70920 0.70060 0.44621 -0.59000
O 	O 	0.66320 0.87420 0.22334 -0.26700
O 	O 	0.39670 0.58960 0.24767 -0.26700
O 	O 	0.62960 0.73800 0.33280 -0.26800
N 	N 	0.36700 0.62830 0.21600 -0.27500
H 	H 	0.37810 0.66200 0.20777 0.13400
N 	N 	0.45850 0.69370 0.23620 -0.29100
H 	H 	0.46280 0.71910 0.22467 0.13800
N 	N 	0.75670 0.93150 0.24375 -0.27600
H 	H 	0.77270 0.93410 0.25777 0.13600
N 	N 	0.67700 0.84230 0.26143 -0.27800
H 	H 	0.70400 0.84970 0.27267 0.13800
N 	N 	0.53310 0.68080 0.31453 -0.29000
H 	H 	0.49600 0.64860 0.31637 0.13900
N 	N 	0.54700 0.65610 0.35259 -0.27900
H 	H 	0.50810 0.62660 0.35107 0.13300
C 	C 	0.13770 0.41850 0.18576 0.49700
C 	C 	0.20030 0.47290 0.19282 -0.23300
C 	C 	0.21190 0.53250 0.18745 0.15200
H 	H 	0.18260 0.53760 0.17847 -0.01500
C 	C 	0.26800 0.58650 0.19549 -0.24300
H 	H 	0.27660 0.62740 0.19217 0.11100
C 	C 	0.31030 0.57440 0.20889 0.22600
C 	C 	0.29860 0.51460 0.21448 -0.24800
H 	H 	0.32800 0.50870 0.22297 0.13900
C 	C 	0.23980 0.46140 0.20680 0.15500
H 	H 	0.22880 0.42040 0.21117 -0.01700
C 	C 	0.40680 0.63360 0.23451 0.30600
C 	C 	0.50440 0.71840 0.25393 0.30100
C 	C 	0.56360 0.76820 0.24721 -0.34100
H 	H 	0.56970 0.78660 0.23207 0.17000
C 	C 	0.61400 0.79010 0.26377 0.28200
C 	C 	0.60620 0.76340 0.28647 -0.32900
H 	H 	0.63960 0.77770 0.29727 0.16900
C 	C 	0.54430 0.71270 0.29253 0.28900
C 	C 	0.49450 0.69030 0.27647 -0.35100
H 	H 	0.45500 0.65690 0.28067 0.16900
C 	C 	0.69550 0.88180 0.24096 0.30100
C 	C 	0.79630 0.97770 0.22769 0.24300
C 	C 	0.77660 0.98840 0.20570 -0.26300
H 	H 	0.73630 0.96180 0.19977 0.14600
C 	C 	0.82120 0.04190 0.19285 0.17200
H 	H 	0.80950 0.05060 0.17797 -0.01800
C 	C 	0.87960 0.08090 0.20096 -0.24200
C 	C 	0.89960 0.07030 0.22394 0.15300
H 	H 	0.93950 0.09860 0.22987 -0.02100
C 	C 	0.85830 0.01690 0.23731 -0.25600
H 	H 	0.87050 0.00730 0.25187 0.11200
C 	C 	0.92420 0.13780 0.18689 0.49400
C 	C 	0.57370 0.69460 0.33333 0.30900
C 	C 	0.57650 0.65960 0.37479 0.23700
C 	C 	0.63960 0.69510 0.37922 -0.27300
H 	H 	0.66700 0.71860 0.36677 0.14700
C 	C 	0.66360 0.69680 0.40186 0.17400
H 	H 	0.70680 0.72110 0.40457 -0.02100
C 	C 	0.62330 0.66200 0.42083 -0.23000
C 	C 	0.56040 0.62520 0.41657 0.15800
H 	H 	0.53410 0.60020 0.42897 -0.01600
C 	C 	0.53400 0.62380 0.39377 -0.24600
H 	H 	0.49060 0.60050 0.39117 0.11200
C 	C 	0.64930 0.66440 0.44549 0.48200
In	In	0.22151 0.95051 0.85855 1.99300
O 	O 	0.23650 0.87100 0.85873 -0.61000
O 	O 	0.33160 0.90020 0.84201 -0.60200
O 	O 	0.24480 0.09760 0.83374 -0.59200
O 	O 	0.20310 0.02530 0.86312 -0.63100
O 	O 	0.02290 0.38910 0.12823 -0.59800
O 	O 	0.99140 0.29080 0.11287 -0.58100
O 	O 	0.21100 0.33680 0.89000 -0.26900
O 	O 	0.19290 0.60330 0.91433 -0.26600
O 	O 	0.10840 0.37040 0.99946 -0.26900
N 	N 	0.26130 0.63300 0.88266 -0.27500
H 	H 	0.28390 0.62190 0.87443 0.13400
N 	N 	0.23520 0.54150 0.90286 -0.29100
H 	H 	0.25630 0.53720 0.89133 0.13800
N 	N 	0.17480 0.24330 0.91041 -0.27500
H 	H 	0.16140 0.22730 0.92443 0.13400
N 	N 	0.16530 0.32300 0.92809 -0.27700
H 	H 	0.14570 0.29600 0.93933 0.13700
N 	N 	0.14770 0.46690 0.98119 -0.29000
H 	H 	0.15260 0.50400 0.98303 0.13900
N 	N 	0.10910 0.45300 0.01925 -0.27900
H 	H 	0.11850 0.49190 0.01773 0.13300
C 	C 	0.28080 0.86230 0.85242 0.49700
C 	C 	0.27260 0.79970 0.85948 -0.23100
C 	C 	0.32060 0.78810 0.85411 0.15100
H 	H 	0.35500 0.81740 0.84513 -0.01400
C 	C 	0.31850 0.73200 0.86215 -0.24200
H 	H 	0.35080 0.72340 0.85883 0.11100
C 	C 	0.26410 0.68970 0.87555 0.22600
C 	C 	0.21600 0.70140 0.88114 -0.24700
H 	H 	0.18070 0.67200 0.88963 0.13800
C 	C 	0.22160 0.76020 0.87346 0.15500
H 	H 	0.19160 0.77120 0.87783 -0.01600
C 	C 	0.22680 0.59320 0.90117 0.30600
C 	C 	0.21400 0.49560 0.92059 0.30000
C 	C 	0.20460 0.43640 0.91387 -0.34100
H 	H 	0.21690 0.43030 0.89873 0.16900
C 	C 	0.17610 0.38600 0.93043 0.28100
C 	C 	0.15720 0.39380 0.95313 -0.32900
H 	H 	0.13810 0.36040 0.96393 0.16800
C 	C 	0.16840 0.45570 0.95919 0.28800
C 	C 	0.19580 0.50550 0.94313 -0.35100
H 	H 	0.20190 0.54500 0.94733 0.16900
C 	C 	0.18630 0.30450 0.90762 0.30000
C 	C 	0.18140 0.20370 0.89435 0.23700
C 	C 	0.21180 0.22340 0.87236 -0.27300
H 	H 	0.22550 0.26370 0.86643 0.14700
C 	C 	0.22070 0.17880 0.85951 0.18300
H 	H 	0.24110 0.19050 0.84463 -0.02200
C 	C 	0.20130 0.12040 0.86762 -0.24700
C 	C 	0.17070 0.10040 0.89060 0.15300
H 	H 	0.15910 0.06050 0.89653 -0.02300
C 	C 	0.15860 0.14170 0.90397 -0.25000
H 	H 	0.13680 0.12950 0.91853 0.11000
C 	C 	0.21360 0.07580 0.85355 0.49600
C 	C 	0.12090 0.42630 0.99999 0.30900
C 	C 	0.08310 0.42350 0.04145 0.23600
C 	C 	0.05550 0.36040 0.04588 -0.27200
H 	H 	0.05160 0.33300 0.03343 0.14500
C 	C 	0.03320 0.33640 0.06852 0.17100
H 	H 	0.01430 0.29320 0.07123 -0.02200
C 	C 	0.03870 0.37670 0.08749 -0.22800
C 	C 	0.06480 0.43960 0.08323 0.15500
H 	H 	0.06610 0.46590 0.09563 -0.01500
C 	C 	0.08980 0.46600 0.06043 -0.24500
H 	H 	0.10990 0.50940 0.05783 0.11200
C 	C 	0.01510 0.35070 0.11215 0.47200
In	In	0.62836 0.62836 0.50000 1.97300
O 	O 	0.71550 0.71550 0.50000 -1.04300
In	In	0.37164 -0.00000 0.83333 1.97100
O 	O 	0.28450 -0.00000 0.83333 -1.04700
In	In	0.00000 0.37164 0.16667 1.97100
O 	O 	-0.00000 0.28450 0.16667 -1.04700
