data_crystal

_cell_length_a 10.85280
_cell_length_b 12.25160
_cell_length_c 16.90310
_cell_angle_alpha 104.46200
_cell_angle_beta  93.65900
_cell_angle_gamma 101.40400

_symmetry_space_group_name_	'P 1'
_symmetry_space_group_name_H-M	'P 1'

loop_
_symmetry_equiv_pos_as_xyz
  x,y,z

loop_
_atom_site_label
_atom_site_type_symbol
_atom_site_fract_x
_atom_site_fract_y
_atom_site_fract_z
_atom_site_charge
Tb	Tb	0.25423 0.42230 0.22666 1.89300
Tb	Tb	0.29827 0.09871 0.23771 1.88200
Tb	Tb	0.36752 0.77940 0.35847 1.96600
O 	O 	0.36780 0.26080 0.17037 -0.54300
O 	O 	0.39090 0.08760 0.11070 -0.46400
O 	O 	0.65710 0.46160 0.85889 -0.50800
O 	O 	0.61920 0.28120 0.78092 -0.54000
O 	O 	0.29020 0.29952 0.32193 -0.51500
O 	O 	0.45090 0.22370 0.34733 -0.43300
O 	O 	0.44580 0.99890 0.26339 -0.54600
O 	O 	0.54220 0.91660 0.34426 -0.50700
O 	O 	0.05880 0.29950 0.22959 -0.50000
O 	O 	0.10380 0.12470 0.19600 -0.54900
O 	O 	0.20130 0.04920 0.34344 -0.53200
O 	O 	0.28660 0.94110 0.40957 -0.53200
O 	O 	0.15230 0.71730 0.29759 -0.48600
O 	O 	0.10680 0.53900 0.21106 -0.47500
O 	O 	0.51500 0.66810 0.35369 -0.53500
O 	O 	0.47000 0.48790 0.27347 -0.50100
O 	O 	0.26560 0.70050 0.45537 -0.49000
O 	O 	0.23480 0.53960 0.35435 -0.53400
C 	C 	0.46540 0.23390 0.04530 -0.08300
C 	C 	0.51090 0.35170 0.05540 -0.04600
H 	H 	0.50530 0.40480 0.10430 0.04600
C 	C 	0.56450 0.38900 0.99200 0.01900
H 	H 	0.59730 0.46740 0.99940 0.02800
C 	C 	0.57010 0.31160 0.91770 -0.15000
C 	C 	0.52730 0.19330 0.90880 0.02400
H 	H 	0.53220 0.14010 0.85970 0.02400
C 	C 	0.47780 0.15570 0.97280 -0.05000
H 	H 	0.45240 0.07690 0.96740 0.06100
C 	C 	0.40570 0.19170 0.11270 0.36400
C 	C 	0.61960 0.35450 0.84670 0.48800
C 	C 	0.36980 0.45590 0.48770 -0.01300
H 	H 	0.28300 0.42520 0.47940 0.04000
C 	C 	0.44850 0.40430 0.43490 -0.09000
C 	C 	0.57950 0.44780 0.44800 -0.01400
H 	H 	0.63200 0.41220 0.41370 0.04700
C 	C 	0.39330 0.30490 0.36450 0.36000
C 	C 	0.90530 0.13970 0.24190 -0.11400
C 	C 	0.80450 0.19280 0.23930 -0.02400
H 	H 	0.81590 0.26310 0.22610 0.04300
C 	C 	0.68710 0.14260 0.25600 0.01800
H 	H 	0.61890 0.17700 0.25120 0.02000
C 	C 	0.67060 0.04030 0.28010 -0.13400
C 	C 	0.77330 0.99060 0.28630 0.00000
H 	H 	0.76450 0.92460 0.30500 0.03800
C 	C 	0.88830 0.03750 0.26540 -0.01100
H 	H 	0.95510 0.00060 0.26690 0.03000
C 	C 	0.03200 0.19190 0.22130 0.44500
C 	C 	0.54370 0.98280 0.29800 0.48200
C 	C 	0.20380 0.99620 0.39830 0.48300
C 	C 	0.09950 0.99970 0.45250 -0.13100
C 	C 	0.02620 0.08030 0.45540 -0.00600
H 	H 	0.04460 0.13510 0.42600 0.04000
C 	C 	0.07480 0.91980 0.49820 -0.00300
H 	H 	0.12550 0.86670 0.49770 0.03700
C 	C 	0.20720 0.59740 0.42130 0.42300
C 	C 	0.10020 0.54610 0.46220 -0.10800
C 	C 	0.07850 0.60590 0.53880 -0.01400
H 	H 	0.13120 0.67730 0.56510 0.04900
C 	C 	0.02070 0.43930 0.42290 -0.00800
H 	H 	0.03440 0.39850 0.37110 0.03900
C 	C 	0.93850 0.61260 0.27250 -0.10200
C 	C 	0.89720 0.70360 0.32200 -0.02300
H 	H 	0.95480 0.77290 0.34660 0.04300
C 	C 	0.77150 0.69230 0.33510 0.00400
H 	H 	0.74550 0.75390 0.36890 0.03700
C 	C 	0.68360 0.59010 0.29850 -0.12800
C 	C 	0.72530 0.49840 0.25000 0.00300
H 	H 	0.66800 0.42850 0.22640 0.03600
C 	C 	0.85090 0.50940 0.23620 -0.02200
H 	H 	0.87690 0.44770 0.20250 0.04300
C 	C 	0.07610 0.62380 0.25930 0.42600
C 	C 	0.54540 0.58140 0.31010 0.48000
Tb	Tb	0.74577 0.57770 0.77334 1.89400
Tb	Tb	0.70173 0.90129 0.76229 1.88300
Tb	Tb	0.63248 0.22060 0.64153 1.96700
O 	O 	0.63220 0.73920 0.82963 -0.54200
O 	O 	0.60910 0.91240 0.88930 -0.46300
O 	O 	0.34290 0.53840 0.14111 -0.50700
O 	O 	0.38080 0.71880 0.21908 -0.54000
O 	O 	0.70980 0.70048 0.67807 -0.51500
O 	O 	0.54910 0.77630 0.65267 -0.43300
O 	O 	0.55420 0.00110 0.73661 -0.54600
O 	O 	0.45780 0.08340 0.65574 -0.50700
O 	O 	0.94120 0.70050 0.77041 -0.50000
O 	O 	0.89620 0.87530 0.80400 -0.54900
O 	O 	0.79870 0.95080 0.65656 -0.53200
O 	O 	0.71340 0.05890 0.59043 -0.53200
O 	O 	0.84770 0.28270 0.70241 -0.48600
O 	O 	0.89320 0.46100 0.78894 -0.47500
O 	O 	0.48500 0.33190 0.64631 -0.53500
O 	O 	0.53000 0.51210 0.72653 -0.50100
O 	O 	0.73440 0.29950 0.54463 -0.49000
O 	O 	0.76520 0.46040 0.64565 -0.53400
C 	C 	0.53460 0.76610 0.95470 -0.08300
C 	C 	0.48910 0.64830 0.94460 -0.04600
H 	H 	0.49470 0.59520 0.89570 0.04600
C 	C 	0.43550 0.61100 0.00800 0.01900
H 	H 	0.40270 0.53260 0.00060 0.02800
C 	C 	0.42990 0.68840 0.08230 -0.15000
C 	C 	0.47270 0.80670 0.09120 0.02400
H 	H 	0.46780 0.85990 0.14030 0.02400
C 	C 	0.52220 0.84430 0.02720 -0.05000
H 	H 	0.54760 0.92310 0.03260 0.06100
C 	C 	0.59430 0.80830 0.88730 0.36400
C 	C 	0.38040 0.64550 0.15330 0.48800
C 	C 	0.63020 0.54410 0.51230 -0.01300
H 	H 	0.71700 0.57480 0.52060 0.04000
C 	C 	0.55150 0.59570 0.56510 -0.09000
C 	C 	0.42050 0.55220 0.55200 -0.01400
H 	H 	0.36800 0.58780 0.58630 0.04700
C 	C 	0.60670 0.69510 0.63550 0.36000
C 	C 	0.09470 0.86030 0.75810 -0.11400
C 	C 	0.19550 0.80720 0.76070 -0.02400
H 	H 	0.18410 0.73690 0.77390 0.04300
C 	C 	0.31290 0.85740 0.74400 0.01800
H 	H 	0.38110 0.82300 0.74880 0.02000
C 	C 	0.32940 0.95970 0.71990 -0.13400
C 	C 	0.22670 0.00940 0.71370 0.00000
H 	H 	0.23550 0.07540 0.69500 0.03800
C 	C 	0.11170 0.96250 0.73460 -0.01100
H 	H 	0.04490 0.99940 0.73310 0.03000
C 	C 	0.96800 0.80810 0.77870 0.44500
C 	C 	0.45630 0.01720 0.70200 0.48200
C 	C 	0.79620 0.00380 0.60170 0.48300
C 	C 	0.90050 0.00030 0.54750 -0.13100
C 	C 	0.97380 0.91970 0.54460 -0.00600
H 	H 	0.95540 0.86490 0.57400 0.04000
C 	C 	0.92520 0.08020 0.50180 -0.00300
H 	H 	0.87450 0.13330 0.50230 0.03700
C 	C 	0.79280 0.40260 0.57870 0.42300
C 	C 	0.89980 0.45390 0.53780 -0.10800
C 	C 	0.92150 0.39410 0.46120 -0.01400
H 	H 	0.86880 0.32270 0.43490 0.04900
C 	C 	0.97930 0.56070 0.57710 -0.00800
H 	H 	0.96560 0.60150 0.62890 0.03900
C 	C 	0.06150 0.38740 0.72750 -0.10200
C 	C 	0.10280 0.29640 0.67800 -0.02300
H 	H 	0.04520 0.22710 0.65340 0.04300
C 	C 	0.22850 0.30770 0.66490 0.00400
H 	H 	0.25450 0.24610 0.63110 0.03700
C 	C 	0.31640 0.40990 0.70150 -0.12800
C 	C 	0.27470 0.50160 0.75000 0.00300
H 	H 	0.33200 0.57150 0.77360 0.03600
C 	C 	0.14910 0.49060 0.76380 -0.02200
H 	H 	0.12310 0.55230 0.79750 0.04300
C 	C 	0.92390 0.37620 0.74070 0.42600
C 	C 	0.45460 0.41860 0.68990 0.48000
