data_crystal

_cell_length_a 23.43450
_cell_length_b 23.43450
_cell_length_c 23.43450
_cell_angle_alpha 90.00000
_cell_angle_beta  90.00000
_cell_angle_gamma 90.00000

_symmetry_space_group_name_	'P 1'
_symmetry_space_group_name_H-M	'P 1'

loop_
_symmetry_equiv_pos_as_xyz
  x,y,z

loop_
_atom_site_label
_atom_site_type_symbol
_atom_site_fract_x
_atom_site_fract_y
_atom_site_fract_z
_atom_site_charge
N 	N 	0.36390 0.43180 0.14720 -0.32300
C 	C 	0.21060 0.55530 0.16660 -0.05700
C 	C 	0.34920 0.40190 0.19670 -0.04200
N 	N 	0.86390 0.93180 0.64720 -0.30000
C 	C 	0.71060 0.05530 0.66660 -0.06800
C 	C 	0.84920 0.90190 0.69670 -0.00200
N 	N 	0.63610 0.56820 0.14720 -0.32300
C 	C 	0.78940 0.44470 0.16660 -0.05600
C 	C 	0.65080 0.59810 0.19670 -0.04100
N 	N 	0.13610 0.06820 0.64720 -0.32900
C 	C 	0.28940 0.94470 0.66660 0.00700
C 	C 	0.15080 0.09810 0.69670 -0.05600
N 	N 	0.63610 0.43180 0.85280 -0.32200
C 	C 	0.78940 0.55530 0.83340 -0.04300
C 	C 	0.65080 0.40190 0.80330 -0.04200
N 	N 	0.13610 0.93180 0.35280 -0.30000
C 	C 	0.28940 0.05530 0.33340 -0.07000
C 	C 	0.15080 0.90190 0.30330 -0.02400
N 	N 	0.36390 0.56820 0.85280 -0.32200
C 	C 	0.21060 0.44470 0.83340 -0.04500
C 	C 	0.34920 0.59810 0.80330 -0.04200
N 	N 	0.86390 0.06820 0.35280 -0.32900
C 	C 	0.71060 0.94470 0.33340 0.00700
C 	C 	0.84920 0.09810 0.30330 -0.05200
N 	N 	0.14720 0.36390 0.43180 -0.32400
C 	C 	0.16660 0.21060 0.55530 -0.05800
C 	C 	0.19670 0.34920 0.40190 -0.04300
N 	N 	0.64720 0.86390 0.93180 -0.30100
C 	C 	0.66660 0.71060 0.05530 -0.06900
C 	C 	0.69670 0.84920 0.90190 -0.00300
N 	N 	0.14720 0.63610 0.56820 -0.32400
C 	C 	0.16660 0.78940 0.44470 -0.05700
C 	C 	0.19670 0.65080 0.59810 -0.04200
N 	N 	0.64720 0.13610 0.06820 -0.32900
C 	C 	0.66660 0.28940 0.94470 0.00700
C 	C 	0.69670 0.15080 0.09810 -0.05600
N 	N 	0.85280 0.63610 0.43180 -0.32200
C 	C 	0.83340 0.78940 0.55530 -0.04300
C 	C 	0.80330 0.65080 0.40190 -0.04200
N 	N 	0.35280 0.13610 0.93180 -0.30000
C 	C 	0.33340 0.28940 0.05530 -0.07000
C 	C 	0.30330 0.15080 0.90190 -0.02400
N 	N 	0.85280 0.36390 0.56820 -0.32200
C 	C 	0.83340 0.21060 0.44470 -0.04500
C 	C 	0.80330 0.34920 0.59810 -0.04200
N 	N 	0.35280 0.86390 0.06820 -0.32900
C 	C 	0.33340 0.71060 0.94470 0.00700
C 	C 	0.30330 0.84920 0.09810 -0.05200
N 	N 	0.43180 0.14720 0.36390 -0.32400
C 	C 	0.55530 0.16660 0.21060 -0.05800
C 	C 	0.40190 0.19670 0.34920 -0.04300
N 	N 	0.93180 0.64720 0.86390 -0.30100
C 	C 	0.05530 0.66660 0.71060 -0.06900
C 	C 	0.90190 0.69670 0.84920 -0.00300
N 	N 	0.56820 0.14720 0.63610 -0.32400
C 	C 	0.44470 0.16660 0.78940 -0.05700
C 	C 	0.59810 0.19670 0.65080 -0.04200
N 	N 	0.06820 0.64720 0.13610 -0.32900
C 	C 	0.94470 0.66660 0.28940 0.00700
C 	C 	0.09810 0.69670 0.15080 -0.05600
N 	N 	0.43180 0.85280 0.63610 -0.32200
C 	C 	0.55530 0.83340 0.78940 -0.04300
C 	C 	0.40190 0.80330 0.65080 -0.04200
N 	N 	0.93180 0.35280 0.13610 -0.30000
C 	C 	0.05530 0.33340 0.28940 -0.07000
C 	C 	0.90190 0.30330 0.15080 -0.02400
N 	N 	0.56820 0.85280 0.36390 -0.32200
C 	C 	0.44470 0.83340 0.21060 -0.04500
C 	C 	0.59810 0.80330 0.34920 -0.04200
N 	N 	0.06820 0.35280 0.86390 -0.32900
C 	C 	0.94470 0.33340 0.71060 0.00700
C 	C 	0.09810 0.30330 0.84920 -0.05200
N 	N 	0.43180 0.36390 0.85280 -0.32200
C 	C 	0.55530 0.21060 0.83340 -0.04500
C 	C 	0.40190 0.34920 0.80330 -0.04200
N 	N 	0.93180 0.86390 0.35280 -0.30000
C 	C 	0.05530 0.71060 0.33340 -0.06900
C 	C 	0.90190 0.84920 0.30330 -0.01100
N 	N 	0.56820 0.63610 0.85280 -0.32200
C 	C 	0.44470 0.78940 0.83340 -0.04300
C 	C 	0.59810 0.65080 0.80330 -0.04200
N 	N 	0.06820 0.13610 0.35280 -0.32900
C 	C 	0.94470 0.28940 0.33340 0.00600
C 	C 	0.09810 0.15080 0.30330 -0.06400
N 	N 	0.43180 0.63610 0.14720 -0.32400
C 	C 	0.55530 0.78940 0.16660 -0.05700
C 	C 	0.40190 0.65080 0.19670 -0.04300
N 	N 	0.93180 0.13610 0.64720 -0.30100
C 	C 	0.05530 0.28940 0.66660 -0.07000
C 	C 	0.90190 0.15080 0.69670 -0.01600
N 	N 	0.56820 0.36390 0.14720 -0.32400
C 	C 	0.44470 0.21060 0.16660 -0.05800
C 	C 	0.59810 0.34920 0.19670 -0.04200
N 	N 	0.06820 0.86390 0.64720 -0.32900
C 	C 	0.94470 0.71060 0.66660 0.00700
C 	C 	0.09810 0.84920 0.69670 -0.04400
N 	N 	0.36390 0.14720 0.56820 -0.32400
C 	C 	0.21060 0.16660 0.44470 -0.05800
C 	C 	0.34920 0.19670 0.59810 -0.04200
N 	N 	0.86390 0.64720 0.06820 -0.32900
C 	C 	0.71060 0.66660 0.94470 0.00700
C 	C 	0.84920 0.69670 0.09810 -0.04400
N 	N 	0.63610 0.14720 0.43180 -0.32400
C 	C 	0.78940 0.16660 0.55530 -0.05700
C 	C 	0.65080 0.19670 0.40190 -0.04300
N 	N 	0.13610 0.64720 0.93180 -0.30100
C 	C 	0.28940 0.66660 0.05530 -0.07000
C 	C 	0.15080 0.69670 0.90190 -0.01600
N 	N 	0.63610 0.85280 0.56820 -0.32200
C 	C 	0.78940 0.83340 0.44470 -0.04300
C 	C 	0.65080 0.80330 0.59810 -0.04200
N 	N 	0.13610 0.35280 0.06820 -0.32900
C 	C 	0.28940 0.33340 0.94470 0.00600
C 	C 	0.15080 0.30330 0.09810 -0.06400
N 	N 	0.36390 0.85280 0.43180 -0.32200
C 	C 	0.21060 0.83340 0.55530 -0.04500
C 	C 	0.34920 0.80330 0.40190 -0.04200
N 	N 	0.86390 0.35280 0.93180 -0.30000
C 	C 	0.71060 0.33340 0.05530 -0.06900
C 	C 	0.84920 0.30330 0.90190 -0.01100
N 	N 	0.14720 0.43180 0.63610 -0.32400
C 	C 	0.16660 0.55530 0.78940 -0.05700
C 	C 	0.19670 0.40190 0.65080 -0.04300
N 	N 	0.64720 0.93180 0.13610 -0.30100
C 	C 	0.66660 0.05530 0.28940 -0.07000
C 	C 	0.69670 0.90190 0.15080 -0.01600
N 	N 	0.14720 0.56820 0.36390 -0.32400
C 	C 	0.16660 0.44470 0.21060 -0.05800
C 	C 	0.19670 0.59810 0.34920 -0.04200
N 	N 	0.64720 0.06820 0.86390 -0.32900
C 	C 	0.66660 0.94470 0.71060 0.00700
C 	C 	0.69670 0.09810 0.84920 -0.04400
N 	N 	0.85280 0.43180 0.36390 -0.32200
C 	C 	0.83340 0.55530 0.21060 -0.04500
C 	C 	0.80330 0.40190 0.34920 -0.04200
N 	N 	0.35280 0.93180 0.86390 -0.30000
C 	C 	0.33340 0.05530 0.71060 -0.06900
C 	C 	0.30330 0.90190 0.84920 -0.01100
N 	N 	0.85280 0.56820 0.63610 -0.32200
C 	C 	0.83340 0.44470 0.78940 -0.04300
C 	C 	0.80330 0.59810 0.65080 -0.04200
N 	N 	0.35280 0.06820 0.13610 -0.32900
C 	C 	0.33340 0.94470 0.28940 0.00600
C 	C 	0.30330 0.09810 0.15080 -0.06400
N 	N 	0.63610 0.56820 0.85280 -0.32200
C 	C 	0.78940 0.44470 0.83340 -0.04300
C 	C 	0.65080 0.59810 0.80330 -0.04200
N 	N 	0.13610 0.06820 0.35280 -0.32900
C 	C 	0.28940 0.94470 0.33340 0.00600
C 	C 	0.15080 0.09810 0.30330 -0.06400
N 	N 	0.36390 0.43180 0.85280 -0.32200
C 	C 	0.21060 0.55530 0.83340 -0.04500
C 	C 	0.34920 0.40190 0.80330 -0.04200
N 	N 	0.86390 0.93180 0.35280 -0.30000
C 	C 	0.71060 0.05530 0.33340 -0.06900
C 	C 	0.84920 0.90190 0.30330 -0.01100
N 	N 	0.36390 0.56820 0.14720 -0.32400
C 	C 	0.21060 0.44470 0.16660 -0.05800
C 	C 	0.34920 0.59810 0.19670 -0.04200
N 	N 	0.86390 0.06820 0.64720 -0.32900
C 	C 	0.71060 0.94470 0.66660 0.00700
C 	C 	0.84920 0.09810 0.69670 -0.04400
N 	N 	0.63610 0.43180 0.14720 -0.32400
C 	C 	0.78940 0.55530 0.16660 -0.05700
C 	C 	0.65080 0.40190 0.19670 -0.04300
N 	N 	0.13610 0.93180 0.64720 -0.30100
C 	C 	0.28940 0.05530 0.66660 -0.07000
C 	C 	0.15080 0.90190 0.69670 -0.01600
N 	N 	0.85280 0.63610 0.56820 -0.32200
C 	C 	0.83340 0.78940 0.44470 -0.04300
C 	C 	0.80330 0.65080 0.59810 -0.04200
N 	N 	0.35280 0.13610 0.06820 -0.32900
C 	C 	0.33340 0.28940 0.94470 0.00600
C 	C 	0.30330 0.15080 0.09810 -0.06400
N 	N 	0.85280 0.36390 0.43180 -0.32200
C 	C 	0.83340 0.21060 0.55530 -0.04500
C 	C 	0.80330 0.34920 0.40190 -0.04200
N 	N 	0.35280 0.86390 0.93180 -0.30000
C 	C 	0.33340 0.71060 0.05530 -0.06900
C 	C 	0.30330 0.84920 0.90190 -0.01100
N 	N 	0.14720 0.36390 0.56820 -0.32400
C 	C 	0.16660 0.21060 0.44470 -0.05800
C 	C 	0.19670 0.34920 0.59810 -0.04200
N 	N 	0.64720 0.86390 0.06820 -0.32900
C 	C 	0.66660 0.71060 0.94470 0.00700
C 	C 	0.69670 0.84920 0.09810 -0.04400
N 	N 	0.14720 0.63610 0.43180 -0.32400
C 	C 	0.16660 0.78940 0.55530 -0.05700
C 	C 	0.19670 0.65080 0.40190 -0.04300
N 	N 	0.64720 0.13610 0.93180 -0.30100
C 	C 	0.66660 0.28940 0.05530 -0.07000
C 	C 	0.69670 0.15080 0.90190 -0.01600
N 	N 	0.56820 0.85280 0.63610 -0.32200
C 	C 	0.44470 0.83340 0.78940 -0.04300
C 	C 	0.59810 0.80330 0.65080 -0.04200
N 	N 	0.06820 0.35280 0.13610 -0.32900
C 	C 	0.94470 0.33340 0.28940 0.00600
C 	C 	0.09810 0.30330 0.15080 -0.06400
N 	N 	0.43180 0.85280 0.36390 -0.32200
C 	C 	0.55530 0.83340 0.21060 -0.04500
C 	C 	0.40190 0.80330 0.34920 -0.04200
N 	N 	0.93180 0.35280 0.86390 -0.30000
C 	C 	0.05530 0.33340 0.71060 -0.06900
C 	C 	0.90190 0.30330 0.84920 -0.01100
N 	N 	0.56820 0.14720 0.36390 -0.32400
C 	C 	0.44470 0.16660 0.21060 -0.05800
C 	C 	0.59810 0.19670 0.34920 -0.04200
N 	N 	0.06820 0.64720 0.86390 -0.32900
C 	C 	0.94470 0.66660 0.71060 0.00700
C 	C 	0.09810 0.69670 0.84920 -0.04400
N 	N 	0.43180 0.14720 0.63610 -0.32400
C 	C 	0.55530 0.16660 0.78940 -0.05700
C 	C 	0.40190 0.19670 0.65080 -0.04300
N 	N 	0.93180 0.64720 0.13610 -0.30100
C 	C 	0.05530 0.66660 0.28940 -0.07000
C 	C 	0.90190 0.69670 0.15080 -0.01600
N 	N 	0.56820 0.63610 0.14720 -0.32400
C 	C 	0.44470 0.78940 0.16660 -0.05700
C 	C 	0.59810 0.65080 0.19670 -0.04200
N 	N 	0.06820 0.13610 0.64720 -0.32900
C 	C 	0.94470 0.28940 0.66660 0.00700
C 	C 	0.09810 0.15080 0.69670 -0.05600
N 	N 	0.43180 0.36390 0.14720 -0.32400
C 	C 	0.55530 0.21060 0.16660 -0.05800
C 	C 	0.40190 0.34920 0.19670 -0.04300
N 	N 	0.93180 0.86390 0.64720 -0.30100
C 	C 	0.05530 0.71060 0.66660 -0.06900
C 	C 	0.90190 0.84920 0.69670 -0.00300
N 	N 	0.56820 0.36390 0.85280 -0.32200
C 	C 	0.44470 0.21060 0.83340 -0.04500
C 	C 	0.59810 0.34920 0.80330 -0.04200
N 	N 	0.06820 0.86390 0.35280 -0.32900
C 	C 	0.94470 0.71060 0.33340 0.00700
C 	C 	0.09810 0.84920 0.30330 -0.05200
N 	N 	0.43180 0.63610 0.85280 -0.32200
C 	C 	0.55530 0.78940 0.83340 -0.04300
C 	C 	0.40190 0.65080 0.80330 -0.04200
N 	N 	0.93180 0.13610 0.35280 -0.30000
C 	C 	0.05530 0.28940 0.33340 -0.07000
C 	C 	0.90190 0.15080 0.30330 -0.02400
N 	N 	0.63610 0.85280 0.43180 -0.32200
C 	C 	0.78940 0.83340 0.55530 -0.04300
C 	C 	0.65080 0.80330 0.40190 -0.04200
N 	N 	0.13610 0.35280 0.93180 -0.30000
C 	C 	0.28940 0.33340 0.05530 -0.07000
C 	C 	0.15080 0.30330 0.90190 -0.02400
N 	N 	0.36390 0.85280 0.56820 -0.32200
C 	C 	0.21060 0.83340 0.44470 -0.04500
C 	C 	0.34920 0.80330 0.59810 -0.04200
N 	N 	0.86390 0.35280 0.06820 -0.32900
C 	C 	0.71060 0.33340 0.94470 0.00700
C 	C 	0.84920 0.30330 0.09810 -0.05200
N 	N 	0.36390 0.14720 0.43180 -0.32400
C 	C 	0.21060 0.16660 0.55530 -0.05800
C 	C 	0.34920 0.19670 0.40190 -0.04300
N 	N 	0.86390 0.64720 0.93180 -0.30100
C 	C 	0.71060 0.66660 0.05530 -0.06900
C 	C 	0.84920 0.69670 0.90190 -0.00300
N 	N 	0.63610 0.14720 0.56820 -0.32400
C 	C 	0.78940 0.16660 0.44470 -0.05700
C 	C 	0.65080 0.19670 0.59810 -0.04200
N 	N 	0.13610 0.64720 0.06820 -0.32900
C 	C 	0.28940 0.66660 0.94470 0.00700
C 	C 	0.15080 0.69670 0.09810 -0.05600
N 	N 	0.85280 0.56820 0.36390 -0.32200
C 	C 	0.83340 0.44470 0.21060 -0.04500
C 	C 	0.80330 0.59810 0.34920 -0.04200
N 	N 	0.35280 0.06820 0.86390 -0.32900
C 	C 	0.33340 0.94470 0.71060 0.00700
C 	C 	0.30330 0.09810 0.84920 -0.05200
N 	N 	0.85280 0.43180 0.63610 -0.32200
C 	C 	0.83340 0.55530 0.78940 -0.04300
C 	C 	0.80330 0.40190 0.65080 -0.04200
N 	N 	0.35280 0.93180 0.13610 -0.30000
C 	C 	0.33340 0.05530 0.28940 -0.07000
C 	C 	0.30330 0.90190 0.15080 -0.02400
N 	N 	0.14720 0.56820 0.63610 -0.32400
C 	C 	0.16660 0.44470 0.78940 -0.05700
C 	C 	0.19670 0.59810 0.65080 -0.04200
N 	N 	0.64720 0.06820 0.13610 -0.32900
C 	C 	0.66660 0.94470 0.28940 0.00700
C 	C 	0.69670 0.09810 0.15080 -0.05600
N 	N 	0.14720 0.43180 0.36390 -0.32400
C 	C 	0.16660 0.55530 0.21060 -0.05800
C 	C 	0.19670 0.40190 0.34920 -0.04300
N 	N 	0.64720 0.93180 0.86390 -0.30100
C 	C 	0.66660 0.05530 0.71060 -0.06900
C 	C 	0.69670 0.90190 0.84920 -0.00300
Mo	Mo	0.25000 0.50000 -0.00000 1.24300
Mo	Mo	0.75000 0.50000 -0.00000 1.24300
Mo	Mo	0.00000 0.25000 0.50000 1.24300
Mo	Mo	-0.00000 0.75000 0.50000 1.24300
Mo	Mo	0.50000 0.25000 -0.00000 1.24300
Mo	Mo	0.50000 -0.00000 0.25000 1.24300
Mo	Mo	0.50000 -0.00000 0.75000 1.24300
Mo	Mo	0.50000 0.75000 -0.00000 1.24300
Mo	Mo	0.25000 -0.00000 0.50000 1.24300
Mo	Mo	0.75000 -0.00000 0.50000 1.24300
Mo	Mo	-0.00000 0.50000 0.75000 1.24300
Mo	Mo	0.00000 0.50000 0.25000 1.24300
Zn	Zn	0.31945 0.50000 0.13771 1.19500
N 	N 	0.24990 0.50000 0.18470 -0.34600
O 	O 	0.29230 0.50000 0.05910 -0.63700
Zn	Zn	0.81945 0.00000 0.63771 1.17900
N 	N 	0.74990 -0.00000 0.68470 -0.37100
O 	O 	0.79230 -0.00000 0.55910 -0.65100
Zn	Zn	0.68055 0.50000 0.13771 1.19500
N 	N 	0.75010 0.50000 0.18470 -0.34500
O 	O 	0.70770 0.50000 0.05910 -0.63600
Zn	Zn	0.18055 0.00000 0.63771 1.17500
N 	N 	0.25010 -0.00000 0.68470 -0.37200
O 	O 	0.20770 -0.00000 0.55910 -0.65900
Zn	Zn	0.68055 0.50000 0.86229 1.19900
N 	N 	0.75010 0.50000 0.81530 -0.34400
O 	O 	0.70770 0.50000 0.94090 -0.56000
Zn	Zn	0.18055 0.00000 0.36229 1.17400
N 	N 	0.25010 -0.00000 0.31530 -0.37100
O 	O 	0.20770 -0.00000 0.44090 -0.65900
Zn	Zn	0.31945 0.50000 0.86229 1.19900
N 	N 	0.24990 0.50000 0.81530 -0.34500
O 	O 	0.29230 0.50000 0.94090 -0.56100
Zn	Zn	0.81945 0.00000 0.36229 1.17900
N 	N 	0.74990 -0.00000 0.31530 -0.37100
O 	O 	0.79230 -0.00000 0.44090 -0.65100
Zn	Zn	0.13771 0.31945 0.50000 1.19500
N 	N 	0.18470 0.24990 0.50000 -0.34600
O 	O 	0.05910 0.29230 0.50000 -0.63700
Zn	Zn	0.63771 0.81945 -0.00000 1.17900
N 	N 	0.68470 0.74990 -0.00000 -0.37100
O 	O 	0.55910 0.79230 -0.00000 -0.65100
Zn	Zn	0.13771 0.68055 0.50000 1.19500
N 	N 	0.18470 0.75010 0.50000 -0.34500
O 	O 	0.05910 0.70770 0.50000 -0.63600
Zn	Zn	0.63771 0.18055 -0.00000 1.17500
N 	N 	0.68470 0.25010 -0.00000 -0.37200
O 	O 	0.55910 0.20770 -0.00000 -0.65900
Zn	Zn	0.86229 0.68055 0.50000 1.19900
N 	N 	0.81530 0.75010 0.50000 -0.34400
O 	O 	0.94090 0.70770 0.50000 -0.56000
Zn	Zn	0.36229 0.18055 -0.00000 1.17400
N 	N 	0.31530 0.25010 -0.00000 -0.37100
O 	O 	0.44090 0.20770 -0.00000 -0.65900
Zn	Zn	0.86229 0.31945 0.50000 1.19900
N 	N 	0.81530 0.24990 0.50000 -0.34500
O 	O 	0.94090 0.29230 0.50000 -0.56100
Zn	Zn	0.36229 0.81945 -0.00000 1.17900
N 	N 	0.31530 0.74990 -0.00000 -0.37100
O 	O 	0.44090 0.79230 -0.00000 -0.65100
Zn	Zn	0.50000 0.13771 0.31945 1.19500
N 	N 	0.50000 0.18470 0.24990 -0.34600
O 	O 	0.50000 0.05910 0.29230 -0.63700
Zn	Zn	-0.00000 0.63771 0.81945 1.17900
N 	N 	0.00000 0.68470 0.74990 -0.37100
O 	O 	0.00000 0.55910 0.79230 -0.65100
Zn	Zn	0.50000 0.13771 0.68055 1.19500
N 	N 	0.50000 0.18470 0.75010 -0.34500
O 	O 	0.50000 0.05910 0.70770 -0.63600
Zn	Zn	-0.00000 0.63771 0.18055 1.17500
N 	N 	-0.00000 0.68470 0.25010 -0.37200
O 	O 	0.00000 0.55910 0.20770 -0.65900
Zn	Zn	0.50000 0.86229 0.68055 1.19900
N 	N 	0.50000 0.81530 0.75010 -0.34400
O 	O 	0.50000 0.94090 0.70770 -0.56000
Zn	Zn	0.00000 0.36229 0.18055 1.17400
N 	N 	0.00000 0.31530 0.25010 -0.37100
O 	O 	0.00000 0.44090 0.20770 -0.65900
Zn	Zn	0.50000 0.86229 0.31945 1.19900
N 	N 	0.50000 0.81530 0.24990 -0.34500
O 	O 	0.50000 0.94090 0.29230 -0.56100
Zn	Zn	0.00000 0.36229 0.81945 1.17900
N 	N 	0.00000 0.31530 0.74990 -0.37100
O 	O 	0.00000 0.44090 0.79230 -0.65100
Zn	Zn	0.50000 0.31945 0.86229 1.19900
N 	N 	0.50000 0.24990 0.81530 -0.34500
O 	O 	0.50000 0.29230 0.94090 -0.56100
Zn	Zn	0.00000 0.81945 0.36229 1.17900
N 	N 	0.00000 0.74990 0.31530 -0.37100
O 	O 	0.00000 0.79230 0.44090 -0.65100
Zn	Zn	0.50000 0.68055 0.86229 1.19900
N 	N 	0.50000 0.75010 0.81530 -0.34400
O 	O 	0.50000 0.70770 0.94090 -0.56000
Zn	Zn	0.00000 0.18055 0.36229 1.17400
N 	N 	0.00000 0.25010 0.31530 -0.37100
O 	O 	0.00000 0.20770 0.44090 -0.65900
Zn	Zn	0.50000 0.68055 0.13771 1.19500
N 	N 	0.50000 0.75010 0.18470 -0.34500
O 	O 	0.50000 0.70770 0.05910 -0.63600
Zn	Zn	-0.00000 0.18055 0.63771 1.17500
N 	N 	-0.00000 0.25010 0.68470 -0.37200
O 	O 	-0.00000 0.20770 0.55910 -0.65900
Zn	Zn	0.50000 0.31945 0.13771 1.19500
N 	N 	0.50000 0.24990 0.18470 -0.34600
O 	O 	0.50000 0.29230 0.05910 -0.63700
Zn	Zn	0.00000 0.81945 0.63771 1.17900
N 	N 	0.00000 0.74990 0.68470 -0.37100
O 	O 	0.00000 0.79230 0.55910 -0.65100
Zn	Zn	0.31945 0.13771 0.50000 1.19500
N 	N 	0.24990 0.18470 0.50000 -0.34600
O 	O 	0.29230 0.05910 0.50000 -0.63700
Zn	Zn	0.81945 0.63771 -0.00000 1.17900
N 	N 	0.74990 0.68470 -0.00000 -0.37100
O 	O 	0.79230 0.55910 -0.00000 -0.65100
Zn	Zn	0.68055 0.13771 0.50000 1.19500
N 	N 	0.75010 0.18470 0.50000 -0.34500
O 	O 	0.70770 0.05910 0.50000 -0.63600
Zn	Zn	0.18055 0.63771 -0.00000 1.17500
N 	N 	0.25010 0.68470 -0.00000 -0.37200
O 	O 	0.20770 0.55910 -0.00000 -0.65900
Zn	Zn	0.68055 0.86229 0.50000 1.19900
N 	N 	0.75010 0.81530 0.50000 -0.34400
O 	O 	0.70770 0.94090 0.50000 -0.56000
Zn	Zn	0.18055 0.36229 -0.00000 1.17400
N 	N 	0.25010 0.31530 -0.00000 -0.37100
O 	O 	0.20770 0.44090 -0.00000 -0.65900
Zn	Zn	0.31945 0.86229 0.50000 1.19900
N 	N 	0.24990 0.81530 0.50000 -0.34500
O 	O 	0.29230 0.94090 0.50000 -0.56100
Zn	Zn	0.81945 0.36229 -0.00000 1.17900
N 	N 	0.74990 0.31530 -0.00000 -0.37100
O 	O 	0.79230 0.44090 -0.00000 -0.65100
Zn	Zn	0.13771 0.50000 0.68055 1.19500
N 	N 	0.18470 0.50000 0.75010 -0.34500
O 	O 	0.05910 0.50000 0.70770 -0.63600
Zn	Zn	0.63771 0.00000 0.18055 1.17500
N 	N 	0.68470 -0.00000 0.25010 -0.37200
O 	O 	0.55910 0.00000 0.20770 -0.65900
Zn	Zn	0.13771 0.50000 0.31945 1.19500
N 	N 	0.18470 0.50000 0.24990 -0.34600
O 	O 	0.05910 0.50000 0.29230 -0.63700
Zn	Zn	0.63771 -0.00000 0.81945 1.17900
N 	N 	0.68470 0.00000 0.74990 -0.37100
O 	O 	0.55910 0.00000 0.79230 -0.65100
Zn	Zn	0.86229 0.50000 0.31945 1.19900
N 	N 	0.81530 0.50000 0.24990 -0.34500
O 	O 	0.94090 0.50000 0.29230 -0.56100
Zn	Zn	0.36229 -0.00000 0.81945 1.17900
N 	N 	0.31530 0.00000 0.74990 -0.37100
O 	O 	0.44090 0.00000 0.79230 -0.65100
Zn	Zn	0.86229 0.50000 0.68055 1.19900
N 	N 	0.81530 0.50000 0.75010 -0.34400
O 	O 	0.94090 0.50000 0.70770 -0.56000
Zn	Zn	0.36229 0.00000 0.18055 1.17400
N 	N 	0.31530 -0.00000 0.25010 -0.37100
O 	O 	0.44090 0.00000 0.20770 -0.65900
C 	C 	0.22560 0.50000 0.22560 0.28100
C 	C 	0.72560 -0.00000 0.72560 0.23600
C 	C 	0.77440 0.50000 0.22560 0.27900
C 	C 	0.27440 -0.00000 0.72560 0.23000
C 	C 	0.77440 0.50000 0.77440 0.27600
C 	C 	0.27440 -0.00000 0.27440 0.22300
C 	C 	0.22560 0.50000 0.77440 0.27900
C 	C 	0.72560 -0.00000 0.27440 0.23000
C 	C 	0.22560 0.22560 0.50000 0.28100
C 	C 	0.72560 0.72560 -0.00000 0.23600
C 	C 	0.22560 0.77440 0.50000 0.27900
C 	C 	0.72560 0.27440 -0.00000 0.23000
C 	C 	0.77440 0.77440 0.50000 0.27600
C 	C 	0.27440 0.27440 -0.00000 0.22300
C 	C 	0.77440 0.22560 0.50000 0.27900
C 	C 	0.27440 0.72560 -0.00000 0.23000
C 	C 	0.50000 0.22560 0.22560 0.28100
C 	C 	0.00000 0.72560 0.72560 0.23600
C 	C 	0.50000 0.22560 0.77440 0.27900
C 	C 	0.00000 0.72560 0.27440 0.23000
C 	C 	0.50000 0.77440 0.77440 0.27600
C 	C 	0.00000 0.27440 0.27440 0.22300
C 	C 	0.50000 0.77440 0.22560 0.27900
C 	C 	0.00000 0.27440 0.72560 0.23000
C 	C 	0.40570 0.40570 0.13440 0.13800
C 	C 	0.90570 0.90570 0.63440 0.20300
C 	C 	0.59430 0.59430 0.13440 0.13700
C 	C 	0.09430 0.09430 0.63440 0.11800
C 	C 	0.59430 0.40570 0.86560 0.16700
C 	C 	0.09430 0.90570 0.36560 0.15900
C 	C 	0.40570 0.59430 0.86560 0.16700
C 	C 	0.90570 0.09430 0.36560 0.15900
C 	C 	0.13440 0.40570 0.40570 0.13800
C 	C 	0.63440 0.90570 0.90570 0.20300
C 	C 	0.13440 0.59430 0.59430 0.13700
C 	C 	0.63440 0.09430 0.09430 0.11800
C 	C 	0.86560 0.59430 0.40570 0.16700
C 	C 	0.36560 0.09430 0.90570 0.15900
C 	C 	0.86560 0.40570 0.59430 0.16700
C 	C 	0.36560 0.90570 0.09430 0.15900
C 	C 	0.40570 0.13440 0.40570 0.13800
C 	C 	0.90570 0.63440 0.90570 0.20300
C 	C 	0.59430 0.13440 0.59430 0.13700
C 	C 	0.09430 0.63440 0.09430 0.11800
C 	C 	0.40570 0.86560 0.59430 0.16700
C 	C 	0.90570 0.36560 0.09430 0.15900
C 	C 	0.59430 0.86560 0.40570 0.16700
C 	C 	0.09430 0.36560 0.90570 0.15900
C 	C 	0.40570 0.40570 0.86560 0.16700
C 	C 	0.90570 0.90570 0.36560 0.20100
C 	C 	0.59430 0.59430 0.86560 0.16700
C 	C 	0.09430 0.09430 0.36560 0.11600
C 	C 	0.40570 0.59430 0.13440 0.13700
C 	C 	0.90570 0.09430 0.63440 0.16000
C 	C 	0.59430 0.40570 0.13440 0.13700
C 	C 	0.09430 0.90570 0.63440 0.16000
C 	C 	0.40570 0.13440 0.59430 0.13700
C 	C 	0.90570 0.63440 0.09430 0.16000
C 	C 	0.59430 0.13440 0.40570 0.13700
C 	C 	0.09430 0.63440 0.90570 0.16000
C 	C 	0.59430 0.86560 0.59430 0.16700
C 	C 	0.09430 0.36560 0.09430 0.11600
C 	C 	0.40570 0.86560 0.40570 0.16700
C 	C 	0.90570 0.36560 0.90570 0.20100
C 	C 	0.13440 0.40570 0.59430 0.13700
C 	C 	0.63440 0.90570 0.09430 0.16000
C 	C 	0.13440 0.59430 0.40570 0.13700
C 	C 	0.63440 0.09430 0.90570 0.16000
C 	C 	0.86560 0.40570 0.40570 0.16700
C 	C 	0.36560 0.90570 0.90570 0.20100
C 	C 	0.86560 0.59430 0.59430 0.16700
C 	C 	0.36560 0.09430 0.09430 0.11600
