data_crystal

_cell_length_a 23.57500
_cell_length_b 23.57500
_cell_length_c 23.57500
_cell_angle_alpha 90.00000
_cell_angle_beta  90.00000
_cell_angle_gamma 90.00000

_symmetry_space_group_name_	'P 1'
_symmetry_space_group_name_H-M	'P 1'

loop_
_symmetry_equiv_pos_as_xyz
  x,y,z

loop_
_atom_site_label
_atom_site_type_symbol
_atom_site_fract_x
_atom_site_fract_y
_atom_site_fract_z
_atom_site_charge
N 	N 	0.36320 0.43070 0.14780 -0.31100
C 	C 	0.20980 0.55420 0.16880 -0.04300
C 	C 	0.35240 0.39790 0.20160 -0.04300
N 	N 	0.86320 0.93070 0.64780 -0.28800
C 	C 	0.70980 0.05420 0.66880 -0.05400
C 	C 	0.85240 0.89790 0.70160 -0.00700
N 	N 	0.63680 0.56930 0.14780 -0.31100
C 	C 	0.79020 0.44580 0.16880 -0.04200
C 	C 	0.64760 0.60210 0.20160 -0.04200
N 	N 	0.13680 0.06930 0.64780 -0.31400
C 	C 	0.29020 0.94580 0.66880 0.01800
C 	C 	0.14760 0.10210 0.70160 -0.05400
N 	N 	0.63680 0.43070 0.85220 -0.30900
C 	C 	0.79020 0.55420 0.83120 -0.02800
C 	C 	0.64760 0.39790 0.79840 -0.04200
N 	N 	0.13680 0.93070 0.35220 -0.28700
C 	C 	0.29020 0.05420 0.33120 -0.05500
C 	C 	0.14760 0.89790 0.29840 -0.02400
N 	N 	0.36320 0.56930 0.85220 -0.30900
C 	C 	0.20980 0.44580 0.83120 -0.03000
C 	C 	0.35240 0.60210 0.79840 -0.04200
N 	N 	0.86320 0.06930 0.35220 -0.31600
C 	C 	0.70980 0.94580 0.33120 0.01800
C 	C 	0.85240 0.10210 0.29840 -0.05300
N 	N 	0.14780 0.36320 0.43070 -0.31200
C 	C 	0.16880 0.20980 0.55420 -0.04400
C 	C 	0.20160 0.35240 0.39790 -0.04400
N 	N 	0.64780 0.86320 0.93070 -0.28900
C 	C 	0.66880 0.70980 0.05420 -0.05500
C 	C 	0.70160 0.85240 0.89790 -0.00800
N 	N 	0.14780 0.63680 0.56930 -0.31200
C 	C 	0.16880 0.79020 0.44580 -0.04300
C 	C 	0.20160 0.64760 0.60210 -0.04300
N 	N 	0.64780 0.13680 0.06930 -0.31500
C 	C 	0.66880 0.29020 0.94580 0.01700
C 	C 	0.70160 0.14760 0.10210 -0.05500
N 	N 	0.85220 0.63680 0.43070 -0.31000
C 	C 	0.83120 0.79020 0.55420 -0.02900
C 	C 	0.79840 0.64760 0.39790 -0.04300
N 	N 	0.35220 0.13680 0.93070 -0.28800
C 	C 	0.33120 0.29020 0.05420 -0.05600
C 	C 	0.29840 0.14760 0.89790 -0.02500
N 	N 	0.85220 0.36320 0.56930 -0.31000
C 	C 	0.83120 0.20980 0.44580 -0.03100
C 	C 	0.79840 0.35240 0.60210 -0.04300
N 	N 	0.35220 0.86320 0.06930 -0.31600
C 	C 	0.33120 0.70980 0.94580 0.01800
C 	C 	0.29840 0.85240 0.10210 -0.05300
N 	N 	0.43070 0.14780 0.36320 -0.31200
C 	C 	0.55420 0.16880 0.20980 -0.04400
C 	C 	0.39790 0.20160 0.35240 -0.04400
N 	N 	0.93070 0.64780 0.86320 -0.28900
C 	C 	0.05420 0.66880 0.70980 -0.05500
C 	C 	0.89790 0.70160 0.85240 -0.00800
N 	N 	0.56930 0.14780 0.63680 -0.31200
C 	C 	0.44580 0.16880 0.79020 -0.04300
C 	C 	0.60210 0.20160 0.64760 -0.04300
N 	N 	0.06930 0.64780 0.13680 -0.31500
C 	C 	0.94580 0.66880 0.29020 0.01700
C 	C 	0.10210 0.70160 0.14760 -0.05500
N 	N 	0.43070 0.85220 0.63680 -0.31000
C 	C 	0.55420 0.83120 0.79020 -0.02900
C 	C 	0.39790 0.79840 0.64760 -0.04300
N 	N 	0.93070 0.35220 0.13680 -0.28800
C 	C 	0.05420 0.33120 0.29020 -0.05600
C 	C 	0.89790 0.29840 0.14760 -0.02500
N 	N 	0.56930 0.85220 0.36320 -0.31000
C 	C 	0.44580 0.83120 0.20980 -0.03100
C 	C 	0.60210 0.79840 0.35240 -0.04300
N 	N 	0.06930 0.35220 0.86320 -0.31600
C 	C 	0.94580 0.33120 0.70980 0.01800
C 	C 	0.10210 0.29840 0.85240 -0.05300
N 	N 	0.43070 0.36320 0.85220 -0.31000
C 	C 	0.55420 0.20980 0.83120 -0.03100
C 	C 	0.39790 0.35240 0.79840 -0.04300
N 	N 	0.93070 0.86320 0.35220 -0.28900
C 	C 	0.05420 0.70980 0.33120 -0.05500
C 	C 	0.89790 0.85240 0.29840 -0.01600
N 	N 	0.56930 0.63680 0.85220 -0.31000
C 	C 	0.44580 0.79020 0.83120 -0.03000
C 	C 	0.60210 0.64760 0.79840 -0.04300
N 	N 	0.06930 0.13680 0.35220 -0.31500
C 	C 	0.94580 0.29020 0.33120 0.01700
C 	C 	0.10210 0.14760 0.29840 -0.06300
N 	N 	0.43070 0.63680 0.14780 -0.31200
C 	C 	0.55420 0.79020 0.16880 -0.04300
C 	C 	0.39790 0.64760 0.20160 -0.04300
N 	N 	0.93070 0.13680 0.64780 -0.28800
C 	C 	0.05420 0.29020 0.66880 -0.05500
C 	C 	0.89790 0.14760 0.70160 -0.01800
N 	N 	0.56930 0.36320 0.14780 -0.31200
C 	C 	0.44580 0.20980 0.16880 -0.04500
C 	C 	0.60210 0.35240 0.20160 -0.04300
N 	N 	0.06930 0.86320 0.64780 -0.31600
C 	C 	0.94580 0.70980 0.66880 0.01800
C 	C 	0.10210 0.85240 0.70160 -0.04600
N 	N 	0.36320 0.14780 0.56930 -0.31200
C 	C 	0.20980 0.16880 0.44580 -0.04500
C 	C 	0.35240 0.20160 0.60210 -0.04300
N 	N 	0.86320 0.64780 0.06930 -0.31600
C 	C 	0.70980 0.66880 0.94580 0.01800
C 	C 	0.85240 0.70160 0.10210 -0.04600
N 	N 	0.63680 0.14780 0.43070 -0.31200
C 	C 	0.79020 0.16880 0.55420 -0.04300
C 	C 	0.64760 0.20160 0.39790 -0.04300
N 	N 	0.13680 0.64780 0.93070 -0.28800
C 	C 	0.29020 0.66880 0.05420 -0.05500
C 	C 	0.14760 0.70160 0.89790 -0.01800
N 	N 	0.63680 0.85220 0.56930 -0.31000
C 	C 	0.79020 0.83120 0.44580 -0.03000
C 	C 	0.64760 0.79840 0.60210 -0.04300
N 	N 	0.13680 0.35220 0.06930 -0.31500
C 	C 	0.29020 0.33120 0.94580 0.01700
C 	C 	0.14760 0.29840 0.10210 -0.06300
N 	N 	0.36320 0.85220 0.43070 -0.31000
C 	C 	0.20980 0.83120 0.55420 -0.03100
C 	C 	0.35240 0.79840 0.39790 -0.04300
N 	N 	0.86320 0.35220 0.93070 -0.28900
C 	C 	0.70980 0.33120 0.05420 -0.05500
C 	C 	0.85240 0.29840 0.89790 -0.01600
N 	N 	0.14780 0.43070 0.63680 -0.31200
C 	C 	0.16880 0.55420 0.79020 -0.04300
C 	C 	0.20160 0.39790 0.64760 -0.04300
N 	N 	0.64780 0.93070 0.13680 -0.28800
C 	C 	0.66880 0.05420 0.29020 -0.05500
C 	C 	0.70160 0.89790 0.14760 -0.01800
N 	N 	0.14780 0.56930 0.36320 -0.31200
C 	C 	0.16880 0.44580 0.20980 -0.04500
C 	C 	0.20160 0.60210 0.35240 -0.04300
N 	N 	0.64780 0.06930 0.86320 -0.31600
C 	C 	0.66880 0.94580 0.70980 0.01800
C 	C 	0.70160 0.10210 0.85240 -0.04600
N 	N 	0.85220 0.43070 0.36320 -0.31000
C 	C 	0.83120 0.55420 0.20980 -0.03100
C 	C 	0.79840 0.39790 0.35240 -0.04300
N 	N 	0.35220 0.93070 0.86320 -0.28900
C 	C 	0.33120 0.05420 0.70980 -0.05500
C 	C 	0.29840 0.89790 0.85240 -0.01600
N 	N 	0.85220 0.56930 0.63680 -0.31000
C 	C 	0.83120 0.44580 0.79020 -0.03000
C 	C 	0.79840 0.60210 0.64760 -0.04300
N 	N 	0.35220 0.06930 0.13680 -0.31500
C 	C 	0.33120 0.94580 0.29020 0.01700
C 	C 	0.29840 0.10210 0.14760 -0.06300
N 	N 	0.63680 0.56930 0.85220 -0.31000
C 	C 	0.79020 0.44580 0.83120 -0.03000
C 	C 	0.64760 0.60210 0.79840 -0.04300
N 	N 	0.13680 0.06930 0.35220 -0.31500
C 	C 	0.29020 0.94580 0.33120 0.01700
C 	C 	0.14760 0.10210 0.29840 -0.06300
N 	N 	0.36320 0.43070 0.85220 -0.31000
C 	C 	0.20980 0.55420 0.83120 -0.03100
C 	C 	0.35240 0.39790 0.79840 -0.04300
N 	N 	0.86320 0.93070 0.35220 -0.28900
C 	C 	0.70980 0.05420 0.33120 -0.05500
C 	C 	0.85240 0.89790 0.29840 -0.01600
N 	N 	0.36320 0.56930 0.14780 -0.31200
C 	C 	0.20980 0.44580 0.16880 -0.04500
C 	C 	0.35240 0.60210 0.20160 -0.04300
N 	N 	0.86320 0.06930 0.64780 -0.31600
C 	C 	0.70980 0.94580 0.66880 0.01800
C 	C 	0.85240 0.10210 0.70160 -0.04600
N 	N 	0.63680 0.43070 0.14780 -0.31200
C 	C 	0.79020 0.55420 0.16880 -0.04300
C 	C 	0.64760 0.39790 0.20160 -0.04300
N 	N 	0.13680 0.93070 0.64780 -0.28800
C 	C 	0.29020 0.05420 0.66880 -0.05500
C 	C 	0.14760 0.89790 0.70160 -0.01800
N 	N 	0.85220 0.63680 0.56930 -0.31000
C 	C 	0.83120 0.79020 0.44580 -0.03000
C 	C 	0.79840 0.64760 0.60210 -0.04300
N 	N 	0.35220 0.13680 0.06930 -0.31500
C 	C 	0.33120 0.29020 0.94580 0.01700
C 	C 	0.29840 0.14760 0.10210 -0.06300
N 	N 	0.85220 0.36320 0.43070 -0.31000
C 	C 	0.83120 0.20980 0.55420 -0.03100
C 	C 	0.79840 0.35240 0.39790 -0.04300
N 	N 	0.35220 0.86320 0.93070 -0.28900
C 	C 	0.33120 0.70980 0.05420 -0.05500
C 	C 	0.29840 0.85240 0.89790 -0.01600
N 	N 	0.14780 0.36320 0.56930 -0.31200
C 	C 	0.16880 0.20980 0.44580 -0.04500
C 	C 	0.20160 0.35240 0.60210 -0.04300
N 	N 	0.64780 0.86320 0.06930 -0.31600
C 	C 	0.66880 0.70980 0.94580 0.01800
C 	C 	0.70160 0.85240 0.10210 -0.04600
N 	N 	0.14780 0.63680 0.43070 -0.31200
C 	C 	0.16880 0.79020 0.55420 -0.04300
C 	C 	0.20160 0.64760 0.39790 -0.04300
N 	N 	0.64780 0.13680 0.93070 -0.28800
C 	C 	0.66880 0.29020 0.05420 -0.05500
C 	C 	0.70160 0.14760 0.89790 -0.01800
N 	N 	0.56930 0.85220 0.63680 -0.31000
C 	C 	0.44580 0.83120 0.79020 -0.03000
C 	C 	0.60210 0.79840 0.64760 -0.04300
N 	N 	0.06930 0.35220 0.13680 -0.31500
C 	C 	0.94580 0.33120 0.29020 0.01700
C 	C 	0.10210 0.29840 0.14760 -0.06300
N 	N 	0.43070 0.85220 0.36320 -0.31000
C 	C 	0.55420 0.83120 0.20980 -0.03100
C 	C 	0.39790 0.79840 0.35240 -0.04300
N 	N 	0.93070 0.35220 0.86320 -0.28900
C 	C 	0.05420 0.33120 0.70980 -0.05500
C 	C 	0.89790 0.29840 0.85240 -0.01600
N 	N 	0.56930 0.14780 0.36320 -0.31200
C 	C 	0.44580 0.16880 0.20980 -0.04500
C 	C 	0.60210 0.20160 0.35240 -0.04300
N 	N 	0.06930 0.64780 0.86320 -0.31600
C 	C 	0.94580 0.66880 0.70980 0.01800
C 	C 	0.10210 0.70160 0.85240 -0.04600
N 	N 	0.43070 0.14780 0.63680 -0.31200
C 	C 	0.55420 0.16880 0.79020 -0.04300
C 	C 	0.39790 0.20160 0.64760 -0.04300
N 	N 	0.93070 0.64780 0.13680 -0.28800
C 	C 	0.05420 0.66880 0.29020 -0.05500
C 	C 	0.89790 0.70160 0.14760 -0.01800
N 	N 	0.56930 0.63680 0.14780 -0.31200
C 	C 	0.44580 0.79020 0.16880 -0.04300
C 	C 	0.60210 0.64760 0.20160 -0.04300
N 	N 	0.06930 0.13680 0.64780 -0.31500
C 	C 	0.94580 0.29020 0.66880 0.01700
C 	C 	0.10210 0.14760 0.70160 -0.05500
N 	N 	0.43070 0.36320 0.14780 -0.31200
C 	C 	0.55420 0.20980 0.16880 -0.04400
C 	C 	0.39790 0.35240 0.20160 -0.04400
N 	N 	0.93070 0.86320 0.64780 -0.28900
C 	C 	0.05420 0.70980 0.66880 -0.05500
C 	C 	0.89790 0.85240 0.70160 -0.00800
N 	N 	0.56930 0.36320 0.85220 -0.31000
C 	C 	0.44580 0.20980 0.83120 -0.03100
C 	C 	0.60210 0.35240 0.79840 -0.04300
N 	N 	0.06930 0.86320 0.35220 -0.31600
C 	C 	0.94580 0.70980 0.33120 0.01800
C 	C 	0.10210 0.85240 0.29840 -0.05300
N 	N 	0.43070 0.63680 0.85220 -0.31000
C 	C 	0.55420 0.79020 0.83120 -0.02900
C 	C 	0.39790 0.64760 0.79840 -0.04300
N 	N 	0.93070 0.13680 0.35220 -0.28800
C 	C 	0.05420 0.29020 0.33120 -0.05600
C 	C 	0.89790 0.14760 0.29840 -0.02500
N 	N 	0.63680 0.85220 0.43070 -0.31000
C 	C 	0.79020 0.83120 0.55420 -0.02900
C 	C 	0.64760 0.79840 0.39790 -0.04300
N 	N 	0.13680 0.35220 0.93070 -0.28800
C 	C 	0.29020 0.33120 0.05420 -0.05600
C 	C 	0.14760 0.29840 0.89790 -0.02500
N 	N 	0.36320 0.85220 0.56930 -0.31000
C 	C 	0.20980 0.83120 0.44580 -0.03100
C 	C 	0.35240 0.79840 0.60210 -0.04300
N 	N 	0.86320 0.35220 0.06930 -0.31600
C 	C 	0.70980 0.33120 0.94580 0.01800
C 	C 	0.85240 0.29840 0.10210 -0.05300
N 	N 	0.36320 0.14780 0.43070 -0.31200
C 	C 	0.20980 0.16880 0.55420 -0.04400
C 	C 	0.35240 0.20160 0.39790 -0.04400
N 	N 	0.86320 0.64780 0.93070 -0.28900
C 	C 	0.70980 0.66880 0.05420 -0.05500
C 	C 	0.85240 0.70160 0.89790 -0.00800
N 	N 	0.63680 0.14780 0.56930 -0.31200
C 	C 	0.79020 0.16880 0.44580 -0.04300
C 	C 	0.64760 0.20160 0.60210 -0.04300
N 	N 	0.13680 0.64780 0.06930 -0.31500
C 	C 	0.29020 0.66880 0.94580 0.01700
C 	C 	0.14760 0.70160 0.10210 -0.05500
N 	N 	0.85220 0.56930 0.36320 -0.31000
C 	C 	0.83120 0.44580 0.20980 -0.03100
C 	C 	0.79840 0.60210 0.35240 -0.04300
N 	N 	0.35220 0.06930 0.86320 -0.31600
C 	C 	0.33120 0.94580 0.70980 0.01800
C 	C 	0.29840 0.10210 0.85240 -0.05300
N 	N 	0.85220 0.43070 0.63680 -0.31000
C 	C 	0.83120 0.55420 0.79020 -0.02900
C 	C 	0.79840 0.39790 0.64760 -0.04300
N 	N 	0.35220 0.93070 0.13680 -0.28800
C 	C 	0.33120 0.05420 0.29020 -0.05600
C 	C 	0.29840 0.89790 0.14760 -0.02500
N 	N 	0.14780 0.56930 0.63680 -0.31200
C 	C 	0.16880 0.44580 0.79020 -0.04300
C 	C 	0.20160 0.60210 0.64760 -0.04300
N 	N 	0.64780 0.06930 0.13680 -0.31500
C 	C 	0.66880 0.94580 0.29020 0.01700
C 	C 	0.70160 0.10210 0.14760 -0.05500
N 	N 	0.14780 0.43070 0.36320 -0.31200
C 	C 	0.16880 0.55420 0.20980 -0.04400
C 	C 	0.20160 0.39790 0.35240 -0.04400
N 	N 	0.64780 0.93070 0.86320 -0.28900
C 	C 	0.66880 0.05420 0.70980 -0.05500
C 	C 	0.70160 0.89790 0.85240 -0.00800
W 	W 	0.25000 0.50000 -0.00000 1.23500
W 	W 	0.75000 0.50000 -0.00000 1.23800
W 	W 	0.00000 0.25000 0.50000 1.23500
W 	W 	0.00000 0.75000 0.50000 1.23800
W 	W 	0.50000 0.25000 -0.00000 1.23500
W 	W 	0.50000 0.00000 0.25000 1.23500
W 	W 	0.50000 0.00000 0.75000 1.23800
W 	W 	0.50000 0.75000 -0.00000 1.23800
W 	W 	0.25000 0.00000 0.50000 1.23500
W 	W 	0.75000 0.00000 0.50000 1.23800
W 	W 	0.00000 0.50000 0.75000 1.23800
W 	W 	0.00000 0.50000 0.25000 1.23500
Zn	Zn	0.31984 0.50000 0.13859 1.19000
N 	N 	0.24930 0.50000 0.18400 -0.31200
O 	O 	0.29300 0.50000 0.05910 -0.63900
Zn	Zn	0.81984 0.00000 0.63859 1.17500
N 	N 	0.74930 0.00000 0.68400 -0.33800
O 	O 	0.79300 -0.00000 0.55910 -0.65200
Zn	Zn	0.68016 0.50000 0.13859 1.19000
N 	N 	0.75070 0.50000 0.18400 -0.31100
O 	O 	0.70700 0.50000 0.05910 -0.63900
Zn	Zn	0.18016 0.00000 0.63859 1.17100
N 	N 	0.25070 0.00000 0.68400 -0.33900
O 	O 	0.20700 -0.00000 0.55910 -0.66000
Zn	Zn	0.68016 0.50000 0.86141 1.19400
N 	N 	0.75070 0.50000 0.81600 -0.31000
O 	O 	0.70700 0.50000 0.94090 -0.56500
Zn	Zn	0.18016 0.00000 0.36141 1.17000
N 	N 	0.25070 0.00000 0.31600 -0.33800
O 	O 	0.20700 0.00000 0.44090 -0.66000
Zn	Zn	0.31984 0.50000 0.86141 1.19400
N 	N 	0.24930 0.50000 0.81600 -0.31100
O 	O 	0.29300 0.50000 0.94090 -0.56500
Zn	Zn	0.81984 0.00000 0.36141 1.17400
N 	N 	0.74930 0.00000 0.31600 -0.33800
O 	O 	0.79300 0.00000 0.44090 -0.65200
Zn	Zn	0.13859 0.31984 0.50000 1.19000
N 	N 	0.18400 0.24930 0.50000 -0.31200
O 	O 	0.05910 0.29300 0.50000 -0.63900
Zn	Zn	0.63859 0.81984 -0.00000 1.17500
N 	N 	0.68400 0.74930 -0.00000 -0.33800
O 	O 	0.55910 0.79300 -0.00000 -0.65200
Zn	Zn	0.13859 0.68016 0.50000 1.19000
N 	N 	0.18400 0.75070 0.50000 -0.31100
O 	O 	0.05910 0.70700 0.50000 -0.63900
Zn	Zn	0.63859 0.18016 -0.00000 1.17100
N 	N 	0.68400 0.25070 -0.00000 -0.33900
O 	O 	0.55910 0.20700 -0.00000 -0.66000
Zn	Zn	0.86141 0.68016 0.50000 1.19400
N 	N 	0.81600 0.75070 0.50000 -0.31000
O 	O 	0.94090 0.70700 0.50000 -0.56500
Zn	Zn	0.36141 0.18016 -0.00000 1.17000
N 	N 	0.31600 0.25070 -0.00000 -0.33800
O 	O 	0.44090 0.20700 -0.00000 -0.66000
Zn	Zn	0.86141 0.31984 0.50000 1.19400
N 	N 	0.81600 0.24930 0.50000 -0.31100
O 	O 	0.94090 0.29300 0.50000 -0.56500
Zn	Zn	0.36141 0.81984 -0.00000 1.17400
N 	N 	0.31600 0.74930 -0.00000 -0.33800
O 	O 	0.44090 0.79300 -0.00000 -0.65200
Zn	Zn	0.50000 0.13859 0.31984 1.19000
N 	N 	0.50000 0.18400 0.24930 -0.31200
O 	O 	0.50000 0.05910 0.29300 -0.63900
Zn	Zn	0.00000 0.63859 0.81984 1.17500
N 	N 	0.00000 0.68400 0.74930 -0.33800
O 	O 	-0.00000 0.55910 0.79300 -0.65200
Zn	Zn	0.50000 0.13859 0.68016 1.19000
N 	N 	0.50000 0.18400 0.75070 -0.31100
O 	O 	0.50000 0.05910 0.70700 -0.63900
Zn	Zn	-0.00000 0.63859 0.18016 1.17100
N 	N 	0.00000 0.68400 0.25070 -0.33900
O 	O 	0.00000 0.55910 0.20700 -0.66000
Zn	Zn	0.50000 0.86141 0.68016 1.19400
N 	N 	0.50000 0.81600 0.75070 -0.31000
O 	O 	0.50000 0.94090 0.70700 -0.56500
Zn	Zn	0.00000 0.36141 0.18016 1.17000
N 	N 	-0.00000 0.31600 0.25070 -0.33800
O 	O 	-0.00000 0.44090 0.20700 -0.66000
Zn	Zn	0.50000 0.86141 0.31984 1.19400
N 	N 	0.50000 0.81600 0.24930 -0.31100
O 	O 	0.50000 0.94090 0.29300 -0.56500
Zn	Zn	0.00000 0.36141 0.81984 1.17400
N 	N 	0.00000 0.31600 0.74930 -0.33800
O 	O 	0.00000 0.44090 0.79300 -0.65200
Zn	Zn	0.50000 0.31984 0.86141 1.19400
N 	N 	0.50000 0.24930 0.81600 -0.31100
O 	O 	0.50000 0.29300 0.94090 -0.56500
Zn	Zn	0.00000 0.81984 0.36141 1.17400
N 	N 	0.00000 0.74930 0.31600 -0.33800
O 	O 	0.00000 0.79300 0.44090 -0.65200
Zn	Zn	0.50000 0.68016 0.86141 1.19400
N 	N 	0.50000 0.75070 0.81600 -0.31000
O 	O 	0.50000 0.70700 0.94090 -0.56500
Zn	Zn	0.00000 0.18016 0.36141 1.17000
N 	N 	-0.00000 0.25070 0.31600 -0.33800
O 	O 	-0.00000 0.20700 0.44090 -0.66000
Zn	Zn	0.50000 0.68016 0.13859 1.19000
N 	N 	0.50000 0.75070 0.18400 -0.31100
O 	O 	0.50000 0.70700 0.05910 -0.63900
Zn	Zn	-0.00000 0.18016 0.63859 1.17100
N 	N 	0.00000 0.25070 0.68400 -0.33900
O 	O 	0.00000 0.20700 0.55910 -0.66000
Zn	Zn	0.50000 0.31984 0.13859 1.19000
N 	N 	0.50000 0.24930 0.18400 -0.31200
O 	O 	0.50000 0.29300 0.05910 -0.63900
Zn	Zn	0.00000 0.81984 0.63859 1.17500
N 	N 	0.00000 0.74930 0.68400 -0.33800
O 	O 	-0.00000 0.79300 0.55910 -0.65200
Zn	Zn	0.31984 0.13859 0.50000 1.19000
N 	N 	0.24930 0.18400 0.50000 -0.31200
O 	O 	0.29300 0.05910 0.50000 -0.63900
Zn	Zn	0.81984 0.63859 -0.00000 1.17500
N 	N 	0.74930 0.68400 -0.00000 -0.33800
O 	O 	0.79300 0.55910 -0.00000 -0.65200
Zn	Zn	0.68016 0.13859 0.50000 1.19000
N 	N 	0.75070 0.18400 0.50000 -0.31100
O 	O 	0.70700 0.05910 0.50000 -0.63900
Zn	Zn	0.18016 0.63859 -0.00000 1.17100
N 	N 	0.25070 0.68400 -0.00000 -0.33900
O 	O 	0.20700 0.55910 -0.00000 -0.66000
Zn	Zn	0.68016 0.86141 0.50000 1.19400
N 	N 	0.75070 0.81600 0.50000 -0.31000
O 	O 	0.70700 0.94090 0.50000 -0.56500
Zn	Zn	0.18016 0.36141 -0.00000 1.17000
N 	N 	0.25070 0.31600 -0.00000 -0.33800
O 	O 	0.20700 0.44090 -0.00000 -0.66000
Zn	Zn	0.31984 0.86141 0.50000 1.19400
N 	N 	0.24930 0.81600 0.50000 -0.31100
O 	O 	0.29300 0.94090 0.50000 -0.56500
Zn	Zn	0.81984 0.36141 -0.00000 1.17400
N 	N 	0.74930 0.31600 -0.00000 -0.33800
O 	O 	0.79300 0.44090 -0.00000 -0.65200
Zn	Zn	0.13859 0.50000 0.68016 1.19000
N 	N 	0.18400 0.50000 0.75070 -0.31100
O 	O 	0.05910 0.50000 0.70700 -0.63900
Zn	Zn	0.63859 -0.00000 0.18016 1.17100
N 	N 	0.68400 -0.00000 0.25070 -0.33900
O 	O 	0.55910 -0.00000 0.20700 -0.66000
Zn	Zn	0.13859 0.50000 0.31984 1.19000
N 	N 	0.18400 0.50000 0.24930 -0.31200
O 	O 	0.05910 0.50000 0.29300 -0.63900
Zn	Zn	0.63859 0.00000 0.81984 1.17500
N 	N 	0.68400 0.00000 0.74930 -0.33800
O 	O 	0.55910 0.00000 0.79300 -0.65200
Zn	Zn	0.86141 0.50000 0.31984 1.19400
N 	N 	0.81600 0.50000 0.24930 -0.31100
O 	O 	0.94090 0.50000 0.29300 -0.56500
Zn	Zn	0.36141 0.00000 0.81984 1.17400
N 	N 	0.31600 0.00000 0.74930 -0.33800
O 	O 	0.44090 0.00000 0.79300 -0.65200
Zn	Zn	0.86141 0.50000 0.68016 1.19400
N 	N 	0.81600 0.50000 0.75070 -0.31000
O 	O 	0.94090 0.50000 0.70700 -0.56500
Zn	Zn	0.36141 -0.00000 0.18016 1.17000
N 	N 	0.31600 -0.00000 0.25070 -0.33800
O 	O 	0.44090 -0.00000 0.20700 -0.66000
C 	C 	0.22930 0.50000 0.22930 0.19000
C 	C 	0.72930 0.00000 0.72930 0.15000
C 	C 	0.77070 0.50000 0.22930 0.18800
C 	C 	0.27070 0.00000 0.72930 0.14300
C 	C 	0.77070 0.50000 0.77070 0.18600
C 	C 	0.27070 -0.00000 0.27070 0.13600
C 	C 	0.22930 0.50000 0.77070 0.18800
C 	C 	0.72930 -0.00000 0.27070 0.14300
C 	C 	0.22930 0.22930 0.50000 0.19000
C 	C 	0.72930 0.72930 -0.00000 0.15000
C 	C 	0.22930 0.77070 0.50000 0.18800
C 	C 	0.72930 0.27070 -0.00000 0.14300
C 	C 	0.77070 0.77070 0.50000 0.18600
C 	C 	0.27070 0.27070 -0.00000 0.13600
C 	C 	0.77070 0.22930 0.50000 0.18800
C 	C 	0.27070 0.72930 -0.00000 0.14300
C 	C 	0.50000 0.22930 0.22930 0.19000
C 	C 	0.00000 0.72930 0.72930 0.15000
C 	C 	0.50000 0.22930 0.77070 0.18800
C 	C 	0.00000 0.72930 0.27070 0.14300
C 	C 	0.50000 0.77070 0.77070 0.18600
C 	C 	-0.00000 0.27070 0.27070 0.13600
C 	C 	0.50000 0.77070 0.22930 0.18800
C 	C 	0.00000 0.27070 0.72930 0.14300
C 	C 	0.40910 0.40910 0.13880 0.11000
C 	C 	0.90910 0.90910 0.63880 0.17700
C 	C 	0.59090 0.59090 0.13880 0.11000
C 	C 	0.09090 0.09090 0.63880 0.08600
C 	C 	0.59090 0.40910 0.86120 0.13600
C 	C 	0.09090 0.90910 0.36120 0.12900
C 	C 	0.40910 0.59090 0.86120 0.13600
C 	C 	0.90910 0.09090 0.36120 0.12900
C 	C 	0.13880 0.40910 0.40910 0.11000
C 	C 	0.63880 0.90910 0.90910 0.17700
C 	C 	0.13880 0.59090 0.59090 0.11000
C 	C 	0.63880 0.09090 0.09090 0.08600
C 	C 	0.86120 0.59090 0.40910 0.13600
C 	C 	0.36120 0.09090 0.90910 0.12900
C 	C 	0.86120 0.40910 0.59090 0.13600
C 	C 	0.36120 0.90910 0.09090 0.12900
C 	C 	0.40910 0.13880 0.40910 0.11000
C 	C 	0.90910 0.63880 0.90910 0.17700
C 	C 	0.59090 0.13880 0.59090 0.11000
C 	C 	0.09090 0.63880 0.09090 0.08600
C 	C 	0.40910 0.86120 0.59090 0.13600
C 	C 	0.90910 0.36120 0.09090 0.12900
C 	C 	0.59090 0.86120 0.40910 0.13600
C 	C 	0.09090 0.36120 0.90910 0.12900
C 	C 	0.40910 0.40910 0.86120 0.13600
C 	C 	0.90910 0.90910 0.36120 0.17500
C 	C 	0.59090 0.59090 0.86120 0.13600
C 	C 	0.09090 0.09090 0.36120 0.08300
C 	C 	0.40910 0.59090 0.13880 0.11000
C 	C 	0.90910 0.09090 0.63880 0.13100
C 	C 	0.59090 0.40910 0.13880 0.11000
C 	C 	0.09090 0.90910 0.63880 0.13100
C 	C 	0.40910 0.13880 0.59090 0.11000
C 	C 	0.90910 0.63880 0.09090 0.13100
C 	C 	0.59090 0.13880 0.40910 0.11000
C 	C 	0.09090 0.63880 0.90910 0.13100
C 	C 	0.59090 0.86120 0.59090 0.13600
C 	C 	0.09090 0.36120 0.09090 0.08300
C 	C 	0.40910 0.86120 0.40910 0.13600
C 	C 	0.90910 0.36120 0.90910 0.17500
C 	C 	0.13880 0.40910 0.59090 0.11000
C 	C 	0.63880 0.90910 0.09090 0.13100
C 	C 	0.13880 0.59090 0.40910 0.11000
C 	C 	0.63880 0.09090 0.90910 0.13100
C 	C 	0.86120 0.40910 0.40910 0.13600
C 	C 	0.36120 0.90910 0.90910 0.17500
C 	C 	0.86120 0.59090 0.59090 0.13600
C 	C 	0.36120 0.09090 0.09090 0.08300
