data_crystal

_cell_length_a 11.98690
_cell_length_b 17.71700
_cell_length_c 12.64140
_cell_angle_alpha 90.00000
_cell_angle_beta  103.65000
_cell_angle_gamma 90.00000

_symmetry_space_group_name_	'P 1'
_symmetry_space_group_name_H-M	'P 1'

loop_
_symmetry_equiv_pos_as_xyz
  x,y,z

loop_
_atom_site_label
_atom_site_type_symbol
_atom_site_fract_x
_atom_site_fract_y
_atom_site_fract_z
_atom_site_charge
Cd	Cd	0.76625 0.43524 0.95578 1.20300
O 	O 	0.64350 0.52420 0.73660 -0.30900
O 	O 	0.58910 0.43680 0.84020 -0.40400
O 	O 	0.22500 0.94695 0.51640 -0.39900
O 	O 	0.36720 0.95061 0.43410 -0.39200
N 	N 	0.30580 0.54900 0.56450 -0.10400
N 	N 	0.86350 0.36210 0.85790 -0.25100
N 	N 	0.17490 0.14220 0.55790 -0.24400
C 	C 	0.41650 0.53920 0.61670 0.05800
H 	H 	0.47430 0.55750 0.58580 0.02700
C 	C 	0.44500 0.50260 0.71490 -0.10900
C 	C 	0.35810 0.47950 0.76340 0.03100
H 	H 	0.37600 0.45500 0.83030 0.03800
C 	C 	0.24480 0.49320 0.71180 -0.11500
H 	H 	0.18610 0.48020 0.74500 0.05800
C 	C 	0.22060 0.52610 0.61100 0.04900
H 	H 	0.14450 0.53290 0.57390 0.01100
C 	C 	0.57120 0.48780 0.76630 0.33400
C 	C 	0.27720 0.58670 0.45690 -0.18500
H 	H 	0.19910 0.57420 0.41950 0.09100
H 	H 	0.32790 0.56830 0.41310 0.09800
C 	C 	0.28920 0.67240 0.46840 0.16100
C 	C 	0.23980 0.71190 0.53870 -0.19300
H 	H 	0.20230 0.68590 0.58410 0.10300
C 	C 	0.24510 0.78950 0.54320 0.09600
H 	H 	0.21050 0.81550 0.59090 0.00800
C 	C 	0.30130 0.82870 0.47720 -0.14700
C 	C 	0.35080 0.79020 0.40680 0.09400
H 	H 	0.38830 0.81640 0.36160 0.00200
C 	C 	0.34560 0.71120 0.40210 -0.19500
H 	H 	0.38010 0.68510 0.35450 0.09600
C 	C 	0.29770 0.91420 0.47620 0.32600
C 	C 	0.85850 0.28610 0.85750 0.08000
H 	H 	0.81140 0.26270 0.89660 -0.02000
C 	C 	0.91940 0.24120 0.80250 -0.14100
H 	H 	0.91390 0.18890 0.80530 0.09100
C 	C 	0.98940 0.27510 0.74260 0.06500
C 	C 	0.99300 0.35300 0.74260 -0.14600
H 	H 	0.03860 0.37780 0.70340 0.07700
C 	C 	0.93050 0.39390 0.79940 0.08000
H 	H 	0.93460 0.44630 0.79740 -0.01600
C 	C 	0.06880 0.12390 0.56660 0.08400
H 	H 	0.03430 0.08140 0.52960 0.00100
C 	C 	0.00880 0.16390 0.62610 -0.14000
H 	H 	0.93640 0.14740 0.63070 0.09400
C 	C 	0.05440 0.22920 0.68050 0.05900
C 	C 	0.16430 0.24880 0.67130 -0.13800
H 	H 	0.19950 0.29190 0.70590 0.07900
C 	C 	0.22080 0.20480 0.61120 0.07500
H 	H 	0.29440 0.21890 0.60710 -0.02300
Cd	Cd	0.26625 0.06476 0.45578 1.20400
O 	O 	0.14350 0.97580 0.23660 -0.30400
O 	O 	0.08910 0.06320 0.34020 -0.40300
O 	O 	0.72500 0.55305 0.01640 -0.39700
O 	O 	0.86720 0.54939 0.93410 -0.39200
N 	N 	0.80580 0.95100 0.06450 -0.10300
N 	N 	0.36350 0.13790 0.35790 -0.25100
N 	N 	0.67490 0.35780 0.05790 -0.24300
C 	C 	0.91650 0.96080 0.11670 0.05800
H 	H 	0.97430 0.94250 0.08580 0.02800
C 	C 	0.94500 0.99740 0.21490 -0.10700
C 	C 	0.85810 0.02050 0.26340 0.03200
H 	H 	0.87600 0.04500 0.33030 0.03900
C 	C 	0.74480 0.00680 0.21180 -0.11400
H 	H 	0.68610 0.01980 0.24500 0.05800
C 	C 	0.72060 0.97390 0.11100 0.04700
H 	H 	0.64450 0.96710 0.07390 0.01200
C 	C 	0.07120 0.01220 0.26630 0.32800
C 	C 	0.77720 0.91330 0.95690 -0.18600
H 	H 	0.69910 0.92580 0.91950 0.09100
H 	H 	0.82790 0.93170 0.91310 0.09700
C 	C 	0.78920 0.82760 0.96840 0.15800
C 	C 	0.73980 0.78810 0.03870 -0.19000
H 	H 	0.70230 0.81410 0.08410 0.10200
C 	C 	0.74510 0.71050 0.04320 0.09700
H 	H 	0.71050 0.68450 0.09090 0.00800
C 	C 	0.80130 0.67130 0.97720 -0.14900
C 	C 	0.85080 0.70980 0.90680 0.09400
H 	H 	0.88830 0.68360 0.86160 0.00100
C 	C 	0.84560 0.78880 0.90210 -0.19500
H 	H 	0.88010 0.81490 0.85450 0.09600
C 	C 	0.79770 0.58580 0.97620 0.32500
C 	C 	0.35850 0.21390 0.35750 0.07900
H 	H 	0.31140 0.23730 0.39660 -0.02000
C 	C 	0.41940 0.25880 0.30250 -0.14100
H 	H 	0.41390 0.31110 0.30530 0.09100
C 	C 	0.48940 0.22490 0.24260 0.06500
C 	C 	0.49300 0.14700 0.24260 -0.14400
H 	H 	0.53860 0.12220 0.20340 0.07500
C 	C 	0.43050 0.10610 0.29940 0.07900
H 	H 	0.43460 0.05370 0.29740 -0.01600
C 	C 	0.56880 0.37610 0.06660 0.08300
H 	H 	0.53430 0.41860 0.02960 0.00200
C 	C 	0.50880 0.33610 0.12610 -0.13700
H 	H 	0.43640 0.35260 0.13070 0.09200
C 	C 	0.55440 0.27080 0.18050 0.05800
C 	C 	0.66430 0.25120 0.17130 -0.13700
H 	H 	0.69950 0.20810 0.20590 0.07800
C 	C 	0.72080 0.29520 0.11120 0.07400
H 	H 	0.79440 0.28110 0.10710 -0.02200
Cd	Cd	0.73375 0.93524 0.54422 1.20400
O 	O 	0.85650 0.02420 0.76340 -0.30400
O 	O 	0.91090 0.93680 0.65980 -0.40300
O 	O 	0.27500 0.44695 0.98360 -0.39700
O 	O 	0.13280 0.45061 0.06590 -0.39200
N 	N 	0.19420 0.04900 0.93550 -0.10300
N 	N 	0.63650 0.86210 0.64210 -0.25100
N 	N 	0.32510 0.64220 0.94210 -0.24300
C 	C 	0.08350 0.03920 0.88330 0.05800
H 	H 	0.02570 0.05750 0.91420 0.02800
C 	C 	0.05500 0.00260 0.78510 -0.10700
C 	C 	0.14190 0.97950 0.73660 0.03200
H 	H 	0.12400 0.95500 0.66970 0.03900
C 	C 	0.25520 0.99320 0.78820 -0.11400
H 	H 	0.31390 0.98020 0.75500 0.05800
C 	C 	0.27940 0.02610 0.88900 0.04700
H 	H 	0.35550 0.03290 0.92610 0.01200
C 	C 	0.92880 0.98780 0.73370 0.32800
C 	C 	0.22280 0.08670 0.04310 -0.18600
H 	H 	0.30090 0.07420 0.08050 0.09100
H 	H 	0.17210 0.06830 0.08690 0.09700
C 	C 	0.21080 0.17240 0.03160 0.15800
C 	C 	0.26020 0.21190 0.96130 -0.19000
H 	H 	0.29770 0.18590 0.91590 0.10200
C 	C 	0.25490 0.28950 0.95680 0.09700
H 	H 	0.28950 0.31550 0.90910 0.00800
C 	C 	0.19870 0.32870 0.02280 -0.14900
C 	C 	0.14920 0.29020 0.09320 0.09400
H 	H 	0.11170 0.31640 0.13840 0.00100
C 	C 	0.15440 0.21120 0.09790 -0.19500
H 	H 	0.11990 0.18510 0.14550 0.09600
C 	C 	0.20230 0.41420 0.02380 0.32500
C 	C 	0.64150 0.78610 0.64250 0.07900
H 	H 	0.68860 0.76270 0.60340 -0.02000
C 	C 	0.58060 0.74120 0.69750 -0.14100
H 	H 	0.58610 0.68890 0.69470 0.09100
C 	C 	0.51060 0.77510 0.75740 0.06500
C 	C 	0.50700 0.85300 0.75740 -0.14400
H 	H 	0.46140 0.87780 0.79660 0.07500
C 	C 	0.56950 0.89390 0.70060 0.07900
H 	H 	0.56540 0.94630 0.70260 -0.01600
C 	C 	0.43120 0.62390 0.93340 0.08300
H 	H 	0.46570 0.58140 0.97040 0.00200
C 	C 	0.49120 0.66390 0.87390 -0.13700
H 	H 	0.56360 0.64740 0.86930 0.09200
C 	C 	0.44560 0.72920 0.81950 0.05800
C 	C 	0.33570 0.74880 0.82870 -0.13700
H 	H 	0.30050 0.79190 0.79410 0.07800
C 	C 	0.27920 0.70480 0.88880 0.07400
H 	H 	0.20560 0.71890 0.89290 -0.02200
Cd	Cd	0.23375 0.56476 0.04422 1.20400
O 	O 	0.35650 0.47580 0.26340 -0.30800
O 	O 	0.41090 0.56320 0.15980 -0.40300
O 	O 	0.77500 0.05305 0.48360 -0.39800
O 	O 	0.63280 0.04939 0.56590 -0.39200
N 	N 	0.69420 0.45100 0.43550 -0.10400
N 	N 	0.13650 0.63790 0.14210 -0.25100
N 	N 	0.82510 0.85780 0.44210 -0.24400
C 	C 	0.58350 0.46080 0.38330 0.05800
H 	H 	0.52570 0.44250 0.41420 0.02700
C 	C 	0.55500 0.49740 0.28510 -0.10900
C 	C 	0.64190 0.52050 0.23660 0.03100
H 	H 	0.62400 0.54500 0.16970 0.03800
C 	C 	0.75520 0.50680 0.28820 -0.11500
H 	H 	0.81390 0.51980 0.25500 0.05800
C 	C 	0.77940 0.47390 0.38900 0.04900
H 	H 	0.85550 0.46710 0.42610 0.01100
C 	C 	0.42880 0.51220 0.23370 0.33400
C 	C 	0.72280 0.41330 0.54310 -0.18500
H 	H 	0.80090 0.42580 0.58050 0.09100
H 	H 	0.67210 0.43170 0.58690 0.09800
C 	C 	0.71080 0.32760 0.53160 0.16100
C 	C 	0.76020 0.28810 0.46130 -0.19300
H 	H 	0.79770 0.31410 0.41590 0.10300
C 	C 	0.75490 0.21050 0.45680 0.09600
H 	H 	0.78950 0.18450 0.40910 0.00800
C 	C 	0.69870 0.17130 0.52280 -0.14700
C 	C 	0.64920 0.20980 0.59320 0.09400
H 	H 	0.61170 0.18360 0.63840 0.00200
C 	C 	0.65440 0.28880 0.59790 -0.19500
H 	H 	0.61990 0.31490 0.64550 0.09600
C 	C 	0.70230 0.08580 0.52380 0.32600
C 	C 	0.14150 0.71390 0.14250 0.08000
H 	H 	0.18860 0.73730 0.10340 -0.02000
C 	C 	0.08060 0.75880 0.19750 -0.14100
H 	H 	0.08610 0.81110 0.19470 0.09100
C 	C 	0.01060 0.72490 0.25740 0.06500
C 	C 	0.00700 0.64700 0.25740 -0.14600
H 	H 	0.96140 0.62220 0.29660 0.07700
C 	C 	0.06950 0.60610 0.20060 0.08000
H 	H 	0.06540 0.55370 0.20260 -0.01600
C 	C 	0.93120 0.87610 0.43340 0.08400
H 	H 	0.96570 0.91860 0.47040 0.00100
C 	C 	0.99120 0.83610 0.37390 -0.14000
H 	H 	0.06360 0.85260 0.36930 0.09400
C 	C 	0.94560 0.77080 0.31950 0.05900
C 	C 	0.83570 0.75120 0.32870 -0.13800
H 	H 	0.80050 0.70810 0.29410 0.07900
C 	C 	0.77920 0.79520 0.38880 0.07500
H 	H 	0.70560 0.78110 0.39290 -0.02300
