data_crystal

_cell_length_a 8.79300
_cell_length_b 8.79300
_cell_length_c 24.53000
_cell_angle_alpha 90.00000
_cell_angle_beta  90.00000
_cell_angle_gamma 120.00000

_symmetry_space_group_name_	'P 1'
_symmetry_space_group_name_H-M	'P 1'

loop_
_symmetry_equiv_pos_as_xyz
  x,y,z

loop_
_atom_site_label
_atom_site_type_symbol
_atom_site_fract_x
_atom_site_fract_y
_atom_site_fract_z
_atom_site_charge
O 	O 	0.56380 0.30600 0.72360 -0.31200
O 	O 	0.91120 0.65800 0.78660 -0.39400
O 	O 	0.74050 0.66020 0.71950 -0.22400
O 	O 	0.76820 0.31670 0.78090 -0.51300
C 	C 	0.70330 0.38270 0.75050 0.26900
C 	C 	0.78880 0.58410 0.75170 0.24200
O 	O 	0.69400 0.25780 0.05693 -0.27600
O 	O 	0.34200 0.25320 0.11993 -0.59500
O 	O 	0.33980 0.08030 0.05283 -0.42400
O 	O 	0.68330 0.45150 0.11423 -0.49000
C 	C 	0.61730 0.32060 0.08383 0.22700
C 	C 	0.41590 0.20470 0.08503 0.26100
O 	O 	0.74220 0.43620 0.39027 -0.21800
O 	O 	0.74680 0.08880 0.45327 -0.58500
O 	O 	0.91970 0.25950 0.38617 -0.22800
O 	O 	0.54850 0.23180 0.44757 -0.56900
C 	C 	0.67940 0.29670 0.41717 0.24000
C 	C 	0.79530 0.21120 0.41837 0.25600
O 	O 	0.43620 0.69400 0.72360 -0.22600
O 	O 	0.08880 0.34200 0.78660 -0.65000
O 	O 	0.25950 0.33980 0.71950 -0.36200
O 	O 	0.23180 0.68330 0.78090 -0.53100
C 	C 	0.29670 0.61730 0.75050 0.22300
C 	C 	0.21120 0.41590 0.75170 0.26500
O 	O 	0.30600 0.74220 0.05693 -0.27300
O 	O 	0.65800 0.74680 0.11993 -0.46300
O 	O 	0.66020 0.91970 0.05283 -0.17200
O 	O 	0.31670 0.54850 0.11423 -0.56700
C 	C 	0.38270 0.67940 0.08383 0.26000
C 	C 	0.58410 0.79530 0.08503 0.24400
O 	O 	0.25780 0.56380 0.39027 -0.30600
O 	O 	0.25320 0.91120 0.45327 -0.45900
O 	O 	0.08030 0.74050 0.38617 -0.34100
O 	O 	0.45150 0.76820 0.44757 -0.47400
C 	C 	0.32060 0.70330 0.41717 0.25200
C 	C 	0.20470 0.78880 0.41837 0.25000
O 	O 	0.30600 0.56380 0.60973 -0.31200
O 	O 	0.65800 0.91120 0.54673 -0.39400
O 	O 	0.66020 0.74050 0.61383 -0.22300
O 	O 	0.31670 0.76820 0.55243 -0.51200
C 	C 	0.38270 0.70330 0.58283 0.26800
C 	C 	0.58410 0.78880 0.58163 0.24200
O 	O 	0.25780 0.69400 0.27640 -0.26300
O 	O 	0.25320 0.34200 0.21340 -0.59200
O 	O 	0.08030 0.33980 0.28050 -0.41100
O 	O 	0.45150 0.68330 0.21910 -0.48600
C 	C 	0.32060 0.61730 0.24950 0.23000
C 	C 	0.20470 0.41590 0.24830 0.26200
O 	O 	0.43620 0.74220 0.94307 -0.20300
O 	O 	0.08880 0.74680 0.88007 -0.58200
O 	O 	0.25950 0.91970 0.94717 -0.21100
O 	O 	0.23180 0.54850 0.88577 -0.56600
C 	C 	0.29670 0.67940 0.91617 0.24300
C 	C 	0.21120 0.79530 0.91497 0.25600
O 	O 	0.69400 0.43620 0.60973 -0.22600
O 	O 	0.34200 0.08880 0.54673 -0.65000
O 	O 	0.33980 0.25950 0.61383 -0.36200
O 	O 	0.68330 0.23180 0.55243 -0.53000
C 	C 	0.61730 0.29670 0.58283 0.22300
C 	C 	0.41590 0.21120 0.58163 0.26500
O 	O 	0.74220 0.30600 0.27640 -0.26200
O 	O 	0.74680 0.65800 0.21340 -0.46000
O 	O 	0.91970 0.66020 0.28050 -0.15900
O 	O 	0.54850 0.31670 0.21910 -0.56300
C 	C 	0.67940 0.38270 0.24950 0.26200
C 	C 	0.79530 0.58410 0.24830 0.24400
O 	O 	0.56380 0.25780 0.94307 -0.29000
O 	O 	0.91120 0.25320 0.88007 -0.45500
O 	O 	0.74050 0.08030 0.94717 -0.32200
O 	O 	0.76820 0.45150 0.88577 -0.46900
C 	C 	0.70330 0.32060 0.91617 0.25500
C 	C 	0.78880 0.20470 0.91497 0.25100
Cd	Cd	0.50000 0.50000 0.66667 1.26000
Cd	Cd	0.50000 0.00000 -0.00000 1.18300
Cd	Cd	0.00000 0.50000 0.33333 1.19800
Zr	Zr	0.00000 0.50000 0.83333 3.16600
Zr	Zr	0.50000 0.50000 0.16667 3.19200
Zr	Zr	0.50000 0.00000 0.50000 3.16600
