data_crystal

_cell_length_a 15.75400
_cell_length_b 15.75400
_cell_length_c 15.75400
_cell_angle_alpha 90.00000
_cell_angle_beta  90.00000
_cell_angle_gamma 90.00000

_symmetry_space_group_name_	'P 1'
_symmetry_space_group_name_H-M	'P 1'

loop_
_symmetry_equiv_pos_as_xyz
  x,y,z

loop_
_atom_site_label
_atom_site_type_symbol
_atom_site_fract_x
_atom_site_fract_y
_atom_site_fract_z
_atom_site_charge
Cu	Cu	0.50000 0.25000 0.75000 0.90100
Cu	Cu	-0.00000 0.25000 0.75000 0.87700
Cu	Cu	0.75000 0.50000 0.25000 0.90100
Cu	Cu	0.75000 0.00000 0.25000 0.87700
Cu	Cu	0.25000 0.75000 0.50000 0.89300
Cu	Cu	0.25000 0.75000 -0.00000 0.87800
Cu	Cu	0.50000 0.75000 0.25000 0.90200
Cu	Cu	0.00000 0.75000 0.25000 0.87800
Cu	Cu	0.25000 0.50000 0.75000 0.90300
Cu	Cu	0.25000 0.00000 0.75000 0.87800
Cu	Cu	0.75000 0.25000 0.50000 0.90300
Cu	Cu	0.75000 0.25000 -0.00000 0.87200
C 	C 	0.60010 0.10390 0.79420 0.28400
C 	C 	0.89990 0.39610 0.79420 0.24900
C 	C 	0.89990 0.10390 0.70580 0.28600
C 	C 	0.60010 0.39610 0.70580 0.26300
C 	C 	0.79420 0.60010 0.10390 0.28400
C 	C 	0.79420 0.89990 0.39610 0.26700
C 	C 	0.70580 0.89990 0.10390 0.28500
C 	C 	0.70580 0.60010 0.39610 0.26500
C 	C 	0.10390 0.79420 0.60010 0.28400
C 	C 	0.39610 0.79420 0.89990 0.26700
C 	C 	0.10390 0.70580 0.89990 0.28600
C 	C 	0.39610 0.70580 0.60010 0.09500
C 	C 	0.60390 0.10010 0.20580 0.26400
C 	C 	0.89610 0.39990 0.20580 0.24400
C 	C 	0.60390 0.39990 0.29420 0.26500
C 	C 	0.89610 0.10010 0.29420 0.24300
C 	C 	0.10010 0.29420 0.89610 0.24400
C 	C 	0.39990 0.29420 0.60390 0.26500
C 	C 	0.39990 0.20580 0.89610 0.24600
C 	C 	0.10010 0.20580 0.60390 0.26400
C 	C 	0.29420 0.60390 0.39990 0.26700
C 	C 	0.29420 0.89610 0.10010 0.24400
C 	C 	0.20580 0.60390 0.10010 0.26300
C 	C 	0.20580 0.89610 0.39990 0.24600
C 	C 	0.39990 0.89610 0.20580 0.24500
C 	C 	0.10010 0.60390 0.20580 0.26400
C 	C 	0.10010 0.89610 0.29420 0.24400
C 	C 	0.39990 0.60390 0.29420 0.26500
C 	C 	0.20580 0.39990 0.89610 0.24500
C 	C 	0.20580 0.10010 0.60390 0.26300
C 	C 	0.29420 0.10010 0.89610 0.24500
C 	C 	0.29420 0.39990 0.60390 0.26700
C 	C 	0.89610 0.20580 0.39990 0.24400
C 	C 	0.60390 0.20580 0.10010 0.26400
C 	C 	0.89610 0.29420 0.10010 0.24300
C 	C 	0.60390 0.29420 0.39990 0.26700
C 	C 	0.39610 0.89990 0.79420 0.26400
C 	C 	0.10390 0.60010 0.79420 0.28400
C 	C 	0.39610 0.60010 0.70580 0.24500
C 	C 	0.10390 0.89990 0.70580 0.28600
C 	C 	0.89990 0.70580 0.10390 0.28600
C 	C 	0.60010 0.70580 0.39610 0.26800
C 	C 	0.60010 0.79420 0.10390 0.28300
C 	C 	0.89990 0.79420 0.39610 0.26600
C 	C 	0.70580 0.39610 0.60010 0.26500
C 	C 	0.70580 0.10390 0.89990 0.28600
C 	C 	0.79420 0.39610 0.89990 0.12600
C 	C 	0.79420 0.10390 0.60010 0.28400
C 	C 	0.63100 0.22490 0.86900 0.09000
C 	C 	0.65560 0.05400 0.84440 -0.27300
C 	C 	0.86900 0.27510 0.86900 0.09100
C 	C 	0.84440 0.44600 0.84440 -0.14300
C 	C 	0.86900 0.22490 0.63100 0.09000
C 	C 	0.84440 0.05400 0.65560 -0.27300
C 	C 	0.63100 0.27510 0.63100 0.08200
C 	C 	0.65560 0.44600 0.65560 -0.20600
C 	C 	0.86900 0.63100 0.22490 0.09000
C 	C 	0.84440 0.65560 0.05400 -0.27200
C 	C 	0.86900 0.86900 0.27510 0.09600
C 	C 	0.84440 0.84440 0.44600 -0.19300
C 	C 	0.63100 0.86900 0.22490 0.09000
C 	C 	0.65560 0.84440 0.05400 -0.26900
C 	C 	0.63100 0.63100 0.27510 0.08200
C 	C 	0.65560 0.65560 0.44600 -0.20900
C 	C 	0.22490 0.86900 0.63100 0.09000
C 	C 	0.05400 0.84440 0.65560 -0.27300
C 	C 	0.27510 0.86900 0.86900 0.09500
C 	C 	0.44600 0.84440 0.84440 -0.19500
C 	C 	0.22490 0.63100 0.86900 0.09000
C 	C 	0.05400 0.65560 0.84440 -0.27400
C 	C 	0.27510 0.63100 0.63100 0.07700
C 	C 	0.44600 0.65560 0.65560 -0.14400
C 	C 	0.72490 0.13100 0.13100 0.07100
C 	C 	0.55400 0.15560 0.15560 -0.21900
C 	C 	0.77510 0.36900 0.13100 0.06800
C 	C 	0.94600 0.34440 0.15560 -0.13300
C 	C 	0.72490 0.36900 0.36900 0.08200
C 	C 	0.55400 0.34440 0.34440 -0.20800
C 	C 	0.77510 0.13100 0.36900 0.07600
C 	C 	0.94600 0.15560 0.34440 -0.13300
C 	C 	0.13100 0.36900 0.77510 0.07500
C 	C 	0.15560 0.34440 0.94600 -0.13800
C 	C 	0.36900 0.36900 0.72490 0.08200
C 	C 	0.34440 0.34440 0.55400 -0.20800
C 	C 	0.36900 0.13100 0.77510 0.07600
C 	C 	0.34440 0.15560 0.94600 -0.13800
C 	C 	0.13100 0.13100 0.72490 0.07100
C 	C 	0.15560 0.15560 0.55400 -0.21900
C 	C 	0.36900 0.72490 0.36900 0.07400
C 	C 	0.34440 0.55400 0.34440 -0.20800
C 	C 	0.36900 0.77510 0.13100 0.07600
C 	C 	0.34440 0.94600 0.15560 -0.13400
C 	C 	0.13100 0.72490 0.13100 0.07100
C 	C 	0.15560 0.55400 0.15560 -0.21900
C 	C 	0.13100 0.77510 0.36900 0.07600
C 	C 	0.15560 0.94600 0.34440 -0.13500
N 	N 	0.58310 0.18080 0.81080 -0.26400
N 	N 	0.91690 0.31920 0.81080 -0.23800
N 	N 	0.91690 0.18080 0.68920 -0.25000
N 	N 	0.58310 0.31920 0.68920 -0.25900
N 	N 	0.81080 0.58310 0.18080 -0.26400
N 	N 	0.81080 0.91690 0.31920 -0.24400
N 	N 	0.68920 0.91690 0.18080 -0.25000
N 	N 	0.68920 0.58310 0.31920 -0.25900
N 	N 	0.18080 0.81080 0.58310 -0.26500
N 	N 	0.31920 0.81080 0.91690 -0.24500
N 	N 	0.18080 0.68920 0.91690 -0.25100
N 	N 	0.31920 0.68920 0.58310 -0.23500
N 	N 	0.68080 0.08310 0.18920 -0.26700
N 	N 	0.81920 0.41690 0.18920 -0.25400
N 	N 	0.68080 0.41690 0.31080 -0.25900
N 	N 	0.81920 0.08310 0.31080 -0.26100
N 	N 	0.08310 0.31080 0.81920 -0.26100
N 	N 	0.41690 0.31080 0.68080 -0.25900
N 	N 	0.41690 0.18920 0.81920 -0.25500
N 	N 	0.08310 0.18920 0.68080 -0.26700
N 	N 	0.31080 0.68080 0.41690 -0.26400
N 	N 	0.31080 0.81920 0.08310 -0.26100
N 	N 	0.18920 0.68080 0.08310 -0.26700
N 	N 	0.18920 0.81920 0.41690 -0.25500
N 	N 	0.41690 0.81920 0.18920 -0.25400
N 	N 	0.08310 0.68080 0.18920 -0.26700
N 	N 	0.08310 0.81920 0.31080 -0.26100
N 	N 	0.41690 0.68080 0.31080 -0.25900
N 	N 	0.18920 0.41690 0.81920 -0.25400
N 	N 	0.18920 0.08310 0.68080 -0.26700
N 	N 	0.31080 0.08310 0.81920 -0.26100
N 	N 	0.31080 0.41690 0.68080 -0.25900
N 	N 	0.81920 0.18920 0.41690 -0.25400
N 	N 	0.68080 0.18920 0.08310 -0.26800
N 	N 	0.81920 0.31080 0.08310 -0.26500
N 	N 	0.68080 0.31080 0.41690 -0.25900
N 	N 	0.31920 0.91690 0.81080 -0.24400
N 	N 	0.18080 0.58310 0.81080 -0.26300
N 	N 	0.31920 0.58310 0.68920 -0.25200
N 	N 	0.18080 0.91690 0.68920 -0.25000
N 	N 	0.91690 0.68920 0.18080 -0.25000
N 	N 	0.58310 0.68920 0.31920 -0.26000
N 	N 	0.58310 0.81080 0.18080 -0.26300
N 	N 	0.91690 0.81080 0.31920 -0.24400
N 	N 	0.68920 0.31920 0.58310 -0.25900
N 	N 	0.68920 0.18080 0.91690 -0.25200
N 	N 	0.81080 0.31920 0.91690 -0.22600
N 	N 	0.81080 0.18080 0.58310 -0.26300
O 	O 	0.55000 0.07900 0.73100 -0.25200
O 	O 	0.95000 0.42100 0.73100 -0.19400
O 	O 	0.95000 0.07900 0.76900 -0.21700
O 	O 	0.55000 0.42100 0.76900 -0.22800
O 	O 	0.73100 0.55000 0.07900 -0.26500
O 	O 	0.73100 0.95000 0.42100 -0.20000
O 	O 	0.76900 0.95000 0.07900 -0.21600
O 	O 	0.76900 0.55000 0.42100 -0.22300
O 	O 	0.07900 0.73100 0.55000 -0.25100
O 	O 	0.42100 0.73100 0.95000 -0.20000
O 	O 	0.07900 0.76900 0.95000 -0.21900
O 	O 	0.57900 0.05000 0.26900 -0.25400
O 	O 	0.92100 0.45000 0.26900 -0.20300
O 	O 	0.57900 0.45000 0.23100 -0.23400
O 	O 	0.92100 0.05000 0.23100 -0.23100
O 	O 	0.05000 0.23100 0.92100 -0.23200
O 	O 	0.45000 0.23100 0.57900 -0.23200
O 	O 	0.45000 0.26900 0.92100 -0.20600
O 	O 	0.05000 0.26900 0.57900 -0.25300
O 	O 	0.23100 0.57900 0.45000 -0.23200
O 	O 	0.23100 0.92100 0.05000 -0.23000
O 	O 	0.26900 0.57900 0.05000 -0.25300
O 	O 	0.26900 0.92100 0.45000 -0.21100
O 	O 	0.45000 0.92100 0.26900 -0.20500
O 	O 	0.05000 0.57900 0.26900 -0.25300
O 	O 	0.05000 0.92100 0.23100 -0.23100
O 	O 	0.45000 0.57900 0.23100 -0.23300
O 	O 	0.26900 0.45000 0.92100 -0.20500
O 	O 	0.26900 0.05000 0.57900 -0.25600
O 	O 	0.23100 0.05000 0.92100 -0.23200
O 	O 	0.23100 0.45000 0.57900 -0.23100
O 	O 	0.92100 0.26900 0.45000 -0.20300
O 	O 	0.57900 0.26900 0.05000 -0.25900
O 	O 	0.92100 0.23100 0.05000 -0.23000
O 	O 	0.57900 0.23100 0.45000 -0.23200
O 	O 	0.42100 0.95000 0.73100 -0.20400
O 	O 	0.07900 0.55000 0.73100 -0.25100
O 	O 	0.42100 0.55000 0.76900 -0.21900
O 	O 	0.07900 0.95000 0.76900 -0.21800
O 	O 	0.95000 0.76900 0.07900 -0.21600
O 	O 	0.55000 0.76900 0.42100 -0.24200
O 	O 	0.55000 0.73100 0.07900 -0.25000
O 	O 	0.95000 0.73100 0.42100 -0.19800
O 	O 	0.76900 0.42100 0.55000 -0.22200
O 	O 	0.76900 0.07900 0.95000 -0.21900
O 	O 	0.73100 0.07900 0.55000 -0.25100
H 	H 	0.42484 0.76416 0.56841 0.01300
H 	H 	0.62196 0.29629 0.87664 0.00500
H 	H 	0.65603 0.98200 0.83718 0.15900
H 	H 	0.87804 0.20371 0.87664 0.02000
H 	H 	0.84397 0.51800 0.83718 0.09400
H 	H 	0.87804 0.29629 0.62336 0.01500
H 	H 	0.83718 0.98200 0.65603 0.15900
H 	H 	0.62196 0.20371 0.62336 0.00600
H 	H 	0.65603 0.51800 0.66282 0.10500
H 	H 	0.87664 0.62196 0.29629 0.01500
H 	H 	0.83718 0.65603 0.98200 0.15500
H 	H 	0.87664 0.87804 0.20371 0.02000
H 	H 	0.84397 0.83718 0.51800 0.11200
H 	H 	0.62336 0.87804 0.29629 0.01400
H 	H 	0.65603 0.83718 0.98200 0.15700
H 	H 	0.62336 0.62196 0.20371 0.00500
H 	H 	0.66282 0.65603 0.51800 0.10500
H 	H 	0.29629 0.87664 0.62196 0.00400
H 	H 	0.98200 0.83718 0.65603 0.16000
H 	H 	0.20371 0.87664 0.87804 0.01900
H 	H 	0.51800 0.84397 0.83718 0.11100
H 	H 	0.29629 0.62336 0.87804 0.01400
H 	H 	0.98200 0.65603 0.83718 0.15900
H 	H 	0.20371 0.62336 0.62196 0.00700
H 	H 	0.51800 0.66282 0.65603 0.08400
H 	H 	0.79629 0.12196 0.12336 0.00100
H 	H 	0.48200 0.16282 0.15603 0.09600
H 	H 	0.70371 0.37804 0.12336 -0.00400
H 	H 	0.01800 0.33718 0.15603 0.04600
H 	H 	0.79629 0.37804 0.37664 0.01100
H 	H 	0.48200 0.34397 0.33718 0.10200
H 	H 	0.70371 0.12196 0.37664 0.00300
H 	H 	0.01800 0.15603 0.33718 0.04600
H 	H 	0.12196 0.37664 0.70371 0.00300
H 	H 	0.15603 0.33718 0.01800 0.04800
H 	H 	0.37804 0.37664 0.79629 0.01000
H 	H 	0.34397 0.33718 0.48200 0.10200
H 	H 	0.37804 0.12336 0.70371 0.00300
H 	H 	0.33718 0.15603 0.01800 0.04800
H 	H 	0.12196 0.12336 0.79629 0.00000
H 	H 	0.16282 0.15603 0.48200 0.09600
H 	H 	0.37664 0.79629 0.37804 0.00100
H 	H 	0.34397 0.48200 0.33718 0.10200
H 	H 	0.37664 0.70371 0.12196 0.00300
H 	H 	0.33718 0.01800 0.15603 0.04600
H 	H 	0.12336 0.79629 0.12196 0.00100
H 	H 	0.16282 0.48200 0.15603 0.09600
H 	H 	0.12336 0.70371 0.37804 0.00400
H 	H 	0.15603 0.01800 0.33718 0.04600
