data_crystal

_cell_length_a 23.11300
_cell_length_b 7.39540
_cell_length_c 29.65700
_cell_angle_alpha 90.00000
_cell_angle_beta  93.03700
_cell_angle_gamma 90.00000

_symmetry_space_group_name_	'P 1'
_symmetry_space_group_name_H-M	'P 1'

loop_
_symmetry_equiv_pos_as_xyz
  x,y,z

loop_
_atom_site_label
_atom_site_type_symbol
_atom_site_fract_x
_atom_site_fract_y
_atom_site_fract_z
_atom_site_charge
Mn	Mn	0.97577 0.53603 0.35671 1.18900
C 	C 	0.08670 0.47450 0.31020 0.38700
C 	C 	0.14950 0.42310 0.31093 -0.14500
C 	C 	0.17840 0.37790 0.35127 0.08100
H 	H 	0.15910 0.38480 0.37790 0.00900
C 	C 	0.23540 0.32290 0.35271 -0.13500
C 	C 	0.26460 0.31710 0.31241 0.02100
H 	H 	0.30320 0.28080 0.31310 0.01100
C 	C 	0.23680 0.36440 0.27182 -0.03400
C 	C 	0.17890 0.41460 0.27134 0.02400
H 	H 	0.15940 0.44300 0.24400 0.00900
C 	C 	0.26870 0.36400 0.22935 0.00100
C 	C 	0.24170 0.31060 0.18841 -0.02000
H 	H 	0.20360 0.26980 0.18770 0.03000
C 	C 	0.27090 0.31700 0.14832 -0.09200
C 	C 	0.32800 0.38010 0.14976 0.03700
H 	H 	0.34780 0.38620 0.12330 0.02100
C 	C 	0.35550 0.43400 0.19064 -0.10600
C 	C 	0.32530 0.42370 0.22956 -0.01200
H 	H 	0.34380 0.45810 0.25680 0.03000
C 	C 	0.24080 0.26060 0.10471 0.31300
C 	C 	0.41530 0.51050 0.19181 0.34900
C 	C 	0.26450 0.26990 0.39707 0.38500
O 	O 	0.05762 0.46370 0.27259 -0.49600
O 	O 	0.06597 0.52030 0.34689 -0.52500
O 	O 	0.23189 0.25520 0.42985 -0.50800
O 	O 	0.31796 0.24770 0.40000 -0.37500
O 	O 	0.43884 0.54620 0.23021 -0.45300
O 	O 	0.43935 0.54260 0.15551 -0.38100
O 	O 	0.27134 0.23740 0.07094 -0.31300
O 	O 	0.18721 0.23570 0.10330 -0.32100
O 	O 	0.97132 0.25710 0.32206 -1.10100
H 	H 	0.99970 0.20610 0.33390 0.43500
H 	H 	0.94320 0.19260 0.32620 0.40200
Mn	Mn	0.47577 0.03603 0.35671 1.17100
C 	C 	0.58670 0.97450 0.31020 0.38900
C 	C 	0.64950 0.92310 0.31093 -0.13900
C 	C 	0.67840 0.87790 0.35127 0.07900
H 	H 	0.65910 0.88480 0.37790 0.01400
C 	C 	0.73540 0.82290 0.35271 -0.13100
C 	C 	0.76460 0.81710 0.31241 0.01900
H 	H 	0.80320 0.78080 0.31310 0.01400
C 	C 	0.73680 0.86440 0.27182 -0.03200
C 	C 	0.67890 0.91460 0.27134 0.02300
H 	H 	0.65940 0.94300 0.24400 0.01100
C 	C 	0.76870 0.86400 0.22935 0.00500
C 	C 	0.74170 0.81060 0.18841 -0.02400
H 	H 	0.70360 0.76980 0.18770 0.03300
C 	C 	0.77090 0.81700 0.14832 -0.08500
C 	C 	0.82800 0.88010 0.14976 0.03000
H 	H 	0.84780 0.88620 0.12330 0.02800
C 	C 	0.85550 0.93400 0.19064 -0.09400
C 	C 	0.82530 0.92370 0.22956 -0.01800
H 	H 	0.84380 0.95810 0.25680 0.03500
C 	C 	0.74080 0.76060 0.10471 0.31000
C 	C 	0.91530 0.01050 0.19181 0.33900
C 	C 	0.76450 0.76990 0.39707 0.38300
O 	O 	0.55762 0.96370 0.27259 -0.47800
O 	O 	0.56597 0.02030 0.34689 -0.50800
O 	O 	0.73189 0.75520 0.42985 -0.50300
O 	O 	0.81796 0.74770 0.40000 -0.36800
O 	O 	0.93884 0.04620 0.23021 -0.43000
O 	O 	0.93935 0.04260 0.15551 -0.35600
O 	O 	0.77134 0.73740 0.07094 -0.30800
O 	O 	0.68721 0.73570 0.10330 -0.31400
O 	O 	0.47132 0.75710 0.32206 -1.10700
H 	H 	0.49970 0.70610 0.33390 0.41000
H 	H 	0.44320 0.69260 0.32620 0.39600
Mn	Mn	0.02423 0.53603 0.14329 1.15300
C 	C 	0.91330 0.47450 0.18980 0.37900
C 	C 	0.85050 0.42310 0.18907 -0.13400
C 	C 	0.82160 0.37790 0.14873 0.07600
H 	H 	0.84090 0.38480 0.12210 0.01500
C 	C 	0.76460 0.32290 0.14729 -0.13100
C 	C 	0.73540 0.31710 0.18759 0.01700
H 	H 	0.69680 0.28080 0.18690 0.01200
C 	C 	0.76320 0.36440 0.22818 -0.03000
C 	C 	0.82110 0.41460 0.22866 0.01800
H 	H 	0.84060 0.44300 0.25600 0.01400
C 	C 	0.73130 0.36400 0.27065 0.00100
C 	C 	0.75830 0.31060 0.31159 -0.02200
H 	H 	0.79640 0.26980 0.31230 0.03300
C 	C 	0.72910 0.31700 0.35168 -0.08700
C 	C 	0.67200 0.38010 0.35024 0.03400
H 	H 	0.65220 0.38620 0.37670 0.02500
C 	C 	0.64450 0.43400 0.30936 -0.10400
C 	C 	0.67470 0.42370 0.27044 -0.01300
H 	H 	0.65620 0.45810 0.24320 0.03000
C 	C 	0.75920 0.26060 0.39529 0.30900
C 	C 	0.58470 0.51050 0.30819 0.34800
C 	C 	0.73550 0.26990 0.10293 0.38400
O 	O 	0.94238 0.46370 0.22741 -0.45400
O 	O 	0.93403 0.52030 0.15311 -0.48300
O 	O 	0.76811 0.25520 0.07015 -0.50900
O 	O 	0.68204 0.24770 0.10000 -0.38000
O 	O 	0.56116 0.54620 0.26979 -0.45300
O 	O 	0.56065 0.54260 0.34449 -0.37800
O 	O 	0.72866 0.23740 0.42906 -0.30200
O 	O 	0.81279 0.23570 0.39670 -0.30600
O 	O 	0.02868 0.25710 0.17794 -1.10700
H 	H 	0.00030 0.20610 0.16610 0.38400
H 	H 	0.05680 0.19260 0.17380 0.38800
Mn	Mn	0.52423 0.03603 0.14329 1.16900
C 	C 	0.41330 0.97450 0.18980 0.39000
C 	C 	0.35050 0.92310 0.18907 -0.14200
C 	C 	0.32160 0.87790 0.14873 0.08300
H 	H 	0.34090 0.88480 0.12210 0.01000
C 	C 	0.26460 0.82290 0.14729 -0.13600
C 	C 	0.23540 0.81710 0.18759 0.02200
H 	H 	0.19680 0.78080 0.18690 0.00900
C 	C 	0.26320 0.86440 0.22818 -0.03300
C 	C 	0.32110 0.91460 0.22866 0.02400
H 	H 	0.34060 0.94300 0.25600 0.01100
C 	C 	0.23130 0.86400 0.27065 0.00200
C 	C 	0.25830 0.81060 0.31159 -0.02100
H 	H 	0.29640 0.76980 0.31230 0.03200
C 	C 	0.22910 0.81700 0.35168 -0.08900
C 	C 	0.17200 0.88010 0.35024 0.03700
H 	H 	0.15220 0.88620 0.37670 0.02100
C 	C 	0.14450 0.93400 0.30936 -0.10600
C 	C 	0.17470 0.92370 0.27044 -0.01200
H 	H 	0.15620 0.95810 0.24320 0.02900
C 	C 	0.25920 0.76060 0.39529 0.31100
C 	C 	0.08470 0.01050 0.30819 0.34900
C 	C 	0.23550 0.76990 0.10293 0.38700
O 	O 	0.44238 0.96370 0.22741 -0.47800
O 	O 	0.43403 0.02030 0.15311 -0.51000
O 	O 	0.26811 0.75520 0.07015 -0.51300
O 	O 	0.18204 0.74770 0.10000 -0.38500
O 	O 	0.06116 0.04620 0.26979 -0.46800
O 	O 	0.06065 0.04260 0.34449 -0.40200
O 	O 	0.22866 0.73740 0.42906 -0.30600
O 	O 	0.31279 0.73570 0.39670 -0.31000
O 	O 	0.52868 0.75710 0.17794 -1.10600
H 	H 	0.50030 0.70610 0.16610 0.40900
H 	H 	0.55680 0.69260 0.17380 0.39500
Mn	Mn	0.02423 0.46397 0.64329 1.15500
C 	C 	0.91330 0.52550 0.68980 0.37800
C 	C 	0.85050 0.57690 0.68907 -0.13200
C 	C 	0.82160 0.62210 0.64873 0.07400
H 	H 	0.84090 0.61520 0.62210 0.01800
C 	C 	0.76460 0.67710 0.64729 -0.12900
C 	C 	0.73540 0.68290 0.68759 0.01600
H 	H 	0.69680 0.71920 0.68690 0.01200
C 	C 	0.76320 0.63560 0.72818 -0.03000
C 	C 	0.82110 0.58540 0.72866 0.01700
H 	H 	0.84060 0.55700 0.75600 0.01400
C 	C 	0.73130 0.63600 0.77065 0.00200
C 	C 	0.75830 0.68940 0.81159 -0.02400
H 	H 	0.79640 0.73020 0.81230 0.03400
C 	C 	0.72910 0.68300 0.85168 -0.08400
C 	C 	0.67200 0.61990 0.85024 0.03200
H 	H 	0.65220 0.61380 0.87670 0.02800
C 	C 	0.64450 0.56600 0.80936 -0.10200
C 	C 	0.67470 0.57630 0.77044 -0.01500
H 	H 	0.65620 0.54190 0.74320 0.03100
C 	C 	0.75920 0.73940 0.89529 0.30600
C 	C 	0.58470 0.48950 0.80819 0.34700
C 	C 	0.73550 0.73010 0.60293 0.38200
O 	O 	0.94238 0.53630 0.72741 -0.45400
O 	O 	0.93403 0.47970 0.65311 -0.48000
O 	O 	0.76811 0.74480 0.57015 -0.50200
O 	O 	0.68204 0.75230 0.60000 -0.37500
O 	O 	0.56116 0.45380 0.76979 -0.45200
O 	O 	0.56065 0.45740 0.84449 -0.37500
O 	O 	0.72866 0.76260 0.92906 -0.29200
O 	O 	0.81279 0.76430 0.89670 -0.30000
O 	O 	0.02868 0.74290 0.67794 -1.10700
H 	H 	0.00030 0.79390 0.66610 0.38600
H 	H 	0.05680 0.80740 0.67380 0.38900
Mn	Mn	0.52423 0.96397 0.64329 1.17100
C 	C 	0.41330 0.02550 0.68980 0.38900
C 	C 	0.35050 0.07690 0.68907 -0.14000
C 	C 	0.32160 0.12210 0.64873 0.08100
H 	H 	0.34090 0.11520 0.62210 0.01300
C 	C 	0.26460 0.17710 0.64729 -0.13400
C 	C 	0.23540 0.18290 0.68759 0.02100
H 	H 	0.19680 0.21920 0.68690 0.01000
C 	C 	0.26320 0.13560 0.72818 -0.03200
C 	C 	0.32110 0.08540 0.72866 0.02300
H 	H 	0.34060 0.05700 0.75600 0.01200
C 	C 	0.23130 0.13600 0.77065 0.00300
C 	C 	0.25830 0.18940 0.81159 -0.02300
H 	H 	0.29640 0.23020 0.81230 0.03300
C 	C 	0.22910 0.18300 0.85168 -0.08600
C 	C 	0.17200 0.11990 0.85024 0.03400
H 	H 	0.15220 0.11380 0.87670 0.02500
C 	C 	0.14450 0.06600 0.80936 -0.10300
C 	C 	0.17470 0.07630 0.77044 -0.01400
H 	H 	0.15620 0.04190 0.74320 0.03000
C 	C 	0.25920 0.23940 0.89529 0.30900
C 	C 	0.08470 0.98950 0.80819 0.34700
C 	C 	0.23550 0.23010 0.60293 0.38600
O 	O 	0.44238 0.03630 0.72741 -0.47800
O 	O 	0.43403 0.97970 0.65311 -0.50800
O 	O 	0.26811 0.24480 0.57015 -0.50600
O 	O 	0.18204 0.25230 0.60000 -0.38000
O 	O 	0.06116 0.95380 0.76979 -0.46700
O 	O 	0.06065 0.95740 0.84449 -0.39900
O 	O 	0.22866 0.26260 0.92906 -0.29500
O 	O 	0.31279 0.26430 0.89670 -0.30400
O 	O 	0.52868 0.24290 0.67794 -1.10700
H 	H 	0.50030 0.29390 0.66610 0.41000
H 	H 	0.55680 0.30740 0.67380 0.39600
Mn	Mn	0.97577 0.46397 0.85671 1.19200
C 	C 	0.08670 0.52550 0.81020 0.38600
C 	C 	0.14950 0.57690 0.81093 -0.14200
C 	C 	0.17840 0.62210 0.85127 0.07900
H 	H 	0.15910 0.61520 0.87790 0.01200
C 	C 	0.23540 0.67710 0.85271 -0.13100
C 	C 	0.26460 0.68290 0.81241 0.01800
H 	H 	0.30320 0.71920 0.81310 0.01200
C 	C 	0.23680 0.63560 0.77182 -0.03200
C 	C 	0.17890 0.58540 0.77134 0.02300
H 	H 	0.15940 0.55700 0.74400 0.00900
C 	C 	0.26870 0.63600 0.72935 0.00100
C 	C 	0.24170 0.68940 0.68841 -0.02100
H 	H 	0.20360 0.73020 0.68770 0.03000
C 	C 	0.27090 0.68300 0.64832 -0.08900
C 	C 	0.32800 0.61990 0.64976 0.03500
H 	H 	0.34780 0.61380 0.62330 0.02400
C 	C 	0.35550 0.56600 0.69064 -0.10400
C 	C 	0.32530 0.57630 0.72956 -0.01300
H 	H 	0.34380 0.54190 0.75680 0.03100
C 	C 	0.24080 0.73940 0.60471 0.31100
C 	C 	0.41530 0.48950 0.69181 0.34800
C 	C 	0.26450 0.73010 0.89707 0.38200
O 	O 	0.05762 0.53630 0.77259 -0.49500
O 	O 	0.06597 0.47970 0.84689 -0.52100
O 	O 	0.23189 0.74480 0.92985 -0.49500
O 	O 	0.31796 0.75230 0.90000 -0.36800
O 	O 	0.43884 0.45380 0.73021 -0.45200
O 	O 	0.43935 0.45740 0.65551 -0.37800
O 	O 	0.27134 0.76260 0.57094 -0.30500
O 	O 	0.18721 0.76430 0.60330 -0.31600
O 	O 	0.97132 0.74290 0.82206 -1.10200
H 	H 	0.99970 0.79390 0.83390 0.43600
H 	H 	0.94320 0.80740 0.82620 0.40300
Mn	Mn	0.47577 0.96397 0.85671 1.17300
C 	C 	0.58670 0.02550 0.81020 0.38800
C 	C 	0.64950 0.07690 0.81093 -0.13700
C 	C 	0.67840 0.12210 0.85127 0.07600
H 	H 	0.65910 0.11520 0.87790 0.01700
C 	C 	0.73540 0.17710 0.85271 -0.12700
C 	C 	0.76460 0.18290 0.81241 0.01700
H 	H 	0.80320 0.21920 0.81310 0.01500
C 	C 	0.73680 0.13560 0.77182 -0.03100
C 	C 	0.67890 0.08540 0.77134 0.02100
H 	H 	0.65940 0.05700 0.74400 0.01200
C 	C 	0.76870 0.13600 0.72935 0.00600
C 	C 	0.74170 0.18940 0.68841 -0.02500
H 	H 	0.70360 0.23020 0.68770 0.03300
C 	C 	0.77090 0.18300 0.64832 -0.08300
C 	C 	0.82800 0.11990 0.64976 0.02800
H 	H 	0.84780 0.11380 0.62330 0.03100
C 	C 	0.85550 0.06600 0.69064 -0.09200
C 	C 	0.82530 0.07630 0.72956 -0.02000
H 	H 	0.84380 0.04190 0.75680 0.03600
C 	C 	0.74080 0.23940 0.60471 0.30800
C 	C 	0.91530 0.98950 0.69181 0.33800
C 	C 	0.76450 0.23010 0.89707 0.38000
O 	O 	0.55762 0.03630 0.77259 -0.47800
O 	O 	0.56597 0.97970 0.84689 -0.50500
O 	O 	0.73189 0.24480 0.92985 -0.49100
O 	O 	0.81796 0.25230 0.90000 -0.36100
O 	O 	0.93884 0.95380 0.73021 -0.42900
O 	O 	0.93935 0.95740 0.65551 -0.35300
O 	O 	0.77134 0.26260 0.57094 -0.30000
O 	O 	0.68721 0.26430 0.60330 -0.30900
O 	O 	0.47132 0.24290 0.82206 -1.10700
H 	H 	0.49970 0.29390 0.83390 0.41200
H 	H 	0.44320 0.30740 0.82620 0.39700
Mn	Mn	0.00000 0.24979 0.25000 1.29700
Mn	Mn	0.50000 0.74979 0.25000 1.31800
Mn	Mn	0.00000 0.75021 0.75000 1.29700
Mn	Mn	0.50000 0.25021 0.75000 1.31800
Mn	Mn	0.25000 0.25000 0.50000 1.19600
Mn	Mn	0.75000 0.25000 -0.00000 1.18700
Mn	Mn	0.75000 0.75000 0.50000 1.19900
Mn	Mn	0.25000 0.75000 -0.00000 1.18400
