data_crystal

_cell_length_a 15.25610
_cell_length_b 15.25610
_cell_length_c 28.08600
_cell_angle_alpha 91.11050
_cell_angle_beta  91.11050
_cell_angle_gamma 36.69650

_symmetry_space_group_name_	'P 1'
_symmetry_space_group_name_H-M	'P 1'

loop_
_symmetry_equiv_pos_as_xyz
  x,y,z

loop_
_atom_site_label
_atom_site_type_symbol
_atom_site_fract_x
_atom_site_fract_y
_atom_site_fract_z
_atom_site_charge
Bi	Bi	0.56274 0.62944 0.03869 1.90100
Bi	Bi	0.75792 0.67495 0.01576 1.88700
Bi	Bi	0.44929 0.61663 0.14446 1.91400
O 	O 	0.64527 0.95430 0.03030 -0.30200
O 	O 	0.55631 0.88883 0.04350 -0.52200
O 	O 	0.18470 1.24936 0.10334 -0.23500
O 	O 	0.12726 0.35236 0.03261 -0.51700
O 	O 	0.03724 0.55701 0.11302 -0.26500
O 	O 	1.15887 0.58267 0.10743 -0.22100
O 	O 	0.36899 0.26378 0.03767 -0.43500
O 	O 	0.62793 0.54183 0.11045 -0.70900
O 	O 	0.70068 0.62532 0.12247 -0.42200
O 	O 	0.38640 0.76046 0.20062 -0.44700
O 	O 	0.49380 0.78533 0.24273 -0.21400
O 	O 	0.54608 0.57455 0.34724 -0.52300
O 	O 	0.54321 0.48657 0.28770 -0.40000
O 	O 	0.59681 0.49786 0.20426 -0.33100
O 	O 	0.74780 0.54374 1.00614 -0.74500
O 	O 	0.98116 0.34634 0.97946 -0.32200
O 	O 	0.55790 0.56371 0.96831 -0.43700
O 	O 	0.73753 0.35803 0.92332 -0.26700
O 	O 	0.64007 0.26740 0.95514 -0.63900
O 	O 	0.66365 0.19528 0.02581 -0.41300
O 	O 	0.66621 0.42012 0.04409 -0.46200
O 	O 	0.65228 0.38556 0.14396 -0.32300
C 	C 	0.56533 0.97148 0.05357 0.32400
C 	C 	0.48175 1.07740 0.09464 -0.25800
H 	H 	0.55774 0.06165 0.11410 0.11800
H 	H 	0.45595 1.04555 0.12016 0.09900
C 	C 	0.34045 0.24017 0.07955 0.15900
C 	C 	0.21585 0.27636 0.07243 0.21900
C 	C 	0.30091 0.33841 0.11998 -0.24200
H 	H 	0.29409 0.30973 0.15454 0.09700
H 	H 	0.39077 0.31547 0.12358 0.08700
C 	C 	0.15873 0.50034 0.11230 0.32200
C 	C 	0.69163 0.55883 0.13833 0.33900
C 	C 	0.75338 0.49288 0.18769 -0.27600
H 	H 	0.79710 0.52011 0.20341 0.11000
H 	H 	0.84694 0.37155 0.18404 0.10900
C 	C 	0.63917 0.54583 0.22160 0.14400
C 	C 	0.50427 0.70552 0.22261 0.19900
C 	C 	0.69924 0.48514 0.27287 -0.22300
H 	H 	0.71896 0.53367 0.29099 0.09300
H 	H 	0.80589 0.36449 0.27106 0.09200
C 	C 	0.59508 0.51423 0.30206 0.32000
C 	C 	0.88050 0.39219 1.00036 0.37000
C 	C 	0.90076 0.28347 1.01735 -0.31300
H 	H 	0.92296 0.26856 0.05632 0.09700
H 	H 	1.00145 0.17542 1.00042 0.12400
C 	C 	0.76783 0.32847 1.00730 0.18300
C 	C 	0.68881 0.41448 0.96271 0.18600
C 	C 	0.82221 0.18863 1.00560 -0.30700
H 	H 	0.90416 0.11729 0.97693 0.10400
H 	H 	0.87427 0.13198 0.04037 0.09700
C 	C 	0.70765 0.21244 0.99453 0.44200
O 	O 	0.23192 0.95700 0.87784 -0.20600
K 	K 	0.37849 0.71587 0.89500 0.67300
N 	N 	0.93804 -0.00349 0.86353 -0.26300
Bi	Bi	0.36564 0.47210 0.45275 1.89800
Bi	Bi	0.20409 0.44376 0.52114 1.87400
Bi	Bi	0.40957 0.56865 0.34727 1.92300
O 	O 	0.20762 0.34259 0.42344 -0.27800
O 	O 	0.04013 0.50369 0.48196 -0.53800
O 	O 	-0.22373 0.79992 0.40284 -0.20600
O 	O 	0.71505 0.81751 0.47800 -0.44800
O 	O 	0.49113 0.93040 0.39011 -0.19400
O 	O 	0.46025 -0.18685 0.39338 -0.20000
O 	O 	0.80187 0.57687 0.46297 -0.44000
O 	O 	0.40932 0.43742 0.37612 -0.68200
O 	O 	0.21113 0.50507 0.36978 -0.35700
O 	O 	0.22564 0.72294 0.29942 -0.45900
O 	O 	0.09623 0.72650 0.25638 -0.20500
O 	O 	0.53044 0.42629 0.16755 -0.43000
O 	O 	0.30695 0.63774 0.17808 -0.49100
O 	O 	0.46845 0.44512 0.28483 -0.30800
O 	O 	0.38761 0.32204 0.47590 -0.74600
O 	O 	0.54640 0.10964 0.51772 -0.27600
O 	O 	0.42977 0.46702 0.52479 -0.50700
O 	O 	0.60948 0.26894 0.57212 -0.29100
O 	O 	0.74213 0.33188 0.54055 -0.63400
O 	O 	0.85418 0.26626 0.47333 -0.40700
O 	O 	0.58835 0.33237 0.45147 -0.47300
O 	O 	0.61907 0.34626 0.36085 -0.41700
C 	C 	0.08041 0.44060 0.43660 0.34900
C 	C 	-0.03263 0.49297 0.40316 -0.25400
H 	H 	0.99759 0.39930 0.39547 0.12600
H 	H 	-0.02565 0.52317 0.36909 0.10800
C 	C 	0.80836 0.62451 0.42226 0.16200
C 	C 	0.76665 0.75201 0.43340 0.19600
C 	C 	0.70657 0.66680 0.38261 -0.23500
H 	H 	0.73357 0.67406 0.34768 0.10000
H 	H 	0.72838 0.57774 0.37913 0.09500
C 	C 	0.54520 0.81031 0.39015 0.31000
C 	C 	0.31542 0.45551 0.35024 0.31300
C 	C 	0.34054 0.41481 0.29814 -0.26600
H 	H 	0.25158 0.44269 0.28407 0.11200
H 	H 	0.44550 0.29399 0.29494 0.11400
C 	C 	0.34871 0.49159 0.26834 0.12900
C 	C 	0.21362 0.65453 0.27404 0.19900
C 	C 	0.37239 0.44909 0.21490 -0.23300
H 	H 	0.27666 0.48905 0.20026 0.10300
H 	H 	0.47021 0.32758 0.21134 0.09400
C 	C 	0.39779 0.50913 0.18566 0.35700
C 	C 	0.52981 0.18507 0.49154 0.35200
C 	C 	0.66545 0.12703 0.47680 -0.31500
H 	H 	0.68083 0.10481 0.43786 0.10900
H 	H 	0.76300 0.01970 0.49456 0.11400
C 	C 	0.65804 0.23300 0.48886 0.16800
C 	C 	0.56787 0.32220 0.53240 0.15800
C 	C 	0.81362 0.14782 0.49491 -0.29000
H 	H 	0.87112 0.07008 0.52502 0.09800
H 	H 	0.87618 0.08380 0.46179 0.10200
C 	C 	0.80938 0.24889 0.50416 0.43500
O 	O 	0.04354 0.75797 0.61130 -0.25700
K 	K 	0.27502 0.63821 0.59861 0.66400
N 	N 	1.02284 0.10224 0.62170 -0.25600
Bi	Bi	0.42496 0.39025 0.95336 1.90500
Bi	Bi	0.22404 0.35031 0.97859 1.88700
Bi	Bi	0.54148 0.40144 0.84620 1.91600
O 	O 	0.32023 0.08079 0.96711 -0.29600
O 	O 	0.42225 0.13202 0.95276 -0.51300
O 	O 	0.76623 -0.19507 0.89145 -0.21600
O 	O 	0.83890 0.69094 0.96111 -0.50000
O 	O 	0.93827 0.48280 0.88195 -0.27000
O 	O 	-0.16773 0.43944 0.88690 -0.21800
O 	O 	0.60853 0.76183 0.95849 -0.44000
O 	O 	0.36799 0.46771 0.88037 -0.71100
O 	O 	0.30944 0.37022 0.86968 -0.42100
O 	O 	0.63202 0.24080 0.79199 -0.44100
O 	O 	0.54823 0.18067 0.75874 -0.21000
O 	O 	0.38127 0.57461 0.67341 -0.42500
O 	O 	0.55293 0.34363 0.67534 -0.48700
O 	O 	0.41336 0.49439 0.78140 -0.34400
O 	O 	0.23774 0.47883 -0.01420 -0.74900
O 	O 	0.00507 0.67605 0.01318 -0.32900
O 	O 	0.42964 0.45717 0.02273 -0.45400
O 	O 	0.25165 0.66185 0.06817 -0.28200
O 	O 	0.34529 0.75708 0.03698 -0.64400
O 	O 	0.33410 0.81145 0.96451 -0.41800
O 	O 	0.31848 0.60115 0.94689 -0.46700
O 	O 	0.33205 0.62993 0.84374 -0.32700
C 	C 	0.40332 0.05774 0.94309 0.31500
C 	C 	0.48112 -0.04737 0.90193 -0.23200
H 	H 	0.40648 0.96155 0.88654 0.10300
H 	H 	0.49643 -0.01086 0.87348 0.09500
C 	C 	0.62918 0.79179 0.91622 0.15300
C 	C 	0.74551 0.76766 0.92233 0.20400
C 	C 	0.67410 0.69041 0.87594 -0.24100
H 	H 	0.67443 0.72395 0.84119 0.09200
H 	H 	0.59005 0.70502 0.87332 0.08500
C 	C 	0.82212 0.52999 0.88280 0.32600
C 	C 	0.31664 0.43718 0.85244 0.32800
C 	C 	0.26511 0.48923 0.80135 -0.28000
H 	H 	0.22781 0.45451 0.78672 0.10700
H 	H 	0.16827 0.61115 0.80157 0.10700
C 	C 	0.38307 0.43206 0.76810 0.14400
C 	C 	0.52410 0.27481 0.77289 0.19700
C 	C 	0.33384 0.46992 0.71510 -0.23200
H 	H 	0.33809 0.39928 0.69926 0.10200
H 	H 	0.21820 0.58542 0.71280 0.09000
C 	C 	0.42648 0.45703 0.68637 0.33300
C 	C 	0.10537 0.63036 -0.00800 0.36800
C 	C 	0.08479 0.73923 -0.02492 -0.30800
H 	H 	0.06021 0.75598 0.93626 0.09000
H 	H 	-0.01452 0.84661 -0.00734 0.11800
C 	C 	0.21884 0.69261 -0.01577 0.17900
C 	C 	0.29904 0.60608 0.02864 0.19300
C 	C 	0.16616 0.83139 -0.01404 -0.30700
H 	H 	0.08468 0.90315 0.01473 0.09900
H 	H 	0.11387 0.88862 0.95129 0.08900
C 	C 	0.28238 0.80532 -0.00324 0.44300
O 	O 	0.71701 0.07766 0.11543 -0.19600
K 	K 	0.59883 0.30458 0.09522 0.67600
N 	N 	0.03991 1.00366 0.12888 -0.25900
Bi	Bi	0.63909 0.53778 0.54388 1.90500
Bi	Bi	0.71799 0.70880 0.52591 1.89500
Bi	Bi	0.59631 0.43919 0.64947 1.91500
O 	O 	0.89403 0.64220 0.60951 -0.34000
O 	O 	0.93053 0.50332 0.55444 -0.51100
O 	O 	1.29613 0.12120 0.56461 -0.21700
O 	O 	0.28483 0.24758 0.51728 -0.37500
O 	O 	0.61525 -0.04432 0.61968 -0.27300
O 	O 	0.54518 1.14934 0.62490 -0.23400
O 	O 	0.24693 0.38409 0.59480 -0.46800
O 	O 	0.57780 0.58398 0.61875 -0.70800
O 	O 	0.73776 0.56941 0.62938 -0.41400
O 	O 	0.76480 0.31423 0.70451 -0.43700
O 	O 	0.88367 0.33637 0.73705 -0.20700
O 	O 	0.44709 0.59752 0.82179 -0.42600
O 	O 	0.67856 0.39823 0.82320 -0.48300
O 	O 	0.52803 0.56029 0.71489 -0.34500
O 	O 	0.57494 0.71412 0.51430 -0.75000
O 	O 	0.39399 0.94749 0.48734 -0.27600
O 	O 	0.55455 0.55092 0.47720 -0.49300
O 	O 	0.35879 0.74733 0.43206 -0.29200
O 	O 	0.22343 0.69573 0.45667 -0.63200
O 	O 	0.17516 0.69658 0.52874 -0.51000
O 	O 	0.41526 0.67265 0.55249 -0.46700
O 	O 	0.37896 0.66343 0.65102 -0.32600
C 	C 	0.96737 0.52055 0.59634 0.28200
C 	C 	1.09590 0.38988 0.62631 -0.23900
H 	H 	0.08440 0.43059 0.66220 0.10100
H 	H 	1.08968 0.32290 0.63159 0.09600
C 	C 	0.24638 0.29483 0.60534 0.15500
C 	C 	0.27787 0.21477 0.56151 0.17700
C 	C 	0.36652 0.18252 0.64358 -0.24500
H 	H 	0.37000 0.10892 0.65239 0.09300
H 	H 	0.33930 0.24056 0.67709 0.10300
C 	C 	0.51616 0.09156 0.62835 0.35400
C 	C 	0.64448 0.59728 0.64664 0.31900
C 	C 	0.60173 0.64811 0.69786 -0.28000
H 	H 	0.66650 0.65224 0.71282 0.10700
H 	H 	0.48428 0.76171 0.69865 0.10100
C 	C 	0.62467 0.54927 0.72928 0.14800
C 	C 	0.76933 0.39381 0.72345 0.19400
C 	C 	0.59889 0.59224 0.78260 -0.23700
H 	H 	0.69085 0.55826 0.79745 0.10400
H 	H 	0.49710 0.71339 0.78640 0.08600
C 	C 	0.58039 0.52500 0.81090 0.34000
C 	C 	0.42661 0.85470 0.50836 0.34400
C 	C 	0.30508 0.89441 0.52597 -0.30100
H 	H 	0.29511 0.91381 0.56499 0.08800
H 	H 	0.20019 1.00087 0.50974 0.11800
C 	C 	0.32869 0.77622 0.51581 0.17300
C 	C 	0.41183 0.69316 0.47138 0.19200
C 	C 	0.17765 0.84984 0.51346 -0.30600
H 	H 	0.10702 0.94031 0.48736 0.10400
H 	H 	0.12457 0.89821 0.54888 0.08500
C 	C 	0.18428 0.74915 0.49841 0.44200
O 	O 	0.93592 0.26743 0.37948 -0.21300
K 	K 	0.70838 0.39712 0.40720 0.67300
N 	N 	-0.04317 0.91141 0.37894 -0.25800
N 	N 	0.17118 0.97067 0.30178 -0.26300
N 	N 	0.84026 0.13747 0.24596 -0.27100
N 	N 	0.89081 -0.02016 0.71063 -0.26900
N 	N 	0.17447 0.89353 0.75112 -0.26700
H 	H 	0.85343 0.18116 0.22429 0.11100
H 	H 	0.74206 0.18442 0.23714 0.12900
H 	H 	0.83774 0.16018 0.28160 0.10800
H 	H 	0.15246 0.95660 0.26833 0.09900
H 	H 	0.14428 1.05871 0.30070 0.10600
H 	H 	0.28169 0.87535 0.31102 0.09800
H 	H 	-0.01476 0.84276 0.35253 0.08800
H 	H 	0.03590 0.89751 0.38081 0.05900
H 	H 	-0.04877 0.88479 0.41167 0.06900
H 	H 	1.02178 0.12613 0.58694 0.06300
H 	H 	0.99567 0.17525 0.64519 0.06900
H 	H 	1.12729 -0.00497 0.63008 0.09100
H 	H 	0.92141 -0.08576 0.73831 0.10100
H 	H 	0.80790 0.01643 0.69026 0.12600
H 	H 	0.98149 -0.08119 0.68913 0.09300
H 	H 	0.20223 0.80580 0.74439 0.12500
H 	H 	0.08196 0.98414 0.73108 0.09300
H 	H 	0.26171 0.86385 0.74167 0.10900
H 	H 	0.92129 0.07743 0.86106 0.07600
H 	H 	0.87833 0.02051 0.89212 0.05700
H 	H 	1.04945 -0.10525 0.86887 0.09400
H 	H 	-0.05026 1.11816 0.12911 0.08600
H 	H 	0.08640 0.96496 0.16293 0.06600
H 	H 	0.11746 0.96383 0.10476 0.04400
H 	H 	0.15213 0.92049 0.78730 0.10300
H 	H 	0.85249 0.06999 0.72479 0.10800
H 	H 	0.90339 -0.00696 0.83203 0.07900
H 	H 	0.94662 0.11264 0.62454 0.04200
H 	H 	-0.14506 1.02048 0.37078 0.09600
H 	H 	0.92789 0.02406 0.24078 0.11000
H 	H 	0.10635 0.99196 0.32706 0.08400
H 	H 	0.00605 0.96775 0.11869 0.09100
