data_crystal

_cell_length_a 11.09870
_cell_length_b 17.76800
_cell_length_c 29.15900
_cell_angle_alpha 86.54700
_cell_angle_beta  79.81100
_cell_angle_gamma 73.12300

_symmetry_space_group_name_	'P 1'
_symmetry_space_group_name_H-M	'P 1'

loop_
_symmetry_equiv_pos_as_xyz
  x,y,z

loop_
_atom_site_label
_atom_site_type_symbol
_atom_site_fract_x
_atom_site_fract_y
_atom_site_fract_z
_atom_site_charge
Ce	Ce	0.24277 0.28912 0.62096 2.13600
Ce	Ce	0.55997 0.39014 0.96533 2.14300
Ce	Ce	0.11584 0.50381 0.69075 2.12200
Ce	Ce	0.54586 0.10978 0.96432 2.15000
Ce	Ce	0.10770 0.79502 0.71053 2.13200
Ce	Ce	0.19785 0.01300 0.64330 2.12500
Ce	Ce	0.75723 0.71088 0.37905 2.13500
Ce	Ce	0.44003 0.60986 0.03467 2.14200
Ce	Ce	0.88416 0.49619 0.30925 2.12100
Ce	Ce	0.45414 0.89022 0.03568 2.14900
Ce	Ce	0.89230 0.20498 0.28947 2.13100
Ce	Ce	0.80215 0.98700 0.35670 2.12400
H 	H 	0.98610 0.26380 0.95060 0.02800
H 	H 	0.18050 0.20970 0.97410 0.05800
H 	H 	0.05200 0.03650 0.04010 0.05400
H 	H 	0.85750 0.09160 0.01630 0.03000
H 	H 	0.49720 0.00470 0.69540 0.03700
H 	H 	0.68280 0.94670 0.72310 0.04400
H 	H 	0.85460 0.08760 0.64170 0.02600
H 	H 	0.66850 0.14610 0.61430 0.04200
H 	H 	0.69190 0.62200 0.70680 0.03400
H 	H 	0.49290 0.68030 0.68760 0.05100
H 	H 	0.59250 0.87370 0.64460 0.04500
H 	H 	0.79230 0.81780 0.66550 0.03500
H 	H 	0.25310 0.84300 0.83040 0.02000
H 	H 	0.31270 0.86080 0.90000 0.04900
H 	H 	0.41010 0.05230 0.84700 0.03600
H 	H 	0.34510 0.03500 0.77830 0.02800
H 	H 	0.03380 0.23650 0.42170 0.04000
H 	H 	0.09420 0.25520 0.49200 0.02900
H 	H 	0.96770 0.07640 0.54930 0.03200
H 	H 	0.90870 0.05790 0.47980 0.03000
H 	H 	0.61980 0.28160 0.64420 0.03200
H 	H 	0.82510 0.26650 0.65670 0.05200
H 	H 	0.74130 0.49860 0.67130 0.05300
H 	H 	0.53860 0.51190 0.65890 0.03100
H 	H 	0.59650 0.29940 0.13120 0.04000
H 	H 	0.68470 0.50250 0.10480 0.03000
H 	H 	0.65430 0.29330 0.20420 0.02200
H 	H 	0.74820 0.49410 0.17700 0.02200
H 	H 	0.42800 0.38130 0.83410 0.01800
H 	H 	0.36690 0.39210 0.76160 0.03900
H 	H 	0.25850 0.19370 0.79000 0.04500
H 	H 	0.31020 0.19010 0.86380 0.02600
H 	H 	0.02800 0.60750 0.53300 0.03900
H 	H 	0.97330 0.61880 0.45920 0.02000
H 	H 	0.05420 0.60970 0.01620 0.04200
H 	H 	0.85200 0.62220 0.00290 0.04100
H 	H 	0.40980 0.29520 0.01370 0.26700
H 	H 	0.49200 0.23900 0.03670 0.27800
H 	H 	0.01390 0.73620 0.04940 0.02800
H 	H 	0.81950 0.79030 0.02590 0.05800
H 	H 	0.94800 0.96350 0.95990 0.05400
H 	H 	0.14250 0.90840 0.98370 0.03000
H 	H 	0.50280 0.99530 0.30460 0.03700
H 	H 	0.31720 0.05330 0.27690 0.04400
H 	H 	0.14540 0.91240 0.35830 0.02600
H 	H 	0.33150 0.85390 0.38570 0.04200
H 	H 	0.30810 0.37800 0.29320 0.03400
H 	H 	0.50710 0.31970 0.31240 0.05100
H 	H 	0.40750 0.12630 0.35540 0.04500
H 	H 	0.20770 0.18220 0.33450 0.03500
H 	H 	0.74690 0.15700 0.16960 0.02000
H 	H 	0.68730 0.13920 0.10000 0.04900
H 	H 	0.58990 0.94770 0.15300 0.03600
H 	H 	0.65490 0.96500 0.22170 0.02800
H 	H 	0.96620 0.76350 0.57830 0.04000
H 	H 	0.90580 0.74480 0.50800 0.02900
H 	H 	0.03230 0.92360 0.45070 0.03200
H 	H 	0.09130 0.94210 0.52020 0.03000
H 	H 	0.38020 0.71840 0.35580 0.03200
H 	H 	0.17490 0.73350 0.34330 0.05200
H 	H 	0.25870 0.50140 0.32870 0.05300
H 	H 	0.46140 0.48810 0.34110 0.03100
H 	H 	0.40350 0.70060 0.86880 0.04000
H 	H 	0.31530 0.49750 0.89520 0.03000
H 	H 	0.34570 0.70670 0.79580 0.02200
H 	H 	0.25180 0.50590 0.82300 0.02200
H 	H 	0.57200 0.61870 0.16590 0.01800
H 	H 	0.63310 0.60790 0.23840 0.03900
H 	H 	0.74150 0.80630 0.21000 0.04500
H 	H 	0.68980 0.80990 0.13620 0.02600
H 	H 	0.97200 0.39250 0.46700 0.03900
H 	H 	0.02670 0.38120 0.54080 0.02000
H 	H 	0.94580 0.39030 0.98380 0.04200
H 	H 	0.14800 0.37780 0.99710 0.04100
H 	H 	0.59020 0.70480 0.98630 0.26700
H 	H 	0.50800 0.76100 0.96330 0.27800
C 	C 	0.90210 0.18190 0.98050 -0.14200
C 	C 	0.99960 0.21780 0.96840 0.03000
C 	C 	0.11570 0.18560 0.98250 -0.05400
C 	C 	0.13640 0.11700 0.00950 -0.07700
C 	C 	0.03920 0.08210 0.02200 -0.04100
C 	C 	0.92290 0.11510 0.00750 0.02400
C 	C 	0.78050 0.21280 0.96090 0.46800
C 	C 	0.26520 0.07940 0.02330 0.41000
C 	C 	0.56360 0.08000 0.65140 -0.12000
C 	C 	0.56940 0.02120 0.68430 -0.00800
C 	C 	0.68020 0.98660 0.70080 -0.00800
C 	C 	0.79020 0.01030 0.68460 -0.12100
C 	C 	0.78290 0.07040 0.65240 -0.00200
C 	C 	0.67190 0.10520 0.63600 -0.01200
C 	C 	0.44370 0.11520 0.63150 0.44900
C 	C 	0.91330 0.96840 0.70190 0.44900
C 	C 	0.67230 0.67330 0.69510 0.00800
C 	C 	0.55360 0.70790 0.68290 -0.02900
C 	C 	0.52360 0.78200 0.66390 -0.09400
C 	C 	0.61220 0.82330 0.65750 -0.02300
C 	C 	0.73230 0.78970 0.67030 0.00300
C 	C 	0.76270 0.71520 0.69000 -0.12600
C 	C 	0.39000 0.82140 0.65270 0.42600
C 	C 	0.88850 0.68080 0.70660 0.45600
C 	C 	0.28410 0.88530 0.83370 0.01600
C 	C 	0.32010 0.89590 0.87550 -0.03000
C 	C 	0.36720 0.95850 0.88090 -0.10000
C 	C 	0.37780 0.01040 0.84410 -0.03300
C 	C 	0.33960 0.99940 0.80270 0.02000
C 	C 	0.29390 0.93710 0.79720 -0.14100
C 	C 	0.40650 0.97060 0.92630 0.45800
C 	C 	0.25230 0.92660 0.75220 0.47200
C 	C 	0.02170 0.20380 0.44720 -0.01500
C 	C 	0.05750 0.21510 0.48950 -0.00300
C 	C 	0.03860 0.16710 0.52740 -0.13100
C 	C 	0.98220 0.10840 0.52380 -0.01200
C 	C 	0.94710 0.09730 0.48200 -0.00600
C 	C 	0.96800 0.14330 0.44390 -0.11800
C 	C 	0.08800 0.17480 0.57170 0.45500
C 	C 	0.93310 0.12740 0.39880 0.45400
C 	C 	0.64430 0.32560 0.64950 0.01700
C 	C 	0.76730 0.31640 0.65700 -0.04100
C 	C 	0.80390 0.38180 0.66510 -0.07500
C 	C 	0.71770 0.45430 0.66580 -0.04000
C 	C 	0.59630 0.46200 0.65820 0.02100
C 	C 	0.55760 0.39900 0.64990 -0.13400
C 	C 	0.42740 0.40700 0.63950 0.45000
C 	C 	0.93960 0.37120 0.67350 0.39400
C 	C 	0.62650 0.33890 0.14030 -0.02000
C 	C 	0.63640 0.39980 0.11040 -0.10600
C 	C 	0.68000 0.45990 0.12450 -0.03700
C 	C 	0.66060 0.33520 0.18420 -0.00100
C 	C 	0.60110 0.40400 0.06340 0.39000
C 	C 	0.74520 0.39030 0.24450 0.45000
C 	C 	0.71600 0.45550 0.16800 0.01300
C 	C 	0.70410 0.39450 0.19790 -0.14800
C 	C 	0.41260 0.28110 0.90340 0.43400
C 	C 	0.37360 0.28570 0.85670 -0.14500
C 	C 	0.39160 0.34450 0.82550 0.02000
C 	C 	0.35720 0.35070 0.78170 -0.05000
C 	C 	0.30730 0.29270 0.76850 -0.09100
C 	C 	0.29080 0.23230 0.79890 -0.03400
C 	C 	0.32300 0.23000 0.84300 0.00800
C 	C 	0.27260 0.29630 0.72090 0.37600
C 	C 	0.01670 0.56430 0.51970 -0.00900
C 	C 	0.98390 0.57130 0.47550 -0.01800
C 	C 	0.03290 0.49430 0.54400 -0.11200
C 	C 	0.06810 0.48970 0.59160 0.39900
C 	C 	0.03270 0.56520 0.00960 -0.00700
C 	C 	0.91120 0.57280 0.00180 -0.01500
C 	C 	0.25510 0.48570 0.01700 0.43300
C 	C 	0.12370 0.49280 0.00770 -0.10900
C 	C 	0.09790 0.81810 0.01950 -0.14200
C 	C 	0.00040 0.78220 0.03160 0.03000
C 	C 	0.88430 0.81440 0.01750 -0.05400
C 	C 	0.86360 0.88300 0.99050 -0.07700
C 	C 	0.96080 0.91790 0.97800 -0.04100
C 	C 	0.07710 0.88490 0.99250 0.02400
C 	C 	0.21950 0.78720 0.03910 0.46800
C 	C 	0.73480 0.92060 0.97670 0.41000
C 	C 	0.43640 0.92000 0.34860 -0.12000
C 	C 	0.43060 0.97880 0.31570 -0.00800
C 	C 	0.31980 0.01340 0.29920 -0.00800
C 	C 	0.20980 0.98970 0.31540 -0.12100
C 	C 	0.21710 0.92960 0.34760 -0.00200
C 	C 	0.32810 0.89480 0.36400 -0.01200
C 	C 	0.55630 0.88480 0.36850 0.44900
C 	C 	0.08670 0.03160 0.29810 0.44900
C 	C 	0.32770 0.32670 0.30490 0.00800
C 	C 	0.44640 0.29210 0.31710 -0.02900
C 	C 	0.47640 0.21800 0.33610 -0.09400
C 	C 	0.38780 0.17670 0.34250 -0.02300
C 	C 	0.26770 0.21030 0.32970 0.00300
C 	C 	0.23730 0.28480 0.31000 -0.12600
C 	C 	0.61000 0.17860 0.34730 0.42600
C 	C 	0.11150 0.31920 0.29340 0.45600
C 	C 	0.71590 0.11470 0.16630 0.01600
C 	C 	0.67990 0.10410 0.12450 -0.03000
C 	C 	0.63280 0.04150 0.11910 -0.10000
C 	C 	0.62220 0.98960 0.15590 -0.03300
C 	C 	0.66040 0.00060 0.19730 0.02000
C 	C 	0.70610 0.06290 0.20280 -0.14100
C 	C 	0.59350 0.02940 0.07370 0.45800
C 	C 	0.74770 0.07340 0.24780 0.47200
C 	C 	0.97830 0.79620 0.55280 -0.01500
C 	C 	0.94250 0.78490 0.51050 -0.00300
C 	C 	0.96140 0.83290 0.47260 -0.13100
C 	C 	0.01780 0.89160 0.47620 -0.01200
C 	C 	0.05290 0.90270 0.51800 -0.00600
C 	C 	0.03200 0.85670 0.55610 -0.11800
C 	C 	0.91200 0.82520 0.42830 0.45500
C 	C 	0.06690 0.87260 0.60120 0.45400
C 	C 	0.35570 0.67440 0.35050 0.01700
C 	C 	0.23270 0.68360 0.34300 -0.04100
C 	C 	0.19610 0.61820 0.33490 -0.07500
C 	C 	0.28230 0.54570 0.33420 -0.04000
C 	C 	0.40370 0.53800 0.34180 0.02100
C 	C 	0.44240 0.60100 0.35010 -0.13400
C 	C 	0.57260 0.59300 0.36050 0.45000
C 	C 	0.06040 0.62880 0.32650 0.39400
C 	C 	0.37350 0.66110 0.85970 -0.02000
C 	C 	0.36360 0.60020 0.88960 -0.10600
C 	C 	0.32000 0.54010 0.87550 -0.03700
C 	C 	0.33940 0.66480 0.81580 -0.00100
C 	C 	0.39890 0.59600 0.93660 0.39000
C 	C 	0.25480 0.60970 0.75550 0.45000
C 	C 	0.28400 0.54450 0.83200 0.01300
C 	C 	0.29590 0.60550 0.80210 -0.14800
C 	C 	0.58740 0.71890 0.09660 0.43400
C 	C 	0.62640 0.71430 0.14330 -0.14500
C 	C 	0.60840 0.65550 0.17450 0.02000
C 	C 	0.64280 0.64930 0.21830 -0.05000
C 	C 	0.69270 0.70730 0.23150 -0.09100
C 	C 	0.70920 0.76770 0.20110 -0.03400
C 	C 	0.67700 0.77000 0.15700 0.00800
C 	C 	0.72740 0.70370 0.27910 0.37600
C 	C 	0.98330 0.43570 0.48030 -0.00900
C 	C 	0.01610 0.42870 0.52450 -0.01800
C 	C 	0.96710 0.50570 0.45600 -0.11200
C 	C 	0.93190 0.51030 0.40840 0.39900
C 	C 	0.96730 0.43480 0.99040 -0.00700
C 	C 	0.08880 0.42720 0.99820 -0.01500
C 	C 	0.74490 0.51430 0.98300 0.43300
C 	C 	0.87630 0.50720 0.99230 -0.10900
O 	O 	0.71910 0.16480 0.95820 -0.55100
O 	O 	0.75030 0.28140 0.94600 -0.53300
O 	O 	0.34680 0.11700 0.01440 -0.51100
O 	O 	0.28180 0.01490 0.04410 -0.50700
O 	O 	0.43130 0.17620 0.60720 -0.52900
O 	O 	0.35940 0.08060 0.63910 -0.57900
O 	O 	0.00350 0.99580 0.68980 -0.57200
O 	O 	0.91690 0.90930 0.72710 -0.51400
O 	O 	0.37100 0.88930 0.63600 -0.52300
O 	O 	0.31110 0.78310 0.65980 -0.52400
O 	O 	0.92320 0.61010 0.71419 -0.55100
O 	O 	0.94600 0.73000 0.71390 -0.56500
O 	O 	0.25880 0.97690 0.72100 -0.52600
O 	O 	0.44750 0.02670 0.92940 -0.56000
O 	O 	0.39500 0.92120 0.95830 -0.50900
O 	O 	0.88760 0.07100 0.39860 -0.54000
O 	O 	0.95270 0.17090 0.36490 -0.54000
O 	O 	0.07250 0.12630 0.60320 -0.56000
O 	O 	0.13820 0.22750 0.57340 -0.55900
O 	O 	0.34340 0.46980 0.65040 -0.51700
O 	O 	0.41070 0.35140 0.62010 -0.53200
O 	O 	0.02460 0.30920 0.66410 -0.50900
O 	O 	0.95420 0.43290 0.69040 -0.49200
O 	O 	0.62780 0.34070 0.04170 -0.45900
O 	O 	0.54730 0.46860 0.04620 -0.60400
O 	O 	0.74710 0.32990 0.26890 -0.55000
O 	O 	0.77550 0.44690 0.25650 -0.55200
O 	O 	0.45390 0.33470 0.91440 -0.53200
O 	O 	0.40360 0.22270 0.92870 -0.50800
O 	O 	0.28900 0.23370 0.70060 -0.46300
O 	O 	0.22870 0.36260 0.70177 -0.60500
O 	O 	0.03210 0.55040 0.61550 -0.48000
O 	O 	0.12970 0.42400 0.60662 -0.61500
O 	O 	0.33910 0.42310 0.00700 -0.52100
O 	O 	0.27010 0.54430 0.03450 -0.50500
O 	O 	0.21070 0.87000 0.74910 -0.56600
O 	O 	0.47920 0.25510 0.00840 -0.75200
O 	O 	0.28090 0.83520 0.04180 -0.55100
O 	O 	0.24970 0.71860 0.05400 -0.53300
O 	O 	0.65320 0.88300 0.98560 -0.51100
O 	O 	0.71820 0.98510 0.95590 -0.50700
O 	O 	0.56870 0.82380 0.39280 -0.52900
O 	O 	0.64060 0.91940 0.36090 -0.57900
O 	O 	0.99650 0.00420 0.31020 -0.57200
O 	O 	0.08310 0.09070 0.27290 -0.51400
O 	O 	0.62900 0.11070 0.36400 -0.52300
O 	O 	0.68890 0.21690 0.34020 -0.52400
O 	O 	0.07680 0.38990 0.28581 -0.55100
O 	O 	0.05400 0.27000 0.28610 -0.56500
O 	O 	0.74120 0.02310 0.27900 -0.52600
O 	O 	0.55250 0.97330 0.07060 -0.56000
O 	O 	0.60500 0.07880 0.04170 -0.50900
O 	O 	0.11240 0.92900 0.60140 -0.54000
O 	O 	0.04730 0.82910 0.63510 -0.54000
O 	O 	0.92750 0.87370 0.39680 -0.56000
O 	O 	0.86180 0.77250 0.42660 -0.55900
O 	O 	0.65660 0.53020 0.34960 -0.51700
O 	O 	0.58930 0.64860 0.37990 -0.53200
O 	O 	0.97540 0.69080 0.33590 -0.50900
O 	O 	0.04580 0.56710 0.30960 -0.49200
O 	O 	0.37220 0.65930 0.95830 -0.45900
O 	O 	0.45270 0.53140 0.95380 -0.60400
O 	O 	0.25290 0.67010 0.73110 -0.55000
O 	O 	0.22450 0.55310 0.74350 -0.55200
O 	O 	0.54610 0.66530 0.08560 -0.53200
O 	O 	0.59640 0.77730 0.07130 -0.50800
O 	O 	0.71100 0.76630 0.29940 -0.46300
O 	O 	0.77130 0.63740 0.29823 -0.60500
O 	O 	0.96790 0.44960 0.38450 -0.48000
O 	O 	0.87030 0.57600 0.39338 -0.61500
O 	O 	0.66090 0.57690 0.99300 -0.52100
O 	O 	0.72990 0.45570 0.96550 -0.50500
O 	O 	0.78930 0.13000 0.25090 -0.56600
O 	O 	0.52080 0.74490 0.99160 -0.75200
