data_crystal

_cell_length_a 16.10440
_cell_length_b 16.10440
_cell_length_c 27.91900
_cell_angle_alpha 79.89870
_cell_angle_beta  79.89870
_cell_angle_gamma 63.14600

_symmetry_space_group_name_	'P 1'
_symmetry_space_group_name_H-M	'P 1'

loop_
_symmetry_equiv_pos_as_xyz
  x,y,z

loop_
_atom_site_label
_atom_site_type_symbol
_atom_site_fract_x
_atom_site_fract_y
_atom_site_fract_z
_atom_site_charge
Eu	Eu	0.53134 0.06657 0.04609 1.84000
Eu	Eu	0.93343 0.46866 0.45391 1.84300
Eu	Eu	0.46866 0.93343 0.95391 1.84000
Eu	Eu	0.06657 0.53134 0.54609 1.84300
H 	H 	0.63320 0.06560 0.20330 0.02000
H 	H 	0.70740 0.10660 0.25360 0.10000
H 	H 	0.84180 0.19380 0.13350 0.09900
H 	H 	0.75940 0.16100 0.08560 0.02000
H 	H 	0.67510 0.17250 0.91020 -0.02200
H 	H 	0.73850 0.23310 0.84130 0.13500
H 	H 	0.63290 0.13470 0.75740 0.11700
H 	H 	0.56950 0.06790 0.82920 -0.00900
H 	H 	0.17590 0.21070 0.94440 -0.00700
H 	H 	0.05090 0.35430 0.95690 0.12200
H 	H 	0.19280 0.41160 0.03960 0.12900
H 	H 	0.31790 0.26850 0.03100 -0.08000
H 	H 	0.93440 0.36680 0.29670 0.02000
H 	H 	0.89340 0.29260 0.24640 0.10000
H 	H 	0.80620 0.15820 0.36650 0.09900
H 	H 	0.83900 0.24060 0.41440 0.02000
H 	H 	0.82750 0.32490 0.58980 -0.02300
H 	H 	0.76690 0.26150 0.65870 0.13500
H 	H 	0.86530 0.36710 0.74260 0.11700
H 	H 	0.93210 0.43050 0.67080 -0.01000
H 	H 	0.78930 0.82410 0.55560 -0.00800
H 	H 	0.64570 0.94910 0.54310 0.12300
H 	H 	0.58840 0.80720 0.46040 0.12900
H 	H 	0.73150 0.68210 0.46900 -0.08100
H 	H 	0.36680 0.93440 0.79670 0.02000
H 	H 	0.29260 0.89340 0.74640 0.10000
H 	H 	0.15820 0.80620 0.86650 0.09900
H 	H 	0.24060 0.83900 0.91440 0.02000
H 	H 	0.32490 0.82750 0.08980 -0.02200
H 	H 	0.26150 0.76690 0.15870 0.13500
H 	H 	0.36710 0.86530 0.24260 0.11700
H 	H 	0.43050 0.93210 0.17080 -0.00900
H 	H 	0.82410 0.78930 0.05560 -0.00700
H 	H 	0.94910 0.64570 0.04310 0.12200
H 	H 	0.80720 0.58840 0.96040 0.12900
H 	H 	0.68210 0.73150 0.96900 -0.08000
H 	H 	0.06560 0.63320 0.70330 0.02000
H 	H 	0.10660 0.70740 0.75360 0.10000
H 	H 	0.19380 0.84180 0.63350 0.09900
H 	H 	0.16100 0.75940 0.58560 0.02000
H 	H 	0.17250 0.67510 0.41020 -0.02300
H 	H 	0.23310 0.73850 0.34130 0.13500
H 	H 	0.13470 0.63290 0.25740 0.11700
H 	H 	0.06790 0.56950 0.32920 -0.01000
H 	H 	0.21070 0.17590 0.44440 -0.00800
H 	H 	0.35430 0.05090 0.45690 0.12300
H 	H 	0.41160 0.19280 0.53960 0.12900
H 	H 	0.26850 0.31790 0.53100 -0.08100
C 	C 	0.64531 0.07611 0.11000 0.32400
C 	C 	0.70513 0.09217 0.13885 -0.12200
C 	C 	0.67801 0.08701 0.18987 0.06000
C 	C 	0.71990 0.11480 0.21970 -0.16700
C 	C 	0.77995 0.15455 0.19899 0.15600
C 	C 	0.80024 0.16860 0.14748 -0.17200
C 	C 	0.75568 0.14332 0.11917 0.07400
C 	C 	0.57842 0.07616 0.92317 0.48200
C 	C 	0.61811 0.11305 0.87701 -0.23300
C 	C 	0.66732 0.16332 0.87958 0.17300
C 	C 	0.70502 0.20002 0.83870 -0.27100
C 	C 	0.69283 0.18763 0.79534 0.22100
C 	C 	0.64155 0.14017 0.78854 -0.22800
C 	C 	0.60327 0.10071 0.83152 0.14300
C 	C 	0.33559 0.12951 0.98095 0.50200
C 	C 	0.25944 0.22300 0.98745 -0.25600
C 	C 	0.17918 0.24978 0.96412 0.16000
C 	C 	0.10525 0.33585 0.97145 -0.23600
C 	C 	0.11007 0.39799 0.00114 0.23100
C 	C 	0.18881 0.37081 0.02126 -0.28800
C 	C 	0.26448 0.28528 0.01608 0.19600
C 	C 	0.92389 0.35469 0.39000 0.32400
C 	C 	0.90783 0.29487 0.36115 -0.12200
C 	C 	0.91299 0.32199 0.31013 0.06000
C 	C 	0.88520 0.28010 0.28030 -0.16700
C 	C 	0.84545 0.22005 0.30101 0.15600
C 	C 	0.83140 0.19976 0.35252 -0.17200
C 	C 	0.85668 0.24432 0.38083 0.07400
C 	C 	0.92384 0.42158 0.57683 0.48300
C 	C 	0.88695 0.38189 0.62299 -0.23400
C 	C 	0.83668 0.33268 0.62042 0.17300
C 	C 	0.79998 0.29498 0.66130 -0.27100
C 	C 	0.81237 0.30717 0.70466 0.22100
C 	C 	0.85983 0.35845 0.71146 -0.22900
C 	C 	0.89929 0.39673 0.66848 0.14300
C 	C 	0.87049 0.66441 0.51905 0.50100
C 	C 	0.77700 0.74056 0.51255 -0.25800
C 	C 	0.75022 0.82082 0.53588 0.16100
C 	C 	0.66415 0.89475 0.52855 -0.23700
C 	C 	0.60201 0.88993 0.49886 0.23200
C 	C 	0.62919 0.81119 0.47874 -0.29000
C 	C 	0.71472 0.73552 0.48392 0.19800
C 	C 	0.35469 0.92389 0.89000 0.32400
C 	C 	0.29487 0.90783 0.86115 -0.12200
C 	C 	0.32199 0.91299 0.81013 0.06000
C 	C 	0.28010 0.88520 0.78030 -0.16700
C 	C 	0.22005 0.84545 0.80101 0.15600
C 	C 	0.19976 0.83140 0.85252 -0.17200
C 	C 	0.24432 0.85668 0.88083 0.07400
C 	C 	0.42158 0.92384 0.07683 0.48200
C 	C 	0.38189 0.88695 0.12299 -0.23300
C 	C 	0.33268 0.83668 0.12042 0.17300
C 	C 	0.29498 0.79998 0.16130 -0.27100
C 	C 	0.30717 0.81237 0.20466 0.22100
C 	C 	0.35845 0.85983 0.21146 -0.22800
C 	C 	0.39673 0.89929 0.16848 0.14300
C 	C 	0.66441 0.87049 0.01905 0.50200
C 	C 	0.74056 0.77700 0.01255 -0.25600
C 	C 	0.82082 0.75022 0.03588 0.16000
C 	C 	0.89475 0.66415 0.02855 -0.23600
C 	C 	0.88993 0.60201 0.99886 0.23100
C 	C 	0.81119 0.62919 0.97874 -0.28800
C 	C 	0.73552 0.71472 0.98392 0.19600
C 	C 	0.07611 0.64531 0.61000 0.32400
C 	C 	0.09217 0.70513 0.63885 -0.12200
C 	C 	0.08701 0.67801 0.68987 0.06000
C 	C 	0.11480 0.71990 0.71970 -0.16700
C 	C 	0.15455 0.77995 0.69899 0.15600
C 	C 	0.16860 0.80024 0.64748 -0.17200
C 	C 	0.14332 0.75568 0.61917 0.07400
C 	C 	0.07616 0.57842 0.42317 0.48300
C 	C 	0.11305 0.61811 0.37701 -0.23400
C 	C 	0.16332 0.66732 0.37958 0.17300
C 	C 	0.20002 0.70502 0.33870 -0.27100
C 	C 	0.18763 0.69283 0.29534 0.22100
C 	C 	0.14017 0.64155 0.28854 -0.22900
C 	C 	0.10071 0.60327 0.33152 0.14300
C 	C 	0.12951 0.33559 0.48095 0.50100
C 	C 	0.22300 0.25944 0.48745 -0.25800
C 	C 	0.24978 0.17918 0.46412 0.16100
C 	C 	0.33585 0.10525 0.47145 -0.23700
C 	C 	0.39799 0.11007 0.50114 0.23200
C 	C 	0.37081 0.18881 0.52126 -0.29000
C 	C 	0.28528 0.26448 0.51608 0.19800
N 	N 	0.81996 0.19094 0.22532 -0.10200
N 	N 	0.72372 0.22590 0.75093 -0.11400
N 	N 	0.04436 0.48418 0.00520 -0.12200
N 	N 	0.80906 0.18004 0.27468 -0.10200
N 	N 	0.77410 0.27628 0.74907 -0.11400
N 	N 	0.51582 0.95564 0.49480 -0.12300
N 	N 	0.18004 0.80906 0.77468 -0.10200
N 	N 	0.27628 0.77410 0.24907 -0.11400
N 	N 	0.95564 0.51582 0.99480 -0.12200
N 	N 	0.19094 0.81996 0.72532 -0.10200
N 	N 	0.22590 0.72372 0.25093 -0.11400
N 	N 	0.48418 0.04436 0.50520 -0.12300
O 	O 	0.59076 0.04176 0.12591 -0.42100
O 	O 	0.65647 0.10377 0.06337 -0.40000
O 	O 	0.59233 0.08465 0.96484 -0.51500
O 	O 	0.53102 0.03640 0.91389 -0.50600
O 	O 	0.40294 0.10378 0.00293 -0.59000
O 	O 	0.32488 0.07948 0.95382 -0.44000
O 	O 	0.95824 0.40924 0.37409 -0.42100
O 	O 	0.89623 0.34353 0.43663 -0.39900
O 	O 	0.91535 0.40767 0.53516 -0.51600
O 	O 	0.96360 0.46898 0.58611 -0.50800
O 	O 	0.89622 0.59706 0.49707 -0.58900
O 	O 	0.92052 0.67512 0.54618 -0.44100
O 	O 	0.40924 0.95824 0.87409 -0.42100
O 	O 	0.34353 0.89623 0.93663 -0.40000
O 	O 	0.40767 0.91535 0.03516 -0.51500
O 	O 	0.46898 0.96360 0.08611 -0.50600
O 	O 	0.59706 0.89622 0.99707 -0.59000
O 	O 	0.67512 0.92052 0.04618 -0.44000
O 	O 	0.04176 0.59076 0.62591 -0.42100
O 	O 	0.10377 0.65647 0.56337 -0.39900
O 	O 	0.08465 0.59233 0.46484 -0.51600
O 	O 	0.03640 0.53102 0.41389 -0.50800
O 	O 	0.10378 0.40294 0.50293 -0.58900
O 	O 	0.07948 0.32488 0.45382 -0.44100
