data_crystal

_cell_length_a 16.10860
_cell_length_b 16.10860
_cell_length_c 27.96320
_cell_angle_alpha 79.97990
_cell_angle_beta  79.97990
_cell_angle_gamma 63.01880

_symmetry_space_group_name_	'P 1'
_symmetry_space_group_name_H-M	'P 1'

loop_
_symmetry_equiv_pos_as_xyz
  x,y,z

loop_
_atom_site_label
_atom_site_type_symbol
_atom_site_fract_x
_atom_site_fract_y
_atom_site_fract_z
_atom_site_charge
Sm	Sm	0.53125 0.06657 0.04610 1.93800
Sm	Sm	0.93343 0.46875 0.45390 1.94100
Sm	Sm	0.46875 0.93343 0.95390 1.93800
Sm	Sm	0.06657 0.53125 0.54610 1.94100
H 	H 	0.63320 0.06500 0.20280 0.02200
H 	H 	0.70760 0.10620 0.25370 0.09800
H 	H 	0.84060 0.19500 0.13370 0.09600
H 	H 	0.75990 0.16010 0.08550 0.02200
H 	H 	0.32570 0.82710 0.09000 -0.02500
H 	H 	0.26120 0.76760 0.15830 0.13500
H 	H 	0.36760 0.86500 0.24240 0.11500
H 	H 	0.42910 0.93370 0.17070 -0.01000
H 	H 	0.82330 0.78910 0.05610 -0.00900
H 	H 	0.94970 0.64650 0.04280 0.12300
H 	H 	0.80640 0.58800 0.96110 0.13100
H 	H 	0.68200 0.73220 0.96890 -0.08800
H 	H 	0.93500 0.36680 0.29720 0.02200
H 	H 	0.89380 0.29240 0.24630 0.09800
H 	H 	0.80500 0.15940 0.36630 0.09600
H 	H 	0.83990 0.24010 0.41450 0.02200
H 	H 	0.17290 0.67430 0.41000 -0.02500
H 	H 	0.23240 0.73880 0.34170 0.13500
H 	H 	0.13500 0.63240 0.25760 0.11500
H 	H 	0.06630 0.57090 0.32930 -0.01000
H 	H 	0.21090 0.17670 0.44390 -0.01000
H 	H 	0.35350 0.05030 0.45720 0.12400
H 	H 	0.41200 0.19360 0.53890 0.13200
H 	H 	0.26780 0.31800 0.53110 -0.08900
H 	H 	0.36680 0.93500 0.79720 0.02200
H 	H 	0.29240 0.89380 0.74630 0.09800
H 	H 	0.15940 0.80500 0.86630 0.09600
H 	H 	0.24010 0.83990 0.91450 0.02200
H 	H 	0.67430 0.17290 0.91000 -0.02500
H 	H 	0.73880 0.23240 0.84170 0.13500
H 	H 	0.63240 0.13500 0.75760 0.11500
H 	H 	0.57090 0.06630 0.82930 -0.01000
H 	H 	0.17670 0.21090 0.94390 -0.00900
H 	H 	0.05030 0.35350 0.95720 0.12300
H 	H 	0.19360 0.41200 0.03890 0.13100
H 	H 	0.31800 0.26780 0.03110 -0.08800
H 	H 	0.06500 0.63320 0.70280 0.02200
H 	H 	0.10620 0.70760 0.75370 0.09800
H 	H 	0.19500 0.84060 0.63370 0.09600
H 	H 	0.16010 0.75990 0.58550 0.02200
H 	H 	0.82710 0.32570 0.59000 -0.02500
H 	H 	0.76760 0.26120 0.65830 0.13500
H 	H 	0.86500 0.36760 0.74240 0.11500
H 	H 	0.93370 0.42910 0.67070 -0.01000
H 	H 	0.78910 0.82330 0.55610 -0.01000
H 	H 	0.64650 0.94970 0.54280 0.12400
H 	H 	0.58800 0.80640 0.46110 0.13200
H 	H 	0.73220 0.68200 0.46890 -0.08900
C 	C 	0.64529 0.07709 0.10971 0.31400
C 	C 	0.70540 0.09220 0.13885 -0.11500
C 	C 	0.67793 0.08653 0.18965 0.05200
C 	C 	0.71993 0.11453 0.21991 -0.16200
C 	C 	0.77960 0.15420 0.19912 0.15100
C 	C 	0.79958 0.16898 0.14747 -0.16500
C 	C 	0.75581 0.14301 0.11908 0.06600
C 	C 	0.42113 0.92393 0.07698 0.48400
C 	C 	0.38147 0.88707 0.12269 -0.23700
C 	C 	0.33298 0.83678 0.12057 0.17700
C 	C 	0.29481 0.80021 0.16113 -0.27000
C 	C 	0.30707 0.81227 0.20493 0.21700
C 	C 	0.35839 0.85979 0.21140 -0.22600
C 	C 	0.39610 0.90010 0.16837 0.14000
C 	C 	0.66537 0.87017 0.01899 0.50400
C 	C 	0.74074 0.77674 0.01253 -0.26500
C 	C 	0.82067 0.75007 0.03603 0.16600
C 	C 	0.89520 0.66460 0.02860 -0.23800
C 	C 	0.88955 0.60215 0.99860 0.23300
C 	C 	0.81084 0.62904 0.97900 -0.29900
C 	C 	0.73537 0.71497 0.98395 0.20700
C 	C 	0.92291 0.35471 0.39029 0.31400
C 	C 	0.90780 0.29460 0.36115 -0.11500
C 	C 	0.91347 0.32207 0.31035 0.05200
C 	C 	0.88547 0.28007 0.28009 -0.16200
C 	C 	0.84580 0.22040 0.30088 0.15000
C 	C 	0.83102 0.20042 0.35253 -0.16500
C 	C 	0.85699 0.24419 0.38092 0.06600
C 	C 	0.07607 0.57887 0.42302 0.48400
C 	C 	0.11293 0.61853 0.37731 -0.23800
C 	C 	0.16322 0.66702 0.37943 0.17800
C 	C 	0.19979 0.70519 0.33887 -0.27100
C 	C 	0.18773 0.69293 0.29507 0.21800
C 	C 	0.14021 0.64161 0.28860 -0.22600
C 	C 	0.09990 0.60390 0.33163 0.14000
C 	C 	0.12983 0.33463 0.48101 0.50300
C 	C 	0.22326 0.25926 0.48747 -0.26700
C 	C 	0.24993 0.17933 0.46397 0.16700
C 	C 	0.33540 0.10480 0.47140 -0.24000
C 	C 	0.39785 0.11045 0.50140 0.23500
C 	C 	0.37096 0.18916 0.52100 -0.30100
C 	C 	0.28503 0.26463 0.51605 0.21000
C 	C 	0.35471 0.92291 0.89029 0.31400
C 	C 	0.29460 0.90780 0.86115 -0.11500
C 	C 	0.32207 0.91347 0.81035 0.05200
C 	C 	0.28007 0.88547 0.78009 -0.16200
C 	C 	0.22040 0.84580 0.80088 0.15100
C 	C 	0.20042 0.83102 0.85253 -0.16500
C 	C 	0.24419 0.85699 0.88092 0.06600
C 	C 	0.57887 0.07607 0.92302 0.48400
C 	C 	0.61853 0.11293 0.87731 -0.23700
C 	C 	0.66702 0.16322 0.87943 0.17700
C 	C 	0.70519 0.19979 0.83887 -0.27000
C 	C 	0.69293 0.18773 0.79507 0.21700
C 	C 	0.64161 0.14021 0.78860 -0.22600
C 	C 	0.60390 0.09990 0.83163 0.14000
C 	C 	0.33463 0.12983 0.98101 0.50400
C 	C 	0.25926 0.22326 0.98747 -0.26500
C 	C 	0.17933 0.24993 0.96397 0.16600
C 	C 	0.10480 0.33540 0.97140 -0.23800
C 	C 	0.11045 0.39785 0.00140 0.23300
C 	C 	0.18916 0.37096 0.02100 -0.29900
C 	C 	0.26463 0.28503 0.01605 0.20700
C 	C 	0.07709 0.64529 0.60971 0.31400
C 	C 	0.09220 0.70540 0.63885 -0.11500
C 	C 	0.08653 0.67793 0.68965 0.05200
C 	C 	0.11453 0.71993 0.71991 -0.16200
C 	C 	0.15420 0.77960 0.69912 0.15000
C 	C 	0.16898 0.79958 0.64747 -0.16500
C 	C 	0.14301 0.75581 0.61908 0.06600
C 	C 	0.92393 0.42113 0.57698 0.48400
C 	C 	0.88707 0.38147 0.62269 -0.23800
C 	C 	0.83678 0.33298 0.62057 0.17800
C 	C 	0.80021 0.29481 0.66113 -0.27100
C 	C 	0.81227 0.30707 0.70493 0.21800
C 	C 	0.85979 0.35839 0.71140 -0.22600
C 	C 	0.90010 0.39610 0.66837 0.14000
C 	C 	0.87017 0.66537 0.51899 0.50300
C 	C 	0.77674 0.74074 0.51253 -0.26700
C 	C 	0.75007 0.82067 0.53603 0.16700
C 	C 	0.66460 0.89520 0.52860 -0.24000
C 	C 	0.60215 0.88955 0.49860 0.23500
C 	C 	0.62904 0.81084 0.47900 -0.30100
C 	C 	0.71497 0.73537 0.48395 0.21000
N 	N 	0.82001 0.19101 0.22520 -0.10100
N 	N 	0.27595 0.77435 0.24909 -0.11300
N 	N 	0.95578 0.51538 0.99502 -0.12200
N 	N 	0.80899 0.17999 0.27480 -0.10100
N 	N 	0.22565 0.72405 0.25091 -0.11300
N 	N 	0.48462 0.04422 0.50498 -0.12300
N 	N 	0.17999 0.80899 0.77480 -0.10100
N 	N 	0.72405 0.22565 0.75091 -0.11300
N 	N 	0.04422 0.48462 0.00498 -0.12200
N 	N 	0.19101 0.82001 0.72520 -0.10100
N 	N 	0.77435 0.27595 0.74909 -0.11300
N 	N 	0.51538 0.95578 0.49502 -0.12300
O 	O 	0.59047 0.04213 0.12601 -0.42700
O 	O 	0.65658 0.10354 0.06314 -0.41000
O 	O 	0.40814 0.91496 0.03498 -0.52900
O 	O 	0.46905 0.96401 0.08607 -0.52100
O 	O 	0.59699 0.89603 0.99714 -0.60700
O 	O 	0.67558 0.92066 0.04619 -0.45200
O 	O 	0.95787 0.40953 0.37399 -0.42600
O 	O 	0.89646 0.34342 0.43686 -0.40900
O 	O 	0.08504 0.59186 0.46502 -0.53000
O 	O 	0.03599 0.53095 0.41393 -0.52200
O 	O 	0.10397 0.40301 0.50286 -0.60600
O 	O 	0.07934 0.32442 0.45381 -0.45300
O 	O 	0.40953 0.95787 0.87399 -0.42700
O 	O 	0.34342 0.89646 0.93686 -0.41000
O 	O 	0.59186 0.08504 0.96502 -0.52900
O 	O 	0.53095 0.03599 0.91393 -0.52100
O 	O 	0.40301 0.10397 0.00286 -0.60700
O 	O 	0.32442 0.07934 0.95381 -0.45200
O 	O 	0.04213 0.59047 0.62601 -0.42600
O 	O 	0.10354 0.65658 0.56314 -0.40900
O 	O 	0.91496 0.40814 0.53498 -0.53000
O 	O 	0.96401 0.46905 0.58607 -0.52200
O 	O 	0.89603 0.59699 0.49714 -0.60600
O 	O 	0.92066 0.67558 0.54619 -0.45300
