data_crystal

_cell_length_a 16.10350
_cell_length_b 16.10350
_cell_length_c 28.12800
_cell_angle_alpha 79.39080
_cell_angle_beta  79.39080
_cell_angle_gamma 63.17720

_symmetry_space_group_name_	'P 1'
_symmetry_space_group_name_H-M	'P 1'

loop_
_symmetry_equiv_pos_as_xyz
  x,y,z

loop_
_atom_site_label
_atom_site_type_symbol
_atom_site_fract_x
_atom_site_fract_y
_atom_site_fract_z
_atom_site_charge
Ce	Ce	0.53122 0.06662 0.04610 2.13000
Ce	Ce	0.93338 0.46878 0.45390 2.13100
Ce	Ce	0.46878 0.93338 0.95390 2.13000
Ce	Ce	0.06662 0.53122 0.54610 2.13100
H 	H 	0.63380 0.06440 0.20340 0.02300
H 	H 	0.70690 0.10570 0.25350 0.09800
H 	H 	0.84220 0.19380 0.13350 0.09600
H 	H 	0.76030 0.16110 0.08570 0.02200
H 	H 	0.32530 0.82770 0.09000 -0.01500
H 	H 	0.26230 0.76570 0.15910 0.12800
H 	H 	0.36620 0.86600 0.24220 0.11300
H 	H 	0.43040 0.93140 0.17050 -0.00400
H 	H 	0.82390 0.78830 0.05600 -0.00000
H 	H 	0.94920 0.64640 0.04260 0.11800
H 	H 	0.80750 0.58850 0.96090 0.12100
H 	H 	0.68240 0.73220 0.96880 -0.08200
H 	H 	0.93560 0.36620 0.29660 0.02300
H 	H 	0.89430 0.29310 0.24650 0.09800
H 	H 	0.80620 0.15780 0.36650 0.09600
H 	H 	0.83890 0.23970 0.41430 0.02300
H 	H 	0.17230 0.67470 0.41000 -0.01500
H 	H 	0.23430 0.73770 0.34090 0.12800
H 	H 	0.13400 0.63380 0.25780 0.11300
H 	H 	0.06860 0.56960 0.32950 -0.00400
H 	H 	0.21170 0.17610 0.44400 -0.00100
H 	H 	0.35360 0.05080 0.45740 0.11900
H 	H 	0.41150 0.19250 0.53910 0.12200
H 	H 	0.26780 0.31760 0.53120 -0.08300
H 	H 	0.36620 0.93560 0.79660 0.02300
H 	H 	0.29310 0.89430 0.74650 0.09800
H 	H 	0.15780 0.80620 0.86650 0.09600
H 	H 	0.23970 0.83890 0.91430 0.02200
H 	H 	0.67470 0.17230 0.91000 -0.01500
H 	H 	0.73770 0.23430 0.84090 0.12800
H 	H 	0.63380 0.13400 0.75780 0.11300
H 	H 	0.56960 0.06860 0.82950 -0.00400
H 	H 	0.17610 0.21170 0.94400 -0.00000
H 	H 	0.05080 0.35360 0.95740 0.11800
H 	H 	0.19250 0.41150 0.03910 0.12100
H 	H 	0.31760 0.26780 0.03120 -0.08200
H 	H 	0.06440 0.63380 0.70340 0.02300
H 	H 	0.10570 0.70690 0.75350 0.09800
H 	H 	0.19380 0.84220 0.63350 0.09600
H 	H 	0.16110 0.76030 0.58570 0.02300
H 	H 	0.82770 0.32530 0.59000 -0.01500
H 	H 	0.76570 0.26230 0.65910 0.12800
H 	H 	0.86600 0.36620 0.74220 0.11300
H 	H 	0.93140 0.43040 0.67050 -0.00400
H 	H 	0.78830 0.82390 0.55600 -0.00100
H 	H 	0.64640 0.94920 0.54260 0.11900
H 	H 	0.58850 0.80750 0.46090 0.12200
H 	H 	0.73220 0.68240 0.46880 -0.08300
C 	C 	0.64537 0.07657 0.10996 0.31700
C 	C 	0.70470 0.09290 0.13889 -0.11900
C 	C 	0.67819 0.08659 0.18993 0.05500
C 	C 	0.71977 0.11437 0.21978 -0.16200
C 	C 	0.78000 0.15460 0.19905 0.15100
C 	C 	0.80038 0.16858 0.14755 -0.16500
C 	C 	0.75586 0.14346 0.11917 0.06800
C 	C 	0.42105 0.92385 0.07698 0.43700
C 	C 	0.38140 0.88680 0.12306 -0.20800
C 	C 	0.33281 0.83661 0.12041 0.15200
C 	C 	0.29532 0.79932 0.16129 -0.24900
C 	C 	0.30756 0.81276 0.20473 0.20700
C 	C 	0.35806 0.86006 0.21131 -0.21900
C 	C 	0.39623 0.89883 0.16853 0.12600
C 	C 	0.66490 0.87070 0.01912 0.47300
C 	C 	0.74092 0.77732 0.01256 -0.23600
C 	C 	0.82112 0.74972 0.03603 0.14800
C 	C 	0.89479 0.66459 0.02854 -0.22300
C 	C 	0.88958 0.60218 0.99911 0.21700
C 	C 	0.81128 0.62928 0.97901 -0.26900
C 	C 	0.73562 0.71502 0.98379 0.17200
C 	C 	0.92343 0.35463 0.39004 0.31700
C 	C 	0.90710 0.29530 0.36111 -0.11800
C 	C 	0.91341 0.32181 0.31007 0.05500
C 	C 	0.88563 0.28023 0.28022 -0.16100
C 	C 	0.84540 0.22000 0.30095 0.15100
C 	C 	0.83142 0.19962 0.35245 -0.16500
C 	C 	0.85654 0.24414 0.38083 0.06700
C 	C 	0.07615 0.57895 0.42302 0.43700
C 	C 	0.11320 0.61860 0.37694 -0.20800
C 	C 	0.16339 0.66719 0.37959 0.15300
C 	C 	0.20068 0.70468 0.33871 -0.24900
C 	C 	0.18724 0.69244 0.29527 0.20700
C 	C 	0.13994 0.64194 0.28869 -0.21900
C 	C 	0.10117 0.60377 0.33147 0.12700
C 	C 	0.12930 0.33510 0.48088 0.47200
C 	C 	0.22268 0.25908 0.48744 -0.23800
C 	C 	0.25028 0.17888 0.46397 0.14900
C 	C 	0.33541 0.10521 0.47146 -0.22500
C 	C 	0.39782 0.11042 0.50089 0.21900
C 	C 	0.37072 0.18872 0.52099 -0.27100
C 	C 	0.28498 0.26438 0.51621 0.17400
C 	C 	0.35463 0.92343 0.89004 0.31700
C 	C 	0.29530 0.90710 0.86111 -0.11900
C 	C 	0.32181 0.91341 0.81007 0.05500
C 	C 	0.28023 0.88563 0.78022 -0.16200
C 	C 	0.22000 0.84540 0.80095 0.15100
C 	C 	0.19962 0.83142 0.85245 -0.16500
C 	C 	0.24414 0.85654 0.88083 0.06800
C 	C 	0.57895 0.07615 0.92302 0.43700
C 	C 	0.61860 0.11320 0.87694 -0.20800
C 	C 	0.66719 0.16339 0.87959 0.15200
C 	C 	0.70468 0.20068 0.83871 -0.24900
C 	C 	0.69244 0.18724 0.79527 0.20700
C 	C 	0.64194 0.13994 0.78869 -0.21900
C 	C 	0.60377 0.10117 0.83147 0.12600
C 	C 	0.33510 0.12930 0.98088 0.47300
C 	C 	0.25908 0.22268 0.98744 -0.23600
C 	C 	0.17888 0.25028 0.96397 0.14800
C 	C 	0.10521 0.33541 0.97146 -0.22300
C 	C 	0.11042 0.39782 0.00089 0.21700
C 	C 	0.18872 0.37072 0.02099 -0.26900
C 	C 	0.26438 0.28498 0.01621 0.17200
C 	C 	0.07657 0.64537 0.60996 0.31700
C 	C 	0.09290 0.70470 0.63889 -0.11800
C 	C 	0.08659 0.67819 0.68993 0.05500
C 	C 	0.11437 0.71977 0.71978 -0.16100
C 	C 	0.15460 0.78000 0.69905 0.15100
C 	C 	0.16858 0.80038 0.64755 -0.16500
C 	C 	0.14346 0.75586 0.61917 0.06700
C 	C 	0.92385 0.42105 0.57698 0.43700
C 	C 	0.88680 0.38140 0.62306 -0.20800
C 	C 	0.83661 0.33281 0.62041 0.15300
C 	C 	0.79932 0.29532 0.66129 -0.24900
C 	C 	0.81276 0.30756 0.70473 0.20700
C 	C 	0.86006 0.35806 0.71131 -0.21900
C 	C 	0.89883 0.39623 0.66853 0.12700
C 	C 	0.87070 0.66490 0.51912 0.47200
C 	C 	0.77732 0.74092 0.51256 -0.23800
C 	C 	0.74972 0.82112 0.53603 0.14900
C 	C 	0.66459 0.89479 0.52854 -0.22500
C 	C 	0.60218 0.88958 0.49911 0.21900
C 	C 	0.62928 0.81128 0.47901 -0.27100
C 	C 	0.71502 0.73562 0.48379 0.17400
N 	N 	0.82003 0.19043 0.22509 -0.10200
N 	N 	0.27596 0.77396 0.24918 -0.11000
N 	N 	0.95558 0.51536 0.99474 -0.11900
N 	N 	0.80957 0.17997 0.27491 -0.10200
N 	N 	0.22604 0.72404 0.25082 -0.11100
N 	N 	0.48464 0.04442 0.50526 -0.12000
N 	N 	0.17997 0.80957 0.77491 -0.10200
N 	N 	0.72404 0.22604 0.75082 -0.11000
N 	N 	0.04442 0.48464 0.00526 -0.11900
N 	N 	0.19043 0.82003 0.72509 -0.10200
N 	N 	0.77396 0.27596 0.74918 -0.11100
N 	N 	0.51536 0.95558 0.49474 -0.12000
O 	O 	0.59068 0.04176 0.12603 -0.45500
O 	O 	0.65646 0.10362 0.06344 -0.44000
O 	O 	0.40755 0.91535 0.03519 -0.54400
O 	O 	0.46928 0.96352 0.08620 -0.54000
O 	O 	0.59706 0.89650 0.99714 -0.64300
O 	O 	0.67496 0.92064 0.04606 -0.46900
O 	O 	0.95824 0.40932 0.37397 -0.45400
O 	O 	0.89638 0.34354 0.43656 -0.43900
O 	O 	0.08465 0.59245 0.46481 -0.54500
O 	O 	0.03648 0.53072 0.41380 -0.54100
O 	O 	0.10350 0.40294 0.50286 -0.64100
O 	O 	0.07936 0.32504 0.45394 -0.47000
O 	O 	0.40932 0.95824 0.87397 -0.45500
O 	O 	0.34354 0.89638 0.93656 -0.44000
O 	O 	0.59245 0.08465 0.96481 -0.54400
O 	O 	0.53072 0.03648 0.91380 -0.54000
O 	O 	0.40294 0.10350 0.00286 -0.64300
O 	O 	0.32504 0.07936 0.95394 -0.46900
O 	O 	0.04176 0.59068 0.62603 -0.45400
O 	O 	0.10362 0.65646 0.56344 -0.43900
O 	O 	0.91535 0.40755 0.53519 -0.54500
O 	O 	0.96352 0.46928 0.58620 -0.54100
O 	O 	0.89650 0.59706 0.49714 -0.64100
O 	O 	0.92064 0.67496 0.54606 -0.47000
