data_crystal

_cell_length_a 15.74280
_cell_length_b 16.55620
_cell_length_c 16.97600
_cell_angle_alpha 99.86600
_cell_angle_beta  95.61700
_cell_angle_gamma 115.06000

_symmetry_space_group_name_	'P 1'
_symmetry_space_group_name_H-M	'P 1'

loop_
_symmetry_equiv_pos_as_xyz
  x,y,z

loop_
_atom_site_label
_atom_site_type_symbol
_atom_site_fract_x
_atom_site_fract_y
_atom_site_fract_z
_atom_site_charge
Ce	Ce	0.47106 0.46071 0.36548 2.13900
Ce	Ce	0.44698 0.51738 0.13974 2.10900
Ce	Ce	0.52894 0.53929 0.63452 2.13900
Ce	Ce	0.55302 0.48262 0.86026 2.10900
H 	H 	0.76310 0.51470 0.13990 -0.04700
H 	H 	0.89670 0.49270 0.18930 0.12500
H 	H 	0.87270 0.58480 0.41440 0.15300
H 	H 	0.72560 0.57340 0.36390 -0.04900
H 	H 	0.11620 0.49440 0.31890 0.11900
H 	H 	0.25120 0.48540 0.37160 -0.02200
H 	H 	0.26560 0.62730 0.58830 -0.00900
H 	H 	0.12840 0.63770 0.54150 0.12300
H 	H 	0.44180 0.23800 0.10410 -0.05500
H 	H 	0.45000 0.09990 0.09080 0.15000
H 	H 	0.51730 0.11760 0.87540 0.15100
H 	H 	0.52530 0.26240 0.89400 -0.08300
H 	H 	0.12380 0.22880 0.26040 -0.01400
H 	H 	0.01250 0.08710 0.17910 0.12100
H 	H 	0.15710 0.13110 0.99810 0.12500
H 	H 	0.27240 0.26640 0.08290 -0.03900
H 	H 	0.27920 0.25400 0.61710 0.00200
H 	H 	0.13640 0.12440 0.60520 0.11700
H 	H 	0.09860 0.08060 0.36110 0.11000
H 	H 	0.24350 0.20860 0.37480 -0.00200
H 	H 	0.55360 0.83680 0.28190 0.00300
H 	H 	0.54660 0.95800 0.36910 0.11200
H 	H 	0.44260 0.80110 0.52130 0.11800
H 	H 	0.44070 0.67960 0.43360 -0.01000
H 	H 	0.23690 0.48530 0.86010 -0.04700
H 	H 	0.10330 0.50730 0.81070 0.12500
H 	H 	0.12730 0.41520 0.58560 0.15300
H 	H 	0.27440 0.42660 0.63610 -0.04900
H 	H 	0.88380 0.50560 0.68110 0.11900
H 	H 	0.74880 0.51460 0.62840 -0.02200
H 	H 	0.73440 0.37270 0.41170 -0.00900
H 	H 	0.87160 0.36230 0.45850 0.12300
H 	H 	0.55820 0.76200 0.89590 -0.05500
H 	H 	0.55000 0.90010 0.90920 0.15000
H 	H 	0.48270 0.88240 0.12460 0.15100
H 	H 	0.47470 0.73760 0.10600 -0.08300
H 	H 	0.87620 0.77120 0.73960 -0.01400
H 	H 	0.98750 0.91290 0.82090 0.12100
H 	H 	0.84290 0.86890 0.00190 0.12500
H 	H 	0.72760 0.73360 0.91710 -0.03900
H 	H 	0.72080 0.74600 0.38290 0.00200
H 	H 	0.86360 0.87560 0.39480 0.11700
H 	H 	0.90140 0.91940 0.63890 0.11000
H 	H 	0.75650 0.79140 0.62520 -0.00200
H 	H 	0.44640 0.16320 0.71810 0.00300
H 	H 	0.45340 0.04200 0.63090 0.11200
H 	H 	0.55740 0.19890 0.47870 0.11800
H 	H 	0.55930 0.32040 0.56640 -0.01000
C 	C 	0.73060 0.54330 0.24830 -0.32700
C 	C 	0.78290 0.52400 0.19560 0.21600
C 	C 	0.86740 0.51780 0.22410 -0.27600
C 	C 	0.90350 0.55180 0.30740 0.24000
C 	C 	0.85060 0.56900 0.35840 -0.30800
C 	C 	0.76280 0.56320 0.32790 0.25400
C 	C 	0.10660 0.56180 0.42730 0.19900
C 	C 	0.14440 0.51920 0.37370 -0.24100
C 	C 	0.22650 0.51580 0.40650 0.16500
C 	C 	0.27540 0.55340 0.48640 -0.25500
C 	C 	0.23500 0.59910 0.53440 0.15900
C 	C 	0.15210 0.60550 0.50730 -0.23600
C 	C 	0.36070 0.54760 0.51780 0.49800
C 	C 	0.48610 0.26410 0.00250 -0.34700
C 	C 	0.46230 0.21610 0.05930 0.26300
C 	C 	0.46780 0.13420 0.05190 -0.32100
C 	C 	0.50000 0.10430 0.98640 0.26800
C 	C 	0.51000 0.14560 0.92490 -0.34200
C 	C 	0.50960 0.22960 0.93410 0.27000
C 	C 	0.28600 0.34630 0.23420 0.44200
C 	C 	0.20950 0.26070 0.17740 -0.25300
C 	C 	0.13100 0.20850 0.20800 0.16000
C 	C 	0.06340 0.12490 0.15830 -0.25100
C 	C 	0.07000 0.09750 0.08090 0.20800
C 	C 	0.15010 0.15010 0.05090 -0.24900
C 	C 	0.21840 0.23110 0.10180 0.17200
C 	C 	0.36480 0.33060 0.50130 0.48900
C 	C 	0.27570 0.24580 0.49690 -0.20900
C 	C 	0.24330 0.21940 0.56570 0.13700
C 	C 	0.15760 0.14160 0.55870 -0.21100
C 	C 	0.10400 0.08990 0.48230 0.18100
C 	C 	0.13480 0.11470 0.41250 -0.21100
C 	C 	0.22140 0.19230 0.42130 0.13500
C 	C 	0.49200 0.66390 0.28990 0.37200
C 	C 	0.49120 0.74240 0.34840 -0.18800
C 	C 	0.52800 0.82850 0.32870 0.11000
C 	C 	0.52460 0.90110 0.38210 -0.20700
C 	C 	0.49010 0.89150 0.45250 0.19200
C 	C 	0.46190 0.80840 0.47190 -0.22800
C 	C 	0.46190 0.73580 0.41930 0.14600
C 	C 	0.47910 0.35180 0.01370 0.54100
C 	C 	0.63630 0.53200 0.21550 0.54500
C 	C 	0.26940 0.45670 0.75170 -0.32700
C 	C 	0.21710 0.47600 0.80440 0.21600
C 	C 	0.13260 0.48220 0.77590 -0.27600
C 	C 	0.09650 0.44820 0.69260 0.24000
C 	C 	0.14940 0.43100 0.64160 -0.30800
C 	C 	0.23720 0.43680 0.67210 0.25400
C 	C 	0.89340 0.43820 0.57270 0.19900
C 	C 	0.85560 0.48080 0.62630 -0.24100
C 	C 	0.77350 0.48420 0.59350 0.16500
C 	C 	0.72460 0.44660 0.51360 -0.25500
C 	C 	0.76500 0.40090 0.46560 0.15900
C 	C 	0.84790 0.39450 0.49270 -0.23600
C 	C 	0.63930 0.45240 0.48220 0.49800
C 	C 	0.51390 0.73590 0.99750 -0.34700
C 	C 	0.53770 0.78390 0.94070 0.26300
C 	C 	0.53220 0.86580 0.94810 -0.32100
C 	C 	0.50000 0.89570 0.01360 0.26800
C 	C 	0.49000 0.85440 0.07510 -0.34200
C 	C 	0.49040 0.77040 0.06590 0.27000
C 	C 	0.71400 0.65370 0.76580 0.44200
C 	C 	0.79050 0.73930 0.82260 -0.25300
C 	C 	0.86900 0.79150 0.79200 0.16000
C 	C 	0.93660 0.87510 0.84170 -0.25100
C 	C 	0.93000 0.90250 0.91910 0.20800
C 	C 	0.84990 0.84990 0.94910 -0.24900
C 	C 	0.78160 0.76890 0.89820 0.17200
C 	C 	0.63520 0.66940 0.49870 0.48900
C 	C 	0.72430 0.75420 0.50310 -0.20900
C 	C 	0.75670 0.78060 0.43430 0.13700
C 	C 	0.84240 0.85840 0.44130 -0.21100
C 	C 	0.89600 0.91010 0.51770 0.18100
C 	C 	0.86520 0.88530 0.58750 -0.21100
C 	C 	0.77860 0.80770 0.57870 0.13500
C 	C 	0.50800 0.33610 0.71010 0.37200
C 	C 	0.50880 0.25760 0.65160 -0.18800
C 	C 	0.47200 0.17150 0.67130 0.11000
C 	C 	0.47540 0.09890 0.61790 -0.20700
C 	C 	0.50990 0.10850 0.54750 0.19200
C 	C 	0.53810 0.19160 0.52810 -0.22800
C 	C 	0.53810 0.26420 0.58070 0.14600
C 	C 	0.52090 0.64820 0.98630 0.54100
C 	C 	0.36370 0.46800 0.78450 0.54500
N 	N 	0.99200 0.54600 0.33150 -0.11100
N 	N 	0.02230 0.57210 0.40380 -0.10200
N 	N 	0.50490 0.01610 0.97080 -0.11400
N 	N 	0.99470 0.01250 0.03400 -0.10700
N 	N 	0.01280 0.00780 0.46860 -0.09900
N 	N 	0.48890 0.96450 0.51060 -0.10300
N 	N 	0.00800 0.45400 0.66850 -0.11100
N 	N 	0.97770 0.42790 0.59620 -0.10200
N 	N 	0.49510 0.98390 0.02920 -0.11400
N 	N 	0.00530 0.98750 0.96600 -0.10700
N 	N 	0.98720 0.99220 0.53140 -0.09900
N 	N 	0.51110 0.03550 0.48940 -0.10300
O 	O 	0.56940 0.50580 0.25360 -0.63100
O 	O 	0.62510 0.55100 0.15200 -0.50500
O 	O 	0.39390 0.57590 0.59150 -0.50300
O 	O 	0.40090 0.51740 0.46850 -0.57400
O 	O 	0.45550 0.37940 0.07790 -0.55000
O 	O 	0.35220 0.39840 0.20410 -0.63700
O 	O 	0.28670 0.36190 0.30720 -0.46300
O 	O 	0.39970 0.33830 0.44010 -0.52100
O 	O 	0.39820 0.38530 0.56980 -0.50300
O 	O 	0.44500 0.58400 0.30220 -0.55500
O 	O 	0.53240 0.67820 0.23090 -0.46500
O 	O 	0.50490 0.39830 0.96250 -0.60600
O 	O 	0.43060 0.49420 0.74640 -0.63100
O 	O 	0.37490 0.44900 0.84800 -0.50500
O 	O 	0.60610 0.42410 0.40850 -0.50300
O 	O 	0.59910 0.48260 0.53150 -0.57400
O 	O 	0.54450 0.62060 0.92210 -0.55000
O 	O 	0.64780 0.60160 0.79590 -0.63700
O 	O 	0.71330 0.63810 0.69280 -0.46300
O 	O 	0.60030 0.66170 0.55990 -0.52100
O 	O 	0.60180 0.61470 0.43020 -0.50300
O 	O 	0.55500 0.41600 0.69780 -0.55500
O 	O 	0.46760 0.32180 0.76910 -0.46500
O 	O 	0.49510 0.60170 0.03750 -0.60600
