data_crystal

_cell_length_a 16.06360
_cell_length_b 16.06360
_cell_length_c 27.91500
_cell_angle_alpha 79.89020
_cell_angle_beta  79.89020
_cell_angle_gamma 63.17630

_symmetry_space_group_name_	'P 1'
_symmetry_space_group_name_H-M	'P 1'

loop_
_symmetry_equiv_pos_as_xyz
  x,y,z

loop_
_atom_site_label
_atom_site_type_symbol
_atom_site_fract_x
_atom_site_fract_y
_atom_site_fract_z
_atom_site_charge
Gd	Gd	0.53127 0.06657 0.04611 1.49600
Gd	Gd	0.93343 0.46873 0.45389 1.49800
Gd	Gd	0.46873 0.93343 0.95389 1.49600
Gd	Gd	0.06657 0.53127 0.54611 1.49800
H 	H 	0.63370 0.06490 0.20350 0.02000
H 	H 	0.70770 0.10650 0.25350 0.10400
H 	H 	0.84120 0.19480 0.13350 0.10200
H 	H 	0.76030 0.15990 0.08550 0.02000
H 	H 	0.67520 0.17240 0.91010 -0.01500
H 	H 	0.73860 0.23340 0.84140 0.13500
H 	H 	0.63280 0.13400 0.75750 0.11600
H 	H 	0.56920 0.06780 0.82940 -0.00100
H 	H 	0.17620 0.21080 0.94430 -0.00200
H 	H 	0.05040 0.35380 0.95710 0.12200
H 	H 	0.19330 0.41190 0.03930 0.12800
H 	H 	0.31810 0.26750 0.03130 -0.06300
H 	H 	0.93510 0.36630 0.29650 0.02000
H 	H 	0.89350 0.29230 0.24650 0.10400
H 	H 	0.80520 0.15880 0.36650 0.10200
H 	H 	0.84010 0.23970 0.41450 0.02000
H 	H 	0.82760 0.32480 0.58990 -0.01500
H 	H 	0.76660 0.26140 0.65860 0.13500
H 	H 	0.86600 0.36720 0.74250 0.11600
H 	H 	0.93220 0.43080 0.67060 -0.00100
H 	H 	0.78920 0.82380 0.55570 -0.00300
H 	H 	0.64620 0.94960 0.54290 0.12200
H 	H 	0.58810 0.80670 0.46070 0.12900
H 	H 	0.73250 0.68190 0.46870 -0.06300
H 	H 	0.36630 0.93510 0.79650 0.02000
H 	H 	0.29230 0.89350 0.74650 0.10400
H 	H 	0.15880 0.80520 0.86650 0.10200
H 	H 	0.23970 0.84010 0.91450 0.02000
H 	H 	0.32480 0.82760 0.08990 -0.01500
H 	H 	0.26140 0.76660 0.15860 0.13500
H 	H 	0.36720 0.86600 0.24250 0.11600
H 	H 	0.43080 0.93220 0.17060 -0.00100
H 	H 	0.82380 0.78920 0.05570 -0.00200
H 	H 	0.94960 0.64620 0.04290 0.12200
H 	H 	0.80670 0.58810 0.96070 0.12800
H 	H 	0.68190 0.73250 0.96870 -0.06300
H 	H 	0.06490 0.63370 0.70350 0.02000
H 	H 	0.10650 0.70770 0.75350 0.10400
H 	H 	0.19480 0.84120 0.63350 0.10200
H 	H 	0.15990 0.76030 0.58550 0.02000
H 	H 	0.17240 0.67520 0.41010 -0.01500
H 	H 	0.23340 0.73860 0.34140 0.13500
H 	H 	0.13400 0.63280 0.25750 0.11600
H 	H 	0.06780 0.56920 0.32940 -0.00100
H 	H 	0.21080 0.17620 0.44430 -0.00300
H 	H 	0.35380 0.05040 0.45710 0.12200
H 	H 	0.41190 0.19330 0.53930 0.12900
H 	H 	0.26750 0.31810 0.53130 -0.06300
C 	C 	0.64490 0.07650 0.10989 0.32500
C 	C 	0.70420 0.09280 0.13883 -0.12600
C 	C 	0.67820 0.08700 0.18990 0.06800
C 	C 	0.72010 0.11470 0.21964 -0.17300
C 	C 	0.78010 0.15450 0.19880 0.16200
C 	C 	0.80000 0.16900 0.14743 -0.17700
C 	C 	0.75570 0.14310 0.11911 0.08000
C 	C 	0.57870 0.07590 0.92305 0.44600
C 	C 	0.61800 0.11300 0.87716 -0.21600
C 	C 	0.66740 0.16320 0.87949 0.16300
C 	C 	0.70520 0.20020 0.83880 -0.26200
C 	C 	0.69290 0.18730 0.79540 0.21500
C 	C 	0.64150 0.13970 0.78860 -0.22000
C 	C 	0.60330 0.10070 0.83165 0.13300
C 	C 	0.33530 0.12970 0.98096 0.46800
C 	C 	0.25946 0.22306 0.98751 -0.23800
C 	C 	0.17910 0.24990 0.96418 0.15300
C 	C 	0.10490 0.33570 0.97150 -0.23000
C 	C 	0.11033 0.39773 0.00101 0.22700
C 	C 	0.18920 0.37080 0.02116 -0.27600
C 	C 	0.26474 0.28474 0.01614 0.18400
C 	C 	0.92350 0.35510 0.39011 0.32500
C 	C 	0.90720 0.29580 0.36117 -0.12600
C 	C 	0.91300 0.32180 0.31010 0.06800
C 	C 	0.88530 0.27990 0.28036 -0.17300
C 	C 	0.84550 0.21990 0.30120 0.16200
C 	C 	0.83100 0.20000 0.35257 -0.17600
C 	C 	0.85690 0.24430 0.38089 0.08000
C 	C 	0.92410 0.42130 0.57695 0.44600
C 	C 	0.88700 0.38200 0.62284 -0.21600
C 	C 	0.83680 0.33260 0.62051 0.16400
C 	C 	0.79980 0.29480 0.66120 -0.26200
C 	C 	0.81270 0.30710 0.70460 0.21600
C 	C 	0.86030 0.35850 0.71140 -0.22100
C 	C 	0.89930 0.39670 0.66835 0.13300
C 	C 	0.87030 0.66470 0.51904 0.46700
C 	C 	0.77694 0.74054 0.51249 -0.24000
C 	C 	0.75010 0.82090 0.53582 0.15400
C 	C 	0.66430 0.89510 0.52850 -0.23100
C 	C 	0.60227 0.88967 0.49899 0.22800
C 	C 	0.62920 0.81080 0.47884 -0.27800
C 	C 	0.71526 0.73526 0.48386 0.18600
C 	C 	0.35510 0.92350 0.89011 0.32500
C 	C 	0.29580 0.90720 0.86117 -0.12600
C 	C 	0.32180 0.91300 0.81010 0.06800
C 	C 	0.27990 0.88530 0.78036 -0.17300
C 	C 	0.21990 0.84550 0.80120 0.16200
C 	C 	0.20000 0.83100 0.85257 -0.17700
C 	C 	0.24430 0.85690 0.88089 0.08000
C 	C 	0.42130 0.92410 0.07695 0.44600
C 	C 	0.38200 0.88700 0.12284 -0.21600
C 	C 	0.33260 0.83680 0.12051 0.16300
C 	C 	0.29480 0.79980 0.16120 -0.26200
C 	C 	0.30710 0.81270 0.20460 0.21500
C 	C 	0.35850 0.86030 0.21140 -0.22000
C 	C 	0.39670 0.89930 0.16835 0.13300
C 	C 	0.66470 0.87030 0.01904 0.46800
C 	C 	0.74054 0.77694 0.01249 -0.23800
C 	C 	0.82090 0.75010 0.03582 0.15300
C 	C 	0.89510 0.66430 0.02850 -0.23000
C 	C 	0.88967 0.60227 0.99899 0.22700
C 	C 	0.81080 0.62920 0.97884 -0.27600
C 	C 	0.73526 0.71526 0.98386 0.18400
C 	C 	0.07650 0.64490 0.60989 0.32500
C 	C 	0.09280 0.70420 0.63883 -0.12600
C 	C 	0.08700 0.67820 0.68990 0.06800
C 	C 	0.11470 0.72010 0.71964 -0.17300
C 	C 	0.15450 0.78010 0.69880 0.16200
C 	C 	0.16900 0.80000 0.64743 -0.17600
C 	C 	0.14310 0.75570 0.61911 0.08000
C 	C 	0.07590 0.57870 0.42305 0.44600
C 	C 	0.11300 0.61800 0.37716 -0.21600
C 	C 	0.16320 0.66740 0.37949 0.16400
C 	C 	0.20020 0.70520 0.33880 -0.26200
C 	C 	0.18730 0.69290 0.29540 0.21600
C 	C 	0.13970 0.64150 0.28860 -0.22100
C 	C 	0.10070 0.60330 0.33165 0.13300
C 	C 	0.12970 0.33530 0.48096 0.46700
C 	C 	0.22306 0.25946 0.48751 -0.24000
C 	C 	0.24990 0.17910 0.46418 0.15400
C 	C 	0.33570 0.10490 0.47150 -0.23100
C 	C 	0.39773 0.11033 0.50101 0.22800
C 	C 	0.37080 0.18920 0.52116 -0.27800
C 	C 	0.28474 0.26474 0.51614 0.18600
N 	N 	0.82016 0.19076 0.22522 -0.10200
N 	N 	0.72374 0.22594 0.75095 -0.11100
N 	N 	0.04427 0.48427 0.00515 -0.12000
N 	N 	0.80924 0.17984 0.27478 -0.10200
N 	N 	0.77406 0.27626 0.74905 -0.11100
N 	N 	0.51573 0.95573 0.49485 -0.12000
N 	N 	0.17984 0.80924 0.77478 -0.10200
N 	N 	0.27626 0.77406 0.24905 -0.11100
N 	N 	0.95573 0.51573 0.99485 -0.12000
N 	N 	0.19076 0.82016 0.72522 -0.10200
N 	N 	0.22594 0.72374 0.25095 -0.11100
N 	N 	0.48427 0.04427 0.50515 -0.12000
O 	O 	0.59043 0.04185 0.12606 -0.37900
O 	O 	0.65655 0.10355 0.06349 -0.36100
O 	O 	0.59233 0.08463 0.96494 -0.44800
O 	O 	0.53091 0.03631 0.91401 -0.44400
O 	O 	0.40292 0.10372 0.00289 -0.51300
O 	O 	0.32472 0.07940 0.95384 -0.39100
O 	O 	0.95815 0.40957 0.37394 -0.37900
O 	O 	0.89645 0.34345 0.43651 -0.36000
O 	O 	0.91537 0.40767 0.53506 -0.44900
O 	O 	0.96369 0.46909 0.58599 -0.44500
O 	O 	0.89628 0.59708 0.49711 -0.51200
O 	O 	0.92060 0.67528 0.54616 -0.39100
O 	O 	0.40957 0.95815 0.87394 -0.37900
O 	O 	0.34345 0.89645 0.93651 -0.36100
O 	O 	0.40767 0.91537 0.03506 -0.44800
O 	O 	0.46909 0.96369 0.08599 -0.44400
O 	O 	0.59708 0.89628 0.99711 -0.51300
O 	O 	0.67528 0.92060 0.04616 -0.39100
O 	O 	0.04185 0.59043 0.62606 -0.37900
O 	O 	0.10355 0.65655 0.56349 -0.36000
O 	O 	0.08463 0.59233 0.46494 -0.44900
O 	O 	0.03631 0.53091 0.41401 -0.44500
O 	O 	0.10372 0.40292 0.50289 -0.51200
O 	O 	0.07940 0.32472 0.45384 -0.39100
