data_crystal

_cell_length_a 11.40000
_cell_length_b 18.65700
_cell_length_c 24.38000
_cell_angle_alpha 90.00000
_cell_angle_beta  90.00000
_cell_angle_gamma 90.00000

_symmetry_space_group_name_	'P 1'
_symmetry_space_group_name_H-M	'P 1'

loop_
_symmetry_equiv_pos_as_xyz
  x,y,z

loop_
_atom_site_label
_atom_site_type_symbol
_atom_site_fract_x
_atom_site_fract_y
_atom_site_fract_z
_atom_site_charge
Co	Co	0.53519 0.30028 0.51869 1.15400
Co	Co	0.53519 0.69972 0.48131 1.15400
Co	Co	0.46481 0.19972 0.01869 1.15100
Co	Co	0.46481 0.80028 0.98131 1.15700
Co	Co	0.54014 0.50000 0.50000 1.17000
Co	Co	0.45986 0.00000 -0.00000 1.15900
H 	H 	0.57560 0.47460 0.64500 0.02800
H 	H 	0.36710 0.40460 0.68090 0.19500
H 	H 	0.40610 0.48340 0.69680 0.18600
H 	H 	0.36600 0.46610 0.63610 0.18800
H 	H 	0.90760 0.38880 0.75640 0.03400
H 	H 	0.87240 0.21580 0.85320 0.04500
H 	H 	0.60810 0.27500 0.75090 0.04300
H 	H 	0.22550 0.46450 0.77600 0.17900
H 	H 	0.19080 0.47090 0.83870 0.18600
H 	H 	0.32360 0.45910 0.82180 0.18200
H 	H 	0.23640 0.35240 0.85390 0.02100
H 	H 	0.30880 0.19360 0.84300 0.19300
H 	H 	0.32990 0.14800 0.78910 0.18900
H 	H 	0.28110 0.11040 0.84270 0.18100
H 	H 	0.48500 0.08560 0.83130 0.01700
H 	H 	0.12750 0.24070 0.44860 0.09000
H 	H 	0.32820 0.24500 0.45130 0.00400
H 	H 	0.32140 0.34610 0.59130 -0.00200
H 	H 	0.12150 0.34210 0.59400 0.07900
H 	H 	0.94390 0.26580 0.59980 0.07800
H 	H 	0.74110 0.26900 0.59740 0.00700
H 	H 	0.74810 0.32750 0.44370 -0.00700
H 	H 	0.94730 0.32130 0.44050 0.08500
H 	H 	0.49880 0.16710 0.58640 -0.00400
H 	H 	0.50620 0.04520 0.58240 0.06100
H 	H 	0.59030 0.06380 0.42370 0.06400
H 	H 	0.58250 0.18540 0.43380 0.00600
H 	H 	0.74910 0.48200 0.57920 0.01500
H 	H 	0.94780 0.48320 0.58110 0.07900
H 	H 	0.12830 0.55850 0.56940 0.07800
H 	H 	0.32910 0.55670 0.56700 0.01500
H 	H 	0.54760 0.37680 0.72470 0.15000
H 	H 	0.08240 0.36100 0.76630 0.13200
H 	H 	0.50510 0.22790 0.81480 0.15300
H 	H 	0.57560 0.52540 0.35500 0.02700
H 	H 	0.36710 0.59540 0.31910 0.19500
H 	H 	0.40610 0.51660 0.30320 0.18600
H 	H 	0.36600 0.53390 0.36390 0.18800
H 	H 	0.90760 0.61120 0.24360 0.03400
H 	H 	0.87240 0.78420 0.14680 0.04600
H 	H 	0.60810 0.72500 0.24910 0.04400
H 	H 	0.22550 0.53550 0.22400 0.17800
H 	H 	0.19080 0.52910 0.16130 0.18400
H 	H 	0.32360 0.54090 0.17820 0.18100
H 	H 	0.23640 0.64760 0.14610 0.02000
H 	H 	0.30880 0.80640 0.15700 0.19700
H 	H 	0.32990 0.85200 0.21090 0.19800
H 	H 	0.28110 0.88960 0.15730 0.19300
H 	H 	0.48500 0.91440 0.16870 0.02700
H 	H 	0.12750 0.75930 0.55140 0.09200
H 	H 	0.32820 0.75500 0.54870 0.00500
H 	H 	0.32140 0.65390 0.40870 -0.00200
H 	H 	0.12150 0.65790 0.40600 0.08000
H 	H 	0.94390 0.73420 0.40020 0.08000
H 	H 	0.74110 0.73100 0.40260 0.00900
H 	H 	0.74810 0.67250 0.55630 -0.00700
H 	H 	0.94730 0.67870 0.55950 0.08500
H 	H 	0.49880 0.83290 0.41360 -0.01000
H 	H 	0.50620 0.95480 0.41760 0.09000
H 	H 	0.59030 0.93620 0.57630 0.08800
H 	H 	0.58250 0.81460 0.56620 -0.00200
H 	H 	0.74910 0.51800 0.42080 0.01500
H 	H 	0.94780 0.51680 0.41890 0.07900
H 	H 	0.12830 0.44150 0.43060 0.07800
H 	H 	0.32910 0.44330 0.43300 0.01500
H 	H 	0.54760 0.62320 0.27530 0.15000
H 	H 	0.08240 0.63900 0.23370 0.13300
H 	H 	0.50510 0.77210 0.18520 0.15300
H 	H 	0.42440 0.02540 0.14500 0.02300
H 	H 	0.63290 0.09540 0.18090 0.19100
H 	H 	0.59390 0.01660 0.19680 0.17800
H 	H 	0.63400 0.03390 0.13610 0.17900
H 	H 	0.09240 0.11120 0.25640 0.03200
H 	H 	0.12760 0.28420 0.35320 0.04500
H 	H 	0.39190 0.22500 0.25090 0.04400
H 	H 	0.77450 0.03550 0.27600 0.17200
H 	H 	0.80920 0.02910 0.33870 0.17700
H 	H 	0.67640 0.04090 0.32180 0.17400
H 	H 	0.76360 0.14760 0.35390 0.02200
H 	H 	0.69120 0.30640 0.34300 0.19400
H 	H 	0.67010 0.35200 0.28910 0.19200
H 	H 	0.71890 0.38960 0.34270 0.18600
H 	H 	0.51500 0.41440 0.33130 0.02200
H 	H 	0.87250 0.25930 0.94860 0.08800
H 	H 	0.67180 0.25500 0.95130 0.00400
H 	H 	0.67860 0.15390 0.09130 -0.00100
H 	H 	0.87850 0.15790 0.09400 0.07700
H 	H 	0.05610 0.23420 0.09980 0.07700
H 	H 	0.25890 0.23100 0.09740 0.00900
H 	H 	0.25190 0.17250 0.94370 -0.00900
H 	H 	0.05270 0.17870 0.94050 0.08200
H 	H 	0.50120 0.33290 0.08640 -0.00300
H 	H 	0.49380 0.45480 0.08240 0.06500
H 	H 	0.40970 0.43620 0.92370 0.06400
H 	H 	0.41750 0.31460 0.93380 0.00500
H 	H 	0.25090 0.01800 0.07920 0.01400
H 	H 	0.05220 0.01680 0.08110 0.07400
H 	H 	0.87170 0.94150 0.06940 0.07400
H 	H 	0.67090 0.94330 0.06700 0.01600
H 	H 	0.45240 0.12320 0.22470 0.14900
H 	H 	0.91760 0.13900 0.26630 0.13200
H 	H 	0.49490 0.27210 0.31480 0.15300
H 	H 	0.42440 0.97460 0.85500 0.03100
H 	H 	0.63290 0.90460 0.81910 0.19900
H 	H 	0.59390 0.98340 0.80320 0.19400
H 	H 	0.63400 0.96610 0.86390 0.19700
H 	H 	0.09240 0.88880 0.74360 0.03600
H 	H 	0.12760 0.71580 0.64680 0.04500
H 	H 	0.39190 0.77500 0.74910 0.04400
H 	H 	0.77450 0.96450 0.72400 0.18600
H 	H 	0.80920 0.97090 0.66130 0.19300
H 	H 	0.67640 0.95910 0.67820 0.18900
H 	H 	0.76360 0.85240 0.64610 0.02000
H 	H 	0.69120 0.69360 0.65700 0.19500
H 	H 	0.67010 0.64800 0.71090 0.19300
H 	H 	0.71890 0.61040 0.65730 0.18600
H 	H 	0.51500 0.58560 0.66870 0.02200
H 	H 	0.87250 0.74070 0.05140 0.09300
H 	H 	0.67180 0.74500 0.04870 0.00500
H 	H 	0.67860 0.84610 0.90870 -0.00200
H 	H 	0.87850 0.84210 0.90600 0.08200
H 	H 	0.05610 0.76580 0.90020 0.08000
H 	H 	0.25890 0.76900 0.90260 0.00700
H 	H 	0.25190 0.82750 0.05630 -0.00400
H 	H 	0.05270 0.82130 0.05950 0.09000
H 	H 	0.50120 0.66710 0.91360 -0.01300
H 	H 	0.49380 0.54520 0.91760 0.08600
H 	H 	0.40970 0.56380 0.07630 0.08700
H 	H 	0.41750 0.68540 0.06620 -0.00100
H 	H 	0.25090 0.98200 0.92080 0.01400
H 	H 	0.05220 0.98320 0.91890 0.07500
H 	H 	0.87170 0.05850 0.93060 0.07000
H 	H 	0.67090 0.05670 0.93300 0.01400
H 	H 	0.45240 0.87680 0.77530 0.15100
H 	H 	0.91760 0.86100 0.73370 0.13300
H 	H 	0.49490 0.72790 0.68520 0.15300
C 	C 	0.53780 0.38250 0.60150 0.28200
C 	C 	0.53340 0.42940 0.65270 0.08200
C 	C 	0.40650 0.44750 0.66800 -0.51900
C 	C 	0.70580 0.38540 0.70170 0.22700
C 	C 	0.75210 0.33880 0.74700 -0.06200
C 	C 	0.86240 0.34980 0.76860 0.00100
C 	C 	0.90700 0.30480 0.80760 -0.06700
C 	C 	0.84050 0.24760 0.82720 0.00100
C 	C 	0.72560 0.23780 0.80790 -0.06500
C 	C 	0.68290 0.28290 0.76590 -0.00700
C 	C 	0.02640 0.31650 0.83090 0.22100
C 	C 	0.24290 0.44770 0.81270 -0.52000
C 	C 	0.22540 0.36750 0.81530 0.10100
C 	C 	0.31490 0.32790 0.78070 0.22100
C 	C 	0.65220 0.17920 0.83110 0.23200
C 	C 	0.33310 0.14730 0.82890 -0.51200
C 	C 	0.45900 0.13160 0.84750 0.07700
C 	C 	0.46330 0.12590 0.91020 0.32700
C 	C 	0.16540 0.26320 0.47820 -0.13500
C 	C 	0.28590 0.26600 0.48020 0.07800
C 	C 	0.28190 0.32450 0.56180 0.08300
C 	C 	0.16160 0.32320 0.56360 -0.13500
C 	C 	0.10000 0.29390 0.52030 0.06100
C 	C 	0.97000 0.29370 0.52070 0.05800
C 	C 	0.90540 0.27820 0.56710 -0.12500
C 	C 	0.78360 0.28100 0.56560 0.07600
C 	C 	0.78840 0.31440 0.47580 0.08600
C 	C 	0.90760 0.31150 0.47350 -0.12900
C 	C 	0.51880 0.14560 0.55280 0.07100
C 	C 	0.52270 0.07250 0.55090 -0.11800
C 	C 	0.55090 0.03960 0.50240 0.02000
C 	C 	0.57220 0.08360 0.45810 -0.11500
C 	C 	0.56670 0.15650 0.46460 0.07500
C 	C 	0.79000 0.48970 0.54630 0.07100
C 	C 	0.90900 0.49000 0.54750 -0.12400
C 	C 	0.16720 0.53440 0.54080 -0.11900
C 	C 	0.28800 0.53290 0.53890 0.06000
C 	C 	0.53780 0.61750 0.39850 0.28100
C 	C 	0.53340 0.57060 0.34730 0.08200
C 	C 	0.40650 0.55250 0.33200 -0.52000
C 	C 	0.70580 0.61460 0.29830 0.22700
C 	C 	0.75210 0.66120 0.25300 -0.06100
C 	C 	0.86240 0.65020 0.23140 0.00100
C 	C 	0.90700 0.69520 0.19240 -0.06700
C 	C 	0.84050 0.75240 0.17280 0.00100
C 	C 	0.72560 0.76220 0.19210 -0.06300
C 	C 	0.68290 0.71710 0.23410 -0.00700
C 	C 	0.02640 0.68350 0.16910 0.22100
C 	C 	0.24290 0.55230 0.18730 -0.51700
C 	C 	0.22540 0.63250 0.18470 0.10000
C 	C 	0.31490 0.67210 0.21930 0.22100
C 	C 	0.65220 0.82080 0.16890 0.23200
C 	C 	0.33310 0.85270 0.17110 -0.52300
C 	C 	0.45900 0.86840 0.15250 0.08100
C 	C 	0.46330 0.87410 0.08980 0.32600
C 	C 	0.16540 0.73680 0.52180 -0.13400
C 	C 	0.28590 0.73400 0.51980 0.08000
C 	C 	0.28190 0.67550 0.43820 0.08400
C 	C 	0.16160 0.67680 0.43640 -0.13500
C 	C 	0.10000 0.70610 0.47970 0.06200
C 	C 	0.97000 0.70630 0.47930 0.05900
C 	C 	0.90540 0.72180 0.43290 -0.12400
C 	C 	0.78360 0.71900 0.43440 0.07700
C 	C 	0.78840 0.68560 0.52420 0.08700
C 	C 	0.90760 0.68850 0.52650 -0.12800
C 	C 	0.51880 0.85440 0.44720 0.09900
C 	C 	0.52270 0.92750 0.44910 -0.16200
C 	C 	0.55090 0.96040 0.49760 0.10000
C 	C 	0.57220 0.91640 0.54190 -0.15800
C 	C 	0.56670 0.84350 0.53540 0.10100
C 	C 	0.79000 0.51030 0.45370 0.07100
C 	C 	0.90900 0.51000 0.45250 -0.12400
C 	C 	0.16720 0.46560 0.45920 -0.11900
C 	C 	0.28800 0.46710 0.46110 0.06000
C 	C 	0.46220 0.11750 0.10150 0.28300
C 	C 	0.46660 0.07060 0.15270 0.07800
C 	C 	0.59350 0.05250 0.16800 -0.50900
C 	C 	0.29420 0.11460 0.20170 0.22600
C 	C 	0.24790 0.16120 0.24700 -0.06300
C 	C 	0.13760 0.15020 0.26860 0.00100
C 	C 	0.09300 0.19520 0.30760 -0.06800
C 	C 	0.15950 0.25240 0.32720 0.00100
C 	C 	0.27440 0.26220 0.30790 -0.06500
C 	C 	0.31710 0.21710 0.26590 -0.00700
C 	C 	0.97360 0.18350 0.33090 0.22000
C 	C 	0.75710 0.05230 0.31270 -0.50500
C 	C 	0.77460 0.13250 0.31530 0.09500
C 	C 	0.68510 0.17210 0.28070 0.22300
C 	C 	0.34780 0.32080 0.33110 0.23200
C 	C 	0.66690 0.35270 0.32890 -0.51600
C 	C 	0.54100 0.36840 0.34750 0.07800
C 	C 	0.53670 0.37410 0.41020 0.32800
C 	C 	0.83460 0.23680 0.97820 -0.12000
C 	C 	0.71410 0.23400 0.98020 0.08700
C 	C 	0.71810 0.17550 0.06180 0.07800
C 	C 	0.83840 0.17680 0.06360 -0.13200
C 	C 	0.90000 0.20610 0.02030 0.04900
C 	C 	0.03000 0.20630 0.02070 0.04700
C 	C 	0.09460 0.22180 0.06710 -0.12100
C 	C 	0.21640 0.21900 0.06560 0.07300
C 	C 	0.21160 0.18560 0.97580 0.09500
C 	C 	0.09240 0.18850 0.97350 -0.11500
C 	C 	0.48120 0.35440 0.05280 0.06800
C 	C 	0.47730 0.42750 0.05090 -0.11300
C 	C 	0.44910 0.46040 0.00240 0.01100
C 	C 	0.42780 0.41640 0.95810 -0.10000
C 	C 	0.43330 0.34350 0.96460 0.08400
C 	C 	0.21000 0.01030 0.04630 0.06000
C 	C 	0.09100 0.01000 0.04750 -0.11800
C 	C 	0.83280 0.96560 0.04080 -0.09200
C 	C 	0.71200 0.96710 0.03890 0.07000
C 	C 	0.46220 0.88250 0.89850 0.27900
C 	C 	0.46660 0.92940 0.84730 0.08700
C 	C 	0.59350 0.94750 0.83200 -0.53100
C 	C 	0.29420 0.88540 0.79830 0.22800
C 	C 	0.24790 0.83880 0.75300 -0.06000
C 	C 	0.13760 0.84980 0.73140 0.00100
C 	C 	0.09300 0.80480 0.69240 -0.06600
C 	C 	0.15950 0.74760 0.67280 0.00100
C 	C 	0.27440 0.73780 0.69210 -0.06400
C 	C 	0.31710 0.78290 0.73410 -0.00700
C 	C 	0.97360 0.81650 0.66910 0.22200
C 	C 	0.75710 0.94770 0.68730 -0.53200
C 	C 	0.77460 0.86750 0.68470 0.10600
C 	C 	0.68510 0.82790 0.71930 0.21900
C 	C 	0.34780 0.67920 0.66890 0.23200
C 	C 	0.66690 0.64730 0.67110 -0.51700
C 	C 	0.54100 0.63160 0.65250 0.07900
C 	C 	0.53670 0.62590 0.58980 0.32800
C 	C 	0.83460 0.76320 0.02180 -0.14600
C 	C 	0.71410 0.76600 0.01980 0.07300
C 	C 	0.71810 0.82450 0.93820 0.08800
C 	C 	0.83840 0.82320 0.93640 -0.13800
C 	C 	0.90000 0.79390 0.97970 0.07400
C 	C 	0.03000 0.79370 0.97930 0.06900
C 	C 	0.09460 0.77820 0.93290 -0.12700
C 	C 	0.21640 0.78100 0.93440 0.08000
C 	C 	0.21160 0.81440 0.02420 0.08100
C 	C 	0.09240 0.81150 0.02650 -0.13900
C 	C 	0.48120 0.64560 0.94720 0.10200
C 	C 	0.47730 0.57250 0.94910 -0.16600
C 	C 	0.44910 0.53960 0.99760 0.10900
C 	C 	0.42780 0.58360 0.04190 -0.17300
C 	C 	0.43330 0.65650 0.03540 0.09300
C 	C 	0.21000 0.98970 0.95370 0.09000
C 	C 	0.09100 0.99000 0.95250 -0.09100
C 	C 	0.83280 0.03440 0.95920 -0.09900
C 	C 	0.71200 0.03290 0.96110 0.06100
C 	C 	0.97480 0.50000 0.50000 0.05300
C 	C 	0.10360 0.50000 0.50000 0.04800
C 	C 	0.02520 0.00000 -0.00000 0.02600
C 	C 	0.89640 0.00000 -0.00000 0.01500
N 	N 	0.59100 0.39360 0.69830 -0.23300
N 	N 	0.10450 0.34930 0.79930 -0.23100
N 	N 	0.53460 0.18850 0.82809 -0.23200
N 	N 	0.34730 0.29720 0.52110 -0.23300
N 	N 	0.72500 0.30000 0.52030 -0.23100
N 	N 	0.54090 0.18860 0.51096 -0.24300
N 	N 	0.59100 0.60640 0.30170 -0.23300
N 	N 	0.10450 0.65070 0.20070 -0.23100
N 	N 	0.53460 0.81150 0.17191 -0.23200
N 	N 	0.34730 0.70280 0.47890 -0.23300
N 	N 	0.72500 0.70000 0.47970 -0.23100
N 	N 	0.54090 0.81140 0.48904 -0.25200
N 	N 	0.40900 0.10640 0.19830 -0.23300
N 	N 	0.89550 0.15070 0.29930 -0.23000
N 	N 	0.46540 0.31150 0.32809 -0.23200
N 	N 	0.65270 0.20280 0.02110 -0.23900
N 	N 	0.27500 0.20000 0.02030 -0.23700
N 	N 	0.45910 0.31140 0.01096 -0.24900
N 	N 	0.40900 0.89360 0.80170 -0.23300
N 	N 	0.89550 0.84930 0.70070 -0.23100
N 	N 	0.46540 0.68850 0.67191 -0.23200
N 	N 	0.65270 0.79720 0.97890 -0.22700
N 	N 	0.27500 0.80000 0.97970 -0.22600
N 	N 	0.45910 0.68860 0.98904 -0.24700
N 	N 	0.72810 0.50000 0.50000 -0.22500
N 	N 	0.35110 0.50000 0.50000 -0.22600
N 	N 	0.27190 0.00000 -0.00000 -0.24200
N 	N 	0.64890 0.00000 -0.00000 -0.24300
O 	O 	0.53560 0.40928 0.55372 -0.49900
O 	O 	0.53830 0.31430 0.60640 -0.36800
O 	O 	0.77360 0.41310 0.66760 -0.23700
O 	O 	0.28010 0.29370 0.73980 -0.23600
O 	O 	0.42130 0.33450 0.79460 -0.24800
O 	O 	0.05090 0.29890 0.87890 -0.23400
O 	O 	0.47130 0.18320 0.93724 -0.42700
O 	O 	0.45290 0.06370 0.93018 -0.42900
O 	O 	0.69580 0.12610 0.85170 -0.25400
O 	O 	0.53560 0.59072 0.44628 -0.49900
O 	O 	0.53830 0.68570 0.39360 -0.36600
O 	O 	0.77360 0.58690 0.33240 -0.23700
O 	O 	0.28010 0.70630 0.26020 -0.23400
O 	O 	0.42130 0.66550 0.20540 -0.24800
O 	O 	0.05090 0.70110 0.12110 -0.23600
O 	O 	0.47130 0.81680 0.06276 -0.43400
O 	O 	0.45290 0.93630 0.06982 -0.41900
O 	O 	0.69580 0.87390 0.14830 -0.24600
O 	O 	0.46440 0.09072 0.05372 -0.50300
O 	O 	0.46170 0.18570 0.10640 -0.36800
O 	O 	0.22640 0.08690 0.16760 -0.23900
O 	O 	0.71990 0.20630 0.23980 -0.23600
O 	O 	0.57870 0.16550 0.29460 -0.25000
O 	O 	0.94910 0.20110 0.37890 -0.23600
O 	O 	0.52870 0.31680 0.43724 -0.43200
O 	O 	0.54710 0.43630 0.43018 -0.42900
O 	O 	0.30420 0.37390 0.35170 -0.25100
O 	O 	0.46440 0.90928 0.94628 -0.48800
O 	O 	0.46170 0.81430 0.89360 -0.36600
O 	O 	0.22640 0.91310 0.83240 -0.23400
O 	O 	0.71990 0.79370 0.76020 -0.23400
O 	O 	0.57870 0.83450 0.70540 -0.24700
O 	O 	0.94910 0.79890 0.62110 -0.23400
O 	O 	0.52870 0.68320 0.56276 -0.43100
O 	O 	0.54710 0.56370 0.56982 -0.42900
O 	O 	0.30420 0.62610 0.64830 -0.25100
