data_crystal

_cell_length_a 11.29700
_cell_length_b 18.49500
_cell_length_c 24.21500
_cell_angle_alpha 90.00000
_cell_angle_beta  90.00000
_cell_angle_gamma 90.00000

_symmetry_space_group_name_	'P 1'
_symmetry_space_group_name_H-M	'P 1'

loop_
_symmetry_equiv_pos_as_xyz
  x,y,z

loop_
_atom_site_label
_atom_site_type_symbol
_atom_site_fract_x
_atom_site_fract_y
_atom_site_fract_z
_atom_site_charge
Ni	Ni	0.53293 0.30103 0.52209 1.09400
Ni	Ni	0.53293 0.69897 0.47791 1.09400
Ni	Ni	0.46707 0.19897 0.02209 1.09100
Ni	Ni	0.46707 0.80103 0.97791 1.09700
Ni	Ni	0.53493 0.50000 0.50000 1.11000
Ni	Ni	0.46507 0.00000 -0.00000 1.10000
H 	H 	0.57480 0.47900 0.64500 0.02700
H 	H 	0.36490 0.40860 0.68200 0.19500
H 	H 	0.40320 0.48870 0.69670 0.18700
H 	H 	0.36330 0.46930 0.63580 0.18900
H 	H 	0.91300 0.39420 0.75430 0.03600
H 	H 	0.87510 0.22300 0.85540 0.04700
H 	H 	0.61130 0.27710 0.75070 0.04400
H 	H 	0.24440 0.47310 0.77660 0.17100
H 	H 	0.19440 0.48310 0.83720 0.17800
H 	H 	0.33130 0.46930 0.82790 0.17500
H 	H 	0.24040 0.36120 0.85810 0.02500
H 	H 	0.30800 0.19570 0.84750 0.19800
H 	H 	0.33020 0.15310 0.79170 0.19500
H 	H 	0.28330 0.11150 0.84450 0.18600
H 	H 	0.48730 0.08910 0.83250 0.01500
H 	H 	0.12380 0.24330 0.45070 0.08800
H 	H 	0.32720 0.24940 0.45240 0.00900
H 	H 	0.32280 0.34120 0.59800 0.00300
H 	H 	0.12180 0.34120 0.59940 0.07800
H 	H 	0.94040 0.27510 0.60570 0.07700
H 	H 	0.73630 0.27810 0.60210 0.01200
H 	H 	0.74390 0.32440 0.44460 -0.00200
H 	H 	0.94670 0.31800 0.44240 0.08600
H 	H 	0.49410 0.16730 0.58990 0.00100
H 	H 	0.50610 0.04290 0.58370 0.05900
H 	H 	0.60550 0.06500 0.42570 0.06100
H 	H 	0.59320 0.18930 0.43610 0.01500
H 	H 	0.74020 0.48480 0.57980 0.01700
H 	H 	0.94290 0.48600 0.58260 0.08100
H 	H 	0.12440 0.56040 0.56910 0.07700
H 	H 	0.32780 0.55980 0.56670 0.01900
H 	H 	0.54610 0.38190 0.72660 0.15100
H 	H 	0.08640 0.37530 0.76960 0.13100
H 	H 	0.50920 0.23300 0.81750 0.15500
H 	H 	0.57480 0.52100 0.35500 0.02700
H 	H 	0.36490 0.59140 0.31800 0.19500
H 	H 	0.40320 0.51130 0.30330 0.18700
H 	H 	0.36330 0.53070 0.36420 0.18900
H 	H 	0.91300 0.60580 0.24570 0.03500
H 	H 	0.87510 0.77700 0.14460 0.04800
H 	H 	0.61130 0.72290 0.24930 0.04600
H 	H 	0.24440 0.52690 0.22340 0.17000
H 	H 	0.19440 0.51690 0.16280 0.17600
H 	H 	0.33130 0.53070 0.17210 0.17300
H 	H 	0.24040 0.63880 0.14190 0.02400
H 	H 	0.30800 0.80430 0.15250 0.20300
H 	H 	0.33020 0.84690 0.20830 0.20400
H 	H 	0.28330 0.88850 0.15550 0.19800
H 	H 	0.48730 0.91090 0.16750 0.02400
H 	H 	0.12380 0.75670 0.54930 0.08900
H 	H 	0.32720 0.75060 0.54760 0.00900
H 	H 	0.32280 0.65880 0.40200 0.00300
H 	H 	0.12180 0.65880 0.40060 0.07900
H 	H 	0.94040 0.72490 0.39430 0.07900
H 	H 	0.73630 0.72190 0.39790 0.01300
H 	H 	0.74390 0.67560 0.55540 -0.00200
H 	H 	0.94670 0.68200 0.55760 0.08600
H 	H 	0.49410 0.83270 0.41010 -0.00400
H 	H 	0.50610 0.95710 0.41630 0.08500
H 	H 	0.60550 0.93500 0.57430 0.08100
H 	H 	0.59320 0.81070 0.56390 0.00800
H 	H 	0.74020 0.51520 0.42020 0.01700
H 	H 	0.94290 0.51400 0.41740 0.08100
H 	H 	0.12440 0.43960 0.43090 0.07700
H 	H 	0.32780 0.44020 0.43330 0.02000
H 	H 	0.54610 0.61810 0.27340 0.15100
H 	H 	0.08640 0.62470 0.23040 0.13200
H 	H 	0.50920 0.76700 0.18250 0.15500
H 	H 	0.42520 0.02100 0.14500 0.02300
H 	H 	0.63510 0.09140 0.18200 0.19100
H 	H 	0.59680 0.01130 0.19670 0.17900
H 	H 	0.63670 0.03070 0.13580 0.18100
H 	H 	0.08700 0.10580 0.25430 0.03400
H 	H 	0.12490 0.27700 0.35540 0.04700
H 	H 	0.38870 0.22290 0.25070 0.04500
H 	H 	0.75560 0.02690 0.27660 0.16400
H 	H 	0.80560 0.01690 0.33720 0.16900
H 	H 	0.66870 0.03070 0.32790 0.16700
H 	H 	0.75960 0.13880 0.35810 0.02600
H 	H 	0.69200 0.30430 0.34750 0.20000
H 	H 	0.66980 0.34690 0.29170 0.19900
H 	H 	0.71670 0.38850 0.34450 0.19100
H 	H 	0.51270 0.41090 0.33250 0.02000
H 	H 	0.87620 0.25670 0.95070 0.08600
H 	H 	0.67280 0.25060 0.95240 0.00800
H 	H 	0.67720 0.15880 0.09800 0.00300
H 	H 	0.87820 0.15880 0.09940 0.07600
H 	H 	0.05960 0.22490 0.10570 0.07600
H 	H 	0.26370 0.22190 0.10210 0.01300
H 	H 	0.25610 0.17560 0.94460 -0.00400
H 	H 	0.05330 0.18200 0.94240 0.08200
H 	H 	0.50590 0.33270 0.08990 0.00300
H 	H 	0.49390 0.45710 0.08370 0.06300
H 	H 	0.39450 0.43500 0.92570 0.06100
H 	H 	0.40680 0.31070 0.93610 0.01300
H 	H 	0.25980 0.01520 0.07980 0.01600
H 	H 	0.05710 0.01400 0.08260 0.07500
H 	H 	0.87560 0.93960 0.06910 0.07400
H 	H 	0.67220 0.94020 0.06670 0.02000
H 	H 	0.45390 0.11810 0.22660 0.15000
H 	H 	0.91360 0.12470 0.26960 0.13000
H 	H 	0.49080 0.26700 0.31750 0.15500
H 	H 	0.42520 0.97900 0.85500 0.03000
H 	H 	0.63510 0.90860 0.81800 0.19900
H 	H 	0.59680 0.98870 0.80330 0.19500
H 	H 	0.63670 0.96930 0.86420 0.19800
H 	H 	0.08700 0.89420 0.74570 0.03700
H 	H 	0.12490 0.72300 0.64460 0.04800
H 	H 	0.38870 0.77710 0.74930 0.04500
H 	H 	0.75560 0.97310 0.72340 0.17700
H 	H 	0.80560 0.98310 0.66280 0.18500
H 	H 	0.66870 0.96930 0.67210 0.18100
H 	H 	0.75960 0.86120 0.64190 0.02400
H 	H 	0.69200 0.69570 0.65250 0.20000
H 	H 	0.66980 0.65310 0.70830 0.19900
H 	H 	0.71670 0.61150 0.65550 0.19200
H 	H 	0.51270 0.58910 0.66750 0.02000
H 	H 	0.87620 0.74330 0.04930 0.09100
H 	H 	0.67280 0.74940 0.04760 0.00900
H 	H 	0.67720 0.84120 0.90200 0.00200
H 	H 	0.87820 0.84120 0.90060 0.08100
H 	H 	0.05960 0.77510 0.89430 0.07900
H 	H 	0.26370 0.77810 0.89790 0.01100
H 	H 	0.25610 0.82440 0.05540 -0.00000
H 	H 	0.05330 0.81800 0.05760 0.09000
H 	H 	0.50590 0.66730 0.91010 -0.00600
H 	H 	0.49390 0.54290 0.91630 0.08100
H 	H 	0.39450 0.56500 0.07430 0.08200
H 	H 	0.40680 0.68930 0.06390 0.00900
H 	H 	0.25980 0.98480 0.92020 0.01500
H 	H 	0.05710 0.98600 0.91740 0.07700
H 	H 	0.87560 0.06040 0.93090 0.07000
H 	H 	0.67220 0.05980 0.93330 0.01800
H 	H 	0.45390 0.88190 0.77340 0.15100
H 	H 	0.91360 0.87530 0.73040 0.13300
H 	H 	0.49080 0.73300 0.68250 0.15500
C 	C 	0.53561 0.38441 0.60271 0.28700
C 	C 	0.53211 0.43358 0.65350 0.08500
C 	C 	0.40427 0.45170 0.66835 -0.52100
C 	C 	0.70855 0.39146 0.70176 0.22100
C 	C 	0.75356 0.34331 0.74670 -0.05800
C 	C 	0.86749 0.35544 0.76767 -0.00500
C 	C 	0.91311 0.31028 0.80817 -0.06300
C 	C 	0.84420 0.25381 0.82815 -0.00100
C 	C 	0.72977 0.24220 0.80835 -0.06300
C 	C 	0.68628 0.28630 0.76601 -0.00700
C 	C 	0.03550 0.32129 0.83205 0.22800
C 	C 	0.25230 0.45791 0.81476 -0.49400
C 	C 	0.23142 0.37572 0.81894 0.08500
C 	C 	0.32260 0.33405 0.78446 0.23200
C 	C 	0.65686 0.18321 0.83177 0.22500
C 	C 	0.33412 0.15024 0.83164 -0.52700
C 	C 	0.46138 0.13520 0.84931 0.08500
C 	C 	0.46631 0.12780 0.91230 0.32100
C 	C 	0.16275 0.26478 0.48084 -0.13200
C 	C 	0.28483 0.26816 0.48258 0.07700
C 	C 	0.28220 0.32216 0.56739 0.07900
C 	C 	0.16199 0.32210 0.56871 -0.13200
C 	C 	0.09862 0.29366 0.52449 0.06000
C 	C 	0.96762 0.29543 0.52410 0.05500
C 	C 	0.90191 0.28436 0.57201 -0.12200
C 	C 	0.77953 0.28705 0.56965 0.07400
C 	C 	0.78438 0.31344 0.47748 0.08100
C 	C 	0.90599 0.31026 0.47575 -0.12500
C 	C 	0.51670 0.14646 0.55612 0.06100
C 	C 	0.52300 0.07168 0.55268 -0.11000
C 	C 	0.55403 0.04034 0.50351 0.02000
C 	C 	0.58180 0.08491 0.45972 -0.10400
C 	C 	0.57440 0.15943 0.46622 0.06000
C 	C 	0.78198 0.49133 0.54665 0.07300
C 	C 	0.90348 0.49152 0.54870 -0.12400
C 	C 	0.16374 0.53570 0.54063 -0.11300
C 	C 	0.28614 0.53478 0.53906 0.05600
C 	C 	0.53561 0.61559 0.39729 0.28600
C 	C 	0.53211 0.56642 0.34650 0.08500
C 	C 	0.40427 0.54830 0.33165 -0.52200
C 	C 	0.70855 0.60854 0.29824 0.22100
C 	C 	0.75356 0.65669 0.25330 -0.05700
C 	C 	0.86749 0.64456 0.23233 -0.00500
C 	C 	0.91311 0.68972 0.19183 -0.06300
C 	C 	0.84420 0.74619 0.17185 -0.00100
C 	C 	0.72977 0.75780 0.19165 -0.06100
C 	C 	0.68628 0.71370 0.23399 -0.00700
C 	C 	0.03550 0.67871 0.16795 0.22900
C 	C 	0.25230 0.54209 0.18524 -0.49200
C 	C 	0.23142 0.62428 0.18106 0.08500
C 	C 	0.32260 0.66595 0.21554 0.23200
C 	C 	0.65686 0.81679 0.16823 0.22500
C 	C 	0.33412 0.84976 0.16836 -0.53900
C 	C 	0.46138 0.86480 0.15069 0.08900
C 	C 	0.46631 0.87220 0.08770 0.32000
C 	C 	0.16275 0.73522 0.51916 -0.13200
C 	C 	0.28483 0.73184 0.51742 0.07800
C 	C 	0.28220 0.67784 0.43261 0.08000
C 	C 	0.16199 0.67790 0.43129 -0.13200
C 	C 	0.09862 0.70634 0.47551 0.06100
C 	C 	0.96762 0.70457 0.47590 0.05600
C 	C 	0.90191 0.71564 0.42799 -0.12100
C 	C 	0.77953 0.71295 0.43035 0.07500
C 	C 	0.78438 0.68656 0.52252 0.08200
C 	C 	0.90599 0.68974 0.52425 -0.12500
C 	C 	0.51670 0.85354 0.44388 0.08400
C 	C 	0.52300 0.92832 0.44732 -0.14600
C 	C 	0.55403 0.95966 0.49649 0.08900
C 	C 	0.58180 0.91509 0.54028 -0.13900
C 	C 	0.57440 0.84057 0.53378 0.08200
C 	C 	0.78198 0.50867 0.45335 0.07300
C 	C 	0.90348 0.50848 0.45130 -0.12400
C 	C 	0.16374 0.46430 0.45937 -0.11300
C 	C 	0.28614 0.46522 0.46094 0.05600
C 	C 	0.46439 0.11559 0.10271 0.28700
C 	C 	0.46789 0.06642 0.15350 0.08100
C 	C 	0.59573 0.04830 0.16835 -0.51100
C 	C 	0.29145 0.10854 0.20176 0.22100
C 	C 	0.24644 0.15669 0.24670 -0.05900
C 	C 	0.13251 0.14456 0.26767 -0.00500
C 	C 	0.08689 0.18972 0.30817 -0.06400
C 	C 	0.15580 0.24619 0.32815 -0.00100
C 	C 	0.27023 0.25780 0.30835 -0.06300
C 	C 	0.31372 0.21370 0.26601 -0.00700
C 	C 	0.96450 0.17871 0.33205 0.22800
C 	C 	0.74770 0.04209 0.31476 -0.48000
C 	C 	0.76858 0.12428 0.31894 0.08000
C 	C 	0.67740 0.16595 0.28446 0.23400
C 	C 	0.34314 0.31679 0.33177 0.22500
C 	C 	0.66588 0.34976 0.33164 -0.53100
C 	C 	0.53862 0.36480 0.34931 0.08600
C 	C 	0.53369 0.37220 0.41230 0.32200
C 	C 	0.83725 0.23522 0.98084 -0.11800
C 	C 	0.71517 0.23184 0.98258 0.08600
C 	C 	0.71780 0.17784 0.06739 0.07400
C 	C 	0.83801 0.17790 0.06871 -0.12900
C 	C 	0.90138 0.20634 0.02449 0.04900
C 	C 	0.03238 0.20457 0.02410 0.04500
C 	C 	0.09809 0.21564 0.07201 -0.11900
C 	C 	0.22047 0.21295 0.06965 0.07100
C 	C 	0.21562 0.18656 0.97748 0.09000
C 	C 	0.09401 0.18974 0.97575 -0.11100
C 	C 	0.48330 0.35354 0.05612 0.05900
C 	C 	0.47700 0.42832 0.05268 -0.10600
C 	C 	0.44597 0.45966 0.00351 0.01100
C 	C 	0.41820 0.41509 0.95972 -0.09000
C 	C 	0.42560 0.34057 0.96622 0.06900
C 	C 	0.21802 0.00867 0.04665 0.06200
C 	C 	0.09652 0.00848 0.04870 -0.11900
C 	C 	0.83626 0.96430 0.04063 -0.08800
C 	C 	0.71386 0.96522 0.03906 0.06500
C 	C 	0.46439 0.88441 0.89729 0.28400
C 	C 	0.46789 0.93358 0.84650 0.09000
C 	C 	0.59573 0.95170 0.83165 -0.53300
C 	C 	0.29145 0.89146 0.79824 0.22200
C 	C 	0.24644 0.84331 0.75330 -0.05700
C 	C 	0.13251 0.85544 0.73233 -0.00400
C 	C 	0.08689 0.81028 0.69183 -0.06200
C 	C 	0.15580 0.75381 0.67185 -0.00100
C 	C 	0.27023 0.74220 0.69165 -0.06200
C 	C 	0.31372 0.78630 0.73399 -0.00700
C 	C 	0.96450 0.82129 0.66795 0.22900
C 	C 	0.74770 0.95791 0.68524 -0.50600
C 	C 	0.76858 0.87572 0.68106 0.09000
C 	C 	0.67740 0.83405 0.71554 0.23000
C 	C 	0.34314 0.68321 0.66823 0.22500
C 	C 	0.66588 0.65024 0.66836 -0.53200
C 	C 	0.53862 0.63520 0.65069 0.08600
C 	C 	0.53369 0.62780 0.58770 0.32200
C 	C 	0.83725 0.76478 0.01916 -0.14300
C 	C 	0.71517 0.76816 0.01742 0.07200
C 	C 	0.71780 0.82216 0.93261 0.08400
C 	C 	0.83801 0.82210 0.93129 -0.13500
C 	C 	0.90138 0.79366 0.97551 0.07200
C 	C 	0.03238 0.79543 0.97590 0.06600
C 	C 	0.09809 0.78436 0.92799 -0.12400
C 	C 	0.22047 0.78705 0.93035 0.07800
C 	C 	0.21562 0.81344 0.02252 0.07600
C 	C 	0.09401 0.81026 0.02425 -0.13500
C 	C 	0.48330 0.64646 0.94388 0.08700
C 	C 	0.47700 0.57168 0.94732 -0.15100
C 	C 	0.44597 0.54034 0.99649 0.09800
C 	C 	0.41820 0.58491 0.04028 -0.15400
C 	C 	0.42560 0.65943 0.03378 0.07500
C 	C 	0.21802 0.99133 0.95335 0.09200
C 	C 	0.09652 0.99152 0.95130 -0.09400
C 	C 	0.83626 0.03570 0.95937 -0.09500
C 	C 	0.71386 0.03478 0.96094 0.05700
C 	C 	0.96800 0.50000 0.50000 0.05500
C 	C 	0.09840 0.50000 0.50000 0.04400
C 	C 	0.03200 0.00000 -0.00000 0.02900
C 	C 	0.90160 0.00000 -0.00000 0.01300
N 	N 	0.58904 0.39865 0.69966 -0.22900
N 	N 	0.11039 0.35932 0.80152 -0.23100
N 	N 	0.53885 0.19279 0.83005 -0.23400
N 	N 	0.34712 0.29654 0.52472 -0.22700
N 	N 	0.71991 0.30184 0.52315 -0.22600
N 	N 	0.54131 0.19019 0.51393 -0.23000
N 	N 	0.58904 0.60135 0.30034 -0.22900
N 	N 	0.11039 0.64068 0.19848 -0.23100
N 	N 	0.53885 0.80721 0.16995 -0.23300
N 	N 	0.34712 0.70346 0.47528 -0.22700
N 	N 	0.71991 0.69816 0.47685 -0.22600
N 	N 	0.54131 0.80981 0.48607 -0.23800
N 	N 	0.41096 0.10135 0.19966 -0.22900
N 	N 	0.88961 0.14068 0.30152 -0.23000
N 	N 	0.46115 0.30721 0.33005 -0.23300
N 	N 	0.65288 0.20346 0.02472 -0.23300
N 	N 	0.28009 0.19816 0.02315 -0.23200
N 	N 	0.45869 0.30981 0.01393 -0.23600
N 	N 	0.41096 0.89865 0.80034 -0.23000
N 	N 	0.88961 0.85932 0.69848 -0.23100
N 	N 	0.46115 0.69279 0.66995 -0.23300
N 	N 	0.65288 0.79654 0.97528 -0.22200
N 	N 	0.28009 0.80184 0.97685 -0.22100
N 	N 	0.45869 0.69019 0.98607 -0.23300
N 	N 	0.71965 0.50000 0.50000 -0.22300
N 	N 	0.34850 0.50000 0.50000 -0.21900
N 	N 	0.28035 0.00000 -0.00000 -0.23900
N 	N 	0.65150 0.00000 -0.00000 -0.23600
O 	O 	0.53084 0.40971 0.55402 -0.48800
O 	O 	0.53762 0.31694 0.60900 -0.36700
O 	O 	0.77452 0.42033 0.66741 -0.23800
O 	O 	0.28785 0.29803 0.74420 -0.23900
O 	O 	0.42936 0.34009 0.79877 -0.25100
O 	O 	0.06073 0.29475 0.87695 -0.24100
O 	O 	0.47452 0.18482 0.94024 -0.41400
O 	O 	0.45800 0.06421 0.93116 -0.41800
O 	O 	0.70274 0.12835 0.85204 -0.24900
O 	O 	0.53084 0.59029 0.44598 -0.48800
O 	O 	0.53762 0.68306 0.39100 -0.36600
O 	O 	0.77452 0.57967 0.33259 -0.23800
O 	O 	0.28785 0.70197 0.25580 -0.23700
O 	O 	0.42936 0.65991 0.20123 -0.25100
O 	O 	0.06073 0.70525 0.12305 -0.24300
O 	O 	0.47452 0.81518 0.05976 -0.42100
O 	O 	0.45800 0.93579 0.06884 -0.40800
O 	O 	0.70274 0.87165 0.14796 -0.24100
O 	O 	0.46916 0.09029 0.05402 -0.49200
O 	O 	0.46238 0.18306 0.10900 -0.36700
O 	O 	0.22548 0.07967 0.16741 -0.24100
O 	O 	0.71215 0.20197 0.24420 -0.23900
O 	O 	0.57064 0.15991 0.29877 -0.25200
O 	O 	0.93927 0.20525 0.37695 -0.24300
O 	O 	0.52548 0.31518 0.44024 -0.41800
O 	O 	0.54200 0.43579 0.43116 -0.41800
O 	O 	0.29726 0.37165 0.35204 -0.24500
O 	O 	0.46916 0.90971 0.94598 -0.47800
O 	O 	0.46238 0.81694 0.89100 -0.36500
O 	O 	0.22548 0.92033 0.83259 -0.23500
O 	O 	0.71215 0.79803 0.75580 -0.23700
O 	O 	0.57064 0.84009 0.70123 -0.25000
O 	O 	0.93927 0.79475 0.62305 -0.24200
O 	O 	0.52548 0.68482 0.55976 -0.41800
O 	O 	0.54200 0.56421 0.56884 -0.41800
O 	O 	0.29726 0.62835 0.64796 -0.24500
