data_crystal

_cell_length_a 17.15000
_cell_length_b 17.15000
_cell_length_c 17.15000
_cell_angle_alpha 90.00000
_cell_angle_beta  90.00000
_cell_angle_gamma 90.00000

_symmetry_space_group_name_	'P 1'
_symmetry_space_group_name_H-M	'P 1'

loop_
_symmetry_equiv_pos_as_xyz
  x,y,z

loop_
_atom_site_label
_atom_site_type_symbol
_atom_site_fract_x
_atom_site_fract_y
_atom_site_fract_z
_atom_site_charge
C 	C 	0.36668 0.89333 0.68072 -0.00500
H 	H 	0.37465 0.85197 0.71756 0.01100
H 	H 	0.45500 0.07916 0.56967 0.02500
H 	H 	0.36940 0.10306 0.54804 0.05900
N 	N 	0.40824 0.96247 0.67749 -0.20800
C 	C 	0.86264 0.39737 0.18476 -0.01200
H 	H 	0.87062 0.35600 0.22160 0.01200
H 	H 	0.95096 0.57512 0.07370 0.06900
H 	H 	0.86536 0.59903 0.05208 0.10100
N 	N 	0.90420 0.46651 0.18152 -0.27300
C 	C 	0.62525 0.09860 0.68072 -0.02100
H 	H 	0.61728 0.13996 0.71756 0.00600
H 	H 	0.53693 0.91278 0.56967 0.08300
H 	H 	0.62254 0.88887 0.54804 0.16100
N 	N 	0.58369 0.02946 0.67749 -0.37300
C 	C 	0.12929 0.59456 0.18476 -0.03000
H 	H 	0.12131 0.63593 0.22160 -0.00800
H 	H 	0.04097 0.41681 0.07370 0.00700
H 	H 	0.12657 0.39290 0.05208 0.04600
N 	N 	0.08773 0.52543 0.18152 -0.32200
C 	C 	0.62525 0.89333 0.31121 -0.00300
H 	H 	0.61728 0.85197 0.27437 0.01000
H 	H 	0.53693 0.07916 0.42227 0.02600
H 	H 	0.62254 0.10306 0.44389 0.06000
N 	N 	0.58369 0.96247 0.31444 -0.20800
C 	C 	0.12929 0.39737 0.80717 -0.02600
H 	H 	0.12131 0.35600 0.77033 -0.00600
H 	H 	0.04097 0.57512 0.91823 0.04100
H 	H 	0.12657 0.59903 0.93985 0.13200
N 	N 	0.08773 0.46651 0.81041 -0.32800
C 	C 	0.36668 0.09860 0.31121 -0.02700
H 	H 	0.37465 0.13996 0.27437 -0.00100
H 	H 	0.45500 0.91278 0.42227 0.08300
H 	H 	0.36940 0.88887 0.44389 0.16000
N 	N 	0.40824 0.02946 0.31444 -0.37500
C 	C 	0.86264 0.59456 0.80717 -0.00200
H 	H 	0.87062 0.63593 0.77033 0.02600
H 	H 	0.95096 0.41681 0.91823 0.10100
H 	H 	0.86536 0.39290 0.93985 0.17500
N 	N 	0.90420 0.52543 0.81041 -0.27800
C 	C 	0.68072 0.36668 0.89333 -0.00400
H 	H 	0.71756 0.37465 0.85197 0.01200
H 	H 	0.56967 0.45500 0.07916 0.02600
H 	H 	0.54804 0.36940 0.10306 0.06000
N 	N 	0.67749 0.40824 0.96247 -0.20700
C 	C 	0.18476 0.86264 0.39737 -0.01100
H 	H 	0.22160 0.87062 0.35600 0.01300
H 	H 	0.07370 0.95096 0.57512 0.07000
H 	H 	0.05208 0.86536 0.59903 0.10200
N 	N 	0.18152 0.90420 0.46651 -0.27300
C 	C 	0.68072 0.62525 0.09860 -0.02100
H 	H 	0.71756 0.61728 0.13996 0.00600
H 	H 	0.56967 0.53693 0.91278 0.08300
H 	H 	0.54804 0.62254 0.88887 0.16100
N 	N 	0.67749 0.58369 0.02946 -0.37300
C 	C 	0.18476 0.12929 0.59456 -0.03000
H 	H 	0.22160 0.12131 0.63593 -0.00800
H 	H 	0.07370 0.04097 0.41681 0.00700
H 	H 	0.05208 0.12657 0.39290 0.04600
N 	N 	0.18152 0.08773 0.52543 -0.32200
C 	C 	0.31121 0.62525 0.89333 -0.00300
H 	H 	0.27437 0.61728 0.85197 0.01000
H 	H 	0.42227 0.53693 0.07916 0.02600
H 	H 	0.44389 0.62254 0.10306 0.06000
N 	N 	0.31444 0.58369 0.96247 -0.20800
C 	C 	0.80717 0.12929 0.39737 -0.02600
H 	H 	0.77033 0.12131 0.35600 -0.00600
H 	H 	0.91823 0.04097 0.57512 0.04100
H 	H 	0.93985 0.12657 0.59903 0.13200
N 	N 	0.81041 0.08773 0.46651 -0.32800
C 	C 	0.31121 0.36668 0.09860 -0.02700
H 	H 	0.27437 0.37465 0.13996 -0.00100
H 	H 	0.42227 0.45500 0.91278 0.08300
H 	H 	0.44389 0.36940 0.88887 0.16000
N 	N 	0.31444 0.40824 0.02946 -0.37500
C 	C 	0.80717 0.86264 0.59456 -0.00200
H 	H 	0.77033 0.87062 0.63593 0.02600
H 	H 	0.91823 0.95096 0.41681 0.10100
H 	H 	0.93985 0.86536 0.39290 0.17500
N 	N 	0.81041 0.90420 0.52543 -0.27800
C 	C 	0.89333 0.68072 0.36668 -0.00400
H 	H 	0.85197 0.71756 0.37465 0.01200
H 	H 	0.07916 0.56967 0.45500 0.02600
H 	H 	0.10306 0.54804 0.36940 0.06000
N 	N 	0.96247 0.67749 0.40824 -0.20700
C 	C 	0.39737 0.18476 0.86264 -0.01100
H 	H 	0.35600 0.22160 0.87062 0.01300
H 	H 	0.57512 0.07370 0.95096 0.07000
H 	H 	0.59903 0.05208 0.86536 0.10200
N 	N 	0.46651 0.18152 0.90420 -0.27300
C 	C 	0.09860 0.68072 0.62525 -0.02100
H 	H 	0.13996 0.71756 0.61728 0.00600
H 	H 	0.91278 0.56967 0.53693 0.08300
H 	H 	0.88887 0.54804 0.62254 0.16100
N 	N 	0.02946 0.67749 0.58369 -0.37300
C 	C 	0.59456 0.18476 0.12929 -0.03000
H 	H 	0.63593 0.22160 0.12131 -0.00800
H 	H 	0.41681 0.07370 0.04097 0.00700
H 	H 	0.39290 0.05208 0.12657 0.04600
N 	N 	0.52543 0.18152 0.08773 -0.32200
C 	C 	0.89333 0.31121 0.62525 -0.00300
H 	H 	0.85197 0.27437 0.61728 0.01000
H 	H 	0.07916 0.42227 0.53693 0.02600
H 	H 	0.10306 0.44389 0.62254 0.06000
N 	N 	0.96247 0.31444 0.58369 -0.20800
C 	C 	0.39737 0.80717 0.12929 -0.02600
H 	H 	0.35600 0.77033 0.12131 -0.00600
H 	H 	0.57512 0.91823 0.04097 0.04100
H 	H 	0.59903 0.93985 0.12657 0.13200
N 	N 	0.46651 0.81041 0.08773 -0.32800
C 	C 	0.09860 0.31121 0.36668 -0.02700
H 	H 	0.13996 0.27437 0.37465 -0.00100
H 	H 	0.91278 0.42227 0.45500 0.08300
H 	H 	0.88887 0.44389 0.36940 0.16000
N 	N 	0.02946 0.31444 0.40824 -0.37500
C 	C 	0.59456 0.80717 0.86264 -0.00200
H 	H 	0.63593 0.77033 0.87062 0.02600
H 	H 	0.41681 0.91823 0.95096 0.10100
H 	H 	0.39290 0.93985 0.86536 0.17500
N 	N 	0.52543 0.81041 0.90420 -0.27800
C 	C 	0.89333 0.36668 0.68072 -0.00400
H 	H 	0.85197 0.37465 0.71756 0.01200
H 	H 	0.07916 0.45500 0.56967 0.02600
H 	H 	0.10306 0.36940 0.54804 0.06000
N 	N 	0.96247 0.40824 0.67749 -0.20700
C 	C 	0.39737 0.86264 0.18476 -0.01100
H 	H 	0.35600 0.87062 0.22160 0.01300
H 	H 	0.57512 0.95096 0.07370 0.07000
H 	H 	0.59903 0.86536 0.05208 0.10200
N 	N 	0.46651 0.90420 0.18152 -0.27300
C 	C 	0.09860 0.62525 0.68072 -0.02100
H 	H 	0.13996 0.61728 0.71756 0.00600
H 	H 	0.91278 0.53693 0.56967 0.08300
H 	H 	0.88887 0.62254 0.54804 0.16100
N 	N 	0.02946 0.58369 0.67749 -0.37300
C 	C 	0.59456 0.12929 0.18476 -0.03000
H 	H 	0.63593 0.12131 0.22160 -0.00800
H 	H 	0.41681 0.04097 0.07370 0.00700
H 	H 	0.39290 0.12657 0.05208 0.04600
N 	N 	0.52543 0.08773 0.18152 -0.32200
C 	C 	0.89333 0.62525 0.31121 -0.00300
H 	H 	0.85197 0.61728 0.27437 0.01000
H 	H 	0.07916 0.53693 0.42227 0.02600
H 	H 	0.10306 0.62254 0.44389 0.06000
N 	N 	0.96247 0.58369 0.31444 -0.20800
C 	C 	0.39737 0.12929 0.80717 -0.02600
H 	H 	0.35600 0.12131 0.77033 -0.00600
H 	H 	0.57512 0.04097 0.91823 0.04100
H 	H 	0.59903 0.12657 0.93985 0.13200
N 	N 	0.46651 0.08773 0.81041 -0.32800
C 	C 	0.09860 0.36668 0.31121 -0.02700
H 	H 	0.13996 0.37465 0.27437 -0.00100
H 	H 	0.91278 0.45500 0.42227 0.08300
H 	H 	0.88887 0.36940 0.44389 0.16000
N 	N 	0.02946 0.40824 0.31444 -0.37500
C 	C 	0.59456 0.86264 0.80717 -0.00200
H 	H 	0.63593 0.87062 0.77033 0.02600
H 	H 	0.41681 0.95096 0.91823 0.10100
H 	H 	0.39290 0.86536 0.93985 0.17500
N 	N 	0.52543 0.90420 0.81041 -0.27800
C 	C 	0.36668 0.68072 0.89333 -0.00400
H 	H 	0.37465 0.71756 0.85197 0.01200
H 	H 	0.45500 0.56967 0.07916 0.02600
H 	H 	0.36940 0.54804 0.10306 0.06000
N 	N 	0.40824 0.67749 0.96247 -0.20700
C 	C 	0.86264 0.18476 0.39737 -0.01100
H 	H 	0.87062 0.22160 0.35600 0.01300
H 	H 	0.95096 0.07370 0.57512 0.07000
H 	H 	0.86536 0.05208 0.59903 0.10200
N 	N 	0.90420 0.18152 0.46651 -0.27300
C 	C 	0.62525 0.68072 0.09860 -0.02100
H 	H 	0.61728 0.71756 0.13996 0.00600
H 	H 	0.53693 0.56967 0.91278 0.08300
H 	H 	0.62254 0.54804 0.88887 0.16100
N 	N 	0.58369 0.67749 0.02946 -0.37300
C 	C 	0.12929 0.18476 0.59456 -0.03000
H 	H 	0.12131 0.22160 0.63593 -0.00800
H 	H 	0.04097 0.07370 0.41681 0.00700
H 	H 	0.12657 0.05208 0.39290 0.04600
N 	N 	0.08773 0.18152 0.52543 -0.32200
C 	C 	0.62525 0.31121 0.89333 -0.00300
H 	H 	0.61728 0.27437 0.85197 0.01000
H 	H 	0.53693 0.42227 0.07916 0.02600
H 	H 	0.62254 0.44389 0.10306 0.06000
N 	N 	0.58369 0.31444 0.96247 -0.20800
C 	C 	0.12929 0.80717 0.39737 -0.02600
H 	H 	0.12131 0.77033 0.35600 -0.00600
H 	H 	0.04097 0.91823 0.57512 0.04100
H 	H 	0.12657 0.93985 0.59903 0.13200
N 	N 	0.08773 0.81041 0.46651 -0.32800
C 	C 	0.36668 0.31121 0.09860 -0.02700
H 	H 	0.37465 0.27437 0.13996 -0.00100
H 	H 	0.45500 0.42227 0.91278 0.08300
H 	H 	0.36940 0.44389 0.88887 0.16000
N 	N 	0.40824 0.31444 0.02946 -0.37500
C 	C 	0.86264 0.80717 0.59456 -0.00200
H 	H 	0.87062 0.77033 0.63593 0.02600
H 	H 	0.95096 0.91823 0.41681 0.10100
H 	H 	0.86536 0.93985 0.39290 0.17500
N 	N 	0.90420 0.81041 0.52543 -0.27800
C 	C 	0.68072 0.89333 0.36668 -0.00400
H 	H 	0.71756 0.85197 0.37465 0.01200
H 	H 	0.56967 0.07916 0.45500 0.02600
H 	H 	0.54804 0.10306 0.36940 0.06000
N 	N 	0.67749 0.96247 0.40824 -0.20700
C 	C 	0.18476 0.39737 0.86264 -0.01100
H 	H 	0.22160 0.35600 0.87062 0.01300
H 	H 	0.07370 0.57512 0.95096 0.07000
H 	H 	0.05208 0.59903 0.86536 0.10200
N 	N 	0.18152 0.46651 0.90420 -0.27300
C 	C 	0.68072 0.09860 0.62525 -0.02100
H 	H 	0.71756 0.13996 0.61728 0.00600
H 	H 	0.56967 0.91278 0.53693 0.08300
H 	H 	0.54804 0.88887 0.62254 0.16100
N 	N 	0.67749 0.02946 0.58369 -0.37300
C 	C 	0.18476 0.59456 0.12929 -0.03000
H 	H 	0.22160 0.63593 0.12131 -0.00800
H 	H 	0.07370 0.41681 0.04097 0.00700
H 	H 	0.05208 0.39290 0.12657 0.04600
N 	N 	0.18152 0.52543 0.08773 -0.32200
C 	C 	0.31121 0.89333 0.62525 -0.00300
H 	H 	0.27437 0.85197 0.61728 0.01000
H 	H 	0.42227 0.07916 0.53693 0.02600
H 	H 	0.44389 0.10306 0.62254 0.06000
N 	N 	0.31444 0.96247 0.58369 -0.20800
C 	C 	0.80717 0.39737 0.12929 -0.02600
H 	H 	0.77033 0.35600 0.12131 -0.00600
H 	H 	0.91823 0.57512 0.04097 0.04100
H 	H 	0.93985 0.59903 0.12657 0.13200
N 	N 	0.81041 0.46651 0.08773 -0.32800
C 	C 	0.31121 0.09860 0.36668 -0.02700
H 	H 	0.27437 0.13996 0.37465 -0.00100
H 	H 	0.42227 0.91278 0.45500 0.08300
H 	H 	0.44389 0.88887 0.36940 0.16000
N 	N 	0.31444 0.02946 0.40824 -0.37500
C 	C 	0.80717 0.59456 0.86264 -0.00200
H 	H 	0.77033 0.63593 0.87062 0.02600
H 	H 	0.91823 0.41681 0.95096 0.10100
H 	H 	0.93985 0.39290 0.86536 0.17500
N 	N 	0.81041 0.52543 0.90420 -0.27800
Zn	Zn	0.49597 0.00000 0.74395 1.14000
Zn	Zn	0.49597 0.00000 0.24798 1.13800
Zn	Zn	0.74395 0.49597 -0.00000 1.14000
Zn	Zn	0.24798 0.49597 -0.00000 1.13800
Zn	Zn	0.00000 0.74395 0.49597 1.14000
Zn	Zn	-0.00000 0.24798 0.49597 1.13800
Zn	Zn	0.00000 0.49597 0.74395 1.14000
Zn	Zn	-0.00000 0.49597 0.24798 1.13800
Zn	Zn	0.49597 0.74395 -0.00000 1.14000
Zn	Zn	0.49597 0.24798 -0.00000 1.13800
Zn	Zn	0.74395 0.00000 0.49597 1.14000
Zn	Zn	0.24798 0.00000 0.49597 1.13800
C 	C 	0.37356 0.00813 0.61837 -0.05800
C 	C 	0.40124 0.08610 0.59070 -0.29700
C 	C 	0.86953 0.50410 0.12240 0.18800
C 	C 	0.89720 0.58207 0.09473 -0.47000
C 	C 	0.61837 0.98380 0.61837 0.33300
C 	C 	0.59070 0.90583 0.59070 -0.58800
C 	C 	0.12240 0.48783 0.12240 0.13100
C 	C 	0.09473 0.40987 0.09473 -0.34800
C 	C 	0.61837 0.00813 0.37356 -0.05800
C 	C 	0.59070 0.08610 0.40124 -0.29700
C 	C 	0.12240 0.50410 0.86953 0.18800
C 	C 	0.09473 0.58207 0.89720 -0.47000
C 	C 	0.37356 0.98380 0.37356 0.32900
C 	C 	0.40124 0.90583 0.40124 -0.59000
C 	C 	0.86953 0.48783 0.86953 0.24200
C 	C 	0.89720 0.40987 0.89720 -0.58200
C 	C 	0.61837 0.37356 0.00813 -0.05800
C 	C 	0.59070 0.40124 0.08610 -0.29700
C 	C 	0.12240 0.86953 0.50410 0.18800
C 	C 	0.09473 0.89720 0.58207 -0.47000
C 	C 	0.61837 0.61837 0.98380 0.33300
C 	C 	0.59070 0.59070 0.90583 -0.58800
C 	C 	0.12240 0.12240 0.48783 0.13100
C 	C 	0.09473 0.09473 0.40987 -0.34800
C 	C 	0.37356 0.61837 0.00813 -0.05800
C 	C 	0.40124 0.59070 0.08610 -0.29700
C 	C 	0.86953 0.12240 0.50410 0.18800
C 	C 	0.89720 0.09473 0.58207 -0.47000
C 	C 	0.37356 0.37356 0.98380 0.32900
C 	C 	0.40124 0.40124 0.90583 -0.59000
C 	C 	0.86953 0.86953 0.48783 0.24200
C 	C 	0.89720 0.89720 0.40987 -0.58200
C 	C 	0.00813 0.61837 0.37356 -0.05800
C 	C 	0.08610 0.59070 0.40124 -0.29700
C 	C 	0.50410 0.12240 0.86953 0.18800
C 	C 	0.58207 0.09473 0.89720 -0.47000
C 	C 	0.98380 0.61837 0.61837 0.33300
C 	C 	0.90583 0.59070 0.59070 -0.58800
C 	C 	0.48783 0.12240 0.12240 0.13100
C 	C 	0.40987 0.09473 0.09473 -0.34800
C 	C 	0.00813 0.37356 0.61837 -0.05800
C 	C 	0.08610 0.40124 0.59070 -0.29700
C 	C 	0.50410 0.86953 0.12240 0.18800
C 	C 	0.58207 0.89720 0.09473 -0.47000
C 	C 	0.98380 0.37356 0.37356 0.32900
C 	C 	0.90583 0.40124 0.40124 -0.59000
C 	C 	0.48783 0.86953 0.86953 0.24200
C 	C 	0.40987 0.89720 0.89720 -0.58200
