data_crystal

_cell_length_a 7.77190
_cell_length_b 12.66130
_cell_length_c 12.66130
_cell_angle_alpha 64.07450
_cell_angle_beta  78.19330
_cell_angle_gamma 101.80700

_symmetry_space_group_name_	'P 1'
_symmetry_space_group_name_H-M	'P 1'

loop_
_symmetry_equiv_pos_as_xyz
  x,y,z

loop_
_atom_site_label
_atom_site_type_symbol
_atom_site_fract_x
_atom_site_fract_y
_atom_site_fract_z
_atom_site_charge
Cu	Cu	0.50000 0.50000 -0.00000 0.87100
Cu	Cu	0.50000 0.00000 0.50000 0.87500
Cu	Cu	-0.00000 0.50000 0.50000 0.88900
H 	H 	0.08300 0.61500 0.99200 0.05400
H 	H 	0.56100 0.84300 0.74000 0.04200
H 	H 	0.12000 0.84200 0.64000 0.02000
H 	H 	0.07500 0.99200 0.39300 0.08500
H 	H 	0.30100 0.74000 0.41700 0.02400
H 	H 	0.76000 0.64000 0.51800 0.01900
H 	H 	0.46800 0.39300 0.61500 0.03800
H 	H 	0.71800 0.41700 0.84300 0.04400
H 	H 	0.27800 0.51800 0.84200 0.03400
H 	H 	0.91700 0.38500 0.00800 0.02600
H 	H 	0.43900 0.15700 0.26000 -0.00000
H 	H 	0.88000 0.15800 0.36000 0.02600
H 	H 	0.92500 0.00800 0.60700 -0.00500
H 	H 	0.69900 0.26000 0.58300 0.01600
H 	H 	0.24000 0.36000 0.48200 0.02700
H 	H 	0.53200 0.60700 0.38500 0.04100
H 	H 	0.28200 0.58300 0.15700 -0.00200
H 	H 	0.72200 0.48200 0.15800 0.01300
C 	C 	0.85370 0.66944 0.84814 0.40100
C 	C 	0.06034 0.71776 0.82254 -0.16700
C 	C 	0.14854 0.67626 0.91034 0.11000
C 	C 	0.43017 0.81107 0.76426 0.11400
C 	C 	0.17144 0.81174 0.70472 0.11800
C 	C 	0.70184 0.84814 0.48242 0.32500
C 	C 	0.88288 0.82254 0.45970 -0.04700
C 	C 	0.05888 0.91034 0.41340 0.00100
C 	C 	0.19443 0.76426 0.42467 0.09200
C 	C 	0.87616 0.70472 0.48354 0.11600
C 	C 	0.18426 0.48242 0.66944 0.34900
C 	C 	0.34258 0.45970 0.71776 -0.12100
C 	C 	0.47228 0.41340 0.67626 0.08300
C 	C 	0.61910 0.42467 0.81107 0.10600
C 	C 	0.35970 0.48354 0.81174 0.09500
C 	C 	0.14630 0.33056 0.15186 0.29100
C 	C 	0.93966 0.28224 0.17746 -0.07200
C 	C 	0.85146 0.32374 0.08966 0.05300
C 	C 	0.56983 0.18893 0.23574 0.09400
C 	C 	0.82856 0.18826 0.29528 0.05900
C 	C 	0.29816 0.15186 0.51758 0.36500
C 	C 	0.11712 0.17746 0.54030 -0.18900
C 	C 	0.94112 0.08966 0.58660 0.16000
C 	C 	0.80557 0.23574 0.57533 0.11500
C 	C 	0.12384 0.29528 0.51646 0.06000
C 	C 	0.81574 0.51758 0.33056 0.34300
C 	C 	0.65742 0.54030 0.28224 -0.11700
C 	C 	0.52772 0.58660 0.32374 0.08000
C 	C 	0.38090 0.57533 0.18893 0.10100
C 	C 	0.64030 0.51646 0.18826 0.08200
N 	N 	0.35664 0.85966 0.67404 -0.20200
N 	N 	0.33453 0.72267 0.88118 -0.12400
N 	N 	0.03068 0.67404 0.46630 -0.24500
N 	N 	0.21571 0.88118 0.39615 -0.11700
N 	N 	0.49698 0.46630 0.85966 -0.19700
N 	N 	0.61186 0.39615 0.72267 -0.13600
N 	N 	0.64336 0.14034 0.32596 -0.22600
N 	N 	0.66547 0.27733 0.11882 -0.15900
N 	N 	0.96932 0.32596 0.53370 -0.18700
N 	N 	0.78429 0.11882 0.60385 -0.16600
N 	N 	0.50302 0.53370 0.14034 -0.22900
N 	N 	0.38814 0.60385 0.27733 -0.14800
O 	O 	0.76882 0.56100 0.94454 -0.33400
O 	O 	0.78281 0.73342 0.77859 -0.26400
O 	O 	0.71336 0.94454 0.49446 -0.32800
O 	O 	0.56140 0.77859 0.48799 -0.27200
O 	O 	0.20782 0.49446 0.56100 -0.39700
O 	O 	0.04939 0.48799 0.73342 -0.30200
O 	O 	0.23118 0.43900 0.05546 -0.42700
O 	O 	0.21719 0.26658 0.22141 -0.30400
O 	O 	0.28664 0.05546 0.50554 -0.43500
O 	O 	0.43860 0.22141 0.51201 -0.29700
O 	O 	0.79218 0.50554 0.43900 -0.37200
O 	O 	0.95061 0.51201 0.26658 -0.26900
