data_crystal

_cell_length_a 11.25800
_cell_length_b 12.60200
_cell_length_c 14.68900
_cell_angle_alpha 90.00000
_cell_angle_beta  90.00000
_cell_angle_gamma 90.00000

_symmetry_space_group_name_	'P 1'
_symmetry_space_group_name_H-M	'P 1'

loop_
_symmetry_equiv_pos_as_xyz
  x,y,z

loop_
_atom_site_label
_atom_site_type_symbol
_atom_site_fract_x
_atom_site_fract_y
_atom_site_fract_z
_atom_site_charge
C 	C 	0.03250 0.01310 0.16750 0.44300
C 	C 	0.30320 0.88400 0.07640 0.47500
C 	C 	0.38550 0.95060 0.13620 -0.24000
C 	C 	0.42950 0.05460 0.09660 0.45400
Nd	Nd	0.14917 0.11343 0.00741 1.96400
O 	O 	0.10380 0.08500 0.17500 -0.47000
O 	O 	0.98330 0.99120 0.09110 -0.61100
O 	O 	0.21990 0.93030 0.03070 -0.49900
O 	O 	0.31470 0.78450 0.07520 -0.52600
O 	O 	0.35450 0.11620 0.06040 -0.50600
O 	O 	0.53430 0.07110 0.09520 -0.35700
C 	C 	0.46750 0.48690 0.66750 0.46300
C 	C 	0.19680 0.61600 0.57640 0.47800
C 	C 	0.11450 0.54940 0.63620 -0.25100
C 	C 	0.07050 0.44540 0.59660 0.49000
Nd	Nd	0.35083 0.38657 0.50741 2.00000
O 	O 	0.39620 0.41500 0.67500 -0.47700
O 	O 	0.51670 0.50880 0.59110 -0.62400
O 	O 	0.28010 0.56970 0.53070 -0.50900
O 	O 	0.18530 0.71550 0.57520 -0.52700
O 	O 	0.14550 0.38380 0.56040 -0.51200
O 	O 	0.96570 0.42890 0.59520 -0.37900
C 	C 	0.96750 0.01310 0.33250 0.42300
C 	C 	0.69680 0.88400 0.42360 0.47500
C 	C 	0.61450 0.95060 0.36380 -0.24800
C 	C 	0.57050 0.05460 0.40340 0.46100
Nd	Nd	0.85083 0.11343 0.49259 1.97800
O 	O 	0.89620 0.08500 0.32500 -0.47000
O 	O 	0.01670 0.99120 0.40890 -0.60100
O 	O 	0.78010 0.93030 0.46930 -0.50900
O 	O 	0.68530 0.78450 0.42480 -0.52800
O 	O 	0.64550 0.11620 0.43960 -0.50800
O 	O 	0.46570 0.07110 0.40480 -0.35800
C 	C 	0.53250 0.48690 0.83250 0.46400
C 	C 	0.80320 0.61600 0.92360 0.47200
C 	C 	0.88550 0.54940 0.86380 -0.25200
C 	C 	0.92950 0.44540 0.90340 0.43200
Nd	Nd	0.64917 0.38657 0.99259 2.00400
O 	O 	0.60380 0.41500 0.82500 -0.47800
O 	O 	0.48330 0.50880 0.90890 -0.62300
O 	O 	0.71990 0.56970 0.96930 -0.50800
O 	O 	0.81470 0.71550 0.92480 -0.52600
O 	O 	0.85450 0.38380 0.93960 -0.50600
O 	O 	0.03430 0.42890 0.90480 -0.32700
C 	C 	0.96750 0.98690 0.83250 0.39100
C 	C 	0.69680 0.11600 0.92360 0.47400
C 	C 	0.61450 0.04940 0.86380 -0.24100
C 	C 	0.57050 0.94540 0.90340 0.45400
Nd	Nd	0.85083 0.88657 0.99259 1.94500
O 	O 	0.89620 0.91500 0.82500 -0.46300
O 	O 	0.01670 0.00880 0.90890 -0.57200
O 	O 	0.78010 0.06970 0.96930 -0.50200
O 	O 	0.68530 0.21550 0.92480 -0.52800
O 	O 	0.64550 0.88380 0.93960 -0.50500
O 	O 	0.46570 0.92890 0.90480 -0.35600
C 	C 	0.53250 0.51310 0.33250 0.46300
C 	C 	0.80320 0.38400 0.42360 0.47500
C 	C 	0.88550 0.45060 0.36380 -0.25200
C 	C 	0.92950 0.55460 0.40340 0.44700
Nd	Nd	0.64917 0.61343 0.49259 1.99300
O 	O 	0.60380 0.58500 0.32500 -0.47700
O 	O 	0.48330 0.49120 0.40890 -0.62400
O 	O 	0.71990 0.43030 0.46930 -0.50800
O 	O 	0.81470 0.28450 0.42480 -0.52800
O 	O 	0.85450 0.61620 0.43960 -0.50800
O 	O 	0.03430 0.57110 0.40480 -0.34300
C 	C 	0.03250 0.98690 0.66750 0.46700
C 	C 	0.30320 0.11600 0.57640 0.47600
C 	C 	0.38550 0.04940 0.63620 -0.24900
C 	C 	0.42950 0.94540 0.59660 0.46300
Nd	Nd	0.14917 0.88657 0.50741 2.00600
O 	O 	0.10380 0.91500 0.67500 -0.47500
O 	O 	0.98330 0.00880 0.59110 -0.64000
O 	O 	0.21990 0.06970 0.53070 -0.50700
O 	O 	0.31470 0.21550 0.57520 -0.52700
O 	O 	0.35450 0.88380 0.56040 -0.51000
O 	O 	0.53430 0.92890 0.59520 -0.35800
C 	C 	0.46750 0.51310 0.16750 0.46400
C 	C 	0.19680 0.38400 0.07640 0.47500
C 	C 	0.11450 0.45060 0.13620 -0.25100
C 	C 	0.07050 0.55460 0.09660 0.47400
Nd	Nd	0.35083 0.61343 0.00741 2.00700
O 	O 	0.39620 0.58500 0.17500 -0.47800
O 	O 	0.51670 0.49120 0.09110 -0.62400
O 	O 	0.28010 0.43030 0.03070 -0.51000
O 	O 	0.18530 0.28450 0.07520 -0.52500
O 	O 	0.14550 0.61620 0.06040 -0.51000
O 	O 	0.96570 0.57110 0.09520 -0.36300
C 	C 	0.00000 0.94730 0.25000 -0.25900
C 	C 	0.50000 0.55270 0.75000 -0.28900
C 	C 	0.00000 0.05270 0.75000 -0.24800
C 	C 	0.50000 0.44730 0.25000 -0.29000
