data_crystal

_cell_length_a 9.13510
_cell_length_b 17.41900
_cell_length_c 15.58300
_cell_angle_alpha 90.00000
_cell_angle_beta  90.00000
_cell_angle_gamma 90.00000

_symmetry_space_group_name_	'P 1'
_symmetry_space_group_name_H-M	'P 1'

loop_
_symmetry_equiv_pos_as_xyz
  x,y,z

loop_
_atom_site_label
_atom_site_type_symbol
_atom_site_fract_x
_atom_site_fract_y
_atom_site_fract_z
_atom_site_charge
Cd	Cd	0.00000 0.25000 0.03918 1.16400
Cd	Cd	0.00000 0.75000 0.46082 1.16300
Cd	Cd	-0.00000 0.75000 0.96082 1.16300
Cd	Cd	0.00000 0.25000 0.53918 1.16300
H 	H 	0.96070 0.42100 0.96400 0.06400
H 	H 	0.83190 0.49670 0.86910 0.13600
H 	H 	0.66420 0.30410 0.76800 0.09900
H 	H 	0.79510 0.23440 0.86680 0.01300
H 	H 	0.65330 0.43850 0.68800 0.07500
H 	H 	0.45190 0.45620 0.82950 0.06200
H 	H 	0.50220 0.36000 0.63300 0.10900
H 	H 	0.32960 0.28760 0.56240 -0.00100
H 	H 	0.02170 0.35530 0.72000 -0.06700
H 	H 	0.18750 0.42590 0.79810 0.07500
H 	H 	0.03930 0.07900 0.96400 -0.04300
H 	H 	0.16810 0.00330 0.86910 0.09500
H 	H 	0.33580 0.19590 0.76800 0.09500
H 	H 	0.20490 0.26560 0.86680 -0.01900
H 	H 	0.34670 0.06150 0.68800 0.06600
H 	H 	0.54810 0.04380 0.82950 0.06600
H 	H 	0.49780 0.14000 0.63300 0.10700
H 	H 	0.67040 0.21240 0.56240 0.00500
H 	H 	0.97830 0.14470 0.72000 0.06000
H 	H 	0.81250 0.07410 0.79810 0.11900
H 	H 	0.96070 0.57900 0.53600 0.06400
H 	H 	0.83190 0.50330 0.63090 0.13500
H 	H 	0.66420 0.69590 0.73200 0.09800
H 	H 	0.79510 0.76560 0.63320 0.01200
H 	H 	0.65330 0.56150 0.81200 0.07400
H 	H 	0.45190 0.54380 0.67050 0.06200
H 	H 	0.50220 0.64000 0.86700 0.10900
H 	H 	0.32960 0.71240 0.93760 -0.00100
H 	H 	0.02170 0.64470 0.78000 -0.06700
H 	H 	0.18750 0.57410 0.70190 0.07500
H 	H 	0.03930 0.92100 0.53600 -0.04400
H 	H 	0.16810 0.99670 0.63090 0.09500
H 	H 	0.33580 0.80410 0.73200 0.09500
H 	H 	0.20490 0.73440 0.63320 -0.01900
H 	H 	0.34670 0.93850 0.81200 0.06600
H 	H 	0.54810 0.95620 0.67050 0.06700
H 	H 	0.49780 0.86000 0.86700 0.10700
H 	H 	0.67040 0.78760 0.93760 0.00500
H 	H 	0.97830 0.85530 0.78000 0.06000
H 	H 	0.81250 0.92590 0.70190 0.12000
H 	H 	0.03930 0.57900 0.03600 -0.04400
H 	H 	0.16810 0.50330 0.13090 0.09500
H 	H 	0.33580 0.69590 0.23200 0.09500
H 	H 	0.20490 0.76560 0.13320 -0.01900
H 	H 	0.34670 0.56150 0.31200 0.06600
H 	H 	0.54810 0.54380 0.17050 0.06700
H 	H 	0.49780 0.64000 0.36700 0.10700
H 	H 	0.67040 0.71240 0.43760 0.00500
H 	H 	0.97830 0.64470 0.28000 0.06000
H 	H 	0.81250 0.57410 0.20190 0.12000
H 	H 	0.96070 0.92100 0.03600 0.06200
H 	H 	0.83190 0.99670 0.13090 0.13400
H 	H 	0.66420 0.80410 0.23200 0.09800
H 	H 	0.79510 0.73440 0.13320 0.01200
H 	H 	0.65330 0.93850 0.31200 0.07400
H 	H 	0.45190 0.95620 0.17050 0.06200
H 	H 	0.50220 0.86000 0.36700 0.10900
H 	H 	0.32960 0.78760 0.43760 -0.00100
H 	H 	0.02170 0.85530 0.28000 -0.06700
H 	H 	0.18750 0.92590 0.20190 0.07500
H 	H 	0.03930 0.42100 0.46400 -0.04500
H 	H 	0.16810 0.49670 0.36910 0.09500
H 	H 	0.33580 0.30410 0.26800 0.09500
H 	H 	0.20490 0.23440 0.36680 -0.01900
H 	H 	0.34670 0.43850 0.18800 0.06600
H 	H 	0.54810 0.45620 0.32950 0.06700
H 	H 	0.49780 0.36000 0.13300 0.10700
H 	H 	0.67040 0.28760 0.06240 0.00500
H 	H 	0.97830 0.35530 0.22000 0.06000
H 	H 	0.81250 0.42590 0.29810 0.12000
H 	H 	0.96070 0.07900 0.46400 0.06300
H 	H 	0.83190 0.00330 0.36910 0.13400
H 	H 	0.66420 0.19590 0.26800 0.09800
H 	H 	0.79510 0.26560 0.36680 0.01200
H 	H 	0.65330 0.06150 0.18800 0.07400
H 	H 	0.45190 0.04380 0.32950 0.06200
H 	H 	0.50220 0.14000 0.13300 0.10900
H 	H 	0.32960 0.21240 0.06240 -0.00100
H 	H 	0.02170 0.14470 0.22000 -0.06700
H 	H 	0.18750 0.07410 0.29810 0.07500
C 	C 	0.89760 0.39712 0.92460 0.11100
C 	C 	0.82130 0.44304 0.86750 -0.15100
C 	C 	0.72930 0.40922 0.80813 0.13100
C 	C 	0.72270 0.32978 0.80850 -0.15800
C 	C 	0.80160 0.28829 0.86790 0.11300
C 	C 	0.63620 0.45549 0.74781 -0.06900
C 	C 	0.46910 0.45719 0.76680 -0.06900
C 	C 	0.36480 0.40360 0.72248 0.11300
C 	C 	0.40460 0.36027 0.65200 -0.17300
C 	C 	0.30020 0.31740 0.60960 0.08900
C 	C 	0.12000 0.35650 0.70220 0.08900
C 	C 	0.21840 0.39942 0.74880 -0.18000
C 	C 	0.10240 0.10288 0.92460 0.08200
C 	C 	0.17870 0.05696 0.86750 -0.19300
C 	C 	0.27070 0.09078 0.80813 0.11100
C 	C 	0.27730 0.17022 0.80850 -0.18100
C 	C 	0.19840 0.21171 0.86790 0.08000
C 	C 	0.36380 0.04451 0.74781 -0.07400
C 	C 	0.53090 0.04281 0.76680 -0.06500
C 	C 	0.63520 0.09640 0.72248 0.11400
C 	C 	0.59540 0.13973 0.65200 -0.16600
C 	C 	0.69980 0.18260 0.60960 0.09500
C 	C 	0.88000 0.14350 0.70220 0.10400
C 	C 	0.78160 0.10058 0.74880 -0.15600
C 	C 	0.89760 0.60288 0.57540 0.11100
C 	C 	0.82130 0.55696 0.63250 -0.15000
C 	C 	0.72930 0.59078 0.69187 0.13100
C 	C 	0.72270 0.67022 0.69150 -0.15700
C 	C 	0.80160 0.71171 0.63210 0.11300
C 	C 	0.63620 0.54451 0.75219 -0.06900
C 	C 	0.46910 0.54281 0.73320 -0.07000
C 	C 	0.36480 0.59640 0.77752 0.11300
C 	C 	0.40460 0.63973 0.84800 -0.17300
C 	C 	0.30020 0.68260 0.89040 0.08900
C 	C 	0.12000 0.64350 0.79780 0.08900
C 	C 	0.21840 0.60058 0.75120 -0.18000
C 	C 	0.10240 0.89712 0.57540 0.08200
C 	C 	0.17870 0.94304 0.63250 -0.19300
C 	C 	0.27070 0.90922 0.69187 0.11100
C 	C 	0.27730 0.82978 0.69150 -0.18100
C 	C 	0.19840 0.78829 0.63210 0.08000
C 	C 	0.36380 0.95549 0.75219 -0.07400
C 	C 	0.53090 0.95719 0.73320 -0.06500
C 	C 	0.63520 0.90360 0.77752 0.11500
C 	C 	0.59540 0.86027 0.84800 -0.16600
C 	C 	0.69980 0.81740 0.89040 0.09500
C 	C 	0.88000 0.85650 0.79780 0.10400
C 	C 	0.78160 0.89942 0.75120 -0.15600
C 	C 	0.10240 0.60288 0.07540 0.08200
C 	C 	0.17870 0.55696 0.13250 -0.19300
C 	C 	0.27070 0.59078 0.19187 0.11100
C 	C 	0.27730 0.67022 0.19150 -0.18100
C 	C 	0.19840 0.71171 0.13210 0.08000
C 	C 	0.36380 0.54451 0.25219 -0.07400
C 	C 	0.53090 0.54281 0.23320 -0.06500
C 	C 	0.63520 0.59640 0.27752 0.11500
C 	C 	0.59540 0.63973 0.34800 -0.16600
C 	C 	0.69980 0.68260 0.39040 0.09500
C 	C 	0.88000 0.64350 0.29780 0.10400
C 	C 	0.78160 0.60058 0.25120 -0.15600
C 	C 	0.89760 0.89712 0.07540 0.11100
C 	C 	0.82130 0.94304 0.13250 -0.15100
C 	C 	0.72930 0.90922 0.19187 0.13100
C 	C 	0.72270 0.82978 0.19150 -0.15800
C 	C 	0.80160 0.78829 0.13210 0.11300
C 	C 	0.63620 0.95549 0.25219 -0.06900
C 	C 	0.46910 0.95719 0.23320 -0.06900
C 	C 	0.36480 0.90360 0.27752 0.11300
C 	C 	0.40460 0.86027 0.34800 -0.17300
C 	C 	0.30020 0.81740 0.39040 0.08900
C 	C 	0.12000 0.85650 0.29780 0.08900
C 	C 	0.21840 0.89942 0.25120 -0.18000
C 	C 	0.10240 0.39712 0.42460 0.08200
C 	C 	0.17870 0.44304 0.36750 -0.19300
C 	C 	0.27070 0.40922 0.30813 0.11100
C 	C 	0.27730 0.32978 0.30850 -0.18100
C 	C 	0.19840 0.28829 0.36790 0.08000
C 	C 	0.36380 0.45549 0.24781 -0.07400
C 	C 	0.53090 0.45719 0.26680 -0.06500
C 	C 	0.63520 0.40360 0.22248 0.11500
C 	C 	0.59540 0.36027 0.15200 -0.16600
C 	C 	0.69980 0.31740 0.10960 0.09500
C 	C 	0.88000 0.35650 0.20220 0.10400
C 	C 	0.78160 0.39942 0.24880 -0.15600
C 	C 	0.89760 0.10288 0.42460 0.11100
C 	C 	0.82130 0.05696 0.36750 -0.15100
C 	C 	0.72930 0.09078 0.30813 0.13100
C 	C 	0.72270 0.17022 0.30850 -0.15800
C 	C 	0.80160 0.21171 0.36790 0.11300
C 	C 	0.63620 0.04451 0.24781 -0.06900
C 	C 	0.46910 0.04281 0.26680 -0.07000
C 	C 	0.36480 0.09640 0.22248 0.11300
C 	C 	0.40460 0.13973 0.15200 -0.17300
C 	C 	0.30020 0.18260 0.10960 0.08900
C 	C 	0.12000 0.14350 0.20220 0.08900
C 	C 	0.21840 0.10058 0.24880 -0.18000
N 	N 	0.88650 0.32107 0.92661 -0.19300
N 	N 	0.15880 0.31626 0.63277 -0.25300
N 	N 	0.11350 0.17893 0.92661 -0.25900
N 	N 	0.84120 0.18374 0.63277 -0.19800
N 	N 	0.88650 0.67893 0.57339 -0.19300
N 	N 	0.15880 0.68374 0.86723 -0.25300
N 	N 	0.11350 0.82107 0.57339 -0.25900
N 	N 	0.84120 0.81626 0.86723 -0.19800
N 	N 	0.11350 0.67893 0.07339 -0.25900
N 	N 	0.84120 0.68374 0.36723 -0.19800
N 	N 	0.88650 0.82107 0.07339 -0.19300
N 	N 	0.15880 0.81626 0.36723 -0.25300
N 	N 	0.11350 0.32107 0.42661 -0.25900
N 	N 	0.84120 0.31626 0.13277 -0.19800
N 	N 	0.88650 0.17893 0.42661 -0.19300
N 	N 	0.15880 0.18374 0.13277 -0.25300
Cl	Cl	0.19519 0.35998 0.04894 -0.56000
Cl	Cl	0.80481 0.14002 0.04894 -0.41100
Cl	Cl	0.19519 0.64002 0.45106 -0.56100
Cl	Cl	0.80481 0.85998 0.45106 -0.40900
Cl	Cl	0.80481 0.64002 0.95106 -0.41000
Cl	Cl	0.19519 0.85998 0.95106 -0.56000
Cl	Cl	0.80481 0.35998 0.54894 -0.40900
Cl	Cl	0.19519 0.14002 0.54894 -0.56100
