data_crystal

_cell_length_a 10.86000
_cell_length_b 13.23200
_cell_length_c 14.31200
_cell_angle_alpha 90.00000
_cell_angle_beta  90.00000
_cell_angle_gamma 90.52100

_symmetry_space_group_name_	'P 1'
_symmetry_space_group_name_H-M	'P 1'

loop_
_symmetry_equiv_pos_as_xyz
  x,y,z

loop_
_atom_site_label
_atom_site_type_symbol
_atom_site_fract_x
_atom_site_fract_y
_atom_site_fract_z
_atom_site_charge
Eu	Eu	0.25585 0.71487 0.78223 2.16900
Eu	Eu	0.00413 0.86791 0.63842 1.85500
Eu	Eu	0.24415 0.78513 0.28223 2.16600
Eu	Eu	0.49587 0.63209 0.13842 1.88000
Eu	Eu	0.74415 0.28513 0.21777 2.17000
Eu	Eu	0.99587 0.13209 0.36158 1.85600
Eu	Eu	0.75585 0.21487 0.71777 2.16600
Eu	Eu	0.50413 0.36791 0.86158 1.88000
H 	H 	0.12200 0.86730 0.04390 0.03200
H 	H 	0.06080 0.41610 0.86700 0.03100
H 	H 	0.03270 0.43580 0.64720 0.03600
H 	H 	0.37800 0.63270 0.54390 0.03100
H 	H 	0.43920 0.08390 0.36700 0.03000
H 	H 	0.46730 0.06420 0.14720 0.03400
H 	H 	0.87800 0.13270 0.95610 0.03200
H 	H 	0.93920 0.58390 0.13300 0.03100
H 	H 	0.96730 0.56420 0.35280 0.03600
H 	H 	0.62200 0.36730 0.45610 0.03100
H 	H 	0.56080 0.91610 0.63300 0.03000
H 	H 	0.53270 0.93580 0.85280 0.03400
C 	C 	0.07300 0.92120 0.02590 0.02500
C 	C 	0.03540 0.92820 0.93360 -0.06500
C 	C 	0.03920 0.99320 0.09300 -0.11800
C 	C 	0.08630 0.84790 0.87000 0.34500
C 	C 	0.09040 0.97980 0.18820 0.45900
C 	C 	0.12210 0.50270 0.97160 -0.09800
C 	C 	0.03610 0.44960 0.92090 0.03200
C 	C 	0.08730 0.55560 0.05210 -0.08300
C 	C 	0.25360 0.50740 0.93320 0.47200
C 	C 	0.18070 0.61140 0.11130 0.44700
C 	C 	0.02010 0.46210 0.58770 0.03100
C 	C 	0.97920 0.39790 0.51780 -0.13300
C 	C 	0.04250 0.56220 0.57310 -0.07300
C 	C 	0.09630 0.62110 0.65260 0.33700
C 	C 	0.96000 0.29030 0.54680 0.51500
C 	C 	0.42700 0.57880 0.52590 0.02600
C 	C 	0.46460 0.57180 0.43360 -0.06200
C 	C 	0.46080 0.50680 0.59300 -0.11900
C 	C 	0.41370 0.65210 0.37000 0.34600
C 	C 	0.40960 0.52020 0.68820 0.47500
C 	C 	0.37790 0.99730 0.47160 -0.09500
C 	C 	0.46390 0.05040 0.42090 0.03600
C 	C 	0.41270 0.94440 0.55210 -0.08800
C 	C 	0.24640 0.99260 0.43320 0.46100
C 	C 	0.31930 0.88860 0.61130 0.44700
C 	C 	0.47990 0.03790 0.08770 0.03400
C 	C 	0.52080 0.10210 0.01780 -0.13400
C 	C 	0.45750 0.93780 0.07310 -0.07700
C 	C 	0.40370 0.87890 0.15260 0.33900
C 	C 	0.54000 0.20970 0.04680 0.52500
C 	C 	0.92700 0.07880 0.97410 0.02500
C 	C 	0.96460 0.07180 0.06640 -0.06500
C 	C 	0.96080 0.00680 0.90700 -0.11800
C 	C 	0.91370 0.15210 0.13000 0.34500
C 	C 	0.90960 0.02020 0.81180 0.45900
C 	C 	0.87790 0.49730 0.02840 -0.09800
C 	C 	0.96390 0.55040 0.07910 0.03200
C 	C 	0.91270 0.44440 0.94790 -0.08300
C 	C 	0.74640 0.49260 0.06680 0.47200
C 	C 	0.81930 0.38860 0.88870 0.44700
C 	C 	0.97990 0.53790 0.41230 0.03100
C 	C 	0.02080 0.60210 0.48220 -0.13300
C 	C 	0.95750 0.43780 0.42690 -0.07300
C 	C 	0.90370 0.37890 0.34740 0.33700
C 	C 	0.04000 0.70970 0.45320 0.51500
C 	C 	0.57300 0.42120 0.47410 0.02600
C 	C 	0.53540 0.42820 0.56640 -0.06200
C 	C 	0.53920 0.49320 0.40700 -0.11900
C 	C 	0.58630 0.34790 0.63000 0.34600
C 	C 	0.59040 0.47980 0.31180 0.47500
C 	C 	0.62210 0.00270 0.52840 -0.09500
C 	C 	0.53610 0.94960 0.57910 0.03600
C 	C 	0.58730 0.05560 0.44790 -0.08800
C 	C 	0.75360 0.00740 0.56680 0.46100
C 	C 	0.68070 0.11140 0.38870 0.44700
C 	C 	0.52010 0.96210 0.91230 0.03400
C 	C 	0.47920 0.89790 0.98220 -0.13400
C 	C 	0.54250 0.06220 0.92690 -0.07700
C 	C 	0.59630 0.12110 0.84740 0.33900
C 	C 	0.46000 0.79030 0.95320 0.52500
O 	O 	0.10620 0.76200 0.90250 -0.45700
O 	O 	0.11890 0.86760 0.78590 -0.59400
O 	O 	0.10770 0.88910 0.21130 -0.54300
O 	O 	0.10800 0.05520 0.23980 -0.50400
O 	O 	0.31780 0.42770 0.94110 -0.48400
O 	O 	0.28570 0.58400 0.89190 -0.53000
O 	O 	0.14220 0.66890 0.17440 -0.48100
O 	O 	0.29260 0.59290 0.09460 -0.51400
O 	O 	0.11140 0.58050 0.72930 -0.45200
O 	O 	0.13170 0.71200 0.63860 -0.58900
O 	O 	0.90200 0.27890 0.61950 -0.56400
O 	O 	0.01210 0.21990 0.50260 -0.51300
O 	O 	0.39380 0.73800 0.40250 -0.45600
O 	O 	0.38110 0.63240 0.28590 -0.59400
O 	O 	0.39230 0.61090 0.71130 -0.54600
O 	O 	0.39200 0.44480 0.73980 -0.52200
O 	O 	0.18220 0.07230 0.44110 -0.47200
O 	O 	0.21430 0.91600 0.39190 -0.52700
O 	O 	0.35780 0.83110 0.67440 -0.48100
O 	O 	0.20740 0.90710 0.59460 -0.51400
O 	O 	0.38860 0.91950 0.22930 -0.45300
O 	O 	0.36830 0.78800 0.13860 -0.59100
O 	O 	0.59800 0.22110 0.11950 -0.56700
O 	O 	0.48790 0.28010 0.00260 -0.52400
O 	O 	0.89380 0.23800 0.09750 -0.45700
O 	O 	0.88110 0.13240 0.21410 -0.59400
O 	O 	0.89230 0.11090 0.78870 -0.54300
O 	O 	0.89200 0.94480 0.76020 -0.50400
O 	O 	0.68220 0.57230 0.05890 -0.48400
O 	O 	0.71430 0.41600 0.10810 -0.53000
O 	O 	0.85780 0.33110 0.82560 -0.48100
O 	O 	0.70740 0.40710 0.90540 -0.51400
O 	O 	0.88860 0.41950 0.27070 -0.45200
O 	O 	0.86830 0.28800 0.36140 -0.58900
O 	O 	0.09800 0.72110 0.38050 -0.56400
O 	O 	0.98790 0.78010 0.49740 -0.51300
O 	O 	0.60620 0.26200 0.59750 -0.45600
O 	O 	0.61890 0.36760 0.71410 -0.59400
O 	O 	0.60770 0.38910 0.28870 -0.54600
O 	O 	0.60800 0.55520 0.26020 -0.52200
O 	O 	0.81780 0.92770 0.55890 -0.47200
O 	O 	0.78570 0.08400 0.60810 -0.52700
O 	O 	0.64220 0.16890 0.32560 -0.48100
O 	O 	0.79260 0.09290 0.40540 -0.51400
O 	O 	0.61140 0.08050 0.77070 -0.45300
O 	O 	0.63170 0.21200 0.86140 -0.59100
O 	O 	0.40200 0.77890 0.88050 -0.56700
O 	O 	0.51210 0.71990 0.99740 -0.52400
