data_crystal

_cell_length_a 10.85300
_cell_length_b 13.29100
_cell_length_c 14.33700
_cell_angle_alpha 90.00000
_cell_angle_beta  90.00000
_cell_angle_gamma 90.03200

_symmetry_space_group_name_	'P 1'
_symmetry_space_group_name_H-M	'P 1'

loop_
_symmetry_equiv_pos_as_xyz
  x,y,z

loop_
_atom_site_label
_atom_site_type_symbol
_atom_site_fract_x
_atom_site_fract_y
_atom_site_fract_z
_atom_site_charge
Gd	Gd	0.75557 0.78529 0.78220 1.72300
Gd	Gd	0.00454 0.13225 0.86169 1.49600
Gd	Gd	0.74443 0.71471 0.28220 1.72400
Gd	Gd	0.49546 0.36775 0.36169 1.51400
Gd	Gd	0.24443 0.21471 0.21780 1.72200
Gd	Gd	0.99546 0.86775 0.13831 1.49500
Gd	Gd	0.25557 0.28529 0.71780 1.72400
Gd	Gd	0.50454 0.63225 0.63831 1.51400
H 	H 	0.56080 0.08690 0.86770 0.04400
H 	H 	0.87630 0.86740 0.54480 0.04500
H 	H 	0.03090 0.56430 0.85280 0.05000
H 	H 	0.93920 0.41310 0.36770 0.04400
H 	H 	0.62370 0.63260 0.04480 0.04500
H 	H 	0.46910 0.93570 0.35280 0.04900
H 	H 	0.43920 0.91310 0.13230 0.04400
H 	H 	0.12370 0.13260 0.45520 0.04500
H 	H 	0.96910 0.43570 0.14720 0.05000
H 	H 	0.06080 0.58690 0.63230 0.04400
H 	H 	0.37630 0.36740 0.95520 0.04500
H 	H 	0.53090 0.06430 0.64720 0.04900
C 	C 	0.75390 0.99350 0.93340 0.40600
C 	C 	0.62290 0.99720 0.97160 -0.07100
C 	C 	0.58740 0.94470 0.05230 -0.06800
C 	C 	0.68120 0.88810 0.11140 0.40200
C 	C 	0.53590 0.05200 0.92070 0.01700
C 	C 	0.91040 0.97930 0.68880 0.41400
C 	C 	0.96080 0.99280 0.59270 -0.09200
C 	C 	0.03550 0.07290 0.56610 -0.05600
C 	C 	0.08640 0.15260 0.63030 0.32600
C 	C 	0.92620 0.92090 0.52660 0.01300
C 	C 	0.95990 0.71070 0.95320 0.45300
C 	C 	0.97800 0.60320 0.98280 -0.10000
C 	C 	0.95740 0.56300 0.07230 -0.05800
C 	C 	0.90330 0.62250 0.15270 0.31300
C 	C 	0.01900 0.53840 0.91230 0.00800
C 	C 	0.74610 0.50650 0.43340 0.41400
C 	C 	0.87710 0.50280 0.47160 -0.07200
C 	C 	0.91260 0.55530 0.55230 -0.06700
C 	C 	0.81880 0.61190 0.61140 0.40300
C 	C 	0.96410 0.44800 0.42070 0.01700
C 	C 	0.58960 0.52070 0.18880 0.42600
C 	C 	0.53920 0.50720 0.09270 -0.09300
C 	C 	0.46450 0.42710 0.06610 -0.05300
C 	C 	0.41360 0.34740 0.13030 0.32700
C 	C 	0.57380 0.57910 0.02660 0.01400
C 	C 	0.54010 0.78930 0.45320 0.45900
C 	C 	0.52200 0.89680 0.48280 -0.10500
C 	C 	0.54260 0.93700 0.57230 -0.05500
C 	C 	0.59670 0.87750 0.65270 0.31400
C 	C 	0.48100 0.96160 0.41230 0.01000
C 	C 	0.24610 0.00650 0.06660 0.40600
C 	C 	0.37710 0.00280 0.02840 -0.07100
C 	C 	0.41260 0.05530 0.94770 -0.06800
C 	C 	0.31880 0.11190 0.88860 0.40200
C 	C 	0.46410 0.94800 0.07930 0.01700
C 	C 	0.08960 0.02070 0.31120 0.41400
C 	C 	0.03920 0.00720 0.40730 -0.09200
C 	C 	0.96450 0.92710 0.43390 -0.05600
C 	C 	0.91360 0.84740 0.36970 0.32600
C 	C 	0.07380 0.07910 0.47340 0.01300
C 	C 	0.04010 0.28930 0.04680 0.45300
C 	C 	0.02200 0.39680 0.01720 -0.10000
C 	C 	0.04260 0.43700 0.92770 -0.05800
C 	C 	0.09670 0.37750 0.84730 0.31300
C 	C 	0.98100 0.46160 0.08770 0.00800
C 	C 	0.25390 0.49350 0.56660 0.41400
C 	C 	0.12290 0.49720 0.52840 -0.07200
C 	C 	0.08740 0.44470 0.44770 -0.06700
C 	C 	0.18120 0.38810 0.38860 0.40300
C 	C 	0.03590 0.55200 0.57930 0.01700
C 	C 	0.41040 0.47930 0.81120 0.42600
C 	C 	0.46080 0.49280 0.90730 -0.09300
C 	C 	0.53550 0.57290 0.93390 -0.05300
C 	C 	0.58640 0.65260 0.86970 0.32700
C 	C 	0.42620 0.42090 0.97340 0.01400
C 	C 	0.45990 0.21070 0.54680 0.45900
C 	C 	0.47800 0.10320 0.51720 -0.10500
C 	C 	0.45740 0.06300 0.42770 -0.05500
C 	C 	0.40330 0.12250 0.34730 0.31400
C 	C 	0.51900 0.03840 0.58770 0.01000
O 	O 	0.81910 0.07210 0.94140 -0.40500
O 	O 	0.78660 0.91540 0.89200 -0.43400
O 	O 	0.79260 0.90670 0.09400 -0.43800
O 	O 	0.64280 0.83050 0.17530 -0.40900
O 	O 	0.89140 0.05500 0.73930 -0.43000
O 	O 	0.89090 0.88880 0.71070 -0.46300
O 	O 	0.10680 0.23850 0.59730 -0.39500
O 	O 	0.11770 0.13300 0.71430 -0.50200
O 	O 	0.90010 0.72090 0.87920 -0.47000
O 	O 	0.01020 0.78120 0.99620 -0.43900
O 	O 	0.88750 0.58080 0.22970 -0.38800
O 	O 	0.86740 0.71230 0.13890 -0.49900
O 	O 	0.68090 0.42790 0.44140 -0.41400
O 	O 	0.71340 0.58460 0.39200 -0.43600
O 	O 	0.70740 0.59330 0.59400 -0.43800
O 	O 	0.85720 0.66950 0.67530 -0.40900
O 	O 	0.60860 0.44500 0.23930 -0.44400
O 	O 	0.60910 0.61120 0.21070 -0.46500
O 	O 	0.39320 0.26150 0.09730 -0.39400
O 	O 	0.38230 0.36700 0.21430 -0.50200
O 	O 	0.59990 0.77910 0.37920 -0.47200
O 	O 	0.48980 0.71880 0.49620 -0.44500
O 	O 	0.61250 0.91920 0.72970 -0.38900
O 	O 	0.63260 0.78770 0.63890 -0.49900
O 	O 	0.18090 0.92790 0.05860 -0.40500
O 	O 	0.21340 0.08460 0.10800 -0.43400
O 	O 	0.20740 0.09330 0.90600 -0.43800
O 	O 	0.35720 0.16950 0.82470 -0.40900
O 	O 	0.10860 0.94500 0.26070 -0.43000
O 	O 	0.10910 0.11120 0.28930 -0.46300
O 	O 	0.89320 0.76150 0.40270 -0.39500
O 	O 	0.88230 0.86700 0.28570 -0.50200
O 	O 	0.09990 0.27910 0.12080 -0.47000
O 	O 	0.98980 0.21880 0.00380 -0.43900
O 	O 	0.11250 0.41920 0.77030 -0.38800
O 	O 	0.13260 0.28770 0.86110 -0.49900
O 	O 	0.31910 0.57210 0.55860 -0.41400
O 	O 	0.28660 0.41540 0.60800 -0.43600
O 	O 	0.29260 0.40670 0.40600 -0.43800
O 	O 	0.14280 0.33050 0.32470 -0.40900
O 	O 	0.39140 0.55500 0.76070 -0.44400
O 	O 	0.39090 0.38880 0.78930 -0.46500
O 	O 	0.60680 0.73850 0.90270 -0.39400
O 	O 	0.61770 0.63300 0.78570 -0.50200
O 	O 	0.40010 0.22090 0.62080 -0.47200
O 	O 	0.51020 0.28120 0.50380 -0.44500
O 	O 	0.38750 0.08080 0.27030 -0.38900
O 	O 	0.36740 0.21230 0.36110 -0.49900
