data_crystal

_cell_length_a 10.83300
_cell_length_b 13.24500
_cell_length_c 14.29800
_cell_angle_alpha 90.00000
_cell_angle_beta  90.00000
_cell_angle_gamma 90.19300

_symmetry_space_group_name_	'P 1'
_symmetry_space_group_name_H-M	'P 1'

loop_
_symmetry_equiv_pos_as_xyz
  x,y,z

loop_
_atom_site_label
_atom_site_type_symbol
_atom_site_fract_x
_atom_site_fract_y
_atom_site_fract_z
_atom_site_charge
Tb	Tb	0.24440 0.71439 0.78203 2.07100
Tb	Tb	0.49448 0.86768 0.63836 1.77500
Tb	Tb	0.25560 0.78561 0.28203 2.07000
Tb	Tb	0.00552 0.63232 0.13836 1.77000
Tb	Tb	0.75560 0.28561 0.21797 2.07200
Tb	Tb	0.50552 0.13232 0.36164 1.77600
Tb	Tb	0.74440 0.21439 0.71797 2.07100
Tb	Tb	0.99448 0.36768 0.86164 1.77100
H 	H 	0.94070 0.91710 0.63470 0.03300
H 	H 	0.12190 0.63350 0.54570 0.03700
H 	H 	0.96400 0.93350 0.85370 0.04100
H 	H 	0.55930 0.58290 0.13470 0.03500
H 	H 	0.37810 0.86650 0.04570 0.03700
H 	H 	0.53600 0.56650 0.35370 0.04200
H 	H 	0.05930 0.08290 0.36530 0.03300
H 	H 	0.87810 0.36650 0.45430 0.03700
H 	H 	0.03600 0.06650 0.14630 0.04100
H 	H 	0.44070 0.41710 0.86530 0.03500
H 	H 	0.62190 0.13350 0.95430 0.03700
H 	H 	0.46400 0.43350 0.64630 0.04200
C 	C 	0.18080 0.88570 0.61080 0.44300
C 	C 	0.25380 0.99550 0.43360 0.44300
C 	C 	0.08830 0.94500 0.55290 -0.08400
C 	C 	0.96500 0.95040 0.58050 0.03500
C 	C 	0.12340 0.99600 0.47040 -0.09300
C 	C 	0.08810 0.52110 0.68990 0.46200
C 	C 	0.91380 0.34600 0.62980 0.34000
C 	C 	0.04100 0.50560 0.59210 -0.10600
C 	C 	0.96330 0.42690 0.56670 -0.06200
C 	C 	0.07380 0.57900 0.52660 0.02300
C 	C 	0.04210 0.78940 0.95370 0.49800
C 	C 	0.09350 0.87880 0.15310 0.31600
C 	C 	0.02310 0.89730 0.98330 -0.11700
C 	C 	0.04570 0.93750 0.07210 -0.07300
C 	C 	0.97830 0.96050 0.91270 0.02300
C 	C 	0.31920 0.61430 0.11080 0.44200
C 	C 	0.24620 0.50450 0.93360 0.44400
C 	C 	0.41170 0.55500 0.05290 -0.08200
C 	C 	0.53500 0.54960 0.08050 0.02600
C 	C 	0.37660 0.50400 0.97040 -0.08800
C 	C 	0.41190 0.97890 0.18990 0.46000
C 	C 	0.58620 0.15400 0.12980 0.33900
C 	C 	0.45900 0.99440 0.09210 -0.10900
C 	C 	0.53670 0.07310 0.06670 -0.05700
C 	C 	0.42620 0.92100 0.02660 0.01800
C 	C 	0.45790 0.71060 0.45370 0.49700
C 	C 	0.40650 0.62120 0.65310 0.31300
C 	C 	0.47690 0.60270 0.48330 -0.12200
C 	C 	0.45430 0.56250 0.57210 -0.06100
C 	C 	0.52170 0.53950 0.41270 0.01500
C 	C 	0.81920 0.11430 0.38920 0.44300
C 	C 	0.74620 0.00450 0.56640 0.44300
C 	C 	0.91170 0.05500 0.44710 -0.08400
C 	C 	0.03500 0.04960 0.41950 0.03500
C 	C 	0.87660 0.00400 0.52960 -0.09300
C 	C 	0.91190 0.47890 0.31010 0.46200
C 	C 	0.08620 0.65400 0.37020 0.34000
C 	C 	0.95900 0.49440 0.40790 -0.10600
C 	C 	0.03670 0.57310 0.43330 -0.06200
C 	C 	0.92620 0.42100 0.47340 0.02300
C 	C 	0.95790 0.21060 0.04630 0.49800
C 	C 	0.90650 0.12120 0.84690 0.31600
C 	C 	0.97690 0.10270 0.01670 -0.11700
C 	C 	0.95430 0.06250 0.92790 -0.07300
C 	C 	0.02170 0.03950 0.08730 0.02300
C 	C 	0.68080 0.38570 0.88920 0.44200
C 	C 	0.75380 0.49550 0.06640 0.44400
C 	C 	0.58830 0.44500 0.94710 -0.08200
C 	C 	0.46500 0.45040 0.91950 0.02600
C 	C 	0.62340 0.49600 0.02960 -0.08800
C 	C 	0.58810 0.02110 0.81010 0.46000
C 	C 	0.41380 0.84600 0.87020 0.33900
C 	C 	0.54100 0.00560 0.90790 -0.10900
C 	C 	0.46330 0.92690 0.93330 -0.05700
C 	C 	0.57380 0.07900 0.97340 0.01800
C 	C 	0.54210 0.28940 0.54630 0.49700
C 	C 	0.59350 0.37880 0.34690 0.31300
C 	C 	0.52310 0.39730 0.51670 -0.12200
C 	C 	0.54570 0.43750 0.42790 -0.06100
C 	C 	0.47830 0.46050 0.58730 0.01500
O 	O 	0.29250 0.90560 0.59390 -0.49500
O 	O 	0.14300 0.82950 0.67530 -0.46700
O 	O 	0.28690 0.91480 0.39130 -0.48800
O 	O 	0.32000 0.07220 0.44070 -0.46900
O 	O 	0.10910 0.61160 0.71200 -0.53500
O 	O 	0.10830 0.44500 0.73990 -0.49600
O 	O 	0.89250 0.26090 0.59780 -0.44700
O 	O 	0.88070 0.36670 0.71490 -0.57100
O 	O 	0.99200 0.71800 0.99640 -0.50300
O 	O 	0.10190 0.77880 0.87900 -0.53700
O 	O 	0.13340 0.78750 0.13950 -0.56500
O 	O 	0.11270 0.92030 0.22960 -0.42800
O 	O 	0.20750 0.59440 0.09390 -0.49600
O 	O 	0.35700 0.67050 0.17530 -0.46600
O 	O 	0.21310 0.58520 0.89130 -0.48700
O 	O 	0.18000 0.42780 0.94070 -0.46900
O 	O 	0.39090 0.88840 0.21200 -0.53500
O 	O 	0.39170 0.05500 0.23990 -0.49600
O 	O 	0.60750 0.23910 0.09780 -0.44600
O 	O 	0.61930 0.13330 0.21490 -0.57100
O 	O 	0.50800 0.78200 0.49640 -0.50200
O 	O 	0.39810 0.72120 0.37900 -0.53700
O 	O 	0.36660 0.71250 0.63950 -0.56400
O 	O 	0.38730 0.57970 0.72960 -0.42600
O 	O 	0.70750 0.09440 0.40610 -0.49500
O 	O 	0.85700 0.17050 0.32470 -0.46700
O 	O 	0.71310 0.08520 0.60870 -0.48800
O 	O 	0.68000 0.92780 0.55930 -0.46900
O 	O 	0.89090 0.38840 0.28800 -0.53500
O 	O 	0.89170 0.55500 0.26010 -0.49600
O 	O 	0.10750 0.73910 0.40220 -0.44700
O 	O 	0.11930 0.63330 0.28510 -0.57100
O 	O 	0.00800 0.28200 0.00360 -0.50300
O 	O 	0.89810 0.22120 0.12100 -0.53700
O 	O 	0.86660 0.21250 0.86050 -0.56500
O 	O 	0.88730 0.07970 0.77040 -0.42800
O 	O 	0.79250 0.40560 0.90610 -0.49600
O 	O 	0.64300 0.32950 0.82470 -0.46600
O 	O 	0.78690 0.41480 0.10870 -0.48700
O 	O 	0.82000 0.57220 0.05930 -0.46900
O 	O 	0.60910 0.11160 0.78800 -0.53500
O 	O 	0.60830 0.94500 0.76010 -0.49600
O 	O 	0.39250 0.76090 0.90220 -0.44600
O 	O 	0.38070 0.86670 0.78510 -0.57100
O 	O 	0.49200 0.21800 0.50360 -0.50200
O 	O 	0.60190 0.27880 0.62100 -0.53700
O 	O 	0.63340 0.28750 0.36050 -0.56400
O 	O 	0.61270 0.42030 0.27040 -0.42600
