data_crystal

_cell_length_a 10.80740
_cell_length_b 13.20230
_cell_length_c 14.25710
_cell_angle_alpha 90.00000
_cell_angle_beta  90.00000
_cell_angle_gamma 90.40200

_symmetry_space_group_name_	'P 1'
_symmetry_space_group_name_H-M	'P 1'

loop_
_symmetry_equiv_pos_as_xyz
  x,y,z

loop_
_atom_site_label
_atom_site_type_symbol
_atom_site_fract_x
_atom_site_fract_y
_atom_site_fract_z
_atom_site_charge
Dy	Dy	0.75541 0.78586 0.78202 2.00900
Dy	Dy	0.99373 0.86767 0.13822 1.71200
Dy	Dy	0.74459 0.71414 0.28202 2.01300
Dy	Dy	0.50627 0.63233 0.63822 1.73700
Dy	Dy	0.24459 0.21414 0.21798 2.01000
Dy	Dy	0.00627 0.13233 0.86178 1.71300
Dy	Dy	0.25541 0.28586 0.71798 2.01300
Dy	Dy	0.49373 0.36767 0.36178 1.73700
H 	H 	0.56150 0.08650 0.86670 0.03700
H 	H 	0.53070 0.06610 0.64760 0.04200
H 	H 	0.62390 0.63390 0.04580 0.03700
H 	H 	0.93850 0.41350 0.36670 0.03700
H 	H 	0.96930 0.43390 0.14760 0.04400
H 	H 	0.87610 0.86610 0.54580 0.03800
H 	H 	0.43850 0.91350 0.13330 0.03700
H 	H 	0.46930 0.93390 0.35240 0.04200
H 	H 	0.37610 0.36610 0.95420 0.03700
H 	H 	0.06150 0.58650 0.63330 0.03700
H 	H 	0.03070 0.56610 0.85240 0.04400
H 	H 	0.12390 0.13390 0.45420 0.03800
C 	C 	0.54330 0.78910 0.45360 0.50000
C 	C 	0.75340 0.99380 0.93250 0.42900
C 	C 	0.62330 0.99750 0.97130 -0.08300
C 	C 	0.58800 0.94390 0.05200 -0.07900
C 	C 	0.59690 0.87910 0.65290 0.32100
C 	C 	0.52310 0.89740 0.48320 -0.12000
C 	C 	0.68070 0.88760 0.11140 0.42700
C 	C 	0.54330 0.93690 0.57300 -0.06400
C 	C 	0.53650 0.05200 0.92040 0.02500
C 	C 	0.58670 0.65430 0.86990 0.33900
C 	C 	0.51870 0.03930 0.58790 0.01900
C 	C 	0.41090 0.47920 0.80980 0.47100
C 	C 	0.57410 0.57990 0.02700 0.02300
C 	C 	0.46050 0.49290 0.90740 -0.10800
C 	C 	0.53590 0.57370 0.93360 -0.05900
C 	C 	0.95670 0.71090 0.95360 0.49300
C 	C 	0.74660 0.50620 0.43250 0.43900
C 	C 	0.87670 0.50250 0.47130 -0.08400
C 	C 	0.91200 0.55610 0.55200 -0.07700
C 	C 	0.90310 0.62090 0.15290 0.32100
C 	C 	0.97690 0.60260 0.98320 -0.11400
C 	C 	0.81930 0.61240 0.61140 0.42800
C 	C 	0.95670 0.56310 0.07300 -0.06700
C 	C 	0.96350 0.44800 0.42040 0.02500
C 	C 	0.91330 0.84570 0.36990 0.33800
C 	C 	0.98130 0.46070 0.08790 0.01500
C 	C 	0.08910 0.02080 0.30980 0.45800
C 	C 	0.92590 0.92010 0.52700 0.02300
C 	C 	0.03950 0.00710 0.40740 -0.10700
C 	C 	0.96410 0.92630 0.43360 -0.06200
C 	C 	0.45670 0.21090 0.54640 0.50000
C 	C 	0.24660 0.00620 0.06750 0.42900
C 	C 	0.37670 0.00250 0.02870 -0.08300
C 	C 	0.41200 0.05610 0.94800 -0.07900
C 	C 	0.40310 0.12090 0.34710 0.32100
C 	C 	0.47690 0.10260 0.51680 -0.12000
C 	C 	0.31930 0.11240 0.88860 0.42700
C 	C 	0.45670 0.06310 0.42700 -0.06400
C 	C 	0.46350 0.94800 0.07960 0.02500
C 	C 	0.41330 0.34570 0.13010 0.33900
C 	C 	0.48130 0.96070 0.41210 0.01900
C 	C 	0.58910 0.52080 0.19020 0.47100
C 	C 	0.42590 0.42010 0.97300 0.02300
C 	C 	0.53950 0.50710 0.09260 -0.10800
C 	C 	0.46410 0.42630 0.06640 -0.05900
C 	C 	0.04330 0.28910 0.04640 0.49300
C 	C 	0.25340 0.49380 0.56750 0.43900
C 	C 	0.12330 0.49750 0.52870 -0.08400
C 	C 	0.08800 0.44390 0.44800 -0.07700
C 	C 	0.09690 0.37910 0.84710 0.32100
C 	C 	0.02310 0.39740 0.01680 -0.11400
C 	C 	0.18070 0.38760 0.38860 0.42800
C 	C 	0.04330 0.43690 0.92700 -0.06700
C 	C 	0.03650 0.55200 0.57960 0.02500
C 	C 	0.08670 0.15430 0.63010 0.33800
C 	C 	0.01870 0.53930 0.91210 0.01500
C 	C 	0.91090 0.97920 0.69020 0.45800
C 	C 	0.07410 0.07990 0.47300 0.02300
C 	C 	0.96050 0.99290 0.59260 -0.10700
C 	C 	0.03590 0.07370 0.56640 -0.06200
O 	O 	0.78710 0.91500 0.89130 -0.48300
O 	O 	0.79330 0.90570 0.09360 -0.48400
O 	O 	0.63400 0.78770 0.64010 -0.56000
O 	O 	0.49380 0.71720 0.49670 -0.49700
O 	O 	0.64260 0.82910 0.17590 -0.44900
O 	O 	0.82070 0.07290 0.94120 -0.44200
O 	O 	0.61370 0.92040 0.73040 -0.42300
O 	O 	0.60740 0.74010 0.90180 -0.43800
O 	O 	0.39330 0.55490 0.75950 -0.50000
O 	O 	0.60290 0.77890 0.37920 -0.53000
O 	O 	0.39150 0.38830 0.78800 -0.52900
O 	O 	0.61990 0.63350 0.78490 -0.56100
O 	O 	0.71290 0.58500 0.39130 -0.48500
O 	O 	0.70670 0.59430 0.59360 -0.48400
O 	O 	0.86600 0.71230 0.14010 -0.55900
O 	O 	0.00620 0.78280 0.99670 -0.49000
O 	O 	0.85740 0.67090 0.67590 -0.45000
O 	O 	0.67930 0.42710 0.44120 -0.45300
O 	O 	0.88630 0.57960 0.23040 -0.42200
O 	O 	0.89260 0.75990 0.40180 -0.43900
O 	O 	0.10670 0.94510 0.25950 -0.48400
O 	O 	0.89710 0.72110 0.87920 -0.52800
O 	O 	0.10850 0.11170 0.28800 -0.52600
O 	O 	0.88010 0.86650 0.28490 -0.56100
O 	O 	0.21290 0.08500 0.10870 -0.48300
O 	O 	0.20670 0.09430 0.90640 -0.48400
O 	O 	0.36600 0.21230 0.35990 -0.56000
O 	O 	0.50620 0.28280 0.50330 -0.49700
O 	O 	0.35740 0.17090 0.82410 -0.44900
O 	O 	0.17930 0.92710 0.05880 -0.44200
O 	O 	0.38630 0.07960 0.26960 -0.42300
O 	O 	0.39260 0.25990 0.09820 -0.43800
O 	O 	0.60670 0.44510 0.24050 -0.50000
O 	O 	0.39710 0.22110 0.62080 -0.53000
O 	O 	0.60850 0.61170 0.21200 -0.52900
O 	O 	0.38010 0.36650 0.21510 -0.56100
O 	O 	0.28710 0.41500 0.60870 -0.48500
O 	O 	0.29330 0.40570 0.40640 -0.48400
O 	O 	0.13400 0.28770 0.85990 -0.55900
O 	O 	0.99380 0.21720 0.00330 -0.49000
O 	O 	0.14260 0.32910 0.32410 -0.45000
O 	O 	0.32070 0.57290 0.55880 -0.45300
O 	O 	0.11370 0.42040 0.76960 -0.42200
O 	O 	0.10740 0.24010 0.59820 -0.43900
O 	O 	0.89330 0.05490 0.74050 -0.48400
O 	O 	0.10290 0.27890 0.12080 -0.52800
O 	O 	0.89150 0.88830 0.71200 -0.52600
O 	O 	0.11990 0.13350 0.71510 -0.56100
