data_crystal

_cell_length_a 10.78800
_cell_length_b 13.17000
_cell_length_c 14.22300
_cell_angle_alpha 90.00000
_cell_angle_beta  90.00000
_cell_angle_gamma 90.40200

_symmetry_space_group_name_	'P 1'
_symmetry_space_group_name_H-M	'P 1'

loop_
_symmetry_equiv_pos_as_xyz
  x,y,z

loop_
_atom_site_label
_atom_site_type_symbol
_atom_site_fract_x
_atom_site_fract_y
_atom_site_fract_z
_atom_site_charge
Ho	Ho	0.74470 0.71409 0.78191 1.97600
Ho	Ho	0.99327 0.86759 0.63807 1.68300
Ho	Ho	0.75530 0.78591 0.28191 1.97300
Ho	Ho	0.50673 0.63241 0.13807 1.70400
Ho	Ho	0.25529 0.28591 0.21809 1.97600
Ho	Ho	0.00673 0.13241 0.36193 1.68300
Ho	Ho	0.24470 0.21409 0.71809 1.97200
Ho	Ho	0.49327 0.36759 0.86193 1.70300
H 	H 	0.87630 0.86570 0.04590 0.03900
H 	H 	0.46900 0.93400 0.85200 0.04300
H 	H 	0.43870 0.91150 0.63290 0.03800
H 	H 	0.62370 0.63430 0.54590 0.03900
H 	H 	0.03100 0.56600 0.35200 0.04400
H 	H 	0.06130 0.58850 0.13290 0.03900
H 	H 	0.12370 0.13430 0.95410 0.03900
H 	H 	0.53100 0.06600 0.14800 0.04300
H 	H 	0.56130 0.08850 0.36710 0.03800
H 	H 	0.37630 0.36570 0.45410 0.03900
H 	H 	0.96900 0.43400 0.64800 0.04400
H 	H 	0.93870 0.41150 0.86710 0.03900
C 	C 	0.91320 0.84550 0.86920 0.33500
C 	C 	0.08910 0.02070 0.80960 0.45100
C 	C 	0.92590 0.92000 0.02710 0.02300
C 	C 	0.96360 0.92600 0.93330 -0.06100
C 	C 	0.03980 0.00730 0.90690 -0.10800
C 	C 	0.54450 0.78890 0.95270 0.50000
C 	C 	0.59790 0.87930 0.15280 0.31700
C 	C 	0.48140 0.96070 0.91180 0.02100
C 	C 	0.52380 0.89690 0.98300 -0.11900
C 	C 	0.54290 0.93730 0.07280 -0.06500
C 	C 	0.68070 0.88730 0.61160 0.42800
C 	C 	0.75430 0.99370 0.43240 0.43100
C 	C 	0.46380 0.94700 0.57960 0.02600
C 	C 	0.62350 0.99750 0.47120 -0.08200
C 	C 	0.58760 0.94360 0.55210 -0.07800
C 	C 	0.58680 0.65450 0.36920 0.33600
C 	C 	0.41090 0.47930 0.30960 0.46700
C 	C 	0.57410 0.58000 0.52710 0.02400
C 	C 	0.53640 0.57400 0.43330 -0.05800
C 	C 	0.46020 0.49270 0.40690 -0.10900
C 	C 	0.95550 0.71110 0.45270 0.49000
C 	C 	0.90210 0.62070 0.65280 0.31500
C 	C 	0.01860 0.53930 0.41180 0.01800
C 	C 	0.97620 0.60310 0.48300 -0.11900
C 	C 	0.95710 0.56270 0.57280 -0.06100
C 	C 	0.81930 0.61270 0.11160 0.42800
C 	C 	0.74570 0.50630 0.93240 0.44200
C 	C 	0.03620 0.55300 0.07960 0.02300
C 	C 	0.87650 0.50250 0.97120 -0.08500
C 	C 	0.91240 0.55640 0.05210 -0.07300
C 	C 	0.08680 0.15450 0.13080 0.33500
C 	C 	0.91090 0.97930 0.19040 0.45100
C 	C 	0.07410 0.08000 0.97290 0.02300
C 	C 	0.03640 0.07400 0.06670 -0.06100
C 	C 	0.96020 0.99270 0.09310 -0.10800
C 	C 	0.45550 0.21110 0.04730 0.50000
C 	C 	0.40210 0.12070 0.84720 0.31700
C 	C 	0.51860 0.03930 0.08820 0.02100
C 	C 	0.47620 0.10310 0.01700 -0.11900
C 	C 	0.45710 0.06270 0.92720 -0.06500
C 	C 	0.31930 0.11270 0.38840 0.42800
C 	C 	0.24570 0.00630 0.56760 0.43100
C 	C 	0.53620 0.05300 0.42040 0.02600
C 	C 	0.37650 0.00250 0.52880 -0.08200
C 	C 	0.41240 0.05640 0.44790 -0.07800
C 	C 	0.41320 0.34550 0.63080 0.33600
C 	C 	0.58910 0.52070 0.69040 0.46700
C 	C 	0.42590 0.42000 0.47290 0.02400
C 	C 	0.46360 0.42600 0.56670 -0.05800
C 	C 	0.53980 0.50730 0.59310 -0.10900
C 	C 	0.04450 0.28890 0.54730 0.49000
C 	C 	0.09790 0.37930 0.34720 0.31500
C 	C 	0.98140 0.46070 0.58820 0.01800
C 	C 	0.02380 0.39690 0.51700 -0.11900
C 	C 	0.04290 0.43730 0.42720 -0.06100
C 	C 	0.18070 0.38730 0.88840 0.42800
C 	C 	0.25430 0.49370 0.06760 0.44200
C 	C 	0.96380 0.44700 0.92040 0.02300
C 	C 	0.12350 0.49750 0.02880 -0.08500
C 	C 	0.08760 0.44360 0.94790 -0.07300
O 	O 	0.89260 0.75900 0.90140 -0.43300
O 	O 	0.88020 0.86630 0.78420 -0.55400
O 	O 	0.10910 0.11220 0.78790 -0.51800
O 	O 	0.10670 0.94490 0.75890 -0.47500
O 	O 	0.60400 0.77940 0.87860 -0.52800
O 	O 	0.49560 0.71610 0.99640 -0.49000
O 	O 	0.61480 0.92080 0.23100 -0.41600
O 	O 	0.63430 0.78750 0.14040 -0.55300
O 	O 	0.64250 0.82900 0.67620 -0.44500
O 	O 	0.79340 0.90530 0.59370 -0.47900
O 	O 	0.82150 0.07330 0.44090 -0.43900
O 	O 	0.78700 0.91530 0.39080 -0.47900
O 	O 	0.60740 0.74100 0.40140 -0.43200
O 	O 	0.61980 0.63370 0.28420 -0.55400
O 	O 	0.39090 0.38780 0.28790 -0.52100
O 	O 	0.39330 0.55510 0.25890 -0.49200
O 	O 	0.89600 0.72060 0.37860 -0.52600
O 	O 	0.00440 0.78390 0.49640 -0.47900
O 	O 	0.88520 0.57920 0.73100 -0.41500
O 	O 	0.86570 0.71250 0.64040 -0.55100
O 	O 	0.85750 0.67100 0.17620 -0.44500
O 	O 	0.70660 0.59470 0.09370 -0.47900
O 	O 	0.67850 0.42670 0.94090 -0.45000
O 	O 	0.71300 0.58470 0.89080 -0.48100
O 	O 	0.10740 0.24100 0.09860 -0.43300
O 	O 	0.11980 0.13370 0.21580 -0.55400
O 	O 	0.89090 0.88780 0.21210 -0.51800
O 	O 	0.89330 0.05510 0.24110 -0.47500
O 	O 	0.39600 0.22060 0.12140 -0.52800
O 	O 	0.50440 0.28390 0.00360 -0.49000
O 	O 	0.38520 0.07920 0.76900 -0.41600
O 	O 	0.36570 0.21250 0.85960 -0.55300
O 	O 	0.35750 0.17100 0.32380 -0.44500
O 	O 	0.20660 0.09470 0.40630 -0.47900
O 	O 	0.17850 0.92670 0.55910 -0.43900
O 	O 	0.21300 0.08470 0.60920 -0.47900
O 	O 	0.39260 0.25900 0.59860 -0.43200
O 	O 	0.38020 0.36630 0.71580 -0.55400
O 	O 	0.60910 0.61220 0.71210 -0.52100
O 	O 	0.60670 0.44490 0.74110 -0.49200
O 	O 	0.10400 0.27940 0.62140 -0.52600
O 	O 	0.99560 0.21610 0.50360 -0.47900
O 	O 	0.11480 0.42080 0.26900 -0.41500
O 	O 	0.13430 0.28750 0.35960 -0.55100
O 	O 	0.14250 0.32900 0.82380 -0.44500
O 	O 	0.29340 0.40530 0.90630 -0.47900
O 	O 	0.32150 0.57330 0.05910 -0.45000
O 	O 	0.28700 0.41530 0.10920 -0.48100
