data_crystal

_cell_length_a 7.13190
_cell_length_b 24.32700
_cell_length_c 18.84900
_cell_angle_alpha 90.00000
_cell_angle_beta  90.00000
_cell_angle_gamma 90.00000

_symmetry_space_group_name_	'P 1'
_symmetry_space_group_name_H-M	'P 1'

loop_
_symmetry_equiv_pos_as_xyz
  x,y,z

loop_
_atom_site_label
_atom_site_type_symbol
_atom_site_fract_x
_atom_site_fract_y
_atom_site_fract_z
_atom_site_charge
Zn	Zn	0.15675 0.08266 0.03783 1.18900
O 	O 	0.21980 0.06990 0.17730 -0.31600
O 	O 	0.25270 0.01555 0.08480 -0.50800
O 	O 	0.25210 0.98930 0.42070 -0.37200
O 	O 	0.39940 0.90970 0.43520 -0.47900
O 	O 	0.30210 0.15129 0.04750 -0.45400
O 	O 	0.54550 0.10250 0.00680 -0.36800
C 	C 	0.30910 0.98440 0.27270 -0.02700
H 	H 	0.26610 0.01740 0.29160 0.04600
C 	C 	0.26080 0.02440 0.15180 0.27000
C 	C 	0.32140 0.97770 0.19900 0.03100
C 	C 	0.38080 0.92740 0.17190 -0.21300
H 	H 	0.38260 0.92220 0.12310 0.11200
C 	C 	0.50240 0.83070 0.18590 -0.71800
H 	H 	0.45520 0.82640 0.13850 0.22800
H 	H 	0.63700 0.82980 0.18510 0.21700
H 	H 	0.45650 0.80130 0.21520 0.19800
C 	C 	0.43710 0.88530 0.21580 0.26700
C 	C 	0.42900 0.89360 0.28910 -0.19900
H 	H 	0.47030 0.86600 0.31950 0.08200
C 	C 	0.36090 0.94210 0.31720 -0.00200
C 	C 	0.33700 0.94830 0.39700 0.31400
C 	C 	0.47000 0.14700 0.02230 0.25600
C 	C 	0.57140 0.20010 0.00840 0.07300
C 	C 	0.74910 0.20120 0.97670 -0.41600
H 	H 	0.80910 0.16820 0.96650 0.17100
H 	H 	0.01130 0.26370 0.87570 0.26600
H 	H 	0.07420 0.21320 0.92170 0.27100
H 	H 	0.11130 0.27310 0.94880 0.28800
Zn	Zn	0.34325 0.91734 0.53783 1.19900
O 	O 	0.28020 0.93010 0.67730 -0.31400
O 	O 	0.24730 0.98445 0.58480 -0.48800
O 	O 	0.24790 0.01070 0.92070 -0.38300
O 	O 	0.10060 0.09030 0.93520 -0.47000
O 	O 	0.19790 0.84871 0.54750 -0.43600
O 	O 	0.95450 0.89750 0.50680 -0.33400
C 	C 	0.19090 0.01560 0.77270 -0.09900
H 	H 	0.23390 0.98260 0.79160 0.10400
C 	C 	0.23920 0.97560 0.65180 0.31200
C 	C 	0.17860 0.02230 0.69900 -0.00300
C 	C 	0.11920 0.07260 0.67190 -0.17500
H 	H 	0.11740 0.07780 0.62310 0.09600
C 	C 	0.99760 0.16930 0.68590 -0.56900
H 	H 	0.04480 0.17360 0.63850 0.18300
H 	H 	0.86300 0.17020 0.68510 0.17900
H 	H 	0.04350 0.19870 0.71520 0.15200
C 	C 	0.06290 0.11470 0.71580 0.21000
C 	C 	0.07100 0.10640 0.78910 -0.17700
H 	H 	0.02970 0.13400 0.81950 0.07300
C 	C 	0.13910 0.05790 0.81720 0.00800
C 	C 	0.16300 0.05170 0.89700 0.30400
C 	C 	0.03000 0.85300 0.52230 0.22000
C 	C 	0.92860 0.79990 0.50840 0.16500
C 	C 	0.75090 0.79880 0.47670 -0.51500
H 	H 	0.69090 0.83180 0.46650 0.19500
H 	H 	0.48870 0.73630 0.37570 0.27500
H 	H 	0.42580 0.78680 0.42170 0.28200
H 	H 	0.38870 0.72690 0.44880 0.29100
Zn	Zn	0.84325 0.58266 0.96217 1.20300
O 	O 	0.78020 0.56990 0.82270 -0.30800
O 	O 	0.74730 0.51555 0.91520 -0.48200
O 	O 	0.74790 0.48930 0.57930 -0.37800
O 	O 	0.60060 0.40970 0.56480 -0.47500
O 	O 	0.69790 0.65129 0.95250 -0.42700
O 	O 	0.45450 0.60250 0.99320 -0.32500
C 	C 	0.69090 0.48440 0.72730 -0.08700
H 	H 	0.73390 0.51740 0.70840 0.08500
C 	C 	0.73920 0.52440 0.84820 0.28300
C 	C 	0.67860 0.47770 0.80100 0.04000
C 	C 	0.61920 0.42740 0.82810 -0.23500
H 	H 	0.61740 0.42220 0.87690 0.12600
C 	C 	0.49760 0.33070 0.81410 -0.76500
H 	H 	0.54480 0.32640 0.86150 0.25100
H 	H 	0.36300 0.32980 0.81490 0.23500
H 	H 	0.54350 0.30130 0.78480 0.21600
C 	C 	0.56290 0.38530 0.78420 0.29900
C 	C 	0.57100 0.39360 0.71090 -0.22400
H 	H 	0.52970 0.36600 0.68050 0.09400
C 	C 	0.63910 0.44210 0.68280 0.02700
C 	C 	0.66300 0.44830 0.60300 0.30300
C 	C 	0.53000 0.64700 0.97770 0.21300
C 	C 	0.42860 0.70010 0.99160 0.22000
C 	C 	0.25090 0.70120 0.02330 -0.59000
H 	H 	0.19090 0.66820 0.03350 0.21100
H 	H 	0.98870 0.76370 0.12430 0.28400
H 	H 	0.92580 0.71320 0.07830 0.29100
H 	H 	0.88870 0.77310 0.05120 0.29400
Zn	Zn	0.65675 0.41734 0.46217 1.19800
O 	O 	0.71980 0.43010 0.32270 -0.31000
O 	O 	0.75270 0.48445 0.41520 -0.49000
O 	O 	0.75210 0.51070 0.07930 -0.38700
O 	O 	0.89940 0.59030 0.06480 -0.48900
O 	O 	0.80210 0.34871 0.45250 -0.44600
O 	O 	0.04550 0.39750 0.49320 -0.36100
C 	C 	0.80910 0.51560 0.22730 -0.08500
H 	H 	0.76610 0.48260 0.20840 0.08400
C 	C 	0.76080 0.47560 0.34820 0.28500
C 	C 	0.82140 0.52230 0.30100 0.03800
C 	C 	0.88080 0.57260 0.32810 -0.23500
H 	H 	0.88260 0.57780 0.37690 0.12100
C 	C 	0.00240 0.66930 0.31410 -0.78300
H 	H 	0.95520 0.67360 0.36150 0.25200
H 	H 	0.13700 0.67020 0.31490 0.23700
H 	H 	0.95650 0.69870 0.28480 0.21900
C 	C 	0.93710 0.61470 0.28420 0.30200
C 	C 	0.92900 0.60640 0.21090 -0.22600
H 	H 	0.97030 0.63400 0.18050 0.09000
C 	C 	0.86090 0.55790 0.18280 0.02500
C 	C 	0.83700 0.55170 0.10300 0.30500
C 	C 	0.97000 0.35300 0.47770 0.27500
C 	C 	0.07140 0.29990 0.49160 0.08500
C 	C 	0.24910 0.29880 0.52330 -0.44700
H 	H 	0.30910 0.33180 0.53350 0.17300
H 	H 	0.51130 0.23630 0.62430 0.26300
H 	H 	0.57420 0.28680 0.57830 0.26900
H 	H 	0.61130 0.22690 0.55120 0.27800
Zn	Zn	0.84325 0.91734 0.96217 1.20400
O 	O 	0.78020 0.93010 0.82270 -0.30800
O 	O 	0.74730 0.98445 0.91520 -0.47600
O 	O 	0.74790 0.01070 0.57930 -0.38800
O 	O 	0.60060 0.09030 0.56480 -0.47600
O 	O 	0.69790 0.84871 0.95250 -0.42700
O 	O 	0.45450 0.89750 0.99320 -0.32100
C 	C 	0.69090 0.01560 0.72730 -0.13000
H 	H 	0.73390 0.98260 0.70840 0.11500
C 	C 	0.73920 0.97560 0.84820 0.29800
C 	C 	0.67860 0.02230 0.80100 0.03600
C 	C 	0.61920 0.07260 0.82810 -0.23800
H 	H 	0.61740 0.07780 0.87690 0.12400
C 	C 	0.49760 0.16930 0.81410 -0.77200
H 	H 	0.54480 0.17360 0.86150 0.25300
H 	H 	0.36300 0.17020 0.81490 0.23800
H 	H 	0.54350 0.19870 0.78480 0.21900
C 	C 	0.56290 0.11470 0.78420 0.30500
C 	C 	0.57100 0.10640 0.71090 -0.23400
H 	H 	0.52970 0.13400 0.68050 0.09700
C 	C 	0.63910 0.05790 0.68280 0.04300
C 	C 	0.66300 0.05170 0.60300 0.29600
C 	C 	0.53000 0.85300 0.97770 0.21200
C 	C 	0.42860 0.79990 0.99160 0.22000
C 	C 	0.25090 0.79880 0.02330 -0.58900
H 	H 	0.19090 0.83180 0.03350 0.21200
H 	H 	0.98870 0.73630 0.12430 0.28400
H 	H 	0.92580 0.78680 0.07830 0.29200
H 	H 	0.88870 0.72690 0.05120 0.29400
Zn	Zn	0.65675 0.08266 0.46217 1.19700
O 	O 	0.71980 0.06990 0.32270 -0.31000
O 	O 	0.75270 0.01555 0.41520 -0.49600
O 	O 	0.75210 0.98930 0.07930 -0.37500
O 	O 	0.89940 0.90970 0.06480 -0.48800
O 	O 	0.80210 0.15129 0.45250 -0.44700
O 	O 	0.04550 0.10250 0.49320 -0.36500
C 	C 	0.80910 0.98440 0.22730 -0.03600
H 	H 	0.76610 0.01740 0.20840 0.05100
C 	C 	0.76080 0.02440 0.34820 0.26700
C 	C 	0.82140 0.97770 0.30100 0.04200
C 	C 	0.88080 0.92740 0.32810 -0.23100
H 	H 	0.88260 0.92220 0.37690 0.12300
C 	C 	0.00240 0.83070 0.31410 -0.77100
H 	H 	0.95520 0.82640 0.36150 0.24900
H 	H 	0.13700 0.82980 0.31490 0.23300
H 	H 	0.95650 0.80130 0.28480 0.21500
C 	C 	0.93710 0.88530 0.28420 0.29300
C 	C 	0.92900 0.89360 0.21090 -0.21400
H 	H 	0.97030 0.86600 0.18050 0.08700
C 	C 	0.86090 0.94210 0.18280 0.00700
C 	C 	0.83700 0.94830 0.10300 0.31200
C 	C 	0.97000 0.14700 0.47770 0.27700
C 	C 	0.07140 0.20010 0.49160 0.08400
C 	C 	0.24910 0.20120 0.52330 -0.44600
H 	H 	0.30910 0.16820 0.53350 0.17200
H 	H 	0.51130 0.26370 0.62430 0.26300
H 	H 	0.57420 0.21320 0.57830 0.26900
H 	H 	0.61130 0.27310 0.55120 0.27800
Zn	Zn	0.15675 0.41734 0.03783 1.19100
O 	O 	0.21980 0.43010 0.17730 -0.31600
O 	O 	0.25270 0.48445 0.08480 -0.50100
O 	O 	0.25210 0.51070 0.42070 -0.38300
O 	O 	0.39940 0.59030 0.43520 -0.48000
O 	O 	0.30210 0.34871 0.04750 -0.45200
O 	O 	0.54550 0.39750 0.00680 -0.36300
C 	C 	0.30910 0.51560 0.27270 -0.07500
H 	H 	0.26610 0.48260 0.29160 0.07900
C 	C 	0.26080 0.47560 0.15180 0.29000
C 	C 	0.32140 0.52230 0.19900 0.02300
C 	C 	0.38080 0.57260 0.17190 -0.21500
H 	H 	0.38260 0.57780 0.12310 0.10800
C 	C 	0.50240 0.66930 0.18590 -0.72300
H 	H 	0.45520 0.67360 0.13850 0.22900
H 	H 	0.63700 0.67020 0.18510 0.21800
H 	H 	0.45650 0.69870 0.21520 0.20000
C 	C 	0.43710 0.61470 0.21580 0.27200
C 	C 	0.42900 0.60640 0.28910 -0.20900
H 	H 	0.47030 0.63400 0.31950 0.08500
C 	C 	0.36090 0.55790 0.31720 0.01400
C 	C 	0.33700 0.55170 0.39700 0.30600
C 	C 	0.47000 0.35300 0.02230 0.25500
C 	C 	0.57140 0.29990 0.00840 0.07400
C 	C 	0.74910 0.29880 0.97670 -0.41700
H 	H 	0.80910 0.33180 0.96650 0.17200
H 	H 	0.01130 0.23630 0.87570 0.26600
H 	H 	0.07420 0.28680 0.92170 0.27100
H 	H 	0.11130 0.22690 0.94880 0.28800
Zn	Zn	0.34325 0.58266 0.53783 1.19700
O 	O 	0.28020 0.56990 0.67730 -0.31400
O 	O 	0.24730 0.51555 0.58480 -0.49500
O 	O 	0.24790 0.48930 0.92070 -0.37500
O 	O 	0.10060 0.40970 0.93520 -0.47000
O 	O 	0.19790 0.65129 0.54750 -0.43600
O 	O 	0.95450 0.60250 0.50680 -0.33800
C 	C 	0.19090 0.48440 0.77270 -0.05700
H 	H 	0.23390 0.51740 0.79160 0.07400
C 	C 	0.23920 0.52440 0.65180 0.29500
C 	C 	0.17860 0.47770 0.69900 0.00400
C 	C 	0.11920 0.42740 0.67190 -0.17500
H 	H 	0.11740 0.42220 0.62310 0.09900
C 	C 	0.99760 0.33070 0.68590 -0.56700
H 	H 	0.04480 0.32640 0.63850 0.18200
H 	H 	0.86300 0.32980 0.68510 0.17900
H 	H 	0.04350 0.30130 0.71520 0.15200
C 	C 	0.06290 0.38530 0.71580 0.20700
C 	C 	0.07100 0.39360 0.78910 -0.16900
H 	H 	0.02970 0.36600 0.81950 0.07100
C 	C 	0.13910 0.44210 0.81720 -0.00600
C 	C 	0.16300 0.44830 0.89700 0.31100
C 	C 	0.03000 0.64700 0.52230 0.22100
C 	C 	0.92860 0.70010 0.50840 0.16400
C 	C 	0.75090 0.70120 0.47670 -0.51500
H 	H 	0.69090 0.66820 0.46650 0.19400
H 	H 	0.48870 0.76370 0.37570 0.27500
H 	H 	0.42580 0.71320 0.42170 0.28100
H 	H 	0.38870 0.77310 0.44880 0.29100
Na	Na	0.50000 0.00000 -0.00000 0.57700
Na	Na	0.00000 0.00000 0.50000 0.58100
Na	Na	0.50000 0.50000 -0.00000 0.58100
Na	Na	0.00000 0.50000 0.50000 0.58400
C 	C 	0.48480 0.25000 0.02420 -0.16900
H 	H 	0.36740 0.25000 0.04570 0.09300
C 	C 	0.83690 0.25000 0.96020 0.62300
C 	C 	0.02580 0.25000 0.92320 -1.66600
C 	C 	0.01520 0.75000 0.52420 -0.24400
H 	H 	0.13260 0.75000 0.54570 0.12300
C 	C 	0.66310 0.75000 0.46020 0.68400
C 	C 	0.47420 0.75000 0.42320 -1.72600
C 	C 	0.51520 0.75000 0.97580 -0.27700
H 	H 	0.63260 0.75000 0.95430 0.13800
C 	C 	0.16310 0.75000 0.03980 0.73300
C 	C 	0.97420 0.75000 0.07680 -1.78300
C 	C 	0.98480 0.25000 0.47580 -0.14600
H 	H 	0.86740 0.25000 0.45430 0.09200
C 	C 	0.33690 0.25000 0.53980 0.62100
C 	C 	0.52580 0.25000 0.57680 -1.64000
