data_crystal

_cell_length_a 8.29980
_cell_length_b 8.46710
_cell_length_c 13.22530
_cell_angle_alpha 90.36000
_cell_angle_beta  90.30200
_cell_angle_gamma 115.45900

_symmetry_space_group_name_	'P 1'
_symmetry_space_group_name_H-M	'P 1'

loop_
_symmetry_equiv_pos_as_xyz
  x,y,z

loop_
_atom_site_label
_atom_site_type_symbol
_atom_site_fract_x
_atom_site_fract_y
_atom_site_fract_z
_atom_site_charge
N 	N 	0.74760 0.41640 0.56400 -0.28000
H 	H 	0.76040 0.39420 0.49790 0.07600
H 	H 	0.72380 0.51150 0.56870 0.08700
H 	H 	0.85030 0.43770 0.59840 0.10400
C 	C 	0.59710 0.26150 0.60840 -0.13700
H 	H 	0.62230 0.15780 0.60200 0.03300
H 	H 	0.48610 0.23730 0.57000 0.03200
C 	C 	0.56890 0.29230 0.72230 0.22100
H 	H 	0.54420 0.39650 0.72800 -0.09300
H 	H 	0.46260 0.19050 0.74680 -0.06800
C 	C 	0.72700 0.31910 0.79020 -0.31600
H 	H 	0.75640 0.21820 0.78130 0.10000
H 	H 	0.83160 0.42520 0.76830 0.13100
C 	C 	0.69640 0.33780 0.89870 0.60200
H 	H 	0.59980 0.22570 0.92070 -0.68200
H 	H 	0.80580 0.35200 0.93580 -0.08400
N 	N 	0.65120 0.47530 0.93210 -0.37400
H 	H 	0.63670 0.46960 0.00030 0.06200
H 	H 	0.74030 0.58070 0.91560 0.15200
H 	H 	0.54780 0.46270 0.90150 0.10000
H 	H 	0.57880 0.15370 0.57070 0.01000
H 	H 	0.48530 0.27650 0.60520 0.00900
C 	C 	0.65000 0.24900 0.72300 -0.08200
H 	H 	0.55390 0.14410 0.75240 0.02700
H 	H 	0.75920 0.22860 0.72240 0.00600
C 	C 	0.68500 0.40100 0.79300 -0.12000
H 	H 	0.58670 0.43780 0.78870 0.03700
H 	H 	0.79820 0.50240 0.77590 0.03100
H 	H 	0.79550 0.30220 0.89970 -0.05200
H 	H 	0.72960 0.43840 0.94590 -0.00500
N 	N 	0.54810 0.20220 0.93640 0.58400
H 	H 	0.57230 0.17670 0.99980 -0.08600
H 	H 	0.45610 0.23340 0.93870 -0.15700
H 	H 	0.51760 0.10640 0.89570 -0.03000
N 	N 	0.25240 0.58360 0.43600 -0.24500
H 	H 	0.23960 0.60580 0.50210 0.04900
H 	H 	0.27620 0.48850 0.43130 0.04900
H 	H 	0.14970 0.56230 0.40160 0.05300
C 	C 	0.40290 0.73850 0.39160 -0.16700
H 	H 	0.37770 0.84220 0.39800 0.04000
H 	H 	0.51390 0.76270 0.43000 0.05200
C 	C 	0.43110 0.70770 0.27770 0.20000
H 	H 	0.45580 0.60350 0.27200 -0.08600
H 	H 	0.53740 0.80950 0.25320 -0.03300
C 	C 	0.27300 0.68090 0.20980 -0.27200
H 	H 	0.24360 0.78180 0.21870 0.08100
H 	H 	0.16840 0.57480 0.23170 0.09500
C 	C 	0.30360 0.66220 0.10130 0.64600
H 	H 	0.40020 0.77430 0.07930 -0.66400
H 	H 	0.19420 0.64800 0.06420 -0.13200
N 	N 	0.34880 0.52470 0.06790 -0.42700
H 	H 	0.36330 0.53040 0.99970 0.15000
H 	H 	0.25970 0.41930 0.08440 0.12800
H 	H 	0.45220 0.53730 0.09850 0.09600
H 	H 	0.42120 0.84630 0.42930 0.04800
H 	H 	0.51470 0.72350 0.39480 0.01800
C 	C 	0.35000 0.75100 0.27700 -0.06200
H 	H 	0.44610 0.85590 0.24760 0.04400
H 	H 	0.24080 0.77140 0.27760 0.00100
C 	C 	0.31500 0.59900 0.20700 -0.17100
H 	H 	0.41330 0.56220 0.21130 0.04600
H 	H 	0.20180 0.49760 0.22410 0.02100
H 	H 	0.20450 0.69780 0.10030 -0.06900
H 	H 	0.27040 0.56160 0.05410 -0.04400
N 	N 	0.45190 0.79780 0.06360 0.53200
H 	H 	0.42770 0.82330 0.00020 -0.08300
H 	H 	0.54390 0.76660 0.06130 -0.13300
H 	H 	0.48240 0.89360 0.10430 0.01800
Cu	Cu	0.68320 0.33385 0.24957 0.81000
O 	O 	0.67980 0.14020 0.33360 -0.47000
O 	O 	0.81240 0.99520 0.40850 -0.35500
O 	O 	0.88170 0.33690 0.16810 -0.49400
O 	O 	0.01840 0.20440 0.08230 -0.62700
C 	C 	0.81560 0.13120 0.36800 0.31000
H 	H 	0.92680 0.23130 0.36360 -0.11800
C 	C 	0.88500 0.20390 0.12720 0.61000
H 	H 	0.78050 0.09660 0.13040 -0.24600
Cu	Cu	0.31680 0.66615 0.75043 0.81600
O 	O 	0.32020 0.85980 0.66640 -0.49000
O 	O 	0.18760 0.00480 0.59150 -0.62300
O 	O 	0.11830 0.66310 0.83190 -0.45900
O 	O 	0.98160 0.79560 0.91770 -0.33100
C 	C 	0.18440 0.86880 0.63200 0.61800
H 	H 	0.07320 0.76870 0.63640 -0.25100
C 	C 	0.11500 0.79610 0.87280 0.31000
H 	H 	0.21950 0.90340 0.86960 -0.09700
Cu	Cu	-0.00000 0.00000 -0.00000 0.72700
Cu	Cu	0.00000 0.00000 0.50000 0.74300
