data_crystal

_cell_length_a 9.12910
_cell_length_b 9.58840
_cell_length_c 14.75540
_cell_angle_alpha 100.38800
_cell_angle_beta  99.27000
_cell_angle_gamma 114.46700

_symmetry_space_group_name_	'P 1'
_symmetry_space_group_name_H-M	'P 1'

loop_
_symmetry_equiv_pos_as_xyz
  x,y,z

loop_
_atom_site_label
_atom_site_type_symbol
_atom_site_fract_x
_atom_site_fract_y
_atom_site_fract_z
_atom_site_charge
O 	O 	0.34740 0.24820 0.26816 -0.38200
O 	O 	0.15700 0.08930 0.13845 -0.57500
C 	C 	0.21710 0.21450 0.20793 0.36100
O 	O 	0.30690 0.46520 0.06497 -0.46100
O 	O 	0.09950 0.22897 0.98480 -0.32800
C 	C 	0.16650 0.35290 0.05306 0.23800
C 	C 	0.07990 0.37500 0.13142 -0.12700
H 	H 	0.12360 0.49050 0.15620 0.07100
O 	O 	0.71270 0.15400 0.94630 -0.32200
O 	O 	0.80413 0.03053 0.03763 -0.43000
C 	C 	0.79530 0.15360 0.02304 0.18400
C 	C 	0.88640 0.30690 0.10318 -0.01800
H 	H 	0.85660 0.38760 0.08590 0.02100
Co	Co	0.35513 0.03226 0.17061 1.14400
C 	C 	0.66080 0.17730 0.18802 0.35000
O 	O 	0.61250 0.06500 0.22486 -0.40700
C 	C 	0.84360 0.28090 0.19847 -0.16500
H 	H 	0.87320 0.38600 0.23990 0.08900
C 	C 	0.96170 0.22390 0.24427 0.03600
H 	H 	0.91910 0.11000 0.21820 0.03700
H 	H 	0.97700 0.24750 0.31290 0.03200
C 	C 	0.12750 0.31670 0.21983 -0.18900
H 	H 	0.19830 0.41110 0.27380 0.09400
N 	N 	0.26170 0.89750 0.26147 -0.24400
O 	O 	0.55510 0.20810 0.14166 -0.45000
C 	C 	0.06510 0.60170 0.44289 -0.16000
C 	C 	0.13290 0.70630 0.38103 0.18400
C 	C 	0.03080 0.71550 0.30480 -0.27800
H 	H 	0.91560 0.65750 0.29230 0.13900
C 	C 	0.09740 0.80940 0.24696 0.14900
H 	H 	0.02510 0.81160 0.19570 -0.03100
C 	C 	0.89970 0.54440 0.44590 0.11700
H 	H 	0.83010 0.57360 0.40920 -0.00400
C 	C 	0.36090 0.89090 0.33610 0.12600
H 	H 	0.47550 0.95150 0.34770 0.00900
C 	C 	0.30330 0.79980 0.39680 -0.21200
H 	H 	0.37810 0.80090 0.44810 0.11700
C 	C 	0.16370 0.55440 0.49840 0.08900
H 	H 	0.27500 0.59020 0.49790 0.00100
O 	O 	0.65260 0.75180 0.73184 -0.34800
O 	O 	0.84300 0.91070 0.86155 -0.45800
C 	C 	0.78290 0.78550 0.79207 0.31900
O 	O 	0.69310 0.53480 0.93503 -0.45100
O 	O 	0.90050 0.77103 0.01520 -0.52000
C 	C 	0.83350 0.64710 0.94694 0.49800
C 	C 	0.92010 0.62500 0.86858 -0.12400
H 	H 	0.87640 0.50950 0.84380 0.08800
O 	O 	0.28730 0.84600 0.05370 -0.50500
O 	O 	0.19587 0.96947 0.96237 -0.37600
C 	C 	0.20470 0.84640 0.97696 0.47900
C 	C 	0.11360 0.69310 0.89682 -0.15600
H 	H 	0.14340 0.61240 0.91410 0.10100
Co	Co	0.64487 0.96774 0.82939 1.19600
C 	C 	0.33920 0.82270 0.81198 0.30300
O 	O 	0.38750 0.93500 0.77514 -0.34200
C 	C 	0.15640 0.71910 0.80153 -0.05800
H 	H 	0.12680 0.61400 0.76010 0.04700
C 	C 	0.03830 0.77610 0.75573 -0.11900
H 	H 	0.08090 0.89000 0.78180 0.09200
H 	H 	0.02300 0.75250 0.68710 0.07000
C 	C 	0.87250 0.68330 0.78017 -0.07700
H 	H 	0.80170 0.58890 0.72620 0.06800
N 	N 	0.73830 0.10250 0.73853 -0.24100
O 	O 	0.44490 0.79190 0.85834 -0.37500
C 	C 	0.93490 0.39830 0.55711 0.13300
C 	C 	0.86710 0.29370 0.61897 -0.01200
C 	C 	0.96920 0.28450 0.69520 -0.02300
H 	H 	0.08440 0.34250 0.70770 0.00800
C 	C 	0.90260 0.19060 0.75304 0.01800
H 	H 	0.97490 0.18840 0.80430 0.02100
C 	C 	0.10030 0.45560 0.55410 -0.20900
H 	H 	0.16990 0.42640 0.59080 0.09500
C 	C 	0.63910 0.10910 0.66390 0.04800
H 	H 	0.52450 0.04850 0.65230 -0.01200
C 	C 	0.69670 0.20020 0.60320 -0.09800
H 	H 	0.62190 0.19910 0.55190 0.05400
C 	C 	0.83630 0.44560 0.50160 -0.18000
H 	H 	0.72500 0.40980 0.50210 0.09500
Co	Co	-0.00000 0.00000 -0.00000 1.10900
Co	Co	0.50000 0.50000 -0.00000 1.03700
