data_crystal

_cell_length_a 25.80100
_cell_length_b 16.78440
_cell_length_c 18.95220
_cell_angle_alpha 90.00000
_cell_angle_beta  128.76400
_cell_angle_gamma 90.00000

_symmetry_space_group_name_	'P 1'
_symmetry_space_group_name_H-M	'P 1'

loop_
_symmetry_equiv_pos_as_xyz
  x,y,z

loop_
_atom_site_label
_atom_site_type_symbol
_atom_site_fract_x
_atom_site_fract_y
_atom_site_fract_z
_atom_site_charge
Zn	Zn	0.26811 0.99028 0.29253 1.20900
O 	O 	0.14802 0.08122 0.21264 -0.31800
O 	O 	0.17737 0.96845 0.18604 -0.45800
O 	O 	0.02094 0.91561 0.17615 -0.48100
O 	O 	0.08721 0.83866 0.29325 -0.34300
C 	C 	0.08562 0.82208 0.16803 -0.15400
C 	C 	0.03766 0.93065 0.04626 -0.06700
N 	N 	0.27664 0.95699 0.40269 -0.25600
C 	C 	0.06454 0.00629 0.08235 -0.01100
C 	C 	0.07301 0.85340 0.08968 0.12000
N 	N 	0.07965 0.02446 0.35100 -0.26200
N 	N 	0.25486 0.90541 0.48797 -0.10800
C 	C 	0.06368 0.86106 0.21706 0.36900
C 	C 	0.97405 0.92683 0.96450 0.06400
H 	H 	0.95620 0.87690 0.93960 0.03100
C 	C 	0.13458 0.02047 0.16741 0.31100
N 	N 	0.17417 0.08877 0.43580 -0.11600
C 	C 	0.11771 0.74910 0.20134 0.07000
H 	H 	0.12680 0.72930 0.25390 0.02500
C 	C 	0.10670 0.01520 0.43950 0.00100
H 	H 	0.08800 0.98590 0.46020 0.02700
N 	N 	0.31699 0.90744 0.27442 -0.25800
C 	C 	0.25367 0.77160 0.53800 -0.09500
H 	H 	0.23340 0.73950 0.55750 0.06300
H 	H 	0.30060 0.77630 0.58880 0.07700
C 	C 	0.22300 0.85340 0.51360 -0.06000
H 	H 	0.17580 0.84950 0.46350 0.06400
H 	H 	0.22840 0.87630 0.56480 0.06400
C 	C 	0.12181 0.06950 0.35150 0.08400
H 	H 	0.11580 0.08570 0.29990 0.00100
C 	C 	0.23376 0.91538 0.40340 0.08900
H 	H 	0.19390 0.89540 0.35180 -0.00000
C 	C 	0.22188 0.22300 0.48630 -0.09900
H 	H 	0.18030 0.24610 0.43510 0.05700
H 	H 	0.22020 0.21890 0.53600 0.06200
C 	C 	0.37291 0.91740 0.28680 0.09000
H 	H 	0.39210 0.96670 0.29390 -0.00600
C 	C 	0.31491 0.94290 0.54470 -0.00800
H 	H 	0.34160 0.94560 0.60750 0.04700
C 	C 	0.32807 0.97490 0.49250 0.00800
H 	H 	0.36570 0.00440 0.51330 0.02000
N 	N 	0.39848 0.84780 0.28790 -0.11800
C 	C 	0.22880 0.14050 0.46130 -0.05200
H 	H 	0.22990 0.14430 0.41110 0.05300
H 	H 	0.27050 0.11730 0.51230 0.05200
C 	C 	0.35570 0.78840 0.27200 -0.01800
H 	H 	0.35990 0.73390 0.26780 0.05200
C 	C 	0.30620 0.82650 0.26370 0.01400
H 	H 	0.26950 0.80130 0.25230 0.01800
C 	C 	0.16440 0.05460 0.49210 -0.00300
H 	H 	0.19240 0.05820 0.55490 0.03800
C 	C 	0.13665 0.70496 0.15953 -0.14200
O 	O 	0.18621 0.60199 0.26983 -0.34000
C 	C 	0.09102 0.80824 0.04706 -0.16300
H 	H 	0.08210 0.82760 0.99450 0.07900
C 	C 	0.12201 0.73487 0.08060 0.07000
H 	H 	0.13300 0.70560 0.05000 0.01000
C 	C 	0.17055 0.62541 0.19840 0.36300
O 	O 	0.18115 0.58680 0.15088 -0.47500
C 	C 	0.46350 0.84110 0.23490 -0.11300
H 	H 	0.44040 0.88880 0.19990 0.06400
H 	H 	0.43930 0.79530 0.19640 0.06100
C 	C 	0.46480 0.83840 0.31070 -0.03700
H 	H 	0.49390 0.88030 0.35250 0.04300
H 	H 	0.48370 0.78790 0.34140 0.04300
Zn	Zn	0.76811 0.49028 0.29253 1.21100
O 	O 	0.64802 0.58122 0.21264 -0.32100
O 	O 	0.67737 0.46845 0.18604 -0.46100
O 	O 	0.52094 0.41561 0.17615 -0.46100
O 	O 	0.58721 0.33866 0.29325 -0.33200
C 	C 	0.58562 0.32208 0.16803 -0.12700
C 	C 	0.53766 0.43065 0.04626 0.03100
N 	N 	0.77664 0.45699 0.40269 -0.25400
C 	C 	0.56454 0.50629 0.08235 -0.07300
C 	C 	0.57301 0.35340 0.08968 0.08300
N 	N 	0.57965 0.52446 0.35100 -0.25600
N 	N 	0.75486 0.40541 0.48797 -0.10800
C 	C 	0.56368 0.36106 0.21706 0.36000
C 	C 	0.47405 0.42683 0.96450 -0.05000
H 	H 	0.45620 0.37690 0.93960 0.05900
C 	C 	0.63458 0.52047 0.16741 0.33000
N 	N 	0.67417 0.58877 0.43580 -0.11500
C 	C 	0.61771 0.24910 0.20134 0.05500
H 	H 	0.62680 0.22930 0.25390 0.03400
C 	C 	0.60670 0.51520 0.43950 0.00200
H 	H 	0.58800 0.48590 0.46020 0.03500
N 	N 	0.81699 0.40744 0.27442 -0.25600
C 	C 	0.75367 0.27160 0.53800 -0.09500
H 	H 	0.73340 0.23950 0.55750 0.06400
H 	H 	0.80060 0.27630 0.58880 0.07900
C 	C 	0.72300 0.35340 0.51360 -0.06000
H 	H 	0.67580 0.34950 0.46350 0.06600
H 	H 	0.72840 0.37630 0.56480 0.06500
C 	C 	0.62181 0.56950 0.35150 0.08600
H 	H 	0.61580 0.58570 0.29990 0.00300
C 	C 	0.73376 0.41538 0.40340 0.09000
H 	H 	0.69390 0.39540 0.35180 -0.00100
C 	C 	0.72188 0.72300 0.48630 -0.10000
H 	H 	0.68030 0.74610 0.43510 0.06000
H 	H 	0.72020 0.71890 0.53600 0.06300
C 	C 	0.87291 0.41740 0.28680 0.08900
H 	H 	0.89210 0.46670 0.29390 0.00100
C 	C 	0.81491 0.44290 0.54470 -0.00600
H 	H 	0.84160 0.44560 0.60750 0.05000
C 	C 	0.82807 0.47490 0.49250 0.00900
H 	H 	0.86570 0.50440 0.51330 0.02700
N 	N 	0.89848 0.34780 0.28790 -0.10400
C 	C 	0.72880 0.64050 0.46130 -0.05200
H 	H 	0.72990 0.64430 0.41110 0.05300
H 	H 	0.77050 0.61730 0.51230 0.05300
C 	C 	0.85570 0.28840 0.27200 -0.02100
H 	H 	0.85990 0.23390 0.26780 0.05600
C 	C 	0.80620 0.32650 0.26370 0.01700
H 	H 	0.76950 0.30130 0.25230 0.01700
C 	C 	0.66440 0.55460 0.49210 -0.00200
H 	H 	0.69240 0.55820 0.55490 0.03800
C 	C 	0.63665 0.20496 0.15953 -0.12400
O 	O 	0.68621 0.10199 0.26983 -0.33600
C 	C 	0.59102 0.30824 0.04706 -0.12400
H 	H 	0.58210 0.32760 0.99450 0.07200
C 	C 	0.62201 0.23487 0.08060 0.05100
H 	H 	0.63300 0.20560 0.05000 0.02300
C 	C 	0.67055 0.12541 0.19840 0.35800
O 	O 	0.68115 0.08680 0.15088 -0.46900
C 	C 	0.96350 0.34110 0.23490 0.01700
H 	H 	0.94040 0.38880 0.19990 0.03600
H 	H 	0.93930 0.29530 0.19640 0.03200
C 	C 	0.96480 0.33840 0.31070 -0.12000
H 	H 	0.99390 0.38030 0.35250 0.08100
H 	H 	0.98370 0.28790 0.34140 0.08000
Zn	Zn	0.73189 0.99028 0.20747 1.21000
O 	O 	0.85198 0.08122 0.28736 -0.32400
O 	O 	0.82263 0.96845 0.31396 -0.46900
O 	O 	0.97906 0.91561 0.32385 -0.43900
O 	O 	0.91279 0.83866 0.20675 -0.32000
C 	C 	0.91438 0.82208 0.33197 -0.10900
C 	C 	0.96234 0.93065 0.45374 0.11200
N 	N 	0.72336 0.95699 0.09731 -0.25600
C 	C 	0.93546 0.00629 0.41765 -0.12700
C 	C 	0.92699 0.85340 0.41032 0.05900
N 	N 	0.92035 0.02446 0.14900 -0.24600
N 	N 	0.74514 0.90541 0.01203 -0.10800
C 	C 	0.93632 0.86106 0.28294 0.35200
C 	C 	0.02595 0.92683 0.53550 -0.15100
H 	H 	0.04380 0.87690 0.56040 0.08400
C 	C 	0.86542 0.02047 0.33259 0.35300
N 	N 	0.82583 0.08877 0.06420 -0.11700
C 	C 	0.88229 0.74910 0.29866 0.04700
H 	H 	0.87320 0.72930 0.24610 0.03900
C 	C 	0.89330 0.01520 0.06050 0.00900
H 	H 	0.91200 0.98590 0.03980 0.03800
N 	N 	0.68301 0.90744 0.22558 -0.25800
C 	C 	0.74633 0.77160 0.96200 -0.08900
H 	H 	0.76660 0.73950 0.94250 0.06400
H 	H 	0.69940 0.77630 0.91120 0.07500
C 	C 	0.77700 0.85340 0.98640 -0.06700
H 	H 	0.82420 0.84950 0.03650 0.07000
H 	H 	0.77160 0.87630 0.93520 0.06800
C 	C 	0.87819 0.06950 0.14850 0.08900
H 	H 	0.88420 0.08570 0.20010 0.00700
C 	C 	0.76624 0.91538 0.09660 0.08800
H 	H 	0.80610 0.89540 0.14820 -0.00100
C 	C 	0.77812 0.22300 0.01370 -0.08500
H 	H 	0.81970 0.24610 0.06490 0.05900
H 	H 	0.77980 0.21890 0.96400 0.05600
C 	C 	0.62709 0.91740 0.21320 0.09000
H 	H 	0.60790 0.96670 0.20610 -0.00600
C 	C 	0.68509 0.94290 0.95530 -0.01000
H 	H 	0.65840 0.94560 0.89250 0.04700
C 	C 	0.67193 0.97490 0.00750 0.01100
H 	H 	0.63430 0.00440 0.98670 0.01600
N 	N 	0.60152 0.84780 0.21210 -0.11800
C 	C 	0.77120 0.14050 0.03870 -0.04500
H 	H 	0.77010 0.14430 0.08890 0.05200
H 	H 	0.72950 0.11730 0.98770 0.04500
C 	C 	0.64430 0.78840 0.22800 -0.01900
H 	H 	0.64010 0.73390 0.23220 0.05200
C 	C 	0.69380 0.82650 0.23630 0.01400
H 	H 	0.73050 0.80130 0.24770 0.01700
C 	C 	0.83560 0.05460 0.00790 0.00900
H 	H 	0.80760 0.05820 0.94510 0.03100
C 	C 	0.86335 0.70496 0.34047 -0.11500
O 	O 	0.81379 0.60199 0.23017 -0.33500
C 	C 	0.90898 0.80824 0.45294 -0.11100
H 	H 	0.91790 0.82760 0.50550 0.07800
C 	C 	0.87799 0.73487 0.41940 0.04600
H 	H 	0.86700 0.70560 0.45000 0.02800
C 	C 	0.82945 0.62541 0.30160 0.35700
O 	O 	0.81885 0.58680 0.34912 -0.46800
C 	C 	0.53650 0.84110 0.26510 -0.11300
H 	H 	0.55960 0.88880 0.30010 0.06400
H 	H 	0.56070 0.79530 0.30360 0.06100
C 	C 	0.53520 0.83840 0.18930 -0.03700
H 	H 	0.50610 0.88030 0.14750 0.04300
H 	H 	0.51630 0.78790 0.15860 0.04300
Zn	Zn	0.23189 0.49028 0.20747 1.21000
O 	O 	0.35198 0.58122 0.28736 -0.32000
O 	O 	0.32263 0.46845 0.31396 -0.46100
O 	O 	0.47906 0.41561 0.32385 -0.46200
O 	O 	0.41279 0.33866 0.20675 -0.33200
C 	C 	0.41438 0.32208 0.33197 -0.13200
C 	C 	0.46234 0.43065 0.45374 0.02200
N 	N 	0.22336 0.45699 0.09731 -0.25800
C 	C 	0.43546 0.50629 0.41765 -0.06800
C 	C 	0.42699 0.35340 0.41032 0.09100
N 	N 	0.42035 0.52446 0.14900 -0.25600
N 	N 	0.24514 0.40541 0.01203 -0.10000
C 	C 	0.43632 0.36106 0.28294 0.36100
C 	C 	0.52595 0.42683 0.53550 -0.04000
H 	H 	0.54380 0.37690 0.56040 0.05700
C 	C 	0.36542 0.52047 0.33259 0.32800
N 	N 	0.32583 0.58877 0.06420 -0.11700
C 	C 	0.38229 0.24910 0.29866 0.05900
H 	H 	0.37320 0.22930 0.24610 0.03200
C 	C 	0.39330 0.51520 0.06050 -0.00100
H 	H 	0.41200 0.48590 0.03980 0.03700
N 	N 	0.18301 0.40744 0.22558 -0.25900
C 	C 	0.24633 0.27160 0.96200 -0.08100
H 	H 	0.26660 0.23950 0.94250 0.05900
H 	H 	0.19940 0.27630 0.91120 0.07100
C 	C 	0.27700 0.35340 0.98640 -0.08200
H 	H 	0.32420 0.34950 0.03650 0.07500
H 	H 	0.27160 0.37630 0.93520 0.07100
C 	C 	0.37819 0.56950 0.14850 0.08600
H 	H 	0.38420 0.58570 0.20010 0.00300
C 	C 	0.26624 0.41538 0.09660 0.08700
H 	H 	0.30610 0.39540 0.14820 0.00000
C 	C 	0.27812 0.72300 0.01370 -0.10300
H 	H 	0.31970 0.74610 0.06490 0.06100
H 	H 	0.27980 0.71890 0.96400 0.06300
C 	C 	0.12709 0.41740 0.21320 0.09200
H 	H 	0.10790 0.46670 0.20610 -0.01100
C 	C 	0.18509 0.44290 0.95530 -0.02900
H 	H 	0.15840 0.44560 0.89250 0.04900
C 	C 	0.17193 0.47490 0.00750 0.02600
H 	H 	0.13430 0.50440 0.98670 0.00400
N 	N 	0.10152 0.34780 0.21210 -0.13100
C 	C 	0.27120 0.64050 0.03870 -0.04400
H 	H 	0.27010 0.64430 0.08890 0.05000
H 	H 	0.22950 0.61730 0.98770 0.04600
C 	C 	0.14430 0.28840 0.22800 -0.01600
H 	H 	0.14010 0.23390 0.23220 0.04800
C 	C 	0.19380 0.32650 0.23630 0.01100
H 	H 	0.23050 0.30130 0.24770 0.01800
C 	C 	0.33560 0.55460 0.00790 0.00500
H 	H 	0.30760 0.55820 0.94510 0.03400
C 	C 	0.36335 0.20496 0.34047 -0.12900
O 	O 	0.31379 0.10199 0.23017 -0.33700
C 	C 	0.40898 0.30824 0.45294 -0.13900
H 	H 	0.41790 0.32760 0.50550 0.08000
C 	C 	0.37799 0.23487 0.41940 0.05900
H 	H 	0.36700 0.20560 0.45000 0.01800
C 	C 	0.32945 0.12541 0.30160 0.36000
O 	O 	0.31885 0.08680 0.34912 -0.47100
C 	C 	0.03650 0.34110 0.26510 -0.24300
H 	H 	0.05960 0.38880 0.30010 0.09300
H 	H 	0.06070 0.29530 0.30360 0.09000
C 	C 	0.03520 0.33840 0.18930 0.04400
H 	H 	0.00610 0.38030 0.14750 0.00600
H 	H 	0.01630 0.28790 0.15860 0.00700
Zn	Zn	0.73189 0.00972 0.70747 1.21000
O 	O 	0.85198 0.91878 0.78736 -0.32400
O 	O 	0.82263 0.03155 0.81396 -0.46700
O 	O 	0.97906 0.08439 0.82385 -0.43900
O 	O 	0.91279 0.16134 0.70675 -0.32000
C 	C 	0.91438 0.17792 0.83197 -0.11500
C 	C 	0.96234 0.06935 0.95374 0.09700
N 	N 	0.72336 0.04301 0.59731 -0.25500
C 	C 	0.93546 0.99371 0.91765 -0.11900
C 	C 	0.92699 0.14660 0.91032 0.07100
N 	N 	0.92035 0.97554 0.64900 -0.24600
N 	N 	0.74514 0.09459 0.51203 -0.10700
C 	C 	0.93632 0.13894 0.78294 0.35400
C 	C 	0.02595 0.07317 0.03550 -0.13500
H 	H 	0.04380 0.12310 0.06040 0.08000
C 	C 	0.86542 0.97953 0.83259 0.34900
N 	N 	0.82583 0.91123 0.56420 -0.11600
C 	C 	0.88229 0.25090 0.79866 0.05300
H 	H 	0.87320 0.27070 0.74610 0.03700
C 	C 	0.89330 0.98480 0.56050 0.00300
H 	H 	0.91200 0.01410 0.53980 0.04400
N 	N 	0.68301 0.09256 0.72558 -0.25800
C 	C 	0.74633 0.22840 0.46200 -0.09000
H 	H 	0.76660 0.26050 0.44250 0.06400
H 	H 	0.69940 0.22370 0.41120 0.07600
C 	C 	0.77700 0.14660 0.48640 -0.06500
H 	H 	0.82420 0.15050 0.53650 0.07000
H 	H 	0.77160 0.12370 0.43520 0.06800
C 	C 	0.87819 0.93050 0.64850 0.08800
H 	H 	0.88420 0.91430 0.70010 0.00700
C 	C 	0.76624 0.08462 0.59660 0.08900
H 	H 	0.80610 0.10460 0.64820 -0.00100
C 	C 	0.77812 0.77700 0.51370 -0.10900
H 	H 	0.81970 0.75390 0.56490 0.06600
H 	H 	0.77980 0.78110 0.46400 0.06600
C 	C 	0.62709 0.08260 0.71320 0.09000
H 	H 	0.60790 0.03330 0.70610 -0.00500
C 	C 	0.68509 0.05710 0.45530 -0.01000
H 	H 	0.65840 0.05440 0.39250 0.04800
C 	C 	0.67193 0.02510 0.50750 0.01100
H 	H 	0.63430 0.99560 0.48670 0.01800
N 	N 	0.60152 0.15220 0.71210 -0.11800
C 	C 	0.77120 0.85950 0.53870 -0.04500
H 	H 	0.77010 0.85570 0.58890 0.05100
H 	H 	0.72950 0.88270 0.48770 0.04900
C 	C 	0.64430 0.21160 0.72800 -0.01900
H 	H 	0.64010 0.26610 0.73220 0.05200
C 	C 	0.69380 0.17350 0.73630 0.01400
H 	H 	0.73050 0.19870 0.74770 0.01700
C 	C 	0.83560 0.94540 0.50790 0.00100
H 	H 	0.80760 0.94180 0.44510 0.03700
C 	C 	0.86335 0.29504 0.84047 -0.12200
O 	O 	0.81379 0.39801 0.73017 -0.33600
C 	C 	0.90898 0.19176 0.95294 -0.13200
H 	H 	0.91790 0.17240 0.00550 0.08900
C 	C 	0.87799 0.26513 0.91940 0.05800
H 	H 	0.86700 0.29440 0.95000 0.02200
C 	C 	0.82945 0.37459 0.80160 0.36000
O 	O 	0.81885 0.41320 0.84912 -0.46900
C 	C 	0.53650 0.15890 0.76510 -0.11100
H 	H 	0.55960 0.11120 0.80010 0.06300
H 	H 	0.56070 0.20470 0.80360 0.06000
C 	C 	0.53520 0.16160 0.68930 -0.03800
H 	H 	0.50610 0.11970 0.64750 0.04300
H 	H 	0.51630 0.21210 0.65860 0.04300
Zn	Zn	0.23189 0.50972 0.70747 1.21000
O 	O 	0.35198 0.41878 0.78736 -0.32000
O 	O 	0.32263 0.53155 0.81396 -0.46000
O 	O 	0.47906 0.58439 0.82385 -0.46200
O 	O 	0.41279 0.66134 0.70675 -0.33200
C 	C 	0.41438 0.67792 0.83197 -0.13400
C 	C 	0.46234 0.56935 0.95374 0.01400
N 	N 	0.22336 0.54301 0.59731 -0.25600
C 	C 	0.43546 0.49371 0.91765 -0.06300
C 	C 	0.42699 0.64660 0.91032 0.09500
N 	N 	0.42035 0.47554 0.64900 -0.25700
N 	N 	0.24514 0.59459 0.51203 -0.10800
C 	C 	0.43632 0.63894 0.78294 0.36200
C 	C 	0.52595 0.57317 0.03550 -0.03200
H 	H 	0.54380 0.62310 0.06040 0.05400
C 	C 	0.36542 0.47953 0.83259 0.32600
N 	N 	0.32583 0.41123 0.56420 -0.11600
C 	C 	0.38229 0.75090 0.79866 0.06100
H 	H 	0.37320 0.77070 0.74610 0.03100
C 	C 	0.39330 0.48480 0.56050 0.00200
H 	H 	0.41200 0.51410 0.53980 0.03500
N 	N 	0.18301 0.59256 0.72558 -0.25900
C 	C 	0.24633 0.72840 0.46200 -0.09100
H 	H 	0.26660 0.76050 0.44250 0.06300
H 	H 	0.19940 0.72370 0.41120 0.07500
C 	C 	0.27700 0.64660 0.48640 -0.06400
H 	H 	0.32420 0.65050 0.53650 0.06700
H 	H 	0.27160 0.62370 0.43520 0.06600
C 	C 	0.37819 0.43050 0.64850 0.08600
H 	H 	0.38420 0.41430 0.70010 0.00300
C 	C 	0.26624 0.58462 0.59660 0.08800
H 	H 	0.30610 0.60460 0.64820 -0.00000
C 	C 	0.27812 0.27700 0.51370 -0.10800
H 	H 	0.31970 0.25390 0.56490 0.06300
H 	H 	0.27980 0.28110 0.46400 0.06500
C 	C 	0.12709 0.58260 0.71320 0.09200
H 	H 	0.10790 0.53330 0.70610 -0.01200
C 	C 	0.18509 0.55710 0.45530 -0.01200
H 	H 	0.15840 0.55440 0.39250 0.04400
C 	C 	0.17193 0.52510 0.50750 0.00800
H 	H 	0.13430 0.49560 0.48670 0.01200
N 	N 	0.10152 0.65220 0.71210 -0.13200
C 	C 	0.27120 0.35950 0.53870 -0.04600
H 	H 	0.27010 0.35570 0.58890 0.05100
H 	H 	0.22950 0.38270 0.48770 0.04900
C 	C 	0.14430 0.71160 0.72800 -0.01600
H 	H 	0.14010 0.76610 0.73220 0.04800
C 	C 	0.19380 0.67350 0.73630 0.01100
H 	H 	0.23050 0.69870 0.74770 0.01800
C 	C 	0.33560 0.44540 0.50790 -0.00100
H 	H 	0.30760 0.44180 0.44510 0.03800
C 	C 	0.36335 0.79504 0.84047 -0.13200
O 	O 	0.31379 0.89801 0.73017 -0.33800
C 	C 	0.40898 0.69176 0.95294 -0.14600
H 	H 	0.41790 0.67240 0.00550 0.08300
C 	C 	0.37799 0.76513 0.91940 0.06300
H 	H 	0.36700 0.79440 0.95000 0.01700
C 	C 	0.32945 0.87459 0.80160 0.36100
O 	O 	0.31885 0.91320 0.84912 -0.47100
C 	C 	0.03650 0.65890 0.76510 -0.24300
H 	H 	0.05960 0.61120 0.80010 0.09300
H 	H 	0.06070 0.70470 0.80360 0.09000
C 	C 	0.03520 0.66160 0.68930 0.04500
H 	H 	0.00610 0.61970 0.64750 0.00500
H 	H 	0.01630 0.71210 0.65860 0.00600
Zn	Zn	0.26811 0.00972 0.79253 1.21000
O 	O 	0.14802 0.91878 0.71264 -0.31600
O 	O 	0.17737 0.03155 0.68604 -0.45500
O 	O 	0.02094 0.08439 0.67615 -0.48100
O 	O 	0.08721 0.16134 0.79325 -0.34300
C 	C 	0.08562 0.17792 0.66803 -0.15500
C 	C 	0.03766 0.06935 0.54626 -0.07200
N 	N 	0.27664 0.04301 0.90269 -0.25300
C 	C 	0.06454 0.99371 0.58235 -0.00700
C 	C 	0.07301 0.14660 0.58968 0.12400
N 	N 	0.07965 0.97554 0.85100 -0.26400
N 	N 	0.25486 0.09459 0.98797 -0.11900
C 	C 	0.06368 0.13894 0.71706 0.37000
C 	C 	0.97405 0.07317 0.46450 0.07400
H 	H 	0.95620 0.12310 0.43960 0.02900
C 	C 	0.13458 0.97953 0.66741 0.30800
N 	N 	0.17417 0.91123 0.93580 -0.11500
C 	C 	0.11771 0.25090 0.70134 0.07200
H 	H 	0.12680 0.27070 0.75390 0.02500
C 	C 	0.10670 0.98480 0.93950 0.00900
H 	H 	0.08800 0.01410 0.96020 0.02100
N 	N 	0.31699 0.09256 0.77442 -0.25800
C 	C 	0.25367 0.22840 0.03800 -0.10700
H 	H 	0.23340 0.26050 0.05750 0.06800
H 	H 	0.30060 0.22370 0.08880 0.08100
C 	C 	0.22300 0.14660 0.01360 -0.03500
H 	H 	0.17580 0.15050 0.96350 0.05300
H 	H 	0.22840 0.12370 0.06480 0.05800
C 	C 	0.12181 0.93050 0.85150 0.08400
H 	H 	0.11580 0.91430 0.79990 0.00100
C 	C 	0.23376 0.08462 0.90340 0.09000
H 	H 	0.19390 0.10460 0.85180 -0.00100
C 	C 	0.22188 0.77700 0.98630 -0.10600
H 	H 	0.18030 0.75390 0.93510 0.05900
H 	H 	0.22020 0.78110 0.03600 0.06500
C 	C 	0.37291 0.08260 0.78680 0.09000
H 	H 	0.39210 0.03330 0.79390 -0.00600
C 	C 	0.31491 0.05710 0.04470 0.01500
H 	H 	0.34160 0.05440 0.10750 0.03900
C 	C 	0.32807 0.02510 0.99250 -0.01400
H 	H 	0.36570 0.99560 0.01330 0.02800
N 	N 	0.39848 0.15220 0.78790 -0.11800
C 	C 	0.22880 0.85950 0.96130 -0.05000
H 	H 	0.22990 0.85570 0.91110 0.05200
H 	H 	0.27050 0.88270 0.01230 0.05100
C 	C 	0.35570 0.21160 0.77200 -0.01900
H 	H 	0.35990 0.26610 0.76780 0.05200
C 	C 	0.30620 0.17350 0.76370 0.01400
H 	H 	0.26950 0.19870 0.75230 0.01800
C 	C 	0.16440 0.94540 0.99210 -0.00700
H 	H 	0.19240 0.94180 0.05490 0.04000
C 	C 	0.13665 0.29504 0.65953 -0.14400
O 	O 	0.18621 0.39801 0.76983 -0.34100
C 	C 	0.09102 0.19176 0.54706 -0.16900
H 	H 	0.08210 0.17240 0.49450 0.08200
C 	C 	0.12201 0.26513 0.58060 0.07400
H 	H 	0.13300 0.29440 0.55000 0.00900
C 	C 	0.17055 0.37459 0.69840 0.36300
O 	O 	0.18115 0.41320 0.65088 -0.47600
C 	C 	0.46350 0.15890 0.73490 -0.11500
H 	H 	0.44040 0.11120 0.69990 0.06500
H 	H 	0.43930 0.20470 0.69640 0.06100
C 	C 	0.46480 0.16160 0.81070 -0.03600
H 	H 	0.49390 0.11970 0.85250 0.04200
H 	H 	0.48370 0.21210 0.84140 0.04200
Zn	Zn	0.76811 0.50972 0.79253 1.21000
O 	O 	0.64802 0.41878 0.71264 -0.32100
O 	O 	0.67737 0.53155 0.68604 -0.46100
O 	O 	0.52094 0.58439 0.67615 -0.46200
O 	O 	0.58721 0.66134 0.79325 -0.33200
C 	C 	0.58562 0.67792 0.66803 -0.13100
C 	C 	0.53766 0.56935 0.54626 0.02200
N 	N 	0.77664 0.54301 0.90269 -0.25200
C 	C 	0.56454 0.49371 0.58235 -0.06800
C 	C 	0.57301 0.64660 0.58968 0.09100
N 	N 	0.57965 0.47554 0.85100 -0.25700
N 	N 	0.75486 0.59459 0.98797 -0.11300
C 	C 	0.56368 0.63894 0.71706 0.36100
C 	C 	0.47405 0.57317 0.46450 -0.04000
H 	H 	0.45620 0.62310 0.43960 0.05700
C 	C 	0.63458 0.47953 0.66741 0.32800
N 	N 	0.67417 0.41123 0.93580 -0.11500
C 	C 	0.61771 0.75090 0.70134 0.05900
H 	H 	0.62680 0.77070 0.75390 0.03200
C 	C 	0.60670 0.48480 0.93950 0.00700
H 	H 	0.58800 0.51410 0.96020 0.03200
N 	N 	0.81699 0.59256 0.77442 -0.25700
C 	C 	0.75367 0.72840 0.03800 -0.09800
H 	H 	0.73340 0.76050 0.05750 0.06500
H 	H 	0.80060 0.72370 0.08880 0.07900
C 	C 	0.72300 0.64660 0.01360 -0.05300
H 	H 	0.67580 0.65050 0.96350 0.06300
H 	H 	0.72840 0.62370 0.06480 0.06300
C 	C 	0.62181 0.43050 0.85150 0.08600
H 	H 	0.61580 0.41430 0.79990 0.00300
C 	C 	0.73376 0.58462 0.90340 0.09000
H 	H 	0.69390 0.60460 0.85180 -0.00100
C 	C 	0.72188 0.27700 0.98630 -0.12600
H 	H 	0.68030 0.25390 0.93510 0.06700
H 	H 	0.72020 0.28110 0.03600 0.07300
C 	C 	0.87291 0.58260 0.78680 0.08900
H 	H 	0.89210 0.53330 0.79390 0.00000
C 	C 	0.81491 0.55710 0.04470 0.00600
H 	H 	0.84160 0.55440 0.10750 0.04500
C 	C 	0.82807 0.52510 0.99250 -0.00600
H 	H 	0.86570 0.49560 0.01330 0.03300
N 	N 	0.89848 0.65220 0.78790 -0.10400
C 	C 	0.72880 0.35950 0.96130 -0.04800
H 	H 	0.72990 0.35570 0.91110 0.05200
H 	H 	0.77050 0.38270 0.01230 0.05400
C 	C 	0.85570 0.71160 0.77200 -0.02100
H 	H 	0.85990 0.76610 0.76780 0.05600
C 	C 	0.80620 0.67350 0.76370 0.01700
H 	H 	0.76950 0.69870 0.75230 0.01700
C 	C 	0.66440 0.44540 0.99210 -0.01000
H 	H 	0.69240 0.44180 0.05490 0.04300
C 	C 	0.63665 0.79504 0.65953 -0.12900
O 	O 	0.68621 0.89801 0.76983 -0.33700
C 	C 	0.59102 0.69176 0.54706 -0.13900
H 	H 	0.58210 0.67240 0.49450 0.08000
C 	C 	0.62201 0.76513 0.58060 0.06000
H 	H 	0.63300 0.79440 0.55000 0.01800
C 	C 	0.67055 0.87459 0.69840 0.36000
O 	O 	0.68115 0.91320 0.65088 -0.47100
C 	C 	0.96350 0.65890 0.73490 0.01700
H 	H 	0.94040 0.61120 0.69990 0.03500
H 	H 	0.93930 0.70470 0.69640 0.03200
C 	C 	0.96480 0.66160 0.81070 -0.11900
H 	H 	0.99390 0.61970 0.85250 0.08000
H 	H 	0.98370 0.71210 0.84140 0.08000
Zn	Zn	0.00000 0.96097 0.25000 1.20000
Zn	Zn	0.50000 0.46097 0.25000 1.21300
Zn	Zn	0.00000 0.03903 0.75000 1.20000
Zn	Zn	0.50000 0.53903 0.75000 1.21300
