data_crystal

_cell_length_a 9.95060
_cell_length_b 15.68230
_cell_length_c 21.50000
_cell_angle_alpha 100.07200
_cell_angle_beta  93.06000
_cell_angle_gamma 106.83400

_symmetry_space_group_name_	'P 1'
_symmetry_space_group_name_H-M	'P 1'

loop_
_symmetry_equiv_pos_as_xyz
  x,y,z

loop_
_atom_site_label
_atom_site_type_symbol
_atom_site_fract_x
_atom_site_fract_y
_atom_site_fract_z
_atom_site_charge
Cu	Cu	0.37635 0.79975 0.54398 0.91300
Cu	Cu	0.94938 0.08688 0.36590 0.92000
Cu	Cu	0.93454 0.09959 0.80276 0.88000
Cu	Cu	0.62365 0.20025 0.45602 0.91300
Cu	Cu	0.05062 0.91312 0.63410 0.92100
Cu	Cu	0.06546 0.90041 0.19724 0.88100
H 	H 	0.29750 0.32750 0.33420 0.03700
H 	H 	0.51340 0.44250 0.36400 0.07900
H 	H 	0.54750 0.37600 0.53230 0.08200
H 	H 	0.33000 0.26240 0.50490 0.03200
H 	H 	0.75110 0.49240 0.55050 0.06600
H 	H 	0.72240 0.51710 0.42810 0.05600
H 	H 	0.19790 0.68400 0.62060 -0.00800
H 	H 	0.97900 0.58160 0.61280 0.10400
H 	H 	0.91830 0.60360 0.43050 0.08400
H 	H 	0.15650 0.70980 0.44470 0.01300
H 	H 	0.29440 0.15160 0.93120 0.04500
H 	H 	0.49340 0.16350 0.01330 0.06700
H 	H 	0.26050 0.93620 0.05830 0.05600
H 	H 	0.08630 0.92100 0.98040 0.03200
H 	H 	0.59610 0.10820 0.09020 0.05100
H 	H 	0.42330 0.97540 0.13380 0.05400
H 	H 	0.93250 0.12440 0.24120 -0.01100
H 	H 	0.78360 0.11530 0.15640 0.11400
H 	H 	0.48360 0.95720 0.23940 0.10700
H 	H 	0.64690 0.98030 0.32350 0.01300
H 	H 	0.87980 0.07660 0.57230 0.03900
H 	H 	0.19800 0.11170 0.76120 0.00700
H 	H 	0.37850 0.20970 0.72070 0.08600
H 	H 	0.37490 0.35660 0.71900 0.01600
H 	H 	0.19090 0.40540 0.75770 0.07100
H 	H 	0.01050 0.30730 0.79820 -0.00300
H 	H 	0.70250 0.67250 0.66580 0.03700
H 	H 	0.48660 0.55750 0.63600 0.07900
H 	H 	0.45250 0.62400 0.46770 0.08200
H 	H 	0.67000 0.73760 0.49510 0.03200
H 	H 	0.24890 0.50760 0.44950 0.06600
H 	H 	0.27760 0.48290 0.57190 0.05600
H 	H 	0.80210 0.31600 0.37940 -0.00800
H 	H 	0.02100 0.41840 0.38720 0.10400
H 	H 	0.08170 0.39640 0.56950 0.08400
H 	H 	0.84350 0.29020 0.55530 0.01300
H 	H 	0.70560 0.84840 0.06880 0.04500
H 	H 	0.50660 0.83650 0.98670 0.06700
H 	H 	0.73950 0.06380 0.94170 0.05600
H 	H 	0.91370 0.07900 0.01960 0.03200
H 	H 	0.40390 0.89180 0.90980 0.05100
H 	H 	0.57670 0.02460 0.86620 0.05400
H 	H 	0.06750 0.87560 0.75880 -0.01100
H 	H 	0.21640 0.88470 0.84360 0.11400
H 	H 	0.51640 0.04280 0.76060 0.10700
H 	H 	0.35310 0.01970 0.67650 0.01300
H 	H 	0.12020 0.92340 0.42770 0.03900
H 	H 	0.80200 0.88830 0.23880 0.00700
H 	H 	0.62150 0.79030 0.27930 0.08600
H 	H 	0.62510 0.64340 0.28100 0.01600
H 	H 	0.80910 0.59460 0.24230 0.07100
H 	H 	0.98950 0.69270 0.20180 -0.00300
C 	C 	0.15360 0.21400 0.40180 0.29300
C 	C 	0.29170 0.28630 0.42050 -0.10000
C 	C 	0.34610 0.33790 0.37430 0.04300
C 	C 	0.47690 0.40530 0.39230 -0.13800
C 	C 	0.55210 0.41810 0.44950 0.10000
C 	C 	0.49790 0.36660 0.49260 -0.16700
C 	C 	0.36570 0.29890 0.47620 0.03800
C 	C 	0.78130 0.51670 0.51540 -0.09400
C 	C 	0.69270 0.48890 0.46170 -0.07400
C 	C 	0.14190 0.66670 0.58170 0.11700
C 	C 	0.00940 0.60630 0.57780 -0.19600
C 	C 	0.92310 0.58290 0.52280 0.13300
C 	C 	0.97400 0.61930 0.46930 -0.14400
C 	C 	0.11890 0.68310 0.47790 0.06800
C 	C 	0.05770 0.03800 0.89320 0.33400
C 	C 	0.17470 0.03110 0.94600 -0.06600
C 	C 	0.28900 0.10680 0.95510 0.00100
C 	C 	0.41000 0.11500 0.00700 -0.10700
C 	C 	0.39000 0.05100 0.04250 0.08500
C 	C 	0.27150 0.97960 0.03300 -0.12300
C 	C 	0.16700 0.97080 0.98570 0.02200
C 	C 	0.51150 0.06430 0.09240 -0.04900
C 	C 	0.50720 0.02180 0.13530 -0.10300
C 	C 	0.83780 0.09260 0.24140 0.13500
C 	C 	0.75250 0.08620 0.18940 -0.20800
C 	C 	0.61260 0.03210 0.18860 0.15500
C 	C 	0.57570 0.99360 0.23900 -0.19400
C 	C 	0.67390 0.00820 0.28950 0.11500
C 	C 	0.56030 0.86910 0.65730 0.25100
C 	C 	0.62380 0.92200 0.60900 0.02300
C 	C 	0.75220 0.99460 0.61730 -0.07300
C 	C 	0.83860 0.02910 0.68140 0.33200
C 	C 	0.79600 0.02900 0.56680 0.03200
C 	C 	0.77830 0.03480 0.44940 0.36600
C 	C 	0.72150 0.99690 0.50550 -0.07600
C 	C 	0.59350 0.92240 0.50120 0.02400
C 	C 	0.49390 0.87360 0.44350 0.25900
C 	C 	0.19700 0.17050 0.76050 0.06300
C 	C 	0.30500 0.22900 0.73620 -0.11700
C 	C 	0.30300 0.31700 0.73500 0.04400
C 	C 	0.19200 0.34650 0.75800 -0.11900
C 	C 	0.08400 0.28770 0.78270 0.06400
C 	C 	0.84640 0.78600 0.59820 0.29300
C 	C 	0.70830 0.71370 0.57950 -0.10000
C 	C 	0.65390 0.66210 0.62570 0.04300
C 	C 	0.52310 0.59470 0.60770 -0.13800
C 	C 	0.44790 0.58190 0.55050 0.10000
C 	C 	0.50210 0.63340 0.50740 -0.16700
C 	C 	0.63430 0.70110 0.52380 0.03800
C 	C 	0.21870 0.48330 0.48460 -0.09400
C 	C 	0.30730 0.51110 0.53830 -0.07400
C 	C 	0.85810 0.33330 0.41830 0.11700
C 	C 	0.99060 0.39370 0.42220 -0.19600
C 	C 	0.07690 0.41710 0.47720 0.13300
C 	C 	0.02600 0.38070 0.53070 -0.14400
C 	C 	0.88110 0.31690 0.52210 0.06800
C 	C 	0.94230 0.96200 0.10680 0.33400
C 	C 	0.82530 0.96890 0.05400 -0.06600
C 	C 	0.71100 0.89320 0.04490 0.00100
C 	C 	0.59000 0.88500 0.99300 -0.10700
C 	C 	0.61000 0.94900 0.95750 0.08500
C 	C 	0.72850 0.02040 0.96700 -0.12300
C 	C 	0.83300 0.02920 0.01430 0.02200
C 	C 	0.48850 0.93570 0.90760 -0.04900
C 	C 	0.49280 0.97820 0.86470 -0.10300
C 	C 	0.16220 0.90740 0.75860 0.13500
C 	C 	0.24750 0.91380 0.81060 -0.20800
C 	C 	0.38740 0.96790 0.81140 0.15500
C 	C 	0.42430 0.00640 0.76100 -0.19400
C 	C 	0.32610 0.99180 0.71050 0.11500
C 	C 	0.43970 0.13090 0.34270 0.25100
C 	C 	0.37620 0.07800 0.39100 0.02300
C 	C 	0.24780 0.00540 0.38270 -0.07300
C 	C 	0.16140 0.97090 0.31860 0.33200
C 	C 	0.20400 0.97100 0.43320 0.03200
C 	C 	0.22170 0.96520 0.55060 0.36600
C 	C 	0.27850 0.00310 0.49450 -0.07600
C 	C 	0.40650 0.07760 0.49880 0.02400
C 	C 	0.50610 0.12640 0.55650 0.25900
C 	C 	0.80300 0.82950 0.23950 0.06300
C 	C 	0.69500 0.77100 0.26380 -0.11700
C 	C 	0.69700 0.68300 0.26500 0.04400
C 	C 	0.80800 0.65350 0.24200 -0.11900
C 	C 	0.91600 0.71230 0.21730 0.06400
N 	N 	0.19370 0.70130 0.53410 -0.23100
N 	N 	0.80520 0.06000 0.29230 -0.24500
N 	N 	0.55530 0.89350 0.55200 -0.20100
N 	N 	0.08640 0.19980 0.78370 -0.21100
N 	N 	0.80630 0.29870 0.46590 -0.23100
N 	N 	0.19480 0.94000 0.70770 -0.24500
N 	N 	0.44470 0.10650 0.44800 -0.20100
N 	N 	0.91360 0.80020 0.21630 -0.21100
O 	O 	0.10750 0.15760 0.43680 -0.33700
O 	O 	0.08370 0.20520 0.34830 -0.34300
O 	O 	0.96770 0.94640 0.88110 -0.24700
O 	O 	0.06380 0.09700 0.86970 -0.45600
O 	O 	0.61850 0.88020 0.71230 -0.22600
O 	O 	0.43600 0.80840 0.63460 -0.34300
O 	O 	0.81290 0.08690 0.72180 -0.39400
O 	O 	0.94530 0.99990 0.68750 -0.37900
O 	O 	0.84870 0.99520 0.41670 -0.36400
O 	O 	0.75640 0.10550 0.44270 -0.40300
O 	O 	0.51500 0.89640 0.39140 -0.22400
O 	O 	0.38840 0.80650 0.45320 -0.34800
O 	O 	0.89250 0.84240 0.56320 -0.33700
O 	O 	0.91630 0.79480 0.65170 -0.34300
O 	O 	0.03230 0.05360 0.11890 -0.24700
O 	O 	0.93620 0.90300 0.13030 -0.45600
O 	O 	0.38150 0.11980 0.28770 -0.22600
O 	O 	0.56400 0.19160 0.36540 -0.34300
O 	O 	0.18710 0.91310 0.27820 -0.39400
O 	O 	0.05470 0.00010 0.31250 -0.37900
O 	O 	0.15130 0.00480 0.58330 -0.36400
O 	O 	0.24360 0.89450 0.55730 -0.40300
O 	O 	0.48500 0.10360 0.60860 -0.22400
O 	O 	0.61160 0.19350 0.54680 -0.34800
