data_crystal

_cell_length_a 16.26400
_cell_length_b 15.11000
_cell_length_c 14.37600
_cell_angle_alpha 90.00000
_cell_angle_beta  115.14800
_cell_angle_gamma 90.00000

_symmetry_space_group_name_	'P 1'
_symmetry_space_group_name_H-M	'P 1'

loop_
_symmetry_equiv_pos_as_xyz
  x,y,z

loop_
_atom_site_label
_atom_site_type_symbol
_atom_site_fract_x
_atom_site_fract_y
_atom_site_fract_z
_atom_site_charge
C 	C 	0.68610 0.40430 0.56720 0.46800
C 	C 	0.74330 0.32570 0.62370 -0.19700
C 	C 	0.70730 0.24140 0.60460 0.28400
C 	C 	0.75690 0.16910 0.66040 0.30700
C 	C 	0.84450 0.17960 0.73650 -0.21400
C 	C 	0.88000 0.26410 0.75570 0.35100
C 	C 	0.83060 0.33600 0.69910 0.33400
C 	C 	0.89800 0.10030 0.79370 0.54900
O 	O 	0.61160 0.40980 0.57740 -0.50400
O 	O 	0.71260 0.45360 0.51810 -0.22400
O 	O 	0.93370 0.10470 0.88920 -0.37300
O 	O 	0.90140 0.03700 0.73830 -0.51900
O 	O 	0.44000 0.44420 0.58960 -0.94400
H 	H 	0.39000 0.46900 0.57600 0.35300
F 	F 	0.62370 0.22700 0.53140 -0.36700
F 	F 	0.71710 0.08970 0.64100 -0.38900
F 	F 	0.96430 0.27780 0.82830 -0.20200
F 	F 	0.86800 0.41640 0.72300 -0.26300
C 	C 	0.18610 0.90430 0.56720 0.47400
C 	C 	0.24330 0.82570 0.62370 -0.20700
C 	C 	0.20730 0.74140 0.60460 0.27600
C 	C 	0.25690 0.66910 0.66040 0.30400
C 	C 	0.34450 0.67960 0.73650 -0.23800
C 	C 	0.38000 0.76410 0.75570 0.32800
C 	C 	0.33060 0.83600 0.69910 0.32000
C 	C 	0.39800 0.60030 0.79370 0.54800
O 	O 	0.11160 0.90980 0.57740 -0.53200
O 	O 	0.21260 0.95360 0.51810 -0.20400
O 	O 	0.43370 0.60470 0.88920 -0.46400
O 	O 	0.40140 0.53700 0.73830 -0.56200
O 	O 	0.94000 0.94420 0.58960 -0.70700
H 	H 	0.89000 0.96900 0.57600 0.38100
F 	F 	0.12370 0.72700 0.53140 -0.43000
F 	F 	0.21710 0.58970 0.64100 -0.39100
F 	F 	0.46430 0.77780 0.82830 -0.31200
F 	F 	0.36800 0.91640 0.72300 -0.29100
C 	C 	0.31390 0.40430 0.93280 0.46300
C 	C 	0.25670 0.32570 0.87630 -0.18700
C 	C 	0.29270 0.24140 0.89540 0.27600
C 	C 	0.24310 0.16910 0.83960 0.32900
C 	C 	0.15550 0.17960 0.76350 -0.28800
C 	C 	0.12000 0.26410 0.74430 0.31000
C 	C 	0.16940 0.33600 0.80090 0.28300
C 	C 	0.10200 0.10030 0.70630 0.56000
O 	O 	0.38840 0.40980 0.92260 -0.47500
O 	O 	0.28740 0.45360 0.98190 -0.20500
O 	O 	0.06630 0.10470 0.61080 -0.63800
O 	O 	0.09860 0.03700 0.76170 -0.69500
O 	O 	0.56000 0.44420 0.91040 -0.91200
H 	H 	0.61000 0.46900 0.92400 0.39000
F 	F 	0.37630 0.22700 0.96860 -0.32600
F 	F 	0.28290 0.08970 0.85900 -0.37900
F 	F 	0.03570 0.27780 0.67170 -0.46100
F 	F 	0.13200 0.41640 0.77700 -0.38300
C 	C 	0.81390 0.90430 0.93280 0.44000
C 	C 	0.75670 0.82570 0.87630 -0.14800
C 	C 	0.79270 0.74140 0.89540 0.28900
C 	C 	0.74310 0.66910 0.83960 0.34400
C 	C 	0.65550 0.67960 0.76350 -0.24300
C 	C 	0.62000 0.76410 0.74430 0.34400
C 	C 	0.66940 0.83600 0.80090 0.30800
C 	C 	0.60200 0.60030 0.70630 0.56200
O 	O 	0.88840 0.90980 0.92260 -0.30800
O 	O 	0.78740 0.95360 0.98190 -0.10700
O 	O 	0.56630 0.60470 0.61080 -0.50000
O 	O 	0.59860 0.53700 0.76170 -0.55000
O 	O 	0.06000 0.94420 0.91040 -0.98700
H 	H 	0.11000 0.96900 0.92400 0.46000
F 	F 	0.87630 0.72700 0.96860 -0.24100
F 	F 	0.78290 0.58970 0.85900 -0.30900
F 	F 	0.53570 0.77780 0.67170 -0.33100
F 	F 	0.63200 0.91640 0.77700 -0.28600
C 	C 	0.31390 0.59570 0.43280 0.46800
C 	C 	0.25670 0.67430 0.37630 -0.20900
C 	C 	0.29270 0.75860 0.39540 0.27700
C 	C 	0.24310 0.83090 0.33960 0.31800
C 	C 	0.15550 0.82040 0.26350 -0.27100
C 	C 	0.12000 0.73590 0.24430 0.29600
C 	C 	0.16940 0.66400 0.30090 0.28300
C 	C 	0.10200 0.89970 0.20630 0.55000
O 	O 	0.38840 0.59020 0.42260 -0.50800
O 	O 	0.28740 0.54640 0.48190 -0.27200
O 	O 	0.06630 0.89530 0.11080 -0.58500
O 	O 	0.09860 0.96300 0.26170 -0.56300
O 	O 	0.56000 0.55580 0.41040 -0.93300
H 	H 	0.61000 0.53100 0.42400 0.36400
F 	F 	0.37630 0.77300 0.46860 -0.34600
F 	F 	0.28290 0.91030 0.35900 -0.33000
F 	F 	0.03570 0.72220 0.17170 -0.47600
F 	F 	0.13200 0.58360 0.27700 -0.40200
C 	C 	0.81390 0.09570 0.43280 0.45200
C 	C 	0.75670 0.17430 0.37630 -0.19200
C 	C 	0.79270 0.25860 0.39540 0.28300
C 	C 	0.74310 0.33090 0.33960 0.32500
C 	C 	0.65550 0.32040 0.26350 -0.25700
C 	C 	0.62000 0.23590 0.24430 0.32300
C 	C 	0.66940 0.16400 0.30090 0.29300
C 	C 	0.60200 0.39970 0.20630 0.56800
O 	O 	0.88840 0.09020 0.42260 -0.43100
O 	O 	0.78740 0.04640 0.48190 -0.27800
O 	O 	0.56630 0.39530 0.11080 -0.54400
O 	O 	0.59860 0.46300 0.26170 -0.56400
O 	O 	0.06000 0.05580 0.41040 -1.10500
H 	H 	0.11000 0.03100 0.42400 0.32400
F 	F 	0.87630 0.27300 0.46860 -0.27900
F 	F 	0.78290 0.41030 0.35900 -0.33100
F 	F 	0.53570 0.22220 0.17170 -0.37300
F 	F 	0.63200 0.08360 0.27700 -0.37300
C 	C 	0.68610 0.59570 0.06720 0.47200
C 	C 	0.74330 0.67430 0.12370 -0.21700
C 	C 	0.70730 0.75860 0.10460 0.28400
C 	C 	0.75690 0.83090 0.16040 0.29800
C 	C 	0.84450 0.82040 0.23650 -0.20100
C 	C 	0.88000 0.73590 0.25570 0.33800
C 	C 	0.83060 0.66400 0.19910 0.33300
C 	C 	0.89800 0.89970 0.29370 0.54200
O 	O 	0.61160 0.59020 0.07740 -0.52800
O 	O 	0.71260 0.54640 0.01810 -0.28700
O 	O 	0.93370 0.89530 0.38920 -0.34000
O 	O 	0.90140 0.96300 0.23830 -0.39800
O 	O 	0.44000 0.55580 0.08960 -0.95600
H 	H 	0.39000 0.53100 0.07600 0.32600
F 	F 	0.62370 0.77300 0.03140 -0.38400
F 	F 	0.71710 0.91030 0.14100 -0.34000
F 	F 	0.96430 0.72220 0.32830 -0.22100
F 	F 	0.86800 0.58360 0.22300 -0.28100
C 	C 	0.18610 0.09570 0.06720 0.48700
C 	C 	0.24330 0.17430 0.12370 -0.25600
C 	C 	0.20730 0.25860 0.10460 0.26900
C 	C 	0.25690 0.33090 0.16040 0.28300
C 	C 	0.34450 0.32040 0.23650 -0.25400
C 	C 	0.38000 0.23590 0.25570 0.30600
C 	C 	0.33060 0.16400 0.19910 0.30500
C 	C 	0.39800 0.39970 0.29370 0.55500
O 	O 	0.11160 0.09020 0.07740 -0.66500
O 	O 	0.21260 0.04640 0.01810 -0.38800
O 	O 	0.43370 0.39530 0.38920 -0.51600
O 	O 	0.40140 0.46300 0.23830 -0.57800
O 	O 	0.94000 0.05580 0.08960 -0.80300
H 	H 	0.89000 0.03100 0.07600 0.24800
F 	F 	0.12370 0.27300 0.03140 -0.47400
F 	F 	0.21710 0.41030 0.14100 -0.41400
F 	F 	0.46430 0.22220 0.32830 -0.35200
F 	F 	0.36800 0.08360 0.22300 -0.38100
In	In	0.50000 0.50000 0.50000 2.02000
In	In	0.00000 0.00000 0.50000 1.90500
In	In	0.50000 0.50000 -0.00000 1.99300
In	In	-0.00000 0.00000 -0.00000 1.87900
In	In	0.50000 0.43551 0.75000 1.97400
In	In	0.00000 0.93551 0.75000 1.93100
In	In	0.50000 0.56449 0.25000 1.97500
In	In	0.00000 0.06449 0.25000 1.86700
