data_crystal

_cell_length_a 9.77920
_cell_length_b 11.33310
_cell_length_c 15.92400
_cell_angle_alpha 71.04200
_cell_angle_beta  85.29000
_cell_angle_gamma 70.90700

_symmetry_space_group_name_	'P 1'
_symmetry_space_group_name_H-M	'P 1'

loop_
_symmetry_equiv_pos_as_xyz
  x,y,z

loop_
_atom_site_label
_atom_site_type_symbol
_atom_site_fract_x
_atom_site_fract_y
_atom_site_fract_z
_atom_site_charge
La	La	0.46104 0.09449 0.91594 1.56000
La	La	0.90113 0.99316 0.93722 1.49300
H 	H 	0.70900 0.72800 0.45200 0.07100
H 	H 	0.54450 0.81610 0.57600 0.11000
H 	H 	0.52050 0.88980 0.69890 -0.01200
H 	H 	0.93310 0.86100 0.69700 -0.02600
H 	H 	0.96160 0.78440 0.57580 0.08700
H 	H 	0.66280 0.96710 0.39840 0.10700
H 	H 	0.76790 0.98130 0.31860 0.10400
H 	H 	0.67240 0.88970 0.33130 0.10700
H 	H 	0.97400 0.58000 0.53500 0.00800
H 	H 	0.66300 0.51770 0.50840 0.08200
H 	H 	0.55200 0.38360 0.62110 0.02100
H 	H 	0.84030 0.34670 0.80120 -0.01800
H 	H 	0.94640 0.48010 0.69090 0.06000
H 	H 	0.99530 0.35750 0.47820 0.02300
H 	H 	0.07590 0.43270 0.40100 0.06200
H 	H 	0.08920 0.43460 0.49800 0.06200
H 	H 	0.39400 0.55400 0.36600 0.05800
H 	H 	0.64960 0.60960 0.33880 0.12300
H 	H 	0.78400 0.71020 0.23740 -0.02800
H 	H 	0.53400 0.73160 0.04440 0.00600
H 	H 	0.41560 0.60730 0.14660 0.13500
H 	H 	0.20890 0.71740 0.26950 0.14900
H 	H 	0.13460 0.66560 0.21170 0.16400
H 	H 	0.10600 0.63470 0.31370 0.16200
H 	H 	0.44600 0.33000 0.38900 0.04000
H 	H 	0.76490 0.32630 0.26210 0.08700
H 	H 	0.82540 0.24590 0.14360 0.00800
H 	H 	0.42880 0.20700 0.15580 0.00300
H 	H 	0.38420 0.27130 0.27810 0.10700
H 	H 	0.73360 0.16730 0.43400 0.09000
H 	H 	0.77490 0.22790 0.50000 0.09400
H 	H 	0.62480 0.20390 0.50650 0.09700
H 	H 	0.04900 0.14700 0.39700 0.07000
H 	H 	0.97240 0.03760 0.57280 0.04500
H 	H 	0.96650 0.06860 0.71020 -0.04900
H 	H 	0.34380 0.14510 0.66160 0.00900
H 	H 	0.34970 0.11400 0.52420 0.09700
H 	H 	0.02530 0.32140 0.32530 0.14200
H 	H 	0.15730 0.31520 0.26200 0.14200
H 	H 	0.06600 0.22080 0.27190 0.14200
H 	H 	0.08700 0.94200 0.45600 0.03500
H 	H 	0.40520 0.95620 0.31110 0.08900
H 	H 	0.41720 0.95770 0.16490 0.00500
H 	H 	0.99430 0.98620 0.17010 -0.04000
H 	H 	0.99030 0.00770 0.30950 0.04500
H 	H 	0.24620 0.73170 0.48440 0.10500
H 	H 	0.39570 0.72080 0.43820 0.09900
H 	H 	0.38710 0.69240 0.54130 0.10100
C 	C 	0.77340 0.74050 0.48750 -0.06300
C 	C 	0.75980 0.78830 0.56400 0.14000
C 	C 	0.62430 0.82270 0.59990 -0.20900
C 	C 	0.61080 0.86800 0.67370 0.13000
C 	C 	0.72120 0.88090 0.70880 -0.21500
C 	C 	0.85510 0.85100 0.67350 0.11400
C 	C 	0.87080 0.80490 0.60060 -0.20200
C 	C 	0.70300 0.93730 0.78650 0.44300
C 	C 	0.72600 0.92180 0.36150 -0.24700
C 	C 	0.87820 0.59700 0.51260 0.04900
C 	C 	0.81360 0.50790 0.58690 0.05900
C 	C 	0.69920 0.48350 0.56660 -0.13000
C 	C 	0.63050 0.40360 0.63500 0.05500
C 	C 	0.68470 0.35700 0.72280 -0.16600
C 	C 	0.80300 0.38170 0.74320 0.07200
C 	C 	0.86830 0.45960 0.67690 -0.13700
C 	C 	0.61290 0.27080 0.79240 0.41600
C 	C 	0.02600 0.43420 0.45530 -0.04400
C 	C 	0.43440 0.51430 0.32060 -0.04500
C 	C 	0.51730 0.59460 0.25250 0.16500
C 	C 	0.62910 0.63090 0.27870 -0.24200
C 	C 	0.70540 0.69500 0.21870 0.18400
C 	C 	0.66960 0.73870 0.13010 -0.26300
C 	C 	0.55930 0.70450 0.10430 0.17500
C 	C 	0.48680 0.63140 0.16570 -0.23400
C 	C 	0.74180 0.82040 0.06270 0.52600
C 	C 	0.17690 0.64610 0.26900 -0.34800
C 	C 	0.51660 0.36910 0.35670 0.01100
C 	C 	0.56940 0.30420 0.28240 0.11200
C 	C 	0.69950 0.29760 0.24140 -0.16500
C 	C 	0.73660 0.24960 0.17040 0.08500
C 	C 	0.63570 0.20620 0.13940 -0.16800
C 	C 	0.50120 0.22470 0.17920 0.10800
C 	C 	0.47250 0.26730 0.25060 -0.18600
C 	C 	0.67200 0.15260 0.06500 0.40000
C 	C 	0.69700 0.22860 0.46660 -0.21000
C 	C 	0.12980 0.08230 0.43480 -0.02800
C 	C 	0.16160 0.07270 0.53490 0.10500
C 	C 	0.04680 0.05910 0.59060 -0.12100
C 	C 	0.04330 0.07770 0.67290 0.14700
C 	C 	0.15460 0.10990 0.69950 -0.19500
C 	C 	0.26930 0.12350 0.64380 0.09700
C 	C 	0.27290 0.10490 0.56150 -0.16000
C 	C 	0.15030 0.12180 0.79080 0.41600
C 	C 	0.10400 0.26400 0.30250 -0.32700
C 	C 	0.18020 0.94400 0.43340 0.02500
C 	C 	0.19980 0.95490 0.33190 0.08400
C 	C 	0.32420 0.95760 0.28360 -0.14800
C 	C 	0.33080 0.96230 0.19490 0.08400
C 	C 	0.20570 0.97400 0.15130 -0.19200
C 	C 	0.07770 0.98220 0.19660 0.14800
C 	C 	0.07910 0.98400 0.28300 -0.12400
C 	C 	0.21190 0.96350 0.05840 0.44600
C 	C 	0.33800 0.74530 0.48520 -0.22500
O 	O 	0.57490 0.97360 0.81260 -0.44700
O 	O 	0.81000 0.94370 0.81510 -0.48400
O 	O 	0.83770 0.81480 0.41470 -0.13600
O 	O 	0.48750 0.28740 0.78170 -0.43300
O 	O 	0.68940 0.18640 0.85710 -0.52100
O 	O 	0.89250 0.55860 0.43700 -0.20400
O 	O 	0.87470 0.81100 0.07490 -0.39900
O 	O 	0.67810 0.89950 0.98910 -0.62900
O 	O 	0.29960 0.52580 0.28710 -0.12000
O 	O 	0.79530 0.12500 0.03760 -0.37300
O 	O 	0.56390 0.13450 0.03300 -0.38200
O 	O 	0.63600 0.35420 0.40780 -0.15400
O 	O 	0.03870 0.11640 0.83450 -0.44800
O 	O 	0.25700 0.14290 0.81670 -0.44700
O 	O 	0.20090 0.16460 0.37700 -0.12900
O 	O 	0.32290 0.97220 0.01430 -0.40100
O 	O 	0.11110 0.94600 0.03130 -0.38200
O 	O 	0.31580 0.87620 0.47360 -0.14600
