data_crystal

_cell_length_a 32.46100
_cell_length_b 18.02400
_cell_length_c 19.74800
_cell_angle_alpha 90.00000
_cell_angle_beta  119.96400
_cell_angle_gamma 90.00000

_symmetry_space_group_name_	'P 1'
_symmetry_space_group_name_H-M	'P 1'

loop_
_symmetry_equiv_pos_as_xyz
  x,y,z

loop_
_atom_site_label
_atom_site_type_symbol
_atom_site_fract_x
_atom_site_fract_y
_atom_site_fract_z
_atom_site_charge
O 	O 	0.26200 0.12960 0.99960 -0.38400
O 	O 	0.18750 0.19660 0.99700 -0.37000
O 	O 	0.04540 0.07470 0.09650 -0.38300
Cu	Cu	0.22008 0.21122 0.93834 0.90500
O 	O 	0.05330 0.07080 0.98900 -0.37400
O 	O 	0.23820 0.26230 0.10080 -0.37700
O 	O 	0.31410 0.19400 0.10630 -0.38700
C 	C 	0.06720 0.09990 0.06140 0.31000
C 	C 	0.10600 0.14350 0.09870 -0.07200
C 	C 	0.13000 0.16520 0.06180 0.01600
H 	H 	0.11930 0.15040 0.00940 0.05700
C 	C 	0.17090 0.21010 0.10230 -0.06000
C 	C 	0.19760 0.22700 0.06640 0.30300
C 	C 	0.19170 0.22460 0.18080 -0.06100
H 	H 	0.22070 0.25080 0.20970 0.08600
C 	C 	0.16550 0.19660 0.21400 0.12000
C 	C 	0.12430 0.15920 0.17910 -0.05800
H 	H 	0.10840 0.14430 0.20640 0.09000
C 	C 	0.22320 0.30580 0.40790 -0.04600
C 	C 	0.23820 0.24680 0.45990 0.03100
C 	C 	0.22350 0.17680 0.43230 -0.05700
C 	C 	0.23890 0.37590 0.43680 -0.02200
H 	H 	0.23150 0.41680 0.40220 0.06000
C 	C 	0.23300 0.11310 0.47930 -0.02700
H 	H 	0.22160 0.06550 0.45720 0.05600
C 	C 	0.19470 0.28550 0.32010 0.22900
C 	C 	0.36260 0.06510 0.18590 -0.08500
H 	H 	0.37890 0.10930 0.21130 0.10200
C 	C 	0.32280 0.06550 0.10650 -0.02600
O 	O 	0.18180 0.34010 0.27720 -0.21300
O 	O 	0.18160 0.09670 0.31800 -0.22800
C 	C 	0.19730 0.15380 0.34660 0.23500
N 	N 	0.18590 0.21710 0.29960 -0.19100
C 	C 	0.30100 0.13650 0.06830 0.32800
C 	C 	0.43790 0.02500 0.43660 -0.01800
C 	C 	0.49210 0.02170 0.40290 -0.13200
C 	C 	0.53930 0.04730 0.42970 0.02800
H 	H 	0.54690 0.06080 0.39060 0.04500
C 	C 	0.42300 0.05500 0.48990 -0.06200
H 	H 	0.39280 0.07650 0.47400 0.07300
O 	O 	0.35580 0.94690 0.32890 -0.13000
C 	C 	0.40570 0.96970 0.36000 0.11400
C 	C 	0.45830 0.02100 0.31880 -0.00100
O 	O 	0.47140 0.05340 0.27430 -0.13500
O 	O 	0.76200 0.62960 0.99960 -0.38100
O 	O 	0.68750 0.69660 0.99700 -0.36700
O 	O 	0.54540 0.57470 0.09650 -0.37700
Cu	Cu	0.72008 0.71122 0.93834 0.90700
O 	O 	0.55330 0.57080 0.98900 -0.36700
O 	O 	0.73820 0.76230 0.10080 -0.37400
O 	O 	0.81410 0.69400 0.10630 -0.38500
C 	C 	0.56720 0.59990 0.06140 0.31100
C 	C 	0.60600 0.64350 0.09870 -0.06700
C 	C 	0.63000 0.66520 0.06180 0.01600
H 	H 	0.61930 0.65040 0.00940 0.06000
C 	C 	0.67090 0.71010 0.10230 -0.05600
C 	C 	0.69760 0.72700 0.06640 0.30400
C 	C 	0.69170 0.72460 0.18080 -0.06100
H 	H 	0.72070 0.75080 0.20970 0.08700
C 	C 	0.66550 0.69660 0.21400 0.12200
C 	C 	0.62430 0.65920 0.17910 -0.05800
H 	H 	0.60840 0.64430 0.20640 0.09300
C 	C 	0.72320 0.80580 0.40790 -0.04500
C 	C 	0.73820 0.74680 0.45990 0.03200
C 	C 	0.72350 0.67680 0.43230 -0.05500
C 	C 	0.73890 0.87590 0.43680 -0.02100
H 	H 	0.73150 0.91680 0.40220 0.06500
C 	C 	0.73300 0.61310 0.47930 -0.02700
H 	H 	0.72160 0.56550 0.45720 0.06100
C 	C 	0.69470 0.78550 0.32010 0.22900
C 	C 	0.86260 0.56510 0.18590 -0.09400
H 	H 	0.87890 0.60930 0.21130 0.10300
C 	C 	0.82280 0.56550 0.10650 -0.02800
O 	O 	0.68180 0.84010 0.27720 -0.20900
O 	O 	0.68160 0.59670 0.31800 -0.22200
C 	C 	0.69730 0.65380 0.34660 0.23500
N 	N 	0.68590 0.71710 0.29960 -0.19100
C 	C 	0.80100 0.63650 0.06830 0.33000
C 	C 	0.93790 0.52500 0.43660 -0.01700
C 	C 	0.99210 0.52170 0.40290 -0.01500
C 	C 	0.03930 0.54730 0.42970 -0.02700
H 	H 	0.04690 0.56080 0.39060 0.06600
C 	C 	0.92300 0.55500 0.48990 -0.03300
H 	H 	0.89280 0.57650 0.47400 0.06600
O 	O 	0.85580 0.44690 0.32890 -0.13700
C 	C 	0.90570 0.46970 0.36000 0.10200
C 	C 	0.95830 0.52100 0.31880 0.11100
O 	O 	0.97140 0.55340 0.27430 -0.15700
O 	O 	0.73800 0.12960 0.00040 -0.38300
O 	O 	0.81250 0.19660 0.00300 -0.36900
O 	O 	0.95460 0.07470 0.90350 -0.38200
Cu	Cu	0.77992 0.21122 0.06166 0.90600
O 	O 	0.94670 0.07080 0.01100 -0.37300
O 	O 	0.76180 0.26230 0.89920 -0.37600
O 	O 	0.68590 0.19400 0.89370 -0.38600
C 	C 	0.93280 0.09990 0.93860 0.31100
C 	C 	0.89400 0.14350 0.90130 -0.07100
C 	C 	0.87000 0.16520 0.93820 0.01700
H 	H 	0.88070 0.15040 0.99060 0.05800
C 	C 	0.82910 0.21010 0.89770 -0.05900
C 	C 	0.80240 0.22700 0.93360 0.30400
C 	C 	0.80830 0.22460 0.81920 -0.06000
H 	H 	0.77930 0.25080 0.79030 0.08600
C 	C 	0.83450 0.19660 0.78600 0.12000
C 	C 	0.87570 0.15920 0.82090 -0.05800
H 	H 	0.89160 0.14430 0.79360 0.09000
C 	C 	0.77680 0.30580 0.59210 -0.04600
C 	C 	0.76180 0.24680 0.54010 0.03100
C 	C 	0.77650 0.17680 0.56770 -0.05700
C 	C 	0.76110 0.37590 0.56320 -0.02200
H 	H 	0.76850 0.41680 0.59780 0.06000
C 	C 	0.76700 0.11310 0.52070 -0.02700
H 	H 	0.77840 0.06550 0.54280 0.05600
C 	C 	0.80530 0.28550 0.67990 0.22900
C 	C 	0.63740 0.06510 0.81410 -0.08500
H 	H 	0.62110 0.10930 0.78870 0.10200
C 	C 	0.67720 0.06550 0.89350 -0.02600
O 	O 	0.81820 0.34010 0.72280 -0.21300
O 	O 	0.81840 0.09670 0.68200 -0.22800
C 	C 	0.80270 0.15380 0.65340 0.23500
N 	N 	0.81410 0.21710 0.70040 -0.19100
C 	C 	0.69900 0.13650 0.93170 0.32800
C 	C 	0.56210 0.02500 0.56340 -0.01800
C 	C 	0.50790 0.02170 0.59710 -0.13200
C 	C 	0.46070 0.04730 0.57030 0.02800
H 	H 	0.45310 0.06080 0.60940 0.04500
C 	C 	0.57700 0.05500 0.51010 -0.06200
H 	H 	0.60720 0.07650 0.52600 0.07300
O 	O 	0.64420 0.94690 0.67110 -0.13000
C 	C 	0.59430 0.96970 0.64000 0.11400
C 	C 	0.54170 0.02100 0.68120 -0.00100
O 	O 	0.52860 0.05340 0.72570 -0.13500
O 	O 	0.23800 0.62960 0.00040 -0.38100
O 	O 	0.31250 0.69660 0.00300 -0.36700
O 	O 	0.45460 0.57470 0.90350 -0.37700
Cu	Cu	0.27992 0.71122 0.06166 0.90700
O 	O 	0.44670 0.57080 0.01100 -0.36700
O 	O 	0.26180 0.76230 0.89920 -0.37400
O 	O 	0.18590 0.69400 0.89370 -0.38500
C 	C 	0.43280 0.59990 0.93860 0.31100
C 	C 	0.39400 0.64350 0.90130 -0.06700
C 	C 	0.37000 0.66520 0.93820 0.01600
H 	H 	0.38070 0.65040 0.99060 0.06000
C 	C 	0.32910 0.71010 0.89770 -0.05600
C 	C 	0.30240 0.72700 0.93360 0.30400
C 	C 	0.30830 0.72460 0.81920 -0.06100
H 	H 	0.27930 0.75080 0.79030 0.08700
C 	C 	0.33450 0.69660 0.78600 0.12200
C 	C 	0.37570 0.65920 0.82090 -0.05800
H 	H 	0.39160 0.64430 0.79360 0.09300
C 	C 	0.27680 0.80580 0.59210 -0.04500
C 	C 	0.26180 0.74680 0.54010 0.03200
C 	C 	0.27650 0.67680 0.56770 -0.05500
C 	C 	0.26110 0.87590 0.56320 -0.02100
H 	H 	0.26850 0.91680 0.59780 0.06500
C 	C 	0.26700 0.61310 0.52070 -0.02700
H 	H 	0.27840 0.56550 0.54280 0.06100
C 	C 	0.30530 0.78550 0.67990 0.22900
C 	C 	0.13740 0.56510 0.81410 -0.09400
H 	H 	0.12110 0.60930 0.78870 0.10300
C 	C 	0.17720 0.56550 0.89350 -0.02800
O 	O 	0.31820 0.84010 0.72280 -0.20900
O 	O 	0.31840 0.59670 0.68200 -0.22200
C 	C 	0.30270 0.65380 0.65340 0.23500
N 	N 	0.31410 0.71710 0.70040 -0.19100
C 	C 	0.19900 0.63650 0.93170 0.33000
C 	C 	0.06210 0.52500 0.56340 -0.01700
C 	C 	0.00790 0.52170 0.59710 -0.01500
C 	C 	0.96070 0.54730 0.57030 -0.02700
H 	H 	0.95310 0.56080 0.60940 0.06600
C 	C 	0.07700 0.55500 0.51010 -0.03300
H 	H 	0.10720 0.57650 0.52600 0.06600
O 	O 	0.14420 0.44690 0.67110 -0.13700
C 	C 	0.09430 0.46970 0.64000 0.10200
C 	C 	0.04170 0.52100 0.68120 0.11100
O 	O 	0.02860 0.55340 0.72570 -0.15700
O 	O 	0.73800 0.87040 0.00040 -0.37500
O 	O 	0.81250 0.80340 0.00300 -0.36600
O 	O 	0.95460 0.92530 0.90350 -0.36800
Cu	Cu	0.77992 0.78878 0.06166 0.90800
O 	O 	0.94670 0.92920 0.01100 -0.35800
O 	O 	0.76180 0.73770 0.89920 -0.37500
O 	O 	0.68590 0.80600 0.89370 -0.38500
C 	C 	0.93280 0.90010 0.93860 0.30900
C 	C 	0.89400 0.85650 0.90130 -0.06400
C 	C 	0.87000 0.83480 0.93820 0.01500
H 	H 	0.88070 0.84960 0.99060 0.06300
C 	C 	0.82910 0.78990 0.89770 -0.05600
C 	C 	0.80240 0.77300 0.93360 0.30300
C 	C 	0.80830 0.77540 0.81920 -0.06100
H 	H 	0.77930 0.74920 0.79030 0.08700
C 	C 	0.83450 0.80340 0.78600 0.12300
C 	C 	0.87570 0.84080 0.82090 -0.05900
H 	H 	0.89160 0.85570 0.79360 0.09500
C 	C 	0.77680 0.69420 0.59210 -0.04500
C 	C 	0.76180 0.75320 0.54010 0.03100
C 	C 	0.77650 0.82320 0.56770 -0.05300
C 	C 	0.76110 0.62410 0.56320 -0.02200
H 	H 	0.76850 0.58320 0.59780 0.06000
C 	C 	0.76700 0.88690 0.52070 -0.02600
H 	H 	0.77840 0.93450 0.54280 0.06700
C 	C 	0.80530 0.71450 0.67990 0.23000
C 	C 	0.63740 0.93490 0.81410 -0.06700
H 	H 	0.62110 0.89070 0.78870 0.09400
C 	C 	0.67720 0.93450 0.89350 -0.00900
O 	O 	0.81820 0.65990 0.72280 -0.21200
O 	O 	0.81840 0.90330 0.68200 -0.21600
C 	C 	0.80270 0.84620 0.65340 0.23400
N 	N 	0.81410 0.78290 0.70040 -0.19100
C 	C 	0.69900 0.86350 0.93170 0.32600
C 	C 	0.56210 0.97500 0.56340 -0.00800
C 	C 	0.50790 0.97830 0.59710 0.11000
C 	C 	0.46070 0.95270 0.57030 -0.08400
H 	H 	0.45310 0.93920 0.60940 0.08700
C 	C 	0.57700 0.94500 0.51010 -0.00500
H 	H 	0.60720 0.92350 0.52600 0.05800
O 	O 	0.64420 0.05310 0.67110 -0.14000
C 	C 	0.59430 0.03030 0.64000 0.09100
C 	C 	0.54170 0.97900 0.68120 0.22700
O 	O 	0.52860 0.94660 0.72570 -0.17900
O 	O 	0.23800 0.37040 0.00040 -0.38100
O 	O 	0.31250 0.30340 0.00300 -0.36800
O 	O 	0.45460 0.42530 0.90350 -0.37700
Cu	Cu	0.27992 0.28878 0.06166 0.90700
O 	O 	0.44670 0.42920 0.01100 -0.36800
O 	O 	0.26180 0.23770 0.89920 -0.37700
O 	O 	0.18590 0.30600 0.89370 -0.38700
C 	C 	0.43280 0.40010 0.93860 0.31100
C 	C 	0.39400 0.35650 0.90130 -0.06900
C 	C 	0.37000 0.33480 0.93820 0.01700
H 	H 	0.38070 0.34960 0.99060 0.06000
C 	C 	0.32910 0.28990 0.89770 -0.05900
C 	C 	0.30240 0.27300 0.93360 0.30300
C 	C 	0.30830 0.27540 0.81920 -0.06000
H 	H 	0.27930 0.24920 0.79030 0.08500
C 	C 	0.33450 0.30340 0.78600 0.12100
C 	C 	0.37570 0.34080 0.82090 -0.05800
H 	H 	0.39160 0.35570 0.79360 0.09200
C 	C 	0.27680 0.19420 0.59210 -0.04700
C 	C 	0.26180 0.25320 0.54010 0.03100
C 	C 	0.27650 0.32320 0.56770 -0.05500
C 	C 	0.26110 0.12410 0.56320 -0.02400
H 	H 	0.26850 0.08320 0.59780 0.05600
C 	C 	0.26700 0.38690 0.52070 -0.02700
H 	H 	0.27840 0.43450 0.54280 0.06100
C 	C 	0.30530 0.21450 0.67990 0.23000
C 	C 	0.13740 0.43490 0.81410 -0.09300
H 	H 	0.12110 0.39070 0.78870 0.10200
C 	C 	0.17720 0.43450 0.89350 -0.02900
O 	O 	0.31820 0.15990 0.72280 -0.21600
O 	O 	0.31840 0.40330 0.68200 -0.22200
C 	C 	0.30270 0.34620 0.65340 0.23400
N 	N 	0.31410 0.28290 0.70040 -0.19100
C 	C 	0.19900 0.36350 0.93170 0.33000
C 	C 	0.06210 0.47500 0.56340 -0.02200
C 	C 	0.00790 0.47830 0.59710 -0.01700
C 	C 	0.96070 0.45270 0.57030 -0.02800
H 	H 	0.95310 0.43920 0.60940 0.06600
C 	C 	0.07700 0.44500 0.51010 -0.03100
H 	H 	0.10720 0.42350 0.52600 0.06500
O 	O 	0.14420 0.55310 0.67110 -0.13600
C 	C 	0.09430 0.53030 0.64000 0.10000
C 	C 	0.04170 0.47900 0.68120 0.11100
O 	O 	0.02860 0.44660 0.72570 -0.15700
O 	O 	0.26200 0.87040 0.99960 -0.37500
O 	O 	0.18750 0.80340 0.99700 -0.36600
O 	O 	0.04540 0.92530 0.09650 -0.36800
Cu	Cu	0.22008 0.78878 0.93834 0.90800
O 	O 	0.05330 0.92920 0.98900 -0.35800
O 	O 	0.23820 0.73770 0.10080 -0.37500
O 	O 	0.31410 0.80600 0.10630 -0.38500
C 	C 	0.06720 0.90010 0.06140 0.30900
C 	C 	0.10600 0.85650 0.09870 -0.06400
C 	C 	0.13000 0.83480 0.06180 0.01500
H 	H 	0.11930 0.84960 0.00940 0.06300
C 	C 	0.17090 0.78990 0.10230 -0.05600
C 	C 	0.19760 0.77300 0.06640 0.30300
C 	C 	0.19170 0.77540 0.18080 -0.06100
H 	H 	0.22070 0.74920 0.20970 0.08700
C 	C 	0.16550 0.80340 0.21400 0.12300
C 	C 	0.12430 0.84080 0.17910 -0.05900
H 	H 	0.10840 0.85570 0.20640 0.09500
C 	C 	0.22320 0.69420 0.40790 -0.04500
C 	C 	0.23820 0.75320 0.45990 0.03100
C 	C 	0.22350 0.82320 0.43230 -0.05300
C 	C 	0.23890 0.62410 0.43680 -0.02200
H 	H 	0.23150 0.58320 0.40220 0.06000
C 	C 	0.23300 0.88690 0.47930 -0.02600
H 	H 	0.22160 0.93450 0.45720 0.06700
C 	C 	0.19470 0.71450 0.32010 0.23000
C 	C 	0.36260 0.93490 0.18590 -0.06700
H 	H 	0.37890 0.89070 0.21130 0.09400
C 	C 	0.32280 0.93450 0.10650 -0.00900
O 	O 	0.18180 0.65990 0.27720 -0.21200
O 	O 	0.18160 0.90330 0.31800 -0.21600
C 	C 	0.19730 0.84620 0.34660 0.23400
N 	N 	0.18590 0.78290 0.29960 -0.19100
C 	C 	0.30100 0.86350 0.06830 0.32600
C 	C 	0.43790 0.97500 0.43660 -0.00800
C 	C 	0.49210 0.97830 0.40290 0.11000
C 	C 	0.53930 0.95270 0.42970 -0.08400
H 	H 	0.54690 0.93920 0.39060 0.08700
C 	C 	0.42300 0.94500 0.48990 -0.00500
H 	H 	0.39280 0.92350 0.47400 0.05800
O 	O 	0.35580 0.05310 0.32890 -0.14000
C 	C 	0.40570 0.03030 0.36000 0.09100
C 	C 	0.45830 0.97900 0.31880 0.22700
O 	O 	0.47140 0.94660 0.27430 -0.17900
O 	O 	0.76200 0.37040 0.99960 -0.38100
O 	O 	0.68750 0.30340 0.99700 -0.36800
O 	O 	0.54540 0.42530 0.09650 -0.37700
Cu	Cu	0.72008 0.28878 0.93834 0.90700
O 	O 	0.55330 0.42920 0.98900 -0.36800
O 	O 	0.73820 0.23770 0.10080 -0.37700
O 	O 	0.81410 0.30600 0.10630 -0.38700
C 	C 	0.56720 0.40010 0.06140 0.31100
C 	C 	0.60600 0.35650 0.09870 -0.06900
C 	C 	0.63000 0.33480 0.06180 0.01700
H 	H 	0.61930 0.34960 0.00940 0.06000
C 	C 	0.67090 0.28990 0.10230 -0.05900
C 	C 	0.69760 0.27300 0.06640 0.30300
C 	C 	0.69170 0.27540 0.18080 -0.06000
H 	H 	0.72070 0.24920 0.20970 0.08500
C 	C 	0.66550 0.30340 0.21400 0.12100
C 	C 	0.62430 0.34080 0.17910 -0.05800
H 	H 	0.60840 0.35570 0.20640 0.09200
C 	C 	0.72320 0.19420 0.40790 -0.04700
C 	C 	0.73820 0.25320 0.45990 0.03100
C 	C 	0.72350 0.32320 0.43230 -0.05500
C 	C 	0.73890 0.12410 0.43680 -0.02400
H 	H 	0.73150 0.08320 0.40220 0.05600
C 	C 	0.73300 0.38690 0.47930 -0.02700
H 	H 	0.72160 0.43450 0.45720 0.06100
C 	C 	0.69470 0.21450 0.32010 0.23000
C 	C 	0.86260 0.43490 0.18590 -0.09300
H 	H 	0.87890 0.39070 0.21130 0.10200
C 	C 	0.82280 0.43450 0.10650 -0.02900
O 	O 	0.68180 0.15990 0.27720 -0.21600
O 	O 	0.68160 0.40330 0.31800 -0.22200
C 	C 	0.69730 0.34620 0.34660 0.23400
N 	N 	0.68590 0.28290 0.29960 -0.19100
C 	C 	0.80100 0.36350 0.06830 0.33000
C 	C 	0.93790 0.47500 0.43660 -0.02200
C 	C 	0.99210 0.47830 0.40290 -0.01700
C 	C 	0.03930 0.45270 0.42970 -0.02800
H 	H 	0.04690 0.43920 0.39060 0.06600
C 	C 	0.92300 0.44500 0.48990 -0.03100
H 	H 	0.89280 0.42350 0.47400 0.06500
O 	O 	0.85580 0.55310 0.32890 -0.13600
C 	C 	0.90570 0.53030 0.36000 0.10000
C 	C 	0.95830 0.47900 0.31880 0.11100
O 	O 	0.97140 0.44660 0.27430 -0.15700
Cu	Cu	0.99600 0.00000 0.06329 0.90700
C 	C 	0.30340 -0.00000 0.07170 -0.03700
H 	H 	0.27560 -0.00000 0.02160 0.07500
C 	C 	0.37480 -0.00000 0.22120 0.13400
C 	C 	0.48200 0.00000 0.45920 0.00700
N 	N 	0.41490 0.00000 0.30450 -0.18100
Cu	Cu	0.49600 0.50000 0.06329 0.91500
C 	C 	0.80340 0.50000 0.07170 -0.00900
H 	H 	0.77560 0.50000 0.02160 0.07200
C 	C 	0.87480 0.50000 0.22120 0.16300
C 	C 	0.98200 0.50000 0.45920 0.02700
N 	N 	0.91490 0.50000 0.30450 -0.17500
Cu	Cu	0.00400 0.00000 0.93671 0.90700
C 	C 	0.69660 -0.00000 0.92830 -0.03700
H 	H 	0.72440 0.00000 0.97840 0.07500
C 	C 	0.62520 -0.00000 0.77880 0.13400
C 	C 	0.51800 -0.00000 0.54080 0.00700
N 	N 	0.58510 0.00000 0.69550 -0.18100
Cu	Cu	0.50400 0.50000 0.93671 0.91500
C 	C 	0.19660 0.50000 0.92830 -0.00900
H 	H 	0.22440 0.50000 0.97840 0.07200
C 	C 	0.12520 0.50000 0.77880 0.16300
C 	C 	0.01800 0.50000 0.54080 0.02700
N 	N 	0.08510 0.50000 0.69550 -0.17500
