data_crystal

_cell_length_a 10.30360
_cell_length_b 15.22480
_cell_length_c 20.40690
_cell_angle_alpha 68.09740
_cell_angle_beta  75.37720
_cell_angle_gamma 90.00000

_symmetry_space_group_name_	'P 1'
_symmetry_space_group_name_H-M	'P 1'

loop_
_symmetry_equiv_pos_as_xyz
  x,y,z

loop_
_atom_site_label
_atom_site_type_symbol
_atom_site_fract_x
_atom_site_fract_y
_atom_site_fract_z
_atom_site_charge
Cu	Cu	0.61855 0.52527 0.94946 0.91000
Cu	Cu	0.06801 0.97473 0.05054 0.90500
Cu	Cu	0.93199 0.02527 0.94946 0.90500
Cu	Cu	0.38145 0.47473 0.05054 0.91000
H 	H 	0.48430 0.75670 0.78240 0.09000
H 	H 	0.24110 0.82260 0.56460 0.06000
H 	H 	0.76670 0.74330 0.21760 0.09000
H 	H 	0.30570 0.67740 0.43540 0.06000
H 	H 	0.23330 0.96090 0.78240 0.09000
H 	H 	0.69430 0.11280 0.56460 0.05900
H 	H 	0.51570 0.53910 0.21760 0.08900
H 	H 	0.75890 0.38720 0.43540 0.06000
H 	H 	0.51570 0.24330 0.21760 0.09000
H 	H 	0.75890 0.17740 0.43540 0.06000
H 	H 	0.23330 0.25670 0.78240 0.09000
H 	H 	0.69430 0.32260 0.56460 0.06000
H 	H 	0.76670 0.03910 0.21760 0.09000
H 	H 	0.30570 0.88720 0.43540 0.05900
H 	H 	0.48430 0.46090 0.78240 0.08900
H 	H 	0.24110 0.61280 0.56460 0.06000
H 	H 	0.26250 0.76250 0.97500 0.06500
H 	H 	0.73750 0.73750 0.02500 0.06400
H 	H 	0.73750 0.23750 0.02500 0.06500
H 	H 	0.26250 0.26250 0.97500 0.06400
C 	C 	0.42840 0.65415 0.92620 0.34600
C 	C 	0.37712 0.74471 0.88536 -0.03600
C 	C 	0.41908 0.78433 0.80864 -0.07800
C 	C 	0.33192 0.86662 0.65796 0.22300
C 	C 	0.37471 0.90731 0.57618 -0.05500
C 	C 	0.31180 0.87310 0.53860 -0.02200
C 	C 	0.85460 0.84585 0.07380 0.34600
C 	C 	0.76248 0.75529 0.11464 -0.03700
C 	C 	0.72772 0.71567 0.19136 -0.07800
C 	C 	0.48988 0.63338 0.34204 0.22200
C 	C 	0.45089 0.59269 0.42382 -0.05500
C 	C 	0.35040 0.62690 0.46140 -0.02100
C 	C 	0.14540 0.91965 0.92620 0.34500
C 	C 	0.23752 0.86993 0.88536 -0.03600
C 	C 	0.27228 0.90703 0.80864 -0.07800
C 	C 	0.51012 0.97542 0.65796 0.22600
C 	C 	0.54911 0.01651 0.57618 -0.05700
C 	C 	0.64960 0.08830 0.53860 -0.02000
C 	C 	0.57160 0.58035 0.07380 0.34600
C 	C 	0.62288 0.63007 0.11464 -0.03700
C 	C 	0.58092 0.59297 0.19136 -0.07800
C 	C 	0.66808 0.52458 0.34204 0.22200
C 	C 	0.62529 0.48349 0.42382 -0.05400
C 	C 	0.68820 0.41170 0.46140 -0.02200
C 	C 	0.57160 0.34585 0.07380 0.34600
C 	C 	0.62288 0.25529 0.11464 -0.03600
C 	C 	0.58092 0.21567 0.19136 -0.07800
C 	C 	0.66808 0.13338 0.34204 0.22300
C 	C 	0.62529 0.09269 0.42382 -0.05500
C 	C 	0.68820 0.12690 0.46140 -0.02200
C 	C 	0.14540 0.15415 0.92620 0.34600
C 	C 	0.23752 0.24471 0.88536 -0.03700
C 	C 	0.27228 0.28433 0.80864 -0.07800
C 	C 	0.51012 0.36662 0.65796 0.22200
C 	C 	0.54911 0.40731 0.57618 -0.05500
C 	C 	0.64960 0.37310 0.53860 -0.02100
C 	C 	0.85460 0.08035 0.07380 0.34500
C 	C 	0.76248 0.13007 0.11464 -0.03600
C 	C 	0.72772 0.09297 0.19136 -0.07800
C 	C 	0.48988 0.02458 0.34204 0.22600
C 	C 	0.45089 0.98349 0.42382 -0.05700
C 	C 	0.35040 0.91170 0.46140 -0.02000
C 	C 	0.42840 0.41965 0.92620 0.34600
C 	C 	0.37712 0.36993 0.88536 -0.03700
C 	C 	0.41908 0.40703 0.80864 -0.07800
C 	C 	0.33192 0.47542 0.65796 0.22200
C 	C 	0.37471 0.51651 0.57618 -0.05400
C 	C 	0.31180 0.58830 0.53860 -0.02200
C 	C 	0.28857 0.78857 0.92286 -0.00400
C 	C 	0.36400 0.86400 0.77200 0.13800
C 	C 	0.48059 0.98059 0.53882 0.03300
C 	C 	0.71143 0.71143 0.07714 -0.00400
C 	C 	0.63600 0.63600 0.22800 0.13800
C 	C 	0.51941 0.51941 0.46118 0.03200
C 	C 	0.71143 0.21143 0.07714 -0.00400
C 	C 	0.63600 0.13600 0.22800 0.13800
C 	C 	0.51941 0.01941 0.46118 0.03300
C 	C 	0.28857 0.28857 0.92286 -0.00400
C 	C 	0.36400 0.36400 0.77200 0.13800
C 	C 	0.48059 0.48059 0.53882 0.03200
N 	N 	0.40390 0.90390 0.69220 -0.18500
N 	N 	0.59610 0.59610 0.30780 -0.18400
N 	N 	0.59610 0.09610 0.30780 -0.18500
N 	N 	0.40390 0.40390 0.69220 -0.18400
O 	O 	0.54465 0.64012 0.89750 -0.39300
O 	O 	0.34779 0.59967 0.98520 -0.39800
O 	O 	0.24221 0.80381 0.69358 -0.21400
O 	O 	0.94215 0.85988 0.10250 -0.39100
O 	O 	0.83299 0.90033 0.01480 -0.39800
O 	O 	0.43579 0.69619 0.30642 -0.21500
O 	O 	0.05785 0.96238 0.89750 -0.39000
O 	O 	0.16701 0.91513 0.98520 -0.39600
O 	O 	0.56421 0.00261 0.69358 -0.21700
O 	O 	0.45535 0.53762 0.10250 -0.39300
O 	O 	0.65221 0.58487 0.01480 -0.39900
O 	O 	0.75779 0.49739 0.30642 -0.21400
O 	O 	0.45535 0.35988 0.10250 -0.39300
O 	O 	0.65221 0.40033 0.01480 -0.39800
O 	O 	0.75779 0.19619 0.30642 -0.21400
O 	O 	0.05785 0.14012 0.89750 -0.39100
O 	O 	0.16701 0.09967 0.98520 -0.39800
O 	O 	0.56421 0.30381 0.69358 -0.21500
O 	O 	0.94215 0.03762 0.10250 -0.39000
O 	O 	0.83299 0.08487 0.01480 -0.39600
O 	O 	0.43579 0.99739 0.30642 -0.21700
O 	O 	0.54465 0.46238 0.89750 -0.39300
O 	O 	0.34779 0.41513 0.98520 -0.39900
O 	O 	0.24221 0.50261 0.69358 -0.21400
