data_crystal

_cell_length_a 18.11480
_cell_length_b 18.11480
_cell_length_c 24.39700
_cell_angle_alpha 74.54220
_cell_angle_beta  74.54220
_cell_angle_gamma 106.38400

_symmetry_space_group_name_	'P 1'
_symmetry_space_group_name_H-M	'P 1'

loop_
_symmetry_equiv_pos_as_xyz
  x,y,z

loop_
_atom_site_label
_atom_site_type_symbol
_atom_site_fract_x
_atom_site_fract_y
_atom_site_fract_z
_atom_site_charge
Cu	Cu	0.55266 0.99526 0.95382 0.90200
Cu	Cu	0.49352 0.55092 0.95382 0.90400
Cu	Cu	0.50474 0.94734 0.54618 0.90400
Cu	Cu	0.94908 0.00648 0.54618 0.90400
Cu	Cu	0.44734 0.00474 0.04618 0.90200
Cu	Cu	0.50648 0.44908 0.04618 0.90400
Cu	Cu	0.49526 0.05266 0.45382 0.90500
Cu	Cu	0.05092 0.99352 0.45382 0.90500
H 	H 	0.77170 0.57110 0.00520 0.04200
H 	H 	0.87720 0.81220 0.83640 0.06200
H 	H 	0.91200 0.65080 0.96380 0.06300
H 	H 	0.73580 0.73060 0.87660 0.04200
H 	H 	0.99640 0.81060 0.77720 0.09200
H 	H 	0.05010 0.91450 0.68360 0.03800
H 	H 	0.22310 0.92370 0.00520 0.04800
H 	H 	0.28640 0.85140 0.83640 0.06000
H 	H 	0.12420 0.88540 0.96380 0.05900
H 	H 	0.38760 0.89280 0.87660 0.04400
H 	H 	0.22640 0.91220 0.77720 0.09100
H 	H 	0.26630 0.90190 0.68360 0.03800
H 	H 	0.92890 0.72830 0.49480 0.04100
H 	H 	0.68780 0.62280 0.66360 0.06200
H 	H 	0.84920 0.58800 0.53620 0.06300
H 	H 	0.76940 0.76420 0.62340 0.04200
H 	H 	0.68940 0.50360 0.72280 0.09000
H 	H 	0.58550 0.44990 0.81640 0.03800
H 	H 	0.57630 0.27690 0.49480 0.04100
H 	H 	0.64860 0.21360 0.66360 0.06200
H 	H 	0.61460 0.37580 0.53620 0.06300
H 	H 	0.60720 0.11240 0.62340 0.04200
H 	H 	0.58780 0.27360 0.72280 0.09100
H 	H 	0.59810 0.23370 0.81640 0.03900
H 	H 	0.22830 0.42890 0.99480 0.04200
H 	H 	0.12280 0.18780 0.16360 0.06200
H 	H 	0.08800 0.34920 0.03620 0.06300
H 	H 	0.26420 0.26940 0.12340 0.04200
H 	H 	0.00360 0.18940 0.22280 0.09200
H 	H 	0.94990 0.08550 0.31640 0.03800
H 	H 	0.77690 0.07630 0.99480 0.04800
H 	H 	0.71360 0.14860 0.16360 0.06000
H 	H 	0.87580 0.11460 0.03620 0.05900
H 	H 	0.61240 0.10720 0.12340 0.04400
H 	H 	0.77360 0.08780 0.22280 0.09100
H 	H 	0.73370 0.09810 0.31640 0.03800
H 	H 	0.07110 0.27170 0.50520 0.04100
H 	H 	0.31220 0.37720 0.33640 0.06200
H 	H 	0.15080 0.41200 0.46380 0.06300
H 	H 	0.23060 0.23580 0.37660 0.04200
H 	H 	0.31060 0.49640 0.27720 0.09000
H 	H 	0.41450 0.55010 0.18360 0.03800
H 	H 	0.42370 0.72310 0.50520 0.04100
H 	H 	0.35140 0.78640 0.33640 0.06200
H 	H 	0.38540 0.62420 0.46380 0.06300
H 	H 	0.39280 0.88760 0.37660 0.04200
H 	H 	0.41220 0.72640 0.27720 0.09100
H 	H 	0.40190 0.76630 0.18360 0.03900
H 	H 	0.03290 0.78290 0.93420 0.08500
H 	H 	0.23770 0.98770 0.52460 0.04200
H 	H 	0.71710 0.46710 0.56580 0.08500
H 	H 	0.51230 0.26230 0.97540 0.04300
H 	H 	0.96710 0.21710 0.06580 0.08500
H 	H 	0.76230 0.01230 0.47540 0.04200
H 	H 	0.28290 0.53290 0.43420 0.08500
H 	H 	0.48770 0.73770 0.02460 0.04300
C 	C 	0.74275 0.64255 0.94190 -0.07800
C 	C 	0.79355 0.61875 0.97010 0.01700
C 	C 	0.85626 0.76226 0.86948 -0.08700
C 	C 	0.90877 0.73697 0.89406 0.02300
C 	C 	0.87693 0.66633 0.94554 -0.08800
C 	C 	0.77149 0.71389 0.89362 0.01500
C 	C 	0.00197 0.78997 0.86026 0.08400
C 	C 	0.03193 0.82053 0.79794 -0.16300
C 	C 	0.10420 0.92080 0.66360 0.02000
C 	C 	0.13476 0.94936 0.60068 -0.11000
C 	C 	0.64863 0.58783 0.96474 0.34700
C 	C 	0.08115 0.96535 0.56630 0.37100
C 	C 	0.31535 0.91555 0.94190 -0.07200
C 	C 	0.23635 0.91115 0.97010 0.00500
C 	C 	0.27426 0.86826 0.86948 -0.08200
C 	C 	0.19717 0.86897 0.89406 0.01700
C 	C 	0.17753 0.88813 0.94554 -0.07900
C 	C 	0.33489 0.89249 0.89362 0.00900
C 	C 	0.13777 0.84977 0.86026 0.08600
C 	C 	0.17013 0.88153 0.79794 -0.16200
C 	C 	0.23220 0.91560 0.66360 0.02000
C 	C 	0.26456 0.94996 0.60068 -0.11000
C 	C 	0.38663 0.94743 0.96474 0.34000
C 	C 	0.35255 0.96835 0.56630 0.37100
C 	C 	0.85745 0.75725 0.55810 -0.07800
C 	C 	0.88125 0.70645 0.52990 0.01800
C 	C 	0.73774 0.64374 0.63052 -0.08700
C 	C 	0.76303 0.59123 0.60594 0.02300
C 	C 	0.83367 0.62307 0.55446 -0.08800
C 	C 	0.78611 0.72851 0.60638 0.01500
C 	C 	0.71003 0.49803 0.63974 0.08400
C 	C 	0.67947 0.46807 0.70206 -0.16000
C 	C 	0.57920 0.39580 0.83640 0.02000
C 	C 	0.55064 0.36524 0.89932 -0.10900
C 	C 	0.91217 0.85137 0.53526 0.34700
C 	C 	0.53465 0.41885 0.93370 0.37100
C 	C 	0.58445 0.18465 0.55810 -0.07900
C 	C 	0.58885 0.26365 0.52990 0.01800
C 	C 	0.63174 0.22574 0.63052 -0.08700
C 	C 	0.63103 0.30283 0.60594 0.02300
C 	C 	0.61187 0.32247 0.55446 -0.08800
C 	C 	0.60751 0.16511 0.60638 0.01600
C 	C 	0.65023 0.36223 0.63974 0.08400
C 	C 	0.61847 0.32987 0.70206 -0.16000
C 	C 	0.58440 0.26780 0.83640 0.01900
C 	C 	0.55004 0.23544 0.89932 -0.10900
C 	C 	0.55257 0.11337 0.53526 0.34700
C 	C 	0.53165 0.14745 0.93370 0.37100
C 	C 	0.25725 0.35745 0.05810 -0.07800
C 	C 	0.20645 0.38125 0.02990 0.01700
C 	C 	0.14374 0.23774 0.13052 -0.08700
C 	C 	0.09123 0.26303 0.10594 0.02300
C 	C 	0.12307 0.33367 0.05446 -0.08800
C 	C 	0.22851 0.28611 0.10638 0.01500
C 	C 	0.99803 0.21003 0.13974 0.08400
C 	C 	0.96807 0.17947 0.20206 -0.16300
C 	C 	0.89580 0.07920 0.33640 0.02000
C 	C 	0.86524 0.05064 0.39932 -0.11000
C 	C 	0.35137 0.41217 0.03526 0.34700
C 	C 	0.91885 0.03465 0.43370 0.37100
C 	C 	0.68465 0.08445 0.05810 -0.07200
C 	C 	0.76365 0.08885 0.02990 0.00500
C 	C 	0.72574 0.13174 0.13052 -0.08200
C 	C 	0.80283 0.13103 0.10594 0.01700
C 	C 	0.82247 0.11187 0.05446 -0.07900
C 	C 	0.66511 0.10751 0.10638 0.00900
C 	C 	0.86223 0.15023 0.13974 0.08600
C 	C 	0.82987 0.11847 0.20206 -0.16200
C 	C 	0.76780 0.08440 0.33640 0.02000
C 	C 	0.73544 0.05004 0.39932 -0.11000
C 	C 	0.61337 0.05257 0.03526 0.34000
C 	C 	0.64745 0.03165 0.43370 0.37100
C 	C 	0.14255 0.24275 0.44190 -0.07800
C 	C 	0.11875 0.29355 0.47010 0.01800
C 	C 	0.26226 0.35626 0.36948 -0.08700
C 	C 	0.23697 0.40877 0.39406 0.02300
C 	C 	0.16633 0.37693 0.44554 -0.08800
C 	C 	0.21389 0.27149 0.39362 0.01500
C 	C 	0.28997 0.50197 0.36026 0.08400
C 	C 	0.32053 0.53193 0.29794 -0.16000
C 	C 	0.42080 0.60420 0.16360 0.02000
C 	C 	0.44936 0.63476 0.10068 -0.10900
C 	C 	0.08783 0.14863 0.46474 0.34700
C 	C 	0.46535 0.58115 0.06630 0.37100
C 	C 	0.41555 0.81535 0.44190 -0.07900
C 	C 	0.41115 0.73635 0.47010 0.01800
C 	C 	0.36826 0.77426 0.36948 -0.08700
C 	C 	0.36897 0.69717 0.39406 0.02300
C 	C 	0.38813 0.67753 0.44554 -0.08800
C 	C 	0.39249 0.83489 0.39362 0.01600
C 	C 	0.34977 0.63777 0.36026 0.08400
C 	C 	0.38153 0.67013 0.29794 -0.16000
C 	C 	0.41560 0.73220 0.16360 0.01900
C 	C 	0.44996 0.76456 0.10068 -0.10900
C 	C 	0.44743 0.88663 0.46474 0.34700
C 	C 	0.46835 0.85255 0.06630 0.37100
C 	C 	0.05415 0.80415 0.89170 -0.15400
C 	C 	0.11750 0.86750 0.76500 0.10700
C 	C 	0.15010 0.90010 0.69980 -0.05700
C 	C 	0.21646 0.96646 0.56708 0.05200
C 	C 	0.69585 0.44585 0.60830 -0.15200
C 	C 	0.63250 0.38250 0.73500 0.10600
C 	C 	0.59990 0.34990 0.80020 -0.05500
C 	C 	0.53354 0.28354 0.93292 0.05100
C 	C 	0.94585 0.19585 0.10830 -0.15400
C 	C 	0.88250 0.13250 0.23500 0.10700
C 	C 	0.84990 0.09990 0.30020 -0.05700
C 	C 	0.78354 0.03354 0.43292 0.05200
C 	C 	0.30415 0.55415 0.39170 -0.15200
C 	C 	0.36750 0.61750 0.26500 0.10600
C 	C 	0.40010 0.65010 0.19980 -0.05500
C 	C 	0.46646 0.71646 0.06708 0.05100
O 	O 	0.61023 0.61151 0.93364 -0.41500
O 	O 	0.01819 0.97741 0.59168 -0.40700
O 	O 	0.62251 0.52409 0.01370 -0.39800
O 	O 	0.10413 0.96869 0.51190 -0.41500
O 	O 	0.45613 0.95485 0.93364 -0.41400
O 	O 	0.39013 0.93091 0.59168 -0.40700
O 	O 	0.36379 0.96221 0.01370 -0.39400
O 	O 	0.38397 0.01941 0.51190 -0.41400
O 	O 	0.88849 0.88977 0.56636 -0.41400
O 	O 	0.52259 0.48181 0.90832 -0.40600
O 	O 	0.97591 0.87749 0.48630 -0.39800
O 	O 	0.53131 0.39587 0.98810 -0.41400
O 	O 	0.54515 0.04387 0.56636 -0.41400
O 	O 	0.56909 0.10987 0.90832 -0.40500
O 	O 	0.53779 0.13621 0.48630 -0.39800
O 	O 	0.48059 0.11603 0.98810 -0.41300
O 	O 	0.38977 0.38849 0.06636 -0.41500
O 	O 	0.98181 0.02259 0.40832 -0.40700
O 	O 	0.37749 0.47591 0.98630 -0.39800
O 	O 	0.89587 0.03131 0.48810 -0.41500
O 	O 	0.54387 0.04515 0.06636 -0.41400
O 	O 	0.60987 0.06909 0.40832 -0.40700
O 	O 	0.63621 0.03779 0.98630 -0.39400
O 	O 	0.61603 0.98059 0.48810 -0.41400
O 	O 	0.11151 0.11023 0.43364 -0.41400
O 	O 	0.47741 0.51819 0.09168 -0.40600
O 	O 	0.02409 0.12251 0.51370 -0.39800
O 	O 	0.46869 0.60413 0.01190 -0.41400
O 	O 	0.45485 0.95613 0.43364 -0.41400
O 	O 	0.43091 0.89013 0.09168 -0.40500
O 	O 	0.46221 0.86379 0.51370 -0.39800
O 	O 	0.51941 0.88397 0.01190 -0.41300
