data_crystal

_cell_length_a 24.60550
_cell_length_b 26.54890
_cell_length_c 26.54880
_cell_angle_alpha 77.59960
_cell_angle_beta  62.39310
_cell_angle_gamma 62.39310

_symmetry_space_group_name_	'P 1'
_symmetry_space_group_name_H-M	'P 1'

loop_
_symmetry_equiv_pos_as_xyz
  x,y,z

loop_
_atom_site_label
_atom_site_type_symbol
_atom_site_fract_x
_atom_site_fract_y
_atom_site_fract_z
_atom_site_charge
Cu	Cu	0.04565 0.49251 0.01659 0.89500
Cu	Cu	0.44525 0.01659 0.49251 0.90300
Cu	Cu	0.95435 0.98341 0.50749 0.91100
Cu	Cu	0.55475 0.50749 0.98341 0.90600
Cu	Cu	0.95435 0.50749 0.98341 0.91100
Cu	Cu	0.55475 0.98341 0.50749 0.90600
Cu	Cu	0.04565 0.01659 0.49251 0.89600
Cu	Cu	0.44525 0.49251 0.01659 0.90300
Cu	Cu	0.53981 0.46019 0.46019 0.89900
Cu	Cu	0.46019 0.53981 0.53981 0.89800
Cu	Cu	0.00000 0.96013 0.03987 0.89300
Cu	Cu	0.00000 0.03987 0.96013 0.89300
H 	H 	0.66850 0.53650 0.34510 0.05800
H 	H 	0.82500 0.59680 0.27460 0.08000
H 	H 	0.90960 0.56490 0.18690 0.03000
H 	H 	0.78980 0.53340 0.14960 0.03200
H 	H 	0.70090 0.56740 0.24080 0.07500
H 	H 	0.04310 0.65920 0.98500 0.02500
H 	H 	0.03950 0.74820 0.95380 0.08100
H 	H 	0.90470 0.77310 0.89370 0.07900
H 	H 	0.91360 0.68170 0.92210 0.02600
H 	H 	0.97300 0.84910 0.96770 0.06100
H 	H 	0.44990 0.34510 0.53650 0.05700
H 	H 	0.30360 0.27460 0.59680 0.07700
H 	H 	0.33860 0.18690 0.56490 0.02400
H 	H 	0.52720 0.14960 0.53340 0.03100
H 	H 	0.49090 0.24080 0.56740 0.07600
H 	H 	0.31270 0.98500 0.65920 0.02300
H 	H 	0.25850 0.95380 0.74820 0.07800
H 	H 	0.42850 0.89370 0.77310 0.07600
H 	H 	0.48260 0.92210 0.68170 0.02600
H 	H 	0.21020 0.96770 0.84910 0.05900
H 	H 	0.33150 0.65490 0.46350 0.05600
H 	H 	0.17500 0.72540 0.40320 0.07700
H 	H 	0.09040 0.81310 0.43510 0.02100
H 	H 	0.21020 0.85040 0.46660 0.02900
H 	H 	0.29910 0.75920 0.43260 0.07600
H 	H 	0.95690 0.01500 0.34080 0.02300
H 	H 	0.96050 0.04620 0.25180 0.07600
H 	H 	0.09530 0.10630 0.22690 0.07100
H 	H 	0.08640 0.07790 0.31830 0.02400
H 	H 	0.02700 0.03230 0.15090 0.05700
H 	H 	0.55010 0.46350 0.65490 0.05700
H 	H 	0.69640 0.40320 0.72540 0.08000
H 	H 	0.66140 0.43510 0.81310 0.02700
H 	H 	0.47280 0.46660 0.85040 0.03000
H 	H 	0.50910 0.43260 0.75920 0.07500
H 	H 	0.68730 0.34080 0.01500 0.02500
H 	H 	0.74150 0.25180 0.04620 0.08100
H 	H 	0.57150 0.22690 0.10630 0.07500
H 	H 	0.51740 0.31830 0.07790 0.02400
H 	H 	0.78980 0.15090 0.03230 0.06200
H 	H 	0.33150 0.46350 0.65490 0.05600
H 	H 	0.17500 0.40320 0.72540 0.07700
H 	H 	0.09040 0.43510 0.81310 0.02100
H 	H 	0.21020 0.46660 0.85040 0.02900
H 	H 	0.29910 0.43260 0.75920 0.07600
H 	H 	0.95690 0.34080 0.01500 0.02300
H 	H 	0.96050 0.25180 0.04620 0.07600
H 	H 	0.09530 0.22690 0.10630 0.07100
H 	H 	0.08640 0.31830 0.07790 0.02400
H 	H 	0.02700 0.15090 0.03230 0.05700
H 	H 	0.55010 0.65490 0.46350 0.05700
H 	H 	0.69640 0.72540 0.40320 0.08000
H 	H 	0.66140 0.81310 0.43510 0.02700
H 	H 	0.47280 0.85040 0.46660 0.03000
H 	H 	0.50910 0.75920 0.43260 0.07500
H 	H 	0.68730 0.01500 0.34080 0.02500
H 	H 	0.74150 0.04620 0.25180 0.08100
H 	H 	0.57150 0.10630 0.22690 0.07500
H 	H 	0.51740 0.07790 0.31830 0.02400
H 	H 	0.78980 0.03230 0.15090 0.06200
H 	H 	0.66850 0.34510 0.53650 0.05800
H 	H 	0.82500 0.27460 0.59680 0.08000
H 	H 	0.90960 0.18690 0.56490 0.03000
H 	H 	0.78980 0.14960 0.53340 0.03200
H 	H 	0.70090 0.24080 0.56740 0.07500
H 	H 	0.04310 0.98500 0.65920 0.02500
H 	H 	0.03950 0.95380 0.74820 0.08100
H 	H 	0.90470 0.89370 0.77310 0.08000
H 	H 	0.91360 0.92210 0.68170 0.02600
H 	H 	0.97300 0.96770 0.84910 0.06100
H 	H 	0.44990 0.53650 0.34510 0.05700
H 	H 	0.30360 0.59680 0.27460 0.07700
H 	H 	0.33860 0.56490 0.18690 0.02400
H 	H 	0.52720 0.53340 0.14960 0.03100
H 	H 	0.49090 0.56740 0.24080 0.07600
H 	H 	0.31270 0.65920 0.98500 0.02300
H 	H 	0.25850 0.74820 0.95380 0.07800
H 	H 	0.42850 0.77310 0.89370 0.07600
H 	H 	0.48260 0.68170 0.92210 0.02600
H 	H 	0.21020 0.84910 0.96770 0.05900
H 	H 	0.70800 0.67650 0.32350 0.05500
H 	H 	0.29200 0.32350 0.67650 0.05300
H 	H 	0.29200 0.67650 0.32350 0.05300
H 	H 	0.70800 0.32350 0.67650 0.05500
H 	H 	0.96910 0.82450 0.82450 0.05600
H 	H 	0.38190 0.82450 0.82450 0.05600
H 	H 	0.03090 0.17550 0.17550 0.05700
H 	H 	0.61810 0.17550 0.17550 0.05600
C 	C 	0.65958 0.57020 0.35964 -0.02600
C 	C 	0.70118 0.60123 0.32601 -0.00600
C 	C 	0.75840 0.58140 0.26880 0.07600
C 	C 	0.81710 0.58280 0.25020 -0.13300
C 	C 	0.86730 0.56520 0.19740 0.05500
C 	C 	0.85610 0.54820 0.15980 -0.10600
C 	C 	0.79670 0.54670 0.17530 0.04700
C 	C 	0.74390 0.56550 0.23030 -0.11800
C 	C 	0.91530 0.52758 0.10102 0.34600
C 	C 	0.98720 0.60180 0.97480 0.41100
C 	C 	0.97990 0.66190 0.95610 -0.11700
C 	C 	0.01600 0.68210 0.96570 0.04900
C 	C 	0.01350 0.73510 0.94770 -0.15600
C 	C 	0.97250 0.76935 0.92025 0.09500
C 	C 	0.93360 0.74975 0.91125 -0.13400
C 	C 	0.93850 0.69570 0.92870 0.06300
C 	C 	0.97040 0.82729 0.90191 -0.00500
C 	C 	0.97311 0.86135 0.93163 -0.03200
C 	C 	0.41058 0.35964 0.57020 -0.02500
C 	C 	0.37158 0.32601 0.60123 -0.00800
C 	C 	0.39140 0.26880 0.58140 0.07700
C 	C 	0.34990 0.25020 0.58280 -0.13700
C 	C 	0.37010 0.19740 0.56520 0.05600
C 	C 	0.43590 0.15980 0.54820 -0.11100
C 	C 	0.48130 0.17530 0.54670 0.04800
C 	C 	0.46030 0.23030 0.56550 -0.12100
C 	C 	0.45610 0.10102 0.52758 0.34700
C 	C 	0.43620 0.97480 0.60180 0.38900
C 	C 	0.40210 0.95610 0.66190 -0.13100
C 	C 	0.33620 0.96570 0.68210 0.06400
C 	C 	0.30370 0.94770 0.73510 -0.13100
C 	C 	0.33790 0.92025 0.76935 0.07000
C 	C 	0.40540 0.91125 0.74975 -0.12700
C 	C 	0.43710 0.92870 0.69570 0.06000
C 	C 	0.30040 0.90191 0.82729 0.00100
C 	C 	0.23391 0.93163 0.86135 -0.03800
C 	C 	0.34042 0.64036 0.42980 -0.02500
C 	C 	0.29882 0.67399 0.39877 -0.00900
C 	C 	0.24160 0.73120 0.41860 0.07800
C 	C 	0.18290 0.74980 0.41720 -0.13900
C 	C 	0.13270 0.80260 0.43480 0.05800
C 	C 	0.14390 0.84020 0.45180 -0.11300
C 	C 	0.20330 0.82470 0.45330 0.05000
C 	C 	0.25610 0.76970 0.43450 -0.12300
C 	C 	0.08470 0.89898 0.47242 0.34700
C 	C 	0.01280 0.02520 0.39820 0.36100
C 	C 	0.02010 0.04390 0.33810 -0.14900
C 	C 	0.98400 0.03430 0.31790 0.08400
C 	C 	0.98650 0.05230 0.26490 -0.09900
C 	C 	0.02750 0.07975 0.23065 0.03800
C 	C 	0.06640 0.08875 0.25025 -0.11900
C 	C 	0.06150 0.07130 0.30430 0.05600
C 	C 	0.02960 0.09809 0.17271 0.01000
C 	C 	0.02689 0.06837 0.13865 -0.04800
C 	C 	0.58942 0.42980 0.64036 -0.02500
C 	C 	0.62842 0.39877 0.67399 -0.00700
C 	C 	0.60860 0.41860 0.73120 0.07700
C 	C 	0.65010 0.41720 0.74980 -0.13600
C 	C 	0.62990 0.43480 0.80260 0.05700
C 	C 	0.56410 0.45180 0.84020 -0.11000
C 	C 	0.51870 0.45330 0.82470 0.04800
C 	C 	0.53970 0.43450 0.76970 -0.12100
C 	C 	0.54390 0.47242 0.89898 0.34600
C 	C 	0.56380 0.39820 0.02520 0.38900
C 	C 	0.59790 0.33810 0.04390 -0.13100
C 	C 	0.66380 0.31790 0.03430 0.06500
C 	C 	0.69630 0.26490 0.05230 -0.13100
C 	C 	0.66210 0.23065 0.07975 0.07000
C 	C 	0.59460 0.25025 0.08875 -0.12800
C 	C 	0.56290 0.30430 0.07130 0.06000
C 	C 	0.69960 0.17271 0.09809 0.00300
C 	C 	0.76609 0.13865 0.06837 -0.04000
C 	C 	0.34042 0.42980 0.64036 -0.02500
C 	C 	0.29882 0.39877 0.67399 -0.00900
C 	C 	0.24160 0.41860 0.73120 0.07800
C 	C 	0.18290 0.41720 0.74980 -0.13900
C 	C 	0.13270 0.43480 0.80260 0.05800
C 	C 	0.14390 0.45180 0.84020 -0.11300
C 	C 	0.20330 0.45330 0.82470 0.05000
C 	C 	0.25610 0.43450 0.76970 -0.12300
C 	C 	0.08470 0.47242 0.89898 0.34700
C 	C 	0.01280 0.39820 0.02520 0.36100
C 	C 	0.02010 0.33810 0.04390 -0.14900
C 	C 	0.98400 0.31790 0.03430 0.08400
C 	C 	0.98650 0.26490 0.05230 -0.09900
C 	C 	0.02750 0.23065 0.07975 0.03800
C 	C 	0.06640 0.25025 0.08875 -0.11900
C 	C 	0.06150 0.30430 0.07130 0.05600
C 	C 	0.02960 0.17271 0.09809 0.01000
C 	C 	0.02689 0.13865 0.06837 -0.04800
C 	C 	0.58942 0.64036 0.42980 -0.02500
C 	C 	0.62842 0.67399 0.39877 -0.00700
C 	C 	0.60860 0.73120 0.41860 0.07700
C 	C 	0.65010 0.74980 0.41720 -0.13600
C 	C 	0.62990 0.80260 0.43480 0.05700
C 	C 	0.56410 0.84020 0.45180 -0.11000
C 	C 	0.51870 0.82470 0.45330 0.04800
C 	C 	0.53970 0.76970 0.43450 -0.12100
C 	C 	0.54390 0.89898 0.47242 0.34600
C 	C 	0.56380 0.02520 0.39820 0.38900
C 	C 	0.59790 0.04390 0.33810 -0.13100
C 	C 	0.66380 0.03430 0.31790 0.06500
C 	C 	0.69630 0.05230 0.26490 -0.13100
C 	C 	0.66210 0.07975 0.23065 0.07000
C 	C 	0.59460 0.08875 0.25025 -0.12800
C 	C 	0.56290 0.07130 0.30430 0.06000
C 	C 	0.69960 0.09809 0.17271 0.00300
C 	C 	0.76609 0.06837 0.13865 -0.04000
C 	C 	0.65958 0.35964 0.57020 -0.02600
C 	C 	0.70118 0.32601 0.60123 -0.00600
C 	C 	0.75840 0.26880 0.58140 0.07600
C 	C 	0.81710 0.25020 0.58280 -0.13300
C 	C 	0.86730 0.19740 0.56520 0.05500
C 	C 	0.85610 0.15980 0.54820 -0.10600
C 	C 	0.79670 0.17530 0.54670 0.04700
C 	C 	0.74390 0.23030 0.56550 -0.11800
C 	C 	0.91530 0.10102 0.52758 0.34600
C 	C 	0.98720 0.97480 0.60180 0.41100
C 	C 	0.97990 0.95610 0.66190 -0.11700
C 	C 	0.01600 0.96570 0.68210 0.04900
C 	C 	0.01350 0.94770 0.73510 -0.15600
C 	C 	0.97250 0.92025 0.76935 0.09500
C 	C 	0.93360 0.91125 0.74975 -0.13400
C 	C 	0.93850 0.92870 0.69570 0.06300
C 	C 	0.97040 0.90191 0.82729 -0.00500
C 	C 	0.97311 0.93163 0.86135 -0.03200
C 	C 	0.41058 0.57020 0.35964 -0.02500
C 	C 	0.37158 0.60123 0.32601 -0.00800
C 	C 	0.39140 0.58140 0.26880 0.07700
C 	C 	0.34990 0.58280 0.25020 -0.13700
C 	C 	0.37010 0.56520 0.19740 0.05600
C 	C 	0.43590 0.54820 0.15980 -0.11100
C 	C 	0.48130 0.54670 0.17530 0.04800
C 	C 	0.46030 0.56550 0.23030 -0.12100
C 	C 	0.45610 0.52758 0.10102 0.34700
C 	C 	0.43620 0.60180 0.97480 0.38900
C 	C 	0.40210 0.66190 0.95610 -0.13000
C 	C 	0.33620 0.68210 0.96570 0.06400
C 	C 	0.30370 0.73510 0.94770 -0.13100
C 	C 	0.33790 0.76935 0.92025 0.07000
C 	C 	0.40540 0.74975 0.91125 -0.12700
C 	C 	0.43710 0.69570 0.92870 0.06000
C 	C 	0.30040 0.82729 0.90191 0.00100
C 	C 	0.23391 0.86135 0.93163 -0.03800
C 	C 	0.57100 0.55470 0.44530 0.34700
C 	C 	0.60890 0.58910 0.41090 -0.06500
C 	C 	0.68370 0.65470 0.34530 -0.06300
C 	C 	0.42900 0.44530 0.55470 0.34700
C 	C 	0.39110 0.41090 0.58910 -0.06700
C 	C 	0.31630 0.34530 0.65470 -0.06200
C 	C 	0.42900 0.55470 0.44530 0.34700
C 	C 	0.39110 0.58910 0.41090 -0.06700
C 	C 	0.31630 0.65470 0.34530 -0.06200
C 	C 	0.57100 0.44530 0.55470 0.34700
C 	C 	0.60890 0.41090 0.58910 -0.06500
C 	C 	0.68370 0.34530 0.65470 -0.06300
C 	C 	0.96980 0.84690 0.84690 -0.06000
C 	C 	0.97600 0.91190 0.91190 -0.04600
C 	C 	0.97850 0.94740 0.94740 0.31600
C 	C 	0.33640 0.84690 0.84690 -0.06800
C 	C 	0.20020 0.91190 0.91190 -0.04700
C 	C 	0.12670 0.94740 0.94740 0.31700
C 	C 	0.03020 0.15310 0.15310 -0.07900
C 	C 	0.02400 0.08810 0.08810 -0.04400
C 	C 	0.02150 0.05260 0.05260 0.31500
C 	C 	0.66360 0.15310 0.15310 -0.06800
C 	C 	0.79980 0.08810 0.08810 -0.04100
C 	C 	0.87330 0.05260 0.05260 0.31400
O 	O 	0.58969 0.50843 0.42373 -0.40300
O 	O 	0.97304 0.51741 0.09051 -0.40600
O 	O 	0.02952 0.57121 0.99235 -0.44600
O 	O 	0.89288 0.52885 0.06359 -0.38400
O 	O 	0.95113 0.58497 0.96617 -0.40700
O 	O 	0.98775 0.92367 0.99183 -0.38300
O 	O 	0.47815 0.42373 0.50843 -0.40400
O 	O 	0.41904 0.09051 0.51741 -0.42000
O 	O 	0.40692 0.99235 0.57121 -0.42500
O 	O 	0.51468 0.06359 0.52885 -0.38800
O 	O 	0.49773 0.96617 0.58497 -0.40700
O 	O 	0.09675 0.99183 0.92367 -0.39500
O 	O 	0.41031 0.57627 0.49157 -0.40500
O 	O 	0.02696 0.90949 0.48259 -0.42900
O 	O 	0.97048 0.00765 0.42879 -0.40000
O 	O 	0.10712 0.93641 0.47115 -0.38900
O 	O 	0.04887 0.03383 0.41503 -0.40800
O 	O 	0.01225 0.00817 0.07633 -0.40200
O 	O 	0.52185 0.49157 0.57627 -0.40400
O 	O 	0.58096 0.48259 0.90949 -0.41700
O 	O 	0.59308 0.42879 0.00765 -0.42500
O 	O 	0.48532 0.47115 0.93641 -0.38700
O 	O 	0.50227 0.41503 0.03383 -0.40900
O 	O 	0.90325 0.07633 0.00817 -0.38300
O 	O 	0.41031 0.49157 0.57627 -0.40500
O 	O 	0.02696 0.48259 0.90949 -0.42900
O 	O 	0.97048 0.42879 0.00765 -0.40000
O 	O 	0.10712 0.47115 0.93641 -0.38900
O 	O 	0.04887 0.41503 0.03383 -0.40800
O 	O 	0.01225 0.07633 0.00817 -0.40200
O 	O 	0.52185 0.57627 0.49157 -0.40400
O 	O 	0.58096 0.90949 0.48259 -0.41700
O 	O 	0.59308 0.00765 0.42879 -0.42500
O 	O 	0.48532 0.93641 0.47115 -0.38700
O 	O 	0.50227 0.03383 0.41503 -0.40900
O 	O 	0.90325 0.00817 0.07633 -0.38300
O 	O 	0.58969 0.42373 0.50843 -0.40300
O 	O 	0.97304 0.09051 0.51741 -0.40600
O 	O 	0.02952 0.99235 0.57121 -0.44600
O 	O 	0.89288 0.06359 0.52885 -0.38400
O 	O 	0.95113 0.96617 0.58497 -0.40700
O 	O 	0.98775 0.99183 0.92367 -0.38300
O 	O 	0.47815 0.50843 0.42373 -0.40400
O 	O 	0.41904 0.51741 0.09051 -0.42000
O 	O 	0.40692 0.57121 0.99235 -0.42500
O 	O 	0.51468 0.52885 0.06359 -0.38800
O 	O 	0.49773 0.58497 0.96617 -0.40700
O 	O 	0.09675 0.92367 0.99183 -0.39500
