data_crystal

_cell_length_a 28.22190
_cell_length_b 28.22190
_cell_length_c 9.72660
_cell_angle_alpha 90.00000
_cell_angle_beta  90.00000
_cell_angle_gamma 90.00000

_symmetry_space_group_name_	'P 1'
_symmetry_space_group_name_H-M	'P 1'

loop_
_symmetry_equiv_pos_as_xyz
  x,y,z

loop_
_atom_site_label
_atom_site_type_symbol
_atom_site_fract_x
_atom_site_fract_y
_atom_site_fract_z
_atom_site_charge
O 	O 	0.51445 0.06124 0.66400 -0.41900
C 	C 	0.48771 0.07823 0.57220 0.32800
O 	O 	0.45655 0.05487 0.51120 -0.26500
C 	C 	0.49495 0.12885 0.53250 -0.04100
C 	C 	0.53396 0.15410 0.58380 -0.04800
C 	C 	0.46371 0.15068 0.44460 -0.00900
H 	H 	0.55560 0.13890 0.64080 0.07800
C 	C 	0.54074 0.20151 0.55060 0.03500
C 	C 	0.47045 0.19900 0.40990 -0.03300
H 	H 	0.43830 0.13390 0.40820 0.07600
C 	C 	0.50817 0.22366 0.46590 -0.05300
C 	C 	0.58489 0.22824 0.59590 0.00000
C 	C 	0.43750 0.22380 0.31080 0.31000
H 	H 	0.51170 0.25570 0.44630 0.07800
C 	C 	0.62823 0.20690 0.56520 -0.02700
O 	O 	0.40542 0.19938 0.25370 -0.38300
O 	O 	0.44225 0.26567 0.28610 -0.32600
H 	H 	0.62780 0.17710 0.52440 0.07200
C 	C 	0.67152 0.22723 0.59180 -0.05600
C 	C 	0.71390 0.19980 0.54320 0.37500
O 	O 	0.70629 0.16301 0.47950 -0.42200
O 	O 	0.75537 0.21480 0.55990 -0.33400
O 	O 	0.01445 0.56124 0.16400 -0.44000
C 	C 	0.98771 0.57823 0.07220 0.35000
O 	O 	0.95655 0.55487 0.01120 -0.26200
C 	C 	0.99495 0.62885 0.03250 -0.02400
C 	C 	0.03396 0.65410 0.08380 -0.08400
C 	C 	0.96371 0.65068 0.94460 -0.00900
H 	H 	0.05560 0.63890 0.14080 0.08500
C 	C 	0.04074 0.70151 0.05060 0.03400
C 	C 	0.97045 0.69900 0.90990 0.00200
H 	H 	0.93830 0.63390 0.90820 0.08300
C 	C 	0.00817 0.72366 0.96590 -0.07700
C 	C 	0.08489 0.72824 0.09590 0.00400
C 	C 	0.93750 0.72380 0.81080 0.30200
H 	H 	0.01170 0.75570 0.94630 0.08500
C 	C 	0.12823 0.70690 0.06520 -0.03500
O 	O 	0.90542 0.69938 0.75370 -0.37400
O 	O 	0.94225 0.76567 0.78610 -0.31100
H 	H 	0.12780 0.67710 0.02440 0.07100
C 	C 	0.17152 0.72723 0.09180 -0.04900
C 	C 	0.21390 0.69980 0.04320 0.35400
O 	O 	0.20629 0.66301 0.97950 -0.40300
O 	O 	0.25537 0.71480 0.05990 -0.33500
O 	O 	0.48555 0.93876 0.66400 -0.40600
C 	C 	0.51229 0.92177 0.57220 0.32300
O 	O 	0.54345 0.94513 0.51120 -0.24900
C 	C 	0.50505 0.87115 0.53250 -0.03600
C 	C 	0.46604 0.84590 0.58380 -0.05100
C 	C 	0.53629 0.84932 0.44460 -0.01300
H 	H 	0.44440 0.86110 0.64080 0.08000
C 	C 	0.45926 0.79849 0.55060 0.03600
C 	C 	0.52955 0.80100 0.40990 -0.03100
H 	H 	0.56170 0.86610 0.40820 0.07900
C 	C 	0.49183 0.77634 0.46590 -0.05500
C 	C 	0.41511 0.77176 0.59590 0.00000
C 	C 	0.56250 0.77620 0.31080 0.30900
H 	H 	0.48830 0.74430 0.44630 0.07800
C 	C 	0.37177 0.79310 0.56520 -0.02600
O 	O 	0.59458 0.80062 0.25370 -0.38100
O 	O 	0.55775 0.73433 0.28610 -0.32500
H 	H 	0.37220 0.82290 0.52440 0.07300
C 	C 	0.32848 0.77277 0.59180 -0.05600
C 	C 	0.28610 0.80020 0.54320 0.37500
O 	O 	0.29371 0.83699 0.47950 -0.42100
O 	O 	0.24463 0.78520 0.55990 -0.33500
O 	O 	0.98555 0.43876 0.16400 -0.39400
C 	C 	0.01229 0.42177 0.07220 0.32100
O 	O 	0.04345 0.44513 0.01120 -0.26600
C 	C 	0.00505 0.37115 0.03250 -0.12500
C 	C 	0.96604 0.34590 0.08380 0.03900
C 	C 	0.03629 0.34932 0.94460 0.06800
H 	H 	0.94440 0.36110 0.14080 0.05100
C 	C 	0.95926 0.29849 0.05060 -0.03700
C 	C 	0.02955 0.30100 0.90990 -0.10900
H 	H 	0.06170 0.36610 0.90820 0.05500
C 	C 	0.99183 0.27634 0.96590 0.05300
C 	C 	0.91511 0.27176 0.09590 0.02400
C 	C 	0.06250 0.27620 0.81080 0.33600
H 	H 	0.98830 0.24430 0.94630 0.05500
C 	C 	0.87177 0.29310 0.06520 -0.04300
O 	O 	0.09458 0.30062 0.75370 -0.38500
O 	O 	0.05775 0.23433 0.78610 -0.33400
H 	H 	0.87220 0.32290 0.02440 0.07700
C 	C 	0.82848 0.27277 0.09180 -0.04700
C 	C 	0.78610 0.30020 0.04320 0.35400
O 	O 	0.79371 0.33699 0.97950 -0.40200
O 	O 	0.74463 0.28520 0.05990 -0.33500
O 	O 	0.06124 0.48555 0.33600 -0.42100
C 	C 	0.07823 0.51229 0.42780 0.32600
O 	O 	0.05487 0.54345 0.48880 -0.26300
C 	C 	0.12885 0.50505 0.46750 -0.04000
C 	C 	0.15410 0.46604 0.41620 -0.04900
C 	C 	0.15068 0.53629 0.55540 -0.01000
H 	H 	0.13890 0.44440 0.35920 0.07600
C 	C 	0.20151 0.45926 0.44940 0.03500
C 	C 	0.19900 0.52955 0.59010 -0.03000
H 	H 	0.13390 0.56170 0.59180 0.07800
C 	C 	0.22366 0.49183 0.53410 -0.05400
C 	C 	0.22824 0.41511 0.40410 0.00000
C 	C 	0.22380 0.56250 0.68920 0.30900
H 	H 	0.25570 0.48830 0.55370 0.08000
C 	C 	0.20690 0.37177 0.43480 -0.02700
O 	O 	0.19938 0.59458 0.74630 -0.37700
O 	O 	0.26567 0.55775 0.71390 -0.31900
H 	H 	0.17710 0.37220 0.47560 0.07300
C 	C 	0.22723 0.32848 0.40820 -0.05700
C 	C 	0.19980 0.28610 0.45680 0.37400
O 	O 	0.16301 0.29371 0.52050 -0.42200
O 	O 	0.21480 0.24463 0.44010 -0.33800
O 	O 	0.56124 0.98555 0.83600 -0.38700
C 	C 	0.57823 0.01229 0.92780 0.29900
O 	O 	0.55487 0.04345 0.98880 -0.24900
C 	C 	0.62885 0.00505 0.96750 -0.04800
C 	C 	0.65410 0.96604 0.91620 -0.01900
C 	C 	0.65068 0.03629 0.05540 -0.01800
H 	H 	0.63890 0.94440 0.85920 0.07200
C 	C 	0.70151 0.95926 0.94940 0.03800
C 	C 	0.69900 0.02955 0.09010 -0.06100
H 	H 	0.63390 0.06170 0.09180 0.07500
C 	C 	0.72366 0.99183 0.03410 -0.03300
C 	C 	0.72824 0.91511 0.90410 -0.00400
C 	C 	0.72380 0.06250 0.18920 0.31500
H 	H 	0.75570 0.98830 0.05370 0.07400
C 	C 	0.70690 0.87177 0.93480 -0.01800
O 	O 	0.69938 0.09458 0.24630 -0.38300
O 	O 	0.76567 0.05775 0.21390 -0.33300
H 	H 	0.67710 0.87220 0.97560 0.07500
C 	C 	0.72723 0.82848 0.90820 -0.06300
C 	C 	0.69980 0.78610 0.95680 0.39500
O 	O 	0.66301 0.79371 0.02050 -0.44000
O 	O 	0.71480 0.74463 0.94010 -0.33700
O 	O 	0.93876 0.51445 0.33600 -0.40600
C 	C 	0.92177 0.48771 0.42780 0.32200
O 	O 	0.94513 0.45655 0.48880 -0.24600
C 	C 	0.87115 0.49495 0.46750 -0.03400
C 	C 	0.84590 0.53396 0.41620 -0.05200
C 	C 	0.84932 0.46371 0.55540 -0.01400
H 	H 	0.86110 0.55560 0.35920 0.07900
C 	C 	0.79849 0.54074 0.44940 0.03700
C 	C 	0.80100 0.47045 0.59010 -0.02700
H 	H 	0.86610 0.43830 0.59180 0.08200
C 	C 	0.77634 0.50817 0.53410 -0.05600
C 	C 	0.77176 0.58489 0.40410 0.00000
C 	C 	0.77620 0.43750 0.68920 0.30800
H 	H 	0.74430 0.51170 0.55370 0.08000
C 	C 	0.79310 0.62823 0.43480 -0.02700
O 	O 	0.80062 0.40542 0.74630 -0.37500
O 	O 	0.73433 0.44225 0.71390 -0.31900
H 	H 	0.82290 0.62780 0.47560 0.07400
C 	C 	0.77277 0.67152 0.40820 -0.05600
C 	C 	0.80020 0.71390 0.45680 0.37400
O 	O 	0.83699 0.70629 0.52050 -0.42100
O 	O 	0.78520 0.75537 0.44010 -0.33600
O 	O 	0.43876 0.01445 0.83600 -0.43200
C 	C 	0.42177 0.98771 0.92780 0.32600
O 	O 	0.44513 0.95655 0.98880 -0.24500
C 	C 	0.37115 0.99495 0.96750 0.05000
C 	C 	0.34590 0.03396 0.91620 -0.14100
C 	C 	0.34932 0.96371 0.05540 -0.09400
H 	H 	0.36110 0.05560 0.85920 0.10600
C 	C 	0.29849 0.04074 0.94940 0.11100
C 	C 	0.30100 0.97045 0.09010 0.05100
H 	H 	0.36610 0.93830 0.09180 0.10300
C 	C 	0.27634 0.00817 0.03410 -0.16700
C 	C 	0.27176 0.08489 0.90410 -0.02500
C 	C 	0.27620 0.93750 0.18920 0.28200
H 	H 	0.24430 0.01170 0.05370 0.10400
C 	C 	0.29310 0.12823 0.93480 -0.00900
O 	O 	0.30062 0.90542 0.24630 -0.37200
O 	O 	0.23433 0.94225 0.21390 -0.31100
H 	H 	0.32290 0.12780 0.97560 0.06900
C 	C 	0.27277 0.17152 0.90820 -0.06700
C 	C 	0.30020 0.21390 0.95680 0.39600
O 	O 	0.33699 0.20629 0.02050 -0.44200
O 	O 	0.28520 0.25537 0.94010 -0.33700
O 	O 	0.98555 0.06124 0.08600 -0.40100
C 	C 	0.01229 0.07823 0.17780 0.31200
O 	O 	0.04345 0.05487 0.23880 -0.26900
C 	C 	0.00505 0.12885 0.21750 -0.09300
C 	C 	0.96604 0.15410 0.16620 0.01200
C 	C 	0.03629 0.15068 0.30540 0.02800
H 	H 	0.94440 0.13890 0.10920 0.05800
C 	C 	0.95926 0.20151 0.19940 -0.00100
C 	C 	0.02955 0.19900 0.34010 -0.08900
H 	H 	0.06170 0.13390 0.34180 0.06100
C 	C 	0.99183 0.22366 0.28410 0.01200
C 	C 	0.91511 0.22824 0.15410 0.00200
C 	C 	0.06250 0.22380 0.43920 0.32600
H 	H 	0.98830 0.25570 0.30370 0.06400
C 	C 	0.87177 0.20690 0.18480 -0.02600
O 	O 	0.09458 0.19938 0.49630 -0.38600
O 	O 	0.05775 0.26567 0.46390 -0.33400
H 	H 	0.87220 0.17710 0.22560 0.07300
C 	C 	0.82848 0.22723 0.15820 -0.06100
C 	C 	0.78610 0.19980 0.20680 0.37600
O 	O 	0.79371 0.16301 0.27050 -0.42300
O 	O 	0.74463 0.21480 0.19010 -0.33800
O 	O 	0.48555 0.56124 0.58600 -0.41400
C 	C 	0.51229 0.57823 0.67780 0.32400
O 	O 	0.54345 0.55487 0.73880 -0.25400
C 	C 	0.50505 0.62885 0.71750 -0.03600
C 	C 	0.46604 0.65410 0.66620 -0.05100
C 	C 	0.53629 0.65068 0.80540 -0.01300
H 	H 	0.44440 0.63890 0.60920 0.07800
C 	C 	0.45926 0.70151 0.69940 0.03700
C 	C 	0.52955 0.69900 0.84010 -0.02700
H 	H 	0.56170 0.63390 0.84180 0.08100
C 	C 	0.49183 0.72366 0.78410 -0.05500
C 	C 	0.41511 0.72824 0.65410 0.00100
C 	C 	0.56250 0.72380 0.93920 0.30800
H 	H 	0.48830 0.75570 0.80370 0.08100
C 	C 	0.37177 0.70690 0.68480 -0.02700
O 	O 	0.59458 0.69938 0.99630 -0.37100
O 	O 	0.55775 0.76567 0.96390 -0.31600
H 	H 	0.37220 0.67710 0.72560 0.07400
C 	C 	0.32848 0.72723 0.65820 -0.05500
C 	C 	0.28610 0.69980 0.70680 0.37400
O 	O 	0.29371 0.66301 0.77050 -0.41900
O 	O 	0.24463 0.71480 0.69010 -0.33400
O 	O 	0.01445 0.93876 0.08600 -0.43200
C 	C 	0.98771 0.92177 0.17780 0.33600
O 	O 	0.95655 0.94513 0.23880 -0.24700
C 	C 	0.99495 0.87115 0.21750 0.01300
C 	C 	0.03396 0.84590 0.16620 -0.11400
C 	C 	0.96371 0.84932 0.30540 -0.05200
H 	H 	0.05560 0.86110 0.10920 0.09500
C 	C 	0.04074 0.79849 0.19940 0.07400
C 	C 	0.97045 0.80100 0.34010 0.02700
H 	H 	0.93830 0.86610 0.34180 0.09400
C 	C 	0.00817 0.77634 0.28410 -0.12400
C 	C 	0.08489 0.77176 0.15410 -0.02000
C 	C 	0.93750 0.77620 0.43920 0.29200
H 	H 	0.01170 0.74430 0.30370 0.09500
C 	C 	0.12823 0.79310 0.18480 -0.01600
O 	O 	0.90542 0.80062 0.49630 -0.37200
O 	O 	0.94225 0.73433 0.46390 -0.31100
H 	H 	0.12780 0.82290 0.22560 0.06800
C 	C 	0.17152 0.77277 0.15820 -0.06400
C 	C 	0.21390 0.80020 0.20680 0.37700
O 	O 	0.20629 0.83699 0.27050 -0.42300
O 	O 	0.25537 0.78520 0.19010 -0.33800
O 	O 	0.51445 0.43876 0.58600 -0.41400
C 	C 	0.48771 0.42177 0.67780 0.32400
O 	O 	0.45655 0.44513 0.73880 -0.25400
C 	C 	0.49495 0.37115 0.71750 -0.03600
C 	C 	0.53396 0.34590 0.66620 -0.05100
C 	C 	0.46371 0.34932 0.80540 -0.01300
H 	H 	0.55560 0.36110 0.60920 0.07800
C 	C 	0.54074 0.29849 0.69940 0.03700
C 	C 	0.47045 0.30100 0.84010 -0.02700
H 	H 	0.43830 0.36610 0.84180 0.08100
C 	C 	0.50817 0.27634 0.78410 -0.05500
C 	C 	0.58489 0.27176 0.65410 0.00100
C 	C 	0.43750 0.27620 0.93920 0.30800
H 	H 	0.51170 0.24430 0.80370 0.08100
C 	C 	0.62823 0.29310 0.68480 -0.02700
O 	O 	0.40542 0.30062 0.99630 -0.37100
O 	O 	0.44225 0.23433 0.96390 -0.31600
H 	H 	0.62780 0.32290 0.72560 0.07400
C 	C 	0.67152 0.27277 0.65820 -0.05500
C 	C 	0.71390 0.30020 0.70680 0.37400
O 	O 	0.70629 0.33699 0.77050 -0.41800
O 	O 	0.75537 0.28520 0.69010 -0.33300
O 	O 	0.43876 0.48555 0.41400 -0.41500
C 	C 	0.42177 0.51229 0.32220 0.32500
O 	O 	0.44513 0.54345 0.26120 -0.25900
C 	C 	0.37115 0.50505 0.28250 -0.04000
C 	C 	0.34590 0.46604 0.33380 -0.04900
C 	C 	0.34932 0.53629 0.19460 -0.01000
H 	H 	0.36110 0.44440 0.39080 0.07800
C 	C 	0.29849 0.45926 0.30060 0.03400
C 	C 	0.30100 0.52955 0.15990 -0.03400
H 	H 	0.36610 0.56170 0.15820 0.07600
C 	C 	0.27634 0.49183 0.21590 -0.05300
C 	C 	0.27176 0.41511 0.34590 -0.00000
C 	C 	0.27620 0.56250 0.06080 0.31100
H 	H 	0.24430 0.48830 0.19630 0.07700
C 	C 	0.29310 0.37177 0.31520 -0.02700
O 	O 	0.30062 0.59458 0.00370 -0.38600
O 	O 	0.23433 0.55775 0.03610 -0.32900
H 	H 	0.32290 0.37220 0.27440 0.07100
C 	C 	0.27277 0.32848 0.34180 -0.05800
C 	C 	0.30020 0.28610 0.29320 0.37500
O 	O 	0.33699 0.29371 0.22950 -0.42500
O 	O 	0.28520 0.24463 0.30990 -0.33900
O 	O 	0.93876 0.98555 0.91400 -0.37500
C 	C 	0.92177 0.01229 0.82220 0.30900
O 	O 	0.94513 0.04345 0.76120 -0.24600
C 	C 	0.87115 0.00505 0.78250 -0.08200
C 	C 	0.84590 0.96604 0.83380 0.01000
C 	C 	0.84932 0.03629 0.69460 0.02500
H 	H 	0.86110 0.94440 0.89080 0.06500
C 	C 	0.79849 0.95926 0.80060 -0.00100
C 	C 	0.80100 0.02955 0.65990 -0.08400
H 	H 	0.86610 0.06170 0.65820 0.06800
C 	C 	0.77634 0.99183 0.71590 0.01300
C 	C 	0.77176 0.91511 0.84590 0.02000
C 	C 	0.77620 0.06250 0.56080 0.32600
H 	H 	0.74430 0.98830 0.69630 0.06400
C 	C 	0.79310 0.87177 0.81520 -0.03700
O 	O 	0.80062 0.09458 0.50370 -0.38200
O 	O 	0.73433 0.05775 0.53610 -0.33300
H 	H 	0.82290 0.87220 0.77440 0.07900
C 	C 	0.77277 0.82848 0.84180 -0.04800
C 	C 	0.80020 0.78610 0.79320 0.37200
O 	O 	0.83699 0.79371 0.72950 -0.41900
O 	O 	0.78520 0.74463 0.80990 -0.33300
O 	O 	0.56124 0.51445 0.41400 -0.41500
C 	C 	0.57823 0.48771 0.32220 0.32500
O 	O 	0.55487 0.45655 0.26120 -0.25900
C 	C 	0.62885 0.49495 0.28250 -0.04000
C 	C 	0.65410 0.53396 0.33380 -0.05000
C 	C 	0.65068 0.46371 0.19460 -0.01100
H 	H 	0.63890 0.55560 0.39080 0.07800
C 	C 	0.70151 0.54074 0.30060 0.03400
C 	C 	0.69900 0.47045 0.15990 -0.03300
H 	H 	0.63390 0.43830 0.15820 0.07600
C 	C 	0.72366 0.50817 0.21590 -0.05400
C 	C 	0.72824 0.58489 0.34590 -0.00000
C 	C 	0.72380 0.43750 0.06080 0.31000
H 	H 	0.75570 0.51170 0.19630 0.07800
C 	C 	0.70690 0.62823 0.31520 -0.02700
O 	O 	0.69938 0.40542 0.00370 -0.38600
O 	O 	0.76567 0.44225 0.03610 -0.32800
H 	H 	0.67710 0.62780 0.27440 0.07100
C 	C 	0.72723 0.67152 0.34180 -0.05800
C 	C 	0.69980 0.71390 0.29320 0.37500
O 	O 	0.66301 0.70629 0.22950 -0.42500
O 	O 	0.71480 0.75537 0.30990 -0.33700
O 	O 	0.06124 0.01445 0.91400 -0.43300
C 	C 	0.07823 0.98771 0.82220 0.33900
O 	O 	0.05487 0.95655 0.76120 -0.25800
C 	C 	0.12885 0.99495 0.78250 0.01100
C 	C 	0.15410 0.03396 0.83380 -0.10900
C 	C 	0.15068 0.96371 0.69460 -0.04800
H 	H 	0.13890 0.05560 0.89080 0.09600
C 	C 	0.20151 0.04074 0.80060 0.06900
C 	C 	0.19900 0.97045 0.65990 0.02500
H 	H 	0.13390 0.93830 0.65820 0.09100
C 	C 	0.22366 0.00817 0.71590 -0.11800
C 	C 	0.22824 0.08489 0.84590 0.00000
C 	C 	0.22380 0.93750 0.56080 0.29300
H 	H 	0.25570 0.01170 0.69630 0.09300
C 	C 	0.20690 0.12823 0.81520 -0.02900
O 	O 	0.19938 0.90542 0.50370 -0.37400
O 	O 	0.26567 0.94225 0.53610 -0.31100
H 	H 	0.17710 0.12780 0.77440 0.07200
C 	C 	0.22723 0.17152 0.84180 -0.05100
C 	C 	0.19980 0.21390 0.79320 0.37300
O 	O 	0.16301 0.20629 0.72950 -0.42100
O 	O 	0.21480 0.25537 0.80990 -0.33300
Zn	Zn	0.50000 0.00000 0.75000 1.23700
Zn	Zn	0.00000 0.50000 0.25000 1.23700
Zn	Zn	-0.00000 0.00000 -0.00000 1.22500
Zn	Zn	0.50000 0.50000 0.50000 1.24500
Zn	Zn	0.37941 0.25000 0.12500 1.24500
Zn	Zn	0.62059 0.75000 0.12500 1.24500
Zn	Zn	0.12059 0.25000 0.62500 1.24700
Zn	Zn	0.25000 0.62059 0.87500 1.25000
Zn	Zn	0.75000 0.12059 0.37500 1.24700
Zn	Zn	0.75000 0.37941 0.87500 1.25000
Zn	Zn	0.25000 0.87941 0.37500 1.24700
Zn	Zn	0.87941 0.75000 0.62500 1.24800
H 	H 	0.75200 0.25000 0.62500 0.21800
H 	H 	0.24800 0.75000 0.62500 0.21800
H 	H 	0.25000 0.24800 0.37500 0.21700
H 	H 	0.75000 0.74800 0.87500 0.21900
H 	H 	0.75000 0.75200 0.37500 0.21800
H 	H 	0.25000 0.25200 0.87500 0.21900
H 	H 	0.74800 0.25000 0.12500 0.21700
H 	H 	0.25200 0.75000 0.12500 0.21700
