data_crystal

_cell_length_a 10.22570
_cell_length_b 12.30020
_cell_length_c 19.28290
_cell_angle_alpha 77.15300
_cell_angle_beta  77.76100
_cell_angle_gamma 72.05200

_symmetry_space_group_name_	'P 1'
_symmetry_space_group_name_H-M	'P 1'

loop_
_symmetry_equiv_pos_as_xyz
  x,y,z

loop_
_atom_site_label
_atom_site_type_symbol
_atom_site_fract_x
_atom_site_fract_y
_atom_site_fract_z
_atom_site_charge
C 	C 	0.47240 0.87890 0.12100 -0.18300
H 	H 	0.40940 0.95570 0.12320 0.10000
H 	H 	0.43220 0.83910 0.09650 0.07700
C 	C 	0.60920 0.89100 0.07690 0.17600
C 	C 	0.64240 0.86900 0.00640 -0.24200
H 	H 	0.57940 0.84780 0.98720 0.10800
C 	C 	0.76580 0.87830 0.96510 0.17100
H 	H 	0.78370 0.86900 0.91710 -0.04100
C 	C 	0.85860 0.90010 0.99280 -0.24800
H 	H 	0.94530 0.89930 0.96530 0.11000
C 	C 	0.83230 0.92410 0.06130 0.14800
H 	H 	0.89890 0.94270 0.07910 -0.02400
C 	C 	0.70220 0.92030 0.10500 -0.22900
H 	H 	0.68150 0.93740 0.15140 0.11500
C 	C 	0.26980 0.61270 0.24210 -0.12500
H 	H 	0.29080 0.56680 0.28830 0.05600
H 	H 	0.22360 0.57250 0.22130 0.05800
C 	C 	0.17050 0.72890 0.25450 0.10900
C 	C 	0.13490 0.81610 0.19660 -0.15100
H 	H 	0.17470 0.80380 0.14990 0.08900
C 	C 	0.04070 0.92100 0.20790 0.05800
H 	H 	0.01810 0.97880 0.16870 0.00400
C 	C 	0.98030 0.94080 0.27610 -0.12800
H 	H 	0.91600 0.01120 0.28340 0.05200
C 	C 	0.01640 0.85460 0.33360 0.05200
H 	H 	0.97680 0.86750 0.38020 -0.01100
C 	C 	0.11080 0.74920 0.32320 -0.15700
H 	H 	0.13390 0.69190 0.36260 0.08000
C 	C 	0.60790 0.33680 0.21810 0.11500
C 	C 	0.48060 0.32290 0.25340 -0.18600
H 	H 	0.44460 0.34760 0.29750 0.09100
C 	C 	0.40550 0.27280 0.22440 0.08900
H 	H 	0.32020 0.26340 0.24930 -0.01800
C 	C 	0.45490 0.23770 0.16040 -0.17700
H 	H 	0.40400 0.20380 0.14130 0.08400
C 	C 	0.57960 0.25160 0.12330 0.08500
H 	H 	0.61270 0.22800 0.07870 -0.00300
C 	C 	0.65800 0.30110 0.15190 -0.17500
H 	H 	0.74330 0.30990 0.12670 0.08300
C 	C 	0.78550 0.70650 0.27690 -0.15700
H 	H 	0.71030 0.77020 0.29340 0.06600
H 	H 	0.86520 0.73620 0.25560 0.09500
C 	C 	0.82290 0.61370 0.34110 0.13000
C 	C 	0.91640 0.50840 0.33050 -0.17800
H 	H 	0.95300 0.49380 0.28400 0.07900
C 	C 	0.95590 0.42470 0.38900 0.06800
H 	H 	0.02090 0.35460 0.38170 -0.02200
C 	C 	0.89950 0.44460 0.45740 -0.17100
H 	H 	0.92430 0.38700 0.49640 0.07300
C 	C 	0.80820 0.54740 0.46890 0.08400
H 	H 	0.77230 0.56060 0.51580 -0.00400
C 	C 	0.76740 0.63370 0.41090 -0.18100
H 	H 	0.70370 0.70400 0.41890 0.08600
O 	O 	0.96260 0.63930 0.15354 -0.29600
C 	C 	0.56480 0.59200 0.09220 -0.01900
C 	C 	0.62660 0.56840 0.02390 0.01500
H 	H 	0.57480 0.55280 0.99500 0.03400
C 	C 	0.77410 0.61330 0.10930 -0.03600
C 	C 	0.83220 0.59030 0.04060 0.02800
H 	H 	0.92420 0.59080 0.02350 -0.00400
C 	C 	0.42090 0.59300 0.12940 0.18100
C 	C 	0.83670 0.64100 0.16480 0.17600
C 	C 	0.41470 0.79760 0.31870 -0.01400
C 	C 	0.35480 0.82390 0.38650 0.01300
H 	H 	0.31290 0.90080 0.39180 0.00900
C 	C 	0.48230 0.60100 0.36930 -0.02400
C 	C 	0.41860 0.63080 0.43590 0.01900
H 	H 	0.41930 0.57240 0.47600 0.03100
C 	C 	0.41550 0.87580 0.24760 0.16100
C 	C 	0.56040 0.48570 0.34990 0.18000
C 	C 	0.69050 0.38880 0.25120 -0.12300
H 	H 	0.73120 0.33180 0.28990 0.04000
H 	H 	0.76600 0.40720 0.21510 0.04400
N 	N 	0.47640 0.68710 0.31240 -0.24200
N 	N 	0.35630 0.74010 0.44460 -0.16600
N 	N 	0.64100 0.61370 0.13250 -0.23800
N 	N 	0.75990 0.56760 0.99870 -0.16400
N 	N 	0.48170 0.81650 0.19388 -0.23300
N 	N 	0.60670 0.49380 0.27971 -0.25000
N 	N 	0.39990 0.61910 0.19523 -0.24500
N 	N 	0.74310 0.66620 0.22164 -0.24200
Co	Co	0.55824 0.64963 0.22270 1.17200
Ag	Ag	0.15116 0.49240 0.11553 0.53500
Ag	Ag	0.73670 0.22731 0.43517 0.49700
O 	O 	0.34020 0.57060 0.09808 -0.29200
O 	O 	0.35870 0.98250 0.24290 -0.22800
O 	O 	0.57290 0.39820 0.39870 -0.30200
C 	C 	0.52760 0.12110 0.87900 -0.18200
H 	H 	0.59060 0.04430 0.87680 0.10100
H 	H 	0.56780 0.16090 0.90350 0.07800
C 	C 	0.39080 0.10900 0.92310 0.17700
C 	C 	0.35760 0.13100 0.99360 -0.24100
H 	H 	0.42060 0.15220 0.01280 0.10900
C 	C 	0.23420 0.12170 0.03490 0.17100
H 	H 	0.21630 0.13100 0.08290 -0.04100
C 	C 	0.14140 0.09990 0.00720 -0.24800
H 	H 	0.05470 0.10070 0.03470 0.11000
C 	C 	0.16770 0.07590 0.93870 0.14800
H 	H 	0.10110 0.05730 0.92090 -0.02400
C 	C 	0.29780 0.07970 0.89500 -0.22900
H 	H 	0.31850 0.06260 0.84860 0.11500
C 	C 	0.73020 0.38730 0.75790 -0.12500
H 	H 	0.70920 0.43320 0.71170 0.05600
H 	H 	0.77640 0.42750 0.77870 0.05800
C 	C 	0.82950 0.27110 0.74550 0.10900
C 	C 	0.86510 0.18390 0.80340 -0.15100
H 	H 	0.82530 0.19620 0.85010 0.08900
C 	C 	0.95930 0.07900 0.79210 0.05800
H 	H 	0.98190 0.02120 0.83130 0.00400
C 	C 	0.01970 0.05920 0.72390 -0.12800
H 	H 	0.08400 0.98880 0.71660 0.05200
C 	C 	0.98360 0.14540 0.66640 0.05200
H 	H 	0.02320 0.13250 0.61980 -0.01100
C 	C 	0.88920 0.25080 0.67680 -0.15700
H 	H 	0.86610 0.30810 0.63740 0.08000
C 	C 	0.39210 0.66320 0.78190 0.11500
C 	C 	0.51940 0.67710 0.74660 -0.18600
H 	H 	0.55540 0.65240 0.70250 0.09100
C 	C 	0.59450 0.72720 0.77560 0.08900
H 	H 	0.67980 0.73660 0.75070 -0.01800
C 	C 	0.54510 0.76230 0.83960 -0.17700
H 	H 	0.59600 0.79620 0.85870 0.08400
C 	C 	0.42040 0.74840 0.87670 0.08500
H 	H 	0.38730 0.77200 0.92130 -0.00300
C 	C 	0.34200 0.69890 0.84810 -0.17500
H 	H 	0.25670 0.69010 0.87330 0.08300
C 	C 	0.21450 0.29350 0.72310 -0.15700
H 	H 	0.28970 0.22980 0.70660 0.06600
H 	H 	0.13480 0.26380 0.74440 0.09500
C 	C 	0.17710 0.38630 0.65890 0.13000
C 	C 	0.08360 0.49160 0.66950 -0.17800
H 	H 	0.04700 0.50620 0.71600 0.07900
C 	C 	0.04410 0.57530 0.61100 0.06800
H 	H 	0.97910 0.64540 0.61830 -0.02200
C 	C 	0.10050 0.55540 0.54260 -0.17100
H 	H 	0.07570 0.61300 0.50360 0.07300
C 	C 	0.19180 0.45260 0.53110 0.08400
H 	H 	0.22770 0.43940 0.48420 -0.00400
C 	C 	0.23260 0.36630 0.58910 -0.18100
H 	H 	0.29630 0.29600 0.58110 0.08600
O 	O 	0.03740 0.36070 0.84646 -0.29600
C 	C 	0.43520 0.40800 0.90780 -0.01900
C 	C 	0.37340 0.43160 0.97610 0.01500
H 	H 	0.42520 0.44720 0.00500 0.03400
C 	C 	0.22590 0.38670 0.89070 -0.03600
C 	C 	0.16780 0.40970 0.95940 0.02800
H 	H 	0.07580 0.40920 0.97650 -0.00400
C 	C 	0.57910 0.40700 0.87060 0.18100
C 	C 	0.16330 0.35900 0.83520 0.17600
C 	C 	0.58530 0.20240 0.68130 -0.01400
C 	C 	0.64520 0.17610 0.61350 0.01300
H 	H 	0.68710 0.09920 0.60820 0.00900
C 	C 	0.51770 0.39900 0.63070 -0.02400
C 	C 	0.58140 0.36920 0.56410 0.01900
H 	H 	0.58070 0.42760 0.52400 0.03100
C 	C 	0.58450 0.12420 0.75240 0.16100
C 	C 	0.43960 0.51430 0.65010 0.18000
C 	C 	0.30950 0.61120 0.74880 -0.12300
H 	H 	0.26880 0.66820 0.71010 0.04000
H 	H 	0.23400 0.59280 0.78490 0.04400
N 	N 	0.52360 0.31290 0.68760 -0.24200
N 	N 	0.64370 0.25990 0.55540 -0.16600
N 	N 	0.35900 0.38630 0.86750 -0.23800
N 	N 	0.24010 0.43240 0.00130 -0.16400
N 	N 	0.51830 0.18350 0.80612 -0.23300
N 	N 	0.39330 0.50620 0.72029 -0.25000
N 	N 	0.60010 0.38090 0.80477 -0.24500
N 	N 	0.25690 0.33380 0.77836 -0.24200
Co	Co	0.44176 0.35037 0.77730 1.17200
Ag	Ag	0.84884 0.50760 0.88447 0.53500
Ag	Ag	0.26330 0.77269 0.56483 0.49700
O 	O 	0.65980 0.42940 0.90192 -0.29200
O 	O 	0.64130 0.01750 0.75710 -0.22800
O 	O 	0.42710 0.60180 0.60130 -0.30200
