data_crystal

_cell_length_a 22.20030
_cell_length_b 22.20030
_cell_length_c 7.72980
_cell_angle_alpha 90.00000
_cell_angle_beta  90.00000
_cell_angle_gamma 120.00000

_symmetry_space_group_name_	'P 1'
_symmetry_space_group_name_H-M	'P 1'

loop_
_symmetry_equiv_pos_as_xyz
  x,y,z

loop_
_atom_site_label
_atom_site_type_symbol
_atom_site_fract_x
_atom_site_fract_y
_atom_site_fract_z
_atom_site_charge
C 	C 	0.48180 0.81250 0.85450 0.03100
H 	H 	0.45660 0.83520 0.86860 0.05300
O 	O 	0.50480 0.91910 0.63640 -0.35800
O 	O 	0.57750 0.00090 0.33260 -0.34300
N 	N 	0.50180 0.58060 0.32140 -0.23900
C 	C 	0.52810 0.83050 0.71250 -0.04000
C 	C 	0.53540 0.88590 0.59200 0.25100
C 	C 	0.51040 0.62000 0.03150 -0.15200
H 	H 	0.51500 0.61230 0.91530 0.12300
F 	F 	0.59970 0.95630 0.01980 -0.45200
C 	C 	0.50590 0.57330 0.15380 0.14600
H 	H 	0.50580 0.53350 0.11550 0.01700
C 	C 	0.63350 0.95640 0.16730 0.84700
C 	C 	0.59270 0.95380 0.32380 0.11200
C 	C 	0.51400 0.73030 0.95390 0.03800
C 	C 	0.57460 0.89840 0.43580 -0.20800
H 	H 	0.58900 0.86690 0.40710 0.16100
F 	F 	0.64860 0.90620 0.15110 -0.44500
C 	C 	0.47320 0.76250 0.97120 -0.06800
H 	H 	0.44100 0.74990 0.06040 0.05800
C 	C 	0.56310 0.79680 0.69530 0.02700
H 	H 	0.59460 0.80850 0.60470 0.07100
C 	C 	0.55390 0.74410 0.80950 -0.06300
H 	H 	0.57520 0.71800 0.78650 0.12000
F 	F 	0.69250 0.01500 0.16250 -0.47100
C 	C 	0.49550 0.68170 0.25640 -0.16600
H 	H 	0.48820 0.71700 0.29650 0.10000
C 	C 	0.49440 0.63420 0.36560 0.13400
H 	H 	0.48780 0.63930 0.48240 -0.01400
C 	C 	0.50790 0.67690 0.07970 0.12100
C 	C 	0.18750 0.66930 0.85450 0.02600
H 	H 	0.16480 0.62140 0.86860 0.05200
O 	O 	0.08090 0.58570 0.63640 -0.37500
O 	O 	0.99910 0.57660 0.33260 -0.25300
N 	N 	0.41940 0.92120 0.32140 -0.23100
C 	C 	0.16950 0.69760 0.71250 -0.03600
C 	C 	0.11410 0.64950 0.59200 0.23000
C 	C 	0.38000 0.89040 0.03150 -0.14800
H 	H 	0.38770 0.90270 0.91530 0.12600
F 	F 	0.04370 0.64340 0.01980 -0.47300
C 	C 	0.42670 0.93260 0.15380 0.14500
H 	H 	0.46650 0.97230 0.11550 0.03200
C 	C 	0.04360 0.67710 0.16730 0.81000
C 	C 	0.04620 0.63890 0.32380 0.01700
C 	C 	0.26970 0.78370 0.95390 0.03700
C 	C 	0.10160 0.67620 0.43580 -0.17400
H 	H 	0.13310 0.72210 0.40710 0.14700
F 	F 	0.09380 0.74240 0.15110 -0.45100
C 	C 	0.23750 0.71070 0.97120 -0.06600
H 	H 	0.25010 0.69110 0.06040 0.05800
C 	C 	0.20320 0.76630 0.69530 0.02100
H 	H 	0.19150 0.78610 0.60470 0.07000
C 	C 	0.25590 0.80980 0.80950 -0.06200
H 	H 	0.28200 0.85720 0.78650 0.12000
F 	F 	0.98500 0.67750 0.16250 -0.41700
C 	C 	0.31830 0.81380 0.25640 -0.16400
H 	H 	0.28300 0.77120 0.29650 0.10000
C 	C 	0.36580 0.86020 0.36560 0.13400
H 	H 	0.36070 0.84850 0.48240 -0.01300
C 	C 	0.32310 0.83100 0.07970 0.12000
C 	C 	0.33070 0.51820 0.85450 0.02700
H 	H 	0.37860 0.54340 0.86860 0.05200
O 	O 	0.41430 0.49520 0.63640 -0.37000
O 	O 	0.42340 0.42250 0.33260 -0.30100
N 	N 	0.07880 0.49820 0.32140 -0.24600
C 	C 	0.30240 0.47190 0.71250 -0.03900
C 	C 	0.35050 0.46460 0.59200 0.24000
C 	C 	0.10960 0.48960 0.03150 -0.15900
H 	H 	0.09730 0.48500 0.91530 0.12200
F 	F 	0.35660 0.40030 0.01980 -0.46400
C 	C 	0.06740 0.49410 0.15380 0.14600
H 	H 	0.02770 0.49420 0.11550 0.00200
C 	C 	0.32290 0.36650 0.16730 0.82900
C 	C 	0.36110 0.40730 0.32380 0.06300
C 	C 	0.21630 0.48600 0.95390 0.03500
C 	C 	0.32380 0.42540 0.43580 -0.19200
H 	H 	0.27790 0.41100 0.40710 0.15200
F 	F 	0.25760 0.35140 0.15110 -0.45600
C 	C 	0.28930 0.52680 0.97120 -0.06600
H 	H 	0.30890 0.55900 0.06040 0.05800
C 	C 	0.23370 0.43690 0.69530 0.02300
H 	H 	0.21390 0.40540 0.60470 0.06600
C 	C 	0.19020 0.44610 0.80950 -0.06400
H 	H 	0.14280 0.42480 0.78650 0.11600
F 	F 	0.32250 0.30750 0.16250 -0.45100
C 	C 	0.18620 0.50450 0.25640 -0.17000
H 	H 	0.22880 0.51180 0.29650 0.10100
C 	C 	0.13980 0.50560 0.36560 0.13300
H 	H 	0.15150 0.51220 0.48240 -0.01500
C 	C 	0.16900 0.49210 0.07970 0.12200
C 	C 	0.51820 0.18750 0.14550 0.02500
H 	H 	0.54340 0.16480 0.13140 0.05200
O 	O 	0.49520 0.08090 0.36360 -0.37500
O 	O 	0.42250 0.99910 0.66740 -0.25300
N 	N 	0.49820 0.41940 0.67860 -0.24000
C 	C 	0.47190 0.16950 0.28750 -0.03600
C 	C 	0.46460 0.11410 0.40800 0.22900
C 	C 	0.48960 0.38000 0.96850 -0.15300
H 	H 	0.48500 0.38770 0.08470 0.12300
F 	F 	0.40030 0.04370 0.98020 -0.47400
C 	C 	0.49410 0.42670 0.84620 0.14500
H 	H 	0.49420 0.46650 0.88450 0.01700
C 	C 	0.36650 0.04360 0.83270 0.81100
C 	C 	0.40730 0.04620 0.67620 0.01500
C 	C 	0.48600 0.26970 0.04610 0.03500
C 	C 	0.42540 0.10160 0.56420 -0.17400
H 	H 	0.41100 0.13310 0.59290 0.14500
F 	F 	0.35140 0.09380 0.84890 -0.45600
C 	C 	0.52680 0.23750 0.02880 -0.06500
H 	H 	0.55900 0.25010 0.93960 0.05700
C 	C 	0.43690 0.20320 0.30470 0.02000
H 	H 	0.40540 0.19150 0.39530 0.06700
C 	C 	0.44610 0.25590 0.19050 -0.06300
H 	H 	0.42480 0.28200 0.21350 0.11700
F 	F 	0.30750 0.98500 0.83750 -0.42100
C 	C 	0.50450 0.31830 0.74360 -0.16800
H 	H 	0.51180 0.28300 0.70350 0.10100
C 	C 	0.50560 0.36580 0.63440 0.13300
H 	H 	0.51220 0.36070 0.51760 -0.01400
C 	C 	0.49210 0.32310 0.92030 0.12100
C 	C 	0.81250 0.33070 0.14550 0.02900
H 	H 	0.83520 0.37860 0.13140 0.05200
O 	O 	0.91910 0.41430 0.36360 -0.35900
O 	O 	0.00090 0.42340 0.66740 -0.34400
N 	N 	0.58060 0.07880 0.67860 -0.24500
C 	C 	0.83050 0.30240 0.28750 -0.04100
C 	C 	0.88590 0.35050 0.40800 0.25000
C 	C 	0.62000 0.10960 0.96850 -0.15900
H 	H 	0.61230 0.09730 0.08470 0.12200
F 	F 	0.95630 0.35660 0.98020 -0.45300
C 	C 	0.57330 0.06740 0.84620 0.14600
H 	H 	0.53350 0.02770 0.88450 0.00100
C 	C 	0.95640 0.32290 0.83270 0.84800
C 	C 	0.95380 0.36110 0.67620 0.11000
C 	C 	0.73030 0.21630 0.04610 0.03600
C 	C 	0.89840 0.32380 0.56420 -0.20800
H 	H 	0.86690 0.27790 0.59290 0.15900
F 	F 	0.90620 0.25760 0.84890 -0.45000
C 	C 	0.76250 0.28930 0.02880 -0.06700
H 	H 	0.74990 0.30890 0.93960 0.05800
C 	C 	0.79680 0.23370 0.30470 0.02600
H 	H 	0.80850 0.21390 0.39530 0.06800
C 	C 	0.74410 0.19020 0.19050 -0.06400
H 	H 	0.71800 0.14280 0.21350 0.11700
F 	F 	0.01500 0.32250 0.83750 -0.47600
C 	C 	0.68170 0.18620 0.74360 -0.16900
H 	H 	0.71700 0.22880 0.70350 0.10100
C 	C 	0.63420 0.13980 0.63440 0.13400
H 	H 	0.63930 0.15150 0.51760 -0.01500
C 	C 	0.67690 0.16900 0.92030 0.12200
C 	C 	0.66930 0.48180 0.14550 0.02900
H 	H 	0.62140 0.45660 0.13140 0.05200
O 	O 	0.58570 0.50480 0.36360 -0.37000
O 	O 	0.57660 0.57750 0.66740 -0.30100
N 	N 	0.92120 0.50180 0.67860 -0.23100
C 	C 	0.69760 0.52810 0.28750 -0.03900
C 	C 	0.64950 0.53540 0.40800 0.24200
C 	C 	0.89040 0.51040 0.96850 -0.14700
H 	H 	0.90270 0.51500 0.08470 0.12500
F 	F 	0.64340 0.59970 0.98020 -0.46200
C 	C 	0.93260 0.50590 0.84620 0.14500
H 	H 	0.97230 0.50580 0.88450 0.03200
C 	C 	0.67710 0.63350 0.83270 0.82800
C 	C 	0.63890 0.59270 0.67620 0.06600
C 	C 	0.78370 0.51400 0.04610 0.03900
C 	C 	0.67620 0.57460 0.56420 -0.19300
H 	H 	0.72210 0.58900 0.59290 0.15600
F 	F 	0.74240 0.64860 0.84890 -0.44500
C 	C 	0.71070 0.47320 0.02880 -0.06800
H 	H 	0.69110 0.44100 0.93960 0.05800
C 	C 	0.76630 0.56310 0.30470 0.02500
H 	H 	0.78610 0.59460 0.39530 0.07200
C 	C 	0.80980 0.55390 0.19050 -0.06300
H 	H 	0.85720 0.57520 0.21350 0.12200
F 	F 	0.67750 0.69250 0.83750 -0.44200
C 	C 	0.81380 0.49550 0.74360 -0.16400
H 	H 	0.77120 0.48820 0.70350 0.10000
C 	C 	0.86020 0.49440 0.63440 0.13400
H 	H 	0.84850 0.48780 0.51760 -0.01300
C 	C 	0.83100 0.50790 0.92030 0.12000
Mn	Mn	0.50000 0.00000 0.50000 1.28700
Mn	Mn	-0.00000 0.50000 0.50000 1.28700
Mn	Mn	0.50000 0.50000 0.50000 1.30200
