data_crystal

_cell_length_a 33.13000
_cell_length_b 13.57200
_cell_length_c 14.04900
_cell_angle_alpha 90.00000
_cell_angle_beta  101.32400
_cell_angle_gamma 90.00000

_symmetry_space_group_name_	'P 1'
_symmetry_space_group_name_H-M	'P 1'

loop_
_symmetry_equiv_pos_as_xyz
  x,y,z

loop_
_atom_site_label
_atom_site_type_symbol
_atom_site_fract_x
_atom_site_fract_y
_atom_site_fract_z
_atom_site_charge
C 	C 	0.24734 0.92420 0.92600 0.41800
C 	C 	0.22109 0.99750 0.86360 -0.15700
C 	C 	0.23778 0.05380 0.79890 0.08400
H 	H 	0.26520 0.04620 0.79440 0.01200
C 	C 	0.21328 0.12160 0.74090 -0.16100
C 	C 	0.17282 0.13620 0.75180 0.03400
H 	H 	0.15670 0.18300 0.71340 0.03100
C 	C 	0.15605 0.08310 0.81800 -0.05800
C 	C 	0.18012 0.01160 0.87220 0.02000
H 	H 	0.16890 0.97250 0.91480 0.02700
C 	C 	0.22974 0.17810 0.66430 0.46300
C 	C 	0.11361 0.10290 0.83320 0.06800
C 	C 	0.09764 0.19870 0.82160 -0.10200
H 	H 	0.11310 0.24860 0.80090 0.06700
C 	C 	0.05892 0.21990 0.84070 -0.00300
H 	H 	0.04890 0.28390 0.83210 0.02800
C 	C 	0.03549 0.14990 0.87140 -0.04100
C 	C 	0.05062 0.05270 0.88170 -0.00700
H 	H 	0.03490 0.00300 0.90200 0.03000
C 	C 	0.08964 0.03090 0.86130 -0.10900
H 	H 	0.09920 0.96640 0.86710 0.07300
C 	C 	0.99540 0.17350 0.90040 0.09300
C 	C 	0.98680 0.26670 0.92380 -0.15200
H 	H 	0.00620 0.31600 0.92240 0.07800
C 	C 	0.94970 0.29070 0.94990 0.06400
H 	H 	0.94400 0.35610 0.96220 0.01400
C 	C 	0.92128 0.21900 0.95760 -0.13600
C 	C 	0.92915 0.12610 0.93150 0.06500
H 	H 	0.90960 0.07730 0.93300 0.01900
C 	C 	0.96583 0.10110 0.90240 -0.14600
H 	H 	0.97040 0.03670 0.88450 0.08100
C 	C 	0.88254 0.24450 0.99190 0.34700
O 	O 	0.28530 0.93850 0.94870 -0.43900
O 	O 	0.23082 0.84810 0.95560 -0.54800
O 	O 	0.86209 0.17530 0.01830 -0.40800
O 	O 	0.87138 0.33130 0.99340 -0.43400
O 	O 	0.20697 0.24190 0.61770 -0.46400
O 	O 	0.26590 0.15810 0.65530 -0.50500
Tb	Tb	0.30779 0.79391 0.04524 1.74300
C 	C 	0.74734 0.42420 0.92600 0.42200
C 	C 	0.72109 0.49750 0.86360 -0.16300
C 	C 	0.73778 0.55380 0.79890 0.09200
H 	H 	0.76520 0.54620 0.79440 0.01200
C 	C 	0.71328 0.62160 0.74090 -0.16300
C 	C 	0.67282 0.63620 0.75180 0.03900
H 	H 	0.65670 0.68300 0.71340 0.03100
C 	C 	0.65605 0.58310 0.81800 -0.06100
C 	C 	0.68012 0.51160 0.87220 0.02900
H 	H 	0.66890 0.47250 0.91480 0.02300
C 	C 	0.72974 0.67810 0.66430 0.46400
C 	C 	0.61361 0.60290 0.83320 0.06800
C 	C 	0.59764 0.69870 0.82160 -0.10200
H 	H 	0.61310 0.74860 0.80090 0.06800
C 	C 	0.55892 0.71990 0.84070 -0.00400
H 	H 	0.54890 0.78390 0.83210 0.02800
C 	C 	0.53549 0.64990 0.87140 -0.04000
C 	C 	0.55062 0.55270 0.88170 -0.00900
H 	H 	0.53490 0.50300 0.90200 0.03100
C 	C 	0.58964 0.53090 0.86130 -0.10500
H 	H 	0.59920 0.46640 0.86710 0.07100
C 	C 	0.49540 0.67350 0.90040 0.09300
C 	C 	0.48680 0.76670 0.92380 -0.15300
H 	H 	0.50620 0.81600 0.92240 0.07800
C 	C 	0.44970 0.79070 0.94990 0.06500
H 	H 	0.44400 0.85610 0.96220 0.01400
C 	C 	0.42128 0.71900 0.95760 -0.13700
C 	C 	0.42915 0.62610 0.93150 0.06600
H 	H 	0.40960 0.57730 0.93300 0.01900
C 	C 	0.46583 0.60110 0.90240 -0.14700
H 	H 	0.47040 0.53670 0.88450 0.08100
C 	C 	0.38254 0.74450 0.99190 0.34900
O 	O 	0.78530 0.43850 0.94870 -0.44100
O 	O 	0.73082 0.34810 0.95560 -0.54900
O 	O 	0.36209 0.67530 0.01830 -0.41000
O 	O 	0.37138 0.83130 0.99340 -0.43400
O 	O 	0.70697 0.74190 0.61770 -0.46400
O 	O 	0.76590 0.65810 0.65530 -0.50500
Tb	Tb	0.80779 0.29391 0.04524 1.74800
C 	C 	0.75266 0.92420 0.57400 0.42100
C 	C 	0.77891 0.99750 0.63640 -0.16100
C 	C 	0.76222 0.05380 0.70110 0.08900
H 	H 	0.73480 0.04620 0.70560 0.01200
C 	C 	0.78672 0.12160 0.75910 -0.16200
C 	C 	0.82718 0.13620 0.74820 0.03800
H 	H 	0.84330 0.18300 0.78660 0.03100
C 	C 	0.84395 0.08310 0.68200 -0.06000
C 	C 	0.81988 0.01160 0.62780 0.02600
H 	H 	0.83110 0.97250 0.58520 0.02400
C 	C 	0.77026 0.17810 0.83570 0.46400
C 	C 	0.88639 0.10290 0.66680 0.06800
C 	C 	0.90236 0.19870 0.67840 -0.10200
H 	H 	0.88690 0.24860 0.69910 0.06800
C 	C 	0.94108 0.21990 0.65930 -0.00400
H 	H 	0.95110 0.28390 0.66790 0.02800
C 	C 	0.96451 0.14990 0.62860 -0.04000
C 	C 	0.94938 0.05270 0.61830 -0.00800
H 	H 	0.96510 0.00300 0.59800 0.03100
C 	C 	0.91036 0.03090 0.63870 -0.10700
H 	H 	0.90080 0.96640 0.63290 0.07200
C 	C 	0.00460 0.17350 0.59960 0.09300
C 	C 	0.01320 0.26670 0.57620 -0.15300
H 	H 	0.99380 0.31600 0.57760 0.07800
C 	C 	0.05030 0.29070 0.55010 0.06400
H 	H 	0.05600 0.35610 0.53780 0.01400
C 	C 	0.07872 0.21900 0.54240 -0.13700
C 	C 	0.07085 0.12610 0.56850 0.06500
H 	H 	0.09040 0.07730 0.56700 0.01900
C 	C 	0.03417 0.10110 0.59760 -0.14600
H 	H 	0.02960 0.03670 0.61550 0.08100
C 	C 	0.11746 0.24450 0.50810 0.34900
O 	O 	0.71470 0.93850 0.55130 -0.44000
O 	O 	0.76918 0.84810 0.54440 -0.54900
O 	O 	0.13791 0.17530 0.48170 -0.40900
O 	O 	0.12862 0.33130 0.50660 -0.43400
O 	O 	0.79303 0.24190 0.88230 -0.46500
O 	O 	0.73410 0.15810 0.84470 -0.50500
Tb	Tb	0.69221 0.79391 0.45476 1.74600
C 	C 	0.25266 0.42420 0.57400 0.42200
C 	C 	0.27891 0.49750 0.63640 -0.16300
C 	C 	0.26222 0.55380 0.70110 0.09200
H 	H 	0.23480 0.54620 0.70560 0.01200
C 	C 	0.28672 0.62160 0.75910 -0.16300
C 	C 	0.32718 0.63620 0.74820 0.03900
H 	H 	0.34330 0.68300 0.78660 0.03100
C 	C 	0.34395 0.58310 0.68200 -0.06100
C 	C 	0.31988 0.51160 0.62780 0.02900
H 	H 	0.33110 0.47250 0.58520 0.02300
C 	C 	0.27026 0.67810 0.83570 0.46400
C 	C 	0.38639 0.60290 0.66680 0.06800
C 	C 	0.40236 0.69870 0.67840 -0.10200
H 	H 	0.38690 0.74860 0.69910 0.06800
C 	C 	0.44108 0.71990 0.65930 -0.00400
H 	H 	0.45110 0.78390 0.66790 0.02800
C 	C 	0.46451 0.64990 0.62860 -0.04000
C 	C 	0.44938 0.55270 0.61830 -0.00900
H 	H 	0.46510 0.50300 0.59800 0.03200
C 	C 	0.41036 0.53090 0.63870 -0.10500
H 	H 	0.40080 0.46640 0.63290 0.07100
C 	C 	0.50460 0.67350 0.59960 0.09300
C 	C 	0.51320 0.76670 0.57620 -0.15300
H 	H 	0.49380 0.81600 0.57760 0.07800
C 	C 	0.55030 0.79070 0.55010 0.06400
H 	H 	0.55600 0.85610 0.53780 0.01400
C 	C 	0.57872 0.71900 0.54240 -0.13700
C 	C 	0.57085 0.62610 0.56850 0.06500
H 	H 	0.59040 0.57730 0.56700 0.01900
C 	C 	0.53417 0.60110 0.59760 -0.14600
H 	H 	0.52960 0.53670 0.61550 0.08100
C 	C 	0.61746 0.74450 0.50810 0.34900
O 	O 	0.21470 0.43850 0.55130 -0.44100
O 	O 	0.26918 0.34810 0.54440 -0.54900
O 	O 	0.63791 0.67530 0.48170 -0.40900
O 	O 	0.62862 0.83130 0.50660 -0.43400
O 	O 	0.29303 0.74190 0.88230 -0.46400
O 	O 	0.23410 0.65810 0.84470 -0.50500
Tb	Tb	0.19221 0.29391 0.45476 1.74700
C 	C 	0.75266 0.07580 0.07400 0.41900
C 	C 	0.77891 0.00250 0.13640 -0.15600
C 	C 	0.76222 0.94620 0.20110 0.08500
H 	H 	0.73480 0.95380 0.20560 0.01300
C 	C 	0.78672 0.87840 0.25910 -0.16000
C 	C 	0.82718 0.86380 0.24820 0.03500
H 	H 	0.84330 0.81700 0.28660 0.03200
C 	C 	0.84395 0.91690 0.18200 -0.05700
C 	C 	0.81988 0.98840 0.12780 0.02000
H 	H 	0.83110 0.02750 0.08520 0.02700
C 	C 	0.77026 0.82190 0.33570 0.46300
C 	C 	0.88639 0.89710 0.16680 0.06800
C 	C 	0.90236 0.80130 0.17840 -0.10200
H 	H 	0.88690 0.75140 0.19910 0.06700
C 	C 	0.94108 0.78010 0.15930 -0.00300
H 	H 	0.95110 0.71610 0.16790 0.02800
C 	C 	0.96451 0.85010 0.12860 -0.04100
C 	C 	0.94938 0.94730 0.11830 -0.00700
H 	H 	0.96510 0.99700 0.09800 0.03000
C 	C 	0.91036 0.96910 0.13870 -0.10900
H 	H 	0.90080 0.03360 0.13290 0.07300
C 	C 	0.00460 0.82650 0.09960 0.09300
C 	C 	0.01320 0.73330 0.07620 -0.15200
H 	H 	0.99380 0.68400 0.07760 0.07800
C 	C 	0.05030 0.70930 0.05010 0.06400
H 	H 	0.05600 0.64390 0.03780 0.01400
C 	C 	0.07872 0.78100 0.04240 -0.13600
C 	C 	0.07085 0.87390 0.06850 0.06500
H 	H 	0.09040 0.92270 0.06700 0.01900
C 	C 	0.03417 0.89890 0.09760 -0.14600
H 	H 	0.02960 0.96330 0.11550 0.08100
C 	C 	0.11746 0.75550 0.00810 0.34700
O 	O 	0.71470 0.06150 0.05130 -0.43900
O 	O 	0.76918 0.15190 0.04440 -0.54800
O 	O 	0.13791 0.82470 0.98170 -0.40800
O 	O 	0.12862 0.66870 0.00660 -0.43400
O 	O 	0.79303 0.75810 0.38230 -0.46400
O 	O 	0.73410 0.84190 0.34470 -0.50500
Tb	Tb	0.69221 0.20609 0.95476 1.74300
C 	C 	0.25266 0.57580 0.07400 0.42200
C 	C 	0.27891 0.50250 0.13640 -0.16300
C 	C 	0.26222 0.44620 0.20110 0.09200
H 	H 	0.23480 0.45380 0.20560 0.01200
C 	C 	0.28672 0.37840 0.25910 -0.16300
C 	C 	0.32718 0.36380 0.24820 0.03900
H 	H 	0.34330 0.31700 0.28660 0.03100
C 	C 	0.34395 0.41690 0.18200 -0.06100
C 	C 	0.31988 0.48840 0.12780 0.02900
H 	H 	0.33110 0.52750 0.08520 0.02300
C 	C 	0.27026 0.32190 0.33570 0.46400
C 	C 	0.38639 0.39710 0.16680 0.06800
C 	C 	0.40236 0.30130 0.17840 -0.10200
H 	H 	0.38690 0.25140 0.19910 0.06800
C 	C 	0.44108 0.28010 0.15930 -0.00400
H 	H 	0.45110 0.21610 0.16790 0.02800
C 	C 	0.46451 0.35010 0.12860 -0.04000
C 	C 	0.44938 0.44730 0.11830 -0.00900
H 	H 	0.46510 0.49700 0.09800 0.03100
C 	C 	0.41036 0.46910 0.13870 -0.10500
H 	H 	0.40080 0.53360 0.13290 0.07100
C 	C 	0.50460 0.32650 0.09960 0.09300
C 	C 	0.51320 0.23330 0.07620 -0.15300
H 	H 	0.49380 0.18400 0.07760 0.07800
C 	C 	0.55030 0.20930 0.05010 0.06500
H 	H 	0.55600 0.14390 0.03780 0.01400
C 	C 	0.57872 0.28100 0.04240 -0.13700
C 	C 	0.57085 0.37390 0.06850 0.06600
H 	H 	0.59040 0.42270 0.06700 0.01900
C 	C 	0.53417 0.39890 0.09760 -0.14700
H 	H 	0.52960 0.46330 0.11550 0.08100
C 	C 	0.61746 0.25550 0.00810 0.34900
O 	O 	0.21470 0.56150 0.05130 -0.44100
O 	O 	0.26918 0.65190 0.04440 -0.54900
O 	O 	0.63791 0.32470 0.98170 -0.41000
O 	O 	0.62862 0.16870 0.00660 -0.43400
O 	O 	0.29303 0.25810 0.38230 -0.46400
O 	O 	0.23410 0.34190 0.34470 -0.50500
Tb	Tb	0.19221 0.70609 0.95476 1.74800
C 	C 	0.24734 0.07580 0.42600 0.42100
C 	C 	0.22109 0.00250 0.36360 -0.16100
C 	C 	0.23778 0.94620 0.29890 0.08900
H 	H 	0.26520 0.95380 0.29440 0.01200
C 	C 	0.21328 0.87840 0.24090 -0.16200
C 	C 	0.17282 0.86380 0.25180 0.03800
H 	H 	0.15670 0.81700 0.21340 0.03100
C 	C 	0.15605 0.91690 0.31800 -0.06000
C 	C 	0.18012 0.98840 0.37220 0.02600
H 	H 	0.16890 0.02750 0.41480 0.02400
C 	C 	0.22974 0.82190 0.16430 0.46400
C 	C 	0.11361 0.89710 0.33320 0.06800
C 	C 	0.09764 0.80130 0.32160 -0.10200
H 	H 	0.11310 0.75140 0.30090 0.06800
C 	C 	0.05892 0.78010 0.34070 -0.00400
H 	H 	0.04890 0.71610 0.33210 0.02800
C 	C 	0.03549 0.85010 0.37140 -0.04000
C 	C 	0.05062 0.94730 0.38170 -0.00800
H 	H 	0.03490 0.99700 0.40200 0.03100
C 	C 	0.08964 0.96910 0.36130 -0.10700
H 	H 	0.09920 0.03360 0.36710 0.07200
C 	C 	0.99540 0.82650 0.40040 0.09300
C 	C 	0.98680 0.73330 0.42380 -0.15300
H 	H 	0.00620 0.68400 0.42240 0.07800
C 	C 	0.94970 0.70930 0.44990 0.06400
H 	H 	0.94400 0.64390 0.46220 0.01400
C 	C 	0.92128 0.78100 0.45760 -0.13700
C 	C 	0.92915 0.87390 0.43150 0.06500
H 	H 	0.90960 0.92270 0.43300 0.01900
C 	C 	0.96583 0.89890 0.40240 -0.14600
H 	H 	0.97040 0.96330 0.38450 0.08100
C 	C 	0.88254 0.75550 0.49190 0.34900
O 	O 	0.28530 0.06150 0.44870 -0.44000
O 	O 	0.23082 0.15190 0.45560 -0.54900
O 	O 	0.86209 0.82470 0.51830 -0.40900
O 	O 	0.87138 0.66870 0.49340 -0.43400
O 	O 	0.20697 0.75810 0.11770 -0.46500
O 	O 	0.26590 0.84190 0.15530 -0.50500
Tb	Tb	0.30779 0.20609 0.54524 1.74600
C 	C 	0.74734 0.57580 0.42600 0.42200
C 	C 	0.72109 0.50250 0.36360 -0.16300
C 	C 	0.73778 0.44620 0.29890 0.09200
H 	H 	0.76520 0.45380 0.29440 0.01200
C 	C 	0.71328 0.37840 0.24090 -0.16300
C 	C 	0.67282 0.36380 0.25180 0.03900
H 	H 	0.65670 0.31700 0.21340 0.03100
C 	C 	0.65605 0.41690 0.31800 -0.06100
C 	C 	0.68012 0.48840 0.37220 0.02900
H 	H 	0.66890 0.52750 0.41480 0.02300
C 	C 	0.72974 0.32190 0.16430 0.46400
C 	C 	0.61361 0.39710 0.33320 0.06800
C 	C 	0.59764 0.30130 0.32160 -0.10200
H 	H 	0.61310 0.25140 0.30090 0.06800
C 	C 	0.55892 0.28010 0.34070 -0.00400
H 	H 	0.54890 0.21610 0.33210 0.02800
C 	C 	0.53549 0.35010 0.37140 -0.04000
C 	C 	0.55062 0.44730 0.38170 -0.00900
H 	H 	0.53490 0.49700 0.40200 0.03200
C 	C 	0.58964 0.46910 0.36130 -0.10500
H 	H 	0.59920 0.53360 0.36710 0.07100
C 	C 	0.49540 0.32650 0.40040 0.09300
C 	C 	0.48680 0.23330 0.42380 -0.15300
H 	H 	0.50620 0.18400 0.42240 0.07800
C 	C 	0.44970 0.20930 0.44990 0.06400
H 	H 	0.44400 0.14390 0.46220 0.01400
C 	C 	0.42128 0.28100 0.45760 -0.13700
C 	C 	0.42915 0.37390 0.43150 0.06500
H 	H 	0.40960 0.42270 0.43300 0.01900
C 	C 	0.46583 0.39890 0.40240 -0.14600
H 	H 	0.47040 0.46330 0.38450 0.08100
C 	C 	0.38254 0.25550 0.49190 0.34900
O 	O 	0.78530 0.56150 0.44870 -0.44100
O 	O 	0.73082 0.65190 0.45560 -0.54900
O 	O 	0.36209 0.32470 0.51830 -0.40900
O 	O 	0.37138 0.16870 0.49340 -0.43400
O 	O 	0.70697 0.25810 0.11770 -0.46400
O 	O 	0.76590 0.34190 0.15530 -0.50500
Tb	Tb	0.80779 0.70609 0.54524 1.74700
