data_crystal

_cell_length_a 33.69000
_cell_length_b 12.97000
_cell_length_c 14.77100
_cell_angle_alpha 90.00000
_cell_angle_beta  101.57200
_cell_angle_gamma 90.00000

_symmetry_space_group_name_	'P 1'
_symmetry_space_group_name_H-M	'P 1'

loop_
_symmetry_equiv_pos_as_xyz
  x,y,z

loop_
_atom_site_label
_atom_site_type_symbol
_atom_site_fract_x
_atom_site_fract_y
_atom_site_fract_z
_atom_site_charge
C 	C 	0.25256 0.43790 0.06920 0.35100
C 	C 	0.28008 0.50920 0.13420 -0.11600
C 	C 	0.26420 0.56470 0.20000 0.04300
H 	H 	0.23710 0.55710 0.20370 0.03000
C 	C 	0.28893 0.63070 0.25930 -0.10800
C 	C 	0.32923 0.64510 0.25170 -0.00500
H 	H 	0.34550 0.69080 0.29130 0.04600
C 	C 	0.34546 0.59160 0.18520 -0.02600
C 	C 	0.32031 0.52120 0.12830 -0.01100
H 	H 	0.33090 0.48210 0.08590 0.03200
C 	C 	0.27247 0.68870 0.33370 0.37800
C 	C 	0.38763 0.61130 0.17170 0.04500
C 	C 	0.40464 0.70960 0.18570 -0.08300
H 	H 	0.39040 0.76110 0.20940 0.05900
C 	C 	0.44250 0.73280 0.16520 -0.02100
H 	H 	0.45280 0.79940 0.17440 0.03400
C 	C 	0.46479 0.65710 0.13110 -0.02600
C 	C 	0.44849 0.55880 0.12140 -0.01900
H 	H 	0.46340 0.50590 0.10180 0.03600
C 	C 	0.41060 0.53670 0.14000 -0.08900
H 	H 	0.40050 0.47000 0.13080 0.06500
C 	C 	0.50388 0.68190 0.10260 0.07600
C 	C 	0.51260 0.78240 0.08010 -0.13200
H 	H 	0.49430 0.83500 0.08440 0.07200
C 	C 	0.54834 0.80470 0.05120 0.04600
H 	H 	0.55400 0.87280 0.03870 0.02000
C 	C 	0.57573 0.72890 0.04030 -0.11900
C 	C 	0.56777 0.63160 0.06500 0.04800
H 	H 	0.58620 0.57930 0.06060 0.02500
C 	C 	0.53240 0.60810 0.09700 -0.13100
H 	H 	0.52820 0.54090 0.11490 0.07500
C 	C 	0.61325 0.75340 0.00390 0.31300
La	La	0.30913 0.19977 0.05111 1.58800
O 	O 	0.26786 0.36050 0.03640 -0.48400
O 	O 	0.21521 0.45800 0.04930 -0.38900
O 	O 	0.23578 0.67130 0.33650 -0.44600
O 	O 	0.29602 0.75000 0.38430 -0.40400
O 	O 	0.62353 0.84650 0.99710 -0.38500
O 	O 	0.63314 0.67950 0.97870 -0.38000
C 	C 	0.75256 0.93790 0.06920 0.35100
C 	C 	0.78008 0.00920 0.13420 -0.11700
C 	C 	0.76420 0.06470 0.20000 0.04200
H 	H 	0.73710 0.05710 0.20370 0.02900
C 	C 	0.78893 0.13070 0.25930 -0.10900
C 	C 	0.82923 0.14510 0.25170 -0.00600
H 	H 	0.84550 0.19080 0.29130 0.04500
C 	C 	0.84546 0.09160 0.18520 -0.02700
C 	C 	0.82031 0.02120 0.12830 -0.01200
H 	H 	0.83090 0.98210 0.08590 0.03300
C 	C 	0.77247 0.18870 0.33370 0.37800
C 	C 	0.88763 0.11130 0.17170 0.04600
C 	C 	0.90464 0.20960 0.18570 -0.08300
H 	H 	0.89040 0.26110 0.20940 0.05900
C 	C 	0.94250 0.23280 0.16520 -0.02100
H 	H 	0.95280 0.29940 0.17440 0.03400
C 	C 	0.96479 0.15710 0.13110 -0.02600
C 	C 	0.94849 0.05880 0.12140 -0.01900
H 	H 	0.96340 0.00590 0.10180 0.03500
C 	C 	0.91060 0.03670 0.14000 -0.09100
H 	H 	0.90050 0.97000 0.13080 0.06600
C 	C 	0.00388 0.18190 0.10260 0.07600
C 	C 	0.01260 0.28240 0.08010 -0.13200
H 	H 	0.99430 0.33500 0.08440 0.07200
C 	C 	0.04834 0.30470 0.05120 0.04600
H 	H 	0.05400 0.37280 0.03870 0.02100
C 	C 	0.07573 0.22890 0.04030 -0.11900
C 	C 	0.06777 0.13160 0.06500 0.04700
H 	H 	0.08620 0.07930 0.06060 0.02400
C 	C 	0.03240 0.10810 0.09700 -0.13100
H 	H 	0.02820 0.04090 0.11490 0.07500
C 	C 	0.11325 0.25340 0.00390 0.31100
La	La	0.80913 0.69977 0.05111 1.58800
O 	O 	0.76786 0.86050 0.03640 -0.48400
O 	O 	0.71521 0.95800 0.04930 -0.38900
O 	O 	0.73578 0.17130 0.33650 -0.44600
O 	O 	0.79602 0.25000 0.38430 -0.40400
O 	O 	0.12353 0.34650 0.99710 -0.38400
O 	O 	0.13314 0.17950 0.97870 -0.37900
C 	C 	0.74744 0.43790 0.43080 0.35000
C 	C 	0.71992 0.50920 0.36580 -0.11700
C 	C 	0.73580 0.56470 0.30000 0.04200
H 	H 	0.76290 0.55710 0.29630 0.02900
C 	C 	0.71107 0.63070 0.24070 -0.10900
C 	C 	0.67077 0.64510 0.24830 -0.00600
H 	H 	0.65450 0.69080 0.20870 0.04500
C 	C 	0.65454 0.59160 0.31480 -0.02700
C 	C 	0.67969 0.52120 0.37170 -0.01100
H 	H 	0.66910 0.48210 0.41410 0.03200
C 	C 	0.72753 0.68870 0.16630 0.37700
C 	C 	0.61237 0.61130 0.32830 0.04500
C 	C 	0.59536 0.70960 0.31430 -0.08300
H 	H 	0.60960 0.76110 0.29060 0.05900
C 	C 	0.55750 0.73280 0.33480 -0.02100
H 	H 	0.54720 0.79940 0.32560 0.03400
C 	C 	0.53521 0.65710 0.36890 -0.02600
C 	C 	0.55151 0.55880 0.37860 -0.01900
H 	H 	0.53660 0.50590 0.39820 0.03600
C 	C 	0.58940 0.53670 0.36000 -0.08900
H 	H 	0.59950 0.47000 0.36920 0.06500
C 	C 	0.49612 0.68190 0.39740 0.07600
C 	C 	0.48740 0.78240 0.41990 -0.13200
H 	H 	0.50570 0.83500 0.41560 0.07200
C 	C 	0.45166 0.80470 0.44880 0.04600
H 	H 	0.44600 0.87280 0.46130 0.02000
C 	C 	0.42427 0.72890 0.45970 -0.11900
C 	C 	0.43223 0.63160 0.43500 0.04800
H 	H 	0.41380 0.57930 0.43940 0.02500
C 	C 	0.46760 0.60810 0.40300 -0.13100
H 	H 	0.47180 0.54090 0.38510 0.07500
C 	C 	0.38675 0.75340 0.49610 0.31200
La	La	0.69087 0.19977 0.44889 1.58800
O 	O 	0.73214 0.36050 0.46360 -0.48400
O 	O 	0.78479 0.45800 0.45070 -0.38900
O 	O 	0.76422 0.67130 0.16350 -0.44600
O 	O 	0.70398 0.75000 0.11570 -0.40300
O 	O 	0.37647 0.84650 0.50290 -0.38500
O 	O 	0.36686 0.67950 0.52130 -0.38000
C 	C 	0.24744 0.93790 0.43080 0.35000
C 	C 	0.21992 0.00920 0.36580 -0.11700
C 	C 	0.23580 0.06470 0.30000 0.04200
H 	H 	0.26290 0.05710 0.29630 0.02900
C 	C 	0.21107 0.13070 0.24070 -0.10900
C 	C 	0.17077 0.14510 0.24830 -0.00600
H 	H 	0.15450 0.19080 0.20870 0.04500
C 	C 	0.15454 0.09160 0.31480 -0.02700
C 	C 	0.17969 0.02120 0.37170 -0.01100
H 	H 	0.16910 0.98210 0.41410 0.03200
C 	C 	0.22753 0.18870 0.16630 0.37800
C 	C 	0.11237 0.11130 0.32830 0.04600
C 	C 	0.09536 0.20960 0.31430 -0.08300
H 	H 	0.10960 0.26110 0.29060 0.05900
C 	C 	0.05750 0.23280 0.33480 -0.02100
H 	H 	0.04720 0.29940 0.32560 0.03400
C 	C 	0.03521 0.15710 0.36890 -0.02600
C 	C 	0.05151 0.05880 0.37860 -0.01900
H 	H 	0.03660 0.00590 0.39820 0.03600
C 	C 	0.08940 0.03670 0.36000 -0.09000
H 	H 	0.09950 0.97000 0.36920 0.06500
C 	C 	0.99612 0.18190 0.39740 0.07600
C 	C 	0.98740 0.28240 0.41990 -0.13200
H 	H 	0.00570 0.33500 0.41560 0.07200
C 	C 	0.95166 0.30470 0.44880 0.04600
H 	H 	0.94600 0.37280 0.46130 0.02000
C 	C 	0.92427 0.22890 0.45970 -0.11900
C 	C 	0.93223 0.13160 0.43500 0.04800
H 	H 	0.91380 0.07930 0.43940 0.02500
C 	C 	0.96760 0.10810 0.40300 -0.13100
H 	H 	0.97180 0.04090 0.38510 0.07500
C 	C 	0.88675 0.25340 0.49610 0.31200
La	La	0.19087 0.69977 0.44889 1.58800
O 	O 	0.23214 0.86050 0.46360 -0.48400
O 	O 	0.28479 0.95800 0.45070 -0.39000
O 	O 	0.26422 0.17130 0.16350 -0.44600
O 	O 	0.20398 0.25000 0.11570 -0.40400
O 	O 	0.87647 0.34650 0.50290 -0.38500
O 	O 	0.86686 0.17950 0.52130 -0.38000
C 	C 	0.74744 0.56210 0.93080 0.35000
C 	C 	0.71992 0.49080 0.86580 -0.11700
C 	C 	0.73580 0.43530 0.80000 0.04200
H 	H 	0.76290 0.44290 0.79630 0.02900
C 	C 	0.71107 0.36930 0.74070 -0.10900
C 	C 	0.67077 0.35490 0.74830 -0.00600
H 	H 	0.65450 0.30920 0.70870 0.04500
C 	C 	0.65454 0.40840 0.81480 -0.02700
C 	C 	0.67969 0.47880 0.87170 -0.01100
H 	H 	0.66910 0.51790 0.91410 0.03200
C 	C 	0.72753 0.31130 0.66630 0.37800
C 	C 	0.61237 0.38870 0.82830 0.04500
C 	C 	0.59536 0.29040 0.81430 -0.08300
H 	H 	0.60960 0.23890 0.79060 0.05900
C 	C 	0.55750 0.26720 0.83480 -0.02100
H 	H 	0.54720 0.20060 0.82560 0.03400
C 	C 	0.53521 0.34290 0.86890 -0.02600
C 	C 	0.55151 0.44120 0.87860 -0.01900
H 	H 	0.53660 0.49410 0.89820 0.03600
C 	C 	0.58940 0.46330 0.86000 -0.08900
H 	H 	0.59950 0.53000 0.86920 0.06500
C 	C 	0.49612 0.31810 0.89740 0.07600
C 	C 	0.48740 0.21760 0.91990 -0.13200
H 	H 	0.50570 0.16500 0.91560 0.07200
C 	C 	0.45166 0.19530 0.94880 0.04600
H 	H 	0.44600 0.12720 0.96130 0.02000
C 	C 	0.42427 0.27110 0.95970 -0.11900
C 	C 	0.43223 0.36840 0.93500 0.04800
H 	H 	0.41380 0.42070 0.93940 0.02500
C 	C 	0.46760 0.39190 0.90300 -0.13100
H 	H 	0.47180 0.45910 0.88510 0.07500
C 	C 	0.38675 0.24660 0.99610 0.31300
La	La	0.69087 0.80023 0.94889 1.58800
O 	O 	0.73214 0.63950 0.96360 -0.48400
O 	O 	0.78479 0.54200 0.95070 -0.38900
O 	O 	0.76422 0.32870 0.66350 -0.44600
O 	O 	0.70398 0.25000 0.61570 -0.40400
O 	O 	0.37647 0.15350 0.00290 -0.38500
O 	O 	0.36686 0.32050 0.02130 -0.38000
C 	C 	0.24744 0.06210 0.93080 0.35100
C 	C 	0.21992 0.99080 0.86580 -0.11700
C 	C 	0.23580 0.93530 0.80000 0.04200
H 	H 	0.26290 0.94290 0.79630 0.02900
C 	C 	0.21107 0.86930 0.74070 -0.10900
C 	C 	0.17077 0.85490 0.74830 -0.00600
H 	H 	0.15450 0.80920 0.70870 0.04500
C 	C 	0.15454 0.90840 0.81480 -0.02700
C 	C 	0.17969 0.97880 0.87170 -0.01200
H 	H 	0.16910 0.01790 0.91410 0.03300
C 	C 	0.22753 0.81130 0.66630 0.37800
C 	C 	0.11237 0.88870 0.82830 0.04600
C 	C 	0.09536 0.79040 0.81430 -0.08300
H 	H 	0.10960 0.73890 0.79060 0.05900
C 	C 	0.05750 0.76720 0.83480 -0.02100
H 	H 	0.04720 0.70060 0.82560 0.03400
C 	C 	0.03521 0.84290 0.86890 -0.02600
C 	C 	0.05151 0.94120 0.87860 -0.01900
H 	H 	0.03660 0.99410 0.89820 0.03500
C 	C 	0.08940 0.96330 0.86000 -0.09100
H 	H 	0.09950 0.03000 0.86920 0.06600
C 	C 	0.99612 0.81810 0.89740 0.07600
C 	C 	0.98740 0.71760 0.91990 -0.13200
H 	H 	0.00570 0.66500 0.91560 0.07200
C 	C 	0.95166 0.69530 0.94880 0.04600
H 	H 	0.94600 0.62720 0.96130 0.02100
C 	C 	0.92427 0.77110 0.95970 -0.11900
C 	C 	0.93223 0.86840 0.93500 0.04700
H 	H 	0.91380 0.92070 0.93940 0.02400
C 	C 	0.96760 0.89190 0.90300 -0.13100
H 	H 	0.97180 0.95910 0.88510 0.07500
C 	C 	0.88675 0.74660 0.99610 0.31100
La	La	0.19087 0.30023 0.94889 1.58800
O 	O 	0.23214 0.13950 0.96360 -0.48400
O 	O 	0.28479 0.04200 0.95070 -0.38900
O 	O 	0.26422 0.82870 0.66350 -0.44600
O 	O 	0.20398 0.75000 0.61570 -0.40400
O 	O 	0.87647 0.65350 0.00290 -0.38400
O 	O 	0.86686 0.82050 0.02130 -0.37900
C 	C 	0.25256 0.56210 0.56920 0.35000
C 	C 	0.28008 0.49080 0.63420 -0.11700
C 	C 	0.26420 0.43530 0.70000 0.04200
H 	H 	0.23710 0.44290 0.70370 0.02900
C 	C 	0.28893 0.36930 0.75930 -0.10900
C 	C 	0.32923 0.35490 0.75170 -0.00600
H 	H 	0.34550 0.30920 0.79130 0.04500
C 	C 	0.34546 0.40840 0.68520 -0.02700
C 	C 	0.32031 0.47880 0.62830 -0.01100
H 	H 	0.33090 0.51790 0.58590 0.03200
C 	C 	0.27247 0.31130 0.83370 0.37700
C 	C 	0.38763 0.38870 0.67170 0.04500
C 	C 	0.40464 0.29040 0.68570 -0.08300
H 	H 	0.39040 0.23890 0.70940 0.05900
C 	C 	0.44250 0.26720 0.66520 -0.02100
H 	H 	0.45280 0.20060 0.67440 0.03400
C 	C 	0.46479 0.34290 0.63110 -0.02600
C 	C 	0.44849 0.44120 0.62140 -0.01900
H 	H 	0.46340 0.49410 0.60180 0.03600
C 	C 	0.41060 0.46330 0.64000 -0.08900
H 	H 	0.40050 0.53000 0.63080 0.06500
C 	C 	0.50388 0.31810 0.60260 0.07600
C 	C 	0.51260 0.21760 0.58010 -0.13200
H 	H 	0.49430 0.16500 0.58440 0.07200
C 	C 	0.54834 0.19530 0.55120 0.04600
H 	H 	0.55400 0.12720 0.53870 0.02000
C 	C 	0.57573 0.27110 0.54030 -0.11900
C 	C 	0.56777 0.36840 0.56500 0.04800
H 	H 	0.58620 0.42070 0.56060 0.02500
C 	C 	0.53240 0.39190 0.59700 -0.13100
H 	H 	0.52820 0.45910 0.61490 0.07500
C 	C 	0.61325 0.24660 0.50390 0.31200
La	La	0.30913 0.80023 0.55111 1.58800
O 	O 	0.26786 0.63950 0.53640 -0.48400
O 	O 	0.21521 0.54200 0.54930 -0.38900
O 	O 	0.23578 0.32870 0.83650 -0.44600
O 	O 	0.29602 0.25000 0.88430 -0.40300
O 	O 	0.62353 0.15350 0.49710 -0.38500
O 	O 	0.63314 0.32050 0.47870 -0.38000
C 	C 	0.75256 0.06210 0.56920 0.35000
C 	C 	0.78008 0.99080 0.63420 -0.11700
C 	C 	0.76420 0.93530 0.70000 0.04200
H 	H 	0.73710 0.94290 0.70370 0.02900
C 	C 	0.78893 0.86930 0.75930 -0.10900
C 	C 	0.82923 0.85490 0.75170 -0.00600
H 	H 	0.84550 0.80920 0.79130 0.04500
C 	C 	0.84546 0.90840 0.68520 -0.02700
C 	C 	0.82031 0.97880 0.62830 -0.01100
H 	H 	0.83090 0.01790 0.58590 0.03200
C 	C 	0.77247 0.81130 0.83370 0.37800
C 	C 	0.88763 0.88870 0.67170 0.04600
C 	C 	0.90464 0.79040 0.68570 -0.08300
H 	H 	0.89040 0.73890 0.70940 0.05900
C 	C 	0.94250 0.76720 0.66520 -0.02100
H 	H 	0.95280 0.70060 0.67440 0.03400
C 	C 	0.96479 0.84290 0.63110 -0.02600
C 	C 	0.94849 0.94120 0.62140 -0.01900
H 	H 	0.96340 0.99410 0.60180 0.03600
C 	C 	0.91060 0.96330 0.64000 -0.09000
H 	H 	0.90050 0.03000 0.63080 0.06500
C 	C 	0.00388 0.81810 0.60260 0.07600
C 	C 	0.01260 0.71760 0.58010 -0.13200
H 	H 	0.99430 0.66500 0.58440 0.07200
C 	C 	0.04834 0.69530 0.55120 0.04600
H 	H 	0.05400 0.62720 0.53870 0.02000
C 	C 	0.07573 0.77110 0.54030 -0.11900
C 	C 	0.06777 0.86840 0.56500 0.04800
H 	H 	0.08620 0.92070 0.56060 0.02500
C 	C 	0.03240 0.89190 0.59700 -0.13100
H 	H 	0.02820 0.95910 0.61490 0.07500
C 	C 	0.11325 0.74660 0.50390 0.31200
La	La	0.80913 0.30023 0.55111 1.58800
O 	O 	0.76786 0.13950 0.53640 -0.48400
O 	O 	0.71521 0.04200 0.54930 -0.39000
O 	O 	0.73578 0.82870 0.83650 -0.44600
O 	O 	0.79602 0.75000 0.88430 -0.40400
O 	O 	0.12353 0.65350 0.49710 -0.38500
O 	O 	0.13314 0.82050 0.47870 -0.38000
