data_crystal

_cell_length_a 33.02000
_cell_length_b 13.31700
_cell_length_c 14.22000
_cell_angle_alpha 90.00000
_cell_angle_beta  101.73900
_cell_angle_gamma 90.00000

_symmetry_space_group_name_	'P 1'
_symmetry_space_group_name_H-M	'P 1'

loop_
_symmetry_equiv_pos_as_xyz
  x,y,z

loop_
_atom_site_label
_atom_site_type_symbol
_atom_site_fract_x
_atom_site_fract_y
_atom_site_fract_z
_atom_site_charge
C 	C 	0.11680 0.75050 0.50390 0.32300
C 	C 	0.07810 0.77390 0.54050 -0.11200
C 	C 	0.06970 0.87120 0.56540 0.05400
H 	H 	0.08820 0.92280 0.56080 0.02300
C 	C 	0.03360 0.89100 0.59740 -0.14800
H 	H 	0.02930 0.95590 0.61750 0.08200
C 	C 	0.00430 0.82190 0.60100 0.10600
C 	C 	0.01280 0.72970 0.57860 -0.14800
H 	H 	0.99320 0.68050 0.58260 0.07700
C 	C 	0.04950 0.69880 0.54880 0.04700
H 	H 	0.05420 0.63190 0.53550 0.02000
C 	C 	0.96490 0.84900 0.62910 -0.05500
C 	C 	0.94920 0.94400 0.62020 0.01000
H 	H 	0.96490 0.99550 0.60160 0.02400
C 	C 	0.91060 0.96550 0.63820 -0.12200
H 	H 	0.90040 0.03070 0.62910 0.07500
C 	C 	0.88690 0.89320 0.66930 0.08100
C 	C 	0.90330 0.79760 0.68140 -0.11500
H 	H 	0.88820 0.74770 0.70460 0.07100
C 	C 	0.94080 0.77340 0.66060 0.00800
H 	H 	0.95040 0.70760 0.66720 0.02200
C 	C 	0.84440 0.91360 0.68270 -0.07500
C 	C 	0.82000 0.98530 0.62770 0.04500
H 	H 	0.83110 0.02530 0.58570 0.01400
C 	C 	0.77910 0.99800 0.63460 -0.18500
C 	C 	0.76330 0.94200 0.70140 0.10900
H 	H 	0.73570 0.94910 0.70550 0.00400
C 	C 	0.78790 0.87750 0.76040 -0.17100
C 	C 	0.82780 0.85930 0.75000 0.04700
H 	H 	0.84370 0.81090 0.78780 0.02700
C 	C 	0.75300 0.07090 0.57150 0.44100
C 	C 	0.77060 0.81570 0.83560 0.48100
Eu	Eu	0.19208 0.70332 0.45242 1.83300
O 	O 	0.13760 0.82110 0.48120 -0.42000
O 	O 	0.12740 0.65950 0.50360 -0.42400
O 	O 	0.79440 0.75440 0.88440 -0.48000
O 	O 	0.73498 0.83900 0.84360 -0.53100
O 	O 	0.71548 0.05380 0.54960 -0.45500
O 	O 	0.76868 0.14950 0.54220 -0.57200
C 	C 	0.61680 0.25050 0.50390 0.32200
C 	C 	0.57810 0.27390 0.54050 -0.11300
C 	C 	0.56970 0.37120 0.56540 0.05300
H 	H 	0.58820 0.42280 0.56080 0.02200
C 	C 	0.53360 0.39100 0.59740 -0.14900
H 	H 	0.52930 0.45590 0.61750 0.08100
C 	C 	0.50430 0.32190 0.60100 0.10500
C 	C 	0.51280 0.22970 0.57860 -0.14900
H 	H 	0.49320 0.18050 0.58260 0.07600
C 	C 	0.54950 0.19880 0.54880 0.04500
H 	H 	0.55420 0.13190 0.53550 0.01800
C 	C 	0.46490 0.34900 0.62910 -0.05500
C 	C 	0.44920 0.44400 0.62020 0.00900
H 	H 	0.46490 0.49550 0.60160 0.02400
C 	C 	0.41060 0.46550 0.63820 -0.12100
H 	H 	0.40040 0.53070 0.62910 0.07400
C 	C 	0.38690 0.39320 0.66930 0.08100
C 	C 	0.40330 0.29760 0.68140 -0.11500
H 	H 	0.38820 0.24770 0.70460 0.07100
C 	C 	0.44080 0.27340 0.66060 0.00800
H 	H 	0.45040 0.20760 0.66720 0.02200
C 	C 	0.34440 0.41360 0.68270 -0.07400
C 	C 	0.32000 0.48530 0.62770 0.04500
H 	H 	0.33110 0.52530 0.58570 0.01300
C 	C 	0.27910 0.49800 0.63460 -0.18500
C 	C 	0.26330 0.44200 0.70140 0.10900
H 	H 	0.23570 0.44910 0.70550 0.00400
C 	C 	0.28790 0.37750 0.76040 -0.17100
C 	C 	0.32780 0.35930 0.75000 0.04700
H 	H 	0.34370 0.31090 0.78780 0.02700
C 	C 	0.25300 0.57090 0.57150 0.44100
C 	C 	0.27060 0.31570 0.83560 0.48100
Eu	Eu	0.69208 0.20332 0.45242 1.83200
O 	O 	0.63760 0.32110 0.48120 -0.42000
O 	O 	0.62740 0.15950 0.50360 -0.42400
O 	O 	0.29440 0.25440 0.88440 -0.48000
O 	O 	0.23498 0.33900 0.84360 -0.53100
O 	O 	0.21548 0.55380 0.54960 -0.45500
O 	O 	0.26868 0.64950 0.54220 -0.57200
C 	C 	0.88320 0.75050 0.99610 0.32200
C 	C 	0.92190 0.77390 0.95950 -0.11300
C 	C 	0.93030 0.87120 0.93460 0.05300
H 	H 	0.91180 0.92280 0.93920 0.02200
C 	C 	0.96640 0.89100 0.90260 -0.14900
H 	H 	0.97070 0.95590 0.88250 0.08100
C 	C 	0.99570 0.82190 0.89900 0.10500
C 	C 	0.98720 0.72970 0.92140 -0.14900
H 	H 	0.00680 0.68050 0.91740 0.07600
C 	C 	0.95050 0.69880 0.95120 0.04500
H 	H 	0.94580 0.63190 0.96450 0.01900
C 	C 	0.03510 0.84900 0.87090 -0.05700
C 	C 	0.05080 0.94400 0.87980 0.01200
H 	H 	0.03510 0.99550 0.89840 0.02300
C 	C 	0.08940 0.96550 0.86180 -0.12500
H 	H 	0.09960 0.03070 0.87090 0.07700
C 	C 	0.11310 0.89320 0.83070 0.08200
C 	C 	0.09670 0.79760 0.81860 -0.11600
H 	H 	0.11180 0.74770 0.79540 0.07100
C 	C 	0.05920 0.77340 0.83940 0.00900
H 	H 	0.04960 0.70760 0.83280 0.02100
C 	C 	0.15560 0.91360 0.81730 -0.07500
C 	C 	0.18000 0.98530 0.87230 0.04400
H 	H 	0.16890 0.02530 0.91430 0.01500
C 	C 	0.22090 0.99800 0.86540 -0.18600
C 	C 	0.23670 0.94200 0.79860 0.10900
H 	H 	0.26430 0.94910 0.79450 0.00400
C 	C 	0.21210 0.87750 0.73960 -0.17100
C 	C 	0.17220 0.85930 0.75000 0.04700
H 	H 	0.15630 0.81090 0.71220 0.02700
C 	C 	0.24700 0.07090 0.92850 0.44200
C 	C 	0.22940 0.81570 0.66440 0.48100
Eu	Eu	0.80792 0.70332 0.04758 1.83300
O 	O 	0.86240 0.82110 0.01880 -0.41900
O 	O 	0.87260 0.65950 0.99640 -0.42400
O 	O 	0.20560 0.75440 0.61560 -0.48000
O 	O 	0.26502 0.83900 0.65640 -0.53100
O 	O 	0.28452 0.05380 0.95040 -0.45400
O 	O 	0.23132 0.14950 0.95780 -0.57200
C 	C 	0.38320 0.25050 0.99610 0.32300
C 	C 	0.42190 0.27390 0.95950 -0.11300
C 	C 	0.43030 0.37120 0.93460 0.05300
H 	H 	0.41180 0.42280 0.93920 0.02200
C 	C 	0.46640 0.39100 0.90260 -0.14900
H 	H 	0.47070 0.45590 0.88250 0.08100
C 	C 	0.49570 0.32190 0.89900 0.10500
C 	C 	0.48720 0.22970 0.92140 -0.14900
H 	H 	0.50680 0.18050 0.91740 0.07600
C 	C 	0.45050 0.19880 0.95120 0.04600
H 	H 	0.44580 0.13190 0.96450 0.01900
C 	C 	0.53510 0.34900 0.87090 -0.05500
C 	C 	0.55080 0.44400 0.87980 0.00900
H 	H 	0.53510 0.49550 0.89840 0.02400
C 	C 	0.58940 0.46550 0.86180 -0.12100
H 	H 	0.59960 0.53070 0.87090 0.07400
C 	C 	0.61310 0.39320 0.83070 0.08100
C 	C 	0.59670 0.29760 0.81860 -0.11500
H 	H 	0.61180 0.24770 0.79540 0.07100
C 	C 	0.55920 0.27340 0.83940 0.00800
H 	H 	0.54960 0.20760 0.83280 0.02200
C 	C 	0.65560 0.41360 0.81730 -0.07400
C 	C 	0.68000 0.48530 0.87230 0.04500
H 	H 	0.66890 0.52530 0.91430 0.01300
C 	C 	0.72090 0.49800 0.86540 -0.18500
C 	C 	0.73670 0.44200 0.79860 0.10900
H 	H 	0.76430 0.44910 0.79450 0.00400
C 	C 	0.71210 0.37750 0.73960 -0.17100
C 	C 	0.67220 0.35930 0.75000 0.04700
H 	H 	0.65630 0.31090 0.71220 0.02700
C 	C 	0.74700 0.57090 0.92850 0.44100
C 	C 	0.72940 0.31570 0.66440 0.48100
Eu	Eu	0.30792 0.20332 0.04758 1.83100
O 	O 	0.36240 0.32110 0.01880 -0.42000
O 	O 	0.37260 0.15950 0.99640 -0.42300
O 	O 	0.70560 0.25440 0.61560 -0.48000
O 	O 	0.76502 0.33900 0.65640 -0.53000
O 	O 	0.78452 0.55380 0.95040 -0.45500
O 	O 	0.73132 0.64950 0.95780 -0.57200
C 	C 	0.88320 0.24950 0.49610 0.32200
C 	C 	0.92190 0.22610 0.45950 -0.11300
C 	C 	0.93030 0.12880 0.43460 0.05300
H 	H 	0.91180 0.07720 0.43920 0.02200
C 	C 	0.96640 0.10900 0.40260 -0.14900
H 	H 	0.97070 0.04410 0.38250 0.08100
C 	C 	0.99570 0.17810 0.39900 0.10500
C 	C 	0.98720 0.27030 0.42140 -0.14900
H 	H 	0.00680 0.31950 0.41740 0.07600
C 	C 	0.95050 0.30120 0.45120 0.04600
H 	H 	0.94580 0.36810 0.46450 0.01900
C 	C 	0.03510 0.15100 0.37090 -0.05600
C 	C 	0.05080 0.05600 0.37980 0.01000
H 	H 	0.03510 0.00450 0.39840 0.02400
C 	C 	0.08940 0.03450 0.36180 -0.12200
H 	H 	0.09960 0.96930 0.37090 0.07500
C 	C 	0.11310 0.10680 0.33070 0.08100
C 	C 	0.09670 0.20240 0.31860 -0.11500
H 	H 	0.11180 0.25230 0.29540 0.07100
C 	C 	0.05920 0.22660 0.33940 0.00800
H 	H 	0.04960 0.29240 0.33280 0.02200
C 	C 	0.15560 0.08640 0.31730 -0.07500
C 	C 	0.18000 0.01470 0.37230 0.04500
H 	H 	0.16890 0.97470 0.41430 0.01400
C 	C 	0.22090 0.00200 0.36540 -0.18500
C 	C 	0.23670 0.05800 0.29860 0.10900
H 	H 	0.26430 0.05090 0.29450 0.00400
C 	C 	0.21210 0.12250 0.23960 -0.17100
C 	C 	0.17220 0.14070 0.25000 0.04700
H 	H 	0.15630 0.18910 0.21220 0.02700
C 	C 	0.24700 0.92910 0.42850 0.44100
C 	C 	0.22940 0.18430 0.16440 0.48100
Eu	Eu	0.80792 0.29668 0.54758 1.83300
O 	O 	0.86240 0.17890 0.51880 -0.42000
O 	O 	0.87260 0.34050 0.49640 -0.42400
O 	O 	0.20560 0.24560 0.11560 -0.48000
O 	O 	0.26502 0.16100 0.15640 -0.53100
O 	O 	0.28452 0.94620 0.45040 -0.45500
O 	O 	0.23132 0.85050 0.45780 -0.57200
C 	C 	0.38320 0.74950 0.49610 0.32200
C 	C 	0.42190 0.72610 0.45950 -0.11300
C 	C 	0.43030 0.62880 0.43460 0.05300
H 	H 	0.41180 0.57720 0.43920 0.02200
C 	C 	0.46640 0.60900 0.40260 -0.14900
H 	H 	0.47070 0.54410 0.38250 0.08100
C 	C 	0.49570 0.67810 0.39900 0.10500
C 	C 	0.48720 0.77030 0.42140 -0.14900
H 	H 	0.50680 0.81950 0.41740 0.07600
C 	C 	0.45050 0.80120 0.45120 0.04500
H 	H 	0.44580 0.86810 0.46450 0.01800
C 	C 	0.53510 0.65100 0.37090 -0.05500
C 	C 	0.55080 0.55600 0.37980 0.00900
H 	H 	0.53510 0.50450 0.39840 0.02400
C 	C 	0.58940 0.53450 0.36180 -0.12100
H 	H 	0.59960 0.46930 0.37090 0.07400
C 	C 	0.61310 0.60680 0.33070 0.08100
C 	C 	0.59670 0.70240 0.31860 -0.11500
H 	H 	0.61180 0.75230 0.29540 0.07100
C 	C 	0.55920 0.72660 0.33940 0.00800
H 	H 	0.54960 0.79240 0.33280 0.02200
C 	C 	0.65560 0.58640 0.31730 -0.07400
C 	C 	0.68000 0.51470 0.37230 0.04500
H 	H 	0.66890 0.47470 0.41430 0.01300
C 	C 	0.72090 0.50200 0.36540 -0.18500
C 	C 	0.73670 0.55800 0.29860 0.10900
H 	H 	0.76430 0.55090 0.29450 0.00400
C 	C 	0.71210 0.62250 0.23960 -0.17100
C 	C 	0.67220 0.64070 0.25000 0.04700
H 	H 	0.65630 0.68910 0.21220 0.02700
C 	C 	0.74700 0.42910 0.42850 0.44100
C 	C 	0.72940 0.68430 0.16440 0.48100
Eu	Eu	0.30792 0.79668 0.54758 1.83200
O 	O 	0.36240 0.67890 0.51880 -0.42000
O 	O 	0.37260 0.84050 0.49640 -0.42400
O 	O 	0.70560 0.74560 0.11560 -0.48000
O 	O 	0.76502 0.66100 0.15640 -0.53100
O 	O 	0.78452 0.44620 0.45040 -0.45500
O 	O 	0.73132 0.35050 0.45780 -0.57200
C 	C 	0.11680 0.24950 0.00390 0.32200
C 	C 	0.07810 0.22610 0.04050 -0.11300
C 	C 	0.06970 0.12880 0.06540 0.05300
H 	H 	0.08820 0.07720 0.06080 0.02200
C 	C 	0.03360 0.10900 0.09740 -0.14900
H 	H 	0.02930 0.04410 0.11750 0.08100
C 	C 	0.00430 0.17810 0.10100 0.10500
C 	C 	0.01280 0.27030 0.07860 -0.14900
H 	H 	0.99320 0.31950 0.08260 0.07600
C 	C 	0.04950 0.30120 0.04880 0.04500
H 	H 	0.05420 0.36810 0.03550 0.01900
C 	C 	0.96490 0.15100 0.12910 -0.05700
C 	C 	0.94920 0.05600 0.12020 0.01200
H 	H 	0.96490 0.00450 0.10160 0.02300
C 	C 	0.91060 0.03450 0.13820 -0.12500
H 	H 	0.90040 0.96930 0.12910 0.07700
C 	C 	0.88690 0.10680 0.16930 0.08200
C 	C 	0.90330 0.20240 0.18140 -0.11600
H 	H 	0.88820 0.25230 0.20460 0.07100
C 	C 	0.94080 0.22660 0.16060 0.00900
H 	H 	0.95040 0.29240 0.16720 0.02100
C 	C 	0.84440 0.08640 0.18270 -0.07500
C 	C 	0.82000 0.01470 0.12770 0.04400
H 	H 	0.83110 0.97470 0.08570 0.01500
C 	C 	0.77910 0.00200 0.13460 -0.18600
C 	C 	0.76330 0.05800 0.20140 0.10900
H 	H 	0.73570 0.05090 0.20550 0.00400
C 	C 	0.78790 0.12250 0.26040 -0.17100
C 	C 	0.82780 0.14070 0.25000 0.04700
H 	H 	0.84370 0.18910 0.28780 0.02700
C 	C 	0.75300 0.92910 0.07150 0.44200
C 	C 	0.77060 0.18430 0.33560 0.48100
Eu	Eu	0.19208 0.29668 0.95242 1.83300
O 	O 	0.13760 0.17890 0.98120 -0.41900
O 	O 	0.12740 0.34050 0.00360 -0.42400
O 	O 	0.79440 0.24560 0.38440 -0.48000
O 	O 	0.73498 0.16100 0.34360 -0.53100
O 	O 	0.71548 0.94620 0.04960 -0.45400
O 	O 	0.76868 0.85050 0.04220 -0.57200
C 	C 	0.61680 0.74950 0.00390 0.32300
C 	C 	0.57810 0.72610 0.04050 -0.11300
C 	C 	0.56970 0.62880 0.06540 0.05300
H 	H 	0.58820 0.57720 0.06080 0.02200
C 	C 	0.53360 0.60900 0.09740 -0.14900
H 	H 	0.52930 0.54410 0.11750 0.08100
C 	C 	0.50430 0.67810 0.10100 0.10500
C 	C 	0.51280 0.77030 0.07860 -0.14900
H 	H 	0.49320 0.81950 0.08260 0.07600
C 	C 	0.54950 0.80120 0.04880 0.04600
H 	H 	0.55420 0.86810 0.03550 0.01900
C 	C 	0.46490 0.65100 0.12910 -0.05500
C 	C 	0.44920 0.55600 0.12020 0.00900
H 	H 	0.46490 0.50450 0.10160 0.02400
C 	C 	0.41060 0.53450 0.13820 -0.12100
H 	H 	0.40040 0.46930 0.12910 0.07400
C 	C 	0.38690 0.60680 0.16930 0.08100
C 	C 	0.40330 0.70240 0.18140 -0.11500
H 	H 	0.38820 0.75230 0.20460 0.07100
C 	C 	0.44080 0.72660 0.16060 0.00800
H 	H 	0.45040 0.79240 0.16720 0.02200
C 	C 	0.34440 0.58640 0.18270 -0.07400
C 	C 	0.32000 0.51470 0.12770 0.04500
H 	H 	0.33110 0.47470 0.08570 0.01300
C 	C 	0.27910 0.50200 0.13460 -0.18500
C 	C 	0.26330 0.55800 0.20140 0.10900
H 	H 	0.23570 0.55090 0.20550 0.00400
C 	C 	0.28790 0.62250 0.26040 -0.17100
C 	C 	0.32780 0.64070 0.25000 0.04700
H 	H 	0.34370 0.68910 0.28780 0.02700
C 	C 	0.25300 0.42910 0.07150 0.44100
C 	C 	0.27060 0.68430 0.33560 0.48100
Eu	Eu	0.69208 0.79668 0.95242 1.83100
O 	O 	0.63760 0.67890 0.98120 -0.42000
O 	O 	0.62740 0.84050 0.00360 -0.42300
O 	O 	0.29440 0.74560 0.38440 -0.48000
O 	O 	0.23498 0.66100 0.34360 -0.53000
O 	O 	0.21548 0.44620 0.04960 -0.45500
O 	O 	0.26868 0.35050 0.04220 -0.57200
