data_crystal

_cell_length_a 24.79900
_cell_length_b 13.26300
_cell_length_c 14.97100
_cell_angle_alpha 90.00000
_cell_angle_beta  96.63500
_cell_angle_gamma 90.00000

_symmetry_space_group_name_	'P 1'
_symmetry_space_group_name_H-M	'P 1'

loop_
_symmetry_equiv_pos_as_xyz
  x,y,z

loop_
_atom_site_label
_atom_site_type_symbol
_atom_site_fract_x
_atom_site_fract_y
_atom_site_fract_z
_atom_site_charge
C 	C 	0.24950 0.93380 0.92610 0.37500
C 	C 	0.21490 0.00700 0.86960 -0.14400
C 	C 	0.23670 0.05670 0.79950 0.06900
H 	H 	0.27220 0.04360 0.78870 0.02100
C 	C 	0.20590 0.12440 0.74690 -0.13700
C 	C 	0.15350 0.14650 0.76560 0.02400
H 	H 	0.13270 0.19290 0.73000 0.03600
C 	C 	0.13160 0.10040 0.83670 -0.05800
C 	C 	0.16220 0.02760 0.88610 0.01600
H 	H 	0.14710 0.99220 0.93080 0.02500
C 	C 	0.22740 0.17380 0.66650 0.41300
C 	C 	0.07740 0.13120 0.86040 0.09600
C 	C 	0.06160 0.23220 0.85440 -0.14400
H 	H 	0.08410 0.27940 0.83170 0.07900
C 	C 	0.01270 0.26310 0.88190 0.05700
H 	H 	0.00230 0.33040 0.87630 0.01500
C 	C 	0.97930 0.19390 0.91770 -0.12900
C 	C 	0.99370 0.09410 0.92140 0.06200
H 	H 	0.97070 0.04680 0.94280 0.01900
C 	C 	0.04280 0.06320 0.89340 -0.15000
H 	H 	0.05230 0.99530 0.89700 0.08400
C 	C 	0.92970 0.22840 0.95740 0.32400
La	La	0.32989 0.79215 0.03064 1.59600
O 	O 	0.29936 0.94660 0.93630 -0.40200
O 	O 	0.22684 0.86020 0.96180 -0.48800
O 	O 	0.27489 0.15140 0.65230 -0.45300
O 	O 	0.19728 0.23470 0.62360 -0.43300
O 	O 	0.91598 0.31930 0.95330 -0.39000
O 	O 	0.90199 0.16320 0.99370 -0.38600
C 	C 	0.74950 0.43380 0.92610 0.37600
C 	C 	0.71490 0.50700 0.86960 -0.14200
C 	C 	0.73670 0.55670 0.79950 0.06800
H 	H 	0.77220 0.54360 0.78870 0.02200
C 	C 	0.70590 0.62440 0.74690 -0.13700
C 	C 	0.65350 0.64650 0.76560 0.02300
H 	H 	0.63270 0.69290 0.73000 0.03600
C 	C 	0.63160 0.60040 0.83670 -0.05800
C 	C 	0.66220 0.52760 0.88610 0.01700
H 	H 	0.64710 0.49220 0.93080 0.02600
C 	C 	0.72740 0.67380 0.66650 0.41300
C 	C 	0.57740 0.63120 0.86040 0.09500
C 	C 	0.56160 0.73220 0.85440 -0.14400
H 	H 	0.58410 0.77940 0.83170 0.08000
C 	C 	0.51270 0.76310 0.88190 0.05900
H 	H 	0.50230 0.83040 0.87630 0.01500
C 	C 	0.47930 0.69390 0.91770 -0.13000
C 	C 	0.49370 0.59410 0.92140 0.06000
H 	H 	0.47070 0.54680 0.94280 0.02000
C 	C 	0.54280 0.56320 0.89340 -0.14700
H 	H 	0.55230 0.49530 0.89700 0.08300
C 	C 	0.42970 0.72840 0.95740 0.32400
La	La	0.82989 0.29215 0.03064 1.59500
O 	O 	0.79936 0.44660 0.93630 -0.40100
O 	O 	0.72684 0.36020 0.96180 -0.48800
O 	O 	0.77489 0.65140 0.65230 -0.45300
O 	O 	0.69728 0.73470 0.62360 -0.43300
O 	O 	0.41598 0.81930 0.95330 -0.39100
O 	O 	0.40199 0.66320 0.99370 -0.38700
C 	C 	0.75050 0.93380 0.57390 0.37600
C 	C 	0.78510 0.00700 0.63040 -0.14200
C 	C 	0.76330 0.05670 0.70050 0.06900
H 	H 	0.72780 0.04360 0.71130 0.02200
C 	C 	0.79410 0.12440 0.75310 -0.13700
C 	C 	0.84650 0.14650 0.73440 0.02300
H 	H 	0.86730 0.19290 0.77000 0.03600
C 	C 	0.86840 0.10040 0.66330 -0.05800
C 	C 	0.83780 0.02760 0.61390 0.01700
H 	H 	0.85290 0.99220 0.56920 0.02500
C 	C 	0.77260 0.17380 0.83350 0.41300
C 	C 	0.92260 0.13120 0.63960 0.09600
C 	C 	0.93840 0.23220 0.64560 -0.14400
H 	H 	0.91590 0.27940 0.66830 0.08000
C 	C 	0.98730 0.26310 0.61810 0.05900
H 	H 	0.99770 0.33040 0.62370 0.01500
C 	C 	0.02070 0.19390 0.58230 -0.13000
C 	C 	0.00630 0.09410 0.57860 0.06000
H 	H 	0.02930 0.04680 0.55720 0.02000
C 	C 	0.95720 0.06320 0.60660 -0.14700
H 	H 	0.94770 0.99530 0.60300 0.08300
C 	C 	0.07030 0.22840 0.54260 0.32400
La	La	0.67011 0.79215 0.46936 1.59500
O 	O 	0.70064 0.94660 0.56370 -0.40200
O 	O 	0.77316 0.86020 0.53820 -0.48800
O 	O 	0.72511 0.15140 0.84770 -0.45300
O 	O 	0.80272 0.23470 0.87640 -0.43300
O 	O 	0.08402 0.31930 0.54670 -0.39100
O 	O 	0.09801 0.16320 0.50630 -0.38700
C 	C 	0.25050 0.43380 0.57390 0.37600
C 	C 	0.28510 0.50700 0.63040 -0.14200
C 	C 	0.26330 0.55670 0.70050 0.06900
H 	H 	0.22780 0.54360 0.71130 0.02200
C 	C 	0.29410 0.62440 0.75310 -0.13700
C 	C 	0.34650 0.64650 0.73440 0.02300
H 	H 	0.36730 0.69290 0.77000 0.03600
C 	C 	0.36840 0.60040 0.66330 -0.05800
C 	C 	0.33780 0.52760 0.61390 0.01700
H 	H 	0.35290 0.49220 0.56920 0.02500
C 	C 	0.27260 0.67380 0.83350 0.41300
C 	C 	0.42260 0.63120 0.63960 0.09500
C 	C 	0.43840 0.73220 0.64560 -0.14400
H 	H 	0.41590 0.77940 0.66830 0.08000
C 	C 	0.48730 0.76310 0.61810 0.05900
H 	H 	0.49770 0.83040 0.62370 0.01500
C 	C 	0.52070 0.69390 0.58230 -0.13000
C 	C 	0.50630 0.59410 0.57860 0.06000
H 	H 	0.52930 0.54680 0.55720 0.02000
C 	C 	0.45720 0.56320 0.60660 -0.14700
H 	H 	0.44770 0.49530 0.60300 0.08300
C 	C 	0.57030 0.72840 0.54260 0.32400
La	La	0.17011 0.29215 0.46936 1.59600
O 	O 	0.20064 0.44660 0.56370 -0.40200
O 	O 	0.27316 0.36020 0.53820 -0.48800
O 	O 	0.22511 0.65140 0.84770 -0.45300
O 	O 	0.30272 0.73470 0.87640 -0.43400
O 	O 	0.58402 0.81930 0.54670 -0.39100
O 	O 	0.59801 0.66320 0.50630 -0.38700
C 	C 	0.75050 0.06620 0.07390 0.37600
C 	C 	0.78510 0.99300 0.13040 -0.14300
C 	C 	0.76330 0.94330 0.20050 0.06900
H 	H 	0.72780 0.95640 0.21130 0.02100
C 	C 	0.79410 0.87560 0.25310 -0.13700
C 	C 	0.84650 0.85350 0.23440 0.02400
H 	H 	0.86730 0.80710 0.27000 0.03600
C 	C 	0.86840 0.89960 0.16330 -0.05800
C 	C 	0.83780 0.97240 0.11390 0.01600
H 	H 	0.85290 0.00780 0.06920 0.02500
C 	C 	0.77260 0.82620 0.33350 0.41300
C 	C 	0.92260 0.86880 0.13960 0.09600
C 	C 	0.93840 0.76780 0.14560 -0.14400
H 	H 	0.91590 0.72060 0.16830 0.07900
C 	C 	0.98730 0.73690 0.11810 0.05700
H 	H 	0.99770 0.66960 0.12370 0.01500
C 	C 	0.02070 0.80610 0.08230 -0.12900
C 	C 	0.00630 0.90590 0.07860 0.06200
H 	H 	0.02930 0.95320 0.05720 0.01900
C 	C 	0.95720 0.93680 0.10660 -0.15000
H 	H 	0.94770 0.00470 0.10300 0.08400
C 	C 	0.07030 0.77160 0.04260 0.32400
La	La	0.67011 0.20785 0.96936 1.59600
O 	O 	0.70064 0.05340 0.06370 -0.40200
O 	O 	0.77316 0.13980 0.03820 -0.48800
O 	O 	0.72511 0.84860 0.34770 -0.45300
O 	O 	0.80272 0.76530 0.37640 -0.43300
O 	O 	0.08402 0.68070 0.04670 -0.39000
O 	O 	0.09801 0.83680 0.00630 -0.38600
C 	C 	0.25050 0.56620 0.07390 0.37600
C 	C 	0.28510 0.49300 0.13040 -0.14200
C 	C 	0.26330 0.44330 0.20050 0.06800
H 	H 	0.22780 0.45640 0.21130 0.02200
C 	C 	0.29410 0.37560 0.25310 -0.13700
C 	C 	0.34650 0.35350 0.23440 0.02300
H 	H 	0.36730 0.30710 0.27000 0.03600
C 	C 	0.36840 0.39960 0.16330 -0.05800
C 	C 	0.33780 0.47240 0.11390 0.01700
H 	H 	0.35290 0.50780 0.06920 0.02600
C 	C 	0.27260 0.32620 0.33350 0.41300
C 	C 	0.42260 0.36880 0.13960 0.09500
C 	C 	0.43840 0.26780 0.14560 -0.14400
H 	H 	0.41590 0.22060 0.16830 0.08000
C 	C 	0.48730 0.23690 0.11810 0.05900
H 	H 	0.49770 0.16960 0.12370 0.01500
C 	C 	0.52070 0.30610 0.08230 -0.13000
C 	C 	0.50630 0.40590 0.07860 0.06000
H 	H 	0.52930 0.45320 0.05720 0.02000
C 	C 	0.45720 0.43680 0.10660 -0.14700
H 	H 	0.44770 0.50470 0.10300 0.08300
C 	C 	0.57030 0.27160 0.04260 0.32400
La	La	0.17011 0.70785 0.96936 1.59500
O 	O 	0.20064 0.55340 0.06370 -0.40100
O 	O 	0.27316 0.63980 0.03820 -0.48800
O 	O 	0.22511 0.34860 0.34770 -0.45300
O 	O 	0.30272 0.26530 0.37640 -0.43300
O 	O 	0.58402 0.18070 0.04670 -0.39100
O 	O 	0.59801 0.33680 0.00630 -0.38700
C 	C 	0.24950 0.06620 0.42610 0.37600
C 	C 	0.21490 0.99300 0.36960 -0.14200
C 	C 	0.23670 0.94330 0.29950 0.06900
H 	H 	0.27220 0.95640 0.28870 0.02200
C 	C 	0.20590 0.87560 0.24690 -0.13700
C 	C 	0.15350 0.85350 0.26560 0.02300
H 	H 	0.13270 0.80710 0.23000 0.03600
C 	C 	0.13160 0.89960 0.33670 -0.05800
C 	C 	0.16220 0.97240 0.38610 0.01700
H 	H 	0.14710 0.00780 0.43080 0.02500
C 	C 	0.22740 0.82620 0.16650 0.41300
C 	C 	0.07740 0.86880 0.36040 0.09600
C 	C 	0.06160 0.76780 0.35440 -0.14400
H 	H 	0.08410 0.72060 0.33170 0.08000
C 	C 	0.01270 0.73690 0.38190 0.05900
H 	H 	0.00230 0.66960 0.37630 0.01500
C 	C 	0.97930 0.80610 0.41770 -0.13000
C 	C 	0.99370 0.90590 0.42140 0.06000
H 	H 	0.97070 0.95320 0.44280 0.02000
C 	C 	0.04280 0.93680 0.39340 -0.14700
H 	H 	0.05230 0.00470 0.39700 0.08300
C 	C 	0.92970 0.77160 0.45740 0.32400
La	La	0.32989 0.20785 0.53064 1.59500
O 	O 	0.29936 0.05340 0.43630 -0.40200
O 	O 	0.22684 0.13980 0.46180 -0.48800
O 	O 	0.27489 0.84860 0.15230 -0.45300
O 	O 	0.19728 0.76530 0.12360 -0.43300
O 	O 	0.91598 0.68070 0.45330 -0.39100
O 	O 	0.90199 0.83680 0.49370 -0.38700
C 	C 	0.74950 0.56620 0.42610 0.37600
C 	C 	0.71490 0.49300 0.36960 -0.14200
C 	C 	0.73670 0.44330 0.29950 0.06900
H 	H 	0.77220 0.45640 0.28870 0.02200
C 	C 	0.70590 0.37560 0.24690 -0.13700
C 	C 	0.65350 0.35350 0.26560 0.02300
H 	H 	0.63270 0.30710 0.23000 0.03600
C 	C 	0.63160 0.39960 0.33670 -0.05800
C 	C 	0.66220 0.47240 0.38610 0.01700
H 	H 	0.64710 0.50780 0.43080 0.02500
C 	C 	0.72740 0.32620 0.16650 0.41300
C 	C 	0.57740 0.36880 0.36040 0.09500
C 	C 	0.56160 0.26780 0.35440 -0.14400
H 	H 	0.58410 0.22060 0.33170 0.08000
C 	C 	0.51270 0.23690 0.38190 0.05900
H 	H 	0.50230 0.16960 0.37630 0.01500
C 	C 	0.47930 0.30610 0.41770 -0.13000
C 	C 	0.49370 0.40590 0.42140 0.06000
H 	H 	0.47070 0.45320 0.44280 0.02000
C 	C 	0.54280 0.43680 0.39340 -0.14700
H 	H 	0.55230 0.50470 0.39700 0.08300
C 	C 	0.42970 0.27160 0.45740 0.32400
La	La	0.82989 0.70785 0.53064 1.59600
O 	O 	0.79936 0.55340 0.43630 -0.40200
O 	O 	0.72684 0.63980 0.46180 -0.48800
O 	O 	0.77489 0.34860 0.15230 -0.45300
O 	O 	0.69728 0.26530 0.12360 -0.43400
O 	O 	0.41598 0.18070 0.45330 -0.39100
O 	O 	0.40199 0.33680 0.49370 -0.38700
