data_crystal

_cell_length_a 42.14500
_cell_length_b 14.29600
_cell_length_c 13.77100
_cell_angle_alpha 90.00000
_cell_angle_beta  101.68300
_cell_angle_gamma 90.00000

_symmetry_space_group_name_	'P 1'
_symmetry_space_group_name_H-M	'P 1'

loop_
_symmetry_equiv_pos_as_xyz
  x,y,z

loop_
_atom_site_label
_atom_site_type_symbol
_atom_site_fract_x
_atom_site_fract_y
_atom_site_fract_z
_atom_site_charge
C 	C 	0.25235 0.08570 0.07990 0.43200
C 	C 	0.27319 0.01220 0.14140 -0.16000
C 	C 	0.30510 0.00100 0.13260 0.02600
H 	H 	0.31360 0.03930 0.08960 0.02200
C 	C 	0.32470 0.93300 0.18760 -0.05500
C 	C 	0.31082 0.87880 0.25250 0.03000
H 	H 	0.32340 0.83340 0.29050 0.03300
C 	C 	0.27907 0.89000 0.26240 -0.15700
C 	C 	0.25996 0.95510 0.20400 0.08400
H 	H 	0.23820 0.96060 0.20670 0.01200
C 	C 	0.26584 0.82990 0.33660 0.45600
C 	C 	0.35836 0.91710 0.17600 0.05100
C 	C 	0.37833 0.98750 0.15370 -0.08900
H 	H 	0.37030 0.04830 0.14690 0.06500
C 	C 	0.40938 0.97150 0.14130 -0.03100
H 	H 	0.42200 0.02160 0.12880 0.03900
C 	C 	0.42207 0.88240 0.14690 -0.00900
C 	C 	0.40292 0.80980 0.16960 -0.02900
H 	H 	0.41090 0.74900 0.17440 0.03700
C 	C 	0.37195 0.82720 0.18500 -0.08400
H 	H 	0.35980 0.77770 0.20180 0.06200
C 	C 	0.45611 0.86160 0.13260 0.03400
C 	C 	0.47662 0.93560 0.12270 -0.07600
H 	H 	0.46970 0.99690 0.12740 0.05500
C 	C 	0.50747 0.91800 0.10560 -0.03000
H 	H 	0.52120 0.96750 0.09900 0.03800
C 	C 	0.51781 0.82640 0.09860 -0.01700
C 	C 	0.49730 0.75240 0.10850 -0.02900
H 	H 	0.50420 0.69110 0.10380 0.03400
C 	C 	0.46645 0.77000 0.12550 -0.07500
H 	H 	0.45270 0.72050 0.13220 0.05200
C 	C 	0.55155 0.80930 0.07780 0.07200
C 	C 	0.57349 0.88050 0.07320 -0.13200
H 	H 	0.56820 0.94160 0.08670 0.07600
C 	C 	0.60308 0.86220 0.04890 0.05200
H 	H 	0.61700 0.91160 0.04360 0.02300
C 	C 	0.61225 0.77260 0.03240 -0.12500
C 	C 	0.59122 0.70030 0.04390 0.04900
H 	H 	0.59770 0.63870 0.03830 0.02000
C 	C 	0.56088 0.71790 0.06350 -0.13200
H 	H 	0.54670 0.66870 0.06720 0.07100
C 	C 	0.64392 0.75360 0.00320 0.34300
O 	O 	0.22238 0.07370 0.05630 -0.44400
O 	O 	0.26545 0.15670 0.05170 -0.54900
O 	O 	0.23724 0.84510 0.34570 -0.50000
O 	O 	0.28434 0.76940 0.38320 -0.46300
O 	O 	0.65464 0.67120 0.01020 -0.42500
O 	O 	0.65931 0.81740 0.97310 -0.41300
Tb	Tb	0.20398 0.20869 0.95456 1.73500
C 	C 	0.75235 0.58570 0.07990 0.43300
C 	C 	0.77319 0.51220 0.14140 -0.16000
C 	C 	0.80510 0.50100 0.13260 0.02600
H 	H 	0.81360 0.53930 0.08960 0.02400
C 	C 	0.82470 0.43300 0.18760 -0.05300
C 	C 	0.81082 0.37880 0.25250 0.03100
H 	H 	0.82340 0.33340 0.29050 0.03400
C 	C 	0.77907 0.39000 0.26240 -0.15600
C 	C 	0.75996 0.45510 0.20400 0.08600
H 	H 	0.73820 0.46060 0.20670 0.01300
C 	C 	0.76584 0.32990 0.33660 0.45700
C 	C 	0.85836 0.41710 0.17600 0.05200
C 	C 	0.87833 0.48750 0.15370 -0.08600
H 	H 	0.87030 0.54830 0.14690 0.06500
C 	C 	0.90938 0.47150 0.14130 -0.02900
H 	H 	0.92200 0.52160 0.12880 0.03800
C 	C 	0.92207 0.38240 0.14690 -0.00800
C 	C 	0.90292 0.30980 0.16960 -0.02800
H 	H 	0.91090 0.24900 0.17440 0.03800
C 	C 	0.87195 0.32720 0.18500 -0.08300
H 	H 	0.85980 0.27770 0.20180 0.06200
C 	C 	0.95611 0.36160 0.13260 0.03500
C 	C 	0.97662 0.43560 0.12270 -0.07600
H 	H 	0.96970 0.49690 0.12740 0.05500
C 	C 	0.00747 0.41800 0.10560 -0.02900
H 	H 	0.02120 0.46750 0.09900 0.03800
C 	C 	0.01781 0.32640 0.09860 -0.01700
C 	C 	0.99730 0.25240 0.10850 -0.02900
H 	H 	0.00420 0.19110 0.10380 0.03400
C 	C 	0.96645 0.27000 0.12550 -0.07500
H 	H 	0.95270 0.22050 0.13220 0.05200
C 	C 	0.05155 0.30930 0.07780 0.07300
C 	C 	0.07349 0.38050 0.07320 -0.13300
H 	H 	0.06820 0.44160 0.08670 0.07600
C 	C 	0.10308 0.36220 0.04890 0.05300
H 	H 	0.11700 0.41160 0.04360 0.02300
C 	C 	0.11225 0.27260 0.03240 -0.12600
C 	C 	0.09122 0.20030 0.04390 0.05000
H 	H 	0.09770 0.13870 0.03830 0.02000
C 	C 	0.06088 0.21790 0.06350 -0.13200
H 	H 	0.04670 0.16870 0.06720 0.07100
C 	C 	0.14392 0.25360 0.00320 0.34500
O 	O 	0.72238 0.57370 0.05630 -0.44500
O 	O 	0.76545 0.65670 0.05170 -0.54900
O 	O 	0.73724 0.34510 0.34570 -0.50000
O 	O 	0.78434 0.26940 0.38320 -0.46200
O 	O 	0.15464 0.17120 0.01020 -0.42400
O 	O 	0.15931 0.31740 0.97310 -0.41400
Tb	Tb	0.70398 0.70869 0.95456 1.73700
C 	C 	0.74765 0.08570 0.42010 0.43300
C 	C 	0.72681 0.01220 0.35860 -0.16000
C 	C 	0.69490 0.00100 0.36740 0.02600
H 	H 	0.68640 0.03930 0.41040 0.02300
C 	C 	0.67530 0.93300 0.31240 -0.05300
C 	C 	0.68918 0.87880 0.24750 0.03100
H 	H 	0.67660 0.83340 0.20950 0.03400
C 	C 	0.72093 0.89000 0.23760 -0.15600
C 	C 	0.74004 0.95510 0.29600 0.08600
H 	H 	0.76180 0.96060 0.29330 0.01300
C 	C 	0.73416 0.82990 0.16340 0.45700
C 	C 	0.64164 0.91710 0.32400 0.05200
C 	C 	0.62167 0.98750 0.34630 -0.08700
H 	H 	0.62970 0.04830 0.35310 0.06500
C 	C 	0.59062 0.97150 0.35870 -0.02900
H 	H 	0.57800 0.02160 0.37120 0.03900
C 	C 	0.57793 0.88240 0.35310 -0.00800
C 	C 	0.59708 0.80980 0.33040 -0.02800
H 	H 	0.58910 0.74900 0.32560 0.03800
C 	C 	0.62805 0.82720 0.31500 -0.08300
H 	H 	0.64020 0.77770 0.29820 0.06200
C 	C 	0.54389 0.86160 0.36740 0.03500
C 	C 	0.52338 0.93560 0.37730 -0.07600
H 	H 	0.53030 0.99690 0.37260 0.05500
C 	C 	0.49253 0.91800 0.39440 -0.02900
H 	H 	0.47880 0.96750 0.40100 0.03800
C 	C 	0.48219 0.82640 0.40140 -0.01700
C 	C 	0.50270 0.75240 0.39150 -0.02900
H 	H 	0.49580 0.69110 0.39620 0.03400
C 	C 	0.53355 0.77000 0.37450 -0.07500
H 	H 	0.54730 0.72050 0.36780 0.05200
C 	C 	0.44845 0.80930 0.42220 0.07300
C 	C 	0.42651 0.88050 0.42680 -0.13300
H 	H 	0.43180 0.94160 0.41330 0.07600
C 	C 	0.39692 0.86220 0.45110 0.05300
H 	H 	0.38300 0.91160 0.45640 0.02300
C 	C 	0.38775 0.77260 0.46760 -0.12600
C 	C 	0.40878 0.70030 0.45610 0.04900
H 	H 	0.40230 0.63870 0.46170 0.02000
C 	C 	0.43912 0.71790 0.43650 -0.13200
H 	H 	0.45330 0.66870 0.43280 0.07100
C 	C 	0.35608 0.75360 0.49680 0.34400
O 	O 	0.77762 0.07370 0.44370 -0.44500
O 	O 	0.73455 0.15670 0.44830 -0.54900
O 	O 	0.76276 0.84510 0.15430 -0.50000
O 	O 	0.71566 0.76940 0.11680 -0.46300
O 	O 	0.34536 0.67120 0.48980 -0.42500
O 	O 	0.34069 0.81740 0.52690 -0.41400
Tb	Tb	0.79602 0.20869 0.54544 1.73600
C 	C 	0.24765 0.58570 0.42010 0.43300
C 	C 	0.22681 0.51220 0.35860 -0.16000
C 	C 	0.19490 0.50100 0.36740 0.02600
H 	H 	0.18640 0.53930 0.41040 0.02400
C 	C 	0.17530 0.43300 0.31240 -0.05300
C 	C 	0.18918 0.37880 0.24750 0.03100
H 	H 	0.17660 0.33340 0.20950 0.03400
C 	C 	0.22093 0.39000 0.23760 -0.15600
C 	C 	0.24004 0.45510 0.29600 0.08600
H 	H 	0.26180 0.46060 0.29330 0.01300
C 	C 	0.23416 0.32990 0.16340 0.45700
C 	C 	0.14164 0.41710 0.32400 0.05200
C 	C 	0.12167 0.48750 0.34630 -0.08600
H 	H 	0.12970 0.54830 0.35310 0.06500
C 	C 	0.09062 0.47150 0.35870 -0.02900
H 	H 	0.07800 0.52160 0.37120 0.03900
C 	C 	0.07793 0.38240 0.35310 -0.00900
C 	C 	0.09708 0.30980 0.33040 -0.02800
H 	H 	0.08910 0.24900 0.32560 0.03800
C 	C 	0.12805 0.32720 0.31500 -0.08300
H 	H 	0.14020 0.27770 0.29820 0.06200
C 	C 	0.04389 0.36160 0.36740 0.03500
C 	C 	0.02338 0.43560 0.37730 -0.07600
H 	H 	0.03030 0.49690 0.37260 0.05500
C 	C 	0.99253 0.41800 0.39440 -0.02900
H 	H 	0.97880 0.46750 0.40100 0.03800
C 	C 	0.98219 0.32640 0.40140 -0.01700
C 	C 	0.00270 0.25240 0.39150 -0.02900
H 	H 	0.99580 0.19110 0.39620 0.03400
C 	C 	0.03355 0.27000 0.37450 -0.07500
H 	H 	0.04730 0.22050 0.36780 0.05200
C 	C 	0.94845 0.30930 0.42220 0.07300
C 	C 	0.92651 0.38050 0.42680 -0.13300
H 	H 	0.93180 0.44160 0.41330 0.07600
C 	C 	0.89692 0.36220 0.45110 0.05300
H 	H 	0.88300 0.41160 0.45640 0.02300
C 	C 	0.88775 0.27260 0.46760 -0.12600
C 	C 	0.90878 0.20030 0.45610 0.04900
H 	H 	0.90230 0.13870 0.46170 0.02000
C 	C 	0.93912 0.21790 0.43650 -0.13200
H 	H 	0.95330 0.16870 0.43280 0.07100
C 	C 	0.85608 0.25360 0.49680 0.34400
O 	O 	0.27762 0.57370 0.44370 -0.44500
O 	O 	0.23455 0.65670 0.44830 -0.54900
O 	O 	0.26276 0.34510 0.15430 -0.50000
O 	O 	0.21566 0.26940 0.11680 -0.46200
O 	O 	0.84536 0.17120 0.48980 -0.42500
O 	O 	0.84069 0.31740 0.52690 -0.41400
Tb	Tb	0.29602 0.70869 0.54544 1.73600
C 	C 	0.74765 0.91430 0.92010 0.43300
C 	C 	0.72681 0.98780 0.85860 -0.15900
C 	C 	0.69490 0.99900 0.86740 0.02700
H 	H 	0.68640 0.96070 0.91040 0.02300
C 	C 	0.67530 0.06700 0.81240 -0.05400
C 	C 	0.68918 0.12120 0.74750 0.03100
H 	H 	0.67660 0.16660 0.70950 0.03400
C 	C 	0.72093 0.11000 0.73760 -0.15600
C 	C 	0.74004 0.04490 0.79600 0.08500
H 	H 	0.76180 0.03940 0.79330 0.01300
C 	C 	0.73416 0.17010 0.66340 0.45700
C 	C 	0.64164 0.08290 0.82400 0.05200
C 	C 	0.62167 0.01250 0.84630 -0.08800
H 	H 	0.62970 0.95170 0.85310 0.06600
C 	C 	0.59062 0.02850 0.85870 -0.03000
H 	H 	0.57800 0.97840 0.87120 0.04000
C 	C 	0.57793 0.11760 0.85310 -0.00800
C 	C 	0.59708 0.19020 0.83040 -0.02800
H 	H 	0.58910 0.25100 0.82560 0.03800
C 	C 	0.62805 0.17280 0.81500 -0.08300
H 	H 	0.64020 0.22230 0.79820 0.06200
C 	C 	0.54389 0.13840 0.86740 0.03400
C 	C 	0.52338 0.06440 0.87730 -0.07600
H 	H 	0.53030 0.00310 0.87260 0.05500
C 	C 	0.49253 0.08200 0.89440 -0.03000
H 	H 	0.47880 0.03250 0.90100 0.03800
C 	C 	0.48219 0.17360 0.90140 -0.01700
C 	C 	0.50270 0.24760 0.89150 -0.02900
H 	H 	0.49580 0.30890 0.89620 0.03400
C 	C 	0.53355 0.23000 0.87450 -0.07500
H 	H 	0.54730 0.27950 0.86780 0.05200
C 	C 	0.44845 0.19070 0.92220 0.07200
C 	C 	0.42651 0.11950 0.92680 -0.13200
H 	H 	0.43180 0.05840 0.91330 0.07600
C 	C 	0.39692 0.13780 0.95110 0.05200
H 	H 	0.38300 0.08840 0.95640 0.02300
C 	C 	0.38775 0.22740 0.96760 -0.12500
C 	C 	0.40878 0.29970 0.95610 0.04900
H 	H 	0.40230 0.36130 0.96170 0.02000
C 	C 	0.43912 0.28210 0.93650 -0.13200
H 	H 	0.45330 0.33130 0.93280 0.07100
C 	C 	0.35608 0.24640 0.99680 0.34300
O 	O 	0.77762 0.92630 0.94370 -0.44400
O 	O 	0.73455 0.84330 0.94830 -0.54900
O 	O 	0.76276 0.15490 0.65430 -0.50000
O 	O 	0.71566 0.23060 0.61680 -0.46300
O 	O 	0.34536 0.32880 0.98980 -0.42500
O 	O 	0.34069 0.18260 0.02690 -0.41300
Tb	Tb	0.79602 0.79131 0.04544 1.73500
C 	C 	0.24765 0.41430 0.92010 0.43300
C 	C 	0.22681 0.48780 0.85860 -0.16000
C 	C 	0.19490 0.49900 0.86740 0.02600
H 	H 	0.18640 0.46070 0.91040 0.02400
C 	C 	0.17530 0.56700 0.81240 -0.05300
C 	C 	0.18918 0.62120 0.74750 0.03100
H 	H 	0.17660 0.66660 0.70950 0.03400
C 	C 	0.22093 0.61000 0.73760 -0.15600
C 	C 	0.24004 0.54490 0.79600 0.08600
H 	H 	0.26180 0.53940 0.79330 0.01300
C 	C 	0.23416 0.67010 0.66340 0.45700
C 	C 	0.14164 0.58290 0.82400 0.05200
C 	C 	0.12167 0.51250 0.84630 -0.08600
H 	H 	0.12970 0.45170 0.85310 0.06500
C 	C 	0.09062 0.52850 0.85870 -0.02900
H 	H 	0.07800 0.47840 0.87120 0.03800
C 	C 	0.07793 0.61760 0.85310 -0.00800
C 	C 	0.09708 0.69020 0.83040 -0.02800
H 	H 	0.08910 0.75100 0.82560 0.03800
C 	C 	0.12805 0.67280 0.81500 -0.08300
H 	H 	0.14020 0.72230 0.79820 0.06200
C 	C 	0.04389 0.63840 0.86740 0.03500
C 	C 	0.02338 0.56440 0.87730 -0.07600
H 	H 	0.03030 0.50310 0.87260 0.05500
C 	C 	0.99253 0.58200 0.89440 -0.02900
H 	H 	0.97880 0.53250 0.90100 0.03800
C 	C 	0.98219 0.67360 0.90140 -0.01700
C 	C 	0.00270 0.74760 0.89150 -0.02900
H 	H 	0.99580 0.80890 0.89620 0.03400
C 	C 	0.03355 0.73000 0.87450 -0.07500
H 	H 	0.04730 0.77950 0.86780 0.05200
C 	C 	0.94845 0.69070 0.92220 0.07300
C 	C 	0.92651 0.61950 0.92680 -0.13300
H 	H 	0.93180 0.55840 0.91330 0.07600
C 	C 	0.89692 0.63780 0.95110 0.05300
H 	H 	0.88300 0.58840 0.95640 0.02300
C 	C 	0.88775 0.72740 0.96760 -0.12600
C 	C 	0.90878 0.79970 0.95610 0.05000
H 	H 	0.90230 0.86130 0.96170 0.02000
C 	C 	0.93912 0.78210 0.93650 -0.13200
H 	H 	0.95330 0.83130 0.93280 0.07100
C 	C 	0.85608 0.74640 0.99680 0.34500
O 	O 	0.27762 0.42630 0.94370 -0.44500
O 	O 	0.23455 0.34330 0.94830 -0.54900
O 	O 	0.26276 0.65490 0.65430 -0.50000
O 	O 	0.21566 0.73060 0.61680 -0.46200
O 	O 	0.84536 0.82880 0.98980 -0.42400
O 	O 	0.84069 0.68260 0.02690 -0.41400
Tb	Tb	0.29602 0.29131 0.04544 1.73700
C 	C 	0.25235 0.91430 0.57990 0.43300
C 	C 	0.27319 0.98780 0.64140 -0.16000
C 	C 	0.30510 0.99900 0.63260 0.02600
H 	H 	0.31360 0.96070 0.58960 0.02300
C 	C 	0.32470 0.06700 0.68760 -0.05300
C 	C 	0.31082 0.12120 0.75250 0.03100
H 	H 	0.32340 0.16660 0.79050 0.03400
C 	C 	0.27907 0.11000 0.76240 -0.15600
C 	C 	0.25996 0.04490 0.70400 0.08600
H 	H 	0.23820 0.03940 0.70670 0.01300
C 	C 	0.26584 0.17010 0.83660 0.45700
C 	C 	0.35836 0.08290 0.67600 0.05200
C 	C 	0.37833 0.01250 0.65370 -0.08700
H 	H 	0.37030 0.95170 0.64690 0.06500
C 	C 	0.40938 0.02850 0.64130 -0.02900
H 	H 	0.42200 0.97840 0.62880 0.03900
C 	C 	0.42207 0.11760 0.64690 -0.00800
C 	C 	0.40292 0.19020 0.66960 -0.02800
H 	H 	0.41090 0.25100 0.67440 0.03800
C 	C 	0.37195 0.17280 0.68500 -0.08300
H 	H 	0.35980 0.22230 0.70180 0.06200
C 	C 	0.45611 0.13840 0.63260 0.03500
C 	C 	0.47662 0.06440 0.62270 -0.07600
H 	H 	0.46970 0.00310 0.62740 0.05500
C 	C 	0.50747 0.08200 0.60560 -0.02900
H 	H 	0.52120 0.03250 0.59900 0.03800
C 	C 	0.51781 0.17360 0.59860 -0.01700
C 	C 	0.49730 0.24760 0.60850 -0.02900
H 	H 	0.50420 0.30890 0.60380 0.03400
C 	C 	0.46645 0.23000 0.62550 -0.07500
H 	H 	0.45270 0.27950 0.63220 0.05200
C 	C 	0.55155 0.19070 0.57780 0.07300
C 	C 	0.57349 0.11950 0.57320 -0.13300
H 	H 	0.56820 0.05840 0.58670 0.07600
C 	C 	0.60308 0.13780 0.54890 0.05300
H 	H 	0.61700 0.08840 0.54360 0.02300
C 	C 	0.61225 0.22740 0.53240 -0.12600
C 	C 	0.59122 0.29970 0.54390 0.04900
H 	H 	0.59770 0.36130 0.53830 0.02000
C 	C 	0.56088 0.28210 0.56350 -0.13200
H 	H 	0.54670 0.33130 0.56720 0.07100
C 	C 	0.64392 0.24640 0.50320 0.34400
O 	O 	0.22238 0.92630 0.55630 -0.44500
O 	O 	0.26545 0.84330 0.55170 -0.54900
O 	O 	0.23724 0.15490 0.84570 -0.50000
O 	O 	0.28434 0.23060 0.88320 -0.46300
O 	O 	0.65464 0.32880 0.51020 -0.42500
O 	O 	0.65931 0.18260 0.47310 -0.41400
Tb	Tb	0.20398 0.79131 0.45456 1.73600
C 	C 	0.75235 0.41430 0.57990 0.43300
C 	C 	0.77319 0.48780 0.64140 -0.16000
C 	C 	0.80510 0.49900 0.63260 0.02600
H 	H 	0.81360 0.46070 0.58960 0.02400
C 	C 	0.82470 0.56700 0.68760 -0.05300
C 	C 	0.81082 0.62120 0.75250 0.03100
H 	H 	0.82340 0.66660 0.79050 0.03400
C 	C 	0.77907 0.61000 0.76240 -0.15600
C 	C 	0.75996 0.54490 0.70400 0.08600
H 	H 	0.73820 0.53940 0.70670 0.01300
C 	C 	0.76584 0.67010 0.83660 0.45700
C 	C 	0.85836 0.58290 0.67600 0.05200
C 	C 	0.87833 0.51250 0.65370 -0.08600
H 	H 	0.87030 0.45170 0.64690 0.06500
C 	C 	0.90938 0.52850 0.64130 -0.02900
H 	H 	0.92200 0.47840 0.62880 0.03900
C 	C 	0.92207 0.61760 0.64690 -0.00900
C 	C 	0.90292 0.69020 0.66960 -0.02800
H 	H 	0.91090 0.75100 0.67440 0.03800
C 	C 	0.87195 0.67280 0.68500 -0.08300
H 	H 	0.85980 0.72230 0.70180 0.06200
C 	C 	0.95611 0.63840 0.63260 0.03500
C 	C 	0.97662 0.56440 0.62270 -0.07600
H 	H 	0.96970 0.50310 0.62740 0.05500
C 	C 	0.00747 0.58200 0.60560 -0.02900
H 	H 	0.02120 0.53250 0.59900 0.03800
C 	C 	0.01781 0.67360 0.59860 -0.01700
C 	C 	0.99730 0.74760 0.60850 -0.02900
H 	H 	0.00420 0.80890 0.60380 0.03400
C 	C 	0.96645 0.73000 0.62550 -0.07500
H 	H 	0.95270 0.77950 0.63220 0.05200
C 	C 	0.05155 0.69070 0.57780 0.07300
C 	C 	0.07349 0.61950 0.57320 -0.13300
H 	H 	0.06820 0.55840 0.58670 0.07600
C 	C 	0.10308 0.63780 0.54890 0.05300
H 	H 	0.11700 0.58840 0.54360 0.02300
C 	C 	0.11225 0.72740 0.53240 -0.12600
C 	C 	0.09122 0.79970 0.54390 0.04900
H 	H 	0.09770 0.86130 0.53830 0.02000
C 	C 	0.06088 0.78210 0.56350 -0.13200
H 	H 	0.04670 0.83130 0.56720 0.07100
C 	C 	0.14392 0.74640 0.50320 0.34400
O 	O 	0.72238 0.42630 0.55630 -0.44500
O 	O 	0.76545 0.34330 0.55170 -0.54900
O 	O 	0.73724 0.65490 0.84570 -0.50000
O 	O 	0.78434 0.73060 0.88320 -0.46200
O 	O 	0.15464 0.82880 0.51020 -0.42500
O 	O 	0.15931 0.68260 0.47310 -0.41400
Tb	Tb	0.70398 0.29131 0.45456 1.73600
