data_crystal

_cell_length_a 8.56200
_cell_length_b 8.83900
_cell_length_c 16.90400
_cell_angle_alpha 82.23800
_cell_angle_beta  89.59200
_cell_angle_gamma 78.25200

_symmetry_space_group_name_	'P 1'
_symmetry_space_group_name_H-M	'P 1'

loop_
_symmetry_equiv_pos_as_xyz
  x,y,z

loop_
_atom_site_label
_atom_site_type_symbol
_atom_site_fract_x
_atom_site_fract_y
_atom_site_fract_z
_atom_site_charge
N 	N 	0.50480 0.46640 0.22400 -0.24500
N 	N 	0.13470 0.92460 0.15450 -0.30700
B 	B 	0.17480 0.76570 0.12280 0.93000
N 	N 	0.02260 0.69850 0.11760 -0.30800
N 	N 	0.99420 0.14790 0.18730 -0.23600
N 	N 	0.24660 0.78000 0.03900 -0.31100
N 	N 	0.84680 0.54520 0.14340 -0.22700
N 	N 	0.31970 0.71810 0.91890 -0.23100
C 	C 	0.98460 0.57540 0.16330 0.12700
H 	H 	0.04950 0.51680 0.20510 -0.02900
C 	C 	0.29450 0.62930 0.26300 0.05600
H 	H 	0.21930 0.68190 0.29500 0.01100
N 	N 	0.29690 0.65380 0.18060 -0.31300
C 	C 	0.22870 0.69400 0.98080 0.12400
H 	H 	0.15940 0.62490 0.98400 -0.03800
C 	C 	0.23940 0.00100 0.18700 0.03800
H 	H 	0.34910 0.96640 0.19390 -0.00200
C 	C 	0.89710 0.75030 0.06340 0.03900
H 	H 	0.88680 0.83430 0.02290 -0.00100
C 	C 	0.42100 0.51510 0.28870 -0.03300
H 	H 	0.44720 0.47570 0.34190 0.05900
C 	C 	0.42590 0.55040 0.16130 0.12700
H 	H 	0.45560 0.53980 0.10900 -0.04400
C 	C 	0.35940 0.86470 0.01140 0.04600
H 	H 	0.39860 0.93520 0.03800 -0.00400
C 	C 	0.15120 0.13620 0.20720 -0.01600
H 	H 	0.19170 0.20960 0.23090 0.02700
C 	C 	0.98980 0.02030 0.15650 0.12200
H 	H 	0.89640 0.99770 0.13780 -0.04800
C 	C 	0.40250 0.82580 0.93840 -0.03400
H 	H 	0.47700 0.86610 0.90620 0.01600
C 	C 	0.79220 0.65620 0.08020 -0.02000
H 	H 	0.69640 0.66560 0.05260 0.02200
Cd	Cd	0.75854 0.32394 0.21271 1.18800
O 	O 	0.71110 0.33350 0.39820 -0.33500
O 	O 	0.70270 0.43560 0.53310 -0.44100
H 	H 	0.66310 0.41330 0.49340 0.29000
C 	C 	0.83960 0.37420 0.38110 0.34500
C 	C 	0.92330 0.43750 0.44310 -0.13100
C 	C 	0.92730 0.52880 0.57100 -0.10800
H 	H 	0.87790 0.54830 0.61880 0.09300
C 	C 	0.84930 0.46650 0.51560 0.23200
O 	O 	0.90390 0.36760 0.31410 -0.42600
N 	N 	0.49520 0.53360 0.77600 -0.24600
N 	N 	0.86530 0.07540 0.84550 -0.30800
B 	B 	0.82520 0.23430 0.87720 0.92900
N 	N 	0.97740 0.30150 0.88240 -0.30900
N 	N 	0.00580 0.85210 0.81270 -0.23700
N 	N 	0.75340 0.22000 0.96100 -0.31200
N 	N 	0.15320 0.45480 0.85660 -0.22800
N 	N 	0.68030 0.28190 0.08110 -0.23200
C 	C 	0.01540 0.42460 0.83670 0.12700
H 	H 	0.95050 0.48320 0.79490 -0.02900
C 	C 	0.70550 0.37070 0.73700 0.05600
H 	H 	0.78070 0.31810 0.70500 0.01100
N 	N 	0.70310 0.34620 0.81940 -0.31300
C 	C 	0.77130 0.30600 0.01920 0.12400
H 	H 	0.84060 0.37510 0.01600 -0.03800
C 	C 	0.76060 0.99900 0.81300 0.03800
H 	H 	0.65090 0.03360 0.80610 -0.00200
C 	C 	0.10290 0.24970 0.93660 0.03900
H 	H 	0.11320 0.16570 0.97710 -0.00100
C 	C 	0.57900 0.48490 0.71130 -0.03300
H 	H 	0.55280 0.52430 0.65810 0.05900
C 	C 	0.57410 0.44960 0.83870 0.12700
H 	H 	0.54440 0.46020 0.89100 -0.04400
C 	C 	0.64060 0.13530 0.98860 0.04600
H 	H 	0.60140 0.06480 0.96200 -0.00400
C 	C 	0.84880 0.86380 0.79280 -0.01600
H 	H 	0.80830 0.79040 0.76910 0.02700
C 	C 	0.01020 0.97970 0.84350 0.12200
H 	H 	0.10360 0.00230 0.86220 -0.04800
C 	C 	0.59750 0.17420 0.06160 -0.03400
H 	H 	0.52300 0.13390 0.09380 0.01600
C 	C 	0.20780 0.34380 0.91980 -0.02000
H 	H 	0.30360 0.33440 0.94740 0.02200
Cd	Cd	0.24146 0.67606 0.78729 1.18800
O 	O 	0.28890 0.66650 0.60180 -0.33500
O 	O 	0.29730 0.56440 0.46690 -0.44100
H 	H 	0.33690 0.58670 0.50660 0.29000
C 	C 	0.16040 0.62580 0.61890 0.34500
C 	C 	0.07670 0.56250 0.55690 -0.13100
C 	C 	0.07270 0.47120 0.42900 -0.10800
H 	H 	0.12210 0.45170 0.38120 0.09300
C 	C 	0.15070 0.53350 0.48440 0.23200
O 	O 	0.09610 0.63240 0.68590 -0.42600
