data_crystal

_cell_length_a 6.86540
_cell_length_b 11.42000
_cell_length_c 17.43960
_cell_angle_alpha 90.00000
_cell_angle_beta  98.66200
_cell_angle_gamma 90.00000

_symmetry_space_group_name_	'P 1'
_symmetry_space_group_name_H-M	'P 1'

loop_
_symmetry_equiv_pos_as_xyz
  x,y,z

loop_
_atom_site_label
_atom_site_type_symbol
_atom_site_fract_x
_atom_site_fract_y
_atom_site_fract_z
_atom_site_charge
Cd	Cd	0.83205 0.35845 0.52672 1.22400
C 	C 	0.54120 0.27410 0.30300 -0.00800
C 	C 	0.51280 0.36510 0.24990 -0.03600
H 	H 	0.53170 0.44200 0.26690 0.06100
C 	C 	0.45630 0.34220 0.17160 -0.02400
C 	C 	0.42740 0.22700 0.14700 -0.13900
H 	H 	0.39230 0.21030 0.09450 0.09900
C 	C 	0.45120 0.13740 0.20080 0.17900
C 	C 	0.50940 0.15900 0.27840 -0.14200
H 	H 	0.52720 0.09760 0.31380 0.07200
C 	C 	0.61180 0.29770 0.38780 0.29200
C 	C 	0.42610 0.43820 0.11320 0.30200
C 	C 	0.49250 0.98380 0.11270 -0.23400
H 	H 	0.63410 0.99510 0.12150 0.10100
H 	H 	0.43780 0.03090 0.06830 0.12100
C 	C 	0.44660 0.85740 0.09600 0.38600
O 	O 	0.66260 0.40240 0.40650 -0.39600
O 	O 	0.63160 0.21750 0.43450 -0.35500
O 	O 	0.38170 0.41690 0.04290 -0.43500
O 	O 	0.44020 0.54290 0.13790 -0.41200
O 	O 	0.41240 0.02070 0.17900 -0.28400
O 	O 	0.33770 0.80280 0.13430 -0.54000
O 	O 	0.51660 0.81110 0.04100 -0.41600
Cd	Cd	0.66795 0.35845 0.97328 1.22300
C 	C 	0.95880 0.27410 0.19700 -0.00800
C 	C 	0.98720 0.36510 0.25010 -0.03600
H 	H 	0.96830 0.44200 0.23310 0.06000
C 	C 	0.04370 0.34220 0.32840 -0.02600
C 	C 	0.07260 0.22700 0.35300 -0.13900
H 	H 	0.10770 0.21030 0.40550 0.09700
C 	C 	0.04880 0.13740 0.29920 0.17700
C 	C 	0.99060 0.15900 0.22160 -0.14300
H 	H 	0.97280 0.09760 0.18620 0.07100
C 	C 	0.88820 0.29770 0.11220 0.29200
C 	C 	0.07390 0.43820 0.38680 0.30300
C 	C 	0.00750 0.98380 0.38730 -0.23900
H 	H 	0.86590 0.99510 0.37850 0.10400
H 	H 	0.06220 0.03090 0.43170 0.12200
C 	C 	0.05340 0.85740 0.40400 0.38500
O 	O 	0.83740 0.40240 0.09350 -0.39500
O 	O 	0.86840 0.21750 0.06550 -0.35400
O 	O 	0.11830 0.41690 0.45710 -0.43500
O 	O 	0.05980 0.54290 0.36210 -0.41200
O 	O 	0.08760 0.02070 0.32100 -0.28200
O 	O 	0.16230 0.80280 0.36570 -0.54000
O 	O 	0.98340 0.81110 0.45900 -0.41400
Cd	Cd	0.16795 0.64155 0.47328 1.22300
C 	C 	0.45880 0.72590 0.69700 -0.00900
C 	C 	0.48720 0.63490 0.75010 -0.03700
H 	H 	0.46830 0.55800 0.73310 0.06000
C 	C 	0.54370 0.65780 0.82840 -0.02500
C 	C 	0.57260 0.77300 0.85300 -0.14000
H 	H 	0.60770 0.78970 0.90550 0.09800
C 	C 	0.54880 0.86260 0.79920 0.17800
C 	C 	0.49060 0.84100 0.72160 -0.14300
H 	H 	0.47280 0.90240 0.68620 0.07100
C 	C 	0.38820 0.70230 0.61220 0.29200
C 	C 	0.57390 0.56180 0.88680 0.30200
C 	C 	0.50750 0.01620 0.88730 -0.23400
H 	H 	0.36590 0.00490 0.87850 0.10100
H 	H 	0.56220 0.96910 0.93170 0.12100
C 	C 	0.55340 0.14260 0.90400 0.38600
O 	O 	0.33740 0.59760 0.59350 -0.39600
O 	O 	0.36840 0.78250 0.56550 -0.35500
O 	O 	0.61830 0.58310 0.95710 -0.43500
O 	O 	0.55980 0.45710 0.86210 -0.41200
O 	O 	0.58760 0.97930 0.82100 -0.28400
O 	O 	0.66230 0.19720 0.86570 -0.54000
O 	O 	0.48340 0.18890 0.95900 -0.41600
Cd	Cd	0.33205 0.64155 0.02672 1.22300
C 	C 	0.04120 0.72590 0.80300 -0.00800
C 	C 	0.01280 0.63490 0.74990 -0.03600
H 	H 	0.03170 0.55800 0.76690 0.06000
C 	C 	0.95630 0.65780 0.67160 -0.02600
C 	C 	0.92740 0.77300 0.64700 -0.13900
H 	H 	0.89230 0.78970 0.59450 0.09700
C 	C 	0.95120 0.86260 0.70080 0.17700
C 	C 	0.00940 0.84100 0.77840 -0.14300
H 	H 	0.02720 0.90240 0.81380 0.07100
C 	C 	0.11180 0.70230 0.88780 0.29200
C 	C 	0.92610 0.56180 0.61320 0.30300
C 	C 	0.99250 0.01620 0.61270 -0.23900
H 	H 	0.13410 0.00490 0.62150 0.10400
H 	H 	0.93780 0.96910 0.56830 0.12200
C 	C 	0.94660 0.14260 0.59600 0.38500
O 	O 	0.16260 0.59760 0.90650 -0.39500
O 	O 	0.13160 0.78250 0.93450 -0.35400
O 	O 	0.88170 0.58310 0.54290 -0.43500
O 	O 	0.94020 0.45710 0.63790 -0.41200
O 	O 	0.91240 0.97930 0.67900 -0.28200
O 	O 	0.83770 0.19720 0.63430 -0.54000
O 	O 	0.01660 0.18890 0.54100 -0.41400
Cd	Cd	0.25000 0.85402 0.25000 1.17800
Cd	Cd	0.75000 0.14598 0.75000 1.17800
