data_crystal

_cell_length_a 11.45200
_cell_length_b 15.82900
_cell_length_c 12.68500
_cell_angle_alpha 90.00000
_cell_angle_beta  90.00000
_cell_angle_gamma 90.00000

_symmetry_space_group_name_	'P 1'
_symmetry_space_group_name_H-M	'P 1'

loop_
_symmetry_equiv_pos_as_xyz
  x,y,z

loop_
_atom_site_label
_atom_site_type_symbol
_atom_site_fract_x
_atom_site_fract_y
_atom_site_fract_z
_atom_site_charge
Eu	Eu	0.75000 0.92234 0.47706 2.06900
Eu	Eu	0.75000 0.92558 0.97728 1.88900
Eu	Eu	0.25000 0.57766 0.97706 2.07600
Eu	Eu	0.25000 0.57442 0.47728 1.90100
Eu	Eu	0.25000 0.07766 0.52294 2.06900
Eu	Eu	0.25000 0.07442 0.02272 1.88900
Eu	Eu	0.75000 0.42234 0.02294 2.07700
Eu	Eu	0.75000 0.42558 0.52272 1.90200
Sr	Sr	0.75000 0.67211 0.62894 1.49400
Sr	Sr	0.25000 0.82789 0.12894 1.49500
Sr	Sr	0.25000 0.32789 0.37106 1.49400
Sr	Sr	0.75000 0.17211 0.87106 1.49500
H 	H 	0.68940 0.75220 0.40950 0.37000
H 	H 	0.31060 0.74780 0.90950 0.37000
H 	H 	0.18940 0.24780 0.59050 0.36900
H 	H 	0.81060 0.25220 0.09050 0.37000
H 	H 	0.31060 0.24780 0.59050 0.37000
H 	H 	0.68940 0.25220 0.09050 0.37000
H 	H 	0.81060 0.75220 0.40950 0.36900
H 	H 	0.18940 0.74780 0.90950 0.37000
C 	C 	0.97690 0.04230 0.47710 0.28400
C 	C 	0.97520 0.04250 0.01970 0.27000
C 	C 	0.68320 0.90690 0.22620 0.24800
C 	C 	0.02310 0.45770 0.97710 0.27900
C 	C 	0.02480 0.45750 0.51970 0.26500
C 	C 	0.31680 0.59310 0.72620 0.24900
C 	C 	0.47690 0.95770 0.52290 0.27900
C 	C 	0.47520 0.95750 0.98030 0.26400
C 	C 	0.18320 0.09310 0.77380 0.24900
C 	C 	0.52310 0.54230 0.02290 0.28000
C 	C 	0.52480 0.54250 0.48030 0.26600
C 	C 	0.81680 0.40690 0.27380 0.24900
C 	C 	0.02310 0.95770 0.52290 0.28400
C 	C 	0.02480 0.95750 0.98030 0.27000
C 	C 	0.31680 0.09310 0.77380 0.24800
C 	C 	0.97690 0.54230 0.02290 0.27900
C 	C 	0.97520 0.54250 0.48030 0.26500
C 	C 	0.68320 0.40690 0.27380 0.24900
C 	C 	0.52310 0.04230 0.47710 0.27900
C 	C 	0.52480 0.04250 0.01970 0.26400
C 	C 	0.81680 0.90690 0.22620 0.24900
C 	C 	0.47690 0.45770 0.97710 0.28000
C 	C 	0.47520 0.45750 0.51970 0.26600
C 	C 	0.18320 0.59310 0.72620 0.24900
C 	C 	0.75000 0.87540 0.73040 0.29300
C 	C 	0.75000 0.97290 0.72690 0.27700
C 	C 	0.25000 0.62460 0.23040 0.28900
C 	C 	0.25000 0.52710 0.22690 0.29200
C 	C 	0.25000 0.12460 0.26960 0.29300
C 	C 	0.25000 0.02710 0.27310 0.27700
C 	C 	0.75000 0.37540 0.76960 0.28900
C 	C 	0.75000 0.47290 0.77310 0.29200
O 	O 	0.87330 0.04580 0.45360 -0.41900
O 	O 	0.86820 0.05500 0.00360 -0.49800
O 	O 	0.63440 0.90470 0.13820 -0.43400
O 	O 	0.63360 0.90700 0.31460 -0.42700
O 	O 	0.05040 0.10130 0.46900 -0.44700
O 	O 	0.04470 0.09180 0.06510 -0.44200
O 	O 	0.12670 0.45420 0.95360 -0.41800
O 	O 	0.13180 0.44500 0.50360 -0.49800
O 	O 	0.36560 0.59530 0.63820 -0.43800
O 	O 	0.36640 0.59300 0.81460 -0.42800
O 	O 	0.94960 0.39870 0.96900 -0.44200
O 	O 	0.95530 0.40820 0.56510 -0.43600
O 	O 	0.37330 0.95420 0.54640 -0.41800
O 	O 	0.36820 0.94500 0.99640 -0.49800
O 	O 	0.13440 0.09530 0.86180 -0.43500
O 	O 	0.13360 0.09300 0.68540 -0.42900
O 	O 	0.55040 0.89870 0.53100 -0.44200
O 	O 	0.54470 0.90820 0.93490 -0.43600
O 	O 	0.62670 0.54580 0.04640 -0.41800
O 	O 	0.63180 0.55500 0.49640 -0.49800
O 	O 	0.86560 0.40470 0.36180 -0.43700
O 	O 	0.86640 0.40700 0.18540 -0.42800
O 	O 	0.44960 0.60130 0.03100 -0.44200
O 	O 	0.45530 0.59180 0.43490 -0.43600
O 	O 	0.12670 0.95420 0.54640 -0.41900
O 	O 	0.13180 0.94500 0.99640 -0.49800
O 	O 	0.36560 0.09530 0.86180 -0.43400
O 	O 	0.36640 0.09300 0.68540 -0.42700
O 	O 	0.94960 0.89870 0.53100 -0.44700
O 	O 	0.95530 0.90820 0.93490 -0.44200
O 	O 	0.87330 0.54580 0.04640 -0.41800
O 	O 	0.86820 0.55500 0.49640 -0.49800
O 	O 	0.63440 0.40470 0.36180 -0.43800
O 	O 	0.63360 0.40700 0.18540 -0.42800
O 	O 	0.05040 0.60130 0.03100 -0.44200
O 	O 	0.04470 0.59180 0.43490 -0.43600
O 	O 	0.62670 0.04580 0.45360 -0.41800
O 	O 	0.63180 0.05500 0.00360 -0.49800
O 	O 	0.86560 0.90470 0.13820 -0.43500
O 	O 	0.86640 0.90700 0.31460 -0.42900
O 	O 	0.44960 0.10130 0.46900 -0.44200
O 	O 	0.45530 0.09180 0.06510 -0.43600
O 	O 	0.37330 0.45420 0.95360 -0.41800
O 	O 	0.36820 0.44500 0.50360 -0.49800
O 	O 	0.13440 0.59530 0.63820 -0.43700
O 	O 	0.13360 0.59300 0.81460 -0.42800
O 	O 	0.55040 0.39870 0.96900 -0.44200
O 	O 	0.54470 0.40820 0.56510 -0.43600
O 	O 	0.75000 0.83830 0.64230 -0.55300
O 	O 	0.75000 0.00790 0.63990 -0.43600
O 	O 	0.75000 0.84180 0.81790 -0.49500
O 	O 	0.75000 0.00890 0.81440 -0.53800
O 	O 	0.75000 0.76460 0.44320 -1.01600
O 	O 	0.25000 0.66170 0.14230 -0.55100
O 	O 	0.25000 0.49210 0.13990 -0.44400
O 	O 	0.25000 0.65820 0.31790 -0.49400
O 	O 	0.25000 0.49110 0.31440 -0.54900
O 	O 	0.25000 0.73540 0.94320 -1.01700
O 	O 	0.25000 0.16170 0.35770 -0.55300
O 	O 	0.25000 0.99210 0.36010 -0.43600
O 	O 	0.25000 0.15820 0.18210 -0.49500
O 	O 	0.25000 0.99110 0.18560 -0.53800
O 	O 	0.25000 0.23540 0.55680 -1.01600
O 	O 	0.75000 0.33830 0.85770 -0.55100
O 	O 	0.75000 0.50790 0.86010 -0.44400
O 	O 	0.75000 0.34180 0.68210 -0.49400
O 	O 	0.75000 0.50890 0.68560 -0.54900
O 	O 	0.75000 0.26460 0.05680 -1.01700
