data_crystal

_cell_length_a 11.42500
_cell_length_b 15.82400
_cell_length_c 12.64900
_cell_angle_alpha 90.00000
_cell_angle_beta  90.00000
_cell_angle_gamma 90.00000

_symmetry_space_group_name_	'P 1'
_symmetry_space_group_name_H-M	'P 1'

loop_
_symmetry_equiv_pos_as_xyz
  x,y,z

loop_
_atom_site_label
_atom_site_type_symbol
_atom_site_fract_x
_atom_site_fract_y
_atom_site_fract_z
_atom_site_charge
Sr	Sr	0.25000 0.67245 0.12874 1.49900
Sr	Sr	0.75000 0.82755 0.62874 1.49800
Sr	Sr	0.75000 0.32755 0.87126 1.49900
Sr	Sr	0.25000 0.17245 0.37126 1.49800
Gd	Gd	0.25000 0.42294 0.52233 1.66700
Gd	Gd	0.25000 0.42622 0.02228 1.53300
Gd	Gd	0.75000 0.07706 0.02233 1.65500
Gd	Gd	0.75000 0.07378 0.52228 1.53100
Gd	Gd	0.75000 0.57706 0.47767 1.66600
Gd	Gd	0.75000 0.57378 0.97772 1.53200
Gd	Gd	0.25000 0.92294 0.97767 1.65400
Gd	Gd	0.25000 0.92622 0.47772 1.53000
H 	H 	0.19390 0.25300 0.59560 0.33600
H 	H 	0.80610 0.24700 0.09560 0.33500
H 	H 	0.69390 0.74700 0.40440 0.33600
H 	H 	0.30610 0.75300 0.90440 0.33500
H 	H 	0.80610 0.74700 0.40440 0.33600
H 	H 	0.19390 0.75300 0.90440 0.33500
H 	H 	0.30610 0.25300 0.59560 0.33600
H 	H 	0.69390 0.24700 0.09560 0.33500
C 	C 	0.02550 0.54220 0.97970 0.25900
C 	C 	0.31700 0.40760 0.77300 0.24200
C 	C 	0.97710 0.45780 0.47750 0.26000
C 	C 	0.97450 0.95780 0.47970 0.26100
C 	C 	0.68300 0.09240 0.27300 0.24100
C 	C 	0.02290 0.04220 0.97750 0.26700
C 	C 	0.52550 0.45780 0.02030 0.25800
C 	C 	0.81700 0.59240 0.22700 0.24200
C 	C 	0.47710 0.54220 0.52250 0.26100
C 	C 	0.47450 0.04220 0.52030 0.25800
C 	C 	0.18300 0.90760 0.72700 0.24200
C 	C 	0.52290 0.95780 0.02250 0.26200
C 	C 	0.97450 0.45780 0.02030 0.25900
C 	C 	0.68300 0.59240 0.22700 0.24200
C 	C 	0.02290 0.54220 0.52250 0.26000
C 	C 	0.02550 0.04220 0.52030 0.26100
C 	C 	0.31700 0.90760 0.72700 0.24100
C 	C 	0.97710 0.95780 0.02250 0.26700
C 	C 	0.47450 0.54220 0.97970 0.25800
C 	C 	0.18300 0.40760 0.77300 0.24200
C 	C 	0.52290 0.45780 0.47750 0.26100
C 	C 	0.52550 0.95780 0.47970 0.25800
C 	C 	0.81700 0.09240 0.27300 0.24200
C 	C 	0.47710 0.04220 0.97750 0.26200
C 	C 	0.25000 0.47330 0.27180 0.27200
C 	C 	0.25000 0.37670 0.26900 0.27200
C 	C 	0.75000 0.02670 0.77180 0.27500
C 	C 	0.75000 0.12330 0.76900 0.27100
C 	C 	0.75000 0.52670 0.72820 0.27200
C 	C 	0.75000 0.62330 0.73100 0.27200
C 	C 	0.25000 0.97330 0.22820 0.27500
C 	C 	0.25000 0.87670 0.23100 0.27100
O 	O 	0.13220 0.55490 0.99530 -0.45400
O 	O 	0.36540 0.40630 0.86110 -0.38700
O 	O 	0.95450 0.59180 0.93480 -0.38600
O 	O 	0.05090 0.39930 0.46850 -0.38500
O 	O 	0.36700 0.40790 0.68460 -0.37600
O 	O 	0.87210 0.45340 0.45360 -0.35900
O 	O 	0.86780 0.94510 0.49530 -0.45400
O 	O 	0.63460 0.09370 0.36110 -0.38800
O 	O 	0.04550 0.90820 0.43480 -0.38800
O 	O 	0.94910 0.10070 0.96850 -0.38700
O 	O 	0.63300 0.09210 0.18460 -0.37600
O 	O 	0.12790 0.04660 0.95360 -0.35500
O 	O 	0.63220 0.44510 0.00470 -0.45400
O 	O 	0.86540 0.59370 0.13890 -0.38700
O 	O 	0.45450 0.40820 0.06520 -0.38500
O 	O 	0.55090 0.60070 0.53150 -0.38500
O 	O 	0.86700 0.59210 0.31540 -0.37600
O 	O 	0.37210 0.54660 0.54640 -0.35900
O 	O 	0.36780 0.05490 0.50470 -0.45400
O 	O 	0.13460 0.90630 0.63890 -0.38900
O 	O 	0.54550 0.09180 0.56520 -0.38400
O 	O 	0.44910 0.89930 0.03150 -0.38200
O 	O 	0.13300 0.90790 0.81540 -0.37800
O 	O 	0.62790 0.95340 0.04640 -0.35500
O 	O 	0.86780 0.44510 0.00470 -0.45400
O 	O 	0.63460 0.59370 0.13890 -0.38700
O 	O 	0.04550 0.40820 0.06520 -0.38600
O 	O 	0.94910 0.60070 0.53150 -0.38500
O 	O 	0.63300 0.59210 0.31540 -0.37600
O 	O 	0.12790 0.54660 0.54640 -0.35900
O 	O 	0.13220 0.05490 0.50470 -0.45400
O 	O 	0.36540 0.90630 0.63890 -0.38800
O 	O 	0.95450 0.09180 0.56520 -0.38800
O 	O 	0.05090 0.89930 0.03150 -0.38700
O 	O 	0.36700 0.90790 0.81540 -0.37600
O 	O 	0.87210 0.95340 0.04640 -0.35500
O 	O 	0.36780 0.55490 0.99530 -0.45400
O 	O 	0.13460 0.40630 0.86110 -0.38700
O 	O 	0.54550 0.59180 0.93480 -0.38500
O 	O 	0.44910 0.39930 0.46850 -0.38500
O 	O 	0.13300 0.40790 0.68460 -0.37600
O 	O 	0.62790 0.45340 0.45360 -0.35900
O 	O 	0.63220 0.94510 0.49530 -0.45400
O 	O 	0.86540 0.09370 0.36110 -0.38900
O 	O 	0.45450 0.90820 0.43480 -0.38400
O 	O 	0.55090 0.10070 0.96850 -0.38200
O 	O 	0.86700 0.09210 0.18460 -0.37800
O 	O 	0.37210 0.04660 0.95360 -0.35500
O 	O 	0.25000 0.50840 0.36050 -0.38900
O 	O 	0.25000 0.33820 0.35680 -0.49600
O 	O 	0.25000 0.34220 0.18150 -0.43500
O 	O 	0.25000 0.51010 0.18450 -0.50100
O 	O 	0.25000 0.26720 0.55670 -0.92000
O 	O 	0.75000 0.99160 0.86050 -0.39200
O 	O 	0.75000 0.16180 0.85680 -0.49400
O 	O 	0.75000 0.15780 0.68150 -0.43400
O 	O 	0.75000 0.98990 0.68450 -0.50300
O 	O 	0.75000 0.23280 0.05670 -0.91900
O 	O 	0.75000 0.49160 0.63950 -0.38900
O 	O 	0.75000 0.66180 0.64320 -0.49600
O 	O 	0.75000 0.65780 0.81850 -0.43500
O 	O 	0.75000 0.48990 0.81550 -0.50100
O 	O 	0.75000 0.73280 0.44330 -0.92000
O 	O 	0.25000 0.00840 0.13950 -0.39200
O 	O 	0.25000 0.83820 0.14320 -0.49400
O 	O 	0.25000 0.84220 0.31850 -0.43400
O 	O 	0.25000 0.01010 0.31550 -0.50300
O 	O 	0.25000 0.76720 0.94330 -0.91900
