data_crystal

_cell_length_a 11.69100
_cell_length_b 13.49200
_cell_length_c 20.61500
_cell_angle_alpha 89.27400
_cell_angle_beta  76.74900
_cell_angle_gamma 66.93000

_symmetry_space_group_name_	'P 1'
_symmetry_space_group_name_H-M	'P 1'

loop_
_symmetry_equiv_pos_as_xyz
  x,y,z

loop_
_atom_site_label
_atom_site_type_symbol
_atom_site_fract_x
_atom_site_fract_y
_atom_site_fract_z
_atom_site_charge
Mo	Mo	0.00318 0.73687 0.47230 1.15900
Mo	Mo	0.73584 0.94053 0.58372 1.18600
Mo	Mo	0.79362 0.96588 0.40969 1.25900
Mo	Mo	0.77365 0.23151 0.44623 1.17300
Mo	Mo	0.95693 0.95393 0.67253 1.20200
Mo	Mo	0.74360 0.19599 0.61967 1.18200
O 	O 	0.91300 0.93460 0.49280 -0.30500
O 	O 	0.90290 0.01710 0.56730 -0.31500
O 	O 	0.85610 0.79730 0.54320 -0.48400
O 	O 	0.91910 0.98330 0.34130 -0.45300
O 	O 	0.71900 0.98200 0.50380 -0.36400
O 	O 	0.83560 0.91270 0.64950 -0.48400
O 	O 	0.14220 0.73840 0.39750 -0.49500
O 	O 	0.89700 0.81900 0.41340 -0.45700
O 	O 	0.90720 0.17900 0.36510 -0.48000
O 	O 	0.83730 0.10060 0.67510 -0.47900
O 	O 	0.66930 0.08950 0.61000 -0.47600
O 	O 	0.93520 0.04610 0.44470 -0.31800
O 	O 	0.11760 0.70890 0.52780 -0.51500
O 	O 	0.69540 0.23780 0.53750 -0.48900
O 	O 	0.71860 0.12320 0.42650 -0.52900
O 	O 	0.69540 0.94880 0.36600 -0.53400
O 	O 	0.09200 0.88200 0.48220 -0.31700
Cu	Cu	0.53030 0.19110 0.37319 0.82500
Cl	Cl	0.61800 0.14020 0.26900 -0.79200
Cu	Cu	0.51230 0.31250 0.21833 0.85000
Cu	Cu	0.29050 0.85360 0.10913 0.82400
Cu	Cu	0.68270 0.93880 0.26475 0.87000
Cu	Cu	0.87170 0.52120 0.34411 0.82600
N 	N 	0.42060 0.27000 0.45560 -0.24300
N 	N 	0.77170 0.45380 0.30460 -0.23000
N 	N 	0.32560 0.37710 0.26770 -0.23800
N 	N 	0.86480 0.89100 0.21550 -0.22600
N 	N 	0.62980 0.18990 0.98520 -0.23600
N 	N 	0.74910 0.61670 0.42420 -0.24300
N 	N 	0.11580 0.85780 0.15030 -0.22600
N 	N 	0.54970 0.26040 0.12150 -0.22100
N 	N 	0.38110 0.88290 0.17350 -0.24100
N 	N 	0.62450 0.37620 0.24980 -0.21800
N 	N 	0.05610 0.46510 0.32210 -0.24800
N 	N 	0.53870 0.91770 0.24370 -0.23100
C 	C 	0.75170 0.32060 0.23940 -0.02400
H 	H 	0.79220 0.25580 0.21250 0.01700
C 	C 	0.82420 0.36040 0.26930 -0.00400
H 	H 	0.91130 0.31920 0.26380 -0.00300
C 	C 	0.73400 0.57200 0.48320 -0.00900
H 	H 	0.78420 0.49910 0.48300 -0.02500
C 	C 	0.40900 0.22200 0.51520 -0.03800
H 	H 	0.45750 0.14860 0.51590 0.01600
C 	C 	0.67100 0.72010 0.42780 0.02400
H 	H 	0.67260 0.75490 0.38860 -0.01500
C 	C 	0.96380 0.82910 0.23690 0.03100
H 	H 	0.95090 0.79440 0.27540 0.00100
C 	C 	0.57050 0.29810 0.00880 -0.03200
H 	H 	0.55870 0.35060 0.97850 -0.00300
C 	C 	0.89400 0.93500 0.15890 0.03100
H 	H 	0.82700 0.98290 0.14260 0.00400
C 	C 	0.26260 0.31900 0.30270 -0.00000
H 	H 	0.31000 0.24790 0.30980 -0.03700
C 	C 	0.59600 0.15590 0.10140 -0.00600
H 	H 	0.59950 0.10550 0.13290 0.00600
C 	C 	0.09020 0.81320 0.20300 -0.02400
H 	H 	0.15760 0.76800 0.22020 -0.00200
C 	C 	0.57720 0.47190 0.28340 -0.01600
H 	H 	0.49150 0.51640 0.28730 -0.01700
C 	C 	0.01750 0.91430 0.12320 -0.05300
H 	H 	0.03250 0.93890 0.08100 0.00500
C 	C 	0.45180 0.99800 0.22030 0.00700
H 	H 	0.44370 0.06860 0.22880 -0.02200
C 	C 	0.64740 0.50800 0.31230 -0.01900
H 	H 	0.60680 0.57350 0.33860 -0.01300
C 	C 	0.12400 0.52170 0.28770 -0.04500
H 	H 	0.07880 0.59310 0.28020 -0.00400
C 	C 	0.54160 0.82040 0.23320 -0.01800
H 	H 	0.59960 0.76140 0.24860 -0.01500
C 	C 	0.25030 0.47890 0.26490 0.01500
H 	H 	0.28880 0.52420 0.24530 -0.02200
C 	C 	0.52820 0.32980 0.07700 0.01200
H 	H 	0.48330 0.40290 0.09110 -0.02000
C 	C 	0.37420 0.98200 0.18440 0.03000
H 	H 	0.31710 0.04020 0.16780 -0.05400
C 	C 	0.63800 0.12250 0.03480 -0.00900
H 	H 	0.67510 0.04850 0.02270 -0.01400
C 	C 	0.13380 0.36080 0.32750 -0.03500
H 	H 	0.09650 0.31620 0.34940 0.00600
C 	C 	0.45880 0.80490 0.19930 -0.00100
H 	H 	0.45930 0.73620 0.19510 -0.02400
C 	C 	0.34500 0.37700 0.45740 -0.03400
H 	H 	0.34850 0.41400 0.41910 -0.01300
O 	O 	0.68400 0.95100 0.49670 -0.13800
Mo	Mo	0.99682 0.26313 0.52770 1.18400
Mo	Mo	0.26416 0.05947 0.41628 1.17400
Mo	Mo	0.20638 0.03412 0.59031 1.25000
Mo	Mo	0.22635 0.76849 0.55377 1.17400
Mo	Mo	0.04307 0.04607 0.32747 1.15800
Mo	Mo	0.25640 0.80401 0.38033 1.18300
O 	O 	0.08700 0.06540 0.50720 -0.34200
O 	O 	0.09710 0.98290 0.43270 -0.29600
O 	O 	0.14390 0.20270 0.45680 -0.50100
O 	O 	0.08090 0.01670 0.65870 -0.49500
O 	O 	0.28100 0.01800 0.49620 -0.38500
O 	O 	0.16440 0.08730 0.35050 -0.50900
O 	O 	0.85780 0.26160 0.60250 -0.48500
O 	O 	0.10300 0.18100 0.58660 -0.47600
O 	O 	0.09280 0.82100 0.63490 -0.49400
O 	O 	0.16270 0.89940 0.32490 -0.47500
O 	O 	0.33070 0.91050 0.39000 -0.45600
O 	O 	0.06480 0.95390 0.55530 -0.30600
O 	O 	0.88240 0.29110 0.47220 -0.50400
O 	O 	0.30460 0.76220 0.46250 -0.48600
O 	O 	0.28140 0.87680 0.57350 -0.50900
O 	O 	0.30460 0.05120 0.63400 -0.54800
O 	O 	0.90800 0.11800 0.51780 -0.30600
Cu	Cu	0.46970 0.80890 0.62681 0.82900
Cl	Cl	0.38200 0.85980 0.73100 -0.77100
Cu	Cu	0.48770 0.68750 0.78167 0.85000
Cu	Cu	0.70950 0.14640 0.89087 0.82100
Cu	Cu	0.31730 0.06120 0.73525 0.85800
Cu	Cu	0.12830 0.47880 0.65589 0.81300
N 	N 	0.57940 0.73000 0.54440 -0.24100
N 	N 	0.22830 0.54620 0.69540 -0.23400
N 	N 	0.67440 0.62290 0.73230 -0.23800
N 	N 	0.13520 0.10900 0.78450 -0.20200
N 	N 	0.37020 0.81010 0.01480 -0.23600
N 	N 	0.25090 0.38330 0.57580 -0.24700
N 	N 	0.88420 0.14220 0.84970 -0.25700
N 	N 	0.45030 0.73960 0.87850 -0.22000
N 	N 	0.61890 0.11710 0.82650 -0.23300
N 	N 	0.37550 0.62380 0.75020 -0.21800
N 	N 	0.94390 0.53490 0.67790 -0.23200
N 	N 	0.46130 0.08230 0.75630 -0.22900
C 	C 	0.24830 0.67940 0.76060 -0.02800
H 	H 	0.20780 0.74420 0.78750 0.01700
C 	C 	0.17580 0.63960 0.73070 -0.00300
H 	H 	0.08870 0.68080 0.73620 -0.01400
C 	C 	0.26600 0.42800 0.51680 -0.01200
H 	H 	0.21580 0.50090 0.51700 -0.02900
C 	C 	0.59100 0.77800 0.48480 -0.04000
H 	H 	0.54250 0.85140 0.48410 0.02500
C 	C 	0.32900 0.27990 0.57220 0.02100
H 	H 	0.32740 0.24510 0.61140 -0.01700
C 	C 	0.03620 0.17090 0.76310 -0.06500
H 	H 	0.04910 0.20560 0.72460 0.02000
C 	C 	0.42950 0.70190 0.99120 -0.02800
H 	H 	0.44130 0.64940 0.02150 -0.00500
C 	C 	0.10600 0.06500 0.84110 -0.06900
H 	H 	0.17300 0.01710 0.85740 0.01500
C 	C 	0.73740 0.68100 0.69730 0.00300
H 	H 	0.69000 0.75210 0.69020 -0.03500
C 	C 	0.40400 0.84410 0.89860 -0.00500
H 	H 	0.40050 0.89450 0.86710 0.01500
C 	C 	0.90980 0.18680 0.79700 0.06900
H 	H 	0.84240 0.23200 0.77980 -0.02800
C 	C 	0.42280 0.52810 0.71660 -0.01800
H 	H 	0.50850 0.48360 0.71270 -0.01700
C 	C 	0.98250 0.08570 0.87680 0.04100
H 	H 	0.96750 0.06110 0.91900 -0.02300
C 	C 	0.54820 0.00200 0.77970 -0.04700
H 	H 	0.55630 0.93140 0.77120 0.02200
C 	C 	0.35260 0.49200 0.68770 -0.01900
H 	H 	0.39320 0.42650 0.66140 -0.01400
C 	C 	0.87600 0.47830 0.71230 -0.04300
H 	H 	0.92120 0.40690 0.71980 0.00900
C 	C 	0.45840 0.17960 0.76680 -0.01900
H 	H 	0.40040 0.23860 0.75140 -0.01800
C 	C 	0.74970 0.52110 0.73510 0.02000
H 	H 	0.71120 0.47580 0.75470 -0.02100
C 	C 	0.47180 0.67020 0.92300 0.01100
H 	H 	0.51670 0.59710 0.90890 -0.01900
C 	C 	0.62580 0.01800 0.81560 -0.03000
H 	H 	0.68290 0.95980 0.83220 0.00100
C 	C 	0.36200 0.87750 0.96520 -0.00500
H 	H 	0.32490 0.95150 0.97730 -0.00600
C 	C 	0.86620 0.63920 0.67250 -0.03200
H 	H 	0.90350 0.68380 0.65060 0.01800
C 	C 	0.54120 0.19510 0.80070 -0.00400
H 	H 	0.54070 0.26380 0.80490 -0.02400
C 	C 	0.65500 0.62300 0.54260 -0.03300
H 	H 	0.65150 0.58600 0.58090 -0.01200
O 	O 	0.31600 0.04900 0.50330 -0.13600
P 	P 	-0.00000 0.00000 0.50000 0.78200
