data_crystal

_cell_length_a 23.35330
_cell_length_b 20.53790
_cell_length_c 12.62260
_cell_angle_alpha 90.00000
_cell_angle_beta  98.32000
_cell_angle_gamma 90.00000

_symmetry_space_group_name_	'P 1'
_symmetry_space_group_name_H-M	'P 1'

loop_
_symmetry_equiv_pos_as_xyz
  x,y,z

loop_
_atom_site_label
_atom_site_type_symbol
_atom_site_fract_x
_atom_site_fract_y
_atom_site_fract_z
_atom_site_charge
Ag	Ag	0.26403 0.07676 0.57180 0.48300
N 	N 	0.42210 0.04200 0.35200 -0.16400
N 	N 	0.49840 0.46740 0.40700 -0.17100
N 	N 	0.08230 0.15480 0.34100 -0.17900
N 	N 	0.33700 0.04900 0.48200 -0.17200
N 	N 	0.18530 0.11620 0.46200 -0.17600
C 	C 	0.39020 0.06640 0.51700 -0.00900
H 	H 	0.39900 0.08320 0.58540 0.00800
C 	C 	0.02690 0.40200 0.18100 -0.02300
H 	H 	0.04980 0.42350 0.13770 0.01900
C 	C 	0.15810 0.07700 0.38800 -0.01300
H 	H 	0.17250 0.03590 0.37730 -0.00400
C 	C 	0.16660 0.17500 0.47100 -0.00300
H 	H 	0.18730 0.20390 0.51900 -0.00500
C 	C 	0.43420 0.06100 0.45300 -0.00700
H 	H 	0.47220 0.06980 0.48240 0.00900
C 	C 	0.11240 0.19600 0.40600 -0.01100
H 	H 	0.09940 0.23800 0.41090 0.00500
C 	C 	0.36900 0.02400 0.32000 0.01600
H 	H 	0.35960 0.00990 0.24950 -0.01400
C 	C 	0.54960 0.47610 0.47200 -0.01700
H 	H 	0.58380 0.46020 0.45260 0.00200
C 	C 	0.47510 0.19990 0.32300 -0.02600
H 	H 	0.45770 0.17770 0.37400 0.02100
C 	C 	0.47670 0.27300 0.31800 0.02100
H 	H 	0.45950 0.29680 0.36740 -0.00800
C 	C 	0.10700 0.09940 0.32500 0.00200
H 	H 	0.08990 0.07300 0.26930 -0.00600
C 	C 	0.32600 0.02400 0.38100 -0.03000
H 	H 	0.28920 0.00850 0.35390 -0.00200
C 	C 	0.01970 0.33140 0.17400 -0.00200
H 	H 	0.02930 0.30940 0.11480 -0.00400
C 	C 	0.44970 0.49140 0.43200 0.00100
H 	H 	0.41530 0.48630 0.38590 -0.00600
Ag	Ag	0.73597 0.07676 0.92820 0.48200
N 	N 	0.57790 0.04200 0.14800 -0.16600
N 	N 	0.50160 0.46740 0.09300 -0.17200
N 	N 	0.91770 0.15480 0.15900 -0.17000
N 	N 	0.66300 0.04900 0.01800 -0.17100
N 	N 	0.81470 0.11620 0.03800 -0.17600
C 	C 	0.60980 0.06640 0.98300 -0.01300
H 	H 	0.60100 0.08320 0.91460 0.00900
C 	C 	0.97310 0.40200 0.31900 0.01100
H 	H 	0.95020 0.42350 0.36230 0.01800
C 	C 	0.84190 0.07700 0.11200 -0.01100
H 	H 	0.82750 0.03590 0.12270 -0.00300
C 	C 	0.83340 0.17500 0.02900 0.00200
H 	H 	0.81270 0.20390 0.98100 -0.00600
C 	C 	0.56580 0.06100 0.04700 -0.00400
H 	H 	0.52780 0.06980 0.01760 0.00900
C 	C 	0.88760 0.19600 0.09400 -0.01100
H 	H 	0.90060 0.23800 0.08910 0.01300
C 	C 	0.63100 0.02400 0.18000 0.01700
H 	H 	0.64040 0.00990 0.25050 -0.01400
C 	C 	0.45040 0.47610 0.02800 -0.01600
H 	H 	0.41620 0.46020 0.04740 0.00100
C 	C 	0.52490 0.19990 0.17700 -0.02600
H 	H 	0.54230 0.17770 0.12600 0.02100
C 	C 	0.52330 0.27300 0.18200 0.02100
H 	H 	0.54050 0.29680 0.13260 -0.00700
C 	C 	0.89300 0.09940 0.17500 0.00400
H 	H 	0.91010 0.07300 0.23070 0.00100
C 	C 	0.67400 0.02400 0.11900 -0.03000
H 	H 	0.71080 0.00850 0.14610 -0.00100
C 	C 	0.98030 0.33140 0.32600 0.03000
H 	H 	0.97070 0.30940 0.38520 0.00300
C 	C 	0.55030 0.49140 0.06800 0.00200
H 	H 	0.58470 0.48630 0.11410 -0.00600
Ag	Ag	0.73597 0.92324 0.42820 0.48300
N 	N 	0.57790 0.95800 0.64800 -0.16500
N 	N 	0.50160 0.53260 0.59300 -0.17200
N 	N 	0.91770 0.84520 0.65900 -0.17000
N 	N 	0.66300 0.95100 0.51800 -0.17300
N 	N 	0.81470 0.88380 0.53800 -0.17600
C 	C 	0.60980 0.93360 0.48300 -0.00900
H 	H 	0.60100 0.91680 0.41460 0.00800
C 	C 	0.97310 0.59800 0.81900 0.01100
H 	H 	0.95020 0.57650 0.86230 0.01800
C 	C 	0.84190 0.92300 0.61200 -0.01100
H 	H 	0.82750 0.96410 0.62270 -0.00300
C 	C 	0.83340 0.82500 0.52900 -0.00100
H 	H 	0.81270 0.79610 0.48100 -0.00500
C 	C 	0.56580 0.93900 0.54700 -0.00700
H 	H 	0.52780 0.93020 0.51760 0.00900
C 	C 	0.88760 0.80400 0.59400 -0.01000
H 	H 	0.90060 0.76200 0.58910 0.01300
C 	C 	0.63100 0.97600 0.68000 0.01700
H 	H 	0.64040 0.99010 0.75050 -0.01300
C 	C 	0.45040 0.52390 0.52800 -0.01700
H 	H 	0.41620 0.53980 0.54740 0.00100
C 	C 	0.52490 0.80010 0.67700 -0.02600
H 	H 	0.54230 0.82230 0.62600 0.02100
C 	C 	0.52330 0.72700 0.68200 0.02100
H 	H 	0.54050 0.70320 0.63260 -0.00800
C 	C 	0.89300 0.90060 0.67500 0.00400
H 	H 	0.91010 0.92700 0.73070 0.00100
C 	C 	0.67400 0.97600 0.61900 -0.02900
H 	H 	0.71080 0.99150 0.64610 -0.00100
C 	C 	0.98030 0.66860 0.82600 0.03000
H 	H 	0.97070 0.69060 0.88520 0.00200
C 	C 	0.55030 0.50860 0.56800 0.00100
H 	H 	0.58470 0.51370 0.61410 -0.00500
Ag	Ag	0.26403 0.92324 0.07180 0.48100
N 	N 	0.42210 0.95800 0.85200 -0.16500
N 	N 	0.49840 0.53260 0.90700 -0.17200
N 	N 	0.08230 0.84520 0.84100 -0.18000
N 	N 	0.33700 0.95100 0.98200 -0.17300
N 	N 	0.18530 0.88380 0.96200 -0.17600
C 	C 	0.39020 0.93360 0.01700 -0.01000
H 	H 	0.39900 0.91680 0.08540 0.00800
C 	C 	0.02690 0.59800 0.68100 -0.02300
H 	H 	0.04980 0.57650 0.63770 0.01800
C 	C 	0.15810 0.92300 0.88800 -0.01300
H 	H 	0.17250 0.96410 0.87730 -0.00400
C 	C 	0.16660 0.82500 0.97100 -0.00300
H 	H 	0.18730 0.79610 0.01900 -0.00500
C 	C 	0.43420 0.93900 0.95300 -0.00600
H 	H 	0.47220 0.93020 0.98240 0.00900
C 	C 	0.11240 0.80400 0.90600 -0.01100
H 	H 	0.09940 0.76200 0.91090 0.00500
C 	C 	0.36900 0.97600 0.82000 0.01700
H 	H 	0.35960 0.99010 0.74950 -0.01400
C 	C 	0.54960 0.52390 0.97200 -0.01800
H 	H 	0.58380 0.53980 0.95260 0.00200
C 	C 	0.47510 0.80010 0.82300 -0.02600
H 	H 	0.45770 0.82230 0.87400 0.02100
C 	C 	0.47670 0.72700 0.81800 0.02100
H 	H 	0.45950 0.70320 0.86740 -0.00800
C 	C 	0.10700 0.90060 0.82500 0.00200
H 	H 	0.08990 0.92700 0.76930 -0.00700
C 	C 	0.32600 0.97600 0.88100 -0.03000
H 	H 	0.28920 0.99150 0.85390 -0.00200
C 	C 	0.01970 0.66860 0.67400 -0.00200
H 	H 	0.02930 0.69060 0.61480 -0.00400
C 	C 	0.44970 0.50860 0.93200 0.00000
H 	H 	0.41530 0.51370 0.88590 -0.00500
Ag	Ag	0.50000 0.41300 0.25000 0.50900
Ag	Ag	0.50000 0.05440 0.25000 0.52200
N 	N 	0.50000 0.30300 0.25000 -0.18900
N 	N 	0.50000 0.17000 0.25000 -0.15500
Ag	Ag	0.50000 0.58700 0.75000 0.50900
Ag	Ag	0.50000 0.94560 0.75000 0.52200
N 	N 	0.50000 0.69700 0.75000 -0.18900
N 	N 	0.50000 0.83000 0.75000 -0.15500
Ag	Ag	0.00000 0.18670 0.25000 0.50500
N 	N 	0.00000 0.43400 0.25000 -0.16900
N 	N 	0.00000 0.29900 0.25000 -0.19000
Ag	Ag	0.00000 0.81330 0.75000 0.50500
N 	N 	0.00000 0.56600 0.75000 -0.16900
N 	N 	0.00000 0.70100 0.75000 -0.19000
Ag	Ag	0.76403 0.57676 0.57180 0.48300
N 	N 	0.92210 0.54200 0.35200 -0.15800
N 	N 	0.99840 0.96740 0.40700 -0.14400
N 	N 	0.58230 0.65480 0.34100 -0.17800
N 	N 	0.83700 0.54900 0.48200 -0.17300
N 	N 	0.68530 0.61620 0.46200 -0.17600
C 	C 	0.89020 0.56640 0.51700 -0.00500
H 	H 	0.89900 0.58320 0.58540 0.01100
C 	C 	0.52690 0.90200 0.18100 -0.01600
H 	H 	0.54980 0.92350 0.13770 0.02000
C 	C 	0.65810 0.57700 0.38800 -0.01200
H 	H 	0.67250 0.53590 0.37730 -0.00400
C 	C 	0.66660 0.67500 0.47100 -0.00200
H 	H 	0.68730 0.70390 0.51900 -0.00500
C 	C 	0.93420 0.56100 0.45300 -0.00700
H 	H 	0.97220 0.56980 0.48240 0.02100
C 	C 	0.61240 0.69600 0.40600 -0.01100
H 	H 	0.59940 0.73800 0.41090 0.00800
C 	C 	0.86900 0.52400 0.32000 0.01700
H 	H 	0.85960 0.50990 0.24950 -0.01100
C 	C 	0.04960 0.97610 0.47200 -0.05800
H 	H 	0.08380 0.96020 0.45260 0.01200
C 	C 	0.97510 0.69990 0.32300 -0.00100
H 	H 	0.95770 0.67770 0.37400 0.01900
C 	C 	0.97670 0.77300 0.31800 0.05300
H 	H 	0.95950 0.79680 0.36740 -0.01100
C 	C 	0.60700 0.59940 0.32500 0.00300
H 	H 	0.58990 0.57300 0.26930 -0.00400
C 	C 	0.82600 0.52400 0.38100 -0.02800
H 	H 	0.78920 0.50850 0.35390 -0.00200
C 	C 	0.51970 0.83140 0.17400 0.00300
H 	H 	0.52930 0.80940 0.11480 0.00100
C 	C 	0.94970 0.99140 0.43200 -0.01400
H 	H 	0.91530 0.98630 0.38590 0.00300
Ag	Ag	0.23597 0.57676 0.92820 0.48100
N 	N 	0.07790 0.54200 0.14800 -0.16700
N 	N 	0.00160 0.96740 0.09300 -0.19500
N 	N 	0.41770 0.65480 0.15900 -0.17800
N 	N 	0.16300 0.54900 0.01800 -0.17200
N 	N 	0.31470 0.61620 0.03800 -0.17600
C 	C 	0.10980 0.56640 0.98300 -0.01300
H 	H 	0.10100 0.58320 0.91460 0.00600
C 	C 	0.47310 0.90200 0.31900 -0.01600
H 	H 	0.45020 0.92350 0.36230 0.02000
C 	C 	0.34190 0.57700 0.11200 -0.01200
H 	H 	0.32750 0.53590 0.12270 -0.00400
C 	C 	0.33340 0.67500 0.02900 -0.00200
H 	H 	0.31270 0.70390 0.98100 -0.00500
C 	C 	0.06580 0.56100 0.04700 -0.00500
H 	H 	0.02780 0.56980 0.01760 0.00000
C 	C 	0.38760 0.69600 0.09400 -0.01100
H 	H 	0.40060 0.73800 0.08910 0.00700
C 	C 	0.13100 0.52400 0.18000 0.01700
H 	H 	0.14040 0.50990 0.25050 -0.01500
C 	C 	0.95040 0.97610 0.02800 0.02500
H 	H 	0.91620 0.96020 0.04740 -0.00800
C 	C 	0.02490 0.69990 0.17700 -0.03200
H 	H 	0.04230 0.67770 0.12600 0.01900
C 	C 	0.02330 0.77300 0.18200 0.01700
H 	H 	0.04050 0.79680 0.13260 -0.01000
C 	C 	0.39300 0.59940 0.17500 0.00300
H 	H 	0.41010 0.57300 0.23070 -0.00400
C 	C 	0.17400 0.52400 0.11900 -0.03100
H 	H 	0.21080 0.50850 0.14610 -0.00200
C 	C 	0.48030 0.83140 0.32600 0.00300
H 	H 	0.47070 0.80940 0.38520 0.00100
C 	C 	0.05030 0.99140 0.06800 0.01800
H 	H 	0.08470 0.98630 0.11410 -0.01300
Ag	Ag	0.23597 0.42324 0.42820 0.48200
N 	N 	0.07790 0.45800 0.64800 -0.16700
N 	N 	0.00160 0.03260 0.59300 -0.19600
N 	N 	0.41770 0.34520 0.65900 -0.17800
N 	N 	0.16300 0.45100 0.51800 -0.17300
N 	N 	0.31470 0.38380 0.53800 -0.17600
C 	C 	0.10980 0.43360 0.48300 -0.01200
H 	H 	0.10100 0.41680 0.41460 0.00600
C 	C 	0.47310 0.09800 0.81900 -0.01600
H 	H 	0.45020 0.07650 0.86230 0.02000
C 	C 	0.34190 0.42300 0.61200 -0.01200
H 	H 	0.32750 0.46410 0.62270 -0.00400
C 	C 	0.33340 0.32500 0.52900 -0.00200
H 	H 	0.31270 0.29610 0.48100 -0.00500
C 	C 	0.06580 0.43900 0.54700 -0.00700
H 	H 	0.02780 0.43020 0.51760 0.00000
C 	C 	0.38760 0.30400 0.59400 -0.01100
H 	H 	0.40060 0.26200 0.58910 0.00800
C 	C 	0.13100 0.47600 0.68000 0.01600
H 	H 	0.14040 0.49010 0.75050 -0.01500
C 	C 	0.95040 0.02390 0.52800 0.02500
H 	H 	0.91620 0.03980 0.54740 -0.00800
C 	C 	0.02490 0.30010 0.67700 -0.03200
H 	H 	0.04230 0.32230 0.62600 0.01900
C 	C 	0.02330 0.22700 0.68200 0.01700
H 	H 	0.04050 0.20320 0.63260 -0.01000
C 	C 	0.39300 0.40060 0.67500 0.00300
H 	H 	0.41010 0.42700 0.73070 -0.00400
C 	C 	0.17400 0.47600 0.61900 -0.03100
H 	H 	0.21080 0.49150 0.64610 -0.00200
C 	C 	0.48030 0.16860 0.82600 0.00300
H 	H 	0.47070 0.19060 0.88520 0.00100
C 	C 	0.05030 0.00860 0.56800 0.01600
H 	H 	0.08470 0.01370 0.61410 -0.01300
Ag	Ag	0.76403 0.42324 0.07180 0.48300
N 	N 	0.92210 0.45800 0.85200 -0.15800
N 	N 	0.99840 0.03260 0.90700 -0.14400
N 	N 	0.58230 0.34520 0.84100 -0.17800
N 	N 	0.83700 0.45100 0.98200 -0.17400
N 	N 	0.68530 0.38380 0.96200 -0.17500
C 	C 	0.89020 0.43360 0.01700 -0.00300
H 	H 	0.89900 0.41680 0.08540 0.01100
C 	C 	0.52690 0.09800 0.68100 -0.01600
H 	H 	0.54980 0.07650 0.63770 0.02100
C 	C 	0.65810 0.42300 0.88800 -0.01200
H 	H 	0.67250 0.46410 0.87730 -0.00400
C 	C 	0.66660 0.32500 0.97100 -0.00400
H 	H 	0.68730 0.29610 0.01900 -0.00400
C 	C 	0.93420 0.43900 0.95300 -0.00800
H 	H 	0.97220 0.43020 0.98240 0.02100
C 	C 	0.61240 0.30400 0.90600 -0.01000
H 	H 	0.59940 0.26200 0.91090 0.00700
C 	C 	0.86900 0.47600 0.82000 0.01600
H 	H 	0.85960 0.49010 0.74950 -0.01100
C 	C 	0.04960 0.02390 0.97200 -0.05900
H 	H 	0.08380 0.03980 0.95260 0.01300
C 	C 	0.97510 0.30010 0.82300 -0.00100
H 	H 	0.95770 0.32230 0.87400 0.01800
C 	C 	0.97670 0.22700 0.81800 0.05300
H 	H 	0.95950 0.20320 0.86740 -0.01200
C 	C 	0.60700 0.40060 0.82500 0.00300
H 	H 	0.58990 0.42700 0.76930 -0.00400
C 	C 	0.82600 0.47600 0.88100 -0.02800
H 	H 	0.78920 0.49150 0.85390 -0.00200
C 	C 	0.51970 0.16860 0.67400 0.00300
H 	H 	0.52930 0.19060 0.61480 0.00100
C 	C 	0.94970 0.00860 0.93200 -0.01400
H 	H 	0.91530 0.01370 0.88590 0.00300
Ag	Ag	0.00000 0.91300 0.25000 0.49700
Ag	Ag	0.00000 0.55440 0.25000 0.51000
N 	N 	0.00000 0.80300 0.25000 -0.20900
N 	N 	0.00000 0.67000 0.25000 -0.17300
Ag	Ag	0.00000 0.08700 0.75000 0.49700
Ag	Ag	0.00000 0.44560 0.75000 0.51000
N 	N 	0.00000 0.19700 0.75000 -0.20900
N 	N 	0.00000 0.33000 0.75000 -0.17300
Ag	Ag	0.50000 0.68670 0.25000 0.51700
N 	N 	0.50000 0.93400 0.25000 -0.15100
N 	N 	0.50000 0.79900 0.25000 -0.17200
Ag	Ag	0.50000 0.31330 0.75000 0.51700
N 	N 	0.50000 0.06600 0.75000 -0.15100
N 	N 	0.50000 0.20100 0.75000 -0.17200
