data_crystal

_cell_length_a 13.98400
_cell_length_b 14.79200
_cell_length_c 15.36400
_cell_angle_alpha 75.43000
_cell_angle_beta  82.74000
_cell_angle_gamma 77.74000

_symmetry_space_group_name_	'P 1'
_symmetry_space_group_name_H-M	'P 1'

loop_
_symmetry_equiv_pos_as_xyz
  x,y,z

loop_
_atom_site_label
_atom_site_type_symbol
_atom_site_fract_x
_atom_site_fract_y
_atom_site_fract_z
_atom_site_charge
Ba	Ba	0.18762 0.07141 0.05853 1.77500
Ba	Ba	0.97085 0.19068 0.83363 2.02200
S 	S 	0.94000 0.60150 0.70010 0.65300
S 	S 	0.22030 0.17123 0.82804 0.52800
S 	S 	0.30780 0.83870 0.12026 0.59400
S 	S 	0.06819 0.93346 0.91148 0.70000
O 	O 	0.97360 0.60260 0.62020 -0.24800
O 	O 	0.01100 0.32300 0.36800 -0.15500
O 	O 	0.06380 0.30700 0.26500 -0.17300
O 	O 	0.99200 0.35400 0.45800 -0.05100
O 	O 	0.92100 0.64000 0.79200 -0.19500
O 	O 	0.29680 0.09990 0.86870 -0.37700
O 	O 	0.17030 0.14820 0.76260 -0.40900
O 	O 	0.14590 0.20470 0.89800 -0.55900
O 	O 	0.20210 0.87010 0.12700 -0.59300
O 	O 	0.35430 0.92310 0.08800 -0.43300
O 	O 	0.34460 0.76910 0.07110 -0.33700
O 	O 	0.02690 0.86210 0.98140 -0.59000
O 	O 	0.99120 0.99590 0.85670 -0.58700
O 	O 	0.12320 0.98600 0.94590 -0.53300
O 	O 	0.99600 0.94740 0.49830 -0.29400
O 	O 	0.95900 0.82500 0.49400 -0.32600
O 	O 	0.04100 0.88160 0.33200 -0.36300
O 	O 	0.95190 0.35440 0.70320 -0.88600
H 	H 	0.11440 0.62790 0.31410 0.26500
H 	H 	0.03260 0.59590 0.27420 0.36600
H 	H 	0.00400 0.65500 0.34830 0.28700
C 	C 	0.51340 0.62560 0.62540 0.26400
C 	C 	0.48280 0.52880 0.66140 -0.39500
H 	H 	0.49610 0.50550 0.72450 0.14300
H 	H 	0.52180 0.48390 0.62850 0.14200
C 	C 	0.37400 0.53400 0.65240 0.25800
C 	C 	0.35250 0.57270 0.55400 -0.38700
H 	H 	0.38870 0.52860 0.51890 0.13400
H 	H 	0.28310 0.57810 0.54850 0.14300
C 	C 	0.38130 0.67070 0.51610 0.24100
C 	C 	0.32110 0.73880 0.57450 -0.37100
H 	H 	0.25170 0.74550 0.56790 0.13500
H 	H 	0.33840 0.80120 0.55270 0.13400
C 	C 	0.33980 0.70250 0.67380 0.24300
C 	C 	0.45160 0.69330 0.68090 -0.37800
H 	H 	0.46610 0.66990 0.74360 0.13400
H 	H 	0.46920 0.75550 0.65960 0.13600
C 	C 	0.49130 0.66180 0.52620 -0.38700
H 	H 	0.51010 0.72330 0.50250 0.14200
H 	H 	0.52960 0.61810 0.49160 0.13800
C 	C 	0.31440 0.60300 0.70910 -0.38500
H 	H 	0.32910 0.57910 0.77170 0.14100
H 	H 	0.24480 0.60680 0.70600 0.14800
C 	C 	0.62380 0.61280 0.63830 -0.08100
C 	C 	0.65510 0.58110 0.72500 -0.02600
H 	H 	0.61000 0.56750 0.77410 0.02100
C 	C 	0.75380 0.56970 0.73840 -0.05100
H 	H 	0.77480 0.54850 0.79640 0.03900
C 	C 	0.82130 0.59000 0.66500 -0.03400
C 	C 	0.79010 0.62170 0.57830 -0.02900
H 	H 	0.83520 0.63520 0.52920 0.07400
C 	C 	0.69130 0.63310 0.56490 -0.02800
H 	H 	0.67040 0.65430 0.50690 0.03300
C 	C 	0.34220 0.43840 0.69130 -0.04500
C 	C 	0.40210 0.36000 0.73610 -0.07400
H 	H 	0.46750 0.36190 0.73960 0.05200
C 	C 	0.36630 0.27640 0.77710 0.02600
H 	H 	0.40800 0.22430 0.80910 0.02400
C 	C 	0.27190 0.27020 0.77100 -0.13700
C 	C 	0.20960 0.34910 0.72210 0.04900
H 	H 	0.14460 0.34660 0.71730 -0.01100
C 	C 	0.24600 0.42940 0.68190 -0.08700
H 	H 	0.20570 0.48020 0.64680 0.06500
C 	C 	0.36300 0.71030 0.41640 -0.03100
C 	C 	0.39040 0.79580 0.37100 -0.10100
H 	H 	0.42010 0.82760 0.40190 0.04900
C 	C 	0.37470 0.83510 0.28120 0.05400
H 	H 	0.39140 0.89370 0.25290 -0.01000
C 	C 	0.33500 0.78790 0.23460 -0.17600
C 	C 	0.30670 0.70270 0.27580 0.04700
H 	H 	0.27930 0.67040 0.24350 -0.03100
C 	C 	0.32030 0.66560 0.36800 -0.10700
H 	H 	0.29970 0.60900 0.39700 0.05000
C 	C 	0.27580 0.76590 0.72990 -0.02300
C 	C 	0.31110 0.80530 0.78970 -0.10500
H 	H 	0.37860 0.79580 0.79340 0.05500
C 	C 	0.24940 0.85820 0.84380 0.08300
H 	H 	0.27510 0.88360 0.88330 0.00100
C 	C 	0.14990 0.87300 0.83890 -0.20900
C 	C 	0.11110 0.83500 0.77970 0.08700
H 	H 	0.04360 0.84490 0.77620 -0.02700
C 	C 	0.17500 0.78240 0.72610 -0.11500
H 	H 	0.14930 0.75730 0.68630 0.07100
C 	C 	0.09980 0.84180 0.41020 0.23000
C 	C 	0.09900 0.90700 0.46590 -0.28900
H 	H 	0.04510 0.96150 0.46200 0.32900
H 	H 	0.16100 0.91790 0.47850 0.11200
C 	C 	0.07100 0.79200 0.50800 -0.30500
H 	H 	0.11890 0.74280 0.54090 0.12800
H 	H 	0.00260 0.78650 0.52430 0.35800
C 	C 	0.94550 0.99770 0.41780 -0.05500
H 	H 	0.97860 0.04860 0.38400 0.05700
H 	H 	0.87860 0.02560 0.43480 0.05700
C 	C 	0.05200 0.73200 0.47600 0.02300
C 	C 	0.94510 0.92880 0.36060 0.12900
O 	O 	0.01250 0.48980 0.31400 -0.07600
O 	O 	0.98900 0.49700 0.37200 0.11500
O 	O 	0.95700 0.49800 0.78000 -0.14800
O 	O 	0.00100 0.51900 0.41400 -0.16400
O 	O 	0.01750 0.48580 0.26500 -0.09900
O 	O 	0.05160 0.52690 0.32330 -0.05400
O 	O 	0.05000 0.51810 0.29000 -0.14700
Ba	Ba	0.81238 0.92859 0.94147 1.77600
Ba	Ba	0.02915 0.80932 0.16637 2.02300
S 	S 	0.06000 0.39850 0.29990 0.65400
S 	S 	0.77970 0.82877 0.17196 0.52900
S 	S 	0.69220 0.16130 0.87974 0.59500
S 	S 	0.93181 0.06654 0.08852 0.70100
O 	O 	0.02640 0.39740 0.37980 -0.24800
O 	O 	0.98900 0.67700 0.63200 -0.15500
O 	O 	0.93620 0.69300 0.73500 -0.17300
O 	O 	0.00800 0.64600 0.54200 -0.05100
O 	O 	0.07900 0.36000 0.20800 -0.19500
O 	O 	0.70320 0.90010 0.13130 -0.37700
O 	O 	0.82970 0.85180 0.23740 -0.40900
O 	O 	0.85410 0.79530 0.10200 -0.55900
O 	O 	0.79790 0.12990 0.87300 -0.59300
O 	O 	0.64570 0.07690 0.91200 -0.43300
O 	O 	0.65540 0.23090 0.92890 -0.33700
O 	O 	0.97310 0.13790 0.01860 -0.59000
O 	O 	0.00880 0.00410 0.14330 -0.58700
O 	O 	0.87680 0.01400 0.05410 -0.53300
O 	O 	0.00400 0.05260 0.50170 -0.29400
O 	O 	0.04100 0.17500 0.50600 -0.32600
O 	O 	0.95900 0.11840 0.66800 -0.36300
O 	O 	0.04810 0.64560 0.29680 -0.88600
H 	H 	0.88560 0.37210 0.68590 0.26500
H 	H 	0.96740 0.40410 0.72580 0.36600
H 	H 	0.99600 0.34500 0.65170 0.28700
C 	C 	0.48660 0.37440 0.37460 0.26400
C 	C 	0.51720 0.47120 0.33860 -0.39500
H 	H 	0.50390 0.49450 0.27550 0.14300
H 	H 	0.47820 0.51610 0.37150 0.14200
C 	C 	0.62600 0.46600 0.34760 0.25800
C 	C 	0.64750 0.42730 0.44600 -0.38700
H 	H 	0.61130 0.47140 0.48110 0.13400
H 	H 	0.71690 0.42190 0.45150 0.14300
C 	C 	0.61870 0.32930 0.48390 0.24100
C 	C 	0.67890 0.26120 0.42550 -0.37100
H 	H 	0.74830 0.25450 0.43210 0.13500
H 	H 	0.66160 0.19880 0.44730 0.13400
C 	C 	0.66020 0.29750 0.32620 0.24300
C 	C 	0.54840 0.30670 0.31910 -0.37800
H 	H 	0.53390 0.33010 0.25640 0.13400
H 	H 	0.53080 0.24450 0.34040 0.13600
C 	C 	0.50870 0.33820 0.47380 -0.38700
H 	H 	0.48990 0.27670 0.49750 0.14200
H 	H 	0.47040 0.38190 0.50840 0.13800
C 	C 	0.68560 0.39700 0.29090 -0.38500
H 	H 	0.67090 0.42090 0.22830 0.14100
H 	H 	0.75520 0.39320 0.29400 0.14800
C 	C 	0.37620 0.38720 0.36170 -0.08100
C 	C 	0.34490 0.41890 0.27500 -0.02600
H 	H 	0.39000 0.43250 0.22590 0.02100
C 	C 	0.24620 0.43030 0.26160 -0.05100
H 	H 	0.22520 0.45150 0.20360 0.03900
C 	C 	0.17870 0.41000 0.33500 -0.03400
C 	C 	0.20990 0.37830 0.42170 -0.02900
H 	H 	0.16480 0.36480 0.47080 0.07400
C 	C 	0.30870 0.36690 0.43510 -0.02800
H 	H 	0.32960 0.34570 0.49310 0.03300
C 	C 	0.65780 0.56160 0.30870 -0.04500
C 	C 	0.59790 0.64000 0.26390 -0.07400
H 	H 	0.53250 0.63810 0.26040 0.05200
C 	C 	0.63370 0.72360 0.22290 0.02600
H 	H 	0.59200 0.77570 0.19090 0.02400
C 	C 	0.72810 0.72980 0.22900 -0.13700
C 	C 	0.79040 0.65090 0.27790 0.04900
H 	H 	0.85540 0.65340 0.28270 -0.01100
C 	C 	0.75400 0.57060 0.31810 -0.08700
H 	H 	0.79430 0.51980 0.35320 0.06500
C 	C 	0.63700 0.28970 0.58360 -0.03100
C 	C 	0.60960 0.20420 0.62900 -0.10100
H 	H 	0.57990 0.17240 0.59810 0.04900
C 	C 	0.62530 0.16490 0.71880 0.05400
H 	H 	0.60860 0.10630 0.74710 -0.01000
C 	C 	0.66500 0.21210 0.76540 -0.17600
C 	C 	0.69330 0.29730 0.72420 0.04700
H 	H 	0.72070 0.32960 0.75650 -0.03100
C 	C 	0.67970 0.33440 0.63200 -0.10700
H 	H 	0.70030 0.39100 0.60300 0.05000
C 	C 	0.72420 0.23410 0.27010 -0.02300
C 	C 	0.68890 0.19470 0.21030 -0.10500
H 	H 	0.62140 0.20420 0.20660 0.05500
C 	C 	0.75060 0.14180 0.15620 0.08300
H 	H 	0.72490 0.11640 0.11670 0.00100
C 	C 	0.85010 0.12700 0.16110 -0.20900
C 	C 	0.88890 0.16500 0.22030 0.08700
H 	H 	0.95640 0.15510 0.22380 -0.02700
C 	C 	0.82500 0.21760 0.27390 -0.11500
H 	H 	0.85070 0.24270 0.31370 0.07100
C 	C 	0.90020 0.15820 0.58980 0.23000
C 	C 	0.90100 0.09300 0.53410 -0.28900
H 	H 	0.95490 0.03850 0.53800 0.32900
H 	H 	0.83900 0.08210 0.52150 0.11200
C 	C 	0.92900 0.20800 0.49200 -0.30500
H 	H 	0.88110 0.25720 0.45910 0.12800
H 	H 	0.99740 0.21350 0.47570 0.35800
C 	C 	0.05450 0.00230 0.58220 -0.05500
H 	H 	0.02140 0.95140 0.61600 0.05700
H 	H 	0.12140 0.97440 0.56520 0.05700
C 	C 	0.94800 0.26800 0.52400 0.02300
C 	C 	0.05490 0.07120 0.63940 0.12900
O 	O 	0.98750 0.51020 0.68600 -0.07600
O 	O 	0.01100 0.50300 0.62800 0.11500
O 	O 	0.04300 0.50200 0.22000 -0.14800
O 	O 	0.99900 0.48100 0.58600 -0.16400
O 	O 	0.98250 0.51420 0.73500 -0.09900
O 	O 	0.94840 0.47310 0.67670 -0.05400
O 	O 	0.95000 0.48190 0.71000 -0.14700
