data_crystal

_cell_length_a 10.87780
_cell_length_b 15.15180
_cell_length_c 11.62210
_cell_angle_alpha 90.00000
_cell_angle_beta  96.24900
_cell_angle_gamma 90.00000

_symmetry_space_group_name_	'P 1'
_symmetry_space_group_name_H-M	'P 1'

loop_
_symmetry_equiv_pos_as_xyz
  x,y,z

loop_
_atom_site_label
_atom_site_type_symbol
_atom_site_fract_x
_atom_site_fract_y
_atom_site_fract_z
_atom_site_charge
Zn	Zn	0.25483 0.01240 0.49878 1.24600
C 	C 	0.41020 0.17550 0.26230 -0.03100
C 	C 	0.53640 0.16990 0.29820 -0.01100
C 	C 	0.61760 0.22260 0.24510 -0.01600
H 	H 	0.70190 0.21740 0.26810 0.08400
C 	C 	0.57850 0.28280 0.15900 -0.02500
C 	C 	0.45140 0.28930 0.12490 -0.02400
C 	C 	0.37000 0.23520 0.17440 -0.00800
H 	H 	0.28610 0.23850 0.14880 0.07800
C 	C 	0.31500 0.12180 0.31590 0.32600
C 	C 	0.59200 0.11440 0.39950 0.31600
C 	C 	0.67170 0.34180 0.11190 0.32600
C 	C 	0.39530 0.35560 0.03730 0.33600
O 	O 	0.35770 0.06210 0.38760 -0.40500
O 	O 	0.20450 0.13770 0.29080 -0.24700
O 	O 	0.63560 0.03970 0.37360 -0.39200
O 	O 	0.60090 0.14740 0.49710 -0.25700
O 	O 	0.63060 0.41200 0.06300 -0.39700
O 	O 	0.78140 0.32100 0.12360 -0.25700
O 	O 	0.35750 0.42590 0.08380 -0.39400
O 	O 	0.38180 0.33740 0.93400 -0.24500
Zn	Zn	0.24517 0.51240 0.00122 1.24500
C 	C 	0.08980 0.67550 0.23770 -0.03500
C 	C 	0.96360 0.66990 0.20180 -0.01000
C 	C 	0.88240 0.72260 0.25490 -0.01700
H 	H 	0.79810 0.71740 0.23190 0.08400
C 	C 	0.92150 0.78280 0.34100 -0.02600
C 	C 	0.04860 0.78930 0.37510 -0.02400
C 	C 	0.13000 0.73520 0.32560 -0.00700
H 	H 	0.21390 0.73850 0.35120 0.07800
C 	C 	0.18500 0.62180 0.18410 0.32600
C 	C 	0.90800 0.61440 0.10050 0.31600
C 	C 	0.82830 0.84180 0.38810 0.32600
C 	C 	0.10470 0.85560 0.46270 0.33800
O 	O 	0.14230 0.56210 0.11240 -0.40700
O 	O 	0.29550 0.63770 0.20920 -0.24600
O 	O 	0.86440 0.53970 0.12640 -0.39200
O 	O 	0.89910 0.64740 0.00290 -0.25500
O 	O 	0.86940 0.91200 0.43700 -0.39900
O 	O 	0.71860 0.82100 0.37640 -0.25900
O 	O 	0.14250 0.92590 0.41620 -0.39200
O 	O 	0.11820 0.83740 0.56600 -0.24500
Zn	Zn	0.74517 0.98760 0.50122 1.24500
C 	C 	0.58980 0.82450 0.73770 -0.03200
C 	C 	0.46360 0.83010 0.70180 -0.01200
C 	C 	0.38240 0.77740 0.75490 -0.01700
H 	H 	0.29810 0.78260 0.73190 0.08400
C 	C 	0.42150 0.71720 0.84100 -0.02500
C 	C 	0.54860 0.71070 0.87510 -0.02400
C 	C 	0.63000 0.76480 0.82560 -0.00800
H 	H 	0.71390 0.76150 0.85120 0.07800
C 	C 	0.68500 0.87820 0.68410 0.32600
C 	C 	0.40800 0.88560 0.60050 0.31600
C 	C 	0.32830 0.65820 0.88810 0.32600
C 	C 	0.60470 0.64440 0.96270 0.33600
O 	O 	0.64230 0.93790 0.61240 -0.40500
O 	O 	0.79550 0.86230 0.70920 -0.24700
O 	O 	0.36440 0.96030 0.62640 -0.39200
O 	O 	0.39910 0.85260 0.50290 -0.25700
O 	O 	0.36940 0.58800 0.93700 -0.39700
O 	O 	0.21860 0.67900 0.87640 -0.25700
O 	O 	0.64250 0.57410 0.91620 -0.39400
O 	O 	0.61820 0.66260 0.06600 -0.24500
Zn	Zn	0.75483 0.48760 0.99878 1.24500
C 	C 	0.91020 0.32450 0.76230 -0.03500
C 	C 	0.03640 0.33010 0.79820 -0.01000
C 	C 	0.11760 0.27740 0.74510 -0.01700
H 	H 	0.20190 0.28260 0.76810 0.08400
C 	C 	0.07850 0.21720 0.65900 -0.02600
C 	C 	0.95140 0.21070 0.62490 -0.02400
C 	C 	0.87000 0.26480 0.67440 -0.00700
H 	H 	0.78610 0.26150 0.64880 0.07800
C 	C 	0.81500 0.37820 0.81590 0.32600
C 	C 	0.09200 0.38560 0.89950 0.31600
C 	C 	0.17170 0.15820 0.61190 0.32600
C 	C 	0.89530 0.14440 0.53730 0.33800
O 	O 	0.85770 0.43790 0.88760 -0.40700
O 	O 	0.70450 0.36230 0.79080 -0.24600
O 	O 	0.13560 0.46030 0.87360 -0.39200
O 	O 	0.10090 0.35260 0.99710 -0.25500
O 	O 	0.13060 0.08800 0.56300 -0.39900
O 	O 	0.28140 0.17900 0.62360 -0.25900
O 	O 	0.85750 0.07410 0.58380 -0.39200
O 	O 	0.88180 0.16260 0.43400 -0.24500
