data_crystal

_cell_length_a 10.65920
_cell_length_b 15.68970
_cell_length_c 11.40880
_cell_angle_alpha 90.00000
_cell_angle_beta  90.10100
_cell_angle_gamma 90.00000

_symmetry_space_group_name_	'P 1'
_symmetry_space_group_name_H-M	'P 1'

loop_
_symmetry_equiv_pos_as_xyz
  x,y,z

loop_
_atom_site_label
_atom_site_type_symbol
_atom_site_fract_x
_atom_site_fract_y
_atom_site_fract_z
_atom_site_charge
O 	O 	0.90603 0.93884 0.37420 -0.32000
O 	O 	0.83391 0.85978 0.22825 -0.21900
O 	O 	0.87375 0.93611 0.65426 -0.37500
O 	O 	0.03645 0.85952 0.59206 -0.36800
C 	C 	0.80050 0.81024 0.42218 0.01000
C 	C 	0.83150 0.81333 0.54177 -0.05500
C 	C 	0.71970 0.74678 0.38299 -0.01900
C 	C 	0.85040 0.87331 0.33454 0.30000
C 	C 	0.92270 0.87520 0.59659 0.45400
H 	H 	0.69950 0.74490 0.30010 0.08500
O 	O 	0.40603 0.43884 0.37420 -0.37200
O 	O 	0.33391 0.35978 0.22825 -0.25900
O 	O 	0.37375 0.43611 0.65426 -0.38400
O 	O 	0.53645 0.35952 0.59206 -0.24700
C 	C 	0.30050 0.31024 0.42218 -0.01900
C 	C 	0.33150 0.31333 0.54177 -0.03400
C 	C 	0.21970 0.24678 0.38299 -0.03800
C 	C 	0.35040 0.37331 0.33454 0.30200
C 	C 	0.42270 0.37520 0.59659 0.31600
H 	H 	0.19950 0.24490 0.30010 0.07500
O 	O 	0.09397 0.93884 0.12580 -0.39400
O 	O 	0.16609 0.85978 0.27175 -0.27300
O 	O 	0.12625 0.93611 0.84574 -0.35600
O 	O 	0.96355 0.85952 0.90794 -0.13200
C 	C 	0.19950 0.81024 0.07782 -0.04500
C 	C 	0.16850 0.81333 0.95823 0.00200
C 	C 	0.28030 0.74678 0.11701 -0.00300
C 	C 	0.14960 0.87331 0.16546 0.31000
C 	C 	0.07730 0.87520 0.90341 0.17200
H 	H 	0.30050 0.74490 0.19990 0.06900
O 	O 	0.59397 0.43884 0.12580 -0.36400
O 	O 	0.66609 0.35978 0.27175 -0.24100
O 	O 	0.62625 0.43611 0.84574 -0.36300
O 	O 	0.46355 0.35952 0.90794 -0.25900
C 	C 	0.69950 0.31024 0.07782 -0.02800
C 	C 	0.66850 0.31333 0.95823 -0.01000
C 	C 	0.78030 0.24678 0.11701 0.02300
C 	C 	0.64960 0.37331 0.16546 0.31400
C 	C 	0.57730 0.37520 0.90341 0.31100
H 	H 	0.80050 0.24490 0.19990 0.07700
O 	O 	0.09397 0.06116 0.62580 -0.39900
O 	O 	0.16609 0.14022 0.77175 -0.27500
O 	O 	0.12625 0.06389 0.34574 -0.35300
O 	O 	0.96355 0.14048 0.40794 -0.12900
C 	C 	0.19950 0.18976 0.57782 -0.06000
C 	C 	0.16850 0.18667 0.45823 0.01700
C 	C 	0.28030 0.25322 0.61701 0.00600
C 	C 	0.14960 0.12669 0.66546 0.31400
C 	C 	0.07730 0.12480 0.40341 0.17000
H 	H 	0.30050 0.25510 0.69990 0.06600
O 	O 	0.59397 0.56116 0.62580 -0.36500
O 	O 	0.66609 0.64022 0.77175 -0.24300
O 	O 	0.62625 0.56389 0.34574 -0.36200
O 	O 	0.46355 0.64048 0.40794 -0.25700
C 	C 	0.69950 0.68976 0.57782 -0.03300
C 	C 	0.66850 0.68667 0.45823 -0.00400
C 	C 	0.78030 0.75322 0.61701 0.02600
C 	C 	0.64960 0.62669 0.66546 0.31500
C 	C 	0.57730 0.62480 0.40341 0.30900
H 	H 	0.80050 0.75510 0.69990 0.07600
O 	O 	0.90603 0.06116 0.87420 -0.32000
O 	O 	0.83391 0.14022 0.72825 -0.22000
O 	O 	0.87375 0.06389 0.15426 -0.37400
O 	O 	0.03645 0.14048 0.09206 -0.36500
C 	C 	0.80050 0.18976 0.92218 0.00500
C 	C 	0.83150 0.18667 0.04177 -0.05100
C 	C 	0.71970 0.25322 0.88299 -0.01500
C 	C 	0.85040 0.12669 0.83454 0.30200
C 	C 	0.92270 0.12480 0.09659 0.45000
H 	H 	0.69950 0.25510 0.80010 0.08400
O 	O 	0.40603 0.56116 0.87420 -0.37500
O 	O 	0.33391 0.64022 0.72825 -0.26100
O 	O 	0.37375 0.56389 0.15426 -0.38200
O 	O 	0.53645 0.64048 0.09206 -0.24500
C 	C 	0.30050 0.68976 0.92218 -0.03200
C 	C 	0.33150 0.68667 0.04177 -0.02100
C 	C 	0.21970 0.75322 0.88299 -0.02900
C 	C 	0.35040 0.62669 0.83454 0.30600
C 	C 	0.42270 0.62480 0.09659 0.31200
H 	H 	0.19950 0.75510 0.80010 0.07200
Co	Co	0.00000 0.00288 0.25000 1.15100
Co	Co	0.50000 0.50288 0.25000 1.19800
Co	Co	-0.00000 0.99712 0.75000 1.15000
Co	Co	0.50000 0.49712 0.75000 1.19800
