data_crystal

_cell_length_a 9.63550
_cell_length_b 13.99670
_cell_length_c 14.17400
_cell_angle_alpha 90.00000
_cell_angle_beta  96.17400
_cell_angle_gamma 90.00000

_symmetry_space_group_name_	'P 1'
_symmetry_space_group_name_H-M	'P 1'

loop_
_symmetry_equiv_pos_as_xyz
  x,y,z

loop_
_atom_site_label
_atom_site_type_symbol
_atom_site_fract_x
_atom_site_fract_y
_atom_site_fract_z
_atom_site_charge
Mn	Mn	0.64680 0.78540 0.00670 1.18400
Mn	Mn	0.16300 0.88360 0.33940 1.19500
Mn	Mn	0.35320 0.28540 0.49330 1.18400
Mn	Mn	0.83700 0.38360 0.16060 1.19500
Mn	Mn	0.35320 0.21460 0.99330 1.18300
Mn	Mn	0.83700 0.11640 0.66060 1.19400
Mn	Mn	0.64680 0.71460 0.50670 1.18300
Mn	Mn	0.16300 0.61640 0.83940 1.19400
Nb	Nb	0.33870 0.95050 0.70610 1.25300
Nb	Nb	0.66130 0.45050 0.79390 1.25300
Nb	Nb	0.66130 0.04950 0.29390 1.25300
Nb	Nb	0.33870 0.54950 0.20610 1.25300
C 	C 	0.47410 0.87540 0.82190 -0.16700
C 	C 	0.25520 0.90500 0.55940 -0.19600
C 	C 	0.11700 0.99910 0.71260 -0.20600
C 	C 	0.48550 0.64920 0.14100 -0.16400
C 	C 	0.55710 0.00820 0.70960 -0.16900
C 	C 	0.66760 0.94720 0.17240 -0.18800
C 	C 	0.68110 0.58650 0.87730 -0.19500
C 	C 	0.23470 0.82060 0.75940 -0.19300
C 	C 	0.52590 0.37540 0.67810 -0.16700
C 	C 	0.74480 0.40500 0.94060 -0.19300
C 	C 	0.88300 0.49910 0.78740 -0.20200
C 	C 	0.51450 0.14920 0.35900 -0.16400
C 	C 	0.44290 0.50820 0.79040 -0.16900
C 	C 	0.33240 0.44720 0.32760 -0.18800
C 	C 	0.31890 0.08650 0.62270 -0.19400
C 	C 	0.76530 0.32060 0.74060 -0.19300
C 	C 	0.52590 0.12460 0.17810 -0.16700
C 	C 	0.74480 0.09500 0.44060 -0.19600
C 	C 	0.88300 0.00090 0.28740 -0.20600
C 	C 	0.51450 0.35080 0.85900 -0.16400
C 	C 	0.44290 0.99180 0.29040 -0.16900
C 	C 	0.33240 0.05280 0.82760 -0.18800
C 	C 	0.31890 0.41350 0.12270 -0.19500
C 	C 	0.76530 0.17940 0.24060 -0.19300
C 	C 	0.47410 0.62460 0.32190 -0.16700
C 	C 	0.25520 0.59500 0.05940 -0.19300
C 	C 	0.11700 0.50090 0.21260 -0.20200
C 	C 	0.48550 0.85080 0.64100 -0.16400
C 	C 	0.55710 0.49180 0.20960 -0.16900
C 	C 	0.66760 0.55280 0.67240 -0.18800
C 	C 	0.68110 0.91350 0.37730 -0.19400
C 	C 	0.23470 0.67940 0.25940 -0.19300
N 	N 	0.21400 0.88530 0.48320 -0.28300
N 	N 	0.54190 0.83900 0.88240 -0.27600
N 	N 	0.00500 0.02620 0.71470 -0.26700
N 	N 	0.56190 0.69710 0.10630 -0.26400
N 	N 	0.66570 0.04020 0.70470 -0.26400
N 	N 	0.67020 0.89650 0.10960 -0.27100
N 	N 	0.69060 0.65470 0.92190 -0.24700
N 	N 	0.18880 0.75300 0.78910 -0.28300
N 	N 	0.78600 0.38530 0.01680 -0.28400
N 	N 	0.45810 0.33900 0.61760 -0.27600
N 	N 	0.99500 0.52620 0.78530 -0.27000
N 	N 	0.43810 0.19710 0.39370 -0.26400
N 	N 	0.33430 0.54020 0.79530 -0.26400
N 	N 	0.32980 0.39650 0.39040 -0.27100
N 	N 	0.30940 0.15470 0.57810 -0.24700
N 	N 	0.81120 0.25300 0.71090 -0.28300
N 	N 	0.78600 0.11470 0.51680 -0.28300
N 	N 	0.45810 0.16100 0.11760 -0.27600
N 	N 	0.99500 0.97380 0.28530 -0.26700
N 	N 	0.43810 0.30290 0.89370 -0.26400
N 	N 	0.33430 0.95980 0.29530 -0.26400
N 	N 	0.32980 0.10350 0.89040 -0.27100
N 	N 	0.30940 0.34530 0.07810 -0.24700
N 	N 	0.81120 0.24700 0.21090 -0.28300
N 	N 	0.21400 0.61470 0.98320 -0.28400
N 	N 	0.54190 0.66100 0.38240 -0.27600
N 	N 	0.00500 0.47380 0.21470 -0.27000
N 	N 	0.56190 0.80290 0.60630 -0.26400
N 	N 	0.66570 0.45980 0.20470 -0.26400
N 	N 	0.67020 0.60350 0.60960 -0.27100
N 	N 	0.69060 0.84530 0.42190 -0.24700
N 	N 	0.18880 0.74700 0.28910 -0.28300
