data_crystal

_cell_length_a 10.60520
_cell_length_b 14.38690
_cell_length_c 15.57510
_cell_angle_alpha 90.00000
_cell_angle_beta  90.00000
_cell_angle_gamma 108.28500

_symmetry_space_group_name_	'P 1'
_symmetry_space_group_name_H-M	'P 1'

loop_
_symmetry_equiv_pos_as_xyz
  x,y,z

loop_
_atom_site_label
_atom_site_type_symbol
_atom_site_fract_x
_atom_site_fract_y
_atom_site_fract_z
_atom_site_charge
Mn	Mn	0.58665 0.01678 0.22444 1.18400
Mn	Mn	0.89280 0.69719 0.94865 1.18100
Mn	Mn	0.41335 0.48322 0.72444 1.18600
Mn	Mn	0.10720 0.80281 0.44865 1.18300
Mn	Mn	0.41335 0.98322 0.77556 1.18500
Mn	Mn	0.10720 0.30281 0.05135 1.18200
Mn	Mn	0.58665 0.51678 0.27556 1.18600
Mn	Mn	0.89280 0.19719 0.55135 1.18300
Nb	Nb	0.60395 0.30489 0.97872 1.25900
Nb	Nb	0.39605 0.19511 0.47872 1.25900
Nb	Nb	0.39605 0.69511 0.02128 1.25900
Nb	Nb	0.60395 0.80489 0.52128 1.25900
H 	H 	0.90160 0.84070 0.10640 -0.04100
H 	H 	0.04400 0.96830 0.18270 0.02000
H 	H 	0.28930 0.00370 0.98650 0.00500
H 	H 	0.24460 0.05410 0.11990 0.01800
H 	H 	0.09840 0.65930 0.60640 -0.03600
H 	H 	0.95600 0.53170 0.68270 0.01400
H 	H 	0.71070 0.49630 0.48650 -0.00200
H 	H 	0.75540 0.44590 0.61990 0.02400
H 	H 	0.09840 0.15930 0.89360 -0.04100
H 	H 	0.95600 0.03170 0.81730 0.02000
H 	H 	0.71070 0.99630 0.01350 0.00500
H 	H 	0.75540 0.94590 0.88010 0.01800
H 	H 	0.90160 0.34070 0.39360 -0.03600
H 	H 	0.04400 0.46830 0.31730 0.01400
H 	H 	0.28930 0.50370 0.51350 -0.00200
H 	H 	0.24460 0.55410 0.38010 0.02400
C 	C 	0.71609 0.46065 0.94237 -0.18000
C 	C 	0.49183 0.16648 0.91146 -0.15700
C 	C 	0.81422 0.32802 0.02168 -0.16400
C 	C 	0.48845 0.35168 0.87567 -0.17700
C 	C 	0.62153 0.38849 0.10305 -0.17800
C 	C 	0.39584 0.27524 0.02911 -0.16800
C 	C 	0.58686 0.18451 0.07553 -0.15700
C 	C 	0.72072 0.28665 0.86249 -0.18500
C 	C 	0.98290 0.87524 0.08208 0.04600
C 	C 	0.06720 0.95195 0.12849 -0.09400
C 	C 	0.20820 0.97104 0.01199 0.00800
C 	C 	0.18370 0.00171 0.09226 -0.05600
C 	C 	0.28391 0.03935 0.44237 -0.17900
C 	C 	0.50817 0.33352 0.41146 -0.15700
C 	C 	0.18578 0.17198 0.52168 -0.16500
C 	C 	0.51155 0.14832 0.37567 -0.17800
C 	C 	0.37847 0.11151 0.60305 -0.17800
C 	C 	0.60416 0.22476 0.52911 -0.16700
C 	C 	0.41314 0.31549 0.57553 -0.15700
C 	C 	0.27928 0.21335 0.36249 -0.18500
C 	C 	0.01710 0.62476 0.58208 0.02700
C 	C 	0.93280 0.54805 0.62849 -0.07400
C 	C 	0.79180 0.52896 0.51199 0.02200
C 	C 	0.81630 0.49829 0.59226 -0.07200
C 	C 	0.28391 0.53935 0.05763 -0.18000
C 	C 	0.50817 0.83352 0.08854 -0.15700
C 	C 	0.18578 0.67198 0.97832 -0.16400
C 	C 	0.51155 0.64832 0.12433 -0.17700
C 	C 	0.37847 0.61151 0.89695 -0.17800
C 	C 	0.60416 0.72476 0.97089 -0.16800
C 	C 	0.41314 0.81549 0.92447 -0.15700
C 	C 	0.27928 0.71335 0.13751 -0.18500
C 	C 	0.01710 0.12476 0.91792 0.04600
C 	C 	0.93280 0.04805 0.87151 -0.09400
C 	C 	0.79180 0.02896 0.98801 0.00800
C 	C 	0.81630 0.99829 0.90774 -0.05600
C 	C 	0.71609 0.96065 0.55763 -0.17900
C 	C 	0.49183 0.66648 0.58854 -0.15700
C 	C 	0.81422 0.82802 0.47832 -0.16500
C 	C 	0.48845 0.85168 0.62433 -0.17800
C 	C 	0.62153 0.88849 0.39695 -0.17800
C 	C 	0.39584 0.77524 0.47089 -0.16700
C 	C 	0.58686 0.68451 0.42447 -0.15700
C 	C 	0.72072 0.78665 0.63751 -0.18500
C 	C 	0.98290 0.37524 0.41792 0.02700
C 	C 	0.06720 0.45195 0.37151 -0.07400
C 	C 	0.20820 0.47104 0.48801 0.02200
C 	C 	0.18370 0.50171 0.40774 -0.07200
N 	N 	0.77449 0.53931 0.92179 -0.23900
N 	N 	0.63096 0.43055 0.16664 -0.24200
N 	N 	0.57623 0.12367 0.12497 -0.23900
N 	N 	0.44078 0.09863 0.87069 -0.24200
N 	N 	0.92236 0.34011 0.04077 -0.24500
N 	N 	0.42984 0.37746 0.82420 -0.24300
N 	N 	0.01158 0.84845 0.00547 -0.22100
N 	N 	0.28987 0.26452 0.05187 -0.24400
N 	N 	0.78211 0.27694 0.80485 -0.12200
N 	N 	0.12557 0.89911 0.96873 -0.12800
N 	N 	0.22551 0.96069 0.42179 -0.24000
N 	N 	0.36904 0.06945 0.66664 -0.24200
N 	N 	0.42377 0.37633 0.62497 -0.23900
N 	N 	0.55922 0.40137 0.37069 -0.24300
N 	N 	0.07764 0.15989 0.54077 -0.24500
N 	N 	0.57016 0.12254 0.32420 -0.24300
N 	N 	0.98842 0.65155 0.50547 -0.21500
N 	N 	0.71013 0.23548 0.55187 -0.24400
N 	N 	0.21789 0.22306 0.30485 -0.12200
N 	N 	0.87443 0.60089 0.46873 -0.13200
N 	N 	0.22551 0.46069 0.07821 -0.23900
N 	N 	0.36904 0.56945 0.83336 -0.24200
N 	N 	0.42377 0.87633 0.87503 -0.23900
N 	N 	0.55922 0.90137 0.12931 -0.24200
N 	N 	0.07764 0.65989 0.95923 -0.24500
N 	N 	0.57016 0.62254 0.17580 -0.24300
N 	N 	0.98842 0.15155 0.99453 -0.22100
N 	N 	0.71013 0.73548 0.94813 -0.24400
N 	N 	0.21789 0.72306 0.19515 -0.12200
N 	N 	0.87443 0.10089 0.03127 -0.12800
N 	N 	0.77449 0.03931 0.57821 -0.24000
N 	N 	0.63096 0.93055 0.33336 -0.24200
N 	N 	0.57623 0.62367 0.37503 -0.23900
N 	N 	0.44078 0.59863 0.62931 -0.24300
N 	N 	0.92236 0.84011 0.45923 -0.24500
N 	N 	0.42984 0.87746 0.67580 -0.24300
N 	N 	0.01158 0.34845 0.49453 -0.21500
N 	N 	0.28987 0.76452 0.44813 -0.24400
N 	N 	0.78211 0.77694 0.69515 -0.12200
N 	N 	0.12557 0.39911 0.53127 -0.13200
