data_crystal

_cell_length_a 26.86500
_cell_length_b 12.93700
_cell_length_c 23.85800
_cell_angle_alpha 90.00000
_cell_angle_beta  109.57100
_cell_angle_gamma 90.00000

_symmetry_space_group_name_	'P 1'
_symmetry_space_group_name_H-M	'P 1'

loop_
_symmetry_equiv_pos_as_xyz
  x,y,z

loop_
_atom_site_label
_atom_site_type_symbol
_atom_site_fract_x
_atom_site_fract_y
_atom_site_fract_z
_atom_site_charge
C 	C 	0.11550 0.15360 0.77830 0.33700
N 	N 	0.74038 0.52020 0.75730 -0.25900
C 	C 	0.76770 0.60350 0.78490 0.06700
H 	H 	0.74960 0.66570 0.78260 -0.00500
C 	C 	0.76700 0.43170 0.76130 0.07800
H 	H 	0.74880 0.37350 0.74230 -0.03600
Cd	Cd	0.15225 0.96753 0.20671 1.19200
N 	N 	0.01608 0.50010 0.90860 -0.13600
C 	C 	0.01555 0.64550 0.97050 0.02500
C 	C 	0.98628 0.57080 0.92360 0.08100
C 	C 	0.90605 0.50500 0.85170 0.05100
C 	C 	0.93144 0.57510 0.89650 -0.13200
H 	H 	0.91190 0.62460 0.90830 0.06800
C 	C 	0.10230 0.85530 0.10760 0.30800
C 	C 	0.00970 0.25370 0.83570 -0.10100
H 	H 	0.97810 0.23040 0.83920 0.07100
C 	C 	0.06680 0.62220 0.00690 -0.08400
H 	H 	0.08230 0.56040 0.00170 0.06900
C 	C 	0.99370 0.74010 0.97820 -0.08500
H 	H 	0.95980 0.75730 0.95370 0.05200
C 	C 	0.93744 0.43120 0.83770 -0.13200
H 	H 	0.92230 0.38180 0.80860 0.08100
C 	C 	0.09500 0.69050 0.05090 0.01600
H 	H 	0.12900 0.67380 0.07530 0.03800
C 	C 	0.99164 0.43160 0.86740 0.08400
C 	C 	0.84852 0.51000 0.82070 0.05500
C 	C 	0.07260 0.78330 0.05870 -0.08800
C 	C 	0.82010 0.60130 0.81600 -0.13600
H 	H 	0.83720 0.66110 0.83420 0.05900
C 	C 	0.82011 0.42300 0.79230 -0.14500
H 	H 	0.83710 0.35970 0.79440 0.09600
C 	C 	0.02170 0.80830 0.02150 0.01300
H 	H 	0.00670 0.87120 0.02610 0.03900
C 	C 	0.08660 0.22070 0.80900 -0.10800
C 	C 	0.07420 0.38710 0.84680 -0.10000
H 	H 	0.08630 0.45360 0.85870 0.06900
C 	C 	0.02609 0.35470 0.85070 0.03600
C 	C 	0.10380 0.32060 0.82540 0.02900
H 	H 	0.13560 0.34300 0.82210 0.02900
C 	C 	0.04040 0.18800 0.81570 0.03500
H 	H 	0.02960 0.12000 0.80650 0.03600
O 	O 	0.14578 0.82820 0.14210 -0.39500
O 	O 	0.08154 0.94180 0.11240 -0.38200
O 	O 	0.15635 0.18590 0.77230 -0.37300
O 	O 	0.09510 0.06990 0.75680 -0.41800
C 	C 	0.61550 0.65360 0.77830 0.33700
N 	N 	0.24038 0.02020 0.75730 -0.25900
C 	C 	0.26770 0.10350 0.78490 0.06600
H 	H 	0.24960 0.16570 0.78260 -0.00500
C 	C 	0.26700 0.93170 0.76130 0.07800
H 	H 	0.24880 0.87350 0.74230 -0.03600
Cd	Cd	0.65225 0.46753 0.20671 1.19200
N 	N 	0.51608 0.00010 0.90860 -0.13600
C 	C 	0.51555 0.14550 0.97050 0.02400
C 	C 	0.48628 0.07080 0.92360 0.08200
C 	C 	0.40605 0.00500 0.85170 0.05100
C 	C 	0.43144 0.07510 0.89650 -0.13200
H 	H 	0.41190 0.12460 0.90830 0.06800
C 	C 	0.60230 0.35530 0.10760 0.30800
C 	C 	0.50970 0.75370 0.83570 -0.10100
H 	H 	0.47810 0.73040 0.83920 0.07100
C 	C 	0.56680 0.12220 0.00690 -0.08300
H 	H 	0.58230 0.06040 0.00170 0.06900
C 	C 	0.49370 0.24010 0.97820 -0.08500
H 	H 	0.45980 0.25730 0.95370 0.05200
C 	C 	0.43744 0.93120 0.83770 -0.13200
H 	H 	0.42230 0.88180 0.80860 0.08100
C 	C 	0.59500 0.19050 0.05090 0.01500
H 	H 	0.62900 0.17380 0.07530 0.03800
C 	C 	0.49164 0.93160 0.86740 0.08500
C 	C 	0.34852 0.01000 0.82070 0.05500
C 	C 	0.57260 0.28330 0.05870 -0.08800
C 	C 	0.32010 0.10130 0.81600 -0.13600
H 	H 	0.33720 0.16110 0.83420 0.05900
C 	C 	0.32011 0.92300 0.79230 -0.14500
H 	H 	0.33710 0.85970 0.79440 0.09500
C 	C 	0.52170 0.30830 0.02150 0.01300
H 	H 	0.50670 0.37120 0.02610 0.03900
C 	C 	0.58660 0.72070 0.80900 -0.10800
C 	C 	0.57420 0.88710 0.84680 -0.10000
H 	H 	0.58630 0.95360 0.85870 0.07000
C 	C 	0.52609 0.85470 0.85070 0.03600
C 	C 	0.60380 0.82060 0.82540 0.02900
H 	H 	0.63560 0.84300 0.82210 0.02900
C 	C 	0.54040 0.68800 0.81570 0.03500
H 	H 	0.52960 0.62000 0.80650 0.03600
O 	O 	0.64578 0.32820 0.14210 -0.39500
O 	O 	0.58154 0.44180 0.11240 -0.38200
O 	O 	0.65635 0.68590 0.77230 -0.37300
O 	O 	0.59510 0.56990 0.75680 -0.41800
C 	C 	0.11550 0.84640 0.27830 0.33700
N 	N 	0.74038 0.47980 0.25730 -0.25900
C 	C 	0.76770 0.39650 0.28490 0.06700
H 	H 	0.74960 0.33430 0.28260 -0.00500
C 	C 	0.76700 0.56830 0.26130 0.07800
H 	H 	0.74880 0.62650 0.24230 -0.03600
Cd	Cd	0.15225 0.03247 0.70671 1.19200
N 	N 	0.01608 0.49990 0.40860 -0.13600
C 	C 	0.01555 0.35450 0.47050 0.02400
C 	C 	0.98628 0.42920 0.42360 0.08200
C 	C 	0.90605 0.49500 0.35170 0.05200
C 	C 	0.93144 0.42490 0.39650 -0.13200
H 	H 	0.91190 0.37540 0.40830 0.06800
C 	C 	0.10230 0.14470 0.60760 0.30800
C 	C 	0.00970 0.74630 0.33570 -0.10100
H 	H 	0.97810 0.76960 0.33920 0.07100
C 	C 	0.06680 0.37780 0.50690 -0.08400
H 	H 	0.08230 0.43960 0.50170 0.06900
C 	C 	0.99370 0.25990 0.47820 -0.08500
H 	H 	0.95980 0.24270 0.45370 0.05200
C 	C 	0.93744 0.56880 0.33770 -0.13200
H 	H 	0.92230 0.61820 0.30860 0.08100
C 	C 	0.09500 0.30950 0.55090 0.01500
H 	H 	0.12900 0.32620 0.57530 0.03800
C 	C 	0.99164 0.56840 0.36740 0.08500
C 	C 	0.84852 0.49000 0.32070 0.05500
C 	C 	0.07260 0.21670 0.55870 -0.08800
C 	C 	0.82010 0.39870 0.31600 -0.13600
H 	H 	0.83720 0.33890 0.33420 0.05900
C 	C 	0.82011 0.57700 0.29230 -0.14500
H 	H 	0.83710 0.64030 0.29440 0.09500
C 	C 	0.02170 0.19170 0.52150 0.01300
H 	H 	0.00670 0.12880 0.52610 0.04000
C 	C 	0.08660 0.77930 0.30900 -0.10800
C 	C 	0.07420 0.61290 0.34680 -0.10000
H 	H 	0.08630 0.54640 0.35870 0.06900
C 	C 	0.02609 0.64530 0.35070 0.03600
C 	C 	0.10380 0.67940 0.32540 0.02900
H 	H 	0.13560 0.65700 0.32210 0.02900
C 	C 	0.04040 0.81200 0.31570 0.03500
H 	H 	0.02960 0.88000 0.30650 0.03600
O 	O 	0.14578 0.17180 0.64210 -0.39500
O 	O 	0.08154 0.05820 0.61240 -0.38200
O 	O 	0.15635 0.81410 0.27230 -0.37300
O 	O 	0.09510 0.93010 0.25680 -0.41800
C 	C 	0.61550 0.34640 0.27830 0.33700
N 	N 	0.24038 0.97980 0.25730 -0.25900
C 	C 	0.26770 0.89650 0.28490 0.06600
H 	H 	0.24960 0.83430 0.28260 -0.00500
C 	C 	0.26700 0.06830 0.26130 0.07800
H 	H 	0.24880 0.12650 0.24230 -0.03600
Cd	Cd	0.65225 0.53247 0.70671 1.19200
N 	N 	0.51608 0.99990 0.40860 -0.13600
C 	C 	0.51555 0.85450 0.47050 0.02500
C 	C 	0.48628 0.92920 0.42360 0.08200
C 	C 	0.40605 0.99500 0.35170 0.05200
C 	C 	0.43144 0.92490 0.39650 -0.13200
H 	H 	0.41190 0.87540 0.40830 0.06800
C 	C 	0.60230 0.64470 0.60760 0.30800
C 	C 	0.50970 0.24630 0.33570 -0.10100
H 	H 	0.47810 0.26960 0.33920 0.07100
C 	C 	0.56680 0.87780 0.50690 -0.08400
H 	H 	0.58230 0.93960 0.50170 0.06900
C 	C 	0.49370 0.75990 0.47820 -0.08400
H 	H 	0.45980 0.74270 0.45370 0.05200
C 	C 	0.43744 0.06880 0.33770 -0.13200
H 	H 	0.42230 0.11820 0.30860 0.08100
C 	C 	0.59500 0.80950 0.55090 0.01500
H 	H 	0.62900 0.82620 0.57530 0.03800
C 	C 	0.49164 0.06840 0.36740 0.08500
C 	C 	0.34852 0.99000 0.32070 0.05500
C 	C 	0.57260 0.71670 0.55870 -0.08800
C 	C 	0.32010 0.89870 0.31600 -0.13600
H 	H 	0.33720 0.83890 0.33420 0.05900
C 	C 	0.32011 0.07700 0.29230 -0.14500
H 	H 	0.33710 0.14030 0.29440 0.09500
C 	C 	0.52170 0.69170 0.52150 0.01300
H 	H 	0.50670 0.62880 0.52610 0.04000
C 	C 	0.58660 0.27930 0.30900 -0.10800
C 	C 	0.57420 0.11290 0.34680 -0.10000
H 	H 	0.58630 0.04640 0.35870 0.07000
C 	C 	0.52609 0.14530 0.35070 0.03600
C 	C 	0.60380 0.17940 0.32540 0.02900
H 	H 	0.63560 0.15700 0.32210 0.02900
C 	C 	0.54040 0.31200 0.31570 0.03500
H 	H 	0.52960 0.38000 0.30650 0.03600
O 	O 	0.64578 0.67180 0.64210 -0.39500
O 	O 	0.58154 0.55820 0.61240 -0.38200
O 	O 	0.65635 0.31410 0.27230 -0.37300
O 	O 	0.59510 0.43010 0.25680 -0.41800
C 	C 	0.88450 0.15360 0.72170 0.33700
N 	N 	0.25962 0.52020 0.74270 -0.25900
C 	C 	0.23230 0.60350 0.71510 0.06700
H 	H 	0.25040 0.66570 0.71740 -0.00500
C 	C 	0.23300 0.43170 0.73870 0.07800
H 	H 	0.25120 0.37350 0.75770 -0.03600
Cd	Cd	0.84775 0.96753 0.29329 1.19200
N 	N 	0.98392 0.50010 0.59140 -0.13600
C 	C 	0.98445 0.64550 0.52950 0.02400
C 	C 	0.01372 0.57080 0.57640 0.08200
C 	C 	0.09395 0.50500 0.64830 0.05200
C 	C 	0.06856 0.57510 0.60350 -0.13200
H 	H 	0.08810 0.62460 0.59170 0.06800
C 	C 	0.89770 0.85530 0.39240 0.30800
C 	C 	0.99030 0.25370 0.66430 -0.10100
H 	H 	0.02190 0.23040 0.66080 0.07100
C 	C 	0.93320 0.62220 0.49310 -0.08400
H 	H 	0.91770 0.56040 0.49830 0.06900
C 	C 	0.00630 0.74010 0.52180 -0.08500
H 	H 	0.04020 0.75730 0.54630 0.05200
C 	C 	0.06256 0.43120 0.66230 -0.13200
H 	H 	0.07770 0.38180 0.69140 0.08100
C 	C 	0.90500 0.69050 0.44910 0.01500
H 	H 	0.87100 0.67380 0.42470 0.03800
C 	C 	0.00836 0.43160 0.63260 0.08500
C 	C 	0.15148 0.51000 0.67930 0.05500
C 	C 	0.92740 0.78330 0.44130 -0.08800
C 	C 	0.17990 0.60130 0.68400 -0.13600
H 	H 	0.16280 0.66110 0.66580 0.05900
C 	C 	0.17989 0.42300 0.70770 -0.14500
H 	H 	0.16290 0.35970 0.70560 0.09500
C 	C 	0.97830 0.80830 0.47850 0.01300
H 	H 	0.99330 0.87120 0.47390 0.04000
C 	C 	0.91340 0.22070 0.69100 -0.10800
C 	C 	0.92580 0.38710 0.65320 -0.10000
H 	H 	0.91370 0.45360 0.64130 0.06900
C 	C 	0.97391 0.35470 0.64930 0.03600
C 	C 	0.89620 0.32060 0.67460 0.02900
H 	H 	0.86440 0.34300 0.67790 0.02900
C 	C 	0.95960 0.18800 0.68430 0.03500
H 	H 	0.97040 0.12000 0.69350 0.03600
O 	O 	0.85422 0.82820 0.35790 -0.39500
O 	O 	0.91846 0.94180 0.38760 -0.38200
O 	O 	0.84365 0.18590 0.72770 -0.37300
O 	O 	0.90490 0.06990 0.74320 -0.41800
C 	C 	0.38450 0.65360 0.72170 0.33700
N 	N 	0.75962 0.02020 0.74270 -0.25900
C 	C 	0.73230 0.10350 0.71510 0.06600
H 	H 	0.75040 0.16570 0.71740 -0.00500
C 	C 	0.73300 0.93170 0.73870 0.07800
H 	H 	0.75120 0.87350 0.75770 -0.03600
Cd	Cd	0.34775 0.46753 0.29329 1.19200
N 	N 	0.48392 0.00010 0.59140 -0.13600
C 	C 	0.48445 0.14550 0.52950 0.02500
C 	C 	0.51372 0.07080 0.57640 0.08200
C 	C 	0.59395 0.00500 0.64830 0.05200
C 	C 	0.56856 0.07510 0.60350 -0.13200
H 	H 	0.58810 0.12460 0.59170 0.06800
C 	C 	0.39770 0.35530 0.39240 0.30800
C 	C 	0.49030 0.75370 0.66430 -0.10100
H 	H 	0.52190 0.73040 0.66080 0.07100
C 	C 	0.43320 0.12220 0.49310 -0.08400
H 	H 	0.41770 0.06040 0.49830 0.06900
C 	C 	0.50630 0.24010 0.52180 -0.08400
H 	H 	0.54020 0.25730 0.54630 0.05200
C 	C 	0.56256 0.93120 0.66230 -0.13200
H 	H 	0.57770 0.88180 0.69140 0.08100
C 	C 	0.40500 0.19050 0.44910 0.01500
H 	H 	0.37100 0.17380 0.42470 0.03800
C 	C 	0.50836 0.93160 0.63260 0.08500
C 	C 	0.65148 0.01000 0.67930 0.05500
C 	C 	0.42740 0.28330 0.44130 -0.08800
C 	C 	0.67990 0.10130 0.68400 -0.13600
H 	H 	0.66280 0.16110 0.66580 0.05900
C 	C 	0.67989 0.92300 0.70770 -0.14500
H 	H 	0.66290 0.85970 0.70560 0.09500
C 	C 	0.47830 0.30830 0.47850 0.01300
H 	H 	0.49330 0.37120 0.47390 0.04000
C 	C 	0.41340 0.72070 0.69100 -0.10800
C 	C 	0.42580 0.88710 0.65320 -0.10000
H 	H 	0.41370 0.95360 0.64130 0.07000
C 	C 	0.47391 0.85470 0.64930 0.03600
C 	C 	0.39620 0.82060 0.67460 0.02900
H 	H 	0.36440 0.84300 0.67790 0.02900
C 	C 	0.45960 0.68800 0.68430 0.03500
H 	H 	0.47040 0.62000 0.69350 0.03600
O 	O 	0.35422 0.32820 0.35790 -0.39500
O 	O 	0.41846 0.44180 0.38760 -0.38200
O 	O 	0.34365 0.68590 0.72770 -0.37300
O 	O 	0.40490 0.56990 0.74320 -0.41800
C 	C 	0.88450 0.84640 0.22170 0.33700
N 	N 	0.25962 0.47980 0.24270 -0.25900
C 	C 	0.23230 0.39650 0.21510 0.06700
H 	H 	0.25040 0.33430 0.21740 -0.00500
C 	C 	0.23300 0.56830 0.23870 0.07800
H 	H 	0.25120 0.62650 0.25770 -0.03600
Cd	Cd	0.84775 0.03247 0.79329 1.19200
N 	N 	0.98392 0.49990 0.09140 -0.13600
C 	C 	0.98445 0.35450 0.02950 0.02500
C 	C 	0.01372 0.42920 0.07640 0.08100
C 	C 	0.09395 0.49500 0.14830 0.05100
C 	C 	0.06856 0.42490 0.10350 -0.13200
H 	H 	0.08810 0.37540 0.09170 0.06800
C 	C 	0.89770 0.14470 0.89240 0.30800
C 	C 	0.99030 0.74630 0.16430 -0.10100
H 	H 	0.02190 0.76960 0.16080 0.07100
C 	C 	0.93320 0.37780 0.99310 -0.08400
H 	H 	0.91770 0.43960 0.99830 0.06900
C 	C 	0.00630 0.25990 0.02180 -0.08500
H 	H 	0.04020 0.24270 0.04630 0.05200
C 	C 	0.06256 0.56880 0.16230 -0.13200
H 	H 	0.07770 0.61820 0.19140 0.08100
C 	C 	0.90500 0.30950 0.94910 0.01600
H 	H 	0.87100 0.32620 0.92470 0.03800
C 	C 	0.00836 0.56840 0.13260 0.08400
C 	C 	0.15148 0.49000 0.17930 0.05500
C 	C 	0.92740 0.21670 0.94130 -0.08800
C 	C 	0.17990 0.39870 0.18400 -0.13600
H 	H 	0.16280 0.33890 0.16580 0.05900
C 	C 	0.17989 0.57700 0.20770 -0.14500
H 	H 	0.16290 0.64030 0.20560 0.09600
C 	C 	0.97830 0.19170 0.97850 0.01300
H 	H 	0.99330 0.12880 0.97390 0.03900
C 	C 	0.91340 0.77930 0.19100 -0.10800
C 	C 	0.92580 0.61290 0.15320 -0.10000
H 	H 	0.91370 0.54640 0.14130 0.06900
C 	C 	0.97391 0.64530 0.14930 0.03600
C 	C 	0.89620 0.67940 0.17460 0.02900
H 	H 	0.86440 0.65700 0.17790 0.02900
C 	C 	0.95960 0.81200 0.18430 0.03500
H 	H 	0.97040 0.88000 0.19350 0.03600
O 	O 	0.85422 0.17180 0.85790 -0.39500
O 	O 	0.91846 0.05820 0.88760 -0.38200
O 	O 	0.84365 0.81410 0.22770 -0.37300
O 	O 	0.90490 0.93010 0.24320 -0.41800
C 	C 	0.38450 0.34640 0.22170 0.33700
N 	N 	0.75962 0.97980 0.24270 -0.25900
C 	C 	0.73230 0.89650 0.21510 0.06600
H 	H 	0.75040 0.83430 0.21740 -0.00500
C 	C 	0.73300 0.06830 0.23870 0.07800
H 	H 	0.75120 0.12650 0.25770 -0.03600
Cd	Cd	0.34775 0.53247 0.79329 1.19200
N 	N 	0.48392 0.99990 0.09140 -0.13600
C 	C 	0.48445 0.85450 0.02950 0.02400
C 	C 	0.51372 0.92920 0.07640 0.08200
C 	C 	0.59395 0.99500 0.14830 0.05100
C 	C 	0.56856 0.92490 0.10350 -0.13200
H 	H 	0.58810 0.87540 0.09170 0.06800
C 	C 	0.39770 0.64470 0.89240 0.30800
C 	C 	0.49030 0.24630 0.16430 -0.10100
H 	H 	0.52190 0.26960 0.16080 0.07100
C 	C 	0.43320 0.87780 0.99310 -0.08300
H 	H 	0.41770 0.93960 0.99830 0.06900
C 	C 	0.50630 0.75990 0.02180 -0.08500
H 	H 	0.54020 0.74270 0.04630 0.05200
C 	C 	0.56256 0.06880 0.16230 -0.13200
H 	H 	0.57770 0.11820 0.19140 0.08100
C 	C 	0.40500 0.80950 0.94910 0.01500
H 	H 	0.37100 0.82620 0.92470 0.03800
C 	C 	0.50836 0.06840 0.13260 0.08500
C 	C 	0.65148 0.99000 0.17930 0.05500
C 	C 	0.42740 0.71670 0.94130 -0.08800
C 	C 	0.67990 0.89870 0.18400 -0.13600
H 	H 	0.66280 0.83890 0.16580 0.05900
C 	C 	0.67989 0.07700 0.20770 -0.14500
H 	H 	0.66290 0.14030 0.20560 0.09500
C 	C 	0.47830 0.69170 0.97850 0.01300
H 	H 	0.49330 0.62880 0.97390 0.03900
C 	C 	0.41340 0.27930 0.19100 -0.10800
C 	C 	0.42580 0.11290 0.15320 -0.10000
H 	H 	0.41370 0.04640 0.14130 0.07000
C 	C 	0.47391 0.14530 0.14930 0.03600
C 	C 	0.39620 0.17940 0.17460 0.02900
H 	H 	0.36440 0.15700 0.17790 0.02900
C 	C 	0.45960 0.31200 0.18430 0.03500
H 	H 	0.47040 0.38000 0.19350 0.03600
O 	O 	0.35422 0.67180 0.85790 -0.39500
O 	O 	0.41846 0.55820 0.88760 -0.38200
O 	O 	0.34365 0.31410 0.22770 -0.37300
O 	O 	0.40490 0.43010 0.24320 -0.41800
