data_crystal

_cell_length_a 23.41200
_cell_length_b 11.37400
_cell_length_c 19.75500
_cell_angle_alpha 90.00000
_cell_angle_beta  122.51800
_cell_angle_gamma 90.00000

_symmetry_space_group_name_	'P 1'
_symmetry_space_group_name_H-M	'P 1'

loop_
_symmetry_equiv_pos_as_xyz
  x,y,z

loop_
_atom_site_label
_atom_site_type_symbol
_atom_site_fract_x
_atom_site_fract_y
_atom_site_fract_z
_atom_site_charge
C 	C 	0.52521 0.11130 0.50490 0.21500
C 	C 	0.54224 0.91230 0.54910 0.21600
C 	C 	0.56827 0.02380 0.55560 -0.25500
C 	C 	0.64210 0.04970 0.61480 0.46700
N 	N 	0.99500 0.92770 0.92760 -0.16400
O 	O 	0.88220 0.83450 0.81130 0.20500
C 	C 	0.02560 0.83040 0.91050 0.06100
C 	C 	0.03280 0.00470 0.99470 0.03300
C 	C 	0.92440 0.94190 0.86590 0.37000
Mn	Mn	0.78494 0.92203 0.73594 1.32000
O 	O 	0.66356 0.15020 0.61526 -0.44700
O 	O 	0.67719 0.96770 0.66030 -0.48000
O 	O 	0.54680 0.20870 0.50200 -0.41900
H 	H 	0.51850 0.24230 0.46060 0.26600
C 	C 	0.79351 0.03410 0.59379 0.36600
C 	C 	0.79580 0.99090 0.52341 0.03600
C 	C 	0.78865 0.06770 0.46468 -0.24000
H 	H 	0.78550 0.14790 0.47120 0.10200
C 	C 	0.80170 0.87050 0.51570 -0.15300
H 	H 	0.80900 0.81900 0.55620 0.09600
C 	C 	0.78605 0.02800 0.39548 0.32000
C 	C 	0.78893 0.90470 0.38732 -0.29600
C 	C 	0.79657 0.82880 0.44700 0.14700
H 	H 	0.79820 0.74820 0.44040 -0.00900
C 	C 	0.78214 0.85030 0.31538 0.48700
Mn	Mn	0.76361 0.22565 0.67474 1.27300
O 	O 	0.80045 0.96000 0.64350 -0.45800
O 	O 	0.80402 0.90031 0.27687 -0.59800
O 	O 	0.75544 0.75160 0.29300 -0.56000
O 	O 	0.78398 0.14180 0.59730 -0.47600
O 	O 	0.77851 0.10424 0.34120 -0.56300
O 	O 	0.89320 0.88950 0.81290 -0.64700
O 	O 	0.57720 0.83000 0.58760 -0.46500
H 	H 	0.60710 0.85250 0.63240 0.26500
C 	C 	0.02521 0.61130 0.50490 0.21500
C 	C 	0.04224 0.41230 0.54910 0.21500
C 	C 	0.06827 0.52380 0.55560 -0.25600
C 	C 	0.14210 0.54970 0.61480 0.46600
N 	N 	0.49500 0.42770 0.92760 -0.16800
O 	O 	0.38220 0.33450 0.81130 0.20300
C 	C 	0.52560 0.33040 0.91050 0.06200
C 	C 	0.53280 0.50470 0.99470 0.03400
C 	C 	0.42440 0.44190 0.86590 0.36800
Mn	Mn	0.28494 0.42203 0.73594 1.31900
O 	O 	0.16356 0.65020 0.61526 -0.44800
O 	O 	0.17719 0.46770 0.66030 -0.48100
O 	O 	0.04680 0.70870 0.50200 -0.42100
H 	H 	0.01850 0.74230 0.46060 0.26500
C 	C 	0.29351 0.53410 0.59379 0.36500
C 	C 	0.29580 0.49090 0.52341 0.03500
C 	C 	0.28865 0.56770 0.46468 -0.24000
H 	H 	0.28550 0.64790 0.47120 0.10200
C 	C 	0.30170 0.37050 0.51570 -0.15300
H 	H 	0.30900 0.31900 0.55620 0.09600
C 	C 	0.28605 0.52800 0.39548 0.32000
C 	C 	0.28893 0.40470 0.38732 -0.29600
C 	C 	0.29657 0.32880 0.44700 0.14600
H 	H 	0.29820 0.24820 0.44040 -0.00900
C 	C 	0.28214 0.35030 0.31538 0.48700
Mn	Mn	0.26361 0.72565 0.67474 1.27300
O 	O 	0.30045 0.46000 0.64350 -0.45800
O 	O 	0.30402 0.40031 0.27687 -0.59800
O 	O 	0.25544 0.25160 0.29300 -0.56000
O 	O 	0.28398 0.64180 0.59730 -0.47600
O 	O 	0.27851 0.60424 0.34120 -0.56300
O 	O 	0.39320 0.38950 0.81290 -0.64600
O 	O 	0.07720 0.33000 0.58760 -0.46500
H 	H 	0.10710 0.35250 0.63240 0.26500
C 	C 	0.47479 0.11130 0.99510 0.21400
C 	C 	0.45776 0.91230 0.95090 0.21500
C 	C 	0.43173 0.02380 0.94440 -0.25600
C 	C 	0.35790 0.04970 0.88520 0.46600
N 	N 	0.00500 0.92770 0.57240 -0.16800
O 	O 	0.11780 0.83450 0.68870 0.20300
C 	C 	0.97440 0.83040 0.58950 0.06300
C 	C 	0.96720 0.00470 0.50530 0.03500
C 	C 	0.07560 0.94190 0.63410 0.36800
Mn	Mn	0.21506 0.92203 0.76406 1.31900
O 	O 	0.33644 0.15020 0.88474 -0.44800
O 	O 	0.32281 0.96770 0.83970 -0.48100
O 	O 	0.45320 0.20870 0.99800 -0.42100
H 	H 	0.48150 0.24230 0.03940 0.26500
C 	C 	0.20649 0.03410 0.90621 0.36400
C 	C 	0.20420 0.99090 0.97659 0.03400
C 	C 	0.21135 0.06770 0.03532 -0.23800
H 	H 	0.21450 0.14790 0.02880 0.10200
C 	C 	0.19830 0.87050 0.98430 -0.15600
H 	H 	0.19100 0.81900 0.94380 0.09600
C 	C 	0.21395 0.02800 0.10452 0.32000
C 	C 	0.21107 0.90470 0.11268 -0.29700
C 	C 	0.20343 0.82880 0.05300 0.14900
H 	H 	0.20180 0.74820 0.05960 -0.01000
C 	C 	0.21786 0.85030 0.18462 0.48800
Mn	Mn	0.23639 0.22565 0.82526 1.27300
O 	O 	0.19955 0.96000 0.85650 -0.45800
O 	O 	0.19598 0.90031 0.22313 -0.59800
O 	O 	0.24456 0.75160 0.20700 -0.56000
O 	O 	0.21602 0.14180 0.90270 -0.47700
O 	O 	0.22149 0.10424 0.15880 -0.56300
O 	O 	0.10680 0.88950 0.68710 -0.64600
O 	O 	0.42280 0.83000 0.91240 -0.46500
H 	H 	0.39290 0.85250 0.86760 0.26500
C 	C 	0.97479 0.61130 0.99510 0.21400
C 	C 	0.95776 0.41230 0.95090 0.21500
C 	C 	0.93173 0.52380 0.94440 -0.25600
C 	C 	0.85790 0.54970 0.88520 0.46600
N 	N 	0.50500 0.42770 0.57240 -0.16800
O 	O 	0.61780 0.33450 0.68870 0.20300
C 	C 	0.47440 0.33040 0.58950 0.06200
C 	C 	0.46720 0.50470 0.50530 0.03500
C 	C 	0.57560 0.44190 0.63410 0.36800
Mn	Mn	0.71506 0.42203 0.76406 1.31900
O 	O 	0.83644 0.65020 0.88474 -0.44800
O 	O 	0.82281 0.46770 0.83970 -0.48100
O 	O 	0.95320 0.70870 0.99800 -0.41700
H 	H 	0.98150 0.74230 0.03940 0.26100
C 	C 	0.70649 0.53410 0.90621 0.36500
C 	C 	0.70420 0.49090 0.97659 0.03600
C 	C 	0.71135 0.56770 0.03532 -0.24100
H 	H 	0.71450 0.64790 0.02880 0.10200
C 	C 	0.69830 0.37050 0.98430 -0.15200
H 	H 	0.69100 0.31900 0.94380 0.09500
C 	C 	0.71395 0.52800 0.10452 0.32000
C 	C 	0.71107 0.40470 0.11268 -0.29600
C 	C 	0.70343 0.32880 0.05300 0.14500
H 	H 	0.70180 0.24820 0.05960 -0.00900
C 	C 	0.71786 0.35030 0.18462 0.48700
Mn	Mn	0.73639 0.72565 0.82526 1.27300
O 	O 	0.69955 0.46000 0.85650 -0.45800
O 	O 	0.69598 0.40031 0.22313 -0.59800
O 	O 	0.74456 0.25160 0.20700 -0.56000
O 	O 	0.71602 0.64180 0.90270 -0.47600
O 	O 	0.72149 0.60424 0.15880 -0.56300
O 	O 	0.60680 0.38950 0.68710 -0.64600
O 	O 	0.92280 0.33000 0.91240 -0.46400
H 	H 	0.89290 0.35250 0.86760 0.26500
C 	C 	0.47479 0.88870 0.49510 0.21400
C 	C 	0.45776 0.08770 0.45090 0.21500
C 	C 	0.43173 0.97620 0.44440 -0.25600
C 	C 	0.35790 0.95030 0.38520 0.46600
N 	N 	0.00500 0.07230 0.07240 -0.16500
O 	O 	0.11780 0.16550 0.18870 0.20400
C 	C 	0.97440 0.16960 0.08950 0.06000
C 	C 	0.96720 0.99530 0.00530 0.03200
C 	C 	0.07560 0.05810 0.13410 0.36900
Mn	Mn	0.21506 0.07797 0.26406 1.31900
O 	O 	0.33644 0.84980 0.38474 -0.44800
O 	O 	0.32281 0.03230 0.33970 -0.48100
O 	O 	0.45320 0.79130 0.49800 -0.42000
H 	H 	0.48150 0.75770 0.53940 0.26500
C 	C 	0.20649 0.96590 0.40621 0.36500
C 	C 	0.20420 0.00910 0.47659 0.03500
C 	C 	0.21135 0.93230 0.53532 -0.24000
H 	H 	0.21450 0.85210 0.52880 0.10200
C 	C 	0.19830 0.12950 0.48430 -0.15300
H 	H 	0.19100 0.18100 0.44380 0.09600
C 	C 	0.21395 0.97200 0.60452 0.32000
C 	C 	0.21107 0.09530 0.61268 -0.29600
C 	C 	0.20343 0.17120 0.55300 0.14700
H 	H 	0.20180 0.25180 0.55960 -0.00900
C 	C 	0.21786 0.14970 0.68462 0.48700
Mn	Mn	0.23639 0.77435 0.32526 1.27300
O 	O 	0.19955 0.04000 0.35650 -0.45800
O 	O 	0.19598 0.09969 0.72313 -0.59800
O 	O 	0.24456 0.24840 0.70700 -0.56000
O 	O 	0.21602 0.85820 0.40270 -0.47600
O 	O 	0.22149 0.89576 0.65880 -0.56300
O 	O 	0.10680 0.11050 0.18710 -0.64700
O 	O 	0.42280 0.17000 0.41240 -0.46500
H 	H 	0.39290 0.14750 0.36760 0.26500
C 	C 	0.97479 0.38870 0.49510 0.21500
C 	C 	0.95776 0.58770 0.45090 0.21500
C 	C 	0.93173 0.47620 0.44440 -0.25600
C 	C 	0.85790 0.45030 0.38520 0.46600
N 	N 	0.50500 0.57230 0.07240 -0.16800
O 	O 	0.61780 0.66550 0.18870 0.20300
C 	C 	0.47440 0.66960 0.08950 0.06200
C 	C 	0.46720 0.49530 0.00530 0.03400
C 	C 	0.57560 0.55810 0.13410 0.36800
Mn	Mn	0.71506 0.57797 0.26406 1.31900
O 	O 	0.83644 0.34980 0.38474 -0.44800
O 	O 	0.82281 0.53230 0.33970 -0.48100
O 	O 	0.95320 0.29130 0.49800 -0.42100
H 	H 	0.98150 0.25770 0.53940 0.26500
C 	C 	0.70649 0.46590 0.40621 0.36500
C 	C 	0.70420 0.50910 0.47659 0.03500
C 	C 	0.71135 0.43230 0.53532 -0.24000
H 	H 	0.71450 0.35210 0.52880 0.10200
C 	C 	0.69830 0.62950 0.48430 -0.15300
H 	H 	0.69100 0.68100 0.44380 0.09600
C 	C 	0.71395 0.47200 0.60452 0.32000
C 	C 	0.71107 0.59530 0.61268 -0.29600
C 	C 	0.70343 0.67120 0.55300 0.14600
H 	H 	0.70180 0.75180 0.55960 -0.00900
C 	C 	0.71786 0.64970 0.68462 0.48700
Mn	Mn	0.73639 0.27435 0.32526 1.27300
O 	O 	0.69955 0.54000 0.35650 -0.45800
O 	O 	0.69598 0.59969 0.72313 -0.59800
O 	O 	0.74456 0.74840 0.70700 -0.56000
O 	O 	0.71602 0.35820 0.40270 -0.47600
O 	O 	0.72149 0.39576 0.65880 -0.56300
O 	O 	0.60680 0.61050 0.18710 -0.64600
O 	O 	0.92280 0.67000 0.41240 -0.46500
H 	H 	0.89290 0.64750 0.36760 0.26500
C 	C 	0.52521 0.88870 0.00490 0.21400
C 	C 	0.54224 0.08770 0.04910 0.21500
C 	C 	0.56827 0.97620 0.05560 -0.25600
C 	C 	0.64210 0.95030 0.11480 0.46600
N 	N 	0.99500 0.07230 0.42760 -0.16800
O 	O 	0.88220 0.16550 0.31130 0.20300
C 	C 	0.02560 0.16960 0.41050 0.06300
C 	C 	0.03280 0.99530 0.49470 0.03500
C 	C 	0.92440 0.05810 0.36590 0.36800
Mn	Mn	0.78494 0.07797 0.23594 1.31900
O 	O 	0.66356 0.84980 0.11526 -0.44800
O 	O 	0.67719 0.03230 0.16030 -0.48100
O 	O 	0.54680 0.79130 0.00200 -0.42100
H 	H 	0.51850 0.75770 0.96060 0.26500
C 	C 	0.79351 0.96590 0.09379 0.36400
C 	C 	0.79580 0.00910 0.02341 0.03400
C 	C 	0.78865 0.93230 0.96468 -0.23800
H 	H 	0.78550 0.85210 0.97120 0.10200
C 	C 	0.80170 0.12950 0.01570 -0.15600
H 	H 	0.80900 0.18100 0.05620 0.09600
C 	C 	0.78605 0.97200 0.89548 0.32000
C 	C 	0.78893 0.09530 0.88732 -0.29700
C 	C 	0.79657 0.17120 0.94700 0.14900
H 	H 	0.79820 0.25180 0.94040 -0.01000
C 	C 	0.78214 0.14970 0.81538 0.48800
Mn	Mn	0.76361 0.77435 0.17474 1.27300
O 	O 	0.80045 0.04000 0.14350 -0.45800
O 	O 	0.80402 0.09969 0.77687 -0.59800
O 	O 	0.75544 0.24840 0.79300 -0.56000
O 	O 	0.78398 0.85820 0.09730 -0.47700
O 	O 	0.77851 0.89576 0.84120 -0.56300
O 	O 	0.89320 0.11050 0.31290 -0.64600
O 	O 	0.57720 0.17000 0.08760 -0.46500
H 	H 	0.60710 0.14750 0.13240 0.26500
C 	C 	0.02521 0.38870 0.00490 0.21400
C 	C 	0.04224 0.58770 0.04910 0.21500
C 	C 	0.06827 0.47620 0.05560 -0.25600
C 	C 	0.14210 0.45030 0.11480 0.46600
N 	N 	0.49500 0.57230 0.42760 -0.16800
O 	O 	0.38220 0.66550 0.31130 0.20300
C 	C 	0.52560 0.66960 0.41050 0.06200
C 	C 	0.53280 0.49530 0.49470 0.03500
C 	C 	0.42440 0.55810 0.36590 0.36800
Mn	Mn	0.28494 0.57797 0.23594 1.31900
O 	O 	0.16356 0.34980 0.11526 -0.44800
O 	O 	0.17719 0.53230 0.16030 -0.48100
O 	O 	0.04680 0.29130 0.00200 -0.41700
H 	H 	0.01850 0.25770 0.96060 0.26100
C 	C 	0.29351 0.46590 0.09379 0.36500
C 	C 	0.29580 0.50910 0.02341 0.03600
C 	C 	0.28865 0.43230 0.96468 -0.24100
H 	H 	0.28550 0.35210 0.97120 0.10200
C 	C 	0.30170 0.62950 0.01570 -0.15200
H 	H 	0.30900 0.68100 0.05620 0.09500
C 	C 	0.28605 0.47200 0.89548 0.32000
C 	C 	0.28893 0.59530 0.88732 -0.29600
C 	C 	0.29657 0.67120 0.94700 0.14500
H 	H 	0.29820 0.75180 0.94040 -0.00900
C 	C 	0.28214 0.64970 0.81538 0.48700
Mn	Mn	0.26361 0.27435 0.17474 1.27300
O 	O 	0.30045 0.54000 0.14350 -0.45800
O 	O 	0.30402 0.59969 0.77687 -0.59800
O 	O 	0.25544 0.74840 0.79300 -0.56000
O 	O 	0.28398 0.35820 0.09730 -0.47600
O 	O 	0.27851 0.39576 0.84120 -0.56300
O 	O 	0.39320 0.61050 0.31290 -0.64600
O 	O 	0.07720 0.67000 0.08760 -0.46400
H 	H 	0.10710 0.64750 0.13240 0.26500
