data_crystal

_cell_length_a 9.42000
_cell_length_b 9.42000
_cell_length_c 10.24200
_cell_angle_alpha 90.00000
_cell_angle_beta  90.00000
_cell_angle_gamma 120.00000

_symmetry_space_group_name_	'P 1'
_symmetry_space_group_name_H-M	'P 1'

loop_
_symmetry_equiv_pos_as_xyz
  x,y,z

loop_
_atom_site_label
_atom_site_type_symbol
_atom_site_fract_x
_atom_site_fract_y
_atom_site_fract_z
_atom_site_charge
Co	Co	0.66420 0.66520 0.50380 1.12400
O 	O 	0.76630 0.88270 0.38030 -0.74800
H 	H 	0.70580 0.85060 0.29760 0.12900
O 	O 	0.77790 0.55920 0.40020 -0.72300
H 	H 	0.77580 0.55910 0.30450 0.13000
O 	O 	0.88900 0.44500 0.60590 -0.70500
H 	H 	0.89010 0.44770 0.70160 0.14400
H 	H 	0.93590 0.89000 0.13200 0.99300
C 	C 	0.15000 0.09900 0.06790 -0.77800
H 	H 	0.22000 0.19910 0.11520 -0.13500
H 	H 	0.20840 0.03860 0.06000 0.53900
C 	C 	0.88100 0.85800 0.06790 -0.79800
H 	H 	0.21900 0.13970 0.06000 0.56000
H 	H 	0.19640 0.97450 0.11520 -0.11200
Co	Co	0.33480 0.99900 0.50380 1.13000
O 	O 	0.11730 0.88360 0.38030 -0.75400
H 	H 	0.14940 0.85520 0.29760 0.12800
O 	O 	0.44080 0.21870 0.40020 -0.72600
H 	H 	0.44090 0.21670 0.30450 0.12700
O 	O 	0.55500 0.44400 0.60590 -0.70900
H 	H 	0.55230 0.44240 0.70160 0.14200
H 	H 	0.11000 0.04590 0.13200 0.96000
C 	C 	0.90100 0.05100 0.06790 -0.76100
H 	H 	0.80090 0.02090 0.11520 -0.13400
H 	H 	0.96140 0.16980 0.06000 0.55100
C 	C 	0.14200 0.02300 0.06790 -0.79000
H 	H 	0.86030 0.07930 0.06000 0.53800
H 	H 	0.02550 0.22190 0.11520 -0.13800
Co	Co	0.00100 0.33580 0.50380 1.11900
O 	O 	0.11640 0.23370 0.38030 -0.76000
H 	H 	0.14480 0.29420 0.29760 0.12900
O 	O 	0.78130 0.22210 0.40020 -0.72200
H 	H 	0.78330 0.22420 0.30450 0.12900
O 	O 	0.55600 0.11100 0.60590 -0.71300
H 	H 	0.55760 0.10990 0.70160 0.14100
H 	H 	0.95410 0.06410 0.13200 0.95300
C 	C 	0.94900 0.85000 0.06790 -0.81300
H 	H 	0.97910 0.78000 0.11520 -0.13000
H 	H 	0.83020 0.79160 0.06000 0.56500
C 	C 	0.97700 0.11900 0.06790 -0.76400
H 	H 	0.92070 0.78100 0.06000 0.57700
H 	H 	0.77810 0.80360 0.11520 -0.13100
Co	Co	0.33580 0.33480 0.49620 1.12400
O 	O 	0.23370 0.11730 0.61970 -0.76200
H 	H 	0.29420 0.14940 0.70240 0.12800
O 	O 	0.22210 0.44080 0.59980 -0.72500
H 	H 	0.22420 0.44090 0.69550 0.12800
O 	O 	0.11100 0.55500 0.39410 -0.71300
H 	H 	0.10990 0.55230 0.29840 0.14100
H 	H 	0.06410 0.11000 0.86800 0.94600
C 	C 	0.85000 0.90100 0.93210 -0.79300
H 	H 	0.78000 0.80090 0.88480 -0.13100
H 	H 	0.79160 0.96140 0.94000 0.56100
C 	C 	0.11900 0.14200 0.93210 -0.77200
H 	H 	0.78100 0.86030 0.94000 0.56100
H 	H 	0.80360 0.02550 0.88480 -0.13500
Co	Co	0.66520 0.00100 0.49620 1.12000
O 	O 	0.88270 0.11640 0.61970 -0.75100
H 	H 	0.85060 0.14480 0.70240 0.13000
O 	O 	0.55920 0.78130 0.59980 -0.72000
H 	H 	0.55910 0.78330 0.69550 0.13000
O 	O 	0.44500 0.55600 0.39410 -0.70900
H 	H 	0.44770 0.55760 0.29840 0.14200
H 	H 	0.89000 0.95410 0.86800 0.98000
C 	C 	0.09900 0.94900 0.93210 -0.80400
H 	H 	0.19910 0.97910 0.88480 -0.13200
H 	H 	0.03860 0.83020 0.94000 0.54800
C 	C 	0.85800 0.97700 0.93210 -0.78000
H 	H 	0.13970 0.92070 0.94000 0.57600
H 	H 	0.97450 0.77810 0.88480 -0.11500
Co	Co	0.99900 0.66420 0.49620 1.13000
O 	O 	0.88360 0.76630 0.61970 -0.74900
H 	H 	0.85520 0.70580 0.70240 0.12900
O 	O 	0.21870 0.77790 0.59980 -0.72500
H 	H 	0.21670 0.77580 0.69550 0.12800
O 	O 	0.44400 0.88900 0.39410 -0.70500
H 	H 	0.44240 0.89010 0.29840 0.14400
H 	H 	0.04590 0.93590 0.86800 0.98000
C 	C 	0.05100 0.15000 0.93210 -0.75500
H 	H 	0.02090 0.22000 0.88480 -0.13600
H 	H 	0.16980 0.20840 0.94000 0.54600
C 	C 	0.02300 0.88100 0.93210 -0.80000
H 	H 	0.07930 0.21900 0.94000 0.53800
H 	H 	0.22190 0.19640 0.88480 -0.13000
Co	Co	0.66667 0.33333 0.50260 1.12700
Co	Co	0.33333 0.66667 0.49740 1.12700
Co	Co	-0.00000 0.00000 0.33750 1.06800
N 	N 	0.00000 0.00000 0.14400 -0.96100
Co	Co	-0.00000 0.00000 0.66250 1.06800
N 	N 	0.00000 0.00000 0.85600 -0.96100
