data_crystal

_cell_length_a 13.70900
_cell_length_b 17.72200
_cell_length_c 23.81000
_cell_angle_alpha 70.74600
_cell_angle_beta  77.49300
_cell_angle_gamma 88.40000

_symmetry_space_group_name_	'P 1'
_symmetry_space_group_name_H-M	'P 1'

loop_
_symmetry_equiv_pos_as_xyz
  x,y,z

loop_
_atom_site_label
_atom_site_type_symbol
_atom_site_fract_x
_atom_site_fract_y
_atom_site_fract_z
_atom_site_charge
Ni	Ni	0.59279 0.84975 0.26776 1.09200
O 	O 	0.99107 0.87673 0.02538 -0.43100
O 	O 	0.61450 0.96033 0.20333 -0.40000
O 	O 	0.44010 0.86885 0.26664 -0.37600
O 	O 	0.59300 0.79948 0.19992 -0.38100
N 	N 	0.15610 0.99316 0.00161 -0.24500
O 	O 	0.64510 0.30346 0.00830 -0.33100
N 	N 	0.56000 0.73634 0.33315 -0.24900
O 	O 	0.44830 0.88568 0.16836 -0.23500
O 	O 	0.97710 0.86205 0.93739 -0.29800
O 	O 	0.99670 0.49919 0.08977 -0.30400
O 	O 	0.78070 0.97453 0.17424 -0.30600
O 	O 	0.65360 0.66380 0.97703 -0.31500
N 	N 	0.57390 0.90253 0.33555 -0.24800
O 	O 	0.14790 0.15049 0.21140 -0.29100
C 	C 	0.22300 0.05170 0.96901 0.12300
H 	H 	0.20090 0.09800 0.94370 -0.01100
C 	C 	0.99300 0.74563 0.01930 -0.24400
O 	O 	0.73620 0.74330 0.20140 -0.29200
C 	C 	0.18950 0.92680 0.03620 0.10400
H 	H 	0.14420 0.88390 0.05900 -0.01500
C 	C 	0.98610 0.83522 0.99352 0.39200
C 	C 	0.35980 0.98190 0.00585 0.14100
C 	C 	0.99800 0.69730 0.98363 0.25300
H 	H 	0.99760 0.72050 0.94250 -0.04400
C 	C 	0.68110 0.07960 0.12703 -0.24500
C 	C 	0.66310 0.23010 0.04670 0.33800
C 	C 	0.69500 0.99910 0.17093 0.39300
C 	C 	0.99590 0.71070 0.08111 0.17500
H 	H 	0.99590 0.74230 0.10550 -0.01300
C 	C 	0.41280 0.90280 0.21906 0.34300
O 	O 	0.70480 0.22590 0.27632 -0.30000
C 	C 	0.00050 0.58100 0.06882 0.30200
C 	C 	0.60770 0.71410 0.37810 0.11700
H 	H 	0.65950 0.74710 0.37790 -0.02500
C 	C 	0.65470 0.73680 0.12580 -0.20500
C 	C 	0.76520 0.13090 0.09458 0.20500
H 	H 	0.82880 0.11440 0.09940 -0.03700
C 	C 	0.46400 0.97190 0.01104 -0.07700
H 	H 	0.48100 0.92080 0.03200 0.06900
C 	C 	0.58890 0.10450 0.11853 0.19300
H 	H 	0.53280 0.07070 0.14000 -0.02300
C 	C 	0.75340 0.20620 0.05530 -0.35400
H 	H 	0.80920 0.24060 0.03450 0.16100
C 	C 	0.32210 0.04960 0.96964 -0.19900
H 	H 	0.36470 0.09370 0.94570 0.11600
C 	C 	0.57740 0.18020 0.07790 -0.32100
H 	H 	0.51450 0.19690 0.07190 0.14600
C 	C 	0.99890 0.62760 0.10519 -0.28700
H 	H 	0.99980 0.60350 0.14620 0.13400
C 	C 	0.04360 0.32230 0.15830 0.44000
C 	C 	0.61020 0.55990 0.94290 -0.39100
C 	C 	0.56630 0.73020 0.11015 0.14900
H 	H 	0.50820 0.74330 0.13280 -0.00500
C 	C 	0.66210 0.76230 0.17840 0.37400
C 	C 	0.72970 0.35810 0.97450 0.28200
H 	H 	0.77310 0.33700 0.94590 -0.05300
H 	H 	0.76800 0.36640 0.00200 -0.07300
C 	C 	0.28800 0.91870 0.03994 -0.18000
H 	H 	0.30760 0.87130 0.06510 0.09500
C 	C 	0.98460 0.45900 0.15390 0.27100
H 	H 	0.92870 0.47970 0.17630 -0.05200
H 	H 	0.04460 0.46710 0.16700 -0.07100
C 	C 	0.96520 0.37050 0.16532 -0.36800
C 	C 	0.21300 0.09050 0.20800 0.28300
C 	C 	0.57180 0.61470 0.97880 0.25200
H 	H 	0.52110 0.64780 0.96130 -0.03500
H 	H 	0.54190 0.58340 0.02070 -0.04500
C 	C 	0.00350 0.61580 0.00770 -0.40300
H 	H 	0.00930 0.58440 0.98270 0.18600
C 	C 	0.64980 0.68860 0.02530 0.29100
C 	C 	0.74220 0.22440 0.21570 0.25400
H 	H 	0.70310 0.25740 0.18810 -0.06100
H 	H 	0.73950 0.17020 0.21480 -0.05500
C 	C 	0.68830 0.43600 0.94100 -0.40100
C 	C 	0.34230 0.96730 0.21423 -0.15000
C 	C 	0.59930 0.57470 0.88470 0.43200
C 	C 	0.10950 0.18840 0.15690 0.22100
H 	H 	0.08540 0.14800 0.14330 -0.02700
H 	H 	0.16220 0.22110 0.12440 -0.04000
C 	C 	0.24040 0.05300 0.26270 -0.28600
H 	H 	0.21510 0.06820 0.29670 0.15600
C 	C 	0.62620 0.52060 0.85400 -0.38700
C 	C 	0.02480 0.24010 0.17221 -0.39600
C 	C 	0.84930 0.25730 0.19760 -0.39300
C 	C 	0.30770 0.99090 0.26558 0.15100
H 	H 	0.32910 0.96570 0.30140 0.00400
C 	C 	0.49050 0.68640 0.33270 0.12100
H 	H 	0.45980 0.70060 0.29970 -0.00400
C 	C 	0.65810 0.49010 0.97190 0.48900
C 	C 	0.49360 0.88520 0.38140 0.13200
H 	H 	0.44530 0.84920 0.38170 -0.00900
C 	C 	0.58160 0.64120 0.42670 -0.18600
H 	H 	0.61280 0.62890 0.45930 0.11100
C 	C 	0.51320 0.59000 0.42640 0.15700
C 	C 	0.55230 0.96760 0.42900 0.17600
C 	C 	0.67220 0.44950 0.88290 0.45700
C 	C 	0.24650 0.06840 0.15790 -0.26100
H 	H 	0.22560 0.09440 0.12200 0.12500
C 	C 	0.55460 0.65380 0.85180 -0.92200
H 	H 	0.56260 0.69280 0.87070 0.31000
H 	H 	0.48480 0.64450 0.85470 0.29700
H 	H 	0.58880 0.67320 0.80970 0.30700
C 	C 	0.48200 0.51440 0.47550 -0.07700
H 	H 	0.43160 0.48370 0.47160 0.06800
C 	C 	0.74050 0.72400 0.08940 0.16300
H 	H 	0.80180 0.73280 0.09750 -0.00900
C 	C 	0.77920 0.39410 0.18480 -0.94500
H 	H 	0.77800 0.41550 0.21710 0.32100
H 	H 	0.71790 0.36380 0.19270 0.31700
H 	H 	0.78650 0.43720 0.14680 0.30700
C 	C 	0.31250 0.00610 0.16060 0.07800
H 	H 	0.33610 0.99100 0.12630 0.02900
C 	C 	0.92790 0.20760 0.19505 0.51500
C 	C 	0.55910 0.70420 0.06040 -0.27300
H 	H 	0.49770 0.69780 0.05150 0.13400
C 	C 	0.86780 0.33940 0.18140 0.45100
C 	C 	0.73860 0.69800 0.04030 -0.29400
H 	H 	0.79810 0.68710 0.01760 0.13900
C 	C 	0.47680 0.91580 0.42730 -0.20300
H 	H 	0.41760 0.90330 0.45700 0.11000
C 	C 	0.67710 0.47780 0.03370 -1.04900
H 	H 	0.71540 0.52300 0.03250 0.34400
H 	H 	0.71350 0.43020 0.04590 0.34100
H 	H 	0.61440 0.47210 0.06250 0.34100
C 	C 	0.64450 0.95160 0.33780 0.10600
H 	H 	0.70290 0.96330 0.30750 -0.01900
C 	C 	0.46100 0.61350 0.37900 -0.18400
H 	H 	0.40870 0.58150 0.37860 0.10000
C 	C 	0.54290 0.17100 0.27740 -0.30600
H 	H 	0.56270 0.16920 0.23790 0.13500
C 	C 	0.15170 0.35570 0.13880 -0.96500
H 	H 	0.15490 0.40990 0.11170 0.32400
H 	H 	0.19270 0.32370 0.11810 0.33300
H 	H 	0.17560 0.35430 0.17410 0.32100
C 	C 	0.90970 0.11730 0.21590 -1.06300
H 	H 	0.92020 0.10000 0.18100 0.37000
H 	H 	0.84210 0.10320 0.23890 0.35600
H 	H 	0.95520 0.09180 0.24110 0.36500
C 	C 	0.57660 0.21140 0.35910 -0.25900
H 	H 	0.61980 0.23500 0.37440 0.12400
C 	C 	0.63410 0.98580 0.38380 -0.17600
H 	H 	0.68380 0.02100 0.38290 0.08600
C 	C 	0.70360 0.38680 0.85260 -0.99100
H 	H 	0.77520 0.38610 0.84290 0.32700
H 	H 	0.67890 0.39940 0.81600 0.33700
H 	H 	0.67640 0.33510 0.88000 0.33300
C 	C 	0.45070 0.14360 0.31130 0.15800
H 	H 	0.40960 0.11700 0.29680 -0.01000
C 	C 	0.54190 0.00450 0.47740 -0.15600
H 	H 	0.59570 0.03560 0.47700 0.08400
C 	C 	0.60670 0.20150 0.30230 0.29200
C 	C 	0.47720 0.18420 0.39310 0.13000
H 	H 	0.45590 0.18720 0.43210 -0.00100
C 	C 	0.41510 0.15460 0.36870 -0.18100
O 	O 	0.26770 0.06530 0.39350 -0.46500
H 	H 	0.22700 0.03760 0.42340 0.26100
O 	O 	0.29440 0.13650 0.45850 -0.25100
C 	C 	0.32160 0.11280 0.41010 0.33200
O 	O 	0.52390 0.49640 0.79660 -0.29400
C 	C 	0.61860 0.53410 0.79190 0.26400
H 	H 	0.67320 0.51030 0.77120 -0.06000
H 	H 	0.62020 0.59090 0.76960 -0.06000
C 	C 	0.40040 0.48430 0.74590 -0.24500
H 	H 	0.36760 0.44580 0.78190 0.12700
C 	C 	0.35590 0.50960 0.69600 0.10200
H 	H 	0.29340 0.48800 0.69850 0.00900
C 	C 	0.40490 0.56720 0.64230 -0.13000
C 	C 	0.49830 0.59940 0.63860 0.09800
H 	H 	0.53110 0.63790 0.60260 0.00600
C 	C 	0.54280 0.57410 0.68850 -0.24500
H 	H 	0.60530 0.59570 0.68590 0.11900
C 	C 	0.49380 0.51650 0.74220 0.26000
O 	O 	0.28420 0.55830 0.59230 -0.22100
O 	O 	0.41760 0.67300 0.54220 -0.41100
H 	H 	0.42260 0.70860 0.55640 0.23900
C 	C 	0.35850 0.60810 0.58720 0.27500
Ni	Ni	0.40721 0.15025 0.73224 1.09200
O 	O 	0.00893 0.12327 0.97462 -0.41900
O 	O 	0.38550 0.03967 0.79667 -0.39800
O 	O 	0.55990 0.13115 0.73336 -0.38200
O 	O 	0.40700 0.20052 0.80008 -0.38200
N 	N 	0.84390 0.00684 0.99839 -0.24600
O 	O 	0.35490 0.69654 0.99170 -0.29200
N 	N 	0.44000 0.26366 0.66685 -0.24900
O 	O 	0.55170 0.11432 0.83164 -0.24200
O 	O 	0.02290 0.13795 0.06261 -0.30100
O 	O 	0.00330 0.50081 0.91023 -0.31700
O 	O 	0.21930 0.02547 0.82576 -0.31200
O 	O 	0.34640 0.33620 0.02297 -0.32200
N 	N 	0.42610 0.09747 0.66445 -0.24700
O 	O 	0.85210 0.84951 0.78860 -0.28400
C 	C 	0.77700 0.94830 0.03099 0.13200
H 	H 	0.79910 0.90200 0.05630 -0.01200
C 	C 	0.00700 0.25437 0.98070 -0.13100
O 	O 	0.26380 0.25670 0.79860 -0.29800
C 	C 	0.81050 0.07320 0.96380 0.10200
H 	H 	0.85580 0.11610 0.94100 -0.00400
C 	C 	0.01390 0.16478 0.00648 0.31700
C 	C 	0.64020 0.01810 0.99415 0.13400
C 	C 	0.00200 0.30270 0.01637 0.04200
H 	H 	0.00240 0.27950 0.05750 0.01600
C 	C 	0.31890 0.92040 0.87297 -0.18600
C 	C 	0.33690 0.76990 0.95330 0.30700
C 	C 	0.30500 0.00090 0.82907 0.35300
C 	C 	0.00410 0.28930 0.91889 0.11200
H 	H 	0.00410 0.25770 0.89450 0.00000
C 	C 	0.58720 0.09720 0.78094 0.36800
O 	O 	0.29520 0.77410 0.72368 -0.29700
C 	C 	0.99950 0.41900 0.93118 0.29900
C 	C 	0.39230 0.28590 0.62190 0.11700
H 	H 	0.34050 0.25290 0.62210 -0.02900
C 	C 	0.34530 0.26320 0.87420 -0.21500
C 	C 	0.23480 0.86910 0.90542 0.16600
H 	H 	0.17120 0.88560 0.90060 -0.02400
C 	C 	0.53600 0.02810 0.98896 -0.09400
H 	H 	0.51900 0.07920 0.96800 0.07500
C 	C 	0.41110 0.89550 0.88147 0.15400
H 	H 	0.46720 0.92930 0.86000 0.00100
C 	C 	0.24660 0.79380 0.94470 -0.31500
H 	H 	0.19080 0.75940 0.96550 0.14300
C 	C 	0.67790 0.95040 0.03036 -0.18700
H 	H 	0.63530 0.90630 0.05430 0.11300
C 	C 	0.42260 0.81980 0.92210 -0.28400
H 	H 	0.48550 0.80310 0.92810 0.13700
C 	C 	0.00110 0.37240 0.89481 -0.28500
H 	H 	0.00020 0.39650 0.85380 0.12200
C 	C 	0.95640 0.67770 0.84170 0.46800
C 	C 	0.38980 0.44010 0.05710 -0.34700
C 	C 	0.43370 0.26980 0.88985 0.16100
H 	H 	0.49180 0.25670 0.86720 -0.00800
C 	C 	0.33790 0.23770 0.82160 0.37800
C 	C 	0.27030 0.64190 0.02550 0.18800
H 	H 	0.22690 0.66300 0.05410 -0.03300
H 	H 	0.23200 0.63360 0.99800 -0.03400
C 	C 	0.71200 0.08130 0.96006 -0.17600
H 	H 	0.69240 0.12870 0.93490 0.09600
C 	C 	0.01540 0.54100 0.84610 0.20400
H 	H 	0.07130 0.52030 0.82370 -0.03600
H 	H 	0.95540 0.53290 0.83300 -0.02400
C 	C 	0.03480 0.62950 0.83468 -0.38800
C 	C 	0.78700 0.90950 0.79200 0.31200
C 	C 	0.42820 0.38530 0.02120 0.19300
H 	H 	0.47890 0.35220 0.03870 -0.02100
H 	H 	0.45810 0.41660 0.97930 -0.01600
C 	C 	0.99650 0.38420 0.99230 -0.21100
H 	H 	0.99070 0.41560 0.01730 0.12000
C 	C 	0.35020 0.31140 0.97470 0.31700
C 	C 	0.25780 0.77560 0.78430 0.23800
H 	H 	0.29690 0.74260 0.81190 -0.05600
H 	H 	0.26050 0.82980 0.78520 -0.04700
C 	C 	0.31170 0.56400 0.05900 -0.34800
C 	C 	0.65770 0.03270 0.78577 -0.22600
C 	C 	0.40070 0.42530 0.11530 0.39900
C 	C 	0.89050 0.81160 0.84310 0.19800
H 	H 	0.91460 0.85200 0.85670 -0.00900
H 	H 	0.83780 0.77890 0.87560 -0.03200
C 	C 	0.75960 0.94700 0.73730 -0.27100
H 	H 	0.78490 0.93180 0.70330 0.16100
C 	C 	0.37380 0.47940 0.14600 -0.35900
C 	C 	0.97520 0.75990 0.82779 -0.34100
C 	C 	0.15070 0.74270 0.80240 -0.37000
C 	C 	0.69230 0.00910 0.73442 0.14800
H 	H 	0.67090 0.03430 0.69860 -0.00200
C 	C 	0.50950 0.31360 0.66730 0.12200
H 	H 	0.54020 0.29940 0.70030 -0.00300
C 	C 	0.34190 0.50990 0.02810 0.41700
C 	C 	0.50640 0.11480 0.61860 0.11400
H 	H 	0.55470 0.15080 0.61830 -0.00300
C 	C 	0.41840 0.35880 0.57330 -0.18800
H 	H 	0.38720 0.37110 0.54070 0.11000
C 	C 	0.48680 0.41000 0.57360 0.15900
C 	C 	0.44770 0.03240 0.57100 0.11700
C 	C 	0.32780 0.55050 0.11710 0.41700
C 	C 	0.75350 0.93160 0.84210 -0.32700
H 	H 	0.77440 0.90560 0.87800 0.15600
C 	C 	0.44540 0.34620 0.14820 -0.88800
H 	H 	0.43740 0.30720 0.12930 0.29900
H 	H 	0.51520 0.35550 0.14530 0.28600
H 	H 	0.41120 0.32680 0.19030 0.29600
C 	C 	0.51800 0.48560 0.52450 -0.08000
H 	H 	0.56840 0.51630 0.52840 0.07000
C 	C 	0.25950 0.27600 0.91060 0.17600
H 	H 	0.19820 0.26720 0.90250 -0.01400
C 	C 	0.22080 0.60590 0.81520 -0.93300
H 	H 	0.22200 0.58450 0.78290 0.31600
H 	H 	0.28210 0.63620 0.80730 0.31300
H 	H 	0.21350 0.56280 0.85320 0.30400
C 	C 	0.68750 0.99390 0.83940 0.22400
H 	H 	0.66390 0.00900 0.87370 -0.03900
C 	C 	0.07210 0.79240 0.80495 0.44800
C 	C 	0.44090 0.29580 0.93960 -0.28700
H 	H 	0.50230 0.30220 0.94850 0.14300
C 	C 	0.13220 0.66060 0.81860 0.44000
C 	C 	0.26140 0.30200 0.95970 -0.31000
H 	H 	0.20190 0.31290 0.98240 0.14900
C 	C 	0.52320 0.08420 0.57270 -0.17300
H 	H 	0.58240 0.09670 0.54300 0.09300
C 	C 	0.32290 0.52220 0.96630 -0.94100
H 	H 	0.28460 0.47700 0.96750 0.31500
H 	H 	0.28650 0.56980 0.95410 0.30900
H 	H 	0.38560 0.52790 0.93750 0.31000
C 	C 	0.35550 0.04840 0.66220 0.11400
H 	H 	0.29710 0.03670 0.69250 -0.03200
C 	C 	0.53900 0.38650 0.62100 -0.18500
H 	H 	0.59130 0.41850 0.62140 0.10300
C 	C 	0.45710 0.82900 0.72260 -0.30100
H 	H 	0.43730 0.83080 0.76210 0.13600
C 	C 	0.84830 0.64430 0.86120 -0.99200
H 	H 	0.84510 0.59010 0.88830 0.33900
H 	H 	0.80730 0.67630 0.88190 0.34200
H 	H 	0.82440 0.64570 0.82590 0.33200
C 	C 	0.09030 0.88270 0.78410 -0.99800
H 	H 	0.07980 0.90000 0.81900 0.34600
H 	H 	0.15790 0.89680 0.76110 0.34000
H 	H 	0.04480 0.90820 0.75890 0.33800
C 	C 	0.42340 0.78860 0.64090 -0.25500
H 	H 	0.38020 0.76500 0.62560 0.12300
C 	C 	0.36590 0.01420 0.61620 -0.20900
H 	H 	0.31620 0.97900 0.61710 0.11600
C 	C 	0.29640 0.61320 0.14740 -0.93800
H 	H 	0.22480 0.61390 0.15710 0.30400
H 	H 	0.32110 0.60060 0.18400 0.31900
H 	H 	0.32360 0.66490 0.12000 0.31500
C 	C 	0.54930 0.85640 0.68870 0.15900
H 	H 	0.59040 0.88300 0.70320 -0.00400
C 	C 	0.45810 0.99550 0.52260 -0.02200
H 	H 	0.40430 0.96440 0.52300 0.04500
C 	C 	0.39330 0.79850 0.69770 0.29000
C 	C 	0.52280 0.81580 0.60690 0.12900
H 	H 	0.54410 0.81280 0.56790 0.00100
C 	C 	0.58490 0.84540 0.63130 -0.17700
O 	O 	0.73230 0.93470 0.60650 -0.46000
H 	H 	0.77300 0.96240 0.57660 0.27300
O 	O 	0.70560 0.86350 0.54150 -0.24200
C 	C 	0.67840 0.88720 0.58990 0.33700
O 	O 	0.47610 0.50360 0.20340 -0.29100
C 	C 	0.38140 0.46590 0.20810 0.24700
H 	H 	0.32680 0.48970 0.22880 -0.05600
H 	H 	0.37980 0.40910 0.23040 -0.05600
C 	C 	0.59960 0.51570 0.25410 -0.24200
H 	H 	0.63240 0.55420 0.21810 0.12600
C 	C 	0.64410 0.49040 0.30400 0.10000
H 	H 	0.70660 0.51200 0.30150 0.01200
C 	C 	0.59510 0.43280 0.35770 -0.12800
C 	C 	0.50170 0.40060 0.36140 0.09600
H 	H 	0.46890 0.36210 0.39740 0.00600
C 	C 	0.45720 0.42590 0.31150 -0.24200
H 	H 	0.39470 0.40430 0.31410 0.11600
C 	C 	0.50620 0.48350 0.25780 0.25700
O 	O 	0.71580 0.44170 0.40770 -0.21500
O 	O 	0.58240 0.32700 0.45780 -0.41000
H 	H 	0.57740 0.29140 0.44360 0.23800
C 	C 	0.64150 0.39190 0.41280 0.27500
Ni	Ni	-0.00000 0.00000 -0.00000 1.03800
