data_crystal

_cell_length_a 11.21000
_cell_length_b 12.38300
_cell_length_c 13.69600
_cell_angle_alpha 90.00000
_cell_angle_beta  93.01000
_cell_angle_gamma 90.00000

_symmetry_space_group_name_	'P 1'
_symmetry_space_group_name_H-M	'P 1'

loop_
_symmetry_equiv_pos_as_xyz
  x,y,z

loop_
_atom_site_label
_atom_site_type_symbol
_atom_site_fract_x
_atom_site_fract_y
_atom_site_fract_z
_atom_site_charge
C 	C 	0.04940 0.95160 0.17430 0.44200
C 	C 	0.31800 0.86650 0.06250 0.56400
C 	C 	0.41340 0.92080 0.13020 -0.23100
C 	C 	0.44580 0.03830 0.10860 0.44600
Nd	Nd	0.15371 0.10204 0.03351 2.05000
O 	O 	0.14040 0.00780 0.19900 -0.49200
O 	O 	0.99970 0.95950 0.08980 -0.64100
O 	O 	0.23540 0.91880 0.02540 -0.55300
O 	O 	0.33840 0.76780 0.04990 -0.59300
O 	O 	0.36100 0.10330 0.08910 -0.54100
O 	O 	0.55020 0.06560 0.12150 -0.34700
C 	C 	0.54940 0.45160 0.67430 0.42800
C 	C 	0.81800 0.36650 0.56250 0.56800
C 	C 	0.91340 0.42080 0.63020 -0.24700
C 	C 	0.94580 0.53830 0.60860 0.44100
Nd	Nd	0.65371 0.60204 0.53351 2.08200
O 	O 	0.64040 0.50780 0.69900 -0.48600
O 	O 	0.49970 0.45950 0.58980 -0.64300
O 	O 	0.73540 0.41880 0.52540 -0.56500
O 	O 	0.83840 0.26780 0.54990 -0.59900
O 	O 	0.86100 0.60330 0.58910 -0.54300
O 	O 	0.05020 0.56560 0.62150 -0.33300
C 	C 	0.95060 0.95160 0.32570 0.41200
C 	C 	0.68200 0.86650 0.43750 0.56700
C 	C 	0.58660 0.92080 0.36980 -0.24000
C 	C 	0.55420 0.03830 0.39140 0.45600
Nd	Nd	0.84629 0.10204 0.46649 2.07200
O 	O 	0.85960 0.00780 0.30100 -0.48800
O 	O 	0.00030 0.95950 0.41020 -0.62900
O 	O 	0.76460 0.91880 0.47460 -0.56600
O 	O 	0.66160 0.76780 0.45010 -0.59800
O 	O 	0.63900 0.10330 0.41090 -0.54300
O 	O 	0.44980 0.06560 0.37850 -0.34700
C 	C 	0.45060 0.45160 0.82570 0.42800
C 	C 	0.18200 0.36650 0.93750 0.56700
C 	C 	0.08660 0.42080 0.86980 -0.24100
C 	C 	0.05420 0.53830 0.89140 0.48400
Nd	Nd	0.34629 0.60204 0.96649 2.08500
O 	O 	0.35960 0.50780 0.80100 -0.48500
O 	O 	0.50030 0.45950 0.91020 -0.64200
O 	O 	0.26460 0.41880 0.97460 -0.56200
O 	O 	0.16160 0.26780 0.95010 -0.58500
O 	O 	0.13900 0.60330 0.91090 -0.54700
O 	O 	0.94980 0.56560 0.87850 -0.36800
C 	C 	0.95060 0.04840 0.82570 0.39700
C 	C 	0.68200 0.13350 0.93750 0.56400
C 	C 	0.58660 0.07920 0.86980 -0.23000
C 	C 	0.55420 0.96170 0.89140 0.44600
Nd	Nd	0.84629 0.89796 0.96649 2.02800
O 	O 	0.85960 0.99220 0.80100 -0.48500
O 	O 	0.00030 0.04050 0.91020 -0.60600
O 	O 	0.76460 0.08120 0.97460 -0.55500
O 	O 	0.66160 0.23220 0.95010 -0.59400
O 	O 	0.63900 0.89670 0.91090 -0.53900
O 	O 	0.44980 0.93440 0.87850 -0.34700
C 	C 	0.45060 0.54840 0.32570 0.42800
C 	C 	0.18200 0.63350 0.43750 0.57000
C 	C 	0.08660 0.57920 0.36980 -0.24400
C 	C 	0.05420 0.46170 0.39140 0.47600
Nd	Nd	0.34629 0.39796 0.46649 2.08800
O 	O 	0.35960 0.49220 0.30100 -0.48600
O 	O 	0.50030 0.54050 0.41020 -0.64300
O 	O 	0.26460 0.58120 0.47460 -0.56600
O 	O 	0.16160 0.73220 0.45010 -0.59800
O 	O 	0.13900 0.39670 0.41090 -0.54600
O 	O 	0.94980 0.43440 0.37850 -0.36000
C 	C 	0.04940 0.04840 0.67430 0.45000
C 	C 	0.31800 0.13350 0.56250 0.56800
C 	C 	0.41340 0.07920 0.63020 -0.24000
C 	C 	0.44580 0.96170 0.60860 0.45700
Nd	Nd	0.15371 0.89796 0.53351 2.09500
O 	O 	0.14040 0.99220 0.69900 -0.49400
O 	O 	0.99970 0.04050 0.58980 -0.66200
O 	O 	0.23540 0.08120 0.52540 -0.56400
O 	O 	0.33840 0.23220 0.54990 -0.59700
O 	O 	0.36100 0.89670 0.58910 -0.54500
O 	O 	0.55020 0.93440 0.62150 -0.34800
C 	C 	0.54940 0.54840 0.17430 0.42800
C 	C 	0.81800 0.63350 0.06250 0.56500
C 	C 	0.91340 0.57920 0.13020 -0.24400
C 	C 	0.94580 0.46170 0.10860 0.44900
Nd	Nd	0.65371 0.39796 0.03351 2.07900
O 	O 	0.64040 0.49220 0.19900 -0.48500
O 	O 	0.49970 0.54050 0.08980 -0.64200
O 	O 	0.73540 0.58120 0.02540 -0.56100
O 	O 	0.83840 0.73220 0.04990 -0.58600
O 	O 	0.86100 0.39670 0.08910 -0.54400
O 	O 	0.05020 0.43440 0.12150 -0.34000
C 	C 	0.00000 0.87620 0.25000 -0.21500
C 	C 	0.50000 0.37620 0.75000 -0.22600
C 	C 	0.00000 0.12380 0.75000 -0.20700
C 	C 	0.50000 0.62380 0.25000 -0.22600
