data_crystal

_cell_length_a 6.44200
_cell_length_b 8.91000
_cell_length_c 24.41600
_cell_angle_alpha 90.00000
_cell_angle_beta  97.29100
_cell_angle_gamma 90.00000

_symmetry_space_group_name_	'P 1'
_symmetry_space_group_name_H-M	'P 1'

loop_
_symmetry_equiv_pos_as_xyz
  x,y,z

loop_
_atom_site_label
_atom_site_type_symbol
_atom_site_fract_x
_atom_site_fract_y
_atom_site_fract_z
_atom_site_charge
Ag	Ag	0.22426 0.50257 0.69422 0.54600
Ag	Ag	0.77574 0.00257 0.80578 0.54500
Ag	Ag	0.77574 0.49743 0.30578 0.54600
Ag	Ag	0.22426 0.99743 0.19422 0.54500
H 	H 	0.57700 0.70130 0.76350 0.03000
H 	H 	0.42930 0.81020 0.72620 0.02200
H 	H 	0.74550 0.49360 0.72200 0.03000
H 	H 	0.70560 0.46880 0.65790 0.04200
H 	H 	0.53800 0.19390 0.49440 0.05200
H 	H 	0.36890 0.77410 0.62780 0.03600
H 	H 	0.47750 0.64140 0.60020 0.03600
H 	H 	0.63710 0.01690 0.43570 0.07900
H 	H 	0.84780 0.64820 0.59600 0.04000
H 	H 	0.98050 0.78520 0.62100 0.04300
H 	H 	0.95310 0.70720 0.75910 0.03700
H 	H 	0.04270 0.82040 0.71890 0.02800
H 	H 	0.76030 0.26420 0.57370 0.05600
H 	H 	0.81860 0.98540 0.66250 0.05600
H 	H 	0.57640 0.98540 0.66480 0.05600
H 	H 	0.42300 0.20130 0.73650 0.03000
H 	H 	0.57070 0.31020 0.77380 0.02100
H 	H 	0.25450 0.99360 0.77800 0.03000
H 	H 	0.29440 0.96880 0.84210 0.04300
H 	H 	0.46200 0.69390 0.00560 0.05200
H 	H 	0.63110 0.27410 0.87220 0.03600
H 	H 	0.52250 0.14140 0.89980 0.03500
H 	H 	0.36290 0.51690 0.06430 0.07800
H 	H 	0.15220 0.14820 0.90400 0.04000
H 	H 	0.01950 0.28520 0.87900 0.04200
H 	H 	0.04690 0.20720 0.74090 0.03800
H 	H 	0.95730 0.32040 0.78110 0.02900
H 	H 	0.23970 0.76420 0.92630 0.05600
H 	H 	0.18140 0.48540 0.83750 0.05500
H 	H 	0.42360 0.48540 0.83520 0.05500
H 	H 	0.42300 0.29870 0.23650 0.03000
H 	H 	0.57070 0.18980 0.27380 0.02200
H 	H 	0.25450 0.50640 0.27800 0.03000
H 	H 	0.29440 0.53120 0.34210 0.04200
H 	H 	0.46200 0.80610 0.50560 0.05200
H 	H 	0.63110 0.22590 0.37220 0.03600
H 	H 	0.52250 0.35860 0.39980 0.03600
H 	H 	0.36290 0.98310 0.56430 0.07900
H 	H 	0.15220 0.35180 0.40400 0.04000
H 	H 	0.01950 0.21480 0.37900 0.04300
H 	H 	0.04690 0.29280 0.24090 0.03700
H 	H 	0.95730 0.17960 0.28110 0.02800
H 	H 	0.23970 0.73580 0.42630 0.05600
H 	H 	0.18140 0.01460 0.33750 0.05600
H 	H 	0.42360 0.01460 0.33520 0.05600
H 	H 	0.57700 0.79870 0.26350 0.03000
H 	H 	0.42930 0.68980 0.22620 0.02100
H 	H 	0.74550 0.00640 0.22200 0.03000
H 	H 	0.70560 0.03120 0.15790 0.04300
H 	H 	0.53800 0.30610 0.99440 0.05200
H 	H 	0.36890 0.72590 0.12780 0.03600
H 	H 	0.47750 0.85860 0.10020 0.03500
H 	H 	0.63710 0.48310 0.93570 0.07800
H 	H 	0.84780 0.85180 0.09600 0.04000
H 	H 	0.98050 0.71480 0.12100 0.04200
H 	H 	0.95310 0.79280 0.25910 0.03800
H 	H 	0.04270 0.67960 0.21890 0.02900
H 	H 	0.76030 0.23580 0.07370 0.05600
H 	H 	0.81860 0.51460 0.16250 0.05500
H 	H 	0.57640 0.51460 0.16480 0.05500
C 	C 	0.55560 0.75020 0.72780 -0.01400
C 	C 	0.99590 0.13160 0.56010 -0.09100
C 	C 	0.72140 0.54460 0.68660 -0.01600
C 	C 	0.66950 0.14990 0.50170 -0.02900
C 	C 	0.49560 0.71440 0.62990 -0.01500
C 	C 	0.72940 0.04500 0.46640 -0.08200
C 	C 	0.86240 0.72100 0.62580 -0.01400
C 	C 	0.93050 0.97770 0.47560 0.04500
C 	C 	0.92470 0.75590 0.72340 -0.01900
C 	C 	0.80420 0.19340 0.54960 -0.01100
C 	C 	0.69960 0.92200 0.66700 -0.02600
C 	C 	0.44440 0.25020 0.77220 -0.01400
C 	C 	0.00410 0.63160 0.93990 -0.08700
C 	C 	0.27860 0.04460 0.81340 -0.01700
C 	C 	0.33050 0.64990 0.99830 -0.02900
C 	C 	0.50440 0.21440 0.87010 -0.01500
C 	C 	0.27060 0.54500 0.03360 -0.07900
C 	C 	0.13760 0.22100 0.87420 -0.01400
C 	C 	0.06950 0.47770 0.02440 0.04100
C 	C 	0.07530 0.25590 0.77660 -0.02000
C 	C 	0.19580 0.69340 0.95040 -0.01200
C 	C 	0.30040 0.42200 0.83300 -0.02600
C 	C 	0.44440 0.24980 0.27220 -0.01400
C 	C 	0.00410 0.86840 0.43990 -0.09100
C 	C 	0.27860 0.45540 0.31340 -0.01600
C 	C 	0.33050 0.85010 0.49830 -0.02900
C 	C 	0.50440 0.28560 0.37010 -0.01500
C 	C 	0.27060 0.95500 0.53360 -0.08200
C 	C 	0.13760 0.27900 0.37420 -0.01400
C 	C 	0.06950 0.02230 0.52440 0.04500
C 	C 	0.07530 0.24410 0.27660 -0.01900
C 	C 	0.19580 0.80660 0.45040 -0.01100
C 	C 	0.30040 0.07800 0.33300 -0.02600
C 	C 	0.55560 0.74980 0.22780 -0.01400
C 	C 	0.99590 0.36840 0.06010 -0.08700
C 	C 	0.72140 0.95540 0.18660 -0.01700
C 	C 	0.66950 0.35010 0.00170 -0.02900
C 	C 	0.49560 0.78560 0.12990 -0.01500
C 	C 	0.72940 0.45500 0.96640 -0.07900
C 	C 	0.86240 0.77900 0.12580 -0.01400
C 	C 	0.93050 0.52230 0.97560 0.04100
C 	C 	0.92470 0.74410 0.22340 -0.02000
C 	C 	0.80420 0.30660 0.04960 -0.01200
C 	C 	0.69960 0.57800 0.16700 -0.02600
S 	S 	0.15810 0.18750 0.62145 0.48100
S 	S 	0.84190 0.68750 0.87855 0.47900
S 	S 	0.84190 0.81250 0.37855 0.48100
S 	S 	0.15810 0.31250 0.12145 0.47900
N 	N 	0.52660 0.63410 0.68390 -0.14400
N 	N 	0.73370 0.84900 0.72240 -0.13200
N 	N 	0.90450 0.64080 0.67970 -0.13600
N 	N 	0.67210 0.81220 0.62260 -0.09200
N 	N 	0.47340 0.13410 0.81610 -0.14400
N 	N 	0.26630 0.34900 0.77760 -0.13200
N 	N 	0.09550 0.14080 0.82030 -0.13600
N 	N 	0.32790 0.31220 0.87740 -0.09200
N 	N 	0.47340 0.36590 0.31610 -0.14400
N 	N 	0.26630 0.15100 0.27760 -0.13200
N 	N 	0.09550 0.35920 0.32030 -0.13600
N 	N 	0.32790 0.18780 0.37740 -0.09200
N 	N 	0.52660 0.86590 0.18390 -0.14400
N 	N 	0.73370 0.65100 0.22240 -0.13200
N 	N 	0.90450 0.85920 0.17970 -0.13600
N 	N 	0.67210 0.68780 0.12260 -0.09200
O 	O 	0.03430 0.29850 0.64680 -0.32600
O 	O 	0.19850 0.05500 0.65560 -0.28100
O 	O 	0.34770 0.25180 0.60510 -0.28500
O 	O 	0.96570 0.79850 0.85320 -0.32500
O 	O 	0.80150 0.55500 0.84440 -0.28100
O 	O 	0.65230 0.75180 0.89490 -0.28400
O 	O 	0.96570 0.70150 0.35320 -0.32600
O 	O 	0.80150 0.94500 0.34440 -0.28100
O 	O 	0.65230 0.74820 0.39490 -0.28500
O 	O 	0.03430 0.20150 0.14680 -0.32500
O 	O 	0.19850 0.44500 0.15560 -0.28100
O 	O 	0.34770 0.24820 0.10510 -0.28400
