data_crystal

_cell_length_a 18.79400
_cell_length_b 18.79400
_cell_length_c 18.79400
_cell_angle_alpha 90.00000
_cell_angle_beta  90.00000
_cell_angle_gamma 90.00000

_symmetry_space_group_name_	'P 1'
_symmetry_space_group_name_H-M	'P 1'

loop_
_symmetry_equiv_pos_as_xyz
  x,y,z

loop_
_atom_site_label
_atom_site_type_symbol
_atom_site_fract_x
_atom_site_fract_y
_atom_site_fract_z
_atom_site_charge
N 	N 	0.07569 0.42227 0.37154 -0.20200
N 	N 	0.12670 0.40570 0.33010 0.07400
C 	C 	0.13710 0.41810 0.32830 -0.23600
H 	H 	0.15340 0.44950 0.29210 0.06900
N 	N 	0.92431 0.57773 0.37154 -0.15500
N 	N 	0.87330 0.59430 0.33010 0.07700
C 	C 	0.86290 0.58190 0.32830 -0.22500
H 	H 	0.84660 0.55050 0.29210 0.08400
N 	N 	0.92431 0.42227 0.62846 -0.15300
N 	N 	0.87330 0.40570 0.66990 0.07700
C 	C 	0.86290 0.41810 0.67170 -0.22200
H 	H 	0.84660 0.44950 0.70790 0.09000
N 	N 	0.07569 0.57773 0.62846 -0.19700
N 	N 	0.12670 0.59430 0.66990 0.07500
C 	C 	0.13710 0.58190 0.67170 -0.23000
H 	H 	0.15340 0.55050 0.70790 0.07600
N 	N 	0.37154 0.07569 0.42227 -0.20200
N 	N 	0.33010 0.12670 0.40570 0.07400
C 	C 	0.32830 0.13710 0.41810 -0.23600
H 	H 	0.29210 0.15340 0.44950 0.06900
N 	N 	0.37154 0.92431 0.57773 -0.15500
N 	N 	0.33010 0.87330 0.59430 0.07700
C 	C 	0.32830 0.86290 0.58190 -0.22500
H 	H 	0.29210 0.84660 0.55050 0.08400
N 	N 	0.62846 0.92431 0.42227 -0.15300
N 	N 	0.66990 0.87330 0.40570 0.07700
C 	C 	0.67170 0.86290 0.41810 -0.22200
H 	H 	0.70790 0.84660 0.44950 0.09000
N 	N 	0.62846 0.07569 0.57773 -0.19700
N 	N 	0.66990 0.12670 0.59430 0.07500
C 	C 	0.67170 0.13710 0.58190 -0.23000
H 	H 	0.70790 0.15340 0.55050 0.07600
N 	N 	0.42227 0.37154 0.07569 -0.20200
N 	N 	0.40570 0.33010 0.12670 0.07400
C 	C 	0.41810 0.32830 0.13710 -0.23600
H 	H 	0.44950 0.29210 0.15340 0.06900
N 	N 	0.57773 0.37154 0.92431 -0.15500
N 	N 	0.59430 0.33010 0.87330 0.07700
C 	C 	0.58190 0.32830 0.86290 -0.22500
H 	H 	0.55050 0.29210 0.84660 0.08400
N 	N 	0.42227 0.62846 0.92431 -0.15300
N 	N 	0.40570 0.66990 0.87330 0.07700
C 	C 	0.41810 0.67170 0.86290 -0.22200
H 	H 	0.44950 0.70790 0.84660 0.09000
N 	N 	0.57773 0.62846 0.07569 -0.19700
N 	N 	0.59430 0.66990 0.12670 0.07500
C 	C 	0.58190 0.67170 0.13710 -0.23000
H 	H 	0.55050 0.70790 0.15340 0.07600
N 	N 	0.42227 0.07569 0.62846 -0.19900
N 	N 	0.40570 0.12670 0.66990 0.07500
C 	C 	0.41810 0.13710 0.67170 -0.23200
H 	H 	0.44950 0.15340 0.70790 0.07600
N 	N 	0.57773 0.92431 0.62846 -0.15200
N 	N 	0.59430 0.87330 0.66990 0.07700
C 	C 	0.58190 0.86290 0.67170 -0.22000
H 	H 	0.55050 0.84660 0.70790 0.09100
N 	N 	0.42227 0.92431 0.37154 -0.15700
N 	N 	0.40570 0.87330 0.33010 0.07700
C 	C 	0.41810 0.86290 0.32830 -0.22700
H 	H 	0.44950 0.84660 0.29210 0.08300
N 	N 	0.57773 0.07569 0.37154 -0.20100
N 	N 	0.59430 0.12670 0.33010 0.07500
C 	C 	0.58190 0.13710 0.32830 -0.23400
H 	H 	0.55050 0.15340 0.29210 0.06900
N 	N 	0.07569 0.37154 0.57773 -0.20100
N 	N 	0.12670 0.33010 0.59430 0.07500
C 	C 	0.13710 0.32830 0.58190 -0.23400
H 	H 	0.15340 0.29210 0.55050 0.06900
N 	N 	0.92431 0.37154 0.42227 -0.15700
N 	N 	0.87330 0.33010 0.40570 0.07700
C 	C 	0.86290 0.32830 0.41810 -0.22700
H 	H 	0.84660 0.29210 0.44950 0.08300
N 	N 	0.92431 0.62846 0.57773 -0.15200
N 	N 	0.87330 0.66990 0.59430 0.07700
C 	C 	0.86290 0.67170 0.58190 -0.22000
H 	H 	0.84660 0.70790 0.55050 0.09100
N 	N 	0.07569 0.62846 0.42227 -0.19900
N 	N 	0.12670 0.66990 0.40570 0.07500
C 	C 	0.13710 0.67170 0.41810 -0.23200
H 	H 	0.15340 0.70790 0.44950 0.07600
N 	N 	0.37154 0.42227 0.92431 -0.15700
N 	N 	0.33010 0.40570 0.87330 0.07700
C 	C 	0.32830 0.41810 0.86290 -0.22700
H 	H 	0.29210 0.44950 0.84660 0.08300
N 	N 	0.37154 0.57773 0.07569 -0.20100
N 	N 	0.33010 0.59430 0.12670 0.07500
C 	C 	0.32830 0.58190 0.13710 -0.23400
H 	H 	0.29210 0.55050 0.15340 0.06900
N 	N 	0.62846 0.42227 0.07569 -0.19900
N 	N 	0.66990 0.40570 0.12670 0.07500
C 	C 	0.67170 0.41810 0.13710 -0.23200
H 	H 	0.70790 0.44950 0.15340 0.07600
N 	N 	0.62846 0.57773 0.92431 -0.15200
N 	N 	0.66990 0.59430 0.87330 0.07700
C 	C 	0.67170 0.58190 0.86290 -0.22000
H 	H 	0.70790 0.55050 0.84660 0.09100
N 	N 	0.92431 0.57773 0.62846 -0.15200
N 	N 	0.87330 0.59430 0.66990 0.07700
C 	C 	0.86290 0.58190 0.67170 -0.22000
H 	H 	0.84660 0.55050 0.70790 0.09100
N 	N 	0.07569 0.42227 0.62846 -0.19900
N 	N 	0.12670 0.40570 0.66990 0.07500
C 	C 	0.13710 0.41810 0.67170 -0.23200
H 	H 	0.15340 0.44950 0.70790 0.07600
N 	N 	0.07569 0.57773 0.37154 -0.20100
N 	N 	0.12670 0.59430 0.33010 0.07500
C 	C 	0.13710 0.58190 0.32830 -0.23400
H 	H 	0.15340 0.55050 0.29210 0.06900
N 	N 	0.92431 0.42227 0.37154 -0.15700
N 	N 	0.87330 0.40570 0.33010 0.07700
C 	C 	0.86290 0.41810 0.32830 -0.22700
H 	H 	0.84660 0.44950 0.29210 0.08300
N 	N 	0.62846 0.92431 0.57773 -0.15200
N 	N 	0.66990 0.87330 0.59430 0.07700
C 	C 	0.67170 0.86290 0.58190 -0.22000
H 	H 	0.70790 0.84660 0.55050 0.09100
N 	N 	0.62846 0.07569 0.42227 -0.19900
N 	N 	0.66990 0.12670 0.40570 0.07500
C 	C 	0.67170 0.13710 0.41810 -0.23200
H 	H 	0.70790 0.15340 0.44950 0.07600
N 	N 	0.37154 0.07569 0.57773 -0.20100
N 	N 	0.33010 0.12670 0.59430 0.07500
C 	C 	0.32830 0.13710 0.58190 -0.23400
H 	H 	0.29210 0.15340 0.55050 0.06900
N 	N 	0.37154 0.92431 0.42227 -0.15700
N 	N 	0.33010 0.87330 0.40570 0.07700
C 	C 	0.32830 0.86290 0.41810 -0.22700
H 	H 	0.29210 0.84660 0.44950 0.08300
N 	N 	0.57773 0.62846 0.92431 -0.15200
N 	N 	0.59430 0.66990 0.87330 0.07700
C 	C 	0.58190 0.67170 0.86290 -0.22000
H 	H 	0.55050 0.70790 0.84660 0.09100
N 	N 	0.42227 0.62846 0.07569 -0.19900
N 	N 	0.40570 0.66990 0.12670 0.07500
C 	C 	0.41810 0.67170 0.13710 -0.23200
H 	H 	0.44950 0.70790 0.15340 0.07600
N 	N 	0.57773 0.37154 0.07569 -0.20100
N 	N 	0.59430 0.33010 0.12670 0.07500
C 	C 	0.58190 0.32830 0.13710 -0.23400
H 	H 	0.55050 0.29210 0.15340 0.06900
N 	N 	0.42227 0.37154 0.92431 -0.15700
N 	N 	0.40570 0.33010 0.87330 0.07700
C 	C 	0.41810 0.32830 0.86290 -0.22700
H 	H 	0.44950 0.29210 0.84660 0.08300
N 	N 	0.57773 0.92431 0.37154 -0.15500
N 	N 	0.59430 0.87330 0.33010 0.07700
C 	C 	0.58190 0.86290 0.32830 -0.22500
H 	H 	0.55050 0.84660 0.29210 0.08400
N 	N 	0.42227 0.07569 0.37154 -0.20200
N 	N 	0.40570 0.12670 0.33010 0.07400
C 	C 	0.41810 0.13710 0.32830 -0.23600
H 	H 	0.44950 0.15340 0.29210 0.06900
N 	N 	0.57773 0.07569 0.62846 -0.19700
N 	N 	0.59430 0.12670 0.66990 0.07500
C 	C 	0.58190 0.13710 0.67170 -0.23000
H 	H 	0.55050 0.15340 0.70790 0.07600
N 	N 	0.42227 0.92431 0.62846 -0.15300
N 	N 	0.40570 0.87330 0.66990 0.07700
C 	C 	0.41810 0.86290 0.67170 -0.22200
H 	H 	0.44950 0.84660 0.70790 0.09000
N 	N 	0.92431 0.62846 0.42227 -0.15300
N 	N 	0.87330 0.66990 0.40570 0.07700
C 	C 	0.86290 0.67170 0.41810 -0.22200
H 	H 	0.84660 0.70790 0.44950 0.09000
N 	N 	0.07569 0.62846 0.57773 -0.19700
N 	N 	0.12670 0.66990 0.59430 0.07500
C 	C 	0.13710 0.67170 0.58190 -0.23000
H 	H 	0.15340 0.70790 0.55050 0.07600
N 	N 	0.07569 0.37154 0.42227 -0.20200
N 	N 	0.12670 0.33010 0.40570 0.07400
C 	C 	0.13710 0.32830 0.41810 -0.23600
H 	H 	0.15340 0.29210 0.44950 0.06900
N 	N 	0.92431 0.37154 0.57773 -0.15500
N 	N 	0.87330 0.33010 0.59430 0.07700
C 	C 	0.86290 0.32830 0.58190 -0.22500
H 	H 	0.84660 0.29210 0.55050 0.08400
N 	N 	0.62846 0.57773 0.07569 -0.19700
N 	N 	0.66990 0.59430 0.12670 0.07500
C 	C 	0.67170 0.58190 0.13710 -0.23000
H 	H 	0.70790 0.55050 0.15340 0.07600
N 	N 	0.62846 0.42227 0.92431 -0.15300
N 	N 	0.66990 0.40570 0.87330 0.07700
C 	C 	0.67170 0.41810 0.86290 -0.22200
H 	H 	0.70790 0.44950 0.84660 0.09000
N 	N 	0.37154 0.57773 0.92431 -0.15500
N 	N 	0.33010 0.59430 0.87330 0.07700
C 	C 	0.32830 0.58190 0.86290 -0.22500
H 	H 	0.29210 0.55050 0.84660 0.08400
N 	N 	0.37154 0.42227 0.07569 -0.20200
N 	N 	0.33010 0.40570 0.12670 0.07400
C 	C 	0.32830 0.41810 0.13710 -0.23600
H 	H 	0.29210 0.44950 0.15340 0.06900
Co	Co	0.00000 0.50000 0.36725 1.06800
Co	Co	0.00000 0.50000 0.63275 1.07300
Co	Co	0.36725 0.00000 0.50000 1.06800
Co	Co	0.63275 0.00000 0.50000 1.07300
Co	Co	0.50000 0.36725 -0.00000 1.06800
Co	Co	0.50000 0.63275 -0.00000 1.07300
Co	Co	0.50000 0.00000 0.63275 1.07300
Co	Co	0.50000 0.00000 0.36725 1.06800
Co	Co	0.00000 0.36725 0.50000 1.06800
Co	Co	0.00000 0.63275 0.50000 1.07300
Co	Co	0.36725 0.50000 -0.00000 1.06800
Co	Co	0.63275 0.50000 -0.00000 1.07300
Cl	Cl	0.00000 0.50000 0.50000 -0.91800
Cl	Cl	0.50000 0.00000 0.50000 -0.91800
Cl	Cl	0.50000 0.50000 -0.00000 -0.91800
C 	C 	0.26235 0.35264 0.26235 -0.05900
H 	H 	0.24130 0.39350 0.24130 0.03200
C 	C 	0.73765 0.64736 0.26235 -0.05400
H 	H 	0.75870 0.60650 0.24130 0.04200
C 	C 	0.73765 0.35264 0.73765 -0.05300
H 	H 	0.75870 0.39350 0.75870 0.04900
C 	C 	0.26235 0.64736 0.73765 -0.05400
H 	H 	0.24130 0.60650 0.75870 0.04200
C 	C 	0.26235 0.26235 0.35264 -0.05900
H 	H 	0.24130 0.24130 0.39350 0.03200
C 	C 	0.26235 0.73765 0.64736 -0.05400
H 	H 	0.24130 0.75870 0.60650 0.04200
C 	C 	0.73765 0.73765 0.35264 -0.05300
H 	H 	0.75870 0.75870 0.39350 0.04900
C 	C 	0.73765 0.26235 0.64736 -0.05400
H 	H 	0.75870 0.24130 0.60650 0.04200
C 	C 	0.35264 0.26235 0.26235 -0.05900
H 	H 	0.39350 0.24130 0.24130 0.03200
C 	C 	0.64736 0.26235 0.73765 -0.05400
H 	H 	0.60650 0.24130 0.75870 0.04200
C 	C 	0.35264 0.73765 0.73765 -0.05300
H 	H 	0.39350 0.75870 0.75870 0.04900
C 	C 	0.64736 0.73765 0.26235 -0.05400
H 	H 	0.60650 0.75870 0.24130 0.04200
C 	C 	0.35264 0.26235 0.73765 -0.05600
H 	H 	0.39350 0.24130 0.75870 0.04000
C 	C 	0.64736 0.73765 0.73765 -0.05100
H 	H 	0.60650 0.75870 0.75870 0.05100
C 	C 	0.35264 0.73765 0.26235 -0.05600
H 	H 	0.39350 0.75870 0.24130 0.04000
C 	C 	0.64736 0.26235 0.26235 -0.05700
H 	H 	0.60650 0.24130 0.24130 0.03400
C 	C 	0.26235 0.26235 0.64736 -0.05700
H 	H 	0.24130 0.24130 0.60650 0.03400
C 	C 	0.73765 0.26235 0.35264 -0.05600
H 	H 	0.75870 0.24130 0.39350 0.04000
C 	C 	0.73765 0.73765 0.64736 -0.05100
H 	H 	0.75870 0.75870 0.60650 0.05100
C 	C 	0.26235 0.73765 0.35264 -0.05600
H 	H 	0.24130 0.75870 0.39350 0.04000
C 	C 	0.26235 0.35264 0.73765 -0.05600
H 	H 	0.24130 0.39350 0.75870 0.04000
C 	C 	0.26235 0.64736 0.26235 -0.05700
H 	H 	0.24130 0.60650 0.24130 0.03400
C 	C 	0.73765 0.35264 0.26235 -0.05600
H 	H 	0.75870 0.39350 0.24130 0.04000
C 	C 	0.73765 0.64736 0.73765 -0.05100
H 	H 	0.75870 0.60650 0.75870 0.05100
C 	C 	0.23188 0.32315 0.32315 -0.01800
C 	C 	0.16761 0.35387 0.35387 0.09000
C 	C 	0.76812 0.67685 0.32315 -0.00400
C 	C 	0.83239 0.64613 0.35387 0.10700
C 	C 	0.76812 0.32315 0.67685 -0.00400
C 	C 	0.83239 0.35387 0.64613 0.10700
C 	C 	0.23188 0.67685 0.67685 -0.00700
C 	C 	0.16761 0.64613 0.64613 0.09900
C 	C 	0.32315 0.23188 0.32315 -0.01800
C 	C 	0.35387 0.16761 0.35387 0.09000
C 	C 	0.32315 0.76812 0.67685 -0.00400
C 	C 	0.35387 0.83239 0.64613 0.10700
C 	C 	0.67685 0.76812 0.32315 -0.00400
C 	C 	0.64613 0.83239 0.35387 0.10700
C 	C 	0.67685 0.23188 0.67685 -0.00700
C 	C 	0.64613 0.16761 0.64613 0.09900
C 	C 	0.32315 0.32315 0.23188 -0.01800
C 	C 	0.35387 0.35387 0.16761 0.09000
C 	C 	0.67685 0.32315 0.76812 -0.00400
C 	C 	0.64613 0.35387 0.83239 0.10700
C 	C 	0.32315 0.67685 0.76812 -0.00400
C 	C 	0.35387 0.64613 0.83239 0.10700
C 	C 	0.67685 0.67685 0.23188 -0.00700
C 	C 	0.64613 0.64613 0.16761 0.09900
C 	C 	0.32315 0.23188 0.67685 -0.01300
C 	C 	0.35387 0.16761 0.64613 0.09500
C 	C 	0.67685 0.76812 0.67685 0.00200
C 	C 	0.64613 0.83239 0.64613 0.11100
C 	C 	0.32315 0.76812 0.32315 -0.01000
C 	C 	0.35387 0.83239 0.35387 0.10300
C 	C 	0.67685 0.23188 0.32315 -0.01300
C 	C 	0.64613 0.16761 0.35387 0.09500
C 	C 	0.23188 0.32315 0.67685 -0.01300
C 	C 	0.16761 0.35387 0.64613 0.09500
C 	C 	0.76812 0.32315 0.32315 -0.01000
C 	C 	0.83239 0.35387 0.35387 0.10300
C 	C 	0.76812 0.67685 0.67685 0.00200
C 	C 	0.83239 0.64613 0.64613 0.11100
C 	C 	0.23188 0.67685 0.32315 -0.01300
C 	C 	0.16761 0.64613 0.35387 0.09500
C 	C 	0.32315 0.32315 0.76812 -0.01000
C 	C 	0.35387 0.35387 0.83239 0.10300
C 	C 	0.32315 0.67685 0.23188 -0.01300
C 	C 	0.35387 0.64613 0.16761 0.09500
C 	C 	0.67685 0.32315 0.23188 -0.01300
C 	C 	0.64613 0.35387 0.16761 0.09500
C 	C 	0.67685 0.67685 0.76812 0.00200
C 	C 	0.64613 0.64613 0.83239 0.11100
