data_crystal

_cell_length_a 18.70590
_cell_length_b 18.70590
_cell_length_c 18.70590
_cell_angle_alpha 90.00000
_cell_angle_beta  90.00000
_cell_angle_gamma 90.00000

_symmetry_space_group_name_	'P 1'
_symmetry_space_group_name_H-M	'P 1'

loop_
_symmetry_equiv_pos_as_xyz
  x,y,z

loop_
_atom_site_label
_atom_site_type_symbol
_atom_site_fract_x
_atom_site_fract_y
_atom_site_fract_z
_atom_site_charge
N 	N 	0.07344 0.37229 0.57635 -0.23100
C 	C 	0.12803 0.32884 0.58845 -0.00300
H 	H 	0.14030 0.28810 0.56070 -0.01100
N 	N 	0.41155 0.12803 0.67116 -0.13400
N 	N 	0.92656 0.62771 0.57635 -0.18200
C 	C 	0.87197 0.67116 0.58845 0.00900
H 	H 	0.85970 0.71190 0.56070 0.01700
N 	N 	0.58845 0.87197 0.67116 -0.13000
N 	N 	0.92656 0.37229 0.42365 -0.18700
C 	C 	0.87197 0.32884 0.41155 0.00400
H 	H 	0.85970 0.28810 0.43930 0.00600
N 	N 	0.58845 0.12803 0.32884 -0.13400
N 	N 	0.07344 0.62771 0.42365 -0.23000
C 	C 	0.12803 0.67116 0.41155 -0.00300
H 	H 	0.14030 0.71190 0.43930 -0.00400
N 	N 	0.41155 0.87197 0.32884 -0.13100
N 	N 	0.57635 0.07344 0.37229 -0.20200
H 	H 	0.56070 0.14030 0.28810 0.04600
N 	N 	0.67116 0.41155 0.12803 -0.14200
N 	N 	0.57635 0.92656 0.62771 -0.15100
H 	H 	0.56070 0.85970 0.71190 0.07900
N 	N 	0.67116 0.58845 0.87197 -0.13900
N 	N 	0.42365 0.92656 0.37229 -0.15600
H 	H 	0.43930 0.85970 0.28810 0.06600
N 	N 	0.32884 0.58845 0.12803 -0.14200
N 	N 	0.42365 0.07344 0.62771 -0.20000
H 	H 	0.43930 0.14030 0.71190 0.05500
N 	N 	0.32884 0.41155 0.87197 -0.14000
N 	N 	0.37229 0.57635 0.07344 -0.20100
H 	H 	0.28810 0.56070 0.14030 0.04800
N 	N 	0.62771 0.57635 0.92656 -0.14900
H 	H 	0.71190 0.56070 0.85970 0.08000
N 	N 	0.37229 0.42365 0.92656 -0.15400
H 	H 	0.28810 0.43930 0.85970 0.06800
N 	N 	0.62771 0.42365 0.07344 -0.19900
H 	H 	0.71190 0.43930 0.14030 0.05600
N 	N 	0.37229 0.07344 0.42365 -0.23300
C 	C 	0.32884 0.12803 0.41155 -0.00600
H 	H 	0.28810 0.14030 0.43930 -0.01300
N 	N 	0.12803 0.41155 0.32884 -0.13500
N 	N 	0.62771 0.92656 0.42365 -0.18400
C 	C 	0.67116 0.87197 0.41155 0.00700
H 	H 	0.71190 0.85970 0.43930 0.01600
N 	N 	0.87197 0.58845 0.32884 -0.13000
N 	N 	0.37229 0.92656 0.57635 -0.18500
C 	C 	0.32884 0.87197 0.58845 0.00600
H 	H 	0.28810 0.85970 0.56070 0.00800
N 	N 	0.12803 0.58845 0.67116 -0.13300
N 	N 	0.62771 0.07344 0.57635 -0.22900
C 	C 	0.67116 0.12803 0.58845 -0.00100
H 	H 	0.71190 0.14030 0.56070 -0.00200
N 	N 	0.87197 0.41155 0.67116 -0.13000
N 	N 	0.07344 0.57635 0.62771 -0.19900
H 	H 	0.14030 0.56070 0.71190 0.05700
N 	N 	0.41155 0.67116 0.87197 -0.13900
N 	N 	0.92656 0.57635 0.37229 -0.15500
H 	H 	0.85970 0.56070 0.28810 0.06800
N 	N 	0.58845 0.67116 0.12803 -0.14200
N 	N 	0.92656 0.42365 0.62771 -0.15300
H 	H 	0.85970 0.43930 0.71190 0.07700
N 	N 	0.58845 0.32884 0.87197 -0.13900
N 	N 	0.07344 0.42365 0.37229 -0.20400
H 	H 	0.14030 0.43930 0.28810 0.04500
N 	N 	0.41155 0.32884 0.12803 -0.14300
N 	N 	0.57635 0.37229 0.92656 -0.15300
H 	H 	0.56070 0.28810 0.85970 0.07000
N 	N 	0.57635 0.62771 0.07344 -0.19700
H 	H 	0.56070 0.71190 0.14030 0.05800
N 	N 	0.42365 0.37229 0.07344 -0.20200
H 	H 	0.43930 0.28810 0.14030 0.04600
N 	N 	0.42365 0.62771 0.92656 -0.15100
H 	H 	0.43930 0.71190 0.85970 0.07800
N 	N 	0.92656 0.62771 0.42365 -0.18400
C 	C 	0.87197 0.67116 0.41155 0.00700
H 	H 	0.85970 0.71190 0.43930 0.01600
N 	N 	0.58845 0.87197 0.32884 -0.13000
N 	N 	0.07344 0.37229 0.42365 -0.23300
C 	C 	0.12803 0.32884 0.41155 -0.00600
H 	H 	0.14030 0.28810 0.43930 -0.01300
N 	N 	0.41155 0.12803 0.32884 -0.13500
N 	N 	0.07344 0.62771 0.57635 -0.22900
C 	C 	0.12803 0.67116 0.58845 -0.00100
H 	H 	0.14030 0.71190 0.56070 -0.00200
N 	N 	0.41155 0.87197 0.67116 -0.13000
N 	N 	0.92656 0.37229 0.57635 -0.18500
C 	C 	0.87197 0.32884 0.58845 0.00600
H 	H 	0.85970 0.28810 0.56070 0.00800
N 	N 	0.58845 0.12803 0.67116 -0.13300
N 	N 	0.42365 0.92656 0.62771 -0.15300
H 	H 	0.43930 0.85970 0.71190 0.07700
N 	N 	0.32884 0.58845 0.87197 -0.13900
N 	N 	0.42365 0.07344 0.37229 -0.20400
H 	H 	0.43930 0.14030 0.28810 0.04500
N 	N 	0.32884 0.41155 0.12803 -0.14300
N 	N 	0.57635 0.07344 0.62771 -0.19900
H 	H 	0.56070 0.14030 0.71190 0.05700
N 	N 	0.67116 0.41155 0.87197 -0.13900
N 	N 	0.57635 0.92656 0.37229 -0.15500
H 	H 	0.56070 0.85970 0.28810 0.06800
N 	N 	0.67116 0.58845 0.12803 -0.14200
N 	N 	0.62771 0.42365 0.92656 -0.15100
H 	H 	0.71190 0.43930 0.85970 0.07800
N 	N 	0.37229 0.42365 0.07344 -0.20200
H 	H 	0.28810 0.43930 0.14030 0.04600
N 	N 	0.62771 0.57635 0.07344 -0.19700
H 	H 	0.71190 0.56070 0.14030 0.05800
N 	N 	0.37229 0.57635 0.92656 -0.15300
H 	H 	0.28810 0.56070 0.85970 0.07000
N 	N 	0.62771 0.92656 0.57635 -0.18200
C 	C 	0.67116 0.87197 0.58845 0.00900
H 	H 	0.71190 0.85970 0.56070 0.01700
N 	N 	0.87197 0.58845 0.67116 -0.13000
N 	N 	0.37229 0.07344 0.57635 -0.23200
C 	C 	0.32884 0.12803 0.58845 -0.00400
H 	H 	0.28810 0.14030 0.56070 -0.01200
N 	N 	0.12803 0.41155 0.67116 -0.13400
N 	N 	0.62771 0.07344 0.42365 -0.23000
C 	C 	0.67116 0.12803 0.41155 -0.00300
H 	H 	0.71190 0.14030 0.43930 -0.00400
N 	N 	0.87197 0.41155 0.32884 -0.13100
N 	N 	0.37229 0.92656 0.42365 -0.18700
C 	C 	0.32884 0.87197 0.41155 0.00400
H 	H 	0.28810 0.85970 0.43930 0.00600
N 	N 	0.12803 0.58845 0.32884 -0.13400
N 	N 	0.92656 0.42365 0.37229 -0.15600
H 	H 	0.85970 0.43930 0.28810 0.06600
N 	N 	0.58845 0.32884 0.12803 -0.14200
N 	N 	0.07344 0.42365 0.62771 -0.20000
H 	H 	0.14030 0.43930 0.71190 0.05500
N 	N 	0.41155 0.32884 0.87197 -0.14000
N 	N 	0.07344 0.57635 0.37229 -0.20200
H 	H 	0.14030 0.56070 0.28810 0.04600
N 	N 	0.41155 0.67116 0.12803 -0.14200
N 	N 	0.92656 0.57635 0.62771 -0.15100
H 	H 	0.85970 0.56070 0.71190 0.07900
N 	N 	0.58845 0.67116 0.87197 -0.13900
N 	N 	0.42365 0.62771 0.07344 -0.19900
H 	H 	0.43930 0.71190 0.14030 0.05600
N 	N 	0.42365 0.37229 0.92656 -0.15400
H 	H 	0.43930 0.28810 0.85970 0.06800
N 	N 	0.57635 0.62771 0.92656 -0.14900
H 	H 	0.56070 0.71190 0.85970 0.08000
N 	N 	0.57635 0.37229 0.07344 -0.20100
H 	H 	0.56070 0.28810 0.14030 0.04800
Co	Co	0.00000 0.36896 0.50000 1.07900
Co	Co	-0.00000 0.63104 0.50000 1.08200
Co	Co	0.50000 0.00000 0.36896 1.07900
Co	Co	0.50000 0.00000 0.63104 1.08300
Co	Co	0.36896 0.50000 -0.00000 1.07900
Co	Co	0.63104 0.50000 -0.00000 1.08300
Co	Co	0.36896 0.00000 0.50000 1.07900
Co	Co	0.63104 0.00000 0.50000 1.08200
Co	Co	-0.00000 0.50000 0.63104 1.08300
Co	Co	0.00000 0.50000 0.36896 1.07900
Co	Co	0.50000 0.36896 -0.00000 1.07900
Co	Co	0.50000 0.63104 -0.00000 1.08300
Cl	Cl	0.00000 0.50000 0.50000 -0.93700
Cl	Cl	0.50000 0.00000 0.50000 -0.93700
Cl	Cl	0.50000 0.50000 -0.00000 -0.93800
C 	C 	0.22880 0.32054 0.67946 0.02400
C 	C 	0.16380 0.35240 0.64760 0.02900
C 	C 	0.77120 0.67946 0.67946 0.03600
C 	C 	0.83620 0.64760 0.64760 0.05000
C 	C 	0.77120 0.32054 0.32054 0.02700
C 	C 	0.83620 0.35240 0.35240 0.03900
C 	C 	0.22880 0.67946 0.32054 0.02400
C 	C 	0.16380 0.64760 0.35240 0.02800
C 	C 	0.67946 0.22880 0.32054 0.02400
C 	C 	0.64760 0.16380 0.35240 0.02800
C 	C 	0.67946 0.77120 0.67946 0.03600
C 	C 	0.64760 0.83620 0.64760 0.05000
C 	C 	0.32054 0.77120 0.32054 0.02700
C 	C 	0.35240 0.83620 0.35240 0.03900
C 	C 	0.32054 0.22880 0.67946 0.02400
C 	C 	0.35240 0.16380 0.64760 0.02900
C 	C 	0.32054 0.67946 0.22880 0.00200
C 	C 	0.35240 0.64760 0.16380 0.09400
C 	C 	0.67946 0.67946 0.77120 0.01300
C 	C 	0.64760 0.64760 0.83620 0.12000
C 	C 	0.32054 0.32054 0.77120 0.00300
C 	C 	0.35240 0.35240 0.83620 0.10700
C 	C 	0.67946 0.32054 0.22880 0.00200
C 	C 	0.64760 0.35240 0.16380 0.09400
C 	C 	0.32054 0.22880 0.32054 0.01900
C 	C 	0.35240 0.16380 0.35240 0.02300
C 	C 	0.67946 0.77120 0.32054 0.03200
C 	C 	0.64760 0.83620 0.35240 0.04400
C 	C 	0.32054 0.77120 0.67946 0.03100
C 	C 	0.35240 0.83620 0.64760 0.04500
C 	C 	0.67946 0.22880 0.67946 0.02800
C 	C 	0.64760 0.16380 0.64760 0.03400
C 	C 	0.22880 0.67946 0.67946 0.02800
C 	C 	0.16380 0.64760 0.64760 0.03400
C 	C 	0.77120 0.67946 0.32054 0.03200
C 	C 	0.83620 0.64760 0.35240 0.04400
C 	C 	0.77120 0.32054 0.67946 0.03100
C 	C 	0.83620 0.35240 0.64760 0.04500
C 	C 	0.22880 0.32054 0.32054 0.01900
C 	C 	0.16380 0.35240 0.35240 0.02300
C 	C 	0.67946 0.32054 0.77120 0.00800
C 	C 	0.64760 0.35240 0.83620 0.11400
C 	C 	0.67946 0.67946 0.22880 0.00700
C 	C 	0.64760 0.64760 0.16380 0.10100
C 	C 	0.32054 0.32054 0.22880 -0.00200
C 	C 	0.35240 0.35240 0.16380 0.08800
C 	C 	0.32054 0.67946 0.77120 0.00800
C 	C 	0.35240 0.64760 0.83620 0.11400
C 	C 	0.25970 0.25970 0.65030 -0.09500
H 	H 	0.23860 0.23860 0.60920 0.04600
C 	C 	0.74030 0.74030 0.65030 -0.08700
H 	H 	0.76140 0.76140 0.60920 0.06300
C 	C 	0.74030 0.25970 0.34970 -0.09500
H 	H 	0.76140 0.23860 0.39080 0.05300
C 	C 	0.25970 0.74030 0.34970 -0.09500
H 	H 	0.23860 0.76140 0.39080 0.05300
C 	C 	0.65030 0.25970 0.25970 -0.08100
H 	H 	0.60920 0.23860 0.23860 0.04200
C 	C 	0.65030 0.74030 0.74030 -0.07200
H 	H 	0.60920 0.76140 0.76140 0.05800
C 	C 	0.34970 0.74030 0.25970 -0.08000
H 	H 	0.39080 0.76140 0.23860 0.04900
C 	C 	0.34970 0.25970 0.74030 -0.07900
H 	H 	0.39080 0.23860 0.76140 0.04900
C 	C 	0.25970 0.65030 0.25970 -0.08100
H 	H 	0.23860 0.60920 0.23860 0.04200
C 	C 	0.74030 0.65030 0.74030 -0.07200
H 	H 	0.76140 0.60920 0.76140 0.05800
C 	C 	0.25970 0.34970 0.74030 -0.07900
H 	H 	0.23860 0.39080 0.76140 0.04900
C 	C 	0.74030 0.34970 0.25970 -0.08000
H 	H 	0.76140 0.39080 0.23860 0.04900
C 	C 	0.25970 0.25970 0.34970 -0.09900
H 	H 	0.23860 0.23860 0.39080 0.04500
C 	C 	0.74030 0.74030 0.34970 -0.09000
H 	H 	0.76140 0.76140 0.39080 0.06100
C 	C 	0.25970 0.74030 0.65030 -0.09100
H 	H 	0.23860 0.76140 0.60920 0.05500
C 	C 	0.74030 0.25970 0.65030 -0.09100
H 	H 	0.76140 0.23860 0.60920 0.05500
C 	C 	0.25970 0.65030 0.74030 -0.07600
H 	H 	0.23860 0.60920 0.76140 0.05000
C 	C 	0.74030 0.65030 0.25970 -0.07700
H 	H 	0.76140 0.60920 0.23860 0.05100
C 	C 	0.74030 0.34970 0.74030 -0.07500
H 	H 	0.76140 0.39080 0.76140 0.05700
C 	C 	0.25970 0.34970 0.25970 -0.08500
H 	H 	0.23860 0.39080 0.23860 0.04100
C 	C 	0.65030 0.25970 0.74030 -0.07600
H 	H 	0.60920 0.23860 0.76140 0.05000
C 	C 	0.65030 0.74030 0.25970 -0.07700
H 	H 	0.60920 0.76140 0.23860 0.05100
C 	C 	0.34970 0.25970 0.25970 -0.08500
H 	H 	0.39080 0.23860 0.23860 0.04100
C 	C 	0.34970 0.74030 0.74030 -0.07500
H 	H 	0.39080 0.76140 0.76140 0.05700
