data_crystal

_cell_length_a 18.83450
_cell_length_b 18.83450
_cell_length_c 18.83450
_cell_angle_alpha 90.00000
_cell_angle_beta  90.00000
_cell_angle_gamma 90.00000

_symmetry_space_group_name_	'P 1'
_symmetry_space_group_name_H-M	'P 1'

loop_
_symmetry_equiv_pos_as_xyz
  x,y,z

loop_
_atom_site_label
_atom_site_type_symbol
_atom_site_fract_x
_atom_site_fract_y
_atom_site_fract_z
_atom_site_charge
N 	N 	0.37154 0.07406 0.57762 -0.32500
C 	C 	0.32826 0.12903 0.58949 0.29800
H 	H 	0.28800 0.14130 0.56170 -0.50600
N 	N 	0.62846 0.92594 0.57762 -0.28200
C 	C 	0.67174 0.87097 0.58949 0.31700
H 	H 	0.71200 0.85870 0.56170 -0.49200
N 	N 	0.62846 0.07406 0.42238 -0.32300
C 	C 	0.67174 0.12903 0.41051 0.30000
H 	H 	0.71200 0.14130 0.43830 -0.50300
N 	N 	0.37154 0.92594 0.42238 -0.28500
C 	C 	0.32826 0.87097 0.41051 0.31000
H 	H 	0.28800 0.85870 0.43830 -0.49700
N 	N 	0.57762 0.37154 0.07406 -0.32500
C 	C 	0.58949 0.32826 0.12903 0.29800
H 	H 	0.56170 0.28800 0.14130 -0.50600
N 	N 	0.57762 0.62846 0.92594 -0.28200
C 	C 	0.58949 0.67174 0.87097 0.31700
H 	H 	0.56170 0.71200 0.85870 -0.49200
N 	N 	0.42238 0.62846 0.07406 -0.32300
C 	C 	0.41051 0.67174 0.12903 0.30000
H 	H 	0.43830 0.71200 0.14130 -0.50300
N 	N 	0.42238 0.37154 0.92594 -0.28600
C 	C 	0.41051 0.32826 0.87097 0.30900
H 	H 	0.43830 0.28800 0.85870 -0.49800
N 	N 	0.07406 0.57762 0.37154 -0.32600
C 	C 	0.12903 0.58949 0.32826 0.29700
H 	H 	0.14130 0.56170 0.28800 -0.50700
N 	N 	0.92594 0.57762 0.62846 -0.28300
C 	C 	0.87097 0.58949 0.67174 0.31600
H 	H 	0.85870 0.56170 0.71200 -0.49300
N 	N 	0.07406 0.42238 0.62846 -0.32400
C 	C 	0.12903 0.41051 0.67174 0.29900
H 	H 	0.14130 0.43830 0.71200 -0.50400
N 	N 	0.92594 0.42238 0.37154 -0.28600
C 	C 	0.87097 0.41051 0.32826 0.30900
H 	H 	0.85870 0.43830 0.28800 -0.49800
N 	N 	0.07406 0.37154 0.42238 -0.32700
C 	C 	0.12903 0.32826 0.41051 0.29500
H 	H 	0.14130 0.28800 0.43830 -0.50800
N 	N 	0.92594 0.62846 0.42238 -0.28400
C 	C 	0.87097 0.67174 0.41051 0.31400
H 	H 	0.85870 0.71200 0.43830 -0.49400
N 	N 	0.07406 0.62846 0.57762 -0.32400
C 	C 	0.12903 0.67174 0.58949 0.30200
H 	H 	0.14130 0.71200 0.56170 -0.50300
N 	N 	0.92594 0.37154 0.57762 -0.28500
C 	C 	0.87097 0.32826 0.58949 0.31200
H 	H 	0.85870 0.28800 0.56170 -0.49700
N 	N 	0.37154 0.57762 0.92594 -0.28500
C 	C 	0.32826 0.58949 0.87097 0.31200
H 	H 	0.28800 0.56170 0.85870 -0.49700
N 	N 	0.62846 0.57762 0.07406 -0.32400
C 	C 	0.67174 0.58949 0.12903 0.30200
H 	H 	0.71200 0.56170 0.14130 -0.50300
N 	N 	0.62846 0.42238 0.92594 -0.28400
C 	C 	0.67174 0.41051 0.87097 0.31400
H 	H 	0.71200 0.43830 0.85870 -0.49400
N 	N 	0.37154 0.42238 0.07406 -0.32700
C 	C 	0.32826 0.41051 0.12903 0.29500
H 	H 	0.28800 0.43830 0.14130 -0.50800
N 	N 	0.57762 0.07406 0.62846 -0.32400
C 	C 	0.58949 0.12903 0.67174 0.30200
H 	H 	0.56170 0.14130 0.71200 -0.50300
N 	N 	0.57762 0.92594 0.37154 -0.28500
C 	C 	0.58949 0.87097 0.32826 0.31200
H 	H 	0.56170 0.85870 0.28800 -0.49700
N 	N 	0.42238 0.07406 0.37154 -0.32700
C 	C 	0.41051 0.12903 0.32826 0.29500
H 	H 	0.43830 0.14130 0.28800 -0.50800
N 	N 	0.42238 0.92594 0.62846 -0.28400
C 	C 	0.41051 0.87097 0.67174 0.31400
H 	H 	0.43830 0.85870 0.71200 -0.49400
N 	N 	0.62846 0.92594 0.42238 -0.28400
C 	C 	0.67174 0.87097 0.41051 0.31400
H 	H 	0.71200 0.85870 0.43830 -0.49400
N 	N 	0.37154 0.07406 0.42238 -0.32700
C 	C 	0.32826 0.12903 0.41051 0.29500
H 	H 	0.28800 0.14130 0.43830 -0.50800
N 	N 	0.37154 0.92594 0.57762 -0.28500
C 	C 	0.32826 0.87097 0.58949 0.31200
H 	H 	0.28800 0.85870 0.56170 -0.49700
N 	N 	0.62846 0.07406 0.57762 -0.32400
C 	C 	0.67174 0.12903 0.58949 0.30200
H 	H 	0.71200 0.14130 0.56170 -0.50300
N 	N 	0.42238 0.62846 0.92594 -0.28400
C 	C 	0.41051 0.67174 0.87097 0.31400
H 	H 	0.43830 0.71200 0.85870 -0.49400
N 	N 	0.42238 0.37154 0.07406 -0.32700
C 	C 	0.41051 0.32826 0.12903 0.29500
H 	H 	0.43830 0.28800 0.14130 -0.50800
N 	N 	0.57762 0.37154 0.92594 -0.28500
C 	C 	0.58949 0.32826 0.87097 0.31200
H 	H 	0.56170 0.28800 0.85870 -0.49700
N 	N 	0.57762 0.62846 0.07406 -0.32400
C 	C 	0.58949 0.67174 0.12903 0.30200
H 	H 	0.56170 0.71200 0.14130 -0.50300
N 	N 	0.92594 0.42238 0.62846 -0.28400
C 	C 	0.87097 0.41051 0.67174 0.31400
H 	H 	0.85870 0.43830 0.71200 -0.49400
N 	N 	0.07406 0.42238 0.37154 -0.32700
C 	C 	0.12903 0.41051 0.32826 0.29500
H 	H 	0.14130 0.43830 0.28800 -0.50800
N 	N 	0.92594 0.57762 0.37154 -0.28500
C 	C 	0.87097 0.58949 0.32826 0.31200
H 	H 	0.85870 0.56170 0.28800 -0.49700
N 	N 	0.07406 0.57762 0.62846 -0.32400
C 	C 	0.12903 0.58949 0.67174 0.30200
H 	H 	0.14130 0.56170 0.71200 -0.50300
N 	N 	0.92594 0.62846 0.57762 -0.28300
C 	C 	0.87097 0.67174 0.58949 0.31600
H 	H 	0.85870 0.71200 0.56170 -0.49300
N 	N 	0.07406 0.37154 0.57762 -0.32600
C 	C 	0.12903 0.32826 0.58949 0.29700
H 	H 	0.14130 0.28800 0.56170 -0.50700
N 	N 	0.92594 0.37154 0.42238 -0.28600
C 	C 	0.87097 0.32826 0.41051 0.30900
H 	H 	0.85870 0.28800 0.43830 -0.49800
N 	N 	0.07406 0.62846 0.42238 -0.32400
C 	C 	0.12903 0.67174 0.41051 0.29900
H 	H 	0.14130 0.71200 0.43830 -0.50400
N 	N 	0.62846 0.42238 0.07406 -0.32400
C 	C 	0.67174 0.41051 0.12903 0.29900
H 	H 	0.71200 0.43830 0.14130 -0.50400
N 	N 	0.37154 0.42238 0.92594 -0.28600
C 	C 	0.32826 0.41051 0.87097 0.30900
H 	H 	0.28800 0.43830 0.85870 -0.49800
N 	N 	0.37154 0.57762 0.07406 -0.32600
C 	C 	0.32826 0.58949 0.12903 0.29700
H 	H 	0.28800 0.56170 0.14130 -0.50700
N 	N 	0.62846 0.57762 0.92594 -0.28300
C 	C 	0.67174 0.58949 0.87097 0.31600
H 	H 	0.71200 0.56170 0.85870 -0.49300
N 	N 	0.42238 0.92594 0.37154 -0.28600
C 	C 	0.41051 0.87097 0.32826 0.30900
H 	H 	0.43830 0.85870 0.28800 -0.49800
N 	N 	0.42238 0.07406 0.62846 -0.32400
C 	C 	0.41051 0.12903 0.67174 0.29900
H 	H 	0.43830 0.14130 0.71200 -0.50400
N 	N 	0.57762 0.92594 0.62846 -0.28300
C 	C 	0.58949 0.87097 0.67174 0.31600
H 	H 	0.56170 0.85870 0.71200 -0.49300
N 	N 	0.57762 0.07406 0.37154 -0.32600
C 	C 	0.58949 0.12903 0.32826 0.29700
H 	H 	0.56170 0.14130 0.28800 -0.50700
Co	Co	0.36808 0.00000 0.50000 1.04500
Co	Co	0.63192 0.00000 0.50000 1.04800
Co	Co	0.50000 0.36808 -0.00000 1.04500
Co	Co	0.50000 0.63192 -0.00000 1.04800
Co	Co	0.00000 0.50000 0.36808 1.04500
Co	Co	-0.00000 0.50000 0.63192 1.04800
Co	Co	0.00000 0.36808 0.50000 1.04500
Co	Co	-0.00000 0.63192 0.50000 1.04800
Co	Co	0.36808 0.50000 -0.00000 1.04500
Co	Co	0.63192 0.50000 -0.00000 1.04800
Co	Co	0.50000 -0.00000 0.63192 1.04800
Co	Co	0.50000 -0.00000 0.36808 1.04500
Cl	Cl	0.50000 0.00000 0.50000 -0.97700
Cl	Cl	0.50000 0.50000 -0.00000 -0.97700
Cl	Cl	0.00000 0.50000 0.50000 -0.97700
C 	C 	0.35155 0.16474 0.64845 -0.38200
C 	C 	0.32005 0.22839 0.67995 0.23200
C 	C 	0.64845 0.83526 0.64845 -0.37400
C 	C 	0.67995 0.77161 0.67995 0.24500
C 	C 	0.64845 0.16474 0.35155 -0.38200
C 	C 	0.67995 0.22839 0.32005 0.23200
C 	C 	0.35155 0.83526 0.35155 -0.37800
C 	C 	0.32005 0.77161 0.32005 0.23500
C 	C 	0.64845 0.35155 0.16474 -0.38200
C 	C 	0.67995 0.32005 0.22839 0.23200
C 	C 	0.64845 0.64845 0.83526 -0.37400
C 	C 	0.67995 0.67995 0.77161 0.24500
C 	C 	0.35155 0.64845 0.16474 -0.38200
C 	C 	0.32005 0.67995 0.22839 0.23200
C 	C 	0.35155 0.35155 0.83526 -0.37800
C 	C 	0.32005 0.32005 0.77161 0.23500
C 	C 	0.16474 0.64845 0.35155 -0.38200
C 	C 	0.22839 0.67995 0.32005 0.23200
C 	C 	0.83526 0.64845 0.64845 -0.37400
C 	C 	0.77161 0.67995 0.67995 0.24500
C 	C 	0.16474 0.35155 0.64845 -0.38200
C 	C 	0.22839 0.32005 0.67995 0.23200
C 	C 	0.83526 0.35155 0.35155 -0.37800
C 	C 	0.77161 0.32005 0.32005 0.23500
C 	C 	0.16474 0.35155 0.35155 -0.38500
C 	C 	0.22839 0.32005 0.32005 0.22700
C 	C 	0.83526 0.64845 0.35155 -0.37600
C 	C 	0.77161 0.67995 0.32005 0.24000
C 	C 	0.16474 0.64845 0.64845 -0.38000
C 	C 	0.22839 0.67995 0.67995 0.23700
C 	C 	0.83526 0.35155 0.64845 -0.37600
C 	C 	0.77161 0.32005 0.67995 0.24000
C 	C 	0.35155 0.64845 0.83526 -0.37600
C 	C 	0.32005 0.67995 0.77161 0.24000
C 	C 	0.64845 0.64845 0.16474 -0.38000
C 	C 	0.67995 0.67995 0.22839 0.23700
C 	C 	0.64845 0.35155 0.83526 -0.37600
C 	C 	0.67995 0.32005 0.77161 0.24000
C 	C 	0.35155 0.35155 0.16474 -0.38500
C 	C 	0.32005 0.32005 0.22839 0.22700
C 	C 	0.64845 0.16474 0.64845 -0.38000
C 	C 	0.67995 0.22839 0.67995 0.23700
C 	C 	0.64845 0.83526 0.35155 -0.37600
C 	C 	0.67995 0.77161 0.32005 0.24000
C 	C 	0.35155 0.16474 0.35155 -0.38500
C 	C 	0.32005 0.22839 0.32005 0.22700
C 	C 	0.35155 0.83526 0.64845 -0.37600
C 	C 	0.32005 0.77161 0.67995 0.24000
C 	C 	0.34951 0.25930 0.74070 -0.31000
H 	H 	0.39050 0.23850 0.76150 0.05900
C 	C 	0.65049 0.74070 0.74070 -0.30500
H 	H 	0.60950 0.76150 0.76150 0.06600
C 	C 	0.65049 0.25930 0.25930 -0.31100
H 	H 	0.60950 0.23850 0.23850 0.05600
C 	C 	0.34951 0.74070 0.25930 -0.31000
H 	H 	0.39050 0.76150 0.23850 0.05900
C 	C 	0.74070 0.34951 0.25930 -0.31000
H 	H 	0.76150 0.39050 0.23850 0.05900
C 	C 	0.74070 0.65049 0.74070 -0.30500
H 	H 	0.76150 0.60950 0.76150 0.06600
C 	C 	0.25930 0.65049 0.25930 -0.31100
H 	H 	0.23850 0.60950 0.23850 0.05600
C 	C 	0.25930 0.34951 0.74070 -0.31000
H 	H 	0.23850 0.39050 0.76150 0.05900
C 	C 	0.25930 0.74070 0.34951 -0.31000
H 	H 	0.23850 0.76150 0.39050 0.05900
C 	C 	0.74070 0.74070 0.65049 -0.30500
H 	H 	0.76150 0.76150 0.60950 0.06600
C 	C 	0.25930 0.25930 0.65049 -0.31100
H 	H 	0.23850 0.23850 0.60950 0.05600
C 	C 	0.74070 0.25930 0.34951 -0.31000
H 	H 	0.76150 0.23850 0.39050 0.05900
C 	C 	0.25930 0.34951 0.25930 -0.31300
H 	H 	0.23850 0.39050 0.23850 0.05400
C 	C 	0.74070 0.65049 0.25930 -0.30800
H 	H 	0.76150 0.60950 0.23850 0.06100
C 	C 	0.25930 0.65049 0.74070 -0.30800
H 	H 	0.23850 0.60950 0.76150 0.06100
C 	C 	0.74070 0.34951 0.74070 -0.30700
H 	H 	0.76150 0.39050 0.76150 0.06400
C 	C 	0.34951 0.74070 0.74070 -0.30700
H 	H 	0.39050 0.76150 0.76150 0.06400
C 	C 	0.65049 0.74070 0.25930 -0.30800
H 	H 	0.60950 0.76150 0.23850 0.06100
C 	C 	0.65049 0.25930 0.74070 -0.30800
H 	H 	0.60950 0.23850 0.76150 0.06100
C 	C 	0.34951 0.25930 0.25930 -0.31300
H 	H 	0.39050 0.23850 0.23850 0.05400
C 	C 	0.74070 0.25930 0.65049 -0.30800
H 	H 	0.76150 0.23850 0.60950 0.06100
C 	C 	0.74070 0.74070 0.34951 -0.30700
H 	H 	0.76150 0.76150 0.39050 0.06400
C 	C 	0.25930 0.25930 0.34951 -0.31300
H 	H 	0.23850 0.23850 0.39050 0.05400
C 	C 	0.25930 0.74070 0.65049 -0.30800
H 	H 	0.23850 0.76150 0.60950 0.06100
Co	Co	0.28080 0.15670 0.50000 1.23500
Co	Co	0.71920 0.84330 0.50000 1.24200
Co	Co	0.71920 0.15670 0.50000 1.23600
Co	Co	0.28080 0.84330 0.50000 1.24100
Co	Co	0.50000 0.28080 0.15670 1.23500
Co	Co	0.50000 0.71920 0.84330 1.24200
Co	Co	0.50000 0.71920 0.15670 1.23600
Co	Co	0.50000 0.28080 0.84330 1.24100
Co	Co	0.15670 0.50000 0.28080 1.23500
Co	Co	0.84330 0.50000 0.71920 1.24200
Co	Co	0.15670 0.50000 0.71920 1.23600
Co	Co	0.84330 0.50000 0.28080 1.24100
Co	Co	0.15670 0.28080 0.50000 1.23500
Co	Co	0.84330 0.71920 0.50000 1.24200
Co	Co	0.15670 0.71920 0.50000 1.23600
Co	Co	0.84330 0.28080 0.50000 1.24100
Co	Co	0.28080 0.50000 0.84330 1.24100
Co	Co	0.71920 0.50000 0.15670 1.23600
Co	Co	0.71920 0.50000 0.84330 1.24200
Co	Co	0.28080 0.50000 0.15670 1.23500
Co	Co	0.50000 0.15670 0.71920 1.23600
Co	Co	0.50000 0.84330 0.28080 1.24100
Co	Co	0.50000 0.15670 0.28080 1.23500
Co	Co	0.50000 0.84330 0.71920 1.24200
O 	O 	0.17360 0.17360 0.50000 -0.53200
O 	O 	0.82640 0.82640 0.50000 -0.46300
O 	O 	0.82640 0.17360 0.50000 -0.49700
O 	O 	0.17360 0.82640 0.50000 -0.49700
O 	O 	0.50000 0.17360 0.17360 -0.53200
O 	O 	0.50000 0.82640 0.82640 -0.46300
O 	O 	0.50000 0.82640 0.17360 -0.49700
O 	O 	0.50000 0.17360 0.82640 -0.49700
O 	O 	0.17360 0.50000 0.17360 -0.53200
O 	O 	0.82640 0.50000 0.82640 -0.46300
O 	O 	0.17360 0.50000 0.82640 -0.49700
O 	O 	0.82640 0.50000 0.17360 -0.49700
