data_crystal

_cell_length_a 7.17000
_cell_length_b 7.17000
_cell_length_c 13.66200
_cell_angle_alpha 90.00000
_cell_angle_beta  90.00000
_cell_angle_gamma 90.00000

_symmetry_space_group_name_	'P 1'
_symmetry_space_group_name_H-M	'P 1'

loop_
_symmetry_equiv_pos_as_xyz
  x,y,z

loop_
_atom_site_label
_atom_site_type_symbol
_atom_site_fract_x
_atom_site_fract_y
_atom_site_fract_z
_atom_site_charge
Pt	Pt	0.50000 0.50000 0.50000 0.30600
Fe	Fe	-0.00000 -0.00000 0.50000 1.14100
N 	N 	-0.00000 0.00000 0.64610 -0.27700
C 	C 	0.00000 0.00000 0.85180 -0.05100
C 	C 	-0.00000 -0.00000 0.95760 -0.01600
N 	N 	-0.00000 -0.00000 0.35390 -0.27600
C 	C 	-0.00000 -0.00000 0.14820 -0.05000
C 	C 	-0.00000 0.00000 0.04240 -0.01600
N 	N 	0.80920 0.19080 0.50000 -0.23000
C 	C 	0.69560 0.30440 0.50000 -0.00100
N 	N 	0.19080 0.80920 0.50000 -0.23000
C 	C 	0.30440 0.69560 0.50000 -0.00100
N 	N 	0.80920 0.80920 0.50000 -0.20900
C 	C 	0.69560 0.69560 0.50000 0.01300
N 	N 	0.19080 0.19080 0.50000 -0.25300
C 	C 	0.30440 0.30440 0.50000 -0.01400
C 	C 	0.83870 0.00000 0.69500 0.04000
C 	C 	0.83420 0.00000 0.79890 0.02400
C 	C 	0.16130 0.00000 0.69500 -0.00200
C 	C 	0.16580 0.00000 0.79890 -0.02100
C 	C 	-0.00000 0.83870 0.69500 0.04000
C 	C 	-0.00000 0.83420 0.79890 0.02400
C 	C 	0.00000 0.16130 0.69500 -0.00200
C 	C 	0.00000 0.16580 0.79890 -0.02100
C 	C 	0.16130 -0.00000 0.30500 -0.00200
C 	C 	0.16580 0.00000 0.20110 -0.02100
C 	C 	0.83870 -0.00000 0.30500 0.04000
C 	C 	0.83420 0.00000 0.20110 0.02400
C 	C 	0.00000 0.83870 0.30500 0.04000
C 	C 	-0.00000 0.83420 0.20110 0.02400
C 	C 	-0.00000 0.16130 0.30500 -0.00200
C 	C 	-0.00000 0.16580 0.20110 -0.02100
