data_crystal

_cell_length_a 25.75420
_cell_length_b 25.75420
_cell_length_c 6.75500
_cell_angle_alpha 90.00000
_cell_angle_beta  90.00000
_cell_angle_gamma 120.00000

_symmetry_space_group_name_	'P 1'
_symmetry_space_group_name_H-M	'P 1'

loop_
_symmetry_equiv_pos_as_xyz
  x,y,z

loop_
_atom_site_label
_atom_site_type_symbol
_atom_site_fract_x
_atom_site_fract_y
_atom_site_fract_z
_atom_site_charge
Ni	Ni	0.61862 0.64787 0.35290 1.10100
O 	O 	0.43786 0.40771 0.43705 -0.42100
O 	O 	0.36879 0.36541 0.21820 -0.58200
O 	O 	0.61356 0.58369 0.15751 -0.50800
C 	C 	0.41774 0.40726 0.25516 0.41000
C 	C 	0.46225 0.45323 0.11848 -0.17600
C 	C 	0.55904 0.54874 0.07910 0.17200
C 	C 	0.51743 0.49729 0.19457 -0.06800
H 	H 	0.52800 0.49324 0.32766 0.07200
Ni	Ni	0.28529 0.98120 0.68623 1.10100
O 	O 	0.10453 0.74104 0.77038 -0.42100
O 	O 	0.03546 0.69874 0.55153 -0.58200
O 	O 	0.28023 0.91702 0.49084 -0.50800
C 	C 	0.08441 0.74059 0.58849 0.41000
C 	C 	0.12892 0.78656 0.45181 -0.17600
C 	C 	0.22571 0.88207 0.41243 0.17200
C 	C 	0.18410 0.83062 0.52790 -0.06800
H 	H 	0.19467 0.82657 0.66099 0.07200
Ni	Ni	0.95195 0.31454 0.01957 1.10100
O 	O 	0.77119 0.07438 0.10372 -0.42100
O 	O 	0.70212 0.03208 0.88487 -0.58200
O 	O 	0.94689 0.25036 0.82418 -0.50700
C 	C 	0.75107 0.07393 0.92183 0.41000
C 	C 	0.79558 0.11990 0.78515 -0.17600
C 	C 	0.89237 0.21541 0.74577 0.17200
C 	C 	0.85076 0.16396 0.86124 -0.06800
H 	H 	0.86133 0.15991 0.99433 0.07200
Ni	Ni	0.35213 0.97075 0.35290 1.10100
O 	O 	0.59229 0.03015 0.43705 -0.42100
O 	O 	0.63459 0.00338 0.21820 -0.58200
O 	O 	0.41631 0.02987 0.15751 -0.50800
C 	C 	0.59274 0.01048 0.25516 0.41000
C 	C 	0.54677 0.00902 0.11848 -0.17600
C 	C 	0.45126 0.01030 0.07910 0.17200
C 	C 	0.50271 0.02014 0.19457 -0.06800
H 	H 	0.50676 0.03476 0.32766 0.07200
Ni	Ni	0.01880 0.30408 0.68623 1.10100
O 	O 	0.25896 0.36348 0.77038 -0.42100
O 	O 	0.30126 0.33671 0.55153 -0.58200
O 	O 	0.08298 0.36320 0.49084 -0.50800
C 	C 	0.25941 0.34381 0.58849 0.41000
C 	C 	0.21344 0.34235 0.45181 -0.17700
C 	C 	0.11793 0.34363 0.41243 0.17200
C 	C 	0.16938 0.35347 0.52790 -0.06800
H 	H 	0.17343 0.36809 0.66099 0.07200
Ni	Ni	0.68546 0.63742 0.01957 1.10100
O 	O 	0.92562 0.69682 0.10372 -0.42100
O 	O 	0.96792 0.67005 0.88487 -0.58200
O 	O 	0.74964 0.69654 0.82418 -0.50800
C 	C 	0.92607 0.67715 0.92183 0.41000
C 	C 	0.88010 0.67569 0.78515 -0.17600
C 	C 	0.78459 0.67697 0.74577 0.17200
C 	C 	0.83604 0.68681 0.86124 -0.06800
H 	H 	0.84009 0.70143 0.99433 0.07200
Ni	Ni	0.02925 0.38138 0.35290 1.10100
O 	O 	0.96985 0.56214 0.43705 -0.42100
O 	O 	0.99662 0.63121 0.21820 -0.58200
O 	O 	0.97013 0.38644 0.15751 -0.50800
C 	C 	0.98952 0.58226 0.25516 0.41000
C 	C 	0.99098 0.53775 0.11848 -0.17600
C 	C 	0.98970 0.44096 0.07910 0.17200
C 	C 	0.97986 0.48257 0.19457 -0.06800
H 	H 	0.96524 0.47200 0.32766 0.07200
Ni	Ni	0.69592 0.71471 0.68623 1.10100
O 	O 	0.63652 0.89547 0.77038 -0.42100
O 	O 	0.66329 0.96454 0.55153 -0.58200
O 	O 	0.63680 0.71977 0.49084 -0.50800
C 	C 	0.65619 0.91559 0.58849 0.41000
C 	C 	0.65765 0.87108 0.45181 -0.17600
C 	C 	0.65637 0.77429 0.41243 0.17200
C 	C 	0.64653 0.81590 0.52790 -0.06800
H 	H 	0.63191 0.80533 0.66099 0.07200
Ni	Ni	0.36258 0.04805 0.01957 1.10100
O 	O 	0.30318 0.22881 0.10372 -0.42100
O 	O 	0.32995 0.29788 0.88487 -0.58200
O 	O 	0.30346 0.05311 0.82418 -0.50700
C 	C 	0.32285 0.24893 0.92183 0.40900
C 	C 	0.32431 0.20442 0.78515 -0.17600
C 	C 	0.32303 0.10763 0.74577 0.17200
C 	C 	0.31319 0.14924 0.86124 -0.06800
H 	H 	0.29857 0.13867 0.99433 0.07200
Ni	Ni	0.38138 0.35213 0.64710 1.10100
O 	O 	0.56214 0.59229 0.56295 -0.42100
O 	O 	0.63121 0.63459 0.78180 -0.58200
O 	O 	0.38644 0.41631 0.84249 -0.50800
C 	C 	0.58226 0.59274 0.74484 0.41000
C 	C 	0.53775 0.54677 0.88152 -0.17600
C 	C 	0.44096 0.45126 0.92090 0.17200
C 	C 	0.48257 0.50271 0.80543 -0.06800
H 	H 	0.47200 0.50676 0.67234 0.07200
Ni	Ni	0.04805 0.68546 0.98043 1.10100
O 	O 	0.22881 0.92562 0.89628 -0.42100
O 	O 	0.29788 0.96792 0.11513 -0.58200
O 	O 	0.05311 0.74964 0.17582 -0.50700
C 	C 	0.24893 0.92607 0.07817 0.41000
C 	C 	0.20442 0.88010 0.21485 -0.17600
C 	C 	0.10763 0.78459 0.25423 0.17200
C 	C 	0.14924 0.83604 0.13876 -0.06800
H 	H 	0.13867 0.84009 0.00567 0.07200
Ni	Ni	0.71471 0.01880 0.31377 1.10100
O 	O 	0.89547 0.25896 0.22962 -0.42100
O 	O 	0.96454 0.30126 0.44847 -0.58200
O 	O 	0.71977 0.08298 0.50916 -0.50800
C 	C 	0.91559 0.25941 0.41151 0.41000
C 	C 	0.87108 0.21344 0.54819 -0.17600
C 	C 	0.77429 0.11793 0.58757 0.17200
C 	C 	0.81590 0.16938 0.47210 -0.06800
H 	H 	0.80533 0.17343 0.33901 0.07200
Ni	Ni	0.64787 0.02925 0.64710 1.10100
O 	O 	0.40771 0.96985 0.56295 -0.42100
O 	O 	0.36541 0.99662 0.78180 -0.58200
O 	O 	0.58369 0.97013 0.84249 -0.50800
C 	C 	0.40726 0.98952 0.74484 0.41000
C 	C 	0.45323 0.99098 0.88152 -0.17600
C 	C 	0.54874 0.98970 0.92090 0.17200
C 	C 	0.49729 0.97986 0.80543 -0.06800
H 	H 	0.49324 0.96524 0.67234 0.07200
Ni	Ni	0.31454 0.36258 0.98043 1.10100
O 	O 	0.07438 0.30318 0.89628 -0.42100
O 	O 	0.03208 0.32995 0.11513 -0.58200
O 	O 	0.25036 0.30346 0.17582 -0.50800
C 	C 	0.07393 0.32285 0.07817 0.41000
C 	C 	0.11990 0.32431 0.21485 -0.17600
C 	C 	0.21541 0.32303 0.25423 0.17200
C 	C 	0.16396 0.31319 0.13876 -0.06800
H 	H 	0.15991 0.29857 0.00567 0.07200
Ni	Ni	0.98120 0.69592 0.31377 1.10100
O 	O 	0.74104 0.63652 0.22962 -0.42100
O 	O 	0.69874 0.66329 0.44847 -0.58200
O 	O 	0.91702 0.63680 0.50916 -0.50800
C 	C 	0.74059 0.65619 0.41151 0.41000
C 	C 	0.78656 0.65765 0.54819 -0.17700
C 	C 	0.88207 0.65637 0.58757 0.17200
C 	C 	0.83062 0.64653 0.47210 -0.06800
H 	H 	0.82657 0.63191 0.33901 0.07200
Ni	Ni	0.97075 0.61862 0.64710 1.10100
O 	O 	0.03015 0.43786 0.56295 -0.42100
O 	O 	0.00338 0.36879 0.78180 -0.58200
O 	O 	0.02987 0.61356 0.84249 -0.50800
C 	C 	0.01048 0.41774 0.74484 0.41000
C 	C 	0.00902 0.46225 0.88152 -0.17600
C 	C 	0.01030 0.55904 0.92090 0.17200
C 	C 	0.02014 0.51743 0.80543 -0.06800
H 	H 	0.03476 0.52800 0.67234 0.07200
Ni	Ni	0.63742 0.95195 0.98043 1.10100
O 	O 	0.69682 0.77119 0.89628 -0.42100
O 	O 	0.67005 0.70212 0.11513 -0.58200
O 	O 	0.69654 0.94689 0.17582 -0.50700
C 	C 	0.67715 0.75107 0.07817 0.40900
C 	C 	0.67569 0.79558 0.21485 -0.17600
C 	C 	0.67697 0.89237 0.25423 0.17200
C 	C 	0.68681 0.85076 0.13876 -0.06800
H 	H 	0.70143 0.86133 0.00567 0.07200
Ni	Ni	0.30408 0.28529 0.31377 1.10100
O 	O 	0.36348 0.10453 0.22962 -0.42100
O 	O 	0.33671 0.03546 0.44847 -0.58200
O 	O 	0.36320 0.28023 0.50916 -0.50800
C 	C 	0.34381 0.08441 0.41151 0.41000
C 	C 	0.34235 0.12892 0.54819 -0.17600
C 	C 	0.34363 0.22571 0.58757 0.17200
C 	C 	0.35347 0.18410 0.47210 -0.06800
H 	H 	0.36809 0.19467 0.33901 0.07200
