data_crystal

_cell_length_a 25.76110
_cell_length_b 25.76110
_cell_length_c 6.75650
_cell_angle_alpha 90.00000
_cell_angle_beta  90.00000
_cell_angle_gamma 120.00000

_symmetry_space_group_name_	'P 1'
_symmetry_space_group_name_H-M	'P 1'

loop_
_symmetry_equiv_pos_as_xyz
  x,y,z

loop_
_atom_site_label
_atom_site_type_symbol
_atom_site_fract_x
_atom_site_fract_y
_atom_site_fract_z
_atom_site_charge
Ni	Ni	0.61749 0.64832 0.35370 1.10500
O 	O 	0.43692 0.40746 0.43097 -0.42100
O 	O 	0.36788 0.36529 0.21197 -0.57500
O 	O 	0.61137 0.58552 0.15552 -0.51600
C 	C 	0.41661 0.40737 0.24968 0.41200
C 	C 	0.46076 0.45409 0.11412 -0.19000
C 	C 	0.55692 0.55036 0.07689 0.19100
C 	C 	0.51575 0.49831 0.19087 -0.06800
H 	H 	0.52650 0.49396 0.32337 0.07100
Ni	Ni	0.28416 0.98165 0.68703 1.10500
O 	O 	0.10359 0.74079 0.76430 -0.42200
O 	O 	0.03455 0.69862 0.54530 -0.57500
O 	O 	0.27804 0.91885 0.48885 -0.51700
C 	C 	0.08328 0.74070 0.58301 0.41100
C 	C 	0.12743 0.78742 0.44745 -0.19200
C 	C 	0.22359 0.88369 0.41022 0.19000
C 	C 	0.18242 0.83164 0.52420 -0.06900
H 	H 	0.19317 0.82729 0.65670 0.07000
Ni	Ni	0.95082 0.31499 0.02037 1.10300
O 	O 	0.77025 0.07413 0.09764 -0.42300
O 	O 	0.70121 0.03196 0.87864 -0.57600
O 	O 	0.94470 0.25219 0.82219 -0.51600
C 	C 	0.74994 0.07404 0.91635 0.41200
C 	C 	0.79409 0.12076 0.78079 -0.19200
C 	C 	0.89025 0.21703 0.74356 0.19000
C 	C 	0.84908 0.16498 0.85754 -0.06900
H 	H 	0.85983 0.16063 0.99004 0.07000
Ni	Ni	0.35168 0.96917 0.35370 1.10400
O 	O 	0.59254 0.02946 0.43097 -0.42200
O 	O 	0.63471 0.00259 0.21197 -0.57600
O 	O 	0.41448 0.02585 0.15552 -0.51700
C 	C 	0.59263 0.00924 0.24968 0.41100
C 	C 	0.54591 0.00667 0.11412 -0.19100
C 	C 	0.44964 0.00656 0.07689 0.19000
C 	C 	0.50169 0.01744 0.19087 -0.06900
H 	H 	0.50604 0.03254 0.32337 0.07000
Ni	Ni	0.01835 0.30250 0.68703 1.10400
O 	O 	0.25921 0.36279 0.76430 -0.42200
O 	O 	0.30138 0.33592 0.54530 -0.57600
O 	O 	0.08115 0.35918 0.48885 -0.51700
C 	C 	0.25930 0.34257 0.58301 0.41100
C 	C 	0.21258 0.34000 0.44745 -0.19200
C 	C 	0.11631 0.33989 0.41022 0.19000
C 	C 	0.16836 0.35077 0.52420 -0.06900
H 	H 	0.17271 0.36587 0.65670 0.07000
Ni	Ni	0.68501 0.63584 0.02037 1.10400
O 	O 	0.92587 0.69613 0.09764 -0.42200
O 	O 	0.96804 0.66926 0.87864 -0.57600
O 	O 	0.74781 0.69252 0.82219 -0.51600
C 	C 	0.92596 0.67591 0.91635 0.41100
C 	C 	0.87924 0.67334 0.78079 -0.19200
C 	C 	0.78297 0.67323 0.74356 0.19000
C 	C 	0.83502 0.68411 0.85754 -0.06900
H 	H 	0.83937 0.69921 0.99004 0.07000
Ni	Ni	0.03083 0.38251 0.35370 1.10400
O 	O 	0.97054 0.56308 0.43097 -0.42200
O 	O 	0.99741 0.63212 0.21197 -0.57600
O 	O 	0.97415 0.38863 0.15552 -0.51700
C 	C 	0.99076 0.58339 0.24968 0.41100
C 	C 	0.99333 0.53924 0.11412 -0.19100
C 	C 	0.99344 0.44308 0.07689 0.19000
C 	C 	0.98256 0.48425 0.19087 -0.06900
H 	H 	0.96746 0.47350 0.32337 0.07000
Ni	Ni	0.69750 0.71584 0.68703 1.10400
O 	O 	0.63721 0.89641 0.76430 -0.42200
O 	O 	0.66408 0.96545 0.54530 -0.57600
O 	O 	0.64082 0.72196 0.48885 -0.51700
C 	C 	0.65743 0.91672 0.58301 0.41100
C 	C 	0.66000 0.87257 0.44745 -0.19200
C 	C 	0.66011 0.77641 0.41022 0.19000
C 	C 	0.64923 0.81758 0.52420 -0.06900
H 	H 	0.63413 0.80683 0.65670 0.07000
Ni	Ni	0.36416 0.04918 0.02037 1.10300
O 	O 	0.30387 0.22975 0.09764 -0.42200
O 	O 	0.33074 0.29879 0.87864 -0.57600
O 	O 	0.30748 0.05530 0.82219 -0.51600
C 	C 	0.32409 0.25006 0.91635 0.41100
C 	C 	0.32666 0.20591 0.78079 -0.19200
C 	C 	0.32677 0.10975 0.74356 0.19000
C 	C 	0.31589 0.15092 0.85754 -0.06900
H 	H 	0.30079 0.14017 0.99004 0.07000
Ni	Ni	0.38251 0.35168 0.64630 1.10400
O 	O 	0.56308 0.59254 0.56903 -0.42200
O 	O 	0.63212 0.63471 0.78803 -0.57600
O 	O 	0.38863 0.41448 0.84448 -0.51700
C 	C 	0.58339 0.59263 0.75032 0.41100
C 	C 	0.53924 0.54591 0.88588 -0.19100
C 	C 	0.44308 0.44964 0.92311 0.19000
C 	C 	0.48425 0.50169 0.80913 -0.06900
H 	H 	0.47350 0.50604 0.67663 0.07000
Ni	Ni	0.04918 0.68501 0.97963 1.10300
O 	O 	0.22975 0.92587 0.90236 -0.42300
O 	O 	0.29879 0.96804 0.12136 -0.57600
O 	O 	0.05530 0.74781 0.17781 -0.51600
C 	C 	0.25006 0.92596 0.08365 0.41200
C 	C 	0.20591 0.87924 0.21921 -0.19200
C 	C 	0.10975 0.78297 0.25644 0.19000
C 	C 	0.15092 0.83502 0.14246 -0.06900
H 	H 	0.14017 0.83937 0.00996 0.07000
Ni	Ni	0.71584 0.01835 0.31297 1.10400
O 	O 	0.89641 0.25921 0.23570 -0.42300
O 	O 	0.96545 0.30138 0.45470 -0.57600
O 	O 	0.72196 0.08115 0.51115 -0.51700
C 	C 	0.91672 0.25930 0.41699 0.41100
C 	C 	0.87257 0.21258 0.55255 -0.19200
C 	C 	0.77641 0.11631 0.58978 0.19000
C 	C 	0.81758 0.16836 0.47580 -0.06900
H 	H 	0.80683 0.17271 0.34330 0.07000
Ni	Ni	0.64832 0.03083 0.64630 1.10400
O 	O 	0.40746 0.97054 0.56903 -0.42200
O 	O 	0.36529 0.99741 0.78803 -0.57600
O 	O 	0.58552 0.97415 0.84448 -0.51700
C 	C 	0.40737 0.99076 0.75032 0.41100
C 	C 	0.45409 0.99333 0.88588 -0.19100
C 	C 	0.55036 0.99344 0.92311 0.19000
C 	C 	0.49831 0.98256 0.80913 -0.06900
H 	H 	0.49396 0.96746 0.67663 0.07000
Ni	Ni	0.31499 0.36416 0.97963 1.10400
O 	O 	0.07413 0.30387 0.90236 -0.42200
O 	O 	0.03196 0.33074 0.12136 -0.57600
O 	O 	0.25219 0.30748 0.17781 -0.51600
C 	C 	0.07404 0.32409 0.08365 0.41100
C 	C 	0.12076 0.32666 0.21921 -0.19200
C 	C 	0.21703 0.32677 0.25644 0.19000
C 	C 	0.16498 0.31589 0.14246 -0.06900
H 	H 	0.16063 0.30079 0.00996 0.07000
Ni	Ni	0.98165 0.69750 0.31297 1.10400
O 	O 	0.74079 0.63721 0.23570 -0.42200
O 	O 	0.69862 0.66408 0.45470 -0.57600
O 	O 	0.91885 0.64082 0.51115 -0.51700
C 	C 	0.74070 0.65743 0.41699 0.41100
C 	C 	0.78742 0.66000 0.55255 -0.19200
C 	C 	0.88369 0.66011 0.58978 0.19000
C 	C 	0.83164 0.64923 0.47580 -0.06900
H 	H 	0.82729 0.63413 0.34330 0.07000
Ni	Ni	0.96917 0.61749 0.64630 1.10400
O 	O 	0.02946 0.43692 0.56903 -0.42200
O 	O 	0.00259 0.36788 0.78803 -0.57600
O 	O 	0.02585 0.61137 0.84448 -0.51700
C 	C 	0.00924 0.41661 0.75032 0.41100
C 	C 	0.00667 0.46076 0.88588 -0.19100
C 	C 	0.00656 0.55692 0.92311 0.19000
C 	C 	0.01744 0.51575 0.80913 -0.06900
H 	H 	0.03254 0.52650 0.67663 0.07000
Ni	Ni	0.63584 0.95082 0.97963 1.10300
O 	O 	0.69613 0.77025 0.90236 -0.42200
O 	O 	0.66926 0.70121 0.12136 -0.57600
O 	O 	0.69252 0.94470 0.17781 -0.51600
C 	C 	0.67591 0.74994 0.08365 0.41100
C 	C 	0.67334 0.79409 0.21921 -0.19200
C 	C 	0.67323 0.89025 0.25644 0.19000
C 	C 	0.68411 0.84908 0.14246 -0.06900
H 	H 	0.69921 0.85983 0.00996 0.07000
Ni	Ni	0.30250 0.28416 0.31297 1.10400
O 	O 	0.36279 0.10359 0.23570 -0.42200
O 	O 	0.33592 0.03455 0.45470 -0.57600
O 	O 	0.35918 0.27804 0.51115 -0.51700
C 	C 	0.34257 0.08328 0.41699 0.41100
C 	C 	0.34000 0.12743 0.55255 -0.19200
C 	C 	0.33989 0.22359 0.58978 0.19000
C 	C 	0.35077 0.18242 0.47580 -0.06900
H 	H 	0.36587 0.19317 0.34330 0.07000
