data_crystal

_cell_length_a 11.40950
_cell_length_b 12.99480
_cell_length_c 23.10300
_cell_angle_alpha 90.00000
_cell_angle_beta  90.00000
_cell_angle_gamma 111.62800

_symmetry_space_group_name_	'P 1'
_symmetry_space_group_name_H-M	'P 1'

loop_
_symmetry_equiv_pos_as_xyz
  x,y,z

loop_
_atom_site_label
_atom_site_type_symbol
_atom_site_fract_x
_atom_site_fract_y
_atom_site_fract_z
_atom_site_charge
Cu	Cu	0.44450 0.96480 0.55670 0.88000
Cu	Cu	0.69570 0.31400 0.06140 0.88300
Cu	Cu	0.75540 0.83240 0.02800 0.83200
Cu	Cu	0.36570 0.43940 0.51500 0.87800
Cu	Cu	0.05800 0.97480 0.68078 0.84700
Cu	Cu	0.96090 0.20740 0.24680 0.79700
Cu	Cu	0.94450 0.46480 0.44330 0.88800
Cu	Cu	0.19570 0.81400 0.93860 0.88100
Cu	Cu	0.25540 0.33240 0.97200 0.83600
Cu	Cu	0.86570 0.93940 0.48500 0.87100
Cu	Cu	0.55800 0.47480 0.31922 0.85800
Cu	Cu	0.46090 0.70740 0.75320 0.79400
H 	H 	0.27810 0.72620 0.61480 -0.00100
H 	H 	0.57480 0.17540 0.48070 0.03100
H 	H 	0.82790 0.01460 0.10320 -0.03900
H 	H 	0.18660 0.30940 0.18050 0.00500
H 	H 	0.59420 0.93520 0.97320 -0.01100
H 	H 	0.56780 0.10620 0.98510 0.02200
H 	H 	0.26400 0.55630 0.59520 0.00500
H 	H 	0.54870 0.66660 0.48880 -0.00800
H 	H 	0.54180 0.33200 0.47290 0.00600
H 	H 	0.27970 0.23990 0.59040 0.01500
H 	H 	0.86030 0.52770 0.11330 0.00600
H 	H 	0.88500 0.70980 0.09870 0.00400
H 	H 	0.40010 0.41480 0.20250 -0.02000
H 	H 	0.59640 0.61420 0.99350 -0.01200
H 	H 	0.11440 0.31920 0.34710 -0.02300
H 	H 	0.77810 0.22620 0.38520 0.00100
H 	H 	0.07480 0.67540 0.51930 0.03100
H 	H 	0.32790 0.51460 0.89680 -0.03800
H 	H 	0.68660 0.80940 0.81950 0.00300
H 	H 	0.09420 0.43520 0.02680 -0.02000
H 	H 	0.06780 0.60620 0.01490 0.03000
H 	H 	0.76400 0.05630 0.40480 0.01300
H 	H 	0.04870 0.16660 0.51120 -0.00200
H 	H 	0.04180 0.83200 0.52710 -0.00700
H 	H 	0.77970 0.73990 0.40960 0.01100
H 	H 	0.36030 0.02770 0.88670 0.00400
H 	H 	0.38500 0.20980 0.90130 0.01100
H 	H 	0.90010 0.91480 0.79750 -0.02200
H 	H 	0.09640 0.11420 0.00650 -0.02000
H 	H 	0.61440 0.81920 0.65290 -0.02400
C 	C 	0.53900 0.39400 0.00410 0.27400
C 	C 	0.33400 0.71600 0.58830 -0.01900
C 	C 	0.50000 0.78700 0.51970 -0.13000
C 	C 	0.51600 0.18800 0.50440 -0.01400
C 	C 	0.84000 0.23000 0.12080 0.32600
C 	C 	0.78000 0.14200 0.08180 -0.13700
C 	C 	0.78100 0.03800 0.07690 0.10100
C 	C 	0.21300 0.32900 0.21840 -0.03400
C 	C 	0.64000 0.98700 0.00080 -0.02500
C 	C 	0.62600 0.09000 0.00750 0.01000
C 	C 	0.32500 0.61400 0.57620 -0.00900
C 	C 	0.49000 0.67900 0.51280 0.07700
C 	C 	0.49300 0.28200 0.50050 0.00900
C 	C 	0.34300 0.23200 0.56750 0.02300
C 	C 	0.35300 0.40600 0.39110 0.31100
C 	C 	0.29400 0.37500 0.33380 -0.11100
C 	C 	0.64200 0.49300 0.03400 -0.04800
C 	C 	0.58700 0.88500 0.49180 0.39400
C 	C 	0.80700 0.54500 0.08810 0.00800
C 	C 	0.82000 0.65400 0.07990 -0.00500
C 	C 	0.34200 0.38800 0.23240 0.00500
C 	C 	0.65100 0.60100 0.01960 0.01300
C 	C 	0.17400 0.33100 0.31770 0.06100
C 	C 	0.36700 0.13400 0.57100 -0.07400
C 	C 	0.27900 0.04500 0.61480 0.42600
C 	C 	0.03900 0.89400 0.99590 0.27400
C 	C 	0.83400 0.21600 0.41170 -0.01600
C 	C 	-0.00000 0.28700 0.48030 -0.12500
C 	C 	0.01600 0.68800 0.49560 -0.03400
C 	C 	0.34000 0.73000 0.87920 0.32400
C 	C 	0.28000 0.64200 0.91820 -0.13500
C 	C 	0.28100 0.53800 0.92310 0.07500
C 	C 	0.71300 0.82900 0.78160 -0.03600
C 	C 	0.14000 0.48700 0.99920 0.01800
C 	C 	0.12600 0.59000 0.99250 -0.03400
C 	C 	0.82500 0.11400 0.42380 -0.00600
C 	C 	0.99000 0.17900 0.48720 0.07800
C 	C 	0.99300 0.78200 0.49950 0.02500
C 	C 	0.84300 0.73200 0.43250 0.01900
C 	C 	0.85300 0.90600 0.60890 0.31100
C 	C 	0.79400 0.87500 0.66620 -0.11400
C 	C 	0.14200 0.99300 0.96600 -0.08700
C 	C 	0.08700 0.38500 0.50820 0.39200
C 	C 	0.30700 0.04500 0.91190 0.04600
C 	C 	0.32000 0.15400 0.92010 -0.01200
C 	C 	0.84200 0.88800 0.76760 0.00300
C 	C 	0.15100 0.10100 0.98040 0.05700
C 	C 	0.67400 0.83100 0.68230 0.05900
C 	C 	0.86700 0.63400 0.42900 -0.07500
C 	C 	0.77900 0.54500 0.38520 0.39000
N 	N 	0.74200 0.68100 0.04510 -0.23500
N 	N 	0.12800 0.30100 0.26420 -0.25500
N 	N 	0.71700 0.96900 0.03550 -0.25600
N 	N 	0.42300 0.80900 0.56350 -0.19400
N 	N 	0.45100 0.11300 0.54330 -0.18900
N 	N 	0.38300 0.40600 0.28610 -0.21300
N 	N 	0.41200 0.31800 0.53040 -0.23800
N 	N 	0.72200 0.47000 0.06130 -0.21300
N 	N 	0.69800 0.16700 0.04550 -0.19300
N 	N 	0.40200 0.58900 0.53740 -0.24200
N 	N 	0.24200 0.18100 0.95490 -0.23800
N 	N 	0.62800 0.80100 0.73580 -0.25700
N 	N 	0.21700 0.46900 0.96450 -0.24800
N 	N 	0.92300 0.30900 0.43650 -0.19400
N 	N 	0.95100 0.61300 0.45670 -0.19500
N 	N 	0.88300 0.90600 0.71390 -0.21400
N 	N 	0.91200 0.81800 0.46960 -0.24300
N 	N 	0.22200 0.97000 0.93870 -0.22700
N 	N 	0.19800 0.66700 0.95450 -0.19000
N 	N 	0.90200 0.08900 0.46260 -0.23300
O 	O 	0.44900 0.40900 0.97950 -0.40000
O 	O 	0.55500 0.29900 0.01260 -0.40900
O 	O 	0.92300 0.21700 0.15680 -0.40900
O 	O 	0.82400 0.31900 0.11800 -0.44000
O 	O 	0.47300 0.45800 0.39450 -0.42600
O 	O 	0.27800 0.39500 0.43080 -0.37400
O 	O 	0.21080 0.06480 0.64560 -0.48900
O 	O 	0.30380 0.95680 0.60810 -0.48600
O 	O 	0.66040 0.86780 0.45930 -0.39700
O 	O 	0.57900 0.97500 0.50300 -0.45500
O 	O 	0.94900 0.90900 0.02050 -0.40600
O 	O 	0.05500 0.79900 0.98740 -0.41500
O 	O 	0.42300 0.71700 0.84320 -0.41300
O 	O 	0.32400 0.81900 0.88200 -0.44700
O 	O 	0.97300 0.95800 0.60550 -0.43300
O 	O 	0.77800 0.89500 0.56920 -0.37700
O 	O 	0.71080 0.56480 0.35440 -0.49500
O 	O 	0.80380 0.45680 0.39190 -0.45700
O 	O 	0.16040 0.36780 0.54070 -0.38800
O 	O 	0.07900 0.47500 0.49700 -0.44200
