data_crystal

_cell_length_a 28.63150
_cell_length_b 9.27430
_cell_length_c 9.28330
_cell_angle_alpha 90.00000
_cell_angle_beta  116.61500
_cell_angle_gamma 90.00000

_symmetry_space_group_name_	'P 1'
_symmetry_space_group_name_H-M	'P 1'

loop_
_symmetry_equiv_pos_as_xyz
  x,y,z

loop_
_atom_site_label
_atom_site_type_symbol
_atom_site_fract_x
_atom_site_fract_y
_atom_site_fract_z
_atom_site_charge
Cu	Cu	0.18764 0.82690 0.31030 0.88900
O 	O 	0.12710 0.06640 0.33400 -0.28000
O 	O 	0.13720 0.17600 0.56210 -0.34500
N 	N 	0.22080 0.01100 0.73290 -0.16100
N 	N 	0.25770 0.90820 0.78840 -0.05400
N 	N 	0.25120 0.82470 0.66520 -0.13000
N 	N 	0.21090 0.87220 0.53260 -0.18900
N 	N 	0.14220 0.66140 0.31890 -0.23200
C 	C 	0.14820 0.08440 0.48050 0.27100
C 	C 	0.19280 0.98640 0.57670 0.01700
C 	C 	0.11100 0.71980 0.37720 0.10400
C 	C 	0.07400 0.64380 0.40470 -0.22200
C 	C 	0.06917 0.49740 0.36890 0.22200
C 	C 	0.10070 0.43350 0.30860 -0.23300
C 	C 	0.13660 0.51930 0.28540 0.12700
C 	C 	0.02973 0.40770 0.39570 -0.38900
H 	H 	0.11471 0.82105 0.40141 -0.01400
H 	H 	0.05266 0.69030 0.44649 0.10400
H 	H 	0.09778 0.33250 0.28353 0.13300
H 	H 	0.15835 0.47530 0.24373 0.00000
H 	H 	0.04751 0.34796 0.48906 0.15900
H 	H 	0.00576 0.47011 0.41195 0.13900
H 	H 	0.02411 0.25380 0.23120 -0.01500
Cu	Cu	0.68764 0.32690 0.31030 0.88800
O 	O 	0.62710 0.56640 0.33400 -0.27900
O 	O 	0.63720 0.67600 0.56210 -0.34500
N 	N 	0.72080 0.51100 0.73290 -0.16000
N 	N 	0.75770 0.40820 0.78840 -0.05400
N 	N 	0.75120 0.32470 0.66520 -0.13000
N 	N 	0.71090 0.37220 0.53260 -0.18900
N 	N 	0.64220 0.16140 0.31890 -0.23400
C 	C 	0.64820 0.58440 0.48050 0.27100
C 	C 	0.69280 0.48640 0.57670 0.01700
C 	C 	0.61100 0.21980 0.37720 0.10900
C 	C 	0.57400 0.14380 0.40470 -0.23100
C 	C 	0.56917 0.99740 0.36890 0.23900
C 	C 	0.60070 0.93350 0.30860 -0.24400
C 	C 	0.63660 0.01930 0.28540 0.13400
C 	C 	0.52973 0.90770 0.39570 -0.42800
H 	H 	0.61471 0.32105 0.40141 -0.01500
H 	H 	0.55266 0.19030 0.44649 0.10900
H 	H 	0.59778 0.83250 0.28353 0.13700
H 	H 	0.65835 0.97530 0.24373 -0.00200
H 	H 	0.54751 0.84796 0.48906 0.17200
H 	H 	0.50576 0.97011 0.41195 0.15400
H 	H 	0.52411 0.75380 0.23120 -0.03200
Cu	Cu	0.81236 0.82690 0.18970 0.88800
O 	O 	0.87290 0.06640 0.16600 -0.27900
O 	O 	0.86280 0.17600 0.93790 -0.34500
N 	N 	0.77920 0.01100 0.76710 -0.16100
N 	N 	0.74230 0.90820 0.71160 -0.05400
N 	N 	0.74880 0.82470 0.83480 -0.13000
N 	N 	0.78910 0.87220 0.96740 -0.18900
N 	N 	0.85780 0.66140 0.18110 -0.23200
C 	C 	0.85180 0.08440 0.01950 0.27300
C 	C 	0.80720 0.98640 0.92330 0.01700
C 	C 	0.88900 0.71980 0.12280 0.10500
C 	C 	0.92600 0.64380 0.09530 -0.22200
C 	C 	0.93083 0.49740 0.13110 0.22500
C 	C 	0.89930 0.43350 0.19140 -0.23300
C 	C 	0.86340 0.51930 0.21460 0.12800
C 	C 	0.97027 0.40770 0.10430 -0.38500
H 	H 	0.88529 0.82105 0.09859 -0.01400
H 	H 	0.94734 0.69030 0.05351 0.10700
H 	H 	0.90222 0.33250 0.21647 0.13400
H 	H 	0.84165 0.47530 0.25627 0.00000
H 	H 	0.95249 0.34796 0.01094 0.16100
H 	H 	0.99424 0.47011 0.08805 0.14500
H 	H 	0.97589 0.25380 0.26880 -0.00800
Cu	Cu	0.31236 0.32690 0.18970 0.88800
O 	O 	0.37290 0.56640 0.16600 -0.27900
O 	O 	0.36280 0.67600 0.93790 -0.34400
N 	N 	0.27920 0.51100 0.76710 -0.16000
N 	N 	0.24230 0.40820 0.71160 -0.05400
N 	N 	0.24880 0.32470 0.83480 -0.13000
N 	N 	0.28910 0.37220 0.96740 -0.18900
N 	N 	0.35780 0.16140 0.18110 -0.23400
C 	C 	0.35180 0.58440 0.01950 0.27100
C 	C 	0.30720 0.48640 0.92330 0.01700
C 	C 	0.38900 0.21980 0.12280 0.10800
C 	C 	0.42600 0.14380 0.09530 -0.23000
C 	C 	0.43083 0.99740 0.13110 0.23800
C 	C 	0.39930 0.93350 0.19140 -0.24400
C 	C 	0.36340 0.01930 0.21460 0.13400
C 	C 	0.47027 0.90770 0.10430 -0.42700
H 	H 	0.38529 0.32105 0.09859 -0.01500
H 	H 	0.44734 0.19030 0.05351 0.10900
H 	H 	0.40222 0.83250 0.21647 0.13700
H 	H 	0.34165 0.97530 0.25627 -0.00200
H 	H 	0.45249 0.84796 0.01094 0.17100
H 	H 	0.49424 0.97011 0.08805 0.15300
H 	H 	0.47589 0.75380 0.26880 -0.03200
Cu	Cu	0.81236 0.17310 0.68970 0.88800
O 	O 	0.87290 0.93360 0.66600 -0.27900
O 	O 	0.86280 0.82400 0.43790 -0.34400
N 	N 	0.77920 0.98900 0.26710 -0.16100
N 	N 	0.74230 0.09180 0.21160 -0.05400
N 	N 	0.74880 0.17530 0.33480 -0.13000
N 	N 	0.78910 0.12780 0.46740 -0.18900
N 	N 	0.85780 0.33860 0.68110 -0.23200
C 	C 	0.85180 0.91560 0.51950 0.27100
C 	C 	0.80720 0.01360 0.42330 0.01700
C 	C 	0.88900 0.28020 0.62280 0.10500
C 	C 	0.92600 0.35620 0.59530 -0.22100
C 	C 	0.93083 0.50260 0.63110 0.22400
C 	C 	0.89930 0.56650 0.69140 -0.23200
C 	C 	0.86340 0.48070 0.71460 0.12800
C 	C 	0.97027 0.59230 0.60430 -0.38400
H 	H 	0.88529 0.17895 0.59859 -0.01400
H 	H 	0.94734 0.30970 0.55351 0.10700
H 	H 	0.90222 0.66750 0.71647 0.13400
H 	H 	0.84165 0.52470 0.75627 0.00000
H 	H 	0.95249 0.65204 0.51094 0.16000
H 	H 	0.99424 0.52989 0.58805 0.14500
H 	H 	0.97589 0.74620 0.76880 -0.00800
Cu	Cu	0.31236 0.67310 0.68970 0.88800
O 	O 	0.37290 0.43360 0.66600 -0.27900
O 	O 	0.36280 0.32400 0.43790 -0.34500
N 	N 	0.27920 0.48900 0.26710 -0.16000
N 	N 	0.24230 0.59180 0.21160 -0.05400
N 	N 	0.24880 0.67530 0.33480 -0.13000
N 	N 	0.28910 0.62780 0.46740 -0.18900
N 	N 	0.35780 0.83860 0.68110 -0.23400
C 	C 	0.35180 0.41560 0.51950 0.27100
C 	C 	0.30720 0.51360 0.42330 0.01700
C 	C 	0.38900 0.78020 0.62280 0.10900
C 	C 	0.42600 0.85620 0.59530 -0.23100
C 	C 	0.43083 0.00260 0.63110 0.23900
C 	C 	0.39930 0.06650 0.69140 -0.24400
C 	C 	0.36340 0.98070 0.71460 0.13400
C 	C 	0.47027 0.09230 0.60430 -0.42800
H 	H 	0.38529 0.67895 0.59859 -0.01500
H 	H 	0.44734 0.80970 0.55351 0.10900
H 	H 	0.40222 0.16750 0.71647 0.13800
H 	H 	0.34165 0.02470 0.75627 -0.00200
H 	H 	0.45249 0.15204 0.51094 0.17200
H 	H 	0.49424 0.02989 0.58805 0.15400
H 	H 	0.47589 0.24620 0.76880 -0.03200
Cu	Cu	0.18764 0.17310 0.81030 0.88800
O 	O 	0.12710 0.93360 0.83400 -0.28000
O 	O 	0.13720 0.82400 0.06210 -0.34600
N 	N 	0.22080 0.98900 0.23290 -0.16100
N 	N 	0.25770 0.09180 0.28840 -0.05400
N 	N 	0.25120 0.17530 0.16520 -0.13000
N 	N 	0.21090 0.12780 0.03260 -0.18800
N 	N 	0.14220 0.33860 0.81890 -0.23200
C 	C 	0.14820 0.91560 0.98050 0.27200
C 	C 	0.19280 0.01360 0.07670 0.01700
C 	C 	0.11100 0.28020 0.87720 0.10400
C 	C 	0.07400 0.35620 0.90470 -0.22200
C 	C 	0.06917 0.50260 0.86890 0.22200
C 	C 	0.10070 0.56650 0.80860 -0.23300
C 	C 	0.13660 0.48070 0.78540 0.12700
C 	C 	0.02973 0.59230 0.89570 -0.38800
H 	H 	0.11471 0.17895 0.90141 -0.01500
H 	H 	0.05266 0.30970 0.94649 0.10400
H 	H 	0.09778 0.66750 0.78353 0.13300
H 	H 	0.15835 0.52470 0.74373 0.00000
H 	H 	0.04751 0.65204 0.98906 0.15800
H 	H 	0.00576 0.52989 0.91195 0.13900
H 	H 	0.02411 0.74620 0.73120 -0.01500
Cu	Cu	0.68764 0.67310 0.81030 0.88800
O 	O 	0.62710 0.43360 0.83400 -0.27900
O 	O 	0.63720 0.32400 0.06210 -0.34500
N 	N 	0.72080 0.48900 0.23290 -0.16000
N 	N 	0.75770 0.59180 0.28840 -0.05400
N 	N 	0.75120 0.67530 0.16520 -0.13000
N 	N 	0.71090 0.62780 0.03260 -0.18900
N 	N 	0.64220 0.83860 0.81890 -0.23400
C 	C 	0.64820 0.41560 0.98050 0.27100
C 	C 	0.69280 0.51360 0.07670 0.01700
C 	C 	0.61100 0.78020 0.87720 0.10800
C 	C 	0.57400 0.85620 0.90470 -0.23000
C 	C 	0.56917 0.00260 0.86890 0.23800
C 	C 	0.60070 0.06650 0.80860 -0.24400
C 	C 	0.63660 0.98070 0.78540 0.13400
C 	C 	0.52973 0.09230 0.89570 -0.42700
H 	H 	0.61471 0.67895 0.90141 -0.01500
H 	H 	0.55266 0.80970 0.94649 0.10900
H 	H 	0.59778 0.16750 0.78353 0.13700
H 	H 	0.65835 0.02470 0.74373 -0.00200
H 	H 	0.54751 0.15204 0.98906 0.17100
H 	H 	0.50576 0.02989 0.91195 0.15300
H 	H 	0.52411 0.24620 0.73120 -0.03200
C 	C 	0.00000 0.31360 0.25000 0.16700
C 	C 	0.50000 0.81360 0.25000 0.22900
C 	C 	0.00000 0.68640 0.75000 0.16600
C 	C 	0.50000 0.18640 0.75000 0.22900
