data_crystal

_cell_length_a 28.68410
_cell_length_b 9.26550
_cell_length_c 9.30050
_cell_angle_alpha 90.00000
_cell_angle_beta  116.36900
_cell_angle_gamma 90.00000

_symmetry_space_group_name_	'P 1'
_symmetry_space_group_name_H-M	'P 1'

loop_
_symmetry_equiv_pos_as_xyz
  x,y,z

loop_
_atom_site_label
_atom_site_type_symbol
_atom_site_fract_x
_atom_site_fract_y
_atom_site_fract_z
_atom_site_charge
Cu	Cu	0.18800 0.82920 0.31400 0.88600
O 	O 	0.12840 0.07030 0.33840 -0.28000
O 	O 	0.13790 0.17800 0.56680 -0.34200
N 	N 	0.22040 0.01250 0.73720 -0.16600
N 	N 	0.25710 0.90960 0.79320 -0.05200
N 	N 	0.25130 0.82650 0.67060 -0.12600
N 	N 	0.21170 0.87450 0.53790 -0.18800
N 	N 	0.14320 0.66070 0.32290 -0.23100
C 	C 	0.14910 0.08690 0.48480 0.26700
C 	C 	0.19330 0.98850 0.58130 0.01900
C 	C 	0.11210 0.72000 0.38080 0.10300
C 	C 	0.07460 0.64500 0.40690 -0.22100
C 	C 	0.06924 0.49870 0.36990 0.22200
C 	C 	0.10070 0.43390 0.31000 -0.23200
C 	C 	0.13710 0.51870 0.28830 0.12800
C 	C 	0.02929 0.41000 0.39526 -0.38900
H 	H 	0.11617 0.82114 0.40582 -0.01700
H 	H 	0.05337 0.69211 0.44851 0.10400
H 	H 	0.09740 0.33292 0.28422 0.13300
H 	H 	0.15878 0.47405 0.24685 0.00100
H 	H 	0.04647 0.35031 0.48850 0.15800
H 	H 	0.00531 0.47325 0.41038 0.13900
H 	H 	0.02417 0.25600 0.23170 -0.01600
Cu	Cu	0.68800 0.32920 0.31400 0.88700
O 	O 	0.62840 0.57030 0.33840 -0.27800
O 	O 	0.63790 0.67800 0.56680 -0.34200
N 	N 	0.72040 0.51250 0.73720 -0.16500
N 	N 	0.75710 0.40960 0.79320 -0.05200
N 	N 	0.75130 0.32650 0.67060 -0.12600
N 	N 	0.71170 0.37450 0.53790 -0.18800
N 	N 	0.64320 0.16070 0.32290 -0.23300
C 	C 	0.64910 0.58690 0.48480 0.26800
C 	C 	0.69330 0.48850 0.58130 0.01800
C 	C 	0.61210 0.22000 0.38080 0.10800
C 	C 	0.57460 0.14500 0.40690 -0.23100
C 	C 	0.56924 0.99870 0.36990 0.23900
C 	C 	0.60070 0.93390 0.31000 -0.24300
C 	C 	0.63710 0.01870 0.28830 0.13400
C 	C 	0.52929 0.91000 0.39526 -0.42800
H 	H 	0.61617 0.32114 0.40582 -0.01800
H 	H 	0.55337 0.19211 0.44851 0.10900
H 	H 	0.59740 0.83292 0.28422 0.13700
H 	H 	0.65878 0.97405 0.24685 -0.00200
H 	H 	0.54647 0.85031 0.48850 0.17100
H 	H 	0.50531 0.97325 0.41038 0.15300
H 	H 	0.52417 0.75600 0.23170 -0.03400
Cu	Cu	0.81200 0.82920 0.18600 0.88700
O 	O 	0.87160 0.07030 0.16160 -0.27800
O 	O 	0.86210 0.17800 0.93320 -0.34300
N 	N 	0.77960 0.01250 0.76280 -0.16600
N 	N 	0.74290 0.90960 0.70680 -0.05200
N 	N 	0.74870 0.82650 0.82940 -0.12600
N 	N 	0.78830 0.87450 0.96210 -0.18800
N 	N 	0.85680 0.66070 0.17710 -0.23100
C 	C 	0.85090 0.08690 0.01520 0.26900
C 	C 	0.80670 0.98850 0.91870 0.01900
C 	C 	0.88790 0.72000 0.11920 0.10500
C 	C 	0.92540 0.64500 0.09310 -0.22100
C 	C 	0.93076 0.49870 0.13010 0.22500
C 	C 	0.89930 0.43390 0.19000 -0.23200
C 	C 	0.86290 0.51870 0.21170 0.12900
C 	C 	0.97071 0.41000 0.10474 -0.38600
H 	H 	0.88383 0.82114 0.09418 -0.01600
H 	H 	0.94663 0.69211 0.05149 0.10700
H 	H 	0.90260 0.33292 0.21578 0.13400
H 	H 	0.84122 0.47405 0.25315 0.00100
H 	H 	0.95353 0.35031 0.01150 0.16000
H 	H 	0.99469 0.47325 0.08962 0.14500
H 	H 	0.97583 0.25600 0.26830 -0.00900
Cu	Cu	0.31200 0.32920 0.18600 0.88700
O 	O 	0.37160 0.57030 0.16160 -0.27800
O 	O 	0.36210 0.67800 0.93320 -0.34200
N 	N 	0.27960 0.51250 0.76280 -0.16500
N 	N 	0.24290 0.40960 0.70680 -0.05200
N 	N 	0.24870 0.32650 0.82940 -0.12600
N 	N 	0.28830 0.37450 0.96210 -0.18800
N 	N 	0.35680 0.16070 0.17710 -0.23300
C 	C 	0.35090 0.58690 0.01520 0.26700
C 	C 	0.30670 0.48850 0.91870 0.01800
C 	C 	0.38790 0.22000 0.11920 0.10800
C 	C 	0.42540 0.14500 0.09310 -0.23000
C 	C 	0.43076 0.99870 0.13010 0.23700
C 	C 	0.39930 0.93390 0.19000 -0.24300
C 	C 	0.36290 0.01870 0.21170 0.13400
C 	C 	0.47071 0.91000 0.10474 -0.42800
H 	H 	0.38383 0.32114 0.09418 -0.01700
H 	H 	0.44663 0.19211 0.05149 0.10800
H 	H 	0.40260 0.83292 0.21578 0.13700
H 	H 	0.34122 0.97405 0.25315 -0.00200
H 	H 	0.45353 0.85031 0.01150 0.17100
H 	H 	0.49469 0.97325 0.08962 0.15300
H 	H 	0.47583 0.75600 0.26830 -0.03300
Cu	Cu	0.81200 0.17080 0.68600 0.88700
O 	O 	0.87160 0.92970 0.66160 -0.27800
O 	O 	0.86210 0.82200 0.43320 -0.34200
N 	N 	0.77960 0.98750 0.26280 -0.16600
N 	N 	0.74290 0.09040 0.20680 -0.05200
N 	N 	0.74870 0.17350 0.32940 -0.12600
N 	N 	0.78830 0.12550 0.46210 -0.18800
N 	N 	0.85680 0.33930 0.67710 -0.23100
C 	C 	0.85090 0.91310 0.51520 0.26700
C 	C 	0.80670 0.01150 0.41870 0.01900
C 	C 	0.88790 0.28000 0.61920 0.10500
C 	C 	0.92540 0.35500 0.59310 -0.22100
C 	C 	0.93076 0.50130 0.63010 0.22400
C 	C 	0.89930 0.56610 0.69000 -0.23200
C 	C 	0.86290 0.48130 0.71170 0.12800
C 	C 	0.97071 0.59000 0.60474 -0.38500
H 	H 	0.88383 0.17886 0.59418 -0.01600
H 	H 	0.94663 0.30789 0.55149 0.10700
H 	H 	0.90260 0.66708 0.71578 0.13300
H 	H 	0.84122 0.52595 0.75315 0.00100
H 	H 	0.95353 0.64969 0.51150 0.16000
H 	H 	0.99469 0.52675 0.58962 0.14500
H 	H 	0.97583 0.74400 0.76830 -0.00900
Cu	Cu	0.31200 0.67080 0.68600 0.88700
O 	O 	0.37160 0.42970 0.66160 -0.27800
O 	O 	0.36210 0.32200 0.43320 -0.34200
N 	N 	0.27960 0.48750 0.26280 -0.16500
N 	N 	0.24290 0.59040 0.20680 -0.05200
N 	N 	0.24870 0.67350 0.32940 -0.12600
N 	N 	0.28830 0.62550 0.46210 -0.18800
N 	N 	0.35680 0.83930 0.67710 -0.23300
C 	C 	0.35090 0.41310 0.51520 0.26800
C 	C 	0.30670 0.51150 0.41870 0.01800
C 	C 	0.38790 0.78000 0.61920 0.10800
C 	C 	0.42540 0.85500 0.59310 -0.23100
C 	C 	0.43076 0.00130 0.63010 0.23900
C 	C 	0.39930 0.06610 0.69000 -0.24300
C 	C 	0.36290 0.98130 0.71170 0.13500
C 	C 	0.47071 0.09000 0.60474 -0.42800
H 	H 	0.38383 0.67886 0.59418 -0.01800
H 	H 	0.44663 0.80789 0.55149 0.10900
H 	H 	0.40260 0.16708 0.71578 0.13700
H 	H 	0.34122 0.02595 0.75315 -0.00200
H 	H 	0.45353 0.14969 0.51150 0.17100
H 	H 	0.49469 0.02675 0.58962 0.15300
H 	H 	0.47583 0.24400 0.76830 -0.03400
Cu	Cu	0.18800 0.17080 0.81400 0.88700
O 	O 	0.12840 0.92970 0.83840 -0.27900
O 	O 	0.13790 0.82200 0.06680 -0.34300
N 	N 	0.22040 0.98750 0.23720 -0.16600
N 	N 	0.25710 0.09040 0.29320 -0.05200
N 	N 	0.25130 0.17350 0.17060 -0.12600
N 	N 	0.21170 0.12550 0.03790 -0.18800
N 	N 	0.14320 0.33930 0.82290 -0.23100
C 	C 	0.14910 0.91310 0.98480 0.26800
C 	C 	0.19330 0.01150 0.08130 0.01900
C 	C 	0.11210 0.28000 0.88080 0.10300
C 	C 	0.07460 0.35500 0.90690 -0.22100
C 	C 	0.06924 0.50130 0.86990 0.22200
C 	C 	0.10070 0.56610 0.81000 -0.23200
C 	C 	0.13710 0.48130 0.78830 0.12800
C 	C 	0.02929 0.59000 0.89526 -0.38800
H 	H 	0.11617 0.17886 0.90582 -0.01700
H 	H 	0.05337 0.30789 0.94851 0.10400
H 	H 	0.09740 0.66708 0.78422 0.13300
H 	H 	0.15878 0.52595 0.74685 0.00100
H 	H 	0.04647 0.64969 0.98850 0.15800
H 	H 	0.00531 0.52675 0.91038 0.13800
H 	H 	0.02417 0.74400 0.73170 -0.01600
Cu	Cu	0.68800 0.67080 0.81400 0.88700
O 	O 	0.62840 0.42970 0.83840 -0.27800
O 	O 	0.63790 0.32200 0.06680 -0.34200
N 	N 	0.72040 0.48750 0.23720 -0.16500
N 	N 	0.75710 0.59040 0.29320 -0.05200
N 	N 	0.75130 0.67350 0.17060 -0.12600
N 	N 	0.71170 0.62550 0.03790 -0.18800
N 	N 	0.64320 0.83930 0.82290 -0.23300
C 	C 	0.64910 0.41310 0.98480 0.26700
C 	C 	0.69330 0.51150 0.08130 0.01800
C 	C 	0.61210 0.78000 0.88080 0.10800
C 	C 	0.57460 0.85500 0.90690 -0.23000
C 	C 	0.56924 0.00130 0.86990 0.23700
C 	C 	0.60070 0.06610 0.81000 -0.24300
C 	C 	0.63710 0.98130 0.78830 0.13500
C 	C 	0.52929 0.09000 0.89526 -0.42800
H 	H 	0.61617 0.67886 0.90582 -0.01700
H 	H 	0.55337 0.80789 0.94851 0.10900
H 	H 	0.59740 0.16708 0.78422 0.13700
H 	H 	0.65878 0.02595 0.74685 -0.00200
H 	H 	0.54647 0.14969 0.98850 0.17100
H 	H 	0.50531 0.02675 0.91038 0.15300
H 	H 	0.52417 0.24400 0.73170 -0.03400
C 	C 	0.00000 0.31590 0.25000 0.16900
C 	C 	0.50000 0.81590 0.25000 0.23100
C 	C 	-0.00000 0.68410 0.75000 0.16800
C 	C 	0.50000 0.18410 0.75000 0.23100
