data_crystal

_cell_length_a 28.74440
_cell_length_b 9.26720
_cell_length_c 9.32950
_cell_angle_alpha 90.00000
_cell_angle_beta  116.09700
_cell_angle_gamma 90.00000

_symmetry_space_group_name_	'P 1'
_symmetry_space_group_name_H-M	'P 1'

loop_
_symmetry_equiv_pos_as_xyz
  x,y,z

loop_
_atom_site_label
_atom_site_type_symbol
_atom_site_fract_x
_atom_site_fract_y
_atom_site_fract_z
_atom_site_charge
Cu	Cu	0.18782 0.83070 0.31370 0.88800
O 	O 	0.12820 0.07300 0.34490 -0.27800
O 	O 	0.13900 0.17990 0.57420 -0.35000
N 	N 	0.21960 0.00880 0.73980 -0.16600
N 	N 	0.25590 0.90530 0.79280 -0.05100
N 	N 	0.25050 0.82580 0.66850 -0.12400
N 	N 	0.21140 0.87660 0.53770 -0.18600
N 	N 	0.14300 0.66080 0.33080 -0.22700
C 	C 	0.14930 0.08860 0.49060 0.26900
C 	C 	0.19300 0.98870 0.58400 0.01700
C 	C 	0.11080 0.71960 0.38470 0.10400
C 	C 	0.07300 0.64390 0.40800 -0.22100
C 	C 	0.06843 0.49730 0.37250 0.22100
C 	C 	0.10100 0.43300 0.31680 -0.23100
C 	C 	0.13760 0.51860 0.29760 0.12700
C 	C 	0.02817 0.40780 0.39506 -0.38700
H 	H 	0.11428 0.82093 0.40872 -0.01400
H 	H 	0.05095 0.69064 0.44685 0.10300
H 	H 	0.09831 0.33191 0.29205 0.13400
H 	H 	0.16012 0.47428 0.25894 0.00100
H 	H 	0.04484 0.34810 0.48794 0.15700
H 	H 	0.00382 0.47056 0.40866 0.13800
H 	H 	0.02454 0.25390 0.23380 -0.01600
Cu	Cu	0.68782 0.33070 0.31370 0.88700
O 	O 	0.62820 0.57300 0.34490 -0.27800
O 	O 	0.63900 0.67990 0.57420 -0.35100
N 	N 	0.71960 0.50880 0.73980 -0.16600
N 	N 	0.75590 0.40530 0.79280 -0.05200
N 	N 	0.75050 0.32580 0.66850 -0.12500
N 	N 	0.71140 0.37660 0.53770 -0.18600
N 	N 	0.64300 0.16080 0.33080 -0.22900
C 	C 	0.64930 0.58860 0.49060 0.26900
C 	C 	0.69300 0.48870 0.58400 0.01700
C 	C 	0.61080 0.21960 0.38470 0.10900
C 	C 	0.57300 0.14390 0.40800 -0.23000
C 	C 	0.56843 0.99730 0.37250 0.23700
C 	C 	0.60100 0.93300 0.31680 -0.24200
C 	C 	0.63760 0.01860 0.29760 0.13300
C 	C 	0.52817 0.90780 0.39506 -0.42600
H 	H 	0.61428 0.32093 0.40872 -0.01500
H 	H 	0.55095 0.19064 0.44685 0.10700
H 	H 	0.59831 0.83191 0.29205 0.13800
H 	H 	0.66012 0.97428 0.25894 -0.00200
H 	H 	0.54484 0.84810 0.48794 0.17000
H 	H 	0.50382 0.97056 0.40866 0.15300
H 	H 	0.52454 0.75390 0.23380 -0.03300
Cu	Cu	0.81218 0.83070 0.18630 0.88700
O 	O 	0.87180 0.07300 0.15510 -0.27800
O 	O 	0.86100 0.17990 0.92580 -0.35200
N 	N 	0.78040 0.00880 0.76020 -0.16700
N 	N 	0.74410 0.90530 0.70720 -0.05200
N 	N 	0.74950 0.82580 0.83150 -0.12500
N 	N 	0.78860 0.87660 0.96230 -0.18600
N 	N 	0.85700 0.66080 0.16920 -0.22700
C 	C 	0.85070 0.08860 0.00940 0.27100
C 	C 	0.80700 0.98870 0.91600 0.01700
C 	C 	0.88920 0.71960 0.11530 0.10600
C 	C 	0.92700 0.64390 0.09200 -0.22100
C 	C 	0.93157 0.49730 0.12750 0.22400
C 	C 	0.89900 0.43300 0.18320 -0.23100
C 	C 	0.86240 0.51860 0.20240 0.12800
C 	C 	0.97183 0.40780 0.10494 -0.38400
H 	H 	0.88572 0.82093 0.09128 -0.01400
H 	H 	0.94905 0.69064 0.05315 0.10600
H 	H 	0.90169 0.33191 0.20795 0.13400
H 	H 	0.83988 0.47428 0.24106 0.00000
H 	H 	0.95516 0.34810 0.01206 0.15900
H 	H 	0.99618 0.47056 0.09134 0.14500
H 	H 	0.97546 0.25390 0.26620 -0.00900
Cu	Cu	0.31218 0.33070 0.18630 0.88700
O 	O 	0.37180 0.57300 0.15510 -0.27800
O 	O 	0.36100 0.67990 0.92580 -0.35100
N 	N 	0.28040 0.50880 0.76020 -0.16600
N 	N 	0.24410 0.40530 0.70720 -0.05200
N 	N 	0.24950 0.32580 0.83150 -0.12500
N 	N 	0.28860 0.37660 0.96230 -0.18600
N 	N 	0.35700 0.16080 0.16920 -0.22900
C 	C 	0.35070 0.58860 0.00940 0.26900
C 	C 	0.30700 0.48870 0.91600 0.01700
C 	C 	0.38920 0.21960 0.11530 0.10900
C 	C 	0.42700 0.14390 0.09200 -0.22900
C 	C 	0.43157 0.99730 0.12750 0.23600
C 	C 	0.39900 0.93300 0.18320 -0.24200
C 	C 	0.36240 0.01860 0.20240 0.13400
C 	C 	0.47183 0.90780 0.10494 -0.42500
H 	H 	0.38572 0.32093 0.09128 -0.01500
H 	H 	0.44905 0.19064 0.05315 0.10700
H 	H 	0.40169 0.83191 0.20795 0.13800
H 	H 	0.33988 0.97428 0.24106 -0.00200
H 	H 	0.45516 0.84810 0.01206 0.16900
H 	H 	0.49618 0.97056 0.09134 0.15200
H 	H 	0.47546 0.75390 0.26620 -0.03300
Cu	Cu	0.81218 0.16930 0.68630 0.88700
O 	O 	0.87180 0.92700 0.65510 -0.27700
O 	O 	0.86100 0.82010 0.42580 -0.35000
N 	N 	0.78040 0.99120 0.26020 -0.16700
N 	N 	0.74410 0.09470 0.20720 -0.05200
N 	N 	0.74950 0.17420 0.33150 -0.12500
N 	N 	0.78860 0.12340 0.46230 -0.18600
N 	N 	0.85700 0.33920 0.66920 -0.22700
C 	C 	0.85070 0.91140 0.50940 0.26900
C 	C 	0.80700 0.01130 0.41600 0.01700
C 	C 	0.88920 0.28040 0.61530 0.10600
C 	C 	0.92700 0.35610 0.59200 -0.22100
C 	C 	0.93157 0.50270 0.62750 0.22300
C 	C 	0.89900 0.56700 0.68320 -0.23100
C 	C 	0.86240 0.48140 0.70240 0.12800
C 	C 	0.97183 0.59220 0.60494 -0.38300
H 	H 	0.88572 0.17907 0.59128 -0.01400
H 	H 	0.94905 0.30936 0.55315 0.10600
H 	H 	0.90169 0.66809 0.70795 0.13400
H 	H 	0.83988 0.52572 0.74106 0.00000
H 	H 	0.95516 0.65190 0.51206 0.15800
H 	H 	0.99618 0.52944 0.59134 0.14400
H 	H 	0.97546 0.74610 0.76620 -0.00900
Cu	Cu	0.31218 0.66930 0.68630 0.88700
O 	O 	0.37180 0.42700 0.65510 -0.27800
O 	O 	0.36100 0.32010 0.42580 -0.35100
N 	N 	0.28040 0.49120 0.26020 -0.16600
N 	N 	0.24410 0.59470 0.20720 -0.05200
N 	N 	0.24950 0.67420 0.33150 -0.12500
N 	N 	0.28860 0.62340 0.46230 -0.18600
N 	N 	0.35700 0.83920 0.66920 -0.22900
C 	C 	0.35070 0.41140 0.50940 0.26900
C 	C 	0.30700 0.51130 0.41600 0.01700
C 	C 	0.38920 0.78040 0.61530 0.10900
C 	C 	0.42700 0.85610 0.59200 -0.23000
C 	C 	0.43157 0.00270 0.62750 0.23700
C 	C 	0.39900 0.06700 0.68320 -0.24200
C 	C 	0.36240 0.98140 0.70240 0.13400
C 	C 	0.47183 0.09220 0.60494 -0.42600
H 	H 	0.38572 0.67907 0.59128 -0.01500
H 	H 	0.44905 0.80936 0.55315 0.10700
H 	H 	0.40169 0.16809 0.70795 0.13800
H 	H 	0.33988 0.02572 0.74106 -0.00200
H 	H 	0.45516 0.15190 0.51206 0.17000
H 	H 	0.49618 0.02944 0.59134 0.15300
H 	H 	0.47546 0.24610 0.76620 -0.03300
Cu	Cu	0.18782 0.16930 0.81370 0.88700
O 	O 	0.12820 0.92700 0.84490 -0.27900
O 	O 	0.13900 0.82010 0.07420 -0.35200
N 	N 	0.21960 0.99120 0.23980 -0.16700
N 	N 	0.25590 0.09470 0.29280 -0.05200
N 	N 	0.25050 0.17420 0.16850 -0.12500
N 	N 	0.21140 0.12340 0.03770 -0.18600
N 	N 	0.14300 0.33920 0.83080 -0.22700
C 	C 	0.14930 0.91140 0.99060 0.27000
C 	C 	0.19300 0.01130 0.08400 0.01700
C 	C 	0.11080 0.28040 0.88470 0.10400
C 	C 	0.07300 0.35610 0.90800 -0.22100
C 	C 	0.06843 0.50270 0.87250 0.22100
C 	C 	0.10100 0.56700 0.81680 -0.23100
C 	C 	0.13760 0.48140 0.79760 0.12700
C 	C 	0.02817 0.59220 0.89506 -0.38700
H 	H 	0.11428 0.17907 0.90872 -0.01400
H 	H 	0.05095 0.30936 0.94685 0.10200
H 	H 	0.09831 0.66809 0.79205 0.13300
H 	H 	0.16012 0.52572 0.75894 0.00100
H 	H 	0.04484 0.65190 0.98794 0.15600
H 	H 	0.00382 0.52944 0.90866 0.13800
H 	H 	0.02454 0.74610 0.73380 -0.01600
Cu	Cu	0.68782 0.66930 0.81370 0.88700
O 	O 	0.62820 0.42700 0.84490 -0.27800
O 	O 	0.63900 0.32010 0.07420 -0.35100
N 	N 	0.71960 0.49120 0.23980 -0.16600
N 	N 	0.75590 0.59470 0.29280 -0.05200
N 	N 	0.75050 0.67420 0.16850 -0.12500
N 	N 	0.71140 0.62340 0.03770 -0.18600
N 	N 	0.64300 0.83920 0.83080 -0.22900
C 	C 	0.64930 0.41140 0.99060 0.26900
C 	C 	0.69300 0.51130 0.08400 0.01700
C 	C 	0.61080 0.78040 0.88470 0.10900
C 	C 	0.57300 0.85610 0.90800 -0.22900
C 	C 	0.56843 0.00270 0.87250 0.23600
C 	C 	0.60100 0.06700 0.81680 -0.24200
C 	C 	0.63760 0.98140 0.79760 0.13400
C 	C 	0.52817 0.09220 0.89506 -0.42500
H 	H 	0.61428 0.67907 0.90872 -0.01500
H 	H 	0.55095 0.80936 0.94685 0.10700
H 	H 	0.59831 0.16809 0.79205 0.13800
H 	H 	0.66012 0.02572 0.75894 -0.00200
H 	H 	0.54484 0.15190 0.98794 0.16900
H 	H 	0.50382 0.02944 0.90866 0.15200
H 	H 	0.52454 0.24610 0.73380 -0.03300
C 	C 	0.00000 0.31370 0.25000 0.16700
C 	C 	0.50000 0.81370 0.25000 0.22800
C 	C 	0.00000 0.68630 0.75000 0.16700
C 	C 	0.50000 0.18630 0.75000 0.22900
