data_crystal

_cell_length_a 6.80410
_cell_length_b 9.15090
_cell_length_c 14.84200
_cell_angle_alpha 103.81400
_cell_angle_beta  100.75800
_cell_angle_gamma 101.49800

_symmetry_space_group_name_	'P 1'
_symmetry_space_group_name_H-M	'P 1'

loop_
_symmetry_equiv_pos_as_xyz
  x,y,z

loop_
_atom_site_label
_atom_site_type_symbol
_atom_site_fract_x
_atom_site_fract_y
_atom_site_fract_z
_atom_site_charge
Mn	Mn	0.80432 0.55770 0.19525 1.25700
N 	N 	0.02570 0.77360 0.31030 -0.20200
O 	O 	0.86690 0.74530 0.12660 -0.51300
O 	O 	0.03220 0.98920 0.14280 -0.52900
O 	O 	0.35190 0.70350 0.83030 -0.40400
O 	O 	0.17280 0.56090 0.68720 -0.41800
O 	O 	0.65210 0.28330 0.88460 -0.28700
O 	O 	0.47220 0.37930 0.78230 -0.42800
C 	C 	0.98220 0.87550 0.17370 0.46500
C 	C 	0.06900 0.89970 0.27930 -0.06400
C 	C 	0.09720 0.79090 0.40410 -0.02200
H 	H 	0.07210 0.70280 0.42530 0.02300
C 	C 	0.20410 0.92930 0.47040 0.07300
C 	C 	0.24440 0.05790 0.43610 -0.15400
H 	H 	0.31790 0.15440 0.47830 0.07500
C 	C 	0.17720 0.04420 0.34080 -0.03000
H 	H 	0.20390 0.13040 0.31800 0.02700
C 	C 	0.27470 0.94450 0.57550 0.03300
C 	C 	0.25030 0.81660 0.60980 -0.02700
H 	H 	0.18710 0.71840 0.56730 0.04600
C 	C 	0.31830 0.83110 0.70740 -0.10000
C 	C 	0.27780 0.68960 0.74370 0.31200
C 	C 	0.41450 0.97690 0.77110 0.10600
H 	H 	0.46520 0.98660 0.83550 0.01700
C 	C 	0.43530 0.10790 0.73930 -0.15400
C 	C 	0.52560 0.26740 0.80640 0.33100
C 	C 	0.36450 0.09080 0.64250 -0.07400
H 	H 	0.37700 0.17930 0.62130 0.04900
Mn	Mn	0.19568 0.44230 0.80475 1.25100
N 	N 	0.97430 0.22640 0.68970 -0.18500
O 	O 	0.13310 0.25470 0.87340 -0.44700
O 	O 	0.96780 0.01080 0.85720 -0.39800
O 	O 	0.64810 0.29650 0.16970 -0.45500
O 	O 	0.82720 0.43910 0.31280 -0.38500
O 	O 	0.34790 0.71670 0.11540 -0.35100
O 	O 	0.52780 0.62070 0.21770 -0.44700
C 	C 	0.01780 0.12450 0.82630 0.22800
C 	C 	0.93100 0.10030 0.72070 -0.01200
C 	C 	0.90280 0.20910 0.59590 0.02500
H 	H 	0.92790 0.29720 0.57470 0.04000
C 	C 	0.79590 0.07070 0.52960 -0.04300
C 	C 	0.75560 0.94210 0.56390 0.01900
H 	H 	0.68210 0.84560 0.52170 0.03800
C 	C 	0.82280 0.95580 0.65920 0.00000
H 	H 	0.79610 0.86960 0.68200 0.06100
C 	C 	0.72530 0.05550 0.42450 -0.02900
C 	C 	0.74970 0.18340 0.39020 -0.02600
H 	H 	0.81290 0.28160 0.43270 0.06400
C 	C 	0.68170 0.16890 0.29260 -0.07000
C 	C 	0.72220 0.31040 0.25630 0.30300
C 	C 	0.58550 0.02310 0.22890 -0.04100
H 	H 	0.53480 0.01340 0.16450 0.00200
C 	C 	0.56470 0.89210 0.26070 -0.05600
C 	C 	0.47440 0.73260 0.19360 0.31800
C 	C 	0.63550 0.90920 0.35750 0.03700
H 	H 	0.62300 0.82070 0.37870 0.03400
Mn	Mn	-0.00000 0.00000 -0.00000 1.11700
