data_crystal

_cell_length_a 21.78990
_cell_length_b 16.63370
_cell_length_c 13.51490
_cell_angle_alpha 90.00000
_cell_angle_beta  93.81600
_cell_angle_gamma 90.00000

_symmetry_space_group_name_	'P 1'
_symmetry_space_group_name_H-M	'P 1'

loop_
_symmetry_equiv_pos_as_xyz
  x,y,z

loop_
_atom_site_label
_atom_site_type_symbol
_atom_site_fract_x
_atom_site_fract_y
_atom_site_fract_z
_atom_site_charge
Cd	Cd	0.64332 0.24955 0.26697 1.20800
C 	C 	0.58457 0.11110 0.41470 0.36700
C 	C 	0.63600 0.90460 0.67990 0.35300
C 	C 	0.76770 0.14960 0.65490 0.33800
C 	C 	0.62431 0.08250 0.50470 -0.11800
C 	C 	0.61005 0.01060 0.55200 0.05400
H 	H 	0.57570 0.98080 0.52980 0.03800
C 	C 	0.64778 0.98430 0.63260 -0.12700
C 	C 	0.69830 0.02960 0.66460 0.05600
H 	H 	0.72370 0.01140 0.71790 0.04000
C 	C 	0.71218 0.10150 0.61950 -0.11400
C 	C 	0.67440 0.12780 0.53900 0.05300
H 	H 	0.68290 0.17620 0.50820 0.04000
C 	C 	0.53140 0.39180 0.25090 0.06500
C 	C 	0.56590 0.46410 0.25090 -0.11600
H 	H 	0.60860 0.46410 0.25140 0.08200
C 	C 	0.53290 0.53330 0.25000 -0.01500
H 	H 	0.55360 0.58220 0.24940 0.03700
N 	N 	0.55048 0.31430 0.25110 -0.20700
O 	O 	0.58995 0.18290 0.38940 -0.46200
O 	O 	0.54867 0.06210 0.37270 -0.41600
O 	O 	0.58608 0.86880 0.65930 -0.48400
O 	O 	0.67820 0.87540 0.73590 -0.41600
O 	O 	0.80588 0.11680 0.71540 -0.38300
O 	O 	0.77364 0.21840 0.62580 -0.39300
Cd	Cd	0.14332 0.74955 0.26697 1.20700
C 	C 	0.08457 0.61110 0.41470 0.37000
C 	C 	0.13600 0.40460 0.67990 0.35600
C 	C 	0.26770 0.64960 0.65490 0.33800
C 	C 	0.12431 0.58250 0.50470 -0.12700
C 	C 	0.11005 0.51060 0.55200 0.05900
H 	H 	0.07570 0.48080 0.52980 0.02700
C 	C 	0.14778 0.48430 0.63260 -0.13600
C 	C 	0.19830 0.52960 0.66460 0.06000
H 	H 	0.22370 0.51140 0.71790 0.03800
C 	C 	0.21218 0.60150 0.61950 -0.11900
C 	C 	0.17440 0.62780 0.53900 0.05700
H 	H 	0.18290 0.67620 0.50820 0.03700
C 	C 	0.03140 0.89180 0.25090 -0.05300
C 	C 	0.06590 0.96410 0.25090 0.01000
H 	H 	0.10860 0.96410 0.25140 0.03500
C 	C 	0.03290 0.03330 0.25000 -0.19800
H 	H 	0.05360 0.08220 0.24940 0.09000
N 	N 	0.05048 0.81430 0.25110 -0.19300
O 	O 	0.08995 0.68290 0.38940 -0.46900
O 	O 	0.04867 0.56210 0.37270 -0.43200
O 	O 	0.08608 0.36880 0.65930 -0.49400
O 	O 	0.17820 0.37540 0.73590 -0.41900
O 	O 	0.30588 0.61680 0.71540 -0.38300
O 	O 	0.27364 0.71840 0.62580 -0.39500
Cd	Cd	0.35668 0.24955 0.23303 1.20800
C 	C 	0.41543 0.11110 0.08530 0.36900
C 	C 	0.36400 0.90460 0.82010 0.35300
C 	C 	0.23230 0.14960 0.84510 0.33600
C 	C 	0.37569 0.08250 0.99530 -0.12000
C 	C 	0.38995 0.01060 0.94800 0.05400
H 	H 	0.42430 0.98080 0.97020 0.03800
C 	C 	0.35222 0.98430 0.86740 -0.12800
C 	C 	0.30170 0.02960 0.83540 0.05600
H 	H 	0.27630 0.01140 0.78210 0.03900
C 	C 	0.28782 0.10150 0.88050 -0.11500
C 	C 	0.32560 0.12780 0.96100 0.05300
H 	H 	0.31710 0.17620 0.99180 0.03900
C 	C 	0.46860 0.39180 0.24910 0.06500
C 	C 	0.43410 0.46410 0.24910 -0.11600
H 	H 	0.39140 0.46410 0.24860 0.08100
C 	C 	0.46710 0.53330 0.25000 -0.01500
H 	H 	0.44640 0.58220 0.25060 0.03700
N 	N 	0.44952 0.31430 0.24890 -0.20700
O 	O 	0.41005 0.18290 0.11060 -0.46200
O 	O 	0.45133 0.06210 0.12730 -0.41600
O 	O 	0.41392 0.86880 0.84070 -0.48400
O 	O 	0.32180 0.87540 0.76410 -0.41900
O 	O 	0.19412 0.11680 0.78460 -0.38200
O 	O 	0.22636 0.21840 0.87420 -0.39400
Cd	Cd	0.85668 0.74955 0.23303 1.21000
C 	C 	0.91543 0.61110 0.08530 0.36500
C 	C 	0.86400 0.40460 0.82010 0.34900
C 	C 	0.73230 0.64960 0.84510 0.33700
C 	C 	0.87569 0.58250 0.99530 -0.11000
C 	C 	0.88995 0.51060 0.94800 0.05000
H 	H 	0.92430 0.48080 0.97020 0.04900
C 	C 	0.85222 0.48430 0.86740 -0.11900
C 	C 	0.80170 0.52960 0.83540 0.05200
H 	H 	0.77630 0.51140 0.78210 0.04200
C 	C 	0.78782 0.60150 0.88050 -0.10900
C 	C 	0.82560 0.62780 0.96100 0.05000
H 	H 	0.81710 0.67620 0.99180 0.04100
C 	C 	0.96860 0.89180 0.24910 0.18500
C 	C 	0.93410 0.96410 0.24910 -0.24200
H 	H 	0.89140 0.96410 0.24860 0.12800
C 	C 	0.96710 0.03330 0.25000 0.16900
H 	H 	0.94640 0.08220 0.25060 -0.01500
N 	N 	0.94952 0.81430 0.24890 -0.20500
O 	O 	0.91005 0.68290 0.11060 -0.44900
O 	O 	0.95133 0.56210 0.12730 -0.39300
O 	O 	0.91392 0.36880 0.84070 -0.46600
O 	O 	0.82180 0.37540 0.76410 -0.41500
O 	O 	0.69412 0.61680 0.78460 -0.38200
O 	O 	0.72636 0.71840 0.87420 -0.39200
Cd	Cd	0.35668 0.75045 0.73303 1.20800
C 	C 	0.41543 0.88890 0.58530 0.36700
C 	C 	0.36400 0.09540 0.32010 0.35300
C 	C 	0.23230 0.85040 0.34510 0.33600
C 	C 	0.37569 0.91750 0.49530 -0.11800
C 	C 	0.38995 0.98940 0.44800 0.05500
H 	H 	0.42430 0.01920 0.47020 0.03800
C 	C 	0.35222 0.01570 0.36740 -0.12800
C 	C 	0.30170 0.97040 0.33540 0.05600
H 	H 	0.27630 0.98860 0.28210 0.03900
C 	C 	0.28782 0.89850 0.38050 -0.11400
C 	C 	0.32560 0.87220 0.46100 0.05300
H 	H 	0.31710 0.82380 0.49180 0.03900
C 	C 	0.46860 0.60820 0.74910 0.06500
C 	C 	0.43410 0.53590 0.74910 -0.11600
H 	H 	0.39140 0.53590 0.74860 0.08100
C 	C 	0.46710 0.46670 0.75000 -0.01500
H 	H 	0.44640 0.41780 0.75060 0.03700
N 	N 	0.44952 0.68570 0.74890 -0.20700
O 	O 	0.41005 0.81710 0.61060 -0.46200
O 	O 	0.45133 0.93790 0.62730 -0.41600
O 	O 	0.41392 0.13120 0.34070 -0.48400
O 	O 	0.32180 0.12460 0.26410 -0.41900
O 	O 	0.19412 0.88320 0.28460 -0.38200
O 	O 	0.22636 0.78160 0.37420 -0.39400
Cd	Cd	0.85668 0.25045 0.73303 1.21000
C 	C 	0.91543 0.38890 0.58530 0.36400
C 	C 	0.86400 0.59540 0.32010 0.34800
C 	C 	0.73230 0.35040 0.34510 0.33600
C 	C 	0.87569 0.41750 0.49530 -0.10800
C 	C 	0.88995 0.48940 0.44800 0.04900
H 	H 	0.92430 0.51920 0.47020 0.05000
C 	C 	0.85222 0.51570 0.36740 -0.11800
C 	C 	0.80170 0.47040 0.33540 0.05200
H 	H 	0.77630 0.48860 0.28210 0.04200
C 	C 	0.78782 0.39850 0.38050 -0.10800
C 	C 	0.82560 0.37220 0.46100 0.04800
H 	H 	0.81710 0.32380 0.49180 0.04200
C 	C 	0.96860 0.10820 0.74910 0.18400
C 	C 	0.93410 0.03590 0.74910 -0.24200
H 	H 	0.89140 0.03590 0.74860 0.12800
C 	C 	0.96710 0.96670 0.75000 0.16800
H 	H 	0.94640 0.91780 0.75060 -0.01500
N 	N 	0.94952 0.18570 0.74890 -0.20500
O 	O 	0.91005 0.31710 0.61060 -0.44900
O 	O 	0.95133 0.43790 0.62730 -0.39300
O 	O 	0.91392 0.63120 0.34070 -0.46600
O 	O 	0.82180 0.62460 0.26410 -0.41500
O 	O 	0.69412 0.38320 0.28460 -0.38200
O 	O 	0.72636 0.28160 0.37420 -0.39200
Cd	Cd	0.64332 0.75045 0.76697 1.20800
C 	C 	0.58457 0.88890 0.91470 0.36600
C 	C 	0.63600 0.09540 0.17990 0.35200
C 	C 	0.76770 0.85040 0.15490 0.33800
C 	C 	0.62431 0.91750 0.00470 -0.11600
C 	C 	0.61005 0.98940 0.05200 0.05200
H 	H 	0.57570 0.01920 0.02980 0.03900
C 	C 	0.64778 0.01570 0.13260 -0.12600
C 	C 	0.69830 0.97040 0.16460 0.05500
H 	H 	0.72370 0.98860 0.21790 0.04100
C 	C 	0.71218 0.89850 0.11950 -0.11300
C 	C 	0.67440 0.87220 0.03900 0.05200
H 	H 	0.68290 0.82380 0.00820 0.04000
C 	C 	0.53140 0.60820 0.75090 0.06500
C 	C 	0.56590 0.53590 0.75090 -0.11600
H 	H 	0.60860 0.53590 0.75140 0.08100
C 	C 	0.53290 0.46670 0.75000 -0.01500
H 	H 	0.55360 0.41780 0.74940 0.03700
N 	N 	0.55048 0.68570 0.75110 -0.20700
O 	O 	0.58995 0.81710 0.88940 -0.46200
O 	O 	0.54867 0.93790 0.87270 -0.41600
O 	O 	0.58608 0.13120 0.15930 -0.48300
O 	O 	0.67820 0.12460 0.23590 -0.41600
O 	O 	0.80588 0.88320 0.21540 -0.38300
O 	O 	0.77364 0.78160 0.12580 -0.39200
Cd	Cd	0.14332 0.25045 0.76697 1.20700
C 	C 	0.08457 0.38890 0.91470 0.36800
C 	C 	0.13600 0.59540 0.17990 0.35600
C 	C 	0.26770 0.35040 0.15490 0.33800
C 	C 	0.12431 0.41750 0.00470 -0.12500
C 	C 	0.11005 0.48940 0.05200 0.05800
H 	H 	0.07570 0.51920 0.02980 0.02800
C 	C 	0.14778 0.51570 0.13260 -0.13500
C 	C 	0.19830 0.47040 0.16460 0.05900
H 	H 	0.22370 0.48860 0.21790 0.03800
C 	C 	0.21218 0.39850 0.11950 -0.11800
C 	C 	0.17440 0.37220 0.03900 0.05600
H 	H 	0.18290 0.32380 0.00820 0.03800
C 	C 	0.03140 0.10820 0.75090 -0.05200
C 	C 	0.06590 0.03590 0.75090 0.00900
H 	H 	0.10860 0.03590 0.75140 0.03500
C 	C 	0.03290 0.96670 0.75000 -0.19700
H 	H 	0.05360 0.91780 0.74940 0.08900
N 	N 	0.05048 0.18570 0.75110 -0.19300
O 	O 	0.08995 0.31710 0.88940 -0.46900
O 	O 	0.04867 0.43790 0.87270 -0.43200
O 	O 	0.08608 0.63120 0.15930 -0.49400
O 	O 	0.17820 0.62460 0.23590 -0.41900
O 	O 	0.30588 0.38320 0.21540 -0.38300
O 	O 	0.27364 0.28160 0.12580 -0.39500
Cd	Cd	0.50000 0.13271 0.25000 1.22200
N 	N 	0.50000 0.27040 0.25000 -0.17600
Cd	Cd	-0.00000 0.63271 0.25000 1.20800
N 	N 	-0.00000 0.77040 0.25000 -0.20100
Cd	Cd	0.50000 0.86729 0.75000 1.22200
N 	N 	0.50000 0.72960 0.75000 -0.17600
Cd	Cd	0.00000 0.36729 0.75000 1.20800
N 	N 	0.00000 0.22960 0.75000 -0.20100
