data_crystal

_cell_length_a 22.53800
_cell_length_b 7.04400
_cell_length_c 13.77200
_cell_angle_alpha 90.00000
_cell_angle_beta  90.00000
_cell_angle_gamma 90.00000

_symmetry_space_group_name_	'P 1'
_symmetry_space_group_name_H-M	'P 1'

loop_
_symmetry_equiv_pos_as_xyz
  x,y,z

loop_
_atom_site_label
_atom_site_type_symbol
_atom_site_fract_x
_atom_site_fract_y
_atom_site_fract_z
_atom_site_charge
N 	N 	0.93758 0.34430 0.93610 -0.16000
H 	H 	0.87830 0.53310 0.87820 0.03000
C 	C 	0.88937 0.40460 0.88870 0.00000
C 	C 	0.77640 0.41250 0.77730 -0.05000
H 	H 	0.79340 0.53040 0.79600 0.05100
N 	N 	0.88937 0.09540 0.88870 -0.15500
N 	N 	0.43758 0.84430 0.43610 -0.20400
H 	H 	0.37830 0.03310 0.37820 -0.03600
C 	C 	0.38937 0.90460 0.38870 0.05500
C 	C 	0.27640 0.91250 0.27730 -0.01400
H 	H 	0.29340 0.03040 0.29600 0.00100
N 	N 	0.38937 0.59540 0.38870 -0.13600
N 	N 	0.06242 0.15570 0.93610 -0.17700
H 	H 	0.12170 0.96690 0.87820 0.06300
C 	C 	0.11063 0.09540 0.88870 -0.07100
C 	C 	0.22360 0.08750 0.77730 -0.08700
H 	H 	0.20660 0.96960 0.79600 0.07800
N 	N 	0.11063 0.40460 0.88870 -0.13800
N 	N 	0.56242 0.65570 0.43610 -0.20100
H 	H 	0.62170 0.46690 0.37820 0.01000
C 	C 	0.61063 0.59540 0.38870 -0.01900
C 	C 	0.72360 0.58750 0.27730 -0.05100
H 	H 	0.70660 0.46960 0.29600 0.03600
N 	N 	0.61063 0.90460 0.38870 -0.11500
N 	N 	0.06242 0.84430 0.06390 -0.22300
H 	H 	0.12170 0.03310 0.12180 -0.04800
C 	C 	0.11063 0.90460 0.11130 0.04700
C 	C 	0.22360 0.91250 0.22270 -0.00900
H 	H 	0.20660 0.03040 0.20400 -0.00500
N 	N 	0.11063 0.59540 0.11130 -0.14100
N 	N 	0.56242 0.34430 0.56390 -0.20000
H 	H 	0.62170 0.53310 0.62180 0.01600
C 	C 	0.61063 0.40460 0.61130 -0.01000
C 	C 	0.72360 0.41250 0.72270 -0.04700
H 	H 	0.70660 0.53040 0.70400 0.04600
N 	N 	0.61063 0.09540 0.61130 -0.16100
N 	N 	0.93758 0.65570 0.06390 -0.19300
H 	H 	0.87830 0.46690 0.12180 0.00800
C 	C 	0.88937 0.59540 0.11130 -0.02500
C 	C 	0.77640 0.58750 0.22270 -0.04700
H 	H 	0.79340 0.46960 0.20400 0.03300
N 	N 	0.88937 0.90460 0.11130 -0.11600
N 	N 	0.43758 0.15570 0.56390 -0.19400
H 	H 	0.37830 0.96690 0.62180 0.05800
C 	C 	0.38937 0.09540 0.61130 -0.08100
C 	C 	0.27640 0.08750 0.72270 -0.08600
H 	H 	0.29340 0.96960 0.70400 0.07600
N 	N 	0.38937 0.40460 0.61130 -0.14100
N 	N 	0.06242 0.65570 0.06390 -0.19600
H 	H 	0.12170 0.46690 0.12180 0.05100
C 	C 	0.22360 0.58750 0.22270 -0.05100
H 	H 	0.20660 0.46960 0.20400 0.03200
N 	N 	0.56242 0.15570 0.56390 -0.17600
H 	H 	0.62170 0.96690 0.62180 0.09800
C 	C 	0.72360 0.08750 0.72270 -0.08600
H 	H 	0.70660 0.96960 0.70400 0.07900
N 	N 	0.93758 0.84430 0.06390 -0.16000
H 	H 	0.87830 0.03310 0.12180 0.03600
C 	C 	0.77640 0.91250 0.22270 -0.00200
H 	H 	0.79340 0.03040 0.20400 -0.00200
N 	N 	0.43758 0.34430 0.56390 -0.17300
H 	H 	0.37830 0.53310 0.62180 0.07400
C 	C 	0.27640 0.41250 0.72270 -0.04400
H 	H 	0.29340 0.53040 0.70400 0.04400
N 	N 	0.93758 0.15570 0.93610 -0.13300
H 	H 	0.87830 0.96690 0.87820 0.11400
C 	C 	0.77640 0.08750 0.77730 -0.08600
H 	H 	0.79340 0.96960 0.79600 0.08200
N 	N 	0.43758 0.65570 0.43610 -0.17400
H 	H 	0.37830 0.46690 0.37820 0.06400
C 	C 	0.27640 0.58750 0.27730 -0.05500
H 	H 	0.29340 0.46960 0.29600 0.03700
N 	N 	0.06242 0.34430 0.93610 -0.15500
H 	H 	0.12170 0.53310 0.87820 0.08300
C 	C 	0.22360 0.41250 0.77730 -0.04700
H 	H 	0.20660 0.53040 0.79600 0.04700
N 	N 	0.56242 0.84430 0.43610 -0.16700
H 	H 	0.62170 0.03310 0.37820 0.04000
C 	C 	0.72360 0.91250 0.27730 -0.00600
H 	H 	0.70660 0.03040 0.29600 0.00100
Cu	Cu	0.00000 0.50000 -0.00000 0.76700
Cu	Cu	0.50000 0.00000 0.50000 0.81400
Cu	Cu	-0.00000 0.00000 -0.00000 0.75000
Cu	Cu	0.50000 0.50000 0.50000 0.83000
C 	C 	0.80350 0.25000 0.80380 0.01900
C 	C 	0.85930 0.25000 0.85840 0.05600
C 	C 	0.30350 0.75000 0.30380 -0.00400
C 	C 	0.35930 0.75000 0.35840 0.02900
C 	C 	0.19650 0.25000 0.80380 0.00700
C 	C 	0.14070 0.25000 0.85840 0.07100
C 	C 	0.69650 0.75000 0.30380 -0.01300
C 	C 	0.64070 0.75000 0.35840 0.05500
C 	C 	0.19650 0.75000 0.19620 -0.01100
C 	C 	0.14070 0.75000 0.14160 0.02200
C 	C 	0.69650 0.25000 0.69620 0.01300
C 	C 	0.64070 0.25000 0.64160 0.04800
C 	C 	0.80350 0.75000 0.19620 -0.01800
C 	C 	0.85930 0.75000 0.14160 0.05600
C 	C 	0.30350 0.25000 0.69620 0.00300
C 	C 	0.35930 0.25000 0.64160 0.07000
