data_crystal

_cell_length_a 24.56100
_cell_length_b 6.98600
_cell_length_c 9.13330
_cell_angle_alpha 90.00000
_cell_angle_beta  90.00000
_cell_angle_gamma 90.00000

_symmetry_space_group_name_	'P 1'
_symmetry_space_group_name_H-M	'P 1'

loop_
_symmetry_equiv_pos_as_xyz
  x,y,z

loop_
_atom_site_label
_atom_site_type_symbol
_atom_site_fract_x
_atom_site_fract_y
_atom_site_fract_z
_atom_site_charge
N 	N 	0.44234 0.15430 0.59820 -0.19500
H 	H 	0.38320 0.96460 0.65910 0.06500
C 	C 	0.39417 0.09410 0.64730 -0.08600
C 	C 	0.27770 0.08600 0.73410 -0.08400
H 	H 	0.29600 0.96710 0.72390 0.08200
N 	N 	0.39417 0.40590 0.64730 -0.14100
N 	N 	0.94234 0.65430 0.09820 -0.19600
H 	H 	0.88320 0.46460 0.15910 0.00800
C 	C 	0.89417 0.59410 0.14730 -0.03000
C 	C 	0.77770 0.58600 0.23410 -0.05000
H 	H 	0.79600 0.46710 0.22390 0.03200
N 	N 	0.89417 0.90590 0.14730 -0.11600
N 	N 	0.55766 0.34570 0.59820 -0.20000
H 	H 	0.61680 0.53540 0.65910 0.02000
C 	C 	0.60583 0.40590 0.64730 -0.01000
C 	C 	0.72230 0.41400 0.73410 -0.04500
H 	H 	0.70400 0.53290 0.72390 0.04900
N 	N 	0.60583 0.09410 0.64730 -0.16200
N 	N 	0.05766 0.84570 0.09820 -0.22400
H 	H 	0.11680 0.03540 0.15910 -0.05000
C 	C 	0.10583 0.90590 0.14730 0.05000
C 	C 	0.22230 0.91400 0.23410 -0.00700
H 	H 	0.20400 0.03290 0.22390 -0.00700
N 	N 	0.10583 0.59410 0.14730 -0.14100
N 	N 	0.55766 0.65430 0.40180 -0.20400
H 	H 	0.61680 0.46460 0.34090 0.00800
C 	C 	0.60583 0.59410 0.35270 -0.02300
C 	C 	0.72230 0.58600 0.26590 -0.05300
H 	H 	0.70400 0.46710 0.27610 0.03400
N 	N 	0.60583 0.90590 0.35270 -0.11400
N 	N 	0.05766 0.15430 0.90180 -0.17800
H 	H 	0.11680 0.96460 0.84090 0.06900
C 	C 	0.10583 0.09410 0.85270 -0.07300
C 	C 	0.22230 0.08600 0.76590 -0.08500
H 	H 	0.20400 0.96710 0.77610 0.08300
N 	N 	0.10583 0.40590 0.85270 -0.13800
N 	N 	0.44234 0.84570 0.40180 -0.20800
H 	H 	0.38320 0.03540 0.34090 -0.04000
C 	C 	0.39417 0.90590 0.35270 0.05800
C 	C 	0.27770 0.91400 0.26590 -0.01100
H 	H 	0.29600 0.03290 0.27610 -0.00300
N 	N 	0.39417 0.59410 0.35270 -0.13700
N 	N 	0.94234 0.34570 0.90180 -0.16000
H 	H 	0.88320 0.53540 0.84090 0.03400
C 	C 	0.89417 0.40590 0.85270 0.00100
C 	C 	0.77770 0.41400 0.76590 -0.04600
H 	H 	0.79600 0.53290 0.77610 0.05300
N 	N 	0.89417 0.09410 0.85270 -0.15600
N 	N 	0.55766 0.84570 0.40180 -0.17000
H 	H 	0.61680 0.03540 0.34090 0.03600
C 	C 	0.72230 0.91400 0.26590 -0.00400
H 	H 	0.70400 0.03290 0.27610 -0.00400
N 	N 	0.05766 0.34570 0.90180 -0.15500
H 	H 	0.11680 0.53540 0.84090 0.08800
C 	C 	0.22230 0.41400 0.76590 -0.04300
H 	H 	0.20400 0.53290 0.77610 0.05100
N 	N 	0.44234 0.65430 0.40180 -0.17800
H 	H 	0.38320 0.46460 0.34090 0.06300
C 	C 	0.27770 0.58600 0.26590 -0.05600
H 	H 	0.29600 0.46710 0.27610 0.03600
N 	N 	0.94234 0.15430 0.90180 -0.13400
H 	H 	0.88320 0.96460 0.84090 0.11900
C 	C 	0.77770 0.08600 0.76590 -0.08600
H 	H 	0.79600 0.96710 0.77610 0.08700
N 	N 	0.44234 0.34570 0.59820 -0.17200
H 	H 	0.38320 0.53540 0.65910 0.08000
C 	C 	0.27770 0.41400 0.73410 -0.04000
H 	H 	0.29600 0.53290 0.72390 0.04800
N 	N 	0.94234 0.84570 0.09820 -0.16100
H 	H 	0.88320 0.03540 0.15910 0.03300
C 	C 	0.77770 0.91400 0.23410 -0.00000
H 	H 	0.79600 0.03290 0.22390 -0.00600
N 	N 	0.55766 0.15430 0.59820 -0.17700
H 	H 	0.61680 0.96460 0.65910 0.10500
C 	C 	0.72230 0.08600 0.73410 -0.08600
H 	H 	0.70400 0.96710 0.72390 0.08400
N 	N 	0.05766 0.65430 0.09820 -0.19700
H 	H 	0.11680 0.46460 0.15910 0.05200
C 	C 	0.22230 0.58600 0.23410 -0.05300
H 	H 	0.20400 0.46710 0.22390 0.03200
Cu	Cu	0.50000 0.00000 0.50000 0.81000
Cu	Cu	-0.00000 0.50000 -0.00000 0.76400
Cu	Cu	0.50000 0.50000 0.50000 0.82700
Cu	Cu	-0.00000 0.00000 -0.00000 0.74600
C 	C 	0.36390 0.25000 0.67720 0.07600
C 	C 	0.30600 0.25000 0.71740 0.00500
C 	C 	0.86390 0.75000 0.17720 0.05300
C 	C 	0.80600 0.75000 0.21740 -0.02300
C 	C 	0.63610 0.25000 0.67720 0.05000
C 	C 	0.69400 0.25000 0.71740 0.01600
C 	C 	0.13610 0.75000 0.17720 0.01800
C 	C 	0.19400 0.75000 0.21740 -0.01300
C 	C 	0.63610 0.75000 0.32280 0.05000
C 	C 	0.69400 0.75000 0.28260 -0.01800
C 	C 	0.13610 0.25000 0.82280 0.07400
C 	C 	0.19400 0.25000 0.78260 0.01000
C 	C 	0.36390 0.75000 0.32280 0.02200
C 	C 	0.30600 0.75000 0.28260 -0.00800
C 	C 	0.86390 0.25000 0.82280 0.05600
C 	C 	0.80600 0.25000 0.78260 0.02000
