data_crystal

_cell_length_a 17.00930
_cell_length_b 11.99390
_cell_length_c 25.03170
_cell_angle_alpha 90.00000
_cell_angle_beta  92.91100
_cell_angle_gamma 90.00000

_symmetry_space_group_name_	'P 1'
_symmetry_space_group_name_H-M	'P 1'

loop_
_symmetry_equiv_pos_as_xyz
  x,y,z

loop_
_atom_site_label
_atom_site_type_symbol
_atom_site_fract_x
_atom_site_fract_y
_atom_site_fract_z
_atom_site_charge
Cu	Cu	0.04641 0.69513 0.12147 0.85100
S 	S 	0.77800 0.42600 0.10954 0.04100
S 	S 	0.28270 0.46140 0.13616 0.03400
O 	O 	0.46160 0.28900 0.09120 -0.45600
O 	O 	0.96940 0.59050 0.14840 -0.35700
O 	O 	0.62720 0.31100 0.11540 -0.44100
O 	O 	0.10450 0.57720 0.04920 -0.58000
O 	O 	0.13390 0.59130 0.13630 -0.42000
O 	O 	0.91870 0.53900 0.06890 -0.48000
C 	C 	0.41660 0.33540 0.12200 0.44300
O 	O 	0.42880 0.34640 0.17070 -0.53500
C 	C 	0.91700 0.54910 0.11760 0.40100
C 	C 	0.21920 0.48560 0.08180 -0.12800
C 	C 	0.14820 0.55250 0.08970 0.34400
C 	C 	0.84570 0.50710 0.14510 -0.10100
O 	O 	0.60890 0.34200 0.20120 -0.52000
C 	C 	0.34470 0.38200 0.09670 -0.14800
C 	C 	0.31490 0.38120 0.04480 0.00900
H 	H 	0.33890 0.34370 0.01740 0.00300
C 	C 	0.64670 0.34550 0.15780 0.41900
C 	C 	0.24440 0.44270 0.03670 -0.03400
H 	H 	0.21840 0.45230 0.00340 0.01100
C 	C 	0.72090 0.41500 0.16370 -0.11500
C 	C 	0.82360 0.53400 0.19440 -0.00600
H 	H 	0.85150 0.58080 0.21800 0.04800
C 	C 	0.75130 0.47900 0.20540 -0.00200
H 	H 	0.72710 0.48690 0.23770 0.03100
Cu	Cu	0.54641 0.19513 0.12147 0.92200
S 	S 	0.27800 0.92600 0.10954 0.10300
S 	S 	0.78270 0.96140 0.13616 0.08400
O 	O 	0.96160 0.78900 0.09120 -0.36000
O 	O 	0.46940 0.09050 0.14840 -0.45700
O 	O 	0.12720 0.81100 0.11540 -0.47500
O 	O 	0.60450 0.07720 0.04920 -0.53800
O 	O 	0.63390 0.09130 0.13630 -0.38700
O 	O 	0.41870 0.03900 0.06890 -0.56100
C 	C 	0.91660 0.83540 0.12200 0.43100
O 	O 	0.92880 0.84640 0.17070 -0.46200
C 	C 	0.41700 0.04910 0.11760 0.42100
C 	C 	0.71920 0.98560 0.08180 -0.04700
C 	C 	0.64820 0.05250 0.08970 0.27800
C 	C 	0.34570 0.00710 0.14510 -0.15500
O 	O 	0.10890 0.84200 0.20120 -0.56400
C 	C 	0.84470 0.88200 0.09670 -0.13000
C 	C 	0.81490 0.88120 0.04480 0.03200
H 	H 	0.83890 0.84370 0.01740 0.02500
C 	C 	0.14670 0.84550 0.15780 0.44000
C 	C 	0.74440 0.94270 0.03670 -0.05500
H 	H 	0.71840 0.95230 0.00340 0.04700
C 	C 	0.22090 0.91500 0.16370 -0.15900
C 	C 	0.32360 0.03400 0.19440 -0.09500
H 	H 	0.35150 0.08080 0.21800 0.04800
C 	C 	0.25130 0.97900 0.20540 0.09700
H 	H 	0.22710 0.98690 0.23770 -0.00100
Cu	Cu	0.95359 0.69513 0.37853 0.99900
S 	S 	0.22200 0.42600 0.39046 0.04200
S 	S 	0.71730 0.46140 0.36384 0.05900
O 	O 	0.53840 0.28900 0.40880 -0.44500
O 	O 	0.03060 0.59050 0.35160 -0.53700
O 	O 	0.37280 0.31100 0.38460 -0.43300
O 	O 	0.89550 0.57720 0.45080 -0.45400
O 	O 	0.86610 0.59130 0.36370 -0.35000
O 	O 	0.08130 0.53900 0.43110 -0.56500
C 	C 	0.58340 0.33540 0.37800 0.44800
O 	O 	0.57120 0.34640 0.32930 -0.53100
C 	C 	0.08300 0.54910 0.38240 0.43200
C 	C 	0.78080 0.48560 0.41820 -0.09400
C 	C 	0.85180 0.55250 0.41030 0.33800
C 	C 	0.15430 0.50710 0.35490 -0.14600
O 	O 	0.39110 0.34200 0.29880 -0.52200
C 	C 	0.65530 0.38200 0.40330 -0.14400
C 	C 	0.68510 0.38120 0.45520 0.02700
H 	H 	0.66110 0.34370 0.48260 0.01900
C 	C 	0.35330 0.34550 0.34220 0.41300
C 	C 	0.75560 0.44270 0.46330 -0.03400
H 	H 	0.78160 0.45230 0.49660 0.04700
C 	C 	0.27910 0.41500 0.33630 -0.11400
C 	C 	0.17640 0.53400 0.30560 0.01000
H 	H 	0.14850 0.58080 0.28200 0.00900
C 	C 	0.24870 0.47900 0.29460 -0.02600
H 	H 	0.27290 0.48690 0.26230 0.03100
Cu	Cu	0.45359 0.19513 0.37853 0.92300
S 	S 	0.72200 0.92600 0.39046 0.15400
S 	S 	0.21730 0.96140 0.36384 0.05500
O 	O 	0.03840 0.78900 0.40880 -0.52200
O 	O 	0.53060 0.09050 0.35160 -0.45500
O 	O 	0.87280 0.81100 0.38460 -0.39000
O 	O 	0.39550 0.07720 0.45080 -0.51800
O 	O 	0.36610 0.09130 0.36370 -0.38800
O 	O 	0.58130 0.03900 0.43110 -0.53800
C 	C 	0.08340 0.83540 0.37800 0.46700
O 	O 	0.07120 0.84640 0.32930 -0.58100
C 	C 	0.58300 0.04910 0.38240 0.42300
C 	C 	0.28080 0.98560 0.41820 -0.02800
C 	C 	0.35180 0.05250 0.41030 0.27000
C 	C 	0.65430 0.00710 0.35490 -0.16000
O 	O 	0.89110 0.84200 0.29880 -0.46200
C 	C 	0.15530 0.88200 0.40330 -0.16900
C 	C 	0.18510 0.88120 0.45520 0.05800
H 	H 	0.16110 0.84370 0.48260 0.00100
C 	C 	0.85330 0.84550 0.34220 0.42800
C 	C 	0.25560 0.94270 0.46330 -0.08200
H 	H 	0.28160 0.95230 0.49660 0.07200
C 	C 	0.77910 0.91500 0.33630 -0.13700
C 	C 	0.67640 0.03400 0.30560 -0.08000
H 	H 	0.64850 0.08080 0.28200 0.04800
C 	C 	0.74870 0.97900 0.29460 0.09500
H 	H 	0.77290 0.98690 0.26230 0.01900
Cu	Cu	0.95359 0.30487 0.87853 0.99700
S 	S 	0.22200 0.57400 0.89046 0.08800
S 	S 	0.71730 0.53860 0.86384 0.06500
O 	O 	0.53840 0.71100 0.90880 -0.42900
O 	O 	0.03060 0.40950 0.85160 -0.52800
O 	O 	0.37280 0.68900 0.88460 -0.41900
O 	O 	0.89550 0.42280 0.95080 -0.43600
O 	O 	0.86610 0.40870 0.86370 -0.34600
O 	O 	0.08130 0.46100 0.93110 -0.53600
C 	C 	0.58340 0.66460 0.87800 0.44600
O 	O 	0.57120 0.65360 0.82930 -0.52800
C 	C 	0.08300 0.45090 0.88240 0.43300
C 	C 	0.78080 0.51440 0.91820 -0.08300
C 	C 	0.85180 0.44750 0.91030 0.33900
C 	C 	0.15430 0.49290 0.85490 -0.14300
O 	O 	0.39110 0.65800 0.79880 -0.51700
C 	C 	0.65530 0.61800 0.90330 -0.13400
C 	C 	0.68510 0.61880 0.95520 0.03500
H 	H 	0.66110 0.65630 0.98260 0.04300
C 	C 	0.35330 0.65450 0.84220 0.41800
C 	C 	0.75560 0.55730 0.96330 -0.02800
H 	H 	0.78160 0.54770 0.99660 0.07100
C 	C 	0.27910 0.58500 0.83630 -0.11400
C 	C 	0.17640 0.46600 0.80560 0.01200
H 	H 	0.14850 0.41920 0.78200 0.01100
C 	C 	0.24870 0.52100 0.79460 -0.02000
H 	H 	0.27290 0.51310 0.76230 0.03100
Cu	Cu	0.45359 0.80487 0.87853 0.92800
S 	S 	0.72200 0.07400 0.89046 0.02400
S 	S 	0.21730 0.03860 0.86384 0.01800
O 	O 	0.03840 0.21100 0.90880 -0.51800
O 	O 	0.53060 0.90950 0.85160 -0.43400
O 	O 	0.87280 0.18900 0.88460 -0.38300
O 	O 	0.39550 0.92280 0.95080 -0.48200
O 	O 	0.36610 0.90870 0.86370 -0.37900
O 	O 	0.58130 0.96100 0.93110 -0.46400
C 	C 	0.08340 0.16460 0.87800 0.45500
O 	O 	0.07120 0.15360 0.82930 -0.58800
C 	C 	0.58300 0.95090 0.88240 0.41600
C 	C 	0.28080 0.01440 0.91820 -0.16600
C 	C 	0.35180 0.94750 0.91030 0.40500
C 	C 	0.65430 0.99290 0.85490 -0.09200
O 	O 	0.89110 0.15800 0.79880 -0.46400
C 	C 	0.15530 0.11800 0.90330 -0.15000
C 	C 	0.18510 0.11880 0.95520 0.01000
H 	H 	0.16110 0.15630 0.98260 0.02400
C 	C 	0.85330 0.15450 0.84220 0.39400
C 	C 	0.25560 0.05730 0.96330 -0.00400
H 	H 	0.28160 0.04770 0.99660 0.03600
C 	C 	0.77910 0.08500 0.83630 -0.06700
C 	C 	0.67640 0.96600 0.80560 0.10300
H 	H 	0.64850 0.91920 0.78200 0.00800
C 	C 	0.74870 0.02100 0.79460 -0.12100
H 	H 	0.77290 0.01310 0.76230 0.06300
Cu	Cu	0.04641 0.30487 0.62147 0.85300
S 	S 	0.77800 0.57400 0.60954 0.08600
S 	S 	0.28270 0.53860 0.63616 0.04200
O 	O 	0.46160 0.71100 0.59120 -0.44000
O 	O 	0.96940 0.40950 0.64840 -0.35100
O 	O 	0.62720 0.68900 0.61540 -0.42700
O 	O 	0.10450 0.42280 0.54920 -0.56300
O 	O 	0.13390 0.40870 0.63630 -0.41400
O 	O 	0.91870 0.46100 0.56890 -0.45700
C 	C 	0.41660 0.66460 0.62200 0.44300
O 	O 	0.42880 0.65360 0.67070 -0.53100
C 	C 	0.91700 0.45090 0.61760 0.40300
C 	C 	0.21920 0.51440 0.58180 -0.11800
C 	C 	0.14820 0.44750 0.58970 0.34500
C 	C 	0.84570 0.49290 0.64510 -0.10000
O 	O 	0.60890 0.65800 0.70120 -0.51500
C 	C 	0.34470 0.61800 0.59670 -0.13900
C 	C 	0.31490 0.61880 0.54480 0.01700
H 	H 	0.33890 0.65630 0.51740 0.02600
C 	C 	0.64670 0.65450 0.65780 0.42400
C 	C 	0.24440 0.55730 0.53670 -0.02800
H 	H 	0.21840 0.54770 0.50340 0.03500
C 	C 	0.72090 0.58500 0.66370 -0.11500
C 	C 	0.82360 0.46600 0.69440 -0.00300
H 	H 	0.85150 0.41920 0.71800 0.04900
C 	C 	0.75130 0.52100 0.70540 0.00300
H 	H 	0.72710 0.51310 0.73770 0.03100
Cu	Cu	0.54641 0.80487 0.62147 0.92600
S 	S 	0.27800 0.07400 0.60954 -0.02600
S 	S 	0.78270 0.03860 0.63616 0.04600
O 	O 	0.96160 0.21100 0.59120 -0.35900
O 	O 	0.46940 0.90950 0.64840 -0.43600
O 	O 	0.12720 0.18900 0.61540 -0.46800
O 	O 	0.60450 0.92280 0.54920 -0.50600
O 	O 	0.63390 0.90870 0.63630 -0.37900
O 	O 	0.41870 0.96100 0.56890 -0.49100
C 	C 	0.91660 0.16460 0.62200 0.41900
O 	O 	0.92880 0.15360 0.67070 -0.47100
C 	C 	0.41700 0.95090 0.61760 0.41400
C 	C 	0.71920 0.01440 0.58180 -0.18600
C 	C 	0.64820 0.94750 0.58970 0.41600
C 	C 	0.34570 0.99290 0.64510 -0.08800
O 	O 	0.10890 0.15800 0.70120 -0.56400
C 	C 	0.84470 0.11800 0.59670 -0.11100
C 	C 	0.81490 0.11880 0.54480 -0.01600
H 	H 	0.83890 0.15630 0.51740 0.04600
C 	C 	0.14670 0.15450 0.65780 0.40600
C 	C 	0.74440 0.05730 0.53670 0.02200
H 	H 	0.71840 0.04770 0.50340 0.00900
C 	C 	0.22090 0.08500 0.66370 -0.08900
C 	C 	0.32360 0.96600 0.69440 0.08900
H 	H 	0.35150 0.91920 0.71800 0.00800
C 	C 	0.25130 0.02100 0.70540 -0.11900
H 	H 	0.22710 0.01310 0.73770 0.04500
Ca	Ca	0.50000 0.35900 0.25000 1.50000
Ca	Ca	0.00000 0.85900 0.25000 1.47400
Ca	Ca	0.50000 0.64100 0.75000 1.50000
Ca	Ca	0.00000 0.14100 0.75000 1.47100
Ca	Ca	-0.00000 0.50000 -0.00000 1.45700
Ca	Ca	0.50000 0.00000 -0.00000 1.47500
Ca	Ca	0.00000 0.50000 0.50000 1.46800
Ca	Ca	0.50000 0.00000 0.50000 1.48600
