data_crystal

_cell_length_a 9.88840
_cell_length_b 9.88840
_cell_length_c 15.78290
_cell_angle_alpha 90.00000
_cell_angle_beta  90.00000
_cell_angle_gamma 90.00000

_symmetry_space_group_name_	'P 1'
_symmetry_space_group_name_H-M	'P 1'

loop_
_symmetry_equiv_pos_as_xyz
  x,y,z

loop_
_atom_site_label
_atom_site_type_symbol
_atom_site_fract_x
_atom_site_fract_y
_atom_site_fract_z
_atom_site_charge
C 	C 	0.24340 0.15710 0.18870 -0.00200
H 	H 	0.24100 0.09370 0.14520 0.05400
C 	C 	0.74340 0.65710 0.68870 0.04400
H 	H 	0.74100 0.59370 0.64520 0.08800
C 	C 	0.75660 0.84290 0.18870 0.04600
H 	H 	0.75900 0.90630 0.14520 0.14300
C 	C 	0.25660 0.34290 0.68870 0.00900
H 	H 	0.25900 0.40630 0.64520 0.06800
C 	C 	0.84290 0.24340 0.18870 0.02400
H 	H 	0.90630 0.24100 0.14520 0.12100
C 	C 	0.34290 0.74340 0.68870 0.03000
H 	H 	0.40630 0.74100 0.64520 0.08600
C 	C 	0.15710 0.75660 0.18870 0.02100
H 	H 	0.09370 0.75900 0.14520 0.08000
C 	C 	0.65710 0.25660 0.68870 0.02400
H 	H 	0.59370 0.25900 0.64520 0.06900
C 	C 	0.75660 0.15710 0.31130 0.02600
H 	H 	0.75900 0.09370 0.35480 0.08800
C 	C 	0.25660 0.65710 0.81130 0.02900
H 	H 	0.25900 0.59370 0.85480 0.07500
C 	C 	0.24340 0.84290 0.31130 0.02800
H 	H 	0.24100 0.90630 0.35480 0.12900
C 	C 	0.74340 0.34290 0.81130 0.03500
H 	H 	0.74100 0.40630 0.85480 0.09100
C 	C 	0.15710 0.24340 0.31130 0.00200
H 	H 	0.09370 0.24100 0.35480 0.06200
C 	C 	0.65710 0.74340 0.81130 0.04800
H 	H 	0.59370 0.74100 0.85480 0.09300
C 	C 	0.84290 0.75660 0.31130 0.05000
H 	H 	0.90630 0.75900 0.35480 0.15100
C 	C 	0.34290 0.25660 0.81130 0.01400
H 	H 	0.40630 0.25900 0.85480 0.07400
C 	C 	0.75660 0.84290 0.81130 0.04300
H 	H 	0.75900 0.90630 0.85480 0.13400
C 	C 	0.25660 0.34290 0.31130 0.00900
H 	H 	0.25900 0.40630 0.35480 0.06800
C 	C 	0.24340 0.15710 0.81130 -0.00400
H 	H 	0.24100 0.09370 0.85480 0.05000
C 	C 	0.74340 0.65710 0.31130 0.04500
H 	H 	0.74100 0.59370 0.35480 0.08800
C 	C 	0.15710 0.75660 0.81130 0.01900
H 	H 	0.09370 0.75900 0.85480 0.07400
C 	C 	0.65710 0.25660 0.31130 0.02500
H 	H 	0.59370 0.25900 0.35480 0.06900
C 	C 	0.84290 0.24340 0.81130 0.02200
H 	H 	0.90630 0.24100 0.85480 0.11400
C 	C 	0.34290 0.74340 0.31130 0.03100
H 	H 	0.40630 0.74100 0.35480 0.08600
C 	C 	0.24340 0.84290 0.68870 0.02800
H 	H 	0.24100 0.90630 0.64520 0.12900
C 	C 	0.74340 0.34290 0.18870 0.03600
H 	H 	0.74100 0.40630 0.14520 0.09700
C 	C 	0.75660 0.15710 0.68870 0.02500
H 	H 	0.75900 0.09370 0.64520 0.08800
C 	C 	0.25660 0.65710 0.18870 0.03000
H 	H 	0.25900 0.59370 0.14520 0.08100
C 	C 	0.84290 0.75660 0.68870 0.04900
H 	H 	0.90630 0.75900 0.64520 0.15000
C 	C 	0.34290 0.25660 0.18870 0.01500
H 	H 	0.40630 0.25900 0.14520 0.07900
C 	C 	0.15710 0.24340 0.68870 0.00200
H 	H 	0.09370 0.24100 0.64520 0.06300
C 	C 	0.65710 0.74340 0.18870 0.05100
H 	H 	0.59370 0.74100 0.14520 0.09900
Nb	Nb	-0.00000 0.00000 -0.00000 1.52800
Nb	Nb	0.50000 0.50000 0.50000 1.67400
Nb	Nb	0.00000 0.00000 0.50000 1.58400
Nb	Nb	0.50000 0.50000 -0.00000 1.75000
Ni	Ni	0.00000 0.00000 0.25000 1.02800
Ni	Ni	0.50000 0.50000 0.75000 1.12300
Ni	Ni	-0.00000 0.00000 0.75000 1.03000
Ni	Ni	0.50000 0.50000 0.25000 1.12300
O 	O 	0.00000 0.00000 0.12230 -0.57700
F 	F 	0.00000 0.00000 0.37770 -0.75000
O 	O 	0.50000 0.50000 0.62230 -0.42800
F 	F 	0.50000 0.50000 0.87770 -0.63700
O 	O 	0.00000 0.00000 0.87770 -0.58100
F 	F 	0.00000 0.00000 0.62230 -0.74900
O 	O 	0.50000 0.50000 0.37770 -0.42800
F 	F 	0.50000 0.50000 0.12230 -0.62800
F 	F 	0.19200 0.01930 -0.00000 -0.53200
F 	F 	0.69200 0.51930 0.50000 -0.46500
F 	F 	0.80800 0.98070 -0.00000 -0.33200
F 	F 	0.30800 0.48070 0.50000 -0.50500
F 	F 	0.98070 0.19200 -0.00000 -0.39400
F 	F 	0.48070 0.69200 0.50000 -0.47300
F 	F 	0.01930 0.80800 -0.00000 -0.45900
F 	F 	0.51930 0.30800 0.50000 -0.49800
F 	F 	0.80800 0.01930 0.50000 -0.45000
F 	F 	0.30800 0.51930 -0.00000 -0.47200
F 	F 	0.19200 0.98070 0.50000 -0.38500
F 	F 	0.69200 0.48070 -0.00000 -0.44700
F 	F 	0.01930 0.19200 0.50000 -0.52100
F 	F 	0.51930 0.69200 -0.00000 -0.43900
F 	F 	0.98070 0.80800 0.50000 -0.32400
F 	F 	0.48070 0.30800 -0.00000 -0.48000
N 	N 	0.15180 0.15180 0.25000 -0.20800
N 	N 	0.65180 0.65180 0.75000 -0.18200
N 	N 	0.84820 0.84820 0.25000 -0.09600
N 	N 	0.34820 0.34820 0.75000 -0.18700
N 	N 	0.84820 0.15180 0.25000 -0.14900
N 	N 	0.34820 0.65180 0.75000 -0.18400
N 	N 	0.15180 0.84820 0.25000 -0.14900
N 	N 	0.65180 0.34820 0.75000 -0.18400
N 	N 	0.84820 0.84820 0.75000 -0.09900
N 	N 	0.34820 0.34820 0.25000 -0.18600
N 	N 	0.15180 0.15180 0.75000 -0.20800
N 	N 	0.65180 0.65180 0.25000 -0.18100
N 	N 	0.15180 0.84820 0.75000 -0.15000
N 	N 	0.65180 0.34820 0.25000 -0.18400
N 	N 	0.84820 0.15180 0.75000 -0.15000
N 	N 	0.34820 0.65180 0.25000 -0.18400
