data_crystal

_cell_length_a 9.94300
_cell_length_b 9.94300
_cell_length_c 15.76400
_cell_angle_alpha 90.00000
_cell_angle_beta  90.00000
_cell_angle_gamma 90.00000

_symmetry_space_group_name_	'P 1'
_symmetry_space_group_name_H-M	'P 1'

loop_
_symmetry_equiv_pos_as_xyz
  x,y,z

loop_
_atom_site_label
_atom_site_type_symbol
_atom_site_fract_x
_atom_site_fract_y
_atom_site_fract_z
_atom_site_charge
C 	C 	0.24210 0.16010 0.31200 -0.00500
H 	H 	0.23920 0.09850 0.35640 0.05100
C 	C 	0.74210 0.66010 0.81200 0.04500
H 	H 	0.73920 0.59850 0.85640 0.07900
C 	C 	0.75790 0.83990 0.31200 0.04600
H 	H 	0.76080 0.90150 0.35640 0.14500
C 	C 	0.25790 0.33990 0.81200 0.00900
H 	H 	0.26080 0.40150 0.85640 0.05900
C 	C 	0.83990 0.24210 0.31200 0.02300
H 	H 	0.90150 0.23920 0.35640 0.12000
C 	C 	0.33990 0.74210 0.81200 0.03000
H 	H 	0.40150 0.73920 0.85640 0.07700
C 	C 	0.16010 0.75790 0.31200 0.02000
H 	H 	0.09850 0.76080 0.35640 0.08100
C 	C 	0.66010 0.25790 0.81200 0.02500
H 	H 	0.59850 0.26080 0.85640 0.06100
C 	C 	0.75790 0.16010 0.18800 0.02100
H 	H 	0.76080 0.09850 0.14360 0.08200
C 	C 	0.25790 0.66010 0.68800 0.02600
H 	H 	0.26080 0.59850 0.64360 0.06800
C 	C 	0.24210 0.83990 0.18800 0.02400
H 	H 	0.23920 0.90150 0.14360 0.12100
C 	C 	0.74210 0.33990 0.68800 0.03100
H 	H 	0.73920 0.40150 0.64360 0.08500
C 	C 	0.16010 0.24210 0.18800 -0.00400
H 	H 	0.09850 0.23920 0.14360 0.05200
C 	C 	0.66010 0.74210 0.68800 0.04600
H 	H 	0.59850 0.73920 0.64360 0.08700
C 	C 	0.83990 0.75790 0.18800 0.04700
H 	H 	0.90150 0.76080 0.14360 0.14600
C 	C 	0.33990 0.25790 0.68800 0.00900
H 	H 	0.40150 0.26080 0.64360 0.06600
C 	C 	0.75790 0.83990 0.68800 0.04500
H 	H 	0.76080 0.90150 0.64360 0.14400
C 	C 	0.25790 0.33990 0.18800 0.01000
H 	H 	0.26080 0.40150 0.14360 0.06700
C 	C 	0.24210 0.16010 0.68800 -0.00500
H 	H 	0.23920 0.09850 0.64360 0.05200
C 	C 	0.74210 0.66010 0.18800 0.04800
H 	H 	0.73920 0.59850 0.14360 0.08900
C 	C 	0.16010 0.75790 0.68800 0.02000
H 	H 	0.09850 0.76080 0.64360 0.08100
C 	C 	0.66010 0.25790 0.18800 0.02700
H 	H 	0.59850 0.26080 0.14360 0.06900
C 	C 	0.83990 0.24210 0.68800 0.02200
H 	H 	0.90150 0.23920 0.64360 0.11900
C 	C 	0.33990 0.74210 0.18800 0.03200
H 	H 	0.40150 0.73920 0.14360 0.08600
C 	C 	0.24210 0.83990 0.81200 0.02100
H 	H 	0.23920 0.90150 0.85640 0.11100
C 	C 	0.74210 0.33990 0.31200 0.03200
H 	H 	0.73920 0.40150 0.35640 0.08500
C 	C 	0.75790 0.16010 0.81200 0.01900
H 	H 	0.76080 0.09850 0.85640 0.07400
C 	C 	0.25790 0.66010 0.31200 0.02700
H 	H 	0.26080 0.59850 0.35640 0.06800
C 	C 	0.83990 0.75790 0.81200 0.04400
H 	H 	0.90150 0.76080 0.85640 0.13500
C 	C 	0.33990 0.25790 0.31200 0.01000
H 	H 	0.40150 0.26080 0.35640 0.06600
C 	C 	0.16010 0.24210 0.81200 -0.00600
H 	H 	0.09850 0.23920 0.85640 0.04600
C 	C 	0.66010 0.74210 0.31200 0.04800
H 	H 	0.59850 0.73920 0.35640 0.08700
Nb	Nb	-0.00000 0.00000 -0.00000 1.52200
Nb	Nb	0.50000 0.50000 0.50000 1.67700
Nb	Nb	0.00000 0.00000 0.50000 1.51500
Nb	Nb	0.50000 0.50000 -0.00000 1.68700
Ni	Ni	0.00000 0.00000 0.25000 1.00400
Ni	Ni	0.50000 0.50000 0.75000 1.10200
Ni	Ni	-0.00000 -0.00000 0.75000 1.00600
Ni	Ni	0.50000 0.50000 0.25000 1.10200
O 	O 	0.00000 0.00000 0.12310 -0.58700
O 	O 	0.50000 0.50000 0.62310 -0.42800
O 	O 	0.00000 0.00000 0.37690 -0.58600
O 	O 	0.50000 0.50000 0.87690 -0.44400
O 	O 	-0.00000 -0.00000 0.87690 -0.59600
O 	O 	0.50000 0.50000 0.37690 -0.42700
O 	O 	0.00000 0.00000 0.62310 -0.58400
O 	O 	0.50000 0.50000 0.12310 -0.42800
F 	F 	0.00800 0.19080 -0.00000 -0.53900
F 	F 	0.50800 0.69080 0.50000 -0.46800
F 	F 	0.99200 0.80920 -0.00000 -0.32000
F 	F 	0.49200 0.30920 0.50000 -0.51100
F 	F 	0.80920 0.00800 -0.00000 -0.46300
F 	F 	0.30920 0.50800 0.50000 -0.50400
F 	F 	0.19080 0.99200 -0.00000 -0.38500
F 	F 	0.69080 0.49200 0.50000 -0.47500
F 	F 	0.99200 0.19080 0.50000 -0.39600
F 	F 	0.49200 0.69080 -0.00000 -0.46500
F 	F 	0.00800 0.80920 0.50000 -0.47300
F 	F 	0.50800 0.30920 -0.00000 -0.49400
F 	F 	0.19080 0.00800 0.50000 -0.54800
F 	F 	0.69080 0.50800 -0.00000 -0.45800
F 	F 	0.80920 0.99200 0.50000 -0.33200
F 	F 	0.30920 0.49200 -0.00000 -0.50100
N 	N 	0.15140 0.15140 0.25000 -0.21500
N 	N 	0.65140 0.65140 0.75000 -0.18700
N 	N 	0.84860 0.84860 0.25000 -0.09400
N 	N 	0.34860 0.34860 0.75000 -0.19300
N 	N 	0.84860 0.15140 0.25000 -0.15100
N 	N 	0.34860 0.65140 0.75000 -0.19000
N 	N 	0.15140 0.84860 0.25000 -0.15100
N 	N 	0.65140 0.34860 0.75000 -0.19000
N 	N 	0.84860 0.84860 0.75000 -0.09700
N 	N 	0.34860 0.34860 0.25000 -0.19300
N 	N 	0.15140 0.15140 0.75000 -0.21500
N 	N 	0.65140 0.65140 0.25000 -0.18700
N 	N 	0.15140 0.84860 0.75000 -0.15300
N 	N 	0.65140 0.34860 0.25000 -0.19000
N 	N 	0.84860 0.15140 0.75000 -0.15300
N 	N 	0.34860 0.65140 0.25000 -0.19000
