data_crystal

_cell_length_a 9.94200
_cell_length_b 9.94200
_cell_length_c 15.76400
_cell_angle_alpha 90.00000
_cell_angle_beta  90.00000
_cell_angle_gamma 90.00000

_symmetry_space_group_name_	'P 1'
_symmetry_space_group_name_H-M	'P 1'

loop_
_symmetry_equiv_pos_as_xyz
  x,y,z

loop_
_atom_site_label
_atom_site_type_symbol
_atom_site_fract_x
_atom_site_fract_y
_atom_site_fract_z
_atom_site_charge
C 	C 	0.24210 0.16010 0.31200 0.00300
H 	H 	0.23920 0.09850 0.35640 0.06300
C 	C 	0.74210 0.66010 0.81200 0.04800
H 	H 	0.73920 0.59850 0.85640 0.09300
C 	C 	0.75790 0.83990 0.31200 0.04900
H 	H 	0.76080 0.90150 0.35640 0.15100
C 	C 	0.25790 0.33990 0.81200 0.01400
H 	H 	0.26080 0.40150 0.85640 0.07400
C 	C 	0.83990 0.24210 0.31200 0.02700
H 	H 	0.90150 0.23920 0.35640 0.12700
C 	C 	0.33990 0.74210 0.81200 0.03400
H 	H 	0.40150 0.73920 0.85640 0.09100
C 	C 	0.16010 0.75790 0.31200 0.02500
H 	H 	0.09850 0.76080 0.35640 0.09100
C 	C 	0.66010 0.25790 0.81200 0.02900
H 	H 	0.59850 0.26080 0.85640 0.07600
C 	C 	0.75790 0.16010 0.18800 0.02000
H 	H 	0.76080 0.09850 0.14360 0.08300
C 	C 	0.25790 0.66010 0.68800 0.02400
H 	H 	0.26080 0.59850 0.64360 0.07000
C 	C 	0.24210 0.83990 0.18800 0.02200
H 	H 	0.23920 0.90150 0.14360 0.11900
C 	C 	0.74210 0.33990 0.68800 0.02900
H 	H 	0.73920 0.40150 0.64360 0.08600
C 	C 	0.16010 0.24210 0.18800 -0.00300
H 	H 	0.09850 0.23920 0.14360 0.05500
C 	C 	0.66010 0.74210 0.68800 0.04300
H 	H 	0.59850 0.73920 0.64360 0.08800
C 	C 	0.83990 0.75790 0.18800 0.04400
H 	H 	0.90150 0.76080 0.14360 0.14300
C 	C 	0.33990 0.25790 0.68800 0.00900
H 	H 	0.40150 0.26080 0.64360 0.06800
C 	C 	0.75790 0.83990 0.68800 0.04800
H 	H 	0.76080 0.90150 0.64360 0.15000
C 	C 	0.25790 0.33990 0.18800 0.01400
H 	H 	0.26080 0.40150 0.14360 0.08000
C 	C 	0.24210 0.16010 0.68800 0.00100
H 	H 	0.23920 0.09850 0.64360 0.06400
C 	C 	0.74210 0.66010 0.18800 0.05000
H 	H 	0.73920 0.59850 0.14360 0.10000
C 	C 	0.16010 0.75790 0.68800 0.02400
H 	H 	0.09850 0.76080 0.64360 0.09100
C 	C 	0.66010 0.25790 0.18800 0.03000
H 	H 	0.59850 0.26080 0.14360 0.08200
C 	C 	0.83990 0.24210 0.68800 0.02700
H 	H 	0.90150 0.23920 0.64360 0.12700
C 	C 	0.33990 0.74210 0.18800 0.03500
H 	H 	0.40150 0.73920 0.14360 0.09700
C 	C 	0.24210 0.83990 0.81200 0.02100
H 	H 	0.23920 0.90150 0.85640 0.11200
C 	C 	0.74210 0.33990 0.31200 0.03000
H 	H 	0.73920 0.40150 0.35640 0.08600
C 	C 	0.75790 0.16010 0.81200 0.01800
H 	H 	0.76080 0.09850 0.85640 0.07700
C 	C 	0.25790 0.66010 0.31200 0.02500
H 	H 	0.26080 0.59850 0.35640 0.07000
C 	C 	0.83990 0.75790 0.81200 0.04200
H 	H 	0.90150 0.76080 0.85640 0.13400
C 	C 	0.33990 0.25790 0.31200 0.00900
H 	H 	0.40150 0.26080 0.35640 0.06800
C 	C 	0.16010 0.24210 0.81200 -0.00400
H 	H 	0.09850 0.23920 0.85640 0.05100
C 	C 	0.66010 0.74210 0.31200 0.04500
H 	H 	0.59850 0.73920 0.35640 0.08800
Nb	Nb	-0.00000 0.00000 -0.00000 1.53000
Nb	Nb	0.50000 0.50000 0.50000 1.67700
Nb	Nb	0.00000 0.00000 0.50000 1.58500
Nb	Nb	0.50000 0.50000 -0.00000 1.75200
Ni	Ni	0.00000 0.00000 0.25000 1.03000
Ni	Ni	0.50000 0.50000 0.75000 1.12500
Ni	Ni	-0.00000 0.00000 0.75000 1.03200
Ni	Ni	0.50000 0.50000 0.25000 1.12500
O 	O 	0.00000 0.00000 0.12310 -0.57600
F 	F 	0.00000 -0.00000 0.37690 -0.74900
O 	O 	0.50000 0.50000 0.62310 -0.42700
F 	F 	0.50000 0.50000 0.87690 -0.63700
O 	O 	-0.00000 -0.00000 0.87690 -0.58100
F 	F 	0.00000 0.00000 0.62310 -0.74800
O 	O 	0.50000 0.50000 0.37690 -0.42700
F 	F 	0.50000 0.50000 0.12310 -0.62700
F 	F 	0.00800 0.19080 -0.00000 -0.53800
F 	F 	0.50800 0.69080 0.50000 -0.46800
F 	F 	0.99200 0.80920 -0.00000 -0.33200
F 	F 	0.49200 0.30920 0.50000 -0.50800
F 	F 	0.80920 0.00800 -0.00000 -0.46600
F 	F 	0.30920 0.50800 0.50000 -0.50200
F 	F 	0.19080 0.99200 -0.00000 -0.39300
F 	F 	0.69080 0.49200 0.50000 -0.47500
F 	F 	0.99200 0.19080 0.50000 -0.38400
F 	F 	0.49200 0.69080 -0.00000 -0.44900
F 	F 	0.00800 0.80920 0.50000 -0.45600
F 	F 	0.50800 0.30920 -0.00000 -0.47600
F 	F 	0.19080 0.00800 0.50000 -0.52700
F 	F 	0.69080 0.50800 -0.00000 -0.44200
F 	F 	0.80920 0.99200 0.50000 -0.32400
F 	F 	0.30920 0.49200 -0.00000 -0.48300
N 	N 	0.15140 0.15140 0.25000 -0.20600
N 	N 	0.65140 0.65140 0.75000 -0.17900
N 	N 	0.84860 0.84860 0.25000 -0.09400
N 	N 	0.34860 0.34860 0.75000 -0.18500
N 	N 	0.84860 0.15140 0.25000 -0.14700
N 	N 	0.34860 0.65140 0.75000 -0.18200
N 	N 	0.15140 0.84860 0.25000 -0.14700
N 	N 	0.65140 0.34860 0.75000 -0.18200
N 	N 	0.84860 0.84860 0.75000 -0.09600
N 	N 	0.34860 0.34860 0.25000 -0.18500
N 	N 	0.15140 0.15140 0.75000 -0.20600
N 	N 	0.65140 0.65140 0.25000 -0.17900
N 	N 	0.15140 0.84860 0.75000 -0.14800
N 	N 	0.65140 0.34860 0.25000 -0.18200
N 	N 	0.84860 0.15140 0.75000 -0.14800
N 	N 	0.34860 0.65140 0.25000 -0.18200
