data_crystal

_cell_length_a 20.58600
_cell_length_b 20.58600
_cell_length_c 7.52200
_cell_angle_alpha 90.00000
_cell_angle_beta  90.00000
_cell_angle_gamma 90.00000

_symmetry_space_group_name_	'P 1'
_symmetry_space_group_name_H-M	'P 1'

loop_
_symmetry_equiv_pos_as_xyz
  x,y,z

loop_
_atom_site_label
_atom_site_type_symbol
_atom_site_fract_x
_atom_site_fract_y
_atom_site_fract_z
_atom_site_charge
N 	N 	0.00590 0.42370 0.17320 -0.26100
C 	C 	0.01780 0.32490 0.43050 -0.09800
C 	C 	0.96080 0.35530 0.39300 -0.03500
H 	H 	0.92360 0.34410 0.45640 0.03300
C 	C 	0.95740 0.40120 0.26700 0.07800
H 	H 	0.91660 0.41870 0.24440 -0.03100
C 	C 	0.06210 0.39780 0.21490 0.03400
H 	H 	0.09870 0.41310 0.15590 -0.01300
C 	C 	0.02570 0.27420 0.57100 0.25300
N 	N 	0.98840 0.27880 0.69400 -0.13800
N 	N 	0.99090 0.07980 0.34250 -0.22100
C 	C 	0.97230 0.17810 0.08510 -0.00100
C 	C 	0.02180 0.13490 0.06920 -0.17400
H 	H 	0.05040 0.13760 0.97360 0.08500
C 	C 	0.02970 0.08600 0.19800 0.01600
H 	H 	0.06330 0.05630 0.18310 -0.02000
C 	C 	0.93290 0.17040 0.22880 -0.10400
H 	H 	0.89800 0.19850 0.24540 0.04300
C 	C 	0.95840 0.22660 0.94950 0.26500
N 	N 	0.99760 0.23100 0.82800 -0.13800
C 	C 	0.07420 0.22420 0.54700 -0.77500
H 	H 	0.09390 0.21410 0.65930 0.25200
H 	H 	0.10690 0.23930 0.46590 0.24300
H 	H 	0.05410 0.18590 0.49940 0.24700
C 	C 	0.90570 0.27250 0.95000 -0.70300
H 	H 	0.86900 0.25420 0.88970 0.22600
H 	H 	0.91900 0.31160 0.89120 0.24700
H 	H 	0.89390 0.28230 0.07090 0.20800
C 	C 	0.94400 0.12100 0.35110 0.06600
H 	H 	0.91540 0.11750 0.44640 -0.02600
C 	C 	0.07080 0.35040 0.33700 -0.06500
H 	H 	0.11240 0.33460 0.35970 0.02900
N 	N 	0.99410 0.57630 0.17320 -0.21200
C 	C 	0.98220 0.67510 0.43050 -0.02900
C 	C 	0.03920 0.64470 0.39300 -0.11700
H 	H 	0.07640 0.65590 0.45640 0.05100
C 	C 	0.04260 0.59880 0.26700 0.02400
H 	H 	0.08340 0.58130 0.24440 -0.02100
C 	C 	0.93790 0.60220 0.21490 0.06000
H 	H 	0.90130 0.58690 0.15590 -0.01600
C 	C 	0.97430 0.72580 0.57100 0.35600
N 	N 	0.01160 0.72120 0.69400 -0.20100
N 	N 	0.00910 0.92020 0.34250 -0.24200
C 	C 	0.02770 0.82190 0.08510 -0.15400
C 	C 	0.97820 0.86510 0.06920 -0.01800
H 	H 	0.94960 0.86240 0.97360 0.05100
C 	C 	0.97030 0.91400 0.19800 0.03800
H 	H 	0.93670 0.94370 0.18310 0.00300
C 	C 	0.06710 0.82960 0.22880 -0.03400
H 	H 	0.10200 0.80150 0.24540 0.01300
C 	C 	0.04160 0.77340 0.94950 0.32000
N 	N 	0.00240 0.76900 0.82800 -0.17600
C 	C 	0.92580 0.77580 0.54700 -0.90500
H 	H 	0.90610 0.78590 0.65930 0.30200
H 	H 	0.89310 0.76070 0.46590 0.28300
H 	H 	0.94590 0.81410 0.49940 0.30600
C 	C 	0.09430 0.72750 0.95000 -0.77500
H 	H 	0.13100 0.74580 0.88970 0.24700
H 	H 	0.08100 0.68840 0.89120 0.26100
H 	H 	0.10610 0.71770 0.07090 0.22700
C 	C 	0.05600 0.87900 0.35110 0.01000
H 	H 	0.08460 0.88250 0.44640 -0.00900
C 	C 	0.92920 0.64960 0.33700 -0.07800
H 	H 	0.88760 0.66540 0.35970 0.03400
N 	N 	0.42370 0.99410 0.82680 -0.20300
C 	C 	0.32490 0.98220 0.56950 -0.02800
C 	C 	0.35530 0.03920 0.60700 -0.11600
H 	H 	0.34410 0.07640 0.54360 0.05000
C 	C 	0.40120 0.04260 0.73300 0.02400
H 	H 	0.41870 0.08340 0.75560 -0.01400
C 	C 	0.39780 0.93790 0.78510 0.06100
H 	H 	0.41310 0.90130 0.84410 -0.00700
C 	C 	0.27420 0.97430 0.42900 0.35600
N 	N 	0.27880 0.01160 0.30600 -0.20300
N 	N 	0.07980 0.00910 0.65750 -0.24600
C 	C 	0.17810 0.02770 0.91490 -0.17700
C 	C 	0.13490 0.97820 0.93080 0.08200
H 	H 	0.13760 0.94960 0.02640 -0.01100
C 	C 	0.08600 0.97030 0.80200 -0.00500
H 	H 	0.05630 0.93670 0.81690 0.00900
C 	C 	0.17040 0.06710 0.77120 -0.01400
H 	H 	0.19850 0.10200 0.75460 0.00900
C 	C 	0.22660 0.04160 0.05050 0.35000
N 	N 	0.23100 0.00240 0.17200 -0.19000
C 	C 	0.22420 0.92580 0.45300 -0.90400
H 	H 	0.21410 0.90610 0.34070 0.29900
H 	H 	0.23930 0.89310 0.53410 0.28300
H 	H 	0.18590 0.94590 0.50060 0.30500
C 	C 	0.27250 0.09430 0.05000 -0.97300
H 	H 	0.25420 0.13100 0.11030 0.29700
H 	H 	0.31160 0.08100 0.10880 0.31300
H 	H 	0.28230 0.10610 0.92910 0.31200
C 	C 	0.12100 0.05600 0.64890 -0.00500
H 	H 	0.11750 0.08460 0.55360 -0.01000
C 	C 	0.35040 0.92920 0.66300 -0.07400
H 	H 	0.33460 0.88760 0.64030 0.03500
N 	N 	0.57630 0.00590 0.82680 -0.25100
C 	C 	0.67510 0.01780 0.56950 -0.09900
C 	C 	0.64470 0.96080 0.60700 -0.03200
H 	H 	0.65590 0.92360 0.54360 0.03100
C 	C 	0.59880 0.95740 0.73300 0.07600
H 	H 	0.58130 0.91660 0.75560 -0.02400
C 	C 	0.60220 0.06210 0.78510 0.03500
H 	H 	0.58690 0.09870 0.84410 -0.00200
C 	C 	0.72580 0.02570 0.42900 0.25500
N 	N 	0.72120 0.98840 0.30600 -0.14000
N 	N 	0.92020 0.99090 0.65750 -0.19600
C 	C 	0.82190 0.97230 0.91490 -0.04000
C 	C 	0.86510 0.02180 0.93080 -0.04800
H 	H 	0.86240 0.05040 0.02640 0.01900
C 	C 	0.91400 0.02970 0.80200 -0.03100
H 	H 	0.94370 0.06330 0.81690 0.02700
C 	C 	0.82960 0.93290 0.77120 -0.07100
H 	H 	0.80150 0.89800 0.75460 0.03400
C 	C 	0.77340 0.95840 0.05050 0.30500
N 	N 	0.76900 0.99760 0.17200 -0.15300
C 	C 	0.77580 0.07420 0.45300 -0.78000
H 	H 	0.78590 0.09390 0.34070 0.25200
H 	H 	0.76070 0.10690 0.53410 0.24700
H 	H 	0.81410 0.05410 0.50060 0.25100
C 	C 	0.72750 0.90570 0.05000 -0.90900
H 	H 	0.74580 0.86900 0.11030 0.27900
H 	H 	0.68840 0.91900 0.10880 0.30100
H 	H 	0.71770 0.89390 0.92910 0.29500
C 	C 	0.87900 0.94400 0.64890 0.05100
H 	H 	0.88250 0.91540 0.55360 -0.01600
C 	C 	0.64960 0.07080 0.66300 -0.06000
H 	H 	0.66540 0.11240 0.64030 0.03100
N 	N 	0.50590 0.07630 0.17320 -0.24400
C 	C 	0.51780 0.17510 0.43050 -0.06200
C 	C 	0.46080 0.14470 0.39300 -0.08000
H 	H 	0.42360 0.15590 0.45640 0.04200
C 	C 	0.45740 0.09880 0.26700 0.05000
H 	H 	0.41660 0.08130 0.24440 -0.03200
C 	C 	0.56210 0.10220 0.21490 0.04600
H 	H 	0.59870 0.08690 0.15590 -0.02000
C 	C 	0.52570 0.22580 0.57100 0.30400
N 	N 	0.48840 0.22120 0.69400 -0.17000
N 	N 	0.49090 0.42020 0.34250 -0.23700
C 	C 	0.47230 0.32190 0.08510 -0.07800
C 	C 	0.52180 0.36510 0.06920 -0.09700
H 	H 	0.55040 0.36240 0.97360 0.06900
C 	C 	0.52970 0.41400 0.19800 0.02800
H 	H 	0.56330 0.44370 0.18310 -0.01000
C 	C 	0.43290 0.32960 0.22880 -0.07000
H 	H 	0.39800 0.30150 0.24540 0.02800
C 	C 	0.45840 0.27340 0.94950 0.29100
N 	N 	0.49760 0.26900 0.82800 -0.15700
C 	C 	0.57420 0.27580 0.54700 -0.84000
H 	H 	0.59390 0.28590 0.65930 0.27700
H 	H 	0.60690 0.26070 0.46590 0.26300
H 	H 	0.55410 0.31410 0.49940 0.27600
C 	C 	0.40570 0.22750 0.95000 -0.73300
H 	H 	0.36900 0.24580 0.88970 0.23400
H 	H 	0.41900 0.18840 0.89120 0.25100
H 	H 	0.39390 0.21770 0.07090 0.21500
C 	C 	0.44400 0.37900 0.35110 0.03900
H 	H 	0.41540 0.38250 0.44640 -0.01800
C 	C 	0.57080 0.14960 0.33700 -0.07500
H 	H 	0.61240 0.16540 0.35970 0.03200
N 	N 	0.49410 0.92370 0.17320 -0.22900
C 	C 	0.48220 0.82490 0.43050 -0.06400
C 	C 	0.53920 0.85530 0.39300 -0.07400
H 	H 	0.57640 0.84410 0.45640 0.04200
C 	C 	0.54260 0.90120 0.26700 0.05200
H 	H 	0.58340 0.91870 0.24440 -0.02000
C 	C 	0.43790 0.89780 0.21490 0.04800
H 	H 	0.40130 0.91310 0.15590 -0.00900
C 	C 	0.47430 0.77420 0.57100 0.30600
N 	N 	0.51160 0.77880 0.69400 -0.16900
N 	N 	0.50910 0.57980 0.34250 -0.23700
C 	C 	0.52770 0.67810 0.08510 -0.08000
C 	C 	0.47820 0.63490 0.06920 -0.09500
H 	H 	0.44960 0.63760 0.97360 0.06800
C 	C 	0.47030 0.58600 0.19800 0.02700
H 	H 	0.43670 0.55630 0.18310 -0.01000
C 	C 	0.56710 0.67040 0.22880 -0.06900
H 	H 	0.60200 0.69850 0.24540 0.02800
C 	C 	0.54160 0.72660 0.94950 0.29500
N 	N 	0.50240 0.73100 0.82800 -0.15800
C 	C 	0.42580 0.72420 0.54700 -0.84100
H 	H 	0.40610 0.71410 0.65930 0.27700
H 	H 	0.39310 0.73930 0.46590 0.26300
H 	H 	0.44590 0.68590 0.49940 0.27700
C 	C 	0.59430 0.77250 0.95000 -0.74500
H 	H 	0.63100 0.75420 0.88970 0.23800
H 	H 	0.58100 0.81160 0.89120 0.25700
H 	H 	0.60610 0.78230 0.07090 0.22000
C 	C 	0.55600 0.62100 0.35110 0.03800
H 	H 	0.58460 0.61750 0.44640 -0.01800
C 	C 	0.42920 0.85040 0.33700 -0.06900
H 	H 	0.38760 0.83460 0.35970 0.03100
N 	N 	0.92370 0.50590 0.82680 -0.22000
C 	C 	0.82490 0.51780 0.56950 -0.06500
C 	C 	0.85530 0.46080 0.60700 -0.07100
H 	H 	0.84410 0.42360 0.54360 0.04100
C 	C 	0.90120 0.45740 0.73300 0.05100
H 	H 	0.91870 0.41660 0.75560 -0.01300
C 	C 	0.89780 0.56210 0.78510 0.04900
H 	H 	0.91310 0.59870 0.84410 0.00100
C 	C 	0.77420 0.52570 0.42900 0.30500
N 	N 	0.77880 0.48840 0.30600 -0.17100
N 	N 	0.57980 0.49090 0.65750 -0.22500
C 	C 	0.67810 0.47230 0.91490 -0.10700
C 	C 	0.63490 0.52180 0.93080 0.01600
H 	H 	0.63760 0.55040 0.02640 0.00400
C 	C 	0.58600 0.52970 0.80200 -0.01900
H 	H 	0.55630 0.56330 0.81690 0.01600
C 	C 	0.67040 0.43290 0.77120 -0.04300
H 	H 	0.69850 0.39800 0.75460 0.02200
C 	C 	0.72660 0.45840 0.05050 0.32800
N 	N 	0.73100 0.49760 0.17200 -0.17200
C 	C 	0.72420 0.57420 0.45300 -0.84100
H 	H 	0.71410 0.59390 0.34070 0.27500
H 	H 	0.73930 0.60690 0.53410 0.26500
H 	H 	0.68590 0.55410 0.50060 0.27700
C 	C 	0.77250 0.40570 0.05000 -0.94400
H 	H 	0.75420 0.36900 0.11030 0.28900
H 	H 	0.81160 0.41900 0.10880 0.30900
H 	H 	0.78230 0.39390 0.92910 0.30500
C 	C 	0.62100 0.44400 0.64890 0.02400
H 	H 	0.61750 0.41540 0.55360 -0.01400
C 	C 	0.85040 0.57080 0.66300 -0.06500
H 	H 	0.83460 0.61240 0.64030 0.03300
N 	N 	0.07630 0.49410 0.82680 -0.23400
C 	C 	0.17510 0.48220 0.56950 -0.06300
C 	C 	0.14470 0.53920 0.60700 -0.07700
H 	H 	0.15590 0.57640 0.54360 0.04100
C 	C 	0.09880 0.54260 0.73300 0.04900
H 	H 	0.08130 0.58340 0.75560 -0.02500
C 	C 	0.10220 0.43790 0.78510 0.04800
H 	H 	0.08690 0.40130 0.84410 -0.01000
C 	C 	0.22580 0.47430 0.42900 0.30300
N 	N 	0.22120 0.51160 0.30600 -0.17100
N 	N 	0.42020 0.50910 0.65750 -0.22500
C 	C 	0.32190 0.52770 0.91490 -0.10600
C 	C 	0.36510 0.47820 0.93080 0.01600
H 	H 	0.36240 0.44960 0.02640 0.00400
C 	C 	0.41400 0.47030 0.80200 -0.01900
H 	H 	0.44370 0.43670 0.81690 0.01600
C 	C 	0.32960 0.56710 0.77120 -0.04400
H 	H 	0.30150 0.60200 0.75460 0.02200
C 	C 	0.27340 0.54160 0.05050 0.32500
N 	N 	0.26900 0.50240 0.17200 -0.17100
C 	C 	0.27580 0.42580 0.45300 -0.83800
H 	H 	0.28590 0.40610 0.34070 0.27400
H 	H 	0.26070 0.39310 0.53410 0.26400
H 	H 	0.31410 0.44590 0.50060 0.27700
C 	C 	0.22750 0.59430 0.05000 -0.93700
H 	H 	0.24580 0.63100 0.11030 0.28600
H 	H 	0.18840 0.58100 0.10880 0.30500
H 	H 	0.21770 0.60610 0.92910 0.30200
C 	C 	0.37900 0.55600 0.64890 0.02400
H 	H 	0.38250 0.58460 0.55360 -0.01500
C 	C 	0.14960 0.42920 0.66300 -0.07000
H 	H 	0.16540 0.38760 0.64030 0.03400
Cu	Cu	0.00000 0.00000 0.50000 0.81500
Cu	Cu	0.50000 0.50000 0.50000 0.84800
Cu	Cu	-0.00000 0.50000 -0.00000 0.82400
Cu	Cu	0.50000 0.00000 -0.00000 0.82300
