data_crystal

_cell_length_a 12.72600
_cell_length_b 8.05700
_cell_length_c 13.50500
_cell_angle_alpha 89.95800
_cell_angle_beta  90.12300
_cell_angle_gamma 89.92800

_symmetry_space_group_name_	'P 1'
_symmetry_space_group_name_H-M	'P 1'

loop_
_symmetry_equiv_pos_as_xyz
  x,y,z

loop_
_atom_site_label
_atom_site_type_symbol
_atom_site_fract_x
_atom_site_fract_y
_atom_site_fract_z
_atom_site_charge
Cu	Cu	0.75001 0.25119 0.25004 0.85600
C 	C 	0.84900 0.65970 0.07710 -0.18700
H 	H 	0.81230 0.74130 0.04260 0.10400
C 	C 	0.95420 0.67060 0.08660 0.13300
C 	C 	0.94620 0.41610 0.17650 0.12300
H 	H 	0.98160 0.33000 0.20820 -0.02900
C 	C 	0.00390 0.54210 0.13830 -0.20000
H 	H 	0.07640 0.54310 0.14650 0.09800
C 	C 	0.79520 0.52750 0.11850 0.09700
H 	H 	0.72290 0.52100 0.10930 -0.01900
C 	C 	0.58580 0.83050 0.05150 0.13600
C 	C 	0.63880 0.95940 0.00750 -0.19300
H 	H 	0.64880 0.96140 0.93930 0.09600
C 	C 	0.67730 0.08620 0.06640 0.11200
H 	H 	0.71400 0.17170 0.03580 -0.02600
C 	C 	0.57210 0.83760 0.15220 -0.19300
H 	H 	0.53690 0.75280 0.18500 0.10500
C 	C 	0.61080 0.97060 0.20430 0.10700
H 	H 	0.59850 0.97520 0.27210 -0.02100
N 	N 	0.84330 0.40860 0.17140 -0.25400
N 	N 	0.66510 0.09300 0.16280 -0.25400
C 	C 	0.54490 0.66870 0.41270 0.14400
C 	C 	0.65100 0.65920 0.42300 -0.19300
H 	H 	0.68720 0.74120 0.45760 0.10600
C 	C 	0.49660 0.54310 0.36240 -0.21200
H 	H 	0.42390 0.54410 0.35480 0.10200
C 	C 	0.55370 0.41670 0.32350 0.13000
H 	H 	0.51820 0.33200 0.29080 -0.03100
C 	C 	0.70480 0.52800 0.38220 0.10100
H 	H 	0.77710 0.52180 0.39120 -0.02000
N 	N 	0.65640 0.40810 0.32980 -0.25400
N 	N 	0.83460 0.09240 0.33710 -0.25500
C 	C 	0.91390 0.83060 0.44850 0.13700
C 	C 	0.86170 0.95790 0.49220 -0.19600
H 	H 	0.85200 0.95870 0.56050 0.09700
C 	C 	0.82280 0.08750 0.43430 0.11000
H 	H 	0.78710 0.17380 0.46520 -0.02500
C 	C 	0.92820 0.83910 0.34720 -0.19800
H 	H 	0.96410 0.75520 0.31420 0.10600
C 	C 	0.88920 0.97150 0.29620 0.11600
H 	H 	0.90170 0.97680 0.22850 -0.02500
C 	C 	0.94960 0.69020 0.50850 -0.06200
H 	H 	0.94730 0.69560 0.57730 0.05800
C 	C 	0.01280 0.81200 0.04680 -0.05900
H 	H 	0.08560 0.80630 0.04210 0.05800
C 	C 	0.48720 0.81190 0.45220 -0.06400
H 	H 	0.41430 0.80810 0.45490 0.05900
N 	N 	0.53420 0.93980 0.48240 -0.07800
N 	N 	0.96540 0.94120 0.01880 -0.07900
C 	C 	0.54930 0.69220 0.99210 -0.06500
H 	H 	0.54940 0.70000 0.92340 0.05900
N 	N 	0.51680 0.55950 0.03420 -0.07800
N 	N 	0.98370 0.56090 0.46550 -0.07900
Cu	Cu	0.24999 0.74881 0.74996 0.85500
C 	C 	0.15100 0.34030 0.92290 -0.18800
H 	H 	0.18770 0.25870 0.95740 0.10400
C 	C 	0.04580 0.32940 0.91340 0.13300
C 	C 	0.05380 0.58390 0.82350 0.12300
H 	H 	0.01840 0.67000 0.79180 -0.02900
C 	C 	0.99610 0.45790 0.86170 -0.20000
H 	H 	0.92360 0.45690 0.85350 0.09800
C 	C 	0.20480 0.47250 0.88150 0.09700
H 	H 	0.27710 0.47900 0.89070 -0.01900
C 	C 	0.41420 0.16950 0.94850 0.13600
C 	C 	0.36120 0.04060 0.99250 -0.19300
H 	H 	0.35120 0.03860 0.06070 0.09600
C 	C 	0.32270 0.91380 0.93360 0.11200
H 	H 	0.28600 0.82830 0.96420 -0.02600
C 	C 	0.42790 0.16240 0.84780 -0.19300
H 	H 	0.46310 0.24720 0.81500 0.10500
C 	C 	0.38920 0.02940 0.79570 0.10700
H 	H 	0.40150 0.02480 0.72790 -0.02100
N 	N 	0.15670 0.59140 0.82860 -0.25400
N 	N 	0.33490 0.90700 0.83720 -0.25400
C 	C 	0.45510 0.33130 0.58730 0.14400
C 	C 	0.34900 0.34080 0.57700 -0.19300
H 	H 	0.31280 0.25880 0.54240 0.10600
C 	C 	0.50340 0.45690 0.63760 -0.21200
H 	H 	0.57610 0.45590 0.64520 0.10200
C 	C 	0.44630 0.58330 0.67650 0.13000
H 	H 	0.48180 0.66800 0.70920 -0.03100
C 	C 	0.29520 0.47200 0.61780 0.10100
H 	H 	0.22290 0.47820 0.60880 -0.02000
N 	N 	0.34360 0.59190 0.67020 -0.25400
N 	N 	0.16540 0.90760 0.66290 -0.25500
C 	C 	0.08610 0.16940 0.55150 0.13700
C 	C 	0.13830 0.04210 0.50780 -0.19600
H 	H 	0.14800 0.04130 0.43950 0.09700
C 	C 	0.17720 0.91250 0.56570 0.11000
H 	H 	0.21290 0.82620 0.53480 -0.02500
C 	C 	0.07180 0.16090 0.65280 -0.19800
H 	H 	0.03590 0.24480 0.68580 0.10600
C 	C 	0.11080 0.02850 0.70380 0.11600
H 	H 	0.09830 0.02320 0.77150 -0.02500
C 	C 	0.05040 0.30980 0.49150 -0.06200
H 	H 	0.05270 0.30440 0.42270 0.05800
C 	C 	0.98720 0.18800 0.95320 -0.05900
H 	H 	0.91440 0.19370 0.95790 0.05800
C 	C 	0.51280 0.18810 0.54780 -0.06400
H 	H 	0.58570 0.19190 0.54510 0.05900
N 	N 	0.46580 0.06020 0.51760 -0.07800
N 	N 	0.03460 0.05880 0.98120 -0.07900
C 	C 	0.45070 0.30780 0.00790 -0.06500
H 	H 	0.45060 0.30000 0.07660 0.05900
N 	N 	0.48320 0.44050 0.96580 -0.07800
N 	N 	0.01630 0.43910 0.53450 -0.07900
