data_crystal

_cell_length_a 10.14200
_cell_length_b 13.22200
_cell_length_c 14.87200
_cell_angle_alpha 109.01800
_cell_angle_beta  101.88200
_cell_angle_gamma 98.99900

_symmetry_space_group_name_	'P 1'
_symmetry_space_group_name_H-M	'P 1'

loop_
_symmetry_equiv_pos_as_xyz
  x,y,z

loop_
_atom_site_label
_atom_site_type_symbol
_atom_site_fract_x
_atom_site_fract_y
_atom_site_fract_z
_atom_site_charge
Co	Co	0.53003 0.51470 0.14843 1.17600
C 	C 	0.74330 0.73680 0.26100 0.14700
H 	H 	0.80580 0.69320 0.24780 -0.01400
C 	C 	0.79630 0.84660 0.31660 -0.24500
H 	H 	0.89180 0.87580 0.34020 0.14200
C 	C 	0.70580 0.91370 0.33710 0.23500
C 	C 	0.56490 0.86330 0.30000 -0.24600
H 	H 	0.49970 0.90470 0.31170 0.13400
C 	C 	0.52320 0.75400 0.24680 0.15400
H 	H 	0.42820 0.72240 0.22400 -0.01900
C 	C 	0.87560 0.09430 0.42490 0.26700
C 	C 	0.97820 0.29620 0.50280 0.17100
H 	H 	0.03120 0.28760 0.45790 -0.01000
C 	C 	0.99120 0.39950 0.56910 -0.31900
H 	H 	0.04960 0.46050 0.56810 0.14800
C 	C 	0.91590 0.41130 0.63750 0.33300
C 	C 	0.83010 0.32110 0.63900 -0.31300
H 	H 	0.78120 0.32940 0.68640 0.16000
C 	C 	0.81660 0.21910 0.57080 0.17500
H 	H 	0.75720 0.15870 0.57210 -0.01600
C 	C 	0.88840 0.20300 0.50010 -0.18000
C 	C 	0.00120 0.60990 0.73140 0.34100
C 	C 	0.14220 0.62170 0.74570 -0.33000
H 	H 	0.17970 0.56040 0.73080 0.16900
C 	C 	0.22540 0.72590 0.78220 0.18000
H 	H 	0.32000 0.73470 0.78840 -0.01000
C 	C 	0.17350 0.81850 0.81010 -0.17400
C 	C 	0.02960 0.80330 0.79370 0.16900
H 	H 	0.99140 0.86410 0.80940 -0.01100
C 	C 	0.94580 0.70020 0.75490 -0.31000
H 	H 	0.85030 0.69060 0.74410 0.15900
C 	C 	0.27270 0.92900 0.85320 0.26500
C 	C 	0.30680 0.11790 0.97200 0.24500
C 	C 	0.43410 0.16340 0.96360 -0.26100
H 	H 	0.47830 0.12010 0.92270 0.15200
C 	C 	0.49300 0.27150 0.01560 0.15900
H 	H 	0.57900 0.29950 0.00910 -0.02200
C 	C 	0.31730 0.29710 0.08280 0.14900
H 	H 	0.27430 0.34270 0.12290 -0.01800
C 	C 	0.25110 0.18760 0.03470 -0.25200
H 	H 	0.16740 0.16060 0.04490 0.13300
C 	C 	0.51540 0.50670 0.31190 0.29700
C 	C 	0.50760 0.50260 0.40870 -0.05600
C 	C 	0.61270 0.48000 0.46680 -0.01500
H 	H 	0.69030 0.46660 0.44530 0.05100
C 	C 	0.39560 0.52320 0.44230 -0.03000
H 	H 	0.32370 0.53950 0.40370 0.07100
C 	C 	0.97550 0.51770 0.09110 -0.01600
H 	H 	0.95890 0.52990 0.15250 0.06000
C 	C 	0.10770 0.52050 0.08190 -0.00600
H 	H 	0.18020 0.53410 0.13730 0.05400
C 	C 	0.13420 0.50360 0.99190 -0.09200
C 	C 	0.27980 0.51200 0.98250 0.39700
N 	N 	0.60780 0.68790 0.22440 -0.24900
N 	N 	0.74450 0.02530 0.39640 -0.17300
N 	N 	0.23270 0.00960 0.92150 -0.17900
N 	N 	0.43920 0.34170 0.07540 -0.25900
O 	O 	0.96910 0.06800 0.39080 -0.24200
O 	O 	0.90860 0.51040 0.70330 -0.33400
O 	O 	0.38150 0.94390 0.83310 -0.24300
O 	O 	0.62150 0.49380 0.28310 -0.37900
O 	O 	0.41310 0.52180 0.25770 -0.36100
O 	O 	0.37520 0.54440 0.06050 -0.46600
O 	O 	0.29640 0.48830 0.89720 -0.44600
Co	Co	0.46997 0.48530 0.85157 1.17700
C 	C 	0.25670 0.26320 0.73900 0.14800
H 	H 	0.19420 0.30680 0.75220 -0.01300
C 	C 	0.20370 0.15340 0.68340 -0.24400
H 	H 	0.10820 0.12420 0.65980 0.14300
C 	C 	0.29420 0.08630 0.66290 0.23600
C 	C 	0.43510 0.13670 0.70000 -0.24600
H 	H 	0.50030 0.09530 0.68830 0.13400
C 	C 	0.47680 0.24600 0.75320 0.15400
H 	H 	0.57180 0.27760 0.77600 -0.01900
C 	C 	0.12440 0.90570 0.57510 0.26700
C 	C 	0.02180 0.70380 0.49720 0.17100
H 	H 	0.96880 0.71240 0.54210 -0.01000
C 	C 	0.00880 0.60050 0.43090 -0.31900
H 	H 	0.95040 0.53950 0.43190 0.14800
C 	C 	0.08410 0.58870 0.36250 0.33300
C 	C 	0.16990 0.67890 0.36100 -0.31300
H 	H 	0.21880 0.67060 0.31360 0.16000
C 	C 	0.18340 0.78090 0.42920 0.17500
H 	H 	0.24280 0.84130 0.42790 -0.01600
C 	C 	0.11160 0.79700 0.49990 -0.18000
C 	C 	0.99880 0.39010 0.26860 0.34100
C 	C 	0.85780 0.37830 0.25430 -0.33000
H 	H 	0.82030 0.43960 0.26920 0.16900
C 	C 	0.77460 0.27410 0.21780 0.18000
H 	H 	0.68000 0.26530 0.21160 -0.01000
C 	C 	0.82650 0.18150 0.18990 -0.17400
C 	C 	0.97040 0.19670 0.20630 0.16900
H 	H 	0.00860 0.13590 0.19060 -0.01100
C 	C 	0.05420 0.29980 0.24510 -0.31000
H 	H 	0.14970 0.30940 0.25590 0.15900
C 	C 	0.72730 0.07100 0.14680 0.26500
C 	C 	0.69320 0.88210 0.02800 0.24500
C 	C 	0.56590 0.83660 0.03640 -0.26100
H 	H 	0.52170 0.87990 0.07730 0.15200
C 	C 	0.50700 0.72850 0.98440 0.15900
H 	H 	0.42100 0.70050 0.99090 -0.02200
C 	C 	0.68270 0.70290 0.91720 0.14900
H 	H 	0.72570 0.65730 0.87710 -0.01800
C 	C 	0.74890 0.81240 0.96530 -0.25200
H 	H 	0.83260 0.83940 0.95510 0.13300
C 	C 	0.48460 0.49330 0.68810 0.29700
C 	C 	0.49240 0.49740 0.59130 -0.05600
C 	C 	0.38730 0.52000 0.53320 -0.01500
H 	H 	0.30970 0.53340 0.55470 0.05100
C 	C 	0.60440 0.47680 0.55770 -0.03000
H 	H 	0.67630 0.46050 0.59630 0.07100
C 	C 	0.02450 0.48230 0.90890 -0.01600
H 	H 	0.04110 0.47010 0.84750 0.06000
C 	C 	0.89230 0.47950 0.91810 -0.00600
H 	H 	0.81980 0.46590 0.86270 0.05400
C 	C 	0.86580 0.49640 0.00810 -0.09200
C 	C 	0.72020 0.48800 0.01750 0.39700
N 	N 	0.39220 0.31210 0.77560 -0.24900
N 	N 	0.25550 0.97470 0.60360 -0.17300
N 	N 	0.76730 0.99040 0.07850 -0.17900
N 	N 	0.56080 0.65830 0.92460 -0.25900
O 	O 	0.03090 0.93200 0.60920 -0.24200
O 	O 	0.09140 0.48960 0.29670 -0.33400
O 	O 	0.61850 0.05610 0.16690 -0.24300
O 	O 	0.37850 0.50620 0.71690 -0.37900
O 	O 	0.58690 0.47820 0.74230 -0.36100
O 	O 	0.62480 0.45560 0.93950 -0.46600
O 	O 	0.70360 0.51170 0.10280 -0.44600
