data_crystal

_cell_length_a 10.06100
_cell_length_b 25.03400
_cell_length_c 14.69000
_cell_angle_alpha 90.00000
_cell_angle_beta  103.08100
_cell_angle_gamma 90.00000

_symmetry_space_group_name_	'P 1'
_symmetry_space_group_name_H-M	'P 1'

loop_
_symmetry_equiv_pos_as_xyz
  x,y,z

loop_
_atom_site_label
_atom_site_type_symbol
_atom_site_fract_x
_atom_site_fract_y
_atom_site_fract_z
_atom_site_charge
Co	Co	0.47290 0.02123 0.35893 1.17700
C 	C 	0.60030 0.91106 0.36210 0.15200
H 	H 	0.67800 0.93200 0.36740 -0.02600
C 	C 	0.61470 0.85673 0.35940 -0.25800
H 	H 	0.70000 0.84170 0.36200 0.12100
C 	C 	0.50120 0.82432 0.35270 0.24800
C 	C 	0.37600 0.84945 0.34530 -0.25200
H 	H 	0.29620 0.82960 0.33830 0.15000
C 	C 	0.37280 0.90428 0.34850 0.15600
H 	H 	0.28840 0.92060 0.34410 -0.01900
C 	C 	0.42660 0.73026 0.35530 0.29200
C 	C 	0.47130 0.67398 0.34530 -0.20800
C 	C 	0.60610 0.65923 0.35550 0.18900
H 	H 	0.67440 0.68480 0.37190 -0.03500
C 	C 	0.64080 0.60681 0.34180 -0.32400
H 	H 	0.73160 0.59700 0.34860 0.16500
C 	C 	0.53860 0.56941 0.31790 0.35400
C 	C 	0.40460 0.58288 0.30810 -0.34800
H 	H 	0.33650 0.55720 0.29170 0.17200
C 	C 	0.37220 0.63524 0.32290 0.19900
H 	H 	0.28130 0.64460 0.31760 -0.01800
C 	C 	0.52800 0.47191 0.31030 0.35600
C 	C 	0.56550 0.43073 0.25970 -0.33100
H 	H 	0.61520 0.43780 0.21480 0.16500
C 	C 	0.53020 0.37931 0.27500 0.19500
H 	H 	0.55540 0.35170 0.24010 -0.04300
C 	C 	0.45730 0.36810 0.34170 -0.21100
C 	C 	0.41730 0.41039 0.39060 0.19400
H 	H 	0.36430 0.40380 0.43370 -0.01900
C 	C 	0.45550 0.46212 0.37580 -0.34200
H 	H 	0.43160 0.49010 0.41060 0.15600
C 	C 	0.41760 0.31254 0.36330 0.29600
C 	C 	0.48530 0.21870 0.34550 0.28000
C 	C 	0.56730 0.18660 0.30560 -0.28000
H 	H 	0.62840 0.20200 0.27430 0.12900
C 	C 	0.55960 0.13244 0.31170 0.17200
H 	H 	0.61890 0.11210 0.28570 -0.02700
C 	C 	0.39520 0.13820 0.38970 0.17400
H 	H 	0.33280 0.12200 0.41890 -0.02500
C 	C 	0.39910 0.19310 0.38890 -0.28700
H 	H 	0.34230 0.21260 0.41830 0.15700
C 	C 	0.72210 0.00143 0.52290 0.38600
C 	C 	0.86600 0.00036 0.51100 -0.08900
C 	C 	0.96690 0.97376 0.57440 -0.01200
H 	H 	0.94490 0.95590 0.62450 0.05900
C 	C 	0.09960 0.97345 0.56430 -0.01700
H 	H 	0.16660 0.95570 0.60780 0.05700
C 	C 	0.38410 0.00489 0.92880 -0.03600
H 	H 	0.30620 0.00830 0.88100 0.07100
C 	C 	0.37550 0.01102 0.02070 -0.01700
H 	H 	0.29180 0.01830 0.03480 0.05000
C 	C 	0.49200 0.00628 0.09230 -0.05100
C 	C 	0.48450 0.01357 0.19200 0.29300
N 	N 	0.48160 0.93587 0.35760 -0.25600
N 	N 	0.52020 0.76920 0.35130 -0.27600
H 	H 	0.59990 0.75850 0.34740 0.14300
N 	N 	0.50050 0.27389 0.34000 -0.28200
H 	H 	0.56950 0.28490 0.31980 0.14600
N 	N 	0.47350 0.10694 0.35190 -0.25800
O 	O 	0.31200 0.74033 0.36220 -0.25300
O 	O 	0.58320 0.52056 0.29400 -0.34100
O 	O 	0.32390 0.30331 0.39830 -0.25900
O 	O 	0.69870 0.97624 0.59217 -0.44200
O 	O 	0.63650 0.02744 0.46540 -0.46300
O 	O 	0.36980 0.01728 0.21199 -0.37500
O 	O 	0.59290 0.01619 0.25365 -0.36700
Co	Co	0.52710 0.97877 0.64107 1.17600
C 	C 	0.39970 0.08894 0.63790 0.15100
H 	H 	0.32200 0.06800 0.63260 -0.02700
C 	C 	0.38530 0.14327 0.64060 -0.25900
H 	H 	0.30000 0.15830 0.63800 0.12000
C 	C 	0.49880 0.17568 0.64730 0.24700
C 	C 	0.62400 0.15055 0.65470 -0.25300
H 	H 	0.70380 0.17040 0.66170 0.14900
C 	C 	0.62720 0.09572 0.65150 0.15500
H 	H 	0.71160 0.07940 0.65590 -0.02000
C 	C 	0.57340 0.26974 0.64470 0.29200
C 	C 	0.52870 0.32602 0.65470 -0.20800
C 	C 	0.39390 0.34077 0.64450 0.18900
H 	H 	0.32560 0.31520 0.62810 -0.03500
C 	C 	0.35920 0.39319 0.65820 -0.32400
H 	H 	0.26840 0.40300 0.65140 0.16500
C 	C 	0.46140 0.43059 0.68210 0.35400
C 	C 	0.59540 0.41712 0.69190 -0.34800
H 	H 	0.66350 0.44280 0.70830 0.17200
C 	C 	0.62780 0.36476 0.67710 0.19900
H 	H 	0.71870 0.35540 0.68240 -0.01800
C 	C 	0.47200 0.52809 0.68970 0.35600
C 	C 	0.43450 0.56927 0.74030 -0.33100
H 	H 	0.38480 0.56220 0.78520 0.16500
C 	C 	0.46980 0.62069 0.72500 0.19500
H 	H 	0.44460 0.64830 0.75990 -0.04300
C 	C 	0.54270 0.63190 0.65830 -0.21100
C 	C 	0.58270 0.58961 0.60940 0.19400
H 	H 	0.63570 0.59620 0.56630 -0.01900
C 	C 	0.54450 0.53788 0.62420 -0.34200
H 	H 	0.56840 0.50990 0.58940 0.15600
C 	C 	0.58240 0.68746 0.63670 0.29600
C 	C 	0.51470 0.78130 0.65450 0.28000
C 	C 	0.43270 0.81340 0.69440 -0.28000
H 	H 	0.37160 0.79800 0.72570 0.12900
C 	C 	0.44040 0.86756 0.68830 0.17200
H 	H 	0.38110 0.88790 0.71430 -0.02700
C 	C 	0.60480 0.86180 0.61030 0.17400
H 	H 	0.66720 0.87800 0.58110 -0.02500
C 	C 	0.60090 0.80690 0.61110 -0.28700
H 	H 	0.65770 0.78740 0.58170 0.15700
C 	C 	0.27790 0.99857 0.47710 0.38600
C 	C 	0.13400 0.99964 0.48900 -0.08900
C 	C 	0.03310 0.02624 0.42560 -0.01200
H 	H 	0.05510 0.04410 0.37550 0.05900
C 	C 	0.90040 0.02655 0.43570 -0.01700
H 	H 	0.83340 0.04430 0.39220 0.05700
C 	C 	0.61590 0.99511 0.07120 -0.03600
H 	H 	0.69380 0.99170 0.11900 0.07100
C 	C 	0.62450 0.98898 0.97930 -0.01700
H 	H 	0.70820 0.98170 0.96520 0.05000
C 	C 	0.50800 0.99372 0.90770 -0.05100
C 	C 	0.51550 0.98643 0.80800 0.29300
N 	N 	0.51840 0.06413 0.64240 -0.25600
N 	N 	0.47980 0.23080 0.64870 -0.27600
H 	H 	0.40010 0.24150 0.65260 0.14300
N 	N 	0.49950 0.72611 0.66000 -0.28200
H 	H 	0.43050 0.71510 0.68020 0.14600
N 	N 	0.52650 0.89306 0.64810 -0.25800
O 	O 	0.68800 0.25967 0.63780 -0.25300
O 	O 	0.41680 0.47944 0.70600 -0.34100
O 	O 	0.67610 0.69669 0.60170 -0.25900
O 	O 	0.30130 0.02376 0.40783 -0.44200
O 	O 	0.36350 0.97256 0.53460 -0.46300
O 	O 	0.63020 0.98272 0.78801 -0.37500
O 	O 	0.40710 0.98381 0.74635 -0.36700
Co	Co	0.02710 0.52123 0.14107 1.17600
C 	C 	0.89970 0.41106 0.13790 0.15300
H 	H 	0.82200 0.43200 0.13260 -0.02700
C 	C 	0.88530 0.35673 0.14060 -0.26100
H 	H 	0.80000 0.34170 0.13800 0.12100
C 	C 	0.99880 0.32432 0.14730 0.24900
C 	C 	0.12400 0.34945 0.15470 -0.25500
H 	H 	0.20380 0.32960 0.16170 0.14900
C 	C 	0.12720 0.40428 0.15150 0.15600
H 	H 	0.21160 0.42060 0.15590 -0.02000
C 	C 	0.07340 0.23026 0.14470 0.29200
C 	C 	0.02870 0.17398 0.15470 -0.21100
C 	C 	0.89390 0.15923 0.14450 0.19300
H 	H 	0.82560 0.18480 0.12810 -0.03700
C 	C 	0.85920 0.10681 0.15820 -0.32700
H 	H 	0.76840 0.09700 0.15140 0.16600
C 	C 	0.96140 0.06941 0.18210 0.35800
C 	C 	0.09540 0.08288 0.19190 -0.35300
H 	H 	0.16350 0.05720 0.20830 0.17400
C 	C 	0.12780 0.13524 0.17710 0.20200
H 	H 	0.21870 0.14460 0.18240 -0.01900
C 	C 	0.97200 0.97191 0.18970 0.36200
C 	C 	0.93450 0.93073 0.24030 -0.33700
H 	H 	0.88480 0.93780 0.28520 0.16700
C 	C 	0.96980 0.87931 0.22500 0.20200
H 	H 	0.94460 0.85170 0.25990 -0.04500
C 	C 	0.04270 0.86810 0.15830 -0.21600
C 	C 	0.08270 0.91039 0.10940 0.19900
H 	H 	0.13570 0.90380 0.06630 -0.02100
C 	C 	0.04450 0.96212 0.12420 -0.34800
H 	H 	0.06840 0.99010 0.08940 0.15800
C 	C 	0.08240 0.81254 0.13670 0.29600
C 	C 	0.01470 0.71870 0.15450 0.27500
C 	C 	0.93270 0.68660 0.19440 -0.27500
H 	H 	0.87160 0.70200 0.22570 0.12800
C 	C 	0.94040 0.63244 0.18830 0.17200
H 	H 	0.88110 0.61210 0.21430 -0.02600
C 	C 	0.10480 0.63820 0.11030 0.17100
H 	H 	0.16720 0.62200 0.08110 -0.02500
C 	C 	0.10090 0.69310 0.11110 -0.28400
H 	H 	0.15770 0.71260 0.08170 0.15600
C 	C 	0.77790 0.50143 0.97710 0.38400
C 	C 	0.63400 0.50036 0.98900 -0.08900
C 	C 	0.53310 0.47376 0.92560 -0.01200
H 	H 	0.55510 0.45590 0.87550 0.05900
C 	C 	0.40040 0.47345 0.93570 -0.01700
H 	H 	0.33340 0.45570 0.89220 0.05700
C 	C 	0.11590 0.50489 0.57120 -0.03500
H 	H 	0.19380 0.50830 0.61900 0.07100
C 	C 	0.12450 0.51102 0.47930 -0.01700
H 	H 	0.20820 0.51830 0.46520 0.05000
C 	C 	0.00800 0.50628 0.40770 -0.05100
C 	C 	0.01550 0.51357 0.30800 0.29200
N 	N 	0.01840 0.43587 0.14240 -0.25700
N 	N 	0.97980 0.26920 0.14870 -0.27600
H 	H 	0.90010 0.25850 0.15260 0.14300
N 	N 	0.99950 0.77389 0.16000 -0.27900
H 	H 	0.93050 0.78490 0.18020 0.14500
N 	N 	0.02650 0.60694 0.14810 -0.25900
O 	O 	0.18800 0.24033 0.13780 -0.25300
O 	O 	0.91680 0.02056 0.20600 -0.34300
O 	O 	0.17610 0.80331 0.10170 -0.25900
O 	O 	0.80130 0.47624 0.90783 -0.44200
O 	O 	0.86350 0.52744 0.03460 -0.46100
O 	O 	0.13020 0.51728 0.28801 -0.37500
O 	O 	0.90710 0.51619 0.24635 -0.36600
Co	Co	0.97290 0.47877 0.85893 1.17600
C 	C 	0.10030 0.58894 0.86210 0.15300
H 	H 	0.17800 0.56800 0.86740 -0.02700
C 	C 	0.11470 0.64327 0.85940 -0.26100
H 	H 	0.20000 0.65830 0.86200 0.12100
C 	C 	0.00120 0.67568 0.85270 0.24900
C 	C 	0.87600 0.65055 0.84530 -0.25500
H 	H 	0.79620 0.67040 0.83830 0.14900
C 	C 	0.87280 0.59572 0.84850 0.15600
H 	H 	0.78840 0.57940 0.84410 -0.02000
C 	C 	0.92660 0.76974 0.85530 0.29200
C 	C 	0.97130 0.82602 0.84530 -0.21100
C 	C 	0.10610 0.84077 0.85550 0.19300
H 	H 	0.17440 0.81520 0.87190 -0.03700
C 	C 	0.14080 0.89319 0.84180 -0.32700
H 	H 	0.23160 0.90300 0.84860 0.16600
C 	C 	0.03860 0.93059 0.81790 0.35800
C 	C 	0.90460 0.91712 0.80810 -0.35300
H 	H 	0.83650 0.94280 0.79170 0.17400
C 	C 	0.87220 0.86476 0.82290 0.20200
H 	H 	0.78130 0.85540 0.81760 -0.01900
C 	C 	0.02800 0.02809 0.81030 0.36200
C 	C 	0.06550 0.06927 0.75970 -0.33700
H 	H 	0.11520 0.06220 0.71480 0.16700
C 	C 	0.03020 0.12069 0.77500 0.20200
H 	H 	0.05540 0.14830 0.74010 -0.04500
C 	C 	0.95730 0.13190 0.84170 -0.21600
C 	C 	0.91730 0.08961 0.89060 0.19900
H 	H 	0.86430 0.09620 0.93370 -0.02100
C 	C 	0.95550 0.03788 0.87580 -0.34800
H 	H 	0.93160 0.00990 0.91060 0.15800
C 	C 	0.91760 0.18746 0.86330 0.29600
C 	C 	0.98530 0.28130 0.84550 0.27500
C 	C 	0.06730 0.31340 0.80560 -0.27500
H 	H 	0.12840 0.29800 0.77430 0.12800
C 	C 	0.05960 0.36756 0.81170 0.17200
H 	H 	0.11890 0.38790 0.78570 -0.02600
C 	C 	0.89520 0.36180 0.88970 0.17100
H 	H 	0.83280 0.37800 0.91890 -0.02500
C 	C 	0.89910 0.30690 0.88890 -0.28400
H 	H 	0.84230 0.28740 0.91830 0.15600
C 	C 	0.22210 0.49857 0.02290 0.38400
C 	C 	0.36600 0.49964 0.01100 -0.08900
C 	C 	0.46690 0.52624 0.07440 -0.01200
H 	H 	0.44490 0.54410 0.12450 0.05900
C 	C 	0.59960 0.52655 0.06430 -0.01700
H 	H 	0.66660 0.54430 0.10780 0.05700
C 	C 	0.88410 0.49511 0.42880 -0.03500
H 	H 	0.80620 0.49170 0.38100 0.07100
C 	C 	0.87550 0.48898 0.52070 -0.01700
H 	H 	0.79180 0.48170 0.53480 0.05000
C 	C 	0.99200 0.49372 0.59230 -0.05100
C 	C 	0.98450 0.48643 0.69200 0.29200
N 	N 	0.98160 0.56413 0.85760 -0.25700
N 	N 	0.02020 0.73080 0.85130 -0.27600
H 	H 	0.09990 0.74150 0.84740 0.14300
N 	N 	0.00050 0.22611 0.84000 -0.27900
H 	H 	0.06950 0.21510 0.81980 0.14500
N 	N 	0.97350 0.39306 0.85190 -0.25900
O 	O 	0.81200 0.75967 0.86220 -0.25300
O 	O 	0.08320 0.97944 0.79400 -0.34300
O 	O 	0.82390 0.19669 0.89830 -0.25900
O 	O 	0.19870 0.52376 0.09217 -0.44200
O 	O 	0.13650 0.47256 0.96540 -0.46100
O 	O 	0.86980 0.48272 0.71199 -0.37500
O 	O 	0.09290 0.48381 0.75365 -0.36600
