data_crystal

_cell_length_a 10.11900
_cell_length_b 13.67100
_cell_length_c 15.00900
_cell_angle_alpha 111.27100
_cell_angle_beta  101.92600
_cell_angle_gamma 99.46100

_symmetry_space_group_name_	'P 1'
_symmetry_space_group_name_H-M	'P 1'

loop_
_symmetry_equiv_pos_as_xyz
  x,y,z

loop_
_atom_site_label
_atom_site_type_symbol
_atom_site_fract_x
_atom_site_fract_y
_atom_site_fract_z
_atom_site_charge
Co	Co	0.53041 0.51156 0.15017 1.17600
C 	C 	0.74930 0.73480 0.26500 0.13400
H 	H 	0.81210 0.69270 0.25140 -0.00700
C 	C 	0.80390 0.84560 0.32200 -0.22600
H 	H 	0.90000 0.87660 0.34580 0.13700
C 	C 	0.71060 0.90880 0.34240 0.22100
C 	C 	0.56770 0.85770 0.30360 -0.22800
H 	H 	0.50220 0.89770 0.31480 0.12700
C 	C 	0.52560 0.74670 0.24840 0.13600
H 	H 	0.43000 0.71340 0.22380 -0.01300
C 	C 	0.87730 0.09120 0.42640 0.26100
C 	C 	0.89140 0.20290 0.50150 -0.17000
C 	C 	0.97410 0.29240 0.49830 0.16600
H 	H 	0.02180 0.28210 0.45030 -0.00900
C 	C 	0.98640 0.39600 0.56500 -0.31200
H 	H 	0.04090 0.45570 0.56180 0.14500
C 	C 	0.91730 0.41060 0.63660 0.33100
C 	C 	0.83800 0.32270 0.64180 -0.30500
H 	H 	0.79280 0.33330 0.69130 0.15700
C 	C 	0.82440 0.21940 0.57490 0.16600
H 	H 	0.76980 0.16030 0.57890 -0.01400
C 	C 	0.00260 0.60840 0.73100 0.30400
C 	C 	0.14530 0.62270 0.74650 -0.29400
H 	H 	0.18320 0.56320 0.73160 0.15600
C 	C 	0.23000 0.72670 0.78430 0.14800
H 	H 	0.32550 0.73720 0.79210 -0.00000
C 	C 	0.17500 0.81660 0.81120 -0.15000
C 	C 	0.03220 0.79990 0.79540 0.13600
H 	H 	0.99450 0.85950 0.81260 -0.00100
C 	C 	0.94470 0.69660 0.75470 -0.26900
H 	H 	0.84850 0.68590 0.74320 0.14300
C 	C 	0.27400 0.92680 0.85450 0.25300
C 	C 	0.30930 0.11520 0.97500 0.25300
C 	C 	0.41550 0.16590 0.95070 -0.27200
H 	H 	0.44720 0.12560 0.89880 0.15500
C 	C 	0.47490 0.27390 0.00160 0.16600
H 	H 	0.54850 0.30460 0.98370 -0.02600
C 	C 	0.33200 0.28990 0.09730 0.16000
H 	H 	0.30000 0.33270 0.14790 -0.02300
C 	C 	0.26850 0.18130 0.05190 -0.25900
H 	H 	0.19770 0.15190 0.07290 0.13500
C 	C 	0.51670 0.50790 0.31310 0.29300
C 	C 	0.50940 0.50410 0.41040 -0.05000
C 	C 	0.61500 0.48240 0.46770 -0.01600
H 	H 	0.69280 0.47010 0.44600 0.05100
C 	C 	0.60710 0.47870 0.55650 -0.03400
H 	H 	0.68000 0.46460 0.59490 0.07300
C 	C 	0.89180 0.48810 0.91960 -0.01000
H 	H 	0.81980 0.47940 0.86540 0.05400
C 	C 	0.02610 0.49130 0.91130 -0.01100
H 	H 	0.04320 0.48610 0.85150 0.05900
C 	C 	0.13540 0.50220 0.98990 -0.09500
C 	C 	0.27990 0.51020 0.98150 0.39700
N 	N 	0.61230 0.68420 0.22810 -0.24300
N 	N 	0.75010 0.02060 0.40140 -0.17200
N 	N 	0.23800 0.00560 0.92650 -0.17800
N 	N 	0.43580 0.33900 0.07490 -0.26100
O 	O 	0.97090 0.06710 0.39040 -0.23800
O 	O 	0.90880 0.50860 0.70160 -0.32500
O 	O 	0.38000 0.94340 0.82990 -0.23600
O 	O 	0.62360 0.49550 0.28550 -0.37800
O 	O 	0.41520 0.52440 0.26120 -0.36000
O 	O 	0.37740 0.53650 0.05880 -0.46500
O 	O 	0.29550 0.49370 0.89640 -0.44100
Co	Co	0.46959 0.48844 0.84983 1.17500
C 	C 	0.25070 0.26520 0.73500 0.13300
H 	H 	0.18790 0.30730 0.74860 -0.00800
C 	C 	0.19610 0.15440 0.67800 -0.22700
H 	H 	0.10000 0.12340 0.65420 0.13700
C 	C 	0.28940 0.09120 0.65760 0.22100
C 	C 	0.43230 0.14230 0.69640 -0.22800
H 	H 	0.49780 0.10230 0.68520 0.12700
C 	C 	0.47440 0.25330 0.75160 0.13600
H 	H 	0.57000 0.28660 0.77620 -0.01300
C 	C 	0.12270 0.90880 0.57360 0.26100
C 	C 	0.10860 0.79710 0.49850 -0.17000
C 	C 	0.02590 0.70760 0.50170 0.16600
H 	H 	0.97820 0.71790 0.54970 -0.00900
C 	C 	0.01360 0.60400 0.43500 -0.31200
H 	H 	0.95910 0.54430 0.43820 0.14500
C 	C 	0.08270 0.58940 0.36340 0.33100
C 	C 	0.16200 0.67730 0.35820 -0.30500
H 	H 	0.20720 0.66670 0.30870 0.15700
C 	C 	0.17560 0.78060 0.42510 0.16600
H 	H 	0.23020 0.83970 0.42110 -0.01400
C 	C 	0.99740 0.39160 0.26900 0.30400
C 	C 	0.85470 0.37730 0.25350 -0.29400
H 	H 	0.81680 0.43680 0.26840 0.15600
C 	C 	0.77000 0.27330 0.21570 0.14800
H 	H 	0.67450 0.26280 0.20790 -0.00000
C 	C 	0.82500 0.18340 0.18880 -0.15000
C 	C 	0.96780 0.20010 0.20460 0.13600
H 	H 	0.00550 0.14050 0.18740 -0.00100
C 	C 	0.05530 0.30340 0.24530 -0.26900
H 	H 	0.15150 0.31410 0.25680 0.14300
C 	C 	0.72600 0.07320 0.14550 0.25300
C 	C 	0.69070 0.88480 0.02500 0.25300
C 	C 	0.58450 0.83410 0.04930 -0.27200
H 	H 	0.55280 0.87440 0.10120 0.15500
C 	C 	0.52510 0.72610 0.99840 0.16600
H 	H 	0.45150 0.69540 0.01630 -0.02600
C 	C 	0.66800 0.71010 0.90270 0.16000
H 	H 	0.70000 0.66730 0.85210 -0.02300
C 	C 	0.73150 0.81870 0.94810 -0.25900
H 	H 	0.80230 0.84810 0.92710 0.13500
C 	C 	0.48330 0.49210 0.68690 0.29300
C 	C 	0.49060 0.49590 0.58960 -0.05000
C 	C 	0.38500 0.51760 0.53230 -0.01600
H 	H 	0.30720 0.52990 0.55400 0.05100
C 	C 	0.39290 0.52130 0.44350 -0.03400
H 	H 	0.32000 0.53540 0.40510 0.07300
C 	C 	0.10820 0.51190 0.08040 -0.01000
H 	H 	0.18020 0.52060 0.13460 0.05400
C 	C 	0.97390 0.50870 0.08870 -0.01100
H 	H 	0.95680 0.51390 0.14850 0.05900
C 	C 	0.86460 0.49780 0.01010 -0.09500
C 	C 	0.72010 0.48980 0.01850 0.39700
N 	N 	0.38770 0.31580 0.77190 -0.24300
N 	N 	0.24990 0.97940 0.59860 -0.17200
N 	N 	0.76200 0.99440 0.07350 -0.17800
N 	N 	0.56420 0.66100 0.92510 -0.26100
O 	O 	0.02910 0.93290 0.60960 -0.23800
O 	O 	0.09120 0.49140 0.29840 -0.32500
O 	O 	0.62000 0.05660 0.17010 -0.23600
O 	O 	0.37640 0.50450 0.71450 -0.37800
O 	O 	0.58480 0.47560 0.73880 -0.36000
O 	O 	0.62260 0.46350 0.94120 -0.46500
O 	O 	0.70450 0.50630 0.10360 -0.44100
