data_crystal

_cell_length_a 14.15610
_cell_length_b 10.52390
_cell_length_c 27.03300
_cell_angle_alpha 90.00000
_cell_angle_beta  100.64900
_cell_angle_gamma 90.00000

_symmetry_space_group_name_	'P 1'
_symmetry_space_group_name_H-M	'P 1'

loop_
_symmetry_equiv_pos_as_xyz
  x,y,z

loop_
_atom_site_label
_atom_site_type_symbol
_atom_site_fract_x
_atom_site_fract_y
_atom_site_fract_z
_atom_site_charge
Mn	Mn	0.25262 0.60763 0.48919 1.28600
C 	C 	0.34080 0.47530 0.40330 0.36900
C 	C 	0.30500 0.41300 0.35210 -0.04600
C 	C 	0.36400 0.33720 0.32960 -0.06000
H 	H 	0.42690 0.32180 0.34560 0.06100
C 	C 	0.33010 0.28490 0.28370 0.02900
H 	H 	0.37030 0.23360 0.26870 0.01500
C 	C 	0.18200 0.37670 0.28110 0.03800
H 	H 	0.11950 0.39080 0.26410 0.00600
C 	C 	0.21100 0.43060 0.32770 -0.06700
H 	H 	0.16830 0.47780 0.34260 0.05600
C 	C 	0.20270 0.25250 0.20890 -0.01500
H 	H 	0.13920 0.21670 0.20790 0.02400
H 	H 	0.24500 0.18490 0.20210 0.03100
C 	C 	0.19760 0.35430 0.16900 -0.16200
H 	H 	0.26200 0.37600 0.16440 0.08700
H 	H 	0.16810 0.43020 0.17970 0.08400
C 	C 	0.13940 0.30720 0.11980 -0.01300
H 	H 	0.17360 0.23890 0.10670 0.03900
H 	H 	0.07820 0.27430 0.12540 0.03000
C 	C 	0.17810 0.42510 0.04750 0.10600
H 	H 	0.22530 0.36470 0.04550 0.00100
C 	C 	0.16480 0.52600 0.01450 -0.19700
H 	H 	0.20210 0.53240 0.98970 0.14600
C 	C 	0.09570 0.61880 0.01810 0.01700
C 	C 	0.04000 0.60010 0.05440 -0.23400
H 	H 	0.99140 0.65790 0.05690 0.16500
C 	C 	0.05390 0.50150 0.08610 0.12800
H 	H 	0.01620 0.49270 0.11060 -0.02400
C 	C 	0.08100 0.73070 0.98350 0.32400
C 	C 	0.43160 0.77070 0.51130 0.35000
C 	C 	0.49230 0.87130 0.54250 -0.05900
C 	C 	0.45040 0.97440 0.56130 0.03300
H 	H 	0.38380 0.98010 0.55730 0.05200
C 	C 	0.50700 0.06760 0.58580 -0.04300
H 	H 	0.47860 0.13810 0.59770 0.05800
C 	C 	0.64590 0.95890 0.57640 0.07300
H 	H 	0.71260 0.95340 0.58240 0.03600
C 	C 	0.59180 0.86390 0.55060 -0.04600
H 	H 	0.62170 0.79490 0.53850 0.06700
C 	C 	0.66310 0.16470 0.61930 -0.06500
H 	H 	0.63220 0.24600 0.61040 0.06700
H 	H 	0.72550 0.16540 0.60930 0.06100
C 	C 	0.67470 0.14320 0.67490 -0.10500
H 	H 	0.70350 0.06040 0.68320 0.06400
H 	H 	0.61200 0.14360 0.68450 0.06200
C 	C 	0.73770 0.24540 0.70440 -0.06000
H 	H 	0.79510 0.25790 0.69010 0.05900
H 	H 	0.70290 0.32520 0.70230 0.05800
C 	C 	0.69770 0.17390 0.78440 0.02700
H 	H 	0.63330 0.17400 0.76880 0.01900
C 	C 	0.72250 0.14170 0.83420 -0.05200
H 	H 	0.67490 0.12470 0.85280 0.05300
C 	C 	0.81740 0.13460 0.85670 -0.05600
C 	C 	0.88550 0.16480 0.82790 -0.05400
H 	H 	0.95060 0.15920 0.84170 0.07100
C 	C 	0.85690 0.20300 0.77870 0.03200
H 	H 	0.90260 0.22750 0.76000 0.03100
C 	C 	0.84680 0.10120 0.91120 0.37100
N 	N 	0.36530 0.48030 0.52930 -0.29200
N 	N 	0.35060 0.39730 0.55660 -0.04100
N 	N 	0.33830 0.31500 0.58380 -0.08500
N 	N 	0.13900 0.45670 0.47660 -0.28900
N 	N 	0.16320 0.35570 0.46300 -0.04900
N 	N 	0.18970 0.25900 0.45110 -0.09000
N 	N 	0.23890 0.30640 0.25960 -0.12500
N 	N 	0.12270 0.41420 0.08260 -0.14600
N 	N 	0.60280 0.05980 0.59310 -0.11700
N 	N 	0.76520 0.20530 0.75810 -0.11400
O 	O 	0.42230 0.44470 0.42520 -0.44000
O 	O 	0.28520 0.55540 0.41700 -0.45200
O 	O 	0.14530 0.74940 0.95640 -0.39100
O 	O 	0.00860 0.79570 0.98300 -0.40600
O 	O 	0.47510 0.69860 0.48580 -0.43800
O 	O 	0.34360 0.77470 0.51020 -0.41300
O 	O 	0.92490 0.04170 0.92370 -0.41000
O 	O 	0.79270 0.13970 0.93880 -0.43500
Mn	Mn	0.74738 0.10763 0.01081 1.26300
C 	C 	0.65920 0.97530 0.09670 0.42600
C 	C 	0.69500 0.91300 0.14790 -0.05300
C 	C 	0.63600 0.83720 0.17040 -0.04500
H 	H 	0.57310 0.82180 0.15440 0.06300
C 	C 	0.66990 0.78490 0.21630 0.03100
H 	H 	0.62970 0.73360 0.23130 0.02500
C 	C 	0.81800 0.87670 0.21890 0.04200
H 	H 	0.88050 0.89080 0.23590 0.03400
C 	C 	0.78900 0.93060 0.17230 -0.04700
H 	H 	0.83170 0.97780 0.15740 0.07900
C 	C 	0.79730 0.75250 0.29110 -0.04100
H 	H 	0.86080 0.71670 0.29210 0.05500
H 	H 	0.75500 0.68490 0.29790 0.05100
C 	C 	0.80240 0.85430 0.33100 -0.13000
H 	H 	0.73800 0.87600 0.33560 0.08500
H 	H 	0.83190 0.93020 0.32030 0.09000
C 	C 	0.86060 0.80720 0.38020 -0.05800
H 	H 	0.82640 0.73890 0.39330 0.06800
H 	H 	0.92180 0.77430 0.37460 0.07600
C 	C 	0.82190 0.92510 0.45250 0.06900
H 	H 	0.77470 0.86470 0.45450 0.03500
C 	C 	0.83520 0.02600 0.48550 -0.05600
H 	H 	0.79790 0.03240 0.51030 0.06300
C 	C 	0.90430 0.11880 0.48190 -0.11900
C 	C 	0.96000 0.10010 0.44560 0.18500
H 	H 	0.00860 0.15790 0.44310 -0.06400
C 	C 	0.94610 0.00150 0.41390 -0.18500
H 	H 	0.98380 0.99270 0.38940 0.14600
C 	C 	0.91900 0.23070 0.51650 0.35500
C 	C 	0.56840 0.27070 0.98870 0.39400
C 	C 	0.50770 0.37130 0.95750 -0.04500
C 	C 	0.54960 0.47440 0.93870 -0.04300
H 	H 	0.61620 0.48010 0.94270 0.06900
C 	C 	0.49300 0.56760 0.91420 0.03900
H 	H 	0.52140 0.63810 0.90230 0.03800
C 	C 	0.35410 0.45890 0.92360 0.04000
H 	H 	0.28740 0.45340 0.91760 0.02800
C 	C 	0.40820 0.36390 0.94940 -0.04500
H 	H 	0.37830 0.29490 0.96150 0.07400
C 	C 	0.33690 0.66470 0.88070 -0.05700
H 	H 	0.36780 0.74600 0.88960 0.07000
H 	H 	0.27450 0.66540 0.89070 0.06000
C 	C 	0.32530 0.64320 0.82510 -0.11300
H 	H 	0.29650 0.56040 0.81680 0.07100
H 	H 	0.38800 0.64360 0.81550 0.07000
C 	C 	0.26230 0.74540 0.79560 -0.05800
H 	H 	0.20490 0.75790 0.80990 0.05500
H 	H 	0.29710 0.82520 0.79770 0.06700
C 	C 	0.30230 0.67390 0.71560 0.02800
H 	H 	0.36670 0.67400 0.73120 0.02500
C 	C 	0.27750 0.64170 0.66580 -0.04200
H 	H 	0.32510 0.62470 0.64720 0.05700
C 	C 	0.18260 0.63460 0.64330 -0.06300
C 	C 	0.11450 0.66480 0.67210 -0.04600
H 	H 	0.04940 0.65920 0.65830 0.04500
C 	C 	0.14310 0.70300 0.72130 0.02900
H 	H 	0.09740 0.72750 0.74000 0.01600
C 	C 	0.15320 0.60120 0.58880 0.38300
N 	N 	0.63470 0.98030 0.97070 -0.25600
N 	N 	0.64940 0.89730 0.94340 -0.03000
N 	N 	0.66170 0.81500 0.91620 -0.07300
N 	N 	0.86100 0.95670 0.02340 -0.26100
N 	N 	0.83680 0.85570 0.03700 -0.04300
N 	N 	0.81030 0.75900 0.04890 -0.08300
N 	N 	0.76110 0.80640 0.24040 -0.11500
N 	N 	0.87730 0.91420 0.41740 -0.05500
N 	N 	0.39720 0.55980 0.90690 -0.10800
N 	N 	0.23480 0.70530 0.74190 -0.11200
O 	O 	0.57770 0.94470 0.07480 -0.44000
O 	O 	0.71480 0.05540 0.08300 -0.50200
O 	O 	0.85470 0.24940 0.54360 -0.39700
O 	O 	0.99140 0.29570 0.51700 -0.38500
O 	O 	0.52490 0.19860 0.01420 -0.48900
O 	O 	0.65640 0.27470 0.98980 -0.40700
O 	O 	0.07510 0.54170 0.57630 -0.45000
O 	O 	0.20730 0.63970 0.56120 -0.44700
Mn	Mn	0.74738 0.39237 0.51081 1.28800
C 	C 	0.65920 0.52470 0.59670 0.36900
C 	C 	0.69500 0.58700 0.64790 -0.04300
C 	C 	0.63600 0.66280 0.67040 -0.05400
H 	H 	0.57310 0.67820 0.65440 0.06500
C 	C 	0.66990 0.71510 0.71630 0.03300
H 	H 	0.62970 0.76640 0.73130 0.02900
C 	C 	0.81800 0.62330 0.71890 0.04300
H 	H 	0.88050 0.60920 0.73590 0.02900
C 	C 	0.78900 0.56940 0.67230 -0.05900
H 	H 	0.83170 0.52220 0.65740 0.07100
C 	C 	0.79730 0.74750 0.79110 -0.05900
H 	H 	0.86080 0.78330 0.79210 0.06700
H 	H 	0.75500 0.81510 0.79790 0.06500
C 	C 	0.80240 0.64570 0.83100 -0.10800
H 	H 	0.73800 0.62400 0.83560 0.07300
H 	H 	0.83190 0.56980 0.82030 0.07500
C 	C 	0.86060 0.69280 0.88020 -0.07200
H 	H 	0.82640 0.76110 0.89330 0.08000
H 	H 	0.92180 0.72570 0.87460 0.08300
C 	C 	0.82190 0.57490 0.95250 -0.02500
H 	H 	0.77470 0.63530 0.95450 0.07100
C 	C 	0.83520 0.47400 0.98550 0.08800
H 	H 	0.79790 0.46760 0.01030 -0.00400
C 	C 	0.90430 0.38120 0.98190 -0.08800
C 	C 	0.96000 0.39990 0.94560 0.12000
H 	H 	0.00860 0.34210 0.94310 -0.02400
C 	C 	0.94610 0.49850 0.91390 -0.04300
H 	H 	0.98380 0.50730 0.88940 0.07300
C 	C 	0.91900 0.26930 0.01650 0.32100
C 	C 	0.56840 0.22930 0.48870 0.32800
C 	C 	0.50770 0.12870 0.45750 -0.01300
C 	C 	0.54960 0.02560 0.43870 -0.14500
H 	H 	0.61620 0.01990 0.44270 0.08600
C 	C 	0.49300 0.93240 0.41420 0.12300
H 	H 	0.52140 0.86190 0.40230 0.01100
C 	C 	0.35410 0.04110 0.42360 0.00200
H 	H 	0.28740 0.04660 0.41760 0.02300
C 	C 	0.40820 0.13610 0.44940 -0.06700
H 	H 	0.37830 0.20510 0.46150 0.06700
C 	C 	0.33690 0.83530 0.38070 -0.03800
H 	H 	0.36780 0.75400 0.38960 0.05800
H 	H 	0.27450 0.83460 0.39070 0.05700
C 	C 	0.32530 0.85680 0.32510 -0.13700
H 	H 	0.29650 0.93960 0.31680 0.09000
H 	H 	0.38800 0.85640 0.31550 0.08000
C 	C 	0.26230 0.75460 0.29560 -0.03800
H 	H 	0.20490 0.74210 0.30990 0.04500
H 	H 	0.29710 0.67480 0.29770 0.05000
C 	C 	0.30230 0.82610 0.21560 0.03300
H 	H 	0.36670 0.82600 0.23120 0.02500
C 	C 	0.27750 0.85830 0.16580 -0.04500
H 	H 	0.32510 0.87530 0.14720 0.06500
C 	C 	0.18260 0.86540 0.14330 -0.05400
C 	C 	0.11450 0.83520 0.17210 -0.05000
H 	H 	0.04940 0.84080 0.15830 0.04700
C 	C 	0.14310 0.79700 0.22130 0.03400
H 	H 	0.09740 0.77250 0.24000 0.01100
C 	C 	0.15320 0.89880 0.08880 0.38300
N 	N 	0.63470 0.51970 0.47070 -0.29100
N 	N 	0.64940 0.60270 0.44340 -0.03900
N 	N 	0.66170 0.68500 0.41620 -0.07900
N 	N 	0.86100 0.54330 0.52340 -0.27000
N 	N 	0.83680 0.64430 0.53700 -0.04000
N 	N 	0.81030 0.74100 0.54890 -0.07300
N 	N 	0.76110 0.69360 0.74040 -0.11300
N 	N 	0.87730 0.58580 0.91740 -0.07400
N 	N 	0.39720 0.94020 0.40690 -0.10500
N 	N 	0.23480 0.79470 0.24190 -0.11700
O 	O 	0.57770 0.55530 0.57480 -0.43900
O 	O 	0.71480 0.44460 0.58300 -0.44800
O 	O 	0.85470 0.25060 0.04360 -0.40100
O 	O 	0.99140 0.20430 0.01700 -0.39800
O 	O 	0.52490 0.30140 0.51420 -0.43500
O 	O 	0.65640 0.22530 0.48980 -0.41300
O 	O 	0.07510 0.95830 0.07630 -0.43300
O 	O 	0.20730 0.86030 0.06120 -0.45000
Mn	Mn	0.25262 0.89237 0.98919 1.31200
C 	C 	0.34080 0.02470 0.90330 0.31200
C 	C 	0.30500 0.08700 0.85210 -0.03500
C 	C 	0.36400 0.16280 0.82960 -0.06900
H 	H 	0.42690 0.17820 0.84560 0.06400
C 	C 	0.33010 0.21510 0.78370 0.03200
H 	H 	0.37030 0.26640 0.76870 0.02000
C 	C 	0.18200 0.12330 0.78110 0.04000
H 	H 	0.11950 0.10920 0.76410 0.00100
C 	C 	0.21100 0.06940 0.82770 -0.07900
H 	H 	0.16830 0.02220 0.84260 0.04800
C 	C 	0.20270 0.24750 0.70890 -0.03500
H 	H 	0.13920 0.28330 0.70790 0.03700
H 	H 	0.24500 0.31510 0.70210 0.04600
C 	C 	0.19760 0.14570 0.66900 -0.13800
H 	H 	0.26200 0.12400 0.66440 0.07400
H 	H 	0.16810 0.06980 0.67970 0.06800
C 	C 	0.13940 0.19280 0.61980 -0.02900
H 	H 	0.17360 0.26110 0.60670 0.05200
H 	H 	0.07820 0.22570 0.62540 0.03800
C 	C 	0.17810 0.07490 0.54750 0.00400
H 	H 	0.22530 0.13530 0.54550 0.04100
C 	C 	0.16480 0.97400 0.51450 -0.04400
H 	H 	0.20210 0.96760 0.48970 0.07700
C 	C 	0.09570 0.88120 0.51810 0.04100
C 	C 	0.04000 0.89990 0.55440 -0.29500
H 	H 	0.99140 0.84210 0.55690 0.20000
C 	C 	0.05390 0.99850 0.58610 0.27900
H 	H 	0.01620 0.00730 0.61060 -0.10300
C 	C 	0.08100 0.76930 0.48350 0.29500
C 	C 	0.43160 0.72930 0.01130 0.28700
C 	C 	0.49230 0.62870 0.04250 -0.02600
C 	C 	0.45040 0.52560 0.06130 -0.06900
H 	H 	0.38380 0.51990 0.05730 0.06800
C 	C 	0.50700 0.43240 0.08580 0.04100
H 	H 	0.47860 0.36190 0.09770 0.03100
C 	C 	0.64590 0.54110 0.07640 0.03700
H 	H 	0.71260 0.54660 0.08240 0.03100
C 	C 	0.59180 0.63610 0.05060 -0.06900
H 	H 	0.62170 0.70510 0.03850 0.06300
C 	C 	0.66310 0.33530 0.11930 -0.04700
H 	H 	0.63220 0.25400 0.11040 0.05500
H 	H 	0.72550 0.33460 0.10930 0.05800
C 	C 	0.67470 0.35680 0.17490 -0.12800
H 	H 	0.70350 0.43960 0.18320 0.08100
H 	H 	0.61200 0.35640 0.18450 0.07100
C 	C 	0.73770 0.25460 0.20440 -0.04200
H 	H 	0.79510 0.24210 0.19010 0.04900
H 	H 	0.70290 0.17480 0.20230 0.04100
C 	C 	0.69770 0.32610 0.28440 0.03000
H 	H 	0.63330 0.32600 0.26880 0.01900
C 	C 	0.72250 0.35830 0.33420 -0.05400
H 	H 	0.67490 0.37530 0.35280 0.05900
C 	C 	0.81740 0.36540 0.35670 -0.05000
C 	C 	0.88550 0.33520 0.32790 -0.05600
H 	H 	0.95060 0.34080 0.34170 0.07300
C 	C 	0.85690 0.29700 0.27870 0.03500
H 	H 	0.90260 0.27250 0.26000 0.02600
C 	C 	0.84680 0.39880 0.41120 0.37400
N 	N 	0.36530 0.01970 0.02930 -0.32200
N 	N 	0.35060 0.10270 0.05660 -0.05000
N 	N 	0.33830 0.18500 0.08380 -0.09100
N 	N 	0.13900 0.04330 0.97660 -0.29000
N 	N 	0.16320 0.14430 0.96300 -0.04500
N 	N 	0.18970 0.24100 0.95110 -0.07800
N 	N 	0.23890 0.19360 0.75960 -0.12300
N 	N 	0.12270 0.08580 0.58260 -0.16700
N 	N 	0.60280 0.44020 0.09310 -0.11500
N 	N 	0.76520 0.29470 0.25810 -0.11800
O 	O 	0.42230 0.05530 0.92520 -0.42600
O 	O 	0.28520 0.94460 0.91700 -0.39700
O 	O 	0.14530 0.75060 0.45640 -0.39600
O 	O 	0.00860 0.70430 0.48300 -0.43000
O 	O 	0.47510 0.80140 0.98580 -0.37600
O 	O 	0.34360 0.72530 0.01020 -0.41600
O 	O 	0.92490 0.45830 0.42370 -0.40900
O 	O 	0.79270 0.36030 0.43880 -0.44400
Mn	Mn	0.50000 0.50000 0.50000 1.28800
Mn	Mn	0.50000 0.00000 -0.00000 1.25400
Mn	Mn	-0.00000 0.00000 -0.00000 1.23300
Mn	Mn	0.00000 0.50000 0.50000 1.26800
