data_crystal

_cell_length_a 9.81900
_cell_length_b 23.32650
_cell_length_c 8.93420
_cell_angle_alpha 90.00000
_cell_angle_beta  90.00000
_cell_angle_gamma 90.00000

_symmetry_space_group_name_	'P 1'
_symmetry_space_group_name_H-M	'P 1'

loop_
_symmetry_equiv_pos_as_xyz
  x,y,z

loop_
_atom_site_label
_atom_site_type_symbol
_atom_site_fract_x
_atom_site_fract_y
_atom_site_fract_z
_atom_site_charge
Zn	Zn	0.55949 0.04696 0.71889 1.24200
P 	P 	0.57510 0.18428 0.76350 0.60300
H 	H 	0.49480 0.20260 0.71930 -0.15000
P 	P 	0.28745 0.00285 0.56270 0.59800
H 	H 	0.29150 0.03860 0.50520 -0.16700
O 	O 	0.53450 0.12290 0.79650 -0.44400
O 	O 	0.38720 0.00870 0.69100 -0.46800
O 	O 	0.32590 0.95490 0.45730 -0.46300
O 	O 	0.14230 0.99640 0.61790 -0.42900
O 	O 	0.60380 0.21580 0.90690 -0.46400
O 	O 	0.68650 0.18770 0.64660 -0.47600
Zn	Zn	0.94051 0.45304 0.71889 1.24300
P 	P 	0.92490 0.31572 0.76350 0.60400
H 	H 	0.00520 0.29740 0.71930 -0.15000
P 	P 	0.21255 0.49715 0.56270 0.59700
H 	H 	0.20850 0.46140 0.50520 -0.16700
O 	O 	0.96550 0.37710 0.79650 -0.44400
O 	O 	0.11280 0.49130 0.69100 -0.46900
O 	O 	0.17410 0.54510 0.45730 -0.46200
O 	O 	0.35770 0.50360 0.61790 -0.42800
O 	O 	0.89620 0.28420 0.90690 -0.46400
O 	O 	0.81350 0.31230 0.64660 -0.47600
Zn	Zn	0.44051 0.54696 0.78111 1.24200
P 	P 	0.42490 0.68428 0.73650 0.60400
H 	H 	0.50520 0.70260 0.78070 -0.15100
P 	P 	0.71255 0.50285 0.93730 0.59900
H 	H 	0.70850 0.53860 0.99480 -0.16700
O 	O 	0.46550 0.62290 0.70350 -0.44500
O 	O 	0.61280 0.50870 0.80900 -0.46800
O 	O 	0.67410 0.45490 0.04270 -0.46400
O 	O 	0.85770 0.49640 0.88210 -0.42800
O 	O 	0.39620 0.71580 0.59310 -0.46600
O 	O 	0.31350 0.68770 0.85340 -0.47700
Zn	Zn	0.05949 0.95304 0.78111 1.24200
P 	P 	0.07510 0.81572 0.73650 0.60000
H 	H 	0.99480 0.79740 0.78070 -0.14700
P 	P 	0.78745 0.99715 0.93730 0.59900
H 	H 	0.79150 0.96140 0.99480 -0.16700
O 	O 	0.03450 0.87710 0.70350 -0.44500
O 	O 	0.88720 0.99130 0.80900 -0.46700
O 	O 	0.82590 0.04510 0.04270 -0.46500
O 	O 	0.64230 0.00360 0.88210 -0.42700
O 	O 	0.10380 0.78420 0.59310 -0.46600
O 	O 	0.18650 0.81230 0.85340 -0.47700
Zn	Zn	0.44051 0.95304 0.28111 1.24300
P 	P 	0.42490 0.81572 0.23650 0.60400
H 	H 	0.50520 0.79740 0.28070 -0.15000
P 	P 	0.71255 0.99715 0.43730 0.59800
H 	H 	0.70850 0.96140 0.49480 -0.16700
O 	O 	0.46550 0.87710 0.20350 -0.44400
O 	O 	0.61280 0.99130 0.30900 -0.46800
O 	O 	0.67410 0.04510 0.54270 -0.46300
O 	O 	0.85770 0.00360 0.38210 -0.42900
O 	O 	0.39620 0.78420 0.09310 -0.46400
O 	O 	0.31350 0.81230 0.35340 -0.47600
Zn	Zn	0.05949 0.54696 0.28111 1.24300
P 	P 	0.07510 0.68428 0.23650 0.60400
H 	H 	0.99480 0.70260 0.28070 -0.15000
P 	P 	0.78745 0.50285 0.43730 0.59700
H 	H 	0.79150 0.53860 0.49480 -0.16700
O 	O 	0.03450 0.62290 0.20350 -0.44400
O 	O 	0.88720 0.50870 0.30900 -0.46900
O 	O 	0.82590 0.45490 0.54270 -0.46200
O 	O 	0.64230 0.49640 0.38210 -0.42800
O 	O 	0.10380 0.71580 0.09310 -0.46400
O 	O 	0.18650 0.68770 0.35340 -0.47600
Zn	Zn	0.55949 0.45304 0.21889 1.24200
P 	P 	0.57510 0.31572 0.26350 0.60400
H 	H 	0.49480 0.29740 0.21930 -0.15100
P 	P 	0.28745 0.49715 0.06270 0.59900
H 	H 	0.29150 0.46140 0.00520 -0.16700
O 	O 	0.53450 0.37710 0.29650 -0.44500
O 	O 	0.38720 0.49130 0.19100 -0.46800
O 	O 	0.32590 0.54510 0.95730 -0.46400
O 	O 	0.14230 0.50360 0.11790 -0.42800
O 	O 	0.60380 0.28420 0.40690 -0.46600
O 	O 	0.68650 0.31230 0.14660 -0.47700
Zn	Zn	0.94051 0.04696 0.21889 1.24200
P 	P 	0.92490 0.18428 0.26350 0.60000
H 	H 	0.00520 0.20260 0.21930 -0.14700
P 	P 	0.21255 0.00285 0.06270 0.59900
H 	H 	0.20850 0.03860 0.00520 -0.16700
O 	O 	0.96550 0.12290 0.29650 -0.44500
O 	O 	0.11280 0.00870 0.19100 -0.46700
O 	O 	0.17410 0.95490 0.95730 -0.46500
O 	O 	0.35770 0.99640 0.11790 -0.42700
O 	O 	0.89620 0.21580 0.40690 -0.46600
O 	O 	0.81350 0.18770 0.14660 -0.47700
Zn	Zn	0.75000 0.25000 0.01825 1.23600
Zn	Zn	0.25000 0.75000 0.48175 1.23800
Zn	Zn	0.25000 0.75000 0.98175 1.23600
Zn	Zn	0.75000 0.25000 0.51825 1.23800
