data_crystal

_cell_length_a 9.54670
_cell_length_b 26.40500
_cell_length_c 7.99460
_cell_angle_alpha 90.00000
_cell_angle_beta  99.47200
_cell_angle_gamma 90.00000

_symmetry_space_group_name_	'P 1'
_symmetry_space_group_name_H-M	'P 1'

loop_
_symmetry_equiv_pos_as_xyz
  x,y,z

loop_
_atom_site_label
_atom_site_type_symbol
_atom_site_fract_x
_atom_site_fract_y
_atom_site_fract_z
_atom_site_charge
Zn	Zn	0.60496 0.56847 0.49235 1.23300
Zn	Zn	0.36762 0.76380 0.25171 1.23200
Zn	Zn	0.17504 0.55587 0.98787 1.23800
P 	P 	0.42150 0.52027 0.75679 0.46600
H 	H 	0.54300 0.52770 0.87300 -0.03600
P 	P 	0.54598 0.68781 0.48545 0.48200
H 	H 	0.65400 0.69600 0.57300 -0.07300
P 	P 	0.20489 0.67683 0.02240 0.48300
H 	H 	0.07400 0.68500 0.94200 -0.05100
P 	P 	0.87725 0.52931 0.74344 0.49600
H 	H 	0.96700 0.50900 0.65600 -0.06400
O 	O 	0.43960 0.54841 0.59500 -0.45500
O 	O 	0.38540 0.46561 0.72200 -0.45000
O 	O 	0.55210 0.63643 0.40360 -0.41800
O 	O 	0.54070 0.73046 0.35940 -0.44300
O 	O 	0.42240 0.69005 0.58400 -0.45900
O 	O 	0.22510 0.71489 0.16550 -0.45500
O 	O 	0.30230 0.68519 0.89430 -0.46700
O 	O 	0.21930 0.62310 0.08920 -0.41300
O 	O 	0.32330 0.54721 0.85200 -0.44100
O 	O 	0.98580 0.55594 0.87060 -0.47400
O 	O 	0.77660 0.56769 0.65010 -0.46000
O 	O 	0.80120 0.48684 0.81470 -0.47200
Zn	Zn	0.39504 0.06847 0.00765 1.23300
Zn	Zn	0.63238 0.26380 0.24829 1.23200
Zn	Zn	0.82496 0.05587 0.51213 1.23900
P 	P 	0.57850 0.02027 0.74321 0.46600
H 	H 	0.45700 0.02770 0.62700 -0.03600
P 	P 	0.45402 0.18781 0.01455 0.47200
H 	H 	0.34600 0.19600 0.92700 -0.06700
P 	P 	0.79511 0.17683 0.47760 0.47100
H 	H 	0.92600 0.18500 0.55800 -0.04500
P 	P 	0.12275 0.02931 0.75656 0.49700
H 	H 	0.03300 0.00900 0.84400 -0.06500
O 	O 	0.56040 0.04841 0.90500 -0.45300
O 	O 	0.61460 0.96561 0.77800 -0.45000
O 	O 	0.44790 0.13643 0.09640 -0.41900
O 	O 	0.45930 0.23046 0.14060 -0.44300
O 	O 	0.57760 0.19005 0.91600 -0.45300
O 	O 	0.77490 0.21489 0.33450 -0.45600
O 	O 	0.69770 0.18519 0.60570 -0.46100
O 	O 	0.78070 0.12310 0.41080 -0.41500
O 	O 	0.67670 0.04721 0.64800 -0.44000
O 	O 	0.01420 0.05594 0.62940 -0.47400
O 	O 	0.22340 0.06769 0.84990 -0.45800
O 	O 	0.19880 0.98684 0.68530 -0.47500
Zn	Zn	0.39504 0.43153 0.50765 1.23400
Zn	Zn	0.63238 0.23620 0.74829 1.23300
Zn	Zn	0.82496 0.44413 0.01213 1.23800
P 	P 	0.57850 0.47973 0.24321 0.46600
H 	H 	0.45700 0.47230 0.12700 -0.03600
P 	P 	0.45402 0.31219 0.51455 0.48200
H 	H 	0.34600 0.30400 0.42700 -0.07300
P 	P 	0.79511 0.32317 0.97760 0.48300
H 	H 	0.92600 0.31500 0.05800 -0.05100
P 	P 	0.12275 0.47069 0.25656 0.49600
H 	H 	0.03300 0.49100 0.34400 -0.06400
O 	O 	0.56040 0.45159 0.40500 -0.45500
O 	O 	0.61460 0.53439 0.27800 -0.45000
O 	O 	0.44790 0.36357 0.59640 -0.41800
O 	O 	0.45930 0.26954 0.64060 -0.44300
O 	O 	0.57760 0.30995 0.41600 -0.45900
O 	O 	0.77490 0.28511 0.83450 -0.45500
O 	O 	0.69770 0.31481 0.10570 -0.46700
O 	O 	0.78070 0.37690 0.91080 -0.41300
O 	O 	0.67670 0.45279 0.14800 -0.44100
O 	O 	0.01420 0.44406 0.12940 -0.47400
O 	O 	0.22340 0.43231 0.34990 -0.46000
O 	O 	0.19880 0.51316 0.18530 -0.47200
Zn	Zn	0.60496 0.93153 0.99235 1.23300
Zn	Zn	0.36762 0.73620 0.75171 1.23200
Zn	Zn	0.17504 0.94413 0.48787 1.23900
P 	P 	0.42150 0.97973 0.25679 0.46600
H 	H 	0.54300 0.97230 0.37300 -0.03600
P 	P 	0.54598 0.81219 0.98545 0.47200
H 	H 	0.65400 0.80400 0.07300 -0.06700
P 	P 	0.20489 0.82317 0.52240 0.47100
H 	H 	0.07400 0.81500 0.44200 -0.04500
P 	P 	0.87725 0.97069 0.24344 0.49700
H 	H 	0.96700 0.99100 0.15600 -0.06500
O 	O 	0.43960 0.95159 0.09500 -0.45300
O 	O 	0.38540 0.03439 0.22200 -0.45000
O 	O 	0.55210 0.86357 0.90360 -0.41900
O 	O 	0.54070 0.76954 0.85940 -0.44300
O 	O 	0.42240 0.80995 0.08400 -0.45300
O 	O 	0.22510 0.78511 0.66550 -0.45600
O 	O 	0.30230 0.81481 0.39430 -0.46100
O 	O 	0.21930 0.87690 0.58920 -0.41500
O 	O 	0.32330 0.95279 0.35200 -0.44000
O 	O 	0.98580 0.94406 0.37060 -0.47400
O 	O 	0.77660 0.93231 0.15010 -0.45800
O 	O 	0.80120 0.01316 0.31470 -0.47500
