data_crystal

_cell_length_a 9.81620
_cell_length_b 23.28400
_cell_length_c 8.93060
_cell_angle_alpha 90.00000
_cell_angle_beta  90.00000
_cell_angle_gamma 90.00000

_symmetry_space_group_name_	'P 1'
_symmetry_space_group_name_H-M	'P 1'

loop_
_symmetry_equiv_pos_as_xyz
  x,y,z

loop_
_atom_site_label
_atom_site_type_symbol
_atom_site_fract_x
_atom_site_fract_y
_atom_site_fract_z
_atom_site_charge
Zn	Zn	0.44051 0.54696 0.21892 1.23700
P 	P 	0.28715 0.49715 0.93735 0.47900
H 	H 	0.29300 0.45490 0.01900 -0.08200
P 	P 	0.42532 0.68444 0.26368 0.47300
H 	H 	0.53600 0.70890 0.20700 -0.04700
O 	O 	0.32580 0.54516 0.04300 -0.45000
O 	O 	0.14180 0.50339 0.88150 -0.41800
O 	O 	0.38640 0.49118 0.80940 -0.45900
O 	O 	0.46520 0.62308 0.29730 -0.43500
O 	O 	0.31380 0.68794 0.14710 -0.46700
O 	O 	0.39690 0.71573 0.40690 -0.45500
Zn	Zn	0.05949 0.95304 0.21892 1.23800
P 	P 	0.21285 0.00285 0.93735 0.47800
H 	H 	0.20700 0.04510 0.01900 -0.07900
P 	P 	0.07468 0.81556 0.26368 0.47300
H 	H 	0.96400 0.79110 0.20700 -0.04600
O 	O 	0.17420 0.95484 0.04300 -0.45000
O 	O 	0.35820 0.99661 0.88150 -0.41700
O 	O 	0.11360 0.00882 0.80940 -0.45800
O 	O 	0.03480 0.87692 0.29730 -0.43500
O 	O 	0.18620 0.81206 0.14710 -0.46700
O 	O 	0.10310 0.78427 0.40690 -0.45500
Zn	Zn	0.55949 0.04696 0.28108 1.23800
P 	P 	0.71285 0.99715 0.56265 0.48000
H 	H 	0.70700 0.95490 0.48100 -0.08100
P 	P 	0.57468 0.18444 0.23632 0.47400
H 	H 	0.46400 0.20890 0.29300 -0.04600
O 	O 	0.67420 0.04516 0.45700 -0.44800
O 	O 	0.85820 0.00339 0.61850 -0.41900
O 	O 	0.61360 0.99118 0.69060 -0.45900
O 	O 	0.53480 0.12308 0.20270 -0.43400
O 	O 	0.68620 0.18794 0.35290 -0.46500
O 	O 	0.60310 0.21573 0.09310 -0.45300
Zn	Zn	0.94051 0.45304 0.28108 1.23900
P 	P 	0.78715 0.50285 0.56265 0.47900
H 	H 	0.79300 0.54510 0.48100 -0.08100
P 	P 	0.92532 0.31556 0.23632 0.47400
H 	H 	0.03600 0.29110 0.29300 -0.04600
O 	O 	0.82580 0.45484 0.45700 -0.44800
O 	O 	0.64180 0.49661 0.61850 -0.41800
O 	O 	0.88640 0.50882 0.69060 -0.45900
O 	O 	0.96520 0.37692 0.20270 -0.43400
O 	O 	0.81380 0.31206 0.35290 -0.46500
O 	O 	0.89690 0.28427 0.09310 -0.45300
Zn	Zn	0.55949 0.45304 0.78108 1.23800
P 	P 	0.71285 0.50285 0.06265 0.48000
H 	H 	0.70700 0.54510 0.98100 -0.08100
P 	P 	0.57468 0.31556 0.73632 0.47400
H 	H 	0.46400 0.29110 0.79300 -0.04700
O 	O 	0.67420 0.45484 0.95700 -0.45000
O 	O 	0.85820 0.49661 0.11850 -0.41800
O 	O 	0.61360 0.50882 0.19060 -0.45900
O 	O 	0.53480 0.37692 0.70270 -0.43500
O 	O 	0.68620 0.31206 0.85290 -0.46700
O 	O 	0.60310 0.28427 0.59310 -0.45500
Zn	Zn	0.94051 0.04696 0.78108 1.23800
P 	P 	0.78715 0.99715 0.06265 0.47800
H 	H 	0.79300 0.95490 0.98100 -0.07900
P 	P 	0.92532 0.18444 0.73632 0.47300
H 	H 	0.03600 0.20890 0.79300 -0.04600
O 	O 	0.82580 0.04516 0.95700 -0.45000
O 	O 	0.64180 0.00339 0.11850 -0.41700
O 	O 	0.88640 0.99118 0.19060 -0.45800
O 	O 	0.96520 0.12308 0.70270 -0.43500
O 	O 	0.81380 0.18794 0.85290 -0.46700
O 	O 	0.89690 0.21573 0.59310 -0.45500
Zn	Zn	0.44051 0.95304 0.71892 1.23800
P 	P 	0.28715 0.00285 0.43735 0.48000
H 	H 	0.29300 0.04510 0.51900 -0.08100
P 	P 	0.42532 0.81556 0.76368 0.47400
H 	H 	0.53600 0.79110 0.70700 -0.04600
O 	O 	0.32580 0.95484 0.54300 -0.44800
O 	O 	0.14180 0.99661 0.38150 -0.41900
O 	O 	0.38640 0.00882 0.30940 -0.45900
O 	O 	0.46520 0.87692 0.79730 -0.43400
O 	O 	0.31380 0.81206 0.64710 -0.46500
O 	O 	0.39690 0.78427 0.90690 -0.45300
Zn	Zn	0.05949 0.54696 0.71892 1.23900
P 	P 	0.21285 0.49715 0.43735 0.47900
H 	H 	0.20700 0.45490 0.51900 -0.08100
P 	P 	0.07468 0.68444 0.76368 0.47400
H 	H 	0.96400 0.70890 0.70700 -0.04600
O 	O 	0.17420 0.54516 0.54300 -0.44800
O 	O 	0.35820 0.50339 0.38150 -0.41800
O 	O 	0.11360 0.49118 0.30940 -0.45900
O 	O 	0.03480 0.62308 0.79730 -0.43400
O 	O 	0.18620 0.68794 0.64710 -0.46500
O 	O 	0.10310 0.71573 0.90690 -0.45300
Zn	Zn	0.25000 0.75000 0.01889 1.23200
Zn	Zn	0.75000 0.25000 0.48111 1.23300
Zn	Zn	0.75000 0.25000 0.98111 1.23200
Zn	Zn	0.25000 0.75000 0.51889 1.23300
