data_crystal

_cell_length_a 7.08000
_cell_length_b 17.32650
_cell_length_c 20.78670
_cell_angle_alpha 90.00000
_cell_angle_beta  99.27520
_cell_angle_gamma 90.00000

_symmetry_space_group_name_	'P 1'
_symmetry_space_group_name_H-M	'P 1'

loop_
_symmetry_equiv_pos_as_xyz
  x,y,z

loop_
_atom_site_label
_atom_site_type_symbol
_atom_site_fract_x
_atom_site_fract_y
_atom_site_fract_z
_atom_site_charge
Na	Na	0.22220 0.76205 0.38780 0.57000
Na	Na	0.27780 0.26205 0.11220 0.57000
Na	Na	0.77780 0.23795 0.61220 0.57000
Na	Na	0.72220 0.73795 0.88780 0.57000
Bi	Bi	0.69453 0.76993 0.36538 1.87500
Bi	Bi	0.80547 0.26993 0.13462 1.87400
Bi	Bi	0.30547 0.23007 0.63462 1.87500
Bi	Bi	0.19453 0.73007 0.86538 1.87400
H 	H 	0.13040 0.91090 0.30080 0.03700
H 	H 	0.57310 0.04700 0.27440 0.05700
H 	H 	0.36140 0.13620 0.22050 0.04600
H 	H 	0.91820 0.00100 0.24690 0.05700
H 	H 	0.16470 0.72560 0.63090 0.06300
H 	H 	0.71470 0.71560 0.71810 0.07200
H 	H 	0.81030 0.71340 0.61670 0.03900
H 	H 	0.26080 0.72890 0.53020 -0.00900
H 	H 	0.36960 0.41090 0.19920 0.03500
H 	H 	0.92690 0.54700 0.22560 0.05500
H 	H 	0.13860 0.63620 0.27950 0.04700
H 	H 	0.58180 0.50100 0.25310 0.06300
H 	H 	0.33530 0.22560 0.86910 0.06300
H 	H 	0.78530 0.21560 0.78190 0.07100
H 	H 	0.68970 0.21340 0.88330 0.03800
H 	H 	0.23920 0.22890 0.96980 -0.00900
H 	H 	0.86960 0.08910 0.69920 0.03700
H 	H 	0.42690 0.95300 0.72560 0.05700
H 	H 	0.63860 0.86380 0.77950 0.04600
H 	H 	0.08180 0.99900 0.75310 0.05700
H 	H 	0.83530 0.27440 0.36910 0.06300
H 	H 	0.28530 0.28440 0.28190 0.07200
H 	H 	0.18970 0.28660 0.38330 0.03900
H 	H 	0.73920 0.27110 0.46980 -0.00900
H 	H 	0.63040 0.58910 0.80080 0.03500
H 	H 	0.07310 0.45300 0.77440 0.05500
H 	H 	0.86140 0.36380 0.72050 0.04700
H 	H 	0.41820 0.49900 0.74690 0.06300
H 	H 	0.66470 0.77440 0.13090 0.06300
H 	H 	0.21470 0.78440 0.21810 0.07100
H 	H 	0.31030 0.78660 0.11670 0.03800
H 	H 	0.76080 0.77110 0.03020 -0.00900
C 	C 	0.50980 0.91080 0.32520 0.32500
C 	C 	0.37330 0.97050 0.29340 -0.07300
C 	C 	0.17620 0.95620 0.28480 -0.01500
C 	C 	0.44210 0.03780 0.26900 -0.02000
C 	C 	0.31570 0.09100 0.23660 -0.02600
C 	C 	0.04940 0.00980 0.25240 -0.02600
C 	C 	0.11980 0.07680 0.22820 -0.05600
C 	C 	0.98150 0.13440 0.19260 0.30600
C 	C 	0.36610 0.72260 0.75060 0.32200
C 	C 	0.42940 0.72150 0.68480 -0.04100
C 	C 	0.29450 0.72460 0.62810 -0.05800
C 	C 	0.62380 0.71780 0.68040 -0.04900
C 	C 	0.68100 0.71740 0.61970 0.00900
C 	C 	0.35180 0.72600 0.56780 0.01900
C 	C 	0.54590 0.72300 0.56300 -0.10100
C 	C 	0.61020 0.72750 0.49750 0.32400
C 	C 	0.99020 0.41080 0.17480 0.31800
C 	C 	0.12670 0.47050 0.20660 -0.07200
C 	C 	0.32380 0.45620 0.21520 -0.01000
C 	C 	0.05790 0.53780 0.23100 -0.01600
C 	C 	0.18430 0.59100 0.26340 -0.02700
C 	C 	0.45060 0.50980 0.24760 -0.03500
C 	C 	0.38020 0.57680 0.27180 -0.05700
C 	C 	0.51850 0.63440 0.30740 0.31500
C 	C 	0.13390 0.22260 0.74940 0.32100
C 	C 	0.07060 0.22150 0.81520 -0.04200
C 	C 	0.20550 0.22460 0.87190 -0.05700
C 	C 	0.87620 0.21780 0.81960 -0.04900
C 	C 	0.81900 0.21740 0.88030 0.00800
C 	C 	0.14820 0.22600 0.93220 0.01900
C 	C 	0.95410 0.22300 0.93700 -0.10000
C 	C 	0.88980 0.22750 0.00250 0.32200
C 	C 	0.49020 0.08920 0.67480 0.32500
C 	C 	0.62670 0.02950 0.70660 -0.07300
C 	C 	0.82380 0.04380 0.71520 -0.01500
C 	C 	0.55790 0.96220 0.73100 -0.02000
C 	C 	0.68430 0.90900 0.76340 -0.02600
C 	C 	0.95060 0.99020 0.74760 -0.02600
C 	C 	0.88020 0.92320 0.77180 -0.05600
C 	C 	0.01850 0.86560 0.80740 0.30600
C 	C 	0.63390 0.27740 0.24940 0.32200
C 	C 	0.57060 0.27850 0.31520 -0.04100
C 	C 	0.70550 0.27540 0.37190 -0.05800
C 	C 	0.37620 0.28220 0.31960 -0.04900
C 	C 	0.31900 0.28260 0.38030 0.00900
C 	C 	0.64820 0.27400 0.43220 0.01900
C 	C 	0.45410 0.27700 0.43700 -0.10100
C 	C 	0.38980 0.27250 0.50250 0.32400
C 	C 	0.00980 0.58920 0.82520 0.31800
C 	C 	0.87330 0.52950 0.79340 -0.07200
C 	C 	0.67620 0.54380 0.78480 -0.01000
C 	C 	0.94210 0.46220 0.76900 -0.01600
C 	C 	0.81570 0.40900 0.73660 -0.02700
C 	C 	0.54940 0.49020 0.75240 -0.03500
C 	C 	0.61980 0.42320 0.72820 -0.05700
C 	C 	0.48150 0.36560 0.69260 0.31500
C 	C 	0.86610 0.77740 0.25060 0.32100
C 	C 	0.92940 0.77850 0.18480 -0.04200
C 	C 	0.79450 0.77540 0.12810 -0.05700
C 	C 	0.12380 0.78220 0.18040 -0.04900
C 	C 	0.18100 0.78260 0.11970 0.00800
C 	C 	0.85180 0.77400 0.06780 0.01900
C 	C 	0.04590 0.77700 0.06300 -0.10000
C 	C 	0.11020 0.77250 0.99750 0.32200
O 	O 	0.43571 0.84573 0.33781 -0.50400
O 	O 	0.68456 0.92170 0.33826 -0.40600
O 	O 	0.80552 0.12571 0.18612 -0.38200
O 	O 	0.05696 0.19392 0.16886 -0.50500
O 	O 	0.18806 0.71903 0.75286 -0.43700
O 	O 	0.48989 0.72736 0.80099 -0.48900
O 	O 	0.51858 0.77384 0.45638 -0.51800
O 	O 	0.75008 0.68970 0.48628 -0.40300
O 	O 	0.06429 0.34573 0.16219 -0.50000
O 	O 	0.81544 0.42170 0.16174 -0.40500
O 	O 	0.69448 0.62571 0.31388 -0.38300
O 	O 	0.44304 0.69392 0.33114 -0.51100
O 	O 	0.31194 0.21903 0.74714 -0.43600
O 	O 	0.01011 0.22736 0.69901 -0.48900
O 	O 	0.98142 0.27384 0.04362 -0.52000
O 	O 	0.74992 0.18970 0.01372 -0.40400
O 	O 	0.56429 0.15427 0.66219 -0.50400
O 	O 	0.31544 0.07830 0.66174 -0.40600
O 	O 	0.19448 0.87429 0.81388 -0.38200
O 	O 	0.94304 0.80608 0.83114 -0.50500
O 	O 	0.81194 0.28097 0.24714 -0.43700
O 	O 	0.51011 0.27264 0.19901 -0.48900
O 	O 	0.48142 0.22616 0.54362 -0.51800
O 	O 	0.24992 0.31030 0.51372 -0.40300
O 	O 	0.93571 0.65427 0.83781 -0.50000
O 	O 	0.18456 0.57830 0.83826 -0.40500
O 	O 	0.30552 0.37429 0.68612 -0.38300
O 	O 	0.55696 0.30608 0.66886 -0.51100
O 	O 	0.68806 0.78097 0.25286 -0.43600
O 	O 	0.98989 0.77264 0.30099 -0.48900
O 	O 	0.01858 0.72616 0.95638 -0.52000
O 	O 	0.25008 0.81030 0.98628 -0.40400
