data_crystal

_cell_length_a 8.46030
_cell_length_b 16.84390
_cell_length_c 22.16050
_cell_angle_alpha 78.79500
_cell_angle_beta  89.89400
_cell_angle_gamma 82.17400

_symmetry_space_group_name_	'P 1'
_symmetry_space_group_name_H-M	'P 1'

loop_
_symmetry_equiv_pos_as_xyz
  x,y,z

loop_
_atom_site_label
_atom_site_type_symbol
_atom_site_fract_x
_atom_site_fract_y
_atom_site_fract_z
_atom_site_charge
U 	U 	0.96327 0.09226 0.25492 0.02000
U 	U 	0.46248 0.09602 0.24260 0.02000
U 	U 	0.26052 0.90929 0.23220 0.02400
U 	U 	0.76415 0.90134 0.26562 0.02500
O 	O 	0.10230 0.55890 0.08370 -0.23100
O 	O 	0.26600 0.46340 0.05160 -0.22600
O 	O 	0.10290 0.20780 0.25720 -0.19100
O 	O 	0.29190 0.22070 0.18950 -0.20200
O 	O 	0.14650 0.80800 0.18650 -0.20800
O 	O 	0.95160 0.78830 0.25110 -0.19400
O 	O 	0.68450 0.38650 0.15280 -0.20800
O 	O 	0.05640 0.51140 0.23520 -0.24300
O 	O 	0.61970 0.66260 0.13160 -0.20800
O 	O 	0.63410 0.44140 0.41690 -0.23500
O 	O 	0.74730 0.53600 0.44820 -0.22900
O 	O 	0.59800 0.21120 0.24510 -0.19600
O 	O 	0.80400 0.19020 0.30710 -0.21000
O 	O 	0.64750 0.77820 0.31080 -0.20100
O 	O 	0.45110 0.79140 0.24380 -0.19200
O 	O 	0.20650 0.33790 0.36690 -0.20900
O 	O 	0.56090 0.49470 0.26270 -0.24200
O 	O 	0.12430 0.61360 0.34750 -0.20900
O 	O 	0.72400 0.04050 0.26590 -0.21400
H 	H 	0.71920 0.03640 0.30430 0.22600
O 	O 	0.21700 0.05260 0.23590 -0.21600
H 	H 	0.20700 0.06850 0.19760 0.22900
O 	O 	0.98500 0.96130 0.22020 -0.21600
H 	H 	0.96560 0.97290 0.18210 0.22300
O 	O 	0.48770 0.94870 0.27730 -0.21600
H 	H 	0.47290 0.94080 0.31540 0.22300
N 	N 	0.64610 0.52550 0.14070 -0.18000
C 	C 	0.73370 0.44930 0.16260 0.27200
N 	N 	0.87610 0.44330 0.19540 -0.18800
C 	C 	0.93090 0.51340 0.20640 0.27600
N 	N 	0.84330 0.58960 0.18450 -0.18500
C 	C 	0.70090 0.59570 0.15170 0.27400
N 	N 	0.15950 0.47600 0.35860 -0.18100
C 	C 	0.25040 0.40540 0.34730 0.27300
N 	N 	0.38960 0.41070 0.31420 -0.18600
C 	C 	0.43790 0.48650 0.29240 0.27300
N 	N 	0.34690 0.55700 0.30370 -0.18800
C 	C 	0.20770 0.55180 0.33680 0.27500
C 	C 	0.23740 0.51720 0.08360 0.37400
C 	C 	0.36620 0.53250 0.12440 -0.35400
H 	H 	0.37920 0.48920 0.16200 0.16100
H 	H 	0.33590 0.58560 0.13700 0.16100
C 	C 	0.52130 0.53310 0.09100 0.09600
H 	H 	0.54050 0.48660 0.06940 0.04900
H 	H 	0.52100 0.58470 0.06070 0.04600
C 	C 	0.16630 0.24900 0.21240 0.36300
C 	C 	0.08400 0.33210 0.18200 -0.35000
H 	H 	0.16180 0.37130 0.17380 0.16200
H 	H 	0.03350 0.32910 0.14230 0.17300
C 	C 	0.95800 0.36020 0.22440 0.09500
H 	H 	0.87890 0.32130 0.23210 0.04600
H 	H 	0.00780 0.36220 0.26430 0.03400
C 	C 	0.03400 0.77120 0.20720 0.37500
C 	C 	0.99800 0.70250 0.17770 -0.35200
H 	H 	0.09630 0.66330 0.17720 0.16200
H 	H 	0.96000 0.72410 0.13470 0.17400
C 	C 	0.87200 0.65990 0.21350 0.09900
H 	H 	0.90840 0.63980 0.25690 0.03800
H 	H 	0.77230 0.69840 0.21270 0.04500
C 	C 	0.74570 0.48340 0.41550 0.38000
C 	C 	0.88330 0.46970 0.37480 -0.35800
H 	H 	0.87200 0.51330 0.33730 0.16100
H 	H 	0.88360 0.41660 0.36190 0.16100
C 	C 	0.03830 0.47000 0.40800 0.09900
H 	H 	0.03200 0.51730 0.42870 0.05000
H 	H 	0.06530 0.41910 0.43910 0.04500
C 	C 	0.67100 0.22830 0.28890 0.37400
C 	C 	0.60100 0.29500 0.32110 -0.35600
H 	H 	0.68000 0.33230 0.32420 0.16300
H 	H 	0.57010 0.27130 0.36320 0.17400
C 	C 	0.45600 0.34130 0.28440 0.09900
H 	H 	0.48590 0.36250 0.24170 0.03600
H 	H 	0.37470 0.30460 0.28310 0.04300
C 	C 	0.53600 0.75010 0.28850 0.36500
C 	C 	0.50100 0.66600 0.31810 -0.35200
H 	H 	0.60100 0.62700 0.32410 0.16100
H 	H 	0.45350 0.66730 0.35880 0.17400
C 	C 	0.38700 0.63970 0.27670 0.10000
H 	H 	0.28780 0.67950 0.27050 0.04500
H 	H 	0.43500 0.63890 0.23600 0.03400
U 	U 	0.03673 0.90774 0.74508 0.01900
U 	U 	0.53752 0.90398 0.75740 0.01900
U 	U 	0.73948 0.09071 0.76780 0.02300
U 	U 	0.23585 0.09866 0.73438 0.02400
O 	O 	0.89770 0.44110 0.91630 -0.23300
O 	O 	0.73400 0.53660 0.94840 -0.22800
O 	O 	0.89710 0.79220 0.74280 -0.19300
O 	O 	0.70810 0.77930 0.81050 -0.20400
O 	O 	0.85350 0.19200 0.81350 -0.20900
O 	O 	0.04840 0.21170 0.74890 -0.19300
O 	O 	0.31550 0.61350 0.84720 -0.20800
O 	O 	0.94360 0.48860 0.76480 -0.24400
O 	O 	0.38030 0.33740 0.86840 -0.20900
O 	O 	0.36590 0.55860 0.58310 -0.23500
O 	O 	0.25270 0.46400 0.55180 -0.22900
O 	O 	0.40200 0.78880 0.75490 -0.19600
O 	O 	0.19600 0.80980 0.69290 -0.21000
O 	O 	0.35250 0.22180 0.68920 -0.20100
O 	O 	0.54890 0.20860 0.75620 -0.19200
O 	O 	0.79350 0.66210 0.63310 -0.20900
O 	O 	0.43910 0.50530 0.73730 -0.24200
O 	O 	0.87570 0.38640 0.65250 -0.20900
O 	O 	0.27600 0.95950 0.73410 -0.21400
H 	H 	0.28080 0.96360 0.69570 0.22600
O 	O 	0.78300 0.94740 0.76410 -0.21700
H 	H 	0.79300 0.93150 0.80240 0.22900
O 	O 	0.01500 0.03870 0.77980 -0.21600
H 	H 	0.03440 0.02710 0.81790 0.22300
O 	O 	0.51230 0.05130 0.72270 -0.21600
H 	H 	0.52710 0.05920 0.68460 0.22300
N 	N 	0.35390 0.47450 0.85930 -0.18000
C 	C 	0.26630 0.55070 0.83740 0.27200
N 	N 	0.12390 0.55670 0.80460 -0.18900
C 	C 	0.06910 0.48660 0.79360 0.27700
N 	N 	0.15670 0.41040 0.81550 -0.18500
C 	C 	0.29910 0.40430 0.84830 0.27400
N 	N 	0.84050 0.52400 0.64140 -0.18100
C 	C 	0.74960 0.59460 0.65270 0.27300
N 	N 	0.61040 0.58930 0.68580 -0.18600
C 	C 	0.56210 0.51350 0.70760 0.27300
N 	N 	0.65310 0.44300 0.69630 -0.18800
C 	C 	0.79230 0.44820 0.66320 0.27500
C 	C 	0.76260 0.48280 0.91640 0.37400
C 	C 	0.63380 0.46750 0.87560 -0.35400
H 	H 	0.62080 0.51080 0.83800 0.16100
H 	H 	0.66410 0.41440 0.86300 0.16100
C 	C 	0.47870 0.46690 0.90900 0.09600
H 	H 	0.45950 0.51340 0.93060 0.04900
H 	H 	0.47900 0.41530 0.93930 0.04500
C 	C 	0.83370 0.75100 0.78760 0.36400
C 	C 	0.91600 0.66790 0.81800 -0.35100
H 	H 	0.83820 0.62870 0.82620 0.16200
H 	H 	0.96650 0.67090 0.85770 0.17300
C 	C 	0.04200 0.63980 0.77560 0.09700
H 	H 	0.12110 0.67870 0.76790 0.04500
H 	H 	0.99220 0.63780 0.73570 0.03300
C 	C 	0.96600 0.22880 0.79280 0.37300
C 	C 	0.00200 0.29750 0.82230 -0.35000
H 	H 	0.90370 0.33670 0.82280 0.16100
H 	H 	0.04000 0.27590 0.86530 0.17300
C 	C 	0.12800 0.34010 0.78650 0.09800
H 	H 	0.09160 0.36020 0.74310 0.03800
H 	H 	0.22770 0.30160 0.78730 0.04500
C 	C 	0.25430 0.51660 0.58450 0.38000
C 	C 	0.11670 0.53030 0.62520 -0.35700
H 	H 	0.12800 0.48670 0.66270 0.16100
H 	H 	0.11640 0.58340 0.63810 0.16100
C 	C 	0.96170 0.53000 0.59200 0.09800
H 	H 	0.96800 0.48270 0.57130 0.05000
H 	H 	0.93470 0.58090 0.56090 0.04500
C 	C 	0.32900 0.77170 0.71110 0.37400
C 	C 	0.39900 0.70500 0.67890 -0.35600
H 	H 	0.32000 0.66770 0.67580 0.16300
H 	H 	0.42990 0.72870 0.63680 0.17400
C 	C 	0.54400 0.65870 0.71560 0.09900
H 	H 	0.51410 0.63750 0.75830 0.03600
H 	H 	0.62530 0.69540 0.71690 0.04300
C 	C 	0.46400 0.24990 0.71150 0.36500
C 	C 	0.49900 0.33400 0.68190 -0.35200
H 	H 	0.39900 0.37300 0.67590 0.16100
H 	H 	0.54650 0.33270 0.64120 0.17400
C 	C 	0.61300 0.36030 0.72330 0.10000
H 	H 	0.71220 0.32050 0.72950 0.04500
H 	H 	0.56500 0.36110 0.76400 0.03400
U 	U 	-0.00000 0.50000 -0.00000 -0.01500
U 	U 	0.50000 0.50000 0.50000 -0.01400
