data_crystal

_cell_length_a 22.12110
_cell_length_b 17.55360
_cell_length_c 7.04800
_cell_angle_alpha 90.00000
_cell_angle_beta  97.06000
_cell_angle_gamma 90.00000

_symmetry_space_group_name_	'P 1'
_symmetry_space_group_name_H-M	'P 1'

loop_
_symmetry_equiv_pos_as_xyz
  x,y,z

loop_
_atom_site_label
_atom_site_type_symbol
_atom_site_fract_x
_atom_site_fract_y
_atom_site_fract_z
_atom_site_charge
H 	H 	0.13600 0.96190 0.38570 0.49100
O 	O 	0.16783 0.91270 0.80810 -0.40700
O 	O 	0.25393 0.91715 0.67250 -0.38400
O 	O 	0.24003 0.91656 0.25860 -0.37700
O 	O 	0.14284 0.88114 0.24310 -0.55700
H 	H 	0.12260 0.84000 0.22820 0.27200
C 	C 	0.24870 0.82800 0.92070 -0.11000
H 	H 	0.28870 0.84640 0.98610 0.09200
C 	C 	0.20876 0.80600 0.07420 -0.14200
H 	H 	0.16890 0.78680 0.00980 0.08700
C 	C 	0.26070 0.75770 0.79900 -0.04000
H 	H 	0.28740 0.77240 0.70210 0.04600
H 	H 	0.22170 0.73900 0.73110 0.05800
C 	C 	0.22078 0.89150 0.78960 0.38800
C 	C 	0.19660 0.87350 0.20110 0.42400
N 	N 	0.04692 0.07676 0.59040 -0.21600
C 	C 	0.04740 0.15390 0.58980 -0.00200
H 	H 	0.08160 0.18010 0.65350 0.11400
C 	C 	0.36930 0.06450 0.48060 0.06400
H 	H 	0.34750 0.11120 0.47670 0.02100
C 	C 	0.43280 0.06700 0.49140 -0.10300
H 	H 	0.45320 0.11480 0.49530 0.07400
O 	O 	0.08820 0.75670 0.68600 -0.21400
H 	H 	0.63600 0.46190 0.38570 0.41200
O 	O 	0.66783 0.41270 0.80810 -0.43400
O 	O 	0.75393 0.41715 0.67250 -0.41300
O 	O 	0.74003 0.41656 0.25860 -0.40400
O 	O 	0.64284 0.38114 0.24310 -0.56200
H 	H 	0.62260 0.34000 0.22820 0.27200
C 	C 	0.74870 0.32800 0.92070 -0.11200
H 	H 	0.78870 0.34640 0.98610 0.08800
C 	C 	0.70876 0.30600 0.07420 -0.14400
H 	H 	0.66890 0.28680 0.00980 0.08600
C 	C 	0.76070 0.25770 0.79900 -0.03800
H 	H 	0.78740 0.27240 0.70210 0.04400
H 	H 	0.72170 0.23900 0.73110 0.05700
C 	C 	0.72078 0.39150 0.78960 0.39100
C 	C 	0.69660 0.37350 0.20110 0.42500
N 	N 	0.54692 0.57676 0.59040 -0.21900
C 	C 	0.54740 0.65390 0.58980 0.00300
H 	H 	0.58160 0.68010 0.65350 0.11200
C 	C 	0.86930 0.56450 0.48060 0.08500
H 	H 	0.84750 0.61120 0.47670 0.01700
C 	C 	0.93280 0.56700 0.49140 -0.12000
H 	H 	0.95320 0.61480 0.49530 0.08300
O 	O 	0.58820 0.25670 0.68600 -0.21600
H 	H 	0.86400 0.96190 0.61430 0.49100
O 	O 	0.83217 0.91270 0.19190 -0.40700
O 	O 	0.74607 0.91715 0.32750 -0.38500
O 	O 	0.75997 0.91656 0.74140 -0.37800
O 	O 	0.85716 0.88114 0.75690 -0.55700
H 	H 	0.87740 0.84000 0.77180 0.27300
C 	C 	0.75130 0.82800 0.07930 -0.11000
H 	H 	0.71130 0.84640 0.01390 0.09200
C 	C 	0.79124 0.80600 0.92580 -0.14300
H 	H 	0.83110 0.78680 0.99020 0.08700
C 	C 	0.73930 0.75770 0.20100 -0.04000
H 	H 	0.71260 0.77240 0.29790 0.04600
H 	H 	0.77830 0.73900 0.26890 0.05800
C 	C 	0.77922 0.89150 0.21040 0.38800
C 	C 	0.80340 0.87350 0.79890 0.42400
N 	N 	0.95308 0.07676 0.40960 -0.21400
C 	C 	0.95260 0.15390 0.41020 0.00400
H 	H 	0.91840 0.18010 0.34650 0.11200
C 	C 	0.63070 0.06450 0.51940 0.06400
H 	H 	0.65250 0.11120 0.52330 0.02100
C 	C 	0.56720 0.06700 0.50860 -0.10300
H 	H 	0.54680 0.11480 0.50470 0.07400
O 	O 	0.91180 0.75670 0.31400 -0.21100
H 	H 	0.36400 0.46190 0.61430 0.41200
O 	O 	0.33217 0.41270 0.19190 -0.43400
O 	O 	0.24607 0.41715 0.32750 -0.41300
O 	O 	0.25997 0.41656 0.74140 -0.40400
O 	O 	0.35716 0.38114 0.75690 -0.56200
H 	H 	0.37740 0.34000 0.77180 0.27200
C 	C 	0.25130 0.32800 0.07930 -0.11200
H 	H 	0.21130 0.34640 0.01390 0.08800
C 	C 	0.29124 0.30600 0.92580 -0.14400
H 	H 	0.33110 0.28680 0.99020 0.08600
C 	C 	0.23930 0.25770 0.20100 -0.03800
H 	H 	0.21260 0.27240 0.29790 0.04400
H 	H 	0.27830 0.23900 0.26890 0.05700
C 	C 	0.27922 0.39150 0.21040 0.39100
C 	C 	0.30340 0.37350 0.79890 0.42500
N 	N 	0.45308 0.57676 0.40960 -0.21900
C 	C 	0.45260 0.65390 0.41020 0.00300
H 	H 	0.41840 0.68010 0.34650 0.11200
C 	C 	0.13070 0.56450 0.51940 0.08000
H 	H 	0.15250 0.61120 0.52330 0.01800
C 	C 	0.06720 0.56700 0.50860 -0.11200
H 	H 	0.04680 0.61480 0.50470 0.07800
O 	O 	0.41180 0.25670 0.31400 -0.21600
H 	H 	0.86400 0.03810 0.61430 0.43800
O 	O 	0.83217 0.08730 0.19190 -0.44200
O 	O 	0.74607 0.08285 0.32750 -0.42100
O 	O 	0.75997 0.08344 0.74140 -0.41500
O 	O 	0.85716 0.11886 0.75690 -0.57400
H 	H 	0.87740 0.16000 0.77180 0.27500
C 	C 	0.75130 0.17200 0.07930 -0.11000
H 	H 	0.71130 0.15360 0.01390 0.08300
C 	C 	0.79124 0.19400 0.92580 -0.14800
H 	H 	0.83110 0.21320 0.99020 0.08800
C 	C 	0.73930 0.24230 0.20100 -0.04100
H 	H 	0.71260 0.22760 0.29790 0.04500
H 	H 	0.77830 0.26100 0.26890 0.05800
C 	C 	0.77922 0.10850 0.21040 0.38800
C 	C 	0.80340 0.12650 0.79890 0.42800
N 	N 	0.95308 0.92324 0.40960 -0.21500
C 	C 	0.95260 0.84610 0.41020 0.01500
H 	H 	0.91840 0.81990 0.34650 0.11100
C 	C 	0.63070 0.93550 0.51940 0.12600
H 	H 	0.65250 0.88880 0.52330 0.00900
C 	C 	0.56720 0.93300 0.50860 -0.04600
H 	H 	0.54680 0.88520 0.50470 0.06700
O 	O 	0.91180 0.24330 0.31400 -0.21300
H 	H 	0.36400 0.53810 0.61430 0.41200
O 	O 	0.33217 0.58730 0.19190 -0.43300
O 	O 	0.24607 0.58285 0.32750 -0.41300
O 	O 	0.25997 0.58344 0.74140 -0.40400
O 	O 	0.35716 0.61886 0.75690 -0.56300
H 	H 	0.37740 0.66000 0.77180 0.27300
C 	C 	0.25130 0.67200 0.07930 -0.11100
H 	H 	0.21130 0.65360 0.01390 0.08700
C 	C 	0.29124 0.69400 0.92580 -0.14500
H 	H 	0.33110 0.71320 0.99020 0.08800
C 	C 	0.23930 0.74230 0.20100 -0.04100
H 	H 	0.21260 0.72760 0.29790 0.04500
H 	H 	0.27830 0.76100 0.26890 0.05900
C 	C 	0.27922 0.60850 0.21040 0.39100
C 	C 	0.30340 0.62650 0.79890 0.42600
N 	N 	0.45308 0.42324 0.40960 -0.21900
C 	C 	0.45260 0.34610 0.41020 0.00000
H 	H 	0.41840 0.31990 0.34650 0.11400
C 	C 	0.13070 0.43550 0.51940 0.08000
H 	H 	0.15250 0.38880 0.52330 0.01800
C 	C 	0.06720 0.43300 0.50860 -0.11200
H 	H 	0.04680 0.38520 0.50470 0.07800
O 	O 	0.41180 0.74330 0.31400 -0.21100
H 	H 	0.13600 0.03810 0.38570 0.43700
O 	O 	0.16783 0.08730 0.80810 -0.44200
O 	O 	0.25393 0.08285 0.67250 -0.42100
O 	O 	0.24003 0.08344 0.25860 -0.41500
O 	O 	0.14284 0.11886 0.24310 -0.57500
H 	H 	0.12260 0.16000 0.22820 0.27400
C 	C 	0.24870 0.17200 0.92070 -0.11000
H 	H 	0.28870 0.15360 0.98610 0.08300
C 	C 	0.20876 0.19400 0.07420 -0.14800
H 	H 	0.16890 0.21320 0.00980 0.08700
C 	C 	0.26070 0.24230 0.79900 -0.04100
H 	H 	0.28740 0.22760 0.70210 0.04500
H 	H 	0.22170 0.26100 0.73110 0.05800
C 	C 	0.22078 0.10850 0.78960 0.38800
C 	C 	0.19660 0.12650 0.20110 0.42800
N 	N 	0.04692 0.92324 0.59040 -0.21700
C 	C 	0.04740 0.84610 0.58980 0.00900
H 	H 	0.08160 0.81990 0.65350 0.11200
C 	C 	0.36930 0.93550 0.48060 0.12600
H 	H 	0.34750 0.88880 0.47670 0.00900
C 	C 	0.43280 0.93300 0.49140 -0.04600
H 	H 	0.45320 0.88520 0.49530 0.06700
O 	O 	0.08820 0.24330 0.68600 -0.21500
H 	H 	0.63600 0.53810 0.38570 0.41200
O 	O 	0.66783 0.58730 0.80810 -0.43300
O 	O 	0.75393 0.58285 0.67250 -0.41300
O 	O 	0.74003 0.58344 0.25860 -0.40400
O 	O 	0.64284 0.61886 0.24310 -0.56300
H 	H 	0.62260 0.66000 0.22820 0.27300
C 	C 	0.74870 0.67200 0.92070 -0.11100
H 	H 	0.78870 0.65360 0.98610 0.08700
C 	C 	0.70876 0.69400 0.07420 -0.14500
H 	H 	0.66890 0.71320 0.00980 0.08800
C 	C 	0.76070 0.74230 0.79900 -0.04100
H 	H 	0.78740 0.72760 0.70210 0.04600
H 	H 	0.72170 0.76100 0.73110 0.05900
C 	C 	0.72078 0.60850 0.78960 0.39100
C 	C 	0.69660 0.62650 0.20110 0.42600
N 	N 	0.54692 0.42324 0.59040 -0.21900
C 	C 	0.54740 0.34610 0.58980 0.00000
H 	H 	0.58160 0.31990 0.65350 0.11400
C 	C 	0.86930 0.43550 0.48060 0.08500
H 	H 	0.84750 0.38880 0.47670 0.01600
C 	C 	0.93280 0.43300 0.49140 -0.12000
H 	H 	0.95320 0.38520 0.49530 0.08300
O 	O 	0.58820 0.74330 0.68600 -0.21100
Ni	Ni	0.24423 -0.00000 0.46905 1.13000
Ni	Ni	0.11447 0.00000 0.70499 1.08000
O 	O 	0.14990 -0.00000 0.45170 -1.10700
N 	N 	0.33820 0.00000 0.47560 -0.24700
C 	C 	0.46630 -0.00000 0.49660 -0.00600
Ni	Ni	0.74423 0.50000 0.46905 1.14800
Ni	Ni	0.61447 0.50000 0.70499 1.10100
O 	O 	0.64990 0.50000 0.45170 -0.99700
N 	N 	0.83820 0.50000 0.47560 -0.21200
C 	C 	0.96630 0.50000 0.49660 0.06400
Ni	Ni	0.75577 -0.00000 0.53095 1.13000
Ni	Ni	0.88553 0.00000 0.29501 1.08000
O 	O 	0.85010 -0.00000 0.54830 -1.10800
N 	N 	0.66180 -0.00000 0.52440 -0.24700
C 	C 	0.53370 -0.00000 0.50340 -0.00600
Ni	Ni	0.25577 0.50000 0.53095 1.14800
Ni	Ni	0.38553 0.50000 0.29501 1.10100
O 	O 	0.35010 0.50000 0.54830 -0.99600
N 	N 	0.16180 0.50000 0.52440 -0.21000
C 	C 	0.03370 0.50000 0.50340 0.04700
C 	C 	0.00000 0.04330 0.50000 -0.01400
C 	C 	0.00000 0.19440 0.50000 -0.05300
H 	H 	0.00000 0.24850 0.50000 0.07300
C 	C 	0.50000 0.54330 0.50000 0.05000
C 	C 	0.50000 0.69440 0.50000 -0.05100
H 	H 	0.50000 0.74850 0.50000 0.07700
C 	C 	0.00000 0.95670 0.50000 0.10800
C 	C 	0.00000 0.80560 0.50000 -0.06200
H 	H 	0.00000 0.75150 0.50000 0.07700
C 	C 	0.50000 0.45670 0.50000 0.04900
C 	C 	0.50000 0.30560 0.50000 -0.04800
H 	H 	0.50000 0.25150 0.50000 0.07300
