data_crystal

_cell_length_a 14.01690
_cell_length_b 13.50450
_cell_length_c 12.50500
_cell_angle_alpha 90.00000
_cell_angle_beta  116.31800
_cell_angle_gamma 90.00000

_symmetry_space_group_name_	'P 1'
_symmetry_space_group_name_H-M	'P 1'

loop_
_symmetry_equiv_pos_as_xyz
  x,y,z

loop_
_atom_site_label
_atom_site_type_symbol
_atom_site_fract_x
_atom_site_fract_y
_atom_site_fract_z
_atom_site_charge
Cd	Cd	0.20762 0.15096 0.55687 1.21300
N 	N 	0.31110 0.26190 0.70830 -0.22300
C 	C 	0.06580 0.34810 0.43720 0.04200
H 	H 	0.02730 0.32240 0.47520 0.01300
N 	N 	0.14510 0.29430 0.43610 -0.21900
C 	C 	0.54370 0.43550 0.78420 0.17200
H 	H 	0.57740 0.38770 0.75270 -0.01900
C 	C 	0.94350 0.49180 0.39040 0.18800
H 	H 	0.88600 0.44310 0.36810 -0.02100
C 	C 	0.39720 0.30830 0.71060 0.05200
H 	H 	0.42390 0.28760 0.65830 0.00000
C 	C 	0.03840 0.44080 0.38420 -0.07200
C 	C 	0.97250 0.52570 0.51660 -0.51200
H 	H 	0.03140 0.57190 0.54130 0.19800
H 	H 	0.99640 0.46890 0.56950 0.17600
C 	C 	0.40800 0.41380 0.86630 0.03100
H 	H 	0.43870 0.46670 0.91790 0.03500
C 	C 	0.19680 0.32870 0.37620 0.05000
H 	H 	0.24900 0.28950 0.37060 0.00600
C 	C 	0.09460 0.47700 0.32610 0.02300
H 	H 	0.07830 0.53890 0.28980 0.01300
C 	C 	0.27700 0.28860 0.78820 0.06600
H 	H 	0.21960 0.25510 0.78940 0.00400
C 	C 	0.44710 0.38560 0.78770 -0.09800
N 	N 	0.90400 0.57520 0.30360 -0.39400
H 	H 	0.84880 0.60390 0.30840 0.17600
H 	H 	0.88370 0.55210 0.23010 0.16700
H 	H 	0.95570 0.61940 0.32050 0.13900
C 	C 	0.50850 0.52580 0.70000 -0.43100
H 	H 	0.45140 0.50570 0.62420 0.16000
H 	H 	0.48030 0.57580 0.73400 0.17000
C 	C 	0.17510 0.42090 0.32210 -0.11800
H 	H 	0.21420 0.44460 0.28380 0.05600
C 	C 	0.88090 0.57490 0.52960 0.44700
O 	O 	0.83360 0.64330 0.45960 -0.41300
C 	C 	0.59650 0.57190 0.67740 0.41000
O 	O 	0.57150 0.65020 0.61480 -0.42400
O 	O 	0.68410 0.53130 0.71240 -0.37200
O 	O 	0.85800 0.54920 0.61110 -0.45100
N 	N 	0.62180 0.46390 0.90460 -0.31900
H 	H 	0.60940 0.45170 0.96480 0.05900
H 	H 	0.67990 0.49280 0.91510 0.15200
C 	C 	0.32330 0.36360 0.86840 -0.11300
H 	H 	0.29800 0.38030 0.92330 0.09000
Cd	Cd	0.70762 0.65096 0.55687 1.21400
N 	N 	0.81110 0.76190 0.70830 -0.22600
C 	C 	0.56580 0.84810 0.43720 0.05600
H 	H 	0.52730 0.82240 0.47520 0.00100
N 	N 	0.64510 0.79430 0.43610 -0.22500
C 	C 	0.04370 0.93550 0.78420 0.16900
H 	H 	0.07740 0.88770 0.75270 -0.01300
C 	C 	0.44350 0.99180 0.39040 0.21700
H 	H 	0.38600 0.94310 0.36810 -0.02600
C 	C 	0.89720 0.80830 0.71060 0.05800
H 	H 	0.92390 0.78760 0.65830 -0.00700
C 	C 	0.53840 0.94080 0.38420 -0.10900
C 	C 	0.47250 0.02570 0.51660 -0.49600
H 	H 	0.53140 0.07190 0.54130 0.17700
H 	H 	0.49640 0.96890 0.56950 0.18300
C 	C 	0.90800 0.91380 0.86630 0.03900
H 	H 	0.93870 0.96670 0.91790 0.02700
C 	C 	0.69680 0.82870 0.37620 0.06000
H 	H 	0.74900 0.78950 0.37060 0.00100
C 	C 	0.59460 0.97700 0.32610 0.05500
H 	H 	0.57830 0.03890 0.28980 -0.00700
C 	C 	0.77700 0.78860 0.78820 0.06900
H 	H 	0.71960 0.75510 0.78940 0.00100
C 	C 	0.94710 0.88560 0.78770 -0.11700
N 	N 	0.40400 0.07520 0.30360 -0.40100
H 	H 	0.34880 0.10390 0.30840 0.17700
H 	H 	0.38370 0.05210 0.23010 0.16900
H 	H 	0.45570 0.11940 0.32050 0.14700
C 	C 	0.00850 0.02580 0.70000 -0.33700
H 	H 	0.95140 0.00570 0.62420 0.11800
H 	H 	0.98030 0.07580 0.73400 0.12700
C 	C 	0.67510 0.92090 0.32210 -0.14000
H 	H 	0.71420 0.94460 0.28380 0.06500
C 	C 	0.38090 0.07490 0.52960 0.44500
O 	O 	0.33360 0.14330 0.45960 -0.41100
C 	C 	0.09650 0.07190 0.67740 0.38500
O 	O 	0.07150 0.15020 0.61480 -0.40900
O 	O 	0.18410 0.03130 0.71240 -0.36500
O 	O 	0.35800 0.04920 0.61110 -0.44800
N 	N 	0.12180 0.96390 0.90460 -0.31700
H 	H 	0.10940 0.95170 0.96480 0.06300
H 	H 	0.17990 0.99280 0.91510 0.15300
C 	C 	0.82330 0.86360 0.86840 -0.12300
H 	H 	0.79800 0.88030 0.92330 0.09100
Cd	Cd	0.20762 0.84904 0.05687 1.18300
N 	N 	0.31110 0.73810 0.20830 -0.23400
C 	C 	0.06580 0.65190 0.93720 0.06200
H 	H 	0.02730 0.67760 0.97520 0.03600
N 	N 	0.14510 0.70570 0.93610 -0.20300
C 	C 	0.54370 0.56450 0.28420 0.15400
H 	H 	0.57740 0.61230 0.25270 -0.02300
C 	C 	0.94350 0.50820 0.89040 0.27200
H 	H 	0.88600 0.55690 0.86810 -0.03000
C 	C 	0.39720 0.69170 0.21060 0.04500
H 	H 	0.42390 0.71240 0.15830 -0.01600
C 	C 	0.03840 0.55920 0.88420 -0.07900
C 	C 	0.97250 0.47430 0.01660 -0.58100
H 	H 	0.03140 0.42810 0.04130 0.18600
H 	H 	0.99640 0.53110 0.06950 0.17400
C 	C 	0.40800 0.58620 0.36630 0.02200
H 	H 	0.43870 0.53330 0.41790 0.01400
C 	C 	0.19680 0.67130 0.87620 0.07000
H 	H 	0.24900 0.71050 0.87060 0.01300
C 	C 	0.09460 0.52300 0.82610 0.04300
H 	H 	0.07830 0.46110 0.78980 0.01500
C 	C 	0.27700 0.71140 0.28820 0.05500
H 	H 	0.21960 0.74490 0.28940 -0.00500
C 	C 	0.44710 0.61440 0.28770 -0.10300
N 	N 	0.90400 0.42480 0.80360 -0.41500
H 	H 	0.84880 0.39610 0.80840 0.19300
H 	H 	0.88370 0.44790 0.73010 0.18000
H 	H 	0.95570 0.38060 0.82050 0.16000
C 	C 	0.50850 0.47420 0.20000 -0.41200
H 	H 	0.45140 0.49430 0.12420 0.12600
H 	H 	0.48030 0.42420 0.23400 0.15100
C 	C 	0.17510 0.57910 0.82210 -0.12100
H 	H 	0.21420 0.55540 0.78380 0.07000
C 	C 	0.88090 0.42510 0.02960 0.33500
O 	O 	0.83360 0.35670 0.95960 -0.31200
C 	C 	0.59650 0.42810 0.17740 0.39600
O 	O 	0.57150 0.34980 0.11480 -0.46500
O 	O 	0.68410 0.46870 0.21240 -0.38800
O 	O 	0.85800 0.45080 0.11110 -0.44300
N 	N 	0.62180 0.53610 0.40460 -0.30300
H 	H 	0.60940 0.54830 0.46480 0.01800
H 	H 	0.67990 0.50720 0.41510 0.12300
C 	C 	0.32330 0.63640 0.36840 -0.12100
H 	H 	0.29800 0.61970 0.42330 0.06700
Cd	Cd	0.70762 0.34904 0.05687 1.18200
N 	N 	0.81110 0.23810 0.20830 -0.23700
C 	C 	0.56580 0.15190 0.93720 0.06700
H 	H 	0.52730 0.17760 0.97520 0.02800
N 	N 	0.64510 0.20570 0.93610 -0.20500
C 	C 	0.04370 0.06450 0.28420 0.14600
H 	H 	0.07740 0.11230 0.25270 -0.01700
C 	C 	0.44350 0.00820 0.89040 0.27600
H 	H 	0.38600 0.05690 0.86810 -0.02900
C 	C 	0.89720 0.19170 0.21060 0.04800
H 	H 	0.92390 0.21240 0.15830 -0.02300
C 	C 	0.53840 0.05920 0.88420 -0.10000
C 	C 	0.47250 0.97430 0.01660 -0.53100
H 	H 	0.53140 0.92810 0.04130 0.16000
H 	H 	0.49640 0.03110 0.06950 0.16400
C 	C 	0.90800 0.08620 0.36630 0.02800
H 	H 	0.93870 0.03330 0.41790 0.00600
C 	C 	0.69680 0.17130 0.87620 0.06900
H 	H 	0.74900 0.21050 0.87060 0.01100
C 	C 	0.59460 0.02300 0.82610 0.04300
H 	H 	0.57830 0.96110 0.78980 0.01100
C 	C 	0.77700 0.21140 0.28820 0.05700
H 	H 	0.71960 0.24490 0.28940 -0.00800
C 	C 	0.94710 0.11440 0.28770 -0.12000
N 	N 	0.40400 0.92480 0.80360 -0.41800
H 	H 	0.34880 0.89610 0.80840 0.19400
H 	H 	0.38370 0.94790 0.73010 0.18500
H 	H 	0.45570 0.88060 0.82050 0.16900
C 	C 	0.00850 0.97420 0.20000 -0.31800
H 	H 	0.95140 0.99430 0.12420 0.09000
H 	H 	0.98030 0.92420 0.23400 0.11200
C 	C 	0.67510 0.07910 0.82210 -0.12500
H 	H 	0.71420 0.05540 0.78380 0.06800
C 	C 	0.38090 0.92510 0.02960 0.32200
O 	O 	0.33360 0.85670 0.95960 -0.30500
C 	C 	0.09650 0.92810 0.17740 0.37200
O 	O 	0.07150 0.84980 0.11480 -0.45000
O 	O 	0.18410 0.96870 0.21240 -0.37800
O 	O 	0.35800 0.95080 0.11110 -0.43400
N 	N 	0.12180 0.03610 0.40460 -0.30000
H 	H 	0.10940 0.04830 0.46480 0.02200
H 	H 	0.17990 0.00720 0.41510 0.12100
C 	C 	0.82330 0.13640 0.36840 -0.12900
H 	H 	0.79800 0.11970 0.42330 0.06800
