data_crystal

_cell_length_a 7.14970
_cell_length_b 9.52840
_cell_length_c 16.02110
_cell_angle_alpha 90.00000
_cell_angle_beta  90.00000
_cell_angle_gamma 90.00000

_symmetry_space_group_name_	'P 1'
_symmetry_space_group_name_H-M	'P 1'

loop_
_symmetry_equiv_pos_as_xyz
  x,y,z

loop_
_atom_site_label
_atom_site_type_symbol
_atom_site_fract_x
_atom_site_fract_y
_atom_site_fract_z
_atom_site_charge
Zn	Zn	0.23368 0.43528 0.96239 1.22800
C 	C 	0.17110 0.51370 0.78800 0.04400
H 	H 	0.29500 0.48520 0.78320 0.00200
C 	C 	0.08330 0.56960 0.71930 -0.09300
N 	N 	0.08490 0.49860 0.86170 -0.26500
C 	C 	0.90060 0.53510 0.86770 0.05600
H 	H 	0.83790 0.52240 0.91800 -0.02400
C 	C 	0.89950 0.60940 0.72670 0.02500
H 	H 	0.83780 0.64950 0.68150 0.01600
C 	C 	0.80680 0.59020 0.80060 -0.12100
H 	H 	0.68120 0.61430 0.80530 0.06000
C 	C 	0.18910 0.60190 0.64150 0.16300
N 	N 	0.17010 0.50210 0.57550 -0.20600
H 	H 	0.24970 0.50080 0.53530 -0.20600
H 	H 	0.07890 0.44320 0.57610 0.07500
C 	C 	0.33100 0.69830 0.64410 -0.40500
H 	H 	0.35830 0.73210 0.69720 0.17600
C 	C 	0.44560 0.75590 0.57880 0.51700
O 	O 	0.42650 0.72150 0.50540 -0.52800
O 	O 	0.56740 0.84410 0.60290 -0.51500
Zn	Zn	0.26632 0.56472 0.46239 1.22700
C 	C 	0.32890 0.48630 0.28800 0.04200
H 	H 	0.20500 0.51480 0.28320 0.00200
C 	C 	0.41670 0.43040 0.21930 -0.09100
N 	N 	0.41510 0.50140 0.36170 -0.26300
C 	C 	0.59940 0.46490 0.36770 0.05300
H 	H 	0.66210 0.47760 0.41800 -0.02300
C 	C 	0.60050 0.39060 0.22670 0.02300
H 	H 	0.66220 0.35050 0.18150 0.01700
C 	C 	0.69320 0.40980 0.30060 -0.11900
H 	H 	0.81880 0.38570 0.30530 0.05900
C 	C 	0.31090 0.39810 0.14150 0.16200
N 	N 	0.32990 0.49790 0.07550 -0.20600
H 	H 	0.25030 0.49920 0.03530 -0.20500
H 	H 	0.42110 0.55680 0.07610 0.07600
C 	C 	0.16900 0.30170 0.14410 -0.40500
H 	H 	0.14170 0.26790 0.19720 0.17600
C 	C 	0.05440 0.24410 0.07880 0.51800
O 	O 	0.07350 0.27850 0.00540 -0.52800
O 	O 	0.93260 0.15590 0.10290 -0.51600
Zn	Zn	0.76632 0.93528 0.53761 1.22700
C 	C 	0.82890 0.01370 0.71200 0.04600
H 	H 	0.70500 0.98520 0.71680 -0.00100
C 	C 	0.91670 0.06960 0.78070 -0.08900
N 	N 	0.91510 0.99860 0.63830 -0.26500
C 	C 	0.09940 0.03510 0.63230 0.05200
H 	H 	0.16210 0.02240 0.58200 -0.02200
C 	C 	0.10050 0.10940 0.77330 0.01900
H 	H 	0.16220 0.14950 0.81850 0.01800
C 	C 	0.19320 0.09020 0.69940 -0.11700
H 	H 	0.31880 0.11430 0.69470 0.05900
C 	C 	0.81090 0.10190 0.85850 0.16200
N 	N 	0.82990 0.00210 0.92450 -0.20300
H 	H 	0.75030 0.00080 0.96470 -0.20500
H 	H 	0.92110 0.94320 0.92390 0.07300
C 	C 	0.66900 0.19830 0.85590 -0.40400
H 	H 	0.64170 0.23210 0.80280 0.17600
C 	C 	0.55440 0.25590 0.92120 0.51700
O 	O 	0.57350 0.22150 0.99460 -0.52800
O 	O 	0.43260 0.34410 0.89710 -0.51500
Zn	Zn	0.73368 0.06472 0.03761 1.22600
C 	C 	0.67110 0.98630 0.21200 0.04700
H 	H 	0.79500 0.01480 0.21680 -0.00100
C 	C 	0.58330 0.93040 0.28070 -0.09400
N 	N 	0.58490 0.00140 0.13830 -0.26600
C 	C 	0.40060 0.96490 0.13230 0.05700
H 	H 	0.33790 0.97760 0.08200 -0.02200
C 	C 	0.39950 0.89060 0.27330 0.02600
H 	H 	0.33780 0.85050 0.31850 0.01600
C 	C 	0.30680 0.90980 0.19940 -0.12100
H 	H 	0.18120 0.88570 0.19470 0.06100
C 	C 	0.68910 0.89810 0.35850 0.16300
N 	N 	0.67010 0.99790 0.42450 -0.20600
H 	H 	0.74970 0.99920 0.46470 -0.20600
H 	H 	0.57890 0.05680 0.42390 0.07500
C 	C 	0.83100 0.80170 0.35590 -0.40400
H 	H 	0.85830 0.76790 0.30280 0.17600
C 	C 	0.94560 0.74410 0.42120 0.51600
O 	O 	0.92650 0.77850 0.49460 -0.52800
O 	O 	0.06740 0.65590 0.39710 -0.51300
