data_crystal

_cell_length_a 10.96630
_cell_length_b 30.59200
_cell_length_c 11.93220
_cell_angle_alpha 90.00000
_cell_angle_beta  117.01000
_cell_angle_gamma 90.00000

_symmetry_space_group_name_	'P 1'
_symmetry_space_group_name_H-M	'P 1'

loop_
_symmetry_equiv_pos_as_xyz
  x,y,z

loop_
_atom_site_label
_atom_site_type_symbol
_atom_site_fract_x
_atom_site_fract_y
_atom_site_fract_z
_atom_site_charge
Cd	Cd	0.72857 0.23698 0.41926 1.20300
O 	O 	0.83240 0.27214 0.30420 -0.37300
O 	O 	0.97640 0.24518 0.48540 -0.35500
O 	O 	0.07830 0.28817 0.02170 -0.35200
O 	O 	0.30130 0.28998 0.12000 -0.38500
N 	N 	0.70910 0.30807 0.48360 -0.24700
N 	N 	0.72560 0.16700 0.34370 -0.25200
N 	N 	0.58100 0.01995 0.12180 -0.08100
N 	N 	0.60330 0.46540 0.54440 -0.09700
C 	C 	0.68550 0.34190 0.40590 0.07900
H 	H 	0.67440 0.33670 0.32340 -0.01500
C 	C 	0.67650 0.38430 0.44130 -0.16900
H 	H 	0.65870 0.40800 0.38430 0.07800
C 	C 	0.69440 0.39150 0.56340 0.11800
C 	C 	0.71770 0.35750 0.64010 -0.19400
H 	H 	0.72930 0.36160 0.72330 0.08600
C 	C 	0.72450 0.31710 0.59800 0.10400
H 	H 	0.74150 0.29330 0.65450 -0.02500
C 	C 	0.67800 0.43270 0.63460 -0.06600
H 	H 	0.62830 0.42440 0.68310 0.04000
H 	H 	0.76910 0.44400 0.69410 0.01200
C 	C 	0.83530 0.14770 0.34330 0.09800
H 	H 	0.91820 0.16380 0.37260 -0.01600
C 	C 	0.83240 0.10560 0.30210 -0.19900
H 	H 	0.91220 0.09340 0.30240 0.08400
C 	C 	0.71630 0.08130 0.26090 0.14500
C 	C 	0.60320 0.10140 0.25600 -0.19100
H 	H 	0.51820 0.08640 0.22190 0.09500
C 	C 	0.61140 0.14380 0.30040 0.09600
H 	H 	0.53220 0.15660 0.29960 -0.02900
C 	C 	0.71400 0.03400 0.21940 -0.16100
H 	H 	0.78280 0.03050 0.18780 0.06700
H 	H 	0.74110 0.01460 0.29340 0.07100
C 	C 	0.95190 0.26836 0.39050 0.23000
C 	C 	0.06690 0.29319 0.38030 0.12100
C 	C 	0.03490 0.34246 0.37290 -0.28400
H 	H 	0.02860 0.35180 0.44960 0.10600
H 	H 	0.94590 0.34840 0.29920 0.11200
C 	C 	0.14950 0.36830 0.36100 0.22500
H 	H 	0.12860 0.40030 0.35770 -0.05000
C 	C 	0.28300 0.35990 0.47080 -0.34900
H 	H 	0.27950 0.36920 0.54880 0.12500
H 	H 	0.35540 0.37700 0.46290 0.12200
C 	C 	0.20660 0.28470 0.49240 -0.28700
H 	H 	0.20390 0.29310 0.57140 0.11300
H 	H 	0.22870 0.25310 0.49710 0.11900
C 	C 	0.31600 0.31110 0.47780 0.21700
H 	H 	0.40680 0.30550 0.55170 -0.04200
C 	C 	0.18640 0.29368 0.11970 0.23900
C 	C 	0.07220 0.27981 0.25820 -0.23100
H 	H 	0.98240 0.28550 0.18520 0.10700
H 	H 	0.09140 0.24810 0.26030 0.09600
C 	C 	0.32250 0.29760 0.35710 -0.28200
H 	H 	0.39470 0.31450 0.34860 0.11200
H 	H 	0.34610 0.26620 0.36140 0.10800
C 	C 	0.18480 0.30576 0.24310 0.11600
C 	C 	0.61900 0.50450 0.62200 -0.01000
H 	H 	0.71730 0.51150 0.67390 0.01000
H 	H 	0.57690 0.49970 0.67890 0.02000
C 	C 	0.45620 0.45680 0.47390 -0.14700
H 	H 	0.41660 0.45370 0.53330 0.05700
H 	H 	0.44150 0.42900 0.42710 0.05600
C 	C 	0.55240 0.04180 0.00300 -0.05600
H 	H 	0.62470 0.03450 0.97810 0.04500
H 	H 	0.55220 0.07390 0.01390 0.04200
C 	C 	0.58520 0.97280 0.09850 -0.05600
H 	H 	0.60800 0.95630 0.17690 0.03900
H 	H 	0.65690 0.96680 0.07190 0.04200
C 	C 	0.15040 0.35530 0.23870 -0.28700
H 	H 	0.21960 0.37270 0.22660 0.10900
H 	H 	0.05960 0.36110 0.16720 0.11200
C 	C 	0.72600 0.44570 0.58680 -0.05100
H 	H 	0.78330 0.45200 0.67730 0.03900
H 	H 	0.77540 0.45620 0.53970 0.03800
C 	C 	0.62700 0.51330 0.59700 -0.03500
H 	H 	0.66340 0.53200 0.55120 0.04100
H 	H 	0.69330 0.51360 0.68770 0.01700
C 	C 	0.51950 0.47000 0.42410 0.08000
H 	H 	0.50940 0.44160 0.38100 -0.00700
H 	H 	0.55860 0.49120 0.38650 -0.00700
Cd	Cd	0.77143 0.73698 0.08074 1.20300
O 	O 	0.66760 0.77214 0.19580 -0.37200
O 	O 	0.52360 0.74518 0.01460 -0.35400
O 	O 	0.42170 0.78817 0.47830 -0.35300
O 	O 	0.19870 0.78998 0.38000 -0.38600
N 	N 	0.79090 0.80807 0.01640 -0.25100
N 	N 	0.77440 0.66700 0.15630 -0.25300
N 	N 	0.91900 0.51995 0.37820 -0.08100
N 	N 	0.89670 0.96540 0.95560 -0.09100
C 	C 	0.81450 0.84190 0.09410 0.08100
H 	H 	0.82560 0.83670 0.17660 -0.01600
C 	C 	0.82350 0.88430 0.05870 -0.17700
H 	H 	0.84130 0.90800 0.11570 0.08000
C 	C 	0.80560 0.89150 0.93660 0.12500
C 	C 	0.78230 0.85750 0.85990 -0.20000
H 	H 	0.77070 0.86160 0.77670 0.08800
C 	C 	0.77550 0.81710 0.90200 0.11000
H 	H 	0.75850 0.79330 0.84550 -0.02600
C 	C 	0.82200 0.93270 0.86540 -0.07000
H 	H 	0.87170 0.92440 0.81690 0.04100
H 	H 	0.73090 0.94400 0.80590 0.00900
C 	C 	0.66470 0.64770 0.15670 0.09800
H 	H 	0.58180 0.66380 0.12740 -0.01600
C 	C 	0.66760 0.60560 0.19790 -0.19900
H 	H 	0.58780 0.59340 0.19760 0.08400
C 	C 	0.78370 0.58130 0.23910 0.14500
C 	C 	0.89680 0.60140 0.24400 -0.19200
H 	H 	0.98180 0.58640 0.27810 0.09500
C 	C 	0.88860 0.64380 0.19960 0.09500
H 	H 	0.96780 0.65660 0.20040 -0.02900
C 	C 	0.78600 0.53400 0.28060 -0.16100
H 	H 	0.71720 0.53050 0.31220 0.06700
H 	H 	0.75890 0.51460 0.20660 0.07100
C 	C 	0.54810 0.76836 0.10950 0.23000
C 	C 	0.43310 0.79319 0.11970 0.12200
C 	C 	0.46510 0.84246 0.12710 -0.28800
H 	H 	0.47140 0.85180 0.05040 0.10800
H 	H 	0.55410 0.84840 0.20080 0.11500
C 	C 	0.35050 0.86830 0.13900 0.22800
H 	H 	0.37140 0.90030 0.14230 -0.05100
C 	C 	0.21700 0.85990 0.02920 -0.35100
H 	H 	0.22050 0.86920 0.95120 0.12400
H 	H 	0.14460 0.87700 0.03710 0.12400
C 	C 	0.29340 0.78470 0.00760 -0.28900
H 	H 	0.29610 0.79310 0.92860 0.11300
H 	H 	0.27130 0.75310 0.00290 0.11900
C 	C 	0.18400 0.81110 0.02220 0.22100
H 	H 	0.09320 0.80550 0.94830 -0.04500
C 	C 	0.31360 0.79368 0.38030 0.23800
C 	C 	0.42780 0.77981 0.24180 -0.23700
H 	H 	0.51760 0.78550 0.31480 0.11100
H 	H 	0.40860 0.74810 0.23970 0.09700
C 	C 	0.17750 0.79760 0.14290 -0.28500
H 	H 	0.10530 0.81450 0.15140 0.11300
H 	H 	0.15390 0.76620 0.13860 0.10900
C 	C 	0.31520 0.80576 0.25690 0.11800
C 	C 	0.88100 0.00450 0.87800 -0.02000
H 	H 	0.78270 0.01150 0.82610 0.01300
H 	H 	0.92310 0.99970 0.82110 0.02600
C 	C 	0.04380 0.95680 0.02610 -0.08500
H 	H 	0.08340 0.95370 0.96670 0.03600
H 	H 	0.05850 0.92900 0.07290 0.03900
C 	C 	0.94760 0.54180 0.49700 -0.05400
H 	H 	0.87530 0.53450 0.52190 0.04400
H 	H 	0.94780 0.57390 0.48610 0.04100
C 	C 	0.91480 0.47280 0.40150 -0.05700
H 	H 	0.89200 0.45630 0.32310 0.03900
H 	H 	0.84310 0.46680 0.42810 0.04300
C 	C 	0.34960 0.85530 0.26130 -0.28900
H 	H 	0.28040 0.87270 0.27340 0.10900
H 	H 	0.44040 0.86110 0.33280 0.11200
C 	C 	0.77400 0.94570 0.91320 -0.05100
H 	H 	0.71670 0.95200 0.82270 0.04200
H 	H 	0.72460 0.95620 0.96030 0.03800
C 	C 	0.87300 0.01330 0.90300 -0.03000
H 	H 	0.83660 0.03200 0.94880 0.03600
H 	H 	0.80670 0.01360 0.81230 0.01600
C 	C 	0.98050 0.97000 0.07590 0.01700
H 	H 	0.99060 0.94160 0.11900 0.01000
H 	H 	0.94140 0.99120 0.11350 0.01100
Cd	Cd	0.27143 0.76302 0.58074 1.20400
O 	O 	0.16760 0.72786 0.69580 -0.37200
O 	O 	0.02360 0.75482 0.51460 -0.35400
O 	O 	0.92170 0.71183 0.97830 -0.35100
O 	O 	0.69870 0.71002 0.88000 -0.38500
N 	N 	0.29090 0.69193 0.51640 -0.24700
N 	N 	0.27440 0.83300 0.65630 -0.25200
N 	N 	0.41900 0.98005 0.87820 -0.08100
N 	N 	0.39670 0.53460 0.45560 -0.09700
C 	C 	0.31450 0.65810 0.59410 0.07900
H 	H 	0.32560 0.66330 0.67660 -0.01500
C 	C 	0.32350 0.61570 0.55870 -0.16900
H 	H 	0.34130 0.59200 0.61570 0.07800
C 	C 	0.30560 0.60850 0.43660 0.11800
C 	C 	0.28230 0.64250 0.35990 -0.19400
H 	H 	0.27070 0.63840 0.27670 0.08600
C 	C 	0.27550 0.68290 0.40200 0.10400
H 	H 	0.25850 0.70670 0.34550 -0.02500
C 	C 	0.32200 0.56730 0.36540 -0.06600
H 	H 	0.37170 0.57560 0.31690 0.04000
H 	H 	0.23090 0.55600 0.30590 0.01200
C 	C 	0.16470 0.85230 0.65670 0.09800
H 	H 	0.08180 0.83620 0.62740 -0.01600
C 	C 	0.16760 0.89440 0.69790 -0.19900
H 	H 	0.08780 0.90660 0.69760 0.08400
C 	C 	0.28370 0.91870 0.73910 0.14500
C 	C 	0.39680 0.89860 0.74400 -0.19100
H 	H 	0.48180 0.91360 0.77810 0.09500
C 	C 	0.38860 0.85620 0.69960 0.09600
H 	H 	0.46780 0.84340 0.70040 -0.02900
C 	C 	0.28600 0.96600 0.78060 -0.16100
H 	H 	0.21720 0.96950 0.81220 0.06700
H 	H 	0.25890 0.98540 0.70660 0.07100
C 	C 	0.04810 0.73164 0.60950 0.23000
C 	C 	0.93310 0.70681 0.61970 0.12100
C 	C 	0.96510 0.65754 0.62710 -0.28400
H 	H 	0.97140 0.64820 0.55040 0.10600
H 	H 	0.05410 0.65160 0.70080 0.11200
C 	C 	0.85050 0.63170 0.63900 0.22500
H 	H 	0.87140 0.59970 0.64230 -0.05000
C 	C 	0.71700 0.64010 0.52920 -0.34900
H 	H 	0.72050 0.63080 0.45120 0.12500
H 	H 	0.64460 0.62300 0.53710 0.12200
C 	C 	0.79340 0.71530 0.50760 -0.28700
H 	H 	0.79610 0.70690 0.42860 0.11300
H 	H 	0.77130 0.74690 0.50290 0.11900
C 	C 	0.68400 0.68890 0.52220 0.21700
H 	H 	0.59320 0.69450 0.44830 -0.04200
C 	C 	0.81360 0.70632 0.88030 0.23900
C 	C 	0.92780 0.72019 0.74180 -0.23100
H 	H 	0.01760 0.71450 0.81480 0.10700
H 	H 	0.90860 0.75190 0.73970 0.09600
C 	C 	0.67750 0.70240 0.64290 -0.28200
H 	H 	0.60530 0.68550 0.65140 0.11200
H 	H 	0.65390 0.73380 0.63860 0.10800
C 	C 	0.81520 0.69424 0.75690 0.11600
C 	C 	0.38100 0.49550 0.37800 -0.01000
H 	H 	0.28270 0.48850 0.32610 0.01000
H 	H 	0.42310 0.50030 0.32110 0.02000
C 	C 	0.54380 0.54320 0.52610 -0.14700
H 	H 	0.58340 0.54630 0.46670 0.05700
H 	H 	0.55850 0.57100 0.57290 0.05600
C 	C 	0.44760 0.95820 0.99700 -0.05600
H 	H 	0.37530 0.96550 0.02190 0.04500
H 	H 	0.44780 0.92610 0.98610 0.04200
C 	C 	0.41480 0.02720 0.90150 -0.05600
H 	H 	0.39200 0.04370 0.82310 0.03900
H 	H 	0.34310 0.03320 0.92810 0.04200
C 	C 	0.84960 0.64470 0.76130 -0.28700
H 	H 	0.78040 0.62730 0.77340 0.10900
H 	H 	0.94040 0.63890 0.83280 0.11200
C 	C 	0.27400 0.55430 0.41320 -0.05100
H 	H 	0.21670 0.54800 0.32270 0.03900
H 	H 	0.22460 0.54380 0.46030 0.03800
C 	C 	0.37300 0.48670 0.40300 -0.03500
H 	H 	0.33660 0.46800 0.44880 0.04100
H 	H 	0.30670 0.48640 0.31230 0.01700
C 	C 	0.48050 0.53000 0.57590 0.08000
H 	H 	0.49060 0.55840 0.61900 -0.00700
H 	H 	0.44140 0.50880 0.61350 -0.00700
Cd	Cd	0.22857 0.26302 0.91926 1.20300
O 	O 	0.33240 0.22786 0.80420 -0.37200
O 	O 	0.47640 0.25482 0.98540 -0.35400
O 	O 	0.57830 0.21183 0.52170 -0.35300
O 	O 	0.80130 0.21002 0.62000 -0.38600
N 	N 	0.20910 0.19193 0.98360 -0.25100
N 	N 	0.22560 0.33300 0.84370 -0.25300
N 	N 	0.08100 0.48005 0.62180 -0.08100
N 	N 	0.10330 0.03460 0.04440 -0.09100
C 	C 	0.18550 0.15810 0.90590 0.08100
H 	H 	0.17440 0.16330 0.82340 -0.01600
C 	C 	0.17650 0.11570 0.94130 -0.17700
H 	H 	0.15870 0.09200 0.88430 0.08000
C 	C 	0.19440 0.10850 0.06340 0.12500
C 	C 	0.21770 0.14250 0.14010 -0.20000
H 	H 	0.22930 0.13840 0.22330 0.08800
C 	C 	0.22450 0.18290 0.09800 0.11000
H 	H 	0.24150 0.20670 0.15450 -0.02600
C 	C 	0.17800 0.06730 0.13460 -0.07000
H 	H 	0.12830 0.07560 0.18310 0.04100
H 	H 	0.26910 0.05600 0.19410 0.00900
C 	C 	0.33530 0.35230 0.84330 0.09800
H 	H 	0.41820 0.33620 0.87260 -0.01600
C 	C 	0.33240 0.39440 0.80210 -0.19900
H 	H 	0.41220 0.40660 0.80240 0.08400
C 	C 	0.21630 0.41870 0.76090 0.14500
C 	C 	0.10320 0.39860 0.75600 -0.19200
H 	H 	0.01820 0.41360 0.72190 0.09500
C 	C 	0.11140 0.35620 0.80040 0.09500
H 	H 	0.03220 0.34340 0.79960 -0.02900
C 	C 	0.21400 0.46600 0.71940 -0.16100
H 	H 	0.28280 0.46950 0.68780 0.06700
H 	H 	0.24110 0.48540 0.79340 0.07100
C 	C 	0.45190 0.23164 0.89050 0.23000
C 	C 	0.56690 0.20681 0.88030 0.12200
C 	C 	0.53490 0.15754 0.87290 -0.28800
H 	H 	0.52860 0.14820 0.94960 0.10800
H 	H 	0.44590 0.15160 0.79920 0.11500
C 	C 	0.64950 0.13170 0.86100 0.22800
H 	H 	0.62860 0.09970 0.85770 -0.05100
C 	C 	0.78300 0.14010 0.97080 -0.35100
H 	H 	0.77950 0.13080 0.04880 0.12400
H 	H 	0.85540 0.12300 0.96290 0.12400
C 	C 	0.70660 0.21530 0.99240 -0.28900
H 	H 	0.70390 0.20690 0.07140 0.11300
H 	H 	0.72870 0.24690 0.99710 0.11900
C 	C 	0.81600 0.18890 0.97780 0.22100
H 	H 	0.90680 0.19450 0.05170 -0.04500
C 	C 	0.68640 0.20632 0.61970 0.23800
C 	C 	0.57220 0.22019 0.75820 -0.23700
H 	H 	0.48240 0.21450 0.68520 0.11100
H 	H 	0.59140 0.25190 0.76030 0.09700
C 	C 	0.82250 0.20240 0.85710 -0.28500
H 	H 	0.89470 0.18550 0.84860 0.11300
H 	H 	0.84610 0.23380 0.86140 0.10900
C 	C 	0.68480 0.19424 0.74310 0.11800
C 	C 	0.11900 0.99550 0.12200 -0.02000
H 	H 	0.21730 0.98850 0.17390 0.01300
H 	H 	0.07690 0.00030 0.17890 0.02600
C 	C 	0.95620 0.04320 0.97390 -0.08500
H 	H 	0.91660 0.04630 0.03330 0.03600
H 	H 	0.94150 0.07100 0.92710 0.03900
C 	C 	0.05240 0.45820 0.50300 -0.05400
H 	H 	0.12470 0.46550 0.47810 0.04400
H 	H 	0.05220 0.42610 0.51390 0.04100
C 	C 	0.08520 0.52720 0.59850 -0.05700
H 	H 	0.10800 0.54370 0.67690 0.03900
H 	H 	0.15690 0.53320 0.57190 0.04300
C 	C 	0.65040 0.14470 0.73870 -0.28900
H 	H 	0.71960 0.12730 0.72660 0.10900
H 	H 	0.55960 0.13890 0.66720 0.11200
C 	C 	0.22600 0.05430 0.08680 -0.05100
H 	H 	0.28330 0.04800 0.17730 0.04200
H 	H 	0.27540 0.04380 0.03970 0.03800
C 	C 	0.12700 0.98670 0.09700 -0.03000
H 	H 	0.16340 0.96800 0.05120 0.03600
H 	H 	0.19330 0.98640 0.18770 0.01600
C 	C 	0.01950 0.03000 0.92410 0.01700
H 	H 	0.00940 0.05840 0.88100 0.01000
H 	H 	0.05860 0.00880 0.88650 0.01100
