data_crystal

_cell_length_a 12.86880
_cell_length_b 18.09250
_cell_length_c 14.51900
_cell_angle_alpha 90.00000
_cell_angle_beta  116.05300
_cell_angle_gamma 90.00000

_symmetry_space_group_name_	'P 1'
_symmetry_space_group_name_H-M	'P 1'

loop_
_symmetry_equiv_pos_as_xyz
  x,y,z

loop_
_atom_site_label
_atom_site_type_symbol
_atom_site_fract_x
_atom_site_fract_y
_atom_site_fract_z
_atom_site_charge
Cd	Cd	0.10940 0.27123 0.55718 1.17200
O 	O 	0.12600 0.31981 0.42020 -0.44000
O 	O 	0.37023 0.63544 0.46204 -0.41900
N 	N 	0.71660 0.60564 0.33230 -0.11400
N 	N 	0.69320 0.53577 0.30980 -0.19300
N 	N 	0.83010 0.61623 0.35980 -0.21000
O 	O 	0.30140 0.36171 0.45180 -0.32100
N 	N 	0.78920 0.49871 0.32200 -0.11100
C 	C 	0.99380 0.53570 0.37510 0.05500
C 	C 	0.87170 0.54960 0.35220 0.09400
C 	C 	0.15190 0.44940 0.41200 -0.05900
C 	C 	0.18370 0.58090 0.40730 -0.08000
C 	C 	0.03650 0.46330 0.38890 -0.13700
H 	H 	0.98730 0.42390 0.38260 0.09300
C 	C 	0.06710 0.59390 0.38240 -0.07400
H 	H 	0.03860 0.64200 0.37060 -0.00700
C 	C 	0.26130 0.64510 0.41800 0.29700
C 	C 	0.19620 0.37100 0.42910 0.31500
C 	C 	0.22520 0.50850 0.42220 -0.00300
H 	H 	0.30270 0.49970 0.43900 0.01500
O 	O 	0.21840 0.70750 0.38553 -0.44300
Cd	Cd	0.60940 0.77123 0.05718 1.17800
O 	O 	0.62600 0.81981 0.92020 -0.43700
O 	O 	0.87023 0.13544 0.96204 -0.41700
N 	N 	0.21660 0.10564 0.83230 -0.11900
N 	N 	0.19320 0.03577 0.80980 -0.19900
N 	N 	0.33010 0.11623 0.85980 -0.22100
O 	O 	0.80140 0.86171 0.95180 -0.31900
N 	N 	0.28920 0.99871 0.82200 -0.11700
C 	C 	0.49380 0.03570 0.87510 -0.09700
C 	C 	0.37170 0.04960 0.85220 0.12900
C 	C 	0.65190 0.94940 0.91200 -0.13100
C 	C 	0.68370 0.08090 0.90730 -0.13700
C 	C 	0.53650 0.96330 0.88890 0.04700
H 	H 	0.48730 0.92390 0.88260 0.00700
C 	C 	0.56710 0.09390 0.88240 0.04300
H 	H 	0.53860 0.14200 0.87060 -0.03600
C 	C 	0.76130 0.14510 0.91800 0.31600
C 	C 	0.69620 0.87100 0.92910 0.34200
C 	C 	0.72520 0.00850 0.92220 0.05000
H 	H 	0.80270 0.99970 0.93900 0.00500
O 	O 	0.71840 0.20750 0.88553 -0.44400
Cd	Cd	0.89060 0.27123 0.94282 1.18100
O 	O 	0.87400 0.31981 0.07980 -0.43100
O 	O 	0.62977 0.63544 0.03796 -0.43000
N 	N 	0.28340 0.60564 0.16770 -0.11400
N 	N 	0.30680 0.53577 0.19020 -0.19300
N 	N 	0.16990 0.61623 0.14020 -0.23100
O 	O 	0.69860 0.36171 0.04820 -0.33100
N 	N 	0.21080 0.49871 0.17800 -0.12700
C 	C 	0.00620 0.53570 0.12490 -0.24800
C 	C 	0.12830 0.54960 0.14780 0.17500
C 	C 	0.84810 0.44940 0.08800 -0.22500
C 	C 	0.81630 0.58090 0.09270 -0.21000
C 	C 	0.96350 0.46330 0.11110 0.23400
H 	H 	0.01270 0.42390 0.11740 -0.07900
C 	C 	0.93290 0.59390 0.11760 0.17200
H 	H 	0.96140 0.64200 0.12940 -0.06600
C 	C 	0.73870 0.64510 0.08200 0.34400
C 	C 	0.80380 0.37100 0.07090 0.37800
C 	C 	0.77480 0.50850 0.07780 0.14100
H 	H 	0.69730 0.49970 0.06100 -0.03100
O 	O 	0.78160 0.70750 0.11447 -0.44700
Cd	Cd	0.39060 0.77123 0.44282 1.17800
O 	O 	0.37400 0.81981 0.57980 -0.43900
O 	O 	0.12977 0.13544 0.53796 -0.43400
N 	N 	0.78340 0.10564 0.66770 -0.11100
N 	N 	0.80680 0.03577 0.69020 -0.18800
N 	N 	0.66990 0.11623 0.64020 -0.22000
O 	O 	0.19860 0.86171 0.54820 -0.33500
N 	N 	0.71080 0.99871 0.67800 -0.11600
C 	C 	0.50620 0.03570 0.62490 -0.09800
C 	C 	0.62830 0.04960 0.64780 0.13400
C 	C 	0.34810 0.94940 0.58800 -0.14300
C 	C 	0.31630 0.08090 0.59270 -0.14700
C 	C 	0.46350 0.96330 0.61110 0.05000
H 	H 	0.51270 0.92390 0.61740 0.00700
C 	C 	0.43290 0.09390 0.61760 0.04900
H 	H 	0.46140 0.14200 0.62940 -0.03700
C 	C 	0.23870 0.14510 0.58200 0.32200
C 	C 	0.30380 0.87100 0.57090 0.34700
C 	C 	0.27480 0.00850 0.57780 0.06700
H 	H 	0.19730 0.99970 0.56100 -0.01000
O 	O 	0.28160 0.20750 0.61447 -0.44700
Cd	Cd	0.89060 0.72877 0.44282 1.18300
O 	O 	0.87400 0.68019 0.57980 -0.43500
O 	O 	0.62977 0.36456 0.53796 -0.43000
N 	N 	0.28340 0.39436 0.66770 -0.11500
N 	N 	0.30680 0.46423 0.69020 -0.19400
N 	N 	0.16990 0.38377 0.64020 -0.23100
O 	O 	0.69860 0.63829 0.54820 -0.33400
N 	N 	0.21080 0.50129 0.67800 -0.12700
C 	C 	0.00620 0.46430 0.62490 -0.24300
C 	C 	0.12830 0.45040 0.64780 0.17300
C 	C 	0.84810 0.55060 0.58800 -0.22400
C 	C 	0.81630 0.41910 0.59270 -0.20900
C 	C 	0.96350 0.53670 0.61110 0.22700
H 	H 	0.01270 0.57610 0.61740 -0.07600
C 	C 	0.93290 0.40610 0.61760 0.16800
H 	H 	0.96140 0.35800 0.62940 -0.06500
C 	C 	0.73870 0.35490 0.58200 0.34400
C 	C 	0.80380 0.62900 0.57090 0.37700
C 	C 	0.77480 0.49150 0.57780 0.13900
H 	H 	0.69730 0.50030 0.56100 -0.03100
O 	O 	0.78160 0.29250 0.61447 -0.44700
Cd	Cd	0.39060 0.22877 0.94282 1.17600
O 	O 	0.37400 0.18019 0.07980 -0.43500
O 	O 	0.12977 0.86456 0.03796 -0.43400
N 	N 	0.78340 0.89436 0.16770 -0.11000
N 	N 	0.80680 0.96423 0.19020 -0.18900
N 	N 	0.66990 0.88377 0.14020 -0.21900
O 	O 	0.19860 0.13829 0.04820 -0.33200
N 	N 	0.71080 0.00129 0.17800 -0.11300
C 	C 	0.50620 0.96430 0.12490 -0.09800
C 	C 	0.62830 0.95040 0.14780 0.13100
C 	C 	0.34810 0.05060 0.08800 -0.13500
C 	C 	0.31630 0.91910 0.09270 -0.14200
C 	C 	0.46350 0.03670 0.11110 0.05000
H 	H 	0.51270 0.07610 0.11740 0.00800
C 	C 	0.43290 0.90610 0.11760 0.04700
H 	H 	0.46140 0.85800 0.12940 -0.03600
C 	C 	0.23870 0.85490 0.08200 0.32000
C 	C 	0.30380 0.12900 0.07090 0.34500
C 	C 	0.27480 0.99150 0.07780 0.05400
H 	H 	0.19730 0.00030 0.06100 -0.00300
O 	O 	0.28160 0.79250 0.11447 -0.44600
Cd	Cd	0.10940 0.72877 0.05718 1.17400
O 	O 	0.12600 0.68019 0.92020 -0.44000
O 	O 	0.37023 0.36456 0.96204 -0.42200
N 	N 	0.71660 0.39436 0.83230 -0.11500
N 	N 	0.69320 0.46423 0.80980 -0.19400
N 	N 	0.83010 0.38377 0.85980 -0.21100
O 	O 	0.30140 0.63829 0.95180 -0.32300
N 	N 	0.78920 0.50129 0.82200 -0.11200
C 	C 	0.99380 0.46430 0.87510 0.04500
C 	C 	0.87170 0.45040 0.85220 0.09500
C 	C 	0.15190 0.55060 0.91200 -0.06500
C 	C 	0.18370 0.41910 0.90730 -0.08600
C 	C 	0.03650 0.53670 0.88890 -0.12500
H 	H 	0.98730 0.57610 0.88260 0.08600
C 	C 	0.06710 0.40610 0.88240 -0.06700
H 	H 	0.03860 0.35800 0.87060 -0.01000
C 	C 	0.26130 0.35490 0.91800 0.29800
C 	C 	0.19620 0.62900 0.92910 0.31700
C 	C 	0.22520 0.49150 0.92220 0.00200
H 	H 	0.30270 0.50030 0.93900 0.01300
O 	O 	0.21840 0.29250 0.88553 -0.44500
Cd	Cd	0.60940 0.22877 0.55718 1.17800
O 	O 	0.62600 0.18019 0.42020 -0.43500
O 	O 	0.87023 0.86456 0.46204 -0.41400
N 	N 	0.21660 0.89436 0.33230 -0.11700
N 	N 	0.19320 0.96423 0.30980 -0.19700
N 	N 	0.33010 0.88377 0.35980 -0.22000
O 	O 	0.80140 0.13829 0.45180 -0.31700
N 	N 	0.28920 0.00129 0.32200 -0.11900
C 	C 	0.49380 0.96430 0.37510 -0.09500
C 	C 	0.37170 0.95040 0.35220 0.13200
C 	C 	0.65190 0.05060 0.41200 -0.13500
C 	C 	0.68370 0.91910 0.40730 -0.13900
C 	C 	0.53650 0.03670 0.38890 0.04600
H 	H 	0.48730 0.07610 0.38260 0.00700
C 	C 	0.56710 0.90610 0.38240 0.04500
H 	H 	0.53860 0.85800 0.37060 -0.03600
C 	C 	0.76130 0.85490 0.41800 0.31700
C 	C 	0.69620 0.12900 0.42910 0.34300
C 	C 	0.72520 0.99150 0.42220 0.05900
H 	H 	0.80270 0.00030 0.43900 0.00100
O 	O 	0.71840 0.79250 0.38553 -0.44300
Cd	Cd	0.50000 0.50328 0.25000 1.12300
Cd	Cd	0.00000 0.00328 0.75000 1.11200
Cd	Cd	0.50000 0.49672 0.75000 1.12300
Cd	Cd	0.00000 0.99672 0.25000 1.11300
