data_crystal

_cell_length_a 14.56100
_cell_length_b 18.07800
_cell_length_c 12.84500
_cell_angle_alpha 90.00000
_cell_angle_beta  116.60200
_cell_angle_gamma 90.00000

_symmetry_space_group_name_	'P 1'
_symmetry_space_group_name_H-M	'P 1'

loop_
_symmetry_equiv_pos_as_xyz
  x,y,z

loop_
_atom_site_label
_atom_site_type_symbol
_atom_site_fract_x
_atom_site_fract_y
_atom_site_fract_z
_atom_site_charge
Cd	Cd	0.19277 0.47865 0.05232 1.17400
N 	N 	0.10990 0.36604 0.03000 -0.22000
N 	N 	0.08220 0.35572 0.11590 -0.13100
N 	N 	0.06020 0.28548 0.11690 -0.21000
N 	N 	0.07190 0.24861 0.03260 -0.12500
C 	C 	0.10260 0.29947 0.98050 0.09800
C 	C 	0.12520 0.28556 0.88110 -0.11600
C 	C 	0.13270 0.34360 0.81540 0.04800
H 	H 	0.12090 0.39170 0.83220 -0.05500
C 	C 	0.15770 0.33055 0.72400 -0.17000
C 	C 	0.17160 0.25858 0.69660 0.07200
H 	H 	0.18760 0.24970 0.63530 -0.02000
C 	C 	0.16150 0.19962 0.76020 -0.16400
C 	C 	0.13890 0.21324 0.85260 0.04800
H 	H 	0.13290 0.17390 0.89580 -0.01000
C 	C 	0.16810 0.39508 0.65660 0.32400
C 	C 	0.17890 0.12139 0.73180 0.34600
O 	O 	0.13597 0.45747 0.66740 -0.47200
O 	O 	0.21194 0.38581 0.59195 -0.44000
O 	O 	0.20140 0.11211 0.64980 -0.34500
O 	O 	0.17023 0.06998 0.79400 -0.45800
Cd	Cd	0.69277 0.97865 0.05232 1.18200
N 	N 	0.60990 0.86604 0.03000 -0.21400
N 	N 	0.58220 0.85572 0.11590 -0.11400
N 	N 	0.56020 0.78548 0.11690 -0.19300
N 	N 	0.57190 0.74861 0.03260 -0.11200
C 	C 	0.60260 0.79947 0.98050 0.12000
C 	C 	0.62520 0.78556 0.88110 -0.09500
C 	C 	0.63270 0.84360 0.81540 0.04900
H 	H 	0.62090 0.89170 0.83220 -0.03700
C 	C 	0.65770 0.83055 0.72400 -0.14300
C 	C 	0.67160 0.75858 0.69660 0.07000
H 	H 	0.68760 0.74970 0.63530 -0.00400
C 	C 	0.66150 0.69962 0.76020 -0.14100
C 	C 	0.63890 0.71324 0.85260 0.04700
H 	H 	0.63290 0.67390 0.89580 0.00500
C 	C 	0.66810 0.89508 0.65660 0.32600
C 	C 	0.67890 0.62139 0.73180 0.34600
O 	O 	0.63597 0.95747 0.66740 -0.44500
O 	O 	0.71194 0.88581 0.59195 -0.41700
O 	O 	0.70140 0.61211 0.64980 -0.32300
O 	O 	0.67023 0.56998 0.79400 -0.43600
Cd	Cd	0.80723 0.47865 0.44768 1.18500
N 	N 	0.89010 0.36604 0.47000 -0.21000
N 	N 	0.91780 0.35572 0.38410 -0.09600
N 	N 	0.93980 0.28548 0.38310 -0.16700
N 	N 	0.92810 0.24861 0.46740 -0.10000
C 	C 	0.89740 0.29947 0.51950 0.14700
C 	C 	0.87480 0.28556 0.61890 -0.08000
C 	C 	0.86730 0.34360 0.68460 0.05300
H 	H 	0.87910 0.39170 0.66780 -0.02300
C 	C 	0.84230 0.33055 0.77600 -0.13000
C 	C 	0.82840 0.25858 0.80340 0.07300
H 	H 	0.81240 0.24970 0.86470 -0.00000
C 	C 	0.83850 0.19962 0.73980 -0.12600
C 	C 	0.86110 0.21324 0.64740 0.05200
H 	H 	0.86710 0.17390 0.60420 0.02000
C 	C 	0.83190 0.39508 0.84340 0.32900
C 	C 	0.82110 0.12139 0.76820 0.34900
O 	O 	0.86403 0.45747 0.83260 -0.42500
O 	O 	0.78806 0.38581 0.90805 -0.41900
O 	O 	0.79860 0.11211 0.85020 -0.31700
O 	O 	0.82977 0.06998 0.70600 -0.41700
Cd	Cd	0.30723 0.97865 0.44768 1.17700
N 	N 	0.39010 0.86604 0.47000 -0.22000
N 	N 	0.41780 0.85572 0.38410 -0.11400
N 	N 	0.43980 0.78548 0.38310 -0.19300
N 	N 	0.42810 0.74861 0.46740 -0.11800
C 	C 	0.39740 0.79947 0.51950 0.13600
C 	C 	0.37480 0.78556 0.61890 -0.10200
C 	C 	0.36730 0.84360 0.68460 0.05500
H 	H 	0.37910 0.89170 0.66780 -0.04100
C 	C 	0.34230 0.83055 0.77600 -0.15600
C 	C 	0.32840 0.75858 0.80340 0.07600
H 	H 	0.31240 0.74970 0.86470 -0.01600
C 	C 	0.33850 0.69962 0.73980 -0.14900
C 	C 	0.36110 0.71324 0.64740 0.05500
H 	H 	0.36710 0.67390 0.60420 0.00500
C 	C 	0.33190 0.89508 0.84340 0.32700
C 	C 	0.32110 0.62139 0.76820 0.35000
O 	O 	0.36403 0.95747 0.83260 -0.45000
O 	O 	0.28806 0.88581 0.90805 -0.43900
O 	O 	0.29860 0.61211 0.85020 -0.33900
O 	O 	0.32977 0.56998 0.70600 -0.43900
Cd	Cd	0.80723 0.52135 0.94768 1.18300
N 	N 	0.89010 0.63396 0.97000 -0.21700
N 	N 	0.91780 0.64428 0.88410 -0.09700
N 	N 	0.93980 0.71452 0.88310 -0.16800
N 	N 	0.92810 0.75139 0.96740 -0.10700
C 	C 	0.89740 0.70053 0.01950 0.15900
C 	C 	0.87480 0.71444 0.11890 -0.08200
C 	C 	0.86730 0.65640 0.18460 0.05500
H 	H 	0.87910 0.60830 0.16780 -0.02200
C 	C 	0.84230 0.66945 0.27600 -0.12900
C 	C 	0.82840 0.74142 0.30340 0.07300
H 	H 	0.81240 0.75030 0.36470 0.00200
C 	C 	0.83850 0.80038 0.23980 -0.12500
C 	C 	0.86110 0.78676 0.14740 0.05300
H 	H 	0.86710 0.82610 0.10420 0.02000
C 	C 	0.83190 0.60492 0.34340 0.32900
C 	C 	0.82110 0.87861 0.26820 0.34900
O 	O 	0.86403 0.54253 0.33260 -0.42300
O 	O 	0.78806 0.61419 0.40805 -0.41500
O 	O 	0.79860 0.88789 0.35020 -0.31300
O 	O 	0.82977 0.93002 0.20600 -0.41600
Cd	Cd	0.30723 0.02135 0.94768 1.17300
N 	N 	0.39010 0.13396 0.97000 -0.23100
N 	N 	0.41780 0.14428 0.88410 -0.11600
N 	N 	0.43980 0.21452 0.88310 -0.19500
N 	N 	0.42810 0.25139 0.96740 -0.12900
C 	C 	0.39740 0.20053 0.01950 0.15900
C 	C 	0.37480 0.21444 0.11890 -0.10700
C 	C 	0.36730 0.15640 0.18460 0.06000
H 	H 	0.37910 0.10830 0.16780 -0.04000
C 	C 	0.34230 0.16945 0.27600 -0.15600
C 	C 	0.32840 0.24142 0.30340 0.07800
H 	H 	0.31240 0.25030 0.36470 -0.01400
C 	C 	0.33850 0.30038 0.23980 -0.14900
C 	C 	0.36110 0.28676 0.14740 0.05900
H 	H 	0.36710 0.32610 0.10420 0.00600
C 	C 	0.33190 0.10492 0.34340 0.32800
C 	C 	0.32110 0.37861 0.26820 0.35000
O 	O 	0.36403 0.04253 0.33260 -0.44900
O 	O 	0.28806 0.11419 0.40805 -0.43700
O 	O 	0.29860 0.38789 0.35020 -0.33600
O 	O 	0.32977 0.43002 0.20600 -0.43700
Cd	Cd	0.19277 0.52135 0.55232 1.17300
N 	N 	0.10990 0.63396 0.53000 -0.23000
N 	N 	0.08220 0.64428 0.61590 -0.13200
N 	N 	0.06020 0.71452 0.61690 -0.21100
N 	N 	0.07190 0.75139 0.53260 -0.13600
C 	C 	0.10260 0.70053 0.48050 0.12200
C 	C 	0.12520 0.71444 0.38110 -0.11900
C 	C 	0.13270 0.65640 0.31540 0.05300
H 	H 	0.12090 0.60830 0.33220 -0.05400
C 	C 	0.15770 0.66945 0.22400 -0.16900
C 	C 	0.17160 0.74142 0.19660 0.07400
H 	H 	0.18760 0.75030 0.13530 -0.01800
C 	C 	0.16150 0.80038 0.26020 -0.16300
C 	C 	0.13890 0.78676 0.35260 0.05200
H 	H 	0.13290 0.82610 0.39580 -0.00800
C 	C 	0.16810 0.60492 0.15660 0.32500
C 	C 	0.17890 0.87861 0.23180 0.34600
O 	O 	0.13597 0.54253 0.16740 -0.46900
O 	O 	0.21194 0.61419 0.09195 -0.43600
O 	O 	0.20140 0.88789 0.14980 -0.34200
O 	O 	0.17023 0.93002 0.29400 -0.45400
Cd	Cd	0.69277 0.02135 0.55232 1.18100
N 	N 	0.60990 0.13396 0.53000 -0.22000
N 	N 	0.58220 0.14428 0.61590 -0.11600
N 	N 	0.56020 0.21452 0.61690 -0.19400
N 	N 	0.57190 0.25139 0.53260 -0.11900
C 	C 	0.60260 0.20053 0.48050 0.13300
C 	C 	0.62520 0.21444 0.38110 -0.09700
C 	C 	0.63270 0.15640 0.31540 0.05100
H 	H 	0.62090 0.10830 0.33220 -0.03600
C 	C 	0.65770 0.16945 0.22400 -0.14200
C 	C 	0.67160 0.24142 0.19660 0.07000
H 	H 	0.68760 0.25030 0.13530 -0.00200
C 	C 	0.66150 0.30038 0.26020 -0.14000
C 	C 	0.63890 0.28676 0.35260 0.04900
H 	H 	0.63290 0.32610 0.39580 0.00600
C 	C 	0.66810 0.10492 0.15660 0.32600
C 	C 	0.67890 0.37861 0.23180 0.34600
O 	O 	0.63597 0.04253 0.16740 -0.44100
O 	O 	0.71194 0.11419 0.09195 -0.41200
O 	O 	0.70140 0.38789 0.14980 -0.31900
O 	O 	0.67023 0.43002 0.29400 -0.43400
Cd	Cd	0.00000 0.25333 0.25000 1.09300
Cd	Cd	0.50000 0.75333 0.25000 1.12400
Cd	Cd	-0.00000 0.74667 0.75000 1.09200
Cd	Cd	0.50000 0.24667 0.75000 1.12300
