data_crystal

_cell_length_a 10.60800
_cell_length_b 24.65100
_cell_length_c 7.23900
_cell_angle_alpha 90.00000
_cell_angle_beta  95.29100
_cell_angle_gamma 90.00000

_symmetry_space_group_name_	'P 1'
_symmetry_space_group_name_H-M	'P 1'

loop_
_symmetry_equiv_pos_as_xyz
  x,y,z

loop_
_atom_site_label
_atom_site_type_symbol
_atom_site_fract_x
_atom_site_fract_y
_atom_site_fract_z
_atom_site_charge
O 	O 	0.83400 0.69080 0.23420 -0.39200
N 	N 	0.50140 0.86670 0.09860 -0.21100
N 	N 	0.49920 0.91870 0.16100 -0.19900
C 	C 	0.61330 0.69110 0.24310 -0.12000
C 	C 	0.73530 0.66190 0.23560 0.33700
C 	C 	0.61210 0.74790 0.24290 0.02100
H 	H 	0.68770 0.76680 0.23790 0.03700
O 	O 	0.74030 0.61220 0.23370 -0.35600
O 	O 	0.54520 0.94970 0.75690 -0.43400
H 	H 	0.62570 0.94970 0.76780 0.12400
O 	O 	0.33400 0.19080 0.23420 -0.44900
N 	N 	0.00140 0.36670 0.09860 -0.26600
N 	N 	0.99920 0.41870 0.16100 -0.09400
C 	C 	0.11330 0.19110 0.24310 -0.10600
C 	C 	0.23530 0.16190 0.23560 0.33200
C 	C 	0.11210 0.24790 0.24290 0.02700
H 	H 	0.18770 0.26680 0.23790 0.01900
O 	O 	0.24030 0.11220 0.23370 -0.41100
O 	O 	0.04520 0.44970 0.75690 -0.85700
H 	H 	0.12570 0.44970 0.76780 0.24900
O 	O 	0.16600 0.69080 0.26580 -0.47000
N 	N 	0.49860 0.86670 0.40140 -0.18400
N 	N 	0.50080 0.91870 0.33900 -0.18500
C 	C 	0.38670 0.69110 0.25690 -0.13700
C 	C 	0.26470 0.66190 0.26440 0.35700
C 	C 	0.38790 0.74790 0.25710 0.02800
H 	H 	0.31230 0.76680 0.26210 0.01900
O 	O 	0.25970 0.61220 0.26630 -0.40800
O 	O 	0.45480 0.94970 0.74310 -0.42000
H 	H 	0.37430 0.94970 0.73220 0.10000
O 	O 	0.66600 0.19080 0.26580 -0.43500
N 	N 	0.99860 0.36670 0.40140 -0.05500
N 	N 	0.00080 0.41870 0.33900 -0.31100
C 	C 	0.88670 0.19110 0.25690 -0.00700
C 	C 	0.76470 0.16190 0.26440 0.32200
C 	C 	0.88790 0.24790 0.25710 0.15100
H 	H 	0.81230 0.26680 0.26210 0.00300
O 	O 	0.75970 0.11220 0.26630 -0.36000
O 	O 	0.95480 0.44970 0.74310 -0.00800
H 	H 	0.87430 0.44970 0.73220 -0.05000
O 	O 	0.16600 0.30920 0.76580 -0.42700
N 	N 	0.49860 0.13330 0.90140 -0.15500
N 	N 	0.50080 0.08130 0.83900 -0.18200
C 	C 	0.38670 0.30890 0.75690 -0.09900
C 	C 	0.26470 0.33810 0.76440 0.35300
C 	C 	0.38790 0.25210 0.75710 0.01800
H 	H 	0.31230 0.23320 0.76210 0.04800
O 	O 	0.25970 0.38780 0.76630 -0.37600
O 	O 	0.45480 0.05030 0.24310 -0.46000
H 	H 	0.37430 0.05030 0.23220 0.05200
O 	O 	0.66600 0.80920 0.76580 -0.38700
N 	N 	0.99860 0.63330 0.90140 -0.02600
N 	N 	0.00080 0.58130 0.83900 -0.28000
C 	C 	0.88670 0.80890 0.75690 0.04700
C 	C 	0.76470 0.83810 0.76440 0.31100
C 	C 	0.88790 0.75210 0.75710 0.12900
H 	H 	0.81230 0.73320 0.76210 0.03900
O 	O 	0.75970 0.88780 0.76630 -0.30100
O 	O 	0.95480 0.55030 0.24310 -0.01900
H 	H 	0.87430 0.55030 0.23220 -0.07200
O 	O 	0.83400 0.30920 0.73420 -0.35200
N 	N 	0.50140 0.13330 0.59860 -0.18400
N 	N 	0.49920 0.08130 0.66100 -0.20300
C 	C 	0.61330 0.30890 0.74310 -0.08200
C 	C 	0.73530 0.33810 0.73560 0.33400
C 	C 	0.61210 0.25210 0.74290 0.01000
H 	H 	0.68770 0.23320 0.73790 0.06600
O 	O 	0.74030 0.38780 0.73370 -0.32400
O 	O 	0.54520 0.05030 0.25690 -0.47500
H 	H 	0.62570 0.05030 0.26780 0.07600
O 	O 	0.33400 0.80920 0.73420 -0.40000
N 	N 	0.00140 0.63330 0.59860 -0.23500
N 	N 	0.99920 0.58130 0.66100 -0.07200
C 	C 	0.11330 0.80890 0.74310 -0.05100
C 	C 	0.23530 0.83810 0.73560 0.32100
C 	C 	0.11210 0.75210 0.74290 0.00700
H 	H 	0.18770 0.73320 0.73790 0.05500
O 	O 	0.24030 0.88780 0.73370 -0.35200
O 	O 	0.04520 0.55030 0.25690 -0.88200
H 	H 	0.12570 0.55030 0.26780 0.23100
Cd	Cd	0.50000 0.86152 0.75000 1.23600
Cd	Cd	0.00000 0.36152 0.75000 1.19500
Cd	Cd	0.50000 0.13848 0.25000 1.21400
Cd	Cd	0.00000 0.63848 0.25000 1.17500
Cd	Cd	0.50000 0.00000 -0.00000 1.11100
Cd	Cd	-0.00000 0.50000 -0.00000 1.09700
Cd	Cd	0.50000 -0.00000 0.50000 1.14300
Cd	Cd	0.00000 0.50000 0.50000 1.12900
C 	C 	0.50000 0.77650 0.25000 -0.09300
C 	C 	0.50000 0.66370 0.25000 0.05300
H 	H 	0.50000 0.62600 0.25000 0.01700
C 	C 	0.50000 0.83640 0.25000 0.13000
C 	C 	0.00000 0.27650 0.25000 -0.21000
C 	C 	0.00000 0.16370 0.25000 -0.12900
H 	H 	0.00000 0.12600 0.25000 0.02900
C 	C 	0.00000 0.33640 0.25000 0.03700
C 	C 	0.50000 0.22350 0.75000 -0.05500
C 	C 	0.50000 0.33630 0.75000 0.03700
H 	H 	0.50000 0.37400 0.75000 0.03900
C 	C 	0.50000 0.16360 0.75000 0.13900
C 	C 	0.00000 0.72350 0.75000 -0.16200
C 	C 	-0.00000 0.83630 0.75000 -0.15600
H 	H 	0.00000 0.87400 0.75000 0.07300
C 	C 	0.00000 0.66360 0.75000 0.04900
