data_crystal

_cell_length_a 18.00100
_cell_length_b 18.00100
_cell_length_c 12.94600
_cell_angle_alpha 90.00000
_cell_angle_beta  90.00000
_cell_angle_gamma 90.00000

_symmetry_space_group_name_	'P 1'
_symmetry_space_group_name_H-M	'P 1'

loop_
_symmetry_equiv_pos_as_xyz
  x,y,z

loop_
_atom_site_label
_atom_site_type_symbol
_atom_site_fract_x
_atom_site_fract_y
_atom_site_fract_z
_atom_site_charge
N 	N 	0.55740 0.04370 0.30750 -0.14000
N 	N 	0.51400 0.01120 0.15390 -0.26800
N 	N 	0.91290 0.06610 0.47420 -0.21600
N 	N 	0.79850 0.10650 0.45600 -0.13800
C 	C 	0.60130 0.07780 0.38550 0.17000
C 	C 	0.84210 0.04720 0.47090 0.03800
H 	H 	0.82470 0.99890 0.47810 0.04200
C 	C 	0.60760 0.15120 0.53960 0.04800
C 	C 	0.67880 0.07280 0.38250 -0.23300
H 	H 	0.70260 0.04650 0.33030 0.13500
C 	C 	0.71880 0.10800 0.45890 0.18000
C 	C 	0.56860 0.04380 0.20460 0.09000
H 	H 	0.61010 0.06450 0.17280 -0.00500
O 	O 	0.49970 0.19880 0.62790 -0.22500
C 	C 	0.46470 0.98840 0.22990 0.12200
H 	H 	0.42050 0.96300 0.21790 -0.00500
C 	C 	0.56620 0.11760 0.46240 -0.17400
H 	H 	0.51470 0.12180 0.46250 0.10000
C 	C 	0.68510 0.14620 0.53740 -0.18100
H 	H 	0.71340 0.16860 0.58880 0.11300
C 	C 	0.49010 0.00840 0.32370 -0.09200
H 	H 	0.46700 0.00010 0.38690 0.05400
C 	C 	0.91430 0.14150 0.45920 0.00600
H 	H 	0.95700 0.17050 0.45690 0.02600
O 	O 	0.60980 0.23450 0.68090 -0.23200
C 	C 	0.84470 0.16720 0.44840 0.01500
H 	H 	0.83060 0.21630 0.43780 0.04100
C 	C 	0.57180 0.19610 0.62350 0.23700
N 	N 	0.94260 0.45630 0.30750 -0.13400
N 	N 	0.98600 0.48880 0.15390 -0.20400
N 	N 	0.58710 0.43390 0.47420 -0.23200
N 	N 	0.70150 0.39350 0.45600 -0.15000
C 	C 	0.89870 0.42220 0.38550 0.18400
C 	C 	0.65790 0.45280 0.47090 0.11100
H 	H 	0.67530 0.50110 0.47810 -0.01600
C 	C 	0.89240 0.34880 0.53960 0.04500
C 	C 	0.82120 0.42720 0.38250 -0.23700
H 	H 	0.79740 0.45350 0.33030 0.14500
C 	C 	0.78120 0.39200 0.45890 0.19000
C 	C 	0.93140 0.45620 0.20460 0.10500
H 	H 	0.88990 0.43550 0.17280 -0.00300
O 	O 	0.00030 0.30120 0.62790 -0.26700
C 	C 	0.03530 0.51160 0.22990 -0.03300
H 	H 	0.07950 0.53700 0.21790 0.03500
C 	C 	0.93380 0.38240 0.46240 -0.17100
H 	H 	0.98530 0.37820 0.46250 0.11600
C 	C 	0.81490 0.35380 0.53740 -0.17900
H 	H 	0.78660 0.33140 0.58880 0.11400
C 	C 	0.00990 0.49160 0.32370 -0.02200
H 	H 	0.03300 0.49990 0.38690 0.03400
C 	C 	0.58570 0.35850 0.45920 0.00500
H 	H 	0.54300 0.32950 0.45690 0.01800
O 	O 	0.89020 0.26550 0.68090 -0.23900
C 	C 	0.65530 0.33280 0.44840 0.01400
H 	H 	0.66940 0.28370 0.43780 0.04100
C 	C 	0.92820 0.30390 0.62350 0.28100
N 	N 	0.95630 0.05740 0.80750 -0.17500
N 	N 	0.98880 0.01400 0.65390 -0.21200
N 	N 	0.93390 0.41290 0.97420 -0.22400
N 	N 	0.89350 0.29850 0.95600 -0.16800
C 	C 	0.92220 0.10130 0.88550 0.19300
C 	C 	0.95280 0.34210 0.97090 0.18700
H 	H 	0.00110 0.32470 0.97810 -0.06300
C 	C 	0.84880 0.10760 0.03960 0.04000
C 	C 	0.92720 0.17880 0.88250 -0.26300
H 	H 	0.95350 0.20260 0.83030 0.16000
C 	C 	0.89200 0.21880 0.95890 0.25900
C 	C 	0.95620 0.06860 0.70460 0.10300
H 	H 	0.93550 0.11010 0.67280 0.00600
O 	O 	0.80120 0.99970 0.12790 -0.17500
C 	C 	0.01160 0.96470 0.72990 -0.07400
H 	H 	0.03700 0.92050 0.71790 0.05500
C 	C 	0.88240 0.06620 0.96240 -0.14200
H 	H 	0.87820 0.01470 0.96250 0.10000
C 	C 	0.85380 0.18510 0.03740 -0.25600
H 	H 	0.83140 0.21340 0.08880 0.13100
C 	C 	0.99160 0.99010 0.82370 0.12200
H 	H 	0.99990 0.96700 0.88690 0.02800
C 	C 	0.85850 0.41430 0.95920 0.00900
H 	H 	0.82950 0.45700 0.95690 0.03500
O 	O 	0.76550 0.10980 0.18090 -0.22700
C 	C 	0.83280 0.34470 0.94840 0.02600
H 	H 	0.78370 0.33060 0.93780 0.04700
C 	C 	0.80390 0.07180 0.12350 0.19300
N 	N 	0.54370 0.44260 0.80750 -0.14800
N 	N 	0.51120 0.48600 0.65390 -0.22700
N 	N 	0.56610 0.08710 0.97420 -0.22400
N 	N 	0.60650 0.20150 0.95600 -0.15600
C 	C 	0.57780 0.39870 0.88550 0.18100
C 	C 	0.54720 0.15790 0.97090 0.11800
H 	H 	0.49890 0.17530 0.97810 -0.01500
C 	C 	0.65120 0.39240 0.03960 0.02000
C 	C 	0.57280 0.32120 0.88250 -0.25300
H 	H 	0.54650 0.29740 0.83030 0.14900
C 	C 	0.60800 0.28120 0.95890 0.24400
C 	C 	0.54380 0.43140 0.70460 0.10200
H 	H 	0.56450 0.38990 0.67280 0.00400
O 	O 	0.69880 0.50030 0.12790 -0.22800
C 	C 	0.48840 0.53530 0.72990 0.00200
H 	H 	0.46300 0.57950 0.71790 0.03100
C 	C 	0.61760 0.43380 0.96240 -0.12600
H 	H 	0.62180 0.48530 0.96250 0.10400
C 	C 	0.64620 0.31490 0.03740 -0.24300
H 	H 	0.66860 0.28660 0.08880 0.12500
C 	C 	0.50840 0.50990 0.82370 0.01000
H 	H 	0.50010 0.53300 0.88690 0.04500
C 	C 	0.64150 0.08570 0.95920 0.00900
H 	H 	0.67050 0.04300 0.95690 0.02500
O 	O 	0.73450 0.39020 0.18090 -0.23700
C 	C 	0.66720 0.15530 0.94840 0.02200
H 	H 	0.71630 0.16940 0.93780 0.04700
C 	C 	0.69610 0.42820 0.12350 0.24100
N 	N 	0.44260 0.95630 0.69250 -0.16300
N 	N 	0.48600 0.98880 0.84610 -0.17900
N 	N 	0.08710 0.93390 0.52580 -0.23900
N 	N 	0.20150 0.89350 0.54400 -0.16500
C 	C 	0.39870 0.92220 0.61450 0.20000
C 	C 	0.15790 0.95280 0.52910 0.18700
H 	H 	0.17530 0.00110 0.52190 -0.08000
C 	C 	0.39240 0.84880 0.46040 0.06800
C 	C 	0.32120 0.92720 0.61750 -0.24900
H 	H 	0.29740 0.95350 0.66970 0.15600
C 	C 	0.28120 0.89200 0.54110 0.20700
C 	C 	0.43140 0.95620 0.79540 0.11100
H 	H 	0.38990 0.93550 0.82720 0.01300
O 	O 	0.50030 0.80120 0.37210 -0.21100
C 	C 	0.53530 0.01160 0.77010 -0.11500
H 	H 	0.57950 0.03700 0.78210 0.06400
C 	C 	0.43380 0.88240 0.53760 -0.18900
H 	H 	0.48530 0.87820 0.53750 0.11600
C 	C 	0.31490 0.85380 0.46260 -0.19600
H 	H 	0.28660 0.83140 0.41120 0.12000
C 	C 	0.50990 0.99160 0.67630 0.10500
H 	H 	0.53300 0.99990 0.61310 0.01700
C 	C 	0.08570 0.85850 0.54080 0.00400
H 	H 	0.04300 0.82950 0.54310 0.01800
O 	O 	0.39020 0.76550 0.31910 -0.22900
C 	C 	0.15530 0.83280 0.55160 0.01500
H 	H 	0.16940 0.78370 0.56220 0.04100
C 	C 	0.42820 0.80390 0.37650 0.23400
N 	N 	0.05740 0.54370 0.69250 -0.16800
N 	N 	0.01400 0.51120 0.84610 -0.23600
N 	N 	0.41290 0.56610 0.52580 -0.23300
N 	N 	0.29850 0.60650 0.54400 -0.15200
C 	C 	0.10130 0.57780 0.61450 0.18600
C 	C 	0.34210 0.54720 0.52910 0.11100
H 	H 	0.32470 0.49890 0.52190 -0.02100
C 	C 	0.10760 0.65120 0.46040 0.07100
C 	C 	0.17880 0.57280 0.61750 -0.24600
H 	H 	0.20260 0.54650 0.66970 0.14600
C 	C 	0.21880 0.60800 0.54110 0.19600
C 	C 	0.06860 0.54380 0.79540 0.09800
H 	H 	0.11010 0.56450 0.82720 0.01300
O 	O 	0.99970 0.69880 0.37210 -0.16900
C 	C 	0.96470 0.48840 0.77010 0.02800
H 	H 	0.92050 0.46300 0.78210 0.02700
C 	C 	0.06620 0.61760 0.53760 -0.19200
H 	H 	0.01470 0.62180 0.53750 0.10100
C 	C 	0.18510 0.64620 0.46260 -0.19700
H 	H 	0.21340 0.66860 0.41120 0.11900
C 	C 	0.99010 0.50840 0.67630 0.04100
H 	H 	0.96700 0.50010 0.61310 0.03500
C 	C 	0.41430 0.64150 0.54080 0.00500
H 	H 	0.45700 0.67050 0.54310 0.02300
O 	O 	0.10980 0.73450 0.31910 -0.22100
C 	C 	0.34470 0.66720 0.55160 0.01500
H 	H 	0.33060 0.71630 0.56220 0.04100
C 	C 	0.07180 0.69610 0.37650 0.19100
N 	N 	0.04370 0.94260 0.19250 -0.12200
N 	N 	0.01120 0.98600 0.34610 -0.23300
N 	N 	0.06610 0.58710 0.02580 -0.23000
N 	N 	0.10650 0.70150 0.04400 -0.13300
C 	C 	0.07780 0.89870 0.11450 0.17700
C 	C 	0.04720 0.65790 0.02910 0.02800
H 	H 	0.99890 0.67530 0.02190 0.03400
C 	C 	0.15120 0.89240 0.96040 0.07400
C 	C 	0.07280 0.82120 0.11750 -0.21900
H 	H 	0.04650 0.79740 0.16970 0.13000
C 	C 	0.10800 0.78120 0.04110 0.12600
C 	C 	0.04380 0.93140 0.29540 0.10000
H 	H 	0.06450 0.88990 0.32720 0.00300
O 	O 	0.19880 0.00030 0.87210 -0.25700
C 	C 	0.98840 0.03530 0.27010 0.08600
H 	H 	0.96300 0.07950 0.28210 0.00200
C 	C 	0.11760 0.93380 0.03760 -0.21900
H 	H 	0.12180 0.98530 0.03750 0.11800
C 	C 	0.14620 0.81490 0.96260 -0.11900
H 	H 	0.16860 0.78660 0.91120 0.10200
C 	C 	0.00840 0.00990 0.17630 -0.12000
H 	H 	0.00010 0.03300 0.11310 0.04400
C 	C 	0.14150 0.58570 0.04080 0.00100
H 	H 	0.17050 0.54300 0.04310 0.00800
O 	O 	0.23450 0.89020 0.81910 -0.23200
C 	C 	0.16720 0.65530 0.05160 0.00300
H 	H 	0.21630 0.66940 0.06220 0.03500
C 	C 	0.19610 0.92820 0.87650 0.27700
N 	N 	0.45630 0.55740 0.19250 -0.15400
N 	N 	0.48880 0.51400 0.34610 -0.22600
N 	N 	0.43390 0.91290 0.02580 -0.22900
N 	N 	0.39350 0.79850 0.04400 -0.14700
C 	C 	0.42220 0.60130 0.11450 0.19000
C 	C 	0.45280 0.84210 0.02910 0.10400
H 	H 	0.50110 0.82470 0.02190 -0.01900
C 	C 	0.34880 0.60760 0.96040 0.09800
C 	C 	0.42720 0.67880 0.11750 -0.23100
H 	H 	0.45350 0.70260 0.16970 0.14200
C 	C 	0.39200 0.71880 0.04110 0.14500
C 	C 	0.45620 0.56860 0.29540 0.10000
H 	H 	0.43550 0.61010 0.32720 0.00300
O 	O 	0.30120 0.49970 0.87210 -0.20700
C 	C 	0.51160 0.46470 0.27010 -0.00500
H 	H 	0.53700 0.42050 0.28210 0.02800
C 	C 	0.38240 0.56620 0.03760 -0.23800
H 	H 	0.37820 0.51470 0.03750 0.11200
C 	C 	0.35380 0.68510 0.96260 -0.13600
H 	H 	0.33140 0.71340 0.91120 0.10900
C 	C 	0.49160 0.49010 0.17630 0.01000
H 	H 	0.49990 0.46700 0.11310 0.02400
C 	C 	0.35850 0.91430 0.04080 0.00200
H 	H 	0.32950 0.95700 0.04310 0.02000
O 	O 	0.26550 0.60980 0.81910 -0.22300
C 	C 	0.33280 0.84470 0.05160 0.00800
H 	H 	0.28370 0.83060 0.06220 0.03500
C 	C 	0.30390 0.57180 0.87650 0.23000
Cu	Cu	0.00000 0.00000 0.50000 0.82300
Cu	Cu	0.50000 0.50000 0.50000 0.85600
Cu	Cu	-0.00000 0.50000 -0.00000 0.82200
Cu	Cu	0.50000 0.00000 -0.00000 0.82100
