data_crystal

_cell_length_a 17.69560
_cell_length_b 6.87450
_cell_length_c 11.93030
_cell_angle_alpha 90.00000
_cell_angle_beta  90.00000
_cell_angle_gamma 90.00000

_symmetry_space_group_name_	'P 1'
_symmetry_space_group_name_H-M	'P 1'

loop_
_symmetry_equiv_pos_as_xyz
  x,y,z

loop_
_atom_site_label
_atom_site_type_symbol
_atom_site_fract_x
_atom_site_fract_y
_atom_site_fract_z
_atom_site_charge
O 	O 	0.07407 0.08640 0.88310 -0.53300
O 	O 	0.41147 0.08590 0.59100 -0.57600
C 	C 	0.20680 0.07430 0.76060 -0.00100
C 	C 	0.27430 0.07430 0.70290 -0.00500
O 	O 	0.42593 0.91360 0.38310 -0.41800
O 	O 	0.08853 0.91410 0.09100 -0.50100
C 	C 	0.29320 0.92570 0.26060 0.09200
C 	C 	0.22570 0.92570 0.20290 0.07100
O 	O 	0.92593 0.58640 0.11690 -0.48000
O 	O 	0.58853 0.58590 0.40900 -0.51800
C 	C 	0.79320 0.57430 0.23940 0.01000
C 	C 	0.72570 0.57430 0.29710 0.01400
O 	O 	0.57407 0.41360 0.61690 -0.48700
O 	O 	0.91147 0.41410 0.90900 -0.34400
C 	C 	0.70680 0.42570 0.73940 0.09200
C 	C 	0.77430 0.42570 0.79710 0.10500
O 	O 	0.92593 0.91360 0.11690 -0.37900
O 	O 	0.58853 0.91410 0.40900 -0.41400
C 	C 	0.79320 0.92570 0.23940 0.09600
C 	C 	0.72570 0.92570 0.29710 0.10000
O 	O 	0.57407 0.08640 0.61690 -0.56700
O 	O 	0.91147 0.08590 0.90900 -0.42300
C 	C 	0.70680 0.07430 0.73940 0.00600
C 	C 	0.77430 0.07430 0.79710 0.02100
O 	O 	0.07407 0.41360 0.88310 -0.45600
O 	O 	0.41147 0.41410 0.59100 -0.49500
C 	C 	0.20680 0.42570 0.76060 0.08400
C 	C 	0.27430 0.42570 0.70290 0.08100
O 	O 	0.42593 0.58640 0.38310 -0.52100
O 	O 	0.08853 0.58590 0.09100 -0.60600
C 	C 	0.29320 0.57430 0.26060 0.00500
C 	C 	0.22570 0.57430 0.20290 -0.01700
V 	V 	-0.00000 0.00000 -0.00000 1.55400
V 	V 	0.50000 0.00000 0.50000 1.72100
V 	V 	-0.00000 0.50000 -0.00000 1.63400
V 	V 	0.50000 0.50000 0.50000 1.80100
O 	O 	0.00640 0.25000 0.07380 -0.83300
C 	C 	0.10090 0.25000 0.85710 0.44000
C 	C 	0.17260 0.25000 0.78960 -0.11900
C 	C 	0.30830 0.25000 0.67470 -0.11600
C 	C 	0.38360 0.25000 0.61360 0.43900
O 	O 	0.49360 0.75000 0.57380 -0.50500
C 	C 	0.39910 0.75000 0.35710 0.42300
C 	C 	0.32740 0.75000 0.28960 -0.11300
C 	C 	0.19170 0.75000 0.17470 -0.11400
C 	C 	0.11640 0.75000 0.11360 0.40100
O 	O 	0.99360 0.75000 0.92620 -0.25400
C 	C 	0.89910 0.75000 0.14290 0.39900
C 	C 	0.82740 0.75000 0.21040 -0.09800
C 	C 	0.69170 0.75000 0.32530 -0.10300
C 	C 	0.61640 0.75000 0.38640 0.42300
O 	O 	0.50640 0.25000 0.42620 -0.68200
C 	C 	0.60090 0.25000 0.64290 0.44500
C 	C 	0.67260 0.25000 0.71040 -0.11700
C 	C 	0.80830 0.25000 0.82530 -0.09500
C 	C 	0.88360 0.25000 0.88640 0.43300
