data_crystal

_cell_length_a 18.51850
_cell_length_b 18.51850
_cell_length_c 19.12150
_cell_angle_alpha 90.00000
_cell_angle_beta  90.00000
_cell_angle_gamma 120.00000

_symmetry_space_group_name_	'P 1'
_symmetry_space_group_name_H-M	'P 1'

loop_
_symmetry_equiv_pos_as_xyz
  x,y,z

loop_
_atom_site_label
_atom_site_type_symbol
_atom_site_fract_x
_atom_site_fract_y
_atom_site_fract_z
_atom_site_charge
O 	O 	0.43949 0.02918 0.08988 -0.42800
O 	O 	0.48069 0.10963 0.99466 -0.43800
C 	C 	0.36440 0.11790 0.14211 0.29200
H 	H 	0.34690 0.06460 0.16190 -0.08400
H 	H 	0.16390 0.16550 0.20820 0.34500
C 	C 	0.41790 0.14437 0.08494 -0.26500
C 	C 	0.44850 0.09000 0.05402 0.43000
O 	O 	0.97082 0.41031 0.08988 -0.42800
O 	O 	0.89037 0.37106 0.99466 -0.44100
C 	C 	0.88210 0.24650 0.14211 0.29000
H 	H 	0.93540 0.28230 0.16190 -0.08400
H 	H 	0.83450 0.99840 0.20820 0.32800
C 	C 	0.85563 0.27353 0.08494 -0.26500
C 	C 	0.91000 0.35850 0.05402 0.43200
O 	O 	0.58969 0.56051 0.08988 -0.43100
O 	O 	0.62894 0.51931 0.99466 -0.43400
C 	C 	0.75350 0.63560 0.14211 0.29100
H 	H 	0.71770 0.65310 0.16190 -0.08600
H 	H 	0.00160 0.83610 0.20820 0.33100
C 	C 	0.72647 0.58210 0.08494 -0.26500
C 	C 	0.64150 0.55150 0.05402 0.42500
O 	O 	0.56051 0.97082 0.58988 -0.43000
O 	O 	0.51931 0.89037 0.49466 -0.43200
C 	C 	0.63560 0.88210 0.64211 0.29000
H 	H 	0.65310 0.93540 0.66190 -0.08500
H 	H 	0.83610 0.83450 0.70820 0.34400
C 	C 	0.58210 0.85563 0.58494 -0.26300
C 	C 	0.55150 0.91000 0.55402 0.42200
O 	O 	0.02918 0.58969 0.58988 -0.42900
O 	O 	0.10963 0.62894 0.49466 -0.43100
C 	C 	0.11790 0.75350 0.64211 0.28600
H 	H 	0.06460 0.71770 0.66190 -0.08300
H 	H 	0.16550 0.00160 0.70820 0.32900
C 	C 	0.14437 0.72647 0.58494 -0.26100
C 	C 	0.09000 0.64150 0.55402 0.42100
O 	O 	0.41031 0.43949 0.58988 -0.43100
O 	O 	0.37106 0.48069 0.49466 -0.43100
C 	C 	0.24650 0.36440 0.64211 0.29000
H 	H 	0.28230 0.34690 0.66190 -0.08600
H 	H 	0.99840 0.16390 0.70820 0.33200
C 	C 	0.27353 0.41790 0.58494 -0.26400
C 	C 	0.35850 0.44850 0.55402 0.42200
O 	O 	0.02918 0.43949 0.91012 -0.42900
O 	O 	0.10963 0.48069 0.00534 -0.43900
C 	C 	0.11790 0.36440 0.85789 0.29100
H 	H 	0.06460 0.34690 0.83810 -0.08500
H 	H 	0.16550 0.16390 0.79180 0.34400
C 	C 	0.14437 0.41790 0.91506 -0.26600
C 	C 	0.09000 0.44850 0.94598 0.42900
O 	O 	0.41031 0.97082 0.91012 -0.42900
O 	O 	0.37106 0.89037 0.00534 -0.44200
C 	C 	0.24650 0.88210 0.85789 0.28900
H 	H 	0.28230 0.93540 0.83810 -0.08400
H 	H 	0.99840 0.83450 0.79180 0.32800
C 	C 	0.27353 0.85563 0.91506 -0.26500
C 	C 	0.35850 0.91000 0.94598 0.43200
O 	O 	0.56051 0.58969 0.91012 -0.43100
O 	O 	0.51931 0.62894 0.00534 -0.43400
C 	C 	0.63560 0.75350 0.85789 0.29100
H 	H 	0.65310 0.71770 0.83810 -0.08600
H 	H 	0.83610 0.00160 0.79180 0.33100
C 	C 	0.58210 0.72647 0.91506 -0.26500
C 	C 	0.55150 0.64150 0.94598 0.42500
O 	O 	0.97082 0.56051 0.41012 -0.43000
O 	O 	0.89037 0.51931 0.50534 -0.43200
C 	C 	0.88210 0.63560 0.35789 0.29000
H 	H 	0.93540 0.65310 0.33810 -0.08500
H 	H 	0.83450 0.83610 0.29180 0.34400
C 	C 	0.85563 0.58210 0.41506 -0.26300
C 	C 	0.91000 0.55150 0.44598 0.42200
O 	O 	0.58969 0.02918 0.41012 -0.42900
O 	O 	0.62894 0.10963 0.50534 -0.43100
C 	C 	0.75350 0.11790 0.35789 0.28600
H 	H 	0.71770 0.06460 0.33810 -0.08300
H 	H 	0.00160 0.16550 0.29180 0.32900
C 	C 	0.72647 0.14437 0.41506 -0.26100
C 	C 	0.64150 0.09000 0.44598 0.42100
O 	O 	0.43949 0.41031 0.41012 -0.43100
O 	O 	0.48069 0.37106 0.50534 -0.43100
C 	C 	0.36440 0.24650 0.35789 0.29000
H 	H 	0.34690 0.28230 0.33810 -0.08600
H 	H 	0.16390 0.99840 0.29180 0.33200
C 	C 	0.41790 0.27353 0.41506 -0.26400
C 	C 	0.44850 0.35850 0.44598 0.42200
O 	O 	0.56051 0.97082 0.91012 -0.42900
O 	O 	0.51931 0.89037 0.00534 -0.43800
C 	C 	0.63560 0.88210 0.85789 0.29100
H 	H 	0.65310 0.93540 0.83810 -0.08500
H 	H 	0.83610 0.83450 0.79180 0.34400
C 	C 	0.58210 0.85563 0.91506 -0.26600
C 	C 	0.55150 0.91000 0.94598 0.42900
O 	O 	0.02918 0.58969 0.91012 -0.43000
O 	O 	0.10963 0.62894 0.00534 -0.44200
C 	C 	0.11790 0.75350 0.85789 0.28900
H 	H 	0.06460 0.71770 0.83810 -0.08400
H 	H 	0.16550 0.00160 0.79180 0.32800
C 	C 	0.14437 0.72647 0.91506 -0.26500
C 	C 	0.09000 0.64150 0.94598 0.43200
O 	O 	0.41031 0.43949 0.91012 -0.43100
O 	O 	0.37106 0.48069 0.00534 -0.43400
C 	C 	0.24650 0.36440 0.85789 0.29100
H 	H 	0.28230 0.34690 0.83810 -0.08600
H 	H 	0.99840 0.16390 0.79180 0.33100
C 	C 	0.27353 0.41790 0.91506 -0.26500
C 	C 	0.35850 0.44850 0.94598 0.42500
O 	O 	0.43949 0.02918 0.41012 -0.43000
O 	O 	0.48069 0.10963 0.50534 -0.43200
C 	C 	0.36440 0.11790 0.35789 0.29000
H 	H 	0.34690 0.06460 0.33810 -0.08500
H 	H 	0.16390 0.16550 0.29180 0.34400
C 	C 	0.41790 0.14437 0.41506 -0.26300
C 	C 	0.44850 0.09000 0.44598 0.42200
O 	O 	0.97082 0.41031 0.41012 -0.42900
O 	O 	0.89037 0.37106 0.50534 -0.43100
C 	C 	0.88210 0.24650 0.35789 0.28600
H 	H 	0.93540 0.28230 0.33810 -0.08300
H 	H 	0.83450 0.99840 0.29180 0.32900
C 	C 	0.85563 0.27353 0.41506 -0.26100
C 	C 	0.91000 0.35850 0.44598 0.42100
O 	O 	0.58969 0.56051 0.41012 -0.43100
O 	O 	0.62894 0.51931 0.50534 -0.43100
C 	C 	0.75350 0.63560 0.35789 0.29000
H 	H 	0.71770 0.65310 0.33810 -0.08600
H 	H 	0.00160 0.83610 0.29180 0.33200
C 	C 	0.72647 0.58210 0.41506 -0.26400
C 	C 	0.64150 0.55150 0.44598 0.42200
O 	O 	0.97082 0.56051 0.08988 -0.42900
O 	O 	0.89037 0.51931 0.99466 -0.43800
C 	C 	0.88210 0.63560 0.14211 0.29100
H 	H 	0.93540 0.65310 0.16190 -0.08500
H 	H 	0.83450 0.83610 0.20820 0.34400
C 	C 	0.85563 0.58210 0.08494 -0.26600
C 	C 	0.91000 0.55150 0.05402 0.42900
O 	O 	0.58969 0.02918 0.08988 -0.42900
O 	O 	0.62894 0.10963 0.99466 -0.44200
C 	C 	0.75350 0.11790 0.14211 0.28900
H 	H 	0.71770 0.06460 0.16190 -0.08400
H 	H 	0.00160 0.16550 0.20820 0.32800
C 	C 	0.72647 0.14437 0.08494 -0.26500
C 	C 	0.64150 0.09000 0.05402 0.43200
O 	O 	0.43949 0.41031 0.08988 -0.43100
O 	O 	0.48069 0.37106 0.99466 -0.43400
C 	C 	0.36440 0.24650 0.14211 0.29100
H 	H 	0.34690 0.28230 0.16190 -0.08600
H 	H 	0.16390 0.99840 0.20820 0.33100
C 	C 	0.41790 0.27353 0.08494 -0.26500
C 	C 	0.44850 0.35850 0.05402 0.42500
O 	O 	0.02918 0.43949 0.58988 -0.43000
O 	O 	0.10963 0.48069 0.49466 -0.43200
C 	C 	0.11790 0.36440 0.64211 0.29000
H 	H 	0.06460 0.34690 0.66190 -0.08500
H 	H 	0.16550 0.16390 0.70820 0.34400
C 	C 	0.14437 0.41790 0.58494 -0.26300
C 	C 	0.09000 0.44850 0.55402 0.42200
O 	O 	0.41031 0.97082 0.58988 -0.42900
O 	O 	0.37106 0.89037 0.49466 -0.43100
C 	C 	0.24650 0.88210 0.64211 0.28600
H 	H 	0.28230 0.93540 0.66190 -0.08300
H 	H 	0.99840 0.83450 0.70820 0.32900
C 	C 	0.27353 0.85563 0.58494 -0.26100
C 	C 	0.35850 0.91000 0.55402 0.42100
O 	O 	0.56051 0.58969 0.58988 -0.43100
O 	O 	0.51931 0.62894 0.49466 -0.43100
C 	C 	0.63560 0.75350 0.64211 0.29000
H 	H 	0.65310 0.71770 0.66190 -0.08600
H 	H 	0.83610 0.00160 0.70820 0.33200
C 	C 	0.58210 0.72647 0.58494 -0.26400
C 	C 	0.55150 0.64150 0.55402 0.42200
Cu	Cu	0.47642 0.95284 0.05626 0.90100
Cu	Cu	0.04716 0.52358 0.05626 0.90100
Cu	Cu	0.47642 0.52358 0.05626 0.90400
Cu	Cu	0.52358 0.04716 0.55626 0.90300
Cu	Cu	0.95284 0.47642 0.55626 0.90300
Cu	Cu	0.52358 0.47642 0.55626 0.90300
Cu	Cu	0.95284 0.47642 0.94374 0.90100
Cu	Cu	0.52358 0.04716 0.94374 0.90100
Cu	Cu	0.52358 0.47642 0.94374 0.90400
Cu	Cu	0.04716 0.52358 0.44374 0.90300
Cu	Cu	0.47642 0.95284 0.44374 0.90300
Cu	Cu	0.47642 0.52358 0.44374 0.90300
Si	Si	0.26565 0.13283 0.25000 1.39100
Si	Si	0.86718 0.13282 0.25000 1.37500
Si	Si	0.86718 0.73435 0.25000 1.39100
Si	Si	0.73435 0.86718 0.75000 1.39100
Si	Si	0.13283 0.86718 0.75000 1.37500
Si	Si	0.13283 0.26565 0.75000 1.39100
C 	C 	0.33600 0.16800 0.17090 -0.54900
C 	C 	0.44290 0.22145 0.05610 0.19100
H 	H 	0.47760 0.23880 0.01590 -0.00400
C 	C 	0.83200 0.16800 0.17090 -0.54300
C 	C 	0.77855 0.22145 0.05610 0.19200
H 	H 	0.76120 0.23880 0.01590 -0.00300
C 	C 	0.83200 0.66400 0.17090 -0.54900
C 	C 	0.77855 0.55710 0.05610 0.19100
H 	H 	0.76120 0.52240 0.01590 -0.00400
C 	C 	0.66400 0.83200 0.67090 -0.54900
C 	C 	0.55710 0.77855 0.55610 0.18900
H 	H 	0.52240 0.76120 0.51590 -0.00500
C 	C 	0.16800 0.83200 0.67090 -0.54200
C 	C 	0.22145 0.77855 0.55610 0.18700
H 	H 	0.23880 0.76120 0.51590 -0.00400
C 	C 	0.16800 0.33600 0.67090 -0.54900
C 	C 	0.22145 0.44290 0.55610 0.18900
H 	H 	0.23880 0.47760 0.51590 -0.00500
C 	C 	0.16800 0.33600 0.82910 -0.54900
C 	C 	0.22145 0.44290 0.94390 0.19100
H 	H 	0.23880 0.47760 0.98410 -0.00400
C 	C 	0.16800 0.83200 0.82910 -0.54300
C 	C 	0.22145 0.77855 0.94390 0.19200
H 	H 	0.23880 0.76120 0.98410 -0.00300
C 	C 	0.66400 0.83200 0.82910 -0.54900
C 	C 	0.55710 0.77855 0.94390 0.19100
H 	H 	0.52240 0.76120 0.98410 -0.00400
C 	C 	0.83200 0.66400 0.32910 -0.54900
C 	C 	0.77855 0.55710 0.44390 0.18900
H 	H 	0.76120 0.52240 0.48410 -0.00500
C 	C 	0.83200 0.16800 0.32910 -0.54200
C 	C 	0.77855 0.22145 0.44390 0.18700
H 	H 	0.76120 0.23880 0.48410 -0.00400
C 	C 	0.33600 0.16800 0.32910 -0.54900
C 	C 	0.44290 0.22145 0.44390 0.18900
H 	H 	0.47760 0.23880 0.48410 -0.00500
C 	C 	0.19920 0.18280 0.25000 -1.29400
H 	H 	0.23490 0.24360 0.25000 0.37000
C 	C 	0.81720 0.01640 0.25000 -1.24700
H 	H 	0.75640 0.99130 0.25000 0.35400
C 	C 	0.98360 0.80080 0.25000 -1.26100
H 	H 	0.00870 0.76510 0.25000 0.35700
C 	C 	0.80080 0.81720 0.75000 -1.29300
H 	H 	0.76510 0.75640 0.75000 0.37000
C 	C 	0.18280 0.98360 0.75000 -1.24700
H 	H 	0.24360 0.00870 0.75000 0.35400
C 	C 	0.01640 0.19920 0.75000 -1.26100
H 	H 	0.99130 0.23490 0.75000 0.35700
C 	C 	0.18280 0.19920 0.75000 -1.29400
H 	H 	0.24360 0.23490 0.75000 0.37000
C 	C 	0.01640 0.81720 0.75000 -1.24700
H 	H 	0.99130 0.75640 0.75000 0.35400
C 	C 	0.80080 0.98360 0.75000 -1.26100
H 	H 	0.76510 0.00870 0.75000 0.35800
C 	C 	0.81720 0.80080 0.25000 -1.29300
H 	H 	0.75640 0.76510 0.25000 0.37000
C 	C 	0.98360 0.18280 0.25000 -1.24700
H 	H 	0.00870 0.24360 0.25000 0.35400
C 	C 	0.19920 0.01640 0.25000 -1.26100
H 	H 	0.23490 0.99130 0.25000 0.35700
