data_crystal

_cell_length_a 19.37700
_cell_length_b 16.27700
_cell_length_c 10.72000
_cell_angle_alpha 90.00000
_cell_angle_beta  101.38400
_cell_angle_gamma 90.00000

_symmetry_space_group_name_	'P 1'
_symmetry_space_group_name_H-M	'P 1'

loop_
_symmetry_equiv_pos_as_xyz
  x,y,z

loop_
_atom_site_label
_atom_site_type_symbol
_atom_site_fract_x
_atom_site_fract_y
_atom_site_fract_z
_atom_site_charge
Zn	Zn	0.01063 0.65856 0.04794 1.21400
Zn	Zn	0.49905 0.65312 0.01872 1.21500
C 	C 	0.02362 0.77720 0.28550 0.18500
N 	N 	0.02197 0.76390 0.40710 -0.24600
C 	C 	0.02150 0.85850 0.22170 -0.24200
H 	H 	0.99310 0.89550 0.26170 0.11800
H 	H 	0.99800 0.85210 0.13360 0.10600
N 	N 	0.02290 0.68180 0.42320 -0.06100
C 	C 	0.14590 0.85500 0.19890 0.05100
H 	H 	0.14180 0.79860 0.18620 0.03700
N 	N 	0.02400 0.64630 0.31490 -0.05800
C 	C 	0.20770 0.89390 0.19110 -0.09800
H 	H 	0.24540 0.86320 0.17450 0.07700
N 	N 	0.02418 0.70520 0.22540 -0.23800
C 	C 	0.21520 0.97830 0.20730 0.04100
N 	N 	0.49797 0.22724 0.32940 -0.24300
C 	C 	0.15770 0.02080 0.23580 -0.09400
H 	H 	0.16060 0.07720 0.24900 0.07600
N 	N 	0.52224 0.30420 0.35640 -0.06900
C 	C 	0.09690 0.97960 0.24450 0.05100
H 	H 	0.05910 0.00850 0.26420 0.03500
N 	N 	0.52640 0.34130 0.25100 -0.06100
C 	C 	0.28150 0.02230 0.19470 0.06600
N 	N 	0.50443 0.28922 0.15250 -0.23500
C 	C 	0.34530 0.98120 0.20750 -0.11700
H 	H 	0.34810 0.92560 0.22790 0.09000
N 	N 	0.09130 0.89763 0.22470 -0.09400
C 	C 	0.79958 0.46130 0.93420 -0.04500
O 	O 	0.91905 0.61012 0.05120 -0.45000
C 	C 	0.73220 0.43070 0.93150 -0.00800
H 	H 	0.72340 0.37510 0.91670 0.05500
O 	O 	0.89974 0.59080 0.84340 -0.30500
C 	C 	0.67758 0.48210 0.95080 -0.03500
O 	O 	0.64463 0.69669 0.00880 -0.30200
C 	C 	0.69165 0.56520 0.97690 -0.04700
O 	O 	0.58185 0.58570 0.03280 -0.44300
C 	C 	0.75897 0.59620 0.97620 -0.00700
H 	H 	0.76780 0.65190 0.99020 0.05100
O 	O 	0.56201 0.45716 0.83560 -0.31100
C 	C 	0.81274 0.54490 0.95480 -0.04100
O 	O 	0.59506 0.39477 0.02130 -0.43500
C 	C 	0.85690 0.40170 0.92090 0.33700
O 	O 	0.84199 0.33430 0.87320 -0.31100
C 	C 	0.60540 0.44420 0.93410 0.32300
O 	O 	0.91944 0.42459 0.96530 -0.44600
C 	C 	0.63595 0.62170 0.00670 0.32600
C 	C 	0.40420 0.02240 0.19010 0.06300
H 	H 	0.44670 0.99440 0.19890 0.03200
N 	N 	0.40156 0.10276 0.16030 -0.10000
C 	C 	0.34140 0.14480 0.15310 0.05600
H 	H 	0.34020 0.20070 0.13460 0.04000
C 	C 	0.28150 0.10610 0.17290 -0.11200
H 	H 	0.24070 0.13640 0.17150 0.07600
C 	C 	0.46400 0.14410 0.12690 -0.22700
H 	H 	0.45310 0.15880 0.03750 0.10500
H 	H 	0.50280 0.10540 0.13890 0.11700
C 	C 	0.48710 0.21980 0.20340 0.19100
C 	C 	0.88340 0.58330 0.94830 0.34100
Zn	Zn	0.98937 0.15856 0.45206 1.21500
Zn	Zn	0.50095 0.15312 0.48128 1.21600
C 	C 	0.97638 0.27720 0.21450 0.18000
N 	N 	0.97803 0.26390 0.09290 -0.24300
C 	C 	0.97850 0.35850 0.27830 -0.21800
H 	H 	0.00690 0.39550 0.23830 0.10800
H 	H 	0.00200 0.35210 0.36640 0.09600
N 	N 	0.97710 0.18180 0.07680 -0.05900
C 	C 	0.85410 0.35500 0.30110 0.05900
H 	H 	0.85820 0.29860 0.31380 0.03500
N 	N 	0.97600 0.14630 0.18510 -0.05700
C 	C 	0.79230 0.39390 0.30890 -0.10700
H 	H 	0.75460 0.36320 0.32550 0.08100
N 	N 	0.97582 0.20520 0.27460 -0.23700
C 	C 	0.78480 0.47830 0.29270 0.05500
N 	N 	0.50203 0.72724 0.17060 -0.24300
C 	C 	0.84230 0.52080 0.26420 -0.10900
H 	H 	0.83940 0.57720 0.25100 0.08200
N 	N 	0.47776 0.80420 0.14360 -0.06900
C 	C 	0.90310 0.47960 0.25550 0.06600
H 	H 	0.94090 0.50850 0.23580 0.03100
N 	N 	0.47360 0.84130 0.24900 -0.06100
C 	C 	0.71850 0.52230 0.30530 0.05400
N 	N 	0.49557 0.78922 0.34750 -0.23500
C 	C 	0.65470 0.48120 0.29250 -0.10300
H 	H 	0.65190 0.42560 0.27210 0.08600
N 	N 	0.90870 0.39763 0.27530 -0.09900
C 	C 	0.20042 0.96130 0.56580 -0.04600
O 	O 	0.08095 0.11012 0.44880 -0.45400
C 	C 	0.26780 0.93070 0.56850 -0.00700
H 	H 	0.27660 0.87510 0.58330 0.05500
O 	O 	0.10026 0.09080 0.65660 -0.30600
C 	C 	0.32242 0.98210 0.54920 -0.03700
O 	O 	0.35537 0.19669 0.49120 -0.30200
C 	C 	0.30835 0.06520 0.52310 -0.04600
O 	O 	0.41815 0.08570 0.46720 -0.44300
C 	C 	0.24103 0.09620 0.52380 -0.00700
H 	H 	0.23220 0.15190 0.50980 0.05100
O 	O 	0.43799 0.95716 0.66440 -0.31100
C 	C 	0.18726 0.04490 0.54520 -0.04100
O 	O 	0.40494 0.89477 0.47870 -0.43700
C 	C 	0.14310 0.90170 0.57910 0.33800
O 	O 	0.15801 0.83430 0.62680 -0.31000
C 	C 	0.39460 0.94420 0.56590 0.32500
O 	O 	0.08056 0.92459 0.53470 -0.44600
C 	C 	0.36405 0.12170 0.49330 0.32400
C 	C 	0.59580 0.52240 0.30990 0.05200
H 	H 	0.55330 0.49440 0.30110 0.03700
N 	N 	0.59844 0.60276 0.33970 -0.09800
C 	C 	0.65860 0.64480 0.34690 0.05100
H 	H 	0.65980 0.70070 0.36540 0.04200
C 	C 	0.71850 0.60610 0.32710 -0.10400
H 	H 	0.75930 0.63640 0.32850 0.07300
C 	C 	0.53600 0.64410 0.37310 -0.22700
H 	H 	0.54690 0.65880 0.46250 0.10400
H 	H 	0.49720 0.60540 0.36110 0.11600
C 	C 	0.51290 0.71980 0.29660 0.19100
C 	C 	0.11660 0.08330 0.55170 0.34500
Zn	Zn	0.98937 0.34144 0.95206 1.21400
Zn	Zn	0.50095 0.34688 0.98128 1.21500
C 	C 	0.97638 0.22280 0.71450 0.18500
N 	N 	0.97803 0.23610 0.59290 -0.24600
C 	C 	0.97850 0.14150 0.77830 -0.24200
H 	H 	0.00690 0.10450 0.73830 0.11800
H 	H 	0.00200 0.14790 0.86640 0.10600
N 	N 	0.97710 0.31820 0.57680 -0.06100
C 	C 	0.85410 0.14500 0.80110 0.05100
H 	H 	0.85820 0.20140 0.81380 0.03700
N 	N 	0.97600 0.35370 0.68510 -0.05800
C 	C 	0.79230 0.10610 0.80890 -0.09800
H 	H 	0.75460 0.13680 0.82550 0.07700
N 	N 	0.97582 0.29480 0.77460 -0.23800
C 	C 	0.78480 0.02170 0.79270 0.04100
N 	N 	0.50203 0.77276 0.67060 -0.24300
C 	C 	0.84230 0.97920 0.76420 -0.09400
H 	H 	0.83940 0.92280 0.75100 0.07600
N 	N 	0.47776 0.69580 0.64360 -0.06900
C 	C 	0.90310 0.02040 0.75550 0.05100
H 	H 	0.94090 0.99150 0.73580 0.03500
N 	N 	0.47360 0.65870 0.74900 -0.06100
C 	C 	0.71850 0.97770 0.80530 0.06600
N 	N 	0.49557 0.71078 0.84750 -0.23500
C 	C 	0.65470 0.01880 0.79250 -0.11700
H 	H 	0.65190 0.07440 0.77210 0.09000
N 	N 	0.90870 0.10237 0.77530 -0.09400
C 	C 	0.20042 0.53870 0.06580 -0.04500
O 	O 	0.08095 0.38988 0.94880 -0.45000
C 	C 	0.26780 0.56930 0.06850 -0.00800
H 	H 	0.27660 0.62490 0.08330 0.05500
O 	O 	0.10026 0.40920 0.15660 -0.30500
C 	C 	0.32242 0.51790 0.04920 -0.03500
O 	O 	0.35537 0.30331 0.99120 -0.30200
C 	C 	0.30835 0.43480 0.02310 -0.04700
O 	O 	0.41815 0.41430 0.96720 -0.44300
C 	C 	0.24103 0.40380 0.02380 -0.00700
H 	H 	0.23220 0.34810 0.00980 0.05100
O 	O 	0.43799 0.54284 0.16440 -0.31100
C 	C 	0.18726 0.45510 0.04520 -0.04100
O 	O 	0.40494 0.60523 0.97870 -0.43500
C 	C 	0.14310 0.59830 0.07910 0.33700
O 	O 	0.15801 0.66570 0.12680 -0.31100
C 	C 	0.39460 0.55580 0.06590 0.32300
O 	O 	0.08056 0.57541 0.03470 -0.44600
C 	C 	0.36405 0.37830 0.99330 0.32600
C 	C 	0.59580 0.97760 0.80990 0.06300
H 	H 	0.55330 0.00560 0.80110 0.03200
N 	N 	0.59844 0.89724 0.83970 -0.10000
C 	C 	0.65860 0.85520 0.84690 0.05600
H 	H 	0.65980 0.79930 0.86540 0.04000
C 	C 	0.71850 0.89390 0.82710 -0.11200
H 	H 	0.75930 0.86360 0.82850 0.07600
C 	C 	0.53600 0.85590 0.87310 -0.22700
H 	H 	0.54690 0.84120 0.96250 0.10500
H 	H 	0.49720 0.89460 0.86110 0.11700
C 	C 	0.51290 0.78020 0.79660 0.19100
C 	C 	0.11660 0.41670 0.05170 0.34100
Zn	Zn	0.01063 0.84144 0.54794 1.21500
Zn	Zn	0.49905 0.84688 0.51872 1.21600
C 	C 	0.02362 0.72280 0.78550 0.18000
N 	N 	0.02197 0.73610 0.90710 -0.24300
C 	C 	0.02150 0.64150 0.72170 -0.21800
H 	H 	0.99310 0.60450 0.76170 0.10800
H 	H 	0.99800 0.64790 0.63360 0.09600
N 	N 	0.02290 0.81820 0.92320 -0.05900
C 	C 	0.14590 0.64500 0.69890 0.05900
H 	H 	0.14180 0.70140 0.68620 0.03500
N 	N 	0.02400 0.85370 0.81490 -0.05700
C 	C 	0.20770 0.60610 0.69110 -0.10700
H 	H 	0.24540 0.63680 0.67450 0.08100
N 	N 	0.02418 0.79480 0.72540 -0.23700
C 	C 	0.21520 0.52170 0.70730 0.05500
N 	N 	0.49797 0.27276 0.82940 -0.24300
C 	C 	0.15770 0.47920 0.73580 -0.10900
H 	H 	0.16060 0.42280 0.74900 0.08200
N 	N 	0.52224 0.19580 0.85640 -0.06900
C 	C 	0.09690 0.52040 0.74450 0.06600
H 	H 	0.05910 0.49150 0.76420 0.03100
N 	N 	0.52640 0.15870 0.75100 -0.06100
C 	C 	0.28150 0.47770 0.69470 0.05400
N 	N 	0.50443 0.21078 0.65250 -0.23500
C 	C 	0.34530 0.51880 0.70750 -0.10300
H 	H 	0.34810 0.57440 0.72790 0.08600
N 	N 	0.09130 0.60237 0.72470 -0.09900
C 	C 	0.79958 0.03870 0.43420 -0.04600
O 	O 	0.91905 0.88988 0.55120 -0.45400
C 	C 	0.73220 0.06930 0.43150 -0.00700
H 	H 	0.72340 0.12490 0.41670 0.05500
O 	O 	0.89974 0.90920 0.34340 -0.30600
C 	C 	0.67758 0.01790 0.45080 -0.03700
O 	O 	0.64463 0.80331 0.50880 -0.30200
C 	C 	0.69165 0.93480 0.47690 -0.04600
O 	O 	0.58185 0.91430 0.53280 -0.44300
C 	C 	0.75897 0.90380 0.47620 -0.00700
H 	H 	0.76780 0.84810 0.49020 0.05100
O 	O 	0.56201 0.04284 0.33560 -0.31100
C 	C 	0.81274 0.95510 0.45480 -0.04100
O 	O 	0.59506 0.10523 0.52130 -0.43700
C 	C 	0.85690 0.09830 0.42090 0.33800
O 	O 	0.84199 0.16570 0.37320 -0.31000
C 	C 	0.60540 0.05580 0.43410 0.32500
O 	O 	0.91944 0.07541 0.46530 -0.44600
C 	C 	0.63595 0.87830 0.50670 0.32400
C 	C 	0.40420 0.47760 0.69010 0.05200
H 	H 	0.44670 0.50560 0.69890 0.03700
N 	N 	0.40156 0.39724 0.66030 -0.09800
C 	C 	0.34140 0.35520 0.65310 0.05100
H 	H 	0.34020 0.29930 0.63460 0.04200
C 	C 	0.28150 0.39390 0.67290 -0.10400
H 	H 	0.24070 0.36360 0.67150 0.07300
C 	C 	0.46400 0.35590 0.62690 -0.22700
H 	H 	0.45310 0.34120 0.53750 0.10400
H 	H 	0.50280 0.39460 0.63890 0.11600
C 	C 	0.48710 0.28020 0.70340 0.19100
C 	C 	0.88340 0.91670 0.44830 0.34500
