data_crystal

_cell_length_a 14.99530
_cell_length_b 17.53350
_cell_length_c 20.23810
_cell_angle_alpha 115.22500
_cell_angle_beta  92.32900
_cell_angle_gamma 105.60600

_symmetry_space_group_name_	'P 1'
_symmetry_space_group_name_H-M	'P 1'

loop_
_symmetry_equiv_pos_as_xyz
  x,y,z

loop_
_atom_site_label
_atom_site_type_symbol
_atom_site_fract_x
_atom_site_fract_y
_atom_site_fract_z
_atom_site_charge
Zn	Zn	0.73128 0.63995 0.34736 1.20700
Zn	Zn	0.79710 0.70182 0.94255 1.21000
Zn	Zn	0.85808 0.77813 0.67850 1.18300
Zn	Zn	0.68762 0.55697 0.60739 1.16300
O 	O 	0.64010 0.43160 0.58020 -0.49200
O 	O 	0.69520 0.51310 0.27890 -0.45000
O 	O 	0.55710 0.49580 0.31590 -0.33200
O 	O 	0.75270 0.58100 0.92910 -0.47600
O 	O 	0.92920 0.74100 0.98630 -0.47800
N 	N 	0.64190 0.70820 0.34480 -0.27200
O 	O 	0.54870 0.42420 0.48800 -0.35100
O 	O 	0.85850 0.67390 0.32690 -0.46900
N 	N 	0.72180 0.62120 0.54530 -0.27400
N 	N 	0.46400 0.11470 0.78350 -0.12900
N 	N 	0.77990 0.86270 0.71300 -0.28100
N 	N 	0.81590 0.71400 0.73990 -0.27000
N 	N 	0.34120 0.97210 0.40430 -0.13400
N 	N 	0.41400 0.04440 0.10010 -0.13200
N 	N 	0.75050 0.63230 0.71530 -0.27000
N 	N 	0.79220 0.70090 0.57150 -0.26500
N 	N 	0.71820 0.78220 0.99160 -0.26800
N 	N 	0.74360 0.65180 0.45210 -0.27600
C 	C 	0.52050 0.81000 0.36220 0.06500
C 	C 	0.63330 0.23370 0.18050 -0.10600
H 	H 	0.68000 0.20660 0.17310 0.06300
N 	N 	0.79090 0.68920 0.83720 -0.27500
O 	O 	0.93790 0.86020 0.97660 -0.34000
C 	C 	0.62970 0.74970 0.00200 0.06600
H 	H 	0.60750 0.69030 0.99200 0.00300
O 	O 	0.60930 0.56340 0.88500 -0.30700
C 	C 	0.55290 0.67190 0.31380 0.08800
H 	H 	0.52980 0.61040 0.28600 -0.00200
C 	C 	0.53950 0.29070 0.49340 -0.12000
C 	C 	0.47160 0.10530 0.44050 0.04400
C 	C 	0.49060 0.72040 0.32000 -0.13600
H 	H 	0.42860 0.69120 0.29520 0.08400
C 	C 	0.61300 0.46550 0.27880 0.33700
O 	O 	0.87240 0.80650 0.41600 -0.30900
C 	C 	0.41030 0.15200 0.43790 -0.11200
H 	H 	0.34650 0.12210 0.41910 0.07700
C 	C 	0.56660 0.15140 0.47030 -0.11100
H 	H 	0.60830 0.12100 0.47120 0.07100
C 	C 	0.49370 0.95540 0.39680 -0.12200
H 	H 	0.55810 0.98120 0.40180 0.07500
C 	C 	0.59100 0.01730 0.75990 0.04900
C 	C 	0.44540 0.24320 0.46360 0.04500
H 	H 	0.40440 0.27360 0.46070 0.01200
C 	C 	0.57100 0.03420 0.09550 -0.11800
H 	H 	0.63550 0.06280 0.10500 0.07000
C 	C 	0.74900 0.99840 0.73820 -0.13800
H 	H 	0.77120 0.05600 0.74350 0.08200
C 	C 	0.53550 0.94210 0.06320 0.05200
C 	C 	0.43480 0.00800 0.41290 0.07600
C 	C 	0.73720 0.62020 0.77450 0.10100
H 	H 	0.69530 0.56930 0.77310 -0.02400
C 	C 	0.36110 0.82810 0.36190 -0.12800
H 	H 	0.33380 0.76710 0.34360 0.07300
C 	C 	0.80760 0.94680 0.72300 0.07900
H 	H 	0.86940 0.97150 0.71970 -0.00500
C 	C 	0.65670 0.32680 0.22090 0.03400
H 	H 	0.71930 0.36120 0.24110 0.02700
C 	C 	0.55780 0.15620 0.80240 0.06700
C 	C 	0.27550 0.91820 0.05590 0.05200
C 	C 	0.45670 0.86440 0.37340 0.05500
C 	C 	0.58910 0.25470 0.83380 0.05100
C 	C 	0.58910 0.36700 0.23080 -0.10700
C 	C 	0.50720 0.08400 0.11390 0.07300
C 	C 	0.49350 0.97490 0.74120 -0.12000
H 	H 	0.46930 0.91330 0.72040 0.07300
C 	C 	0.57750 0.38920 0.52170 0.34800
C 	C 	0.53920 0.18290 0.15170 0.03600
C 	C 	0.74600 0.86770 0.00800 0.07200
H 	H 	0.80690 0.89260 0.00300 0.00400
C 	C 	0.62360 0.10950 0.79280 -0.11500
H 	H 	0.68780 0.14010 0.80830 0.07000
C 	C 	0.83800 0.74330 0.81070 0.11600
H 	H 	0.88310 0.79770 0.84100 -0.02800
C 	C 	0.61300 0.84790 0.39820 -0.12600
H 	H 	0.63610 0.90870 0.42950 0.07800
C 	C 	0.69060 0.82980 0.71980 0.08100
H 	H 	0.66930 0.77160 0.71320 -0.04600
C 	C 	0.62950 0.87900 0.73640 -0.14600
H 	H 	0.56890 0.85360 0.74160 0.08500
C 	C 	0.69490 0.59530 0.47490 0.10900
H 	H 	0.64700 0.54310 0.44420 -0.02200
C 	C 	0.80270 0.71660 0.51430 0.10300
H 	H 	0.84610 0.76710 0.51640 -0.00900
C 	C 	0.43900 0.90260 0.05060 -0.11800
H 	H 	0.41340 0.84110 0.03020 0.07200
C 	C 	0.47220 0.22650 0.16040 -0.10600
H 	H 	0.40950 0.19320 0.13960 0.07300
C 	C 	0.65620 0.96460 0.74550 0.07000
C 	C 	0.67970 0.30310 0.83630 -0.12800
H 	H 	0.72340 0.27360 0.81940 0.07200
C 	C 	0.38040 0.95620 0.06900 0.07200
C 	C 	0.43330 0.02570 0.75410 0.07600
C 	C 	0.07970 0.85300 0.02220 -0.12600
C 	C 	0.30390 0.88400 0.37800 0.07400
C 	C 	0.57160 0.80130 0.02690 -0.13100
H 	H 	0.51180 0.77620 0.03370 0.08000
C 	C 	0.52380 0.29940 0.85510 -0.11700
H 	H 	0.46200 0.26840 0.85330 0.07800
C 	C 	0.13380 0.79530 0.01090 0.04700
H 	H 	0.10350 0.73480 0.99300 0.02500
C 	C 	0.59850 0.24380 0.49890 0.04400
H 	H 	0.66090 0.27480 0.52220 0.02100
C 	C 	0.49620 0.31660 0.19860 0.03500
H 	H 	0.45020 0.34430 0.20310 0.02100
C 	C 	0.22040 0.97140 0.07360 -0.12600
H 	H 	0.24950 0.03250 0.10000 0.08100
C 	C 	0.67210 0.79670 0.38840 0.05800
H 	H 	0.73440 0.82420 0.41260 0.00500
C 	C 	0.70660 0.39280 0.86280 0.05900
H 	H 	0.76910 0.42360 0.86630 0.01900
C 	C 	0.55160 0.39240 0.87980 0.05000
H 	H 	0.50730 0.42210 0.89280 0.02200
C 	C 	0.23040 0.82700 0.02570 -0.12000
H 	H 	0.26530 0.78810 0.01580 0.07100
C 	C 	0.69100 0.92170 0.03200 -0.13500
H 	H 	0.71450 0.98100 0.04170 0.08200
C 	C 	0.90330 0.75160 0.36310 0.33800
C 	C 	0.60050 0.88850 0.04170 0.06600
C 	C 	0.64330 0.43910 0.88470 -0.13600
C 	C 	0.12490 0.94050 0.05480 0.05800
H 	H 	0.09100 0.98030 0.06470 0.02300
C 	C 	0.67000 0.53350 0.90350 0.36000
C 	C 	0.97360 0.81470 0.99340 0.37800
C 	C 	0.13410 0.90250 0.68800 -0.11800
C 	C 	0.19000 0.86300 0.71030 0.03700
H 	H 	0.16240 0.81010 0.71250 0.02500
C 	C 	0.28710 0.90270 0.72920 -0.10800
H 	H 	0.32450 0.87630 0.74410 0.06500
C 	C 	0.32820 0.98180 0.72590 0.03900
C 	C 	0.27230 0.02130 0.70360 -0.10200
H 	H 	0.29990 0.07420 0.70140 0.07300
C 	C 	0.17530 0.98160 0.68470 0.03200
H 	H 	0.13790 0.00810 0.66980 0.03300
O 	O 	0.99270 0.80640 0.69240 -0.50600
O 	O 	0.97510 0.88670 0.64120 -0.33100
C 	C 	0.02960 0.86450 0.67670 0.35600
C 	C 	0.05520 0.87570 0.40380 0.02500
H 	H 	0.02330 0.91510 0.42920 0.04300
C 	C 	0.15170 0.90680 0.40720 -0.09300
H 	H 	0.18440 0.96700 0.43490 0.07400
C 	C 	0.19930 0.84780 0.36930 0.03000
C 	C 	0.15040 0.75780 0.32800 -0.09800
H 	H 	0.18220 0.71840 0.30260 0.05900
C 	C 	0.05390 0.72670 0.32450 0.02400
H 	H 	0.02110 0.66640 0.29690 0.03400
C 	C 	0.00630 0.78560 0.36250 -0.09900
Zn	Zn	0.26872 0.36005 0.65264 1.20800
Zn	Zn	0.20290 0.29818 0.05745 1.21100
Zn	Zn	0.14192 0.22187 0.32150 1.18300
Zn	Zn	0.31238 0.44303 0.39261 1.16300
O 	O 	0.35990 0.56840 0.41980 -0.49200
O 	O 	0.30480 0.48690 0.72110 -0.45000
O 	O 	0.44290 0.50420 0.68410 -0.33200
O 	O 	0.24730 0.41900 0.07090 -0.47600
O 	O 	0.07080 0.25900 0.01370 -0.47800
N 	N 	0.35810 0.29180 0.65520 -0.27200
O 	O 	0.45130 0.57580 0.51200 -0.35100
O 	O 	0.14150 0.32610 0.67310 -0.46900
N 	N 	0.27820 0.37880 0.45470 -0.27400
N 	N 	0.53600 0.88530 0.21650 -0.12900
N 	N 	0.22010 0.13730 0.28700 -0.28100
N 	N 	0.18410 0.28600 0.26010 -0.27000
N 	N 	0.65880 0.02790 0.59570 -0.13400
N 	N 	0.58600 0.95560 0.89990 -0.13200
N 	N 	0.24950 0.36770 0.28470 -0.27000
N 	N 	0.20780 0.29910 0.42850 -0.26500
N 	N 	0.28180 0.21780 0.00840 -0.26800
N 	N 	0.25640 0.34820 0.54790 -0.27600
C 	C 	0.47950 0.19000 0.63780 0.06500
C 	C 	0.36670 0.76630 0.81950 -0.10600
H 	H 	0.32000 0.79340 0.82690 0.06300
N 	N 	0.20910 0.31080 0.16280 -0.27500
O 	O 	0.06210 0.13980 0.02340 -0.34000
C 	C 	0.37030 0.25030 0.99800 0.06600
H 	H 	0.39250 0.30970 0.00800 0.00300
O 	O 	0.39070 0.43660 0.11500 -0.30700
C 	C 	0.44710 0.32810 0.68620 0.08800
H 	H 	0.47020 0.38960 0.71400 -0.00200
C 	C 	0.46050 0.70930 0.50660 -0.12000
C 	C 	0.52840 0.89470 0.55950 0.04400
C 	C 	0.50940 0.27960 0.68000 -0.13600
H 	H 	0.57140 0.30880 0.70480 0.08400
C 	C 	0.38700 0.53450 0.72120 0.33700
O 	O 	0.12760 0.19350 0.58400 -0.30900
C 	C 	0.58970 0.84800 0.56210 -0.11200
H 	H 	0.65350 0.87790 0.58090 0.07700
C 	C 	0.43340 0.84860 0.52970 -0.11100
H 	H 	0.39170 0.87900 0.52880 0.07100
C 	C 	0.50630 0.04460 0.60320 -0.12200
H 	H 	0.44190 0.01880 0.59820 0.07500
C 	C 	0.40900 0.98270 0.24010 0.04900
C 	C 	0.55460 0.75680 0.53640 0.04500
H 	H 	0.59560 0.72640 0.53930 0.01200
C 	C 	0.42900 0.96580 0.90450 -0.11800
H 	H 	0.36450 0.93720 0.89500 0.07000
C 	C 	0.25100 0.00160 0.26180 -0.13800
H 	H 	0.22880 0.94400 0.25650 0.08200
C 	C 	0.46450 0.05790 0.93680 0.05200
C 	C 	0.56520 0.99200 0.58710 0.07600
C 	C 	0.26280 0.37980 0.22550 0.10100
H 	H 	0.30470 0.43070 0.22690 -0.02400
C 	C 	0.63890 0.17190 0.63810 -0.12800
H 	H 	0.66620 0.23290 0.65640 0.07300
C 	C 	0.19240 0.05320 0.27700 0.07900
H 	H 	0.13060 0.02850 0.28030 -0.00500
C 	C 	0.34330 0.67320 0.77910 0.03400
H 	H 	0.28070 0.63880 0.75890 0.02700
C 	C 	0.44220 0.84380 0.19760 0.06700
C 	C 	0.72450 0.08180 0.94410 0.05200
C 	C 	0.54330 0.13560 0.62660 0.05500
C 	C 	0.41090 0.74530 0.16620 0.05100
C 	C 	0.41090 0.63300 0.76920 -0.10700
C 	C 	0.49280 0.91600 0.88610 0.07300
C 	C 	0.50650 0.02510 0.25880 -0.12000
H 	H 	0.53070 0.08670 0.27960 0.07300
C 	C 	0.42250 0.61080 0.47830 0.34800
C 	C 	0.46080 0.81710 0.84830 0.03600
C 	C 	0.25400 0.13230 0.99200 0.07200
H 	H 	0.19310 0.10740 0.99700 0.00400
C 	C 	0.37640 0.89050 0.20720 -0.11500
H 	H 	0.31220 0.85990 0.19170 0.07000
C 	C 	0.16200 0.25670 0.18930 0.11600
H 	H 	0.11690 0.20230 0.15900 -0.02800
C 	C 	0.38700 0.15210 0.60180 -0.12600
H 	H 	0.36390 0.09130 0.57050 0.07800
C 	C 	0.30940 0.17020 0.28020 0.08100
H 	H 	0.33070 0.22840 0.28680 -0.04600
C 	C 	0.37050 0.12100 0.26360 -0.14600
H 	H 	0.43110 0.14640 0.25840 0.08500
C 	C 	0.30510 0.40470 0.52510 0.10900
H 	H 	0.35300 0.45690 0.55580 -0.02200
C 	C 	0.19730 0.28340 0.48570 0.10300
H 	H 	0.15390 0.23290 0.48360 -0.00900
C 	C 	0.56100 0.09740 0.94940 -0.11800
H 	H 	0.58660 0.15890 0.96980 0.07200
C 	C 	0.52780 0.77350 0.83960 -0.10600
H 	H 	0.59050 0.80680 0.86040 0.07300
C 	C 	0.34380 0.03540 0.25450 0.07000
C 	C 	0.32030 0.69690 0.16370 -0.12800
H 	H 	0.27660 0.72640 0.18060 0.07200
C 	C 	0.61960 0.04380 0.93100 0.07200
C 	C 	0.56670 0.97430 0.24590 0.07600
C 	C 	0.92030 0.14700 0.97780 -0.12600
C 	C 	0.69610 0.11600 0.62200 0.07400
C 	C 	0.42840 0.19870 0.97310 -0.13100
H 	H 	0.48820 0.22380 0.96630 0.08000
C 	C 	0.47620 0.70060 0.14490 -0.11700
H 	H 	0.53800 0.73160 0.14670 0.07800
C 	C 	0.86620 0.20470 0.98910 0.04700
H 	H 	0.89650 0.26520 0.00700 0.02500
C 	C 	0.40150 0.75620 0.50110 0.04400
H 	H 	0.33910 0.72520 0.47780 0.02100
C 	C 	0.50380 0.68340 0.80140 0.03500
H 	H 	0.54980 0.65570 0.79690 0.02100
C 	C 	0.77960 0.02860 0.92640 -0.12600
H 	H 	0.75050 0.96750 0.90000 0.08100
C 	C 	0.32790 0.20330 0.61160 0.05800
H 	H 	0.26560 0.17580 0.58740 0.00500
C 	C 	0.29340 0.60720 0.13720 0.05900
H 	H 	0.23090 0.57640 0.13370 0.01900
C 	C 	0.44840 0.60760 0.12020 0.05000
H 	H 	0.49270 0.57790 0.10720 0.02200
C 	C 	0.76960 0.17300 0.97430 -0.12000
H 	H 	0.73470 0.21190 0.98420 0.07100
C 	C 	0.30900 0.07830 0.96800 -0.13500
H 	H 	0.28550 0.01900 0.95830 0.08200
C 	C 	0.09670 0.24840 0.63690 0.33800
C 	C 	0.39950 0.11150 0.95830 0.06600
C 	C 	0.35670 0.56090 0.11530 -0.13600
C 	C 	0.87510 0.05950 0.94520 0.05800
H 	H 	0.90900 0.01970 0.93530 0.02300
C 	C 	0.33000 0.46650 0.09650 0.36000
C 	C 	0.02640 0.18530 0.00660 0.37800
C 	C 	0.86590 0.09750 0.31200 -0.11800
C 	C 	0.81000 0.13700 0.28970 0.03700
H 	H 	0.83760 0.18990 0.28750 0.02500
C 	C 	0.71290 0.09730 0.27080 -0.10800
H 	H 	0.67550 0.12370 0.25590 0.06500
C 	C 	0.67180 0.01820 0.27410 0.03900
C 	C 	0.72770 0.97870 0.29640 -0.10200
H 	H 	0.70010 0.92580 0.29860 0.07300
C 	C 	0.82470 0.01840 0.31530 0.03200
H 	H 	0.86210 0.99190 0.33020 0.03300
O 	O 	0.00730 0.19360 0.30760 -0.50600
O 	O 	0.02490 0.11330 0.35880 -0.33100
C 	C 	0.97040 0.13550 0.32330 0.35600
C 	C 	0.94480 0.12430 0.59620 0.02500
H 	H 	0.97670 0.08490 0.57080 0.04300
C 	C 	0.84830 0.09320 0.59280 -0.09300
H 	H 	0.81560 0.03300 0.56510 0.07400
C 	C 	0.80070 0.15220 0.63070 0.03000
C 	C 	0.84960 0.24220 0.67200 -0.09800
H 	H 	0.81780 0.28160 0.69740 0.05900
C 	C 	0.94610 0.27330 0.67550 0.02400
H 	H 	0.97890 0.33360 0.70310 0.03400
C 	C 	0.99370 0.21440 0.63750 -0.09900
