data_crystal

_cell_length_a 18.43470
_cell_length_b 18.43470
_cell_length_c 23.83200
_cell_angle_alpha 90.00000
_cell_angle_beta  90.00000
_cell_angle_gamma 120.00000

_symmetry_space_group_name_	'P 1'
_symmetry_space_group_name_H-M	'P 1'

loop_
_symmetry_equiv_pos_as_xyz
  x,y,z

loop_
_atom_site_label
_atom_site_type_symbol
_atom_site_fract_x
_atom_site_fract_y
_atom_site_fract_z
_atom_site_charge
C 	C 	0.44920 0.09050 0.54260 0.35800
C 	C 	0.42200 0.14610 0.56990 -0.09300
C 	C 	0.37860 0.12590 0.61974 0.01700
H 	H 	0.36380 0.07500 0.63690 0.05200
O 	O 	0.48090 0.11054 0.49455 -0.40300
O 	O 	0.43790 0.02820 0.57159 -0.39900
C 	C 	0.90950 0.35870 0.54260 0.35800
C 	C 	0.85390 0.27590 0.56990 -0.09300
C 	C 	0.87410 0.25270 0.61974 0.01700
H 	H 	0.92500 0.28880 0.63690 0.05200
O 	O 	0.88946 0.37036 0.49455 -0.40300
O 	O 	0.97180 0.40970 0.57159 -0.39900
C 	C 	0.64130 0.55080 0.54260 0.35800
C 	C 	0.72410 0.57800 0.56990 -0.09400
C 	C 	0.74730 0.62140 0.61974 0.01600
H 	H 	0.71120 0.63620 0.63690 0.05100
O 	O 	0.62964 0.51910 0.49455 -0.40400
O 	O 	0.59030 0.56210 0.57159 -0.39900
C 	C 	0.55080 0.90950 0.04260 0.35800
C 	C 	0.57800 0.85390 0.06990 -0.09400
C 	C 	0.62140 0.87410 0.11974 0.01600
H 	H 	0.63620 0.92500 0.13690 0.05100
O 	O 	0.51910 0.88946 0.99455 -0.40400
O 	O 	0.56210 0.97180 0.07159 -0.40000
C 	C 	0.09050 0.64130 0.04260 0.35800
C 	C 	0.14610 0.72410 0.06990 -0.09400
C 	C 	0.12590 0.74730 0.11974 0.01700
H 	H 	0.07500 0.71120 0.13690 0.05100
O 	O 	0.11054 0.62964 0.99455 -0.40500
O 	O 	0.02820 0.59030 0.07159 -0.40000
C 	C 	0.35870 0.44920 0.04260 0.35800
C 	C 	0.27590 0.42200 0.06990 -0.09400
C 	C 	0.25270 0.37860 0.11974 0.01600
H 	H 	0.28880 0.36380 0.13690 0.05100
O 	O 	0.37036 0.48090 0.99455 -0.40400
O 	O 	0.40970 0.43790 0.07159 -0.40000
C 	C 	0.09050 0.44920 0.45740 0.35700
C 	C 	0.14610 0.42200 0.43010 -0.09400
C 	C 	0.12590 0.37860 0.38026 0.01600
H 	H 	0.07500 0.36380 0.36310 0.05100
O 	O 	0.11054 0.48090 0.50545 -0.40400
O 	O 	0.02820 0.43790 0.42841 -0.40000
C 	C 	0.35870 0.90950 0.45740 0.35700
C 	C 	0.27590 0.85390 0.43010 -0.09400
C 	C 	0.25270 0.87410 0.38026 0.01600
H 	H 	0.28880 0.92500 0.36310 0.05100
O 	O 	0.37036 0.88946 0.50545 -0.40400
O 	O 	0.40970 0.97180 0.42841 -0.40000
C 	C 	0.55080 0.64130 0.45740 0.35700
C 	C 	0.57800 0.72410 0.43010 -0.09400
C 	C 	0.62140 0.74730 0.38026 0.01600
H 	H 	0.63620 0.71120 0.36310 0.05100
O 	O 	0.51910 0.62964 0.50545 -0.40400
O 	O 	0.56210 0.59030 0.42841 -0.39900
C 	C 	0.90950 0.55080 0.95740 0.35800
C 	C 	0.85390 0.57800 0.93010 -0.09400
C 	C 	0.87410 0.62140 0.88026 0.01600
H 	H 	0.92500 0.63620 0.86310 0.05100
O 	O 	0.88946 0.51910 0.00545 -0.40400
O 	O 	0.97180 0.56210 0.92841 -0.40000
C 	C 	0.64130 0.09050 0.95740 0.35800
C 	C 	0.72410 0.14610 0.93010 -0.09400
C 	C 	0.74730 0.12590 0.88026 0.01700
H 	H 	0.71120 0.07500 0.86310 0.05100
O 	O 	0.62964 0.11054 0.00545 -0.40500
O 	O 	0.59030 0.02820 0.92841 -0.40000
C 	C 	0.44920 0.35870 0.95740 0.35800
C 	C 	0.42200 0.27590 0.93010 -0.09400
C 	C 	0.37860 0.25270 0.88026 0.01600
H 	H 	0.36380 0.28880 0.86310 0.05100
O 	O 	0.48090 0.37036 0.00545 -0.40400
O 	O 	0.43790 0.40970 0.92841 -0.40000
C 	C 	0.55080 0.90950 0.45740 0.35700
C 	C 	0.57800 0.85390 0.43010 -0.09400
C 	C 	0.62140 0.87410 0.38026 0.01600
H 	H 	0.63620 0.92500 0.36310 0.05100
O 	O 	0.51910 0.88946 0.50545 -0.40400
O 	O 	0.56210 0.97180 0.42841 -0.40000
C 	C 	0.09050 0.64130 0.45740 0.35700
C 	C 	0.14610 0.72410 0.43010 -0.09400
C 	C 	0.12590 0.74730 0.38026 0.01600
H 	H 	0.07500 0.71120 0.36310 0.05100
O 	O 	0.11054 0.62964 0.50545 -0.40400
O 	O 	0.02820 0.59030 0.42841 -0.40000
C 	C 	0.35870 0.44920 0.45740 0.35700
C 	C 	0.27590 0.42200 0.43010 -0.09400
C 	C 	0.25270 0.37860 0.38026 0.01600
H 	H 	0.28880 0.36380 0.36310 0.05100
O 	O 	0.37036 0.48090 0.50545 -0.40400
O 	O 	0.40970 0.43790 0.42841 -0.39900
C 	C 	0.44920 0.09050 0.95740 0.35800
C 	C 	0.42200 0.14610 0.93010 -0.09400
C 	C 	0.37860 0.12590 0.88026 0.01600
H 	H 	0.36380 0.07500 0.86310 0.05100
O 	O 	0.48090 0.11054 0.00545 -0.40400
O 	O 	0.43790 0.02820 0.92841 -0.40000
C 	C 	0.90950 0.35870 0.95740 0.35800
C 	C 	0.85390 0.27590 0.93010 -0.09400
C 	C 	0.87410 0.25270 0.88026 0.01700
H 	H 	0.92500 0.28880 0.86310 0.05100
O 	O 	0.88946 0.37036 0.00545 -0.40500
O 	O 	0.97180 0.40970 0.92841 -0.40000
C 	C 	0.64130 0.55080 0.95740 0.35800
C 	C 	0.72410 0.57800 0.93010 -0.09400
C 	C 	0.74730 0.62140 0.88026 0.01600
H 	H 	0.71120 0.63620 0.86310 0.05100
O 	O 	0.62964 0.51910 0.00545 -0.40400
O 	O 	0.59030 0.56210 0.92841 -0.39900
C 	C 	0.90950 0.55080 0.54260 0.35700
C 	C 	0.85390 0.57800 0.56990 -0.09400
C 	C 	0.87410 0.62140 0.61974 0.01600
H 	H 	0.92500 0.63620 0.63690 0.05100
O 	O 	0.88946 0.51910 0.49455 -0.40400
O 	O 	0.97180 0.56210 0.57159 -0.40000
C 	C 	0.64130 0.09050 0.54260 0.35700
C 	C 	0.72410 0.14610 0.56990 -0.09400
C 	C 	0.74730 0.12590 0.61974 0.01600
H 	H 	0.71120 0.07500 0.63690 0.05100
O 	O 	0.62964 0.11054 0.49455 -0.40400
O 	O 	0.59030 0.02820 0.57159 -0.40000
C 	C 	0.44920 0.35870 0.54260 0.35700
C 	C 	0.42200 0.27590 0.56990 -0.09400
C 	C 	0.37860 0.25270 0.61974 0.01600
H 	H 	0.36380 0.28880 0.63690 0.05100
O 	O 	0.48090 0.37036 0.49455 -0.40400
O 	O 	0.43790 0.40970 0.57159 -0.39900
C 	C 	0.09050 0.44920 0.04260 0.35800
C 	C 	0.14610 0.42200 0.06990 -0.09400
C 	C 	0.12590 0.37860 0.11974 0.01600
H 	H 	0.07500 0.36380 0.13690 0.05100
O 	O 	0.11054 0.48090 0.99455 -0.40400
O 	O 	0.02820 0.43790 0.07159 -0.39900
C 	C 	0.35870 0.90950 0.04260 0.35800
C 	C 	0.27590 0.85390 0.06990 -0.09400
C 	C 	0.25270 0.87410 0.11974 0.01700
H 	H 	0.28880 0.92500 0.13690 0.05100
O 	O 	0.37036 0.88946 0.99455 -0.40500
O 	O 	0.40970 0.97180 0.07159 -0.40000
C 	C 	0.55080 0.64130 0.04260 0.35800
C 	C 	0.57800 0.72410 0.06990 -0.09400
C 	C 	0.62140 0.74730 0.11974 0.01600
H 	H 	0.63620 0.71120 0.13690 0.05100
O 	O 	0.51910 0.62964 0.99455 -0.40400
O 	O 	0.56210 0.59030 0.07159 -0.39900
C 	C 	0.44260 0.22130 0.54560 0.04000
H 	H 	0.47130 0.23565 0.51160 0.05300
C 	C 	0.35690 0.17845 0.64420 -0.05900
C 	C 	0.30950 0.15475 0.69970 0.16600
C 	C 	0.22560 0.11280 0.70080 -0.38400
H 	H 	0.19750 0.09875 0.66670 0.22700
H 	H 	0.46760 0.23380 0.78130 0.14700
C 	C 	0.77870 0.22130 0.54560 0.04000
H 	H 	0.76435 0.23565 0.51160 0.05300
C 	C 	0.82155 0.17845 0.64420 -0.05900
C 	C 	0.84525 0.15475 0.69970 0.16600
C 	C 	0.88720 0.11280 0.70080 -0.38400
H 	H 	0.90125 0.09875 0.66670 0.22700
H 	H 	0.76620 0.23380 0.78130 0.14700
C 	C 	0.77870 0.55740 0.54560 0.04000
H 	H 	0.76435 0.52870 0.51160 0.05300
C 	C 	0.82155 0.64310 0.64420 -0.05900
C 	C 	0.84525 0.69050 0.69970 0.16600
C 	C 	0.88720 0.77440 0.70080 -0.38400
H 	H 	0.90125 0.80250 0.66670 0.22700
H 	H 	0.76620 0.53240 0.78130 0.14700
C 	C 	0.55740 0.77870 0.04560 0.04000
H 	H 	0.52870 0.76435 0.01160 0.05300
C 	C 	0.64310 0.82155 0.14420 -0.05900
C 	C 	0.69050 0.84525 0.19970 0.16600
C 	C 	0.77440 0.88720 0.20080 -0.38400
H 	H 	0.80250 0.90125 0.16670 0.22700
H 	H 	0.53240 0.76620 0.28130 0.14700
C 	C 	0.22130 0.77870 0.04560 0.04000
H 	H 	0.23565 0.76435 0.01160 0.05300
C 	C 	0.17845 0.82155 0.14420 -0.05900
C 	C 	0.15475 0.84525 0.19970 0.16600
C 	C 	0.11280 0.88720 0.20080 -0.38400
H 	H 	0.09875 0.90125 0.16670 0.22700
H 	H 	0.23380 0.76620 0.28130 0.14700
C 	C 	0.22130 0.44260 0.04560 0.04000
H 	H 	0.23565 0.47130 0.01160 0.05300
C 	C 	0.17845 0.35690 0.14420 -0.05900
C 	C 	0.15475 0.30950 0.19970 0.16600
C 	C 	0.11280 0.22560 0.20080 -0.38400
H 	H 	0.09875 0.19750 0.16670 0.22700
H 	H 	0.23380 0.46760 0.28130 0.14700
C 	C 	0.22130 0.44260 0.45440 0.04000
H 	H 	0.23565 0.47130 0.48840 0.05300
C 	C 	0.17845 0.35690 0.35580 -0.05900
C 	C 	0.15475 0.30950 0.30030 0.16600
C 	C 	0.11280 0.22560 0.29920 -0.38400
H 	H 	0.09875 0.19750 0.33330 0.22700
H 	H 	0.23380 0.46760 0.21870 0.14700
C 	C 	0.22130 0.77870 0.45440 0.04000
H 	H 	0.23565 0.76435 0.48840 0.05300
C 	C 	0.17845 0.82155 0.35580 -0.05900
C 	C 	0.15475 0.84525 0.30030 0.16600
C 	C 	0.11280 0.88720 0.29920 -0.38400
H 	H 	0.09875 0.90125 0.33330 0.22700
H 	H 	0.23380 0.76620 0.21870 0.14700
C 	C 	0.55740 0.77870 0.45440 0.04000
H 	H 	0.52870 0.76435 0.48840 0.05300
C 	C 	0.64310 0.82155 0.35580 -0.05900
C 	C 	0.69050 0.84525 0.30030 0.16600
C 	C 	0.77440 0.88720 0.29920 -0.38400
H 	H 	0.80250 0.90125 0.33330 0.22700
H 	H 	0.53240 0.76620 0.21870 0.14700
C 	C 	0.77870 0.55740 0.95440 0.04000
H 	H 	0.76435 0.52870 0.98840 0.05300
C 	C 	0.82155 0.64310 0.85580 -0.05900
C 	C 	0.84525 0.69050 0.80030 0.16600
C 	C 	0.88720 0.77440 0.79920 -0.38400
H 	H 	0.90125 0.80250 0.83330 0.22700
H 	H 	0.76620 0.53240 0.71870 0.14700
C 	C 	0.77870 0.22130 0.95440 0.04000
H 	H 	0.76435 0.23565 0.98840 0.05300
C 	C 	0.82155 0.17845 0.85580 -0.05900
C 	C 	0.84525 0.15475 0.80030 0.16600
C 	C 	0.88720 0.11280 0.79920 -0.38400
H 	H 	0.90125 0.09875 0.83330 0.22700
H 	H 	0.76620 0.23380 0.71870 0.14700
C 	C 	0.44260 0.22130 0.95440 0.04000
H 	H 	0.47130 0.23565 0.98840 0.05300
C 	C 	0.35690 0.17845 0.85580 -0.05900
C 	C 	0.30950 0.15475 0.80030 0.16600
C 	C 	0.22560 0.11280 0.79920 -0.38400
H 	H 	0.19750 0.09875 0.83330 0.22700
H 	H 	0.46760 0.23380 0.71870 0.14700
C 	C 	0.35390 0.17695 0.75000 -0.03100
C 	C 	0.17730 0.08865 0.75000 0.63400
N 	N 	0.44070 0.22035 0.75000 -0.27300
C 	C 	0.82305 0.17695 0.75000 -0.03100
C 	C 	0.91135 0.08865 0.75000 0.63400
N 	N 	0.77965 0.22035 0.75000 -0.27300
C 	C 	0.82305 0.64610 0.75000 -0.03100
C 	C 	0.91135 0.82270 0.75000 0.63400
N 	N 	0.77965 0.55930 0.75000 -0.27300
C 	C 	0.64610 0.82305 0.25000 -0.03100
C 	C 	0.82270 0.91135 0.25000 0.63400
N 	N 	0.55930 0.77965 0.25000 -0.27300
C 	C 	0.17695 0.82305 0.25000 -0.03100
C 	C 	0.08865 0.91135 0.25000 0.63400
N 	N 	0.22035 0.77965 0.25000 -0.27300
C 	C 	0.17695 0.35390 0.25000 -0.03100
C 	C 	0.08865 0.17730 0.25000 0.63400
N 	N 	0.22035 0.44070 0.25000 -0.27300
Cu	Cu	0.52406 0.04813 0.45448 0.90700
Cu	Cu	0.95187 0.47593 0.45448 0.90700
Cu	Cu	0.52406 0.47594 0.45448 0.90800
Cu	Cu	0.47594 0.95187 0.95448 0.90700
Cu	Cu	0.04813 0.52407 0.95448 0.90700
Cu	Cu	0.47593 0.52406 0.95448 0.90800
Cu	Cu	0.04813 0.52406 0.54552 0.90700
Cu	Cu	0.47593 0.95187 0.54552 0.90700
Cu	Cu	0.47594 0.52407 0.54552 0.90800
Cu	Cu	0.95187 0.47594 0.04552 0.90700
Cu	Cu	0.52406 0.04813 0.04552 0.90700
Cu	Cu	0.52406 0.47593 0.04552 0.90800
F 	F 	0.10190 0.00600 0.75000 -0.31700
F 	F 	0.99400 0.09590 0.75000 -0.31700
F 	F 	0.90410 0.89810 0.75000 -0.31700
F 	F 	0.89810 0.99400 0.25000 -0.31700
F 	F 	0.00600 0.90410 0.25000 -0.31700
F 	F 	0.09590 0.10190 0.25000 -0.31700
F 	F 	0.00600 0.10190 0.25000 -0.31700
F 	F 	0.09590 0.99400 0.25000 -0.31700
F 	F 	0.89810 0.90410 0.25000 -0.31700
F 	F 	0.99400 0.89810 0.75000 -0.31700
F 	F 	0.90410 0.00600 0.75000 -0.31700
F 	F 	0.10190 0.09590 0.75000 -0.31700
