data_crystal

_cell_length_a 9.54120
_cell_length_b 12.84200
_cell_length_c 14.45500
_cell_angle_alpha 116.31600
_cell_angle_beta  109.19900
_cell_angle_gamma 90.15000

_symmetry_space_group_name_	'P 1'
_symmetry_space_group_name_H-M	'P 1'

loop_
_symmetry_equiv_pos_as_xyz
  x,y,z

loop_
_atom_site_label
_atom_site_type_symbol
_atom_site_fract_x
_atom_site_fract_y
_atom_site_fract_z
_atom_site_charge
Gd	Gd	0.76872 0.51858 0.53731 2.22100
O 	O 	0.40460 0.63630 0.64800 -0.33700
O 	O 	0.24200 0.51280 0.64950 -0.34100
O 	O 	0.32870 0.60510 0.40770 -0.36000
O 	O 	0.57230 0.60880 0.48650 -0.39700
O 	O 	0.91500 0.37760 0.48600 -0.40400
O 	O 	0.07980 0.30100 0.40820 -0.37900
C 	C 	0.34810 0.59920 0.69700 0.77200
C 	C 	0.41180 0.66130 0.82350 -0.26600
C 	C 	0.45950 0.78290 0.88160 0.18700
H 	H 	0.45790 0.82480 0.84280 -0.01000
C 	C 	0.50960 0.84300 0.99700 -0.22400
H 	H 	0.53080 0.92500 0.03460 0.11800
C 	C 	0.52800 0.77810 0.05620 0.19300
C 	C 	0.48320 0.65450 0.99690 -0.23000
H 	H 	0.49350 0.61070 0.03480 0.12100
C 	C 	0.42320 0.59840 0.88130 0.19500
H 	H 	0.39040 0.51720 0.84250 -0.01700
C 	C 	0.67730 0.78060 0.32130 1.21400
H 	H 	0.77820 0.81640 0.34070 -0.07300
C 	C 	0.64350 0.03980 0.31970 0.89000
H 	H 	0.56460 0.02430 0.34170 -0.04200
N 	N 	0.58530 0.83610 0.17210 -0.06500
C 	C 	0.46190 0.62850 0.41980 0.51900
C 	C 	0.49360 0.68510 0.35720 -0.22500
C 	C 	0.37270 0.68780 0.27080 0.19800
H 	H 	0.27420 0.65870 0.25620 -0.01700
C 	C 	0.40200 0.73330 0.20920 -0.28100
H 	H 	0.32270 0.73100 0.14960 0.14700
C 	C 	0.54980 0.78420 0.23270 0.28300
C 	C 	0.64410 0.73040 0.38040 0.12400
H 	H 	0.72240 0.72620 0.43680 0.45800
C 	C 	0.96200 0.29370 0.42300 0.56000
C 	C 	0.86370 0.17190 0.35640 -0.27200
C 	C 	0.73750 0.15000 0.37950 0.27100
H 	H 	0.71620 0.21070 0.43620 0.12300
C 	C 	0.67170 0.95070 0.23160 0.30200
C 	C 	0.80160 0.97330 0.20690 -0.27700
H 	H 	0.82070 0.91430 0.14790 0.14900
C 	C 	0.89930 0.08450 0.27220 0.20100
H 	H 	0.98460 0.09830 0.25880 -0.01900
O 	O 	0.71600 0.65220 0.70120 -0.16100
O 	O 	0.98380 0.54710 0.70170 -0.15700
O 	O 	0.40440 0.51610 0.65180 -0.36500
O 	O 	0.24510 0.63620 0.64770 -0.35100
O 	O 	0.91380 0.60460 0.47940 -0.42200
O 	O 	0.08000 0.60390 0.40770 -0.31000
O 	O 	0.56800 0.37480 0.48120 -0.36100
O 	O 	0.32800 0.30050 0.40470 -0.29900
H 	H 	0.59800 0.81550 0.33880 -0.39400
H 	H 	0.73750 0.01870 0.34080 -0.29800
C 	C 	0.95400 0.62320 0.42340 0.40800
C 	C 	0.87100 0.68600 0.35910 0.33300
C 	C 	0.90400 0.68500 0.27400 -0.50500
H 	H 	0.98020 0.64880 0.25260 0.23200
C 	C 	0.80600 0.74800 0.22000 0.76800
H 	H 	0.82860 0.76380 0.16910 -0.21800
C 	C 	0.74800 0.74400 0.37500 -0.81500
H 	H 	0.72380 0.75300 0.43480 -0.23100
C 	C 	0.46700 0.29610 0.42110 0.33800
C 	C 	0.48400 0.16700 0.35600 0.45400
C 	C 	0.63300 0.13900 0.37400 -0.82300
H 	H 	0.71710 0.19640 0.42690 0.06400
C 	C 	0.40800 0.97400 0.21900 0.78500
H 	H 	0.33090 0.90960 0.16770 -0.22800
C 	C 	0.37800 0.08200 0.27400 -0.69400
H 	H 	0.27960 0.09550 0.25360 0.29400
C 	C 	0.69800 0.77700 0.24300 -0.93300
C 	C 	0.54400 0.96400 0.23900 -0.79100
O 	O 	0.71100 0.54510 0.69620 -0.16500
O 	O 	0.98700 0.64690 0.69500 -0.16800
Gd	Gd	0.23128 0.48142 0.46269 2.22200
O 	O 	0.59540 0.36370 0.35200 -0.33600
O 	O 	0.75800 0.48720 0.35050 -0.34000
O 	O 	0.67130 0.39490 0.59230 -0.35900
O 	O 	0.42770 0.39120 0.51350 -0.39600
O 	O 	0.08500 0.62240 0.51400 -0.40300
O 	O 	0.92020 0.69900 0.59180 -0.37900
C 	C 	0.65190 0.40080 0.30300 0.77200
C 	C 	0.58820 0.33870 0.17650 -0.26600
C 	C 	0.54050 0.21710 0.11840 0.18700
H 	H 	0.54210 0.17520 0.15720 -0.01000
C 	C 	0.49040 0.15700 0.00300 -0.22400
H 	H 	0.46920 0.07500 0.96540 0.11800
C 	C 	0.47200 0.22190 0.94380 0.19300
C 	C 	0.51680 0.34550 0.00310 -0.23000
H 	H 	0.50650 0.38930 0.96520 0.12100
C 	C 	0.57680 0.40160 0.11870 0.19500
H 	H 	0.60960 0.48280 0.15750 -0.01700
C 	C 	0.32270 0.21940 0.67870 1.21400
H 	H 	0.22180 0.18360 0.65930 -0.07300
C 	C 	0.35650 0.96020 0.68030 0.89000
H 	H 	0.43540 0.97570 0.65830 -0.04200
N 	N 	0.41470 0.16390 0.82790 -0.06500
C 	C 	0.53810 0.37150 0.58020 0.51900
C 	C 	0.50640 0.31490 0.64280 -0.22500
C 	C 	0.62730 0.31220 0.72920 0.19800
H 	H 	0.72580 0.34130 0.74380 -0.01700
C 	C 	0.59800 0.26670 0.79080 -0.28100
H 	H 	0.67730 0.26900 0.85040 0.14700
C 	C 	0.45020 0.21580 0.76730 0.28300
C 	C 	0.35590 0.26960 0.61960 0.12400
H 	H 	0.27760 0.27380 0.56320 0.45800
C 	C 	0.03800 0.70630 0.57700 0.56000
C 	C 	0.13630 0.82810 0.64360 -0.27200
C 	C 	0.26250 0.85000 0.62050 0.27100
H 	H 	0.28380 0.78930 0.56380 0.12300
C 	C 	0.32830 0.04930 0.76840 0.30200
C 	C 	0.19840 0.02670 0.79310 -0.27700
H 	H 	0.17930 0.08570 0.85210 0.14900
C 	C 	0.10070 0.91550 0.72780 0.20100
H 	H 	0.01540 0.90170 0.74120 -0.01900
O 	O 	0.28400 0.34780 0.29880 -0.16100
O 	O 	0.01620 0.45290 0.29830 -0.15700
O 	O 	0.59560 0.48390 0.34820 -0.36500
O 	O 	0.75490 0.36380 0.35230 -0.35100
O 	O 	0.08620 0.39540 0.52060 -0.42200
O 	O 	0.92000 0.39610 0.59230 -0.31000
O 	O 	0.43200 0.62520 0.51880 -0.36100
O 	O 	0.67200 0.69950 0.59530 -0.29900
H 	H 	0.40200 0.18450 0.66120 -0.39400
H 	H 	0.26250 0.98130 0.65920 -0.29800
C 	C 	0.04600 0.37680 0.57660 0.40800
C 	C 	0.12900 0.31400 0.64090 0.33300
C 	C 	0.09600 0.31500 0.72600 -0.50500
H 	H 	0.01980 0.35120 0.74740 0.23200
C 	C 	0.19400 0.25200 0.78000 0.76800
H 	H 	0.17140 0.23620 0.83090 -0.21800
C 	C 	0.25200 0.25600 0.62500 -0.81500
H 	H 	0.27620 0.24700 0.56520 -0.23100
C 	C 	0.53300 0.70390 0.57890 0.33800
C 	C 	0.51600 0.83300 0.64400 0.45400
C 	C 	0.36700 0.86100 0.62600 -0.82300
H 	H 	0.28290 0.80360 0.57310 0.06400
C 	C 	0.59200 0.02600 0.78100 0.78500
H 	H 	0.66910 0.09040 0.83230 -0.22800
C 	C 	0.62200 0.91800 0.72600 -0.69400
H 	H 	0.72040 0.90450 0.74640 0.29400
C 	C 	0.30200 0.22300 0.75700 -0.93300
C 	C 	0.45600 0.03600 0.76100 -0.79100
O 	O 	0.28900 0.45490 0.30380 -0.16500
O 	O 	0.01300 0.35310 0.30500 -0.16800
