data_crystal

_cell_length_a 10.94880
_cell_length_b 11.73120
_cell_length_c 21.68640
_cell_angle_alpha 90.00000
_cell_angle_beta  90.00000
_cell_angle_gamma 90.00000

_symmetry_space_group_name_	'P 1'
_symmetry_space_group_name_H-M	'P 1'

loop_
_symmetry_equiv_pos_as_xyz
  x,y,z

loop_
_atom_site_label
_atom_site_type_symbol
_atom_site_fract_x
_atom_site_fract_y
_atom_site_fract_z
_atom_site_charge
Zn	Zn	0.86451 0.89341 0.88403 1.20600
Zn	Zn	0.65465 0.19154 0.84150 1.17700
N 	N 	0.81700 0.88950 0.78640 -0.24700
O 	O 	0.77990 0.09830 0.88221 -0.62400
N 	N 	0.00610 0.89470 0.37660 -0.25500
O 	O 	0.81580 0.87860 0.97876 -0.37100
N 	N 	0.51540 0.71300 0.11230 -0.24800
N 	N 	0.69160 0.83100 0.88420 -0.19900
C 	C 	0.89270 0.11530 0.88790 0.59200
C 	C 	0.70110 0.78490 0.15690 -0.07600
C 	C 	0.74190 0.81590 0.09830 0.00500
H 	H 	0.82000 0.85000 0.09360 0.04700
N 	N 	0.63610 0.80050 0.93890 -0.12600
C 	C 	0.71710 0.88110 0.66860 0.04300
H 	H 	0.68340 0.87510 0.62830 -0.00200
C 	C 	0.67030 0.79760 0.04760 -0.06200
C 	C 	0.70020 0.85450 0.77690 0.06900
C 	C 	0.19520 0.98200 0.34460 -0.11900
H 	H 	0.24500 0.00960 0.31200 0.06300
C 	C 	0.55850 0.74540 0.05600 0.02900
H 	H 	0.50910 0.73130 0.02080 0.01900
N 	N 	0.88100 0.85430 0.20600 -0.13000
O 	O 	0.96650 0.03400 0.89088 -0.52300
N 	N 	0.93160 0.87000 0.26370 -0.20300
C 	C 	0.64910 0.85120 0.71920 -0.11500
H 	H 	0.56650 0.82820 0.71430 0.02900
C 	C 	0.71190 0.82820 0.98380 0.18400
C 	C 	0.63470 0.82050 0.83240 -0.06200
H 	H 	0.55360 0.79200 0.83050 0.06500
C 	C 	0.58820 0.73270 0.16090 0.05000
H 	H 	0.56050 0.70940 0.20050 0.00100
C 	C 	0.04500 0.90400 0.43550 0.06800
H 	H 	0.99250 0.87820 0.46750 -0.03100
C 	C 	0.87930 0.92260 0.73760 0.07300
H 	H 	0.96000 0.95030 0.74370 -0.01600
C 	C 	0.03410 0.92490 0.27060 -0.05600
H 	H 	0.07640 0.95650 0.23640 0.04300
C 	C 	0.08090 0.93550 0.33360 0.07900
C 	C 	0.83280 0.91930 0.67660 -0.13400
H 	H 	0.88120 0.94300 0.64260 0.06200
C 	C 	0.15780 0.94950 0.45190 -0.12600
H 	H 	0.18150 0.95470 0.49390 0.05000
C 	C 	0.23350 0.98640 0.40600 0.04000
H 	H 	0.31230 0.01500 0.41580 0.02400
C 	C 	0.94150 0.23580 0.89380 -0.89600
H 	H 	0.88200 0.28300 0.91590 0.24600
H 	H 	0.95550 0.26770 0.85270 0.27700
H 	H 	0.01870 0.23460 0.91670 0.28300
O 	O 	0.72540 0.77280 0.26501 -0.40500
C 	C 	0.77290 0.80280 0.21440 0.20400
Zn	Zn	0.63549 0.10659 0.38403 1.20600
Zn	Zn	0.84535 0.80846 0.34150 1.17500
N 	N 	0.68300 0.11050 0.28640 -0.24700
O 	O 	0.72010 0.90170 0.38221 -0.62800
N 	N 	0.49390 0.10530 0.87660 -0.25600
O 	O 	0.68420 0.12140 0.47876 -0.37000
N 	N 	0.98460 0.28700 0.61230 -0.24900
N 	N 	0.80840 0.16900 0.38420 -0.20000
C 	C 	0.60730 0.88470 0.38790 0.59500
C 	C 	0.79890 0.21510 0.65690 -0.07500
C 	C 	0.75810 0.18410 0.59830 0.00600
H 	H 	0.68000 0.15000 0.59360 0.04700
N 	N 	0.86390 0.19950 0.43890 -0.12500
C 	C 	0.78290 0.11890 0.16860 0.04400
H 	H 	0.81660 0.12490 0.12830 -0.00200
C 	C 	0.82970 0.20240 0.54760 -0.06200
C 	C 	0.79980 0.14550 0.27690 0.07000
C 	C 	0.30480 0.01800 0.84460 -0.12400
H 	H 	0.25500 0.99040 0.81200 0.06800
C 	C 	0.94150 0.25460 0.55600 0.02900
H 	H 	0.99090 0.26870 0.52080 0.01900
N 	N 	0.61900 0.14570 0.70600 -0.12900
O 	O 	0.53350 0.96600 0.39088 -0.52700
N 	N 	0.56840 0.13000 0.76370 -0.20000
C 	C 	0.85090 0.14880 0.21920 -0.11500
H 	H 	0.93350 0.17180 0.21430 0.03000
C 	C 	0.78810 0.17180 0.48380 0.18600
C 	C 	0.86530 0.17950 0.33240 -0.06200
H 	H 	0.94640 0.20800 0.33050 0.06500
C 	C 	0.91180 0.26730 0.66090 0.05000
H 	H 	0.93950 0.29060 0.70050 0.00100
C 	C 	0.45500 0.09600 0.93550 0.06000
H 	H 	0.50750 0.12180 0.96750 -0.02500
C 	C 	0.62070 0.07740 0.23760 0.07400
H 	H 	0.54000 0.04970 0.24370 -0.01500
C 	C 	0.46590 0.07510 0.77060 -0.06000
H 	H 	0.42360 0.04350 0.73640 0.04300
C 	C 	0.41910 0.06450 0.83360 0.08100
C 	C 	0.66720 0.08070 0.17660 -0.13300
H 	H 	0.61880 0.05700 0.14260 0.06300
C 	C 	0.34220 0.05050 0.95190 -0.11900
H 	H 	0.31850 0.04530 0.99390 0.04700
C 	C 	0.26650 0.01360 0.90600 0.03300
H 	H 	0.18770 0.98500 0.91580 0.02900
C 	C 	0.55850 0.76420 0.39380 -0.90700
H 	H 	0.61800 0.71700 0.41590 0.24900
H 	H 	0.54450 0.73230 0.35270 0.27900
H 	H 	0.48130 0.76540 0.41670 0.28800
O 	O 	0.77460 0.22720 0.76501 -0.40500
C 	C 	0.72710 0.19720 0.71440 0.20400
Zn	Zn	0.13549 0.39341 0.61597 1.20600
Zn	Zn	0.34535 0.69154 0.65850 1.17600
N 	N 	0.18300 0.38950 0.71360 -0.24800
O 	O 	0.22010 0.59830 0.61779 -0.62700
N 	N 	0.99390 0.39470 0.12340 -0.25600
O 	O 	0.18420 0.37860 0.52124 -0.37100
N 	N 	0.48460 0.21300 0.38770 -0.24900
N 	N 	0.30840 0.33100 0.61580 -0.20000
C 	C 	0.10730 0.61530 0.61210 0.59400
C 	C 	0.29890 0.28490 0.34310 -0.07600
C 	C 	0.25810 0.31590 0.40170 0.00500
H 	H 	0.18000 0.35000 0.40640 0.04700
N 	N 	0.36390 0.30050 0.56110 -0.12600
C 	C 	0.28290 0.38110 0.83140 0.04300
H 	H 	0.31660 0.37510 0.87170 -0.00200
C 	C 	0.32970 0.29760 0.45240 -0.06300
C 	C 	0.29980 0.35450 0.72310 0.07000
C 	C 	0.80480 0.48200 0.15540 -0.12400
H 	H 	0.75500 0.50960 0.18800 0.06700
C 	C 	0.44150 0.24540 0.44400 0.02900
H 	H 	0.49090 0.23130 0.47920 0.01900
N 	N 	0.11900 0.35430 0.29400 -0.13000
O 	O 	0.03350 0.53400 0.60912 -0.52700
N 	N 	0.06840 0.37000 0.23630 -0.20200
C 	C 	0.35090 0.35120 0.78080 -0.11500
H 	H 	0.43350 0.32820 0.78570 0.02900
C 	C 	0.28810 0.32820 0.51620 0.18500
C 	C 	0.36530 0.32050 0.66760 -0.06200
H 	H 	0.44640 0.29200 0.66950 0.06400
C 	C 	0.41180 0.23270 0.33910 0.05000
H 	H 	0.43950 0.20940 0.29950 0.00100
C 	C 	0.95500 0.40400 0.06450 0.06400
H 	H 	0.00750 0.37820 0.03250 -0.02800
C 	C 	0.12070 0.42260 0.76240 0.07300
H 	H 	0.04000 0.45030 0.75630 -0.01500
C 	C 	0.96590 0.42490 0.22940 -0.05900
H 	H 	0.92360 0.45650 0.26360 0.04300
C 	C 	0.91910 0.43550 0.16640 0.08000
C 	C 	0.16720 0.41930 0.82340 -0.13300
H 	H 	0.11880 0.44300 0.85740 0.06300
C 	C 	0.84220 0.44950 0.04810 -0.12300
H 	H 	0.81850 0.45470 0.00610 0.04900
C 	C 	0.76650 0.48640 0.09400 0.03600
H 	H 	0.68770 0.51500 0.08420 0.02800
C 	C 	0.05850 0.73580 0.60620 -0.90000
H 	H 	0.11800 0.78300 0.58410 0.24700
H 	H 	0.04450 0.76770 0.64730 0.27800
H 	H 	0.98130 0.73460 0.58330 0.28500
O 	O 	0.27460 0.27280 0.23499 -0.40600
C 	C 	0.22710 0.30280 0.28560 0.20400
Zn	Zn	0.36451 0.60659 0.11597 1.20600
Zn	Zn	0.15465 0.30846 0.15850 1.17500
N 	N 	0.31700 0.61050 0.21360 -0.24700
O 	O 	0.27990 0.40170 0.11779 -0.62800
N 	N 	0.50610 0.60530 0.62340 -0.25600
O 	O 	0.31580 0.62140 0.02124 -0.37100
N 	N 	0.01540 0.78700 0.88770 -0.24800
N 	N 	0.19160 0.66900 0.11580 -0.20000
C 	C 	0.39270 0.38470 0.11210 0.59500
C 	C 	0.20110 0.71510 0.84310 -0.07600
C 	C 	0.24190 0.68410 0.90170 0.00500
H 	H 	0.32000 0.65000 0.90640 0.04700
N 	N 	0.13610 0.69950 0.06110 -0.12500
C 	C 	0.21710 0.61890 0.33140 0.04300
H 	H 	0.18340 0.62490 0.37170 -0.00200
C 	C 	0.17030 0.70240 0.95240 -0.06300
C 	C 	0.20020 0.64550 0.22310 0.07000
C 	C 	0.69520 0.51800 0.65540 -0.12400
H 	H 	0.74500 0.49040 0.68800 0.06700
C 	C 	0.05850 0.75460 0.94400 0.02900
H 	H 	0.00910 0.76870 0.97920 0.01900
N 	N 	0.38100 0.64570 0.79400 -0.12900
O 	O 	0.46650 0.46600 0.10912 -0.52700
N 	N 	0.43160 0.63000 0.73630 -0.20100
C 	C 	0.14910 0.64880 0.28080 -0.11500
H 	H 	0.06650 0.67180 0.28570 0.02900
C 	C 	0.21190 0.67180 0.01620 0.18600
C 	C 	0.13470 0.67950 0.16760 -0.06200
H 	H 	0.05360 0.70800 0.16950 0.06500
C 	C 	0.08820 0.76730 0.83910 0.05000
H 	H 	0.06050 0.79060 0.79950 0.00200
C 	C 	0.54500 0.59600 0.56450 0.06000
H 	H 	0.49250 0.62180 0.53250 -0.02500
C 	C 	0.37930 0.57740 0.26240 0.07400
H 	H 	0.46000 0.54970 0.25630 -0.01500
C 	C 	0.53410 0.57510 0.72940 -0.06000
H 	H 	0.57640 0.54350 0.76360 0.04300
C 	C 	0.58090 0.56450 0.66640 0.08000
C 	C 	0.33280 0.58070 0.32340 -0.13300
H 	H 	0.38120 0.55700 0.35740 0.06300
C 	C 	0.65780 0.55050 0.54810 -0.12100
H 	H 	0.68150 0.54530 0.50610 0.04800
C 	C 	0.73350 0.51360 0.59400 0.03500
H 	H 	0.81230 0.48500 0.58420 0.02800
C 	C 	0.44150 0.26420 0.10620 -0.90600
H 	H 	0.38200 0.21700 0.08410 0.24800
H 	H 	0.45550 0.23230 0.14730 0.27900
H 	H 	0.51870 0.26540 0.08330 0.28800
O 	O 	0.22540 0.72720 0.73499 -0.40500
C 	C 	0.27290 0.69720 0.78560 0.20400
