data_crystal

_cell_length_a 28.13200
_cell_length_b 12.61500
_cell_length_c 24.74600
_cell_angle_alpha 90.00000
_cell_angle_beta  120.02600
_cell_angle_gamma 90.00000

_symmetry_space_group_name_	'P 1'
_symmetry_space_group_name_H-M	'P 1'

loop_
_symmetry_equiv_pos_as_xyz
  x,y,z

loop_
_atom_site_label
_atom_site_type_symbol
_atom_site_fract_x
_atom_site_fract_y
_atom_site_fract_z
_atom_site_charge
C 	C 	0.32665 0.39830 0.47850 0.08600
H 	H 	0.32230 0.45030 0.50230 -0.02700
C 	C 	0.32122 0.25360 0.43220 0.00800
H 	H 	0.31200 0.18450 0.41760 0.00000
C 	C 	0.35250 0.31920 0.42000 -0.01600
H 	H 	0.36860 0.30410 0.39600 0.03500
C 	C 	0.38162 0.50980 0.44550 -0.11700
H 	H 	0.37340 0.56620 0.46630 0.06200
H 	H 	0.36560 0.52930 0.40190 0.06300
C 	C 	0.44295 0.50180 0.47390 0.05500
C 	C 	0.47668 0.46810 0.53480 -0.06800
H 	H 	0.46110 0.44590 0.55830 0.05200
C 	C 	0.46695 0.53320 0.43900 -0.07300
H 	H 	0.44490 0.55510 0.39780 0.04600
C 	C 	0.17325 0.45210 0.46440 0.01000
H 	H 	0.17820 0.45940 0.50430 -0.00100
C 	C 	0.17910 0.39400 0.38760 0.08400
H 	H 	0.18850 0.35300 0.36320 -0.02700
C 	C 	0.14130 0.51550 0.41530 -0.01700
H 	H 	0.12060 0.57310 0.41500 0.03500
C 	C 	0.11800 0.52170 0.30300 -0.12200
H 	H 	0.12740 0.47960 0.27680 0.06100
H 	H 	0.13070 0.59350 0.30400 0.06200
C 	C 	0.02800 0.42700 0.26260 -0.07100
H 	H 	0.04680 0.36300 0.27110 0.04900
C 	C 	0.05680 0.52200 0.27550 0.05700
C 	C 	0.02820 0.61570 0.26300 -0.07500
H 	H 	0.04700 0.67970 0.27200 0.04800
N 	N 	0.30506 0.30360 0.46918 -0.25500
N 	N 	0.35578 0.41190 0.44972 -0.10900
N 	N 	0.19691 0.37650 0.44689 -0.25800
N 	N 	0.14582 0.47780 0.36673 -0.10900
C 	C 	0.82665 0.89830 0.47850 0.08500
H 	H 	0.82230 0.95030 0.50230 -0.02900
C 	C 	0.82122 0.75360 0.43220 0.00700
H 	H 	0.81200 0.68450 0.41760 -0.00100
C 	C 	0.85250 0.81920 0.42000 -0.01700
H 	H 	0.86860 0.80410 0.39600 0.03300
C 	C 	0.88162 0.00980 0.44550 -0.11900
H 	H 	0.87340 0.06620 0.46630 0.06200
H 	H 	0.86560 0.02930 0.40190 0.06200
C 	C 	0.94295 0.00180 0.47390 0.05800
C 	C 	0.97668 0.96810 0.53480 -0.07400
H 	H 	0.96110 0.94590 0.55830 0.05400
C 	C 	0.96695 0.03320 0.43900 -0.07700
H 	H 	0.94490 0.05510 0.39780 0.04800
C 	C 	0.67325 0.95210 0.46440 0.00700
H 	H 	0.67820 0.95940 0.50430 -0.00000
C 	C 	0.67910 0.89400 0.38760 0.08400
H 	H 	0.68850 0.85300 0.36320 -0.02800
C 	C 	0.64130 0.01550 0.41530 -0.01300
H 	H 	0.62060 0.07310 0.41500 0.03400
C 	C 	0.61800 0.02170 0.30300 -0.11800
H 	H 	0.62740 0.97960 0.27680 0.05900
H 	H 	0.63070 0.09350 0.30400 0.06200
C 	C 	0.52800 0.92700 0.26260 -0.07300
H 	H 	0.54680 0.86300 0.27110 0.05000
C 	C 	0.55680 0.02200 0.27550 0.05700
C 	C 	0.52820 0.11570 0.26300 -0.07500
H 	H 	0.54700 0.17970 0.27200 0.04800
N 	N 	0.80506 0.80360 0.46918 -0.25500
N 	N 	0.85578 0.91190 0.44972 -0.10900
N 	N 	0.69691 0.87650 0.44689 -0.25800
N 	N 	0.64582 0.97780 0.36673 -0.11000
C 	C 	0.67335 0.39830 0.02150 0.03500
H 	H 	0.67770 0.45030 0.99770 0.01100
C 	C 	0.67878 0.25360 0.06780 0.00400
H 	H 	0.68800 0.18450 0.08240 -0.00300
C 	C 	0.64750 0.31920 0.08000 -0.01600
H 	H 	0.63140 0.30410 0.10400 0.03100
C 	C 	0.61838 0.50980 0.05450 -0.07300
H 	H 	0.62660 0.56620 0.03370 0.04200
H 	H 	0.63440 0.52930 0.09810 0.04800
C 	C 	0.55705 0.50180 0.02610 -0.04100
C 	C 	0.52332 0.46810 0.96520 0.04400
H 	H 	0.53890 0.44590 0.94170 0.02100
C 	C 	0.53305 0.53320 0.06100 0.01300
H 	H 	0.55510 0.55510 0.10220 0.01600
C 	C 	0.82675 0.45210 0.03560 -0.05700
H 	H 	0.82180 0.45940 0.99570 0.04100
C 	C 	0.82090 0.39400 0.11240 0.08300
H 	H 	0.81150 0.35300 0.13680 -0.02800
C 	C 	0.85870 0.51550 0.08470 0.01300
H 	H 	0.87940 0.57310 0.08500 0.01800
C 	C 	0.88200 0.52170 0.19700 -0.12000
H 	H 	0.87260 0.47960 0.22320 0.06100
H 	H 	0.86930 0.59350 0.19600 0.06100
C 	C 	0.97200 0.42700 0.23740 -0.07000
H 	H 	0.95320 0.36300 0.22890 0.04900
C 	C 	0.94320 0.52200 0.22450 0.05500
C 	C 	0.97180 0.61570 0.23700 -0.07300
H 	H 	0.95300 0.67970 0.22800 0.04700
N 	N 	0.69494 0.30360 0.03082 -0.25000
N 	N 	0.64422 0.41190 0.05028 -0.10900
N 	N 	0.80309 0.37650 0.05311 -0.25200
N 	N 	0.85418 0.47780 0.13327 -0.11400
C 	C 	0.17335 0.89830 0.02150 0.03600
H 	H 	0.17770 0.95030 0.99770 0.01000
C 	C 	0.17878 0.75360 0.06780 0.00400
H 	H 	0.18800 0.68450 0.08240 -0.00300
C 	C 	0.14750 0.81920 0.08000 -0.01600
H 	H 	0.13140 0.80410 0.10400 0.03100
C 	C 	0.11838 0.00980 0.05450 -0.07600
H 	H 	0.12660 0.06620 0.03370 0.04300
H 	H 	0.13440 0.02930 0.09810 0.04900
C 	C 	0.05705 0.00180 0.02610 -0.03300
C 	C 	0.02332 0.96810 0.96520 0.03600
H 	H 	0.03890 0.94590 0.94170 0.02300
C 	C 	0.03305 0.03320 0.06100 0.00700
H 	H 	0.05510 0.05510 0.10220 0.01800
C 	C 	0.32675 0.95210 0.03560 -0.05900
H 	H 	0.32180 0.95940 0.99570 0.04100
C 	C 	0.32090 0.89400 0.11240 0.08300
H 	H 	0.31150 0.85300 0.13680 -0.02800
C 	C 	0.35870 0.01550 0.08470 0.01600
H 	H 	0.37940 0.07310 0.08500 0.01700
C 	C 	0.38200 0.02170 0.19700 -0.11600
H 	H 	0.37260 0.97960 0.22320 0.05900
H 	H 	0.36930 0.09350 0.19600 0.06000
C 	C 	0.47200 0.92700 0.23740 -0.07000
H 	H 	0.45320 0.86300 0.22890 0.04900
C 	C 	0.44320 0.02200 0.22450 0.05500
C 	C 	0.47180 0.11570 0.23700 -0.07300
H 	H 	0.45300 0.17970 0.22800 0.04700
N 	N 	0.19494 0.80360 0.03082 -0.25000
N 	N 	0.14422 0.91190 0.05028 -0.10900
N 	N 	0.30309 0.87650 0.05311 -0.25200
N 	N 	0.35418 0.97780 0.13327 -0.11600
C 	C 	0.67335 0.60170 0.52150 0.08500
H 	H 	0.67770 0.54970 0.49770 -0.02900
C 	C 	0.67878 0.74640 0.56780 0.00700
H 	H 	0.68800 0.81550 0.58240 -0.00100
C 	C 	0.64750 0.68080 0.58000 -0.01700
H 	H 	0.63140 0.69590 0.60400 0.03400
C 	C 	0.61838 0.49020 0.55450 -0.11900
H 	H 	0.62660 0.43380 0.53370 0.06200
H 	H 	0.63440 0.47070 0.59810 0.06300
C 	C 	0.55705 0.49820 0.52610 0.05500
C 	C 	0.52332 0.53190 0.46520 -0.07000
H 	H 	0.53890 0.55410 0.44170 0.05200
C 	C 	0.53305 0.46680 0.56100 -0.07400
H 	H 	0.55510 0.44490 0.60220 0.04800
C 	C 	0.82675 0.54790 0.53560 0.01000
H 	H 	0.82180 0.54060 0.49570 -0.00100
C 	C 	0.82090 0.60600 0.61240 0.08400
H 	H 	0.81150 0.64700 0.63680 -0.02700
C 	C 	0.85870 0.48450 0.58470 -0.01700
H 	H 	0.87940 0.42690 0.58500 0.03500
C 	C 	0.88200 0.47830 0.69700 -0.12300
H 	H 	0.87260 0.52040 0.72320 0.06300
H 	H 	0.86930 0.40650 0.69600 0.06400
C 	C 	0.97200 0.57300 0.73740 -0.06900
H 	H 	0.95320 0.63700 0.72890 0.05000
C 	C 	0.94320 0.47800 0.72450 0.05800
C 	C 	0.97180 0.38430 0.73700 -0.07300
H 	H 	0.95300 0.32030 0.72800 0.04900
N 	N 	0.69494 0.69640 0.53082 -0.25500
N 	N 	0.64422 0.58810 0.55028 -0.10900
N 	N 	0.80309 0.62350 0.55311 -0.25800
N 	N 	0.85418 0.52220 0.63327 -0.10800
C 	C 	0.17335 0.10170 0.52150 0.08500
H 	H 	0.17770 0.04970 0.49770 -0.02800
C 	C 	0.17878 0.24640 0.56780 0.00700
H 	H 	0.18800 0.31550 0.58240 -0.00100
C 	C 	0.14750 0.18080 0.58000 -0.01600
H 	H 	0.13140 0.19590 0.60400 0.03400
C 	C 	0.11838 0.99020 0.55450 -0.11800
H 	H 	0.12660 0.93380 0.53370 0.06100
H 	H 	0.13440 0.97070 0.59810 0.06200
C 	C 	0.05705 0.99820 0.52610 0.05000
C 	C 	0.02332 0.03190 0.46520 -0.06400
H 	H 	0.03890 0.05410 0.44170 0.05000
C 	C 	0.03305 0.96680 0.56100 -0.07000
H 	H 	0.05510 0.94490 0.60220 0.04600
C 	C 	0.32675 0.04790 0.53560 0.01400
H 	H 	0.32180 0.04060 0.49570 -0.00200
C 	C 	0.32090 0.10600 0.61240 0.08400
H 	H 	0.31150 0.14700 0.63680 -0.02700
C 	C 	0.35870 0.98450 0.58470 -0.02200
H 	H 	0.37940 0.92690 0.58500 0.03600
C 	C 	0.38200 0.97830 0.69700 -0.12700
H 	H 	0.37260 0.02040 0.72320 0.06600
H 	H 	0.36930 0.90650 0.69600 0.06500
C 	C 	0.47200 0.07300 0.73740 -0.06800
H 	H 	0.45320 0.13700 0.72890 0.05000
C 	C 	0.44320 0.97800 0.72450 0.05700
C 	C 	0.47180 0.88430 0.73700 -0.07200
H 	H 	0.45300 0.82030 0.72800 0.04900
N 	N 	0.19494 0.19640 0.53082 -0.25500
N 	N 	0.14422 0.08810 0.55028 -0.10800
N 	N 	0.30309 0.12350 0.55311 -0.25800
N 	N 	0.35418 0.02220 0.63327 -0.10600
C 	C 	0.32665 0.60170 0.97850 0.13500
H 	H 	0.32230 0.54970 0.00230 -0.06700
C 	C 	0.32122 0.74640 0.93220 0.01100
H 	H 	0.31200 0.81550 0.91760 0.00100
C 	C 	0.35250 0.68080 0.92000 -0.01700
H 	H 	0.36860 0.69590 0.89600 0.03700
C 	C 	0.38162 0.49020 0.94550 -0.16400
H 	H 	0.37340 0.43380 0.96630 0.08200
H 	H 	0.36560 0.47070 0.90190 0.07600
C 	C 	0.44295 0.49820 0.97390 0.15000
C 	C 	0.47668 0.53190 0.03480 -0.18200
H 	H 	0.46110 0.55410 0.05830 0.08300
C 	C 	0.46695 0.46680 0.93900 -0.16000
H 	H 	0.44490 0.44490 0.89780 0.07900
C 	C 	0.17325 0.54790 0.96440 0.07800
H 	H 	0.17820 0.54060 0.00430 -0.04200
C 	C 	0.17910 0.60600 0.88760 0.08500
H 	H 	0.18850 0.64700 0.86320 -0.02600
C 	C 	0.14130 0.48450 0.91530 -0.04800
H 	H 	0.12060 0.42690 0.91500 0.05200
C 	C 	0.11800 0.47830 0.80300 -0.12500
H 	H 	0.12740 0.52040 0.77680 0.06300
H 	H 	0.13070 0.40650 0.80400 0.06600
C 	C 	0.02800 0.57300 0.76260 -0.07100
H 	H 	0.04680 0.63700 0.77110 0.05100
C 	C 	0.05680 0.47800 0.77550 0.06000
C 	C 	0.02820 0.38430 0.76300 -0.07400
H 	H 	0.04700 0.32030 0.77200 0.05000
N 	N 	0.30506 0.69640 0.96918 -0.25600
N 	N 	0.35578 0.58810 0.94972 -0.10900
N 	N 	0.19691 0.62350 0.94689 -0.26100
N 	N 	0.14582 0.52220 0.86673 -0.10300
C 	C 	0.82665 0.10170 0.97850 0.13500
H 	H 	0.82230 0.04970 0.00230 -0.06600
C 	C 	0.82122 0.24640 0.93220 0.01100
H 	H 	0.81200 0.31550 0.91760 0.00100
C 	C 	0.85250 0.18080 0.92000 -0.01700
H 	H 	0.86860 0.19590 0.89600 0.03700
C 	C 	0.88162 0.99020 0.94550 -0.16200
H 	H 	0.87340 0.93380 0.96630 0.08100
H 	H 	0.86560 0.97070 0.90190 0.07500
C 	C 	0.94295 0.99820 0.97390 0.14300
C 	C 	0.97668 0.03190 0.03480 -0.17400
H 	H 	0.96110 0.05410 0.05830 0.08100
C 	C 	0.96695 0.96680 0.93900 -0.15400
H 	H 	0.94490 0.94490 0.89780 0.07600
C 	C 	0.67325 0.04790 0.96440 0.08200
H 	H 	0.67820 0.04060 0.00430 -0.04300
C 	C 	0.67910 0.10600 0.88760 0.08500
H 	H 	0.68850 0.14700 0.86320 -0.02500
C 	C 	0.64130 0.98450 0.91530 -0.05300
H 	H 	0.62060 0.92690 0.91500 0.05300
C 	C 	0.61800 0.97830 0.80300 -0.13000
H 	H 	0.62740 0.02040 0.77680 0.06600
H 	H 	0.63070 0.90650 0.80400 0.06700
C 	C 	0.52800 0.07300 0.76260 -0.07000
H 	H 	0.54680 0.13700 0.77110 0.05200
C 	C 	0.55680 0.97800 0.77550 0.06000
C 	C 	0.52820 0.88430 0.76300 -0.07500
H 	H 	0.54700 0.82030 0.77200 0.05000
N 	N 	0.80506 0.19640 0.96918 -0.25600
N 	N 	0.85578 0.08810 0.94972 -0.10800
N 	N 	0.69691 0.12350 0.94689 -0.26100
N 	N 	0.64582 0.02220 0.86673 -0.10000
Co	Co	0.25000 0.25000 0.50000 1.06800
Co	Co	0.75000 0.25000 -0.00000 1.05700
Co	Co	0.75000 0.75000 0.50000 1.06800
Co	Co	0.25000 0.75000 -0.00000 1.05700
