data_crystal

_cell_length_a 10.25000
_cell_length_b 11.68300
_cell_length_c 15.15400
_cell_angle_alpha 91.86000
_cell_angle_beta  90.00000
_cell_angle_gamma 90.00000

_symmetry_space_group_name_	'P 1'
_symmetry_space_group_name_H-M	'P 1'

loop_
_symmetry_equiv_pos_as_xyz
  x,y,z

loop_
_atom_site_label
_atom_site_type_symbol
_atom_site_fract_x
_atom_site_fract_y
_atom_site_fract_z
_atom_site_charge
Mn	Mn	0.92343 0.24391 0.86866 1.35000
Mn	Mn	0.61240 0.23947 0.80907 1.31600
Mn	Mn	0.42343 0.25609 0.63134 1.30300
Mn	Mn	0.11240 0.26053 0.69093 1.29800
Mn	Mn	0.07657 0.75609 0.13134 1.25500
Mn	Mn	0.38760 0.76053 0.19093 1.32100
Mn	Mn	0.57657 0.74391 0.36866 1.30800
Mn	Mn	0.88760 0.73947 0.30907 1.33900
Mn	Mn	-0.00000 0.00000 -0.00000 1.20400
Mn	Mn	0.50000 0.50000 0.50000 1.32700
Mn	Mn	0.00000 0.50000 -0.00000 1.22500
Mn	Mn	0.50000 0.00000 0.50000 1.30300
H 	H 	0.71370 0.99220 0.96420 0.02200
H 	H 	0.62760 0.44400 0.94920 -0.08800
H 	H 	0.21180 0.03720 0.78460 -0.11800
H 	H 	0.15100 0.30180 0.07210 -0.09400
H 	H 	0.76540 0.14950 0.63350 -0.13100
H 	H 	0.04140 0.52040 0.74310 -0.14700
H 	H 	0.21370 0.50780 0.53580 -0.13700
H 	H 	0.12760 0.05600 0.55080 -0.18200
H 	H 	0.71180 0.46280 0.71540 -0.12100
H 	H 	0.65100 0.19820 0.42790 -0.12900
H 	H 	0.26540 0.35050 0.86650 -0.10500
H 	H 	0.54140 0.97960 0.75690 0.01700
H 	H 	0.28630 0.00780 0.03580 -0.24900
H 	H 	0.37240 0.55600 0.05080 -0.16100
H 	H 	0.78820 0.96280 0.21540 -0.15900
H 	H 	0.84900 0.69820 0.92790 -0.13200
H 	H 	0.23460 0.85050 0.36650 -0.13400
H 	H 	0.95860 0.47960 0.25690 -0.10200
H 	H 	0.78630 0.49220 0.46420 -0.09900
H 	H 	0.87240 0.94400 0.44920 -0.07100
H 	H 	0.28820 0.53720 0.28460 -0.16900
H 	H 	0.34900 0.80180 0.57210 -0.11700
H 	H 	0.73460 0.64950 0.13350 -0.15500
H 	H 	0.45860 0.02040 0.24310 -0.27000
C 	C 	0.72867 0.05784 0.93264 0.35600
C 	C 	0.71528 0.42400 0.94509 0.51200
C 	C 	0.14520 0.05930 0.82316 0.41900
C 	C 	0.09652 0.25904 0.03471 0.31600
C 	C 	0.83239 0.17700 0.66971 0.51400
C 	C 	0.02160 0.48092 0.79371 0.55800
C 	C 	0.22867 0.44216 0.56736 0.53500
C 	C 	0.21528 0.07600 0.55491 0.55500
C 	C 	0.64520 0.44070 0.67684 0.54300
C 	C 	0.59652 0.24096 0.46529 0.54200
C 	C 	0.33239 0.32300 0.83029 0.51600
C 	C 	0.52160 0.01908 0.70629 0.28000
C 	C 	0.27133 0.94216 0.06736 0.67600
C 	C 	0.28472 0.57600 0.05491 0.55300
C 	C 	0.85480 0.94070 0.17684 0.64200
C 	C 	0.90348 0.74096 0.96529 0.69100
C 	C 	0.16761 0.82300 0.33029 0.53600
C 	C 	0.97840 0.51908 0.20629 0.53200
C 	C 	0.77133 0.55784 0.43264 0.51100
C 	C 	0.78472 0.92400 0.44509 0.51700
C 	C 	0.35480 0.55930 0.32316 0.55300
C 	C 	0.40348 0.75904 0.53471 0.53200
C 	C 	0.66761 0.67700 0.16971 0.53200
C 	C 	0.47840 0.98092 0.29371 0.81700
O 	O 	0.63370 0.09939 0.89533 -0.41400
O 	O 	0.09550 0.15501 0.04309 -0.50700
O 	O 	0.79132 0.47760 0.99301 -0.36500
O 	O 	0.01194 0.37342 0.78509 -0.64600
O 	O 	0.08443 0.15021 0.80581 -0.60600
O 	O 	0.84441 0.09538 0.93236 -0.48200
O 	O 	0.80512 0.19586 0.75006 -0.56400
O 	O 	0.02952 0.31353 0.97931 -0.49200
O 	O 	0.74472 0.34366 0.89028 -0.56400
O 	O 	0.93984 0.19158 0.63438 -0.40100
O 	O 	0.12505 0.99757 0.88553 -0.34900
O 	O 	0.00760 0.53799 0.86155 -0.48400
O 	O 	0.13370 0.40061 0.60467 -0.49900
O 	O 	0.59550 0.34499 0.45691 -0.47800
O 	O 	0.29132 0.02240 0.50699 -0.51100
O 	O 	0.51194 0.12658 0.71491 -0.53600
O 	O 	0.58443 0.34979 0.69419 -0.59600
O 	O 	0.34441 0.40462 0.56764 -0.60000
O 	O 	0.30512 0.30414 0.74994 -0.58200
O 	O 	0.52952 0.18647 0.52069 -0.60500
O 	O 	0.24472 0.15634 0.60972 -0.62600
O 	O 	0.43984 0.30842 0.86562 -0.44300
O 	O 	0.62505 0.50243 0.61447 -0.45700
O 	O 	0.50760 0.96201 0.63845 -0.34000
O 	O 	0.36630 0.90061 0.10467 -0.51000
O 	O 	0.90450 0.84499 0.95691 -0.40000
O 	O 	0.20868 0.52240 0.00699 -0.54700
O 	O 	0.98806 0.62658 0.21491 -0.54000
O 	O 	0.91557 0.84979 0.19419 -0.57500
O 	O 	0.15559 0.90462 0.06764 -0.67400
O 	O 	0.19488 0.80414 0.24994 -0.61100
O 	O 	0.97048 0.68647 0.02069 -0.63400
O 	O 	0.25528 0.65634 0.10972 -0.63800
O 	O 	0.06016 0.80842 0.36562 -0.53500
O 	O 	0.87495 0.00243 0.11447 -0.53200
O 	O 	0.99240 0.46201 0.13845 -0.42000
O 	O 	0.86630 0.59939 0.39533 -0.42800
O 	O 	0.40450 0.65501 0.54309 -0.47400
O 	O 	0.70868 0.97760 0.49301 -0.41600
O 	O 	0.48806 0.87342 0.28509 -0.66000
O 	O 	0.41557 0.65021 0.30581 -0.60400
O 	O 	0.65559 0.59538 0.43236 -0.58600
O 	O 	0.69488 0.69586 0.25006 -0.59000
O 	O 	0.47048 0.81353 0.47931 -0.58200
O 	O 	0.75528 0.84366 0.39028 -0.57600
O 	O 	0.56016 0.69158 0.13438 -0.48900
O 	O 	0.37495 0.49757 0.38553 -0.48800
O 	O 	0.49240 0.03799 0.36155 -0.60000
