data_crystal

_cell_length_a 11.69760
_cell_length_b 10.24550
_cell_length_c 15.17240
_cell_angle_alpha 90.00000
_cell_angle_beta  91.62100
_cell_angle_gamma 90.00000

_symmetry_space_group_name_	'P 1'
_symmetry_space_group_name_H-M	'P 1'

loop_
_symmetry_equiv_pos_as_xyz
  x,y,z

loop_
_atom_site_label
_atom_site_type_symbol
_atom_site_fract_x
_atom_site_fract_y
_atom_site_fract_z
_atom_site_charge
Mn	Mn	0.75606 0.42390 0.13133 1.30600
Mn	Mn	0.73955 0.61325 0.30894 1.31900
O 	O 	0.68624 0.52930 0.02062 -0.73000
O 	O 	0.84470 0.59570 0.95743 -0.46000
O 	O 	0.47750 0.70770 0.99252 -0.37900
O 	O 	0.34360 0.75470 0.89034 -0.56900
O 	O 	0.62650 0.51280 0.21479 -0.60200
O 	O 	0.46220 0.50740 0.13880 -0.50200
O 	O 	0.80780 0.44060 0.36515 -0.45900
O 	O 	0.80340 0.30570 0.25008 -0.58000
O 	O 	0.00280 0.62430 0.11486 -0.58300
O 	O 	0.85003 0.58460 0.19392 -0.63000
O 	O 	0.59556 0.84480 0.43272 -0.55100
O 	O 	0.60000 0.63480 0.39525 -0.46000
C 	C 	0.74120 0.59570 0.96550 0.74600
H 	H 	0.69870 0.64940 0.92760 -0.16300
C 	C 	0.42320 0.78460 0.94470 0.50200
H 	H 	0.44260 0.87240 0.94910 -0.05400
C 	C 	0.51920 0.52230 0.20590 0.56600
H 	H 	0.47960 0.54310 0.25630 -0.13600
C 	C 	0.82220 0.33270 0.33050 0.52500
H 	H 	0.84920 0.26560 0.36670 -0.12400
C 	C 	0.94100 0.64420 0.17660 0.66800
H 	H 	0.96330 0.71060 0.21520 -0.15900
C 	C 	0.55860 0.72970 0.43310 0.51800
H 	H 	0.49330 0.71430 0.46520 -0.11200
Mn	Mn	0.74394 0.92390 0.36867 1.35500
Mn	Mn	0.76045 0.11325 0.19106 1.30300
O 	O 	0.81376 0.02930 0.47938 -0.63900
O 	O 	0.65530 0.09570 0.54257 -0.51000
O 	O 	0.02250 0.20770 0.50748 -0.50900
O 	O 	0.15640 0.25470 0.60966 -0.62800
O 	O 	0.87350 0.01280 0.28521 -0.71000
O 	O 	0.03780 0.00740 0.36120 -0.65100
O 	O 	0.69220 0.94060 0.13485 -0.41800
O 	O 	0.69660 0.80570 0.24992 -0.56100
O 	O 	0.49720 0.12430 0.38514 -0.51500
O 	O 	0.64997 0.08460 0.30608 -0.64900
O 	O 	0.90444 0.34480 0.06728 -0.64900
O 	O 	0.90000 0.13480 0.10475 -0.53900
C 	C 	0.75880 0.09570 0.53450 0.54800
H 	H 	0.80130 0.14940 0.57240 -0.13500
C 	C 	0.07680 0.28460 0.55530 0.53700
H 	H 	0.05740 0.37240 0.55090 -0.14200
C 	C 	0.98080 0.02230 0.29410 0.83000
H 	H 	0.02040 0.04310 0.24370 -0.29100
C 	C 	0.67780 0.83270 0.16950 0.52200
H 	H 	0.65080 0.76560 0.13330 -0.14700
C 	C 	0.55900 0.14420 0.32340 0.57100
H 	H 	0.53670 0.21060 0.28480 -0.16300
C 	C 	0.94140 0.22970 0.06690 0.67700
H 	H 	0.00670 0.21430 0.03480 -0.25700
Mn	Mn	0.24394 0.57610 0.86867 1.30600
Mn	Mn	0.26045 0.38675 0.69106 1.31800
O 	O 	0.31376 0.47070 0.97938 -0.45500
O 	O 	0.15530 0.40430 0.04257 -0.47700
O 	O 	0.52250 0.29230 0.00748 -0.53200
O 	O 	0.65640 0.24530 0.10966 -0.63100
O 	O 	0.37350 0.48720 0.78521 -0.59300
O 	O 	0.53780 0.49260 0.86120 -0.43600
O 	O 	0.19220 0.55940 0.63485 -0.47600
O 	O 	0.19660 0.69430 0.74992 -0.59100
O 	O 	0.99720 0.37570 0.88514 -0.34800
O 	O 	0.14997 0.41540 0.80608 -0.57500
O 	O 	0.40444 0.15520 0.56728 -0.63200
O 	O 	0.40000 0.36520 0.60475 -0.47200
C 	C 	0.25880 0.40430 0.03450 0.33900
H 	H 	0.30130 0.35060 0.07240 -0.08500
C 	C 	0.57680 0.21540 0.05530 0.56000
H 	H 	0.55740 0.12760 0.05090 -0.19400
C 	C 	0.48080 0.47770 0.79410 0.54400
H 	H 	0.52040 0.45690 0.74370 -0.12100
C 	C 	0.17780 0.66730 0.66950 0.52600
H 	H 	0.15080 0.73440 0.63330 -0.14200
C 	C 	0.05900 0.35580 0.82340 0.44200
H 	H 	0.03670 0.28940 0.78480 -0.13500
C 	C 	0.44140 0.27030 0.56690 0.54200
H 	H 	0.50670 0.28570 0.53480 -0.12500
Mn	Mn	0.25606 0.07610 0.63133 1.25700
Mn	Mn	0.23955 0.88675 0.80894 1.33500
O 	O 	0.18624 0.97070 0.52062 -0.53600
O 	O 	0.34470 0.90430 0.45743 -0.43300
O 	O 	0.97750 0.79230 0.49252 -0.39600
O 	O 	0.84360 0.74530 0.39034 -0.57100
O 	O 	0.12650 0.98720 0.71479 -0.48500
O 	O 	0.96220 0.99260 0.63880 -0.28400
O 	O 	0.30780 0.05940 0.86515 -0.51900
O 	O 	0.30340 0.19430 0.75008 -0.61000
O 	O 	0.50280 0.87570 0.61486 -0.42800
O 	O 	0.35003 0.91540 0.69392 -0.55800
O 	O 	0.09556 0.65520 0.93272 -0.52800
O 	O 	0.10000 0.86520 0.89525 -0.39100
C 	C 	0.24120 0.90430 0.46550 0.53400
H 	H 	0.19870 0.85060 0.42760 -0.11100
C 	C 	0.92320 0.71540 0.44470 0.52200
H 	H 	0.94260 0.62760 0.44910 -0.10600
C 	C 	0.01920 0.97770 0.70590 0.28400
H 	H 	0.97960 0.95690 0.75630 0.03200
C 	C 	0.32220 0.16730 0.83050 0.53000
H 	H 	0.34920 0.23440 0.86670 -0.12000
C 	C 	0.44100 0.85580 0.67660 0.55000
H 	H 	0.46330 0.78940 0.71520 -0.13300
C 	C 	0.05860 0.77030 0.93310 0.37600
H 	H 	0.99330 0.78570 0.96520 0.02400
Mn	Mn	0.50000 0.50000 -0.00000 1.28100
Mn	Mn	0.00000 0.00000 0.50000 1.25900
Mn	Mn	0.00000 0.50000 -0.00000 1.26000
Mn	Mn	0.50000 0.00000 0.50000 1.28100
