data_crystal

_cell_length_a 10.19560
_cell_length_b 11.83410
_cell_length_c 14.87380
_cell_angle_alpha 90.98140
_cell_angle_beta  90.00000
_cell_angle_gamma 90.00000

_symmetry_space_group_name_	'P 1'
_symmetry_space_group_name_H-M	'P 1'

loop_
_symmetry_equiv_pos_as_xyz
  x,y,z

loop_
_atom_site_label
_atom_site_type_symbol
_atom_site_fract_x
_atom_site_fract_y
_atom_site_fract_z
_atom_site_charge
Mn	Mn	0.91697 0.75390 0.13012 1.34900
Mn	Mn	0.10455 0.73719 0.31418 1.29300
Mn	Mn	0.41697 0.74610 0.36988 1.30300
Mn	Mn	0.60455 0.76281 0.18582 1.31400
Mn	Mn	0.08303 0.24610 0.86988 1.25500
Mn	Mn	0.89545 0.26281 0.68582 1.33100
Mn	Mn	0.58303 0.25390 0.63012 1.30000
Mn	Mn	0.39545 0.23719 0.81418 1.31000
Mn	Mn	-0.00000 0.50000 -0.00000 1.22700
Mn	Mn	0.50000 -0.00000 0.50000 1.29200
Mn	Mn	-0.00000 0.00000 -0.00000 1.19800
Mn	Mn	0.50000 0.50000 0.50000 1.32100
H 	H 	0.74300 0.83800 0.37800 -0.04600
H 	H 	0.04100 0.47800 0.27100 -0.09700
H 	H 	0.61400 0.55900 0.04800 -0.12000
H 	H 	0.22100 0.95200 0.22900 -0.10100
H 	H 	0.14900 0.69700 0.91300 -0.08800
H 	H 	0.71700 0.02000 0.02800 -0.15700
H 	H 	0.24300 0.66200 0.12200 -0.09100
H 	H 	0.54100 0.02200 0.22900 -0.17300
H 	H 	0.11400 0.94100 0.45200 -0.10300
H 	H 	0.72100 0.54800 0.27100 -0.05900
H 	H 	0.64900 0.80300 0.58700 -0.03100
H 	H 	0.21700 0.48000 0.47200 -0.07900
H 	H 	0.25700 0.16200 0.62200 -0.08600
H 	H 	0.95900 0.52200 0.72900 -0.02600
H 	H 	0.38600 0.44100 0.95200 -0.05600
H 	H 	0.77900 0.04800 0.77100 -0.05000
H 	H 	0.85100 0.30300 0.08700 -0.00700
H 	H 	0.28300 0.98000 0.97200 0.05000
H 	H 	0.75700 0.33800 0.87800 -0.03800
H 	H 	0.45900 0.97800 0.77100 0.05100
H 	H 	0.88600 0.05900 0.54800 -0.07200
H 	H 	0.27900 0.45200 0.72900 -0.09300
H 	H 	0.35100 0.19700 0.41300 -0.07300
H 	H 	0.78300 0.52000 0.52800 -0.04200
C 	C 	0.82210 0.81930 0.33160 0.41000
C 	C 	0.01720 0.52070 0.21010 0.44400
C 	C 	0.70990 0.57620 0.05090 0.47000
C 	C 	0.14180 0.93870 0.18180 0.54500
C 	C 	0.09100 0.74290 0.96320 0.56900
C 	C 	0.72620 0.94170 0.06170 0.51000
C 	C 	0.32210 0.68070 0.16840 0.41100
C 	C 	0.51720 0.97930 0.28990 0.65400
C 	C 	0.20990 0.92380 0.44910 0.45900
C 	C 	0.64180 0.56130 0.31820 0.42300
C 	C 	0.59100 0.75710 0.53680 0.41400
C 	C 	0.22620 0.55830 0.43830 0.42400
C 	C 	0.17790 0.18070 0.66840 0.41300
C 	C 	0.98280 0.47930 0.78990 0.41200
C 	C 	0.29010 0.42380 0.94910 0.44600
C 	C 	0.85820 0.06130 0.81820 0.30400
C 	C 	0.90900 0.25710 0.03680 0.24900
C 	C 	0.27380 0.05830 0.93830 0.31700
C 	C 	0.67790 0.31930 0.83160 0.41000
C 	C 	0.48280 0.02070 0.71010 0.20600
C 	C 	0.79010 0.07620 0.55090 0.46400
C 	C 	0.35820 0.43870 0.68180 0.43100
C 	C 	0.40900 0.24290 0.46320 0.42100
C 	C 	0.77380 0.44170 0.56170 0.41800
O 	O 	0.79680 0.79830 0.24910 -0.52800
O 	O 	0.93100 0.80740 0.36840 -0.36000
O 	O 	0.00690 0.62800 0.21710 -0.62600
O 	O 	0.00330 0.46460 0.14090 -0.53200
O 	O 	0.73810 0.65620 0.10660 -0.57300
O 	O 	0.78930 0.51850 0.00780 -0.47100
O 	O 	0.07670 0.85020 0.19560 -0.63300
O 	O 	0.12330 0.00610 0.11990 -0.59500
O 	O 	0.02470 0.68470 0.01950 -0.73400
O 	O 	0.09660 0.84670 0.96220 -0.44700
O 	O 	0.84360 0.90420 0.06540 -0.55100
O 	O 	0.62920 0.90020 0.09840 -0.47400
O 	O 	0.29680 0.70170 0.25090 -0.56400
O 	O 	0.43100 0.69260 0.13160 -0.46400
O 	O 	0.50690 0.87200 0.28290 -0.61700
O 	O 	0.50330 0.03540 0.35910 -0.56900
O 	O 	0.23810 0.84380 0.39340 -0.58600
O 	O 	0.28930 0.98150 0.49220 -0.41700
O 	O 	0.57670 0.64980 0.30440 -0.55800
O 	O 	0.62330 0.49390 0.38010 -0.42600
O 	O 	0.52470 0.81530 0.48050 -0.55000
O 	O 	0.59660 0.65330 0.53780 -0.44500
O 	O 	0.34360 0.59580 0.43460 -0.57700
O 	O 	0.12920 0.59980 0.40160 -0.48600
O 	O 	0.20320 0.20170 0.75090 -0.59500
O 	O 	0.06900 0.19260 0.63160 -0.52500
O 	O 	0.99310 0.37200 0.78290 -0.51100
O 	O 	0.99670 0.53540 0.85910 -0.33800
O 	O 	0.26190 0.34380 0.89340 -0.58500
O 	O 	0.21070 0.48150 0.99220 -0.40100
O 	O 	0.92330 0.14980 0.80440 -0.48200
O 	O 	0.87670 0.99390 0.88010 -0.24000
O 	O 	0.97530 0.31530 0.98050 -0.36600
O 	O 	0.90340 0.15330 0.03780 -0.41600
O 	O 	0.15640 0.09580 0.93460 -0.55700
O 	O 	0.37080 0.09980 0.90160 -0.42700
O 	O 	0.70320 0.29830 0.74910 -0.55900
O 	O 	0.56900 0.30740 0.86840 -0.41800
O 	O 	0.49310 0.12800 0.71710 -0.52600
O 	O 	0.49670 0.96460 0.64090 -0.32100
O 	O 	0.76190 0.15620 0.60660 -0.57600
O 	O 	0.71070 0.01850 0.50780 -0.47400
O 	O 	0.42330 0.35020 0.69560 -0.56500
O 	O 	0.37670 0.50610 0.61990 -0.44000
O 	O 	0.47530 0.18470 0.51950 -0.57700
O 	O 	0.40340 0.34670 0.46220 -0.46400
O 	O 	0.65640 0.40420 0.56540 -0.56600
O 	O 	0.87080 0.40020 0.59840 -0.41800
