data_crystal

_cell_length_a 10.16170
_cell_length_b 11.65480
_cell_length_c 15.29430
_cell_angle_alpha 91.14950
_cell_angle_beta  90.00000
_cell_angle_gamma 90.00000

_symmetry_space_group_name_	'P 1'
_symmetry_space_group_name_H-M	'P 1'

loop_
_symmetry_equiv_pos_as_xyz
  x,y,z

loop_
_atom_site_label
_atom_site_type_symbol
_atom_site_fract_x
_atom_site_fract_y
_atom_site_fract_z
_atom_site_charge
Mn	Mn	0.92207 0.75523 0.13184 1.35200
Mn	Mn	0.11043 0.73843 0.30855 1.29700
Mn	Mn	0.42207 0.74477 0.36816 1.30600
Mn	Mn	0.61043 0.76157 0.19145 1.31700
Mn	Mn	0.07793 0.24477 0.86816 1.25500
Mn	Mn	0.88957 0.26157 0.69145 1.33200
Mn	Mn	0.57793 0.25523 0.63184 1.30000
Mn	Mn	0.38957 0.23843 0.80855 1.31100
Mn	Mn	-0.00000 0.50000 -0.00000 1.22900
Mn	Mn	0.50000 0.00000 0.50000 1.29500
Mn	Mn	-0.00000 0.00000 -0.00000 1.20400
Mn	Mn	0.50000 0.50000 0.50000 1.32500
H 	H 	0.75500 0.86720 0.36320 -0.05700
H 	H 	0.04700 0.47300 0.26200 -0.10900
H 	H 	0.62100 0.53890 0.07090 -0.11400
H 	H 	0.22400 0.95530 0.21230 -0.15100
H 	H 	0.14200 0.69240 0.92040 -0.13200
H 	H 	0.71200 0.00690 0.02890 -0.20700
H 	H 	0.25500 0.63280 0.13680 -0.10300
H 	H 	0.54700 0.02700 0.23800 -0.18500
H 	H 	0.12100 0.96110 0.42910 -0.10200
H 	H 	0.72400 0.54470 0.28770 -0.09600
H 	H 	0.64200 0.80760 0.57960 -0.06200
H 	H 	0.21200 0.49310 0.47110 -0.11500
H 	H 	0.24500 0.13280 0.63680 -0.10500
H 	H 	0.95300 0.52700 0.73800 -0.03600
H 	H 	0.37900 0.46110 0.92910 -0.06000
H 	H 	0.77600 0.04470 0.78770 -0.07600
H 	H 	0.85800 0.30760 0.07960 -0.02500
H 	H 	0.28800 0.99310 0.97110 0.03600
H 	H 	0.74500 0.36720 0.86320 -0.05600
H 	H 	0.45300 0.97300 0.76200 0.04100
H 	H 	0.87900 0.03890 0.57090 -0.07300
H 	H 	0.27600 0.45530 0.71230 -0.13300
H 	H 	0.35800 0.19240 0.42040 -0.10500
H 	H 	0.78800 0.50690 0.52890 -0.07300
C 	C 	0.83190 0.83144 0.32724 0.42700
C 	C 	0.02520 0.51826 0.20696 0.46500
C 	C 	0.71330 0.56596 0.06556 0.47400
C 	C 	0.15110 0.93716 0.17336 0.61700
C 	C 	0.08980 0.74104 0.96244 0.63100
C 	C 	0.72600 0.93932 0.06362 0.59500
C 	C 	0.33190 0.66856 0.17276 0.43400
C 	C 	0.52520 0.98174 0.29304 0.66800
C 	C 	0.21330 0.93404 0.43444 0.46200
C 	C 	0.65110 0.56284 0.32664 0.48100
C 	C 	0.58980 0.75896 0.53756 0.45300
C 	C 	0.22600 0.56068 0.43638 0.48500
C 	C 	0.16810 0.16856 0.67276 0.43900
C 	C 	0.97480 0.48174 0.79304 0.42400
C 	C 	0.28670 0.43404 0.93444 0.45000
C 	C 	0.84890 0.06284 0.82664 0.35300
C 	C 	0.91020 0.25896 0.03756 0.26900
C 	C 	0.27400 0.06068 0.93638 0.33600
C 	C 	0.66810 0.33144 0.82724 0.43100
C 	C 	0.47480 0.01826 0.70696 0.22300
C 	C 	0.78670 0.06596 0.56556 0.46900
C 	C 	0.34890 0.43716 0.67336 0.49500
C 	C 	0.41020 0.24104 0.46244 0.46500
C 	C 	0.77400 0.43932 0.56362 0.46800
O 	O 	0.80368 0.80973 0.24736 -0.53100
O 	O 	0.94029 0.81542 0.36237 -0.36600
O 	O 	0.00774 0.62581 0.21628 -0.63100
O 	O 	0.01977 0.46322 0.13721 -0.52400
O 	O 	0.74321 0.65230 0.11468 -0.57000
O 	O 	0.78957 0.51089 0.01824 -0.46600
O 	O 	0.08754 0.84658 0.19152 -0.65700
O 	O 	0.12904 0.00146 0.11176 -0.61800
O 	O 	0.02258 0.68660 0.01907 -0.75100
O 	O 	0.09620 0.84610 0.95623 -0.45700
O 	O 	0.84397 0.90310 0.06634 -0.57400
O 	O 	0.62987 0.89828 0.10165 -0.48900
O 	O 	0.30368 0.69027 0.25264 -0.56600
O 	O 	0.44029 0.68458 0.13763 -0.47000
O 	O 	0.50774 0.87419 0.28372 -0.62100
O 	O 	0.51977 0.03678 0.36279 -0.55600
O 	O 	0.24321 0.84770 0.38532 -0.58500
O 	O 	0.28957 0.98911 0.48176 -0.41700
O 	O 	0.58754 0.65342 0.30848 -0.57800
O 	O 	0.62904 0.49854 0.38824 -0.44700
O 	O 	0.52258 0.81340 0.48093 -0.56200
O 	O 	0.59620 0.65390 0.54377 -0.44500
O 	O 	0.34397 0.59690 0.43366 -0.59000
O 	O 	0.12987 0.60172 0.39835 -0.49300
O 	O 	0.19632 0.19027 0.75264 -0.59800
O 	O 	0.05971 0.18458 0.63763 -0.53400
O 	O 	0.99226 0.37419 0.78372 -0.51200
O 	O 	0.98023 0.53678 0.86279 -0.33700
O 	O 	0.25679 0.34770 0.88532 -0.58500
O 	O 	0.21043 0.48911 0.98176 -0.40000
O 	O 	0.91246 0.15342 0.80848 -0.50300
O 	O 	0.87096 0.99854 0.88824 -0.26000
O 	O 	0.97742 0.31340 0.98093 -0.37100
O 	O 	0.90380 0.15390 0.04377 -0.40800
O 	O 	0.15603 0.09690 0.93366 -0.55700
O 	O 	0.37013 0.10172 0.89835 -0.42100
O 	O 	0.69632 0.30973 0.74736 -0.56200
O 	O 	0.55971 0.31542 0.86237 -0.42700
O 	O 	0.49226 0.12581 0.71628 -0.52600
O 	O 	0.48023 0.96322 0.63721 -0.32400
O 	O 	0.75679 0.15230 0.61468 -0.57400
O 	O 	0.71043 0.01089 0.51824 -0.46900
O 	O 	0.41246 0.34658 0.69152 -0.59000
O 	O 	0.37096 0.50146 0.61176 -0.46400
O 	O 	0.47742 0.18660 0.51907 -0.58900
O 	O 	0.40380 0.34610 0.45623 -0.46600
O 	O 	0.65603 0.40310 0.56634 -0.57600
O 	O 	0.87013 0.39828 0.60165 -0.42200
