data_crystal

_cell_length_a 26.29110
_cell_length_b 13.57610
_cell_length_c 6.76200
_cell_angle_alpha 90.00000
_cell_angle_beta  92.44300
_cell_angle_gamma 90.00000

_symmetry_space_group_name_	'P 1'
_symmetry_space_group_name_H-M	'P 1'

loop_
_symmetry_equiv_pos_as_xyz
  x,y,z

loop_
_atom_site_label
_atom_site_type_symbol
_atom_site_fract_x
_atom_site_fract_y
_atom_site_fract_z
_atom_site_charge
Tb	Tb	0.89641 0.19315 0.98843 1.58900
C 	C 	0.82160 0.54710 0.93090 0.09000
H 	H 	0.85690 0.55100 0.94830 0.02100
C 	C 	0.79950 0.45480 0.93310 -0.13700
C 	C 	0.74660 0.44870 0.91070 0.11100
H 	H 	0.73030 0.38790 0.91040 0.00100
C 	C 	0.71864 0.53550 0.88880 -0.20400
C 	C 	0.74490 0.62430 0.88460 0.11600
H 	H 	0.72620 0.68200 0.86630 0.01300
C 	C 	0.83220 0.36460 0.95500 0.32600
C 	C 	0.66140 0.53620 0.86460 0.47800
N 	N 	0.79571 0.63120 0.90560 -0.14600
O 	O 	0.87857 0.37530 0.00730 -0.38200
O 	O 	0.81320 0.28080 0.92280 -0.38200
O 	O 	0.63805 0.45970 0.90410 -0.48100
O 	O 	0.64042 0.61550 0.80910 -0.46500
O 	O 	0.95545 0.13980 0.29070 -0.40200
O 	O 	0.98452 0.26050 0.07810 -0.40400
Tb	Tb	0.39641 0.69315 0.98843 1.58700
C 	C 	0.32160 0.04710 0.93090 0.08900
H 	H 	0.35690 0.05100 0.94830 0.01800
C 	C 	0.29950 0.95480 0.93310 -0.13800
C 	C 	0.24660 0.94870 0.91070 0.11300
H 	H 	0.23030 0.88790 0.91040 0.00100
C 	C 	0.21864 0.03550 0.88880 -0.20500
C 	C 	0.24490 0.12430 0.88460 0.11600
H 	H 	0.22620 0.18200 0.86630 0.01300
C 	C 	0.33220 0.86460 0.95500 0.33000
C 	C 	0.16140 0.03620 0.86460 0.47500
N 	N 	0.29571 0.13120 0.90560 -0.14600
O 	O 	0.37857 0.87530 0.00730 -0.38800
O 	O 	0.31320 0.78080 0.92280 -0.38200
O 	O 	0.13805 0.95970 0.90410 -0.47900
O 	O 	0.14042 0.11550 0.80910 -0.46500
O 	O 	0.45545 0.63980 0.29070 -0.44000
O 	O 	0.48452 0.76050 0.07810 -0.44900
Tb	Tb	0.10359 0.19315 0.51157 1.57300
C 	C 	0.17840 0.54710 0.56910 0.09300
H 	H 	0.14310 0.55100 0.55170 0.01600
C 	C 	0.20050 0.45480 0.56690 -0.14100
C 	C 	0.25340 0.44870 0.58930 0.11300
H 	H 	0.26970 0.38790 0.58960 0.00000
C 	C 	0.28136 0.53550 0.61120 -0.20500
C 	C 	0.25510 0.62430 0.61540 0.11700
H 	H 	0.27380 0.68200 0.63370 0.01300
C 	C 	0.16780 0.36460 0.54500 0.33000
C 	C 	0.33860 0.53620 0.63540 0.47800
N 	N 	0.20429 0.63120 0.59440 -0.14700
O 	O 	0.12143 0.37530 0.49270 -0.39100
O 	O 	0.18680 0.28080 0.57720 -0.38200
O 	O 	0.36195 0.45970 0.59590 -0.48100
O 	O 	0.35958 0.61550 0.69090 -0.46500
O 	O 	0.04455 0.13980 0.20930 -0.43100
O 	O 	0.01548 0.26050 0.42190 -0.44500
Tb	Tb	0.60359 0.69315 0.51157 1.58700
C 	C 	0.67840 0.04710 0.56910 0.09100
H 	H 	0.64310 0.05100 0.55170 0.01800
C 	C 	0.70050 0.95480 0.56690 -0.13900
C 	C 	0.75340 0.94870 0.58930 0.11200
H 	H 	0.76970 0.88790 0.58960 0.00000
C 	C 	0.78136 0.03550 0.61120 -0.20500
C 	C 	0.75510 0.12430 0.61540 0.11600
H 	H 	0.77380 0.18200 0.63370 0.01300
C 	C 	0.66780 0.86460 0.54500 0.33000
C 	C 	0.83860 0.03620 0.63540 0.47700
N 	N 	0.70429 0.13120 0.59440 -0.14700
O 	O 	0.62143 0.87530 0.49270 -0.38800
O 	O 	0.68680 0.78080 0.57720 -0.38300
O 	O 	0.86195 0.95970 0.59590 -0.48100
O 	O 	0.85958 0.11550 0.69090 -0.46300
O 	O 	0.54455 0.63980 0.20930 -0.44000
O 	O 	0.51548 0.76050 0.42190 -0.44900
Tb	Tb	0.10359 0.80685 0.01157 1.56700
C 	C 	0.17840 0.45290 0.06910 0.09200
H 	H 	0.14310 0.44900 0.05170 0.01500
C 	C 	0.20050 0.54520 0.06690 -0.14000
C 	C 	0.25340 0.55130 0.08930 0.11200
H 	H 	0.26970 0.61210 0.08960 0.00000
C 	C 	0.28136 0.46450 0.11120 -0.20500
C 	C 	0.25510 0.37570 0.11540 0.11700
H 	H 	0.27380 0.31800 0.13370 0.01300
C 	C 	0.16780 0.63540 0.04500 0.32800
C 	C 	0.33860 0.46380 0.13540 0.47800
N 	N 	0.20429 0.36880 0.09440 -0.14700
O 	O 	0.12143 0.62470 0.99270 -0.38800
O 	O 	0.18680 0.71920 0.07720 -0.38200
O 	O 	0.36195 0.54030 0.09590 -0.48100
O 	O 	0.35958 0.38450 0.19090 -0.46500
O 	O 	0.04455 0.86020 0.70930 -0.43000
O 	O 	0.01548 0.73950 0.92190 -0.44300
Tb	Tb	0.60359 0.30685 0.01157 1.58700
C 	C 	0.67840 0.95290 0.06910 0.08900
H 	H 	0.64310 0.94900 0.05170 0.01800
C 	C 	0.70050 0.04520 0.06690 -0.13800
C 	C 	0.75340 0.05130 0.08930 0.11300
H 	H 	0.76970 0.11210 0.08960 0.00100
C 	C 	0.78136 0.96450 0.11120 -0.20600
C 	C 	0.75510 0.87570 0.11540 0.11600
H 	H 	0.77380 0.81800 0.13370 0.01300
C 	C 	0.66780 0.13540 0.04500 0.33000
C 	C 	0.83860 0.96380 0.13540 0.47600
N 	N 	0.70429 0.86880 0.09440 -0.14700
O 	O 	0.62143 0.12470 0.99270 -0.38800
O 	O 	0.68680 0.21920 0.07720 -0.38200
O 	O 	0.86195 0.04030 0.09590 -0.47800
O 	O 	0.85958 0.88450 0.19090 -0.46300
O 	O 	0.54455 0.36020 0.70930 -0.44000
O 	O 	0.51548 0.23950 0.92190 -0.44900
Tb	Tb	0.89641 0.80685 0.48843 1.59500
C 	C 	0.82160 0.45290 0.43090 0.09100
H 	H 	0.85690 0.44900 0.44830 0.02100
C 	C 	0.79950 0.54520 0.43310 -0.13800
C 	C 	0.74660 0.55130 0.41070 0.11200
H 	H 	0.73030 0.61210 0.41040 0.00100
C 	C 	0.71864 0.46450 0.38880 -0.20400
C 	C 	0.74490 0.37570 0.38460 0.11600
H 	H 	0.72620 0.31800 0.36630 0.01300
C 	C 	0.83220 0.63540 0.45500 0.32900
C 	C 	0.66140 0.46380 0.36460 0.47800
N 	N 	0.79571 0.36880 0.40560 -0.14600
O 	O 	0.87857 0.62470 0.50730 -0.38500
O 	O 	0.81320 0.71920 0.42280 -0.38300
O 	O 	0.63805 0.54030 0.40410 -0.48100
O 	O 	0.64042 0.38450 0.30910 -0.46500
O 	O 	0.95545 0.86020 0.79070 -0.40400
O 	O 	0.98452 0.73950 0.57810 -0.40700
Tb	Tb	0.39641 0.30685 0.48843 1.58700
C 	C 	0.32160 0.95290 0.43090 0.09100
H 	H 	0.35690 0.94900 0.44830 0.01800
C 	C 	0.29950 0.04520 0.43310 -0.13900
C 	C 	0.24660 0.05130 0.41070 0.11200
H 	H 	0.23030 0.11210 0.41040 0.00100
C 	C 	0.21864 0.96450 0.38880 -0.20400
C 	C 	0.24490 0.87570 0.38460 0.11600
H 	H 	0.22620 0.81800 0.36630 0.01300
C 	C 	0.33220 0.13540 0.45500 0.33000
C 	C 	0.16140 0.96380 0.36460 0.47600
N 	N 	0.29571 0.86880 0.40560 -0.14700
O 	O 	0.37857 0.12470 0.50730 -0.38800
O 	O 	0.31320 0.21920 0.42280 -0.38200
O 	O 	0.13805 0.04030 0.40410 -0.48100
O 	O 	0.14042 0.88450 0.30910 -0.46500
O 	O 	0.45545 0.36020 0.79070 -0.44000
O 	O 	0.48452 0.23950 0.57810 -0.44900
S 	S 	0.00000 0.20132 0.25000 0.61200
S 	S 	0.50000 0.70132 0.25000 0.70100
S 	S 	0.00000 0.79868 0.75000 0.61500
S 	S 	0.50000 0.29868 0.75000 0.70100
