data_crystal

_cell_length_a 8.10400
_cell_length_b 27.06560
_cell_length_c 20.42330
_cell_angle_alpha 90.00000
_cell_angle_beta  90.00000
_cell_angle_gamma 90.00000

_symmetry_space_group_name_	'P 1'
_symmetry_space_group_name_H-M	'P 1'

loop_
_symmetry_equiv_pos_as_xyz
  x,y,z

loop_
_atom_site_label
_atom_site_type_symbol
_atom_site_fract_x
_atom_site_fract_y
_atom_site_fract_z
_atom_site_charge
O 	O 	0.93440 0.68084 0.00230 -0.32500
O 	O 	0.76330 0.72297 0.06577 -0.38000
O 	O 	0.46250 0.69870 0.14610 -0.41800
O 	O 	0.67790 0.68967 0.21080 -0.32900
C 	C 	0.71780 0.54650 0.05440 0.03300
C 	C 	0.77980 0.59130 0.03350 -0.04000
H 	H 	0.84480 0.59230 0.99600 0.10600
C 	C 	0.74710 0.63510 0.06740 -0.02200
C 	C 	0.64770 0.63310 0.12230 -0.04800
C 	C 	0.58560 0.58790 0.14340 0.01700
H 	H 	0.51790 0.58670 0.18010 0.03900
C 	C 	0.62370 0.54490 0.11020 -0.07500
H 	H 	0.58530 0.51470 0.12570 0.07200
C 	C 	0.81880 0.68310 0.04360 0.32900
C 	C 	0.59710 0.67780 0.16200 0.30500
O 	O 	0.43440 0.18084 0.00230 -0.39800
O 	O 	0.26330 0.22297 0.06577 -0.42500
O 	O 	0.96250 0.19870 0.14610 -0.25400
O 	O 	0.17790 0.18967 0.21080 -0.32700
C 	C 	0.21780 0.04650 0.05440 -0.03200
C 	C 	0.27980 0.09130 0.03350 -0.00900
H 	H 	0.34480 0.09230 0.99600 0.06000
C 	C 	0.24710 0.13510 0.06740 -0.09100
C 	C 	0.14770 0.13310 0.12230 -0.00600
C 	C 	0.08560 0.08790 0.14340 -0.05200
H 	H 	0.01790 0.08670 0.18010 0.02400
C 	C 	0.12370 0.04490 0.11020 -0.04500
H 	H 	0.08530 0.01470 0.12570 0.03400
C 	C 	0.31880 0.18310 0.04360 0.34300
C 	C 	0.09710 0.17780 0.16200 0.13800
O 	O 	0.56560 0.31916 0.00230 -0.38500
O 	O 	0.73670 0.27703 0.06577 -0.38400
O 	O 	0.03750 0.30130 0.14610 -0.54300
O 	O 	0.82210 0.31033 0.21080 -0.36100
C 	C 	0.78220 0.45350 0.05440 0.04500
C 	C 	0.72020 0.40870 0.03350 -0.04300
H 	H 	0.65520 0.40770 0.99600 0.08800
C 	C 	0.75290 0.36490 0.06740 -0.00600
C 	C 	0.85230 0.36690 0.12230 -0.07500
C 	C 	0.91440 0.41210 0.14340 0.05100
H 	H 	0.98210 0.41330 0.18010 0.07400
C 	C 	0.87630 0.45510 0.11020 -0.07600
H 	H 	0.91470 0.48530 0.12570 0.10400
C 	C 	0.68120 0.31690 0.04360 0.33300
C 	C 	0.90290 0.32220 0.16200 0.46500
O 	O 	0.06560 0.81916 0.00230 -0.44500
O 	O 	0.23670 0.77703 0.06577 -0.43600
O 	O 	0.53750 0.80130 0.14610 -0.39600
O 	O 	0.32210 0.81033 0.21080 -0.37200
C 	C 	0.28220 0.95350 0.05440 -0.02700
C 	C 	0.22020 0.90870 0.03350 -0.00900
H 	H 	0.15520 0.90770 0.99600 0.04000
C 	C 	0.25290 0.86490 0.06740 -0.07800
C 	C 	0.35230 0.86690 0.12230 -0.03400
C 	C 	0.41440 0.91210 0.14340 -0.01900
H 	H 	0.48210 0.91330 0.18010 0.05800
C 	C 	0.37630 0.95510 0.11020 -0.04400
H 	H 	0.41470 0.98530 0.12570 0.06200
C 	C 	0.18120 0.81690 0.04360 0.34800
C 	C 	0.40290 0.82220 0.16200 0.29800
O 	O 	0.06560 0.68084 0.49770 -0.44500
O 	O 	0.23670 0.72297 0.43423 -0.43600
O 	O 	0.53750 0.69870 0.35390 -0.39600
O 	O 	0.32210 0.68967 0.28920 -0.37200
C 	C 	0.28220 0.54650 0.44560 -0.01900
C 	C 	0.22020 0.59130 0.46650 -0.01300
H 	H 	0.15520 0.59230 0.50400 0.04100
C 	C 	0.25290 0.63510 0.43260 -0.07600
C 	C 	0.35230 0.63310 0.37770 -0.03600
C 	C 	0.41440 0.58790 0.35660 -0.01600
H 	H 	0.48210 0.58670 0.31990 0.05700
C 	C 	0.37630 0.54490 0.38980 -0.04800
H 	H 	0.41470 0.51470 0.37430 0.06600
C 	C 	0.18120 0.68310 0.45640 0.34700
C 	C 	0.40290 0.67780 0.33800 0.29800
O 	O 	0.56560 0.18084 0.49770 -0.38500
O 	O 	0.73670 0.22297 0.43423 -0.38400
O 	O 	0.03750 0.19870 0.35390 -0.54300
O 	O 	0.82210 0.18967 0.28920 -0.36100
C 	C 	0.78220 0.04650 0.44560 0.04300
C 	C 	0.72020 0.09130 0.46650 -0.04200
H 	H 	0.65520 0.09230 0.50400 0.08800
C 	C 	0.75290 0.13510 0.43260 -0.00600
C 	C 	0.85230 0.13310 0.37770 -0.07400
C 	C 	0.91440 0.08790 0.35660 0.05100
H 	H 	0.98210 0.08670 0.31990 0.07400
C 	C 	0.87630 0.04490 0.38980 -0.07400
H 	H 	0.91470 0.01470 0.37430 0.10500
C 	C 	0.68120 0.18310 0.45640 0.33400
C 	C 	0.90290 0.17780 0.33800 0.46500
O 	O 	0.43440 0.31916 0.49770 -0.39800
O 	O 	0.26330 0.27703 0.43423 -0.42500
O 	O 	0.96250 0.30130 0.35390 -0.25400
O 	O 	0.17790 0.31033 0.28920 -0.32700
C 	C 	0.21780 0.45350 0.44560 -0.03000
C 	C 	0.27980 0.40870 0.46650 -0.01000
H 	H 	0.34480 0.40770 0.50400 0.06000
C 	C 	0.24710 0.36490 0.43260 -0.09000
C 	C 	0.14770 0.36690 0.37770 -0.00600
C 	C 	0.08560 0.41210 0.35660 -0.05200
H 	H 	0.01790 0.41330 0.31990 0.02300
C 	C 	0.12370 0.45510 0.38980 -0.04700
H 	H 	0.08530 0.48530 0.37430 0.03300
C 	C 	0.31880 0.31690 0.45640 0.34300
C 	C 	0.09710 0.32220 0.33800 0.13700
O 	O 	0.93440 0.81916 0.49770 -0.32500
O 	O 	0.76330 0.77703 0.43423 -0.38100
O 	O 	0.46250 0.80130 0.35390 -0.41900
O 	O 	0.67790 0.81033 0.28920 -0.32900
C 	C 	0.71780 0.95350 0.44560 0.02500
C 	C 	0.77980 0.90870 0.46650 -0.03600
H 	H 	0.84480 0.90770 0.50400 0.10400
C 	C 	0.74710 0.86490 0.43260 -0.02400
C 	C 	0.64770 0.86690 0.37770 -0.04600
C 	C 	0.58560 0.91210 0.35660 0.01300
H 	H 	0.51790 0.91330 0.31990 0.03900
C 	C 	0.62370 0.95510 0.38980 -0.07100
H 	H 	0.58530 0.98530 0.37430 0.06800
C 	C 	0.81880 0.81690 0.45640 0.33000
C 	C 	0.59710 0.82220 0.33800 0.30500
O 	O 	0.06560 0.31916 0.99770 -0.44500
O 	O 	0.23670 0.27703 0.93423 -0.43600
O 	O 	0.53750 0.30130 0.85390 -0.39600
O 	O 	0.32210 0.31033 0.78920 -0.37200
C 	C 	0.28220 0.45350 0.94560 -0.01800
C 	C 	0.22020 0.40870 0.96650 -0.01300
H 	H 	0.15520 0.40770 0.00400 0.04200
C 	C 	0.25290 0.36490 0.93260 -0.07600
C 	C 	0.35230 0.36690 0.87770 -0.03600
C 	C 	0.41440 0.41210 0.85660 -0.01600
H 	H 	0.48210 0.41330 0.81990 0.05700
C 	C 	0.37630 0.45510 0.88980 -0.04800
H 	H 	0.41470 0.48530 0.87430 0.06600
C 	C 	0.18120 0.31690 0.95640 0.34700
C 	C 	0.40290 0.32220 0.83800 0.29800
O 	O 	0.56560 0.81916 0.99770 -0.38500
O 	O 	0.73670 0.77703 0.93423 -0.38400
O 	O 	0.03750 0.80130 0.85390 -0.54300
O 	O 	0.82210 0.81033 0.78920 -0.36100
C 	C 	0.78220 0.95350 0.94560 0.03600
C 	C 	0.72020 0.90870 0.96650 -0.03900
H 	H 	0.65520 0.90770 0.00400 0.08600
C 	C 	0.75290 0.86490 0.93260 -0.00900
C 	C 	0.85230 0.86690 0.87770 -0.07300
C 	C 	0.91440 0.91210 0.85660 0.04700
H 	H 	0.98210 0.91330 0.81990 0.07400
C 	C 	0.87630 0.95510 0.88980 -0.07100
H 	H 	0.91470 0.98530 0.87430 0.10000
C 	C 	0.68120 0.81690 0.95640 0.33400
C 	C 	0.90290 0.82220 0.83800 0.46400
O 	O 	0.43440 0.68084 0.99770 -0.39800
O 	O 	0.26330 0.72297 0.93423 -0.42500
O 	O 	0.96250 0.69870 0.85390 -0.25400
O 	O 	0.17790 0.68967 0.78920 -0.32700
C 	C 	0.21780 0.54650 0.94560 -0.03000
C 	C 	0.27980 0.59130 0.96650 -0.01000
H 	H 	0.34480 0.59230 0.00400 0.06000
C 	C 	0.24710 0.63510 0.93260 -0.09000
C 	C 	0.14770 0.63310 0.87770 -0.00700
C 	C 	0.08560 0.58790 0.85660 -0.05100
H 	H 	0.01790 0.58670 0.81990 0.02300
C 	C 	0.12370 0.54490 0.88980 -0.04700
H 	H 	0.08530 0.51470 0.87430 0.03300
C 	C 	0.31880 0.68310 0.95640 0.34300
C 	C 	0.09710 0.67780 0.83800 0.13800
O 	O 	0.93440 0.18084 0.99770 -0.32600
O 	O 	0.76330 0.22297 0.93423 -0.38100
O 	O 	0.46250 0.19870 0.85390 -0.41900
O 	O 	0.67790 0.18967 0.78920 -0.32900
C 	C 	0.71780 0.04650 0.94560 0.03100
C 	C 	0.77980 0.09130 0.96650 -0.03900
H 	H 	0.84480 0.09230 0.00400 0.10600
C 	C 	0.74710 0.13510 0.93260 -0.02200
C 	C 	0.64770 0.13310 0.87770 -0.04700
C 	C 	0.58560 0.08790 0.85660 0.01600
H 	H 	0.51790 0.08670 0.81990 0.03900
C 	C 	0.62370 0.04490 0.88980 -0.07400
H 	H 	0.58530 0.01470 0.87430 0.07200
C 	C 	0.81880 0.18310 0.95640 0.33000
C 	C 	0.59710 0.17780 0.83800 0.30500
O 	O 	0.93440 0.31916 0.50230 -0.32500
O 	O 	0.76330 0.27703 0.56577 -0.38100
O 	O 	0.46250 0.30130 0.64610 -0.42000
O 	O 	0.67790 0.31033 0.71080 -0.32900
C 	C 	0.71780 0.45350 0.55440 0.03300
C 	C 	0.77980 0.40870 0.53350 -0.04000
H 	H 	0.84480 0.40770 0.49600 0.10700
C 	C 	0.74710 0.36490 0.56740 -0.02100
C 	C 	0.64770 0.36690 0.62230 -0.04800
C 	C 	0.58560 0.41210 0.64340 0.01700
H 	H 	0.51790 0.41330 0.68010 0.03900
C 	C 	0.62370 0.45510 0.61020 -0.07500
H 	H 	0.58530 0.48530 0.62570 0.07200
C 	C 	0.81880 0.31690 0.54360 0.32900
C 	C 	0.59710 0.32220 0.66200 0.30500
O 	O 	0.43440 0.81916 0.50230 -0.39800
O 	O 	0.26330 0.77703 0.56577 -0.42500
O 	O 	0.96250 0.80130 0.64610 -0.25400
O 	O 	0.17790 0.81033 0.71080 -0.32700
C 	C 	0.21780 0.95350 0.55440 -0.03900
C 	C 	0.27980 0.90870 0.53350 -0.00600
H 	H 	0.34480 0.90770 0.49600 0.05800
C 	C 	0.24710 0.86490 0.56740 -0.09300
C 	C 	0.14770 0.86690 0.62230 -0.00400
C 	C 	0.08560 0.91210 0.64340 -0.05600
H 	H 	0.01790 0.91330 0.68010 0.02400
C 	C 	0.12370 0.95510 0.61020 -0.04200
H 	H 	0.08530 0.98530 0.62570 0.03000
C 	C 	0.31880 0.81690 0.54360 0.34400
C 	C 	0.09710 0.82220 0.66200 0.13600
O 	O 	0.56560 0.68084 0.50230 -0.38500
O 	O 	0.73670 0.72297 0.56577 -0.38400
O 	O 	0.03750 0.69870 0.64610 -0.54400
O 	O 	0.82210 0.68967 0.71080 -0.36100
C 	C 	0.78220 0.54650 0.55440 0.04500
C 	C 	0.72020 0.59130 0.53350 -0.04300
H 	H 	0.65520 0.59230 0.49600 0.08800
C 	C 	0.75290 0.63510 0.56740 -0.00600
C 	C 	0.85230 0.63310 0.62230 -0.07500
C 	C 	0.91440 0.58790 0.64340 0.05200
H 	H 	0.98210 0.58670 0.68010 0.07400
C 	C 	0.87630 0.54490 0.61020 -0.07600
H 	H 	0.91470 0.51470 0.62570 0.10400
C 	C 	0.68120 0.68310 0.54360 0.33400
C 	C 	0.90290 0.67780 0.66200 0.46500
O 	O 	0.06560 0.18084 0.50230 -0.44500
O 	O 	0.23670 0.22297 0.56577 -0.43600
O 	O 	0.53750 0.19870 0.64610 -0.39600
O 	O 	0.32210 0.18967 0.71080 -0.37100
C 	C 	0.28220 0.04650 0.55440 -0.02000
C 	C 	0.22020 0.09130 0.53350 -0.01100
H 	H 	0.15520 0.09230 0.49600 0.04100
C 	C 	0.25290 0.13510 0.56740 -0.07600
C 	C 	0.35230 0.13310 0.62230 -0.03500
C 	C 	0.41440 0.08790 0.64340 -0.01600
H 	H 	0.48210 0.08670 0.68010 0.05800
C 	C 	0.37630 0.04490 0.61020 -0.04600
H 	H 	0.41470 0.01470 0.62570 0.06700
C 	C 	0.18120 0.18310 0.54360 0.34700
C 	C 	0.40290 0.17780 0.66200 0.29800
Cd	Cd	0.50000 0.75000 0.25000 1.24500
Cd	Cd	0.00000 0.25000 0.25000 1.20300
Cd	Cd	0.50000 0.25000 0.75000 1.24500
Cd	Cd	0.00000 0.75000 0.75000 1.20300
Cd	Cd	0.00000 0.75000 0.95070 1.20800
Cd	Cd	0.50000 0.25000 0.95070 1.25100
Cd	Cd	0.00000 0.75000 0.54930 1.20800
Cd	Cd	0.50000 0.25000 0.54930 1.25100
Cd	Cd	0.00000 0.25000 0.04930 1.20800
Cd	Cd	0.50000 0.75000 0.04930 1.25100
Cd	Cd	0.00000 0.25000 0.45070 1.20800
Cd	Cd	0.50000 0.75000 0.45070 1.25100
O 	O 	0.75000 0.50000 0.95730 -0.15700
C 	C 	0.75000 0.50000 0.01700 0.11200
O 	O 	0.25000 0.00000 0.95730 -0.22700
C 	C 	0.25000 0.00000 0.01700 0.13400
O 	O 	0.25000 0.50000 0.54270 -0.22800
C 	C 	0.25000 0.50000 0.48300 0.12700
O 	O 	0.75000 0.00000 0.54270 -0.15600
C 	C 	0.75000 0.00000 0.48300 0.11900
O 	O 	0.25000 0.50000 0.04270 -0.22800
C 	C 	0.25000 0.50000 0.98300 0.12700
O 	O 	0.75000 0.00000 0.04270 -0.15600
C 	C 	0.75000 0.00000 0.98300 0.11900
O 	O 	0.75000 0.50000 0.45730 -0.15600
C 	C 	0.75000 0.50000 0.51700 0.11300
O 	O 	0.25000 0.00000 0.45730 -0.22700
C 	C 	0.25000 0.00000 0.51700 0.13400
