data_crystal

_cell_length_a 8.32190
_cell_length_b 15.43180
_cell_length_c 28.64700
_cell_angle_alpha 90.00000
_cell_angle_beta  93.44900
_cell_angle_gamma 90.00000

_symmetry_space_group_name_	'P 1'
_symmetry_space_group_name_H-M	'P 1'

loop_
_symmetry_equiv_pos_as_xyz
  x,y,z

loop_
_atom_site_label
_atom_site_type_symbol
_atom_site_fract_x
_atom_site_fract_y
_atom_site_fract_z
_atom_site_charge
Tb	Tb	0.77314 0.01306 0.71417 1.55400
O 	O 	0.65630 0.93510 0.64960 -0.40700
O 	O 	0.60040 0.88570 0.71910 -0.40400
O 	O 	0.38630 0.53600 0.29060 -0.40300
O 	O 	0.17040 0.45550 0.28890 -0.42700
O 	O 	0.86420 0.09370 0.64730 -0.39800
O 	O 	0.93050 0.14900 0.71770 -0.40000
N 	N 	0.31170 0.58130 0.53440 -0.14300
N 	N 	0.19100 0.44170 0.53290 -0.14100
N 	N 	0.24050 0.51570 0.60620 -0.13800
C 	C 	0.58900 0.87840 0.67660 0.28800
C 	C 	0.51600 0.80190 0.65090 -0.06900
C 	C 	0.50800 0.79490 0.60300 -0.00200
H 	H 	0.55120 0.84050 0.58530 0.04500
C 	C 	0.44000 0.72380 0.57920 -0.06800
H 	H 	0.43730 0.72010 0.54610 0.06300
C 	C 	0.37300 0.65590 0.60700 0.01100
C 	C 	0.38200 0.66290 0.65370 -0.06000
H 	H 	0.33640 0.61730 0.67080 0.05700
C 	C 	0.45400 0.73160 0.67970 -0.01900
H 	H 	0.46190 0.73260 0.71290 0.05500
C 	C 	0.30600 0.58050 0.58000 0.11100
C 	C 	0.25600 0.50900 0.51120 0.10700
C 	C 	0.18300 0.44800 0.57920 0.10600
C 	C 	0.26500 0.50440 0.46110 0.02500
C 	C 	0.36400 0.56100 0.43820 -0.07400
H 	H 	0.42740 0.60240 0.45570 0.06700
C 	C 	0.37100 0.55690 0.38860 0.01900
H 	H 	0.44040 0.59430 0.37290 0.03900
C 	C 	0.27200 0.49580 0.36270 -0.10300
C 	C 	0.17900 0.44100 0.38640 0.03200
H 	H 	0.11460 0.39990 0.36920 0.03400
C 	C 	0.17400 0.44210 0.43480 -0.08300
H 	H 	0.11050 0.40120 0.45010 0.07100
C 	C 	0.27800 0.49350 0.31190 0.33700
C 	C 	0.12100 0.37320 0.60530 0.01800
C 	C 	0.10300 0.29350 0.58180 -0.07400
H 	H 	0.13410 0.28760 0.55060 0.06400
C 	C 	0.03800 0.22210 0.60520 0.00700
H 	H 	0.02840 0.16780 0.58970 0.04000
C 	C 	0.98800 0.22940 0.64910 -0.07800
C 	C 	0.00600 0.31110 0.67350 -0.00100
H 	H 	0.97630 0.31680 0.70490 0.05000
C 	C 	0.06600 0.38070 0.65000 -0.06800
H 	H 	0.07040 0.43580 0.66480 0.06700
C 	C 	0.92800 0.15250 0.67350 0.28500
Tb	Tb	0.27314 0.48694 0.21417 1.55800
O 	O 	0.15630 0.56490 0.14960 -0.40700
O 	O 	0.10040 0.61430 0.21910 -0.40400
O 	O 	0.88630 0.96400 0.79060 -0.39900
O 	O 	0.67040 0.04450 0.78890 -0.42500
O 	O 	0.36420 0.40630 0.14730 -0.39600
O 	O 	0.43050 0.35100 0.21770 -0.39800
N 	N 	0.81170 0.91870 0.03440 -0.14200
N 	N 	0.69100 0.05830 0.03290 -0.14100
N 	N 	0.74050 0.98430 0.10620 -0.13800
C 	C 	0.08900 0.62160 0.17660 0.28800
C 	C 	0.01600 0.69810 0.15090 -0.07000
C 	C 	0.00800 0.70510 0.10300 -0.00300
H 	H 	0.05120 0.65950 0.08530 0.04500
C 	C 	0.94000 0.77620 0.07920 -0.06700
H 	H 	0.93730 0.77990 0.04610 0.06300
C 	C 	0.87300 0.84410 0.10700 0.01100
C 	C 	0.88200 0.83710 0.15370 -0.05900
H 	H 	0.83640 0.88270 0.17080 0.05700
C 	C 	0.95400 0.76840 0.17970 -0.01800
H 	H 	0.96190 0.76740 0.21290 0.05500
C 	C 	0.80600 0.91950 0.08000 0.11100
C 	C 	0.75600 0.99100 0.01120 0.10400
C 	C 	0.68300 0.05200 0.07920 0.10700
C 	C 	0.76500 0.99560 0.96110 0.03100
C 	C 	0.86400 0.93900 0.93820 -0.07900
H 	H 	0.92740 0.89760 0.95570 0.06900
C 	C 	0.87100 0.94310 0.88860 0.02500
H 	H 	0.94040 0.90570 0.87290 0.03800
C 	C 	0.77200 0.00420 0.86270 -0.10700
C 	C 	0.67900 0.05900 0.88640 0.03600
H 	H 	0.61460 0.10010 0.86920 0.03200
C 	C 	0.67400 0.05790 0.93480 -0.09000
H 	H 	0.61050 0.09880 0.95010 0.07300
C 	C 	0.77800 0.00650 0.81190 0.33500
C 	C 	0.62100 0.12680 0.10530 0.01700
C 	C 	0.60300 0.20650 0.08180 -0.07200
H 	H 	0.63410 0.21240 0.05060 0.06300
C 	C 	0.53800 0.27790 0.10520 0.00300
H 	H 	0.52840 0.33220 0.08970 0.04100
C 	C 	0.48800 0.27060 0.14910 -0.07400
C 	C 	0.50600 0.18890 0.17350 -0.00500
H 	H 	0.47630 0.18320 0.20490 0.05200
C 	C 	0.56600 0.11930 0.15000 -0.06600
H 	H 	0.57040 0.06420 0.16480 0.06600
C 	C 	0.42800 0.34750 0.17350 0.28400
Tb	Tb	0.72686 0.51306 0.78583 1.55800
O 	O 	0.84370 0.43510 0.85040 -0.40700
O 	O 	0.89960 0.38570 0.78090 -0.40400
O 	O 	0.11370 0.03600 0.20940 -0.39900
O 	O 	0.32960 0.95550 0.21110 -0.42500
O 	O 	0.63580 0.59370 0.85270 -0.39600
O 	O 	0.56950 0.64900 0.78230 -0.39800
N 	N 	0.18830 0.08130 0.96560 -0.14200
N 	N 	0.30900 0.94170 0.96710 -0.14100
N 	N 	0.25950 0.01570 0.89380 -0.13800
C 	C 	0.91100 0.37840 0.82340 0.28800
C 	C 	0.98400 0.30190 0.84910 -0.07000
C 	C 	0.99200 0.29490 0.89700 -0.00300
H 	H 	0.94880 0.34050 0.91470 0.04500
C 	C 	0.06000 0.22380 0.92080 -0.06700
H 	H 	0.06270 0.22010 0.95390 0.06300
C 	C 	0.12700 0.15590 0.89300 0.01100
C 	C 	0.11800 0.16290 0.84630 -0.05900
H 	H 	0.16360 0.11730 0.82920 0.05700
C 	C 	0.04600 0.23160 0.82030 -0.01800
H 	H 	0.03810 0.23260 0.78710 0.05500
C 	C 	0.19400 0.08050 0.92000 0.11100
C 	C 	0.24400 0.00900 0.98880 0.10400
C 	C 	0.31700 0.94800 0.92080 0.10700
C 	C 	0.23500 0.00440 0.03890 0.03100
C 	C 	0.13600 0.06100 0.06180 -0.07900
H 	H 	0.07260 0.10240 0.04430 0.06900
C 	C 	0.12900 0.05690 0.11140 0.02500
H 	H 	0.05960 0.09430 0.12710 0.03800
C 	C 	0.22800 0.99580 0.13730 -0.10700
C 	C 	0.32100 0.94100 0.11360 0.03600
H 	H 	0.38540 0.89990 0.13080 0.03200
C 	C 	0.32600 0.94210 0.06520 -0.09000
H 	H 	0.38950 0.90120 0.04990 0.07300
C 	C 	0.22200 0.99350 0.18810 0.33500
C 	C 	0.37900 0.87320 0.89470 0.01700
C 	C 	0.39700 0.79350 0.91820 -0.07200
H 	H 	0.36590 0.78760 0.94940 0.06300
C 	C 	0.46200 0.72210 0.89480 0.00300
H 	H 	0.47160 0.66780 0.91030 0.04100
C 	C 	0.51200 0.72940 0.85090 -0.07400
C 	C 	0.49400 0.81110 0.82650 -0.00500
H 	H 	0.52370 0.81680 0.79510 0.05200
C 	C 	0.43400 0.88070 0.85000 -0.06600
H 	H 	0.42960 0.93580 0.83520 0.06600
C 	C 	0.57200 0.65250 0.82650 0.28400
Tb	Tb	0.22686 0.98694 0.28583 1.55500
O 	O 	0.34370 0.06490 0.35040 -0.40600
O 	O 	0.39960 0.11430 0.28090 -0.40300
O 	O 	0.61370 0.46400 0.70940 -0.40200
O 	O 	0.82960 0.54450 0.71110 -0.42600
O 	O 	0.13580 0.90630 0.35270 -0.39700
O 	O 	0.06950 0.85100 0.28230 -0.39900
N 	N 	0.68830 0.41870 0.46560 -0.14200
N 	N 	0.80900 0.55830 0.46710 -0.14100
N 	N 	0.75950 0.48430 0.39380 -0.13800
C 	C 	0.41100 0.12160 0.32340 0.28800
C 	C 	0.48400 0.19810 0.34910 -0.06900
C 	C 	0.49200 0.20510 0.39700 -0.00200
H 	H 	0.44880 0.15950 0.41470 0.04500
C 	C 	0.56000 0.27620 0.42080 -0.06800
H 	H 	0.56270 0.27990 0.45390 0.06300
C 	C 	0.62700 0.34410 0.39300 0.01100
C 	C 	0.61800 0.33710 0.34630 -0.06000
H 	H 	0.66360 0.38270 0.32920 0.05700
C 	C 	0.54600 0.26840 0.32030 -0.01900
H 	H 	0.53810 0.26740 0.28710 0.05500
C 	C 	0.69400 0.41950 0.42000 0.11100
C 	C 	0.74400 0.49100 0.48880 0.10700
C 	C 	0.81700 0.55200 0.42080 0.10600
C 	C 	0.73500 0.49560 0.53890 0.02500
C 	C 	0.63600 0.43900 0.56180 -0.07400
H 	H 	0.57260 0.39760 0.54430 0.06700
C 	C 	0.62900 0.44310 0.61140 0.01900
H 	H 	0.55960 0.40570 0.62710 0.03900
C 	C 	0.72800 0.50420 0.63730 -0.10300
C 	C 	0.82100 0.55900 0.61360 0.03200
H 	H 	0.88540 0.60010 0.63080 0.03400
C 	C 	0.82600 0.55790 0.56520 -0.08300
H 	H 	0.88950 0.59880 0.54990 0.07100
C 	C 	0.72200 0.50650 0.68810 0.33700
C 	C 	0.87900 0.62680 0.39470 0.01800
C 	C 	0.89700 0.70650 0.41820 -0.07400
H 	H 	0.86590 0.71240 0.44940 0.06400
C 	C 	0.96200 0.77790 0.39480 0.00700
H 	H 	0.97160 0.83220 0.41030 0.04000
C 	C 	0.01200 0.77060 0.35090 -0.07800
C 	C 	0.99400 0.68890 0.32650 -0.00100
H 	H 	0.02370 0.68320 0.29510 0.05000
C 	C 	0.93400 0.61930 0.35000 -0.06800
H 	H 	0.92960 0.56420 0.33520 0.06700
C 	C 	0.07200 0.84750 0.32650 0.28500
