data_crystal

_cell_length_a 23.05990
_cell_length_b 11.00500
_cell_length_c 20.94970
_cell_angle_alpha 90.00000
_cell_angle_beta  106.36900
_cell_angle_gamma 90.00000

_symmetry_space_group_name_	'P 1'
_symmetry_space_group_name_H-M	'P 1'

loop_
_symmetry_equiv_pos_as_xyz
  x,y,z

loop_
_atom_site_label
_atom_site_type_symbol
_atom_site_fract_x
_atom_site_fract_y
_atom_site_fract_z
_atom_site_charge
Eu	Eu	0.64038 0.82025 0.85820 1.95100
O 	O 	0.81540 0.39140 0.97030 -0.27700
O 	O 	0.90730 0.23190 0.75790 -0.54800
O 	O 	0.88030 0.42150 0.75230 -0.41800
O 	O 	0.07600 0.32330 0.93380 -0.41400
O 	O 	0.02590 0.30930 0.82800 -0.55200
O 	O 	0.61610 0.03560 0.86830 -0.38700
O 	O 	0.71160 0.99160 0.87740 -0.40300
O 	O 	0.56880 0.47810 0.79230 -0.48400
O 	O 	0.61970 0.61180 0.86710 -0.53500
O 	O 	0.70910 0.77360 0.96060 -0.59500
C 	C 	0.86480 0.36770 0.94740 0.26800
C 	C 	0.85940 0.35550 0.88080 -0.19200
H 	H 	0.82070 0.35760 0.84920 0.09400
C 	C 	0.91210 0.33960 0.85970 0.01500
C 	C 	0.96890 0.33420 0.90590 -0.11100
C 	C 	0.97080 0.35410 0.97360 0.21900
H 	H 	0.00930 0.35720 0.00560 -0.06200
C 	C 	0.92060 0.36910 0.99540 -0.28700
H 	H 	0.92360 0.37990 0.04120 0.17000
C 	C 	0.90030 0.33200 0.78530 0.35600
C 	C 	0.02660 0.32080 0.88930 0.31200
C 	C 	0.75840 0.35570 0.93020 0.18100
C 	C 	0.74500 0.23570 0.91940 -0.13400
H 	H 	0.77580 0.17650 0.93450 0.09700
C 	C 	0.68620 0.19920 0.88640 -0.01800
C 	C 	0.64280 0.28720 0.86220 -0.01800
H 	H 	0.60250 0.26440 0.83950 0.05800
C 	C 	0.65870 0.41090 0.87150 -0.07200
C 	C 	0.71600 0.44500 0.90770 -0.10600
H 	H 	0.72590 0.52820 0.91690 0.06300
C 	C 	0.67070 0.07010 0.87830 0.29000
C 	C 	0.61240 0.50790 0.84230 0.40000
C 	C 	0.76670 0.77630 0.98160 0.38500
H 	H 	0.79120 0.81310 0.95670 -0.09800
Eu	Eu	0.14038 0.32025 0.85820 1.94400
O 	O 	0.31540 0.89140 0.97030 -0.26900
O 	O 	0.40730 0.73190 0.75790 -0.58000
O 	O 	0.38030 0.92150 0.75230 -0.42700
O 	O 	0.57600 0.82330 0.93380 -0.42100
O 	O 	0.52590 0.80930 0.82800 -0.55500
O 	O 	0.11610 0.53560 0.86830 -0.39300
O 	O 	0.21160 0.49160 0.87740 -0.40700
O 	O 	0.06880 0.97810 0.79230 -0.48100
O 	O 	0.11970 0.11180 0.86710 -0.53300
O 	O 	0.20910 0.27360 0.96060 -0.59700
C 	C 	0.36480 0.86770 0.94740 0.23400
C 	C 	0.35940 0.85550 0.88080 -0.17200
H 	H 	0.32070 0.85760 0.84920 0.08700
C 	C 	0.41210 0.83960 0.85970 0.00200
C 	C 	0.46890 0.83420 0.90590 -0.13800
C 	C 	0.47080 0.85410 0.97360 0.08600
H 	H 	0.50930 0.85720 0.00560 0.02100
C 	C 	0.42060 0.86910 0.99540 -0.21400
H 	H 	0.42360 0.87990 0.04120 0.13200
C 	C 	0.40030 0.83200 0.78530 0.35500
C 	C 	0.52660 0.82080 0.88930 0.36800
C 	C 	0.25840 0.85570 0.93020 0.17300
C 	C 	0.24500 0.73570 0.91940 -0.12700
H 	H 	0.27580 0.67650 0.93450 0.09300
C 	C 	0.18620 0.69920 0.88640 -0.02600
C 	C 	0.14280 0.78720 0.86220 -0.01300
H 	H 	0.10250 0.76440 0.83950 0.04900
C 	C 	0.15870 0.91090 0.87150 -0.07700
C 	C 	0.21600 0.94500 0.90770 -0.09600
H 	H 	0.22590 0.02820 0.91690 0.05700
C 	C 	0.17070 0.57010 0.87830 0.29600
C 	C 	0.11240 0.00790 0.84230 0.39400
C 	C 	0.26670 0.27630 0.98160 0.38000
H 	H 	0.29120 0.31310 0.95670 -0.10000
Eu	Eu	0.35962 0.82025 0.64180 1.94800
O 	O 	0.18460 0.39140 0.52970 -0.26100
O 	O 	0.09270 0.23190 0.74210 -0.57100
O 	O 	0.11970 0.42150 0.74770 -0.43000
O 	O 	0.92400 0.32330 0.56620 -0.42000
O 	O 	0.97410 0.30930 0.67200 -0.52000
O 	O 	0.38390 0.03560 0.63170 -0.38600
O 	O 	0.28840 0.99160 0.62260 -0.40600
O 	O 	0.43120 0.47810 0.70770 -0.48500
O 	O 	0.38030 0.61180 0.63290 -0.53500
O 	O 	0.29090 0.77360 0.53940 -0.59300
C 	C 	0.13520 0.36770 0.55260 0.20100
C 	C 	0.14060 0.35550 0.61920 -0.15300
H 	H 	0.17930 0.35760 0.65080 0.08000
C 	C 	0.08790 0.33960 0.64030 -0.00600
C 	C 	0.03110 0.33420 0.59410 -0.15600
C 	C 	0.02920 0.35410 0.52640 -0.05100
H 	H 	0.99070 0.35720 0.49440 0.11000
C 	C 	0.07940 0.36910 0.50460 -0.13800
H 	H 	0.07640 0.37990 0.45880 0.09300
C 	C 	0.09970 0.33200 0.71470 0.34300
C 	C 	0.97340 0.32080 0.61070 0.41700
C 	C 	0.24160 0.35570 0.56980 0.17400
C 	C 	0.25500 0.23570 0.58060 -0.12700
H 	H 	0.22420 0.17650 0.56550 0.09300
C 	C 	0.31380 0.19920 0.61360 -0.02200
C 	C 	0.35720 0.28720 0.63780 -0.01500
H 	H 	0.39750 0.26440 0.66050 0.05700
C 	C 	0.34130 0.41090 0.62850 -0.07400
C 	C 	0.28400 0.44500 0.59230 -0.10100
H 	H 	0.27410 0.52820 0.58310 0.06100
C 	C 	0.32930 0.07010 0.62170 0.29400
C 	C 	0.38760 0.50790 0.65770 0.40100
C 	C 	0.23330 0.77630 0.51840 0.39500
H 	H 	0.20880 0.81310 0.54330 -0.10500
Eu	Eu	0.85962 0.32025 0.64180 1.95500
O 	O 	0.68460 0.89140 0.52970 -0.26900
O 	O 	0.59270 0.73190 0.74210 -0.58000
O 	O 	0.61970 0.92150 0.74770 -0.42600
O 	O 	0.42400 0.82330 0.56620 -0.41900
O 	O 	0.47410 0.80930 0.67200 -0.55500
O 	O 	0.88390 0.53560 0.63170 -0.37800
O 	O 	0.78840 0.49160 0.62260 -0.40500
O 	O 	0.93120 0.97810 0.70770 -0.43700
O 	O 	0.88030 0.11180 0.63290 -0.52000
O 	O 	0.79090 0.27360 0.53940 -0.59300
C 	C 	0.63520 0.86770 0.55260 0.23400
C 	C 	0.64060 0.85550 0.61920 -0.17200
H 	H 	0.67930 0.85760 0.65080 0.08700
C 	C 	0.58790 0.83960 0.64030 0.00200
C 	C 	0.53110 0.83420 0.59410 -0.13800
C 	C 	0.52920 0.85410 0.52640 0.09000
H 	H 	0.49070 0.85720 0.49440 0.01800
C 	C 	0.57940 0.86910 0.50460 -0.21000
H 	H 	0.57640 0.87990 0.45880 0.12800
C 	C 	0.59970 0.83200 0.71470 0.35500
C 	C 	0.47340 0.82080 0.61070 0.36800
C 	C 	0.74160 0.85570 0.56980 0.18100
C 	C 	0.75500 0.73570 0.58060 -0.13400
H 	H 	0.72420 0.67650 0.56550 0.09700
C 	C 	0.81380 0.69920 0.61360 -0.01300
C 	C 	0.85720 0.78720 0.63780 -0.02300
H 	H 	0.89750 0.76440 0.66050 0.07000
C 	C 	0.84130 0.91090 0.62850 -0.06100
C 	C 	0.78400 0.94500 0.59230 -0.10800
H 	H 	0.77410 0.02820 0.58310 0.06400
C 	C 	0.82930 0.57010 0.62170 0.29200
C 	C 	0.88760 0.00790 0.65770 0.39100
C 	C 	0.73330 0.27630 0.51840 0.39500
H 	H 	0.70880 0.31310 0.54330 -0.10300
Eu	Eu	0.35962 0.17975 0.14180 1.94900
O 	O 	0.18460 0.60860 0.02970 -0.25900
O 	O 	0.09270 0.76810 0.24210 -0.57100
O 	O 	0.11970 0.57850 0.24770 -0.43000
O 	O 	0.92400 0.67670 0.06620 -0.41900
O 	O 	0.97410 0.69070 0.17200 -0.52000
O 	O 	0.38390 0.96440 0.13170 -0.38600
O 	O 	0.28840 0.00840 0.12260 -0.40400
O 	O 	0.43120 0.52190 0.20770 -0.48400
O 	O 	0.38030 0.38820 0.13290 -0.53400
O 	O 	0.29090 0.22640 0.03940 -0.59000
C 	C 	0.13520 0.63230 0.05260 0.19900
C 	C 	0.14060 0.64450 0.11920 -0.15200
H 	H 	0.17930 0.64240 0.15080 0.08000
C 	C 	0.08790 0.66040 0.14030 -0.00600
C 	C 	0.03110 0.66580 0.09410 -0.15700
C 	C 	0.02920 0.64590 0.02640 -0.04200
H 	H 	0.99070 0.64280 0.99440 0.10300
C 	C 	0.07940 0.63090 0.00460 -0.13200
H 	H 	0.07640 0.62010 0.95880 0.08800
C 	C 	0.09970 0.66800 0.21470 0.34300
C 	C 	0.97340 0.67920 0.11070 0.41700
C 	C 	0.24160 0.64430 0.06980 0.17400
C 	C 	0.25500 0.76430 0.08060 -0.12700
H 	H 	0.22420 0.82350 0.06550 0.09400
C 	C 	0.31380 0.80080 0.11360 -0.02100
C 	C 	0.35720 0.71280 0.13780 -0.01500
H 	H 	0.39750 0.73560 0.16050 0.05800
C 	C 	0.34130 0.58910 0.12850 -0.07400
C 	C 	0.28400 0.55500 0.09230 -0.10000
H 	H 	0.27410 0.47180 0.08310 0.06200
C 	C 	0.32930 0.92990 0.12170 0.29300
C 	C 	0.38760 0.49210 0.15770 0.40100
C 	C 	0.23330 0.22370 0.01840 0.41000
H 	H 	0.20880 0.18690 0.04330 -0.10900
Eu	Eu	0.85962 0.67975 0.14180 1.95600
O 	O 	0.68460 0.10860 0.02970 -0.26500
O 	O 	0.59270 0.26810 0.24210 -0.58000
O 	O 	0.61970 0.07850 0.24770 -0.42700
O 	O 	0.42400 0.17670 0.06620 -0.41700
O 	O 	0.47410 0.19070 0.17200 -0.55600
O 	O 	0.88390 0.46440 0.13170 -0.37800
O 	O 	0.78840 0.50840 0.12260 -0.40500
O 	O 	0.93120 0.02190 0.20770 -0.43600
O 	O 	0.88030 0.88820 0.13290 -0.52000
O 	O 	0.79090 0.72640 0.03940 -0.59100
C 	C 	0.63520 0.13230 0.05260 0.23000
C 	C 	0.64060 0.14450 0.11920 -0.17000
H 	H 	0.67930 0.14240 0.15080 0.08700
C 	C 	0.58790 0.16040 0.14030 0.00200
C 	C 	0.53110 0.16580 0.09410 -0.14000
C 	C 	0.52920 0.14590 0.02640 0.09900
H 	H 	0.49070 0.14280 0.99440 0.00900
C 	C 	0.57940 0.13090 0.00460 -0.19900
H 	H 	0.57640 0.12010 0.95880 0.12000
C 	C 	0.59970 0.16800 0.21470 0.35500
C 	C 	0.47340 0.17920 0.11070 0.36900
C 	C 	0.74160 0.14430 0.06980 0.18000
C 	C 	0.75500 0.26430 0.08060 -0.13200
H 	H 	0.72420 0.32350 0.06550 0.09700
C 	C 	0.81380 0.30080 0.11360 -0.01300
C 	C 	0.85720 0.21280 0.13780 -0.02200
H 	H 	0.89750 0.23560 0.16050 0.07000
C 	C 	0.84130 0.08910 0.12850 -0.06000
C 	C 	0.78400 0.05500 0.09230 -0.10300
H 	H 	0.77410 0.97180 0.08310 0.06100
C 	C 	0.82930 0.42990 0.12170 0.29200
C 	C 	0.88760 0.99210 0.15770 0.38900
C 	C 	0.73330 0.72370 0.01840 0.40300
H 	H 	0.70880 0.68690 0.04330 -0.10600
Eu	Eu	0.64038 0.17975 0.35820 1.95000
O 	O 	0.81540 0.60860 0.47030 -0.27500
O 	O 	0.90730 0.76810 0.25790 -0.54900
O 	O 	0.88030 0.57850 0.25230 -0.41900
O 	O 	0.07600 0.67670 0.43380 -0.41300
O 	O 	0.02590 0.69070 0.32800 -0.55300
O 	O 	0.61610 0.96440 0.36830 -0.38600
O 	O 	0.71160 0.00840 0.37740 -0.40400
O 	O 	0.56880 0.52190 0.29230 -0.48400
O 	O 	0.61970 0.38820 0.36710 -0.53500
O 	O 	0.70910 0.22640 0.46060 -0.59300
C 	C 	0.86480 0.63230 0.44740 0.26600
C 	C 	0.85940 0.64450 0.38080 -0.19100
H 	H 	0.82070 0.64240 0.34920 0.09400
C 	C 	0.91210 0.66040 0.35970 0.01600
C 	C 	0.96890 0.66580 0.40590 -0.11300
C 	C 	0.97080 0.64590 0.47360 0.22900
H 	H 	0.00930 0.64280 0.50560 -0.07100
C 	C 	0.92060 0.63090 0.49540 -0.27900
H 	H 	0.92360 0.62010 0.54120 0.16400
C 	C 	0.90030 0.66800 0.28530 0.35600
C 	C 	0.02660 0.67920 0.38930 0.31200
C 	C 	0.75840 0.64430 0.43020 0.18100
C 	C 	0.74500 0.76430 0.41940 -0.13300
H 	H 	0.77580 0.82350 0.43450 0.09800
C 	C 	0.68620 0.80080 0.38640 -0.01800
C 	C 	0.64280 0.71280 0.36220 -0.01800
H 	H 	0.60250 0.73560 0.33950 0.05800
C 	C 	0.65870 0.58910 0.37150 -0.07100
C 	C 	0.71600 0.55500 0.40770 -0.10500
H 	H 	0.72590 0.47180 0.41690 0.06300
C 	C 	0.67070 0.92990 0.37830 0.29200
C 	C 	0.61240 0.49210 0.34230 0.40000
C 	C 	0.76670 0.22370 0.48160 0.39500
H 	H 	0.79120 0.18690 0.45670 -0.10000
Eu	Eu	0.14038 0.67975 0.35820 1.94500
O 	O 	0.31540 0.10860 0.47030 -0.26700
O 	O 	0.40730 0.26810 0.25790 -0.58000
O 	O 	0.38030 0.07850 0.25230 -0.42700
O 	O 	0.57600 0.17670 0.43380 -0.41900
O 	O 	0.52590 0.19070 0.32800 -0.55600
O 	O 	0.11610 0.46440 0.36830 -0.39300
O 	O 	0.21160 0.50840 0.37740 -0.40600
O 	O 	0.06880 0.02190 0.29230 -0.48200
O 	O 	0.11970 0.88820 0.36710 -0.53200
O 	O 	0.20910 0.72640 0.46060 -0.59400
C 	C 	0.36480 0.13230 0.44740 0.23300
C 	C 	0.35940 0.14450 0.38080 -0.17100
H 	H 	0.32070 0.14240 0.34920 0.08600
C 	C 	0.41210 0.16040 0.35970 0.00200
C 	C 	0.46890 0.16580 0.40590 -0.13800
C 	C 	0.47080 0.14590 0.47360 0.09000
H 	H 	0.50930 0.14280 0.50560 0.01800
C 	C 	0.42060 0.13090 0.49540 -0.20900
H 	H 	0.42360 0.12010 0.54120 0.12800
C 	C 	0.40030 0.16800 0.28530 0.35500
C 	C 	0.52660 0.17920 0.38930 0.36800
C 	C 	0.25840 0.14430 0.43020 0.17500
C 	C 	0.24500 0.26430 0.41940 -0.12700
H 	H 	0.27580 0.32350 0.43450 0.09500
C 	C 	0.18620 0.30080 0.38640 -0.02500
C 	C 	0.14280 0.21280 0.36220 -0.01300
H 	H 	0.10250 0.23560 0.33950 0.04900
C 	C 	0.15870 0.08910 0.37150 -0.07700
C 	C 	0.21600 0.05500 0.40770 -0.10000
H 	H 	0.22590 0.97180 0.41690 0.06000
C 	C 	0.17070 0.42990 0.37830 0.29600
C 	C 	0.11240 0.99210 0.34230 0.39700
C 	C 	0.26670 0.72370 0.48160 0.39500
H 	H 	0.29120 0.68690 0.45670 -0.10300
Eu	Eu	0.50000 0.63879 0.75000 1.81100
Eu	Eu	0.00000 0.13879 0.75000 1.65600
Eu	Eu	0.50000 0.36121 0.25000 1.81200
Eu	Eu	0.00000 0.86121 0.25000 1.65800
