data_crystal

_cell_length_a 18.69230
_cell_length_b 18.69230
_cell_length_c 38.20230
_cell_angle_alpha 90.00000
_cell_angle_beta  90.00000
_cell_angle_gamma 120.00000

_symmetry_space_group_name_	'P 1'
_symmetry_space_group_name_H-M	'P 1'

loop_
_symmetry_equiv_pos_as_xyz
  x,y,z

loop_
_atom_site_label
_atom_site_type_symbol
_atom_site_fract_x
_atom_site_fract_y
_atom_site_fract_z
_atom_site_charge
O 	O 	0.58928 0.55680 0.54377 -0.38900
C 	C 	0.71940 0.56710 0.54309 -0.05200
C 	C 	0.63940 0.54580 0.52595 0.35800
C 	C 	0.73510 0.59790 0.57705 -0.02000
H 	H 	0.69720 0.60860 0.58830 0.08000
C 	C 	0.89900 0.70160 0.64340 -0.08100
C 	C 	0.75700 0.60700 0.65540 0.04100
O 	O 	0.04710 0.77830 0.62740 -0.22100
O 	O 	0.96800 0.77620 0.59330 -0.28900
C 	C 	0.97770 0.76460 0.61810 0.44300
O 	O 	0.62854 0.51740 0.49549 -0.39000
O 	O 	0.25595 0.89013 0.87710 -0.39000
C 	C 	0.38607 0.90043 0.87642 -0.05300
C 	C 	0.30607 0.87913 0.85928 0.35700
C 	C 	0.40177 0.93123 0.91038 -0.02100
H 	H 	0.36387 0.94193 0.92163 0.07900
C 	C 	0.56567 0.03493 0.97673 -0.08100
C 	C 	0.42367 0.94033 0.98873 0.04000
O 	O 	0.71377 0.11163 0.96073 -0.22200
O 	O 	0.63467 0.10953 0.92663 -0.29000
C 	C 	0.64437 0.09793 0.95143 0.44100
O 	O 	0.29521 0.85073 0.82882 -0.39000
O 	O 	0.92261 0.22347 0.21044 -0.39000
C 	C 	0.05273 0.23377 0.20976 -0.05300
C 	C 	0.97273 0.21247 0.19262 0.35700
C 	C 	0.06843 0.26457 0.24372 -0.02100
H 	H 	0.03053 0.27527 0.25497 0.07900
C 	C 	0.23233 0.36827 0.31007 -0.08200
C 	C 	0.09033 0.27367 0.32207 0.04000
O 	O 	0.38043 0.44497 0.29407 -0.22200
O 	O 	0.30133 0.44287 0.25997 -0.29000
C 	C 	0.31103 0.43127 0.28477 0.44200
O 	O 	0.96187 0.18407 0.16216 -0.39000
O 	O 	0.44320 0.03248 0.54377 -0.39000
C 	C 	0.43290 0.15230 0.54309 -0.05300
C 	C 	0.45420 0.09360 0.52595 0.35700
C 	C 	0.40210 0.13720 0.57705 -0.02100
H 	H 	0.39140 0.08860 0.58830 0.07900
C 	C 	0.29840 0.19740 0.64340 -0.08200
C 	C 	0.39300 0.15000 0.65540 0.04000
O 	O 	0.22170 0.26880 0.62740 -0.22200
O 	O 	0.22380 0.19180 0.59330 -0.29000
C 	C 	0.23540 0.21310 0.61810 0.44200
O 	O 	0.48260 0.11114 0.49549 -0.39000
O 	O 	0.10987 0.36581 0.87710 -0.39000
C 	C 	0.09957 0.48563 0.87642 -0.05300
C 	C 	0.12087 0.42693 0.85928 0.35700
C 	C 	0.06877 0.47053 0.91038 -0.02100
H 	H 	0.05807 0.42193 0.92163 0.07900
C 	C 	0.96507 0.53073 0.97673 -0.08200
C 	C 	0.05967 0.48333 0.98873 0.04000
O 	O 	0.88837 0.60213 0.96073 -0.22200
O 	O 	0.89047 0.52513 0.92663 -0.29000
C 	C 	0.90207 0.54643 0.95143 0.44100
O 	O 	0.14927 0.44447 0.82882 -0.39000
O 	O 	0.77653 0.69915 0.21044 -0.39000
C 	C 	0.76623 0.81897 0.20976 -0.05300
C 	C 	0.78753 0.76027 0.19262 0.35700
C 	C 	0.73543 0.80387 0.24372 -0.02100
H 	H 	0.72473 0.75527 0.25497 0.07900
C 	C 	0.63173 0.86407 0.31007 -0.08200
C 	C 	0.72633 0.81667 0.32207 0.04000
O 	O 	0.55503 0.93547 0.29407 -0.22200
O 	O 	0.55713 0.85847 0.25997 -0.29000
C 	C 	0.56873 0.87977 0.28477 0.44200
O 	O 	0.81593 0.77781 0.16216 -0.39000
O 	O 	0.96752 0.41072 0.54377 -0.39000
C 	C 	0.84770 0.28060 0.54309 -0.05300
C 	C 	0.90640 0.36060 0.52595 0.35700
C 	C 	0.86280 0.26490 0.57705 -0.02100
H 	H 	0.91140 0.30280 0.58830 0.07900
C 	C 	0.80260 0.10100 0.64340 -0.08200
C 	C 	0.85000 0.24300 0.65540 0.04000
O 	O 	0.73120 0.95290 0.62740 -0.22200
O 	O 	0.80820 0.03200 0.59330 -0.29000
C 	C 	0.78690 0.02230 0.61810 0.44200
O 	O 	0.88886 0.37146 0.49549 -0.39000
O 	O 	0.63419 0.74405 0.87710 -0.39000
C 	C 	0.51437 0.61393 0.87642 -0.05300
C 	C 	0.57307 0.69393 0.85928 0.35700
C 	C 	0.52947 0.59823 0.91038 -0.02100
H 	H 	0.57807 0.63613 0.92163 0.07900
C 	C 	0.46927 0.43433 0.97673 -0.08200
C 	C 	0.51667 0.57633 0.98873 0.04000
O 	O 	0.39787 0.28623 0.96073 -0.22200
O 	O 	0.47487 0.36533 0.92663 -0.29000
C 	C 	0.45357 0.35563 0.95143 0.44200
O 	O 	0.55553 0.70479 0.82882 -0.39000
O 	O 	0.30085 0.07739 0.21044 -0.39000
C 	C 	0.18103 0.94727 0.20976 -0.05300
C 	C 	0.23973 0.02727 0.19262 0.35700
C 	C 	0.19613 0.93157 0.24372 -0.02100
H 	H 	0.24473 0.96947 0.25497 0.07900
C 	C 	0.13593 0.76767 0.31007 -0.08200
C 	C 	0.18333 0.90967 0.32207 0.04000
O 	O 	0.06453 0.61957 0.29407 -0.22200
O 	O 	0.14153 0.69867 0.25997 -0.29000
C 	C 	0.12023 0.68897 0.28477 0.44200
O 	O 	0.22219 0.03813 0.16216 -0.39000
O 	O 	0.55680 0.58928 0.45623 -0.39000
C 	C 	0.56710 0.71940 0.45691 -0.05300
C 	C 	0.54580 0.63940 0.47405 0.35700
C 	C 	0.59790 0.73510 0.42295 -0.02100
H 	H 	0.60860 0.69720 0.41170 0.07900
C 	C 	0.70160 0.89900 0.35660 -0.08200
C 	C 	0.60700 0.75700 0.34460 0.04000
O 	O 	0.77830 0.04710 0.37260 -0.22200
O 	O 	0.77620 0.96800 0.40670 -0.29000
C 	C 	0.76460 0.97770 0.38190 0.44200
O 	O 	0.51740 0.62854 0.50451 -0.39000
O 	O 	0.22347 0.92261 0.78956 -0.39000
C 	C 	0.23377 0.05273 0.79024 -0.05300
C 	C 	0.21247 0.97273 0.80738 0.35700
C 	C 	0.26457 0.06843 0.75628 -0.02100
H 	H 	0.27527 0.03053 0.74503 0.07900
C 	C 	0.36827 0.23233 0.68993 -0.08200
C 	C 	0.27367 0.09033 0.67793 0.04000
O 	O 	0.44497 0.38043 0.70593 -0.22200
O 	O 	0.44287 0.30133 0.74003 -0.29000
C 	C 	0.43127 0.31103 0.71523 0.44200
O 	O 	0.18407 0.96187 0.83784 -0.39000
O 	O 	0.89013 0.25595 0.12290 -0.39000
C 	C 	0.90043 0.38607 0.12358 -0.05300
C 	C 	0.87913 0.30607 0.14072 0.35700
C 	C 	0.93123 0.40177 0.08962 -0.02100
H 	H 	0.94193 0.36387 0.07837 0.07900
C 	C 	0.03493 0.56567 0.02327 -0.08100
C 	C 	0.94033 0.42367 0.01127 0.04000
O 	O 	0.11163 0.71377 0.03927 -0.22200
O 	O 	0.10953 0.63467 0.07337 -0.29000
C 	C 	0.09793 0.64437 0.04857 0.44100
O 	O 	0.85073 0.29521 0.17118 -0.39000
O 	O 	0.03248 0.44320 0.45623 -0.39000
C 	C 	0.15230 0.43290 0.45691 -0.05300
C 	C 	0.09360 0.45420 0.47405 0.35700
C 	C 	0.13720 0.40210 0.42295 -0.02100
H 	H 	0.08860 0.39140 0.41170 0.07900
C 	C 	0.19740 0.29840 0.35660 -0.08200
C 	C 	0.15000 0.39300 0.34460 0.04000
O 	O 	0.26880 0.22170 0.37260 -0.22200
O 	O 	0.19180 0.22380 0.40670 -0.29000
C 	C 	0.21310 0.23540 0.38190 0.44200
O 	O 	0.11114 0.48260 0.50451 -0.39000
O 	O 	0.69915 0.77653 0.78956 -0.39000
C 	C 	0.81897 0.76623 0.79024 -0.05300
C 	C 	0.76027 0.78753 0.80738 0.35700
C 	C 	0.80387 0.73543 0.75628 -0.02100
H 	H 	0.75527 0.72473 0.74503 0.07900
C 	C 	0.86407 0.63173 0.68993 -0.08200
C 	C 	0.81667 0.72633 0.67793 0.04000
O 	O 	0.93547 0.55503 0.70593 -0.22200
O 	O 	0.85847 0.55713 0.74003 -0.29000
C 	C 	0.87977 0.56873 0.71523 0.44200
O 	O 	0.77781 0.81593 0.83784 -0.39000
O 	O 	0.36581 0.10987 0.12290 -0.39000
C 	C 	0.48563 0.09957 0.12358 -0.05300
C 	C 	0.42693 0.12087 0.14072 0.35700
C 	C 	0.47053 0.06877 0.08962 -0.02100
H 	H 	0.42193 0.05807 0.07837 0.07900
C 	C 	0.53073 0.96507 0.02327 -0.08200
C 	C 	0.48333 0.05967 0.01127 0.04000
O 	O 	0.60213 0.88837 0.03927 -0.22200
O 	O 	0.52513 0.89047 0.07337 -0.29000
C 	C 	0.54643 0.90207 0.04857 0.44100
O 	O 	0.44447 0.14927 0.17118 -0.39000
O 	O 	0.41072 0.96752 0.45623 -0.39000
C 	C 	0.28060 0.84770 0.45691 -0.05300
C 	C 	0.36060 0.90640 0.47405 0.35700
C 	C 	0.26490 0.86280 0.42295 -0.02100
H 	H 	0.30280 0.91140 0.41170 0.07900
C 	C 	0.10100 0.80260 0.35660 -0.08200
C 	C 	0.24300 0.85000 0.34460 0.04000
O 	O 	0.95290 0.73120 0.37260 -0.22200
O 	O 	0.03200 0.80820 0.40670 -0.29000
C 	C 	0.02230 0.78690 0.38190 0.44200
O 	O 	0.37146 0.88886 0.50451 -0.39000
O 	O 	0.07739 0.30085 0.78956 -0.39000
C 	C 	0.94727 0.18103 0.79024 -0.05300
C 	C 	0.02727 0.23973 0.80738 0.35700
C 	C 	0.93157 0.19613 0.75628 -0.02100
H 	H 	0.96947 0.24473 0.74503 0.07900
C 	C 	0.76767 0.13593 0.68993 -0.08200
C 	C 	0.90967 0.18333 0.67793 0.04000
O 	O 	0.61957 0.06453 0.70593 -0.22200
O 	O 	0.69867 0.14153 0.74003 -0.29000
C 	C 	0.68897 0.12023 0.71523 0.44200
O 	O 	0.03813 0.22219 0.83784 -0.39000
O 	O 	0.74405 0.63419 0.12290 -0.39000
C 	C 	0.61393 0.51437 0.12358 -0.05300
C 	C 	0.69393 0.57307 0.14072 0.35700
C 	C 	0.59823 0.52947 0.08962 -0.02100
H 	H 	0.63613 0.57807 0.07837 0.07900
C 	C 	0.43433 0.46927 0.02327 -0.08200
C 	C 	0.57633 0.51667 0.01127 0.04000
O 	O 	0.28623 0.39787 0.03927 -0.22200
O 	O 	0.36533 0.47487 0.07337 -0.29000
C 	C 	0.35563 0.45357 0.04857 0.44200
O 	O 	0.70479 0.55553 0.17118 -0.39000
O 	O 	0.41072 0.44320 0.45623 -0.39000
C 	C 	0.28060 0.43290 0.45691 -0.05300
C 	C 	0.36060 0.45420 0.47405 0.35700
C 	C 	0.26490 0.40210 0.42295 -0.02100
H 	H 	0.30280 0.39140 0.41170 0.07900
C 	C 	0.10100 0.29840 0.35660 -0.08200
C 	C 	0.24300 0.39300 0.34460 0.04000
O 	O 	0.95290 0.22170 0.37260 -0.22200
O 	O 	0.03200 0.22380 0.40670 -0.29000
C 	C 	0.02230 0.23540 0.38190 0.44200
O 	O 	0.37146 0.48260 0.50451 -0.39000
O 	O 	0.07739 0.77653 0.78956 -0.39000
C 	C 	0.94727 0.76623 0.79024 -0.05300
C 	C 	0.02727 0.78753 0.80738 0.35700
C 	C 	0.93157 0.73543 0.75628 -0.02100
H 	H 	0.96947 0.72473 0.74503 0.07900
C 	C 	0.76767 0.63173 0.68993 -0.08200
C 	C 	0.90967 0.72633 0.67793 0.04000
O 	O 	0.61957 0.55503 0.70593 -0.22200
O 	O 	0.69867 0.55713 0.74003 -0.29000
C 	C 	0.68897 0.56873 0.71523 0.44200
O 	O 	0.03813 0.81593 0.83784 -0.39000
O 	O 	0.74405 0.10987 0.12290 -0.39000
C 	C 	0.61393 0.09957 0.12358 -0.05300
C 	C 	0.69393 0.12087 0.14072 0.35700
C 	C 	0.59823 0.06877 0.08962 -0.02100
H 	H 	0.63613 0.05807 0.07837 0.07900
C 	C 	0.43433 0.96507 0.02327 -0.08100
C 	C 	0.57633 0.05967 0.01127 0.04000
O 	O 	0.28623 0.88837 0.03927 -0.22200
O 	O 	0.36533 0.89047 0.07337 -0.29000
C 	C 	0.35563 0.90207 0.04857 0.44100
O 	O 	0.70479 0.14927 0.17118 -0.39000
O 	O 	0.55680 0.96752 0.45623 -0.39000
C 	C 	0.56710 0.84770 0.45691 -0.05300
C 	C 	0.54580 0.90640 0.47405 0.35700
C 	C 	0.59790 0.86280 0.42295 -0.02100
H 	H 	0.60860 0.91140 0.41170 0.07900
C 	C 	0.70160 0.80260 0.35660 -0.08200
C 	C 	0.60700 0.85000 0.34460 0.04000
O 	O 	0.77830 0.73120 0.37260 -0.22200
O 	O 	0.77620 0.80820 0.40670 -0.29000
C 	C 	0.76460 0.78690 0.38190 0.44200
O 	O 	0.51740 0.88886 0.50451 -0.39000
O 	O 	0.22347 0.30085 0.78956 -0.39000
C 	C 	0.23377 0.18103 0.79024 -0.05300
C 	C 	0.21247 0.23973 0.80738 0.35700
C 	C 	0.26457 0.19613 0.75628 -0.02100
H 	H 	0.27527 0.24473 0.74503 0.07900
C 	C 	0.36827 0.13593 0.68993 -0.08200
C 	C 	0.27367 0.18333 0.67793 0.04000
O 	O 	0.44497 0.06453 0.70593 -0.22200
O 	O 	0.44287 0.14153 0.74003 -0.29000
C 	C 	0.43127 0.12023 0.71523 0.44200
O 	O 	0.18407 0.22219 0.83784 -0.39000
O 	O 	0.89013 0.63419 0.12290 -0.39000
C 	C 	0.90043 0.51437 0.12358 -0.05300
C 	C 	0.87913 0.57307 0.14072 0.35700
C 	C 	0.93123 0.52947 0.08962 -0.02100
H 	H 	0.94193 0.57807 0.07837 0.07900
C 	C 	0.03493 0.46927 0.02327 -0.08200
C 	C 	0.94033 0.51667 0.01127 0.04000
O 	O 	0.11163 0.39787 0.03927 -0.22200
O 	O 	0.10953 0.47487 0.07337 -0.29000
C 	C 	0.09793 0.45357 0.04857 0.44100
O 	O 	0.85073 0.55553 0.17118 -0.39000
O 	O 	0.03248 0.58928 0.45623 -0.39000
C 	C 	0.15230 0.71940 0.45691 -0.05300
C 	C 	0.09360 0.63940 0.47405 0.35700
C 	C 	0.13720 0.73510 0.42295 -0.02100
H 	H 	0.08860 0.69720 0.41170 0.07900
C 	C 	0.19740 0.89900 0.35660 -0.08200
C 	C 	0.15000 0.75700 0.34460 0.04000
O 	O 	0.26880 0.04710 0.37260 -0.22200
O 	O 	0.19180 0.96800 0.40670 -0.29000
C 	C 	0.21310 0.97770 0.38190 0.44200
O 	O 	0.11114 0.62854 0.50451 -0.39000
O 	O 	0.69915 0.92261 0.78956 -0.39000
C 	C 	0.81897 0.05273 0.79024 -0.05300
C 	C 	0.76027 0.97273 0.80738 0.35700
C 	C 	0.80387 0.06843 0.75628 -0.02100
H 	H 	0.75527 0.03053 0.74503 0.07900
C 	C 	0.86407 0.23233 0.68993 -0.08200
C 	C 	0.81667 0.09033 0.67793 0.04000
O 	O 	0.93547 0.38043 0.70593 -0.22200
O 	O 	0.85847 0.30133 0.74003 -0.29000
C 	C 	0.87977 0.31103 0.71523 0.44200
O 	O 	0.77781 0.96187 0.83784 -0.39000
O 	O 	0.36581 0.25595 0.12290 -0.39000
C 	C 	0.48563 0.38607 0.12358 -0.05300
C 	C 	0.42693 0.30607 0.14072 0.35700
C 	C 	0.47053 0.40177 0.08962 -0.02100
H 	H 	0.42193 0.36387 0.07837 0.07900
C 	C 	0.53073 0.56567 0.02327 -0.08200
C 	C 	0.48333 0.42367 0.01127 0.04000
O 	O 	0.60213 0.71377 0.03927 -0.22200
O 	O 	0.52513 0.63467 0.07337 -0.29000
C 	C 	0.54643 0.64437 0.04857 0.44200
O 	O 	0.44447 0.29521 0.17118 -0.39000
O 	O 	0.44320 0.41072 0.54377 -0.39000
C 	C 	0.43290 0.28060 0.54309 -0.05300
C 	C 	0.45420 0.36060 0.52595 0.35700
C 	C 	0.40210 0.26490 0.57705 -0.02100
H 	H 	0.39140 0.30280 0.58830 0.07900
C 	C 	0.29840 0.10100 0.64340 -0.08200
C 	C 	0.39300 0.24300 0.65540 0.04000
O 	O 	0.22170 0.95290 0.62740 -0.22200
O 	O 	0.22380 0.03200 0.59330 -0.29000
C 	C 	0.23540 0.02230 0.61810 0.44200
O 	O 	0.48260 0.37146 0.49549 -0.39000
O 	O 	0.10987 0.74405 0.87710 -0.39000
C 	C 	0.09957 0.61393 0.87642 -0.05300
C 	C 	0.12087 0.69393 0.85928 0.35700
C 	C 	0.06877 0.59823 0.91038 -0.02100
H 	H 	0.05807 0.63613 0.92163 0.07900
C 	C 	0.96507 0.43433 0.97673 -0.08100
C 	C 	0.05967 0.57633 0.98873 0.04000
O 	O 	0.88837 0.28623 0.96073 -0.22200
O 	O 	0.89047 0.36533 0.92663 -0.29000
C 	C 	0.90207 0.35563 0.95143 0.44100
O 	O 	0.14927 0.70479 0.82882 -0.39000
O 	O 	0.77653 0.07739 0.21044 -0.39000
C 	C 	0.76623 0.94727 0.20976 -0.05300
C 	C 	0.78753 0.02727 0.19262 0.35700
C 	C 	0.73543 0.93157 0.24372 -0.02100
H 	H 	0.72473 0.96947 0.25497 0.07900
C 	C 	0.63173 0.76767 0.31007 -0.08200
C 	C 	0.72633 0.90967 0.32207 0.04000
O 	O 	0.55503 0.61957 0.29407 -0.22200
O 	O 	0.55713 0.69867 0.25997 -0.29000
C 	C 	0.56873 0.68897 0.28477 0.44200
O 	O 	0.81593 0.03813 0.16216 -0.39000
O 	O 	0.96752 0.55680 0.54377 -0.39000
C 	C 	0.84770 0.56710 0.54309 -0.05300
C 	C 	0.90640 0.54580 0.52595 0.35700
C 	C 	0.86280 0.59790 0.57705 -0.02100
H 	H 	0.91140 0.60860 0.58830 0.07900
C 	C 	0.80260 0.70160 0.64340 -0.08200
C 	C 	0.85000 0.60700 0.65540 0.04000
O 	O 	0.73120 0.77830 0.62740 -0.22200
O 	O 	0.80820 0.77620 0.59330 -0.29000
C 	C 	0.78690 0.76460 0.61810 0.44200
O 	O 	0.88886 0.51740 0.49549 -0.39000
O 	O 	0.63419 0.89013 0.87710 -0.39000
C 	C 	0.51437 0.90043 0.87642 -0.05300
C 	C 	0.57307 0.87913 0.85928 0.35700
C 	C 	0.52947 0.93123 0.91038 -0.02100
H 	H 	0.57807 0.94193 0.92163 0.07900
C 	C 	0.46927 0.03493 0.97673 -0.08200
C 	C 	0.51667 0.94033 0.98873 0.04000
O 	O 	0.39787 0.11163 0.96073 -0.22200
O 	O 	0.47487 0.10953 0.92663 -0.29000
C 	C 	0.45357 0.09793 0.95143 0.44100
O 	O 	0.55553 0.85073 0.82882 -0.39000
O 	O 	0.30085 0.22347 0.21044 -0.39000
C 	C 	0.18103 0.23377 0.20976 -0.05300
C 	C 	0.23973 0.21247 0.19262 0.35700
C 	C 	0.19613 0.26457 0.24372 -0.02100
H 	H 	0.24473 0.27527 0.25497 0.07900
C 	C 	0.13593 0.36827 0.31007 -0.08200
C 	C 	0.18333 0.27367 0.32207 0.04000
O 	O 	0.06453 0.44497 0.29407 -0.22200
O 	O 	0.14153 0.44287 0.25997 -0.29000
C 	C 	0.12023 0.43127 0.28477 0.44200
O 	O 	0.22219 0.18407 0.16216 -0.39000
O 	O 	0.58928 0.03248 0.54377 -0.39000
C 	C 	0.71940 0.15230 0.54309 -0.05300
C 	C 	0.63940 0.09360 0.52595 0.35700
C 	C 	0.73510 0.13720 0.57705 -0.02100
H 	H 	0.69720 0.08860 0.58830 0.07900
C 	C 	0.89900 0.19740 0.64340 -0.08200
C 	C 	0.75700 0.15000 0.65540 0.04000
O 	O 	0.04710 0.26880 0.62740 -0.22200
O 	O 	0.96800 0.19180 0.59330 -0.29000
C 	C 	0.97770 0.21310 0.61810 0.44200
O 	O 	0.62854 0.11114 0.49549 -0.39000
O 	O 	0.25595 0.36581 0.87710 -0.39000
C 	C 	0.38607 0.48563 0.87642 -0.05300
C 	C 	0.30607 0.42693 0.85928 0.35700
C 	C 	0.40177 0.47053 0.91038 -0.02100
H 	H 	0.36387 0.42193 0.92163 0.07900
C 	C 	0.56567 0.53073 0.97673 -0.08200
C 	C 	0.42367 0.48333 0.98873 0.04000
O 	O 	0.71377 0.60213 0.96073 -0.22200
O 	O 	0.63467 0.52513 0.92663 -0.29000
C 	C 	0.64437 0.54643 0.95143 0.44200
O 	O 	0.29521 0.44447 0.82882 -0.39000
O 	O 	0.92261 0.69915 0.21044 -0.39000
C 	C 	0.05273 0.81897 0.20976 -0.05300
C 	C 	0.97273 0.76027 0.19262 0.35700
C 	C 	0.06843 0.80387 0.24372 -0.02100
H 	H 	0.03053 0.75527 0.25497 0.07900
C 	C 	0.23233 0.86407 0.31007 -0.08200
C 	C 	0.09033 0.81667 0.32207 0.04000
O 	O 	0.38043 0.93547 0.29407 -0.22200
O 	O 	0.30133 0.85847 0.25997 -0.29000
C 	C 	0.31103 0.87977 0.28477 0.44200
O 	O 	0.96187 0.77781 0.16216 -0.39000
Cu	Cu	0.47690 0.52310 0.52873 0.91300
Cu	Cu	0.14357 0.85643 0.86207 0.91300
Cu	Cu	0.81023 0.18977 0.19540 0.91300
Cu	Cu	0.47690 0.95380 0.52873 0.91300
Cu	Cu	0.14357 0.28713 0.86207 0.91300
Cu	Cu	0.81023 0.62046 0.19540 0.91300
Cu	Cu	0.04620 0.52310 0.52873 0.91300
Cu	Cu	0.71287 0.85643 0.86207 0.91300
Cu	Cu	0.37954 0.18977 0.19540 0.91300
Cu	Cu	0.52310 0.47690 0.47127 0.91300
Cu	Cu	0.18977 0.81023 0.80460 0.91300
Cu	Cu	0.85643 0.14357 0.13793 0.91300
Cu	Cu	0.95380 0.47690 0.47127 0.91300
Cu	Cu	0.62046 0.81023 0.80460 0.91300
Cu	Cu	0.28713 0.14357 0.13793 0.91300
Cu	Cu	0.52310 0.04620 0.47127 0.91300
Cu	Cu	0.18977 0.37954 0.80460 0.91300
Cu	Cu	0.85643 0.71287 0.13793 0.91300
C 	C 	0.82140 0.64280 0.63146 0.02800
C 	C 	0.77535 0.55070 0.52638 0.01800
H 	H 	0.76430 0.52860 0.50390 0.07000
C 	C 	0.80650 0.61300 0.59452 0.03100
C 	C 	0.48807 0.97613 0.96479 0.02800
C 	C 	0.44202 0.88403 0.85971 0.01800
H 	H 	0.43097 0.86193 0.83723 0.07000
C 	C 	0.47317 0.94633 0.92785 0.03100
C 	C 	0.15473 0.30947 0.29813 0.02800
C 	C 	0.10868 0.21737 0.19305 0.01700
H 	H 	0.09763 0.19527 0.17057 0.07000
C 	C 	0.13983 0.27967 0.26119 0.03100
C 	C 	0.35720 0.17860 0.63146 0.02800
C 	C 	0.44930 0.22465 0.52638 0.01800
H 	H 	0.47140 0.23570 0.50390 0.07000
C 	C 	0.38700 0.19350 0.59452 0.03100
C 	C 	0.02387 0.51193 0.96479 0.02800
C 	C 	0.11597 0.55798 0.85971 0.01800
H 	H 	0.13807 0.56903 0.83723 0.07000
C 	C 	0.05367 0.52683 0.92785 0.03100
C 	C 	0.69053 0.84527 0.29813 0.02800
C 	C 	0.78263 0.89132 0.19305 0.01700
H 	H 	0.80473 0.90237 0.17057 0.07000
C 	C 	0.72033 0.86017 0.26119 0.03100
C 	C 	0.82140 0.17860 0.63146 0.02800
C 	C 	0.77535 0.22465 0.52638 0.01800
H 	H 	0.76430 0.23570 0.50390 0.07000
C 	C 	0.80650 0.19350 0.59452 0.03100
C 	C 	0.48807 0.51193 0.96479 0.02800
C 	C 	0.44202 0.55798 0.85971 0.01800
H 	H 	0.43097 0.56903 0.83723 0.07000
C 	C 	0.47317 0.52683 0.92785 0.03100
C 	C 	0.15473 0.84527 0.29813 0.02800
C 	C 	0.10868 0.89132 0.19305 0.01700
H 	H 	0.09763 0.90237 0.17057 0.07000
C 	C 	0.13983 0.86017 0.26119 0.03100
C 	C 	0.64280 0.82140 0.36854 0.02800
C 	C 	0.55070 0.77535 0.47362 0.01800
H 	H 	0.52860 0.76430 0.49610 0.07000
C 	C 	0.61300 0.80650 0.40548 0.03100
C 	C 	0.30947 0.15473 0.70187 0.02800
C 	C 	0.21737 0.10868 0.80695 0.01700
H 	H 	0.19527 0.09763 0.82943 0.07000
C 	C 	0.27967 0.13983 0.73881 0.03100
C 	C 	0.97613 0.48807 0.03521 0.02800
C 	C 	0.88403 0.44202 0.14029 0.01800
H 	H 	0.86193 0.43097 0.16277 0.07000
C 	C 	0.94633 0.47317 0.07215 0.03100
C 	C 	0.17860 0.35720 0.36854 0.02800
C 	C 	0.22465 0.44930 0.47362 0.01800
H 	H 	0.23570 0.47140 0.49610 0.07000
C 	C 	0.19350 0.38700 0.40548 0.03100
C 	C 	0.84527 0.69053 0.70187 0.02800
C 	C 	0.89132 0.78263 0.80695 0.01700
H 	H 	0.90237 0.80473 0.82943 0.07000
C 	C 	0.86017 0.72033 0.73881 0.03100
C 	C 	0.51193 0.02387 0.03521 0.02800
C 	C 	0.55798 0.11597 0.14029 0.01800
H 	H 	0.56903 0.13807 0.16277 0.07000
C 	C 	0.52683 0.05367 0.07215 0.03100
C 	C 	0.17860 0.82140 0.36854 0.02800
C 	C 	0.22465 0.77535 0.47362 0.01800
H 	H 	0.23570 0.76430 0.49610 0.07000
C 	C 	0.19350 0.80650 0.40548 0.03100
C 	C 	0.84527 0.15473 0.70187 0.02800
C 	C 	0.89132 0.10868 0.80695 0.01700
H 	H 	0.90237 0.09763 0.82943 0.07000
C 	C 	0.86017 0.13983 0.73881 0.03100
C 	C 	0.51193 0.48807 0.03521 0.02800
C 	C 	0.55798 0.44202 0.14029 0.01800
H 	H 	0.56903 0.43097 0.16277 0.07000
C 	C 	0.52683 0.47317 0.07215 0.03100
