data_crystal

_cell_length_a 22.81310
_cell_length_b 22.81310
_cell_length_c 7.78790
_cell_angle_alpha 90.00000
_cell_angle_beta  90.00000
_cell_angle_gamma 90.00000

_symmetry_space_group_name_	'P 1'
_symmetry_space_group_name_H-M	'P 1'

loop_
_symmetry_equiv_pos_as_xyz
  x,y,z

loop_
_atom_site_label
_atom_site_type_symbol
_atom_site_fract_x
_atom_site_fract_y
_atom_site_fract_z
_atom_site_charge
Ag	Ag	0.51168 0.62687 0.23171 0.51900
N 	N 	0.63006 0.89596 0.36200 -0.19500
N 	N 	0.66760 0.63088 0.57310 -0.09700
N 	N 	0.68126 0.68734 0.52390 -0.09400
N 	N 	0.58650 0.68269 0.57630 -0.16300
N 	N 	0.52690 0.46709 0.72110 -0.18700
N 	N 	0.48732 0.67449 0.50410 -0.20300
C 	C 	0.58070 0.80440 0.39600 -0.13200
H 	H 	0.54700 0.78230 0.37860 0.06900
C 	C 	0.58260 0.86210 0.34520 0.08000
H 	H 	0.54910 0.87840 0.29660 -0.01200
C 	C 	0.67740 0.87120 0.43230 0.08500
H 	H 	0.71130 0.89350 0.44220 -0.00400
C 	C 	0.67860 0.81440 0.49070 -0.12900
H 	H 	0.71230 0.79950 0.54180 0.09700
C 	C 	0.62918 0.77940 0.47290 0.05900
C 	C 	0.63280 0.71760 0.52710 0.08700
C 	C 	0.61110 0.62850 0.60250 0.08000
C 	C 	0.58050 0.57430 0.65040 0.04600
C 	C 	0.60320 0.52240 0.58810 -0.13500
H 	H 	0.63690 0.52260 0.52090 0.07400
C 	C 	0.57560 0.47050 0.62600 0.07000
H 	H 	0.59170 0.43600 0.58350 -0.01100
C 	C 	0.50580 0.51770 0.78280 0.06400
H 	H 	0.47240 0.51650 0.85090 -0.00900
C 	C 	0.53100 0.57180 0.75080 -0.13100
H 	H 	0.51480 0.60580 0.79630 0.06200
C 	C 	0.52683 0.70067 0.60270 0.16500
C 	C 	0.43140 0.69100 0.52690 0.09000
H 	H 	0.40250 0.67290 0.46130 -0.02300
C 	C 	0.41500 0.73290 0.64140 -0.18900
H 	H 	0.37570 0.74290 0.65320 0.08100
C 	C 	0.45670 0.76020 0.73940 0.10500
H 	H 	0.44620 0.78970 0.81600 -0.02000
C 	C 	0.51450 0.74330 0.72240 -0.22000
H 	H 	0.54390 0.76000 0.78920 0.11200
Ag	Ag	0.98832 0.87313 0.23171 0.52000
N 	N 	0.86994 0.60404 0.36200 -0.19400
N 	N 	0.83240 0.86912 0.57310 -0.09600
N 	N 	0.81874 0.81266 0.52390 -0.09300
N 	N 	0.91350 0.81731 0.57630 -0.16200
N 	N 	0.97310 0.03291 0.72110 -0.18500
N 	N 	0.01268 0.82551 0.50410 -0.20200
C 	C 	0.91930 0.69560 0.39600 -0.13100
H 	H 	0.95300 0.71770 0.37860 0.06900
C 	C 	0.91740 0.63790 0.34520 0.08000
H 	H 	0.95090 0.62160 0.29660 -0.01200
C 	C 	0.82260 0.62880 0.43230 0.08500
H 	H 	0.78870 0.60650 0.44220 -0.00400
C 	C 	0.82140 0.68560 0.49070 -0.12900
H 	H 	0.78770 0.70050 0.54180 0.09700
C 	C 	0.87082 0.72060 0.47290 0.05900
C 	C 	0.86720 0.78240 0.52710 0.08700
C 	C 	0.88890 0.87150 0.60250 0.08000
C 	C 	0.91950 0.92570 0.65040 0.04600
C 	C 	0.89680 0.97760 0.58810 -0.13600
H 	H 	0.86310 0.97740 0.52090 0.07400
C 	C 	0.92440 0.02950 0.62600 0.07100
H 	H 	0.90830 0.06400 0.58350 -0.01100
C 	C 	0.99420 0.98230 0.78280 0.06100
H 	H 	0.02760 0.98350 0.85090 -0.00700
C 	C 	0.96900 0.92820 0.75080 -0.13000
H 	H 	0.98520 0.89420 0.79630 0.06100
C 	C 	0.97317 0.79933 0.60270 0.16500
C 	C 	0.06860 0.80900 0.52690 0.09100
H 	H 	0.09750 0.82710 0.46130 -0.02300
C 	C 	0.08500 0.76710 0.64140 -0.18900
H 	H 	0.12430 0.75710 0.65320 0.08100
C 	C 	0.04330 0.73980 0.73940 0.10500
H 	H 	0.05380 0.71030 0.81600 -0.02000
C 	C 	0.98550 0.75670 0.72240 -0.22000
H 	H 	0.95610 0.74000 0.78920 0.11200
Ag	Ag	0.37313 0.01168 0.73171 0.52000
N 	N 	0.10404 0.13006 0.86200 -0.19400
N 	N 	0.36912 0.16760 0.07310 -0.09600
N 	N 	0.31266 0.18126 0.02390 -0.09300
N 	N 	0.31731 0.08650 0.07630 -0.16200
N 	N 	0.53291 0.02690 0.22110 -0.18600
N 	N 	0.32551 0.98732 0.00410 -0.20200
C 	C 	0.19560 0.08070 0.89600 -0.13100
H 	H 	0.21770 0.04700 0.87860 0.06900
C 	C 	0.13790 0.08260 0.84520 0.08000
H 	H 	0.12160 0.04910 0.79660 -0.01200
C 	C 	0.12880 0.17740 0.93230 0.08600
H 	H 	0.10650 0.21130 0.94220 -0.00500
C 	C 	0.18560 0.17860 0.99070 -0.13200
H 	H 	0.20050 0.21230 0.04180 0.09800
C 	C 	0.22060 0.12918 0.97290 0.05900
C 	C 	0.28240 0.13280 0.02710 0.08800
C 	C 	0.37150 0.11110 0.10250 0.08000
C 	C 	0.42570 0.08050 0.15040 0.04600
C 	C 	0.47760 0.10320 0.08810 -0.13500
H 	H 	0.47740 0.13690 0.02090 0.07400
C 	C 	0.52950 0.07560 0.12600 0.07000
H 	H 	0.56400 0.09170 0.08350 -0.01100
C 	C 	0.48230 0.00580 0.28280 0.06400
H 	H 	0.48350 0.97240 0.35090 -0.00900
C 	C 	0.42820 0.03100 0.25080 -0.13100
H 	H 	0.39420 0.01480 0.29630 0.06200
C 	C 	0.29933 0.02683 0.10270 0.16600
C 	C 	0.30900 0.93140 0.02690 0.09200
H 	H 	0.32710 0.90250 0.96130 -0.02400
C 	C 	0.26710 0.91500 0.14140 -0.19000
H 	H 	0.25710 0.87570 0.15320 0.08200
C 	C 	0.23980 0.95670 0.23940 0.10700
H 	H 	0.21030 0.94620 0.31600 -0.02000
C 	C 	0.25670 0.01450 0.22240 -0.22100
H 	H 	0.24000 0.04390 0.28920 0.11300
Ag	Ag	0.12687 0.48832 0.73171 0.52000
N 	N 	0.39596 0.36994 0.86200 -0.19400
N 	N 	0.13088 0.33240 0.07310 -0.09600
N 	N 	0.18734 0.31874 0.02390 -0.09300
N 	N 	0.18269 0.41350 0.07630 -0.16200
N 	N 	0.96709 0.47310 0.22110 -0.18600
N 	N 	0.17449 0.51268 0.00410 -0.20200
C 	C 	0.30440 0.41930 0.89600 -0.13100
H 	H 	0.28230 0.45300 0.87860 0.06900
C 	C 	0.36210 0.41740 0.84520 0.08000
H 	H 	0.37840 0.45090 0.79660 -0.01200
C 	C 	0.37120 0.32260 0.93230 0.08600
H 	H 	0.39350 0.28870 0.94220 -0.00500
C 	C 	0.31440 0.32140 0.99070 -0.13100
H 	H 	0.29950 0.28770 0.04180 0.09800
C 	C 	0.27940 0.37082 0.97290 0.05900
C 	C 	0.21760 0.36720 0.02710 0.08800
C 	C 	0.12850 0.38890 0.10250 0.08100
C 	C 	0.07430 0.41950 0.15040 0.04600
C 	C 	0.02240 0.39680 0.08810 -0.13400
H 	H 	0.02260 0.36310 0.02090 0.07400
C 	C 	0.97050 0.42440 0.12600 0.06900
H 	H 	0.93600 0.40830 0.08350 -0.01100
C 	C 	0.01770 0.49420 0.28280 0.06400
H 	H 	0.01650 0.52760 0.35090 -0.00900
C 	C 	0.07180 0.46900 0.25080 -0.13100
H 	H 	0.10580 0.48520 0.29630 0.06200
C 	C 	0.20067 0.47317 0.10270 0.16600
C 	C 	0.19100 0.56860 0.02690 0.09200
H 	H 	0.17290 0.59750 0.96130 -0.02400
C 	C 	0.23290 0.58500 0.14140 -0.19000
H 	H 	0.24290 0.62430 0.15320 0.08200
C 	C 	0.26020 0.54330 0.23940 0.10600
H 	H 	0.28970 0.55380 0.31600 -0.02000
C 	C 	0.24330 0.48550 0.22240 -0.22000
H 	H 	0.26000 0.45610 0.28920 0.11200
Ag	Ag	0.48832 0.37313 0.76829 0.52000
N 	N 	0.36994 0.10404 0.63800 -0.19400
N 	N 	0.33240 0.36912 0.42690 -0.09600
N 	N 	0.31874 0.31266 0.47610 -0.09300
N 	N 	0.41350 0.31731 0.42370 -0.16200
N 	N 	0.47310 0.53291 0.27890 -0.18600
N 	N 	0.51268 0.32551 0.49590 -0.20200
C 	C 	0.41930 0.19560 0.60400 -0.13100
H 	H 	0.45300 0.21770 0.62140 0.06900
C 	C 	0.41740 0.13790 0.65480 0.08000
H 	H 	0.45090 0.12160 0.70340 -0.01200
C 	C 	0.32260 0.12880 0.56770 0.08500
H 	H 	0.28870 0.10650 0.55780 -0.00400
C 	C 	0.32140 0.18560 0.50930 -0.12900
H 	H 	0.28770 0.20050 0.45820 0.09700
C 	C 	0.37082 0.22060 0.52710 0.05900
C 	C 	0.36720 0.28240 0.47290 0.08700
C 	C 	0.38890 0.37150 0.39750 0.08000
C 	C 	0.41950 0.42570 0.34960 0.04600
C 	C 	0.39680 0.47760 0.41190 -0.13500
H 	H 	0.36310 0.47740 0.47910 0.07400
C 	C 	0.42440 0.52950 0.37400 0.07000
H 	H 	0.40830 0.56400 0.41650 -0.01100
C 	C 	0.49420 0.48230 0.21720 0.06400
H 	H 	0.52760 0.48350 0.14910 -0.00900
C 	C 	0.46900 0.42820 0.24920 -0.13100
H 	H 	0.48520 0.39420 0.20370 0.06200
C 	C 	0.47317 0.29933 0.39730 0.16500
C 	C 	0.56860 0.30900 0.47310 0.09000
H 	H 	0.59750 0.32710 0.53870 -0.02300
C 	C 	0.58500 0.26710 0.35860 -0.18900
H 	H 	0.62430 0.25710 0.34680 0.08100
C 	C 	0.54330 0.23980 0.26060 0.10500
H 	H 	0.55380 0.21030 0.18400 -0.02000
C 	C 	0.48550 0.25670 0.27760 -0.22000
H 	H 	0.45610 0.24000 0.21080 0.11200
Ag	Ag	0.01168 0.12687 0.76829 0.52000
N 	N 	0.13006 0.39596 0.63800 -0.19400
N 	N 	0.16760 0.13088 0.42690 -0.09600
N 	N 	0.18126 0.18734 0.47610 -0.09300
N 	N 	0.08650 0.18269 0.42370 -0.16200
N 	N 	0.02690 0.96709 0.27890 -0.18500
N 	N 	0.98732 0.17449 0.49590 -0.20200
C 	C 	0.08070 0.30440 0.60400 -0.13100
H 	H 	0.04700 0.28230 0.62140 0.06900
C 	C 	0.08260 0.36210 0.65480 0.08000
H 	H 	0.04910 0.37840 0.70340 -0.01200
C 	C 	0.17740 0.37120 0.56770 0.08500
H 	H 	0.21130 0.39350 0.55780 -0.00400
C 	C 	0.17860 0.31440 0.50930 -0.12900
H 	H 	0.21230 0.29950 0.45820 0.09700
C 	C 	0.12918 0.27940 0.52710 0.05900
C 	C 	0.13280 0.21760 0.47290 0.08700
C 	C 	0.11110 0.12850 0.39750 0.08000
C 	C 	0.08050 0.07430 0.34960 0.04600
C 	C 	0.10320 0.02240 0.41190 -0.13600
H 	H 	0.13690 0.02260 0.47910 0.07400
C 	C 	0.07560 0.97050 0.37400 0.07100
H 	H 	0.09170 0.93600 0.41650 -0.01100
C 	C 	0.00580 0.01770 0.21720 0.06100
H 	H 	0.97240 0.01650 0.14910 -0.00700
C 	C 	0.03100 0.07180 0.24920 -0.13000
H 	H 	0.01480 0.10580 0.20370 0.06100
C 	C 	0.02683 0.20067 0.39730 0.16500
C 	C 	0.93140 0.19100 0.47310 0.09100
H 	H 	0.90250 0.17290 0.53870 -0.02300
C 	C 	0.91500 0.23290 0.35860 -0.18900
H 	H 	0.87570 0.24290 0.34680 0.08100
C 	C 	0.95670 0.26020 0.26060 0.10500
H 	H 	0.94620 0.28970 0.18400 -0.02000
C 	C 	0.01450 0.24330 0.27760 -0.22000
H 	H 	0.04390 0.26000 0.21080 0.11200
Ag	Ag	0.62687 0.98832 0.26829 0.52000
N 	N 	0.89596 0.86994 0.13800 -0.19400
N 	N 	0.63088 0.83240 0.92690 -0.09600
N 	N 	0.68734 0.81874 0.97610 -0.09300
N 	N 	0.68269 0.91350 0.92370 -0.16200
N 	N 	0.46709 0.97310 0.77890 -0.18600
N 	N 	0.67449 0.01268 0.99590 -0.20200
C 	C 	0.80440 0.91930 0.10400 -0.13100
H 	H 	0.78230 0.95300 0.12140 0.06900
C 	C 	0.86210 0.91740 0.15480 0.08000
H 	H 	0.87840 0.95090 0.20340 -0.01200
C 	C 	0.87120 0.82260 0.06770 0.08600
H 	H 	0.89350 0.78870 0.05780 -0.00500
C 	C 	0.81440 0.82140 0.00930 -0.13200
H 	H 	0.79950 0.78770 0.95820 0.09800
C 	C 	0.77940 0.87082 0.02710 0.05900
C 	C 	0.71760 0.86720 0.97290 0.08800
C 	C 	0.62850 0.88890 0.89750 0.08000
C 	C 	0.57430 0.91950 0.84960 0.04600
C 	C 	0.52240 0.89680 0.91190 -0.13500
H 	H 	0.52260 0.86310 0.97910 0.07400
C 	C 	0.47050 0.92440 0.87400 0.07000
H 	H 	0.43600 0.90830 0.91650 -0.01100
C 	C 	0.51770 0.99420 0.71720 0.06400
H 	H 	0.51650 0.02760 0.64910 -0.00900
C 	C 	0.57180 0.96900 0.74920 -0.13100
H 	H 	0.60580 0.98520 0.70370 0.06200
C 	C 	0.70067 0.97317 0.89730 0.16600
C 	C 	0.69100 0.06860 0.97310 0.09200
H 	H 	0.67290 0.09750 0.03870 -0.02400
C 	C 	0.73290 0.08500 0.85860 -0.19000
H 	H 	0.74290 0.12430 0.84680 0.08200
C 	C 	0.76020 0.04330 0.76060 0.10700
H 	H 	0.78970 0.05380 0.68400 -0.02000
C 	C 	0.74330 0.98550 0.77760 -0.22100
H 	H 	0.76000 0.95610 0.71080 0.11300
Ag	Ag	0.87313 0.51168 0.26829 0.52000
N 	N 	0.60404 0.63006 0.13800 -0.19400
N 	N 	0.86912 0.66760 0.92690 -0.09600
N 	N 	0.81266 0.68126 0.97610 -0.09300
N 	N 	0.81731 0.58650 0.92370 -0.16200
N 	N 	0.03291 0.52690 0.77890 -0.18600
N 	N 	0.82551 0.48732 0.99590 -0.20200
C 	C 	0.69560 0.58070 0.10400 -0.13100
H 	H 	0.71770 0.54700 0.12140 0.06900
C 	C 	0.63790 0.58260 0.15480 0.08000
H 	H 	0.62160 0.54910 0.20340 -0.01200
C 	C 	0.62880 0.67740 0.06770 0.08600
H 	H 	0.60650 0.71130 0.05780 -0.00500
C 	C 	0.68560 0.67860 0.00930 -0.13100
H 	H 	0.70050 0.71230 0.95820 0.09800
C 	C 	0.72060 0.62918 0.02710 0.05900
C 	C 	0.78240 0.63280 0.97290 0.08800
C 	C 	0.87150 0.61110 0.89750 0.08100
C 	C 	0.92570 0.58050 0.84960 0.04600
C 	C 	0.97760 0.60320 0.91190 -0.13400
H 	H 	0.97740 0.63690 0.97910 0.07400
C 	C 	0.02950 0.57560 0.87400 0.06900
H 	H 	0.06400 0.59170 0.91650 -0.01100
C 	C 	0.98230 0.50580 0.71720 0.06400
H 	H 	0.98350 0.47240 0.64910 -0.00900
C 	C 	0.92820 0.53100 0.74920 -0.13100
H 	H 	0.89420 0.51480 0.70370 0.06200
C 	C 	0.79933 0.52683 0.89730 0.16600
C 	C 	0.80900 0.43140 0.97310 0.09200
H 	H 	0.82710 0.40250 0.03870 -0.02400
C 	C 	0.76710 0.41500 0.85860 -0.19000
H 	H 	0.75710 0.37570 0.84680 0.08200
C 	C 	0.73980 0.45670 0.76060 0.10600
H 	H 	0.71030 0.44620 0.68400 -0.02000
C 	C 	0.75670 0.51450 0.77760 -0.22000
H 	H 	0.74000 0.54390 0.71080 0.11200
