data_crystal

_cell_length_a 35.49000
_cell_length_b 35.49000
_cell_length_c 35.49000
_cell_angle_alpha 90.00000
_cell_angle_beta  90.00000
_cell_angle_gamma 90.00000

_symmetry_space_group_name_	'P 1'
_symmetry_space_group_name_H-M	'P 1'

loop_
_symmetry_equiv_pos_as_xyz
  x,y,z

loop_
_atom_site_label
_atom_site_type_symbol
_atom_site_fract_x
_atom_site_fract_y
_atom_site_fract_z
_atom_site_charge
O 	O 	0.46254 0.03746 0.21922 -0.41300
C 	C 	0.40670 0.09510 0.21810 0.06200
H 	H 	0.41570 0.08720 0.19480 0.02100
C 	C 	0.37700 0.12510 0.21910 -0.13000
H 	H 	0.36940 0.13450 0.19590 0.07400
C 	C 	0.31980 0.17850 0.21410 0.02200
H 	H 	0.32930 0.16850 0.19190 0.01700
C 	C 	0.29320 0.20440 0.21640 -0.13700
H 	H 	0.28260 0.21280 0.19400 0.08100
O 	O 	0.53746 0.96254 0.21922 -0.40800
C 	C 	0.59330 0.90490 0.21810 0.06200
H 	H 	0.58430 0.91280 0.19480 0.02300
C 	C 	0.62300 0.87490 0.21910 -0.12800
H 	H 	0.63060 0.86550 0.19590 0.07500
C 	C 	0.68020 0.82150 0.21410 0.02200
H 	H 	0.67070 0.83150 0.19190 0.01800
C 	C 	0.70680 0.79560 0.21640 -0.13600
H 	H 	0.71740 0.78720 0.19400 0.08200
O 	O 	0.53746 0.03746 0.78078 -0.41300
C 	C 	0.59330 0.09510 0.78190 0.06300
H 	H 	0.58430 0.08720 0.80520 0.02200
C 	C 	0.62300 0.12510 0.78090 -0.13000
H 	H 	0.63060 0.13450 0.80410 0.07500
C 	C 	0.68020 0.17850 0.78590 0.02300
H 	H 	0.67070 0.16850 0.80810 0.01800
C 	C 	0.70680 0.20440 0.78360 -0.13700
H 	H 	0.71740 0.21280 0.80600 0.08300
O 	O 	0.46254 0.96254 0.78078 -0.40800
C 	C 	0.40670 0.90490 0.78190 0.06200
H 	H 	0.41570 0.91280 0.80520 0.02400
C 	C 	0.37700 0.87490 0.78090 -0.12800
H 	H 	0.36940 0.86550 0.80410 0.07600
C 	C 	0.31980 0.82150 0.78590 0.02300
H 	H 	0.32930 0.83150 0.80810 0.01900
C 	C 	0.29320 0.79560 0.78360 -0.13600
H 	H 	0.28260 0.78720 0.80600 0.08300
O 	O 	0.21922 0.46254 0.03746 -0.41400
C 	C 	0.21810 0.40670 0.09510 0.06200
H 	H 	0.19480 0.41570 0.08720 0.02100
C 	C 	0.21910 0.37700 0.12510 -0.13000
H 	H 	0.19590 0.36940 0.13450 0.07400
C 	C 	0.21410 0.31980 0.17850 0.02200
H 	H 	0.19190 0.32930 0.16850 0.01700
C 	C 	0.21640 0.29320 0.20440 -0.13700
H 	H 	0.19400 0.28260 0.21280 0.08100
O 	O 	0.21922 0.53746 0.96254 -0.40800
C 	C 	0.21810 0.59330 0.90490 0.06200
H 	H 	0.19480 0.58430 0.91280 0.02300
C 	C 	0.21910 0.62300 0.87490 -0.12800
H 	H 	0.19590 0.63060 0.86550 0.07500
C 	C 	0.21410 0.68020 0.82150 0.02200
H 	H 	0.19190 0.67070 0.83150 0.01800
C 	C 	0.21640 0.70680 0.79560 -0.13600
H 	H 	0.19400 0.71740 0.78720 0.08200
O 	O 	0.78078 0.53746 0.03746 -0.41300
C 	C 	0.78190 0.59330 0.09510 0.06300
H 	H 	0.80520 0.58430 0.08720 0.02200
C 	C 	0.78090 0.62300 0.12510 -0.13000
H 	H 	0.80410 0.63060 0.13450 0.07500
C 	C 	0.78590 0.68020 0.17850 0.02300
H 	H 	0.80810 0.67070 0.16850 0.01800
C 	C 	0.78360 0.70680 0.20440 -0.13700
H 	H 	0.80600 0.71740 0.21280 0.08300
O 	O 	0.78078 0.46254 0.96254 -0.40800
C 	C 	0.78190 0.40670 0.90490 0.06200
H 	H 	0.80520 0.41570 0.91280 0.02400
C 	C 	0.78090 0.37700 0.87490 -0.12800
H 	H 	0.80410 0.36940 0.86550 0.07600
C 	C 	0.78590 0.31980 0.82150 0.02300
H 	H 	0.80810 0.32930 0.83150 0.01900
C 	C 	0.78360 0.29320 0.79560 -0.13600
H 	H 	0.80600 0.28260 0.78720 0.08300
O 	O 	0.03746 0.21922 0.46254 -0.41400
C 	C 	0.09510 0.21810 0.40670 0.06200
H 	H 	0.08720 0.19480 0.41570 0.02100
C 	C 	0.12510 0.21910 0.37700 -0.13000
H 	H 	0.13450 0.19590 0.36940 0.07400
C 	C 	0.17850 0.21410 0.31980 0.02200
H 	H 	0.16850 0.19190 0.32930 0.01700
C 	C 	0.20440 0.21640 0.29320 -0.13700
H 	H 	0.21280 0.19400 0.28260 0.08100
O 	O 	0.96254 0.21922 0.53746 -0.40800
C 	C 	0.90490 0.21810 0.59330 0.06200
H 	H 	0.91280 0.19480 0.58430 0.02300
C 	C 	0.87490 0.21910 0.62300 -0.12800
H 	H 	0.86550 0.19590 0.63060 0.07500
C 	C 	0.82150 0.21410 0.68020 0.02200
H 	H 	0.83150 0.19190 0.67070 0.01800
C 	C 	0.79560 0.21640 0.70680 -0.13600
H 	H 	0.78720 0.19400 0.71740 0.08200
O 	O 	0.03746 0.78078 0.53746 -0.41300
C 	C 	0.09510 0.78190 0.59330 0.06300
H 	H 	0.08720 0.80520 0.58430 0.02200
C 	C 	0.12510 0.78090 0.62300 -0.13000
H 	H 	0.13450 0.80410 0.63060 0.07500
C 	C 	0.17850 0.78590 0.68020 0.02300
H 	H 	0.16850 0.80810 0.67070 0.01800
C 	C 	0.20440 0.78360 0.70680 -0.13700
H 	H 	0.21280 0.80600 0.71740 0.08300
O 	O 	0.96254 0.78078 0.46254 -0.40800
C 	C 	0.90490 0.78190 0.40670 0.06200
H 	H 	0.91280 0.80520 0.41570 0.02400
C 	C 	0.87490 0.78090 0.37700 -0.12800
H 	H 	0.86550 0.80410 0.36940 0.07600
C 	C 	0.82150 0.78590 0.31980 0.02300
H 	H 	0.83150 0.80810 0.32930 0.01900
C 	C 	0.79560 0.78360 0.29320 -0.13600
H 	H 	0.78720 0.80600 0.28260 0.08300
O 	O 	0.53746 0.96254 0.28078 -0.40800
C 	C 	0.59510 0.90670 0.28190 0.06200
H 	H 	0.58720 0.91570 0.30520 0.02400
C 	C 	0.62510 0.87700 0.28090 -0.12800
H 	H 	0.63450 0.86940 0.30410 0.07500
C 	C 	0.67850 0.81980 0.28590 0.02200
H 	H 	0.66850 0.82930 0.30810 0.01800
C 	C 	0.70440 0.79320 0.28360 -0.13600
H 	H 	0.71280 0.78260 0.30600 0.08200
O 	O 	0.46254 0.03746 0.28078 -0.41400
C 	C 	0.40490 0.09330 0.28190 0.06200
H 	H 	0.41280 0.08430 0.30520 0.02100
C 	C 	0.37490 0.12300 0.28090 -0.13000
H 	H 	0.36550 0.13060 0.30410 0.07500
C 	C 	0.32150 0.18020 0.28590 0.02300
H 	H 	0.33150 0.17070 0.30810 0.01700
C 	C 	0.29560 0.20680 0.28360 -0.13700
H 	H 	0.28720 0.21740 0.30600 0.08200
O 	O 	0.53746 0.03746 0.71922 -0.41300
C 	C 	0.59510 0.09330 0.71810 0.06200
H 	H 	0.58720 0.08430 0.69480 0.02200
C 	C 	0.62510 0.12300 0.71910 -0.13000
H 	H 	0.63450 0.13060 0.69590 0.07500
C 	C 	0.67850 0.18020 0.71410 0.02300
H 	H 	0.66850 0.17070 0.69190 0.01800
C 	C 	0.70440 0.20680 0.71640 -0.13700
H 	H 	0.71280 0.21740 0.69400 0.08200
O 	O 	0.46254 0.96254 0.71922 -0.40800
C 	C 	0.40490 0.90670 0.71810 0.06200
H 	H 	0.41280 0.91570 0.69480 0.02400
C 	C 	0.37490 0.87700 0.71910 -0.12800
H 	H 	0.36550 0.86940 0.69590 0.07500
C 	C 	0.32150 0.81980 0.71410 0.02200
H 	H 	0.33150 0.82930 0.69190 0.01800
C 	C 	0.29560 0.79320 0.71640 -0.13600
H 	H 	0.28720 0.78260 0.69400 0.08200
O 	O 	0.96254 0.71922 0.46254 -0.40800
C 	C 	0.90670 0.71810 0.40490 0.06200
H 	H 	0.91570 0.69480 0.41280 0.02400
C 	C 	0.87700 0.71910 0.37490 -0.12800
H 	H 	0.86940 0.69590 0.36550 0.07500
C 	C 	0.81980 0.71410 0.32150 0.02200
H 	H 	0.82930 0.69190 0.33150 0.01800
C 	C 	0.79320 0.71640 0.29560 -0.13600
H 	H 	0.78260 0.69400 0.28720 0.08200
O 	O 	0.03746 0.71922 0.53746 -0.41300
C 	C 	0.09330 0.71810 0.59510 0.06200
H 	H 	0.08430 0.69480 0.58720 0.02200
C 	C 	0.12300 0.71910 0.62510 -0.13000
H 	H 	0.13060 0.69590 0.63450 0.07500
C 	C 	0.18020 0.71410 0.67850 0.02300
H 	H 	0.17070 0.69190 0.66850 0.01800
C 	C 	0.20680 0.71640 0.70440 -0.13700
H 	H 	0.21740 0.69400 0.71280 0.08200
O 	O 	0.03746 0.28078 0.46254 -0.41400
C 	C 	0.09330 0.28190 0.40490 0.06200
H 	H 	0.08430 0.30520 0.41280 0.02100
C 	C 	0.12300 0.28090 0.37490 -0.13000
H 	H 	0.13060 0.30410 0.36550 0.07500
C 	C 	0.18020 0.28590 0.32150 0.02300
H 	H 	0.17070 0.30810 0.33150 0.01700
C 	C 	0.20680 0.28360 0.29560 -0.13700
H 	H 	0.21740 0.30600 0.28720 0.08200
O 	O 	0.96254 0.28078 0.53746 -0.40800
C 	C 	0.90670 0.28190 0.59510 0.06200
H 	H 	0.91570 0.30520 0.58720 0.02400
C 	C 	0.87700 0.28090 0.62510 -0.12800
H 	H 	0.86940 0.30410 0.63450 0.07500
C 	C 	0.81980 0.28590 0.67850 0.02200
H 	H 	0.82930 0.30810 0.66850 0.01800
C 	C 	0.79320 0.28360 0.70440 -0.13600
H 	H 	0.78260 0.30600 0.71280 0.08200
O 	O 	0.71922 0.53746 0.03746 -0.41300
C 	C 	0.71810 0.59510 0.09330 0.06200
H 	H 	0.69480 0.58720 0.08430 0.02200
C 	C 	0.71910 0.62510 0.12300 -0.13000
H 	H 	0.69590 0.63450 0.13060 0.07500
C 	C 	0.71410 0.67850 0.18020 0.02300
H 	H 	0.69190 0.66850 0.17070 0.01800
C 	C 	0.71640 0.70440 0.20680 -0.13700
H 	H 	0.69400 0.71280 0.21740 0.08200
O 	O 	0.71922 0.46254 0.96254 -0.40800
C 	C 	0.71810 0.40490 0.90670 0.06200
H 	H 	0.69480 0.41280 0.91570 0.02400
C 	C 	0.71910 0.37490 0.87700 -0.12800
H 	H 	0.69590 0.36550 0.86940 0.07500
C 	C 	0.71410 0.32150 0.81980 0.02200
H 	H 	0.69190 0.33150 0.82930 0.01800
C 	C 	0.71640 0.29560 0.79320 -0.13600
H 	H 	0.69400 0.28720 0.78260 0.08200
O 	O 	0.28078 0.53746 0.96254 -0.40800
C 	C 	0.28190 0.59510 0.90670 0.06200
H 	H 	0.30520 0.58720 0.91570 0.02400
C 	C 	0.28090 0.62510 0.87700 -0.12800
H 	H 	0.30410 0.63450 0.86940 0.07500
C 	C 	0.28590 0.67850 0.81980 0.02200
H 	H 	0.30810 0.66850 0.82930 0.01800
C 	C 	0.28360 0.70440 0.79320 -0.13600
H 	H 	0.30600 0.71280 0.78260 0.08200
O 	O 	0.28078 0.46254 0.03746 -0.41400
C 	C 	0.28190 0.40490 0.09330 0.06200
H 	H 	0.30520 0.41280 0.08430 0.02100
C 	C 	0.28090 0.37490 0.12300 -0.13000
H 	H 	0.30410 0.36550 0.13060 0.07500
C 	C 	0.28590 0.32150 0.18020 0.02300
H 	H 	0.30810 0.33150 0.17070 0.01700
C 	C 	0.28360 0.29560 0.20680 -0.13700
H 	H 	0.30600 0.28720 0.21740 0.08200
O 	O 	0.53746 0.96254 0.78078 -0.40700
C 	C 	0.59330 0.90490 0.78190 0.06200
H 	H 	0.58430 0.91280 0.80520 0.02400
C 	C 	0.62300 0.87490 0.78090 -0.12800
H 	H 	0.63060 0.86550 0.80410 0.07600
C 	C 	0.68020 0.82150 0.78590 0.02300
H 	H 	0.67070 0.83150 0.80810 0.01900
C 	C 	0.70680 0.79560 0.78360 -0.13600
H 	H 	0.71740 0.78720 0.80600 0.08300
O 	O 	0.46254 0.03746 0.78078 -0.41300
C 	C 	0.40670 0.09510 0.78190 0.06200
H 	H 	0.41570 0.08720 0.80520 0.02200
C 	C 	0.37700 0.12510 0.78090 -0.13000
H 	H 	0.36940 0.13450 0.80410 0.07500
C 	C 	0.31980 0.17850 0.78590 0.02300
H 	H 	0.32930 0.16850 0.80810 0.01800
C 	C 	0.29320 0.20440 0.78360 -0.13700
H 	H 	0.28260 0.21280 0.80600 0.08200
O 	O 	0.46254 0.96254 0.21922 -0.40800
C 	C 	0.40670 0.90490 0.21810 0.06200
H 	H 	0.41570 0.91280 0.19480 0.02300
C 	C 	0.37700 0.87490 0.21910 -0.12800
H 	H 	0.36940 0.86550 0.19590 0.07500
C 	C 	0.31980 0.82150 0.21410 0.02200
H 	H 	0.32930 0.83150 0.19190 0.01800
C 	C 	0.29320 0.79560 0.21640 -0.13600
H 	H 	0.28260 0.78720 0.19400 0.08200
O 	O 	0.53746 0.03746 0.21922 -0.41400
C 	C 	0.59330 0.09510 0.21810 0.06200
H 	H 	0.58430 0.08720 0.19480 0.02100
C 	C 	0.62300 0.12510 0.21910 -0.13000
H 	H 	0.63060 0.13450 0.19590 0.07500
C 	C 	0.68020 0.17850 0.21410 0.02300
H 	H 	0.67070 0.16850 0.19190 0.01700
C 	C 	0.70680 0.20440 0.21640 -0.13700
H 	H 	0.71740 0.21280 0.19400 0.08200
O 	O 	0.78078 0.53746 0.96254 -0.40700
C 	C 	0.78190 0.59330 0.90490 0.06200
H 	H 	0.80520 0.58430 0.91280 0.02400
C 	C 	0.78090 0.62300 0.87490 -0.12800
H 	H 	0.80410 0.63060 0.86550 0.07600
C 	C 	0.78590 0.68020 0.82150 0.02300
H 	H 	0.80810 0.67070 0.83150 0.01900
C 	C 	0.78360 0.70680 0.79560 -0.13600
H 	H 	0.80600 0.71740 0.78720 0.08300
O 	O 	0.78078 0.46254 0.03746 -0.41300
C 	C 	0.78190 0.40670 0.09510 0.06200
H 	H 	0.80520 0.41570 0.08720 0.02200
C 	C 	0.78090 0.37700 0.12510 -0.13000
H 	H 	0.80410 0.36940 0.13450 0.07500
C 	C 	0.78590 0.31980 0.17850 0.02300
H 	H 	0.80810 0.32930 0.16850 0.01800
C 	C 	0.78360 0.29320 0.20440 -0.13700
H 	H 	0.80600 0.28260 0.21280 0.08200
O 	O 	0.21922 0.46254 0.96254 -0.40800
C 	C 	0.21810 0.40670 0.90490 0.06200
H 	H 	0.19480 0.41570 0.91280 0.02300
C 	C 	0.21910 0.37700 0.87490 -0.12800
H 	H 	0.19590 0.36940 0.86550 0.07500
C 	C 	0.21410 0.31980 0.82150 0.02200
H 	H 	0.19190 0.32930 0.83150 0.01800
C 	C 	0.21640 0.29320 0.79560 -0.13600
H 	H 	0.19400 0.28260 0.78720 0.08200
O 	O 	0.21922 0.53746 0.03746 -0.41400
C 	C 	0.21810 0.59330 0.09510 0.06200
H 	H 	0.19480 0.58430 0.08720 0.02100
C 	C 	0.21910 0.62300 0.12510 -0.13000
H 	H 	0.19590 0.63060 0.13450 0.07500
C 	C 	0.21410 0.68020 0.17850 0.02300
H 	H 	0.19190 0.67070 0.16850 0.01700
C 	C 	0.21640 0.70680 0.20440 -0.13700
H 	H 	0.19400 0.71740 0.21280 0.08200
O 	O 	0.96254 0.78078 0.53746 -0.40700
C 	C 	0.90490 0.78190 0.59330 0.06200
H 	H 	0.91280 0.80520 0.58430 0.02400
C 	C 	0.87490 0.78090 0.62300 -0.12800
H 	H 	0.86550 0.80410 0.63060 0.07600
C 	C 	0.82150 0.78590 0.68020 0.02300
H 	H 	0.83150 0.80810 0.67070 0.01900
C 	C 	0.79560 0.78360 0.70680 -0.13600
H 	H 	0.78720 0.80600 0.71740 0.08300
O 	O 	0.03746 0.78078 0.46254 -0.41300
C 	C 	0.09510 0.78190 0.40670 0.06200
H 	H 	0.08720 0.80520 0.41570 0.02200
C 	C 	0.12510 0.78090 0.37700 -0.13000
H 	H 	0.13450 0.80410 0.36940 0.07500
C 	C 	0.17850 0.78590 0.31980 0.02300
H 	H 	0.16850 0.80810 0.32930 0.01800
C 	C 	0.20440 0.78360 0.29320 -0.13700
H 	H 	0.21280 0.80600 0.28260 0.08200
O 	O 	0.96254 0.21922 0.46254 -0.40800
C 	C 	0.90490 0.21810 0.40670 0.06200
H 	H 	0.91280 0.19480 0.41570 0.02300
C 	C 	0.87490 0.21910 0.37700 -0.12800
H 	H 	0.86550 0.19590 0.36940 0.07500
C 	C 	0.82150 0.21410 0.31980 0.02200
H 	H 	0.83150 0.19190 0.32930 0.01800
C 	C 	0.79560 0.21640 0.29320 -0.13600
H 	H 	0.78720 0.19400 0.28260 0.08200
O 	O 	0.03746 0.21922 0.53746 -0.41400
C 	C 	0.09510 0.21810 0.59330 0.06200
H 	H 	0.08720 0.19480 0.58430 0.02100
C 	C 	0.12510 0.21910 0.62300 -0.13000
H 	H 	0.13450 0.19590 0.63060 0.07500
C 	C 	0.17850 0.21410 0.68020 0.02300
H 	H 	0.16850 0.19190 0.67070 0.01700
C 	C 	0.20440 0.21640 0.70680 -0.13700
H 	H 	0.21280 0.19400 0.71740 0.08200
O 	O 	0.46254 0.03746 0.71922 -0.41400
C 	C 	0.40490 0.09330 0.71810 0.06200
H 	H 	0.41280 0.08430 0.69480 0.02200
C 	C 	0.37490 0.12300 0.71910 -0.13000
H 	H 	0.36550 0.13060 0.69590 0.07500
C 	C 	0.32150 0.18020 0.71410 0.02300
H 	H 	0.33150 0.17070 0.69190 0.01700
C 	C 	0.29560 0.20680 0.71640 -0.13700
H 	H 	0.28720 0.21740 0.69400 0.08200
O 	O 	0.53746 0.96254 0.71922 -0.40800
C 	C 	0.59510 0.90670 0.71810 0.06200
H 	H 	0.58720 0.91570 0.69480 0.02400
C 	C 	0.62510 0.87700 0.71910 -0.12800
H 	H 	0.63450 0.86940 0.69590 0.07500
C 	C 	0.67850 0.81980 0.71410 0.02300
H 	H 	0.66850 0.82930 0.69190 0.01800
C 	C 	0.70440 0.79320 0.71640 -0.13600
H 	H 	0.71280 0.78260 0.69400 0.08200
O 	O 	0.46254 0.96254 0.28078 -0.40800
C 	C 	0.40490 0.90670 0.28190 0.06200
H 	H 	0.41280 0.91570 0.30520 0.02400
C 	C 	0.37490 0.87700 0.28090 -0.12800
H 	H 	0.36550 0.86940 0.30410 0.07500
C 	C 	0.32150 0.81980 0.28590 0.02200
H 	H 	0.33150 0.82930 0.30810 0.01800
C 	C 	0.29560 0.79320 0.28360 -0.13600
H 	H 	0.28720 0.78260 0.30600 0.08200
O 	O 	0.53746 0.03746 0.28078 -0.41400
C 	C 	0.59510 0.09330 0.28190 0.06200
H 	H 	0.58720 0.08430 0.30520 0.02200
C 	C 	0.62510 0.12300 0.28090 -0.13000
H 	H 	0.63450 0.13060 0.30410 0.07500
C 	C 	0.67850 0.18020 0.28590 0.02300
H 	H 	0.66850 0.17070 0.30810 0.01700
C 	C 	0.70440 0.20680 0.28360 -0.13700
H 	H 	0.71280 0.21740 0.30600 0.08200
O 	O 	0.03746 0.28078 0.53746 -0.41400
C 	C 	0.09330 0.28190 0.59510 0.06200
H 	H 	0.08430 0.30520 0.58720 0.02200
C 	C 	0.12300 0.28090 0.62510 -0.13000
H 	H 	0.13060 0.30410 0.63450 0.07500
C 	C 	0.18020 0.28590 0.67850 0.02300
H 	H 	0.17070 0.30810 0.66850 0.01700
C 	C 	0.20680 0.28360 0.70440 -0.13700
H 	H 	0.21740 0.30600 0.71280 0.08200
O 	O 	0.96254 0.28078 0.46254 -0.40800
C 	C 	0.90670 0.28190 0.40490 0.06200
H 	H 	0.91570 0.30520 0.41280 0.02400
C 	C 	0.87700 0.28090 0.37490 -0.12800
H 	H 	0.86940 0.30410 0.36550 0.07500
C 	C 	0.81980 0.28590 0.32150 0.02200
H 	H 	0.82930 0.30810 0.33150 0.01800
C 	C 	0.79320 0.28360 0.29560 -0.13600
H 	H 	0.78260 0.30600 0.28720 0.08200
O 	O 	0.96254 0.71922 0.53746 -0.40800
C 	C 	0.90670 0.71810 0.59510 0.06200
H 	H 	0.91570 0.69480 0.58720 0.02400
C 	C 	0.87700 0.71910 0.62510 -0.12800
H 	H 	0.86940 0.69590 0.63450 0.07500
C 	C 	0.81980 0.71410 0.67850 0.02300
H 	H 	0.82930 0.69190 0.66850 0.01800
C 	C 	0.79320 0.71640 0.70440 -0.13600
H 	H 	0.78260 0.69400 0.71280 0.08200
O 	O 	0.03746 0.71922 0.46254 -0.41400
C 	C 	0.09330 0.71810 0.40490 0.06200
H 	H 	0.08430 0.69480 0.41280 0.02200
C 	C 	0.12300 0.71910 0.37490 -0.13000
H 	H 	0.13060 0.69590 0.36550 0.07500
C 	C 	0.18020 0.71410 0.32150 0.02300
H 	H 	0.17070 0.69190 0.33150 0.01700
C 	C 	0.20680 0.71640 0.29560 -0.13700
H 	H 	0.21740 0.69400 0.28720 0.08200
O 	O 	0.28078 0.46254 0.96254 -0.40800
C 	C 	0.28190 0.40490 0.90670 0.06200
H 	H 	0.30520 0.41280 0.91570 0.02400
C 	C 	0.28090 0.37490 0.87700 -0.12800
H 	H 	0.30410 0.36550 0.86940 0.07500
C 	C 	0.28590 0.32150 0.81980 0.02200
H 	H 	0.30810 0.33150 0.82930 0.01800
C 	C 	0.28360 0.29560 0.79320 -0.13600
H 	H 	0.30600 0.28720 0.78260 0.08200
O 	O 	0.28078 0.53746 0.03746 -0.41400
C 	C 	0.28190 0.59510 0.09330 0.06200
H 	H 	0.30520 0.58720 0.08430 0.02200
C 	C 	0.28090 0.62510 0.12300 -0.13000
H 	H 	0.30410 0.63450 0.13060 0.07500
C 	C 	0.28590 0.67850 0.18020 0.02300
H 	H 	0.30810 0.66850 0.17070 0.01700
C 	C 	0.28360 0.70440 0.20680 -0.13700
H 	H 	0.30600 0.71280 0.21740 0.08200
O 	O 	0.71922 0.46254 0.03746 -0.41400
C 	C 	0.71810 0.40490 0.09330 0.06200
H 	H 	0.69480 0.41280 0.08430 0.02200
C 	C 	0.71910 0.37490 0.12300 -0.13000
H 	H 	0.69590 0.36550 0.13060 0.07500
C 	C 	0.71410 0.32150 0.18020 0.02300
H 	H 	0.69190 0.33150 0.17070 0.01700
C 	C 	0.71640 0.29560 0.20680 -0.13700
H 	H 	0.69400 0.28720 0.21740 0.08200
O 	O 	0.71922 0.53746 0.96254 -0.40800
C 	C 	0.71810 0.59510 0.90670 0.06200
H 	H 	0.69480 0.58720 0.91570 0.02400
C 	C 	0.71910 0.62510 0.87700 -0.12800
H 	H 	0.69590 0.63450 0.86940 0.07500
C 	C 	0.71410 0.67850 0.81980 0.02300
H 	H 	0.69190 0.66850 0.82930 0.01800
C 	C 	0.71640 0.70440 0.79320 -0.13600
H 	H 	0.69400 0.71280 0.78260 0.08200
Cu	Cu	0.50000 0.00000 0.21279 0.92300
Cu	Cu	0.50000 0.00000 0.78721 0.92300
Cu	Cu	0.21279 0.50000 -0.00000 0.92300
Cu	Cu	0.78721 0.50000 -0.00000 0.92300
Cu	Cu	0.00000 0.21279 0.50000 0.92300
Cu	Cu	0.00000 0.78721 0.50000 0.92300
Cu	Cu	0.50000 0.00000 0.28721 0.92300
Cu	Cu	0.50000 0.00000 0.71279 0.92300
Cu	Cu	0.00000 0.71279 0.50000 0.92300
Cu	Cu	0.00000 0.28721 0.50000 0.92300
Cu	Cu	0.71279 0.50000 -0.00000 0.92300
Cu	Cu	0.28721 0.50000 -0.00000 0.92300
N 	N 	0.25000 0.25000 0.25000 -0.15800
N 	N 	0.75000 0.75000 0.25000 -0.15800
N 	N 	0.75000 0.25000 0.75000 -0.15800
N 	N 	0.25000 0.75000 0.75000 -0.15800
N 	N 	0.75000 0.75000 0.75000 -0.15800
N 	N 	0.25000 0.25000 0.75000 -0.15800
N 	N 	0.25000 0.75000 0.25000 -0.15800
N 	N 	0.75000 0.25000 0.25000 -0.15800
C 	C 	0.44920 0.05080 0.25000 0.38500
C 	C 	0.42100 0.07900 0.25000 -0.15600
C 	C 	0.35960 0.14040 0.25000 0.08700
C 	C 	0.33130 0.16870 0.25000 -0.05400
C 	C 	0.27945 0.22055 0.25000 0.11500
C 	C 	0.55080 0.94920 0.25000 0.38400
C 	C 	0.57900 0.92100 0.25000 -0.15300
C 	C 	0.64040 0.85960 0.25000 0.08600
C 	C 	0.66870 0.83130 0.25000 -0.05300
C 	C 	0.72055 0.77945 0.25000 0.11500
C 	C 	0.55080 0.05080 0.75000 0.38500
C 	C 	0.57900 0.07900 0.75000 -0.15500
C 	C 	0.64040 0.14040 0.75000 0.08700
C 	C 	0.66870 0.16870 0.75000 -0.05400
C 	C 	0.72055 0.22055 0.75000 0.11600
C 	C 	0.44920 0.94920 0.75000 0.38400
C 	C 	0.42100 0.92100 0.75000 -0.15200
C 	C 	0.35960 0.85960 0.75000 0.08600
C 	C 	0.33130 0.83130 0.75000 -0.05200
C 	C 	0.27945 0.77945 0.75000 0.11500
C 	C 	0.25000 0.44920 0.05080 0.38500
C 	C 	0.25000 0.42100 0.07900 -0.15600
C 	C 	0.25000 0.35960 0.14040 0.08700
C 	C 	0.25000 0.33130 0.16870 -0.05400
C 	C 	0.25000 0.27945 0.22055 0.11500
C 	C 	0.25000 0.55080 0.94920 0.38400
C 	C 	0.25000 0.57900 0.92100 -0.15300
C 	C 	0.25000 0.64040 0.85960 0.08600
C 	C 	0.25000 0.66870 0.83130 -0.05300
C 	C 	0.25000 0.72055 0.77945 0.11500
C 	C 	0.75000 0.55080 0.05080 0.38500
C 	C 	0.75000 0.57900 0.07900 -0.15500
C 	C 	0.75000 0.64040 0.14040 0.08700
C 	C 	0.75000 0.66870 0.16870 -0.05400
C 	C 	0.75000 0.72055 0.22055 0.11600
C 	C 	0.75000 0.44920 0.94920 0.38400
C 	C 	0.75000 0.42100 0.92100 -0.15200
C 	C 	0.75000 0.35960 0.85960 0.08600
C 	C 	0.75000 0.33130 0.83130 -0.05200
C 	C 	0.75000 0.27945 0.77945 0.11500
C 	C 	0.05080 0.25000 0.44920 0.38500
C 	C 	0.07900 0.25000 0.42100 -0.15600
C 	C 	0.14040 0.25000 0.35960 0.08700
C 	C 	0.16870 0.25000 0.33130 -0.05400
C 	C 	0.22055 0.25000 0.27945 0.11500
C 	C 	0.94920 0.25000 0.55080 0.38400
C 	C 	0.92100 0.25000 0.57900 -0.15300
C 	C 	0.85960 0.25000 0.64040 0.08600
C 	C 	0.83130 0.25000 0.66870 -0.05300
C 	C 	0.77945 0.25000 0.72055 0.11500
C 	C 	0.05080 0.75000 0.55080 0.38500
C 	C 	0.07900 0.75000 0.57900 -0.15500
C 	C 	0.14040 0.75000 0.64040 0.08700
C 	C 	0.16870 0.75000 0.66870 -0.05400
C 	C 	0.22055 0.75000 0.72055 0.11600
C 	C 	0.94920 0.75000 0.44920 0.38400
C 	C 	0.92100 0.75000 0.42100 -0.15200
C 	C 	0.85960 0.75000 0.35960 0.08600
C 	C 	0.83130 0.75000 0.33130 -0.05200
C 	C 	0.77945 0.75000 0.27945 0.11500
C 	C 	0.55080 0.94920 0.75000 0.38400
C 	C 	0.57900 0.92100 0.75000 -0.15200
C 	C 	0.64040 0.85960 0.75000 0.08600
C 	C 	0.66870 0.83130 0.75000 -0.05300
C 	C 	0.72055 0.77945 0.75000 0.11600
C 	C 	0.44920 0.05080 0.75000 0.38500
C 	C 	0.42100 0.07900 0.75000 -0.15500
C 	C 	0.35960 0.14040 0.75000 0.08700
C 	C 	0.33130 0.16870 0.75000 -0.05400
C 	C 	0.27945 0.22055 0.75000 0.11500
C 	C 	0.44920 0.94920 0.25000 0.38400
C 	C 	0.42100 0.92100 0.25000 -0.15300
C 	C 	0.35960 0.85960 0.25000 0.08600
C 	C 	0.33130 0.83130 0.25000 -0.05300
C 	C 	0.27945 0.77945 0.25000 0.11500
C 	C 	0.55080 0.05080 0.25000 0.38500
C 	C 	0.57900 0.07900 0.25000 -0.15600
C 	C 	0.64040 0.14040 0.25000 0.08700
C 	C 	0.66870 0.16870 0.25000 -0.05400
C 	C 	0.72055 0.22055 0.25000 0.11500
C 	C 	0.75000 0.55080 0.94920 0.38400
C 	C 	0.75000 0.57900 0.92100 -0.15200
C 	C 	0.75000 0.64040 0.85960 0.08600
C 	C 	0.75000 0.66870 0.83130 -0.05300
C 	C 	0.75000 0.72055 0.77945 0.11600
C 	C 	0.75000 0.44920 0.05080 0.38500
C 	C 	0.75000 0.42100 0.07900 -0.15500
C 	C 	0.75000 0.35960 0.14040 0.08700
C 	C 	0.75000 0.33130 0.16870 -0.05400
C 	C 	0.75000 0.27945 0.22055 0.11500
C 	C 	0.25000 0.44920 0.94920 0.38400
C 	C 	0.25000 0.42100 0.92100 -0.15300
C 	C 	0.25000 0.35960 0.85960 0.08600
C 	C 	0.25000 0.33130 0.83130 -0.05300
C 	C 	0.25000 0.27945 0.77945 0.11500
C 	C 	0.25000 0.55080 0.05080 0.38500
C 	C 	0.25000 0.57900 0.07900 -0.15600
C 	C 	0.25000 0.64040 0.14040 0.08700
C 	C 	0.25000 0.66870 0.16870 -0.05400
C 	C 	0.25000 0.72055 0.22055 0.11500
C 	C 	0.94920 0.75000 0.55080 0.38400
C 	C 	0.92100 0.75000 0.57900 -0.15200
C 	C 	0.85960 0.75000 0.64040 0.08600
C 	C 	0.83130 0.75000 0.66870 -0.05300
C 	C 	0.77945 0.75000 0.72055 0.11600
C 	C 	0.05080 0.75000 0.44920 0.38500
C 	C 	0.07900 0.75000 0.42100 -0.15500
C 	C 	0.14040 0.75000 0.35960 0.08700
C 	C 	0.16870 0.75000 0.33130 -0.05400
C 	C 	0.22055 0.75000 0.27945 0.11500
C 	C 	0.94920 0.25000 0.44920 0.38400
C 	C 	0.92100 0.25000 0.42100 -0.15300
C 	C 	0.85960 0.25000 0.35960 0.08600
C 	C 	0.83130 0.25000 0.33130 -0.05300
C 	C 	0.77945 0.25000 0.27945 0.11500
C 	C 	0.05080 0.25000 0.55080 0.38500
C 	C 	0.07900 0.25000 0.57900 -0.15600
C 	C 	0.14040 0.25000 0.64040 0.08700
C 	C 	0.16870 0.25000 0.66870 -0.05400
C 	C 	0.22055 0.25000 0.72055 0.11500
