data_crystal

_cell_length_a 15.45800
_cell_length_b 14.22000
_cell_length_c 14.24500
_cell_angle_alpha 90.00000
_cell_angle_beta  99.84000
_cell_angle_gamma 90.00000

_symmetry_space_group_name_	'P 1'
_symmetry_space_group_name_H-M	'P 1'

loop_
_symmetry_equiv_pos_as_xyz
  x,y,z

loop_
_atom_site_label
_atom_site_type_symbol
_atom_site_fract_x
_atom_site_fract_y
_atom_site_fract_z
_atom_site_charge
O 	O 	0.62946 0.31181 0.82349 -0.46500
O 	O 	0.75079 0.22824 0.86431 -0.33400
O 	O 	0.99836 0.67130 0.90214 -0.41300
O 	O 	0.88622 0.58300 0.91335 -0.31000
N 	N 	0.72903 0.55350 0.97270 -0.09600
N 	N 	0.84681 0.65152 0.11335 -0.09500
C 	C 	0.70780 0.30150 0.86480 0.47300
C 	C 	0.75240 0.38560 0.91800 -0.45000
H 	H 	0.80510 0.40120 0.89270 0.17100
H 	H 	0.76970 0.36960 0.98470 0.18200
C 	C 	0.69300 0.47090 0.90930 0.11600
H 	H 	0.63710 0.45210 0.92570 0.00500
H 	H 	0.68220 0.49150 0.84340 0.00500
C 	C 	0.73230 0.52780 0.07640 -0.07900
H 	H 	0.67320 0.51520 0.08730 0.06700
H 	H 	0.76630 0.47060 0.09010 0.06100
C 	C 	0.77260 0.60430 0.14320 -0.04600
H 	H 	0.72760 0.65020 0.14960 0.05300
H 	H 	0.79230 0.57680 0.20550 0.04300
C 	C 	0.87330 0.73340 0.17410 -0.05100
H 	H 	0.93300 0.75020 0.16870 0.05600
H 	H 	0.87250 0.71680 0.24000 0.04900
C 	C 	0.81460 0.81920 0.14660 -0.11900
H 	H 	0.75370 0.80010 0.14170 0.08200
H 	H 	0.82660 0.86640 0.19620 0.07700
C 	C 	0.67180 0.64060 0.94360 -0.03500
H 	H 	0.68500 0.68780 0.99310 0.06300
H 	H 	0.61050 0.62360 0.93880 0.05000
C 	C 	0.92240 0.58760 0.11370 0.01700
H 	H 	0.95200 0.57860 0.17880 0.03100
H 	H 	0.90100 0.52690 0.08900 0.03800
C 	C 	0.98780 0.62320 0.05580 -0.20900
H 	H 	0.03960 0.58370 0.06710 0.07100
H 	H 	0.00550 0.68620 0.07740 0.06800
C 	C 	0.95300 0.62550 0.94890 0.42100
O 	O 	0.45940 0.35910 0.85820 -0.45900
H 	H 	0.52560 0.36080 0.88400 0.16200
H 	H 	0.43220 0.34470 0.80310 0.15100
O 	O 	0.12946 0.81181 0.82349 -0.46200
O 	O 	0.25079 0.72824 0.86431 -0.33500
O 	O 	0.49836 0.17130 0.90214 -0.47400
O 	O 	0.38622 0.08300 0.91335 -0.33800
N 	N 	0.22903 0.05350 0.97270 -0.09600
N 	N 	0.34681 0.15152 0.11335 -0.11600
C 	C 	0.20780 0.80150 0.86480 0.47200
C 	C 	0.25240 0.88560 0.91800 -0.45200
H 	H 	0.30510 0.90120 0.89270 0.17400
H 	H 	0.26970 0.86960 0.98470 0.18200
C 	C 	0.19300 0.97090 0.90930 0.12100
H 	H 	0.13710 0.95210 0.92570 0.00100
H 	H 	0.18220 0.99150 0.84340 0.00200
C 	C 	0.23230 0.02780 0.07640 -0.08000
H 	H 	0.17320 0.01520 0.08730 0.06400
H 	H 	0.26630 0.97060 0.09010 0.05900
C 	C 	0.27260 0.10430 0.14320 -0.04000
H 	H 	0.22760 0.15020 0.14960 0.05100
H 	H 	0.29230 0.07680 0.20550 0.03900
C 	C 	0.37330 0.23340 0.17410 -0.03000
H 	H 	0.43300 0.25020 0.16870 0.03400
H 	H 	0.37250 0.21680 0.24000 0.03900
C 	C 	0.31460 0.31920 0.14660 -0.13900
H 	H 	0.25370 0.30010 0.14170 0.08900
H 	H 	0.32660 0.36640 0.19620 0.08000
C 	C 	0.17180 0.14060 0.94360 -0.02500
H 	H 	0.18500 0.18780 0.99310 0.05900
H 	H 	0.11050 0.12360 0.93880 0.04000
C 	C 	0.42240 0.08760 0.11370 0.15400
H 	H 	0.45200 0.07860 0.17880 -0.02800
H 	H 	0.40100 0.02690 0.08900 -0.00900
C 	C 	0.48780 0.12320 0.05580 -0.47900
H 	H 	0.53960 0.08370 0.06710 0.17700
H 	H 	0.50550 0.18620 0.07740 0.17900
C 	C 	0.45300 0.12550 0.94890 0.50500
O 	O 	0.95940 0.85910 0.85820 -0.41500
H 	H 	0.02560 0.86080 0.88400 0.13200
H 	H 	0.93220 0.84470 0.80310 0.15000
O 	O 	0.37054 0.31181 0.67651 -0.46400
O 	O 	0.24921 0.22824 0.63569 -0.33800
O 	O 	0.00164 0.67130 0.59786 -0.50800
O 	O 	0.11378 0.58300 0.58665 -0.35600
N 	N 	0.27097 0.55350 0.52730 -0.09500
N 	N 	0.15319 0.65152 0.38665 -0.13400
C 	C 	0.29220 0.30150 0.63520 0.47400
C 	C 	0.24760 0.38560 0.58200 -0.45200
H 	H 	0.19490 0.40120 0.60730 0.17600
H 	H 	0.23030 0.36960 0.51530 0.18100
C 	C 	0.30700 0.47090 0.59070 0.11900
H 	H 	0.36290 0.45210 0.57430 0.00400
H 	H 	0.31780 0.49150 0.65660 0.00500
C 	C 	0.26770 0.52780 0.42360 -0.08200
H 	H 	0.32680 0.51520 0.41270 0.06800
H 	H 	0.23370 0.47060 0.40990 0.06200
C 	C 	0.22740 0.60430 0.35680 -0.03300
H 	H 	0.27240 0.65020 0.35040 0.04900
H 	H 	0.20770 0.57680 0.29450 0.03700
C 	C 	0.12670 0.73340 0.32590 -0.01200
H 	H 	0.06700 0.75020 0.33130 0.01400
H 	H 	0.12750 0.71680 0.26000 0.03100
C 	C 	0.18540 0.81920 0.35340 -0.15400
H 	H 	0.24630 0.80010 0.35830 0.09300
H 	H 	0.17340 0.86640 0.30380 0.08200
C 	C 	0.32820 0.64060 0.55640 -0.03400
H 	H 	0.31500 0.68780 0.50690 0.06200
H 	H 	0.38950 0.62360 0.56120 0.04900
C 	C 	0.07760 0.58760 0.38630 0.28000
H 	H 	0.04800 0.57860 0.32120 -0.08100
H 	H 	0.09900 0.52690 0.41100 -0.04900
C 	C 	0.01220 0.62320 0.44420 -0.72700
H 	H 	0.96040 0.58370 0.43290 0.27700
H 	H 	0.99450 0.68620 0.42260 0.28600
C 	C 	0.04700 0.62550 0.55110 0.57000
O 	O 	0.54060 0.35910 0.64180 -0.45900
H 	H 	0.47440 0.36080 0.61600 0.16200
H 	H 	0.56780 0.34470 0.69690 0.15100
O 	O 	0.87054 0.81181 0.67651 -0.44500
O 	O 	0.74921 0.72824 0.63569 -0.33100
O 	O 	0.50164 0.17130 0.59786 -0.47400
O 	O 	0.61378 0.08300 0.58665 -0.33700
N 	N 	0.77097 0.05350 0.52730 -0.09300
N 	N 	0.65319 0.15152 0.38665 -0.11500
C 	C 	0.79220 0.80150 0.63520 0.46700
C 	C 	0.74760 0.88560 0.58200 -0.44300
H 	H 	0.69490 0.90120 0.60730 0.17100
H 	H 	0.73030 0.86960 0.51530 0.17900
C 	C 	0.80700 0.97090 0.59070 0.11100
H 	H 	0.86290 0.95210 0.57430 0.01000
H 	H 	0.81780 0.99150 0.65660 0.00900
C 	C 	0.76770 0.02780 0.42360 -0.08200
H 	H 	0.82680 0.01520 0.41270 0.07200
H 	H 	0.73370 0.97060 0.40990 0.06200
C 	C 	0.72740 0.10430 0.35680 -0.03900
H 	H 	0.77240 0.15020 0.35040 0.05200
H 	H 	0.70770 0.07680 0.29450 0.03900
C 	C 	0.62670 0.23340 0.32590 -0.03000
H 	H 	0.56700 0.25020 0.33130 0.03400
H 	H 	0.62750 0.21680 0.26000 0.03900
C 	C 	0.68540 0.31920 0.35340 -0.13900
H 	H 	0.74630 0.30010 0.35830 0.09000
H 	H 	0.67340 0.36640 0.30380 0.08000
C 	C 	0.82820 0.14060 0.55640 -0.04800
H 	H 	0.81500 0.18780 0.50690 0.06800
H 	H 	0.88950 0.12360 0.56120 0.06100
C 	C 	0.57760 0.08760 0.38630 0.15200
H 	H 	0.54800 0.07860 0.32120 -0.02700
H 	H 	0.59900 0.02690 0.41100 -0.00700
C 	C 	0.51220 0.12320 0.44420 -0.47300
H 	H 	0.46040 0.08370 0.43290 0.17600
H 	H 	0.49450 0.18620 0.42260 0.17800
C 	C 	0.54700 0.12550 0.55110 0.50100
O 	O 	0.04060 0.85910 0.64180 -0.50600
H 	H 	0.97440 0.86080 0.61600 0.20000
H 	H 	0.06780 0.84470 0.69690 0.17000
O 	O 	0.37054 0.68819 0.17651 -0.46400
O 	O 	0.24921 0.77176 0.13569 -0.33800
O 	O 	0.00164 0.32870 0.09786 -0.50600
O 	O 	0.11378 0.41700 0.08665 -0.35500
N 	N 	0.27097 0.44650 0.02730 -0.09700
N 	N 	0.15319 0.34848 0.88665 -0.13200
C 	C 	0.29220 0.69850 0.13520 0.47400
C 	C 	0.24760 0.61440 0.08200 -0.45200
H 	H 	0.19490 0.59880 0.10730 0.17500
H 	H 	0.23030 0.63040 0.01530 0.17900
C 	C 	0.30700 0.52910 0.09070 0.11900
H 	H 	0.36290 0.54790 0.07430 0.00300
H 	H 	0.31780 0.50850 0.15660 0.00500
C 	C 	0.26770 0.47220 0.92360 -0.07800
H 	H 	0.32680 0.48480 0.91270 0.06800
H 	H 	0.23370 0.52940 0.90990 0.06100
C 	C 	0.22740 0.39570 0.85680 -0.03400
H 	H 	0.27240 0.34980 0.85040 0.05000
H 	H 	0.20770 0.42320 0.79450 0.03700
C 	C 	0.12670 0.26660 0.82590 -0.01400
H 	H 	0.06700 0.24980 0.83130 0.01500
H 	H 	0.12750 0.28320 0.76000 0.03100
C 	C 	0.18540 0.18080 0.85340 -0.15200
H 	H 	0.24630 0.19990 0.85830 0.09300
H 	H 	0.17340 0.13360 0.80380 0.08200
C 	C 	0.32820 0.35940 0.05640 -0.03300
H 	H 	0.31500 0.31220 0.00690 0.06000
H 	H 	0.38950 0.37640 0.06120 0.04800
C 	C 	0.07760 0.41240 0.88630 0.27000
H 	H 	0.04800 0.42140 0.82120 -0.07800
H 	H 	0.09900 0.47310 0.91100 -0.04500
C 	C 	0.01220 0.37680 0.94420 -0.70800
H 	H 	0.96040 0.41630 0.93290 0.27100
H 	H 	0.99450 0.31380 0.92260 0.27900
C 	C 	0.04700 0.37450 0.05110 0.56100
O 	O 	0.54060 0.64090 0.14180 -0.46000
H 	H 	0.47440 0.63920 0.11600 0.16200
H 	H 	0.56780 0.65530 0.19690 0.15100
O 	O 	0.87054 0.18819 0.17651 -0.44400
O 	O 	0.74921 0.27176 0.13569 -0.33100
O 	O 	0.50164 0.82870 0.09786 -0.47400
O 	O 	0.61378 0.91700 0.08665 -0.33700
N 	N 	0.77097 0.94650 0.02730 -0.09400
N 	N 	0.65319 0.84848 0.88665 -0.11500
C 	C 	0.79220 0.19850 0.13520 0.46600
C 	C 	0.74760 0.11440 0.08200 -0.44200
H 	H 	0.69490 0.09880 0.10730 0.17000
H 	H 	0.73030 0.13040 0.01530 0.17800
C 	C 	0.80700 0.02910 0.09070 0.11000
H 	H 	0.86290 0.04790 0.07430 0.01000
H 	H 	0.81780 0.00850 0.15660 0.01000
C 	C 	0.76770 0.97220 0.92360 -0.08000
H 	H 	0.82680 0.98480 0.91270 0.07200
H 	H 	0.73370 0.02940 0.90990 0.06200
C 	C 	0.72740 0.89570 0.85680 -0.03900
H 	H 	0.77240 0.84980 0.85040 0.05200
H 	H 	0.70770 0.92320 0.79450 0.04000
C 	C 	0.62670 0.76660 0.82590 -0.03000
H 	H 	0.56700 0.74980 0.83130 0.03500
H 	H 	0.62750 0.78320 0.76000 0.03900
C 	C 	0.68540 0.68080 0.85340 -0.13800
H 	H 	0.74630 0.69990 0.85830 0.08900
H 	H 	0.67340 0.63360 0.80380 0.08000
C 	C 	0.82820 0.85940 0.05640 -0.04800
H 	H 	0.81500 0.81220 0.00690 0.06600
H 	H 	0.88950 0.87640 0.06120 0.06000
C 	C 	0.57760 0.91240 0.88630 0.15000
H 	H 	0.54800 0.92140 0.82120 -0.02700
H 	H 	0.59900 0.97310 0.91100 -0.00600
C 	C 	0.51220 0.87680 0.94420 -0.46900
H 	H 	0.46040 0.91630 0.93290 0.17500
H 	H 	0.49450 0.81380 0.92260 0.17700
C 	C 	0.54700 0.87450 0.05110 0.49700
O 	O 	0.04060 0.14090 0.14180 -0.50800
H 	H 	0.97440 0.13920 0.11600 0.20100
H 	H 	0.06780 0.15530 0.19690 0.17100
O 	O 	0.62946 0.68819 0.32349 -0.46400
O 	O 	0.75079 0.77176 0.36431 -0.33500
O 	O 	0.99836 0.32870 0.40214 -0.41200
O 	O 	0.88622 0.41700 0.41335 -0.31000
N 	N 	0.72903 0.44650 0.47270 -0.09700
N 	N 	0.84681 0.34848 0.61335 -0.09500
C 	C 	0.70780 0.69850 0.36480 0.47300
C 	C 	0.75240 0.61440 0.41800 -0.44900
H 	H 	0.80510 0.59880 0.39270 0.17100
H 	H 	0.76970 0.63040 0.48470 0.18200
C 	C 	0.69300 0.52910 0.40930 0.11600
H 	H 	0.63710 0.54790 0.42570 0.00500
H 	H 	0.68220 0.50850 0.34340 0.00500
C 	C 	0.73230 0.47220 0.57640 -0.07700
H 	H 	0.67320 0.48480 0.58730 0.06700
H 	H 	0.76630 0.52940 0.59010 0.06100
C 	C 	0.77260 0.39570 0.64320 -0.04700
H 	H 	0.72760 0.34980 0.64960 0.05300
H 	H 	0.79230 0.42320 0.70550 0.04300
C 	C 	0.87330 0.26660 0.67410 -0.05000
H 	H 	0.93300 0.24980 0.66870 0.05600
H 	H 	0.87250 0.28320 0.74000 0.04900
C 	C 	0.81460 0.18080 0.64660 -0.11900
H 	H 	0.75370 0.19990 0.64170 0.08300
H 	H 	0.82660 0.13360 0.69620 0.07700
C 	C 	0.67180 0.35940 0.44360 -0.03400
H 	H 	0.68500 0.31220 0.49310 0.06200
H 	H 	0.61050 0.37640 0.43880 0.04900
C 	C 	0.92240 0.41240 0.61370 0.01800
H 	H 	0.95200 0.42140 0.67880 0.03000
H 	H 	0.90100 0.47310 0.58900 0.03800
C 	C 	0.98780 0.37680 0.55580 -0.21100
H 	H 	0.03960 0.41630 0.56710 0.07300
H 	H 	0.00550 0.31380 0.57740 0.07000
C 	C 	0.95300 0.37450 0.44890 0.42100
O 	O 	0.45940 0.64090 0.35820 -0.46000
H 	H 	0.52560 0.63920 0.38400 0.16200
H 	H 	0.43220 0.65530 0.30310 0.15100
O 	O 	0.12946 0.18819 0.32349 -0.46200
O 	O 	0.25079 0.27176 0.36431 -0.33600
O 	O 	0.49836 0.82870 0.40214 -0.47400
O 	O 	0.38622 0.91700 0.41335 -0.33700
N 	N 	0.22903 0.94650 0.47270 -0.09800
N 	N 	0.34681 0.84848 0.61335 -0.11500
C 	C 	0.20780 0.19850 0.36480 0.47100
C 	C 	0.25240 0.11440 0.41800 -0.45100
H 	H 	0.30510 0.09880 0.39270 0.17300
H 	H 	0.26970 0.13040 0.48470 0.18100
C 	C 	0.19300 0.02910 0.40930 0.12000
H 	H 	0.13710 0.04790 0.42570 -0.00000
H 	H 	0.18220 0.00850 0.34340 0.00200
C 	C 	0.23230 0.97220 0.57640 -0.07700
H 	H 	0.17320 0.98480 0.58730 0.06400
H 	H 	0.26630 0.02940 0.59010 0.05900
C 	C 	0.27260 0.89570 0.64320 -0.04200
H 	H 	0.22760 0.84980 0.64960 0.05200
H 	H 	0.29230 0.92320 0.70550 0.04000
C 	C 	0.37330 0.76660 0.67410 -0.03000
H 	H 	0.43300 0.74980 0.66870 0.03500
H 	H 	0.37250 0.78320 0.74000 0.03900
C 	C 	0.31460 0.68080 0.64660 -0.13800
H 	H 	0.25370 0.69990 0.64170 0.08900
H 	H 	0.32660 0.63360 0.69620 0.08000
C 	C 	0.17180 0.85940 0.44360 -0.02300
H 	H 	0.18500 0.81220 0.49310 0.05700
H 	H 	0.11050 0.87640 0.43880 0.03800
C 	C 	0.42240 0.91240 0.61370 0.15200
H 	H 	0.45200 0.92140 0.67880 -0.02700
H 	H 	0.40100 0.97310 0.58900 -0.00700
C 	C 	0.48780 0.87680 0.55580 -0.47300
H 	H 	0.53960 0.91630 0.56710 0.17600
H 	H 	0.50550 0.81380 0.57740 0.17800
C 	C 	0.45300 0.87450 0.44890 0.50100
O 	O 	0.95940 0.14090 0.35820 -0.41300
H 	H 	0.02560 0.13920 0.38400 0.13000
H 	H 	0.93220 0.15530 0.30310 0.15000
Gd	Gd	0.50000 0.23608 0.75000 1.43400
Gd	Gd	-0.00000 0.73608 0.75000 1.35000
Gd	Gd	0.50000 0.76392 0.25000 1.43300
Gd	Gd	-0.00000 0.26392 0.25000 1.34600
