data_crystal

_cell_length_a 12.24630
_cell_length_b 15.45770
_cell_length_c 18.84540
_cell_angle_alpha 90.00000
_cell_angle_beta  90.00000
_cell_angle_gamma 90.00000

_symmetry_space_group_name_	'P 1'
_symmetry_space_group_name_H-M	'P 1'

loop_
_symmetry_equiv_pos_as_xyz
  x,y,z

loop_
_atom_site_label
_atom_site_type_symbol
_atom_site_fract_x
_atom_site_fract_y
_atom_site_fract_z
_atom_site_charge
Cd	Cd	0.19250 0.21535 0.31604 1.20300
O 	O 	0.34830 0.16968 0.38357 -0.36400
O 	O 	0.31260 0.31011 0.38237 -0.37300
C 	C 	0.36490 0.24590 0.40454 0.27400
C 	C 	0.44900 0.25980 0.46186 -0.01900
C 	C 	0.44200 0.33120 0.50520 -0.07700
H 	H 	0.38920 0.37490 0.49630 0.06600
C 	C 	0.51310 0.33820 0.56200 0.04100
H 	H 	0.50650 0.38690 0.59250 0.01000
N 	N 	0.59090 0.27966 0.57617 -0.21100
C 	C 	0.60070 0.21330 0.53120 0.03800
H 	H 	0.65750 0.17250 0.53900 0.01400
C 	C 	0.53170 0.20120 0.47370 -0.07200
H 	H 	0.54130 0.15310 0.44290 0.06500
N 	N 	0.11440 0.34607 0.27772 -0.22500
C 	C 	0.13870 0.42220 0.30871 0.03900
H 	H 	0.19600 0.42350 0.34270 0.02500
C 	C 	0.08450 0.49890 0.29353 -0.07400
H 	H 	0.10430 0.55130 0.31650 0.07500
C 	C 	0.00030 0.49710 0.24396 -0.01900
C 	C 	0.97570 0.41900 0.21064 -0.08100
H 	H 	0.91960 0.41600 0.17590 0.08100
C 	C 	0.03470 0.34550 0.22920 0.03800
H 	H 	0.01760 0.29240 0.20630 0.00700
C 	C 	0.93590 0.57750 0.22578 0.27800
O 	O 	0.97457 0.65022 0.24190 -0.36700
O 	O 	0.84706 0.56808 0.19393 -0.38100
Cd	Cd	0.30750 0.78465 0.81604 1.20400
O 	O 	0.15170 0.83032 0.88357 -0.36300
O 	O 	0.18740 0.68989 0.88237 -0.37300
C 	C 	0.13510 0.75410 0.90454 0.27500
C 	C 	0.05100 0.74020 0.96186 -0.02000
C 	C 	0.05800 0.66880 0.00520 -0.07300
H 	H 	0.11080 0.62510 0.99630 0.06600
C 	C 	0.98690 0.66180 0.06200 0.04000
H 	H 	0.99350 0.61310 0.09250 0.01100
N 	N 	0.90910 0.72034 0.07617 -0.21000
C 	C 	0.89930 0.78670 0.03120 0.03800
H 	H 	0.84250 0.82750 0.03900 0.01500
C 	C 	0.96830 0.79880 0.97370 -0.07000
H 	H 	0.95870 0.84690 0.94290 0.06400
N 	N 	0.38560 0.65393 0.77772 -0.22400
C 	C 	0.36130 0.57780 0.80871 0.03900
H 	H 	0.30400 0.57650 0.84270 0.02500
C 	C 	0.41550 0.50110 0.79353 -0.07400
H 	H 	0.39570 0.44870 0.81650 0.07400
C 	C 	0.49970 0.50290 0.74396 -0.02000
C 	C 	0.52430 0.58100 0.71064 -0.08000
H 	H 	0.58040 0.58400 0.67590 0.08000
C 	C 	0.46530 0.65450 0.72920 0.03700
H 	H 	0.48240 0.70760 0.70630 0.00700
C 	C 	0.56410 0.42250 0.72578 0.27900
O 	O 	0.52543 0.34978 0.74190 -0.36700
O 	O 	0.65294 0.43192 0.69393 -0.38100
Cd	Cd	0.80750 0.71535 0.18396 1.20400
O 	O 	0.65170 0.66968 0.11643 -0.36300
O 	O 	0.68740 0.81011 0.11763 -0.37200
C 	C 	0.63510 0.74590 0.09546 0.27500
C 	C 	0.55100 0.75980 0.03814 -0.01800
C 	C 	0.55800 0.83120 0.99480 -0.07600
H 	H 	0.61080 0.87490 0.00370 0.06700
C 	C 	0.48690 0.83820 0.93800 0.04200
H 	H 	0.49350 0.88690 0.90750 0.01100
N 	N 	0.40910 0.77966 0.92383 -0.21000
C 	C 	0.39930 0.71330 0.96880 0.03900
H 	H 	0.34250 0.67250 0.96100 0.01500
C 	C 	0.46830 0.70120 0.02630 -0.07200
H 	H 	0.45870 0.65310 0.05710 0.06500
N 	N 	0.88560 0.84607 0.22228 -0.22400
C 	C 	0.86130 0.92220 0.19129 0.03800
H 	H 	0.80400 0.92350 0.15730 0.02500
C 	C 	0.91550 0.99890 0.20647 -0.07300
H 	H 	0.89570 0.05130 0.18350 0.07400
C 	C 	0.99970 0.99710 0.25604 -0.02000
C 	C 	0.02430 0.91900 0.28936 -0.08000
H 	H 	0.08040 0.91600 0.32410 0.08000
C 	C 	0.96530 0.84550 0.27080 0.03700
H 	H 	0.98240 0.79240 0.29370 0.00700
C 	C 	0.06410 0.07750 0.27422 0.27900
O 	O 	0.02543 0.15022 0.25810 -0.36700
O 	O 	0.15294 0.06808 0.30607 -0.38100
Cd	Cd	0.69250 0.28465 0.68396 1.20400
O 	O 	0.84830 0.33032 0.61643 -0.36300
O 	O 	0.81260 0.18989 0.61763 -0.37200
C 	C 	0.86490 0.25410 0.59546 0.27500
C 	C 	0.94900 0.24020 0.53814 -0.01800
C 	C 	0.94200 0.16880 0.49480 -0.07600
H 	H 	0.88920 0.12510 0.50370 0.06700
C 	C 	0.01310 0.16180 0.43800 0.04200
H 	H 	0.00650 0.11310 0.40750 0.01000
N 	N 	0.09090 0.22034 0.42383 -0.21000
C 	C 	0.10070 0.28670 0.46880 0.03900
H 	H 	0.15750 0.32750 0.46100 0.01500
C 	C 	0.03170 0.29880 0.52630 -0.07200
H 	H 	0.04130 0.34690 0.55710 0.06500
N 	N 	0.61440 0.15393 0.72228 -0.22400
C 	C 	0.63870 0.07780 0.69129 0.03900
H 	H 	0.69600 0.07650 0.65730 0.02500
C 	C 	0.58450 0.00110 0.70647 -0.07400
H 	H 	0.60430 0.94870 0.68350 0.07500
C 	C 	0.50030 0.00290 0.75604 -0.02000
C 	C 	0.47570 0.08100 0.78936 -0.08000
H 	H 	0.41960 0.08400 0.82410 0.08000
C 	C 	0.53470 0.15450 0.77080 0.03700
H 	H 	0.51760 0.20760 0.79370 0.00700
C 	C 	0.43590 0.92250 0.77422 0.27900
O 	O 	0.47457 0.84978 0.75810 -0.36700
O 	O 	0.34706 0.93192 0.80607 -0.38100
Cd	Cd	0.80750 0.78465 0.68396 1.20400
O 	O 	0.65170 0.83032 0.61643 -0.36300
O 	O 	0.68740 0.68989 0.61763 -0.37200
C 	C 	0.63510 0.75410 0.59546 0.27500
C 	C 	0.55100 0.74020 0.53814 -0.01800
C 	C 	0.55800 0.66880 0.49480 -0.07600
H 	H 	0.61080 0.62510 0.50370 0.06700
C 	C 	0.48690 0.66180 0.43800 0.04200
H 	H 	0.49350 0.61310 0.40750 0.01100
N 	N 	0.40910 0.72034 0.42383 -0.21000
C 	C 	0.39930 0.78670 0.46880 0.03900
H 	H 	0.34250 0.82750 0.46100 0.01500
C 	C 	0.46830 0.79880 0.52630 -0.07200
H 	H 	0.45870 0.84690 0.55710 0.06500
N 	N 	0.88560 0.65393 0.72228 -0.22500
C 	C 	0.86130 0.57780 0.69129 0.03900
H 	H 	0.80400 0.57650 0.65730 0.02500
C 	C 	0.91550 0.50110 0.70647 -0.07400
H 	H 	0.89570 0.44870 0.68350 0.07500
C 	C 	0.99970 0.50290 0.75604 -0.01900
C 	C 	0.02430 0.58100 0.78936 -0.08100
H 	H 	0.08040 0.58400 0.82410 0.08100
C 	C 	0.96530 0.65450 0.77080 0.03800
H 	H 	0.98240 0.70760 0.79370 0.00700
C 	C 	0.06410 0.42250 0.77422 0.27800
O 	O 	0.02543 0.34978 0.75810 -0.36700
O 	O 	0.15294 0.43192 0.80607 -0.38100
Cd	Cd	0.69250 0.21535 0.18396 1.20400
O 	O 	0.84830 0.16968 0.11643 -0.36300
O 	O 	0.81260 0.31011 0.11763 -0.37300
C 	C 	0.86490 0.24590 0.09546 0.27500
C 	C 	0.94900 0.25980 0.03814 -0.02000
C 	C 	0.94200 0.33120 0.99480 -0.07300
H 	H 	0.88920 0.37490 0.00370 0.06600
C 	C 	0.01310 0.33820 0.93800 0.04000
H 	H 	0.00650 0.38690 0.90750 0.01100
N 	N 	0.09090 0.27966 0.92383 -0.21000
C 	C 	0.10070 0.21330 0.96880 0.03800
H 	H 	0.15750 0.17250 0.96100 0.01500
C 	C 	0.03170 0.20120 0.02630 -0.07000
H 	H 	0.04130 0.15310 0.05710 0.06400
N 	N 	0.61440 0.34607 0.22228 -0.22400
C 	C 	0.63870 0.42220 0.19129 0.03900
H 	H 	0.69600 0.42350 0.15730 0.02500
C 	C 	0.58450 0.49890 0.20647 -0.07400
H 	H 	0.60430 0.55130 0.18350 0.07400
C 	C 	0.50030 0.49710 0.25604 -0.02000
C 	C 	0.47570 0.41900 0.28936 -0.08000
H 	H 	0.41960 0.41600 0.32410 0.08000
C 	C 	0.53470 0.34550 0.27080 0.03700
H 	H 	0.51760 0.29240 0.29370 0.00700
C 	C 	0.43590 0.57750 0.27422 0.27900
O 	O 	0.47457 0.65022 0.25810 -0.36700
O 	O 	0.34706 0.56808 0.30607 -0.38100
Cd	Cd	0.19250 0.28465 0.81604 1.20400
O 	O 	0.34830 0.33032 0.88357 -0.36300
O 	O 	0.31260 0.18989 0.88237 -0.37200
C 	C 	0.36490 0.25410 0.90454 0.27500
C 	C 	0.44900 0.24020 0.96186 -0.01800
C 	C 	0.44200 0.16880 0.00520 -0.07600
H 	H 	0.38920 0.12510 0.99630 0.06700
C 	C 	0.51310 0.16180 0.06200 0.04200
H 	H 	0.50650 0.11310 0.09250 0.01100
N 	N 	0.59090 0.22034 0.07617 -0.21000
C 	C 	0.60070 0.28670 0.03120 0.03900
H 	H 	0.65750 0.32750 0.03900 0.01500
C 	C 	0.53170 0.29880 0.97370 -0.07200
H 	H 	0.54130 0.34690 0.94290 0.06500
N 	N 	0.11440 0.15393 0.77772 -0.22400
C 	C 	0.13870 0.07780 0.80871 0.03800
H 	H 	0.19600 0.07650 0.84270 0.02500
C 	C 	0.08450 0.00110 0.79353 -0.07300
H 	H 	0.10430 0.94870 0.81650 0.07400
C 	C 	0.00030 0.00290 0.74396 -0.02000
C 	C 	0.97570 0.08100 0.71064 -0.08000
H 	H 	0.91960 0.08400 0.67590 0.08000
C 	C 	0.03470 0.15450 0.72920 0.03700
H 	H 	0.01760 0.20760 0.70630 0.00700
C 	C 	0.93590 0.92250 0.72578 0.27900
O 	O 	0.97457 0.84978 0.74190 -0.36700
O 	O 	0.84706 0.93192 0.69393 -0.38100
Cd	Cd	0.30750 0.71535 0.31604 1.20400
O 	O 	0.15170 0.66968 0.38357 -0.36300
O 	O 	0.18740 0.81011 0.38237 -0.37200
C 	C 	0.13510 0.74590 0.40454 0.27500
C 	C 	0.05100 0.75980 0.46186 -0.01800
C 	C 	0.05800 0.83120 0.50520 -0.07600
H 	H 	0.11080 0.87490 0.49630 0.06700
C 	C 	0.98690 0.83820 0.56200 0.04200
H 	H 	0.99350 0.88690 0.59250 0.01000
N 	N 	0.90910 0.77966 0.57617 -0.21000
C 	C 	0.89930 0.71330 0.53120 0.03900
H 	H 	0.84250 0.67250 0.53900 0.01500
C 	C 	0.96830 0.70120 0.47370 -0.07200
H 	H 	0.95870 0.65310 0.44290 0.06500
N 	N 	0.38560 0.84607 0.27772 -0.22400
C 	C 	0.36130 0.92220 0.30871 0.03900
H 	H 	0.30400 0.92350 0.34270 0.02500
C 	C 	0.41550 0.99890 0.29353 -0.07400
H 	H 	0.39570 0.05130 0.31650 0.07500
C 	C 	0.49970 0.99710 0.24396 -0.02000
C 	C 	0.52430 0.91900 0.21064 -0.08000
H 	H 	0.58040 0.91600 0.17590 0.08000
C 	C 	0.46530 0.84550 0.22920 0.03700
H 	H 	0.48240 0.79240 0.20630 0.00700
C 	C 	0.56410 0.07750 0.22578 0.27900
O 	O 	0.52543 0.15022 0.24190 -0.36700
O 	O 	0.65294 0.06808 0.19393 -0.38100
