data_crystal

_cell_length_a 12.65600
_cell_length_b 9.24080
_cell_length_c 25.54400
_cell_angle_alpha 90.00000
_cell_angle_beta  96.15800
_cell_angle_gamma 90.00000

_symmetry_space_group_name_	'P 1'
_symmetry_space_group_name_H-M	'P 1'

loop_
_symmetry_equiv_pos_as_xyz
  x,y,z

loop_
_atom_site_label
_atom_site_type_symbol
_atom_site_fract_x
_atom_site_fract_y
_atom_site_fract_z
_atom_site_charge
C 	C 	0.88150 0.06130 0.41720 0.38700
C 	C 	0.81730 0.08960 0.36640 -0.19400
C 	C 	0.73680 0.99830 0.34710 0.13700
H 	H 	0.72170 0.91750 0.36670 -0.00300
C 	C 	0.84040 0.20660 0.33570 0.13900
H 	H 	0.89570 0.26850 0.34760 -0.00900
C 	C 	0.67840 0.02360 0.29990 -0.23800
H 	H 	0.62340 0.96110 0.28800 0.11600
C 	C 	0.78330 0.23230 0.28840 -0.24100
H 	H 	0.80000 0.31180 0.26860 0.11800
C 	C 	0.70080 0.14190 0.26950 0.20400
C 	C 	0.32410 0.07400 0.18390 -0.22800
H 	H 	0.25260 0.05120 0.17560 0.11000
C 	C 	0.35980 0.12730 0.23350 0.14500
H 	H 	0.31240 0.14460 0.25820 -0.02100
C 	C 	0.39340 0.05500 0.14780 0.16800
H 	H 	0.36960 0.02030 0.11440 -0.02600
C 	C 	0.46910 0.15460 0.24570 -0.26100
H 	H 	0.49470 0.18610 0.27920 0.12400
C 	C 	0.49940 0.08700 0.16050 -0.27200
H 	H 	0.54620 0.07500 0.13520 0.13100
C 	C 	0.53720 0.13540 0.20890 0.23200
C 	C 	0.70210 0.22280 0.17920 0.20000
C 	C 	0.79350 0.15720 0.16740 -0.24000
H 	H 	0.81790 0.07530 0.18610 0.11900
C 	C 	0.66560 0.34650 0.15170 -0.23500
H 	H 	0.60400 0.39290 0.15960 0.11600
C 	C 	0.72140 0.39820 0.11320 0.14100
H 	H 	0.69740 0.48070 0.09470 -0.00100
C 	C 	0.84970 0.21010 0.12850 0.14300
H 	H 	0.91190 0.16450 0.12110 -0.00300
C 	C 	0.81380 0.33040 0.10080 -0.18800
C 	C 	0.87760 0.39240 0.06070 0.39500
C 	C 	0.11770 0.07060 0.03240 0.14600
H 	H 	0.05710 0.08690 0.04920 -0.00900
C 	C 	0.16920 0.94970 0.04490 -0.24800
H 	H 	0.15060 0.88820 0.07130 0.12800
C 	C 	0.22130 0.15270 0.97300 0.10300
H 	H 	0.24070 0.22190 0.94940 0.00500
C 	C 	0.28490 0.01250 0.98160 -0.18700
H 	H 	0.34340 0.99080 0.96390 0.11400
C 	C 	0.24800 0.92240 0.01770 0.17000
C 	C 	0.31000 0.77210 0.02850 -0.05200
H 	H 	0.33290 0.76350 0.06590 0.05300
H 	H 	0.26200 0.69260 0.01860 0.06000
C 	C 	0.44370 0.62700 0.00270 0.15100
C 	C 	0.41240 0.50550 0.02660 -0.10300
H 	H 	0.35290 0.50820 0.04500 0.07900
C 	C 	0.53140 0.62260 0.97620 -0.08900
H 	H 	0.55370 0.70560 0.95990 0.07600
N 	N 	0.64540 0.16900 0.22020 -0.21400
N 	N 	0.14190 0.17380 0.99840 -0.21000
O 	O 	0.86200 0.94480 0.44076 -0.41000
O 	O 	0.95100 0.15180 0.43372 -0.41500
O 	O 	0.85850 0.52190 0.04715 -0.41100
O 	O 	0.94560 0.31350 0.04331 -0.41800
O 	O 	0.39420 0.76230 0.00180 -0.20600
Cu	Cu	0.05155 0.37445 0.99695 0.92200
C 	C 	0.11850 0.56130 0.08280 0.38600
C 	C 	0.18270 0.58960 0.13360 -0.20200
C 	C 	0.26320 0.49830 0.15290 0.14800
H 	H 	0.27830 0.41750 0.13330 -0.00600
C 	C 	0.15960 0.70660 0.16430 0.14500
H 	H 	0.10430 0.76850 0.15240 -0.01000
C 	C 	0.32160 0.52360 0.20010 -0.24800
H 	H 	0.37660 0.46110 0.21200 0.12100
C 	C 	0.21670 0.73230 0.21160 -0.24700
H 	H 	0.20000 0.81180 0.23140 0.12000
C 	C 	0.29920 0.64190 0.23050 0.20900
C 	C 	0.67590 0.57400 0.31610 -0.22800
H 	H 	0.74740 0.55120 0.32440 0.11100
C 	C 	0.64020 0.62730 0.26650 0.14500
H 	H 	0.68760 0.64460 0.24180 -0.02100
C 	C 	0.60660 0.55500 0.35220 0.16800
H 	H 	0.63040 0.52030 0.38560 -0.02600
C 	C 	0.53090 0.65460 0.25430 -0.26100
H 	H 	0.50530 0.68610 0.22080 0.12400
C 	C 	0.50060 0.58700 0.33950 -0.27200
H 	H 	0.45380 0.57500 0.36480 0.13100
C 	C 	0.46280 0.63540 0.29110 0.23200
C 	C 	0.29790 0.72280 0.32080 0.20000
C 	C 	0.20650 0.65720 0.33260 -0.24000
H 	H 	0.18210 0.57530 0.31390 0.11900
C 	C 	0.33440 0.84650 0.34830 -0.23500
H 	H 	0.39600 0.89290 0.34040 0.11600
C 	C 	0.27860 0.89820 0.38680 0.14200
H 	H 	0.30260 0.98070 0.40530 -0.00100
C 	C 	0.15030 0.71010 0.37150 0.14300
H 	H 	0.08810 0.66450 0.37890 -0.00400
C 	C 	0.18620 0.83040 0.39920 -0.18900
C 	C 	0.12240 0.89240 0.43930 0.39700
C 	C 	0.88230 0.57060 0.46760 0.14700
H 	H 	0.94290 0.58690 0.45080 -0.00900
C 	C 	0.83080 0.44970 0.45510 -0.24900
H 	H 	0.84940 0.38820 0.42870 0.12800
C 	C 	0.77870 0.65270 0.52700 0.10200
H 	H 	0.75930 0.72190 0.55060 0.00600
C 	C 	0.71510 0.51250 0.51840 -0.18300
H 	H 	0.65660 0.49080 0.53610 0.11300
C 	C 	0.75200 0.42240 0.48230 0.16700
C 	C 	0.69000 0.27210 0.47150 -0.05100
H 	H 	0.66710 0.26350 0.43410 0.05200
H 	H 	0.73800 0.19260 0.48140 0.05900
C 	C 	0.55630 0.12700 0.49730 0.15100
C 	C 	0.58760 0.00550 0.47340 -0.10300
H 	H 	0.64710 0.00820 0.45500 0.07900
C 	C 	0.46860 0.12260 0.52380 -0.09000
H 	H 	0.44630 0.20560 0.54010 0.07600
N 	N 	0.35460 0.66900 0.27980 -0.21500
N 	N 	0.85810 0.67380 0.50160 -0.20900
O 	O 	0.13800 0.44480 0.05924 -0.40800
O 	O 	0.04900 0.65180 0.06628 -0.41500
O 	O 	0.14150 0.02190 0.45285 -0.41200
O 	O 	0.05440 0.81350 0.45669 -0.41700
O 	O 	0.60580 0.26230 0.49820 -0.20700
Cu	Cu	0.94845 0.87445 0.50305 0.92200
C 	C 	0.11850 0.93870 0.58280 0.38600
C 	C 	0.18270 0.91040 0.63360 -0.19500
C 	C 	0.26320 0.00170 0.65290 0.13700
H 	H 	0.27830 0.08250 0.63330 -0.00300
C 	C 	0.15960 0.79340 0.66430 0.13900
H 	H 	0.10430 0.73150 0.65240 -0.00900
C 	C 	0.32160 0.97640 0.70010 -0.23800
H 	H 	0.37660 0.03890 0.71200 0.11600
C 	C 	0.21670 0.76770 0.71160 -0.24100
H 	H 	0.20000 0.68820 0.73140 0.11800
C 	C 	0.29920 0.85810 0.73050 0.20400
C 	C 	0.67590 0.92600 0.81610 -0.22800
H 	H 	0.74740 0.94880 0.82440 0.11000
C 	C 	0.64020 0.87270 0.76650 0.14500
H 	H 	0.68760 0.85540 0.74180 -0.02100
C 	C 	0.60660 0.94500 0.85220 0.16800
H 	H 	0.63040 0.97970 0.88560 -0.02600
C 	C 	0.53090 0.84540 0.75430 -0.26100
H 	H 	0.50530 0.81390 0.72080 0.12400
C 	C 	0.50060 0.91300 0.83950 -0.27200
H 	H 	0.45380 0.92500 0.86480 0.13100
C 	C 	0.46280 0.86460 0.79110 0.23200
C 	C 	0.29790 0.77720 0.82080 0.20000
C 	C 	0.20650 0.84280 0.83260 -0.24000
H 	H 	0.18210 0.92470 0.81390 0.11900
C 	C 	0.33440 0.65350 0.84830 -0.23500
H 	H 	0.39600 0.60710 0.84040 0.11600
C 	C 	0.27860 0.60180 0.88680 0.14100
H 	H 	0.30260 0.51930 0.90530 -0.00100
C 	C 	0.15030 0.78990 0.87150 0.14300
H 	H 	0.08810 0.83550 0.87890 -0.00300
C 	C 	0.18620 0.66960 0.89920 -0.18800
C 	C 	0.12240 0.60760 0.93930 0.39500
C 	C 	0.88230 0.92940 0.96760 0.14600
H 	H 	0.94290 0.91310 0.95080 -0.00900
C 	C 	0.83080 0.05030 0.95510 -0.24800
H 	H 	0.84940 0.11180 0.92870 0.12800
C 	C 	0.77870 0.84730 0.02700 0.10300
H 	H 	0.75930 0.77810 0.05060 0.00500
C 	C 	0.71510 0.98750 0.01840 -0.18700
H 	H 	0.65660 0.00920 0.03610 0.11400
C 	C 	0.75200 0.07760 0.98230 0.17000
C 	C 	0.69000 0.22790 0.97150 -0.05200
H 	H 	0.66710 0.23650 0.93410 0.05300
H 	H 	0.73800 0.30740 0.98140 0.06000
C 	C 	0.55630 0.37300 0.99730 0.15100
C 	C 	0.58760 0.49450 0.97340 -0.10300
H 	H 	0.64710 0.49180 0.95500 0.07900
C 	C 	0.46860 0.37740 0.02380 -0.08900
H 	H 	0.44630 0.29440 0.04010 0.07600
N 	N 	0.35460 0.83100 0.77980 -0.21400
N 	N 	0.85810 0.82620 0.00160 -0.21000
O 	O 	0.13800 0.05520 0.55924 -0.41000
O 	O 	0.04900 0.84820 0.56628 -0.41500
O 	O 	0.14150 0.47810 0.95285 -0.41100
O 	O 	0.05440 0.68650 0.95669 -0.41800
O 	O 	0.60580 0.23770 0.99820 -0.20600
Cu	Cu	0.94845 0.62555 0.00305 0.92200
C 	C 	0.88150 0.43870 0.91720 0.38600
C 	C 	0.81730 0.41040 0.86640 -0.20200
C 	C 	0.73680 0.50170 0.84710 0.14800
H 	H 	0.72170 0.58250 0.86670 -0.00600
C 	C 	0.84040 0.29340 0.83570 0.14500
H 	H 	0.89570 0.23150 0.84760 -0.01000
C 	C 	0.67840 0.47640 0.79990 -0.24800
H 	H 	0.62340 0.53890 0.78800 0.12100
C 	C 	0.78330 0.26770 0.78840 -0.24700
H 	H 	0.80000 0.18820 0.76860 0.12000
C 	C 	0.70080 0.35810 0.76950 0.20900
C 	C 	0.32410 0.42600 0.68390 -0.22800
H 	H 	0.25260 0.44880 0.67560 0.11100
C 	C 	0.35980 0.37270 0.73350 0.14500
H 	H 	0.31240 0.35540 0.75820 -0.02100
C 	C 	0.39340 0.44500 0.64780 0.16800
H 	H 	0.36960 0.47970 0.61440 -0.02600
C 	C 	0.46910 0.34540 0.74570 -0.26100
H 	H 	0.49470 0.31390 0.77920 0.12400
C 	C 	0.49940 0.41300 0.66050 -0.27200
H 	H 	0.54620 0.42500 0.63520 0.13100
C 	C 	0.53720 0.36460 0.70890 0.23200
C 	C 	0.70210 0.27720 0.67920 0.20000
C 	C 	0.79350 0.34280 0.66740 -0.24000
H 	H 	0.81790 0.42470 0.68610 0.11900
C 	C 	0.66560 0.15350 0.65170 -0.23500
H 	H 	0.60400 0.10710 0.65960 0.11600
C 	C 	0.72140 0.10180 0.61320 0.14200
H 	H 	0.69740 0.01930 0.59470 -0.00100
C 	C 	0.84970 0.28990 0.62850 0.14300
H 	H 	0.91190 0.33550 0.62110 -0.00400
C 	C 	0.81380 0.16960 0.60080 -0.18900
C 	C 	0.87760 0.10760 0.56070 0.39700
C 	C 	0.11770 0.42940 0.53240 0.14700
H 	H 	0.05710 0.41310 0.54920 -0.00900
C 	C 	0.16920 0.55030 0.54490 -0.24900
H 	H 	0.15060 0.61180 0.57130 0.12800
C 	C 	0.22130 0.34730 0.47300 0.10200
H 	H 	0.24070 0.27810 0.44940 0.00600
C 	C 	0.28490 0.48750 0.48160 -0.18300
H 	H 	0.34340 0.50920 0.46390 0.11300
C 	C 	0.24800 0.57760 0.51770 0.16700
C 	C 	0.31000 0.72790 0.52850 -0.05100
H 	H 	0.33290 0.73650 0.56590 0.05200
H 	H 	0.26200 0.80740 0.51860 0.05900
C 	C 	0.44370 0.87300 0.50270 0.15100
C 	C 	0.41240 0.99450 0.52660 -0.10300
H 	H 	0.35290 0.99180 0.54500 0.07900
C 	C 	0.53140 0.87740 0.47620 -0.09000
H 	H 	0.55370 0.79440 0.45990 0.07600
N 	N 	0.64540 0.33100 0.72020 -0.21500
N 	N 	0.14190 0.32620 0.49840 -0.20900
O 	O 	0.86200 0.55520 0.94076 -0.40800
O 	O 	0.95100 0.34820 0.93372 -0.41500
O 	O 	0.85850 0.97810 0.54715 -0.41200
O 	O 	0.94560 0.18650 0.54331 -0.41700
O 	O 	0.39420 0.73770 0.50180 -0.20700
Cu	Cu	0.05155 0.12555 0.49695 0.92200
