data_crystal

_cell_length_a 13.74950
_cell_length_b 13.74950
_cell_length_c 25.53300
_cell_angle_alpha 90.00000
_cell_angle_beta  90.00000
_cell_angle_gamma 90.00000

_symmetry_space_group_name_	'P 1'
_symmetry_space_group_name_H-M	'P 1'

loop_
_symmetry_equiv_pos_as_xyz
  x,y,z

loop_
_atom_site_label
_atom_site_type_symbol
_atom_site_fract_x
_atom_site_fract_y
_atom_site_fract_z
_atom_site_charge
Ni	Ni	0.09338 0.24906 0.02368 1.08100
Ni	Ni	0.90662 0.75094 0.02368 1.08100
Ni	Ni	0.74906 0.59338 0.47632 1.08100
Ni	Ni	0.25094 0.40662 0.47632 1.08100
H 	H 	0.20030 0.20730 0.94260 0.11800
H 	H 	0.03950 0.25390 0.90020 -0.00700
H 	H 	0.13650 0.12790 0.86380 0.20000
H 	H 	0.02630 0.13160 0.84810 0.19400
H 	H 	0.06220 0.05640 0.89000 0.20100
H 	H 	0.92160 0.36550 0.05410 -0.03200
H 	H 	0.85210 0.43520 0.12770 0.09200
H 	H 	0.05410 0.30440 0.21440 0.08800
H 	H 	0.12210 0.24260 0.13760 -0.01400
H 	H 	0.85030 0.46540 0.22040 0.05700
H 	H 	0.16780 0.44340 0.04590 -0.03900
H 	H 	0.31050 0.52580 0.06440 0.08700
H 	H 	0.44810 0.27010 0.05930 0.08700
H 	H 	0.30400 0.19680 0.04010 -0.01800
H 	H 	0.54720 0.41430 0.07070 0.05500
H 	H 	0.79970 0.79270 0.94260 0.11700
H 	H 	0.96050 0.74610 0.90020 -0.00800
H 	H 	0.86350 0.87210 0.86380 0.19900
H 	H 	0.97370 0.86840 0.84810 0.19300
H 	H 	0.93780 0.94360 0.89000 0.20100
H 	H 	0.07840 0.63450 0.05410 -0.03200
H 	H 	0.14790 0.56480 0.12770 0.09200
H 	H 	0.94590 0.69560 0.21440 0.08800
H 	H 	0.87790 0.75740 0.13760 -0.01400
H 	H 	0.14970 0.53460 0.22040 0.05700
H 	H 	0.83220 0.55660 0.04590 -0.03900
H 	H 	0.68950 0.47420 0.06440 0.08700
H 	H 	0.55190 0.72990 0.05930 0.08700
H 	H 	0.69600 0.80320 0.04010 -0.01800
H 	H 	0.45280 0.58570 0.07070 0.05500
H 	H 	0.70730 0.70030 0.55740 0.11700
H 	H 	0.75390 0.53950 0.59980 -0.00800
H 	H 	0.62790 0.63650 0.63620 0.19900
H 	H 	0.63160 0.52630 0.65190 0.19400
H 	H 	0.55640 0.56220 0.61000 0.20100
H 	H 	0.86550 0.42160 0.44590 -0.03200
H 	H 	0.93520 0.35210 0.37230 0.09200
H 	H 	0.80440 0.55410 0.28560 0.08800
H 	H 	0.74260 0.62210 0.36240 -0.01400
H 	H 	0.96540 0.35030 0.27960 0.05700
H 	H 	0.94340 0.66780 0.45410 -0.03900
H 	H 	0.02580 0.81050 0.43560 0.08700
H 	H 	0.77010 0.94810 0.44070 0.08700
H 	H 	0.69680 0.80400 0.45990 -0.01800
H 	H 	0.91430 0.04720 0.42930 0.05500
H 	H 	0.29270 0.29970 0.55740 0.11700
H 	H 	0.24610 0.46050 0.59980 -0.00800
H 	H 	0.37210 0.36350 0.63620 0.19900
H 	H 	0.36840 0.47370 0.65190 0.19400
H 	H 	0.44360 0.43780 0.61000 0.20100
H 	H 	0.13450 0.57840 0.44590 -0.03200
H 	H 	0.06480 0.64790 0.37230 0.09200
H 	H 	0.19560 0.44590 0.28560 0.08800
H 	H 	0.25740 0.37790 0.36240 -0.01400
H 	H 	0.03460 0.64970 0.27960 0.05700
H 	H 	0.05660 0.33220 0.45410 -0.03900
H 	H 	0.97420 0.18950 0.43560 0.08700
H 	H 	0.22990 0.05190 0.44070 0.08700
H 	H 	0.30320 0.19600 0.45990 -0.01800
H 	H 	0.08570 0.95280 0.42930 0.05500
C 	C 	0.96340 0.17220 0.95120 0.26500
C 	C 	0.05300 0.19250 0.91820 0.07900
C 	C 	0.07110 0.12090 0.87640 -0.57000
C 	C 	0.95000 0.35450 0.08660 0.10400
C 	C 	0.90620 0.39510 0.13100 -0.19700
C 	C 	0.94380 0.37540 0.17910 0.13000
C 	C 	0.02600 0.31840 0.18210 -0.18500
C 	C 	0.06710 0.28170 0.13550 0.09200
C 	C 	0.89830 0.41880 0.22600 -0.09300
C 	C 	0.22500 0.40750 0.04830 0.09800
C 	C 	0.31070 0.45880 0.05910 -0.18400
C 	C 	0.39760 0.40390 0.06150 0.12800
C 	C 	0.39220 0.30780 0.05590 -0.19600
C 	C 	0.30450 0.26380 0.04510 0.09600
C 	C 	0.49270 0.45380 0.06700 -0.09000
C 	C 	0.03660 0.82780 0.95120 0.26500
C 	C 	0.94700 0.80750 0.91820 0.07900
C 	C 	0.92890 0.87910 0.87640 -0.57000
C 	C 	0.05000 0.64550 0.08660 0.10400
C 	C 	0.09380 0.60490 0.13100 -0.19700
C 	C 	0.05620 0.62460 0.17910 0.13000
C 	C 	0.97400 0.68160 0.18210 -0.18500
C 	C 	0.93290 0.71830 0.13550 0.09200
C 	C 	0.10170 0.58120 0.22600 -0.09300
C 	C 	0.77500 0.59250 0.04830 0.09800
C 	C 	0.68930 0.54120 0.05910 -0.18400
C 	C 	0.60240 0.59610 0.06150 0.12800
C 	C 	0.60780 0.69220 0.05590 -0.19600
C 	C 	0.69550 0.73620 0.04510 0.09600
C 	C 	0.50730 0.54620 0.06700 -0.09000
C 	C 	0.67220 0.46340 0.54880 0.26500
C 	C 	0.69250 0.55300 0.58180 0.07900
C 	C 	0.62090 0.57110 0.62360 -0.57000
C 	C 	0.85450 0.45000 0.41340 0.10400
C 	C 	0.89510 0.40620 0.36900 -0.19700
C 	C 	0.87540 0.44380 0.32090 0.13000
C 	C 	0.81840 0.52600 0.31790 -0.18500
C 	C 	0.78170 0.56710 0.36450 0.09200
C 	C 	0.91880 0.39830 0.27400 -0.09300
C 	C 	0.90750 0.72500 0.45170 0.09800
C 	C 	0.95880 0.81070 0.44090 -0.18400
C 	C 	0.90390 0.89760 0.43850 0.12800
C 	C 	0.80780 0.89220 0.44410 -0.19600
C 	C 	0.76380 0.80450 0.45490 0.09600
C 	C 	0.95380 0.99270 0.43300 -0.09000
C 	C 	0.32780 0.53660 0.54880 0.26500
C 	C 	0.30750 0.44700 0.58180 0.07900
C 	C 	0.37910 0.42890 0.62360 -0.57000
C 	C 	0.14550 0.55000 0.41340 0.10400
C 	C 	0.10490 0.59380 0.36900 -0.19700
C 	C 	0.12460 0.55620 0.32090 0.13000
C 	C 	0.18160 0.47400 0.31790 -0.18500
C 	C 	0.21830 0.43290 0.36450 0.09200
C 	C 	0.08120 0.60170 0.27400 -0.09300
C 	C 	0.09250 0.27500 0.45170 0.09800
C 	C 	0.04120 0.18930 0.44090 -0.18400
C 	C 	0.09610 0.10240 0.43850 0.12800
C 	C 	0.19220 0.10780 0.44410 -0.19600
C 	C 	0.23620 0.19550 0.45490 0.09600
C 	C 	0.04620 0.00730 0.43300 -0.09000
N 	N 	0.13770 0.21240 0.95250 -0.30300
N 	N 	0.02960 0.30130 0.08880 -0.26000
N 	N 	0.21850 0.31260 0.04120 -0.27200
N 	N 	0.86230 0.78760 0.95250 -0.30300
N 	N 	0.97040 0.69870 0.08880 -0.26000
N 	N 	0.78150 0.68740 0.04120 -0.27200
N 	N 	0.71240 0.63770 0.54750 -0.30400
N 	N 	0.80130 0.52960 0.41120 -0.26000
N 	N 	0.81260 0.71850 0.45880 -0.27200
N 	N 	0.28760 0.36230 0.54750 -0.30400
N 	N 	0.19870 0.47040 0.41120 -0.26000
N 	N 	0.18740 0.28150 0.45880 -0.27200
O 	O 	0.96910 0.20180 0.99991 -0.42400
O 	O 	0.89070 0.13650 0.93226 -0.36400
O 	O 	0.03090 0.79820 0.99991 -0.42400
O 	O 	0.10930 0.86350 0.93226 -0.36400
O 	O 	0.70180 0.46910 0.50009 -0.42400
O 	O 	0.63650 0.39070 0.56774 -0.36400
O 	O 	0.29820 0.53090 0.50009 -0.42400
O 	O 	0.36350 0.60930 0.56774 -0.36400
Ni	Ni	0.24906 0.90662 0.97632 1.08000
Ni	Ni	0.75094 0.09338 0.97632 1.08000
Ni	Ni	0.59338 0.25094 0.52368 1.08000
Ni	Ni	0.40662 0.74906 0.52368 1.08000
H 	H 	0.20730 0.79970 0.05740 0.11700
H 	H 	0.25390 0.96050 0.09980 -0.00800
H 	H 	0.12790 0.86350 0.13620 0.19900
H 	H 	0.13160 0.97370 0.15190 0.19300
H 	H 	0.05640 0.93780 0.11000 0.20100
H 	H 	0.36550 0.07840 0.94590 -0.03200
H 	H 	0.43520 0.14790 0.87230 0.09200
H 	H 	0.30440 0.94590 0.78560 0.08800
H 	H 	0.24260 0.87790 0.86240 -0.01400
H 	H 	0.46540 0.14970 0.77960 0.05700
H 	H 	0.44340 0.83220 0.95410 -0.03900
H 	H 	0.52580 0.68950 0.93560 0.08700
H 	H 	0.27010 0.55190 0.94070 0.08700
H 	H 	0.19680 0.69600 0.95990 -0.01800
H 	H 	0.41430 0.45280 0.92930 0.05500
H 	H 	0.79270 0.20030 0.05740 0.11700
H 	H 	0.74610 0.03950 0.09980 -0.00800
H 	H 	0.87210 0.13650 0.13620 0.19900
H 	H 	0.86840 0.02630 0.15190 0.19300
H 	H 	0.94360 0.06220 0.11000 0.20100
H 	H 	0.63450 0.92160 0.94590 -0.03200
H 	H 	0.56480 0.85210 0.87230 0.09200
H 	H 	0.69560 0.05410 0.78560 0.08800
H 	H 	0.75740 0.12210 0.86240 -0.01400
H 	H 	0.53460 0.85030 0.77960 0.05700
H 	H 	0.55660 0.16780 0.95410 -0.03900
H 	H 	0.47420 0.31050 0.93560 0.08700
H 	H 	0.72990 0.44810 0.94070 0.08700
H 	H 	0.80320 0.30400 0.95990 -0.01800
H 	H 	0.58570 0.54720 0.92930 0.05500
H 	H 	0.70030 0.29270 0.44260 0.11700
H 	H 	0.53950 0.24610 0.40020 -0.00800
H 	H 	0.63650 0.37210 0.36380 0.19900
H 	H 	0.52630 0.36840 0.34810 0.19400
H 	H 	0.56220 0.44360 0.39000 0.20100
H 	H 	0.42160 0.13450 0.55410 -0.03200
H 	H 	0.35210 0.06480 0.62770 0.09200
H 	H 	0.55410 0.19560 0.71440 0.08800
H 	H 	0.62210 0.25740 0.63760 -0.01400
H 	H 	0.35030 0.03460 0.72040 0.05700
H 	H 	0.66780 0.05660 0.54590 -0.03900
H 	H 	0.81050 0.97420 0.56440 0.08700
H 	H 	0.94810 0.22990 0.55930 0.08700
H 	H 	0.80400 0.30320 0.54010 -0.01800
H 	H 	0.04720 0.08570 0.57070 0.05500
H 	H 	0.29970 0.70730 0.44260 0.11700
H 	H 	0.46050 0.75390 0.40020 -0.00800
H 	H 	0.36350 0.62790 0.36380 0.19900
H 	H 	0.47370 0.63160 0.34810 0.19400
H 	H 	0.43780 0.55640 0.39000 0.20100
H 	H 	0.57840 0.86550 0.55410 -0.03200
H 	H 	0.64790 0.93520 0.62770 0.09200
H 	H 	0.44590 0.80440 0.71440 0.08800
H 	H 	0.37790 0.74260 0.63760 -0.01400
H 	H 	0.64970 0.96540 0.72040 0.05700
H 	H 	0.33220 0.94340 0.54590 -0.03900
H 	H 	0.18950 0.02580 0.56440 0.08700
H 	H 	0.05190 0.77010 0.55930 0.08700
H 	H 	0.19600 0.69680 0.54010 -0.01800
H 	H 	0.95280 0.91430 0.57070 0.05500
C 	C 	0.17220 0.03660 0.04880 0.26500
C 	C 	0.19250 0.94700 0.08180 0.07900
C 	C 	0.12090 0.92890 0.12360 -0.57000
C 	C 	0.35450 0.05000 0.91340 0.10400
C 	C 	0.39510 0.09380 0.86900 -0.19700
C 	C 	0.37540 0.05620 0.82090 0.13000
C 	C 	0.31840 0.97400 0.81790 -0.18500
C 	C 	0.28170 0.93290 0.86450 0.09200
C 	C 	0.41880 0.10170 0.77400 -0.09300
C 	C 	0.40750 0.77500 0.95170 0.09800
C 	C 	0.45880 0.68930 0.94090 -0.18400
C 	C 	0.40390 0.60240 0.93850 0.12800
C 	C 	0.30780 0.60780 0.94410 -0.19600
C 	C 	0.26380 0.69550 0.95490 0.09600
C 	C 	0.45380 0.50730 0.93300 -0.09000
C 	C 	0.82780 0.96340 0.04880 0.26500
C 	C 	0.80750 0.05300 0.08180 0.07900
C 	C 	0.87910 0.07110 0.12360 -0.57000
C 	C 	0.64550 0.95000 0.91340 0.10400
C 	C 	0.60490 0.90620 0.86900 -0.19700
C 	C 	0.62460 0.94380 0.82090 0.13000
C 	C 	0.68160 0.02600 0.81790 -0.18500
C 	C 	0.71830 0.06710 0.86450 0.09200
C 	C 	0.58120 0.89830 0.77400 -0.09300
C 	C 	0.59250 0.22500 0.95170 0.09800
C 	C 	0.54120 0.31070 0.94090 -0.18400
C 	C 	0.59610 0.39760 0.93850 0.12800
C 	C 	0.69220 0.39220 0.94410 -0.19600
C 	C 	0.73620 0.30450 0.95490 0.09600
C 	C 	0.54620 0.49270 0.93300 -0.09000
C 	C 	0.46340 0.32780 0.45120 0.26500
C 	C 	0.55300 0.30750 0.41820 0.07900
C 	C 	0.57110 0.37910 0.37640 -0.57000
C 	C 	0.45000 0.14550 0.58660 0.10400
C 	C 	0.40620 0.10490 0.63100 -0.19700
C 	C 	0.44380 0.12460 0.67910 0.13000
C 	C 	0.52600 0.18160 0.68210 -0.18500
C 	C 	0.56710 0.21830 0.63550 0.09200
C 	C 	0.39830 0.08120 0.72600 -0.09300
C 	C 	0.72500 0.09250 0.54830 0.09800
C 	C 	0.81070 0.04120 0.55910 -0.18400
C 	C 	0.89760 0.09610 0.56150 0.12800
C 	C 	0.89220 0.19220 0.55590 -0.19600
C 	C 	0.80450 0.23620 0.54510 0.09600
C 	C 	0.99270 0.04620 0.56700 -0.09000
C 	C 	0.53660 0.67220 0.45120 0.26500
C 	C 	0.44700 0.69250 0.41820 0.07900
C 	C 	0.42890 0.62090 0.37640 -0.57000
C 	C 	0.55000 0.85450 0.58660 0.10400
C 	C 	0.59380 0.89510 0.63100 -0.19700
C 	C 	0.55620 0.87540 0.67910 0.13000
C 	C 	0.47400 0.81840 0.68210 -0.18500
C 	C 	0.43290 0.78170 0.63550 0.09200
C 	C 	0.60170 0.91880 0.72600 -0.09300
C 	C 	0.27500 0.90750 0.54830 0.09800
C 	C 	0.18930 0.95880 0.55910 -0.18400
C 	C 	0.10240 0.90390 0.56150 0.12800
C 	C 	0.10780 0.80780 0.55590 -0.19600
C 	C 	0.19550 0.76380 0.54510 0.09600
C 	C 	0.00730 0.95380 0.56700 -0.09000
N 	N 	0.21240 0.86230 0.04750 -0.30300
N 	N 	0.30130 0.97040 0.91120 -0.26000
N 	N 	0.31260 0.78150 0.95880 -0.27200
N 	N 	0.78760 0.13770 0.04750 -0.30300
N 	N 	0.69870 0.02960 0.91120 -0.26000
N 	N 	0.68740 0.21850 0.95880 -0.27200
N 	N 	0.63770 0.28760 0.45250 -0.30400
N 	N 	0.52960 0.19870 0.58880 -0.26000
N 	N 	0.71850 0.18740 0.54120 -0.27200
N 	N 	0.36230 0.71240 0.45250 -0.30400
N 	N 	0.47040 0.80130 0.58880 -0.26000
N 	N 	0.28150 0.81260 0.54120 -0.27200
O 	O 	0.20180 0.03090 0.00009 -0.42400
O 	O 	0.13650 0.10930 0.06774 -0.36400
O 	O 	0.79820 0.96910 0.00009 -0.42400
O 	O 	0.86350 0.89070 0.06774 -0.36400
O 	O 	0.46910 0.29820 0.49991 -0.42400
O 	O 	0.39070 0.36350 0.43226 -0.36400
O 	O 	0.53090 0.70180 0.49991 -0.42400
O 	O 	0.60930 0.63650 0.43226 -0.36400
