data_crystal

_cell_length_a 16.14750
_cell_length_b 12.51600
_cell_length_c 19.86870
_cell_angle_alpha 90.00000
_cell_angle_beta  93.32100
_cell_angle_gamma 90.00000

_symmetry_space_group_name_	'P 1'
_symmetry_space_group_name_H-M	'P 1'

loop_
_symmetry_equiv_pos_as_xyz
  x,y,z

loop_
_atom_site_label
_atom_site_type_symbol
_atom_site_fract_x
_atom_site_fract_y
_atom_site_fract_z
_atom_site_charge
Zn	Zn	0.14325 0.56476 0.21031 1.22200
O 	O 	0.70104 0.01174 0.41160 -0.45200
O 	O 	0.81071 0.96350 0.35695 -0.48600
O 	O 	0.05290 0.61380 0.28492 -0.36000
O 	O 	0.04441 0.45980 0.23531 -0.38100
O 	O 	0.73383 0.25219 0.36859 -0.48400
O 	O 	0.81130 0.21370 0.28743 -0.50200
O 	O 	0.64983 0.46530 0.76605 -0.47300
O 	O 	0.77026 0.48300 0.71794 -0.44600
O 	O 	0.44199 0.83500 0.61782 -0.40800
O 	O 	0.43417 0.74010 0.70941 -0.31000
C 	C 	0.75520 0.94540 0.39676 0.38500
C 	C 	0.75440 0.83650 0.42671 -0.05200
C 	C 	0.79510 0.75470 0.39656 -0.06100
H 	H 	0.82630 0.77010 0.35990 0.07100
C 	C 	0.79120 0.65090 0.41876 0.05400
C 	C 	0.74759 0.63020 0.47567 -0.11500
H 	H 	0.74530 0.56060 0.49190 0.07900
C 	C 	0.70746 0.71080 0.50876 0.05400
C 	C 	0.70980 0.81390 0.48323 -0.06000
H 	H 	0.68150 0.86840 0.50390 0.07300
C 	C 	0.01690 0.52690 0.27540 0.30300
C 	C 	0.79020 0.27370 0.33280 0.41400
C 	C 	0.94030 0.50200 0.31111 -0.06800
C 	C 	0.90320 0.40340 0.30564 0.02400
H 	H 	0.92590 0.35070 0.27930 0.04900
C 	C 	0.83130 0.38200 0.33958 -0.10600
C 	C 	0.79640 0.46210 0.37702 -0.00100
H 	H 	0.74860 0.44800 0.39940 0.05300
C 	C 	0.83180 0.56260 0.38143 -0.01300
C 	C 	0.90470 0.58190 0.34899 -0.02300
H 	H 	0.92980 0.64870 0.35260 0.06100
C 	C 	0.69540 0.50420 0.72314 0.40600
C 	C 	0.46980 0.76470 0.65830 0.31900
C 	C 	0.65660 0.58270 0.67387 -0.09500
C 	C 	0.58280 0.63260 0.68676 0.02500
H 	H 	0.55500 0.61380 0.72470 0.05600
C 	C 	0.55020 0.71030 0.64324 -0.06400
C 	C 	0.59040 0.73550 0.58593 -0.02100
H 	H 	0.56780 0.78700 0.55650 0.06300
C 	C 	0.66370 0.68560 0.57134 -0.01100
C 	C 	0.69630 0.60990 0.61646 -0.00600
H 	H 	0.74610 0.57660 0.60790 0.05300
Zn	Zn	0.66581 0.12584 0.34604 1.23500
Zn	Zn	0.85675 0.06476 0.28969 1.22100
O 	O 	0.29896 0.51174 0.08840 -0.45200
O 	O 	0.18929 0.46350 0.14305 -0.48700
O 	O 	0.94710 0.11380 0.21508 -0.35800
O 	O 	0.95559 0.95980 0.26469 -0.37700
O 	O 	0.26617 0.75219 0.13141 -0.48300
O 	O 	0.18870 0.71370 0.21257 -0.50100
O 	O 	0.35017 0.96530 0.73395 -0.47400
O 	O 	0.22974 0.98300 0.78206 -0.44800
O 	O 	0.55801 0.33500 0.88218 -0.40800
O 	O 	0.56583 0.24010 0.79059 -0.31100
C 	C 	0.24480 0.44540 0.10324 0.38400
C 	C 	0.24560 0.33650 0.07329 -0.05400
C 	C 	0.20490 0.25470 0.10344 -0.05900
H 	H 	0.17370 0.27010 0.14010 0.07100
C 	C 	0.20880 0.15090 0.08124 0.05100
C 	C 	0.25241 0.13020 0.02433 -0.11200
H 	H 	0.25470 0.06060 0.00810 0.07900
C 	C 	0.29254 0.21080 0.99124 0.05200
C 	C 	0.29020 0.31390 0.01677 -0.05800
H 	H 	0.31850 0.36840 0.99610 0.07200
C 	C 	0.98310 0.02690 0.22460 0.29500
C 	C 	0.20980 0.77370 0.16720 0.41200
C 	C 	0.05970 0.00200 0.18889 -0.05800
C 	C 	0.09680 0.90340 0.19436 0.01500
H 	H 	0.07410 0.85070 0.22070 0.05200
C 	C 	0.16870 0.88200 0.16042 -0.10000
C 	C 	0.20360 0.96210 0.12298 -0.00900
H 	H 	0.25140 0.94800 0.10060 0.05500
C 	C 	0.16820 0.06260 0.11857 -0.00600
C 	C 	0.09530 0.08190 0.15101 -0.02900
H 	H 	0.07020 0.14870 0.14740 0.06300
C 	C 	0.30460 0.00420 0.77686 0.40800
C 	C 	0.53020 0.26470 0.84170 0.31800
C 	C 	0.34340 0.08270 0.82613 -0.09600
C 	C 	0.41720 0.13260 0.81324 0.02500
H 	H 	0.44500 0.11380 0.77530 0.05600
C 	C 	0.44980 0.21030 0.85676 -0.06400
C 	C 	0.40960 0.23550 0.91407 -0.02100
H 	H 	0.43220 0.28700 0.94350 0.06300
C 	C 	0.33630 0.18560 0.92866 -0.01000
C 	C 	0.30370 0.10990 0.88354 -0.00600
H 	H 	0.25390 0.07660 0.89210 0.05400
Zn	Zn	0.33419 0.62584 0.15396 1.23500
Zn	Zn	0.85675 0.43524 0.78969 1.22100
O 	O 	0.29896 0.98826 0.58840 -0.45300
O 	O 	0.18929 0.03650 0.64305 -0.48600
O 	O 	0.94710 0.38620 0.71508 -0.36000
O 	O 	0.95559 0.54020 0.76469 -0.38100
O 	O 	0.26617 0.74781 0.63141 -0.48400
O 	O 	0.18870 0.78630 0.71257 -0.50200
O 	O 	0.35017 0.53470 0.23395 -0.47300
O 	O 	0.22974 0.51700 0.28206 -0.44600
O 	O 	0.55801 0.16500 0.38218 -0.40800
O 	O 	0.56583 0.25990 0.29059 -0.31000
C 	C 	0.24480 0.05460 0.60324 0.38500
C 	C 	0.24560 0.16350 0.57329 -0.05200
C 	C 	0.20490 0.24530 0.60344 -0.06100
H 	H 	0.17370 0.22990 0.64010 0.07100
C 	C 	0.20880 0.34910 0.58124 0.05400
C 	C 	0.25241 0.36980 0.52433 -0.11500
H 	H 	0.25470 0.43940 0.50810 0.07900
C 	C 	0.29254 0.28920 0.49124 0.05400
C 	C 	0.29020 0.18610 0.51677 -0.06000
H 	H 	0.31850 0.13160 0.49610 0.07300
C 	C 	0.98310 0.47310 0.72460 0.30300
C 	C 	0.20980 0.72630 0.66720 0.41400
C 	C 	0.05970 0.49800 0.68889 -0.06800
C 	C 	0.09680 0.59660 0.69436 0.02400
H 	H 	0.07410 0.64930 0.72070 0.04900
C 	C 	0.16870 0.61800 0.66042 -0.10600
C 	C 	0.20360 0.53790 0.62298 -0.00100
H 	H 	0.25140 0.55200 0.60060 0.05300
C 	C 	0.16820 0.43740 0.61857 -0.01300
C 	C 	0.09530 0.41810 0.65101 -0.02300
H 	H 	0.07020 0.35130 0.64740 0.06100
C 	C 	0.30460 0.49580 0.27686 0.40600
C 	C 	0.53020 0.23530 0.34170 0.31900
C 	C 	0.34340 0.41730 0.32613 -0.09500
C 	C 	0.41720 0.36740 0.31324 0.02500
H 	H 	0.44500 0.38620 0.27530 0.05600
C 	C 	0.44980 0.28970 0.35676 -0.06400
C 	C 	0.40960 0.26450 0.41407 -0.02100
H 	H 	0.43220 0.21300 0.44350 0.06300
C 	C 	0.33630 0.31440 0.42866 -0.01100
C 	C 	0.30370 0.39010 0.38354 -0.00600
H 	H 	0.25390 0.42340 0.39210 0.05300
Zn	Zn	0.33419 0.87416 0.65396 1.23500
Zn	Zn	0.14325 0.93524 0.71031 1.22100
O 	O 	0.70104 0.48826 0.91160 -0.45200
O 	O 	0.81071 0.53650 0.85695 -0.48700
O 	O 	0.05290 0.88620 0.78492 -0.35800
O 	O 	0.04441 0.04020 0.73531 -0.37700
O 	O 	0.73383 0.24781 0.86859 -0.48300
O 	O 	0.81130 0.28630 0.78743 -0.50100
O 	O 	0.64983 0.03470 0.26605 -0.47400
O 	O 	0.77026 0.01700 0.21794 -0.44800
O 	O 	0.44199 0.66500 0.11782 -0.40800
O 	O 	0.43417 0.75990 0.20941 -0.31100
C 	C 	0.75520 0.55460 0.89676 0.38400
C 	C 	0.75440 0.66350 0.92671 -0.05400
C 	C 	0.79510 0.74530 0.89656 -0.05900
H 	H 	0.82630 0.72990 0.85990 0.07100
C 	C 	0.79120 0.84910 0.91876 0.05100
C 	C 	0.74759 0.86980 0.97567 -0.11200
H 	H 	0.74530 0.93940 0.99190 0.07900
C 	C 	0.70746 0.78920 0.00876 0.05200
C 	C 	0.70980 0.68610 0.98323 -0.05800
H 	H 	0.68150 0.63160 0.00390 0.07200
C 	C 	0.01690 0.97310 0.77540 0.29500
C 	C 	0.79020 0.22630 0.83280 0.41200
C 	C 	0.94030 0.99800 0.81111 -0.05800
C 	C 	0.90320 0.09660 0.80564 0.01500
H 	H 	0.92590 0.14930 0.77930 0.05200
C 	C 	0.83130 0.11800 0.83958 -0.10000
C 	C 	0.79640 0.03790 0.87702 -0.00900
H 	H 	0.74860 0.05200 0.89940 0.05500
C 	C 	0.83180 0.93740 0.88143 -0.00600
C 	C 	0.90470 0.91810 0.84899 -0.02900
H 	H 	0.92980 0.85130 0.85260 0.06300
C 	C 	0.69540 0.99580 0.22314 0.40800
C 	C 	0.46980 0.73530 0.15830 0.31800
C 	C 	0.65660 0.91730 0.17387 -0.09600
C 	C 	0.58280 0.86740 0.18676 0.02500
H 	H 	0.55500 0.88620 0.22470 0.05600
C 	C 	0.55020 0.78970 0.14324 -0.06400
C 	C 	0.59040 0.76450 0.08593 -0.02100
H 	H 	0.56780 0.71300 0.05650 0.06300
C 	C 	0.66370 0.81440 0.07134 -0.01000
C 	C 	0.69630 0.89010 0.11646 -0.00600
H 	H 	0.74610 0.92340 0.10790 0.05400
Zn	Zn	0.66581 0.37416 0.84604 1.23500
