data_crystal

_cell_length_a 29.22000
_cell_length_b 29.22000
_cell_length_c 9.38820
_cell_angle_alpha 90.00000
_cell_angle_beta  90.00000
_cell_angle_gamma 90.00000

_symmetry_space_group_name_	'P 1'
_symmetry_space_group_name_H-M	'P 1'

loop_
_symmetry_equiv_pos_as_xyz
  x,y,z

loop_
_atom_site_label
_atom_site_type_symbol
_atom_site_fract_x
_atom_site_fract_y
_atom_site_fract_z
_atom_site_charge
O 	O 	0.51230 0.06680 0.65780 -0.39900
O 	O 	0.45260 0.05680 0.52230 -0.28600
O 	O 	0.38940 0.19435 0.26440 -0.32600
O 	O 	0.42140 0.26070 0.29450 -0.30300
O 	O 	0.68970 0.17350 0.45600 -0.33400
O 	O 	0.72850 0.22450 0.57520 -0.16400
C 	C 	0.48180 0.08100 0.57480 0.33200
C 	C 	0.41900 0.21940 0.31810 0.30500
C 	C 	0.48460 0.13110 0.53210 -0.03400
C 	C 	0.45220 0.15060 0.44910 -0.01500
H 	H 	0.42830 0.13280 0.41380 0.07900
C 	C 	0.45410 0.19740 0.41560 -0.02200
C 	C 	0.49030 0.22330 0.46580 -0.06000
H 	H 	0.49200 0.25440 0.44470 0.08300
C 	C 	0.52370 0.20320 0.54630 0.04100
C 	C 	0.52060 0.15630 0.57960 -0.05600
H 	H 	0.54320 0.14260 0.63440 0.08300
C 	C 	0.68910 0.20540 0.53070 0.58900
C 	C 	0.65080 0.23030 0.58990 -0.08300
C 	C 	0.60710 0.21090 0.55180 -0.00800
H 	H 	0.60700 0.18430 0.49730 0.06600
C 	C 	0.56690 0.22870 0.59000 -0.00200
O 	O 	0.70800 0.17330 0.58100 -0.25700
O 	O 	0.70640 0.21450 0.40600 -0.22100
O 	O 	0.01230 0.56680 0.15780 -0.42000
O 	O 	0.95260 0.55680 0.02230 -0.28400
O 	O 	0.88940 0.69435 0.76440 -0.32300
O 	O 	0.92140 0.76070 0.79450 -0.29800
O 	O 	0.18970 0.67350 0.95600 -0.31800
O 	O 	0.22850 0.72450 0.07520 -0.16300
C 	C 	0.98180 0.58100 0.07480 0.36500
C 	C 	0.91900 0.71940 0.81810 0.31700
C 	C 	0.98460 0.63110 0.03210 -0.04000
C 	C 	0.95220 0.65060 0.94910 0.01800
H 	H 	0.92830 0.63280 0.91380 0.07400
C 	C 	0.95410 0.69740 0.91560 -0.04600
C 	C 	0.99030 0.72330 0.96580 0.01100
H 	H 	0.99200 0.75440 0.94470 0.07100
C 	C 	0.02370 0.70320 0.04630 -0.01900
C 	C 	0.02060 0.65630 0.07960 -0.05500
H 	H 	0.04320 0.64260 0.13440 0.07800
C 	C 	0.18910 0.70540 0.03070 0.55900
C 	C 	0.15080 0.73030 0.08990 -0.05700
C 	C 	0.10710 0.71090 0.05180 -0.05400
H 	H 	0.10700 0.68430 0.99730 0.09000
C 	C 	0.06690 0.72870 0.09000 0.02700
O 	O 	0.20800 0.67330 0.08100 -0.25700
O 	O 	0.20640 0.71450 0.90600 -0.21100
O 	O 	0.48770 0.93320 0.65780 -0.38500
O 	O 	0.54740 0.94320 0.52230 -0.27000
O 	O 	0.61060 0.80565 0.26440 -0.32300
O 	O 	0.57860 0.73930 0.29450 -0.30200
O 	O 	0.31030 0.82650 0.45600 -0.33100
O 	O 	0.27150 0.77550 0.57520 -0.16400
C 	C 	0.51820 0.91900 0.57480 0.32900
C 	C 	0.58100 0.78060 0.31810 0.30500
C 	C 	0.51540 0.86890 0.53210 -0.02700
C 	C 	0.54780 0.84940 0.44910 -0.01900
H 	H 	0.57170 0.86720 0.41380 0.08300
C 	C 	0.54590 0.80260 0.41560 -0.01800
C 	C 	0.50970 0.77670 0.46580 -0.06300
H 	H 	0.50800 0.74560 0.44470 0.08400
C 	C 	0.47630 0.79680 0.54630 0.04400
C 	C 	0.47940 0.84370 0.57960 -0.05900
H 	H 	0.45680 0.85740 0.63440 0.08600
C 	C 	0.31090 0.79460 0.53070 0.58800
C 	C 	0.34920 0.76970 0.58990 -0.08200
C 	C 	0.39290 0.78910 0.55180 -0.00800
H 	H 	0.39300 0.81570 0.49730 0.06700
C 	C 	0.43310 0.77130 0.59000 -0.00200
O 	O 	0.29200 0.82670 0.58100 -0.25600
O 	O 	0.29360 0.78550 0.40600 -0.22100
O 	O 	0.98770 0.43320 0.15780 -0.37100
O 	O 	0.04740 0.44320 0.02230 -0.28200
O 	O 	0.11060 0.30565 0.76440 -0.32400
O 	O 	0.07860 0.23930 0.79450 -0.30300
O 	O 	0.81030 0.32650 0.95600 -0.31700
O 	O 	0.77150 0.27550 0.07520 -0.16200
C 	C 	0.01820 0.41900 0.07480 0.31800
C 	C 	0.08100 0.28060 0.81810 0.31200
C 	C 	0.01540 0.36890 0.03210 -0.08700
C 	C 	0.04780 0.34940 0.94910 0.02300
H 	H 	0.07170 0.36720 0.91380 0.07100
C 	C 	0.04590 0.30260 0.91560 -0.03700
C 	C 	0.00970 0.27670 0.96580 -0.05400
H 	H 	0.00800 0.24560 0.94470 0.07800
C 	C 	0.97630 0.29680 0.04630 0.02800
C 	C 	0.97940 0.34370 0.07960 -0.00200
H 	H 	0.95680 0.35740 0.13440 0.06800
C 	C 	0.81090 0.29460 0.03070 0.55900
C 	C 	0.84920 0.26970 0.08990 -0.05600
C 	C 	0.89290 0.28910 0.05180 -0.04900
H 	H 	0.89300 0.31570 0.99730 0.09100
C 	C 	0.93310 0.27130 0.09000 0.02600
O 	O 	0.79200 0.32670 0.08100 -0.25700
O 	O 	0.79360 0.28550 0.90600 -0.21000
O 	O 	0.06680 0.48770 0.34220 -0.39800
O 	O 	0.05680 0.54740 0.47770 -0.28300
O 	O 	0.19435 0.61060 0.73560 -0.32300
O 	O 	0.26070 0.57860 0.70550 -0.29800
O 	O 	0.17350 0.31030 0.54400 -0.33100
O 	O 	0.22450 0.27150 0.42480 -0.16500
C 	C 	0.08100 0.51820 0.42520 0.33300
C 	C 	0.21940 0.58100 0.68190 0.30600
C 	C 	0.13110 0.51540 0.46790 -0.03300
C 	C 	0.15060 0.54780 0.55090 -0.01500
H 	H 	0.13280 0.57170 0.58620 0.08000
C 	C 	0.19740 0.54590 0.58440 -0.02000
C 	C 	0.22330 0.50970 0.53420 -0.06000
H 	H 	0.25440 0.50800 0.55530 0.08400
C 	C 	0.20320 0.47630 0.45370 0.04200
C 	C 	0.15630 0.47940 0.42040 -0.05600
H 	H 	0.14260 0.45680 0.36560 0.08200
C 	C 	0.20540 0.31090 0.46930 0.58900
C 	C 	0.23030 0.34920 0.41010 -0.08200
C 	C 	0.21090 0.39290 0.44820 -0.00900
H 	H 	0.18430 0.39300 0.50270 0.06700
C 	C 	0.22870 0.43310 0.41000 -0.00100
O 	O 	0.17330 0.29200 0.41900 -0.25900
O 	O 	0.21450 0.29360 0.59400 -0.22000
O 	O 	0.56680 0.98770 0.84220 -0.36400
O 	O 	0.55680 0.04740 0.97770 -0.26800
O 	O 	0.69435 0.11060 0.23560 -0.32200
O 	O 	0.76070 0.07860 0.20550 -0.30000
O 	O 	0.67350 0.81030 0.04400 -0.34600
O 	O 	0.72450 0.77150 0.92480 -0.16600
C 	C 	0.58100 0.01820 0.92520 0.29500
C 	C 	0.71940 0.08100 0.18190 0.29200
C 	C 	0.63110 0.01540 0.96790 -0.01400
C 	C 	0.65060 0.04780 0.05090 -0.05700
H 	H 	0.63280 0.07170 0.08620 0.09100
C 	C 	0.69740 0.04590 0.08440 0.01200
C 	C 	0.72330 0.00970 0.03420 -0.13900
H 	H 	0.75440 0.00800 0.05530 0.09900
C 	C 	0.70320 0.97630 0.95370 0.10900
C 	C 	0.65630 0.97940 0.92040 -0.06400
H 	H 	0.64260 0.95680 0.86560 0.09100
C 	C 	0.70540 0.81090 0.96930 0.61900
C 	C 	0.73030 0.84920 0.91010 -0.10800
C 	C 	0.71090 0.89290 0.94820 0.03900
H 	H 	0.68430 0.89300 0.00270 0.04300
C 	C 	0.72870 0.93310 0.91000 -0.03200
O 	O 	0.67330 0.79200 0.91900 -0.25800
O 	O 	0.71450 0.79360 0.09400 -0.23000
O 	O 	0.93320 0.51230 0.34220 -0.38500
O 	O 	0.94320 0.45260 0.47770 -0.26700
O 	O 	0.80565 0.38940 0.73560 -0.32000
O 	O 	0.73930 0.42140 0.70550 -0.29800
O 	O 	0.82650 0.68970 0.54400 -0.33000
O 	O 	0.77550 0.72850 0.42480 -0.16400
C 	C 	0.91900 0.48180 0.42520 0.32800
C 	C 	0.78060 0.41900 0.68190 0.30500
C 	C 	0.86890 0.48460 0.46790 -0.02600
C 	C 	0.84940 0.45220 0.55090 -0.01900
H 	H 	0.86720 0.42830 0.58620 0.08500
C 	C 	0.80260 0.45410 0.58440 -0.01600
C 	C 	0.77670 0.49030 0.53420 -0.06200
H 	H 	0.74560 0.49200 0.55530 0.08500
C 	C 	0.79680 0.52370 0.45370 0.04400
C 	C 	0.84370 0.52060 0.42040 -0.05900
H 	H 	0.85740 0.54320 0.36560 0.08500
C 	C 	0.79460 0.68910 0.46930 0.58800
C 	C 	0.76970 0.65080 0.41010 -0.08100
C 	C 	0.78910 0.60710 0.44820 -0.00900
H 	H 	0.81570 0.60700 0.50270 0.06800
C 	C 	0.77130 0.56690 0.41000 -0.00200
O 	O 	0.82670 0.70800 0.41900 -0.25800
O 	O 	0.78550 0.70640 0.59400 -0.22000
O 	O 	0.43320 0.01230 0.84220 -0.41200
O 	O 	0.44320 0.95260 0.97770 -0.27000
O 	O 	0.30565 0.88940 0.23560 -0.32100
O 	O 	0.23930 0.92140 0.20550 -0.29700
O 	O 	0.32650 0.18970 0.04400 -0.34800
O 	O 	0.27550 0.22850 0.92480 -0.16600
C 	C 	0.41900 0.98180 0.92520 0.34300
C 	C 	0.28060 0.91900 0.18190 0.29900
C 	C 	0.36890 0.98460 0.96790 0.02800
C 	C 	0.34940 0.95220 0.05090 -0.05800
H 	H 	0.36720 0.92830 0.08620 0.09300
C 	C 	0.30260 0.95410 0.08440 0.00100
C 	C 	0.27670 0.99030 0.03420 -0.07100
H 	H 	0.24560 0.99200 0.05530 0.09100
C 	C 	0.29680 0.02370 0.95370 0.06100
C 	C 	0.34370 0.02060 0.92040 -0.11400
H 	H 	0.35740 0.04320 0.86560 0.10100
C 	C 	0.29460 0.18910 0.96930 0.62200
C 	C 	0.26970 0.15080 0.91010 -0.11000
C 	C 	0.28910 0.10710 0.94820 0.03800
H 	H 	0.31570 0.10700 0.00270 0.04000
C 	C 	0.27130 0.06690 0.91000 -0.03200
O 	O 	0.32670 0.20800 0.91900 -0.25800
O 	O 	0.28550 0.20640 0.09400 -0.23200
O 	O 	0.98770 0.06680 0.09220 -0.37600
O 	O 	0.04740 0.05680 0.22770 -0.28400
O 	O 	0.11060 0.19435 0.48560 -0.32500
O 	O 	0.07860 0.26070 0.45550 -0.30200
O 	O 	0.81030 0.17350 0.29400 -0.33300
O 	O 	0.77150 0.22450 0.17480 -0.16800
C 	C 	0.01820 0.08100 0.17520 0.30800
C 	C 	0.08100 0.21940 0.43190 0.30200
C 	C 	0.01540 0.13110 0.21790 -0.05400
C 	C 	0.04780 0.15060 0.30090 -0.01600
H 	H 	0.07170 0.13280 0.33620 0.07800
C 	C 	0.04590 0.19740 0.33440 -0.01300
C 	C 	0.00970 0.22330 0.28420 -0.10000
H 	H 	0.00800 0.25440 0.30530 0.08900
C 	C 	0.97630 0.20320 0.20370 0.07300
C 	C 	0.97940 0.15630 0.17040 -0.03500
H 	H 	0.95680 0.14260 0.11560 0.07700
C 	C 	0.81090 0.20540 0.21930 0.59800
C 	C 	0.84920 0.23030 0.16010 -0.10000
C 	C 	0.89290 0.21090 0.19820 0.01000
H 	H 	0.89300 0.18430 0.25270 0.06200
C 	C 	0.93310 0.22870 0.16000 -0.02000
O 	O 	0.79200 0.17330 0.16900 -0.26200
O 	O 	0.79360 0.21450 0.34400 -0.22100
O 	O 	0.48770 0.56680 0.59220 -0.39300
O 	O 	0.54740 0.55680 0.72770 -0.27500
O 	O 	0.61060 0.69435 0.98560 -0.31700
O 	O 	0.57860 0.76070 0.95550 -0.29500
O 	O 	0.31030 0.67350 0.79400 -0.32900
O 	O 	0.27150 0.72450 0.67480 -0.16400
C 	C 	0.51820 0.58100 0.67520 0.33100
C 	C 	0.58100 0.71940 0.93190 0.30400
C 	C 	0.51540 0.63110 0.71790 -0.02900
C 	C 	0.54780 0.65060 0.80090 -0.01800
H 	H 	0.57170 0.63280 0.83620 0.08300
C 	C 	0.54590 0.69740 0.83440 -0.01600
C 	C 	0.50970 0.72330 0.78420 -0.06200
H 	H 	0.50800 0.75440 0.80530 0.08500
C 	C 	0.47630 0.70320 0.70370 0.04400
C 	C 	0.47940 0.65630 0.67040 -0.05800
H 	H 	0.45680 0.64260 0.61560 0.08400
C 	C 	0.31090 0.70540 0.71930 0.58700
C 	C 	0.34920 0.73030 0.66010 -0.08000
C 	C 	0.39290 0.71090 0.69820 -0.00900
H 	H 	0.39300 0.68430 0.75270 0.06800
C 	C 	0.43310 0.72870 0.66000 -0.00100
O 	O 	0.29200 0.67330 0.66900 -0.25800
O 	O 	0.29360 0.71450 0.84400 -0.21800
O 	O 	0.01230 0.93320 0.09220 -0.41200
O 	O 	0.95260 0.94320 0.22770 -0.27200
O 	O 	0.88940 0.80565 0.48560 -0.32100
O 	O 	0.92140 0.73930 0.45550 -0.29800
O 	O 	0.18970 0.82650 0.29400 -0.33300
O 	O 	0.22850 0.77550 0.17480 -0.16800
C 	C 	0.98180 0.91900 0.17520 0.35100
C 	C 	0.91900 0.78060 0.43190 0.30700
C 	C 	0.98460 0.86890 0.21790 -0.00500
C 	C 	0.95220 0.84940 0.30090 -0.02100
H 	H 	0.92830 0.86720 0.33620 0.08500
C 	C 	0.95410 0.80260 0.33440 -0.02100
C 	C 	0.99030 0.77670 0.28420 -0.03300
H 	H 	0.99200 0.74560 0.30530 0.08200
C 	C 	0.02370 0.79680 0.20370 0.02600
C 	C 	0.02060 0.84370 0.17040 -0.08800
H 	H 	0.04320 0.85740 0.11560 0.09000
C 	C 	0.18910 0.79460 0.21930 0.59800
C 	C 	0.15080 0.76970 0.16010 -0.10000
C 	C 	0.10710 0.78910 0.19820 0.00500
H 	H 	0.10700 0.81570 0.25270 0.06200
C 	C 	0.06690 0.77130 0.16000 -0.01800
O 	O 	0.20800 0.82670 0.16900 -0.26100
O 	O 	0.20640 0.78550 0.34400 -0.22200
O 	O 	0.51230 0.43320 0.59220 -0.39300
O 	O 	0.45260 0.44320 0.72770 -0.27500
O 	O 	0.38940 0.30565 0.98560 -0.31700
O 	O 	0.42140 0.23930 0.95550 -0.29500
O 	O 	0.68970 0.32650 0.79400 -0.32900
O 	O 	0.72850 0.27550 0.67480 -0.16300
C 	C 	0.48180 0.41900 0.67520 0.33100
C 	C 	0.41900 0.28060 0.93190 0.30400
C 	C 	0.48460 0.36890 0.71790 -0.02900
C 	C 	0.45220 0.34940 0.80090 -0.01800
H 	H 	0.42830 0.36720 0.83620 0.08300
C 	C 	0.45410 0.30260 0.83440 -0.01700
C 	C 	0.49030 0.27670 0.78420 -0.06200
H 	H 	0.49200 0.24560 0.80530 0.08500
C 	C 	0.52370 0.29680 0.70370 0.04400
C 	C 	0.52060 0.34370 0.67040 -0.05800
H 	H 	0.54320 0.35740 0.61560 0.08400
C 	C 	0.68910 0.29460 0.71930 0.58600
C 	C 	0.65080 0.26970 0.66010 -0.08000
C 	C 	0.60710 0.28910 0.69820 -0.00900
H 	H 	0.60700 0.31570 0.75270 0.06800
C 	C 	0.56690 0.27130 0.66000 -0.00100
O 	O 	0.70800 0.32670 0.66900 -0.25700
O 	O 	0.70640 0.28550 0.84400 -0.21800
O 	O 	0.43320 0.48770 0.40780 -0.39400
O 	O 	0.44320 0.54740 0.27230 -0.27900
O 	O 	0.30565 0.61060 0.01440 -0.32800
O 	O 	0.23930 0.57860 0.04450 -0.30500
O 	O 	0.32650 0.31030 0.20600 -0.33400
O 	O 	0.27550 0.27150 0.32520 -0.16500
C 	C 	0.41900 0.51820 0.32480 0.33100
C 	C 	0.28060 0.58100 0.06810 0.30700
C 	C 	0.36890 0.51540 0.28210 -0.03200
C 	C 	0.34940 0.54780 0.19910 -0.01600
H 	H 	0.36720 0.57170 0.16380 0.08000
C 	C 	0.30260 0.54590 0.16560 -0.02100
C 	C 	0.27670 0.50970 0.21580 -0.06100
H 	H 	0.24560 0.50800 0.19470 0.08200
C 	C 	0.29680 0.47630 0.29630 0.04200
C 	C 	0.34370 0.47940 0.32960 -0.05700
H 	H 	0.35740 0.45680 0.38440 0.08400
C 	C 	0.29460 0.31090 0.28070 0.59000
C 	C 	0.26970 0.34920 0.33990 -0.08300
C 	C 	0.28910 0.39290 0.30180 -0.00800
H 	H 	0.31570 0.39300 0.24730 0.06600
C 	C 	0.27130 0.43310 0.34000 -0.00200
O 	O 	0.32670 0.29200 0.33100 -0.25800
O 	O 	0.28550 0.29360 0.15600 -0.22300
O 	O 	0.93320 0.98770 0.90780 -0.35500
O 	O 	0.94320 0.04740 0.77230 -0.26400
O 	O 	0.80565 0.11060 0.51440 -0.32200
O 	O 	0.73930 0.07860 0.54450 -0.30100
O 	O 	0.82650 0.81030 0.70600 -0.32800
O 	O 	0.77550 0.77150 0.82520 -0.16100
C 	C 	0.91900 0.01820 0.82480 0.30600
C 	C 	0.78060 0.08100 0.56810 0.30300
C 	C 	0.86890 0.01540 0.78210 -0.04800
C 	C 	0.84940 0.04780 0.69910 -0.01600
H 	H 	0.86720 0.07170 0.66380 0.08300
C 	C 	0.80260 0.04590 0.66560 -0.01300
C 	C 	0.77670 0.00970 0.71580 -0.09100
H 	H 	0.74560 0.00800 0.69470 0.08700
C 	C 	0.79680 0.97630 0.79630 0.06200
C 	C 	0.84370 0.97940 0.82960 -0.03000
H 	H 	0.85740 0.95680 0.88440 0.08100
C 	C 	0.79460 0.81090 0.78070 0.57800
C 	C 	0.76970 0.84920 0.83990 -0.06200
C 	C 	0.78910 0.89290 0.80180 -0.02300
H 	H 	0.81570 0.89300 0.74730 0.07400
C 	C 	0.77130 0.93310 0.84000 0.01600
O 	O 	0.82670 0.79200 0.83100 -0.25300
O 	O 	0.78550 0.79360 0.65600 -0.21900
O 	O 	0.56680 0.51230 0.40780 -0.39400
O 	O 	0.55680 0.45260 0.27230 -0.27900
O 	O 	0.69435 0.38940 0.01440 -0.32800
O 	O 	0.76070 0.42140 0.04450 -0.30400
O 	O 	0.67350 0.68970 0.20600 -0.33400
O 	O 	0.72450 0.72850 0.32520 -0.16400
C 	C 	0.58100 0.48180 0.32480 0.33100
C 	C 	0.71940 0.41900 0.06810 0.30600
C 	C 	0.63110 0.48460 0.28210 -0.03200
C 	C 	0.65060 0.45220 0.19910 -0.01600
H 	H 	0.63280 0.42830 0.16380 0.08000
C 	C 	0.69740 0.45410 0.16560 -0.02100
C 	C 	0.72330 0.49030 0.21580 -0.06100
H 	H 	0.75440 0.49200 0.19470 0.08300
C 	C 	0.70320 0.52370 0.29630 0.04200
C 	C 	0.65630 0.52060 0.32960 -0.05700
H 	H 	0.64260 0.54320 0.38440 0.08400
C 	C 	0.70540 0.68910 0.28070 0.59000
C 	C 	0.73030 0.65080 0.33990 -0.08400
C 	C 	0.71090 0.60710 0.30180 -0.00800
H 	H 	0.68430 0.60700 0.24730 0.06600
C 	C 	0.72870 0.56690 0.34000 -0.00200
O 	O 	0.67330 0.70800 0.33100 -0.25800
O 	O 	0.71450 0.70640 0.15600 -0.22300
O 	O 	0.06680 0.01230 0.90780 -0.41500
O 	O 	0.05680 0.95260 0.77230 -0.28200
O 	O 	0.19435 0.88940 0.51440 -0.32300
O 	O 	0.26070 0.92140 0.54450 -0.29800
O 	O 	0.17350 0.18970 0.70600 -0.33000
O 	O 	0.22450 0.22850 0.82520 -0.16100
C 	C 	0.08100 0.98180 0.82480 0.35700
C 	C 	0.21940 0.91900 0.56810 0.31000
C 	C 	0.13110 0.98460 0.78210 -0.01200
C 	C 	0.15060 0.95220 0.69910 -0.01300
H 	H 	0.13280 0.92830 0.66380 0.08100
C 	C 	0.19740 0.95410 0.66560 -0.02700
C 	C 	0.22330 0.99030 0.71580 -0.02000
H 	H 	0.25440 0.99200 0.69470 0.07800
C 	C 	0.20320 0.02370 0.79630 0.01100
C 	C 	0.15630 0.02060 0.82960 -0.07600
H 	H 	0.14260 0.04320 0.88440 0.08800
C 	C 	0.20540 0.18910 0.78070 0.57800
C 	C 	0.23030 0.15080 0.83990 -0.06200
C 	C 	0.21090 0.10710 0.80180 -0.02800
H 	H 	0.18430 0.10700 0.74730 0.07200
C 	C 	0.22870 0.06690 0.84000 0.01900
O 	O 	0.17330 0.20800 0.83100 -0.25400
O 	O 	0.21450 0.20640 0.65600 -0.22000
Cd	Cd	0.50000 0.00000 0.75000 1.24500
Cd	Cd	-0.00000 0.50000 0.25000 1.24500
Cd	Cd	-0.00000 0.00000 -0.00000 1.23300
Cd	Cd	0.50000 0.50000 0.50000 1.25200
Cd	Cd	0.35563 0.25000 0.12500 1.28900
Cd	Cd	0.64437 0.75000 0.12500 1.28900
Cd	Cd	0.14437 0.25000 0.62500 1.29000
Cd	Cd	0.25000 0.64437 0.87500 1.29200
Cd	Cd	0.75000 0.14437 0.37500 1.29000
Cd	Cd	0.75000 0.35563 0.87500 1.29200
Cd	Cd	0.25000 0.85563 0.37500 1.29000
Cd	Cd	0.85563 0.75000 0.62500 1.29000
