data_crystal

_cell_length_a 28.16600
_cell_length_b 28.16600
_cell_length_c 9.71990
_cell_angle_alpha 90.00000
_cell_angle_beta  90.00000
_cell_angle_gamma 90.00000

_symmetry_space_group_name_	'P 1'
_symmetry_space_group_name_H-M	'P 1'

loop_
_symmetry_equiv_pos_as_xyz
  x,y,z

loop_
_atom_site_label
_atom_site_type_symbol
_atom_site_fract_x
_atom_site_fract_y
_atom_site_fract_z
_atom_site_charge
O 	O 	0.98589 0.43865 0.66380 -0.39700
O 	O 	0.04323 0.44520 0.51040 -0.26700
O 	O 	0.09461 0.30062 0.25380 -0.38400
O 	O 	0.05750 0.23396 0.28480 -0.33300
O 	O 	0.79458 0.33712 0.47820 -0.41900
O 	O 	0.74398 0.28615 0.56270 -0.43700
C 	C 	0.01261 0.42270 0.57260 0.32600
C 	C 	0.06260 0.27630 0.31110 0.32200
C 	C 	0.00560 0.37093 0.53170 -0.08700
C 	C 	0.03594 0.34920 0.44650 0.03200
H 	H 	0.06150 0.36610 0.41070 0.06300
C 	C 	0.02989 0.30110 0.41020 -0.08900
C 	C 	0.99240 0.27617 0.46650 0.01400
H 	H 	0.98930 0.24390 0.44860 0.06300
C 	C 	0.95924 0.29871 0.54930 -0.00000
C 	C 	0.96569 0.34574 0.58380 0.00900
H 	H 	0.94400 0.36090 0.64100 0.06300
C 	C 	0.78640 0.30020 0.54320 0.39700
C 	C 	0.82863 0.27305 0.59200 -0.06600
C 	C 	0.87178 0.29283 0.56410 -0.02500
H 	H 	0.87220 0.32220 0.52020 0.07400
C 	C 	0.91527 0.27221 0.59650 0.00900
H 	H 	0.74430 0.26020 0.60080 0.19500
O 	O 	0.48589 0.93865 0.16380 -0.41800
O 	O 	0.54323 0.94520 0.01040 -0.26400
O 	O 	0.59461 0.80062 0.75380 -0.37600
O 	O 	0.55750 0.73396 0.78480 -0.31800
O 	O 	0.29458 0.83712 0.97820 -0.40100
O 	O 	0.24398 0.78615 0.06270 -0.43600
C 	C 	0.51261 0.92270 0.07260 0.35000
C 	C 	0.56260 0.77630 0.81110 0.31300
C 	C 	0.50560 0.87093 0.03170 -0.07200
C 	C 	0.53594 0.84920 0.94650 0.03200
H 	H 	0.56150 0.86610 0.91070 0.07000
C 	C 	0.52989 0.80110 0.91020 -0.05300
C 	C 	0.49240 0.77617 0.96650 -0.01300
H 	H 	0.48930 0.74390 0.94860 0.07000
C 	C 	0.45924 0.79871 0.04930 0.00100
C 	C 	0.46569 0.84574 0.08380 -0.02500
H 	H 	0.44400 0.86090 0.14100 0.07000
C 	C 	0.28640 0.80020 0.04320 0.37600
C 	C 	0.32863 0.77305 0.09200 -0.05800
C 	C 	0.37178 0.79283 0.06410 -0.03400
H 	H 	0.37220 0.82220 0.02020 0.07300
C 	C 	0.41527 0.77221 0.09650 0.01300
H 	H 	0.24430 0.76020 0.10080 0.18900
O 	O 	0.01411 0.56135 0.66380 -0.44600
O 	O 	0.95677 0.55480 0.51040 -0.26500
O 	O 	0.90539 0.69938 0.25380 -0.37400
O 	O 	0.94250 0.76604 0.28480 -0.30900
O 	O 	0.20542 0.66288 0.47820 -0.42100
O 	O 	0.25602 0.71385 0.56270 -0.43900
C 	C 	0.98739 0.57730 0.57260 0.35600
C 	C 	0.93740 0.72370 0.31110 0.28600
C 	C 	0.99440 0.62907 0.53170 0.01400
C 	C 	0.96406 0.65080 0.44650 -0.05300
H 	H 	0.93850 0.63390 0.41070 0.09200
C 	C 	0.97011 0.69890 0.41020 0.02800
C 	C 	0.00760 0.72383 0.46650 -0.12500
H 	H 	0.01070 0.75610 0.44860 0.09500
C 	C 	0.04076 0.70129 0.54930 0.07500
C 	C 	0.03431 0.65426 0.58380 -0.11500
H 	H 	0.05600 0.63910 0.64100 0.09700
C 	C 	0.21360 0.69980 0.54320 0.39800
C 	C 	0.17137 0.72695 0.59200 -0.06900
C 	C 	0.12822 0.70717 0.56410 -0.01500
H 	H 	0.12780 0.67780 0.52020 0.06800
C 	C 	0.08473 0.72779 0.59650 -0.01200
H 	H 	0.25570 0.73980 0.60080 0.19500
O 	O 	0.51411 0.06135 0.16380 -0.43300
O 	O 	0.45677 0.05480 0.01040 -0.28200
O 	O 	0.40539 0.19938 0.75380 -0.37900
O 	O 	0.44250 0.26604 0.78480 -0.31900
O 	O 	0.70542 0.16288 0.97820 -0.40200
O 	O 	0.75602 0.21385 0.06270 -0.43500
C 	C 	0.48739 0.07730 0.07260 0.35400
C 	C 	0.43740 0.22370 0.81110 0.31400
C 	C 	0.49440 0.12907 0.03170 -0.07900
C 	C 	0.46406 0.15080 0.94650 0.03600
H 	H 	0.43850 0.13390 0.91070 0.06500
C 	C 	0.47011 0.19890 0.91020 -0.05600
C 	C 	0.50760 0.22383 0.96650 -0.01100
H 	H 	0.51070 0.25610 0.94860 0.07000
C 	C 	0.54076 0.20129 0.04930 -0.00200
C 	C 	0.53431 0.15426 0.08380 -0.02200
H 	H 	0.55600 0.13910 0.14100 0.06700
C 	C 	0.71360 0.19980 0.04320 0.37500
C 	C 	0.67137 0.22695 0.09200 -0.05800
C 	C 	0.62822 0.20717 0.06410 -0.03400
H 	H 	0.62780 0.17780 0.02020 0.07200
C 	C 	0.58473 0.22779 0.09650 0.01300
H 	H 	0.75570 0.23980 0.10080 0.19000
O 	O 	0.43865 0.01411 0.33620 -0.44600
O 	O 	0.44520 0.95677 0.48960 -0.26100
O 	O 	0.30062 0.90539 0.74620 -0.36800
O 	O 	0.23396 0.94250 0.71520 -0.30300
O 	O 	0.33712 0.20542 0.52180 -0.42100
O 	O 	0.28615 0.25602 0.43730 -0.44100
C 	C 	0.42270 0.98739 0.42740 0.35600
C 	C 	0.27630 0.93740 0.68890 0.28500
C 	C 	0.37093 0.99440 0.46830 0.01700
C 	C 	0.34920 0.96406 0.55350 -0.05400
H 	H 	0.36610 0.93850 0.58930 0.09500
C 	C 	0.30110 0.97011 0.58980 0.03200
C 	C 	0.27617 0.00760 0.53350 -0.12600
H 	H 	0.24390 0.01070 0.55140 0.09700
C 	C 	0.29871 0.04076 0.45070 0.07600
C 	C 	0.34574 0.03431 0.41620 -0.11600
H 	H 	0.36090 0.05600 0.35900 0.09600
C 	C 	0.30020 0.21360 0.45680 0.39700
C 	C 	0.27305 0.17137 0.40800 -0.07000
C 	C 	0.29283 0.12822 0.43590 -0.01600
H 	H 	0.32220 0.12780 0.47980 0.06800
C 	C 	0.27221 0.08473 0.40350 -0.01300
H 	H 	0.26020 0.25570 0.39920 0.19400
O 	O 	0.93865 0.51411 0.83620 -0.41000
O 	O 	0.94520 0.45677 0.98960 -0.24700
O 	O 	0.80062 0.40539 0.24620 -0.37400
O 	O 	0.73396 0.44250 0.21520 -0.31700
O 	O 	0.83712 0.70542 0.02180 -0.44000
O 	O 	0.78615 0.75602 0.93730 -0.44300
C 	C 	0.92270 0.48739 0.92740 0.32500
C 	C 	0.77630 0.43740 0.18890 0.29100
C 	C 	0.87093 0.49440 0.96830 0.01000
C 	C 	0.84920 0.46406 0.05350 -0.06300
H 	H 	0.86610 0.43850 0.08930 0.09300
C 	C 	0.80110 0.47011 0.08980 0.00100
C 	C 	0.77617 0.50760 0.03350 -0.10500
H 	H 	0.74390 0.51070 0.05140 0.09100
C 	C 	0.79871 0.54076 0.95070 0.08100
C 	C 	0.84574 0.53431 0.91620 -0.08600
H 	H 	0.86090 0.55600 0.85900 0.09200
C 	C 	0.80020 0.71360 0.95680 0.42000
C 	C 	0.77305 0.67137 0.90800 -0.07800
C 	C 	0.79283 0.62822 0.93590 -0.00600
H 	H 	0.82220 0.62780 0.97980 0.07000
C 	C 	0.77221 0.58473 0.90350 -0.01800
H 	H 	0.76020 0.75570 0.89920 0.20000
O 	O 	0.56135 0.98589 0.33620 -0.39800
O 	O 	0.55480 0.04323 0.48960 -0.26400
O 	O 	0.69938 0.09461 0.74620 -0.37900
O 	O 	0.76604 0.05750 0.71520 -0.32600
O 	O 	0.66288 0.79458 0.52180 -0.42000
O 	O 	0.71385 0.74398 0.43730 -0.44100
C 	C 	0.57730 0.01261 0.42740 0.32400
C 	C 	0.72370 0.06260 0.68890 0.32000
C 	C 	0.62907 0.00560 0.46830 -0.08500
C 	C 	0.65080 0.03594 0.55350 0.02900
H 	H 	0.63390 0.06150 0.58930 0.06500
C 	C 	0.69890 0.02989 0.58980 -0.08500
C 	C 	0.72383 0.99240 0.53350 0.01100
H 	H 	0.75610 0.98930 0.55140 0.06600
C 	C 	0.70129 0.95924 0.45070 0.00200
C 	C 	0.65426 0.96569 0.41620 0.00800
H 	H 	0.63910 0.94400 0.35900 0.06200
C 	C 	0.69980 0.78640 0.45680 0.39600
C 	C 	0.72695 0.82863 0.40800 -0.06600
C 	C 	0.70717 0.87178 0.43590 -0.02500
H 	H 	0.67780 0.87220 0.47980 0.07500
C 	C 	0.72779 0.91527 0.40350 0.00900
H 	H 	0.73980 0.74430 0.39920 0.19400
O 	O 	0.06135 0.48589 0.83620 -0.42500
O 	O 	0.05480 0.54323 0.98960 -0.26400
O 	O 	0.19938 0.59461 0.24620 -0.37700
O 	O 	0.26604 0.55750 0.21520 -0.31800
O 	O 	0.16288 0.29458 0.02180 -0.44100
O 	O 	0.21385 0.24398 0.93730 -0.44500
C 	C 	0.07730 0.51261 0.92740 0.33000
C 	C 	0.22370 0.56260 0.18890 0.29200
C 	C 	0.12907 0.50560 0.96830 0.00300
C 	C 	0.15080 0.53594 0.05350 -0.05900
H 	H 	0.13390 0.56150 0.08930 0.08800
C 	C 	0.19890 0.52989 0.08980 -0.00300
C 	C 	0.22383 0.49240 0.03350 -0.10300
H 	H 	0.25610 0.48930 0.05140 0.09000
C 	C 	0.20129 0.45924 0.95070 0.07800
C 	C 	0.15426 0.46569 0.91620 -0.08300
H 	H 	0.13910 0.44400 0.85900 0.08900
C 	C 	0.19980 0.28640 0.95680 0.42000
C 	C 	0.22695 0.32863 0.90800 -0.07800
C 	C 	0.20717 0.37178 0.93590 -0.00600
H 	H 	0.17780 0.37220 0.97980 0.07000
C 	C 	0.22779 0.41527 0.90350 -0.01800
H 	H 	0.23980 0.24430 0.89920 0.20000
O 	O 	0.51411 0.43865 0.08620 -0.42900
O 	O 	0.45677 0.44520 0.23960 -0.26800
O 	O 	0.40539 0.30062 0.49620 -0.37700
O 	O 	0.44250 0.23396 0.46520 -0.31900
O 	O 	0.70542 0.33712 0.27180 -0.42200
O 	O 	0.75602 0.28615 0.18730 -0.44400
C 	C 	0.48739 0.42270 0.17740 0.34100
C 	C 	0.43740 0.27630 0.43890 0.30300
C 	C 	0.49440 0.37093 0.21830 -0.03800
C 	C 	0.46406 0.34920 0.30350 -0.01200
H 	H 	0.43850 0.36610 0.33930 0.07800
C 	C 	0.47011 0.30110 0.33980 -0.02900
C 	C 	0.50760 0.27617 0.28350 -0.05900
H 	H 	0.51070 0.24390 0.30140 0.08000
C 	C 	0.54076 0.29871 0.20070 0.04000
C 	C 	0.53431 0.34574 0.16620 -0.05500
H 	H 	0.55600 0.36090 0.10900 0.07800
C 	C 	0.71360 0.30020 0.20680 0.40000
C 	C 	0.67137 0.27305 0.15800 -0.07600
C 	C 	0.62822 0.29283 0.18590 -0.01300
H 	H 	0.62780 0.32220 0.22980 0.06800
C 	C 	0.58473 0.27221 0.15350 -0.01200
H 	H 	0.75570 0.26020 0.14920 0.19800
O 	O 	0.01411 0.93865 0.58620 -0.43600
O 	O 	0.95677 0.94520 0.73960 -0.25200
O 	O 	0.90539 0.80062 0.99620 -0.36200
O 	O 	0.94250 0.73396 0.96520 -0.30000
O 	O 	0.20542 0.83712 0.77180 -0.41800
O 	O 	0.25602 0.78615 0.68730 -0.43700
C 	C 	0.98739 0.92270 0.67740 0.35200
C 	C 	0.93740 0.77630 0.93890 0.28400
C 	C 	0.99440 0.87093 0.71830 0.02000
C 	C 	0.96406 0.84920 0.80350 -0.05600
H 	H 	0.93850 0.86610 0.83930 0.09800
C 	C 	0.97011 0.80110 0.83980 0.03400
C 	C 	0.00760 0.77617 0.78350 -0.12600
H 	H 	0.01070 0.74390 0.80140 0.09700
C 	C 	0.04076 0.79871 0.70070 0.07800
C 	C 	0.03431 0.84574 0.66620 -0.11600
H 	H 	0.05600 0.86090 0.60900 0.09800
C 	C 	0.21360 0.80020 0.70680 0.39700
C 	C 	0.17137 0.77305 0.65800 -0.06800
C 	C 	0.12822 0.79283 0.68590 -0.01600
H 	H 	0.12780 0.82220 0.72980 0.07000
C 	C 	0.08473 0.77221 0.65350 -0.01200
H 	H 	0.25570 0.76020 0.64920 0.19400
O 	O 	0.48589 0.56135 0.08620 -0.42900
O 	O 	0.54323 0.55480 0.23960 -0.26800
O 	O 	0.59461 0.69938 0.49620 -0.37700
O 	O 	0.55750 0.76604 0.46520 -0.31800
O 	O 	0.29458 0.66288 0.27180 -0.42200
O 	O 	0.24398 0.71385 0.18730 -0.44500
C 	C 	0.51261 0.57730 0.17740 0.34100
C 	C 	0.56260 0.72370 0.43890 0.30200
C 	C 	0.50560 0.62907 0.21830 -0.03800
C 	C 	0.53594 0.65080 0.30350 -0.01200
H 	H 	0.56150 0.63390 0.33930 0.07800
C 	C 	0.52989 0.69890 0.33980 -0.02900
C 	C 	0.49240 0.72383 0.28350 -0.05900
H 	H 	0.48930 0.75610 0.30140 0.08100
C 	C 	0.45924 0.70129 0.20070 0.04000
C 	C 	0.46569 0.65426 0.16620 -0.05500
H 	H 	0.44400 0.63910 0.10900 0.07800
C 	C 	0.28640 0.69980 0.20680 0.40000
C 	C 	0.32863 0.72695 0.15800 -0.07600
C 	C 	0.37178 0.70717 0.18590 -0.01300
H 	H 	0.37220 0.67780 0.22980 0.06800
C 	C 	0.41527 0.72779 0.15350 -0.01200
H 	H 	0.24430 0.73980 0.14920 0.19800
O 	O 	0.98589 0.06135 0.58620 -0.40300
O 	O 	0.04323 0.05480 0.73960 -0.27100
O 	O 	0.09461 0.19938 0.99620 -0.37600
O 	O 	0.05750 0.26604 0.96520 -0.32300
O 	O 	0.79458 0.16288 0.77180 -0.41700
O 	O 	0.74398 0.21385 0.68730 -0.43700
C 	C 	0.01261 0.07730 0.67740 0.32600
C 	C 	0.06260 0.22370 0.93890 0.32000
C 	C 	0.00560 0.12907 0.71830 -0.08800
C 	C 	0.03594 0.15080 0.80350 0.03100
H 	H 	0.06150 0.13390 0.83930 0.06400
C 	C 	0.02989 0.19890 0.83980 -0.08600
C 	C 	0.99240 0.22383 0.78350 0.01300
H 	H 	0.98930 0.25610 0.80140 0.06500
C 	C 	0.95924 0.20129 0.70070 0.00100
C 	C 	0.96569 0.15426 0.66620 0.01000
H 	H 	0.94400 0.13910 0.60900 0.06100
C 	C 	0.78640 0.19980 0.70680 0.39600
C 	C 	0.82863 0.22695 0.65800 -0.06500
C 	C 	0.87178 0.20717 0.68590 -0.02500
H 	H 	0.87220 0.17780 0.72980 0.07500
C 	C 	0.91527 0.22779 0.65350 0.00900
H 	H 	0.74430 0.23980 0.64920 0.19400
O 	O 	0.06135 0.01411 0.41380 -0.45200
O 	O 	0.05480 0.95677 0.26040 -0.27400
O 	O 	0.19938 0.90539 0.00380 -0.37900
O 	O 	0.26604 0.94250 0.03480 -0.31300
O 	O 	0.16288 0.20542 0.22820 -0.42500
O 	O 	0.21385 0.25602 0.31270 -0.44300
C 	C 	0.07730 0.98739 0.32260 0.35800
C 	C 	0.22370 0.93740 0.06110 0.28700
C 	C 	0.12907 0.99440 0.28170 0.01100
C 	C 	0.15080 0.96406 0.19650 -0.05100
H 	H 	0.13390 0.93850 0.16070 0.09000
C 	C 	0.19890 0.97011 0.16020 0.02600
C 	C 	0.22383 0.00760 0.21650 -0.12400
H 	H 	0.25610 0.01070 0.19860 0.09400
C 	C 	0.20129 0.04076 0.29930 0.07300
C 	C 	0.15426 0.03431 0.33380 -0.11400
H 	H 	0.13910 0.05600 0.39100 0.09500
C 	C 	0.19980 0.21360 0.29320 0.39800
C 	C 	0.22695 0.17137 0.34200 -0.07100
C 	C 	0.20717 0.12822 0.31410 -0.01500
H 	H 	0.17780 0.12780 0.27020 0.06600
C 	C 	0.22779 0.08473 0.34650 -0.01300
H 	H 	0.23980 0.25570 0.35080 0.19500
O 	O 	0.56135 0.51411 0.91380 -0.41600
O 	O 	0.55480 0.45677 0.76040 -0.26200
O 	O 	0.69938 0.40539 0.50380 -0.37600
O 	O 	0.76604 0.44250 0.53480 -0.31700
O 	O 	0.66288 0.70542 0.72820 -0.41900
O 	O 	0.71385 0.75602 0.81270 -0.43400
C 	C 	0.57730 0.48739 0.82260 0.34000
C 	C 	0.72370 0.43740 0.56110 0.30300
C 	C 	0.62907 0.49440 0.78170 -0.03400
C 	C 	0.65080 0.46406 0.69650 -0.01100
H 	H 	0.63390 0.43850 0.66070 0.08000
C 	C 	0.69890 0.47011 0.66020 -0.02800
C 	C 	0.72383 0.50760 0.71650 -0.05400
H 	H 	0.75610 0.51070 0.69860 0.08000
C 	C 	0.70129 0.54076 0.79930 0.03600
C 	C 	0.65426 0.53431 0.83380 -0.05100
H 	H 	0.63910 0.55600 0.89100 0.08100
C 	C 	0.69980 0.71360 0.79320 0.39400
C 	C 	0.72695 0.67137 0.84200 -0.06000
C 	C 	0.70717 0.62822 0.81410 -0.02700
H 	H 	0.67780 0.62780 0.77020 0.07400
C 	C 	0.72779 0.58473 0.84650 0.00900
H 	H 	0.73980 0.75570 0.85080 0.19100
O 	O 	0.93865 0.98589 0.41380 -0.39000
O 	O 	0.94520 0.04323 0.26040 -0.26000
O 	O 	0.80062 0.09461 0.00380 -0.38800
O 	O 	0.73396 0.05750 0.03480 -0.33600
O 	O 	0.83712 0.79458 0.22820 -0.42300
O 	O 	0.78615 0.74398 0.31270 -0.44200
C 	C 	0.92270 0.01261 0.32260 0.32300
C 	C 	0.77630 0.06260 0.06110 0.32100
C 	C 	0.87093 0.00560 0.28170 -0.08500
C 	C 	0.84920 0.03594 0.19650 0.02800
H 	H 	0.86610 0.06150 0.16070 0.06400
C 	C 	0.80110 0.02989 0.16020 -0.08800
C 	C 	0.77617 0.99240 0.21650 0.01100
H 	H 	0.74390 0.98930 0.19860 0.06300
C 	C 	0.79871 0.95924 0.29930 0.00100
C 	C 	0.84574 0.96569 0.33380 0.00700
H 	H 	0.86090 0.94400 0.39100 0.06400
C 	C 	0.80020 0.78640 0.29320 0.39700
C 	C 	0.77305 0.82863 0.34200 -0.06700
C 	C 	0.79283 0.87178 0.31410 -0.02500
H 	H 	0.82220 0.87220 0.27020 0.07300
C 	C 	0.77221 0.91527 0.34650 0.00800
H 	H 	0.76020 0.74430 0.35080 0.19400
O 	O 	0.43865 0.48589 0.91380 -0.41500
O 	O 	0.44520 0.54323 0.76040 -0.26200
O 	O 	0.30062 0.59461 0.50380 -0.37600
O 	O 	0.23396 0.55750 0.53480 -0.31800
O 	O 	0.33712 0.29458 0.72820 -0.41900
O 	O 	0.28615 0.24398 0.81270 -0.43500
C 	C 	0.42270 0.51261 0.82260 0.34000
C 	C 	0.27630 0.56260 0.56110 0.30400
C 	C 	0.37093 0.50560 0.78170 -0.03400
C 	C 	0.34920 0.53594 0.69650 -0.01100
H 	H 	0.36610 0.56150 0.66070 0.08000
C 	C 	0.30110 0.52989 0.66020 -0.02900
C 	C 	0.27617 0.49240 0.71650 -0.05400
H 	H 	0.24390 0.48930 0.69860 0.07900
C 	C 	0.29871 0.45924 0.79930 0.03600
C 	C 	0.34574 0.46569 0.83380 -0.05100
H 	H 	0.36090 0.44400 0.89100 0.08100
C 	C 	0.30020 0.28640 0.79320 0.39400
C 	C 	0.27305 0.32863 0.84200 -0.06000
C 	C 	0.29283 0.37178 0.81410 -0.02700
H 	H 	0.32220 0.37220 0.77020 0.07400
C 	C 	0.27221 0.41527 0.84650 0.00900
H 	H 	0.26020 0.24430 0.85080 0.19100
Zn	Zn	-0.00000 0.50000 0.75000 1.23800
Zn	Zn	0.50000 -0.00000 0.25000 1.23800
Zn	Zn	0.50000 0.50000 -0.00000 1.24100
Zn	Zn	-0.00000 -0.00000 0.50000 1.23100
Zn	Zn	0.12032 0.25000 0.12500 1.24600
Zn	Zn	0.87968 0.75000 0.12500 1.24600
Zn	Zn	0.37968 0.25000 0.62500 1.24900
Zn	Zn	0.25000 0.87968 0.87500 1.25100
Zn	Zn	0.75000 0.37968 0.37500 1.24900
Zn	Zn	0.75000 0.12032 0.87500 1.25100
Zn	Zn	0.25000 0.62032 0.37500 1.24900
Zn	Zn	0.62032 0.75000 0.62500 1.24900
