data_crystal

_cell_length_a 9.86690
_cell_length_b 10.42500
_cell_length_c 12.43970
_cell_angle_alpha 111.31600
_cell_angle_beta  102.56800
_cell_angle_gamma 93.86250

_symmetry_space_group_name_	'P 1'
_symmetry_space_group_name_H-M	'P 1'

loop_
_symmetry_equiv_pos_as_xyz
  x,y,z

loop_
_atom_site_label
_atom_site_type_symbol
_atom_site_fract_x
_atom_site_fract_y
_atom_site_fract_z
_atom_site_charge
C 	C 	0.73860 0.30280 0.40800 0.35600
C 	C 	0.89460 0.32240 0.46190 -0.04300
C 	C 	0.94760 0.39600 0.58440 -0.07600
H 	H 	0.88780 0.43380 0.63190 0.09300
C 	C 	0.08930 0.41210 0.63440 0.11900
C 	C 	0.18190 0.36000 0.56590 -0.08200
H 	H 	0.27760 0.37210 0.60130 0.08600
C 	C 	0.12850 0.28930 0.44320 -0.04700
C 	C 	0.98460 0.26950 0.39140 -0.00500
H 	H 	0.94900 0.22080 0.30940 0.07600
C 	C 	0.22620 0.23640 0.36680 0.32800
C 	C 	0.29850 0.52990 0.94090 0.13300
C 	C 	0.32660 0.67520 0.98960 -0.09800
H 	H 	0.30560 0.72510 0.94110 0.10500
C 	C 	0.38630 0.74430 0.11130 -0.00700
C 	C 	0.41680 0.66850 0.18290 -0.02100
H 	H 	0.45620 0.71510 0.26470 0.07800
C 	C 	0.38880 0.52370 0.13330 -0.03200
C 	C 	0.33180 0.45430 0.01090 -0.08800
H 	H 	0.31630 0.35730 0.97650 0.10800
C 	C 	0.42280 0.44140 0.21050 0.36500
C 	C 	0.41440 0.90100 0.16550 0.29600
Cd	Cd	0.45330 0.17885 0.25827 1.24000
N 	N 	0.14160 0.49050 0.76220 -0.04100
N 	N 	0.24310 0.45170 0.81460 -0.05000
O 	O 	0.68950 0.22460 0.30030 -0.39800
O 	O 	0.66610 0.36340 0.47580 -0.44600
O 	O 	0.18140 0.14570 0.26470 -0.30200
O 	O 	0.35760 0.28620 0.41110 -0.50400
O 	O 	0.39470 0.31060 0.15830 -0.41400
O 	O 	0.47660 0.50700 0.31900 -0.43500
O 	O 	0.38920 0.96610 0.09900 -0.34900
O 	O 	0.46100 0.96180 0.27620 -0.34200
O 	O 	0.06530 0.57400 0.81310 -0.11300
O 	O 	0.25030 0.31720 0.77790 -0.11200
C 	C 	0.26140 0.69720 0.59200 0.35500
C 	C 	0.10540 0.67760 0.53810 -0.04400
C 	C 	0.05240 0.60400 0.41560 -0.07700
H 	H 	0.11220 0.56620 0.36810 0.09300
C 	C 	0.91070 0.58790 0.36560 0.11900
C 	C 	0.81810 0.64000 0.43410 -0.08200
H 	H 	0.72240 0.62790 0.39870 0.08600
C 	C 	0.87150 0.71070 0.55680 -0.04700
C 	C 	0.01540 0.73050 0.60860 -0.00500
H 	H 	0.05100 0.77920 0.69060 0.07600
C 	C 	0.77380 0.76360 0.63320 0.32800
C 	C 	0.70150 0.47010 0.05910 0.13300
C 	C 	0.67340 0.32480 0.01040 -0.09800
H 	H 	0.69440 0.27490 0.05890 0.10500
C 	C 	0.61370 0.25570 0.88870 -0.00700
C 	C 	0.58320 0.33150 0.81710 -0.02100
H 	H 	0.54380 0.28490 0.73530 0.07800
C 	C 	0.61120 0.47630 0.86670 -0.03200
C 	C 	0.66820 0.54570 0.98910 -0.08800
H 	H 	0.68370 0.64270 0.02350 0.10800
C 	C 	0.57720 0.55860 0.78950 0.36500
C 	C 	0.58560 0.09900 0.83450 0.29600
Cd	Cd	0.54670 0.82115 0.74173 1.24000
N 	N 	0.85840 0.50950 0.23780 -0.04100
N 	N 	0.75690 0.54830 0.18540 -0.05000
O 	O 	0.31050 0.77540 0.69970 -0.39800
O 	O 	0.33390 0.63660 0.52420 -0.44600
O 	O 	0.81860 0.85430 0.73530 -0.30200
O 	O 	0.64240 0.71380 0.58890 -0.50400
O 	O 	0.60530 0.68940 0.84170 -0.41400
O 	O 	0.52340 0.49300 0.68100 -0.43500
O 	O 	0.61080 0.03390 0.90100 -0.34900
O 	O 	0.53900 0.03820 0.72380 -0.34200
O 	O 	0.93470 0.42600 0.18690 -0.11300
O 	O 	0.74970 0.68280 0.22210 -0.11200
Cd	Cd	0.50000 0.50000 0.50000 1.24700
