data_crystal

_cell_length_a 23.48200
_cell_length_b 16.72310
_cell_length_c 7.70660
_cell_angle_alpha 90.00000
_cell_angle_beta  104.71600
_cell_angle_gamma 90.00000

_symmetry_space_group_name_	'P 1'
_symmetry_space_group_name_H-M	'P 1'

loop_
_symmetry_equiv_pos_as_xyz
  x,y,z

loop_
_atom_site_label
_atom_site_type_symbol
_atom_site_fract_x
_atom_site_fract_y
_atom_site_fract_z
_atom_site_charge
C 	C 	0.70667 0.09600 0.24830 0.37300
C 	C 	0.68595 0.16640 0.33170 -0.07100
C 	C 	0.69362 0.24140 0.26890 0.01600
H 	H 	0.70950 0.24780 0.17090 0.06000
C 	C 	0.67747 0.30730 0.35260 -0.07800
C 	C 	0.65269 0.29860 0.49660 -0.09100
H 	H 	0.64160 0.34340 0.55140 0.07700
C 	C 	0.64460 0.22270 0.55850 0.16000
C 	C 	0.66130 0.15640 0.47710 -0.10500
H 	H 	0.65630 0.10540 0.51890 0.06800
C 	C 	0.68910 0.38900 0.29000 0.40900
C 	C 	0.60590 0.14290 0.75450 -0.02800
H 	H 	0.64160 0.11140 0.79380 0.04300
H 	H 	0.58000 0.11580 0.65360 0.04600
C 	C 	0.57590 0.15070 0.90650 0.06700
C 	C 	0.57026 0.08210 0.99960 -0.09400
H 	H 	0.58640 0.03450 0.97190 0.06300
C 	C 	0.54109 0.08340 0.13260 -0.02400
H 	H 	0.53760 0.03630 0.19340 0.03800
C 	C 	0.51683 0.15260 0.17820 0.00100
C 	C 	0.52330 0.22250 0.08750 -0.02300
H 	H 	0.50800 0.27040 0.11720 0.04500
C 	C 	0.55289 0.22060 0.95150 -0.08400
H 	H 	0.55700 0.26740 0.89080 0.07900
O 	O 	0.72702 0.10744 0.11550 -0.47300
O 	O 	0.70329 0.02659 0.31400 -0.48700
O 	O 	0.70146 0.39430 0.14170 -0.49400
O 	O 	0.68556 0.44729 0.39110 -0.51100
O 	O 	0.62001 0.21970 0.70120 -0.21100
Zn	Zn	0.76425 0.03195 0.99118 1.23600
C 	C 	0.20667 0.59600 0.24830 0.37200
C 	C 	0.18595 0.66640 0.33170 -0.07300
C 	C 	0.19362 0.74140 0.26890 0.01500
H 	H 	0.20950 0.74780 0.17090 0.05800
C 	C 	0.17747 0.80730 0.35260 -0.07900
C 	C 	0.15269 0.79860 0.49660 -0.09200
H 	H 	0.14160 0.84340 0.55140 0.07700
C 	C 	0.14460 0.72270 0.55850 0.16000
C 	C 	0.16130 0.65640 0.47710 -0.10500
H 	H 	0.15630 0.60540 0.51890 0.06800
C 	C 	0.18910 0.88900 0.29000 0.40900
C 	C 	0.10590 0.64290 0.75450 -0.02300
H 	H 	0.14160 0.61140 0.79380 0.04200
H 	H 	0.08000 0.61580 0.65360 0.04400
C 	C 	0.07590 0.65070 0.90650 0.05800
C 	C 	0.07026 0.58210 0.99960 -0.08000
H 	H 	0.08640 0.53450 0.97190 0.05900
C 	C 	0.04109 0.58340 0.13260 -0.03700
H 	H 	0.03760 0.53630 0.19340 0.04200
C 	C 	0.01683 0.65260 0.17820 0.01000
C 	C 	0.02330 0.72250 0.08750 -0.03600
H 	H 	0.00800 0.77040 0.11720 0.04900
C 	C 	0.05289 0.72060 0.95150 -0.07100
H 	H 	0.05700 0.76740 0.89080 0.07500
O 	O 	0.22702 0.60744 0.11550 -0.47500
O 	O 	0.20329 0.52659 0.31400 -0.48800
O 	O 	0.20146 0.89430 0.14170 -0.49500
O 	O 	0.18556 0.94729 0.39110 -0.51100
O 	O 	0.12001 0.71970 0.70120 -0.21200
Zn	Zn	0.26425 0.53195 0.99118 1.23700
C 	C 	0.29333 0.09600 0.25170 0.37400
C 	C 	0.31405 0.16640 0.16830 -0.07700
C 	C 	0.30638 0.24140 0.23110 0.01900
H 	H 	0.29050 0.24780 0.32910 0.05700
C 	C 	0.32253 0.30730 0.14740 -0.08300
C 	C 	0.34731 0.29860 0.00340 -0.08400
H 	H 	0.35840 0.34340 0.94860 0.07300
C 	C 	0.35540 0.22270 0.94150 0.15200
C 	C 	0.33870 0.15640 0.02290 -0.09500
H 	H 	0.34370 0.10540 0.98110 0.06300
C 	C 	0.31090 0.38900 0.21000 0.41000
C 	C 	0.39410 0.14290 0.74550 -0.02400
H 	H 	0.35840 0.11140 0.70620 0.04300
H 	H 	0.42000 0.11580 0.84640 0.04500
C 	C 	0.42410 0.15070 0.59350 0.05900
C 	C 	0.42974 0.08210 0.50040 -0.08200
H 	H 	0.41360 0.03450 0.52810 0.05900
C 	C 	0.45891 0.08340 0.36740 -0.03600
H 	H 	0.46240 0.03630 0.30660 0.04200
C 	C 	0.48317 0.15260 0.32180 0.01100
C 	C 	0.47670 0.22250 0.41250 -0.03400
H 	H 	0.49200 0.27040 0.38280 0.04900
C 	C 	0.44711 0.22060 0.54850 -0.07300
H 	H 	0.44300 0.26740 0.60920 0.07500
O 	O 	0.27298 0.10744 0.38450 -0.47500
O 	O 	0.29671 0.02659 0.18600 -0.48700
O 	O 	0.29854 0.39430 0.35830 -0.49500
O 	O 	0.31444 0.44729 0.10890 -0.51100
O 	O 	0.37999 0.21970 0.79880 -0.21000
Zn	Zn	0.23575 0.03195 0.50882 1.23700
C 	C 	0.79333 0.59600 0.25170 0.37100
C 	C 	0.81405 0.66640 0.16830 -0.06900
C 	C 	0.80638 0.74140 0.23110 0.01100
H 	H 	0.79050 0.74780 0.32910 0.06000
C 	C 	0.82253 0.80730 0.14740 -0.07500
C 	C 	0.84731 0.79860 0.00340 -0.10000
H 	H 	0.85840 0.84340 0.94860 0.08000
C 	C 	0.85540 0.72270 0.94150 0.16600
C 	C 	0.83870 0.65640 0.02290 -0.11100
H 	H 	0.84370 0.60540 0.98110 0.07000
C 	C 	0.81090 0.88900 0.21000 0.40700
C 	C 	0.89410 0.64290 0.74550 -0.02400
H 	H 	0.85840 0.61140 0.70620 0.04200
H 	H 	0.92000 0.61580 0.84640 0.04500
C 	C 	0.92410 0.65070 0.59350 0.06100
C 	C 	0.92974 0.58210 0.50040 -0.08400
H 	H 	0.91360 0.53450 0.52810 0.06000
C 	C 	0.95891 0.58340 0.36740 -0.03200
H 	H 	0.96240 0.53630 0.30660 0.04000
C 	C 	0.98317 0.65260 0.32180 0.00600
C 	C 	0.97670 0.72250 0.41250 -0.03000
H 	H 	0.99200 0.77040 0.38280 0.04700
C 	C 	0.94711 0.72060 0.54850 -0.07600
H 	H 	0.94300 0.76740 0.60920 0.07600
O 	O 	0.77298 0.60744 0.38450 -0.47500
O 	O 	0.79671 0.52659 0.18600 -0.48800
O 	O 	0.79854 0.89430 0.35830 -0.49400
O 	O 	0.81444 0.94729 0.10890 -0.51100
O 	O 	0.87999 0.71970 0.79880 -0.21300
Zn	Zn	0.73575 0.53195 0.50882 1.23700
C 	C 	0.29333 0.90400 0.75170 0.37200
C 	C 	0.31405 0.83360 0.66830 -0.07200
C 	C 	0.30638 0.75860 0.73110 0.01500
H 	H 	0.29050 0.75220 0.82910 0.05900
C 	C 	0.32253 0.69270 0.64740 -0.07900
C 	C 	0.34731 0.70140 0.50340 -0.09200
H 	H 	0.35840 0.65660 0.44860 0.07600
C 	C 	0.35540 0.77730 0.44150 0.15900
C 	C 	0.33870 0.84360 0.52290 -0.10500
H 	H 	0.34370 0.89460 0.48110 0.06800
C 	C 	0.31090 0.61100 0.71000 0.40900
C 	C 	0.39410 0.85710 0.24550 -0.02800
H 	H 	0.35840 0.88860 0.20620 0.04300
H 	H 	0.42000 0.88420 0.34640 0.04600
C 	C 	0.42410 0.84930 0.09350 0.06700
C 	C 	0.42974 0.91790 0.00040 -0.09400
H 	H 	0.41360 0.96550 0.02810 0.06300
C 	C 	0.45891 0.91660 0.86740 -0.02400
H 	H 	0.46240 0.96370 0.80660 0.03800
C 	C 	0.48317 0.84740 0.82180 0.00100
C 	C 	0.47670 0.77750 0.91250 -0.02300
H 	H 	0.49200 0.72960 0.88280 0.04500
C 	C 	0.44711 0.77940 0.04850 -0.08400
H 	H 	0.44300 0.73260 0.10920 0.07900
O 	O 	0.27298 0.89256 0.88450 -0.47300
O 	O 	0.29671 0.97341 0.68600 -0.48700
O 	O 	0.29854 0.60570 0.85830 -0.49400
O 	O 	0.31444 0.55271 0.60890 -0.51100
O 	O 	0.37999 0.78030 0.29880 -0.21100
Zn	Zn	0.23575 0.96805 0.00882 1.23600
C 	C 	0.79333 0.40400 0.75170 0.37200
C 	C 	0.81405 0.33360 0.66830 -0.07300
C 	C 	0.80638 0.25860 0.73110 0.01500
H 	H 	0.79050 0.25220 0.82910 0.05800
C 	C 	0.82253 0.19270 0.64740 -0.07900
C 	C 	0.84731 0.20140 0.50340 -0.09200
H 	H 	0.85840 0.15660 0.44860 0.07700
C 	C 	0.85540 0.27730 0.44150 0.16000
C 	C 	0.83870 0.34360 0.52290 -0.10500
H 	H 	0.84370 0.39460 0.48110 0.06800
C 	C 	0.81090 0.11100 0.71000 0.40900
C 	C 	0.89410 0.35710 0.24550 -0.02300
H 	H 	0.85840 0.38860 0.20620 0.04200
H 	H 	0.92000 0.38420 0.34640 0.04400
C 	C 	0.92410 0.34930 0.09350 0.05800
C 	C 	0.92974 0.41790 0.00040 -0.08000
H 	H 	0.91360 0.46550 0.02810 0.05900
C 	C 	0.95891 0.41660 0.86740 -0.03700
H 	H 	0.96240 0.46370 0.80660 0.04200
C 	C 	0.98317 0.34740 0.82180 0.01000
C 	C 	0.97670 0.27750 0.91250 -0.03600
H 	H 	0.99200 0.22960 0.88280 0.04900
C 	C 	0.94711 0.27940 0.04850 -0.07100
H 	H 	0.94300 0.23260 0.10920 0.07500
O 	O 	0.77298 0.39256 0.88450 -0.47500
O 	O 	0.79671 0.47341 0.68600 -0.48800
O 	O 	0.79854 0.10570 0.85830 -0.49500
O 	O 	0.81444 0.05271 0.60890 -0.51100
O 	O 	0.87999 0.28030 0.29880 -0.21200
Zn	Zn	0.73575 0.46805 0.00882 1.23700
C 	C 	0.70667 0.90400 0.74830 0.37400
C 	C 	0.68595 0.83360 0.83170 -0.07700
C 	C 	0.69362 0.75860 0.76890 0.01900
H 	H 	0.70950 0.75220 0.67090 0.05700
C 	C 	0.67747 0.69270 0.85260 -0.08300
C 	C 	0.65269 0.70140 0.99660 -0.08400
H 	H 	0.64160 0.65660 0.05140 0.07300
C 	C 	0.64460 0.77730 0.05850 0.15200
C 	C 	0.66130 0.84360 0.97710 -0.09500
H 	H 	0.65630 0.89460 0.01890 0.06300
C 	C 	0.68910 0.61100 0.79000 0.41000
C 	C 	0.60590 0.85710 0.25450 -0.02400
H 	H 	0.64160 0.88860 0.29380 0.04300
H 	H 	0.58000 0.88420 0.15360 0.04500
C 	C 	0.57590 0.84930 0.40650 0.05900
C 	C 	0.57026 0.91790 0.49960 -0.08200
H 	H 	0.58640 0.96550 0.47190 0.05900
C 	C 	0.54109 0.91660 0.63260 -0.03600
H 	H 	0.53760 0.96370 0.69340 0.04200
C 	C 	0.51683 0.84740 0.67820 0.01100
C 	C 	0.52330 0.77750 0.58750 -0.03400
H 	H 	0.50800 0.72960 0.61720 0.04900
C 	C 	0.55289 0.77940 0.45150 -0.07300
H 	H 	0.55700 0.73260 0.39080 0.07500
O 	O 	0.72702 0.89256 0.61550 -0.47500
O 	O 	0.70329 0.97341 0.81400 -0.48700
O 	O 	0.70146 0.60570 0.64170 -0.49500
O 	O 	0.68556 0.55271 0.89110 -0.51100
O 	O 	0.62001 0.78030 0.20120 -0.21000
Zn	Zn	0.76425 0.96805 0.49118 1.23700
C 	C 	0.20667 0.40400 0.74830 0.37100
C 	C 	0.18595 0.33360 0.83170 -0.06900
C 	C 	0.19362 0.25860 0.76890 0.01100
H 	H 	0.20950 0.25220 0.67090 0.06000
C 	C 	0.17747 0.19270 0.85260 -0.07500
C 	C 	0.15269 0.20140 0.99660 -0.10000
H 	H 	0.14160 0.15660 0.05140 0.08000
C 	C 	0.14460 0.27730 0.05850 0.16600
C 	C 	0.16130 0.34360 0.97710 -0.11100
H 	H 	0.15630 0.39460 0.01890 0.07000
C 	C 	0.18910 0.11100 0.79000 0.40700
C 	C 	0.10590 0.35710 0.25450 -0.02400
H 	H 	0.14160 0.38860 0.29380 0.04200
H 	H 	0.08000 0.38420 0.15360 0.04500
C 	C 	0.07590 0.34930 0.40650 0.06100
C 	C 	0.07026 0.41790 0.49960 -0.08400
H 	H 	0.08640 0.46550 0.47190 0.06000
C 	C 	0.04109 0.41660 0.63260 -0.03200
H 	H 	0.03760 0.46370 0.69340 0.04000
C 	C 	0.01683 0.34740 0.67820 0.00600
C 	C 	0.02330 0.27750 0.58750 -0.03000
H 	H 	0.00800 0.22960 0.61720 0.04700
C 	C 	0.05289 0.27940 0.45150 -0.07600
H 	H 	0.05700 0.23260 0.39080 0.07600
O 	O 	0.22702 0.39256 0.61550 -0.47500
O 	O 	0.20329 0.47341 0.81400 -0.48800
O 	O 	0.20146 0.10570 0.64170 -0.49400
O 	O 	0.18556 0.05271 0.89110 -0.51100
O 	O 	0.12001 0.28030 0.20120 -0.21300
Zn	Zn	0.26425 0.46805 0.49118 1.23700
