data_crystal

_cell_length_a 11.19290
_cell_length_b 12.34750
_cell_length_c 28.67340
_cell_angle_alpha 98.81600
_cell_angle_beta  90.00000
_cell_angle_gamma 90.00000

_symmetry_space_group_name_	'P 1'
_symmetry_space_group_name_H-M	'P 1'

loop_
_symmetry_equiv_pos_as_xyz
  x,y,z

loop_
_atom_site_label
_atom_site_type_symbol
_atom_site_fract_x
_atom_site_fract_y
_atom_site_fract_z
_atom_site_charge
Mg	Mg	0.17327 0.33707 0.85988 1.45600
Mg	Mg	0.45775 0.55341 0.83391 1.47900
Mg	Mg	0.28980 0.27260 0.14158 1.46200
Mg	Mg	0.67327 0.16293 0.64012 1.45700
Mg	Mg	0.95775 0.94659 0.66609 1.48000
Mg	Mg	0.78980 0.22740 0.35842 1.46200
Mg	Mg	0.82673 0.66293 0.14012 1.45700
Mg	Mg	0.54225 0.44659 0.16609 1.48000
Mg	Mg	0.71020 0.72740 0.85842 1.46200
Mg	Mg	0.32673 0.83707 0.35988 1.45700
Mg	Mg	0.04225 0.05341 0.33391 1.48000
Mg	Mg	0.21020 0.77260 0.64158 1.46200
H 	H 	0.51600 0.33200 0.71590 -0.02100
H 	H 	0.19410 0.19560 0.73360 0.00200
H 	H 	0.43270 0.05080 0.63870 -0.00600
H 	H 	0.34360 0.31560 0.98540 0.00300
H 	H 	0.64960 0.42490 0.93520 0.01300
H 	H 	0.64490 0.35200 0.06350 0.01700
H 	H 	0.96610 0.64760 0.88380 -0.00700
H 	H 	0.20050 0.68010 0.78020 0.01500
H 	H 	0.87200 0.81750 0.78430 -0.00300
H 	H 	0.01600 0.16800 0.78410 -0.02600
H 	H 	0.69410 0.30440 0.76640 0.00200
H 	H 	0.93270 0.44920 0.86130 -0.00700
H 	H 	0.84360 0.18440 0.51460 0.00600
H 	H 	0.14960 0.07510 0.56480 0.01500
H 	H 	0.14490 0.14800 0.43650 0.01800
H 	H 	0.46610 0.85240 0.61620 -0.00800
H 	H 	0.70050 0.81990 0.71980 0.01300
H 	H 	0.37200 0.68250 0.71570 -0.00400
H 	H 	0.48400 0.66800 0.28410 -0.02100
H 	H 	0.80590 0.80440 0.26640 0.00200
H 	H 	0.56730 0.94920 0.36130 -0.00600
H 	H 	0.65640 0.68440 0.01460 0.00300
H 	H 	0.35040 0.57510 0.06480 0.01300
H 	H 	0.35510 0.64800 0.93650 0.01700
H 	H 	0.03390 0.35240 0.11620 -0.00700
H 	H 	0.79950 0.31990 0.21980 0.01500
H 	H 	0.12800 0.18250 0.21570 -0.00300
H 	H 	0.98400 0.83200 0.21590 -0.02600
H 	H 	0.30590 0.69560 0.23360 0.00200
H 	H 	0.06730 0.55080 0.13870 -0.00700
H 	H 	0.15640 0.81560 0.48540 0.00600
H 	H 	0.85040 0.92490 0.43520 0.01500
H 	H 	0.85510 0.85200 0.56350 0.01800
H 	H 	0.53390 0.14760 0.38380 -0.00800
H 	H 	0.29950 0.18010 0.28020 0.01300
H 	H 	0.62800 0.31750 0.28430 -0.00400
C 	C 	0.46070 0.27390 0.70762 0.11300
C 	C 	0.35060 0.27890 0.73091 -0.20600
C 	C 	0.26970 0.19440 0.71847 0.11400
C 	C 	0.30041 0.10778 0.68358 -0.17700
C 	C 	0.41190 0.10990 0.66255 0.09400
C 	C 	0.32440 0.36914 0.77129 0.48100
C 	C 	0.18436 0.58244 0.85737 0.46200
C 	C 	0.42460 0.39096 0.90762 0.49400
C 	C 	0.41460 0.30260 0.07310 0.36800
C 	C 	0.48370 0.33120 0.03154 -0.16100
C 	C 	0.42500 0.33679 0.98928 0.11300
C 	C 	0.48650 0.37359 0.95275 -0.19400
C 	C 	0.60710 0.39890 0.95990 0.10900
C 	C 	0.60450 0.35710 0.03474 0.09100
C 	C 	0.21846 0.01125 0.67110 0.43300
C 	C 	0.05549 0.78945 0.72703 0.45600
C 	C 	0.03768 0.75231 0.77425 -0.17600
C 	C 	0.98519 0.67648 0.85589 0.10800
C 	C 	0.09662 0.65370 0.83595 -0.18600
C 	C 	0.12423 0.69319 0.79445 0.11100
C 	C 	0.92930 0.77429 0.79757 0.09500
C 	C 	0.96070 0.22610 0.79238 0.12000
C 	C 	0.85060 0.22110 0.76909 -0.20800
C 	C 	0.76970 0.30560 0.78153 0.11600
C 	C 	0.80041 0.39222 0.81642 -0.17800
C 	C 	0.91190 0.39010 0.83745 0.09500
C 	C 	0.82440 0.13086 0.72871 0.48200
C 	C 	0.68436 0.91756 0.64263 0.46300
C 	C 	0.92460 0.10904 0.59238 0.49200
C 	C 	0.91460 0.19740 0.42690 0.36500
C 	C 	0.98370 0.16880 0.46846 -0.15200
C 	C 	0.92500 0.16321 0.51072 0.10700
C 	C 	0.98650 0.12641 0.54725 -0.18500
C 	C 	0.10710 0.10110 0.54010 0.10000
C 	C 	0.10450 0.14290 0.46526 0.08300
C 	C 	0.71846 0.48875 0.82890 0.43700
C 	C 	0.55549 0.71055 0.77297 0.45200
C 	C 	0.53768 0.74769 0.72575 -0.18000
C 	C 	0.48519 0.82352 0.64411 0.11100
C 	C 	0.59662 0.84630 0.66405 -0.19000
C 	C 	0.62423 0.80681 0.70555 0.11300
C 	C 	0.42930 0.72571 0.70243 0.09900
C 	C 	0.53930 0.72610 0.29238 0.11300
C 	C 	0.64940 0.72110 0.26909 -0.20600
C 	C 	0.73030 0.80560 0.28153 0.11400
C 	C 	0.69959 0.89222 0.31642 -0.17700
C 	C 	0.58810 0.89010 0.33745 0.09400
C 	C 	0.67560 0.63086 0.22871 0.48100
C 	C 	0.81564 0.41756 0.14263 0.46200
C 	C 	0.57540 0.60904 0.09238 0.49400
C 	C 	0.58540 0.69740 0.92690 0.36800
C 	C 	0.51630 0.66880 0.96846 -0.16100
C 	C 	0.57500 0.66321 0.01072 0.11300
C 	C 	0.51350 0.62641 0.04725 -0.19400
C 	C 	0.39290 0.60110 0.04010 0.10900
C 	C 	0.39550 0.64290 0.96526 0.09100
C 	C 	0.78154 0.98875 0.32890 0.43300
C 	C 	0.94451 0.21055 0.27297 0.45600
C 	C 	0.96232 0.24769 0.22575 -0.17600
C 	C 	0.01481 0.32352 0.14411 0.10800
C 	C 	0.90338 0.34630 0.16405 -0.18600
C 	C 	0.87577 0.30681 0.20555 0.11100
C 	C 	0.07070 0.22571 0.20243 0.09500
C 	C 	0.03930 0.77390 0.20762 0.12000
C 	C 	0.14940 0.77890 0.23091 -0.20800
C 	C 	0.23030 0.69440 0.21847 0.11600
C 	C 	0.19959 0.60778 0.18358 -0.17800
C 	C 	0.08810 0.60990 0.16255 0.09500
C 	C 	0.17560 0.86914 0.27129 0.48200
C 	C 	0.31564 0.08244 0.35737 0.46300
C 	C 	0.07540 0.89096 0.40762 0.49200
C 	C 	0.08540 0.80260 0.57310 0.36500
C 	C 	0.01630 0.83120 0.53154 -0.15200
C 	C 	0.07500 0.83679 0.48928 0.10700
C 	C 	0.01350 0.87359 0.45275 -0.18500
C 	C 	0.89290 0.89890 0.45990 0.10000
C 	C 	0.89550 0.85710 0.53474 0.08300
C 	C 	0.28154 0.51125 0.17110 0.43700
C 	C 	0.44451 0.28945 0.22703 0.45200
C 	C 	0.46232 0.25231 0.27425 -0.18000
C 	C 	0.51481 0.17648 0.35589 0.11100
C 	C 	0.40338 0.15370 0.33595 -0.19000
C 	C 	0.37577 0.19319 0.29445 0.11300
C 	C 	0.57070 0.27429 0.29757 0.09900
N 	N 	0.49184 0.19050 0.67400 -0.28300
N 	N 	0.90213 0.73741 0.83780 -0.27200
N 	N 	0.66679 0.38880 0.99950 -0.14400
N 	N 	0.99184 0.30950 0.82600 -0.28400
N 	N 	0.40213 0.76259 0.66220 -0.27300
N 	N 	0.16679 0.11120 0.50050 -0.14200
N 	N 	0.50816 0.80950 0.32600 -0.28300
N 	N 	0.09787 0.26259 0.16220 -0.27200
N 	N 	0.33321 0.61120 0.00050 -0.14400
N 	N 	0.00816 0.69050 0.17400 -0.28400
N 	N 	0.59787 0.23741 0.33780 -0.27300
N 	N 	0.83321 0.88880 0.49950 -0.14200
O 	O 	0.29201 0.60735 0.85442 -0.49700
O 	O 	0.14225 0.50547 0.87635 -0.51800
O 	O 	0.47639 0.45188 0.88317 -0.51300
O 	O 	0.32701 0.34242 0.89890 -0.57300
O 	O 	0.39441 0.44797 0.77734 -0.49100
O 	O 	0.23461 0.35540 0.79580 -0.56600
O 	O 	0.46211 0.31683 0.11406 -0.57900
O 	O 	0.31039 0.26521 0.06698 -0.47300
O 	O 	0.25895 0.93202 0.64255 -0.50800
O 	O 	0.11930 0.01499 0.69077 -0.48600
O 	O 	0.15693 0.77196 0.70825 -0.55500
O 	O 	0.96801 0.83206 0.71031 -0.49900
O 	O 	0.79201 0.89265 0.64558 -0.49900
O 	O 	0.64225 0.99453 0.62365 -0.52000
O 	O 	0.97639 0.04812 0.61683 -0.50900
O 	O 	0.82701 0.15758 0.60110 -0.57100
O 	O 	0.89441 0.05203 0.72266 -0.48800
O 	O 	0.73461 0.14460 0.70420 -0.56500
O 	O 	0.96211 0.18317 0.38594 -0.57700
O 	O 	0.81039 0.23479 0.43302 -0.47200
O 	O 	0.75895 0.56798 0.85745 -0.51100
O 	O 	0.61930 0.48501 0.80923 -0.48500
O 	O 	0.65693 0.72804 0.79175 -0.55500
O 	O 	0.46801 0.66794 0.78969 -0.49500
O 	O 	0.70799 0.39265 0.14558 -0.49700
O 	O 	0.85775 0.49453 0.12365 -0.51800
O 	O 	0.52361 0.54812 0.11683 -0.51300
O 	O 	0.67299 0.65758 0.10110 -0.57300
O 	O 	0.60559 0.55203 0.22266 -0.49100
O 	O 	0.76539 0.64460 0.20420 -0.56600
O 	O 	0.53789 0.68317 0.88594 -0.57900
O 	O 	0.68961 0.73479 0.93302 -0.47300
O 	O 	0.74105 0.06798 0.35745 -0.50800
O 	O 	0.88070 0.98501 0.30923 -0.48600
O 	O 	0.84307 0.22804 0.29175 -0.55500
O 	O 	0.03199 0.16794 0.28969 -0.49900
O 	O 	0.20799 0.10735 0.35442 -0.49900
O 	O 	0.35775 0.00547 0.37635 -0.52000
O 	O 	0.02361 0.95188 0.38317 -0.50900
O 	O 	0.17299 0.84242 0.39890 -0.57100
O 	O 	0.10559 0.94797 0.27734 -0.48800
O 	O 	0.26539 0.85540 0.29580 -0.56500
O 	O 	0.03789 0.81683 0.61406 -0.57700
O 	O 	0.18961 0.76521 0.56698 -0.47200
O 	O 	0.24105 0.43202 0.14255 -0.51100
O 	O 	0.38070 0.51499 0.19077 -0.48500
O 	O 	0.34307 0.27196 0.20825 -0.55500
O 	O 	0.53199 0.33206 0.21031 -0.49500
