data_crystal

_cell_length_a 30.41000
_cell_length_b 17.90900
_cell_length_c 10.56700
_cell_angle_alpha 90.00000
_cell_angle_beta  107.10000
_cell_angle_gamma 90.00000

_symmetry_space_group_name_	'P 1'
_symmetry_space_group_name_H-M	'P 1'

loop_
_symmetry_equiv_pos_as_xyz
  x,y,z

loop_
_atom_site_label
_atom_site_type_symbol
_atom_site_fract_x
_atom_site_fract_y
_atom_site_fract_z
_atom_site_charge
W 	W 	0.60843 0.81570 0.34243 0.62900
W 	W 	0.89161 0.63060 0.15819 0.50000
Co	Co	0.42394 0.83530 0.18350 1.11700
Co	Co	0.57647 0.11110 0.31890 1.13900
Co	Co	0.75000 0.72450 0.75030 1.08000
N 	N 	0.34830 0.83930 0.09300 -0.22300
C 	C 	0.32310 0.87630 0.98100 0.08400
H 	H 	0.33830 0.90530 0.93170 0.00600
C 	C 	0.27610 0.87100 0.94200 -0.13400
H 	H 	0.25870 0.89700 0.86470 0.08700
C 	C 	0.25420 0.83000 0.01400 0.08200
H 	H 	0.22160 0.82620 0.98620 -0.00900
N 	N 	0.27930 0.79260 0.12500 -0.24800
C 	C 	0.32640 0.79750 0.16450 0.06600
H 	H 	0.34380 0.77190 0.24180 -0.03200
N 	N 	0.42150 0.71240 0.18200 -0.21300
C 	C 	0.40520 0.66780 0.07300 0.02700
H 	H 	0.39220 0.68970 0.98840 0.02500
C 	C 	0.40750 0.59170 0.08600 -0.05200
H 	H 	0.39620 0.56080 0.01030 0.04100
C 	C 	0.42630 0.56010 0.20800 -0.05900
C 	C 	0.44260 0.60460 0.31730 -0.04700
H 	H 	0.45560 0.58280 0.40200 0.05300
C 	C 	0.44020 0.68080 0.30400 0.01900
H 	H 	0.45150 0.71170 0.38010 0.01500
C 	C 	0.42800 0.47500 0.23100 0.33700
H 	H 	0.39560 0.46010 0.22550 -0.05500
C 	C 	0.43570 0.44800 0.10500 -0.69500
H 	H 	0.45460 0.40260 0.12360 0.23500
H 	H 	0.45170 0.48670 0.07030 0.22800
H 	H 	0.40610 0.43680 0.04030 0.22700
O 	O 	0.45600 0.44100 0.34700 -0.44200
H 	H 	0.47630 0.41520 0.32830 0.24600
N 	N 	0.65100 0.11630 0.39600 -0.22500
C 	C 	0.67480 0.16330 0.33660 0.06600
H 	H 	0.65850 0.19490 0.26600 -0.03100
N 	N 	0.72210 0.16470 0.38000 -0.25200
C 	C 	0.74550 0.11910 0.48200 0.06800
H 	H 	0.77820 0.12000 0.51140 -0.00200
C 	C 	0.72180 0.07210 0.54100 -0.12600
H 	H 	0.73800 0.04050 0.61160 0.07600
C 	C 	0.67450 0.07070 0.49800 0.07100
H 	H 	0.65800 0.03820 0.53900 -0.00200
N 	N 	0.57540 0.23190 0.30100 -0.21500
C 	C 	0.59730 0.26920 0.41520 0.01500
H 	H 	0.61050 0.24200 0.49460 0.01700
C 	C 	0.60020 0.34550 0.41500 -0.04500
H 	H 	0.61540 0.37130 0.49450 0.04700
C 	C 	0.58120 0.38460 0.30100 -0.05800
C 	C 	0.55930 0.34740 0.18600 -0.06300
H 	H 	0.54610 0.37450 0.10680 0.03400
C 	C 	0.55640 0.27100 0.18600 0.02800
H 	H 	0.54120 0.24520 0.10690 0.01200
C 	C 	0.58380 0.47060 0.29200 0.32900
H 	H 	0.55740 0.49450 0.22480 -0.07100
C 	C 	0.59090 0.49600 0.43200 -0.69900
H 	H 	0.57370 0.54270 0.43120 0.25400
H 	H 	0.62370 0.50530 0.47430 0.25600
H 	H 	0.57980 0.45790 0.48090 0.25600
O 	O 	0.62880 0.48600 0.27700 -0.40300
H 	H 	0.62870 0.47510 0.19930 0.21600
C 	C 	0.53580 0.82600 0.28000 -0.02900
N 	N 	0.49410 0.82450 0.25700 -0.22400
C 	C 	0.60430 0.81910 0.50290 -0.16400
N 	N 	0.58110 0.83580 0.61070 -0.18300
C 	C 	0.58930 0.93040 0.33100 -0.01900
N 	N 	0.58000 0.00010 0.33000 -0.24200
C 	C 	0.58830 0.82740 0.14590 -0.07700
N 	N 	0.57540 0.83240 0.02100 -0.19700
C 	C 	0.57400 0.70700 0.32900 -0.03000
N 	N 	0.58100 0.65300 0.27800 -0.07600
C 	C 	0.58620 0.70400 0.36600 0.03400
N 	N 	0.56880 0.64800 0.37800 -0.09800
C 	C 	0.66540 0.78510 0.50200 -0.02400
N 	N 	0.69290 0.74500 0.57900 -0.23000
C 	C 	0.66710 0.88000 0.34100 -0.05300
N 	N 	0.69700 0.91700 0.33000 -0.08900
C 	C 	0.65300 0.74820 0.26200 -0.04300
N 	N 	0.66620 0.69700 0.20500 -0.08800
C 	C 	0.83940 0.68450 -0.00000 -0.03900
N 	N 	0.80120 0.68400 0.90600 -0.24600
C 	C 	0.59140 0.11060 0.03070 -0.02100
N 	N 	0.58570 0.10550 0.13820 -0.23600
C 	C 	0.46540 0.12560 0.20900 -0.03200
N 	N 	0.50560 0.11170 0.24400 -0.22500
C 	C 	0.58390 0.11500 0.62120 -0.01800
N 	N 	0.57570 0.11140 0.50260 -0.24600
C 	C 	0.91870 0.74200 0.14300 -0.02700
N 	N 	0.93110 0.79800 0.12900 -0.11900
C 	C 	0.83370 0.56100 0.17200 -0.03600
N 	N 	0.80180 0.52800 0.17300 -0.10100
C 	C 	0.85380 0.70800 0.25000 -0.01900
N 	N 	0.82470 0.74000 0.27700 -0.06500
C 	C 	0.63700 0.22300 0.75700 0.00800
N 	N 	0.66200 0.27200 0.77600 -0.07300
C 	C 	0.40820 0.01500 0.16400 -0.04600
N 	N 	0.41830 0.95570 0.17600 -0.19700
W 	W 	0.10843 0.31570 0.34243 0.63300
W 	W 	0.39161 0.13060 0.15819 0.50500
Co	Co	0.92394 0.33530 0.18350 1.11600
Co	Co	0.07647 0.61110 0.31890 1.14000
Co	Co	0.25000 0.22450 0.75030 1.07900
N 	N 	0.84830 0.33930 0.09300 -0.22400
C 	C 	0.82310 0.37630 0.98100 0.08100
H 	H 	0.83830 0.40530 0.93170 0.00300
C 	C 	0.77610 0.37100 0.94200 -0.13400
H 	H 	0.75870 0.39700 0.86470 0.08200
C 	C 	0.75420 0.33000 0.01400 0.07800
H 	H 	0.72160 0.32620 0.98620 -0.00900
N 	N 	0.77930 0.29260 0.12500 -0.24900
C 	C 	0.82640 0.29750 0.16450 0.06400
H 	H 	0.84380 0.27190 0.24180 -0.03200
N 	N 	0.92150 0.21240 0.18200 -0.20900
C 	C 	0.90520 0.16780 0.07300 0.01300
H 	H 	0.89220 0.18970 0.98840 0.02900
C 	C 	0.90750 0.09170 0.08600 -0.03100
H 	H 	0.89620 0.06080 0.01030 0.02400
C 	C 	0.92630 0.06010 0.20800 -0.10000
C 	C 	0.94260 0.10460 0.31730 -0.02600
H 	H 	0.95560 0.08280 0.40200 0.04300
C 	C 	0.94020 0.18080 0.30400 0.00700
H 	H 	0.95150 0.21170 0.38010 0.01900
C 	C 	0.92800 0.97500 0.23100 0.37600
H 	H 	0.89560 0.96010 0.22550 -0.05900
C 	C 	0.93570 0.94800 0.10500 -0.72800
H 	H 	0.95460 0.90260 0.12360 0.24400
H 	H 	0.95170 0.98670 0.07030 0.24400
H 	H 	0.90610 0.93680 0.04030 0.24100
O 	O 	0.95600 0.94100 0.34700 -0.44100
H 	H 	0.97630 0.91520 0.32830 0.24700
N 	N 	0.15100 0.61630 0.39600 -0.22400
C 	C 	0.17480 0.66330 0.33660 0.06800
H 	H 	0.15850 0.69490 0.26600 -0.03100
N 	N 	0.22210 0.66470 0.38000 -0.25100
C 	C 	0.24550 0.61910 0.48200 0.07100
H 	H 	0.27820 0.62000 0.51140 -0.00000
C 	C 	0.22180 0.57210 0.54100 -0.12500
H 	H 	0.23800 0.54050 0.61160 0.08200
C 	C 	0.17450 0.57070 0.49800 0.07400
H 	H 	0.15800 0.53820 0.53900 0.00200
N 	N 	0.07540 0.73190 0.30100 -0.21900
C 	C 	0.09730 0.76920 0.41520 0.02700
H 	H 	0.11050 0.74200 0.49460 0.01400
C 	C 	0.10020 0.84550 0.41500 -0.06700
H 	H 	0.11540 0.87130 0.49450 0.06000
C 	C 	0.08120 0.88460 0.30100 -0.02300
C 	C 	0.05930 0.84740 0.18600 -0.08400
H 	H 	0.04610 0.87450 0.10680 0.04200
C 	C 	0.05640 0.77100 0.18600 0.03900
H 	H 	0.04120 0.74520 0.10690 0.00800
C 	C 	0.08380 0.97060 0.29200 0.24700
H 	H 	0.05740 0.99450 0.22480 -0.04000
C 	C 	0.09090 0.99600 0.43200 -0.48300
H 	H 	0.07370 0.04270 0.43120 0.17700
H 	H 	0.12370 0.00530 0.47430 0.17500
H 	H 	0.07980 0.95790 0.48090 0.19700
O 	O 	0.12880 0.98600 0.27700 -0.37200
H 	H 	0.12870 0.97510 0.19930 0.21100
C 	C 	0.03580 0.32600 0.28000 -0.03100
N 	N 	0.99410 0.32450 0.25700 -0.22600
C 	C 	0.10430 0.31910 0.50290 -0.16700
N 	N 	0.08110 0.33580 0.61070 -0.18500
C 	C 	0.08930 0.43040 0.33100 -0.04200
N 	N 	0.08000 0.50010 0.33000 -0.22500
C 	C 	0.08830 0.32740 0.14590 -0.07900
N 	N 	0.07540 0.33240 0.02100 -0.19800
C 	C 	0.07400 0.20700 0.32900 -0.03000
N 	N 	0.08100 0.15300 0.27800 -0.08000
C 	C 	0.08620 0.20400 0.36600 0.03400
N 	N 	0.06880 0.14800 0.37800 -0.09600
C 	C 	0.16540 0.28510 0.50200 -0.02600
N 	N 	0.19290 0.24500 0.57900 -0.23000
C 	C 	0.16710 0.38000 0.34100 -0.05700
N 	N 	0.19700 0.41700 0.33000 -0.09500
C 	C 	0.15300 0.24820 0.26200 -0.04400
N 	N 	0.16620 0.19700 0.20500 -0.09000
C 	C 	0.33940 0.18450 -0.00000 -0.04000
N 	N 	0.30120 0.18400 0.90600 -0.24800
C 	C 	0.09140 0.61060 0.03070 -0.01700
N 	N 	0.08570 0.60550 0.13820 -0.23400
C 	C 	0.96540 0.62560 0.20900 -0.03000
N 	N 	0.00560 0.61170 0.24400 -0.22300
C 	C 	0.08390 0.61500 0.62120 -0.01500
N 	N 	0.07570 0.61140 0.50260 -0.24500
C 	C 	0.41870 0.24200 0.14300 -0.02800
N 	N 	0.43110 0.29800 0.12900 -0.11800
C 	C 	0.33370 0.06100 0.17200 -0.03900
N 	N 	0.30180 0.02800 0.17300 -0.10700
C 	C 	0.35380 0.20800 0.25000 -0.01900
N 	N 	0.32470 0.24000 0.27700 -0.06500
C 	C 	0.13700 0.72300 0.75700 0.00800
N 	N 	0.16200 0.77200 0.77600 -0.07200
C 	C 	0.90820 0.51500 0.16400 -0.01600
N 	N 	0.91830 0.45570 0.17600 -0.22100
W 	W 	0.39157 0.81570 0.65757 0.62900
W 	W 	0.10839 0.63060 0.84181 0.49800
Co	Co	0.57606 0.83530 0.81650 1.11600
Co	Co	0.42353 0.11110 0.68110 1.13900
Co	Co	0.25000 0.72450 0.24970 1.08000
N 	N 	0.65170 0.83930 0.90700 -0.22400
C 	C 	0.67690 0.87630 0.01900 0.08300
H 	H 	0.66170 0.90530 0.06830 0.00700
C 	C 	0.72390 0.87100 0.05800 -0.12300
H 	H 	0.74130 0.89700 0.13530 0.08400
C 	C 	0.74580 0.83000 0.98600 0.06800
H 	H 	0.77840 0.82620 0.01380 -0.00200
N 	N 	0.72070 0.79260 0.87500 -0.24600
C 	C 	0.67360 0.79750 0.83550 0.06500
H 	H 	0.65620 0.77190 0.75820 -0.03200
N 	N 	0.57850 0.71240 0.81800 -0.21200
C 	C 	0.59480 0.66780 0.92700 0.01800
H 	H 	0.60780 0.68970 0.01160 0.03000
C 	C 	0.59250 0.59170 0.91400 -0.04700
H 	H 	0.60380 0.56080 0.98970 0.03800
C 	C 	0.57370 0.56010 0.79200 -0.06200
C 	C 	0.55740 0.60460 0.68270 -0.04600
H 	H 	0.54440 0.58280 0.59800 0.05200
C 	C 	0.55980 0.68080 0.69600 0.01800
H 	H 	0.54850 0.71170 0.61990 0.01500
C 	C 	0.57200 0.47500 0.76900 0.33800
H 	H 	0.60440 0.46010 0.77450 -0.05500
C 	C 	0.56430 0.44800 0.89500 -0.69300
H 	H 	0.54540 0.40260 0.87640 0.23400
H 	H 	0.54830 0.48670 0.92970 0.22600
H 	H 	0.59390 0.43680 0.95970 0.22500
O 	O 	0.54400 0.44100 0.65300 -0.44200
H 	H 	0.52370 0.41520 0.67170 0.24600
N 	N 	0.34900 0.11630 0.60400 -0.22500
C 	C 	0.32520 0.16330 0.66340 0.06600
H 	H 	0.34150 0.19490 0.73400 -0.03100
N 	N 	0.27790 0.16470 0.62000 -0.25200
C 	C 	0.25450 0.11910 0.51800 0.06800
H 	H 	0.22180 0.12000 0.48860 -0.00200
C 	C 	0.27820 0.07210 0.45900 -0.12600
H 	H 	0.26200 0.04050 0.38840 0.07700
C 	C 	0.32550 0.07070 0.50200 0.07100
H 	H 	0.34200 0.03820 0.46100 -0.00200
N 	N 	0.42460 0.23190 0.69900 -0.21500
C 	C 	0.40270 0.26920 0.58480 0.01500
H 	H 	0.38950 0.24200 0.50540 0.01700
C 	C 	0.39980 0.34550 0.58500 -0.04500
H 	H 	0.38460 0.37130 0.50550 0.04700
C 	C 	0.41880 0.38460 0.69900 -0.05900
C 	C 	0.44070 0.34740 0.81400 -0.06300
H 	H 	0.45390 0.37450 0.89320 0.03300
C 	C 	0.44360 0.27100 0.81400 0.02800
H 	H 	0.45880 0.24520 0.89310 0.01100
C 	C 	0.41620 0.47060 0.70800 0.32900
H 	H 	0.44260 0.49450 0.77520 -0.07200
C 	C 	0.40910 0.49600 0.56800 -0.69900
H 	H 	0.42630 0.54270 0.56880 0.25400
H 	H 	0.37630 0.50530 0.52570 0.25600
H 	H 	0.42020 0.45790 0.51910 0.25600
O 	O 	0.37120 0.48600 0.72300 -0.40300
H 	H 	0.37130 0.47510 0.80070 0.21500
C 	C 	0.46420 0.82600 0.72000 -0.02900
N 	N 	0.50590 0.82450 0.74300 -0.22400
C 	C 	0.39570 0.81910 0.49710 -0.16400
N 	N 	0.41890 0.83580 0.38930 -0.18200
C 	C 	0.41070 0.93040 0.66900 -0.01900
N 	N 	0.42000 0.00010 0.67000 -0.24200
C 	C 	0.41170 0.82740 0.85410 -0.07700
N 	N 	0.42460 0.83240 0.97900 -0.19800
C 	C 	0.42600 0.70700 0.67100 -0.03000
N 	N 	0.41900 0.65300 0.72200 -0.07600
C 	C 	0.41380 0.70400 0.63400 0.03400
N 	N 	0.43120 0.64800 0.62200 -0.09800
C 	C 	0.33460 0.78510 0.49800 -0.02400
N 	N 	0.30710 0.74500 0.42100 -0.23000
C 	C 	0.33290 0.88000 0.65900 -0.05300
N 	N 	0.30300 0.91700 0.67000 -0.09000
C 	C 	0.34700 0.74820 0.73800 -0.04300
N 	N 	0.33380 0.69700 0.79500 -0.08900
C 	C 	0.16060 0.68450 -0.00000 -0.03900
N 	N 	0.19880 0.68400 0.09400 -0.24500
C 	C 	0.40860 0.11060 0.96930 -0.02400
N 	N 	0.41430 0.10550 0.86180 -0.23500
C 	C 	0.53460 0.12560 0.79100 -0.03200
N 	N 	0.49440 0.11170 0.75600 -0.22500
C 	C 	0.41610 0.11500 0.37880 -0.01800
N 	N 	0.42430 0.11140 0.49740 -0.24600
C 	C 	0.08130 0.74200 0.85700 -0.02800
N 	N 	0.06890 0.79800 0.87100 -0.11900
C 	C 	0.16630 0.56100 0.82800 -0.03600
N 	N 	0.19820 0.52800 0.82700 -0.10200
C 	C 	0.14620 0.70800 0.75000 -0.01900
N 	N 	0.17530 0.74000 0.72300 -0.06500
C 	C 	0.36300 0.22300 0.24300 0.00800
N 	N 	0.33800 0.27200 0.22400 -0.07300
C 	C 	0.59180 0.01500 0.83600 -0.04700
N 	N 	0.58170 0.95570 0.82400 -0.19800
W 	W 	0.89157 0.31570 0.65757 0.63300
W 	W 	0.60839 0.13060 0.84181 0.50200
Co	Co	0.07606 0.33530 0.81650 1.11500
Co	Co	0.92353 0.61110 0.68110 1.14000
Co	Co	0.75000 0.22450 0.24970 1.07900
N 	N 	0.15170 0.33930 0.90700 -0.22500
C 	C 	0.17690 0.37630 0.01900 0.08000
H 	H 	0.16170 0.40530 0.06830 0.00400
C 	C 	0.22390 0.37100 0.05800 -0.12300
H 	H 	0.24130 0.39700 0.13530 0.07900
C 	C 	0.24580 0.33000 0.98600 0.06400
H 	H 	0.27840 0.32620 0.01380 -0.00200
N 	N 	0.22070 0.29260 0.87500 -0.24700
C 	C 	0.17360 0.29750 0.83550 0.06200
H 	H 	0.15620 0.27190 0.75820 -0.03200
N 	N 	0.07850 0.21240 0.81800 -0.20800
C 	C 	0.09480 0.16780 0.92700 0.00400
H 	H 	0.10780 0.18970 0.01160 0.03400
C 	C 	0.09250 0.09170 0.91400 -0.02600
H 	H 	0.10380 0.06080 0.98970 0.02200
C 	C 	0.07370 0.06010 0.79200 -0.10300
C 	C 	0.05740 0.10460 0.68270 -0.02500
H 	H 	0.04440 0.08280 0.59800 0.04300
C 	C 	0.05980 0.18080 0.69600 0.00600
H 	H 	0.04850 0.21170 0.61990 0.01900
C 	C 	0.07200 0.97500 0.76900 0.37700
H 	H 	0.10440 0.96010 0.77450 -0.05900
C 	C 	0.06430 0.94800 0.89500 -0.72700
H 	H 	0.04540 0.90260 0.87640 0.24300
H 	H 	0.04830 0.98670 0.92970 0.24300
H 	H 	0.09390 0.93680 0.95970 0.24000
O 	O 	0.04400 0.94100 0.65300 -0.44100
H 	H 	0.02370 0.91520 0.67170 0.24700
N 	N 	0.84900 0.61630 0.60400 -0.22400
C 	C 	0.82520 0.66330 0.66340 0.06800
H 	H 	0.84150 0.69490 0.73400 -0.03100
N 	N 	0.77790 0.66470 0.62000 -0.25200
C 	C 	0.75450 0.61910 0.51800 0.07100
H 	H 	0.72180 0.62000 0.48860 -0.00000
C 	C 	0.77820 0.57210 0.45900 -0.12500
H 	H 	0.76200 0.54050 0.38840 0.08200
C 	C 	0.82550 0.57070 0.50200 0.07400
H 	H 	0.84200 0.53820 0.46100 0.00200
N 	N 	0.92460 0.73190 0.69900 -0.21900
C 	C 	0.90270 0.76920 0.58480 0.02700
H 	H 	0.88950 0.74200 0.50540 0.01400
C 	C 	0.89980 0.84550 0.58500 -0.06700
H 	H 	0.88460 0.87130 0.50550 0.06000
C 	C 	0.91880 0.88460 0.69900 -0.02300
C 	C 	0.94070 0.84740 0.81400 -0.08400
H 	H 	0.95390 0.87450 0.89320 0.04100
C 	C 	0.94360 0.77100 0.81400 0.03900
H 	H 	0.95880 0.74520 0.89310 0.00700
C 	C 	0.91620 0.97060 0.70800 0.24700
H 	H 	0.94260 0.99450 0.77520 -0.04000
C 	C 	0.90910 0.99600 0.56800 -0.48300
H 	H 	0.92630 0.04270 0.56880 0.17700
H 	H 	0.87630 0.00530 0.52570 0.17500
H 	H 	0.92020 0.95790 0.51910 0.19700
O 	O 	0.87120 0.98600 0.72300 -0.37200
H 	H 	0.87130 0.97510 0.80070 0.21000
C 	C 	0.96420 0.32600 0.72000 -0.03100
N 	N 	0.00590 0.32450 0.74300 -0.22600
C 	C 	0.89570 0.31910 0.49710 -0.16700
N 	N 	0.91890 0.33580 0.38930 -0.18500
C 	C 	0.91070 0.43040 0.66900 -0.04300
N 	N 	0.92000 0.50010 0.67000 -0.22500
C 	C 	0.91170 0.32740 0.85410 -0.08000
N 	N 	0.92460 0.33240 0.97900 -0.19900
C 	C 	0.92600 0.20700 0.67100 -0.03000
N 	N 	0.91900 0.15300 0.72200 -0.08000
C 	C 	0.91380 0.20400 0.63400 0.03400
N 	N 	0.93120 0.14800 0.62200 -0.09600
C 	C 	0.83460 0.28510 0.49800 -0.02600
N 	N 	0.80710 0.24500 0.42100 -0.23000
C 	C 	0.83290 0.38000 0.65900 -0.05700
N 	N 	0.80300 0.41700 0.67000 -0.09500
C 	C 	0.84700 0.24820 0.73800 -0.04400
N 	N 	0.83380 0.19700 0.79500 -0.09100
C 	C 	0.66060 0.18450 -0.00000 -0.04100
N 	N 	0.69880 0.18400 0.09400 -0.24600
C 	C 	0.90860 0.61060 0.96930 -0.02100
N 	N 	0.91430 0.60550 0.86180 -0.23400
C 	C 	0.03460 0.62560 0.79100 -0.03100
N 	N 	0.99440 0.61170 0.75600 -0.22300
C 	C 	0.91610 0.61500 0.37880 -0.01500
N 	N 	0.92430 0.61140 0.49740 -0.24500
C 	C 	0.58130 0.24200 0.85700 -0.02900
N 	N 	0.56890 0.29800 0.87100 -0.11900
C 	C 	0.66630 0.06100 0.82800 -0.04000
N 	N 	0.69820 0.02800 0.82700 -0.10700
C 	C 	0.64620 0.20800 0.75000 -0.01900
N 	N 	0.67530 0.24000 0.72300 -0.06500
C 	C 	0.86300 0.72300 0.24300 0.00800
N 	N 	0.83800 0.77200 0.22400 -0.07200
C 	C 	0.09180 0.51500 0.83600 -0.01700
N 	N 	0.08170 0.45570 0.82400 -0.22100
