data_crystal

_cell_length_a 8.61900
_cell_length_b 17.95900
_cell_length_c 8.13500
_cell_angle_alpha 90.00000
_cell_angle_beta  110.82800
_cell_angle_gamma 90.00000

_symmetry_space_group_name_	'P 1'
_symmetry_space_group_name_H-M	'P 1'

loop_
_symmetry_equiv_pos_as_xyz
  x,y,z

loop_
_atom_site_label
_atom_site_type_symbol
_atom_site_fract_x
_atom_site_fract_y
_atom_site_fract_z
_atom_site_charge
Pr	Pr	0.21346 0.52231 0.74888 2.07100
S 	S 	0.80418 0.76485 0.62510 0.07900
O 	O 	0.88550 0.56130 0.50490 -0.57000
O 	O 	0.02370 0.62880 0.73860 -0.44000
O 	O 	0.39890 0.88180 0.40620 -0.52400
O 	O 	0.64750 0.91710 0.58910 -0.52700
O 	O 	0.20070 0.53520 0.05400 -0.40400
O 	O 	0.02770 0.54010 0.20370 -0.41500
O 	O 	0.48960 0.50700 0.68640 -0.74500
H 	H 	0.58230 0.49940 0.76840 0.33800
H 	H 	0.47320 0.55370 0.67780 0.24200
C 	C 	0.76710 0.67510 0.54480 -0.11300
C 	C 	0.60800 0.66780 0.42660 -0.02800
H 	H 	0.56530 0.62340 0.36950 0.05400
C 	C 	0.51610 0.73410 0.40090 0.01900
H 	H 	0.40590 0.73820 0.32670 0.03200
C 	C 	0.60640 0.79180 0.49660 -0.14400
C 	C 	0.89810 0.61850 0.59860 0.37800
C 	C 	0.54710 0.86930 0.49670 0.45800
C 	C 	0.06600 0.52150 0.07480 0.24100
Pr	Pr	0.78654 0.02231 0.75112 2.06900
S 	S 	0.19582 0.26485 0.87490 0.08200
O 	O 	0.11450 0.06130 0.99510 -0.56900
O 	O 	0.97630 0.12880 0.76140 -0.44600
O 	O 	0.60110 0.38180 0.09380 -0.52500
O 	O 	0.35250 0.41710 0.91090 -0.52700
O 	O 	0.79930 0.03520 0.44600 -0.40300
O 	O 	0.97230 0.04010 0.29630 -0.41500
O 	O 	0.51040 0.00700 0.81360 -0.74500
H 	H 	0.41770 0.99940 0.73160 0.33800
H 	H 	0.52680 0.05370 0.82220 0.24200
C 	C 	0.23290 0.17510 0.95520 -0.11200
C 	C 	0.39200 0.16780 0.07340 -0.03100
H 	H 	0.43470 0.12340 0.13050 0.05400
C 	C 	0.48390 0.23410 0.09910 0.02100
H 	H 	0.59410 0.23820 0.17330 0.03200
C 	C 	0.39360 0.29180 0.00340 -0.14600
C 	C 	0.10190 0.11850 0.90140 0.38300
C 	C 	0.45290 0.36930 0.00330 0.45800
C 	C 	0.93400 0.02150 0.42520 0.24100
Pr	Pr	0.78654 0.47769 0.25112 2.07000
S 	S 	0.19582 0.23515 0.37490 0.07800
O 	O 	0.11450 0.43870 0.49510 -0.57100
O 	O 	0.97630 0.37120 0.26140 -0.44100
O 	O 	0.60110 0.11820 0.59380 -0.52500
O 	O 	0.35250 0.08290 0.41090 -0.52800
O 	O 	0.79930 0.46480 0.94600 -0.40400
O 	O 	0.97230 0.45990 0.79630 -0.41500
O 	O 	0.51040 0.49300 0.31360 -0.74500
H 	H 	0.41770 0.50060 0.23160 0.33800
H 	H 	0.52680 0.44630 0.32220 0.24200
C 	C 	0.23290 0.32490 0.45520 -0.11300
C 	C 	0.39200 0.33220 0.57340 -0.02800
H 	H 	0.43470 0.37660 0.63050 0.05400
C 	C 	0.48390 0.26590 0.59910 0.01900
H 	H 	0.59410 0.26180 0.67330 0.03200
C 	C 	0.39360 0.20820 0.50340 -0.14400
C 	C 	0.10190 0.38150 0.40140 0.37800
C 	C 	0.45290 0.13070 0.50330 0.45800
C 	C 	0.93400 0.47850 0.92520 0.24100
Pr	Pr	0.21346 0.97769 0.24888 2.06900
S 	S 	0.80418 0.73515 0.12510 0.08200
O 	O 	0.88550 0.93870 0.00490 -0.56900
O 	O 	0.02370 0.87120 0.23860 -0.44600
O 	O 	0.39890 0.61820 0.90620 -0.52500
O 	O 	0.64750 0.58290 0.08910 -0.52700
O 	O 	0.20070 0.96480 0.55400 -0.40300
O 	O 	0.02770 0.95990 0.70370 -0.41500
O 	O 	0.48960 0.99300 0.18640 -0.74500
H 	H 	0.58230 0.00060 0.26840 0.33800
H 	H 	0.47320 0.94630 0.17780 0.24200
C 	C 	0.76710 0.82490 0.04480 -0.11200
C 	C 	0.60800 0.83220 0.92660 -0.03100
H 	H 	0.56530 0.87660 0.86950 0.05400
C 	C 	0.51610 0.76590 0.90090 0.02100
H 	H 	0.40590 0.76180 0.82670 0.03200
C 	C 	0.60640 0.70820 0.99660 -0.14600
C 	C 	0.89810 0.88150 0.09860 0.38300
C 	C 	0.54710 0.63070 0.99670 0.45800
C 	C 	0.06600 0.97850 0.57480 0.24100
