data_crystal

_cell_length_a 22.46600
_cell_length_b 22.46600
_cell_length_c 13.38700
_cell_angle_alpha 90.00000
_cell_angle_beta  90.00000
_cell_angle_gamma 90.00000

_symmetry_space_group_name_	'P 1'
_symmetry_space_group_name_H-M	'P 1'

loop_
_symmetry_equiv_pos_as_xyz
  x,y,z

loop_
_atom_site_label
_atom_site_type_symbol
_atom_site_fract_x
_atom_site_fract_y
_atom_site_fract_z
_atom_site_charge
Ni	Ni	0.18273 0.06580 0.72406 1.05000
C 	C 	0.08444 0.36697 0.26580 0.09600
C 	C 	0.09641 0.42715 0.26280 -0.08600
H 	H 	0.07540 0.45140 0.21900 0.06600
C 	C 	0.13938 0.45192 0.32450 -0.06600
H 	H 	0.14690 0.49260 0.32270 0.05600
C 	C 	0.17094 0.41535 0.38890 0.07900
C 	C 	0.16136 0.35497 0.38830 -0.06200
H 	H 	0.18430 0.33030 0.42870 0.04500
C 	C 	0.11823 0.33108 0.32840 -0.09100
H 	H 	0.11140 0.29030 0.32950 0.07100
C 	C 	0.23118 0.41719 0.54390 0.10600
H 	H 	0.21700 0.38130 0.56910 -0.03400
C 	C 	0.27890 0.49827 0.52770 0.00700
H 	H 	0.30440 0.52990 0.54060 0.02900
C 	C 	0.24420 0.49292 0.44550 -0.00100
H 	H 	0.24200 0.51940 0.39220 0.03200
C 	C 	0.95866 0.39980 0.27660 -0.08700
H 	H 	0.97900 0.40090 0.33710 0.07000
C 	C 	0.90368 0.42700 0.26810 -0.07000
H 	H 	0.88740 0.44650 0.32290 0.06100
C 	C 	0.87285 0.42556 0.17920 0.08400
C 	C 	0.89714 0.39670 0.09700 -0.07300
H 	H 	0.87630 0.39470 0.03710 0.05600
C 	C 	0.95290 0.37091 0.10570 -0.08600
H 	H 	0.97020 0.35310 0.05010 0.06300
C 	C 	0.98337 0.37113 0.19580 0.09400
C 	C 	0.76654 0.42713 0.12540 0.00100
H 	H 	0.76560 0.39230 0.08780 0.03000
C 	C 	0.72092 0.46353 0.14460 0.00500
H 	H 	0.68200 0.45750 0.12320 0.01800
C 	C 	0.79647 0.50215 0.21590 0.10300
H 	H 	0.82100 0.52750 0.25240 -0.01500
C 	C 	0.00824 0.24665 0.13370 -0.09300
H 	H 	0.97090 0.25110 0.16280 0.06500
C 	C 	0.02000 0.19652 0.07540 -0.06300
H 	H 	0.99080 0.16780 0.06540 0.05500
C 	C 	0.07554 0.19002 0.03280 0.07700
C 	C 	0.11893 0.23155 0.05010 -0.07200
H 	H 	0.15690 0.22600 0.02390 0.04500
C 	C 	0.10676 0.28179 0.10650 -0.09000
H 	H 	0.13600 0.31050 0.11600 0.06800
C 	C 	0.05072 0.28935 0.14890 0.09900
C 	C 	0.13007 0.13833 0.89780 0.09500
H 	H 	0.15540 0.16990 0.88340 -0.04500
C 	C 	0.06010 0.08611 0.96810 0.00400
H 	H 	0.02890 0.07380 0.00880 0.03100
C 	C 	0.08711 0.05384 0.89400 0.00900
H 	H 	0.07720 0.01510 0.87610 0.02600
C 	C 	0.09312 0.03983 0.63070 0.29100
C 	C 	0.04476 0.01926 0.56450 -0.05800
C 	C 	0.03716 0.95874 0.54570 -0.02900
H 	H 	0.06200 0.93100 0.57610 0.05100
C 	C 	0.00752 0.06013 0.51840 -0.02600
H 	H 	0.01260 0.10060 0.53060 0.05400
N 	N 	0.03897 0.34148 0.20500 -0.15500
N 	N 	0.21306 0.44093 0.45640 -0.13800
N 	N 	0.27074 0.44992 0.58940 -0.23600
N 	N 	0.81498 0.45138 0.17200 -0.13700
N 	N 	0.73985 0.51126 0.20080 -0.24800
N 	N 	0.08812 0.13977 0.96998 -0.13700
N 	N 	0.13087 0.08722 0.85030 -0.23600
O 	O 	0.10732 0.09384 0.63410 -0.38200
O 	O 	0.12131 0.00158 0.68279 -0.38300
Ni	Ni	0.31727 0.43420 0.72406 1.05100
C 	C 	0.41556 0.13303 0.26580 0.09600
C 	C 	0.40359 0.07285 0.26280 -0.08500
H 	H 	0.42460 0.04860 0.21900 0.06700
C 	C 	0.36062 0.04808 0.32450 -0.06500
H 	H 	0.35310 0.00740 0.32270 0.05700
C 	C 	0.32906 0.08465 0.38890 0.08000
C 	C 	0.33864 0.14503 0.38830 -0.06100
H 	H 	0.31570 0.16970 0.42870 0.04600
C 	C 	0.38177 0.16892 0.32840 -0.09000
H 	H 	0.38860 0.20970 0.32950 0.07100
C 	C 	0.26882 0.08281 0.54390 0.10600
H 	H 	0.28300 0.11870 0.56910 -0.03400
C 	C 	0.22110 0.00173 0.52770 0.00700
H 	H 	0.19560 0.97010 0.54060 0.02800
C 	C 	0.25580 0.00708 0.44550 -0.00000
H 	H 	0.25800 0.98060 0.39220 0.03200
C 	C 	0.54134 0.10020 0.27660 -0.08700
H 	H 	0.52100 0.09910 0.33710 0.07000
C 	C 	0.59632 0.07300 0.26810 -0.07000
H 	H 	0.61260 0.05350 0.32290 0.06100
C 	C 	0.62715 0.07444 0.17920 0.08400
C 	C 	0.60286 0.10330 0.09700 -0.07200
H 	H 	0.62370 0.10530 0.03710 0.05500
C 	C 	0.54710 0.12909 0.10570 -0.08700
H 	H 	0.52980 0.14690 0.05010 0.06300
C 	C 	0.51663 0.12887 0.19580 0.09400
C 	C 	0.73346 0.07287 0.12540 0.00100
H 	H 	0.73440 0.10770 0.08780 0.03000
C 	C 	0.77908 0.03647 0.14460 0.00500
H 	H 	0.81800 0.04250 0.12320 0.01800
C 	C 	0.70353 0.99785 0.21590 0.10300
H 	H 	0.67900 0.97250 0.25240 -0.01500
C 	C 	0.49176 0.25335 0.13370 -0.09300
H 	H 	0.52910 0.24890 0.16280 0.06500
C 	C 	0.48000 0.30348 0.07540 -0.06400
H 	H 	0.50920 0.33220 0.06540 0.05600
C 	C 	0.42446 0.30998 0.03280 0.07700
C 	C 	0.38107 0.26845 0.05010 -0.07200
H 	H 	0.34310 0.27400 0.02390 0.04500
C 	C 	0.39324 0.21821 0.10650 -0.09000
H 	H 	0.36400 0.18950 0.11600 0.06800
C 	C 	0.44928 0.21065 0.14890 0.09900
C 	C 	0.36993 0.36167 0.89780 0.09500
H 	H 	0.34460 0.33010 0.88340 -0.04500
C 	C 	0.43990 0.41389 0.96810 0.00400
H 	H 	0.47110 0.42620 0.00880 0.03100
C 	C 	0.41289 0.44616 0.89400 0.00900
H 	H 	0.42280 0.48490 0.87610 0.02600
C 	C 	0.40688 0.46017 0.63070 0.29100
C 	C 	0.45524 0.48074 0.56450 -0.05900
C 	C 	0.46284 0.54126 0.54570 -0.02700
H 	H 	0.43800 0.56900 0.57610 0.05100
C 	C 	0.49248 0.43987 0.51840 -0.02700
H 	H 	0.48740 0.39940 0.53060 0.05400
N 	N 	0.46103 0.15852 0.20500 -0.15500
N 	N 	0.28694 0.05907 0.45640 -0.13800
N 	N 	0.22926 0.05008 0.58940 -0.23600
N 	N 	0.68502 0.04862 0.17200 -0.13700
N 	N 	0.76015 0.98874 0.20080 -0.24700
N 	N 	0.41188 0.36023 0.96998 -0.13700
N 	N 	0.36913 0.41278 0.85030 -0.23600
O 	O 	0.39268 0.40616 0.63410 -0.38200
O 	O 	0.37869 0.49842 0.68279 -0.38400
Ni	Ni	0.81727 0.93420 0.27594 1.05100
C 	C 	0.91556 0.63303 0.73420 0.09700
C 	C 	0.90359 0.57285 0.73720 -0.08500
H 	H 	0.92460 0.54860 0.78100 0.06700
C 	C 	0.86062 0.54808 0.67550 -0.06500
H 	H 	0.85310 0.50740 0.67730 0.05700
C 	C 	0.82906 0.58465 0.61110 0.08000
C 	C 	0.83864 0.64503 0.61170 -0.06100
H 	H 	0.81570 0.66970 0.57130 0.04600
C 	C 	0.88177 0.66892 0.67160 -0.09000
H 	H 	0.88860 0.70970 0.67050 0.07100
C 	C 	0.76882 0.58281 0.45610 0.10600
H 	H 	0.78300 0.61870 0.43090 -0.03400
C 	C 	0.72110 0.50173 0.47230 0.00700
H 	H 	0.69560 0.47010 0.45940 0.02900
C 	C 	0.75580 0.50708 0.55450 -0.00100
H 	H 	0.75800 0.48060 0.60780 0.03200
C 	C 	0.04134 0.60020 0.72340 -0.08700
H 	H 	0.02100 0.59910 0.66290 0.07000
C 	C 	0.09632 0.57300 0.73190 -0.07000
H 	H 	0.11260 0.55350 0.67710 0.06100
C 	C 	0.12715 0.57444 0.82080 0.08400
C 	C 	0.10286 0.60330 0.90300 -0.07300
H 	H 	0.12370 0.60530 0.96290 0.05600
C 	C 	0.04710 0.62909 0.89430 -0.08600
H 	H 	0.02980 0.64690 0.94990 0.06300
C 	C 	0.01663 0.62887 0.80420 0.09400
C 	C 	0.23346 0.57287 0.87460 0.00100
H 	H 	0.23440 0.60770 0.91220 0.03000
C 	C 	0.27908 0.53647 0.85540 0.00500
H 	H 	0.31800 0.54250 0.87680 0.01800
C 	C 	0.20353 0.49785 0.78410 0.10300
H 	H 	0.17900 0.47250 0.74760 -0.01500
C 	C 	0.99176 0.75335 0.86630 -0.09300
H 	H 	0.02910 0.74890 0.83720 0.06500
C 	C 	0.98000 0.80348 0.92460 -0.06300
H 	H 	0.00920 0.83220 0.93460 0.05500
C 	C 	0.92446 0.80998 0.96720 0.07700
C 	C 	0.88107 0.76845 0.94990 -0.07200
H 	H 	0.84310 0.77400 0.97610 0.04500
C 	C 	0.89324 0.71821 0.89350 -0.09000
H 	H 	0.86400 0.68950 0.88400 0.06800
C 	C 	0.94928 0.71065 0.85110 0.09900
C 	C 	0.86993 0.86167 0.10220 0.09500
H 	H 	0.84460 0.83010 0.11660 -0.04500
C 	C 	0.93990 0.91389 0.03190 0.00400
H 	H 	0.97110 0.92620 0.99120 0.03100
C 	C 	0.91289 0.94616 0.10600 0.00900
H 	H 	0.92280 0.98490 0.12390 0.02600
C 	C 	0.90688 0.96017 0.36930 0.29100
C 	C 	0.95524 0.98074 0.43550 -0.05800
C 	C 	0.96284 0.04126 0.45430 -0.02900
H 	H 	0.93800 0.06900 0.42390 0.05100
C 	C 	0.99248 0.93987 0.48160 -0.02600
H 	H 	0.98740 0.89940 0.46940 0.05400
N 	N 	0.96103 0.65852 0.79500 -0.15500
N 	N 	0.78694 0.55907 0.54360 -0.13800
N 	N 	0.72926 0.55008 0.41060 -0.23600
N 	N 	0.18502 0.54862 0.82800 -0.13700
N 	N 	0.26015 0.48874 0.79920 -0.24800
N 	N 	0.91188 0.86023 0.03002 -0.13700
N 	N 	0.86913 0.91278 0.14970 -0.23600
O 	O 	0.89268 0.90616 0.36590 -0.38200
O 	O 	0.87869 0.99842 0.31721 -0.38300
Ni	Ni	0.68273 0.56580 0.27594 1.05100
C 	C 	0.58444 0.86697 0.73420 0.09600
C 	C 	0.59641 0.92715 0.73720 -0.08500
H 	H 	0.57540 0.95140 0.78100 0.06700
C 	C 	0.63938 0.95192 0.67550 -0.06500
H 	H 	0.64690 0.99260 0.67730 0.05700
C 	C 	0.67094 0.91535 0.61110 0.08000
C 	C 	0.66136 0.85497 0.61170 -0.06100
H 	H 	0.68430 0.83030 0.57130 0.04600
C 	C 	0.61823 0.83108 0.67160 -0.09000
H 	H 	0.61140 0.79030 0.67050 0.07100
C 	C 	0.73118 0.91719 0.45610 0.10600
H 	H 	0.71700 0.88130 0.43090 -0.03400
C 	C 	0.77890 0.99827 0.47230 0.00700
H 	H 	0.80440 0.02990 0.45940 0.02800
C 	C 	0.74420 0.99292 0.55450 -0.00000
H 	H 	0.74200 0.01940 0.60780 0.03200
C 	C 	0.45866 0.89980 0.72340 -0.08700
H 	H 	0.47900 0.90090 0.66290 0.07000
C 	C 	0.40368 0.92700 0.73190 -0.07000
H 	H 	0.38740 0.94650 0.67710 0.06100
C 	C 	0.37285 0.92556 0.82080 0.08400
C 	C 	0.39714 0.89670 0.90300 -0.07200
H 	H 	0.37630 0.89470 0.96290 0.05500
C 	C 	0.45290 0.87091 0.89430 -0.08700
H 	H 	0.47020 0.85310 0.94990 0.06300
C 	C 	0.48337 0.87113 0.80420 0.09400
C 	C 	0.26654 0.92713 0.87460 0.00100
H 	H 	0.26560 0.89230 0.91220 0.03000
C 	C 	0.22092 0.96353 0.85540 0.00500
H 	H 	0.18200 0.95750 0.87680 0.01800
C 	C 	0.29647 0.00215 0.78410 0.10300
H 	H 	0.32100 0.02750 0.74760 -0.01500
C 	C 	0.50824 0.74665 0.86630 -0.09300
H 	H 	0.47090 0.75110 0.83720 0.06500
C 	C 	0.52000 0.69652 0.92460 -0.06400
H 	H 	0.49080 0.66780 0.93460 0.05600
C 	C 	0.57554 0.69002 0.96720 0.07700
C 	C 	0.61893 0.73155 0.94990 -0.07200
H 	H 	0.65690 0.72600 0.97610 0.04500
C 	C 	0.60676 0.78179 0.89350 -0.09000
H 	H 	0.63600 0.81050 0.88400 0.06800
C 	C 	0.55072 0.78935 0.85110 0.09900
C 	C 	0.63007 0.63833 0.10220 0.09500
H 	H 	0.65540 0.66990 0.11660 -0.04500
C 	C 	0.56010 0.58611 0.03190 0.00400
H 	H 	0.52890 0.57380 0.99120 0.03100
C 	C 	0.58711 0.55384 0.10600 0.00900
H 	H 	0.57720 0.51510 0.12390 0.02600
C 	C 	0.59312 0.53983 0.36930 0.29100
C 	C 	0.54476 0.51926 0.43550 -0.05900
C 	C 	0.53716 0.45874 0.45430 -0.02700
H 	H 	0.56200 0.43100 0.42390 0.05100
C 	C 	0.50752 0.56013 0.48160 -0.02700
H 	H 	0.51260 0.60060 0.46940 0.05400
N 	N 	0.53897 0.84148 0.79500 -0.15500
N 	N 	0.71306 0.94093 0.54360 -0.13800
N 	N 	0.77074 0.94992 0.41060 -0.23600
N 	N 	0.31498 0.95138 0.82800 -0.13700
N 	N 	0.23985 0.01126 0.79920 -0.24700
N 	N 	0.58812 0.63977 0.03002 -0.13700
N 	N 	0.63087 0.58722 0.14970 -0.23600
O 	O 	0.60732 0.59384 0.36590 -0.38200
O 	O 	0.62131 0.50158 0.31721 -0.38400
Ni	Ni	0.43420 0.18273 0.72406 1.05100
C 	C 	0.13303 0.08444 0.26580 0.09700
C 	C 	0.07285 0.09641 0.26280 -0.08500
H 	H 	0.04860 0.07540 0.21900 0.06700
C 	C 	0.04808 0.13938 0.32450 -0.06500
H 	H 	0.00740 0.14690 0.32270 0.05700
C 	C 	0.08465 0.17094 0.38890 0.08000
C 	C 	0.14503 0.16136 0.38830 -0.06100
H 	H 	0.16970 0.18430 0.42870 0.04600
C 	C 	0.16892 0.11823 0.32840 -0.09000
H 	H 	0.20970 0.11140 0.32950 0.07100
C 	C 	0.08281 0.23118 0.54390 0.10600
H 	H 	0.11870 0.21700 0.56910 -0.03400
C 	C 	0.00173 0.27890 0.52770 0.00700
H 	H 	0.97010 0.30440 0.54060 0.02900
C 	C 	0.00708 0.24420 0.44550 0.00000
H 	H 	0.98060 0.24200 0.39220 0.03200
C 	C 	0.10020 0.95866 0.27660 -0.08700
H 	H 	0.09910 0.97900 0.33710 0.07000
C 	C 	0.07300 0.90368 0.26810 -0.07000
H 	H 	0.05350 0.88740 0.32290 0.06100
C 	C 	0.07444 0.87285 0.17920 0.08400
C 	C 	0.10330 0.89714 0.09700 -0.07300
H 	H 	0.10530 0.87630 0.03710 0.05600
C 	C 	0.12909 0.95290 0.10570 -0.08600
H 	H 	0.14690 0.97020 0.05010 0.06200
C 	C 	0.12887 0.98337 0.19580 0.09300
C 	C 	0.07287 0.76654 0.12540 0.00100
H 	H 	0.10770 0.76560 0.08780 0.03000
C 	C 	0.03647 0.72092 0.14460 0.00500
H 	H 	0.04250 0.68200 0.12320 0.01800
C 	C 	0.99785 0.79647 0.21590 0.10300
H 	H 	0.97250 0.82100 0.25240 -0.01500
C 	C 	0.25335 0.00824 0.13370 -0.09200
H 	H 	0.24890 0.97090 0.16280 0.06500
C 	C 	0.30348 0.02000 0.07540 -0.06400
H 	H 	0.33220 0.99080 0.06540 0.05500
C 	C 	0.30998 0.07554 0.03280 0.07700
C 	C 	0.26845 0.11893 0.05010 -0.07200
H 	H 	0.27400 0.15690 0.02390 0.04500
C 	C 	0.21821 0.10676 0.10650 -0.09000
H 	H 	0.18950 0.13600 0.11600 0.06700
C 	C 	0.21065 0.05072 0.14890 0.09900
C 	C 	0.36167 0.13007 0.89780 0.09500
H 	H 	0.33010 0.15540 0.88340 -0.04500
C 	C 	0.41389 0.06010 0.96810 0.00400
H 	H 	0.42620 0.02890 0.00880 0.03100
C 	C 	0.44616 0.08711 0.89400 0.00900
H 	H 	0.48490 0.07720 0.87610 0.02600
C 	C 	0.46017 0.09312 0.63070 0.29100
C 	C 	0.48074 0.04476 0.56450 -0.05900
C 	C 	0.54126 0.03716 0.54570 -0.02700
H 	H 	0.56900 0.06200 0.57610 0.05100
C 	C 	0.43987 0.00752 0.51840 -0.02700
H 	H 	0.39940 0.01260 0.53060 0.05400
N 	N 	0.15852 0.03897 0.20500 -0.15500
N 	N 	0.05907 0.21306 0.45640 -0.13800
N 	N 	0.05008 0.27074 0.58940 -0.23600
N 	N 	0.04862 0.81498 0.17200 -0.13700
N 	N 	0.98874 0.73985 0.20080 -0.24800
N 	N 	0.36023 0.08812 0.96998 -0.13700
N 	N 	0.41278 0.13087 0.85030 -0.23600
O 	O 	0.40616 0.10732 0.63410 -0.38200
O 	O 	0.49842 0.12131 0.68279 -0.38400
Ni	Ni	0.06580 0.31727 0.72406 1.05100
C 	C 	0.36697 0.41556 0.26580 0.09700
C 	C 	0.42715 0.40359 0.26280 -0.08500
H 	H 	0.45140 0.42460 0.21900 0.06700
C 	C 	0.45192 0.36062 0.32450 -0.06500
H 	H 	0.49260 0.35310 0.32270 0.05700
C 	C 	0.41535 0.32906 0.38890 0.08000
C 	C 	0.35497 0.33864 0.38830 -0.06100
H 	H 	0.33030 0.31570 0.42870 0.04600
C 	C 	0.33108 0.38177 0.32840 -0.09000
H 	H 	0.29030 0.38860 0.32950 0.07100
C 	C 	0.41719 0.26882 0.54390 0.10600
H 	H 	0.38130 0.28300 0.56910 -0.03400
C 	C 	0.49827 0.22110 0.52770 0.00700
H 	H 	0.52990 0.19560 0.54060 0.02900
C 	C 	0.49292 0.25580 0.44550 -0.00100
H 	H 	0.51940 0.25800 0.39220 0.03200
C 	C 	0.39980 0.54134 0.27660 -0.08700
H 	H 	0.40090 0.52100 0.33710 0.07000
C 	C 	0.42700 0.59632 0.26810 -0.07000
H 	H 	0.44650 0.61260 0.32290 0.06100
C 	C 	0.42556 0.62715 0.17920 0.08400
C 	C 	0.39670 0.60286 0.09700 -0.07200
H 	H 	0.39470 0.62370 0.03710 0.05500
C 	C 	0.37091 0.54710 0.10570 -0.08700
H 	H 	0.35310 0.52980 0.05010 0.06300
C 	C 	0.37113 0.51663 0.19580 0.09400
C 	C 	0.42713 0.73346 0.12540 0.00100
H 	H 	0.39230 0.73440 0.08780 0.03000
C 	C 	0.46353 0.77908 0.14460 0.00500
H 	H 	0.45750 0.81800 0.12320 0.01800
C 	C 	0.50215 0.70353 0.21590 0.10300
H 	H 	0.52750 0.67900 0.25240 -0.01500
C 	C 	0.24665 0.49176 0.13370 -0.09300
H 	H 	0.25110 0.52910 0.16280 0.06500
C 	C 	0.19652 0.48000 0.07540 -0.06400
H 	H 	0.16780 0.50920 0.06540 0.05600
C 	C 	0.19002 0.42446 0.03280 0.07700
C 	C 	0.23155 0.38107 0.05010 -0.07200
H 	H 	0.22600 0.34310 0.02390 0.04500
C 	C 	0.28179 0.39324 0.10650 -0.09000
H 	H 	0.31050 0.36400 0.11600 0.06800
C 	C 	0.28935 0.44928 0.14890 0.09900
C 	C 	0.13833 0.36993 0.89780 0.09500
H 	H 	0.16990 0.34460 0.88340 -0.04500
C 	C 	0.08611 0.43990 0.96810 0.00400
H 	H 	0.07380 0.47110 0.00880 0.03100
C 	C 	0.05384 0.41289 0.89400 0.00900
H 	H 	0.01510 0.42280 0.87610 0.02600
C 	C 	0.03983 0.40688 0.63070 0.29100
C 	C 	0.01926 0.45524 0.56450 -0.05900
C 	C 	0.95874 0.46284 0.54570 -0.02700
H 	H 	0.93100 0.43800 0.57610 0.05100
C 	C 	0.06013 0.49248 0.51840 -0.02700
H 	H 	0.10060 0.48740 0.53060 0.05400
N 	N 	0.34148 0.46103 0.20500 -0.15500
N 	N 	0.44093 0.28694 0.45640 -0.13800
N 	N 	0.44992 0.22926 0.58940 -0.23600
N 	N 	0.45138 0.68502 0.17200 -0.13700
N 	N 	0.51126 0.76015 0.20080 -0.24800
N 	N 	0.13977 0.41188 0.96998 -0.13700
N 	N 	0.08722 0.36913 0.85030 -0.23600
O 	O 	0.09384 0.39268 0.63410 -0.38200
O 	O 	0.00158 0.37869 0.68279 -0.38400
Ni	Ni	0.56580 0.81727 0.27594 1.05100
C 	C 	0.86697 0.91556 0.73420 0.09700
C 	C 	0.92715 0.90359 0.73720 -0.08500
H 	H 	0.95140 0.92460 0.78100 0.06700
C 	C 	0.95192 0.86062 0.67550 -0.06500
H 	H 	0.99260 0.85310 0.67730 0.05700
C 	C 	0.91535 0.82906 0.61110 0.08000
C 	C 	0.85497 0.83864 0.61170 -0.06100
H 	H 	0.83030 0.81570 0.57130 0.04600
C 	C 	0.83108 0.88177 0.67160 -0.09000
H 	H 	0.79030 0.88860 0.67050 0.07100
C 	C 	0.91719 0.76882 0.45610 0.10600
H 	H 	0.88130 0.78300 0.43090 -0.03400
C 	C 	0.99827 0.72110 0.47230 0.00700
H 	H 	0.02990 0.69560 0.45940 0.02900
C 	C 	0.99292 0.75580 0.55450 0.00000
H 	H 	0.01940 0.75800 0.60780 0.03200
C 	C 	0.89980 0.04134 0.72340 -0.08700
H 	H 	0.90090 0.02100 0.66290 0.07000
C 	C 	0.92700 0.09632 0.73190 -0.07000
H 	H 	0.94650 0.11260 0.67710 0.06100
C 	C 	0.92556 0.12715 0.82080 0.08400
C 	C 	0.89670 0.10286 0.90300 -0.07300
H 	H 	0.89470 0.12370 0.96290 0.05600
C 	C 	0.87091 0.04710 0.89430 -0.08600
H 	H 	0.85310 0.02980 0.94990 0.06200
C 	C 	0.87113 0.01663 0.80420 0.09300
C 	C 	0.92713 0.23346 0.87460 0.00100
H 	H 	0.89230 0.23440 0.91220 0.03000
C 	C 	0.96353 0.27908 0.85540 0.00500
H 	H 	0.95750 0.31800 0.87680 0.01800
C 	C 	0.00215 0.20353 0.78410 0.10300
H 	H 	0.02750 0.17900 0.74760 -0.01500
C 	C 	0.74665 0.99176 0.86630 -0.09200
H 	H 	0.75110 0.02910 0.83720 0.06500
C 	C 	0.69652 0.98000 0.92460 -0.06400
H 	H 	0.66780 0.00920 0.93460 0.05500
C 	C 	0.69002 0.92446 0.96720 0.07700
C 	C 	0.73155 0.88107 0.94990 -0.07200
H 	H 	0.72600 0.84310 0.97610 0.04500
C 	C 	0.78179 0.89324 0.89350 -0.09000
H 	H 	0.81050 0.86400 0.88400 0.06700
C 	C 	0.78935 0.94928 0.85110 0.09900
C 	C 	0.63833 0.86993 0.10220 0.09500
H 	H 	0.66990 0.84460 0.11660 -0.04500
C 	C 	0.58611 0.93990 0.03190 0.00400
H 	H 	0.57380 0.97110 0.99120 0.03100
C 	C 	0.55384 0.91289 0.10600 0.00900
H 	H 	0.51510 0.92280 0.12390 0.02600
C 	C 	0.53983 0.90688 0.36930 0.29100
C 	C 	0.51926 0.95524 0.43550 -0.05900
C 	C 	0.45874 0.96284 0.45430 -0.02700
H 	H 	0.43100 0.93800 0.42390 0.05100
C 	C 	0.56013 0.99248 0.48160 -0.02700
H 	H 	0.60060 0.98740 0.46940 0.05400
N 	N 	0.84148 0.96103 0.79500 -0.15500
N 	N 	0.94093 0.78694 0.54360 -0.13800
N 	N 	0.94992 0.72926 0.41060 -0.23600
N 	N 	0.95138 0.18502 0.82800 -0.13700
N 	N 	0.01126 0.26015 0.79920 -0.24800
N 	N 	0.63977 0.91188 0.03002 -0.13700
N 	N 	0.58722 0.86913 0.14970 -0.23600
O 	O 	0.59384 0.89268 0.36590 -0.38200
O 	O 	0.50158 0.87869 0.31721 -0.38400
Ni	Ni	0.93420 0.68273 0.27594 1.05100
C 	C 	0.63303 0.58444 0.73420 0.09700
C 	C 	0.57285 0.59641 0.73720 -0.08500
H 	H 	0.54860 0.57540 0.78100 0.06700
C 	C 	0.54808 0.63938 0.67550 -0.06500
H 	H 	0.50740 0.64690 0.67730 0.05700
C 	C 	0.58465 0.67094 0.61110 0.08000
C 	C 	0.64503 0.66136 0.61170 -0.06100
H 	H 	0.66970 0.68430 0.57130 0.04600
C 	C 	0.66892 0.61823 0.67160 -0.09000
H 	H 	0.70970 0.61140 0.67050 0.07100
C 	C 	0.58281 0.73118 0.45610 0.10600
H 	H 	0.61870 0.71700 0.43090 -0.03400
C 	C 	0.50173 0.77890 0.47230 0.00700
H 	H 	0.47010 0.80440 0.45940 0.02900
C 	C 	0.50708 0.74420 0.55450 -0.00100
H 	H 	0.48060 0.74200 0.60780 0.03200
C 	C 	0.60020 0.45866 0.72340 -0.08700
H 	H 	0.59910 0.47900 0.66290 0.07000
C 	C 	0.57300 0.40368 0.73190 -0.07000
H 	H 	0.55350 0.38740 0.67710 0.06100
C 	C 	0.57444 0.37285 0.82080 0.08400
C 	C 	0.60330 0.39714 0.90300 -0.07200
H 	H 	0.60530 0.37630 0.96290 0.05500
C 	C 	0.62909 0.45290 0.89430 -0.08700
H 	H 	0.64690 0.47020 0.94990 0.06300
C 	C 	0.62887 0.48337 0.80420 0.09400
C 	C 	0.57287 0.26654 0.87460 0.00100
H 	H 	0.60770 0.26560 0.91220 0.03000
C 	C 	0.53647 0.22092 0.85540 0.00500
H 	H 	0.54250 0.18200 0.87680 0.01800
C 	C 	0.49785 0.29647 0.78410 0.10300
H 	H 	0.47250 0.32100 0.74760 -0.01500
C 	C 	0.75335 0.50824 0.86630 -0.09300
H 	H 	0.74890 0.47090 0.83720 0.06500
C 	C 	0.80348 0.52000 0.92460 -0.06400
H 	H 	0.83220 0.49080 0.93460 0.05600
C 	C 	0.80998 0.57554 0.96720 0.07700
C 	C 	0.76845 0.61893 0.94990 -0.07200
H 	H 	0.77400 0.65690 0.97610 0.04500
C 	C 	0.71821 0.60676 0.89350 -0.09000
H 	H 	0.68950 0.63600 0.88400 0.06800
C 	C 	0.71065 0.55072 0.85110 0.09900
C 	C 	0.86167 0.63007 0.10220 0.09500
H 	H 	0.83010 0.65540 0.11660 -0.04500
C 	C 	0.91389 0.56010 0.03190 0.00400
H 	H 	0.92620 0.52890 0.99120 0.03100
C 	C 	0.94616 0.58711 0.10600 0.00900
H 	H 	0.98490 0.57720 0.12390 0.02600
C 	C 	0.96017 0.59312 0.36930 0.29100
C 	C 	0.98074 0.54476 0.43550 -0.05900
C 	C 	0.04126 0.53716 0.45430 -0.02700
H 	H 	0.06900 0.56200 0.42390 0.05100
C 	C 	0.93987 0.50752 0.48160 -0.02700
H 	H 	0.89940 0.51260 0.46940 0.05400
N 	N 	0.65852 0.53897 0.79500 -0.15500
N 	N 	0.55907 0.71306 0.54360 -0.13800
N 	N 	0.55008 0.77074 0.41060 -0.23600
N 	N 	0.54862 0.31498 0.82800 -0.13700
N 	N 	0.48874 0.23985 0.79920 -0.24800
N 	N 	0.86023 0.58812 0.03002 -0.13700
N 	N 	0.91278 0.63087 0.14970 -0.23600
O 	O 	0.90616 0.60732 0.36590 -0.38200
O 	O 	0.99842 0.62131 0.31721 -0.38400
