data_crystal

_cell_length_a 9.14220
_cell_length_b 25.93800
_cell_length_c 20.30100
_cell_angle_alpha 90.00000
_cell_angle_beta  101.89000
_cell_angle_gamma 90.00000

_symmetry_space_group_name_	'P 1'
_symmetry_space_group_name_H-M	'P 1'

loop_
_symmetry_equiv_pos_as_xyz
  x,y,z

loop_
_atom_site_label
_atom_site_type_symbol
_atom_site_fract_x
_atom_site_fract_y
_atom_site_fract_z
_atom_site_charge
Zn	Zn	0.27152 0.62215 0.51487 1.20900
O 	O 	0.45390 0.66297 0.52207 -0.46200
O 	O 	0.60660 0.61620 0.47388 -0.29300
O 	O 	0.50230 0.28215 0.81930 -0.24300
O 	O 	0.16770 0.62861 0.42080 -0.45700
N 	N 	0.32860 0.17210 0.92995 -0.29100
O 	O 	0.48610 0.42654 0.67483 -0.24900
O 	O 	0.11490 0.54587 0.42751 -0.32700
N 	N 	0.32880 0.55663 0.56617 -0.30100
C 	C 	0.44030 0.24744 0.85559 0.29400
C 	C 	0.40810 0.32392 0.78873 0.01900
H 	H 	0.37590 0.34450 0.82310 0.04500
H 	H 	0.32010 0.31050 0.75850 0.03900
C 	C 	0.62930 0.74903 0.53100 -0.07300
H 	H 	0.54840 0.74820 0.55220 0.07000
C 	C 	0.57020 0.65741 0.49744 0.35600
C 	C 	0.02710 0.63263 0.28420 -0.01900
H 	H 	0.04530 0.66380 0.30720 0.04000
C 	C 	0.31840 0.25809 0.88350 -0.28500
H 	H 	0.27160 0.29010 0.87770 0.14000
C 	C 	0.44900 0.16318 0.90240 0.15600
H 	H 	0.49470 0.13100 0.90900 -0.04000
C 	C 	0.11610 0.58570 0.39450 0.33000
C 	C 	0.42610 0.46759 0.63898 0.29800
C 	C 	0.66520 0.70465 0.49898 -0.10500
C 	C 	0.78910 0.70529 0.46780 0.13100
C 	C 	0.05540 0.58578 0.31988 -0.11800
C 	C 	0.50710 0.19909 0.86530 -0.27600
H 	H 	0.58970 0.19130 0.84700 0.14000
C 	C 	0.52820 0.50115 0.61920 -0.26600
H 	H 	0.63010 0.49420 0.63000 0.13400
C 	C 	0.47580 0.54453 0.58350 0.14100
H 	H 	0.54460 0.56680 0.57060 -0.02500
C 	C 	0.27470 0.47899 0.62060 -0.28100
H 	H 	0.20360 0.45720 0.63240 0.13800
C 	C 	0.23230 0.52354 0.58430 0.16300
H 	H 	0.13080 0.53090 0.57180 -0.03700
C 	C 	0.39170 0.39088 0.70068 0.02800
H 	H 	0.33330 0.37040 0.66460 0.02900
H 	H 	0.32410 0.40900 0.72380 0.03700
C 	C 	0.26810 0.21988 0.92030 0.14500
H 	H 	0.18720 0.22740 0.94000 -0.03000
C 	C 	0.02770 0.53884 0.28500 0.08200
N 	N 	0.83910 0.66290 0.43790 -0.30800
H 	H 	0.77070 0.63940 0.43030 0.17000
H 	H 	0.85990 0.67220 0.40000 0.14500
N 	N 	0.05280 0.49040 0.30870 -0.28700
H 	H 	0.12960 0.49030 0.34160 0.15100
H 	H 	0.97610 0.47930 0.32310 0.14700
Zn	Zn	0.77152 0.12215 0.51487 1.20800
O 	O 	0.95390 0.16297 0.52207 -0.46300
O 	O 	0.10660 0.11620 0.47388 -0.29400
O 	O 	0.00230 0.78215 0.81930 -0.24300
O 	O 	0.66770 0.12861 0.42080 -0.45800
N 	N 	0.82860 0.67210 0.92995 -0.29100
O 	O 	0.98610 0.92654 0.67483 -0.25000
O 	O 	0.61490 0.04587 0.42751 -0.32800
N 	N 	0.82880 0.05663 0.56617 -0.30200
C 	C 	0.94030 0.74744 0.85559 0.29000
C 	C 	0.90810 0.82392 0.78873 0.01600
H 	H 	0.87590 0.84450 0.82310 0.04500
H 	H 	0.82010 0.81050 0.75850 0.03800
C 	C 	0.12930 0.24903 0.53100 -0.07300
H 	H 	0.04840 0.24820 0.55220 0.07000
C 	C 	0.07020 0.15741 0.49744 0.35600
C 	C 	0.52710 0.13263 0.28420 -0.01700
H 	H 	0.54530 0.16380 0.30720 0.03900
C 	C 	0.81840 0.75809 0.88350 -0.28300
H 	H 	0.77160 0.79010 0.87770 0.13900
C 	C 	0.94900 0.66318 0.90240 0.15400
H 	H 	0.99470 0.63100 0.90900 -0.04000
C 	C 	0.61610 0.08570 0.39450 0.33000
C 	C 	0.92610 0.96759 0.63898 0.29800
C 	C 	0.16520 0.20465 0.49898 -0.10600
C 	C 	0.28910 0.20529 0.46780 0.13100
C 	C 	0.55540 0.08578 0.31988 -0.11900
C 	C 	0.00710 0.69909 0.86530 -0.27300
H 	H 	0.08970 0.69130 0.84700 0.13900
C 	C 	0.02820 0.00115 0.61920 -0.26600
H 	H 	0.13010 0.99420 0.63000 0.13500
C 	C 	0.97580 0.04453 0.58350 0.14100
H 	H 	0.04460 0.06680 0.57060 -0.02500
C 	C 	0.77470 0.97899 0.62060 -0.28100
H 	H 	0.70360 0.95720 0.63240 0.13800
C 	C 	0.73230 0.02354 0.58430 0.16300
H 	H 	0.63080 0.03090 0.57180 -0.03700
C 	C 	0.89170 0.89088 0.70068 0.02800
H 	H 	0.83330 0.87040 0.66460 0.02900
H 	H 	0.82410 0.90900 0.72380 0.03700
C 	C 	0.76810 0.71988 0.92030 0.14400
H 	H 	0.68720 0.72740 0.94000 -0.02900
C 	C 	0.52770 0.03884 0.28500 0.08300
N 	N 	0.33910 0.16290 0.43790 -0.30800
H 	H 	0.27070 0.13940 0.43030 0.17000
H 	H 	0.35990 0.17220 0.40000 0.14500
N 	N 	0.55280 0.99040 0.30870 -0.28700
H 	H 	0.62960 0.99030 0.34160 0.15100
H 	H 	0.47610 0.97930 0.32310 0.14700
Zn	Zn	0.72848 0.62215 0.98513 1.20800
O 	O 	0.54610 0.66297 0.97793 -0.46300
O 	O 	0.39340 0.61620 0.02612 -0.29400
O 	O 	0.49770 0.28215 0.68070 -0.24400
O 	O 	0.83230 0.62861 0.07920 -0.45800
N 	N 	0.67140 0.17210 0.57005 -0.29200
O 	O 	0.51390 0.42654 0.82517 -0.25000
O 	O 	0.88510 0.54587 0.07249 -0.32700
N 	N 	0.67120 0.55663 0.93383 -0.30200
C 	C 	0.55970 0.24744 0.64441 0.29300
C 	C 	0.59190 0.32392 0.71127 0.01800
H 	H 	0.62410 0.34450 0.67690 0.04400
H 	H 	0.67990 0.31050 0.74150 0.03800
C 	C 	0.37070 0.74903 0.96900 -0.07200
H 	H 	0.45160 0.74820 0.94780 0.07000
C 	C 	0.42980 0.65741 0.00256 0.35700
C 	C 	0.97290 0.63263 0.21580 -0.01600
H 	H 	0.95470 0.66380 0.19280 0.03900
C 	C 	0.68160 0.25809 0.61650 -0.28500
H 	H 	0.72840 0.29010 0.62230 0.14000
C 	C 	0.55100 0.16318 0.59760 0.15700
H 	H 	0.50530 0.13100 0.59100 -0.04000
C 	C 	0.88390 0.58570 0.10550 0.33000
C 	C 	0.57390 0.46759 0.86102 0.29800
C 	C 	0.33480 0.70465 0.00102 -0.10600
C 	C 	0.21090 0.70529 0.03220 0.13200
C 	C 	0.94460 0.58578 0.18012 -0.11900
C 	C 	0.49290 0.19909 0.63470 -0.27600
H 	H 	0.41030 0.19130 0.65300 0.14000
C 	C 	0.47180 0.50115 0.88080 -0.26500
H 	H 	0.36990 0.49420 0.87000 0.13400
C 	C 	0.52420 0.54453 0.91650 0.14100
H 	H 	0.45540 0.56680 0.92940 -0.02500
C 	C 	0.72530 0.47899 0.87940 -0.28000
H 	H 	0.79640 0.45720 0.86760 0.13700
C 	C 	0.76770 0.52354 0.91570 0.16300
H 	H 	0.86920 0.53090 0.92820 -0.03700
C 	C 	0.60830 0.39088 0.79932 0.02800
H 	H 	0.66670 0.37040 0.83540 0.02900
H 	H 	0.67590 0.40900 0.77620 0.03700
C 	C 	0.73190 0.21988 0.57970 0.14500
H 	H 	0.81280 0.22740 0.56000 -0.03000
C 	C 	0.97230 0.53884 0.21500 0.08400
N 	N 	0.16090 0.66290 0.06210 -0.30800
H 	H 	0.22930 0.63940 0.06970 0.17000
H 	H 	0.14010 0.67220 0.10000 0.14500
N 	N 	0.94720 0.49040 0.19130 -0.28700
H 	H 	0.87040 0.49030 0.15840 0.15100
H 	H 	0.02390 0.47930 0.17690 0.14600
Zn	Zn	0.22848 0.12215 0.98513 1.20900
O 	O 	0.04610 0.16297 0.97793 -0.46300
O 	O 	0.89340 0.11620 0.02612 -0.29300
O 	O 	0.99770 0.78215 0.68070 -0.24500
O 	O 	0.33230 0.12861 0.07920 -0.45800
N 	N 	0.17140 0.67210 0.57005 -0.29200
O 	O 	0.01390 0.92654 0.82517 -0.25100
O 	O 	0.38510 0.04587 0.07249 -0.32800
N 	N 	0.17120 0.05663 0.93383 -0.30200
C 	C 	0.05970 0.74744 0.64441 0.29300
C 	C 	0.09190 0.82392 0.71127 0.01800
H 	H 	0.12410 0.84450 0.67690 0.04400
H 	H 	0.17990 0.81050 0.74150 0.03800
C 	C 	0.87070 0.24903 0.96900 -0.07500
H 	H 	0.95160 0.24820 0.94780 0.07100
C 	C 	0.92980 0.15741 0.00256 0.35700
C 	C 	0.47290 0.13263 0.21580 -0.01700
H 	H 	0.45470 0.16380 0.19280 0.04000
C 	C 	0.18160 0.75809 0.61650 -0.28500
H 	H 	0.22840 0.79010 0.62230 0.14000
C 	C 	0.05100 0.66318 0.59760 0.15700
H 	H 	0.00530 0.63100 0.59100 -0.04000
C 	C 	0.38390 0.08570 0.10550 0.33000
C 	C 	0.07390 0.96759 0.86102 0.30100
C 	C 	0.83480 0.20465 0.00102 -0.10400
C 	C 	0.71090 0.20529 0.03220 0.13100
C 	C 	0.44460 0.08578 0.18012 -0.11900
C 	C 	0.99290 0.69909 0.63470 -0.27800
H 	H 	0.91030 0.69130 0.65300 0.14000
C 	C 	0.97180 0.00115 0.88080 -0.27100
H 	H 	0.86990 0.99420 0.87000 0.13600
C 	C 	0.02420 0.04453 0.91650 0.14500
H 	H 	0.95540 0.06680 0.92940 -0.02700
C 	C 	0.22530 0.97899 0.87940 -0.28200
H 	H 	0.29640 0.95720 0.86760 0.13800
C 	C 	0.26770 0.02354 0.91570 0.16400
H 	H 	0.36920 0.03090 0.92820 -0.03800
C 	C 	0.10830 0.89088 0.79932 0.02800
H 	H 	0.16670 0.87040 0.83540 0.02900
H 	H 	0.17590 0.90900 0.77620 0.03700
C 	C 	0.23190 0.71988 0.57970 0.14500
H 	H 	0.31280 0.72740 0.56000 -0.03000
C 	C 	0.47230 0.03884 0.21500 0.08300
N 	N 	0.66090 0.16290 0.06210 -0.30800
H 	H 	0.72930 0.13940 0.06970 0.17000
H 	H 	0.64010 0.17220 0.10000 0.14500
N 	N 	0.44720 0.99040 0.19130 -0.28700
H 	H 	0.37040 0.99030 0.15840 0.15000
H 	H 	0.52390 0.97930 0.17690 0.14700
Zn	Zn	0.72848 0.37785 0.48513 1.20800
O 	O 	0.54610 0.33703 0.47793 -0.46300
O 	O 	0.39340 0.38380 0.52612 -0.29400
O 	O 	0.49770 0.71785 0.18070 -0.24400
O 	O 	0.83230 0.37139 0.57920 -0.45800
N 	N 	0.67140 0.82790 0.07005 -0.29200
O 	O 	0.51390 0.57346 0.32517 -0.25000
O 	O 	0.88510 0.45413 0.57249 -0.32800
N 	N 	0.67120 0.44337 0.43383 -0.30200
C 	C 	0.55970 0.75256 0.14441 0.29300
C 	C 	0.59190 0.67608 0.21127 0.01800
H 	H 	0.62410 0.65550 0.17690 0.04400
H 	H 	0.67990 0.68950 0.24150 0.03800
C 	C 	0.37070 0.25097 0.46900 -0.07300
H 	H 	0.45160 0.25180 0.44780 0.07000
C 	C 	0.42980 0.34259 0.50256 0.35600
C 	C 	0.97290 0.36737 0.71580 -0.01900
H 	H 	0.95470 0.33620 0.69280 0.04000
C 	C 	0.68160 0.74191 0.11650 -0.28500
H 	H 	0.72840 0.70990 0.12230 0.14000
C 	C 	0.55100 0.83682 0.09760 0.15600
H 	H 	0.50530 0.86900 0.09100 -0.04000
C 	C 	0.88390 0.41430 0.60550 0.33000
C 	C 	0.57390 0.53241 0.36102 0.29800
C 	C 	0.33480 0.29535 0.50102 -0.10500
C 	C 	0.21090 0.29471 0.53220 0.13100
C 	C 	0.94460 0.41422 0.68012 -0.11800
C 	C 	0.49290 0.80091 0.13470 -0.27600
H 	H 	0.41030 0.80870 0.15300 0.14000
C 	C 	0.47180 0.49885 0.38080 -0.26600
H 	H 	0.36990 0.50580 0.37000 0.13400
C 	C 	0.52420 0.45547 0.41650 0.14100
H 	H 	0.45540 0.43320 0.42940 -0.02500
C 	C 	0.72530 0.52101 0.37940 -0.28100
H 	H 	0.79640 0.54280 0.36760 0.13800
C 	C 	0.76770 0.47646 0.41570 0.16300
H 	H 	0.86920 0.46910 0.42820 -0.03700
C 	C 	0.60830 0.60912 0.29932 0.02800
H 	H 	0.66670 0.62960 0.33540 0.02900
H 	H 	0.67590 0.59100 0.27620 0.03700
C 	C 	0.73190 0.78012 0.07970 0.14500
H 	H 	0.81280 0.77260 0.06000 -0.03000
C 	C 	0.97230 0.46116 0.71500 0.08300
N 	N 	0.16090 0.33710 0.56210 -0.30800
H 	H 	0.22930 0.36060 0.56970 0.17000
H 	H 	0.14010 0.32780 0.60000 0.14500
N 	N 	0.94720 0.50960 0.69130 -0.28700
H 	H 	0.87040 0.50970 0.65840 0.15100
H 	H 	0.02390 0.52070 0.67690 0.14700
Zn	Zn	0.22848 0.87785 0.48513 1.20800
O 	O 	0.04610 0.83703 0.47793 -0.46300
O 	O 	0.89340 0.88380 0.52612 -0.29400
O 	O 	0.99770 0.21785 0.18070 -0.24300
O 	O 	0.33230 0.87139 0.57920 -0.45800
N 	N 	0.17140 0.32790 0.07005 -0.29100
O 	O 	0.01390 0.07346 0.32517 -0.25000
O 	O 	0.38510 0.95413 0.57249 -0.32800
N 	N 	0.17120 0.94337 0.43383 -0.30100
C 	C 	0.05970 0.25256 0.14441 0.28900
C 	C 	0.09190 0.17608 0.21127 0.01700
H 	H 	0.12410 0.15550 0.17690 0.04400
H 	H 	0.17990 0.18950 0.24150 0.03800
C 	C 	0.87070 0.75097 0.46900 -0.07300
H 	H 	0.95160 0.75180 0.44780 0.07000
C 	C 	0.92980 0.84259 0.50256 0.35600
C 	C 	0.47290 0.86737 0.71580 -0.01700
H 	H 	0.45470 0.83620 0.69280 0.03900
C 	C 	0.18160 0.24191 0.11650 -0.28300
H 	H 	0.22840 0.20990 0.12230 0.13900
C 	C 	0.05100 0.33682 0.09760 0.15400
H 	H 	0.00530 0.36900 0.09100 -0.03900
C 	C 	0.38390 0.91430 0.60550 0.33000
C 	C 	0.07390 0.03241 0.36102 0.29800
C 	C 	0.83480 0.79535 0.50102 -0.10600
C 	C 	0.71090 0.79471 0.53220 0.13100
C 	C 	0.44460 0.91422 0.68012 -0.11900
C 	C 	0.99290 0.30091 0.13470 -0.27200
H 	H 	0.91030 0.30870 0.15300 0.13900
C 	C 	0.97180 0.99885 0.38080 -0.26500
H 	H 	0.86990 0.00580 0.37000 0.13400
C 	C 	0.02420 0.95547 0.41650 0.14000
H 	H 	0.95540 0.93320 0.42940 -0.02400
C 	C 	0.22530 0.02101 0.37940 -0.28000
H 	H 	0.29640 0.04280 0.36760 0.13700
C 	C 	0.26770 0.97646 0.41570 0.16300
H 	H 	0.36920 0.96910 0.42820 -0.03700
C 	C 	0.10830 0.10912 0.29932 0.02900
H 	H 	0.16670 0.12960 0.33540 0.02800
H 	H 	0.17590 0.09100 0.27620 0.03700
C 	C 	0.23190 0.28012 0.07970 0.14400
H 	H 	0.31280 0.27260 0.06000 -0.02900
C 	C 	0.47230 0.96116 0.71500 0.08300
N 	N 	0.66090 0.83710 0.56210 -0.30800
H 	H 	0.72930 0.86060 0.56970 0.17000
H 	H 	0.64010 0.82780 0.60000 0.14500
N 	N 	0.44720 0.00960 0.69130 -0.28700
H 	H 	0.37040 0.00970 0.65840 0.15100
H 	H 	0.52390 0.02070 0.67690 0.14700
Zn	Zn	0.27152 0.37785 0.01487 1.20800
O 	O 	0.45390 0.33703 0.02207 -0.46300
O 	O 	0.60660 0.38380 0.97388 -0.29400
O 	O 	0.50230 0.71785 0.31930 -0.24400
O 	O 	0.16770 0.37139 0.92080 -0.45800
N 	N 	0.32860 0.82790 0.42995 -0.29200
O 	O 	0.48610 0.57346 0.17483 -0.25000
O 	O 	0.11490 0.45413 0.92751 -0.32700
N 	N 	0.32880 0.44337 0.06617 -0.30200
C 	C 	0.44030 0.75256 0.35559 0.29300
C 	C 	0.40810 0.67608 0.28873 0.01800
H 	H 	0.37590 0.65550 0.32310 0.04400
H 	H 	0.32010 0.68950 0.25850 0.03800
C 	C 	0.62930 0.25097 0.03100 -0.07200
H 	H 	0.54840 0.25180 0.05220 0.07000
C 	C 	0.57020 0.34259 0.99744 0.35700
C 	C 	0.02710 0.36737 0.78420 -0.01600
H 	H 	0.04530 0.33620 0.80720 0.03900
C 	C 	0.31840 0.74191 0.38350 -0.28500
H 	H 	0.27160 0.70990 0.37770 0.14000
C 	C 	0.44900 0.83682 0.40240 0.15700
H 	H 	0.49470 0.86900 0.40900 -0.04000
C 	C 	0.11610 0.41430 0.89450 0.33000
C 	C 	0.42610 0.53241 0.13898 0.29800
C 	C 	0.66520 0.29535 0.99898 -0.10600
C 	C 	0.78910 0.29471 0.96780 0.13200
C 	C 	0.05540 0.41422 0.81988 -0.11900
C 	C 	0.50710 0.80091 0.36530 -0.27600
H 	H 	0.58970 0.80870 0.34700 0.14000
C 	C 	0.52820 0.49885 0.11920 -0.26500
H 	H 	0.63010 0.50580 0.13000 0.13400
C 	C 	0.47580 0.45547 0.08350 0.14100
H 	H 	0.54460 0.43320 0.07060 -0.02500
C 	C 	0.27470 0.52101 0.12060 -0.28000
H 	H 	0.20360 0.54280 0.13240 0.13700
C 	C 	0.23230 0.47646 0.08430 0.16300
H 	H 	0.13080 0.46910 0.07180 -0.03800
C 	C 	0.39170 0.60912 0.20068 0.02800
H 	H 	0.33330 0.62960 0.16460 0.02900
H 	H 	0.32410 0.59100 0.22380 0.03700
C 	C 	0.26810 0.78012 0.42030 0.14500
H 	H 	0.18720 0.77260 0.44000 -0.03000
C 	C 	0.02770 0.46116 0.78500 0.08400
N 	N 	0.83910 0.33710 0.93790 -0.30800
H 	H 	0.77070 0.36060 0.93030 0.17000
H 	H 	0.85990 0.32780 0.90000 0.14500
N 	N 	0.05280 0.50960 0.80870 -0.28700
H 	H 	0.12960 0.50970 0.84160 0.15100
H 	H 	0.97610 0.52070 0.82310 0.14700
Zn	Zn	0.77152 0.87785 0.01487 1.20900
O 	O 	0.95390 0.83703 0.02207 -0.46200
O 	O 	0.10660 0.88380 0.97388 -0.29300
O 	O 	0.00230 0.21785 0.31930 -0.24600
O 	O 	0.66770 0.87139 0.92080 -0.45800
N 	N 	0.82860 0.32790 0.42995 -0.29200
O 	O 	0.98610 0.07346 0.17483 -0.25100
O 	O 	0.61490 0.95413 0.92751 -0.32800
N 	N 	0.82880 0.94337 0.06617 -0.30300
C 	C 	0.94030 0.25256 0.35559 0.29500
C 	C 	0.90810 0.17608 0.28873 0.02000
H 	H 	0.87590 0.15550 0.32310 0.04400
H 	H 	0.82010 0.18950 0.25850 0.03700
C 	C 	0.12930 0.75097 0.03100 -0.07500
H 	H 	0.04840 0.75180 0.05220 0.07000
C 	C 	0.07020 0.84259 0.99744 0.35600
C 	C 	0.52710 0.86737 0.78420 -0.01700
H 	H 	0.54530 0.83620 0.80720 0.04000
C 	C 	0.81840 0.24191 0.38350 -0.28600
H 	H 	0.77160 0.20990 0.37770 0.14000
C 	C 	0.94900 0.33682 0.40240 0.15800
H 	H 	0.99470 0.36900 0.40900 -0.04100
C 	C 	0.61610 0.91430 0.89450 0.33000
C 	C 	0.92610 0.03241 0.13898 0.30200
C 	C 	0.16520 0.79535 0.99898 -0.10400
C 	C 	0.28910 0.79471 0.96780 0.13100
C 	C 	0.55540 0.91422 0.81988 -0.11900
C 	C 	0.00710 0.30091 0.36530 -0.27900
H 	H 	0.08970 0.30870 0.34700 0.14100
C 	C 	0.02820 0.99885 0.11920 -0.27300
H 	H 	0.13010 0.00580 0.13000 0.13700
C 	C 	0.97580 0.95547 0.08350 0.14700
H 	H 	0.04460 0.93320 0.07060 -0.02800
C 	C 	0.77470 0.02101 0.12060 -0.28200
H 	H 	0.70360 0.04280 0.13240 0.13800
C 	C 	0.73230 0.97646 0.08430 0.16400
H 	H 	0.63080 0.96910 0.07180 -0.03800
C 	C 	0.89170 0.10912 0.20068 0.03000
H 	H 	0.83330 0.12960 0.16460 0.02800
H 	H 	0.82410 0.09100 0.22380 0.03700
C 	C 	0.76810 0.28012 0.42030 0.14600
H 	H 	0.68720 0.27260 0.44000 -0.03000
C 	C 	0.52770 0.96116 0.78500 0.08300
N 	N 	0.33910 0.83710 0.93790 -0.30800
H 	H 	0.27070 0.86060 0.93030 0.17000
H 	H 	0.35990 0.82780 0.90000 0.14500
N 	N 	0.55280 0.00960 0.80870 -0.28700
H 	H 	0.62960 0.00970 0.84160 0.15100
H 	H 	0.47610 0.02070 0.82310 0.14700
C 	C 	0.50000 0.35650 0.75000 0.00900
C 	C 	0.00000 0.85650 0.75000 0.01000
C 	C 	0.50000 0.64350 0.25000 0.00900
C 	C 	0.00000 0.14350 0.25000 0.00700
