data_crystal

_cell_length_a 10.10800
_cell_length_b 13.66950
_cell_length_c 28.86260
_cell_angle_alpha 90.00000
_cell_angle_beta  99.50200
_cell_angle_gamma 90.00000

_symmetry_space_group_name_	'P 1'
_symmetry_space_group_name_H-M	'P 1'

loop_
_symmetry_equiv_pos_as_xyz
  x,y,z

loop_
_atom_site_label
_atom_site_type_symbol
_atom_site_fract_x
_atom_site_fract_y
_atom_site_fract_z
_atom_site_charge
C 	C 	0.47850 0.18600 0.88874 0.33300
C 	C 	0.42760 0.24680 0.92549 -0.15300
C 	C 	0.49360 0.25060 0.97107 0.09400
H 	H 	0.56710 0.21010 0.98030 0.00900
C 	C 	0.31420 0.30380 0.91348 0.09900
H 	H 	0.26700 0.30070 0.88300 0.00200
C 	C 	0.26940 0.36500 0.94526 -0.20400
H 	H 	0.19130 0.40110 0.93640 0.10200
C 	C 	0.45240 0.31370 0.00357 -0.20100
H 	H 	0.49980 0.31600 0.03400 0.10300
C 	C 	0.34100 0.37330 0.99101 0.17100
C 	C 	0.23220 0.52930 0.00685 0.18000
C 	C 	0.13850 0.56660 0.03250 -0.20400
H 	H 	0.12020 0.53340 0.05890 0.10600
C 	C 	0.25450 0.57880 0.96732 -0.21900
H 	H 	0.31670 0.55470 0.94980 0.11000
C 	C 	0.18520 0.66410 0.95349 0.11500
H 	H 	0.20060 0.69590 0.92640 -0.00800
C 	C 	0.07240 0.65370 0.01870 0.10600
H 	H 	0.01220 0.67960 0.03660 -0.00800
C 	C 	0.09490 0.70230 0.97860 -0.18200
H 	H 	0.04930 0.75990 0.96910 0.09100
C 	C 	0.35410 0.43540 0.07196 0.17300
C 	C 	0.33910 0.35050 0.09657 -0.20700
H 	H 	0.29740 0.29620 0.08110 0.09900
C 	C 	0.41990 0.51450 0.09485 -0.20200
H 	H 	0.43320 0.57060 0.07800 0.11100
C 	C 	0.38640 0.34680 0.14429 0.09500
H 	H 	0.37600 0.28960 0.16070 0.00200
C 	C 	0.46640 0.51060 0.14292 0.09100
H 	H 	0.50940 0.56460 0.15830 0.01700
C 	C 	0.44880 0.42630 0.16802 -0.14700
C 	C 	0.49060 0.42370 0.22064 0.33100
N 	N 	0.30290 0.44200 0.02292 -0.19200
O 	O 	0.43060 0.20370 0.84673 -0.38300
O 	O 	0.56390 0.12120 0.90083 -0.38400
O 	O 	0.45500 0.35230 0.24298 -0.37100
O 	O 	0.55750 0.49240 0.24112 -0.38900
C 	C 	0.47850 0.31400 0.38874 0.33400
C 	C 	0.42760 0.25320 0.42549 -0.15200
C 	C 	0.49360 0.24940 0.47107 0.09600
H 	H 	0.56710 0.28990 0.48030 0.01000
C 	C 	0.31420 0.19620 0.41348 0.10000
H 	H 	0.26700 0.19930 0.38300 0.00200
C 	C 	0.26940 0.13500 0.44526 -0.20500
H 	H 	0.19130 0.09890 0.43640 0.10200
C 	C 	0.45240 0.18630 0.50357 -0.20200
H 	H 	0.49980 0.18400 0.53400 0.10300
C 	C 	0.34100 0.12670 0.49101 0.17200
C 	C 	0.23220 0.97070 0.50685 0.18200
C 	C 	0.13850 0.93340 0.53250 -0.20600
H 	H 	0.12020 0.96660 0.55890 0.10700
C 	C 	0.25450 0.92120 0.46732 -0.22000
H 	H 	0.31670 0.94530 0.44980 0.11100
C 	C 	0.18520 0.83590 0.45349 0.11700
H 	H 	0.20060 0.80410 0.42640 -0.00900
C 	C 	0.07240 0.84630 0.51870 0.10800
H 	H 	0.01220 0.82040 0.53660 -0.00800
C 	C 	0.09490 0.79770 0.47860 -0.18400
H 	H 	0.04930 0.74010 0.46910 0.09100
C 	C 	0.35410 0.06460 0.57196 0.17200
C 	C 	0.33910 0.14950 0.59657 -0.20700
H 	H 	0.29740 0.20380 0.58110 0.09900
C 	C 	0.41990 0.98550 0.59485 -0.20100
H 	H 	0.43320 0.92940 0.57800 0.11100
C 	C 	0.38640 0.15320 0.64429 0.09500
H 	H 	0.37600 0.21040 0.66070 0.00200
C 	C 	0.46640 0.98940 0.64292 0.09200
H 	H 	0.50940 0.93540 0.65830 0.01700
C 	C 	0.44880 0.07370 0.66802 -0.14700
C 	C 	0.49060 0.07630 0.72064 0.33100
N 	N 	0.30290 0.05800 0.52292 -0.19300
O 	O 	0.43060 0.29630 0.34673 -0.38300
O 	O 	0.56390 0.37880 0.40083 -0.38400
O 	O 	0.45500 0.14770 0.74298 -0.37100
O 	O 	0.55750 0.00760 0.74112 -0.39000
C 	C 	0.52150 0.68600 0.61126 0.33400
C 	C 	0.57240 0.74680 0.57451 -0.15200
C 	C 	0.50640 0.75060 0.52893 0.09600
H 	H 	0.43290 0.71010 0.51970 0.01000
C 	C 	0.68580 0.80380 0.58652 0.10000
H 	H 	0.73300 0.80070 0.61700 0.00200
C 	C 	0.73060 0.86500 0.55474 -0.20500
H 	H 	0.80870 0.90110 0.56360 0.10200
C 	C 	0.54760 0.81370 0.49643 -0.20200
H 	H 	0.50020 0.81600 0.46600 0.10300
C 	C 	0.65900 0.87330 0.50899 0.17200
C 	C 	0.76780 0.02930 0.49315 0.18200
C 	C 	0.86150 0.06660 0.46750 -0.20600
H 	H 	0.87980 0.03340 0.44110 0.10700
C 	C 	0.74550 0.07880 0.53268 -0.22000
H 	H 	0.68330 0.05470 0.55020 0.11100
C 	C 	0.81480 0.16410 0.54651 0.11700
H 	H 	0.79940 0.19590 0.57360 -0.00900
C 	C 	0.92760 0.15370 0.48130 0.10800
H 	H 	0.98780 0.17960 0.46340 -0.00800
C 	C 	0.90510 0.20230 0.52140 -0.18400
H 	H 	0.95070 0.25990 0.53090 0.09100
C 	C 	0.64590 0.93540 0.42804 0.17200
C 	C 	0.66090 0.85050 0.40343 -0.20700
H 	H 	0.70260 0.79620 0.41890 0.09900
C 	C 	0.58010 0.01450 0.40515 -0.20100
H 	H 	0.56680 0.07060 0.42200 0.11100
C 	C 	0.61360 0.84680 0.35571 0.09500
H 	H 	0.62400 0.78960 0.33930 0.00200
C 	C 	0.53360 0.01060 0.35708 0.09200
H 	H 	0.49060 0.06460 0.34170 0.01700
C 	C 	0.55120 0.92630 0.33198 -0.14700
C 	C 	0.50940 0.92370 0.27936 0.33100
N 	N 	0.69710 0.94200 0.47708 -0.19300
O 	O 	0.56940 0.70370 0.65327 -0.38300
O 	O 	0.43610 0.62120 0.59917 -0.38400
O 	O 	0.54500 0.85230 0.25702 -0.37100
O 	O 	0.44250 0.99240 0.25888 -0.39000
C 	C 	0.52150 0.81400 0.11126 0.33400
C 	C 	0.57240 0.75320 0.07451 -0.15200
C 	C 	0.50640 0.74940 0.02893 0.09500
H 	H 	0.43290 0.78990 0.01970 0.01000
C 	C 	0.68580 0.69620 0.08652 0.09900
H 	H 	0.73300 0.69930 0.11700 0.00200
C 	C 	0.73060 0.63500 0.05474 -0.20400
H 	H 	0.80870 0.59890 0.06360 0.10200
C 	C 	0.54760 0.68630 0.99643 -0.20100
H 	H 	0.50020 0.68400 0.96600 0.10300
C 	C 	0.65900 0.62670 0.00899 0.17100
C 	C 	0.76780 0.47070 0.99315 0.18000
C 	C 	0.86150 0.43340 0.96750 -0.20400
H 	H 	0.87980 0.46660 0.94110 0.10600
C 	C 	0.74550 0.42120 0.03268 -0.21900
H 	H 	0.68330 0.44530 0.05020 0.11000
C 	C 	0.81480 0.33590 0.04651 0.11500
H 	H 	0.79940 0.30410 0.07360 -0.00800
C 	C 	0.92760 0.34630 0.98130 0.10600
H 	H 	0.98780 0.32040 0.96340 -0.00800
C 	C 	0.90510 0.29770 0.02140 -0.18200
H 	H 	0.95070 0.24010 0.03090 0.09100
C 	C 	0.64590 0.56460 0.92804 0.17300
C 	C 	0.66090 0.64950 0.90343 -0.20700
H 	H 	0.70260 0.70380 0.91890 0.09900
C 	C 	0.58010 0.48550 0.90515 -0.20200
H 	H 	0.56680 0.42940 0.92200 0.11100
C 	C 	0.61360 0.65320 0.85571 0.09500
H 	H 	0.62400 0.71040 0.83930 0.00200
C 	C 	0.53360 0.48940 0.85708 0.09100
H 	H 	0.49060 0.43540 0.84170 0.01700
C 	C 	0.55120 0.57370 0.83198 -0.14700
C 	C 	0.50940 0.57630 0.77936 0.33100
N 	N 	0.69710 0.55800 0.97708 -0.19200
O 	O 	0.56940 0.79630 0.15327 -0.38300
O 	O 	0.43610 0.87880 0.09917 -0.38400
O 	O 	0.54500 0.64770 0.75702 -0.37100
O 	O 	0.44250 0.50760 0.75888 -0.38900
C 	C 	0.15340 0.86220 0.83236 0.17300
C 	C 	0.28230 0.82770 0.84453 -0.21400
H 	H 	0.29660 0.76370 0.85510 0.11400
C 	C 	0.13980 0.95700 0.81636 -0.21600
H 	H 	0.05460 0.98330 0.80730 0.10100
C 	C 	0.25070 0.01320 0.81364 0.11700
H 	H 	0.23820 0.07750 0.80340 -0.01500
C 	C 	0.39030 0.88720 0.84124 0.12100
H 	H 	0.47640 0.86260 0.85050 -0.03700
C 	C 	0.86000 0.17000 0.83456 0.12900
H 	H 	0.88050 0.10920 0.84840 -0.04500
C 	C 	0.70740 0.27900 0.79825 0.12000
H 	H 	0.61870 0.29480 0.78640 -0.01100
C 	C 	0.96240 0.23540 0.83292 -0.22900
H 	H 	0.04990 0.21840 0.84580 0.10900
C 	C 	0.80380 0.34820 0.79518 -0.21600
H 	H 	0.78040 0.40900 0.78180 0.11900
C 	C 	0.93650 0.32620 0.81232 0.17900
C 	C 	0.04950 0.39390 0.80628 -0.20000
H 	H 	0.08170 0.37700 0.77740 0.09200
H 	H 	0.12280 0.38380 0.83210 0.09500
C 	C 	0.98280 0.53400 0.84947 -0.00700
H 	H 	0.98520 0.49560 0.87620 0.03400
C 	C 	0.12000 0.55580 0.79049 -0.02000
H 	H 	0.20020 0.53080 0.78370 0.04300
C 	C 	0.94880 0.63920 0.84731 -0.01400
H 	H 	0.86830 0.66540 0.85320 0.03900
C 	C 	0.08240 0.66280 0.78842 -0.01100
H 	H 	0.07490 0.70170 0.76170 0.04200
C 	C 	0.03240 0.80070 0.83559 -0.18700
H 	H 	0.96210 0.81690 0.80960 0.08200
H 	H 	0.99990 0.81640 0.86450 0.08100
N 	N 	0.73290 0.19020 0.81717 -0.25800
N 	N 	0.37560 0.97940 0.82515 -0.24800
N 	N 	0.01220 0.49700 0.80464 -0.07800
N 	N 	0.05970 0.69620 0.83461 -0.08000
Cd	Cd	0.55659 0.08175 0.81774 1.20600
C 	C 	0.15340 0.63780 0.33236 0.17600
C 	C 	0.28230 0.67230 0.34453 -0.21600
H 	H 	0.29660 0.73630 0.35510 0.11500
C 	C 	0.13980 0.54300 0.31636 -0.22100
H 	H 	0.05460 0.51670 0.30730 0.10100
C 	C 	0.25070 0.48680 0.31364 0.12200
H 	H 	0.23820 0.42250 0.30340 -0.01600
C 	C 	0.39030 0.61280 0.34124 0.12200
H 	H 	0.47640 0.63740 0.35050 -0.03700
C 	C 	0.86000 0.33000 0.33456 0.12900
H 	H 	0.88050 0.39080 0.34840 -0.04600
C 	C 	0.70740 0.22100 0.29825 0.12100
H 	H 	0.61870 0.20520 0.28640 -0.01100
C 	C 	0.96240 0.26460 0.33292 -0.23000
H 	H 	0.04990 0.28160 0.34580 0.10900
C 	C 	0.80380 0.15180 0.29518 -0.21600
H 	H 	0.78040 0.09100 0.28180 0.11900
C 	C 	0.93650 0.17380 0.31232 0.18100
C 	C 	0.04950 0.10610 0.30628 -0.20100
H 	H 	0.08170 0.12300 0.27740 0.09200
H 	H 	0.12280 0.11620 0.33210 0.09500
C 	C 	0.98280 0.96600 0.34947 -0.01000
H 	H 	0.98520 0.00440 0.37620 0.03700
C 	C 	0.12000 0.94420 0.29049 -0.02000
H 	H 	0.20020 0.96920 0.28370 0.04300
C 	C 	0.94880 0.86080 0.34731 -0.01300
H 	H 	0.86830 0.83460 0.35320 0.03900
C 	C 	0.08240 0.83720 0.28842 -0.01100
H 	H 	0.07490 0.79830 0.26170 0.04200
C 	C 	0.03240 0.69930 0.33559 -0.19100
H 	H 	0.96210 0.68310 0.30960 0.08300
H 	H 	0.99990 0.68360 0.36450 0.08200
N 	N 	0.73290 0.30980 0.31717 -0.25800
N 	N 	0.37560 0.52060 0.32515 -0.25000
N 	N 	0.01220 0.00300 0.30464 -0.07800
N 	N 	0.05970 0.80380 0.33461 -0.07900
Cd	Cd	0.55659 0.41825 0.31774 1.20600
C 	C 	0.84660 0.36220 0.66764 0.17600
C 	C 	0.71770 0.32770 0.65547 -0.21600
H 	H 	0.70340 0.26370 0.64490 0.11500
C 	C 	0.86020 0.45700 0.68364 -0.22100
H 	H 	0.94540 0.48330 0.69270 0.10100
C 	C 	0.74930 0.51320 0.68636 0.12200
H 	H 	0.76180 0.57750 0.69660 -0.01600
C 	C 	0.60970 0.38720 0.65876 0.12200
H 	H 	0.52360 0.36260 0.64950 -0.03700
C 	C 	0.14000 0.67000 0.66544 0.12900
H 	H 	0.11950 0.60920 0.65160 -0.04600
C 	C 	0.29260 0.77900 0.70175 0.12100
H 	H 	0.38130 0.79480 0.71360 -0.01100
C 	C 	0.03760 0.73540 0.66708 -0.23000
H 	H 	0.95010 0.71840 0.65420 0.10900
C 	C 	0.19620 0.84820 0.70482 -0.21600
H 	H 	0.21960 0.90900 0.71820 0.11900
C 	C 	0.06350 0.82620 0.68768 0.18100
C 	C 	0.95050 0.89390 0.69372 -0.20100
H 	H 	0.91830 0.87700 0.72260 0.09200
H 	H 	0.87720 0.88380 0.66790 0.09500
C 	C 	0.01720 0.03400 0.65053 -0.01000
H 	H 	0.01480 0.99560 0.62380 0.03700
C 	C 	0.88000 0.05580 0.70951 -0.02000
H 	H 	0.79980 0.03080 0.71630 0.04300
C 	C 	0.05120 0.13920 0.65269 -0.01300
H 	H 	0.13170 0.16540 0.64680 0.03900
C 	C 	0.91760 0.16280 0.71158 -0.01100
H 	H 	0.92510 0.20170 0.73830 0.04200
C 	C 	0.96760 0.30070 0.66441 -0.19100
H 	H 	0.03790 0.31690 0.69040 0.08300
H 	H 	0.00010 0.31640 0.63550 0.08200
N 	N 	0.26710 0.69020 0.68283 -0.25800
N 	N 	0.62440 0.47940 0.67485 -0.25000
N 	N 	0.98780 0.99700 0.69536 -0.07800
N 	N 	0.94030 0.19620 0.66539 -0.07900
Cd	Cd	0.44341 0.58175 0.68226 1.20600
C 	C 	0.84660 0.13780 0.16764 0.17300
C 	C 	0.71770 0.17230 0.15547 -0.21400
H 	H 	0.70340 0.23630 0.14490 0.11400
C 	C 	0.86020 0.04300 0.18364 -0.21600
H 	H 	0.94540 0.01670 0.19270 0.10100
C 	C 	0.74930 0.98680 0.18636 0.11700
H 	H 	0.76180 0.92250 0.19660 -0.01500
C 	C 	0.60970 0.11280 0.15876 0.12100
H 	H 	0.52360 0.13740 0.14950 -0.03700
C 	C 	0.14000 0.83000 0.16544 0.12900
H 	H 	0.11950 0.89080 0.15160 -0.04500
C 	C 	0.29260 0.72100 0.20175 0.12000
H 	H 	0.38130 0.70520 0.21360 -0.01100
C 	C 	0.03760 0.76460 0.16708 -0.22900
H 	H 	0.95010 0.78160 0.15420 0.10900
C 	C 	0.19620 0.65180 0.20482 -0.21600
H 	H 	0.21960 0.59100 0.21820 0.11900
C 	C 	0.06350 0.67380 0.18768 0.17900
C 	C 	0.95050 0.60610 0.19372 -0.20000
H 	H 	0.91830 0.62300 0.22260 0.09200
H 	H 	0.87720 0.61620 0.16790 0.09500
C 	C 	0.01720 0.46600 0.15053 -0.00700
H 	H 	0.01480 0.50440 0.12380 0.03400
C 	C 	0.88000 0.44420 0.20951 -0.02000
H 	H 	0.79980 0.46920 0.21630 0.04300
C 	C 	0.05120 0.36080 0.15269 -0.01400
H 	H 	0.13170 0.33460 0.14680 0.03900
C 	C 	0.91760 0.33720 0.21158 -0.01100
H 	H 	0.92510 0.29830 0.23830 0.04200
C 	C 	0.96760 0.19930 0.16441 -0.18700
H 	H 	0.03790 0.18310 0.19040 0.08200
H 	H 	0.00010 0.18360 0.13550 0.08100
N 	N 	0.26710 0.80980 0.18283 -0.25800
N 	N 	0.62440 0.02060 0.17485 -0.24800
N 	N 	0.98780 0.50300 0.19536 -0.07800
N 	N 	0.94030 0.30380 0.16539 -0.08000
Cd	Cd	0.44341 0.91825 0.18226 1.20600
