data_crystal

_cell_length_a 18.54860
_cell_length_b 18.54860
_cell_length_c 9.85380
_cell_angle_alpha 90.00000
_cell_angle_beta  90.00000
_cell_angle_gamma 120.00000

_symmetry_space_group_name_	'P 1'
_symmetry_space_group_name_H-M	'P 1'

loop_
_symmetry_equiv_pos_as_xyz
  x,y,z

loop_
_atom_site_label
_atom_site_type_symbol
_atom_site_fract_x
_atom_site_fract_y
_atom_site_fract_z
_atom_site_charge
C 	C 	0.37299 0.21578 0.33107 0.67800
H 	H 	0.40550 0.21650 0.25890 -0.89000
N 	N 	0.43010 0.21940 0.23510 0.79900
H 	H 	0.45960 0.26460 0.19000 -0.13300
H 	H 	0.43560 0.17650 0.22080 -0.19000
N 	N 	0.35947 0.27741 0.36023 -0.33400
C 	C 	0.03966 0.54911 0.66440 0.67600
H 	H 	0.07217 0.54983 0.59223 -0.88900
N 	N 	0.09677 0.55273 0.56843 0.80000
H 	H 	0.12627 0.59793 0.52333 -0.13200
H 	H 	0.10227 0.50983 0.55413 -0.19000
N 	N 	0.02614 0.61074 0.69356 -0.33600
C 	C 	0.70632 0.88245 0.99774 0.68200
H 	H 	0.73883 0.88317 0.92557 -0.89200
N 	N 	0.76343 0.88607 0.90177 0.80200
H 	H 	0.79293 0.93127 0.85667 -0.12900
H 	H 	0.76893 0.84317 0.88747 -0.18900
N 	N 	0.69280 0.94408 0.02690 -0.33100
C 	C 	0.78422 0.15721 0.33107 0.68000
H 	H 	0.78350 0.18900 0.25890 -0.89000
N 	N 	0.78060 0.21070 0.23510 0.80100
H 	H 	0.73540 0.19500 0.19000 -0.13200
H 	H 	0.82350 0.25910 0.22080 -0.18900
N 	N 	0.72259 0.08206 0.36023 -0.33400
C 	C 	0.45089 0.49054 0.66440 0.67900
H 	H 	0.45017 0.52233 0.59223 -0.89000
N 	N 	0.44727 0.54403 0.56843 0.80000
H 	H 	0.40207 0.52833 0.52333 -0.13200
H 	H 	0.49017 0.59243 0.55413 -0.18900
N 	N 	0.38926 0.41539 0.69356 -0.33300
C 	C 	0.11755 0.82388 0.99774 0.68100
H 	H 	0.11683 0.85567 0.92557 -0.88900
N 	N 	0.11393 0.87737 0.90177 0.79800
H 	H 	0.06873 0.86167 0.85667 -0.13200
H 	H 	0.15683 0.92577 0.88747 -0.18600
N 	N 	0.05592 0.74873 0.02690 -0.33700
C 	C 	0.84279 0.62701 0.33107 0.68000
H 	H 	0.81100 0.59450 0.25890 -0.89000
N 	N 	0.78930 0.56990 0.23510 0.80100
H 	H 	0.80500 0.54040 0.19000 -0.13200
H 	H 	0.74090 0.56440 0.22080 -0.18900
N 	N 	0.91794 0.64053 0.36023 -0.33100
C 	C 	0.50946 0.96034 0.66440 0.68600
H 	H 	0.47767 0.92783 0.59223 -0.88500
N 	N 	0.45597 0.90323 0.56843 0.79400
H 	H 	0.47167 0.87373 0.52333 -0.13000
H 	H 	0.40757 0.89773 0.55413 -0.18600
N 	N 	0.58461 0.97386 0.69356 -0.33000
C 	C 	0.17612 0.29368 0.99774 0.67700
H 	H 	0.14433 0.26117 0.92557 -0.88800
N 	N 	0.12263 0.23657 0.90177 0.79900
H 	H 	0.13833 0.20707 0.85667 -0.13300
H 	H 	0.07423 0.23107 0.88747 -0.19100
N 	N 	0.25127 0.30720 0.02690 -0.33300
C 	C 	0.21578 0.37299 0.16893 0.67900
H 	H 	0.21650 0.40550 0.24110 -0.88900
N 	N 	0.21940 0.43010 0.26490 0.80000
H 	H 	0.26460 0.45960 0.31000 -0.13200
H 	H 	0.17650 0.43560 0.27920 -0.19000
N 	N 	0.27741 0.35947 0.13977 -0.33300
C 	C 	0.88245 0.70632 0.50226 0.68200
H 	H 	0.88317 0.73883 0.57443 -0.89200
N 	N 	0.88607 0.76343 0.59823 0.80200
H 	H 	0.93127 0.79293 0.64333 -0.12900
H 	H 	0.84317 0.76893 0.61253 -0.18900
N 	N 	0.94408 0.69280 0.47310 -0.33100
C 	C 	0.54911 0.03966 0.83560 0.67600
H 	H 	0.54983 0.07217 0.90777 -0.88900
N 	N 	0.55273 0.09677 0.93157 0.80000
H 	H 	0.59793 0.12627 0.97667 -0.13300
H 	H 	0.50983 0.10227 0.94587 -0.19000
N 	N 	0.61074 0.02614 0.80644 -0.33700
C 	C 	0.15721 0.78422 0.16893 0.67900
H 	H 	0.18900 0.78350 0.24110 -0.89000
N 	N 	0.21070 0.78060 0.26490 0.80100
H 	H 	0.19500 0.73540 0.31000 -0.13200
H 	H 	0.25910 0.82350 0.27920 -0.18900
N 	N 	0.08206 0.72259 0.13977 -0.33500
C 	C 	0.82388 0.11755 0.50226 0.68000
H 	H 	0.85567 0.11683 0.57443 -0.89000
N 	N 	0.87737 0.11393 0.59823 0.80100
H 	H 	0.86167 0.06873 0.64333 -0.13300
H 	H 	0.92577 0.15683 0.61253 -0.18700
N 	N 	0.74873 0.05592 0.47310 -0.33600
C 	C 	0.49054 0.45089 0.83560 0.67900
H 	H 	0.52233 0.45017 0.90777 -0.88900
N 	N 	0.54403 0.44727 0.93157 0.80000
H 	H 	0.52833 0.40207 0.97667 -0.13200
H 	H 	0.59243 0.49017 0.94587 -0.18900
N 	N 	0.41539 0.38926 0.80644 -0.33300
C 	C 	0.62701 0.84279 0.16893 0.68000
H 	H 	0.59450 0.81100 0.24110 -0.89000
N 	N 	0.56990 0.78930 0.26490 0.80100
H 	H 	0.54040 0.80500 0.31000 -0.13200
H 	H 	0.56440 0.74090 0.27920 -0.18900
N 	N 	0.64053 0.91794 0.13977 -0.33100
C 	C 	0.29368 0.17612 0.50226 0.67700
H 	H 	0.26117 0.14433 0.57443 -0.88800
N 	N 	0.23657 0.12263 0.59823 0.79900
H 	H 	0.20707 0.13833 0.64333 -0.13300
H 	H 	0.23107 0.07423 0.61253 -0.19200
N 	N 	0.30720 0.25127 0.47310 -0.33300
C 	C 	0.96034 0.50946 0.83560 0.68500
H 	H 	0.92783 0.47767 0.90777 -0.88600
N 	N 	0.90323 0.45597 0.93157 0.79400
H 	H 	0.87373 0.47167 0.97667 -0.13000
H 	H 	0.89773 0.40757 0.94587 -0.18600
N 	N 	0.97386 0.58461 0.80644 -0.33000
C 	C 	0.62701 0.78422 0.66893 0.68000
H 	H 	0.59450 0.78350 0.74110 -0.89000
N 	N 	0.56990 0.78060 0.76490 0.80100
H 	H 	0.54040 0.73540 0.81000 -0.13200
H 	H 	0.56440 0.82350 0.77920 -0.18900
N 	N 	0.64053 0.72259 0.63977 -0.33300
C 	C 	0.29368 0.11755 0.00226 0.67800
H 	H 	0.26117 0.11683 0.07443 -0.88800
N 	N 	0.23657 0.11393 0.09823 0.79800
H 	H 	0.20707 0.06873 0.14333 -0.13400
H 	H 	0.23107 0.15683 0.11253 -0.19000
N 	N 	0.30720 0.05592 0.97310 -0.33600
C 	C 	0.96034 0.45089 0.33560 0.68600
H 	H 	0.92783 0.45017 0.40777 -0.88500
N 	N 	0.90323 0.44727 0.43157 0.79300
H 	H 	0.87373 0.40207 0.47667 -0.13000
H 	H 	0.89773 0.49017 0.44587 -0.18600
N 	N 	0.97386 0.38926 0.30644 -0.33000
C 	C 	0.21578 0.84279 0.66893 0.68000
H 	H 	0.21650 0.81100 0.74110 -0.89000
N 	N 	0.21940 0.78930 0.76490 0.80000
H 	H 	0.26460 0.80500 0.81000 -0.13200
H 	H 	0.17650 0.74090 0.77920 -0.18900
N 	N 	0.27741 0.91794 0.63977 -0.33100
C 	C 	0.88245 0.17612 0.00226 0.68200
H 	H 	0.88317 0.14433 0.07443 -0.88900
N 	N 	0.88607 0.12263 0.09823 0.79900
H 	H 	0.93127 0.13833 0.14333 -0.12900
H 	H 	0.84317 0.07423 0.11253 -0.19000
N 	N 	0.94408 0.25127 0.97310 -0.33200
C 	C 	0.54911 0.50946 0.33560 0.67900
H 	H 	0.54983 0.47767 0.40777 -0.89000
N 	N 	0.55273 0.45597 0.43157 0.80000
H 	H 	0.59793 0.47167 0.47667 -0.13200
H 	H 	0.50983 0.40757 0.44587 -0.18900
N 	N 	0.61074 0.58461 0.30644 -0.33300
C 	C 	0.15721 0.37299 0.66893 0.67900
H 	H 	0.18900 0.40550 0.74110 -0.89000
N 	N 	0.21070 0.43010 0.76490 0.80000
H 	H 	0.19500 0.45960 0.81000 -0.13200
H 	H 	0.25910 0.43560 0.77920 -0.18900
N 	N 	0.08206 0.35947 0.63977 -0.33400
C 	C 	0.82388 0.70632 0.00226 0.68200
H 	H 	0.85567 0.73883 0.07443 -0.89100
N 	N 	0.87737 0.76343 0.09823 0.80100
H 	H 	0.86167 0.79293 0.14333 -0.13000
H 	H 	0.92577 0.76893 0.11253 -0.18600
N 	N 	0.74873 0.69280 0.97310 -0.33400
C 	C 	0.49054 0.03966 0.33560 0.67700
H 	H 	0.52233 0.07217 0.40777 -0.88900
N 	N 	0.54403 0.09677 0.43157 0.80000
H 	H 	0.52833 0.12627 0.47667 -0.13200
H 	H 	0.59243 0.10227 0.44587 -0.19000
N 	N 	0.41539 0.02614 0.30644 -0.33600
C 	C 	0.78422 0.62701 0.83107 0.68000
H 	H 	0.78350 0.59450 0.75890 -0.89000
N 	N 	0.78060 0.56990 0.73510 0.80100
H 	H 	0.73540 0.54040 0.69000 -0.13200
H 	H 	0.82350 0.56440 0.72080 -0.18900
N 	N 	0.72259 0.64053 0.86023 -0.33300
C 	C 	0.45089 0.96034 0.16440 0.68500
H 	H 	0.45017 0.92783 0.09223 -0.88600
N 	N 	0.44727 0.90323 0.06843 0.79400
H 	H 	0.40207 0.87373 0.02333 -0.13000
H 	H 	0.49017 0.89773 0.05413 -0.18600
N 	N 	0.38926 0.97386 0.19356 -0.33000
C 	C 	0.11755 0.29368 0.49774 0.67700
H 	H 	0.11683 0.26117 0.42557 -0.88800
N 	N 	0.11393 0.23657 0.40177 0.79900
H 	H 	0.06873 0.20707 0.35667 -0.13400
H 	H 	0.15683 0.23107 0.38747 -0.19000
N 	N 	0.05592 0.30720 0.52690 -0.33500
C 	C 	0.84279 0.21578 0.83107 0.67900
H 	H 	0.81100 0.21650 0.75890 -0.89000
N 	N 	0.78930 0.21940 0.73510 0.80000
H 	H 	0.80500 0.26460 0.69000 -0.13200
H 	H 	0.74090 0.17650 0.72080 -0.19000
N 	N 	0.91794 0.27741 0.86023 -0.33100
C 	C 	0.50946 0.54911 0.16440 0.67900
H 	H 	0.47767 0.54983 0.09223 -0.89000
N 	N 	0.45597 0.55273 0.06843 0.80000
H 	H 	0.47167 0.59793 0.02333 -0.13200
H 	H 	0.40757 0.50983 0.05413 -0.18900
N 	N 	0.58461 0.61074 0.19356 -0.33300
C 	C 	0.17612 0.88245 0.49774 0.68000
H 	H 	0.14433 0.88317 0.42557 -0.89000
N 	N 	0.12263 0.88607 0.40177 0.80100
H 	H 	0.13833 0.93127 0.35667 -0.13000
H 	H 	0.07423 0.84317 0.38747 -0.19100
N 	N 	0.25127 0.94408 0.52690 -0.33000
C 	C 	0.37299 0.15721 0.83107 0.67900
H 	H 	0.40550 0.18900 0.75890 -0.89000
N 	N 	0.43010 0.21070 0.73510 0.80000
H 	H 	0.45960 0.19500 0.69000 -0.13200
H 	H 	0.43560 0.25910 0.72080 -0.18900
N 	N 	0.35947 0.08206 0.86023 -0.33500
C 	C 	0.03966 0.49054 0.16440 0.67700
H 	H 	0.07217 0.52233 0.09223 -0.88900
N 	N 	0.09677 0.54403 0.06843 0.80000
H 	H 	0.12627 0.52833 0.02333 -0.13200
H 	H 	0.10227 0.59243 0.05413 -0.19000
N 	N 	0.02614 0.41539 0.19356 -0.33700
C 	C 	0.70632 0.82388 0.49774 0.68100
H 	H 	0.73883 0.85567 0.42557 -0.89100
N 	N 	0.76343 0.87737 0.40177 0.80100
H 	H 	0.79293 0.86167 0.35667 -0.13100
H 	H 	0.76893 0.92577 0.38747 -0.18700
N 	N 	0.69280 0.74873 0.52690 -0.33300
Zn	Zn	0.37641 0.37641 0.25000 1.24200
Zn	Zn	0.04308 0.70975 0.58333 1.24100
Zn	Zn	0.70975 0.04308 0.91667 1.24000
Zn	Zn	0.62359 0.00000 0.25000 1.24000
Zn	Zn	0.29025 0.33333 0.58333 1.24200
Zn	Zn	0.95692 0.66667 0.91667 1.24400
Zn	Zn	0.00000 0.62359 0.25000 1.24000
Zn	Zn	0.66667 0.95692 0.58333 1.24400
Zn	Zn	0.33333 0.29025 0.91667 1.24200
Zn	Zn	0.62359 0.62359 0.75000 1.24200
Zn	Zn	0.29025 0.95692 0.08333 1.24400
Zn	Zn	0.95692 0.29025 0.41667 1.24400
Zn	Zn	0.37641 -0.00000 0.75000 1.24000
Zn	Zn	0.04308 0.33333 0.08333 1.24100
Zn	Zn	0.70975 0.66667 0.41667 1.24200
Zn	Zn	-0.00000 0.37641 0.75000 1.24000
Zn	Zn	0.66667 0.70975 0.08333 1.24200
Zn	Zn	0.33333 0.04308 0.41667 1.24100
F 	F 	0.41214 0.33333 0.08333 -0.65400
F 	F 	0.66667 0.07880 0.08333 -0.65500
F 	F 	0.33333 0.41214 0.41667 -0.65400
F 	F 	0.92120 0.58786 0.08333 -0.65100
F 	F 	0.25453 0.25453 0.75000 -0.65500
F 	F 	0.00000 0.74547 0.75000 -0.65800
F 	F 	0.07880 0.66667 0.41667 -0.65600
F 	F 	0.74547 -0.00000 0.75000 -0.65900
F 	F 	0.58786 0.92120 0.41667 -0.65200
F 	F 	0.58786 0.66667 0.91667 -0.65400
F 	F 	0.25453 0.00000 0.25000 -0.65900
F 	F 	0.92120 0.33333 0.58333 -0.65200
F 	F 	0.33333 0.92120 0.91667 -0.65100
F 	F 	0.00000 0.25453 0.25000 -0.65900
F 	F 	0.07880 0.41214 0.91667 -0.65500
F 	F 	0.74547 0.74547 0.25000 -0.65400
F 	F 	0.66667 0.58786 0.58333 -0.65400
F 	F 	0.41214 0.07880 0.58333 -0.65600
N 	N 	0.33333 0.15071 0.41667 -0.45900
N 	N 	0.00000 0.48404 0.75000 -0.46300
N 	N 	0.84929 0.18263 0.41667 -0.45800
N 	N 	0.51596 0.51596 0.75000 -0.45800
N 	N 	0.81737 0.66667 0.41667 -0.45900
N 	N 	0.48404 -0.00000 0.75000 -0.46400
N 	N 	0.15071 0.33333 0.08333 -0.45900
N 	N 	0.18263 0.84929 0.08333 -0.45900
N 	N 	0.66667 0.81737 0.08333 -0.45900
N 	N 	0.66667 0.84929 0.58333 -0.45800
N 	N 	0.15071 0.81737 0.58333 -0.45900
N 	N 	0.18263 0.33333 0.58333 -0.45800
N 	N 	0.84929 0.66667 0.91667 -0.45800
N 	N 	0.51596 0.00000 0.25000 -0.46300
N 	N 	0.81737 0.15071 0.91667 -0.46000
N 	N 	0.48404 0.48404 0.25000 -0.45800
N 	N 	0.33333 0.18263 0.91667 -0.45900
N 	N 	0.00000 0.51596 0.25000 -0.46400
