data_crystal

_cell_length_a 15.28900
_cell_length_b 8.16800
_cell_length_c 28.99500
_cell_angle_alpha 90.00000
_cell_angle_beta  100.64600
_cell_angle_gamma 90.00000

_symmetry_space_group_name_	'P 1'
_symmetry_space_group_name_H-M	'P 1'

loop_
_symmetry_equiv_pos_as_xyz
  x,y,z

loop_
_atom_site_label
_atom_site_type_symbol
_atom_site_fract_x
_atom_site_fract_y
_atom_site_fract_z
_atom_site_charge
Pr	Pr	0.55017 0.25071 0.01181 2.05800
Cu	Cu	0.99843 0.56998 0.17016 0.72200
Cu	Cu	0.14509 0.70179 0.21415 0.74100
Cu	Cu	0.42503 0.92063 0.25049 0.72900
Cu	Cu	0.35247 0.89653 0.32433 0.72500
I 	I 	0.12366 0.67954 0.12244 -0.57000
I 	I 	0.00516 0.71975 0.25432 -0.56800
I 	I 	0.24726 0.96087 0.24098 -0.76100
I 	I 	0.50912 0.74941 0.32853 -0.59000
O 	O 	0.35890 0.95790 0.94246 -0.50000
O 	O 	0.42110 0.20680 0.95060 -0.51300
O 	O 	0.56660 0.37470 0.09308 -0.44700
O 	O 	0.46460 0.50590 0.04332 -0.59300
O 	O 	0.64130 0.12590 0.96050 -0.49700
O 	O 	0.55220 0.91230 0.95470 -0.54900
N 	N 	0.11550 0.32830 0.86410 -0.21900
N 	N 	0.44890 0.77160 0.19820 -0.22100
N 	N 	0.77810 0.74080 0.86030 -0.21900
C 	C 	0.12050 0.16990 0.87440 0.02300
H 	H 	0.06870 0.10480 0.86520 0.01900
C 	C 	0.19680 0.09430 0.89760 -0.02400
H 	H 	0.19630 0.98080 0.90480 0.05500
C 	C 	0.27340 0.18400 0.91030 -0.09300
C 	C 	0.26950 0.34810 0.89830 -0.03100
H 	H 	0.32110 0.41480 0.90570 0.03600
C 	C 	0.19010 0.41430 0.87540 0.01700
H 	H 	0.18880 0.52710 0.86730 0.00900
C 	C 	0.35770 0.10920 0.93620 0.42400
C 	C 	0.52750 0.69830 0.20070 0.03200
H 	H 	0.57140 0.71280 0.22810 0.01200
C 	C 	0.54780 0.60180 0.16460 -0.03100
H 	H 	0.60420 0.54990 0.16780 0.06300
C 	C 	0.48500 0.58210 0.12430 -0.06800
C 	C 	0.40460 0.65410 0.12230 -0.04400
H 	H 	0.35950 0.64030 0.09530 0.05000
C 	C 	0.38780 0.74820 0.15970 0.02400
H 	H 	0.33080 0.79730 0.15760 0.00900
C 	C 	0.50730 0.48040 0.08460 0.35100
C 	C 	0.81240 0.85800 0.89080 0.02200
H 	H 	0.87360 0.88480 0.89350 0.01800
C 	C 	0.76280 0.94090 0.91830 -0.03500
H 	H 	0.78930 0.02360 0.93930 0.06500
C 	C 	0.67420 0.90250 0.91480 -0.08600
C 	C 	0.63680 0.78800 0.88210 -0.03900
H 	H 	0.57510 0.76320 0.87760 0.06000
C 	C 	0.69150 0.71030 0.85590 0.01200
H 	H 	0.66580 0.63080 0.83350 0.00900
C 	C 	0.61870 0.98620 0.94570 0.41700
Pr	Pr	0.94983 0.75071 0.48819 2.05600
Cu	Cu	0.50157 0.06998 0.32984 0.72200
Cu	Cu	0.35491 0.20179 0.28585 0.74000
Cu	Cu	0.07497 0.42063 0.24951 0.72800
Cu	Cu	0.14753 0.39653 0.17567 0.72400
I 	I 	0.37634 0.17954 0.37756 -0.57200
I 	I 	0.49484 0.21975 0.24568 -0.57000
I 	I 	0.25274 0.46087 0.25902 -0.76300
I 	I 	0.99088 0.24941 0.17147 -0.58800
O 	O 	0.14110 0.45790 0.55754 -0.50100
O 	O 	0.07890 0.70680 0.54940 -0.51200
O 	O 	0.93340 0.87470 0.40692 -0.44800
O 	O 	0.03540 0.00590 0.45668 -0.59400
O 	O 	0.85870 0.62590 0.53950 -0.49800
O 	O 	0.94780 0.41230 0.54530 -0.54900
N 	N 	0.38450 0.82830 0.63590 -0.21900
N 	N 	0.05110 0.27160 0.30180 -0.22200
N 	N 	0.72190 0.24080 0.63970 -0.21800
C 	C 	0.37950 0.66990 0.62560 0.02100
H 	H 	0.43130 0.60480 0.63480 0.02100
C 	C 	0.30320 0.59430 0.60240 -0.01900
H 	H 	0.30370 0.48080 0.59520 0.05200
C 	C 	0.22660 0.68400 0.58970 -0.09500
C 	C 	0.23050 0.84810 0.60170 -0.03200
H 	H 	0.17890 0.91480 0.59430 0.03700
C 	C 	0.30990 0.91430 0.62460 0.02000
H 	H 	0.31120 0.02710 0.63270 0.00700
C 	C 	0.14230 0.60920 0.56380 0.42500
C 	C 	0.97250 0.19830 0.29930 0.03300
H 	H 	0.92860 0.21280 0.27190 0.01300
C 	C 	0.95220 0.10180 0.33540 -0.02700
H 	H 	0.89580 0.04990 0.33220 0.06300
C 	C 	0.01500 0.08210 0.37570 -0.07200
C 	C 	0.09540 0.15410 0.37770 -0.04200
H 	H 	0.14050 0.14030 0.40470 0.04900
C 	C 	0.11220 0.24820 0.34030 0.02300
H 	H 	0.16920 0.29730 0.34240 0.00900
C 	C 	0.99270 0.98040 0.41540 0.35100
C 	C 	0.68760 0.35800 0.60920 0.02000
H 	H 	0.62640 0.38480 0.60650 0.02000
C 	C 	0.73720 0.44090 0.58170 -0.02900
H 	H 	0.71070 0.52360 0.56070 0.06100
C 	C 	0.82580 0.40250 0.58520 -0.08900
C 	C 	0.86320 0.28800 0.61790 -0.03700
H 	H 	0.92490 0.26320 0.62240 0.06000
C 	C 	0.80850 0.21030 0.64410 0.01100
H 	H 	0.83420 0.13080 0.66650 0.01000
C 	C 	0.88130 0.48620 0.55430 0.41900
Pr	Pr	0.44983 0.74929 0.98819 2.05700
Cu	Cu	0.00157 0.43002 0.82984 0.72100
Cu	Cu	0.85491 0.29821 0.78585 0.74000
Cu	Cu	0.57497 0.07937 0.74951 0.72800
Cu	Cu	0.64753 0.10347 0.67567 0.72400
I 	I 	0.87634 0.32046 0.87756 -0.57100
I 	I 	0.99484 0.28025 0.74568 -0.56800
I 	I 	0.75274 0.03913 0.75902 -0.76100
I 	I 	0.49088 0.25059 0.67147 -0.59000
O 	O 	0.64110 0.04210 0.05754 -0.50000
O 	O 	0.57890 0.79320 0.04940 -0.51300
O 	O 	0.43340 0.62530 0.90692 -0.44700
O 	O 	0.53540 0.49410 0.95668 -0.59300
O 	O 	0.35870 0.87410 0.03950 -0.49700
O 	O 	0.44780 0.08770 0.04530 -0.54900
N 	N 	0.88450 0.67170 0.13590 -0.21900
N 	N 	0.55110 0.22840 0.80180 -0.22100
N 	N 	0.22190 0.25920 0.13970 -0.21900
C 	C 	0.87950 0.83010 0.12560 0.02300
H 	H 	0.93130 0.89520 0.13480 0.01900
C 	C 	0.80320 0.90570 0.10240 -0.02400
H 	H 	0.80370 0.01920 0.09520 0.05500
C 	C 	0.72660 0.81600 0.08970 -0.09300
C 	C 	0.73050 0.65190 0.10170 -0.03100
H 	H 	0.67890 0.58520 0.09430 0.03600
C 	C 	0.80990 0.58570 0.12460 0.01700
H 	H 	0.81120 0.47290 0.13270 0.00900
C 	C 	0.64230 0.89080 0.06380 0.42400
C 	C 	0.47250 0.30170 0.79930 0.03200
H 	H 	0.42860 0.28720 0.77190 0.01200
C 	C 	0.45220 0.39820 0.83540 -0.03100
H 	H 	0.39580 0.45010 0.83220 0.06300
C 	C 	0.51500 0.41790 0.87570 -0.06800
C 	C 	0.59540 0.34590 0.87770 -0.04400
H 	H 	0.64050 0.35970 0.90470 0.05000
C 	C 	0.61220 0.25180 0.84030 0.02400
H 	H 	0.66920 0.20270 0.84240 0.00900
C 	C 	0.49270 0.51960 0.91540 0.35100
C 	C 	0.18760 0.14200 0.10920 0.02200
H 	H 	0.12640 0.11520 0.10650 0.01800
C 	C 	0.23720 0.05910 0.08170 -0.03500
H 	H 	0.21070 0.97640 0.06070 0.06500
C 	C 	0.32580 0.09750 0.08520 -0.08600
C 	C 	0.36320 0.21200 0.11790 -0.03900
H 	H 	0.42490 0.23680 0.12240 0.06000
C 	C 	0.30850 0.28970 0.14410 0.01200
H 	H 	0.33420 0.36920 0.16650 0.00900
C 	C 	0.38130 0.01380 0.05430 0.41700
Pr	Pr	0.05017 0.24929 0.51181 2.05600
Cu	Cu	0.49843 0.93002 0.67016 0.72200
Cu	Cu	0.64509 0.79821 0.71415 0.74000
Cu	Cu	0.92503 0.57937 0.75049 0.72800
Cu	Cu	0.85247 0.60347 0.82433 0.72400
I 	I 	0.62366 0.82046 0.62244 -0.57200
I 	I 	0.50516 0.78025 0.75432 -0.57000
I 	I 	0.74726 0.53913 0.74098 -0.76300
I 	I 	0.00912 0.75059 0.82853 -0.58800
O 	O 	0.85890 0.54210 0.44246 -0.50100
O 	O 	0.92110 0.29320 0.45060 -0.51200
O 	O 	0.06660 0.12530 0.59308 -0.44800
O 	O 	0.96460 0.99410 0.54332 -0.59400
O 	O 	0.14130 0.37410 0.46050 -0.49800
O 	O 	0.05220 0.58770 0.45470 -0.54900
N 	N 	0.61550 0.17170 0.36410 -0.21900
N 	N 	0.94890 0.72840 0.69820 -0.22200
N 	N 	0.27810 0.75920 0.36030 -0.21800
C 	C 	0.62050 0.33010 0.37440 0.02100
H 	H 	0.56870 0.39520 0.36520 0.02100
C 	C 	0.69680 0.40570 0.39760 -0.01900
H 	H 	0.69630 0.51920 0.40480 0.05200
C 	C 	0.77340 0.31600 0.41030 -0.09500
C 	C 	0.76950 0.15190 0.39830 -0.03200
H 	H 	0.82110 0.08520 0.40570 0.03700
C 	C 	0.69010 0.08570 0.37540 0.02000
H 	H 	0.68880 0.97290 0.36730 0.00700
C 	C 	0.85770 0.39080 0.43620 0.42500
C 	C 	0.02750 0.80170 0.70070 0.03300
H 	H 	0.07140 0.78720 0.72810 0.01300
C 	C 	0.04780 0.89820 0.66460 -0.02700
H 	H 	0.10420 0.95010 0.66780 0.06300
C 	C 	0.98500 0.91790 0.62430 -0.07200
C 	C 	0.90460 0.84590 0.62230 -0.04200
H 	H 	0.85950 0.85970 0.59530 0.04900
C 	C 	0.88780 0.75180 0.65970 0.02300
H 	H 	0.83080 0.70270 0.65760 0.00900
C 	C 	0.00730 0.01960 0.58460 0.35100
C 	C 	0.31240 0.64200 0.39080 0.02000
H 	H 	0.37360 0.61520 0.39350 0.02000
C 	C 	0.26280 0.55910 0.41830 -0.02900
H 	H 	0.28930 0.47640 0.43930 0.06100
C 	C 	0.17420 0.59750 0.41480 -0.08900
C 	C 	0.13680 0.71200 0.38210 -0.03700
H 	H 	0.07510 0.73680 0.37760 0.06000
C 	C 	0.19150 0.78970 0.35590 0.01100
H 	H 	0.16580 0.86920 0.33350 0.01000
C 	C 	0.11870 0.51380 0.44570 0.41900
