data_crystal

_cell_length_a 20.29370
_cell_length_b 20.29370
_cell_length_c 20.29370
_cell_angle_alpha 85.00580
_cell_angle_beta  85.00580
_cell_angle_gamma 85.00580

_symmetry_space_group_name_	'P 1'
_symmetry_space_group_name_H-M	'P 1'

loop_
_symmetry_equiv_pos_as_xyz
  x,y,z

loop_
_atom_site_label
_atom_site_type_symbol
_atom_site_fract_x
_atom_site_fract_y
_atom_site_fract_z
_atom_site_charge
Co	Co	0.72207 0.02539 0.02539 1.17400
Co	Co	0.55572 0.07663 0.07663 1.13200
Co	Co	0.02539 0.72207 0.02539 1.17300
Co	Co	0.07663 0.55572 0.07663 1.13200
Co	Co	0.02539 0.02539 0.72207 1.17200
Co	Co	0.07663 0.07663 0.55572 1.13100
Co	Co	0.97461 0.27793 0.97461 1.18000
Co	Co	0.92337 0.44428 0.92337 1.13500
Co	Co	0.27793 0.97461 0.97461 1.18000
Co	Co	0.44428 0.92337 0.92337 1.13500
Co	Co	0.97461 0.97461 0.27793 1.18200
Co	Co	0.92337 0.92337 0.44428 1.13600
Co	Co	0.56243 0.56243 0.01320 1.14800
Co	Co	0.01320 0.56243 0.56243 1.14600
Co	Co	0.56243 0.01320 0.56243 1.14600
Co	Co	0.43757 0.43757 0.98680 1.14900
Co	Co	0.43757 0.98680 0.43757 1.15000
Co	Co	0.98680 0.43757 0.43757 1.15000
H 	H 	0.38690 0.12100 0.26740 0.09200
H 	H 	0.47760 0.06980 0.21170 -0.00000
H 	H 	0.58280 0.28230 0.01640 0.01900
H 	H 	0.51820 0.66480 0.78460 0.08700
H 	H 	0.49620 0.63860 0.89490 0.00200
H 	H 	0.62950 0.77630 0.01610 0.04400
H 	H 	0.26740 0.38690 0.12100 0.09400
H 	H 	0.21170 0.47760 0.06980 0.00100
H 	H 	0.01640 0.58280 0.28230 0.01900
H 	H 	0.78460 0.51820 0.66480 0.08700
H 	H 	0.89490 0.49620 0.63860 0.00400
H 	H 	0.01610 0.62950 0.77630 0.04100
H 	H 	0.12100 0.26740 0.38690 0.09200
H 	H 	0.06980 0.21170 0.47760 -0.00000
H 	H 	0.28230 0.01640 0.58280 0.01900
H 	H 	0.66480 0.78460 0.51820 0.08700
H 	H 	0.63860 0.89490 0.49620 0.00400
H 	H 	0.77630 0.01610 0.62950 0.04100
H 	H 	0.87900 0.61310 0.73260 0.09700
H 	H 	0.93020 0.52240 0.78830 0.00500
H 	H 	0.71770 0.41720 0.98360 0.02000
H 	H 	0.33520 0.48180 0.21540 0.08700
H 	H 	0.36140 0.50380 0.10510 0.00100
H 	H 	0.22370 0.37050 0.98390 0.04400
H 	H 	0.61310 0.73260 0.87900 0.09600
H 	H 	0.52240 0.78830 0.93020 0.00300
H 	H 	0.41720 0.98360 0.71770 0.02200
H 	H 	0.48180 0.21540 0.33520 0.08700
H 	H 	0.50380 0.10510 0.36140 -0.00000
H 	H 	0.37050 0.98390 0.22370 0.04700
H 	H 	0.73260 0.87900 0.61310 0.09700
H 	H 	0.78830 0.93020 0.52240 0.00500
H 	H 	0.98360 0.71770 0.41720 0.02200
H 	H 	0.21540 0.33520 0.48180 0.08700
H 	H 	0.10510 0.36140 0.50380 -0.00000
H 	H 	0.98390 0.22370 0.37050 0.04600
H 	H 	0.61310 0.87900 0.73260 0.09700
H 	H 	0.52240 0.93020 0.78830 0.00500
H 	H 	0.41720 0.71770 0.98360 0.02700
H 	H 	0.48180 0.33520 0.21540 0.08700
H 	H 	0.50380 0.36140 0.10510 0.00100
H 	H 	0.37050 0.22370 0.98390 0.04400
H 	H 	0.73260 0.61310 0.87900 0.09600
H 	H 	0.78830 0.52240 0.93020 0.00300
H 	H 	0.98360 0.41720 0.71770 0.02200
H 	H 	0.21540 0.48180 0.33520 0.08700
H 	H 	0.10510 0.50380 0.36140 -0.00000
H 	H 	0.98390 0.37050 0.22370 0.04700
H 	H 	0.87900 0.73260 0.61310 0.09700
H 	H 	0.93020 0.78830 0.52240 0.00500
H 	H 	0.71770 0.98360 0.41720 0.02200
H 	H 	0.33520 0.21540 0.48180 0.08700
H 	H 	0.36140 0.10510 0.50380 -0.00000
H 	H 	0.22370 0.98390 0.37050 0.04600
H 	H 	0.12100 0.38690 0.26740 0.09200
H 	H 	0.06980 0.47760 0.21170 -0.00000
H 	H 	0.28230 0.58280 0.01640 0.02600
H 	H 	0.66480 0.51820 0.78460 0.08700
H 	H 	0.63860 0.49620 0.89490 0.00200
H 	H 	0.77630 0.62950 0.01610 0.04400
H 	H 	0.38690 0.26740 0.12100 0.09400
H 	H 	0.47760 0.21170 0.06980 0.00100
H 	H 	0.58280 0.01640 0.28230 0.01900
H 	H 	0.51820 0.78460 0.66480 0.08700
H 	H 	0.49620 0.89490 0.63860 0.00400
H 	H 	0.62950 0.01610 0.77630 0.04100
H 	H 	0.26740 0.12100 0.38690 0.09200
H 	H 	0.21170 0.06980 0.47760 -0.00000
H 	H 	0.01640 0.28230 0.58280 0.01900
H 	H 	0.78460 0.66480 0.51820 0.08700
H 	H 	0.89490 0.63860 0.49620 0.00400
H 	H 	0.01610 0.77630 0.62950 0.04100
H 	H 	0.77690 0.22310 -0.00000 0.01900
H 	H 	0.00000 0.77690 0.22310 0.02200
H 	H 	0.22310 0.00000 0.77690 0.02100
H 	H 	0.22310 0.77690 -0.00000 0.02300
H 	H 	0.00000 0.22310 0.77690 0.02100
H 	H 	0.77690 0.00000 0.22310 0.02200
H 	H 	0.81800 0.81800 0.02800 0.04500
H 	H 	0.02800 0.81800 0.81800 0.04300
H 	H 	0.81800 0.02800 0.81800 0.04200
H 	H 	0.18200 0.18200 0.97200 0.04000
H 	H 	0.18200 0.97200 0.18200 0.04300
H 	H 	0.97200 0.18200 0.18200 0.04300
C 	C 	0.66229 0.17007 0.02643 0.41600
C 	C 	0.40420 0.14020 0.22703 -0.13200
C 	C 	0.45814 0.10945 0.19292 0.08100
C 	C 	0.67756 0.24134 0.01156 -0.16100
C 	C 	0.62684 0.29231 0.01032 0.09700
C 	C 	0.54390 0.63090 0.80630 -0.13300
C 	C 	0.69721 0.87971 0.02681 0.31000
C 	C 	0.53103 0.61483 0.87223 0.07300
C 	C 	0.72019 0.80839 0.02379 -0.09200
C 	C 	0.67425 0.76229 0.01797 0.03000
C 	C 	0.02643 0.66229 0.17007 0.41300
C 	C 	0.22703 0.40420 0.14020 -0.13200
C 	C 	0.19292 0.45814 0.10945 0.08100
C 	C 	0.01156 0.67756 0.24134 -0.15600
C 	C 	0.01032 0.62684 0.29231 0.09100
C 	C 	0.80630 0.54390 0.63090 -0.13300
C 	C 	0.02681 0.69721 0.87971 0.31100
C 	C 	0.87223 0.53103 0.61483 0.07300
C 	C 	0.02379 0.72019 0.80839 -0.09600
C 	C 	0.01797 0.67425 0.76229 0.03200
C 	C 	0.17007 0.02643 0.66229 0.41300
C 	C 	0.14020 0.22703 0.40420 -0.13200
C 	C 	0.10945 0.19292 0.45814 0.08000
C 	C 	0.24134 0.01156 0.67756 -0.15700
C 	C 	0.29231 0.01032 0.62684 0.09100
C 	C 	0.63090 0.80630 0.54390 -0.13300
C 	C 	0.87971 0.02681 0.69721 0.31100
C 	C 	0.61483 0.87223 0.53103 0.07300
C 	C 	0.80839 0.02379 0.72019 -0.09500
C 	C 	0.76229 0.01797 0.67425 0.03200
C 	C 	0.82993 0.33771 0.97357 0.41500
C 	C 	0.85980 0.59580 0.77297 -0.13100
C 	C 	0.89055 0.54186 0.80708 0.08400
C 	C 	0.75866 0.32244 0.98844 -0.15800
C 	C 	0.70769 0.37316 0.98968 0.10100
C 	C 	0.36910 0.45610 0.19370 -0.13300
C 	C 	0.12029 0.30279 0.97319 0.31100
C 	C 	0.38517 0.46897 0.12777 0.07300
C 	C 	0.19161 0.27981 0.97621 -0.09600
C 	C 	0.23771 0.32575 0.98203 0.03200
C 	C 	0.33771 0.97357 0.82993 0.41300
C 	C 	0.59580 0.77297 0.85980 -0.13100
C 	C 	0.54186 0.80708 0.89055 0.08300
C 	C 	0.32244 0.98844 0.75866 -0.14500
C 	C 	0.37316 0.98968 0.70769 0.10500
C 	C 	0.45610 0.19370 0.36910 -0.13300
C 	C 	0.30279 0.97319 0.12029 0.31000
C 	C 	0.46897 0.12777 0.38517 0.07200
C 	C 	0.27981 0.97621 0.19161 -0.09100
C 	C 	0.32575 0.98203 0.23771 0.03000
C 	C 	0.97357 0.82993 0.33771 0.41200
C 	C 	0.77297 0.85980 0.59580 -0.13100
C 	C 	0.80708 0.89055 0.54186 0.08400
C 	C 	0.98844 0.75866 0.32244 -0.14400
C 	C 	0.98968 0.70769 0.37316 0.10400
C 	C 	0.19370 0.36910 0.45610 -0.13300
C 	C 	0.97319 0.12029 0.30279 0.31100
C 	C 	0.12777 0.38517 0.46897 0.07200
C 	C 	0.97621 0.19161 0.27981 -0.09200
C 	C 	0.98203 0.23771 0.32575 0.03000
C 	C 	0.33771 0.82993 0.97357 0.41100
C 	C 	0.59580 0.85980 0.77297 -0.13100
C 	C 	0.54186 0.89055 0.80708 0.08400
C 	C 	0.32244 0.75866 0.98844 -0.14600
C 	C 	0.37316 0.70769 0.98968 0.08000
C 	C 	0.45610 0.36910 0.19370 -0.13300
C 	C 	0.30279 0.12029 0.97319 0.31100
C 	C 	0.46897 0.38517 0.12777 0.07300
C 	C 	0.27981 0.19161 0.97621 -0.09600
C 	C 	0.32575 0.23771 0.98203 0.03200
C 	C 	0.97357 0.33771 0.82993 0.41300
C 	C 	0.77297 0.59580 0.85980 -0.13100
C 	C 	0.80708 0.54186 0.89055 0.08300
C 	C 	0.98844 0.32244 0.75866 -0.14500
C 	C 	0.98968 0.37316 0.70769 0.10500
C 	C 	0.19370 0.45610 0.36910 -0.13300
C 	C 	0.97319 0.30279 0.12029 0.31000
C 	C 	0.12777 0.46897 0.38517 0.07200
C 	C 	0.97621 0.27981 0.19161 -0.09100
C 	C 	0.98203 0.32575 0.23771 0.03000
C 	C 	0.82993 0.97357 0.33771 0.41200
C 	C 	0.85980 0.77297 0.59580 -0.13100
C 	C 	0.89055 0.80708 0.54186 0.08400
C 	C 	0.75866 0.98844 0.32244 -0.14500
C 	C 	0.70769 0.98968 0.37316 0.10400
C 	C 	0.36910 0.19370 0.45610 -0.13300
C 	C 	0.12029 0.97319 0.30279 0.31100
C 	C 	0.38517 0.12777 0.46897 0.07200
C 	C 	0.19161 0.97621 0.27981 -0.09200
C 	C 	0.23771 0.98203 0.32575 0.03000
C 	C 	0.17007 0.66229 0.02643 0.41200
C 	C 	0.14020 0.40420 0.22703 -0.13200
C 	C 	0.10945 0.45814 0.19292 0.08100
C 	C 	0.24134 0.67756 0.01156 -0.15000
C 	C 	0.29231 0.62684 0.01032 0.07600
C 	C 	0.63090 0.54390 0.80630 -0.13300
C 	C 	0.87971 0.69721 0.02681 0.31000
C 	C 	0.61483 0.53103 0.87223 0.07300
C 	C 	0.80839 0.72019 0.02379 -0.09200
C 	C 	0.76229 0.67425 0.01797 0.03000
C 	C 	0.66229 0.02643 0.17007 0.41300
C 	C 	0.40420 0.22703 0.14020 -0.13200
C 	C 	0.45814 0.19292 0.10945 0.08100
C 	C 	0.67756 0.01156 0.24134 -0.15600
C 	C 	0.62684 0.01032 0.29231 0.09100
C 	C 	0.54390 0.80630 0.63090 -0.13300
C 	C 	0.69721 0.02681 0.87971 0.31100
C 	C 	0.53103 0.87223 0.61483 0.07300
C 	C 	0.72019 0.02379 0.80839 -0.09600
C 	C 	0.67425 0.01797 0.76229 0.03200
C 	C 	0.02643 0.17007 0.66229 0.41300
C 	C 	0.22703 0.14020 0.40420 -0.13200
C 	C 	0.19292 0.10945 0.45814 0.08000
C 	C 	0.01156 0.24134 0.67756 -0.15700
C 	C 	0.01032 0.29231 0.62684 0.09200
C 	C 	0.80630 0.63090 0.54390 -0.13300
C 	C 	0.02681 0.87971 0.69721 0.31100
C 	C 	0.87223 0.61483 0.53103 0.07300
C 	C 	0.02379 0.80839 0.72019 -0.09500
C 	C 	0.01797 0.76229 0.67425 0.03200
C 	C 	0.64200 0.35800 -0.00000 -0.16600
C 	C 	0.74300 0.25700 -0.00000 0.09400
C 	C 	0.58610 0.41390 1.00000 0.43200
C 	C 	0.00000 0.64200 0.35800 -0.16500
C 	C 	-0.00000 0.74300 0.25700 0.07700
C 	C 	0.00000 0.58610 0.41390 0.40600
C 	C 	0.35800 0.00000 0.64200 -0.16600
C 	C 	0.25700 0.00000 0.74300 0.07800
C 	C 	0.41390 0.00000 0.58610 0.40700
C 	C 	0.35800 0.64200 1.00000 -0.13700
C 	C 	0.25700 0.74300 -0.00000 0.08300
C 	C 	0.41390 0.58610 -0.00000 0.40800
C 	C 	0.00000 0.35800 0.64200 -0.16600
C 	C 	-0.00000 0.25700 0.74300 0.07800
C 	C 	0.00000 0.41390 0.58610 0.40700
C 	C 	0.64200 0.00000 0.35800 -0.16500
C 	C 	0.74300 0.00000 0.25700 0.07800
C 	C 	0.58610 0.00000 0.41390 0.40700
C 	C 	0.31557 0.23312 0.23312 0.10300
C 	C 	0.37587 0.20042 0.20042 0.06500
C 	C 	0.23312 0.31557 0.23312 0.10300
C 	C 	0.20042 0.37587 0.20042 0.06500
C 	C 	0.23312 0.23312 0.31557 0.10300
C 	C 	0.20042 0.20042 0.37587 0.06400
C 	C 	0.76688 0.68443 0.76688 0.10500
C 	C 	0.79958 0.62413 0.79958 0.06700
C 	C 	0.68443 0.76688 0.76688 0.10500
C 	C 	0.62413 0.79958 0.79958 0.06700
C 	C 	0.76688 0.76688 0.68443 0.10500
C 	C 	0.79958 0.79958 0.62413 0.06800
C 	C 	0.69532 0.69532 0.01482 -0.09300
C 	C 	0.64740 0.64740 0.00740 0.27900
C 	C 	0.78715 0.78715 0.02550 0.03700
C 	C 	0.01482 0.69532 0.69532 -0.09600
C 	C 	0.00740 0.64740 0.64740 0.27900
C 	C 	0.02550 0.78715 0.78715 0.03900
C 	C 	0.69532 0.01482 0.69532 -0.09600
C 	C 	0.64740 0.00740 0.64740 0.27900
C 	C 	0.78715 0.02550 0.78715 0.03900
C 	C 	0.30468 0.30468 0.98518 -0.09300
C 	C 	0.35260 0.35260 0.99260 0.27900
C 	C 	0.21285 0.21285 0.97450 0.03900
C 	C 	0.30468 0.98518 0.30468 -0.08900
C 	C 	0.35260 0.99260 0.35260 0.27900
C 	C 	0.21285 0.97450 0.21285 0.03700
C 	C 	0.98518 0.30468 0.30468 -0.08900
C 	C 	0.99260 0.35260 0.35260 0.27900
C 	C 	0.97450 0.21285 0.21285 0.03700
C 	C 	0.59608 0.59608 0.77118 0.06100
C 	C 	0.62180 0.62180 0.70300 0.09900
C 	C 	0.77118 0.59608 0.59608 0.06100
C 	C 	0.70300 0.62180 0.62180 0.09900
C 	C 	0.59608 0.77118 0.59608 0.06100
C 	C 	0.62180 0.70300 0.62180 0.09900
C 	C 	0.40392 0.40392 0.22882 0.06100
C 	C 	0.37820 0.37820 0.29700 0.09900
C 	C 	0.40392 0.22882 0.40392 0.06100
C 	C 	0.37820 0.29700 0.37820 0.09900
C 	C 	0.22882 0.40392 0.40392 0.06100
C 	C 	0.29700 0.37820 0.37820 0.09900
N 	N 	0.48375 0.13405 0.13405 -0.24100
N 	N 	0.13405 0.48375 0.13405 -0.24100
N 	N 	0.13404 0.13405 0.48375 -0.24100
N 	N 	0.86596 0.51625 0.86596 -0.24000
N 	N 	0.51625 0.86596 0.86596 -0.24000
N 	N 	0.86596 0.86596 0.51625 -0.23900
N 	N 	0.56610 0.56610 0.90620 -0.23400
N 	N 	0.90620 0.56610 0.56610 -0.23100
N 	N 	0.56610 0.90620 0.56610 -0.23100
N 	N 	0.43390 0.43390 0.09380 -0.23600
N 	N 	0.43390 0.09380 0.43390 -0.23800
N 	N 	0.09380 0.43390 0.43390 -0.23800
N 	N 	0.67776 0.59000 0.67776 -0.13800
N 	N 	0.67776 0.67776 0.59000 -0.13800
N 	N 	0.59000 0.67776 0.67776 -0.13800
N 	N 	0.41000 0.32224 0.32224 -0.13800
N 	N 	0.32224 0.32224 0.41000 -0.13800
N 	N 	0.32224 0.41000 0.32224 -0.13800
N 	N 	0.28948 0.20318 0.28948 -0.13700
N 	N 	0.28948 0.28948 0.20318 -0.13600
N 	N 	0.20318 0.28948 0.28948 -0.13700
N 	N 	0.79682 0.71052 0.71052 -0.13500
N 	N 	0.71052 0.71052 0.79682 -0.13600
N 	N 	0.71052 0.79682 0.71052 -0.13500
O 	O 	0.60345 0.15988 0.04698 -0.45800
O 	O 	0.70957 0.12718 0.01766 -0.45400
O 	O 	0.59920 0.46728 0.01992 -0.48700
O 	O 	0.73834 0.92145 0.02722 -0.37700
O 	O 	0.63444 0.89834 0.01104 -0.23600
O 	O 	0.58603 0.66675 0.00643 -0.36200
O 	O 	0.04698 0.60345 0.15988 -0.45800
O 	O 	0.01766 0.70957 0.12718 -0.45500
O 	O 	0.01992 0.59920 0.46728 -0.48200
O 	O 	0.02722 0.73834 0.92145 -0.38400
O 	O 	0.01104 0.63444 0.89834 -0.24300
O 	O 	0.00643 0.58603 0.66675 -0.36500
O 	O 	0.15988 0.04698 0.60345 -0.45900
O 	O 	0.12718 0.01766 0.70957 -0.45600
O 	O 	0.46728 0.01992 0.59920 -0.48200
O 	O 	0.92145 0.02722 0.73834 -0.38000
O 	O 	0.89834 0.01104 0.63444 -0.23900
O 	O 	0.66675 0.00643 0.58603 -0.36500
O 	O 	0.84012 0.39655 0.95302 -0.45600
O 	O 	0.87282 0.29043 0.98234 -0.45100
O 	O 	0.53272 0.40080 0.98008 -0.48300
O 	O 	0.07855 0.26166 0.97278 -0.39000
O 	O 	0.10166 0.36556 0.98896 -0.24400
O 	O 	0.33325 0.41397 0.99357 -0.36000
O 	O 	0.39655 0.95302 0.84012 -0.45400
O 	O 	0.29043 0.98234 0.87282 -0.44700
O 	O 	0.40080 0.98008 0.53272 -0.46700
O 	O 	0.26166 0.97278 0.07855 -0.38300
O 	O 	0.36556 0.98896 0.10166 -0.23700
O 	O 	0.41397 0.99357 0.33325 -0.35600
O 	O 	0.95302 0.84012 0.39655 -0.45400
O 	O 	0.98234 0.87282 0.29043 -0.44600
O 	O 	0.98008 0.53272 0.40080 -0.46700
O 	O 	0.97278 0.07855 0.26166 -0.38700
O 	O 	0.98896 0.10166 0.36556 -0.24000
O 	O 	0.99357 0.33325 0.41397 -0.35600
O 	O 	0.39655 0.84012 0.95302 -0.45500
O 	O 	0.29043 0.87282 0.98234 -0.44900
O 	O 	0.40080 0.53272 0.98008 -0.47500
O 	O 	0.26166 0.07855 0.97278 -0.39000
O 	O 	0.36556 0.10166 0.98896 -0.24400
O 	O 	0.41397 0.33325 0.99357 -0.35900
O 	O 	0.95302 0.39655 0.84012 -0.45400
O 	O 	0.98234 0.29043 0.87282 -0.44700
O 	O 	0.98008 0.40080 0.53272 -0.46700
O 	O 	0.97278 0.26166 0.07855 -0.38300
O 	O 	0.98896 0.36556 0.10166 -0.23700
O 	O 	0.99357 0.41397 0.33325 -0.35600
O 	O 	0.84012 0.95302 0.39655 -0.45400
O 	O 	0.87282 0.98234 0.29043 -0.44600
O 	O 	0.53272 0.98008 0.40080 -0.46700
O 	O 	0.07855 0.97278 0.26166 -0.38800
O 	O 	0.10166 0.98896 0.36556 -0.24100
O 	O 	0.33325 0.99357 0.41397 -0.35600
O 	O 	0.15988 0.60345 0.04698 -0.45700
O 	O 	0.12718 0.70957 0.01766 -0.45300
O 	O 	0.46728 0.59920 0.01992 -0.48000
O 	O 	0.92145 0.73834 0.02722 -0.37600
O 	O 	0.89834 0.63444 0.01104 -0.23600
O 	O 	0.66675 0.58603 0.00643 -0.36200
O 	O 	0.60345 0.04698 0.15988 -0.45800
O 	O 	0.70957 0.01766 0.12718 -0.45500
O 	O 	0.59920 0.01992 0.46728 -0.48200
O 	O 	0.73834 0.02722 0.92145 -0.38400
O 	O 	0.63444 0.01104 0.89834 -0.24300
O 	O 	0.58603 0.00643 0.66675 -0.36600
O 	O 	0.04698 0.15988 0.60345 -0.45900
O 	O 	0.01766 0.12718 0.70957 -0.45600
O 	O 	0.01992 0.46728 0.59920 -0.48200
O 	O 	0.02722 0.92145 0.73834 -0.37900
O 	O 	0.01104 0.89834 0.63444 -0.23900
O 	O 	0.00643 0.66675 0.58603 -0.36500
O 	O 	0.61848 0.01705 0.01705 -0.42000
O 	O 	0.01704 0.61848 0.01705 -0.42000
O 	O 	0.01704 0.01705 0.61848 -0.42300
O 	O 	0.98296 0.38152 0.98296 -0.40800
O 	O 	0.38152 0.98296 0.98296 -0.40700
O 	O 	0.98296 0.98296 0.38152 -0.40400
