data_crystal

_cell_length_a 11.95630
_cell_length_b 20.52250
_cell_length_c 22.05560
_cell_angle_alpha 90.00000
_cell_angle_beta  90.00000
_cell_angle_gamma 90.00000

_symmetry_space_group_name_	'P 1'
_symmetry_space_group_name_H-M	'P 1'

loop_
_symmetry_equiv_pos_as_xyz
  x,y,z

loop_
_atom_site_label
_atom_site_type_symbol
_atom_site_fract_x
_atom_site_fract_y
_atom_site_fract_z
_atom_site_charge
Cs	Cs	0.76235 0.91968 0.54010 0.69500
Cs	Cs	0.26235 0.08032 0.95990 0.69400
Cs	Cs	0.23765 0.41968 0.45990 0.69500
Cs	Cs	0.73765 0.58032 0.04010 0.69500
Cs	Cs	0.23765 0.08032 0.45990 0.69500
Cs	Cs	0.73765 0.91968 0.04010 0.69400
Cs	Cs	0.76235 0.58032 0.54010 0.69500
Cs	Cs	0.26235 0.41968 0.95990 0.69500
Cs	Cs	0.99753 0.75000 0.65513 0.69900
Cs	Cs	0.49753 0.25000 0.84487 0.69900
Cs	Cs	0.00247 0.25000 0.34487 0.69900
Cs	Cs	0.50247 0.75000 0.15513 0.69900
U 	U 	0.14023 0.91681 0.57242 -0.00100
U 	U 	0.64023 0.08319 0.92758 -0.00200
U 	U 	0.85977 0.41681 0.42758 -0.00200
U 	U 	0.35977 0.58319 0.07242 -0.00200
U 	U 	0.85977 0.08319 0.42758 -0.00100
U 	U 	0.35977 0.91681 0.07242 -0.00200
U 	U 	0.14023 0.58319 0.57242 -0.00200
U 	U 	0.64023 0.41681 0.92758 -0.00200
U 	U 	0.91039 0.75000 0.44008 0.01000
U 	U 	0.41039 0.25000 0.05992 0.01100
U 	U 	0.08961 0.25000 0.55992 0.01000
U 	U 	0.58961 0.75000 0.94008 0.01100
P 	P 	0.00030 0.92230 0.42710 0.37400
P 	P 	0.50030 0.07770 0.07290 0.37100
P 	P 	0.99970 0.42230 0.57290 0.37100
P 	P 	0.49970 0.57770 0.92710 0.37000
P 	P 	0.99970 0.07770 0.57290 0.37400
P 	P 	0.49970 0.92230 0.92710 0.37100
P 	P 	0.00030 0.57770 0.42710 0.37100
P 	P 	0.50030 0.42230 0.07290 0.37000
P 	P 	0.18020 0.75000 0.50499 0.37600
P 	P 	0.68020 0.25000 0.99501 0.37400
P 	P 	0.81980 0.25000 0.49501 0.37600
P 	P 	0.31980 0.75000 0.00499 0.37400
H 	H 	0.34180 0.84860 0.47090 0.05200
H 	H 	0.52990 0.84960 0.44570 0.01500
H 	H 	0.02720 0.00620 0.32470 0.06700
H 	H 	0.13530 0.00490 0.23630 0.03300
H 	H 	0.23450 0.82010 0.27790 0.02900
H 	H 	0.13370 0.82550 0.36780 0.07700
H 	H 	0.84180 0.15140 0.02910 0.05400
H 	H 	0.02990 0.15040 0.05430 0.01200
H 	H 	0.52720 0.99380 0.17530 0.06800
H 	H 	0.63530 0.99510 0.26370 0.03100
H 	H 	0.73450 0.17990 0.22210 0.02900
H 	H 	0.63370 0.17450 0.13220 0.07700
H 	H 	0.65820 0.34860 0.52910 0.05200
H 	H 	0.47010 0.34960 0.55430 0.01500
H 	H 	0.97280 0.50620 0.67530 0.06900
H 	H 	0.86470 0.50490 0.76370 0.03300
H 	H 	0.76550 0.32010 0.72210 0.02900
H 	H 	0.86630 0.32550 0.63220 0.07700
H 	H 	0.15820 0.65140 0.97090 0.05400
H 	H 	0.97010 0.65040 0.94570 0.01300
H 	H 	0.47280 0.49380 0.82470 0.07000
H 	H 	0.36470 0.49510 0.73630 0.03300
H 	H 	0.26550 0.67990 0.77790 0.02900
H 	H 	0.36630 0.67450 0.86780 0.07700
H 	H 	0.65820 0.15140 0.52910 0.05200
H 	H 	0.47010 0.15040 0.55430 0.01500
H 	H 	0.97280 0.99380 0.67530 0.06700
H 	H 	0.86470 0.99510 0.76370 0.03300
H 	H 	0.76550 0.17990 0.72210 0.02900
H 	H 	0.86630 0.17450 0.63220 0.07700
H 	H 	0.15820 0.84860 0.97090 0.05400
H 	H 	0.97010 0.84960 0.94570 0.01200
H 	H 	0.47280 0.00620 0.82470 0.06800
H 	H 	0.36470 0.00490 0.73630 0.03100
H 	H 	0.26550 0.82010 0.77790 0.02900
H 	H 	0.36630 0.82550 0.86780 0.07700
H 	H 	0.34180 0.65140 0.47090 0.05200
H 	H 	0.52990 0.65040 0.44570 0.01500
H 	H 	0.02720 0.49380 0.32470 0.06900
H 	H 	0.13530 0.49510 0.23630 0.03300
H 	H 	0.23450 0.67990 0.27790 0.02900
H 	H 	0.13370 0.67450 0.36780 0.07700
H 	H 	0.84180 0.34860 0.02910 0.05400
H 	H 	0.02990 0.34960 0.05430 0.01300
H 	H 	0.52720 0.50620 0.17530 0.07000
H 	H 	0.63530 0.50490 0.26370 0.03300
H 	H 	0.73450 0.32010 0.22210 0.02900
H 	H 	0.63370 0.32550 0.13220 0.07700
C 	C 	0.38030 0.80840 0.46670 -0.05600
C 	C 	0.49170 0.80950 0.45160 -0.01400
C 	C 	0.07140 0.91670 0.35540 -0.01800
C 	C 	0.07130 0.96900 0.31560 -0.07000
C 	C 	0.13420 0.96820 0.26260 -0.01200
C 	C 	0.19630 0.91180 0.24870 -0.07200
C 	C 	0.19410 0.85860 0.28780 -0.00500
C 	C 	0.13330 0.86160 0.34080 -0.06200
C 	C 	0.26650 0.91110 0.19160 0.26400
C 	C 	0.88030 0.19160 0.03330 -0.06100
C 	C 	0.99170 0.19050 0.04840 -0.00600
C 	C 	0.57140 0.08330 0.14460 -0.01700
C 	C 	0.57130 0.03100 0.18440 -0.07100
C 	C 	0.63420 0.03180 0.23740 -0.00900
C 	C 	0.69630 0.08820 0.25130 -0.07300
C 	C 	0.69410 0.14140 0.21220 -0.00400
C 	C 	0.63330 0.13840 0.15920 -0.06300
C 	C 	0.76650 0.08890 0.30840 0.26400
C 	C 	0.61970 0.30840 0.53330 -0.05600
C 	C 	0.50830 0.30950 0.54840 -0.01400
C 	C 	0.92860 0.41670 0.64460 -0.01700
C 	C 	0.92870 0.46900 0.68440 -0.07300
C 	C 	0.86580 0.46820 0.73740 -0.01200
C 	C 	0.80370 0.41180 0.75130 -0.07300
C 	C 	0.80590 0.35860 0.71220 -0.00400
C 	C 	0.86670 0.36160 0.65920 -0.06300
C 	C 	0.73350 0.41110 0.80840 0.26400
C 	C 	0.11970 0.69160 0.96670 -0.06000
C 	C 	0.00830 0.69050 0.95160 -0.00800
C 	C 	0.42860 0.58330 0.85540 -0.01700
C 	C 	0.42870 0.53100 0.81560 -0.07300
C 	C 	0.36580 0.53180 0.76260 -0.01200
C 	C 	0.30370 0.58820 0.74870 -0.07300
C 	C 	0.30590 0.64140 0.78780 -0.00400
C 	C 	0.36670 0.63840 0.84080 -0.06300
C 	C 	0.23350 0.58890 0.69160 0.26400
C 	C 	0.61970 0.19160 0.53330 -0.05600
C 	C 	0.50830 0.19050 0.54840 -0.01400
C 	C 	0.92860 0.08330 0.64460 -0.01800
C 	C 	0.92870 0.03100 0.68440 -0.07000
C 	C 	0.86580 0.03180 0.73740 -0.01200
C 	C 	0.80370 0.08820 0.75130 -0.07200
C 	C 	0.80590 0.14140 0.71220 -0.00500
C 	C 	0.86670 0.13840 0.65920 -0.06200
C 	C 	0.73350 0.08890 0.80840 0.26400
C 	C 	0.11970 0.80840 0.96670 -0.06100
C 	C 	0.00830 0.80950 0.95160 -0.00600
C 	C 	0.42860 0.91670 0.85540 -0.01700
C 	C 	0.42870 0.96900 0.81560 -0.07100
C 	C 	0.36580 0.96820 0.76260 -0.00900
C 	C 	0.30370 0.91180 0.74870 -0.07300
C 	C 	0.30590 0.85860 0.78780 -0.00400
C 	C 	0.36670 0.86160 0.84080 -0.06300
C 	C 	0.23350 0.91110 0.69160 0.26400
C 	C 	0.38030 0.69160 0.46670 -0.05600
C 	C 	0.49170 0.69050 0.45160 -0.01400
C 	C 	0.07140 0.58330 0.35540 -0.01700
C 	C 	0.07130 0.53100 0.31560 -0.07300
C 	C 	0.13420 0.53180 0.26260 -0.01200
C 	C 	0.19630 0.58820 0.24870 -0.07300
C 	C 	0.19410 0.64140 0.28780 -0.00400
C 	C 	0.13330 0.63840 0.34080 -0.06300
C 	C 	0.26650 0.58890 0.19160 0.26400
C 	C 	0.88030 0.30840 0.03330 -0.06000
C 	C 	0.99170 0.30950 0.04840 -0.00800
C 	C 	0.57140 0.41670 0.14460 -0.01700
C 	C 	0.57130 0.46900 0.18440 -0.07300
C 	C 	0.63420 0.46820 0.23740 -0.01200
C 	C 	0.69630 0.41180 0.25130 -0.07300
C 	C 	0.69410 0.35860 0.21220 -0.00400
C 	C 	0.63330 0.36160 0.15920 -0.06300
C 	C 	0.76650 0.41110 0.30840 0.26400
C 	C 	0.32070 0.75000 0.47610 -0.02500
C 	C 	0.54730 0.75000 0.44510 -0.08700
C 	C 	0.66980 0.75000 0.43530 0.26100
C 	C 	0.82070 0.25000 0.02390 -0.02100
C 	C 	0.04730 0.25000 0.05490 -0.09300
C 	C 	0.16980 0.25000 0.06470 0.26300
C 	C 	0.67930 0.25000 0.52390 -0.02500
C 	C 	0.45270 0.25000 0.55490 -0.08700
C 	C 	0.33020 0.25000 0.56470 0.26100
C 	C 	0.17930 0.75000 0.97610 -0.02100
C 	C 	0.95270 0.75000 0.94510 -0.09300
C 	C 	0.83020 0.75000 0.93530 0.26300
O 	O 	0.00140 0.89520 0.59570 -0.18700
O 	O 	0.16520 0.81110 0.54260 -0.20400
O 	O 	0.72410 0.80400 0.43370 -0.24300
O 	O 	0.09150 0.93670 0.47340 -0.22200
O 	O 	0.91250 0.97620 0.42420 -0.21500
O 	O 	0.94240 0.85890 0.44100 -0.20600
O 	O 	0.28480 0.85820 0.16320 -0.23900
O 	O 	0.30260 0.96450 0.17000 -0.21500
O 	O 	0.50140 0.10480 0.90430 -0.18900
O 	O 	0.66520 0.18890 0.95740 -0.20400
O 	O 	0.22410 0.19600 0.06630 -0.24300
O 	O 	0.59150 0.06330 0.02660 -0.22100
O 	O 	0.41250 0.02380 0.07580 -0.21200
O 	O 	0.44240 0.14110 0.05900 -0.20300
O 	O 	0.78480 0.14180 0.33680 -0.23800
O 	O 	0.80260 0.03550 0.33000 -0.21300
O 	O 	0.99860 0.39520 0.40430 -0.18800
O 	O 	0.83480 0.31110 0.45740 -0.20400
O 	O 	0.27590 0.30400 0.56630 -0.24300
O 	O 	0.90850 0.43670 0.52660 -0.22200
O 	O 	0.08750 0.47620 0.57580 -0.21300
O 	O 	0.05760 0.35890 0.55900 -0.20400
O 	O 	0.71520 0.35820 0.83680 -0.23900
O 	O 	0.69740 0.46450 0.83000 -0.21400
O 	O 	0.49860 0.60480 0.09570 -0.18800
O 	O 	0.33480 0.68890 0.04260 -0.20400
O 	O 	0.77590 0.69600 0.93370 -0.24300
O 	O 	0.40850 0.56330 0.97340 -0.22200
O 	O 	0.58750 0.52380 0.92420 -0.21300
O 	O 	0.55760 0.64110 0.94100 -0.20400
O 	O 	0.21520 0.64180 0.66320 -0.23900
O 	O 	0.19740 0.53550 0.67000 -0.21400
O 	O 	0.99860 0.10480 0.40430 -0.18700
O 	O 	0.83480 0.18890 0.45740 -0.20400
O 	O 	0.27590 0.19600 0.56630 -0.24300
O 	O 	0.90850 0.06330 0.52660 -0.22200
O 	O 	0.08750 0.02380 0.57580 -0.21500
O 	O 	0.05760 0.14110 0.55900 -0.20600
O 	O 	0.71520 0.14180 0.83680 -0.23900
O 	O 	0.69740 0.03550 0.83000 -0.21500
O 	O 	0.49860 0.89520 0.09570 -0.18900
O 	O 	0.33480 0.81110 0.04260 -0.20400
O 	O 	0.77590 0.80400 0.93370 -0.24300
O 	O 	0.40850 0.93670 0.97340 -0.22100
O 	O 	0.58750 0.97620 0.92420 -0.21200
O 	O 	0.55760 0.85890 0.94100 -0.20300
O 	O 	0.21520 0.85820 0.66320 -0.23800
O 	O 	0.19740 0.96450 0.67000 -0.21300
O 	O 	0.00140 0.60480 0.59570 -0.18800
O 	O 	0.16520 0.68890 0.54260 -0.20400
O 	O 	0.72410 0.69600 0.43370 -0.24300
O 	O 	0.09150 0.56330 0.47340 -0.22200
O 	O 	0.91250 0.52380 0.42420 -0.21300
O 	O 	0.94240 0.64110 0.44100 -0.20400
O 	O 	0.28480 0.64180 0.16320 -0.23900
O 	O 	0.30260 0.53550 0.17000 -0.21400
O 	O 	0.50140 0.39520 0.90430 -0.18800
O 	O 	0.66520 0.31110 0.95740 -0.20400
O 	O 	0.22410 0.30400 0.06630 -0.24300
O 	O 	0.59150 0.43670 0.02660 -0.22200
O 	O 	0.41250 0.47620 0.07580 -0.21300
O 	O 	0.44240 0.35890 0.05900 -0.20400
O 	O 	0.78480 0.35820 0.33680 -0.23900
O 	O 	0.80260 0.46450 0.33000 -0.21400
O 	O 	0.89250 0.75000 0.52080 -0.17800
O 	O 	0.10210 0.75000 0.45020 -0.18800
O 	O 	0.39250 0.25000 0.97920 -0.17900
O 	O 	0.60210 0.25000 0.04980 -0.18800
O 	O 	0.10750 0.25000 0.47920 -0.17800
O 	O 	0.89790 0.25000 0.54980 -0.18800
O 	O 	0.60750 0.75000 0.02080 -0.17900
O 	O 	0.39790 0.75000 0.95020 -0.18800
