data_crystal

_cell_length_a 23.94100
_cell_length_b 18.79400
_cell_length_c 19.89700
_cell_angle_alpha 90.00000
_cell_angle_beta  124.96000
_cell_angle_gamma 90.00000

_symmetry_space_group_name_	'P 1'
_symmetry_space_group_name_H-M	'P 1'

loop_
_symmetry_equiv_pos_as_xyz
  x,y,z

loop_
_atom_site_label
_atom_site_type_symbol
_atom_site_fract_x
_atom_site_fract_y
_atom_site_fract_z
_atom_site_charge
Cu	Cu	0.71663 0.71518 0.52459 0.90700
C 	C 	0.85910 0.72770 0.63570 0.33800
N 	N 	0.10980 0.72490 0.80570 -0.18800
O 	O 	0.04930 0.57100 0.96310 -0.41500
C 	C 	0.92700 0.71040 0.71520 -0.03500
O 	O 	0.93680 0.57150 0.88810 -0.40100
C 	C 	0.92870 0.66570 0.77460 -0.01800
H 	H 	0.88750 0.64870 0.76520 0.06000
O 	O 	0.80620 0.70170 0.62730 -0.40000
C 	C 	0.99140 0.64730 0.84650 -0.04200
O 	O 	0.86050 0.76080 0.58260 -0.41100
C 	C 	0.99340 0.59470 0.90610 0.34500
O 	O 	0.09020 0.67850 0.68570 -0.19400
C 	C 	0.05040 0.67070 0.85660 -0.09400
H 	H 	0.09290 0.65990 0.90640 0.09100
O 	O 	0.16060 0.78870 0.92590 -0.21100
C 	C 	0.05020 0.70850 0.79830 0.14700
C 	C 	0.98800 0.73030 0.72670 -0.09200
H 	H 	0.98760 0.75820 0.68670 0.09300
C 	C 	0.12610 0.71380 0.75220 0.19600
C 	C 	0.19340 0.74110 0.78140 -0.00800
C 	C 	0.23350 0.73960 0.75020 -0.04000
H 	H 	0.21940 0.71520 0.70100 0.06600
C 	C 	0.29550 0.77650 0.79680 -0.01500
H 	H 	0.32350 0.77760 0.77730 0.05100
C 	C 	0.31840 0.81180 0.86990 -0.05400
H 	H 	0.36150 0.83480 0.90100 0.06300
C 	C 	0.27460 0.81150 0.89520 0.00100
H 	H 	0.28820 0.83710 0.94350 0.05200
C 	C 	0.21130 0.77550 0.85340 -0.05100
C 	C 	0.16010 0.76790 0.86830 0.22300
C 	C 	0.73240 0.86650 0.55130 0.31200
O 	O 	0.70950 0.80900 0.56140 -0.38900
O 	O 	0.76450 0.86900 0.51740 -0.38400
C 	C 	0.71340 0.93510 0.57190 -0.01900
C 	C 	0.67380 0.93440 0.59980 -0.07900
H 	H 	0.66130 0.89050 0.61120 0.09600
H 	H 	0.44530 0.98950 0.75030 -0.06700
C 	C 	0.60920 0.97630 0.70320 0.18000
C 	C 	0.52890 0.97540 0.74690 0.51600
H 	H 	0.55870 0.94820 0.79500 -0.11800
C 	C 	0.41860 0.03370 0.64750 0.08500
H 	H 	0.37340 0.04650 0.62840 0.00600
C 	C 	0.44430 0.05860 0.60440 -0.11900
H 	H 	0.41870 0.08810 0.55730 0.09600
C 	C 	0.50450 0.03740 0.62460 0.09900
O 	O 	0.66310 0.94490 0.75260 -0.16600
O 	O 	0.98200 0.42550 0.47380 -0.11200
C 	C 	0.54560 0.04280 0.59190 0.10000
Cu	Cu	0.21663 0.21518 0.52459 0.90800
C 	C 	0.35910 0.22770 0.63570 0.34000
N 	N 	0.60980 0.22490 0.80570 -0.18800
O 	O 	0.54930 0.07100 0.96310 -0.42300
C 	C 	0.42700 0.21040 0.71520 -0.03500
O 	O 	0.43680 0.07150 0.88810 -0.40500
C 	C 	0.42870 0.16570 0.77460 -0.01600
H 	H 	0.38750 0.14870 0.76520 0.05800
O 	O 	0.30620 0.20170 0.62730 -0.40000
C 	C 	0.49140 0.14730 0.84650 -0.04200
O 	O 	0.36050 0.26080 0.58260 -0.41200
C 	C 	0.49340 0.09470 0.90610 0.34900
O 	O 	0.59020 0.17850 0.68570 -0.19000
C 	C 	0.55040 0.17070 0.85660 -0.09800
H 	H 	0.59290 0.15990 0.90640 0.08900
O 	O 	0.66060 0.28870 0.92590 -0.21400
C 	C 	0.55020 0.20850 0.79830 0.14600
C 	C 	0.48800 0.23030 0.72670 -0.08600
H 	H 	0.48760 0.25820 0.68670 0.09100
C 	C 	0.62610 0.21380 0.75220 0.19400
C 	C 	0.69340 0.24110 0.78140 -0.00800
C 	C 	0.73350 0.23960 0.75020 -0.04200
H 	H 	0.71940 0.21520 0.70100 0.06600
C 	C 	0.79550 0.27650 0.79680 -0.01500
H 	H 	0.82350 0.27760 0.77730 0.05000
C 	C 	0.81840 0.31180 0.86990 -0.05600
H 	H 	0.86150 0.33480 0.90100 0.06200
C 	C 	0.77460 0.31150 0.89520 0.00100
H 	H 	0.78820 0.33710 0.94350 0.04900
C 	C 	0.71130 0.27550 0.85340 -0.05300
C 	C 	0.66010 0.26790 0.86830 0.22300
C 	C 	0.23240 0.36650 0.55130 0.31400
O 	O 	0.20950 0.30900 0.56140 -0.39000
O 	O 	0.26450 0.36900 0.51740 -0.38800
C 	C 	0.21340 0.43510 0.57190 -0.03000
C 	C 	0.17380 0.43440 0.59980 -0.09000
H 	H 	0.16130 0.39050 0.61120 0.09900
H 	H 	0.94530 0.48950 0.75030 0.02700
C 	C 	0.10920 0.47630 0.70320 0.12800
C 	C 	0.02890 0.47540 0.74690 -0.00800
H 	H 	0.05870 0.44820 0.79500 0.05300
C 	C 	0.91860 0.53370 0.64750 -0.01700
H 	H 	0.87340 0.54650 0.62840 0.04400
C 	C 	0.94430 0.55860 0.60440 -0.04700
H 	H 	0.91870 0.58810 0.55730 0.07200
C 	C 	0.00450 0.53740 0.62460 0.01400
O 	O 	0.16310 0.44490 0.75260 -0.15600
O 	O 	0.48200 0.92550 0.47380 -0.11500
C 	C 	0.04560 0.54280 0.59190 0.12800
Cu	Cu	0.28337 0.71518 0.47541 0.90800
C 	C 	0.14090 0.72770 0.36430 0.33900
N 	N 	0.89020 0.72490 0.19430 -0.18800
O 	O 	0.95070 0.57100 0.03690 -0.41500
C 	C 	0.07300 0.71040 0.28480 -0.03500
O 	O 	0.06320 0.57150 0.11190 -0.40100
C 	C 	0.07130 0.66570 0.22540 -0.01800
H 	H 	0.11250 0.64870 0.23480 0.06000
O 	O 	0.19380 0.70170 0.37270 -0.40000
C 	C 	0.00860 0.64730 0.15350 -0.04200
O 	O 	0.13950 0.76080 0.41740 -0.41100
C 	C 	0.00660 0.59470 0.09390 0.34500
O 	O 	0.90980 0.67850 0.31430 -0.19400
C 	C 	0.94960 0.67070 0.14340 -0.09400
H 	H 	0.90710 0.65990 0.09360 0.09100
O 	O 	0.83940 0.78870 0.07410 -0.21100
C 	C 	0.94980 0.70850 0.20170 0.14700
C 	C 	0.01200 0.73030 0.27330 -0.09200
H 	H 	0.01240 0.75820 0.31330 0.09300
C 	C 	0.87390 0.71380 0.24780 0.19600
C 	C 	0.80660 0.74110 0.21860 -0.00800
C 	C 	0.76650 0.73960 0.24980 -0.04000
H 	H 	0.78060 0.71520 0.29900 0.06600
C 	C 	0.70450 0.77650 0.20320 -0.01500
H 	H 	0.67650 0.77760 0.22270 0.05100
C 	C 	0.68160 0.81180 0.13010 -0.05400
H 	H 	0.63850 0.83480 0.09900 0.06300
C 	C 	0.72540 0.81150 0.10480 0.00100
H 	H 	0.71180 0.83710 0.05650 0.05200
C 	C 	0.78870 0.77550 0.14660 -0.05100
C 	C 	0.83990 0.76790 0.13170 0.22300
C 	C 	0.26760 0.86650 0.44870 0.31200
O 	O 	0.29050 0.80900 0.43860 -0.38900
O 	O 	0.23550 0.86900 0.48260 -0.38400
C 	C 	0.28660 0.93510 0.42810 -0.01900
C 	C 	0.32620 0.93440 0.40020 -0.07900
H 	H 	0.33870 0.89050 0.38880 0.09600
H 	H 	0.55470 0.98950 0.24970 -0.06700
C 	C 	0.39080 0.97630 0.29680 0.18000
C 	C 	0.47110 0.97540 0.25310 0.51600
H 	H 	0.44130 0.94820 0.20500 -0.11800
C 	C 	0.58140 0.03370 0.35250 0.08500
H 	H 	0.62660 0.04650 0.37160 0.00600
C 	C 	0.55570 0.05860 0.39560 -0.11900
H 	H 	0.58130 0.08810 0.44270 0.09600
C 	C 	0.49550 0.03740 0.37540 0.09900
O 	O 	0.33690 0.94490 0.24740 -0.16600
O 	O 	0.01800 0.42550 0.52620 -0.11200
C 	C 	0.45440 0.04280 0.40810 0.10000
Cu	Cu	0.78337 0.21518 0.47541 0.90800
C 	C 	0.64090 0.22770 0.36430 0.34000
N 	N 	0.39020 0.22490 0.19430 -0.18800
O 	O 	0.45070 0.07100 0.03690 -0.42300
C 	C 	0.57300 0.21040 0.28480 -0.03500
O 	O 	0.56320 0.07150 0.11190 -0.40500
C 	C 	0.57130 0.16570 0.22540 -0.01600
H 	H 	0.61250 0.14870 0.23480 0.05800
O 	O 	0.69380 0.20170 0.37270 -0.40000
C 	C 	0.50860 0.14730 0.15350 -0.04200
O 	O 	0.63950 0.26080 0.41740 -0.41200
C 	C 	0.50660 0.09470 0.09390 0.34900
O 	O 	0.40980 0.17850 0.31430 -0.19000
C 	C 	0.44960 0.17070 0.14340 -0.09800
H 	H 	0.40710 0.15990 0.09360 0.08900
O 	O 	0.33940 0.28870 0.07410 -0.21400
C 	C 	0.44980 0.20850 0.20170 0.14600
C 	C 	0.51200 0.23030 0.27330 -0.08600
H 	H 	0.51240 0.25820 0.31330 0.09100
C 	C 	0.37390 0.21380 0.24780 0.19400
C 	C 	0.30660 0.24110 0.21860 -0.00800
C 	C 	0.26650 0.23960 0.24980 -0.04200
H 	H 	0.28060 0.21520 0.29900 0.06600
C 	C 	0.20450 0.27650 0.20320 -0.01500
H 	H 	0.17650 0.27760 0.22270 0.05000
C 	C 	0.18160 0.31180 0.13010 -0.05600
H 	H 	0.13850 0.33480 0.09900 0.06200
C 	C 	0.22540 0.31150 0.10480 0.00100
H 	H 	0.21180 0.33710 0.05650 0.04900
C 	C 	0.28870 0.27550 0.14660 -0.05300
C 	C 	0.33990 0.26790 0.13170 0.22300
C 	C 	0.76760 0.36650 0.44870 0.31400
O 	O 	0.79050 0.30900 0.43860 -0.39000
O 	O 	0.73550 0.36900 0.48260 -0.38800
C 	C 	0.78660 0.43510 0.42810 -0.03000
C 	C 	0.82620 0.43440 0.40020 -0.09000
H 	H 	0.83870 0.39050 0.38880 0.09900
H 	H 	0.05470 0.48950 0.24970 0.02700
C 	C 	0.89080 0.47630 0.29680 0.12800
C 	C 	0.97110 0.47540 0.25310 -0.00800
H 	H 	0.94130 0.44820 0.20500 0.05300
C 	C 	0.08140 0.53370 0.35250 -0.01700
H 	H 	0.12660 0.54650 0.37160 0.04400
C 	C 	0.05570 0.55860 0.39560 -0.04700
H 	H 	0.08130 0.58810 0.44270 0.07200
C 	C 	0.99550 0.53740 0.37540 0.01400
O 	O 	0.83690 0.44490 0.24740 -0.15600
O 	O 	0.51800 0.92550 0.52620 -0.11500
C 	C 	0.95440 0.54280 0.40810 0.12800
Cu	Cu	0.28337 0.28482 0.47541 0.90800
C 	C 	0.14090 0.27230 0.36430 0.33900
N 	N 	0.89020 0.27510 0.19430 -0.18800
O 	O 	0.95070 0.42900 0.03690 -0.41500
C 	C 	0.07300 0.28960 0.28480 -0.03600
O 	O 	0.06320 0.42850 0.11190 -0.40100
C 	C 	0.07130 0.33430 0.22540 -0.01800
H 	H 	0.11250 0.35130 0.23480 0.06000
O 	O 	0.19380 0.29830 0.37270 -0.40000
C 	C 	0.00860 0.35270 0.15350 -0.04300
O 	O 	0.13950 0.23920 0.41740 -0.41300
C 	C 	0.00660 0.40530 0.09390 0.34500
O 	O 	0.90980 0.32150 0.31430 -0.19400
C 	C 	0.94960 0.32930 0.14340 -0.09400
H 	H 	0.90710 0.34010 0.09360 0.09100
O 	O 	0.83940 0.21130 0.07410 -0.21400
C 	C 	0.94980 0.29150 0.20170 0.14600
C 	C 	0.01200 0.26970 0.27330 -0.09200
H 	H 	0.01240 0.24180 0.31330 0.09100
C 	C 	0.87390 0.28620 0.24780 0.19500
C 	C 	0.80660 0.25890 0.21860 -0.00800
C 	C 	0.76650 0.26040 0.24980 -0.04200
H 	H 	0.78060 0.28480 0.29900 0.06600
C 	C 	0.70450 0.22350 0.20320 -0.01500
H 	H 	0.67650 0.22240 0.22270 0.05100
C 	C 	0.68160 0.18820 0.13010 -0.05700
H 	H 	0.63850 0.16520 0.09900 0.06300
C 	C 	0.72540 0.18850 0.10480 0.00200
H 	H 	0.71180 0.16290 0.05650 0.04900
C 	C 	0.78870 0.22450 0.14660 -0.05300
C 	C 	0.83990 0.23210 0.13170 0.22300
C 	C 	0.26760 0.13350 0.44870 0.31300
O 	O 	0.29050 0.19100 0.43860 -0.39000
O 	O 	0.23550 0.13100 0.48260 -0.38800
C 	C 	0.28660 0.06490 0.42810 -0.02900
C 	C 	0.32620 0.06560 0.40020 -0.09000
H 	H 	0.33870 0.10950 0.38880 0.09900
H 	H 	0.55470 0.01050 0.24970 0.14800
C 	C 	0.39080 0.02370 0.29680 0.10200
C 	C 	0.47110 0.02460 0.25310 -0.47000
H 	H 	0.44130 0.05180 0.20500 0.20200
C 	C 	0.58140 0.96630 0.35250 -0.05100
H 	H 	0.62660 0.95350 0.37160 0.05900
C 	C 	0.55570 0.94140 0.39560 -0.02600
H 	H 	0.58130 0.91190 0.44270 0.06500
C 	C 	0.49550 0.96260 0.37540 -0.02200
O 	O 	0.33690 0.05510 0.24740 -0.15200
O 	O 	0.01800 0.57450 0.52620 -0.11200
C 	C 	0.45440 0.95720 0.40810 0.14800
Cu	Cu	0.78337 0.78482 0.47541 0.90800
C 	C 	0.64090 0.77230 0.36430 0.33900
N 	N 	0.39020 0.77510 0.19430 -0.18800
O 	O 	0.45070 0.92900 0.03690 -0.41400
C 	C 	0.57300 0.78960 0.28480 -0.03600
O 	O 	0.56320 0.92850 0.11190 -0.39600
C 	C 	0.57130 0.83430 0.22540 -0.01900
H 	H 	0.61250 0.85130 0.23480 0.06200
O 	O 	0.69380 0.79830 0.37270 -0.39900
C 	C 	0.50860 0.85270 0.15350 -0.03800
O 	O 	0.63950 0.73920 0.41740 -0.41200
C 	C 	0.50660 0.90530 0.09390 0.34900
O 	O 	0.40980 0.82150 0.31430 -0.19700
C 	C 	0.44960 0.82930 0.14340 -0.09400
H 	H 	0.40710 0.84010 0.09360 0.09300
O 	O 	0.33940 0.71130 0.07410 -0.21400
C 	C 	0.44980 0.79150 0.20170 0.14500
C 	C 	0.51200 0.76970 0.27330 -0.09200
H 	H 	0.51240 0.74180 0.31330 0.09200
C 	C 	0.37390 0.78620 0.24780 0.19600
C 	C 	0.30660 0.75890 0.21860 -0.00800
C 	C 	0.26650 0.76040 0.24980 -0.04100
H 	H 	0.28060 0.78480 0.29900 0.06600
C 	C 	0.20450 0.72350 0.20320 -0.01400
H 	H 	0.17650 0.72240 0.22270 0.05100
C 	C 	0.18160 0.68820 0.13010 -0.05600
H 	H 	0.13850 0.66520 0.09900 0.06300
C 	C 	0.22540 0.68850 0.10480 0.00200
H 	H 	0.21180 0.66290 0.05650 0.04900
C 	C 	0.28870 0.72450 0.14660 -0.05300
C 	C 	0.33990 0.73210 0.13170 0.22400
C 	C 	0.76760 0.63350 0.44870 0.31400
O 	O 	0.79050 0.69100 0.43860 -0.39000
O 	O 	0.73550 0.63100 0.48260 -0.38800
C 	C 	0.78660 0.56490 0.42810 -0.03000
C 	C 	0.82620 0.56560 0.40020 -0.09000
H 	H 	0.83870 0.60950 0.38880 0.09900
H 	H 	0.05470 0.51050 0.24970 0.02700
C 	C 	0.89080 0.52370 0.29680 0.12900
C 	C 	0.97110 0.52460 0.25310 -0.00900
H 	H 	0.94130 0.55180 0.20500 0.05300
C 	C 	0.08140 0.46630 0.35250 -0.01700
H 	H 	0.12660 0.45350 0.37160 0.04400
C 	C 	0.05570 0.44140 0.39560 -0.04700
H 	H 	0.08130 0.41190 0.44270 0.07200
C 	C 	0.99550 0.46260 0.37540 0.01400
O 	O 	0.83690 0.55510 0.24740 -0.15600
O 	O 	0.51800 0.07450 0.52620 -0.10800
C 	C 	0.95440 0.45720 0.40810 0.12800
Cu	Cu	0.71663 0.28482 0.52459 0.90800
C 	C 	0.85910 0.27230 0.63570 0.33900
N 	N 	0.10980 0.27510 0.80570 -0.18800
O 	O 	0.04930 0.42900 0.96310 -0.41500
C 	C 	0.92700 0.28960 0.71520 -0.03600
O 	O 	0.93680 0.42850 0.88810 -0.40100
C 	C 	0.92870 0.33430 0.77460 -0.01800
H 	H 	0.88750 0.35130 0.76520 0.06000
O 	O 	0.80620 0.29830 0.62730 -0.40000
C 	C 	0.99140 0.35270 0.84650 -0.04300
O 	O 	0.86050 0.23920 0.58260 -0.41300
C 	C 	0.99340 0.40530 0.90610 0.34500
O 	O 	0.09020 0.32150 0.68570 -0.19400
C 	C 	0.05040 0.32930 0.85660 -0.09400
H 	H 	0.09290 0.34010 0.90640 0.09100
O 	O 	0.16060 0.21130 0.92590 -0.21400
C 	C 	0.05020 0.29150 0.79830 0.14600
C 	C 	0.98800 0.26970 0.72670 -0.09200
H 	H 	0.98760 0.24180 0.68670 0.09100
C 	C 	0.12610 0.28620 0.75220 0.19500
C 	C 	0.19340 0.25890 0.78140 -0.00800
C 	C 	0.23350 0.26040 0.75020 -0.04200
H 	H 	0.21940 0.28480 0.70100 0.06600
C 	C 	0.29550 0.22350 0.79680 -0.01500
H 	H 	0.32350 0.22240 0.77730 0.05100
C 	C 	0.31840 0.18820 0.86990 -0.05700
H 	H 	0.36150 0.16520 0.90100 0.06300
C 	C 	0.27460 0.18850 0.89520 0.00200
H 	H 	0.28820 0.16290 0.94350 0.04900
C 	C 	0.21130 0.22450 0.85340 -0.05300
C 	C 	0.16010 0.23210 0.86830 0.22300
C 	C 	0.73240 0.13350 0.55130 0.31300
O 	O 	0.70950 0.19100 0.56140 -0.39000
O 	O 	0.76450 0.13100 0.51740 -0.38800
C 	C 	0.71340 0.06490 0.57190 -0.02900
C 	C 	0.67380 0.06560 0.59980 -0.09000
H 	H 	0.66130 0.10950 0.61120 0.09900
H 	H 	0.44530 0.01050 0.75030 0.14800
C 	C 	0.60920 0.02370 0.70320 0.10200
C 	C 	0.52890 0.02460 0.74690 -0.47000
H 	H 	0.55870 0.05180 0.79500 0.20200
C 	C 	0.41860 0.96630 0.64750 -0.05100
H 	H 	0.37340 0.95350 0.62840 0.05900
C 	C 	0.44430 0.94140 0.60440 -0.02600
H 	H 	0.41870 0.91190 0.55730 0.06500
C 	C 	0.50450 0.96260 0.62460 -0.02200
O 	O 	0.66310 0.05510 0.75260 -0.15200
O 	O 	0.98200 0.57450 0.47380 -0.11200
C 	C 	0.54560 0.95720 0.59190 0.14800
Cu	Cu	0.21663 0.78482 0.52459 0.90800
C 	C 	0.35910 0.77230 0.63570 0.33900
N 	N 	0.60980 0.77510 0.80570 -0.18800
O 	O 	0.54930 0.92900 0.96310 -0.41400
C 	C 	0.42700 0.78960 0.71520 -0.03600
O 	O 	0.43680 0.92850 0.88810 -0.39600
C 	C 	0.42870 0.83430 0.77460 -0.01900
H 	H 	0.38750 0.85130 0.76520 0.06200
O 	O 	0.30620 0.79830 0.62730 -0.39900
C 	C 	0.49140 0.85270 0.84650 -0.03800
O 	O 	0.36050 0.73920 0.58260 -0.41200
C 	C 	0.49340 0.90530 0.90610 0.34900
O 	O 	0.59020 0.82150 0.68570 -0.19700
C 	C 	0.55040 0.82930 0.85660 -0.09400
H 	H 	0.59290 0.84010 0.90640 0.09300
O 	O 	0.66060 0.71130 0.92590 -0.21400
C 	C 	0.55020 0.79150 0.79830 0.14500
C 	C 	0.48800 0.76970 0.72670 -0.09200
H 	H 	0.48760 0.74180 0.68670 0.09200
C 	C 	0.62610 0.78620 0.75220 0.19600
C 	C 	0.69340 0.75890 0.78140 -0.00800
C 	C 	0.73350 0.76040 0.75020 -0.04100
H 	H 	0.71940 0.78480 0.70100 0.06600
C 	C 	0.79550 0.72350 0.79680 -0.01400
H 	H 	0.82350 0.72240 0.77730 0.05100
C 	C 	0.81840 0.68820 0.86990 -0.05600
H 	H 	0.86150 0.66520 0.90100 0.06300
C 	C 	0.77460 0.68850 0.89520 0.00200
H 	H 	0.78820 0.66290 0.94350 0.04900
C 	C 	0.71130 0.72450 0.85340 -0.05300
C 	C 	0.66010 0.73210 0.86830 0.22400
C 	C 	0.23240 0.63350 0.55130 0.31400
O 	O 	0.20950 0.69100 0.56140 -0.39000
O 	O 	0.26450 0.63100 0.51740 -0.38800
C 	C 	0.21340 0.56490 0.57190 -0.03000
C 	C 	0.17380 0.56560 0.59980 -0.09000
H 	H 	0.16130 0.60950 0.61120 0.09900
H 	H 	0.94530 0.51050 0.75030 0.02700
C 	C 	0.10920 0.52370 0.70320 0.12900
C 	C 	0.02890 0.52460 0.74690 -0.00900
H 	H 	0.05870 0.55180 0.79500 0.05300
C 	C 	0.91860 0.46630 0.64750 -0.01700
H 	H 	0.87340 0.45350 0.62840 0.04400
C 	C 	0.94430 0.44140 0.60440 -0.04700
H 	H 	0.91870 0.41190 0.55730 0.07200
C 	C 	0.00450 0.46260 0.62460 0.01400
O 	O 	0.16310 0.55510 0.75260 -0.15600
O 	O 	0.48200 0.07450 0.47380 -0.10800
C 	C 	0.04560 0.45720 0.59190 0.12800
Cu	Cu	0.06717 0.50000 0.04234 0.90800
Cu	Cu	0.56717 0.00000 0.04234 0.90400
Cu	Cu	0.93283 0.50000 0.95766 0.90800
Cu	Cu	0.43283 0.00000 0.95766 0.90400
N 	N 	0.60460 0.00000 0.63690 -0.19000
C 	C 	0.73480 0.00000 0.55650 -0.04200
H 	H 	0.76250 0.00000 0.53650 0.06900
C 	C 	0.65080 0.00000 0.61210 0.13200
C 	C 	0.54520 0.00000 0.69360 -0.11500
C 	C 	0.46270 0.00000 0.71890 -0.11800
N 	N 	0.10460 0.50000 0.63690 -0.18300
C 	C 	0.23480 0.50000 0.55650 -0.02600
H 	H 	0.26250 0.50000 0.53650 0.06800
C 	C 	0.15080 0.50000 0.61210 0.14500
C 	C 	0.04520 0.50000 0.69360 -0.05900
C 	C 	0.96270 0.50000 0.71890 -0.04100
N 	N 	0.39540 0.00000 0.36310 -0.19000
C 	C 	0.26520 0.00000 0.44350 -0.04200
H 	H 	0.23750 0.00000 0.46350 0.06900
C 	C 	0.34920 0.00000 0.38790 0.13200
C 	C 	0.45480 0.00000 0.30640 -0.11500
C 	C 	0.53730 0.00000 0.28110 -0.11800
N 	N 	0.89540 0.50000 0.36310 -0.18300
C 	C 	0.76520 0.50000 0.44350 -0.02600
H 	H 	0.73750 0.50000 0.46350 0.06800
C 	C 	0.84920 0.50000 0.38790 0.14500
C 	C 	0.95480 0.50000 0.30640 -0.05900
C 	C 	0.03730 0.50000 0.28110 -0.04100
