data_crystal

_cell_length_a 10.06690
_cell_length_b 10.35620
_cell_length_c 10.53800
_cell_angle_alpha 103.15800
_cell_angle_beta  115.52400
_cell_angle_gamma 92.54600

_symmetry_space_group_name_	'P 1'
_symmetry_space_group_name_H-M	'P 1'

loop_
_symmetry_equiv_pos_as_xyz
  x,y,z

loop_
_atom_site_label
_atom_site_type_symbol
_atom_site_fract_x
_atom_site_fract_y
_atom_site_fract_z
_atom_site_charge
Lu	Lu	0.47493 0.23375 0.00334 1.20700
O 	O 	0.37240 0.40260 0.09800 -0.34200
O 	O 	0.67880 0.41230 0.13780 -0.35700
O 	O 	0.39420 0.08850 0.08640 -0.38600
O 	O 	0.22320 0.26140 0.89830 -0.36600
C 	C 	0.11630 0.43260 0.99960 -0.10300
O 	O 	0.33040 0.86320 0.00090 -0.40000
C 	C 	0.71740 0.37480 0.24810 0.32000
O 	O 	0.63790 0.27550 0.25060 -0.34000
O 	O 	0.36190 0.05810 0.78560 -0.41800
H 	H 	0.31480 0.99320 0.81770 0.15500
H 	H 	0.47050 0.05080 0.82410 0.14200
C 	C 	0.29630 0.97760 0.03560 0.34200
C 	C 	0.11790 0.10110 0.09080 -0.08200
H 	H 	0.19780 0.16960 0.15370 0.07100
C 	C 	0.14340 0.99010 0.01690 -0.11000
C 	C 	0.96660 0.37420 0.90350 0.11200
C 	C 	0.86380 0.44080 0.38100 -0.10100
C 	C 	0.14790 0.55850 0.08800 -0.06600
H 	H 	0.24660 0.60080 0.14360 0.06500
C 	C 	0.02260 0.88160 0.92250 0.14000
C 	C 	0.94750 0.54140 0.37230 -0.08600
H 	H 	0.91330 0.57080 0.28830 0.08100
C 	C 	0.91270 0.39890 0.50750 0.13400
N 	N 	0.03790 0.76580 0.84100 -0.32300
H 	H 	0.96110 0.70530 0.78280 0.16200
H 	H 	0.12440 0.75330 0.84790 0.17800
N 	N 	0.93000 0.23800 0.80200 -0.31000
H 	H 	0.83790 0.20040 0.74880 0.14400
H 	H 	0.99970 0.19610 0.79650 0.17600
C 	C 	0.23700 0.36040 0.99300 0.33400
N 	N 	0.82550 0.29820 0.52320 -0.31900
H 	H 	0.73910 0.26080 0.45280 0.18600
H 	H 	0.85890 0.27450 0.60310 0.15900
Lu	Lu	0.52507 0.76625 0.99666 1.20800
O 	O 	0.62760 0.59740 0.90200 -0.34100
O 	O 	0.32120 0.58770 0.86220 -0.35700
O 	O 	0.60580 0.91150 0.91360 -0.38600
O 	O 	0.77680 0.73860 0.10170 -0.36600
C 	C 	0.88370 0.56740 0.00040 -0.10300
O 	O 	0.66960 0.13680 0.99910 -0.40000
C 	C 	0.28260 0.62520 0.75190 0.32000
O 	O 	0.36210 0.72450 0.74940 -0.34000
O 	O 	0.63810 0.94190 0.21440 -0.41800
H 	H 	0.68520 0.00680 0.18230 0.15500
H 	H 	0.52950 0.94920 0.17590 0.14200
C 	C 	0.70370 0.02240 0.96440 0.34200
C 	C 	0.88210 0.89890 0.90920 -0.08200
H 	H 	0.80220 0.83040 0.84630 0.07100
C 	C 	0.85660 0.00990 0.98310 -0.11000
C 	C 	0.03340 0.62580 0.09650 0.11200
C 	C 	0.13620 0.55920 0.61900 -0.10100
C 	C 	0.85210 0.44150 0.91200 -0.06600
H 	H 	0.75340 0.39920 0.85640 0.06500
C 	C 	0.97740 0.11840 0.07750 0.14000
C 	C 	0.05250 0.45860 0.62770 -0.08600
H 	H 	0.08670 0.42920 0.71170 0.08100
C 	C 	0.08730 0.60110 0.49250 0.13400
N 	N 	0.96210 0.23420 0.15900 -0.32300
H 	H 	0.03890 0.29470 0.21720 0.16200
H 	H 	0.87560 0.24670 0.15210 0.17800
N 	N 	0.07000 0.76200 0.19800 -0.31000
H 	H 	0.16210 0.79960 0.25120 0.14400
H 	H 	0.00030 0.80390 0.20350 0.17600
C 	C 	0.76300 0.63960 0.00700 0.33400
N 	N 	0.17450 0.70180 0.47680 -0.31900
H 	H 	0.26090 0.73920 0.54720 0.18600
H 	H 	0.14110 0.72550 0.39690 0.15900
