data_crystal

_cell_length_a 10.69940
_cell_length_b 12.19610
_cell_length_c 13.67730
_cell_angle_alpha 90.00000
_cell_angle_beta  90.00000
_cell_angle_gamma 101.57400

_symmetry_space_group_name_	'P 1'
_symmetry_space_group_name_H-M	'P 1'

loop_
_symmetry_equiv_pos_as_xyz
  x,y,z

loop_
_atom_site_label
_atom_site_type_symbol
_atom_site_fract_x
_atom_site_fract_y
_atom_site_fract_z
_atom_site_charge
Ce	Ce	0.37694 0.60434 0.96391 2.10400
Ce	Ce	0.12306 0.89566 0.46391 2.10300
Ce	Ce	0.62306 0.39566 0.03609 2.10400
Ce	Ce	0.87694 0.10434 0.53609 2.10300
H 	H 	0.07150 0.39040 0.06910 0.00800
H 	H 	0.87900 0.17360 0.26220 -0.02900
H 	H 	0.24330 0.16660 0.19820 0.00800
H 	H 	0.42850 0.10960 0.56910 0.00800
H 	H 	0.62100 0.32640 0.76220 -0.02800
H 	H 	0.25670 0.33340 0.69820 0.00800
H 	H 	0.92850 0.60960 0.93090 0.00800
H 	H 	0.12100 0.82640 0.73780 -0.02900
H 	H 	0.75670 0.83340 0.80180 0.00800
H 	H 	0.57150 0.89040 0.43090 0.00800
H 	H 	0.37900 0.67360 0.23780 -0.02800
H 	H 	0.74330 0.66660 0.30180 0.00800
C 	C 	0.30070 0.34160 0.07600 0.43600
C 	C 	0.17820 0.28670 0.12760 -0.18700
C 	C 	0.06870 0.33050 0.11180 0.09000
C 	C 	0.95520 0.28470 0.15970 -0.15800
C 	C 	0.95310 0.20060 0.22700 0.10000
C 	C 	0.06120 0.15540 0.24290 -0.20200
C 	C 	0.17200 0.19860 0.19030 0.12100
C 	C 	0.06070 0.06320 0.31540 0.43200
C 	C 	0.83860 0.33100 0.13420 0.31500
C 	C 	0.19930 0.15840 0.57600 0.43600
C 	C 	0.32180 0.21330 0.62760 -0.18600
C 	C 	0.43130 0.16950 0.61180 0.08800
C 	C 	0.54480 0.21530 0.65970 -0.15600
C 	C 	0.54690 0.29940 0.72700 0.10200
C 	C 	0.43880 0.34460 0.74290 -0.20300
C 	C 	0.32800 0.30140 0.69030 0.12100
C 	C 	0.43930 0.43680 0.81540 0.42800
C 	C 	0.66140 0.16900 0.63420 0.31500
C 	C 	0.69930 0.65840 0.92400 0.43600
C 	C 	0.82180 0.71330 0.87240 -0.18700
C 	C 	0.93130 0.66950 0.88820 0.09000
C 	C 	0.04480 0.71530 0.84030 -0.15800
C 	C 	0.04690 0.79940 0.77300 0.10000
C 	C 	0.93880 0.84460 0.75710 -0.20200
C 	C 	0.82800 0.80140 0.80970 0.12100
C 	C 	0.93930 0.93680 0.68460 0.43200
C 	C 	0.16140 0.66900 0.86580 0.31500
C 	C 	0.80070 0.84160 0.42400 0.43600
C 	C 	0.67820 0.78670 0.37240 -0.18600
C 	C 	0.56870 0.83050 0.38820 0.08800
C 	C 	0.45520 0.78470 0.34030 -0.15600
C 	C 	0.45310 0.70060 0.27300 0.10200
C 	C 	0.56120 0.65540 0.25710 -0.20300
C 	C 	0.67200 0.69860 0.30970 0.12100
C 	C 	0.56070 0.56320 0.18460 0.42800
C 	C 	0.33860 0.83100 0.36580 0.31500
O 	O 	0.28960 0.41170 0.01100 -0.53400
O 	O 	0.40220 0.31330 0.09990 -0.51400
O 	O 	0.85220 0.42770 0.10090 -0.43700
O 	O 	0.72890 0.26710 0.14280 -0.46000
O 	O 	0.98840 0.05850 0.39000 -0.62800
O 	O 	0.13350 0.99760 0.30270 -0.46700
O 	O 	0.21040 0.08830 0.51100 -0.53400
O 	O 	0.09780 0.18670 0.59990 -0.51400
O 	O 	0.64780 0.07230 0.60090 -0.43700
O 	O 	0.77110 0.23290 0.64280 -0.46000
O 	O 	0.51160 0.44150 0.89000 -0.62400
O 	O 	0.36650 0.50240 0.80270 -0.46500
O 	O 	0.71040 0.58830 0.98900 -0.53400
O 	O 	0.59780 0.68670 0.90010 -0.51400
O 	O 	0.14780 0.57230 0.89910 -0.43700
O 	O 	0.27110 0.73290 0.85720 -0.46000
O 	O 	0.01160 0.94150 0.61000 -0.62800
O 	O 	0.86650 0.00240 0.69730 -0.46700
O 	O 	0.78960 0.91170 0.48900 -0.53400
O 	O 	0.90220 0.81330 0.40010 -0.51400
O 	O 	0.35220 0.92770 0.39910 -0.43700
O 	O 	0.22890 0.76710 0.35720 -0.46000
O 	O 	0.48840 0.55850 0.11000 -0.62400
O 	O 	0.63350 0.49760 0.19730 -0.46500
