data_crystal

_cell_length_a 11.96200
_cell_length_b 11.31500
_cell_length_c 36.65600
_cell_angle_alpha 90.00000
_cell_angle_beta  90.00000
_cell_angle_gamma 90.00000

_symmetry_space_group_name_	'P 1'
_symmetry_space_group_name_H-M	'P 1'

loop_
_symmetry_equiv_pos_as_xyz
  x,y,z

loop_
_atom_site_label
_atom_site_type_symbol
_atom_site_fract_x
_atom_site_fract_y
_atom_site_fract_z
_atom_site_charge
Ag	Ag	0.12458 0.99744 0.47729 0.45600
C 	C 	0.10980 0.78850 0.41927 0.00800
H 	H 	0.04360 0.83150 0.41170 0.00200
H 	H 	0.17410 0.82510 0.40780 0.01200
C 	C 	0.00380 0.61080 0.42509 0.00800
H 	H 	0.93640 0.65220 0.41780 0.01700
H 	H 	0.99710 0.52930 0.41710 0.02000
C 	C 	0.02280 0.73710 0.47627 0.02000
H 	H 	0.02940 0.74030 0.50260 -0.01300
H 	H 	0.95540 0.77920 0.46940 -0.02000
C 	C 	0.22240 0.72970 0.47018 0.01000
H 	H 	0.28750 0.76630 0.45920 -0.00300
H 	H 	0.23120 0.73340 0.49650 -0.01000
C 	C 	0.11500 0.55200 0.47536 0.00700
H 	H 	0.10930 0.46990 0.46800 0.01300
H 	H 	0.12210 0.55400 0.50170 0.01100
C 	C 	0.20220 0.60180 0.41875 0.00700
H 	H 	0.19750 0.52020 0.41070 0.01100
H 	H 	0.26710 0.63720 0.40730 0.00800
N 	N 	0.12130 0.79670 0.45954 -0.16900
N 	N 	0.01320 0.61380 0.46479 -0.11600
N 	N 	0.10100 0.66540 0.40703 -0.11200
N 	N 	0.21650 0.60460 0.45873 -0.16400
Ag	Ag	0.37542 0.49744 0.47729 0.45500
C 	C 	0.39020 0.28850 0.41927 0.00700
H 	H 	0.45640 0.33150 0.41170 0.00200
H 	H 	0.32590 0.32510 0.40780 0.01100
C 	C 	0.49620 0.11080 0.42509 0.00800
H 	H 	0.56360 0.15220 0.41780 0.01700
H 	H 	0.50290 0.02930 0.41710 0.02000
C 	C 	0.47720 0.23710 0.47627 0.02000
H 	H 	0.47060 0.24030 0.50260 -0.01300
H 	H 	0.54460 0.27920 0.46940 -0.02000
C 	C 	0.27760 0.22970 0.47018 0.01000
H 	H 	0.21250 0.26630 0.45920 -0.00300
H 	H 	0.26880 0.23340 0.49650 -0.01000
C 	C 	0.38500 0.05200 0.47536 0.00700
H 	H 	0.39070 0.96990 0.46800 0.01300
H 	H 	0.37790 0.05400 0.50170 0.01100
C 	C 	0.29780 0.10180 0.41875 0.00700
H 	H 	0.30250 0.02020 0.41070 0.01200
H 	H 	0.23290 0.13720 0.40730 0.00800
N 	N 	0.37870 0.29670 0.45954 -0.16900
N 	N 	0.48680 0.11380 0.46479 -0.11600
N 	N 	0.39900 0.16540 0.40703 -0.11200
N 	N 	0.28350 0.10460 0.45873 -0.16400
Ag	Ag	0.62458 0.50256 0.52271 0.45500
C 	C 	0.60980 0.71150 0.58073 0.00700
H 	H 	0.54360 0.66850 0.58830 0.00200
H 	H 	0.67410 0.67490 0.59220 0.01100
C 	C 	0.50380 0.88920 0.57491 0.00800
H 	H 	0.43640 0.84780 0.58220 0.01700
H 	H 	0.49710 0.97070 0.58290 0.02000
C 	C 	0.52280 0.76290 0.52373 0.02000
H 	H 	0.52940 0.75970 0.49740 -0.01300
H 	H 	0.45540 0.72080 0.53060 -0.02000
C 	C 	0.72240 0.77030 0.52982 0.01000
H 	H 	0.78750 0.73370 0.54080 -0.00300
H 	H 	0.73120 0.76660 0.50350 -0.01000
C 	C 	0.61500 0.94800 0.52464 0.00700
H 	H 	0.60930 0.03010 0.53200 0.01300
H 	H 	0.62210 0.94600 0.49830 0.01100
C 	C 	0.70220 0.89820 0.58125 0.00700
H 	H 	0.69750 0.97980 0.58930 0.01200
H 	H 	0.76710 0.86280 0.59270 0.00800
N 	N 	0.62130 0.70330 0.54046 -0.16900
N 	N 	0.51320 0.88620 0.53521 -0.11600
N 	N 	0.60100 0.83460 0.59297 -0.11200
N 	N 	0.71650 0.89540 0.54127 -0.16400
Ag	Ag	0.87542 0.00256 0.52271 0.45500
C 	C 	0.89020 0.21150 0.58073 0.00700
H 	H 	0.95640 0.16850 0.58830 0.00100
H 	H 	0.82590 0.17490 0.59220 0.01100
C 	C 	0.99620 0.38920 0.57491 0.00800
H 	H 	0.06360 0.34780 0.58220 0.01700
H 	H 	0.00290 0.47070 0.58290 0.02000
C 	C 	0.97720 0.26290 0.52373 0.02000
H 	H 	0.97060 0.25970 0.49740 -0.01300
H 	H 	0.04460 0.22080 0.53060 -0.02000
C 	C 	0.77760 0.27030 0.52982 0.01000
H 	H 	0.71250 0.23370 0.54080 -0.00300
H 	H 	0.76880 0.26660 0.50350 -0.01000
C 	C 	0.88500 0.44800 0.52464 0.00700
H 	H 	0.89070 0.53010 0.53200 0.01300
H 	H 	0.87790 0.44600 0.49830 0.01100
C 	C 	0.79780 0.39820 0.58125 0.00700
H 	H 	0.80250 0.47980 0.58930 0.01100
H 	H 	0.73290 0.36280 0.59270 0.00800
N 	N 	0.87870 0.20330 0.54046 -0.16900
N 	N 	0.98680 0.38620 0.53521 -0.11600
N 	N 	0.89900 0.33460 0.59297 -0.11200
N 	N 	0.78350 0.39540 0.54127 -0.16400
Ag	Ag	0.37542 0.00256 0.97729 0.45500
C 	C 	0.39020 0.21150 0.91927 0.00700
H 	H 	0.45640 0.16850 0.91170 0.00100
H 	H 	0.32590 0.17490 0.90780 0.01100
C 	C 	0.49620 0.38920 0.92509 0.00800
H 	H 	0.56360 0.34780 0.91780 0.01700
H 	H 	0.50290 0.47070 0.91710 0.02000
C 	C 	0.47720 0.26290 0.97627 0.02000
H 	H 	0.47060 0.25970 0.00260 -0.01300
H 	H 	0.54460 0.22080 0.96940 -0.02000
C 	C 	0.27760 0.27030 0.97018 0.01000
H 	H 	0.21250 0.23370 0.95920 -0.00300
H 	H 	0.26880 0.26660 0.99650 -0.01000
C 	C 	0.38500 0.44800 0.97536 0.00600
H 	H 	0.39070 0.53010 0.96800 0.01300
H 	H 	0.37790 0.44600 0.00170 0.01200
C 	C 	0.29780 0.39820 0.91875 0.00700
H 	H 	0.30250 0.47980 0.91070 0.01100
H 	H 	0.23290 0.36280 0.90730 0.00800
N 	N 	0.37870 0.20330 0.95954 -0.16900
N 	N 	0.48680 0.38620 0.96479 -0.11600
N 	N 	0.39900 0.33460 0.90703 -0.11200
N 	N 	0.28350 0.39540 0.95873 -0.16400
Ag	Ag	0.12458 0.50256 0.97729 0.45500
C 	C 	0.10980 0.71150 0.91927 0.00700
H 	H 	0.04360 0.66850 0.91170 0.00100
H 	H 	0.17410 0.67490 0.90780 0.01100
C 	C 	0.00380 0.88920 0.92509 0.00800
H 	H 	0.93640 0.84780 0.91780 0.01700
H 	H 	0.99710 0.97070 0.91710 0.02000
C 	C 	0.02280 0.76290 0.97627 0.02000
H 	H 	0.02940 0.75970 0.00260 -0.01300
H 	H 	0.95540 0.72080 0.96940 -0.02000
C 	C 	0.22240 0.77030 0.97018 0.01000
H 	H 	0.28750 0.73370 0.95920 -0.00300
H 	H 	0.23120 0.76660 0.99650 -0.01000
C 	C 	0.11500 0.94800 0.97536 0.00800
H 	H 	0.10930 0.03010 0.96800 0.01200
H 	H 	0.12210 0.94600 0.00170 0.01100
C 	C 	0.20220 0.89820 0.91875 0.00700
H 	H 	0.19750 0.97980 0.91070 0.01200
H 	H 	0.26710 0.86280 0.90730 0.00800
N 	N 	0.12130 0.70330 0.95954 -0.16900
N 	N 	0.01320 0.88620 0.96479 -0.11700
N 	N 	0.10100 0.83460 0.90703 -0.11200
N 	N 	0.21650 0.89540 0.95873 -0.16400
Ag	Ag	0.87542 0.49744 0.02271 0.45500
C 	C 	0.89020 0.28850 0.08073 0.00700
H 	H 	0.95640 0.33150 0.08830 0.00100
H 	H 	0.82590 0.32510 0.09220 0.01100
C 	C 	0.99620 0.11080 0.07491 0.00800
H 	H 	0.06360 0.15220 0.08220 0.01700
H 	H 	0.00290 0.02930 0.08290 0.02000
C 	C 	0.97720 0.23710 0.02373 0.02000
H 	H 	0.97060 0.24030 0.99740 -0.01300
H 	H 	0.04460 0.27920 0.03060 -0.02000
C 	C 	0.77760 0.22970 0.02982 0.01000
H 	H 	0.71250 0.26630 0.04080 -0.00300
H 	H 	0.76880 0.23340 0.00350 -0.01000
C 	C 	0.88500 0.05200 0.02464 0.00800
H 	H 	0.89070 0.96990 0.03200 0.01200
H 	H 	0.87790 0.05400 0.99830 0.01100
C 	C 	0.79780 0.10180 0.08125 0.00700
H 	H 	0.80250 0.02020 0.08930 0.01200
H 	H 	0.73290 0.13720 0.09270 0.00800
N 	N 	0.87870 0.29670 0.04046 -0.16900
N 	N 	0.98680 0.11380 0.03521 -0.11700
N 	N 	0.89900 0.16540 0.09297 -0.11200
N 	N 	0.78350 0.10460 0.04127 -0.16400
Ag	Ag	0.62458 0.99744 0.02271 0.45500
C 	C 	0.60980 0.78850 0.08073 0.00700
H 	H 	0.54360 0.83150 0.08830 0.00100
H 	H 	0.67410 0.82510 0.09220 0.01100
C 	C 	0.50380 0.61080 0.07491 0.00800
H 	H 	0.43640 0.65220 0.08220 0.01700
H 	H 	0.49710 0.52930 0.08290 0.02000
C 	C 	0.52280 0.73710 0.02373 0.02000
H 	H 	0.52940 0.74030 0.99740 -0.01300
H 	H 	0.45540 0.77920 0.03060 -0.02000
C 	C 	0.72240 0.72970 0.02982 0.01000
H 	H 	0.78750 0.76630 0.04080 -0.00300
H 	H 	0.73120 0.73340 0.00350 -0.01000
C 	C 	0.61500 0.55200 0.02464 0.00600
H 	H 	0.60930 0.46990 0.03200 0.01300
H 	H 	0.62210 0.55400 0.99830 0.01200
C 	C 	0.70220 0.60180 0.08125 0.00700
H 	H 	0.69750 0.52020 0.08930 0.01100
H 	H 	0.76710 0.63720 0.09270 0.00800
N 	N 	0.62130 0.79670 0.04046 -0.16900
N 	N 	0.51320 0.61380 0.03521 -0.11600
N 	N 	0.60100 0.66540 0.09297 -0.11200
N 	N 	0.71650 0.60460 0.04127 -0.16400
