data_crystal

_cell_length_a 16.17030
_cell_length_b 15.10420
_cell_length_c 7.98580
_cell_angle_alpha 90.00000
_cell_angle_beta  92.84500
_cell_angle_gamma 90.00000

_symmetry_space_group_name_	'P 1'
_symmetry_space_group_name_H-M	'P 1'

loop_
_symmetry_equiv_pos_as_xyz
  x,y,z

loop_
_atom_site_label
_atom_site_type_symbol
_atom_site_fract_x
_atom_site_fract_y
_atom_site_fract_z
_atom_site_charge
Sm	Sm	0.95247 0.88364 0.04772 2.07600
Ag	Ag	0.47193 0.76177 0.60049 0.48100
C 	C 	0.83190 0.74910 0.29660 0.47000
C 	C 	0.74760 0.74990 0.36580 -0.15000
C 	C 	0.70800 0.82900 0.39070 -0.00800
H 	H 	0.73320 0.88220 0.36390 0.02200
C 	C 	0.63040 0.82900 0.45580 -0.01200
H 	H 	0.60420 0.88290 0.47260 -0.00800
C 	C 	0.63030 0.67780 0.46920 -0.01300
H 	H 	0.60370 0.62530 0.49480 -0.00500
C 	C 	0.70770 0.67300 0.40620 0.00400
H 	H 	0.73280 0.61840 0.39110 0.00800
C 	C 	0.86650 0.08310 0.13750 0.46600
C 	C 	0.78830 0.12430 0.19400 -0.13000
C 	C 	0.71770 0.07390 0.20210 -0.02500
H 	H 	0.71860 0.01430 0.17280 0.03200
C 	C 	0.64660 0.11140 0.25340 -0.01200
H 	H 	0.59910 0.07670 0.25660 -0.01300
C 	C 	0.71150 0.24550 0.29030 -0.00100
H 	H 	0.70960 0.30480 0.32160 0.00000
C 	C 	0.78430 0.21270 0.23760 -0.01900
H 	H 	0.83040 0.24900 0.23100 0.02800
O 	O 	0.85430 0.81567 0.21720 -0.54600
O 	O 	0.87650 0.68130 0.32200 -0.56900
O 	O 	0.86990 0.00050 0.13910 -0.52400
O 	O 	0.92360 0.13450 0.09410 -0.54200
O 	O 	0.94960 0.99873 0.83770 -0.66000
O 	O 	0.96360 0.11510 0.68440 -0.53000
N 	N 	0.59150 0.75400 0.49550 -0.19100
N 	N 	0.64270 0.19700 0.29950 -0.19500
C 	C 	0.92840 0.04210 0.70940 0.54800
C 	C 	0.86910 0.00290 0.57700 -0.18400
H 	H 	0.83800 0.04960 0.52210 0.06200
H 	H 	0.83180 0.96310 0.62930 -0.31200
H 	H 	0.89970 0.97120 0.49660 0.00300
C 	C 	0.85080 0.01570 0.60800 -0.41200
H 	H 	0.84960 0.95250 0.59530 0.51100
H 	H 	0.85060 0.04320 0.50000 0.12700
H 	H 	0.80310 0.03450 0.66560 0.17500
Sm	Sm	0.04753 0.38364 0.45228 2.13900
Ag	Ag	0.52807 0.26177 0.89951 0.48200
C 	C 	0.16810 0.24910 0.20340 0.47200
C 	C 	0.25240 0.24990 0.13420 -0.14300
C 	C 	0.29200 0.32900 0.10930 -0.00900
H 	H 	0.26680 0.38220 0.13610 0.02600
C 	C 	0.36960 0.32900 0.04420 -0.00900
H 	H 	0.39580 0.38290 0.02740 -0.00900
C 	C 	0.36970 0.17780 0.03080 -0.01000
H 	H 	0.39630 0.12530 0.00520 -0.00600
C 	C 	0.29230 0.17300 0.09380 0.00200
H 	H 	0.26720 0.11840 0.10890 0.01200
C 	C 	0.13350 0.58310 0.36250 0.47100
C 	C 	0.21170 0.62430 0.30600 -0.13400
C 	C 	0.28230 0.57390 0.29790 -0.02300
H 	H 	0.28140 0.51430 0.32720 0.03100
C 	C 	0.35340 0.61140 0.24660 -0.01400
H 	H 	0.40090 0.57670 0.24340 -0.01300
C 	C 	0.28850 0.74550 0.20970 -0.00300
H 	H 	0.29040 0.80480 0.17840 -0.00200
C 	C 	0.21570 0.71270 0.26240 -0.01800
H 	H 	0.16960 0.74900 0.26900 0.02800
O 	O 	0.14570 0.31567 0.28280 -0.54700
O 	O 	0.12350 0.18130 0.17800 -0.56400
O 	O 	0.13010 0.50050 0.36090 -0.53800
O 	O 	0.07640 0.63450 0.40590 -0.54900
O 	O 	0.05040 0.49873 0.66230 -0.67200
O 	O 	0.03640 0.61510 0.81560 -0.53700
N 	N 	0.40850 0.25400 0.00450 -0.19200
N 	N 	0.35730 0.69700 0.20050 -0.19600
C 	C 	0.07160 0.54210 0.79060 0.55100
C 	C 	0.13090 0.50290 0.92300 -0.19200
H 	H 	0.16200 0.54960 0.97790 0.04400
H 	H 	0.16820 0.46310 0.87070 -0.27200
H 	H 	0.10030 0.47120 0.00340 0.01100
C 	C 	0.14920 0.51570 0.89200 -0.41500
H 	H 	0.15040 0.45250 0.90470 0.47700
H 	H 	0.14940 0.54320 -0.00000 0.14700
H 	H 	0.19690 0.53450 0.83440 0.17200
Sm	Sm	0.04753 0.11636 0.95228 2.10700
Ag	Ag	0.52807 0.23823 0.39951 0.48100
C 	C 	0.16810 0.25090 0.70340 0.47300
C 	C 	0.25240 0.25010 0.63420 -0.14600
C 	C 	0.29200 0.17100 0.60930 -0.00700
H 	H 	0.26680 0.11780 0.63610 0.02300
C 	C 	0.36960 0.17100 0.54420 -0.01100
H 	H 	0.39580 0.11710 0.52740 -0.00800
C 	C 	0.36970 0.32220 0.53080 -0.01100
H 	H 	0.39630 0.37470 0.50520 -0.00500
C 	C 	0.29230 0.32700 0.59380 0.00300
H 	H 	0.26720 0.38160 0.60890 0.01100
C 	C 	0.13350 0.91690 0.86250 0.46600
C 	C 	0.21170 0.87570 0.80600 -0.12700
C 	C 	0.28230 0.92610 0.79790 -0.02500
H 	H 	0.28140 0.98570 0.82720 0.03500
C 	C 	0.35340 0.88860 0.74660 -0.01000
H 	H 	0.40090 0.92330 0.74340 -0.01200
C 	C 	0.28850 0.75450 0.70970 0.00100
H 	H 	0.29040 0.69520 0.67840 0.00100
C 	C 	0.21570 0.78730 0.76240 -0.01900
H 	H 	0.16960 0.75100 0.76900 0.03000
O 	O 	0.14570 0.18433 0.78280 -0.54700
O 	O 	0.12350 0.31870 0.67800 -0.56900
O 	O 	0.13010 0.99950 0.86090 -0.52400
O 	O 	0.07640 0.86550 0.90590 -0.53500
O 	O 	0.05040 0.00127 0.16230 -0.66600
O 	O 	0.03640 0.88490 0.31560 -0.53000
N 	N 	0.40850 0.24600 0.50450 -0.19100
N 	N 	0.35730 0.80300 0.70050 -0.19500
C 	C 	0.07160 0.95790 0.29060 0.54900
C 	C 	0.13090 0.99710 0.42300 -0.18500
H 	H 	0.16200 0.95040 0.47790 0.06200
H 	H 	0.16820 0.03690 0.37070 -0.31100
H 	H 	0.10030 0.02880 0.50340 0.00200
C 	C 	0.14920 0.98430 0.39200 -0.41300
H 	H 	0.15040 0.04750 0.40470 0.51000
H 	H 	0.14940 0.95680 0.50000 0.12800
H 	H 	0.19690 0.96550 0.33440 0.17300
Sm	Sm	0.95247 0.61636 0.54772 2.14300
Ag	Ag	0.47193 0.73823 0.10049 0.47500
C 	C 	0.83190 0.75090 0.79660 0.47200
C 	C 	0.74760 0.75010 0.86580 -0.13900
C 	C 	0.70800 0.67100 0.89070 -0.00900
H 	H 	0.73320 0.61780 0.86390 0.02900
C 	C 	0.63040 0.67100 0.95580 -0.00700
H 	H 	0.60420 0.61710 0.97260 -0.00600
C 	C 	0.63030 0.82220 0.96920 -0.00700
H 	H 	0.60370 0.87470 0.99480 -0.00200
C 	C 	0.70770 0.82700 0.90620 0.00200
H 	H 	0.73280 0.88160 0.89110 0.01500
C 	C 	0.86650 0.41690 0.63750 0.47200
C 	C 	0.78830 0.37570 0.69400 -0.13300
C 	C 	0.71770 0.42610 0.70210 -0.02200
H 	H 	0.71860 0.48570 0.67280 0.03100
C 	C 	0.64660 0.38860 0.75340 -0.01300
H 	H 	0.59910 0.42330 0.75660 -0.01200
C 	C 	0.71150 0.25450 0.79030 -0.00100
H 	H 	0.70960 0.19520 0.82160 0.00100
C 	C 	0.78430 0.28730 0.73760 -0.01700
H 	H 	0.83040 0.25100 0.73100 0.02900
O 	O 	0.85430 0.68433 0.71720 -0.54500
O 	O 	0.87650 0.81870 0.82200 -0.55600
O 	O 	0.86990 0.49950 0.63910 -0.53800
O 	O 	0.92360 0.36550 0.59410 -0.54800
O 	O 	0.94960 0.50127 0.33770 -0.67200
O 	O 	0.96360 0.38490 0.18440 -0.53900
N 	N 	0.59150 0.74600 0.99550 -0.18800
N 	N 	0.64270 0.30300 0.79950 -0.19400
C 	C 	0.92840 0.45790 0.20940 0.55000
C 	C 	0.86910 0.49710 0.07700 -0.24500
H 	H 	0.83800 0.45040 0.02210 0.06500
H 	H 	0.83180 0.53690 0.12930 -0.07000
H 	H 	0.89970 0.52880 0.99660 0.06500
C 	C 	0.85080 0.48430 0.10800 -0.36800
H 	H 	0.84960 0.54750 0.09530 0.27100
H 	H 	0.85060 0.45680 -0.00000 0.12300
H 	H 	0.80310 0.46550 0.16560 0.13000
