data_crystal

_cell_length_a 23.49390
_cell_length_b 23.49540
_cell_length_c 31.97240
_cell_angle_alpha 90.00000
_cell_angle_beta  90.00000
_cell_angle_gamma 90.00000

_symmetry_space_group_name_	'P 1'
_symmetry_space_group_name_H-M	'P 1'

loop_
_symmetry_equiv_pos_as_xyz
  x,y,z

loop_
_atom_site_label
_atom_site_type_symbol
_atom_site_fract_x
_atom_site_fract_y
_atom_site_fract_z
_atom_site_charge
O 	O 	0.46901 0.09070 0.76008 -0.42000
O 	O 	0.48221 0.06064 0.69547 -0.41300
O 	O 	0.09071 0.46928 0.76009 -0.42400
O 	O 	0.06053 0.48218 0.69505 -0.40700
C 	C 	0.46801 0.09864 0.72049 0.28300
N 	N 	0.49150 0.50410 0.56224 -0.14900
C 	C 	0.42675 0.42669 0.57532 -0.15700
C 	C 	0.44880 0.15612 0.70376 -0.04200
C 	C 	0.41064 0.26062 0.67391 -0.00300
C 	C 	0.41435 0.41494 0.53498 0.10300
C 	C 	0.42860 0.19620 0.73139 -0.01600
H 	H 	0.42830 0.18870 0.75990 0.06200
C 	C 	0.26056 0.41037 0.67403 -0.00400
C 	C 	0.38794 0.31538 0.65700 0.10300
C 	C 	0.39504 0.39488 0.60981 0.14200
C 	C 	0.31525 0.38749 0.65673 0.10500
C 	C 	0.33919 0.33916 0.67228 -0.17400
H 	H 	0.32130 0.32130 0.69460 0.09500
C 	C 	0.34448 0.41733 0.62529 -0.18800
H 	H 	0.33030 0.45150 0.61500 0.09700
C 	C 	0.19720 0.42840 0.73094 -0.01300
H 	H 	0.19040 0.42890 0.75960 0.06000
C 	C 	0.46738 0.46801 0.58890 0.09000
C 	C 	0.40808 0.24970 0.71579 -0.05700
H 	H 	0.39320 0.27660 0.73410 0.05400
C 	C 	0.24837 0.40700 0.71620 -0.05800
H 	H 	0.27430 0.39050 0.73450 0.05400
C 	C 	0.45170 0.16756 0.66157 -0.01400
H 	H 	0.46550 0.14020 0.64320 0.06100
C 	C 	0.43390 0.22020 0.64655 -0.05700
H 	H 	0.43750 0.22870 0.61820 0.05300
C 	C 	0.41790 0.34395 0.62525 -0.18600
H 	H 	0.45190 0.32950 0.61480 0.09700
C 	C 	0.21928 0.43440 0.64656 -0.05900
H 	H 	0.22720 0.43780 0.61820 0.05400
C 	C 	0.37367 0.37413 0.52128 -0.08600
H 	H 	0.35110 0.35150 0.53840 0.06600
C 	C 	0.16787 0.45240 0.66208 -0.01100
H 	H 	0.14070 0.46710 0.64390 0.06000
C 	C 	0.47986 0.48040 0.63120 -0.08200
H 	H 	0.46290 0.46410 0.65460 0.06400
C 	C 	0.09880 0.46797 0.72120 0.27700
C 	C 	0.15580 0.44911 0.70378 -0.04300
O 	O 	0.53099 0.90930 0.76008 -0.43900
O 	O 	0.51779 0.93936 0.69547 -0.43400
O 	O 	0.90929 0.53072 0.76009 -0.43900
O 	O 	0.93947 0.51782 0.69505 -0.42300
C 	C 	0.53199 0.90136 0.72049 0.28700
N 	N 	0.50850 0.49590 0.56224 -0.15200
C 	C 	0.57325 0.57331 0.57532 -0.15700
C 	C 	0.55120 0.84388 0.70376 -0.05300
C 	C 	0.58936 0.73938 0.67391 -0.00100
C 	C 	0.58565 0.58506 0.53498 0.10200
C 	C 	0.57140 0.80380 0.73139 -0.01300
H 	H 	0.57170 0.81130 0.75990 0.05400
C 	C 	0.73944 0.58963 0.67403 -0.00200
C 	C 	0.61206 0.68462 0.65700 0.09800
C 	C 	0.60496 0.60512 0.60981 0.13900
C 	C 	0.68475 0.61251 0.65673 0.09900
C 	C 	0.66081 0.66084 0.67228 -0.17000
H 	H 	0.67870 0.67870 0.69460 0.08900
C 	C 	0.65552 0.58267 0.62529 -0.18600
H 	H 	0.66970 0.54850 0.61500 0.09600
C 	C 	0.80280 0.57160 0.73094 -0.01100
H 	H 	0.80960 0.57110 0.75960 0.05300
C 	C 	0.53262 0.53199 0.58890 0.09100
C 	C 	0.59192 0.75030 0.71579 -0.06400
H 	H 	0.60680 0.72340 0.73410 0.05200
C 	C 	0.75163 0.59300 0.71620 -0.06400
H 	H 	0.72570 0.60950 0.73450 0.05200
C 	C 	0.54830 0.83244 0.66157 -0.01000
H 	H 	0.53450 0.85980 0.64320 0.05300
C 	C 	0.56610 0.77980 0.64655 -0.06400
H 	H 	0.56250 0.77130 0.61820 0.05200
C 	C 	0.58210 0.65605 0.62525 -0.18300
H 	H 	0.54810 0.67050 0.61480 0.09500
C 	C 	0.78072 0.56560 0.64656 -0.06500
H 	H 	0.77280 0.56220 0.61820 0.05300
C 	C 	0.62633 0.62587 0.52128 -0.08600
H 	H 	0.64890 0.64850 0.53840 0.06300
C 	C 	0.83213 0.54760 0.66208 -0.00700
H 	H 	0.85930 0.53290 0.64390 0.05300
C 	C 	0.52014 0.51960 0.63120 -0.08200
H 	H 	0.53710 0.53590 0.65460 0.06400
C 	C 	0.90120 0.53203 0.72120 0.28000
C 	C 	0.84420 0.55089 0.70378 -0.05300
O 	O 	0.03099 0.59070 0.73992 -0.42400
O 	O 	0.01779 0.56064 0.80453 -0.41500
O 	O 	0.40929 0.96928 0.73991 -0.43900
O 	O 	0.43947 0.98218 0.80495 -0.42400
C 	C 	0.03199 0.59864 0.77951 0.28200
N 	N 	0.00850 0.00410 0.93776 -1.94600
C 	C 	0.07325 0.92669 0.92468 -0.28400
C 	C 	0.05120 0.65612 0.79624 -0.04000
C 	C 	0.08936 0.76062 0.82609 -0.01600
C 	C 	0.08565 0.91494 0.96502 0.16400
C 	C 	0.07140 0.69620 0.76861 -0.02200
H 	H 	0.07170 0.68870 0.74010 0.06200
C 	C 	0.23944 0.91037 0.82597 -0.01100
C 	C 	0.11206 0.81538 0.84300 0.12100
C 	C 	0.10496 0.89488 0.89019 0.19300
C 	C 	0.18475 0.88749 0.84327 0.12200
C 	C 	0.16081 0.83916 0.82772 -0.19400
H 	H 	0.17870 0.82130 0.80540 0.10000
C 	C 	0.15552 0.91733 0.87471 -0.22100
H 	H 	0.16970 0.95150 0.88500 0.11800
C 	C 	0.30280 0.92840 0.76906 -0.01400
H 	H 	0.30960 0.92890 0.74040 0.05600
C 	C 	0.03262 0.96801 0.91110 0.40700
C 	C 	0.09192 0.74970 0.78421 -0.05100
H 	H 	0.10680 0.77660 0.76590 0.04900
C 	C 	0.25163 0.90700 0.78380 -0.05700
H 	H 	0.22570 0.89050 0.76550 0.05000
C 	C 	0.04830 0.66756 0.83843 -0.02000
H 	H 	0.03450 0.64020 0.85680 0.06200
C 	C 	0.06610 0.72020 0.85345 -0.05000
H 	H 	0.06250 0.72870 0.88180 0.04800
C 	C 	0.08210 0.84395 0.87475 -0.22300
H 	H 	0.04810 0.82950 0.88520 0.10000
C 	C 	0.28072 0.93440 0.85344 -0.05800
H 	H 	0.27280 0.93780 0.88180 0.05300
C 	C 	0.12633 0.87413 0.97872 -0.09900
H 	H 	0.14890 0.85150 0.96160 0.07100
C 	C 	0.33213 0.95240 0.83792 -0.01100
H 	H 	0.35930 0.96710 0.85610 0.05500
C 	C 	0.02014 0.98040 0.86880 -0.39700
H 	H 	0.03710 0.96410 0.84540 0.17400
C 	C 	0.40120 0.96797 0.77880 0.27900
C 	C 	0.34420 0.94911 0.79622 -0.04900
O 	O 	0.96901 0.40930 0.73992 -0.43600
O 	O 	0.98221 0.43936 0.80453 -0.43200
O 	O 	0.59071 0.03072 0.73991 -0.42500
O 	O 	0.56053 0.01782 0.80495 -0.40500
C 	C 	0.96801 0.40136 0.77951 0.28800
N 	N 	0.99150 0.99590 0.93776 1.64400
C 	C 	0.92675 0.07331 0.92468 -0.03000
C 	C 	0.94880 0.34388 0.79624 -0.05500
C 	C 	0.91064 0.23938 0.82609 0.01100
C 	C 	0.91435 0.08506 0.96502 0.04200
C 	C 	0.92860 0.30380 0.76861 -0.00700
H 	H 	0.92830 0.31130 0.74010 0.05500
C 	C 	0.76056 0.08963 0.82597 0.00500
C 	C 	0.88794 0.18462 0.84300 0.08000
C 	C 	0.89504 0.10512 0.89019 0.08900
C 	C 	0.81525 0.11251 0.84327 0.08200
C 	C 	0.83919 0.16084 0.82772 -0.15100
H 	H 	0.82130 0.17870 0.80540 0.08500
C 	C 	0.84448 0.08267 0.87471 -0.15300
H 	H 	0.83030 0.04850 0.88500 0.07500
C 	C 	0.69720 0.07160 0.76906 -0.00900
H 	H 	0.69040 0.07110 0.74040 0.05700
C 	C 	0.96738 0.03199 0.91110 -0.22400
C 	C 	0.90808 0.25030 0.78421 -0.07000
H 	H 	0.89320 0.22340 0.76590 0.05700
C 	C 	0.74837 0.09300 0.78380 -0.06500
H 	H 	0.77430 0.10950 0.76550 0.05600
C 	C 	0.95170 0.33244 0.83843 -0.00300
H 	H 	0.96550 0.35980 0.85680 0.05300
C 	C 	0.93390 0.27980 0.85345 -0.07000
H 	H 	0.93750 0.27130 0.88180 0.05800
C 	C 	0.91790 0.15605 0.87475 -0.14600
H 	H 	0.95190 0.17050 0.88520 0.09200
C 	C 	0.71928 0.06560 0.85344 -0.06600
H 	H 	0.72720 0.06220 0.88180 0.05400
C 	C 	0.87367 0.12587 0.97872 -0.05800
H 	H 	0.85110 0.14850 0.96160 0.05500
C 	C 	0.66787 0.04760 0.83792 -0.00700
H 	H 	0.64070 0.03290 0.85610 0.05800
C 	C 	0.97986 0.01960 0.86880 0.23200
H 	H 	0.96290 0.03590 0.84540 -0.04500
C 	C 	0.59880 0.03203 0.77880 0.27800
C 	C 	0.65580 0.05089 0.79622 -0.04700
O 	O 	0.53099 0.90930 0.23992 -0.43900
O 	O 	0.51779 0.93936 0.30453 -0.43400
O 	O 	0.90929 0.53072 0.23991 -0.44000
O 	O 	0.93947 0.51782 0.30495 -0.42300
C 	C 	0.53199 0.90136 0.27951 0.28700
N 	N 	0.50850 0.49590 0.43776 -0.15200
C 	C 	0.57325 0.57331 0.42468 -0.15700
C 	C 	0.55120 0.84388 0.29624 -0.05300
C 	C 	0.58936 0.73938 0.32609 -0.00100
C 	C 	0.58565 0.58506 0.46502 0.10200
C 	C 	0.57140 0.80380 0.26861 -0.01300
H 	H 	0.57170 0.81130 0.24010 0.05400
C 	C 	0.73944 0.58963 0.32597 -0.00200
C 	C 	0.61206 0.68462 0.34300 0.09800
C 	C 	0.60496 0.60512 0.39019 0.13900
C 	C 	0.68475 0.61251 0.34327 0.09900
C 	C 	0.66081 0.66084 0.32772 -0.17000
H 	H 	0.67870 0.67870 0.30540 0.08900
C 	C 	0.65552 0.58267 0.37471 -0.18600
H 	H 	0.66970 0.54850 0.38500 0.09600
C 	C 	0.80280 0.57160 0.26906 -0.01000
H 	H 	0.80960 0.57110 0.24040 0.05300
C 	C 	0.53262 0.53199 0.41110 0.09000
C 	C 	0.59192 0.75030 0.28421 -0.06400
H 	H 	0.60680 0.72340 0.26590 0.05200
C 	C 	0.75163 0.59300 0.28380 -0.06500
H 	H 	0.72570 0.60950 0.26550 0.05200
C 	C 	0.54830 0.83244 0.33843 -0.01000
H 	H 	0.53450 0.85980 0.35680 0.05300
C 	C 	0.56610 0.77980 0.35345 -0.06400
H 	H 	0.56250 0.77130 0.38180 0.05200
C 	C 	0.58210 0.65605 0.37475 -0.18300
H 	H 	0.54810 0.67050 0.38520 0.09500
C 	C 	0.78072 0.56560 0.35344 -0.06500
H 	H 	0.77280 0.56220 0.38180 0.05300
C 	C 	0.62633 0.62587 0.47872 -0.08600
H 	H 	0.64890 0.64850 0.46160 0.06300
C 	C 	0.83213 0.54760 0.33792 -0.00700
H 	H 	0.85930 0.53290 0.35610 0.05300
C 	C 	0.52014 0.51960 0.36880 -0.08200
H 	H 	0.53710 0.53590 0.34540 0.06400
C 	C 	0.90120 0.53203 0.27880 0.28000
C 	C 	0.84420 0.55089 0.29622 -0.05300
O 	O 	0.46901 0.09070 0.23992 -0.42200
O 	O 	0.48221 0.06064 0.30453 -0.41400
O 	O 	0.09071 0.46928 0.23991 -0.42500
O 	O 	0.06053 0.48218 0.30495 -0.40700
C 	C 	0.46801 0.09864 0.27951 0.28300
N 	N 	0.49150 0.50410 0.43776 -0.14900
C 	C 	0.42675 0.42669 0.42468 -0.15700
C 	C 	0.44880 0.15612 0.29624 -0.04200
C 	C 	0.41064 0.26062 0.32609 -0.00300
C 	C 	0.41435 0.41494 0.46502 0.10300
C 	C 	0.42860 0.19620 0.26861 -0.01600
H 	H 	0.42830 0.18870 0.24010 0.06200
C 	C 	0.26056 0.41037 0.32597 -0.00400
C 	C 	0.38794 0.31538 0.34300 0.10300
C 	C 	0.39504 0.39488 0.39019 0.14100
C 	C 	0.31525 0.38749 0.34327 0.10400
C 	C 	0.33919 0.33916 0.32772 -0.17400
H 	H 	0.32130 0.32130 0.30540 0.09500
C 	C 	0.34448 0.41733 0.37471 -0.18800
H 	H 	0.33030 0.45150 0.38500 0.09700
C 	C 	0.19720 0.42840 0.26906 -0.01300
H 	H 	0.19040 0.42890 0.24040 0.06000
C 	C 	0.46738 0.46801 0.41110 0.09000
C 	C 	0.40808 0.24970 0.28421 -0.05700
H 	H 	0.39320 0.27660 0.26590 0.05400
C 	C 	0.24837 0.40700 0.28380 -0.05800
H 	H 	0.27430 0.39050 0.26550 0.05400
C 	C 	0.45170 0.16756 0.33843 -0.01400
H 	H 	0.46550 0.14020 0.35680 0.06100
C 	C 	0.43390 0.22020 0.35345 -0.05700
H 	H 	0.43750 0.22870 0.38180 0.05300
C 	C 	0.41790 0.34395 0.37475 -0.18600
H 	H 	0.45190 0.32950 0.38520 0.09600
C 	C 	0.21928 0.43440 0.35344 -0.05900
H 	H 	0.22720 0.43780 0.38180 0.05400
C 	C 	0.37367 0.37413 0.47872 -0.08500
H 	H 	0.35110 0.35150 0.46160 0.06600
C 	C 	0.16787 0.45240 0.33792 -0.01100
H 	H 	0.14070 0.46710 0.35610 0.06000
C 	C 	0.47986 0.48040 0.36880 -0.08200
H 	H 	0.46290 0.46410 0.34540 0.06400
C 	C 	0.09880 0.46797 0.27880 0.27700
C 	C 	0.15580 0.44911 0.29622 -0.04300
O 	O 	0.96901 0.40930 0.26008 -0.43600
O 	O 	0.98221 0.43936 0.19547 -0.43200
O 	O 	0.59071 0.03072 0.26009 -0.42500
O 	O 	0.56053 0.01782 0.19505 -0.40600
C 	C 	0.96801 0.40136 0.22049 0.28800
N 	N 	0.99150 0.99590 0.06224 1.60300
C 	C 	0.92675 0.07331 0.07532 -0.03500
C 	C 	0.94880 0.34388 0.20376 -0.05500
C 	C 	0.91064 0.23938 0.17391 0.01100
C 	C 	0.91435 0.08506 0.03498 0.04500
C 	C 	0.92860 0.30380 0.23139 -0.00700
H 	H 	0.92830 0.31130 0.25990 0.05500
C 	C 	0.76056 0.08963 0.17403 0.00500
C 	C 	0.88794 0.18462 0.15700 0.08000
C 	C 	0.89504 0.10512 0.10981 0.09000
C 	C 	0.81525 0.11251 0.15673 0.08200
C 	C 	0.83919 0.16084 0.17228 -0.15100
H 	H 	0.82130 0.17870 0.19460 0.08500
C 	C 	0.84448 0.08267 0.12529 -0.15400
H 	H 	0.83030 0.04850 0.11500 0.07500
C 	C 	0.69720 0.07160 0.23094 -0.00900
H 	H 	0.69040 0.07110 0.25960 0.05700
C 	C 	0.96738 0.03199 0.08890 -0.21800
C 	C 	0.90808 0.25030 0.21579 -0.07000
H 	H 	0.89320 0.22340 0.23410 0.05700
C 	C 	0.74837 0.09300 0.21620 -0.06500
H 	H 	0.77430 0.10950 0.23450 0.05600
C 	C 	0.95170 0.33244 0.16157 -0.00400
H 	H 	0.96550 0.35980 0.14320 0.05300
C 	C 	0.93390 0.27980 0.14655 -0.07000
H 	H 	0.93750 0.27130 0.11820 0.05700
C 	C 	0.91790 0.15605 0.12525 -0.14800
H 	H 	0.95190 0.17050 0.11480 0.09200
C 	C 	0.71928 0.06560 0.14656 -0.06600
H 	H 	0.72720 0.06220 0.11820 0.05300
C 	C 	0.87367 0.12587 0.02128 -0.07500
H 	H 	0.85110 0.14850 0.03840 0.05900
C 	C 	0.66787 0.04760 0.16208 -0.00700
H 	H 	0.64070 0.03290 0.14390 0.05800
C 	C 	0.97986 0.01960 0.13120 0.22500
H 	H 	0.96290 0.03590 0.15460 -0.04300
C 	C 	0.59880 0.03203 0.22120 0.27800
C 	C 	0.65580 0.05089 0.20378 -0.04700
O 	O 	0.03099 0.59070 0.26008 -0.42400
O 	O 	0.01779 0.56064 0.19547 -0.41600
O 	O 	0.40929 0.96928 0.26009 -0.43900
O 	O 	0.43947 0.98218 0.19505 -0.42500
C 	C 	0.03199 0.59864 0.22049 0.28200
N 	N 	0.00850 0.00410 0.06224 -1.90700
C 	C 	0.07325 0.92669 0.07532 -0.28300
C 	C 	0.05120 0.65612 0.20376 -0.04000
C 	C 	0.08936 0.76062 0.17391 -0.01500
C 	C 	0.08565 0.91494 0.03498 0.16300
C 	C 	0.07140 0.69620 0.23139 -0.02200
H 	H 	0.07170 0.68870 0.25990 0.06100
C 	C 	0.23944 0.91037 0.17403 -0.01100
C 	C 	0.11206 0.81538 0.15700 0.12100
C 	C 	0.10496 0.89488 0.10981 0.19100
C 	C 	0.18475 0.88749 0.15673 0.12100
C 	C 	0.16081 0.83916 0.17228 -0.19300
H 	H 	0.17870 0.82130 0.19460 0.09900
C 	C 	0.15552 0.91733 0.12529 -0.22100
H 	H 	0.16970 0.95150 0.11500 0.11800
C 	C 	0.30280 0.92840 0.23094 -0.01400
H 	H 	0.30960 0.92890 0.25960 0.05500
C 	C 	0.03262 0.96801 0.08890 0.40000
C 	C 	0.09192 0.74970 0.21579 -0.05100
H 	H 	0.10680 0.77660 0.23410 0.04900
C 	C 	0.25163 0.90700 0.21620 -0.05700
H 	H 	0.22570 0.89050 0.23450 0.05000
C 	C 	0.04830 0.66756 0.16157 -0.02000
H 	H 	0.03450 0.64020 0.14320 0.06100
C 	C 	0.06610 0.72020 0.14655 -0.05100
H 	H 	0.06250 0.72870 0.11820 0.04700
C 	C 	0.08210 0.84395 0.12525 -0.22300
H 	H 	0.04810 0.82950 0.11480 0.09900
C 	C 	0.28072 0.93440 0.14656 -0.05800
H 	H 	0.27280 0.93780 0.11820 0.05300
C 	C 	0.12633 0.87413 0.02128 -0.11400
H 	H 	0.14890 0.85150 0.03840 0.07400
C 	C 	0.33213 0.95240 0.16208 -0.01100
H 	H 	0.35930 0.96710 0.14390 0.05400
C 	C 	0.02014 0.98040 0.13120 -0.39000
H 	H 	0.03710 0.96410 0.15460 0.17100
C 	C 	0.40120 0.96797 0.22120 0.27900
C 	C 	0.34420 0.94911 0.20378 -0.04900
In	In	0.50000 0.00000 0.75001 2.00100
In	In	-0.00000 0.50000 0.74999 2.00000
In	In	0.50000 0.00000 0.24999 2.00100
In	In	-0.00000 0.50000 0.25001 2.00000
Mn	Mn	0.50000 0.50000 0.50000 1.23900
Mn	Mn	-0.00000 0.00000 -0.00000 1.25400
N 	N 	0.43851 0.43921 0.50000 -0.30100
N 	N 	0.56149 0.56079 0.50000 -0.30100
N 	N 	0.06149 0.93921 -0.00000 -0.31600
N 	N 	0.93851 0.06079 -0.00000 -0.29500
