data_crystal

_cell_length_a 23.48970
_cell_length_b 23.48950
_cell_length_c 31.96450
_cell_angle_alpha 90.00000
_cell_angle_beta  90.00000
_cell_angle_gamma 90.00000

_symmetry_space_group_name_	'P 1'
_symmetry_space_group_name_H-M	'P 1'

loop_
_symmetry_equiv_pos_as_xyz
  x,y,z

loop_
_atom_site_label
_atom_site_type_symbol
_atom_site_fract_x
_atom_site_fract_y
_atom_site_fract_z
_atom_site_charge
O 	O 	0.46869 0.09080 0.75980 -0.45200
O 	O 	0.48198 0.06052 0.69527 -0.44300
O 	O 	0.09091 0.46929 0.75965 -0.45100
O 	O 	0.06031 0.48235 0.69501 -0.44300
C 	C 	0.46815 0.09860 0.72100 0.29100
C 	C 	0.42662 0.42644 0.57546 -0.15700
C 	C 	0.44914 0.15638 0.70379 -0.05700
C 	C 	0.41020 0.26070 0.67367 -0.00300
C 	C 	0.41443 0.41480 0.53514 0.10300
C 	C 	0.42860 0.19620 0.73131 -0.01300
H 	H 	0.42800 0.18870 0.75990 0.05100
C 	C 	0.26051 0.41020 0.67362 -0.00700
C 	C 	0.38833 0.31548 0.65720 0.09700
C 	C 	0.39533 0.39491 0.60991 0.13900
C 	C 	0.31543 0.38780 0.65686 0.09900
C 	C 	0.33876 0.33880 0.67228 -0.16900
H 	H 	0.32010 0.32030 0.69410 0.08700
C 	C 	0.34408 0.41692 0.62515 -0.18700
H 	H 	0.32930 0.45050 0.61430 0.09600
C 	C 	0.19750 0.42900 0.73225 -0.01600
H 	H 	0.19060 0.42960 0.76090 0.05200
C 	C 	0.46718 0.46760 0.58927 0.10000
C 	C 	0.40830 0.24930 0.71568 -0.06500
H 	H 	0.39360 0.27630 0.73410 0.05100
C 	C 	0.24840 0.40790 0.71670 -0.06100
H 	H 	0.27490 0.39220 0.73500 0.05000
C 	C 	0.45070 0.16740 0.66141 -0.00900
H 	H 	0.46360 0.13970 0.64290 0.04900
C 	C 	0.43300 0.21980 0.64666 -0.06700
H 	H 	0.43640 0.22810 0.61830 0.05100
C 	C 	0.41758 0.34379 0.62541 -0.18500
H 	H 	0.45130 0.32900 0.61470 0.09500
C 	C 	0.21900 0.43400 0.64644 -0.06400
H 	H 	0.22670 0.43710 0.61800 0.05000
C 	C 	0.37430 0.37440 0.52101 -0.08700
H 	H 	0.35160 0.35150 0.53800 0.06100
C 	C 	0.16800 0.45240 0.66173 -0.01200
H 	H 	0.14080 0.46700 0.64350 0.05000
C 	C 	0.47950 0.47980 0.63117 -0.08700
H 	H 	0.46270 0.46320 0.65450 0.06600
C 	C 	0.09800 0.46830 0.72070 0.28800
C 	C 	0.15644 0.44930 0.70381 -0.05200
O 	O 	0.53131 0.90920 0.75980 -0.41300
O 	O 	0.51802 0.93948 0.69527 -0.39500
O 	O 	0.90909 0.53071 0.75965 -0.41300
O 	O 	0.93969 0.51765 0.69501 -0.39500
C 	C 	0.53185 0.90140 0.72100 0.28300
C 	C 	0.57338 0.57356 0.57546 -0.15800
C 	C 	0.55086 0.84362 0.70379 -0.03300
C 	C 	0.58980 0.73930 0.67367 -0.00800
C 	C 	0.58557 0.58520 0.53514 0.10600
C 	C 	0.57140 0.80380 0.73131 -0.02000
H 	H 	0.57200 0.81130 0.75990 0.06700
C 	C 	0.73949 0.58980 0.67362 -0.01100
C 	C 	0.61167 0.68452 0.65720 0.10900
C 	C 	0.60467 0.60509 0.60991 0.14500
C 	C 	0.68457 0.61220 0.65686 0.11100
C 	C 	0.66124 0.66120 0.67228 -0.17600
H 	H 	0.67990 0.67970 0.69410 0.09900
C 	C 	0.65592 0.58308 0.62515 -0.19200
H 	H 	0.67070 0.54950 0.61430 0.10000
C 	C 	0.80250 0.57100 0.73225 -0.02200
H 	H 	0.80940 0.57040 0.76090 0.06700
C 	C 	0.53282 0.53240 0.58927 0.10200
C 	C 	0.59170 0.75070 0.71568 -0.05000
H 	H 	0.60640 0.72370 0.73410 0.05300
C 	C 	0.75160 0.59210 0.71670 -0.04700
H 	H 	0.72510 0.60780 0.73500 0.05300
C 	C 	0.54930 0.83260 0.66141 -0.01800
H 	H 	0.53640 0.86030 0.64290 0.06700
C 	C 	0.56700 0.78020 0.64666 -0.05000
H 	H 	0.56360 0.77190 0.61830 0.05400
C 	C 	0.58242 0.65621 0.62541 -0.19000
H 	H 	0.54870 0.67100 0.61470 0.09900
C 	C 	0.78100 0.56600 0.64644 -0.04700
H 	H 	0.77330 0.56290 0.61800 0.05300
C 	C 	0.62570 0.62560 0.52101 -0.08500
H 	H 	0.64840 0.64850 0.53800 0.06900
C 	C 	0.83200 0.54760 0.66173 -0.02000
H 	H 	0.85920 0.53300 0.64350 0.06700
C 	C 	0.52050 0.52020 0.63117 -0.08800
H 	H 	0.53730 0.53680 0.65450 0.06600
C 	C 	0.90200 0.53170 0.72070 0.28100
C 	C 	0.84356 0.55070 0.70381 -0.02900
O 	O 	0.03131 0.59080 0.74020 -0.45000
O 	O 	0.01802 0.56052 0.80473 -0.44200
O 	O 	0.40909 0.96929 0.74035 -0.41400
O 	O 	0.43969 0.98235 0.80499 -0.39400
C 	C 	0.03185 0.59860 0.77900 0.29100
C 	C 	0.07338 0.92644 0.92454 -0.17000
C 	C 	0.05086 0.65638 0.79621 -0.05600
C 	C 	0.08980 0.76070 0.82633 -0.00400
C 	C 	0.08557 0.91480 0.96486 0.11500
C 	C 	0.07140 0.69620 0.76869 -0.01200
H 	H 	0.07200 0.68870 0.74010 0.05300
C 	C 	0.23949 0.91020 0.82638 -0.01200
C 	C 	0.11167 0.81548 0.84280 0.10300
C 	C 	0.10467 0.89491 0.89009 0.14800
C 	C 	0.18457 0.88780 0.84314 0.11000
C 	C 	0.16124 0.83880 0.82772 -0.17500
H 	H 	0.17990 0.82030 0.80590 0.09400
C 	C 	0.15592 0.91692 0.87485 -0.19400
H 	H 	0.17070 0.95050 0.88570 0.10400
C 	C 	0.30250 0.92900 0.76775 -0.02300
H 	H 	0.30940 0.92960 0.73910 0.06500
C 	C 	0.03282 0.96760 0.91073 0.14500
C 	C 	0.09170 0.74930 0.78432 -0.06300
H 	H 	0.10640 0.77630 0.76590 0.05200
C 	C 	0.25160 0.90790 0.78330 -0.04700
H 	H 	0.22510 0.89220 0.76500 0.05000
C 	C 	0.04930 0.66740 0.83859 -0.01000
H 	H 	0.03640 0.63970 0.85710 0.04900
C 	C 	0.06700 0.71980 0.85334 -0.06400
H 	H 	0.06360 0.72810 0.88170 0.05100
C 	C 	0.08242 0.84379 0.87459 -0.19100
H 	H 	0.04870 0.82900 0.88530 0.09500
C 	C 	0.28100 0.93400 0.85356 -0.04700
H 	H 	0.27330 0.93710 0.88200 0.05300
C 	C 	0.12570 0.87440 0.97899 -0.08200
H 	H 	0.14840 0.85150 0.96200 0.06400
C 	C 	0.33200 0.95240 0.83827 -0.02000
H 	H 	0.35920 0.96700 0.85650 0.06900
C 	C 	0.02050 0.97980 0.86883 -0.09800
H 	H 	0.03730 0.96320 0.84550 0.07000
C 	C 	0.40200 0.96830 0.77930 0.28100
C 	C 	0.34356 0.94930 0.79619 -0.02900
O 	O 	0.96869 0.40920 0.74020 -0.41500
O 	O 	0.98198 0.43948 0.80473 -0.39500
O 	O 	0.59091 0.03071 0.74035 -0.44900
O 	O 	0.56031 0.01765 0.80499 -0.44200
C 	C 	0.96815 0.40140 0.77900 0.28400
C 	C 	0.92662 0.07356 0.92454 -0.17000
C 	C 	0.94914 0.34362 0.79621 -0.03300
C 	C 	0.91020 0.23930 0.82633 -0.00900
C 	C 	0.91443 0.08520 0.96486 0.11500
C 	C 	0.92860 0.30380 0.76869 -0.02100
H 	H 	0.92800 0.31130 0.74010 0.06500
C 	C 	0.76051 0.08980 0.82638 -0.00800
C 	C 	0.88833 0.18452 0.84280 0.10800
C 	C 	0.89533 0.10509 0.89009 0.14800
C 	C 	0.81543 0.11220 0.84314 0.10600
C 	C 	0.83876 0.16120 0.82772 -0.17500
H 	H 	0.82010 0.17970 0.80590 0.09400
C 	C 	0.84408 0.08308 0.87485 -0.19300
H 	H 	0.82930 0.04950 0.88570 0.09600
C 	C 	0.69750 0.07100 0.76775 -0.01500
H 	H 	0.69060 0.07040 0.73910 0.05400
C 	C 	0.96718 0.03240 0.91073 0.14500
C 	C 	0.90830 0.25070 0.78432 -0.05000
H 	H 	0.89360 0.22370 0.76590 0.05100
C 	C 	0.74840 0.09210 0.78330 -0.06000
H 	H 	0.77490 0.10780 0.76500 0.05100
C 	C 	0.95070 0.33260 0.83859 -0.01800
H 	H 	0.96360 0.36030 0.85710 0.06800
C 	C 	0.93300 0.28020 0.85334 -0.05000
H 	H 	0.93640 0.27190 0.88170 0.05400
C 	C 	0.91758 0.15621 0.87459 -0.19200
H 	H 	0.95130 0.17100 0.88530 0.10300
C 	C 	0.71900 0.06600 0.85356 -0.06200
H 	H 	0.72670 0.06290 0.88200 0.05000
C 	C 	0.87430 0.12560 0.97899 -0.08200
H 	H 	0.85160 0.14850 0.96200 0.06400
C 	C 	0.66800 0.04760 0.83827 -0.01200
H 	H 	0.64080 0.03300 0.85650 0.05000
C 	C 	0.97950 0.02020 0.86883 -0.09800
H 	H 	0.96270 0.03680 0.84550 0.07000
C 	C 	0.59800 0.03170 0.77930 0.28800
C 	C 	0.65644 0.05070 0.79619 -0.05100
O 	O 	0.53131 0.90920 0.24020 -0.41300
O 	O 	0.51802 0.93948 0.30473 -0.39500
O 	O 	0.90909 0.53071 0.24035 -0.41300
O 	O 	0.93969 0.51765 0.30499 -0.39500
C 	C 	0.53185 0.90140 0.27900 0.28300
C 	C 	0.57338 0.57356 0.42454 -0.15800
C 	C 	0.55086 0.84362 0.29621 -0.03300
C 	C 	0.58980 0.73930 0.32633 -0.00800
C 	C 	0.58557 0.58520 0.46486 0.10600
C 	C 	0.57140 0.80380 0.26869 -0.02000
H 	H 	0.57200 0.81130 0.24010 0.06600
C 	C 	0.73949 0.58980 0.32638 -0.01100
C 	C 	0.61167 0.68452 0.34280 0.10900
C 	C 	0.60467 0.60509 0.39009 0.14500
C 	C 	0.68457 0.61220 0.34314 0.11100
C 	C 	0.66124 0.66120 0.32772 -0.17600
H 	H 	0.67990 0.67970 0.30590 0.09900
C 	C 	0.65592 0.58308 0.37485 -0.19200
H 	H 	0.67070 0.54950 0.38570 0.10000
C 	C 	0.80250 0.57100 0.26775 -0.02200
H 	H 	0.80940 0.57040 0.23910 0.06600
C 	C 	0.53282 0.53240 0.41073 0.10200
C 	C 	0.59170 0.75070 0.28432 -0.05000
H 	H 	0.60640 0.72370 0.26590 0.05300
C 	C 	0.75160 0.59210 0.28330 -0.04700
H 	H 	0.72510 0.60780 0.26500 0.05200
C 	C 	0.54930 0.83260 0.33859 -0.01800
H 	H 	0.53640 0.86030 0.35710 0.06700
C 	C 	0.56700 0.78020 0.35334 -0.05000
H 	H 	0.56360 0.77190 0.38170 0.05400
C 	C 	0.58242 0.65621 0.37459 -0.19000
H 	H 	0.54870 0.67100 0.38530 0.09900
C 	C 	0.78100 0.56600 0.35356 -0.04700
H 	H 	0.77330 0.56290 0.38200 0.05300
C 	C 	0.62570 0.62560 0.47899 -0.08500
H 	H 	0.64840 0.64850 0.46200 0.06900
C 	C 	0.83200 0.54760 0.33827 -0.02000
H 	H 	0.85920 0.53300 0.35650 0.06700
C 	C 	0.52050 0.52020 0.36883 -0.08800
H 	H 	0.53730 0.53680 0.34550 0.06600
C 	C 	0.90200 0.53170 0.27930 0.28100
C 	C 	0.84356 0.55070 0.29619 -0.02900
O 	O 	0.46869 0.09080 0.24020 -0.45200
O 	O 	0.48198 0.06052 0.30473 -0.44300
O 	O 	0.09091 0.46929 0.24035 -0.45100
O 	O 	0.06031 0.48235 0.30499 -0.44200
C 	C 	0.46815 0.09860 0.27900 0.29100
C 	C 	0.42662 0.42644 0.42454 -0.15700
C 	C 	0.44914 0.15638 0.29621 -0.05700
C 	C 	0.41020 0.26070 0.32633 -0.00300
C 	C 	0.41443 0.41480 0.46486 0.10300
C 	C 	0.42860 0.19620 0.26869 -0.01300
H 	H 	0.42800 0.18870 0.24010 0.05100
C 	C 	0.26051 0.41020 0.32638 -0.00700
C 	C 	0.38833 0.31548 0.34280 0.09700
C 	C 	0.39533 0.39491 0.39009 0.13900
C 	C 	0.31543 0.38780 0.34314 0.09900
C 	C 	0.33876 0.33880 0.32772 -0.16900
H 	H 	0.32010 0.32030 0.30590 0.08600
C 	C 	0.34408 0.41692 0.37485 -0.18700
H 	H 	0.32930 0.45050 0.38570 0.09600
C 	C 	0.19750 0.42900 0.26775 -0.01600
H 	H 	0.19060 0.42960 0.23910 0.05100
C 	C 	0.46718 0.46760 0.41073 0.10000
C 	C 	0.40830 0.24930 0.28432 -0.06500
H 	H 	0.39360 0.27630 0.26590 0.05100
C 	C 	0.24840 0.40790 0.28330 -0.06200
H 	H 	0.27490 0.39220 0.26500 0.04900
C 	C 	0.45070 0.16740 0.33859 -0.00900
H 	H 	0.46360 0.13970 0.35710 0.04900
C 	C 	0.43300 0.21980 0.35334 -0.06700
H 	H 	0.43640 0.22810 0.38170 0.05100
C 	C 	0.41758 0.34379 0.37459 -0.18500
H 	H 	0.45130 0.32900 0.38530 0.09500
C 	C 	0.21900 0.43400 0.35356 -0.06400
H 	H 	0.22670 0.43710 0.38200 0.05000
C 	C 	0.37430 0.37440 0.47899 -0.08700
H 	H 	0.35160 0.35150 0.46200 0.06100
C 	C 	0.16800 0.45240 0.33827 -0.01200
H 	H 	0.14080 0.46700 0.35650 0.05000
C 	C 	0.47950 0.47980 0.36883 -0.08700
H 	H 	0.46270 0.46320 0.34550 0.06600
C 	C 	0.09800 0.46830 0.27930 0.28800
C 	C 	0.15644 0.44930 0.29619 -0.05200
O 	O 	0.96869 0.40920 0.25980 -0.41500
O 	O 	0.98198 0.43948 0.19527 -0.39500
O 	O 	0.59091 0.03071 0.25965 -0.45000
O 	O 	0.56031 0.01765 0.19501 -0.44300
C 	C 	0.96815 0.40140 0.22100 0.28400
C 	C 	0.92662 0.07356 0.07546 -0.17100
C 	C 	0.94914 0.34362 0.20379 -0.03300
C 	C 	0.91020 0.23930 0.17367 -0.00900
C 	C 	0.91443 0.08520 0.03514 0.11700
C 	C 	0.92860 0.30380 0.23131 -0.02100
H 	H 	0.92800 0.31130 0.25990 0.06500
C 	C 	0.76051 0.08980 0.17362 -0.00800
C 	C 	0.88833 0.18452 0.15720 0.10800
C 	C 	0.89533 0.10509 0.10991 0.14800
C 	C 	0.81543 0.11220 0.15686 0.10500
C 	C 	0.83876 0.16120 0.17228 -0.17500
H 	H 	0.82010 0.17970 0.19410 0.09300
C 	C 	0.84408 0.08308 0.12515 -0.19300
H 	H 	0.82930 0.04950 0.11430 0.09600
C 	C 	0.69750 0.07100 0.23225 -0.01500
H 	H 	0.69060 0.07040 0.26090 0.05300
C 	C 	0.96718 0.03240 0.08927 0.14500
C 	C 	0.90830 0.25070 0.21568 -0.05000
H 	H 	0.89360 0.22370 0.23410 0.05100
C 	C 	0.74840 0.09210 0.21670 -0.06000
H 	H 	0.77490 0.10780 0.23500 0.05100
C 	C 	0.95070 0.33260 0.16141 -0.01800
H 	H 	0.96360 0.36030 0.14290 0.06700
C 	C 	0.93300 0.28020 0.14666 -0.05000
H 	H 	0.93640 0.27190 0.11830 0.05400
C 	C 	0.91758 0.15621 0.12541 -0.19300
H 	H 	0.95130 0.17100 0.11470 0.10300
C 	C 	0.71900 0.06600 0.14644 -0.06200
H 	H 	0.72670 0.06290 0.11800 0.04900
C 	C 	0.87430 0.12560 0.02101 -0.09600
H 	H 	0.85160 0.14850 0.03800 0.06800
C 	C 	0.66800 0.04760 0.16173 -0.01200
H 	H 	0.64080 0.03300 0.14350 0.04900
C 	C 	0.97950 0.02020 0.13117 -0.09800
H 	H 	0.96270 0.03680 0.15450 0.07000
C 	C 	0.59800 0.03170 0.22070 0.28800
C 	C 	0.65644 0.05070 0.20381 -0.05100
O 	O 	0.03131 0.59080 0.25980 -0.45000
O 	O 	0.01802 0.56052 0.19527 -0.44300
O 	O 	0.40909 0.96929 0.25965 -0.41400
O 	O 	0.43969 0.98235 0.19501 -0.39500
C 	C 	0.03185 0.59860 0.22100 0.29100
C 	C 	0.07338 0.92644 0.07546 -0.17200
C 	C 	0.05086 0.65638 0.20379 -0.05600
C 	C 	0.08980 0.76070 0.17367 -0.00400
C 	C 	0.08557 0.91480 0.03514 0.11700
C 	C 	0.07140 0.69620 0.23131 -0.01200
H 	H 	0.07200 0.68870 0.25990 0.05300
C 	C 	0.23949 0.91020 0.17362 -0.01200
C 	C 	0.11167 0.81548 0.15720 0.10300
C 	C 	0.10467 0.89491 0.10991 0.14800
C 	C 	0.18457 0.88780 0.15686 0.11000
C 	C 	0.16124 0.83880 0.17228 -0.17500
H 	H 	0.17990 0.82030 0.19410 0.09300
C 	C 	0.15592 0.91692 0.12515 -0.19400
H 	H 	0.17070 0.95050 0.11430 0.10400
C 	C 	0.30250 0.92900 0.23225 -0.02300
H 	H 	0.30940 0.92960 0.26090 0.06500
C 	C 	0.03282 0.96760 0.08927 0.14500
C 	C 	0.09170 0.74930 0.21568 -0.06300
H 	H 	0.10640 0.77630 0.23410 0.05200
C 	C 	0.25160 0.90790 0.21670 -0.04700
H 	H 	0.22510 0.89220 0.23500 0.05000
C 	C 	0.04930 0.66740 0.16141 -0.01000
H 	H 	0.03640 0.63970 0.14290 0.04800
C 	C 	0.06700 0.71980 0.14666 -0.06500
H 	H 	0.06360 0.72810 0.11830 0.05000
C 	C 	0.08242 0.84379 0.12541 -0.19100
H 	H 	0.04870 0.82900 0.11470 0.09500
C 	C 	0.28100 0.93400 0.14644 -0.04800
H 	H 	0.27330 0.93710 0.11800 0.05300
C 	C 	0.12570 0.87440 0.02101 -0.09600
H 	H 	0.14840 0.85150 0.03800 0.06800
C 	C 	0.33200 0.95240 0.16173 -0.02100
H 	H 	0.35920 0.96700 0.14350 0.06800
C 	C 	0.02050 0.97980 0.13117 -0.09800
H 	H 	0.03730 0.96320 0.15450 0.07000
C 	C 	0.40200 0.96830 0.22070 0.28100
C 	C 	0.34356 0.94930 0.20381 -0.02900
In	In	0.50000 0.00000 0.75002 1.98100
In	In	0.00000 0.50000 0.74998 1.98100
In	In	0.50000 -0.00000 0.24998 1.98100
In	In	0.00000 0.50000 0.25002 1.98100
Fe	Fe	0.50000 0.50000 0.50000 1.10300
Fe	Fe	-0.00000 0.00000 -0.00000 1.06200
N 	N 	0.43900 0.43932 0.50000 -0.27900
N 	N 	0.56100 0.56068 0.50000 -0.27900
N 	N 	0.06100 0.93932 -0.00000 -0.27200
N 	N 	0.93900 0.06068 -0.00000 -0.27200
N 	N 	0.50000 0.50000 0.56278 -0.28200
N 	N 	0.00000 0.00000 0.93722 -0.34800
N 	N 	0.50000 0.50000 0.43722 -0.28200
N 	N 	-0.00000 0.00000 0.06278 -0.35000
