data_crystal

_cell_length_a 6.73400
_cell_length_b 12.53600
_cell_length_c 9.12000
_cell_angle_alpha 90.00000
_cell_angle_beta  118.62200
_cell_angle_gamma 90.00000

_symmetry_space_group_name_	'P 1'
_symmetry_space_group_name_H-M	'P 1'

loop_
_symmetry_equiv_pos_as_xyz
  x,y,z

loop_
_atom_site_label
_atom_site_type_symbol
_atom_site_fract_x
_atom_site_fract_y
_atom_site_fract_z
_atom_site_charge
Ag	Ag	0.64630 0.23302 0.60150 0.44700
C 	C 	0.55000 0.16010 0.37630 -0.15000
N 	N 	0.48830 0.10700 0.25860 -0.24200
C 	C 	0.72500 0.32650 0.80910 -0.11300
N 	N 	0.77320 0.38910 0.90980 -0.19600
C 	C 	0.98140 0.09140 0.07710 -0.10500
H 	H 	0.04910 0.15750 0.07510 0.01900
C 	C 	0.77390 0.09080 0.07840 -0.00900
H 	H 	0.70090 0.15650 0.07380 -0.02800
Ag	Ag	0.14630 0.73302 0.60150 0.45900
C 	C 	0.05000 0.66010 0.37630 -0.11200
N 	N 	0.98830 0.60700 0.25860 -0.25500
C 	C 	0.22500 0.82650 0.80910 -0.09300
N 	N 	0.27320 0.88910 0.90980 -0.17700
C 	C 	0.48140 0.59140 0.07710 -0.03500
H 	H 	0.54910 0.65750 0.07510 -0.01300
C 	C 	0.27390 0.59080 0.07840 -0.02700
H 	H 	0.20090 0.65650 0.07380 -0.01200
Ag	Ag	0.64630 0.76698 0.60150 0.45500
C 	C 	0.55000 0.83990 0.37630 -0.12900
N 	N 	0.48830 0.89300 0.25860 -0.21700
C 	C 	0.72500 0.67350 0.80910 -0.10900
N 	N 	0.77320 0.61090 0.90980 -0.19700
C 	C 	0.98140 0.90860 0.07710 -0.05200
H 	H 	0.04910 0.84250 0.07510 0.01100
C 	C 	0.77390 0.90920 0.07840 0.05000
H 	H 	0.70090 0.84350 0.07380 -0.03900
Ag	Ag	0.14630 0.26698 0.60150 0.45200
C 	C 	0.05000 0.33990 0.37630 -0.11700
N 	N 	0.98830 0.39300 0.25860 -0.25400
C 	C 	0.22500 0.17350 0.80910 -0.11000
N 	N 	0.27320 0.11090 0.90980 -0.20000
C 	C 	0.48140 0.40860 0.07710 -0.03500
H 	H 	0.54910 0.34250 0.07510 -0.01500
C 	C 	0.27390 0.40920 0.07840 -0.02700
H 	H 	0.20090 0.34350 0.07380 -0.01400
Fe	Fe	0.38070 -0.00000 0.08200 1.10700
N 	N 	0.08500 -0.00000 0.07870 -0.25200
N 	N 	0.67800 0.00000 0.08590 -0.29800
Fe	Fe	0.88070 0.50000 0.08200 1.12600
N 	N 	0.58500 0.50000 0.07870 -0.25000
N 	N 	0.17800 0.50000 0.08590 -0.24400
