data_crystal

_cell_length_a 11.31060
_cell_length_b 12.66980
_cell_length_c 14.73970
_cell_angle_alpha 90.00000
_cell_angle_beta  90.00000
_cell_angle_gamma 90.00000

_symmetry_space_group_name_	'P 1'
_symmetry_space_group_name_H-M	'P 1'

loop_
_symmetry_equiv_pos_as_xyz
  x,y,z

loop_
_atom_site_label
_atom_site_type_symbol
_atom_site_fract_x
_atom_site_fract_y
_atom_site_fract_z
_atom_site_charge
Ce	Ce	0.14940 0.88510 0.49300 2.10100
O 	O 	0.35440 0.88270 0.43700 -0.55800
O 	O 	0.22170 0.06770 0.46800 -0.57700
O 	O 	0.53660 0.93140 0.40200 -0.40400
O 	O 	0.31810 0.21170 0.42600 -0.60100
C 	C 	0.42850 0.94780 0.40440 0.56200
C 	C 	0.38180 0.04910 0.36310 -0.77500
H 	H 	0.44870 0.09230 0.34520 0.24400
H 	H 	0.33820 0.03150 0.30850 0.24000
C 	C 	0.30260 0.11400 0.42410 0.62200
O 	O 	0.10300 0.91330 0.32500 -0.51300
O 	O 	0.98510 0.00830 0.40820 -0.72400
C 	C 	0.02980 0.98610 0.33220 0.54800
H 	H 	0.06670 0.09650 0.23570 0.14400
Ce	Ce	0.35060 0.61490 0.99300 2.09900
O 	O 	0.14560 0.61730 0.93700 -0.56200
O 	O 	0.27830 0.43230 0.96800 -0.58400
O 	O 	0.96340 0.56860 0.90200 -0.42700
O 	O 	0.18190 0.28830 0.92600 -0.60700
C 	C 	0.07150 0.55220 0.90440 0.59700
C 	C 	0.11820 0.45090 0.86310 -0.79800
H 	H 	0.05130 0.40770 0.84520 0.25700
H 	H 	0.16180 0.46850 0.80850 0.24600
C 	C 	0.19740 0.38600 0.92410 0.62800
O 	O 	0.39700 0.58670 0.82500 -0.52500
O 	O 	0.51490 0.49170 0.90820 -0.69900
C 	C 	0.47020 0.51390 0.83220 0.56500
H 	H 	0.43330 0.40350 0.73570 0.19000
Ce	Ce	0.85060 0.88510 0.00700 2.08500
O 	O 	0.64560 0.88270 0.06300 -0.56200
O 	O 	0.77830 0.06770 0.03200 -0.58300
O 	O 	0.46340 0.93140 0.09800 -0.40200
O 	O 	0.68190 0.21170 0.07400 -0.60500
C 	C 	0.57150 0.94780 0.09560 0.55200
C 	C 	0.61820 0.04910 0.13690 -0.76200
H 	H 	0.55130 0.09230 0.15480 0.24200
H 	H 	0.66180 0.03150 0.19150 0.23400
C 	C 	0.69740 0.11400 0.07590 0.62000
O 	O 	0.89700 0.91330 0.17500 -0.50200
O 	O 	0.01490 0.00830 0.09180 -0.61700
C 	C 	0.97020 0.98610 0.16780 0.41600
H 	H 	0.93330 0.09650 0.26430 0.11400
Ce	Ce	0.64940 0.61490 0.50700 2.09500
O 	O 	0.85440 0.61730 0.56300 -0.55600
O 	O 	0.72170 0.43230 0.53200 -0.58000
O 	O 	0.03660 0.56860 0.59800 -0.36900
O 	O 	0.81810 0.28830 0.57400 -0.60800
C 	C 	0.92850 0.55220 0.59560 0.51700
C 	C 	0.88180 0.45090 0.63690 -0.74800
H 	H 	0.94870 0.40770 0.65480 0.22500
H 	H 	0.83820 0.46850 0.69150 0.22700
C 	C 	0.80260 0.38600 0.57590 0.61100
O 	O 	0.60300 0.58670 0.67500 -0.52600
O 	O 	0.48510 0.49170 0.59180 -0.69900
C 	C 	0.52980 0.51390 0.66780 0.56500
H 	H 	0.56670 0.40350 0.76430 0.18900
Ce	Ce	0.85060 0.11490 0.50700 2.09100
O 	O 	0.64560 0.11730 0.56300 -0.56100
O 	O 	0.77830 0.93230 0.53200 -0.58700
O 	O 	0.46340 0.06860 0.59800 -0.40400
O 	O 	0.68190 0.78830 0.57400 -0.60800
C 	C 	0.57150 0.05220 0.59560 0.55800
C 	C 	0.61820 0.95090 0.63690 -0.77300
H 	H 	0.55130 0.90770 0.65480 0.24400
H 	H 	0.66180 0.96850 0.69150 0.23800
C 	C 	0.69740 0.88600 0.57590 0.62200
O 	O 	0.89700 0.08670 0.67500 -0.50700
O 	O 	0.01490 0.99170 0.59180 -0.64200
C 	C 	0.97020 0.01390 0.66780 0.45300
H 	H 	0.93330 0.90350 0.76430 0.13100
Ce	Ce	0.64940 0.38510 0.00700 2.09700
O 	O 	0.85440 0.38270 0.06300 -0.55200
O 	O 	0.72170 0.56770 0.03200 -0.57900
O 	O 	0.03660 0.43140 0.09800 -0.35200
O 	O 	0.81810 0.71170 0.07400 -0.60900
C 	C 	0.92850 0.44780 0.09560 0.49900
C 	C 	0.88180 0.54910 0.13690 -0.73700
H 	H 	0.94870 0.59230 0.15480 0.21800
H 	H 	0.83820 0.53150 0.19150 0.22200
C 	C 	0.80260 0.61400 0.07590 0.60700
O 	O 	0.60300 0.41330 0.17500 -0.52600
O 	O 	0.48510 0.50830 0.09180 -0.69700
C 	C 	0.52980 0.48610 0.16780 0.56500
H 	H 	0.56670 0.59650 0.26430 0.18900
Ce	Ce	0.14940 0.11490 0.99300 2.09200
O 	O 	0.35440 0.11730 0.93700 -0.56000
O 	O 	0.22170 0.93230 0.96800 -0.57200
O 	O 	0.53660 0.06860 0.90200 -0.40500
O 	O 	0.31810 0.78830 0.92600 -0.60000
C 	C 	0.42850 0.05220 0.90440 0.54900
C 	C 	0.38180 0.95090 0.86310 -0.75800
H 	H 	0.44870 0.90770 0.84520 0.24100
H 	H 	0.33820 0.96850 0.80850 0.23600
C 	C 	0.30260 0.88600 0.92410 0.61800
O 	O 	0.10300 0.08670 0.82500 -0.51400
O 	O 	0.98510 0.99170 0.90820 -0.70100
C 	C 	0.02980 0.01390 0.83220 0.52900
H 	H 	0.06670 0.90350 0.73570 0.15100
Ce	Ce	0.35060 0.38510 0.49300 2.09800
O 	O 	0.14560 0.38270 0.43700 -0.56500
O 	O 	0.27830 0.56770 0.46800 -0.58500
O 	O 	0.96340 0.43140 0.40200 -0.44400
O 	O 	0.18190 0.71170 0.42600 -0.60500
C 	C 	0.07150 0.44780 0.40440 0.61600
C 	C 	0.11820 0.54910 0.36310 -0.80900
H 	H 	0.05130 0.59230 0.34520 0.26400
H 	H 	0.16180 0.53150 0.30850 0.25100
C 	C 	0.19740 0.61400 0.42410 0.63300
O 	O 	0.39700 0.41330 0.32500 -0.52500
O 	O 	0.51490 0.50830 0.40820 -0.70000
C 	C 	0.47020 0.48610 0.33220 0.56500
H 	H 	0.43330 0.59650 0.23570 0.19100
C 	C 	0.00000 0.05140 0.25000 -0.53400
C 	C 	0.50000 0.44860 0.75000 -0.72500
C 	C 	-0.00000 0.94860 0.75000 -0.56900
C 	C 	0.50000 0.55140 0.25000 -0.72500
