data_crystal

_cell_length_a 23.98360
_cell_length_b 7.32710
_cell_length_c 22.68090
_cell_angle_alpha 90.00000
_cell_angle_beta  94.42570
_cell_angle_gamma 90.00000

_symmetry_space_group_name_	'P 1'
_symmetry_space_group_name_H-M	'P 1'

loop_
_symmetry_equiv_pos_as_xyz
  x,y,z

loop_
_atom_site_label
_atom_site_type_symbol
_atom_site_fract_x
_atom_site_fract_y
_atom_site_fract_z
_atom_site_charge
Co	Co	0.45296 0.02347 0.23954 1.08200
Co	Co	0.70898 0.98381 0.49718 1.07800
N 	N 	0.27918 0.98260 0.44658 -0.19300
N 	N 	0.33690 0.14530 0.37770 0.71100
N 	N 	0.38584 0.01990 0.29474 -0.29800
N 	N 	0.50206 0.13380 0.31233 -0.29100
N 	N 	0.55339 0.24400 0.40377 -0.18600
N 	N 	0.63870 0.10010 0.45012 -0.29800
N 	N 	0.77978 0.86750 0.54269 -0.29900
N 	N 	0.87084 0.72740 0.57243 -0.18700
N 	N 	0.90600 0.59350 0.66723 -0.30900
N 	N 	0.66067 0.94330 0.56980 -0.30100
N 	N 	0.61244 0.84160 0.65572 -0.19100
N 	N 	0.52420 0.95480 0.69062 -0.29700
N 	N 	0.75691 0.02680 0.42431 -0.29700
N 	N 	0.79811 0.14850 0.33595 -0.17900
N 	N 	0.88281 0.03530 0.29320 -0.18600
C 	C 	0.30902 0.04440 0.41469 0.19400
C 	C 	0.36385 0.06330 0.33577 0.18300
C 	C 	0.52810 0.18080 0.35482 0.15200
C 	C 	0.59893 0.16340 0.42615 0.14400
C 	C 	0.82135 0.79850 0.55973 0.15000
C 	C 	0.88662 0.65960 0.62471 0.14000
C 	C 	0.63568 0.90250 0.60908 0.14400
C 	C 	0.56523 0.90770 0.67179 0.14200
C 	C 	0.77826 0.07760 0.38380 0.14200
C 	C 	0.84342 0.08260 0.31572 0.11700
N 	N 	0.34960 0.11000 0.38820 -0.91200
Co	Co	0.95296 0.52347 0.23954 1.06300
Co	Co	0.20898 0.48381 0.49718 1.08000
N 	N 	0.77918 0.48260 0.44658 -0.20100
N 	N 	0.83690 0.64530 0.37770 0.92600
N 	N 	0.88584 0.51990 0.29474 -0.30500
N 	N 	0.00206 0.63380 0.31233 -0.27500
N 	N 	0.05339 0.74400 0.40377 -0.18000
N 	N 	0.13870 0.60010 0.45012 -0.29700
N 	N 	0.27978 0.36750 0.54269 -0.29800
N 	N 	0.37084 0.22740 0.57243 -0.18400
N 	N 	0.40600 0.09350 0.66723 -0.30200
N 	N 	0.16067 0.44330 0.56980 -0.29900
N 	N 	0.11244 0.34160 0.65572 -0.19000
N 	N 	0.02420 0.45480 0.69062 -0.28200
N 	N 	0.25691 0.52680 0.42431 -0.29500
N 	N 	0.29811 0.64850 0.33595 -0.17800
N 	N 	0.38281 0.53530 0.29320 -0.17800
C 	C 	0.80902 0.54440 0.41469 0.20500
C 	C 	0.86385 0.56330 0.33577 0.18100
C 	C 	0.02810 0.68080 0.35482 0.16700
C 	C 	0.09893 0.66340 0.42615 0.15200
C 	C 	0.32135 0.29850 0.55973 0.15400
C 	C 	0.38662 0.15960 0.62471 0.15000
C 	C 	0.13568 0.40250 0.60908 0.15200
C 	C 	0.06523 0.40770 0.67179 0.15200
C 	C 	0.27826 0.57760 0.38380 0.15000
C 	C 	0.34342 0.58260 0.31572 0.12500
N 	N 	0.84960 0.61000 0.38820 -1.13700
Co	Co	0.45296 0.97653 0.73954 1.07900
Co	Co	0.70898 0.01619 0.99718 1.05500
N 	N 	0.27918 0.01740 0.94658 -0.21100
N 	N 	0.33690 0.85470 0.87770 0.86700
N 	N 	0.38584 0.98010 0.79474 -0.30000
N 	N 	0.50206 0.86620 0.81233 -0.29300
N 	N 	0.55339 0.75600 0.90377 -0.19000
N 	N 	0.63870 0.89990 0.95012 -0.30600
N 	N 	0.77978 0.13250 0.04269 -0.28300
N 	N 	0.87084 0.27260 0.07243 -0.17900
N 	N 	0.90600 0.40650 0.16723 -0.30700
N 	N 	0.66067 0.05670 0.06980 -0.28500
N 	N 	0.61244 0.15840 0.15572 -0.18900
N 	N 	0.52420 0.04520 0.19062 -0.29500
N 	N 	0.75691 0.97320 0.92431 -0.30300
N 	N 	0.79811 0.85150 0.83595 -0.18000
N 	N 	0.88281 0.96470 0.79320 -0.18800
C 	C 	0.30902 0.95560 0.91469 0.19800
C 	C 	0.36385 0.93670 0.83577 0.18400
C 	C 	0.52810 0.81920 0.85482 0.14700
C 	C 	0.59893 0.83660 0.92615 0.13300
C 	C 	0.82135 0.20150 0.05973 0.16600
C 	C 	0.88662 0.34040 0.12471 0.15000
C 	C 	0.63568 0.09750 0.10908 0.15500
C 	C 	0.56523 0.09230 0.17179 0.15000
C 	C 	0.77826 0.92240 0.88380 0.13500
C 	C 	0.84342 0.91740 0.81572 0.11200
N 	N 	0.34960 0.89000 0.88820 -1.07700
Co	Co	0.95296 0.47653 0.73954 1.06000
Co	Co	0.20898 0.51619 0.99718 1.05900
N 	N 	0.77918 0.51740 0.94658 -0.21300
N 	N 	0.83690 0.35470 0.87770 1.03500
N 	N 	0.88584 0.48010 0.79474 -0.30700
N 	N 	0.00206 0.36620 0.81233 -0.27700
N 	N 	0.05339 0.25600 0.90377 -0.18500
N 	N 	0.13870 0.39990 0.95012 -0.30500
N 	N 	0.27978 0.63250 0.04269 -0.28100
N 	N 	0.37084 0.77260 0.07243 -0.17600
N 	N 	0.40600 0.90650 0.16723 -0.29900
N 	N 	0.16067 0.55670 0.06980 -0.28300
N 	N 	0.11244 0.65840 0.15572 -0.18700
N 	N 	0.02420 0.54520 0.19062 -0.28000
N 	N 	0.25691 0.47320 0.92431 -0.30300
N 	N 	0.29811 0.35150 0.83595 -0.17900
N 	N 	0.38281 0.46470 0.79320 -0.18100
C 	C 	0.80902 0.45560 0.91469 0.20200
C 	C 	0.86385 0.43670 0.83577 0.18000
C 	C 	0.02810 0.31920 0.85482 0.16100
C 	C 	0.09893 0.33660 0.92615 0.14000
C 	C 	0.32135 0.70150 0.05973 0.17200
C 	C 	0.38662 0.84040 0.12471 0.16100
C 	C 	0.13568 0.59750 0.10908 0.16300
C 	C 	0.06523 0.59230 0.17179 0.16000
C 	C 	0.27826 0.42240 0.88380 0.14100
C 	C 	0.34342 0.41740 0.81572 0.11800
N 	N 	0.84960 0.39000 0.88820 -1.25200
