data_crystal

_cell_length_a 10.83040
_cell_length_b 16.71330
_cell_length_c 28.08500
_cell_angle_alpha 90.00000
_cell_angle_beta  94.96700
_cell_angle_gamma 90.00000

_symmetry_space_group_name_	'P 1'
_symmetry_space_group_name_H-M	'P 1'

loop_
_symmetry_equiv_pos_as_xyz
  x,y,z

loop_
_atom_site_label
_atom_site_type_symbol
_atom_site_fract_x
_atom_site_fract_y
_atom_site_fract_z
_atom_site_charge
La	La	0.54031 0.87735 0.53169 1.49300
O 	O 	0.58716 0.79637 0.46776 -0.33600
O 	O 	0.00820 0.60828 0.11331 -0.32000
N 	N 	0.65300 0.76445 0.43471 -0.07000
N 	N 	0.95690 0.61871 0.15385 -0.09600
C 	C 	0.76340 0.79492 0.42650 0.06100
H 	H 	0.79630 0.83700 0.44520 -0.01000
C 	C 	0.82840 0.76497 0.39102 -0.14800
H 	H 	0.90580 0.78580 0.38590 0.06600
C 	C 	0.77830 0.70330 0.36261 0.07600
C 	C 	0.66910 0.67270 0.37294 -0.14800
H 	H 	0.63640 0.62920 0.35550 0.06900
C 	C 	0.60440 0.70401 0.40861 0.06200
H 	H 	0.52750 0.68310 0.41440 0.00600
C 	C 	0.84980 0.67320 0.32166 -0.04400
H 	H 	0.90720 0.71480 0.31400 0.03500
H 	H 	0.89870 0.62740 0.33310 0.03300
C 	C 	0.78670 0.65310 0.28325 -0.25200
H 	H 	0.72540 0.69470 0.27610 0.09500
H 	H 	0.74150 0.60500 0.29020 0.09200
C 	C 	0.84870 0.63700 0.23690 0.19400
C 	C 	0.97090 0.62040 0.23688 -0.22200
H 	H 	0.01860 0.61310 0.26570 0.09900
C 	C 	0.02510 0.61400 0.19429 0.10700
H 	H 	0.11020 0.60640 0.19450 0.00100
C 	C 	0.83770 0.62890 0.15370 0.12700
H 	H 	0.78900 0.62990 0.12480 -0.03900
C 	C 	0.78420 0.63790 0.19474 -0.25400
H 	H 	0.69880 0.64500 0.19350 0.10400
O 	O 	0.72311 0.80771 0.57051 -0.29900
O 	O 	0.00609 0.52713 0.95580 -0.40000
N 	N 	0.74800 0.77095 0.61233 -0.10500
N 	N 	0.99226 0.56032 0.91200 -0.09100
C 	C 	0.83700 0.79480 0.64140 0.11700
H 	H 	0.88140 0.84000 0.63380 -0.01400
C 	C 	0.86930 0.75610 0.68338 -0.21900
H 	H 	0.93500 0.77600 0.70350 0.09400
C 	C 	0.80930 0.68956 0.69698 0.17300
C 	C 	0.71710 0.66860 0.66607 -0.22700
H 	H 	0.66970 0.62450 0.67330 0.09600
C 	C 	0.68640 0.70780 0.62371 0.11300
H 	H 	0.62110 0.68910 0.60300 -0.02900
C 	C 	0.84060 0.64350 0.74367 -0.20000
H 	H 	0.76960 0.64680 0.76240 0.08000
H 	H 	0.85120 0.58760 0.73570 0.08200
C 	C 	0.94870 0.66864 0.77354 -0.12700
H 	H 	0.94390 0.72600 0.77830 0.05800
H 	H 	0.02160 0.65820 0.75670 0.05900
C 	C 	0.96540 0.62813 0.82225 0.11100
C 	C 	0.07520 0.59523 0.83969 -0.15600
H 	H 	0.14170 0.59500 0.82080 0.08000
C 	C 	0.08950 0.56211 0.88511 0.07900
H 	H 	0.16560 0.54130 0.89690 -0.00800
C 	C 	0.88210 0.58886 0.89501 0.06100
H 	H 	0.81450 0.58440 0.91310 -0.02800
C 	C 	0.86840 0.62471 0.85093 -0.16100
H 	H 	0.79240 0.64710 0.84020 0.07400
La	La	0.95969 0.37735 0.96831 1.49200
O 	O 	0.91284 0.29637 0.03224 -0.33400
O 	O 	0.49180 0.10828 0.38669 -0.31700
N 	N 	0.84700 0.26445 0.06529 -0.06600
N 	N 	0.54310 0.11871 0.34615 -0.10200
C 	C 	0.73660 0.29492 0.07350 0.05500
H 	H 	0.70370 0.33700 0.05480 -0.00600
C 	C 	0.67160 0.26497 0.10898 -0.13400
H 	H 	0.59420 0.28580 0.11410 0.06200
C 	C 	0.72170 0.20330 0.13739 0.05700
C 	C 	0.83090 0.17270 0.12706 -0.13400
H 	H 	0.86360 0.12920 0.14450 0.06400
C 	C 	0.89560 0.20401 0.09139 0.05500
H 	H 	0.97250 0.18310 0.08560 0.00900
C 	C 	0.65020 0.17320 0.17834 -0.00200
H 	H 	0.59280 0.21480 0.18600 0.02300
H 	H 	0.60130 0.12740 0.16690 0.02000
C 	C 	0.71330 0.15310 0.21675 -0.29600
H 	H 	0.77460 0.19470 0.22390 0.10700
H 	H 	0.75850 0.10500 0.20980 0.10500
C 	C 	0.65130 0.13700 0.26310 0.22100
C 	C 	0.52910 0.12040 0.26312 -0.24700
H 	H 	0.48140 0.11310 0.23430 0.10900
C 	C 	0.47490 0.11400 0.30571 0.12300
H 	H 	0.38980 0.10640 0.30550 -0.00400
C 	C 	0.66230 0.12890 0.34630 0.14000
H 	H 	0.71100 0.12990 0.37520 -0.04400
C 	C 	0.71580 0.13790 0.30526 -0.27500
H 	H 	0.80120 0.14500 0.30650 0.11100
O 	O 	0.77689 0.30771 0.92949 -0.29900
O 	O 	0.49391 0.02713 0.54420 -0.40200
N 	N 	0.75200 0.27095 0.88767 -0.10600
N 	N 	0.50774 0.06032 0.58800 -0.09000
C 	C 	0.66300 0.29480 0.85860 0.11800
H 	H 	0.61860 0.34000 0.86620 -0.01400
C 	C 	0.63070 0.25610 0.81662 -0.22000
H 	H 	0.56500 0.27600 0.79650 0.09500
C 	C 	0.69070 0.18956 0.80302 0.17400
C 	C 	0.78290 0.16860 0.83393 -0.22700
H 	H 	0.83030 0.12450 0.82670 0.09600
C 	C 	0.81360 0.20780 0.87629 0.11300
H 	H 	0.87890 0.18910 0.89700 -0.02900
C 	C 	0.65940 0.14350 0.75633 -0.20200
H 	H 	0.73040 0.14680 0.73760 0.08000
H 	H 	0.64880 0.08760 0.76430 0.08200
C 	C 	0.55130 0.16864 0.72646 -0.12500
H 	H 	0.55610 0.22600 0.72170 0.05800
H 	H 	0.47840 0.15820 0.74330 0.05800
C 	C 	0.53460 0.12813 0.67775 0.11200
C 	C 	0.42480 0.09523 0.66031 -0.15800
H 	H 	0.35830 0.09500 0.67920 0.08000
C 	C 	0.41050 0.06211 0.61489 0.07700
H 	H 	0.33440 0.04130 0.60310 -0.00700
C 	C 	0.61790 0.08886 0.60499 0.06100
H 	H 	0.68550 0.08440 0.58690 -0.02800
C 	C 	0.63160 0.12471 0.64907 -0.16100
H 	H 	0.70760 0.14710 0.65980 0.07400
La	La	0.45969 0.12265 0.46831 1.49400
O 	O 	0.41284 0.20363 0.53224 -0.33500
O 	O 	0.99180 0.39172 0.88669 -0.31900
N 	N 	0.34700 0.23555 0.56529 -0.06900
N 	N 	0.04310 0.38129 0.84615 -0.09500
C 	C 	0.23660 0.20508 0.57350 0.06200
H 	H 	0.20370 0.16300 0.55480 -0.00900
C 	C 	0.17160 0.23503 0.60898 -0.14700
H 	H 	0.09420 0.21420 0.61410 0.06600
C 	C 	0.22170 0.29670 0.63739 0.07600
C 	C 	0.33090 0.32730 0.62706 -0.14800
H 	H 	0.36360 0.37080 0.64450 0.06900
C 	C 	0.39560 0.29599 0.59139 0.06200
H 	H 	0.47250 0.31690 0.58560 0.00600
C 	C 	0.15020 0.32680 0.67834 -0.04400
H 	H 	0.09280 0.28520 0.68600 0.03500
H 	H 	0.10130 0.37260 0.66690 0.03300
C 	C 	0.21330 0.34690 0.71675 -0.25200
H 	H 	0.27460 0.30530 0.72390 0.09500
H 	H 	0.25850 0.39500 0.70980 0.09200
C 	C 	0.15130 0.36300 0.76310 0.19400
C 	C 	0.02910 0.37960 0.76312 -0.22200
H 	H 	0.98140 0.38690 0.73430 0.09900
C 	C 	0.97490 0.38600 0.80571 0.10700
H 	H 	0.88980 0.39360 0.80550 0.00100
C 	C 	0.16230 0.37110 0.84630 0.12700
H 	H 	0.21100 0.37010 0.87520 -0.03900
C 	C 	0.21580 0.36210 0.80526 -0.25400
H 	H 	0.30120 0.35500 0.80650 0.10400
O 	O 	0.27689 0.19229 0.42949 -0.29900
O 	O 	0.99391 0.47287 0.04420 -0.40000
N 	N 	0.25200 0.22905 0.38767 -0.10500
N 	N 	0.00774 0.43968 0.08800 -0.09100
C 	C 	0.16300 0.20520 0.35860 0.11700
H 	H 	0.11860 0.16000 0.36620 -0.01400
C 	C 	0.13070 0.24390 0.31662 -0.21900
H 	H 	0.06500 0.22400 0.29650 0.09400
C 	C 	0.19070 0.31044 0.30302 0.17300
C 	C 	0.28290 0.33140 0.33393 -0.22700
H 	H 	0.33030 0.37550 0.32670 0.09600
C 	C 	0.31360 0.29220 0.37629 0.11300
H 	H 	0.37890 0.31090 0.39700 -0.02900
C 	C 	0.15940 0.35650 0.25633 -0.20000
H 	H 	0.23040 0.35320 0.23760 0.08000
H 	H 	0.14880 0.41240 0.26430 0.08200
C 	C 	0.05130 0.33136 0.22646 -0.12700
H 	H 	0.05610 0.27400 0.22170 0.05800
H 	H 	0.97840 0.34180 0.24330 0.05900
C 	C 	0.03460 0.37187 0.17775 0.11100
C 	C 	0.92480 0.40477 0.16031 -0.15600
H 	H 	0.85830 0.40500 0.17920 0.08000
C 	C 	0.91050 0.43789 0.11489 0.07900
H 	H 	0.83440 0.45870 0.10310 -0.00800
C 	C 	0.11790 0.41114 0.10499 0.06100
H 	H 	0.18550 0.41560 0.08690 -0.02800
C 	C 	0.13160 0.37529 0.14907 -0.16100
H 	H 	0.20760 0.35290 0.15980 0.07400
La	La	0.04031 0.62265 0.03169 1.49200
O 	O 	0.08716 0.70363 0.96776 -0.33400
O 	O 	0.50820 0.89172 0.61331 -0.31700
N 	N 	0.15300 0.73555 0.93471 -0.06600
N 	N 	0.45690 0.88129 0.65385 -0.10200
C 	C 	0.26340 0.70508 0.92650 0.05500
H 	H 	0.29630 0.66300 0.94520 -0.00600
C 	C 	0.32840 0.73503 0.89102 -0.13400
H 	H 	0.40580 0.71420 0.88590 0.06200
C 	C 	0.27830 0.79670 0.86261 0.05700
C 	C 	0.16910 0.82730 0.87294 -0.13400
H 	H 	0.13640 0.87080 0.85550 0.06400
C 	C 	0.10440 0.79599 0.90861 0.05500
H 	H 	0.02750 0.81690 0.91440 0.00900
C 	C 	0.34980 0.82680 0.82166 -0.00200
H 	H 	0.40720 0.78520 0.81400 0.02300
H 	H 	0.39870 0.87260 0.83310 0.02000
C 	C 	0.28670 0.84690 0.78325 -0.29600
H 	H 	0.22540 0.80530 0.77610 0.10700
H 	H 	0.24150 0.89500 0.79020 0.10500
C 	C 	0.34870 0.86300 0.73690 0.22100
C 	C 	0.47090 0.87960 0.73688 -0.24700
H 	H 	0.51860 0.88690 0.76570 0.10900
C 	C 	0.52510 0.88600 0.69429 0.12300
H 	H 	0.61020 0.89360 0.69450 -0.00400
C 	C 	0.33770 0.87110 0.65370 0.14000
H 	H 	0.28900 0.87010 0.62480 -0.04400
C 	C 	0.28420 0.86210 0.69474 -0.27500
H 	H 	0.19880 0.85500 0.69350 0.11100
O 	O 	0.22311 0.69229 0.07051 -0.29900
O 	O 	0.50609 0.97287 0.45580 -0.40200
N 	N 	0.24800 0.72905 0.11233 -0.10600
N 	N 	0.49226 0.93968 0.41200 -0.09000
C 	C 	0.33700 0.70520 0.14140 0.11800
H 	H 	0.38140 0.66000 0.13380 -0.01400
C 	C 	0.36930 0.74390 0.18338 -0.22000
H 	H 	0.43500 0.72400 0.20350 0.09500
C 	C 	0.30930 0.81044 0.19698 0.17400
C 	C 	0.21710 0.83140 0.16607 -0.22700
H 	H 	0.16970 0.87550 0.17330 0.09600
C 	C 	0.18640 0.79220 0.12371 0.11300
H 	H 	0.12110 0.81090 0.10300 -0.02900
C 	C 	0.34060 0.85650 0.24367 -0.20200
H 	H 	0.26960 0.85320 0.26240 0.08000
H 	H 	0.35120 0.91240 0.23570 0.08200
C 	C 	0.44870 0.83136 0.27354 -0.12500
H 	H 	0.44390 0.77400 0.27830 0.05800
H 	H 	0.52160 0.84180 0.25670 0.05800
C 	C 	0.46540 0.87187 0.32225 0.11200
C 	C 	0.57520 0.90477 0.33969 -0.15800
H 	H 	0.64170 0.90500 0.32080 0.08000
C 	C 	0.58950 0.93789 0.38511 0.07700
H 	H 	0.66560 0.95870 0.39690 -0.00700
C 	C 	0.38210 0.91114 0.39501 0.06100
H 	H 	0.31450 0.91560 0.41310 -0.02800
C 	C 	0.36840 0.87529 0.35093 -0.16100
H 	H 	0.29240 0.85290 0.34020 0.07400
