data_crystal

_cell_length_a 17.55100
_cell_length_b 21.14800
_cell_length_c 25.35600
_cell_angle_alpha 90.00000
_cell_angle_beta  90.00000
_cell_angle_gamma 90.00000

_symmetry_space_group_name_	'P 1'
_symmetry_space_group_name_H-M	'P 1'

loop_
_symmetry_equiv_pos_as_xyz
  x,y,z

loop_
_atom_site_label
_atom_site_type_symbol
_atom_site_fract_x
_atom_site_fract_y
_atom_site_fract_z
_atom_site_charge
Co	Co	0.00325 0.93621 0.68079 1.16100
Co	Co	0.49675 0.43621 0.31921 1.16200
Co	Co	0.00325 0.93621 0.81921 1.16100
Co	Co	0.49675 0.43621 0.18079 1.16200
Co	Co	0.38723 0.33676 0.25000 1.17100
Co	Co	0.11277 0.83676 0.75000 1.17100
H 	H 	0.40300 0.18920 0.36210 0.02300
H 	H 	0.61740 0.10840 0.51770 0.06900
H 	H 	0.30100 0.08050 0.57600 0.07100
H 	H 	0.51650 0.98890 0.61840 0.06500
H 	H 	0.57600 0.21640 0.49780 0.07300
H 	H 	0.56490 0.29200 0.43260 0.03100
H 	H 	0.19040 0.03900 0.61200 0.02700
H 	H 	0.41200 0.11400 0.42700 0.07500
H 	H 	0.41540 0.92530 0.62030 0.07600
H 	H 	0.30630 0.88600 0.65910 0.02600
H 	H 	0.74090 0.96350 0.68960 0.03400
H 	H 	0.38990 0.08860 0.51640 0.06800
H 	H 	0.62660 0.99860 0.66270 0.06900
H 	H 	0.71090 0.03330 0.51960 0.07100
H 	H 	0.83010 0.01260 0.55140 0.03700
H 	H 	0.09700 0.68920 0.63790 0.02400
H 	H 	0.88260 0.60840 0.48230 0.07100
H 	H 	0.19900 0.58050 0.42400 0.07100
H 	H 	0.98350 0.48890 0.38160 0.06700
H 	H 	0.92400 0.71640 0.50220 0.07200
H 	H 	0.93510 0.79200 0.56740 0.03100
H 	H 	0.30960 0.53900 0.38800 0.02800
H 	H 	0.08800 0.61400 0.57300 0.07500
H 	H 	0.08460 0.42530 0.37970 0.07500
H 	H 	0.19370 0.38600 0.34090 0.02700
H 	H 	0.75910 0.46350 0.31040 0.03500
H 	H 	0.11010 0.58860 0.48360 0.06900
H 	H 	0.87340 0.49860 0.33730 0.06700
H 	H 	0.78910 0.53330 0.48040 0.07100
H 	H 	0.66990 0.51260 0.44860 0.03700
H 	H 	0.40300 0.18920 0.13790 0.02400
H 	H 	0.61740 0.10840 0.98230 0.07000
H 	H 	0.30100 0.08050 0.92400 0.07200
H 	H 	0.51650 0.98890 0.88160 0.06600
H 	H 	0.57600 0.21640 0.00220 0.07200
H 	H 	0.56490 0.29200 0.06740 0.03100
H 	H 	0.19040 0.03900 0.88800 0.02700
H 	H 	0.41200 0.11400 0.07300 0.07500
H 	H 	0.41540 0.92530 0.87970 0.07600
H 	H 	0.30630 0.88600 0.84090 0.02600
H 	H 	0.74090 0.96350 0.81040 0.03400
H 	H 	0.38990 0.08860 0.98360 0.06800
H 	H 	0.62660 0.99860 0.83730 0.06900
H 	H 	0.71090 0.03330 0.98040 0.07100
H 	H 	0.83010 0.01260 0.94860 0.03700
H 	H 	0.09700 0.68920 0.86210 0.02400
H 	H 	0.88260 0.60840 0.01770 0.07000
H 	H 	0.19900 0.58050 0.07600 0.07100
H 	H 	0.98350 0.48890 0.11840 0.06700
H 	H 	0.92400 0.71640 0.99780 0.07200
H 	H 	0.93510 0.79200 0.93260 0.03100
H 	H 	0.30960 0.53900 0.11200 0.02800
H 	H 	0.08800 0.61400 0.92700 0.07500
H 	H 	0.08460 0.42530 0.12030 0.07500
H 	H 	0.19370 0.38600 0.15910 0.02700
H 	H 	0.75910 0.46350 0.18960 0.03500
H 	H 	0.11010 0.58860 0.01640 0.06900
H 	H 	0.87340 0.49860 0.16270 0.06700
H 	H 	0.78910 0.53330 0.01960 0.07100
H 	H 	0.66990 0.51260 0.05140 0.03700
C 	C 	0.57930 0.04460 0.57067 0.04100
C 	C 	0.87780 0.96948 0.64880 0.33800
C 	C 	0.43750 0.19484 0.38949 0.05300
C 	C 	0.50298 0.10730 0.51048 0.04000
C 	C 	0.57340 0.08968 0.53087 -0.10800
C 	C 	0.48200 0.24920 0.39093 -0.12600
C 	C 	0.30220 0.04110 0.59229 -0.11900
C 	C 	0.65570 0.02530 0.59005 0.04200
C 	C 	0.79990 0.98897 0.62656 -0.09600
C 	C 	0.49640 0.15490 0.46815 0.04900
C 	C 	0.51300 0.01810 0.59107 -0.10600
C 	C 	0.23700 0.95906 0.63982 -0.13300
C 	C 	0.54150 0.21055 0.47031 -0.11500
C 	C 	0.37070 0.00730 0.59423 0.05100
C 	C 	0.47270 0.29957 0.34990 0.39300
C 	C 	0.53420 0.25611 0.43147 0.05100
C 	C 	0.23580 0.01649 0.61442 0.05400
C 	C 	0.44370 0.14915 0.42804 -0.12300
C 	C 	0.16580 0.93375 0.66609 0.40500
C 	C 	0.44130 0.03444 0.57136 0.04000
C 	C 	0.37070 0.94881 0.61905 -0.12200
C 	C 	0.30500 0.92493 0.64209 0.05400
C 	C 	0.73670 0.98210 0.65651 0.03800
C 	C 	0.43710 0.07828 0.53058 -0.10500
C 	C 	0.66770 0.00150 0.63973 -0.11500
C 	C 	0.71780 0.02410 0.55520 -0.10800
C 	C 	0.78830 0.00930 0.57390 0.03000
C 	C 	0.92070 0.54460 0.42933 0.04300
C 	C 	0.62220 0.46948 0.35120 0.33800
C 	C 	0.06250 0.69484 0.61051 0.05300
C 	C 	0.99702 0.60730 0.48952 0.04300
C 	C 	0.92660 0.58968 0.46913 -0.11000
C 	C 	0.01800 0.74920 0.60907 -0.12700
C 	C 	0.19780 0.54110 0.40771 -0.11600
C 	C 	0.84430 0.52530 0.40995 0.04000
C 	C 	0.70010 0.48897 0.37344 -0.09700
C 	C 	0.00360 0.65490 0.53185 0.04600
C 	C 	0.98700 0.51810 0.40893 -0.10800
C 	C 	0.26300 0.45906 0.36018 -0.13000
C 	C 	0.95850 0.71055 0.52969 -0.11400
C 	C 	0.12930 0.50730 0.40577 0.04800
C 	C 	0.02730 0.79957 0.65010 0.39300
C 	C 	0.96580 0.75611 0.56853 0.05200
C 	C 	0.26420 0.51649 0.38558 0.04900
C 	C 	0.05630 0.64915 0.57196 -0.12200
C 	C 	0.33420 0.43375 0.33391 0.40300
C 	C 	0.05870 0.53444 0.42864 0.04200
C 	C 	0.12930 0.44881 0.38095 -0.11800
C 	C 	0.19500 0.42493 0.35791 0.05000
C 	C 	0.76330 0.48210 0.34349 0.03500
C 	C 	0.06290 0.57828 0.46942 -0.10800
C 	C 	0.83230 0.50150 0.36027 -0.11000
C 	C 	0.78220 0.52410 0.44480 -0.10700
C 	C 	0.71170 0.50930 0.42610 0.03100
C 	C 	0.57930 0.04460 0.92933 0.04100
C 	C 	0.87780 0.96948 0.85120 0.33800
C 	C 	0.43750 0.19484 0.11051 0.05300
C 	C 	0.50298 0.10730 0.98952 0.04000
C 	C 	0.57340 0.08968 0.96913 -0.10800
C 	C 	0.48200 0.24920 0.10907 -0.12600
C 	C 	0.30220 0.04110 0.90771 -0.11900
C 	C 	0.65570 0.02530 0.90995 0.04200
C 	C 	0.79990 0.98897 0.87344 -0.09600
C 	C 	0.49640 0.15490 0.03185 0.04800
C 	C 	0.51300 0.01810 0.90893 -0.10600
C 	C 	0.23700 0.95906 0.86018 -0.13400
C 	C 	0.54150 0.21055 0.02969 -0.11500
C 	C 	0.37070 0.00730 0.90577 0.05100
C 	C 	0.47270 0.29957 0.15010 0.39300
C 	C 	0.53420 0.25611 0.06853 0.05100
C 	C 	0.23580 0.01649 0.88558 0.05400
C 	C 	0.44370 0.14915 0.07196 -0.12300
C 	C 	0.16580 0.93375 0.83391 0.40500
C 	C 	0.44130 0.03444 0.92864 0.04000
C 	C 	0.37070 0.94881 0.88095 -0.12200
C 	C 	0.30500 0.92493 0.85791 0.05400
C 	C 	0.73670 0.98210 0.84349 0.03800
C 	C 	0.43710 0.07828 0.96942 -0.10500
C 	C 	0.66770 0.00150 0.86027 -0.11400
C 	C 	0.71780 0.02410 0.94480 -0.10800
C 	C 	0.78830 0.00930 0.92610 0.03000
C 	C 	0.92070 0.54460 0.07067 0.04300
C 	C 	0.62220 0.46948 0.14880 0.33800
C 	C 	0.06250 0.69484 0.88949 0.05300
C 	C 	0.99702 0.60730 0.01048 0.04200
C 	C 	0.92660 0.58968 0.03087 -0.11000
C 	C 	0.01800 0.74920 0.89093 -0.12800
C 	C 	0.19780 0.54110 0.09229 -0.11600
C 	C 	0.84430 0.52530 0.09005 0.04000
C 	C 	0.70010 0.48897 0.12656 -0.09600
C 	C 	0.00360 0.65490 0.96815 0.04500
C 	C 	0.98700 0.51810 0.09107 -0.10900
C 	C 	0.26300 0.45906 0.13982 -0.13000
C 	C 	0.95850 0.71055 0.97031 -0.11300
C 	C 	0.12930 0.50730 0.09423 0.04800
C 	C 	0.02730 0.79957 0.84990 0.39300
C 	C 	0.96580 0.75611 0.93147 0.05300
C 	C 	0.26420 0.51649 0.11442 0.04900
C 	C 	0.05630 0.64915 0.92804 -0.12200
C 	C 	0.33420 0.43375 0.16609 0.40300
C 	C 	0.05870 0.53444 0.07136 0.04300
C 	C 	0.12930 0.44881 0.11905 -0.11800
C 	C 	0.19500 0.42493 0.14209 0.05100
C 	C 	0.76330 0.48210 0.15651 0.03500
C 	C 	0.06290 0.57828 0.03058 -0.10600
C 	C 	0.83230 0.50150 0.13973 -0.11000
C 	C 	0.78220 0.52410 0.05520 -0.10700
C 	C 	0.71170 0.50930 0.07390 0.03100
O 	O 	0.10643 0.96579 0.66042 -0.47400
O 	O 	0.43878 0.28345 0.30852 -0.42700
O 	O 	0.49970 0.35284 0.36076 -0.42200
O 	O 	0.17289 0.88467 0.69265 -0.46100
O 	O 	0.87920 0.93487 0.68598 -0.38900
O 	O 	0.93510 0.98831 0.62490 -0.38600
O 	O 	0.39357 0.46579 0.33958 -0.47300
O 	O 	0.06122 0.78345 0.69148 -0.42700
O 	O 	0.00030 0.85284 0.63924 -0.42300
O 	O 	0.32711 0.38467 0.30735 -0.46000
O 	O 	0.62080 0.43487 0.31402 -0.39000
O 	O 	0.56490 0.48831 0.37510 -0.38700
O 	O 	0.10643 0.96579 0.83958 -0.47400
O 	O 	0.43878 0.28345 0.19148 -0.42700
O 	O 	0.49970 0.35284 0.13924 -0.42200
O 	O 	0.17289 0.88467 0.80735 -0.46100
O 	O 	0.87920 0.93487 0.81402 -0.38900
O 	O 	0.93510 0.98831 0.87510 -0.38600
O 	O 	0.39357 0.46579 0.16042 -0.47300
O 	O 	0.06122 0.78345 0.80852 -0.42800
O 	O 	0.00030 0.85284 0.86076 -0.42300
O 	O 	0.32711 0.38467 0.19265 -0.46000
O 	O 	0.62080 0.43487 0.18598 -0.39000
O 	O 	0.56490 0.48831 0.12490 -0.38700
O 	O 	0.48423 0.39301 0.25000 -0.61600
O 	O 	0.01577 0.89301 0.75000 -0.61600
Co	Co	0.99675 0.06379 0.18079 1.16200
Co	Co	0.50325 0.56379 0.81921 1.16300
Co	Co	0.99675 0.06379 0.31921 1.16200
Co	Co	0.50325 0.56379 0.68079 1.16300
Co	Co	0.61277 0.66324 0.75000 1.17200
Co	Co	0.88723 0.16324 0.25000 1.17200
H 	H 	0.59700 0.81080 0.86210 0.02400
H 	H 	0.38260 0.89160 0.01770 0.07000
H 	H 	0.69900 0.91950 0.07600 0.07200
H 	H 	0.48350 0.01110 0.11840 0.06600
H 	H 	0.42400 0.78360 0.99780 0.07200
H 	H 	0.43510 0.70800 0.93260 0.03100
H 	H 	0.80960 0.96100 0.11200 0.02700
H 	H 	0.58800 0.88600 0.92700 0.07500
H 	H 	0.58460 0.07470 0.12030 0.07600
H 	H 	0.69370 0.11400 0.15910 0.02600
H 	H 	0.25910 0.03650 0.18960 0.03400
H 	H 	0.61010 0.91140 0.01640 0.06800
H 	H 	0.37340 0.00140 0.16270 0.06900
H 	H 	0.28910 0.96670 0.01960 0.07100
H 	H 	0.16990 0.98740 0.05140 0.03700
H 	H 	0.90300 0.31080 0.13790 0.02400
H 	H 	0.11740 0.39160 0.98230 0.07000
H 	H 	0.80100 0.41950 0.92400 0.07100
H 	H 	0.01650 0.51110 0.88160 0.06700
H 	H 	0.07600 0.28360 0.00220 0.07200
H 	H 	0.06490 0.20800 0.06740 0.03100
H 	H 	0.69040 0.46100 0.88800 0.02800
H 	H 	0.91200 0.38600 0.07300 0.07500
H 	H 	0.91540 0.57470 0.87970 0.07500
H 	H 	0.80630 0.61400 0.84090 0.02700
H 	H 	0.24090 0.53650 0.81040 0.03500
H 	H 	0.88990 0.41140 0.98360 0.06900
H 	H 	0.12660 0.50140 0.83730 0.06700
H 	H 	0.21090 0.46670 0.98040 0.07100
H 	H 	0.33010 0.48740 0.94860 0.03700
H 	H 	0.59700 0.81080 0.63790 0.02400
H 	H 	0.38260 0.89160 0.48230 0.07000
H 	H 	0.69900 0.91950 0.42400 0.07200
H 	H 	0.48350 0.01110 0.38160 0.06600
H 	H 	0.42400 0.78360 0.50220 0.07300
H 	H 	0.43510 0.70800 0.56740 0.03100
H 	H 	0.80960 0.96100 0.38800 0.02700
H 	H 	0.58800 0.88600 0.57300 0.07500
H 	H 	0.58460 0.07470 0.37970 0.07600
H 	H 	0.69370 0.11400 0.34090 0.02600
H 	H 	0.25910 0.03650 0.31040 0.03400
H 	H 	0.61010 0.91140 0.48360 0.06800
H 	H 	0.37340 0.00140 0.33730 0.06900
H 	H 	0.28910 0.96670 0.48040 0.07100
H 	H 	0.16990 0.98740 0.44860 0.03700
H 	H 	0.90300 0.31080 0.36210 0.02400
H 	H 	0.11740 0.39160 0.51770 0.07100
H 	H 	0.80100 0.41950 0.57600 0.07100
H 	H 	0.01650 0.51110 0.61840 0.06700
H 	H 	0.07600 0.28360 0.49780 0.07200
H 	H 	0.06490 0.20800 0.43260 0.03100
H 	H 	0.69040 0.46100 0.61200 0.02800
H 	H 	0.91200 0.38600 0.42700 0.07500
H 	H 	0.91540 0.57470 0.62030 0.07500
H 	H 	0.80630 0.61400 0.65910 0.02700
H 	H 	0.24090 0.53650 0.68960 0.03500
H 	H 	0.88990 0.41140 0.51640 0.06900
H 	H 	0.12660 0.50140 0.66270 0.06700
H 	H 	0.21090 0.46670 0.51960 0.07100
H 	H 	0.33010 0.48740 0.55140 0.03700
C 	C 	0.42070 0.95540 0.07067 0.04100
C 	C 	0.12220 0.03052 0.14880 0.33800
C 	C 	0.56250 0.80516 0.88949 0.05300
C 	C 	0.49702 0.89270 0.01048 0.04000
C 	C 	0.42660 0.91032 0.03087 -0.10800
C 	C 	0.51800 0.75080 0.89093 -0.12600
C 	C 	0.69780 0.95890 0.09229 -0.11900
C 	C 	0.34430 0.97470 0.09005 0.04200
C 	C 	0.20010 0.01103 0.12656 -0.09600
C 	C 	0.50360 0.84510 0.96815 0.04800
C 	C 	0.48700 0.98190 0.09107 -0.10600
C 	C 	0.76300 0.04094 0.13982 -0.13400
C 	C 	0.45850 0.78945 0.97031 -0.11500
C 	C 	0.62930 0.99270 0.09423 0.05100
C 	C 	0.52730 0.70043 0.84990 0.39300
C 	C 	0.46580 0.74389 0.93147 0.05100
C 	C 	0.76420 0.98351 0.11442 0.05400
C 	C 	0.55630 0.85085 0.92804 -0.12300
C 	C 	0.83420 0.06625 0.16609 0.40500
C 	C 	0.55870 0.96556 0.07136 0.04000
C 	C 	0.62930 0.05119 0.11905 -0.12200
C 	C 	0.69500 0.07507 0.14209 0.05400
C 	C 	0.26330 0.01790 0.15651 0.03800
C 	C 	0.56290 0.92172 0.03058 -0.10500
C 	C 	0.33230 0.99850 0.13973 -0.11400
C 	C 	0.28220 0.97590 0.05520 -0.10800
C 	C 	0.21170 0.99070 0.07390 0.03000
C 	C 	0.07930 0.45540 0.92933 0.04300
C 	C 	0.37780 0.53052 0.85120 0.33800
C 	C 	0.93750 0.30516 0.11051 0.05300
C 	C 	0.00298 0.39270 0.98952 0.04200
C 	C 	0.07340 0.41032 0.96913 -0.11000
C 	C 	0.98200 0.25080 0.10907 -0.12800
C 	C 	0.80220 0.45890 0.90771 -0.11600
C 	C 	0.15570 0.47470 0.90995 0.04000
C 	C 	0.29990 0.51103 0.87344 -0.09600
C 	C 	0.99640 0.34510 0.03185 0.04500
C 	C 	0.01300 0.48190 0.90893 -0.10900
C 	C 	0.73700 0.54094 0.86018 -0.13000
C 	C 	0.04150 0.28945 0.02969 -0.11300
C 	C 	0.87070 0.49270 0.90577 0.04800
C 	C 	0.97270 0.20043 0.15010 0.39300
C 	C 	0.03420 0.24389 0.06853 0.05300
C 	C 	0.73580 0.48351 0.88558 0.04900
C 	C 	0.94370 0.35085 0.07196 -0.12200
C 	C 	0.66580 0.56625 0.83391 0.40300
C 	C 	0.94130 0.46556 0.92864 0.04300
C 	C 	0.87070 0.55119 0.88095 -0.11800
C 	C 	0.80500 0.57507 0.85791 0.05100
C 	C 	0.23670 0.51790 0.84349 0.03500
C 	C 	0.93710 0.42172 0.96942 -0.10600
C 	C 	0.16770 0.49850 0.86027 -0.11000
C 	C 	0.21780 0.47590 0.94480 -0.10700
C 	C 	0.28830 0.49070 0.92610 0.03100
C 	C 	0.42070 0.95540 0.42933 0.04100
C 	C 	0.12220 0.03052 0.35120 0.33800
C 	C 	0.56250 0.80516 0.61051 0.05300
C 	C 	0.49702 0.89270 0.48952 0.04000
C 	C 	0.42660 0.91032 0.46913 -0.10800
C 	C 	0.51800 0.75080 0.60907 -0.12600
C 	C 	0.69780 0.95890 0.40771 -0.11900
C 	C 	0.34430 0.97470 0.40995 0.04200
C 	C 	0.20010 0.01103 0.37344 -0.09600
C 	C 	0.50360 0.84510 0.53185 0.04900
C 	C 	0.48700 0.98190 0.40893 -0.10600
C 	C 	0.76300 0.04094 0.36018 -0.13300
C 	C 	0.45850 0.78945 0.52969 -0.11500
C 	C 	0.62930 0.99270 0.40577 0.05100
C 	C 	0.52730 0.70043 0.65010 0.39300
C 	C 	0.46580 0.74389 0.56853 0.05100
C 	C 	0.76420 0.98351 0.38558 0.05400
C 	C 	0.55630 0.85085 0.57196 -0.12300
C 	C 	0.83420 0.06625 0.33391 0.40500
C 	C 	0.55870 0.96556 0.42864 0.04000
C 	C 	0.62930 0.05119 0.38095 -0.12200
C 	C 	0.69500 0.07507 0.35791 0.05400
C 	C 	0.26330 0.01790 0.34349 0.03800
C 	C 	0.56290 0.92172 0.46942 -0.10500
C 	C 	0.33230 0.99850 0.36027 -0.11500
C 	C 	0.28220 0.97590 0.44480 -0.10800
C 	C 	0.21170 0.99070 0.42610 0.03000
C 	C 	0.07930 0.45540 0.57067 0.04300
C 	C 	0.37780 0.53052 0.64880 0.33800
C 	C 	0.93750 0.30516 0.38949 0.05300
C 	C 	0.00298 0.39270 0.51048 0.04300
C 	C 	0.07340 0.41032 0.53087 -0.11000
C 	C 	0.98200 0.25080 0.39093 -0.12700
C 	C 	0.80220 0.45890 0.59229 -0.11600
C 	C 	0.15570 0.47470 0.59005 0.04000
C 	C 	0.29990 0.51103 0.62656 -0.09700
C 	C 	0.99640 0.34510 0.46815 0.04600
C 	C 	0.01300 0.48190 0.59107 -0.10800
C 	C 	0.73700 0.54094 0.63982 -0.13000
C 	C 	0.04150 0.28945 0.47031 -0.11400
C 	C 	0.87070 0.49270 0.59423 0.04800
C 	C 	0.97270 0.20043 0.34990 0.39300
C 	C 	0.03420 0.24389 0.43147 0.05200
C 	C 	0.73580 0.48351 0.61442 0.04900
C 	C 	0.94370 0.35085 0.42804 -0.12200
C 	C 	0.66580 0.56625 0.66609 0.40300
C 	C 	0.94130 0.46556 0.57136 0.04200
C 	C 	0.87070 0.55119 0.61905 -0.11800
C 	C 	0.80500 0.57507 0.64209 0.05000
C 	C 	0.23670 0.51790 0.65651 0.03500
C 	C 	0.93710 0.42172 0.53058 -0.10800
C 	C 	0.16770 0.49850 0.63973 -0.11000
C 	C 	0.21780 0.47590 0.55520 -0.10700
C 	C 	0.28830 0.49070 0.57390 0.03100
O 	O 	0.89357 0.03421 0.16042 -0.47400
O 	O 	0.56122 0.71655 0.80852 -0.42700
O 	O 	0.50030 0.64716 0.86076 -0.42200
O 	O 	0.82711 0.11533 0.19265 -0.46100
O 	O 	0.12080 0.06513 0.18598 -0.38900
O 	O 	0.06490 0.01169 0.12490 -0.38600
O 	O 	0.60643 0.53421 0.83958 -0.47300
O 	O 	0.93878 0.21655 0.19148 -0.42800
O 	O 	0.99970 0.14716 0.13924 -0.42300
O 	O 	0.67289 0.61533 0.80735 -0.46000
O 	O 	0.37920 0.56513 0.81402 -0.39000
O 	O 	0.43510 0.51169 0.87510 -0.38700
O 	O 	0.89357 0.03421 0.33958 -0.47400
O 	O 	0.56122 0.71655 0.69148 -0.42700
O 	O 	0.50030 0.64716 0.63924 -0.42200
O 	O 	0.82711 0.11533 0.30735 -0.46100
O 	O 	0.12080 0.06513 0.31402 -0.38900
O 	O 	0.06490 0.01169 0.37510 -0.38600
O 	O 	0.60643 0.53421 0.66042 -0.47300
O 	O 	0.93878 0.21655 0.30852 -0.42700
O 	O 	0.99970 0.14716 0.36076 -0.42300
O 	O 	0.67289 0.61533 0.69265 -0.46000
O 	O 	0.37920 0.56513 0.68598 -0.39000
O 	O 	0.43510 0.51169 0.62490 -0.38700
O 	O 	0.51577 0.60699 0.75000 -0.61600
O 	O 	0.98423 0.10699 0.25000 -0.61600
