data_crystal

_cell_length_a 14.44440
_cell_length_b 14.71160
_cell_length_c 30.77200
_cell_angle_alpha 90.00000
_cell_angle_beta  96.96600
_cell_angle_gamma 90.00000

_symmetry_space_group_name_	'P 1'
_symmetry_space_group_name_H-M	'P 1'

loop_
_symmetry_equiv_pos_as_xyz
  x,y,z

loop_
_atom_site_label
_atom_site_type_symbol
_atom_site_fract_x
_atom_site_fract_y
_atom_site_fract_z
_atom_site_charge
C 	C 	0.13430 0.32940 0.54920 -0.05500
C 	C 	0.45970 0.31690 0.55200 -0.06200
C 	C 	0.45890 0.64160 0.55670 -0.04200
C 	C 	0.95040 0.13290 0.55620 -0.03400
C 	C 	0.27310 0.40120 0.45540 0.05800
H 	H 	0.24870 0.35150 0.47010 -0.02200
C 	C 	0.34500 0.53800 0.45720 0.08100
H 	H 	0.37130 0.58860 0.47340 -0.03400
C 	C 	0.27180 0.39680 0.41070 -0.15300
H 	H 	0.24450 0.34560 0.39520 0.06600
C 	C 	0.34860 0.53790 0.41290 -0.15000
H 	H 	0.37750 0.58650 0.39930 0.07400
C 	C 	0.30910 0.46510 0.38820 0.06900
C 	C 	0.30380 0.46640 0.34010 0.02900
C 	C 	0.22900 0.42950 0.31320 -0.05200
H 	H 	0.18030 0.39870 0.32530 0.04000
C 	C 	0.22710 0.43840 0.26940 -0.05700
H 	H 	0.17630 0.41540 0.25000 0.04400
C 	C 	0.30050 0.48160 0.25340 0.03700
C 	C 	0.30330 0.49480 0.20570 0.07000
C 	C 	0.22060 0.50010 0.17730 -0.14300
H 	H 	0.16220 0.49730 0.18850 0.07100
C 	C 	0.38610 0.50240 0.18740 -0.13700
H 	H 	0.44410 0.50140 0.20560 0.09000
C 	C 	0.22390 0.50940 0.13320 0.07900
H 	H 	0.16670 0.51300 0.11440 -0.02200
C 	C 	0.38370 0.51140 0.14270 0.07700
H 	H 	0.44110 0.51630 0.13070 -0.00500
N 	N 	0.19300 0.38200 0.54720 -0.22600
N 	N 	0.40370 0.37220 0.55620 -0.22100
N 	N 	0.40850 0.58190 0.55650 -0.22800
N 	N 	0.89900 0.07370 0.55440 -0.24600
N 	N 	0.30780 0.47320 0.47910 -0.24700
N 	N 	0.37410 0.50850 0.32350 -0.08600
N 	N 	0.37280 0.51530 0.28000 -0.08600
N 	N 	0.30370 0.51350 0.11540 -0.25400
Fe	Fe	0.30264 0.48066 0.54986 1.12100
Au	Au	0.04099 0.23334 0.55268 0.27600
Au	Au	0.55408 0.22598 0.54351 0.27100
Au	Au	0.54989 0.74145 0.55268 0.27300
C 	C 	0.15250 0.36750 0.04010 -0.04400
C 	C 	0.14700 0.66160 0.04930 -0.03300
C 	C 	0.45100 0.66970 0.05250 -0.03800
C 	C 	0.64520 0.85670 0.04100 -0.05500
C 	C 	0.32830 0.45400 0.96130 0.08000
H 	H 	0.34680 0.40000 0.97690 -0.03400
C 	C 	0.27860 0.60000 0.96100 0.06400
H 	H 	0.26300 0.65280 0.97640 -0.02200
C 	C 	0.33060 0.45420 0.91710 -0.15000
H 	H 	0.35100 0.40190 0.90290 0.07000
C 	C 	0.27590 0.60540 0.91570 -0.15500
H 	H 	0.25580 0.65950 0.90060 0.06700
C 	C 	0.30300 0.53090 0.89310 0.07000
C 	C 	0.29990 0.53200 0.84470 0.03100
C 	C 	0.22690 0.57480 0.81810 -0.05500
H 	H 	0.18010 0.60830 0.83030 0.04100
C 	C 	0.22590 0.56620 0.77410 -0.05500
H 	H 	0.17780 0.59340 0.75460 0.04400
C 	C 	0.29630 0.51690 0.75810 0.03600
C 	C 	0.30050 0.50460 0.71030 0.07300
C 	C 	0.38330 0.49940 0.69260 -0.14000
H 	H 	0.44110 0.50240 0.71100 0.09100
C 	C 	0.38160 0.49000 0.64820 0.07600
H 	H 	0.43940 0.48650 0.63650 -0.00500
C 	C 	0.22270 0.48960 0.63780 0.07800
H 	H 	0.16580 0.48550 0.61880 -0.02200
C 	C 	0.21820 0.49920 0.68180 -0.14400
H 	H 	0.15950 0.50210 0.69280 0.07100
N 	N 	0.20800 0.42320 0.04260 -0.24600
N 	N 	0.20370 0.61030 0.04755 -0.24900
N 	N 	0.39600 0.61560 0.05450 -0.24600
N 	N 	0.70120 0.91290 0.04090 -0.22800
N 	N 	0.30180 0.52460 0.98416 -0.25800
N 	N 	0.36740 0.48660 0.82850 -0.08800
N 	N 	0.36700 0.48030 0.78470 -0.08600
N 	N 	0.30250 0.48560 0.62030 -0.24400
Fe	Fe	0.30226 0.51916 0.04978 1.17100
Au	Au	0.54722 0.76414 0.04479 0.27000
C 	C 	0.65250 0.13250 0.54010 -0.04400
C 	C 	0.64700 0.83840 0.54930 -0.03400
C 	C 	0.95100 0.83030 0.55250 -0.03900
C 	C 	0.14520 0.64330 0.54100 -0.05500
C 	C 	0.82830 0.04600 0.46130 0.08000
H 	H 	0.84680 0.10000 0.47690 -0.03400
C 	C 	0.77860 0.90000 0.46100 0.06400
H 	H 	0.76300 0.84720 0.47640 -0.02200
C 	C 	0.83060 0.04580 0.41710 -0.15000
H 	H 	0.85100 0.09810 0.40290 0.07000
C 	C 	0.77590 0.89460 0.41570 -0.15500
H 	H 	0.75580 0.84050 0.40060 0.06700
C 	C 	0.80300 0.96910 0.39310 0.06900
C 	C 	0.79990 0.96800 0.34470 0.03100
C 	C 	0.72690 0.92520 0.31810 -0.05500
H 	H 	0.68010 0.89170 0.33030 0.04100
C 	C 	0.72590 0.93380 0.27410 -0.05600
H 	H 	0.67780 0.90660 0.25460 0.04400
C 	C 	0.79630 0.98310 0.25810 0.03600
C 	C 	0.80050 0.99540 0.21030 0.07100
C 	C 	0.88330 0.00060 0.19260 -0.13800
H 	H 	0.94110 0.99760 0.21100 0.09000
C 	C 	0.88160 0.01000 0.14820 0.07500
H 	H 	0.93940 0.01350 0.13650 -0.00500
C 	C 	0.72270 0.01040 0.13780 0.07700
H 	H 	0.66580 0.01450 0.11880 -0.02200
C 	C 	0.71820 0.00080 0.18180 -0.14300
H 	H 	0.65950 0.99790 0.19280 0.07100
N 	N 	0.70800 0.07680 0.54260 -0.24600
N 	N 	0.70370 0.88970 0.54755 -0.24900
N 	N 	0.89600 0.88440 0.55450 -0.24600
N 	N 	0.20120 0.58710 0.54090 -0.22800
N 	N 	0.80180 0.97540 0.48416 -0.25800
N 	N 	0.86740 0.01340 0.32850 -0.08700
N 	N 	0.86700 0.01970 0.28470 -0.08600
N 	N 	0.80250 0.01440 0.12030 -0.24400
Fe	Fe	0.80226 0.98084 0.54978 1.17100
Au	Au	0.04722 0.73586 0.54479 0.27000
C 	C 	0.63430 0.17060 0.04920 -0.05400
C 	C 	0.95970 0.18310 0.05200 -0.06000
C 	C 	0.95890 0.85840 0.05670 -0.04100
C 	C 	0.45040 0.36710 0.05620 -0.03400
C 	C 	0.77310 0.09880 0.95540 0.05800
H 	H 	0.74870 0.14850 0.97010 -0.02200
C 	C 	0.84500 0.96200 0.95720 0.08000
H 	H 	0.87130 0.91140 0.97340 -0.03500
C 	C 	0.77180 0.10320 0.91070 -0.15300
H 	H 	0.74450 0.15440 0.89520 0.06600
C 	C 	0.84860 0.96210 0.91290 -0.15000
H 	H 	0.87750 0.91350 0.89930 0.07400
C 	C 	0.80910 0.03490 0.88820 0.07000
C 	C 	0.80380 0.03360 0.84010 0.03000
C 	C 	0.72900 0.07050 0.81320 -0.05200
H 	H 	0.68030 0.10130 0.82530 0.04000
C 	C 	0.72710 0.06160 0.76940 -0.05700
H 	H 	0.67630 0.08460 0.75000 0.04400
C 	C 	0.80050 0.01840 0.75340 0.03800
C 	C 	0.80330 0.00520 0.70570 0.07100
C 	C 	0.72060 0.99990 0.67730 -0.14400
H 	H 	0.66220 0.00270 0.68850 0.07100
C 	C 	0.88610 0.99760 0.68740 -0.13800
H 	H 	0.94410 0.99860 0.70560 0.09000
C 	C 	0.72390 0.99060 0.63320 0.07900
H 	H 	0.66670 0.98700 0.61440 -0.02200
C 	C 	0.88370 0.98860 0.64270 0.07700
H 	H 	0.94110 0.98370 0.63070 -0.00500
N 	N 	0.69300 0.11800 0.04720 -0.22600
N 	N 	0.90370 0.12780 0.05620 -0.22100
N 	N 	0.90850 0.91810 0.05650 -0.22800
N 	N 	0.39900 0.42630 0.05440 -0.24600
N 	N 	0.80780 0.02680 0.97910 -0.24600
N 	N 	0.87410 0.99150 0.82350 -0.08700
N 	N 	0.87280 0.98470 0.78000 -0.08600
N 	N 	0.80370 0.98650 0.61540 -0.25400
Fe	Fe	0.80264 0.01934 0.04986 1.12100
Au	Au	0.54099 0.26666 0.05268 0.27600
Au	Au	0.05408 0.27402 0.04351 0.27100
Au	Au	0.04989 0.75855 0.05268 0.27300
C 	C 	0.34750 0.86750 0.45990 -0.04400
C 	C 	0.35300 0.16160 0.45070 -0.03400
C 	C 	0.04900 0.16970 0.44750 -0.03900
C 	C 	0.85480 0.35670 0.45900 -0.05500
C 	C 	0.17170 0.95400 0.53870 0.08000
H 	H 	0.15320 0.90000 0.52310 -0.03400
C 	C 	0.22140 0.10000 0.53900 0.06400
H 	H 	0.23700 0.15280 0.52360 -0.02200
C 	C 	0.16940 0.95420 0.58290 -0.15000
H 	H 	0.14900 0.90190 0.59710 0.07000
C 	C 	0.22410 0.10540 0.58430 -0.15500
H 	H 	0.24420 0.15950 0.59940 0.06700
C 	C 	0.19700 0.03090 0.60690 0.06900
C 	C 	0.20010 0.03200 0.65530 0.03100
C 	C 	0.27310 0.07480 0.68190 -0.05500
H 	H 	0.31990 0.10830 0.66970 0.04100
C 	C 	0.27410 0.06620 0.72590 -0.05600
H 	H 	0.32220 0.09340 0.74540 0.04400
C 	C 	0.20370 0.01690 0.74190 0.03600
C 	C 	0.19950 0.00460 0.78970 0.07100
C 	C 	0.11670 0.99940 0.80740 -0.13800
H 	H 	0.05890 0.00240 0.78900 0.09000
C 	C 	0.11840 0.99000 0.85180 0.07500
H 	H 	0.06060 0.98650 0.86350 -0.00500
C 	C 	0.27730 0.98960 0.86220 0.07700
H 	H 	0.33420 0.98550 0.88120 -0.02200
C 	C 	0.28180 0.99920 0.81820 -0.14300
H 	H 	0.34050 0.00210 0.80720 0.07100
N 	N 	0.29200 0.92320 0.45740 -0.24600
N 	N 	0.29630 0.11030 0.45245 -0.24900
N 	N 	0.10400 0.11560 0.44550 -0.24600
N 	N 	0.79880 0.41290 0.45910 -0.22800
N 	N 	0.19820 0.02460 0.51584 -0.25800
N 	N 	0.13260 0.98660 0.67150 -0.08700
N 	N 	0.13300 0.98030 0.71530 -0.08600
N 	N 	0.19750 0.98560 0.87970 -0.24400
Fe	Fe	0.19774 0.01916 0.45022 1.17100
Au	Au	0.95278 0.26414 0.45521 0.27000
C 	C 	0.36570 0.82940 0.95080 -0.05400
C 	C 	0.04030 0.81690 0.94800 -0.06000
C 	C 	0.04110 0.14160 0.94330 -0.04100
C 	C 	0.54960 0.63290 0.94380 -0.03400
C 	C 	0.22690 0.90120 0.04460 0.05800
H 	H 	0.25130 0.85150 0.02990 -0.02200
C 	C 	0.15500 0.03800 0.04280 0.08000
H 	H 	0.12870 0.08860 0.02660 -0.03500
C 	C 	0.22820 0.89680 0.08930 -0.15300
H 	H 	0.25550 0.84560 0.10480 0.06600
C 	C 	0.15140 0.03790 0.08710 -0.15000
H 	H 	0.12250 0.08650 0.10070 0.07400
C 	C 	0.19090 0.96510 0.11180 0.07000
C 	C 	0.19620 0.96640 0.15990 0.03000
C 	C 	0.27100 0.92950 0.18680 -0.05200
H 	H 	0.31970 0.89870 0.17470 0.04000
C 	C 	0.27290 0.93840 0.23060 -0.05700
H 	H 	0.32370 0.91540 0.25000 0.04400
C 	C 	0.19950 0.98160 0.24660 0.03800
C 	C 	0.19670 0.99480 0.29430 0.07100
C 	C 	0.27940 0.00010 0.32270 -0.14400
H 	H 	0.33780 0.99730 0.31150 0.07100
C 	C 	0.11390 0.00240 0.31260 -0.13800
H 	H 	0.05590 0.00140 0.29440 0.09000
C 	C 	0.27610 0.00940 0.36680 0.07900
H 	H 	0.33330 0.01300 0.38560 -0.02200
C 	C 	0.11630 0.01140 0.35730 0.07700
H 	H 	0.05890 0.01630 0.36930 -0.00500
N 	N 	0.30700 0.88200 0.95280 -0.22600
N 	N 	0.09630 0.87220 0.94380 -0.22100
N 	N 	0.09150 0.08190 0.94350 -0.22800
N 	N 	0.60100 0.57370 0.94560 -0.24600
N 	N 	0.19220 0.97320 0.02090 -0.24600
N 	N 	0.12590 0.00850 0.17650 -0.08700
N 	N 	0.12720 0.01530 0.22000 -0.08600
N 	N 	0.19630 0.01350 0.38460 -0.25400
Fe	Fe	0.19736 0.98066 0.95014 1.12100
Au	Au	0.45901 0.73334 0.94732 0.27600
Au	Au	0.94592 0.72598 0.95649 0.27100
Au	Au	0.95011 0.24145 0.94732 0.27300
C 	C 	0.86570 0.67060 0.45080 -0.05400
C 	C 	0.54030 0.68310 0.44800 -0.06100
C 	C 	0.54110 0.35840 0.44330 -0.04200
C 	C 	0.04960 0.86710 0.44380 -0.03400
C 	C 	0.72690 0.59880 0.54460 0.05800
H 	H 	0.75130 0.64850 0.52990 -0.02200
C 	C 	0.65500 0.46200 0.54280 0.08100
H 	H 	0.62870 0.41140 0.52660 -0.03400
C 	C 	0.72820 0.60320 0.58930 -0.15300
H 	H 	0.75550 0.65440 0.60480 0.06600
C 	C 	0.65140 0.46210 0.58710 -0.15000
H 	H 	0.62250 0.41350 0.60070 0.07400
C 	C 	0.69090 0.53490 0.61180 0.06900
C 	C 	0.69620 0.53360 0.65990 0.02900
C 	C 	0.77100 0.57050 0.68680 -0.05200
H 	H 	0.81970 0.60130 0.67470 0.04000
C 	C 	0.77290 0.56160 0.73060 -0.05700
H 	H 	0.82370 0.58460 0.75000 0.04400
C 	C 	0.69950 0.51840 0.74660 0.03700
C 	C 	0.69670 0.50520 0.79430 0.07000
C 	C 	0.77940 0.49990 0.82270 -0.14300
H 	H 	0.83780 0.50270 0.81150 0.07100
C 	C 	0.61390 0.49760 0.81260 -0.13700
H 	H 	0.55590 0.49860 0.79440 0.09000
C 	C 	0.77610 0.49060 0.86680 0.07900
H 	H 	0.83330 0.48700 0.88560 -0.02200
C 	C 	0.61630 0.48860 0.85730 0.07700
H 	H 	0.55890 0.48370 0.86930 -0.00500
N 	N 	0.80700 0.61800 0.45280 -0.22600
N 	N 	0.59630 0.62780 0.44380 -0.22100
N 	N 	0.59150 0.41810 0.44350 -0.22800
N 	N 	0.10100 0.92630 0.44560 -0.24600
N 	N 	0.69220 0.52680 0.52090 -0.24700
N 	N 	0.62590 0.49150 0.67650 -0.08600
N 	N 	0.62720 0.48470 0.72000 -0.08600
N 	N 	0.69630 0.48650 0.88460 -0.25400
Fe	Fe	0.69736 0.51934 0.45014 1.12100
Au	Au	0.95901 0.76666 0.44732 0.27600
Au	Au	0.44592 0.77402 0.45649 0.27100
Au	Au	0.45011 0.25855 0.44732 0.27300
C 	C 	0.84750 0.63250 0.95990 -0.04400
C 	C 	0.85300 0.33840 0.95070 -0.03300
C 	C 	0.54900 0.33030 0.94750 -0.03800
C 	C 	0.35480 0.14330 0.95900 -0.05500
C 	C 	0.67170 0.54600 0.03870 0.08000
H 	H 	0.65320 0.60000 0.02310 -0.03400
C 	C 	0.72140 0.40000 0.03900 0.06400
H 	H 	0.73700 0.34720 0.02360 -0.02200
C 	C 	0.66940 0.54580 0.08290 -0.15000
H 	H 	0.64900 0.59810 0.09710 0.07000
C 	C 	0.72410 0.39460 0.08430 -0.15500
H 	H 	0.74420 0.34050 0.09940 0.06700
C 	C 	0.69700 0.46910 0.10690 0.07000
C 	C 	0.70010 0.46800 0.15530 0.03100
C 	C 	0.77310 0.42520 0.18190 -0.05500
H 	H 	0.81990 0.39170 0.16970 0.04100
C 	C 	0.77410 0.43380 0.22590 -0.05500
H 	H 	0.82220 0.40660 0.24540 0.04400
C 	C 	0.70370 0.48310 0.24190 0.03600
C 	C 	0.69950 0.49540 0.28970 0.07300
C 	C 	0.61670 0.50060 0.30740 -0.14000
H 	H 	0.55890 0.49760 0.28900 0.09100
C 	C 	0.61840 0.51000 0.35180 0.07600
H 	H 	0.56060 0.51350 0.36350 -0.00500
C 	C 	0.77730 0.51040 0.36220 0.07800
H 	H 	0.83420 0.51450 0.38120 -0.02200
C 	C 	0.78180 0.50080 0.31820 -0.14400
H 	H 	0.84050 0.49790 0.30720 0.07100
N 	N 	0.79200 0.57680 0.95740 -0.24600
N 	N 	0.79630 0.38970 0.95245 -0.24900
N 	N 	0.60400 0.38440 0.94550 -0.24600
N 	N 	0.29880 0.08710 0.95910 -0.22800
N 	N 	0.69820 0.47540 0.01584 -0.25800
N 	N 	0.63260 0.51340 0.17150 -0.08800
N 	N 	0.63300 0.51970 0.21530 -0.08600
N 	N 	0.69750 0.51440 0.37970 -0.24400
Fe	Fe	0.69774 0.48084 0.95022 1.17100
Au	Au	0.45278 0.23586 0.95521 0.27000
