data_crystal

_cell_length_a 15.01350
_cell_length_b 14.92450
_cell_length_c 31.45570
_cell_angle_alpha 90.00000
_cell_angle_beta  98.20600
_cell_angle_gamma 90.00000

_symmetry_space_group_name_	'P 1'
_symmetry_space_group_name_H-M	'P 1'

loop_
_symmetry_equiv_pos_as_xyz
  x,y,z

loop_
_atom_site_label
_atom_site_type_symbol
_atom_site_fract_x
_atom_site_fract_y
_atom_site_fract_z
_atom_site_charge
Fe	Fe	0.69150 0.52066 0.45083 1.11300
Au	Au	0.44626 0.77261 0.45604 0.27000
Au	Au	0.94965 0.76255 0.44758 0.27500
C 	C 	0.85660 0.66820 0.45090 -0.05100
C 	C 	0.54080 0.68380 0.44690 -0.05700
C 	C 	0.53780 0.36250 0.44410 -0.04100
C 	C 	0.84930 0.36260 0.46040 -0.05500
N 	N 	0.79940 0.61730 0.45270 -0.22600
N 	N 	0.59280 0.62860 0.44280 -0.22200
N 	N 	0.58890 0.41930 0.44450 -0.22900
N 	N 	0.79320 0.41530 0.46100 -0.22400
N 	N 	0.69020 0.51050 0.38020 -0.23800
C 	C 	0.76760 0.50620 0.36400 0.07400
H 	H 	0.82150 0.51180 0.38320 -0.02200
C 	C 	0.77350 0.49390 0.32080 -0.14300
H 	H 	0.83000 0.48920 0.31140 0.07100
C 	C 	0.69520 0.48860 0.29150 0.06900
C 	C 	0.61370 0.49570 0.30790 -0.13800
H 	H 	0.55880 0.49420 0.28940 0.09100
C 	C 	0.61470 0.50500 0.35180 0.07500
H 	H 	0.55920 0.50750 0.36230 -0.00500
C 	C 	0.69880 0.47560 0.24440 0.03700
C 	C 	0.77250 0.43850 0.22900 -0.05600
H 	H 	0.82260 0.41880 0.24810 0.04300
N 	N 	0.62540 0.49850 0.17460 -0.08800
N 	N 	0.62650 0.50400 0.21750 -0.08600
C 	C 	0.77130 0.43090 0.18580 -0.05600
H 	H 	0.81980 0.40510 0.17430 0.04100
C 	C 	0.69610 0.46250 0.15940 0.03200
C 	C 	0.69060 0.46160 0.11090 0.07200
C 	C 	0.64550 0.52890 0.08680 -0.15300
H 	H 	0.61450 0.57340 0.10000 0.07600
C 	C 	0.64670 0.53000 0.04350 0.07000
H 	H 	0.61630 0.57690 0.02750 -0.03000
C 	C 	0.72800 0.40190 0.04530 0.07000
H 	H 	0.75450 0.35570 0.03110 -0.02600
C 	C 	0.73230 0.39680 0.08960 -0.16300
H 	H 	0.76330 0.34950 0.10490 0.07200
N 	N 	0.68880 0.46800 0.02190 -0.24300
Fe	Fe	0.19150 0.02066 0.45083 1.11200
Au	Au	0.94626 0.27261 0.45604 0.26900
Au	Au	0.44965 0.26255 0.44758 0.27500
C 	C 	0.35660 0.16820 0.45090 -0.05100
C 	C 	0.04080 0.18380 0.44690 -0.05700
C 	C 	0.03780 0.86250 0.44410 -0.04100
C 	C 	0.34930 0.86260 0.46040 -0.05500
N 	N 	0.29940 0.11730 0.45270 -0.22700
N 	N 	0.09280 0.12860 0.44280 -0.22200
N 	N 	0.08890 0.91930 0.44450 -0.22800
N 	N 	0.29320 0.91530 0.46100 -0.22400
N 	N 	0.19020 0.01050 0.38020 -0.23800
C 	C 	0.26760 0.00620 0.36400 0.07300
H 	H 	0.32150 0.01180 0.38320 -0.02100
C 	C 	0.27350 0.99390 0.32080 -0.14200
H 	H 	0.33000 0.98920 0.31140 0.07100
C 	C 	0.19520 0.98860 0.29150 0.06900
C 	C 	0.11370 0.99570 0.30790 -0.13700
H 	H 	0.05880 0.99420 0.28940 0.09100
C 	C 	0.11470 0.00500 0.35180 0.07400
H 	H 	0.05920 0.00750 0.36230 -0.00400
C 	C 	0.19880 0.97560 0.24440 0.03800
C 	C 	0.27250 0.93850 0.22900 -0.05700
H 	H 	0.32260 0.91880 0.24810 0.04300
N 	N 	0.12540 0.99850 0.17460 -0.08700
N 	N 	0.12650 0.00400 0.21750 -0.08700
C 	C 	0.27130 0.93090 0.18580 -0.05500
H 	H 	0.31980 0.90510 0.17430 0.04100
C 	C 	0.19610 0.96250 0.15940 0.03100
C 	C 	0.19060 0.96160 0.11090 0.07300
C 	C 	0.14550 0.02890 0.08680 -0.15400
H 	H 	0.11450 0.07340 0.10000 0.07700
C 	C 	0.14670 0.03000 0.04350 0.07000
H 	H 	0.11630 0.07690 0.02750 -0.03000
C 	C 	0.22800 0.90190 0.04530 0.07100
H 	H 	0.25450 0.85570 0.03110 -0.02600
C 	C 	0.23230 0.89680 0.08960 -0.16300
H 	H 	0.26330 0.84950 0.10490 0.07200
N 	N 	0.18880 0.96800 0.02190 -0.24200
Fe	Fe	0.69150 0.47934 0.95083 1.11200
Au	Au	0.44626 0.22739 0.95604 0.27000
Au	Au	0.94965 0.23745 0.94758 0.27500
C 	C 	0.85660 0.33180 0.95090 -0.05100
C 	C 	0.54080 0.31620 0.94690 -0.05600
C 	C 	0.53780 0.63750 0.94410 -0.04100
C 	C 	0.84930 0.63740 0.96040 -0.05500
N 	N 	0.79940 0.38270 0.95270 -0.22600
N 	N 	0.59280 0.37140 0.94280 -0.22200
N 	N 	0.58890 0.58070 0.94450 -0.22900
N 	N 	0.79320 0.58470 0.96100 -0.22400
N 	N 	0.69020 0.48950 0.88020 -0.23800
C 	C 	0.76760 0.49380 0.86400 0.07400
H 	H 	0.82150 0.48820 0.88320 -0.02200
C 	C 	0.77350 0.50610 0.82080 -0.14300
H 	H 	0.83000 0.51080 0.81140 0.07100
C 	C 	0.69520 0.51140 0.79150 0.06900
C 	C 	0.61370 0.50430 0.80790 -0.13800
H 	H 	0.55880 0.50580 0.78940 0.09100
C 	C 	0.61470 0.49500 0.85180 0.07500
H 	H 	0.55920 0.49250 0.86230 -0.00500
C 	C 	0.69880 0.52440 0.74440 0.03700
C 	C 	0.77250 0.56150 0.72900 -0.05600
H 	H 	0.82260 0.58120 0.74810 0.04300
N 	N 	0.62540 0.50150 0.67460 -0.08800
N 	N 	0.62650 0.49600 0.71750 -0.08600
C 	C 	0.77130 0.56910 0.68580 -0.05600
H 	H 	0.81980 0.59490 0.67430 0.04100
C 	C 	0.69610 0.53750 0.65940 0.03200
C 	C 	0.69060 0.53840 0.61090 0.07200
C 	C 	0.64550 0.47110 0.58680 -0.15300
H 	H 	0.61450 0.42660 0.60000 0.07600
C 	C 	0.64670 0.47000 0.54350 0.07000
H 	H 	0.61630 0.42310 0.52750 -0.03000
C 	C 	0.72800 0.59810 0.54530 0.07000
H 	H 	0.75450 0.64430 0.53110 -0.02600
C 	C 	0.73230 0.60320 0.58960 -0.16300
H 	H 	0.76330 0.65050 0.60490 0.07200
N 	N 	0.68880 0.53200 0.52190 -0.24300
Fe	Fe	0.19150 0.97934 0.95083 1.11100
Au	Au	0.94626 0.72739 0.95604 0.26900
Au	Au	0.44965 0.73745 0.94758 0.27400
C 	C 	0.35660 0.83180 0.95090 -0.05100
C 	C 	0.04080 0.81620 0.94690 -0.05700
C 	C 	0.03780 0.13750 0.94410 -0.04000
C 	C 	0.34930 0.13740 0.96040 -0.05500
N 	N 	0.29940 0.88270 0.95270 -0.22700
N 	N 	0.09280 0.87140 0.94280 -0.22200
N 	N 	0.08890 0.08070 0.94450 -0.22800
N 	N 	0.29320 0.08470 0.96100 -0.22400
N 	N 	0.19020 0.98950 0.88020 -0.23700
C 	C 	0.26760 0.99380 0.86400 0.07200
H 	H 	0.32150 0.98820 0.88320 -0.02100
C 	C 	0.27350 0.00610 0.82080 -0.14100
H 	H 	0.33000 0.01080 0.81140 0.07100
C 	C 	0.19520 0.01140 0.79150 0.06800
C 	C 	0.11370 0.00430 0.80790 -0.13600
H 	H 	0.05880 0.00580 0.78940 0.09100
C 	C 	0.11470 0.99500 0.85180 0.07300
H 	H 	0.05920 0.99250 0.86230 -0.00400
C 	C 	0.19880 0.02440 0.74440 0.03800
C 	C 	0.27250 0.06150 0.72900 -0.05700
H 	H 	0.32260 0.08120 0.74810 0.04300
N 	N 	0.12540 0.00150 0.67460 -0.08700
N 	N 	0.12650 0.99600 0.71750 -0.08700
C 	C 	0.27130 0.06910 0.68580 -0.05500
H 	H 	0.31980 0.09490 0.67430 0.04100
C 	C 	0.19610 0.03750 0.65940 0.03100
C 	C 	0.19060 0.03840 0.61090 0.07300
C 	C 	0.14550 0.97110 0.58680 -0.15300
H 	H 	0.11450 0.92660 0.60000 0.07700
C 	C 	0.14670 0.97000 0.54350 0.07000
H 	H 	0.11630 0.92310 0.52750 -0.03000
C 	C 	0.22800 0.09810 0.54530 0.07100
H 	H 	0.25450 0.14430 0.53110 -0.02600
C 	C 	0.23230 0.10320 0.58960 -0.16300
H 	H 	0.26330 0.15050 0.60490 0.07200
N 	N 	0.18880 0.03200 0.52190 -0.24300
Fe	Fe	0.30850 0.52066 0.04917 1.11200
Au	Au	0.55374 0.77261 0.04396 0.27000
Au	Au	0.05035 0.76255 0.05242 0.27500
C 	C 	0.14340 0.66820 0.04910 -0.05100
C 	C 	0.45920 0.68380 0.05310 -0.05600
C 	C 	0.46220 0.36250 0.05590 -0.04100
C 	C 	0.15070 0.36260 0.03960 -0.05500
N 	N 	0.20060 0.61730 0.04730 -0.22600
N 	N 	0.40720 0.62860 0.05720 -0.22200
N 	N 	0.41110 0.41930 0.05550 -0.22900
N 	N 	0.20680 0.41530 0.03900 -0.22400
N 	N 	0.30980 0.51050 0.11980 -0.23800
C 	C 	0.23240 0.50620 0.13600 0.07400
H 	H 	0.17850 0.51180 0.11680 -0.02200
C 	C 	0.22650 0.49390 0.17920 -0.14300
H 	H 	0.17000 0.48920 0.18860 0.07100
C 	C 	0.30480 0.48860 0.20850 0.06900
C 	C 	0.38630 0.49570 0.19210 -0.13800
H 	H 	0.44120 0.49420 0.21060 0.09100
C 	C 	0.38530 0.50500 0.14820 0.07500
H 	H 	0.44080 0.50750 0.13770 -0.00500
C 	C 	0.30120 0.47560 0.25560 0.03700
C 	C 	0.22750 0.43850 0.27100 -0.05600
H 	H 	0.17740 0.41880 0.25190 0.04300
N 	N 	0.37460 0.49850 0.32540 -0.08800
N 	N 	0.37350 0.50400 0.28250 -0.08600
C 	C 	0.22870 0.43090 0.31420 -0.05600
H 	H 	0.18020 0.40510 0.32570 0.04100
C 	C 	0.30390 0.46250 0.34060 0.03200
C 	C 	0.30940 0.46160 0.38910 0.07200
C 	C 	0.35450 0.52890 0.41320 -0.15300
H 	H 	0.38550 0.57340 0.40000 0.07600
C 	C 	0.35330 0.53000 0.45650 0.07000
H 	H 	0.38370 0.57690 0.47250 -0.03000
C 	C 	0.27200 0.40190 0.45470 0.07000
H 	H 	0.24550 0.35570 0.46890 -0.02600
C 	C 	0.26770 0.39680 0.41040 -0.16300
H 	H 	0.23670 0.34950 0.39510 0.07200
N 	N 	0.31120 0.46800 0.47810 -0.24300
Fe	Fe	0.80850 0.02066 0.04917 1.11100
Au	Au	0.05374 0.27261 0.04396 0.26900
Au	Au	0.55035 0.26255 0.05242 0.27400
C 	C 	0.64340 0.16820 0.04910 -0.05100
C 	C 	0.95920 0.18380 0.05310 -0.05700
C 	C 	0.96220 0.86250 0.05590 -0.04000
C 	C 	0.65070 0.86260 0.03960 -0.05500
N 	N 	0.70060 0.11730 0.04730 -0.22700
N 	N 	0.90720 0.12860 0.05720 -0.22200
N 	N 	0.91110 0.91930 0.05550 -0.22800
N 	N 	0.70680 0.91530 0.03900 -0.22400
N 	N 	0.80980 0.01050 0.11980 -0.23700
C 	C 	0.73240 0.00620 0.13600 0.07200
H 	H 	0.67850 0.01180 0.11680 -0.02100
C 	C 	0.72650 0.99390 0.17920 -0.14100
H 	H 	0.67000 0.98920 0.18860 0.07100
C 	C 	0.80480 0.98860 0.20850 0.06800
C 	C 	0.88630 0.99570 0.19210 -0.13600
H 	H 	0.94120 0.99420 0.21060 0.09100
C 	C 	0.88530 0.00500 0.14820 0.07300
H 	H 	0.94080 0.00750 0.13770 -0.00400
C 	C 	0.80120 0.97560 0.25560 0.03800
C 	C 	0.72750 0.93850 0.27100 -0.05700
H 	H 	0.67740 0.91880 0.25190 0.04300
N 	N 	0.87460 0.99850 0.32540 -0.08700
N 	N 	0.87350 0.00400 0.28250 -0.08700
C 	C 	0.72870 0.93090 0.31420 -0.05500
H 	H 	0.68020 0.90510 0.32570 0.04100
C 	C 	0.80390 0.96250 0.34060 0.03100
C 	C 	0.80940 0.96160 0.38910 0.07300
C 	C 	0.85450 0.02890 0.41320 -0.15300
H 	H 	0.88550 0.07340 0.40000 0.07700
C 	C 	0.85330 0.03000 0.45650 0.07000
H 	H 	0.88370 0.07690 0.47250 -0.03000
C 	C 	0.77200 0.90190 0.45470 0.07100
H 	H 	0.74550 0.85570 0.46890 -0.02600
C 	C 	0.76770 0.89680 0.41040 -0.16300
H 	H 	0.73670 0.84950 0.39510 0.07200
N 	N 	0.81120 0.96800 0.47810 -0.24300
Fe	Fe	0.30850 0.47934 0.54917 1.11200
Au	Au	0.55374 0.22739 0.54396 0.26900
Au	Au	0.05035 0.23745 0.55242 0.27500
C 	C 	0.14340 0.33180 0.54910 -0.05100
C 	C 	0.45920 0.31620 0.55310 -0.05700
C 	C 	0.46220 0.63750 0.55590 -0.04100
C 	C 	0.15070 0.63740 0.53960 -0.05500
N 	N 	0.20060 0.38270 0.54730 -0.22600
N 	N 	0.40720 0.37140 0.55720 -0.22200
N 	N 	0.41110 0.58070 0.55550 -0.22900
N 	N 	0.20680 0.58470 0.53900 -0.22400
N 	N 	0.30980 0.48950 0.61980 -0.23800
C 	C 	0.23240 0.49380 0.63600 0.07400
H 	H 	0.17850 0.48820 0.61680 -0.02200
C 	C 	0.22650 0.50610 0.67920 -0.14300
H 	H 	0.17000 0.51080 0.68860 0.07100
C 	C 	0.30480 0.51140 0.70850 0.06900
C 	C 	0.38630 0.50430 0.69210 -0.13800
H 	H 	0.44120 0.50580 0.71060 0.09100
C 	C 	0.38530 0.49500 0.64820 0.07500
H 	H 	0.44080 0.49250 0.63770 -0.00500
C 	C 	0.30120 0.52440 0.75560 0.03700
C 	C 	0.22750 0.56150 0.77100 -0.05600
H 	H 	0.17740 0.58120 0.75190 0.04300
N 	N 	0.37460 0.50150 0.82540 -0.08800
N 	N 	0.37350 0.49600 0.78250 -0.08600
C 	C 	0.22870 0.56910 0.81420 -0.05600
H 	H 	0.18020 0.59490 0.82570 0.04100
C 	C 	0.30390 0.53750 0.84060 0.03200
C 	C 	0.30940 0.53840 0.88910 0.07200
C 	C 	0.35450 0.47110 0.91320 -0.15300
H 	H 	0.38550 0.42660 0.90000 0.07600
C 	C 	0.35330 0.47000 0.95650 0.07000
H 	H 	0.38370 0.42310 0.97250 -0.03000
C 	C 	0.27200 0.59810 0.95470 0.07000
H 	H 	0.24550 0.64430 0.96890 -0.02600
C 	C 	0.26770 0.60320 0.91040 -0.16300
H 	H 	0.23670 0.65050 0.89510 0.07200
N 	N 	0.31120 0.53200 0.97810 -0.24300
Fe	Fe	0.80850 0.97934 0.54917 1.11200
Au	Au	0.05374 0.72739 0.54396 0.26900
Au	Au	0.55035 0.73745 0.55242 0.27500
C 	C 	0.64340 0.83180 0.54910 -0.05100
C 	C 	0.95920 0.81620 0.55310 -0.05700
C 	C 	0.96220 0.13750 0.55590 -0.04100
C 	C 	0.65070 0.13740 0.53960 -0.05500
N 	N 	0.70060 0.88270 0.54730 -0.22700
N 	N 	0.90720 0.87140 0.55720 -0.22200
N 	N 	0.91110 0.08070 0.55550 -0.22800
N 	N 	0.70680 0.08470 0.53900 -0.22400
N 	N 	0.80980 0.98950 0.61980 -0.23800
C 	C 	0.73240 0.99380 0.63600 0.07300
H 	H 	0.67850 0.98820 0.61680 -0.02100
C 	C 	0.72650 0.00610 0.67920 -0.14200
H 	H 	0.67000 0.01080 0.68860 0.07100
C 	C 	0.80480 0.01140 0.70850 0.06900
C 	C 	0.88630 0.00430 0.69210 -0.13700
H 	H 	0.94120 0.00580 0.71060 0.09100
C 	C 	0.88530 0.99500 0.64820 0.07400
H 	H 	0.94080 0.99250 0.63770 -0.00400
C 	C 	0.80120 0.02440 0.75560 0.03800
C 	C 	0.72750 0.06150 0.77100 -0.05700
H 	H 	0.67740 0.08120 0.75190 0.04300
N 	N 	0.87460 0.00150 0.82540 -0.08700
N 	N 	0.87350 0.99600 0.78250 -0.08700
C 	C 	0.72870 0.06910 0.81420 -0.05500
H 	H 	0.68020 0.09490 0.82570 0.04100
C 	C 	0.80390 0.03750 0.84060 0.03100
C 	C 	0.80940 0.03840 0.88910 0.07300
C 	C 	0.85450 0.97110 0.91320 -0.15400
H 	H 	0.88550 0.92660 0.90000 0.07700
C 	C 	0.85330 0.97000 0.95650 0.07000
H 	H 	0.88370 0.92310 0.97250 -0.03000
C 	C 	0.77200 0.09810 0.95470 0.07100
H 	H 	0.74550 0.14430 0.96890 -0.02600
C 	C 	0.76770 0.10320 0.91040 -0.16300
H 	H 	0.73670 0.15050 0.89510 0.07200
N 	N 	0.81120 0.03200 0.97810 -0.24200
