data_crystal

_cell_length_a 8.10150
_cell_length_b 12.94630
_cell_length_c 12.42230
_cell_angle_alpha 90.00000
_cell_angle_beta  97.77800
_cell_angle_gamma 90.00000

_symmetry_space_group_name_	'P 1'
_symmetry_space_group_name_H-M	'P 1'

loop_
_symmetry_equiv_pos_as_xyz
  x,y,z

loop_
_atom_site_label
_atom_site_type_symbol
_atom_site_fract_x
_atom_site_fract_y
_atom_site_fract_z
_atom_site_charge
Cs	Cs	0.96903 0.21217 0.72862 0.73400
Cs	Cs	0.49202 0.13402 0.89315 0.72500
S 	S 	0.66300 0.42034 0.64421 0.58900
S 	S 	0.30769 0.40929 0.69877 0.60600
S 	S 	0.44825 0.23456 0.57756 0.59000
C 	C 	0.45250 0.37296 0.60513 -0.38500
H 	H 	0.41100 0.40730 0.53450 0.16100
O 	O 	0.76090 0.37009 0.57026 -0.35900
O 	O 	0.71250 0.38885 0.75686 -0.30100
O 	O 	0.65330 0.53153 0.63094 -0.35300
O 	O 	0.35630 0.51103 0.73921 -0.33800
O 	O 	0.32570 0.33082 0.78400 -0.33100
O 	O 	0.14570 0.40737 0.63319 -0.38300
O 	O 	0.55710 0.18475 0.66391 -0.33200
O 	O 	0.27250 0.20635 0.57289 -0.31400
O 	O 	0.50510 0.22340 0.47198 -0.30700
Cs	Cs	0.53097 0.71217 0.77138 0.73400
Cs	Cs	0.00798 0.63402 0.60685 0.72400
S 	S 	0.83700 0.92034 0.85579 0.59400
S 	S 	0.19231 0.90929 0.80123 0.60000
S 	S 	0.05175 0.73456 0.92244 0.58400
C 	C 	0.04750 0.87296 0.89487 -0.38700
H 	H 	0.08900 0.90730 0.96550 0.16000
O 	O 	0.73910 0.87009 0.92974 -0.36000
O 	O 	0.78750 0.88885 0.74314 -0.30100
O 	O 	0.84670 0.03153 0.86906 -0.35600
O 	O 	0.14370 0.01103 0.76079 -0.33300
O 	O 	0.17430 0.83082 0.71600 -0.33100
O 	O 	0.35430 0.90737 0.86681 -0.38400
O 	O 	0.94290 0.68475 0.83609 -0.32900
O 	O 	0.22750 0.70635 0.92711 -0.31400
O 	O 	0.99490 0.72340 0.02802 -0.30200
Cs	Cs	0.03097 0.78783 0.27138 0.73300
Cs	Cs	0.50798 0.86598 0.10685 0.72400
S 	S 	0.33700 0.57966 0.35579 0.58900
S 	S 	0.69231 0.59071 0.30123 0.60600
S 	S 	0.55175 0.76544 0.42244 0.59000
C 	C 	0.54750 0.62704 0.39487 -0.38500
H 	H 	0.58900 0.59270 0.46550 0.16100
O 	O 	0.23910 0.62991 0.42974 -0.35900
O 	O 	0.28750 0.61115 0.24314 -0.30100
O 	O 	0.34670 0.46847 0.36906 -0.35300
O 	O 	0.64370 0.48897 0.26079 -0.33800
O 	O 	0.67430 0.66918 0.21600 -0.33100
O 	O 	0.85430 0.59263 0.36681 -0.38300
O 	O 	0.44290 0.81525 0.33609 -0.33200
O 	O 	0.72750 0.79365 0.42711 -0.31400
O 	O 	0.49490 0.77660 0.52802 -0.30700
Cs	Cs	0.46903 0.28783 0.22862 0.73400
Cs	Cs	0.99202 0.36598 0.39315 0.72400
S 	S 	0.16300 0.07966 0.14421 0.59400
S 	S 	0.80769 0.09071 0.19877 0.60000
S 	S 	0.94825 0.26544 0.07756 0.58400
C 	C 	0.95250 0.12704 0.10513 -0.38700
H 	H 	0.91100 0.09270 0.03450 0.16000
O 	O 	0.26090 0.12991 0.07026 -0.36000
O 	O 	0.21250 0.11115 0.25686 -0.30100
O 	O 	0.15330 0.96847 0.13094 -0.35600
O 	O 	0.85630 0.98897 0.23921 -0.33300
O 	O 	0.82570 0.16918 0.28400 -0.33100
O 	O 	0.64570 0.09263 0.13319 -0.38400
O 	O 	0.05710 0.31525 0.16391 -0.32900
O 	O 	0.77250 0.29365 0.07289 -0.31400
O 	O 	0.00510 0.27660 0.97198 -0.30200
