data_crystal

_cell_length_a 18.76980
_cell_length_b 18.76980
_cell_length_c 18.76980
_cell_angle_alpha 109.47100
_cell_angle_beta  109.47100
_cell_angle_gamma 109.47100

_symmetry_space_group_name_	'P 1'
_symmetry_space_group_name_H-M	'P 1'

loop_
_symmetry_equiv_pos_as_xyz
  x,y,z

loop_
_atom_site_label
_atom_site_type_symbol
_atom_site_fract_x
_atom_site_fract_y
_atom_site_fract_z
_atom_site_charge
Ni	Ni	0.53524 0.64825 0.64825 1.13100
Ni	Ni	-0.00000 0.88699 0.35175 1.12500
Ni	Ni	-0.00000 0.35175 0.88699 1.12500
Ni	Ni	0.46476 0.11301 0.11301 1.12800
Ni	Ni	0.88699 0.00000 0.35175 1.12500
Ni	Ni	0.11301 0.46476 0.11301 1.12800
Ni	Ni	0.64825 0.53524 0.64825 1.13200
Ni	Ni	0.35175 0.00000 0.88699 1.12500
Ni	Ni	0.88699 0.35175 -0.00000 1.12500
Ni	Ni	0.64825 0.64825 0.53524 1.13200
Ni	Ni	0.11301 0.11301 0.46476 1.12800
Ni	Ni	0.35175 0.88699 -0.00000 1.12500
H 	H 	0.62840 0.92270 0.75830 0.02500
H 	H 	0.30450 0.43620 0.59730 0.06600
H 	H 	0.18090 0.30730 0.54680 0.01900
H 	H 	0.16440 0.87010 0.24170 0.04200
H 	H 	0.83890 0.70720 0.40270 0.07300
H 	H 	0.76050 0.63410 0.45320 0.02200
H 	H 	0.83560 0.07730 0.70570 0.08700
H 	H 	0.16110 0.56380 0.86830 0.05400
H 	H 	0.23950 0.69270 0.87360 0.01400
H 	H 	0.37160 0.12990 0.29430 0.05000
H 	H 	0.69550 0.29280 0.13170 0.06300
H 	H 	0.81910 0.36590 0.12640 0.02800
H 	H 	0.70570 0.83560 0.07730 0.08700
H 	H 	0.86830 0.16110 0.56380 0.05400
H 	H 	0.87360 0.23950 0.69270 0.01400
H 	H 	0.29430 0.37160 0.12990 0.05000
H 	H 	0.13170 0.69550 0.29280 0.06300
H 	H 	0.12640 0.81910 0.36590 0.02800
H 	H 	0.75830 0.62840 0.92270 0.02500
H 	H 	0.59730 0.30450 0.43620 0.06600
H 	H 	0.54680 0.18090 0.30730 0.01900
H 	H 	0.24170 0.16440 0.87010 0.04200
H 	H 	0.40270 0.83890 0.70720 0.07300
H 	H 	0.45320 0.76050 0.63410 0.02200
H 	H 	0.87010 0.24170 0.16440 0.04200
H 	H 	0.70720 0.40270 0.83890 0.07300
H 	H 	0.63410 0.45320 0.76050 0.02200
H 	H 	0.92270 0.75830 0.62840 0.02500
H 	H 	0.43620 0.59730 0.30450 0.06600
H 	H 	0.30730 0.54680 0.18090 0.01900
H 	H 	0.12990 0.29430 0.37160 0.05000
H 	H 	0.29280 0.13170 0.69550 0.06300
H 	H 	0.36590 0.12640 0.81910 0.02800
H 	H 	0.07730 0.70570 0.83560 0.08700
H 	H 	0.56380 0.86830 0.16110 0.05400
H 	H 	0.69270 0.87360 0.23950 0.01400
H 	H 	0.87010 0.16440 0.24170 0.04200
H 	H 	0.70720 0.83890 0.40270 0.07300
H 	H 	0.63410 0.76050 0.45320 0.02200
H 	H 	0.92270 0.62840 0.75830 0.02500
H 	H 	0.43620 0.30450 0.59730 0.06600
H 	H 	0.30730 0.18090 0.54680 0.01900
H 	H 	0.12990 0.37160 0.29430 0.05000
H 	H 	0.29280 0.69550 0.13170 0.06300
H 	H 	0.36590 0.81910 0.12640 0.02800
H 	H 	0.07730 0.83560 0.70570 0.08700
H 	H 	0.56380 0.16110 0.86830 0.05400
H 	H 	0.69270 0.23950 0.87360 0.01400
H 	H 	0.62840 0.75830 0.92270 0.02500
H 	H 	0.30450 0.59730 0.43620 0.06600
H 	H 	0.18090 0.54680 0.30730 0.01900
H 	H 	0.16440 0.24170 0.87010 0.04200
H 	H 	0.83890 0.40270 0.70720 0.07300
H 	H 	0.76050 0.45320 0.63410 0.02200
H 	H 	0.83560 0.70570 0.07730 0.08700
H 	H 	0.16110 0.86830 0.56380 0.05400
H 	H 	0.23950 0.87360 0.69270 0.01400
H 	H 	0.37160 0.29430 0.12990 0.05000
H 	H 	0.69550 0.13170 0.29280 0.06300
H 	H 	0.81910 0.12640 0.36590 0.02800
H 	H 	0.70570 0.07730 0.83560 0.08700
H 	H 	0.86830 0.56380 0.16110 0.05400
H 	H 	0.87360 0.69270 0.23950 0.01400
H 	H 	0.29430 0.12990 0.37160 0.05000
H 	H 	0.13170 0.29280 0.69550 0.06300
H 	H 	0.12640 0.36590 0.81910 0.02800
H 	H 	0.75830 0.92270 0.62840 0.02500
H 	H 	0.59730 0.43620 0.30450 0.06600
H 	H 	0.54680 0.30730 0.18090 0.01900
H 	H 	0.24170 0.87010 0.16440 0.04200
H 	H 	0.40270 0.70720 0.83890 0.07300
H 	H 	0.45320 0.63410 0.76050 0.02200
H 	H 	0.55400 0.55400 0.55400 0.10600
H 	H 	0.00000 0.00000 0.44600 0.09100
H 	H 	-0.00000 0.44600 -0.00000 0.09100
H 	H 	0.44600 0.00000 -0.00000 0.09100
C 	C 	0.67710 0.95370 0.75420 0.10600
C 	C 	0.30680 0.38390 0.58510 -0.06200
C 	C 	0.23330 0.30640 0.55530 0.05500
C 	C 	0.19950 0.92290 0.24580 0.02000
C 	C 	0.79880 0.72170 0.41490 -0.06400
C 	C 	0.75110 0.67800 0.44470 0.05900
C 	C 	0.80050 0.04630 0.72340 -0.12500
C 	C 	0.20120 0.61610 0.92290 -0.02100
C 	C 	0.24890 0.69360 0.92690 0.07700
C 	C 	0.32290 0.07710 0.27660 -0.01100
C 	C 	0.69320 0.27830 0.07710 -0.05000
C 	C 	0.76670 0.32200 0.07310 0.04000
C 	C 	0.72340 0.80050 0.04630 -0.12500
C 	C 	0.92290 0.20120 0.61610 -0.02100
C 	C 	0.92690 0.24890 0.69360 0.07700
C 	C 	0.27660 0.32290 0.07710 -0.01100
C 	C 	0.07710 0.69320 0.27830 -0.05000
C 	C 	0.07310 0.76670 0.32200 0.04000
C 	C 	0.75420 0.67710 0.95370 0.10600
C 	C 	0.58510 0.30680 0.38390 -0.06200
C 	C 	0.55530 0.23330 0.30640 0.05500
C 	C 	0.24580 0.19950 0.92290 0.02000
C 	C 	0.41490 0.79880 0.72170 -0.06400
C 	C 	0.44470 0.75110 0.67800 0.05900
C 	C 	0.92290 0.24580 0.19950 0.02000
C 	C 	0.72170 0.41490 0.79880 -0.06400
C 	C 	0.67800 0.44470 0.75110 0.05900
C 	C 	0.95370 0.75420 0.67710 0.10600
C 	C 	0.38390 0.58510 0.30680 -0.06200
C 	C 	0.30640 0.55530 0.23330 0.05500
C 	C 	0.07710 0.27660 0.32290 -0.01100
C 	C 	0.27830 0.07710 0.69320 -0.05000
C 	C 	0.32200 0.07310 0.76670 0.04000
C 	C 	0.04630 0.72340 0.80050 -0.12500
C 	C 	0.61610 0.92290 0.20120 -0.02100
C 	C 	0.69360 0.92690 0.24890 0.07700
C 	C 	0.92290 0.19950 0.24580 0.02000
C 	C 	0.72170 0.79880 0.41490 -0.06400
C 	C 	0.67800 0.75110 0.44470 0.05900
C 	C 	0.95370 0.67710 0.75420 0.10600
C 	C 	0.38390 0.30680 0.58510 -0.06200
C 	C 	0.30640 0.23330 0.55530 0.05500
C 	C 	0.07710 0.32290 0.27660 -0.01100
C 	C 	0.27830 0.69320 0.07710 -0.05000
C 	C 	0.32200 0.76670 0.07310 0.04000
C 	C 	0.04630 0.80050 0.72340 -0.12500
C 	C 	0.61610 0.20120 0.92290 -0.02100
C 	C 	0.69360 0.24890 0.92690 0.07700
C 	C 	0.67710 0.75420 0.95370 0.10600
C 	C 	0.30680 0.58510 0.38390 -0.06200
C 	C 	0.23330 0.55530 0.30640 0.05500
C 	C 	0.19950 0.24580 0.92290 0.02000
C 	C 	0.79880 0.41490 0.72170 -0.06400
C 	C 	0.75110 0.44470 0.67800 0.05900
C 	C 	0.80050 0.72340 0.04630 -0.12500
C 	C 	0.20120 0.92290 0.61610 -0.02100
C 	C 	0.24890 0.92690 0.69360 0.07700
C 	C 	0.32290 0.27660 0.07710 -0.01100
C 	C 	0.69320 0.07710 0.27830 -0.05000
C 	C 	0.76670 0.07310 0.32200 0.04000
C 	C 	0.72340 0.04630 0.80050 -0.12500
C 	C 	0.92290 0.61610 0.20120 -0.02100
C 	C 	0.92690 0.69360 0.24890 0.07700
C 	C 	0.27660 0.07710 0.32290 -0.01100
C 	C 	0.07710 0.27830 0.69320 -0.05000
C 	C 	0.07310 0.32200 0.76670 0.04000
C 	C 	0.75420 0.95370 0.67710 0.10600
C 	C 	0.58510 0.38390 0.30680 -0.06200
C 	C 	0.55530 0.30640 0.23330 0.05500
C 	C 	0.24580 0.92290 0.19950 0.02000
C 	C 	0.41490 0.72170 0.79880 -0.06400
C 	C 	0.44470 0.67800 0.75110 0.05900
C 	C 	0.46110 0.46110 0.61540 0.35300
C 	C 	0.38320 0.38320 0.59660 -0.03500
C 	C 	0.84570 0.84570 0.38460 0.34900
C 	C 	0.78660 0.78660 0.40340 -0.02700
C 	C 	0.15430 0.53890 -0.00000 0.31900
C 	C 	0.21340 0.61680 -0.00000 -0.07600
C 	C 	0.53890 0.15430 -0.00000 0.31900
C 	C 	0.61680 0.21340 -0.00000 -0.07600
C 	C 	-0.00000 0.15430 0.53890 0.31900
C 	C 	-0.00000 0.21340 0.61680 -0.07600
C 	C 	-0.00000 0.53890 0.15430 0.31900
C 	C 	-0.00000 0.61680 0.21340 -0.07600
C 	C 	0.61540 0.46110 0.46110 0.35300
C 	C 	0.59660 0.38320 0.38320 -0.03500
C 	C 	0.38460 0.84570 0.84570 0.34900
C 	C 	0.40340 0.78660 0.78660 -0.02700
C 	C 	0.84570 0.38460 0.84570 0.34900
C 	C 	0.78660 0.40340 0.78660 -0.02700
C 	C 	0.46110 0.61540 0.46110 0.35300
C 	C 	0.38320 0.59660 0.38320 -0.03500
C 	C 	0.15430 0.00000 0.53890 0.31900
C 	C 	0.21340 0.00000 0.61680 -0.07600
C 	C 	0.53890 0.00000 0.15430 0.31900
C 	C 	0.61680 0.00000 0.21340 -0.07600
C 	C 	0.66090 0.81100 0.66090 0.42300
C 	C 	0.70280 0.90840 0.70280 -0.14500
C 	C 	0.15010 0.00000 0.33910 0.35600
C 	C 	0.20560 0.00000 0.29720 -0.11400
C 	C 	0.84990 0.18900 0.84990 0.36200
C 	C 	0.79440 0.09160 0.79440 -0.00200
C 	C 	0.33910 0.00000 0.15010 0.35600
C 	C 	0.29720 0.00000 0.20560 -0.11400
C 	C 	0.84990 0.84990 0.18900 0.36200
C 	C 	0.79440 0.79440 0.09160 -0.00200
C 	C 	0.15010 0.33910 -0.00000 0.35600
C 	C 	0.20560 0.29720 -0.00000 -0.11400
C 	C 	0.66090 0.66090 0.81100 0.42300
C 	C 	0.70280 0.70280 0.90840 -0.14500
C 	C 	0.33910 0.15010 -0.00000 0.35600
C 	C 	0.29720 0.20560 -0.00000 -0.11400
C 	C 	-0.00000 0.33910 0.15010 0.35600
C 	C 	-0.00000 0.29720 0.20560 -0.11400
C 	C 	0.81100 0.66090 0.66090 0.42300
C 	C 	0.90840 0.70280 0.70280 -0.14500
C 	C 	-0.00000 0.15010 0.33910 0.35600
C 	C 	-0.00000 0.20560 0.29720 -0.11400
C 	C 	0.18900 0.84990 0.84990 0.36200
C 	C 	0.09160 0.79440 0.79440 -0.00200
N 	N 	0.23210 0.23210 0.53840 -0.19800
N 	N 	0.69370 0.69370 0.46160 -0.19700
N 	N 	0.30630 0.76790 -0.00000 -0.21700
N 	N 	0.76790 0.30630 -0.00000 -0.21700
N 	N 	-0.00000 0.30630 0.76790 -0.21700
N 	N 	-0.00000 0.76790 0.30630 -0.21700
N 	N 	0.53840 0.23210 0.23210 -0.19800
N 	N 	0.46160 0.69370 0.69370 -0.19700
N 	N 	0.69370 0.46160 0.69370 -0.19700
N 	N 	0.23210 0.53840 0.23210 -0.19800
N 	N 	0.30630 0.00000 0.76790 -0.21700
N 	N 	0.76790 0.00000 0.30630 -0.21700
O 	O 	0.60920 0.77505 0.68145 -0.41600
O 	O 	0.45192 0.52543 0.62051 -0.40400
O 	O 	0.09360 0.92775 0.31855 -0.38700
O 	O 	0.90492 0.83141 0.37949 -0.38100
O 	O 	0.90640 0.22495 0.83415 -0.38600
O 	O 	0.09508 0.47457 0.92649 -0.37600
O 	O 	0.39080 0.07225 0.16585 -0.41100
O 	O 	0.54808 0.16859 0.07351 -0.40000
O 	O 	0.83415 0.90640 0.22495 -0.38600
O 	O 	0.92649 0.09508 0.47457 -0.37600
O 	O 	0.16585 0.39080 0.07225 -0.41100
O 	O 	0.07351 0.54808 0.16859 -0.40000
O 	O 	0.68145 0.60920 0.77505 -0.41600
O 	O 	0.62051 0.45192 0.52543 -0.40400
O 	O 	0.31855 0.09360 0.92775 -0.38700
O 	O 	0.37949 0.90492 0.83141 -0.38100
O 	O 	0.92775 0.31855 0.09360 -0.38700
O 	O 	0.83141 0.37949 0.90492 -0.38100
O 	O 	0.77505 0.68145 0.60920 -0.41600
O 	O 	0.52543 0.62051 0.45192 -0.40400
O 	O 	0.07225 0.16585 0.39080 -0.41100
O 	O 	0.16859 0.07351 0.54808 -0.40000
O 	O 	0.22495 0.83415 0.90640 -0.38600
O 	O 	0.47457 0.92649 0.09508 -0.37600
O 	O 	0.92775 0.09360 0.31855 -0.38700
O 	O 	0.83141 0.90492 0.37949 -0.38100
O 	O 	0.77505 0.60920 0.68145 -0.41600
O 	O 	0.52543 0.45192 0.62051 -0.40400
O 	O 	0.07225 0.39080 0.16585 -0.41100
O 	O 	0.16859 0.54808 0.07351 -0.40000
O 	O 	0.22495 0.90640 0.83415 -0.38600
O 	O 	0.47457 0.09508 0.92649 -0.37600
O 	O 	0.60920 0.68145 0.77505 -0.41600
O 	O 	0.45192 0.62051 0.52543 -0.40400
O 	O 	0.09360 0.31855 0.92775 -0.38700
O 	O 	0.90492 0.37949 0.83141 -0.38100
O 	O 	0.90640 0.83415 0.22495 -0.38600
O 	O 	0.09508 0.92649 0.47457 -0.37600
O 	O 	0.39080 0.16585 0.07225 -0.41100
O 	O 	0.54808 0.07351 0.16859 -0.40000
O 	O 	0.83415 0.22495 0.90640 -0.38600
O 	O 	0.92649 0.47457 0.09508 -0.37600
O 	O 	0.16585 0.07225 0.39080 -0.41100
O 	O 	0.07351 0.16859 0.54808 -0.40000
O 	O 	0.68145 0.77505 0.60920 -0.41600
O 	O 	0.62051 0.52543 0.45192 -0.40400
O 	O 	0.31855 0.92775 0.09360 -0.38700
O 	O 	0.37949 0.83141 0.90492 -0.38100
O 	O 	0.60720 0.60720 0.60720 -0.62700
O 	O 	0.00000 0.00000 0.39280 -0.65800
O 	O 	-0.00000 0.39280 -0.00000 -0.65800
O 	O 	0.39280 0.00000 -0.00000 -0.65800
