data_crystal

_cell_length_a 14.99710
_cell_length_b 20.34540
_cell_length_c 22.46220
_cell_angle_alpha 103.85200
_cell_angle_beta  90.00000
_cell_angle_gamma 90.00000

_symmetry_space_group_name_	'P 1'
_symmetry_space_group_name_H-M	'P 1'

loop_
_symmetry_equiv_pos_as_xyz
  x,y,z

loop_
_atom_site_label
_atom_site_type_symbol
_atom_site_fract_x
_atom_site_fract_y
_atom_site_fract_z
_atom_site_charge
Cd	Cd	0.77104 0.09859 0.20617 1.18700
Cd	Cd	0.71563 0.98983 0.31362 1.21900
Cd	Cd	0.27104 0.40141 0.29383 1.18700
Cd	Cd	0.21563 0.51017 0.18638 1.21900
Cd	Cd	0.22896 0.90141 0.79383 1.18700
Cd	Cd	0.28437 0.01017 0.68638 1.21900
Cd	Cd	0.72896 0.59859 0.70617 1.18700
Cd	Cd	0.78437 0.48983 0.81362 1.21900
H 	H 	0.41960 0.20180 0.37570 0.00700
H 	H 	0.45250 0.06730 0.47730 0.00300
H 	H 	0.80100 0.13380 0.53210 -0.02600
H 	H 	0.74590 0.27630 0.68570 -0.01000
H 	H 	0.38370 0.25890 0.68840 -0.01200
H 	H 	0.33440 0.40150 0.59660 -0.02500
H 	H 	0.66740 0.47770 0.53650 -0.02000
H 	H 	0.72770 0.33510 0.38410 -0.03300
H 	H 	0.81600 0.18700 0.41060 0.06600
H 	H 	0.73770 0.23730 0.40230 0.09400
H 	H 	0.54990 0.11140 0.68180 0.07100
H 	H 	0.55680 0.05110 0.62130 0.07800
H 	H 	0.62160 0.45160 0.63980 0.06800
H 	H 	0.71090 0.41390 0.61190 0.07600
H 	H 	0.39470 0.41150 0.47880 0.09000
H 	H 	0.33200 0.34740 0.47540 0.06600
H 	H 	0.20310 0.15610 0.39280 0.25800
H 	H 	0.28570 0.14770 0.34640 0.27000
H 	H 	0.28100 0.21150 0.40410 0.27600
H 	H 	0.22790 0.04450 0.40530 0.27600
H 	H 	0.32190 0.02170 0.42750 0.29300
H 	H 	0.31220 0.03480 0.36030 0.27900
H 	H 	0.22570 0.14250 0.49830 0.27900
H 	H 	0.30680 0.19510 0.50970 0.29600
H 	H 	0.32090 0.12030 0.51920 0.31500
H 	H 	0.91730 0.17380 0.68150 0.27600
H 	H 	0.00450 0.18860 0.64580 0.26800
H 	H 	0.93640 0.13060 0.61320 0.27800
H 	H 	0.88030 0.28980 0.70170 0.31100
H 	H 	0.87390 0.33080 0.64930 0.30700
H 	H 	0.96820 0.30280 0.66570 0.29200
H 	H 	0.91450 0.18490 0.52790 0.33800
H 	H 	0.99030 0.23610 0.56100 0.31800
H 	H 	0.89870 0.26480 0.54080 0.32600
H 	H 	0.20980 0.29130 0.56050 0.24900
H 	H 	0.20120 0.37120 0.58830 0.25000
H 	H 	0.12600 0.32120 0.60240 0.23700
H 	H 	0.24180 0.21560 0.62470 0.28500
H 	H 	0.15710 0.24430 0.66610 0.26900
H 	H 	0.25270 0.24250 0.69730 0.28600
H 	H 	0.22320 0.41720 0.70040 0.27600
H 	H 	0.24120 0.36640 0.74360 0.28400
H 	H 	0.14580 0.36750 0.71190 0.27700
H 	H 	0.85620 0.39750 0.52450 0.32500
H 	H 	0.81550 0.47120 0.55190 0.33700
H 	H 	0.90990 0.46320 0.51770 0.31200
H 	H 	0.77200 0.51240 0.41550 0.33300
H 	H 	0.86290 0.52860 0.45350 0.31700
H 	H 	0.76910 0.53890 0.48850 0.34800
H 	H 	0.84050 0.40000 0.37050 0.32100
H 	H 	0.87330 0.35510 0.41590 0.31800
H 	H 	0.92480 0.42350 0.41400 0.30300
H 	H 	0.85980 0.03730 0.37960 0.07500
H 	H 	0.78720 0.03590 0.42450 0.10000
H 	H 	0.89440 0.92990 0.36760 0.01100
H 	H 	0.80210 0.91550 0.39770 0.00400
H 	H 	0.85410 0.97590 0.49430 0.03500
H 	H 	0.91320 0.91050 0.46610 0.02100
H 	H 	0.96010 0.04430 0.46610 0.02800
H 	H 	0.01870 0.97940 0.43520 0.02300
H 	H 	0.91960 0.29820 0.12430 0.00600
H 	H 	0.95250 0.43270 0.02270 0.00200
H 	H 	0.30100 0.36620 0.96790 -0.02500
H 	H 	0.24590 0.22370 0.81430 -0.01000
H 	H 	0.88370 0.24110 0.81160 -0.01200
H 	H 	0.83440 0.09850 0.90340 -0.02500
H 	H 	0.16740 0.02230 0.96350 -0.01900
H 	H 	0.22770 0.16490 0.11590 -0.03200
H 	H 	0.31600 0.31300 0.08940 0.06500
H 	H 	0.23770 0.26270 0.09770 0.09400
H 	H 	0.04990 0.38860 0.81820 0.07100
H 	H 	0.05680 0.44890 0.87870 0.07800
H 	H 	0.12160 0.04840 0.86020 0.06800
H 	H 	0.21090 0.08610 0.88810 0.07700
H 	H 	0.89470 0.08850 0.02120 0.09100
H 	H 	0.83200 0.15260 0.02460 0.06700
H 	H 	0.70310 0.34390 0.10720 0.25800
H 	H 	0.78570 0.35230 0.15360 0.27000
H 	H 	0.78100 0.28850 0.09590 0.27700
H 	H 	0.72790 0.45550 0.09470 0.27600
H 	H 	0.82190 0.47830 0.07250 0.29300
H 	H 	0.81220 0.46520 0.13970 0.27900
H 	H 	0.72570 0.35750 0.00170 0.27800
H 	H 	0.80680 0.30490 0.99030 0.29400
H 	H 	0.82090 0.37970 0.98080 0.31300
H 	H 	0.41730 0.32620 0.81850 0.27700
H 	H 	0.50450 0.31140 0.85420 0.26900
H 	H 	0.43640 0.36940 0.88680 0.27900
H 	H 	0.38030 0.21020 0.79830 0.31100
H 	H 	0.37390 0.16920 0.85070 0.30800
H 	H 	0.46820 0.19720 0.83430 0.29200
H 	H 	0.41450 0.31510 0.97210 0.33800
H 	H 	0.49030 0.26390 0.93900 0.31900
H 	H 	0.39870 0.23520 0.95920 0.32600
H 	H 	0.70980 0.20870 0.93950 0.24900
H 	H 	0.70120 0.12880 0.91170 0.25000
H 	H 	0.62600 0.17880 0.89760 0.23800
H 	H 	0.74180 0.28440 0.87530 0.28500
H 	H 	0.65710 0.25570 0.83390 0.27000
H 	H 	0.75270 0.25750 0.80270 0.28700
H 	H 	0.72320 0.08280 0.79960 0.27600
H 	H 	0.74120 0.13360 0.75640 0.28400
H 	H 	0.64580 0.13250 0.78810 0.27700
H 	H 	0.35620 0.10250 0.97550 0.32300
H 	H 	0.31550 0.02880 0.94810 0.33500
H 	H 	0.40990 0.03680 0.98230 0.31000
H 	H 	0.27200 0.98760 0.08450 0.33100
H 	H 	0.36290 0.97140 0.04650 0.31500
H 	H 	0.26910 0.96110 0.01150 0.34600
H 	H 	0.34050 0.10000 0.12950 0.31900
H 	H 	0.37330 0.14490 0.08410 0.31600
H 	H 	0.42480 0.07650 0.08600 0.30100
H 	H 	0.35980 0.46270 0.12040 0.07500
H 	H 	0.28720 0.46410 0.07550 0.10000
H 	H 	0.39440 0.57010 0.13240 0.01000
H 	H 	0.30210 0.58450 0.10230 0.00400
H 	H 	0.35410 0.52410 0.00570 0.03500
H 	H 	0.41320 0.58950 0.03390 0.02200
H 	H 	0.46010 0.45570 0.03390 0.02600
H 	H 	0.51870 0.52060 0.06480 0.02100
H 	H 	0.58040 0.79820 0.62430 0.00700
H 	H 	0.54750 0.93270 0.52270 0.00300
H 	H 	0.19900 0.86620 0.46790 -0.02600
H 	H 	0.25410 0.72370 0.31430 -0.01000
H 	H 	0.61630 0.74110 0.31160 -0.01200
H 	H 	0.66560 0.59850 0.40340 -0.02500
H 	H 	0.33260 0.52230 0.46350 -0.02000
H 	H 	0.27230 0.66490 0.61590 -0.03300
H 	H 	0.18400 0.81300 0.58940 0.06600
H 	H 	0.26230 0.76270 0.59770 0.09400
H 	H 	0.45010 0.88860 0.31820 0.07100
H 	H 	0.44320 0.94890 0.37870 0.07800
H 	H 	0.37840 0.54840 0.36020 0.06800
H 	H 	0.28910 0.58610 0.38810 0.07600
H 	H 	0.60530 0.58850 0.52120 0.09000
H 	H 	0.66800 0.65260 0.52460 0.06600
H 	H 	0.79690 0.84390 0.60720 0.25800
H 	H 	0.71430 0.85230 0.65360 0.27000
H 	H 	0.71900 0.78850 0.59590 0.27600
H 	H 	0.77210 0.95550 0.59470 0.27600
H 	H 	0.67810 0.97830 0.57250 0.29300
H 	H 	0.68780 0.96520 0.63970 0.27900
H 	H 	0.77430 0.85750 0.50170 0.27900
H 	H 	0.69320 0.80490 0.49030 0.29600
H 	H 	0.67910 0.87970 0.48080 0.31500
H 	H 	0.08270 0.82620 0.31850 0.27600
H 	H 	0.99550 0.81140 0.35420 0.26800
H 	H 	0.06360 0.86940 0.38680 0.27800
H 	H 	0.11970 0.71020 0.29830 0.31100
H 	H 	0.12610 0.66920 0.35070 0.30700
H 	H 	0.03180 0.69720 0.33430 0.29200
H 	H 	0.08550 0.81510 0.47210 0.33800
H 	H 	0.00970 0.76390 0.43900 0.31800
H 	H 	0.10130 0.73520 0.45920 0.32600
H 	H 	0.79020 0.70870 0.43950 0.24900
H 	H 	0.79880 0.62880 0.41170 0.25000
H 	H 	0.87400 0.67880 0.39760 0.23700
H 	H 	0.75820 0.78440 0.37530 0.28500
H 	H 	0.84290 0.75570 0.33390 0.26900
H 	H 	0.74730 0.75750 0.30270 0.28600
H 	H 	0.77680 0.58280 0.29960 0.27600
H 	H 	0.75880 0.63360 0.25640 0.28400
H 	H 	0.85420 0.63250 0.28810 0.27700
H 	H 	0.14380 0.60250 0.47550 0.32500
H 	H 	0.18450 0.52880 0.44810 0.33700
H 	H 	0.09010 0.53680 0.48230 0.31200
H 	H 	0.22800 0.48760 0.58450 0.33300
H 	H 	0.13710 0.47140 0.54650 0.31700
H 	H 	0.23090 0.46110 0.51150 0.34800
H 	H 	0.15950 0.60000 0.62950 0.32100
H 	H 	0.12670 0.64490 0.58410 0.31800
H 	H 	0.07520 0.57650 0.58600 0.30300
H 	H 	0.14020 0.96270 0.62040 0.07500
H 	H 	0.21280 0.96410 0.57550 0.10000
H 	H 	0.10560 0.07010 0.63240 0.01100
H 	H 	0.19790 0.08450 0.60230 0.00400
H 	H 	0.14590 0.02410 0.50570 0.03500
H 	H 	0.08680 0.08950 0.53390 0.02100
H 	H 	0.03990 0.95570 0.53390 0.02800
H 	H 	0.98130 0.02060 0.56480 0.02300
H 	H 	0.08040 0.70180 0.87570 0.00600
H 	H 	0.04750 0.56730 0.97730 0.00200
H 	H 	0.69900 0.63380 0.03210 -0.02500
H 	H 	0.75410 0.77630 0.18570 -0.01000
H 	H 	0.11630 0.75890 0.18840 -0.01200
H 	H 	0.16560 0.90150 0.09660 -0.02500
H 	H 	0.83260 0.97770 0.03650 -0.01900
H 	H 	0.77230 0.83510 0.88410 -0.03200
H 	H 	0.68400 0.68700 0.91060 0.06500
H 	H 	0.76230 0.73730 0.90230 0.09400
H 	H 	0.95010 0.61140 0.18180 0.07100
H 	H 	0.94320 0.55110 0.12130 0.07800
H 	H 	0.87840 0.95160 0.13980 0.06800
H 	H 	0.78910 0.91390 0.11190 0.07700
H 	H 	0.10530 0.91150 0.97880 0.09100
H 	H 	0.16800 0.84740 0.97540 0.06700
H 	H 	0.29690 0.65610 0.89280 0.25800
H 	H 	0.21430 0.64770 0.84640 0.27000
H 	H 	0.21900 0.71150 0.90410 0.27700
H 	H 	0.27210 0.54450 0.90530 0.27600
H 	H 	0.17810 0.52170 0.92750 0.29300
H 	H 	0.18780 0.53480 0.86030 0.27900
H 	H 	0.27430 0.64250 0.99830 0.27800
H 	H 	0.19320 0.69510 0.00970 0.29400
H 	H 	0.17910 0.62030 0.01920 0.31300
H 	H 	0.58270 0.67380 0.18150 0.27700
H 	H 	0.49550 0.68860 0.14580 0.26900
H 	H 	0.56360 0.63060 0.11320 0.27900
H 	H 	0.61970 0.78980 0.20170 0.31100
H 	H 	0.62610 0.83080 0.14930 0.30800
H 	H 	0.53180 0.80280 0.16570 0.29200
H 	H 	0.58550 0.68490 0.02790 0.33800
H 	H 	0.50970 0.73610 0.06100 0.31900
H 	H 	0.60130 0.76480 0.04080 0.32600
H 	H 	0.29020 0.79130 0.06050 0.24900
H 	H 	0.29880 0.87120 0.08830 0.25000
H 	H 	0.37400 0.82120 0.10240 0.23800
H 	H 	0.25820 0.71560 0.12470 0.28500
H 	H 	0.34290 0.74430 0.16610 0.27000
H 	H 	0.24730 0.74250 0.19730 0.28700
H 	H 	0.27680 0.91720 0.20040 0.27600
H 	H 	0.25880 0.86640 0.24360 0.28400
H 	H 	0.35420 0.86750 0.21190 0.27700
H 	H 	0.64380 0.89750 0.02450 0.32300
H 	H 	0.68450 0.97120 0.05190 0.33500
H 	H 	0.59010 0.96320 0.01770 0.31000
H 	H 	0.72800 0.01240 0.91550 0.33100
H 	H 	0.63710 0.02860 0.95350 0.31500
H 	H 	0.73090 0.03890 0.98850 0.34600
H 	H 	0.65950 0.90000 0.87050 0.31900
H 	H 	0.62670 0.85510 0.91590 0.31600
H 	H 	0.57520 0.92350 0.91400 0.30100
H 	H 	0.64020 0.53730 0.87960 0.07500
H 	H 	0.71280 0.53590 0.92450 0.10000
H 	H 	0.60560 0.42990 0.86760 0.01000
H 	H 	0.69790 0.41550 0.89770 0.00400
H 	H 	0.64590 0.47590 0.99430 0.03500
H 	H 	0.58680 0.41050 0.96610 0.02200
H 	H 	0.53990 0.54430 0.96610 0.02600
H 	H 	0.48130 0.47940 0.93520 0.02100
C 	C 	0.60520 0.15560 0.42720 0.12500
C 	C 	0.54910 0.19100 0.39670 -0.06300
C 	C 	0.45750 0.17780 0.39700 0.07700
C 	C 	0.41850 0.13290 0.42570 -0.24600
C 	C 	0.47630 0.09890 0.45660 0.07100
C 	C 	0.56780 0.11000 0.45790 -0.05900
C 	C 	0.61320 0.16330 0.60440 0.12800
C 	C 	0.67260 0.13210 0.55910 -0.08000
C 	C 	0.76000 0.15490 0.56310 0.10100
C 	C 	0.78990 0.20730 0.61040 -0.29900
C 	C 	0.72780 0.23930 0.65360 0.09300
C 	C 	0.63980 0.21790 0.65030 -0.06900
C 	C 	0.52820 0.35150 0.63590 0.12500
C 	C 	0.49510 0.30390 0.66590 -0.05500
C 	C 	0.40420 0.29270 0.66900 0.06300
C 	C 	0.34260 0.32940 0.64440 -0.24700
C 	C 	0.37550 0.37580 0.61390 0.07000
C 	C 	0.46700 0.38630 0.60750 -0.07200
C 	C 	0.54030 0.35390 0.46040 0.15000
C 	C 	0.56720 0.41020 0.50810 -0.08400
C 	C 	0.65120 0.43870 0.50580 0.11600
C 	C 	0.71230 0.41150 0.45980 -0.35000
C 	C 	0.68660 0.35460 0.41560 0.12000
C 	C 	0.60350 0.32520 0.41560 -0.09200
C 	C 	0.75390 0.18900 0.39610 -0.19800
C 	C 	0.75020 0.15610 0.32910 0.38300
C 	C 	0.52190 0.09160 0.64150 -0.17500
C 	C 	0.42860 0.07040 0.65180 0.37000
C 	C 	0.66450 0.41590 0.64370 -0.18900
C 	C 	0.70790 0.43700 0.70450 0.35800
C 	C 	0.38240 0.36480 0.45510 -0.18500
C 	C 	0.35280 0.36790 0.39230 0.37500
C 	C 	0.31780 0.12310 0.42810 0.67000
C 	C 	0.26740 0.16320 0.38940 -0.91000
C 	C 	0.29270 0.04950 0.40310 -0.94200
C 	C 	0.29040 0.14740 0.49470 -0.96600
C 	C 	0.88800 0.22850 0.61500 0.77500
C 	C 	0.94160 0.17540 0.64130 -0.92400
C 	C 	0.90400 0.29370 0.66200 -1.03100
C 	C 	0.92590 0.22860 0.55660 -1.13500
C 	C 	0.24120 0.31980 0.65280 0.66000
C 	C 	0.18990 0.32650 0.59590 -0.87900
C 	C 	0.22140 0.24930 0.66090 -0.93200
C 	C 	0.21020 0.37220 0.70670 -0.95600
C 	C 	0.80560 0.44060 0.46010 0.89200
C 	C 	0.85050 0.44340 0.51830 -1.14700
C 	C 	0.80210 0.51100 0.45390 -1.15500
C 	C 	0.86640 0.40140 0.41080 -1.10000
C 	C 	0.85110 0.94870 0.40060 -0.03500
C 	C 	0.89680 0.95610 0.46130 -0.10400
C 	C 	0.97650 0.99810 0.46890 -0.08300
C 	C 	0.10520 0.34440 0.07280 0.12700
C 	C 	0.04910 0.30900 0.10330 -0.06700
C 	C 	0.95750 0.32220 0.10300 0.08100
C 	C 	0.91850 0.36710 0.07430 -0.24700
C 	C 	0.97630 0.40110 0.04340 0.07500
C 	C 	0.06780 0.39000 0.04210 -0.06200
C 	C 	0.11320 0.33670 0.89560 0.12800
C 	C 	0.17260 0.36790 0.94090 -0.07900
C 	C 	0.26000 0.34510 0.93690 0.10000
C 	C 	0.28990 0.29270 0.88960 -0.29900
C 	C 	0.22780 0.26070 0.84640 0.09300
C 	C 	0.13980 0.28210 0.84970 -0.06900
C 	C 	0.02820 0.14850 0.86410 0.12500
C 	C 	0.99510 0.19610 0.83410 -0.05600
C 	C 	0.90420 0.20730 0.83100 0.06300
C 	C 	0.84260 0.17060 0.85560 -0.24800
C 	C 	0.87550 0.12420 0.88610 0.07100
C 	C 	0.96700 0.11370 0.89250 -0.07300
C 	C 	0.04030 0.14610 0.03960 0.14400
C 	C 	0.06720 0.08980 0.99190 -0.08000
C 	C 	0.15120 0.06130 0.99420 0.11600
C 	C 	0.21230 0.08850 0.04020 -0.34900
C 	C 	0.18660 0.14540 0.08440 0.11800
C 	C 	0.10350 0.17480 0.08440 -0.09000
C 	C 	0.25390 0.31100 0.10390 -0.19700
C 	C 	0.25020 0.34390 0.17090 0.38300
C 	C 	0.02190 0.40840 0.85850 -0.17400
C 	C 	0.92860 0.42960 0.84820 0.36900
C 	C 	0.16450 0.08410 0.85630 -0.18900
C 	C 	0.20790 0.06300 0.79550 0.35800
C 	C 	0.88240 0.13520 0.04490 -0.18600
C 	C 	0.85280 0.13210 0.10770 0.37500
C 	C 	0.81780 0.37690 0.07190 0.67000
C 	C 	0.76740 0.33680 0.11060 -0.91000
C 	C 	0.79270 0.45050 0.09690 -0.94200
C 	C 	0.79040 0.35260 0.00530 -0.96100
C 	C 	0.38800 0.27150 0.88500 0.77600
C 	C 	0.44160 0.32460 0.85870 -0.92600
C 	C 	0.40400 0.20630 0.83800 -1.03200
C 	C 	0.42590 0.27140 0.94340 -1.13600
C 	C 	0.74120 0.18020 0.84720 0.66100
C 	C 	0.68990 0.17350 0.90410 -0.88000
C 	C 	0.72140 0.25070 0.83910 -0.93200
C 	C 	0.71020 0.12780 0.79330 -0.95700
C 	C 	0.30560 0.05940 0.03990 0.88400
C 	C 	0.35050 0.05660 0.98170 -1.13800
C 	C 	0.30210 0.98900 0.04610 -1.14600
C 	C 	0.36640 0.09860 0.08920 -1.09400
C 	C 	0.35110 0.55130 0.09940 -0.03300
C 	C 	0.39680 0.54390 0.03870 -0.10600
C 	C 	0.47650 0.50190 0.03110 -0.07800
C 	C 	0.39480 0.84440 0.57280 0.12500
C 	C 	0.45090 0.80900 0.60330 -0.06300
C 	C 	0.54250 0.82220 0.60300 0.07700
C 	C 	0.58150 0.86710 0.57430 -0.24600
C 	C 	0.52370 0.90110 0.54340 0.07100
C 	C 	0.43220 0.89000 0.54210 -0.05900
C 	C 	0.38680 0.83670 0.39560 0.12800
C 	C 	0.32740 0.86790 0.44090 -0.08000
C 	C 	0.24000 0.84510 0.43690 0.10100
C 	C 	0.21010 0.79270 0.38960 -0.29900
C 	C 	0.27220 0.76070 0.34640 0.09300
C 	C 	0.36020 0.78210 0.34970 -0.06900
C 	C 	0.47180 0.64850 0.36410 0.12500
C 	C 	0.50490 0.69610 0.33410 -0.05500
C 	C 	0.59580 0.70730 0.33100 0.06300
C 	C 	0.65740 0.67060 0.35560 -0.24700
C 	C 	0.62450 0.62420 0.38610 0.07000
C 	C 	0.53300 0.61370 0.39250 -0.07200
C 	C 	0.45970 0.64610 0.53960 0.15000
C 	C 	0.43280 0.58980 0.49190 -0.08400
C 	C 	0.34880 0.56130 0.49420 0.11600
C 	C 	0.28770 0.58850 0.54020 -0.35000
C 	C 	0.31340 0.64540 0.58440 0.12000
C 	C 	0.39650 0.67480 0.58440 -0.09200
C 	C 	0.24610 0.81100 0.60390 -0.19800
C 	C 	0.24980 0.84390 0.67090 0.38300
C 	C 	0.47810 0.90840 0.35850 -0.17500
C 	C 	0.57140 0.92960 0.34820 0.37000
C 	C 	0.33550 0.58410 0.35630 -0.18900
C 	C 	0.29210 0.56300 0.29550 0.35800
C 	C 	0.61760 0.63520 0.54490 -0.18500
C 	C 	0.64720 0.63210 0.60770 0.37500
C 	C 	0.68220 0.87690 0.57190 0.67000
C 	C 	0.73260 0.83680 0.61060 -0.91000
C 	C 	0.70730 0.95050 0.59690 -0.94200
C 	C 	0.70960 0.85260 0.50530 -0.96600
C 	C 	0.11200 0.77150 0.38500 0.77500
C 	C 	0.05840 0.82460 0.35870 -0.92400
C 	C 	0.09600 0.70630 0.33800 -1.03100
C 	C 	0.07410 0.77140 0.44340 -1.13500
C 	C 	0.75880 0.68020 0.34720 0.66000
C 	C 	0.81010 0.67350 0.40410 -0.87900
C 	C 	0.77860 0.75070 0.33910 -0.93200
C 	C 	0.78980 0.62780 0.29330 -0.95600
C 	C 	0.19440 0.55940 0.53990 0.89200
C 	C 	0.14950 0.55660 0.48170 -1.14700
C 	C 	0.19790 0.48900 0.54610 -1.15500
C 	C 	0.13360 0.59860 0.58920 -1.10000
C 	C 	0.14890 0.05130 0.59940 -0.03500
C 	C 	0.10320 0.04390 0.53870 -0.10400
C 	C 	0.02350 0.00190 0.53110 -0.08300
C 	C 	0.89480 0.65560 0.92720 0.12700
C 	C 	0.95090 0.69100 0.89670 -0.06700
C 	C 	0.04250 0.67780 0.89700 0.08100
C 	C 	0.08150 0.63290 0.92570 -0.24700
C 	C 	0.02370 0.59890 0.95660 0.07500
C 	C 	0.93220 0.61000 0.95790 -0.06200
C 	C 	0.88680 0.66330 0.10440 0.12800
C 	C 	0.82740 0.63210 0.05910 -0.07900
C 	C 	0.74000 0.65490 0.06310 0.10000
C 	C 	0.71010 0.70730 0.11040 -0.29900
C 	C 	0.77220 0.73930 0.15360 0.09300
C 	C 	0.86020 0.71790 0.15030 -0.06900
C 	C 	0.97180 0.85150 0.13590 0.12500
C 	C 	0.00490 0.80390 0.16590 -0.05600
C 	C 	0.09580 0.79270 0.16900 0.06300
C 	C 	0.15740 0.82940 0.14440 -0.24800
C 	C 	0.12450 0.87580 0.11390 0.07100
C 	C 	0.03300 0.88630 0.10750 -0.07300
C 	C 	0.95970 0.85390 0.96040 0.14400
C 	C 	0.93280 0.91020 0.00810 -0.08000
C 	C 	0.84880 0.93870 0.00580 0.11600
C 	C 	0.78770 0.91150 0.95980 -0.34900
C 	C 	0.81340 0.85460 0.91560 0.11800
C 	C 	0.89650 0.82520 0.91560 -0.09000
C 	C 	0.74610 0.68900 0.89610 -0.19700
C 	C 	0.74980 0.65610 0.82910 0.38300
C 	C 	0.97810 0.59160 0.14150 -0.17400
C 	C 	0.07140 0.57040 0.15180 0.36900
C 	C 	0.83550 0.91590 0.14370 -0.18900
C 	C 	0.79210 0.93700 0.20450 0.35800
C 	C 	0.11760 0.86480 0.95510 -0.18600
C 	C 	0.14720 0.86790 0.89230 0.37500
C 	C 	0.18220 0.62310 0.92810 0.67000
C 	C 	0.23260 0.66320 0.88940 -0.91000
C 	C 	0.20730 0.54950 0.90310 -0.94200
C 	C 	0.20960 0.64740 0.99470 -0.96100
C 	C 	0.61200 0.72850 0.11500 0.77600
C 	C 	0.55840 0.67540 0.14130 -0.92600
C 	C 	0.59600 0.79370 0.16200 -1.03200
C 	C 	0.57410 0.72860 0.05660 -1.13600
C 	C 	0.25880 0.81980 0.15280 0.66100
C 	C 	0.31010 0.82650 0.09590 -0.88000
C 	C 	0.27860 0.74930 0.16090 -0.93200
C 	C 	0.28980 0.87220 0.20670 -0.95700
C 	C 	0.69440 0.94060 0.96010 0.88400
C 	C 	0.64950 0.94340 0.01830 -1.13800
C 	C 	0.69790 0.01100 0.95390 -1.14600
C 	C 	0.63360 0.90140 0.91080 -1.09400
C 	C 	0.64890 0.44870 0.90060 -0.03300
C 	C 	0.60320 0.45610 0.96130 -0.10600
C 	C 	0.52350 0.49810 0.96890 -0.07800
S 	S 	0.63689 0.06458 0.49846 -0.01800
S 	S 	0.56548 0.26091 0.70793 -0.02100
S 	S 	0.49626 0.45035 0.56914 -0.00700
S 	S 	0.58139 0.25207 0.35652 0.01100
S 	S 	0.13689 0.43542 0.00154 -0.02000
S 	S 	0.06548 0.23909 0.79207 -0.02000
S 	S 	0.99626 0.04965 0.93086 -0.00800
S 	S 	0.08139 0.24793 0.14348 0.01000
S 	S 	0.36311 0.93542 0.50154 -0.01800
S 	S 	0.43452 0.73909 0.29207 -0.02100
S 	S 	0.50374 0.54965 0.43086 -0.00700
S 	S 	0.41861 0.74793 0.64348 0.01100
S 	S 	0.86311 0.56458 0.99846 -0.02000
S 	S 	0.93452 0.76091 0.20793 -0.02000
S 	S 	0.00374 0.95035 0.06914 -0.00800
S 	S 	0.91861 0.75207 0.85652 0.01000
N 	N 	0.81420 0.01150 0.38940 -0.32800
N 	N 	0.31420 0.48850 0.11060 -0.32900
N 	N 	0.18580 0.98850 0.61060 -0.32800
N 	N 	0.68580 0.51150 0.88940 -0.32900
O 	O 	0.69690 0.15900 0.43250 -0.18000
O 	O 	0.70980 0.10230 0.31000 -0.53900
O 	O 	0.78940 0.18540 0.29370 -0.45400
O 	O 	0.52580 0.13980 0.60490 -0.16200
O 	O 	0.36400 0.08650 0.62720 -0.39500
O 	O 	0.42550 0.03100 0.68760 -0.45600
O 	O 	0.61930 0.35370 0.63060 -0.15600
O 	O 	0.69610 0.40700 0.74530 -0.41400
O 	O 	0.76060 0.48640 0.71060 -0.56700
O 	O 	0.45900 0.32430 0.45910 -0.16900
O 	O 	0.37500 0.32750 0.34670 -0.39300
O 	O 	0.30020 0.41570 0.39210 -0.49300
O 	O 	0.19690 0.34100 0.06750 -0.18100
O 	O 	0.20980 0.39770 0.19000 -0.53900
O 	O 	0.28940 0.31460 0.20630 -0.45400
O 	O 	0.02580 0.36020 0.89510 -0.16200
O 	O 	0.86400 0.41350 0.87280 -0.39500
O 	O 	0.92550 0.46900 0.81240 -0.45600
O 	O 	0.11930 0.14630 0.86940 -0.15600
O 	O 	0.19610 0.09300 0.75470 -0.41400
O 	O 	0.26060 0.01360 0.78940 -0.56700
O 	O 	0.95900 0.17570 0.04090 -0.16600
O 	O 	0.87500 0.17250 0.15330 -0.39300
O 	O 	0.80020 0.08430 0.10790 -0.49300
O 	O 	0.30310 0.84100 0.56750 -0.18000
O 	O 	0.29020 0.89770 0.69000 -0.53900
O 	O 	0.21060 0.81460 0.70630 -0.45400
O 	O 	0.47420 0.86020 0.39510 -0.16200
O 	O 	0.63600 0.91350 0.37280 -0.39500
O 	O 	0.57450 0.96900 0.31240 -0.45600
O 	O 	0.38070 0.64630 0.36940 -0.15600
O 	O 	0.30390 0.59300 0.25470 -0.41400
O 	O 	0.23940 0.51360 0.28940 -0.56700
O 	O 	0.54100 0.67570 0.54090 -0.16900
O 	O 	0.62500 0.67250 0.65330 -0.39300
O 	O 	0.69980 0.58430 0.60790 -0.49300
O 	O 	0.80310 0.65900 0.93250 -0.18100
O 	O 	0.79020 0.60230 0.81000 -0.53900
O 	O 	0.71060 0.68540 0.79370 -0.45400
O 	O 	0.97420 0.63980 0.10490 -0.16200
O 	O 	0.13600 0.58650 0.12720 -0.39500
O 	O 	0.07450 0.53100 0.18760 -0.45600
O 	O 	0.88070 0.85370 0.13060 -0.15600
O 	O 	0.80390 0.90700 0.24530 -0.41400
O 	O 	0.73940 0.98640 0.21060 -0.56700
O 	O 	0.04100 0.82430 0.95910 -0.16600
O 	O 	0.12500 0.82750 0.84670 -0.39300
O 	O 	0.19980 0.91570 0.89210 -0.49300
