data_crystal

_cell_length_a 13.99710
_cell_length_b 14.57850
_cell_length_c 14.76210
_cell_angle_alpha 97.32500
_cell_angle_beta  98.47700
_cell_angle_gamma 100.96000

_symmetry_space_group_name_	'P 1'
_symmetry_space_group_name_H-M	'P 1'

loop_
_symmetry_equiv_pos_as_xyz
  x,y,z

loop_
_atom_site_label
_atom_site_type_symbol
_atom_site_fract_x
_atom_site_fract_y
_atom_site_fract_z
_atom_site_charge
W 	W 	0.32531 0.48413 0.69041 0.92100
W 	W 	0.24966 0.49383 0.89671 1.27400
W 	W 	0.10764 0.54461 0.71119 0.98400
W 	W 	0.24895 0.71866 0.03445 1.25200
W 	W 	0.10296 0.77630 0.85517 0.98800
W 	W 	0.32131 0.92079 0.95451 1.29700
W 	W 	0.25529 0.88662 0.70047 0.98300
W 	W 	0.26376 0.68075 0.57466 0.96800
W 	W 	0.48034 0.83265 0.68548 1.23600
Co	Co	0.48130 0.65719 0.00064 1.19000
Co	Co	0.55532 0.65505 0.80748 1.15800
Co	Co	0.55445 0.84427 0.92390 1.18500
Co	Co	0.26917 0.30875 0.03876 1.14600
Co	Co	0.65440 0.87310 0.53032 1.09100
Si	Si	0.33383 0.70845 0.82207 1.87100
O 	O 	0.44890 0.53860 0.74450 -0.56700
O 	O 	0.28920 0.42220 0.79150 -0.43500
O 	O 	0.32000 0.57950 0.60700 -0.51300
O 	O 	0.17800 0.46260 0.65000 -0.44800
O 	O 	0.27480 0.59680 0.78950 -0.71900
O 	O 	0.21060 0.39990 0.95450 -0.54500
O 	O 	0.37500 0.53710 0.94960 -0.51700
O 	O 	0.20760 0.59350 0.96480 -0.50400
O 	O 	0.11850 0.47730 0.81100 -0.47700
O 	O 	0.08180 0.64850 0.79010 -0.46300
O 	O 	0.15470 0.63140 0.63320 -0.49500
O 	O 	0.20870 0.70200 0.13750 -0.46300
O 	O 	0.37400 0.70790 0.05610 -0.53800
O 	O 	0.28280 0.85560 0.05360 -0.47700
O 	O 	0.11330 0.73280 0.96810 -0.46800
O 	O 	0.27210 0.76220 0.89140 -0.74900
O 	O 	0.17150 0.89760 0.91580 -0.44600
O 	O 	0.15030 0.81620 0.74700 -0.51000
O 	O 	0.33760 0.03650 0.01100 -0.52000
O 	O 	0.44270 0.90110 0.96850 -0.54000
O 	O 	0.31610 0.93860 0.82740 -0.48600
O 	O 	0.38210 0.91800 0.66770 -0.44100
O 	O 	0.21300 0.79690 0.58880 -0.49700
O 	O 	0.33610 0.75950 0.72830 -0.72000
O 	O 	0.38490 0.75370 0.56640 -0.46600
O 	O 	0.56250 0.89040 0.62070 -0.58500
O 	O 	0.52600 0.89330 0.80030 -0.53200
O 	O 	0.52430 0.72560 0.69810 -0.58900
O 	O 	0.51920 0.60860 0.12130 -0.34700
O 	O 	0.41390 0.38940 0.06500 -0.56700
O 	O 	0.42890 0.21100 0.95040 -0.57600
O 	O 	0.44690 0.71450 0.87380 -0.93600
O 	O 	0.34470 0.22860 0.11910 -0.60700
O 	O 	0.34550 0.39590 0.26840 -0.54600
O 	O 	0.27460 0.23250 0.91080 -0.48900
O 	O 	0.22180 0.38040 0.14900 -0.48100
O 	O 	0.23100 0.11900 0.55100 -0.29600
O 	O 	0.28400 0.19390 0.57300 -0.25900
O 	O 	0.55600 0.75080 0.45680 -0.44600
C 	C 	0.25840 0.39430 0.23490 0.43000
C 	C 	0.18550 0.41140 0.30010 -0.41900
H 	H 	0.15920 0.46730 0.28590 0.12100
H 	H 	0.12920 0.35610 0.28650 0.09400
C 	C 	0.22670 0.42680 0.40020 0.15000
H 	H 	0.27740 0.48640 0.41680 -0.09800
H 	H 	0.25860 0.37410 0.41500 -0.09100
N 	N 	0.14530 0.43200 0.45530 -0.28800
H 	H 	0.10730 0.47080 0.43240 0.04700
H 	H 	0.17200 0.45520 0.51580 0.09500
H 	H 	0.10730 0.37300 0.45110 -0.02200
C 	C 	0.35000 0.20670 0.89120 0.47800
C 	C 	0.35130 0.16910 0.79240 -0.45000
H 	H 	0.32580 0.21230 0.75300 0.15900
H 	H 	0.30450 0.10700 0.77550 0.14500
C 	C 	0.45100 0.15620 0.76780 0.17800
H 	H 	0.49760 0.21840 0.78000 -0.06100
H 	H 	0.44210 0.13110 0.70090 -0.05400
N 	N 	0.49500 0.08760 0.82500 -0.36200
H 	H 	0.50830 0.11310 0.88630 0.16100
H 	H 	0.55180 0.07790 0.80610 0.14200
H 	H 	0.45080 0.03140 0.81640 0.16200
K 	K 	0.00030 0.63620 0.08900 0.64200
K 	K 	0.51700 0.59270 0.55430 0.59000
K 	K 	0.99010 0.74170 0.57750 0.60400
K 	K 	0.45150 0.61650 0.28470 0.61500
O 	O 	0.94700 0.54050 0.90830 -0.25000
W 	W 	0.67469 0.51587 0.30959 0.92000
W 	W 	0.75034 0.50617 0.10329 1.27300
W 	W 	0.89236 0.45539 0.28881 0.98300
W 	W 	0.75105 0.28134 0.96555 1.25100
W 	W 	0.89704 0.22370 0.14483 0.98800
W 	W 	0.67869 0.07921 0.04549 1.29700
W 	W 	0.74471 0.11338 0.29953 0.98300
W 	W 	0.73624 0.31925 0.42534 0.96800
W 	W 	0.51966 0.16735 0.31452 1.23600
Co	Co	0.51870 0.34281 0.99936 1.19000
Co	Co	0.44468 0.34495 0.19252 1.15800
Co	Co	0.44555 0.15573 0.07610 1.18500
Co	Co	0.73083 0.69125 0.96124 1.14600
Co	Co	0.34560 0.12690 0.46968 1.09100
Si	Si	0.66617 0.29155 0.17793 1.87100
O 	O 	0.55110 0.46140 0.25550 -0.56700
O 	O 	0.71080 0.57780 0.20850 -0.43500
O 	O 	0.68000 0.42050 0.39300 -0.51300
O 	O 	0.82200 0.53740 0.35000 -0.44800
O 	O 	0.72520 0.40320 0.21050 -0.71900
O 	O 	0.78940 0.60010 0.04550 -0.54500
O 	O 	0.62500 0.46290 0.05040 -0.51700
O 	O 	0.79240 0.40650 0.03520 -0.50400
O 	O 	0.88150 0.52270 0.18900 -0.47700
O 	O 	0.91820 0.35150 0.20990 -0.46300
O 	O 	0.84530 0.36860 0.36680 -0.49500
O 	O 	0.79130 0.29800 0.86250 -0.46300
O 	O 	0.62600 0.29210 0.94390 -0.53800
O 	O 	0.71720 0.14440 0.94640 -0.47700
O 	O 	0.88670 0.26720 0.03190 -0.46800
O 	O 	0.72790 0.23780 0.10860 -0.74900
O 	O 	0.82850 0.10240 0.08420 -0.44600
O 	O 	0.84970 0.18380 0.25300 -0.51000
O 	O 	0.66240 0.96350 0.98900 -0.52000
O 	O 	0.55730 0.09890 0.03150 -0.54000
O 	O 	0.68390 0.06140 0.17260 -0.48600
O 	O 	0.61790 0.08200 0.33230 -0.44100
O 	O 	0.78700 0.20310 0.41120 -0.49700
O 	O 	0.66390 0.24050 0.27170 -0.72000
O 	O 	0.61510 0.24630 0.43360 -0.46600
O 	O 	0.43750 0.10960 0.37930 -0.58500
O 	O 	0.47400 0.10670 0.19970 -0.53200
O 	O 	0.47570 0.27440 0.30190 -0.58900
O 	O 	0.48080 0.39140 0.87870 -0.34700
O 	O 	0.58610 0.61060 0.93500 -0.56700
O 	O 	0.57110 0.78900 0.04960 -0.57600
O 	O 	0.55310 0.28550 0.12620 -0.93600
O 	O 	0.65530 0.77140 0.88090 -0.60700
O 	O 	0.65450 0.60410 0.73160 -0.54600
O 	O 	0.72540 0.76750 0.08920 -0.48900
O 	O 	0.77820 0.61960 0.85100 -0.48100
O 	O 	0.76900 0.88100 0.44900 -0.29600
O 	O 	0.71600 0.80610 0.42700 -0.25900
O 	O 	0.44400 0.24920 0.54320 -0.44600
C 	C 	0.74160 0.60570 0.76510 0.43000
C 	C 	0.81450 0.58860 0.69990 -0.41900
H 	H 	0.84080 0.53270 0.71410 0.12100
H 	H 	0.87080 0.64390 0.71350 0.09400
C 	C 	0.77330 0.57320 0.59980 0.15000
H 	H 	0.72260 0.51360 0.58320 -0.09800
H 	H 	0.74140 0.62590 0.58500 -0.09100
N 	N 	0.85470 0.56800 0.54470 -0.28800
H 	H 	0.89270 0.52920 0.56760 0.04700
H 	H 	0.82800 0.54480 0.48420 0.09500
H 	H 	0.89270 0.62700 0.54890 -0.02200
C 	C 	0.65000 0.79330 0.10880 0.47800
C 	C 	0.64870 0.83090 0.20760 -0.45000
H 	H 	0.67420 0.78770 0.24700 0.15900
H 	H 	0.69550 0.89300 0.22450 0.14500
C 	C 	0.54900 0.84380 0.23220 0.17800
H 	H 	0.50240 0.78160 0.22000 -0.06100
H 	H 	0.55790 0.86890 0.29910 -0.05400
N 	N 	0.50500 0.91240 0.17500 -0.36200
H 	H 	0.49170 0.88690 0.11370 0.16100
H 	H 	0.44820 0.92210 0.19390 0.14200
H 	H 	0.54920 0.96860 0.18360 0.16200
K 	K 	0.99970 0.36380 0.91100 0.64200
K 	K 	0.48300 0.40730 0.44570 0.59000
K 	K 	0.00990 0.25830 0.42250 0.60400
K 	K 	0.54850 0.38350 0.71530 0.61500
O 	O 	0.05300 0.45950 0.09170 -0.25000
