data_crystal

_cell_length_a 9.51210
_cell_length_b 9.88190
_cell_length_c 12.11720
_cell_angle_alpha 70.53300
_cell_angle_beta  73.47300
_cell_angle_gamma 82.32800

_symmetry_space_group_name_	'P 1'
_symmetry_space_group_name_H-M	'P 1'

loop_
_symmetry_equiv_pos_as_xyz
  x,y,z

loop_
_atom_site_label
_atom_site_type_symbol
_atom_site_fract_x
_atom_site_fract_y
_atom_site_fract_z
_atom_site_charge
Mn	Mn	0.14671 0.30605 0.64121 1.25900
Al	Al	0.23050 0.97474 0.43051 2.39600
Al	Al	0.48360 0.52428 0.68064 2.39500
Al	Al	0.93339 0.67164 0.85039 2.39800
P 	P 	0.18823 0.42239 0.86757 0.77200
P 	P 	0.03241 0.97995 0.68437 0.74300
P 	P 	0.24560 0.30683 0.34084 0.77000
P 	P 	0.53375 0.28318 0.56789 0.73100
O 	O 	0.08550 0.55640 0.85260 -0.83200
O 	O 	0.29450 0.14820 0.36530 -0.79300
O 	O 	0.62290 0.14190 0.59980 -0.75800
O 	O 	0.34580 0.47630 0.81340 -0.76400
O 	O 	0.99680 0.84490 0.79500 -0.74600
O 	O 	0.15800 0.32050 0.81100 -0.49900
O 	O 	0.88850 0.04430 0.65040 -0.79100
O 	O 	0.13150 0.92930 0.58070 -0.84000
O 	O 	0.17610 0.35030 0.00310 -0.74900
O 	O 	0.37440 0.26270 0.59330 -0.53300
O 	O 	0.17170 0.35060 0.23670 -0.80100
O 	O 	0.56520 0.37360 0.63950 -0.79300
O 	O 	0.59930 0.36190 0.43130 -0.81000
O 	O 	0.14260 0.33580 0.45070 -0.53800
O 	O 	0.38660 0.39130 0.29310 -0.77000
O 	O 	0.10140 0.08510 0.71480 -0.44700
Mn	Mn	0.85329 0.69395 0.35879 1.25900
Al	Al	0.76950 0.02526 0.56949 2.39600
Al	Al	0.51640 0.47572 0.31936 2.39500
Al	Al	0.06661 0.32836 0.14961 2.39800
P 	P 	0.81177 0.57761 0.13243 0.77200
P 	P 	0.96759 0.02005 0.31563 0.74300
P 	P 	0.75440 0.69317 0.65916 0.77000
P 	P 	0.46625 0.71682 0.43211 0.73100
O 	O 	0.91450 0.44360 0.14740 -0.83200
O 	O 	0.70550 0.85180 0.63470 -0.79300
O 	O 	0.37710 0.85810 0.40020 -0.75800
O 	O 	0.65420 0.52370 0.18660 -0.76400
O 	O 	0.00320 0.15510 0.20500 -0.74600
O 	O 	0.84200 0.67950 0.18900 -0.49900
O 	O 	0.11150 0.95570 0.34960 -0.79100
O 	O 	0.86850 0.07070 0.41930 -0.84000
O 	O 	0.82390 0.64970 0.99690 -0.74900
O 	O 	0.62560 0.73730 0.40670 -0.53300
O 	O 	0.82830 0.64940 0.76330 -0.80100
O 	O 	0.43480 0.62640 0.36050 -0.79300
O 	O 	0.40070 0.63810 0.56870 -0.81000
O 	O 	0.85740 0.66420 0.54930 -0.53800
O 	O 	0.61340 0.60870 0.70690 -0.77000
O 	O 	0.89860 0.91490 0.28520 -0.44700
