data_crystal

_cell_length_a 8.85470
_cell_length_b 9.96890
_cell_length_c 12.97210
_cell_angle_alpha 97.00500
_cell_angle_beta  97.88500
_cell_angle_gamma 90.92900

_symmetry_space_group_name_	'P 1'
_symmetry_space_group_name_H-M	'P 1'

loop_
_symmetry_equiv_pos_as_xyz
  x,y,z

loop_
_atom_site_label
_atom_site_type_symbol
_atom_site_fract_x
_atom_site_fract_y
_atom_site_fract_z
_atom_site_charge
S 	S 	0.93229 0.10138 0.74667 0.97000
O 	O 	0.01176 0.04605 0.83903 -0.61400
O 	O 	0.03052 0.08503 0.66267 -0.63800
O 	O 	0.78826 0.02169 0.70940 -0.43500
O 	O 	0.90187 0.24321 0.77319 -0.34600
N 	N 	0.09987 0.20592 0.07083 -0.25200
N 	N 	0.21868 0.38017 0.17216 -0.11000
N 	N 	0.23886 0.91907 0.00046 -0.22400
N 	N 	0.46679 0.85378 0.06180 -0.10000
N 	N 	0.92160 0.19578 0.45410 -0.24500
N 	N 	0.87936 0.36493 0.36095 -0.07900
C 	C 	0.45170 0.52098 0.24236 0.23300
C 	C 	0.45430 0.64230 0.19962 -0.30100
H 	H 	0.36390 0.68670 0.18420 0.15300
C 	C 	0.59090 0.69770 0.17973 0.25100
C 	C 	0.72520 0.63167 0.20523 -0.32400
H 	H 	0.81720 0.66880 0.19310 0.17000
C 	C 	0.72440 0.51111 0.24858 0.26000
C 	C 	0.58740 0.45535 0.26609 -0.30400
H 	H 	0.58590 0.37370 0.29380 0.12800
C 	C 	0.30270 0.46230 0.26397 -0.21800
H 	H 	0.32310 0.40690 0.32050 0.07800
H 	H 	0.23960 0.53550 0.28710 0.09300
C 	C 	0.59900 0.83270 0.13780 -0.24300
H 	H 	0.60670 0.90470 0.19590 0.14800
H 	H 	0.69050 0.83770 0.10480 0.12300
C 	C 	0.87570 0.44560 0.27395 -0.26300
H 	H 	0.95570 0.51560 0.29130 0.15500
H 	H 	0.89700 0.38800 0.21210 0.13200
C 	C 	0.15530 0.42630 0.08107 0.03900
H 	H 	0.16060 0.51450 0.06490 -0.01000
C 	C 	0.08350 0.31830 0.01938 -0.17100
H 	H 	0.03110 0.31990 0.95230 0.09400
C 	C 	0.18190 0.24667 0.16208 0.05100
H 	H 	0.21090 0.19070 0.21320 -0.04800
C 	C 	0.43960 0.80170 0.95880 0.04000
H 	H 	0.50400 0.74840 0.92140 0.05100
C 	C 	0.30030 0.84300 0.92168 0.07200
H 	H 	0.25280 0.82290 0.85280 0.03000
C 	C 	0.34350 0.92310 0.08285 0.09100
H 	H 	0.33350 0.96870 0.14840 0.04600
C 	C 	0.84640 0.40800 0.45979 -0.01600
H 	H 	0.81240 0.49250 0.48340 0.05700
C 	C 	0.87320 0.30320 0.51604 0.01700
H 	H 	0.86080 0.30390 0.58610 0.03400
C 	C 	0.92300 0.23710 0.36124 0.07100
H 	H 	0.95080 0.18390 0.30330 -0.01400
S 	S 	0.06771 0.89862 0.25333 0.44600
O 	O 	0.98824 0.95395 0.16097 -0.26400
O 	O 	0.96948 0.91497 0.33733 -0.28900
O 	O 	0.21174 0.97831 0.29060 -0.23700
O 	O 	0.09813 0.75679 0.22681 -0.32000
N 	N 	0.90013 0.79408 0.92917 -0.17300
N 	N 	0.78132 0.61983 0.82784 -0.07200
N 	N 	0.76114 0.08093 0.99954 -0.19800
N 	N 	0.53321 0.14622 0.93820 -0.07000
N 	N 	0.07840 0.80422 0.54590 -0.21900
N 	N 	0.12064 0.63507 0.63905 -0.10000
C 	C 	0.54830 0.47902 0.75764 0.24000
C 	C 	0.54570 0.35770 0.80038 -0.29800
H 	H 	0.63610 0.31330 0.81580 0.16200
C 	C 	0.40910 0.30230 0.82027 0.23400
C 	C 	0.27480 0.36833 0.79477 -0.29700
H 	H 	0.18280 0.33120 0.80690 0.13400
C 	C 	0.27560 0.48889 0.75142 0.22500
C 	C 	0.41260 0.54465 0.73391 -0.29900
H 	H 	0.41410 0.62630 0.70620 0.15100
C 	C 	0.69730 0.53770 0.73603 -0.23300
H 	H 	0.67690 0.59310 0.67950 0.11400
H 	H 	0.76040 0.46450 0.71290 0.12500
C 	C 	0.40100 0.16730 0.86220 -0.20600
H 	H 	0.39330 0.09530 0.80410 0.06500
H 	H 	0.30950 0.16230 0.89520 0.09300
C 	C 	0.12430 0.55440 0.72605 -0.20700
H 	H 	0.04430 0.48440 0.70870 0.07000
H 	H 	0.10300 0.61200 0.78790 0.08500
C 	C 	0.84470 0.57370 0.91893 -0.04500
H 	H 	0.83940 0.48550 0.93510 0.09000
C 	C 	0.91650 0.68170 0.98062 0.12600
H 	H 	0.96890 0.68010 0.04770 -0.00500
C 	C 	0.81810 0.75333 0.83792 0.09400
H 	H 	0.78910 0.80930 0.78680 0.07200
C 	C 	0.56040 0.19830 0.04120 -0.08500
H 	H 	0.49600 0.25160 0.07860 0.04600
C 	C 	0.69970 0.15700 0.07832 -0.04400
H 	H 	0.74720 0.17710 0.14720 0.01300
C 	C 	0.65650 0.07690 0.91715 0.06700
H 	H 	0.66650 0.03130 0.85160 -0.01300
C 	C 	0.15360 0.59200 0.54021 -0.02200
H 	H 	0.18760 0.50750 0.51660 0.02000
C 	C 	0.12680 0.69680 0.48396 -0.00800
H 	H 	0.13920 0.69610 0.41390 0.02000
C 	C 	0.07700 0.76290 0.63876 0.07000
H 	H 	0.04920 0.81610 0.69670 0.02500
Mn	Mn	-0.00000 0.00000 -0.00000 1.14100
Mn	Mn	-0.00000 0.00000 0.50000 1.14400
