data_crystal

_cell_length_a 8.55550
_cell_length_b 11.44450
_cell_length_c 8.10600
_cell_angle_alpha 90.00000
_cell_angle_beta  90.00000
_cell_angle_gamma 90.00000

_symmetry_space_group_name_	'P 1'
_symmetry_space_group_name_H-M	'P 1'

loop_
_symmetry_equiv_pos_as_xyz
  x,y,z

loop_
_atom_site_label
_atom_site_type_symbol
_atom_site_fract_x
_atom_site_fract_y
_atom_site_fract_z
_atom_site_charge
O 	O 	0.02269 0.34585 0.11649 -0.48800
O 	O 	0.97731 0.84585 0.88351 -0.43600
O 	O 	0.97731 0.65415 0.88351 -0.50000
O 	O 	0.02269 0.15415 0.11649 -0.51700
Cu	Cu	-0.00000 0.50000 -0.00000 0.73700
Cu	Cu	-0.00000 0.00000 -0.00000 0.67000
C 	C 	0.00450 0.25000 0.04540 0.17700
H 	H 	0.97500 0.25000 0.93100 -0.03200
C 	C 	0.99550 0.75000 0.95460 0.72100
H 	H 	0.02500 0.75000 0.06900 -0.36800
O 	O 	0.47731 0.65415 0.61649 -0.49000
O 	O 	0.52269 0.15415 0.38351 -0.55600
O 	O 	0.52269 0.34585 0.38351 -0.52800
O 	O 	0.47731 0.84585 0.61649 -0.42500
Cu	Cu	0.50000 0.50000 0.50000 0.80000
Cu	Cu	0.50000 0.00000 0.50000 0.73100
C 	C 	0.49550 0.75000 0.54540 0.44500
H 	H 	0.52500 0.75000 0.43100 -0.19000
C 	C 	0.50450 0.25000 0.45460 0.47900
H 	H 	0.47500 0.25000 0.56900 -0.23000
