data_crystal

_cell_length_a 35.52200
_cell_length_b 13.84600
_cell_length_c 9.54800
_cell_angle_alpha 90.00000
_cell_angle_beta  103.20000
_cell_angle_gamma 90.00000

_symmetry_space_group_name_	'P 1'
_symmetry_space_group_name_H-M	'P 1'

loop_
_symmetry_equiv_pos_as_xyz
  x,y,z

loop_
_atom_site_label
_atom_site_type_symbol
_atom_site_fract_x
_atom_site_fract_y
_atom_site_fract_z
_atom_site_charge
Co	Co	0.36450 0.20681 0.17226 1.11400
O 	O 	0.14611 0.55841 0.06670 -0.33400
N 	N 	0.33228 0.21600 0.95510 -0.25900
O 	O 	0.33546 0.32691 0.21920 -0.43200
O 	O 	0.17877 0.62203 0.27400 -0.43600
O 	O 	0.36667 0.36320 0.44240 -0.31400
N 	N 	0.40821 0.29600 0.11580 -0.27400
C 	C 	0.27383 0.25570 0.78800 -0.21800
H 	H 	0.24820 0.27540 0.77230 0.11700
C 	C 	0.27655 0.45230 0.24410 0.02200
H 	H 	0.27550 0.41910 0.15860 0.03800
C 	C 	0.21047 0.51100 0.15450 -0.24200
H 	H 	0.20910 0.47450 0.07170 0.12300
C 	C 	0.24287 0.50910 0.25330 0.03500
H 	H 	0.24440 0.54680 0.33510 0.03000
C 	C 	0.29576 0.24420 0.92550 0.13000
H 	H 	0.28430 0.25690 0.00190 -0.01400
C 	C 	0.29070 0.23730 0.67270 0.16600
C 	C 	0.17605 0.56720 0.16620 0.38000
C 	C 	0.33943 0.37340 0.33480 0.38700
C 	C 	0.32857 0.20770 0.70370 -0.22000
H 	H 	0.34080 0.19390 0.62960 0.11700
C 	C 	0.34834 0.19860 0.84400 0.13100
H 	H 	0.37410 0.17940 0.86290 -0.03900
C 	C 	0.30841 0.44340 0.34530 -0.23100
H 	H 	0.31170 0.48240 0.42660 0.12200
C 	C 	0.26873 0.24580 0.51960 -0.16500
H 	H 	0.27940 0.30130 0.47990 0.08500
H 	H 	0.27550 0.18960 0.47000 0.08300
C 	C 	0.44330 0.26440 0.11600 0.12400
H 	H 	0.45010 0.20210 0.14880 -0.05600
C 	C 	0.39998 0.38600 0.07200 0.13100
H 	H 	0.37590 0.41100 0.07450 -0.01600
C 	C 	0.42585 0.44390 0.02280 -0.22800
H 	H 	0.41930 0.50740 0.99610 0.12200
C 	C 	0.47032 0.31970 0.06980 -0.22800
H 	H 	0.49520 0.29600 0.07760 0.09900
C 	C 	0.46092 0.40860 0.01320 0.16700
C 	C 	0.48980 0.46760 0.94260 -0.17400
H 	H 	0.50790 0.42480 0.91140 0.07500
H 	H 	0.47590 0.50440 0.86050 0.08000
Co	Co	0.86450 0.70681 0.17226 1.11500
O 	O 	0.64611 0.05841 0.06670 -0.33200
N 	N 	0.83228 0.71600 0.95510 -0.26000
O 	O 	0.83546 0.82691 0.21920 -0.43200
O 	O 	0.67877 0.12203 0.27400 -0.43600
O 	O 	0.86667 0.86320 0.44240 -0.31400
N 	N 	0.90821 0.79600 0.11580 -0.27400
C 	C 	0.77383 0.75570 0.78800 -0.22100
H 	H 	0.74820 0.77540 0.77230 0.11800
C 	C 	0.77655 0.95230 0.24410 0.02200
H 	H 	0.77550 0.91910 0.15860 0.03800
C 	C 	0.71047 0.01100 0.15450 -0.24100
H 	H 	0.70910 0.97450 0.07170 0.12200
C 	C 	0.74287 0.00910 0.25330 0.03400
H 	H 	0.74440 0.04680 0.33510 0.03000
C 	C 	0.79576 0.74420 0.92550 0.13300
H 	H 	0.78430 0.75690 0.00190 -0.01600
C 	C 	0.79070 0.73730 0.67270 0.16900
C 	C 	0.67605 0.06720 0.16620 0.37900
C 	C 	0.83943 0.87340 0.33480 0.38700
C 	C 	0.82857 0.70770 0.70370 -0.22200
H 	H 	0.84080 0.69390 0.62960 0.11800
C 	C 	0.84834 0.69860 0.84400 0.13200
H 	H 	0.87410 0.67940 0.86290 -0.03900
C 	C 	0.80841 0.94340 0.34530 -0.23100
H 	H 	0.81170 0.98240 0.42660 0.12200
C 	C 	0.76873 0.74580 0.51960 -0.17000
H 	H 	0.77940 0.80130 0.47990 0.08600
H 	H 	0.77550 0.68960 0.47000 0.08400
C 	C 	0.94330 0.76440 0.11600 0.12300
H 	H 	0.95010 0.70210 0.14880 -0.05600
C 	C 	0.89998 0.88600 0.07200 0.13100
H 	H 	0.87590 0.91100 0.07450 -0.01600
C 	C 	0.92585 0.94390 0.02280 -0.22700
H 	H 	0.91930 0.00740 0.99610 0.12200
C 	C 	0.97032 0.81970 0.06980 -0.22700
H 	H 	0.99520 0.79600 0.07760 0.09800
C 	C 	0.96092 0.90860 0.01320 0.16600
C 	C 	0.98980 0.96760 0.94260 -0.17200
H 	H 	0.00790 0.92480 0.91140 0.07500
H 	H 	0.97590 0.00440 0.86050 0.07900
Co	Co	0.63550 0.20681 0.32774 1.11500
O 	O 	0.85389 0.55841 0.43330 -0.33300
N 	N 	0.66772 0.21600 0.54490 -0.26000
O 	O 	0.66454 0.32691 0.28080 -0.43200
O 	O 	0.82123 0.62203 0.22600 -0.43600
O 	O 	0.63333 0.36320 0.05760 -0.31400
N 	N 	0.59179 0.29600 0.38420 -0.27400
C 	C 	0.72617 0.25570 0.71200 -0.22300
H 	H 	0.75180 0.27540 0.72770 0.11900
C 	C 	0.72345 0.45230 0.25590 0.02200
H 	H 	0.72450 0.41910 0.34140 0.03800
C 	C 	0.78953 0.51100 0.34550 -0.24200
H 	H 	0.79090 0.47450 0.42830 0.12300
C 	C 	0.75713 0.50910 0.24670 0.03500
H 	H 	0.75560 0.54680 0.16490 0.03000
C 	C 	0.70424 0.24420 0.57450 0.13400
H 	H 	0.71570 0.25690 0.49810 -0.01600
C 	C 	0.70930 0.23730 0.82730 0.17400
C 	C 	0.82395 0.56720 0.33380 0.38000
C 	C 	0.66057 0.37340 0.16520 0.38700
C 	C 	0.67143 0.20770 0.79630 -0.22500
H 	H 	0.65920 0.19390 0.87040 0.11800
C 	C 	0.65166 0.19860 0.65600 0.13400
H 	H 	0.62590 0.17940 0.63710 -0.04000
C 	C 	0.69159 0.44340 0.15470 -0.23100
H 	H 	0.68830 0.48240 0.07340 0.12200
C 	C 	0.73127 0.24580 0.98040 -0.18100
H 	H 	0.72060 0.30130 0.02010 0.09000
H 	H 	0.72450 0.18960 0.03000 0.08800
C 	C 	0.55670 0.26440 0.38400 0.12400
H 	H 	0.54990 0.20210 0.35120 -0.05600
C 	C 	0.60002 0.38600 0.42800 0.13100
H 	H 	0.62410 0.41100 0.42550 -0.01600
C 	C 	0.57415 0.44390 0.47720 -0.22800
H 	H 	0.58070 0.50740 0.50390 0.12200
C 	C 	0.52968 0.31970 0.43020 -0.22800
H 	H 	0.50480 0.29600 0.42240 0.09900
C 	C 	0.53908 0.40860 0.48680 0.16700
C 	C 	0.51020 0.46760 0.55740 -0.17400
H 	H 	0.49210 0.42480 0.58860 0.07500
H 	H 	0.52410 0.50440 0.63950 0.08000
Co	Co	0.13550 0.70681 0.32774 1.11500
O 	O 	0.35389 0.05841 0.43330 -0.33300
N 	N 	0.16772 0.71600 0.54490 -0.25900
O 	O 	0.16454 0.82691 0.28080 -0.43200
O 	O 	0.32123 0.12203 0.22600 -0.43500
O 	O 	0.13333 0.86320 0.05760 -0.31400
N 	N 	0.09179 0.79600 0.38420 -0.27400
C 	C 	0.22617 0.75570 0.71200 -0.21500
H 	H 	0.25180 0.77540 0.72770 0.11600
C 	C 	0.22345 0.95230 0.25590 0.02100
H 	H 	0.22450 0.91910 0.34140 0.03800
C 	C 	0.28953 0.01100 0.34550 -0.24200
H 	H 	0.29090 0.97450 0.42830 0.12300
C 	C 	0.25713 0.00910 0.24670 0.03600
H 	H 	0.25560 0.04680 0.16490 0.03000
C 	C 	0.20424 0.74420 0.57450 0.12900
H 	H 	0.21570 0.75690 0.49810 -0.01400
C 	C 	0.20930 0.73730 0.82730 0.16200
C 	C 	0.32395 0.06720 0.33380 0.38000
C 	C 	0.16057 0.87340 0.16520 0.38700
C 	C 	0.17143 0.70770 0.79630 -0.21700
H 	H 	0.15920 0.69390 0.87040 0.11600
C 	C 	0.15166 0.69860 0.65600 0.12900
H 	H 	0.12590 0.67940 0.63710 -0.03800
C 	C 	0.19159 0.94340 0.15470 -0.23000
H 	H 	0.18830 0.98240 0.07340 0.12200
C 	C 	0.23127 0.74580 0.98040 -0.15400
H 	H 	0.22060 0.80130 0.02010 0.08200
H 	H 	0.22450 0.68960 0.03000 0.08000
C 	C 	0.05670 0.76440 0.38400 0.12400
H 	H 	0.04990 0.70210 0.35120 -0.05600
C 	C 	0.10002 0.88600 0.42800 0.13100
H 	H 	0.12410 0.91100 0.42550 -0.01600
C 	C 	0.07415 0.94390 0.47720 -0.22800
H 	H 	0.08070 0.00740 0.50390 0.12200
C 	C 	0.02968 0.81970 0.43020 -0.22800
H 	H 	0.00480 0.79600 0.42240 0.09900
C 	C 	0.03908 0.90860 0.48680 0.16700
C 	C 	0.01020 0.96760 0.55740 -0.17400
H 	H 	0.99210 0.92480 0.58860 0.07600
H 	H 	0.02410 0.00440 0.63950 0.08000
Co	Co	0.63550 0.79319 0.82774 1.11500
O 	O 	0.85389 0.44159 0.93330 -0.33300
N 	N 	0.66772 0.78400 0.04490 -0.25900
O 	O 	0.66454 0.67309 0.78080 -0.43200
O 	O 	0.82123 0.37797 0.72600 -0.43600
O 	O 	0.63333 0.63680 0.55760 -0.31400
N 	N 	0.59179 0.70400 0.88420 -0.27400
C 	C 	0.72617 0.74430 0.21200 -0.21800
H 	H 	0.75180 0.72460 0.22770 0.11700
C 	C 	0.72345 0.54770 0.75590 0.02200
H 	H 	0.72450 0.58090 0.84140 0.03800
C 	C 	0.78953 0.48900 0.84550 -0.24200
H 	H 	0.79090 0.52550 0.92830 0.12300
C 	C 	0.75713 0.49090 0.74670 0.03500
H 	H 	0.75560 0.45320 0.66490 0.03000
C 	C 	0.70424 0.75580 0.07450 0.13000
H 	H 	0.71570 0.74310 0.99810 -0.01400
C 	C 	0.70930 0.76270 0.32730 0.16600
C 	C 	0.82395 0.43280 0.83380 0.38000
C 	C 	0.66057 0.62660 0.66520 0.38700
C 	C 	0.67143 0.79230 0.29630 -0.22000
H 	H 	0.65920 0.80610 0.37040 0.11700
C 	C 	0.65166 0.80140 0.15600 0.13100
H 	H 	0.62590 0.82060 0.13710 -0.03900
C 	C 	0.69159 0.55660 0.65470 -0.23100
H 	H 	0.68830 0.51760 0.57340 0.12200
C 	C 	0.73127 0.75420 0.48040 -0.16500
H 	H 	0.72060 0.69870 0.52010 0.08500
H 	H 	0.72450 0.81040 0.53000 0.08300
C 	C 	0.55670 0.73560 0.88400 0.12400
H 	H 	0.54990 0.79790 0.85120 -0.05600
C 	C 	0.60002 0.61400 0.92800 0.13100
H 	H 	0.62410 0.58900 0.92550 -0.01600
C 	C 	0.57415 0.55610 0.97720 -0.22800
H 	H 	0.58070 0.49260 0.00390 0.12200
C 	C 	0.52968 0.68030 0.93020 -0.22800
H 	H 	0.50480 0.70400 0.92240 0.09900
C 	C 	0.53908 0.59140 0.98680 0.16700
C 	C 	0.51020 0.53240 0.05740 -0.17400
H 	H 	0.49210 0.57520 0.08860 0.07500
H 	H 	0.52410 0.49560 0.13950 0.08000
Co	Co	0.13550 0.29319 0.82774 1.11500
O 	O 	0.35389 0.94159 0.93330 -0.33200
N 	N 	0.16772 0.28400 0.04490 -0.26000
O 	O 	0.16454 0.17309 0.78080 -0.43200
O 	O 	0.32123 0.87797 0.72600 -0.43600
O 	O 	0.13333 0.13680 0.55760 -0.31400
N 	N 	0.09179 0.20400 0.88420 -0.27400
C 	C 	0.22617 0.24430 0.21200 -0.22100
H 	H 	0.25180 0.22460 0.22770 0.11800
C 	C 	0.22345 0.04770 0.75590 0.02200
H 	H 	0.22450 0.08090 0.84140 0.03800
C 	C 	0.28953 0.98900 0.84550 -0.24100
H 	H 	0.29090 0.02550 0.92830 0.12200
C 	C 	0.25713 0.99090 0.74670 0.03400
H 	H 	0.25560 0.95320 0.66490 0.03000
C 	C 	0.20424 0.25580 0.07450 0.13300
H 	H 	0.21570 0.24310 0.99810 -0.01600
C 	C 	0.20930 0.26270 0.32730 0.16900
C 	C 	0.32395 0.93280 0.83380 0.37900
C 	C 	0.16057 0.12660 0.66520 0.38700
C 	C 	0.17143 0.29230 0.29630 -0.22200
H 	H 	0.15920 0.30610 0.37040 0.11800
C 	C 	0.15166 0.30140 0.15600 0.13200
H 	H 	0.12590 0.32060 0.13710 -0.03900
C 	C 	0.19159 0.05660 0.65470 -0.23100
H 	H 	0.18830 0.01760 0.57340 0.12200
C 	C 	0.23127 0.25420 0.48040 -0.17000
H 	H 	0.22060 0.19870 0.52010 0.08600
H 	H 	0.22450 0.31040 0.53000 0.08400
C 	C 	0.05670 0.23560 0.88400 0.12300
H 	H 	0.04990 0.29790 0.85120 -0.05600
C 	C 	0.10002 0.11400 0.92800 0.13100
H 	H 	0.12410 0.08900 0.92550 -0.01600
C 	C 	0.07415 0.05610 0.97720 -0.22700
H 	H 	0.08070 0.99260 0.00390 0.12200
C 	C 	0.02968 0.18030 0.93020 -0.22700
H 	H 	0.00480 0.20400 0.92240 0.09800
C 	C 	0.03908 0.09140 0.98680 0.16600
C 	C 	0.01020 0.03240 0.05740 -0.17200
H 	H 	0.99210 0.07520 0.08860 0.07500
H 	H 	0.02410 0.99560 0.13950 0.07900
Co	Co	0.36450 0.79319 0.67226 1.11500
O 	O 	0.14611 0.44159 0.56670 -0.33300
N 	N 	0.33228 0.78400 0.45510 -0.26000
O 	O 	0.33546 0.67309 0.71920 -0.43200
O 	O 	0.17877 0.37797 0.77400 -0.43600
O 	O 	0.36667 0.63680 0.94240 -0.31400
N 	N 	0.40821 0.70400 0.61580 -0.27400
C 	C 	0.27383 0.74430 0.28800 -0.22300
H 	H 	0.24820 0.72460 0.27230 0.11900
C 	C 	0.27655 0.54770 0.74410 0.02200
H 	H 	0.27550 0.58090 0.65860 0.03800
C 	C 	0.21047 0.48900 0.65450 -0.24200
H 	H 	0.20910 0.52550 0.57170 0.12300
C 	C 	0.24287 0.49090 0.75330 0.03500
H 	H 	0.24440 0.45320 0.83510 0.03000
C 	C 	0.29576 0.75580 0.42550 0.13400
H 	H 	0.28430 0.74310 0.50190 -0.01600
C 	C 	0.29070 0.76270 0.17270 0.17400
C 	C 	0.17605 0.43280 0.66620 0.38000
C 	C 	0.33943 0.62660 0.83480 0.38700
C 	C 	0.32857 0.79230 0.20370 -0.22500
H 	H 	0.34080 0.80610 0.12960 0.11800
C 	C 	0.34834 0.80140 0.34400 0.13400
H 	H 	0.37410 0.82060 0.36290 -0.04000
C 	C 	0.30841 0.55660 0.84530 -0.23100
H 	H 	0.31170 0.51760 0.92660 0.12200
C 	C 	0.26873 0.75420 0.01960 -0.18100
H 	H 	0.27940 0.69870 0.97990 0.09000
H 	H 	0.27550 0.81040 0.97000 0.08800
C 	C 	0.44330 0.73560 0.61600 0.12400
H 	H 	0.45010 0.79790 0.64880 -0.05600
C 	C 	0.39998 0.61400 0.57200 0.13100
H 	H 	0.37590 0.58900 0.57450 -0.01600
C 	C 	0.42585 0.55610 0.52280 -0.22800
H 	H 	0.41930 0.49260 0.49610 0.12200
C 	C 	0.47032 0.68030 0.56980 -0.22800
H 	H 	0.49520 0.70400 0.57760 0.09900
C 	C 	0.46092 0.59140 0.51320 0.16700
C 	C 	0.48980 0.53240 0.44260 -0.17400
H 	H 	0.50790 0.57520 0.41140 0.07500
H 	H 	0.47590 0.49560 0.36050 0.08000
Co	Co	0.86450 0.29319 0.67226 1.11500
O 	O 	0.64611 0.94159 0.56670 -0.33300
N 	N 	0.83228 0.28400 0.45510 -0.25900
O 	O 	0.83546 0.17309 0.71920 -0.43200
O 	O 	0.67877 0.87797 0.77400 -0.43500
O 	O 	0.86667 0.13680 0.94240 -0.31400
N 	N 	0.90821 0.20400 0.61580 -0.27400
C 	C 	0.77383 0.24430 0.28800 -0.21500
H 	H 	0.74820 0.22460 0.27230 0.11600
C 	C 	0.77655 0.04770 0.74410 0.02100
H 	H 	0.77550 0.08090 0.65860 0.03800
C 	C 	0.71047 0.98900 0.65450 -0.24200
H 	H 	0.70910 0.02550 0.57170 0.12300
C 	C 	0.74287 0.99090 0.75330 0.03600
H 	H 	0.74440 0.95320 0.83510 0.03000
C 	C 	0.79576 0.25580 0.42550 0.12900
H 	H 	0.78430 0.24310 0.50190 -0.01400
C 	C 	0.79070 0.26270 0.17270 0.16200
C 	C 	0.67605 0.93280 0.66620 0.38000
C 	C 	0.83943 0.12660 0.83480 0.38700
C 	C 	0.82857 0.29230 0.20370 -0.21700
H 	H 	0.84080 0.30610 0.12960 0.11600
C 	C 	0.84834 0.30140 0.34400 0.12900
H 	H 	0.87410 0.32060 0.36290 -0.03800
C 	C 	0.80841 0.05660 0.84530 -0.23000
H 	H 	0.81170 0.01760 0.92660 0.12200
C 	C 	0.76873 0.25420 0.01960 -0.15400
H 	H 	0.77940 0.19870 0.97990 0.08200
H 	H 	0.77550 0.31040 0.97000 0.08000
C 	C 	0.94330 0.23560 0.61600 0.12400
H 	H 	0.95010 0.29790 0.64880 -0.05600
C 	C 	0.89998 0.11400 0.57200 0.13100
H 	H 	0.87590 0.08900 0.57450 -0.01600
C 	C 	0.92585 0.05610 0.52280 -0.22800
H 	H 	0.91930 0.99260 0.49610 0.12200
C 	C 	0.97032 0.18030 0.56980 -0.22800
H 	H 	0.99520 0.20400 0.57760 0.09900
C 	C 	0.96092 0.09140 0.51320 0.16700
C 	C 	0.98980 0.03240 0.44260 -0.17400
H 	H 	0.00790 0.07520 0.41140 0.07600
H 	H 	0.97590 0.99560 0.36050 0.08000
