data_crystal

_cell_length_a 10.05240
_cell_length_b 12.50760
_cell_length_c 19.20830
_cell_angle_alpha 90.33700
_cell_angle_beta  103.34300
_cell_angle_gamma 99.92600

_symmetry_space_group_name_	'P 1'
_symmetry_space_group_name_H-M	'P 1'

loop_
_symmetry_equiv_pos_as_xyz
  x,y,z

loop_
_atom_site_label
_atom_site_type_symbol
_atom_site_fract_x
_atom_site_fract_y
_atom_site_fract_z
_atom_site_charge
Ni	Ni	0.26404 0.22151 0.32137 1.10800
Ni	Ni	0.34251 0.30888 0.14792 1.09100
N 	N 	0.26700 0.77550 0.31410 -0.07900
O 	O 	0.10220 0.10079 0.26317 -0.42100
O 	O 	0.22780 0.21211 0.20715 -0.53600
O 	O 	0.76420 0.76929 0.94883 -0.42600
O 	O 	0.46030 0.39004 0.24404 -0.46200
O 	O 	0.42200 0.34922 0.35214 -0.44900
O 	O 	0.78310 0.84070 0.58724 -0.43900
O 	O 	0.83580 0.86597 0.48204 -0.43100
N 	N 	0.11960 0.32790 0.31703 -0.22200
N 	N 	0.23910 0.66110 0.31230 -0.08800
C 	C 	0.13110 0.12940 0.20564 0.43100
N 	N 	0.48030 0.19890 0.15378 -0.21900
N 	N 	0.19640 0.41380 0.13514 -0.20000
C 	C 	0.67310 0.65940 0.43147 0.04200
H 	H 	0.72190 0.69800 0.40120 0.02900
C 	C 	0.58640 0.55530 0.40465 0.03500
H 	H 	0.54000 0.51570 0.43550 0.02900
C 	C 	0.98840 0.28910 0.31790 0.08800
H 	H 	0.96100 0.21450 0.31990 -0.00200
C 	C 	0.89190 0.35510 0.31590 -0.12000
H 	H 	0.80090 0.32520 0.31650 0.07400
C 	C 	0.93010 0.46560 0.31300 0.02600
H 	H 	0.86570 0.51120 0.31170 0.02700
C 	C 	0.06490 0.50730 0.31210 -0.04000
C 	C 	0.15570 0.43520 0.31400 0.03400
H 	H 	0.24710 0.46320 0.31310 0.02400
C 	C 	0.11570 0.62510 0.31230 0.03200
H 	H 	0.05470 0.67310 0.31240 0.03200
C 	C 	0.75380 0.74120 0.00865 0.39000
C 	C 	0.47710 0.40900 0.30939 0.43500
C 	C 	0.56940 0.51330 0.33923 -0.25200
H 	H 	0.61910 0.55200 0.30940 0.12700
C 	C 	0.23560 0.52120 0.13940 -0.00300
H 	H 	0.32990 0.55030 0.15280 0.03000
C 	C 	0.14050 0.59180 0.12450 0.03900
C 	C 	0.00200 0.54880 0.10670 -0.11500
H 	H 	0.93630 0.59410 0.09790 0.09000
C 	C 	0.96060 0.43740 0.10180 0.00700
H 	H 	0.86690 0.40630 0.08930 0.03600
C 	C 	0.06110 0.37340 0.11580 0.00200
H 	H 	0.03320 0.29830 0.11150 0.02400
C 	C 	0.18950 0.71080 0.12810 0.00100
H 	H 	0.12750 0.75750 0.12980 0.04800
N 	N 	0.31220 0.74890 0.12880 -0.08000
N 	N 	0.33850 0.86330 0.13250 -0.08600
C 	C 	0.46440 0.89950 0.13530 0.05100
H 	H 	0.52410 0.85110 0.13290 0.03300
C 	C 	0.51940 0.01720 0.14240 -0.04500
C 	C 	0.66000 0.05510 0.15070 0.00000
H 	H 	0.72060 0.00690 0.15000 0.02800
C 	C 	0.70840 0.16420 0.16000 -0.10100
H 	H 	0.80250 0.19120 0.16530 0.07100
C 	C 	0.61720 0.23450 0.16160 0.05500
H 	H 	0.65150 0.30870 0.16820 -0.00200
C 	C 	0.43420 0.09280 0.14370 0.04200
H 	H 	0.33930 0.06780 0.13720 0.02200
C 	C 	0.05940 0.06990 0.13698 -0.36700
H 	H 	0.07070 0.09990 0.09410 0.16800
C 	C 	0.97970 0.97460 0.13617 0.15600
H 	H 	0.96920 0.94770 0.18000 0.00300
C 	C 	0.90610 0.90790 0.07143 -0.03500
H 	H 	0.91370 0.93470 0.02720 0.06300
C 	C 	0.83030 0.81250 0.07287 -0.19400
H 	H 	0.82350 0.78690 0.11750 0.10900
O 	O 	0.68930 0.65160 0.02103 -0.30500
N 	N 	0.40410 0.11220 0.32520 -0.19500
C 	C 	0.53950 0.14690 0.32889 0.05300
H 	H 	0.57220 0.22130 0.33050 0.00900
C 	C 	0.63190 0.07770 0.33040 -0.10200
H 	H 	0.72510 0.10530 0.33320 0.05900
C 	C 	0.58590 0.96760 0.32780 -0.01400
H 	H 	0.64760 0.91960 0.32940 0.04000
C 	C 	0.44680 0.92930 0.32260 0.03800
C 	C 	0.35880 0.00440 0.32235 -0.05800
H 	H 	0.26530 0.97890 0.32010 0.07900
C 	C 	0.39270 0.81210 0.31760 0.00200
H 	H 	0.45320 0.76380 0.31700 0.04700
C 	C 	0.77510 0.80990 0.52317 0.42700
C 	C 	0.68690 0.70270 0.49676 -0.26500
H 	H 	0.63900 0.66400 0.52740 0.12500
N 	N 	0.14040 0.89060 0.49409 -0.21400
C 	C 	0.10090 0.78340 0.49590 0.00800
H 	H 	0.00910 0.75690 0.49700 0.02900
C 	C 	0.18870 0.70940 0.49620 -0.00000
C 	C 	0.32400 0.74780 0.49410 -0.02800
H 	H 	0.38580 0.70030 0.49450 0.04700
C 	C 	0.36650 0.85820 0.49130 -0.07300
H 	H 	0.45740 0.88650 0.48940 0.06400
C 	C 	0.27250 0.92570 0.49120 0.04400
H 	H 	0.30220 0.99990 0.48900 0.02600
C 	C 	0.13760 0.59290 0.49680 0.01100
H 	H 	0.19710 0.54420 0.49490 0.04200
N 	N 	0.01400 0.55750 0.49970 -0.09100
Ni	Ni	0.73596 0.77849 0.67863 1.10900
Ni	Ni	0.65749 0.69112 0.85208 1.09000
N 	N 	0.73300 0.22450 0.68590 -0.08600
O 	O 	0.89780 0.89921 0.73683 -0.38000
O 	O 	0.77220 0.78789 0.79285 -0.51800
O 	O 	0.23580 0.23071 0.05117 -0.43900
O 	O 	0.53970 0.60996 0.75596 -0.46200
O 	O 	0.57800 0.65078 0.64786 -0.44800
O 	O 	0.21690 0.15930 0.41276 -0.45400
O 	O 	0.16420 0.13403 0.51796 -0.45500
N 	N 	0.88040 0.67210 0.68297 -0.19600
N 	N 	0.76090 0.33890 0.68770 -0.08200
C 	C 	0.86890 0.87060 0.79436 0.36500
N 	N 	0.51970 0.80110 0.84622 -0.20900
N 	N 	0.80360 0.58620 0.86486 -0.23000
C 	C 	0.32690 0.34060 0.56853 0.04900
H 	H 	0.27810 0.30200 0.59880 0.02200
C 	C 	0.41360 0.44470 0.59535 0.02700
H 	H 	0.46000 0.48430 0.56450 0.03200
C 	C 	0.01160 0.71090 0.68210 0.02400
H 	H 	0.03900 0.78550 0.68010 0.01500
C 	C 	0.10810 0.64490 0.68410 -0.05800
H 	H 	0.19910 0.67480 0.68350 0.05200
C 	C 	0.06990 0.53440 0.68700 -0.05900
H 	H 	0.13430 0.48880 0.68830 0.05000
C 	C 	0.93510 0.49270 0.68790 0.02400
C 	C 	0.84430 0.56480 0.68600 0.00700
H 	H 	0.75290 0.53680 0.68690 0.03400
C 	C 	0.88430 0.37490 0.68770 0.00600
H 	H 	0.94530 0.32690 0.68760 0.04600
C 	C 	0.24620 0.25880 0.99135 0.42000
C 	C 	0.52290 0.59100 0.69061 0.43200
C 	C 	0.43060 0.48670 0.66077 -0.24700
H 	H 	0.38090 0.44800 0.69060 0.12300
C 	C 	0.76440 0.47880 0.86060 0.04800
H 	H 	0.67010 0.44970 0.84720 0.01300
C 	C 	0.85950 0.40820 0.87550 -0.04800
C 	C 	0.99800 0.45120 0.89330 0.07500
H 	H 	0.06370 0.40590 0.90210 0.00800
C 	C 	0.03940 0.56260 0.89820 -0.18200
H 	H 	0.13310 0.59370 0.91070 0.09800
C 	C 	0.93890 0.62660 0.88420 0.11900
H 	H 	0.96680 0.70170 0.88850 -0.00900
C 	C 	0.81050 0.28920 0.87190 0.04300
H 	H 	0.87250 0.24250 0.87020 0.03800
N 	N 	0.68780 0.25110 0.87120 -0.08900
N 	N 	0.66150 0.13670 0.86750 -0.07800
C 	C 	0.53560 0.10050 0.86470 -0.02200
H 	H 	0.47590 0.14890 0.86710 0.05000
C 	C 	0.48060 0.98280 0.85760 0.03600
C 	C 	0.34000 0.94490 0.84930 -0.05100
H 	H 	0.27940 0.99310 0.85000 0.06000
C 	C 	0.29160 0.83580 0.84000 -0.06100
H 	H 	0.19750 0.80880 0.83470 0.05400
C 	C 	0.38280 0.76550 0.83840 0.03400
H 	H 	0.34850 0.69130 0.83180 0.00300
C 	C 	0.56580 0.90720 0.85630 0.00800
H 	H 	0.66070 0.93220 0.86280 0.04300
C 	C 	0.94060 0.93010 0.86302 -0.16100
H 	H 	0.92930 0.90010 0.90590 0.10900
C 	C 	0.02030 0.02540 0.86383 -0.07100
H 	H 	0.03080 0.05230 0.82000 0.05600
C 	C 	0.09390 0.09210 0.92857 0.08900
H 	H 	0.08630 0.06530 0.97280 0.00100
C 	C 	0.16970 0.18750 0.92713 -0.28100
H 	H 	0.17650 0.21310 0.88250 0.13300
O 	O 	0.31070 0.34840 0.97897 -0.31300
N 	N 	0.59590 0.88780 0.67480 -0.21100
C 	C 	0.46050 0.85310 0.67111 0.03400
H 	H 	0.42780 0.77870 0.66950 0.01700
C 	C 	0.36810 0.92230 0.66960 -0.04100
H 	H 	0.27490 0.89470 0.66680 0.04200
C 	C 	0.41410 0.03240 0.67220 -0.05900
H 	H 	0.35240 0.08040 0.67060 0.04400
C 	C 	0.55320 0.07070 0.67740 -0.03200
C 	C 	0.64120 0.99560 0.67765 0.08300
H 	H 	0.73470 0.02110 0.67990 0.00200
C 	C 	0.60730 0.18790 0.68240 0.02900
H 	H 	0.54680 0.23620 0.68300 0.03700
C 	C 	0.22490 0.19010 0.47683 0.42900
C 	C 	0.31310 0.29730 0.50324 -0.27600
H 	H 	0.36100 0.33600 0.47260 0.12800
N 	N 	0.85960 0.10940 0.50591 -0.21700
C 	C 	0.89910 0.21660 0.50410 0.00600
H 	H 	0.99090 0.24310 0.50300 0.03700
C 	C 	0.81130 0.29060 0.50380 0.00300
C 	C 	0.67600 0.25220 0.50590 -0.03000
H 	H 	0.61420 0.29970 0.50550 0.04700
C 	C 	0.63350 0.14180 0.50870 -0.07400
H 	H 	0.54260 0.11350 0.51060 0.05600
C 	C 	0.72750 0.07430 0.50880 0.04300
H 	H 	0.69780 0.00010 0.51100 0.00700
C 	C 	0.86240 0.40710 0.50320 0.01000
H 	H 	0.80290 0.45580 0.50510 0.04600
N 	N 	0.98600 0.44250 0.50030 -0.07700
Ni	Ni	0.00000 0.00000 0.50000 1.03800
