data_crystal

_cell_length_a 12.49700
_cell_length_b 12.56460
_cell_length_c 15.16970
_cell_angle_alpha 75.52300
_cell_angle_beta  77.74800
_cell_angle_gamma 85.43900

_symmetry_space_group_name_	'P 1'
_symmetry_space_group_name_H-M	'P 1'

loop_
_symmetry_equiv_pos_as_xyz
  x,y,z

loop_
_atom_site_label
_atom_site_type_symbol
_atom_site_fract_x
_atom_site_fract_y
_atom_site_fract_z
_atom_site_charge
C 	C 	0.54600 0.52720 0.78430 0.33100
C 	C 	0.56600 0.53030 0.87690 -0.22500
H 	H 	0.63150 0.55770 0.88050 0.10700
C 	C 	0.49260 0.49490 0.95490 0.00800
H 	H 	0.42970 0.46260 0.95160 0.02800
C 	C 	0.44240 0.77280 0.61580 0.09000
H 	H 	0.51670 0.78350 0.60950 -0.00900
C 	C 	0.37030 0.86340 0.61630 -0.14800
C 	C 	0.25970 0.84660 0.62420 0.07300
H 	H 	0.20930 0.90530 0.62320 -0.00300
C 	C 	0.22570 0.74220 0.63340 -0.14200
H 	H 	0.15200 0.72940 0.63920 0.08300
C 	C 	0.30230 0.65650 0.63390 0.08000
H 	H 	0.27850 0.58600 0.64140 0.00500
C 	C 	0.40900 0.97400 0.61080 0.29600
C 	C 	0.63490 0.08620 0.63710 0.28400
C 	C 	0.71430 0.99030 0.65020 -0.78800
H 	H 	0.78240 0.01460 0.65690 0.27500
H 	H 	0.68470 0.93580 0.70490 0.26000
H 	H 	0.72660 0.95910 0.59710 0.26100
C 	C 	0.73990 0.40320 0.62160 0.07600
H 	H 	0.76330 0.47330 0.61640 0.00600
C 	C 	0.78260 0.21280 0.63170 0.06700
H 	H 	0.83290 0.15400 0.63460 -0.00100
C 	C 	0.67320 0.19610 0.63380 -0.13900
C 	C 	0.60190 0.28760 0.63130 0.08500
H 	H 	0.52830 0.27750 0.63400 -0.00200
C 	C 	0.88340 0.22610 0.12550 0.07700
H 	H 	0.95330 0.24930 0.12200 0.00600
C 	C 	0.79730 0.30240 0.12810 -0.13500
H 	H 	0.80910 0.37520 0.12610 0.07900
C 	C 	0.69320 0.26750 0.13380 0.06100
H 	H 	0.63380 0.31700 0.13650 0.00100
C 	C 	0.67710 0.15840 0.13540 -0.13200
C 	C 	0.76970 0.08790 0.13260 0.08000
H 	H 	0.76050 0.01470 0.13430 0.00200
C 	C 	0.56690 0.11920 0.13890 0.27500
C 	C 	0.46970 0.19400 0.15720 -0.76500
H 	H 	0.49350 0.26090 0.16560 0.26400
H 	H 	0.43340 0.21040 0.10530 0.25200
H 	H 	0.41990 0.15860 0.21230 0.25400
C 	C 	0.45390 0.89480 0.11370 0.30000
C 	C 	0.55100 0.82020 0.09380 -0.82600
H 	H 	0.52690 0.75340 0.08550 0.27800
H 	H 	0.59990 0.85600 0.03830 0.28300
H 	H 	0.58840 0.80350 0.14500 0.28600
C 	C 	0.25260 0.92820 0.11720 0.09400
H 	H 	0.26290 0.00170 0.11400 -0.00800
C 	C 	0.34370 0.85710 0.11690 -0.14800
C 	C 	0.32720 0.74750 0.11930 0.06900
H 	H 	0.38590 0.69710 0.11830 -0.00100
C 	C 	0.22300 0.71480 0.12330 -0.13700
H 	H 	0.21080 0.64230 0.12450 0.07900
C 	C 	0.13660 0.79130 0.12540 0.07700
H 	H 	0.06650 0.76830 0.12930 0.00200
C 	C 	0.18150 0.23590 0.89210 -0.25800
H 	H 	0.21710 0.28400 0.91320 0.12200
C 	C 	0.19140 0.24720 0.80130 0.01200
H 	H 	0.14840 0.20380 0.78210 0.04100
C 	C 	0.26440 0.32240 0.72980 0.04300
H 	H 	0.30580 0.36930 0.74700 0.02100
C 	C 	0.27330 0.32550 0.64050 -0.28100
H 	H 	0.22550 0.28480 0.62370 0.13300
C 	C 	0.35700 0.39180 0.56580 0.45300
C 	C 	0.33560 0.07170 0.58580 -0.81900
H 	H 	0.26910 0.04820 0.57520 0.27000
H 	H 	0.31870 0.10850 0.63560 0.28600
H 	H 	0.37180 0.12130 0.53030 0.28200
C 	C 	0.98660 0.97710 0.30130 0.33500
C 	C 	0.97050 0.94990 0.40440 -0.22100
H 	H 	0.93440 0.88600 0.43830 0.10400
C 	C 	0.00550 0.01290 0.45010 0.00500
H 	H 	0.03920 0.07790 0.41580 0.03100
C 	C 	0.11420 0.14730 0.96080 0.43200
N 	N 	0.40960 0.67120 0.62410 -0.22500
N 	N 	0.63340 0.38950 0.62500 -0.22500
N 	N 	0.15050 0.89740 0.12190 -0.22800
N 	N 	0.87120 0.12050 0.12780 -0.22600
N 	N 	0.53610 0.08220 0.62610 -0.14000
N 	N 	0.50470 0.97610 0.62940 -0.14800
N 	N 	0.45770 0.99050 0.12820 -0.14800
N 	N 	0.56380 0.02240 0.12460 -0.13800
O 	O 	0.60900 0.58320 0.71350 -0.38800
O 	O 	0.47010 0.47360 0.77640 -0.38700
O 	O 	0.41160 0.45780 0.58610 -0.49700
O 	O 	0.36720 0.37740 0.48530 -0.45100
O 	O 	0.04230 0.05780 0.25130 -0.37800
O 	O 	0.94500 0.91500 0.26460 -0.39400
O 	O 	0.11240 0.13770 0.04610 -0.43900
O 	O 	0.06240 0.08530 0.93360 -0.49300
Co	Co	0.52394 0.53148 0.62335 1.17500
Co	Co	0.01125 0.00965 0.12617 1.16900
C 	C 	0.81630 0.31690 0.62540 -0.13800
H 	H 	0.88920 0.32890 0.62370 0.08100
C 	C 	0.45400 0.47280 0.21570 0.33200
C 	C 	0.43400 0.46970 0.12310 -0.22400
H 	H 	0.36850 0.44230 0.11950 0.10800
C 	C 	0.50740 0.50510 0.04510 0.00900
H 	H 	0.57030 0.53740 0.04840 0.02800
C 	C 	0.55760 0.22720 0.38420 0.09000
H 	H 	0.48330 0.21650 0.39050 -0.00900
C 	C 	0.62970 0.13660 0.38370 -0.14800
C 	C 	0.74030 0.15340 0.37580 0.07300
H 	H 	0.79070 0.09470 0.37680 -0.00300
C 	C 	0.77430 0.25780 0.36660 -0.14200
H 	H 	0.84800 0.27060 0.36080 0.08300
C 	C 	0.69770 0.34350 0.36610 0.08000
H 	H 	0.72150 0.41400 0.35860 0.00500
C 	C 	0.59100 0.02600 0.38920 0.29600
C 	C 	0.36510 0.91380 0.36290 0.28400
C 	C 	0.28570 0.00970 0.34980 -0.78800
H 	H 	0.21760 0.98540 0.34310 0.27500
H 	H 	0.31530 0.06420 0.29510 0.26000
H 	H 	0.27340 0.04090 0.40290 0.26100
C 	C 	0.26010 0.59680 0.37840 0.07600
H 	H 	0.23670 0.52670 0.38360 0.00600
C 	C 	0.21740 0.78720 0.36830 0.06700
H 	H 	0.16710 0.84600 0.36540 -0.00100
C 	C 	0.32680 0.80390 0.36620 -0.13900
C 	C 	0.39810 0.71240 0.36870 0.08500
H 	H 	0.47170 0.72250 0.36600 -0.00200
C 	C 	0.11660 0.77390 0.87450 0.07700
H 	H 	0.04670 0.75070 0.87800 0.00600
C 	C 	0.20270 0.69760 0.87190 -0.13500
H 	H 	0.19090 0.62480 0.87390 0.07900
C 	C 	0.30680 0.73250 0.86620 0.06100
H 	H 	0.36620 0.68300 0.86350 0.00100
C 	C 	0.32290 0.84160 0.86460 -0.13200
C 	C 	0.23030 0.91210 0.86740 0.08000
H 	H 	0.23950 0.98530 0.86570 0.00200
C 	C 	0.43310 0.88080 0.86110 0.27500
C 	C 	0.53030 0.80600 0.84280 -0.76500
H 	H 	0.50650 0.73910 0.83440 0.26400
H 	H 	0.56660 0.78960 0.89470 0.25200
H 	H 	0.58010 0.84140 0.78770 0.25400
C 	C 	0.54610 0.10520 0.88630 0.30000
C 	C 	0.44900 0.17980 0.90620 -0.82600
H 	H 	0.47310 0.24660 0.91450 0.27800
H 	H 	0.40010 0.14400 0.96170 0.28300
H 	H 	0.41160 0.19650 0.85500 0.28600
C 	C 	0.74740 0.07180 0.88280 0.09400
H 	H 	0.73710 0.99830 0.88600 -0.00800
C 	C 	0.65630 0.14290 0.88310 -0.14800
C 	C 	0.67280 0.25250 0.88070 0.06900
H 	H 	0.61410 0.30290 0.88170 -0.00100
C 	C 	0.77700 0.28520 0.87670 -0.13700
H 	H 	0.78920 0.35770 0.87550 0.07900
C 	C 	0.86340 0.20870 0.87460 0.07700
H 	H 	0.93350 0.23170 0.87070 0.00200
C 	C 	0.81850 0.76410 0.10790 -0.25800
H 	H 	0.78290 0.71600 0.08680 0.12200
C 	C 	0.80860 0.75280 0.19870 0.01200
H 	H 	0.85160 0.79620 0.21790 0.04100
C 	C 	0.73560 0.67760 0.27020 0.04300
H 	H 	0.69420 0.63070 0.25300 0.02100
C 	C 	0.72670 0.67450 0.35950 -0.28100
H 	H 	0.77450 0.71520 0.37630 0.13300
C 	C 	0.64300 0.60820 0.43420 0.45300
C 	C 	0.66440 0.92830 0.41420 -0.81900
H 	H 	0.73090 0.95180 0.42480 0.27000
H 	H 	0.68130 0.89150 0.36440 0.28600
H 	H 	0.62820 0.87870 0.46970 0.28200
C 	C 	0.01340 0.02290 0.69870 0.33500
C 	C 	0.02950 0.05010 0.59560 -0.22100
H 	H 	0.06560 0.11400 0.56170 0.10400
C 	C 	0.99450 0.98710 0.54990 0.00500
H 	H 	0.96080 0.92210 0.58420 0.03100
C 	C 	0.88580 0.85270 0.03920 0.43200
N 	N 	0.59040 0.32880 0.37590 -0.22500
N 	N 	0.36660 0.61050 0.37500 -0.22500
N 	N 	0.84950 0.10260 0.87810 -0.22800
N 	N 	0.12880 0.87950 0.87220 -0.22600
N 	N 	0.46390 0.91780 0.37390 -0.14000
N 	N 	0.49530 0.02390 0.37060 -0.14800
N 	N 	0.54230 0.00950 0.87180 -0.14800
N 	N 	0.43620 0.97760 0.87540 -0.13800
O 	O 	0.39100 0.41680 0.28650 -0.38800
O 	O 	0.52990 0.52640 0.22360 -0.38700
O 	O 	0.58840 0.54220 0.41390 -0.49700
O 	O 	0.63280 0.62260 0.51470 -0.45100
O 	O 	0.95770 0.94220 0.74870 -0.37800
O 	O 	0.05500 0.08500 0.73540 -0.39400
O 	O 	0.88760 0.86230 0.95390 -0.43900
O 	O 	0.93760 0.91470 0.06640 -0.49300
Co	Co	0.47606 0.46852 0.37665 1.17500
Co	Co	0.98875 0.99035 0.87383 1.16900
C 	C 	0.18370 0.68310 0.37460 -0.13800
H 	H 	0.11080 0.67110 0.37630 0.08100
