data_crystal

_cell_length_a 10.87220
_cell_length_b 10.87220
_cell_length_c 8.90980
_cell_angle_alpha 90.00000
_cell_angle_beta  90.00000
_cell_angle_gamma 90.00000

_symmetry_space_group_name_	'P 1'
_symmetry_space_group_name_H-M	'P 1'

loop_
_symmetry_equiv_pos_as_xyz
  x,y,z

loop_
_atom_site_label
_atom_site_type_symbol
_atom_site_fract_x
_atom_site_fract_y
_atom_site_fract_z
_atom_site_charge
Ni	Ni	0.10031 0.89726 0.09935 1.20000
Ni	Ni	0.44291 0.61527 0.92192 1.23500
F 	F 	0.09810 0.08310 0.12290 -0.52300
F 	F 	0.09510 0.91480 0.32740 -0.49300
F 	F 	0.40510 0.43450 0.95050 -0.47200
F 	F 	0.44050 0.61990 0.14980 -0.51900
S 	S 	0.16034 0.60755 0.03200 0.55400
O 	O 	0.10570 0.70830 0.12120 -0.30900
O 	O 	0.26130 0.65910 0.93850 -0.27400
O 	O 	0.20710 0.51260 0.13630 -0.29700
O 	O 	0.06600 0.55400 0.93530 -0.11300
Ni	Ni	0.89969 0.10274 0.59935 1.21600
Ni	Ni	0.55709 0.38473 0.42192 1.22700
F 	F 	0.90190 0.91690 0.62290 -0.51000
F 	F 	0.90490 0.08520 0.82740 -0.47900
F 	F 	0.59490 0.56550 0.45050 -0.49900
F 	F 	0.55950 0.38010 0.64980 -0.49500
S 	S 	0.83966 0.39245 0.53200 0.69600
O 	O 	0.89430 0.29170 0.62120 -0.31600
O 	O 	0.73870 0.34090 0.43850 -0.33900
O 	O 	0.79290 0.48740 0.63630 -0.30800
O 	O 	0.93400 0.44600 0.43530 -0.18500
Ni	Ni	0.10274 0.10031 0.34935 1.21500
Ni	Ni	0.38473 0.44291 0.17192 1.21800
F 	F 	0.91690 0.09810 0.37290 -0.51000
F 	F 	0.08520 0.09510 0.57740 -0.48500
F 	F 	0.56550 0.40510 0.20050 -0.50800
F 	F 	0.38010 0.44050 0.39980 -0.49900
S 	S 	0.39245 0.16034 0.28200 0.69900
O 	O 	0.29170 0.10570 0.37120 -0.32000
O 	O 	0.34090 0.26130 0.18850 -0.34900
O 	O 	0.48740 0.20710 0.38630 -0.31100
O 	O 	0.44600 0.06600 0.18530 -0.19600
Ni	Ni	0.89726 0.89969 0.84935 1.22200
Ni	Ni	0.61527 0.55709 0.67192 1.22800
F 	F 	0.08310 0.90190 0.87290 -0.48600
F 	F 	0.91480 0.90490 0.07740 -0.50900
F 	F 	0.43450 0.59490 0.70050 -0.49600
F 	F 	0.61990 0.55950 0.89980 -0.48700
S 	S 	0.60755 0.83966 0.78200 0.69300
O 	O 	0.70830 0.89430 0.87120 -0.30600
O 	O 	0.65910 0.73870 0.68850 -0.33600
O 	O 	0.51260 0.79290 0.88630 -0.29600
O 	O 	0.55400 0.93400 0.68530 -0.17800
