data_crystal

_cell_length_a 11.85820
_cell_length_b 28.06400
_cell_length_c 16.73310
_cell_angle_alpha 90.00000
_cell_angle_beta  96.87600
_cell_angle_gamma 90.00000

_symmetry_space_group_name_	'P 1'
_symmetry_space_group_name_H-M	'P 1'

loop_
_symmetry_equiv_pos_as_xyz
  x,y,z

loop_
_atom_site_label
_atom_site_type_symbol
_atom_site_fract_x
_atom_site_fract_y
_atom_site_fract_z
_atom_site_charge
Mg	Mg	0.42380 0.31274 0.01240 1.47100
Mg	Mg	0.37410 0.81689 0.49070 1.45400
O 	O 	0.36260 0.32940 0.90020 -0.54300
O 	O 	0.17640 0.33650 0.90220 -0.57400
O 	O 	0.27960 0.62380 0.88350 -0.46200
H 	H 	0.25700 0.63900 0.92300 0.28000
O 	O 	0.11420 0.58950 0.89440 -0.31800
O 	O 	0.31840 0.74850 0.48700 -0.58100
O 	O 	0.13230 0.74440 0.49280 -0.52500
O 	O 	0.37100 0.58630 0.08540 -0.30300
O 	O 	0.20740 0.62010 0.10050 -0.48600
H 	H 	0.22500 0.63750 0.06200 0.28400
O 	O 	0.44140 0.31790 0.13930 -0.45400
O 	O 	0.27720 0.33930 0.07400 -0.65900
O 	O 	0.26890 0.18730 0.51130 -0.35400
O 	O 	0.08460 0.20110 0.49300 -0.50000
C 	C 	0.24660 0.44420 0.56760 -0.03900
C 	C 	0.24530 0.49420 0.56470 -0.01900
C 	C 	0.25180 0.51860 0.49270 -0.03600
C 	C 	0.26070 0.49330 0.42180 -0.02500
C 	C 	0.26380 0.44300 0.42370 -0.03300
C 	C 	0.25440 0.41970 0.49580 -0.02800
C 	C 	0.24730 0.41850 0.64570 0.11800
C 	C 	0.34390 0.41750 0.69880 -0.18000
H 	H 	0.40730 0.43420 0.68650 0.09500
C 	C 	0.35050 0.39250 0.76970 0.11300
H 	H 	0.41870 0.39170 0.80350 0.01100
C 	C 	0.25700 0.36850 0.79150 -0.19600
C 	C 	0.15760 0.37010 0.73780 0.12000
H 	H 	0.09280 0.35480 0.75100 -0.00200
C 	C 	0.15360 0.39370 0.66640 -0.18300
H 	H 	0.08700 0.39320 0.63090 0.09500
C 	C 	0.23490 0.52070 0.64080 0.08200
C 	C 	0.31840 0.55070 0.67600 -0.14000
H 	H 	0.38320 0.55540 0.65060 0.07900
C 	C 	0.30950 0.57400 0.74730 0.07300
H 	H 	0.36880 0.59300 0.77050 0.03000
C 	C 	0.21230 0.56910 0.78400 -0.14000
C 	C 	0.12600 0.53990 0.75030 0.06600
H 	H 	0.06070 0.53600 0.77530 0.01600
C 	C 	0.13720 0.51650 0.67940 -0.13800
H 	H 	0.07800 0.49740 0.65650 0.07700
C 	C 	0.24630 0.57230 0.49090 0.11000
C 	C 	0.34200 0.60000 0.48410 -0.18100
H 	H 	0.41130 0.58530 0.47990 0.09100
C 	C 	0.33540 0.64890 0.48360 0.11800
H 	H 	0.40060 0.66660 0.47910 -0.00800
C 	C 	0.23500 0.67240 0.48970 -0.19800
C 	C 	0.14050 0.64570 0.49560 0.11100
H 	H 	0.07130 0.66090 0.49800 0.00500
C 	C 	0.14530 0.59590 0.49810 -0.17500
H 	H 	0.08030 0.57860 0.50470 0.09000
C 	C 	0.26700 0.51890 0.34480 0.09600
C 	C 	0.36320 0.51510 0.30480 -0.15300
H 	H 	0.42500 0.49720 0.32750 0.08300
C 	C 	0.36760 0.53740 0.23230 0.07900
H 	H 	0.43160 0.53360 0.20580 0.01500
C 	C 	0.27820 0.56580 0.19750 -0.15700
C 	C 	0.18340 0.56950 0.23860 0.09200
H 	H 	0.12220 0.58820 0.21760 0.01500
C 	C 	0.17950 0.54580 0.30950 -0.16100
H 	H 	0.11400 0.54830 0.33490 0.08500
C 	C 	0.28030 0.41510 0.35020 0.10500
C 	C 	0.37820 0.38890 0.34710 -0.16800
H 	H 	0.43280 0.38850 0.39190 0.08700
C 	C 	0.39760 0.36320 0.27970 0.09800
H 	H 	0.46460 0.34600 0.27990 0.01400
C 	C 	0.31930 0.36290 0.21240 -0.18500
C 	C 	0.22050 0.38860 0.21440 0.10500
H 	H 	0.16600 0.38870 0.16950 -0.03200
C 	C 	0.20100 0.41420 0.28230 -0.17200
H 	H 	0.13350 0.43110 0.28220 0.09200
C 	C 	0.24300 0.36580 0.49570 0.11600
C 	C 	0.32530 0.33600 0.53300 -0.19000
H 	H 	0.39270 0.34850 0.55860 0.09600
C 	C 	0.30720 0.28720 0.53240 0.12800
H 	H 	0.36450 0.26720 0.55590 -0.02700
C 	C 	0.20780 0.26760 0.49820 -0.20300
C 	C 	0.12500 0.29760 0.46070 0.11000
H 	H 	0.05600 0.28520 0.43750 0.00300
C 	C 	0.14560 0.34650 0.45790 -0.17900
H 	H 	0.09190 0.36620 0.42960 0.09400
C 	C 	0.26640 0.34270 0.87050 0.48200
C 	C 	0.19710 0.59470 0.85970 0.39400
C 	C 	0.22800 0.72620 0.49010 0.48600
C 	C 	0.28940 0.59030 0.12080 0.41900
C 	C 	0.34650 0.33760 0.13820 0.38700
C 	C 	0.18510 0.21540 0.50160 0.43900
Mg	Mg	0.07620 0.81274 0.48760 1.47100
Mg	Mg	0.12590 0.31689 0.00930 1.45300
O 	O 	0.13740 0.82940 0.59980 -0.54400
O 	O 	0.32360 0.83650 0.59780 -0.57500
O 	O 	0.22040 0.12380 0.61650 -0.46200
H 	H 	0.24300 0.13900 0.57700 0.28000
O 	O 	0.38580 0.08950 0.60560 -0.31900
O 	O 	0.18160 0.24850 0.01300 -0.58200
O 	O 	0.36770 0.24440 0.00720 -0.52500
O 	O 	0.12900 0.08630 0.41460 -0.30300
O 	O 	0.29260 0.12010 0.39950 -0.48600
H 	H 	0.27500 0.13750 0.43800 0.28400
O 	O 	0.05860 0.81790 0.36070 -0.45400
O 	O 	0.22280 0.83930 0.42600 -0.65900
O 	O 	0.23110 0.68730 0.98870 -0.35300
O 	O 	0.41540 0.70110 0.00700 -0.49900
C 	C 	0.25340 0.94420 0.93240 -0.03900
C 	C 	0.25470 0.99420 0.93530 -0.01800
C 	C 	0.24820 0.01860 0.00730 -0.03900
C 	C 	0.23930 0.99330 0.07820 -0.02200
C 	C 	0.23620 0.94300 0.07630 -0.03500
C 	C 	0.24560 0.91970 0.00420 -0.02700
C 	C 	0.25270 0.91850 0.85430 0.11800
C 	C 	0.15610 0.91750 0.80120 -0.18100
H 	H 	0.09270 0.93420 0.81350 0.09600
C 	C 	0.14950 0.89250 0.73030 0.11400
H 	H 	0.08130 0.89170 0.69650 0.01000
C 	C 	0.24300 0.86850 0.70850 -0.19700
C 	C 	0.34240 0.87010 0.76220 0.12100
H 	H 	0.40720 0.85480 0.74900 -0.00200
C 	C 	0.34640 0.89370 0.83360 -0.18400
H 	H 	0.41300 0.89320 0.86910 0.09500
C 	C 	0.26510 0.02070 0.85920 0.08200
C 	C 	0.18160 0.05070 0.82400 -0.13900
H 	H 	0.11680 0.05540 0.84940 0.08000
C 	C 	0.19050 0.07400 0.75270 0.07300
H 	H 	0.13120 0.09300 0.72950 0.03000
C 	C 	0.28770 0.06910 0.71600 -0.14000
C 	C 	0.37400 0.03990 0.74970 0.06500
H 	H 	0.43930 0.03600 0.72470 0.01600
C 	C 	0.36280 0.01650 0.82060 -0.13600
H 	H 	0.42200 0.99740 0.84350 0.07600
C 	C 	0.25370 0.07230 0.00910 0.11300
C 	C 	0.15800 0.10000 0.01590 -0.18400
H 	H 	0.08870 0.08530 0.02010 0.09100
C 	C 	0.16460 0.14890 0.01640 0.12000
H 	H 	0.09940 0.16660 0.02090 -0.01000
C 	C 	0.26500 0.17240 0.01030 -0.20100
C 	C 	0.35950 0.14570 0.00440 0.11500
H 	H 	0.42870 0.16090 0.00200 0.00300
C 	C 	0.35470 0.09590 0.00190 -0.18100
H 	H 	0.41970 0.07860 0.99530 0.09300
C 	C 	0.23300 0.01890 0.15520 0.09400
C 	C 	0.13680 0.01510 0.19520 -0.15200
H 	H 	0.07500 0.99720 0.17250 0.08300
C 	C 	0.13240 0.03740 0.26770 0.07800
H 	H 	0.06840 0.03360 0.29420 0.01500
C 	C 	0.22180 0.06580 0.30250 -0.15700
C 	C 	0.31660 0.06950 0.26140 0.09100
H 	H 	0.37780 0.08820 0.28240 0.01500
C 	C 	0.32050 0.04580 0.19050 -0.15900
H 	H 	0.38600 0.04830 0.16510 0.08400
C 	C 	0.21970 0.91510 0.14980 0.10500
C 	C 	0.12180 0.88890 0.15290 -0.16900
H 	H 	0.06720 0.88850 0.10810 0.08700
C 	C 	0.10240 0.86320 0.22030 0.09900
H 	H 	0.03540 0.84600 0.22010 0.01300
C 	C 	0.18070 0.86290 0.28760 -0.18600
C 	C 	0.27950 0.88860 0.28560 0.10600
H 	H 	0.33400 0.88870 0.33050 -0.03100
C 	C 	0.29900 0.91420 0.21770 -0.17200
H 	H 	0.36650 0.93110 0.21780 0.09300
C 	C 	0.25700 0.86580 0.00430 0.11500
C 	C 	0.17470 0.83600 0.96700 -0.18900
H 	H 	0.10730 0.84850 0.94140 0.09600
C 	C 	0.19280 0.78720 0.96760 0.12800
H 	H 	0.13550 0.76720 0.94410 -0.02600
C 	C 	0.29220 0.76760 0.00180 -0.20300
C 	C 	0.37500 0.79760 0.03930 0.11000
H 	H 	0.44400 0.78520 0.06250 0.00300
C 	C 	0.35440 0.84650 0.04210 -0.17800
H 	H 	0.40810 0.86620 0.07040 0.09400
C 	C 	0.23360 0.84270 0.62950 0.48200
C 	C 	0.30290 0.09470 0.64030 0.39400
C 	C 	0.27200 0.22620 0.00990 0.48700
C 	C 	0.21060 0.09030 0.37920 0.41900
C 	C 	0.15350 0.83760 0.36180 0.38700
C 	C 	0.31490 0.71540 0.99840 0.43900
Mg	Mg	0.57620 0.68726 0.98760 1.47100
Mg	Mg	0.62590 0.18311 0.50930 1.45400
O 	O 	0.63740 0.67060 0.09980 -0.54300
O 	O 	0.82360 0.66350 0.09780 -0.57400
O 	O 	0.72040 0.37620 0.11650 -0.46200
H 	H 	0.74300 0.36100 0.07700 0.28000
O 	O 	0.88580 0.41050 0.10560 -0.31800
O 	O 	0.68160 0.25150 0.51300 -0.58100
O 	O 	0.86770 0.25560 0.50720 -0.52500
O 	O 	0.62900 0.41370 0.91460 -0.30300
O 	O 	0.79260 0.37990 0.89950 -0.48600
H 	H 	0.77500 0.36250 0.93800 0.28400
O 	O 	0.55860 0.68210 0.86070 -0.45400
O 	O 	0.72280 0.66070 0.92600 -0.65900
O 	O 	0.73110 0.81270 0.48870 -0.35400
O 	O 	0.91540 0.79890 0.50700 -0.50000
C 	C 	0.75340 0.55580 0.43240 -0.03900
C 	C 	0.75470 0.50580 0.43530 -0.01900
C 	C 	0.74820 0.48140 0.50730 -0.03600
C 	C 	0.73930 0.50670 0.57820 -0.02500
C 	C 	0.73620 0.55700 0.57630 -0.03300
C 	C 	0.74560 0.58030 0.50420 -0.02800
C 	C 	0.75270 0.58150 0.35430 0.11800
C 	C 	0.65610 0.58250 0.30120 -0.18000
H 	H 	0.59270 0.56580 0.31350 0.09500
C 	C 	0.64950 0.60750 0.23030 0.11300
H 	H 	0.58130 0.60830 0.19650 0.01100
C 	C 	0.74300 0.63150 0.20850 -0.19600
C 	C 	0.84240 0.62990 0.26220 0.12000
H 	H 	0.90720 0.64520 0.24900 -0.00200
C 	C 	0.84640 0.60630 0.33360 -0.18300
H 	H 	0.91300 0.60680 0.36910 0.09500
C 	C 	0.76510 0.47930 0.35920 0.08200
C 	C 	0.68160 0.44930 0.32400 -0.14000
H 	H 	0.61680 0.44460 0.34940 0.07900
C 	C 	0.69050 0.42600 0.25270 0.07300
H 	H 	0.63120 0.40700 0.22950 0.03000
C 	C 	0.78770 0.43090 0.21600 -0.14000
C 	C 	0.87400 0.46010 0.24970 0.06600
H 	H 	0.93930 0.46400 0.22470 0.01600
C 	C 	0.86280 0.48350 0.32060 -0.13800
H 	H 	0.92200 0.50260 0.34350 0.07700
C 	C 	0.75370 0.42770 0.50910 0.11000
C 	C 	0.65800 0.40000 0.51590 -0.18100
H 	H 	0.58870 0.41470 0.52010 0.09100
C 	C 	0.66460 0.35110 0.51640 0.11800
H 	H 	0.59940 0.33340 0.52090 -0.00800
C 	C 	0.76500 0.32760 0.51030 -0.19800
C 	C 	0.85950 0.35430 0.50440 0.11100
H 	H 	0.92870 0.33910 0.50200 0.00500
C 	C 	0.85470 0.40410 0.50190 -0.17500
H 	H 	0.91970 0.42140 0.49530 0.09000
C 	C 	0.73300 0.48110 0.65520 0.09600
C 	C 	0.63680 0.48490 0.69520 -0.15300
H 	H 	0.57500 0.50280 0.67250 0.08300
C 	C 	0.63240 0.46260 0.76770 0.07900
H 	H 	0.56840 0.46640 0.79420 0.01500
C 	C 	0.72180 0.43420 0.80250 -0.15700
C 	C 	0.81660 0.43050 0.76140 0.09200
H 	H 	0.87780 0.41180 0.78240 0.01500
C 	C 	0.82050 0.45420 0.69050 -0.16100
H 	H 	0.88600 0.45170 0.66510 0.08500
C 	C 	0.71970 0.58490 0.64980 0.10500
C 	C 	0.62180 0.61110 0.65290 -0.16800
H 	H 	0.56720 0.61150 0.60810 0.08700
C 	C 	0.60240 0.63680 0.72030 0.09800
H 	H 	0.53540 0.65400 0.72010 0.01400
C 	C 	0.68070 0.63710 0.78760 -0.18500
C 	C 	0.77950 0.61140 0.78560 0.10500
H 	H 	0.83400 0.61130 0.83050 -0.03200
C 	C 	0.79900 0.58580 0.71770 -0.17200
H 	H 	0.86650 0.56890 0.71780 0.09200
C 	C 	0.75700 0.63420 0.50430 0.11600
C 	C 	0.67470 0.66400 0.46700 -0.19000
H 	H 	0.60730 0.65150 0.44140 0.09600
C 	C 	0.69280 0.71280 0.46760 0.12800
H 	H 	0.63550 0.73280 0.44410 -0.02700
C 	C 	0.79220 0.73240 0.50180 -0.20300
C 	C 	0.87500 0.70240 0.53930 0.11000
H 	H 	0.94400 0.71480 0.56250 0.00300
C 	C 	0.85440 0.65350 0.54210 -0.17900
H 	H 	0.90810 0.63380 0.57040 0.09400
C 	C 	0.73360 0.65730 0.12950 0.48200
C 	C 	0.80290 0.40530 0.14030 0.39400
C 	C 	0.77200 0.27380 0.50990 0.48600
C 	C 	0.71060 0.40970 0.87920 0.41900
C 	C 	0.65350 0.66240 0.86180 0.38700
C 	C 	0.81490 0.78460 0.49840 0.43900
Mg	Mg	0.92380 0.18726 0.51240 1.47100
Mg	Mg	0.87410 0.68311 0.99070 1.45300
O 	O 	0.86260 0.17060 0.40020 -0.54400
O 	O 	0.67640 0.16350 0.40220 -0.57500
O 	O 	0.77960 0.87620 0.38350 -0.46200
H 	H 	0.75700 0.86100 0.42300 0.28000
O 	O 	0.61420 0.91050 0.39440 -0.31900
O 	O 	0.81840 0.75150 0.98700 -0.58200
O 	O 	0.63230 0.75560 0.99280 -0.52500
O 	O 	0.87100 0.91370 0.58540 -0.30300
O 	O 	0.70740 0.87990 0.60050 -0.48600
H 	H 	0.72500 0.86250 0.56200 0.28400
O 	O 	0.94140 0.18210 0.63930 -0.45400
O 	O 	0.77720 0.16070 0.57400 -0.65900
O 	O 	0.76890 0.31270 0.01130 -0.35300
O 	O 	0.58460 0.29890 0.99300 -0.49900
C 	C 	0.74660 0.05580 0.06760 -0.03900
C 	C 	0.74530 0.00580 0.06470 -0.01800
C 	C 	0.75180 0.98140 0.99270 -0.03900
C 	C 	0.76070 0.00670 0.92180 -0.02200
C 	C 	0.76380 0.05700 0.92370 -0.03500
C 	C 	0.75440 0.08030 0.99580 -0.02700
C 	C 	0.74730 0.08150 0.14570 0.11800
C 	C 	0.84390 0.08250 0.19880 -0.18100
H 	H 	0.90730 0.06580 0.18650 0.09600
C 	C 	0.85050 0.10750 0.26970 0.11400
H 	H 	0.91870 0.10830 0.30350 0.01000
C 	C 	0.75700 0.13150 0.29150 -0.19700
C 	C 	0.65760 0.12990 0.23780 0.12100
H 	H 	0.59280 0.14520 0.25100 -0.00200
C 	C 	0.65360 0.10630 0.16640 -0.18400
H 	H 	0.58700 0.10680 0.13090 0.09500
C 	C 	0.73490 0.97930 0.14080 0.08200
C 	C 	0.81840 0.94930 0.17600 -0.13900
H 	H 	0.88320 0.94460 0.15060 0.08000
C 	C 	0.80950 0.92600 0.24730 0.07300
H 	H 	0.86880 0.90700 0.27050 0.03000
C 	C 	0.71230 0.93090 0.28400 -0.14000
C 	C 	0.62600 0.96010 0.25030 0.06500
H 	H 	0.56070 0.96400 0.27530 0.01600
C 	C 	0.63720 0.98350 0.17940 -0.13600
H 	H 	0.57800 0.00260 0.15650 0.07600
C 	C 	0.74630 0.92770 0.99090 0.11300
C 	C 	0.84200 0.90000 0.98410 -0.18400
H 	H 	0.91130 0.91470 0.97990 0.09100
C 	C 	0.83540 0.85110 0.98360 0.12000
H 	H 	0.90060 0.83340 0.97910 -0.01000
C 	C 	0.73500 0.82760 0.98970 -0.20100
C 	C 	0.64050 0.85430 0.99560 0.11500
H 	H 	0.57130 0.83910 0.99800 0.00300
C 	C 	0.64530 0.90410 0.99810 -0.18100
H 	H 	0.58030 0.92140 0.00470 0.09300
C 	C 	0.76700 0.98110 0.84480 0.09400
C 	C 	0.86320 0.98490 0.80480 -0.15200
H 	H 	0.92500 0.00280 0.82750 0.08300
C 	C 	0.86760 0.96260 0.73230 0.07800
H 	H 	0.93160 0.96640 0.70580 0.01500
C 	C 	0.77820 0.93420 0.69750 -0.15700
C 	C 	0.68340 0.93050 0.73860 0.09100
H 	H 	0.62220 0.91180 0.71760 0.01500
C 	C 	0.67950 0.95420 0.80950 -0.15900
H 	H 	0.61400 0.95170 0.83490 0.08400
C 	C 	0.78030 0.08490 0.85020 0.10500
C 	C 	0.87820 0.11110 0.84710 -0.16900
H 	H 	0.93280 0.11150 0.89190 0.08700
C 	C 	0.89760 0.13680 0.77970 0.09900
H 	H 	0.96460 0.15400 0.77990 0.01300
C 	C 	0.81930 0.13710 0.71240 -0.18600
C 	C 	0.72050 0.11140 0.71440 0.10600
H 	H 	0.66600 0.11130 0.66950 -0.03100
C 	C 	0.70100 0.08580 0.78230 -0.17200
H 	H 	0.63350 0.06890 0.78220 0.09300
C 	C 	0.74300 0.13420 0.99570 0.11500
C 	C 	0.82530 0.16400 0.03300 -0.18900
H 	H 	0.89270 0.15150 0.05860 0.09600
C 	C 	0.80720 0.21280 0.03240 0.12800
H 	H 	0.86450 0.23280 0.05590 -0.02600
C 	C 	0.70780 0.23240 0.99820 -0.20300
C 	C 	0.62500 0.20240 0.96070 0.11000
H 	H 	0.55600 0.21480 0.93750 0.00300
C 	C 	0.64560 0.15350 0.95790 -0.17800
H 	H 	0.59190 0.13380 0.92960 0.09400
C 	C 	0.76640 0.15730 0.37050 0.48200
C 	C 	0.69710 0.90530 0.35970 0.39400
C 	C 	0.72800 0.77380 0.99010 0.48700
C 	C 	0.78940 0.90970 0.62080 0.41900
C 	C 	0.84650 0.16240 0.63820 0.38700
C 	C 	0.68510 0.28460 0.00160 0.43900
