data_crystal

_cell_length_a 5.58500
_cell_length_b 11.35900
_cell_length_c 14.62400
_cell_angle_alpha 98.03000
_cell_angle_beta  99.00000
_cell_angle_gamma 103.86000

_symmetry_space_group_name_	'P 1'
_symmetry_space_group_name_H-M	'P 1'

loop_
_symmetry_equiv_pos_as_xyz
  x,y,z

loop_
_atom_site_label
_atom_site_type_symbol
_atom_site_fract_x
_atom_site_fract_y
_atom_site_fract_z
_atom_site_charge
U 	U 	0.26100 0.20118 0.42509 0.01200
U 	U 	0.45960 0.24486 0.07682 0.03100
Na	Na	0.88200 0.25220 0.86570 0.58800
O 	O 	0.06700 0.33900 0.34600 -0.14800
O 	O 	0.70900 0.11900 0.15900 -0.14100
O 	O 	0.23300 0.03500 0.09490 -0.16300
O 	O 	0.63600 0.20700 0.99480 -0.11000
O 	O 	0.71300 0.45800 0.08060 -0.16500
O 	O 	0.99000 0.10300 0.28000 -0.14100
O 	O 	0.80000 0.35700 0.22280 -0.15000
O 	O 	0.90700 0.87100 0.04780 -0.20600
O 	O 	0.51100 0.14600 0.55680 -0.15500
O 	O 	0.73700 0.63500 0.02900 -0.22400
O 	O 	0.68900 0.00600 0.60930 -0.15200
C 	C 	0.04600 0.97500 0.04200 0.23800
C 	C 	0.91300 0.29900 0.27100 0.23900
C 	C 	0.86100 0.16200 0.23300 0.22100
C 	C 	0.62300 0.52700 0.03100 0.20700
C 	C 	0.55800 0.04300 0.54600 0.21900
U 	U 	0.73900 0.79882 0.57491 0.01200
U 	U 	0.54040 0.75514 0.92318 0.03100
Na	Na	0.11800 0.74780 0.13430 0.58800
O 	O 	0.93300 0.66100 0.65400 -0.14800
O 	O 	0.29100 0.88100 0.84100 -0.14100
O 	O 	0.76700 0.96500 0.90510 -0.16300
O 	O 	0.36400 0.79300 0.00520 -0.11000
O 	O 	0.28700 0.54200 0.91940 -0.16500
O 	O 	0.01000 0.89700 0.72000 -0.14100
O 	O 	0.20000 0.64300 0.77720 -0.15000
O 	O 	0.09300 0.12900 0.95220 -0.20600
O 	O 	0.48900 0.85400 0.44320 -0.15500
O 	O 	0.26300 0.36500 0.97100 -0.22400
O 	O 	0.31100 0.99400 0.39070 -0.15200
C 	C 	0.95400 0.02500 0.95800 0.23800
C 	C 	0.08700 0.70100 0.72900 0.23900
C 	C 	0.13900 0.83800 0.76700 0.22100
C 	C 	0.37700 0.47300 0.96900 0.20700
C 	C 	0.44200 0.95700 0.45400 0.21900
