data_crystal

_cell_length_a 17.29310
_cell_length_b 10.05210
_cell_length_c 17.65830
_cell_angle_alpha 90.00000
_cell_angle_beta  90.00000
_cell_angle_gamma 90.00000

_symmetry_space_group_name_	'P 1'
_symmetry_space_group_name_H-M	'P 1'

loop_
_symmetry_equiv_pos_as_xyz
  x,y,z

loop_
_atom_site_label
_atom_site_type_symbol
_atom_site_fract_x
_atom_site_fract_y
_atom_site_fract_z
_atom_site_charge
Ho	Ho	0.47915 0.15931 0.88311 1.83200
Ho	Ho	0.67815 0.38708 0.89844 1.88300
S 	S 	0.53870 0.54065 0.13349 0.06600
S 	S 	0.70145 0.09177 0.14625 0.04700
S 	S 	0.61068 0.02148 0.64753 0.07200
C 	C 	0.51270 0.40870 0.99820 0.54000
O 	O 	0.58220 0.43300 0.98650 -0.50900
O 	O 	0.42280 0.60500 0.32010 -0.56100
O 	O 	0.74900 0.96250 0.29370 -0.48600
O 	O 	0.69830 0.23050 0.99540 -0.35900
O 	O 	0.57720 0.11770 0.79690 -0.51200
O 	O 	0.46630 0.34880 0.95380 -0.49000
C 	C 	0.67550 0.09580 0.70790 -0.13000
C 	C 	0.48000 0.45340 0.07220 -0.21800
O 	O 	0.69500 0.19460 0.82720 -0.47100
C 	C 	0.57340 0.99740 0.09550 -0.02800
H 	H 	0.53130 0.97970 0.06430 0.01700
C 	C 	0.68000 0.00730 0.57860 -0.16900
C 	C 	0.40860 0.43170 0.10150 0.04400
H 	H 	0.36970 0.38590 0.07610 0.00800
C 	C 	0.46590 0.54770 0.19910 -0.13500
C 	C 	0.75010 0.05590 0.60210 0.03400
H 	H 	0.79440 0.05520 0.57240 0.00700
O 	O 	0.71490 0.95090 0.45630 -0.55500
O 	O 	0.58430 0.15250 0.95870 -0.46200
C 	C 	0.58410 0.94000 0.16770 0.01000
H 	H 	0.54970 0.87990 0.18950 0.02300
O 	O 	0.53720 0.67940 0.28480 -0.45200
C 	C 	0.65080 0.98270 0.20210 -0.15200
C 	C 	0.63240 0.08240 0.07680 -0.10500
C 	C 	0.63930 0.15980 0.00580 0.27100
C 	C 	0.64680 0.13870 0.78290 0.45600
C 	C 	0.74760 0.10710 0.67650 -0.01800
H 	H 	0.78990 0.14420 0.70120 0.05000
C 	C 	0.39970 0.48610 0.17460 -0.02600
H 	H 	0.35440 0.48080 0.20280 0.04300
C 	C 	0.67950 0.93970 0.27780 0.47400
C 	C 	0.47750 0.61430 0.27300 0.46100
O 	O 	0.59200 0.91820 0.48930 -0.49200
O 	O 	0.63200 0.88230 0.32060 -0.52500
C 	C 	0.66060 0.95200 0.50310 0.50500
Ho	Ho	0.52085 0.84069 0.38311 1.83700
Ho	Ho	0.32185 0.61292 0.39844 1.87900
S 	S 	0.46130 0.45935 0.63349 0.07300
S 	S 	0.29855 0.90823 0.64625 0.08100
S 	S 	0.38932 0.97852 0.14753 0.04700
C 	C 	0.48730 0.59130 0.49820 0.46300
O 	O 	0.41780 0.56700 0.48650 -0.51700
O 	O 	0.57720 0.39500 0.82010 -0.56000
O 	O 	0.25100 0.03750 0.79370 -0.48600
O 	O 	0.30170 0.76950 0.49540 -0.45900
O 	O 	0.42280 0.88230 0.29690 -0.51400
O 	O 	0.53370 0.65120 0.45380 -0.48800
C 	C 	0.32450 0.90420 0.20790 -0.13300
C 	C 	0.52000 0.54660 0.57220 -0.13600
O 	O 	0.30500 0.80540 0.32720 -0.47500
C 	C 	0.42660 0.00260 0.59550 -0.00900
H 	H 	0.46870 0.02030 0.56430 0.02700
C 	C 	0.32000 0.99270 0.07860 -0.11900
C 	C 	0.59140 0.56830 0.60150 0.00200
H 	H 	0.63030 0.61410 0.57610 0.04100
C 	C 	0.53410 0.45230 0.69910 -0.14400
C 	C 	0.24990 0.94410 0.10210 -0.00600
H 	H 	0.20560 0.94480 0.07240 0.00500
O 	O 	0.28510 0.04910 0.95630 -0.46200
O 	O 	0.41570 0.84750 0.45870 -0.54700
C 	C 	0.41590 0.06000 0.66770 0.00900
H 	H 	0.45030 0.12010 0.68950 0.02500
O 	O 	0.46280 0.32060 0.78480 -0.45000
C 	C 	0.34920 0.01730 0.70210 -0.15900
C 	C 	0.36760 0.91760 0.57680 -0.13600
C 	C 	0.36070 0.84020 0.50580 0.44700
C 	C 	0.35320 0.86130 0.28290 0.45600
C 	C 	0.25240 0.89290 0.17650 -0.00500
H 	H 	0.21010 0.85580 0.20120 0.04300
C 	C 	0.60030 0.51390 0.67460 0.00200
H 	H 	0.64560 0.51920 0.70280 0.03500
C 	C 	0.32050 0.06030 0.77780 0.47600
C 	C 	0.52250 0.38570 0.77300 0.46600
O 	O 	0.40800 0.08180 0.98930 -0.38900
O 	O 	0.36800 0.11770 0.82060 -0.52200
C 	C 	0.33940 0.04800 0.00310 0.31400
Ho	Ho	0.97915 0.34069 0.88311 1.83700
Ho	Ho	0.17815 0.11292 0.89844 1.87800
S 	S 	0.03870 0.95935 0.13349 0.06300
S 	S 	0.20145 0.40823 0.14625 0.04700
S 	S 	0.11068 0.47852 0.64753 0.07200
C 	C 	0.01270 0.09130 0.99820 0.53100
O 	O 	0.08220 0.06700 0.98650 -0.50800
O 	O 	0.92280 0.89500 0.32010 -0.56000
O 	O 	0.24900 0.53750 0.29370 -0.48700
O 	O 	0.19830 0.26950 0.99540 -0.35700
O 	O 	0.07720 0.38230 0.79690 -0.51400
O 	O 	0.96630 0.15120 0.95380 -0.48600
C 	C 	0.17550 0.40420 0.70790 -0.13100
C 	C 	0.98000 0.04660 0.07220 -0.21000
O 	O 	0.19500 0.30540 0.82720 -0.47100
C 	C 	0.07340 0.50260 0.09550 -0.03600
H 	H 	0.03130 0.52030 0.06430 0.01800
C 	C 	0.18000 0.49270 0.57860 -0.16700
C 	C 	0.90860 0.06830 0.10150 0.04200
H 	H 	0.86970 0.11410 0.07610 0.00900
C 	C 	0.96590 0.95230 0.19910 -0.13000
C 	C 	0.25010 0.44410 0.60210 0.03200
H 	H 	0.29440 0.44480 0.57240 0.00800
O 	O 	0.21490 0.54910 0.45630 -0.55500
O 	O 	0.08430 0.34750 0.95870 -0.46100
C 	C 	0.08410 0.56000 0.16770 0.01300
H 	H 	0.04970 0.62010 0.18950 0.02100
O 	O 	0.03720 0.82060 0.28480 -0.45400
C 	C 	0.15080 0.51730 0.20210 -0.15600
C 	C 	0.13240 0.41760 0.07680 -0.10000
C 	C 	0.13930 0.34020 0.00580 0.26800
C 	C 	0.14680 0.36130 0.78290 0.45700
C 	C 	0.24760 0.39290 0.67650 -0.01700
H 	H 	0.28990 0.35580 0.70120 0.05000
C 	C 	0.89970 0.01390 0.17460 -0.02800
H 	H 	0.85440 0.01920 0.20280 0.04300
C 	C 	0.17950 0.56030 0.27780 0.47400
C 	C 	0.97750 0.88570 0.27300 0.46400
O 	O 	0.09200 0.58180 0.48930 -0.49300
O 	O 	0.13200 0.61770 0.32060 -0.52500
C 	C 	0.16060 0.54800 0.50310 0.50200
Ho	Ho	0.02085 0.65931 0.38311 1.83200
Ho	Ho	0.82185 0.88708 0.39844 1.88200
S 	S 	0.96130 0.04065 0.63349 0.07800
S 	S 	0.79855 0.59177 0.64625 0.07900
S 	S 	0.88932 0.52148 0.14753 0.04900
C 	C 	0.98730 0.90870 0.49820 0.46700
O 	O 	0.91780 0.93300 0.48650 -0.51700
O 	O 	0.07720 0.10500 0.82010 -0.56000
O 	O 	0.75100 0.46250 0.79370 -0.48500
O 	O 	0.80170 0.73050 0.49540 -0.45900
O 	O 	0.92280 0.61770 0.29690 -0.51200
O 	O 	0.03370 0.84880 0.45380 -0.49000
C 	C 	0.82450 0.59580 0.20790 -0.13300
C 	C 	0.02000 0.95340 0.57220 -0.13800
O 	O 	0.80500 0.69460 0.32720 -0.47500
C 	C 	0.92660 0.49740 0.59550 -0.00200
H 	H 	0.96870 0.47970 0.56430 0.02700
C 	C 	0.82000 0.50730 0.07860 -0.12700
C 	C 	0.09140 0.93170 0.60150 0.00000
H 	H 	0.13030 0.88590 0.57610 0.04200
C 	C 	0.03410 0.04770 0.69910 -0.15200
C 	C 	0.74990 0.55590 0.10210 -0.00200
H 	H 	0.70560 0.55520 0.07240 0.00200
O 	O 	0.78510 0.45090 0.95630 -0.46600
O 	O 	0.91570 0.65250 0.45870 -0.54600
C 	C 	0.91590 0.44000 0.66770 0.00600
H 	H 	0.95030 0.37990 0.68950 0.02700
O 	O 	0.96280 0.17940 0.78480 -0.44800
C 	C 	0.84920 0.48270 0.70210 -0.15500
C 	C 	0.86760 0.58240 0.57680 -0.14000
C 	C 	0.86070 0.65980 0.50580 0.44700
C 	C 	0.85320 0.63870 0.28290 0.45500
C 	C 	0.75240 0.60710 0.17650 -0.00700
H 	H 	0.71010 0.64420 0.20120 0.04400
C 	C 	0.10030 0.98610 0.67460 0.00900
H 	H 	0.14560 0.98080 0.70280 0.03300
C 	C 	0.82050 0.43970 0.77780 0.47600
C 	C 	0.02250 0.11430 0.77300 0.46400
O 	O 	0.90800 0.41820 0.98930 -0.39200
O 	O 	0.86800 0.38230 0.82060 -0.52200
C 	C 	0.83940 0.45200 0.00310 0.32600
