data_crystal

_cell_length_a 6.62100
_cell_length_b 11.79410
_cell_length_c 12.20640
_cell_angle_alpha 90.84600
_cell_angle_beta  100.57700
_cell_angle_gamma 102.44600

_symmetry_space_group_name_	'P 1'
_symmetry_space_group_name_H-M	'P 1'

loop_
_symmetry_equiv_pos_as_xyz
  x,y,z

loop_
_atom_site_label
_atom_site_type_symbol
_atom_site_fract_x
_atom_site_fract_y
_atom_site_fract_z
_atom_site_charge
Nd	Nd	0.34661 0.42056 0.12960 2.31700
Nd	Nd	0.73274 0.86706 0.44785 2.33300
S 	S 	0.15990 0.88028 0.35798 0.86700
S 	S 	0.53310 0.65708 0.27418 0.67500
S 	S 	0.76270 0.35265 0.07308 0.86100
S 	S 	0.26410 0.24731 0.31931 0.68000
O 	O 	0.97630 0.41610 0.12230 -0.56000
O 	O 	0.64430 0.43530 0.01140 -0.70000
O 	O 	0.35250 0.37510 0.32660 -0.44900
O 	O 	0.63940 0.31190 0.15990 -0.49600
O 	O 	0.30910 0.60120 0.23490 -0.42300
O 	O 	0.65140 0.58550 0.22130 -0.44700
O 	O 	0.19730 0.21250 0.19990 -0.42700
O 	O 	0.37380 0.88380 0.41960 -0.60300
O 	O 	0.58620 0.78050 0.24690 -0.44900
O 	O 	0.08410 0.97770 0.41010 -0.71400
O 	O 	0.58960 0.65650 0.39840 -0.43400
O 	O 	0.42350 0.18710 0.38010 -0.44800
O 	O 	0.00990 0.77600 0.38160 -0.47300
O 	O 	0.08760 0.22030 0.38110 -0.44300
O 	O 	0.15530 0.89510 0.24080 -0.33000
O 	O 	0.77000 0.25630 0.99830 -0.33900
Nd	Nd	0.65339 0.57944 0.87040 2.31800
Nd	Nd	0.26726 0.13294 0.55215 2.33400
S 	S 	0.84010 0.11972 0.64202 0.86800
S 	S 	0.46690 0.34292 0.72582 0.67600
S 	S 	0.23730 0.64735 0.92692 0.86100
S 	S 	0.73590 0.75269 0.68069 0.68000
O 	O 	0.02370 0.58390 0.87770 -0.56000
O 	O 	0.35570 0.56470 0.98860 -0.70000
O 	O 	0.64750 0.62490 0.67340 -0.44900
O 	O 	0.36060 0.68810 0.84010 -0.49600
O 	O 	0.69090 0.39880 0.76510 -0.42300
O 	O 	0.34860 0.41450 0.77870 -0.44700
O 	O 	0.80270 0.78750 0.80010 -0.42700
O 	O 	0.62620 0.11620 0.58040 -0.60300
O 	O 	0.41380 0.21950 0.75310 -0.44900
O 	O 	0.91590 0.02230 0.58990 -0.71400
O 	O 	0.41040 0.34350 0.60160 -0.43400
O 	O 	0.57650 0.81290 0.61990 -0.44800
O 	O 	0.99010 0.22400 0.61840 -0.47300
O 	O 	0.91240 0.77970 0.61890 -0.44300
O 	O 	0.84470 0.10490 0.75920 -0.33000
O 	O 	0.23000 0.74370 0.00170 -0.33900
