data_crystal

_cell_length_a 14.59500
_cell_length_b 13.34400
_cell_length_c 21.32400
_cell_angle_alpha 90.00000
_cell_angle_beta  90.00000
_cell_angle_gamma 90.00000

_symmetry_space_group_name_	'P 1'
_symmetry_space_group_name_H-M	'P 1'

loop_
_symmetry_equiv_pos_as_xyz
  x,y,z

loop_
_atom_site_label
_atom_site_type_symbol
_atom_site_fract_x
_atom_site_fract_y
_atom_site_fract_z
_atom_site_charge
Co	Co	0.09905 0.40427 0.90874 1.17500
Co	Co	0.90380 0.34814 0.04035 1.16600
O 	O 	0.13390 0.40420 0.99950 -0.44600
O 	O 	0.87090 0.35010 0.14350 -0.34800
O 	O 	0.25900 0.39210 0.37880 -0.39500
O 	O 	0.03460 0.33800 0.06590 -0.47300
O 	O 	0.36370 0.40580 0.30880 -0.38300
O 	O 	0.63110 0.34010 0.44990 -0.48200
O 	O 	0.53360 0.40710 0.38150 -0.47800
N 	N 	0.09580 0.56320 0.91070 -0.23100
C 	C 	0.67630 0.35570 0.34520 -0.30200
H 	H 	0.73500 0.33630 0.35700 0.15300
C 	C 	0.09170 0.77230 0.91840 0.16300
O 	O 	0.76490 0.35700 0.07060 -0.40300
N 	N 	0.91300 0.51020 0.03730 -0.25900
C 	C 	0.91780 0.71740 0.04150 0.11100
N 	N 	0.09530 0.23900 0.90910 -0.23400
C 	C 	0.73040 0.35670 0.23690 -0.02800
H 	H 	0.78970 0.34050 0.24920 0.06000
C 	C 	0.66100 0.36900 0.28540 0.09600
H 	H 	0.60230 0.38750 0.27310 0.01700
C 	C 	0.78520 0.35530 0.12770 0.32300
N 	N 	0.90360 0.18300 0.03870 -0.28200
C 	C 	0.16220 0.37450 0.16370 0.03500
H 	H 	0.10190 0.36050 0.17460 0.03600
C 	C 	0.13620 0.71930 0.96000 -0.19600
H 	H 	0.16910 0.75190 0.99130 0.12800
C 	C 	0.11060 0.37550 0.05280 0.42100
C 	C 	0.13540 0.61730 0.95850 0.10400
H 	H 	0.16290 0.58260 0.99120 0.02400
C 	C 	0.22840 0.38270 0.21350 0.02600
H 	H 	0.28940 0.38910 0.20160 0.04400
C 	C 	0.95720 0.66140 0.08610 -0.18500
H 	H 	0.98540 0.69260 0.12000 0.10200
C 	C 	0.71330 0.36750 0.17530 -0.18100
H 	H 	0.65420 0.38310 0.16250 0.10500
C 	C 	0.21200 0.38210 0.27200 -0.21500
H 	H 	0.15140 0.37420 0.28440 0.11900
C 	C 	0.28330 0.39330 0.32340 0.37600
C 	C 	0.60760 0.36890 0.39580 0.48400
C 	C 	0.87240 0.66510 0.99300 -0.13500
H 	H 	0.84320 0.70080 0.96130 0.10800
C 	C 	0.87080 0.56430 0.99180 0.12400
H 	H 	0.84050 0.53140 0.95950 0.00400
C 	C 	0.04850 0.61550 0.86770 0.09400
H 	H 	0.01410 0.58120 0.83790 0.00600
C 	C 	0.18140 0.38540 0.10320 -0.24900
H 	H 	0.24140 0.39990 0.09170 0.12900
C 	C 	0.95660 0.55950 0.08250 0.10100
H 	H 	0.98790 0.52300 0.11290 -0.00700
C 	C 	0.04990 0.72110 0.86660 -0.17200
H 	H 	0.02450 0.75650 0.83330 0.10200
C 	C 	0.86830 0.13350 0.99590 0.21200
H 	H 	0.83130 0.16760 0.96750 -0.03200
C 	C 	0.12500 0.07730 0.95400 -0.22000
H 	H 	0.14700 0.04160 0.98820 0.12900
C 	C 	0.93960 0.13300 0.08330 0.13800
H 	H 	0.96250 0.16540 0.11860 -0.01400
C 	C 	0.13390 0.18650 0.95310 0.12100
H 	H 	0.16760 0.21850 0.98420 -0.00100
C 	C 	0.04760 0.19080 0.86370 0.09700
H 	H 	0.01780 0.22800 0.83300 -0.00400
C 	C 	0.04200 0.08500 0.86210 -0.18800
H 	H 	0.01000 0.05220 0.83060 0.10500
C 	C 	0.08760 0.03060 0.90980 0.18700
N 	N 	0.93090 0.84000 0.05990 -0.08800
C 	C 	0.87900 0.03240 0.98720 -0.21500
H 	H 	0.86760 0.00370 0.94830 0.12500
C 	C 	0.94400 0.02620 0.07820 -0.23700
H 	H 	0.97690 0.99170 0.10880 0.11700
C 	C 	0.90710 0.97560 0.03540 0.17900
N 	N 	0.89130 0.86110 0.01760 -0.10500
N 	N 	0.10090 0.89430 0.92920 -0.08600
N 	N 	0.06400 0.91700 0.88730 -0.08800
Co	Co	0.40095 0.40427 0.40874 1.17400
Co	Co	0.59620 0.34814 0.54035 1.17500
O 	O 	0.36610 0.40420 0.49950 -0.48300
O 	O 	0.62910 0.35010 0.64350 -0.34700
O 	O 	0.24100 0.39210 0.87880 -0.39500
O 	O 	0.46540 0.33800 0.56590 -0.47900
O 	O 	0.13630 0.40580 0.80880 -0.38400
O 	O 	0.86890 0.34010 0.94990 -0.46700
O 	O 	0.96640 0.40710 0.88150 -0.47200
N 	N 	0.40420 0.56320 0.41070 -0.23000
C 	C 	0.82370 0.35570 0.84520 -0.29900
H 	H 	0.76500 0.33630 0.85700 0.15200
C 	C 	0.40830 0.77230 0.41840 0.15700
O 	O 	0.73510 0.35700 0.57060 -0.38600
N 	N 	0.58700 0.51020 0.53730 -0.24300
C 	C 	0.58220 0.71740 0.54150 0.16500
N 	N 	0.40470 0.23900 0.40910 -0.23400
C 	C 	0.76960 0.35670 0.73690 -0.02800
H 	H 	0.71030 0.34050 0.74920 0.06000
C 	C 	0.83900 0.36900 0.78540 0.09500
H 	H 	0.89770 0.38750 0.77310 0.01800
C 	C 	0.71480 0.35530 0.62770 0.32000
N 	N 	0.59640 0.18300 0.53870 -0.26600
C 	C 	0.33780 0.37450 0.66370 0.05500
H 	H 	0.39810 0.36050 0.67460 0.03000
C 	C 	0.36380 0.71930 0.46000 -0.19600
H 	H 	0.33090 0.75190 0.49130 0.11800
C 	C 	0.38940 0.37550 0.55280 0.47300
C 	C 	0.36460 0.61730 0.45850 0.10100
H 	H 	0.33710 0.58260 0.49120 0.01500
C 	C 	0.27160 0.38270 0.71350 0.01300
H 	H 	0.21060 0.38910 0.70160 0.04800
C 	C 	0.54280 0.66140 0.58610 -0.20900
H 	H 	0.51460 0.69260 0.62000 0.11300
C 	C 	0.78670 0.36750 0.67530 -0.17800
H 	H 	0.84580 0.38310 0.66250 0.10600
C 	C 	0.28800 0.38210 0.77200 -0.20600
H 	H 	0.34860 0.37420 0.78440 0.11700
C 	C 	0.21670 0.39330 0.82340 0.37300
C 	C 	0.89240 0.36890 0.89580 0.48000
C 	C 	0.62760 0.66510 0.49300 -0.18900
H 	H 	0.65680 0.70080 0.46130 0.12000
C 	C 	0.62920 0.56430 0.49180 0.10700
H 	H 	0.65950 0.53140 0.45950 0.00500
C 	C 	0.45150 0.61550 0.36770 0.09200
H 	H 	0.48590 0.58120 0.33790 0.00700
C 	C 	0.31860 0.38540 0.60320 -0.27300
H 	H 	0.25860 0.39990 0.59170 0.14400
C 	C 	0.54340 0.55950 0.58250 0.12200
H 	H 	0.51210 0.52300 0.61290 -0.01300
C 	C 	0.45010 0.72110 0.36660 -0.17000
H 	H 	0.47550 0.75650 0.33330 0.10100
C 	C 	0.63170 0.13350 0.49590 0.19600
H 	H 	0.66870 0.16760 0.46750 -0.03200
C 	C 	0.37500 0.07730 0.45400 -0.22200
H 	H 	0.35300 0.04160 0.48820 0.12000
C 	C 	0.56040 0.13300 0.58330 0.16600
H 	H 	0.53750 0.16540 0.61860 -0.02200
C 	C 	0.36610 0.18650 0.45310 0.11800
H 	H 	0.33240 0.21850 0.48420 -0.00900
C 	C 	0.45240 0.19080 0.36370 0.09600
H 	H 	0.48220 0.22800 0.33300 -0.00200
C 	C 	0.45800 0.08500 0.36210 -0.18700
H 	H 	0.49000 0.05220 0.33060 0.10500
C 	C 	0.41240 0.03060 0.40980 0.18500
N 	N 	0.56910 0.84000 0.55990 -0.09100
C 	C 	0.62100 0.03240 0.48720 -0.28100
H 	H 	0.63240 0.00370 0.44830 0.14100
C 	C 	0.55600 0.02620 0.57820 -0.27600
H 	H 	0.52310 0.99170 0.60880 0.13400
C 	C 	0.59290 0.97560 0.53540 0.24900
N 	N 	0.60870 0.86110 0.51760 -0.09900
N 	N 	0.39910 0.89430 0.42920 -0.09000
N 	N 	0.43600 0.91700 0.38730 -0.09000
Co	Co	0.90095 0.59573 0.40874 1.17500
Co	Co	0.09620 0.65186 0.54035 1.17400
O 	O 	0.86610 0.59580 0.49950 -0.48300
O 	O 	0.12910 0.64990 0.64350 -0.34700
O 	O 	0.74100 0.60790 0.87880 -0.39400
O 	O 	0.96540 0.66200 0.56590 -0.47800
O 	O 	0.63630 0.59420 0.80880 -0.38300
O 	O 	0.36890 0.65990 0.94990 -0.46900
O 	O 	0.46640 0.59290 0.88150 -0.47500
N 	N 	0.90420 0.43680 0.41070 -0.23000
C 	C 	0.32370 0.64430 0.84520 -0.30000
H 	H 	0.26500 0.66370 0.85700 0.15300
C 	C 	0.90830 0.22770 0.41840 0.15800
O 	O 	0.23510 0.64300 0.57060 -0.38600
N 	N 	0.08700 0.48980 0.53730 -0.24300
C 	C 	0.08220 0.28260 0.54150 0.16400
N 	N 	0.90470 0.76100 0.40910 -0.23400
C 	C 	0.26960 0.64330 0.73690 -0.02900
H 	H 	0.21030 0.65950 0.74920 0.06100
C 	C 	0.33900 0.63100 0.78540 0.09600
H 	H 	0.39770 0.61250 0.77310 0.01700
C 	C 	0.21480 0.64470 0.62770 0.31900
N 	N 	0.09640 0.81700 0.53870 -0.26400
C 	C 	0.83780 0.62550 0.66370 0.05500
H 	H 	0.89810 0.63950 0.67460 0.03100
C 	C 	0.86380 0.28070 0.46000 -0.19700
H 	H 	0.83090 0.24810 0.49130 0.11900
C 	C 	0.88940 0.62450 0.55280 0.47300
C 	C 	0.86460 0.38270 0.45850 0.10200
H 	H 	0.83710 0.41740 0.49120 0.01500
C 	C 	0.77160 0.61730 0.71350 0.01400
H 	H 	0.71060 0.61090 0.70160 0.04800
C 	C 	0.04280 0.33860 0.58610 -0.20900
H 	H 	0.01460 0.30740 0.62000 0.11200
C 	C 	0.28670 0.63250 0.67530 -0.17700
H 	H 	0.34580 0.61690 0.66250 0.10600
C 	C 	0.78800 0.61790 0.77200 -0.20700
H 	H 	0.84860 0.62580 0.78440 0.11800
C 	C 	0.71670 0.60670 0.82340 0.37300
C 	C 	0.39240 0.63110 0.89580 0.48100
C 	C 	0.12760 0.33490 0.49300 -0.18900
H 	H 	0.15680 0.29920 0.46130 0.11900
C 	C 	0.12920 0.43570 0.49180 0.10700
H 	H 	0.15950 0.46860 0.45950 0.00500
C 	C 	0.95150 0.38450 0.36770 0.09200
H 	H 	0.98590 0.41880 0.33790 0.00800
C 	C 	0.81860 0.61460 0.60320 -0.27200
H 	H 	0.75860 0.60010 0.59170 0.14400
C 	C 	0.04340 0.44050 0.58250 0.12100
H 	H 	0.01210 0.47700 0.61290 -0.01400
C 	C 	0.95010 0.27890 0.36660 -0.17000
H 	H 	0.97550 0.24350 0.33330 0.10200
C 	C 	0.13170 0.86650 0.49590 0.19100
H 	H 	0.16870 0.83240 0.46750 -0.03100
C 	C 	0.87500 0.92270 0.45400 -0.22100
H 	H 	0.85300 0.95840 0.48820 0.12000
C 	C 	0.06040 0.86700 0.58330 0.16000
H 	H 	0.03750 0.83460 0.61860 -0.02000
C 	C 	0.86610 0.81350 0.45310 0.11700
H 	H 	0.83240 0.78150 0.48420 -0.00900
C 	C 	0.95240 0.80920 0.36370 0.09500
H 	H 	0.98220 0.77200 0.33300 -0.00200
C 	C 	0.95800 0.91500 0.36210 -0.18600
H 	H 	0.99000 0.94780 0.33060 0.10400
C 	C 	0.91240 0.96940 0.40980 0.18400
N 	N 	0.06910 0.16000 0.55990 -0.09200
C 	C 	0.12100 0.96760 0.48720 -0.27300
H 	H 	0.13240 0.99630 0.44830 0.13800
C 	C 	0.05600 0.97380 0.57820 -0.26400
H 	H 	0.02310 0.00830 0.60880 0.12800
C 	C 	0.09290 0.02440 0.53540 0.23900
N 	N 	0.10870 0.13890 0.51760 -0.09800
N 	N 	0.89910 0.10570 0.42920 -0.08900
N 	N 	0.93600 0.08300 0.38730 -0.08900
Co	Co	0.59905 0.59573 0.90874 1.17500
Co	Co	0.40380 0.65186 0.04035 1.16500
O 	O 	0.63390 0.59580 0.99950 -0.44400
O 	O 	0.37090 0.64990 0.14350 -0.34900
O 	O 	0.75900 0.60790 0.37880 -0.39600
O 	O 	0.53460 0.66200 0.06590 -0.47300
O 	O 	0.86370 0.59420 0.30880 -0.38400
O 	O 	0.13110 0.65990 0.44990 -0.48300
O 	O 	0.03360 0.59290 0.38150 -0.47900
N 	N 	0.59580 0.43680 0.91070 -0.23000
C 	C 	0.17630 0.64430 0.34520 -0.30300
H 	H 	0.23500 0.66370 0.35700 0.15300
C 	C 	0.59170 0.22770 0.91840 0.16300
O 	O 	0.26490 0.64300 0.07060 -0.40200
N 	N 	0.41300 0.48980 0.03730 -0.25800
C 	C 	0.41780 0.28260 0.04150 0.11300
N 	N 	0.59530 0.76100 0.90910 -0.23400
C 	C 	0.23040 0.64330 0.23690 -0.02800
H 	H 	0.28970 0.65950 0.24920 0.06000
C 	C 	0.16100 0.63100 0.28540 0.09700
H 	H 	0.10230 0.61250 0.27310 0.01700
C 	C 	0.28520 0.64470 0.12770 0.32200
N 	N 	0.40360 0.81700 0.03870 -0.28400
C 	C 	0.66220 0.62550 0.16370 0.03400
H 	H 	0.60190 0.63950 0.17460 0.03700
C 	C 	0.63620 0.28070 0.96000 -0.19600
H 	H 	0.66910 0.24810 0.99130 0.12900
C 	C 	0.61060 0.62450 0.05280 0.41800
C 	C 	0.63540 0.38270 0.95850 0.10500
H 	H 	0.66290 0.41740 0.99120 0.02400
C 	C 	0.72840 0.61730 0.21350 0.02700
H 	H 	0.78940 0.61090 0.20160 0.04300
C 	C 	0.45720 0.33860 0.08610 -0.18600
H 	H 	0.48540 0.30740 0.12000 0.10200
C 	C 	0.21330 0.63250 0.17530 -0.18100
H 	H 	0.15420 0.61690 0.16250 0.10500
C 	C 	0.71200 0.61790 0.27200 -0.21600
H 	H 	0.65140 0.62580 0.28440 0.12000
C 	C 	0.78330 0.60670 0.32340 0.37600
C 	C 	0.10760 0.63110 0.39580 0.48400
C 	C 	0.37240 0.33490 0.99300 -0.13700
H 	H 	0.34320 0.29920 0.96130 0.10800
C 	C 	0.37080 0.43570 0.99180 0.12300
H 	H 	0.34050 0.46860 0.95950 0.00400
C 	C 	0.54850 0.38450 0.86770 0.09400
H 	H 	0.51410 0.41880 0.83790 0.00700
C 	C 	0.68140 0.61460 0.10320 -0.24700
H 	H 	0.74140 0.60010 0.09170 0.12700
C 	C 	0.45660 0.44050 0.08250 0.10100
H 	H 	0.48790 0.47700 0.11290 -0.00700
C 	C 	0.54990 0.27890 0.86660 -0.17200
H 	H 	0.52450 0.24350 0.83330 0.10300
C 	C 	0.36830 0.86650 0.99590 0.21500
H 	H 	0.33130 0.83240 0.96750 -0.03400
C 	C 	0.62500 0.92270 0.95400 -0.22100
H 	H 	0.64700 0.95840 0.98820 0.13000
C 	C 	0.43960 0.86700 0.08330 0.14400
H 	H 	0.46250 0.83460 0.11860 -0.01700
C 	C 	0.63390 0.81350 0.95310 0.12200
H 	H 	0.66760 0.78150 0.98420 -0.00000
C 	C 	0.54760 0.80920 0.86370 0.09800
H 	H 	0.51780 0.77200 0.83300 -0.00300
C 	C 	0.54200 0.91500 0.86210 -0.18800
H 	H 	0.51000 0.94780 0.83060 0.10600
C 	C 	0.58760 0.96940 0.90980 0.18900
N 	N 	0.43090 0.16000 0.05990 -0.08800
C 	C 	0.37900 0.96760 0.98720 -0.22500
H 	H 	0.36760 0.99630 0.94830 0.12700
C 	C 	0.44400 0.97380 0.07820 -0.25000
H 	H 	0.47690 0.00830 0.10880 0.12300
C 	C 	0.40710 0.02440 0.03540 0.19000
N 	N 	0.39130 0.13890 0.01760 -0.10600
N 	N 	0.60090 0.10570 0.92920 -0.08600
N 	N 	0.56400 0.08300 0.88730 -0.08900
