data_crystal

_cell_length_a 10.15880
_cell_length_b 12.79190
_cell_length_c 23.00550
_cell_angle_alpha 104.31600
_cell_angle_beta  90.00000
_cell_angle_gamma 113.39600

_symmetry_space_group_name_	'P 1'
_symmetry_space_group_name_H-M	'P 1'

loop_
_symmetry_equiv_pos_as_xyz
  x,y,z

loop_
_atom_site_label
_atom_site_type_symbol
_atom_site_fract_x
_atom_site_fract_y
_atom_site_fract_z
_atom_site_charge
Pr	Pr	0.02275 0.63658 0.72564 2.03400
Pr	Pr	0.14588 0.83450 0.60034 2.04200
Pr	Pr	0.61590 0.60958 0.69696 2.01100
Pr	Pr	0.55884 0.87196 0.64042 2.01000
Pr	Pr	0.61383 0.63658 0.22564 2.05000
Pr	Pr	0.68862 0.83450 0.10034 2.05300
Pr	Pr	0.99368 0.60958 0.19696 2.02200
Pr	Pr	0.31312 0.87196 0.14042 2.00600
P 	P 	0.88240 0.86020 0.71376 0.43400
P 	P 	0.29130 0.61600 0.62056 0.43400
P 	P 	0.81670 0.55520 0.60114 0.36500
P 	P 	0.34060 0.91060 0.72913 0.36800
P 	P 	0.97780 0.86020 0.21376 0.47100
P 	P 	0.32470 0.61600 0.12056 0.43500
P 	P 	0.73850 0.55520 0.10114 0.36500
P 	P 	0.57000 0.91060 0.22913 0.36900
H 	H 	0.20020 0.37320 0.83670 0.09600
H 	H 	0.95410 0.14820 0.87140 0.05300
H 	H 	0.91500 0.32980 0.84800 0.02100
H 	H 	0.16250 0.11840 0.74200 0.05800
H 	H 	0.13720 0.29820 0.71290 0.02100
H 	H 	0.02000 0.09320 0.50290 0.07800
H 	H 	0.99270 0.32740 0.57680 0.09100
H 	H 	0.04520 0.18260 0.62660 0.01500
H 	H 	0.26340 0.31940 0.46720 0.04100
H 	H 	0.31140 0.16060 0.50740 0.03700
H 	H 	0.68290 0.37960 0.33240 0.09900
H 	H 	0.83620 0.31420 0.43290 0.04900
H 	H 	0.96990 0.44140 0.35970 0.04000
H 	H 	0.59880 0.45360 0.47050 0.03900
H 	H 	0.69830 0.59440 0.39830 0.02100
H 	H 	0.56210 0.09080 0.98780 0.07300
H 	H 	0.26480 0.96360 0.98120 0.03100
H 	H 	0.30830 0.10580 0.90670 0.02200
H 	H 	0.61500 0.05080 0.85280 0.01900
H 	H 	0.57310 0.88200 0.91790 0.05500
H 	H 	0.17300 0.37320 0.33670 0.08100
H 	H 	0.19410 0.14820 0.37140 0.04200
H 	H 	0.41480 0.32980 0.34800 0.03200
H 	H 	0.95590 0.11840 0.24200 0.08800
H 	H 	0.16100 0.29820 0.21290 0.02000
H 	H 	0.07320 0.09320 0.00290 0.09600
H 	H 	0.33470 0.32740 0.07680 0.04600
H 	H 	0.13740 0.18260 0.12660 0.01700
H 	H 	0.05600 0.31940 0.96720 0.05100
H 	H 	0.84920 0.16060 0.00740 0.01000
H 	H 	0.69670 0.37960 0.83240 0.10200
H 	H 	0.47800 0.31420 0.93290 0.04600
H 	H 	0.47150 0.44140 0.85970 0.02900
H 	H 	0.85480 0.45360 0.97050 0.04700
H 	H 	0.89610 0.59440 0.89830 0.02600
H 	H 	0.52870 0.09080 0.48780 0.07200
H 	H 	0.69880 0.96360 0.48120 0.04000
H 	H 	0.79750 0.10580 0.40670 0.03200
H 	H 	0.43580 0.05080 0.35280 0.01900
H 	H 	0.30890 0.88200 0.41790 0.04900
C 	C 	0.94860 0.98580 0.78240 -0.06900
C 	C 	0.11890 0.36060 0.80890 -0.20900
C 	C 	0.96460 0.17400 0.83650 -0.02800
C 	C 	0.98080 0.29760 0.83490 0.04400
C 	C 	0.09910 0.15400 0.75330 -0.05500
C 	C 	0.12230 0.27620 0.74880 0.00400
C 	C 	0.13810 0.48100 0.80180 0.35600
C 	C 	0.23750 0.49900 0.55010 -0.07800
C 	C 	0.09790 0.12240 0.53570 -0.15100
C 	C 	0.07090 0.30680 0.57620 -0.09600
C 	C 	0.06550 0.20040 0.58990 0.01000
C 	C 	0.24680 0.30080 0.50390 -0.03200
C 	C 	0.23860 0.18760 0.51390 -0.00500
C 	C 	0.10310 0.01460 0.55500 0.33000
C 	C 	0.78590 0.43000 0.53340 -0.03500
C 	C 	0.76460 0.45600 0.34930 -0.21100
C 	C 	0.84310 0.38720 0.42950 -0.02200
C 	C 	0.88280 0.43060 0.37570 0.01300
C 	C 	0.68650 0.47840 0.45440 -0.02400
C 	C 	0.71230 0.52780 0.40040 0.00800
C 	C 	0.80760 0.51680 0.29740 0.50300
C 	C 	0.37700 0.02680 0.79940 -0.02100
C 	C 	0.49600 0.00700 0.97590 -0.08400
C 	C 	0.34320 0.99580 0.96060 -0.08400
C 	C 	0.33710 0.04520 0.90620 0.03000
C 	C 	0.53620 0.00580 0.86960 0.04100
C 	C 	0.54460 0.94380 0.92100 -0.08500
C 	C 	0.50220 0.95160 0.02860 0.40000
C 	C 	0.03720 0.98580 0.28240 -0.11700
C 	C 	0.24170 0.36060 0.30890 -0.16400
C 	C 	0.20940 0.17400 0.33650 -0.02500
C 	C 	0.31680 0.29760 0.33490 -0.00800
C 	C 	0.05490 0.15400 0.25330 -0.06800
C 	C 	0.15390 0.27620 0.24880 0.00200
C 	C 	0.34290 0.48100 0.30180 0.34500
C 	C 	0.26150 0.49900 0.05010 -0.07500
C 	C 	0.02450 0.12240 0.03570 -0.21900
C 	C 	0.23590 0.30680 0.07620 -0.04100
C 	C 	0.13490 0.20040 0.08990 0.00900
C 	C 	0.05400 0.30080 0.00390 -0.08800
C 	C 	0.94900 0.18760 0.01390 0.07800
C 	C 	0.91150 0.01460 0.05500 0.36100
C 	C 	0.64410 0.43000 0.03340 -0.04200
C 	C 	0.69140 0.45600 0.84930 -0.21300
C 	C 	0.54410 0.38720 0.92950 -0.02800
C 	C 	0.54780 0.43060 0.87570 0.01200
C 	C 	0.79190 0.47840 0.95440 -0.02300
C 	C 	0.81550 0.52780 0.90040 0.00900
C 	C 	0.70920 0.51680 0.79740 0.50100
C 	C 	0.64980 0.02680 0.29940 -0.01600
C 	C 	0.51100 0.00700 0.47590 -0.08900
C 	C 	0.65260 0.99580 0.46060 -0.07800
C 	C 	0.70810 0.04520 0.40620 0.03200
C 	C 	0.46960 0.00580 0.36960 0.03800
C 	C 	0.39920 0.94380 0.42100 -0.08300
C 	C 	0.44940 0.95160 0.52860 0.40300
N 	N 	0.96750 0.10160 0.77690 -0.07400
N 	N 	0.22530 0.38400 0.56030 -0.09300
N 	N 	0.81540 0.47480 0.47780 -0.09800
N 	N 	0.38410 0.98100 0.85290 -0.13700
N 	N 	0.13410 0.10160 0.27690 -0.08100
N 	N 	0.15870 0.38400 0.06030 -0.09600
N 	N 	0.65940 0.47480 0.97780 -0.09800
N 	N 	0.59690 0.98100 0.35290 -0.13400
O 	O 	0.87680 0.75000 0.73100 -0.62300
O 	O 	0.72140 0.83200 0.69690 -0.64900
O 	O 	0.44760 0.64620 0.64190 -0.63600
O 	O 	0.44450 0.85360 0.73390 -0.48600
O 	O 	0.29750 0.72860 0.60130 -0.63300
O 	O 	0.19110 0.58300 0.66780 -0.50900
O 	O 	0.97410 0.64740 0.60980 -0.55900
O 	O 	0.79480 0.50200 0.65580 -0.53800
O 	O 	0.70620 0.60900 0.59830 -0.47800
O 	O 	0.37750 0.96660 0.67520 -0.55100
O 	O 	0.74170 0.57040 0.28830 -0.60200
O 	O 	0.01890 0.90620 0.52790 -0.46000
O 	O 	0.42430 0.97280 0.06990 -0.58300
O 	O 	0.97250 0.89240 0.66360 -0.45300
O 	O 	0.18310 0.83100 0.71920 -0.59200
O 	O 	0.19120 0.03780 0.59990 -0.42500
O 	O 	0.57990 0.89980 0.02860 -0.52900
O 	O 	0.24320 0.57360 0.83280 -0.33800
O 	O 	0.90260 0.49800 0.26810 -0.57800
O 	O 	0.04660 0.47860 0.76430 -0.48300
O 	O 	0.87320 0.75000 0.23100 -0.63100
O 	O 	0.11060 0.83200 0.19690 -0.67700
O 	O 	0.19860 0.64620 0.14190 -0.64700
O 	O 	0.40910 0.85360 0.23390 -0.48800
O 	O 	0.43110 0.72860 0.10130 -0.63100
O 	O 	0.39190 0.58300 0.16780 -0.50400
O 	O 	0.67330 0.64740 0.10980 -0.58000
O 	O 	0.70720 0.50200 0.15580 -0.54500
O 	O 	0.90280 0.60900 0.09830 -0.47100
O 	O 	0.58910 0.96660 0.17520 -0.54900
O 	O 	0.82870 0.57040 0.78830 -0.59300
O 	O 	0.88730 0.90620 0.02790 -0.44200
O 	O 	0.54850 0.97280 0.56990 -0.57800
O 	O 	0.91990 0.89240 0.16360 -0.47000
O 	O 	0.64790 0.83100 0.21920 -0.57600
O 	O 	0.84660 0.03780 0.09990 -0.42300
O 	O 	0.31990 0.89980 0.52860 -0.53200
O 	O 	0.33040 0.57360 0.33280 -0.33400
O 	O 	0.59540 0.49800 0.76810 -0.58500
O 	O 	0.43200 0.47860 0.26430 -0.46400
