data_crystal

_cell_length_a 19.58700
_cell_length_b 19.16000
_cell_length_c 17.00000
_cell_angle_alpha 90.00000
_cell_angle_beta  93.29000
_cell_angle_gamma 90.00000

_symmetry_space_group_name_	'P 1'
_symmetry_space_group_name_H-M	'P 1'

loop_
_symmetry_equiv_pos_as_xyz
  x,y,z

loop_
_atom_site_label
_atom_site_type_symbol
_atom_site_fract_x
_atom_site_fract_y
_atom_site_fract_z
_atom_site_charge
Zn	Zn	0.26044 0.74075 0.25403 1.24300
Zn	Zn	0.09372 0.65092 0.16488 1.19000
O 	O 	0.06460 0.95970 0.17790 -0.45200
O 	O 	0.05790 0.84570 0.19570 -0.32800
O 	O 	0.20730 0.80820 0.18740 -0.43600
O 	O 	0.16350 0.71760 0.12150 -0.51100
O 	O 	0.17710 0.78920 0.82550 -0.43300
O 	O 	0.20730 0.90070 0.82220 -0.27600
O 	O 	0.05150 0.93370 0.81680 -0.43100
O 	O 	0.08240 0.02680 0.88490 -0.31400
O 	O 	0.21130 0.67320 0.31590 -0.48700
O 	O 	0.10060 0.65850 0.28000 -0.52900
O 	O 	0.06640 0.51620 0.32220 -0.42300
O 	O 	0.97440 0.57260 0.35470 -0.40700
O 	O 	0.13530 0.55690 0.68460 -0.28400
O 	O 	0.02940 0.59620 0.66740 -0.46500
O 	O 	0.26760 0.67870 0.61070 -0.28600
O 	O 	0.17690 0.71160 0.67040 -0.42800
C 	C 	0.10300 0.88610 0.07930 -0.05800
C 	C 	0.14590 0.82980 0.06710 -0.07300
C 	C 	0.16810 0.81800 0.99180 -0.00000
H 	H 	0.19680 0.78040 0.98330 0.04600
C 	C 	0.14840 0.86110 0.92980 -0.04400
C 	C 	0.10540 0.91760 0.94200 -0.05200
C 	C 	0.08340 0.92950 0.01680 0.00700
H 	H 	0.05490 0.96730 0.02530 0.03200
C 	C 	0.07350 0.89630 0.15790 0.36000
C 	C 	0.17310 0.78250 0.13100 0.37400
C 	C 	0.18010 0.84970 0.85250 0.33800
C 	C 	0.07850 0.96370 0.87580 0.33800
C 	C 	0.13580 0.63890 0.41110 -0.09200
C 	C 	0.08000 0.59740 0.42510 -0.04900
C 	C 	0.06420 0.58490 0.50220 -0.02200
H 	H 	0.02580 0.55840 0.51180 0.01200
C 	C 	0.10400 0.61110 0.56510 -0.04700
C 	C 	0.16070 0.65090 0.55070 -0.05100
C 	C 	0.17490 0.66570 0.47330 0.02100
H 	H 	0.21180 0.69440 0.46350 0.05300
C 	C 	0.15130 0.65810 0.32910 0.42900
C 	C 	0.03730 0.56140 0.36190 0.24100
C 	C 	0.08880 0.58740 0.64660 0.34100
C 	C 	0.20620 0.68150 0.61630 0.34900
Zn	Zn	0.76044 0.24075 0.25403 1.24300
Zn	Zn	0.59372 0.15092 0.16488 1.19600
O 	O 	0.56460 0.45970 0.17790 -0.42500
O 	O 	0.55790 0.34570 0.19570 -0.29200
O 	O 	0.70730 0.30820 0.18740 -0.43400
O 	O 	0.66350 0.21760 0.12150 -0.50300
O 	O 	0.67710 0.28920 0.82550 -0.42300
O 	O 	0.70730 0.40070 0.82220 -0.27300
O 	O 	0.55150 0.43370 0.81680 -0.39400
O 	O 	0.58240 0.52680 0.88490 -0.28400
O 	O 	0.71130 0.17320 0.31590 -0.48000
O 	O 	0.60060 0.15850 0.28000 -0.50900
O 	O 	0.56640 0.01620 0.32220 -0.43300
O 	O 	0.47440 0.07260 0.35470 -0.52000
O 	O 	0.63530 0.05690 0.68460 -0.27700
O 	O 	0.52940 0.09620 0.66740 -0.42200
O 	O 	0.76760 0.17870 0.61070 -0.27800
O 	O 	0.67690 0.21160 0.67040 -0.41600
C 	C 	0.60300 0.38610 0.07930 -0.04000
C 	C 	0.64590 0.32980 0.06710 -0.07000
C 	C 	0.66810 0.31800 0.99180 0.00500
H 	H 	0.69680 0.28040 0.98330 0.04700
C 	C 	0.64840 0.36110 0.92980 -0.04300
C 	C 	0.60540 0.41760 0.94200 -0.03500
C 	C 	0.58340 0.42950 0.01680 0.00200
H 	H 	0.55490 0.46730 0.02530 0.06000
C 	C 	0.57350 0.39630 0.15790 0.35700
C 	C 	0.67310 0.28250 0.13100 0.37600
C 	C 	0.68010 0.34970 0.85250 0.34000
C 	C 	0.57850 0.46370 0.87580 0.33100
C 	C 	0.63580 0.13890 0.41110 -0.06600
C 	C 	0.58000 0.09740 0.42510 -0.07500
C 	C 	0.56420 0.08490 0.50220 0.00100
H 	H 	0.52580 0.05840 0.51180 0.03800
C 	C 	0.60400 0.11110 0.56510 -0.04300
C 	C 	0.66070 0.15090 0.55070 -0.04000
C 	C 	0.67490 0.16570 0.47330 0.01200
H 	H 	0.71180 0.19440 0.46350 0.06000
C 	C 	0.65130 0.15810 0.32910 0.42000
C 	C 	0.53730 0.06140 0.36190 0.37900
C 	C 	0.58880 0.08740 0.64660 0.33800
C 	C 	0.70620 0.18150 0.61630 0.34400
Zn	Zn	0.73956 0.74075 0.24597 1.24200
Zn	Zn	0.90628 0.65092 0.33512 1.20200
O 	O 	0.93540 0.95970 0.32210 -0.38300
O 	O 	0.94210 0.84570 0.30430 -0.25100
O 	O 	0.79270 0.80820 0.31260 -0.43600
O 	O 	0.83650 0.71760 0.37850 -0.49700
O 	O 	0.82290 0.78920 0.67450 -0.41300
O 	O 	0.79270 0.90070 0.67780 -0.27300
O 	O 	0.94850 0.93370 0.68320 -0.34400
O 	O 	0.91760 0.02680 0.61510 -0.24900
O 	O 	0.78870 0.67320 0.18410 -0.48000
O 	O 	0.89940 0.65850 0.22000 -0.48900
O 	O 	0.93360 0.51620 0.17780 -0.43200
O 	O 	0.02560 0.57260 0.14530 -0.62700
O 	O 	0.86470 0.55690 0.81540 -0.26500
O 	O 	0.97060 0.59620 0.83260 -0.36400
O 	O 	0.73240 0.67870 0.88930 -0.28400
O 	O 	0.82310 0.71160 0.82960 -0.40600
C 	C 	0.89700 0.88610 0.42070 -0.01300
C 	C 	0.85410 0.82980 0.43290 -0.08000
C 	C 	0.83190 0.81800 0.50820 0.02500
H 	H 	0.80320 0.78040 0.51670 0.04400
C 	C 	0.85160 0.86110 0.57020 -0.05000
C 	C 	0.89460 0.91760 0.55800 -0.00600
C 	C 	0.91660 0.92950 0.48320 -0.01600
H 	H 	0.94510 0.96730 0.47470 0.09200
C 	C 	0.92650 0.89630 0.34210 0.34800
C 	C 	0.82690 0.78250 0.36900 0.38200
C 	C 	0.81990 0.84970 0.64750 0.34500
C 	C 	0.92150 0.96370 0.62420 0.32100
C 	C 	0.86420 0.63890 0.08890 -0.04900
C 	C 	0.92000 0.59740 0.07490 -0.09400
C 	C 	0.93580 0.58490 0.99780 0.01400
H 	H 	0.97420 0.55840 0.98820 0.06600
C 	C 	0.89600 0.61110 0.93490 -0.03100
C 	C 	0.83930 0.65090 0.94930 -0.03800
C 	C 	0.82510 0.66570 0.02670 0.01200
H 	H 	0.78820 0.69440 0.03650 0.06000
C 	C 	0.84870 0.65810 0.17090 0.41300
C 	C 	0.96270 0.56140 0.13810 0.51200
C 	C 	0.91120 0.58740 0.85340 0.33000
C 	C 	0.79380 0.68150 0.88370 0.34600
Zn	Zn	0.23956 0.24075 0.24597 1.24100
Zn	Zn	0.40628 0.15092 0.33512 1.19500
O 	O 	0.43540 0.45970 0.32210 -0.42500
O 	O 	0.44210 0.34570 0.30430 -0.29200
O 	O 	0.29270 0.30820 0.31260 -0.43800
O 	O 	0.33650 0.21760 0.37850 -0.50400
O 	O 	0.32290 0.28920 0.67450 -0.42300
O 	O 	0.29270 0.40070 0.67780 -0.27500
O 	O 	0.44850 0.43370 0.68320 -0.39400
O 	O 	0.41760 0.52680 0.61510 -0.28300
O 	O 	0.28870 0.17320 0.18410 -0.48600
O 	O 	0.39940 0.15850 0.22000 -0.51000
O 	O 	0.43360 0.01620 0.17780 -0.43200
O 	O 	0.52560 0.07260 0.14530 -0.51900
O 	O 	0.36470 0.05690 0.81540 -0.27700
O 	O 	0.47060 0.09620 0.83260 -0.42100
O 	O 	0.23240 0.17870 0.88930 -0.29300
O 	O 	0.32310 0.21160 0.82960 -0.41900
C 	C 	0.39700 0.38610 0.42070 -0.03600
C 	C 	0.35410 0.32980 0.43290 -0.07800
C 	C 	0.33190 0.31800 0.50820 0.01300
H 	H 	0.30320 0.28040 0.51670 0.04400
C 	C 	0.35160 0.36110 0.57020 -0.04800
C 	C 	0.39460 0.41760 0.55800 -0.02800
C 	C 	0.41660 0.42950 0.48320 -0.00600
H 	H 	0.44510 0.46730 0.47470 0.06200
C 	C 	0.42650 0.39630 0.34210 0.35500
C 	C 	0.32690 0.28250 0.36900 0.37800
C 	C 	0.31990 0.34970 0.64750 0.34200
C 	C 	0.42150 0.46370 0.62420 0.32900
C 	C 	0.36420 0.13890 0.08890 -0.07600
C 	C 	0.42000 0.09740 0.07490 -0.06500
C 	C 	0.43580 0.08490 0.99780 -0.01200
H 	H 	0.47420 0.05840 0.98820 0.04100
C 	C 	0.39600 0.11110 0.93490 -0.03500
C 	C 	0.33930 0.15090 0.94930 -0.05300
C 	C 	0.32510 0.16570 0.02670 0.02600
H 	H 	0.28820 0.19440 0.03650 0.05200
C 	C 	0.34870 0.15810 0.17090 0.42400
C 	C 	0.46270 0.06140 0.13810 0.37600
C 	C 	0.41120 0.08740 0.85340 0.33500
C 	C 	0.29380 0.18150 0.88370 0.35200
Zn	Zn	0.73956 0.25925 0.74597 1.24200
Zn	Zn	0.90628 0.34908 0.83512 1.20200
O 	O 	0.93540 0.04030 0.82210 -0.38200
O 	O 	0.94210 0.15430 0.80430 -0.25100
O 	O 	0.79270 0.19180 0.81260 -0.43700
O 	O 	0.83650 0.28240 0.87850 -0.49800
O 	O 	0.82290 0.21080 0.17450 -0.41300
O 	O 	0.79270 0.09930 0.17780 -0.27300
O 	O 	0.94850 0.06630 0.18320 -0.34300
O 	O 	0.91760 0.97320 0.11510 -0.24900
O 	O 	0.78870 0.32680 0.68410 -0.47900
O 	O 	0.89940 0.34150 0.72000 -0.48900
O 	O 	0.93360 0.48380 0.67780 -0.43200
O 	O 	0.02560 0.42740 0.64530 -0.62900
O 	O 	0.86470 0.44310 0.31540 -0.26500
O 	O 	0.97060 0.40380 0.33260 -0.36300
O 	O 	0.73240 0.32130 0.38930 -0.28300
O 	O 	0.82310 0.28840 0.32960 -0.40500
C 	C 	0.89700 0.11390 0.92070 -0.00800
C 	C 	0.85410 0.17020 0.93290 -0.08900
C 	C 	0.83190 0.18200 0.00820 0.03400
H 	H 	0.80320 0.21960 0.01670 0.04200
C 	C 	0.85160 0.13890 0.07020 -0.05500
C 	C 	0.89460 0.08240 0.05800 0.00200
C 	C 	0.91660 0.07050 0.98320 -0.02700
H 	H 	0.94510 0.03270 0.97470 0.09400
C 	C 	0.92650 0.10370 0.84210 0.34600
C 	C 	0.82690 0.21750 0.86900 0.38400
C 	C 	0.81990 0.15030 0.14750 0.34700
C 	C 	0.92150 0.03630 0.12420 0.32100
C 	C 	0.86420 0.36110 0.58890 -0.04500
C 	C 	0.92000 0.40260 0.57490 -0.09900
C 	C 	0.93580 0.41510 0.49780 0.02100
H 	H 	0.97420 0.44160 0.48820 0.06500
C 	C 	0.89600 0.38890 0.43490 -0.03400
C 	C 	0.83930 0.34910 0.44930 -0.03300
C 	C 	0.82510 0.33430 0.52670 0.00700
H 	H 	0.78820 0.30560 0.53650 0.06200
C 	C 	0.84870 0.34190 0.67090 0.41200
C 	C 	0.96270 0.43860 0.63810 0.51500
C 	C 	0.91120 0.41260 0.35340 0.33100
C 	C 	0.79380 0.31850 0.38370 0.34400
Zn	Zn	0.23956 0.75925 0.74597 1.24100
Zn	Zn	0.40628 0.84908 0.83512 1.19500
O 	O 	0.43540 0.54030 0.82210 -0.42500
O 	O 	0.44210 0.65430 0.80430 -0.29100
O 	O 	0.29270 0.69180 0.81260 -0.43900
O 	O 	0.33650 0.78240 0.87850 -0.50500
O 	O 	0.32290 0.71080 0.17450 -0.42400
O 	O 	0.29270 0.59930 0.17780 -0.27500
O 	O 	0.44850 0.56630 0.18320 -0.39300
O 	O 	0.41760 0.47320 0.11510 -0.28200
O 	O 	0.28870 0.82680 0.68410 -0.48600
O 	O 	0.39940 0.84150 0.72000 -0.50900
O 	O 	0.43360 0.98380 0.67780 -0.43400
O 	O 	0.52560 0.92740 0.64530 -0.52000
O 	O 	0.36470 0.94310 0.31540 -0.27700
O 	O 	0.47060 0.90380 0.33260 -0.42100
O 	O 	0.23240 0.82130 0.38930 -0.29100
O 	O 	0.32310 0.78840 0.32960 -0.41800
C 	C 	0.39700 0.61390 0.92070 -0.03300
C 	C 	0.35410 0.67020 0.93290 -0.08300
C 	C 	0.33190 0.68200 0.00820 0.01800
H 	H 	0.30320 0.71960 0.01670 0.04300
C 	C 	0.35160 0.63890 0.07020 -0.05100
C 	C 	0.39460 0.58240 0.05800 -0.02400
C 	C 	0.41660 0.57050 0.98320 -0.01200
H 	H 	0.44510 0.53270 0.97470 0.06300
C 	C 	0.42650 0.60370 0.84210 0.35400
C 	C 	0.32690 0.71750 0.86900 0.37900
C 	C 	0.31990 0.65030 0.14750 0.34300
C 	C 	0.42150 0.53630 0.12420 0.32800
C 	C 	0.36420 0.86110 0.58890 -0.07000
C 	C 	0.42000 0.90260 0.57490 -0.07400
C 	C 	0.43580 0.91510 0.49780 -0.00100
H 	H 	0.47420 0.94160 0.48820 0.03800
C 	C 	0.39600 0.88890 0.43490 -0.04100
C 	C 	0.33930 0.84910 0.44930 -0.04400
C 	C 	0.32510 0.83430 0.52670 0.01500
H 	H 	0.28820 0.80560 0.53650 0.05500
C 	C 	0.34870 0.84190 0.67090 0.42100
C 	C 	0.46270 0.93860 0.63810 0.37800
C 	C 	0.41120 0.91260 0.35340 0.33700
C 	C 	0.29380 0.81850 0.38370 0.34900
Zn	Zn	0.26044 0.25925 0.75403 1.24200
Zn	Zn	0.09372 0.34908 0.66488 1.18900
O 	O 	0.06460 0.04030 0.67790 -0.45300
O 	O 	0.05790 0.15430 0.69570 -0.32900
O 	O 	0.20730 0.19180 0.68740 -0.43700
O 	O 	0.16350 0.28240 0.62150 -0.51200
O 	O 	0.17710 0.21080 0.32550 -0.43300
O 	O 	0.20730 0.09930 0.32220 -0.27600
O 	O 	0.05150 0.06630 0.31680 -0.43000
O 	O 	0.08240 0.97320 0.38490 -0.31200
O 	O 	0.21130 0.32680 0.81590 -0.48600
O 	O 	0.10060 0.34150 0.78000 -0.52900
O 	O 	0.06640 0.48380 0.82220 -0.42400
O 	O 	0.97440 0.42740 0.85470 -0.40900
O 	O 	0.13530 0.44310 0.18460 -0.28500
O 	O 	0.02940 0.40380 0.16740 -0.46500
O 	O 	0.26760 0.32130 0.11070 -0.28500
O 	O 	0.17690 0.28840 0.17040 -0.42700
C 	C 	0.10300 0.11390 0.57930 -0.05600
C 	C 	0.14590 0.17020 0.56710 -0.07500
C 	C 	0.16810 0.18200 0.49180 0.00300
H 	H 	0.19680 0.21960 0.48330 0.04500
C 	C 	0.14840 0.13890 0.42980 -0.04500
C 	C 	0.10540 0.08240 0.44200 -0.05000
C 	C 	0.08340 0.07050 0.51680 0.00400
H 	H 	0.05490 0.03270 0.52530 0.03200
C 	C 	0.07350 0.10370 0.65790 0.36000
C 	C 	0.17310 0.21750 0.63100 0.37400
C 	C 	0.18010 0.15030 0.35250 0.33900
C 	C 	0.07850 0.03630 0.37580 0.33700
C 	C 	0.13580 0.36110 0.91110 -0.08700
C 	C 	0.08000 0.40260 0.92510 -0.05600
C 	C 	0.06420 0.41510 0.00220 -0.01300
H 	H 	0.02580 0.44160 0.01180 0.01100
C 	C 	0.10400 0.38890 0.06510 -0.05200
C 	C 	0.16070 0.34910 0.05070 -0.04400
C 	C 	0.17490 0.33430 0.97330 0.01300
H 	H 	0.21180 0.30560 0.96350 0.05500
C 	C 	0.15130 0.34190 0.82910 0.42700
C 	C 	0.03730 0.43860 0.86190 0.24400
C 	C 	0.08880 0.41260 0.14660 0.34300
C 	C 	0.20620 0.31850 0.11630 0.34700
Zn	Zn	0.76044 0.75925 0.75403 1.24300
Zn	Zn	0.59372 0.84908 0.66488 1.19500
O 	O 	0.56460 0.54030 0.67790 -0.42500
O 	O 	0.55790 0.65430 0.69570 -0.29200
O 	O 	0.70730 0.69180 0.68740 -0.43500
O 	O 	0.66350 0.78240 0.62150 -0.50500
O 	O 	0.67710 0.71080 0.32550 -0.42400
O 	O 	0.70730 0.59930 0.32220 -0.27400
O 	O 	0.55150 0.56630 0.31680 -0.39400
O 	O 	0.58240 0.47320 0.38490 -0.28200
O 	O 	0.71130 0.82680 0.81590 -0.48000
O 	O 	0.60060 0.84150 0.78000 -0.50900
O 	O 	0.56640 0.98380 0.82220 -0.43400
O 	O 	0.47440 0.92740 0.85470 -0.52100
O 	O 	0.63530 0.94310 0.18460 -0.27700
O 	O 	0.52940 0.90380 0.16740 -0.42200
O 	O 	0.76760 0.82130 0.11070 -0.27800
O 	O 	0.67690 0.78840 0.17040 -0.41600
C 	C 	0.60300 0.61390 0.57930 -0.03600
C 	C 	0.64590 0.67020 0.56710 -0.07700
C 	C 	0.66810 0.68200 0.49180 0.01400
H 	H 	0.69680 0.71960 0.48330 0.04500
C 	C 	0.64840 0.63890 0.42980 -0.04700
C 	C 	0.60540 0.58240 0.44200 -0.02800
C 	C 	0.58340 0.57050 0.51680 -0.00500
H 	H 	0.55490 0.53270 0.52530 0.06100
C 	C 	0.57350 0.60370 0.65790 0.35600
C 	C 	0.67310 0.71750 0.63100 0.37800
C 	C 	0.68010 0.65030 0.35250 0.34200
C 	C 	0.57850 0.53630 0.37580 0.33000
C 	C 	0.63580 0.86110 0.91110 -0.06500
C 	C 	0.58000 0.90260 0.92510 -0.07800
C 	C 	0.56420 0.91510 0.00220 0.00300
H 	H 	0.52580 0.94160 0.01180 0.03700
C 	C 	0.60400 0.88890 0.06510 -0.04400
C 	C 	0.66070 0.84910 0.05070 -0.03700
C 	C 	0.67490 0.83430 0.97330 0.00900
H 	H 	0.71180 0.80560 0.96350 0.06000
C 	C 	0.65130 0.84190 0.82910 0.41900
C 	C 	0.53730 0.93860 0.86190 0.37900
C 	C 	0.58880 0.91260 0.14660 0.33800
C 	C 	0.70620 0.81850 0.11630 0.34400
Zn	Zn	0.00000 0.99559 0.25000 1.21300
Zn	Zn	0.00000 0.46607 0.25000 1.21000
Zn	Zn	0.50000 0.49559 0.25000 1.24500
Zn	Zn	0.50000 0.96607 0.25000 1.24300
Zn	Zn	0.00000 0.00441 0.75000 1.21300
Zn	Zn	0.00000 0.53393 0.75000 1.21000
Zn	Zn	0.50000 0.50441 0.75000 1.24500
Zn	Zn	0.50000 0.03393 0.75000 1.24300
