data_crystal

_cell_length_a 13.63600
_cell_length_b 13.63600
_cell_length_c 19.46700
_cell_angle_alpha 90.00000
_cell_angle_beta  90.00000
_cell_angle_gamma 90.00000

_symmetry_space_group_name_	'P 1'
_symmetry_space_group_name_H-M	'P 1'

loop_
_symmetry_equiv_pos_as_xyz
  x,y,z

loop_
_atom_site_label
_atom_site_type_symbol
_atom_site_fract_x
_atom_site_fract_y
_atom_site_fract_z
_atom_site_charge
N 	N 	0.43210 0.42300 0.07310 -0.25600
C 	C 	0.44900 0.42590 0.14250 0.09800
C 	C 	0.40040 0.34410 0.17550 -0.08200
H 	H 	0.40310 0.32700 0.22280 0.05000
C 	C 	0.35050 0.29680 0.12530 -0.09600
H 	H 	0.30960 0.24110 0.13130 0.05300
C 	C 	0.37000 0.34550 0.06190 0.11000
C 	C 	0.16080 0.25900 0.03680 -0.20200
H 	H 	0.14950 0.31700 0.06260 0.08400
C 	C 	0.09310 0.18690 0.03520 0.09800
H 	H 	0.03430 0.19560 0.06070 -0.04600
C 	C 	0.58760 0.50100 0.28920 -0.18000
H 	H 	0.64880 0.50080 0.26590 0.08800
C 	C 	0.58460 0.50230 0.35970 0.08900
H 	H 	0.64490 0.50490 0.38420 -0.02000
N 	N 	0.56790 0.57700 0.07310 -0.25600
C 	C 	0.55100 0.57410 0.14250 0.09800
C 	C 	0.59960 0.65590 0.17550 -0.07800
H 	H 	0.59690 0.67300 0.22280 0.05600
C 	C 	0.64950 0.70320 0.12530 -0.09500
H 	H 	0.69040 0.75890 0.13130 0.06500
C 	C 	0.63000 0.65450 0.06190 0.11300
C 	C 	0.83920 0.74100 0.03680 -0.19600
H 	H 	0.85050 0.68300 0.06260 0.09400
C 	C 	0.90690 0.81310 0.03520 0.11100
H 	H 	0.96570 0.80440 0.06070 -0.01800
C 	C 	0.41240 0.49900 0.28920 -0.18100
H 	H 	0.35120 0.49920 0.26590 0.08300
C 	C 	0.41540 0.49770 0.35970 0.08800
H 	H 	0.35510 0.49510 0.38420 -0.02700
N 	N 	0.07700 0.93210 0.57310 -0.25200
C 	C 	0.07410 0.94900 0.64250 0.15800
C 	C 	0.15590 0.90040 0.67550 -0.10600
H 	H 	0.17300 0.90310 0.72280 0.07100
C 	C 	0.20320 0.85050 0.62530 -0.07400
H 	H 	0.25890 0.80960 0.63130 0.05600
C 	C 	0.15450 0.87000 0.56190 0.10100
C 	C 	0.24100 0.66080 0.53680 -0.20800
H 	H 	0.18300 0.64950 0.56260 0.09100
C 	C 	0.31310 0.59310 0.53520 0.11600
H 	H 	0.30440 0.53430 0.56070 -0.03800
C 	C 	0.99900 0.08760 0.78920 -0.12600
H 	H 	0.99920 0.14880 0.76590 0.08000
C 	C 	0.99770 0.08460 0.85970 0.10100
H 	H 	0.99510 0.14490 0.88420 -0.00700
N 	N 	0.92300 0.06790 0.57310 -0.25100
C 	C 	0.92590 0.05100 0.64250 0.15500
C 	C 	0.84410 0.09960 0.67550 -0.10700
H 	H 	0.82700 0.09690 0.72280 0.06500
C 	C 	0.79680 0.14950 0.62530 -0.07700
H 	H 	0.74110 0.19040 0.63130 0.05300
C 	C 	0.84550 0.13000 0.56190 0.09900
C 	C 	0.75900 0.33920 0.53680 -0.20600
H 	H 	0.81700 0.35050 0.56260 0.10000
C 	C 	0.68690 0.40690 0.53520 0.11800
H 	H 	0.69560 0.46570 0.56070 -0.03100
C 	C 	0.00100 0.91240 0.78920 -0.12900
H 	H 	0.00080 0.85120 0.76590 0.07000
C 	C 	0.00230 0.91540 0.85970 0.09800
H 	H 	0.00490 0.85510 0.88420 -0.02300
N 	N 	0.06790 0.92300 0.42690 -0.25200
C 	C 	0.05100 0.92590 0.35750 0.15600
C 	C 	0.09960 0.84410 0.32450 -0.10700
H 	H 	0.09690 0.82700 0.27720 0.06200
C 	C 	0.14950 0.79680 0.37470 -0.07800
H 	H 	0.19040 0.74110 0.36870 0.05200
C 	C 	0.13000 0.84550 0.43810 0.09900
C 	C 	0.33920 0.75900 0.46320 -0.20600
H 	H 	0.35050 0.81700 0.43740 0.09900
C 	C 	0.40690 0.68690 0.46480 0.11800
H 	H 	0.46570 0.69560 0.43930 -0.03200
C 	C 	0.91240 0.00100 0.21080 -0.13100
H 	H 	0.85120 0.00080 0.23410 0.06800
C 	C 	0.91540 0.00230 0.14030 0.09900
H 	H 	0.85510 0.00490 0.11580 -0.03600
N 	N 	0.93210 0.07700 0.42690 -0.25200
C 	C 	0.94900 0.07410 0.35750 0.15800
C 	C 	0.90040 0.15590 0.32450 -0.10600
H 	H 	0.90310 0.17300 0.27720 0.06900
C 	C 	0.85050 0.20320 0.37470 -0.07500
H 	H 	0.80960 0.25890 0.36870 0.05500
C 	C 	0.87000 0.15450 0.43810 0.10100
C 	C 	0.66080 0.24100 0.46320 -0.20800
H 	H 	0.64950 0.18300 0.43740 0.09000
C 	C 	0.59310 0.31310 0.46480 0.11600
H 	H 	0.53430 0.30440 0.43930 -0.03900
C 	C 	0.08760 0.99900 0.21080 -0.12800
H 	H 	0.14880 0.99920 0.23410 0.07800
C 	C 	0.08460 0.99770 0.14030 0.10300
H 	H 	0.14490 0.99510 0.11580 -0.02100
N 	N 	0.42300 0.43210 0.92690 -0.24600
C 	C 	0.42590 0.44900 0.85750 0.09800
C 	C 	0.34410 0.40040 0.82450 -0.07200
H 	H 	0.32700 0.40310 0.77720 0.04800
C 	C 	0.29680 0.35050 0.87470 -0.10900
H 	H 	0.24110 0.30960 0.86870 0.06500
C 	C 	0.34550 0.37000 0.93810 0.15100
C 	C 	0.25900 0.16080 0.96320 -0.16900
H 	H 	0.31700 0.14950 0.93740 0.08500
C 	C 	0.18690 0.09310 0.96480 0.13700
H 	H 	0.19560 0.03430 0.93930 -0.04700
C 	C 	0.50100 0.58760 0.71080 -0.17900
H 	H 	0.50080 0.64880 0.73410 0.09000
C 	C 	0.50230 0.58460 0.64030 0.09000
H 	H 	0.50490 0.64490 0.61580 -0.02000
N 	N 	0.57700 0.56790 0.92690 -0.24500
C 	C 	0.57410 0.55100 0.85750 0.10000
C 	C 	0.65590 0.59960 0.82450 -0.06700
H 	H 	0.67300 0.59690 0.77720 0.05500
C 	C 	0.70320 0.64950 0.87470 -0.10600
H 	H 	0.75890 0.69040 0.86870 0.07700
C 	C 	0.65450 0.63000 0.93810 0.15400
C 	C 	0.74100 0.83920 0.96320 -0.16500
H 	H 	0.68300 0.85050 0.93740 0.09600
C 	C 	0.81310 0.90690 0.96480 0.14600
H 	H 	0.80440 0.96570 0.93930 -0.01800
C 	C 	0.49900 0.41240 0.71080 -0.18000
H 	H 	0.49920 0.35120 0.73410 0.08500
C 	C 	0.49770 0.41540 0.64030 0.08900
H 	H 	0.49510 0.35510 0.61580 -0.02600
Cu	Cu	0.50000 0.50000 -0.00000 0.84300
Cu	Cu	0.00000 0.00000 0.50000 0.82600
Cu	Cu	-0.00000 0.00000 -0.00000 0.81500
Cu	Cu	0.50000 0.50000 0.50000 0.85000
N 	N 	0.10450 0.10450 -0.00000 -0.28700
C 	C 	0.32460 0.32460 -0.00000 -0.20000
C 	C 	0.24720 0.24720 -0.00000 0.11400
N 	N 	0.89550 0.89550 -0.00000 -0.25600
C 	C 	0.67540 0.67540 -0.00000 -0.19600
C 	C 	0.75280 0.75280 -0.00000 0.12300
N 	N 	0.39550 0.60450 0.50000 -0.25900
C 	C 	0.17540 0.82460 0.50000 -0.15400
C 	C 	0.25280 0.74720 0.50000 0.15300
N 	N 	0.60450 0.39550 0.50000 -0.25900
C 	C 	0.82460 0.17540 0.50000 -0.15400
C 	C 	0.74720 0.25280 0.50000 0.15300
N 	N 	0.50000 0.50000 0.39600 -0.24600
C 	C 	0.50000 0.50000 0.17550 -0.14900
C 	C 	0.50000 0.50000 0.25210 0.13300
N 	N 	0.00000 0.00000 0.89600 -0.27500
C 	C 	-0.00000 0.00000 0.67550 -0.22800
C 	C 	0.00000 0.00000 0.75210 0.05900
N 	N 	0.00000 0.00000 0.10400 -0.28900
C 	C 	0.00000 0.00000 0.32450 -0.23000
C 	C 	0.00000 0.00000 0.24790 0.05700
N 	N 	0.50000 0.50000 0.60400 -0.24600
C 	C 	0.50000 0.50000 0.82450 -0.14200
C 	C 	0.50000 0.50000 0.74790 0.13300
