data_crystal

_cell_length_a 10.14570
_cell_length_b 10.87280
_cell_length_c 13.75520
_cell_angle_alpha 79.12300
_cell_angle_beta  78.84400
_cell_angle_gamma 86.31700

_symmetry_space_group_name_	'P 1'
_symmetry_space_group_name_H-M	'P 1'

loop_
_symmetry_equiv_pos_as_xyz
  x,y,z

loop_
_atom_site_label
_atom_site_type_symbol
_atom_site_fract_x
_atom_site_fract_y
_atom_site_fract_z
_atom_site_charge
Gd	Gd	0.31927 0.92246 0.29711 1.51600
Gd	Gd	0.68073 0.07754 0.70289 1.52500
Co	Co	0.00000 0.50000 0.50000 1.09900
H 	H 	0.32640 0.66920 0.15420 0.07000
H 	H 	0.34610 0.32970 0.07650 0.09800
H 	H 	0.28240 0.35950 0.36830 0.02600
H 	H 	0.34640 0.77310 0.85110 0.06600
H 	H 	0.35370 0.88050 0.69170 0.02000
H 	H 	0.36530 0.57440 0.58480 0.02200
H 	H 	0.35580 0.45460 0.74260 0.08000
H 	H 	0.82450 0.91160 0.28140 0.09300
H 	H 	0.69570 0.85150 0.03660 0.13000
H 	H 	0.08930 0.84260 0.03970 0.15100
H 	H 	0.01830 0.82890 0.71540 0.06500
H 	H 	0.03300 0.74680 0.57140 -0.03200
H 	H 	0.01390 0.40770 0.72390 -0.02400
H 	H 	0.01050 0.47750 0.86990 0.10400
H 	H 	0.37670 0.64610 0.98270 0.14200
H 	H 	0.87960 0.83960 0.88170 0.16400
H 	H 	0.67360 0.33080 0.84580 0.07800
H 	H 	0.65390 0.67030 0.92350 0.10500
H 	H 	0.71760 0.64050 0.63170 0.03400
H 	H 	0.65360 0.22690 0.14890 0.06700
H 	H 	0.64630 0.11950 0.30830 0.02000
H 	H 	0.63470 0.42560 0.41520 0.02300
H 	H 	0.64420 0.54540 0.25740 0.08100
H 	H 	0.17550 0.08840 0.71860 0.03000
H 	H 	0.30430 0.14850 0.96340 0.09300
H 	H 	0.91070 0.15740 0.96030 0.06300
H 	H 	0.98170 0.17110 0.28460 0.07700
H 	H 	0.96700 0.25320 0.42860 -0.02000
H 	H 	0.98610 0.59230 0.27610 -0.00900
H 	H 	0.98950 0.52250 0.13010 0.11600
H 	H 	0.62330 0.35390 0.01730 0.14200
H 	H 	0.12040 0.16040 0.11830 0.15000
C 	C 	0.29790 0.52670 0.27380 -0.10600
C 	C 	0.32110 0.58260 0.17230 -0.07300
C 	C 	0.33610 0.50930 0.09810 0.12600
C 	C 	0.33470 0.37960 0.12570 -0.10000
C 	C 	0.31620 0.32510 0.22660 -0.05300
C 	C 	0.29650 0.39730 0.30070 0.00900
C 	C 	0.31350 0.18570 0.25310 0.30700
C 	C 	0.26670 0.60600 0.35460 0.42200
C 	C 	0.33470 0.51700 0.91900 0.22600
C 	C 	0.34800 0.60000 0.81690 0.00800
C 	C 	0.34900 0.72980 0.79850 -0.09000
C 	C 	0.35380 0.79350 0.70230 0.06000
C 	C 	0.36020 0.61460 0.63940 0.05900
C 	C 	0.35490 0.54160 0.73430 -0.08900
C 	C 	0.97430 0.87930 0.16810 0.11600
C 	C 	0.84230 0.89490 0.21610 -0.12900
C 	C 	0.73810 0.88590 0.16750 0.04300
C 	C 	0.76580 0.85720 0.07000 -0.18600
C 	C 	0.89670 0.83750 0.02360 0.25300
C 	C 	0.00080 0.85170 0.07200 -0.28200
C 	C 	0.09110 0.89100 0.21670 0.21400
C 	C 	0.59380 0.90170 0.21540 0.27400
C 	C 	0.00610 0.70360 0.90810 0.18100
C 	C 	0.00910 0.66070 0.80980 0.03200
C 	C 	0.01760 0.74280 0.71860 -0.12600
C 	C 	0.02480 0.69220 0.63290 0.07800
C 	C 	0.01520 0.49350 0.72210 0.08100
C 	C 	0.01150 0.53450 0.81020 -0.12800
C 	C 	0.70210 0.47330 0.72620 -0.09100
C 	C 	0.67890 0.41740 0.82770 -0.07900
C 	C 	0.66390 0.49070 0.90190 0.14900
C 	C 	0.66530 0.62040 0.87430 -0.10500
C 	C 	0.68380 0.67490 0.77340 -0.03900
C 	C 	0.70350 0.60270 0.69930 0.00800
C 	C 	0.68650 0.81430 0.74690 0.30900
C 	C 	0.73330 0.39400 0.64540 0.42200
C 	C 	0.66530 0.48300 0.08100 0.22900
C 	C 	0.65200 0.40000 0.18310 0.00800
C 	C 	0.65100 0.27020 0.20150 -0.09000
C 	C 	0.64620 0.20650 0.29770 0.06100
C 	C 	0.63980 0.38540 0.36060 0.05900
C 	C 	0.64510 0.45840 0.26570 -0.08800
C 	C 	0.02570 0.12070 0.83190 -0.14100
C 	C 	0.15770 0.10510 0.78390 0.02700
C 	C 	0.26190 0.11410 0.83250 -0.06400
C 	C 	0.23420 0.14280 0.93000 -0.06500
C 	C 	0.10330 0.16250 0.97640 0.08100
C 	C 	0.99920 0.14830 0.92800 0.02300
C 	C 	0.90890 0.10900 0.78330 0.34500
C 	C 	0.40620 0.09830 0.78460 0.31100
C 	C 	0.99390 0.29640 0.09190 0.22800
C 	C 	0.99090 0.33930 0.19020 0.03500
C 	C 	0.98240 0.25720 0.28140 -0.11500
C 	C 	0.97520 0.30780 0.36710 0.08600
C 	C 	0.98480 0.50650 0.27790 0.08900
C 	C 	0.98850 0.46550 0.18980 -0.11800
N 	N 	0.35280 0.56940 0.99640 -0.23600
N 	N 	0.35850 0.73880 0.62290 -0.13100
N 	N 	0.92060 0.80000 0.92800 -0.23800
N 	N 	0.02070 0.57010 0.63290 -0.25000
N 	N 	0.64720 0.43060 0.00360 -0.24400
N 	N 	0.64150 0.26120 0.37710 -0.13100
N 	N 	0.07940 0.20000 0.07200 -0.24800
N 	N 	0.97930 0.42990 0.36710 -0.23800
O 	O 	0.19230 0.56320 0.43560 -0.47600
O 	O 	0.31870 0.71230 0.33590 -0.46500
O 	O 	0.32860 0.12960 0.33840 -0.39800
O 	O 	0.29340 0.12270 0.18970 -0.37800
O 	O 	0.30890 0.40870 0.92620 -0.23100
O 	O 	0.07330 0.90540 0.30840 -0.37800
O 	O 	0.20750 0.88520 0.16650 -0.34600
O 	O 	0.56040 0.90060 0.30850 -0.36300
O 	O 	0.50460 0.91460 0.16220 -0.35700
O 	O 	0.07590 0.64880 0.96680 -0.22300
O 	O 	0.80770 0.43680 0.56440 -0.46100
O 	O 	0.68130 0.28770 0.66410 -0.46400
O 	O 	0.67140 0.87040 0.66160 -0.39100
O 	O 	0.70660 0.87730 0.81030 -0.37200
O 	O 	0.69110 0.59130 0.07380 -0.23300
O 	O 	0.92670 0.09460 0.69160 -0.38400
O 	O 	0.79250 0.11480 0.83350 -0.37200
O 	O 	0.43960 0.09940 0.69150 -0.37500
O 	O 	0.49540 0.08540 0.83780 -0.36500
O 	O 	0.92410 0.35120 0.03320 -0.21900
