data_crystal

_cell_length_a 14.36350
_cell_length_b 12.00290
_cell_length_c 16.99740
_cell_angle_alpha 90.00000
_cell_angle_beta  113.38100
_cell_angle_gamma 90.00000

_symmetry_space_group_name_	'P 1'
_symmetry_space_group_name_H-M	'P 1'

loop_
_symmetry_equiv_pos_as_xyz
  x,y,z

loop_
_atom_site_label
_atom_site_type_symbol
_atom_site_fract_x
_atom_site_fract_y
_atom_site_fract_z
_atom_site_charge
Zn	Zn	0.89368 0.93755 0.89091 1.21900
Zn	Zn	0.31876 0.07586 0.93504 1.21700
P 	P 	0.11709 0.00649 0.93073 0.45500
P 	P 	0.31400 0.92878 0.78793 0.46500
N 	N 	0.27920 0.89130 0.93200 -0.07800
N 	N 	0.93700 0.77840 0.93260 -0.26500
N 	N 	0.38390 0.23210 0.95760 -0.26000
C 	C 	0.39040 0.93340 0.08350 0.43100
C 	C 	0.32560 0.83880 0.87780 -0.29900
H 	H 	0.39670 0.82410 0.91200 0.11400
H 	H 	0.29240 0.76820 0.85630 0.13100
C 	C 	0.32180 0.84920 0.02060 -0.38000
H 	H 	0.26670 0.83000 0.03750 0.15900
H 	H 	0.36010 0.78180 0.02300 0.15300
C 	C 	0.16550 0.88830 0.89280 -0.30600
H 	H 	0.14130 0.89090 0.83080 0.12400
H 	H 	0.14170 0.81970 0.90860 0.12100
C 	C 	0.91570 0.69580 0.87230 -0.02300
C 	C 	0.94000 0.58300 0.89560 -0.00200
C 	C 	0.12910 0.30560 0.10560 0.04900
C 	C 	0.10700 0.41490 0.07880 -0.04100
C 	C 	0.98660 0.55910 0.98580 0.03800
C 	C 	0.03340 0.64700 0.03650 -0.14000
H 	H 	0.08290 0.63470 0.09110 0.08200
C 	C 	0.00830 0.75260 0.00760 0.09500
H 	H 	0.04370 0.81070 0.04310 -0.02500
C 	C 	0.40030 0.28750 0.02960 0.08100
H 	H 	0.38070 0.25370 0.06990 -0.01300
C 	C 	0.44410 0.39130 0.04860 -0.14300
H 	H 	0.45230 0.42600 0.09980 0.07700
C 	C 	0.47590 0.44390 0.99150 0.05600
C 	C 	0.46420 0.38390 0.91900 -0.14200
H 	H 	0.48760 0.41310 0.87950 0.07600
C 	C 	0.41830 0.28130 0.90500 0.07800
H 	H 	0.41080 0.24380 0.85490 -0.00100
O 	O 	0.40510 0.02760 0.05800 -0.51500
O 	O 	0.42850 0.90260 0.16030 -0.46600
O 	O 	0.00460 0.01570 0.87530 -0.44900
O 	O 	0.17570 0.10660 0.91790 -0.42700
O 	O 	0.13900 0.98510 0.02440 -0.49200
O 	O 	0.20840 0.91280 0.72010 -0.47200
O 	O 	0.33260 0.04690 0.82470 -0.45600
O 	O 	0.39550 0.89050 0.75740 -0.44500
Zn	Zn	0.10632 0.93755 0.60909 1.21800
Zn	Zn	0.68124 0.07586 0.56496 1.21500
P 	P 	0.88291 0.00649 0.56927 0.45200
P 	P 	0.68600 0.92878 0.71207 0.46700
N 	N 	0.72080 0.89130 0.56800 -0.07700
N 	N 	0.06300 0.77840 0.56740 -0.26400
N 	N 	0.61610 0.23210 0.54240 -0.26200
C 	C 	0.60960 0.93340 0.41650 0.42800
C 	C 	0.67440 0.83880 0.62220 -0.29900
H 	H 	0.60330 0.82410 0.58800 0.11400
H 	H 	0.70760 0.76820 0.64370 0.13200
C 	C 	0.67820 0.84920 0.47940 -0.38200
H 	H 	0.73330 0.83000 0.46250 0.15900
H 	H 	0.63990 0.78180 0.47700 0.15300
C 	C 	0.83450 0.88830 0.60720 -0.30300
H 	H 	0.85870 0.89090 0.66920 0.12300
H 	H 	0.85830 0.81970 0.59140 0.12100
C 	C 	0.08430 0.69580 0.62770 -0.02400
C 	C 	0.06000 0.58300 0.60440 -0.00200
C 	C 	0.87090 0.30560 0.39440 0.05000
C 	C 	0.89300 0.41490 0.42120 -0.04100
C 	C 	0.01340 0.55910 0.51420 0.03900
C 	C 	0.96660 0.64700 0.46350 -0.14000
H 	H 	0.91710 0.63470 0.40890 0.08200
C 	C 	0.99170 0.75260 0.49240 0.09400
H 	H 	0.95630 0.81070 0.45690 -0.02400
C 	C 	0.59970 0.28750 0.47040 0.08400
H 	H 	0.61930 0.25370 0.43010 -0.01400
C 	C 	0.55590 0.39130 0.45140 -0.14400
H 	H 	0.54770 0.42600 0.40020 0.07700
C 	C 	0.52410 0.44390 0.50850 0.05600
C 	C 	0.53580 0.38390 0.58100 -0.14200
H 	H 	0.51240 0.41310 0.62050 0.07700
C 	C 	0.58170 0.28130 0.59500 0.07800
H 	H 	0.58920 0.24380 0.64510 -0.00100
O 	O 	0.59490 0.02760 0.44200 -0.51200
O 	O 	0.57150 0.90260 0.33970 -0.46500
O 	O 	0.99540 0.01570 0.62470 -0.45000
O 	O 	0.82430 0.10660 0.58210 -0.42800
O 	O 	0.86100 0.98510 0.47560 -0.49200
O 	O 	0.79160 0.91280 0.77990 -0.47200
O 	O 	0.66740 0.04690 0.67530 -0.45700
O 	O 	0.60450 0.89050 0.74260 -0.44500
Zn	Zn	0.10632 0.06245 0.10909 1.21800
Zn	Zn	0.68124 0.92414 0.06496 1.21600
P 	P 	0.88291 0.99351 0.06927 0.45500
P 	P 	0.68600 0.07122 0.21207 0.46500
N 	N 	0.72080 0.10870 0.06800 -0.07800
N 	N 	0.06300 0.22160 0.06740 -0.26500
N 	N 	0.61610 0.76790 0.04240 -0.26000
C 	C 	0.60960 0.06660 0.91650 0.43100
C 	C 	0.67440 0.16120 0.12220 -0.29900
H 	H 	0.60330 0.17590 0.08800 0.11400
H 	H 	0.70760 0.23180 0.14370 0.13100
C 	C 	0.67820 0.15080 0.97940 -0.38000
H 	H 	0.73330 0.17000 0.96250 0.15900
H 	H 	0.63990 0.21820 0.97700 0.15300
C 	C 	0.83450 0.11170 0.10720 -0.30600
H 	H 	0.85870 0.10910 0.16920 0.12400
H 	H 	0.85830 0.18030 0.09140 0.12100
C 	C 	0.08430 0.30420 0.12770 -0.02300
C 	C 	0.06000 0.41700 0.10440 -0.00200
C 	C 	0.87090 0.69440 0.89440 0.04900
C 	C 	0.89300 0.58510 0.92120 -0.04100
C 	C 	0.01340 0.44090 0.01420 0.03800
C 	C 	0.96660 0.35300 0.96350 -0.14000
H 	H 	0.91710 0.36530 0.90890 0.08200
C 	C 	0.99170 0.24740 0.99240 0.09500
H 	H 	0.95630 0.18930 0.95690 -0.02500
C 	C 	0.59970 0.71250 0.97040 0.08100
H 	H 	0.61930 0.74630 0.93010 -0.01300
C 	C 	0.55590 0.60870 0.95140 -0.14300
H 	H 	0.54770 0.57400 0.90020 0.07700
C 	C 	0.52410 0.55610 0.00850 0.05600
C 	C 	0.53580 0.61610 0.08100 -0.14200
H 	H 	0.51240 0.58690 0.12050 0.07600
C 	C 	0.58170 0.71870 0.09500 0.07800
H 	H 	0.58920 0.75620 0.14510 -0.00100
O 	O 	0.59490 0.97240 0.94200 -0.51500
O 	O 	0.57150 0.09740 0.83970 -0.46600
O 	O 	0.99540 0.98430 0.12470 -0.44900
O 	O 	0.82430 0.89340 0.08210 -0.42700
O 	O 	0.86100 0.01490 0.97560 -0.49200
O 	O 	0.79160 0.08720 0.27990 -0.47200
O 	O 	0.66740 0.95310 0.17530 -0.45600
O 	O 	0.60450 0.10950 0.24260 -0.44500
Zn	Zn	0.89368 0.06245 0.39091 1.21800
Zn	Zn	0.31876 0.92414 0.43504 1.21500
P 	P 	0.11709 0.99351 0.43073 0.45200
P 	P 	0.31400 0.07122 0.28793 0.46700
N 	N 	0.27920 0.10870 0.43200 -0.07700
N 	N 	0.93700 0.22160 0.43260 -0.26400
N 	N 	0.38390 0.76790 0.45760 -0.26200
C 	C 	0.39040 0.06660 0.58350 0.42800
C 	C 	0.32560 0.16120 0.37780 -0.29900
H 	H 	0.39670 0.17590 0.41200 0.11400
H 	H 	0.29240 0.23180 0.35630 0.13200
C 	C 	0.32180 0.15080 0.52060 -0.38200
H 	H 	0.26670 0.17000 0.53750 0.15900
H 	H 	0.36010 0.21820 0.52300 0.15300
C 	C 	0.16550 0.11170 0.39280 -0.30300
H 	H 	0.14130 0.10910 0.33080 0.12300
H 	H 	0.14170 0.18030 0.40860 0.12100
C 	C 	0.91570 0.30420 0.37230 -0.02400
C 	C 	0.94000 0.41700 0.39560 -0.00200
C 	C 	0.12910 0.69440 0.60560 0.05000
C 	C 	0.10700 0.58510 0.57880 -0.04100
C 	C 	0.98660 0.44090 0.48580 0.03900
C 	C 	0.03340 0.35300 0.53650 -0.14000
H 	H 	0.08290 0.36530 0.59110 0.08200
C 	C 	0.00830 0.24740 0.50760 0.09400
H 	H 	0.04370 0.18930 0.54310 -0.02400
C 	C 	0.40030 0.71250 0.52960 0.08400
H 	H 	0.38070 0.74630 0.56990 -0.01400
C 	C 	0.44410 0.60870 0.54860 -0.14400
H 	H 	0.45230 0.57400 0.59980 0.07700
C 	C 	0.47590 0.55610 0.49150 0.05600
C 	C 	0.46420 0.61610 0.41900 -0.14200
H 	H 	0.48760 0.58690 0.37950 0.07700
C 	C 	0.41830 0.71870 0.40500 0.07800
H 	H 	0.41080 0.75620 0.35490 -0.00100
O 	O 	0.40510 0.97240 0.55800 -0.51200
O 	O 	0.42850 0.09740 0.66030 -0.46500
O 	O 	0.00460 0.98430 0.37530 -0.45000
O 	O 	0.17570 0.89340 0.41790 -0.42800
O 	O 	0.13900 0.01490 0.52440 -0.49200
O 	O 	0.20840 0.08720 0.22010 -0.47200
O 	O 	0.33260 0.95310 0.32470 -0.45700
O 	O 	0.39550 0.10950 0.25740 -0.44500
Zn	Zn	0.50000 0.01420 0.25000 1.24100
Zn	Zn	0.50000 0.98580 0.75000 1.24100
