data_crystal

_cell_length_a 22.90560
_cell_length_b 24.22760
_cell_length_c 24.81450
_cell_angle_alpha 61.77700
_cell_angle_beta  63.59900
_cell_angle_gamma 77.40700

_symmetry_space_group_name_	'P 1'
_symmetry_space_group_name_H-M	'P 1'

loop_
_symmetry_equiv_pos_as_xyz
  x,y,z

loop_
_atom_site_label
_atom_site_type_symbol
_atom_site_fract_x
_atom_site_fract_y
_atom_site_fract_z
_atom_site_charge
Cu	Cu	0.04632 0.89042 0.94921 0.89900
Cu	Cu	0.03222 0.91565 0.84060 0.90100
Cu	Cu	0.06949 0.35986 0.58604 0.92600
Cu	Cu	0.98586 0.64772 0.77386 0.90300
Cu	Cu	0.98452 0.52895 0.85619 0.92600
Cu	Cu	0.33680 0.18944 0.27492 0.90200
Cu	Cu	0.62023 0.11653 0.87658 0.91500
Cu	Cu	0.05591 0.26645 0.56661 0.90300
Cu	Cu	0.44737 0.24918 0.20482 0.90400
Cu	Cu	0.71290 0.08636 0.78495 0.90200
Cu	Cu	0.42672 0.77659 0.57067 0.90000
Cu	Cu	0.31999 0.83051 0.55415 0.90100
O 	O 	0.31420 0.47280 0.76940 -0.39200
H 	H 	0.30620 0.46110 0.80890 0.24600
O 	O 	0.97540 0.66034 0.84907 -0.40200
O 	O 	0.06190 0.99879 0.81233 -0.38800
O 	O 	0.09840 0.28949 0.65478 -0.37400
O 	O 	0.03280 0.80341 0.97283 -0.39700
O 	O 	0.98340 0.56014 0.91675 -0.38900
O 	O 	0.65540 0.48070 0.00770 -0.42700
H 	H 	0.65800 0.47750 0.04090 0.25700
O 	O 	0.42010 0.28050 0.70930 -0.39600
H 	H 	0.39700 0.27290 0.69620 0.24900
O 	O 	0.03320 0.40900 0.51740 -0.39500
O 	O 	0.00470 0.82753 0.88799 -0.39300
O 	O 	0.01770 0.57170 0.09764 -0.28000
O 	O 	0.07780 0.21168 0.64243 -0.40400
O 	O 	0.03340 0.33058 0.49377 -0.40100
O 	O 	0.58500 0.16370 0.80800 -0.38700
O 	O 	0.13870 0.88188 0.89400 -0.38800
O 	O 	0.05760 0.97981 0.91184 -0.39800
O 	O 	0.35710 0.47160 0.32120 -0.32100
H 	H 	0.32780 0.49660 0.31420 0.21100
O 	O 	0.46810 0.20350 0.15080 -0.38200
O 	O 	0.75860 0.15990 0.76020 -0.39100
O 	O 	0.94370 0.94040 0.88633 -0.39500
O 	O 	0.90870 0.57600 0.38940 -0.28400
O 	O 	0.08020 0.63550 0.75320 -0.39400
O 	O 	0.00110 0.37702 0.29455 -0.38500
O 	O 	0.94876 0.90131 0.98590 -0.40600
O 	O 	0.01110 0.47947 0.22124 -0.36400
O 	O 	0.31740 0.23680 0.32670 -0.39900
O 	O 	0.96610 0.27070 0.63010 -0.40400
O 	O 	0.89160 0.63570 0.81000 -0.39800
O 	O 	0.69270 0.73700 0.78720 -0.39100
O 	O 	0.64320 0.18620 0.52480 -0.39600
O 	O 	0.38010 0.12436 0.32950 -0.40300
O 	O 	0.55140 0.23160 0.51180 -0.39600
O 	O 	0.59720 0.68560 0.85010 -0.38000
O 	O 	0.12250 0.88748 0.80884 -0.39300
O 	O 	0.89120 0.53701 0.88650 -0.37400
O 	O 	0.08840 0.19322 0.88420 -0.42900
H 	H 	0.07480 0.16730 0.92330 0.26900
O 	O 	0.74690 0.03840 0.85460 -0.40200
O 	O 	0.66470 0.13770 0.72980 -0.39700
O 	O 	0.42580 0.95720 0.09480 -0.37200
O 	O 	0.66640 0.06350 0.93370 -0.38800
O 	O 	0.29910 0.83897 0.63550 -0.39100
O 	O 	0.08000 0.53240 0.81630 -0.37600
O 	O 	0.98100 0.34370 0.65270 -0.38700
O 	O 	0.45909 0.86262 0.51660 -0.39700
O 	O 	0.40980 0.29054 0.26420 -0.40100
O 	O 	0.47370 0.17620 0.27180 -0.39600
O 	O 	0.14940 0.28247 0.50613 -0.40600
O 	O 	0.36830 0.90897 0.50000 -0.38900
O 	O 	0.34530 0.98310 0.17500 -0.39500
O 	O 	0.15590 0.36804 0.51581 -0.37800
O 	O 	0.39020 0.79100 0.65160 -0.39600
O 	O 	0.37290 0.15260 0.21070 -0.40100
O 	O 	0.37640 0.69750 0.62380 -0.39100
O 	O 	0.67900 0.18500 0.83880 -0.38300
O 	O 	0.36200 0.78910 0.86490 -0.42600
H 	H 	0.36550 0.81680 0.87340 0.25900
O 	O 	0.55440 0.15570 0.94610 -0.35700
O 	O 	0.28550 0.74460 0.61030 -0.39900
O 	O 	0.61460 0.03970 0.39330 -0.44300
H 	H 	0.61950 0.07680 0.38130 0.26600
O 	O 	0.76440 0.36390 0.82580 -0.41600
H 	H 	0.77060 0.40080 0.79890 0.25500
O 	O 	0.71940 0.92950 0.13650 -0.40900
H 	H 	0.68480 0.91350 0.14950 0.25200
C 	C 	0.68860 0.53330 0.95430 0.31300
C 	C 	0.51520 0.22370 0.72910 -0.16200
H 	H 	0.49820 0.22300 0.77110 0.12800
C 	C 	0.48150 0.25390 0.68670 0.24100
C 	C 	0.27850 0.52890 0.74790 0.24500
C 	C 	0.94850 0.30330 0.66060 0.32900
C 	C 	0.98350 0.61760 0.90000 0.32900
C 	C 	0.06330 0.01520 0.85370 0.31100
C 	C 	0.35420 0.27920 0.30850 0.33200
C 	C 	0.01570 0.79000 0.93920 0.32600
C 	C 	0.59940 0.19150 0.64550 -0.05100
H 	H 	0.63950 0.17200 0.63170 0.08000
C 	C 	0.99440 0.70280 0.92450 -0.05500
H 	H 	0.98950 0.73220 0.88560 0.08100
C 	C 	0.17550 0.32860 0.49030 0.32600
C 	C 	0.73380 0.19220 0.79290 0.31700
C 	C 	0.39890 0.99310 0.12660 0.29900
C 	C 	0.86370 0.58690 0.85590 0.31300
C 	C 	0.00610 0.72150 0.96340 0.00800
C 	C 	0.08650 0.16820 0.84540 0.29400
C 	C 	0.99690 0.59420 0.00330 -0.16500
H 	H 	0.99430 0.55160 0.01650 0.11600
C 	C 	0.08930 0.23360 0.67280 0.33200
C 	C 	0.98990 0.63770 0.94520 0.00400
C 	C 	0.58800 0.21170 0.54250 0.33200
C 	C 	0.42670 0.16580 0.16400 0.32000
C 	C 	0.01410 0.67770 0.02130 -0.15800
H 	H 	0.02360 0.69090 0.04610 0.12700
C 	C 	0.09440 0.20940 0.78080 -0.19500
H 	H 	0.10210 0.25140 0.76520 0.14400
C 	C 	0.15710 0.87590 0.84090 0.32200
C 	C 	0.42710 0.90890 0.49080 0.30700
C 	C 	0.00050 0.43550 0.27840 0.30300
C 	C 	0.96760 0.48490 0.43390 -0.16800
H 	H 	0.96330 0.49600 0.46660 0.11900
C 	C 	0.10850 0.58400 0.77500 0.31500
C 	C 	0.99940 0.42900 0.43270 0.00900
C 	C 	0.26870 0.30570 0.39980 -0.08400
H 	H 	0.24620 0.27010 0.41500 0.09200
C 	C 	0.07770 0.10530 0.86860 -0.22800
H 	H 	0.07350 0.07760 0.91180 0.12900
C 	C 	0.08100 0.12430 0.76230 -0.07600
H 	H 	0.07860 0.10910 0.73520 0.09000
C 	C 	0.24870 0.84870 0.75370 -0.05800
H 	H 	0.22370 0.86230 0.72860 0.08400
C 	C 	0.71980 0.03710 0.91060 0.32100
C 	C 	0.09080 0.18880 0.73860 0.02100
C 	C 	0.98580 0.45370 0.33400 0.01600
C 	C 	0.00800 0.61450 0.04220 0.23200
C 	C 	0.02330 0.38640 0.48690 0.33200
C 	C 	0.34930 0.80220 0.76870 -0.17900
H 	H 	0.38960 0.78320 0.75460 0.12300
C 	C 	0.41630 0.08080 0.14000 -0.06400
H 	H 	0.38200 0.06570 0.18170 0.08400
C 	C 	0.75760 0.63660 0.85010 -0.09500
H 	H 	0.78010 0.67270 0.81530 0.09500
C 	C 	0.07510 0.08390 0.82780 0.04000
C 	C 	0.00650 0.41230 0.38430 -0.06200
H 	H 	0.02490 0.37380 0.38520 0.08300
C 	C 	0.33620 0.81720 0.66760 0.30300
C 	C 	0.46140 0.97070 0.44610 0.04700
C 	C 	0.32660 0.31960 0.34580 0.02300
C 	C 	0.43790 0.12990 0.31550 0.32400
C 	C 	0.84810 0.94460 0.97710 0.03100
C 	C 	0.24320 0.34420 0.43250 0.04000
C 	C 	0.81660 0.97870 0.93390 -0.08300
H 	H 	0.83810 0.98790 0.88880 0.09000
C 	C 	0.79120 0.58580 0.88070 0.03700
C 	C 	0.46860 0.07690 0.36130 0.04900
C 	C 	0.87810 0.29760 0.71140 0.03800
C 	C 	0.22460 0.85350 0.81380 0.01000
C 	C 	0.26290 0.83560 0.85130 -0.18100
H 	H 	0.24710 0.84030 0.89050 0.12200
C 	C 	0.69140 0.63460 0.87030 0.05400
C 	C 	0.31730 0.69790 0.63500 0.33700
C 	C 	0.91870 0.92700 0.94790 0.31500
C 	C 	0.95380 0.50900 0.33230 -0.14900
H 	H 	0.94010 0.53570 0.29820 0.12000
C 	C 	0.32580 0.81050 0.82760 0.27200
C 	C 	0.43440 0.02110 0.40710 -0.09300
H 	H 	0.39270 0.01790 0.41130 0.09500
C 	C 	0.61040 0.16290 0.75300 0.32800
C 	C 	0.44870 0.13370 0.11870 0.00900
C 	C 	0.43380 0.05000 0.10100 0.01600
C 	C 	0.31050 0.82330 0.73170 0.00700
C 	C 	0.55690 0.03250 0.39600 0.32600
C 	C 	0.75290 0.28030 0.80590 -0.20900
H 	H 	0.71020 0.27550 0.83740 0.14500
C 	C 	0.21460 0.63790 0.70330 -0.05500
H 	H 	0.19180 0.67430 0.68690 0.08100
C 	C 	0.56460 0.21690 0.60550 -0.00200
C 	C 	0.83900 0.25140 0.72690 -0.08700
H 	H 	0.85560 0.22560 0.70500 0.09100
C 	C 	0.51100 0.12970 0.01260 0.25400
C 	C 	0.94260 0.52380 0.38620 0.22500
C 	C 	0.49590 0.16130 0.05310 -0.16500
H 	H 	0.51630 0.19840 0.03700 0.12300
C 	C 	0.65670 0.69020 0.83350 0.30100
C 	C 	0.77610 0.24310 0.77420 0.03900
C 	C 	0.18110 0.58260 0.74950 0.01600
C 	C 	0.28140 0.64010 0.68100 -0.00800
C 	C 	0.48330 0.07530 0.03510 -0.19300
H 	H 	0.49620 0.05450 0.00820 0.12700
C 	C 	0.36020 0.37440 0.32330 -0.20700
H 	H 	0.39980 0.38470 0.28650 0.13700
C 	C 	0.75430 0.99840 0.95820 0.03100
C 	C 	0.79160 0.32570 0.79250 0.29200
C 	C 	0.52240 0.97630 0.44000 -0.22000
H 	H 	0.54140 0.94230 0.46540 0.14400
C 	C 	0.52860 0.08190 0.35870 -0.24100
H 	H 	0.55040 0.11990 0.33070 0.13400
C 	C 	0.57480 0.19480 0.70610 0.00700
C 	C 	0.85360 0.33510 0.74410 -0.21900
H 	H 	0.87890 0.36690 0.73350 0.13400
C 	C 	0.65710 0.58290 0.92270 -0.23900
H 	H 	0.61220 0.58180 0.93650 0.15100
C 	C 	0.71950 0.98250 0.02620 -0.19900
H 	H 	0.67660 0.99560 0.04300 0.12500
C 	C 	0.27630 0.39710 0.41050 -0.22800
H 	H 	0.25950 0.42270 0.43270 0.13400
C 	C 	0.75270 0.94580 0.06760 0.27600
C 	C 	0.21080 0.52800 0.77230 -0.18200
H 	H 	0.18750 0.49110 0.80300 0.12700
C 	C 	0.81570 0.92780 0.04270 -0.20500
H 	H 	0.83660 0.90360 0.07140 0.13300
C 	C 	0.33400 0.41140 0.35600 0.28900
C 	C 	0.75600 0.53200 0.93340 -0.21800
H 	H 	0.77730 0.49630 0.95380 0.13900
C 	C 	0.31490 0.58400 0.70120 -0.15600
H 	H 	0.36020 0.58280 0.68440 0.12200
C 	C 	0.50630 0.24680 0.62590 -0.16100
H 	H 	0.48230 0.26280 0.59970 0.10900
O 	O 	0.38070 0.45370 0.34560 -0.14200
H 	H 	0.38350 0.44350 0.38100 0.13700
H 	H 	0.58620 0.13050 0.93990 0.10300
Cu	Cu	0.95368 0.10958 0.05079 0.90000
Cu	Cu	0.96778 0.08435 0.15940 0.90200
Cu	Cu	0.93051 0.64014 0.41396 0.92700
Cu	Cu	0.01414 0.35228 0.22614 0.90400
Cu	Cu	0.01548 0.47105 0.14381 0.92700
Cu	Cu	0.66320 0.81056 0.72508 0.90300
Cu	Cu	0.37977 0.88347 0.12342 0.91600
Cu	Cu	0.94409 0.73355 0.43339 0.90400
Cu	Cu	0.55263 0.75082 0.79518 0.90500
Cu	Cu	0.28710 0.91364 0.21505 0.90300
Cu	Cu	0.57328 0.22341 0.42933 0.90000
Cu	Cu	0.68001 0.16949 0.44585 0.90100
O 	O 	0.68580 0.52720 0.23060 -0.39200
H 	H 	0.69380 0.53890 0.19110 0.24600
O 	O 	0.02460 0.33966 0.15093 -0.40200
O 	O 	0.93810 0.00121 0.18767 -0.38800
O 	O 	0.90160 0.71051 0.34522 -0.37400
O 	O 	0.96720 0.19659 0.02717 -0.39700
O 	O 	0.01660 0.43986 0.08325 -0.38900
O 	O 	0.34460 0.51930 0.99230 -0.42700
H 	H 	0.34200 0.52250 0.95910 0.25700
O 	O 	0.57990 0.71950 0.29070 -0.39600
H 	H 	0.60300 0.72710 0.30380 0.24900
O 	O 	0.96680 0.59100 0.48260 -0.39500
O 	O 	0.99530 0.17247 0.11201 -0.39300
O 	O 	0.98230 0.42830 0.90236 -0.28000
O 	O 	0.92220 0.78832 0.35757 -0.40400
O 	O 	0.96660 0.66942 0.50623 -0.40100
O 	O 	0.41500 0.83630 0.19200 -0.38700
O 	O 	0.86130 0.11812 0.10600 -0.38800
O 	O 	0.94240 0.02019 0.08816 -0.39800
O 	O 	0.64290 0.52840 0.67880 -0.32100
H 	H 	0.67220 0.50340 0.68580 0.21100
O 	O 	0.53190 0.79650 0.84920 -0.38200
O 	O 	0.24140 0.84010 0.23980 -0.39100
O 	O 	0.05630 0.05960 0.11367 -0.39500
O 	O 	0.09130 0.42400 0.61060 -0.28400
O 	O 	0.91980 0.36450 0.24680 -0.39400
O 	O 	0.99890 0.62298 0.70545 -0.38500
O 	O 	0.05124 0.09869 0.01410 -0.40600
O 	O 	0.98890 0.52053 0.77876 -0.36400
O 	O 	0.68260 0.76320 0.67330 -0.39900
O 	O 	0.03390 0.72930 0.36990 -0.40400
O 	O 	0.10840 0.36430 0.19000 -0.39800
O 	O 	0.30730 0.26300 0.21280 -0.39100
O 	O 	0.35680 0.81380 0.47520 -0.39600
O 	O 	0.61990 0.87564 0.67050 -0.40300
O 	O 	0.44860 0.76840 0.48820 -0.39600
O 	O 	0.40280 0.31440 0.14990 -0.38000
O 	O 	0.87750 0.11252 0.19116 -0.39300
O 	O 	0.10880 0.46299 0.11350 -0.37400
O 	O 	0.91160 0.80678 0.11580 -0.42900
H 	H 	0.92520 0.83270 0.07670 0.26900
O 	O 	0.25310 0.96160 0.14540 -0.40200
O 	O 	0.33530 0.86230 0.27020 -0.39700
O 	O 	0.57420 0.04280 0.90520 -0.37200
O 	O 	0.33360 0.93650 0.06630 -0.38800
O 	O 	0.70090 0.16103 0.36450 -0.39100
O 	O 	0.92000 0.46760 0.18370 -0.37600
O 	O 	0.01900 0.65630 0.34730 -0.38700
O 	O 	0.54091 0.13738 0.48340 -0.39700
O 	O 	0.59020 0.70946 0.73580 -0.40100
O 	O 	0.52630 0.82380 0.72820 -0.39600
O 	O 	0.85060 0.71753 0.49387 -0.40600
O 	O 	0.63170 0.09103 0.50000 -0.38900
O 	O 	0.65470 0.01690 0.82500 -0.39500
O 	O 	0.84410 0.63196 0.48419 -0.37800
O 	O 	0.60980 0.20900 0.34840 -0.39600
O 	O 	0.62710 0.84740 0.78930 -0.40100
O 	O 	0.62360 0.30250 0.37620 -0.39100
O 	O 	0.32100 0.81500 0.16120 -0.38300
O 	O 	0.63800 0.21090 0.13510 -0.42600
H 	H 	0.63450 0.18320 0.12660 0.25900
O 	O 	0.44560 0.84430 0.05390 -0.35700
O 	O 	0.71450 0.25540 0.38970 -0.39900
O 	O 	0.38540 0.96030 0.60670 -0.44300
H 	H 	0.38050 0.92320 0.61870 0.26600
O 	O 	0.23560 0.63610 0.17420 -0.41600
H 	H 	0.22940 0.59920 0.20110 0.25500
O 	O 	0.28060 0.07050 0.86350 -0.40900
H 	H 	0.31520 0.08650 0.85050 0.25200
C 	C 	0.31140 0.46670 0.04570 0.31300
C 	C 	0.48480 0.77630 0.27090 -0.16200
H 	H 	0.50180 0.77700 0.22890 0.12800
C 	C 	0.51850 0.74610 0.31330 0.24100
C 	C 	0.72150 0.47110 0.25210 0.24500
C 	C 	0.05150 0.69670 0.33940 0.32900
C 	C 	0.01650 0.38240 0.10000 0.32900
C 	C 	0.93670 0.98480 0.14630 0.31100
C 	C 	0.64580 0.72080 0.69150 0.33200
C 	C 	0.98430 0.21000 0.06080 0.32600
C 	C 	0.40060 0.80850 0.35450 -0.05100
H 	H 	0.36050 0.82800 0.36830 0.08000
C 	C 	0.00560 0.29720 0.07550 -0.05500
H 	H 	0.01050 0.26780 0.11440 0.08100
C 	C 	0.82450 0.67140 0.50970 0.32600
C 	C 	0.26620 0.80780 0.20710 0.31700
C 	C 	0.60110 0.00690 0.87340 0.29900
C 	C 	0.13630 0.41310 0.14410 0.31300
C 	C 	0.99390 0.27850 0.03660 0.00800
C 	C 	0.91350 0.83180 0.15460 0.29400
C 	C 	0.00310 0.40580 0.99670 -0.16500
H 	H 	0.00570 0.44840 0.98350 0.11600
C 	C 	0.91070 0.76640 0.32720 0.33200
C 	C 	0.01010 0.36230 0.05480 0.00400
C 	C 	0.41200 0.78830 0.45750 0.33200
C 	C 	0.57330 0.83420 0.83600 0.32000
C 	C 	0.98590 0.32230 0.97870 -0.15800
H 	H 	0.97640 0.30910 0.95390 0.12700
C 	C 	0.90560 0.79060 0.21920 -0.19500
H 	H 	0.89790 0.74860 0.23480 0.14400
C 	C 	0.84290 0.12410 0.15910 0.32200
C 	C 	0.57290 0.09110 0.50920 0.30700
C 	C 	0.99950 0.56450 0.72160 0.30300
C 	C 	0.03240 0.51510 0.56610 -0.16800
H 	H 	0.03670 0.50400 0.53340 0.11900
C 	C 	0.89150 0.41600 0.22500 0.31500
C 	C 	0.00060 0.57100 0.56730 0.00900
C 	C 	0.73130 0.69430 0.60020 -0.08400
H 	H 	0.75380 0.72990 0.58500 0.09200
C 	C 	0.92230 0.89470 0.13140 -0.22800
H 	H 	0.92650 0.92240 0.08820 0.12900
C 	C 	0.91900 0.87570 0.23770 -0.07600
H 	H 	0.92140 0.89090 0.26480 0.09000
C 	C 	0.75130 0.15130 0.24630 -0.05800
H 	H 	0.77630 0.13770 0.27140 0.08400
C 	C 	0.28020 0.96290 0.08940 0.32100
C 	C 	0.90920 0.81120 0.26140 0.02100
C 	C 	0.01420 0.54630 0.66600 0.01600
C 	C 	0.99200 0.38550 0.95780 0.23200
C 	C 	0.97670 0.61360 0.51310 0.33200
C 	C 	0.65070 0.19780 0.23130 -0.17900
H 	H 	0.61040 0.21680 0.24540 0.12300
C 	C 	0.58370 0.91920 0.86000 -0.06400
H 	H 	0.61800 0.93430 0.81830 0.08400
C 	C 	0.24240 0.36340 0.14990 -0.09500
H 	H 	0.21990 0.32730 0.18470 0.09500
C 	C 	0.92490 0.91610 0.17220 0.04000
C 	C 	0.99350 0.58770 0.61570 -0.06200
H 	H 	0.97510 0.62620 0.61480 0.08300
C 	C 	0.66380 0.18280 0.33240 0.30300
C 	C 	0.53860 0.02930 0.55390 0.04700
C 	C 	0.67340 0.68040 0.65420 0.02300
C 	C 	0.56210 0.87010 0.68450 0.32400
C 	C 	0.15190 0.05540 0.02290 0.03100
C 	C 	0.75680 0.65580 0.56750 0.04000
C 	C 	0.18340 0.02130 0.06610 -0.08300
H 	H 	0.16190 0.01210 0.11120 0.09000
C 	C 	0.20880 0.41420 0.11930 0.03700
C 	C 	0.53140 0.92310 0.63870 0.04900
C 	C 	0.12190 0.70240 0.28860 0.03800
C 	C 	0.77540 0.14650 0.18620 0.01000
C 	C 	0.73710 0.16440 0.14870 -0.18100
H 	H 	0.75290 0.15970 0.10950 0.12200
C 	C 	0.30860 0.36540 0.12970 0.05400
C 	C 	0.68270 0.30210 0.36500 0.33700
C 	C 	0.08130 0.07300 0.05210 0.31500
C 	C 	0.04620 0.49100 0.66770 -0.14900
H 	H 	0.05990 0.46430 0.70180 0.12000
C 	C 	0.67420 0.18950 0.17240 0.27200
C 	C 	0.56560 0.97890 0.59290 -0.09300
H 	H 	0.60730 0.98210 0.58870 0.09500
C 	C 	0.38960 0.83710 0.24700 0.32800
C 	C 	0.55130 0.86630 0.88130 0.00900
C 	C 	0.56620 0.95000 0.89900 0.01600
C 	C 	0.68950 0.17670 0.26830 0.00700
C 	C 	0.44310 0.96750 0.60400 0.32600
C 	C 	0.24710 0.71970 0.19410 -0.20900
H 	H 	0.28980 0.72450 0.16260 0.14500
C 	C 	0.78540 0.36210 0.29670 -0.05500
H 	H 	0.80820 0.32570 0.31310 0.08100
C 	C 	0.43540 0.78310 0.39450 -0.00200
C 	C 	0.16100 0.74860 0.27310 -0.08700
H 	H 	0.14440 0.77440 0.29500 0.09100
C 	C 	0.48900 0.87030 0.98740 0.25400
C 	C 	0.05740 0.47620 0.61380 0.22500
C 	C 	0.50410 0.83870 0.94690 -0.16500
H 	H 	0.48370 0.80160 0.96300 0.12300
C 	C 	0.34330 0.30980 0.16650 0.30100
C 	C 	0.22390 0.75690 0.22580 0.03900
C 	C 	0.81890 0.41740 0.25050 0.01600
C 	C 	0.71860 0.35990 0.31900 -0.00800
C 	C 	0.51670 0.92470 0.96490 -0.19300
H 	H 	0.50380 0.94550 0.99180 0.12700
C 	C 	0.63980 0.62560 0.67670 -0.20700
H 	H 	0.60020 0.61530 0.71350 0.13700
C 	C 	0.24570 0.00160 0.04180 0.03100
C 	C 	0.20840 0.67430 0.20750 0.29200
C 	C 	0.47760 0.02370 0.56000 -0.22000
H 	H 	0.45860 0.05770 0.53460 0.14400
C 	C 	0.47140 0.91810 0.64130 -0.24100
H 	H 	0.44960 0.88010 0.66930 0.13400
C 	C 	0.42520 0.80520 0.29390 0.00700
C 	C 	0.14640 0.66490 0.25590 -0.21900
H 	H 	0.12110 0.63310 0.26650 0.13400
C 	C 	0.34290 0.41710 0.07730 -0.23900
H 	H 	0.38780 0.41820 0.06350 0.15100
C 	C 	0.28050 0.01750 0.97380 -0.19900
H 	H 	0.32340 0.00440 0.95700 0.12500
C 	C 	0.72370 0.60290 0.58950 -0.22800
H 	H 	0.74050 0.57730 0.56730 0.13400
C 	C 	0.24730 0.05420 0.93240 0.27600
C 	C 	0.78920 0.47200 0.22770 -0.18200
H 	H 	0.81250 0.50890 0.19700 0.12700
C 	C 	0.18430 0.07220 0.95730 -0.20500
H 	H 	0.16340 0.09640 0.92860 0.13300
C 	C 	0.66600 0.58860 0.64400 0.28900
C 	C 	0.24400 0.46800 0.06660 -0.21800
H 	H 	0.22270 0.50370 0.04620 0.13900
C 	C 	0.68510 0.41600 0.29880 -0.15600
H 	H 	0.63980 0.41720 0.31560 0.12200
C 	C 	0.49370 0.75320 0.37410 -0.16100
H 	H 	0.51770 0.73720 0.40030 0.10900
O 	O 	0.61930 0.54630 0.65440 -0.14200
H 	H 	0.61650 0.55650 0.61900 0.13700
H 	H 	0.41380 0.86950 0.06010 0.10300
