data_crystal

_cell_length_a 10.31200
_cell_length_b 13.91900
_cell_length_c 14.17400
_cell_angle_alpha 88.35000
_cell_angle_beta  69.28700
_cell_angle_gamma 74.72700

_symmetry_space_group_name_	'P 1'
_symmetry_space_group_name_H-M	'P 1'

loop_
_symmetry_equiv_pos_as_xyz
  x,y,z

loop_
_atom_site_label
_atom_site_type_symbol
_atom_site_fract_x
_atom_site_fract_y
_atom_site_fract_z
_atom_site_charge
O 	O 	0.55410 0.57330 0.75440 -0.43600
Cd	Cd	0.56096 0.44682 0.36614 1.22100
N 	N 	0.56480 0.29650 0.43820 -0.23800
N 	N 	0.64670 0.17520 0.52500 -0.11000
N 	N 	0.77520 0.35380 0.24200 -0.22500
N 	N 	0.92250 0.26570 0.09710 -0.11700
O 	O 	0.34750 0.50420 0.52270 -0.53900
O 	O 	0.28220 0.42430 0.66060 -0.38600
O 	O 	0.58220 0.42640 0.69130 -0.43700
C 	C 	0.27890 0.44550 0.57660 0.48400
C 	C 	0.19260 0.40250 0.53050 -0.65200
H 	H 	0.14110 0.45570 0.50070 0.21500
H 	H 	0.25910 0.35340 0.47610 0.21100
C 	C 	0.08550 0.35400 0.60240 0.48000
C 	C 	0.11710 0.25150 0.60860 -0.49700
H 	H 	0.20560 0.21130 0.56670 0.20300
C 	C 	0.01960 0.20840 0.67560 0.40500
H 	H 	0.04340 0.13950 0.67890 -0.11200
C 	C 	0.88770 0.26540 0.73790 -0.49600
H 	H 	0.82200 0.23500 0.78210 0.19900
C 	C 	0.85220 0.36900 0.73470 0.48300
C 	C 	0.95220 0.41060 0.66650 -0.53000
H 	H 	0.92910 0.47960 0.66350 0.21000
C 	C 	0.70790 0.43450 0.80060 -0.67200
H 	H 	0.66010 0.39500 0.85190 0.22800
H 	H 	0.72330 0.48740 0.83490 0.23400
C 	C 	0.60980 0.48090 0.74480 0.49900
C 	C 	0.61040 0.27420 0.51380 0.07500
H 	H 	0.61700 0.32180 0.55530 0.00900
C 	C 	0.57070 0.20500 0.39630 0.05600
C 	C 	0.53540 0.18270 0.31480 -0.12400
H 	H 	0.49880 0.23280 0.27880 0.06800
C 	C 	0.55690 0.08350 0.28970 -0.00300
H 	H 	0.53310 0.06640 0.23620 0.02500
C 	C 	0.61310 0.00820 0.34200 -0.04800
H 	H 	0.62790 0.94210 0.32150 0.04500
C 	C 	0.64740 0.02840 0.42290 -0.07000
H 	H 	0.68440 0.97780 0.45830 0.05600
C 	C 	0.62380 0.12890 0.44940 0.04500
C 	C 	0.70890 0.12700 0.59790 -0.12700
H 	H 	0.64890 0.08670 0.63860 0.07000
H 	H 	0.71030 0.17770 0.64270 0.07800
C 	C 	0.95500 0.08760 0.46100 -0.06600
H 	H 	0.92540 0.14670 0.43280 0.06300
C 	C 	0.86080 0.06120 0.54640 0.06700
C 	C 	0.90580 0.97300 0.58380 -0.08100
H 	H 	0.84220 0.95280 0.64040 0.05600
C 	C 	0.78800 0.32200 0.15210 0.08000
H 	H 	0.71220 0.33660 0.12820 0.00100
C 	C 	0.91220 0.31580 0.24690 0.06100
C 	C 	0.96300 0.32540 0.32430 -0.11500
H 	H 	0.90240 0.36060 0.38560 0.06300
C 	C 	0.10610 0.28070 0.30620 -0.01200
H 	H 	0.14320 0.28710 0.35600 0.02300
C 	C 	0.19740 0.22570 0.21510 -0.04000
H 	H 	0.29350 0.19630 0.20590 0.03900
C 	C 	0.14800 0.21420 0.13900 -0.08100
H 	H 	0.20790 0.17710 0.07860 0.06000
C 	C 	0.00490 0.26050 0.15690 0.05000
C 	C 	0.96920 0.21460 0.99700 -0.11200
H 	H 	0.06090 0.22530 0.95510 0.06700
H 	H 	0.89960 0.24370 0.96540 0.06400
C 	C 	0.92130 0.05930 0.08790 -0.06500
H 	H 	0.86940 0.09870 0.14810 0.06300
C 	C 	0.98490 0.10240 0.00110 0.05600
C 	C 	0.06630 0.04170 0.91370 -0.07800
H 	H 	0.11330 0.06930 0.85520 0.05600
O 	O 	0.44590 0.42670 0.24560 -0.43500
Cd	Cd	0.43904 0.55318 0.63386 1.22200
N 	N 	0.43520 0.70350 0.56180 -0.23800
N 	N 	0.35330 0.82480 0.47500 -0.11000
N 	N 	0.22480 0.64620 0.75800 -0.22500
N 	N 	0.07750 0.73430 0.90290 -0.11700
O 	O 	0.65250 0.49580 0.47730 -0.53900
O 	O 	0.71780 0.57570 0.33940 -0.38600
O 	O 	0.41780 0.57360 0.30870 -0.43700
C 	C 	0.72110 0.55450 0.42340 0.48400
C 	C 	0.80740 0.59750 0.46950 -0.65200
H 	H 	0.85890 0.54430 0.49930 0.21500
H 	H 	0.74090 0.64660 0.52390 0.21100
C 	C 	0.91450 0.64600 0.39760 0.48000
C 	C 	0.88290 0.74850 0.39140 -0.49700
H 	H 	0.79440 0.78870 0.43330 0.20300
C 	C 	0.98040 0.79160 0.32440 0.40500
H 	H 	0.95660 0.86050 0.32110 -0.11200
C 	C 	0.11230 0.73460 0.26210 -0.49600
H 	H 	0.17800 0.76500 0.21790 0.19900
C 	C 	0.14780 0.63100 0.26530 0.48300
C 	C 	0.04780 0.58940 0.33350 -0.53000
H 	H 	0.07090 0.52040 0.33650 0.21000
C 	C 	0.29210 0.56550 0.19940 -0.67200
H 	H 	0.33990 0.60500 0.14810 0.22800
H 	H 	0.27670 0.51260 0.16510 0.23400
C 	C 	0.39020 0.51910 0.25520 0.49900
C 	C 	0.38960 0.72580 0.48620 0.07500
H 	H 	0.38300 0.67820 0.44470 0.00900
C 	C 	0.42930 0.79500 0.60370 0.05600
C 	C 	0.46460 0.81730 0.68520 -0.12400
H 	H 	0.50120 0.76720 0.72120 0.06800
C 	C 	0.44310 0.91650 0.71030 -0.00300
H 	H 	0.46690 0.93360 0.76380 0.02500
C 	C 	0.38690 0.99180 0.65800 -0.04800
H 	H 	0.37210 0.05790 0.67850 0.04500
C 	C 	0.35260 0.97160 0.57710 -0.07000
H 	H 	0.31560 0.02220 0.54170 0.05600
C 	C 	0.37620 0.87110 0.55060 0.04500
C 	C 	0.29110 0.87300 0.40210 -0.12700
H 	H 	0.35110 0.91330 0.36140 0.07000
H 	H 	0.28970 0.82230 0.35730 0.07800
C 	C 	0.04500 0.91240 0.53900 -0.06600
H 	H 	0.07460 0.85330 0.56720 0.06300
C 	C 	0.13920 0.93880 0.45360 0.06700
C 	C 	0.09420 0.02700 0.41620 -0.08100
H 	H 	0.15780 0.04720 0.35960 0.05600
C 	C 	0.21200 0.67800 0.84790 0.08000
H 	H 	0.28780 0.66340 0.87180 0.00100
C 	C 	0.08780 0.68420 0.75310 0.06100
C 	C 	0.03700 0.67460 0.67570 -0.11500
H 	H 	0.09760 0.63940 0.61440 0.06300
C 	C 	0.89390 0.71930 0.69380 -0.01200
H 	H 	0.85680 0.71290 0.64400 0.02300
C 	C 	0.80260 0.77430 0.78490 -0.04000
H 	H 	0.70650 0.80370 0.79410 0.03900
C 	C 	0.85200 0.78580 0.86100 -0.08100
H 	H 	0.79210 0.82290 0.92140 0.06000
C 	C 	0.99510 0.73950 0.84310 0.05000
C 	C 	0.03080 0.78540 0.00300 -0.11200
H 	H 	0.93910 0.77470 0.04490 0.06700
H 	H 	0.10040 0.75630 0.03460 0.06400
C 	C 	0.07870 0.94070 0.91210 -0.06500
H 	H 	0.13060 0.90130 0.85190 0.06300
C 	C 	0.01510 0.89760 0.99890 0.05600
C 	C 	0.93370 0.95830 0.08630 -0.07800
H 	H 	0.88670 0.93070 0.14480 0.05600
