data_crystal

_cell_length_a 8.88700
_cell_length_b 32.45600
_cell_length_c 10.65840
_cell_angle_alpha 90.00000
_cell_angle_beta  112.05100
_cell_angle_gamma 90.00000

_symmetry_space_group_name_	'P 1'
_symmetry_space_group_name_H-M	'P 1'

loop_
_symmetry_equiv_pos_as_xyz
  x,y,z

loop_
_atom_site_label
_atom_site_type_symbol
_atom_site_fract_x
_atom_site_fract_y
_atom_site_fract_z
_atom_site_charge
Sc	Sc	0.26990 0.61437 0.25540 2.35000
Sc	Sc	0.77190 0.63740 0.25560 2.35100
O 	O 	0.36000 0.64330 0.12800 -0.65800
O 	O 	0.39900 0.56410 0.23900 -0.65200
O 	O 	0.45700 0.63920 0.42300 -0.59900
O 	O 	0.63500 0.58440 0.23800 -0.62700
O 	O 	0.91800 0.81110 0.78800 -0.64000
O 	O 	0.18200 0.58440 0.38100 -0.67100
O 	O 	0.57600 0.66760 0.10400 -0.67000
C 	C 	0.44000 0.66880 0.08100 0.59900
C 	C 	0.51100 0.55970 0.20200 0.53800
O 	O 	0.95900 0.60780 0.40400 -0.62600
O 	O 	0.84300 0.61320 0.11400 -0.63900
O 	O 	0.13300 0.83480 0.75600 -0.64300
O 	O 	0.69000 0.65740 0.40000 -0.62600
C 	C 	0.61100 0.64500 0.46900 0.48700
O 	O 	0.07300 0.59700 0.07900 -0.57600
C 	C 	0.93600 0.61960 0.80700 0.01800
H 	H 	0.04690 0.61390 0.84250 0.03700
C 	C 	0.86000 0.62950 0.67000 -0.01600
H 	H 	0.91970 0.63040 0.61500 0.05300
C 	C 	0.69500 0.63790 0.61670 -0.12000
C 	C 	0.60500 0.63650 0.69900 -0.00200
H 	H 	0.49470 0.64220 0.66360 0.04900
C 	C 	0.68200 0.62670 0.83600 -0.00200
H 	H 	0.62190 0.62570 0.89100 0.04300
C 	C 	0.84700 0.61820 0.88930 -0.12400
C 	C 	0.92700 0.60940 0.03700 0.46700
C 	C 	0.15500 0.76950 0.85100 -0.12100
C 	C 	0.07520 0.73890 0.89300 -0.04200
H 	H 	0.96410 0.74090 0.87290 0.07100
C 	C 	0.16100 0.70530 0.96600 0.04400
H 	H 	0.10790 0.68490 0.99460 0.01700
C 	C 	0.32700 0.70230 0.99700 -0.16700
C 	C 	0.40740 0.73290 0.95500 0.01600
H 	H 	0.51850 0.73080 0.97530 0.04500
C 	C 	0.32100 0.76640 0.88200 -0.00300
H 	H 	0.37470 0.78690 0.85360 0.04000
C 	C 	0.05100 0.80630 0.79000 0.53300
C 	C 	0.50500 0.52890 0.09600 -0.14000
C 	C 	0.03000 0.53860 0.45700 -0.14100
C 	C 	0.14400 0.50680 0.47700 0.00400
H 	H 	0.24090 0.51200 0.46550 0.04600
C 	C 	0.07000 0.58050 0.41700 0.54900
C 	C 	0.11400 0.46750 0.51600 0.00500
H 	H 	0.18530 0.44590 0.52290 0.03800
C 	C 	0.62800 0.52630 0.04600 0.00900
H 	H 	0.71740 0.54350 0.08390 0.04300
C 	C 	0.62600 0.49980 0.94200 -0.00200
H 	H 	0.70310 0.50060 0.90230 0.05000
Sc	Sc	0.73010 0.11437 0.24460 2.35100
Sc	Sc	0.22810 0.13740 0.24440 2.35200
O 	O 	0.64000 0.14330 0.37200 -0.65700
O 	O 	0.60100 0.06410 0.26100 -0.65100
O 	O 	0.54300 0.13920 0.07700 -0.59900
O 	O 	0.36500 0.08440 0.26200 -0.62600
O 	O 	0.08200 0.31110 0.71200 -0.64300
O 	O 	0.81800 0.08440 0.11900 -0.67100
O 	O 	0.42400 0.16760 0.39600 -0.67000
C 	C 	0.56000 0.16880 0.41900 0.59700
C 	C 	0.48900 0.05970 0.29800 0.53800
O 	O 	0.04100 0.10780 0.09600 -0.62300
O 	O 	0.15700 0.11320 0.38600 -0.63900
O 	O 	0.86700 0.33480 0.74400 -0.64400
O 	O 	0.31000 0.15740 0.10000 -0.62600
C 	C 	0.38900 0.14500 0.03100 0.48900
O 	O 	0.92700 0.09700 0.42100 -0.57900
C 	C 	0.06400 0.11960 0.69300 0.01200
H 	H 	0.95310 0.11390 0.65750 0.04100
C 	C 	0.14000 0.12950 0.83000 -0.01200
H 	H 	0.08030 0.13040 0.88500 0.05000
C 	C 	0.30500 0.13790 0.88330 -0.12300
C 	C 	0.39500 0.13650 0.80100 -0.00000
H 	H 	0.50530 0.14220 0.83640 0.04800
C 	C 	0.31800 0.12670 0.66400 -0.00200
H 	H 	0.37810 0.12570 0.60900 0.04300
C 	C 	0.15300 0.11820 0.61070 -0.12500
C 	C 	0.07300 0.10940 0.46300 0.47200
C 	C 	0.84500 0.26950 0.64900 -0.12600
C 	C 	0.92480 0.23890 0.60700 -0.03200
H 	H 	0.03590 0.24090 0.62710 0.06600
C 	C 	0.83900 0.20530 0.53400 0.03800
H 	H 	0.89210 0.18490 0.50540 0.02000
C 	C 	0.67300 0.20230 0.50300 -0.16300
C 	C 	0.59260 0.23290 0.54500 0.01200
H 	H 	0.48150 0.23080 0.52470 0.04600
C 	C 	0.67900 0.26640 0.61800 0.00200
H 	H 	0.62530 0.28690 0.64640 0.03800
C 	C 	0.94900 0.30630 0.71000 0.53900
C 	C 	0.49500 0.02890 0.40400 -0.14000
C 	C 	0.97000 0.03860 0.04300 -0.14300
C 	C 	0.85600 0.00680 0.02300 0.00000
H 	H 	0.75910 0.01200 0.03450 0.04700
C 	C 	0.93000 0.08050 0.08300 0.54600
C 	C 	0.88600 0.96750 0.98400 0.01200
H 	H 	0.81470 0.94590 0.97710 0.03600
C 	C 	0.37200 0.02630 0.45400 0.01100
H 	H 	0.28260 0.04350 0.41610 0.04300
C 	C 	0.37400 0.99980 0.55800 -0.00300
H 	H 	0.29690 0.00060 0.59770 0.05000
Sc	Sc	0.73010 0.38563 0.74460 2.35100
Sc	Sc	0.22810 0.36260 0.74440 2.35200
O 	O 	0.64000 0.35670 0.87200 -0.65700
O 	O 	0.60100 0.43590 0.76100 -0.65100
O 	O 	0.54300 0.36080 0.57700 -0.59800
O 	O 	0.36500 0.41560 0.76200 -0.62600
O 	O 	0.08200 0.18890 0.21200 -0.64000
O 	O 	0.81800 0.41560 0.61900 -0.67100
O 	O 	0.42400 0.33240 0.89600 -0.67000
C 	C 	0.56000 0.33120 0.91900 0.59900
C 	C 	0.48900 0.44030 0.79800 0.53800
O 	O 	0.04100 0.39220 0.59600 -0.62600
O 	O 	0.15700 0.38680 0.88600 -0.63900
O 	O 	0.86700 0.16520 0.24400 -0.64300
O 	O 	0.31000 0.34260 0.60000 -0.62600
C 	C 	0.38900 0.35500 0.53100 0.48700
O 	O 	0.92700 0.40300 0.92100 -0.57600
C 	C 	0.06400 0.38040 0.19300 0.01800
H 	H 	0.95310 0.38610 0.15750 0.03700
C 	C 	0.14000 0.37050 0.33000 -0.01600
H 	H 	0.08030 0.36960 0.38500 0.05300
C 	C 	0.30500 0.36210 0.38330 -0.12000
C 	C 	0.39500 0.36350 0.30100 -0.00200
H 	H 	0.50530 0.35780 0.33640 0.04900
C 	C 	0.31800 0.37330 0.16400 -0.00200
H 	H 	0.37810 0.37430 0.10900 0.04300
C 	C 	0.15300 0.38180 0.11070 -0.12400
C 	C 	0.07300 0.39060 0.96300 0.46700
C 	C 	0.84500 0.23050 0.14900 -0.12100
C 	C 	0.92480 0.26110 0.10700 -0.04200
H 	H 	0.03590 0.25910 0.12710 0.07100
C 	C 	0.83900 0.29470 0.03400 0.04400
H 	H 	0.89210 0.31510 0.00540 0.01700
C 	C 	0.67300 0.29770 0.00300 -0.16700
C 	C 	0.59260 0.26710 0.04500 0.01600
H 	H 	0.48150 0.26920 0.02470 0.04500
C 	C 	0.67900 0.23360 0.11800 -0.00300
H 	H 	0.62530 0.21310 0.14640 0.04000
C 	C 	0.94900 0.19370 0.21000 0.53300
C 	C 	0.49500 0.47110 0.90400 -0.14000
C 	C 	0.97000 0.46140 0.54300 -0.14100
C 	C 	0.85600 0.49320 0.52300 0.00400
H 	H 	0.75910 0.48800 0.53450 0.04600
C 	C 	0.93000 0.41950 0.58300 0.54900
C 	C 	0.88600 0.53250 0.48400 0.00500
H 	H 	0.81470 0.55410 0.47710 0.03800
C 	C 	0.37200 0.47370 0.95400 0.00900
H 	H 	0.28260 0.45650 0.91610 0.04300
C 	C 	0.37400 0.50020 0.05800 -0.00200
H 	H 	0.29690 0.49940 0.09770 0.05000
Sc	Sc	0.26990 0.88563 0.75540 2.35100
Sc	Sc	0.77190 0.86260 0.75560 2.35200
O 	O 	0.36000 0.85670 0.62800 -0.65700
O 	O 	0.39900 0.93590 0.73900 -0.65100
O 	O 	0.45700 0.86080 0.92300 -0.59900
O 	O 	0.63500 0.91560 0.73800 -0.62600
O 	O 	0.91800 0.68890 0.28800 -0.64300
O 	O 	0.18200 0.91560 0.88100 -0.67100
O 	O 	0.57600 0.83240 0.60400 -0.67000
C 	C 	0.44000 0.83120 0.58100 0.59700
C 	C 	0.51100 0.94030 0.70200 0.53800
O 	O 	0.95900 0.89220 0.90400 -0.62300
O 	O 	0.84300 0.88680 0.61400 -0.63900
O 	O 	0.13300 0.66520 0.25600 -0.64400
O 	O 	0.69000 0.84260 0.90000 -0.62600
C 	C 	0.61100 0.85500 0.96900 0.48900
O 	O 	0.07300 0.90300 0.57900 -0.57900
C 	C 	0.93600 0.88040 0.30700 0.01200
H 	H 	0.04690 0.88610 0.34250 0.04100
C 	C 	0.86000 0.87050 0.17000 -0.01200
H 	H 	0.91970 0.86960 0.11500 0.05000
C 	C 	0.69500 0.86210 0.11670 -0.12300
C 	C 	0.60500 0.86350 0.19900 -0.00000
H 	H 	0.49470 0.85780 0.16360 0.04800
C 	C 	0.68200 0.87330 0.33600 -0.00200
H 	H 	0.62190 0.87430 0.39100 0.04300
C 	C 	0.84700 0.88180 0.38930 -0.12500
C 	C 	0.92700 0.89060 0.53700 0.47200
C 	C 	0.15500 0.73050 0.35100 -0.12600
C 	C 	0.07520 0.76110 0.39300 -0.03200
H 	H 	0.96410 0.75910 0.37290 0.06600
C 	C 	0.16100 0.79470 0.46600 0.03800
H 	H 	0.10790 0.81510 0.49460 0.02000
C 	C 	0.32700 0.79770 0.49700 -0.16300
C 	C 	0.40740 0.76710 0.45500 0.01200
H 	H 	0.51850 0.76920 0.47530 0.04600
C 	C 	0.32100 0.73360 0.38200 0.00200
H 	H 	0.37470 0.71310 0.35360 0.03800
C 	C 	0.05100 0.69370 0.29000 0.53900
C 	C 	0.50500 0.97110 0.59600 -0.14000
C 	C 	0.03000 0.96140 0.95700 -0.14300
C 	C 	0.14400 0.99320 0.97700 0.00000
H 	H 	0.24090 0.98800 0.96550 0.04700
C 	C 	0.07000 0.91950 0.91700 0.54600
C 	C 	0.11400 0.03250 0.01600 0.01200
H 	H 	0.18530 0.05410 0.02290 0.03600
C 	C 	0.62800 0.97370 0.54600 0.01100
H 	H 	0.71740 0.95650 0.58390 0.04300
C 	C 	0.62600 0.00020 0.44200 -0.00300
H 	H 	0.70310 0.99940 0.40230 0.05000
