data_crystal

_cell_length_a 8.85240
_cell_length_b 20.70050
_cell_length_c 34.19400
_cell_angle_alpha 90.00000
_cell_angle_beta  90.00000
_cell_angle_gamma 90.00000

_symmetry_space_group_name_	'P 1'
_symmetry_space_group_name_H-M	'P 1'

loop_
_symmetry_equiv_pos_as_xyz
  x,y,z

loop_
_atom_site_label
_atom_site_type_symbol
_atom_site_fract_x
_atom_site_fract_y
_atom_site_fract_z
_atom_site_charge
O 	O 	0.73910 0.33325 0.67920 -0.62700
O 	O 	0.50550 0.45792 0.61500 -0.63700
O 	O 	0.50430 0.33436 0.65728 -0.65400
C 	C 	0.60460 0.32020 0.68237 0.55000
C 	C 	0.54810 0.28410 0.71752 -0.14200
C 	C 	0.59960 0.23090 0.77811 0.01800
H 	H 	0.66830 0.21790 0.79710 0.03000
C 	C 	0.65150 0.26550 0.74567 -0.00200
H 	H 	0.75320 0.27580 0.74310 0.04800
C 	C 	0.75840 0.59130 0.62551 0.00700
H 	H 	0.84950 0.56900 0.62660 0.04000
O 	O 	0.73910 0.83325 0.17920 -0.62900
O 	O 	0.50550 0.95792 0.11500 -0.63800
O 	O 	0.50430 0.83436 0.15728 -0.65500
C 	C 	0.60460 0.82020 0.18237 0.54900
C 	C 	0.54810 0.78410 0.21752 -0.14400
C 	C 	0.59960 0.73090 0.27811 0.01600
H 	H 	0.66830 0.71790 0.29710 0.03000
C 	C 	0.65150 0.76550 0.24567 -0.00100
H 	H 	0.75320 0.77580 0.24310 0.04700
C 	C 	0.75840 0.09130 0.12551 0.00600
H 	H 	0.84950 0.06900 0.12660 0.04100
O 	O 	0.23910 0.33325 0.17920 -0.62800
O 	O 	0.00550 0.45792 0.11500 -0.63800
O 	O 	0.00430 0.33436 0.15728 -0.65500
C 	C 	0.10460 0.32020 0.18237 0.55000
C 	C 	0.04810 0.28410 0.21752 -0.14700
C 	C 	0.09960 0.23090 0.27811 0.01000
H 	H 	0.16830 0.21790 0.29710 0.03200
C 	C 	0.15150 0.26550 0.24567 0.00300
H 	H 	0.25320 0.27580 0.24310 0.04600
C 	C 	0.25840 0.59130 0.12551 0.00800
H 	H 	0.34950 0.56900 0.12660 0.04000
O 	O 	0.23910 0.83325 0.67920 -0.62700
O 	O 	0.00550 0.95792 0.61500 -0.63800
O 	O 	0.00430 0.83436 0.65728 -0.65400
C 	C 	0.10460 0.82020 0.68237 0.54700
C 	C 	0.04810 0.78410 0.71752 -0.13900
C 	C 	0.09960 0.73090 0.77811 0.02100
H 	H 	0.16830 0.71790 0.79710 0.02900
C 	C 	0.15150 0.76550 0.74567 -0.00500
H 	H 	0.25320 0.77580 0.74310 0.04900
C 	C 	0.25840 0.09130 0.62551 0.01000
H 	H 	0.34950 0.06900 0.62660 0.03900
O 	O 	0.01090 0.41675 0.67920 -0.62800
O 	O 	0.24450 0.29208 0.61500 -0.63800
O 	O 	0.24570 0.41564 0.65728 -0.65500
C 	C 	0.14540 0.42980 0.68237 0.54900
C 	C 	0.20190 0.46590 0.71752 -0.14300
C 	C 	0.15040 0.51910 0.77811 0.01700
H 	H 	0.08170 0.53210 0.79710 0.03000
C 	C 	0.09850 0.48450 0.74567 -0.00200
H 	H 	0.99680 0.47420 0.74310 0.04800
C 	C 	0.99160 0.15870 0.62551 0.00500
H 	H 	0.90050 0.18100 0.62660 0.04100
O 	O 	0.01090 0.91675 0.17920 -0.62700
O 	O 	0.24450 0.79208 0.11500 -0.63800
O 	O 	0.24570 0.91564 0.15728 -0.65600
C 	C 	0.14540 0.92980 0.18237 0.55200
C 	C 	0.20190 0.96590 0.21752 -0.15300
C 	C 	0.15040 0.01910 0.27811 0.00200
H 	H 	0.08170 0.03210 0.29710 0.03400
C 	C 	0.09850 0.98450 0.24567 0.01600
H 	H 	0.99680 0.97420 0.24310 0.03900
C 	C 	0.99160 0.65870 0.12551 0.00300
H 	H 	0.90050 0.68100 0.12660 0.04100
O 	O 	0.51090 0.41675 0.17920 -0.62800
O 	O 	0.74450 0.29208 0.11500 -0.63900
O 	O 	0.74570 0.41564 0.15728 -0.65500
C 	C 	0.64540 0.42980 0.18237 0.54900
C 	C 	0.70190 0.46590 0.21752 -0.14400
C 	C 	0.65040 0.51910 0.27811 0.01600
H 	H 	0.58170 0.53210 0.29710 0.03000
C 	C 	0.59850 0.48450 0.24567 -0.00100
H 	H 	0.49680 0.47420 0.24310 0.04800
C 	C 	0.49160 0.15870 0.12551 0.00700
H 	H 	0.40050 0.18100 0.12660 0.04000
O 	O 	0.51090 0.91675 0.67920 -0.62700
O 	O 	0.74450 0.79208 0.61500 -0.63900
O 	O 	0.74570 0.91564 0.65728 -0.65500
C 	C 	0.64540 0.92980 0.68237 0.54600
C 	C 	0.70190 0.96590 0.71752 -0.13600
C 	C 	0.65040 0.01910 0.77811 0.02600
H 	H 	0.58170 0.03210 0.79710 0.02700
C 	C 	0.59850 0.98450 0.74567 -0.01100
H 	H 	0.49680 0.97420 0.74310 0.05100
C 	C 	0.49160 0.65870 0.62551 0.00700
H 	H 	0.40050 0.68100 0.62660 0.04000
O 	O 	0.01090 0.33325 0.07080 -0.62800
O 	O 	0.24450 0.45792 0.13500 -0.63800
O 	O 	0.24570 0.33436 0.09272 -0.65500
C 	C 	0.14540 0.32020 0.06763 0.54900
C 	C 	0.20190 0.28410 0.03248 -0.14400
C 	C 	0.15040 0.23090 0.97189 0.01600
H 	H 	0.08170 0.21790 0.95290 0.03000
C 	C 	0.09850 0.26550 0.00433 -0.00100
H 	H 	0.99680 0.27580 0.00690 0.04800
C 	C 	0.99160 0.59130 0.12449 0.00600
H 	H 	0.90050 0.56900 0.12340 0.04000
O 	O 	0.01090 0.83325 0.57080 -0.62700
O 	O 	0.24450 0.95792 0.63500 -0.63900
O 	O 	0.24570 0.83436 0.59272 -0.65500
C 	C 	0.14540 0.82020 0.56763 0.55000
C 	C 	0.20190 0.78410 0.53248 -0.14600
C 	C 	0.15040 0.73090 0.47189 0.01300
H 	H 	0.08170 0.71790 0.45290 0.03200
C 	C 	0.09850 0.76550 0.50433 0.00400
H 	H 	0.99680 0.77580 0.50690 0.04400
C 	C 	0.99160 0.09130 0.62449 0.01200
H 	H 	0.90050 0.06900 0.62340 0.03900
O 	O 	0.51090 0.33325 0.57080 -0.62800
O 	O 	0.74450 0.45792 0.63500 -0.63900
O 	O 	0.74570 0.33436 0.59272 -0.65500
C 	C 	0.64540 0.32020 0.56763 0.54800
C 	C 	0.70190 0.28410 0.53248 -0.14100
C 	C 	0.65040 0.23090 0.47189 0.01900
H 	H 	0.58170 0.21790 0.45290 0.03000
C 	C 	0.59850 0.26550 0.50433 -0.00300
H 	H 	0.49680 0.27580 0.50690 0.04900
C 	C 	0.49160 0.59130 0.62449 0.00700
H 	H 	0.40050 0.56900 0.62340 0.04000
O 	O 	0.51090 0.83325 0.07080 -0.62800
O 	O 	0.74450 0.95792 0.13500 -0.64000
O 	O 	0.74570 0.83436 0.09272 -0.65600
C 	C 	0.64540 0.82020 0.06763 0.54900
C 	C 	0.70190 0.78410 0.03248 -0.14300
C 	C 	0.65040 0.73090 0.97189 0.01700
H 	H 	0.58170 0.71790 0.95290 0.03000
C 	C 	0.59850 0.76550 0.00433 -0.00200
H 	H 	0.49680 0.77580 0.00690 0.04800
C 	C 	0.49160 0.09130 0.12449 0.00600
H 	H 	0.40050 0.06900 0.12340 0.04000
O 	O 	0.73910 0.41675 0.07080 -0.62800
O 	O 	0.50550 0.29208 0.13500 -0.63800
O 	O 	0.50430 0.41564 0.09272 -0.65500
C 	C 	0.60460 0.42980 0.06763 0.54900
C 	C 	0.54810 0.46590 0.03248 -0.14400
C 	C 	0.59960 0.51910 0.97189 0.01700
H 	H 	0.66830 0.53210 0.95290 0.03000
C 	C 	0.65150 0.48450 0.00433 -0.00200
H 	H 	0.75320 0.47420 0.00690 0.04800
C 	C 	0.75840 0.15870 0.12449 0.00800
H 	H 	0.84950 0.18100 0.12340 0.04000
O 	O 	0.73910 0.91675 0.57080 -0.62900
O 	O 	0.50550 0.79208 0.63500 -0.63900
O 	O 	0.50430 0.91564 0.59272 -0.65500
C 	C 	0.60460 0.92980 0.56763 0.54900
C 	C 	0.54810 0.96590 0.53248 -0.14400
C 	C 	0.59960 0.01910 0.47189 0.01800
H 	H 	0.66830 0.03210 0.45290 0.03000
C 	C 	0.65150 0.98450 0.50433 -0.00200
H 	H 	0.75320 0.97420 0.50690 0.04700
C 	C 	0.75840 0.65870 0.62449 0.00700
H 	H 	0.84950 0.68100 0.62340 0.04000
O 	O 	0.23910 0.41675 0.57080 -0.62800
O 	O 	0.00550 0.29208 0.63500 -0.63900
O 	O 	0.00430 0.41564 0.59272 -0.65500
C 	C 	0.10460 0.42980 0.56763 0.54900
C 	C 	0.04810 0.46590 0.53248 -0.14300
C 	C 	0.09960 0.51910 0.47189 0.01600
H 	H 	0.16830 0.53210 0.45290 0.03000
C 	C 	0.15150 0.48450 0.50433 -0.00100
H 	H 	0.25320 0.47420 0.50690 0.04800
C 	C 	0.25840 0.15870 0.62449 0.00500
H 	H 	0.34950 0.18100 0.62340 0.04100
O 	O 	0.23910 0.91675 0.07080 -0.62700
O 	O 	0.00550 0.79208 0.13500 -0.63700
O 	O 	0.00430 0.91564 0.09272 -0.65300
C 	C 	0.10460 0.92980 0.06763 0.54700
C 	C 	0.04810 0.96590 0.03248 -0.13900
C 	C 	0.09960 0.01910 0.97189 0.00600
H 	H 	0.16830 0.03210 0.95290 0.03300
C 	C 	0.15150 0.98450 0.00433 0.00300
H 	H 	0.25320 0.97420 0.00690 0.04600
C 	C 	0.25840 0.65870 0.12449 0.00600
H 	H 	0.34950 0.68100 0.12340 0.04100
O 	O 	0.26090 0.66675 0.32080 -0.62800
O 	O 	0.49450 0.54208 0.38500 -0.63800
O 	O 	0.49570 0.66564 0.34272 -0.65500
C 	C 	0.39540 0.67980 0.31763 0.54900
C 	C 	0.45190 0.71590 0.28248 -0.14300
C 	C 	0.40040 0.76910 0.22189 0.01700
H 	H 	0.33170 0.78210 0.20290 0.03000
C 	C 	0.34850 0.73450 0.25433 -0.00200
H 	H 	0.24680 0.72420 0.25690 0.04800
C 	C 	0.24160 0.40870 0.37449 0.00700
H 	H 	0.15050 0.43100 0.37340 0.04000
O 	O 	0.26090 0.16675 0.82080 -0.62900
O 	O 	0.49450 0.04208 0.88500 -0.63800
O 	O 	0.49570 0.16564 0.84272 -0.65500
C 	C 	0.39540 0.17980 0.81763 0.54900
C 	C 	0.45190 0.21590 0.78248 -0.14400
C 	C 	0.40040 0.26910 0.72189 0.01600
H 	H 	0.33170 0.28210 0.70290 0.03000
C 	C 	0.34850 0.23450 0.75433 -0.00100
H 	H 	0.24680 0.22420 0.75690 0.04700
C 	C 	0.24160 0.90870 0.87449 0.00600
H 	H 	0.15050 0.93100 0.87340 0.04100
O 	O 	0.76090 0.66675 0.82080 -0.62800
O 	O 	0.99450 0.54208 0.88500 -0.63800
O 	O 	0.99570 0.66564 0.84272 -0.65500
C 	C 	0.89540 0.67980 0.81763 0.55000
C 	C 	0.95190 0.71590 0.78248 -0.14700
C 	C 	0.90040 0.76910 0.72189 0.01000
H 	H 	0.83170 0.78210 0.70290 0.03200
C 	C 	0.84850 0.73450 0.75433 0.00300
H 	H 	0.74680 0.72420 0.75690 0.04600
C 	C 	0.74160 0.40870 0.87449 0.00800
H 	H 	0.65050 0.43100 0.87340 0.04000
O 	O 	0.76090 0.16675 0.32080 -0.62700
O 	O 	0.99450 0.04208 0.38500 -0.63800
O 	O 	0.99570 0.16564 0.34272 -0.65400
C 	C 	0.89540 0.17980 0.31763 0.54700
C 	C 	0.95190 0.21590 0.28248 -0.13900
C 	C 	0.90040 0.26910 0.22189 0.02100
H 	H 	0.83170 0.28210 0.20290 0.02900
C 	C 	0.84850 0.23450 0.25433 -0.00500
H 	H 	0.74680 0.22420 0.25690 0.04900
C 	C 	0.74160 0.90870 0.37449 0.01000
H 	H 	0.65050 0.93100 0.37340 0.03900
O 	O 	0.98910 0.58325 0.32080 -0.62800
O 	O 	0.75550 0.70792 0.38500 -0.63800
O 	O 	0.75430 0.58436 0.34272 -0.65500
C 	C 	0.85460 0.57020 0.31763 0.54900
C 	C 	0.79810 0.53410 0.28248 -0.14300
C 	C 	0.84960 0.48090 0.22189 0.01700
H 	H 	0.91830 0.46790 0.20290 0.03000
C 	C 	0.90150 0.51550 0.25433 -0.00200
H 	H 	0.00320 0.52580 0.25690 0.04800
C 	C 	0.00840 0.84130 0.37449 0.00500
H 	H 	0.09950 0.81900 0.37340 0.04100
O 	O 	0.98910 0.08325 0.82080 -0.62700
O 	O 	0.75550 0.20792 0.88500 -0.63800
O 	O 	0.75430 0.08436 0.84272 -0.65600
C 	C 	0.85460 0.07020 0.81763 0.55200
C 	C 	0.79810 0.03410 0.78248 -0.15300
C 	C 	0.84960 0.98090 0.72189 0.00200
H 	H 	0.91830 0.96790 0.70290 0.03400
C 	C 	0.90150 0.01550 0.75433 0.01600
H 	H 	0.00320 0.02580 0.75690 0.03900
C 	C 	0.00840 0.34130 0.87449 0.00300
H 	H 	0.09950 0.31900 0.87340 0.04100
O 	O 	0.48910 0.58325 0.82080 -0.62800
O 	O 	0.25550 0.70792 0.88500 -0.63900
O 	O 	0.25430 0.58436 0.84272 -0.65500
C 	C 	0.35460 0.57020 0.81763 0.54900
C 	C 	0.29810 0.53410 0.78248 -0.14400
C 	C 	0.34960 0.48090 0.72189 0.01600
H 	H 	0.41830 0.46790 0.70290 0.03000
C 	C 	0.40150 0.51550 0.75433 -0.00100
H 	H 	0.50320 0.52580 0.75690 0.04800
C 	C 	0.50840 0.84130 0.87449 0.00700
H 	H 	0.59950 0.81900 0.87340 0.04000
O 	O 	0.48910 0.08325 0.32080 -0.62700
O 	O 	0.25550 0.20792 0.38500 -0.63900
O 	O 	0.25430 0.08436 0.34272 -0.65500
C 	C 	0.35460 0.07020 0.31763 0.54600
C 	C 	0.29810 0.03410 0.28248 -0.13600
C 	C 	0.34960 0.98090 0.22189 0.02600
H 	H 	0.41830 0.96790 0.20290 0.02700
C 	C 	0.40150 0.01550 0.25433 -0.01100
H 	H 	0.50320 0.02580 0.25690 0.05100
C 	C 	0.50840 0.34130 0.37449 0.00700
H 	H 	0.59950 0.31900 0.37340 0.04000
O 	O 	0.98910 0.66675 0.92920 -0.62800
O 	O 	0.75550 0.54208 0.86500 -0.63800
O 	O 	0.75430 0.66564 0.90728 -0.65500
C 	C 	0.85460 0.67980 0.93237 0.54900
C 	C 	0.79810 0.71590 0.96752 -0.14400
C 	C 	0.84960 0.76910 0.02811 0.01600
H 	H 	0.91830 0.78210 0.04710 0.03000
C 	C 	0.90150 0.73450 0.99567 -0.00100
H 	H 	0.00320 0.72420 0.99310 0.04800
C 	C 	0.00840 0.40870 0.87551 0.00600
H 	H 	0.09950 0.43100 0.87660 0.04000
O 	O 	0.98910 0.16675 0.42920 -0.62700
O 	O 	0.75550 0.04208 0.36500 -0.63900
O 	O 	0.75430 0.16564 0.40728 -0.65500
C 	C 	0.85460 0.17980 0.43237 0.55000
C 	C 	0.79810 0.21590 0.46752 -0.14600
C 	C 	0.84960 0.26910 0.52811 0.01300
H 	H 	0.91830 0.28210 0.54710 0.03200
C 	C 	0.90150 0.23450 0.49567 0.00400
H 	H 	0.00320 0.22420 0.49310 0.04400
C 	C 	0.00840 0.90870 0.37551 0.01200
H 	H 	0.09950 0.93100 0.37660 0.03900
O 	O 	0.48910 0.66675 0.42920 -0.62800
O 	O 	0.25550 0.54208 0.36500 -0.63900
O 	O 	0.25430 0.66564 0.40728 -0.65500
C 	C 	0.35460 0.67980 0.43237 0.54800
C 	C 	0.29810 0.71590 0.46752 -0.14100
C 	C 	0.34960 0.76910 0.52811 0.01900
H 	H 	0.41830 0.78210 0.54710 0.03000
C 	C 	0.40150 0.73450 0.49567 -0.00300
H 	H 	0.50320 0.72420 0.49310 0.04900
C 	C 	0.50840 0.40870 0.37551 0.00700
H 	H 	0.59950 0.43100 0.37660 0.04000
O 	O 	0.48910 0.16675 0.92920 -0.62800
O 	O 	0.25550 0.04208 0.86500 -0.64000
O 	O 	0.25430 0.16564 0.90728 -0.65600
C 	C 	0.35460 0.17980 0.93237 0.54900
C 	C 	0.29810 0.21590 0.96752 -0.14300
C 	C 	0.34960 0.26910 0.02811 0.01700
H 	H 	0.41830 0.28210 0.04710 0.03000
C 	C 	0.40150 0.23450 0.99567 -0.00200
H 	H 	0.50320 0.22420 0.99310 0.04800
C 	C 	0.50840 0.90870 0.87551 0.00600
H 	H 	0.59950 0.93100 0.87660 0.04000
O 	O 	0.26090 0.58325 0.92920 -0.62800
O 	O 	0.49450 0.70792 0.86500 -0.63800
O 	O 	0.49570 0.58436 0.90728 -0.65500
C 	C 	0.39540 0.57020 0.93237 0.54900
C 	C 	0.45190 0.53410 0.96752 -0.14400
C 	C 	0.40040 0.48090 0.02811 0.01700
H 	H 	0.33170 0.46790 0.04710 0.03000
C 	C 	0.34850 0.51550 0.99567 -0.00200
H 	H 	0.24680 0.52580 0.99310 0.04800
C 	C 	0.24160 0.84130 0.87551 0.00800
H 	H 	0.15050 0.81900 0.87660 0.04000
O 	O 	0.26090 0.08325 0.42920 -0.62900
O 	O 	0.49450 0.20792 0.36500 -0.63900
O 	O 	0.49570 0.08436 0.40728 -0.65500
C 	C 	0.39540 0.07020 0.43237 0.54900
C 	C 	0.45190 0.03410 0.46752 -0.14400
C 	C 	0.40040 0.98090 0.52811 0.01800
H 	H 	0.33170 0.96790 0.54710 0.03000
C 	C 	0.34850 0.01550 0.49567 -0.00200
H 	H 	0.24680 0.02580 0.49310 0.04700
C 	C 	0.24160 0.34130 0.37551 0.00700
H 	H 	0.15050 0.31900 0.37660 0.04000
O 	O 	0.76090 0.58325 0.42920 -0.62800
O 	O 	0.99450 0.70792 0.36500 -0.63900
O 	O 	0.99570 0.58436 0.40728 -0.65500
C 	C 	0.89540 0.57020 0.43237 0.54900
C 	C 	0.95190 0.53410 0.46752 -0.14300
C 	C 	0.90040 0.48090 0.52811 0.01600
H 	H 	0.83170 0.46790 0.54710 0.03000
C 	C 	0.84850 0.51550 0.49567 -0.00100
H 	H 	0.74680 0.52580 0.49310 0.04800
C 	C 	0.74160 0.84130 0.37551 0.00500
H 	H 	0.65050 0.81900 0.37660 0.04100
O 	O 	0.76090 0.08325 0.92920 -0.62700
O 	O 	0.99450 0.20792 0.86500 -0.63700
O 	O 	0.99570 0.08436 0.90728 -0.65300
C 	C 	0.89540 0.07020 0.93237 0.54700
C 	C 	0.95190 0.03410 0.96752 -0.13900
C 	C 	0.90040 0.98090 0.02811 0.00600
H 	H 	0.83170 0.96790 0.04710 0.03300
C 	C 	0.84850 0.01550 0.99567 0.00300
H 	H 	0.74680 0.02580 0.99310 0.04600
C 	C 	0.74160 0.34130 0.87551 0.00600
H 	H 	0.65050 0.31900 0.87660 0.04100
Sc	Sc	0.37500 0.37500 0.61411 2.35100
Sc	Sc	0.37500 0.87500 0.11411 2.35100
Sc	Sc	0.87500 0.37500 0.11411 2.35000
Sc	Sc	0.87500 0.87500 0.61411 2.35000
Sc	Sc	0.37500 0.37500 0.13589 2.35100
Sc	Sc	0.37500 0.87500 0.63589 2.35100
Sc	Sc	0.87500 0.37500 0.63589 2.35000
Sc	Sc	0.87500 0.87500 0.13589 2.35000
Sc	Sc	0.62500 0.62500 0.38589 2.35100
Sc	Sc	0.62500 0.12500 0.88589 2.35100
Sc	Sc	0.12500 0.62500 0.88589 2.35000
Sc	Sc	0.12500 0.12500 0.38589 2.35000
Sc	Sc	0.62500 0.62500 0.86411 2.35100
Sc	Sc	0.62500 0.12500 0.36411 2.35100
Sc	Sc	0.12500 0.62500 0.36411 2.35000
Sc	Sc	0.12500 0.12500 0.86411 2.35000
C 	C 	0.62500 0.55790 0.62500 -0.14200
C 	C 	0.62500 0.48580 0.62500 0.54400
C 	C 	0.62500 0.05790 0.12500 -0.14200
C 	C 	0.62500 0.98580 0.12500 0.54300
C 	C 	0.12500 0.19210 0.62500 -0.14200
C 	C 	0.12500 0.26420 0.62500 0.54300
C 	C 	0.12500 0.69210 0.12500 -0.13900
C 	C 	0.12500 0.76420 0.12500 0.54300
C 	C 	0.62500 0.69210 0.62500 -0.14300
C 	C 	0.62500 0.76420 0.62500 0.54400
C 	C 	0.12500 0.55790 0.12500 -0.14100
C 	C 	0.12500 0.48580 0.12500 0.54300
C 	C 	0.12500 0.05790 0.62500 -0.14900
C 	C 	0.12500 0.98580 0.62500 0.54700
C 	C 	0.62500 0.19210 0.12500 -0.14300
C 	C 	0.62500 0.26420 0.12500 0.54400
C 	C 	0.37500 0.44210 0.37500 -0.14200
C 	C 	0.37500 0.51420 0.37500 0.54400
C 	C 	0.37500 0.94210 0.87500 -0.14200
C 	C 	0.37500 0.01420 0.87500 0.54300
C 	C 	0.87500 0.80790 0.37500 -0.14200
C 	C 	0.87500 0.73580 0.37500 0.54300
C 	C 	0.87500 0.30790 0.87500 -0.13900
C 	C 	0.87500 0.23580 0.87500 0.54300
C 	C 	0.87500 0.44210 0.87500 -0.14100
C 	C 	0.87500 0.51420 0.87500 0.54300
C 	C 	0.87500 0.94210 0.37500 -0.14900
C 	C 	0.87500 0.01420 0.37500 0.54700
C 	C 	0.37500 0.80790 0.87500 -0.14300
C 	C 	0.37500 0.73580 0.87500 0.54400
C 	C 	0.37500 0.30790 0.37500 -0.14300
C 	C 	0.37500 0.23580 0.37500 0.54400
