data_crystal

_cell_length_a 8.86390
_cell_length_b 20.65900
_cell_length_c 34.06100
_cell_angle_alpha 90.00000
_cell_angle_beta  90.00000
_cell_angle_gamma 90.00000

_symmetry_space_group_name_	'P 1'
_symmetry_space_group_name_H-M	'P 1'

loop_
_symmetry_equiv_pos_as_xyz
  x,y,z

loop_
_atom_site_label
_atom_site_type_symbol
_atom_site_fract_x
_atom_site_fract_y
_atom_site_fract_z
_atom_site_charge
O 	O 	0.73920 0.33332 0.67937 -0.62300
O 	O 	0.50650 0.45795 0.61500 -0.64600
O 	O 	0.50520 0.33500 0.65711 -0.66200
C 	C 	0.60330 0.32030 0.68237 0.54800
C 	C 	0.54710 0.28440 0.71753 -0.14600
C 	C 	0.59970 0.23230 0.77878 0.01700
H 	H 	0.66830 0.22000 0.79800 0.03000
C 	C 	0.64970 0.26780 0.74641 -0.00000
H 	H 	0.75030 0.28010 0.74430 0.04800
C 	C 	0.75950 0.59100 0.62523 0.00700
H 	H 	0.85010 0.56830 0.62570 0.04000
O 	O 	0.73920 0.83332 0.17937 -0.62300
O 	O 	0.50650 0.95795 0.11500 -0.64500
O 	O 	0.50520 0.83500 0.15711 -0.66100
C 	C 	0.60330 0.82030 0.18237 0.54900
C 	C 	0.54710 0.78440 0.21753 -0.14700
C 	C 	0.59970 0.73230 0.27878 0.01700
H 	H 	0.66830 0.72000 0.29800 0.03000
C 	C 	0.64970 0.76780 0.24641 0.00000
H 	H 	0.75030 0.78010 0.24430 0.04700
C 	C 	0.75950 0.09100 0.12523 0.00700
H 	H 	0.85010 0.06830 0.12570 0.04000
O 	O 	0.23920 0.33332 0.17937 -0.62200
O 	O 	0.00650 0.45795 0.11500 -0.64400
O 	O 	0.00520 0.33500 0.15711 -0.66100
C 	C 	0.10330 0.32030 0.18237 0.55000
C 	C 	0.04710 0.28440 0.21753 -0.15000
C 	C 	0.09970 0.23230 0.27878 0.01100
H 	H 	0.16830 0.22000 0.29800 0.03100
C 	C 	0.14970 0.26780 0.24641 0.00400
H 	H 	0.25030 0.28010 0.24430 0.04600
C 	C 	0.25950 0.59100 0.12523 0.00700
H 	H 	0.35010 0.56830 0.12570 0.04000
O 	O 	0.23920 0.83332 0.67937 -0.62100
O 	O 	0.00650 0.95795 0.61500 -0.64400
O 	O 	0.00520 0.83500 0.65711 -0.65900
C 	C 	0.10330 0.82030 0.68237 0.54700
C 	C 	0.04710 0.78440 0.71753 -0.14100
C 	C 	0.09970 0.73230 0.77878 0.02100
H 	H 	0.16830 0.72000 0.79800 0.02800
C 	C 	0.14970 0.76780 0.74641 -0.00400
H 	H 	0.25030 0.78010 0.74430 0.04900
C 	C 	0.25950 0.09100 0.62523 0.01000
H 	H 	0.35010 0.06830 0.62570 0.03800
O 	O 	0.01080 0.41668 0.67937 -0.62200
O 	O 	0.24350 0.29205 0.61500 -0.64500
O 	O 	0.24480 0.41500 0.65711 -0.66100
C 	C 	0.14670 0.42970 0.68237 0.54900
C 	C 	0.20290 0.46560 0.71753 -0.14600
C 	C 	0.15030 0.51770 0.77878 0.01800
H 	H 	0.08170 0.53000 0.79800 0.02900
C 	C 	0.10030 0.48220 0.74641 -0.00100
H 	H 	0.99970 0.46990 0.74430 0.04800
C 	C 	0.99050 0.15900 0.62523 0.00600
H 	H 	0.89990 0.18170 0.62570 0.04000
O 	O 	0.01080 0.91668 0.17937 -0.62100
O 	O 	0.24350 0.79205 0.11500 -0.64400
O 	O 	0.24480 0.91500 0.15711 -0.66100
C 	C 	0.14670 0.92970 0.18237 0.55200
C 	C 	0.20290 0.96560 0.21753 -0.15600
C 	C 	0.15030 0.01770 0.27878 0.00300
H 	H 	0.08170 0.03000 0.29800 0.03300
C 	C 	0.10030 0.98220 0.24641 0.01800
H 	H 	0.99970 0.96990 0.24430 0.03900
C 	C 	0.99050 0.65900 0.12523 0.00300
H 	H 	0.89990 0.68170 0.12570 0.04000
O 	O 	0.51080 0.41668 0.17937 -0.62200
O 	O 	0.74350 0.29205 0.11500 -0.64500
O 	O 	0.74480 0.41500 0.15711 -0.66100
C 	C 	0.64670 0.42970 0.18237 0.54900
C 	C 	0.70290 0.46560 0.21753 -0.14700
C 	C 	0.65030 0.51770 0.27878 0.01700
H 	H 	0.58170 0.53000 0.29800 0.03000
C 	C 	0.60030 0.48220 0.24641 0.00000
H 	H 	0.49970 0.46990 0.24430 0.04800
C 	C 	0.49050 0.15900 0.12523 0.00700
H 	H 	0.39990 0.18170 0.12570 0.04000
O 	O 	0.51080 0.91668 0.67937 -0.62100
O 	O 	0.74350 0.79205 0.61500 -0.64600
O 	O 	0.74480 0.91500 0.65711 -0.66100
C 	C 	0.64670 0.92970 0.68237 0.54600
C 	C 	0.70290 0.96560 0.71753 -0.13800
C 	C 	0.65030 0.01770 0.77878 0.02700
H 	H 	0.58170 0.03000 0.79800 0.02600
C 	C 	0.60030 0.98220 0.74641 -0.01000
H 	H 	0.49970 0.96990 0.74430 0.05100
C 	C 	0.49050 0.65900 0.62523 0.00700
H 	H 	0.39990 0.68170 0.62570 0.04000
O 	O 	0.01080 0.33332 0.07063 -0.62200
O 	O 	0.24350 0.45795 0.13500 -0.64500
O 	O 	0.24480 0.33500 0.09289 -0.66100
C 	C 	0.14670 0.32030 0.06763 0.54900
C 	C 	0.20290 0.28440 0.03247 -0.14700
C 	C 	0.15030 0.23230 0.97122 0.01600
H 	H 	0.08170 0.22000 0.95200 0.02900
C 	C 	0.10030 0.26780 0.00359 0.00000
H 	H 	0.99970 0.28010 0.00570 0.04800
C 	C 	0.99050 0.59100 0.12477 0.00600
H 	H 	0.89990 0.56830 0.12430 0.04000
O 	O 	0.01080 0.83332 0.57063 -0.62100
O 	O 	0.24350 0.95795 0.63500 -0.64500
O 	O 	0.24480 0.83500 0.59289 -0.66100
C 	C 	0.14670 0.82030 0.56763 0.55000
C 	C 	0.20290 0.78440 0.53247 -0.14900
C 	C 	0.15030 0.73230 0.47122 0.01300
H 	H 	0.08170 0.72000 0.45200 0.03100
C 	C 	0.10030 0.76780 0.50359 0.00600
H 	H 	0.99970 0.78010 0.50570 0.04400
C 	C 	0.99050 0.09100 0.62477 0.01200
H 	H 	0.89990 0.06830 0.62430 0.03800
O 	O 	0.51080 0.33332 0.57063 -0.62200
O 	O 	0.74350 0.45795 0.63500 -0.64500
O 	O 	0.74480 0.33500 0.59289 -0.66000
C 	C 	0.64670 0.32030 0.56763 0.54800
C 	C 	0.70290 0.28440 0.53247 -0.14400
C 	C 	0.65030 0.23230 0.47122 0.01900
H 	H 	0.58170 0.22000 0.45200 0.02900
C 	C 	0.60030 0.26780 0.50359 -0.00200
H 	H 	0.49970 0.28010 0.50570 0.04800
C 	C 	0.49050 0.59100 0.62477 0.00700
H 	H 	0.39990 0.56830 0.62430 0.04000
O 	O 	0.51080 0.83332 0.07063 -0.62200
O 	O 	0.74350 0.95795 0.13500 -0.64600
O 	O 	0.74480 0.83500 0.09289 -0.66200
C 	C 	0.64670 0.82030 0.06763 0.54900
C 	C 	0.70290 0.78440 0.03247 -0.14600
C 	C 	0.65030 0.73230 0.97122 0.01800
H 	H 	0.58170 0.72000 0.95200 0.02900
C 	C 	0.60030 0.76780 0.00359 -0.00100
H 	H 	0.49970 0.78010 0.00570 0.04800
C 	C 	0.49050 0.09100 0.12477 0.00700
H 	H 	0.39990 0.06830 0.12430 0.04000
O 	O 	0.73920 0.41668 0.07063 -0.62200
O 	O 	0.50650 0.29205 0.13500 -0.64500
O 	O 	0.50520 0.41500 0.09289 -0.66100
C 	C 	0.60330 0.42970 0.06763 0.54900
C 	C 	0.54710 0.46560 0.03247 -0.14700
C 	C 	0.59970 0.51770 0.97122 0.01700
H 	H 	0.66830 0.53000 0.95200 0.03000
C 	C 	0.64970 0.48220 0.00359 -0.00000
H 	H 	0.75030 0.46990 0.00570 0.04800
C 	C 	0.75950 0.15900 0.12477 0.00800
H 	H 	0.85010 0.18170 0.12430 0.04000
O 	O 	0.73920 0.91668 0.57063 -0.62300
O 	O 	0.50650 0.79205 0.63500 -0.64500
O 	O 	0.50520 0.91500 0.59289 -0.66100
C 	C 	0.60330 0.92970 0.56763 0.54900
C 	C 	0.54710 0.96560 0.53247 -0.14700
C 	C 	0.59970 0.01770 0.47122 0.01800
H 	H 	0.66830 0.03000 0.45200 0.03000
C 	C 	0.64970 0.98220 0.50359 -0.00100
H 	H 	0.75030 0.96990 0.50570 0.04700
C 	C 	0.75950 0.65900 0.62477 0.00700
H 	H 	0.85010 0.68170 0.62430 0.03900
O 	O 	0.23920 0.41668 0.57063 -0.62200
O 	O 	0.00650 0.29205 0.63500 -0.64500
O 	O 	0.00520 0.41500 0.59289 -0.66100
C 	C 	0.10330 0.42970 0.56763 0.54900
C 	C 	0.04710 0.46560 0.53247 -0.14600
C 	C 	0.09970 0.51770 0.47122 0.01700
H 	H 	0.16830 0.53000 0.45200 0.03000
C 	C 	0.14970 0.48220 0.50359 -0.00000
H 	H 	0.25030 0.46990 0.50570 0.04800
C 	C 	0.25950 0.15900 0.62477 0.00500
H 	H 	0.35010 0.18170 0.62430 0.04000
O 	O 	0.23920 0.91668 0.07063 -0.62100
O 	O 	0.00650 0.79205 0.13500 -0.64300
O 	O 	0.00520 0.91500 0.09289 -0.65900
C 	C 	0.10330 0.92970 0.06763 0.54700
C 	C 	0.04710 0.96560 0.03247 -0.14100
C 	C 	0.09970 0.01770 0.97122 0.00700
H 	H 	0.16830 0.03000 0.95200 0.03200
C 	C 	0.14970 0.98220 0.00359 0.00500
H 	H 	0.25030 0.96990 0.00570 0.04600
C 	C 	0.25950 0.65900 0.12477 0.00600
H 	H 	0.35010 0.68170 0.12430 0.04000
O 	O 	0.26080 0.66668 0.32063 -0.62200
O 	O 	0.49350 0.54205 0.38500 -0.64500
O 	O 	0.49480 0.66500 0.34289 -0.66100
C 	C 	0.39670 0.67970 0.31763 0.54900
C 	C 	0.45290 0.71560 0.28247 -0.14600
C 	C 	0.40030 0.76770 0.22122 0.01700
H 	H 	0.33170 0.78000 0.20200 0.03000
C 	C 	0.35030 0.73220 0.25359 -0.00000
H 	H 	0.24970 0.71990 0.25570 0.04800
C 	C 	0.24050 0.40900 0.37477 0.00700
H 	H 	0.14990 0.43170 0.37430 0.04000
O 	O 	0.26080 0.16668 0.82063 -0.62300
O 	O 	0.49350 0.04205 0.88500 -0.64500
O 	O 	0.49480 0.16500 0.84289 -0.66100
C 	C 	0.39670 0.17970 0.81763 0.54900
C 	C 	0.45290 0.21560 0.78247 -0.14700
C 	C 	0.40030 0.26770 0.72122 0.01700
H 	H 	0.33170 0.28000 0.70200 0.03000
C 	C 	0.35030 0.23220 0.75359 0.00000
H 	H 	0.24970 0.21990 0.75570 0.04700
C 	C 	0.24050 0.90900 0.87477 0.00700
H 	H 	0.14990 0.93170 0.87430 0.04000
O 	O 	0.76080 0.66668 0.82063 -0.62200
O 	O 	0.99350 0.54205 0.88500 -0.64400
O 	O 	0.99480 0.66500 0.84289 -0.66100
C 	C 	0.89670 0.67970 0.81763 0.55000
C 	C 	0.95290 0.71560 0.78247 -0.15000
C 	C 	0.90030 0.76770 0.72122 0.01100
H 	H 	0.83170 0.78000 0.70200 0.03100
C 	C 	0.85030 0.73220 0.75359 0.00400
H 	H 	0.74970 0.71990 0.75570 0.04600
C 	C 	0.74050 0.40900 0.87477 0.00700
H 	H 	0.64990 0.43170 0.87430 0.04000
O 	O 	0.76080 0.16668 0.32063 -0.62100
O 	O 	0.99350 0.04205 0.38500 -0.64400
O 	O 	0.99480 0.16500 0.34289 -0.65900
C 	C 	0.89670 0.17970 0.31763 0.54700
C 	C 	0.95290 0.21560 0.28247 -0.14100
C 	C 	0.90030 0.26770 0.22122 0.02100
H 	H 	0.83170 0.28000 0.20200 0.02800
C 	C 	0.85030 0.23220 0.25359 -0.00400
H 	H 	0.74970 0.21990 0.25570 0.04900
C 	C 	0.74050 0.90900 0.37477 0.01000
H 	H 	0.64990 0.93170 0.37430 0.03800
O 	O 	0.98920 0.58332 0.32063 -0.62200
O 	O 	0.75650 0.70795 0.38500 -0.64500
O 	O 	0.75520 0.58500 0.34289 -0.66100
C 	C 	0.85330 0.57030 0.31763 0.54900
C 	C 	0.79710 0.53440 0.28247 -0.14600
C 	C 	0.84970 0.48230 0.22122 0.01800
H 	H 	0.91830 0.47000 0.20200 0.02900
C 	C 	0.89970 0.51780 0.25359 -0.00100
H 	H 	0.00030 0.53010 0.25570 0.04800
C 	C 	0.00950 0.84100 0.37477 0.00600
H 	H 	0.10010 0.81830 0.37430 0.04000
O 	O 	0.98920 0.08332 0.82063 -0.62100
O 	O 	0.75650 0.20795 0.88500 -0.64400
O 	O 	0.75520 0.08500 0.84289 -0.66100
C 	C 	0.85330 0.07030 0.81763 0.55200
C 	C 	0.79710 0.03440 0.78247 -0.15600
C 	C 	0.84970 0.98230 0.72122 0.00300
H 	H 	0.91830 0.97000 0.70200 0.03300
C 	C 	0.89970 0.01780 0.75359 0.01800
H 	H 	0.00030 0.03010 0.75570 0.03900
C 	C 	0.00950 0.34100 0.87477 0.00300
H 	H 	0.10010 0.31830 0.87430 0.04000
O 	O 	0.48920 0.58332 0.82063 -0.62200
O 	O 	0.25650 0.70795 0.88500 -0.64500
O 	O 	0.25520 0.58500 0.84289 -0.66100
C 	C 	0.35330 0.57030 0.81763 0.54900
C 	C 	0.29710 0.53440 0.78247 -0.14700
C 	C 	0.34970 0.48230 0.72122 0.01700
H 	H 	0.41830 0.47000 0.70200 0.03000
C 	C 	0.39970 0.51780 0.75359 0.00000
H 	H 	0.50030 0.53010 0.75570 0.04800
C 	C 	0.50950 0.84100 0.87477 0.00700
H 	H 	0.60010 0.81830 0.87430 0.04000
O 	O 	0.48920 0.08332 0.32063 -0.62100
O 	O 	0.25650 0.20795 0.38500 -0.64600
O 	O 	0.25520 0.08500 0.34289 -0.66100
C 	C 	0.35330 0.07030 0.31763 0.54600
C 	C 	0.29710 0.03440 0.28247 -0.13800
C 	C 	0.34970 0.98230 0.22122 0.02700
H 	H 	0.41830 0.97000 0.20200 0.02600
C 	C 	0.39970 0.01780 0.25359 -0.01000
H 	H 	0.50030 0.03010 0.25570 0.05100
C 	C 	0.50950 0.34100 0.37477 0.00700
H 	H 	0.60010 0.31830 0.37430 0.04000
O 	O 	0.98920 0.66668 0.92937 -0.62200
O 	O 	0.75650 0.54205 0.86500 -0.64500
O 	O 	0.75520 0.66500 0.90711 -0.66100
C 	C 	0.85330 0.67970 0.93237 0.54900
C 	C 	0.79710 0.71560 0.96753 -0.14700
C 	C 	0.84970 0.76770 0.02878 0.01600
H 	H 	0.91830 0.78000 0.04800 0.02900
C 	C 	0.89970 0.73220 0.99641 0.00000
H 	H 	0.00030 0.71990 0.99430 0.04800
C 	C 	0.00950 0.40900 0.87523 0.00600
H 	H 	0.10010 0.43170 0.87570 0.04000
O 	O 	0.98920 0.16668 0.42937 -0.62100
O 	O 	0.75650 0.04205 0.36500 -0.64500
O 	O 	0.75520 0.16500 0.40711 -0.66100
C 	C 	0.85330 0.17970 0.43237 0.55000
C 	C 	0.79710 0.21560 0.46753 -0.14900
C 	C 	0.84970 0.26770 0.52878 0.01300
H 	H 	0.91830 0.28000 0.54800 0.03100
C 	C 	0.89970 0.23220 0.49641 0.00600
H 	H 	0.00030 0.21990 0.49430 0.04400
C 	C 	0.00950 0.90900 0.37523 0.01200
H 	H 	0.10010 0.93170 0.37570 0.03800
O 	O 	0.48920 0.66668 0.42937 -0.62200
O 	O 	0.25650 0.54205 0.36500 -0.64500
O 	O 	0.25520 0.66500 0.40711 -0.66000
C 	C 	0.35330 0.67970 0.43237 0.54800
C 	C 	0.29710 0.71560 0.46753 -0.14400
C 	C 	0.34970 0.76770 0.52878 0.01900
H 	H 	0.41830 0.78000 0.54800 0.02900
C 	C 	0.39970 0.73220 0.49641 -0.00200
H 	H 	0.50030 0.71990 0.49430 0.04800
C 	C 	0.50950 0.40900 0.37523 0.00700
H 	H 	0.60010 0.43170 0.37570 0.04000
O 	O 	0.48920 0.16668 0.92937 -0.62200
O 	O 	0.25650 0.04205 0.86500 -0.64600
O 	O 	0.25520 0.16500 0.90711 -0.66200
C 	C 	0.35330 0.17970 0.93237 0.54900
C 	C 	0.29710 0.21560 0.96753 -0.14600
C 	C 	0.34970 0.26770 0.02878 0.01800
H 	H 	0.41830 0.28000 0.04800 0.02900
C 	C 	0.39970 0.23220 0.99641 -0.00100
H 	H 	0.50030 0.21990 0.99430 0.04800
C 	C 	0.50950 0.90900 0.87523 0.00700
H 	H 	0.60010 0.93170 0.87570 0.04000
O 	O 	0.26080 0.58332 0.92937 -0.62200
O 	O 	0.49350 0.70795 0.86500 -0.64500
O 	O 	0.49480 0.58500 0.90711 -0.66100
C 	C 	0.39670 0.57030 0.93237 0.54900
C 	C 	0.45290 0.53440 0.96753 -0.14700
C 	C 	0.40030 0.48230 0.02878 0.01700
H 	H 	0.33170 0.47000 0.04800 0.03000
C 	C 	0.35030 0.51780 0.99641 -0.00000
H 	H 	0.24970 0.53010 0.99430 0.04800
C 	C 	0.24050 0.84100 0.87523 0.00800
H 	H 	0.14990 0.81830 0.87570 0.04000
O 	O 	0.26080 0.08332 0.42937 -0.62300
O 	O 	0.49350 0.20795 0.36500 -0.64500
O 	O 	0.49480 0.08500 0.40711 -0.66100
C 	C 	0.39670 0.07030 0.43237 0.54900
C 	C 	0.45290 0.03440 0.46753 -0.14700
C 	C 	0.40030 0.98230 0.52878 0.01800
H 	H 	0.33170 0.97000 0.54800 0.03000
C 	C 	0.35030 0.01780 0.49641 -0.00100
H 	H 	0.24970 0.03010 0.49430 0.04700
C 	C 	0.24050 0.34100 0.37523 0.00700
H 	H 	0.14990 0.31830 0.37570 0.03900
O 	O 	0.76080 0.58332 0.42937 -0.62200
O 	O 	0.99350 0.70795 0.36500 -0.64500
O 	O 	0.99480 0.58500 0.40711 -0.66100
C 	C 	0.89670 0.57030 0.43237 0.54900
C 	C 	0.95290 0.53440 0.46753 -0.14600
C 	C 	0.90030 0.48230 0.52878 0.01700
H 	H 	0.83170 0.47000 0.54800 0.03000
C 	C 	0.85030 0.51780 0.49641 -0.00000
H 	H 	0.74970 0.53010 0.49430 0.04800
C 	C 	0.74050 0.84100 0.37523 0.00500
H 	H 	0.64990 0.81830 0.37570 0.04000
O 	O 	0.76080 0.08332 0.92937 -0.62100
O 	O 	0.99350 0.20795 0.86500 -0.64300
O 	O 	0.99480 0.08500 0.90711 -0.65900
C 	C 	0.89670 0.07030 0.93237 0.54700
C 	C 	0.95290 0.03440 0.96753 -0.14100
C 	C 	0.90030 0.98230 0.02878 0.00700
H 	H 	0.83170 0.97000 0.04800 0.03200
C 	C 	0.85030 0.01780 0.99641 0.00500
H 	H 	0.74970 0.03010 0.99430 0.04600
C 	C 	0.74050 0.34100 0.87523 0.00600
H 	H 	0.64990 0.31830 0.87570 0.04000
Sc	Sc	0.37500 0.37500 0.61412 2.35100
Sc	Sc	0.37500 0.87500 0.11412 2.35100
Sc	Sc	0.87500 0.37500 0.11412 2.35100
Sc	Sc	0.87500 0.87500 0.61412 2.35100
Sc	Sc	0.37500 0.37500 0.13588 2.35100
Sc	Sc	0.37500 0.87500 0.63588 2.35100
Sc	Sc	0.87500 0.37500 0.63588 2.35100
Sc	Sc	0.87500 0.87500 0.13588 2.35100
Sc	Sc	0.62500 0.62500 0.38588 2.35100
Sc	Sc	0.62500 0.12500 0.88588 2.35100
Sc	Sc	0.12500 0.62500 0.88588 2.35100
Sc	Sc	0.12500 0.12500 0.38588 2.35100
Sc	Sc	0.62500 0.62500 0.86412 2.35100
Sc	Sc	0.62500 0.12500 0.36412 2.35100
Sc	Sc	0.12500 0.62500 0.36412 2.35100
Sc	Sc	0.12500 0.12500 0.86412 2.35100
C 	C 	0.62500 0.55830 0.62500 -0.14300
C 	C 	0.62500 0.48540 0.62500 0.56100
C 	C 	0.62500 0.05830 0.12500 -0.14200
C 	C 	0.62500 0.98540 0.12500 0.56000
C 	C 	0.12500 0.19170 0.62500 -0.14300
C 	C 	0.12500 0.26460 0.62500 0.56100
C 	C 	0.12500 0.69170 0.12500 -0.14000
C 	C 	0.12500 0.76460 0.12500 0.56000
C 	C 	0.62500 0.69170 0.62500 -0.14400
C 	C 	0.62500 0.76460 0.62500 0.56100
C 	C 	0.12500 0.55830 0.12500 -0.14200
C 	C 	0.12500 0.48540 0.12500 0.56100
C 	C 	0.12500 0.05830 0.62500 -0.14900
C 	C 	0.12500 0.98540 0.62500 0.56400
C 	C 	0.62500 0.19170 0.12500 -0.14400
C 	C 	0.62500 0.26460 0.12500 0.56100
C 	C 	0.37500 0.44170 0.37500 -0.14300
C 	C 	0.37500 0.51460 0.37500 0.56100
C 	C 	0.37500 0.94170 0.87500 -0.14200
C 	C 	0.37500 0.01460 0.87500 0.56000
C 	C 	0.87500 0.80830 0.37500 -0.14300
C 	C 	0.87500 0.73540 0.37500 0.56100
C 	C 	0.87500 0.30830 0.87500 -0.14000
C 	C 	0.87500 0.23540 0.87500 0.56000
C 	C 	0.87500 0.44170 0.87500 -0.14200
C 	C 	0.87500 0.51460 0.87500 0.56100
C 	C 	0.87500 0.94170 0.37500 -0.14900
C 	C 	0.87500 0.01460 0.37500 0.56400
C 	C 	0.37500 0.80830 0.87500 -0.14400
C 	C 	0.37500 0.73540 0.87500 0.56100
C 	C 	0.37500 0.30830 0.37500 -0.14400
C 	C 	0.37500 0.23540 0.37500 0.56100
