data_crystal

_cell_length_a 8.88220
_cell_length_b 20.58610
_cell_length_c 33.92200
_cell_angle_alpha 90.00000
_cell_angle_beta  90.00000
_cell_angle_gamma 90.00000

_symmetry_space_group_name_	'P 1'
_symmetry_space_group_name_H-M	'P 1'

loop_
_symmetry_equiv_pos_as_xyz
  x,y,z

loop_
_atom_site_label
_atom_site_type_symbol
_atom_site_fract_x
_atom_site_fract_y
_atom_site_fract_z
_atom_site_charge
O 	O 	0.74030 0.33370 0.67951 -0.62600
O 	O 	0.50540 0.45750 0.61493 -0.63800
O 	O 	0.50590 0.33500 0.65666 -0.65500
C 	C 	0.60630 0.32080 0.68223 0.54700
C 	C 	0.54730 0.28530 0.71760 -0.14000
C 	C 	0.59950 0.23290 0.77910 0.01700
H 	H 	0.66750 0.22120 0.79870 0.03100
C 	C 	0.64980 0.26870 0.74680 -0.00200
H 	H 	0.75010 0.28120 0.74490 0.05100
C 	C 	0.75990 0.59050 0.62540 0.00500
H 	H 	0.84990 0.56750 0.62630 0.04100
O 	O 	0.74030 0.83370 0.17951 -0.62800
O 	O 	0.50540 0.95750 0.11493 -0.63900
O 	O 	0.50590 0.83500 0.15666 -0.65600
C 	C 	0.60630 0.82080 0.18223 0.54600
C 	C 	0.54730 0.78530 0.21760 -0.14200
C 	C 	0.59950 0.73290 0.27910 0.01500
H 	H 	0.66750 0.72120 0.29870 0.03000
C 	C 	0.64980 0.76870 0.24680 -0.00200
H 	H 	0.75010 0.78120 0.24490 0.04900
C 	C 	0.75990 0.09050 0.12540 0.00300
H 	H 	0.84990 0.06750 0.12630 0.04200
O 	O 	0.24030 0.33370 0.17951 -0.62800
O 	O 	0.00540 0.45750 0.11493 -0.63900
O 	O 	0.00590 0.33500 0.15666 -0.65600
C 	C 	0.10630 0.32080 0.18223 0.54700
C 	C 	0.04730 0.28530 0.21760 -0.14500
C 	C 	0.09950 0.23290 0.27910 0.01000
H 	H 	0.16750 0.22120 0.29870 0.03200
C 	C 	0.14980 0.26870 0.24680 0.00100
H 	H 	0.25010 0.28120 0.24490 0.04800
C 	C 	0.25990 0.59050 0.12540 0.00400
H 	H 	0.34990 0.56750 0.12630 0.04200
O 	O 	0.24030 0.83370 0.67951 -0.62700
O 	O 	0.00540 0.95750 0.61493 -0.63900
O 	O 	0.00590 0.83500 0.65666 -0.65500
C 	C 	0.10630 0.82080 0.68223 0.54500
C 	C 	0.04730 0.78530 0.71760 -0.13600
C 	C 	0.09950 0.73290 0.77910 0.02000
H 	H 	0.16750 0.72120 0.79870 0.02900
C 	C 	0.14980 0.76870 0.74680 -0.00700
H 	H 	0.25010 0.78120 0.74490 0.05100
C 	C 	0.25990 0.09050 0.62540 0.00700
H 	H 	0.34990 0.06750 0.62630 0.04000
O 	O 	0.00970 0.41630 0.67951 -0.62800
O 	O 	0.24460 0.29250 0.61493 -0.64000
O 	O 	0.24410 0.41500 0.65666 -0.65600
C 	C 	0.14370 0.42920 0.68223 0.54600
C 	C 	0.20270 0.46470 0.71760 -0.14100
C 	C 	0.15050 0.51710 0.77910 0.01600
H 	H 	0.08250 0.52880 0.79870 0.03000
C 	C 	0.10020 0.48130 0.74680 -0.00400
H 	H 	0.99990 0.46880 0.74490 0.05000
C 	C 	0.99010 0.15950 0.62540 0.00300
H 	H 	0.90010 0.18250 0.62630 0.04200
O 	O 	0.00970 0.91630 0.17951 -0.62700
O 	O 	0.24460 0.79250 0.11493 -0.63900
O 	O 	0.24410 0.91500 0.15666 -0.65700
C 	C 	0.14370 0.92920 0.18223 0.54900
C 	C 	0.20270 0.96470 0.21760 -0.15000
C 	C 	0.15050 0.01710 0.27910 0.00200
H 	H 	0.08250 0.02880 0.29870 0.03400
C 	C 	0.10020 0.98130 0.24680 0.01500
H 	H 	0.99990 0.96880 0.24490 0.04100
C 	C 	0.99010 0.65950 0.12540 -0.00000
H 	H 	0.90010 0.68250 0.12630 0.04200
O 	O 	0.50970 0.41630 0.17951 -0.62800
O 	O 	0.74460 0.29250 0.11493 -0.64000
O 	O 	0.74410 0.41500 0.15666 -0.65600
C 	C 	0.64370 0.42920 0.18223 0.54600
C 	C 	0.70270 0.46470 0.21760 -0.14200
C 	C 	0.65050 0.51710 0.27910 0.01500
H 	H 	0.58250 0.52880 0.29870 0.03000
C 	C 	0.60020 0.48130 0.24680 -0.00200
H 	H 	0.49990 0.46880 0.24490 0.04900
C 	C 	0.49010 0.15950 0.12540 0.00400
H 	H 	0.40010 0.18250 0.12630 0.04100
O 	O 	0.50970 0.91630 0.67951 -0.62700
O 	O 	0.74460 0.79250 0.61493 -0.64000
O 	O 	0.74410 0.91500 0.65666 -0.65600
C 	C 	0.64370 0.92920 0.68223 0.54300
C 	C 	0.70270 0.96470 0.71760 -0.13400
C 	C 	0.65050 0.01710 0.77910 0.02500
H 	H 	0.58250 0.02880 0.79870 0.02700
C 	C 	0.60020 0.98130 0.74680 -0.01200
H 	H 	0.49990 0.96880 0.74490 0.05300
C 	C 	0.49010 0.65950 0.62540 0.00400
H 	H 	0.40010 0.68250 0.62630 0.04200
O 	O 	0.00970 0.33370 0.07049 -0.62700
O 	O 	0.24460 0.45750 0.13507 -0.63900
O 	O 	0.24410 0.33500 0.09334 -0.65600
C 	C 	0.14370 0.32080 0.06777 0.54600
C 	C 	0.20270 0.28530 0.03240 -0.14200
C 	C 	0.15050 0.23290 0.97090 0.01500
H 	H 	0.08250 0.22120 0.95130 0.03000
C 	C 	0.10020 0.26870 0.00320 -0.00200
H 	H 	0.99990 0.28120 0.00510 0.04900
C 	C 	0.99010 0.59050 0.12460 0.00300
H 	H 	0.90010 0.56750 0.12370 0.04200
O 	O 	0.00970 0.83370 0.57049 -0.62700
O 	O 	0.24460 0.95750 0.63507 -0.64000
O 	O 	0.24410 0.83500 0.59334 -0.65600
C 	C 	0.14370 0.82080 0.56777 0.54700
C 	C 	0.20270 0.78530 0.53240 -0.14400
C 	C 	0.15050 0.73290 0.47090 0.01200
H 	H 	0.08250 0.72120 0.45130 0.03200
C 	C 	0.10020 0.76870 0.50320 0.00300
H 	H 	0.99990 0.78120 0.50510 0.04600
C 	C 	0.99010 0.09050 0.62460 0.00900
H 	H 	0.90010 0.06750 0.62370 0.04000
O 	O 	0.50970 0.33370 0.57049 -0.62700
O 	O 	0.74460 0.45750 0.63507 -0.64000
O 	O 	0.74410 0.33500 0.59334 -0.65600
C 	C 	0.64370 0.32080 0.56777 0.54500
C 	C 	0.70270 0.28530 0.53240 -0.13900
C 	C 	0.65050 0.23290 0.47090 0.01800
H 	H 	0.58250 0.22120 0.45130 0.02900
C 	C 	0.60020 0.26870 0.50320 -0.00500
H 	H 	0.49990 0.28120 0.50510 0.05000
C 	C 	0.49010 0.59050 0.62460 0.00400
H 	H 	0.40010 0.56750 0.62370 0.04200
O 	O 	0.50970 0.83370 0.07049 -0.62800
O 	O 	0.74460 0.95750 0.13507 -0.64100
O 	O 	0.74410 0.83500 0.09334 -0.65700
C 	C 	0.64370 0.82080 0.06777 0.54600
C 	C 	0.70270 0.78530 0.03240 -0.14100
C 	C 	0.65050 0.73290 0.97090 0.01700
H 	H 	0.58250 0.72120 0.95130 0.03000
C 	C 	0.60020 0.76870 0.00320 -0.00400
H 	H 	0.49990 0.78120 0.00510 0.05000
C 	C 	0.49010 0.09050 0.12460 0.00300
H 	H 	0.40010 0.06750 0.12370 0.04200
O 	O 	0.74030 0.41630 0.07049 -0.62800
O 	O 	0.50540 0.29250 0.13507 -0.64000
O 	O 	0.50590 0.41500 0.09334 -0.65600
C 	C 	0.60630 0.42920 0.06777 0.54600
C 	C 	0.54730 0.46470 0.03240 -0.14100
C 	C 	0.59950 0.51710 0.97090 0.01600
H 	H 	0.66750 0.52880 0.95130 0.03000
C 	C 	0.64980 0.48130 0.00320 -0.00300
H 	H 	0.75010 0.46880 0.00510 0.04900
C 	C 	0.75990 0.15950 0.12460 0.00400
H 	H 	0.84990 0.18250 0.12370 0.04100
O 	O 	0.74030 0.91630 0.57049 -0.62800
O 	O 	0.50540 0.79250 0.63507 -0.64000
O 	O 	0.50590 0.91500 0.59334 -0.65600
C 	C 	0.60630 0.92920 0.56777 0.54600
C 	C 	0.54730 0.96470 0.53240 -0.14200
C 	C 	0.59950 0.01710 0.47090 0.01700
H 	H 	0.66750 0.02880 0.45130 0.03000
C 	C 	0.64980 0.98130 0.50320 -0.00400
H 	H 	0.75010 0.96880 0.50510 0.04900
C 	C 	0.75990 0.65950 0.62460 0.00400
H 	H 	0.84990 0.68250 0.62370 0.04100
O 	O 	0.24030 0.41630 0.57049 -0.62800
O 	O 	0.00540 0.29250 0.63507 -0.64000
O 	O 	0.00590 0.41500 0.59334 -0.65600
C 	C 	0.10630 0.42920 0.56777 0.54600
C 	C 	0.04730 0.46470 0.53240 -0.14100
C 	C 	0.09950 0.51710 0.47090 0.01600
H 	H 	0.16750 0.52880 0.45130 0.03000
C 	C 	0.14980 0.48130 0.50320 -0.00300
H 	H 	0.25010 0.46880 0.50510 0.04900
C 	C 	0.25990 0.15950 0.62460 0.00200
H 	H 	0.34990 0.18250 0.62370 0.04200
O 	O 	0.24030 0.91630 0.07049 -0.62700
O 	O 	0.00540 0.79250 0.13507 -0.63800
O 	O 	0.00590 0.91500 0.09334 -0.65400
C 	C 	0.10630 0.92920 0.06777 0.54500
C 	C 	0.04730 0.96470 0.03240 -0.13600
C 	C 	0.09950 0.01710 0.97090 0.00600
H 	H 	0.16750 0.02880 0.95130 0.03300
C 	C 	0.14980 0.98130 0.00320 0.00200
H 	H 	0.25010 0.96880 0.00510 0.04800
C 	C 	0.25990 0.65950 0.12460 0.00200
H 	H 	0.34990 0.68250 0.12370 0.04200
O 	O 	0.25970 0.66630 0.32049 -0.62700
O 	O 	0.49460 0.54250 0.38507 -0.63900
O 	O 	0.49410 0.66500 0.34334 -0.65600
C 	C 	0.39370 0.67920 0.31777 0.54600
C 	C 	0.45270 0.71470 0.28240 -0.14100
C 	C 	0.40050 0.76710 0.22090 0.01600
H 	H 	0.33250 0.77880 0.20130 0.03000
C 	C 	0.35020 0.73130 0.25320 -0.00300
H 	H 	0.24990 0.71880 0.25510 0.05000
C 	C 	0.24010 0.40950 0.37460 0.00400
H 	H 	0.15010 0.43250 0.37370 0.04100
O 	O 	0.25970 0.16630 0.82049 -0.62800
O 	O 	0.49460 0.04250 0.88507 -0.63900
O 	O 	0.49410 0.16500 0.84334 -0.65600
C 	C 	0.39370 0.17920 0.81777 0.54600
C 	C 	0.45270 0.21470 0.78240 -0.14200
C 	C 	0.40050 0.26710 0.72090 0.01500
H 	H 	0.33250 0.27880 0.70130 0.03000
C 	C 	0.35020 0.23130 0.75320 -0.00200
H 	H 	0.24990 0.21880 0.75510 0.04900
C 	C 	0.24010 0.90950 0.87460 0.00300
H 	H 	0.15010 0.93250 0.87370 0.04200
O 	O 	0.75970 0.66630 0.82049 -0.62800
O 	O 	0.99460 0.54250 0.88507 -0.63900
O 	O 	0.99410 0.66500 0.84334 -0.65600
C 	C 	0.89370 0.67920 0.81777 0.54700
C 	C 	0.95270 0.71470 0.78240 -0.14500
C 	C 	0.90050 0.76710 0.72090 0.01000
H 	H 	0.83250 0.77880 0.70130 0.03200
C 	C 	0.85020 0.73130 0.75320 0.00100
H 	H 	0.74990 0.71880 0.75510 0.04800
C 	C 	0.74010 0.40950 0.87460 0.00400
H 	H 	0.65010 0.43250 0.87370 0.04200
O 	O 	0.75970 0.16630 0.32049 -0.62700
O 	O 	0.99460 0.04250 0.38507 -0.63900
O 	O 	0.99410 0.16500 0.34334 -0.65500
C 	C 	0.89370 0.17920 0.31777 0.54500
C 	C 	0.95270 0.21470 0.28240 -0.13600
C 	C 	0.90050 0.26710 0.22090 0.02000
H 	H 	0.83250 0.27880 0.20130 0.02900
C 	C 	0.85020 0.23130 0.25320 -0.00700
H 	H 	0.74990 0.21880 0.25510 0.05100
C 	C 	0.74010 0.90950 0.37460 0.00700
H 	H 	0.65010 0.93250 0.37370 0.04000
O 	O 	0.99030 0.58370 0.32049 -0.62800
O 	O 	0.75540 0.70750 0.38507 -0.64000
O 	O 	0.75590 0.58500 0.34334 -0.65600
C 	C 	0.85630 0.57080 0.31777 0.54600
C 	C 	0.79730 0.53530 0.28240 -0.14100
C 	C 	0.84950 0.48290 0.22090 0.01600
H 	H 	0.91750 0.47120 0.20130 0.03000
C 	C 	0.89980 0.51870 0.25320 -0.00400
H 	H 	0.00010 0.53120 0.25510 0.05000
C 	C 	0.00990 0.84050 0.37460 0.00300
H 	H 	0.09990 0.81750 0.37370 0.04200
O 	O 	0.99030 0.08370 0.82049 -0.62700
O 	O 	0.75540 0.20750 0.88507 -0.63900
O 	O 	0.75590 0.08500 0.84334 -0.65700
C 	C 	0.85630 0.07080 0.81777 0.54900
C 	C 	0.79730 0.03530 0.78240 -0.15000
C 	C 	0.84950 0.98290 0.72090 0.00200
H 	H 	0.91750 0.97120 0.70130 0.03400
C 	C 	0.89980 0.01870 0.75320 0.01500
H 	H 	0.00010 0.03120 0.75510 0.04100
C 	C 	0.00990 0.34050 0.87460 -0.00000
H 	H 	0.09990 0.31750 0.87370 0.04200
O 	O 	0.49030 0.58370 0.82049 -0.62800
O 	O 	0.25540 0.70750 0.88507 -0.64000
O 	O 	0.25590 0.58500 0.84334 -0.65600
C 	C 	0.35630 0.57080 0.81777 0.54600
C 	C 	0.29730 0.53530 0.78240 -0.14200
C 	C 	0.34950 0.48290 0.72090 0.01500
H 	H 	0.41750 0.47120 0.70130 0.03000
C 	C 	0.39980 0.51870 0.75320 -0.00200
H 	H 	0.50010 0.53120 0.75510 0.04900
C 	C 	0.50990 0.84050 0.87460 0.00400
H 	H 	0.59990 0.81750 0.87370 0.04100
O 	O 	0.49030 0.08370 0.32049 -0.62700
O 	O 	0.25540 0.20750 0.38507 -0.64000
O 	O 	0.25590 0.08500 0.34334 -0.65600
C 	C 	0.35630 0.07080 0.31777 0.54300
C 	C 	0.29730 0.03530 0.28240 -0.13400
C 	C 	0.34950 0.98290 0.22090 0.02500
H 	H 	0.41750 0.97120 0.20130 0.02700
C 	C 	0.39980 0.01870 0.25320 -0.01200
H 	H 	0.50010 0.03120 0.25510 0.05300
C 	C 	0.50990 0.34050 0.37460 0.00400
H 	H 	0.59990 0.31750 0.37370 0.04200
O 	O 	0.99030 0.66630 0.92951 -0.62700
O 	O 	0.75540 0.54250 0.86493 -0.63900
O 	O 	0.75590 0.66500 0.90666 -0.65600
C 	C 	0.85630 0.67920 0.93223 0.54600
C 	C 	0.79730 0.71470 0.96760 -0.14200
C 	C 	0.84950 0.76710 0.02910 0.01500
H 	H 	0.91750 0.77880 0.04870 0.03000
C 	C 	0.89980 0.73130 0.99680 -0.00200
H 	H 	0.00010 0.71880 0.99490 0.04900
C 	C 	0.00990 0.40950 0.87540 0.00300
H 	H 	0.09990 0.43250 0.87630 0.04200
O 	O 	0.99030 0.16630 0.42951 -0.62700
O 	O 	0.75540 0.04250 0.36493 -0.64000
O 	O 	0.75590 0.16500 0.40666 -0.65600
C 	C 	0.85630 0.17920 0.43223 0.54700
C 	C 	0.79730 0.21470 0.46760 -0.14400
C 	C 	0.84950 0.26710 0.52910 0.01200
H 	H 	0.91750 0.27880 0.54870 0.03200
C 	C 	0.89980 0.23130 0.49680 0.00300
H 	H 	0.00010 0.21880 0.49490 0.04600
C 	C 	0.00990 0.90950 0.37540 0.00900
H 	H 	0.09990 0.93250 0.37630 0.04000
O 	O 	0.49030 0.66630 0.42951 -0.62700
O 	O 	0.25540 0.54250 0.36493 -0.64000
O 	O 	0.25590 0.66500 0.40666 -0.65600
C 	C 	0.35630 0.67920 0.43223 0.54500
C 	C 	0.29730 0.71470 0.46760 -0.13900
C 	C 	0.34950 0.76710 0.52910 0.01800
H 	H 	0.41750 0.77880 0.54870 0.02900
C 	C 	0.39980 0.73130 0.49680 -0.00500
H 	H 	0.50010 0.71880 0.49490 0.05000
C 	C 	0.50990 0.40950 0.37540 0.00400
H 	H 	0.59990 0.43250 0.37630 0.04200
O 	O 	0.49030 0.16630 0.92951 -0.62800
O 	O 	0.25540 0.04250 0.86493 -0.64100
O 	O 	0.25590 0.16500 0.90666 -0.65700
C 	C 	0.35630 0.17920 0.93223 0.54600
C 	C 	0.29730 0.21470 0.96760 -0.14100
C 	C 	0.34950 0.26710 0.02910 0.01700
H 	H 	0.41750 0.27880 0.04870 0.03000
C 	C 	0.39980 0.23130 0.99680 -0.00400
H 	H 	0.50010 0.21880 0.99490 0.05000
C 	C 	0.50990 0.90950 0.87540 0.00300
H 	H 	0.59990 0.93250 0.87630 0.04200
O 	O 	0.25970 0.58370 0.92951 -0.62800
O 	O 	0.49460 0.70750 0.86493 -0.64000
O 	O 	0.49410 0.58500 0.90666 -0.65600
C 	C 	0.39370 0.57080 0.93223 0.54600
C 	C 	0.45270 0.53530 0.96760 -0.14100
C 	C 	0.40050 0.48290 0.02910 0.01600
H 	H 	0.33250 0.47120 0.04870 0.03000
C 	C 	0.35020 0.51870 0.99680 -0.00300
H 	H 	0.24990 0.53120 0.99490 0.04900
C 	C 	0.24010 0.84050 0.87540 0.00400
H 	H 	0.15010 0.81750 0.87630 0.04100
O 	O 	0.25970 0.08370 0.42951 -0.62800
O 	O 	0.49460 0.20750 0.36493 -0.64000
O 	O 	0.49410 0.08500 0.40666 -0.65600
C 	C 	0.39370 0.07080 0.43223 0.54600
C 	C 	0.45270 0.03530 0.46760 -0.14200
C 	C 	0.40050 0.98290 0.52910 0.01700
H 	H 	0.33250 0.97120 0.54870 0.03000
C 	C 	0.35020 0.01870 0.49680 -0.00400
H 	H 	0.24990 0.03120 0.49490 0.04900
C 	C 	0.24010 0.34050 0.37540 0.00400
H 	H 	0.15010 0.31750 0.37630 0.04100
O 	O 	0.75970 0.58370 0.42951 -0.62800
O 	O 	0.99460 0.70750 0.36493 -0.64000
O 	O 	0.99410 0.58500 0.40666 -0.65600
C 	C 	0.89370 0.57080 0.43223 0.54600
C 	C 	0.95270 0.53530 0.46760 -0.14100
C 	C 	0.90050 0.48290 0.52910 0.01600
H 	H 	0.83250 0.47120 0.54870 0.03000
C 	C 	0.85020 0.51870 0.49680 -0.00300
H 	H 	0.74990 0.53120 0.49490 0.04900
C 	C 	0.74010 0.84050 0.37540 0.00200
H 	H 	0.65010 0.81750 0.37630 0.04200
O 	O 	0.75970 0.08370 0.92951 -0.62700
O 	O 	0.99460 0.20750 0.86493 -0.63800
O 	O 	0.99410 0.08500 0.90666 -0.65400
C 	C 	0.89370 0.07080 0.93223 0.54500
C 	C 	0.95270 0.03530 0.96760 -0.13600
C 	C 	0.90050 0.98290 0.02910 0.00600
H 	H 	0.83250 0.97120 0.04870 0.03300
C 	C 	0.85020 0.01870 0.99680 0.00200
H 	H 	0.74990 0.03120 0.99490 0.04800
C 	C 	0.74010 0.34050 0.87540 0.00200
H 	H 	0.65010 0.31750 0.87630 0.04200
Sc	Sc	0.37500 0.37500 0.61408 2.35300
Sc	Sc	0.37500 0.87500 0.11408 2.35300
Sc	Sc	0.87500 0.37500 0.11408 2.35300
Sc	Sc	0.87500 0.87500 0.61408 2.35300
Sc	Sc	0.37500 0.37500 0.13592 2.35300
Sc	Sc	0.37500 0.87500 0.63592 2.35300
Sc	Sc	0.87500 0.37500 0.63592 2.35300
Sc	Sc	0.87500 0.87500 0.13592 2.35300
Sc	Sc	0.62500 0.62500 0.38592 2.35300
Sc	Sc	0.62500 0.12500 0.88592 2.35300
Sc	Sc	0.12500 0.62500 0.88592 2.35300
Sc	Sc	0.12500 0.12500 0.38592 2.35300
Sc	Sc	0.62500 0.62500 0.86408 2.35300
Sc	Sc	0.62500 0.12500 0.36408 2.35300
Sc	Sc	0.12500 0.62500 0.36408 2.35300
Sc	Sc	0.12500 0.12500 0.86408 2.35300
C 	C 	0.62500 0.55870 0.62500 -0.13300
C 	C 	0.62500 0.48510 0.62500 0.54100
C 	C 	0.62500 0.05870 0.12500 -0.13200
C 	C 	0.62500 0.98510 0.12500 0.54000
C 	C 	0.12500 0.19130 0.62500 -0.13300
C 	C 	0.12500 0.26490 0.62500 0.54000
C 	C 	0.12500 0.69130 0.12500 -0.12900
C 	C 	0.12500 0.76490 0.12500 0.54000
C 	C 	0.62500 0.69130 0.62500 -0.13300
C 	C 	0.62500 0.76490 0.62500 0.54100
C 	C 	0.12500 0.55870 0.12500 -0.13100
C 	C 	0.12500 0.48510 0.12500 0.54000
C 	C 	0.12500 0.05870 0.62500 -0.13900
C 	C 	0.12500 0.98510 0.62500 0.54400
C 	C 	0.62500 0.19130 0.12500 -0.13300
C 	C 	0.62500 0.26490 0.12500 0.54100
C 	C 	0.37500 0.44130 0.37500 -0.13300
C 	C 	0.37500 0.51490 0.37500 0.54100
C 	C 	0.37500 0.94130 0.87500 -0.13200
C 	C 	0.37500 0.01490 0.87500 0.54000
C 	C 	0.87500 0.80870 0.37500 -0.13300
C 	C 	0.87500 0.73510 0.37500 0.54000
C 	C 	0.87500 0.30870 0.87500 -0.12900
C 	C 	0.87500 0.23510 0.87500 0.54000
C 	C 	0.87500 0.44130 0.87500 -0.13100
C 	C 	0.87500 0.51490 0.87500 0.54000
C 	C 	0.87500 0.94130 0.37500 -0.13900
C 	C 	0.87500 0.01490 0.37500 0.54400
C 	C 	0.37500 0.80870 0.87500 -0.13300
C 	C 	0.37500 0.73510 0.87500 0.54100
C 	C 	0.37500 0.30870 0.37500 -0.13300
C 	C 	0.37500 0.23510 0.37500 0.54100
