data_crystal

_cell_length_a 8.75090
_cell_length_b 34.33900
_cell_length_c 11.06520
_cell_angle_alpha 90.00000
_cell_angle_beta  110.91700
_cell_angle_gamma 90.00000

_symmetry_space_group_name_	'P 1'
_symmetry_space_group_name_H-M	'P 1'

loop_
_symmetry_equiv_pos_as_xyz
  x,y,z

loop_
_atom_site_label
_atom_site_type_symbol
_atom_site_fract_x
_atom_site_fract_y
_atom_site_fract_z
_atom_site_charge
O 	O 	0.92810 0.38730 0.40680 -0.53500
O 	O 	0.69610 0.36780 0.42740 -0.58600
O 	O 	0.83140 0.43148 0.15580 -0.52000
O 	O 	0.60450 0.40900 0.17900 -0.64600
O 	O 	0.83710 0.34450 0.15790 -0.60500
O 	O 	0.60880 0.32280 0.17400 -0.62200
C 	C 	0.84330 0.37830 0.47220 0.44500
C 	C 	0.92440 0.37950 0.61690 0.18600
C 	C 	0.84000 0.38940 0.69520 -0.36500
H 	H 	0.72970 0.39610 0.65780 0.15100
C 	C 	0.91400 0.38970 0.82970 -0.16500
H 	H 	0.85570 0.39660 0.88180 0.10300
C 	C 	0.68260 0.43380 0.13790 0.49700
C 	C 	0.58790 0.46780 0.06680 -0.10500
C 	C 	0.66070 0.49230 -0.00000 -0.01100
H 	H 	0.76440 0.48710 0.99860 0.07900
C 	C 	0.56970 0.52500 0.93520 0.02500
H 	H 	0.61620 0.54210 0.89300 0.03400
C 	C 	0.72940 0.31970 0.13970 0.55800
C 	C 	0.74100 0.28280 0.06820 -0.12700
C 	C 	0.62110 0.25390 0.04820 0.01900
H 	H 	0.53510 0.25660 0.07820 0.03700
C 	C 	0.63860 0.22100 0.98050 -0.00600
H 	H 	0.56400 0.20080 0.96840 0.03800
C 	C 	0.83300 0.36840 0.69200 0.14900
H 	H 	0.72420 0.36090 0.65220 -0.00500
C 	C 	0.90300 0.36870 0.82700 0.52200
H 	H 	0.84270 0.36220 0.87830 -0.12400
O 	O 	0.42810 0.88730 0.40680 -0.66700
O 	O 	0.19610 0.86780 0.42740 -0.68300
O 	O 	0.33140 0.93148 0.15580 -0.64500
O 	O 	0.10450 0.90900 0.17900 -0.77000
O 	O 	0.33710 0.84450 0.15790 -0.68400
O 	O 	0.10880 0.82280 0.17400 -0.69800
C 	C 	0.34330 0.87830 0.47220 0.55400
C 	C 	0.42440 0.87950 0.61690 -0.16800
C 	C 	0.34000 0.88940 0.69520 0.12200
H 	H 	0.22970 0.89610 0.65780 -0.03300
C 	C 	0.41400 0.88970 0.82970 0.08700
H 	H 	0.35570 0.89660 0.88180 -0.00300
C 	C 	0.18260 0.93380 0.13790 0.66800
C 	C 	0.08790 0.96780 0.06680 -0.61500
C 	C 	0.16070 0.99230 -0.00000 0.40500
H 	H 	0.26440 0.98710 0.99860 -0.10500
C 	C 	0.06970 0.02500 0.93520 -0.57000
H 	H 	0.11620 0.04210 0.89300 0.18900
C 	C 	0.22940 0.81970 0.13970 0.57000
C 	C 	0.24100 0.78280 0.06820 -0.17500
C 	C 	0.12110 0.75390 0.04820 0.00200
H 	H 	0.03510 0.75660 0.07820 -0.00500
C 	C 	0.13860 0.72100 0.98050 -0.01000
H 	H 	0.06400 0.70080 0.96840 -0.00900
C 	C 	0.33300 0.86840 0.69200 -0.09800
H 	H 	0.22420 0.86090 0.65220 0.04100
C 	C 	0.40300 0.86870 0.82700 -0.12100
H 	H 	0.34270 0.86220 0.87830 0.05600
O 	O 	0.07190 0.38730 0.09320 -0.76900
O 	O 	0.30390 0.36780 0.07260 -0.65800
O 	O 	0.16860 0.43148 0.34420 -0.66700
O 	O 	0.39550 0.40900 0.32100 -0.67000
O 	O 	0.16290 0.34450 0.34210 -0.73200
O 	O 	0.39120 0.32280 0.32600 -0.63800
C 	C 	0.15670 0.37830 0.02780 0.63400
C 	C 	0.07560 0.37950 0.88310 -0.47500
C 	C 	0.16000 0.38940 0.80480 0.56700
H 	H 	0.27030 0.39610 0.84220 -0.15400
C 	C 	0.08600 0.38970 0.67030 0.33800
H 	H 	0.14430 0.39660 0.61820 -0.09200
C 	C 	0.31740 0.43380 0.36210 0.53600
C 	C 	0.41210 0.46780 0.43320 -0.17100
C 	C 	0.33930 0.49230 0.50000 0.02100
H 	H 	0.23560 0.48710 0.50140 0.00500
C 	C 	0.43030 0.52500 0.56480 -0.02800
H 	H 	0.38380 0.54210 0.60700 0.03500
C 	C 	0.27060 0.31970 0.36030 0.56100
C 	C 	0.25900 0.28280 0.43180 -0.16400
C 	C 	0.37890 0.25390 0.45180 -0.00800
H 	H 	0.46490 0.25660 0.42180 0.05500
C 	C 	0.36140 0.22100 0.51950 0.01500
H 	H 	0.43600 0.20080 0.53160 0.03400
C 	C 	0.16700 0.36840 0.80800 -0.35200
H 	H 	0.27580 0.36090 0.84780 0.14700
C 	C 	0.09700 0.36870 0.67300 -0.72700
H 	H 	0.15730 0.36220 0.62170 0.24800
O 	O 	0.57190 0.88730 0.09320 -0.64700
O 	O 	0.80390 0.86780 0.07260 -0.55600
O 	O 	0.66860 0.93148 0.34420 -0.54900
O 	O 	0.89550 0.90900 0.32100 -0.53700
O 	O 	0.66290 0.84450 0.34210 -0.66000
O 	O 	0.89120 0.82280 0.32600 -0.55600
C 	C 	0.65670 0.87830 0.02780 0.52400
C 	C 	0.57560 0.87950 0.88310 -0.12300
C 	C 	0.66000 0.88940 0.80480 0.08200
H 	H 	0.77030 0.89610 0.84220 0.03000
C 	C 	0.58600 0.88970 0.67030 0.08800
H 	H 	0.64430 0.89660 0.61820 0.01400
C 	C 	0.81740 0.93380 0.36210 0.36000
C 	C 	0.91210 0.96780 0.43320 0.34800
C 	C 	0.83930 0.99230 0.50000 -0.40800
H 	H 	0.73560 0.98710 0.50140 0.19600
C 	C 	0.93030 0.02500 0.56480 0.58000
H 	H 	0.88380 0.04210 0.60700 -0.12400
C 	C 	0.77060 0.81970 0.36030 0.55000
C 	C 	0.75900 0.78280 0.43180 -0.11600
C 	C 	0.87890 0.75390 0.45180 0.00800
H 	H 	0.96490 0.75660 0.42180 0.09700
C 	C 	0.86140 0.72100 0.51950 0.02100
H 	H 	0.93600 0.70080 0.53160 0.08200
C 	C 	0.66700 0.86840 0.80800 -0.10600
H 	H 	0.77580 0.86090 0.84780 0.10200
C 	C 	0.59700 0.86870 0.67300 -0.08500
H 	H 	0.65730 0.86220 0.62170 0.07000
O 	O 	0.07190 0.61270 0.59320 -0.77000
O 	O 	0.30390 0.63220 0.57260 -0.65800
O 	O 	0.16860 0.56852 0.84420 -0.66800
O 	O 	0.39550 0.59100 0.82100 -0.67000
O 	O 	0.16290 0.65550 0.84210 -0.73200
O 	O 	0.39120 0.67720 0.82600 -0.63800
C 	C 	0.15670 0.62170 0.52780 0.62900
C 	C 	0.07560 0.62050 0.38310 -0.47100
C 	C 	0.16000 0.61060 0.30480 0.56600
H 	H 	0.27030 0.60390 0.34220 -0.15200
C 	C 	0.08600 0.61030 0.17030 0.33900
H 	H 	0.14430 0.60340 0.11820 -0.09000
C 	C 	0.31740 0.56620 0.86210 0.53400
C 	C 	0.41210 0.53220 0.93320 -0.17100
C 	C 	0.33930 0.50770 -0.00000 0.02300
H 	H 	0.23560 0.51290 0.00140 0.00700
C 	C 	0.43030 0.47500 0.06480 -0.02300
H 	H 	0.38380 0.45790 0.10700 0.03400
C 	C 	0.27060 0.68030 0.86030 0.55700
C 	C 	0.25900 0.71720 0.93180 -0.15500
C 	C 	0.37890 0.74610 0.95180 -0.02300
H 	H 	0.46490 0.74340 0.92180 0.05900
C 	C 	0.36140 0.77900 0.01950 0.03000
H 	H 	0.43600 0.79920 0.03160 0.02900
C 	C 	0.16700 0.63160 0.30800 -0.35300
H 	H 	0.27580 0.63910 0.34780 0.14800
C 	C 	0.09700 0.63130 0.17300 -0.72700
H 	H 	0.15730 0.63780 0.12170 0.25000
O 	O 	0.57190 0.11270 0.59320 -0.64700
O 	O 	0.80390 0.13220 0.57260 -0.55500
O 	O 	0.66860 0.06852 0.84420 -0.55000
O 	O 	0.89550 0.09100 0.82100 -0.53800
O 	O 	0.66290 0.15550 0.84210 -0.65900
O 	O 	0.89120 0.17720 0.82600 -0.55500
C 	C 	0.65670 0.12170 0.52780 0.52100
C 	C 	0.57560 0.12050 0.38310 -0.11900
C 	C 	0.66000 0.11060 0.30480 0.07900
H 	H 	0.77030 0.10390 0.34220 0.03200
C 	C 	0.58600 0.11030 0.17030 0.08600
H 	H 	0.64430 0.10340 0.11820 0.01500
C 	C 	0.81740 0.06620 0.86210 0.36100
C 	C 	0.91210 0.03220 0.93320 0.34200
C 	C 	0.83930 0.00770 -0.00000 -0.40300
H 	H 	0.73560 0.01290 0.00140 0.19400
C 	C 	0.93030 0.97500 0.06480 0.57600
H 	H 	0.88380 0.95790 0.10700 -0.12300
C 	C 	0.77060 0.18030 0.86030 0.54500
C 	C 	0.75900 0.21720 0.93180 -0.10600
C 	C 	0.87890 0.24610 0.95180 -0.00900
H 	H 	0.96490 0.24340 0.92180 0.10200
C 	C 	0.86140 0.27900 0.01950 0.03700
H 	H 	0.93600 0.29920 0.03160 0.07600
C 	C 	0.66700 0.13160 0.30800 -0.10500
H 	H 	0.77580 0.13910 0.34780 0.10300
C 	C 	0.59700 0.13130 0.17300 -0.08400
H 	H 	0.65730 0.13780 0.12170 0.07000
O 	O 	0.92810 0.61270 0.90680 -0.53700
O 	O 	0.69610 0.63220 0.92740 -0.58600
O 	O 	0.83140 0.56852 0.65580 -0.52000
O 	O 	0.60450 0.59100 0.67900 -0.64600
O 	O 	0.83710 0.65550 0.65790 -0.60400
O 	O 	0.60880 0.67720 0.67400 -0.62200
C 	C 	0.84330 0.62170 0.97220 0.43900
C 	C 	0.92440 0.62050 0.11690 0.18900
C 	C 	0.84000 0.61060 0.19520 -0.36500
H 	H 	0.72970 0.60390 0.15780 0.15200
C 	C 	0.91400 0.61030 0.32970 -0.16500
H 	H 	0.85570 0.60340 0.38180 0.10400
C 	C 	0.68260 0.56620 0.63790 0.49400
C 	C 	0.58790 0.53220 0.56680 -0.09800
C 	C 	0.66070 0.50770 0.50000 -0.03200
H 	H 	0.76440 0.51290 0.49860 0.09100
C 	C 	0.56970 0.47500 0.43520 0.04000
H 	H 	0.61620 0.45790 0.39300 0.02900
C 	C 	0.72940 0.68030 0.63970 0.55400
C 	C 	0.74100 0.71720 0.56820 -0.11700
C 	C 	0.62110 0.74610 0.54820 0.00200
H 	H 	0.53510 0.74340 0.57820 0.04100
C 	C 	0.63860 0.77900 0.48050 0.01200
H 	H 	0.56400 0.79920 0.46840 0.03300
C 	C 	0.83300 0.63160 0.19200 0.14800
H 	H 	0.72420 0.63910 0.15220 -0.00400
C 	C 	0.90300 0.63130 0.32700 0.52100
H 	H 	0.84270 0.63780 0.37830 -0.12200
O 	O 	0.42810 0.11270 0.90680 -0.66700
O 	O 	0.19610 0.13220 0.92740 -0.68200
O 	O 	0.33140 0.06852 0.65580 -0.64500
O 	O 	0.10450 0.09100 0.67900 -0.77100
O 	O 	0.33710 0.15550 0.65790 -0.68400
O 	O 	0.10880 0.17720 0.67400 -0.69800
C 	C 	0.34330 0.12170 0.97220 0.54900
C 	C 	0.42440 0.12050 0.11690 -0.16400
C 	C 	0.34000 0.11060 0.19520 0.12000
H 	H 	0.22970 0.10390 0.15780 -0.03100
C 	C 	0.41400 0.11030 0.32970 0.08500
H 	H 	0.35570 0.10340 0.38180 -0.00100
C 	C 	0.18260 0.06620 0.63790 0.66800
C 	C 	0.08790 0.03220 0.56680 -0.61600
C 	C 	0.16070 0.00770 0.50000 0.39700
H 	H 	0.26440 0.01290 0.49860 -0.10000
C 	C 	0.06970 0.97500 0.43520 -0.56800
H 	H 	0.11620 0.95790 0.39300 0.18900
C 	C 	0.22940 0.18030 0.63970 0.56600
C 	C 	0.24100 0.21720 0.56820 -0.16600
C 	C 	0.12110 0.24610 0.54820 -0.01300
H 	H 	0.03510 0.24340 0.57820 -0.00100
C 	C 	0.13860 0.27900 0.48050 0.00500
H 	H 	0.06400 0.29920 0.46840 -0.01400
C 	C 	0.33300 0.13160 0.19200 -0.09700
H 	H 	0.22420 0.13910 0.15220 0.04100
C 	C 	0.40300 0.13130 0.32700 -0.12000
H 	H 	0.34270 0.13780 0.37830 0.05700
Sc	Sc	0.50000 0.36605 0.25000 2.34900
Sc	Sc	0.00000 0.86605 0.25000 2.32700
Sc	Sc	0.50000 0.63395 0.75000 2.34900
Sc	Sc	0.00000 0.13395 0.75000 2.32700
Sc	Sc	0.00000 0.38725 0.25000 2.32700
Sc	Sc	0.50000 0.88725 0.25000 2.35100
Sc	Sc	0.00000 0.61275 0.75000 2.32700
Sc	Sc	0.50000 0.11275 0.75000 2.35100
