data_crystal

_cell_length_a 30.62100
_cell_length_b 19.85560
_cell_length_c 14.59200
_cell_angle_alpha 90.00000
_cell_angle_beta  102.38500
_cell_angle_gamma 90.00000

_symmetry_space_group_name_	'P 1'
_symmetry_space_group_name_H-M	'P 1'

loop_
_symmetry_equiv_pos_as_xyz
  x,y,z

loop_
_atom_site_label
_atom_site_type_symbol
_atom_site_fract_x
_atom_site_fract_y
_atom_site_fract_z
_atom_site_charge
C 	C 	0.20690 0.85530 0.94970 0.54800
C 	C 	0.17260 0.90590 0.96720 -0.25500
C 	C 	0.13810 0.92540 0.89830 0.17800
H 	H 	0.13440 0.90440 0.84010 -0.01600
C 	C 	0.10790 0.97520 0.90980 -0.25000
H 	H 	0.08930 0.99480 0.85800 0.11700
C 	C 	0.10620 0.99590 0.00450 0.22400
C 	C 	0.14070 0.97640 0.07830 -0.25300
H 	H 	0.14260 0.99230 0.13900 0.13700
C 	C 	0.17300 0.93110 0.05670 0.16500
H 	H 	0.19600 0.91720 0.10550 -0.02000
C 	C 	0.06180 0.06560 0.08870 0.19300
C 	C 	0.07120 0.08320 0.24500 0.20000
C 	C 	0.01540 0.13830 0.14280 0.19000
C 	C 	0.94460 0.18810 0.05410 0.24700
C 	C 	0.94460 0.16690 0.96760 -0.27000
H 	H 	0.96650 0.13780 0.95560 0.13800
C 	C 	0.90890 0.19110 0.89280 0.17200
H 	H 	0.90990 0.18220 0.83070 -0.01900
C 	C 	0.87400 0.22640 0.91200 -0.25700
C 	C 	0.87580 0.24960 0.00550 0.22600
H 	H 	0.85300 0.27540 0.02060 -0.04500
C 	C 	0.91050 0.23310 0.06720 -0.30800
H 	H 	0.91360 0.25230 0.12640 0.14100
C 	C 	0.83470 0.23910 0.83320 0.48900
C 	C 	0.21750 0.86560 0.48330 0.41100
C 	C 	0.18960 0.92080 0.43820 -0.18100
C 	C 	0.15530 0.91300 0.36080 0.13200
H 	H 	0.15380 0.87150 0.33080 0.00100
C 	C 	0.12360 0.95840 0.32290 -0.21200
H 	H 	0.10040 0.94810 0.27230 0.11300
C 	C 	0.12840 0.02420 0.36720 0.18200
C 	C 	0.16330 0.03700 0.44640 -0.21200
H 	H 	0.16660 0.07970 0.47320 0.10600
C 	C 	0.19160 0.98730 0.48280 0.11500
H 	H 	0.21300 0.99520 0.53750 0.00900
C 	C 	0.27580 0.86930 0.25020 0.40400
C 	C 	0.30340 0.92420 0.24060 -0.21400
C 	C 	0.34180 0.91770 0.19740 0.14300
H 	H 	0.34610 0.87720 0.16860 0.00100
C 	C 	0.37070 0.96680 0.19730 -0.22800
H 	H 	0.39740 0.95790 0.17900 0.11700
C 	C 	0.36120 0.03660 0.22600 0.22100
C 	C 	0.32500 0.04080 0.26830 -0.26700
H 	H 	0.32010 0.08140 0.29620 0.12400
C 	C 	0.29690 0.99090 0.27160 0.16800
H 	H 	0.27160 0.99970 0.29530 -0.01300
C 	C 	0.41610 0.10000 0.16020 0.19300
C 	C 	0.47460 0.15570 0.12360 0.19100
C 	C 	0.54720 0.20940 0.11100 0.25800
C 	C 	0.58120 0.25780 0.16000 -0.34800
H 	H 	0.57700 0.28110 0.21270 0.15500
C 	C 	0.61590 0.26630 0.12780 0.30000
H 	H 	0.63690 0.29750 0.15730 -0.07000
C 	C 	0.62430 0.23270 0.05350 -0.30000
C 	C 	0.59250 0.18670 0.00120 0.21200
H 	H 	0.59760 0.16420 0.94850 -0.03100
C 	C 	0.55430 0.17790 0.03360 -0.30400
H 	H 	0.53240 0.14910 0.00130 0.15000
C 	C 	0.66520 0.24390 0.01540 0.48000
C 	C 	0.43760 0.07520 0.02950 0.18400
C 	C 	0.40170 0.99480 0.90040 0.27200
C 	C 	0.40960 0.96720 0.81480 -0.30100
H 	H 	0.43350 0.98280 0.79070 0.13400
C 	C 	0.38300 0.91950 0.76960 0.22100
H 	H 	0.38950 0.90020 0.71600 -0.02700
C 	C 	0.34640 0.89820 0.80050 -0.25400
C 	C 	0.33700 0.92660 0.88140 0.22000
H 	H 	0.31180 0.91340 0.90260 -0.04100
C 	C 	0.36520 0.97350 0.92900 -0.32000
H 	H 	0.35890 0.99180 0.98350 0.15700
C 	C 	0.31430 0.84630 0.74380 0.47300
N 	N 	0.07130 0.03750 0.01110 -0.25900
H 	H 	0.05300 0.04680 0.95920 0.14100
N 	N 	0.08900 0.05450 0.17200 -0.17100
N 	N 	0.03990 0.12450 0.23960 -0.17600
N 	N 	0.02430 0.10600 0.06870 -0.17600
N 	N 	0.97860 0.17360 0.13950 -0.25700
H 	H 	0.97410 0.18940 0.19160 0.14300
N 	N 	0.09490 0.07470 0.33460 -0.24500
H 	H 	0.08930 0.10240 0.37590 0.14100
N 	N 	0.38980 0.08820 0.22400 -0.25900
H 	H 	0.39190 0.11740 0.26830 0.14200
N 	N 	0.45070 0.14660 0.19020 -0.17100
N 	N 	0.46990 0.12280 0.03870 -0.17400
N 	N 	0.40780 0.06590 0.08250 -0.17900
N 	N 	0.43360 0.04040 0.94270 -0.26000
H 	H 	0.45420 0.04900 0.91240 0.13900
N 	N 	0.50730 0.20180 0.14840 -0.25700
H 	H 	0.50420 0.22980 0.19150 0.14300
O 	O 	0.23520 0.83700 0.01910 -0.55800
O 	O 	0.80050 0.26540 0.85180 -0.60200
O 	O 	0.28300 0.81000 0.22030 -0.58700
O 	O 	0.32570 0.82640 0.66990 -0.47800
O 	O 	0.66790 0.20800 0.93920 -0.44300
O 	O 	0.24420 0.87990 0.56060 -0.42500
O 	O 	0.21510 0.80680 0.44830 -0.60500
O 	O 	0.20380 0.83760 0.86890 -0.55100
O 	O 	0.69810 0.27120 0.05630 -0.63100
O 	O 	0.24330 0.87550 0.29530 -0.42600
O 	O 	0.28010 0.82460 0.77050 -0.58300
O 	O 	0.83730 0.22670 0.75300 -0.49700
Tb	Tb	0.76213 0.24580 0.67979 1.98400
Tb	Tb	0.73366 0.26186 0.91297 1.92900
C 	C 	0.79310 0.35530 0.55030 0.54900
C 	C 	0.82740 0.40590 0.53280 -0.25300
C 	C 	0.86190 0.42540 0.60170 0.17900
H 	H 	0.86560 0.40440 0.65990 -0.01500
C 	C 	0.89210 0.47520 0.59020 -0.24800
H 	H 	0.91070 0.49480 0.64200 0.11800
C 	C 	0.89380 0.49590 0.49550 0.22400
C 	C 	0.85930 0.47640 0.42170 -0.25100
H 	H 	0.85740 0.49230 0.36100 0.13800
C 	C 	0.82700 0.43110 0.44330 0.16600
H 	H 	0.80400 0.41720 0.39450 -0.01900
C 	C 	0.93820 0.56560 0.41130 0.19400
C 	C 	0.92880 0.58320 0.25500 0.20000
C 	C 	0.98460 0.63830 0.35720 0.18900
C 	C 	0.05540 0.68810 0.44590 0.24800
C 	C 	0.05540 0.66690 0.53240 -0.27100
H 	H 	0.03350 0.63780 0.54440 0.13800
C 	C 	0.09110 0.69110 0.60720 0.17400
H 	H 	0.09010 0.68220 0.66930 -0.01900
C 	C 	0.12600 0.72640 0.58800 -0.25800
C 	C 	0.12420 0.74960 0.49450 0.22800
H 	H 	0.14700 0.77540 0.47940 -0.04500
C 	C 	0.08950 0.73310 0.43280 -0.30900
H 	H 	0.08640 0.75230 0.37360 0.14200
C 	C 	0.16530 0.73910 0.66680 0.49000
C 	C 	0.78250 0.36560 0.01670 0.41100
C 	C 	0.81040 0.42080 0.06180 -0.18000
C 	C 	0.84470 0.41300 0.13920 0.13200
H 	H 	0.84620 0.37150 0.16920 0.00100
C 	C 	0.87640 0.45840 0.17710 -0.21100
H 	H 	0.89960 0.44810 0.22770 0.11300
C 	C 	0.87160 0.52420 0.13280 0.18200
C 	C 	0.83670 0.53700 0.05360 -0.21200
H 	H 	0.83340 0.57970 0.02680 0.10600
C 	C 	0.80840 0.48730 0.01720 0.11400
H 	H 	0.78700 0.49520 0.96250 0.00900
C 	C 	0.72420 0.36930 0.24980 0.40400
C 	C 	0.69660 0.42420 0.25940 -0.21400
C 	C 	0.65820 0.41770 0.30260 0.14300
H 	H 	0.65390 0.37720 0.33140 0.00100
C 	C 	0.62930 0.46680 0.30270 -0.22800
H 	H 	0.60260 0.45790 0.32100 0.11700
C 	C 	0.63880 0.53660 0.27400 0.22100
C 	C 	0.67500 0.54080 0.23170 -0.26700
H 	H 	0.67990 0.58140 0.20380 0.12400
C 	C 	0.70310 0.49090 0.22840 0.16800
H 	H 	0.72840 0.49970 0.20470 -0.01300
C 	C 	0.58390 0.60000 0.33980 0.19300
C 	C 	0.52540 0.65570 0.37640 0.19100
C 	C 	0.45280 0.70940 0.38900 0.25900
C 	C 	0.41880 0.75780 0.34000 -0.34800
H 	H 	0.42300 0.78110 0.28730 0.15500
C 	C 	0.38410 0.76630 0.37220 0.30100
H 	H 	0.36310 0.79750 0.34270 -0.07000
C 	C 	0.37570 0.73270 0.44650 -0.30100
C 	C 	0.40750 0.68670 0.49880 0.21200
H 	H 	0.40240 0.66420 0.55150 -0.03200
C 	C 	0.44570 0.67790 0.46640 -0.30500
H 	H 	0.46760 0.64910 0.49870 0.15000
C 	C 	0.33480 0.74390 0.48460 0.48000
C 	C 	0.56240 0.57520 0.47050 0.18400
C 	C 	0.59830 0.49480 0.59960 0.27200
C 	C 	0.59040 0.46720 0.68520 -0.30100
H 	H 	0.56650 0.48280 0.70930 0.13400
C 	C 	0.61700 0.41950 0.73040 0.22100
H 	H 	0.61050 0.40020 0.78400 -0.02700
C 	C 	0.65360 0.39820 0.69950 -0.25400
C 	C 	0.66300 0.42660 0.61860 0.22000
H 	H 	0.68820 0.41340 0.59740 -0.04100
C 	C 	0.63480 0.47350 0.57100 -0.32000
H 	H 	0.64110 0.49180 0.51650 0.15700
C 	C 	0.68570 0.34630 0.75620 0.47300
N 	N 	0.92870 0.53750 0.48890 -0.25900
H 	H 	0.94700 0.54680 0.54080 0.14200
N 	N 	0.91100 0.55450 0.32800 -0.17100
N 	N 	0.96010 0.62450 0.26040 -0.17600
N 	N 	0.97570 0.60600 0.43130 -0.17600
N 	N 	0.02140 0.67360 0.36050 -0.25700
H 	H 	0.02590 0.68940 0.30840 0.14300
N 	N 	0.90510 0.57470 0.16540 -0.24500
H 	H 	0.91070 0.60240 0.12410 0.14100
N 	N 	0.61020 0.58820 0.27600 -0.25900
H 	H 	0.60810 0.61740 0.23170 0.14200
N 	N 	0.54930 0.64660 0.30980 -0.17100
N 	N 	0.53010 0.62280 0.46130 -0.17400
N 	N 	0.59220 0.56590 0.41750 -0.17900
N 	N 	0.56640 0.54040 0.55730 -0.26000
H 	H 	0.54580 0.54900 0.58760 0.13900
N 	N 	0.49270 0.70180 0.35160 -0.25700
H 	H 	0.49580 0.72980 0.30850 0.14300
O 	O 	0.76480 0.33700 0.48090 -0.55800
O 	O 	0.19950 0.76540 0.64820 -0.60200
O 	O 	0.71700 0.31000 0.27970 -0.58700
O 	O 	0.67430 0.32640 0.83010 -0.47800
O 	O 	0.33210 0.70800 0.56080 -0.44300
O 	O 	0.75580 0.37990 0.93940 -0.42400
O 	O 	0.78490 0.30680 0.05170 -0.60500
O 	O 	0.79620 0.33760 0.63110 -0.55100
O 	O 	0.30190 0.77120 0.44370 -0.63100
O 	O 	0.75670 0.37550 0.20470 -0.42600
O 	O 	0.71990 0.32460 0.72950 -0.58300
O 	O 	0.16270 0.72670 0.74700 -0.49800
Tb	Tb	0.23787 0.74580 0.82021 1.98400
Tb	Tb	0.26634 0.76186 0.58703 1.92900
C 	C 	0.79310 0.14470 0.05030 0.54900
C 	C 	0.82740 0.09410 0.03280 -0.25400
C 	C 	0.86190 0.07460 0.10170 0.17900
H 	H 	0.86560 0.09560 0.15990 -0.01500
C 	C 	0.89210 0.02480 0.09020 -0.24900
H 	H 	0.91070 0.00520 0.14200 0.11800
C 	C 	0.89380 0.00410 0.99550 0.22500
C 	C 	0.85930 0.02360 0.92170 -0.25200
H 	H 	0.85740 0.00770 0.86100 0.13800
C 	C 	0.82700 0.06890 0.94330 0.16600
H 	H 	0.80400 0.08280 0.89450 -0.01900
C 	C 	0.93820 0.93440 0.91130 0.19400
C 	C 	0.92880 0.91680 0.75500 0.20000
C 	C 	0.98460 0.86170 0.85720 0.19000
C 	C 	0.05540 0.81190 0.94590 0.24700
C 	C 	0.05540 0.83310 0.03240 -0.27000
H 	H 	0.03350 0.86220 0.04440 0.13800
C 	C 	0.09110 0.80890 0.10720 0.17200
H 	H 	0.09010 0.81780 0.16930 -0.01900
C 	C 	0.12600 0.77360 0.08800 -0.25700
C 	C 	0.12420 0.75040 0.99450 0.22600
H 	H 	0.14700 0.72460 0.97940 -0.04500
C 	C 	0.08950 0.76690 0.93280 -0.30800
H 	H 	0.08640 0.74770 0.87360 0.14100
C 	C 	0.16530 0.76090 0.16680 0.48900
C 	C 	0.78250 0.13440 0.51670 0.41100
C 	C 	0.81040 0.07920 0.56180 -0.18100
C 	C 	0.84470 0.08700 0.63920 0.13200
H 	H 	0.84620 0.12850 0.66920 0.00100
C 	C 	0.87640 0.04160 0.67710 -0.21200
H 	H 	0.89960 0.05190 0.72770 0.11300
C 	C 	0.87160 0.97580 0.63280 0.18200
C 	C 	0.83670 0.96300 0.55360 -0.21200
H 	H 	0.83340 0.92030 0.52680 0.10600
C 	C 	0.80840 0.01270 0.51720 0.11500
H 	H 	0.78700 0.00480 0.46250 0.00900
C 	C 	0.72420 0.13070 0.74980 0.40400
C 	C 	0.69660 0.07580 0.75940 -0.21400
C 	C 	0.65820 0.08230 0.80260 0.14300
H 	H 	0.65390 0.12280 0.83140 0.00100
C 	C 	0.62930 0.03320 0.80270 -0.22800
H 	H 	0.60260 0.04210 0.82100 0.11700
C 	C 	0.63880 0.96340 0.77400 0.22100
C 	C 	0.67500 0.95920 0.73170 -0.26700
H 	H 	0.67990 0.91860 0.70380 0.12400
C 	C 	0.70310 0.00910 0.72840 0.16800
H 	H 	0.72840 0.00030 0.70470 -0.01300
C 	C 	0.58390 0.90000 0.83980 0.19300
C 	C 	0.52540 0.84430 0.87640 0.19100
C 	C 	0.45280 0.79060 0.88900 0.25800
C 	C 	0.41880 0.74220 0.84000 -0.34800
H 	H 	0.42300 0.71890 0.78730 0.15500
C 	C 	0.38410 0.73370 0.87220 0.30000
H 	H 	0.36310 0.70250 0.84270 -0.07000
C 	C 	0.37570 0.76730 0.94650 -0.30000
C 	C 	0.40750 0.81330 0.99880 0.21200
H 	H 	0.40240 0.83580 0.05150 -0.03100
C 	C 	0.44570 0.82210 0.96640 -0.30400
H 	H 	0.46760 0.85090 0.99870 0.15000
C 	C 	0.33480 0.75610 0.98460 0.48000
C 	C 	0.56240 0.92480 0.97050 0.18400
C 	C 	0.59830 0.00520 0.09960 0.27200
C 	C 	0.59040 0.03280 0.18520 -0.30100
H 	H 	0.56650 0.01720 0.20930 0.13400
C 	C 	0.61700 0.08050 0.23040 0.22100
H 	H 	0.61050 0.09980 0.28400 -0.02700
C 	C 	0.65360 0.10180 0.19950 -0.25400
C 	C 	0.66300 0.07340 0.11860 0.22000
H 	H 	0.68820 0.08660 0.09740 -0.04100
C 	C 	0.63480 0.02650 0.07100 -0.32000
H 	H 	0.64110 0.00820 0.01650 0.15700
C 	C 	0.68570 0.15370 0.25620 0.47300
N 	N 	0.92870 0.96250 0.98890 -0.25900
H 	H 	0.94700 0.95320 0.04080 0.14100
N 	N 	0.91100 0.94550 0.82800 -0.17100
N 	N 	0.96010 0.87550 0.76040 -0.17600
N 	N 	0.97570 0.89400 0.93130 -0.17600
N 	N 	0.02140 0.82640 0.86050 -0.25700
H 	H 	0.02590 0.81060 0.80840 0.14300
N 	N 	0.90510 0.92530 0.66540 -0.24500
H 	H 	0.91070 0.89760 0.62410 0.14100
N 	N 	0.61020 0.91180 0.77600 -0.25900
H 	H 	0.60810 0.88260 0.73170 0.14200
N 	N 	0.54930 0.85340 0.80980 -0.17100
N 	N 	0.53010 0.87720 0.96130 -0.17400
N 	N 	0.59220 0.93410 0.91750 -0.17900
N 	N 	0.56640 0.95960 0.05730 -0.26000
H 	H 	0.54580 0.95100 0.08760 0.13900
N 	N 	0.49270 0.79820 0.85160 -0.25700
H 	H 	0.49580 0.77020 0.80850 0.14300
O 	O 	0.76480 0.16300 0.98090 -0.55800
O 	O 	0.19950 0.73460 0.14820 -0.60200
O 	O 	0.71700 0.19000 0.77970 -0.58700
O 	O 	0.67430 0.17360 0.33010 -0.47800
O 	O 	0.33210 0.79200 0.06080 -0.44300
O 	O 	0.75580 0.12010 0.43940 -0.42500
O 	O 	0.78490 0.19320 0.55170 -0.60500
O 	O 	0.79620 0.16240 0.13110 -0.55100
O 	O 	0.30190 0.72880 0.94370 -0.63100
O 	O 	0.75670 0.12450 0.70470 -0.42600
O 	O 	0.71990 0.17540 0.22950 -0.58300
O 	O 	0.16270 0.77330 0.24700 -0.49700
Tb	Tb	0.23787 0.75420 0.32021 1.98400
Tb	Tb	0.26634 0.73814 0.08703 1.92900
C 	C 	0.20690 0.64470 0.44970 0.54900
C 	C 	0.17260 0.59410 0.46720 -0.25300
C 	C 	0.13810 0.57460 0.39830 0.17900
H 	H 	0.13440 0.59560 0.34010 -0.01500
C 	C 	0.10790 0.52480 0.40980 -0.24800
H 	H 	0.08930 0.50520 0.35800 0.11800
C 	C 	0.10620 0.50410 0.50450 0.22400
C 	C 	0.14070 0.52360 0.57830 -0.25100
H 	H 	0.14260 0.50770 0.63900 0.13800
C 	C 	0.17300 0.56890 0.55670 0.16600
H 	H 	0.19600 0.58280 0.60550 -0.01900
C 	C 	0.06180 0.43440 0.58870 0.19400
C 	C 	0.07120 0.41680 0.74500 0.20000
C 	C 	0.01540 0.36170 0.64280 0.18900
C 	C 	0.94460 0.31190 0.55410 0.24800
C 	C 	0.94460 0.33310 0.46760 -0.27100
H 	H 	0.96650 0.36220 0.45560 0.13800
C 	C 	0.90890 0.30890 0.39280 0.17400
H 	H 	0.90990 0.31780 0.33070 -0.01900
C 	C 	0.87400 0.27360 0.41200 -0.25800
C 	C 	0.87580 0.25040 0.50550 0.22800
H 	H 	0.85300 0.22460 0.52060 -0.04500
C 	C 	0.91050 0.26690 0.56720 -0.30900
H 	H 	0.91360 0.24770 0.62640 0.14200
C 	C 	0.83470 0.26090 0.33320 0.49000
C 	C 	0.21750 0.63440 0.98330 0.41100
C 	C 	0.18960 0.57920 0.93820 -0.18000
C 	C 	0.15530 0.58700 0.86080 0.13200
H 	H 	0.15380 0.62850 0.83080 0.00100
C 	C 	0.12360 0.54160 0.82290 -0.21100
H 	H 	0.10040 0.55190 0.77230 0.11300
C 	C 	0.12840 0.47580 0.86720 0.18200
C 	C 	0.16330 0.46300 0.94640 -0.21200
H 	H 	0.16660 0.42030 0.97320 0.10600
C 	C 	0.19160 0.51270 0.98280 0.11400
H 	H 	0.21300 0.50480 0.03750 0.00900
C 	C 	0.27580 0.63070 0.75020 0.40400
C 	C 	0.30340 0.57580 0.74060 -0.21400
C 	C 	0.34180 0.58230 0.69740 0.14300
H 	H 	0.34610 0.62280 0.66860 0.00100
C 	C 	0.37070 0.53320 0.69730 -0.22800
H 	H 	0.39740 0.54210 0.67900 0.11700
C 	C 	0.36120 0.46340 0.72600 0.22100
C 	C 	0.32500 0.45920 0.76830 -0.26700
H 	H 	0.32010 0.41860 0.79620 0.12400
C 	C 	0.29690 0.50910 0.77160 0.16800
H 	H 	0.27160 0.50030 0.79530 -0.01300
C 	C 	0.41610 0.40000 0.66020 0.19300
C 	C 	0.47460 0.34430 0.62360 0.19100
C 	C 	0.54720 0.29060 0.61100 0.25900
C 	C 	0.58120 0.24220 0.66000 -0.34800
H 	H 	0.57700 0.21890 0.71270 0.15500
C 	C 	0.61590 0.23370 0.62780 0.30100
H 	H 	0.63690 0.20250 0.65730 -0.07000
C 	C 	0.62430 0.26730 0.55350 -0.30100
C 	C 	0.59250 0.31330 0.50120 0.21200
H 	H 	0.59760 0.33580 0.44850 -0.03200
C 	C 	0.55430 0.32210 0.53360 -0.30500
H 	H 	0.53240 0.35090 0.50130 0.15000
C 	C 	0.66520 0.25610 0.51540 0.48000
C 	C 	0.43760 0.42480 0.52950 0.18400
C 	C 	0.40170 0.50520 0.40040 0.27200
C 	C 	0.40960 0.53280 0.31480 -0.30100
H 	H 	0.43350 0.51720 0.29070 0.13400
C 	C 	0.38300 0.58050 0.26960 0.22100
H 	H 	0.38950 0.59980 0.21600 -0.02700
C 	C 	0.34640 0.60180 0.30050 -0.25400
C 	C 	0.33700 0.57340 0.38140 0.22000
H 	H 	0.31180 0.58660 0.40260 -0.04100
C 	C 	0.36520 0.52650 0.42900 -0.32000
H 	H 	0.35890 0.50820 0.48350 0.15700
C 	C 	0.31430 0.65370 0.24380 0.47300
N 	N 	0.07130 0.46250 0.51110 -0.25900
H 	H 	0.05300 0.45320 0.45920 0.14200
N 	N 	0.08900 0.44550 0.67200 -0.17100
N 	N 	0.03990 0.37550 0.73960 -0.17600
N 	N 	0.02430 0.39400 0.56870 -0.17600
N 	N 	0.97860 0.32640 0.63950 -0.25700
H 	H 	0.97410 0.31060 0.69160 0.14300
N 	N 	0.09490 0.42530 0.83460 -0.24500
H 	H 	0.08930 0.39760 0.87590 0.14100
N 	N 	0.38980 0.41180 0.72400 -0.25900
H 	H 	0.39190 0.38260 0.76830 0.14200
N 	N 	0.45070 0.35340 0.69020 -0.17100
N 	N 	0.46990 0.37720 0.53870 -0.17400
N 	N 	0.40780 0.43410 0.58250 -0.17900
N 	N 	0.43360 0.45960 0.44270 -0.26000
H 	H 	0.45420 0.45100 0.41240 0.13900
N 	N 	0.50730 0.29820 0.64840 -0.25700
H 	H 	0.50420 0.27020 0.69150 0.14300
O 	O 	0.23520 0.66300 0.51910 -0.55800
O 	O 	0.80050 0.23460 0.35180 -0.60200
O 	O 	0.28300 0.69000 0.72030 -0.58700
O 	O 	0.32570 0.67360 0.16990 -0.47800
O 	O 	0.66790 0.29200 0.43920 -0.44300
O 	O 	0.24420 0.62010 0.06060 -0.42400
O 	O 	0.21510 0.69320 0.94830 -0.60500
O 	O 	0.20380 0.66240 0.36890 -0.55100
O 	O 	0.69810 0.22880 0.55630 -0.63100
O 	O 	0.24330 0.62450 0.79530 -0.42600
O 	O 	0.28010 0.67540 0.27050 -0.58300
O 	O 	0.83730 0.27330 0.25300 -0.49800
Tb	Tb	0.76213 0.25420 0.17979 1.98400
Tb	Tb	0.73366 0.23814 0.41297 1.92900
