data_crystal

_cell_length_a 8.98130
_cell_length_b 19.71260
_cell_length_c 19.71260
_cell_angle_alpha 90.00000
_cell_angle_beta  90.00000
_cell_angle_gamma 90.00000

_symmetry_space_group_name_	'P 1'
_symmetry_space_group_name_H-M	'P 1'

loop_
_symmetry_equiv_pos_as_xyz
  x,y,z

loop_
_atom_site_label
_atom_site_type_symbol
_atom_site_fract_x
_atom_site_fract_y
_atom_site_fract_z
_atom_site_charge
Ba	Ba	0.77256 0.81713 0.64536 1.88400
Ba	Ba	0.76630 0.69162 0.86647 1.87500
Ba	Ba	0.77256 0.18287 0.35464 1.88400
Ba	Ba	0.76630 0.30838 0.13353 1.87500
Ba	Ba	0.77256 0.35464 0.81713 1.88500
Ba	Ba	0.76630 0.13353 0.69162 1.87600
Ba	Ba	0.77256 0.64536 0.18287 1.88500
Ba	Ba	0.76630 0.86647 0.30838 1.87600
Ba	Ba	0.27256 0.31713 0.85464 1.97200
Ba	Ba	0.26630 0.19162 0.63353 1.95500
Ba	Ba	0.27256 0.68287 0.14536 1.97200
Ba	Ba	0.26630 0.80838 0.36647 1.95500
Ba	Ba	0.27256 0.85464 0.68287 1.97200
Ba	Ba	0.26630 0.63353 0.80838 1.95500
Ba	Ba	0.27256 0.14536 0.31713 1.97200
Ba	Ba	0.26630 0.36647 0.19162 1.95500
H 	H 	0.66700 0.88700 0.00100 0.04100
H 	H 	0.75700 0.82600 0.01600 0.04200
H 	H 	0.47800 0.79700 0.02700 0.10000
H 	H 	0.44800 0.74200 0.96800 0.08700
H 	H 	0.44500 0.86700 0.91700 0.13900
H 	H 	0.57200 0.87100 0.87500 0.15300
H 	H 	0.89900 0.90000 0.96600 0.01600
H 	H 	0.82400 0.89000 0.89900 0.02400
H 	H 	0.10200 0.79700 0.84600 0.04500
H 	H 	0.06600 0.87000 0.86300 0.10300
H 	H 	0.00200 0.79500 0.01700 0.10600
H 	H 	0.11800 0.82300 0.97800 0.08200
H 	H 	0.66700 0.11300 0.99900 0.04100
H 	H 	0.75700 0.17400 0.98400 0.04200
H 	H 	0.47800 0.20300 0.97300 0.10000
H 	H 	0.44800 0.25800 0.03200 0.08700
H 	H 	0.44500 0.13300 0.08300 0.13900
H 	H 	0.57200 0.12900 0.12500 0.15300
H 	H 	0.89900 0.10000 0.03400 0.01600
H 	H 	0.82400 0.11000 0.10100 0.02400
H 	H 	0.10200 0.20300 0.15400 0.04500
H 	H 	0.06600 0.13000 0.13700 0.10300
H 	H 	0.00200 0.20500 0.98300 0.10600
H 	H 	0.11800 0.17700 0.02200 0.08200
H 	H 	0.66700 0.99900 0.88700 0.04100
H 	H 	0.75700 0.98400 0.82600 0.04200
H 	H 	0.47800 0.97300 0.79700 0.10000
H 	H 	0.44800 0.03200 0.74200 0.08700
H 	H 	0.44500 0.08300 0.86700 0.13900
H 	H 	0.57200 0.12500 0.87100 0.15300
H 	H 	0.89900 0.03400 0.90000 0.01600
H 	H 	0.82400 0.10100 0.89000 0.02400
H 	H 	0.10200 0.15400 0.79700 0.04500
H 	H 	0.06600 0.13700 0.87000 0.10300
H 	H 	0.00200 0.98300 0.79500 0.10600
H 	H 	0.11800 0.02200 0.82300 0.08200
H 	H 	0.66700 0.00100 0.11300 0.04100
H 	H 	0.75700 0.01600 0.17400 0.04200
H 	H 	0.47800 0.02700 0.20300 0.10000
H 	H 	0.44800 0.96800 0.25800 0.08700
H 	H 	0.44500 0.91700 0.13300 0.13900
H 	H 	0.57200 0.87500 0.12900 0.15300
H 	H 	0.89900 0.96600 0.10000 0.01600
H 	H 	0.82400 0.89900 0.11000 0.02400
H 	H 	0.10200 0.84600 0.20300 0.04500
H 	H 	0.06600 0.86300 0.13000 0.10300
H 	H 	0.00200 0.01700 0.20500 0.10600
H 	H 	0.11800 0.97800 0.17700 0.08200
H 	H 	0.16700 0.38700 0.49900 0.04300
H 	H 	0.25700 0.32600 0.48400 0.03600
H 	H 	0.97800 0.29700 0.47300 -0.00800
H 	H 	0.94800 0.24200 0.53200 -0.03200
H 	H 	0.94500 0.36700 0.58300 0.05000
H 	H 	0.07200 0.37100 0.62500 0.09900
H 	H 	0.39900 0.40000 0.53400 0.03500
H 	H 	0.32400 0.39000 0.60100 0.04000
H 	H 	0.60200 0.29700 0.65400 0.07800
H 	H 	0.56600 0.37000 0.63700 0.13600
H 	H 	0.50200 0.29500 0.48300 0.10200
H 	H 	0.61800 0.32300 0.52200 0.08900
H 	H 	0.16700 0.61300 0.50100 0.04300
H 	H 	0.25700 0.67400 0.51600 0.03600
H 	H 	0.97800 0.70300 0.52700 -0.00800
H 	H 	0.94800 0.75800 0.46800 -0.03200
H 	H 	0.94500 0.63300 0.41700 0.05000
H 	H 	0.07200 0.62900 0.37500 0.09900
H 	H 	0.39900 0.60000 0.46600 0.03500
H 	H 	0.32400 0.61000 0.39900 0.04000
H 	H 	0.60200 0.70300 0.34600 0.07800
H 	H 	0.56600 0.63000 0.36300 0.13600
H 	H 	0.50200 0.70500 0.51700 0.10200
H 	H 	0.61800 0.67700 0.47800 0.08900
H 	H 	0.16700 0.49900 0.61300 0.04300
H 	H 	0.25700 0.48400 0.67400 0.03600
H 	H 	0.97800 0.47300 0.70300 -0.00800
H 	H 	0.94800 0.53200 0.75800 -0.03200
H 	H 	0.94500 0.58300 0.63300 0.05000
H 	H 	0.07200 0.62500 0.62900 0.09900
H 	H 	0.39900 0.53400 0.60000 0.03500
H 	H 	0.32400 0.60100 0.61000 0.04000
H 	H 	0.60200 0.65400 0.70300 0.07800
H 	H 	0.56600 0.63700 0.63000 0.13600
H 	H 	0.50200 0.48300 0.70500 0.10200
H 	H 	0.61800 0.52200 0.67700 0.08900
H 	H 	0.16700 0.50100 0.38700 0.04300
H 	H 	0.25700 0.51600 0.32600 0.03600
H 	H 	0.97800 0.52700 0.29700 -0.00800
H 	H 	0.94800 0.46800 0.24200 -0.03200
H 	H 	0.94500 0.41700 0.36700 0.05000
H 	H 	0.07200 0.37500 0.37100 0.09900
H 	H 	0.39900 0.46600 0.40000 0.03500
H 	H 	0.32400 0.39900 0.39000 0.04000
H 	H 	0.60200 0.34600 0.29700 0.07800
H 	H 	0.56600 0.36300 0.37000 0.13600
H 	H 	0.50200 0.51700 0.29500 0.10200
H 	H 	0.61800 0.47800 0.32300 0.08900
C 	C 	0.71360 0.84580 0.98180 -0.10700
C 	C 	0.51860 0.76430 0.99390 -0.36200
C 	C 	0.60440 0.70970 0.03210 0.47000
C 	C 	0.52010 0.83830 0.89670 -0.43700
C 	C 	0.44290 0.79450 0.84430 0.52200
C 	C 	0.84670 0.86630 0.94010 -0.05500
C 	C 	0.02560 0.82850 0.85810 -0.24000
C 	C 	0.93310 0.83010 0.79300 0.38100
C 	C 	0.03730 0.78680 0.97360 -0.28100
C 	C 	0.10450 0.71570 0.96460 0.45900
C 	C 	0.71360 0.15420 0.01820 -0.10700
C 	C 	0.51860 0.23570 0.00610 -0.36200
C 	C 	0.60440 0.29030 0.96790 0.47000
C 	C 	0.52010 0.16170 0.10330 -0.43700
C 	C 	0.44290 0.20550 0.15570 0.52200
C 	C 	0.84670 0.13370 0.05990 -0.05500
C 	C 	0.02560 0.17150 0.14190 -0.24000
C 	C 	0.93310 0.16990 0.20700 0.38100
C 	C 	0.03730 0.21320 0.02640 -0.28100
C 	C 	0.10450 0.28430 0.03540 0.45900
C 	C 	0.71360 0.01820 0.84580 -0.10700
C 	C 	0.51860 0.00610 0.76430 -0.36200
C 	C 	0.60440 0.96790 0.70970 0.47000
C 	C 	0.52010 0.10330 0.83830 -0.43700
C 	C 	0.44290 0.15570 0.79450 0.52200
C 	C 	0.84670 0.05990 0.86630 -0.05500
C 	C 	0.02560 0.14190 0.82850 -0.24000
C 	C 	0.93310 0.20700 0.83010 0.38100
C 	C 	0.03730 0.02640 0.78680 -0.28100
C 	C 	0.10450 0.03540 0.71570 0.45900
C 	C 	0.71360 0.98180 0.15420 -0.10700
C 	C 	0.51860 0.99390 0.23570 -0.36200
C 	C 	0.60440 0.03210 0.29030 0.47000
C 	C 	0.52010 0.89670 0.16170 -0.43700
C 	C 	0.44290 0.84430 0.20550 0.52200
C 	C 	0.84670 0.94010 0.13370 -0.05500
C 	C 	0.02560 0.85810 0.17150 -0.24000
C 	C 	0.93310 0.79300 0.16990 0.38100
C 	C 	0.03730 0.97360 0.21320 -0.28100
C 	C 	0.10450 0.96460 0.28430 0.45900
C 	C 	0.21360 0.34580 0.51820 -0.07600
C 	C 	0.01860 0.26430 0.50610 -0.10100
C 	C 	0.10440 0.20970 0.46790 0.40000
C 	C 	0.02010 0.33830 0.60330 -0.22900
C 	C 	0.94290 0.29450 0.65570 0.42900
C 	C 	0.34670 0.36630 0.55990 -0.07900
C 	C 	0.52560 0.32850 0.64190 -0.37400
C 	C 	0.43310 0.33010 0.70700 0.44400
C 	C 	0.53730 0.28680 0.52640 -0.33000
C 	C 	0.60450 0.21570 0.53540 0.46600
C 	C 	0.21360 0.65420 0.48180 -0.07600
C 	C 	0.01860 0.73570 0.49390 -0.10100
C 	C 	0.10440 0.79030 0.53210 0.40000
C 	C 	0.02010 0.66170 0.39670 -0.22900
C 	C 	0.94290 0.70550 0.34430 0.42900
C 	C 	0.34670 0.63370 0.44010 -0.07900
C 	C 	0.52560 0.67150 0.35810 -0.37400
C 	C 	0.43310 0.66990 0.29300 0.44400
C 	C 	0.53730 0.71320 0.47360 -0.33000
C 	C 	0.60450 0.78430 0.46460 0.46600
C 	C 	0.21360 0.51820 0.65420 -0.07600
C 	C 	0.01860 0.50610 0.73570 -0.10100
C 	C 	0.10440 0.46790 0.79030 0.40000
C 	C 	0.02010 0.60330 0.66170 -0.22900
C 	C 	0.94290 0.65570 0.70550 0.42900
C 	C 	0.34670 0.55990 0.63370 -0.07900
C 	C 	0.52560 0.64190 0.67150 -0.37400
C 	C 	0.43310 0.70700 0.66990 0.44400
C 	C 	0.53730 0.52640 0.71320 -0.33000
C 	C 	0.60450 0.53540 0.78430 0.46600
C 	C 	0.21360 0.48180 0.34580 -0.07600
C 	C 	0.01860 0.49390 0.26430 -0.10100
C 	C 	0.10440 0.53210 0.20970 0.40000
C 	C 	0.02010 0.39670 0.33830 -0.22900
C 	C 	0.94290 0.34430 0.29450 0.42900
C 	C 	0.34670 0.44010 0.36630 -0.07900
C 	C 	0.52560 0.35810 0.32850 -0.37400
C 	C 	0.43310 0.29300 0.33010 0.44400
C 	C 	0.53730 0.47360 0.28680 -0.33000
C 	C 	0.60450 0.46460 0.21570 0.46600
N 	N 	0.61060 0.80050 0.94560 -0.07000
N 	N 	0.93860 0.80920 0.91880 -0.14500
N 	N 	0.61060 0.19950 0.05440 -0.07000
N 	N 	0.93860 0.19080 0.08120 -0.14500
N 	N 	0.61060 0.05440 0.80050 -0.07000
N 	N 	0.93860 0.08120 0.80920 -0.14500
N 	N 	0.61060 0.94560 0.19950 -0.07000
N 	N 	0.93860 0.91880 0.19080 -0.14500
N 	N 	0.11060 0.30050 0.55440 -0.12500
N 	N 	0.43860 0.30920 0.58120 -0.09500
N 	N 	0.11060 0.69950 0.44560 -0.12500
N 	N 	0.43860 0.69080 0.41880 -0.09500
N 	N 	0.11060 0.55440 0.69950 -0.12500
N 	N 	0.43860 0.58120 0.69080 -0.09500
N 	N 	0.11060 0.44560 0.30050 -0.12500
N 	N 	0.43860 0.41880 0.30920 -0.09500
O 	O 	0.71470 0.68440 0.00200 -0.60300
O 	O 	0.55970 0.69220 0.08890 -0.66400
O 	O 	0.47650 0.73290 0.84000 -0.66200
O 	O 	0.35000 0.82430 0.80790 -0.58100
O 	O 	0.80050 0.81055 0.79331 -0.56900
O 	O 	0.99890 0.85180 0.74151 -0.64800
O 	O 	0.18830 0.69560 0.01090 -0.57200
O 	O 	0.07140 0.68370 0.91170 -0.61400
O 	O 	0.71470 0.31560 0.99800 -0.60300
O 	O 	0.55970 0.30780 0.91110 -0.66400
O 	O 	0.47650 0.26710 0.16000 -0.66200
O 	O 	0.35000 0.17570 0.19210 -0.58100
O 	O 	0.80050 0.18945 0.20669 -0.56900
O 	O 	0.99890 0.14820 0.25849 -0.64800
O 	O 	0.18830 0.30440 0.98910 -0.57200
O 	O 	0.07140 0.31630 0.08830 -0.61400
O 	O 	0.71470 0.99800 0.68440 -0.60300
O 	O 	0.55970 0.91110 0.69220 -0.66400
O 	O 	0.47650 0.16000 0.73290 -0.66200
O 	O 	0.35000 0.19210 0.82430 -0.58100
O 	O 	0.80050 0.20669 0.81055 -0.56900
O 	O 	0.99890 0.25849 0.85180 -0.64800
O 	O 	0.18830 0.98910 0.69560 -0.57200
O 	O 	0.07140 0.08830 0.68370 -0.61400
O 	O 	0.71470 0.00200 0.31560 -0.60300
O 	O 	0.55970 0.08890 0.30780 -0.66400
O 	O 	0.47650 0.84000 0.26710 -0.66200
O 	O 	0.35000 0.80790 0.17570 -0.58100
O 	O 	0.80050 0.79331 0.18945 -0.56900
O 	O 	0.99890 0.74151 0.14820 -0.64800
O 	O 	0.18830 0.01090 0.30440 -0.57200
O 	O 	0.07140 0.91170 0.31630 -0.61400
O 	O 	0.21470 0.18440 0.49800 -0.57700
O 	O 	0.05970 0.19220 0.41110 -0.61700
O 	O 	0.97650 0.23290 0.66000 -0.66100
O 	O 	0.85000 0.32430 0.69210 -0.55900
O 	O 	0.30050 0.31055 0.70669 -0.58300
O 	O 	0.49890 0.35180 0.75849 -0.63500
O 	O 	0.68830 0.19560 0.48910 -0.57700
O 	O 	0.57140 0.18370 0.58830 -0.63600
O 	O 	0.21470 0.81560 0.50200 -0.57700
O 	O 	0.05970 0.80780 0.58890 -0.61700
O 	O 	0.97650 0.76710 0.34000 -0.66100
O 	O 	0.85000 0.67570 0.30790 -0.55900
O 	O 	0.30050 0.68945 0.29331 -0.58300
O 	O 	0.49890 0.64820 0.24151 -0.63500
O 	O 	0.68830 0.80440 0.51090 -0.57700
O 	O 	0.57140 0.81630 0.41170 -0.63600
O 	O 	0.21470 0.49800 0.81560 -0.57700
O 	O 	0.05970 0.41110 0.80780 -0.61700
O 	O 	0.97650 0.66000 0.76710 -0.66100
O 	O 	0.85000 0.69210 0.67570 -0.55900
O 	O 	0.30050 0.70669 0.68945 -0.58300
O 	O 	0.49890 0.75849 0.64820 -0.63500
O 	O 	0.68830 0.48910 0.80440 -0.57700
O 	O 	0.57140 0.58830 0.81630 -0.63600
O 	O 	0.21470 0.50200 0.18440 -0.57700
O 	O 	0.05970 0.58890 0.19220 -0.61700
O 	O 	0.97650 0.34000 0.23290 -0.66100
O 	O 	0.85000 0.30790 0.32430 -0.55900
O 	O 	0.30050 0.29331 0.31055 -0.58300
O 	O 	0.49890 0.24151 0.35180 -0.63500
O 	O 	0.68830 0.51090 0.19560 -0.57700
O 	O 	0.57140 0.41170 0.18370 -0.63600
