data_crystal

_cell_length_a 16.16000
_cell_length_b 16.16000
_cell_length_c 13.46000
_cell_angle_alpha 90.00000
_cell_angle_beta  90.00000
_cell_angle_gamma 90.00000

_symmetry_space_group_name_	'P 1'
_symmetry_space_group_name_H-M	'P 1'

loop_
_symmetry_equiv_pos_as_xyz
  x,y,z

loop_
_atom_site_label
_atom_site_type_symbol
_atom_site_fract_x
_atom_site_fract_y
_atom_site_fract_z
_atom_site_charge
C 	C 	0.33140 0.03280 0.23630 -0.20700
N 	N 	0.46720 0.16860 0.23630 -0.20800
C 	C 	0.83140 0.53280 0.73630 -0.20700
N 	N 	0.96720 0.66860 0.73630 -0.20800
C 	C 	0.66860 0.96720 0.23630 -0.20700
N 	N 	0.53280 0.83140 0.23630 -0.20800
C 	C 	0.16860 0.46720 0.73630 -0.20700
N 	N 	0.03280 0.33140 0.73630 -0.20800
C 	C 	0.96720 0.33140 0.23630 -0.20700
N 	N 	0.83140 0.46720 0.23630 -0.20800
C 	C 	0.46720 0.83140 0.73630 -0.20700
N 	N 	0.33140 0.96720 0.73630 -0.20800
C 	C 	0.03280 0.66860 0.23630 -0.20700
N 	N 	0.16860 0.53280 0.23630 -0.20800
C 	C 	0.53280 0.16860 0.73630 -0.20700
N 	N 	0.66860 0.03280 0.73630 -0.20800
C 	C 	0.66860 0.03280 0.26370 -0.20700
N 	N 	0.53280 0.16860 0.26370 -0.20800
C 	C 	0.16860 0.53280 0.76370 -0.20700
N 	N 	0.03280 0.66860 0.76370 -0.20800
C 	C 	0.33140 0.96720 0.26370 -0.20700
N 	N 	0.46720 0.83140 0.26370 -0.20800
C 	C 	0.83140 0.46720 0.76370 -0.20700
N 	N 	0.96720 0.33140 0.76370 -0.20800
C 	C 	0.03280 0.33140 0.26370 -0.20700
N 	N 	0.16860 0.46720 0.26370 -0.20800
C 	C 	0.53280 0.83140 0.76370 -0.20700
N 	N 	0.66860 0.96720 0.76370 -0.20800
C 	C 	0.96720 0.66860 0.26370 -0.20700
N 	N 	0.83140 0.53280 0.26370 -0.20800
C 	C 	0.46720 0.16860 0.76370 -0.20700
N 	N 	0.33140 0.03280 0.76370 -0.20800
Cu	Cu	0.35424 0.14576 0.18818 0.83500
C 	C 	0.35290 0.14710 0.04230 -0.21000
C 	C 	0.27350 0.22650 0.23800 -0.21000
Cu	Cu	0.64576 0.85424 0.18818 0.83500
C 	C 	0.64710 0.85290 0.04230 -0.21000
C 	C 	0.72650 0.77350 0.23800 -0.21000
Cu	Cu	0.14576 0.35424 0.68818 0.83500
C 	C 	0.14710 0.35290 0.54230 -0.21000
C 	C 	0.22650 0.27350 0.73800 -0.21000
Cu	Cu	0.85424 0.35424 0.18818 0.83500
C 	C 	0.85290 0.35290 0.04230 -0.21000
C 	C 	0.77350 0.27350 0.23800 -0.21000
Cu	Cu	0.14576 0.64576 0.18818 0.83500
C 	C 	0.14710 0.64710 0.04230 -0.21000
C 	C 	0.22650 0.72650 0.23800 -0.21000
Cu	Cu	0.64576 0.14576 0.31182 0.83500
C 	C 	0.64710 0.14710 0.45770 -0.21000
C 	C 	0.72650 0.22650 0.26200 -0.21000
Cu	Cu	0.35424 0.85424 0.31182 0.83500
C 	C 	0.35290 0.85290 0.45770 -0.21000
C 	C 	0.27350 0.77350 0.26200 -0.21000
Cu	Cu	0.14576 0.35424 0.31182 0.83500
C 	C 	0.14710 0.35290 0.45770 -0.21000
C 	C 	0.22650 0.27350 0.26200 -0.21000
Cu	Cu	0.85424 0.64576 0.31182 0.83500
C 	C 	0.85290 0.64710 0.45770 -0.21000
C 	C 	0.77350 0.72650 0.26200 -0.21000
Cu	Cu	0.64576 0.85424 0.81182 0.83500
C 	C 	0.64710 0.85290 0.95770 -0.21000
C 	C 	0.72650 0.77350 0.76200 -0.21000
Cu	Cu	0.35424 0.14576 0.81182 0.83500
C 	C 	0.35290 0.14710 0.95770 -0.21000
C 	C 	0.27350 0.22650 0.76200 -0.21000
Cu	Cu	0.14576 0.64576 0.81182 0.83500
C 	C 	0.14710 0.64710 0.95770 -0.21000
C 	C 	0.22650 0.72650 0.76200 -0.21000
Cu	Cu	0.85424 0.35424 0.81182 0.83500
C 	C 	0.85290 0.35290 0.95770 -0.21000
C 	C 	0.77350 0.27350 0.76200 -0.21000
Cu	Cu	0.35424 0.85424 0.68818 0.83500
C 	C 	0.35290 0.85290 0.54230 -0.21000
C 	C 	0.27350 0.77350 0.73800 -0.21000
Cu	Cu	0.64576 0.14576 0.68818 0.83500
C 	C 	0.64710 0.14710 0.54230 -0.21000
C 	C 	0.72650 0.22650 0.73800 -0.21000
Cu	Cu	0.85424 0.64576 0.68818 0.83500
C 	C 	0.85290 0.64710 0.54230 -0.21000
C 	C 	0.77350 0.72650 0.73800 -0.21000
