data_crystal

_cell_length_a 9.66600
_cell_length_b 11.35800
_cell_length_c 13.67100
_cell_angle_alpha 69.70100
_cell_angle_beta  70.79200
_cell_angle_gamma 81.66800

_symmetry_space_group_name_	'P 1'
_symmetry_space_group_name_H-M	'P 1'

loop_
_symmetry_equiv_pos_as_xyz
  x,y,z

loop_
_atom_site_label
_atom_site_type_symbol
_atom_site_fract_x
_atom_site_fract_y
_atom_site_fract_z
_atom_site_charge
O 	O 	0.30040 0.42392 0.61810 -0.41900
O 	O 	0.15870 0.11630 0.97996 -0.37200
N 	N 	0.95870 0.16440 0.87735 -0.18700
N 	N 	0.29900 0.92250 0.71050 -0.16300
N 	N 	0.74880 0.14930 0.56260 -0.10300
O 	O 	0.27950 0.28740 0.86748 -0.23400
C 	C 	0.06580 0.24740 0.83700 -0.01400
N 	N 	0.41780 0.45880 0.22551 -0.15900
C 	C 	0.07460 0.35140 0.74340 -0.14500
N 	N 	0.59370 0.31280 0.55405 -0.21500
C 	C 	0.17840 0.21690 0.89860 0.28900
C 	C 	0.87570 0.07370 0.53060 -0.09500
N 	N 	0.42660 0.46020 0.38416 -0.22200
O 	O 	0.17470 0.54000 0.72330 -0.28500
C 	C 	0.40050 0.96210 0.60340 0.20600
C 	C 	0.49250 0.49480 0.27770 0.09200
H 	H 	0.57900 0.53840 0.24310 0.01900
C 	C 	0.54580 0.22230 0.65480 0.00200
H 	H 	0.46160 0.22970 0.71050 0.04600
C 	C 	0.19490 0.44600 0.69260 0.37200
C 	C 	0.29600 0.39880 0.30320 0.00600
H 	H 	0.22380 0.36410 0.29150 0.02100
N 	N 	0.14570 0.93240 0.86850 -0.21300
C 	C 	0.45950 0.48070 0.11050 0.23500
C 	C 	0.63970 0.12140 0.66030 -0.00500
H 	H 	0.63170 0.04750 0.71900 0.03800
C 	C 	0.30240 0.40060 0.40090 -0.00200
H 	H 	0.23360 0.36680 0.46840 0.02400
C 	C 	0.22870 0.99610 0.77180 0.17700
H 	H 	0.23800 0.08260 0.74830 -0.05200
C 	C 	0.25510 0.80220 0.77230 0.00800
H 	H 	0.28380 0.73010 0.75200 0.04400
C 	C 	0.96670 0.36820 0.69290 0.12500
H 	H 	0.97030 0.43530 0.62930 0.00500
C 	C 	0.71550 0.26610 0.50110 0.08100
H 	H 	0.77200 0.30760 0.43050 0.02100
C 	C 	0.16200 0.80980 0.86830 0.01000
H 	H 	0.11530 0.74200 0.92610 0.04400
C 	C 	0.85380 0.18340 0.82890 0.10200
H 	H 	0.77900 0.12660 0.85780 0.00600
C 	C 	0.85400 0.28540 0.73690 -0.15700
H 	H 	0.77920 0.29810 0.70510 0.09800
C 	C 	0.91520 0.97130 0.60770 0.19500
H 	H 	0.85910 0.95160 0.68070 -0.00700
C 	C 	0.48250 0.11550 0.42680 0.02600
H 	H 	0.47030 0.19390 0.37770 0.02800
C 	C 	0.38270 0.07770 0.53020 -0.21000
H 	H 	0.30350 0.13050 0.55020 0.10000
C 	C 	0.64710 0.50140 0.94050 0.16700
H 	H 	0.74570 0.50200 0.90030 0.00700
C 	C 	0.60670 0.48240 0.05200 -0.31100
H 	H 	0.67770 0.47110 0.08700 0.14900
C 	C 	0.03840 0.89730 0.57710 -0.32400
H 	H 	0.06320 0.82760 0.62970 0.14900
O 	O 	0.69960 0.57608 0.38190 -0.40500
O 	O 	0.84130 0.88370 0.02004 -0.38400
N 	N 	0.04130 0.83560 0.12265 -0.24000
N 	N 	0.70100 0.07750 0.28950 -0.11100
N 	N 	0.25120 0.85070 0.43740 -0.16800
O 	O 	0.72050 0.71260 0.13252 -0.24900
C 	C 	0.93420 0.75260 0.16300 0.01600
N 	N 	0.58220 0.54120 0.77449 -0.10600
C 	C 	0.92540 0.64860 0.25660 -0.02900
N 	N 	0.40630 0.68720 0.44595 -0.21700
C 	C 	0.82160 0.78310 0.10140 0.28600
C 	C 	0.12430 0.92630 0.46940 0.29200
N 	N 	0.57340 0.53980 0.61584 -0.22000
O 	O 	0.82530 0.46000 0.27670 -0.26900
C 	C 	0.59950 0.03790 0.39660 -0.01800
C 	C 	0.50750 0.50520 0.72230 0.07900
H 	H 	0.42100 0.46160 0.75690 0.03000
C 	C 	0.45420 0.77770 0.34520 -0.00900
H 	H 	0.53840 0.77030 0.28950 0.05000
C 	C 	0.80510 0.55400 0.30740 0.34300
C 	C 	0.70400 0.60120 0.69680 -0.00500
H 	H 	0.77620 0.63590 0.70850 0.05200
N 	N 	0.85430 0.06760 0.13150 -0.21100
C 	C 	0.54050 0.51930 0.88950 -0.04400
C 	C 	0.36030 0.87860 0.33970 0.02700
H 	H 	0.36830 0.95250 0.28100 0.03400
C 	C 	0.69760 0.59940 0.59910 0.00500
H 	H 	0.76640 0.63320 0.53160 0.04000
C 	C 	0.77130 0.00390 0.22820 0.03000
H 	H 	0.76200 0.91740 0.25170 0.04600
C 	C 	0.74490 0.19780 0.22770 -0.00600
H 	H 	0.71620 0.26990 0.24800 0.04800
C 	C 	0.03330 0.63180 0.30710 -0.04800
H 	H 	0.02970 0.56470 0.37070 0.03300
C 	C 	0.28450 0.73390 0.49890 0.09800
H 	H 	0.22800 0.69240 0.56950 0.00200
C 	C 	0.83800 0.19020 0.13170 0.00900
H 	H 	0.88470 0.25800 0.07390 0.02200
C 	C 	0.14620 0.81660 0.17110 0.04300
H 	H 	0.22100 0.87340 0.14220 0.00900
C 	C 	0.14600 0.71460 0.26310 -0.08200
H 	H 	0.22080 0.70190 0.29490 0.06400
C 	C 	0.08480 0.02870 0.39230 -0.37800
H 	H 	0.14090 0.04840 0.31930 0.14200
C 	C 	0.51750 0.88450 0.57320 -0.18100
H 	H 	0.52970 0.80610 0.62230 0.10700
C 	C 	0.61730 0.92230 0.46980 0.06400
H 	H 	0.69650 0.86950 0.44980 0.02700
C 	C 	0.35290 0.49860 0.05950 -0.31700
H 	H 	0.25430 0.49800 0.09970 0.13200
C 	C 	0.39330 0.51760 0.94800 0.16800
H 	H 	0.32230 0.52890 0.91300 0.00100
C 	C 	0.96160 0.10270 0.42290 0.18500
H 	H 	0.93680 0.17240 0.37030 -0.01100
Co	Co	0.50000 0.50000 0.50000 1.15000
Co	Co	-0.00000 0.00000 -0.00000 1.07600
