data_crystal

_cell_length_a 5.00600
_cell_length_b 11.05200
_cell_length_c 12.82510
_cell_angle_alpha 91.68390
_cell_angle_beta  101.25400
_cell_angle_gamma 81.34020

_symmetry_space_group_name_	'P 1'
_symmetry_space_group_name_H-M	'P 1'

loop_
_symmetry_equiv_pos_as_xyz
  x,y,z

loop_
_atom_site_label
_atom_site_type_symbol
_atom_site_fract_x
_atom_site_fract_y
_atom_site_fract_z
_atom_site_charge
Cu	Cu	0.82600 0.30453 0.22675 0.89900
Cu	Cu	0.59925 0.80453 0.77325 0.91300
H 	H 	0.59460 0.51040 0.87220 0.05500
H 	H 	0.83050 0.37460 0.00120 0.01300
H 	H 	0.33400 0.49450 0.19360 0.03200
H 	H 	0.07410 0.62910 0.06800 0.07800
H 	H 	0.01430 0.96010 0.48740 0.00200
H 	H 	0.79650 0.06940 0.33800 0.07700
H 	H 	0.32530 0.30240 0.38980 0.03200
H 	H 	0.55470 0.20140 0.54380 0.06400
H 	H 	0.72240 0.01040 0.12780 0.03000
H 	H 	0.82930 0.87460 0.99880 0.03400
H 	H 	0.14040 0.99450 0.80640 0.06000
H 	H 	0.00610 0.12910 0.93200 0.05400
H 	H 	0.52690 0.46010 0.51260 0.09200
H 	H 	0.45850 0.56940 0.66200 0.01900
H 	H 	0.93550 0.80240 0.61020 -0.01500
H 	H 	0.01090 0.70140 0.45620 0.14500
C 	C 	0.13818 0.67280 0.86856 0.36900
C 	C 	0.30408 0.58700 0.95436 -0.04500
C 	C 	0.53648 0.50840 0.93656 -0.04500
C 	C 	0.67915 0.42790 0.01510 0.02700
C 	C 	0.38585 0.49780 0.12810 0.03500
C 	C 	0.22910 0.57940 0.05300 -0.05800
C 	C 	0.46253 0.99880 0.63426 0.23600
C 	C 	0.30902 0.06810 0.53424 -0.03300
C 	C 	0.07992 0.02970 0.46984 0.11200
C 	C 	0.95097 0.09570 0.37974 -0.11600
C 	C 	0.26189 0.23360 0.41038 0.03300
C 	C 	0.40180 0.17300 0.50300 -0.04400
C 	C 	0.26962 0.17280 0.13144 0.34500
C 	C 	0.34972 0.08700 0.04564 -0.09700
C 	C 	0.59992 0.00840 0.06344 0.02600
C 	C 	0.66405 0.92790 0.98490 -0.03700
C 	C 	0.25775 0.99780 0.87190 -0.05000
C 	C 	0.17610 0.07940 0.94700 0.05100
C 	C 	0.82827 0.49880 0.36574 0.21300
C 	C 	0.77478 0.56810 0.46576 0.04900
C 	C 	0.61008 0.52970 0.53016 -0.11700
C 	C 	0.57123 0.59570 0.62026 0.07500
C 	C 	0.85151 0.73360 0.58962 0.10400
C 	C 	0.89880 0.67300 0.49700 -0.20400
N 	N 	0.61003 0.42270 0.11086 -0.20000
N 	N 	0.03695 0.19640 0.34890 -0.14000
N 	N 	0.49917 0.92270 0.88914 -0.17500
N 	N 	0.68805 0.69640 0.65110 -0.21400
O 	O 	0.88973 0.70990 0.87806 -0.42400
O 	O 	0.24827 0.70120 0.79494 -0.35500
O 	O 	0.35508 0.90950 0.65836 -0.35200
O 	O 	0.68256 0.03050 0.68232 -0.24600
O 	O 	0.01167 0.20990 0.12194 -0.36400
O 	O 	0.45333 0.20120 0.20506 -0.36000
O 	O 	0.69672 0.40950 0.34164 -0.35400
O 	O 	0.00024 0.53050 0.31768 -0.22900
