data_crystal

_cell_length_a 4.99670
_cell_length_b 11.10010
_cell_length_c 12.73300
_cell_angle_alpha 91.73220
_cell_angle_beta  101.31500
_cell_angle_gamma 81.13780

_symmetry_space_group_name_	'P 1'
_symmetry_space_group_name_H-M	'P 1'

loop_
_symmetry_equiv_pos_as_xyz
  x,y,z

loop_
_atom_site_label
_atom_site_type_symbol
_atom_site_fract_x
_atom_site_fract_y
_atom_site_fract_z
_atom_site_charge
Cu	Cu	0.35076 0.10480 0.22704 0.91700
Cu	Cu	0.12372 0.60480 0.77296 0.91000
H 	H 	0.98410 0.37260 0.66180 0.06200
H 	H 	0.05820 0.26210 0.51240 0.05600
H 	H 	0.53620 0.50080 0.45460 0.07600
H 	H 	0.45890 0.60260 0.60880 0.02300
H 	H 	0.35720 0.17570 0.00160 0.01600
H 	H 	0.11670 0.31250 0.87140 0.07900
H 	H 	0.58830 0.42420 0.06620 0.08300
H 	H 	0.85490 0.29060 0.19440 0.02100
H 	H 	0.32230 0.87260 0.33820 0.01000
H 	H 	0.54580 0.76210 0.48760 0.07300
H 	H 	0.08160 0.00080 0.54540 0.06100
H 	H 	0.85010 0.10260 0.39120 0.02500
H 	H 	0.35560 0.67570 0.99840 0.01500
H 	H 	0.24530 0.81250 0.12860 0.08000
H 	H 	0.52210 0.92420 0.93380 0.08100
H 	H 	0.66050 0.79060 0.80560 0.01700
C 	C 	0.09763 0.39820 0.61986 -0.01000
C 	C 	0.13887 0.33200 0.52954 -0.04200
C 	C 	0.30035 0.37030 0.46510 -0.02700
C 	C 	0.42334 0.47310 0.49568 -0.06700
C 	C 	0.37567 0.53390 0.58834 0.04400
C 	C 	0.35412 0.30040 0.36504 0.30000
C 	C 	0.20320 0.22770 0.01520 0.06800
C 	C 	0.05778 0.30930 0.93596 -0.12300
C 	C 	0.82577 0.38560 0.95374 0.01400
C 	C 	0.74666 0.37610 0.05192 -0.09500
C 	C 	0.66030 0.47330 0.86800 0.32000
C 	C 	0.90626 0.29430 0.12832 0.08600
C 	C 	0.47777 0.89820 0.38014 0.05400
C 	C 	0.60933 0.83200 0.47046 -0.07300
C 	C 	0.83525 0.87030 0.53490 -0.02000
C 	C 	0.92766 0.97310 0.50432 -0.05800
C 	C 	0.78733 0.03390 0.41166 0.06800
C 	C 	0.98908 0.80040 0.63496 0.33000
C 	C 	0.18800 0.72770 0.98480 0.06900
C 	C 	0.12182 0.80930 0.06404 -0.12700
C 	C 	0.87203 0.88560 0.04626 0.01900
C 	C 	0.69474 0.87610 0.94808 -0.09900
C 	C 	0.79230 0.97330 0.13200 0.29000
C 	C 	0.77794 0.79430 0.87168 0.08500
N 	N 	0.21357 0.49730 0.64954 -0.19000
N 	N 	0.13083 0.22070 0.11026 -0.22200
N 	N 	0.56403 0.99730 0.35046 -0.20900
N 	N 	0.02057 0.72070 0.88974 -0.22400
O 	O 	0.22428 0.21010 0.34116 -0.37700
O 	O 	0.52088 0.33120 0.31576 -0.28100
O 	O 	0.41395 0.51016 0.87850 -0.39000
O 	O 	0.77188 0.50175 0.79556 -0.34600
O 	O 	0.88312 0.71010 0.65884 -0.36600
O 	O 	0.20512 0.83120 0.68424 -0.30900
O 	O 	0.53545 0.01016 0.12150 -0.37300
O 	O 	0.97632 0.00175 0.20444 -0.32400
