data_crystal

_cell_length_a 11.99800
_cell_length_b 12.94400
_cell_length_c 23.49100
_cell_angle_alpha 95.49000
_cell_angle_beta  90.00000
_cell_angle_gamma 90.00000

_symmetry_space_group_name_	'P 1'
_symmetry_space_group_name_H-M	'P 1'

loop_
_symmetry_equiv_pos_as_xyz
  x,y,z

loop_
_atom_site_label
_atom_site_type_symbol
_atom_site_fract_x
_atom_site_fract_y
_atom_site_fract_z
_atom_site_charge
Ag	Ag	0.45588 0.22866 0.55635 0.52700
Ag	Ag	0.47307 0.73000 0.55797 0.53000
Ag	Ag	0.69076 0.99446 0.75531 0.51100
Ag	Ag	0.95588 0.77134 0.94365 0.52700
Ag	Ag	0.97307 0.27000 0.94203 0.53200
Ag	Ag	0.19076 0.00554 0.74469 0.51100
Ag	Ag	0.54412 0.77134 0.44365 0.52800
Ag	Ag	0.52693 0.27000 0.44203 0.53100
Ag	Ag	0.30924 0.00554 0.24469 0.51100
Ag	Ag	0.04412 0.22866 0.05635 0.52700
Ag	Ag	0.02693 0.73000 0.05797 0.53200
Ag	Ag	0.80924 0.99446 0.25531 0.51100
H 	H 	0.54750 0.15120 0.68110 0.03900
H 	H 	0.61800 0.08590 0.63530 0.03200
H 	H 	0.52460 0.97960 0.55610 0.00800
H 	H 	0.39540 0.98020 0.55360 0.01500
H 	H 	0.28930 0.08630 0.62480 0.02900
H 	H 	0.34880 0.15120 0.67490 0.04000
H 	H 	0.34280 0.84210 0.66670 0.02300
H 	H 	0.28690 0.89940 0.61900 0.02000
H 	H 	0.54700 0.84120 0.67460 0.02700
H 	H 	0.61770 0.89670 0.63110 0.02200
H 	H 	0.43830 0.06320 0.74980 0.02200
H 	H 	0.43720 0.94260 0.74560 0.02600
H 	H 	0.30990 0.51780 0.98500 0.04200
H 	H 	0.47650 0.44920 0.94590 0.06500
H 	H 	0.57010 0.53870 0.87630 0.05100
H 	H 	0.31790 0.74970 0.87910 0.04300
H 	H 	0.42330 0.21940 0.01940 0.03600
H 	H 	0.60620 0.20850 0.98370 0.06000
H 	H 	0.64090 0.23980 0.88910 0.02400
H 	H 	0.30910 0.28120 0.86400 0.04000
H 	H 	0.04750 0.84880 0.81890 0.03900
H 	H 	0.11800 0.91410 0.86470 0.03200
H 	H 	0.02460 0.02040 0.94390 0.00400
H 	H 	0.89540 0.01980 0.94640 0.01300
H 	H 	0.78930 0.91370 0.87520 0.03000
H 	H 	0.84880 0.84880 0.82510 0.04000
H 	H 	0.84280 0.15790 0.83330 0.02300
H 	H 	0.78690 0.10060 0.88100 0.01900
H 	H 	0.04700 0.15880 0.82540 0.02700
H 	H 	0.11770 0.10330 0.86890 0.02200
H 	H 	0.93830 0.93680 0.75020 0.02300
H 	H 	0.93720 0.05740 0.75440 0.02800
H 	H 	0.80990 0.48220 0.51500 0.04200
H 	H 	0.97650 0.55080 0.55410 0.06500
H 	H 	0.07010 0.46130 0.62370 0.05100
H 	H 	0.81790 0.25030 0.62090 0.04400
H 	H 	0.92330 0.78060 0.48060 0.03600
H 	H 	0.10620 0.79150 0.51630 0.06000
H 	H 	0.14090 0.76020 0.61090 0.02400
H 	H 	0.80910 0.71880 0.63600 0.04000
H 	H 	0.45250 0.84880 0.31890 0.03900
H 	H 	0.38200 0.91410 0.36470 0.03200
H 	H 	0.47540 0.02040 0.44390 0.00800
H 	H 	0.60460 0.01980 0.44640 0.01500
H 	H 	0.71070 0.91370 0.37520 0.02900
H 	H 	0.65120 0.84880 0.32510 0.04000
H 	H 	0.65720 0.15790 0.33330 0.02300
H 	H 	0.71310 0.10060 0.38100 0.02000
H 	H 	0.45300 0.15880 0.32540 0.02700
H 	H 	0.38230 0.10330 0.36890 0.02200
H 	H 	0.56170 0.93680 0.25020 0.02200
H 	H 	0.56280 0.05740 0.25440 0.02600
H 	H 	0.69010 0.48220 0.01500 0.04200
H 	H 	0.52350 0.55080 0.05410 0.06500
H 	H 	0.42990 0.46130 0.12370 0.05100
H 	H 	0.68210 0.25030 0.12090 0.04300
H 	H 	0.57670 0.78060 0.98060 0.03600
H 	H 	0.39380 0.79150 0.01630 0.06000
H 	H 	0.35910 0.76020 0.11090 0.02400
H 	H 	0.69090 0.71880 0.13600 0.04000
H 	H 	0.95250 0.15120 0.18110 0.03900
H 	H 	0.88200 0.08590 0.13530 0.03200
H 	H 	0.97540 0.97960 0.05610 0.00400
H 	H 	0.10460 0.98020 0.05360 0.01300
H 	H 	0.21070 0.08630 0.12480 0.03000
H 	H 	0.15120 0.15120 0.17490 0.04000
H 	H 	0.15720 0.84210 0.16670 0.02300
H 	H 	0.21310 0.89940 0.11900 0.01900
H 	H 	0.95300 0.84120 0.17460 0.02700
H 	H 	0.88230 0.89670 0.13110 0.02200
H 	H 	0.06170 0.06320 0.24980 0.02300
H 	H 	0.06280 0.94260 0.24560 0.02800
H 	H 	0.19010 0.51780 0.48500 0.04200
H 	H 	0.02350 0.44920 0.44590 0.06500
H 	H 	0.92990 0.53870 0.37630 0.05100
H 	H 	0.18210 0.74970 0.37910 0.04400
H 	H 	0.07670 0.21940 0.51940 0.03600
H 	H 	0.89380 0.20850 0.48370 0.06000
H 	H 	0.85910 0.23980 0.38910 0.02400
H 	H 	0.19090 0.28120 0.36400 0.04000
C 	C 	0.54950 0.08760 0.65640 -0.02100
C 	C 	0.45820 0.98310 0.57900 -0.00300
C 	C 	0.35200 0.08770 0.65020 -0.02100
C 	C 	0.34880 0.90100 0.64500 -0.01600
C 	C 	0.54920 0.89960 0.65240 -0.02000
C 	C 	0.44060 0.00140 0.72370 -0.02100
C 	C 	0.19460 0.68390 0.96390 0.30500
C 	C 	0.29950 0.63850 0.93570 -0.08500
C 	C 	0.34690 0.55090 0.95530 0.01600
C 	C 	0.44580 0.51140 0.93310 -0.07400
C 	C 	0.49920 0.56310 0.89090 0.01200
C 	C 	0.45300 0.64930 0.87070 -0.07400
C 	C 	0.35080 0.68940 0.89300 0.01900
C 	C 	0.51350 0.70410 0.82530 0.30000
C 	C 	0.23130 0.25610 0.96790 0.35100
C 	C 	0.35000 0.25220 0.94530 -0.10800
C 	C 	0.43800 0.23120 0.98040 0.02500
C 	C 	0.54570 0.22520 0.95940 -0.09000
C 	C 	0.56610 0.24260 0.90370 0.01500
C 	C 	0.47890 0.26620 0.86730 -0.09500
C 	C 	0.37040 0.26890 0.88880 0.03000
C 	C 	0.50510 0.28650 0.80630 0.29700
C 	C 	0.04950 0.91240 0.84360 -0.01800
C 	C 	0.95820 0.01690 0.92100 0.00300
C 	C 	0.85200 0.91230 0.84980 -0.02200
C 	C 	0.84880 0.09900 0.85500 -0.01500
C 	C 	0.04920 0.10040 0.84760 -0.02100
C 	C 	0.94060 0.99860 0.77630 -0.02500
C 	C 	0.69460 0.31610 0.53610 0.30500
C 	C 	0.79950 0.36150 0.56430 -0.08500
C 	C 	0.84690 0.44910 0.54470 0.01600
C 	C 	0.94580 0.48860 0.56690 -0.07400
C 	C 	0.99920 0.43690 0.60910 0.01200
C 	C 	0.95300 0.35070 0.62930 -0.07300
C 	C 	0.85080 0.31060 0.60700 0.01800
C 	C 	0.01350 0.29590 0.67470 0.29700
C 	C 	0.73130 0.74390 0.53210 0.35100
C 	C 	0.85000 0.74780 0.55470 -0.10800
C 	C 	0.93800 0.76880 0.51960 0.02400
C 	C 	0.04570 0.77480 0.54060 -0.08900
C 	C 	0.06610 0.75740 0.59630 0.01600
C 	C 	0.97890 0.73380 0.63270 -0.09700
C 	C 	0.87040 0.73110 0.61120 0.03100
C 	C 	0.00510 0.71350 0.69370 0.29900
C 	C 	0.45050 0.91240 0.34360 -0.02100
C 	C 	0.54180 0.01690 0.42100 -0.00300
C 	C 	0.64800 0.91230 0.34980 -0.02100
C 	C 	0.65120 0.09900 0.35500 -0.01600
C 	C 	0.45080 0.10040 0.34760 -0.02000
C 	C 	0.55940 0.99860 0.27630 -0.02100
C 	C 	0.80540 0.31610 0.03610 0.30500
C 	C 	0.70050 0.36150 0.06430 -0.08500
C 	C 	0.65310 0.44910 0.04470 0.01600
C 	C 	0.55420 0.48860 0.06690 -0.07400
C 	C 	0.50080 0.43690 0.10910 0.01200
C 	C 	0.54700 0.35070 0.12930 -0.07400
C 	C 	0.64920 0.31060 0.10700 0.01900
C 	C 	0.48650 0.29590 0.17470 0.30000
C 	C 	0.76870 0.74390 0.03210 0.35100
C 	C 	0.65000 0.74780 0.05470 -0.10800
C 	C 	0.56200 0.76880 0.01960 0.02500
C 	C 	0.45430 0.77480 0.04060 -0.09000
C 	C 	0.43390 0.75740 0.09630 0.01500
C 	C 	0.52110 0.73380 0.13270 -0.09500
C 	C 	0.62960 0.73110 0.11120 0.03000
C 	C 	0.49490 0.71350 0.19370 0.29700
C 	C 	0.95050 0.08760 0.15640 -0.01800
C 	C 	0.04180 0.98310 0.07900 0.00300
C 	C 	0.14800 0.08770 0.15020 -0.02200
C 	C 	0.15120 0.90100 0.14500 -0.01500
C 	C 	0.95080 0.89960 0.15240 -0.02100
C 	C 	0.05940 0.00140 0.22370 -0.02500
C 	C 	0.30540 0.68390 0.46390 0.30500
C 	C 	0.20050 0.63850 0.43570 -0.08500
C 	C 	0.15310 0.55090 0.45530 0.01600
C 	C 	0.05420 0.51140 0.43310 -0.07400
C 	C 	0.00080 0.56310 0.39090 0.01200
C 	C 	0.04700 0.64930 0.37070 -0.07300
C 	C 	0.14920 0.68940 0.39300 0.01800
C 	C 	0.98650 0.70410 0.32530 0.29700
C 	C 	0.26870 0.25610 0.46790 0.35100
C 	C 	0.15000 0.25220 0.44530 -0.10800
C 	C 	0.06200 0.23120 0.48040 0.02400
C 	C 	0.95430 0.22520 0.45940 -0.08900
C 	C 	0.93390 0.24260 0.40370 0.01600
C 	C 	0.02110 0.26620 0.36730 -0.09700
C 	C 	0.12960 0.26890 0.38880 0.03100
C 	C 	0.99490 0.28650 0.30630 0.29900
N 	N 	0.45580 0.08460 0.61620 -0.13300
N 	N 	0.54630 0.99750 0.69140 -0.14500
N 	N 	0.45400 0.89390 0.61210 -0.14400
N 	N 	0.34350 0.99920 0.68510 -0.14500
N 	N 	0.95580 0.91540 0.88380 -0.13500
N 	N 	0.04630 0.00250 0.80860 -0.14600
N 	N 	0.95400 0.10610 0.88790 -0.14400
N 	N 	0.84350 0.00080 0.81490 -0.14400
N 	N 	0.54420 0.91540 0.38380 -0.13300
N 	N 	0.45370 0.00250 0.30860 -0.14500
N 	N 	0.54600 0.10610 0.38790 -0.14400
N 	N 	0.65650 0.00080 0.31490 -0.14500
N 	N 	0.04420 0.08460 0.11620 -0.13500
N 	N 	0.95370 0.99750 0.19140 -0.14600
N 	N 	0.04600 0.89390 0.11210 -0.14400
N 	N 	0.15650 0.99920 0.18510 -0.14400
O 	O 	0.15020 0.76140 0.94380 -0.34500
O 	O 	0.15660 0.63940 0.00500 -0.34600
O 	O 	0.46250 0.77400 0.80270 -0.26100
O 	O 	0.61020 0.67600 0.81150 -0.23900
O 	O 	0.21530 0.22170 0.01520 -0.35500
O 	O 	0.16070 0.29360 0.93900 -0.36600
O 	O 	0.42880 0.27060 0.77020 -0.25100
O 	O 	0.59900 0.32170 0.79680 -0.24500
O 	O 	0.65020 0.23860 0.55620 -0.34600
O 	O 	0.65660 0.36060 0.49500 -0.34600
O 	O 	0.96250 0.22600 0.69730 -0.26000
O 	O 	0.11020 0.32400 0.68850 -0.23900
O 	O 	0.71530 0.77830 0.48480 -0.35500
O 	O 	0.66070 0.70640 0.56100 -0.36500
O 	O 	0.92880 0.72940 0.72980 -0.25200
O 	O 	0.09900 0.67830 0.70320 -0.24500
O 	O 	0.84980 0.23860 0.05620 -0.34500
O 	O 	0.84340 0.36060 0.99500 -0.34600
O 	O 	0.53750 0.22600 0.19730 -0.26100
O 	O 	0.38980 0.32400 0.18850 -0.23900
O 	O 	0.78470 0.77830 0.98480 -0.35500
O 	O 	0.83930 0.70640 0.06100 -0.36600
O 	O 	0.57120 0.72940 0.22980 -0.25100
O 	O 	0.40100 0.67830 0.20320 -0.24500
O 	O 	0.34980 0.76140 0.44380 -0.34600
O 	O 	0.34340 0.63940 0.50500 -0.34600
O 	O 	0.03750 0.77400 0.30270 -0.26000
O 	O 	0.88980 0.67600 0.31150 -0.23900
O 	O 	0.28470 0.22170 0.51520 -0.35500
O 	O 	0.33930 0.29360 0.43900 -0.36500
O 	O 	0.07120 0.27060 0.27020 -0.25200
O 	O 	0.90100 0.32170 0.29680 -0.24500
