data_crystal

_cell_length_a 7.51210
_cell_length_b 8.99270
_cell_length_c 15.15300
_cell_angle_alpha 90.25600
_cell_angle_beta  93.39100
_cell_angle_gamma 111.09100

_symmetry_space_group_name_	'P 1'
_symmetry_space_group_name_H-M	'P 1'

loop_
_symmetry_equiv_pos_as_xyz
  x,y,z

loop_
_atom_site_label
_atom_site_type_symbol
_atom_site_fract_x
_atom_site_fract_y
_atom_site_fract_z
_atom_site_charge
Zn	Zn	0.71013 0.55275 0.39358 1.23500
Zn	Zn	0.05751 0.20090 0.25163 1.23800
Zn	Zn	0.65745 0.58168 0.12443 1.22900
P 	P 	0.68142 0.28896 0.24210 0.46400
H 	H 	0.49740 0.20110 0.23810 -0.04300
P 	P 	0.94959 0.81271 0.26678 0.45200
H 	H 	0.06360 0.74970 0.23140 -0.04800
P 	P 	0.73099 0.50873 0.60678 0.48900
H 	H 	0.83460 0.43350 0.64590 -0.04600
P 	P 	0.21545 0.39577 0.07689 0.46200
H 	H 	0.06450 0.43840 0.07430 -0.04600
O 	O 	0.72760 0.37180 0.33167 -0.47300
O 	O 	0.71190 0.39780 0.16459 -0.47500
O 	O 	0.78760 0.17380 0.23301 -0.41400
O 	O 	0.05830 0.98970 0.27443 -0.41000
O 	O 	0.91330 0.74420 0.35820 -0.42700
O 	O 	0.76930 0.76650 0.20520 -0.45300
O 	O 	0.78160 0.66500 0.65640 -0.48100
O 	O 	0.78820 0.53290 0.51450 -0.44900
O 	O 	0.52310 0.40210 0.61330 -0.46000
O 	O 	0.17630 0.25930 0.13988 -0.44000
O 	O 	0.22740 0.33650 0.98467 -0.44100
O 	O 	0.38590 0.54200 0.10710 -0.46300
Zn	Zn	0.28987 0.44725 0.60642 1.23500
Zn	Zn	0.94249 0.79910 0.74837 1.23800
Zn	Zn	0.34255 0.41832 0.87557 1.22900
P 	P 	0.31858 0.71104 0.75790 0.46400
H 	H 	0.50260 0.79890 0.76190 -0.04300
P 	P 	0.05041 0.18729 0.73322 0.45200
H 	H 	0.93640 0.25030 0.76860 -0.04800
P 	P 	0.26901 0.49127 0.39322 0.48900
H 	H 	0.16540 0.56650 0.35410 -0.04600
P 	P 	0.78455 0.60423 0.92311 0.46200
H 	H 	0.93550 0.56160 0.92570 -0.04600
O 	O 	0.27240 0.62820 0.66833 -0.47300
O 	O 	0.28810 0.60220 0.83541 -0.47500
O 	O 	0.21240 0.82620 0.76699 -0.41400
O 	O 	0.94170 0.01030 0.72557 -0.41000
O 	O 	0.08670 0.25580 0.64180 -0.42700
O 	O 	0.23070 0.23350 0.79480 -0.45300
O 	O 	0.21840 0.33500 0.34360 -0.48100
O 	O 	0.21180 0.46710 0.48550 -0.44900
O 	O 	0.47690 0.59790 0.38670 -0.46000
O 	O 	0.82370 0.74070 0.86012 -0.44000
O 	O 	0.77260 0.66350 0.01533 -0.44100
O 	O 	0.61410 0.45800 0.89290 -0.46300
