data_crystal

_cell_length_a 7.32460
_cell_length_b 13.22400
_cell_length_c 22.76690
_cell_angle_alpha 90.00000
_cell_angle_beta  90.00000
_cell_angle_gamma 90.00000

_symmetry_space_group_name_	'P 1'
_symmetry_space_group_name_H-M	'P 1'

loop_
_symmetry_equiv_pos_as_xyz
  x,y,z

loop_
_atom_site_label
_atom_site_type_symbol
_atom_site_fract_x
_atom_site_fract_y
_atom_site_fract_z
_atom_site_charge
Co	Co	0.67312 0.88278 0.61061 1.09000
Co	Co	0.82688 0.11722 0.11061 1.08900
Co	Co	0.32688 0.38278 0.38939 1.09000
Co	Co	0.17312 0.61722 0.88939 1.08900
Co	Co	0.32688 0.11722 0.38939 1.09100
Co	Co	0.17312 0.88278 0.88939 1.09000
Co	Co	0.67312 0.61722 0.61061 1.09100
Co	Co	0.82688 0.38278 0.11061 1.09000
Co	Co	0.65643 0.75000 0.74146 1.15700
Co	Co	0.84357 0.25000 0.24146 1.15600
Co	Co	0.34357 0.25000 0.25854 1.15700
Co	Co	0.15643 0.75000 0.75854 1.15600
H 	H 	0.71660 0.40310 0.87190 0.04700
H 	H 	0.78340 0.59690 0.37190 0.04700
H 	H 	0.28340 0.90310 0.12810 0.04700
H 	H 	0.21660 0.09690 0.62810 0.04700
H 	H 	0.28340 0.59690 0.12810 0.04700
H 	H 	0.21660 0.40310 0.62810 0.04700
H 	H 	0.71660 0.09690 0.87190 0.04700
H 	H 	0.78340 0.90310 0.37190 0.04700
H 	H 	0.86030 0.75000 0.65050 0.23800
H 	H 	0.63970 0.25000 0.15050 0.23800
H 	H 	0.13970 0.25000 0.34950 0.23800
H 	H 	0.36030 0.75000 0.84950 0.23800
H 	H 	0.60500 0.25000 0.72160 0.06200
H 	H 	0.89500 0.75000 0.22160 0.06100
H 	H 	0.39500 0.75000 0.27840 0.06200
H 	H 	0.10500 0.25000 0.77840 0.06100
C 	C 	0.64740 0.43730 0.76013 0.11300
C 	C 	0.65850 0.34080 0.79187 0.00300
C 	C 	0.70060 0.34090 0.85169 -0.06700
C 	C 	0.85260 0.56270 0.26013 0.11200
C 	C 	0.84150 0.65920 0.29187 0.00200
C 	C 	0.79940 0.65910 0.35169 -0.06700
C 	C 	0.35260 0.93730 0.23987 0.11300
C 	C 	0.34150 0.84080 0.20813 0.00300
C 	C 	0.29940 0.84090 0.14831 -0.06700
C 	C 	0.14740 0.06270 0.73987 0.11300
C 	C 	0.15850 0.15920 0.70813 0.00200
C 	C 	0.20060 0.15910 0.64831 -0.06700
C 	C 	0.35260 0.56270 0.23987 0.11300
C 	C 	0.34150 0.65920 0.20813 0.00300
C 	C 	0.29940 0.65910 0.14831 -0.06700
C 	C 	0.14740 0.43730 0.73987 0.11200
C 	C 	0.15850 0.34080 0.70813 0.00200
C 	C 	0.20060 0.34090 0.64831 -0.06700
C 	C 	0.64740 0.06270 0.76013 0.11300
C 	C 	0.65850 0.15920 0.79187 0.00300
C 	C 	0.70060 0.15910 0.85169 -0.06700
C 	C 	0.85260 0.93730 0.26013 0.11300
C 	C 	0.84150 0.84080 0.29187 0.00200
C 	C 	0.79940 0.84090 0.35169 -0.06700
C 	C 	0.63590 0.25000 0.76215 -0.06400
C 	C 	0.71920 0.25000 0.88163 -0.00700
C 	C 	0.75910 0.25000 0.94522 0.09800
C 	C 	0.86410 0.75000 0.26215 -0.06400
C 	C 	0.78080 0.75000 0.38163 -0.00700
C 	C 	0.74090 0.75000 0.44522 0.09800
C 	C 	0.36410 0.75000 0.23785 -0.06400
C 	C 	0.28080 0.75000 0.11837 -0.00700
C 	C 	0.24090 0.75000 0.05478 0.09800
C 	C 	0.13590 0.25000 0.73785 -0.06400
C 	C 	0.21920 0.25000 0.61837 -0.00700
C 	C 	0.25910 0.25000 0.55478 0.09800
S 	S 	0.32413 0.75000 0.64792 0.74800
S 	S 	0.17587 0.25000 0.14792 0.74800
S 	S 	0.67587 0.25000 0.35208 0.74800
S 	S 	0.82413 0.75000 0.85208 0.74800
N 	N 	0.64070 0.59340 0.74244 -0.16600
N 	N 	0.65520 0.54460 0.69184 -0.18400
N 	N 	0.63410 0.52730 0.78657 -0.10500
N 	N 	0.65940 0.44500 0.70171 -0.11200
N 	N 	0.77690 0.33362 0.97729 -0.12500
N 	N 	0.80570 0.30000 0.03168 -0.18800
N 	N 	0.85930 0.40660 0.24244 -0.16700
N 	N 	0.84480 0.45540 0.19184 -0.18500
N 	N 	0.86590 0.47270 0.28657 -0.10600
N 	N 	0.84060 0.55500 0.20171 -0.11200
N 	N 	0.72310 0.66638 0.47729 -0.12500
N 	N 	0.69430 0.70000 0.53168 -0.18700
N 	N 	0.35930 0.09340 0.25756 -0.16600
N 	N 	0.34480 0.04460 0.30816 -0.18400
N 	N 	0.36590 0.02730 0.21343 -0.10500
N 	N 	0.34060 0.94500 0.29829 -0.11200
N 	N 	0.22310 0.83362 0.02271 -0.12500
N 	N 	0.19430 0.80000 0.96832 -0.18800
N 	N 	0.14070 0.90660 0.75756 -0.16700
N 	N 	0.15520 0.95540 0.80816 -0.18600
N 	N 	0.13410 0.97270 0.71343 -0.10700
N 	N 	0.15940 0.05500 0.79829 -0.11200
N 	N 	0.27690 0.16638 0.52271 -0.12500
N 	N 	0.30570 0.20000 0.46832 -0.18700
N 	N 	0.35930 0.40660 0.25756 -0.16600
N 	N 	0.34480 0.45540 0.30816 -0.18400
N 	N 	0.36590 0.47270 0.21343 -0.10500
N 	N 	0.34060 0.55500 0.29829 -0.11200
N 	N 	0.22310 0.66638 0.02271 -0.12500
N 	N 	0.19430 0.70000 0.96832 -0.18800
N 	N 	0.14070 0.59340 0.75756 -0.16700
N 	N 	0.15520 0.54460 0.80816 -0.18500
N 	N 	0.13410 0.52730 0.71343 -0.10600
N 	N 	0.15940 0.44500 0.79829 -0.11200
N 	N 	0.27690 0.33362 0.52271 -0.12500
N 	N 	0.30570 0.30000 0.46832 -0.18700
N 	N 	0.64070 0.90660 0.74244 -0.16600
N 	N 	0.65520 0.95540 0.69184 -0.18400
N 	N 	0.63410 0.97270 0.78657 -0.10500
N 	N 	0.65940 0.05500 0.70171 -0.11200
N 	N 	0.77690 0.16638 0.97729 -0.12500
N 	N 	0.80570 0.20000 0.03168 -0.18800
N 	N 	0.85930 0.09340 0.24244 -0.16700
N 	N 	0.84480 0.04460 0.19184 -0.18600
N 	N 	0.86590 0.02730 0.28657 -0.10700
N 	N 	0.84060 0.94500 0.20171 -0.11200
N 	N 	0.72310 0.83362 0.47729 -0.12500
N 	N 	0.69430 0.80000 0.53168 -0.18700
O 	O 	0.38930 0.84088 0.61747 -0.48200
O 	O 	0.11070 0.15912 0.11747 -0.48000
O 	O 	0.61070 0.34088 0.38253 -0.48200
O 	O 	0.88930 0.65912 0.88253 -0.48000
O 	O 	0.61070 0.15912 0.38253 -0.48200
O 	O 	0.88930 0.84088 0.88253 -0.48000
O 	O 	0.38930 0.65912 0.61747 -0.48200
O 	O 	0.11070 0.34088 0.11747 -0.48000
O 	O 	0.74390 0.75000 0.65464 -0.79000
O 	O 	0.39500 0.75000 0.71016 -0.61900
O 	O 	0.12640 0.75000 0.65561 -0.46900
O 	O 	0.75610 0.25000 0.15464 -0.79100
O 	O 	0.10500 0.25000 0.21016 -0.61600
O 	O 	0.37360 0.25000 0.15561 -0.46800
O 	O 	0.25610 0.25000 0.34536 -0.79000
O 	O 	0.60500 0.25000 0.28984 -0.61900
O 	O 	0.87360 0.25000 0.34439 -0.46900
O 	O 	0.24390 0.75000 0.84536 -0.79100
O 	O 	0.89500 0.75000 0.78984 -0.61600
O 	O 	0.62640 0.75000 0.84439 -0.46800
