data_crystal

_cell_length_a 11.85000
_cell_length_b 13.85300
_cell_length_c 13.94400
_cell_angle_alpha 90.00000
_cell_angle_beta  114.79300
_cell_angle_gamma 90.00000

_symmetry_space_group_name_	'P 1'
_symmetry_space_group_name_H-M	'P 1'

loop_
_symmetry_equiv_pos_as_xyz
  x,y,z

loop_
_atom_site_label
_atom_site_type_symbol
_atom_site_fract_x
_atom_site_fract_y
_atom_site_fract_z
_atom_site_charge
Co	Co	0.89350 0.44187 0.95004 1.15400
Co	Co	0.10650 0.94187 0.54996 1.15600
Co	Co	0.10650 0.55813 0.04996 1.15300
Co	Co	0.89350 0.05813 0.45004 1.15500
H 	H 	0.64580 0.52610 0.89630 0.00500
H 	H 	0.44100 0.48180 0.85140 0.08300
H 	H 	0.54160 0.20250 0.85060 0.08500
H 	H 	0.74320 0.25360 0.89840 -0.00100
H 	H 	0.99920 0.25220 0.73720 0.04100
H 	H 	0.32960 0.19240 0.72620 0.03900
H 	H 	0.30390 0.41110 0.90840 0.04200
H 	H 	0.35420 0.02610 0.60370 0.00600
H 	H 	0.55900 0.98180 0.64860 0.08200
H 	H 	0.45840 0.70250 0.64940 0.08500
H 	H 	0.25680 0.75360 0.60160 -0.00000
H 	H 	0.00080 0.75220 0.76280 0.05100
H 	H 	0.67040 0.69240 0.77380 0.04200
H 	H 	0.69610 0.91110 0.59160 0.04400
H 	H 	0.35420 0.47390 0.10370 0.00500
H 	H 	0.55900 0.51820 0.14860 0.08300
H 	H 	0.45840 0.79750 0.14940 0.08500
H 	H 	0.25680 0.74640 0.10160 -0.00100
H 	H 	0.00080 0.74780 0.26280 0.04100
H 	H 	0.67040 0.80760 0.27380 0.03900
H 	H 	0.69610 0.58890 0.09160 0.04200
H 	H 	0.64580 0.97390 0.39630 0.00600
H 	H 	0.44100 0.01820 0.35140 0.08200
H 	H 	0.54160 0.29750 0.35060 0.08500
H 	H 	0.74320 0.24640 0.39840 -0.00000
H 	H 	0.99920 0.24780 0.23720 0.05100
H 	H 	0.32960 0.30760 0.22620 0.04200
H 	H 	0.30390 0.08890 0.40840 0.04400
C 	C 	0.62420 0.45960 0.88800 0.08100
C 	C 	0.50170 0.43350 0.86090 -0.14400
C 	C 	0.46750 0.33630 0.84760 0.09500
C 	C 	0.56080 0.26930 0.86080 -0.14800
C 	C 	0.68080 0.30050 0.88880 0.08900
C 	C 	0.08540 0.26490 0.75990 0.05200
C 	C 	0.15510 0.20990 0.72040 -0.09900
C 	C 	0.28140 0.23070 0.75140 0.01100
C 	C 	0.33610 0.30800 0.81970 -0.04200
C 	C 	0.26620 0.35980 0.86040 0.01000
C 	C 	0.14100 0.33780 0.83200 -0.10100
C 	C 	0.09470 0.13060 0.64260 0.36900
C 	C 	0.07080 0.39350 0.88190 0.36900
C 	C 	0.37580 0.95960 0.61200 0.08000
C 	C 	0.49830 0.93350 0.63910 -0.14200
C 	C 	0.53250 0.83630 0.65240 0.09300
C 	C 	0.43920 0.76930 0.63920 -0.14600
C 	C 	0.31920 0.80050 0.61120 0.08900
C 	C 	0.91460 0.76490 0.74010 0.03200
C 	C 	0.84490 0.70990 0.77960 -0.09000
C 	C 	0.71860 0.73070 0.74860 0.00400
C 	C 	0.66390 0.80800 0.68030 -0.03700
C 	C 	0.73380 0.85980 0.63960 0.00300
C 	C 	0.85900 0.83780 0.66800 -0.09200
C 	C 	0.90530 0.63060 0.85740 0.35700
C 	C 	0.92920 0.89350 0.61810 0.35800
C 	C 	0.37580 0.54040 0.11200 0.08100
C 	C 	0.49830 0.56650 0.13910 -0.14400
C 	C 	0.53250 0.66370 0.15240 0.09500
C 	C 	0.43920 0.73070 0.13920 -0.14800
C 	C 	0.31920 0.69950 0.11120 0.08900
C 	C 	0.91460 0.73510 0.24010 0.05200
C 	C 	0.84490 0.79010 0.27960 -0.09900
C 	C 	0.71860 0.76930 0.24860 0.01100
C 	C 	0.66390 0.69200 0.18030 -0.04200
C 	C 	0.73380 0.64020 0.13960 0.01000
C 	C 	0.85900 0.66220 0.16800 -0.10100
C 	C 	0.90530 0.86940 0.35740 0.36900
C 	C 	0.92920 0.60650 0.11810 0.36900
C 	C 	0.62420 0.04040 0.38800 0.08000
C 	C 	0.50170 0.06650 0.36090 -0.14200
C 	C 	0.46750 0.16370 0.34760 0.09300
C 	C 	0.56080 0.23070 0.36080 -0.14600
C 	C 	0.68080 0.19950 0.38880 0.08900
C 	C 	0.08540 0.23510 0.25990 0.03200
C 	C 	0.15510 0.29010 0.22040 -0.09000
C 	C 	0.28140 0.26930 0.25140 0.00400
C 	C 	0.33610 0.19200 0.31970 -0.03700
C 	C 	0.26620 0.14020 0.36040 0.00300
C 	C 	0.14100 0.16220 0.33200 -0.09200
C 	C 	0.09470 0.36940 0.14260 0.35700
C 	C 	0.07080 0.10650 0.38190 0.35800
N 	N 	0.71380 0.39380 0.90300 -0.23600
N 	N 	0.28620 0.89380 0.59700 -0.23500
N 	N 	0.28620 0.60620 0.09700 -0.23600
N 	N 	0.71380 0.10620 0.40300 -0.23500
O 	O 	0.96070 0.36670 0.86140 -0.42800
O 	O 	0.12640 0.46150 0.94270 -0.45000
O 	O 	0.98410 0.14540 0.57530 -0.43700
O 	O 	0.15830 0.05630 0.64960 -0.44000
O 	O 	0.03930 0.86670 0.63860 -0.42200
O 	O 	0.87360 0.96150 0.55730 -0.44900
O 	O 	0.01590 0.64540 0.92470 -0.42800
O 	O 	0.84170 0.55630 0.85040 -0.43900
O 	O 	0.03930 0.63330 0.13860 -0.42800
O 	O 	0.87360 0.53850 0.05730 -0.45000
O 	O 	0.01590 0.85460 0.42470 -0.43700
O 	O 	0.84170 0.94370 0.35040 -0.44000
O 	O 	0.96070 0.13330 0.36140 -0.42200
O 	O 	0.12640 0.03850 0.44270 -0.44900
O 	O 	0.98410 0.35460 0.07530 -0.42800
O 	O 	0.15830 0.44370 0.14960 -0.43900
