data_crystal

_cell_length_a 15.26500
_cell_length_b 16.88600
_cell_length_c 12.48000
_cell_angle_alpha 90.00000
_cell_angle_beta  90.00000
_cell_angle_gamma 90.00000

_symmetry_space_group_name_	'P 1'
_symmetry_space_group_name_H-M	'P 1'

loop_
_symmetry_equiv_pos_as_xyz
  x,y,z

loop_
_atom_site_label
_atom_site_type_symbol
_atom_site_fract_x
_atom_site_fract_y
_atom_site_fract_z
_atom_site_charge
O 	O 	0.08434 0.14692 0.15395 -0.61500
O 	O 	0.09501 0.08589 0.00407 -0.63800
C 	C 	0.11760 0.13657 0.06630 0.59200
C 	C 	0.18890 0.19270 0.03070 -0.33400
C 	C 	0.22640 0.18910 0.93090 0.29500
C 	C 	0.21110 0.25670 0.09760 0.05500
H 	H 	0.18250 0.26240 0.16300 0.01600
N 	N 	0.21160 0.12010 0.86580 -0.34100
H 	H 	0.24210 0.11280 0.80870 0.13200
H 	H 	0.17230 0.08620 0.88390 0.19200
H 	H 	0.95020 0.86020 0.23860 0.25500
O 	O 	0.58434 0.64692 0.15395 -0.56000
O 	O 	0.59501 0.58589 0.00407 -0.57900
C 	C 	0.61760 0.63657 0.06630 0.58700
C 	C 	0.68890 0.69270 0.03070 -0.30100
C 	C 	0.72640 0.68910 0.93090 0.30000
C 	C 	0.71110 0.75670 0.09760 0.05000
H 	H 	0.68250 0.76240 0.16300 0.03400
N 	N 	0.71160 0.62010 0.86580 -0.34300
H 	H 	0.74210 0.61280 0.80870 0.15300
H 	H 	0.67230 0.58620 0.88390 0.21300
H 	H 	0.45020 0.36020 0.23860 0.18300
O 	O 	0.91566 0.85308 0.65395 -0.48000
O 	O 	0.90499 0.91411 0.50407 -0.44500
C 	C 	0.88240 0.86343 0.56630 0.52400
C 	C 	0.81110 0.80730 0.53070 -0.13600
C 	C 	0.77360 0.81090 0.43090 0.15700
C 	C 	0.78890 0.74330 0.59760 -0.06100
H 	H 	0.81750 0.73760 0.66300 0.07600
N 	N 	0.78840 0.87990 0.36580 -0.32100
H 	H 	0.75790 0.88720 0.30870 0.15300
H 	H 	0.82770 0.91380 0.38390 0.20900
H 	H 	0.04980 0.13980 0.73860 0.22500
O 	O 	0.41566 0.35308 0.65395 -0.55100
O 	O 	0.40499 0.41411 0.50407 -0.52900
C 	C 	0.38240 0.36343 0.56630 0.53300
C 	C 	0.31110 0.30730 0.53070 -0.16100
C 	C 	0.27360 0.31090 0.43090 0.13900
C 	C 	0.28890 0.24330 0.59760 -0.06500
H 	H 	0.31750 0.23760 0.66300 0.06100
N 	N 	0.28840 0.37990 0.36580 -0.31300
H 	H 	0.25790 0.38720 0.30870 0.12900
H 	H 	0.32770 0.41380 0.38390 0.17700
H 	H 	0.54980 0.63980 0.73860 0.19100
O 	O 	0.91566 0.14692 0.34605 -0.52200
O 	O 	0.90499 0.08589 0.49593 -0.51500
C 	C 	0.88240 0.13657 0.43370 0.52400
C 	C 	0.81110 0.19270 0.46930 -0.15000
C 	C 	0.77360 0.18910 0.56910 0.14200
C 	C 	0.78890 0.25670 0.40240 -0.06800
H 	H 	0.81750 0.26240 0.33700 0.07700
N 	N 	0.78840 0.12010 0.63420 -0.31000
H 	H 	0.75790 0.11280 0.69130 0.12300
H 	H 	0.82770 0.08620 0.61610 0.17300
H 	H 	0.04980 0.86020 0.26140 0.20500
O 	O 	0.41566 0.64692 0.34605 -0.54400
O 	O 	0.40499 0.58589 0.49593 -0.52600
C 	C 	0.38240 0.63657 0.43370 0.53300
C 	C 	0.31110 0.69270 0.46930 -0.15500
C 	C 	0.27360 0.68910 0.56910 0.14500
C 	C 	0.28890 0.75670 0.40240 -0.06600
H 	H 	0.31750 0.76240 0.33700 0.07300
N 	N 	0.28840 0.62010 0.63420 -0.31200
H 	H 	0.25790 0.61280 0.69130 0.13000
H 	H 	0.32770 0.58620 0.61610 0.17900
H 	H 	0.54980 0.36020 0.26140 0.17000
O 	O 	0.08434 0.85308 0.84605 -0.52700
O 	O 	0.09501 0.91411 0.99593 -0.44500
C 	C 	0.11760 0.86343 0.93370 0.48200
C 	C 	0.18890 0.80730 0.96930 -0.00100
C 	C 	0.22640 0.81090 0.06910 0.00200
C 	C 	0.21110 0.74330 0.90240 -0.17500
H 	H 	0.18250 0.73760 0.83700 0.10300
N 	N 	0.21160 0.87990 0.13420 -0.29000
H 	H 	0.24210 0.88720 0.19130 0.13900
H 	H 	0.17230 0.91380 0.11610 0.17100
H 	H 	0.95020 0.13980 0.76140 0.25300
O 	O 	0.58434 0.35308 0.84605 -0.52900
O 	O 	0.59501 0.41411 0.99593 -0.46900
C 	C 	0.61760 0.36343 0.93370 0.48400
C 	C 	0.68890 0.30730 0.96930 -0.00400
C 	C 	0.72640 0.31090 0.06910 0.00200
C 	C 	0.71110 0.24330 0.90240 -0.17300
H 	H 	0.68250 0.23760 0.83700 0.10500
N 	N 	0.71160 0.37990 0.13420 -0.28500
H 	H 	0.74210 0.38720 0.19130 0.13000
H 	H 	0.67230 0.41380 0.11610 0.15400
H 	H 	0.45020 0.63980 0.76140 0.17900
O 	O 	0.91566 0.85308 0.84605 -0.46300
O 	O 	0.90499 0.91411 0.99593 -0.39400
C 	C 	0.88240 0.86343 0.93370 0.47400
C 	C 	0.81110 0.80730 0.96930 0.00900
C 	C 	0.77360 0.81090 0.06910 0.01600
C 	C 	0.78890 0.74330 0.90240 -0.17100
H 	H 	0.81750 0.73760 0.83700 0.11600
N 	N 	0.78840 0.87990 0.13420 -0.29200
H 	H 	0.75790 0.88720 0.19130 0.14200
H 	H 	0.82770 0.91380 0.11610 0.18200
H 	H 	0.04980 0.13980 0.76140 0.21200
O 	O 	0.41566 0.35308 0.84605 -0.53100
O 	O 	0.40499 0.41411 0.99593 -0.46900
C 	C 	0.38240 0.36343 0.93370 0.47800
C 	C 	0.31110 0.30730 0.96930 0.00200
C 	C 	0.27360 0.31090 0.06910 -0.01800
C 	C 	0.28890 0.24330 0.90240 -0.18600
H 	H 	0.31750 0.23760 0.83700 0.10600
N 	N 	0.28840 0.37990 0.13420 -0.28100
H 	H 	0.25790 0.38720 0.19130 0.11700
H 	H 	0.32770 0.41380 0.11610 0.14700
H 	H 	0.54980 0.63980 0.76140 0.17900
O 	O 	0.08434 0.14692 0.34605 -0.59700
O 	O 	0.09501 0.08589 0.49593 -0.58100
C 	C 	0.11760 0.13657 0.43370 0.53600
C 	C 	0.18890 0.19270 0.46930 -0.17200
C 	C 	0.22640 0.18910 0.56910 0.13600
C 	C 	0.21110 0.25670 0.40240 -0.06600
H 	H 	0.18250 0.26240 0.33700 0.06100
N 	N 	0.21160 0.12010 0.63420 -0.30900
H 	H 	0.24210 0.11280 0.69130 0.11900
H 	H 	0.17230 0.08620 0.61610 0.16100
H 	H 	0.95020 0.86020 0.26140 0.24300
O 	O 	0.58434 0.64692 0.34605 -0.54200
O 	O 	0.59501 0.58589 0.49593 -0.52400
C 	C 	0.61760 0.63657 0.43370 0.53700
C 	C 	0.68890 0.69270 0.46930 -0.15200
C 	C 	0.72640 0.68910 0.56910 0.15700
C 	C 	0.71110 0.75670 0.40240 -0.05900
H 	H 	0.68250 0.76240 0.33700 0.07400
N 	N 	0.71160 0.62010 0.63420 -0.31400
H 	H 	0.74210 0.61280 0.69130 0.14200
H 	H 	0.67230 0.58620 0.61610 0.18500
H 	H 	0.45020 0.36020 0.26140 0.17000
O 	O 	0.08434 0.85308 0.65395 -0.54600
O 	O 	0.09501 0.91411 0.50407 -0.50100
C 	C 	0.11760 0.86343 0.56630 0.53400
C 	C 	0.18890 0.80730 0.53070 -0.15600
C 	C 	0.22640 0.81090 0.43090 0.15200
C 	C 	0.21110 0.74330 0.59760 -0.06000
H 	H 	0.18250 0.73760 0.66300 0.06100
N 	N 	0.21160 0.87990 0.36580 -0.32000
H 	H 	0.24210 0.88720 0.30870 0.15100
H 	H 	0.17230 0.91380 0.38390 0.20000
H 	H 	0.95020 0.13980 0.73860 0.26500
O 	O 	0.58434 0.35308 0.65395 -0.54800
O 	O 	0.59501 0.41411 0.50407 -0.52700
C 	C 	0.61760 0.36343 0.56630 0.53700
C 	C 	0.68890 0.30730 0.53070 -0.15900
C 	C 	0.72640 0.31090 0.43090 0.15200
C 	C 	0.71110 0.24330 0.59760 -0.05800
H 	H 	0.68250 0.23760 0.66300 0.06300
N 	N 	0.71160 0.37990 0.36580 -0.31500
H 	H 	0.74210 0.38720 0.30870 0.14100
H 	H 	0.67230 0.41380 0.38390 0.18300
H 	H 	0.45020 0.63980 0.73860 0.19200
O 	O 	0.91566 0.14692 0.15395 -0.54000
O 	O 	0.90499 0.08589 0.00407 -0.56900
C 	C 	0.88240 0.13657 0.06630 0.57600
C 	C 	0.81110 0.19270 0.03070 -0.30500
C 	C 	0.77360 0.18910 0.93090 0.29100
C 	C 	0.78890 0.25670 0.09760 0.04700
H 	H 	0.81750 0.26240 0.16300 0.03500
N 	N 	0.78840 0.12010 0.86580 -0.34000
H 	H 	0.75790 0.11280 0.80870 0.13500
H 	H 	0.82770 0.08620 0.88390 0.20200
H 	H 	0.04980 0.86020 0.23860 0.21700
O 	O 	0.41566 0.64692 0.15395 -0.56200
O 	O 	0.40499 0.58589 0.00407 -0.58200
C 	C 	0.38240 0.63657 0.06630 0.58600
C 	C 	0.31110 0.69270 0.03070 -0.31000
C 	C 	0.27360 0.68910 0.93090 0.29500
C 	C 	0.28890 0.75670 0.09760 0.04900
H 	H 	0.31750 0.76240 0.16300 0.03100
N 	N 	0.28840 0.62010 0.86580 -0.34200
H 	H 	0.25790 0.61280 0.80870 0.14100
H 	H 	0.32770 0.58620 0.88390 0.20800
H 	H 	0.54980 0.36020 0.23860 0.18300
Mg	Mg	-0.00000 0.10898 0.25000 1.47900
O 	O 	0.00000 0.87640 0.25000 -0.95100
N 	N 	0.00000 0.95730 0.25000 0.15600
Mg	Mg	0.50000 0.60898 0.25000 1.49300
O 	O 	0.50000 0.37640 0.25000 -0.73900
N 	N 	0.50000 0.45730 0.25000 0.14500
Mg	Mg	0.00000 0.89102 0.75000 1.49200
O 	O 	0.00000 0.12360 0.75000 -0.96500
N 	N 	0.00000 0.04270 0.75000 0.16900
Mg	Mg	0.50000 0.39102 0.75000 1.49200
O 	O 	0.50000 0.62360 0.75000 -0.73500
N 	N 	0.50000 0.54270 0.75000 0.14700
Mg	Mg	-0.00000 0.00000 -0.00000 1.45900
Mg	Mg	0.50000 0.50000 -0.00000 1.47800
Mg	Mg	0.00000 0.00000 0.50000 1.46500
Mg	Mg	0.50000 0.50000 0.50000 1.48400
O 	O 	-0.00000 0.99925 0.16230 -0.46800
O 	O 	0.50000 0.49925 0.16230 -0.49400
O 	O 	0.00000 0.00075 0.66230 -0.59100
O 	O 	0.50000 0.50075 0.66230 -0.48000
O 	O 	0.00000 0.99925 0.33770 -0.45500
O 	O 	0.50000 0.49925 0.33770 -0.48100
O 	O 	-0.00000 0.00075 0.83770 -0.57300
O 	O 	0.50000 0.50075 0.83770 -0.46400
