data_crystal

_cell_length_a 12.47400
_cell_length_b 15.24800
_cell_length_c 16.89900
_cell_angle_alpha 90.00000
_cell_angle_beta  90.00000
_cell_angle_gamma 90.00000

_symmetry_space_group_name_	'P 1'
_symmetry_space_group_name_H-M	'P 1'

loop_
_symmetry_equiv_pos_as_xyz
  x,y,z

loop_
_atom_site_label
_atom_site_type_symbol
_atom_site_fract_x
_atom_site_fract_y
_atom_site_fract_z
_atom_site_charge
O 	O 	0.63210 0.95090 0.17710 -0.40300
C 	C 	0.54860 0.90920 0.15810 0.42000
O 	O 	0.49610 0.91360 0.09520 -0.43900
O 	O 	0.33830 0.48650 0.50360 -0.47400
O 	O 	0.48420 0.60390 0.42580 -0.51000
C 	C 	0.41700 0.64050 0.38460 0.46700
O 	O 	0.31940 0.62160 0.38470 -0.48800
C 	C 	0.45210 0.71210 0.32870 -0.13000
C 	C 	0.55550 0.75060 0.33260 0.17100
N 	N 	0.62030 0.73220 0.39720 -0.32700
H 	H 	0.67850 0.76130 0.40440 0.16900
H 	H 	0.60220 0.69170 0.43000 0.19600
C 	C 	0.58300 0.81630 0.27830 -0.08500
H 	H 	0.64900 0.84430 0.28270 0.09700
C 	C 	0.51300 0.84050 0.21750 -0.08900
C 	C 	0.41610 0.79620 0.20890 0.16300
C 	C 	0.38460 0.73340 0.26500 -0.06200
H 	H 	0.31850 0.70560 0.25990 0.07000
N 	N 	0.35510 0.80570 0.14110 -0.32000
H 	H 	0.37690 0.83930 0.10350 0.20800
H 	H 	0.29530 0.77800 0.13650 0.15900
O 	O 	0.13210 0.54910 0.32290 -0.49000
C 	C 	0.04860 0.59080 0.34190 0.38000
O 	O 	0.99610 0.58640 0.40480 -0.41500
O 	O 	0.83830 0.01350 0.99640 -0.47700
O 	O 	0.98420 0.89610 0.07420 -0.42300
C 	C 	0.91700 0.85950 0.11540 0.43100
O 	O 	0.81940 0.87840 0.11530 -0.45300
C 	C 	0.95210 0.78790 0.17130 -0.00800
C 	C 	0.05550 0.74940 0.16740 0.04300
N 	N 	0.12030 0.76780 0.10280 -0.28700
H 	H 	0.17850 0.73870 0.09560 0.12000
H 	H 	0.10220 0.80830 0.07000 0.14900
C 	C 	0.08300 0.68370 0.22170 -0.00000
H 	H 	0.14900 0.65570 0.21730 0.04000
C 	C 	0.01300 0.65950 0.28250 -0.21700
C 	C 	0.91610 0.70380 0.29110 0.26700
C 	C 	0.88460 0.76660 0.23500 -0.14000
H 	H 	0.81850 0.79440 0.24010 0.10500
N 	N 	0.85510 0.69430 0.35890 -0.34100
H 	H 	0.87690 0.66070 0.39650 0.21400
H 	H 	0.79530 0.72200 0.36350 0.16900
O 	O 	0.86790 0.04910 0.17710 -0.60100
C 	C 	0.95140 0.09080 0.15810 0.48400
O 	O 	0.00390 0.08640 0.09520 -0.63200
O 	O 	0.16170 0.51350 0.50360 -0.48500
O 	O 	0.01580 0.39610 0.42580 -0.55600
C 	C 	0.08300 0.35950 0.38460 0.49300
O 	O 	0.18060 0.37840 0.38470 -0.50900
C 	C 	0.04790 0.28790 0.32870 -0.25200
C 	C 	0.94450 0.24940 0.33260 0.24700
N 	N 	0.87970 0.26780 0.39720 -0.34100
H 	H 	0.82150 0.23870 0.40440 0.13900
H 	H 	0.89780 0.30830 0.43000 0.20600
C 	C 	0.91700 0.18370 0.27830 -0.14200
H 	H 	0.85100 0.15570 0.28270 0.07200
C 	C 	0.98700 0.15950 0.21750 -0.04700
C 	C 	0.08390 0.20380 0.20890 0.03800
C 	C 	0.11540 0.26660 0.26500 -0.00200
H 	H 	0.18150 0.29440 0.25990 0.03600
N 	N 	0.14490 0.19430 0.14110 -0.29500
H 	H 	0.12310 0.16070 0.10350 0.15600
H 	H 	0.20470 0.22200 0.13650 0.13100
O 	O 	0.36790 0.45090 0.32290 -0.49800
C 	C 	0.45140 0.40920 0.34190 0.42500
O 	O 	0.50390 0.41360 0.40480 -0.48500
O 	O 	0.66170 0.98650 0.99640 -0.20500
O 	O 	0.51580 0.10390 0.07420 -0.60600
C 	C 	0.58300 0.14050 0.11540 0.45900
O 	O 	0.68060 0.12160 0.11530 -0.57500
C 	C 	0.54790 0.21210 0.17130 -0.15400
C 	C 	0.44450 0.25060 0.16740 0.13700
N 	N 	0.37970 0.23220 0.10280 -0.31200
H 	H 	0.32150 0.26130 0.09560 0.12400
H 	H 	0.39780 0.19170 0.07000 0.16100
C 	C 	0.41700 0.31630 0.22170 -0.08100
H 	H 	0.35100 0.34430 0.21730 0.06400
C 	C 	0.48700 0.34050 0.28250 -0.12300
C 	C 	0.58390 0.29620 0.29110 0.14300
C 	C 	0.61540 0.23340 0.23500 -0.07400
H 	H 	0.68150 0.20560 0.24010 0.05500
N 	N 	0.64490 0.30570 0.35890 -0.31900
H 	H 	0.62310 0.33930 0.39650 0.19100
H 	H 	0.70470 0.27800 0.36350 0.14500
O 	O 	0.36790 0.04910 0.82290 -0.56700
C 	C 	0.45140 0.09080 0.84190 0.43300
O 	O 	0.50390 0.08640 0.90480 -0.49500
O 	O 	0.66170 0.51350 0.49640 -0.47200
O 	O 	0.51580 0.39610 0.57420 -0.51100
C 	C 	0.58300 0.35950 0.61540 0.46000
O 	O 	0.68060 0.37840 0.61530 -0.49300
C 	C 	0.54790 0.28790 0.67130 -0.13200
C 	C 	0.44450 0.24940 0.66740 0.13800
N 	N 	0.37970 0.26780 0.60280 -0.31400
H 	H 	0.32150 0.23870 0.59560 0.12700
H 	H 	0.39780 0.30830 0.57000 0.17800
C 	C 	0.41700 0.18370 0.72170 -0.06700
H 	H 	0.35100 0.15570 0.71730 0.04800
C 	C 	0.48700 0.15950 0.78250 -0.13700
C 	C 	0.58390 0.20380 0.79110 0.15700
C 	C 	0.61540 0.26660 0.73500 -0.07500
H 	H 	0.68150 0.29440 0.74010 0.06900
N 	N 	0.64490 0.19430 0.85890 -0.32300
H 	H 	0.62310 0.16070 0.89650 0.20500
H 	H 	0.70470 0.22200 0.86350 0.16000
O 	O 	0.86790 0.45090 0.67710 -0.49500
C 	C 	0.95140 0.40920 0.65810 0.47500
O 	O 	0.00390 0.41360 0.59520 -0.54500
O 	O 	0.16170 0.98650 0.00360 -0.32900
O 	O 	0.01580 0.10390 0.92580 -0.57000
C 	C 	0.08300 0.14050 0.88460 0.48900
O 	O 	0.18060 0.12160 0.88470 -0.51300
C 	C 	0.04790 0.21210 0.82870 -0.25000
C 	C 	0.94450 0.25060 0.83260 0.26900
N 	N 	0.87970 0.23220 0.89720 -0.35400
H 	H 	0.82150 0.26130 0.90440 0.17800
H 	H 	0.89780 0.19170 0.93000 0.23500
C 	C 	0.91700 0.31630 0.77830 -0.15000
H 	H 	0.85100 0.34430 0.78270 0.10300
C 	C 	0.98700 0.34050 0.71750 -0.01600
C 	C 	0.08390 0.29620 0.70890 0.04500
C 	C 	0.11540 0.23340 0.76500 0.00300
H 	H 	0.18150 0.20560 0.75990 0.03300
N 	N 	0.14490 0.30570 0.64110 -0.29900
H 	H 	0.12310 0.33930 0.60350 0.17900
H 	H 	0.20470 0.27800 0.63650 0.13900
O 	O 	0.13210 0.95090 0.82290 -0.37700
C 	C 	0.04860 0.90920 0.84190 0.37000
O 	O 	0.99610 0.91360 0.90480 -0.31300
O 	O 	0.83830 0.48650 0.49640 -0.45900
O 	O 	0.98420 0.60390 0.57420 -0.46300
C 	C 	0.91700 0.64050 0.61540 0.43400
O 	O 	0.81940 0.62160 0.61530 -0.47200
C 	C 	0.95210 0.71210 0.67130 -0.01100
C 	C 	0.05550 0.75060 0.66740 0.06200
N 	N 	0.12030 0.73220 0.60280 -0.30100
H 	H 	0.17850 0.76130 0.59560 0.15700
H 	H 	0.10220 0.69170 0.57000 0.16800
C 	C 	0.08300 0.81630 0.72170 -0.01000
H 	H 	0.14900 0.84430 0.71730 0.07100
C 	C 	0.01300 0.84050 0.78250 -0.18200
C 	C 	0.91610 0.79620 0.79110 0.28000
C 	C 	0.88460 0.73340 0.73500 -0.13500
H 	H 	0.81850 0.70560 0.74010 0.10300
N 	N 	0.85510 0.80570 0.85890 -0.34800
H 	H 	0.87690 0.83930 0.89650 0.25200
H 	H 	0.79530 0.77800 0.86350 0.18600
O 	O 	0.63210 0.54910 0.67710 -0.48600
C 	C 	0.54860 0.59080 0.65810 0.43000
O 	O 	0.49610 0.58640 0.59520 -0.47700
O 	O 	0.33830 0.01350 0.00360 -0.62100
O 	O 	0.48420 0.89610 0.92580 -0.39600
C 	C 	0.41700 0.85950 0.88460 0.46300
O 	O 	0.31940 0.87840 0.88470 -0.39800
C 	C 	0.45210 0.78790 0.82870 -0.10700
C 	C 	0.55550 0.74940 0.83260 0.17500
N 	N 	0.62030 0.76780 0.89720 -0.32800
H 	H 	0.67850 0.73870 0.90440 0.17300
H 	H 	0.60220 0.80830 0.93000 0.21900
C 	C 	0.58300 0.68370 0.77830 -0.07100
H 	H 	0.64900 0.65570 0.78270 0.07800
C 	C 	0.51300 0.65950 0.71750 -0.10900
C 	C 	0.41610 0.70380 0.70890 0.16700
C 	C 	0.38460 0.76660 0.76500 -0.06200
H 	H 	0.31850 0.79440 0.75990 0.08300
N 	N 	0.35510 0.69430 0.64110 -0.32100
H 	H 	0.37690 0.66070 0.60350 0.20200
H 	H 	0.29530 0.72200 0.63650 0.16400
Mg	Mg	0.25000 0.50000 0.39148 1.47700
N 	N 	0.25000 0.50000 0.54200 0.08600
O 	O 	0.25000 0.50000 0.62160 -0.13100
Mg	Mg	0.75000 0.00000 0.10852 1.45000
N 	N 	0.75000 0.00000 0.95800 -0.02600
O 	O 	0.75000 0.00000 0.87840 -0.21700
Mg	Mg	0.75000 0.50000 0.60852 1.47800
N 	N 	0.75000 0.50000 0.45800 0.08400
O 	O 	0.75000 0.50000 0.37840 -0.12700
Mg	Mg	0.25000 0.00000 0.89148 1.46300
N 	N 	0.25000 -0.00000 0.04200 -0.02200
O 	O 	0.25000 0.00000 0.12160 -0.24000
Mg	Mg	0.50000 0.50000 0.50000 1.48100
Mg	Mg	-0.00000 0.00000 -0.00000 1.44300
Mg	Mg	-0.00000 0.50000 0.50000 1.47500
Mg	Mg	0.50000 0.00000 -0.00000 1.44800
