data_crystal

_cell_length_a 6.14600
_cell_length_b 8.69200
_cell_length_c 9.21600
_cell_angle_alpha 115.50000
_cell_angle_beta  95.09400
_cell_angle_gamma 84.50800

_symmetry_space_group_name_	'P 1'
_symmetry_space_group_name_H-M	'P 1'

loop_
_symmetry_equiv_pos_as_xyz
  x,y,z

loop_
_atom_site_label
_atom_site_type_symbol
_atom_site_fract_x
_atom_site_fract_y
_atom_site_fract_z
_atom_site_charge
Ba	Ba	0.72180 0.95580 0.79070 2.11000
Ba	Ba	0.78670 0.36350 0.58150 1.97000
Ba	Ba	0.27820 0.04420 0.20930 2.11000
Ba	Ba	0.21330 0.63650 0.41850 1.97000
C 	C 	0.17600 0.07600 0.67700 0.28100
C 	C 	0.32500 0.18000 0.62700 0.22500
C 	C 	0.13600 0.72400 0.82000 0.23200
C 	C 	0.38500 0.71300 0.81700 0.23300
C 	C 	0.82400 0.92400 0.32300 0.28100
C 	C 	0.67500 0.82000 0.37300 0.22500
C 	C 	0.86400 0.27600 0.18000 0.23200
C 	C 	0.61500 0.28700 0.18300 0.23300
O 	O 	0.98100 0.12500 0.68600 -0.63100
O 	O 	0.26700 0.95300 0.69600 -0.61500
O 	O 	0.23800 0.25300 0.54000 -0.63000
O 	O 	0.52400 0.18100 0.67300 -0.61500
O 	O 	0.02900 0.64400 0.68900 -0.68800
O 	O 	0.05000 0.81500 0.95000 -0.59500
O 	O 	0.47500 0.63000 0.68500 -0.67800
O 	O 	0.48600 0.80100 0.94700 -0.59900
O 	O 	0.01900 0.87500 0.31400 -0.63100
O 	O 	0.73300 0.04700 0.30400 -0.61500
O 	O 	0.76200 0.74700 0.46000 -0.63000
O 	O 	0.47600 0.81900 0.32700 -0.61500
O 	O 	0.97100 0.35600 0.31100 -0.68800
O 	O 	0.95000 0.18500 0.05000 -0.59500
O 	O 	0.52500 0.37000 0.31500 -0.67800
O 	O 	0.51400 0.19900 0.05300 -0.59900
