data_crystal

_cell_length_a 9.65520
_cell_length_b 17.19580
_cell_length_c 20.88040
_cell_angle_alpha 90.00000
_cell_angle_beta  94.23100
_cell_angle_gamma 90.00000

_symmetry_space_group_name_	'P 1'
_symmetry_space_group_name_H-M	'P 1'

loop_
_symmetry_equiv_pos_as_xyz
  x,y,z

loop_
_atom_site_label
_atom_site_type_symbol
_atom_site_fract_x
_atom_site_fract_y
_atom_site_fract_z
_atom_site_charge
Cu	Cu	0.29918 0.49341 0.52393 0.90500
Cu	Cu	0.00104 0.52158 0.42825 0.92300
O 	O 	0.31270 0.40430 0.58160 -0.46100
O 	O 	0.10720 0.40270 0.62553 -0.44100
O 	O 	0.04980 0.06260 0.83340 -0.33700
O 	O 	0.88100 0.06760 0.89860 -0.44800
O 	O 	0.12300 0.45980 0.48512 -0.70500
H 	H 	0.13200 0.41110 0.48400 0.26400
N 	N 	0.27780 0.59020 0.46810 -0.18600
N 	N 	0.14990 0.60310 0.43650 -0.18500
N 	N 	0.28450 0.70150 0.41880 -0.11400
N 	N 	0.57990 0.93270 0.05660 -0.16000
N 	N 	0.45570 0.96010 0.07780 -0.19100
N 	N 	0.57760 0.91250 0.15920 -0.11000
C 	C 	0.35590 0.65050 0.45690 0.09100
H 	H 	0.44750 0.65690 0.47310 0.00200
C 	C 	0.15660 0.67080 0.40810 0.08200
H 	H 	0.08350 0.69430 0.38390 0.01200
C 	C 	0.33210 0.77510 0.39250 -0.18200
H 	H 	0.40600 0.79610 0.42150 0.07900
H 	H 	0.25590 0.81200 0.39030 0.08200
C 	C 	0.38470 0.76650 0.32630 0.17900
C 	C 	0.35180 0.70440 0.28570 -0.23700
H 	H 	0.29470 0.66490 0.29900 0.12200
C 	C 	0.40290 0.70060 0.22570 0.13700
H 	H 	0.38000 0.65880 0.19870 -0.02600
C 	C 	0.48850 0.75930 0.20570 -0.24400
H 	H 	0.52350 0.75640 0.16550 0.11700
C 	C 	0.52190 0.82190 0.24540 0.19100
C 	C 	0.46860 0.82630 0.30540 -0.26600
H 	H 	0.48890 0.86900 0.33170 0.11100
C 	C 	0.61870 0.88570 0.22640 -0.20400
H 	H 	0.61470 0.92910 0.25590 0.09400
H 	H 	0.71340 0.86650 0.22880 0.10800
C 	C 	0.64920 0.90530 0.10700 0.08500
H 	H 	0.73730 0.88330 0.10690 0.00300
C 	C 	0.45770 0.94690 0.13930 0.09500
H 	H 	0.38680 0.95950 0.16530 -0.00100
C 	C 	0.22620 0.37670 0.61780 0.47100
C 	C 	0.27670 0.30680 0.65660 -0.48400
H 	H 	0.35650 0.32230 0.68460 0.18500
H 	H 	0.30790 0.26780 0.62730 0.17500
C 	C 	0.17130 0.26980 0.69710 0.17400
C 	C 	0.15490 0.29760 0.75880 -0.09900
H 	H 	0.20750 0.33960 0.77490 0.06600
C 	C 	0.05980 0.26250 0.79600 -0.11900
H 	H 	0.05170 0.28080 0.83740 0.06800
C 	C 	0.97920 0.20330 0.77480 0.17600
C 	C 	0.99520 0.17550 0.71430 -0.11100
H 	H 	0.94100 0.13380 0.69890 0.06900
C 	C 	0.09130 0.20840 0.67510 -0.11100
H 	H 	0.10060 0.18850 0.63420 0.06300
C 	C 	0.87950 0.16430 0.81710 -0.46100
H 	H 	0.79670 0.14900 0.79110 0.17400
H 	H 	0.85220 0.20120 0.84900 0.17000
C 	C 	0.94260 0.09290 0.85110 0.42100
Cu	Cu	0.70082 0.99341 0.97607 0.90300
Cu	Cu	0.99896 0.02158 0.07175 0.91900
O 	O 	0.68730 0.90430 0.91840 -0.46100
O 	O 	0.89280 0.90270 0.87447 -0.44000
O 	O 	0.95020 0.56260 0.66660 -0.34300
O 	O 	0.11900 0.56760 0.60140 -0.45100
O 	O 	0.87700 0.95980 0.01488 -0.69700
H 	H 	0.86800 0.91110 0.01600 0.26400
N 	N 	0.72220 0.09020 0.03190 -0.18900
N 	N 	0.85010 0.10310 0.06350 -0.18700
N 	N 	0.71550 0.20150 0.08120 -0.11400
N 	N 	0.42010 0.43270 0.44340 -0.16200
N 	N 	0.54430 0.46010 0.42220 -0.19300
N 	N 	0.42240 0.41250 0.34080 -0.11000
C 	C 	0.64410 0.15050 0.04310 0.09000
H 	H 	0.55250 0.15690 0.02690 0.00100
C 	C 	0.84340 0.17080 0.09190 0.08100
H 	H 	0.91650 0.19430 0.11610 0.01200
C 	C 	0.66790 0.27510 0.10750 -0.18200
H 	H 	0.59400 0.29610 0.07850 0.07900
H 	H 	0.74410 0.31200 0.10970 0.08100
C 	C 	0.61530 0.26650 0.17370 0.17900
C 	C 	0.64820 0.20440 0.21430 -0.23700
H 	H 	0.70530 0.16490 0.20100 0.12100
C 	C 	0.59710 0.20060 0.27430 0.13600
H 	H 	0.62000 0.15880 0.30130 -0.02600
C 	C 	0.51150 0.25930 0.29430 -0.24300
H 	H 	0.47650 0.25640 0.33450 0.11600
C 	C 	0.47810 0.32190 0.25460 0.19000
C 	C 	0.53140 0.32630 0.19460 -0.26600
H 	H 	0.51110 0.36900 0.16830 0.11100
C 	C 	0.38130 0.38570 0.27360 -0.20400
H 	H 	0.38530 0.42910 0.24410 0.09300
H 	H 	0.28660 0.36650 0.27120 0.10700
C 	C 	0.35080 0.40530 0.39300 0.08400
H 	H 	0.26270 0.38330 0.39310 0.00300
C 	C 	0.54230 0.44690 0.36070 0.09400
H 	H 	0.61320 0.45950 0.33470 -0.00200
C 	C 	0.77380 0.87670 0.88220 0.47000
C 	C 	0.72330 0.80680 0.84340 -0.48400
H 	H 	0.64350 0.82230 0.81540 0.18400
H 	H 	0.69210 0.76780 0.87270 0.17500
C 	C 	0.82870 0.76980 0.80290 0.17500
C 	C 	0.84510 0.79760 0.74120 -0.09900
H 	H 	0.79250 0.83960 0.72510 0.06600
C 	C 	0.94020 0.76250 0.70400 -0.12000
H 	H 	0.94830 0.78080 0.66260 0.06800
C 	C 	0.02080 0.70330 0.72520 0.17700
C 	C 	0.00480 0.67550 0.78570 -0.11000
H 	H 	0.05900 0.63380 0.80110 0.06900
C 	C 	0.90870 0.70840 0.82490 -0.11300
H 	H 	0.89940 0.68850 0.86580 0.06300
C 	C 	0.12050 0.66430 0.68290 -0.46300
H 	H 	0.20330 0.64900 0.70890 0.17500
H 	H 	0.14780 0.70120 0.65100 0.17100
C 	C 	0.05740 0.59290 0.64890 0.42600
Cu	Cu	0.70082 0.50659 0.47607 0.90600
Cu	Cu	0.99896 0.47842 0.57175 0.92400
O 	O 	0.68730 0.59570 0.41840 -0.46000
O 	O 	0.89280 0.59730 0.37447 -0.44000
O 	O 	0.95020 0.93740 0.16660 -0.33700
O 	O 	0.11900 0.93240 0.10140 -0.44800
O 	O 	0.87700 0.54020 0.51488 -0.70500
H 	H 	0.86800 0.58890 0.51600 0.26400
N 	N 	0.72220 0.40980 0.53190 -0.18600
N 	N 	0.85010 0.39690 0.56350 -0.18500
N 	N 	0.71550 0.29850 0.58120 -0.11400
N 	N 	0.42010 0.06730 0.94340 -0.16000
N 	N 	0.54430 0.03990 0.92220 -0.19100
N 	N 	0.42240 0.08750 0.84080 -0.11000
C 	C 	0.64410 0.34950 0.54310 0.09100
H 	H 	0.55250 0.34310 0.52690 0.00200
C 	C 	0.84340 0.32920 0.59190 0.08200
H 	H 	0.91650 0.30570 0.61610 0.01200
C 	C 	0.66790 0.22490 0.60750 -0.18200
H 	H 	0.59400 0.20390 0.57850 0.07900
H 	H 	0.74410 0.18800 0.60970 0.08200
C 	C 	0.61530 0.23350 0.67370 0.17900
C 	C 	0.64820 0.29560 0.71430 -0.23700
H 	H 	0.70530 0.33510 0.70100 0.12200
C 	C 	0.59710 0.29940 0.77430 0.13700
H 	H 	0.62000 0.34120 0.80130 -0.02600
C 	C 	0.51150 0.24070 0.79430 -0.24400
H 	H 	0.47650 0.24360 0.83450 0.11700
C 	C 	0.47810 0.17810 0.75460 0.19100
C 	C 	0.53140 0.17370 0.69460 -0.26600
H 	H 	0.51110 0.13100 0.66830 0.11100
C 	C 	0.38130 0.11430 0.77360 -0.20400
H 	H 	0.38530 0.07090 0.74410 0.09400
H 	H 	0.28660 0.13350 0.77120 0.10800
C 	C 	0.35080 0.09470 0.89300 0.08500
H 	H 	0.26270 0.11670 0.89310 0.00300
C 	C 	0.54230 0.05310 0.86070 0.09500
H 	H 	0.61320 0.04050 0.83470 -0.00100
C 	C 	0.77380 0.62330 0.38220 0.47100
C 	C 	0.72330 0.69320 0.34340 -0.48400
H 	H 	0.64350 0.67770 0.31540 0.18500
H 	H 	0.69210 0.73220 0.37270 0.17500
C 	C 	0.82870 0.73020 0.30290 0.17400
C 	C 	0.84510 0.70240 0.24120 -0.09900
H 	H 	0.79250 0.66040 0.22510 0.06600
C 	C 	0.94020 0.73750 0.20400 -0.11900
H 	H 	0.94830 0.71920 0.16260 0.06800
C 	C 	0.02080 0.79670 0.22520 0.17600
C 	C 	0.00480 0.82450 0.28570 -0.11100
H 	H 	0.05900 0.86620 0.30110 0.06900
C 	C 	0.90870 0.79160 0.32490 -0.11100
H 	H 	0.89940 0.81150 0.36580 0.06300
C 	C 	0.12050 0.83570 0.18290 -0.46100
H 	H 	0.20330 0.85100 0.20890 0.17400
H 	H 	0.14780 0.79880 0.15100 0.17000
C 	C 	0.05740 0.90710 0.14890 0.42100
Cu	Cu	0.29918 0.00659 0.02393 0.90300
Cu	Cu	0.00104 0.97842 0.92825 0.91900
O 	O 	0.31270 0.09570 0.08160 -0.46100
O 	O 	0.10720 0.09730 0.12553 -0.44000
O 	O 	0.04980 0.43740 0.33340 -0.34300
O 	O 	0.88100 0.43240 0.39860 -0.45100
O 	O 	0.12300 0.04020 0.98512 -0.69700
H 	H 	0.13200 0.08890 0.98400 0.26400
N 	N 	0.27780 0.90980 0.96810 -0.18900
N 	N 	0.14990 0.89690 0.93650 -0.18700
N 	N 	0.28450 0.79850 0.91880 -0.11400
N 	N 	0.57990 0.56730 0.55660 -0.16200
N 	N 	0.45570 0.53990 0.57780 -0.19300
N 	N 	0.57760 0.58750 0.65920 -0.11000
C 	C 	0.35590 0.84950 0.95690 0.09000
H 	H 	0.44750 0.84310 0.97310 0.00100
C 	C 	0.15660 0.82920 0.90810 0.08100
H 	H 	0.08350 0.80570 0.88390 0.01200
C 	C 	0.33210 0.72490 0.89250 -0.18200
H 	H 	0.40600 0.70390 0.92150 0.07900
H 	H 	0.25590 0.68800 0.89030 0.08100
C 	C 	0.38470 0.73350 0.82630 0.17900
C 	C 	0.35180 0.79560 0.78570 -0.23700
H 	H 	0.29470 0.83510 0.79900 0.12100
C 	C 	0.40290 0.79940 0.72570 0.13600
H 	H 	0.38000 0.84120 0.69870 -0.02600
C 	C 	0.48850 0.74070 0.70570 -0.24300
H 	H 	0.52350 0.74360 0.66550 0.11600
C 	C 	0.52190 0.67810 0.74540 0.19000
C 	C 	0.46860 0.67370 0.80540 -0.26600
H 	H 	0.48890 0.63100 0.83170 0.11100
C 	C 	0.61870 0.61430 0.72640 -0.20400
H 	H 	0.61470 0.57090 0.75590 0.09300
H 	H 	0.71340 0.63350 0.72880 0.10700
C 	C 	0.64920 0.59470 0.60700 0.08400
H 	H 	0.73730 0.61670 0.60690 0.00300
C 	C 	0.45770 0.55310 0.63930 0.09400
H 	H 	0.38680 0.54050 0.66530 -0.00200
C 	C 	0.22620 0.12330 0.11780 0.47000
C 	C 	0.27670 0.19320 0.15660 -0.48400
H 	H 	0.35650 0.17770 0.18460 0.18400
H 	H 	0.30790 0.23220 0.12730 0.17500
C 	C 	0.17130 0.23020 0.19710 0.17500
C 	C 	0.15490 0.20240 0.25880 -0.09900
H 	H 	0.20750 0.16040 0.27490 0.06600
C 	C 	0.05980 0.23750 0.29600 -0.12000
H 	H 	0.05170 0.21920 0.33740 0.06800
C 	C 	0.97920 0.29670 0.27480 0.17700
C 	C 	0.99520 0.32450 0.21430 -0.11000
H 	H 	0.94100 0.36620 0.19890 0.06900
C 	C 	0.09130 0.29160 0.17510 -0.11300
H 	H 	0.10060 0.31150 0.13420 0.06300
C 	C 	0.87950 0.33570 0.31710 -0.46300
H 	H 	0.79670 0.35100 0.29110 0.17500
H 	H 	0.85220 0.29880 0.34900 0.17100
C 	C 	0.94260 0.40710 0.35110 0.42600
