data_crystal

_cell_length_a 9.66910
_cell_length_b 17.45980
_cell_length_c 20.44870
_cell_angle_alpha 90.00000
_cell_angle_beta  94.89100
_cell_angle_gamma 90.00000

_symmetry_space_group_name_	'P 1'
_symmetry_space_group_name_H-M	'P 1'

loop_
_symmetry_equiv_pos_as_xyz
  x,y,z

loop_
_atom_site_label
_atom_site_type_symbol
_atom_site_fract_x
_atom_site_fract_y
_atom_site_fract_z
_atom_site_charge
Cu	Cu	0.30000 0.50752 0.52443 0.90800
Cu	Cu	0.99985 0.47758 0.42703 0.92400
O 	O 	0.31350 0.90300 0.08153 -0.45700
O 	O 	0.10870 0.90160 0.12555 -0.44200
O 	O 	0.04810 0.55620 0.32930 -0.35600
O 	O 	0.87710 0.56440 0.39258 -0.45900
O 	O 	0.12130 0.53940 0.48474 -0.70300
H 	H 	0.12400 0.58200 0.46500 0.26400
N 	N 	0.27790 0.41100 0.46916 -0.18800
N 	N 	0.15060 0.39710 0.43645 -0.18400
N 	N 	0.28450 0.30030 0.42010 -0.11300
N 	N 	0.45890 0.03640 0.08032 -0.18900
N 	N 	0.58030 0.06430 0.05820 -0.16000
N 	N 	0.58300 0.08270 0.16400 -0.10700
C 	C 	0.35650 0.35230 0.45820 0.09100
H 	H 	0.44880 0.34710 0.47440 0.00200
C 	C 	0.15700 0.33080 0.40860 0.08700
H 	H 	0.08350 0.30740 0.38410 0.01300
C 	C 	0.33320 0.22710 0.39520 -0.18800
H 	H 	0.25730 0.19060 0.39320 0.08400
H 	H 	0.40650 0.20740 0.42600 0.08100
C 	C 	0.38680 0.23290 0.32840 0.18700
C 	C 	0.35540 0.29260 0.28550 -0.24300
H 	H 	0.29810 0.33210 0.29730 0.12400
C 	C 	0.40930 0.29380 0.22470 0.14000
H 	H 	0.38690 0.33380 0.19570 -0.02700
C 	C 	0.49610 0.23580 0.20710 -0.24700
H 	H 	0.53400 0.23760 0.16680 0.11700
C 	C 	0.52670 0.17490 0.24930 0.19600
C 	C 	0.47210 0.17380 0.30920 -0.27500
H 	H 	0.49240 0.13280 0.33750 0.11300
C 	C 	0.62290 0.11120 0.23100 -0.20400
H 	H 	0.71750 0.13010 0.23350 0.10700
H 	H 	0.61930 0.06940 0.26210 0.09300
C 	C 	0.46260 0.04770 0.14330 0.09200
H 	H 	0.39330 0.03380 0.16980 -0.00000
C 	C 	0.65170 0.09240 0.10990 0.08000
H 	H 	0.73800 0.11580 0.10940 -0.00200
C 	C 	0.22730 0.87530 0.11760 0.47800
C 	C 	0.27530 0.80310 0.15320 -0.49400
H 	H 	0.35460 0.81570 0.18360 0.18700
H 	H 	0.30690 0.76740 0.12130 0.17900
C 	C 	0.16830 0.76300 0.19100 0.18600
C 	C 	0.14080 0.78770 0.25120 -0.11400
H 	H 	0.18800 0.82980 0.26990 0.07200
C 	C 	0.04130 0.75000 0.28570 -0.12100
H 	H 	0.02390 0.76800 0.32700 0.06800
C 	C 	0.97060 0.68920 0.26120 0.18200
C 	C 	0.99930 0.66440 0.20050 -0.10400
H 	H 	0.95210 0.62210 0.18220 0.06500
C 	C 	0.09730 0.70070 0.16530 -0.12500
H 	H 	0.11470 0.68250 0.12400 0.06500
C 	C 	0.86880 0.64480 0.29910 -0.48400
H 	H 	0.81910 0.68040 0.32500 0.18100
H 	H 	0.80140 0.62000 0.26810 0.17800
C 	C 	0.93720 0.58540 0.34360 0.44700
Cu	Cu	0.70000 0.00752 0.97557 0.90300
Cu	Cu	0.00015 0.97758 0.07297 0.91800
O 	O 	0.68650 0.40300 0.41847 -0.45600
O 	O 	0.89130 0.40160 0.37445 -0.44000
O 	O 	0.95190 0.05620 0.17070 -0.35100
O 	O 	0.12290 0.06440 0.10742 -0.45500
O 	O 	0.87870 0.03940 0.01526 -0.69700
H 	H 	0.87600 0.08200 0.03500 0.26400
N 	N 	0.72210 0.91100 0.03084 -0.19000
N 	N 	0.84940 0.89710 0.06355 -0.18400
N 	N 	0.71550 0.80030 0.07990 -0.11300
N 	N 	0.54110 0.53640 0.41968 -0.19100
N 	N 	0.41970 0.56430 0.44180 -0.16200
N 	N 	0.41700 0.58270 0.33600 -0.10700
C 	C 	0.64350 0.85230 0.04180 0.09000
H 	H 	0.55120 0.84710 0.02560 0.00100
C 	C 	0.84300 0.83080 0.09140 0.08600
H 	H 	0.91650 0.80740 0.11590 0.01400
C 	C 	0.66680 0.72710 0.10480 -0.18800
H 	H 	0.74270 0.69060 0.10680 0.08400
H 	H 	0.59350 0.70740 0.07400 0.08100
C 	C 	0.61320 0.73290 0.17160 0.18600
C 	C 	0.64460 0.79260 0.21450 -0.24300
H 	H 	0.70190 0.83210 0.20270 0.12400
C 	C 	0.59070 0.79380 0.27530 0.14000
H 	H 	0.61310 0.83380 0.30430 -0.02700
C 	C 	0.50390 0.73580 0.29290 -0.24700
H 	H 	0.46600 0.73760 0.33320 0.11700
C 	C 	0.47330 0.67490 0.25070 0.19500
C 	C 	0.52790 0.67380 0.19080 -0.27500
H 	H 	0.50760 0.63280 0.16250 0.11200
C 	C 	0.37710 0.61120 0.26900 -0.20400
H 	H 	0.28250 0.63010 0.26650 0.10600
H 	H 	0.38070 0.56940 0.23790 0.09200
C 	C 	0.53740 0.54770 0.35670 0.09100
H 	H 	0.60670 0.53380 0.33020 -0.00100
C 	C 	0.34830 0.59240 0.39010 0.07900
H 	H 	0.26200 0.61580 0.39060 -0.00300
C 	C 	0.77270 0.37530 0.38240 0.47800
C 	C 	0.72470 0.30310 0.34680 -0.49400
H 	H 	0.64540 0.31570 0.31640 0.18700
H 	H 	0.69310 0.26740 0.37870 0.17900
C 	C 	0.83170 0.26300 0.30900 0.18700
C 	C 	0.85920 0.28770 0.24880 -0.11500
H 	H 	0.81200 0.32980 0.23010 0.07300
C 	C 	0.95870 0.25000 0.21430 -0.11500
H 	H 	0.97610 0.26800 0.17300 0.06800
C 	C 	0.02940 0.18920 0.23880 0.17700
C 	C 	0.00070 0.16440 0.29950 -0.10600
H 	H 	0.04790 0.12210 0.31780 0.06600
C 	C 	0.90270 0.20070 0.33470 -0.12200
H 	H 	0.88530 0.18250 0.37600 0.06600
C 	C 	0.13120 0.14480 0.20090 -0.48000
H 	H 	0.18090 0.18040 0.17500 0.17900
H 	H 	0.19860 0.12000 0.23190 0.17700
C 	C 	0.06280 0.08540 0.15640 0.44300
Cu	Cu	0.70000 0.49248 0.47557 0.90700
Cu	Cu	0.00015 0.52242 0.57297 0.92300
O 	O 	0.68650 0.09700 0.91847 -0.45800
O 	O 	0.89130 0.09840 0.87445 -0.44300
O 	O 	0.95190 0.44380 0.67070 -0.35600
O 	O 	0.12290 0.43560 0.60742 -0.45900
O 	O 	0.87870 0.46060 0.51526 -0.70300
H 	H 	0.87600 0.41800 0.53500 0.26400
N 	N 	0.72210 0.58900 0.53084 -0.18800
N 	N 	0.84940 0.60290 0.56355 -0.18400
N 	N 	0.71550 0.69970 0.57990 -0.11300
N 	N 	0.54110 0.96360 0.91968 -0.18900
N 	N 	0.41970 0.93570 0.94180 -0.16000
N 	N 	0.41700 0.91730 0.83600 -0.10700
C 	C 	0.64350 0.64770 0.54180 0.09100
H 	H 	0.55120 0.65290 0.52560 0.00200
C 	C 	0.84300 0.66920 0.59140 0.08700
H 	H 	0.91650 0.69260 0.61590 0.01300
C 	C 	0.66680 0.77290 0.60480 -0.18800
H 	H 	0.74270 0.80940 0.60680 0.08400
H 	H 	0.59350 0.79260 0.57400 0.08100
C 	C 	0.61320 0.76710 0.67160 0.18700
C 	C 	0.64460 0.70740 0.71450 -0.24300
H 	H 	0.70190 0.66790 0.70270 0.12400
C 	C 	0.59070 0.70620 0.77530 0.14000
H 	H 	0.61310 0.66620 0.80430 -0.02700
C 	C 	0.50390 0.76420 0.79290 -0.24700
H 	H 	0.46600 0.76240 0.83320 0.11700
C 	C 	0.47330 0.82510 0.75070 0.19600
C 	C 	0.52790 0.82620 0.69080 -0.27500
H 	H 	0.50760 0.86720 0.66250 0.11300
C 	C 	0.37710 0.88880 0.76900 -0.20400
H 	H 	0.28250 0.86990 0.76650 0.10700
H 	H 	0.38070 0.93060 0.73790 0.09300
C 	C 	0.53740 0.95230 0.85670 0.09200
H 	H 	0.60670 0.96620 0.83020 -0.00000
C 	C 	0.34830 0.90760 0.89010 0.08000
H 	H 	0.26200 0.88420 0.89060 -0.00200
C 	C 	0.77270 0.12470 0.88240 0.47800
C 	C 	0.72470 0.19690 0.84680 -0.49400
H 	H 	0.64540 0.18430 0.81640 0.18700
H 	H 	0.69310 0.23260 0.87870 0.17900
C 	C 	0.83170 0.23700 0.80900 0.18600
C 	C 	0.85920 0.21230 0.74880 -0.11400
H 	H 	0.81200 0.17020 0.73010 0.07200
C 	C 	0.95870 0.25000 0.71430 -0.12100
H 	H 	0.97610 0.23200 0.67300 0.06800
C 	C 	0.02940 0.31080 0.73880 0.18200
C 	C 	0.00070 0.33560 0.79950 -0.10400
H 	H 	0.04790 0.37790 0.81780 0.06500
C 	C 	0.90270 0.29930 0.83470 -0.12500
H 	H 	0.88530 0.31750 0.87600 0.06500
C 	C 	0.13120 0.35520 0.70090 -0.48400
H 	H 	0.18090 0.31960 0.67500 0.18100
H 	H 	0.19860 0.38000 0.73190 0.17800
C 	C 	0.06280 0.41460 0.65640 0.44700
Cu	Cu	0.30000 0.99248 0.02443 0.90300
Cu	Cu	0.99985 0.02242 0.92703 0.91800
O 	O 	0.31350 0.59700 0.58153 -0.45600
O 	O 	0.10870 0.59840 0.62555 -0.44000
O 	O 	0.04810 0.94380 0.82930 -0.35100
O 	O 	0.87710 0.93560 0.89258 -0.45500
O 	O 	0.12130 0.96060 0.98474 -0.69700
H 	H 	0.12400 0.91800 0.96500 0.26400
N 	N 	0.27790 0.08900 0.96916 -0.19000
N 	N 	0.15060 0.10290 0.93645 -0.18400
N 	N 	0.28450 0.19970 0.92010 -0.11300
N 	N 	0.45890 0.46360 0.58032 -0.19100
N 	N 	0.58030 0.43570 0.55820 -0.16200
N 	N 	0.58300 0.41730 0.66400 -0.10700
C 	C 	0.35650 0.14770 0.95820 0.09000
H 	H 	0.44880 0.15290 0.97440 0.00100
C 	C 	0.15700 0.16920 0.90860 0.08600
H 	H 	0.08350 0.19260 0.88410 0.01400
C 	C 	0.33320 0.27290 0.89520 -0.18800
H 	H 	0.25730 0.30940 0.89320 0.08400
H 	H 	0.40650 0.29260 0.92600 0.08100
C 	C 	0.38680 0.26710 0.82840 0.18600
C 	C 	0.35540 0.20740 0.78550 -0.24300
H 	H 	0.29810 0.16790 0.79730 0.12400
C 	C 	0.40930 0.20620 0.72470 0.14000
H 	H 	0.38690 0.16620 0.69570 -0.02700
C 	C 	0.49610 0.26420 0.70710 -0.24700
H 	H 	0.53400 0.26240 0.66680 0.11700
C 	C 	0.52670 0.32510 0.74930 0.19500
C 	C 	0.47210 0.32620 0.80920 -0.27500
H 	H 	0.49240 0.36720 0.83750 0.11200
C 	C 	0.62290 0.38880 0.73100 -0.20400
H 	H 	0.71750 0.36990 0.73350 0.10600
H 	H 	0.61930 0.43060 0.76210 0.09200
C 	C 	0.46260 0.45230 0.64330 0.09100
H 	H 	0.39330 0.46620 0.66980 -0.00100
C 	C 	0.65170 0.40760 0.60990 0.07900
H 	H 	0.73800 0.38420 0.60940 -0.00300
C 	C 	0.22730 0.62470 0.61760 0.47800
C 	C 	0.27530 0.69690 0.65320 -0.49400
H 	H 	0.35460 0.68430 0.68360 0.18700
H 	H 	0.30690 0.73260 0.62130 0.17900
C 	C 	0.16830 0.73700 0.69100 0.18700
C 	C 	0.14080 0.71230 0.75120 -0.11500
H 	H 	0.18800 0.67020 0.76990 0.07300
C 	C 	0.04130 0.75000 0.78570 -0.11500
H 	H 	0.02390 0.73200 0.82700 0.06800
C 	C 	0.97060 0.81080 0.76120 0.17700
C 	C 	0.99930 0.83560 0.70050 -0.10600
H 	H 	0.95210 0.87790 0.68220 0.06600
C 	C 	0.09730 0.79930 0.66530 -0.12200
H 	H 	0.11470 0.81750 0.62400 0.06600
C 	C 	0.86880 0.85520 0.79910 -0.48000
H 	H 	0.81910 0.81960 0.82500 0.17900
H 	H 	0.80140 0.88000 0.76810 0.17700
C 	C 	0.93720 0.91460 0.84360 0.44300
