data_crystal

_cell_length_a 15.08410
_cell_length_b 15.08410
_cell_length_c 15.42760
_cell_angle_alpha 90.00000
_cell_angle_beta  90.00000
_cell_angle_gamma 120.00000

_symmetry_space_group_name_	'P 1'
_symmetry_space_group_name_H-M	'P 1'

loop_
_symmetry_equiv_pos_as_xyz
  x,y,z

loop_
_atom_site_label
_atom_site_type_symbol
_atom_site_fract_x
_atom_site_fract_y
_atom_site_fract_z
_atom_site_charge
Nd	Nd	0.33333 0.66666 0.75000 2.39600
Nd	Nd	0.66667 0.33334 0.75000 2.39600
Nd	Nd	0.66667 0.33334 0.25000 2.37100
Nd	Nd	0.33333 0.66666 0.25000 2.37200
Co	Co	0.50000 0.50000 -0.00000 1.09800
Co	Co	-0.00000 0.50000 -0.00000 1.05900
Co	Co	0.50000 0.00000 -0.00000 1.05900
Co	Co	0.00000 0.50000 0.50000 1.12700
Co	Co	0.50000 0.50000 0.50000 1.16700
Co	Co	0.50000 0.00000 0.50000 1.12700
H 	H 	0.28520 0.37580 0.76440 0.08300
H 	H 	0.20770 0.36720 0.83640 0.09100
H 	H 	0.09060 0.71480 0.76440 0.07300
H 	H 	0.15950 0.79230 0.83640 0.11500
H 	H 	0.62420 0.90940 0.76440 0.13100
H 	H 	0.63280 0.84050 0.83640 0.13600
H 	H 	0.71480 0.62420 0.76440 0.10900
H 	H 	0.79230 0.63280 0.83640 0.13800
H 	H 	0.90940 0.28520 0.76440 0.11700
H 	H 	0.84050 0.20770 0.83640 0.11200
H 	H 	0.37580 0.09060 0.76440 0.06000
H 	H 	0.36720 0.15950 0.83640 0.09200
H 	H 	0.90940 0.62420 0.73560 0.13300
H 	H 	0.84050 0.63280 0.66360 0.11800
H 	H 	0.37580 0.28520 0.73560 0.08500
H 	H 	0.36720 0.20770 0.66360 0.07300
H 	H 	0.71480 0.09060 0.73560 0.07600
H 	H 	0.79230 0.15950 0.66360 0.09700
H 	H 	0.09060 0.37580 0.73560 0.06300
H 	H 	0.15950 0.36720 0.66360 0.07300
H 	H 	0.62420 0.71480 0.73560 0.11100
H 	H 	0.63280 0.79230 0.66360 0.12000
H 	H 	0.28520 0.90940 0.73560 0.12000
H 	H 	0.20770 0.84050 0.66360 0.09400
H 	H 	0.71480 0.62420 0.23560 0.09800
H 	H 	0.79230 0.63280 0.16360 0.09600
H 	H 	0.90940 0.28520 0.23560 0.10800
H 	H 	0.84050 0.20770 0.16360 0.07000
H 	H 	0.37580 0.09060 0.23560 0.04900
H 	H 	0.36720 0.15950 0.16360 0.04800
H 	H 	0.28520 0.37580 0.23560 0.07200
H 	H 	0.20770 0.36720 0.16360 0.04700
H 	H 	0.09060 0.71480 0.23560 0.06300
H 	H 	0.15950 0.79230 0.16360 0.07300
H 	H 	0.62420 0.90940 0.23560 0.12100
H 	H 	0.63280 0.84050 0.16360 0.09400
H 	H 	0.09060 0.37580 0.26440 0.04800
H 	H 	0.15950 0.36720 0.33640 0.06600
H 	H 	0.62420 0.71480 0.26440 0.09800
H 	H 	0.63280 0.79230 0.33640 0.11300
H 	H 	0.28520 0.90940 0.26440 0.10700
H 	H 	0.20770 0.84050 0.33640 0.08800
H 	H 	0.90940 0.62420 0.26440 0.12000
H 	H 	0.84050 0.63280 0.33640 0.11100
H 	H 	0.37580 0.28520 0.26440 0.07100
H 	H 	0.36720 0.20770 0.33640 0.06500
H 	H 	0.71480 0.09060 0.26440 0.06200
H 	H 	0.79230 0.15950 0.33640 0.09000
C 	C 	0.35300 0.48400 0.85890 0.42300
C 	C 	0.26520 0.41490 0.80130 -0.18600
C 	C 	0.13100 0.64700 0.85890 0.42800
C 	C 	0.14970 0.73480 0.80130 -0.20000
C 	C 	0.51600 0.86900 0.85890 0.44200
C 	C 	0.58510 0.85030 0.80130 -0.23000
C 	C 	0.64700 0.51600 0.85890 0.44200
C 	C 	0.73480 0.58510 0.80130 -0.22600
C 	C 	0.86900 0.35300 0.85890 0.43200
C 	C 	0.85030 0.26520 0.80130 -0.20900
C 	C 	0.48400 0.13100 0.85890 0.41900
C 	C 	0.41490 0.14970 0.80130 -0.18100
C 	C 	0.86900 0.51600 0.64110 0.44400
C 	C 	0.85030 0.58510 0.69870 -0.23200
C 	C 	0.48400 0.35300 0.64110 0.42500
C 	C 	0.41490 0.26520 0.69870 -0.18900
C 	C 	0.64700 0.13100 0.64110 0.43100
C 	C 	0.73480 0.14970 0.69870 -0.20300
C 	C 	0.13100 0.48400 0.64110 0.42200
C 	C 	0.14970 0.41490 0.69870 -0.18300
C 	C 	0.51600 0.64700 0.64110 0.44500
C 	C 	0.58510 0.73480 0.69870 -0.22900
C 	C 	0.35300 0.86900 0.64110 0.43500
C 	C 	0.26520 0.85030 0.69870 -0.21200
C 	C 	0.64700 0.51600 0.14110 0.43600
C 	C 	0.73480 0.58510 0.19870 -0.21700
C 	C 	0.86900 0.35300 0.14110 0.42600
C 	C 	0.85030 0.26520 0.19870 -0.20000
C 	C 	0.48400 0.13100 0.14110 0.41200
C 	C 	0.41490 0.14970 0.19870 -0.17000
C 	C 	0.35300 0.48400 0.14110 0.41600
C 	C 	0.26520 0.41490 0.19870 -0.17600
C 	C 	0.13100 0.64700 0.14110 0.42200
C 	C 	0.14970 0.73480 0.19870 -0.19000
C 	C 	0.51600 0.86900 0.14110 0.43500
C 	C 	0.58510 0.85030 0.19870 -0.22000
C 	C 	0.13100 0.48400 0.35890 0.41600
C 	C 	0.14970 0.41490 0.30130 -0.17100
C 	C 	0.51600 0.64700 0.35890 0.43900
C 	C 	0.58510 0.73480 0.30130 -0.21700
C 	C 	0.35300 0.86900 0.35890 0.43000
C 	C 	0.26520 0.85030 0.30130 -0.20100
C 	C 	0.86900 0.51600 0.35890 0.43900
C 	C 	0.85030 0.58510 0.30130 -0.22100
C 	C 	0.48400 0.35300 0.35890 0.42000
C 	C 	0.41490 0.26520 0.30130 -0.17700
C 	C 	0.64700 0.13100 0.35890 0.42600
C 	C 	0.73480 0.14970 0.30130 -0.19100
O 	O 	0.38360 0.57830 0.85650 -0.48000
O 	O 	0.38820 0.44150 0.90580 -0.39200
O 	O 	0.19470 0.61640 0.85650 -0.48900
O 	O 	0.05330 0.61180 0.90580 -0.41700
O 	O 	0.42170 0.80530 0.85650 -0.47300
O 	O 	0.55850 0.94670 0.90580 -0.34400
O 	O 	0.61640 0.42170 0.85650 -0.48300
O 	O 	0.61180 0.55850 0.90580 -0.38500
O 	O 	0.80530 0.38360 0.85650 -0.47100
O 	O 	0.94670 0.38820 0.90580 -0.34700
O 	O 	0.57830 0.19470 0.85650 -0.48700
O 	O 	0.44150 0.05330 0.90580 -0.42000
O 	O 	0.80530 0.42170 0.64350 -0.50300
O 	O 	0.94670 0.55850 0.59420 -0.40700
O 	O 	0.57830 0.38360 0.64350 -0.51100
O 	O 	0.44150 0.38820 0.59420 -0.45800
O 	O 	0.61640 0.19470 0.64350 -0.52000
O 	O 	0.61180 0.05330 0.59420 -0.48300
O 	O 	0.19470 0.57830 0.64350 -0.51800
O 	O 	0.05330 0.44150 0.59420 -0.48600
O 	O 	0.42170 0.61640 0.64350 -0.51500
O 	O 	0.55850 0.61180 0.59420 -0.45100
O 	O 	0.38360 0.80530 0.64350 -0.50100
O 	O 	0.38820 0.94670 0.59420 -0.41100
O 	O 	0.61640 0.42170 0.14350 -0.53400
O 	O 	0.61180 0.55850 0.09420 -0.48800
O 	O 	0.80530 0.38360 0.14350 -0.52000
O 	O 	0.94670 0.38820 0.09420 -0.44600
O 	O 	0.57830 0.19470 0.14350 -0.53700
O 	O 	0.44150 0.05330 0.09420 -0.52300
O 	O 	0.38360 0.57830 0.14350 -0.53000
O 	O 	0.38820 0.44150 0.09420 -0.49500
O 	O 	0.19470 0.61640 0.14350 -0.53900
O 	O 	0.05330 0.61180 0.09420 -0.51900
O 	O 	0.42170 0.80530 0.14350 -0.52200
O 	O 	0.55850 0.94670 0.09420 -0.44300
O 	O 	0.19470 0.57830 0.35650 -0.51400
O 	O 	0.05330 0.44150 0.40580 -0.48500
O 	O 	0.42170 0.61640 0.35650 -0.51100
O 	O 	0.55850 0.61180 0.40580 -0.45000
O 	O 	0.38360 0.80530 0.35650 -0.49700
O 	O 	0.38820 0.94670 0.40580 -0.40900
O 	O 	0.80530 0.42170 0.35650 -0.49900
O 	O 	0.94670 0.55850 0.40580 -0.40600
O 	O 	0.57830 0.38360 0.35650 -0.50700
O 	O 	0.44150 0.38820 0.40580 -0.45700
O 	O 	0.61640 0.19470 0.35650 -0.51600
O 	O 	0.61180 0.05330 0.40580 -0.48200
O 	O 	0.23605 0.47210 0.75000 -0.28100
O 	O 	0.23605 0.76395 0.75000 -0.26800
O 	O 	0.52790 0.76395 0.75000 -0.25300
O 	O 	0.76395 0.52790 0.75000 -0.25300
O 	O 	0.76395 0.23605 0.75000 -0.26700
O 	O 	0.47210 0.23605 0.75000 -0.28100
O 	O 	0.76395 0.52790 0.25000 -0.26200
O 	O 	0.76395 0.23605 0.25000 -0.27700
O 	O 	0.47210 0.23605 0.25000 -0.29100
O 	O 	0.23605 0.47210 0.25000 -0.29100
O 	O 	0.23605 0.76395 0.25000 -0.27700
O 	O 	0.52790 0.76395 0.25000 -0.26200
