data_crystal

_cell_length_a 14.34490
_cell_length_b 14.69940
_cell_length_c 20.03220
_cell_angle_alpha 108.67500
_cell_angle_beta  90.12300
_cell_angle_gamma 107.78600

_symmetry_space_group_name_	'P 1'
_symmetry_space_group_name_H-M	'P 1'

loop_
_symmetry_equiv_pos_as_xyz
  x,y,z

loop_
_atom_site_label
_atom_site_type_symbol
_atom_site_fract_x
_atom_site_fract_y
_atom_site_fract_z
_atom_site_charge
Ag	Ag	0.48425 0.40140 0.54064 0.49500
C 	C 	0.39180 0.29680 0.65770 0.11000
N 	N 	0.46770 0.34110 0.63200 -0.17100
Ag	Ag	0.39784 0.59425 0.14837 0.44800
C 	C 	0.29310 0.25050 0.62050 -0.06000
N 	N 	0.54370 0.37610 0.68340 -0.12100
Ag	Ag	0.23750 0.97769 0.25604 0.48600
C 	C 	0.25780 0.29230 0.57630 -0.02600
H 	H 	0.29710 0.35260 0.57130 -0.00600
N 	N 	0.51380 0.35760 0.73780 -0.14400
Ag	Ag	0.05844 0.13944 0.02894 0.47900
C 	C 	0.16040 0.24150 0.53840 -0.05800
H 	H 	0.13850 0.26810 0.50740 0.03200
N 	N 	0.41500 0.30720 0.72630 -0.18300
Ag	Ag	0.21692 0.22032 0.23094 0.46500
C 	C 	0.10200 0.15800 0.54690 -0.02700
H 	H 	0.03770 0.12860 0.52440 0.02900
N 	N 	0.31910 0.29500 0.33000 -0.18800
N 	N 	0.36880 0.39480 0.34460 -0.14000
Ag	Ag	0.30724 0.49465 0.29878 0.48400
C 	C 	0.13800 0.11100 0.59250 -0.06300
H 	H 	0.09960 0.04920 0.59590 0.03600
Ag	Ag	0.49390 0.78880 0.04415 0.34000
C 	C 	0.22800 0.15840 0.62840 -0.02500
H 	H 	0.24910 0.13160 0.65940 0.01000
N 	N 	0.42200 0.42780 0.40380 -0.13800
N 	N 	0.40700 0.35240 0.43240 -0.17700
Ag	Ag	0.36750 0.32670 0.83435 0.42600
C 	C 	0.34560 0.27140 0.38690 0.09300
N 	N 	0.04410 0.93750 0.06980 -0.18900
Ag	Ag	0.32900 0.96180 0.07780 0.29100
C 	C 	0.30270 0.17250 0.39360 -0.07900
C 	C 	0.20800 0.10680 0.36150 -0.05800
H 	H 	0.17240 0.12560 0.33240 -0.01500
N 	N 	0.07380 0.03900 0.09890 -0.14300
N 	N 	0.13430 0.06900 0.15540 -0.15800
C 	C 	0.16720 0.01540 0.37230 -0.11200
H 	H 	0.10360 0.97380 0.35260 0.03500
C 	C 	0.22440 0.98720 0.41380 -0.02600
H 	H 	0.20060 0.92250 0.41700 0.02500
N 	N 	0.13830 0.98160 0.16770 -0.18800
N 	N 	0.27240 0.44200 0.12440 -0.16900
C 	C 	0.31070 0.04860 0.44850 -0.07500
H 	H 	0.34260 0.03090 0.48050 0.04100
N 	N 	0.25720 0.40740 0.17880 -0.14400
C 	C 	0.35460 0.14190 0.43670 -0.03200
H 	H 	0.41790 0.18270 0.45760 0.00300
N 	N 	0.19900 0.31170 0.15450 -0.14000
C 	C 	0.08350 0.90460 0.11250 0.08100
N 	N 	0.18050 0.28370 0.08510 -0.17700
C 	C 	0.07580 0.79960 0.10310 -0.05500
N 	N 	0.30020 0.85790 0.19860 -0.17200
C 	C 	0.09600 0.74120 0.03850 -0.04400
H 	H 	0.11160 0.76690 0.00170 -0.01700
N 	N 	0.33460 0.86140 0.13670 -0.17400
C 	C 	0.09200 0.64000 0.03140 -0.05500
H 	H 	0.10800 0.60080 0.98950 0.03200
C 	C 	0.06600 0.59970 0.08100 -0.03300
H 	H 	0.06280 0.53310 0.07370 0.03400
N 	N 	0.36880 0.78340 0.10910 -0.17300
N 	N 	0.35360 0.72880 0.15330 -0.18100
C 	C 	0.04190 0.65960 0.14690 -0.04800
H 	H 	0.02340 0.63180 0.18240 0.03700
C 	C 	0.04680 0.76030 0.15740 -0.03500
H 	H 	0.03100 0.79970 0.19940 0.02100
C 	C 	0.22370 0.36110 0.06650 0.07300
C 	C 	0.21920 0.36900 0.99460 -0.05200
C 	C 	0.24090 0.46000 0.98290 -0.08100
H 	H 	0.25840 0.52100 0.02050 0.00900
C 	C 	0.23600 0.45800 0.91300 -0.04500
H 	H 	0.24670 0.52020 0.90580 -0.00600
C 	C 	0.21610 0.37400 0.85470 -0.10700
H 	H 	0.21180 0.37710 0.80920 0.02300
C 	C 	0.20260 0.28200 0.86660 -0.08800
H 	H 	0.19520 0.22310 0.82830 -0.00100
C 	C 	0.20020 0.27760 0.93600 -0.07200
H 	H 	0.18640 0.21570 0.94320 -0.01500
C 	C 	0.31290 0.77760 0.20820 0.09600
C 	C 	0.28470 0.73900 0.26610 -0.05600
C 	C 	0.21760 0.63940 0.24910 -0.06200
H 	H 	0.19830 0.59840 0.20190 0.03000
C 	C 	0.18000 0.60200 0.30400 -0.08400
H 	H 	0.12770 0.54140 0.29350 0.01500
C 	C 	0.21600 0.65000 0.36530 -0.04700
H 	H 	0.19450 0.62040 0.39940 0.00300
C 	C 	0.29100 0.75100 0.38990 -0.07400
H 	H 	0.31890 0.78440 0.43670 0.03000
C 	C 	0.31700 0.79100 0.33410 -0.03300
H 	H 	0.35870 0.85730 0.34590 0.01800
Ag	Ag	0.40890 0.95260 0.05980 0.21500
Ag	Ag	0.51575 0.59860 0.45936 0.49400
C 	C 	0.60820 0.70320 0.34230 0.10900
N 	N 	0.53230 0.65890 0.36800 -0.17200
Ag	Ag	0.60216 0.40575 0.85163 0.44700
C 	C 	0.70690 0.74950 0.37950 -0.06100
N 	N 	0.45630 0.62390 0.31660 -0.12200
Ag	Ag	0.76250 0.02231 0.74396 0.48600
C 	C 	0.74220 0.70770 0.42370 -0.02600
H 	H 	0.70290 0.64740 0.42870 -0.00600
N 	N 	0.48620 0.64240 0.26220 -0.14400
Ag	Ag	0.94156 0.86056 0.97106 0.47900
C 	C 	0.83960 0.75850 0.46160 -0.05800
H 	H 	0.86150 0.73190 0.49260 0.03200
N 	N 	0.58500 0.69280 0.27370 -0.18300
Ag	Ag	0.78308 0.77968 0.76906 0.46500
C 	C 	0.89800 0.84200 0.45310 -0.02700
H 	H 	0.96230 0.87140 0.47560 0.02900
N 	N 	0.68090 0.70500 0.67000 -0.18800
N 	N 	0.63120 0.60520 0.65540 -0.14000
Ag	Ag	0.69276 0.50535 0.70122 0.48400
C 	C 	0.86200 0.88900 0.40750 -0.06300
H 	H 	0.90040 0.95080 0.40410 0.03600
Ag	Ag	0.50610 0.21120 0.95585 0.34000
C 	C 	0.77200 0.84160 0.37160 -0.02500
H 	H 	0.75090 0.86840 0.34060 0.01000
N 	N 	0.57800 0.57220 0.59620 -0.13800
N 	N 	0.59300 0.64760 0.56760 -0.17700
Ag	Ag	0.63250 0.67330 0.16565 0.42600
C 	C 	0.65440 0.72860 0.61310 0.09300
N 	N 	0.95590 0.06250 0.93020 -0.18900
Ag	Ag	0.67100 0.03820 0.92220 0.29100
C 	C 	0.69730 0.82750 0.60640 -0.07900
C 	C 	0.79200 0.89320 0.63850 -0.05800
H 	H 	0.82760 0.87440 0.66760 -0.01500
N 	N 	0.92620 0.96100 0.90110 -0.14300
N 	N 	0.86570 0.93100 0.84460 -0.15800
C 	C 	0.83280 0.98460 0.62770 -0.11200
H 	H 	0.89640 0.02620 0.64740 0.03500
C 	C 	0.77560 0.01280 0.58620 -0.02600
H 	H 	0.79940 0.07750 0.58300 0.02500
N 	N 	0.86170 0.01840 0.83230 -0.18800
N 	N 	0.72760 0.55800 0.87560 -0.16900
C 	C 	0.68930 0.95140 0.55150 -0.07500
H 	H 	0.65740 0.96910 0.51950 0.04100
N 	N 	0.74280 0.59260 0.82120 -0.14400
C 	C 	0.64540 0.85810 0.56330 -0.03200
H 	H 	0.58210 0.81730 0.54240 0.00300
N 	N 	0.80100 0.68830 0.84550 -0.14000
C 	C 	0.91650 0.09540 0.88750 0.08100
N 	N 	0.81950 0.71630 0.91490 -0.17700
C 	C 	0.92420 0.20040 0.89690 -0.05500
N 	N 	0.69980 0.14210 0.80140 -0.17200
C 	C 	0.90400 0.25880 0.96150 -0.04400
H 	H 	0.88840 0.23310 0.99830 -0.01700
N 	N 	0.66540 0.13860 0.86330 -0.17400
C 	C 	0.90800 0.36000 0.96860 -0.05500
H 	H 	0.89200 0.39920 0.01050 0.03200
C 	C 	0.93400 0.40030 0.91900 -0.03300
H 	H 	0.93720 0.46690 0.92630 0.03400
N 	N 	0.63120 0.21660 0.89090 -0.17300
N 	N 	0.64640 0.27120 0.84670 -0.18100
C 	C 	0.95810 0.34040 0.85310 -0.04800
H 	H 	0.97660 0.36820 0.81760 0.03700
C 	C 	0.95320 0.23970 0.84260 -0.03500
H 	H 	0.96900 0.20030 0.80060 0.02100
C 	C 	0.77630 0.63890 0.93350 0.07300
C 	C 	0.78080 0.63100 0.00540 -0.05200
C 	C 	0.75910 0.54000 0.01710 -0.08100
H 	H 	0.74160 0.47900 0.97950 0.00900
C 	C 	0.76400 0.54200 0.08700 -0.04500
H 	H 	0.75330 0.47980 0.09420 -0.00600
C 	C 	0.78390 0.62600 0.14530 -0.10700
H 	H 	0.78820 0.62290 0.19080 0.02300
C 	C 	0.79740 0.71800 0.13340 -0.08800
H 	H 	0.80480 0.77690 0.17170 -0.00100
C 	C 	0.79980 0.72240 0.06400 -0.07200
H 	H 	0.81360 0.78430 0.05680 -0.01500
C 	C 	0.68710 0.22240 0.79180 0.09600
C 	C 	0.71530 0.26100 0.73390 -0.05600
C 	C 	0.78240 0.36060 0.75090 -0.06200
H 	H 	0.80170 0.40160 0.79810 0.03000
C 	C 	0.82000 0.39800 0.69600 -0.08400
H 	H 	0.87230 0.45860 0.70650 0.01500
C 	C 	0.78400 0.35000 0.63470 -0.04700
H 	H 	0.80550 0.37960 0.60060 0.00300
C 	C 	0.70900 0.24900 0.61010 -0.07400
H 	H 	0.68110 0.21560 0.56330 0.03000
C 	C 	0.68300 0.20900 0.66590 -0.03300
H 	H 	0.64130 0.14270 0.65410 0.01800
Ag	Ag	0.59110 0.04740 0.94020 0.21500
