data_crystal

_cell_length_a 10.86250
_cell_length_b 14.48030
_cell_length_c 15.30770
_cell_angle_alpha 113.14200
_cell_angle_beta  90.45700
_cell_angle_gamma 107.81800

_symmetry_space_group_name_	'P 1'
_symmetry_space_group_name_H-M	'P 1'

loop_
_symmetry_equiv_pos_as_xyz
  x,y,z

loop_
_atom_site_label
_atom_site_type_symbol
_atom_site_fract_x
_atom_site_fract_y
_atom_site_fract_z
_atom_site_charge
Ag	Ag	0.54670 0.97226 0.61090 0.47500
Ag	Ag	0.08430 0.57711 0.29875 0.42400
Ag	Ag	0.97850 0.33827 0.04735 0.39900
Ag	Ag	0.02720 0.12321 0.11188 0.47800
Ag	Ag	0.80240 0.19825 0.77172 0.42700
C 	C 	0.30520 0.76030 0.47150 0.10600
C 	C 	0.31260 0.69400 0.52360 -0.08600
C 	C 	0.30290 0.58800 0.47250 -0.02300
H 	H 	0.29320 0.56020 0.40580 -0.01400
C 	C 	0.30700 0.52220 0.51800 -0.11500
H 	H 	0.30100 0.45150 0.48310 0.04800
C 	C 	0.32100 0.56700 0.61600 -0.01200
H 	H 	0.32210 0.52420 0.64820 -0.00600
C 	C 	0.33300 0.67300 0.66910 -0.09100
H 	H 	0.34360 0.70070 0.73580 0.02900
C 	C 	0.32780 0.73440 0.62270 -0.00800
H 	H 	0.33480 0.80520 0.65820 0.00100
C 	C 	0.97290 0.28140 0.31460 0.09300
C 	C 	0.96020 0.21340 0.36550 -0.01000
C 	C 	0.01910 0.25410 0.45830 -0.07400
H 	H 	0.07070 0.32550 0.48900 0.00600
C 	C 	0.00100 0.18800 0.50720 -0.05800
H 	H 	0.04170 0.21540 0.57020 0.00200
C 	C 	0.92600 0.08270 0.46280 -0.02100
H 	H 	0.91280 0.03940 0.49580 0.02600
C 	C 	0.87000 0.04180 0.37000 -0.04200
H 	H 	0.82000 0.96980 0.33960 0.00900
C 	C 	0.88450 0.10610 0.31810 -0.05800
H 	H 	0.84520 0.07760 0.25470 0.01200
C 	C 	0.84330 0.01370 0.81920 0.09100
C 	C 	0.77800 0.92990 0.72400 -0.07200
C 	C 	0.71010 0.82710 0.71900 -0.03700
H 	H 	0.70680 0.81520 0.77450 -0.00100
C 	C 	0.64860 0.74430 0.63100 -0.06800
H 	H 	0.60690 0.67600 0.62710 0.04000
C 	C 	0.64930 0.76300 0.54940 -0.03500
H 	H 	0.60460 0.70830 0.49100 0.02200
C 	C 	0.71730 0.86450 0.55470 -0.09000
H 	H 	0.71960 0.87650 0.49920 0.02400
C 	C 	0.78140 0.94750 0.64200 -0.06100
H 	H 	0.82650 0.01490 0.64500 0.00000
N 	N 	0.37340 0.86400 0.50190 -0.16900
N 	N 	0.34200 0.89120 0.43450 -0.13100
N 	N 	0.25640 0.80830 0.36660 -0.15900
N 	N 	0.23100 0.72440 0.38870 -0.19500
N 	N 	0.98790 0.38600 0.35650 -0.16600
N 	N 	0.98800 0.41670 0.28360 -0.15000
N 	N 	0.97320 0.33450 0.20260 -0.14700
N 	N 	0.96430 0.24860 0.22020 -0.16800
N 	N 	0.89430 0.99900 0.89020 -0.18000
N 	N 	0.93620 0.09500 0.96440 -0.13900
N 	N 	0.91300 0.16660 0.94050 -0.15600
N 	N 	0.85510 0.11750 0.84880 -0.19500
Ag	Ag	0.45330 0.02774 0.38910 0.47700
Ag	Ag	0.91570 0.42289 0.70125 0.44300
Ag	Ag	0.02150 0.66173 0.95265 0.38500
Ag	Ag	0.97280 0.87679 0.88812 0.49800
Ag	Ag	0.19760 0.80175 0.22828 0.42200
C 	C 	0.69480 0.23970 0.52850 0.10800
C 	C 	0.68740 0.30600 0.47640 -0.08300
C 	C 	0.69710 0.41200 0.52750 -0.02300
H 	H 	0.70680 0.43980 0.59420 -0.01000
C 	C 	0.69300 0.47780 0.48200 -0.11100
H 	H 	0.69900 0.54850 0.51690 0.04900
C 	C 	0.67900 0.43300 0.38400 -0.01200
H 	H 	0.67790 0.47580 0.35180 -0.00400
C 	C 	0.66700 0.32700 0.33090 -0.08900
H 	H 	0.65640 0.29930 0.26420 0.03000
C 	C 	0.67220 0.26560 0.37730 -0.00900
H 	H 	0.66520 0.19480 0.34180 0.00200
C 	C 	0.02710 0.71860 0.68540 0.09400
C 	C 	0.03980 0.78660 0.63450 -0.04800
C 	C 	0.98090 0.74590 0.54170 -0.04300
H 	H 	0.92930 0.67450 0.51100 0.00500
C 	C 	0.99900 0.81200 0.49280 0.00400
H 	H 	0.95830 0.78460 0.42980 -0.00800
C 	C 	0.07400 0.91730 0.53720 -0.09500
H 	H 	0.08720 0.96060 0.50420 0.04200
C 	C 	0.13000 0.95820 0.63000 -0.01900
H 	H 	0.18000 0.03020 0.66040 -0.00300
C 	C 	0.11550 0.89390 0.68190 -0.06400
H 	H 	0.15480 0.92240 0.74530 0.00800
C 	C 	0.15670 0.98630 0.18080 0.08600
C 	C 	0.22200 0.07010 0.27600 -0.07600
C 	C 	0.28990 0.17290 0.28100 -0.03700
H 	H 	0.29320 0.18480 0.22550 -0.00300
C 	C 	0.35140 0.25570 0.36900 -0.07300
H 	H 	0.39310 0.32400 0.37290 0.04000
C 	C 	0.35070 0.23700 0.45060 -0.03200
H 	H 	0.39540 0.29170 0.50900 0.02000
C 	C 	0.28270 0.13550 0.44530 -0.09600
H 	H 	0.28040 0.12350 0.50080 0.02400
C 	C 	0.21860 0.05250 0.35800 -0.05800
H 	H 	0.17350 0.98510 0.35500 -0.00700
N 	N 	0.62660 0.13600 0.49810 -0.16800
N 	N 	0.65800 0.10880 0.56550 -0.13000
N 	N 	0.74360 0.19170 0.63340 -0.15700
N 	N 	0.76900 0.27560 0.61130 -0.19100
N 	N 	0.01210 0.61400 0.64350 -0.17600
N 	N 	0.01200 0.58330 0.71640 -0.16000
N 	N 	0.02680 0.66550 0.79740 -0.15300
N 	N 	0.03570 0.75140 0.77980 -0.17700
N 	N 	0.10570 0.00100 0.10980 -0.18300
N 	N 	0.06380 0.90500 0.03560 -0.14700
N 	N 	0.08700 0.83340 0.05950 -0.16000
N 	N 	0.14490 0.88250 0.15120 -0.19700
Ag	Ag	0.00000 0.50000 0.50000 0.49000
