data_crystal

_cell_length_a 16.95100
_cell_length_b 23.30300
_cell_length_c 27.84500
_cell_angle_alpha 90.00000
_cell_angle_beta  125.99200
_cell_angle_gamma 90.00000

_symmetry_space_group_name_	'P 1'
_symmetry_space_group_name_H-M	'P 1'

loop_
_symmetry_equiv_pos_as_xyz
  x,y,z

loop_
_atom_site_label
_atom_site_type_symbol
_atom_site_fract_x
_atom_site_fract_y
_atom_site_fract_z
_atom_site_charge
C 	C 	0.80600 0.90600 0.30840 -0.01200
H 	H 	0.75180 0.88140 0.28750 -0.02900
C 	C 	0.88500 0.91000 0.30300 -0.02300
H 	H 	0.89810 0.88750 0.28100 -0.03700
C 	C 	0.60100 0.01500 0.46000 -0.01900
H 	H 	0.54600 0.01580 0.45990 -0.01100
C 	C 	0.61200 0.98200 0.43310 -0.02900
H 	H 	0.57120 0.95140 0.41200 -0.03500
C 	C 	0.93700 0.31820 0.62230 -0.09800
H 	H 	0.92990 0.29120 0.64410 -0.00500
C 	C 	0.00300 0.32300 0.60790 0.04800
H 	H 	0.04080 0.29190 0.61260 -0.03500
C 	C 	0.72700 0.62930 0.50200 -0.02800
H 	H 	0.69420 0.65230 0.51220 -0.01900
C 	C 	0.74600 0.64400 0.45880 -0.04600
H 	H 	0.72620 0.67580 0.43420 -0.02000
N 	N 	0.43200 0.34100 0.45940 -0.19000
C 	C 	0.50100 0.34100 0.51800 -0.05000
H 	H 	0.54440 0.37010 0.54160 -0.04200
C 	C 	0.25800 0.02300 0.37750 -0.00900
H 	H 	0.25220 0.99290 0.35350 -0.03700
C 	C 	0.32800 0.06300 0.40220 -0.00400
H 	H 	0.37570 0.06800 0.39590 -0.02600
C 	C 	0.76200 0.04200 0.22200 0.05600
H 	H 	0.77760 0.06850 0.25140 -0.07000
C 	C 	0.68300 0.00900 0.19720 -0.07200
H 	H 	0.63540 0.00750 0.20420 -0.01000
C 	C 	0.13300 0.10900 0.24470 0.04200
H 	H 	0.12240 0.07780 0.22070 -0.04800
C 	C 	0.21000 0.14500 0.26680 -0.03400
H 	H 	0.25290 0.14560 0.25620 -0.01700
C 	C 	0.03800 0.16000 0.56190 -0.05300
H 	H 	0.02720 0.17990 0.58680 -0.00600
C 	C 	0.12000 0.16300 0.55170 0.02800
H 	H 	0.16970 0.19010 0.57010 -0.04900
Ag	Ag	0.78780 0.96144 0.09997 0.39000
Ag	Ag	0.15420 0.18050 0.38550 0.35600
Ag	Ag	0.74590 0.96439 0.38823 0.42800
Ag	Ag	0.96090 0.03989 0.42880 0.38400
Ag	Ag	0.29340 0.24730 0.36119 0.41100
Ag	Ag	0.18320 0.10570 0.47860 0.39200
Ag	Ag	0.06740 0.99100 0.36182 0.40600
Ag	Ag	0.10740 0.39605 0.56747 0.42900
Ag	Ag	0.89030 0.48328 0.53326 0.38900
Ag	Ag	0.85650 0.08420 0.49808 0.39700
Ag	Ag	0.38880 0.17060 0.47766 0.40800
Ag	Ag	0.94490 0.08230 0.23374 0.42000
Ag	Ag	0.68670 0.13920 0.52147 0.38300
Ag	Ag	0.74680 0.40960 0.56430 0.37400
Ag	Ag	0.61560 0.91024 0.10022 0.42200
N 	N 	0.73400 0.03720 0.47620 -0.18500
N 	N 	0.93100 0.40220 0.57560 -0.19000
N 	N 	0.90100 0.97410 0.36970 -0.18300
N 	N 	0.43600 0.25920 0.48900 -0.19800
N 	N 	0.12600 0.16400 0.29600 -0.15800
N 	N 	0.81420 0.56160 0.50400 -0.18600
N 	N 	0.76900 0.99890 0.16180 -0.18700
N 	N 	0.02900 0.10200 0.49470 -0.19500
N 	N 	0.23700 0.07250 0.43190 -0.18200
N 	N 	0.88200 0.37140 0.59030 -0.19000
N 	N 	0.01200 0.37070 0.58840 -0.20600
N 	N 	0.31700 0.09400 0.43620 -0.20300
N 	N 	0.11200 0.12770 0.51830 -0.21800
N 	N 	0.39500 0.28980 0.44380 -0.17300
N 	N 	0.82600 0.94470 0.35000 -0.16100
N 	N 	0.69500 0.99560 0.43710 -0.20600
N 	N 	0.67900 0.05360 0.49200 -0.18800
N 	N 	0.21400 0.17900 0.30700 -0.20000
N 	N 	0.07800 0.12100 0.25880 -0.19600
N 	N 	0.76400 0.57850 0.52410 -0.20100
N 	N 	0.19800 0.03190 0.39250 -0.19500
N 	N 	0.80100 0.59890 0.46370 -0.18400
N 	N 	0.69100 0.97810 0.15890 -0.18900
N 	N 	0.81200 0.03660 0.20390 -0.21100
N 	N 	0.98900 0.11940 0.52160 -0.19300
C 	C 	0.49100 0.28700 0.53500 0.00100
H 	H 	0.51940 0.27490 0.57380 -0.04400
N 	N 	0.93400 0.95390 0.33940 -0.18700
C 	C 	0.19400 0.40600 0.19160 -0.01100
H 	H 	0.24820 0.38140 0.21250 -0.02800
C 	C 	0.11500 0.41000 0.19700 -0.02200
H 	H 	0.10190 0.38750 0.21900 -0.03700
C 	C 	0.39900 0.51500 0.04000 -0.01400
H 	H 	0.45400 0.51580 0.04010 -0.01100
C 	C 	0.38800 0.48200 0.06690 -0.03100
H 	H 	0.42880 0.45140 0.08800 -0.03300
C 	C 	0.06300 0.81820 0.87770 -0.09900
H 	H 	0.07010 0.79120 0.85590 -0.00400
C 	C 	0.99700 0.82300 0.89210 0.05000
H 	H 	0.95920 0.79190 0.88740 -0.03600
C 	C 	0.27300 0.12930 0.99800 -0.02700
H 	H 	0.30580 0.15230 0.98780 -0.01900
C 	C 	0.25400 0.14400 0.04120 -0.04700
H 	H 	0.27380 0.17580 0.06580 -0.01900
N 	N 	0.56800 0.84100 0.04060 -0.19000
C 	C 	0.49900 0.84100 0.98200 -0.05000
H 	H 	0.45560 0.87010 0.95840 -0.04200
C 	C 	0.74200 0.52300 0.12250 -0.01200
H 	H 	0.74780 0.49290 0.14650 -0.03500
C 	C 	0.67200 0.56300 0.09780 -0.00200
H 	H 	0.62430 0.56800 0.10410 -0.02600
C 	C 	0.23800 0.54200 0.27800 0.05500
H 	H 	0.22240 0.56850 0.24860 -0.06900
C 	C 	0.31700 0.50900 0.30280 -0.06900
H 	H 	0.36460 0.50750 0.29580 -0.01000
C 	C 	0.86700 0.60900 0.25530 0.04200
H 	H 	0.87760 0.57780 0.27930 -0.04800
C 	C 	0.79000 0.64500 0.23320 -0.03400
H 	H 	0.74710 0.64560 0.24380 -0.01700
C 	C 	0.96200 0.66000 0.93810 -0.05500
H 	H 	0.97280 0.67990 0.91320 -0.00500
C 	C 	0.88000 0.66300 0.94830 0.02800
H 	H 	0.83030 0.69010 0.92990 -0.04900
Ag	Ag	0.21220 0.46144 0.40003 0.38900
Ag	Ag	0.84580 0.68050 0.11450 0.35600
Ag	Ag	0.25410 0.46439 0.11177 0.42700
Ag	Ag	0.03910 0.53989 0.07120 0.38500
Ag	Ag	0.70660 0.74730 0.13881 0.41100
Ag	Ag	0.81680 0.60570 0.02140 0.39200
Ag	Ag	0.93260 0.49100 0.13818 0.40700
Ag	Ag	0.89260 0.89605 0.93253 0.43000
Ag	Ag	0.10970 0.98328 0.96674 0.38800
Ag	Ag	0.14350 0.58420 0.00192 0.39800
Ag	Ag	0.61120 0.67060 0.02234 0.40800
Ag	Ag	0.05510 0.58230 0.26626 0.42100
Ag	Ag	0.31330 0.63920 0.97853 0.38400
Ag	Ag	0.25320 0.90960 0.93570 0.37300
Ag	Ag	0.38440 0.41024 0.39978 0.42100
N 	N 	0.26600 0.53720 0.02380 -0.18400
N 	N 	0.06900 0.90220 0.92440 -0.19100
N 	N 	0.09900 0.47410 0.13030 -0.18400
N 	N 	0.56400 0.75920 0.01100 -0.19700
N 	N 	0.87400 0.66400 0.20400 -0.15800
N 	N 	0.18580 0.06160 0.99600 -0.18500
N 	N 	0.23100 0.49890 0.33820 -0.18800
N 	N 	0.97100 0.60200 0.00530 -0.19600
N 	N 	0.76300 0.57250 0.06810 -0.18200
N 	N 	0.11800 0.87140 0.90970 -0.19000
N 	N 	0.98800 0.87070 0.91160 -0.20600
N 	N 	0.68300 0.59400 0.06380 -0.20300
N 	N 	0.88800 0.62770 0.98170 -0.21900
N 	N 	0.60500 0.78980 0.05620 -0.17300
N 	N 	0.17400 0.44470 0.15000 -0.16100
N 	N 	0.30500 0.49560 0.06290 -0.20600
N 	N 	0.32100 0.55360 0.00800 -0.18800
N 	N 	0.78600 0.67900 0.19300 -0.20000
N 	N 	0.92200 0.62100 0.24120 -0.19600
N 	N 	0.23600 0.07850 0.97590 -0.20100
N 	N 	0.80200 0.53190 0.10750 -0.19500
N 	N 	0.19900 0.09890 0.03630 -0.18400
N 	N 	0.30900 0.47810 0.34110 -0.19000
N 	N 	0.18800 0.53660 0.29610 -0.21000
N 	N 	0.01100 0.61940 0.97840 -0.19200
C 	C 	0.50900 0.78700 0.96500 0.00100
H 	H 	0.48060 0.77490 0.92620 -0.04400
N 	N 	0.06600 0.45390 0.16060 -0.18800
C 	C 	0.19400 0.09400 0.69160 -0.01100
H 	H 	0.24820 0.11860 0.71250 -0.02800
C 	C 	0.11500 0.09000 0.69700 -0.02200
H 	H 	0.10190 0.11250 0.71900 -0.03600
C 	C 	0.39900 0.98500 0.54000 -0.01800
H 	H 	0.45400 0.98420 0.54010 -0.01000
C 	C 	0.38800 0.01800 0.56690 -0.02800
H 	H 	0.42880 0.04860 0.58800 -0.03400
C 	C 	0.06300 0.68180 0.37770 -0.09800
H 	H 	0.07010 0.70880 0.35590 -0.00500
C 	C 	0.99700 0.67700 0.39210 0.04800
H 	H 	0.95920 0.70810 0.38740 -0.03500
C 	C 	0.27300 0.37070 0.49800 -0.02800
H 	H 	0.30580 0.34770 0.48780 -0.01900
C 	C 	0.25400 0.35600 0.54120 -0.04600
H 	H 	0.27380 0.32420 0.56580 -0.02000
N 	N 	0.56800 0.65900 0.54060 -0.19000
C 	C 	0.49900 0.65900 0.48200 -0.05000
H 	H 	0.45560 0.62990 0.45840 -0.04200
C 	C 	0.74200 0.97700 0.62250 -0.00900
H 	H 	0.74780 0.00710 0.64650 -0.03700
C 	C 	0.67200 0.93700 0.59780 -0.00400
H 	H 	0.62430 0.93200 0.60410 -0.02600
C 	C 	0.23800 0.95800 0.77800 0.05600
H 	H 	0.22240 0.93150 0.74860 -0.07000
C 	C 	0.31700 0.99100 0.80280 -0.07200
H 	H 	0.36460 0.99250 0.79580 -0.01000
C 	C 	0.86700 0.89100 0.75530 0.04200
H 	H 	0.87760 0.92220 0.77930 -0.04800
C 	C 	0.79000 0.85500 0.73320 -0.03400
H 	H 	0.74710 0.85440 0.74380 -0.01700
C 	C 	0.96200 0.84000 0.43810 -0.05300
H 	H 	0.97280 0.82010 0.41320 -0.00600
C 	C 	0.88000 0.83700 0.44830 0.02800
H 	H 	0.83030 0.80990 0.42990 -0.04900
Ag	Ag	0.21220 0.03856 0.90003 0.39000
Ag	Ag	0.84580 0.81950 0.61450 0.35600
Ag	Ag	0.25410 0.03561 0.61177 0.42800
Ag	Ag	0.03910 0.96011 0.57120 0.38400
Ag	Ag	0.70660 0.75270 0.63881 0.41100
Ag	Ag	0.81680 0.89430 0.52140 0.39200
Ag	Ag	0.93260 0.00900 0.63818 0.40600
Ag	Ag	0.89260 0.60395 0.43253 0.42900
Ag	Ag	0.10970 0.51672 0.46674 0.38900
Ag	Ag	0.14350 0.91580 0.50192 0.39700
Ag	Ag	0.61120 0.82940 0.52234 0.40800
Ag	Ag	0.05510 0.91770 0.76626 0.42000
Ag	Ag	0.31330 0.86080 0.47853 0.38300
Ag	Ag	0.25320 0.59040 0.43570 0.37400
Ag	Ag	0.38440 0.08976 0.89978 0.42200
N 	N 	0.26600 0.96280 0.52380 -0.18500
N 	N 	0.06900 0.59780 0.42440 -0.19000
N 	N 	0.09900 0.02590 0.63030 -0.18300
N 	N 	0.56400 0.74080 0.51100 -0.19800
N 	N 	0.87400 0.83600 0.70400 -0.15800
N 	N 	0.18580 0.43840 0.49600 -0.18600
N 	N 	0.23100 0.00110 0.83820 -0.18700
N 	N 	0.97100 0.89800 0.50530 -0.19500
N 	N 	0.76300 0.92750 0.56810 -0.18200
N 	N 	0.11800 0.62860 0.40970 -0.19000
N 	N 	0.98800 0.62930 0.41160 -0.20600
N 	N 	0.68300 0.90600 0.56380 -0.20300
N 	N 	0.88800 0.87230 0.48170 -0.21800
N 	N 	0.60500 0.71020 0.55620 -0.17300
N 	N 	0.17400 0.05530 0.65000 -0.16100
N 	N 	0.30500 0.00440 0.56290 -0.20600
N 	N 	0.32100 0.94640 0.50800 -0.18800
N 	N 	0.78600 0.82100 0.69300 -0.20000
N 	N 	0.92200 0.87900 0.74120 -0.19600
N 	N 	0.23600 0.42150 0.47590 -0.20100
N 	N 	0.80200 0.96810 0.60750 -0.19500
N 	N 	0.19900 0.40110 0.53630 -0.18400
N 	N 	0.30900 0.02190 0.84110 -0.18900
N 	N 	0.18800 0.96340 0.79610 -0.21100
N 	N 	0.01100 0.88060 0.47840 -0.19300
C 	C 	0.50900 0.71300 0.46500 0.00100
H 	H 	0.48060 0.72510 0.42620 -0.04400
N 	N 	0.06600 0.04610 0.66060 -0.18700
C 	C 	0.80600 0.59400 0.80840 -0.01100
H 	H 	0.75180 0.61860 0.78750 -0.02800
C 	C 	0.88500 0.59000 0.80300 -0.02200
H 	H 	0.89810 0.61250 0.78100 -0.03700
C 	C 	0.60100 0.48500 0.96000 -0.01400
H 	H 	0.54600 0.48420 0.95990 -0.01100
C 	C 	0.61200 0.51800 0.93310 -0.03100
H 	H 	0.57120 0.54860 0.91200 -0.03300
C 	C 	0.93700 0.18180 0.12230 -0.09900
H 	H 	0.92990 0.20880 0.14410 -0.00400
C 	C 	0.00300 0.17700 0.10790 0.05000
H 	H 	0.04080 0.20810 0.11260 -0.03600
C 	C 	0.72700 0.87070 0.00200 -0.02700
H 	H 	0.69420 0.84770 0.01220 -0.01900
C 	C 	0.74600 0.85600 0.95880 -0.04700
H 	H 	0.72620 0.82420 0.93420 -0.01900
N 	N 	0.43200 0.15900 0.95940 -0.19000
C 	C 	0.50100 0.15900 0.01800 -0.05000
H 	H 	0.54440 0.12990 0.04160 -0.04200
C 	C 	0.25800 0.47700 0.87750 -0.01200
H 	H 	0.25220 0.50710 0.85350 -0.03500
C 	C 	0.32800 0.43700 0.90220 -0.00200
H 	H 	0.37570 0.43200 0.89590 -0.02600
C 	C 	0.76200 0.45800 0.72200 0.05500
H 	H 	0.77760 0.43150 0.75140 -0.06900
C 	C 	0.68300 0.49100 0.69720 -0.06900
H 	H 	0.63540 0.49250 0.70420 -0.01000
C 	C 	0.13300 0.39100 0.74470 0.04200
H 	H 	0.12240 0.42220 0.72070 -0.04800
C 	C 	0.21000 0.35500 0.76680 -0.03400
H 	H 	0.25290 0.35440 0.75620 -0.01700
C 	C 	0.03800 0.34000 0.06190 -0.05500
H 	H 	0.02720 0.32010 0.08680 -0.00500
C 	C 	0.12000 0.33700 0.05170 0.02800
H 	H 	0.16970 0.30990 0.07010 -0.04900
Ag	Ag	0.78780 0.53856 0.59997 0.38900
Ag	Ag	0.15420 0.31950 0.88550 0.35600
Ag	Ag	0.74590 0.53561 0.88823 0.42700
Ag	Ag	0.96090 0.46011 0.92880 0.38500
Ag	Ag	0.29340 0.25270 0.86119 0.41100
Ag	Ag	0.18320 0.39430 0.97860 0.39200
Ag	Ag	0.06740 0.50900 0.86182 0.40700
Ag	Ag	0.10740 0.10395 0.06747 0.43000
Ag	Ag	0.89030 0.01672 0.03326 0.38800
Ag	Ag	0.85650 0.41580 0.99808 0.39800
Ag	Ag	0.38880 0.32940 0.97766 0.40800
Ag	Ag	0.94490 0.41770 0.73374 0.42100
Ag	Ag	0.68670 0.36080 0.02147 0.38400
Ag	Ag	0.74680 0.09040 0.06430 0.37300
Ag	Ag	0.61560 0.58976 0.60022 0.42100
N 	N 	0.73400 0.46280 0.97620 -0.18400
N 	N 	0.93100 0.09780 0.07560 -0.19100
N 	N 	0.90100 0.52590 0.86970 -0.18400
N 	N 	0.43600 0.24080 0.98900 -0.19700
N 	N 	0.12600 0.33600 0.79600 -0.15800
N 	N 	0.81420 0.93840 0.00400 -0.18500
N 	N 	0.76900 0.50110 0.66180 -0.18800
N 	N 	0.02900 0.39800 0.99470 -0.19600
N 	N 	0.23700 0.42750 0.93190 -0.18200
N 	N 	0.88200 0.12860 0.09030 -0.19000
N 	N 	0.01200 0.12930 0.08840 -0.20600
N 	N 	0.31700 0.40600 0.93620 -0.20300
N 	N 	0.11200 0.37230 0.01830 -0.21900
N 	N 	0.39500 0.21020 0.94380 -0.17300
N 	N 	0.82600 0.55530 0.85000 -0.16100
N 	N 	0.69500 0.50440 0.93710 -0.20600
N 	N 	0.67900 0.44640 0.99200 -0.18800
N 	N 	0.21400 0.32100 0.80700 -0.20000
N 	N 	0.07800 0.37900 0.75880 -0.19600
N 	N 	0.76400 0.92150 0.02410 -0.20100
N 	N 	0.19800 0.46810 0.89250 -0.19500
N 	N 	0.80100 0.90110 0.96370 -0.18400
N 	N 	0.69100 0.52190 0.65890 -0.19000
N 	N 	0.81200 0.46340 0.70390 -0.21000
N 	N 	0.98900 0.38060 0.02160 -0.19200
C 	C 	0.49100 0.21300 0.03500 0.00100
H 	H 	0.51940 0.22510 0.07380 -0.04400
N 	N 	0.93400 0.54610 0.83940 -0.18800
