data_crystal

_cell_length_a 18.33640
_cell_length_b 18.53550
_cell_length_c 18.53550
_cell_angle_alpha 70.31220
_cell_angle_beta  70.74620
_cell_angle_gamma 109.25400

_symmetry_space_group_name_	'P 1'
_symmetry_space_group_name_H-M	'P 1'

loop_
_symmetry_equiv_pos_as_xyz
  x,y,z

loop_
_atom_site_label
_atom_site_type_symbol
_atom_site_fract_x
_atom_site_fract_y
_atom_site_fract_z
_atom_site_charge
Co	Co	0.98403 0.92876 0.57629 1.15100
Co	Co	0.56032 0.57629 0.49495 1.15100
Co	Co	0.05527 0.49495 0.92876 1.15000
Co	Co	0.93968 0.49495 0.57629 1.15200
Co	Co	0.44473 0.92876 0.49495 1.15200
Co	Co	0.51597 0.57629 0.92876 1.15200
Co	Co	0.01597 0.07124 0.42371 1.15200
Co	Co	0.43968 0.42371 0.50505 1.15200
Co	Co	0.94473 0.50505 0.07124 1.15000
Co	Co	0.06032 0.50505 0.42371 1.15200
Co	Co	0.55527 0.07124 0.50505 1.15200
Co	Co	0.48403 0.42371 0.07124 1.15200
H 	H 	0.84080 0.82890 0.75300 0.07100
H 	H 	0.28460 0.27990 0.34780 0.03300
H 	H 	0.06640 0.75600 0.83940 0.04500
H 	H 	0.16270 0.82650 0.68940 0.06700
H 	H 	0.12040 0.89030 0.59060 0.01100
H 	H 	0.91770 0.70640 0.96260 0.05200
H 	H 	0.74200 0.75730 0.90280 0.03100
H 	H 	0.13130 0.99190 0.23380 0.02400
H 	H 	0.78080 0.69770 0.00730 0.05500
H 	H 	0.59380 0.75300 0.41810 0.07200
H 	H 	0.63240 0.34780 0.37230 0.03300
H 	H 	0.90580 0.83940 0.40460 0.04400
H 	H 	0.85210 0.68940 0.48410 0.06800
H 	H 	0.71100 0.59060 0.51910 0.01000
H 	H 	0.88030 0.96260 0.33100 0.04800
H 	H 	0.64480 0.90280 0.33990 0.02900
H 	H 	0.36510 0.23380 0.77430 0.02400
H 	H 	0.78810 0.00730 0.29500 0.05900
H 	H 	0.01190 0.41810 0.82890 0.07000
H 	H 	0.00470 0.37230 0.27990 0.03300
H 	H 	0.31040 0.40460 0.75600 0.04400
H 	H 	0.33620 0.48410 0.82650 0.06700
H 	H 	0.23010 0.51910 0.89030 0.01000
H 	H 	0.21130 0.33100 0.70640 0.05000
H 	H 	0.98470 0.33990 0.75730 0.03300
H 	H 	0.13940 0.77430 0.99190 0.02300
H 	H 	0.08310 0.29500 0.69770 0.05700
H 	H 	0.90620 0.41810 0.75300 0.07100
H 	H 	0.86760 0.37230 0.34780 0.03300
H 	H 	0.59420 0.40460 0.83940 0.04500
H 	H 	0.64790 0.48410 0.68940 0.06700
H 	H 	0.78900 0.51910 0.59060 0.01100
H 	H 	0.61970 0.33100 0.96260 0.05000
H 	H 	0.85520 0.33990 0.90280 0.03100
H 	H 	0.13490 0.77430 0.23380 0.02400
H 	H 	0.71190 0.29500 0.00730 0.05500
H 	H 	0.48810 0.82890 0.41810 0.07200
H 	H 	0.49530 0.27990 0.37230 0.03300
H 	H 	0.18960 0.75600 0.40460 0.04400
H 	H 	0.16380 0.82650 0.48410 0.06800
H 	H 	0.26990 0.89030 0.51910 0.01000
H 	H 	0.28870 0.70640 0.33100 0.04900
H 	H 	0.51530 0.75730 0.33990 0.02900
H 	H 	0.36060 0.99190 0.77430 0.02400
H 	H 	0.41690 0.69770 0.29500 0.05900
H 	H 	0.65920 0.75300 0.82890 0.07200
H 	H 	0.21540 0.34780 0.27990 0.03300
H 	H 	0.43360 0.83940 0.75600 0.04400
H 	H 	0.33730 0.68940 0.82650 0.06800
H 	H 	0.37960 0.59060 0.89030 0.01000
H 	H 	0.58230 0.96260 0.70640 0.04800
H 	H 	0.75800 0.90280 0.75730 0.02800
H 	H 	0.36870 0.23380 0.99190 0.02400
H 	H 	0.71920 0.00730 0.69770 0.06000
H 	H 	0.15920 0.17110 0.24700 0.07100
H 	H 	0.71540 0.72010 0.65220 0.03300
H 	H 	0.93360 0.24400 0.16060 0.04500
H 	H 	0.83730 0.17350 0.31060 0.06700
H 	H 	0.87960 0.10970 0.40940 0.01100
H 	H 	0.08230 0.29360 0.03740 0.05200
H 	H 	0.25800 0.24270 0.09720 0.03100
H 	H 	0.86870 0.00810 0.76620 0.02400
H 	H 	0.21920 0.30230 0.99270 0.05500
H 	H 	0.40620 0.24700 0.58190 0.07200
H 	H 	0.36760 0.65220 0.62770 0.03300
H 	H 	0.09420 0.16060 0.59540 0.04400
H 	H 	0.14790 0.31060 0.51590 0.06800
H 	H 	0.28900 0.40940 0.48090 0.01000
H 	H 	0.11970 0.03740 0.66900 0.04800
H 	H 	0.35520 0.09720 0.66010 0.02900
H 	H 	0.63490 0.76620 0.22570 0.02400
H 	H 	0.21190 0.99270 0.70500 0.05900
H 	H 	0.98810 0.58190 0.17110 0.07000
H 	H 	0.99530 0.62770 0.72010 0.03300
H 	H 	0.68960 0.59540 0.24400 0.04400
H 	H 	0.66380 0.51590 0.17350 0.06700
H 	H 	0.76990 0.48090 0.10970 0.01000
H 	H 	0.78870 0.66900 0.29360 0.05000
H 	H 	0.01530 0.66010 0.24270 0.03300
H 	H 	0.86060 0.22570 0.00810 0.02300
H 	H 	0.91690 0.70500 0.30230 0.05700
H 	H 	0.09380 0.58190 0.24700 0.07100
H 	H 	0.13240 0.62770 0.65220 0.03300
H 	H 	0.40580 0.59540 0.16060 0.04500
H 	H 	0.35210 0.51590 0.31060 0.06700
H 	H 	0.21100 0.48090 0.40940 0.01100
H 	H 	0.38030 0.66900 0.03740 0.05000
H 	H 	0.14480 0.66010 0.09720 0.03100
H 	H 	0.86510 0.22570 0.76620 0.02400
H 	H 	0.28810 0.70500 0.99270 0.05500
H 	H 	0.51190 0.17110 0.58190 0.07200
H 	H 	0.50470 0.72010 0.62770 0.03300
H 	H 	0.81040 0.24400 0.59540 0.04400
H 	H 	0.83620 0.17350 0.51590 0.06800
H 	H 	0.73010 0.10970 0.48090 0.01000
H 	H 	0.71130 0.29360 0.66900 0.04900
H 	H 	0.48470 0.24270 0.66010 0.02900
H 	H 	0.63940 0.00810 0.22570 0.02400
H 	H 	0.58310 0.30230 0.70500 0.05900
H 	H 	0.34080 0.24700 0.17110 0.07200
H 	H 	0.78460 0.65220 0.72010 0.03300
H 	H 	0.56640 0.16060 0.24400 0.04400
H 	H 	0.66270 0.31060 0.17350 0.06800
H 	H 	0.62040 0.40940 0.10970 0.01000
H 	H 	0.41770 0.03740 0.29360 0.04800
H 	H 	0.24200 0.09720 0.24270 0.02800
H 	H 	0.63130 0.76620 0.00810 0.02400
H 	H 	0.28080 0.99270 0.30230 0.06000
H 	H 	0.01795 0.76795 0.46410 0.02900
H 	H 	0.17165 0.92165 0.15670 0.06700
H 	H 	0.48205 0.46410 0.76795 0.02900
H 	H 	0.32835 0.15670 0.92165 0.06600
H 	H 	0.25000 0.76795 0.76795 0.03000
H 	H 	0.25000 0.92165 0.92165 0.06600
H 	H 	0.98205 0.23205 0.53590 0.02900
H 	H 	0.82835 0.07835 0.84330 0.06700
H 	H 	0.51795 0.53590 0.23205 0.02900
H 	H 	0.67165 0.84330 0.07835 0.06600
H 	H 	0.75000 0.23205 0.23205 0.03000
H 	H 	0.75000 0.07835 0.07835 0.06600
H 	H 	0.27420 0.04840 0.47580 0.03200
H 	H 	0.42800 0.35600 0.32200 0.07000
H 	H 	0.75000 0.47580 0.47580 0.03200
H 	H 	0.75000 0.32200 0.32200 0.07000
H 	H 	0.22580 0.47580 0.04840 0.03200
H 	H 	0.07200 0.32200 0.35600 0.07100
H 	H 	0.72580 0.95160 0.52420 0.03200
H 	H 	0.57200 0.64400 0.67800 0.07000
H 	H 	0.25000 0.52420 0.52420 0.03200
H 	H 	0.25000 0.67800 0.67800 0.07000
H 	H 	0.77420 0.52420 0.95160 0.03200
H 	H 	0.92800 0.67800 0.64400 0.07100
C 	C 	0.85755 0.80503 0.79471 -0.12100
C 	C 	0.05040 0.93041 0.40913 0.38100
C 	C 	0.26340 0.15589 0.41801 -0.11800
C 	C 	0.94258 0.81314 0.76595 0.09100
C 	C 	0.31121 0.24829 0.36956 0.04600
C 	C 	0.16820 0.10669 0.44174 0.36600
C 	C 	0.07384 0.88698 0.35685 -0.13600
C 	C 	0.96589 0.77561 0.82904 -0.01000
C 	C 	0.04950 0.78136 0.79846 -0.02100
C 	C 	0.10619 0.82288 0.71071 -0.08500
C 	C 	0.07959 0.86036 0.65201 0.05100
C 	C 	0.90293 0.73200 0.91971 -0.03200
C 	C 	0.79922 0.76238 0.88352 0.01600
C 	C 	0.11732 0.93233 0.26513 0.05000
C 	C 	0.82201 0.72629 0.94616 -0.05800
C 	C 	0.65226 0.79471 0.40026 -0.12400
C 	C 	0.45953 0.40913 0.66046 0.37900
C 	C 	0.68141 0.41801 0.42610 -0.11800
C 	C 	0.70853 0.76595 0.42091 0.09300
C 	C 	0.68077 0.36956 0.38215 0.04600
C 	C 	0.60994 0.44174 0.45157 0.36600
C 	C 	0.43069 0.35685 0.75617 -0.13600
C 	C 	0.79493 0.82904 0.39535 -0.01700
C 	C 	0.84796 0.79846 0.42018 -0.01500
C 	C 	0.81690 0.71071 0.46641 -0.08900
C 	C 	0.73160 0.65201 0.48763 0.05300
C 	C 	0.82264 0.91971 0.34829 -0.02600
C 	C 	0.68274 0.88352 0.35410 0.02100
C 	C 	0.38245 0.26513 0.80254 0.04900
C 	C 	0.76817 0.94616 0.32755 -0.06600
C 	C 	0.05252 0.40026 0.80503 -0.12000
C 	C 	0.11999 0.66046 0.93041 0.37400
C 	C 	0.10751 0.42610 0.15589 -0.11800
C 	C 	0.12944 0.42091 0.81314 0.09100
C 	C 	0.06292 0.38215 0.24829 0.04600
C 	C 	0.06151 0.45157 0.10669 0.36900
C 	C 	0.18686 0.75617 0.88698 -0.13400
C 	C 	0.19028 0.39535 0.77561 -0.01400
C 	C 	0.26814 0.42018 0.78136 -0.01700
C 	C 	0.28331 0.46641 0.82288 -0.08800
C 	C 	0.21923 0.48763 0.86036 0.05300
C 	C 	0.17093 0.34829 0.73200 -0.02900
C 	C 	0.03684 0.35410 0.76238 0.01400
C 	C 	0.18499 0.80254 0.93233 0.04800
C 	C 	0.09572 0.32755 0.72629 -0.06100
C 	C 	0.84774 0.40026 0.79471 -0.12100
C 	C 	0.04047 0.66046 0.40913 0.38000
C 	C 	0.81859 0.42610 0.41801 -0.11800
C 	C 	0.79147 0.42091 0.76595 0.09100
C 	C 	0.81923 0.38215 0.36956 0.04600
C 	C 	0.89006 0.45157 0.44174 0.36600
C 	C 	0.06931 0.75617 0.35685 -0.13600
C 	C 	0.70507 0.39535 0.82904 -0.01400
C 	C 	0.65204 0.42018 0.79846 -0.01700
C 	C 	0.68310 0.46641 0.71071 -0.08700
C 	C 	0.76840 0.48763 0.65201 0.05300
C 	C 	0.67736 0.34829 0.91971 -0.03000
C 	C 	0.81726 0.35410 0.88352 0.01700
C 	C 	0.11755 0.80254 0.26513 0.05000
C 	C 	0.73183 0.32755 0.94616 -0.05900
C 	C 	0.44748 0.80503 0.40026 -0.12400
C 	C 	0.38001 0.93041 0.66046 0.37900
C 	C 	0.39249 0.15589 0.42610 -0.11800
C 	C 	0.37056 0.81314 0.42091 0.09300
C 	C 	0.43708 0.24829 0.38215 0.04600
C 	C 	0.43849 0.10669 0.45157 0.36600
C 	C 	0.31314 0.88698 0.75617 -0.13500
C 	C 	0.30972 0.77561 0.39535 -0.01600
C 	C 	0.23186 0.78136 0.42018 -0.01500
C 	C 	0.21669 0.82288 0.46641 -0.08900
C 	C 	0.28077 0.86036 0.48763 0.05300
C 	C 	0.32907 0.73200 0.34829 -0.02600
C 	C 	0.46316 0.76238 0.35410 0.02100
C 	C 	0.31501 0.93233 0.80254 0.04800
C 	C 	0.40428 0.72629 0.32755 -0.06600
C 	C 	0.64245 0.79471 0.80503 -0.12500
C 	C 	0.44960 0.40913 0.93041 0.37900
C 	C 	0.23660 0.41801 0.15589 -0.11800
C 	C 	0.55742 0.76595 0.81314 0.09400
C 	C 	0.18879 0.36956 0.24829 0.04600
C 	C 	0.33180 0.44174 0.10669 0.36600
C 	C 	0.42616 0.35685 0.88698 -0.13600
C 	C 	0.53411 0.82904 0.77561 -0.01700
C 	C 	0.45050 0.79846 0.78136 -0.01500
C 	C 	0.39381 0.71071 0.82288 -0.08900
C 	C 	0.42041 0.65201 0.86036 0.05300
C 	C 	0.59707 0.91971 0.73200 -0.02500
C 	C 	0.70078 0.88352 0.76238 0.02200
C 	C 	0.38268 0.26513 0.93233 0.04900
C 	C 	0.67799 0.94616 0.72629 -0.06800
C 	C 	0.14245 0.19497 0.20529 -0.12100
C 	C 	0.94960 0.06959 0.59087 0.38100
C 	C 	0.73660 0.84411 0.58199 -0.11800
C 	C 	0.05742 0.18686 0.23405 0.09100
C 	C 	0.68879 0.75171 0.63044 0.04600
C 	C 	0.83180 0.89331 0.55826 0.36600
C 	C 	0.92616 0.11302 0.64315 -0.13600
C 	C 	0.03411 0.22439 0.17096 -0.01000
C 	C 	0.95050 0.21864 0.20154 -0.02100
C 	C 	0.89381 0.17712 0.28929 -0.08500
C 	C 	0.92041 0.13964 0.34799 0.05100
C 	C 	0.09707 0.26800 0.08029 -0.03200
C 	C 	0.20078 0.23762 0.11648 0.01600
C 	C 	0.88268 0.06767 0.73487 0.05000
C 	C 	0.17799 0.27371 0.05384 -0.05800
C 	C 	0.34774 0.20529 0.59974 -0.12400
C 	C 	0.54047 0.59087 0.33954 0.37900
C 	C 	0.31859 0.58199 0.57390 -0.11800
C 	C 	0.29147 0.23405 0.57909 0.09300
C 	C 	0.31923 0.63044 0.61785 0.04600
C 	C 	0.39006 0.55826 0.54843 0.36600
C 	C 	0.56931 0.64315 0.24383 -0.13600
C 	C 	0.20507 0.17096 0.60465 -0.01700
C 	C 	0.15204 0.20154 0.57982 -0.01500
C 	C 	0.18310 0.28929 0.53359 -0.08900
C 	C 	0.26840 0.34799 0.51237 0.05300
C 	C 	0.17736 0.08029 0.65171 -0.02600
C 	C 	0.31726 0.11648 0.64590 0.02100
C 	C 	0.61755 0.73487 0.19746 0.04900
C 	C 	0.23183 0.05384 0.67245 -0.06600
C 	C 	0.94748 0.59974 0.19497 -0.12000
C 	C 	0.88001 0.33954 0.06959 0.37400
C 	C 	0.89249 0.57390 0.84411 -0.11800
C 	C 	0.87056 0.57909 0.18686 0.09100
C 	C 	0.93708 0.61785 0.75171 0.04600
C 	C 	0.93849 0.54843 0.89331 0.36900
C 	C 	0.81314 0.24383 0.11302 -0.13400
C 	C 	0.80972 0.60465 0.22439 -0.01400
C 	C 	0.73186 0.57982 0.21864 -0.01700
C 	C 	0.71669 0.53359 0.17712 -0.08800
C 	C 	0.78077 0.51237 0.13964 0.05300
C 	C 	0.82907 0.65171 0.26800 -0.02900
C 	C 	0.96316 0.64590 0.23762 0.01400
C 	C 	0.81501 0.19746 0.06767 0.04800
C 	C 	0.90428 0.67245 0.27371 -0.06100
C 	C 	0.15226 0.59974 0.20529 -0.12100
C 	C 	0.95953 0.33954 0.59087 0.38000
C 	C 	0.18141 0.57390 0.58199 -0.11800
C 	C 	0.20853 0.57909 0.23405 0.09100
C 	C 	0.18077 0.61785 0.63044 0.04600
C 	C 	0.10994 0.54843 0.55826 0.36600
C 	C 	0.93069 0.24383 0.64315 -0.13600
C 	C 	0.29493 0.60465 0.17096 -0.01400
C 	C 	0.34796 0.57982 0.20154 -0.01700
C 	C 	0.31690 0.53359 0.28929 -0.08700
C 	C 	0.23160 0.51237 0.34799 0.05300
C 	C 	0.32264 0.65171 0.08029 -0.03000
C 	C 	0.18274 0.64590 0.11648 0.01700
C 	C 	0.88245 0.19746 0.73487 0.05000
C 	C 	0.26817 0.67245 0.05384 -0.05900
C 	C 	0.55252 0.19497 0.59974 -0.12400
C 	C 	0.61999 0.06959 0.33954 0.37900
C 	C 	0.60751 0.84411 0.57390 -0.11800
C 	C 	0.62944 0.18686 0.57909 0.09300
C 	C 	0.56292 0.75171 0.61785 0.04600
C 	C 	0.56151 0.89331 0.54843 0.36600
C 	C 	0.68686 0.11302 0.24383 -0.13500
C 	C 	0.69028 0.22439 0.60465 -0.01600
C 	C 	0.76814 0.21864 0.57982 -0.01500
C 	C 	0.78331 0.17712 0.53359 -0.08900
C 	C 	0.71923 0.13964 0.51237 0.05300
C 	C 	0.67093 0.26800 0.65171 -0.02600
C 	C 	0.53684 0.23762 0.64590 0.02100
C 	C 	0.68499 0.06767 0.19746 0.04800
C 	C 	0.59572 0.27371 0.67245 -0.06600
C 	C 	0.35755 0.20529 0.19497 -0.12500
C 	C 	0.55040 0.59087 0.06959 0.37900
C 	C 	0.76340 0.58199 0.84411 -0.11800
C 	C 	0.44258 0.23405 0.18686 0.09400
C 	C 	0.81121 0.63044 0.75171 0.04600
C 	C 	0.66820 0.55826 0.89331 0.36600
C 	C 	0.57384 0.64315 0.11302 -0.13600
C 	C 	0.46589 0.17096 0.22439 -0.01700
C 	C 	0.54950 0.20154 0.21864 -0.01500
C 	C 	0.60619 0.28929 0.17712 -0.08900
C 	C 	0.57959 0.34799 0.13964 0.05300
C 	C 	0.40293 0.08029 0.26800 -0.02500
C 	C 	0.29922 0.11648 0.23762 0.02200
C 	C 	0.61732 0.73487 0.06767 0.04900
C 	C 	0.32201 0.05384 0.27371 -0.06800
C 	C 	0.04930 0.79930 0.40140 0.06700
C 	C 	0.14029 0.89029 0.21942 -0.11400
C 	C 	0.45070 0.40140 0.79930 0.06600
C 	C 	0.35971 0.21942 0.89029 -0.11400
C 	C 	0.25000 0.79930 0.79930 0.06500
C 	C 	0.25000 0.89029 0.89029 -0.11300
C 	C 	0.95070 0.20070 0.59860 0.06700
C 	C 	0.85971 0.10971 0.78058 -0.11400
C 	C 	0.54930 0.59860 0.20070 0.06600
C 	C 	0.64029 0.78058 0.10971 -0.11400
C 	C 	0.75000 0.20070 0.20070 0.06500
C 	C 	0.75000 0.10971 0.10971 -0.11300
C 	C 	0.30554 0.11108 0.44446 0.06300
C 	C 	0.39669 0.29338 0.35331 -0.10700
C 	C 	0.75000 0.44446 0.44446 0.06300
C 	C 	0.75000 0.35331 0.35331 -0.10700
C 	C 	0.19446 0.44446 0.11108 0.06300
C 	C 	0.10331 0.35331 0.29338 -0.10700
C 	C 	0.69446 0.88892 0.55554 0.06300
C 	C 	0.60331 0.70662 0.64669 -0.10700
C 	C 	0.25000 0.55554 0.55554 0.06300
C 	C 	0.25000 0.64669 0.64669 -0.10700
C 	C 	0.80554 0.55554 0.88892 0.06300
C 	C 	0.89669 0.64669 0.70662 -0.10700
N 	N 	0.00181 0.85684 0.67639 -0.22900
N 	N 	0.67820 0.67639 0.46677 -0.23000
N 	N 	0.14497 0.46677 0.85684 -0.23000
N 	N 	0.82180 0.46677 0.67639 -0.22900
N 	N 	0.35503 0.85684 0.46677 -0.23000
N 	N 	0.49819 0.67639 0.85684 -0.23000
N 	N 	0.99819 0.14316 0.32361 -0.22900
N 	N 	0.32180 0.32361 0.53323 -0.23000
N 	N 	0.85503 0.53323 0.14316 -0.23000
N 	N 	0.17820 0.53323 0.32361 -0.22900
N 	N 	0.64497 0.14316 0.53323 -0.23000
N 	N 	0.50181 0.32361 0.14316 -0.23000
O 	O 	0.11916 0.03048 0.50869 -0.43800
O 	O 	0.03058 0.89167 0.48871 -0.45200
O 	O 	0.14199 0.14482 0.39359 -0.43500
O 	O 	0.05053 0.00084 0.37036 -0.45600
O 	O 	0.62785 0.50869 0.46083 -0.43800
O 	O 	0.51929 0.48871 0.61962 -0.45200
O 	O 	0.53558 0.39359 0.46159 -0.43500
O 	O 	0.42089 0.37036 0.62880 -0.45600
O 	O 	0.08868 0.46083 0.03048 -0.43700
O 	O 	0.13891 0.61962 0.89167 -0.45100
O 	O 	0.99717 0.46159 0.14482 -0.43700
O 	O 	0.04969 0.62880 0.00084 -0.45100
O 	O 	0.87215 0.46083 0.50869 -0.43800
O 	O 	0.98071 0.61962 0.48871 -0.45200
O 	O 	0.96442 0.46159 0.39359 -0.43500
O 	O 	0.07911 0.62880 0.37036 -0.45600
O 	O 	0.41132 0.03048 0.46083 -0.43800
O 	O 	0.36109 0.89167 0.61962 -0.45200
O 	O 	0.50283 0.14482 0.46159 -0.43500
O 	O 	0.45031 0.00084 0.62880 -0.45500
O 	O 	0.38084 0.50869 0.03048 -0.43700
O 	O 	0.46942 0.48871 0.89167 -0.45200
O 	O 	0.35801 0.39359 0.14482 -0.43500
O 	O 	0.44947 0.37036 0.00084 -0.45600
O 	O 	0.88084 0.96952 0.49131 -0.43800
O 	O 	0.96942 0.10833 0.51129 -0.45200
O 	O 	0.85801 0.85518 0.60641 -0.43500
O 	O 	0.94947 0.99916 0.62964 -0.45600
O 	O 	0.37215 0.49131 0.53917 -0.43800
O 	O 	0.48071 0.51129 0.38038 -0.45200
O 	O 	0.46442 0.60641 0.53841 -0.43500
O 	O 	0.57911 0.62964 0.37120 -0.45600
O 	O 	0.91132 0.53917 0.96952 -0.43700
O 	O 	0.86109 0.38038 0.10833 -0.45100
O 	O 	0.00283 0.53841 0.85518 -0.43700
O 	O 	0.95031 0.37120 0.99916 -0.45100
O 	O 	0.12785 0.53917 0.49131 -0.43800
O 	O 	0.01929 0.38038 0.51129 -0.45200
O 	O 	0.03558 0.53841 0.60641 -0.43500
O 	O 	0.92089 0.37120 0.62964 -0.45600
O 	O 	0.58868 0.96952 0.53917 -0.43800
O 	O 	0.63891 0.10833 0.38038 -0.45200
O 	O 	0.49717 0.85518 0.53841 -0.43500
O 	O 	0.54969 0.99916 0.37120 -0.45500
O 	O 	0.61916 0.49131 0.96952 -0.43700
O 	O 	0.53058 0.51129 0.10833 -0.45200
O 	O 	0.64199 0.60641 0.85518 -0.43500
O 	O 	0.55053 0.62964 0.99916 -0.45600
