data_crystal

_cell_length_a 18.38000
_cell_length_b 18.55570
_cell_length_c 18.55570
_cell_angle_alpha 70.33780
_cell_angle_beta  70.72040
_cell_angle_gamma 109.28000

_symmetry_space_group_name_	'P 1'
_symmetry_space_group_name_H-M	'P 1'

loop_
_symmetry_equiv_pos_as_xyz
  x,y,z

loop_
_atom_site_label
_atom_site_type_symbol
_atom_site_fract_x
_atom_site_fract_y
_atom_site_fract_z
_atom_site_charge
Cu	Cu	0.51209 0.57161 0.93529 0.91300
Cu	Cu	0.44738 0.93529 0.49310 0.91300
Cu	Cu	0.94048 0.49310 0.57161 0.91300
Cu	Cu	0.05262 0.49310 0.93529 0.91200
Cu	Cu	0.55952 0.57161 0.49310 0.91400
Cu	Cu	0.98791 0.93529 0.57161 0.91300
Cu	Cu	0.48791 0.42839 0.06471 0.91400
Cu	Cu	0.55262 0.06471 0.50690 0.91400
Cu	Cu	0.05952 0.50690 0.42839 0.91400
Cu	Cu	0.94738 0.50690 0.06471 0.91300
Cu	Cu	0.44048 0.42839 0.50690 0.91400
Cu	Cu	0.01209 0.06471 0.42839 0.91300
H 	H 	0.38670 0.59830 0.87930 0.01900
H 	H 	0.65990 0.75610 0.83070 0.08500
H 	H 	0.34600 0.69840 0.81800 0.06900
H 	H 	0.75920 0.90520 0.76110 0.02600
H 	H 	0.58870 0.96840 0.70760 0.04800
H 	H 	0.44150 0.84750 0.75440 0.04500
H 	H 	0.72350 0.01040 0.69860 0.06300
H 	H 	0.21930 0.35160 0.27070 0.02900
H 	H 	0.37620 0.23870 0.98650 0.02800
H 	H 	0.26600 0.87930 0.52240 0.01900
H 	H 	0.49060 0.83070 0.41320 0.08400
H 	H 	0.16400 0.81800 0.48360 0.06800
H 	H 	0.52030 0.76110 0.33370 0.02800
H 	H 	0.29630 0.70760 0.32400 0.05000
H 	H 	0.19590 0.75440 0.39810 0.04600
H 	H 	0.42210 0.69860 0.29100 0.06000
H 	H 	0.49000 0.27070 0.37770 0.02900
H 	H 	0.36270 0.98650 0.77480 0.02800
H 	H 	0.78840 0.52240 0.59830 0.01900
H 	H 	0.90380 0.41320 0.75610 0.08300
H 	H 	0.64760 0.48360 0.69840 0.06800
H 	H 	0.85400 0.33370 0.90520 0.03000
H 	H 	0.62030 0.32400 0.96840 0.05100
H 	H 	0.59400 0.39810 0.84750 0.04600
H 	H 	0.71310 0.29100 0.01040 0.05700
H 	H 	0.86770 0.37770 0.35160 0.02900
H 	H 	0.13750 0.77480 0.23870 0.02800
H 	H 	0.23400 0.52240 0.87930 0.01900
H 	H 	0.00940 0.41320 0.83070 0.08200
H 	H 	0.33600 0.48360 0.81800 0.06800
H 	H 	0.97970 0.33370 0.76110 0.03200
H 	H 	0.20370 0.32400 0.70760 0.05100
H 	H 	0.30410 0.39810 0.75440 0.04600
H 	H 	0.07790 0.29100 0.69860 0.05800
H 	H 	0.01000 0.37770 0.27070 0.03000
H 	H 	0.13730 0.77480 0.98650 0.02800
H 	H 	0.71160 0.59830 0.52240 0.01900
H 	H 	0.59620 0.75610 0.41320 0.08500
H 	H 	0.85240 0.69840 0.48360 0.06800
H 	H 	0.64600 0.90520 0.33370 0.02700
H 	H 	0.87970 0.96840 0.32400 0.04800
H 	H 	0.90600 0.84750 0.39810 0.04500
H 	H 	0.78690 0.01040 0.29100 0.06200
H 	H 	0.63230 0.35160 0.37770 0.02900
H 	H 	0.36250 0.23870 0.77480 0.02800
H 	H 	0.11330 0.87930 0.59830 0.01900
H 	H 	0.84010 0.83070 0.75610 0.08300
H 	H 	0.15400 0.81800 0.69840 0.06800
H 	H 	0.74080 0.76110 0.90520 0.02900
H 	H 	0.91130 0.70760 0.96840 0.05100
H 	H 	0.05850 0.75440 0.84750 0.04600
H 	H 	0.77650 0.69860 0.01040 0.05800
H 	H 	0.28070 0.27070 0.35160 0.02900
H 	H 	0.12380 0.98650 0.23870 0.02900
H 	H 	0.61330 0.40170 0.12070 0.01900
H 	H 	0.34010 0.24390 0.16930 0.08500
H 	H 	0.65400 0.30160 0.18200 0.06900
H 	H 	0.24080 0.09480 0.23890 0.02600
H 	H 	0.41130 0.03160 0.29240 0.04800
H 	H 	0.55850 0.15250 0.24560 0.04500
H 	H 	0.27650 0.98960 0.30140 0.06300
H 	H 	0.78070 0.64840 0.72930 0.02900
H 	H 	0.62380 0.76130 0.01350 0.02800
H 	H 	0.73400 0.12070 0.47760 0.01900
H 	H 	0.50940 0.16930 0.58680 0.08400
H 	H 	0.83600 0.18200 0.51640 0.06800
H 	H 	0.47970 0.23890 0.66630 0.02800
H 	H 	0.70370 0.29240 0.67600 0.05000
H 	H 	0.80410 0.24560 0.60190 0.04600
H 	H 	0.57790 0.30140 0.70900 0.06000
H 	H 	0.51000 0.72930 0.62230 0.02900
H 	H 	0.63730 0.01350 0.22520 0.02800
H 	H 	0.21160 0.47760 0.40170 0.01900
H 	H 	0.09620 0.58680 0.24390 0.08300
H 	H 	0.35240 0.51640 0.30160 0.06800
H 	H 	0.14600 0.66630 0.09480 0.03000
H 	H 	0.37970 0.67600 0.03160 0.05100
H 	H 	0.40600 0.60190 0.15250 0.04600
H 	H 	0.28690 0.70900 0.98960 0.05700
H 	H 	0.13230 0.62230 0.64840 0.02900
H 	H 	0.86250 0.22520 0.76130 0.02800
H 	H 	0.76600 0.47760 0.12070 0.01900
H 	H 	0.99060 0.58680 0.16930 0.08200
H 	H 	0.66400 0.51640 0.18200 0.06800
H 	H 	0.02030 0.66630 0.23890 0.03200
H 	H 	0.79630 0.67600 0.29240 0.05100
H 	H 	0.69590 0.60190 0.24560 0.04600
H 	H 	0.92210 0.70900 0.30140 0.05800
H 	H 	0.99000 0.62230 0.72930 0.03000
H 	H 	0.86270 0.22520 0.01350 0.02800
H 	H 	0.28840 0.40170 0.47760 0.01900
H 	H 	0.40380 0.24390 0.58680 0.08500
H 	H 	0.14760 0.30160 0.51640 0.06800
H 	H 	0.35400 0.09480 0.66630 0.02700
H 	H 	0.12030 0.03160 0.67600 0.04800
H 	H 	0.09400 0.15250 0.60190 0.04500
H 	H 	0.21310 0.98960 0.70900 0.06200
H 	H 	0.36770 0.64840 0.62230 0.02900
H 	H 	0.63750 0.76130 0.22520 0.02800
H 	H 	0.88670 0.12070 0.40170 0.01900
H 	H 	0.15990 0.16930 0.24390 0.08300
H 	H 	0.84600 0.18200 0.30160 0.06800
H 	H 	0.25920 0.23890 0.09480 0.02900
H 	H 	0.08870 0.29240 0.03160 0.05100
H 	H 	0.94150 0.24560 0.15250 0.04600
H 	H 	0.22350 0.30140 0.98960 0.05800
H 	H 	0.71930 0.72930 0.64840 0.02900
H 	H 	0.87620 0.01350 0.76130 0.02900
H 	H 	0.22880 0.47880 0.04240 0.03100
H 	H 	0.07710 0.32710 0.34580 0.07800
H 	H 	0.27120 0.04240 0.47880 0.03000
H 	H 	0.42290 0.34580 0.32710 0.07900
H 	H 	0.75000 0.47880 0.47880 0.03100
H 	H 	0.75000 0.32710 0.32710 0.07900
H 	H 	0.77120 0.52120 0.95760 0.03100
H 	H 	0.92290 0.67290 0.65420 0.07800
H 	H 	0.72880 0.95760 0.52120 0.03000
H 	H 	0.57710 0.65420 0.67290 0.07900
H 	H 	0.25000 0.52120 0.52120 0.03100
H 	H 	0.25000 0.67290 0.67290 0.07900
H 	H 	0.48405 0.46810 0.76595 0.03700
H 	H 	0.33055 0.16110 0.91945 0.06400
H 	H 	0.25000 0.76595 0.76595 0.03600
H 	H 	0.25000 0.91945 0.91945 0.06400
H 	H 	0.01595 0.76595 0.46810 0.03700
H 	H 	0.16945 0.91945 0.16110 0.06500
H 	H 	0.51595 0.53190 0.23405 0.03700
H 	H 	0.66945 0.83890 0.08055 0.06400
H 	H 	0.75000 0.23405 0.23405 0.03600
H 	H 	0.75000 0.08055 0.08055 0.06400
H 	H 	0.98405 0.23405 0.53190 0.03700
H 	H 	0.83055 0.08055 0.83890 0.06500
C 	C 	0.56160 0.77050 0.81150 0.10300
C 	C 	0.42720 0.65930 0.85240 0.05600
C 	C 	0.64410 0.79820 0.80590 -0.12900
C 	C 	0.53910 0.83430 0.77390 -0.02200
C 	C 	0.40170 0.71870 0.81610 -0.09000
C 	C 	0.70280 0.88650 0.76460 0.02900
C 	C 	0.60270 0.92460 0.73250 -0.01800
C 	C 	0.45820 0.80590 0.77820 -0.01100
C 	C 	0.68160 0.94960 0.72750 -0.07500
C 	C 	0.33510 0.44570 0.09780 0.36300
C 	C 	0.23920 0.42100 0.14810 -0.12300
C 	C 	0.19290 0.37360 0.23900 0.05600
C 	C 	0.45490 0.41350 0.92730 0.34700
C 	C 	0.43030 0.36180 0.88400 -0.12000
C 	C 	0.38770 0.27010 0.92790 0.03900
C 	C 	0.37310 0.81150 0.41800 0.10200
C 	C 	0.27960 0.85240 0.48830 0.05600
C 	C 	0.45000 0.80590 0.39590 -0.12700
C 	C 	0.31300 0.77390 0.39180 -0.02000
C 	C 	0.21780 0.81610 0.46520 -0.08900
C 	C 	0.46740 0.76460 0.34890 0.02500
C 	C 	0.33520 0.73250 0.34290 -0.02200
C 	C 	0.23640 0.77820 0.41590 -0.01300
C 	C 	0.40910 0.72750 0.32290 -0.06900
C 	C 	0.43290 0.09780 0.45650 0.36300
C 	C 	0.38730 0.14810 0.43090 -0.12400
C 	C 	0.43190 0.23900 0.38740 0.05700
C 	C 	0.38220 0.92730 0.65920 0.34800
C 	C 	0.31430 0.88400 0.75420 -0.12000
C 	C 	0.31560 0.92790 0.80200 0.03900
C 	C 	0.79110 0.41800 0.77050 0.10000
C 	C 	0.76790 0.48830 0.65930 0.05500
C 	C 	0.84590 0.39590 0.79820 -0.12400
C 	C 	0.70480 0.39180 0.83430 -0.01700
C 	C 	0.68300 0.46520 0.71870 -0.08800
C 	C 	0.81630 0.34890 0.88650 0.02100
C 	C 	0.67810 0.34290 0.92460 -0.02600
C 	C 	0.65230 0.41590 0.80590 -0.01500
C 	C 	0.73200 0.32290 0.94960 -0.06300
C 	C 	0.88940 0.45650 0.44570 0.36300
C 	C 	0.81820 0.43090 0.42100 -0.12400
C 	C 	0.81930 0.38740 0.37360 0.05700
C 	C 	0.04140 0.65920 0.41350 0.34800
C 	C 	0.06850 0.75420 0.36180 -0.12000
C 	C 	0.11760 0.80200 0.27010 0.03900
C 	C 	0.12690 0.41800 0.81150 0.09900
C 	C 	0.22040 0.48830 0.85240 0.05500
C 	C 	0.05000 0.39590 0.80590 -0.12200
C 	C 	0.18700 0.39180 0.77390 -0.01700
C 	C 	0.28220 0.46520 0.81610 -0.08800
C 	C 	0.03260 0.34890 0.76460 0.01700
C 	C 	0.16480 0.34290 0.73250 -0.02600
C 	C 	0.26360 0.41590 0.77820 -0.01500
C 	C 	0.09090 0.32290 0.72750 -0.06400
C 	C 	0.06710 0.45650 0.09780 0.36200
C 	C 	0.11270 0.43090 0.14810 -0.12300
C 	C 	0.06810 0.38740 0.23900 0.05600
C 	C 	0.11780 0.65920 0.92730 0.34800
C 	C 	0.18570 0.75420 0.88400 -0.12000
C 	C 	0.18440 0.80200 0.92790 0.03900
C 	C 	0.70890 0.77050 0.41800 0.10300
C 	C 	0.73210 0.65930 0.48830 0.05600
C 	C 	0.65410 0.79820 0.39590 -0.12900
C 	C 	0.79520 0.83430 0.39180 -0.02200
C 	C 	0.81700 0.71870 0.46520 -0.09000
C 	C 	0.68370 0.88650 0.34890 0.02800
C 	C 	0.82190 0.92460 0.34290 -0.01900
C 	C 	0.84770 0.80590 0.41590 -0.01200
C 	C 	0.76800 0.94960 0.32290 -0.07300
C 	C 	0.61060 0.44570 0.45650 0.36300
C 	C 	0.68180 0.42100 0.43090 -0.12400
C 	C 	0.68070 0.37360 0.38740 0.05700
C 	C 	0.45860 0.41350 0.65920 0.34800
C 	C 	0.43150 0.36180 0.75420 -0.12000
C 	C 	0.38240 0.27010 0.80200 0.03900
C 	C 	0.93840 0.81150 0.77050 0.10000
C 	C 	0.07280 0.85240 0.65930 0.05600
C 	C 	0.85590 0.80590 0.79820 -0.12500
C 	C 	0.96090 0.77390 0.83430 -0.01700
C 	C 	0.09830 0.81610 0.71870 -0.08800
C 	C 	0.79720 0.76460 0.88650 0.02200
C 	C 	0.89730 0.73250 0.92460 -0.02500
C 	C 	0.04180 0.77820 0.80590 -0.01500
C 	C 	0.81840 0.72750 0.94960 -0.06400
C 	C 	0.16490 0.09780 0.44570 0.36300
C 	C 	0.26080 0.14810 0.42100 -0.12400
C 	C 	0.30710 0.23900 0.37360 0.05700
C 	C 	0.04510 0.92730 0.41350 0.34800
C 	C 	0.06970 0.88400 0.36180 -0.11900
C 	C 	0.11230 0.92790 0.27010 0.03900
C 	C 	0.43840 0.22950 0.18850 0.10300
C 	C 	0.57280 0.34070 0.14760 0.05600
C 	C 	0.35590 0.20180 0.19410 -0.12900
C 	C 	0.46090 0.16570 0.22610 -0.02200
C 	C 	0.59830 0.28130 0.18390 -0.09000
C 	C 	0.29720 0.11350 0.23540 0.02900
C 	C 	0.39730 0.07540 0.26750 -0.01800
C 	C 	0.54180 0.19410 0.22180 -0.01100
C 	C 	0.31840 0.05040 0.27250 -0.07500
C 	C 	0.66490 0.55430 0.90220 0.36300
C 	C 	0.76080 0.57900 0.85190 -0.12300
C 	C 	0.80710 0.62640 0.76100 0.05600
C 	C 	0.54510 0.58650 0.07270 0.34700
C 	C 	0.56970 0.63820 0.11600 -0.12000
C 	C 	0.61230 0.72990 0.07210 0.03900
C 	C 	0.62690 0.18850 0.58200 0.10200
C 	C 	0.72040 0.14760 0.51170 0.05600
C 	C 	0.55000 0.19410 0.60410 -0.12700
C 	C 	0.68700 0.22610 0.60820 -0.02000
C 	C 	0.78220 0.18390 0.53480 -0.08900
C 	C 	0.53260 0.23540 0.65110 0.02500
C 	C 	0.66480 0.26750 0.65710 -0.02200
C 	C 	0.76360 0.22180 0.58410 -0.01300
C 	C 	0.59090 0.27250 0.67710 -0.06900
C 	C 	0.56710 0.90220 0.54350 0.36300
C 	C 	0.61270 0.85190 0.56910 -0.12400
C 	C 	0.56810 0.76100 0.61260 0.05700
C 	C 	0.61780 0.07270 0.34080 0.34800
C 	C 	0.68570 0.11600 0.24580 -0.12000
C 	C 	0.68440 0.07210 0.19800 0.03900
C 	C 	0.20890 0.58200 0.22950 0.10000
C 	C 	0.23210 0.51170 0.34070 0.05500
C 	C 	0.15410 0.60410 0.20180 -0.12400
C 	C 	0.29520 0.60820 0.16570 -0.01700
C 	C 	0.31700 0.53480 0.28130 -0.08800
C 	C 	0.18370 0.65110 0.11350 0.02100
C 	C 	0.32190 0.65710 0.07540 -0.02600
C 	C 	0.34770 0.58410 0.19410 -0.01500
C 	C 	0.26800 0.67710 0.05040 -0.06300
C 	C 	0.11060 0.54350 0.55430 0.36300
C 	C 	0.18180 0.56910 0.57900 -0.12400
C 	C 	0.18070 0.61260 0.62640 0.05700
C 	C 	0.95860 0.34080 0.58650 0.34800
C 	C 	0.93150 0.24580 0.63820 -0.12000
C 	C 	0.88240 0.19800 0.72990 0.03900
C 	C 	0.87310 0.58200 0.18850 0.09900
C 	C 	0.77960 0.51170 0.14760 0.05500
C 	C 	0.95000 0.60410 0.19410 -0.12200
C 	C 	0.81300 0.60820 0.22610 -0.01700
C 	C 	0.71780 0.53480 0.18390 -0.08800
C 	C 	0.96740 0.65110 0.23540 0.01700
C 	C 	0.83520 0.65710 0.26750 -0.02600
C 	C 	0.73640 0.58410 0.22180 -0.01500
C 	C 	0.90910 0.67710 0.27250 -0.06400
C 	C 	0.93290 0.54350 0.90220 0.36200
C 	C 	0.88730 0.56910 0.85190 -0.12300
C 	C 	0.93190 0.61260 0.76100 0.05600
C 	C 	0.88220 0.34080 0.07270 0.34800
C 	C 	0.81430 0.24580 0.11600 -0.12000
C 	C 	0.81560 0.19800 0.07210 0.03900
C 	C 	0.29110 0.22950 0.58200 0.10300
C 	C 	0.26790 0.34070 0.51170 0.05600
C 	C 	0.34590 0.20180 0.60410 -0.12900
C 	C 	0.20480 0.16570 0.60820 -0.02200
C 	C 	0.18300 0.28130 0.53480 -0.09000
C 	C 	0.31630 0.11350 0.65110 0.02800
C 	C 	0.17810 0.07540 0.65710 -0.01900
C 	C 	0.15230 0.19410 0.58410 -0.01200
C 	C 	0.23200 0.05040 0.67710 -0.07300
C 	C 	0.38940 0.55430 0.54350 0.36300
C 	C 	0.31820 0.57900 0.56910 -0.12400
C 	C 	0.31930 0.62640 0.61260 0.05700
C 	C 	0.54140 0.58650 0.34080 0.34800
C 	C 	0.56850 0.63820 0.24580 -0.12000
C 	C 	0.61760 0.72990 0.19800 0.03900
C 	C 	0.06160 0.18850 0.22950 0.10000
C 	C 	0.92720 0.14760 0.34070 0.05600
C 	C 	0.14410 0.19410 0.20180 -0.12500
C 	C 	0.03910 0.22610 0.16570 -0.01700
C 	C 	0.90170 0.18390 0.28130 -0.08800
C 	C 	0.20280 0.23540 0.11350 0.02200
C 	C 	0.10270 0.26750 0.07540 -0.02500
C 	C 	0.95820 0.22180 0.19410 -0.01500
C 	C 	0.18160 0.27250 0.05040 -0.06400
C 	C 	0.83510 0.90220 0.55430 0.36300
C 	C 	0.73920 0.85190 0.57900 -0.12400
C 	C 	0.69290 0.76100 0.62640 0.05700
C 	C 	0.95490 0.07270 0.58650 0.34800
C 	C 	0.93030 0.11600 0.63820 -0.11900
C 	C 	0.88770 0.07210 0.72990 0.03900
C 	C 	0.19750 0.44750 0.10500 0.07300
C 	C 	0.10840 0.35840 0.28320 -0.11200
C 	C 	0.30250 0.10500 0.44750 0.07400
C 	C 	0.39160 0.28320 0.35840 -0.11300
C 	C 	0.75000 0.44750 0.44750 0.07400
C 	C 	0.75000 0.35840 0.35840 -0.11300
C 	C 	0.80250 0.55250 0.89500 0.07300
C 	C 	0.89160 0.64160 0.71680 -0.11200
C 	C 	0.69750 0.89500 0.55250 0.07400
C 	C 	0.60840 0.71680 0.64160 -0.11300
C 	C 	0.25000 0.55250 0.55250 0.07400
C 	C 	0.25000 0.64160 0.64160 -0.11300
C 	C 	0.45275 0.40550 0.79725 0.05100
C 	C 	0.36185 0.22370 0.88815 -0.10700
C 	C 	0.25000 0.79725 0.79725 0.05200
C 	C 	0.25000 0.88815 0.88815 -0.10800
C 	C 	0.04725 0.79725 0.40550 0.05200
C 	C 	0.13815 0.88815 0.22370 -0.10700
C 	C 	0.54725 0.59450 0.20275 0.05100
C 	C 	0.63815 0.77630 0.11185 -0.10700
C 	C 	0.75000 0.20275 0.20275 0.05200
C 	C 	0.75000 0.11185 0.11185 -0.10800
C 	C 	0.95275 0.20275 0.59450 0.05200
C 	C 	0.86185 0.11185 0.77630 -0.10700
N 	N 	0.50280 0.68120 0.85240 -0.18900
N 	N 	0.35520 0.85240 0.46640 -0.18900
N 	N 	0.82160 0.46640 0.68120 -0.18800
N 	N 	0.14480 0.46640 0.85240 -0.18800
N 	N 	0.67840 0.68120 0.46640 -0.18900
N 	N 	0.99720 0.85240 0.68120 -0.18900
N 	N 	0.49720 0.31880 0.14760 -0.18900
N 	N 	0.64480 0.14760 0.53360 -0.18900
N 	N 	0.17840 0.53360 0.31880 -0.18800
N 	N 	0.85520 0.53360 0.14760 -0.18800
N 	N 	0.32160 0.31880 0.53360 -0.18900
N 	N 	0.00280 0.14760 0.31880 -0.18900
O 	O 	0.38270 0.51420 0.02320 -0.40200
O 	O 	0.47620 0.49380 0.88880 -0.39900
O 	O 	0.45300 0.37310 0.99910 -0.40200
O 	O 	0.36390 0.39910 0.13250 -0.39700
O 	O 	0.40590 0.02320 0.46260 -0.40200
O 	O 	0.36500 0.88880 0.61740 -0.39900
O 	O 	0.45210 0.99910 0.62780 -0.40200
O 	O 	0.49640 0.13250 0.46840 -0.39700
O 	O 	0.86850 0.46260 0.51420 -0.40200
O 	O 	0.98240 0.61740 0.49380 -0.40000
O 	O 	0.07990 0.62780 0.37310 -0.40200
O 	O 	0.96480 0.46840 0.39910 -0.39700
O 	O 	0.09410 0.46260 0.02320 -0.40100
O 	O 	0.13500 0.61740 0.88880 -0.40000
O 	O 	0.04790 0.62780 0.99910 -0.40300
O 	O 	0.00360 0.46840 0.13250 -0.39500
O 	O 	0.63150 0.51420 0.46260 -0.40200
O 	O 	0.51760 0.49380 0.61740 -0.39900
O 	O 	0.42010 0.37310 0.62780 -0.40200
O 	O 	0.53520 0.39910 0.46840 -0.39700
O 	O 	0.11730 0.02320 0.51420 -0.40300
O 	O 	0.02380 0.88880 0.49380 -0.39800
O 	O 	0.04700 0.99910 0.37310 -0.40000
O 	O 	0.13610 0.13250 0.39910 -0.39700
O 	O 	0.61730 0.48580 0.97680 -0.40200
O 	O 	0.52380 0.50620 0.11120 -0.39900
O 	O 	0.54700 0.62690 0.00090 -0.40200
O 	O 	0.63610 0.60090 0.86750 -0.39700
O 	O 	0.59410 0.97680 0.53740 -0.40200
O 	O 	0.63500 0.11120 0.38260 -0.39900
O 	O 	0.54790 0.00090 0.37220 -0.40200
O 	O 	0.50360 0.86750 0.53160 -0.39700
O 	O 	0.13150 0.53740 0.48580 -0.40200
O 	O 	0.01760 0.38260 0.50620 -0.40000
O 	O 	0.92010 0.37220 0.62690 -0.40200
O 	O 	0.03520 0.53160 0.60090 -0.39700
O 	O 	0.90590 0.53740 0.97680 -0.40100
O 	O 	0.86500 0.38260 0.11120 -0.40000
O 	O 	0.95210 0.37220 0.00090 -0.40300
O 	O 	0.99640 0.53160 0.86750 -0.39500
O 	O 	0.36850 0.48580 0.53740 -0.40200
O 	O 	0.48240 0.50620 0.38260 -0.39900
O 	O 	0.57990 0.62690 0.37220 -0.40200
O 	O 	0.46480 0.60090 0.53160 -0.39700
O 	O 	0.88270 0.97680 0.48580 -0.40300
O 	O 	0.97620 0.11120 0.50620 -0.39800
O 	O 	0.95300 0.00090 0.62690 -0.40000
O 	O 	0.86390 0.86750 0.60090 -0.39700
