data_crystal

_cell_length_a 13.06780
_cell_length_b 13.06780
_cell_length_c 25.91400
_cell_angle_alpha 90.00000
_cell_angle_beta  90.00000
_cell_angle_gamma 90.00000

_symmetry_space_group_name_	'P 1'
_symmetry_space_group_name_H-M	'P 1'

loop_
_symmetry_equiv_pos_as_xyz
  x,y,z

loop_
_atom_site_label
_atom_site_type_symbol
_atom_site_fract_x
_atom_site_fract_y
_atom_site_fract_z
_atom_site_charge
Co	Co	0.75000 0.75000 0.38130 1.15000
Co	Co	0.25000 0.25000 0.88130 1.15000
H 	H 	0.76110 0.88530 0.48000 0.02600
H 	H 	0.86970 0.92500 0.55010 0.08300
H 	H 	0.09350 0.76570 0.47620 0.08400
H 	H 	0.97280 0.72650 0.41220 0.02500
H 	H 	0.29440 0.86420 0.58070 0.10900
H 	H 	0.21000 0.90040 0.61860 0.10900
H 	H 	0.35930 0.70810 0.68320 0.09500
H 	H 	0.40070 0.78580 0.64300 0.09400
H 	H 	0.21400 0.98200 0.73560 0.07800
H 	H 	0.16770 0.11920 0.78780 0.03000
H 	H 	0.43890 0.11810 0.85410 0.03700
H 	H 	0.49050 0.98290 0.80440 0.08900
H 	H 	0.73890 0.61470 0.48000 0.02600
H 	H 	0.63030 0.57500 0.55010 0.08300
H 	H 	0.40650 0.73430 0.47620 0.08300
H 	H 	0.52720 0.77350 0.41220 0.02500
H 	H 	0.20560 0.63580 0.58070 0.10900
H 	H 	0.29000 0.59960 0.61860 0.10900
H 	H 	0.14070 0.79190 0.68320 0.09500
H 	H 	0.09930 0.71420 0.64300 0.09400
H 	H 	0.28600 0.51800 0.73560 0.07900
H 	H 	0.33230 0.38080 0.78780 0.03000
H 	H 	0.06110 0.38190 0.85410 0.03600
H 	H 	0.00950 0.51710 0.80440 0.09000
H 	H 	0.11470 0.26110 0.98000 0.02600
H 	H 	0.07500 0.36970 0.05010 0.08300
H 	H 	0.23430 0.59350 0.97620 0.08300
H 	H 	0.27350 0.47280 0.91220 0.02500
H 	H 	0.13580 0.79440 0.08070 0.10900
H 	H 	0.09960 0.71000 0.11860 0.10900
H 	H 	0.29190 0.85930 0.18320 0.09500
H 	H 	0.21420 0.90070 0.14300 0.09400
H 	H 	0.01800 0.71400 0.23560 0.07800
H 	H 	0.88080 0.66770 0.28780 0.03000
H 	H 	0.88190 0.93890 0.35410 0.03700
H 	H 	0.01710 0.99050 0.30440 0.08700
H 	H 	0.38530 0.23890 0.98000 0.02600
H 	H 	0.42500 0.13030 0.05010 0.08300
H 	H 	0.26570 0.90650 0.97620 0.08400
H 	H 	0.22650 0.02720 0.91220 0.02500
H 	H 	0.36420 0.70560 0.08070 0.10900
H 	H 	0.40040 0.79000 0.11860 0.10900
H 	H 	0.20810 0.64070 0.18320 0.09500
H 	H 	0.28580 0.59930 0.14300 0.09400
H 	H 	0.48200 0.78600 0.23560 0.07900
H 	H 	0.61920 0.83230 0.28780 0.03000
H 	H 	0.61810 0.56110 0.35410 0.03600
H 	H 	0.48290 0.50950 0.30440 0.09000
C 	C 	0.82900 0.85900 0.48020 0.06100
C 	C 	0.89300 0.88500 0.52210 -0.07900
C 	C 	0.99400 0.84700 0.51990 0.00600
C 	C 	0.02500 0.79000 0.47890 -0.07900
C 	C 	0.95200 0.76800 0.44050 0.06500
C 	C 	0.06300 0.86900 0.56510 0.26000
C 	C 	0.23200 0.84600 0.59720 -0.09500
C 	C 	0.34400 0.76800 0.66380 -0.07500
C 	C 	0.39000 0.88500 0.73090 0.25600
C 	C 	0.35900 0.96900 0.76350 -0.00600
C 	C 	0.26200 0.01000 0.75950 -0.06500
C 	C 	0.23500 0.09100 0.79100 0.04800
C 	C 	0.39200 0.09100 0.82960 0.04400
C 	C 	0.42400 0.01000 0.80000 -0.06900
C 	C 	0.67100 0.64100 0.48020 0.06000
C 	C 	0.60700 0.61500 0.52210 -0.07800
C 	C 	0.50600 0.65300 0.51990 0.00400
C 	C 	0.47500 0.71000 0.47890 -0.07700
C 	C 	0.54800 0.73200 0.44050 0.06400
C 	C 	0.43700 0.63100 0.56510 0.26100
C 	C 	0.26800 0.65400 0.59720 -0.09500
C 	C 	0.15600 0.73200 0.66380 -0.07500
C 	C 	0.11000 0.61500 0.73090 0.25400
C 	C 	0.14100 0.53100 0.76350 -0.00300
C 	C 	0.23800 0.49000 0.75950 -0.06800
C 	C 	0.26500 0.40900 0.79100 0.05000
C 	C 	0.10800 0.40900 0.82960 0.04500
C 	C 	0.07600 0.49000 0.80000 -0.07200
C 	C 	0.14100 0.32900 0.98020 0.06100
C 	C 	0.11500 0.39300 0.02210 -0.07800
C 	C 	0.15300 0.49400 0.01990 0.00400
C 	C 	0.21000 0.52500 0.97890 -0.07700
C 	C 	0.23200 0.45200 0.94050 0.06400
C 	C 	0.13100 0.56300 0.06510 0.26100
C 	C 	0.15400 0.73200 0.09720 -0.09400
C 	C 	0.23200 0.84400 0.16380 -0.07500
C 	C 	0.11500 0.89000 0.23090 0.25600
C 	C 	0.03100 0.85900 0.26350 -0.00700
C 	C 	0.99000 0.76200 0.25950 -0.06400
C 	C 	0.90900 0.73500 0.29100 0.04700
C 	C 	0.90900 0.89200 0.32960 0.04200
C 	C 	0.99000 0.92400 0.30000 -0.06700
C 	C 	0.35900 0.17100 0.98020 0.06100
C 	C 	0.38500 0.10700 0.02210 -0.07900
C 	C 	0.34700 0.00600 0.01990 0.00500
C 	C 	0.29000 0.97500 0.97890 -0.07800
C 	C 	0.26800 0.04800 0.94050 0.06500
C 	C 	0.36900 0.93700 0.06510 0.26100
C 	C 	0.34600 0.76800 0.09720 -0.09500
C 	C 	0.26800 0.65600 0.16380 -0.07600
C 	C 	0.38500 0.61000 0.23090 0.25400
C 	C 	0.46900 0.64100 0.26350 -0.00300
C 	C 	0.51000 0.73800 0.25950 -0.06800
C 	C 	0.59100 0.76500 0.29100 0.05000
C 	C 	0.59100 0.60800 0.32960 0.04500
C 	C 	0.51000 0.57600 0.30000 -0.07200
C 	C 	0.25000 0.75000 0.63060 0.10900
C 	C 	0.25000 0.75000 0.13060 0.10900
N 	N 	0.85700 0.80000 0.44100 -0.21400
N 	N 	0.29800 0.13300 0.82560 -0.21000
N 	N 	0.64300 0.70000 0.44100 -0.21400
N 	N 	0.20200 0.36700 0.82560 -0.21000
N 	N 	0.20000 0.35700 0.94100 -0.21400
N 	N 	0.86700 0.79800 0.32560 -0.21000
N 	N 	0.30000 0.14300 0.94100 -0.21400
N 	N 	0.63300 0.70200 0.32560 -0.21000
Cl	Cl	0.67220 0.91760 0.38100 -0.47000
Cl	Cl	0.82780 0.58240 0.38100 -0.47100
Cl	Cl	0.08240 0.17220 0.88100 -0.47000
Cl	Cl	0.41760 0.32780 0.88100 -0.47100
O 	O 	0.03700 0.92000 0.60110 -0.24400
O 	O 	0.15410 0.82550 0.55790 -0.21000
O 	O 	0.31710 0.85090 0.69770 -0.20000
O 	O 	0.47400 0.84500 0.73230 -0.21000
O 	O 	0.46300 0.58000 0.60110 -0.24400
O 	O 	0.34590 0.67450 0.55790 -0.21000
O 	O 	0.18290 0.64910 0.69770 -0.20000
O 	O 	0.02600 0.65500 0.73230 -0.21000
O 	O 	0.08000 0.53700 0.10110 -0.24400
O 	O 	0.17450 0.65410 0.05790 -0.21000
O 	O 	0.14910 0.81710 0.19770 -0.20100
O 	O 	0.15500 0.97400 0.23230 -0.21100
O 	O 	0.42000 0.96300 0.10110 -0.24400
O 	O 	0.32550 0.84590 0.05790 -0.21000
O 	O 	0.35090 0.68290 0.19770 -0.20000
O 	O 	0.34500 0.52600 0.23230 -0.21000
Co	Co	0.25000 0.25000 0.61870 1.14900
Co	Co	0.75000 0.75000 0.11870 1.14900
H 	H 	0.23890 0.11470 0.52000 0.02600
H 	H 	0.13030 0.07500 0.44990 0.08300
H 	H 	0.90650 0.23430 0.52380 0.08400
H 	H 	0.02720 0.27350 0.58780 0.02500
H 	H 	0.70560 0.13580 0.41930 0.10900
H 	H 	0.79000 0.09960 0.38140 0.10900
H 	H 	0.64070 0.29190 0.31680 0.09500
H 	H 	0.59930 0.21420 0.35700 0.09400
H 	H 	0.78600 0.01800 0.26440 0.07800
H 	H 	0.83230 0.88080 0.21220 0.03000
H 	H 	0.56110 0.88190 0.14590 0.03700
H 	H 	0.50950 0.01710 0.19560 0.08900
H 	H 	0.26110 0.38530 0.52000 0.02600
H 	H 	0.36970 0.42500 0.44990 0.08300
H 	H 	0.59350 0.26570 0.52380 0.08300
H 	H 	0.47280 0.22650 0.58780 0.02500
H 	H 	0.79440 0.36420 0.41930 0.10900
H 	H 	0.71000 0.40040 0.38140 0.10900
H 	H 	0.85930 0.20810 0.31680 0.09500
H 	H 	0.90070 0.28580 0.35700 0.09400
H 	H 	0.71400 0.48200 0.26440 0.07900
H 	H 	0.66770 0.61920 0.21220 0.03000
H 	H 	0.93890 0.61810 0.14590 0.03600
H 	H 	0.99050 0.48290 0.19560 0.09000
H 	H 	0.88530 0.73890 0.02000 0.02600
H 	H 	0.92500 0.63030 0.94990 0.08300
H 	H 	0.76570 0.40650 0.02380 0.08300
H 	H 	0.72650 0.52720 0.08780 0.02500
H 	H 	0.86420 0.20560 0.91930 0.10900
H 	H 	0.90040 0.29000 0.88140 0.10900
H 	H 	0.70810 0.14070 0.81680 0.09500
H 	H 	0.78580 0.09930 0.85700 0.09400
H 	H 	0.98200 0.28600 0.76440 0.07800
H 	H 	0.11920 0.33230 0.71220 0.03000
H 	H 	0.11810 0.06110 0.64590 0.03700
H 	H 	0.98290 0.00950 0.69560 0.08700
H 	H 	0.61470 0.76110 0.02000 0.02600
H 	H 	0.57500 0.86970 0.94990 0.08300
H 	H 	0.73430 0.09350 0.02380 0.08400
H 	H 	0.77350 0.97280 0.08780 0.02500
H 	H 	0.63580 0.29440 0.91930 0.10900
H 	H 	0.59960 0.21000 0.88140 0.10900
H 	H 	0.79190 0.35930 0.81680 0.09500
H 	H 	0.71420 0.40070 0.85700 0.09400
H 	H 	0.51800 0.21400 0.76440 0.07900
H 	H 	0.38080 0.16770 0.71220 0.03000
H 	H 	0.38190 0.43890 0.64590 0.03600
H 	H 	0.51710 0.49050 0.69560 0.09000
C 	C 	0.17100 0.14100 0.51980 0.06100
C 	C 	0.10700 0.11500 0.47790 -0.07900
C 	C 	0.00600 0.15300 0.48010 0.00600
C 	C 	0.97500 0.21000 0.52110 -0.07900
C 	C 	0.04800 0.23200 0.55950 0.06500
C 	C 	0.93700 0.13100 0.43490 0.26000
C 	C 	0.76800 0.15400 0.40280 -0.09500
C 	C 	0.65600 0.23200 0.33620 -0.07500
C 	C 	0.61000 0.11500 0.26910 0.25600
C 	C 	0.64100 0.03100 0.23650 -0.00600
C 	C 	0.73800 0.99000 0.24050 -0.06500
C 	C 	0.76500 0.90900 0.20900 0.04800
C 	C 	0.60800 0.90900 0.17040 0.04400
C 	C 	0.57600 0.99000 0.20000 -0.06900
C 	C 	0.32900 0.35900 0.51980 0.06000
C 	C 	0.39300 0.38500 0.47790 -0.07800
C 	C 	0.49400 0.34700 0.48010 0.00400
C 	C 	0.52500 0.29000 0.52110 -0.07700
C 	C 	0.45200 0.26800 0.55950 0.06400
C 	C 	0.56300 0.36900 0.43490 0.26100
C 	C 	0.73200 0.34600 0.40280 -0.09500
C 	C 	0.84400 0.26800 0.33620 -0.07500
C 	C 	0.89000 0.38500 0.26910 0.25400
C 	C 	0.85900 0.46900 0.23650 -0.00300
C 	C 	0.76200 0.51000 0.24050 -0.06800
C 	C 	0.73500 0.59100 0.20900 0.05000
C 	C 	0.89200 0.59100 0.17040 0.04500
C 	C 	0.92400 0.51000 0.20000 -0.07200
C 	C 	0.85900 0.67100 0.01980 0.06100
C 	C 	0.88500 0.60700 0.97790 -0.07800
C 	C 	0.84700 0.50600 0.98010 0.00400
C 	C 	0.79000 0.47500 0.02110 -0.07700
C 	C 	0.76800 0.54800 0.05950 0.06400
C 	C 	0.86900 0.43700 0.93490 0.26100
C 	C 	0.84600 0.26800 0.90280 -0.09400
C 	C 	0.76800 0.15600 0.83620 -0.07500
C 	C 	0.88500 0.11000 0.76910 0.25600
C 	C 	0.96900 0.14100 0.73650 -0.00700
C 	C 	0.01000 0.23800 0.74050 -0.06400
C 	C 	0.09100 0.26500 0.70900 0.04700
C 	C 	0.09100 0.10800 0.67040 0.04200
C 	C 	0.01000 0.07600 0.70000 -0.06700
C 	C 	0.64100 0.82900 0.01980 0.06100
C 	C 	0.61500 0.89300 0.97790 -0.07900
C 	C 	0.65300 0.99400 0.98010 0.00500
C 	C 	0.71000 0.02500 0.02110 -0.07800
C 	C 	0.73200 0.95200 0.05950 0.06500
C 	C 	0.63100 0.06300 0.93490 0.26100
C 	C 	0.65400 0.23200 0.90280 -0.09500
C 	C 	0.73200 0.34400 0.83620 -0.07600
C 	C 	0.61500 0.39000 0.76910 0.25400
C 	C 	0.53100 0.35900 0.73650 -0.00300
C 	C 	0.49000 0.26200 0.74050 -0.06800
C 	C 	0.40900 0.23500 0.70900 0.05000
C 	C 	0.40900 0.39200 0.67040 0.04500
C 	C 	0.49000 0.42400 0.70000 -0.07200
C 	C 	0.75000 0.25000 0.36940 0.10900
C 	C 	0.75000 0.25000 0.86940 0.10900
N 	N 	0.14300 0.20000 0.55900 -0.21400
N 	N 	0.70200 0.86700 0.17440 -0.21000
N 	N 	0.35700 0.30000 0.55900 -0.21400
N 	N 	0.79800 0.63300 0.17440 -0.21000
N 	N 	0.80000 0.64300 0.05900 -0.21400
N 	N 	0.13300 0.20200 0.67440 -0.21000
N 	N 	0.70000 0.85700 0.05900 -0.21400
N 	N 	0.36700 0.29800 0.67440 -0.21000
Cl	Cl	0.32780 0.08240 0.61900 -0.47000
Cl	Cl	0.17220 0.41760 0.61900 -0.47100
Cl	Cl	0.91760 0.82780 0.11900 -0.47000
Cl	Cl	0.58240 0.67220 0.11900 -0.47100
O 	O 	0.96300 0.08000 0.39890 -0.24400
O 	O 	0.84590 0.17450 0.44210 -0.21000
O 	O 	0.68290 0.14910 0.30230 -0.20000
O 	O 	0.52600 0.15500 0.26770 -0.21000
O 	O 	0.53700 0.42000 0.39890 -0.24400
O 	O 	0.65410 0.32550 0.44210 -0.21000
O 	O 	0.81710 0.35090 0.30230 -0.20000
O 	O 	0.97400 0.34500 0.26770 -0.21000
O 	O 	0.92000 0.46300 0.89890 -0.24400
O 	O 	0.82550 0.34590 0.94210 -0.21000
O 	O 	0.85090 0.18290 0.80230 -0.20100
O 	O 	0.84500 0.02600 0.76770 -0.21100
O 	O 	0.58000 0.03700 0.89890 -0.24400
O 	O 	0.67450 0.15410 0.94210 -0.21000
O 	O 	0.64910 0.31710 0.80230 -0.20000
O 	O 	0.65500 0.47400 0.76770 -0.21000
