data_crystal

_cell_length_a 8.47590
_cell_length_b 25.28500
_cell_length_c 17.76500
_cell_angle_alpha 90.00000
_cell_angle_beta  90.00000
_cell_angle_gamma 90.00000

_symmetry_space_group_name_	'P 1'
_symmetry_space_group_name_H-M	'P 1'

loop_
_symmetry_equiv_pos_as_xyz
  x,y,z

loop_
_atom_site_label
_atom_site_type_symbol
_atom_site_fract_x
_atom_site_fract_y
_atom_site_fract_z
_atom_site_charge
Er	Er	0.16669 0.02325 0.28237 1.94300
Er	Er	0.66669 0.97675 0.21763 1.94300
Er	Er	0.66669 0.52325 0.71763 1.94300
Er	Er	0.16669 0.47675 0.78237 1.94300
Ag	Ag	0.46143 0.72767 0.45213 0.51100
Ag	Ag	0.96143 0.27233 0.04787 0.51000
Ag	Ag	0.96143 0.22767 0.54787 0.51000
Ag	Ag	0.46143 0.77233 0.95213 0.51100
H 	H 	0.68570 0.79820 0.34090 0.03900
H 	H 	0.56030 0.09660 0.64230 0.14700
H 	H 	0.74400 0.16370 0.67210 -0.01300
H 	H 	0.89960 0.14060 0.41710 0.04000
H 	H 	0.46600 0.04510 0.50840 0.07800
H 	H 	0.72290 0.86950 0.60660 0.16100
H 	H 	0.88650 0.93270 0.49660 0.07700
H 	H 	0.55910 0.79440 0.60140 -0.00600
H 	H 	0.18570 0.20180 0.15910 0.03900
H 	H 	0.06030 0.90340 0.85770 0.14600
H 	H 	0.24400 0.83630 0.82790 -0.01300
H 	H 	0.39960 0.85940 0.08290 0.04000
H 	H 	0.96600 0.95490 0.99160 0.07800
H 	H 	0.22290 0.13050 0.89340 0.16100
H 	H 	0.38650 0.06730 0.00340 0.07700
H 	H 	0.05910 0.20560 0.89860 -0.00600
H 	H 	0.18570 0.29820 0.65910 0.03900
H 	H 	0.06030 0.59660 0.35770 0.14600
H 	H 	0.24400 0.66370 0.32790 -0.01300
H 	H 	0.39960 0.64060 0.58290 0.04000
H 	H 	0.96600 0.54510 0.49160 0.07900
H 	H 	0.22290 0.36950 0.39340 0.16100
H 	H 	0.38650 0.43270 0.50340 0.07700
H 	H 	0.05910 0.29440 0.39860 -0.00600
H 	H 	0.68570 0.70180 0.84090 0.03900
H 	H 	0.56030 0.40340 0.14230 0.14700
H 	H 	0.74400 0.33630 0.17210 -0.01300
H 	H 	0.89960 0.35940 0.91710 0.04000
H 	H 	0.46600 0.45490 0.00840 0.07800
H 	H 	0.72290 0.63050 0.10660 0.16100
H 	H 	0.88650 0.56730 0.99660 0.07700
H 	H 	0.55910 0.70560 0.10140 -0.00600
C 	C 	0.95360 0.95330 0.35390 0.34800
C 	C 	0.86630 0.90770 0.38800 -0.04400
C 	C 	0.80880 0.86630 0.34080 -0.08300
C 	C 	0.72270 0.82550 0.37130 -0.07300
C 	C 	0.84140 0.86390 0.25700 0.37400
C 	C 	0.51040 0.01760 0.37060 0.42500
C 	C 	0.81140 0.07330 0.31440 0.42200
C 	C 	0.74120 0.08360 0.38950 -0.08200
C 	C 	0.73100 0.14820 0.62510 0.11600
C 	C 	0.81510 0.12080 0.43510 -0.04100
C 	C 	0.60460 0.05600 0.41620 -0.05700
C 	C 	0.63770 0.09670 0.53580 0.10500
C 	C 	0.55410 0.06292 0.49030 -0.08000
C 	C 	0.84410 0.90680 0.46540 -0.09100
C 	C 	0.69170 0.82560 0.44830 0.01500
C 	C 	0.75980 0.12782 0.50810 0.01700
C 	C 	0.75480 0.86510 0.49410 0.06900
C 	C 	0.61000 0.80980 0.56060 0.12200
C 	C 	0.45360 0.04670 0.14610 0.34800
C 	C 	0.36630 0.09230 0.11200 -0.04400
C 	C 	0.30880 0.13370 0.15920 -0.08300
C 	C 	0.22270 0.17450 0.12870 -0.07300
C 	C 	0.34140 0.13610 0.24300 0.37400
C 	C 	0.01040 0.98240 0.12940 0.42700
C 	C 	0.31140 0.92670 0.18560 0.42200
C 	C 	0.24120 0.91640 0.11050 -0.08100
C 	C 	0.23100 0.85180 0.87490 0.11600
C 	C 	0.31510 0.87920 0.06490 -0.04100
C 	C 	0.10460 0.94400 0.08380 -0.05700
C 	C 	0.13770 0.90330 0.96420 0.10400
C 	C 	0.05410 0.93708 0.00970 -0.08000
C 	C 	0.34410 0.09320 0.03460 -0.09200
C 	C 	0.19170 0.17440 0.05170 0.01500
C 	C 	0.25980 0.87218 0.99190 0.01700
C 	C 	0.25480 0.13490 0.00590 0.06900
C 	C 	0.11000 0.19020 0.93940 0.12100
C 	C 	0.45360 0.45330 0.64610 0.34800
C 	C 	0.36630 0.40770 0.61200 -0.04400
C 	C 	0.30880 0.36630 0.65920 -0.08300
C 	C 	0.22270 0.32550 0.62870 -0.07300
C 	C 	0.34140 0.36390 0.74300 0.37400
C 	C 	0.01040 0.51760 0.62940 0.42400
C 	C 	0.31140 0.57330 0.68560 0.42200
C 	C 	0.24120 0.58360 0.61050 -0.08200
C 	C 	0.23100 0.64820 0.37490 0.11600
C 	C 	0.31510 0.62080 0.56490 -0.04100
C 	C 	0.10460 0.55600 0.58380 -0.05600
C 	C 	0.13770 0.59670 0.46420 0.10500
C 	C 	0.05410 0.56292 0.50970 -0.08200
C 	C 	0.34410 0.40680 0.53460 -0.09100
C 	C 	0.19170 0.32560 0.55170 0.01500
C 	C 	0.25980 0.62782 0.49190 0.01700
C 	C 	0.25480 0.36510 0.50590 0.06900
C 	C 	0.11000 0.30980 0.43940 0.12200
C 	C 	0.95360 0.54670 0.85390 0.35000
C 	C 	0.86630 0.59230 0.88800 -0.04400
C 	C 	0.80880 0.63370 0.84080 -0.08200
C 	C 	0.72270 0.67450 0.87130 -0.07300
C 	C 	0.84140 0.63610 0.75700 0.37400
C 	C 	0.51040 0.48240 0.87060 0.42500
C 	C 	0.81140 0.42670 0.81440 0.42200
C 	C 	0.74120 0.41640 0.88950 -0.08200
C 	C 	0.73100 0.35180 0.12510 0.11600
C 	C 	0.81510 0.37920 0.93510 -0.04000
C 	C 	0.60460 0.44400 0.91620 -0.05700
C 	C 	0.63770 0.40330 0.03580 0.10500
C 	C 	0.55410 0.43708 0.99030 -0.08100
C 	C 	0.84410 0.59320 0.96540 -0.09100
C 	C 	0.69170 0.67440 0.94830 0.01500
C 	C 	0.75980 0.37218 0.00810 0.01600
C 	C 	0.75480 0.63490 0.99410 0.06900
C 	C 	0.61000 0.69020 0.06060 0.12200
N 	N 	0.62500 0.11018 0.61040 -0.22400
N 	N 	0.70110 0.85262 0.56590 -0.22600
N 	N 	0.59980 0.79167 0.49100 -0.20500
N 	N 	0.81460 0.16127 0.56520 -0.20600
N 	N 	0.12500 0.88982 0.88960 -0.22400
N 	N 	0.20110 0.14738 0.93410 -0.22600
N 	N 	0.09980 0.20833 0.00900 -0.20400
N 	N 	0.31460 0.83873 0.93480 -0.20600
N 	N 	0.12500 0.61018 0.38960 -0.22400
N 	N 	0.20110 0.35262 0.43410 -0.22600
N 	N 	0.09980 0.29167 0.50900 -0.20500
N 	N 	0.31460 0.66127 0.43480 -0.20600
N 	N 	0.62500 0.38982 0.11040 -0.22400
N 	N 	0.70110 0.64738 0.06590 -0.22600
N 	N 	0.59980 0.70833 0.99100 -0.20500
N 	N 	0.81460 0.33873 0.06520 -0.20600
O 	O 	0.91260 0.96930 0.28812 -0.51500
O 	O 	0.06660 0.97445 0.38740 -0.41300
O 	O 	0.74860 0.88984 0.21429 -0.44700
O 	O 	0.94570 0.83570 0.23390 -0.28600
O 	O 	0.36470 0.02368 0.37090 -0.47500
O 	O 	0.95970 0.07910 0.30910 -0.47200
O 	O 	0.57980 0.97880 0.33850 -0.49500
O 	O 	0.72540 0.06010 0.25950 -0.47600
O 	O 	0.41260 0.03070 0.21188 -0.51500
O 	O 	0.56660 0.02555 0.11260 -0.41300
O 	O 	0.24860 0.11016 0.28571 -0.44600
O 	O 	0.44570 0.16430 0.26610 -0.28600
O 	O 	0.86470 0.97632 0.12910 -0.47600
O 	O 	0.45970 0.92090 0.19090 -0.47200
O 	O 	0.07980 0.02120 0.16150 -0.49500
O 	O 	0.22540 0.93990 0.24050 -0.47600
O 	O 	0.41260 0.46930 0.71188 -0.51500
O 	O 	0.56660 0.47445 0.61260 -0.41300
O 	O 	0.24860 0.38984 0.78571 -0.44600
O 	O 	0.44570 0.33570 0.76610 -0.28600
O 	O 	0.86470 0.52368 0.62910 -0.47500
O 	O 	0.45970 0.57910 0.69090 -0.47200
O 	O 	0.07980 0.47880 0.66150 -0.49400
O 	O 	0.22540 0.56010 0.74050 -0.47600
O 	O 	0.91260 0.53070 0.78812 -0.51500
O 	O 	0.06660 0.52555 0.88740 -0.41400
O 	O 	0.74860 0.61016 0.71429 -0.44600
O 	O 	0.94570 0.66430 0.73390 -0.28600
O 	O 	0.36470 0.47632 0.87090 -0.47500
O 	O 	0.95970 0.42090 0.80910 -0.47200
O 	O 	0.57980 0.52120 0.83850 -0.49500
O 	O 	0.72540 0.43990 0.75950 -0.47600
Er	Er	0.33331 0.47675 0.28237 1.94400
Er	Er	0.83331 0.52325 0.21763 1.94400
Er	Er	0.83331 0.97675 0.71763 1.94400
Er	Er	0.33331 0.02325 0.78237 1.94400
Ag	Ag	0.03857 0.77233 0.45213 0.51100
Ag	Ag	0.53857 0.22767 0.04787 0.51200
Ag	Ag	0.53857 0.27233 0.54787 0.51200
Ag	Ag	0.03857 0.72767 0.95213 0.51100
H 	H 	0.81430 0.70180 0.34090 0.03900
H 	H 	0.93970 0.40340 0.64230 0.14600
H 	H 	0.75600 0.33630 0.67210 -0.01300
H 	H 	0.60040 0.35940 0.41710 0.04000
H 	H 	0.03400 0.45490 0.50840 0.07900
H 	H 	0.77710 0.63050 0.60660 0.16100
H 	H 	0.61350 0.56730 0.49660 0.07700
H 	H 	0.94090 0.70560 0.60140 -0.00600
H 	H 	0.31430 0.29820 0.15910 0.03900
H 	H 	0.43970 0.59660 0.85770 0.14700
H 	H 	0.25600 0.66370 0.82790 -0.01300
H 	H 	0.10040 0.64060 0.08290 0.04000
H 	H 	0.53400 0.54510 0.99160 0.07800
H 	H 	0.27710 0.36950 0.89340 0.16100
H 	H 	0.11350 0.43270 0.00340 0.07700
H 	H 	0.44090 0.29440 0.89860 -0.00600
H 	H 	0.31430 0.20180 0.65910 0.03900
H 	H 	0.43970 0.90340 0.35770 0.14700
H 	H 	0.25600 0.83630 0.32790 -0.01300
H 	H 	0.10040 0.85940 0.58290 0.04000
H 	H 	0.53400 0.95490 0.49160 0.07800
H 	H 	0.27710 0.13050 0.39340 0.16100
H 	H 	0.11350 0.06730 0.50340 0.07700
H 	H 	0.44090 0.20560 0.39860 -0.00600
H 	H 	0.81430 0.79820 0.84090 0.03900
H 	H 	0.93970 0.09660 0.14230 0.14600
H 	H 	0.75600 0.16370 0.17210 -0.01300
H 	H 	0.60040 0.14060 0.91710 0.04000
H 	H 	0.03400 0.04510 0.00840 0.07800
H 	H 	0.77710 0.86950 0.10660 0.16100
H 	H 	0.61350 0.93270 0.99660 0.07700
H 	H 	0.94090 0.79440 0.10140 -0.00600
C 	C 	0.54640 0.54670 0.35390 0.34800
C 	C 	0.63370 0.59230 0.38800 -0.04400
C 	C 	0.69120 0.63370 0.34080 -0.08300
C 	C 	0.77730 0.67450 0.37130 -0.07300
C 	C 	0.65860 0.63610 0.25700 0.37400
C 	C 	0.98960 0.48240 0.37060 0.42400
C 	C 	0.68860 0.42670 0.31440 0.42200
C 	C 	0.75880 0.41640 0.38950 -0.08200
C 	C 	0.76900 0.35180 0.62510 0.11600
C 	C 	0.68490 0.37920 0.43510 -0.04100
C 	C 	0.89540 0.44400 0.41620 -0.05600
C 	C 	0.86230 0.40330 0.53580 0.10500
C 	C 	0.94590 0.43708 0.49030 -0.08200
C 	C 	0.65590 0.59320 0.46540 -0.09100
C 	C 	0.80830 0.67440 0.44830 0.01500
C 	C 	0.74020 0.37218 0.50810 0.01700
C 	C 	0.74520 0.63490 0.49410 0.06900
C 	C 	0.89000 0.69020 0.56060 0.12200
C 	C 	0.04640 0.45330 0.14610 0.35000
C 	C 	0.13370 0.40770 0.11200 -0.04400
C 	C 	0.19120 0.36630 0.15920 -0.08200
C 	C 	0.27730 0.32550 0.12870 -0.07300
C 	C 	0.15860 0.36390 0.24300 0.37400
C 	C 	0.48960 0.51760 0.12940 0.42500
C 	C 	0.18860 0.57330 0.18560 0.42200
C 	C 	0.25880 0.58360 0.11050 -0.08200
C 	C 	0.26900 0.64820 0.87490 0.11600
C 	C 	0.18490 0.62080 0.06490 -0.04000
C 	C 	0.39540 0.55600 0.08380 -0.05700
C 	C 	0.36230 0.59670 0.96420 0.10500
C 	C 	0.44590 0.56292 0.00970 -0.08100
C 	C 	0.15590 0.40680 0.03460 -0.09100
C 	C 	0.30830 0.32560 0.05170 0.01500
C 	C 	0.24020 0.62782 0.99190 0.01600
C 	C 	0.24520 0.36510 0.00590 0.06900
C 	C 	0.39000 0.30980 0.93940 0.12200
C 	C 	0.04640 0.04670 0.64610 0.34800
C 	C 	0.13370 0.09230 0.61200 -0.04400
C 	C 	0.19120 0.13370 0.65920 -0.08300
C 	C 	0.27730 0.17450 0.62870 -0.07300
C 	C 	0.15860 0.13610 0.74300 0.37400
C 	C 	0.48960 0.98240 0.62940 0.42500
C 	C 	0.18860 0.92670 0.68560 0.42200
C 	C 	0.25880 0.91640 0.61050 -0.08200
C 	C 	0.26900 0.85180 0.37490 0.11600
C 	C 	0.18490 0.87920 0.56490 -0.04100
C 	C 	0.39540 0.94400 0.58380 -0.05700
C 	C 	0.36230 0.90330 0.46420 0.10500
C 	C 	0.44590 0.93708 0.50970 -0.08000
C 	C 	0.15590 0.09320 0.53460 -0.09100
C 	C 	0.30830 0.17440 0.55170 0.01500
C 	C 	0.24020 0.87218 0.49190 0.01700
C 	C 	0.24520 0.13490 0.50590 0.06900
C 	C 	0.39000 0.19020 0.43940 0.12200
C 	C 	0.54640 0.95330 0.85390 0.34800
C 	C 	0.63370 0.90770 0.88800 -0.04400
C 	C 	0.69120 0.86630 0.84080 -0.08300
C 	C 	0.77730 0.82550 0.87130 -0.07300
C 	C 	0.65860 0.86390 0.75700 0.37400
C 	C 	0.98960 0.01760 0.87060 0.42700
C 	C 	0.68860 0.07330 0.81440 0.42200
C 	C 	0.75880 0.08360 0.88950 -0.08100
C 	C 	0.76900 0.14820 0.12510 0.11600
C 	C 	0.68490 0.12080 0.93510 -0.04100
C 	C 	0.89540 0.05600 0.91620 -0.05700
C 	C 	0.86230 0.09670 0.03580 0.10400
C 	C 	0.94590 0.06292 0.99030 -0.08000
C 	C 	0.65590 0.90680 0.96540 -0.09200
C 	C 	0.80830 0.82560 0.94830 0.01500
C 	C 	0.74020 0.12782 0.00810 0.01700
C 	C 	0.74520 0.86510 0.99410 0.06900
C 	C 	0.89000 0.80980 0.06060 0.12100
N 	N 	0.87500 0.38982 0.61040 -0.22400
N 	N 	0.79890 0.64738 0.56590 -0.22600
N 	N 	0.90020 0.70833 0.49100 -0.20500
N 	N 	0.68540 0.33873 0.56520 -0.20600
N 	N 	0.37500 0.61018 0.88960 -0.22400
N 	N 	0.29890 0.35262 0.93410 -0.22600
N 	N 	0.40020 0.29167 0.00900 -0.20500
N 	N 	0.18540 0.66127 0.93480 -0.20600
N 	N 	0.37500 0.88982 0.38960 -0.22400
N 	N 	0.29890 0.14738 0.43410 -0.22600
N 	N 	0.40020 0.20833 0.50900 -0.20500
N 	N 	0.18540 0.83873 0.43480 -0.20600
N 	N 	0.87500 0.11018 0.11040 -0.22400
N 	N 	0.79890 0.85262 0.06590 -0.22600
N 	N 	0.90020 0.79167 0.99100 -0.20400
N 	N 	0.68540 0.16127 0.06520 -0.20600
O 	O 	0.58740 0.53070 0.28812 -0.51500
O 	O 	0.43340 0.52555 0.38740 -0.41300
O 	O 	0.75140 0.61016 0.21429 -0.44600
O 	O 	0.55430 0.66430 0.23390 -0.28600
O 	O 	0.13530 0.47632 0.37090 -0.47500
O 	O 	0.54030 0.42090 0.30910 -0.47200
O 	O 	0.92020 0.52120 0.33850 -0.49400
O 	O 	0.77460 0.43990 0.25950 -0.47600
O 	O 	0.08740 0.46930 0.21188 -0.51500
O 	O 	0.93340 0.47445 0.11260 -0.41400
O 	O 	0.25140 0.38984 0.28571 -0.44600
O 	O 	0.05430 0.33570 0.26610 -0.28600
O 	O 	0.63530 0.52368 0.12910 -0.47500
O 	O 	0.04030 0.57910 0.19090 -0.47200
O 	O 	0.42020 0.47880 0.16150 -0.49500
O 	O 	0.27460 0.56010 0.24050 -0.47600
O 	O 	0.08740 0.03070 0.71188 -0.51500
O 	O 	0.93340 0.02555 0.61260 -0.41300
O 	O 	0.25140 0.11016 0.78571 -0.44700
O 	O 	0.05430 0.16430 0.76610 -0.28600
O 	O 	0.63530 0.97632 0.62910 -0.47500
O 	O 	0.04030 0.92090 0.69090 -0.47200
O 	O 	0.42020 0.02120 0.66150 -0.49500
O 	O 	0.27460 0.93990 0.74050 -0.47600
O 	O 	0.58740 0.96930 0.78812 -0.51500
O 	O 	0.43340 0.97445 0.88740 -0.41300
O 	O 	0.75140 0.88984 0.71429 -0.44600
O 	O 	0.55430 0.83570 0.73390 -0.28600
O 	O 	0.13530 0.02368 0.87090 -0.47600
O 	O 	0.54030 0.07910 0.80910 -0.47200
O 	O 	0.92020 0.97880 0.83850 -0.49500
O 	O 	0.77460 0.06010 0.75950 -0.47600
