data_crystal

_cell_length_a 8.51120
_cell_length_b 25.33900
_cell_length_c 17.77400
_cell_angle_alpha 90.00000
_cell_angle_beta  90.00000
_cell_angle_gamma 90.00000

_symmetry_space_group_name_	'P 1'
_symmetry_space_group_name_H-M	'P 1'

loop_
_symmetry_equiv_pos_as_xyz
  x,y,z

loop_
_atom_site_label
_atom_site_type_symbol
_atom_site_fract_x
_atom_site_fract_y
_atom_site_fract_z
_atom_site_charge
Tb	Tb	0.33538 0.02407 0.78287 2.10300
Tb	Tb	0.83538 0.97593 0.71713 2.10300
Tb	Tb	0.83538 0.52407 0.21713 2.10300
Tb	Tb	0.33538 0.47593 0.28287 2.10300
Ag	Ag	0.03838 0.72700 0.94960 0.51000
Ag	Ag	0.53838 0.27300 0.55040 0.51100
Ag	Ag	0.53838 0.22700 0.05040 0.51000
Ag	Ag	0.03838 0.77300 0.44960 0.51000
H 	H 	0.43940 0.90460 0.35690 0.14300
H 	H 	0.78850 0.87030 0.10550 0.15700
H 	H 	0.09820 0.86110 0.58150 0.04000
H 	H 	0.25280 0.83850 0.32560 -0.01000
H 	H 	0.53410 0.95500 0.49210 0.07500
H 	H 	0.62040 0.93300 0.99770 0.07200
H 	H 	0.94870 0.79470 0.09920 -0.00900
H 	H 	0.80980 0.79800 0.83930 0.04000
H 	H 	0.93940 0.09540 0.14310 0.14300
H 	H 	0.28850 0.12970 0.39450 0.15700
H 	H 	0.59820 0.13890 0.91850 0.04000
H 	H 	0.75280 0.16150 0.17440 -0.01000
H 	H 	0.03410 0.04500 0.00790 0.07500
H 	H 	0.12040 0.06700 0.50230 0.07100
H 	H 	0.44870 0.20530 0.40080 -0.00900
H 	H 	0.30980 0.20200 0.66070 0.04000
H 	H 	0.93940 0.40460 0.64310 0.14300
H 	H 	0.28850 0.37030 0.89450 0.15700
H 	H 	0.59820 0.36110 0.41850 0.04000
H 	H 	0.75280 0.33850 0.67440 -0.01000
H 	H 	0.03410 0.45500 0.50790 0.07600
H 	H 	0.12040 0.43300 0.00230 0.07200
H 	H 	0.44870 0.29470 0.90080 -0.00900
H 	H 	0.30980 0.29800 0.16070 0.04000
H 	H 	0.43940 0.59540 0.85690 0.14300
H 	H 	0.78850 0.62970 0.60550 0.15700
H 	H 	0.09820 0.63890 0.08150 0.04000
H 	H 	0.25280 0.66150 0.82560 -0.01000
H 	H 	0.53410 0.54500 0.99210 0.07500
H 	H 	0.62040 0.56700 0.49770 0.07100
H 	H 	0.94870 0.70530 0.59920 -0.00900
H 	H 	0.80980 0.70200 0.33930 0.04000
C 	C 	0.19120 0.92590 0.68630 0.42700
C 	C 	0.25840 0.91690 0.60930 -0.08000
C 	C 	0.18350 0.88034 0.56370 -0.04400
C 	C 	0.23810 0.87293 0.49090 0.01900
C 	C 	0.26690 0.85346 0.37290 0.11300
C 	C 	0.36050 0.90382 0.46330 0.09900
C 	C 	0.44530 0.93756 0.50970 -0.07400
C 	C 	0.39410 0.94442 0.58280 -0.06200
C 	C 	0.48940 0.98251 0.62880 0.43500
C 	C 	0.54830 0.95374 0.85520 0.35800
C 	C 	0.63300 0.90797 0.88900 -0.05400
C 	C 	0.66030 0.90702 0.96620 -0.08600
C 	C 	0.75050 0.86516 0.99420 0.06700
C 	C 	0.89660 0.81018 0.05880 0.12100
C 	C 	0.80990 0.82576 0.94680 0.01600
C 	C 	0.77560 0.82538 0.87010 -0.07800
C 	C 	0.68920 0.86699 0.84120 -0.07700
C 	C 	0.65190 0.86516 0.75820 0.35000
C 	C 	0.69120 0.07410 0.81370 0.42600
C 	C 	0.75840 0.08310 0.89070 -0.08000
C 	C 	0.68350 0.11966 0.93630 -0.04400
C 	C 	0.73810 0.12707 0.00910 0.01900
C 	C 	0.76690 0.14654 0.12710 0.11300
C 	C 	0.86050 0.09618 0.03670 0.09800
C 	C 	0.94530 0.06244 0.99030 -0.07400
C 	C 	0.89410 0.05558 0.91720 -0.06200
C 	C 	0.98940 0.01749 0.87120 0.43700
C 	C 	0.04830 0.04626 0.64480 0.35800
C 	C 	0.13300 0.09203 0.61100 -0.05400
C 	C 	0.16030 0.09298 0.53380 -0.08600
C 	C 	0.25050 0.13484 0.50580 0.06700
C 	C 	0.39660 0.18982 0.44120 0.12200
C 	C 	0.30990 0.17424 0.55320 0.01600
C 	C 	0.27560 0.17462 0.62990 -0.07900
C 	C 	0.18920 0.13301 0.65880 -0.07700
C 	C 	0.15190 0.13484 0.74180 0.35000
C 	C 	0.69120 0.42590 0.31370 0.42700
C 	C 	0.75840 0.41690 0.39070 -0.08000
C 	C 	0.68350 0.38034 0.43630 -0.04400
C 	C 	0.73810 0.37293 0.50910 0.01900
C 	C 	0.76690 0.35346 0.62710 0.11300
C 	C 	0.86050 0.40382 0.53670 0.09900
C 	C 	0.94530 0.43756 0.49030 -0.07600
C 	C 	0.89410 0.44442 0.41720 -0.06100
C 	C 	0.98940 0.48251 0.37120 0.43400
C 	C 	0.04830 0.45374 0.14480 0.35900
C 	C 	0.13300 0.40797 0.11100 -0.05500
C 	C 	0.16030 0.40702 0.03380 -0.08500
C 	C 	0.25050 0.36516 0.00580 0.06700
C 	C 	0.39660 0.31018 0.94120 0.12200
C 	C 	0.30990 0.32576 0.05320 0.01600
C 	C 	0.27560 0.32538 0.12990 -0.07900
C 	C 	0.18920 0.36699 0.15880 -0.07700
C 	C 	0.15190 0.36516 0.24180 0.35000
C 	C 	0.19120 0.57410 0.18630 0.42700
C 	C 	0.25840 0.58310 0.10930 -0.08000
C 	C 	0.18350 0.61966 0.06370 -0.04400
C 	C 	0.23810 0.62707 0.99090 0.01900
C 	C 	0.26690 0.64654 0.87290 0.11300
C 	C 	0.36050 0.59618 0.96330 0.09900
C 	C 	0.44530 0.56244 0.00970 -0.07500
C 	C 	0.39410 0.55558 0.08280 -0.06200
C 	C 	0.48940 0.51749 0.12880 0.43500
C 	C 	0.54830 0.54626 0.35520 0.35800
C 	C 	0.63300 0.59203 0.38900 -0.05400
C 	C 	0.66030 0.59298 0.46620 -0.08500
C 	C 	0.75050 0.63484 0.49420 0.06700
C 	C 	0.89660 0.68982 0.55880 0.12200
C 	C 	0.80990 0.67424 0.44680 0.01600
C 	C 	0.77560 0.67462 0.37010 -0.07900
C 	C 	0.68920 0.63301 0.34120 -0.07700
C 	C 	0.65190 0.63484 0.25820 0.35000
N 	N 	0.18440 0.84037 0.43300 -0.20500
N 	N 	0.37410 0.89103 0.38830 -0.22200
N 	N 	0.90320 0.79182 0.98920 -0.20400
N 	N 	0.80740 0.85310 0.06480 -0.22600
N 	N 	0.68440 0.15963 0.06700 -0.20400
N 	N 	0.87410 0.10897 0.11170 -0.22200
N 	N 	0.40320 0.20818 0.51080 -0.20500
N 	N 	0.30740 0.14690 0.43520 -0.22600
N 	N 	0.68440 0.34037 0.56700 -0.20400
N 	N 	0.87410 0.39103 0.61170 -0.22200
N 	N 	0.40320 0.29182 0.01080 -0.20500
N 	N 	0.30740 0.35310 0.93520 -0.22600
N 	N 	0.18440 0.65963 0.93300 -0.20500
N 	N 	0.37410 0.60897 0.88830 -0.22200
N 	N 	0.90320 0.70818 0.48920 -0.20500
N 	N 	0.80740 0.64690 0.56480 -0.22500
O 	O 	0.04400 0.91869 0.69348 -0.49200
O 	O 	0.27880 0.94012 0.73981 -0.49800
O 	O 	0.42260 0.02137 0.66016 -0.51800
O 	O 	0.63540 0.97544 0.62831 -0.49800
O 	O 	0.43780 0.97560 0.88961 -0.43100
O 	O 	0.58730 0.96929 0.78937 -0.54700
O 	O 	0.75130 0.88836 0.71421 -0.45300
O 	O 	0.53910 0.83959 0.73532 -0.27600
O 	O 	0.54400 0.08131 0.80652 -0.49200
O 	O 	0.77880 0.05988 0.76019 -0.49800
O 	O 	0.92260 0.97863 0.83984 -0.51800
O 	O 	0.13540 0.02456 0.87169 -0.49900
O 	O 	0.93780 0.02440 0.61039 -0.43100
O 	O 	0.08730 0.03071 0.71063 -0.54700
O 	O 	0.25130 0.11164 0.78579 -0.45300
O 	O 	0.03910 0.16041 0.76468 -0.27500
O 	O 	0.54400 0.41869 0.30652 -0.49200
O 	O 	0.77880 0.44012 0.26019 -0.49800
O 	O 	0.92260 0.52137 0.33984 -0.51700
O 	O 	0.13540 0.47544 0.37169 -0.49700
O 	O 	0.93780 0.47560 0.11039 -0.43300
O 	O 	0.08730 0.46929 0.21063 -0.54700
O 	O 	0.25130 0.38836 0.28579 -0.45300
O 	O 	0.03910 0.33959 0.26468 -0.27500
O 	O 	0.04400 0.58131 0.19348 -0.49200
O 	O 	0.27880 0.55988 0.23981 -0.49800
O 	O 	0.42260 0.47863 0.16016 -0.51800
O 	O 	0.63540 0.52456 0.12831 -0.49800
O 	O 	0.43780 0.52440 0.38961 -0.43200
O 	O 	0.58730 0.53071 0.28937 -0.54700
O 	O 	0.75130 0.61164 0.21421 -0.45300
O 	O 	0.53910 0.66041 0.23532 -0.27600
Tb	Tb	0.16462 0.47593 0.78287 2.10200
Tb	Tb	0.66462 0.52407 0.71713 2.10200
Tb	Tb	0.66462 0.97593 0.21713 2.10200
Tb	Tb	0.16462 0.02407 0.28287 2.10200
Ag	Ag	0.46162 0.77300 0.94960 0.51000
Ag	Ag	0.96162 0.22700 0.55040 0.51000
Ag	Ag	0.96162 0.27300 0.05040 0.50900
Ag	Ag	0.46162 0.72700 0.44960 0.51000
H 	H 	0.06060 0.59540 0.35690 0.14300
H 	H 	0.71150 0.62970 0.10550 0.15700
H 	H 	0.40180 0.63890 0.58150 0.04000
H 	H 	0.24720 0.66150 0.32560 -0.01000
H 	H 	0.96590 0.54500 0.49210 0.07600
H 	H 	0.87960 0.56700 0.99770 0.07200
H 	H 	0.55130 0.70530 0.09920 -0.00900
H 	H 	0.69020 0.70200 0.83930 0.04000
H 	H 	0.56060 0.40460 0.14310 0.14300
H 	H 	0.21150 0.37030 0.39450 0.15700
H 	H 	0.90180 0.36110 0.91850 0.04000
H 	H 	0.74720 0.33850 0.17440 -0.01000
H 	H 	0.46590 0.45500 0.00790 0.07500
H 	H 	0.37960 0.43300 0.50230 0.07100
H 	H 	0.05130 0.29470 0.40080 -0.00900
H 	H 	0.19020 0.29800 0.66070 0.04000
H 	H 	0.56060 0.09540 0.64310 0.14300
H 	H 	0.21150 0.12970 0.89450 0.15700
H 	H 	0.90180 0.13890 0.41850 0.04000
H 	H 	0.74720 0.16150 0.67440 -0.01000
H 	H 	0.46590 0.04500 0.50790 0.07500
H 	H 	0.37960 0.06700 0.00230 0.07200
H 	H 	0.05130 0.20530 0.90080 -0.00900
H 	H 	0.19020 0.20200 0.16070 0.04000
H 	H 	0.06060 0.90460 0.85690 0.14300
H 	H 	0.71150 0.87030 0.60550 0.15700
H 	H 	0.40180 0.86110 0.08150 0.04000
H 	H 	0.24720 0.83850 0.82560 -0.01000
H 	H 	0.96590 0.95500 0.99210 0.07500
H 	H 	0.87960 0.93300 0.49770 0.07100
H 	H 	0.55130 0.79470 0.59920 -0.00900
H 	H 	0.69020 0.79800 0.33930 0.04000
C 	C 	0.30880 0.57410 0.68630 0.42700
C 	C 	0.24160 0.58310 0.60930 -0.08000
C 	C 	0.31650 0.61966 0.56370 -0.04400
C 	C 	0.26190 0.62707 0.49090 0.01900
C 	C 	0.23310 0.64654 0.37290 0.11300
C 	C 	0.13950 0.59618 0.46330 0.09900
C 	C 	0.05470 0.56244 0.50970 -0.07600
C 	C 	0.10590 0.55558 0.58280 -0.06100
C 	C 	0.01060 0.51749 0.62880 0.43400
C 	C 	0.95170 0.54626 0.85520 0.35900
C 	C 	0.86700 0.59203 0.88900 -0.05500
C 	C 	0.83970 0.59298 0.96620 -0.08500
C 	C 	0.74950 0.63484 0.99420 0.06700
C 	C 	0.60340 0.68982 0.05880 0.12200
C 	C 	0.69010 0.67424 0.94680 0.01600
C 	C 	0.72440 0.67462 0.87010 -0.07900
C 	C 	0.81080 0.63301 0.84120 -0.07700
C 	C 	0.84810 0.63484 0.75820 0.35000
C 	C 	0.80880 0.42590 0.81370 0.42700
C 	C 	0.74160 0.41690 0.89070 -0.08000
C 	C 	0.81650 0.38034 0.93630 -0.04400
C 	C 	0.76190 0.37293 0.00910 0.01900
C 	C 	0.73310 0.35346 0.12710 0.11300
C 	C 	0.63950 0.40382 0.03670 0.09900
C 	C 	0.55470 0.43756 0.99030 -0.07500
C 	C 	0.60590 0.44442 0.91720 -0.06200
C 	C 	0.51060 0.48251 0.87120 0.43500
C 	C 	0.45170 0.45374 0.64480 0.35800
C 	C 	0.36700 0.40797 0.61100 -0.05400
C 	C 	0.33970 0.40702 0.53380 -0.08500
C 	C 	0.24950 0.36516 0.50580 0.06700
C 	C 	0.10340 0.31018 0.44120 0.12200
C 	C 	0.19010 0.32576 0.55320 0.01600
C 	C 	0.22440 0.32538 0.62990 -0.07900
C 	C 	0.31080 0.36699 0.65880 -0.07700
C 	C 	0.34810 0.36516 0.74180 0.35000
C 	C 	0.80880 0.07410 0.31370 0.42700
C 	C 	0.74160 0.08310 0.39070 -0.08000
C 	C 	0.81650 0.11966 0.43630 -0.04400
C 	C 	0.76190 0.12707 0.50910 0.01900
C 	C 	0.73310 0.14654 0.62710 0.11300
C 	C 	0.63950 0.09618 0.53670 0.09900
C 	C 	0.55470 0.06244 0.49030 -0.07400
C 	C 	0.60590 0.05558 0.41720 -0.06200
C 	C 	0.51060 0.01749 0.37120 0.43500
C 	C 	0.45170 0.04626 0.14480 0.35800
C 	C 	0.36700 0.09203 0.11100 -0.05400
C 	C 	0.33970 0.09298 0.03380 -0.08600
C 	C 	0.24950 0.13484 0.00580 0.06700
C 	C 	0.10340 0.18982 0.94120 0.12100
C 	C 	0.19010 0.17424 0.05320 0.01600
C 	C 	0.22440 0.17462 0.12990 -0.07800
C 	C 	0.31080 0.13301 0.15880 -0.07700
C 	C 	0.34810 0.13484 0.24180 0.35000
C 	C 	0.30880 0.92590 0.18630 0.42600
C 	C 	0.24160 0.91690 0.10930 -0.08000
C 	C 	0.31650 0.88034 0.06370 -0.04400
C 	C 	0.26190 0.87293 0.99090 0.01900
C 	C 	0.23310 0.85346 0.87290 0.11300
C 	C 	0.13950 0.90382 0.96330 0.09800
C 	C 	0.05470 0.93756 0.00970 -0.07400
C 	C 	0.10590 0.94442 0.08280 -0.06200
C 	C 	0.01060 0.98251 0.12880 0.43700
C 	C 	0.95170 0.95374 0.35520 0.35800
C 	C 	0.86700 0.90797 0.38900 -0.05400
C 	C 	0.83970 0.90702 0.46620 -0.08600
C 	C 	0.74950 0.86516 0.49420 0.06700
C 	C 	0.60340 0.81018 0.55880 0.12200
C 	C 	0.69010 0.82576 0.44680 0.01600
C 	C 	0.72440 0.82538 0.37010 -0.07900
C 	C 	0.81080 0.86699 0.34120 -0.07700
C 	C 	0.84810 0.86516 0.25820 0.35000
N 	N 	0.31560 0.65963 0.43300 -0.20400
N 	N 	0.12590 0.60897 0.38830 -0.22200
N 	N 	0.59680 0.70818 0.98920 -0.20500
N 	N 	0.69260 0.64690 0.06480 -0.22600
N 	N 	0.81560 0.34037 0.06700 -0.20500
N 	N 	0.62590 0.39103 0.11170 -0.22200
N 	N 	0.09680 0.29182 0.51080 -0.20500
N 	N 	0.19260 0.35310 0.43520 -0.22500
N 	N 	0.81560 0.15963 0.56700 -0.20500
N 	N 	0.62590 0.10897 0.61170 -0.22200
N 	N 	0.09680 0.20818 0.01080 -0.20400
N 	N 	0.19260 0.14690 0.93520 -0.22600
N 	N 	0.31560 0.84037 0.93300 -0.20400
N 	N 	0.12590 0.89103 0.88830 -0.22200
N 	N 	0.59680 0.79182 0.48920 -0.20500
N 	N 	0.69260 0.85310 0.56480 -0.22600
O 	O 	0.45600 0.58131 0.69348 -0.49200
O 	O 	0.22120 0.55988 0.73981 -0.49800
O 	O 	0.07740 0.47863 0.66016 -0.51700
O 	O 	0.86460 0.52456 0.62831 -0.49700
O 	O 	0.06220 0.52440 0.88961 -0.43300
O 	O 	0.91270 0.53071 0.78937 -0.54700
O 	O 	0.74870 0.61164 0.71421 -0.45300
O 	O 	0.96090 0.66041 0.73532 -0.27500
O 	O 	0.95600 0.41869 0.80652 -0.49200
O 	O 	0.72120 0.44012 0.76019 -0.49800
O 	O 	0.57740 0.52137 0.83984 -0.51800
O 	O 	0.36460 0.47544 0.87169 -0.49800
O 	O 	0.56220 0.47560 0.61039 -0.43200
O 	O 	0.41270 0.46929 0.71063 -0.54700
O 	O 	0.24870 0.38836 0.78579 -0.45300
O 	O 	0.46090 0.33959 0.76468 -0.27600
O 	O 	0.95600 0.08131 0.30652 -0.49200
O 	O 	0.72120 0.05988 0.26019 -0.49800
O 	O 	0.57740 0.97863 0.33984 -0.51800
O 	O 	0.36460 0.02456 0.37169 -0.49800
O 	O 	0.56220 0.02440 0.11039 -0.43100
O 	O 	0.41270 0.03071 0.21063 -0.54700
O 	O 	0.24870 0.11164 0.28579 -0.45300
O 	O 	0.46090 0.16041 0.26468 -0.27600
O 	O 	0.45600 0.91869 0.19348 -0.49200
O 	O 	0.22120 0.94012 0.23981 -0.49800
O 	O 	0.07740 0.02137 0.16016 -0.51800
O 	O 	0.86460 0.97544 0.12831 -0.49900
O 	O 	0.06220 0.97560 0.38961 -0.43100
O 	O 	0.91270 0.96929 0.28937 -0.54700
O 	O 	0.74870 0.88836 0.21421 -0.45300
O 	O 	0.96090 0.83959 0.23532 -0.27500
