data_crystal

_cell_length_a 15.49740
_cell_length_b 15.49740
_cell_length_c 16.72300
_cell_angle_alpha 78.82020
_cell_angle_beta  78.82020
_cell_angle_gamma 66.61830

_symmetry_space_group_name_	'P 1'
_symmetry_space_group_name_H-M	'P 1'

loop_
_symmetry_equiv_pos_as_xyz
  x,y,z

loop_
_atom_site_label
_atom_site_type_symbol
_atom_site_fract_x
_atom_site_fract_y
_atom_site_fract_z
_atom_site_charge
U 	U 	0.61614 0.57008 0.55190 0.02600
U 	U 	0.62752 0.10270 0.62610 0.04100
U 	U 	0.92420 0.87272 0.46879 0.02800
U 	U 	0.74442 0.74140 0.76944 0.03600
U 	U 	0.42992 0.38386 0.94810 0.02600
U 	U 	0.89730 0.37248 0.87390 0.04000
U 	U 	0.12728 0.07580 0.03121 0.02600
U 	U 	0.25860 0.25558 0.73056 0.03600
U 	U 	0.38386 0.42992 0.44810 0.02600
U 	U 	0.37248 0.89730 0.37390 0.04100
U 	U 	0.07580 0.12728 0.53121 0.02800
U 	U 	0.25558 0.25860 0.23056 0.03600
U 	U 	0.57008 0.61614 0.05190 0.02600
U 	U 	0.10270 0.62752 0.12610 0.04000
U 	U 	0.87272 0.92420 0.96879 0.02600
U 	U 	0.74140 0.74442 0.26944 0.03600
P 	P 	0.46784 0.28492 0.75682 0.43900
P 	P 	0.71191 0.86407 0.56484 0.44900
P 	P 	0.78771 0.95153 0.77492 0.44200
P 	P 	0.55851 0.36135 0.59454 0.43800
P 	P 	0.88192 0.03792 0.61701 0.43600
P 	P 	0.59869 0.80637 0.46541 0.45000
P 	P 	0.71508 0.53216 0.74318 0.43900
P 	P 	0.13593 0.28809 0.93516 0.44800
P 	P 	0.04847 0.21229 0.72508 0.44300
P 	P 	0.63865 0.44149 0.90546 0.43800
P 	P 	0.96208 0.11808 0.88299 0.43200
P 	P 	0.19363 0.40131 0.03459 0.44600
P 	P 	0.53216 0.71508 0.24318 0.43900
P 	P 	0.28809 0.13593 0.43516 0.44900
P 	P 	0.21229 0.04847 0.22508 0.44200
P 	P 	0.44149 0.63865 0.40546 0.43800
P 	P 	0.11808 0.96208 0.38299 0.43600
P 	P 	0.40131 0.19363 0.53459 0.45000
P 	P 	0.28492 0.46784 0.25682 0.43900
P 	P 	0.86407 0.71191 0.06484 0.44800
P 	P 	0.95153 0.78771 0.27492 0.44300
P 	P 	0.36135 0.55851 0.09454 0.43800
P 	P 	0.03792 0.88192 0.11701 0.43200
P 	P 	0.80637 0.59869 0.96541 0.44600
H 	H 	0.57910 0.35330 0.72890 0.16700
H 	H 	0.47980 0.42980 0.71170 0.17700
H 	H 	0.94030 0.94530 0.73260 0.17900
H 	H 	0.87440 0.04700 0.75270 0.16900
H 	H 	0.61700 0.94500 0.46550 0.18200
H 	H 	0.55630 0.92250 0.54670 0.17900
H 	H 	0.64670 0.42090 0.77110 0.16700
H 	H 	0.57020 0.52020 0.78830 0.17700
H 	H 	0.05470 0.05970 0.76740 0.17800
H 	H 	0.95300 0.12560 0.74730 0.16600
H 	H 	0.05500 0.38300 0.03450 0.17700
H 	H 	0.07750 0.44370 0.95330 0.17700
H 	H 	0.42090 0.64670 0.27110 0.16700
H 	H 	0.52020 0.57020 0.28830 0.17700
H 	H 	0.05970 0.05470 0.26740 0.17900
H 	H 	0.12560 0.95300 0.24730 0.16900
H 	H 	0.38300 0.05500 0.53450 0.18200
H 	H 	0.44370 0.07750 0.45330 0.17900
H 	H 	0.35330 0.57910 0.22890 0.16700
H 	H 	0.42980 0.47980 0.21170 0.17700
H 	H 	0.94530 0.94030 0.23260 0.17800
H 	H 	0.04700 0.87440 0.25270 0.16600
H 	H 	0.94500 0.61700 0.96550 0.17700
H 	H 	0.92250 0.55630 0.04670 0.17700
C 	C 	0.52320 0.36580 0.70360 -0.36600
C 	C 	0.87960 0.99580 0.72440 -0.36700
C 	C 	0.61360 0.89520 0.50970 -0.38300
C 	C 	0.63420 0.47680 0.79640 -0.36600
C 	C 	0.00420 0.12040 0.77560 -0.36100
C 	C 	0.10480 0.38640 0.99030 -0.37500
C 	C 	0.47680 0.63420 0.29640 -0.36600
C 	C 	0.12040 0.00420 0.27560 -0.36700
C 	C 	0.38640 0.10480 0.49030 -0.38300
C 	C 	0.36580 0.52320 0.20360 -0.36600
C 	C 	0.99580 0.87960 0.22440 -0.36100
C 	C 	0.89520 0.61360 0.00970 -0.37500
O 	O 	0.81650 0.85010 0.75760 -0.15300
O 	O 	0.69470 0.01850 0.74420 -0.14200
O 	O 	0.94650 0.09450 0.59650 -0.17300
O 	O 	0.69820 0.79960 0.64340 -0.14800
O 	O 	0.62470 0.41690 0.56700 -0.15800
O 	O 	0.52960 0.18640 0.73410 -0.14200
O 	O 	0.61340 0.25780 0.58290 -0.14600
O 	O 	0.36830 0.32030 0.73230 -0.14700
O 	O 	0.80430 0.81410 0.51210 -0.14400
O 	O 	0.46590 0.28550 0.84970 -0.14800
O 	O 	0.78180 0.95600 0.86710 -0.14600
O 	O 	0.77980 0.10340 0.60270 -0.14300
O 	O 	0.47000 0.40520 0.55100 -0.15200
O 	O 	0.71190 0.95730 0.58210 -0.15700
O 	O 	0.68360 0.77020 0.40190 -0.15000
O 	O 	0.59160 0.72760 0.53310 -0.15300
O 	O 	0.50640 0.85660 0.42690 -0.16800
O 	O 	0.92120 0.95220 0.57020 -0.15100
O 	O 	0.14990 0.18350 0.74240 -0.15200
O 	O 	0.98150 0.30530 0.75580 -0.14400
O 	O 	0.90550 0.05350 0.90350 -0.17300
O 	O 	0.20040 0.30180 0.85660 -0.14700
O 	O 	0.58310 0.37530 0.93300 -0.15800
O 	O 	0.81360 0.47040 0.76590 -0.14200
O 	O 	0.74220 0.38660 0.91710 -0.14700
O 	O 	0.67970 0.63170 0.76770 -0.14700
O 	O 	0.18590 0.19570 0.98790 -0.14200
O 	O 	0.71450 0.53410 0.65030 -0.14900
O 	O 	0.04400 0.21820 0.63290 -0.14500
O 	O 	0.89660 0.22020 0.89730 -0.14400
O 	O 	0.59480 0.53000 0.94900 -0.15200
O 	O 	0.04270 0.28810 0.91790 -0.15600
O 	O 	0.22980 0.31640 0.09810 -0.15000
O 	O 	0.27240 0.40840 0.96690 -0.15100
O 	O 	0.14340 0.49360 0.07310 -0.16800
O 	O 	0.04780 0.07880 0.92980 -0.14800
O 	O 	0.18350 0.14990 0.24240 -0.15300
O 	O 	0.30530 0.98150 0.25580 -0.14200
O 	O 	0.05350 0.90550 0.40350 -0.17300
O 	O 	0.30180 0.20040 0.35660 -0.14800
O 	O 	0.37530 0.58310 0.43300 -0.15800
O 	O 	0.47040 0.81360 0.26590 -0.14200
O 	O 	0.38660 0.74220 0.41710 -0.14600
O 	O 	0.63170 0.67970 0.26770 -0.14700
O 	O 	0.19570 0.18590 0.48790 -0.14400
O 	O 	0.53410 0.71450 0.15030 -0.14800
O 	O 	0.21820 0.04400 0.13290 -0.14600
O 	O 	0.22020 0.89660 0.39730 -0.14300
O 	O 	0.53000 0.59480 0.44900 -0.15200
O 	O 	0.28810 0.04270 0.41790 -0.15700
O 	O 	0.31640 0.22980 0.59810 -0.15000
O 	O 	0.40840 0.27240 0.46690 -0.15300
O 	O 	0.49360 0.14340 0.57310 -0.16800
O 	O 	0.07880 0.04780 0.42980 -0.15100
O 	O 	0.85010 0.81650 0.25760 -0.15200
O 	O 	0.01850 0.69470 0.24420 -0.14400
O 	O 	0.09450 0.94650 0.09650 -0.17300
O 	O 	0.79960 0.69820 0.14340 -0.14700
O 	O 	0.41690 0.62470 0.06700 -0.15800
O 	O 	0.18640 0.52960 0.23410 -0.14200
O 	O 	0.25780 0.61340 0.08290 -0.14700
O 	O 	0.32030 0.36830 0.23230 -0.14700
O 	O 	0.81410 0.80430 0.01210 -0.14200
O 	O 	0.28550 0.46590 0.34970 -0.14900
O 	O 	0.95600 0.78180 0.36710 -0.14500
O 	O 	0.10340 0.77980 0.10270 -0.14400
O 	O 	0.40520 0.47000 0.05100 -0.15200
O 	O 	0.95730 0.71190 0.08210 -0.15600
O 	O 	0.77020 0.68360 0.90190 -0.15000
O 	O 	0.72760 0.59160 0.03310 -0.15100
O 	O 	0.85660 0.50640 0.92690 -0.16800
O 	O 	0.95220 0.92120 0.07020 -0.14800
