data_crystal

_cell_length_a 8.02670
_cell_length_b 19.43070
_cell_length_c 8.96090
_cell_angle_alpha 90.00000
_cell_angle_beta  93.28600
_cell_angle_gamma 90.00000

_symmetry_space_group_name_	'P 1'
_symmetry_space_group_name_H-M	'P 1'

loop_
_symmetry_equiv_pos_as_xyz
  x,y,z

loop_
_atom_site_label
_atom_site_type_symbol
_atom_site_fract_x
_atom_site_fract_y
_atom_site_fract_z
_atom_site_charge
N 	N 	0.86720 0.07640 0.08060 -0.22900
N 	N 	0.69340 0.08080 0.07090 -0.11400
N 	N 	0.79820 0.17480 0.17080 -0.11300
N 	N 	0.82240 0.24020 0.23250 -0.03200
N 	N 	0.68850 0.27230 0.22580 -0.04300
N 	N 	0.71290 0.33700 0.28960 -0.10200
N 	N 	0.63650 0.42890 0.40450 -0.21500
N 	N 	0.81070 0.42400 0.42260 -0.09000
N 	N 	0.14720 0.00330 0.18760 -0.21900
N 	N 	0.07110 0.00680 0.32500 -0.12600
N 	N 	0.34220 0.00370 0.36580 -0.09100
N 	N 	0.50290 0.00080 0.43090 -0.06700
C 	C 	0.92670 0.13250 0.14310 0.18400
H 	H 	0.04150 0.14210 0.16560 -0.05400
C 	C 	0.65530 0.14010 0.12560 0.09400
H 	H 	0.54500 0.15700 0.13310 0.01500
C 	C 	0.58180 0.37640 0.32540 0.10800
H 	H 	0.46800 0.36730 0.29740 0.00200
C 	C 	0.85150 0.36810 0.35520 0.10500
H 	H 	0.96210 0.35110 0.35170 0.03900
C 	C 	0.30930 0.00160 0.21360 0.01800
H 	H 	0.38990 0.99920 0.14020 0.06900
C 	C 	0.19020 0.00680 0.42930 0.08800
H 	H 	0.17480 0.00870 0.53360 0.01200
N 	N 	0.63280 0.57640 0.41940 -0.21500
N 	N 	0.80660 0.58080 0.42910 -0.08900
N 	N 	0.70180 0.67480 0.32920 -0.10100
N 	N 	0.67760 0.74020 0.26750 -0.04100
N 	N 	0.81150 0.77230 0.27420 -0.03100
N 	N 	0.78710 0.83700 0.21040 -0.11200
N 	N 	0.86350 0.92890 0.09550 -0.21200
N 	N 	0.68930 0.92400 0.07740 -0.10100
N 	N 	0.35280 0.50330 0.31240 -0.21400
N 	N 	0.42890 0.50680 0.17500 -0.08800
N 	N 	0.15780 0.50370 0.13420 -0.10500
N 	N 	0.99710 0.50080 0.06910 -0.03300
C 	C 	0.57330 0.63250 0.35690 0.10800
H 	H 	0.45850 0.64210 0.33440 0.00300
C 	C 	0.84470 0.64010 0.37440 0.10400
H 	H 	0.95500 0.65700 0.36690 0.03900
C 	C 	0.91820 0.87640 0.17460 0.18400
H 	H 	0.03200 0.86730 0.20260 -0.04400
C 	C 	0.64850 0.86810 0.14480 0.10000
H 	H 	0.53790 0.85110 0.14830 0.01900
C 	C 	0.19070 0.50160 0.28640 0.09800
H 	H 	0.11010 0.49920 0.35980 0.00700
C 	C 	0.30980 0.50680 0.07070 -0.00700
H 	H 	0.32520 0.50870 0.96640 0.10100
N 	N 	0.13280 0.92360 0.91940 -0.18000
N 	N 	0.30660 0.91920 0.92910 -0.07300
N 	N 	0.20180 0.82520 0.82920 -0.08800
N 	N 	0.17760 0.75980 0.76750 -0.04000
N 	N 	0.31150 0.72770 0.77420 -0.03200
N 	N 	0.28710 0.66300 0.71040 -0.09900
N 	N 	0.36350 0.57110 0.59550 -0.21500
N 	N 	0.18930 0.57600 0.57740 -0.10300
N 	N 	0.85280 0.99670 0.81240 -0.18900
N 	N 	0.92890 0.99320 0.67500 -0.07500
N 	N 	0.65780 0.99630 0.63420 -0.10400
N 	N 	0.49710 0.99920 0.56910 -0.00700
C 	C 	0.07330 0.86750 0.85690 0.04700
H 	H 	0.95850 0.85790 0.83440 0.06600
C 	C 	0.34470 0.85990 0.87440 0.11100
H 	H 	0.45500 0.84300 0.86690 0.03900
C 	C 	0.41820 0.62360 0.67460 0.11000
H 	H 	0.53200 0.63270 0.70260 0.01600
C 	C 	0.14850 0.63190 0.64480 0.10200
H 	H 	0.03790 0.64890 0.64830 0.01500
C 	C 	0.69070 0.99840 0.78640 0.18700
H 	H 	0.61010 0.00080 0.85980 -0.02300
C 	C 	0.80980 0.99320 0.57070 0.11300
H 	H 	0.82520 0.99130 0.46640 0.05300
N 	N 	0.36720 0.42360 0.58060 -0.21400
N 	N 	0.19340 0.41920 0.57090 -0.10200
N 	N 	0.29820 0.32520 0.67080 -0.09900
N 	N 	0.32240 0.25980 0.73250 -0.03300
N 	N 	0.18850 0.22770 0.72580 -0.04300
N 	N 	0.21290 0.16300 0.78960 -0.09000
N 	N 	0.13650 0.07110 0.90450 -0.19700
N 	N 	0.31070 0.07600 0.92260 -0.08900
N 	N 	0.64720 0.49670 0.68760 -0.21200
N 	N 	0.57110 0.49320 0.82500 -0.11300
N 	N 	0.84220 0.49630 0.86580 -0.09300
N 	N 	0.00290 0.49920 0.93090 -0.03800
C 	C 	0.42670 0.36750 0.64310 0.11000
H 	H 	0.54150 0.35790 0.66560 0.01500
C 	C 	0.15530 0.35990 0.62560 0.10000
H 	H 	0.04500 0.34300 0.63310 0.01600
C 	C 	0.08180 0.12360 0.82540 0.03900
H 	H 	0.96800 0.13270 0.79740 0.06100
C 	C 	0.35150 0.13190 0.85520 0.10700
H 	H 	0.46210 0.14890 0.85170 0.03500
C 	C 	0.80930 0.49840 0.71360 0.11200
H 	H 	0.88990 0.50080 0.64020 0.03200
C 	C 	0.69020 0.49320 0.92930 0.20400
H 	H 	0.67480 0.49130 0.03360 -0.03400
Fe	Fe	-0.00000 0.00000 -0.00000 1.10500
Fe	Fe	0.50000 0.50000 0.50000 1.18100
