data_crystal

_cell_length_a 12.29860
_cell_length_b 12.29860
_cell_length_c 5.24440
_cell_angle_alpha 90.00000
_cell_angle_beta  90.00000
_cell_angle_gamma 90.00000

_symmetry_space_group_name_	'P 1'
_symmetry_space_group_name_H-M	'P 1'

loop_
_symmetry_equiv_pos_as_xyz
  x,y,z

loop_
_atom_site_label
_atom_site_type_symbol
_atom_site_fract_x
_atom_site_fract_y
_atom_site_fract_z
_atom_site_charge
O 	O 	0.87310 0.41630 0.57600 -0.41300
Ni	Ni	0.01225 0.67929 0.25610 1.09900
S 	S 	0.69150 0.56127 0.31643 0.03100
O 	O 	0.96850 0.56929 0.52530 -0.42400
O 	O 	0.74430 0.87226 0.25520 -0.38400
N 	N 	0.87540 0.61770 0.06670 -0.18700
H 	H 	0.90650 0.59570 0.88120 0.06500
O 	O 	0.89740 0.79080 0.37410 -0.39500
C 	C 	0.81380 0.79550 0.23610 0.31300
C 	C 	0.89710 0.50220 0.45750 0.35500
C 	C 	0.83060 0.52460 0.21640 -0.14400
H 	H 	0.82850 0.45920 0.10970 0.09700
C 	C 	0.68080 0.65630 0.05380 -0.09800
H 	H 	0.66180 0.61900 0.89700 0.05900
H 	H 	0.62640 0.71140 0.08880 0.07400
C 	C 	0.79440 0.70680 0.03510 -0.09600
H 	H 	0.80320 0.73880 0.86520 0.04900
O 	O 	0.12690 0.58370 0.07600 -0.39300
Ni	Ni	0.98775 0.32071 0.75610 1.09200
S 	S 	0.30850 0.43873 0.81643 0.02000
O 	O 	0.03150 0.43071 0.02530 -0.40400
O 	O 	0.25570 0.12774 0.75520 -0.39000
N 	N 	0.12460 0.38230 0.56670 -0.19500
H 	H 	0.09350 0.40430 0.38120 0.07600
O 	O 	0.10260 0.20920 0.87410 -0.40400
C 	C 	0.18620 0.20450 0.73610 0.31600
C 	C 	0.10290 0.49780 0.95750 0.32000
C 	C 	0.16940 0.47540 0.71640 -0.13300
H 	H 	0.17150 0.54080 0.60970 0.08900
C 	C 	0.31920 0.34370 0.55380 -0.11300
H 	H 	0.33820 0.38100 0.39700 0.07400
H 	H 	0.37360 0.28860 0.58880 0.07500
C 	C 	0.20560 0.29320 0.53510 -0.11000
H 	H 	0.19680 0.26120 0.36520 0.06300
O 	O 	0.58370 0.87310 0.82600 -0.41600
Ni	Ni	0.32071 0.01225 0.50610 1.09800
S 	S 	0.43873 0.69150 0.56643 0.03000
O 	O 	0.43071 0.96850 0.77530 -0.42500
O 	O 	0.12774 0.74430 0.50520 -0.38700
N 	N 	0.38230 0.87540 0.31670 -0.19300
H 	H 	0.40430 0.90650 0.13120 0.07700
O 	O 	0.20920 0.89740 0.62410 -0.39700
C 	C 	0.20450 0.81380 0.48610 0.31400
C 	C 	0.49780 0.89710 0.70750 0.35500
C 	C 	0.47540 0.83060 0.46640 -0.14300
H 	H 	0.54080 0.82850 0.35970 0.09400
C 	C 	0.34370 0.68080 0.30380 -0.11800
H 	H 	0.38100 0.66180 0.14700 0.07700
H 	H 	0.28860 0.62640 0.33880 0.07900
C 	C 	0.29320 0.79440 0.28510 -0.10700
H 	H 	0.26120 0.80320 0.11520 0.06200
O 	O 	0.41630 0.12690 0.32600 -0.41300
Ni	Ni	0.67929 0.98775 0.00610 1.10100
S 	S 	0.56127 0.30850 0.06643 0.06000
O 	O 	0.56929 0.03150 0.27530 -0.42500
O 	O 	0.87226 0.25570 0.00520 -0.35900
N 	N 	0.61770 0.12460 0.81670 -0.19600
H 	H 	0.59570 0.09350 0.63120 0.07300
O 	O 	0.79080 0.10260 0.12410 -0.37300
C 	C 	0.79550 0.18620 0.98610 0.26800
C 	C 	0.50220 0.10290 0.20750 0.37200
C 	C 	0.52460 0.16940 0.96640 -0.17100
H 	H 	0.45920 0.17150 0.85970 0.09800
C 	C 	0.65630 0.31920 0.80380 -0.14200
H 	H 	0.61900 0.33820 0.64700 0.08000
H 	H 	0.71140 0.37360 0.83880 0.08000
C 	C 	0.70680 0.20560 0.78510 -0.09100
H 	H 	0.73880 0.19680 0.61520 0.05400
