data_crystal

_cell_length_a 8.35870
_cell_length_b 15.22530
_cell_length_c 15.22530
_cell_angle_alpha 90.00000
_cell_angle_beta  90.00000
_cell_angle_gamma 90.00000

_symmetry_space_group_name_	'P 1'
_symmetry_space_group_name_H-M	'P 1'

loop_
_symmetry_equiv_pos_as_xyz
  x,y,z

loop_
_atom_site_label
_atom_site_type_symbol
_atom_site_fract_x
_atom_site_fract_y
_atom_site_fract_z
_atom_site_charge
Mg	Mg	0.37003 0.11057 0.99945 1.47100
Mg	Mg	0.87003 0.88943 0.00055 1.47400
Mg	Mg	0.62003 0.50055 0.61057 1.47200
Mg	Mg	0.12003 0.49945 0.38943 1.46700
Mg	Mg	0.87997 0.38943 0.49945 1.47600
Mg	Mg	0.37997 0.61057 0.50055 1.47100
Mg	Mg	0.62997 0.99945 0.11057 1.47000
Mg	Mg	0.12997 0.00055 0.88943 1.46800
Mg	Mg	0.00000 0.09891 0.09891 1.46800
Mg	Mg	-0.00000 0.24748 0.24748 1.44100
Mg	Mg	0.50000 0.90109 0.90109 1.47600
Mg	Mg	0.50000 0.75252 0.75252 1.44900
Mg	Mg	0.25000 0.40109 0.59891 1.47600
Mg	Mg	0.25000 0.25252 0.74748 1.44800
Mg	Mg	0.75000 0.59891 0.40109 1.47600
Mg	Mg	0.75000 0.74748 0.25252 1.45000
H 	H 	0.92270 0.96300 0.13270 0.39200
H 	H 	0.54160 0.36950 0.18710 -0.00500
H 	H 	0.42270 0.03700 0.86730 0.37100
H 	H 	0.04160 0.63050 0.81290 -0.12800
H 	H 	0.17270 0.36730 0.46300 0.37400
H 	H 	0.79160 0.31290 0.86950 0.00700
H 	H 	0.67270 0.63270 0.53700 0.37300
H 	H 	0.29160 0.68710 0.13050 -0.02400
H 	H 	0.32730 0.53700 0.63270 0.36900
H 	H 	0.70840 0.13050 0.68710 0.00400
H 	H 	0.82730 0.46300 0.36730 0.36900
H 	H 	0.20840 0.86950 0.31290 -0.02700
H 	H 	0.07730 0.13270 0.96300 0.34900
H 	H 	0.45840 0.18710 0.36950 -0.01500
H 	H 	0.57730 0.86730 0.03700 0.37100
H 	H 	0.95840 0.81290 0.63050 0.10600
C 	C 	0.27454 0.24422 0.13532 0.42100
C 	C 	0.45947 0.49625 0.33333 0.43000
C 	C 	0.38467 0.42523 0.28131 -0.11800
C 	C 	0.30642 0.31677 0.19755 -0.14000
C 	C 	0.43658 0.37168 0.21291 0.07100
C 	C 	0.77454 0.75578 0.86468 0.44600
C 	C 	0.95947 0.50375 0.66667 0.57200
C 	C 	0.88467 0.57477 0.71869 -0.19200
C 	C 	0.80642 0.68323 0.80245 -0.18600
C 	C 	0.93658 0.62832 0.78709 0.27300
C 	C 	0.52454 0.36468 0.74422 0.41600
C 	C 	0.70947 0.16667 0.99625 0.39500
C 	C 	0.63467 0.21869 0.92523 -0.10100
C 	C 	0.55642 0.30245 0.81677 -0.12900
C 	C 	0.68658 0.28709 0.87168 0.06300
C 	C 	0.02454 0.63532 0.25578 0.33400
C 	C 	0.20947 0.83333 0.00375 0.41600
C 	C 	0.13467 0.78131 0.07477 -0.19600
C 	C 	0.05642 0.69755 0.18323 -0.19600
C 	C 	0.18658 0.71291 0.12832 0.10600
C 	C 	0.97546 0.25578 0.63532 0.50300
C 	C 	0.79053 0.00375 0.83333 0.39700
C 	C 	0.86533 0.07477 0.78131 -0.02900
C 	C 	0.94358 0.18323 0.69755 -0.06900
C 	C 	0.81342 0.12832 0.71291 0.03000
C 	C 	0.47546 0.74422 0.36468 0.42100
C 	C 	0.29053 0.99625 0.16667 0.40600
C 	C 	0.36533 0.92523 0.21869 -0.12200
C 	C 	0.44358 0.81677 0.30245 -0.13600
C 	C 	0.31342 0.87168 0.28709 0.07200
C 	C 	0.72546 0.13532 0.24422 0.41500
C 	C 	0.54053 0.33333 0.49625 0.43300
C 	C 	0.61533 0.28131 0.42523 -0.11900
C 	C 	0.69358 0.19755 0.31677 -0.12500
C 	C 	0.56342 0.21291 0.37168 0.07300
C 	C 	0.22546 0.86468 0.75578 0.39100
C 	C 	0.04053 0.66667 0.50375 0.29100
C 	C 	0.11533 0.71869 0.57477 -0.04500
C 	C 	0.19358 0.80245 0.68323 -0.08100
C 	C 	0.06342 0.78709 0.62832 -0.12700
N 	N 	0.23254 0.40392 0.30426 -0.22000
N 	N 	0.18527 0.33763 0.25339 -0.27600
N 	N 	0.73254 0.59608 0.69574 -0.19700
N 	N 	0.68527 0.66237 0.74661 -0.25200
N 	N 	0.48254 0.19574 0.90392 -0.21600
N 	N 	0.43527 0.24661 0.83763 -0.26500
N 	N 	0.98254 0.80426 0.09608 -0.15900
N 	N 	0.93527 0.75339 0.16237 -0.21600
N 	N 	0.01746 0.09608 0.80426 -0.26700
N 	N 	0.06473 0.16237 0.75339 -0.30700
N 	N 	0.51746 0.90392 0.19574 -0.21100
N 	N 	0.56473 0.83763 0.24661 -0.25800
N 	N 	0.76746 0.30426 0.40392 -0.20000
N 	N 	0.81473 0.25339 0.33763 -0.24400
N 	N 	0.26746 0.69574 0.59608 -0.22300
N 	N 	0.31473 0.74661 0.66237 -0.27000
O 	O 	0.37182 0.22542 0.07648 -0.50100
O 	O 	0.87034 0.98660 0.09693 -1.08300
O 	O 	0.14083 0.20480 0.14647 -0.74600
O 	O 	0.37243 0.52576 0.39601 -0.67400
O 	O 	0.59776 0.52217 0.31709 -0.51700
O 	O 	0.87182 0.77458 0.92352 -0.47300
O 	O 	0.37034 0.01340 0.90307 -1.09500
O 	O 	0.64083 0.79520 0.85353 -0.71800
O 	O 	0.87243 0.47424 0.60399 -0.68100
O 	O 	0.09776 0.47783 0.68291 -0.61500
O 	O 	0.62182 0.42352 0.72542 -0.49500
O 	O 	0.12034 0.40307 0.48660 -1.12600
O 	O 	0.39083 0.35353 0.70480 -0.71700
O 	O 	0.62243 0.10399 0.02576 -0.64700
O 	O 	0.84776 0.18291 0.02217 -0.46700
O 	O 	0.12182 0.57648 0.27458 -0.49800
O 	O 	0.62034 0.59693 0.51340 -1.08600
O 	O 	0.89083 0.64647 0.29520 -0.64000
O 	O 	0.12243 0.89601 0.97424 -0.68800
O 	O 	0.34776 0.81709 0.97783 -0.51000
O 	O 	0.87818 0.27458 0.57648 -0.50000
O 	O 	0.37966 0.51340 0.59693 -1.08700
O 	O 	0.10917 0.29520 0.64647 -0.79100
O 	O 	0.87757 0.97424 0.89601 -0.62300
O 	O 	0.65224 0.97783 0.81709 -0.50800
O 	O 	0.37818 0.72542 0.42352 -0.50300
O 	O 	0.87966 0.48660 0.40307 -1.04600
O 	O 	0.60917 0.70480 0.35353 -0.71400
O 	O 	0.37757 0.02576 0.10399 -0.65600
O 	O 	0.15224 0.02217 0.18291 -0.54100
O 	O 	0.62818 0.07648 0.22542 -0.48900
O 	O 	0.12966 0.09693 0.98660 -1.10400
O 	O 	0.85917 0.14647 0.20480 -0.67500
O 	O 	0.62757 0.39601 0.52576 -0.66600
O 	O 	0.40224 0.31709 0.52217 -0.52800
O 	O 	0.12818 0.92352 0.77458 -0.51900
O 	O 	0.62966 0.90307 0.01340 -1.09400
O 	O 	0.35917 0.85353 0.79520 -0.71000
O 	O 	0.12757 0.60399 0.47424 -0.66000
O 	O 	0.90224 0.68291 0.47783 -0.43100
