data_crystal

_cell_length_a 20.48300
_cell_length_b 21.89000
_cell_length_c 6.49300
_cell_angle_alpha 90.00000
_cell_angle_beta  90.00000
_cell_angle_gamma 90.00000

_symmetry_space_group_name_	'P 1'
_symmetry_space_group_name_H-M	'P 1'

loop_
_symmetry_equiv_pos_as_xyz
  x,y,z

loop_
_atom_site_label
_atom_site_type_symbol
_atom_site_fract_x
_atom_site_fract_y
_atom_site_fract_z
_atom_site_charge
Ag	Ag	0.73306 0.31585 0.51590 0.55600
Ag	Ag	0.50226 0.78320 0.51910 0.55900
Ag	Ag	0.83975 0.52923 0.01920 0.49500
S 	S 	0.55940 0.65930 0.52400 -0.48000
O 	O 	0.63810 0.37920 0.51500 -0.40400
O 	O 	0.70240 0.45590 0.53200 -0.92900
O 	O 	0.51010 0.68370 0.66600 -0.20600
O 	O 	0.55060 0.68060 0.31100 -0.20300
O 	O 	0.62650 0.66600 0.59900 -0.06200
O 	O 	0.51370 0.39290 0.50600 0.44100
H 	H 	0.62600 0.35100 0.61000 0.25200
C 	C 	0.64780 0.43430 0.51300 0.38500
C 	C 	0.58900 0.47650 0.54900 -0.05700
C 	C 	0.52640 0.45170 0.52900 -0.03800
C 	C 	0.47070 0.49880 0.53000 -0.24000
H 	H 	0.42830 0.48370 0.53110 0.09800
C 	C 	0.48070 0.55810 0.51300 0.69400
H 	H 	0.44550 0.58480 0.50570 0.10100
C 	C 	0.54480 0.57870 0.51500 -1.28800
C 	C 	0.59990 0.53930 0.50800 0.87200
H 	H 	0.64230 0.55440 0.50650 -0.19500
S 	S 	0.64500 0.43650 0.49100 0.25100
O 	O 	0.46310 0.67110 0.51900 -0.38300
O 	O 	0.56630 0.66700 0.47600 0.27700
O 	O 	0.64420 0.39300 0.66400 -0.21300
O 	O 	0.63930 0.40570 0.29000 -0.19800
O 	O 	0.69890 0.48030 0.49800 0.56700
O 	O 	0.40190 0.57550 0.54100 0.00600
H 	H 	0.43400 0.66300 0.36000 0.10600
C 	C 	0.51470 0.64350 0.52500 0.59300
C 	C 	0.51240 0.57350 0.54200 0.89300
C 	C 	0.45560 0.54330 0.50400 -1.04200
C 	C 	0.45920 0.47650 0.50300 0.44200
H 	H 	0.42020 0.45490 0.49280 -0.13200
C 	C 	0.50980 0.44750 0.52200 0.21600
H 	H 	0.51020 0.40500 0.51860 -0.47300
C 	C 	0.57190 0.48050 0.51800 -0.29400
C 	C 	0.57230 0.54430 0.53700 -0.05300
H 	H 	0.61130 0.56580 0.54740 -0.14000
N 	N 	0.79470 0.33760 0.83900 -0.13600
N 	N 	0.89200 0.32780 0.01200 -0.13700
N 	N 	0.83520 0.42700 0.01100 -0.15500
N 	N 	0.78570 0.34040 0.21500 -0.13500
C 	C 	0.85330 0.30540 0.84100 -0.00900
H 	H 	0.87650 0.31140 0.71220 0.01400
H 	H 	0.84450 0.26210 0.85730 0.03500
C 	C 	0.79690 0.40290 0.84400 -0.02300
H 	H 	0.75280 0.41830 0.85680 0.05800
H 	H 	0.81450 0.41760 0.71430 0.02600
C 	C 	0.75320 0.32170 0.03200 -0.00900
H 	H 	0.71110 0.34180 0.02390 0.04900
H 	H 	0.74580 0.27790 0.03490 0.02400
C 	C 	0.89980 0.39460 0.01600 0.03100
H 	H 	0.92780 0.40800 0.90460 -0.02400
H 	H 	0.92090 0.40550 0.14510 -0.01000
C 	C 	0.85630 0.31520 0.21000 -0.02500
H 	H 	0.88060 0.33330 0.32250 0.02000
H 	H 	0.85520 0.27140 0.23240 0.03900
C 	C 	0.79900 0.41090 0.21100 -0.03900
H 	H 	0.75800 0.43290 0.21880 0.04700
H 	H 	0.82550 0.42250 0.32840 0.02100
N 	N 	0.55630 0.20270 0.71500 -0.15300
N 	N 	0.56110 0.19810 0.33900 -0.13700
N 	N 	0.65470 0.23560 0.53000 -0.15100
N 	N 	0.62620 0.12800 0.51000 -0.16600
C 	C 	0.51920 0.21140 0.51500 -0.01400
H 	H 	0.50410 0.25330 0.50340 0.04600
H 	H 	0.48130 0.18480 0.51190 0.01700
C 	C 	0.61360 0.24090 0.70100 0.04400
H 	H 	0.63990 0.23180 0.82180 -0.00200
H 	H 	0.60020 0.28330 0.71260 -0.00800
C 	C 	0.58620 0.13430 0.69800 -0.01500
H 	H 	0.55130 0.10430 0.69770 -0.00600
H 	H 	0.61330 0.12680 0.81850 -0.00300
C 	C 	0.61510 0.24800 0.33900 -0.04700
H 	H 	0.59500 0.28800 0.34800 0.06500
H 	H 	0.64180 0.24630 0.21570 0.03600
C 	C 	0.58280 0.14190 0.33300 0.04400
H 	H 	0.54570 0.11440 0.33630 -0.01700
H 	H 	0.60640 0.13470 0.20570 -0.01200
C 	C 	0.67890 0.17270 0.52500 0.00700
H 	H 	0.70440 0.16510 0.64840 0.00800
H 	H 	0.70740 0.16760 0.40720 0.01200
Ag	Ag	0.26694 0.68415 0.01590 0.55500
Ag	Ag	0.49774 0.21680 0.01910 0.56700
Ag	Ag	0.16025 0.47077 0.51920 0.49500
S 	S 	0.44060 0.34070 0.02400 -0.52200
O 	O 	0.36190 0.62080 0.01500 -0.37500
O 	O 	0.29760 0.54410 0.03200 -0.51900
O 	O 	0.48990 0.31630 0.16600 -0.20100
O 	O 	0.44940 0.31940 0.81100 -0.21000
O 	O 	0.37350 0.33400 0.09900 -0.04600
O 	O 	0.48630 0.60710 0.00600 0.44800
H 	H 	0.37400 0.64900 0.11000 0.24200
C 	C 	0.35220 0.56570 0.01300 0.31700
C 	C 	0.41100 0.52350 0.04900 -0.06800
C 	C 	0.47360 0.54830 0.02900 -0.03700
C 	C 	0.52930 0.50120 0.03000 -0.21600
H 	H 	0.57170 0.51630 0.03110 0.10800
C 	C 	0.51930 0.44190 0.01300 0.69300
H 	H 	0.55450 0.41520 0.00570 0.10800
C 	C 	0.45520 0.42130 0.01500 -1.30900
C 	C 	0.40010 0.46070 0.00800 0.87300
H 	H 	0.35770 0.44560 0.00650 -0.16400
S 	S 	0.35500 0.56350 0.99100 0.23200
O 	O 	0.53690 0.32890 0.01900 -0.38300
O 	O 	0.43370 0.33300 0.97600 0.29300
O 	O 	0.35580 0.60700 0.16400 -0.21500
O 	O 	0.36070 0.59430 0.79000 -0.19500
O 	O 	0.30110 0.51970 0.99800 0.18900
O 	O 	0.59810 0.42450 0.04100 0.01200
H 	H 	0.56600 0.33700 0.86000 0.09700
C 	C 	0.48530 0.35650 0.02500 0.62200
C 	C 	0.48760 0.42650 0.04200 0.91700
C 	C 	0.54440 0.45670 0.00400 -1.07000
C 	C 	0.54080 0.52350 0.00300 0.44000
H 	H 	0.57980 0.54510 0.99280 -0.14800
C 	C 	0.49020 0.55250 0.02200 0.19900
H 	H 	0.48980 0.59500 0.01860 -0.46900
C 	C 	0.42810 0.51950 0.01800 -0.24900
C 	C 	0.42770 0.45570 0.03700 -0.04500
H 	H 	0.38870 0.43420 0.04740 -0.14700
N 	N 	0.20530 0.66240 0.33900 -0.13600
N 	N 	0.10800 0.67220 0.51200 -0.14100
N 	N 	0.16480 0.57300 0.51100 -0.15800
N 	N 	0.21430 0.65960 0.71500 -0.13800
C 	C 	0.14670 0.69460 0.34100 0.00400
H 	H 	0.12350 0.68860 0.21220 0.01300
H 	H 	0.15550 0.73790 0.35730 0.03600
C 	C 	0.20310 0.59710 0.34400 -0.00400
H 	H 	0.24720 0.58170 0.35680 0.04900
H 	H 	0.18550 0.58240 0.21430 0.01900
C 	C 	0.24680 0.67830 0.53200 -0.01700
H 	H 	0.28890 0.65820 0.52390 0.04500
H 	H 	0.25420 0.72210 0.53490 0.02200
C 	C 	0.10020 0.60540 0.51600 0.00500
H 	H 	0.07220 0.59200 0.40460 -0.00700
H 	H 	0.07910 0.59450 0.64510 -0.00500
C 	C 	0.14370 0.68480 0.71000 -0.02400
H 	H 	0.11940 0.66670 0.82250 0.01700
H 	H 	0.14480 0.72860 0.73240 0.03500
C 	C 	0.20100 0.58910 0.71100 -0.04100
H 	H 	0.24200 0.56710 0.71880 0.04600
H 	H 	0.17450 0.57750 0.82840 0.01800
N 	N 	0.44370 0.79730 0.21500 -0.15000
N 	N 	0.43890 0.80190 0.83900 -0.14100
N 	N 	0.34530 0.76440 0.03000 -0.14900
N 	N 	0.37380 0.87200 0.01000 -0.16500
C 	C 	0.48080 0.78860 0.01500 -0.00700
H 	H 	0.49590 0.74670 0.00340 0.04700
H 	H 	0.51870 0.81520 0.01190 0.01900
C 	C 	0.38640 0.75910 0.20100 0.04200
H 	H 	0.36010 0.76820 0.32180 0.00200
H 	H 	0.39980 0.71670 0.21260 -0.00500
C 	C 	0.41380 0.86570 0.19800 -0.01500
H 	H 	0.44870 0.89570 0.19770 -0.00300
H 	H 	0.38670 0.87320 0.31850 0.00000
C 	C 	0.38490 0.75200 0.83900 -0.05500
H 	H 	0.40500 0.71200 0.84800 0.06300
H 	H 	0.35820 0.75370 0.71570 0.03500
C 	C 	0.41720 0.85810 0.83300 0.03800
H 	H 	0.45430 0.88560 0.83630 -0.01900
H 	H 	0.39360 0.86530 0.70570 -0.01500
C 	C 	0.32110 0.82730 0.02500 0.02800
H 	H 	0.29560 0.83490 0.14840 0.00300
H 	H 	0.29260 0.83240 0.90720 -0.00300
Ag	Ag	0.23306 0.18415 0.51590 0.55700
Ag	Ag	0.00226 0.71680 0.51910 0.56000
Ag	Ag	0.33975 0.97077 0.01920 0.49600
S 	S 	0.05940 0.84070 0.52400 -0.48300
O 	O 	0.13810 0.12080 0.51500 -0.40400
O 	O 	0.20240 0.04410 0.53200 -0.93600
O 	O 	0.01010 0.81630 0.66600 -0.20600
O 	O 	0.05060 0.81940 0.31100 -0.20300
O 	O 	0.12650 0.83400 0.59900 -0.06100
O 	O 	0.01370 0.10710 0.50600 0.43900
H 	H 	0.12600 0.14900 0.61000 0.25200
C 	C 	0.14780 0.06570 0.51300 0.38700
C 	C 	0.08900 0.02350 0.54900 -0.06100
C 	C 	0.02640 0.04830 0.52900 -0.03400
C 	C 	0.97070 0.00120 0.53000 -0.24400
H 	H 	0.92830 0.01630 0.53110 0.10400
C 	C 	0.98070 0.94190 0.51300 0.71600
H 	H 	0.94550 0.91520 0.50570 0.09800
C 	C 	0.04480 0.92130 0.51500 -1.33400
C 	C 	0.09990 0.96070 0.50800 0.89700
H 	H 	0.14230 0.94560 0.50650 -0.20100
S 	S 	0.14500 0.06350 0.49100 0.25300
O 	O 	0.96310 0.82890 0.51900 -0.38300
O 	O 	0.06630 0.83300 0.47600 0.28400
O 	O 	0.14420 0.10700 0.66400 -0.21300
O 	O 	0.13930 0.09430 0.29000 -0.19900
O 	O 	0.19890 0.01970 0.49800 0.57500
O 	O 	0.90190 0.92450 0.54100 0.01300
H 	H 	0.93400 0.83700 0.36000 0.10600
C 	C 	0.01470 0.85650 0.52500 0.59400
C 	C 	0.01240 0.92650 0.54200 0.92600
C 	C 	0.95560 0.95670 0.50400 -1.07000
C 	C 	0.95920 0.02350 0.50300 0.44100
H 	H 	0.92020 0.04510 0.49280 -0.13600
C 	C 	0.00980 0.05250 0.52200 0.21900
H 	H 	0.01020 0.09500 0.51860 -0.47100
C 	C 	0.07190 0.01950 0.51800 -0.29800
C 	C 	0.07230 0.95570 0.53700 -0.05100
H 	H 	0.11130 0.93420 0.54740 -0.14500
N 	N 	0.29470 0.16240 0.83900 -0.13600
N 	N 	0.39200 0.17220 0.01200 -0.13700
N 	N 	0.33520 0.07300 0.01100 -0.15500
N 	N 	0.28570 0.15960 0.21500 -0.13500
C 	C 	0.35330 0.19460 0.84100 -0.00900
H 	H 	0.37650 0.18860 0.71220 0.01400
H 	H 	0.34450 0.23790 0.85730 0.03500
C 	C 	0.29690 0.09710 0.84400 -0.02300
H 	H 	0.25280 0.08170 0.85680 0.05800
H 	H 	0.31450 0.08240 0.71430 0.02600
C 	C 	0.25320 0.17830 0.03200 -0.00800
H 	H 	0.21110 0.15820 0.02390 0.04900
H 	H 	0.24580 0.22210 0.03490 0.02400
C 	C 	0.39980 0.10540 0.01600 0.03200
H 	H 	0.42780 0.09200 0.90460 -0.02400
H 	H 	0.42090 0.09450 0.14510 -0.01000
C 	C 	0.35630 0.18480 0.21000 -0.02500
H 	H 	0.38060 0.16670 0.32250 0.02000
H 	H 	0.35520 0.22860 0.23240 0.03900
C 	C 	0.29900 0.08910 0.21100 -0.03900
H 	H 	0.25800 0.06710 0.21880 0.04700
H 	H 	0.32550 0.07750 0.32840 0.02100
N 	N 	0.05630 0.29730 0.71500 -0.15300
N 	N 	0.06110 0.30190 0.33900 -0.13700
N 	N 	0.15470 0.26440 0.53000 -0.15100
N 	N 	0.12620 0.37200 0.51000 -0.16600
C 	C 	0.01920 0.28860 0.51500 -0.01000
H 	H 	0.00410 0.24670 0.50340 0.04600
H 	H 	0.98130 0.31520 0.51190 0.01500
C 	C 	0.11360 0.25910 0.70100 0.04400
H 	H 	0.13990 0.26820 0.82180 -0.00200
H 	H 	0.10020 0.21670 0.71260 -0.00800
C 	C 	0.08620 0.36570 0.69800 -0.01500
H 	H 	0.05130 0.39570 0.69770 -0.00500
H 	H 	0.11330 0.37320 0.81850 -0.00200
C 	C 	0.11510 0.25200 0.33900 -0.04700
H 	H 	0.09500 0.21200 0.34800 0.06500
H 	H 	0.14180 0.25370 0.21570 0.03700
C 	C 	0.08280 0.35810 0.33300 0.04400
H 	H 	0.04570 0.38560 0.33630 -0.01600
H 	H 	0.10640 0.36530 0.20570 -0.01200
C 	C 	0.17890 0.32730 0.52500 0.00700
H 	H 	0.20440 0.33490 0.64840 0.00800
H 	H 	0.20740 0.33240 0.40720 0.01200
Ag	Ag	0.76694 0.81585 0.01590 0.55600
Ag	Ag	0.99774 0.28320 0.01910 0.56600
Ag	Ag	0.66025 0.02923 0.51920 0.49400
S 	S 	0.94060 0.15930 0.02400 -0.52700
O 	O 	0.86190 0.87920 0.01500 -0.37600
O 	O 	0.79760 0.95590 0.03200 -0.54600
O 	O 	0.98990 0.18370 0.16600 -0.20200
O 	O 	0.94940 0.18060 0.81100 -0.21200
O 	O 	0.87350 0.16600 0.09900 -0.04600
O 	O 	0.98630 0.89290 0.00600 0.44600
H 	H 	0.87400 0.85100 0.11000 0.24300
C 	C 	0.85220 0.93430 0.01300 0.32100
C 	C 	0.91100 0.97650 0.04900 -0.06800
C 	C 	0.97360 0.95170 0.02900 -0.03800
C 	C 	0.02930 0.99880 0.03000 -0.21900
H 	H 	0.07170 0.98370 0.03110 0.10900
C 	C 	0.01930 0.05810 0.01300 0.71100
H 	H 	0.05450 0.08480 0.00570 0.10700
C 	C 	0.95520 0.07870 0.01500 -1.35500
C 	C 	0.90010 0.03930 0.00800 0.89600
H 	H 	0.85770 0.05440 0.00650 -0.17300
S 	S 	0.85500 0.93650 0.99100 0.23400
O 	O 	0.03690 0.17110 0.01900 -0.38000
O 	O 	0.93370 0.16700 0.97600 0.30200
O 	O 	0.85580 0.89300 0.16400 -0.21400
O 	O 	0.86070 0.90570 0.79000 -0.19600
O 	O 	0.80110 0.98030 0.99800 0.21500
O 	O 	0.09810 0.07550 0.04100 0.01900
H 	H 	0.06600 0.16300 0.86000 0.09700
C 	C 	0.98530 0.14350 0.02500 0.61900
C 	C 	0.98760 0.07350 0.04200 0.95300
C 	C 	0.04440 0.04330 0.00400 -1.09800
C 	C 	0.04080 0.97650 0.00300 0.44600
H 	H 	0.07980 0.95490 0.99280 -0.15200
C 	C 	0.99020 0.94750 0.02200 0.20300
H 	H 	0.98980 0.90500 0.01860 -0.46800
C 	C 	0.92810 0.98050 0.01800 -0.25400
C 	C 	0.92770 0.04430 0.03700 -0.04800
H 	H 	0.88870 0.06580 0.04740 -0.14900
N 	N 	0.70530 0.83760 0.33900 -0.13500
N 	N 	0.60800 0.82780 0.51200 -0.14100
N 	N 	0.66480 0.92700 0.51100 -0.15800
N 	N 	0.71430 0.84040 0.71500 -0.13800
C 	C 	0.64670 0.80540 0.34100 0.00400
H 	H 	0.62350 0.81140 0.21220 0.01300
H 	H 	0.65550 0.76210 0.35730 0.03600
C 	C 	0.70310 0.90290 0.34400 -0.00500
H 	H 	0.74720 0.91830 0.35680 0.05000
H 	H 	0.68550 0.91760 0.21430 0.01900
C 	C 	0.74680 0.82170 0.53200 -0.01700
H 	H 	0.78890 0.84180 0.52390 0.04500
H 	H 	0.75420 0.77790 0.53490 0.02200
C 	C 	0.60020 0.89460 0.51600 0.00500
H 	H 	0.57220 0.90800 0.40460 -0.00700
H 	H 	0.57910 0.90550 0.64510 -0.00400
C 	C 	0.64370 0.81520 0.71000 -0.02400
H 	H 	0.61940 0.83330 0.82250 0.01700
H 	H 	0.64480 0.77140 0.73240 0.03600
C 	C 	0.70100 0.91090 0.71100 -0.04100
H 	H 	0.74200 0.93290 0.71880 0.04600
H 	H 	0.67450 0.92250 0.82840 0.01800
N 	N 	0.94370 0.70270 0.21500 -0.15000
N 	N 	0.93890 0.69810 0.83900 -0.14100
N 	N 	0.84530 0.73560 0.03000 -0.14900
N 	N 	0.87380 0.62800 0.01000 -0.16500
C 	C 	0.98080 0.71140 0.01500 -0.00700
H 	H 	0.99590 0.75330 0.00340 0.04700
H 	H 	0.01870 0.68480 0.01190 0.01900
C 	C 	0.88640 0.74090 0.20100 0.04200
H 	H 	0.86010 0.73180 0.32180 0.00200
H 	H 	0.89980 0.78330 0.21260 -0.00500
C 	C 	0.91380 0.63430 0.19800 -0.01500
H 	H 	0.94870 0.60430 0.19770 -0.00300
H 	H 	0.88670 0.62680 0.31850 -0.00000
C 	C 	0.88490 0.74800 0.83900 -0.05500
H 	H 	0.90500 0.78800 0.84800 0.06300
H 	H 	0.85820 0.74630 0.71570 0.03500
C 	C 	0.91720 0.64190 0.83300 0.03800
H 	H 	0.95430 0.61440 0.83630 -0.01900
H 	H 	0.89360 0.63470 0.70570 -0.01500
C 	C 	0.82110 0.67270 0.02500 0.02800
H 	H 	0.79560 0.66510 0.14840 0.00300
H 	H 	0.79260 0.66760 0.90720 -0.00300
