data_crystal

_cell_length_a 32.09900
_cell_length_b 12.91600
_cell_length_c 21.43100
_cell_angle_alpha 90.00000
_cell_angle_beta  126.74000
_cell_angle_gamma 90.00000

_symmetry_space_group_name_	'P 1'
_symmetry_space_group_name_H-M	'P 1'

loop_
_symmetry_equiv_pos_as_xyz
  x,y,z

loop_
_atom_site_label
_atom_site_type_symbol
_atom_site_fract_x
_atom_site_fract_y
_atom_site_fract_z
_atom_site_charge
Ag	Ag	0.17373 0.01881 0.91546 0.47700
Ag	Ag	0.11035 0.79964 0.10196 0.46900
N 	N 	0.07638 0.73630 0.86840 -0.17500
N 	N 	0.11760 0.78050 0.00410 -0.17700
N 	N 	0.14529 0.86810 0.93290 -0.17300
N 	N 	0.16689 0.68640 0.96880 -0.12200
C 	C 	0.13610 0.87900 0.99200 0.01800
H 	H 	0.16760 0.90080 0.04030 -0.02300
H 	H 	0.11030 0.93150 0.97560 -0.02600
C 	C 	0.15790 0.70030 0.02800 0.01400
H 	H 	0.14610 0.63590 0.03480 -0.00800
H 	H 	0.18980 0.71880 0.07710 -0.00800
C 	C 	0.06890 0.74890 0.92870 0.03000
H 	H 	0.05700 0.68490 0.93570 -0.03300
H 	H 	0.04280 0.80090 0.91230 -0.03100
C 	C 	0.09570 0.83340 0.85900 0.02300
H 	H 	0.06990 0.88590 0.84250 -0.02100
H 	H 	0.10040 0.82540 0.81900 -0.02300
C 	C 	0.11710 0.65650 0.89390 0.01200
H 	H 	0.12210 0.64670 0.85430 -0.00700
H 	H 	0.10540 0.59210 0.90090 -0.01100
C 	C 	0.18420 0.78600 0.95790 0.00700
H 	H 	0.21620 0.80630 0.00620 0.00500
H 	H 	0.19070 0.77790 0.91990 0.00100
N 	N 	0.87932 0.23520 0.78630 -0.17400
N 	N 	0.92271 0.28750 0.72810 -0.17000
N 	N 	0.85173 0.16150 0.66230 -0.17000
N 	N 	0.83356 0.34280 0.66900 -0.12200
C 	C 	0.85940 0.14220 0.73660 0.01900
H 	H 	0.82650 0.12470 0.72540 -0.01900
H 	H 	0.88260 0.08490 0.76350 -0.02200
C 	C 	0.92930 0.26700 0.80100 0.01700
H 	H 	0.95420 0.21220 0.82830 -0.01800
H 	H 	0.94280 0.32760 0.83340 -0.01900
C 	C 	0.84180 0.32110 0.74330 0.01300
H 	H 	0.85400 0.38240 0.77490 -0.00400
H 	H 	0.80920 0.30140 0.73250 -0.00400
C 	C 	0.88330 0.37090 0.68610 0.01700
H 	H 	0.87820 0.38530 0.63800 -0.00300
H 	H 	0.89600 0.43290 0.71690 -0.00600
C 	C 	0.81400 0.24800 0.62160 0.01100
H 	H 	0.78180 0.22840 0.61200 -0.00300
H 	H 	0.80750 0.26090 0.57240 -0.00600
C 	C 	0.90180 0.19330 0.67920 0.01400
H 	H 	0.92630 0.13780 0.70560 -0.01600
H 	H 	0.89690 0.20570 0.63100 -0.02000
Ag	Ag	0.82627 0.01881 0.58454 0.48100
Ag	Ag	0.88965 0.79964 0.39804 0.47600
N 	N 	0.92362 0.73630 0.63160 -0.16500
N 	N 	0.88240 0.78050 0.49590 -0.17400
N 	N 	0.85471 0.86810 0.56710 -0.17000
N 	N 	0.83311 0.68640 0.53120 -0.11900
C 	C 	0.86390 0.87900 0.50800 0.01800
H 	H 	0.83240 0.90080 0.45970 -0.02100
H 	H 	0.88970 0.93150 0.52440 -0.02000
C 	C 	0.84210 0.70030 0.47200 0.01200
H 	H 	0.85390 0.63590 0.46520 -0.00400
H 	H 	0.81020 0.71880 0.42290 -0.00600
C 	C 	0.93110 0.74890 0.57130 0.02100
H 	H 	0.94300 0.68490 0.56430 -0.01900
H 	H 	0.95720 0.80090 0.58770 -0.01600
C 	C 	0.90430 0.83340 0.64100 0.01500
H 	H 	0.93010 0.88590 0.65750 -0.01000
H 	H 	0.89960 0.82540 0.68100 -0.01500
C 	C 	0.88290 0.65650 0.60610 0.00800
H 	H 	0.87790 0.64670 0.64570 -0.00100
H 	H 	0.89460 0.59210 0.59910 -0.00400
C 	C 	0.81580 0.78600 0.54210 0.00800
H 	H 	0.78380 0.80630 0.49380 0.00400
H 	H 	0.80930 0.77790 0.58010 0.00200
N 	N 	0.12068 0.23520 0.71370 -0.17700
N 	N 	0.07729 0.28750 0.77190 -0.17900
N 	N 	0.14827 0.16150 0.83770 -0.17200
N 	N 	0.16644 0.34280 0.83100 -0.12300
C 	C 	0.14060 0.14220 0.76340 0.02200
H 	H 	0.17350 0.12470 0.77460 -0.02100
H 	H 	0.11740 0.08490 0.73650 -0.02800
C 	C 	0.07070 0.26700 0.69900 0.02600
H 	H 	0.04580 0.21220 0.67170 -0.03200
H 	H 	0.05720 0.32760 0.66660 -0.03200
C 	C 	0.15820 0.32110 0.75670 0.01500
H 	H 	0.14600 0.38240 0.72510 -0.00700
H 	H 	0.19080 0.30140 0.76750 -0.00500
C 	C 	0.11670 0.37090 0.81390 0.02200
H 	H 	0.12180 0.38530 0.86200 -0.00900
H 	H 	0.10400 0.43290 0.78310 -0.01300
C 	C 	0.18600 0.24800 0.87840 0.01300
H 	H 	0.21820 0.22840 0.88800 -0.00400
H 	H 	0.19250 0.26090 0.92760 -0.00800
C 	C 	0.09820 0.19330 0.82080 0.02100
H 	H 	0.07370 0.13780 0.79440 -0.02700
H 	H 	0.10310 0.20570 0.86900 -0.02900
Ag	Ag	0.82627 0.98119 0.08454 0.48100
Ag	Ag	0.88965 0.20036 0.89804 0.47500
N 	N 	0.92362 0.26370 0.13160 -0.16500
N 	N 	0.88240 0.21950 0.99590 -0.17800
N 	N 	0.85471 0.13190 0.06710 -0.17200
N 	N 	0.83311 0.31360 0.03120 -0.11800
C 	C 	0.86390 0.12100 0.00800 0.02800
H 	H 	0.83240 0.09920 0.95970 -0.02600
H 	H 	0.88970 0.06850 0.02440 -0.02200
C 	C 	0.84210 0.29970 0.97200 0.00900
H 	H 	0.85390 0.36410 0.96520 -0.00400
H 	H 	0.81020 0.28120 0.92290 -0.00600
C 	C 	0.93110 0.25110 0.07130 0.02400
H 	H 	0.94300 0.31510 0.06430 -0.01900
H 	H 	0.95720 0.19910 0.08770 -0.01600
C 	C 	0.90430 0.16660 0.14100 0.01500
H 	H 	0.93010 0.11410 0.15750 -0.00900
H 	H 	0.89960 0.17460 0.18100 -0.01400
C 	C 	0.88290 0.34350 0.10610 0.00800
H 	H 	0.87790 0.35330 0.14570 -0.00100
H 	H 	0.89460 0.40790 0.09910 -0.00400
C 	C 	0.81580 0.21400 0.04210 0.01400
H 	H 	0.78380 0.19370 0.99380 -0.00000
H 	H 	0.80930 0.22210 0.08010 0.00100
N 	N 	0.12068 0.76480 0.21370 -0.17700
N 	N 	0.07729 0.71250 0.27190 -0.17900
N 	N 	0.14827 0.83850 0.33770 -0.17200
N 	N 	0.16644 0.65720 0.33100 -0.12300
C 	C 	0.14060 0.85780 0.26340 0.02200
H 	H 	0.17350 0.87530 0.27460 -0.02000
H 	H 	0.11740 0.91510 0.23650 -0.02800
C 	C 	0.07070 0.73300 0.19900 0.02600
H 	H 	0.04580 0.78780 0.17170 -0.03200
H 	H 	0.05720 0.67240 0.16660 -0.03100
C 	C 	0.15820 0.67890 0.25670 0.01400
H 	H 	0.14600 0.61760 0.22510 -0.00700
H 	H 	0.19080 0.69860 0.26750 -0.00500
C 	C 	0.11670 0.62910 0.31390 0.02200
H 	H 	0.12180 0.61470 0.36200 -0.00900
H 	H 	0.10400 0.56710 0.28310 -0.01300
C 	C 	0.18600 0.75200 0.37840 0.01200
H 	H 	0.21820 0.77160 0.38800 -0.00300
H 	H 	0.19250 0.73910 0.42760 -0.00700
C 	C 	0.09820 0.80670 0.32080 0.02100
H 	H 	0.07370 0.86220 0.29440 -0.02700
H 	H 	0.10310 0.79430 0.36900 -0.02900
Ag	Ag	0.17373 0.98119 0.41546 0.47900
Ag	Ag	0.11035 0.20036 0.60196 0.47000
N 	N 	0.07638 0.26370 0.36840 -0.17500
N 	N 	0.11760 0.21950 0.50410 -0.17700
N 	N 	0.14529 0.13190 0.43290 -0.17300
N 	N 	0.16689 0.31360 0.46880 -0.12000
C 	C 	0.13610 0.12100 0.49200 0.02100
H 	H 	0.16760 0.09920 0.54030 -0.02300
H 	H 	0.11030 0.06850 0.47560 -0.02600
C 	C 	0.15790 0.29970 0.52800 0.01400
H 	H 	0.14610 0.36410 0.53480 -0.00700
H 	H 	0.18980 0.28120 0.57710 -0.00700
C 	C 	0.06890 0.25110 0.42870 0.03100
H 	H 	0.05700 0.31510 0.43570 -0.03300
H 	H 	0.04280 0.19910 0.41230 -0.03100
C 	C 	0.09570 0.16660 0.35900 0.02300
H 	H 	0.06990 0.11410 0.34250 -0.02100
H 	H 	0.10040 0.17460 0.31900 -0.02300
C 	C 	0.11710 0.34350 0.39390 0.01200
H 	H 	0.12210 0.35330 0.35430 -0.00600
H 	H 	0.10540 0.40790 0.40090 -0.01100
C 	C 	0.18420 0.21400 0.45790 0.00900
H 	H 	0.21620 0.19370 0.50620 0.00400
H 	H 	0.19070 0.22210 0.41990 0.00100
N 	N 	0.87932 0.76480 0.28630 -0.17300
N 	N 	0.92271 0.71250 0.22810 -0.16900
N 	N 	0.85173 0.83850 0.16230 -0.17000
N 	N 	0.83356 0.65720 0.16900 -0.12100
C 	C 	0.85940 0.85780 0.23660 0.01900
H 	H 	0.82650 0.87530 0.22540 -0.01800
H 	H 	0.88260 0.91510 0.26350 -0.02200
C 	C 	0.92930 0.73300 0.30100 0.01600
H 	H 	0.95420 0.78780 0.32830 -0.01700
H 	H 	0.94280 0.67240 0.33340 -0.01800
C 	C 	0.84180 0.67890 0.24330 0.01200
H 	H 	0.85400 0.61760 0.27490 -0.00300
H 	H 	0.80920 0.69860 0.23250 -0.00400
C 	C 	0.88330 0.62910 0.18610 0.01700
H 	H 	0.87820 0.61470 0.13800 -0.00300
H 	H 	0.89600 0.56710 0.21690 -0.00600
C 	C 	0.81400 0.75200 0.12160 0.01100
H 	H 	0.78180 0.77160 0.11200 -0.00200
H 	H 	0.80750 0.73910 0.07240 -0.00500
C 	C 	0.90180 0.80670 0.17920 0.01400
H 	H 	0.92630 0.86220 0.20560 -0.01600
H 	H 	0.89690 0.79430 0.13100 -0.02000
Ag	Ag	0.00000 0.67989 0.75000 0.44700
Ag	Ag	0.00000 0.32220 0.75000 0.45200
Ag	Ag	0.00000 0.32011 0.25000 0.44800
Ag	Ag	0.00000 0.67780 0.25000 0.45200
Ag	Ag	0.67373 0.51881 0.91546 0.47900
Ag	Ag	0.61035 0.29964 0.10196 0.47300
N 	N 	0.57638 0.23630 0.86840 -0.17100
N 	N 	0.61760 0.28050 0.00410 -0.17400
N 	N 	0.64529 0.36810 0.93290 -0.17000
N 	N 	0.66689 0.18640 0.96880 -0.12000
C 	C 	0.63610 0.37900 0.99200 0.01300
H 	H 	0.66760 0.40080 0.04030 -0.01900
H 	H 	0.61030 0.43150 0.97560 -0.02200
C 	C 	0.65790 0.20030 0.02800 0.01500
H 	H 	0.64610 0.13590 0.03480 -0.00500
H 	H 	0.68980 0.21880 0.07710 -0.00700
C 	C 	0.56890 0.24890 0.92870 0.02500
H 	H 	0.55700 0.18490 0.93570 -0.02700
H 	H 	0.54280 0.30090 0.91230 -0.02400
C 	C 	0.59570 0.33340 0.85900 0.01900
H 	H 	0.56990 0.38590 0.84250 -0.01600
H 	H 	0.60040 0.32540 0.81900 -0.02000
C 	C 	0.61710 0.15650 0.89390 0.01000
H 	H 	0.62210 0.14670 0.85430 -0.00500
H 	H 	0.60540 0.09210 0.90090 -0.00900
C 	C 	0.68420 0.28600 0.95790 0.00200
H 	H 	0.71620 0.30630 0.00620 0.00800
H 	H 	0.69070 0.27790 0.91990 0.00300
N 	N 	0.37932 0.73520 0.78630 -0.17500
N 	N 	0.42271 0.78750 0.72810 -0.17600
N 	N 	0.35173 0.66150 0.66230 -0.17100
N 	N 	0.33356 0.84280 0.66900 -0.12300
C 	C 	0.35940 0.64220 0.73660 0.02100
H 	H 	0.32650 0.62470 0.72540 -0.02000
H 	H 	0.38260 0.58490 0.76350 -0.02500
C 	C 	0.42930 0.76700 0.80100 0.02200
H 	H 	0.45420 0.71220 0.82830 -0.02600
H 	H 	0.44280 0.82760 0.83340 -0.02600
C 	C 	0.34180 0.82110 0.74330 0.01400
H 	H 	0.35400 0.88240 0.77490 -0.00500
H 	H 	0.30920 0.80140 0.73250 -0.00500
C 	C 	0.38330 0.87090 0.68610 0.02000
H 	H 	0.37820 0.88530 0.63800 -0.00700
H 	H 	0.39600 0.93290 0.71690 -0.01100
C 	C 	0.31400 0.74800 0.62160 0.01200
H 	H 	0.28180 0.72840 0.61200 -0.00300
H 	H 	0.30750 0.76090 0.57240 -0.00700
C 	C 	0.40180 0.69330 0.67920 0.01800
H 	H 	0.42630 0.63780 0.70560 -0.02200
H 	H 	0.39690 0.70570 0.63100 -0.02500
Ag	Ag	0.32627 0.51881 0.58454 0.47900
Ag	Ag	0.38965 0.29964 0.39804 0.47300
N 	N 	0.42362 0.23630 0.63160 -0.17200
N 	N 	0.38240 0.28050 0.49590 -0.17600
N 	N 	0.35471 0.36810 0.56710 -0.17200
N 	N 	0.33311 0.18640 0.53120 -0.12000
C 	C 	0.36390 0.37900 0.50800 0.02000
H 	H 	0.33240 0.40080 0.45970 -0.02200
H 	H 	0.38970 0.43150 0.52440 -0.02300
C 	C 	0.34210 0.20030 0.47200 0.01300
H 	H 	0.35390 0.13590 0.46520 -0.00600
H 	H 	0.31020 0.21880 0.42290 -0.00700
C 	C 	0.43110 0.24890 0.57130 0.02700
H 	H 	0.44300 0.18490 0.56430 -0.02700
H 	H 	0.45720 0.30090 0.58770 -0.02400
C 	C 	0.40430 0.33340 0.64100 0.02000
H 	H 	0.43010 0.38590 0.65750 -0.01600
H 	H 	0.39960 0.32540 0.68100 -0.02000
C 	C 	0.38290 0.15650 0.60610 0.01000
H 	H 	0.37790 0.14670 0.64570 -0.00500
H 	H 	0.39460 0.09210 0.59910 -0.00900
C 	C 	0.31580 0.28600 0.54210 0.00800
H 	H 	0.28380 0.30630 0.49380 0.00400
H 	H 	0.30930 0.27790 0.58010 0.00100
N 	N 	0.62068 0.73520 0.71370 -0.17500
N 	N 	0.57729 0.78750 0.77190 -0.17600
N 	N 	0.64827 0.66150 0.83770 -0.17100
N 	N 	0.66644 0.84280 0.83100 -0.12200
C 	C 	0.64060 0.64220 0.76340 0.02000
H 	H 	0.67350 0.62470 0.77460 -0.01900
H 	H 	0.61740 0.58490 0.73650 -0.02500
C 	C 	0.57070 0.76700 0.69900 0.02200
H 	H 	0.54580 0.71220 0.67170 -0.02600
H 	H 	0.55720 0.82760 0.66660 -0.02600
C 	C 	0.65820 0.82110 0.75670 0.01300
H 	H 	0.64600 0.88240 0.72510 -0.00500
H 	H 	0.69080 0.80140 0.76750 -0.00400
C 	C 	0.61670 0.87090 0.81390 0.02000
H 	H 	0.62180 0.88530 0.86200 -0.00700
H 	H 	0.60400 0.93290 0.78310 -0.01100
C 	C 	0.68600 0.74800 0.87840 0.01200
H 	H 	0.71820 0.72840 0.88800 -0.00300
H 	H 	0.69250 0.76090 0.92760 -0.00700
C 	C 	0.59820 0.69330 0.82080 0.01800
H 	H 	0.57370 0.63780 0.79440 -0.02200
H 	H 	0.60310 0.70570 0.86900 -0.02600
Ag	Ag	0.32627 0.48119 0.08454 0.48000
Ag	Ag	0.38965 0.70036 0.89804 0.47200
N 	N 	0.42362 0.76370 0.13160 -0.17200
N 	N 	0.38240 0.71950 0.99590 -0.17700
N 	N 	0.35471 0.63190 0.06710 -0.17200
N 	N 	0.33311 0.81360 0.03120 -0.12000
C 	C 	0.36390 0.62100 0.00800 0.02300
H 	H 	0.33240 0.59920 0.95970 -0.02400
H 	H 	0.38970 0.56850 0.02440 -0.02400
C 	C 	0.34210 0.79970 0.97200 0.01200
H 	H 	0.35390 0.86410 0.96520 -0.00600
H 	H 	0.31020 0.78120 0.92290 -0.00700
C 	C 	0.43110 0.75110 0.07130 0.02700
H 	H 	0.44300 0.81510 0.06430 -0.02700
H 	H 	0.45720 0.69910 0.08770 -0.02500
C 	C 	0.40430 0.66660 0.14100 0.02000
H 	H 	0.43010 0.61410 0.15750 -0.01600
H 	H 	0.39960 0.67460 0.18100 -0.02000
C 	C 	0.38290 0.84350 0.10610 0.01100
H 	H 	0.37790 0.85330 0.14570 -0.00500
H 	H 	0.39460 0.90790 0.09910 -0.00900
C 	C 	0.31580 0.71400 0.04210 0.01000
H 	H 	0.28380 0.69370 0.99380 0.00200
H 	H 	0.30930 0.72210 0.08010 0.00100
N 	N 	0.62068 0.26480 0.21370 -0.17500
N 	N 	0.57729 0.21250 0.27190 -0.17600
N 	N 	0.64827 0.33850 0.33770 -0.17100
N 	N 	0.66644 0.15720 0.33100 -0.12200
C 	C 	0.64060 0.35780 0.26340 0.02000
H 	H 	0.67350 0.37530 0.27460 -0.01900
H 	H 	0.61740 0.41510 0.23650 -0.02500
C 	C 	0.57070 0.23300 0.19900 0.02100
H 	H 	0.54580 0.28780 0.17170 -0.02600
H 	H 	0.55720 0.17240 0.16660 -0.02600
C 	C 	0.65820 0.17890 0.25670 0.01300
H 	H 	0.64600 0.11760 0.22510 -0.00500
H 	H 	0.69080 0.19860 0.26750 -0.00400
C 	C 	0.61670 0.12910 0.31390 0.02000
H 	H 	0.62180 0.11470 0.36200 -0.00700
H 	H 	0.60400 0.06710 0.28310 -0.01000
C 	C 	0.68600 0.25200 0.37840 0.01100
H 	H 	0.71820 0.27160 0.38800 -0.00200
H 	H 	0.69250 0.23910 0.42760 -0.00600
C 	C 	0.59820 0.30670 0.32080 0.01800
H 	H 	0.57370 0.36220 0.29440 -0.02200
H 	H 	0.60310 0.29430 0.36900 -0.02500
Ag	Ag	0.67373 0.48119 0.41546 0.48000
Ag	Ag	0.61035 0.70036 0.60196 0.47300
N 	N 	0.57638 0.76370 0.36840 -0.17200
N 	N 	0.61760 0.71950 0.50410 -0.17600
N 	N 	0.64529 0.63190 0.43290 -0.17100
N 	N 	0.66689 0.81360 0.46880 -0.11900
C 	C 	0.63610 0.62100 0.49200 0.02000
H 	H 	0.66760 0.59920 0.54030 -0.02200
H 	H 	0.61030 0.56850 0.47560 -0.02300
C 	C 	0.65790 0.79970 0.52800 0.01300
H 	H 	0.64610 0.86410 0.53480 -0.00600
H 	H 	0.68980 0.78120 0.57710 -0.00600
C 	C 	0.56890 0.75110 0.42870 0.02700
H 	H 	0.55700 0.81510 0.43570 -0.02700
H 	H 	0.54280 0.69910 0.41230 -0.02400
C 	C 	0.59570 0.66660 0.35900 0.01900
H 	H 	0.56990 0.61410 0.34250 -0.01600
H 	H 	0.60040 0.67460 0.31900 -0.02000
C 	C 	0.61710 0.84350 0.39390 0.01000
H 	H 	0.62210 0.85330 0.35430 -0.00500
H 	H 	0.60540 0.90790 0.40090 -0.00900
C 	C 	0.68420 0.71400 0.45790 0.00800
H 	H 	0.71620 0.69370 0.50620 0.00400
H 	H 	0.69070 0.72210 0.41990 0.00200
N 	N 	0.37932 0.26480 0.28630 -0.17500
N 	N 	0.42271 0.21250 0.22810 -0.17600
N 	N 	0.35173 0.33850 0.16230 -0.17100
N 	N 	0.33356 0.15720 0.16900 -0.12200
C 	C 	0.35940 0.35780 0.23660 0.02000
H 	H 	0.32650 0.37530 0.22540 -0.02000
H 	H 	0.38260 0.41510 0.26350 -0.02500
C 	C 	0.42930 0.23300 0.30100 0.02200
H 	H 	0.45420 0.28780 0.32830 -0.02600
H 	H 	0.44280 0.17240 0.33340 -0.02600
C 	C 	0.34180 0.17890 0.24330 0.01400
H 	H 	0.35400 0.11760 0.27490 -0.00500
H 	H 	0.30920 0.19860 0.23250 -0.00500
C 	C 	0.38330 0.12910 0.18610 0.02000
H 	H 	0.37820 0.11470 0.13800 -0.00700
H 	H 	0.39600 0.06710 0.21690 -0.01000
C 	C 	0.31400 0.25200 0.12160 0.01200
H 	H 	0.28180 0.27160 0.11200 -0.00300
H 	H 	0.30750 0.23910 0.07240 -0.00600
C 	C 	0.40180 0.30670 0.17920 0.01800
H 	H 	0.42630 0.36220 0.20560 -0.02200
H 	H 	0.39690 0.29430 0.13100 -0.02500
Ag	Ag	0.50000 0.17989 0.75000 0.46100
Ag	Ag	0.50000 0.82220 0.75000 0.46500
Ag	Ag	0.50000 0.82011 0.25000 0.46100
Ag	Ag	0.50000 0.17780 0.25000 0.46600
