data_crystal

_cell_length_a 13.30820
_cell_length_b 15.62190
_cell_length_c 16.47270
_cell_angle_alpha 90.00000
_cell_angle_beta  90.00000
_cell_angle_gamma 90.00000

_symmetry_space_group_name_	'P 1'
_symmetry_space_group_name_H-M	'P 1'

loop_
_symmetry_equiv_pos_as_xyz
  x,y,z

loop_
_atom_site_label
_atom_site_type_symbol
_atom_site_fract_x
_atom_site_fract_y
_atom_site_fract_z
_atom_site_charge
C 	C 	0.01370 0.76810 0.85550 0.21300
C 	C 	0.93210 0.69760 0.84920 0.23300
C 	C 	0.76590 0.87110 0.02770 0.22100
C 	C 	0.66750 0.86960 0.97760 0.22400
C 	C 	0.85490 0.95910 0.70820 0.23300
C 	C 	0.84160 0.02640 0.77660 0.23000
O 	O 	0.10314 0.74132 0.85631 -0.39900
O 	O 	0.96558 0.62226 0.84465 -0.41400
O 	O 	0.98767 0.84468 0.85804 -0.35000
O 	O 	0.84295 0.72124 0.84788 -0.35600
O 	O 	0.84667 0.86882 0.98980 -0.33900
O 	O 	0.75494 0.87937 0.10298 -0.39600
O 	O 	0.67280 0.85912 0.90303 -0.35200
O 	O 	0.58785 0.87954 0.01791 -0.40500
O 	O 	0.83960 0.88296 0.72581 -0.36100
O 	O 	0.88093 0.98830 0.63977 -0.41500
O 	O 	0.82170 0.00137 0.84530 -0.36200
O 	O 	0.85485 0.10360 0.75371 -0.42400
Cr	Cr	0.11215 0.61551 0.86353 1.56100
Mn	Mn	0.82470 0.86006 0.85701 1.30400
C 	C 	0.48630 0.23190 0.35550 0.21400
C 	C 	0.56790 0.30240 0.34920 0.23000
C 	C 	0.73410 0.12890 0.52770 0.22000
C 	C 	0.83250 0.13040 0.47760 0.22200
C 	C 	0.64510 0.04090 0.20820 0.22900
C 	C 	0.65840 0.97360 0.27660 0.23200
O 	O 	0.39686 0.25868 0.35631 -0.40000
O 	O 	0.53442 0.37774 0.34465 -0.41500
O 	O 	0.51233 0.15532 0.35804 -0.35300
O 	O 	0.65705 0.27876 0.34788 -0.35600
O 	O 	0.65333 0.13118 0.48980 -0.34100
O 	O 	0.74506 0.12063 0.60298 -0.39800
O 	O 	0.82720 0.14088 0.40303 -0.35300
O 	O 	0.91215 0.12046 0.51791 -0.40600
O 	O 	0.66040 0.11704 0.22581 -0.36200
O 	O 	0.61907 0.01170 0.13977 -0.41700
O 	O 	0.67830 0.99863 0.34530 -0.36100
O 	O 	0.64515 0.89640 0.25371 -0.42400
Cr	Cr	0.38785 0.38449 0.36353 1.56100
Mn	Mn	0.67530 0.13994 0.35701 1.30400
C 	C 	0.98630 0.26810 0.64450 0.21000
C 	C 	0.06790 0.19760 0.65080 0.23300
C 	C 	0.23410 0.37110 0.47230 0.22000
C 	C 	0.33250 0.36960 0.52240 0.22200
C 	C 	0.14510 0.45910 0.79180 0.23000
C 	C 	0.15840 0.52640 0.72340 0.23200
O 	O 	0.89686 0.24132 0.64369 -0.40000
O 	O 	0.03442 0.12226 0.65535 -0.41300
O 	O 	0.01233 0.34468 0.64196 -0.35000
O 	O 	0.15705 0.22124 0.65212 -0.35700
O 	O 	0.15333 0.36882 0.51020 -0.34100
O 	O 	0.24506 0.37937 0.39702 -0.39700
O 	O 	0.32720 0.35912 0.59697 -0.35300
O 	O 	0.41215 0.37954 0.48209 -0.40600
O 	O 	0.16040 0.38296 0.77419 -0.36200
O 	O 	0.11907 0.48830 0.86023 -0.41700
O 	O 	0.17830 0.50137 0.65470 -0.36100
O 	O 	0.14515 0.60360 0.74629 -0.42400
Cr	Cr	0.88785 0.11551 0.63647 1.56100
Mn	Mn	0.17530 0.36006 0.64299 1.30400
C 	C 	0.51370 0.73190 0.14450 0.21400
C 	C 	0.43210 0.80240 0.15080 0.23000
C 	C 	0.26590 0.62890 0.97230 0.22300
C 	C 	0.16750 0.63040 0.02240 0.21900
C 	C 	0.35490 0.54090 0.29180 0.23000
C 	C 	0.34160 0.47360 0.22340 0.23200
O 	O 	0.60314 0.75868 0.14369 -0.40000
O 	O 	0.46558 0.87774 0.15535 -0.41500
O 	O 	0.48767 0.65532 0.14196 -0.35300
O 	O 	0.34295 0.77876 0.15212 -0.35700
O 	O 	0.34667 0.63118 0.01020 -0.34200
O 	O 	0.25494 0.62063 0.89702 -0.39800
O 	O 	0.17280 0.64088 0.09697 -0.35300
O 	O 	0.08785 0.62046 0.98209 -0.40400
O 	O 	0.33960 0.61704 0.27419 -0.36200
O 	O 	0.38093 0.51170 0.36023 -0.41700
O 	O 	0.32170 0.49863 0.15470 -0.36100
O 	O 	0.35485 0.39640 0.24629 -0.42400
Cr	Cr	0.61215 0.88449 0.13647 1.56100
Mn	Mn	0.32470 0.63994 0.14299 1.30400
C 	C 	0.03560 0.82420 0.37870 0.18000
C 	C 	0.00810 0.80960 0.29900 -0.10100
H 	H 	0.01520 0.75390 0.27670 0.10200
C 	C 	0.97030 0.87500 0.25100 -0.10700
H 	H 	0.95100 0.86340 0.19650 0.11400
C 	C 	0.96060 0.95650 0.28150 0.22800
C 	C 	0.98830 0.97340 0.35830 -0.13200
H 	H 	0.98230 0.03020 0.37840 0.13000
C 	C 	0.02600 0.90880 0.40970 -0.03900
C 	C 	0.05670 0.93150 0.49110 0.02800
H 	H 	0.05070 0.98990 0.50640 0.05100
C 	C 	0.11710 0.91280 0.62540 -0.05300
H 	H 	0.07280 0.96150 0.63950 0.07100
H 	H 	0.18770 0.93280 0.62640 0.06800
C 	C 	0.10280 0.84180 0.68380 -0.10800
H 	H 	0.03020 0.83100 0.69210 0.07800
H 	H 	0.13300 0.85690 0.73680 0.10900
C 	C 	0.26350 0.76450 0.65570 -0.08900
H 	H 	0.28810 0.70660 0.67020 0.07400
H 	H 	0.28540 0.80480 0.69850 0.09200
C 	C 	0.30770 0.79160 0.57390 -0.07400
H 	H 	0.30120 0.85420 0.56640 0.05600
H 	H 	0.37970 0.77600 0.57070 0.06800
C 	C 	0.28130 0.65350 0.50180 -0.07800
H 	H 	0.29940 0.62920 0.55530 0.06700
H 	H 	0.34060 0.64970 0.46560 0.08100
C 	C 	0.19340 0.60500 0.46540 -0.08400
H 	H 	0.18270 0.62200 0.40820 0.09500
H 	H 	0.20560 0.54250 0.46750 0.08400
C 	C 	0.03900 0.57260 0.53290 0.03900
H 	H 	0.04880 0.51600 0.51350 0.05000
C 	C 	0.95120 0.58830 0.57900 -0.04400
C 	C 	0.88940 0.51870 0.60370 -0.12700
H 	H 	0.90560 0.46170 0.58830 0.12000
C 	C 	0.80380 0.53570 0.65120 0.21000
C 	C 	0.78140 0.61470 0.67480 -0.11700
H 	H 	0.72410 0.62380 0.70820 0.10300
C 	C 	0.83810 0.68210 0.65250 -0.08800
H 	H 	0.82000 0.73780 0.67040 0.08500
C 	C 	0.92300 0.67200 0.60370 0.17100
N 	N 	0.09140 0.87913 0.54467 -0.21400
N 	N 	0.15200 0.76390 0.65060 -0.23200
H 	H 	0.12880 0.71710 0.68010 0.11200
N 	N 	0.24860 0.74470 0.51077 -0.24400
H 	H 	0.26000 0.77180 0.46140 0.10000
N 	N 	0.10610 0.62790 0.51520 -0.20600
O 	O 	0.06900 0.75946 0.42138 -0.38900
O 	O 	0.96983 0.74185 0.57879 -0.39300
Cl	Cl	0.91495 0.03757 0.21919 -0.35800
Cl	Cl	0.72803 0.44740 0.67456 -0.34200
Fe	Fe	0.09951 0.75243 0.53407 1.21500
C 	C 	0.46440 0.17580 0.87870 0.17300
C 	C 	0.49190 0.19040 0.79900 -0.08900
H 	H 	0.48480 0.24610 0.77670 0.09900
C 	C 	0.52970 0.12500 0.75100 -0.11800
H 	H 	0.54900 0.13660 0.69650 0.11700
C 	C 	0.53940 0.04350 0.78150 0.23400
C 	C 	0.51170 0.02660 0.85830 -0.14900
H 	H 	0.51770 0.96980 0.87840 0.13700
C 	C 	0.47400 0.09120 0.90970 -0.02700
C 	C 	0.44330 0.06850 0.99110 0.02300
H 	H 	0.44930 0.01010 0.00640 0.05400
C 	C 	0.38290 0.08720 0.12540 -0.05400
H 	H 	0.42720 0.03850 0.13950 0.07300
H 	H 	0.31230 0.06720 0.12640 0.06900
C 	C 	0.39720 0.15820 0.18380 -0.10800
H 	H 	0.46980 0.16900 0.19210 0.07900
H 	H 	0.36700 0.14310 0.23680 0.10900
C 	C 	0.23650 0.23550 0.15570 -0.08900
H 	H 	0.21190 0.29340 0.17020 0.07400
H 	H 	0.21460 0.19520 0.19850 0.09200
C 	C 	0.19230 0.20840 0.07390 -0.07400
H 	H 	0.19880 0.14580 0.06640 0.05700
H 	H 	0.12030 0.22400 0.07070 0.06800
C 	C 	0.21870 0.34650 0.00180 -0.08100
H 	H 	0.20060 0.37080 0.05530 0.06700
H 	H 	0.15940 0.35030 0.96560 0.08300
C 	C 	0.30660 0.39500 0.96540 -0.08200
H 	H 	0.31730 0.37800 0.90820 0.09400
H 	H 	0.29440 0.45750 0.96750 0.08400
C 	C 	0.46100 0.42740 0.03290 0.04000
H 	H 	0.45120 0.48400 0.01350 0.05000
C 	C 	0.54880 0.41170 0.07900 -0.04400
C 	C 	0.61060 0.48130 0.10370 -0.12700
H 	H 	0.59440 0.53830 0.08830 0.12000
C 	C 	0.69620 0.46430 0.15120 0.20900
C 	C 	0.71860 0.38530 0.17480 -0.11600
H 	H 	0.77590 0.37620 0.20820 0.10300
C 	C 	0.66190 0.31790 0.15250 -0.08900
H 	H 	0.68000 0.26220 0.17040 0.08500
C 	C 	0.57700 0.32800 0.10370 0.17200
N 	N 	0.40860 0.12087 0.04467 -0.21200
N 	N 	0.34800 0.23610 0.15060 -0.23200
H 	H 	0.37120 0.28290 0.18010 0.11200
N 	N 	0.25140 0.25530 0.01077 -0.24400
H 	H 	0.24000 0.22820 0.96140 0.10100
N 	N 	0.39390 0.37210 0.01520 -0.20700
O 	O 	0.43100 0.24054 0.92138 -0.38600
O 	O 	0.53017 0.25815 0.07879 -0.39500
Cl	Cl	0.58505 0.96243 0.71919 -0.35600
Cl	Cl	0.77197 0.55260 0.17456 -0.34100
Fe	Fe	0.40049 0.24757 0.03407 1.21500
C 	C 	0.96440 0.32420 0.12130 0.17400
C 	C 	0.99190 0.30960 0.20100 -0.09100
H 	H 	0.98480 0.25390 0.22330 0.09900
C 	C 	0.02970 0.37500 0.24900 -0.11600
H 	H 	0.04900 0.36340 0.30350 0.11700
C 	C 	0.03940 0.45650 0.21850 0.23400
C 	C 	0.01170 0.47340 0.14170 -0.14700
H 	H 	0.01770 0.53020 0.12160 0.13600
C 	C 	0.97400 0.40880 0.09030 -0.02800
C 	C 	0.94330 0.43150 0.00890 0.02600
H 	H 	0.94930 0.48990 0.99360 0.05200
C 	C 	0.88290 0.41280 0.87460 -0.05400
H 	H 	0.92720 0.46150 0.86050 0.07200
H 	H 	0.81230 0.43280 0.87360 0.06900
C 	C 	0.89720 0.34180 0.81620 -0.10800
H 	H 	0.96980 0.33100 0.80790 0.07800
H 	H 	0.86700 0.35690 0.76320 0.10900
C 	C 	0.73650 0.26450 0.84430 -0.08900
H 	H 	0.71190 0.20660 0.82980 0.07400
H 	H 	0.71460 0.30480 0.80150 0.09200
C 	C 	0.69230 0.29160 0.92610 -0.07400
H 	H 	0.69880 0.35420 0.93360 0.05600
H 	H 	0.62030 0.27600 0.92930 0.06800
C 	C 	0.71870 0.15350 0.99820 -0.08200
H 	H 	0.70060 0.12920 0.94470 0.06700
H 	H 	0.65940 0.14970 0.03440 0.08300
C 	C 	0.80660 0.10500 0.03460 -0.08100
H 	H 	0.81730 0.12200 0.09180 0.09400
H 	H 	0.79440 0.04250 0.03250 0.08400
C 	C 	0.96100 0.07260 0.96710 0.03400
H 	H 	0.95120 0.01600 0.98650 0.05000
C 	C 	0.04880 0.08830 0.92100 -0.04000
C 	C 	0.11060 0.01870 0.89630 -0.12400
H 	H 	0.09440 0.96170 0.91170 0.11700
C 	C 	0.19620 0.03570 0.84880 0.21000
C 	C 	0.21860 0.11470 0.82520 -0.11700
H 	H 	0.27590 0.12380 0.79180 0.10400
C 	C 	0.16190 0.18210 0.84750 -0.08700
H 	H 	0.18000 0.23780 0.82960 0.08500
C 	C 	0.07700 0.17200 0.89630 0.17000
N 	N 	0.90860 0.37913 0.95533 -0.21400
N 	N 	0.84800 0.26390 0.84940 -0.23200
H 	H 	0.87120 0.21710 0.81990 0.11100
N 	N 	0.75140 0.24470 0.98923 -0.24400
H 	H 	0.74000 0.27180 0.03860 0.10100
N 	N 	0.89390 0.12790 0.98480 -0.20600
O 	O 	0.93100 0.25946 0.07862 -0.38700
O 	O 	0.03017 0.24185 0.92121 -0.39200
Cl	Cl	0.08505 0.53757 0.28081 -0.35700
Cl	Cl	0.27197 0.94740 0.82544 -0.34300
Fe	Fe	0.90049 0.25243 0.96593 1.21400
C 	C 	0.53560 0.67580 0.62130 0.17300
C 	C 	0.50810 0.69040 0.70100 -0.09000
H 	H 	0.51520 0.74610 0.72330 0.09900
C 	C 	0.47030 0.62500 0.74900 -0.11800
H 	H 	0.45100 0.63660 0.80350 0.11700
C 	C 	0.46060 0.54350 0.71850 0.23400
C 	C 	0.48830 0.52660 0.64170 -0.14800
H 	H 	0.48230 0.46980 0.62160 0.13700
C 	C 	0.52600 0.59120 0.59030 -0.02700
C 	C 	0.55670 0.56850 0.50890 0.02400
H 	H 	0.55070 0.51010 0.49360 0.05300
C 	C 	0.61710 0.58720 0.37460 -0.05400
H 	H 	0.57280 0.53850 0.36050 0.07200
H 	H 	0.68770 0.56720 0.37360 0.06900
C 	C 	0.60280 0.65820 0.31620 -0.10800
H 	H 	0.53020 0.66900 0.30790 0.07900
H 	H 	0.63300 0.64310 0.26320 0.10900
C 	C 	0.76350 0.73550 0.34430 -0.08900
H 	H 	0.78810 0.79340 0.32980 0.07400
H 	H 	0.78540 0.69520 0.30150 0.09200
C 	C 	0.80770 0.70840 0.42610 -0.07400
H 	H 	0.80120 0.64580 0.43360 0.05600
H 	H 	0.87970 0.72400 0.42930 0.06800
C 	C 	0.78130 0.84650 0.49820 -0.07900
H 	H 	0.79940 0.87080 0.44470 0.06700
H 	H 	0.84060 0.85030 0.53440 0.08200
C 	C 	0.69340 0.89500 0.53460 -0.08400
H 	H 	0.68270 0.87800 0.59180 0.09500
H 	H 	0.70560 0.95750 0.53250 0.08500
C 	C 	0.53900 0.92740 0.46710 0.04000
H 	H 	0.54880 0.98400 0.48650 0.05000
C 	C 	0.45120 0.91170 0.42100 -0.04400
C 	C 	0.38940 0.98130 0.39630 -0.12900
H 	H 	0.40560 0.03830 0.41170 0.12100
C 	C 	0.30380 0.96430 0.34880 0.20700
C 	C 	0.28140 0.88530 0.32520 -0.11500
H 	H 	0.22410 0.87620 0.29180 0.10200
C 	C 	0.33810 0.81790 0.34750 -0.08900
H 	H 	0.32000 0.76220 0.32960 0.08500
C 	C 	0.42300 0.82800 0.39630 0.17200
N 	N 	0.59140 0.62087 0.45533 -0.21300
N 	N 	0.65200 0.73610 0.34940 -0.23200
H 	H 	0.62880 0.78290 0.31990 0.11200
N 	N 	0.74860 0.75530 0.48923 -0.24400
H 	H 	0.76000 0.72820 0.53860 0.10000
N 	N 	0.60610 0.87210 0.48480 -0.20600
O 	O 	0.56900 0.74054 0.57862 -0.38700
O 	O 	0.46983 0.75815 0.42121 -0.39500
Cl	Cl	0.41495 0.46243 0.78081 -0.35700
Cl	Cl	0.22803 0.05260 0.32544 -0.33900
Fe	Fe	0.59951 0.74757 0.46593 1.21500
