data_crystal

_cell_length_a 27.47190
_cell_length_b 27.47190
_cell_length_c 27.47190
_cell_angle_alpha 90.00000
_cell_angle_beta  90.00000
_cell_angle_gamma 90.00000

_symmetry_space_group_name_	'P 1'
_symmetry_space_group_name_H-M	'P 1'

loop_
_symmetry_equiv_pos_as_xyz
  x,y,z

loop_
_atom_site_label
_atom_site_type_symbol
_atom_site_fract_x
_atom_site_fract_y
_atom_site_fract_z
_atom_site_charge
Cu	Cu	0.50000 0.20203 1.00000 0.91100
Cu	Cu	0.50000 0.79797 -0.00000 0.90000
Cu	Cu	0.00000 0.50000 0.20203 0.89200
Cu	Cu	-0.00000 0.50000 0.79797 0.89300
Cu	Cu	0.20203 0.00000 0.50000 0.89100
Cu	Cu	0.79797 0.00000 0.50000 0.89300
Cu	Cu	0.70203 0.00000 0.50000 0.89100
Cu	Cu	0.29797 0.00000 0.50000 0.89100
Cu	Cu	0.00000 0.50000 0.29797 0.89100
Cu	Cu	-0.00000 0.50000 0.70203 0.89100
Cu	Cu	0.50000 0.70203 -0.00000 0.89800
Cu	Cu	0.50000 0.29797 -0.00000 0.89700
H 	H 	0.39110 0.17790 0.88970 0.03200
H 	H 	0.33120 0.17730 0.83020 0.06600
H 	H 	0.60890 0.82210 0.88970 0.03900
H 	H 	0.66880 0.82270 0.83020 0.07200
H 	H 	0.60890 0.17790 0.11030 0.02900
H 	H 	0.66880 0.17730 0.16980 0.06700
H 	H 	0.39110 0.82210 0.11030 0.03400
H 	H 	0.33120 0.82270 0.16980 0.07000
H 	H 	0.88970 0.39110 0.17790 0.03600
H 	H 	0.83020 0.33120 0.17730 0.06800
H 	H 	0.88970 0.60890 0.82210 0.04000
H 	H 	0.83020 0.66880 0.82270 0.07100
H 	H 	0.11030 0.60890 0.17790 0.02800
H 	H 	0.16980 0.66880 0.17730 0.06700
H 	H 	0.11030 0.39110 0.82210 0.03100
H 	H 	0.16980 0.33120 0.82270 0.06900
H 	H 	0.17790 0.88970 0.39110 0.03500
H 	H 	0.17730 0.83020 0.33120 0.06700
H 	H 	0.82210 0.88970 0.60890 0.04100
H 	H 	0.82270 0.83020 0.66880 0.07200
H 	H 	0.17790 0.11030 0.60890 0.02700
H 	H 	0.17730 0.16980 0.66880 0.06600
H 	H 	0.82210 0.11030 0.39110 0.03200
H 	H 	0.82270 0.16980 0.33120 0.07000
H 	H 	0.67790 0.89110 0.61030 0.03800
H 	H 	0.67730 0.83120 0.66980 0.06900
H 	H 	0.32210 0.10890 0.61030 0.02900
H 	H 	0.32270 0.16880 0.66980 0.06900
H 	H 	0.67790 0.10890 0.38970 0.03000
H 	H 	0.67730 0.16880 0.33020 0.06800
H 	H 	0.32210 0.89110 0.38970 0.03700
H 	H 	0.32270 0.83120 0.33020 0.06900
H 	H 	0.89110 0.38970 0.32210 0.03700
H 	H 	0.83120 0.33020 0.32270 0.06900
H 	H 	0.10890 0.38970 0.67790 0.02900
H 	H 	0.16880 0.33020 0.67730 0.06800
H 	H 	0.10890 0.61030 0.32210 0.02900
H 	H 	0.16880 0.66980 0.32270 0.06900
H 	H 	0.89110 0.61030 0.67790 0.03800
H 	H 	0.83120 0.66980 0.67730 0.06900
H 	H 	0.38970 0.67790 0.10890 0.03100
H 	H 	0.33020 0.67730 0.16880 0.06800
H 	H 	0.38970 0.32210 0.89110 0.03500
H 	H 	0.33020 0.32270 0.83120 0.06900
H 	H 	0.61030 0.67790 0.89110 0.03600
H 	H 	0.66980 0.67730 0.83120 0.06900
H 	H 	0.61030 0.32210 0.10890 0.03100
H 	H 	0.66980 0.32270 0.16880 0.06900
H 	H 	0.60890 0.82210 0.11030 0.03500
H 	H 	0.66880 0.82270 0.16980 0.07200
H 	H 	0.39110 0.17790 0.11030 0.02800
H 	H 	0.33120 0.17730 0.16980 0.06500
H 	H 	0.39110 0.82210 0.88970 0.03800
H 	H 	0.33120 0.82270 0.83020 0.07100
H 	H 	0.60890 0.17790 0.88970 0.03300
H 	H 	0.66880 0.17730 0.83020 0.06800
H 	H 	0.11030 0.60890 0.82210 0.03100
H 	H 	0.16980 0.66880 0.82270 0.07000
H 	H 	0.11030 0.39110 0.17790 0.02800
H 	H 	0.16980 0.33120 0.17730 0.06600
H 	H 	0.88970 0.39110 0.82210 0.03900
H 	H 	0.83020 0.33120 0.82270 0.07000
H 	H 	0.88970 0.60890 0.17790 0.03700
H 	H 	0.83020 0.66880 0.17730 0.06900
H 	H 	0.82210 0.11030 0.60890 0.03300
H 	H 	0.82270 0.16980 0.66880 0.07100
H 	H 	0.17790 0.11030 0.39110 0.02600
H 	H 	0.17730 0.16980 0.33120 0.06500
H 	H 	0.82210 0.88970 0.39110 0.04100
H 	H 	0.82270 0.83020 0.33120 0.07200
H 	H 	0.17790 0.88970 0.60890 0.03500
H 	H 	0.17730 0.83020 0.66880 0.06800
H 	H 	0.32210 0.10890 0.38970 0.02900
H 	H 	0.32270 0.16880 0.33020 0.06800
H 	H 	0.67790 0.89110 0.38970 0.03800
H 	H 	0.67730 0.83120 0.33020 0.06900
H 	H 	0.32210 0.89110 0.61030 0.03800
H 	H 	0.32270 0.83120 0.66980 0.06900
H 	H 	0.67790 0.10890 0.61030 0.03000
H 	H 	0.67730 0.16880 0.66980 0.06800
H 	H 	0.10890 0.61030 0.67790 0.03000
H 	H 	0.16880 0.66980 0.67730 0.06800
H 	H 	0.89110 0.61030 0.32210 0.03800
H 	H 	0.83120 0.66980 0.32270 0.06900
H 	H 	0.89110 0.38970 0.67790 0.03800
H 	H 	0.83120 0.33020 0.67730 0.06900
H 	H 	0.10890 0.38970 0.32210 0.02900
H 	H 	0.16880 0.33020 0.32270 0.06800
H 	H 	0.61030 0.32210 0.89110 0.03500
H 	H 	0.66980 0.32270 0.83120 0.06900
H 	H 	0.61030 0.67790 0.10890 0.03200
H 	H 	0.66980 0.67730 0.16880 0.06900
H 	H 	0.38970 0.32210 0.10890 0.03100
H 	H 	0.33020 0.32270 0.16880 0.06900
H 	H 	0.38970 0.67790 0.89110 0.03600
H 	H 	0.33020 0.67730 0.83120 0.06900
H 	H 	0.30970 0.19030 0.75000 0.06800
H 	H 	0.69030 0.80970 0.75000 0.07400
H 	H 	0.69030 0.19030 0.25000 0.06800
H 	H 	0.30970 0.80970 0.25000 0.07200
H 	H 	0.75000 0.30970 0.19030 0.07000
H 	H 	0.75000 0.69030 0.80970 0.07300
H 	H 	0.25000 0.69030 0.19030 0.06900
H 	H 	0.25000 0.30970 0.80970 0.07000
H 	H 	0.19030 0.75000 0.30970 0.06900
H 	H 	0.80970 0.75000 0.69030 0.07400
H 	H 	0.19030 0.25000 0.69030 0.06800
H 	H 	0.80970 0.25000 0.30970 0.07100
H 	H 	0.69030 0.80970 0.25000 0.07300
H 	H 	0.30970 0.19030 0.25000 0.06700
H 	H 	0.30970 0.80970 0.75000 0.07300
H 	H 	0.69030 0.19030 0.75000 0.06900
H 	H 	0.25000 0.69030 0.80970 0.07100
H 	H 	0.25000 0.30970 0.19030 0.06800
H 	H 	0.75000 0.30970 0.80970 0.07200
H 	H 	0.75000 0.69030 0.19030 0.07100
H 	H 	0.80970 0.25000 0.69030 0.07200
H 	H 	0.19030 0.25000 0.30970 0.06700
H 	H 	0.80970 0.75000 0.30970 0.07300
H 	H 	0.19030 0.75000 0.69030 0.07000
C 	C 	0.37890 0.20720 0.87812 0.03700
C 	C 	0.34282 0.20679 0.84214 -0.10800
C 	C 	0.62110 0.79280 0.87812 0.03700
C 	C 	0.65718 0.79321 0.84214 -0.10300
C 	C 	0.62110 0.20720 0.12188 0.03900
C 	C 	0.65718 0.20679 0.15786 -0.11100
C 	C 	0.37890 0.79280 0.12188 0.03900
C 	C 	0.34282 0.79321 0.15786 -0.10900
C 	C 	0.87812 0.37890 0.20720 0.03500
C 	C 	0.84214 0.34282 0.20679 -0.10400
C 	C 	0.87812 0.62110 0.79280 0.03500
C 	C 	0.84214 0.65718 0.79321 -0.10200
C 	C 	0.12188 0.62110 0.20720 0.04000
C 	C 	0.15786 0.65718 0.20679 -0.11200
C 	C 	0.12188 0.37890 0.79280 0.03900
C 	C 	0.15786 0.34282 0.79321 -0.11100
C 	C 	0.20720 0.87812 0.37890 0.03500
C 	C 	0.20679 0.84214 0.34282 -0.10500
C 	C 	0.79280 0.87812 0.62110 0.03500
C 	C 	0.79321 0.84214 0.65718 -0.10100
C 	C 	0.20720 0.12188 0.62110 0.04000
C 	C 	0.20679 0.15786 0.65718 -0.11300
C 	C 	0.79280 0.12188 0.37890 0.03900
C 	C 	0.79321 0.15786 0.34282 -0.11000
C 	C 	0.70720 0.87890 0.62188 0.03500
C 	C 	0.70679 0.84282 0.65786 -0.10200
C 	C 	0.29280 0.12110 0.62188 0.04000
C 	C 	0.29321 0.15718 0.65786 -0.11200
C 	C 	0.70720 0.12110 0.37812 0.03900
C 	C 	0.70679 0.15718 0.34214 -0.11100
C 	C 	0.29280 0.87890 0.37812 0.03600
C 	C 	0.29321 0.84282 0.34214 -0.10400
C 	C 	0.87890 0.37812 0.29280 0.03500
C 	C 	0.84282 0.34214 0.29321 -0.10400
C 	C 	0.12110 0.37812 0.70720 0.03900
C 	C 	0.15718 0.34214 0.70679 -0.11100
C 	C 	0.12110 0.62188 0.29280 0.04000
C 	C 	0.15718 0.65786 0.29321 -0.11100
C 	C 	0.87890 0.62188 0.70720 0.03500
C 	C 	0.84282 0.65786 0.70679 -0.10200
C 	C 	0.37812 0.70720 0.12110 0.03800
C 	C 	0.34214 0.70679 0.15718 -0.10900
C 	C 	0.37812 0.29280 0.87890 0.03700
C 	C 	0.34214 0.29321 0.84282 -0.10700
C 	C 	0.62188 0.70720 0.87890 0.03600
C 	C 	0.65786 0.70679 0.84282 -0.10400
C 	C 	0.62188 0.29280 0.12110 0.04000
C 	C 	0.65786 0.29321 0.15718 -0.11000
C 	C 	0.62110 0.79280 0.12188 0.03900
C 	C 	0.65718 0.79321 0.15786 -0.10800
C 	C 	0.37890 0.20720 0.12188 0.03900
C 	C 	0.34282 0.20679 0.15786 -0.11200
C 	C 	0.37890 0.79280 0.87812 0.03600
C 	C 	0.34282 0.79321 0.84214 -0.10400
C 	C 	0.62110 0.20720 0.87812 0.03700
C 	C 	0.65718 0.20679 0.84214 -0.10700
C 	C 	0.12188 0.62110 0.79280 0.04000
C 	C 	0.15786 0.65718 0.79321 -0.11000
C 	C 	0.12188 0.37890 0.20720 0.03900
C 	C 	0.15786 0.34282 0.20679 -0.11300
C 	C 	0.87812 0.37890 0.79280 0.03500
C 	C 	0.84214 0.34282 0.79321 -0.10300
C 	C 	0.87812 0.62110 0.20720 0.03500
C 	C 	0.84214 0.65718 0.20679 -0.10300
C 	C 	0.79280 0.12188 0.62110 0.04000
C 	C 	0.79321 0.15786 0.65718 -0.11000
C 	C 	0.20720 0.12188 0.37890 0.04000
C 	C 	0.20679 0.15786 0.34282 -0.11300
C 	C 	0.79280 0.87812 0.37890 0.03500
C 	C 	0.79321 0.84214 0.34282 -0.10200
C 	C 	0.20720 0.87812 0.62110 0.03500
C 	C 	0.20679 0.84214 0.65718 -0.10400
C 	C 	0.29280 0.12110 0.37812 0.04000
C 	C 	0.29321 0.15718 0.34214 -0.11300
C 	C 	0.70720 0.87890 0.37812 0.03500
C 	C 	0.70679 0.84282 0.34214 -0.10200
C 	C 	0.29280 0.87890 0.62188 0.03600
C 	C 	0.29321 0.84282 0.65786 -0.10400
C 	C 	0.70720 0.12110 0.62188 0.03900
C 	C 	0.70679 0.15718 0.65786 -0.11000
C 	C 	0.12110 0.62188 0.70720 0.04000
C 	C 	0.15718 0.65786 0.70679 -0.11000
C 	C 	0.87890 0.62188 0.29280 0.03600
C 	C 	0.84282 0.65786 0.29321 -0.10300
C 	C 	0.87890 0.37812 0.70720 0.03500
C 	C 	0.84282 0.34214 0.70679 -0.10300
C 	C 	0.12110 0.37812 0.29280 0.04000
C 	C 	0.15718 0.34214 0.29321 -0.11200
C 	C 	0.62188 0.29280 0.87890 0.03700
C 	C 	0.65786 0.29321 0.84282 -0.10600
C 	C 	0.62188 0.70720 0.12110 0.03800
C 	C 	0.65786 0.70679 0.15718 -0.10800
C 	C 	0.37812 0.29280 0.12110 0.03900
C 	C 	0.34214 0.29321 0.15718 -0.11100
C 	C 	0.37812 0.70720 0.87890 0.03600
C 	C 	0.34214 0.70679 0.84282 -0.10500
C 	C 	0.43559 0.25000 0.93559 0.36600
C 	C 	0.39645 0.25000 0.89645 -0.10600
C 	C 	0.32436 0.25000 0.82436 0.04300
C 	C 	0.28593 0.25000 0.78593 0.04400
C 	C 	0.56441 0.75000 0.93559 0.36500
C 	C 	0.60355 0.75000 0.89645 -0.10100
C 	C 	0.67564 0.75000 0.82436 0.04300
C 	C 	0.71407 0.75000 0.78593 0.05100
C 	C 	0.56441 0.25000 0.06441 0.36800
C 	C 	0.60355 0.25000 0.10355 -0.11100
C 	C 	0.67564 0.25000 0.17564 0.04400
C 	C 	0.71407 0.25000 0.21407 0.04400
C 	C 	0.43559 0.75000 0.06441 0.36600
C 	C 	0.39645 0.75000 0.10355 -0.10800
C 	C 	0.32436 0.75000 0.17564 0.04400
C 	C 	0.28593 0.75000 0.21407 0.04500
C 	C 	0.93559 0.43559 0.25000 0.36400
C 	C 	0.89645 0.39645 0.25000 -0.10100
C 	C 	0.82436 0.32436 0.25000 0.04200
C 	C 	0.78593 0.28593 0.25000 0.04700
C 	C 	0.93559 0.56441 0.75000 0.36300
C 	C 	0.89645 0.60355 0.75000 -0.09900
C 	C 	0.82436 0.67564 0.75000 0.04200
C 	C 	0.78593 0.71407 0.75000 0.05100
C 	C 	0.06441 0.56441 0.25000 0.36700
C 	C 	0.10355 0.60355 0.25000 -0.11200
C 	C 	0.17564 0.67564 0.25000 0.04500
C 	C 	0.21407 0.71407 0.25000 0.04400
C 	C 	0.06441 0.43559 0.75000 0.36700
C 	C 	0.10355 0.39645 0.75000 -0.11200
C 	C 	0.17564 0.32436 0.75000 0.04500
C 	C 	0.21407 0.28593 0.75000 0.04300
C 	C 	0.25000 0.93559 0.43559 0.36400
C 	C 	0.25000 0.89645 0.39645 -0.10200
C 	C 	0.25000 0.82436 0.32436 0.04200
C 	C 	0.25000 0.78593 0.28593 0.04600
C 	C 	0.75000 0.93559 0.56441 0.36300
C 	C 	0.75000 0.89645 0.60355 -0.09800
C 	C 	0.75000 0.82436 0.67564 0.04200
C 	C 	0.75000 0.78593 0.71407 0.05100
C 	C 	0.25000 0.06441 0.56441 0.36700
C 	C 	0.25000 0.10355 0.60355 -0.11300
C 	C 	0.25000 0.17564 0.67564 0.04500
C 	C 	0.25000 0.21407 0.71407 0.04300
C 	C 	0.75000 0.06441 0.43559 0.36600
C 	C 	0.75000 0.10355 0.39645 -0.11100
C 	C 	0.75000 0.17564 0.32436 0.04500
C 	C 	0.75000 0.21407 0.28593 0.04500
C 	C 	0.56441 0.75000 0.06441 0.36600
C 	C 	0.60355 0.75000 0.10355 -0.10800
C 	C 	0.67564 0.75000 0.17564 0.04400
C 	C 	0.71407 0.75000 0.21407 0.04800
C 	C 	0.43559 0.25000 0.06441 0.36800
C 	C 	0.39645 0.25000 0.10355 -0.11200
C 	C 	0.32436 0.25000 0.17564 0.04400
C 	C 	0.28593 0.25000 0.21407 0.04200
C 	C 	0.43559 0.75000 0.93559 0.36400
C 	C 	0.39645 0.75000 0.89645 -0.10200
C 	C 	0.32436 0.75000 0.82436 0.04300
C 	C 	0.28593 0.75000 0.78593 0.04800
C 	C 	0.56441 0.25000 0.93559 0.36600
C 	C 	0.60355 0.25000 0.89645 -0.10500
C 	C 	0.67564 0.25000 0.82436 0.04300
C 	C 	0.71407 0.25000 0.78593 0.04700
C 	C 	0.06441 0.56441 0.75000 0.36700
C 	C 	0.10355 0.60355 0.75000 -0.11100
C 	C 	0.17564 0.67564 0.75000 0.04500
C 	C 	0.21407 0.71407 0.75000 0.04600
C 	C 	0.06441 0.43559 0.25000 0.36700
C 	C 	0.10355 0.39645 0.25000 -0.11300
C 	C 	0.17564 0.32436 0.25000 0.04500
C 	C 	0.21407 0.28593 0.25000 0.04200
C 	C 	0.93559 0.43559 0.75000 0.36300
C 	C 	0.89645 0.39645 0.75000 -0.10000
C 	C 	0.82436 0.32436 0.75000 0.04200
C 	C 	0.78593 0.28593 0.75000 0.04800
C 	C 	0.93559 0.56441 0.25000 0.36400
C 	C 	0.89645 0.60355 0.25000 -0.10000
C 	C 	0.82436 0.67564 0.25000 0.04200
C 	C 	0.78593 0.71407 0.25000 0.04900
C 	C 	0.75000 0.06441 0.56441 0.36600
C 	C 	0.75000 0.10355 0.60355 -0.11000
C 	C 	0.75000 0.17564 0.67564 0.04500
C 	C 	0.75000 0.21407 0.71407 0.04600
C 	C 	0.25000 0.06441 0.43559 0.36700
C 	C 	0.25000 0.10355 0.39645 -0.11400
C 	C 	0.25000 0.17564 0.32436 0.04500
C 	C 	0.25000 0.21407 0.28593 0.04100
C 	C 	0.75000 0.93559 0.43559 0.36300
C 	C 	0.75000 0.89645 0.39645 -0.09900
C 	C 	0.75000 0.82436 0.32436 0.04200
C 	C 	0.75000 0.78593 0.28593 0.05000
C 	C 	0.25000 0.93559 0.56441 0.36400
C 	C 	0.25000 0.89645 0.60355 -0.10100
C 	C 	0.25000 0.82436 0.67564 0.04200
C 	C 	0.25000 0.78593 0.71407 0.04800
C 	C 	0.28580 0.21420 0.75000 -0.11300
C 	C 	0.71420 0.78580 0.75000 -0.11600
C 	C 	0.71420 0.21420 0.25000 -0.11300
C 	C 	0.28580 0.78580 0.25000 -0.11400
C 	C 	0.75000 0.28580 0.21420 -0.11400
C 	C 	0.75000 0.71420 0.78580 -0.11600
C 	C 	0.25000 0.71420 0.21420 -0.11300
C 	C 	0.25000 0.28580 0.78580 -0.11300
C 	C 	0.21420 0.75000 0.28580 -0.11300
C 	C 	0.78580 0.75000 0.71420 -0.11600
C 	C 	0.21420 0.25000 0.71420 -0.11200
C 	C 	0.78580 0.25000 0.28580 -0.11400
C 	C 	0.71420 0.78580 0.25000 -0.11500
C 	C 	0.28580 0.21420 0.25000 -0.11200
C 	C 	0.28580 0.78580 0.75000 -0.11500
C 	C 	0.71420 0.21420 0.75000 -0.11400
C 	C 	0.25000 0.71420 0.78580 -0.11400
C 	C 	0.25000 0.28580 0.21420 -0.11200
C 	C 	0.75000 0.28580 0.78580 -0.11500
C 	C 	0.75000 0.71420 0.21420 -0.11500
C 	C 	0.78580 0.25000 0.71420 -0.11400
C 	C 	0.21420 0.25000 0.28580 -0.11200
C 	C 	0.78580 0.75000 0.28580 -0.11500
C 	C 	0.21420 0.75000 0.71420 -0.11400
O 	O 	0.44994 0.20914 0.94983 -0.41000
O 	O 	0.55006 0.79086 0.94983 -0.40200
O 	O 	0.55006 0.20914 0.05017 -0.42000
O 	O 	0.44994 0.79086 0.05017 -0.41300
O 	O 	0.94983 0.44994 0.20914 -0.39900
O 	O 	0.94983 0.55006 0.79086 -0.39600
O 	O 	0.05017 0.55006 0.20914 -0.42000
O 	O 	0.05017 0.44994 0.79086 -0.41800
O 	O 	0.20914 0.94983 0.44994 -0.40000
O 	O 	0.79086 0.94983 0.55006 -0.39500
O 	O 	0.20914 0.05017 0.55006 -0.42100
O 	O 	0.79086 0.05017 0.44994 -0.41700
O 	O 	0.70914 0.94994 0.55017 -0.39700
O 	O 	0.29086 0.05006 0.55017 -0.42000
O 	O 	0.70914 0.05006 0.44983 -0.41900
O 	O 	0.29086 0.94994 0.44983 -0.39800
O 	O 	0.94994 0.44983 0.29086 -0.39700
O 	O 	0.05006 0.44983 0.70914 -0.41900
O 	O 	0.05006 0.55017 0.29086 -0.41900
O 	O 	0.94994 0.55017 0.70914 -0.39700
O 	O 	0.44983 0.70914 0.05006 -0.41500
O 	O 	0.44983 0.29086 0.94994 -0.40500
O 	O 	0.55017 0.70914 0.94994 -0.40400
O 	O 	0.55017 0.29086 0.05006 -0.41600
O 	O 	0.55006 0.79086 0.05017 -0.41300
O 	O 	0.44994 0.20914 0.05017 -0.42100
O 	O 	0.44994 0.79086 0.94983 -0.40200
O 	O 	0.55006 0.20914 0.94983 -0.40900
O 	O 	0.05017 0.55006 0.79086 -0.41800
O 	O 	0.05017 0.44994 0.20914 -0.42100
O 	O 	0.94983 0.44994 0.79086 -0.39600
O 	O 	0.94983 0.55006 0.20914 -0.39800
O 	O 	0.79086 0.05017 0.55006 -0.41700
O 	O 	0.20914 0.05017 0.44994 -0.42200
O 	O 	0.79086 0.94983 0.44994 -0.39500
O 	O 	0.20914 0.94983 0.55006 -0.39900
O 	O 	0.29086 0.05006 0.44983 -0.42000
O 	O 	0.70914 0.94994 0.44983 -0.39700
O 	O 	0.29086 0.94994 0.55017 -0.39700
O 	O 	0.70914 0.05006 0.55017 -0.41900
O 	O 	0.05006 0.55017 0.70914 -0.41900
O 	O 	0.94994 0.55017 0.29086 -0.39700
O 	O 	0.94994 0.44983 0.70914 -0.39700
O 	O 	0.05006 0.44983 0.29086 -0.42000
O 	O 	0.55017 0.29086 0.94994 -0.40500
O 	O 	0.55017 0.70914 0.05006 -0.41500
O 	O 	0.44983 0.29086 0.05006 -0.41600
O 	O 	0.44983 0.70914 0.94994 -0.40400
