data_crystal

_cell_length_a 15.90400
_cell_length_b 20.04250
_cell_length_c 21.50430
_cell_angle_alpha 80.11460
_cell_angle_beta  68.29760
_cell_angle_gamma 66.62440

_symmetry_space_group_name_	'P 1'
_symmetry_space_group_name_H-M	'P 1'

loop_
_symmetry_equiv_pos_as_xyz
  x,y,z

loop_
_atom_site_label
_atom_site_type_symbol
_atom_site_fract_x
_atom_site_fract_y
_atom_site_fract_z
_atom_site_charge
Mn	Mn	0.85038 0.15365 0.87215 1.16300
Mn	Mn	0.88823 0.30992 0.91290 1.20900
Mn	Mn	0.87618 0.34635 0.62785 1.16300
Mn	Mn	0.11105 0.19008 0.58710 1.20900
Mn	Mn	0.14962 0.84635 0.12785 1.16300
Mn	Mn	0.11177 0.69008 0.08710 1.20900
Mn	Mn	0.12382 0.65365 0.37215 1.16300
Mn	Mn	0.88895 0.80992 0.41290 1.20900
Mn	Mn	0.00070 0.25000 0.75000 1.22600
Mn	Mn	0.99930 0.75000 0.25000 1.22600
H 	H 	0.01590 0.37380 0.96320 0.03700
H 	H 	0.03420 0.54320 0.83260 0.04300
H 	H 	0.98600 0.38760 0.08380 0.05500
H 	H 	0.02530 0.10940 0.53560 0.00600
H 	H 	0.91240 0.97350 0.67150 0.03300
H 	H 	0.92490 0.90990 0.58650 0.05100
H 	H 	0.57750 0.14550 0.12670 0.03700
H 	H 	0.61100 0.32020 0.17100 0.05400
H 	H 	0.50810 0.37880 0.28180 0.04200
H 	H 	0.39120 0.38080 0.38560 0.03000
H 	H 	0.36370 0.20220 0.34260 0.05500
H 	H 	0.46420 0.14530 0.23130 0.04800
H 	H 	0.35290 0.12620 0.53680 0.03700
H 	H 	0.41000 0.95680 0.66740 0.04300
H 	H 	0.45740 0.11240 0.41620 0.05500
H 	H 	0.67030 0.39060 0.96440 0.00500
H 	H 	0.55740 0.52650 0.82850 0.03300
H 	H 	0.42130 0.59010 0.91350 0.05100
H 	H 	0.84970 0.35450 0.37330 0.03700
H 	H 	0.10220 0.17980 0.32900 0.05400
H 	H 	0.16870 0.12120 0.21820 0.04200
H 	H 	0.15760 0.11920 0.11440 0.03000
H 	H 	0.90850 0.29780 0.15740 0.05500
H 	H 	0.84080 0.35470 0.26870 0.04700
H 	H 	0.98410 0.62620 0.03680 0.03700
H 	H 	0.96580 0.45680 0.16740 0.04300
H 	H 	0.01400 0.61240 0.91620 0.05500
H 	H 	0.97470 0.89060 0.46440 0.00600
H 	H 	0.08760 0.02650 0.32850 0.03300
H 	H 	0.07510 0.09010 0.41350 0.05100
H 	H 	0.42250 0.85450 0.87330 0.03700
H 	H 	0.38900 0.67980 0.82900 0.05400
H 	H 	0.49190 0.62120 0.71820 0.04200
H 	H 	0.60880 0.61920 0.61440 0.03000
H 	H 	0.63630 0.79780 0.65740 0.05500
H 	H 	0.53580 0.85470 0.76870 0.04800
H 	H 	0.64710 0.87380 0.46320 0.03700
H 	H 	0.59000 0.04320 0.33260 0.04300
H 	H 	0.54260 0.88760 0.58380 0.05500
H 	H 	0.32970 0.60940 0.03560 0.00500
H 	H 	0.44260 0.47350 0.17150 0.03300
H 	H 	0.57870 0.40990 0.08650 0.05100
H 	H 	0.15030 0.64550 0.62670 0.03700
H 	H 	0.89780 0.82020 0.67100 0.05400
H 	H 	0.83130 0.87880 0.78180 0.04200
H 	H 	0.84240 0.88080 0.88560 0.03000
H 	H 	0.09150 0.70220 0.84260 0.05500
H 	H 	0.15920 0.64530 0.73130 0.04700
C 	C 	0.03828 0.40980 0.83544 0.10600
C 	C 	0.00126 0.46377 0.00651 0.02000
C 	C 	0.01425 0.42244 0.95426 -0.08100
C 	C 	0.02451 0.45255 0.89043 -0.02800
C 	C 	0.02509 0.52347 0.87695 -0.03000
C 	C 	0.98711 0.43534 0.07344 -0.07500
C 	C 	0.96059 0.08756 0.66578 0.09700
C 	C 	0.00618 0.06854 0.54544 -0.06800
C 	C 	0.97024 0.04703 0.61081 -0.03900
C 	C 	0.93873 0.98740 0.62614 -0.02700
C 	C 	0.94607 0.94989 0.57577 -0.07700
C 	C 	0.01501 0.03005 0.49257 0.01700
C 	C 	0.68040 0.23091 0.07269 0.10600
C 	C 	0.56099 0.18073 0.15789 -0.03600
C 	C 	0.60748 0.23285 0.13939 -0.00900
C 	C 	0.58104 0.28505 0.18347 -0.07500
C 	C 	0.50952 0.28773 0.24763 0.02300
C 	C 	0.47973 0.34267 0.29387 -0.07000
C 	C 	0.41058 0.34384 0.35540 -0.03900
C 	C 	0.36764 0.29017 0.37455 -0.01000
C 	C 	0.39400 0.23709 0.33031 -0.07700
C 	C 	0.46638 0.23462 0.26662 0.02300
C 	C 	0.49350 0.18087 0.21953 -0.06800
C 	C 	0.29412 0.29019 0.44117 0.11000
C 	C 	0.28352 0.09020 0.66456 0.10600
C 	C 	0.47154 0.03623 0.49349 0.02200
C 	C 	0.39095 0.07756 0.54574 -0.08300
C 	C 	0.36749 0.04745 0.60957 -0.02800
C 	C 	0.42551 0.97653 0.62305 -0.02900
C 	C 	0.49589 0.06466 0.42656 -0.07700
C 	C 	0.71393 0.41244 0.83422 0.09800
C 	C 	0.62016 0.43146 0.95456 -0.06700
C 	C 	0.62808 0.45297 0.88919 -0.04100
C 	C 	0.55227 0.51260 0.87386 -0.02500
C 	C 	0.47173 0.55011 0.92423 -0.07800
C 	C 	0.53763 0.46995 0.00743 0.01700
C 	C 	0.98400 0.26909 0.42731 0.10600
C 	C 	0.89961 0.31927 0.34211 -0.03700
C 	C 	0.97972 0.26715 0.36061 -0.00800
C 	C 	0.04956 0.21495 0.31653 -0.07700
C 	C 	0.04488 0.21227 0.25237 0.02200
C 	C 	0.11627 0.15733 0.20613 -0.07000
C 	C 	0.10982 0.15616 0.14460 -0.03900
C 	C 	0.03236 0.20983 0.12545 -0.01100
C 	C 	0.96140 0.26291 0.16969 -0.07600
C 	C 	0.96762 0.26538 0.23338 0.02400
C 	C 	0.89390 0.31913 0.28047 -0.06800
C 	C 	0.02548 0.20981 0.05883 0.10900
C 	C 	0.96172 0.59020 0.16456 0.10600
C 	C 	0.99874 0.53623 0.99349 0.02000
C 	C 	0.98575 0.57756 0.04574 -0.08100
C 	C 	0.97549 0.54745 0.10957 -0.02800
C 	C 	0.97491 0.47653 0.12305 -0.03000
C 	C 	0.01289 0.56466 0.92656 -0.07500
C 	C 	0.03941 0.91244 0.33422 0.09700
C 	C 	0.99382 0.93146 0.45456 -0.06800
C 	C 	0.02976 0.95297 0.38919 -0.03900
C 	C 	0.06127 0.01260 0.37386 -0.02700
C 	C 	0.05393 0.05011 0.42423 -0.07700
C 	C 	0.98499 0.96995 0.50743 0.01700
C 	C 	0.31960 0.76909 0.92731 0.10600
C 	C 	0.43901 0.81927 0.84211 -0.03600
C 	C 	0.39252 0.76715 0.86061 -0.00900
C 	C 	0.41896 0.71495 0.81653 -0.07500
C 	C 	0.49048 0.71227 0.75237 0.02300
C 	C 	0.52027 0.65733 0.70613 -0.07000
C 	C 	0.58942 0.65616 0.64460 -0.03900
C 	C 	0.63236 0.70983 0.62545 -0.01000
C 	C 	0.60600 0.76291 0.66969 -0.07700
C 	C 	0.53362 0.76538 0.73338 0.02300
C 	C 	0.50650 0.81913 0.78047 -0.06800
C 	C 	0.70588 0.70981 0.55883 0.11000
C 	C 	0.71648 0.90980 0.33544 0.10600
C 	C 	0.52846 0.96377 0.50651 0.02200
C 	C 	0.60905 0.92244 0.45426 -0.08300
C 	C 	0.63251 0.95255 0.39043 -0.02800
C 	C 	0.57449 0.02347 0.37695 -0.02900
C 	C 	0.50411 0.93534 0.57344 -0.07700
C 	C 	0.28607 0.58756 0.16578 0.09800
C 	C 	0.37984 0.56854 0.04544 -0.06700
C 	C 	0.37192 0.54703 0.11081 -0.04100
C 	C 	0.44773 0.48740 0.12614 -0.02500
C 	C 	0.52827 0.44989 0.07577 -0.07800
C 	C 	0.46237 0.53005 0.99257 0.01700
C 	C 	0.01600 0.73091 0.57269 0.10600
C 	C 	0.10039 0.68073 0.65789 -0.03700
C 	C 	0.02028 0.73285 0.63939 -0.00800
C 	C 	0.95044 0.78505 0.68347 -0.07700
C 	C 	0.95512 0.78773 0.74763 0.02200
C 	C 	0.88373 0.84267 0.79387 -0.07000
C 	C 	0.89018 0.84384 0.85540 -0.03900
C 	C 	0.96764 0.79017 0.87455 -0.01100
C 	C 	0.03860 0.73709 0.83031 -0.07600
C 	C 	0.03238 0.73462 0.76662 0.02400
C 	C 	0.10610 0.68087 0.71953 -0.06800
C 	C 	0.97452 0.79019 0.94117 0.10900
N 	N 	0.00505 0.35641 0.84205 -0.22200
N 	N 	0.03881 0.33294 0.77870 -0.19300
N 	N 	0.08952 0.37106 0.73714 -0.06600
N 	N 	0.09065 0.41990 0.77160 -0.09600
N 	N 	0.99821 0.13887 0.65861 -0.23300
N 	N 	0.96668 0.16298 0.72076 -0.21800
N 	N 	0.91339 0.12733 0.76281 -0.21600
N 	N 	0.90846 0.07905 0.72941 -0.12700
N 	N 	0.71368 0.17907 0.02817 -0.12500
N 	N 	0.77736 0.19897 0.97525 -0.21000
N 	N 	0.78091 0.25929 0.98765 -0.18500
N 	N 	0.72115 0.28083 0.04913 -0.11300
N 	N 	0.26901 0.23350 0.46594 -0.12100
N 	N 	0.20221 0.25531 0.52591 -0.17700
N 	N 	0.18567 0.32277 0.53555 -0.07000
N 	N 	0.24616 0.34580 0.48268 -0.10700
N 	N 	0.20351 0.14359 0.65795 -0.22200
N 	N 	0.15045 0.16706 0.72130 -0.19300
N 	N 	0.19772 0.12894 0.76286 -0.06600
N 	N 	0.28215 0.08010 0.72840 -0.09600
N 	N 	0.79569 0.36113 0.84139 -0.23300
N 	N 	0.85042 0.33702 0.77924 -0.21900
N 	N 	0.80353 0.37267 0.73719 -0.21600
N 	N 	0.71692 0.42095 0.77059 -0.12700
N 	N 	0.92092 0.32093 0.47183 -0.12600
N 	N 	0.95158 0.30103 0.52475 -0.21000
N 	N 	0.02785 0.24071 0.51235 -0.18500
N 	N 	0.05111 0.21917 0.45087 -0.11400
N 	N 	0.96845 0.26650 0.03406 -0.12000
N 	N 	0.98343 0.24469 0.97409 -0.17800
N 	N 	0.04399 0.17723 0.96445 -0.07000
N 	N 	0.07464 0.15420 0.01732 -0.10700
N 	N 	0.99495 0.64359 0.15795 -0.22200
N 	N 	0.96119 0.66706 0.22130 -0.19300
N 	N 	0.91048 0.62894 0.26286 -0.06600
N 	N 	0.90935 0.58010 0.22840 -0.09600
N 	N 	0.00179 0.86113 0.34139 -0.23300
N 	N 	0.03332 0.83702 0.27924 -0.21800
N 	N 	0.08661 0.87267 0.23719 -0.21600
N 	N 	0.09154 0.92095 0.27059 -0.12700
N 	N 	0.28632 0.82093 0.97183 -0.12500
N 	N 	0.22264 0.80103 0.02475 -0.21000
N 	N 	0.21909 0.74071 0.01235 -0.18500
N 	N 	0.27885 0.71917 0.95087 -0.11300
N 	N 	0.73099 0.76650 0.53406 -0.12100
N 	N 	0.79779 0.74469 0.47409 -0.17700
N 	N 	0.81433 0.67723 0.46445 -0.07000
N 	N 	0.75384 0.65420 0.51732 -0.10700
N 	N 	0.79649 0.85641 0.34205 -0.22200
N 	N 	0.84955 0.83294 0.27870 -0.19300
N 	N 	0.80228 0.87106 0.23714 -0.06600
N 	N 	0.71785 0.91990 0.27160 -0.09600
N 	N 	0.20431 0.63887 0.15861 -0.23300
N 	N 	0.14958 0.66298 0.22076 -0.21900
N 	N 	0.19647 0.62733 0.26281 -0.21600
N 	N 	0.28308 0.57905 0.22941 -0.12700
N 	N 	0.07908 0.67907 0.52817 -0.12600
N 	N 	0.04842 0.69897 0.47525 -0.21000
N 	N 	0.97215 0.75929 0.48765 -0.18500
N 	N 	0.94889 0.78083 0.54913 -0.11400
N 	N 	0.03155 0.73350 0.96594 -0.12000
N 	N 	0.01657 0.75531 0.02591 -0.17800
N 	N 	0.95601 0.82277 0.03555 -0.07000
N 	N 	0.92536 0.84580 0.98268 -0.10700
O 	O 	0.94621 0.21550 0.85272 -0.68600
O 	O 	0.01443 0.28450 0.64728 -0.68600
O 	O 	0.05379 0.78450 0.14728 -0.68600
O 	O 	0.98557 0.71550 0.35272 -0.68600
