data_crystal

_cell_length_a 13.81400
_cell_length_b 20.79200
_cell_length_c 20.79200
_cell_angle_alpha 120.00000
_cell_angle_beta  90.00000
_cell_angle_gamma 90.00000

_symmetry_space_group_name_	'P 1'
_symmetry_space_group_name_H-M	'P 1'

loop_
_symmetry_equiv_pos_as_xyz
  x,y,z

loop_
_atom_site_label
_atom_site_type_symbol
_atom_site_fract_x
_atom_site_fract_y
_atom_site_fract_z
_atom_site_charge
Mn	Mn	0.25000 0.37948 0.78051 1.21900
Mn	Mn	0.25000 0.40103 0.62052 1.21900
Mn	Mn	0.25000 0.21949 0.59897 1.21900
Mn	Mn	0.75000 0.62052 0.21949 1.21900
Mn	Mn	0.75000 0.59897 0.37948 1.21900
Mn	Mn	0.75000 0.78051 0.40103 1.21900
H 	H 	0.45240 0.41030 0.85880 0.03200
H 	H 	0.47270 0.63400 0.94920 0.04600
H 	H 	0.48320 0.35350 0.93790 0.06100
H 	H 	0.45240 0.44850 0.58970 0.03200
H 	H 	0.47270 0.31520 0.36600 0.04600
H 	H 	0.48320 0.58440 0.64650 0.06100
H 	H 	0.45240 0.14120 0.55150 0.03200
H 	H 	0.47270 0.05080 0.68480 0.04600
H 	H 	0.48320 0.06210 0.41560 0.06100
H 	H 	0.95240 0.58970 0.14120 0.03100
H 	H 	0.97270 0.36600 0.05080 0.04600
H 	H 	0.98320 0.64650 0.06210 0.06100
H 	H 	0.95240 0.55150 0.41030 0.03100
H 	H 	0.97270 0.68480 0.63400 0.04600
H 	H 	0.98320 0.41560 0.35350 0.06100
H 	H 	0.95240 0.85880 0.44850 0.03100
H 	H 	0.97270 0.94920 0.31520 0.04600
H 	H 	0.98320 0.93790 0.58440 0.06100
H 	H 	0.54760 0.58970 0.14120 0.03200
H 	H 	0.52730 0.36600 0.05080 0.04600
H 	H 	0.51680 0.64650 0.06210 0.06100
H 	H 	0.54760 0.55150 0.41030 0.03200
H 	H 	0.52730 0.68480 0.63400 0.04600
H 	H 	0.51680 0.41560 0.35350 0.06100
H 	H 	0.54760 0.85880 0.44850 0.03200
H 	H 	0.52730 0.94920 0.31520 0.04600
H 	H 	0.51680 0.93790 0.58440 0.06100
H 	H 	0.04760 0.41030 0.85880 0.03100
H 	H 	0.02730 0.63400 0.94920 0.04600
H 	H 	0.01680 0.35350 0.93790 0.06100
H 	H 	0.04760 0.44850 0.58970 0.03100
H 	H 	0.02730 0.31520 0.36600 0.04600
H 	H 	0.01680 0.58440 0.64650 0.06100
H 	H 	0.04760 0.14120 0.55150 0.03100
H 	H 	0.02730 0.05080 0.68480 0.04600
H 	H 	0.01680 0.06210 0.41560 0.06100
C 	C 	0.49070 0.46399 0.96905 0.02400
C 	C 	0.46440 0.45795 0.90055 -0.08600
C 	C 	0.45594 0.51983 0.89329 -0.02900
C 	C 	0.47680 0.59129 0.95463 -0.02400
C 	C 	0.49720 0.40145 0.97861 -0.07800
C 	C 	0.42424 0.51194 0.82226 0.10900
C 	C 	0.49070 0.50506 0.53601 0.02400
C 	C 	0.46440 0.44260 0.54205 -0.08600
C 	C 	0.45594 0.37346 0.48017 -0.02900
C 	C 	0.47680 0.36334 0.40871 -0.02400
C 	C 	0.49720 0.57716 0.59855 -0.07800
C 	C 	0.42424 0.31032 0.48806 0.10900
C 	C 	0.49070 0.03095 0.49494 0.02400
C 	C 	0.46440 0.09945 0.55740 -0.08600
C 	C 	0.45594 0.10671 0.62654 -0.02900
C 	C 	0.47680 0.04537 0.63666 -0.02400
C 	C 	0.49720 0.02139 0.42284 -0.07800
C 	C 	0.42424 0.17774 0.68968 0.10900
C 	C 	0.99070 0.53601 0.03095 0.02400
C 	C 	0.96440 0.54205 0.09945 -0.08600
C 	C 	0.95594 0.48017 0.10671 -0.02900
C 	C 	0.97680 0.40871 0.04537 -0.02400
C 	C 	0.99720 0.59855 0.02139 -0.07900
C 	C 	0.92424 0.48806 0.17774 0.10900
C 	C 	0.99070 0.49494 0.46399 0.02400
C 	C 	0.96440 0.55740 0.45795 -0.08600
C 	C 	0.95594 0.62654 0.51983 -0.02900
C 	C 	0.97680 0.63666 0.59129 -0.02400
C 	C 	0.99720 0.42284 0.40145 -0.07800
C 	C 	0.92424 0.68968 0.51194 0.10900
C 	C 	0.99070 0.96905 0.50506 0.02400
C 	C 	0.96440 0.90055 0.44260 -0.08600
C 	C 	0.95594 0.89329 0.37346 -0.02900
C 	C 	0.97680 0.95463 0.36334 -0.02400
C 	C 	0.99720 0.97861 0.57716 -0.07800
C 	C 	0.92424 0.82226 0.31032 0.10900
C 	C 	0.50930 0.53601 0.03095 0.02400
C 	C 	0.53560 0.54205 0.09945 -0.08600
C 	C 	0.54406 0.48017 0.10671 -0.02900
C 	C 	0.52320 0.40871 0.04537 -0.02400
C 	C 	0.50280 0.59855 0.02139 -0.07800
C 	C 	0.57576 0.48806 0.17774 0.10900
C 	C 	0.50930 0.49494 0.46399 0.02400
C 	C 	0.53560 0.55740 0.45795 -0.08600
C 	C 	0.54406 0.62654 0.51983 -0.02900
C 	C 	0.52320 0.63666 0.59129 -0.02400
C 	C 	0.50280 0.42284 0.40145 -0.07800
C 	C 	0.57576 0.68968 0.51194 0.10900
C 	C 	0.50930 0.96905 0.50506 0.02400
C 	C 	0.53560 0.90055 0.44260 -0.08600
C 	C 	0.54406 0.89329 0.37346 -0.02900
C 	C 	0.52320 0.95463 0.36334 -0.02400
C 	C 	0.50280 0.97861 0.57716 -0.07800
C 	C 	0.57576 0.82226 0.31032 0.10900
C 	C 	0.00930 0.46399 0.96905 0.02400
C 	C 	0.03560 0.45795 0.90055 -0.08600
C 	C 	0.04406 0.51983 0.89329 -0.02900
C 	C 	0.02320 0.59129 0.95463 -0.02400
C 	C 	0.00280 0.40145 0.97861 -0.07900
C 	C 	0.07576 0.51194 0.82226 0.10900
C 	C 	0.00930 0.50506 0.53601 0.02400
C 	C 	0.03560 0.44260 0.54205 -0.08600
C 	C 	0.04406 0.37346 0.48017 -0.02900
C 	C 	0.02320 0.36334 0.40871 -0.02400
C 	C 	0.00280 0.57716 0.59855 -0.07800
C 	C 	0.07576 0.31032 0.48806 0.10900
C 	C 	0.00930 0.03095 0.49494 0.02400
C 	C 	0.03560 0.09945 0.55740 -0.08600
C 	C 	0.04406 0.10671 0.62654 -0.02900
C 	C 	0.02320 0.04537 0.63666 -0.02400
C 	C 	0.00280 0.02139 0.42284 -0.07800
C 	C 	0.07576 0.17774 0.68968 0.10900
N 	N 	0.36320 0.45937 0.77588 -0.21600
N 	N 	0.35599 0.47118 0.71739 -0.17400
N 	N 	0.40921 0.52843 0.72923 -0.06600
N 	N 	0.45355 0.55576 0.79582 -0.09000
N 	N 	0.36320 0.31651 0.54063 -0.21600
N 	N 	0.35599 0.24621 0.52882 -0.17400
N 	N 	0.40921 0.20080 0.47157 -0.06600
N 	N 	0.45355 0.24006 0.44424 -0.09000
N 	N 	0.36320 0.22412 0.68349 -0.21600
N 	N 	0.35599 0.28261 0.75379 -0.17400
N 	N 	0.40921 0.27077 0.79920 -0.06600
N 	N 	0.45355 0.20418 0.75994 -0.09000
N 	N 	0.86320 0.54063 0.22412 -0.21600
N 	N 	0.85599 0.52882 0.28261 -0.17400
N 	N 	0.90921 0.47157 0.27077 -0.06600
N 	N 	0.95355 0.44424 0.20418 -0.09000
N 	N 	0.86320 0.68349 0.45937 -0.21600
N 	N 	0.85599 0.75379 0.47118 -0.17400
N 	N 	0.90921 0.79920 0.52843 -0.06600
N 	N 	0.95355 0.75994 0.55576 -0.09000
N 	N 	0.86320 0.77588 0.31651 -0.21600
N 	N 	0.85599 0.71739 0.24621 -0.17400
N 	N 	0.90921 0.72923 0.20080 -0.06600
N 	N 	0.95355 0.79582 0.24006 -0.09000
N 	N 	0.63680 0.54063 0.22412 -0.21600
N 	N 	0.64401 0.52882 0.28261 -0.17400
N 	N 	0.59079 0.47157 0.27077 -0.06600
N 	N 	0.54645 0.44424 0.20418 -0.09000
N 	N 	0.63680 0.68349 0.45937 -0.21600
N 	N 	0.64401 0.75379 0.47118 -0.17400
N 	N 	0.59079 0.79920 0.52843 -0.06600
N 	N 	0.54645 0.75994 0.55576 -0.09000
N 	N 	0.63680 0.77588 0.31651 -0.21600
N 	N 	0.64401 0.71739 0.24621 -0.17400
N 	N 	0.59079 0.72923 0.20080 -0.06600
N 	N 	0.54645 0.79582 0.24006 -0.09000
N 	N 	0.13680 0.45937 0.77588 -0.21600
N 	N 	0.14401 0.47118 0.71739 -0.17400
N 	N 	0.09079 0.52843 0.72923 -0.06600
N 	N 	0.04645 0.55576 0.79582 -0.09000
N 	N 	0.13680 0.31651 0.54063 -0.21600
N 	N 	0.14401 0.24621 0.52882 -0.17400
N 	N 	0.09079 0.20080 0.47157 -0.06600
N 	N 	0.04645 0.24006 0.44424 -0.09000
N 	N 	0.13680 0.22412 0.68349 -0.21600
N 	N 	0.14401 0.28261 0.75379 -0.17400
N 	N 	0.09079 0.27077 0.79920 -0.06600
N 	N 	0.04645 0.20418 0.75994 -0.09000
O 	O 	0.25000 0.33333 0.66666 -0.70700
O 	O 	0.75000 0.66667 0.33334 -0.70700
