data_crystal

_cell_length_a 13.86650
_cell_length_b 13.86650
_cell_length_c 15.05600
_cell_angle_alpha 90.00000
_cell_angle_beta  90.00000
_cell_angle_gamma 120.00000

_symmetry_space_group_name_	'P 1'
_symmetry_space_group_name_H-M	'P 1'

loop_
_symmetry_equiv_pos_as_xyz
  x,y,z

loop_
_atom_site_label
_atom_site_type_symbol
_atom_site_fract_x
_atom_site_fract_y
_atom_site_fract_z
_atom_site_charge
Al	Al	0.65920 0.10190 0.42860 2.38500
P 	P 	0.89130 0.32410 0.44560 0.82100
O 	O 	0.79230 0.21240 0.46880 -0.77300
O 	O 	0.86200 0.41410 0.45600 -0.85400
O 	O 	0.98220 0.34160 0.50900 -0.74700
O 	O 	0.93030 0.32310 0.35290 -0.83000
Al	Al	0.32587 0.43523 0.76193 2.38500
P 	P 	0.55797 0.65743 0.77893 0.82100
O 	O 	0.45897 0.54573 0.80213 -0.77300
O 	O 	0.52867 0.74743 0.78933 -0.85600
O 	O 	0.64887 0.67493 0.84233 -0.74800
O 	O 	0.59697 0.65643 0.68623 -0.82900
Al	Al	0.99253 0.76857 0.09527 2.38500
P 	P 	0.22463 0.99077 0.11227 0.83200
O 	O 	0.12563 0.87907 0.13547 -0.76900
O 	O 	0.19533 0.08077 0.12267 -0.86000
O 	O 	0.31553 0.00827 0.17567 -0.75400
O 	O 	0.26363 0.98977 0.01957 -0.82300
Al	Al	0.89810 0.55730 0.42860 2.38500
P 	P 	0.67590 0.56720 0.44560 0.82100
O 	O 	0.78760 0.57990 0.46880 -0.77300
O 	O 	0.58590 0.44790 0.45600 -0.85500
O 	O 	0.65840 0.64060 0.50900 -0.74800
O 	O 	0.67690 0.60720 0.35290 -0.83000
Al	Al	0.56477 0.89063 0.76193 2.38500
P 	P 	0.34257 0.90053 0.77893 0.82100
O 	O 	0.45427 0.91323 0.80213 -0.77500
O 	O 	0.25257 0.78123 0.78933 -0.85600
O 	O 	0.32507 0.97393 0.84233 -0.75200
O 	O 	0.34357 0.94053 0.68623 -0.83000
Al	Al	0.23143 0.22397 0.09527 2.38500
P 	P 	0.00923 0.23387 0.11227 0.83200
O 	O 	0.12093 0.24657 0.13547 -0.77300
O 	O 	0.91923 0.11457 0.12267 -0.86500
O 	O 	0.99173 0.30727 0.17567 -0.75500
O 	O 	0.01023 0.27387 0.01957 -0.82800
Al	Al	0.44270 0.34080 0.42860 2.38500
P 	P 	0.43280 0.10870 0.44560 0.82100
O 	O 	0.42010 0.20770 0.46880 -0.77300
O 	O 	0.55210 0.13800 0.45600 -0.85400
O 	O 	0.35940 0.01780 0.50900 -0.74700
O 	O 	0.39280 0.06970 0.35290 -0.83000
Al	Al	0.10937 0.67413 0.76193 2.38500
P 	P 	0.09947 0.44203 0.77893 0.82100
O 	O 	0.08677 0.54103 0.80213 -0.77500
O 	O 	0.21877 0.47133 0.78933 -0.85500
O 	O 	0.02607 0.35113 0.84233 -0.75000
O 	O 	0.05947 0.40303 0.68623 -0.83000
Al	Al	0.77603 0.00747 0.09527 2.38400
P 	P 	0.76613 0.77537 0.11227 0.82100
O 	O 	0.75343 0.87437 0.13547 -0.77100
O 	O 	0.88543 0.80467 0.12267 -0.85600
O 	O 	0.69273 0.68447 0.17567 -0.74800
O 	O 	0.72613 0.73637 0.01957 -0.83000
Al	Al	0.34080 0.89810 0.57140 2.38500
P 	P 	0.10870 0.67590 0.55440 0.82100
O 	O 	0.20770 0.78760 0.53120 -0.77300
O 	O 	0.13800 0.58590 0.54400 -0.85400
O 	O 	0.01780 0.65840 0.49100 -0.74700
O 	O 	0.06970 0.67690 0.64710 -0.83000
Al	Al	0.00747 0.23143 0.90473 2.38500
P 	P 	0.77537 0.00923 0.88773 0.83200
O 	O 	0.87437 0.12093 0.86453 -0.76900
O 	O 	0.80467 0.91923 0.87733 -0.86000
O 	O 	0.68447 0.99173 0.82433 -0.75400
O 	O 	0.73637 0.01023 0.98043 -0.82300
Al	Al	0.67413 0.56477 0.23807 2.38500
P 	P 	0.44203 0.34257 0.22107 0.82100
O 	O 	0.54103 0.45427 0.19787 -0.77300
O 	O 	0.47133 0.25257 0.21067 -0.85600
O 	O 	0.35113 0.32507 0.15767 -0.74800
O 	O 	0.40303 0.34357 0.31377 -0.82900
Al	Al	0.10190 0.44270 0.57140 2.38500
P 	P 	0.32410 0.43280 0.55440 0.82100
O 	O 	0.21240 0.42010 0.53120 -0.77300
O 	O 	0.41410 0.55210 0.54400 -0.85500
O 	O 	0.34160 0.35940 0.49100 -0.74800
O 	O 	0.32310 0.39280 0.64710 -0.83000
Al	Al	0.76857 0.77603 0.90473 2.38500
P 	P 	0.99077 0.76613 0.88773 0.83200
O 	O 	0.87907 0.75343 0.86453 -0.77300
O 	O 	0.08077 0.88543 0.87733 -0.86500
O 	O 	0.00827 0.69273 0.82433 -0.75500
O 	O 	0.98977 0.72613 0.98043 -0.82800
Al	Al	0.43523 0.10937 0.23807 2.38500
P 	P 	0.65743 0.09947 0.22107 0.82100
O 	O 	0.54573 0.08677 0.19787 -0.77500
O 	O 	0.74743 0.21877 0.21067 -0.85600
O 	O 	0.67493 0.02607 0.15767 -0.75200
O 	O 	0.65643 0.05947 0.31377 -0.83000
Al	Al	0.55730 0.65920 0.57140 2.38500
P 	P 	0.56720 0.89130 0.55440 0.82100
O 	O 	0.57990 0.79230 0.53120 -0.77300
O 	O 	0.44790 0.86200 0.54400 -0.85400
O 	O 	0.64060 0.98220 0.49100 -0.74700
O 	O 	0.60720 0.93030 0.64710 -0.83000
Al	Al	0.22397 0.99253 0.90473 2.38400
P 	P 	0.23387 0.22463 0.88773 0.82100
O 	O 	0.24657 0.12563 0.86453 -0.77100
O 	O 	0.11457 0.19533 0.87733 -0.85600
O 	O 	0.30727 0.31553 0.82433 -0.74800
O 	O 	0.27387 0.26363 0.98043 -0.83000
Al	Al	0.89063 0.32587 0.23807 2.38500
P 	P 	0.90053 0.55797 0.22107 0.82100
O 	O 	0.91323 0.45897 0.19787 -0.77500
O 	O 	0.78123 0.52867 0.21067 -0.85500
O 	O 	0.97393 0.64887 0.15767 -0.75000
O 	O 	0.94053 0.59697 0.31377 -0.83000
