data_crystal

_cell_length_a 13.82570
_cell_length_b 14.47880
_cell_length_c 10.16580
_cell_angle_alpha 90.00000
_cell_angle_beta  90.00000
_cell_angle_gamma 90.00000

_symmetry_space_group_name_	'P 1'
_symmetry_space_group_name_H-M	'P 1'

loop_
_symmetry_equiv_pos_as_xyz
  x,y,z

loop_
_atom_site_label
_atom_site_type_symbol
_atom_site_fract_x
_atom_site_fract_y
_atom_site_fract_z
_atom_site_charge
Al	Al	0.26360 0.14720 0.53270 2.38100
P 	P 	0.33270 0.26300 0.28420 0.83600
O 	O 	0.39120 0.18510 0.22490 -0.88200
O 	O 	0.15690 0.08450 0.47960 -0.93800
O 	O 	0.36920 0.07020 0.56980 -0.81700
O 	O 	0.39900 0.34480 0.30640 -0.86000
O 	O 	0.25380 0.28680 0.19040 -0.84100
O 	O 	0.49680 0.04650 0.39540 -0.78500
O 	O 	0.28790 0.23990 0.41060 -0.82300
O 	O 	0.03120 0.01550 0.61550 -1.04500
Al	Al	0.76360 0.64720 0.53270 2.38400
P 	P 	0.83270 0.76300 0.28420 0.81400
O 	O 	0.89120 0.68510 0.22490 -0.66300
O 	O 	0.65690 0.58450 0.47960 -0.85000
O 	O 	0.86920 0.57020 0.56980 -0.70900
O 	O 	0.89900 0.84480 0.30640 -0.63000
O 	O 	0.75380 0.78680 0.19040 -0.74000
O 	O 	0.99680 0.54650 0.39540 -0.49500
O 	O 	0.78790 0.73990 0.41060 -0.71500
O 	O 	0.53120 0.51550 0.61550 -0.78900
Al	Al	0.73640 0.85280 0.03270 2.37600
P 	P 	0.66730 0.73700 0.78420 0.82900
O 	O 	0.60880 0.81490 0.72490 -0.80800
O 	O 	0.84310 0.91550 0.97960 -0.58300
O 	O 	0.63080 0.92980 0.06980 -0.72100
O 	O 	0.60100 0.65520 0.80640 -0.80600
O 	O 	0.74620 0.71320 0.69040 -0.67100
O 	O 	0.50320 0.95350 0.89540 -0.59200
O 	O 	0.71210 0.76010 0.91060 -0.68100
O 	O 	0.96880 0.98450 0.11550 -0.43400
Al	Al	0.23640 0.35280 0.03270 2.37300
P 	P 	0.16730 0.23700 0.78420 0.84600
O 	O 	0.10880 0.31490 0.72490 -1.01100
O 	O 	0.34310 0.41550 0.97960 -0.75600
O 	O 	0.13080 0.42980 0.06980 -0.90900
O 	O 	0.10100 0.15520 0.80640 -1.01900
O 	O 	0.24620 0.21320 0.69040 -0.77500
O 	O 	0.00320 0.45350 0.89540 -0.94300
O 	O 	0.21210 0.26010 0.91060 -0.78400
O 	O 	0.46880 0.48450 0.11550 -0.79200
Al	Al	0.73640 0.14720 0.96730 2.38800
P 	P 	0.66730 0.26300 0.21580 0.83300
O 	O 	0.60880 0.18510 0.27510 -0.84800
O 	O 	0.84310 0.08450 0.02040 -0.82100
O 	O 	0.63080 0.07020 0.93020 -0.71400
O 	O 	0.60100 0.34480 0.19360 -0.84800
O 	O 	0.74620 0.28680 0.30960 -0.70100
O 	O 	0.50320 0.04650 0.10460 -0.80200
O 	O 	0.71210 0.23990 0.08940 -0.78200
O 	O 	0.96880 0.01550 0.88450 -0.47200
Al	Al	0.23640 0.64720 0.96730 2.38700
P 	P 	0.16730 0.76300 0.21580 0.85100
O 	O 	0.10880 0.68510 0.27510 -1.02300
O 	O 	0.34310 0.58450 0.02040 -0.89400
O 	O 	0.13080 0.57020 0.93020 -0.78500
O 	O 	0.10100 0.84480 0.19360 -1.02800
O 	O 	0.24620 0.78680 0.30960 -0.77100
O 	O 	0.00320 0.54650 0.10460 -1.03500
O 	O 	0.21210 0.73990 0.08940 -0.85300
O 	O 	0.46880 0.51550 0.88450 -0.70000
Al	Al	0.26360 0.85280 0.46730 2.38100
P 	P 	0.33270 0.73700 0.71580 0.83500
O 	O 	0.39120 0.81490 0.77510 -0.81800
O 	O 	0.15690 0.91550 0.52040 -0.82900
O 	O 	0.36920 0.92980 0.43020 -0.71500
O 	O 	0.39900 0.65520 0.69360 -0.84400
O 	O 	0.25380 0.71320 0.80960 -0.76300
O 	O 	0.49680 0.95350 0.60460 -0.66100
O 	O 	0.28790 0.76010 0.58940 -0.80700
O 	O 	0.03120 0.98450 0.38450 -0.92300
Al	Al	0.76360 0.35280 0.46730 2.38300
P 	P 	0.83270 0.23700 0.71580 0.81300
O 	O 	0.89120 0.31490 0.77510 -0.62800
O 	O 	0.65690 0.41550 0.52040 -0.84700
O 	O 	0.86920 0.42980 0.43020 -0.72400
O 	O 	0.89900 0.15520 0.69360 -0.64600
O 	O 	0.75380 0.21320 0.80960 -0.69600
O 	O 	0.99680 0.45350 0.60460 -0.49100
O 	O 	0.78790 0.26010 0.58940 -0.73100
O 	O 	0.53120 0.48450 0.38450 -0.79700
Al	Al	0.50000 0.11570 0.25000 2.38500
Al	Al	0.50000 0.41030 0.25000 2.38900
Al	Al	0.00000 0.61570 0.25000 2.35300
Al	Al	-0.00000 0.91030 0.25000 2.35600
Al	Al	0.50000 0.88430 0.75000 2.38700
Al	Al	0.50000 0.58970 0.75000 2.39000
Al	Al	0.00000 0.38430 0.75000 2.35300
Al	Al	0.00000 0.08970 0.75000 2.35600
P 	P 	0.09500 0.00000 0.50000 0.71800
P 	P 	0.43160 0.00000 0.50000 0.58300
P 	P 	0.59500 0.50000 0.50000 0.86800
P 	P 	0.93160 0.50000 0.50000 0.73900
P 	P 	0.90500 0.00000 -0.00000 0.51100
P 	P 	0.56840 0.00000 -0.00000 0.44300
P 	P 	0.40500 0.50000 -0.00000 0.70800
P 	P 	0.06840 0.50000 -0.00000 0.61500
