data_crystal

_cell_length_a 10.22030
_cell_length_b 14.14500
_cell_length_c 14.60100
_cell_angle_alpha 90.00000
_cell_angle_beta  90.00000
_cell_angle_gamma 90.00000

_symmetry_space_group_name_	'P 1'
_symmetry_space_group_name_H-M	'P 1'

loop_
_symmetry_equiv_pos_as_xyz
  x,y,z

loop_
_atom_site_label
_atom_site_type_symbol
_atom_site_fract_x
_atom_site_fract_y
_atom_site_fract_z
_atom_site_charge
O 	O 	0.98670 0.10140 0.40540 -0.77400
O 	O 	0.92120 0.97810 0.29690 -0.84000
O 	O 	0.98670 0.60140 0.90540 -0.77000
O 	O 	0.92120 0.47810 0.79690 -0.82900
O 	O 	0.48670 0.10140 0.90540 -0.77600
O 	O 	0.42120 0.97810 0.79690 -0.82500
O 	O 	0.48670 0.60140 0.40540 -0.77500
O 	O 	0.42120 0.47810 0.29690 -0.83200
O 	O 	0.76330 0.64860 0.40540 -0.77600
O 	O 	0.82880 0.77190 0.29690 -0.83400
O 	O 	0.76330 0.14860 0.90540 -0.77600
O 	O 	0.82880 0.27190 0.79690 -0.83000
O 	O 	0.26330 0.64860 0.90540 -0.77800
O 	O 	0.32880 0.77190 0.79690 -0.83200
O 	O 	0.26330 0.14860 0.40540 -0.77500
O 	O 	0.32880 0.27190 0.29690 -0.83100
O 	O 	0.76330 0.10140 0.34460 -0.77600
O 	O 	0.82880 0.97810 0.45310 -0.83600
O 	O 	0.76330 0.60140 0.84460 -0.77400
O 	O 	0.82880 0.47810 0.95310 -0.82900
O 	O 	0.26330 0.10140 0.84460 -0.77900
O 	O 	0.32880 0.97810 0.95310 -0.82300
O 	O 	0.26330 0.60140 0.34460 -0.77500
O 	O 	0.32880 0.47810 0.45310 -0.83100
O 	O 	0.98670 0.64860 0.34460 -0.77900
O 	O 	0.92120 0.77190 0.45310 -0.83200
O 	O 	0.98670 0.14860 0.84460 -0.77100
O 	O 	0.92120 0.27190 0.95310 -0.82800
O 	O 	0.48670 0.64860 0.84460 -0.77500
O 	O 	0.42120 0.77190 0.95310 -0.82900
O 	O 	0.48670 0.14860 0.34460 -0.77500
O 	O 	0.42120 0.27190 0.45310 -0.83100
O 	O 	0.01330 0.89860 0.59460 -0.77500
O 	O 	0.07880 0.02190 0.70310 -0.84100
O 	O 	0.01330 0.39860 0.09460 -0.77100
O 	O 	0.07880 0.52190 0.20310 -0.83000
O 	O 	0.51330 0.89860 0.09460 -0.77600
O 	O 	0.57880 0.02190 0.20310 -0.82500
O 	O 	0.51330 0.39860 0.59460 -0.77500
O 	O 	0.57880 0.52190 0.70310 -0.83200
O 	O 	0.23670 0.35140 0.59460 -0.77600
O 	O 	0.17120 0.22810 0.70310 -0.83400
O 	O 	0.23670 0.85140 0.09460 -0.77600
O 	O 	0.17120 0.72810 0.20310 -0.83000
O 	O 	0.73670 0.35140 0.09460 -0.77800
O 	O 	0.67120 0.22810 0.20310 -0.83200
O 	O 	0.73670 0.85140 0.59460 -0.77500
O 	O 	0.67120 0.72810 0.70310 -0.83100
O 	O 	0.23670 0.89860 0.65540 -0.77600
O 	O 	0.17120 0.02190 0.54690 -0.83600
O 	O 	0.23670 0.39860 0.15540 -0.77400
O 	O 	0.17120 0.52190 0.04690 -0.82900
O 	O 	0.73670 0.89860 0.15540 -0.77900
O 	O 	0.67120 0.02190 0.04690 -0.82300
O 	O 	0.73670 0.39860 0.65540 -0.77500
O 	O 	0.67120 0.52190 0.54690 -0.83100
O 	O 	0.01330 0.35140 0.65540 -0.77900
O 	O 	0.07880 0.22810 0.54690 -0.83200
O 	O 	0.01330 0.85140 0.15540 -0.77100
O 	O 	0.07880 0.72810 0.04690 -0.82800
O 	O 	0.51330 0.35140 0.15540 -0.77500
O 	O 	0.57880 0.22810 0.04690 -0.82900
O 	O 	0.51330 0.85140 0.65540 -0.77500
O 	O 	0.57880 0.72810 0.54690 -0.83100
Al	Al	0.12500 0.12500 0.47950 2.38600
Al	Al	0.12500 0.62500 0.97950 2.38500
Al	Al	0.62500 0.62500 0.47950 2.38600
Al	Al	0.62500 0.12500 0.97950 2.38600
Al	Al	0.62500 0.12500 0.27050 2.38600
Al	Al	0.62500 0.62500 0.77050 2.38600
Al	Al	0.12500 0.62500 0.27050 2.38600
Al	Al	0.12500 0.12500 0.77050 2.38600
Al	Al	0.87500 0.87500 0.52050 2.38600
Al	Al	0.87500 0.37500 0.02050 2.38500
Al	Al	0.37500 0.37500 0.52050 2.38600
Al	Al	0.37500 0.87500 0.02050 2.38600
Al	Al	0.37500 0.87500 0.72950 2.38600
Al	Al	0.37500 0.37500 0.22950 2.38600
Al	Al	0.87500 0.37500 0.72950 2.38600
Al	Al	0.87500 0.87500 0.22950 2.38600
P 	P 	0.87500 0.03900 0.37500 0.83500
P 	P 	0.87500 0.53900 0.87500 0.82700
P 	P 	0.37500 0.03900 0.87500 0.81400
P 	P 	0.37500 0.53900 0.37500 0.82700
P 	P 	0.87500 0.71100 0.37500 0.82700
P 	P 	0.87500 0.21100 0.87500 0.82700
P 	P 	0.37500 0.71100 0.87500 0.82700
P 	P 	0.37500 0.21100 0.37500 0.82700
P 	P 	0.12500 0.96100 0.62500 0.83500
P 	P 	0.12500 0.46100 0.12500 0.82700
P 	P 	0.62500 0.96100 0.12500 0.81400
P 	P 	0.62500 0.46100 0.62500 0.82700
P 	P 	0.12500 0.28900 0.62500 0.82700
P 	P 	0.12500 0.78900 0.12500 0.82700
P 	P 	0.62500 0.28900 0.12500 0.82700
P 	P 	0.62500 0.78900 0.62500 0.82700
