data_crystal

_cell_length_a 14.66150
_cell_length_b 14.66150
_cell_length_c 9.61460
_cell_angle_alpha 90.00000
_cell_angle_beta  90.00000
_cell_angle_gamma 90.00000

_symmetry_space_group_name_	'P 1'
_symmetry_space_group_name_H-M	'P 1'

loop_
_symmetry_equiv_pos_as_xyz
  x,y,z

loop_
_atom_site_label
_atom_site_type_symbol
_atom_site_fract_x
_atom_site_fract_y
_atom_site_fract_z
_atom_site_charge
Al	Al	0.50760 0.13600 0.39990 2.37800
P 	P 	0.51120 0.14780 0.06420 0.78000
O 	O 	0.54520 0.13590 0.20970 -0.82600
O 	O 	0.42610 0.09490 0.03470 -0.84000
O 	O 	0.49870 0.24710 0.02380 -0.75200
O 	O 	0.58590 0.11560 0.96960 -0.74200
Al	Al	0.99240 0.36400 0.39990 2.37600
P 	P 	0.98880 0.35220 0.06420 0.72500
O 	O 	0.95480 0.36410 0.20970 -0.82700
O 	O 	0.07390 0.40510 0.03470 -0.82600
O 	O 	0.00130 0.25290 0.02380 -0.71800
O 	O 	0.91410 0.38440 0.96960 -0.71900
Al	Al	0.36400 0.50760 0.39990 2.37700
P 	P 	0.35220 0.51120 0.06420 0.77300
O 	O 	0.36410 0.54520 0.20970 -0.82600
O 	O 	0.40510 0.42610 0.03470 -0.84600
O 	O 	0.25290 0.49870 0.02380 -0.75200
O 	O 	0.38440 0.58590 0.96960 -0.73100
Al	Al	0.13600 0.99240 0.39990 2.37500
P 	P 	0.14780 0.98880 0.06420 0.71400
O 	O 	0.13590 0.95480 0.20970 -0.83100
O 	O 	0.09490 0.07390 0.03470 -0.80300
O 	O 	0.24710 0.00130 0.02380 -0.71300
O 	O 	0.11560 0.91410 0.96960 -0.73300
Al	Al	0.99240 0.13600 0.10010 2.37500
P 	P 	0.98880 0.14780 0.43580 0.73500
O 	O 	0.95480 0.13590 0.29030 -0.83400
O 	O 	0.07390 0.09490 0.46530 -0.81800
O 	O 	0.00130 0.24710 0.47620 -0.72800
O 	O 	0.91410 0.11560 0.53040 -0.73300
Al	Al	0.50760 0.36400 0.10010 2.37700
P 	P 	0.51120 0.35220 0.43580 0.77200
O 	O 	0.54520 0.36410 0.29030 -0.82600
O 	O 	0.42610 0.40510 0.46530 -0.84600
O 	O 	0.49870 0.25290 0.47620 -0.75300
O 	O 	0.58590 0.38440 0.53040 -0.72800
Al	Al	0.13600 0.50760 0.10010 2.37700
P 	P 	0.14780 0.51120 0.43580 0.77200
O 	O 	0.13590 0.54520 0.29030 -0.82600
O 	O 	0.09490 0.42610 0.46530 -0.84400
O 	O 	0.24710 0.49870 0.47620 -0.75300
O 	O 	0.11560 0.58590 0.53040 -0.73100
Al	Al	0.36400 0.99240 0.10010 2.37600
P 	P 	0.35220 0.98880 0.43580 0.75300
O 	O 	0.36410 0.95480 0.29030 -0.83000
O 	O 	0.40510 0.07390 0.46530 -0.83800
O 	O 	0.25290 0.00130 0.47620 -0.73400
O 	O 	0.38440 0.91410 0.53040 -0.72700
Al	Al	0.49240 0.86400 0.60010 2.37700
P 	P 	0.48880 0.85220 0.93580 0.77900
O 	O 	0.45480 0.86410 0.79030 -0.82600
O 	O 	0.57390 0.90510 0.96530 -0.84000
O 	O 	0.50130 0.75290 0.97620 -0.75200
O 	O 	0.41410 0.88440 0.03040 -0.74200
Al	Al	0.00760 0.63600 0.60010 2.37600
P 	P 	0.01120 0.64780 0.93580 0.72500
O 	O 	0.04520 0.63590 0.79030 -0.82700
O 	O 	0.92610 0.59490 0.96530 -0.82600
O 	O 	0.99870 0.74710 0.97620 -0.71800
O 	O 	0.08590 0.61560 0.03040 -0.71900
Al	Al	0.63600 0.49240 0.60010 2.37700
P 	P 	0.64780 0.48880 0.93580 0.77300
O 	O 	0.63590 0.45480 0.79030 -0.82600
O 	O 	0.59490 0.57390 0.96530 -0.84600
O 	O 	0.74710 0.50130 0.97620 -0.75200
O 	O 	0.61560 0.41410 0.03040 -0.73100
Al	Al	0.86400 0.00760 0.60010 2.37500
P 	P 	0.85220 0.01120 0.93580 0.71400
O 	O 	0.86410 0.04520 0.79030 -0.83100
O 	O 	0.90510 0.92610 0.96530 -0.80300
O 	O 	0.75290 0.99870 0.97620 -0.71300
O 	O 	0.88440 0.08590 0.03040 -0.73300
Al	Al	0.00760 0.86400 0.89990 2.37500
P 	P 	0.01120 0.85220 0.56420 0.73500
O 	O 	0.04520 0.86410 0.70970 -0.83400
O 	O 	0.92610 0.90510 0.53470 -0.81800
O 	O 	0.99870 0.75290 0.52380 -0.72800
O 	O 	0.08590 0.88440 0.46960 -0.73300
Al	Al	0.49240 0.63600 0.89990 2.37700
P 	P 	0.48880 0.64780 0.56420 0.77200
O 	O 	0.45480 0.63590 0.70970 -0.82600
O 	O 	0.57390 0.59490 0.53470 -0.84600
O 	O 	0.50130 0.74710 0.52380 -0.75300
O 	O 	0.41410 0.61560 0.46960 -0.72800
Al	Al	0.86400 0.49240 0.89990 2.37700
P 	P 	0.85220 0.48880 0.56420 0.77200
O 	O 	0.86410 0.45480 0.70970 -0.82600
O 	O 	0.90510 0.57390 0.53470 -0.84400
O 	O 	0.75290 0.50130 0.52380 -0.75300
O 	O 	0.88440 0.41410 0.46960 -0.73100
Al	Al	0.63600 0.00760 0.89990 2.37600
P 	P 	0.64780 0.01120 0.56420 0.75300
O 	O 	0.63590 0.04520 0.70970 -0.83000
O 	O 	0.59490 0.92610 0.53470 -0.83800
O 	O 	0.74710 0.99870 0.52380 -0.73400
O 	O 	0.61560 0.08590 0.46960 -0.72700
