data_crystal

_cell_length_a 10.22330
_cell_length_b 14.60520
_cell_length_c 14.30410
_cell_angle_alpha 90.00000
_cell_angle_beta  90.16200
_cell_angle_gamma 90.00000

_symmetry_space_group_name_	'P 1'
_symmetry_space_group_name_H-M	'P 1'

loop_
_symmetry_equiv_pos_as_xyz
  x,y,z

loop_
_atom_site_label
_atom_site_type_symbol
_atom_site_fract_x
_atom_site_fract_y
_atom_site_fract_z
_atom_site_charge
Al	Al	0.35820 0.38610 0.01630 2.38100
Al	Al	0.63380 0.23070 0.87110 2.38100
P 	P 	0.33260 0.23520 0.85740 0.76100
P 	P 	0.66950 0.39770 0.01300 0.78700
O 	O 	0.53340 0.39120 0.05210 -0.82700
O 	O 	0.67800 0.34520 0.92190 -0.80500
O 	O 	0.46210 0.19140 0.88640 -0.82300
O 	O 	0.32590 0.25180 0.75380 -0.76200
O 	O 	0.31690 0.32860 0.90390 -0.80300
O 	O 	0.70860 0.49630 0.99210 -0.74600
O 	O 	0.22150 0.17270 0.88300 -0.76000
O 	O 	0.76530 0.36170 0.08380 -0.79200
Al	Al	0.85820 0.88610 0.01630 2.37900
Al	Al	0.13380 0.73070 0.87110 2.38100
P 	P 	0.83260 0.73520 0.85740 0.76100
P 	P 	0.16950 0.89770 0.01300 0.78300
O 	O 	0.03340 0.89120 0.05210 -0.82800
O 	O 	0.17800 0.84520 0.92190 -0.80400
O 	O 	0.96210 0.69140 0.88640 -0.81500
O 	O 	0.82590 0.75180 0.75380 -0.76000
O 	O 	0.81690 0.82860 0.90390 -0.79400
O 	O 	0.20860 0.99630 0.99210 -0.74500
O 	O 	0.72150 0.67270 0.88300 -0.75200
O 	O 	0.26530 0.86170 0.08380 -0.79200
Al	Al	0.64180 0.38610 0.48370 2.38100
Al	Al	0.36620 0.23070 0.62890 2.38100
P 	P 	0.66740 0.23520 0.64260 0.76100
P 	P 	0.33050 0.39770 0.48700 0.78800
O 	O 	0.46660 0.39120 0.44790 -0.82800
O 	O 	0.32200 0.34520 0.57810 -0.80600
O 	O 	0.53790 0.19140 0.61360 -0.82100
O 	O 	0.67410 0.25180 0.74620 -0.76100
O 	O 	0.68310 0.32860 0.59610 -0.80000
O 	O 	0.29140 0.49630 0.50790 -0.75000
O 	O 	0.77850 0.17270 0.61700 -0.75400
O 	O 	0.23470 0.36170 0.41620 -0.79100
Al	Al	0.14180 0.88610 0.48370 2.38100
Al	Al	0.86620 0.73070 0.62890 2.38100
P 	P 	0.16740 0.73520 0.64260 0.76100
P 	P 	0.83050 0.89770 0.48700 0.78800
O 	O 	0.96660 0.89120 0.44790 -0.83000
O 	O 	0.82200 0.84520 0.57810 -0.80500
O 	O 	0.03790 0.69140 0.61360 -0.82200
O 	O 	0.17410 0.75180 0.74620 -0.76300
O 	O 	0.18310 0.82860 0.59610 -0.80000
O 	O 	0.79140 0.99630 0.50790 -0.75100
O 	O 	0.27850 0.67270 0.61700 -0.75400
O 	O 	0.73470 0.86170 0.41620 -0.79200
Al	Al	0.64180 0.61390 0.98370 2.38100
Al	Al	0.36620 0.76930 0.12890 2.38100
P 	P 	0.66740 0.76480 0.14260 0.76100
P 	P 	0.33050 0.60230 0.98700 0.78700
O 	O 	0.46660 0.60880 0.94790 -0.82700
O 	O 	0.32200 0.65480 0.07810 -0.80500
O 	O 	0.53790 0.80860 0.11360 -0.82300
O 	O 	0.67410 0.74820 0.24620 -0.76200
O 	O 	0.68310 0.67140 0.09610 -0.80300
O 	O 	0.29140 0.50370 0.00790 -0.74600
O 	O 	0.77850 0.82730 0.11700 -0.76000
O 	O 	0.23470 0.63830 0.91620 -0.79200
Al	Al	0.14180 0.11390 0.98370 2.37900
Al	Al	0.86620 0.26930 0.12890 2.38100
P 	P 	0.16740 0.26480 0.14260 0.76100
P 	P 	0.83050 0.10230 0.98700 0.78300
O 	O 	0.96660 0.10880 0.94790 -0.82800
O 	O 	0.82200 0.15480 0.07810 -0.80400
O 	O 	0.03790 0.30860 0.11360 -0.81500
O 	O 	0.17410 0.24820 0.24620 -0.76000
O 	O 	0.18310 0.17140 0.09610 -0.79400
O 	O 	0.79140 0.00370 0.00790 -0.74500
O 	O 	0.27850 0.32730 0.11700 -0.75200
O 	O 	0.73470 0.13830 0.91620 -0.79200
Al	Al	0.35820 0.61390 0.51630 2.38100
Al	Al	0.63380 0.76930 0.37110 2.38100
P 	P 	0.33260 0.76480 0.35740 0.76100
P 	P 	0.66950 0.60230 0.51300 0.78800
O 	O 	0.53340 0.60880 0.55210 -0.82800
O 	O 	0.67800 0.65480 0.42190 -0.80600
O 	O 	0.46210 0.80860 0.38640 -0.82100
O 	O 	0.32590 0.74820 0.25380 -0.76100
O 	O 	0.31690 0.67140 0.40390 -0.80000
O 	O 	0.70860 0.50370 0.49210 -0.75000
O 	O 	0.22150 0.82730 0.38300 -0.75400
O 	O 	0.76530 0.63830 0.58380 -0.79100
Al	Al	0.85820 0.11390 0.51630 2.38100
Al	Al	0.13380 0.26930 0.37110 2.38100
P 	P 	0.83260 0.26480 0.35740 0.76100
P 	P 	0.16950 0.10230 0.51300 0.78800
O 	O 	0.03340 0.10880 0.55210 -0.83000
O 	O 	0.17800 0.15480 0.42190 -0.80500
O 	O 	0.96210 0.30860 0.38640 -0.82200
O 	O 	0.82590 0.24820 0.25380 -0.76300
O 	O 	0.81690 0.17140 0.40390 -0.80000
O 	O 	0.20860 0.00370 0.49210 -0.75100
O 	O 	0.72150 0.32730 0.38300 -0.75400
O 	O 	0.26530 0.13830 0.58380 -0.79200
