data_crystal

_cell_length_a 10.24000
_cell_length_b 10.24000
_cell_length_c 9.65230
_cell_angle_alpha 90.00000
_cell_angle_beta  90.00000
_cell_angle_gamma 90.00000

_symmetry_space_group_name_	'P 1'
_symmetry_space_group_name_H-M	'P 1'

loop_
_symmetry_equiv_pos_as_xyz
  x,y,z

loop_
_atom_site_label
_atom_site_type_symbol
_atom_site_fract_x
_atom_site_fract_y
_atom_site_fract_z
_atom_site_charge
O 	O 	0.69650 0.48180 0.78190 -0.80200
O 	O 	0.19650 0.98180 0.28190 -0.80200
O 	O 	0.30350 0.51820 0.78190 -0.80200
O 	O 	0.80350 0.01820 0.28190 -0.80200
O 	O 	0.48180 0.30350 0.21810 -0.80300
O 	O 	0.98180 0.80350 0.71810 -0.80300
O 	O 	0.51820 0.69650 0.21810 -0.80300
O 	O 	0.01820 0.19650 0.71810 -0.80300
O 	O 	0.30350 0.48180 0.21810 -0.80300
O 	O 	0.80350 0.98180 0.71810 -0.80300
O 	O 	0.69650 0.51820 0.21810 -0.80300
O 	O 	0.19650 0.01820 0.71810 -0.80300
O 	O 	0.51820 0.30350 0.78190 -0.80300
O 	O 	0.01820 0.80350 0.28190 -0.80300
O 	O 	0.48180 0.69650 0.78190 -0.80300
O 	O 	0.98180 0.19650 0.28190 -0.80300
Al	Al	0.63320 0.36680 0.13160 2.36400
P 	P 	0.66470 0.33530 0.80910 0.64200
O 	O 	0.69990 0.30010 0.95550 -0.78400
O 	O 	0.74130 0.25870 0.70460 -0.61600
Al	Al	0.13320 0.86680 0.63160 2.36300
P 	P 	0.16470 0.83530 0.30910 0.64200
O 	O 	0.19990 0.80010 0.45550 -0.78400
O 	O 	0.24130 0.75870 0.20460 -0.61600
Al	Al	0.36680 0.63320 0.13160 2.36400
P 	P 	0.33530 0.66470 0.80910 0.64200
O 	O 	0.30010 0.69990 0.95550 -0.78400
O 	O 	0.25870 0.74130 0.70460 -0.61600
Al	Al	0.86680 0.13320 0.63160 2.36300
P 	P 	0.83530 0.16470 0.30910 0.64200
O 	O 	0.80010 0.19990 0.45550 -0.78400
O 	O 	0.75870 0.24130 0.20460 -0.61600
Al	Al	0.36680 0.36680 0.86840 2.36400
P 	P 	0.33530 0.33530 0.19090 0.64200
O 	O 	0.30010 0.30010 0.04450 -0.78400
O 	O 	0.25870 0.25870 0.29540 -0.61600
Al	Al	0.86680 0.86680 0.36840 2.36300
P 	P 	0.83530 0.83530 0.69090 0.64200
O 	O 	0.80010 0.80010 0.54450 -0.78400
O 	O 	0.75870 0.75870 0.79540 -0.61600
Al	Al	0.63320 0.63320 0.86840 2.36400
P 	P 	0.66470 0.66470 0.19090 0.64200
O 	O 	0.69990 0.69990 0.04450 -0.78400
O 	O 	0.74130 0.74130 0.29540 -0.61600
Al	Al	0.13320 0.13320 0.36840 2.36300
P 	P 	0.16470 0.16470 0.69090 0.64200
O 	O 	0.19990 0.19990 0.54450 -0.78400
O 	O 	0.24130 0.24130 0.79540 -0.61600
