data_crystal

_cell_length_a 8.91000
_cell_length_b 14.97400
_cell_length_c 14.71200
_cell_angle_alpha 90.00000
_cell_angle_beta  90.00000
_cell_angle_gamma 90.00000

_symmetry_space_group_name_	'P 1'
_symmetry_space_group_name_H-M	'P 1'

loop_
_symmetry_equiv_pos_as_xyz
  x,y,z

loop_
_atom_site_label
_atom_site_type_symbol
_atom_site_fract_x
_atom_site_fract_y
_atom_site_fract_z
_atom_site_charge
Al	Al	0.84320 0.34530 0.11690 2.37700
P 	P 	0.83040 0.13470 0.10270 0.84000
O 	O 	0.76510 0.22600 0.12110 -0.81200
O 	O 	0.95750 0.85310 0.33550 -0.81000
O 	O 	0.72800 0.06550 0.13620 -0.73600
O 	O 	0.85720 0.11670 0.00570 -0.75700
O 	O 	0.29960 0.92030 0.32620 -0.87000
O 	O 	0.97800 0.12700 0.14950 -0.87600
O 	O 	0.20400 0.04140 0.21610 -0.53300
Al	Al	0.15680 0.65470 0.61690 2.37600
P 	P 	0.16960 0.86530 0.60270 0.83900
O 	O 	0.23490 0.77400 0.62110 -0.81300
O 	O 	0.04250 0.14690 0.83550 -0.81200
O 	O 	0.27200 0.93450 0.63620 -0.73600
O 	O 	0.14280 0.88330 0.50570 -0.75700
O 	O 	0.70040 0.07970 0.82620 -0.87100
O 	O 	0.02200 0.87300 0.64950 -0.87600
O 	O 	0.79600 0.95860 0.71610 -0.53300
Al	Al	0.15680 0.84530 0.38310 2.37600
P 	P 	0.16960 0.63470 0.39730 0.83900
O 	O 	0.23490 0.72600 0.37890 -0.81300
O 	O 	0.04250 0.35310 0.16450 -0.81200
O 	O 	0.27200 0.56550 0.36380 -0.73600
O 	O 	0.14280 0.61670 0.49430 -0.75700
O 	O 	0.70040 0.42030 0.17380 -0.87000
O 	O 	0.02200 0.62700 0.35050 -0.87500
O 	O 	0.79600 0.54140 0.28390 -0.53600
Al	Al	0.84320 0.15470 0.88310 2.37600
P 	P 	0.83040 0.36530 0.89730 0.83900
O 	O 	0.76510 0.27400 0.87890 -0.81300
O 	O 	0.95750 0.64690 0.66450 -0.81200
O 	O 	0.72800 0.43450 0.86380 -0.73600
O 	O 	0.85720 0.38330 0.99430 -0.75800
O 	O 	0.29960 0.57970 0.67380 -0.87000
O 	O 	0.97800 0.37300 0.85050 -0.87500
O 	O 	0.20400 0.45860 0.78390 -0.53600
Al	Al	0.15680 0.65470 0.88310 2.37600
P 	P 	0.16960 0.86530 0.89730 0.83900
O 	O 	0.23490 0.77400 0.87890 -0.81300
O 	O 	0.04250 0.14690 0.66450 -0.81100
O 	O 	0.27200 0.93450 0.86380 -0.73600
O 	O 	0.14280 0.88330 0.99430 -0.75700
O 	O 	0.70040 0.07970 0.67380 -0.87000
O 	O 	0.02200 0.87300 0.85050 -0.87600
O 	O 	0.79600 0.95860 0.78390 -0.53300
Al	Al	0.84320 0.34530 0.38310 2.37600
P 	P 	0.83040 0.13470 0.39730 0.83900
O 	O 	0.76510 0.22600 0.37890 -0.81300
O 	O 	0.95750 0.85310 0.16450 -0.81200
O 	O 	0.72800 0.06550 0.36380 -0.73600
O 	O 	0.85720 0.11670 0.49430 -0.75700
O 	O 	0.29960 0.92030 0.17380 -0.87100
O 	O 	0.97800 0.12700 0.35050 -0.87600
O 	O 	0.20400 0.04140 0.28390 -0.53300
Al	Al	0.84320 0.15470 0.61690 2.37600
P 	P 	0.83040 0.36530 0.60270 0.83900
O 	O 	0.76510 0.27400 0.62110 -0.81300
O 	O 	0.95750 0.64690 0.83550 -0.81200
O 	O 	0.72800 0.43450 0.63620 -0.73600
O 	O 	0.85720 0.38330 0.50570 -0.75700
O 	O 	0.29960 0.57970 0.82620 -0.87000
O 	O 	0.97800 0.37300 0.64950 -0.87500
O 	O 	0.20400 0.45860 0.71610 -0.53600
Al	Al	0.15680 0.84530 0.11690 2.37600
P 	P 	0.16960 0.63470 0.10270 0.83900
O 	O 	0.23490 0.72600 0.12110 -0.81300
O 	O 	0.04250 0.35310 0.33550 -0.81200
O 	O 	0.27200 0.56550 0.13620 -0.73600
O 	O 	0.14280 0.61670 0.00570 -0.75800
O 	O 	0.70040 0.42030 0.32620 -0.87000
O 	O 	0.02200 0.62700 0.14950 -0.87500
O 	O 	0.79600 0.54140 0.21610 -0.53600
Al	Al	0.67230 0.00760 0.25000 2.37800
Al	Al	0.91380 0.63240 0.25000 2.39300
P 	P 	0.31620 0.97490 0.25000 1.06400
P 	P 	0.87050 0.83450 0.25000 0.73000
O 	O 	0.81330 0.73860 0.25000 -0.72600
O 	O 	0.72630 0.88810 0.25000 -0.73000
O 	O 	0.46160 0.02700 0.25000 -0.74500
Al	Al	0.32770 0.99240 0.75000 2.37800
Al	Al	0.08620 0.36760 0.75000 2.39300
P 	P 	0.68380 0.02510 0.75000 1.06400
P 	P 	0.12950 0.16550 0.75000 0.73000
O 	O 	0.18670 0.26140 0.75000 -0.72600
O 	O 	0.27370 0.11190 0.75000 -0.73000
O 	O 	0.53840 0.97300 0.75000 -0.74500
Al	Al	0.32770 0.50760 0.25000 2.37800
Al	Al	0.08620 0.13240 0.25000 2.39300
P 	P 	0.68380 0.47490 0.25000 1.07000
P 	P 	0.12950 0.33450 0.25000 0.73000
O 	O 	0.18670 0.23860 0.25000 -0.72600
O 	O 	0.27370 0.38810 0.25000 -0.73000
O 	O 	0.53840 0.52700 0.25000 -0.74800
Al	Al	0.67230 0.49240 0.75000 2.37800
Al	Al	0.91380 0.86760 0.75000 2.39300
P 	P 	0.31620 0.52510 0.75000 1.07000
P 	P 	0.87050 0.66550 0.75000 0.73000
O 	O 	0.81330 0.76140 0.75000 -0.72600
O 	O 	0.72630 0.61190 0.75000 -0.73000
O 	O 	0.46160 0.47300 0.75000 -0.74800
