data_crystal

_cell_length_a 8.90910
_cell_length_b 14.97480
_cell_length_c 14.78910
_cell_angle_alpha 90.00000
_cell_angle_beta  90.00000
_cell_angle_gamma 90.00000

_symmetry_space_group_name_	'P 1'
_symmetry_space_group_name_H-M	'P 1'

loop_
_symmetry_equiv_pos_as_xyz
  x,y,z

loop_
_atom_site_label
_atom_site_type_symbol
_atom_site_fract_x
_atom_site_fract_y
_atom_site_fract_z
_atom_site_charge
Co	Co	0.15560 0.84470 0.38210 1.19200
P 	P 	0.82680 0.13400 0.10210 0.67500
O 	O 	0.75650 0.22640 0.12070 -0.46600
O 	O 	0.04550 0.35090 0.16310 -0.47500
O 	O 	0.73030 0.06380 0.13530 -0.47600
O 	O 	0.85140 0.11520 0.00470 -0.42800
O 	O 	0.97670 0.13920 0.12880 -0.63900
O 	O 	0.31750 0.90510 0.31460 -0.45900
O 	O 	0.19300 0.02960 0.20200 -0.51000
Co	Co	0.84440 0.15530 0.88210 1.19300
P 	P 	0.17320 0.86600 0.60210 0.67600
O 	O 	0.24350 0.77360 0.62070 -0.46500
O 	O 	0.95450 0.64910 0.66310 -0.47400
O 	O 	0.26970 0.93620 0.63530 -0.47500
O 	O 	0.14860 0.88480 0.50470 -0.42800
O 	O 	0.02330 0.86080 0.62880 -0.63900
O 	O 	0.68250 0.09490 0.81460 -0.46000
O 	O 	0.80700 0.97040 0.70200 -0.51000
Co	Co	0.84440 0.34470 0.11790 1.19300
P 	P 	0.17320 0.63400 0.39790 0.67600
O 	O 	0.24350 0.72640 0.37930 -0.46500
O 	O 	0.95450 0.85090 0.33690 -0.47400
O 	O 	0.26970 0.56380 0.36470 -0.47600
O 	O 	0.14860 0.61520 0.49530 -0.42800
O 	O 	0.02330 0.63920 0.37120 -0.63900
O 	O 	0.68250 0.40510 0.18540 -0.45900
O 	O 	0.80700 0.52960 0.29800 -0.51100
Co	Co	0.15560 0.65530 0.61790 1.19300
P 	P 	0.82680 0.36600 0.89790 0.67600
O 	O 	0.75650 0.27360 0.87930 -0.46600
O 	O 	0.04550 0.14910 0.83690 -0.47500
O 	O 	0.73030 0.43620 0.86470 -0.47600
O 	O 	0.85140 0.38480 0.99530 -0.42900
O 	O 	0.97670 0.36080 0.87120 -0.64000
O 	O 	0.31750 0.59490 0.68540 -0.45900
O 	O 	0.19300 0.47040 0.79800 -0.51100
Co	Co	0.84440 0.15530 0.61790 1.19300
P 	P 	0.17320 0.86600 0.89790 0.67600
O 	O 	0.24350 0.77360 0.87930 -0.46500
O 	O 	0.95450 0.64910 0.83690 -0.47400
O 	O 	0.26970 0.93620 0.86470 -0.47500
O 	O 	0.14860 0.88480 0.99530 -0.42700
O 	O 	0.02330 0.86080 0.87120 -0.63900
O 	O 	0.68250 0.09490 0.68540 -0.45900
O 	O 	0.80700 0.97040 0.79800 -0.51000
Co	Co	0.15560 0.84470 0.11790 1.19300
P 	P 	0.82680 0.13400 0.39790 0.67600
O 	O 	0.75650 0.22640 0.37930 -0.46500
O 	O 	0.04550 0.35090 0.33690 -0.47400
O 	O 	0.73030 0.06380 0.36470 -0.47500
O 	O 	0.85140 0.11520 0.49530 -0.42800
O 	O 	0.97670 0.13920 0.37120 -0.63900
O 	O 	0.31750 0.90510 0.18540 -0.46000
O 	O 	0.19300 0.02960 0.29800 -0.51000
Co	Co	0.15560 0.65530 0.88210 1.19300
P 	P 	0.82680 0.36600 0.60210 0.67600
O 	O 	0.75650 0.27360 0.62070 -0.46500
O 	O 	0.04550 0.14910 0.66310 -0.47400
O 	O 	0.73030 0.43620 0.63530 -0.47600
O 	O 	0.85140 0.38480 0.50470 -0.42800
O 	O 	0.97670 0.36080 0.62880 -0.63900
O 	O 	0.31750 0.59490 0.81460 -0.45900
O 	O 	0.19300 0.47040 0.70200 -0.51100
Co	Co	0.84440 0.34470 0.38210 1.19300
P 	P 	0.17320 0.63400 0.10210 0.67600
O 	O 	0.24350 0.72640 0.12070 -0.46600
O 	O 	0.95450 0.85090 0.16310 -0.47500
O 	O 	0.26970 0.56380 0.13530 -0.47600
O 	O 	0.14860 0.61520 0.00470 -0.42900
O 	O 	0.02330 0.63920 0.12880 -0.64000
O 	O 	0.68250 0.40510 0.31460 -0.45900
O 	O 	0.80700 0.52960 0.20200 -0.51100
Co	Co	0.66950 0.00670 0.25000 1.18500
Ga	Ga	0.07750 0.13020 0.25000 2.06000
P 	P 	0.31130 0.97590 0.25000 0.81500
P 	P 	0.13630 0.33060 0.25000 0.55400
O 	O 	0.18520 0.23260 0.25000 -0.61900
O 	O 	0.28510 0.37980 0.25000 -0.39200
O 	O 	0.45430 0.03000 0.25000 -0.43600
Co	Co	0.33050 0.99330 0.75000 1.18500
Ga	Ga	0.92250 0.86980 0.75000 2.06000
P 	P 	0.68870 0.02410 0.75000 0.81500
P 	P 	0.86370 0.66940 0.75000 0.55400
O 	O 	0.81480 0.76740 0.75000 -0.61900
O 	O 	0.71490 0.62020 0.75000 -0.39200
O 	O 	0.54570 0.97000 0.75000 -0.43600
Co	Co	0.33050 0.50670 0.25000 1.18500
Ga	Ga	0.92250 0.63020 0.25000 2.06000
P 	P 	0.68870 0.47590 0.25000 0.81800
P 	P 	0.86370 0.83060 0.25000 0.55400
O 	O 	0.81480 0.73260 0.25000 -0.61900
O 	O 	0.71490 0.87980 0.25000 -0.39200
O 	O 	0.54570 0.53000 0.25000 -0.43800
Co	Co	0.66950 0.49330 0.75000 1.18500
Ga	Ga	0.07750 0.36980 0.75000 2.06000
P 	P 	0.31130 0.52410 0.75000 0.81800
P 	P 	0.13630 0.16940 0.75000 0.55400
O 	O 	0.18520 0.26740 0.75000 -0.61900
O 	O 	0.28510 0.12020 0.75000 -0.39200
O 	O 	0.45430 0.47000 0.75000 -0.43800
