data_crystal

_cell_length_a 13.91100
_cell_length_b 12.77220
_cell_length_c 18.63400
_cell_angle_alpha 90.00000
_cell_angle_beta  90.35900
_cell_angle_gamma 90.00000

_symmetry_space_group_name_	'P 1'
_symmetry_space_group_name_H-M	'P 1'

loop_
_symmetry_equiv_pos_as_xyz
  x,y,z

loop_
_atom_site_label
_atom_site_type_symbol
_atom_site_fract_x
_atom_site_fract_y
_atom_site_fract_z
_atom_site_charge
Al	Al	0.10690 0.03880 0.16340 2.38500
Al	Al	0.76950 0.90670 0.04740 2.39100
Al	Al	0.88340 0.22250 0.06060 2.39300
Co	Co	0.11660 0.77750 0.93940 1.26200
P 	P 	0.23100 0.90040 0.05890 0.79000
P 	P 	0.10920 0.23360 0.06110 0.81100
P 	P 	0.88110 0.02990 0.16550 0.81900
O 	O 	0.81320 0.94980 0.13080 -0.77500
O 	O 	0.14290 0.17570 0.99520 -0.80700
O 	O 	0.00560 0.25970 0.05130 -0.80600
O 	O 	0.15720 0.83340 0.02170 -0.59500
O 	O 	0.19010 0.94410 0.12650 -0.76200
O 	O 	0.98160 0.99490 0.15520 -0.83100
O 	O 	0.86440 0.13680 0.13180 -0.86200
O 	O 	0.16450 0.33580 0.06910 -0.77200
O 	O 	0.85670 0.03700 0.24310 -0.76600
O 	O 	0.31770 0.83590 0.08020 -0.75800
O 	O 	0.12630 0.17060 0.12760 -0.82500
O 	O 	0.26530 0.98690 0.00990 -0.81400
Al	Al	0.60690 0.53880 0.16340 2.38500
Al	Al	0.26950 0.40670 0.04740 2.38900
Al	Al	0.38340 0.72250 0.06060 2.39200
Co	Co	0.61660 0.27750 0.93940 1.26600
P 	P 	0.73100 0.40040 0.05890 0.79100
P 	P 	0.60920 0.73360 0.06110 0.82000
P 	P 	0.38110 0.52990 0.16550 0.84300
O 	O 	0.31320 0.44980 0.13080 -0.78800
O 	O 	0.64290 0.67570 0.99520 -0.81400
O 	O 	0.50560 0.75970 0.05130 -0.80100
O 	O 	0.65720 0.33340 0.02170 -0.60500
O 	O 	0.69010 0.44410 0.12650 -0.76900
O 	O 	0.48160 0.49490 0.15520 -0.84700
O 	O 	0.36440 0.63680 0.13180 -0.85900
O 	O 	0.66450 0.83580 0.06910 -0.76800
O 	O 	0.35670 0.53700 0.24310 -0.76300
O 	O 	0.81770 0.33590 0.08020 -0.76400
O 	O 	0.62630 0.67060 0.12760 -0.82000
O 	O 	0.76530 0.48690 0.00990 -0.82400
Al	Al	0.89310 0.03880 0.33660 2.38500
Al	Al	0.23050 0.90670 0.45260 2.39100
Al	Al	0.11660 0.22250 0.43940 2.39300
Co	Co	0.88340 0.77750 0.56060 1.25500
P 	P 	0.76900 0.90040 0.44110 0.78900
P 	P 	0.89080 0.23360 0.43890 0.84400
P 	P 	0.11890 0.02990 0.33450 0.82800
O 	O 	0.18680 0.94980 0.36920 -0.77200
O 	O 	0.85710 0.17570 0.50480 -0.84700
O 	O 	0.99440 0.25970 0.44870 -0.79500
O 	O 	0.84280 0.83340 0.47830 -0.57700
O 	O 	0.80990 0.94410 0.37350 -0.76000
O 	O 	0.01840 0.99490 0.34480 -0.83100
O 	O 	0.13560 0.13680 0.36820 -0.85300
O 	O 	0.83550 0.33580 0.43090 -0.76300
O 	O 	0.14330 0.03700 0.25690 -0.76800
O 	O 	0.68230 0.83590 0.41980 -0.75100
O 	O 	0.87370 0.17060 0.37240 -0.82400
O 	O 	0.73470 0.98690 0.49010 -0.79800
Al	Al	0.39310 0.53880 0.33660 2.38600
Al	Al	0.73050 0.40670 0.45260 2.39100
Al	Al	0.61660 0.72250 0.43940 2.39300
Co	Co	0.38340 0.27750 0.56060 1.25400
P 	P 	0.26900 0.40040 0.44110 0.79000
P 	P 	0.39080 0.73360 0.43890 0.84400
P 	P 	0.61890 0.52990 0.33450 0.84400
O 	O 	0.68680 0.44980 0.36920 -0.78200
O 	O 	0.35710 0.67570 0.50480 -0.84500
O 	O 	0.49440 0.75970 0.44870 -0.79200
O 	O 	0.34280 0.33340 0.47830 -0.57800
O 	O 	0.30990 0.44410 0.37350 -0.76500
O 	O 	0.51840 0.49490 0.34480 -0.84300
O 	O 	0.63560 0.63680 0.36820 -0.85200
O 	O 	0.33550 0.83580 0.43090 -0.76100
O 	O 	0.64330 0.53700 0.25690 -0.76300
O 	O 	0.18230 0.33590 0.41980 -0.75300
O 	O 	0.37370 0.67060 0.37240 -0.82000
O 	O 	0.23470 0.48690 0.49010 -0.80200
Al	Al	0.89310 0.96120 0.83660 2.38600
Al	Al	0.23050 0.09330 0.95260 2.39200
P 	P 	0.76900 0.09960 0.94110 0.79000
P 	P 	0.89080 0.76640 0.93890 0.81000
P 	P 	0.11890 0.97010 0.83450 0.78600
O 	O 	0.18680 0.05020 0.86920 -0.75900
O 	O 	0.85710 0.82430 0.00480 -0.86100
O 	O 	0.99440 0.74030 0.94870 -0.51100
O 	O 	0.84280 0.16660 0.97830 -0.80100
O 	O 	0.80990 0.05590 0.87350 -0.75900
O 	O 	0.01840 0.00510 0.84480 -0.81600
O 	O 	0.13560 0.86320 0.86820 -0.56300
O 	O 	0.83550 0.66420 0.93090 -0.74600
O 	O 	0.14330 0.96300 0.75690 -0.75200
O 	O 	0.68230 0.16410 0.91980 -0.47900
O 	O 	0.87370 0.82940 0.87240 -0.79700
O 	O 	0.73470 0.01310 0.99010 -0.78700
Al	Al	0.39310 0.46120 0.83660 2.38600
Al	Al	0.73050 0.59330 0.95260 2.39300
P 	P 	0.26900 0.59960 0.94110 0.79000
P 	P 	0.39080 0.26640 0.93890 0.82000
P 	P 	0.61890 0.47010 0.83450 0.79000
O 	O 	0.68680 0.55020 0.86920 -0.75900
O 	O 	0.35710 0.32430 0.00480 -0.87300
O 	O 	0.49440 0.24030 0.94870 -0.50900
O 	O 	0.34280 0.66660 0.97830 -0.80700
O 	O 	0.30990 0.55590 0.87350 -0.75900
O 	O 	0.51840 0.50510 0.84480 -0.81700
O 	O 	0.63560 0.36320 0.86820 -0.56100
O 	O 	0.33550 0.16420 0.93090 -0.74700
O 	O 	0.64330 0.46300 0.75690 -0.75200
O 	O 	0.18230 0.66410 0.91980 -0.48100
O 	O 	0.37370 0.32940 0.87240 -0.79700
O 	O 	0.23470 0.51310 0.99010 -0.78800
Al	Al	0.10690 0.96120 0.66340 2.38600
Al	Al	0.76950 0.09330 0.54740 2.39100
P 	P 	0.23100 0.09960 0.55890 0.79100
P 	P 	0.10920 0.76640 0.56110 0.78900
P 	P 	0.88110 0.97010 0.66550 0.79400
O 	O 	0.81320 0.05020 0.63080 -0.76900
O 	O 	0.14290 0.82430 0.49520 -0.83100
O 	O 	0.00560 0.74030 0.55130 -0.51800
O 	O 	0.15720 0.16660 0.52170 -0.82600
O 	O 	0.19010 0.05590 0.62650 -0.76300
O 	O 	0.98160 0.00510 0.65520 -0.82400
O 	O 	0.86440 0.86320 0.63180 -0.56700
O 	O 	0.16450 0.66420 0.56910 -0.75400
O 	O 	0.85670 0.96300 0.74310 -0.75300
O 	O 	0.31770 0.16410 0.58020 -0.48700
O 	O 	0.12630 0.82940 0.62760 -0.79500
O 	O 	0.26530 0.01310 0.50990 -0.81400
Al	Al	0.60690 0.46120 0.66340 2.38600
Al	Al	0.26950 0.59330 0.54740 2.39100
P 	P 	0.73100 0.59960 0.55890 0.79000
P 	P 	0.60920 0.26640 0.56110 0.78900
P 	P 	0.38110 0.47010 0.66550 0.78900
O 	O 	0.31320 0.55020 0.63080 -0.76600
O 	O 	0.64290 0.32430 0.49520 -0.83300
O 	O 	0.50560 0.24030 0.55130 -0.51900
O 	O 	0.65720 0.66660 0.52170 -0.82400
O 	O 	0.69010 0.55590 0.62650 -0.76200
O 	O 	0.48160 0.50510 0.65520 -0.82100
O 	O 	0.36440 0.36320 0.63180 -0.56600
O 	O 	0.66450 0.16420 0.56910 -0.75600
O 	O 	0.35670 0.46300 0.74310 -0.75200
O 	O 	0.81770 0.66410 0.58020 -0.48600
O 	O 	0.62630 0.32940 0.62760 -0.79600
O 	O 	0.76530 0.51310 0.50990 -0.81000
