data_crystal

_cell_length_a 10.42000
_cell_length_b 10.45230
_cell_length_c 11.62210
_cell_angle_alpha 90.00000
_cell_angle_beta  90.00000
_cell_angle_gamma 90.00000

_symmetry_space_group_name_	'P 1'
_symmetry_space_group_name_H-M	'P 1'

loop_
_symmetry_equiv_pos_as_xyz
  x,y,z

loop_
_atom_site_label
_atom_site_type_symbol
_atom_site_fract_x
_atom_site_fract_y
_atom_site_fract_z
_atom_site_charge
Zn	Zn	0.55313 0.20064 0.11876 1.25100
P 	P 	0.31230 0.16010 0.95510 0.57900
P 	P 	0.48680 0.92760 0.19940 0.58500
O 	O 	0.56060 0.04890 0.20490 -0.43200
O 	O 	0.52140 0.83710 0.29440 -0.42600
O 	O 	0.24480 0.11460 0.06170 -0.37300
O 	O 	0.45470 0.18970 0.98010 -0.40500
O 	O 	0.23710 0.27340 0.91160 -0.40000
O 	O 	0.34550 0.95520 0.19920 -0.29600
O 	O 	0.51760 0.86530 0.08390 -0.34800
O 	O 	0.31200 0.05360 0.86490 -0.34200
H 	H 	0.26300 0.02400 0.08700 0.20800
H 	H 	0.23600 0.00500 0.84000 0.20500
H 	H 	0.44700 0.85100 0.02800 0.19000
Zn	Zn	0.94687 0.79936 0.61876 1.25100
P 	P 	0.18770 0.83990 0.45510 0.57900
P 	P 	0.01320 0.07240 0.69940 0.58000
O 	O 	0.93940 0.95110 0.70490 -0.43700
O 	O 	0.97860 0.16290 0.79440 -0.42000
O 	O 	0.25520 0.88540 0.56170 -0.37200
O 	O 	0.04530 0.81030 0.48010 -0.40200
O 	O 	0.26290 0.72660 0.41160 -0.39900
O 	O 	0.15450 0.04480 0.69920 -0.29800
O 	O 	0.98240 0.13470 0.58390 -0.33900
O 	O 	0.18800 0.94640 0.36490 -0.34000
H 	H 	0.23700 0.97600 0.58700 0.21100
H 	H 	0.26400 0.99500 0.34000 0.20600
H 	H 	0.05300 0.14900 0.52800 0.18500
Zn	Zn	0.44687 0.70064 0.38124 1.25200
P 	P 	0.68770 0.66010 0.54490 0.57900
P 	P 	0.51320 0.42760 0.30060 0.58700
O 	O 	0.43940 0.54890 0.29510 -0.43300
O 	O 	0.47860 0.33710 0.20560 -0.42600
O 	O 	0.75520 0.61460 0.43830 -0.37300
O 	O 	0.54530 0.68970 0.51990 -0.40600
O 	O 	0.76290 0.77340 0.58840 -0.40100
O 	O 	0.65450 0.45520 0.30080 -0.29800
O 	O 	0.48240 0.36530 0.41610 -0.34700
O 	O 	0.68800 0.55360 0.63510 -0.34200
H 	H 	0.73700 0.52400 0.41300 0.20900
H 	H 	0.76400 0.50500 0.66000 0.20500
H 	H 	0.55300 0.35100 0.47200 0.19000
Zn	Zn	0.05313 0.29936 0.88124 1.25200
P 	P 	0.81230 0.33990 0.04490 0.57800
P 	P 	0.98680 0.57240 0.80060 0.58100
O 	O 	0.06060 0.45110 0.79510 -0.43200
O 	O 	0.02140 0.66290 0.70560 -0.42100
O 	O 	0.74480 0.38540 0.93830 -0.37100
O 	O 	0.95470 0.31030 0.01990 -0.40500
O 	O 	0.73710 0.22660 0.08840 -0.39900
O 	O 	0.84550 0.54480 0.80080 -0.29700
O 	O 	0.01760 0.63470 0.91610 -0.34100
O 	O 	0.81200 0.44640 0.13510 -0.34200
H 	H 	0.76300 0.47600 0.91300 0.20900
H 	H 	0.73600 0.49500 0.16000 0.20500
H 	H 	0.94700 0.64900 0.97200 0.18600
