data_crystal

_cell_length_a 18.30200
_cell_length_b 14.67000
_cell_length_c 12.29800
_cell_angle_alpha 90.00000
_cell_angle_beta  113.62000
_cell_angle_gamma 90.00000

_symmetry_space_group_name_	'P 1'
_symmetry_space_group_name_H-M	'P 1'

loop_
_symmetry_equiv_pos_as_xyz
  x,y,z

loop_
_atom_site_label
_atom_site_type_symbol
_atom_site_fract_x
_atom_site_fract_y
_atom_site_fract_z
_atom_site_charge
Ag	Ag	0.24547 0.19795 0.74462 0.56200
Cr	Cr	0.28972 0.49510 0.47463 1.56300
O 	O 	0.35130 0.41990 0.61560 -0.51800
O 	O 	0.20570 0.40850 0.46020 -0.54100
O 	O 	0.33830 0.30070 0.71500 -0.43700
O 	O 	0.18130 0.28740 0.55240 -0.38100
C 	C 	0.31400 0.35530 0.63460 0.27500
C 	C 	0.22320 0.34780 0.53970 0.23300
Ag	Ag	0.92248 0.81031 0.12852 0.51500
O 	O 	0.78100 0.56940 0.16060 -0.45800
O 	O 	0.74310 0.58450 0.93430 -0.47300
O 	O 	0.85330 0.69600 0.19690 -0.35200
O 	O 	0.81460 0.71030 0.95780 -0.36500
C 	C 	0.81170 0.63790 0.13100 0.22100
C 	C 	0.79030 0.64700 0.99670 0.21100
O 	O 	0.88280 0.92860 0.99010 -0.50000
O 	O 	0.82660 0.07740 0.87130 -0.49700
O 	O 	0.97380 0.91240 0.91560 -0.37900
O 	O 	0.92160 0.08020 0.79960 -0.34600
C 	C 	0.91830 0.95350 0.92440 0.26500
C 	C 	0.88800 0.04420 0.85740 0.22300
K 	K 	0.00060 0.72960 0.86780 0.49300
Ag	Ag	0.07350 0.65480 0.79440 0.22600
Ag	Ag	0.04160 0.76060 0.93680 0.10800
Ag	Ag	0.94860 0.72440 0.88190 0.12500
Ag	Ag	0.75453 0.19795 0.75538 0.56400
Cr	Cr	0.71028 0.49510 0.02537 1.56400
O 	O 	0.64870 0.41990 0.88440 -0.51900
O 	O 	0.79430 0.40850 0.03980 -0.53300
O 	O 	0.66170 0.30070 0.78500 -0.43700
O 	O 	0.81870 0.28740 0.94760 -0.37600
C 	C 	0.68600 0.35530 0.86540 0.27700
C 	C 	0.77680 0.34780 0.96030 0.22900
Ag	Ag	0.07752 0.81031 0.37148 0.49800
O 	O 	0.21900 0.56940 0.33940 -0.46300
O 	O 	0.25690 0.58450 0.56570 -0.47400
O 	O 	0.14670 0.69600 0.30310 -0.36400
O 	O 	0.18540 0.71030 0.54220 -0.36900
C 	C 	0.18830 0.63790 0.36900 0.22100
C 	C 	0.20970 0.64700 0.50330 0.20700
O 	O 	0.11720 0.92860 0.50990 -0.51100
O 	O 	0.17340 0.07740 0.62870 -0.49800
O 	O 	0.02620 0.91240 0.58440 -0.41800
O 	O 	0.07840 0.08020 0.70040 -0.37000
C 	C 	0.08170 0.95350 0.57560 0.26200
C 	C 	0.11200 0.04420 0.64260 0.21900
K 	K 	0.99940 0.72960 0.63220 0.51400
Ag	Ag	0.92650 0.65480 0.70560 0.24900
Ag	Ag	0.95840 0.76060 0.56320 0.13900
Ag	Ag	0.05140 0.72440 0.61810 0.08500
Ag	Ag	0.57752 0.68969 0.87148 0.50700
O 	O 	0.71900 0.93060 0.83940 -0.45900
O 	O 	0.75690 0.91550 0.06570 -0.47400
O 	O 	0.64670 0.80400 0.80310 -0.35900
O 	O 	0.68540 0.78970 0.04220 -0.36700
C 	C 	0.68830 0.86210 0.86900 0.22500
C 	C 	0.70970 0.85300 0.00330 0.20400
O 	O 	0.61720 0.57140 0.00990 -0.50700
O 	O 	0.67340 0.42260 0.12870 -0.49600
O 	O 	0.52620 0.58760 0.08440 -0.40200
O 	O 	0.57840 0.41980 0.20040 -0.35900
C 	C 	0.58170 0.54650 0.07560 0.26000
C 	C 	0.61200 0.45580 0.14260 0.22500
K 	K 	0.49940 0.77040 0.13220 0.50300
Ag	Ag	0.42650 0.84520 0.20560 0.23600
Ag	Ag	0.45840 0.73940 0.06320 0.12200
Ag	Ag	0.55140 0.77560 0.11810 0.10400
Ag	Ag	0.25453 0.30205 0.25538 0.56400
Cr	Cr	0.21028 0.00490 0.52537 1.56300
O 	O 	0.14870 0.08010 0.38440 -0.52100
O 	O 	0.29430 0.09150 0.53980 -0.53900
O 	O 	0.16170 0.19930 0.28500 -0.43800
O 	O 	0.31870 0.21260 0.44760 -0.37700
C 	C 	0.18600 0.14470 0.36540 0.27600
C 	C 	0.27680 0.15220 0.46030 0.23300
Ag	Ag	0.42248 0.68969 0.62852 0.50700
O 	O 	0.28100 0.93060 0.66060 -0.45900
O 	O 	0.24310 0.91550 0.43430 -0.47300
O 	O 	0.35330 0.80400 0.69690 -0.35800
O 	O 	0.31460 0.78970 0.45780 -0.36700
C 	C 	0.31170 0.86210 0.63100 0.22100
C 	C 	0.29030 0.85300 0.49670 0.20900
O 	O 	0.38280 0.57140 0.49010 -0.50700
O 	O 	0.32660 0.42260 0.37130 -0.49700
O 	O 	0.47380 0.58760 0.41560 -0.40200
O 	O 	0.42160 0.41980 0.29960 -0.35900
C 	C 	0.41830 0.54650 0.42440 0.26000
C 	C 	0.38800 0.45580 0.35740 0.22400
K 	K 	0.50060 0.77040 0.36780 0.50300
Ag	Ag	0.57350 0.84520 0.29440 0.23700
Ag	Ag	0.54160 0.73940 0.43680 0.12300
Ag	Ag	0.44860 0.77560 0.38190 0.10500
Ag	Ag	0.74547 0.30205 0.24462 0.56500
Cr	Cr	0.78972 0.00490 0.97463 1.56100
O 	O 	0.85130 0.08010 0.11560 -0.50600
O 	O 	0.70570 0.09150 0.96020 -0.54700
O 	O 	0.83830 0.19930 0.21500 -0.43300
O 	O 	0.68130 0.21260 0.05240 -0.37800
C 	C 	0.81400 0.14470 0.13460 0.27200
C 	C 	0.72320 0.15220 0.03970 0.24400
Ag	Ag	0.00000 0.95800 0.75000 0.52000
Ag	Ag	0.50000 0.54200 0.25000 0.53800
Ag	Ag	0.42248 0.31031 0.12852 0.50900
O 	O 	0.28100 0.06940 0.16060 -0.45900
O 	O 	0.24310 0.08450 0.93430 -0.47500
O 	O 	0.35330 0.19600 0.19690 -0.35900
O 	O 	0.31460 0.21030 0.95780 -0.36800
C 	C 	0.31170 0.13790 0.13100 0.22900
C 	C 	0.29030 0.14700 0.99670 0.20000
O 	O 	0.38280 0.42860 0.99010 -0.50900
O 	O 	0.32660 0.57740 0.87130 -0.49700
O 	O 	0.47380 0.41240 0.91560 -0.40300
O 	O 	0.42160 0.58020 0.79960 -0.35900
C 	C 	0.41830 0.45350 0.92440 0.26000
C 	C 	0.38800 0.54420 0.85740 0.22400
K 	K 	0.50060 0.22960 0.86780 0.50300
Ag	Ag	0.57350 0.15480 0.79440 0.23600
Ag	Ag	0.54160 0.26060 0.93680 0.12100
Ag	Ag	0.44860 0.22440 0.88190 0.10300
Ag	Ag	0.74547 0.69795 0.74462 0.56400
Cr	Cr	0.78972 0.99510 0.47463 1.56300
O 	O 	0.85130 0.91990 0.61560 -0.51000
O 	O 	0.70570 0.90850 0.46020 -0.53900
O 	O 	0.83830 0.80070 0.71500 -0.43300
O 	O 	0.68130 0.78740 0.55240 -0.37800
C 	C 	0.81400 0.85530 0.63460 0.27400
C 	C 	0.72320 0.84780 0.53970 0.23400
Ag	Ag	0.57752 0.31031 0.37148 0.50700
O 	O 	0.71900 0.06940 0.33940 -0.45900
O 	O 	0.75690 0.08450 0.56570 -0.47300
O 	O 	0.64670 0.19600 0.30310 -0.35700
O 	O 	0.68540 0.21030 0.54220 -0.36800
C 	C 	0.68830 0.13790 0.36900 0.22100
C 	C 	0.70970 0.14700 0.50330 0.20900
O 	O 	0.61720 0.42860 0.50990 -0.50700
O 	O 	0.67340 0.57740 0.62870 -0.49700
O 	O 	0.52620 0.41240 0.58440 -0.40200
O 	O 	0.57840 0.58020 0.70040 -0.35900
C 	C 	0.58170 0.45350 0.57560 0.26000
C 	C 	0.61200 0.54420 0.64260 0.22400
K 	K 	0.49940 0.22960 0.63220 0.50300
Ag	Ag	0.42650 0.15480 0.70560 0.23600
Ag	Ag	0.45840 0.26060 0.56320 0.12300
Ag	Ag	0.55140 0.22440 0.61810 0.10500
Ag	Ag	0.25453 0.69795 0.75538 0.56400
Cr	Cr	0.21028 0.99510 0.02537 1.56200
O 	O 	0.14870 0.91990 0.88440 -0.51900
O 	O 	0.29430 0.90850 0.03980 -0.54100
O 	O 	0.16170 0.80070 0.78500 -0.43800
O 	O 	0.31870 0.78740 0.94760 -0.37800
C 	C 	0.18600 0.85530 0.86540 0.27600
C 	C 	0.27680 0.84780 0.96030 0.23700
Ag	Ag	0.75453 0.80205 0.25538 0.56400
Cr	Cr	0.71028 0.50490 0.52537 1.56400
O 	O 	0.64870 0.58010 0.38440 -0.51800
O 	O 	0.79430 0.59150 0.53980 -0.53500
O 	O 	0.66170 0.69930 0.28500 -0.43700
O 	O 	0.81870 0.71260 0.44760 -0.37400
C 	C 	0.68600 0.64470 0.36540 0.27600
C 	C 	0.77680 0.65220 0.46030 0.23300
Ag	Ag	0.07752 0.18969 0.87148 0.49300
O 	O 	0.21900 0.43060 0.83940 -0.46300
O 	O 	0.25690 0.41550 0.06570 -0.47400
O 	O 	0.14670 0.30400 0.80310 -0.36300
O 	O 	0.18540 0.28970 0.04220 -0.36800
C 	C 	0.18830 0.36210 0.86900 0.21500
C 	C 	0.20970 0.35300 0.00330 0.21300
O 	O 	0.11720 0.07140 0.00990 -0.50600
O 	O 	0.17340 0.92260 0.12870 -0.49800
O 	O 	0.02620 0.08760 0.08440 -0.41700
O 	O 	0.07840 0.91980 0.20040 -0.36800
C 	C 	0.08170 0.04650 0.07560 0.26300
C 	C 	0.11200 0.95580 0.14260 0.21700
K 	K 	0.99940 0.27040 0.13220 0.51300
Ag	Ag	0.92650 0.34520 0.20560 0.24900
Ag	Ag	0.95840 0.23940 0.06320 0.14000
Ag	Ag	0.05140 0.27560 0.11810 0.08700
Ag	Ag	0.24547 0.80205 0.24462 0.56300
Cr	Cr	0.28972 0.50490 0.97463 1.56200
O 	O 	0.35130 0.58010 0.11560 -0.51700
O 	O 	0.20570 0.59150 0.96020 -0.54300
O 	O 	0.33830 0.69930 0.21500 -0.43600
O 	O 	0.18130 0.71260 0.05240 -0.38100
C 	C 	0.31400 0.64470 0.13460 0.27400
C 	C 	0.22320 0.65220 0.03970 0.23600
Ag	Ag	0.92248 0.18969 0.62852 0.51800
O 	O 	0.78100 0.43060 0.66060 -0.45800
O 	O 	0.74310 0.41550 0.43430 -0.47300
O 	O 	0.85330 0.30400 0.69690 -0.35200
O 	O 	0.81460 0.28970 0.45780 -0.36600
C 	C 	0.81170 0.36210 0.63100 0.22200
C 	C 	0.79030 0.35300 0.49670 0.21100
O 	O 	0.88280 0.07140 0.49010 -0.50100
O 	O 	0.82660 0.92260 0.37130 -0.49600
O 	O 	0.97380 0.08760 0.41560 -0.37900
O 	O 	0.92160 0.91980 0.29960 -0.34700
C 	C 	0.91830 0.04650 0.42440 0.26400
C 	C 	0.88800 0.95580 0.35740 0.22600
K 	K 	0.00060 0.27040 0.36780 0.49300
Ag	Ag	0.07350 0.34520 0.29440 0.22700
Ag	Ag	0.04160 0.23940 0.43680 0.10800
Ag	Ag	0.94860 0.27560 0.38190 0.12500
Ag	Ag	0.50000 0.45800 0.75000 0.53800
Ag	Ag	0.00000 0.04200 0.25000 0.52000
