data_crystal

_cell_length_a 18.40000
_cell_length_b 14.56600
_cell_length_c 12.31300
_cell_angle_alpha 90.00000
_cell_angle_beta  113.19000
_cell_angle_gamma 90.00000

_symmetry_space_group_name_	'P 1'
_symmetry_space_group_name_H-M	'P 1'

loop_
_symmetry_equiv_pos_as_xyz
  x,y,z

loop_
_atom_site_label
_atom_site_type_symbol
_atom_site_fract_x
_atom_site_fract_y
_atom_site_fract_z
_atom_site_charge
O 	O 	0.14510 0.30390 0.79970 -0.11400
O 	O 	0.18540 0.28880 0.04230 -0.13800
O 	O 	0.32920 0.57800 0.87140 -0.35200
O 	O 	0.47570 0.41100 0.91870 -0.13100
O 	O 	0.42180 0.57930 0.79850 -0.13300
C 	C 	0.38910 0.54450 0.85620 0.24200
O 	O 	0.25750 0.41580 0.06550 -0.36800
C 	C 	0.21140 0.35340 0.00270 0.24000
O 	O 	0.38230 0.42890 0.98980 -0.35500
C 	C 	0.41880 0.45400 0.92450 0.22600
Cr	Cr	0.29082 0.50482 0.97464 1.57300
O 	O 	0.35240 0.57990 0.11380 -0.35600
O 	O 	0.20780 0.59320 0.96260 -0.38000
C 	C 	0.31190 0.64460 0.13260 0.21400
C 	C 	0.22550 0.65260 0.04280 0.25600
O 	O 	0.22190 0.43030 0.84020 -0.36600
C 	C 	0.19090 0.36130 0.87070 0.21600
O 	O 	0.33910 0.69870 0.21620 -0.12500
O 	O 	0.18200 0.71210 0.05240 -0.15000
O 	O 	0.67080 0.57800 0.62860 -0.35300
O 	O 	0.52430 0.41100 0.58130 -0.13100
O 	O 	0.57820 0.57930 0.70150 -0.13300
C 	C 	0.61090 0.54450 0.64380 0.24200
O 	O 	0.85490 0.30390 0.70030 -0.11500
O 	O 	0.81460 0.28880 0.45770 -0.14000
Cr	Cr	0.70918 0.50482 0.52536 1.57300
O 	O 	0.64760 0.57990 0.38620 -0.35600
O 	O 	0.79220 0.59320 0.53740 -0.38200
C 	C 	0.68810 0.64460 0.36740 0.21400
C 	C 	0.77450 0.65260 0.45720 0.25800
O 	O 	0.77810 0.43030 0.65980 -0.36600
C 	C 	0.80910 0.36130 0.62930 0.21800
O 	O 	0.66090 0.69870 0.28380 -0.12500
O 	O 	0.81800 0.71210 0.44760 -0.14900
O 	O 	0.74250 0.41580 0.43450 -0.36800
C 	C 	0.78860 0.35340 0.49730 0.23800
O 	O 	0.61770 0.42890 0.51020 -0.35400
C 	C 	0.58120 0.45400 0.57550 0.22600
O 	O 	0.74250 0.58420 0.93450 -0.36800
C 	C 	0.78860 0.64660 0.99730 0.24000
O 	O 	0.61770 0.57110 0.01020 -0.35500
C 	C 	0.58120 0.54600 0.07550 0.22600
Cr	Cr	0.70918 0.49518 0.02536 1.57300
O 	O 	0.64760 0.42010 0.88620 -0.35600
O 	O 	0.79220 0.40680 0.03740 -0.38000
C 	C 	0.68810 0.35540 0.86740 0.21400
C 	C 	0.77450 0.34740 0.95720 0.25600
O 	O 	0.77810 0.56970 0.15980 -0.36600
C 	C 	0.80910 0.63870 0.12930 0.21600
O 	O 	0.66090 0.30130 0.78380 -0.12500
O 	O 	0.81800 0.28790 0.94760 -0.15000
O 	O 	0.85490 0.69610 0.20030 -0.11500
O 	O 	0.81460 0.71120 0.95770 -0.13900
O 	O 	0.67080 0.42200 0.12860 -0.35300
O 	O 	0.52430 0.58900 0.08130 -0.13200
O 	O 	0.57820 0.42070 0.20150 -0.13300
C 	C 	0.61090 0.45550 0.14380 0.24200
Cr	Cr	0.29082 0.49518 0.47464 1.57300
O 	O 	0.35240 0.42010 0.61380 -0.35600
O 	O 	0.20780 0.40680 0.46260 -0.38200
C 	C 	0.31190 0.35540 0.63260 0.21400
C 	C 	0.22550 0.34740 0.54280 0.25800
O 	O 	0.22190 0.56970 0.34020 -0.36600
C 	C 	0.19090 0.63870 0.37070 0.21800
O 	O 	0.33910 0.30130 0.71620 -0.12500
O 	O 	0.18200 0.28790 0.55240 -0.14900
O 	O 	0.25750 0.58420 0.56550 -0.36800
C 	C 	0.21140 0.64660 0.50270 0.23800
O 	O 	0.38230 0.57110 0.48980 -0.35400
C 	C 	0.41880 0.54600 0.42450 0.22600
O 	O 	0.32920 0.42200 0.37140 -0.35300
O 	O 	0.47570 0.58900 0.41870 -0.13100
O 	O 	0.42180 0.42070 0.29850 -0.13300
C 	C 	0.38910 0.45550 0.35620 0.24200
O 	O 	0.14510 0.69610 0.29970 -0.11500
O 	O 	0.18540 0.71120 0.54230 -0.14000
O 	O 	0.24250 0.08420 0.93450 -0.36900
C 	C 	0.28860 0.14660 0.99730 0.23300
O 	O 	0.11770 0.07110 0.01020 -0.35200
C 	C 	0.08120 0.04600 0.07550 0.23000
O 	O 	0.16090 0.80130 0.78380 -0.12400
O 	O 	0.31800 0.78790 0.94760 -0.14900
Cr	Cr	0.20918 0.99518 0.02536 1.57100
O 	O 	0.14760 0.92010 0.88620 -0.35200
O 	O 	0.29220 0.90680 0.03740 -0.38600
C 	C 	0.18810 0.85540 0.86740 0.21300
C 	C 	0.27450 0.84740 0.95720 0.26500
O 	O 	0.27810 0.06970 0.15980 -0.36400
C 	C 	0.30910 0.13870 0.12930 0.22300
O 	O 	0.35490 0.19610 0.20030 -0.11400
O 	O 	0.31460 0.21120 0.95770 -0.14000
O 	O 	0.17080 0.92200 0.12860 -0.35300
O 	O 	0.02430 0.08900 0.08130 -0.13100
O 	O 	0.07820 0.92070 0.20150 -0.13400
C 	C 	0.11090 0.95550 0.14380 0.23800
O 	O 	0.83910 0.80130 0.71620 -0.12500
O 	O 	0.68200 0.78790 0.55240 -0.14900
Cr	Cr	0.79082 0.99518 0.47464 1.57300
O 	O 	0.85240 0.92010 0.61380 -0.35500
O 	O 	0.70780 0.90680 0.46260 -0.38100
C 	C 	0.81190 0.85540 0.63260 0.21500
C 	C 	0.72550 0.84740 0.54280 0.25800
O 	O 	0.72190 0.06970 0.34020 -0.36400
C 	C 	0.69090 0.13870 0.37070 0.21800
O 	O 	0.75750 0.08420 0.56550 -0.36800
C 	C 	0.71140 0.14660 0.50270 0.23800
O 	O 	0.88230 0.07110 0.48980 -0.35500
C 	C 	0.91880 0.04600 0.42450 0.22800
O 	O 	0.82920 0.92200 0.37140 -0.35300
O 	O 	0.97570 0.08900 0.41870 -0.13200
O 	O 	0.92180 0.92070 0.29850 -0.13500
C 	C 	0.88910 0.95550 0.35620 0.24100
O 	O 	0.64510 0.19610 0.29970 -0.11300
O 	O 	0.68540 0.21120 0.54230 -0.14000
O 	O 	0.17080 0.07800 0.62860 -0.35300
O 	O 	0.02430 0.91100 0.58130 -0.13200
O 	O 	0.07820 0.07930 0.70150 -0.13500
C 	C 	0.11090 0.04450 0.64380 0.24100
O 	O 	0.35490 0.80390 0.70030 -0.11300
O 	O 	0.31460 0.78880 0.45770 -0.14000
O 	O 	0.16090 0.19870 0.28380 -0.12500
O 	O 	0.31800 0.21210 0.44760 -0.14900
Cr	Cr	0.20918 0.00482 0.52536 1.57300
O 	O 	0.14760 0.07990 0.38620 -0.35500
O 	O 	0.29220 0.09320 0.53740 -0.38100
C 	C 	0.18810 0.14460 0.36740 0.21500
C 	C 	0.27450 0.15260 0.45720 0.25800
O 	O 	0.27810 0.93030 0.65980 -0.36400
C 	C 	0.30910 0.86130 0.62930 0.21800
O 	O 	0.24250 0.91580 0.43450 -0.36800
C 	C 	0.28860 0.85340 0.49730 0.23800
O 	O 	0.11770 0.92890 0.51020 -0.35500
C 	C 	0.08120 0.95400 0.57550 0.22800
O 	O 	0.64510 0.80390 0.79970 -0.11400
O 	O 	0.68540 0.78880 0.04230 -0.14000
O 	O 	0.82920 0.07800 0.87140 -0.35300
O 	O 	0.97570 0.91100 0.91870 -0.13100
O 	O 	0.92180 0.07930 0.79850 -0.13400
C 	C 	0.88910 0.04450 0.85620 0.23800
O 	O 	0.75750 0.91580 0.06550 -0.36900
C 	C 	0.71140 0.85340 0.00270 0.23300
O 	O 	0.88230 0.92890 0.98980 -0.35200
C 	C 	0.91880 0.95400 0.92450 0.23000
O 	O 	0.83910 0.19870 0.21620 -0.12400
O 	O 	0.68200 0.21210 0.05240 -0.14900
Cr	Cr	0.79082 0.00482 0.97464 1.57100
O 	O 	0.85240 0.07990 0.11380 -0.35200
O 	O 	0.70780 0.09320 0.96260 -0.38600
C 	C 	0.81190 0.14460 0.13260 0.21300
C 	C 	0.72550 0.15260 0.04280 0.26500
O 	O 	0.72190 0.93030 0.84020 -0.36400
C 	C 	0.69090 0.86130 0.87070 0.22300
