data_crystal

_cell_length_a 18.33800
_cell_length_b 14.61900
_cell_length_c 12.37900
_cell_angle_alpha 90.00000
_cell_angle_beta  113.00000
_cell_angle_gamma 90.00000

_symmetry_space_group_name_	'P 1'
_symmetry_space_group_name_H-M	'P 1'

loop_
_symmetry_equiv_pos_as_xyz
  x,y,z

loop_
_atom_site_label
_atom_site_type_symbol
_atom_site_fract_x
_atom_site_fract_y
_atom_site_fract_z
_atom_site_charge
Ag	Ag	0.24828 0.19738 0.74462 0.57400
Ag	Ag	0.07769 0.19023 0.87525 0.54900
Cr	Cr	0.29050 0.49563 0.47614 1.56600
O 	O 	0.35220 0.42180 0.61300 -0.49600
O 	O 	0.20680 0.40870 0.46480 -0.51600
O 	O 	0.34200 0.29970 0.71660 -0.40200
O 	O 	0.18380 0.28750 0.55790 -0.35300
C 	C 	0.31410 0.35530 0.63550 0.23000
C 	C 	0.22680 0.34770 0.54550 0.22400
O 	O 	0.21990 0.56910 0.34300 -0.44600
O 	O 	0.25800 0.58450 0.56800 -0.46000
O 	O 	0.14770 0.30390 0.80620 -0.30300
O 	O 	0.31590 0.21030 0.95590 -0.33000
C 	C 	0.18950 0.63910 0.37270 0.22100
C 	C 	0.21010 0.64680 0.50470 0.19800
O 	O 	0.38340 0.57040 0.48890 -0.50200
O 	O 	0.32710 0.42240 0.37230 -0.49300
O 	O 	0.52550 0.41370 0.58620 -0.37100
O 	O 	0.57930 0.58290 0.69940 -0.34500
C 	C 	0.41890 0.54560 0.42490 0.26000
C 	C 	0.38770 0.45350 0.35930 0.24100
Cs	Cs	0.50880 0.21450 0.86020 0.54800
Ag	Ag	0.57490 0.15890 0.80220 0.22800
Ag	Ag	0.54690 0.24300 0.94130 0.18100
O 	O 	0.99490 0.30110 0.89820 -0.28000
Ag	Ag	0.74828 0.69738 0.74462 0.57400
Ag	Ag	0.57769 0.69023 0.87525 0.56500
Cr	Cr	0.79050 0.99563 0.47614 1.56500
O 	O 	0.85220 0.92180 0.61300 -0.48800
O 	O 	0.70680 0.90870 0.46480 -0.51500
O 	O 	0.84200 0.79970 0.71660 -0.39700
O 	O 	0.68380 0.78750 0.55790 -0.35300
C 	C 	0.81410 0.85530 0.63550 0.22700
C 	C 	0.72680 0.84770 0.54550 0.22400
O 	O 	0.71990 0.06910 0.34300 -0.44300
O 	O 	0.75800 0.08450 0.56800 -0.46000
O 	O 	0.64770 0.80390 0.80620 -0.30100
O 	O 	0.81590 0.71030 0.95590 -0.32500
C 	C 	0.68950 0.13910 0.37270 0.22200
C 	C 	0.71010 0.14680 0.50470 0.20000
O 	O 	0.88340 0.07040 0.48890 -0.49600
O 	O 	0.82710 0.92240 0.37230 -0.49200
O 	O 	0.02550 0.91370 0.58620 -0.38900
O 	O 	0.07930 0.08290 0.69940 -0.35500
C 	C 	0.91890 0.04560 0.42490 0.26500
C 	C 	0.88770 0.95350 0.35930 0.24200
Cs	Cs	0.00880 0.71450 0.86020 0.54000
Ag	Ag	0.07490 0.65890 0.80220 0.21600
Ag	Ag	0.04690 0.74300 0.94130 0.17500
O 	O 	0.49490 0.80110 0.89820 -0.30100
Ag	Ag	0.75172 0.19738 0.75538 0.57300
Ag	Ag	0.92231 0.19023 0.62475 0.57900
Cr	Cr	0.70950 0.49563 0.02386 1.56500
O 	O 	0.64780 0.42180 0.88700 -0.49800
O 	O 	0.79320 0.40870 0.03520 -0.50900
O 	O 	0.65800 0.29970 0.78340 -0.40300
O 	O 	0.81620 0.28750 0.94210 -0.35200
C 	C 	0.68590 0.35530 0.86450 0.23000
C 	C 	0.77320 0.34770 0.95450 0.21900
O 	O 	0.78010 0.56910 0.15700 -0.44300
O 	O 	0.74200 0.58450 0.93200 -0.46000
O 	O 	0.85230 0.30390 0.69380 -0.29600
O 	O 	0.68410 0.21030 0.54410 -0.33000
C 	C 	0.81050 0.63910 0.12730 0.22200
C 	C 	0.78990 0.64680 0.99530 0.20200
O 	O 	0.61660 0.57040 0.01110 -0.50300
O 	O 	0.67290 0.42240 0.12770 -0.49100
O 	O 	0.47450 0.41370 0.91380 -0.37300
O 	O 	0.42070 0.58290 0.80060 -0.34500
C 	C 	0.58110 0.54560 0.07510 0.26100
C 	C 	0.61230 0.45350 0.14070 0.24100
Cs	Cs	0.49120 0.21450 0.63980 0.54800
Ag	Ag	0.42510 0.15890 0.69780 0.22800
Ag	Ag	0.45310 0.24300 0.55870 0.18400
O 	O 	0.00510 0.30110 0.60180 -0.32500
Ag	Ag	0.25172 0.69738 0.75538 0.57200
Ag	Ag	0.42231 0.69023 0.62475 0.56500
Cr	Cr	0.20950 0.99563 0.02386 1.56300
O 	O 	0.14780 0.92180 0.88700 -0.49900
O 	O 	0.29320 0.90870 0.03520 -0.51600
O 	O 	0.15800 0.79970 0.78340 -0.40700
O 	O 	0.31620 0.78750 0.94210 -0.35300
C 	C 	0.18590 0.85530 0.86450 0.23000
C 	C 	0.27320 0.84770 0.95450 0.22500
O 	O 	0.28010 0.06910 0.15700 -0.44300
O 	O 	0.24200 0.08450 0.93200 -0.46300
O 	O 	0.35230 0.80390 0.69380 -0.30000
O 	O 	0.18410 0.71030 0.54410 -0.33400
C 	C 	0.31050 0.13910 0.12730 0.23100
C 	C 	0.28990 0.14680 0.99530 0.18900
O 	O 	0.11660 0.07040 0.01110 -0.50200
O 	O 	0.17290 0.92240 0.12770 -0.49300
O 	O 	0.97450 0.91370 0.91380 -0.34700
O 	O 	0.92070 0.08290 0.80060 -0.33300
C 	C 	0.08110 0.04560 0.07510 0.26300
C 	C 	0.11230 0.95350 0.14070 0.23300
Cs	Cs	0.99120 0.71450 0.63980 0.55800
Ag	Ag	0.92510 0.65890 0.69780 0.24200
Ag	Ag	0.95310 0.74300 0.55870 0.19400
O 	O 	0.50510 0.80110 0.60180 -0.30200
Ag	Ag	0.75172 0.80262 0.25538 0.57300
Ag	Ag	0.92231 0.80977 0.12475 0.57500
Cr	Cr	0.70950 0.50437 0.52386 1.56500
O 	O 	0.64780 0.57820 0.38700 -0.49700
O 	O 	0.79320 0.59130 0.53520 -0.51100
O 	O 	0.65800 0.70030 0.28340 -0.40300
O 	O 	0.81620 0.71250 0.44210 -0.35000
C 	C 	0.68590 0.64470 0.36450 0.23000
C 	C 	0.77320 0.65230 0.45450 0.22300
O 	O 	0.78010 0.43090 0.65700 -0.44300
O 	O 	0.74200 0.41550 0.43200 -0.45900
O 	O 	0.85230 0.69610 0.19380 -0.29600
O 	O 	0.68410 0.78970 0.04410 -0.33000
C 	C 	0.81050 0.36090 0.62730 0.22400
C 	C 	0.78990 0.35320 0.49530 0.20100
O 	O 	0.61660 0.42960 0.51110 -0.50300
O 	O 	0.67290 0.57760 0.62770 -0.49200
O 	O 	0.47450 0.58630 0.41380 -0.37100
O 	O 	0.42070 0.41710 0.30060 -0.34500
C 	C 	0.58110 0.45440 0.57510 0.26000
C 	C 	0.61230 0.54650 0.64070 0.24100
Cs	Cs	0.49120 0.78550 0.13980 0.54800
Ag	Ag	0.42510 0.84110 0.19780 0.22800
Ag	Ag	0.45310 0.75700 0.05870 0.18400
O 	O 	0.00510 0.69890 0.10180 -0.32200
Ag	Ag	0.25172 0.30262 0.25538 0.57200
Ag	Ag	0.42231 0.30977 0.12475 0.56700
Cr	Cr	0.20950 0.00437 0.52386 1.56400
O 	O 	0.14780 0.07820 0.38700 -0.50000
O 	O 	0.29320 0.09130 0.53520 -0.51400
O 	O 	0.15800 0.20030 0.28340 -0.40600
O 	O 	0.31620 0.21250 0.44210 -0.35200
C 	C 	0.18590 0.14470 0.36450 0.23100
C 	C 	0.27320 0.15230 0.45450 0.22300
O 	O 	0.28010 0.93090 0.65700 -0.44300
O 	O 	0.24200 0.91550 0.43200 -0.46000
O 	O 	0.35230 0.19610 0.19380 -0.30200
O 	O 	0.18410 0.28970 0.04410 -0.33300
C 	C 	0.31050 0.86090 0.62730 0.22200
C 	C 	0.28990 0.85320 0.49530 0.20000
O 	O 	0.11660 0.92960 0.51110 -0.50800
O 	O 	0.17290 0.07760 0.62770 -0.49300
O 	O 	0.97450 0.08630 0.41380 -0.34700
O 	O 	0.92070 0.91710 0.30060 -0.33400
C 	C 	0.08110 0.95440 0.57510 0.26200
C 	C 	0.11230 0.04650 0.64070 0.23500
Cs	Cs	0.99120 0.28550 0.13980 0.55700
Ag	Ag	0.92510 0.34110 0.19780 0.24100
Ag	Ag	0.95310 0.25700 0.05870 0.19400
O 	O 	0.50510 0.19890 0.10180 -0.29900
Ag	Ag	0.24828 0.80262 0.24462 0.57300
Ag	Ag	0.07769 0.80977 0.37525 0.55400
Cr	Cr	0.29050 0.50437 0.97614 1.56300
O 	O 	0.35220 0.57820 0.11300 -0.49500
O 	O 	0.20680 0.59130 0.96480 -0.52000
O 	O 	0.34200 0.70030 0.21660 -0.40200
O 	O 	0.18380 0.71250 0.05790 -0.35500
C 	C 	0.31410 0.64470 0.13550 0.22800
C 	C 	0.22680 0.65230 0.04550 0.22700
O 	O 	0.21990 0.43090 0.84300 -0.44600
O 	O 	0.25800 0.41550 0.06800 -0.46100
O 	O 	0.14770 0.69610 0.30620 -0.30400
O 	O 	0.31590 0.78970 0.45590 -0.33000
C 	C 	0.18950 0.36090 0.87270 0.21400
C 	C 	0.21010 0.35320 0.00470 0.20500
O 	O 	0.38340 0.42960 0.98890 -0.50500
O 	O 	0.32710 0.57760 0.87230 -0.49300
O 	O 	0.52550 0.58630 0.08620 -0.37100
O 	O 	0.57930 0.41710 0.19940 -0.34500
C 	C 	0.41890 0.45440 0.92490 0.26000
C 	C 	0.38770 0.54650 0.85930 0.24000
Cs	Cs	0.50880 0.78550 0.36020 0.54800
Ag	Ag	0.57490 0.84110 0.30220 0.22800
Ag	Ag	0.54690 0.75700 0.44130 0.18400
O 	O 	0.99490 0.69890 0.39820 -0.28000
Ag	Ag	0.74828 0.30262 0.24462 0.57500
Ag	Ag	0.57769 0.30977 0.37525 0.56500
Cr	Cr	0.79050 0.00437 0.97614 1.56200
O 	O 	0.85220 0.07820 0.11300 -0.48500
O 	O 	0.70680 0.09130 0.96480 -0.52300
O 	O 	0.84200 0.20030 0.21660 -0.39600
O 	O 	0.68380 0.21250 0.05790 -0.35300
C 	C 	0.81410 0.14470 0.13550 0.22500
C 	C 	0.72680 0.15230 0.04550 0.23400
O 	O 	0.71990 0.93090 0.84300 -0.44300
O 	O 	0.75800 0.91550 0.06800 -0.46100
O 	O 	0.64770 0.19610 0.30620 -0.30000
O 	O 	0.81590 0.28970 0.45590 -0.32500
C 	C 	0.68950 0.86090 0.87270 0.22600
C 	C 	0.71010 0.85320 0.00470 0.19500
O 	O 	0.88340 0.92960 0.98890 -0.49400
O 	O 	0.82710 0.07760 0.87230 -0.49200
O 	O 	0.02550 0.08630 0.08620 -0.38700
O 	O 	0.07930 0.91710 0.19940 -0.35200
C 	C 	0.91890 0.95440 0.92490 0.26600
C 	C 	0.88770 0.04650 0.85930 0.23900
Cs	Cs	0.00880 0.28550 0.36020 0.54100
Ag	Ag	0.07490 0.34110 0.30220 0.21800
Ag	Ag	0.04690 0.25700 0.44130 0.17600
O 	O 	0.49490 0.19890 0.39820 -0.30200
Ag	Ag	0.50000 0.46263 0.75000 0.54600
Ag	Ag	0.00000 0.96263 0.75000 0.52700
Ag	Ag	0.50000 0.53737 0.25000 0.54600
Ag	Ag	0.00000 0.03737 0.25000 0.52800
