data_crystal

_cell_length_a 18.33500
_cell_length_b 14.62800
_cell_length_c 12.38300
_cell_angle_alpha 90.00000
_cell_angle_beta  113.00000
_cell_angle_gamma 90.00000

_symmetry_space_group_name_	'P 1'
_symmetry_space_group_name_H-M	'P 1'

loop_
_symmetry_equiv_pos_as_xyz
  x,y,z

loop_
_atom_site_label
_atom_site_type_symbol
_atom_site_fract_x
_atom_site_fract_y
_atom_site_fract_z
_atom_site_charge
Ag	Ag	0.24823 0.19769 0.74440 0.57500
Ag	Ag	0.57796 0.69009 0.87602 0.57000
Cr	Cr	0.29060 0.49561 0.47630 1.56600
O 	O 	0.35190 0.42120 0.61350 -0.49900
O 	O 	0.20720 0.40910 0.46550 -0.51500
O 	O 	0.34160 0.30020 0.71690 -0.40000
O 	O 	0.18360 0.28760 0.55930 -0.33900
C 	C 	0.31490 0.35540 0.63320 0.24100
C 	C 	0.22740 0.34800 0.54570 0.21000
O 	O 	0.21930 0.56970 0.34360 -0.45100
O 	O 	0.25810 0.58550 0.56720 -0.46600
O 	O 	0.64810 0.80400 0.80550 -0.31000
O 	O 	0.68440 0.78980 0.04520 -0.33500
C 	C 	0.18890 0.64010 0.37130 0.23600
C 	C 	0.21050 0.64740 0.50600 0.20900
O 	O 	0.61680 0.57080 0.01050 -0.49700
O 	O 	0.32640 0.42190 0.37200 -0.49200
O 	O 	0.52570 0.41360 0.58630 -0.35900
O 	O 	0.57900 0.58140 0.69890 -0.34900
C 	C 	0.58140 0.54550 0.07560 0.24900
C 	C 	0.38770 0.45300 0.35870 0.24900
Cs	Cs	0.50880 0.21540 0.86080 0.56100
Ag	Ag	0.57710 0.15710 0.80340 0.24200
Ag	Ag	0.54100 0.23430 0.93830 0.12000
O 	O 	0.49650 0.79420 0.90490 -0.30300
Ag	Ag	0.74823 0.69769 0.74440 0.57600
Ag	Ag	0.07796 0.19009 0.87602 0.55200
Cr	Cr	0.79060 0.99561 0.47630 1.56500
O 	O 	0.85190 0.92120 0.61350 -0.49200
O 	O 	0.70720 0.90910 0.46550 -0.51300
O 	O 	0.84160 0.80020 0.71690 -0.39300
O 	O 	0.68360 0.78760 0.55930 -0.33800
C 	C 	0.81490 0.85540 0.63320 0.23900
C 	C 	0.72740 0.84800 0.54570 0.21100
O 	O 	0.71930 0.06970 0.34360 -0.44700
O 	O 	0.75810 0.08550 0.56720 -0.46500
O 	O 	0.14810 0.30400 0.80550 -0.31300
O 	O 	0.18440 0.28980 0.04520 -0.33800
C 	C 	0.68890 0.14010 0.37130 0.23700
C 	C 	0.71050 0.14740 0.50600 0.21100
O 	O 	0.11680 0.07080 0.01050 -0.49700
O 	O 	0.82640 0.92190 0.37200 -0.49100
O 	O 	0.02570 0.91360 0.58630 -0.37700
O 	O 	0.07900 0.08140 0.69890 -0.35800
C 	C 	0.08140 0.04550 0.07560 0.25100
C 	C 	0.88770 0.95300 0.35870 0.25000
Cs	Cs	0.00880 0.71540 0.86080 0.55300
Ag	Ag	0.07710 0.65710 0.80340 0.23100
Ag	Ag	0.04100 0.73430 0.93830 0.11400
O 	O 	0.99650 0.29420 0.90490 -0.28200
Ag	Ag	0.75177 0.19769 0.75560 0.57500
Ag	Ag	0.42204 0.69009 0.62398 0.56900
Cr	Cr	0.70940 0.49561 0.02370 1.56500
O 	O 	0.64810 0.42120 0.88650 -0.50100
O 	O 	0.79280 0.40910 0.03450 -0.50800
O 	O 	0.65840 0.30020 0.78310 -0.40000
O 	O 	0.81640 0.28760 0.94070 -0.33700
C 	C 	0.68510 0.35540 0.86680 0.24200
C 	C 	0.77260 0.34800 0.95430 0.20500
O 	O 	0.78070 0.56970 0.15640 -0.44700
O 	O 	0.74190 0.58550 0.93280 -0.46500
O 	O 	0.35190 0.80400 0.69450 -0.30900
O 	O 	0.31560 0.78980 0.45480 -0.33500
C 	C 	0.81110 0.64010 0.12870 0.23700
C 	C 	0.78950 0.64740 0.99400 0.21300
O 	O 	0.38320 0.57080 0.48950 -0.49700
O 	O 	0.67360 0.42190 0.12800 -0.49100
O 	O 	0.47430 0.41360 0.91370 -0.36100
O 	O 	0.42100 0.58140 0.80110 -0.34900
C 	C 	0.41860 0.54550 0.42440 0.24900
C 	C 	0.61230 0.45300 0.14130 0.24900
Cs	Cs	0.49120 0.21540 0.63920 0.56100
Ag	Ag	0.42290 0.15710 0.69660 0.24200
Ag	Ag	0.45900 0.23430 0.56170 0.12400
O 	O 	0.50350 0.79420 0.59510 -0.30400
Ag	Ag	0.25177 0.69769 0.75560 0.57400
Ag	Ag	0.92204 0.19009 0.62398 0.58300
Cr	Cr	0.20940 0.99561 0.02370 1.56300
O 	O 	0.14810 0.92120 0.88650 -0.50200
O 	O 	0.29280 0.90910 0.03450 -0.51500
O 	O 	0.15840 0.80020 0.78310 -0.40400
O 	O 	0.31640 0.78760 0.94070 -0.33800
C 	C 	0.18510 0.85540 0.86680 0.24200
C 	C 	0.27260 0.84800 0.95430 0.21200
O 	O 	0.28070 0.06970 0.15640 -0.44700
O 	O 	0.24190 0.08550 0.93280 -0.46800
O 	O 	0.85190 0.30400 0.69450 -0.30500
O 	O 	0.81560 0.28980 0.45480 -0.33000
C 	C 	0.31110 0.14010 0.12870 0.24600
C 	C 	0.28950 0.14740 0.99400 0.20100
O 	O 	0.88320 0.07080 0.48950 -0.49100
O 	O 	0.17360 0.92190 0.12800 -0.49300
O 	O 	0.97430 0.91360 0.91370 -0.33400
O 	O 	0.92100 0.08140 0.80110 -0.33600
C 	C 	0.91860 0.04550 0.42440 0.25300
C 	C 	0.11230 0.95300 0.14130 0.24200
Cs	Cs	0.99120 0.71540 0.63920 0.57000
Ag	Ag	0.92290 0.65710 0.69660 0.25500
Ag	Ag	0.95900 0.73430 0.56170 0.13300
O 	O 	0.00350 0.29420 0.59510 -0.32700
Ag	Ag	0.75177 0.80231 0.25560 0.57500
Ag	Ag	0.42204 0.30991 0.12398 0.57100
Cr	Cr	0.70940 0.50439 0.52370 1.56500
O 	O 	0.64810 0.57880 0.38650 -0.50000
O 	O 	0.79280 0.59090 0.53450 -0.51000
O 	O 	0.65840 0.69980 0.28310 -0.40000
O 	O 	0.81640 0.71240 0.44070 -0.33500
C 	C 	0.68510 0.64460 0.36680 0.24200
C 	C 	0.77260 0.65200 0.45430 0.20900
O 	O 	0.78070 0.43030 0.65640 -0.44700
O 	O 	0.74190 0.41450 0.43280 -0.46400
O 	O 	0.35190 0.19600 0.19450 -0.31000
O 	O 	0.31560 0.21020 0.95480 -0.33500
C 	C 	0.81110 0.35990 0.62870 0.23900
C 	C 	0.78950 0.35260 0.49400 0.21300
O 	O 	0.38320 0.42920 0.98950 -0.50000
O 	O 	0.67360 0.57810 0.62800 -0.49100
O 	O 	0.47430 0.58640 0.41370 -0.35900
O 	O 	0.42100 0.41860 0.30110 -0.34900
C 	C 	0.41860 0.45450 0.92440 0.24900
C 	C 	0.61230 0.54700 0.64130 0.24900
Cs	Cs	0.49120 0.78460 0.13920 0.56100
Ag	Ag	0.42290 0.84290 0.19660 0.24200
Ag	Ag	0.45900 0.76570 0.06170 0.12300
O 	O 	0.50350 0.20580 0.09510 -0.30100
Ag	Ag	0.25177 0.30231 0.25560 0.57400
Ag	Ag	0.92204 0.80991 0.12398 0.57900
Cr	Cr	0.20940 0.00439 0.52370 1.56400
O 	O 	0.14810 0.07880 0.38650 -0.50300
O 	O 	0.29280 0.09090 0.53450 -0.51300
O 	O 	0.15840 0.19980 0.28310 -0.40300
O 	O 	0.31640 0.21240 0.44070 -0.33700
C 	C 	0.18510 0.14460 0.36680 0.24300
C 	C 	0.27260 0.15200 0.45430 0.20900
O 	O 	0.28070 0.93030 0.65640 -0.44700
O 	O 	0.24190 0.91450 0.43280 -0.46500
O 	O 	0.85190 0.69600 0.19450 -0.30500
O 	O 	0.81560 0.71020 0.95480 -0.32900
C 	C 	0.31110 0.85990 0.62870 0.23700
C 	C 	0.28950 0.85260 0.49400 0.21100
O 	O 	0.88320 0.92920 0.98950 -0.48900
O 	O 	0.17360 0.07810 0.62800 -0.49300
O 	O 	0.97430 0.08640 0.41370 -0.33500
O 	O 	0.92100 0.91860 0.30110 -0.33800
C 	C 	0.91860 0.95450 0.92440 0.25500
C 	C 	0.11230 0.04700 0.64130 0.24400
Cs	Cs	0.99120 0.28460 0.13920 0.57000
Ag	Ag	0.92290 0.34290 0.19660 0.25500
Ag	Ag	0.95900 0.26570 0.06170 0.13400
O 	O 	0.00350 0.70580 0.09510 -0.32500
Ag	Ag	0.24823 0.80231 0.24440 0.57400
Ag	Ag	0.57796 0.30991 0.37602 0.56900
Cr	Cr	0.29060 0.50439 0.97630 1.56300
O 	O 	0.35190 0.57880 0.11350 -0.49900
O 	O 	0.20720 0.59090 0.96550 -0.51900
O 	O 	0.34160 0.69980 0.21690 -0.39900
O 	O 	0.18360 0.71240 0.05930 -0.34000
C 	C 	0.31490 0.64460 0.13320 0.24000
C 	C 	0.22740 0.65200 0.04570 0.21400
O 	O 	0.21930 0.43030 0.84360 -0.45000
O 	O 	0.25810 0.41450 0.06720 -0.46600
O 	O 	0.64810 0.19600 0.30550 -0.30800
O 	O 	0.68440 0.21020 0.54520 -0.33500
C 	C 	0.18890 0.35990 0.87130 0.22900
C 	C 	0.21050 0.35260 0.00600 0.21600
O 	O 	0.61680 0.42920 0.51050 -0.49700
O 	O 	0.32640 0.57810 0.87200 -0.49300
O 	O 	0.52570 0.58640 0.08630 -0.35900
O 	O 	0.57900 0.41860 0.19890 -0.34800
C 	C 	0.58140 0.45450 0.57560 0.24900
C 	C 	0.38770 0.54700 0.85870 0.24900
Cs	Cs	0.50880 0.78460 0.36080 0.56100
Ag	Ag	0.57710 0.84290 0.30340 0.24200
Ag	Ag	0.54100 0.76570 0.43830 0.12400
O 	O 	0.49650 0.20580 0.40490 -0.30400
Ag	Ag	0.74823 0.30231 0.24440 0.57600
Ag	Ag	0.07796 0.80991 0.37602 0.55700
Cr	Cr	0.79060 0.00439 0.97630 1.56200
O 	O 	0.85190 0.07880 0.11350 -0.48800
O 	O 	0.70720 0.09090 0.96550 -0.52100
O 	O 	0.84160 0.19980 0.21690 -0.39300
O 	O 	0.68360 0.21240 0.05930 -0.33800
C 	C 	0.81490 0.14460 0.13320 0.23700
C 	C 	0.72740 0.15200 0.04570 0.22100
O 	O 	0.71930 0.93030 0.84360 -0.44700
O 	O 	0.75810 0.91450 0.06720 -0.46600
O 	O 	0.14810 0.69600 0.30550 -0.31300
O 	O 	0.18440 0.71020 0.54520 -0.33900
C 	C 	0.68890 0.85990 0.87130 0.24100
C 	C 	0.71050 0.85260 0.00600 0.20600
O 	O 	0.11680 0.92920 0.51050 -0.50200
O 	O 	0.82640 0.07810 0.87200 -0.49200
O 	O 	0.02570 0.08640 0.08630 -0.37500
O 	O 	0.07900 0.91860 0.19890 -0.35600
C 	C 	0.08140 0.95450 0.57560 0.25000
C 	C 	0.88770 0.04700 0.85870 0.24700
Cs	Cs	0.00880 0.28460 0.36080 0.55400
Ag	Ag	0.07710 0.34290 0.30340 0.23200
Ag	Ag	0.04100 0.26570 0.43830 0.11500
O 	O 	0.99650 0.70580 0.40490 -0.28200
Ag	Ag	0.50000 0.46413 0.75000 0.54900
Ag	Ag	0.00000 0.96413 0.75000 0.53100
Ag	Ag	0.50000 0.53587 0.25000 0.54900
Ag	Ag	-0.00000 0.03587 0.25000 0.53200
