data_crystal

_cell_length_a 13.32600
_cell_length_b 15.45540
_cell_length_c 15.45540
_cell_angle_alpha 67.90800
_cell_angle_beta  73.29720
_cell_angle_gamma 106.70300

_symmetry_space_group_name_	'P 1'
_symmetry_space_group_name_H-M	'P 1'

loop_
_symmetry_equiv_pos_as_xyz
  x,y,z

loop_
_atom_site_label
_atom_site_type_symbol
_atom_site_fract_x
_atom_site_fract_y
_atom_site_fract_z
_atom_site_charge
Cu	Cu	0.26050 0.49050 0.90320 0.91300
Cu	Cu	0.16370 0.90320 0.60630 0.91200
Cu	Cu	0.77000 0.60630 0.49050 0.91400
H 	H 	0.37901 0.79502 0.61399 0.11300
H 	H 	0.27301 0.70102 0.61899 0.13000
H 	H 	0.29901 0.82402 0.55599 0.06600
H 	H 	0.03601 0.81802 0.83499 0.02600
H 	H 	0.06000 0.71500 0.05600 0.03600
H 	H 	0.96700 0.74400 0.01300 0.02600
H 	H 	0.07000 0.52000 0.11000 0.04500
H 	H 	0.11000 0.42300 0.17800 0.07600
H 	H 	0.28700 0.46200 0.19900 -0.01400
H 	H 	0.19300 0.60400 0.14600 0.15400
H 	H 	0.25600 0.58700 0.22500 0.12700
H 	H 	0.34600 0.63900 0.09100 0.13700
H 	H 	0.40800 0.62200 0.97500 0.09000
H 	H 	0.47100 0.60400 0.05600 0.11200
H 	H 	0.42100 0.51200 0.02700 0.11300
H 	H 	0.99300 0.61399 0.59099 0.11300
H 	H 	0.89200 0.61899 0.67999 0.13100
H 	H 	0.85500 0.55599 0.61999 0.06700
H 	H 	0.87100 0.83499 0.34699 0.02900
H 	H 	0.11600 0.05600 0.22900 0.03600
H 	H 	0.98000 0.01300 0.24300 0.02000
H 	H 	0.18000 0.11000 0.37000 0.04400
H 	H 	0.28800 0.17800 0.39900 0.07600
H 	H 	0.48600 0.19900 0.33900 -0.01400
H 	H 	0.33900 0.14600 0.25000 0.15400
H 	H 	0.48100 0.22500 0.18800 0.12700
H 	H 	0.43700 0.09100 0.27000 0.13700
H 	H 	0.38300 0.97500 0.40300 0.09000
H 	H 	0.52700 0.05600 0.34000 0.11100
H 	H 	0.44800 0.02700 0.46100 0.11300
H 	H 	0.58399 0.59099 0.79502 0.11200
H 	H 	0.57199 0.67999 0.70102 0.13000
H 	H 	0.47499 0.61999 0.82402 0.06600
H 	H 	0.21799 0.34699 0.81802 0.02800
H 	H 	0.34500 0.22900 0.71500 0.03700
H 	H 	0.22300 0.24300 0.74400 0.02700
H 	H 	0.55000 0.37000 0.52000 0.04500
H 	H 	0.68700 0.39900 0.42300 0.07600
H 	H 	0.82500 0.33900 0.46200 -0.01400
H 	H 	0.58900 0.25000 0.60400 0.15400
H 	H 	0.66900 0.18800 0.58700 0.12700
H 	H 	0.70700 0.27000 0.63900 0.13700
H 	H 	0.78600 0.40300 0.62200 0.09100
H 	H 	0.86700 0.34000 0.60400 0.11200
H 	H 	0.90900 0.46100 0.51200 0.11300
C 	C 	0.21590 0.66680 0.81430 0.10500
C 	C 	0.21831 0.74112 0.72749 0.09400
C 	C 	0.29331 0.76662 0.62309 -0.31500
C 	C 	0.08791 0.77582 0.83029 0.01700
C 	C 	0.07700 0.70561 0.91911 -0.01200
C 	C 	0.00160 0.68990 0.02850 0.02800
C 	C 	0.14180 0.64410 0.91790 -0.05700
C 	C 	0.13760 0.57640 0.01160 0.03500
C 	C 	0.19270 0.45260 0.11250 -0.16200
C 	C 	0.20840 0.35780 0.11220 0.31300
C 	C 	0.28240 0.51300 0.13480 0.15700
C 	C 	0.26330 0.59960 0.15300 -0.40200
C 	C 	0.40600 0.56570 0.04140 -0.36000
C 	C 	0.03020 0.81430 0.51890 0.10300
C 	C 	0.94580 0.72749 0.53139 0.09700
C 	C 	0.91640 0.62309 0.61029 -0.31800
C 	C 	0.91820 0.83029 0.39389 0.01700
C 	C 	0.99611 0.91911 0.37528 -0.00700
C 	C 	0.03010 0.02850 0.28160 0.03300
C 	C 	0.05970 0.91790 0.43800 -0.06200
C 	C 	0.14920 0.01160 0.41200 0.03900
C 	C 	0.30520 0.11250 0.43490 -0.16200
C 	C 	0.32060 0.11220 0.53000 0.31300
C 	C 	0.41720 0.13480 0.35220 0.15700
C 	C 	0.41630 0.15300 0.24740 -0.40200
C 	C 	0.44740 0.04140 0.39290 -0.35800
C 	C 	0.54910 0.51890 0.66680 0.10500
C 	C 	0.47719 0.53139 0.74112 0.09400
C 	C 	0.52669 0.61029 0.76662 -0.31600
C 	C 	0.31209 0.39389 0.77582 0.01700
C 	C 	0.37139 0.37528 0.70561 -0.00900
C 	C 	0.31170 0.28160 0.68990 0.02400
C 	C 	0.49770 0.43800 0.64410 -0.05500
C 	C 	0.56120 0.41200 0.57640 0.03300
C 	C 	0.74010 0.43490 0.45260 -0.16300
C 	C 	0.85060 0.53000 0.35780 0.31300
C 	C 	0.76940 0.35220 0.51300 0.15800
C 	C 	0.66370 0.24740 0.59960 -0.40300
C 	C 	0.84030 0.39290 0.56570 -0.36100
N 	N 	0.15631 0.79492 0.73539 -0.21000
N 	N 	0.19320 0.51610 0.01520 -0.18800
N 	N 	0.89170 0.73539 0.46969 -0.21000
N 	N 	0.20840 0.01520 0.46870 -0.18800
N 	N 	0.36139 0.46969 0.79492 -0.20900
N 	N 	0.67710 0.46870 0.51610 -0.18800
O 	O 	0.91530 0.58770 0.10000 -0.23100
O 	O 	0.27980 0.61790 0.80080 -0.33800
O 	O 	0.24280 0.36580 0.01940 -0.37100
O 	O 	0.19420 0.28640 0.19050 -0.25500
O 	O 	0.01530 0.10000 0.31230 -0.22900
O 	O 	0.08060 0.80080 0.58130 -0.33900
O 	O 	0.26220 0.01940 0.61480 -0.37000
O 	O 	0.38470 0.19050 0.52310 -0.25500
O 	O 	0.32760 0.31230 0.58770 -0.23000
O 	O 	0.66190 0.58130 0.61790 -0.33800
O 	O 	0.87700 0.61480 0.36580 -0.37200
O 	O 	0.90780 0.52310 0.28640 -0.25600
Cu	Cu	0.73950 0.50950 0.09680 0.91200
Cu	Cu	0.83630 0.09680 0.39370 0.91100
Cu	Cu	0.23000 0.39370 0.50950 0.91300
H 	H 	0.62099 0.20498 0.38601 0.11200
H 	H 	0.72699 0.29898 0.38101 0.13000
H 	H 	0.70099 0.17598 0.44401 0.06600
H 	H 	0.96399 0.18198 0.16501 0.02600
H 	H 	0.94000 0.28500 0.94400 0.03600
H 	H 	0.03300 0.25600 0.98700 0.02600
H 	H 	0.93000 0.48000 0.89000 0.04500
H 	H 	0.89000 0.57700 0.82200 0.07600
H 	H 	0.71300 0.53800 0.80100 -0.01400
H 	H 	0.80700 0.39600 0.85400 0.15400
H 	H 	0.74400 0.41300 0.77500 0.12700
H 	H 	0.65400 0.36100 0.90900 0.13700
H 	H 	0.59200 0.37800 0.02500 0.09000
H 	H 	0.52900 0.39600 0.94400 0.11200
H 	H 	0.57900 0.48800 0.97300 0.11300
H 	H 	0.00700 0.38601 0.40901 0.11300
H 	H 	0.10800 0.38101 0.32001 0.13100
H 	H 	0.14500 0.44401 0.38001 0.06700
H 	H 	0.12900 0.16501 0.65301 0.02900
H 	H 	0.88400 0.94400 0.77100 0.03600
H 	H 	0.02000 0.98700 0.75700 0.02000
H 	H 	0.82000 0.89000 0.63000 0.04400
H 	H 	0.71200 0.82200 0.60100 0.07600
H 	H 	0.51400 0.80100 0.66100 -0.01400
H 	H 	0.66100 0.85400 0.75000 0.15400
H 	H 	0.51900 0.77500 0.81200 0.12700
H 	H 	0.56300 0.90900 0.73000 0.13700
H 	H 	0.61700 0.02500 0.59700 0.09000
H 	H 	0.47300 0.94400 0.66000 0.11100
H 	H 	0.55200 0.97300 0.53900 0.11300
H 	H 	0.41601 0.40901 0.20498 0.11200
H 	H 	0.42801 0.32001 0.29898 0.13000
H 	H 	0.52501 0.38001 0.17598 0.06600
H 	H 	0.78201 0.65301 0.18198 0.02800
H 	H 	0.65500 0.77100 0.28500 0.03700
H 	H 	0.77700 0.75700 0.25600 0.02700
H 	H 	0.45000 0.63000 0.48000 0.04500
H 	H 	0.31300 0.60100 0.57700 0.07600
H 	H 	0.17500 0.66100 0.53800 -0.01400
H 	H 	0.41100 0.75000 0.39600 0.15400
H 	H 	0.33100 0.81200 0.41300 0.12700
H 	H 	0.29300 0.73000 0.36100 0.13700
H 	H 	0.21400 0.59700 0.37800 0.09100
H 	H 	0.13300 0.66000 0.39600 0.11200
H 	H 	0.09100 0.53900 0.48800 0.11300
C 	C 	0.78410 0.33320 0.18570 0.10500
C 	C 	0.78169 0.25888 0.27251 0.09400
C 	C 	0.70669 0.23338 0.37691 -0.31500
C 	C 	0.91209 0.22418 0.16971 0.01700
C 	C 	0.92300 0.29439 0.08089 -0.01200
C 	C 	0.99840 0.31010 0.97150 0.02800
C 	C 	0.85820 0.35590 0.08210 -0.05700
C 	C 	0.86240 0.42360 0.98840 0.03500
C 	C 	0.80730 0.54740 0.88750 -0.16200
C 	C 	0.79160 0.64220 0.88780 0.31300
C 	C 	0.71760 0.48700 0.86520 0.15700
C 	C 	0.73670 0.40040 0.84700 -0.40200
C 	C 	0.59400 0.43430 0.95860 -0.36000
C 	C 	0.96980 0.18570 0.48110 0.10300
C 	C 	0.05420 0.27251 0.46861 0.09700
C 	C 	0.08360 0.37691 0.38971 -0.31800
C 	C 	0.08180 0.16971 0.60611 0.01700
C 	C 	0.00389 0.08089 0.62472 -0.00700
C 	C 	0.96990 0.97150 0.71840 0.03300
C 	C 	0.94030 0.08210 0.56200 -0.06200
C 	C 	0.85080 0.98840 0.58800 0.03900
C 	C 	0.69480 0.88750 0.56510 -0.16200
C 	C 	0.67940 0.88780 0.47000 0.31300
C 	C 	0.58280 0.86520 0.64780 0.15700
C 	C 	0.58370 0.84700 0.75260 -0.40200
C 	C 	0.55260 0.95860 0.60710 -0.35800
C 	C 	0.45090 0.48110 0.33320 0.10500
C 	C 	0.52281 0.46861 0.25888 0.09400
C 	C 	0.47331 0.38971 0.23338 -0.31600
C 	C 	0.68791 0.60611 0.22418 0.01700
C 	C 	0.62861 0.62472 0.29439 -0.00900
C 	C 	0.68830 0.71840 0.31010 0.02400
C 	C 	0.50230 0.56200 0.35590 -0.05500
C 	C 	0.43880 0.58800 0.42360 0.03300
C 	C 	0.25990 0.56510 0.54740 -0.16300
C 	C 	0.14940 0.47000 0.64220 0.31300
C 	C 	0.23060 0.64780 0.48700 0.15800
C 	C 	0.33630 0.75260 0.40040 -0.40300
C 	C 	0.15970 0.60710 0.43430 -0.36100
N 	N 	0.84369 0.20508 0.26461 -0.21000
N 	N 	0.80680 0.48390 0.98480 -0.18800
N 	N 	0.10830 0.26461 0.53031 -0.21000
N 	N 	0.79160 0.98480 0.53130 -0.18800
N 	N 	0.63861 0.53031 0.20508 -0.20900
N 	N 	0.32290 0.53130 0.48390 -0.18800
O 	O 	0.08470 0.41230 0.90000 -0.23100
O 	O 	0.72020 0.38210 0.19920 -0.33800
O 	O 	0.75720 0.63420 0.98060 -0.37100
O 	O 	0.80580 0.71360 0.80950 -0.25500
O 	O 	0.98470 0.90000 0.68770 -0.22900
O 	O 	0.91940 0.19920 0.41870 -0.33900
O 	O 	0.73780 0.98060 0.38520 -0.37000
O 	O 	0.61530 0.80950 0.47690 -0.25500
O 	O 	0.67240 0.68770 0.41230 -0.23000
O 	O 	0.33810 0.41870 0.38210 -0.33800
O 	O 	0.12300 0.38520 0.63420 -0.37200
O 	O 	0.09220 0.47690 0.71360 -0.25600
