data_crystal

_cell_length_a 9.80900
_cell_length_b 11.05800
_cell_length_c 11.69800
_cell_angle_alpha 81.23000
_cell_angle_beta  81.57000
_cell_angle_gamma 81.25000

_symmetry_space_group_name_	'P 1'
_symmetry_space_group_name_H-M	'P 1'

loop_
_symmetry_equiv_pos_as_xyz
  x,y,z

loop_
_atom_site_label
_atom_site_type_symbol
_atom_site_fract_x
_atom_site_fract_y
_atom_site_fract_z
_atom_site_charge
Ba	Ba	0.94137 0.32467 0.99549 1.49600
C 	C 	0.97880 0.34610 0.46000 0.10300
C 	C 	0.98590 0.24520 0.54930 -0.13100
C 	C 	0.98060 0.27200 0.66450 0.11000
C 	C 	0.99590 0.09700 0.40870 -0.06800
H 	H 	0.99310 0.16200 0.34810 0.02200
C 	C 	0.99260 0.12200 0.52560 0.04900
C 	C 	0.99700 0.02040 0.61510 -0.07600
H 	H 	0.99490 0.03420 0.69180 0.00700
N 	N 	0.97480 0.29340 0.75750 -0.27100
N 	N 	0.97080 0.42590 0.38520 -0.17500
O 	O 	0.93551 0.55422 0.85595 -0.93000
H 	H 	0.98370 0.55140 0.78960 0.34700
H 	H 	0.85530 0.59120 0.84400 0.34100
C 	C 	0.57450 0.39390 0.85480 0.09800
C 	C 	0.45780 0.39750 0.79420 -0.13800
C 	C 	0.32470 0.41890 0.85850 0.08400
C 	C 	0.47230 0.37330 0.67680 0.04800
C 	C 	0.35530 0.36860 0.62060 -0.06100
H 	H 	0.26680 0.38220 0.66130 0.03800
C 	C 	0.36890 0.34470 0.50790 -0.08400
H 	H 	0.28970 0.34290 0.47340 0.06100
C 	C 	0.50210 0.32270 0.44280 0.07400
C 	C 	0.61810 0.32690 0.49980 -0.08200
H 	H 	0.70680 0.31320 0.45930 0.05900
C 	C 	0.60460 0.35040 0.61180 -0.06000
H 	H 	0.68400 0.35140 0.64630 0.04400
C 	C 	0.51850 0.29850 0.32590 -0.13500
C 	C 	0.40410 0.29020 0.26860 0.09400
C 	C 	0.65050 0.28050 0.25970 0.10600
N 	N 	0.66800 0.39030 0.90240 -0.24300
N 	N 	0.21600 0.43530 0.90880 -0.26700
N 	N 	0.31030 0.28520 0.22250 -0.19300
N 	N 	0.75700 0.26810 0.20570 -0.26500
Ba	Ba	0.05863 0.67533 0.00451 1.49500
C 	C 	0.02120 0.65390 0.54000 0.10200
C 	C 	0.01410 0.75480 0.45070 -0.13200
C 	C 	0.01940 0.72800 0.33550 0.10900
C 	C 	0.00410 0.90300 0.59130 -0.06800
H 	H 	0.00690 0.83800 0.65190 0.02200
C 	C 	0.00740 0.87800 0.47440 0.04900
C 	C 	0.00300 0.97960 0.38490 -0.07600
H 	H 	0.00510 0.96580 0.30820 0.00700
N 	N 	0.02520 0.70660 0.24250 -0.27100
N 	N 	0.02920 0.57410 0.61480 -0.17500
O 	O 	0.06449 0.44578 0.14405 -0.93000
H 	H 	0.01630 0.44860 0.21040 0.34700
H 	H 	0.14470 0.40880 0.15600 0.34100
C 	C 	0.42550 0.60610 0.14520 0.09800
C 	C 	0.54220 0.60250 0.20580 -0.13800
C 	C 	0.67530 0.58110 0.14150 0.08400
C 	C 	0.52770 0.62670 0.32320 0.04800
C 	C 	0.64470 0.63140 0.37940 -0.06100
H 	H 	0.73320 0.61780 0.33870 0.03800
C 	C 	0.63110 0.65530 0.49210 -0.08400
H 	H 	0.71030 0.65710 0.52660 0.06100
C 	C 	0.49790 0.67730 0.55720 0.07400
C 	C 	0.38190 0.67310 0.50020 -0.08200
H 	H 	0.29320 0.68680 0.54070 0.05900
C 	C 	0.39540 0.64960 0.38820 -0.06000
H 	H 	0.31600 0.64860 0.35370 0.04400
C 	C 	0.48150 0.70150 0.67410 -0.13500
C 	C 	0.59590 0.70980 0.73140 0.09400
C 	C 	0.34950 0.71950 0.74030 0.10600
N 	N 	0.33200 0.60970 0.09760 -0.24300
N 	N 	0.78400 0.56470 0.09120 -0.26700
N 	N 	0.68970 0.71480 0.77750 -0.19300
N 	N 	0.24300 0.73190 0.79430 -0.26500
