data_crystal

_cell_length_a 9.78100
_cell_length_b 11.00700
_cell_length_c 11.38200
_cell_angle_alpha 80.46000
_cell_angle_beta  82.42000
_cell_angle_gamma 81.98000

_symmetry_space_group_name_	'P 1'
_symmetry_space_group_name_H-M	'P 1'

loop_
_symmetry_equiv_pos_as_xyz
  x,y,z

loop_
_atom_site_label
_atom_site_type_symbol
_atom_site_fract_x
_atom_site_fract_y
_atom_site_fract_z
_atom_site_charge
Sr	Sr	0.92863 0.33728 0.99727 1.48700
C 	C 	0.57960 0.39310 0.85820 0.10000
C 	C 	0.46130 0.39650 0.79700 -0.12900
C 	C 	0.32920 0.41610 0.86290 0.08400
C 	C 	0.47530 0.37220 0.67730 0.05200
C 	C 	0.35610 0.36390 0.61960 -0.06200
H 	H 	0.26810 0.37450 0.66160 0.04600
C 	C 	0.36890 0.34100 0.50530 -0.07800
H 	H 	0.28940 0.33590 0.47050 0.06000
C 	C 	0.50070 0.32450 0.43720 0.07100
C 	C 	0.61900 0.33210 0.49560 -0.07600
H 	H 	0.70710 0.32160 0.45380 0.05900
C 	C 	0.60650 0.35410 0.60990 -0.06300
H 	H 	0.68620 0.35740 0.64510 0.04700
C 	C 	0.51620 0.30120 0.31720 -0.12900
C 	C 	0.40030 0.29240 0.25880 0.09800
C 	C 	0.64830 0.28720 0.24980 0.10800
C 	C 	0.98020 0.34690 0.46430 0.10300
C 	C 	0.98870 0.24280 0.55610 -0.12800
C 	C 	0.98760 0.26900 0.67420 0.10400
C 	C 	0.99460 0.10130 0.40880 -0.07400
H 	H 	0.99140 0.16890 0.34770 0.02900
C 	C 	0.99460 0.12180 0.52850 0.05200
C 	C 	0.00100 0.01600 0.61880 -0.06800
H 	H 	0.00210 0.02650 0.69810 0.01600
N 	N 	0.67690 0.39120 0.90510 -0.25800
N 	N 	0.22060 0.43410 0.91260 -0.26100
N 	N 	0.30460 0.28590 0.21330 -0.18800
N 	N 	0.75550 0.27810 0.19620 -0.27800
N 	N 	0.98600 0.29230 0.76870 -0.27900
N 	N 	0.97200 0.42640 0.38650 -0.17400
O 	O 	0.94559 0.55238 0.86221 -1.02700
H 	H 	0.99380 0.54960 0.79590 0.38600
H 	H 	0.86540 0.58930 0.85030 0.36900
Sr	Sr	0.07137 0.66272 0.00273 1.48800
C 	C 	0.42040 0.60690 0.14180 0.10100
C 	C 	0.53870 0.60350 0.20300 -0.12900
C 	C 	0.67080 0.58390 0.13710 0.08400
C 	C 	0.52470 0.62780 0.32270 0.05200
C 	C 	0.64390 0.63610 0.38040 -0.06200
H 	H 	0.73190 0.62550 0.33840 0.04600
C 	C 	0.63110 0.65900 0.49470 -0.07800
H 	H 	0.71060 0.66410 0.52950 0.06000
C 	C 	0.49930 0.67550 0.56280 0.07100
C 	C 	0.38100 0.66790 0.50440 -0.07600
H 	H 	0.29290 0.67840 0.54620 0.05900
C 	C 	0.39350 0.64590 0.39010 -0.06300
H 	H 	0.31380 0.64260 0.35490 0.04700
C 	C 	0.48380 0.69880 0.68280 -0.12900
C 	C 	0.59970 0.70760 0.74120 0.09800
C 	C 	0.35170 0.71280 0.75020 0.10800
C 	C 	0.01980 0.65310 0.53570 0.10300
C 	C 	0.01130 0.75720 0.44390 -0.12800
C 	C 	0.01240 0.73100 0.32580 0.10400
C 	C 	0.00540 0.89870 0.59120 -0.07400
H 	H 	0.00860 0.83110 0.65230 0.02900
C 	C 	0.00540 0.87820 0.47150 0.05200
C 	C 	0.99900 0.98400 0.38120 -0.06800
H 	H 	0.99790 0.97350 0.30190 0.01600
N 	N 	0.32310 0.60880 0.09490 -0.25800
N 	N 	0.77940 0.56590 0.08740 -0.26100
N 	N 	0.69540 0.71410 0.78670 -0.18800
N 	N 	0.24450 0.72190 0.80380 -0.27800
N 	N 	0.01400 0.70770 0.23130 -0.27900
N 	N 	0.02800 0.57360 0.61350 -0.17400
O 	O 	0.05441 0.44762 0.13779 -1.02700
H 	H 	0.00620 0.45040 0.20410 0.38600
H 	H 	0.13460 0.41070 0.14970 0.36900
