data_crystal

_cell_length_a 25.11700
_cell_length_b 5.78020
_cell_length_c 21.99300
_cell_angle_alpha 90.00000
_cell_angle_beta  120.74400
_cell_angle_gamma 90.00000

_symmetry_space_group_name_	'P 1'
_symmetry_space_group_name_H-M	'P 1'

loop_
_symmetry_equiv_pos_as_xyz
  x,y,z

loop_
_atom_site_label
_atom_site_type_symbol
_atom_site_fract_x
_atom_site_fract_y
_atom_site_fract_z
_atom_site_charge
C 	C 	0.52590 0.37600 0.38410 0.02800
H 	H 	0.54630 0.51650 0.39970 -0.02600
C 	C 	0.52400 0.26800 0.32850 -0.12500
H 	H 	0.54620 0.32900 0.30890 0.05600
C 	C 	0.48870 0.06280 0.29930 0.01500
C 	C 	0.46090 0.97500 0.33330 -0.07200
H 	H 	0.43840 0.83810 0.31690 0.04700
C 	C 	0.46530 0.08200 0.39100 0.01200
H 	H 	0.44490 0.01670 0.41210 0.00300
C 	C 	0.48480 0.95600 0.23470 -0.05900
H 	H 	0.49480 0.79300 0.24290 0.04500
H 	H 	0.51480 0.02970 0.22560 0.04000
C 	C 	0.41460 0.88280 0.10560 -0.42000
H 	H 	0.43300 0.72790 0.11660 0.16600
C 	C 	0.44850 0.03360 0.07890 0.35600
C 	C 	0.34590 0.86500 0.04790 0.90300
H 	H 	0.32540 0.78550 0.06980 -0.27500
C 	C 	0.33660 0.71200 0.98710 -1.28500
H 	H 	0.33850 0.80470 0.95200 0.41300
H 	H 	0.29690 0.63770 0.96640 0.39100
H 	H 	0.36860 0.59640 0.00440 0.37900
C 	C 	0.31270 0.09700 0.02110 -1.60700
H 	H 	0.33060 0.18010 0.99820 0.50300
H 	H 	0.31710 0.18550 0.06030 0.48200
H 	H 	0.26950 0.06990 0.98800 0.49800
C 	C 	0.12920 0.85000 0.10950 0.10000
H 	H 	0.11700 0.97750 0.07940 -0.06500
C 	C 	0.18870 0.85100 0.16870 -0.22700
H 	H 	0.21430 0.97880 0.17850 0.09000
C 	C 	0.20970 0.66000 0.21280 0.15700
C 	C 	0.16850 0.48100 0.19500 -0.22900
H 	H 	0.18040 0.34910 0.22310 0.09200
C 	C 	0.11010 0.49300 0.13650 0.09700
H 	H 	0.08390 0.36700 0.12600 -0.03700
C 	C 	0.27180 0.66300 0.27720 -0.19500
H 	H 	0.29390 0.80110 0.27750 0.08600
H 	H 	0.29530 0.52940 0.27740 0.08700
C 	C 	0.32390 0.74890 0.40700 -0.40500
H 	H 	0.33530 0.89750 0.39530 0.17000
C 	C 	0.37710 0.57850 0.42820 0.40500
C 	C 	0.31030 0.78710 0.46600 0.75100
H 	H 	0.27070 0.87050 0.44430 -0.22400
C 	C 	0.35760 0.94800 0.52370 -1.14100
H 	H 	0.33920 0.02070 0.54770 0.33300
H 	H 	0.37040 0.06380 0.50260 0.35300
H 	H 	0.39300 0.85920 0.55700 0.37100
C 	C 	0.29990 0.56500 0.49620 -1.23000
H 	H 	0.33600 0.46860 0.51410 0.37700
H 	H 	0.26470 0.48420 0.45950 0.37300
H 	H 	0.29260 0.60270 0.53380 0.38100
N 	N 	0.49740 0.27780 0.41860 -0.26300
N 	N 	0.42000 0.98650 0.17070 -0.14400
H 	H 	0.39240 0.91910 0.17940 0.08800
H 	H 	0.41100 0.13830 0.16330 0.08000
N 	N 	0.08880 0.68000 0.09350 -0.28600
N 	N 	0.26630 0.65950 0.34220 -0.14300
H 	H 	0.25900 0.51360 0.35030 0.08700
H 	H 	0.23370 0.74680 0.33440 0.08500
O 	O 	0.43070 0.67480 0.46840 -0.48000
O 	O 	0.36690 0.37700 0.41000 -0.37800
O 	O 	0.46600 0.92540 0.04170 -0.45400
O 	O 	0.45710 0.24410 0.09360 -0.37600
C 	C 	0.02590 0.87600 0.38410 0.03400
H 	H 	0.04630 0.01650 0.39970 -0.04500
C 	C 	0.02400 0.76800 0.32850 -0.25800
H 	H 	0.04620 0.82900 0.30890 0.08700
C 	C 	0.98870 0.56280 0.29930 0.18000
C 	C 	0.96090 0.47500 0.33330 -0.22100
H 	H 	0.93840 0.33810 0.31690 0.10100
C 	C 	0.96530 0.58200 0.39100 0.12300
H 	H 	0.94490 0.51670 0.41210 -0.02000
C 	C 	0.98480 0.45600 0.23470 -0.09200
H 	H 	0.99480 0.29300 0.24290 0.06700
H 	H 	0.01480 0.52970 0.22560 0.01900
C 	C 	0.91460 0.38280 0.10560 -0.43000
H 	H 	0.93300 0.22790 0.11660 0.17400
C 	C 	0.94850 0.53360 0.07890 0.39800
C 	C 	0.84590 0.36500 0.04790 0.86400
H 	H 	0.82540 0.28550 0.06980 -0.26600
C 	C 	0.83660 0.21200 0.98710 -1.26000
H 	H 	0.83850 0.30470 0.95200 0.40000
H 	H 	0.79690 0.13770 0.96640 0.37800
H 	H 	0.86860 0.09640 0.00440 0.37300
C 	C 	0.81270 0.59700 0.02110 -1.52800
H 	H 	0.83060 0.68010 0.99820 0.48200
H 	H 	0.81710 0.68550 0.06030 0.46300
H 	H 	0.76950 0.56990 0.98800 0.47700
C 	C 	0.62920 0.35000 0.10950 0.09400
H 	H 	0.61700 0.47750 0.07940 -0.06400
C 	C 	0.68870 0.35100 0.16870 -0.21800
H 	H 	0.71430 0.47880 0.17850 0.08400
C 	C 	0.70970 0.16000 0.21280 0.13600
C 	C 	0.66850 0.98100 0.19500 -0.20600
H 	H 	0.68040 0.84910 0.22310 0.09200
C 	C 	0.61010 0.99300 0.13650 0.11100
H 	H 	0.58390 0.86700 0.12600 -0.02500
C 	C 	0.77180 0.16300 0.27720 -0.18500
H 	H 	0.79390 0.30110 0.27750 0.08200
H 	H 	0.79530 0.02940 0.27740 0.08500
C 	C 	0.82390 0.24890 0.40700 -0.47100
H 	H 	0.83530 0.39750 0.39530 0.18600
C 	C 	0.87710 0.07850 0.42820 0.41800
C 	C 	0.81030 0.28710 0.46600 0.93100
H 	H 	0.77070 0.37050 0.44430 -0.27800
C 	C 	0.85760 0.44800 0.52370 -1.46100
H 	H 	0.83920 0.52070 0.54770 0.44100
H 	H 	0.87040 0.56380 0.50260 0.46200
H 	H 	0.89300 0.35920 0.55700 0.46800
C 	C 	0.79990 0.06500 0.49620 -1.46200
H 	H 	0.83600 0.96860 0.51410 0.44700
H 	H 	0.76470 0.98420 0.45950 0.45300
H 	H 	0.79260 0.10270 0.53380 0.44800
N 	N 	0.99740 0.77780 0.41860 -0.25100
N 	N 	0.92000 0.48650 0.17070 -0.15200
H 	H 	0.89240 0.41910 0.17940 0.08500
H 	H 	0.91100 0.63830 0.16330 0.09800
N 	N 	0.58880 0.18000 0.09350 -0.28700
N 	N 	0.76630 0.15950 0.34220 -0.13500
H 	H 	0.75900 0.01360 0.35030 0.08400
H 	H 	0.73370 0.24680 0.33440 0.08400
O 	O 	0.93070 0.17480 0.46840 -0.47000
O 	O 	0.86690 0.87700 0.41000 -0.37600
O 	O 	0.96600 0.42540 0.04170 -0.45200
O 	O 	0.95710 0.74410 0.09360 -0.36100
C 	C 	0.47410 0.37600 0.61590 0.02900
H 	H 	0.45370 0.51650 0.60030 -0.02500
C 	C 	0.47600 0.26800 0.67150 -0.12400
H 	H 	0.45380 0.32900 0.69110 0.05600
C 	C 	0.51130 0.06280 0.70070 0.01400
C 	C 	0.53910 0.97500 0.66670 -0.07000
H 	H 	0.56160 0.83810 0.68310 0.04700
C 	C 	0.53470 0.08200 0.60900 0.01200
H 	H 	0.55510 0.01670 0.58790 0.00300
C 	C 	0.51520 0.95600 0.76530 -0.05700
H 	H 	0.50520 0.79300 0.75710 0.04400
H 	H 	0.48520 0.02970 0.77440 0.03900
C 	C 	0.58540 0.88280 0.89440 -0.40400
H 	H 	0.56700 0.72790 0.88340 0.16400
C 	C 	0.55150 0.03360 0.92110 0.35600
C 	C 	0.65410 0.86500 0.95210 0.87800
H 	H 	0.67460 0.78550 0.93020 -0.26200
C 	C 	0.66340 0.71200 0.01290 -1.49700
H 	H 	0.66150 0.80470 0.04800 0.46600
H 	H 	0.70310 0.63770 0.03360 0.44000
H 	H 	0.63140 0.59640 0.99560 0.48000
C 	C 	0.68730 0.09700 0.97890 -1.20600
H 	H 	0.66940 0.18010 0.00180 0.34600
H 	H 	0.68290 0.18550 0.93970 0.36700
H 	H 	0.73050 0.06990 0.01200 0.34600
C 	C 	0.87080 0.85000 0.89050 0.09800
H 	H 	0.88300 0.97750 0.92060 -0.04300
C 	C 	0.81130 0.85100 0.83130 -0.21900
H 	H 	0.78570 0.97880 0.82150 0.09000
C 	C 	0.79030 0.66000 0.78720 0.15300
C 	C 	0.83150 0.48100 0.80500 -0.21900
H 	H 	0.81960 0.34910 0.77690 0.09300
C 	C 	0.88990 0.49300 0.86350 0.09800
H 	H 	0.91610 0.36700 0.87400 -0.00900
C 	C 	0.72820 0.66300 0.72280 -0.19100
H 	H 	0.70610 0.80110 0.72250 0.08500
H 	H 	0.70470 0.52940 0.72260 0.08700
C 	C 	0.67610 0.74890 0.59300 -0.40500
H 	H 	0.66470 0.89750 0.60470 0.17000
C 	C 	0.62290 0.57850 0.57180 0.40500
C 	C 	0.68970 0.78710 0.53400 0.75200
H 	H 	0.72930 0.87050 0.55570 -0.22400
C 	C 	0.64240 0.94800 0.47630 -1.14300
H 	H 	0.66080 0.02070 0.45230 0.33300
H 	H 	0.62960 0.06380 0.49740 0.35400
H 	H 	0.60700 0.85920 0.44300 0.37200
C 	C 	0.70010 0.56500 0.50380 -1.23200
H 	H 	0.66400 0.46860 0.48590 0.37800
H 	H 	0.73530 0.48420 0.54050 0.37400
H 	H 	0.70740 0.60270 0.46620 0.38200
N 	N 	0.50260 0.27780 0.58140 -0.26300
N 	N 	0.58000 0.98650 0.82930 -0.14800
H 	H 	0.60760 0.91910 0.82060 0.09000
H 	H 	0.58900 0.13830 0.83670 0.08300
N 	N 	0.91120 0.68000 0.90650 -0.25800
N 	N 	0.73370 0.65950 0.65780 -0.14500
H 	H 	0.74100 0.51360 0.64970 0.08900
H 	H 	0.76630 0.74680 0.66560 0.08800
O 	O 	0.56930 0.67480 0.53160 -0.48000
O 	O 	0.63310 0.37700 0.59000 -0.37700
O 	O 	0.53400 0.92540 0.95830 -0.43300
O 	O 	0.54290 0.24410 0.90640 -0.36600
C 	C 	0.97410 0.87600 0.61590 0.10800
H 	H 	0.95370 0.01650 0.60030 -0.04700
C 	C 	0.97600 0.76800 0.67150 -0.14500
H 	H 	0.95380 0.82900 0.69110 0.07300
C 	C 	0.01130 0.56280 0.70070 0.09300
C 	C 	0.03910 0.47500 0.66670 -0.20600
H 	H 	0.06160 0.33810 0.68310 0.08500
C 	C 	0.03470 0.58200 0.60900 0.08200
H 	H 	0.05510 0.51670 0.58790 -0.02200
C 	C 	0.01520 0.45600 0.76530 -0.26100
H 	H 	0.00520 0.29300 0.75710 0.08300
H 	H 	0.98520 0.52970 0.77440 0.15000
C 	C 	0.08540 0.38280 0.89440 -0.42600
H 	H 	0.06700 0.22790 0.88340 0.16300
C 	C 	0.05150 0.53360 0.92110 0.39500
C 	C 	0.15410 0.36500 0.95210 0.84100
H 	H 	0.17460 0.28550 0.93020 -0.25500
C 	C 	0.16340 0.21200 0.01290 -1.46300
H 	H 	0.16150 0.30470 0.04800 0.45000
H 	H 	0.20310 0.13770 0.03360 0.42500
H 	H 	0.13140 0.09640 0.99560 0.46800
C 	C 	0.18730 0.59700 0.97890 -1.13200
H 	H 	0.16940 0.68010 0.00180 0.32800
H 	H 	0.18290 0.68550 0.93970 0.34900
H 	H 	0.23050 0.56990 0.01200 0.32600
C 	C 	0.37080 0.35000 0.89050 0.09000
H 	H 	0.38300 0.47750 0.92060 -0.05000
C 	C 	0.31130 0.35100 0.83130 -0.21400
H 	H 	0.28570 0.47880 0.82150 0.08400
C 	C 	0.29030 0.16000 0.78720 0.13400
C 	C 	0.33150 0.98100 0.80500 -0.20400
H 	H 	0.31960 0.84910 0.77690 0.09200
C 	C 	0.38990 0.99300 0.86350 0.11300
H 	H 	0.41610 0.86700 0.87400 -0.02100
C 	C 	0.22820 0.16300 0.72280 -0.18400
H 	H 	0.20610 0.30110 0.72250 0.08100
H 	H 	0.20470 0.02940 0.72260 0.08400
C 	C 	0.17610 0.24890 0.59300 -0.46100
H 	H 	0.16470 0.39750 0.60470 0.18100
C 	C 	0.12290 0.07850 0.57180 0.42100
C 	C 	0.18970 0.28710 0.53400 0.89500
H 	H 	0.22930 0.37050 0.55570 -0.26700
C 	C 	0.14240 0.44800 0.47630 -1.39800
H 	H 	0.16080 0.52070 0.45230 0.41900
H 	H 	0.12960 0.56380 0.49740 0.43600
H 	H 	0.10700 0.35920 0.44300 0.43300
C 	C 	0.20010 0.06500 0.50380 -1.42200
H 	H 	0.16400 0.96860 0.48590 0.43300
H 	H 	0.23530 0.98420 0.54050 0.44100
H 	H 	0.20740 0.10270 0.46620 0.43400
N 	N 	0.00260 0.77780 0.58140 -0.31600
N 	N 	0.08000 0.48650 0.82930 -0.13600
H 	H 	0.10760 0.41910 0.82060 0.08500
H 	H 	0.08900 0.63830 0.83670 0.09000
N 	N 	0.41120 0.18000 0.90650 -0.27900
N 	N 	0.23370 0.15950 0.65780 -0.13700
H 	H 	0.24100 0.01360 0.64970 0.08500
H 	H 	0.26630 0.24680 0.66560 0.08500
O 	O 	0.06930 0.17480 0.53160 -0.50500
O 	O 	0.13310 0.87700 0.59000 -0.38400
O 	O 	0.03400 0.42540 0.95830 -0.47500
O 	O 	0.04290 0.74410 0.90640 -0.38700
Zn	Zn	0.50000 0.16900 -0.00000 1.17100
Zn	Zn	-0.00000 0.66900 -0.00000 1.15900
Zn	Zn	0.50000 0.45090 0.50000 1.20000
Zn	Zn	0.00000 0.95090 0.50000 1.18200
