data_crystal

_cell_length_a 18.71450
_cell_length_b 18.71450
_cell_length_c 18.71450
_cell_angle_alpha 99.40970
_cell_angle_beta  99.40970
_cell_angle_gamma 99.40970

_symmetry_space_group_name_	'P 1'
_symmetry_space_group_name_H-M	'P 1'

loop_
_symmetry_equiv_pos_as_xyz
  x,y,z

loop_
_atom_site_label
_atom_site_type_symbol
_atom_site_fract_x
_atom_site_fract_y
_atom_site_fract_z
_atom_site_charge
Ni	Ni	0.25000 0.18019 0.31981 1.12800
Ni	Ni	0.31981 0.25000 0.18019 1.12800
Ni	Ni	0.18019 0.31981 0.25000 1.12800
Ni	Ni	0.75000 0.81981 0.68019 1.12800
Ni	Ni	0.68019 0.75000 0.81981 1.12800
Ni	Ni	0.81981 0.68019 0.75000 1.12800
H 	H 	0.44720 0.72330 0.69690 0.03400
H 	H 	0.33470 0.76020 0.66300 0.07000
H 	H 	0.45010 0.95150 0.63470 0.06400
H 	H 	0.55940 0.91120 0.66080 0.02800
H 	H 	0.35640 0.94570 0.54940 0.07100
H 	H 	0.18450 0.07430 0.53450 0.07900
H 	H 	0.18500 0.15060 0.45260 0.00400
H 	H 	0.69690 0.44720 0.72330 0.03500
H 	H 	0.66300 0.33470 0.76020 0.07100
H 	H 	0.63470 0.45010 0.95150 0.06400
H 	H 	0.66080 0.55940 0.91120 0.02800
H 	H 	0.54940 0.35640 0.94570 0.07100
H 	H 	0.53450 0.18450 0.07430 0.07900
H 	H 	0.45260 0.18500 0.15060 0.00400
H 	H 	0.72330 0.69690 0.44720 0.03500
H 	H 	0.76020 0.66300 0.33470 0.07100
H 	H 	0.95150 0.63470 0.45010 0.06400
H 	H 	0.91120 0.66080 0.55940 0.02800
H 	H 	0.94570 0.54940 0.35640 0.07100
H 	H 	0.07430 0.53450 0.18450 0.07900
H 	H 	0.15060 0.45260 0.18500 0.00400
H 	H 	0.77670 0.05280 0.80310 0.03500
H 	H 	0.73980 0.16530 0.83700 0.07100
H 	H 	0.54850 0.04990 0.86530 0.06400
H 	H 	0.58880 0.94060 0.83920 0.02800
H 	H 	0.55430 0.14360 0.95060 0.07100
H 	H 	0.42570 0.31550 0.96550 0.07800
H 	H 	0.34940 0.31500 0.04740 0.00400
H 	H 	0.05280 0.80310 0.77670 0.03500
H 	H 	0.16530 0.83700 0.73980 0.07100
H 	H 	0.04990 0.86530 0.54850 0.06400
H 	H 	0.94060 0.83920 0.58880 0.02800
H 	H 	0.14360 0.95060 0.55430 0.07100
H 	H 	0.31550 0.96550 0.42570 0.07800
H 	H 	0.31500 0.04740 0.34940 0.00400
H 	H 	0.80310 0.77670 0.05280 0.03500
H 	H 	0.83700 0.73980 0.16530 0.07100
H 	H 	0.86530 0.54850 0.04990 0.06400
H 	H 	0.83920 0.58880 0.94060 0.02800
H 	H 	0.95060 0.55430 0.14360 0.07100
H 	H 	0.96550 0.42570 0.31550 0.07800
H 	H 	0.04740 0.34940 0.31500 0.00400
H 	H 	0.55280 0.27670 0.30310 0.03500
H 	H 	0.66530 0.23980 0.33700 0.07100
H 	H 	0.54990 0.04850 0.36530 0.06400
H 	H 	0.44060 0.08880 0.33920 0.02800
H 	H 	0.64360 0.05430 0.45060 0.07100
H 	H 	0.81550 0.92570 0.46550 0.07900
H 	H 	0.81500 0.84940 0.54740 0.00400
H 	H 	0.30310 0.55280 0.27670 0.03500
H 	H 	0.33700 0.66530 0.23980 0.07100
H 	H 	0.36530 0.54990 0.04850 0.06400
H 	H 	0.33920 0.44060 0.08880 0.02800
H 	H 	0.45060 0.64360 0.05430 0.07100
H 	H 	0.46550 0.81550 0.92570 0.07900
H 	H 	0.54740 0.81500 0.84940 0.00400
H 	H 	0.27670 0.30310 0.55280 0.03500
H 	H 	0.23980 0.33700 0.66530 0.07100
H 	H 	0.04850 0.36530 0.54990 0.06400
H 	H 	0.08880 0.33920 0.44060 0.02800
H 	H 	0.05430 0.45060 0.64360 0.07100
H 	H 	0.92570 0.46550 0.81550 0.07900
H 	H 	0.84940 0.54740 0.81500 0.00400
H 	H 	0.22330 0.94720 0.19690 0.03500
H 	H 	0.26020 0.83470 0.16300 0.07100
H 	H 	0.45150 0.95010 0.13470 0.06400
H 	H 	0.41120 0.05940 0.16080 0.02800
H 	H 	0.44570 0.85640 0.04940 0.07100
H 	H 	0.57430 0.68450 0.03450 0.07800
H 	H 	0.65060 0.68500 0.95260 0.00400
H 	H 	0.94720 0.19690 0.22330 0.03500
H 	H 	0.83470 0.16300 0.26020 0.07100
H 	H 	0.95010 0.13470 0.45150 0.06400
H 	H 	0.05940 0.16080 0.41120 0.02800
H 	H 	0.85640 0.04940 0.44570 0.07100
H 	H 	0.68450 0.03450 0.57430 0.07800
H 	H 	0.68500 0.95260 0.65060 0.00400
H 	H 	0.19690 0.22330 0.94720 0.03500
H 	H 	0.16300 0.26020 0.83470 0.07100
H 	H 	0.13470 0.45150 0.95010 0.06400
H 	H 	0.16080 0.41120 0.05940 0.02800
H 	H 	0.04940 0.44570 0.85640 0.07100
H 	H 	0.03450 0.57430 0.68450 0.07800
H 	H 	0.95260 0.65060 0.68500 0.00400
C 	C 	0.58560 0.78490 0.69340 0.37000
C 	C 	0.51450 0.81090 0.67790 -0.11500
C 	C 	0.44760 0.76900 0.68110 0.03500
C 	C 	0.37990 0.79130 0.66200 -0.09300
C 	C 	0.38020 0.85900 0.64200 0.03400
C 	C 	0.44860 0.90320 0.64460 -0.09900
C 	C 	0.51410 0.87980 0.66100 0.04000
C 	C 	0.31090 0.88390 0.61560 0.08100
C 	C 	0.31210 0.93120 0.56650 -0.12200
C 	C 	0.21160 0.06700 0.49610 -0.13900
C 	C 	0.21270 0.11230 0.44760 0.09600
C 	C 	0.69340 0.58560 0.78490 0.37000
C 	C 	0.67790 0.51450 0.81090 -0.11500
C 	C 	0.68110 0.44760 0.76900 0.03500
C 	C 	0.66200 0.37990 0.79130 -0.09300
C 	C 	0.64200 0.38020 0.85900 0.03400
C 	C 	0.64460 0.44860 0.90320 -0.09900
C 	C 	0.66100 0.51410 0.87980 0.04000
C 	C 	0.61560 0.31090 0.88390 0.08100
C 	C 	0.56650 0.31210 0.93120 -0.12200
C 	C 	0.49610 0.21160 0.06700 -0.13900
C 	C 	0.44760 0.21270 0.11230 0.09600
C 	C 	0.78490 0.69340 0.58560 0.37000
C 	C 	0.81090 0.67790 0.51450 -0.11500
C 	C 	0.76900 0.68110 0.44760 0.03500
C 	C 	0.79130 0.66200 0.37990 -0.09300
C 	C 	0.85900 0.64200 0.38020 0.03400
C 	C 	0.90320 0.64460 0.44860 -0.09900
C 	C 	0.87980 0.66100 0.51410 0.04000
C 	C 	0.88390 0.61560 0.31090 0.08100
C 	C 	0.93120 0.56650 0.31210 -0.12200
C 	C 	0.06700 0.49610 0.21160 -0.13900
C 	C 	0.11230 0.44760 0.21270 0.09600
C 	C 	0.71510 0.91440 0.80660 0.37000
C 	C 	0.68910 0.98550 0.82210 -0.11400
C 	C 	0.73100 0.05240 0.81890 0.03400
C 	C 	0.70870 0.12010 0.83800 -0.09300
C 	C 	0.64100 0.11980 0.85800 0.03400
C 	C 	0.59680 0.05140 0.85540 -0.10000
C 	C 	0.62020 0.98590 0.83900 0.04100
C 	C 	0.61610 0.18910 0.88440 0.08100
C 	C 	0.56880 0.18790 0.93350 -0.12200
C 	C 	0.43300 0.28840 0.00390 -0.13900
C 	C 	0.38770 0.28730 0.05240 0.09600
C 	C 	0.91440 0.80660 0.71510 0.37000
C 	C 	0.98550 0.82210 0.68910 -0.11400
C 	C 	0.05240 0.81890 0.73100 0.03400
C 	C 	0.12010 0.83800 0.70870 -0.09300
C 	C 	0.11980 0.85800 0.64100 0.03400
C 	C 	0.05140 0.85540 0.59680 -0.10000
C 	C 	0.98590 0.83900 0.62020 0.04100
C 	C 	0.18910 0.88440 0.61610 0.08100
C 	C 	0.18790 0.93350 0.56880 -0.12200
C 	C 	0.28840 0.00390 0.43300 -0.13900
C 	C 	0.28730 0.05240 0.38770 0.09600
C 	C 	0.80660 0.71510 0.91440 0.37000
C 	C 	0.82210 0.68910 0.98550 -0.11400
C 	C 	0.81890 0.73100 0.05240 0.03400
C 	C 	0.83800 0.70870 0.12010 -0.09300
C 	C 	0.85800 0.64100 0.11980 0.03400
C 	C 	0.85540 0.59680 0.05140 -0.10000
C 	C 	0.83900 0.62020 0.98590 0.04100
C 	C 	0.88440 0.61610 0.18910 0.08100
C 	C 	0.93350 0.56880 0.18790 -0.12200
C 	C 	0.00390 0.43300 0.28840 -0.13900
C 	C 	0.05240 0.38770 0.28730 0.09600
C 	C 	0.41440 0.21510 0.30660 0.37000
C 	C 	0.48550 0.18910 0.32210 -0.11500
C 	C 	0.55240 0.23100 0.31890 0.03500
C 	C 	0.62010 0.20870 0.33800 -0.09300
C 	C 	0.61980 0.14100 0.35800 0.03400
C 	C 	0.55140 0.09680 0.35540 -0.09900
C 	C 	0.48590 0.12020 0.33900 0.04000
C 	C 	0.68910 0.11610 0.38440 0.08100
C 	C 	0.68790 0.06880 0.43350 -0.12200
C 	C 	0.78840 0.93300 0.50390 -0.13900
C 	C 	0.78730 0.88770 0.55240 0.09600
C 	C 	0.30660 0.41440 0.21510 0.37000
C 	C 	0.32210 0.48550 0.18910 -0.11500
C 	C 	0.31890 0.55240 0.23100 0.03500
C 	C 	0.33800 0.62010 0.20870 -0.09300
C 	C 	0.35800 0.61980 0.14100 0.03400
C 	C 	0.35540 0.55140 0.09680 -0.09900
C 	C 	0.33900 0.48590 0.12020 0.04000
C 	C 	0.38440 0.68910 0.11610 0.08100
C 	C 	0.43350 0.68790 0.06880 -0.12200
C 	C 	0.50390 0.78840 0.93300 -0.13900
C 	C 	0.55240 0.78730 0.88770 0.09600
C 	C 	0.21510 0.30660 0.41440 0.37000
C 	C 	0.18910 0.32210 0.48550 -0.11500
C 	C 	0.23100 0.31890 0.55240 0.03500
C 	C 	0.20870 0.33800 0.62010 -0.09300
C 	C 	0.14100 0.35800 0.61980 0.03400
C 	C 	0.09680 0.35540 0.55140 -0.09900
C 	C 	0.12020 0.33900 0.48590 0.04000
C 	C 	0.11610 0.38440 0.68910 0.08100
C 	C 	0.06880 0.43350 0.68790 -0.12200
C 	C 	0.93300 0.50390 0.78840 -0.13900
C 	C 	0.88770 0.55240 0.78730 0.09600
C 	C 	0.28490 0.08560 0.19340 0.37000
C 	C 	0.31090 0.01450 0.17790 -0.11400
C 	C 	0.26900 0.94760 0.18110 0.03400
C 	C 	0.29130 0.87990 0.16200 -0.09300
C 	C 	0.35900 0.88020 0.14200 0.03400
C 	C 	0.40320 0.94860 0.14460 -0.10000
C 	C 	0.37980 0.01410 0.16100 0.04100
C 	C 	0.38390 0.81090 0.11560 0.08100
C 	C 	0.43120 0.81210 0.06650 -0.12200
C 	C 	0.56700 0.71160 0.99610 -0.13900
C 	C 	0.61230 0.71270 0.94760 0.09600
C 	C 	0.08560 0.19340 0.28490 0.37000
C 	C 	0.01450 0.17790 0.31090 -0.11400
C 	C 	0.94760 0.18110 0.26900 0.03400
C 	C 	0.87990 0.16200 0.29130 -0.09300
C 	C 	0.88020 0.14200 0.35900 0.03400
C 	C 	0.94860 0.14460 0.40320 -0.10000
C 	C 	0.01410 0.16100 0.37980 0.04100
C 	C 	0.81090 0.11560 0.38390 0.08100
C 	C 	0.81210 0.06650 0.43120 -0.12200
C 	C 	0.71160 0.99610 0.56700 -0.13900
C 	C 	0.71270 0.94760 0.61230 0.09600
C 	C 	0.19340 0.28490 0.08560 0.37000
C 	C 	0.17790 0.31090 0.01450 -0.11400
C 	C 	0.18110 0.26900 0.94760 0.03400
C 	C 	0.16200 0.29130 0.87990 -0.09300
C 	C 	0.14200 0.35900 0.88020 0.03400
C 	C 	0.14460 0.40320 0.94860 -0.10000
C 	C 	0.16100 0.37980 0.01410 0.04100
C 	C 	0.11560 0.38390 0.81090 0.08100
C 	C 	0.06650 0.43120 0.81210 -0.12200
C 	C 	0.99610 0.56700 0.71160 -0.13900
C 	C 	0.94760 0.61230 0.71270 0.09600
C 	C 	0.25000 0.95805 0.54195 0.04800
C 	C 	0.25000 0.00935 0.49065 0.06400
C 	C 	0.54195 0.25000 0.95805 0.04800
C 	C 	0.49065 0.25000 0.00935 0.06400
C 	C 	0.95805 0.54195 0.25000 0.04800
C 	C 	0.00935 0.49065 0.25000 0.06400
C 	C 	0.75000 0.04195 0.45805 0.04800
C 	C 	0.75000 0.99065 0.50935 0.06400
C 	C 	0.45805 0.75000 0.04195 0.04800
C 	C 	0.50935 0.75000 0.99065 0.06400
C 	C 	0.04195 0.45805 0.75000 0.04800
C 	C 	0.99065 0.50935 0.75000 0.06400
N 	N 	0.25000 0.10715 0.39285 -0.21800
N 	N 	0.25000 0.85995 0.64005 -0.13200
N 	N 	0.39285 0.25000 0.10715 -0.21800
N 	N 	0.64005 0.25000 0.85995 -0.13200
N 	N 	0.10715 0.39285 0.25000 -0.21800
N 	N 	0.85995 0.64005 0.25000 -0.13200
N 	N 	0.75000 0.89285 0.60715 -0.21800
N 	N 	0.75000 0.14005 0.35995 -0.13200
N 	N 	0.60715 0.75000 0.89285 -0.21800
N 	N 	0.35995 0.75000 0.14005 -0.13200
N 	N 	0.89285 0.60715 0.75000 -0.21800
N 	N 	0.14005 0.35995 0.75000 -0.13200
O 	O 	0.59040 0.73707 0.73325 -0.39000
O 	O 	0.63683 0.81506 0.66604 -0.40100
O 	O 	0.73325 0.59040 0.73707 -0.39000
O 	O 	0.66604 0.63683 0.81506 -0.40100
O 	O 	0.73707 0.73325 0.59040 -0.39000
O 	O 	0.81506 0.66604 0.63683 -0.40100
O 	O 	0.76293 0.90960 0.76675 -0.39000
O 	O 	0.68494 0.86317 0.83396 -0.40100
O 	O 	0.90960 0.76675 0.76293 -0.39000
O 	O 	0.86317 0.83396 0.68494 -0.40100
O 	O 	0.76675 0.76293 0.90960 -0.39000
O 	O 	0.83396 0.68494 0.86317 -0.40100
O 	O 	0.40960 0.26293 0.26675 -0.39000
O 	O 	0.36317 0.18494 0.33396 -0.40100
O 	O 	0.26675 0.40960 0.26293 -0.39000
O 	O 	0.33396 0.36317 0.18494 -0.40100
O 	O 	0.26293 0.26675 0.40960 -0.39000
O 	O 	0.18494 0.33396 0.36317 -0.40100
O 	O 	0.23707 0.09040 0.23325 -0.39000
O 	O 	0.31506 0.13683 0.16604 -0.40100
O 	O 	0.09040 0.23325 0.23707 -0.39000
O 	O 	0.13683 0.16604 0.31506 -0.40100
O 	O 	0.23325 0.23707 0.09040 -0.39000
O 	O 	0.16604 0.31506 0.13683 -0.40100
O 	O 	0.25000 0.25000 0.25000 -0.56000
O 	O 	0.75000 0.75000 0.75000 -0.56000
