data_crystal

_cell_length_a 18.90000
_cell_length_b 18.90000
_cell_length_c 18.90000
_cell_angle_alpha 61.86820
_cell_angle_beta  61.86820
_cell_angle_gamma 61.86820

_symmetry_space_group_name_	'P 1'
_symmetry_space_group_name_H-M	'P 1'

loop_
_symmetry_equiv_pos_as_xyz
  x,y,z

loop_
_atom_site_label
_atom_site_type_symbol
_atom_site_fract_x
_atom_site_fract_y
_atom_site_fract_z
_atom_site_charge
Co	Co	0.35438 0.14562 0.25000 1.19700
Co	Co	0.25000 0.35438 0.14562 1.19700
Co	Co	0.14562 0.25000 0.35438 1.19700
Co	Co	0.64562 0.85438 0.75000 1.19700
Co	Co	0.75000 0.64562 0.85438 1.19700
Co	Co	0.85438 0.75000 0.64562 1.19700
H 	H 	0.44510 0.10450 0.43000 0.01700
H 	H 	0.49910 0.07520 0.53100 0.09200
H 	H 	0.26600 0.15160 0.68260 0.09200
H 	H 	0.21170 0.18390 0.58130 0.01500
H 	H 	0.51320 0.96760 0.65750 0.02700
H 	H 	0.43000 0.44510 0.10450 0.01700
H 	H 	0.53100 0.49910 0.07520 0.09200
H 	H 	0.68260 0.26600 0.15160 0.09200
H 	H 	0.58130 0.21170 0.18390 0.01400
H 	H 	0.65750 0.51320 0.96760 0.02600
H 	H 	0.10450 0.43000 0.44510 0.01600
H 	H 	0.07520 0.53100 0.49910 0.09100
H 	H 	0.15160 0.68260 0.26600 0.09100
H 	H 	0.18390 0.58130 0.21170 0.01400
H 	H 	0.96760 0.65750 0.51320 0.02600
H 	H 	0.39550 0.05490 0.07000 0.01600
H 	H 	0.42480 0.00090 0.96900 0.09100
H 	H 	0.34840 0.23400 0.81740 0.09100
H 	H 	0.31610 0.28830 0.91870 0.01400
H 	H 	0.53240 0.98680 0.84250 0.02700
H 	H 	0.05490 0.07000 0.39550 0.01600
H 	H 	0.00090 0.96900 0.42480 0.09100
H 	H 	0.23400 0.81740 0.34840 0.09100
H 	H 	0.28830 0.91870 0.31610 0.01400
H 	H 	0.98680 0.84250 0.53240 0.02700
H 	H 	0.07000 0.39550 0.05490 0.01600
H 	H 	0.96900 0.42480 0.00090 0.09100
H 	H 	0.81740 0.34840 0.23400 0.09100
H 	H 	0.91870 0.31610 0.28830 0.01400
H 	H 	0.84250 0.53240 0.98680 0.02700
H 	H 	0.55490 0.89550 0.57000 0.01600
H 	H 	0.50090 0.92480 0.46900 0.09100
H 	H 	0.73400 0.84840 0.31740 0.09100
H 	H 	0.78830 0.81610 0.41870 0.01400
H 	H 	0.48680 0.03240 0.34250 0.02600
H 	H 	0.57000 0.55490 0.89550 0.01600
H 	H 	0.46900 0.50090 0.92480 0.09100
H 	H 	0.31740 0.73400 0.84840 0.09100
H 	H 	0.41870 0.78830 0.81610 0.01400
H 	H 	0.34250 0.48680 0.03240 0.02600
H 	H 	0.89550 0.57000 0.55490 0.01600
H 	H 	0.92480 0.46900 0.50090 0.09100
H 	H 	0.84840 0.31740 0.73400 0.09100
H 	H 	0.81610 0.41870 0.78830 0.01400
H 	H 	0.03240 0.34250 0.48680 0.02600
H 	H 	0.60450 0.94510 0.93000 0.01600
H 	H 	0.57520 0.99910 0.03100 0.09100
H 	H 	0.65160 0.76600 0.18260 0.09100
H 	H 	0.68390 0.71170 0.08130 0.01400
H 	H 	0.46760 0.01320 0.15750 0.02700
H 	H 	0.94510 0.93000 0.60450 0.01600
H 	H 	0.99910 0.03100 0.57520 0.09100
H 	H 	0.76600 0.18260 0.65160 0.09100
H 	H 	0.71170 0.08130 0.68390 0.01400
H 	H 	0.01320 0.15750 0.46760 0.02700
H 	H 	0.93000 0.60450 0.94510 0.01600
H 	H 	0.03100 0.57520 0.99910 0.09100
H 	H 	0.18260 0.65160 0.76600 0.09100
H 	H 	0.08130 0.68390 0.71170 0.01400
H 	H 	0.15750 0.46760 0.01320 0.02700
H 	H 	0.34345 0.15655 0.75000 0.03800
H 	H 	0.75000 0.34345 0.15655 0.03800
H 	H 	0.15655 0.75000 0.34345 0.03800
H 	H 	0.65655 0.84345 0.25000 0.03800
H 	H 	0.25000 0.65655 0.84345 0.03800
H 	H 	0.84345 0.25000 0.65655 0.03800
C 	C 	0.28782 0.16201 0.42888 0.40500
C 	C 	0.32087 0.14477 0.49623 -0.15100
C 	C 	0.40832 0.11262 0.48182 0.08100
C 	C 	0.44079 0.09309 0.54289 -0.15900
C 	C 	0.38589 0.10009 0.62319 0.10800
C 	C 	0.30257 0.13865 0.63291 -0.16700
C 	C 	0.26980 0.15948 0.57114 0.09100
C 	C 	0.42215 0.06873 0.69119 -0.04700
C 	C 	0.49323 0.99627 0.69524 0.03600
C 	C 	0.42888 0.28782 0.16201 0.40500
C 	C 	0.49623 0.32087 0.14477 -0.15100
C 	C 	0.48182 0.40832 0.11262 0.08100
C 	C 	0.54289 0.44079 0.09309 -0.15900
C 	C 	0.62319 0.38589 0.10009 0.10800
C 	C 	0.63291 0.30257 0.13865 -0.16700
C 	C 	0.57114 0.26980 0.15948 0.09100
C 	C 	0.69119 0.42215 0.06873 -0.04700
C 	C 	0.69524 0.49323 0.99627 0.03600
C 	C 	0.16201 0.42888 0.28782 0.40500
C 	C 	0.14477 0.49623 0.32087 -0.15100
C 	C 	0.11262 0.48182 0.40832 0.08100
C 	C 	0.09309 0.54289 0.44079 -0.15900
C 	C 	0.10009 0.62319 0.38589 0.10800
C 	C 	0.13865 0.63291 0.30257 -0.16700
C 	C 	0.15948 0.57114 0.26980 0.09100
C 	C 	0.06873 0.69119 0.42215 -0.04700
C 	C 	0.99627 0.69524 0.49323 0.03600
C 	C 	0.33799 0.21218 0.07112 0.40500
C 	C 	0.35523 0.17913 0.00377 -0.15000
C 	C 	0.38738 0.09168 0.01818 0.08200
C 	C 	0.40691 0.05921 0.95711 -0.15900
C 	C 	0.39991 0.11411 0.87681 0.10800
C 	C 	0.36135 0.19743 0.86709 -0.16700
C 	C 	0.34052 0.23020 0.92886 0.09000
C 	C 	0.43127 0.07785 0.80881 -0.04700
C 	C 	0.50373 0.00677 0.80476 0.03500
C 	C 	0.21218 0.07112 0.33799 0.40500
C 	C 	0.17913 0.00377 0.35523 -0.15000
C 	C 	0.09168 0.01818 0.38738 0.08200
C 	C 	0.05921 0.95711 0.40691 -0.15900
C 	C 	0.11411 0.87681 0.39991 0.10800
C 	C 	0.19743 0.86709 0.36135 -0.16700
C 	C 	0.23020 0.92886 0.34052 0.09000
C 	C 	0.07785 0.80881 0.43127 -0.04700
C 	C 	0.00677 0.80476 0.50373 0.03500
C 	C 	0.07112 0.33799 0.21218 0.40500
C 	C 	0.00377 0.35523 0.17913 -0.15000
C 	C 	0.01818 0.38738 0.09168 0.08200
C 	C 	0.95711 0.40691 0.05921 -0.15900
C 	C 	0.87681 0.39991 0.11411 0.10800
C 	C 	0.86709 0.36135 0.19743 -0.16700
C 	C 	0.92886 0.34052 0.23020 0.09000
C 	C 	0.80881 0.43127 0.07785 -0.04700
C 	C 	0.80476 0.50373 0.00677 0.03500
C 	C 	0.71218 0.83799 0.57112 0.40500
C 	C 	0.67913 0.85523 0.50377 -0.15100
C 	C 	0.59168 0.88738 0.51818 0.08100
C 	C 	0.55921 0.90691 0.45711 -0.15900
C 	C 	0.61411 0.89991 0.37681 0.10800
C 	C 	0.69743 0.86135 0.36709 -0.16700
C 	C 	0.73020 0.84052 0.42886 0.09100
C 	C 	0.57785 0.93127 0.30881 -0.04700
C 	C 	0.50677 0.00373 0.30476 0.03600
C 	C 	0.57112 0.71218 0.83799 0.40500
C 	C 	0.50377 0.67913 0.85523 -0.15100
C 	C 	0.51818 0.59168 0.88738 0.08100
C 	C 	0.45711 0.55921 0.90691 -0.15900
C 	C 	0.37681 0.61411 0.89991 0.10800
C 	C 	0.36709 0.69743 0.86135 -0.16700
C 	C 	0.42886 0.73020 0.84052 0.09100
C 	C 	0.30881 0.57785 0.93127 -0.04700
C 	C 	0.30476 0.50677 0.00373 0.03600
C 	C 	0.83799 0.57112 0.71218 0.40500
C 	C 	0.85523 0.50377 0.67913 -0.15100
C 	C 	0.88738 0.51818 0.59168 0.08100
C 	C 	0.90691 0.45711 0.55921 -0.15900
C 	C 	0.89991 0.37681 0.61411 0.10800
C 	C 	0.86135 0.36709 0.69743 -0.16700
C 	C 	0.84052 0.42886 0.73020 0.09100
C 	C 	0.93127 0.30881 0.57785 -0.04700
C 	C 	0.00373 0.30476 0.50677 0.03600
C 	C 	0.66201 0.78782 0.92888 0.40500
C 	C 	0.64477 0.82087 0.99623 -0.15000
C 	C 	0.61262 0.90832 0.98182 0.08200
C 	C 	0.59309 0.94079 0.04289 -0.15900
C 	C 	0.60009 0.88589 0.12319 0.10800
C 	C 	0.63865 0.80257 0.13291 -0.16700
C 	C 	0.65948 0.76980 0.07114 0.09000
C 	C 	0.56873 0.92215 0.19119 -0.04700
C 	C 	0.49627 0.99323 0.19524 0.03500
C 	C 	0.78782 0.92888 0.66201 0.40500
C 	C 	0.82087 0.99623 0.64477 -0.15000
C 	C 	0.90832 0.98182 0.61262 0.08200
C 	C 	0.94079 0.04289 0.59309 -0.15900
C 	C 	0.88589 0.12319 0.60009 0.10800
C 	C 	0.80257 0.13291 0.63865 -0.16700
C 	C 	0.76980 0.07114 0.65948 0.09000
C 	C 	0.92215 0.19119 0.56873 -0.04700
C 	C 	0.99323 0.19524 0.49627 0.03500
C 	C 	0.92888 0.66201 0.78782 0.40500
C 	C 	0.99623 0.64477 0.82087 -0.15000
C 	C 	0.98182 0.61262 0.90832 0.08200
C 	C 	0.04289 0.59309 0.94079 -0.15900
C 	C 	0.12319 0.60009 0.88589 0.10800
C 	C 	0.13291 0.63865 0.80257 -0.16700
C 	C 	0.07114 0.65948 0.76980 0.09000
C 	C 	0.19119 0.56873 0.92215 -0.04700
C 	C 	0.19524 0.49627 0.99323 0.03500
C 	C 	0.39125 0.10875 0.75000 -0.02100
C 	C 	0.75000 0.39125 0.10875 -0.02100
C 	C 	0.10875 0.75000 0.39125 -0.02100
C 	C 	0.60875 0.89125 0.25000 -0.02100
C 	C 	0.25000 0.60875 0.89125 -0.02100
C 	C 	0.89125 0.25000 0.60875 -0.02100
N 	N 	0.53414 0.96586 0.75000 -0.19500
N 	N 	0.75000 0.53414 0.96586 -0.19500
N 	N 	0.96586 0.75000 0.53414 -0.19500
N 	N 	0.46586 0.03414 0.25000 -0.19500
N 	N 	0.25000 0.46586 0.03414 -0.19500
N 	N 	0.03414 0.25000 0.46586 -0.19500
O 	O 	0.33891 0.12699 0.37375 -0.42800
O 	O 	0.21373 0.21065 0.43378 -0.42100
O 	O 	0.37375 0.33891 0.12699 -0.42800
O 	O 	0.43378 0.21373 0.21065 -0.42100
O 	O 	0.12699 0.37375 0.33891 -0.42800
O 	O 	0.21065 0.43378 0.21373 -0.42100
O 	O 	0.37301 0.16109 0.12625 -0.42800
O 	O 	0.28935 0.28627 0.06622 -0.42100
O 	O 	0.16109 0.12625 0.37301 -0.42800
O 	O 	0.28627 0.06622 0.28935 -0.42100
O 	O 	0.12625 0.37301 0.16109 -0.42800
O 	O 	0.06622 0.28935 0.28627 -0.42100
O 	O 	0.66109 0.87301 0.62625 -0.42800
O 	O 	0.78627 0.78935 0.56622 -0.42100
O 	O 	0.62625 0.66109 0.87301 -0.42800
O 	O 	0.56622 0.78627 0.78935 -0.42100
O 	O 	0.87301 0.62625 0.66109 -0.42800
O 	O 	0.78935 0.56622 0.78627 -0.42100
O 	O 	0.62699 0.83891 0.87375 -0.42800
O 	O 	0.71065 0.71373 0.93378 -0.42100
O 	O 	0.83891 0.87375 0.62699 -0.42800
O 	O 	0.71373 0.93378 0.71065 -0.42100
O 	O 	0.87375 0.62699 0.83891 -0.42800
O 	O 	0.93378 0.71065 0.71373 -0.42100
O 	O 	0.25000 0.25000 0.25000 -0.58000
O 	O 	0.75000 0.75000 0.75000 -0.58000
