data_crystal

_cell_length_a 11.45690
_cell_length_b 11.47230
_cell_length_c 13.11990
_cell_angle_alpha 90.17600
_cell_angle_beta  115.70500
_cell_angle_gamma 110.14700

_symmetry_space_group_name_	'P 1'
_symmetry_space_group_name_H-M	'P 1'

loop_
_symmetry_equiv_pos_as_xyz
  x,y,z

loop_
_atom_site_label
_atom_site_type_symbol
_atom_site_fract_x
_atom_site_fract_y
_atom_site_fract_z
_atom_site_charge
Cu	Cu	0.82917 0.87972 0.59108 0.82700
Cu	Cu	0.13897 0.04955 0.00474 0.79200
Cu	Cu	0.35496 0.81607 0.29581 0.81900
Cu	Cu	0.17083 0.12028 0.40892 0.82700
Cu	Cu	0.86103 0.95045 0.99526 0.79200
Cu	Cu	0.64504 0.18393 0.70419 0.81900
H 	H 	0.55510 0.33930 0.40100 0.21900
H 	H 	0.58460 0.47850 0.37960 0.22000
H 	H 	0.48970 0.42010 0.43840 0.21300
H 	H 	0.38490 0.19010 0.22810 0.07900
H 	H 	0.12900 0.89490 0.70270 0.08600
H 	H 	0.99440 0.28590 0.00400 0.19300
H 	H 	0.09000 0.41930 0.99890 0.21600
H 	H 	0.07220 0.29780 0.92910 0.19000
H 	H 	0.39920 0.59330 0.28600 0.01400
H 	H 	0.27570 0.57600 0.16390 0.01000
H 	H 	0.12920 0.35630 0.29130 0.05000
H 	H 	0.99660 0.37790 0.37720 0.00200
H 	H 	0.00010 0.57460 0.41920 0.07500
H 	H 	0.08770 0.81980 0.31160 0.00800
H 	H 	0.24130 0.85850 0.40980 -0.02300
H 	H 	0.33980 0.83420 0.72550 0.19500
H 	H 	0.36490 0.84210 0.61690 0.19000
H 	H 	0.38870 0.96500 0.68890 0.17200
H 	H 	0.76820 0.80680 0.35110 0.19000
H 	H 	0.85700 0.83240 0.28430 0.20300
H 	H 	0.79920 0.69720 0.31060 0.21100
H 	H 	0.44490 0.66070 0.59900 0.21800
H 	H 	0.41540 0.52150 0.62040 0.21900
H 	H 	0.51030 0.57990 0.56160 0.21300
H 	H 	0.61510 0.80990 0.77190 0.07900
H 	H 	0.87100 0.10510 0.29730 0.08600
H 	H 	0.00560 0.71410 0.99600 0.19300
H 	H 	0.91000 0.58070 0.00110 0.21600
H 	H 	0.92780 0.70220 0.07090 0.19000
H 	H 	0.60080 0.40670 0.71400 0.01400
H 	H 	0.72430 0.42400 0.83610 0.01000
H 	H 	0.87080 0.64370 0.70870 0.05000
H 	H 	0.00340 0.62210 0.62280 0.00200
H 	H 	0.99990 0.42540 0.58080 0.07500
H 	H 	0.91230 0.18020 0.68840 0.00800
H 	H 	0.75870 0.14150 0.59020 -0.02300
H 	H 	0.66020 0.16580 0.27450 0.19500
H 	H 	0.63510 0.15790 0.38310 0.19000
H 	H 	0.61130 0.03500 0.31110 0.17200
H 	H 	0.23180 0.19320 0.64890 0.19000
H 	H 	0.14300 0.16760 0.71570 0.20300
H 	H 	0.20080 0.30280 0.68940 0.21100
C 	C 	0.51600 0.40270 0.38160 -0.72100
C 	C 	0.38940 0.35650 0.26627 0.24300
C 	C 	0.30065 0.41222 0.20138 -0.18200
C 	C 	0.20246 0.32330 0.10029 0.22200
C 	C 	0.07860 0.33240 0.99890 -0.69400
C 	C 	0.30330 0.53920 0.23284 -0.11000
C 	C 	0.21059 0.54015 0.28651 0.08500
C 	C 	0.13050 0.43520 0.30960 -0.15900
C 	C 	0.05130 0.44820 0.36040 0.04000
C 	C 	0.05390 0.56500 0.38590 -0.15800
C 	C 	0.13690 0.66821 0.36168 0.08100
C 	C 	0.14520 0.80050 0.38385 -0.09300
C 	C 	0.33240 0.87650 0.66130 -0.65100
C 	C 	0.18052 0.85820 0.58654 0.22900
C 	C 	0.09954 0.82449 0.47059 -0.20000
C 	C 	0.96671 0.81970 0.44991 0.23000
C 	C 	0.83620 0.78610 0.33917 -0.70500
C 	C 	0.01662 0.98550 0.84877 -0.28200
C 	C 	0.29618 0.90997 0.18121 -0.26000
C 	C 	0.64355 0.84850 0.48797 -0.25100
C 	C 	0.48400 0.59730 0.61840 -0.72100
C 	C 	0.61060 0.64350 0.73373 0.24300
C 	C 	0.69935 0.58778 0.79862 -0.18200
C 	C 	0.79754 0.67670 0.89971 0.22200
C 	C 	0.92140 0.66760 0.00110 -0.69400
C 	C 	0.69670 0.46080 0.76716 -0.11000
C 	C 	0.78941 0.45985 0.71349 0.08500
C 	C 	0.86950 0.56480 0.69040 -0.15900
C 	C 	0.94870 0.55180 0.63960 0.04000
C 	C 	0.94610 0.43500 0.61410 -0.15800
C 	C 	0.86310 0.33179 0.63832 0.08100
C 	C 	0.85480 0.19950 0.61615 -0.09300
C 	C 	0.66760 0.12350 0.33870 -0.65100
C 	C 	0.81948 0.14180 0.41346 0.22900
C 	C 	0.90046 0.17551 0.52941 -0.20000
C 	C 	0.03329 0.18030 0.55009 0.23000
C 	C 	0.16380 0.21390 0.66083 -0.70500
C 	C 	0.98338 0.01450 0.15123 -0.28200
C 	C 	0.70382 0.09003 0.81879 -0.26000
C 	C 	0.35645 0.15150 0.51203 -0.25100
N 	N 	0.23010 0.21959 0.10310 -0.25600
N 	N 	0.34482 0.24274 0.20503 -0.21700
N 	N 	0.21485 0.65588 0.31273 -0.25400
N 	N 	0.09997 0.87289 0.63048 -0.20900
N 	N 	0.96775 0.84923 0.54874 -0.24400
N 	N 	0.94758 0.94430 0.75345 -0.20800
N 	N 	0.25506 0.96765 0.11408 -0.20700
N 	N 	0.53290 0.83358 0.41946 -0.21900
N 	N 	0.76990 0.78041 0.89690 -0.25600
N 	N 	0.65518 0.75726 0.79497 -0.21700
N 	N 	0.78515 0.34412 0.68727 -0.25400
N 	N 	0.90003 0.12711 0.36952 -0.20900
N 	N 	0.03225 0.15077 0.45126 -0.24400
N 	N 	0.05242 0.05570 0.24655 -0.20800
N 	N 	0.74494 0.03235 0.88592 -0.20700
N 	N 	0.46710 0.16642 0.58054 -0.21900
