data_crystal

_cell_length_a 11.35710
_cell_length_b 11.49640
_cell_length_c 12.93520
_cell_angle_alpha 88.86700
_cell_angle_beta  64.61400
_cell_angle_gamma 69.30500

_symmetry_space_group_name_	'P 1'
_symmetry_space_group_name_H-M	'P 1'

loop_
_symmetry_equiv_pos_as_xyz
  x,y,z

loop_
_atom_site_label
_atom_site_type_symbol
_atom_site_fract_x
_atom_site_fract_y
_atom_site_fract_z
_atom_site_charge
Cu	Cu	0.86319 0.05879 0.00615 0.78900
Cu	Cu	0.17028 0.87794 0.59423 0.82600
Cu	Cu	0.64266 0.81923 0.29311 0.81900
Cu	Cu	0.13681 0.94121 0.99385 0.79000
Cu	Cu	0.82972 0.12206 0.40577 0.82700
Cu	Cu	0.35734 0.18077 0.70689 0.81900
H 	H 	0.86710 0.88810 0.70510 0.08700
H 	H 	0.61200 0.19800 0.22540 0.07800
H 	H 	0.91760 0.82100 0.30520 0.01100
H 	H 	0.76270 0.85780 0.40180 -0.02300
H 	H 	0.22180 0.70200 0.32530 0.20600
H 	H 	0.14220 0.81240 0.27710 0.20300
H 	H 	0.21880 0.83720 0.34530 0.18900
H 	H 	0.72350 0.58300 0.15770 0.01800
H 	H 	0.60130 0.59800 0.28110 0.01800
H 	H 	0.88010 0.35850 0.28210 0.05300
H 	H 	0.01130 0.57250 0.41090 0.07800
H 	H 	0.89020 0.40910 0.95850 0.19800
H 	H 	0.98510 0.34990 0.02020 0.18400
H 	H 	0.96890 0.26270 0.93970 0.15900
H 	H 	0.61200 0.95260 0.69800 0.17200
H 	H 	0.62990 0.85060 0.60780 0.18600
H 	H 	0.66210 0.81020 0.71230 0.19700
H 	H 	0.45230 0.34140 0.40690 0.21400
H 	H 	0.50130 0.44450 0.43200 0.20800
H 	H 	0.40360 0.47430 0.37060 0.21500
H 	H 	0.01630 0.37770 0.36600 0.00100
H 	H 	0.13290 0.11190 0.29490 0.08700
H 	H 	0.38800 0.80200 0.77460 0.07800
H 	H 	0.08240 0.17900 0.69480 0.01100
H 	H 	0.23730 0.14220 0.59820 -0.02300
H 	H 	0.77820 0.29800 0.67470 0.20600
H 	H 	0.85780 0.18760 0.72290 0.20300
H 	H 	0.78120 0.16280 0.65470 0.18900
H 	H 	0.27650 0.41700 0.84230 0.01800
H 	H 	0.39870 0.40200 0.71890 0.01800
H 	H 	0.11990 0.64150 0.71790 0.05300
H 	H 	0.98870 0.42750 0.58910 0.07800
H 	H 	0.10980 0.59090 0.04150 0.19800
H 	H 	0.01490 0.65010 0.97980 0.18400
H 	H 	0.03110 0.73730 0.06030 0.15900
H 	H 	0.38800 0.04740 0.30200 0.17200
H 	H 	0.37010 0.14940 0.39220 0.18600
H 	H 	0.33790 0.18980 0.28770 0.19700
H 	H 	0.54770 0.65860 0.59310 0.21400
H 	H 	0.49870 0.55550 0.56800 0.20800
H 	H 	0.59640 0.52570 0.62940 0.21500
H 	H 	0.98370 0.62230 0.63400 0.00100
C 	C 	0.03416 0.82102 0.45036 0.22200
C 	C 	0.98777 0.98815 0.85227 -0.28600
C 	C 	0.79742 0.33014 0.09580 0.20700
C 	C 	0.69790 0.91674 0.17761 -0.25900
C 	C 	0.90366 0.82207 0.46723 -0.19000
C 	C 	0.60670 0.36428 0.26323 0.23100
C 	C 	0.81952 0.85270 0.58481 0.22200
C 	C 	0.85936 0.80019 0.37740 -0.09900
C 	C 	0.69927 0.41862 0.19656 -0.16600
C 	C 	0.86888 0.66896 0.35466 0.08700
C 	C 	0.16600 0.79040 0.33965 -0.69700
C 	C 	0.79223 0.54434 0.28082 0.09300
C 	C 	0.69720 0.54479 0.22744 -0.12600
C 	C 	0.87760 0.43714 0.30130 -0.16800
C 	C 	0.95590 0.56442 0.37770 -0.16500
C 	C 	0.92140 0.33870 0.99450 -0.63500
C 	C 	0.66680 0.86790 0.65740 -0.64500
C 	C 	0.47960 0.41020 0.37850 -0.70800
C 	C 	0.95870 0.44900 0.35070 0.04800
C 	C 	0.35630 0.84809 0.48951 -0.24800
C 	C 	0.96584 0.17898 0.54964 0.22200
C 	C 	0.01223 0.01185 0.14773 -0.28600
C 	C 	0.20258 0.66986 0.90420 0.20700
C 	C 	0.30210 0.08326 0.82239 -0.25900
C 	C 	0.09634 0.17793 0.53277 -0.19000
C 	C 	0.39330 0.63572 0.73677 0.23100
C 	C 	0.18048 0.14730 0.41519 0.22200
C 	C 	0.14064 0.19981 0.62260 -0.09900
C 	C 	0.30073 0.58138 0.80344 -0.16600
C 	C 	0.13112 0.33104 0.64534 0.08700
C 	C 	0.83400 0.20960 0.66035 -0.69700
C 	C 	0.20777 0.45566 0.71918 0.09300
C 	C 	0.30280 0.45521 0.77256 -0.12600
C 	C 	0.12240 0.56286 0.69870 -0.16800
C 	C 	0.04410 0.43558 0.62230 -0.16500
C 	C 	0.07860 0.66130 0.00550 -0.63500
C 	C 	0.33320 0.13210 0.34260 -0.64500
C 	C 	0.52040 0.58980 0.62150 -0.70800
C 	C 	0.04130 0.55100 0.64930 0.04800
C 	C 	0.64370 0.15191 0.51049 -0.24800
N 	N 	0.76677 0.22866 0.10060 -0.25300
N 	N 	0.78782 0.65779 0.30773 -0.25600
N 	N 	0.89772 0.86786 0.63194 -0.20800
N 	N 	0.03115 0.84788 0.55187 -0.24500
N 	N 	0.73707 0.97692 0.11123 -0.20100
N 	N 	0.65227 0.25085 0.20193 -0.21200
N 	N 	0.05615 0.94303 0.75739 -0.21000
N 	N 	0.46710 0.83539 0.42002 -0.22000
N 	N 	0.23323 0.77134 0.89940 -0.25300
N 	N 	0.21218 0.34221 0.69227 -0.25600
N 	N 	0.10228 0.13214 0.36806 -0.20800
N 	N 	0.96885 0.15212 0.44813 -0.24500
N 	N 	0.26293 0.02308 0.88877 -0.20100
N 	N 	0.34773 0.74915 0.79807 -0.21200
N 	N 	0.94385 0.05697 0.24261 -0.21000
N 	N 	0.53290 0.16461 0.57998 -0.22000
