data_crystal

_cell_length_a 11.45070
_cell_length_b 11.60260
_cell_length_c 13.20250
_cell_angle_alpha 65.36000
_cell_angle_beta  71.36800
_cell_angle_gamma 71.46100

_symmetry_space_group_name_	'P 1'
_symmetry_space_group_name_H-M	'P 1'

loop_
_symmetry_equiv_pos_as_xyz
  x,y,z

loop_
_atom_site_label
_atom_site_type_symbol
_atom_site_fract_x
_atom_site_fract_y
_atom_site_fract_z
_atom_site_charge
Cu	Cu	0.38203 0.75598 0.91122 0.82600
Cu	Cu	0.53619 0.86368 0.49435 0.79500
Cu	Cu	0.30981 0.95167 0.19760 0.81700
H 	H 	0.84930 0.95220 0.05710 0.22600
H 	H 	0.98040 0.87220 0.08700 0.23200
H 	H 	0.87370 0.80040 0.11200 0.23300
H 	H 	0.67520 0.85730 0.26470 0.08300
H 	H 	0.41200 0.56850 0.79840 0.08500
H 	H 	0.79960 0.85460 0.56140 0.20400
H 	H 	0.90660 0.93070 0.48460 0.22500
H 	H 	0.76510 0.00510 0.49870 0.19600
H 	H 	0.08450 0.89270 0.20510 0.01100
H 	H 	0.06560 0.90140 0.32450 0.00800
H 	H 	0.85450 0.15990 0.19100 0.05000
H 	H 	0.88120 0.37030 0.10390 -0.00800
H 	H 	0.07860 0.41200 0.06260 0.07600
H 	H 	0.31240 0.22780 0.18140 0.00600
H 	H 	0.35810 0.17420 0.08130 -0.02400
H 	H 	0.47640 0.34210 0.77770 0.18200
H 	H 	0.40650 0.23730 0.87710 0.18800
H 	H 	0.33150 0.35660 0.79300 0.19800
H 	H 	0.18650 0.50090 0.18800 0.21700
H 	H 	0.32010 0.42760 0.21490 0.20800
H 	H 	0.29150 0.57860 0.15290 0.19600
C 	C 	0.89110 0.87700 0.11030 -0.75800
C 	C 	0.84410 0.88640 0.22630 0.26200
C 	C 	0.90110 0.90900 0.29130 -0.19600
C 	C 	0.81220 0.90490 0.39390 0.25300
C 	C 	0.82170 0.92560 0.49330 -0.73700
C 	C 	0.03070 0.93740 0.25700 -0.10900
C 	C 	0.03600 0.07750 0.20120 0.09000
C 	C 	0.93380 0.17750 0.17410 -0.16700
C 	C 	0.94960 0.30230 0.12240 0.04800
C 	C 	0.06680 0.32720 0.09790 -0.16300
C 	C 	0.16680 0.22490 0.12640 0.08600
C 	C 	0.29830 0.24140 0.10830 -0.09200
C 	C 	0.39870 0.32810 0.83240 -0.66600
C 	C 	0.37010 0.40370 0.90920 0.23300
C 	C 	0.32580 0.37130 0.02540 -0.20700
C 	C 	0.31870 0.48080 0.04870 0.24600
C 	C 	0.27540 0.49850 0.16110 -0.71900
C 	C 	0.48080 0.82030 0.65220 -0.28500
C 	C 	0.39940 0.90330 0.30980 -0.26400
C 	C 	0.34870 0.84260 0.01090 -0.25800
N 	N 	0.70620 0.88330 0.39110 -0.26100
N 	N 	0.72930 0.87210 0.28780 -0.22400
N 	N 	0.15170 0.10270 0.17740 -0.25400
N 	N 	0.38550 0.52610 0.86930 -0.21200
N 	N 	0.35420 0.57570 0.95390 -0.24600
N 	N 	0.44510 0.79270 0.74900 -0.20000
N 	N 	0.45380 0.87730 0.37860 -0.21300
N 	N 	0.33190 0.89000 0.07690 -0.21900
Cu	Cu	0.61797 0.24402 0.08878 0.82700
Cu	Cu	0.46381 0.13632 0.50565 0.79600
Cu	Cu	0.69019 0.04833 0.80240 0.81800
H 	H 	0.15070 0.04780 0.94290 0.22700
H 	H 	0.01960 0.12780 0.91300 0.23200
H 	H 	0.12630 0.19960 0.88800 0.23300
H 	H 	0.32480 0.14270 0.73530 0.08300
H 	H 	0.58800 0.43150 0.20160 0.08500
H 	H 	0.20040 0.14540 0.43860 0.20400
H 	H 	0.09340 0.06930 0.51540 0.22500
H 	H 	0.23490 0.99490 0.50130 0.19600
H 	H 	0.91550 0.10730 0.79490 0.01100
H 	H 	0.93440 0.09860 0.67550 0.00800
H 	H 	0.14550 0.84010 0.80900 0.05000
H 	H 	0.11880 0.62970 0.89610 -0.00800
H 	H 	0.92140 0.58800 0.93740 0.07600
H 	H 	0.68760 0.77220 0.81860 0.00600
H 	H 	0.64190 0.82580 0.91870 -0.02400
H 	H 	0.52360 0.65790 0.22230 0.18200
H 	H 	0.59350 0.76270 0.12290 0.18800
H 	H 	0.66850 0.64340 0.20700 0.19800
H 	H 	0.81350 0.49910 0.81200 0.21700
H 	H 	0.67990 0.57240 0.78510 0.20800
H 	H 	0.70850 0.42140 0.84710 0.19600
C 	C 	0.10890 0.12300 0.88970 -0.75800
C 	C 	0.15590 0.11360 0.77370 0.26200
C 	C 	0.09890 0.09100 0.70870 -0.19600
C 	C 	0.18780 0.09510 0.60610 0.25300
C 	C 	0.17830 0.07440 0.50670 -0.73700
C 	C 	0.96930 0.06260 0.74300 -0.10900
C 	C 	0.96400 0.92250 0.79880 0.09000
C 	C 	0.06620 0.82250 0.82590 -0.16700
C 	C 	0.05040 0.69770 0.87760 0.04800
C 	C 	0.93320 0.67280 0.90210 -0.16300
C 	C 	0.83320 0.77510 0.87360 0.08600
C 	C 	0.70170 0.75860 0.89170 -0.09200
C 	C 	0.60130 0.67190 0.16760 -0.66600
C 	C 	0.62990 0.59630 0.09080 0.23300
C 	C 	0.67420 0.62870 0.97460 -0.20700
C 	C 	0.68130 0.51920 0.95130 0.24600
C 	C 	0.72460 0.50150 0.83890 -0.71900
C 	C 	0.51920 0.17970 0.34780 -0.28500
C 	C 	0.60060 0.09670 0.69020 -0.26400
C 	C 	0.65130 0.15740 0.98910 -0.25800
N 	N 	0.29380 0.11670 0.60890 -0.26100
N 	N 	0.27070 0.12790 0.71220 -0.22400
N 	N 	0.84830 0.89730 0.82260 -0.25400
N 	N 	0.61450 0.47390 0.13070 -0.21200
N 	N 	0.64580 0.42430 0.04610 -0.24600
N 	N 	0.55490 0.20730 0.25100 -0.20000
N 	N 	0.54620 0.12270 0.62140 -0.21300
N 	N 	0.66810 0.11000 0.92310 -0.21900
