data_crystal

_cell_length_a 11.37000
_cell_length_b 11.42740
_cell_length_c 12.19120
_cell_angle_alpha 67.95200
_cell_angle_beta  87.74300
_cell_angle_gamma 69.80300

_symmetry_space_group_name_	'P 1'
_symmetry_space_group_name_H-M	'P 1'

loop_
_symmetry_equiv_pos_as_xyz
  x,y,z

loop_
_atom_site_label
_atom_site_type_symbol
_atom_site_fract_x
_atom_site_fract_y
_atom_site_fract_z
_atom_site_charge
Cu	Cu	0.31511 0.63247 0.27502 0.82200
Cu	Cu	0.37101 0.18390 0.58052 0.82700
Cu	Cu	0.54820 0.87651 0.98994 0.79600
Cu	Cu	0.68489 0.36753 0.72498 0.82200
Cu	Cu	0.62899 0.81610 0.41948 0.82700
Cu	Cu	0.45180 0.12349 0.01006 0.79600
H 	H 	0.91420 0.41450 0.33170 0.15500
H 	H 	0.96620 0.49300 0.39100 0.15100
H 	H 	0.82310 0.50040 0.39960 0.14500
H 	H 	0.68300 0.62190 0.19530 0.07500
H 	H 	0.39080 0.89060 0.71610 0.07500
H 	H 	0.76900 0.96050 0.91180 0.13700
H 	H 	0.85140 0.98000 0.00250 0.16900
H 	H 	0.91840 0.88350 0.93390 0.17400
H 	H 	0.09060 0.60600 0.25250 0.01800
H 	H 	0.08110 0.72680 0.12850 0.02300
H 	H 	0.85350 0.88810 0.26070 0.05400
H 	H 	0.87910 0.02210 0.35620 -0.00200
H 	H 	0.07910 0.99600 0.41900 0.07500
H 	H 	0.34880 0.85680 0.32310 0.00700
H 	H 	0.35370 0.72310 0.43330 -0.00700
H 	H 	0.29080 0.67930 0.71580 0.14700
H 	H 	0.39510 0.61820 0.64050 0.12900
H 	H 	0.43620 0.65040 0.74690 0.12900
H 	H 	0.30650 0.20500 0.34200 0.13300
H 	H 	0.33770 0.10040 0.27760 0.14200
H 	H 	0.19810 0.15920 0.31130 0.15700
H 	H 	0.08580 0.58550 0.66830 0.15500
H 	H 	0.03380 0.50700 0.60900 0.15100
H 	H 	0.17690 0.49960 0.60040 0.14500
H 	H 	0.31700 0.37810 0.80470 0.07500
H 	H 	0.60920 0.10940 0.28390 0.07500
H 	H 	0.23100 0.03950 0.08820 0.13700
H 	H 	0.14860 0.02000 0.99750 0.16900
H 	H 	0.08160 0.11650 0.06610 0.17400
H 	H 	0.90940 0.39400 0.74750 0.01800
H 	H 	0.91890 0.27320 0.87150 0.02300
H 	H 	0.14650 0.11190 0.73930 0.05400
H 	H 	0.12090 0.97790 0.64380 -0.00200
H 	H 	0.92090 0.00400 0.58100 0.07500
H 	H 	0.65120 0.14320 0.67690 0.00700
H 	H 	0.64630 0.27690 0.56670 -0.00700
H 	H 	0.70920 0.32070 0.28420 0.14700
H 	H 	0.60490 0.38180 0.35950 0.12900
H 	H 	0.56380 0.34960 0.25310 0.12900
H 	H 	0.69350 0.79500 0.65800 0.13300
H 	H 	0.66230 0.89960 0.72240 0.14200
H 	H 	0.80190 0.84080 0.68870 0.15700
C 	C 	0.89260 0.49600 0.34930 -0.51300
C 	C 	0.85320 0.61840 0.23530 0.16700
C 	C 	0.91340 0.70570 0.16930 -0.13000
C 	C 	0.82650 0.80060 0.06880 0.19700
C 	C 	0.84270 0.91570 0.97110 -0.57100
C 	C 	0.03970 0.70080 0.20220 -0.13300
C 	C 	0.04270 0.78780 0.26650 0.09400
C 	C 	0.93510 0.87960 0.28590 -0.16200
C 	C 	0.95070 0.95740 0.34260 0.05300
C 	C 	0.06830 0.94230 0.37940 -0.16200
C 	C 	0.17210 0.84840 0.35880 0.09600
C 	C 	0.30860 0.82200 0.39570 -0.11300
C 	C 	0.37060 0.67990 0.68250 -0.48600
C 	C 	0.35460 0.82130 0.59640 0.17400
C 	C 	0.32570 0.88360 0.47930 -0.16000
C 	C 	0.32060 0.01640 0.45310 0.18100
C 	C 	0.28800 0.12970 0.33620 -0.52900
C 	C 	0.47730 0.01440 0.84150 -0.30600
C 	C 	0.41100 0.69480 0.15440 -0.25200
C 	C 	0.34040 0.35840 0.46710 -0.24100
C 	C 	0.10740 0.50400 0.65070 -0.51300
C 	C 	0.14680 0.38160 0.76470 0.16700
C 	C 	0.08660 0.29430 0.83070 -0.13000
C 	C 	0.17350 0.19940 0.93120 0.19700
C 	C 	0.15730 0.08430 0.02890 -0.57100
C 	C 	0.96030 0.29920 0.79780 -0.13300
C 	C 	0.95730 0.21220 0.73350 0.09400
C 	C 	0.06490 0.12040 0.71410 -0.16200
C 	C 	0.04930 0.04260 0.65740 0.05300
C 	C 	0.93170 0.05770 0.62060 -0.16200
C 	C 	0.82790 0.15160 0.64120 0.09600
C 	C 	0.69140 0.17800 0.60430 -0.11300
C 	C 	0.62940 0.32010 0.31750 -0.48600
C 	C 	0.64540 0.17870 0.40360 0.17400
C 	C 	0.67430 0.11640 0.52070 -0.16000
C 	C 	0.67940 0.98360 0.54690 0.18100
C 	C 	0.71200 0.87030 0.66380 -0.52900
C 	C 	0.52270 0.98560 0.15850 -0.30600
C 	C 	0.58900 0.30520 0.84560 -0.25200
C 	C 	0.65960 0.64160 0.53290 -0.24100
N 	N 	0.72220 0.77350 0.07250 -0.24500
N 	N 	0.73880 0.66150 0.17310 -0.19300
N 	N 	0.15920 0.77270 0.30360 -0.25700
N 	N 	0.36960 0.90990 0.64100 -0.19000
N 	N 	0.34630 0.03180 0.55060 -0.23600
N 	N 	0.43500 0.08700 0.74720 -0.19300
N 	N 	0.46870 0.74530 0.08430 -0.20200
N 	N 	0.32650 0.46200 0.39370 -0.21900
N 	N 	0.27780 0.22650 0.92750 -0.24500
N 	N 	0.26120 0.33850 0.82690 -0.19300
N 	N 	0.84080 0.22730 0.69640 -0.25700
N 	N 	0.63040 0.09010 0.35900 -0.19000
N 	N 	0.65370 0.96820 0.44940 -0.23600
N 	N 	0.56500 0.91300 0.25280 -0.19300
N 	N 	0.53130 0.25470 0.91570 -0.20200
N 	N 	0.67350 0.53800 0.60630 -0.21900
