data_crystal

_cell_length_a 12.74300
_cell_length_b 13.96440
_cell_length_c 14.79710
_cell_angle_alpha 84.98420
_cell_angle_beta  83.45080
_cell_angle_gamma 64.44170

_symmetry_space_group_name_	'P 1'
_symmetry_space_group_name_H-M	'P 1'

loop_
_symmetry_equiv_pos_as_xyz
  x,y,z

loop_
_atom_site_label
_atom_site_type_symbol
_atom_site_fract_x
_atom_site_fract_y
_atom_site_fract_z
_atom_site_charge
Cu	Cu	0.88551 0.46759 0.99259 0.90700
O 	O 	0.97673 0.33854 0.06524 -0.37500
O 	O 	0.88630 0.36682 0.90975 -0.39600
O 	O 	0.72069 0.40608 0.06639 -0.34500
O 	O 	0.90187 0.56162 0.07461 -0.45100
O 	O 	0.77956 0.59512 0.93490 -0.34600
C 	C 	0.95680 0.26130 0.04550 0.32600
C 	C 	0.87860 0.28420 0.96774 -0.05600
Cu	Cu	0.61429 0.53352 0.00890 0.91600
C 	C 	0.75280 0.31790 0.01265 -0.04100
C 	C 	0.82980 0.65840 0.06270 0.31600
C 	C 	0.74760 0.68350 0.98837 -0.06900
O 	O 	0.99250 0.17425 0.08819 -0.30800
H 	H 	0.90230 0.22010 0.93350 0.06100
O 	O 	0.59821 0.43953 0.92669 -0.45200
O 	O 	0.61345 0.63413 0.09121 -0.39900
O 	O 	0.52371 0.66266 0.93568 -0.37000
H 	H 	0.74970 0.25860 0.05170 0.07300
C 	C 	0.66970 0.34340 0.93880 0.30700
O 	O 	0.82559 0.73135 0.10856 -0.34500
H 	H 	0.75060 0.74280 0.94930 0.07100
C 	C 	0.62160 0.71670 0.03340 -0.02400
C 	C 	0.54490 0.73930 0.95480 0.30100
O 	O 	0.67352 0.27050 0.89255 -0.35600
H 	H 	0.59720 0.78090 0.06760 0.03500
O 	O 	0.50990 0.82620 0.91167 -0.32400
C 	C 	0.51210 0.27950 0.54060 0.29900
C 	C 	0.58740 0.30600 0.46329 -0.02400
H 	H 	0.61340 0.25220 0.41740 0.04600
O 	O 	0.41279 0.35474 0.56385 -0.48900
O 	O 	0.54915 0.19002 0.57887 -0.27600
O 	O 	0.52559 0.40664 0.42213 -0.44900
C 	C 	0.69540 0.30220 0.50540 -0.04200
H 	H 	0.74200 0.23040 0.52990 0.04600
C 	C 	0.76620 0.33310 0.42720 0.28200
O 	O 	0.66030 0.37639 0.57450 -0.43800
O 	O 	0.75044 0.42973 0.42273 -0.46500
O 	O 	0.83082 0.26669 0.37069 -0.25600
C 	C 	0.03170 0.26780 0.54230 0.29400
C 	C 	0.09940 0.30070 0.46367 -0.01300
H 	H 	0.13250 0.24470 0.41940 0.04200
O 	O 	0.92834 0.33753 0.56545 -0.47800
O 	O 	0.07769 0.18006 0.58288 -0.26600
O 	O 	0.02955 0.39627 0.42028 -0.44700
C 	C 	0.20000 0.31280 0.50436 -0.04800
H 	H 	0.25300 0.24430 0.53060 0.04400
C 	C 	0.26470 0.34860 0.42643 0.28200
O 	O 	0.15495 0.38923 0.57207 -0.43700
O 	O 	0.24056 0.44746 0.41982 -0.47200
O 	O 	0.33385 0.28339 0.37010 -0.26100
Cu	Cu	0.38380 0.48771 0.49256 0.90500
Cu	Cu	0.10985 0.52603 0.50706 0.90400
Li	Li	0.53070 0.42750 0.29280 0.54600
O 	O 	0.49689 0.58008 0.27958 -0.92300
H 	H 	0.45400 0.59900 0.32670 0.36600
H 	H 	0.56070 0.57700 0.29100 0.32600
Li	Li	0.46850 0.68130 0.17220 0.55100
Li	Li	0.03050 0.42270 0.29210 0.54500
O 	O 	0.99732 0.57528 0.27988 -0.90100
H 	H 	0.95700 0.59300 0.32910 0.35000
H 	H 	0.06230 0.57000 0.28900 0.32000
Li	Li	0.79350 0.33680 0.65080 0.54000
Li	Li	0.96900 0.67690 0.17230 0.55200
Li	Li	0.01090 0.03300 0.08030 0.60000
Li	Li	0.28650 0.34340 0.65180 0.54100
O 	O 	0.33850 0.05050 0.92900 -0.10700
O 	O 	0.40390 0.01440 0.99290 -0.31400
O 	O 	0.99680 0.99970 0.04430 -0.49100
Li	Li	0.50590 0.96600 0.91970 0.55700
Cu	Cu	0.11449 0.53241 0.00741 0.90800
O 	O 	0.02327 0.66146 0.93476 -0.37400
O 	O 	0.11370 0.63318 0.09025 -0.39500
O 	O 	0.27931 0.59392 0.93361 -0.34400
O 	O 	0.09813 0.43838 0.92539 -0.45000
O 	O 	0.22044 0.40488 0.06510 -0.34500
C 	C 	0.04320 0.73870 0.95450 0.32600
C 	C 	0.12140 0.71580 0.03226 -0.05600
Cu	Cu	0.38571 0.46648 0.99110 0.91600
C 	C 	0.24720 0.68210 0.98735 -0.04100
C 	C 	0.17020 0.34160 0.93730 0.31600
C 	C 	0.25240 0.31650 0.01163 -0.06900
O 	O 	0.00750 0.82575 0.91181 -0.30800
H 	H 	0.09770 0.77990 0.06650 0.06100
O 	O 	0.40179 0.56047 0.07331 -0.45200
O 	O 	0.38655 0.36587 0.90879 -0.39900
O 	O 	0.47629 0.33734 0.06432 -0.37000
H 	H 	0.25030 0.74140 0.94830 0.07300
C 	C 	0.33030 0.65660 0.06120 0.30700
O 	O 	0.17441 0.26865 0.89144 -0.34500
H 	H 	0.24940 0.25720 0.05070 0.07100
C 	C 	0.37840 0.28330 0.96660 -0.02400
C 	C 	0.45510 0.26070 0.04520 0.30100
O 	O 	0.32648 0.72950 0.10745 -0.35600
H 	H 	0.40280 0.21910 0.93240 0.03500
O 	O 	0.49010 0.17380 0.08833 -0.32400
C 	C 	0.48790 0.72050 0.45940 0.29900
C 	C 	0.41260 0.69400 0.53671 -0.02400
H 	H 	0.38660 0.74780 0.58260 0.04600
O 	O 	0.58721 0.64526 0.43615 -0.48900
O 	O 	0.45085 0.80998 0.42113 -0.27600
O 	O 	0.47441 0.59336 0.57787 -0.44900
C 	C 	0.30460 0.69780 0.49460 -0.04200
H 	H 	0.25800 0.76960 0.47010 0.04600
C 	C 	0.23380 0.66690 0.57280 0.28200
O 	O 	0.33970 0.62361 0.42550 -0.43800
O 	O 	0.24956 0.57027 0.57727 -0.46500
O 	O 	0.16918 0.73331 0.62931 -0.25600
C 	C 	0.96830 0.73220 0.45770 0.29400
C 	C 	0.90060 0.69930 0.53633 -0.01300
H 	H 	0.86750 0.75530 0.58060 0.04200
O 	O 	0.07166 0.66247 0.43455 -0.47800
O 	O 	0.92231 0.81994 0.41712 -0.26600
O 	O 	0.97045 0.60373 0.57972 -0.44700
C 	C 	0.80000 0.68720 0.49564 -0.04800
H 	H 	0.74700 0.75570 0.46940 0.04400
C 	C 	0.73530 0.65140 0.57357 0.28200
O 	O 	0.84505 0.61077 0.42793 -0.43700
O 	O 	0.75944 0.55254 0.58018 -0.47200
O 	O 	0.66615 0.71661 0.62990 -0.26100
Cu	Cu	0.61620 0.51229 0.50744 0.90500
Cu	Cu	0.89015 0.47397 0.49294 0.90400
Li	Li	0.46930 0.57250 0.70720 0.54600
O 	O 	0.50311 0.41992 0.72042 -0.92300
H 	H 	0.54600 0.40100 0.67330 0.36600
H 	H 	0.43930 0.42300 0.70900 0.32600
Li	Li	0.53150 0.31870 0.82780 0.55100
Li	Li	0.96950 0.57730 0.70790 0.54500
O 	O 	0.00268 0.42472 0.72012 -0.90100
H 	H 	0.04300 0.40700 0.67090 0.35000
H 	H 	0.93770 0.43000 0.71100 0.32000
Li	Li	0.20650 0.66320 0.34920 0.54000
Li	Li	0.03100 0.32310 0.82770 0.55200
Li	Li	0.98910 0.96700 0.91970 0.60000
Li	Li	0.71350 0.65660 0.34820 0.54100
O 	O 	0.66150 0.94950 0.07100 -0.10700
O 	O 	0.59610 0.98560 0.00710 -0.31400
O 	O 	0.00320 0.00030 0.95570 -0.49100
Li	Li	0.49410 0.03400 0.08030 0.55700
