data_crystal

_cell_length_a 13.60930
_cell_length_b 13.90770
_cell_length_c 15.98650
_cell_angle_alpha 115.78400
_cell_angle_beta  98.16410
_cell_angle_gamma 90.00000

_symmetry_space_group_name_	'P 1'
_symmetry_space_group_name_H-M	'P 1'

loop_
_symmetry_equiv_pos_as_xyz
  x,y,z

loop_
_atom_site_label
_atom_site_type_symbol
_atom_site_fract_x
_atom_site_fract_y
_atom_site_fract_z
_atom_site_charge
Dy	Dy	0.45891 0.89317 0.36784 1.70600
Dy	Dy	0.04109 0.52533 0.63216 1.70600
Dy	Dy	0.54109 0.10683 0.63216 1.70600
Dy	Dy	0.95891 0.47467 0.36784 1.70600
H 	H 	0.53540 0.97330 0.10780 0.02500
H 	H 	0.60590 0.93970 0.96960 0.08300
H 	H 	0.64760 0.64180 0.92920 0.07500
H 	H 	0.60410 0.68550 0.08360 0.02400
H 	H 	0.70270 0.68230 0.46220 0.03300
H 	H 	0.77430 0.68070 0.71380 0.07200
H 	H 	0.57480 0.87860 0.68500 0.06000
H 	H 	0.96460 0.86550 0.89220 0.02300
H 	H 	0.89410 0.97010 0.03040 0.08500
H 	H 	0.85240 0.71260 0.07080 0.07700
H 	H 	0.89590 0.60190 0.91640 0.02100
H 	H 	0.79730 0.22010 0.53780 0.03300
H 	H 	0.72570 0.96690 0.28620 0.07100
H 	H 	0.92520 0.19360 0.31500 0.05900
H 	H 	0.46460 0.02670 0.89220 0.02500
H 	H 	0.39410 0.06030 0.03040 0.08300
H 	H 	0.35240 0.35820 0.07080 0.07500
H 	H 	0.39590 0.31450 0.91640 0.02400
H 	H 	0.29730 0.31770 0.53780 0.03300
H 	H 	0.22570 0.31930 0.28620 0.07200
H 	H 	0.42520 0.12140 0.31500 0.06000
H 	H 	0.03540 0.13450 0.10780 0.02300
H 	H 	0.10590 0.02990 0.96960 0.08500
H 	H 	0.14760 0.28740 0.92920 0.07700
H 	H 	0.10410 0.39810 0.08360 0.02100
H 	H 	0.20270 0.77990 0.46220 0.03300
H 	H 	0.27430 0.03310 0.71380 0.07100
H 	H 	0.07480 0.80640 0.68500 0.05900
C 	C 	0.52350 0.84940 0.19300 0.34700
C 	C 	0.55950 0.83100 0.10580 -0.13300
C 	C 	0.56000 0.90720 0.07420 0.04900
C 	C 	0.59850 0.88600 0.98860 -0.12600
C 	C 	0.62390 0.78410 0.93660 0.07900
C 	C 	0.62700 0.70910 0.96580 -0.13200
C 	C 	0.59700 0.73450 0.05820 0.04400
C 	C 	0.65020 0.75210 0.84220 0.02400
C 	C 	0.56780 0.83000 0.50320 0.40200
C 	C 	0.62750 0.78590 0.56160 -0.11100
C 	C 	0.69500 0.70810 0.52500 0.03500
C 	C 	0.75010 0.66960 0.58180 -0.09400
C 	C 	0.73660 0.70650 0.67580 -0.06000
C 	C 	0.67040 0.77810 0.71160 0.08000
C 	C 	0.61650 0.82440 0.65820 -0.05600
C 	C 	0.82900 0.58950 0.54400 0.42800
C 	C 	0.97650 0.65640 0.80700 0.34900
C 	C 	0.94050 0.72520 0.89420 -0.13900
C 	C 	0.94000 0.83300 0.92580 0.05800
C 	C 	0.90150 0.89740 0.01140 -0.13600
C 	C 	0.87610 0.84750 0.06340 0.08500
C 	C 	0.87300 0.74330 0.03420 -0.14100
C 	C 	0.90300 0.67630 0.94180 0.05200
C 	C 	0.84980 0.90990 0.15780 0.02100
C 	C 	0.93220 0.32680 0.49680 0.40200
C 	C 	0.87250 0.22430 0.43840 -0.11100
C 	C 	0.80500 0.18310 0.47500 0.03600
C 	C 	0.74990 0.08780 0.41820 -0.09500
C 	C 	0.76340 0.03070 0.32420 -0.05700
C 	C 	0.82960 0.06650 0.28840 0.07900
C 	C 	0.88350 0.16620 0.34180 -0.05600
C 	C 	0.67100 0.04550 0.45600 0.42900
C 	C 	0.47650 0.15060 0.80700 0.34700
C 	C 	0.44050 0.16900 0.89420 -0.13300
C 	C 	0.44000 0.09280 0.92580 0.04900
C 	C 	0.40150 0.11400 0.01140 -0.12600
C 	C 	0.37610 0.21590 0.06340 0.07900
C 	C 	0.37300 0.29090 0.03420 -0.13200
C 	C 	0.40300 0.26550 0.94180 0.04400
C 	C 	0.34980 0.24790 0.15780 0.02400
C 	C 	0.43220 0.17000 0.49680 0.40200
C 	C 	0.37250 0.21410 0.43840 -0.11100
C 	C 	0.30500 0.29190 0.47500 0.03500
C 	C 	0.24990 0.33040 0.41820 -0.09400
C 	C 	0.26340 0.29350 0.32420 -0.06000
C 	C 	0.32960 0.22190 0.28840 0.08000
C 	C 	0.38350 0.17560 0.34180 -0.05600
C 	C 	0.17100 0.41050 0.45600 0.42800
C 	C 	0.02350 0.34360 0.19300 0.34900
C 	C 	0.05950 0.27480 0.10580 -0.13900
C 	C 	0.06000 0.16700 0.07420 0.05800
C 	C 	0.09850 0.10260 0.98860 -0.13600
C 	C 	0.12390 0.15250 0.93660 0.08500
C 	C 	0.12700 0.25670 0.96580 -0.14100
C 	C 	0.09700 0.32370 0.05820 0.05200
C 	C 	0.15020 0.09010 0.84220 0.02100
C 	C 	0.06780 0.67320 0.50320 0.40200
C 	C 	0.12750 0.77570 0.56160 -0.11100
C 	C 	0.19500 0.81690 0.52500 0.03600
C 	C 	0.25010 0.91220 0.58180 -0.09500
C 	C 	0.23660 0.96930 0.67580 -0.05700
C 	C 	0.17040 0.93350 0.71160 0.07900
C 	C 	0.11650 0.83380 0.65820 -0.05600
C 	C 	0.32900 0.95450 0.54400 0.42900
N 	N 	0.64920 0.81500 0.80440 -0.12500
N 	N 	0.85080 0.01060 0.19560 -0.12300
N 	N 	0.35080 0.18500 0.19560 -0.12500
N 	N 	0.14920 0.98940 0.80440 -0.12300
O 	O 	0.52060 0.78660 0.22440 -0.43900
O 	O 	0.49330 0.94770 0.24500 -0.38000
O 	O 	0.55200 0.77390 0.41580 -0.42900
O 	O 	0.54050 0.92470 0.54020 -0.54200
O 	O 	0.83840 0.56450 0.46060 -0.49300
O 	O 	0.87540 0.55740 0.60060 -0.44500
O 	O 	0.97940 0.56220 0.77560 -0.44000
O 	O 	0.00670 0.70270 0.75500 -0.38000
O 	O 	0.94800 0.35810 0.58420 -0.42900
O 	O 	0.95950 0.38450 0.45980 -0.54200
O 	O 	0.66160 0.10390 0.53940 -0.49300
O 	O 	0.62460 0.95680 0.39940 -0.44500
O 	O 	0.47940 0.21340 0.77560 -0.43900
O 	O 	0.50670 0.05230 0.75500 -0.38000
O 	O 	0.44800 0.22610 0.58420 -0.42900
O 	O 	0.45950 0.07530 0.45980 -0.54200
O 	O 	0.16160 0.43550 0.53940 -0.49300
O 	O 	0.12460 0.44260 0.39940 -0.44500
O 	O 	0.02060 0.43780 0.22440 -0.44000
O 	O 	0.99330 0.29730 0.24500 -0.38000
O 	O 	0.05200 0.64190 0.41580 -0.42900
O 	O 	0.04050 0.61550 0.54020 -0.54200
O 	O 	0.33840 0.89610 0.46060 -0.49300
O 	O 	0.37540 0.04320 0.60060 -0.44500
