data_crystal

_cell_length_a 28.74700
_cell_length_b 14.44780
_cell_length_c 13.32330
_cell_angle_alpha 90.00000
_cell_angle_beta  99.76000
_cell_angle_gamma 90.00000

_symmetry_space_group_name_	'P 1'
_symmetry_space_group_name_H-M	'P 1'

loop_
_symmetry_equiv_pos_as_xyz
  x,y,z

loop_
_atom_site_label
_atom_site_type_symbol
_atom_site_fract_x
_atom_site_fract_y
_atom_site_fract_z
_atom_site_charge
Gd	Gd	0.18286 0.71325 0.45891 1.60300
O 	O 	0.10910 0.68320 0.51500 -0.39200
O 	O 	0.12250 0.83160 0.49710 -0.35600
O 	O 	0.70610 0.07160 0.55320 -0.40000
O 	O 	0.76880 0.15410 0.54110 -0.48600
O 	O 	0.79860 0.76010 0.87020 -0.41500
O 	O 	0.72790 0.83020 0.83100 -0.43300
O 	O 	0.14000 0.77970 0.30660 -0.33200
N 	N 	0.90170 0.91900 0.64760 -0.12200
N 	N 	0.12050 0.87890 0.17480 -0.01100
C 	C 	0.09720 0.76670 0.52170 0.32600
C 	C 	0.05210 0.78800 0.55630 -0.12300
C 	C 	0.02260 0.71460 0.57710 0.05100
H 	H 	0.03170 0.65350 0.57010 0.02600
C 	C 	0.97970 0.73450 0.60820 -0.14500
H 	H 	0.96030 0.68620 0.62210 0.08100
C 	C 	0.96580 0.82210 0.61830 0.09200
C 	C 	0.99470 0.89520 0.59770 -0.14500
H 	H 	0.98550 0.95610 0.60580 0.07900
C 	C 	0.03680 0.87660 0.56520 0.05300
H 	H 	0.05520 0.92550 0.54910 0.01600
C 	C 	0.91880 0.83870 0.64700 -0.03200
H 	H 	0.90200 0.78800 0.67000 0.04400
C 	C 	0.75030 0.08190 0.57310 0.37200
C 	C 	0.78030 0.00810 0.62760 -0.09900
C 	C 	0.82730 0.99830 0.61530 -0.05600
H 	H 	0.84040 0.03940 0.57430 0.06500
C 	C 	0.85460 0.92570 0.66550 0.06300
C 	C 	0.83640 0.86980 0.73410 -0.05300
H 	H 	0.85550 0.82530 0.77120 0.06300
C 	C 	0.78940 0.88000 0.74760 -0.10500
C 	C 	0.76100 0.94730 0.69230 0.02400
H 	H 	0.72930 0.95200 0.69830 0.03900
C 	C 	0.77030 0.81940 0.81960 0.39200
C 	C 	0.15250 0.82060 0.24270 0.22700
C 	C 	0.07450 0.89040 0.19610 -0.44800
H 	H 	0.06960 0.84830 0.24900 0.17900
H 	H 	0.05200 0.87790 0.13580 0.16900
H 	H 	0.07070 0.95280 0.21790 0.17500
C 	C 	0.14130 0.92430 0.10640 -0.46800
H 	H 	0.17290 0.90150 0.10920 0.16900
H 	H 	0.14230 0.98920 0.12180 0.18500
H 	H 	0.12360 0.91450 0.03940 0.18400
O 	O 	0.15300 0.78800 0.30200 -0.06200
Gd	Gd	0.68286 0.21325 0.45891 1.60400
O 	O 	0.60910 0.18320 0.51500 -0.39100
O 	O 	0.62250 0.33160 0.49710 -0.35500
O 	O 	0.20610 0.57160 0.55320 -0.39900
O 	O 	0.26880 0.65410 0.54110 -0.48500
O 	O 	0.29860 0.26010 0.87020 -0.41300
O 	O 	0.22790 0.33020 0.83100 -0.43300
O 	O 	0.64000 0.27970 0.30660 -0.33200
N 	N 	0.40170 0.41900 0.64760 -0.12200
N 	N 	0.62050 0.37890 0.17480 -0.01100
C 	C 	0.59720 0.26670 0.52170 0.32600
C 	C 	0.55210 0.28800 0.55630 -0.12400
C 	C 	0.52260 0.21460 0.57710 0.05100
H 	H 	0.53170 0.15350 0.57010 0.02500
C 	C 	0.47970 0.23450 0.60820 -0.14500
H 	H 	0.46030 0.18620 0.62210 0.08100
C 	C 	0.46580 0.32210 0.61830 0.09200
C 	C 	0.49470 0.39520 0.59770 -0.14500
H 	H 	0.48550 0.45610 0.60580 0.08000
C 	C 	0.53680 0.37660 0.56520 0.05300
H 	H 	0.55520 0.42550 0.54910 0.01600
C 	C 	0.41880 0.33870 0.64700 -0.03200
H 	H 	0.40200 0.28800 0.67000 0.04400
C 	C 	0.25030 0.58190 0.57310 0.37200
C 	C 	0.28030 0.50810 0.62760 -0.10000
C 	C 	0.32730 0.49830 0.61530 -0.05400
H 	H 	0.34040 0.53940 0.57430 0.06400
C 	C 	0.35460 0.42570 0.66550 0.06300
C 	C 	0.33640 0.36980 0.73410 -0.05200
H 	H 	0.35550 0.32530 0.77120 0.06300
C 	C 	0.28940 0.38000 0.74760 -0.10500
C 	C 	0.26100 0.44730 0.69230 0.02600
H 	H 	0.22930 0.45200 0.69830 0.03900
C 	C 	0.27030 0.31940 0.81960 0.39200
C 	C 	0.65250 0.32060 0.24270 0.22700
C 	C 	0.57450 0.39040 0.19610 -0.44700
H 	H 	0.56960 0.34830 0.24900 0.17800
H 	H 	0.55200 0.37790 0.13580 0.16800
H 	H 	0.57070 0.45280 0.21790 0.17500
C 	C 	0.64130 0.42430 0.10640 -0.46600
H 	H 	0.67290 0.40150 0.10920 0.16800
H 	H 	0.64230 0.48920 0.12180 0.18400
H 	H 	0.62360 0.41450 0.03940 0.18300
O 	O 	0.65300 0.28800 0.30200 -0.06200
Gd	Gd	0.81714 0.71325 0.04109 1.60500
O 	O 	0.89090 0.68320 0.98500 -0.39100
O 	O 	0.87750 0.83160 0.00290 -0.35400
O 	O 	0.29390 0.07160 0.94680 -0.39800
O 	O 	0.23120 0.15410 0.95890 -0.48400
O 	O 	0.20140 0.76010 0.62980 -0.41300
O 	O 	0.27210 0.83020 0.66900 -0.43200
O 	O 	0.86000 0.77970 0.19340 -0.33200
N 	N 	0.09830 0.91900 0.85240 -0.12300
N 	N 	0.87950 0.87890 0.32520 -0.01100
C 	C 	0.90280 0.76670 0.97830 0.32500
C 	C 	0.94790 0.78800 0.94370 -0.12400
C 	C 	0.97740 0.71460 0.92290 0.05100
H 	H 	0.96830 0.65350 0.92990 0.02500
C 	C 	0.02030 0.73450 0.89180 -0.14500
H 	H 	0.03970 0.68620 0.87790 0.08100
C 	C 	0.03420 0.82210 0.88170 0.09200
C 	C 	0.00530 0.89520 0.90230 -0.14600
H 	H 	0.01450 0.95610 0.89420 0.07900
C 	C 	0.96320 0.87660 0.93480 0.05300
H 	H 	0.94480 0.92550 0.95090 0.01500
C 	C 	0.08120 0.83870 0.85300 -0.03200
H 	H 	0.09800 0.78800 0.83000 0.04400
C 	C 	0.24970 0.08190 0.92690 0.37100
C 	C 	0.21970 0.00810 0.87240 -0.09500
C 	C 	0.17270 0.99830 0.88470 -0.06100
H 	H 	0.15960 0.03940 0.92570 0.06700
C 	C 	0.14540 0.92570 0.83450 0.06500
C 	C 	0.16360 0.86980 0.76590 -0.05400
H 	H 	0.14450 0.82530 0.72880 0.06400
C 	C 	0.21060 0.88000 0.75240 -0.10300
C 	C 	0.23900 0.94730 0.80770 0.02200
H 	H 	0.27070 0.95200 0.80170 0.04000
C 	C 	0.22970 0.81940 0.68040 0.39200
C 	C 	0.84750 0.82060 0.25730 0.22700
C 	C 	0.92550 0.89040 0.30390 -0.44800
H 	H 	0.93040 0.84830 0.25100 0.17900
H 	H 	0.94800 0.87790 0.36420 0.16800
H 	H 	0.92930 0.95280 0.28210 0.17500
C 	C 	0.85870 0.92430 0.39360 -0.46600
H 	H 	0.82710 0.90150 0.39080 0.16800
H 	H 	0.85770 0.98920 0.37820 0.18400
H 	H 	0.87640 0.91450 0.46060 0.18300
O 	O 	0.84700 0.78800 0.19800 -0.06200
Gd	Gd	0.31714 0.21325 0.04109 1.60200
O 	O 	0.39090 0.18320 0.98500 -0.39000
O 	O 	0.37750 0.33160 0.00290 -0.35500
O 	O 	0.79390 0.57160 0.94680 -0.39900
O 	O 	0.73120 0.65410 0.95890 -0.48500
O 	O 	0.70140 0.26010 0.62980 -0.41300
O 	O 	0.77210 0.33020 0.66900 -0.43300
O 	O 	0.36000 0.27970 0.19340 -0.33200
N 	N 	0.59830 0.41900 0.85240 -0.12200
N 	N 	0.37950 0.37890 0.32520 -0.01100
C 	C 	0.40280 0.26670 0.97830 0.32700
C 	C 	0.44790 0.28800 0.94370 -0.12400
C 	C 	0.47740 0.21460 0.92290 0.05100
H 	H 	0.46830 0.15350 0.92990 0.02600
C 	C 	0.52030 0.23450 0.89180 -0.14500
H 	H 	0.53970 0.18620 0.87790 0.08100
C 	C 	0.53420 0.32210 0.88170 0.09200
C 	C 	0.50530 0.39520 0.90230 -0.14500
H 	H 	0.51450 0.45610 0.89420 0.08000
C 	C 	0.46320 0.37660 0.93480 0.05300
H 	H 	0.44480 0.42550 0.95090 0.01600
C 	C 	0.58120 0.33870 0.85300 -0.03200
H 	H 	0.59800 0.28800 0.83000 0.04400
C 	C 	0.74970 0.58190 0.92690 0.37200
C 	C 	0.71970 0.50810 0.87240 -0.10000
C 	C 	0.67270 0.49830 0.88470 -0.05400
H 	H 	0.65960 0.53940 0.92570 0.06400
C 	C 	0.64540 0.42570 0.83450 0.06300
C 	C 	0.66360 0.36980 0.76590 -0.05200
H 	H 	0.64450 0.32530 0.72880 0.06300
C 	C 	0.71060 0.38000 0.75240 -0.10500
C 	C 	0.73900 0.44730 0.80770 0.02600
H 	H 	0.77070 0.45200 0.80170 0.03900
C 	C 	0.72970 0.31940 0.68040 0.39200
C 	C 	0.34750 0.32060 0.25730 0.22700
C 	C 	0.42550 0.39040 0.30390 -0.44700
H 	H 	0.43040 0.34830 0.25100 0.17800
H 	H 	0.44800 0.37790 0.36420 0.16800
H 	H 	0.42930 0.45280 0.28210 0.17500
C 	C 	0.35870 0.42430 0.39360 -0.46600
H 	H 	0.32710 0.40150 0.39080 0.16800
H 	H 	0.35770 0.48920 0.37820 0.18400
H 	H 	0.37640 0.41450 0.46060 0.18300
O 	O 	0.34700 0.28800 0.19800 -0.06300
Gd	Gd	0.81714 0.28675 0.54109 1.60400
O 	O 	0.89090 0.31680 0.48500 -0.39100
O 	O 	0.87750 0.16840 0.50290 -0.35500
O 	O 	0.29390 0.92840 0.44680 -0.39900
O 	O 	0.23120 0.84590 0.45890 -0.48500
O 	O 	0.20140 0.23990 0.12980 -0.41400
O 	O 	0.27210 0.16980 0.16900 -0.43300
O 	O 	0.86000 0.22030 0.69340 -0.33200
N 	N 	0.09830 0.08100 0.35240 -0.12200
N 	N 	0.87950 0.12110 0.82520 -0.01100
C 	C 	0.90280 0.23330 0.47830 0.32600
C 	C 	0.94790 0.21200 0.44370 -0.12300
C 	C 	0.97740 0.28540 0.42290 0.05100
H 	H 	0.96830 0.34650 0.42990 0.02600
C 	C 	0.02030 0.26550 0.39180 -0.14500
H 	H 	0.03970 0.31380 0.37790 0.08100
C 	C 	0.03420 0.17790 0.38170 0.09200
C 	C 	0.00530 0.10480 0.40230 -0.14500
H 	H 	0.01450 0.04390 0.39420 0.07900
C 	C 	0.96320 0.12340 0.43480 0.05300
H 	H 	0.94480 0.07450 0.45090 0.01600
C 	C 	0.08120 0.16130 0.35300 -0.03200
H 	H 	0.09800 0.21200 0.33000 0.04400
C 	C 	0.24970 0.91810 0.42690 0.37200
C 	C 	0.21970 0.99190 0.37240 -0.09900
C 	C 	0.17270 0.00170 0.38470 -0.05600
H 	H 	0.15960 0.96060 0.42570 0.06500
C 	C 	0.14540 0.07430 0.33450 0.06300
C 	C 	0.16360 0.13020 0.26590 -0.05300
H 	H 	0.14450 0.17470 0.22880 0.06300
C 	C 	0.21060 0.12000 0.25240 -0.10500
C 	C 	0.23900 0.05270 0.30770 0.02400
H 	H 	0.27070 0.04800 0.30170 0.03900
C 	C 	0.22970 0.18060 0.18040 0.39200
C 	C 	0.84750 0.17940 0.75730 0.22700
C 	C 	0.92550 0.10960 0.80390 -0.44800
H 	H 	0.93040 0.15170 0.75100 0.17900
H 	H 	0.94800 0.12210 0.86420 0.16900
H 	H 	0.92930 0.04720 0.78210 0.17500
C 	C 	0.85870 0.07570 0.89360 -0.46800
H 	H 	0.82710 0.09850 0.89080 0.16900
H 	H 	0.85770 0.01080 0.87820 0.18500
H 	H 	0.87640 0.08550 0.96060 0.18400
O 	O 	0.84700 0.21200 0.69800 -0.06200
Gd	Gd	0.31714 0.78675 0.54109 1.60400
O 	O 	0.39090 0.81680 0.48500 -0.39100
O 	O 	0.37750 0.66840 0.50290 -0.35500
O 	O 	0.79390 0.42840 0.44680 -0.39900
O 	O 	0.73120 0.34590 0.45890 -0.48500
O 	O 	0.70140 0.73990 0.12980 -0.41300
O 	O 	0.77210 0.66980 0.16900 -0.43300
O 	O 	0.36000 0.72030 0.69340 -0.33200
N 	N 	0.59830 0.58100 0.35240 -0.12200
N 	N 	0.37950 0.62110 0.82520 -0.01100
C 	C 	0.40280 0.73330 0.47830 0.32600
C 	C 	0.44790 0.71200 0.44370 -0.12400
C 	C 	0.47740 0.78540 0.42290 0.05100
H 	H 	0.46830 0.84650 0.42990 0.02500
C 	C 	0.52030 0.76550 0.39180 -0.14500
H 	H 	0.53970 0.81380 0.37790 0.08100
C 	C 	0.53420 0.67790 0.38170 0.09200
C 	C 	0.50530 0.60480 0.40230 -0.14500
H 	H 	0.51450 0.54390 0.39420 0.08000
C 	C 	0.46320 0.62340 0.43480 0.05300
H 	H 	0.44480 0.57450 0.45090 0.01600
C 	C 	0.58120 0.66130 0.35300 -0.03200
H 	H 	0.59800 0.71200 0.33000 0.04400
C 	C 	0.74970 0.41810 0.42690 0.37200
C 	C 	0.71970 0.49190 0.37240 -0.10000
C 	C 	0.67270 0.50170 0.38470 -0.05400
H 	H 	0.65960 0.46060 0.42570 0.06400
C 	C 	0.64540 0.57430 0.33450 0.06300
C 	C 	0.66360 0.63020 0.26590 -0.05200
H 	H 	0.64450 0.67470 0.22880 0.06300
C 	C 	0.71060 0.62000 0.25240 -0.10500
C 	C 	0.73900 0.55270 0.30770 0.02600
H 	H 	0.77070 0.54800 0.30170 0.03900
C 	C 	0.72970 0.68060 0.18040 0.39200
C 	C 	0.34750 0.67940 0.75730 0.22700
C 	C 	0.42550 0.60960 0.80390 -0.44700
H 	H 	0.43040 0.65170 0.75100 0.17800
H 	H 	0.44800 0.62210 0.86420 0.16800
H 	H 	0.42930 0.54720 0.78210 0.17500
C 	C 	0.35870 0.57570 0.89360 -0.46600
H 	H 	0.32710 0.59850 0.89080 0.16800
H 	H 	0.35770 0.51080 0.87820 0.18400
H 	H 	0.37640 0.58550 0.96060 0.18300
O 	O 	0.34700 0.71200 0.69800 -0.06200
Gd	Gd	0.18286 0.28675 0.95891 1.60500
O 	O 	0.10910 0.31680 0.01500 -0.39100
O 	O 	0.12250 0.16840 0.99710 -0.35400
O 	O 	0.70610 0.92840 0.05320 -0.39800
O 	O 	0.76880 0.84590 0.04110 -0.48400
O 	O 	0.79860 0.23990 0.37020 -0.41300
O 	O 	0.72790 0.16980 0.33100 -0.43200
O 	O 	0.14000 0.22030 0.80660 -0.33200
N 	N 	0.90170 0.08100 0.14760 -0.12300
N 	N 	0.12050 0.12110 0.67480 -0.01100
C 	C 	0.09720 0.23330 0.02170 0.32500
C 	C 	0.05210 0.21200 0.05630 -0.12400
C 	C 	0.02260 0.28540 0.07710 0.05100
H 	H 	0.03170 0.34650 0.07010 0.02500
C 	C 	0.97970 0.26550 0.10820 -0.14500
H 	H 	0.96030 0.31380 0.12210 0.08100
C 	C 	0.96580 0.17790 0.11830 0.09200
C 	C 	0.99470 0.10480 0.09770 -0.14600
H 	H 	0.98550 0.04390 0.10580 0.07900
C 	C 	0.03680 0.12340 0.06520 0.05300
H 	H 	0.05520 0.07450 0.04910 0.01500
C 	C 	0.91880 0.16130 0.14700 -0.03200
H 	H 	0.90200 0.21200 0.17000 0.04400
C 	C 	0.75030 0.91810 0.07310 0.37100
C 	C 	0.78030 0.99190 0.12760 -0.09500
C 	C 	0.82730 0.00170 0.11530 -0.06100
H 	H 	0.84040 0.96060 0.07430 0.06700
C 	C 	0.85460 0.07430 0.16550 0.06500
C 	C 	0.83640 0.13020 0.23410 -0.05400
H 	H 	0.85550 0.17470 0.27120 0.06400
C 	C 	0.78940 0.12000 0.24760 -0.10300
C 	C 	0.76100 0.05270 0.19230 0.02200
H 	H 	0.72930 0.04800 0.19830 0.04000
C 	C 	0.77030 0.18060 0.31960 0.39200
C 	C 	0.15250 0.17940 0.74270 0.22700
C 	C 	0.07450 0.10960 0.69610 -0.44800
H 	H 	0.06960 0.15170 0.74900 0.17900
H 	H 	0.05200 0.12210 0.63580 0.16800
H 	H 	0.07070 0.04720 0.71790 0.17500
C 	C 	0.14130 0.07570 0.60640 -0.46600
H 	H 	0.17290 0.09850 0.60920 0.16800
H 	H 	0.14230 0.01080 0.62180 0.18400
H 	H 	0.12360 0.08550 0.53940 0.18300
O 	O 	0.15300 0.21200 0.80200 -0.06200
Gd	Gd	0.68286 0.78675 0.95891 1.60200
O 	O 	0.60910 0.81680 0.01500 -0.39000
O 	O 	0.62250 0.66840 0.99710 -0.35500
O 	O 	0.20610 0.42840 0.05320 -0.39900
O 	O 	0.26880 0.34590 0.04110 -0.48500
O 	O 	0.29860 0.73990 0.37020 -0.41300
O 	O 	0.22790 0.66980 0.33100 -0.43300
O 	O 	0.64000 0.72030 0.80660 -0.33200
N 	N 	0.40170 0.58100 0.14760 -0.12200
N 	N 	0.62050 0.62110 0.67480 -0.01100
C 	C 	0.59720 0.73330 0.02170 0.32700
C 	C 	0.55210 0.71200 0.05630 -0.12400
C 	C 	0.52260 0.78540 0.07710 0.05100
H 	H 	0.53170 0.84650 0.07010 0.02600
C 	C 	0.47970 0.76550 0.10820 -0.14500
H 	H 	0.46030 0.81380 0.12210 0.08100
C 	C 	0.46580 0.67790 0.11830 0.09200
C 	C 	0.49470 0.60480 0.09770 -0.14500
H 	H 	0.48550 0.54390 0.10580 0.08000
C 	C 	0.53680 0.62340 0.06520 0.05300
H 	H 	0.55520 0.57450 0.04910 0.01600
C 	C 	0.41880 0.66130 0.14700 -0.03200
H 	H 	0.40200 0.71200 0.17000 0.04400
C 	C 	0.25030 0.41810 0.07310 0.37200
C 	C 	0.28030 0.49190 0.12760 -0.10000
C 	C 	0.32730 0.50170 0.11530 -0.05400
H 	H 	0.34040 0.46060 0.07430 0.06400
C 	C 	0.35460 0.57430 0.16550 0.06300
C 	C 	0.33640 0.63020 0.23410 -0.05200
H 	H 	0.35550 0.67470 0.27120 0.06300
C 	C 	0.28940 0.62000 0.24760 -0.10500
C 	C 	0.26100 0.55270 0.19230 0.02600
H 	H 	0.22930 0.54800 0.19830 0.03900
C 	C 	0.27030 0.68060 0.31960 0.39200
C 	C 	0.65250 0.67940 0.74270 0.22700
C 	C 	0.57450 0.60960 0.69610 -0.44700
H 	H 	0.56960 0.65170 0.74900 0.17800
H 	H 	0.55200 0.62210 0.63580 0.16800
H 	H 	0.57070 0.54720 0.71790 0.17500
C 	C 	0.64130 0.57570 0.60640 -0.46600
H 	H 	0.67290 0.59850 0.60920 0.16800
H 	H 	0.64230 0.51080 0.62180 0.18400
H 	H 	0.62360 0.58550 0.53940 0.18300
O 	O 	0.65300 0.71200 0.80200 -0.06300
