data_crystal

_cell_length_a 12.69900
_cell_length_b 14.26020
_cell_length_c 15.94620
_cell_angle_alpha 96.89680
_cell_angle_beta  113.46500
_cell_angle_gamma 90.00000

_symmetry_space_group_name_	'P 1'
_symmetry_space_group_name_H-M	'P 1'

loop_
_symmetry_equiv_pos_as_xyz
  x,y,z

loop_
_atom_site_label
_atom_site_type_symbol
_atom_site_fract_x
_atom_site_fract_y
_atom_site_fract_z
_atom_site_charge
Eu	Eu	0.38488 0.45756 0.37104 1.82200
Eu	Eu	0.01384 0.04244 0.62896 1.79300
Eu	Eu	0.61512 0.54244 0.62896 1.82200
Eu	Eu	0.98616 0.95756 0.37104 1.79300
H 	H 	0.15130 0.59330 0.08360 0.02100
H 	H 	0.11070 0.64230 0.94240 0.07000
H 	H 	0.43230 0.59850 0.97060 0.08100
H 	H 	0.47030 0.54290 0.10880 0.02500
H 	H 	0.15700 0.66400 0.82400 0.03200
H 	H 	0.36770 0.57260 0.68620 0.04500
H 	H 	0.16090 0.77480 0.71800 0.05900
H 	H 	0.16870 0.69890 0.46920 0.01900
H 	H 	0.06770 0.90670 0.91640 0.01900
H 	H 	0.16830 0.85770 0.05760 0.07400
H 	H 	0.46170 0.90150 0.02940 0.08300
H 	H 	0.36150 0.95710 0.89120 0.02200
H 	H 	0.33300 0.83600 0.17600 0.03300
H 	H 	0.68150 0.92740 0.31380 0.04300
H 	H 	0.44290 0.72520 0.28200 0.05800
H 	H 	0.69950 0.80110 0.53080 0.01700
H 	H 	0.84870 0.40670 0.91640 0.02100
H 	H 	0.88930 0.35770 0.05760 0.07000
H 	H 	0.56770 0.40150 0.02940 0.08100
H 	H 	0.52970 0.45710 0.89120 0.02500
H 	H 	0.84300 0.33600 0.17600 0.03200
H 	H 	0.63230 0.42740 0.31380 0.04500
H 	H 	0.83910 0.22520 0.28200 0.05900
H 	H 	0.83130 0.30110 0.53080 0.01900
H 	H 	0.93230 0.09330 0.08360 0.01900
H 	H 	0.83170 0.14230 0.94240 0.07400
H 	H 	0.53830 0.09850 0.97060 0.08300
H 	H 	0.63850 0.04290 0.10880 0.02200
H 	H 	0.66700 0.16400 0.82400 0.03300
H 	H 	0.31850 0.07260 0.68620 0.04300
H 	H 	0.55710 0.27480 0.71800 0.05800
H 	H 	0.30050 0.19890 0.46920 0.01700
C 	C 	0.34430 0.52390 0.20020 0.32500
C 	C 	0.31700 0.56480 0.11100 -0.11400
C 	C 	0.20790 0.59390 0.06060 0.04500
C 	C 	0.18410 0.62350 0.97620 -0.13400
C 	C 	0.26570 0.62610 0.94080 0.07500
C 	C 	0.37490 0.59660 0.99280 -0.12600
C 	C 	0.39820 0.56470 0.07620 0.04500
C 	C 	0.23620 0.65400 0.84720 -0.00700
C 	C 	0.31590 0.56490 0.50780 0.40800
C 	C 	0.27440 0.62510 0.56840 -0.13800
C 	C 	0.31220 0.61550 0.66120 -0.03300
C 	C 	0.26850 0.66890 0.71720 0.05400
C 	C 	0.19100 0.73830 0.68140 -0.02900
C 	C 	0.15940 0.75150 0.58840 -0.13100
C 	C 	0.19590 0.69320 0.53160 0.06200
C 	C 	0.07990 0.82790 0.54880 0.45600
C 	C 	0.14410 0.97610 0.79980 0.32700
C 	C 	0.20600 0.93520 0.88900 -0.12000
C 	C 	0.14730 0.90610 0.93940 0.05600
C 	C 	0.20790 0.87650 0.02380 -0.14500
C 	C 	0.32490 0.87390 0.05920 0.08300
C 	C 	0.38210 0.90340 0.00720 -0.13900
C 	C 	0.32200 0.93530 0.92380 0.05900
C 	C 	0.38900 0.84600 0.15280 -0.01100
C 	C 	0.80810 0.93510 0.49220 0.40700
C 	C 	0.70600 0.87490 0.43160 -0.14000
C 	C 	0.65100 0.88450 0.33880 -0.03100
C 	C 	0.55130 0.83110 0.28280 0.05200
C 	C 	0.50960 0.76170 0.31860 -0.02700
C 	C 	0.57100 0.74850 0.41160 -0.13400
C 	C 	0.66430 0.80680 0.46840 0.06400
C 	C 	0.53110 0.67210 0.45120 0.45900
C 	C 	0.65570 0.47610 0.79980 0.32500
C 	C 	0.68300 0.43520 0.88900 -0.11400
C 	C 	0.79210 0.40610 0.93940 0.04500
C 	C 	0.81590 0.37650 0.02380 -0.13400
C 	C 	0.73430 0.37390 0.05920 0.07500
C 	C 	0.62510 0.40340 0.00720 -0.12600
C 	C 	0.60180 0.43530 0.92380 0.04500
C 	C 	0.76380 0.34600 0.15280 -0.00700
C 	C 	0.68410 0.43510 0.49220 0.40800
C 	C 	0.72560 0.37490 0.43160 -0.13800
C 	C 	0.68780 0.38450 0.33880 -0.03300
C 	C 	0.73150 0.33110 0.28280 0.05400
C 	C 	0.80900 0.26170 0.31860 -0.02900
C 	C 	0.84060 0.24850 0.41160 -0.13100
C 	C 	0.80410 0.30680 0.46840 0.06200
C 	C 	0.92010 0.17210 0.45120 0.45600
C 	C 	0.85590 0.02390 0.20020 0.32700
C 	C 	0.79400 0.06480 0.11100 -0.12000
C 	C 	0.85270 0.09390 0.06060 0.05600
C 	C 	0.79210 0.12350 0.97620 -0.14500
C 	C 	0.67510 0.12610 0.94080 0.08300
C 	C 	0.61790 0.09660 0.99280 -0.13900
C 	C 	0.67800 0.06470 0.07620 0.05900
C 	C 	0.61100 0.15400 0.84720 -0.01100
C 	C 	0.19190 0.06490 0.50780 0.40700
C 	C 	0.29400 0.12510 0.56840 -0.14000
C 	C 	0.34900 0.11550 0.66120 -0.03100
C 	C 	0.44870 0.16890 0.71720 0.05200
C 	C 	0.49040 0.23830 0.68140 -0.02700
C 	C 	0.42900 0.25150 0.58840 -0.13400
C 	C 	0.33570 0.19320 0.53160 0.06400
C 	C 	0.46890 0.32790 0.54880 0.45900
N 	N 	0.30370 0.65010 0.80940 -0.11700
N 	N 	0.49430 0.84990 0.19060 -0.11600
N 	N 	0.69630 0.34990 0.19060 -0.11700
N 	N 	0.50570 0.15010 0.80940 -0.11600
O 	O 	0.26280 0.52000 0.22840 -0.41900
O 	O 	0.44140 0.50040 0.24660 -0.41600
O 	O 	0.41420 0.52900 0.54040 -0.55800
O 	O 	0.25330 0.54490 0.42400 -0.44600
O 	O 	0.05610 0.83790 0.46720 -0.51600
O 	O 	0.04410 0.87690 0.60280 -0.44400
O 	O 	0.03440 0.98000 0.77160 -0.41100
O 	O 	0.19480 0.99960 0.75340 -0.41000
O 	O 	0.87380 0.97100 0.45960 -0.55700
O 	O 	0.82930 0.95510 0.57600 -0.44600
O 	O 	0.58890 0.66210 0.53280 -0.52500
O 	O 	0.44130 0.62310 0.39720 -0.45300
O 	O 	0.73720 0.48000 0.77160 -0.41900
O 	O 	0.55860 0.49960 0.75340 -0.41600
O 	O 	0.58580 0.47100 0.45960 -0.55800
O 	O 	0.74670 0.45510 0.57600 -0.44600
O 	O 	0.94390 0.16210 0.53280 -0.51600
O 	O 	0.95590 0.12310 0.39720 -0.44400
O 	O 	0.96560 0.02000 0.22840 -0.41100
O 	O 	0.80520 0.00040 0.24660 -0.41000
O 	O 	0.12620 0.02900 0.54040 -0.55700
O 	O 	0.17070 0.04490 0.42400 -0.44600
O 	O 	0.41110 0.33790 0.46720 -0.52500
O 	O 	0.55870 0.37690 0.60280 -0.45300
