data_crystal

_cell_length_a 13.50970
_cell_length_b 14.56850
_cell_length_c 16.24870
_cell_angle_alpha 116.63400
_cell_angle_beta  99.03570
_cell_angle_gamma 90.00000

_symmetry_space_group_name_	'P 1'
_symmetry_space_group_name_H-M	'P 1'

loop_
_symmetry_equiv_pos_as_xyz
  x,y,z

loop_
_atom_site_label
_atom_site_type_symbol
_atom_site_fract_x
_atom_site_fract_y
_atom_site_fract_z
_atom_site_charge
Ce	Ce	0.95721 0.89535 0.36264 2.09700
Ce	Ce	0.54279 0.53271 0.63736 2.10100
Ce	Ce	0.04279 0.10465 0.63736 2.09800
Ce	Ce	0.45721 0.46729 0.36264 2.10200
H 	H 	0.06810 0.68420 0.05860 0.02000
H 	H 	0.11740 0.64260 0.91640 0.06800
H 	H 	0.10920 0.93860 0.96700 0.08100
H 	H 	0.05550 0.97750 0.10940 0.03200
H 	H 	0.26840 0.67730 0.70760 0.06300
H 	H 	0.07590 0.87750 0.67860 0.05000
H 	H 	0.19580 0.67990 0.45880 0.02900
H 	H 	0.15100 0.68200 0.81600 0.02700
H 	H 	0.43190 0.62560 0.94140 0.02200
H 	H 	0.38260 0.72620 0.08360 0.06600
H 	H 	0.39080 0.97160 0.03300 0.07800
H 	H 	0.44450 0.86810 0.89060 0.03200
H 	H 	0.23160 0.96970 0.29240 0.07100
H 	H 	0.42410 0.19890 0.32140 0.04900
H 	H 	0.30420 0.22110 0.54120 0.02900
H 	H 	0.34900 0.86600 0.18400 0.02700
H 	H 	0.93190 0.31580 0.94140 0.02000
H 	H 	0.88260 0.35740 0.08360 0.06800
H 	H 	0.89080 0.06140 0.03300 0.08100
H 	H 	0.94450 0.02250 0.89060 0.03200
H 	H 	0.73160 0.32270 0.29240 0.06300
H 	H 	0.92410 0.12250 0.32140 0.05000
H 	H 	0.80420 0.32010 0.54120 0.02900
H 	H 	0.84900 0.31800 0.18400 0.02700
H 	H 	0.56810 0.37440 0.05860 0.02200
H 	H 	0.61740 0.27380 0.91640 0.06600
H 	H 	0.60920 0.02840 0.96700 0.07800
H 	H 	0.55550 0.13190 0.10940 0.03200
H 	H 	0.76840 0.03030 0.70760 0.07100
H 	H 	0.57590 0.80110 0.67860 0.04900
H 	H 	0.69580 0.77890 0.45880 0.02900
H 	H 	0.65100 0.13400 0.81600 0.02700
C 	C 	0.01920 0.86090 0.18800 0.34400
C 	C 	0.05410 0.83450 0.09660 -0.12000
C 	C 	0.07460 0.73520 0.03980 0.04800
C 	C 	0.10490 0.71010 0.95440 -0.13600
C 	C 	0.11640 0.78470 0.92660 0.07200
C 	C 	0.09960 0.88710 0.98460 -0.12200
C 	C 	0.06750 0.91010 0.07040 0.04300
C 	C 	0.14560 0.75680 0.83440 -0.00300
C 	C 	0.31660 0.58780 0.53900 0.40600
C 	C 	0.24460 0.66730 0.57720 -0.10900
C 	C 	0.23280 0.70380 0.67040 -0.04400
C 	C 	0.16730 0.78040 0.70740 0.06700
C 	C 	0.11630 0.82380 0.65260 -0.05500
C 	C 	0.12700 0.78580 0.55940 -0.10900
C 	C 	0.19020 0.70650 0.52160 0.03700
C 	C 	0.07100 0.82760 0.49840 0.36700
C 	C 	0.48080 0.67290 0.81200 0.32700
C 	C 	0.44590 0.73790 0.90340 -0.11300
C 	C 	0.42540 0.69540 0.96020 0.03900
C 	C 	0.39510 0.75570 0.04560 -0.12900
C 	C 	0.38360 0.85810 0.07340 0.06600
C 	C 	0.40040 0.90250 0.01540 -0.11700
C 	C 	0.43250 0.83970 0.92960 0.03700
C 	C 	0.35440 0.92240 0.16560 0.00000
C 	C 	0.18340 0.04880 0.46100 0.39500
C 	C 	0.25540 0.09010 0.42280 -0.10200
C 	C 	0.26720 0.03340 0.32960 -0.05700
C 	C 	0.33270 0.07300 0.29260 0.07000
C 	C 	0.38370 0.17120 0.34740 -0.05700
C 	C 	0.37300 0.22640 0.44060 -0.10800
C 	C 	0.30980 0.18490 0.47840 0.03300
C 	C 	0.42900 0.32920 0.50160 0.36700
C 	C 	0.98080 0.13910 0.81200 0.34400
C 	C 	0.94590 0.16550 0.90340 -0.12000
C 	C 	0.92540 0.26480 0.96020 0.04800
C 	C 	0.89510 0.28990 0.04560 -0.13600
C 	C 	0.88360 0.21530 0.07340 0.07200
C 	C 	0.90040 0.11290 0.01540 -0.12200
C 	C 	0.93250 0.08990 0.92960 0.04300
C 	C 	0.85440 0.24320 0.16560 -0.00300
C 	C 	0.68340 0.41220 0.46100 0.40600
C 	C 	0.75540 0.33270 0.42280 -0.10900
C 	C 	0.76720 0.29620 0.32960 -0.04400
C 	C 	0.83270 0.21960 0.29260 0.06700
C 	C 	0.88370 0.17620 0.34740 -0.05500
C 	C 	0.87300 0.21420 0.44060 -0.10900
C 	C 	0.80980 0.29350 0.47840 0.03700
C 	C 	0.92900 0.17240 0.50160 0.36700
C 	C 	0.51920 0.32710 0.18800 0.32700
C 	C 	0.55410 0.26210 0.09660 -0.11300
C 	C 	0.57460 0.30460 0.03980 0.03900
C 	C 	0.60490 0.24430 0.95440 -0.12900
C 	C 	0.61640 0.14190 0.92660 0.06600
C 	C 	0.59960 0.09750 0.98460 -0.11700
C 	C 	0.56750 0.16030 0.07040 0.03700
C 	C 	0.64560 0.07760 0.83440 0.00000
C 	C 	0.81660 0.95120 0.53900 0.39500
C 	C 	0.74460 0.90990 0.57720 -0.10200
C 	C 	0.73280 0.96660 0.67040 -0.05700
C 	C 	0.66730 0.92700 0.70740 0.07000
C 	C 	0.61630 0.82880 0.65260 -0.05700
C 	C 	0.62700 0.77360 0.55940 -0.10800
C 	C 	0.69020 0.81510 0.52160 0.03300
C 	C 	0.57100 0.67080 0.49840 0.36700
N 	N 	0.15010 0.81930 0.80160 -0.11700
N 	N 	0.34990 0.01770 0.19840 -0.12100
N 	N 	0.84990 0.18070 0.19840 -0.11700
N 	N 	0.65010 0.98230 0.80160 -0.12100
O 	O 	0.99820 0.94963 0.23746 -0.45600
O 	O 	0.01220 0.78867 0.20974 -0.47900
O 	O 	0.32560 0.55370 0.45420 -0.53700
O 	O 	0.36550 0.55798 0.59496 -0.49000
O 	O 	0.05470 0.77368 0.41116 -0.46500
O 	O 	0.03720 0.91687 0.53674 -0.60300
O 	O 	0.50180 0.71217 0.76254 -0.44000
O 	O 	0.48780 0.57893 0.79026 -0.47800
O 	O 	0.17440 0.09950 0.54580 -0.53700
O 	O 	0.13450 0.96302 0.40504 -0.48200
O 	O 	0.44530 0.36252 0.58884 -0.46700
O 	O 	0.46280 0.38013 0.46326 -0.60800
O 	O 	0.00180 0.05037 0.76254 -0.45600
O 	O 	0.98780 0.21133 0.79026 -0.47900
O 	O 	0.67440 0.44630 0.54580 -0.53700
O 	O 	0.63450 0.44202 0.40504 -0.49000
O 	O 	0.94530 0.22632 0.58884 -0.46500
O 	O 	0.96280 0.08313 0.46326 -0.60300
O 	O 	0.49820 0.28783 0.23746 -0.44000
O 	O 	0.51220 0.42107 0.20974 -0.47800
O 	O 	0.82560 0.90050 0.45420 -0.53700
O 	O 	0.86550 0.03698 0.59496 -0.48200
O 	O 	0.55470 0.63748 0.41116 -0.46700
O 	O 	0.53720 0.61987 0.53674 -0.60800
