data_crystal

_cell_length_a 13.63470
_cell_length_b 14.31450
_cell_length_c 16.11510
_cell_angle_alpha 116.36800
_cell_angle_beta  98.63250
_cell_angle_gamma 90.00000

_symmetry_space_group_name_	'P 1'
_symmetry_space_group_name_H-M	'P 1'

loop_
_symmetry_equiv_pos_as_xyz
  x,y,z

loop_
_atom_site_label
_atom_site_type_symbol
_atom_site_fract_x
_atom_site_fract_y
_atom_site_fract_z
_atom_site_charge
Pr	Pr	0.04320 0.03095 0.63654 2.03300
Pr	Pr	0.45680 0.39441 0.36346 2.03600
Pr	Pr	0.95680 0.96905 0.36346 2.03300
Pr	Pr	0.54320 0.60559 0.63654 2.03600
H 	H 	0.92050 0.11970 0.93740 0.01300
H 	H 	0.88660 0.22350 0.08460 0.07900
H 	H 	0.89890 0.47190 0.03340 0.08800
H 	H 	0.94760 0.36670 0.88940 0.02000
H 	H 	0.88200 0.38600 0.20000 0.03600
H 	H 	0.79970 0.72170 0.54040 0.03000
H 	H 	0.72420 0.47170 0.28780 0.06600
H 	H 	0.91980 0.69900 0.31920 0.04800
H 	H 	0.57950 0.18230 0.06260 0.01400
H 	H 	0.61340 0.13890 0.91540 0.07700
H 	H 	0.60110 0.43850 0.96660 0.08700
H 	H 	0.55240 0.47730 0.11060 0.02100
H 	H 	0.61800 0.18600 0.80000 0.03500
H 	H 	0.70030 0.18130 0.45960 0.03100
H 	H 	0.77580 0.18390 0.71220 0.06600
H 	H 	0.58020 0.37980 0.68080 0.04900
H 	H 	0.07950 0.88030 0.06260 0.01300
H 	H 	0.11340 0.77650 0.91540 0.07900
H 	H 	0.10110 0.52810 0.96660 0.08800
H 	H 	0.05240 0.63330 0.11060 0.02000
H 	H 	0.11800 0.61400 0.80000 0.03600
H 	H 	0.20030 0.27830 0.45960 0.03000
H 	H 	0.27580 0.52830 0.71220 0.06600
H 	H 	0.08020 0.30100 0.68080 0.04800
H 	H 	0.42050 0.81770 0.93740 0.01400
H 	H 	0.38660 0.86110 0.08460 0.07700
H 	H 	0.39890 0.56150 0.03340 0.08700
H 	H 	0.44760 0.52270 0.88940 0.02100
H 	H 	0.38200 0.81400 0.20000 0.03500
H 	H 	0.29970 0.81870 0.54040 0.03100
H 	H 	0.22420 0.81610 0.28780 0.06600
H 	H 	0.41980 0.62020 0.31920 0.04900
C 	C 	0.97860 0.16740 0.81000 0.36700
C 	C 	0.94290 0.23370 0.89980 -0.14700
C 	C 	0.91920 0.19140 0.95780 0.07400
C 	C 	0.89410 0.25200 0.04400 -0.15900
C 	C 	0.88020 0.35660 0.06980 0.09400
C 	C 	0.90330 0.40060 0.01420 -0.14900
C 	C 	0.93370 0.33720 0.92780 0.07200
C 	C 	0.85540 0.42050 0.16340 -0.01600
C 	C 	0.93000 0.82970 0.50200 0.37800
C 	C 	0.87200 0.72490 0.43980 -0.10600
C 	C 	0.80680 0.68460 0.47760 0.03700
C 	C 	0.75270 0.58900 0.42100 -0.11000
C 	C 	0.76310 0.53360 0.32680 -0.04400
C 	C 	0.83280 0.57210 0.29160 0.06700
C 	C 	0.88100 0.66980 0.34580 -0.05700
C 	C 	0.67850 0.55030 0.45780 0.40400
C 	C 	0.52140 0.35740 0.19000 0.35800
C 	C 	0.55710 0.33390 0.10020 -0.14200
C 	C 	0.58080 0.23360 0.04220 0.07000
C 	C 	0.60590 0.20800 0.95600 -0.15600
C 	C 	0.61980 0.28680 0.93020 0.09100
C 	C 	0.59670 0.38640 0.98580 -0.14400
C 	C 	0.56630 0.40940 0.07220 0.06500
C 	C 	0.64460 0.25710 0.83660 -0.01400
C 	C 	0.57000 0.32770 0.49800 0.37700
C 	C 	0.62800 0.28510 0.56020 -0.10500
C 	C 	0.69320 0.20700 0.52240 0.03700
C 	C 	0.74730 0.16800 0.57900 -0.10800
C 	C 	0.73690 0.20680 0.67320 -0.04400
C 	C 	0.66720 0.28050 0.70840 0.06800
C 	C 	0.61900 0.32400 0.65420 -0.05800
C 	C 	0.82150 0.09250 0.54220 0.40300
C 	C 	0.02140 0.83260 0.19000 0.36700
C 	C 	0.05710 0.76630 0.10020 -0.14700
C 	C 	0.08080 0.80860 0.04220 0.07400
C 	C 	0.10590 0.74800 0.95600 -0.15900
C 	C 	0.11980 0.64340 0.93020 0.09400
C 	C 	0.09670 0.59940 0.98580 -0.14900
C 	C 	0.06630 0.66280 0.07220 0.07200
C 	C 	0.14460 0.57950 0.83660 -0.01600
C 	C 	0.07000 0.17030 0.49800 0.37800
C 	C 	0.12800 0.27510 0.56020 -0.10600
C 	C 	0.19320 0.31540 0.52240 0.03700
C 	C 	0.24730 0.41100 0.57900 -0.11000
C 	C 	0.23690 0.46640 0.67320 -0.04400
C 	C 	0.16720 0.42790 0.70840 0.06700
C 	C 	0.11900 0.33020 0.65420 -0.05700
C 	C 	0.32150 0.44970 0.54220 0.40400
C 	C 	0.47860 0.64260 0.81000 0.35800
C 	C 	0.44290 0.66610 0.89980 -0.14200
C 	C 	0.41920 0.76640 0.95780 0.07000
C 	C 	0.39410 0.79200 0.04400 -0.15600
C 	C 	0.38020 0.71320 0.06980 0.09100
C 	C 	0.40330 0.61360 0.01420 -0.14400
C 	C 	0.43370 0.59060 0.92780 0.06500
C 	C 	0.35540 0.74290 0.16340 -0.01400
C 	C 	0.43000 0.67230 0.50200 0.37700
C 	C 	0.37200 0.71490 0.43980 -0.10500
C 	C 	0.30680 0.79300 0.47760 0.03700
C 	C 	0.25270 0.83200 0.42100 -0.10800
C 	C 	0.26310 0.79320 0.32680 -0.04400
C 	C 	0.33280 0.71950 0.29160 0.06800
C 	C 	0.38100 0.67600 0.34580 -0.05800
C 	C 	0.17850 0.90750 0.45780 0.40300
N 	N 	0.85070 0.51560 0.19700 -0.11600
N 	N 	0.64930 0.31860 0.80300 -0.11600
N 	N 	0.14930 0.48440 0.80300 -0.11600
N 	N 	0.35070 0.68140 0.19700 -0.11600
O 	O 	0.00590 0.20870 0.76220 -0.45600
O 	O 	0.98230 0.07370 0.78660 -0.47700
O 	O 	0.96140 0.88302 0.46464 -0.61000
O 	O 	0.94630 0.86060 0.58880 -0.46400
O 	O 	0.66900 0.60310 0.54300 -0.52800
O 	O 	0.62990 0.46300 0.40200 -0.47600
O 	O 	0.49410 0.44650 0.23780 -0.44700
O 	O 	0.51770 0.28710 0.21340 -0.47800
O 	O 	0.53860 0.41838 0.53536 -0.60700
O 	O 	0.55370 0.27180 0.41120 -0.46100
O 	O 	0.83100 0.06010 0.45700 -0.52400
O 	O 	0.87010 0.06100 0.59800 -0.47200
O 	O 	0.99410 0.79130 0.23780 -0.45600
O 	O 	0.01770 0.92630 0.21340 -0.47700
O 	O 	0.03860 0.11698 0.53536 -0.61000
O 	O 	0.05370 0.13940 0.41120 -0.46400
O 	O 	0.33100 0.39690 0.45700 -0.52800
O 	O 	0.37010 0.53700 0.59800 -0.47600
O 	O 	0.50590 0.55350 0.76220 -0.44700
O 	O 	0.48230 0.71290 0.78660 -0.47800
O 	O 	0.46140 0.58162 0.46464 -0.60700
O 	O 	0.44630 0.72820 0.58880 -0.46100
O 	O 	0.16900 0.93990 0.54300 -0.52400
O 	O 	0.12990 0.93900 0.40200 -0.47200
