data_crystal

_cell_length_a 33.65700
_cell_length_b 14.29090
_cell_length_c 12.83040
_cell_angle_alpha 90.00000
_cell_angle_beta  124.03700
_cell_angle_gamma 90.00000

_symmetry_space_group_name_	'P 1'
_symmetry_space_group_name_H-M	'P 1'

loop_
_symmetry_equiv_pos_as_xyz
  x,y,z

loop_
_atom_site_label
_atom_site_type_symbol
_atom_site_fract_x
_atom_site_fract_y
_atom_site_fract_z
_atom_site_charge
Ce	Ce	0.82007 0.28812 0.07760 2.15200
O 	O 	0.39482 0.83100 0.29030 -0.45400
O 	O 	0.38564 0.68170 0.24100 -0.42800
O 	O 	0.73112 0.35130 0.99500 -0.59500
O 	O 	0.79363 0.43880 0.12270 -0.47500
O 	O 	0.77065 0.68690 0.35150 -0.52100
O 	O 	0.69836 0.75090 0.26700 -0.48500
O 	O 	0.85080 0.19110 0.96950 -0.49000
C 	C 	0.40797 0.74840 0.31870 0.32200
C 	C 	0.45025 0.72500 0.44720 -0.14400
C 	C 	0.46344 0.63340 0.48430 0.05500
H 	H 	0.44450 0.58510 0.43060 -0.00500
C 	C 	0.50460 0.61240 0.60080 -0.17300
H 	H 	0.51310 0.55040 0.62550 0.07400
C 	C 	0.53309 0.68520 0.68070 0.06800
C 	C 	0.51880 0.77630 0.64440 -0.17300
H 	H 	0.53770 0.82490 0.69760 0.07300
C 	C 	0.47730 0.79670 0.53110 0.05300
H 	H 	0.46710 0.85840 0.51030 0.00900
C 	C 	0.57811 0.66680 0.79970 -0.06500
C 	C 	0.74947 0.42560 0.05910 0.38400
C 	C 	0.71751 0.49950 0.05660 -0.11400
C 	C 	0.67027 0.50610 0.95540 -0.05800
H 	H 	0.65750 0.46260 0.89040 0.05200
C 	C 	0.64207 0.57870 0.95200 0.03900
C 	C 	0.66014 0.63880 0.05410 -0.05200
H 	H 	0.64070 0.68490 0.05430 0.06100
C 	C 	0.70752 0.62970 0.15590 -0.11600
C 	C 	0.73572 0.56170 0.15520 0.03600
H 	H 	0.76770 0.55710 0.22220 0.02600
C 	C 	0.72746 0.69460 0.26810 0.41600
C 	C 	0.88000 0.17670 0.94700 1.17400
C 	C 	0.87860 0.08820 0.88210 -1.84300
H 	H 	0.88760 0.10150 0.82470 0.57400
H 	H 	0.84670 0.06290 0.83650 0.58400
H 	H 	0.90050 0.04360 0.94350 0.58100
C 	C 	0.92760 0.22350 0.99840 -1.71500
H 	H 	0.94130 0.20050 0.95460 0.53200
H 	H 	0.94890 0.20980 0.08640 0.52700
H 	H 	0.92310 0.28990 0.98670 0.52100
N 	N 	0.59441 0.58640 0.84060 -0.12800
H 	H 	0.59200 0.72200 0.84600 0.04600
O 	O 	0.87080 0.22340 0.01330 -0.33600
Ce	Ce	0.32007 0.78812 0.07760 2.15300
O 	O 	0.89482 0.33100 0.29030 -0.45200
O 	O 	0.88564 0.18170 0.24100 -0.42700
O 	O 	0.23112 0.85130 0.99500 -0.59300
O 	O 	0.29363 0.93880 0.12270 -0.47400
O 	O 	0.27065 0.18690 0.35150 -0.52000
O 	O 	0.19836 0.25090 0.26700 -0.48400
O 	O 	0.35080 0.69110 0.96950 -0.48600
C 	C 	0.90797 0.24840 0.31870 0.32300
C 	C 	0.95025 0.22500 0.44720 -0.14300
C 	C 	0.96344 0.13340 0.48430 0.05500
H 	H 	0.94450 0.08510 0.43060 -0.00400
C 	C 	0.00460 0.11240 0.60080 -0.17200
H 	H 	0.01310 0.05040 0.62550 0.07400
C 	C 	0.03309 0.18520 0.68070 0.06700
C 	C 	0.01880 0.27630 0.64440 -0.17300
H 	H 	0.03770 0.32490 0.69760 0.07300
C 	C 	0.97730 0.29670 0.53110 0.05300
H 	H 	0.96710 0.35840 0.51030 0.00900
C 	C 	0.07811 0.16680 0.79970 -0.06500
C 	C 	0.24947 0.92560 0.05910 0.38300
C 	C 	0.21751 0.99950 0.05660 -0.11500
C 	C 	0.17027 0.00610 0.95540 -0.05800
H 	H 	0.15750 0.96260 0.89040 0.05300
C 	C 	0.14207 0.07870 0.95200 0.03800
C 	C 	0.16014 0.13880 0.05410 -0.05100
H 	H 	0.14070 0.18490 0.05430 0.06100
C 	C 	0.20752 0.12970 0.15590 -0.11700
C 	C 	0.23572 0.06170 0.15520 0.03700
H 	H 	0.26770 0.05710 0.22220 0.02600
C 	C 	0.22746 0.19460 0.26810 0.41600
C 	C 	0.38000 0.67670 0.94700 1.17300
C 	C 	0.37860 0.58820 0.88210 -1.84200
H 	H 	0.38760 0.60150 0.82470 0.57300
H 	H 	0.34670 0.56290 0.83650 0.58400
H 	H 	0.40050 0.54360 0.94350 0.58100
C 	C 	0.42760 0.72350 0.99840 -1.71000
H 	H 	0.44130 0.70050 0.95460 0.53000
H 	H 	0.44890 0.70980 0.08640 0.52500
H 	H 	0.42310 0.78990 0.98670 0.51900
N 	N 	0.09441 0.08640 0.84060 -0.12800
H 	H 	0.09200 0.22200 0.84600 0.04600
O 	O 	0.37080 0.72340 0.01330 -0.33800
Ce	Ce	0.17993 0.28812 0.42240 2.15300
O 	O 	0.60518 0.83100 0.20970 -0.45300
O 	O 	0.61436 0.68170 0.25900 -0.42700
O 	O 	0.26888 0.35130 0.50500 -0.59300
O 	O 	0.20637 0.43880 0.37730 -0.47400
O 	O 	0.22935 0.68690 0.14850 -0.52000
O 	O 	0.30164 0.75090 0.23300 -0.48400
O 	O 	0.14920 0.19110 0.53050 -0.48700
C 	C 	0.59203 0.74840 0.18130 0.32300
C 	C 	0.54975 0.72500 0.05280 -0.14400
C 	C 	0.53656 0.63340 0.01570 0.05500
H 	H 	0.55550 0.58510 0.06940 -0.00500
C 	C 	0.49540 0.61240 0.89920 -0.17300
H 	H 	0.48690 0.55040 0.87450 0.07400
C 	C 	0.46691 0.68520 0.81930 0.06800
C 	C 	0.48120 0.77630 0.85560 -0.17300
H 	H 	0.46230 0.82490 0.80240 0.07300
C 	C 	0.52270 0.79670 0.96890 0.05400
H 	H 	0.53290 0.85840 0.98970 0.00900
C 	C 	0.42189 0.66680 0.70030 -0.06500
C 	C 	0.25053 0.42560 0.44090 0.38400
C 	C 	0.28249 0.49950 0.44340 -0.11400
C 	C 	0.32973 0.50610 0.54460 -0.05700
H 	H 	0.34250 0.46260 0.60960 0.05200
C 	C 	0.35793 0.57870 0.54800 0.03900
C 	C 	0.33986 0.63880 0.44590 -0.05200
H 	H 	0.35930 0.68490 0.44570 0.06100
C 	C 	0.29248 0.62970 0.34410 -0.11600
C 	C 	0.26428 0.56170 0.34480 0.03600
H 	H 	0.23230 0.55710 0.27780 0.02600
C 	C 	0.27254 0.69460 0.23190 0.41600
C 	C 	0.12000 0.17670 0.55300 1.17300
C 	C 	0.12140 0.08820 0.61790 -1.84200
H 	H 	0.11240 0.10150 0.67530 0.57400
H 	H 	0.15330 0.06290 0.66350 0.58400
H 	H 	0.09950 0.04360 0.55650 0.58100
C 	C 	0.07240 0.22350 0.50160 -1.71200
H 	H 	0.05870 0.20050 0.54540 0.53100
H 	H 	0.05110 0.20980 0.41360 0.52600
H 	H 	0.07690 0.28990 0.51330 0.52000
N 	N 	0.40559 0.58640 0.65940 -0.12800
H 	H 	0.40800 0.72200 0.65400 0.04600
O 	O 	0.12920 0.22340 0.48670 -0.33700
Ce	Ce	0.67993 0.78812 0.42240 2.15300
O 	O 	0.10518 0.33100 0.20970 -0.45200
O 	O 	0.11436 0.18170 0.25900 -0.42700
O 	O 	0.76888 0.85130 0.50500 -0.59300
O 	O 	0.70637 0.93880 0.37730 -0.47400
O 	O 	0.72935 0.18690 0.14850 -0.51900
O 	O 	0.80164 0.25090 0.23300 -0.48400
O 	O 	0.64920 0.69110 0.53050 -0.48700
C 	C 	0.09203 0.24840 0.18130 0.32300
C 	C 	0.04975 0.22500 0.05280 -0.14300
C 	C 	0.03656 0.13340 0.01570 0.05600
H 	H 	0.05550 0.08510 0.06940 -0.00500
C 	C 	0.99540 0.11240 0.89920 -0.17300
H 	H 	0.98690 0.05040 0.87450 0.07400
C 	C 	0.96691 0.18520 0.81930 0.06800
C 	C 	0.98120 0.27630 0.85560 -0.17300
H 	H 	0.96230 0.32490 0.80240 0.07300
C 	C 	0.02270 0.29670 0.96890 0.05300
H 	H 	0.03290 0.35840 0.98970 0.00900
C 	C 	0.92189 0.16680 0.70030 -0.06500
C 	C 	0.75053 0.92560 0.44090 0.38400
C 	C 	0.78249 0.99950 0.44340 -0.11400
C 	C 	0.82973 0.00610 0.54460 -0.05800
H 	H 	0.84250 0.96260 0.60960 0.05200
C 	C 	0.85793 0.07870 0.54800 0.03900
C 	C 	0.83986 0.13880 0.44590 -0.05200
H 	H 	0.85930 0.18490 0.44570 0.06100
C 	C 	0.79248 0.12970 0.34410 -0.11600
C 	C 	0.76428 0.06170 0.34480 0.03600
H 	H 	0.73230 0.05710 0.27780 0.02600
C 	C 	0.77254 0.19460 0.23190 0.41600
C 	C 	0.62000 0.67670 0.55300 1.17300
C 	C 	0.62140 0.58820 0.61790 -1.84200
H 	H 	0.61240 0.60150 0.67530 0.57400
H 	H 	0.65330 0.56290 0.66350 0.58400
H 	H 	0.59950 0.54360 0.55650 0.58100
C 	C 	0.57240 0.72350 0.50160 -1.71200
H 	H 	0.55870 0.70050 0.54540 0.53100
H 	H 	0.55110 0.70980 0.41360 0.52600
H 	H 	0.57690 0.78990 0.51330 0.52000
N 	N 	0.90559 0.08640 0.65940 -0.12800
H 	H 	0.90800 0.22200 0.65400 0.04600
O 	O 	0.62920 0.72340 0.48670 -0.33700
Ce	Ce	0.17993 0.71188 0.92240 2.15300
O 	O 	0.60518 0.16900 0.70970 -0.45300
O 	O 	0.61436 0.31830 0.75900 -0.42700
O 	O 	0.26888 0.64870 0.00500 -0.59400
O 	O 	0.20637 0.56120 0.87730 -0.47400
O 	O 	0.22935 0.31310 0.64850 -0.52000
O 	O 	0.30164 0.24910 0.73300 -0.48400
O 	O 	0.14920 0.80890 0.03050 -0.48900
C 	C 	0.59203 0.25160 0.68130 0.32300
C 	C 	0.54975 0.27500 0.55280 -0.14300
C 	C 	0.53656 0.36660 0.51570 0.05500
H 	H 	0.55550 0.41490 0.56940 -0.00500
C 	C 	0.49540 0.38760 0.39920 -0.17300
H 	H 	0.48690 0.44960 0.37450 0.07400
C 	C 	0.46691 0.31480 0.31930 0.06800
C 	C 	0.48120 0.22370 0.35560 -0.17300
H 	H 	0.46230 0.17510 0.30240 0.07300
C 	C 	0.52270 0.20330 0.46890 0.05300
H 	H 	0.53290 0.14160 0.48970 0.00900
C 	C 	0.42189 0.33320 0.20030 -0.06500
C 	C 	0.25053 0.57440 0.94090 0.38400
C 	C 	0.28249 0.50050 0.94340 -0.11400
C 	C 	0.32973 0.49390 0.04460 -0.05800
H 	H 	0.34250 0.53740 0.10960 0.05200
C 	C 	0.35793 0.42130 0.04800 0.03900
C 	C 	0.33986 0.36120 0.94590 -0.05200
H 	H 	0.35930 0.31510 0.94570 0.06100
C 	C 	0.29248 0.37030 0.84410 -0.11600
C 	C 	0.26428 0.43830 0.84480 0.03600
H 	H 	0.23230 0.44290 0.77780 0.02600
C 	C 	0.27254 0.30540 0.73190 0.41600
C 	C 	0.12000 0.82330 0.05300 1.17400
C 	C 	0.12140 0.91180 0.11790 -1.84300
H 	H 	0.11240 0.89850 0.17530 0.57400
H 	H 	0.15330 0.93710 0.16350 0.58400
H 	H 	0.09950 0.95640 0.05650 0.58100
C 	C 	0.07240 0.77650 0.00160 -1.71500
H 	H 	0.05870 0.79950 0.04540 0.53200
H 	H 	0.05110 0.79020 0.91360 0.52700
H 	H 	0.07690 0.71010 0.01330 0.52100
N 	N 	0.40559 0.41360 0.15940 -0.12800
H 	H 	0.40800 0.27800 0.15400 0.04600
O 	O 	0.12920 0.77660 0.98670 -0.33600
Ce	Ce	0.67993 0.21188 0.92240 2.15300
O 	O 	0.10518 0.66900 0.70970 -0.45200
O 	O 	0.11436 0.81830 0.75900 -0.42700
O 	O 	0.76888 0.14870 0.00500 -0.59300
O 	O 	0.70637 0.06120 0.87730 -0.47400
O 	O 	0.72935 0.81310 0.64850 -0.52000
O 	O 	0.80164 0.74910 0.73300 -0.48400
O 	O 	0.64920 0.30890 0.03050 -0.48600
C 	C 	0.09203 0.75160 0.68130 0.32300
C 	C 	0.04975 0.77500 0.55280 -0.14300
C 	C 	0.03656 0.86660 0.51570 0.05500
H 	H 	0.05550 0.91490 0.56940 -0.00400
C 	C 	0.99540 0.88760 0.39920 -0.17200
H 	H 	0.98690 0.94960 0.37450 0.07400
C 	C 	0.96691 0.81480 0.31930 0.06700
C 	C 	0.98120 0.72370 0.35560 -0.17300
H 	H 	0.96230 0.67510 0.30240 0.07300
C 	C 	0.02270 0.70330 0.46890 0.05300
H 	H 	0.03290 0.64160 0.48970 0.00900
C 	C 	0.92189 0.83320 0.20030 -0.06500
C 	C 	0.75053 0.07440 0.94090 0.38300
C 	C 	0.78249 0.00050 0.94340 -0.11500
C 	C 	0.82973 0.99390 0.04460 -0.05800
H 	H 	0.84250 0.03740 0.10960 0.05300
C 	C 	0.85793 0.92130 0.04800 0.03800
C 	C 	0.83986 0.86120 0.94590 -0.05100
H 	H 	0.85930 0.81510 0.94570 0.06100
C 	C 	0.79248 0.87030 0.84410 -0.11700
C 	C 	0.76428 0.93830 0.84480 0.03700
H 	H 	0.73230 0.94290 0.77780 0.02600
C 	C 	0.77254 0.80540 0.73190 0.41600
C 	C 	0.62000 0.32330 0.05300 1.17300
C 	C 	0.62140 0.41180 0.11790 -1.84200
H 	H 	0.61240 0.39850 0.17530 0.57300
H 	H 	0.65330 0.43710 0.16350 0.58400
H 	H 	0.59950 0.45640 0.05650 0.58100
C 	C 	0.57240 0.27650 0.00160 -1.71000
H 	H 	0.55870 0.29950 0.04540 0.53000
H 	H 	0.55110 0.29020 0.91360 0.52500
H 	H 	0.57690 0.21010 0.01330 0.51900
N 	N 	0.90559 0.91360 0.15940 -0.12800
H 	H 	0.90800 0.77800 0.15400 0.04600
O 	O 	0.62920 0.27660 0.98670 -0.33800
Ce	Ce	0.82007 0.71188 0.57760 2.15300
O 	O 	0.39482 0.16900 0.79030 -0.45300
O 	O 	0.38564 0.31830 0.74100 -0.42700
O 	O 	0.73112 0.64870 0.49500 -0.59300
O 	O 	0.79363 0.56120 0.62270 -0.47400
O 	O 	0.77065 0.31310 0.85150 -0.52000
O 	O 	0.69836 0.24910 0.76700 -0.48400
O 	O 	0.85080 0.80890 0.46950 -0.48700
C 	C 	0.40797 0.25160 0.81870 0.32300
C 	C 	0.45025 0.27500 0.94720 -0.14400
C 	C 	0.46344 0.36660 0.98430 0.05500
H 	H 	0.44450 0.41490 0.93060 -0.00500
C 	C 	0.50460 0.38760 0.10080 -0.17300
H 	H 	0.51310 0.44960 0.12550 0.07400
C 	C 	0.53309 0.31480 0.18070 0.06800
C 	C 	0.51880 0.22370 0.14440 -0.17300
H 	H 	0.53770 0.17510 0.19760 0.07300
C 	C 	0.47730 0.20330 0.03110 0.05400
H 	H 	0.46710 0.14160 0.01030 0.00900
C 	C 	0.57811 0.33320 0.29970 -0.06500
C 	C 	0.74947 0.57440 0.55910 0.38400
C 	C 	0.71751 0.50050 0.55660 -0.11400
C 	C 	0.67027 0.49390 0.45540 -0.05700
H 	H 	0.65750 0.53740 0.39040 0.05200
C 	C 	0.64207 0.42130 0.45200 0.03900
C 	C 	0.66014 0.36120 0.55410 -0.05200
H 	H 	0.64070 0.31510 0.55430 0.06100
C 	C 	0.70752 0.37030 0.65590 -0.11600
C 	C 	0.73572 0.43830 0.65520 0.03600
H 	H 	0.76770 0.44290 0.72220 0.02600
C 	C 	0.72746 0.30540 0.76810 0.41600
C 	C 	0.88000 0.82330 0.44700 1.17300
C 	C 	0.87860 0.91180 0.38210 -1.84200
H 	H 	0.88760 0.89850 0.32470 0.57400
H 	H 	0.84670 0.93710 0.33650 0.58400
H 	H 	0.90050 0.95640 0.44350 0.58100
C 	C 	0.92760 0.77650 0.49840 -1.71200
H 	H 	0.94130 0.79950 0.45460 0.53100
H 	H 	0.94890 0.79020 0.58640 0.52600
H 	H 	0.92310 0.71010 0.48670 0.52000
N 	N 	0.59441 0.41360 0.34060 -0.12800
H 	H 	0.59200 0.27800 0.34600 0.04600
O 	O 	0.87080 0.77660 0.51330 -0.33700
Ce	Ce	0.32007 0.21188 0.57760 2.15300
O 	O 	0.89482 0.66900 0.79030 -0.45200
O 	O 	0.88564 0.81830 0.74100 -0.42700
O 	O 	0.23112 0.14870 0.49500 -0.59300
O 	O 	0.29363 0.06120 0.62270 -0.47400
O 	O 	0.27065 0.81310 0.85150 -0.51900
O 	O 	0.19836 0.74910 0.76700 -0.48400
O 	O 	0.35080 0.30890 0.46950 -0.48700
C 	C 	0.90797 0.75160 0.81870 0.32300
C 	C 	0.95025 0.77500 0.94720 -0.14300
C 	C 	0.96344 0.86660 0.98430 0.05600
H 	H 	0.94450 0.91490 0.93060 -0.00500
C 	C 	0.00460 0.88760 0.10080 -0.17300
H 	H 	0.01310 0.94960 0.12550 0.07400
C 	C 	0.03309 0.81480 0.18070 0.06800
C 	C 	0.01880 0.72370 0.14440 -0.17300
H 	H 	0.03770 0.67510 0.19760 0.07300
C 	C 	0.97730 0.70330 0.03110 0.05300
H 	H 	0.96710 0.64160 0.01030 0.00900
C 	C 	0.07811 0.83320 0.29970 -0.06500
C 	C 	0.24947 0.07440 0.55910 0.38400
C 	C 	0.21751 0.00050 0.55660 -0.11400
C 	C 	0.17027 0.99390 0.45540 -0.05800
H 	H 	0.15750 0.03740 0.39040 0.05200
C 	C 	0.14207 0.92130 0.45200 0.03900
C 	C 	0.16014 0.86120 0.55410 -0.05200
H 	H 	0.14070 0.81510 0.55430 0.06100
C 	C 	0.20752 0.87030 0.65590 -0.11600
C 	C 	0.23572 0.93830 0.65520 0.03600
H 	H 	0.26770 0.94290 0.72220 0.02600
C 	C 	0.22746 0.80540 0.76810 0.41600
C 	C 	0.38000 0.32330 0.44700 1.17300
C 	C 	0.37860 0.41180 0.38210 -1.84200
H 	H 	0.38760 0.39850 0.32470 0.57400
H 	H 	0.34670 0.43710 0.33650 0.58400
H 	H 	0.40050 0.45640 0.44350 0.58100
C 	C 	0.42760 0.27650 0.49840 -1.71200
H 	H 	0.44130 0.29950 0.45460 0.53100
H 	H 	0.44890 0.29020 0.58640 0.52600
H 	H 	0.42310 0.21010 0.48670 0.52000
N 	N 	0.09441 0.91360 0.34060 -0.12800
H 	H 	0.09200 0.77800 0.34600 0.04600
O 	O 	0.37080 0.27660 0.51330 -0.33700
