data_crystal

_cell_length_a 28.66700
_cell_length_b 14.91050
_cell_length_c 12.01300
_cell_angle_alpha 90.00000
_cell_angle_beta  106.27400
_cell_angle_gamma 90.00000

_symmetry_space_group_name_	'P 1'
_symmetry_space_group_name_H-M	'P 1'

loop_
_symmetry_equiv_pos_as_xyz
  x,y,z

loop_
_atom_site_label
_atom_site_type_symbol
_atom_site_fract_x
_atom_site_fract_y
_atom_site_fract_z
_atom_site_charge
Ce	Ce	0.32237 0.22084 0.56942 2.12900
O 	O 	0.39463 0.17790 0.49510 -0.41300
O 	O 	0.38788 0.32150 0.53320 -0.45100
O 	O 	0.73305 0.65110 0.46910 -0.60800
O 	O 	0.79820 0.56880 0.48180 -0.42500
O 	O 	0.77688 0.31120 0.20810 -0.51000
O 	O 	0.70267 0.24990 0.13940 -0.47500
N 	N 	0.59800 0.41520 0.35690 -0.11500
C 	C 	0.40820 0.25840 0.49510 0.30900
C 	C 	0.45160 0.27990 0.45260 -0.10200
C 	C 	0.47990 0.21090 0.42990 0.03700
H 	H 	0.47050 0.15160 0.43430 0.03400
C 	C 	0.52220 0.23050 0.40060 -0.13200
H 	H 	0.54160 0.18410 0.38710 0.07800
C 	C 	0.53560 0.31870 0.39130 0.07500
C 	C 	0.50580 0.38890 0.40930 -0.12000
H 	H 	0.51360 0.44830 0.39900 0.08100
C 	C 	0.46440 0.36810 0.44290 0.03600
H 	H 	0.44530 0.41390 0.45890 0.03300
C 	C 	0.58260 0.33670 0.36820 -0.02000
C 	C 	0.75270 0.57770 0.45050 0.36900
C 	C 	0.72180 0.50170 0.39280 -0.10100
C 	C 	0.67420 0.49470 0.39760 -0.05700
H 	H 	0.66130 0.53770 0.43670 0.04800
C 	C 	0.64540 0.42190 0.34260 0.07300
C 	C 	0.66400 0.36240 0.27720 -0.05400
H 	H 	0.64440 0.31690 0.23590 0.06900
C 	C 	0.71180 0.37050 0.27290 -0.08900
C 	C 	0.74050 0.43930 0.33140 0.03000
H 	H 	0.77260 0.44390 0.32960 0.04600
C 	C 	0.73200 0.30600 0.20190 0.38700
O 	O 	0.37630 0.11680 0.71750 0.17800
H 	H 	0.59500 0.28100 0.34900 0.04200
O 	O 	0.36910 0.08400 0.69800 -0.39400
C 	C 	0.38440 0.11600 0.81300 -0.44500
H 	H 	0.40150 0.06900 0.86260 0.19100
H 	H 	0.35660 0.13360 0.83710 0.15100
H 	H 	0.40560 0.16640 0.81700 0.10800
Ce	Ce	0.82237 0.72084 0.56942 2.13000
O 	O 	0.89463 0.67790 0.49510 -0.41200
O 	O 	0.88788 0.82150 0.53320 -0.45000
O 	O 	0.23305 0.15110 0.46910 -0.60700
O 	O 	0.29820 0.06880 0.48180 -0.42300
O 	O 	0.27688 0.81120 0.20810 -0.50900
O 	O 	0.20267 0.74990 0.13940 -0.47600
N 	N 	0.09800 0.91520 0.35690 -0.11500
C 	C 	0.90820 0.75840 0.49510 0.30900
C 	C 	0.95160 0.77990 0.45260 -0.10200
C 	C 	0.97990 0.71090 0.42990 0.03700
H 	H 	0.97050 0.65160 0.43430 0.03400
C 	C 	0.02220 0.73050 0.40060 -0.13100
H 	H 	0.04160 0.68410 0.38710 0.07800
C 	C 	0.03560 0.81870 0.39130 0.07500
C 	C 	0.00580 0.88890 0.40930 -0.12000
H 	H 	0.01360 0.94830 0.39900 0.08000
C 	C 	0.96440 0.86810 0.44290 0.03600
H 	H 	0.94530 0.91390 0.45890 0.03300
C 	C 	0.08260 0.83670 0.36820 -0.01900
C 	C 	0.25270 0.07770 0.45050 0.36900
C 	C 	0.22180 0.00170 0.39280 -0.09900
C 	C 	0.17420 0.99470 0.39760 -0.05900
H 	H 	0.16130 0.03770 0.43670 0.04900
C 	C 	0.14540 0.92190 0.34260 0.07400
C 	C 	0.16400 0.86240 0.27720 -0.05500
H 	H 	0.14440 0.81690 0.23590 0.06900
C 	C 	0.21180 0.87050 0.27290 -0.08900
C 	C 	0.24050 0.93930 0.33140 0.02900
H 	H 	0.27260 0.94390 0.32960 0.04700
C 	C 	0.23200 0.80600 0.20190 0.38700
O 	O 	0.87630 0.61680 0.71750 0.17700
H 	H 	0.09500 0.78100 0.34900 0.04200
O 	O 	0.86910 0.58400 0.69800 -0.39200
C 	C 	0.88440 0.61600 0.81300 -0.44600
H 	H 	0.90150 0.56900 0.86260 0.19200
H 	H 	0.85660 0.63360 0.83710 0.15200
H 	H 	0.90560 0.66640 0.81700 0.10900
Ce	Ce	0.67763 0.22084 0.93058 2.13000
O 	O 	0.60537 0.17790 0.00490 -0.41200
O 	O 	0.61212 0.32150 0.96680 -0.45100
O 	O 	0.26695 0.65110 0.03090 -0.60700
O 	O 	0.20180 0.56880 0.01820 -0.42400
O 	O 	0.22312 0.31120 0.29190 -0.50900
O 	O 	0.29733 0.24990 0.36060 -0.47600
N 	N 	0.40200 0.41520 0.14310 -0.11500
C 	C 	0.59180 0.25840 0.00490 0.31000
C 	C 	0.54840 0.27990 0.04740 -0.10200
C 	C 	0.52010 0.21090 0.07010 0.03800
H 	H 	0.52950 0.15160 0.06570 0.03400
C 	C 	0.47780 0.23050 0.09940 -0.13200
H 	H 	0.45840 0.18410 0.11290 0.07800
C 	C 	0.46440 0.31870 0.10870 0.07500
C 	C 	0.49420 0.38890 0.09070 -0.12100
H 	H 	0.48640 0.44830 0.10100 0.08100
C 	C 	0.53560 0.36810 0.05710 0.03600
H 	H 	0.55470 0.41390 0.04110 0.03300
C 	C 	0.41740 0.33670 0.13180 -0.01900
C 	C 	0.24730 0.57770 0.04950 0.36900
C 	C 	0.27820 0.50170 0.10720 -0.10100
C 	C 	0.32580 0.49470 0.10240 -0.05700
H 	H 	0.33870 0.53770 0.06330 0.04800
C 	C 	0.35460 0.42190 0.15740 0.07300
C 	C 	0.33600 0.36240 0.22280 -0.05400
H 	H 	0.35560 0.31690 0.26410 0.06900
C 	C 	0.28820 0.37050 0.22710 -0.08900
C 	C 	0.25950 0.43930 0.16860 0.03000
H 	H 	0.22740 0.44390 0.17040 0.04700
C 	C 	0.26800 0.30600 0.29810 0.38700
O 	O 	0.62370 0.11680 0.78250 0.17700
H 	H 	0.40500 0.28100 0.15100 0.04200
O 	O 	0.63090 0.08400 0.80200 -0.39300
C 	C 	0.61560 0.11600 0.68700 -0.44500
H 	H 	0.59850 0.06900 0.63740 0.19100
H 	H 	0.64340 0.13360 0.66290 0.15100
H 	H 	0.59440 0.16640 0.68300 0.10800
Ce	Ce	0.17763 0.72084 0.93058 2.13000
O 	O 	0.10537 0.67790 0.00490 -0.41200
O 	O 	0.11212 0.82150 0.96680 -0.44900
O 	O 	0.76695 0.15110 0.03090 -0.60600
O 	O 	0.70180 0.06880 0.01820 -0.42200
O 	O 	0.72312 0.81120 0.29190 -0.50900
O 	O 	0.79733 0.74990 0.36060 -0.47500
N 	N 	0.90200 0.91520 0.14310 -0.11600
C 	C 	0.09180 0.75840 0.00490 0.30800
C 	C 	0.04840 0.77990 0.04740 -0.10200
C 	C 	0.02010 0.71090 0.07010 0.03800
H 	H 	0.02950 0.65160 0.06570 0.03400
C 	C 	0.97780 0.73050 0.09940 -0.13200
H 	H 	0.95840 0.68410 0.11290 0.07800
C 	C 	0.96440 0.81870 0.10870 0.07500
C 	C 	0.99420 0.88890 0.09070 -0.12100
H 	H 	0.98640 0.94830 0.10100 0.08100
C 	C 	0.03560 0.86810 0.05710 0.03600
H 	H 	0.05470 0.91390 0.04110 0.03200
C 	C 	0.91740 0.83670 0.13180 -0.02000
C 	C 	0.74730 0.07770 0.04950 0.36700
C 	C 	0.77820 0.00170 0.10720 -0.09400
C 	C 	0.82580 0.99470 0.10240 -0.06600
H 	H 	0.83870 0.03770 0.06330 0.05200
C 	C 	0.85460 0.92190 0.15740 0.07600
C 	C 	0.83600 0.86240 0.22280 -0.05800
H 	H 	0.85560 0.81690 0.26410 0.07000
C 	C 	0.78820 0.87050 0.22710 -0.08600
C 	C 	0.75950 0.93930 0.16860 0.02400
H 	H 	0.72740 0.94390 0.17040 0.04800
C 	C 	0.76800 0.80600 0.29810 0.38600
O 	O 	0.12370 0.61680 0.78250 0.17700
H 	H 	0.90500 0.78100 0.15100 0.04200
O 	O 	0.13090 0.58400 0.80200 -0.39300
C 	C 	0.11560 0.61600 0.68700 -0.44600
H 	H 	0.09850 0.56900 0.63740 0.19200
H 	H 	0.14340 0.63360 0.66290 0.15200
H 	H 	0.09440 0.66640 0.68300 0.10900
Ce	Ce	0.67763 0.77916 0.43058 2.13000
O 	O 	0.60537 0.82210 0.50490 -0.41200
O 	O 	0.61212 0.67850 0.46680 -0.45000
O 	O 	0.26695 0.34890 0.53090 -0.60700
O 	O 	0.20180 0.43120 0.51820 -0.42400
O 	O 	0.22312 0.68880 0.79190 -0.50900
O 	O 	0.29733 0.75010 0.86060 -0.47500
N 	N 	0.40200 0.58480 0.64310 -0.11500
C 	C 	0.59180 0.74160 0.50490 0.30900
C 	C 	0.54840 0.72010 0.54740 -0.10200
C 	C 	0.52010 0.78910 0.57010 0.03700
H 	H 	0.52950 0.84840 0.56570 0.03400
C 	C 	0.47780 0.76950 0.59940 -0.13200
H 	H 	0.45840 0.81590 0.61290 0.07800
C 	C 	0.46440 0.68130 0.60870 0.07500
C 	C 	0.49420 0.61110 0.59070 -0.12000
H 	H 	0.48640 0.55170 0.60100 0.08100
C 	C 	0.53560 0.63190 0.55710 0.03600
H 	H 	0.55470 0.58610 0.54110 0.03300
C 	C 	0.41740 0.66330 0.63180 -0.02000
C 	C 	0.24730 0.42230 0.54950 0.36900
C 	C 	0.27820 0.49830 0.60720 -0.10100
C 	C 	0.32580 0.50530 0.60240 -0.05700
H 	H 	0.33870 0.46230 0.56330 0.04800
C 	C 	0.35460 0.57810 0.65740 0.07300
C 	C 	0.33600 0.63760 0.72280 -0.05400
H 	H 	0.35560 0.68310 0.76410 0.06900
C 	C 	0.28820 0.62950 0.72710 -0.08900
C 	C 	0.25950 0.56070 0.66860 0.03000
H 	H 	0.22740 0.55610 0.67040 0.04600
C 	C 	0.26800 0.69400 0.79810 0.38700
O 	O 	0.62370 0.88320 0.28250 0.17800
H 	H 	0.40500 0.71900 0.65100 0.04200
O 	O 	0.63090 0.91600 0.30200 -0.39400
C 	C 	0.61560 0.88400 0.18700 -0.44500
H 	H 	0.59850 0.93100 0.13740 0.19100
H 	H 	0.64340 0.86640 0.16290 0.15100
H 	H 	0.59440 0.83360 0.18300 0.10800
Ce	Ce	0.17763 0.27916 0.43058 2.13000
O 	O 	0.10537 0.32210 0.50490 -0.41200
O 	O 	0.11212 0.17850 0.46680 -0.45000
O 	O 	0.76695 0.84890 0.53090 -0.60700
O 	O 	0.70180 0.93120 0.51820 -0.42300
O 	O 	0.72312 0.18880 0.79190 -0.50900
O 	O 	0.79733 0.25010 0.86060 -0.47600
N 	N 	0.90200 0.08480 0.64310 -0.11500
C 	C 	0.09180 0.24160 0.50490 0.30900
C 	C 	0.04840 0.22010 0.54740 -0.10200
C 	C 	0.02010 0.28910 0.57010 0.03700
H 	H 	0.02950 0.34840 0.56570 0.03400
C 	C 	0.97780 0.26950 0.59940 -0.13100
H 	H 	0.95840 0.31590 0.61290 0.07800
C 	C 	0.96440 0.18130 0.60870 0.07500
C 	C 	0.99420 0.11110 0.59070 -0.12000
H 	H 	0.98640 0.05170 0.60100 0.08000
C 	C 	0.03560 0.13190 0.55710 0.03600
H 	H 	0.05470 0.08610 0.54110 0.03300
C 	C 	0.91740 0.16330 0.63180 -0.01900
C 	C 	0.74730 0.92230 0.54950 0.36900
C 	C 	0.77820 0.99830 0.60720 -0.09900
C 	C 	0.82580 0.00530 0.60240 -0.05900
H 	H 	0.83870 0.96230 0.56330 0.04900
C 	C 	0.85460 0.07810 0.65740 0.07400
C 	C 	0.83600 0.13760 0.72280 -0.05500
H 	H 	0.85560 0.18310 0.76410 0.06900
C 	C 	0.78820 0.12950 0.72710 -0.08900
C 	C 	0.75950 0.06070 0.66860 0.02900
H 	H 	0.72740 0.05610 0.67040 0.04700
C 	C 	0.76800 0.19400 0.79810 0.38700
O 	O 	0.12370 0.38320 0.28250 0.17700
H 	H 	0.90500 0.21900 0.65100 0.04200
O 	O 	0.13090 0.41600 0.30200 -0.39200
C 	C 	0.11560 0.38400 0.18700 -0.44600
H 	H 	0.09850 0.43100 0.13740 0.19200
H 	H 	0.14340 0.36640 0.16290 0.15200
H 	H 	0.09440 0.33360 0.18300 0.10900
Ce	Ce	0.32237 0.77916 0.06942 2.13000
O 	O 	0.39463 0.82210 0.99510 -0.41200
O 	O 	0.38788 0.67850 0.03320 -0.45100
O 	O 	0.73305 0.34890 0.96910 -0.60700
O 	O 	0.79820 0.43120 0.98180 -0.42400
O 	O 	0.77688 0.68880 0.70810 -0.50900
O 	O 	0.70267 0.75010 0.63940 -0.47600
N 	N 	0.59800 0.58480 0.85690 -0.11500
C 	C 	0.40820 0.74160 0.99510 0.31000
C 	C 	0.45160 0.72010 0.95260 -0.10200
C 	C 	0.47990 0.78910 0.92990 0.03800
H 	H 	0.47050 0.84840 0.93430 0.03400
C 	C 	0.52220 0.76950 0.90060 -0.13200
H 	H 	0.54160 0.81590 0.88710 0.07800
C 	C 	0.53560 0.68130 0.89130 0.07500
C 	C 	0.50580 0.61110 0.90930 -0.12100
H 	H 	0.51360 0.55170 0.89900 0.08100
C 	C 	0.46440 0.63190 0.94290 0.03600
H 	H 	0.44530 0.58610 0.95890 0.03300
C 	C 	0.58260 0.66330 0.86820 -0.01900
C 	C 	0.75270 0.42230 0.95050 0.36900
C 	C 	0.72180 0.49830 0.89280 -0.10100
C 	C 	0.67420 0.50530 0.89760 -0.05700
H 	H 	0.66130 0.46230 0.93670 0.04800
C 	C 	0.64540 0.57810 0.84260 0.07300
C 	C 	0.66400 0.63760 0.77720 -0.05400
H 	H 	0.64440 0.68310 0.73590 0.06900
C 	C 	0.71180 0.62950 0.77290 -0.08900
C 	C 	0.74050 0.56070 0.83140 0.03000
H 	H 	0.77260 0.55610 0.82960 0.04700
C 	C 	0.73200 0.69400 0.70190 0.38700
O 	O 	0.37630 0.88320 0.21750 0.17700
H 	H 	0.59500 0.71900 0.84900 0.04200
O 	O 	0.36910 0.91600 0.19800 -0.39300
C 	C 	0.38440 0.88400 0.31300 -0.44500
H 	H 	0.40150 0.93100 0.36260 0.19100
H 	H 	0.35660 0.86640 0.33710 0.15100
H 	H 	0.40560 0.83360 0.31700 0.10800
Ce	Ce	0.82237 0.27916 0.06942 2.13000
O 	O 	0.89463 0.32210 0.99510 -0.41200
O 	O 	0.88788 0.17850 0.03320 -0.44900
O 	O 	0.23305 0.84890 0.96910 -0.60600
O 	O 	0.29820 0.93120 0.98180 -0.42200
O 	O 	0.27688 0.18880 0.70810 -0.50900
O 	O 	0.20267 0.25010 0.63940 -0.47500
N 	N 	0.09800 0.08480 0.85690 -0.11600
C 	C 	0.90820 0.24160 0.99510 0.30800
C 	C 	0.95160 0.22010 0.95260 -0.10200
C 	C 	0.97990 0.28910 0.92990 0.03800
H 	H 	0.97050 0.34840 0.93430 0.03400
C 	C 	0.02220 0.26950 0.90060 -0.13200
H 	H 	0.04160 0.31590 0.88710 0.07800
C 	C 	0.03560 0.18130 0.89130 0.07500
C 	C 	0.00580 0.11110 0.90930 -0.12100
H 	H 	0.01360 0.05170 0.89900 0.08100
C 	C 	0.96440 0.13190 0.94290 0.03600
H 	H 	0.94530 0.08610 0.95890 0.03200
C 	C 	0.08260 0.16330 0.86820 -0.02000
C 	C 	0.25270 0.92230 0.95050 0.36700
C 	C 	0.22180 0.99830 0.89280 -0.09400
C 	C 	0.17420 0.00530 0.89760 -0.06600
H 	H 	0.16130 0.96230 0.93670 0.05200
C 	C 	0.14540 0.07810 0.84260 0.07600
C 	C 	0.16400 0.13760 0.77720 -0.05800
H 	H 	0.14440 0.18310 0.73590 0.07000
C 	C 	0.21180 0.12950 0.77290 -0.08600
C 	C 	0.24050 0.06070 0.83140 0.02400
H 	H 	0.27260 0.05610 0.82960 0.04800
C 	C 	0.23200 0.19400 0.70190 0.38600
O 	O 	0.87630 0.38320 0.21750 0.17700
H 	H 	0.09500 0.21900 0.84900 0.04200
O 	O 	0.86910 0.41600 0.19800 -0.39300
C 	C 	0.88440 0.38400 0.31300 -0.44600
H 	H 	0.90150 0.43100 0.36260 0.19200
H 	H 	0.85660 0.36640 0.33710 0.15200
H 	H 	0.90560 0.33360 0.31700 0.10900
