data_crystal

_cell_length_a 13.55150
_cell_length_b 14.31400
_cell_length_c 16.08430
_cell_angle_alpha 116.42100
_cell_angle_beta  98.74640
_cell_angle_gamma 90.00000

_symmetry_space_group_name_	'P 1'
_symmetry_space_group_name_H-M	'P 1'

loop_
_symmetry_equiv_pos_as_xyz
  x,y,z

loop_
_atom_site_label
_atom_site_type_symbol
_atom_site_fract_x
_atom_site_fract_y
_atom_site_fract_z
_atom_site_charge
Sm	Sm	0.95794 0.89511 0.36508 1.85200
Sm	Sm	0.54206 0.53003 0.63492 1.87600
Sm	Sm	0.04206 0.10489 0.63492 1.85200
Sm	Sm	0.45794 0.46997 0.36508 1.87600
H 	H 	0.04940 0.97800 0.11060 0.02000
H 	H 	0.09860 0.93960 0.96820 0.09000
H 	H 	0.12930 0.64500 0.92260 0.07800
H 	H 	0.08100 0.68470 0.06640 0.01300
H 	H 	0.15600 0.68500 0.81200 0.03500
H 	H 	0.19920 0.68160 0.45960 0.02200
H 	H 	0.27250 0.68110 0.71100 0.05800
H 	H 	0.07760 0.87990 0.68120 0.05100
H 	H 	0.45060 0.86740 0.88940 0.02100
H 	H 	0.40140 0.97140 0.03180 0.08800
H 	H 	0.37070 0.72240 0.07740 0.07700
H 	H 	0.41900 0.61830 0.93360 0.01600
H 	H 	0.34400 0.87300 0.18800 0.03500
H 	H 	0.30080 0.22200 0.54040 0.02500
H 	H 	0.22750 0.97010 0.28900 0.06500
H 	H 	0.42240 0.19870 0.31880 0.04900
H 	H 	0.95060 0.02200 0.88940 0.02100
H 	H 	0.90140 0.06040 0.03180 0.09100
H 	H 	0.87070 0.35500 0.07740 0.07900
H 	H 	0.91900 0.31530 0.93360 0.01400
H 	H 	0.84400 0.31500 0.18800 0.03600
H 	H 	0.80080 0.31840 0.54040 0.02300
H 	H 	0.72750 0.31890 0.28900 0.05800
H 	H 	0.92240 0.12010 0.31880 0.05100
H 	H 	0.54940 0.13260 0.11060 0.02100
H 	H 	0.59860 0.02860 0.96820 0.08800
H 	H 	0.62930 0.27760 0.92260 0.07700
H 	H 	0.58100 0.38170 0.06640 0.01600
H 	H 	0.65600 0.12700 0.81200 0.03500
H 	H 	0.69920 0.77800 0.45960 0.02500
H 	H 	0.77250 0.02990 0.71100 0.06500
H 	H 	0.57760 0.80130 0.68120 0.04900
C 	C 	0.02100 0.85880 0.19300 0.35200
C 	C 	0.05750 0.83560 0.10240 -0.13500
C 	C 	0.06490 0.91040 0.07300 0.06800
C 	C 	0.09510 0.88800 0.98800 -0.14900
C 	C 	0.12020 0.78700 0.93260 0.09900
C 	C 	0.11370 0.71250 0.96040 -0.16000
C 	C 	0.08360 0.73640 0.04660 0.06600
C 	C 	0.14540 0.75810 0.83800 -0.02000
C 	C 	0.07130 0.83010 0.49940 0.40300
C 	C 	0.12900 0.78700 0.56080 -0.11900
C 	C 	0.19330 0.70850 0.52280 0.04800
C 	C 	0.24800 0.67080 0.57960 -0.12300
C 	C 	0.23600 0.70710 0.67300 -0.03300
C 	C 	0.16780 0.78380 0.70980 0.06000
C 	C 	0.11840 0.82560 0.65540 -0.04500
C 	C 	0.32370 0.59180 0.54280 0.44300
C 	C 	0.47900 0.66580 0.80700 0.33800
C 	C 	0.44250 0.73320 0.89760 -0.12900
C 	C 	0.43510 0.83740 0.92700 0.06200
C 	C 	0.40490 0.90000 0.01200 -0.14500
C 	C 	0.37980 0.85440 0.06740 0.09300
C 	C 	0.38630 0.75210 0.03960 -0.15300
C 	C 	0.41640 0.68980 0.95340 0.05800
C 	C 	0.35460 0.92010 0.16200 -0.01600
C 	C 	0.42870 0.33070 0.50060 0.40400
C 	C 	0.37100 0.22620 0.43920 -0.11800
C 	C 	0.30670 0.18570 0.47720 0.04400
C 	C 	0.25200 0.09120 0.42040 -0.11500
C 	C 	0.26400 0.03410 0.32700 -0.04600
C 	C 	0.33220 0.07400 0.29020 0.06400
C 	C 	0.38160 0.17020 0.34460 -0.04700
C 	C 	0.17630 0.04900 0.45720 0.43000
C 	C 	0.97900 0.14120 0.80700 0.35200
C 	C 	0.94250 0.16440 0.89760 -0.13500
C 	C 	0.93510 0.08960 0.92700 0.06800
C 	C 	0.90490 0.11200 0.01200 -0.14900
C 	C 	0.87980 0.21300 0.06740 0.09900
C 	C 	0.88630 0.28750 0.03960 -0.16000
C 	C 	0.91640 0.26360 0.95340 0.06600
C 	C 	0.85460 0.24190 0.16200 -0.02000
C 	C 	0.92870 0.16990 0.50060 0.40300
C 	C 	0.87100 0.21300 0.43920 -0.11900
C 	C 	0.80670 0.29150 0.47720 0.04800
C 	C 	0.75200 0.32920 0.42040 -0.12300
C 	C 	0.76400 0.29290 0.32700 -0.03300
C 	C 	0.83220 0.21620 0.29020 0.06000
C 	C 	0.88160 0.17440 0.34460 -0.04500
C 	C 	0.67630 0.40820 0.45720 0.44300
C 	C 	0.52100 0.33420 0.19300 0.33800
C 	C 	0.55750 0.26680 0.10240 -0.12900
C 	C 	0.56490 0.16260 0.07300 0.06200
C 	C 	0.59510 0.10000 0.98800 -0.14500
C 	C 	0.62020 0.14560 0.93260 0.09300
C 	C 	0.61370 0.24790 0.96040 -0.15300
C 	C 	0.58360 0.31020 0.04660 0.05800
C 	C 	0.64540 0.07990 0.83800 -0.01600
C 	C 	0.57130 0.66930 0.49940 0.40400
C 	C 	0.62900 0.77380 0.56080 -0.11800
C 	C 	0.69330 0.81430 0.52280 0.04400
C 	C 	0.74800 0.90880 0.57960 -0.11500
C 	C 	0.73600 0.96590 0.67300 -0.04600
C 	C 	0.66780 0.92600 0.70980 0.06400
C 	C 	0.61840 0.82980 0.65540 -0.04700
C 	C 	0.82370 0.95100 0.54280 0.43000
N 	N 	0.14870 0.82023 0.80306 -0.11300
N 	N 	0.35130 0.01717 0.19694 -0.11600
N 	N 	0.85130 0.17977 0.19694 -0.11300
N 	N 	0.64870 0.98283 0.80306 -0.11600
O 	O 	0.99370 0.94868 0.24096 -0.42600
O 	O 	0.01810 0.78803 0.21746 -0.44600
O 	O 	0.04060 0.92127 0.53714 -0.56400
O 	O 	0.05320 0.77474 0.41208 -0.44600
O 	O 	0.37100 0.56096 0.59792 -0.47400
O 	O 	0.33350 0.56161 0.45742 -0.51200
O 	O 	0.50630 0.70772 0.75904 -0.41400
O 	O 	0.48190 0.57057 0.78254 -0.44700
O 	O 	0.45940 0.38413 0.46286 -0.57200
O 	O 	0.44680 0.36266 0.58792 -0.45100
O 	O 	0.12900 0.96304 0.40208 -0.46300
O 	O 	0.16650 0.10419 0.54258 -0.50900
O 	O 	0.00630 0.05132 0.75904 -0.42600
O 	O 	0.98190 0.21197 0.78254 -0.44600
O 	O 	0.95940 0.07873 0.46286 -0.56400
O 	O 	0.94680 0.22526 0.58792 -0.44600
O 	O 	0.62900 0.43904 0.40208 -0.47400
O 	O 	0.66650 0.43839 0.54258 -0.51200
O 	O 	0.49370 0.29228 0.24096 -0.41400
O 	O 	0.51810 0.42943 0.21746 -0.44700
O 	O 	0.54060 0.61587 0.53714 -0.57200
O 	O 	0.55320 0.63734 0.41208 -0.45100
O 	O 	0.87100 0.03696 0.59792 -0.46300
O 	O 	0.83350 0.89581 0.45742 -0.50900
