data_crystal

_cell_length_a 13.50950
_cell_length_b 14.53560
_cell_length_c 16.25250
_cell_angle_alpha 116.56300
_cell_angle_beta  99.02180
_cell_angle_gamma 90.00000

_symmetry_space_group_name_	'P 1'
_symmetry_space_group_name_H-M	'P 1'

loop_
_symmetry_equiv_pos_as_xyz
  x,y,z

loop_
_atom_site_label
_atom_site_type_symbol
_atom_site_fract_x
_atom_site_fract_y
_atom_site_fract_z
_atom_site_charge
La	La	0.45671 0.89516 0.36161 1.59700
La	La	0.04329 0.53355 0.63839 1.59700
La	La	0.54329 0.10484 0.63839 1.59700
La	La	0.95671 0.46645 0.36161 1.59700
H 	H 	0.56410 0.68140 0.05420 0.02000
H 	H 	0.62160 0.64400 0.91720 0.07600
H 	H 	0.60650 0.93750 0.96520 0.08700
H 	H 	0.55440 0.97660 0.10580 0.02500
H 	H 	0.64900 0.68500 0.79000 0.04000
H 	H 	0.57770 0.87830 0.67880 0.05600
H 	H 	0.76890 0.67880 0.70820 0.06700
H 	H 	0.69400 0.67920 0.45800 0.03600
H 	H 	0.93590 0.62720 0.94580 0.01700
H 	H 	0.87840 0.72680 0.08280 0.07900
H 	H 	0.89350 0.97230 0.03480 0.09000
H 	H 	0.94560 0.87080 0.89420 0.02200
H 	H 	0.85100 0.89500 0.21000 0.04200
H 	H 	0.92230 0.19950 0.32120 0.05600
H 	H 	0.73110 0.97060 0.29180 0.06500
H 	H 	0.80600 0.22120 0.54200 0.03600
H 	H 	0.43590 0.31860 0.94580 0.02000
H 	H 	0.37840 0.35600 0.08280 0.07600
H 	H 	0.39350 0.06250 0.03480 0.08700
H 	H 	0.44560 0.02340 0.89420 0.02500
H 	H 	0.35100 0.31500 0.21000 0.04000
H 	H 	0.42230 0.12170 0.32120 0.05600
H 	H 	0.23110 0.32120 0.29180 0.06700
H 	H 	0.30600 0.32080 0.54200 0.03600
H 	H 	0.06410 0.37280 0.05420 0.01700
H 	H 	0.12160 0.27320 0.91720 0.07900
H 	H 	0.10650 0.02770 0.96520 0.09000
H 	H 	0.05440 0.12920 0.10580 0.02200
H 	H 	0.14900 0.10500 0.79000 0.04200
H 	H 	0.07770 0.80050 0.67880 0.05600
H 	H 	0.26890 0.02940 0.70820 0.06500
H 	H 	0.19400 0.77880 0.45800 0.03600
C 	C 	0.51940 0.85979 0.18598 0.32800
C 	C 	0.55530 0.83440 0.09580 -0.12400
C 	C 	0.57400 0.73360 0.03740 0.05200
C 	C 	0.60720 0.71100 0.95480 -0.14200
C 	C 	0.61910 0.78700 0.92780 0.09100
C 	C 	0.59910 0.88610 0.98340 -0.13700
C 	C 	0.56750 0.90930 0.06780 0.05200
C 	C 	0.64380 0.75630 0.83400 -0.02000
C 	C 	0.56940 0.82571 0.49762 0.34700
C 	C 	0.62640 0.78426 0.55892 -0.09400
C 	C 	0.61680 0.82337 0.65254 -0.06000
C 	C 	0.66700 0.77909 0.70678 0.07400
C 	C 	0.73240 0.70424 0.67048 -0.05600
C 	C 	0.74410 0.66639 0.57658 -0.09400
C 	C 	0.68890 0.70568 0.52076 0.02500
C 	C 	0.81570 0.58614 0.53888 0.38400
C 	C 	0.98060 0.67381 0.81402 0.33100
C 	C 	0.94470 0.73860 0.90420 -0.13000
C 	C 	0.92600 0.69620 0.96260 0.06200
C 	C 	0.89280 0.75620 0.04520 -0.15200
C 	C 	0.88090 0.85920 0.07220 0.09800
C 	C 	0.90090 0.90270 0.01660 -0.14800
C 	C 	0.93250 0.84150 0.93220 0.06300
C 	C 	0.85620 0.92230 0.16600 -0.02500
C 	C 	0.93060 0.32809 0.50238 0.34800
C 	C 	0.87360 0.22534 0.44108 -0.09400
C 	C 	0.88320 0.17083 0.34746 -0.05900
C 	C 	0.83300 0.07231 0.29322 0.07300
C 	C 	0.76760 0.03376 0.32952 -0.05300
C 	C 	0.75590 0.08981 0.42342 -0.09500
C 	C 	0.81110 0.18492 0.47924 0.02500
C 	C 	0.68430 0.04726 0.46112 0.38500
C 	C 	0.48060 0.14021 0.81402 0.32800
C 	C 	0.44470 0.16560 0.90420 -0.12400
C 	C 	0.42600 0.26640 0.96260 0.05200
C 	C 	0.39280 0.28900 0.04520 -0.14200
C 	C 	0.38090 0.21300 0.07220 0.09100
C 	C 	0.40090 0.11390 0.01660 -0.13700
C 	C 	0.43250 0.09070 0.93220 0.05200
C 	C 	0.35620 0.24370 0.16600 -0.02000
C 	C 	0.43060 0.17429 0.50238 0.34700
C 	C 	0.37360 0.21574 0.44108 -0.09400
C 	C 	0.38320 0.17663 0.34746 -0.06000
C 	C 	0.33300 0.22091 0.29322 0.07400
C 	C 	0.26760 0.29576 0.32952 -0.05600
C 	C 	0.25590 0.33361 0.42342 -0.09400
C 	C 	0.31110 0.29432 0.47924 0.02500
C 	C 	0.18430 0.41386 0.46112 0.38400
C 	C 	0.01940 0.32619 0.18598 0.33100
C 	C 	0.05530 0.26140 0.09580 -0.13000
C 	C 	0.07400 0.30380 0.03740 0.06200
C 	C 	0.10720 0.24380 0.95480 -0.15200
C 	C 	0.11910 0.14080 0.92780 0.09800
C 	C 	0.09910 0.09730 0.98340 -0.14800
C 	C 	0.06750 0.15850 0.06780 0.06300
C 	C 	0.14380 0.07770 0.83400 -0.02500
C 	C 	0.06940 0.67191 0.49762 0.34800
C 	C 	0.12640 0.77466 0.55892 -0.09400
C 	C 	0.11680 0.82917 0.65254 -0.05900
C 	C 	0.16700 0.92769 0.70678 0.07300
C 	C 	0.23240 0.96624 0.67048 -0.05300
C 	C 	0.24410 0.91019 0.57658 -0.09500
C 	C 	0.18890 0.81508 0.52076 0.02500
C 	C 	0.31570 0.95274 0.53888 0.38500
N 	N 	0.64870 0.81828 0.80016 -0.11500
N 	N 	0.85130 0.01812 0.19984 -0.11300
N 	N 	0.35130 0.18172 0.19984 -0.11500
N 	N 	0.14870 0.98188 0.80016 -0.11300
O 	O 	0.51200 0.78723 0.20766 -0.40200
O 	O 	0.49850 0.94885 0.23570 -0.38000
O 	O 	0.55380 0.77249 0.41158 -0.39600
O 	O 	0.53730 0.91630 0.53640 -0.48100
O 	O 	0.86520 0.55720 0.59420 -0.41300
O 	O 	0.82320 0.55282 0.45444 -0.44500
O 	O 	0.98800 0.57957 0.79234 -0.40200
O 	O 	0.00150 0.71315 0.76430 -0.38100
O 	O 	0.94620 0.36091 0.58842 -0.39500
O 	O 	0.96270 0.37990 0.46360 -0.48100
O 	O 	0.63480 0.96300 0.40580 -0.41400
O 	O 	0.67680 0.09838 0.54556 -0.44500
O 	O 	0.48800 0.21277 0.79234 -0.40200
O 	O 	0.50150 0.05115 0.76430 -0.38000
O 	O 	0.44620 0.22751 0.58842 -0.39600
O 	O 	0.46270 0.08370 0.46360 -0.48100
O 	O 	0.13480 0.44280 0.40580 -0.41300
O 	O 	0.17680 0.44718 0.54556 -0.44500
O 	O 	0.01200 0.42043 0.20766 -0.40200
O 	O 	0.99850 0.28685 0.23570 -0.38100
O 	O 	0.05380 0.63909 0.41158 -0.39500
O 	O 	0.03730 0.62010 0.53640 -0.48100
O 	O 	0.36520 0.03700 0.59420 -0.41400
O 	O 	0.32320 0.90162 0.45444 -0.44500
