data_crystal

_cell_length_a 18.55640
_cell_length_b 18.55640
_cell_length_c 18.55640
_cell_angle_alpha 90.00000
_cell_angle_beta  90.00000
_cell_angle_gamma 90.00000

_symmetry_space_group_name_	'P 1'
_symmetry_space_group_name_H-M	'P 1'

loop_
_symmetry_equiv_pos_as_xyz
  x,y,z

loop_
_atom_site_label
_atom_site_type_symbol
_atom_site_fract_x
_atom_site_fract_y
_atom_site_fract_z
_atom_site_charge
N 	N 	0.37153 0.42154 0.07629 -0.21800
N 	N 	0.32637 0.41064 0.13058 -0.24500
N 	N 	0.62847 0.57846 0.07629 -0.21500
N 	N 	0.67363 0.58936 0.13058 -0.24200
N 	N 	0.62847 0.42154 0.92371 -0.17800
N 	N 	0.67363 0.41064 0.86942 -0.23200
N 	N 	0.37153 0.57846 0.92371 -0.17900
N 	N 	0.32637 0.58936 0.86942 -0.23400
N 	N 	0.07629 0.37153 0.42154 -0.21900
N 	N 	0.13058 0.32637 0.41064 -0.24600
N 	N 	0.07629 0.62847 0.57846 -0.21600
N 	N 	0.13058 0.67363 0.58936 -0.24200
N 	N 	0.92371 0.62847 0.42154 -0.17800
N 	N 	0.86942 0.67363 0.41064 -0.23200
N 	N 	0.92371 0.37153 0.57846 -0.17900
N 	N 	0.86942 0.32637 0.58936 -0.23400
N 	N 	0.42154 0.07629 0.37153 -0.21900
N 	N 	0.41064 0.13058 0.32637 -0.24600
N 	N 	0.57846 0.07629 0.62847 -0.21600
N 	N 	0.58936 0.13058 0.67363 -0.24200
N 	N 	0.42154 0.92371 0.62847 -0.17800
N 	N 	0.41064 0.86942 0.67363 -0.23200
N 	N 	0.57846 0.92371 0.37153 -0.17900
N 	N 	0.58936 0.86942 0.32637 -0.23400
N 	N 	0.42154 0.37153 0.92371 -0.18000
N 	N 	0.41064 0.32637 0.86942 -0.23500
N 	N 	0.57846 0.62847 0.92371 -0.17700
N 	N 	0.58936 0.67363 0.86942 -0.23100
N 	N 	0.42154 0.62847 0.07629 -0.21700
N 	N 	0.41064 0.67363 0.13058 -0.24300
N 	N 	0.57846 0.37153 0.07629 -0.21800
N 	N 	0.58936 0.32637 0.13058 -0.24500
N 	N 	0.37153 0.07629 0.57846 -0.21800
N 	N 	0.32637 0.13058 0.58936 -0.24500
N 	N 	0.62847 0.07629 0.42154 -0.21700
N 	N 	0.67363 0.13058 0.41064 -0.24300
N 	N 	0.62847 0.92371 0.57846 -0.17700
N 	N 	0.67363 0.86942 0.58936 -0.23100
N 	N 	0.37153 0.92371 0.42154 -0.18000
N 	N 	0.32637 0.86942 0.41064 -0.23500
N 	N 	0.07629 0.42154 0.62847 -0.21700
N 	N 	0.13058 0.41064 0.67363 -0.24300
N 	N 	0.07629 0.57846 0.37153 -0.21800
N 	N 	0.13058 0.58936 0.32637 -0.24500
N 	N 	0.92371 0.42154 0.37153 -0.18000
N 	N 	0.86942 0.41064 0.32637 -0.23500
N 	N 	0.92371 0.57846 0.62847 -0.17700
N 	N 	0.86942 0.58936 0.67363 -0.23100
N 	N 	0.62847 0.57846 0.92371 -0.17700
N 	N 	0.67363 0.58936 0.86942 -0.23100
N 	N 	0.37153 0.42154 0.92371 -0.18000
N 	N 	0.32637 0.41064 0.86942 -0.23500
N 	N 	0.37153 0.57846 0.07629 -0.21800
N 	N 	0.32637 0.58936 0.13058 -0.24500
N 	N 	0.62847 0.42154 0.07629 -0.21700
N 	N 	0.67363 0.41064 0.13058 -0.24300
N 	N 	0.92371 0.62847 0.57846 -0.17700
N 	N 	0.86942 0.67363 0.58936 -0.23100
N 	N 	0.92371 0.37153 0.42154 -0.18000
N 	N 	0.86942 0.32637 0.41064 -0.23500
N 	N 	0.07629 0.37153 0.57846 -0.21800
N 	N 	0.13058 0.32637 0.58936 -0.24500
N 	N 	0.07629 0.62847 0.42154 -0.21700
N 	N 	0.13058 0.67363 0.41064 -0.24300
N 	N 	0.57846 0.92371 0.62847 -0.17700
N 	N 	0.58936 0.86942 0.67363 -0.23100
N 	N 	0.42154 0.92371 0.37153 -0.18000
N 	N 	0.41064 0.86942 0.32637 -0.23500
N 	N 	0.57846 0.07629 0.37153 -0.21800
N 	N 	0.58936 0.13058 0.32637 -0.24500
N 	N 	0.42154 0.07629 0.62847 -0.21700
N 	N 	0.41064 0.13058 0.67363 -0.24300
N 	N 	0.57846 0.62847 0.07629 -0.21600
N 	N 	0.58936 0.67363 0.13058 -0.24200
N 	N 	0.42154 0.37153 0.07629 -0.21900
N 	N 	0.41064 0.32637 0.13058 -0.24600
N 	N 	0.57846 0.37153 0.92371 -0.17900
N 	N 	0.58936 0.32637 0.86942 -0.23400
N 	N 	0.42154 0.62847 0.92371 -0.17800
N 	N 	0.41064 0.67363 0.86942 -0.23200
N 	N 	0.62847 0.92371 0.42154 -0.17800
N 	N 	0.67363 0.86942 0.41064 -0.23200
N 	N 	0.37153 0.92371 0.57846 -0.17900
N 	N 	0.32637 0.86942 0.58936 -0.23400
N 	N 	0.37153 0.07629 0.42154 -0.21900
N 	N 	0.32637 0.13058 0.41064 -0.24600
N 	N 	0.62847 0.07629 0.57846 -0.21600
N 	N 	0.67363 0.13058 0.58936 -0.24200
N 	N 	0.92371 0.57846 0.37153 -0.17900
N 	N 	0.86942 0.58936 0.32637 -0.23400
N 	N 	0.92371 0.42154 0.62847 -0.17800
N 	N 	0.86942 0.41064 0.67363 -0.23200
N 	N 	0.07629 0.57846 0.62847 -0.21600
N 	N 	0.13058 0.58936 0.67363 -0.24200
N 	N 	0.07629 0.42154 0.37153 -0.21900
N 	N 	0.13058 0.41064 0.32637 -0.24600
Ni	Ni	0.36647 0.50000 -0.00000 0.95900
Ni	Ni	0.63353 0.50000 -0.00000 0.96200
Ni	Ni	-0.00000 0.36647 0.50000 0.95900
Ni	Ni	-0.00000 0.63353 0.50000 0.96200
Ni	Ni	0.50000 -0.00000 0.36647 0.95900
Ni	Ni	0.50000 -0.00000 0.63353 0.96200
Ni	Ni	0.50000 0.36647 -0.00000 0.95900
Ni	Ni	0.50000 0.63353 -0.00000 0.96200
Ni	Ni	0.36647 -0.00000 0.50000 0.95900
Ni	Ni	0.63353 -0.00000 0.50000 0.96200
Ni	Ni	0.00000 0.50000 0.63353 0.96200
Ni	Ni	-0.00000 0.50000 0.36647 0.95900
C 	C 	0.35110 0.35110 0.16260 0.15000
C 	C 	0.31700 0.31700 0.22550 -0.11100
C 	C 	0.64890 0.64890 0.16260 0.15700
C 	C 	0.68300 0.68300 0.22550 -0.10100
C 	C 	0.64890 0.35110 0.83740 0.16500
C 	C 	0.68300 0.31700 0.77450 -0.09800
C 	C 	0.35110 0.64890 0.83740 0.16500
C 	C 	0.31700 0.68300 0.77450 -0.09800
C 	C 	0.16260 0.35110 0.35110 0.15000
C 	C 	0.22550 0.31700 0.31700 -0.11100
C 	C 	0.16260 0.64890 0.64890 0.15700
C 	C 	0.22550 0.68300 0.68300 -0.10100
C 	C 	0.83740 0.64890 0.35110 0.16500
C 	C 	0.77450 0.68300 0.31700 -0.09800
C 	C 	0.83740 0.35110 0.64890 0.16500
C 	C 	0.77450 0.31700 0.68300 -0.09800
C 	C 	0.35110 0.16260 0.35110 0.15000
C 	C 	0.31700 0.22550 0.31700 -0.11100
C 	C 	0.64890 0.16260 0.64890 0.15700
C 	C 	0.68300 0.22550 0.68300 -0.10100
C 	C 	0.35110 0.83740 0.64890 0.16500
C 	C 	0.31700 0.77450 0.68300 -0.09800
C 	C 	0.64890 0.83740 0.35110 0.16500
C 	C 	0.68300 0.77450 0.31700 -0.09800
C 	C 	0.35110 0.35110 0.83740 0.16200
C 	C 	0.31700 0.31700 0.77450 -0.10300
C 	C 	0.64890 0.64890 0.83740 0.16900
C 	C 	0.68300 0.68300 0.77450 -0.09300
C 	C 	0.35110 0.64890 0.16260 0.15300
C 	C 	0.31700 0.68300 0.22550 -0.10600
C 	C 	0.64890 0.35110 0.16260 0.15300
C 	C 	0.68300 0.31700 0.22550 -0.10600
C 	C 	0.35110 0.16260 0.64890 0.15300
C 	C 	0.31700 0.22550 0.68300 -0.10600
C 	C 	0.64890 0.16260 0.35110 0.15300
C 	C 	0.68300 0.22550 0.31700 -0.10600
C 	C 	0.64890 0.83740 0.64890 0.16900
C 	C 	0.68300 0.77450 0.68300 -0.09300
C 	C 	0.35110 0.83740 0.35110 0.16200
C 	C 	0.31700 0.77450 0.31700 -0.10300
C 	C 	0.16260 0.35110 0.64890 0.15300
C 	C 	0.22550 0.31700 0.68300 -0.10600
C 	C 	0.16260 0.64890 0.35110 0.15300
C 	C 	0.22550 0.68300 0.31700 -0.10600
C 	C 	0.83740 0.35110 0.35110 0.16200
C 	C 	0.77450 0.31700 0.31700 -0.10300
C 	C 	0.83740 0.64890 0.64890 0.16900
C 	C 	0.77450 0.68300 0.68300 -0.09300
C 	C 	0.25580 0.34810 0.25580 0.05000
H 	H 	0.23550 0.38910 0.23550 -0.04200
C 	C 	0.74420 0.65190 0.25580 0.05500
H 	H 	0.76450 0.61090 0.23550 -0.03500
C 	C 	0.74420 0.34810 0.74420 0.05700
H 	H 	0.76450 0.38910 0.76450 -0.03100
C 	C 	0.25580 0.65190 0.74420 0.05500
H 	H 	0.23550 0.61090 0.76450 -0.03500
C 	C 	0.25580 0.25580 0.34810 0.05000
H 	H 	0.23550 0.23550 0.38910 -0.04200
C 	C 	0.25580 0.74420 0.65190 0.05500
H 	H 	0.23550 0.76450 0.61090 -0.03500
C 	C 	0.74420 0.74420 0.34810 0.05700
H 	H 	0.76450 0.76450 0.38910 -0.03100
C 	C 	0.74420 0.25580 0.65190 0.05500
H 	H 	0.76450 0.23550 0.61090 -0.03500
C 	C 	0.34810 0.25580 0.25580 0.05000
H 	H 	0.38910 0.23550 0.23550 -0.04200
C 	C 	0.65190 0.25580 0.74420 0.05500
H 	H 	0.61090 0.23550 0.76450 -0.03500
C 	C 	0.34810 0.74420 0.74420 0.05700
H 	H 	0.38910 0.76450 0.76450 -0.03100
C 	C 	0.65190 0.74420 0.25580 0.05500
H 	H 	0.61090 0.76450 0.23550 -0.03500
C 	C 	0.34810 0.25580 0.74420 0.05300
H 	H 	0.38910 0.23550 0.76450 -0.03700
C 	C 	0.65190 0.74420 0.74420 0.05900
H 	H 	0.61090 0.76450 0.76450 -0.03000
C 	C 	0.34810 0.74420 0.25580 0.05300
H 	H 	0.38910 0.76450 0.23550 -0.03700
C 	C 	0.65190 0.25580 0.25580 0.05200
H 	H 	0.61090 0.23550 0.23550 -0.04100
C 	C 	0.25580 0.25580 0.65190 0.05200
H 	H 	0.23550 0.23550 0.61090 -0.04100
C 	C 	0.74420 0.25580 0.34810 0.05300
H 	H 	0.76450 0.23550 0.38910 -0.03700
C 	C 	0.74420 0.74420 0.65190 0.05900
H 	H 	0.76450 0.76450 0.61090 -0.03000
C 	C 	0.25580 0.74420 0.34810 0.05300
H 	H 	0.23550 0.76450 0.38910 -0.03700
C 	C 	0.25580 0.34810 0.74420 0.05300
H 	H 	0.23550 0.38910 0.76450 -0.03700
C 	C 	0.25580 0.65190 0.25580 0.05200
H 	H 	0.23550 0.61090 0.23550 -0.04100
C 	C 	0.74420 0.34810 0.25580 0.05300
H 	H 	0.76450 0.38910 0.23550 -0.03700
C 	C 	0.74420 0.65190 0.74420 0.05900
H 	H 	0.76450 0.61090 0.76450 -0.03000
Cl	Cl	0.50000 0.50000 -0.00000 -0.90300
Cl	Cl	-0.00000 0.50000 0.50000 -0.90300
Cl	Cl	0.50000 -0.00000 0.50000 -0.90300
O 	O 	0.15390 0.50000 0.15390 -0.63200
Cl	Cl	0.27120 0.50000 0.27120 -0.56700
O 	O 	0.84610 0.50000 0.15390 -0.59100
Cl	Cl	0.72880 0.50000 0.27120 -0.56700
O 	O 	0.84610 0.50000 0.84610 -0.55000
Cl	Cl	0.72880 0.50000 0.72880 -0.56700
O 	O 	0.15390 0.50000 0.84610 -0.59100
Cl	Cl	0.27120 0.50000 0.72880 -0.56700
O 	O 	0.15390 0.15390 0.50000 -0.63200
Cl	Cl	0.27120 0.27120 0.50000 -0.56700
O 	O 	0.15390 0.84610 0.50000 -0.59100
Cl	Cl	0.27120 0.72880 0.50000 -0.56700
O 	O 	0.84610 0.84610 0.50000 -0.55000
Cl	Cl	0.72880 0.72880 0.50000 -0.56700
O 	O 	0.84610 0.15390 0.50000 -0.59100
Cl	Cl	0.72880 0.27120 0.50000 -0.56700
O 	O 	0.50000 0.15390 0.15390 -0.63200
Cl	Cl	0.50000 0.27120 0.27120 -0.56700
O 	O 	0.50000 0.15390 0.84610 -0.59100
Cl	Cl	0.50000 0.27120 0.72880 -0.56700
O 	O 	0.50000 0.84610 0.84610 -0.55000
Cl	Cl	0.50000 0.72880 0.72880 -0.56700
O 	O 	0.50000 0.84610 0.15390 -0.59100
Cl	Cl	0.50000 0.72880 0.27120 -0.56700
Ni	Ni	0.26048 0.50000 0.14052 0.99800
Ni	Ni	0.73952 0.50000 0.14052 1.00300
Ni	Ni	0.73952 0.50000 0.85948 1.02000
Ni	Ni	0.26048 0.50000 0.85948 1.01500
Ni	Ni	0.14052 0.26048 0.50000 0.99800
Ni	Ni	0.14052 0.73952 0.50000 1.00300
Ni	Ni	0.85948 0.73952 0.50000 1.02000
Ni	Ni	0.85948 0.26048 0.50000 1.01500
Ni	Ni	0.50000 0.14052 0.26048 0.99800
Ni	Ni	0.50000 0.14052 0.73952 1.00300
Ni	Ni	0.50000 0.85948 0.73952 1.02000
Ni	Ni	0.50000 0.85948 0.26048 1.01500
Ni	Ni	0.50000 0.26048 0.85948 1.01500
Ni	Ni	0.50000 0.73952 0.85948 1.02000
Ni	Ni	0.50000 0.73952 0.14052 1.00300
Ni	Ni	0.50000 0.26048 0.14052 0.99800
Ni	Ni	0.26048 0.14052 0.50000 0.99800
Ni	Ni	0.73952 0.14052 0.50000 1.00300
Ni	Ni	0.73952 0.85948 0.50000 1.02000
Ni	Ni	0.26048 0.85948 0.50000 1.01500
Ni	Ni	0.14052 0.50000 0.73952 1.00300
Ni	Ni	0.14052 0.50000 0.26048 0.99800
Ni	Ni	0.85948 0.50000 0.26048 1.01500
Ni	Ni	0.85948 0.50000 0.73952 1.02000
