data_crystal

_cell_length_a 18.64830
_cell_length_b 18.64830
_cell_length_c 18.64830
_cell_angle_alpha 90.00000
_cell_angle_beta  90.00000
_cell_angle_gamma 90.00000

_symmetry_space_group_name_	'P 1'
_symmetry_space_group_name_H-M	'P 1'

loop_
_symmetry_equiv_pos_as_xyz
  x,y,z

loop_
_atom_site_label
_atom_site_type_symbol
_atom_site_fract_x
_atom_site_fract_y
_atom_site_fract_z
_atom_site_charge
N 	N 	0.37103 0.42035 0.07702 -0.20600
N 	N 	0.32613 0.41040 0.13175 -0.22700
N 	N 	0.62897 0.57965 0.07702 -0.20400
N 	N 	0.67387 0.58960 0.13175 -0.22500
N 	N 	0.62897 0.42035 0.92298 -0.16800
N 	N 	0.67387 0.41040 0.86825 -0.21700
N 	N 	0.37103 0.57965 0.92298 -0.16900
N 	N 	0.32613 0.58960 0.86825 -0.21700
N 	N 	0.07702 0.37103 0.42035 -0.20600
N 	N 	0.13175 0.32613 0.41040 -0.22700
N 	N 	0.07702 0.62897 0.57965 -0.20400
N 	N 	0.13175 0.67387 0.58960 -0.22500
N 	N 	0.92298 0.62897 0.42035 -0.16800
N 	N 	0.86825 0.67387 0.41040 -0.21700
N 	N 	0.92298 0.37103 0.57965 -0.16900
N 	N 	0.86825 0.32613 0.58960 -0.21700
N 	N 	0.42035 0.07702 0.37103 -0.20600
N 	N 	0.41040 0.13175 0.32613 -0.22700
N 	N 	0.57965 0.07702 0.62897 -0.20400
N 	N 	0.58960 0.13175 0.67387 -0.22500
N 	N 	0.42035 0.92298 0.62897 -0.16800
N 	N 	0.41040 0.86825 0.67387 -0.21800
N 	N 	0.57965 0.92298 0.37103 -0.17000
N 	N 	0.58960 0.86825 0.32613 -0.21800
N 	N 	0.42035 0.37103 0.92298 -0.17000
N 	N 	0.41040 0.32613 0.86825 -0.21900
N 	N 	0.57965 0.62897 0.92298 -0.16800
N 	N 	0.58960 0.67387 0.86825 -0.21700
N 	N 	0.42035 0.62897 0.07702 -0.20500
N 	N 	0.41040 0.67387 0.13175 -0.22700
N 	N 	0.57965 0.37103 0.07702 -0.20600
N 	N 	0.58960 0.32613 0.13175 -0.22700
N 	N 	0.37103 0.07702 0.57965 -0.20600
N 	N 	0.32613 0.13175 0.58960 -0.22700
N 	N 	0.62897 0.07702 0.42035 -0.20500
N 	N 	0.67387 0.13175 0.41040 -0.22700
N 	N 	0.62897 0.92298 0.57965 -0.16800
N 	N 	0.67387 0.86825 0.58960 -0.21700
N 	N 	0.37103 0.92298 0.42035 -0.17000
N 	N 	0.32613 0.86825 0.41040 -0.21900
N 	N 	0.07702 0.42035 0.62897 -0.20500
N 	N 	0.13175 0.41040 0.67387 -0.22700
N 	N 	0.07702 0.57965 0.37103 -0.20600
N 	N 	0.13175 0.58960 0.32613 -0.22700
N 	N 	0.92298 0.42035 0.37103 -0.17000
N 	N 	0.86825 0.41040 0.32613 -0.21900
N 	N 	0.92298 0.57965 0.62897 -0.16800
N 	N 	0.86825 0.58960 0.67387 -0.21700
N 	N 	0.62897 0.57965 0.92298 -0.16800
N 	N 	0.67387 0.58960 0.86825 -0.21700
N 	N 	0.37103 0.42035 0.92298 -0.17000
N 	N 	0.32613 0.41040 0.86825 -0.21900
N 	N 	0.37103 0.57965 0.07702 -0.20600
N 	N 	0.32613 0.58960 0.13175 -0.22700
N 	N 	0.62897 0.42035 0.07702 -0.20500
N 	N 	0.67387 0.41040 0.13175 -0.22700
N 	N 	0.92298 0.62897 0.57965 -0.16800
N 	N 	0.86825 0.67387 0.58960 -0.21700
N 	N 	0.92298 0.37103 0.42035 -0.17000
N 	N 	0.86825 0.32613 0.41040 -0.21900
N 	N 	0.07702 0.37103 0.57965 -0.20600
N 	N 	0.13175 0.32613 0.58960 -0.22700
N 	N 	0.07702 0.62897 0.42035 -0.20500
N 	N 	0.13175 0.67387 0.41040 -0.22700
N 	N 	0.57965 0.92298 0.62897 -0.16800
N 	N 	0.58960 0.86825 0.67387 -0.21700
N 	N 	0.42035 0.92298 0.37103 -0.17000
N 	N 	0.41040 0.86825 0.32613 -0.21900
N 	N 	0.57965 0.07702 0.37103 -0.20600
N 	N 	0.58960 0.13175 0.32613 -0.22700
N 	N 	0.42035 0.07702 0.62897 -0.20500
N 	N 	0.41040 0.13175 0.67387 -0.22700
N 	N 	0.57965 0.62897 0.07702 -0.20500
N 	N 	0.58960 0.67387 0.13175 -0.22600
N 	N 	0.42035 0.37103 0.07702 -0.20700
N 	N 	0.41040 0.32613 0.13175 -0.22800
N 	N 	0.57965 0.37103 0.92298 -0.17000
N 	N 	0.58960 0.32613 0.86825 -0.21800
N 	N 	0.42035 0.62897 0.92298 -0.16900
N 	N 	0.41040 0.67387 0.86825 -0.21800
N 	N 	0.62897 0.92298 0.42035 -0.16900
N 	N 	0.67387 0.86825 0.41040 -0.21800
N 	N 	0.37103 0.92298 0.57965 -0.17000
N 	N 	0.32613 0.86825 0.58960 -0.21800
N 	N 	0.37103 0.07702 0.42035 -0.20700
N 	N 	0.32613 0.13175 0.41040 -0.22800
N 	N 	0.62897 0.07702 0.57965 -0.20500
N 	N 	0.67387 0.13175 0.58960 -0.22600
N 	N 	0.92298 0.57965 0.37103 -0.17000
N 	N 	0.86825 0.58960 0.32613 -0.21800
N 	N 	0.92298 0.42035 0.62897 -0.16900
N 	N 	0.86825 0.41040 0.67387 -0.21800
N 	N 	0.07702 0.57965 0.62897 -0.20500
N 	N 	0.13175 0.58960 0.67387 -0.22600
N 	N 	0.07702 0.42035 0.37103 -0.20700
N 	N 	0.13175 0.41040 0.32613 -0.22800
Ni	Ni	0.36564 0.50000 -0.00000 0.96600
Ni	Ni	0.63436 0.50000 -0.00000 0.96800
Ni	Ni	-0.00000 0.36564 0.50000 0.96600
Ni	Ni	0.00000 0.63436 0.50000 0.96800
Ni	Ni	0.50000 0.00000 0.36564 0.96600
Ni	Ni	0.50000 0.00000 0.63436 0.96800
Ni	Ni	0.50000 0.36564 -0.00000 0.96600
Ni	Ni	0.50000 0.63436 -0.00000 0.96800
Ni	Ni	0.36564 -0.00000 0.50000 0.96600
Ni	Ni	0.63436 -0.00000 0.50000 0.96800
Ni	Ni	0.00000 0.50000 0.63436 0.96800
Ni	Ni	0.00000 0.50000 0.36564 0.96600
Cl	Cl	0.50000 0.50000 -0.00000 -0.91600
Cl	Cl	-0.00000 0.50000 0.50000 -0.91600
Cl	Cl	0.50000 -0.00000 0.50000 -0.91600
C 	C 	0.35186 0.35186 0.16430 0.14600
C 	C 	0.31895 0.31895 0.22750 -0.12000
C 	C 	0.64814 0.64814 0.16430 0.15200
C 	C 	0.68105 0.68105 0.22750 -0.11800
C 	C 	0.64814 0.35186 0.83570 0.15900
C 	C 	0.68105 0.31895 0.77250 -0.11600
C 	C 	0.35186 0.64814 0.83570 0.15900
C 	C 	0.31895 0.68105 0.77250 -0.11600
C 	C 	0.16430 0.35186 0.35186 0.14600
C 	C 	0.22750 0.31895 0.31895 -0.12000
C 	C 	0.16430 0.64814 0.64814 0.15200
C 	C 	0.22750 0.68105 0.68105 -0.11800
C 	C 	0.83570 0.64814 0.35186 0.15900
C 	C 	0.77250 0.68105 0.31895 -0.11600
C 	C 	0.83570 0.35186 0.64814 0.15900
C 	C 	0.77250 0.31895 0.68105 -0.11600
C 	C 	0.35186 0.16430 0.35186 0.14600
C 	C 	0.31895 0.22750 0.31895 -0.12000
C 	C 	0.64814 0.16430 0.64814 0.15200
C 	C 	0.68105 0.22750 0.68105 -0.11800
C 	C 	0.35186 0.83570 0.64814 0.15900
C 	C 	0.31895 0.77250 0.68105 -0.11600
C 	C 	0.64814 0.83570 0.35186 0.15900
C 	C 	0.68105 0.77250 0.31895 -0.11600
C 	C 	0.35186 0.35186 0.83570 0.15600
C 	C 	0.31895 0.31895 0.77250 -0.11700
C 	C 	0.64814 0.64814 0.83570 0.16200
C 	C 	0.68105 0.68105 0.77250 -0.11500
C 	C 	0.35186 0.64814 0.16430 0.14900
C 	C 	0.31895 0.68105 0.22750 -0.11900
C 	C 	0.64814 0.35186 0.16430 0.14900
C 	C 	0.68105 0.31895 0.22750 -0.11900
C 	C 	0.35186 0.16430 0.64814 0.14900
C 	C 	0.31895 0.22750 0.68105 -0.11900
C 	C 	0.64814 0.16430 0.35186 0.14900
C 	C 	0.68105 0.22750 0.31895 -0.11900
C 	C 	0.64814 0.83570 0.64814 0.16200
C 	C 	0.68105 0.77250 0.68105 -0.11500
C 	C 	0.35186 0.83570 0.35186 0.15600
C 	C 	0.31895 0.77250 0.31895 -0.11700
C 	C 	0.16430 0.35186 0.64814 0.14900
C 	C 	0.22750 0.31895 0.68105 -0.11900
C 	C 	0.16430 0.64814 0.35186 0.14900
C 	C 	0.22750 0.68105 0.31895 -0.11900
C 	C 	0.83570 0.35186 0.35186 0.15600
C 	C 	0.77250 0.31895 0.31895 -0.11700
C 	C 	0.83570 0.64814 0.64814 0.16200
C 	C 	0.77250 0.68105 0.68105 -0.11500
C 	C 	0.25879 0.34970 0.25879 0.05400
H 	H 	0.23930 0.39130 0.23930 -0.05700
Cl	Cl	0.14260 0.42400 0.14260 -0.64200
C 	C 	0.74121 0.65030 0.25879 0.06300
H 	H 	0.76070 0.60870 0.23930 -0.05800
Cl	Cl	0.85740 0.57600 0.14260 -0.57800
C 	C 	0.74121 0.34970 0.74121 0.06500
H 	H 	0.76070 0.39130 0.76070 -0.05700
Cl	Cl	0.85740 0.42400 0.85740 -0.53400
C 	C 	0.25879 0.65030 0.74121 0.06300
H 	H 	0.23930 0.60870 0.76070 -0.05800
Cl	Cl	0.14260 0.57600 0.85740 -0.57800
C 	C 	0.25879 0.25879 0.34970 0.05400
H 	H 	0.23930 0.23930 0.39130 -0.05700
Cl	Cl	0.14260 0.14260 0.42400 -0.64200
C 	C 	0.25879 0.74121 0.65030 0.06300
H 	H 	0.23930 0.76070 0.60870 -0.05800
Cl	Cl	0.14260 0.85740 0.57600 -0.57800
C 	C 	0.74121 0.74121 0.34970 0.06500
H 	H 	0.76070 0.76070 0.39130 -0.05700
Cl	Cl	0.85740 0.85740 0.42400 -0.53400
C 	C 	0.74121 0.25879 0.65030 0.06300
H 	H 	0.76070 0.23930 0.60870 -0.05800
Cl	Cl	0.85740 0.14260 0.57600 -0.57800
C 	C 	0.34970 0.25879 0.25879 0.05400
H 	H 	0.39130 0.23930 0.23930 -0.05700
Cl	Cl	0.42400 0.14260 0.14260 -0.64200
C 	C 	0.65030 0.25879 0.74121 0.06300
H 	H 	0.60870 0.23930 0.76070 -0.05800
Cl	Cl	0.57600 0.14260 0.85740 -0.57800
C 	C 	0.34970 0.74121 0.74121 0.06500
H 	H 	0.39130 0.76070 0.76070 -0.05700
Cl	Cl	0.42400 0.85740 0.85740 -0.53400
C 	C 	0.65030 0.74121 0.25879 0.06300
H 	H 	0.60870 0.76070 0.23930 -0.05800
Cl	Cl	0.57600 0.85740 0.14260 -0.57800
C 	C 	0.34970 0.25879 0.74121 0.05900
H 	H 	0.39130 0.23930 0.76070 -0.05700
Cl	Cl	0.42400 0.14260 0.85740 -0.58800
C 	C 	0.65030 0.74121 0.74121 0.06900
H 	H 	0.60870 0.76070 0.76070 -0.05800
Cl	Cl	0.57600 0.85740 0.85740 -0.52500
C 	C 	0.34970 0.74121 0.25879 0.05900
H 	H 	0.39130 0.76070 0.23930 -0.05700
Cl	Cl	0.42400 0.85740 0.14260 -0.58800
C 	C 	0.65030 0.25879 0.25879 0.05800
H 	H 	0.60870 0.23930 0.23930 -0.05800
Cl	Cl	0.57600 0.14260 0.14260 -0.63200
C 	C 	0.25879 0.25879 0.65030 0.05800
H 	H 	0.23930 0.23930 0.60870 -0.05800
Cl	Cl	0.14260 0.14260 0.57600 -0.63200
C 	C 	0.74121 0.25879 0.34970 0.05900
H 	H 	0.76070 0.23930 0.39130 -0.05700
Cl	Cl	0.85740 0.14260 0.42400 -0.58800
C 	C 	0.74121 0.74121 0.65030 0.06900
H 	H 	0.76070 0.76070 0.60870 -0.05800
Cl	Cl	0.85740 0.85740 0.57600 -0.52500
C 	C 	0.25879 0.74121 0.34970 0.05900
H 	H 	0.23930 0.76070 0.39130 -0.05700
Cl	Cl	0.14260 0.85740 0.42400 -0.58800
C 	C 	0.25879 0.34970 0.74121 0.05900
H 	H 	0.23930 0.39130 0.76070 -0.05700
Cl	Cl	0.14260 0.42400 0.85740 -0.58800
C 	C 	0.25879 0.65030 0.25879 0.05800
H 	H 	0.23930 0.60870 0.23930 -0.05800
Cl	Cl	0.14260 0.57600 0.14260 -0.63200
C 	C 	0.74121 0.34970 0.25879 0.05900
H 	H 	0.76070 0.39130 0.23930 -0.05700
Cl	Cl	0.85740 0.42400 0.14260 -0.58800
C 	C 	0.74121 0.65030 0.74121 0.06900
H 	H 	0.76070 0.60870 0.76070 -0.05800
Cl	Cl	0.85740 0.57600 0.85740 -0.52500
Ni	Ni	0.24860 0.50000 0.13427 0.98600
Ni	Ni	0.75140 0.50000 0.13427 0.98600
Ni	Ni	0.75140 0.50000 0.86573 1.00000
Ni	Ni	0.24860 0.50000 0.86573 1.00000
Ni	Ni	0.13427 0.24860 0.50000 0.98600
Ni	Ni	0.13427 0.75140 0.50000 0.98600
Ni	Ni	0.86573 0.75140 0.50000 1.00000
Ni	Ni	0.86573 0.24860 0.50000 1.00000
Ni	Ni	0.50000 0.13427 0.24860 0.98600
Ni	Ni	0.50000 0.13427 0.75140 0.98600
Ni	Ni	0.50000 0.86573 0.75140 1.00000
Ni	Ni	0.50000 0.86573 0.24860 1.00000
Ni	Ni	0.50000 0.24860 0.86573 1.00000
Ni	Ni	0.50000 0.75140 0.86573 1.00000
Ni	Ni	0.50000 0.75140 0.13427 0.98600
Ni	Ni	0.50000 0.24860 0.13427 0.98600
Ni	Ni	0.24860 0.13427 0.50000 0.98600
Ni	Ni	0.75140 0.13427 0.50000 0.98600
Ni	Ni	0.75140 0.86573 0.50000 1.00000
Ni	Ni	0.24860 0.86573 0.50000 1.00000
Ni	Ni	0.13427 0.50000 0.75140 0.98600
Ni	Ni	0.13427 0.50000 0.24860 0.98600
Ni	Ni	0.86573 0.50000 0.24860 1.00000
Ni	Ni	0.86573 0.50000 0.75140 1.00000
