data_crystal

_cell_length_a 19.36200
_cell_length_b 19.36200
_cell_length_c 19.36200
_cell_angle_alpha 90.00000
_cell_angle_beta  90.00000
_cell_angle_gamma 90.00000

_symmetry_space_group_name_	'P 1'
_symmetry_space_group_name_H-M	'P 1'

loop_
_symmetry_equiv_pos_as_xyz
  x,y,z

loop_
_atom_site_label
_atom_site_type_symbol
_atom_site_fract_x
_atom_site_fract_y
_atom_site_fract_z
_atom_site_charge
N 	N 	0.36585 0.41388 0.08266 -0.23000
N 	N 	0.32375 0.40471 0.13615 -0.13400
N 	N 	0.63415 0.58612 0.08266 -0.22300
N 	N 	0.67625 0.59529 0.13615 -0.12200
N 	N 	0.63415 0.41388 0.91734 -0.17300
N 	N 	0.67625 0.40471 0.86385 -0.10300
N 	N 	0.36585 0.58612 0.91734 -0.17600
N 	N 	0.32375 0.59529 0.86385 -0.11000
N 	N 	0.08266 0.36585 0.41388 -0.23000
N 	N 	0.13615 0.32375 0.40471 -0.13400
N 	N 	0.08266 0.63415 0.58612 -0.22300
N 	N 	0.13615 0.67625 0.59529 -0.12200
N 	N 	0.91734 0.63415 0.41388 -0.17200
N 	N 	0.86385 0.67625 0.40471 -0.10200
N 	N 	0.91734 0.36585 0.58612 -0.17500
N 	N 	0.86385 0.32375 0.59529 -0.10900
N 	N 	0.41388 0.08266 0.36585 -0.22900
N 	N 	0.40471 0.13615 0.32375 -0.13300
N 	N 	0.58612 0.08266 0.63415 -0.22200
N 	N 	0.59529 0.13615 0.67625 -0.12100
N 	N 	0.41388 0.91734 0.63415 -0.17200
N 	N 	0.40471 0.86385 0.67625 -0.10200
N 	N 	0.58612 0.91734 0.36585 -0.17500
N 	N 	0.59529 0.86385 0.32375 -0.10900
N 	N 	0.41388 0.36585 0.91734 -0.17700
N 	N 	0.40471 0.32375 0.86385 -0.11200
N 	N 	0.58612 0.63415 0.91734 -0.16900
N 	N 	0.59529 0.67625 0.86385 -0.09900
N 	N 	0.41388 0.63415 0.08266 -0.22400
N 	N 	0.40471 0.67625 0.13615 -0.12300
N 	N 	0.58612 0.36585 0.08266 -0.22700
N 	N 	0.59529 0.32375 0.13615 -0.13100
N 	N 	0.36585 0.08266 0.58612 -0.22700
N 	N 	0.32375 0.13615 0.59529 -0.13100
N 	N 	0.63415 0.08266 0.41388 -0.22400
N 	N 	0.67625 0.13615 0.40471 -0.12300
N 	N 	0.63415 0.91734 0.58612 -0.16900
N 	N 	0.67625 0.86385 0.59529 -0.09900
N 	N 	0.36585 0.91734 0.41388 -0.17700
N 	N 	0.32375 0.86385 0.40471 -0.11200
N 	N 	0.08266 0.41388 0.63415 -0.22400
N 	N 	0.13615 0.40471 0.67625 -0.12300
N 	N 	0.08266 0.58612 0.36585 -0.22700
N 	N 	0.13615 0.59529 0.32375 -0.13100
N 	N 	0.91734 0.41388 0.36585 -0.17700
N 	N 	0.86385 0.40471 0.32375 -0.11200
N 	N 	0.91734 0.58612 0.63415 -0.16900
N 	N 	0.86385 0.59529 0.67625 -0.09900
N 	N 	0.63415 0.58612 0.91734 -0.16900
N 	N 	0.67625 0.59529 0.86385 -0.09900
N 	N 	0.36585 0.41388 0.91734 -0.17700
N 	N 	0.32375 0.40471 0.86385 -0.11200
N 	N 	0.36585 0.58612 0.08266 -0.22700
N 	N 	0.32375 0.59529 0.13615 -0.13100
N 	N 	0.63415 0.41388 0.08266 -0.22400
N 	N 	0.67625 0.40471 0.13615 -0.12300
N 	N 	0.91734 0.63415 0.58612 -0.16900
N 	N 	0.86385 0.67625 0.59529 -0.09900
N 	N 	0.91734 0.36585 0.41388 -0.17700
N 	N 	0.86385 0.32375 0.40471 -0.11200
N 	N 	0.08266 0.36585 0.58612 -0.22700
N 	N 	0.13615 0.32375 0.59529 -0.13100
N 	N 	0.08266 0.63415 0.41388 -0.22400
N 	N 	0.13615 0.67625 0.40471 -0.12300
N 	N 	0.58612 0.91734 0.63415 -0.16900
N 	N 	0.59529 0.86385 0.67625 -0.09900
N 	N 	0.41388 0.91734 0.36585 -0.17700
N 	N 	0.40471 0.86385 0.32375 -0.11200
N 	N 	0.58612 0.08266 0.36585 -0.22700
N 	N 	0.59529 0.13615 0.32375 -0.13100
N 	N 	0.41388 0.08266 0.63415 -0.22400
N 	N 	0.40471 0.13615 0.67625 -0.12300
N 	N 	0.58612 0.63415 0.08266 -0.22200
N 	N 	0.59529 0.67625 0.13615 -0.12100
N 	N 	0.41388 0.36585 0.08266 -0.22900
N 	N 	0.40471 0.32375 0.13615 -0.13300
N 	N 	0.58612 0.36585 0.91734 -0.17500
N 	N 	0.59529 0.32375 0.86385 -0.10900
N 	N 	0.41388 0.63415 0.91734 -0.17200
N 	N 	0.40471 0.67625 0.86385 -0.10200
N 	N 	0.63415 0.91734 0.41388 -0.17200
N 	N 	0.67625 0.86385 0.40471 -0.10200
N 	N 	0.36585 0.91734 0.58612 -0.17500
N 	N 	0.32375 0.86385 0.59529 -0.10900
N 	N 	0.36585 0.08266 0.41388 -0.22900
N 	N 	0.32375 0.13615 0.40471 -0.13300
N 	N 	0.63415 0.08266 0.58612 -0.22200
N 	N 	0.67625 0.13615 0.59529 -0.12100
N 	N 	0.91734 0.58612 0.36585 -0.17500
N 	N 	0.86385 0.59529 0.32375 -0.10900
N 	N 	0.91734 0.41388 0.63415 -0.17200
N 	N 	0.86385 0.40471 0.67625 -0.10200
N 	N 	0.08266 0.58612 0.63415 -0.22200
N 	N 	0.13615 0.59529 0.67625 -0.12100
N 	N 	0.08266 0.41388 0.36585 -0.22900
N 	N 	0.13615 0.40471 0.32375 -0.13300
Cd	Cd	0.35542 0.50000 -0.00000 1.08200
Cd	Cd	0.64458 0.50000 -0.00000 1.08900
Cd	Cd	0.00000 0.35542 0.50000 1.08200
Cd	Cd	0.00000 0.64458 0.50000 1.08900
Cd	Cd	0.50000 0.00000 0.35542 1.08200
Cd	Cd	0.50000 0.00000 0.64458 1.08900
Cd	Cd	0.50000 0.35542 -0.00000 1.08200
Cd	Cd	0.50000 0.64458 -0.00000 1.08900
Cd	Cd	0.35542 0.00000 0.50000 1.08200
Cd	Cd	0.64458 0.00000 0.50000 1.08900
Cd	Cd	0.00000 0.50000 0.64458 1.08900
Cd	Cd	0.00000 0.50000 0.35542 1.08200
C 	C 	0.34895 0.34895 0.16773 0.08700
C 	C 	0.31849 0.31849 0.23034 -0.01100
C 	C 	0.65105 0.65105 0.16773 0.09700
C 	C 	0.68151 0.68151 0.23034 0.01300
C 	C 	0.65105 0.34895 0.83227 0.10700
C 	C 	0.68151 0.31849 0.76966 0.01900
C 	C 	0.34895 0.65105 0.83227 0.10700
C 	C 	0.31849 0.68151 0.76966 0.01900
C 	C 	0.16773 0.34895 0.34895 0.08700
C 	C 	0.23034 0.31849 0.31849 -0.01100
C 	C 	0.16773 0.65105 0.65105 0.09700
C 	C 	0.23034 0.68151 0.68151 0.01300
C 	C 	0.83227 0.65105 0.34895 0.10700
C 	C 	0.76966 0.68151 0.31849 0.01900
C 	C 	0.83227 0.34895 0.65105 0.10700
C 	C 	0.76966 0.31849 0.68151 0.01900
C 	C 	0.34895 0.16773 0.34895 0.08700
C 	C 	0.31849 0.23034 0.31849 -0.01100
C 	C 	0.65105 0.16773 0.65105 0.09700
C 	C 	0.68151 0.23034 0.68151 0.01300
C 	C 	0.34895 0.83227 0.65105 0.10700
C 	C 	0.31849 0.76966 0.68151 0.01900
C 	C 	0.65105 0.83227 0.34895 0.10700
C 	C 	0.68151 0.76966 0.31849 0.01900
C 	C 	0.34895 0.34895 0.83227 0.10200
C 	C 	0.31849 0.31849 0.76966 0.00700
C 	C 	0.65105 0.65105 0.83227 0.11100
C 	C 	0.68151 0.68151 0.76966 0.03100
C 	C 	0.34895 0.65105 0.16773 0.09200
C 	C 	0.31849 0.68151 0.23034 0.00100
C 	C 	0.65105 0.34895 0.16773 0.09200
C 	C 	0.68151 0.31849 0.23034 0.00100
C 	C 	0.34895 0.16773 0.65105 0.09200
C 	C 	0.31849 0.23034 0.68151 0.00100
C 	C 	0.65105 0.16773 0.34895 0.09200
C 	C 	0.68151 0.23034 0.31849 0.00100
C 	C 	0.65105 0.83227 0.65105 0.11100
C 	C 	0.68151 0.76966 0.68151 0.03100
C 	C 	0.34895 0.83227 0.34895 0.10200
C 	C 	0.31849 0.76966 0.31849 0.00700
C 	C 	0.16773 0.34895 0.65105 0.09200
C 	C 	0.23034 0.31849 0.68151 0.00100
C 	C 	0.16773 0.65105 0.34895 0.09200
C 	C 	0.23034 0.68151 0.31849 0.00100
C 	C 	0.83227 0.34895 0.34895 0.10200
C 	C 	0.76966 0.31849 0.31849 0.00700
C 	C 	0.83227 0.65105 0.65105 0.11100
C 	C 	0.76966 0.68151 0.68151 0.03100
C 	C 	0.25984 0.34782 0.25984 -0.07700
H 	H 	0.24030 0.38710 0.24030 0.04100
C 	C 	0.74016 0.65218 0.25984 -0.08100
H 	H 	0.75970 0.61290 0.24030 0.06200
C 	C 	0.74016 0.34782 0.74016 -0.08100
H 	H 	0.75970 0.38710 0.75970 0.07400
C 	C 	0.25984 0.65218 0.74016 -0.08100
H 	H 	0.24030 0.61290 0.75970 0.06200
C 	C 	0.25984 0.25984 0.34782 -0.07700
H 	H 	0.24030 0.24030 0.38710 0.04100
C 	C 	0.25984 0.74016 0.65218 -0.08100
H 	H 	0.24030 0.75970 0.61290 0.06200
C 	C 	0.74016 0.74016 0.34782 -0.08100
H 	H 	0.75970 0.75970 0.38710 0.07400
C 	C 	0.74016 0.25984 0.65218 -0.08100
H 	H 	0.75970 0.24030 0.61290 0.06200
C 	C 	0.34782 0.25984 0.25984 -0.07700
H 	H 	0.38710 0.24030 0.24030 0.04100
C 	C 	0.65218 0.25984 0.74016 -0.08100
H 	H 	0.61290 0.24030 0.75970 0.06200
C 	C 	0.34782 0.74016 0.74016 -0.08100
H 	H 	0.38710 0.75970 0.75970 0.07400
C 	C 	0.65218 0.74016 0.25984 -0.08100
H 	H 	0.61290 0.75970 0.24030 0.06200
C 	C 	0.34782 0.25984 0.74016 -0.07900
H 	H 	0.38710 0.24030 0.75970 0.05700
C 	C 	0.65218 0.74016 0.74016 -0.08200
H 	H 	0.61290 0.75970 0.75970 0.07800
C 	C 	0.34782 0.74016 0.25984 -0.07900
H 	H 	0.38710 0.75970 0.24030 0.05700
C 	C 	0.65218 0.25984 0.25984 -0.07900
H 	H 	0.61290 0.24030 0.24030 0.04500
C 	C 	0.25984 0.25984 0.65218 -0.07900
H 	H 	0.24030 0.24030 0.61290 0.04500
C 	C 	0.74016 0.25984 0.34782 -0.07900
H 	H 	0.75970 0.24030 0.38710 0.05700
C 	C 	0.74016 0.74016 0.65218 -0.08200
H 	H 	0.75970 0.75970 0.61290 0.07800
C 	C 	0.25984 0.74016 0.34782 -0.07900
H 	H 	0.24030 0.75970 0.38710 0.05700
C 	C 	0.25984 0.34782 0.74016 -0.07900
H 	H 	0.24030 0.38710 0.75970 0.05700
C 	C 	0.25984 0.65218 0.25984 -0.07900
H 	H 	0.24030 0.61290 0.24030 0.04500
C 	C 	0.74016 0.34782 0.25984 -0.07900
H 	H 	0.75970 0.38710 0.24030 0.05700
C 	C 	0.74016 0.65218 0.74016 -0.08200
H 	H 	0.75970 0.61290 0.75970 0.07800
