data_crystal

_cell_length_a 19.29450
_cell_length_b 19.29450
_cell_length_c 19.29450
_cell_angle_alpha 90.00000
_cell_angle_beta  90.00000
_cell_angle_gamma 90.00000

_symmetry_space_group_name_	'P 1'
_symmetry_space_group_name_H-M	'P 1'

loop_
_symmetry_equiv_pos_as_xyz
  x,y,z

loop_
_atom_site_label
_atom_site_type_symbol
_atom_site_fract_x
_atom_site_fract_y
_atom_site_fract_z
_atom_site_charge
N 	N 	0.36620 0.41350 0.08200 -0.23400
N 	N 	0.32320 0.40400 0.13530 -0.26000
N 	N 	0.63380 0.58650 0.08200 -0.23300
N 	N 	0.67680 0.59600 0.13530 -0.25900
N 	N 	0.63380 0.41350 0.91800 -0.22600
N 	N 	0.67680 0.40400 0.86470 -0.25700
N 	N 	0.36620 0.58650 0.91800 -0.22700
N 	N 	0.32320 0.59600 0.86470 -0.25700
N 	N 	0.08200 0.36620 0.41350 -0.23400
N 	N 	0.13530 0.32320 0.40400 -0.25900
N 	N 	0.08200 0.63380 0.58650 -0.23200
N 	N 	0.13530 0.67680 0.59600 -0.25800
N 	N 	0.91800 0.63380 0.41350 -0.22500
N 	N 	0.86470 0.67680 0.40400 -0.25600
N 	N 	0.91800 0.36620 0.58650 -0.22600
N 	N 	0.86470 0.32320 0.59600 -0.25600
N 	N 	0.41350 0.08200 0.36620 -0.23300
N 	N 	0.40400 0.13530 0.32320 -0.25900
N 	N 	0.58650 0.08200 0.63380 -0.23200
N 	N 	0.59600 0.13530 0.67680 -0.25800
N 	N 	0.41350 0.91800 0.63380 -0.22500
N 	N 	0.40400 0.86470 0.67680 -0.25600
N 	N 	0.58650 0.91800 0.36620 -0.22600
N 	N 	0.59600 0.86470 0.32320 -0.25600
N 	N 	0.41350 0.36620 0.91800 -0.22600
N 	N 	0.40400 0.32320 0.86470 -0.25700
N 	N 	0.58650 0.63380 0.91800 -0.22500
N 	N 	0.59600 0.67680 0.86470 -0.25500
N 	N 	0.41350 0.63380 0.08200 -0.23300
N 	N 	0.40400 0.67680 0.13530 -0.25800
N 	N 	0.58650 0.36620 0.08200 -0.23300
N 	N 	0.59600 0.32320 0.13530 -0.25900
N 	N 	0.36620 0.08200 0.58650 -0.23300
N 	N 	0.32320 0.13530 0.59600 -0.25900
N 	N 	0.63380 0.08200 0.41350 -0.23300
N 	N 	0.67680 0.13530 0.40400 -0.25800
N 	N 	0.63380 0.91800 0.58650 -0.22500
N 	N 	0.67680 0.86470 0.59600 -0.25500
N 	N 	0.36620 0.91800 0.41350 -0.22600
N 	N 	0.32320 0.86470 0.40400 -0.25700
N 	N 	0.08200 0.41350 0.63380 -0.23300
N 	N 	0.13530 0.40400 0.67680 -0.25800
N 	N 	0.08200 0.58650 0.36620 -0.23300
N 	N 	0.13530 0.59600 0.32320 -0.25900
N 	N 	0.91800 0.41350 0.36620 -0.22600
N 	N 	0.86470 0.40400 0.32320 -0.25700
N 	N 	0.91800 0.58650 0.63380 -0.22500
N 	N 	0.86470 0.59600 0.67680 -0.25500
N 	N 	0.63380 0.58650 0.91800 -0.22500
N 	N 	0.67680 0.59600 0.86470 -0.25500
N 	N 	0.36620 0.41350 0.91800 -0.22600
N 	N 	0.32320 0.40400 0.86470 -0.25700
N 	N 	0.36620 0.58650 0.08200 -0.23300
N 	N 	0.32320 0.59600 0.13530 -0.25900
N 	N 	0.63380 0.41350 0.08200 -0.23300
N 	N 	0.67680 0.40400 0.13530 -0.25800
N 	N 	0.91800 0.63380 0.58650 -0.22500
N 	N 	0.86470 0.67680 0.59600 -0.25500
N 	N 	0.91800 0.36620 0.41350 -0.22600
N 	N 	0.86470 0.32320 0.40400 -0.25700
N 	N 	0.08200 0.36620 0.58650 -0.23300
N 	N 	0.13530 0.32320 0.59600 -0.25900
N 	N 	0.08200 0.63380 0.41350 -0.23300
N 	N 	0.13530 0.67680 0.40400 -0.25800
N 	N 	0.58650 0.91800 0.63380 -0.22500
N 	N 	0.59600 0.86470 0.67680 -0.25500
N 	N 	0.41350 0.91800 0.36620 -0.22600
N 	N 	0.40400 0.86470 0.32320 -0.25700
N 	N 	0.58650 0.08200 0.36620 -0.23300
N 	N 	0.59600 0.13530 0.32320 -0.25900
N 	N 	0.41350 0.08200 0.63380 -0.23300
N 	N 	0.40400 0.13530 0.67680 -0.25800
N 	N 	0.58650 0.63380 0.08200 -0.23200
N 	N 	0.59600 0.67680 0.13530 -0.25800
N 	N 	0.41350 0.36620 0.08200 -0.23300
N 	N 	0.40400 0.32320 0.13530 -0.25900
N 	N 	0.58650 0.36620 0.91800 -0.22600
N 	N 	0.59600 0.32320 0.86470 -0.25600
N 	N 	0.41350 0.63380 0.91800 -0.22500
N 	N 	0.40400 0.67680 0.86470 -0.25600
N 	N 	0.63380 0.91800 0.41350 -0.22500
N 	N 	0.67680 0.86470 0.40400 -0.25600
N 	N 	0.36620 0.91800 0.58650 -0.22600
N 	N 	0.32320 0.86470 0.59600 -0.25600
N 	N 	0.36620 0.08200 0.41350 -0.23300
N 	N 	0.32320 0.13530 0.40400 -0.25900
N 	N 	0.63380 0.08200 0.58650 -0.23200
N 	N 	0.67680 0.13530 0.59600 -0.25800
N 	N 	0.91800 0.58650 0.36620 -0.22600
N 	N 	0.86470 0.59600 0.32320 -0.25600
N 	N 	0.91800 0.41350 0.63380 -0.22500
N 	N 	0.86470 0.40400 0.67680 -0.25600
N 	N 	0.08200 0.58650 0.63380 -0.23200
N 	N 	0.13530 0.59600 0.67680 -0.25800
N 	N 	0.08200 0.41350 0.36620 -0.23300
N 	N 	0.13530 0.40400 0.32320 -0.25900
Cd	Cd	0.35474 0.50000 -0.00000 1.12300
Cl	Cl	0.22930 0.50000 -0.00000 -0.97600
Cd	Cd	0.64526 0.50000 -0.00000 1.12300
Cl	Cl	0.77070 0.50000 -0.00000 -0.96800
Cd	Cd	-0.00000 0.35474 0.50000 1.12300
Cl	Cl	0.00000 0.22930 0.50000 -0.97600
Cd	Cd	0.00000 0.64526 0.50000 1.12300
Cl	Cl	0.00000 0.77070 0.50000 -0.96800
Cd	Cd	0.50000 0.00000 0.35474 1.12300
Cl	Cl	0.50000 0.00000 0.22930 -0.97600
Cd	Cd	0.50000 0.00000 0.64526 1.12300
Cl	Cl	0.50000 0.00000 0.77070 -0.96800
Cd	Cd	0.50000 0.35474 -0.00000 1.12300
Cl	Cl	0.50000 0.22930 -0.00000 -0.97600
Cd	Cd	0.50000 0.64526 -0.00000 1.12300
Cl	Cl	0.50000 0.77070 -0.00000 -0.96800
Cd	Cd	0.35474 0.00000 0.50000 1.12300
Cl	Cl	0.22930 0.00000 0.50000 -0.97600
Cd	Cd	0.64526 0.00000 0.50000 1.12300
Cl	Cl	0.77070 0.00000 0.50000 -0.96800
Cd	Cd	0.00000 0.50000 0.64526 1.12300
Cl	Cl	-0.00000 0.50000 0.77070 -0.96800
Cd	Cd	0.00000 0.50000 0.35474 1.12300
Cl	Cl	0.00000 0.50000 0.22930 -0.97600
C 	C 	0.34750 0.34750 0.16780 0.12700
C 	C 	0.31570 0.31570 0.22800 -0.25100
C 	C 	0.65250 0.65250 0.16780 0.12800
C 	C 	0.68430 0.68430 0.22800 -0.24800
C 	C 	0.65250 0.34750 0.83220 0.13000
C 	C 	0.68430 0.31570 0.77200 -0.24700
C 	C 	0.34750 0.65250 0.83220 0.13000
C 	C 	0.31570 0.68430 0.77200 -0.24700
C 	C 	0.16780 0.34750 0.34750 0.12700
C 	C 	0.22800 0.31570 0.31570 -0.25100
C 	C 	0.16780 0.65250 0.65250 0.12800
C 	C 	0.22800 0.68430 0.68430 -0.24800
C 	C 	0.83220 0.65250 0.34750 0.13000
C 	C 	0.77200 0.68430 0.31570 -0.24700
C 	C 	0.83220 0.34750 0.65250 0.13000
C 	C 	0.77200 0.31570 0.68430 -0.24700
C 	C 	0.34750 0.16780 0.34750 0.12700
C 	C 	0.31570 0.22800 0.31570 -0.25100
C 	C 	0.65250 0.16780 0.65250 0.12800
C 	C 	0.68430 0.22800 0.68430 -0.24800
C 	C 	0.34750 0.83220 0.65250 0.13000
C 	C 	0.31570 0.77200 0.68430 -0.24700
C 	C 	0.65250 0.83220 0.34750 0.13000
C 	C 	0.68430 0.77200 0.31570 -0.24700
C 	C 	0.34750 0.34750 0.83220 0.12900
C 	C 	0.31570 0.31570 0.77200 -0.24900
C 	C 	0.65250 0.65250 0.83220 0.13000
C 	C 	0.68430 0.68430 0.77200 -0.24600
C 	C 	0.34750 0.65250 0.16780 0.12800
C 	C 	0.31570 0.68430 0.22800 -0.24900
C 	C 	0.65250 0.34750 0.16780 0.12800
C 	C 	0.68430 0.31570 0.22800 -0.24900
C 	C 	0.34750 0.16780 0.65250 0.12800
C 	C 	0.31570 0.22800 0.68430 -0.24900
C 	C 	0.65250 0.16780 0.34750 0.12800
C 	C 	0.68430 0.22800 0.31570 -0.24900
C 	C 	0.65250 0.83220 0.65250 0.13000
C 	C 	0.68430 0.77200 0.68430 -0.24600
C 	C 	0.34750 0.83220 0.34750 0.12900
C 	C 	0.31570 0.77200 0.31570 -0.24900
C 	C 	0.16780 0.34750 0.65250 0.12800
C 	C 	0.22800 0.31570 0.68430 -0.24900
C 	C 	0.16780 0.65250 0.34750 0.12800
C 	C 	0.22800 0.68430 0.31570 -0.24900
C 	C 	0.83220 0.34750 0.34750 0.12900
C 	C 	0.77200 0.31570 0.31570 -0.24900
C 	C 	0.83220 0.65250 0.65250 0.13000
C 	C 	0.77200 0.68430 0.68430 -0.24600
C 	C 	0.25760 0.34590 0.25760 0.14800
H 	H 	0.23870 0.38590 0.23870 -0.19100
C 	C 	0.74240 0.65410 0.25760 0.14800
H 	H 	0.76130 0.61410 0.23870 -0.18900
C 	C 	0.74240 0.34590 0.74240 0.14800
H 	H 	0.76130 0.38590 0.76130 -0.18800
C 	C 	0.25760 0.65410 0.74240 0.14800
H 	H 	0.23870 0.61410 0.76130 -0.18900
C 	C 	0.25760 0.25760 0.34590 0.14800
H 	H 	0.23870 0.23870 0.38590 -0.19100
C 	C 	0.25760 0.74240 0.65410 0.14800
H 	H 	0.23870 0.76130 0.61410 -0.18900
C 	C 	0.74240 0.74240 0.34590 0.14800
H 	H 	0.76130 0.76130 0.38590 -0.18800
C 	C 	0.74240 0.25760 0.65410 0.14800
H 	H 	0.76130 0.23870 0.61410 -0.18900
C 	C 	0.34590 0.25760 0.25760 0.14800
H 	H 	0.38590 0.23870 0.23870 -0.19100
C 	C 	0.65410 0.25760 0.74240 0.14800
H 	H 	0.61410 0.23870 0.76130 -0.18900
C 	C 	0.34590 0.74240 0.74240 0.14800
H 	H 	0.38590 0.76130 0.76130 -0.18800
C 	C 	0.65410 0.74240 0.25760 0.14800
H 	H 	0.61410 0.76130 0.23870 -0.18900
C 	C 	0.34590 0.25760 0.74240 0.14800
H 	H 	0.38590 0.23870 0.76130 -0.18900
C 	C 	0.65410 0.74240 0.74240 0.14800
H 	H 	0.61410 0.76130 0.76130 -0.18700
C 	C 	0.34590 0.74240 0.25760 0.14800
H 	H 	0.38590 0.76130 0.23870 -0.18900
C 	C 	0.65410 0.25760 0.25760 0.14800
H 	H 	0.61410 0.23870 0.23870 -0.19100
C 	C 	0.25760 0.25760 0.65410 0.14800
H 	H 	0.23870 0.23870 0.61410 -0.19100
C 	C 	0.74240 0.25760 0.34590 0.14800
H 	H 	0.76130 0.23870 0.38590 -0.18900
C 	C 	0.74240 0.74240 0.65410 0.14800
H 	H 	0.76130 0.76130 0.61410 -0.18700
C 	C 	0.25760 0.74240 0.34590 0.14800
H 	H 	0.23870 0.76130 0.38590 -0.18900
C 	C 	0.25760 0.34590 0.74240 0.14800
H 	H 	0.23870 0.38590 0.76130 -0.18900
C 	C 	0.25760 0.65410 0.25760 0.14800
H 	H 	0.23870 0.61410 0.23870 -0.19100
C 	C 	0.74240 0.34590 0.25760 0.14800
H 	H 	0.76130 0.38590 0.23870 -0.18900
C 	C 	0.74240 0.65410 0.74240 0.14800
H 	H 	0.76130 0.61410 0.76130 -0.18700
Cd	Cd	0.24430 0.50000 0.14600 1.05600
Cd	Cd	0.75570 0.50000 0.14600 1.05700
Cd	Cd	0.75570 0.50000 0.85400 1.06100
Cd	Cd	0.24430 0.50000 0.85400 1.05900
Cd	Cd	0.14600 0.24430 0.50000 1.05600
Cd	Cd	0.14600 0.75570 0.50000 1.05700
Cd	Cd	0.85400 0.75570 0.50000 1.06100
Cd	Cd	0.85400 0.24430 0.50000 1.05900
Cd	Cd	0.50000 0.14600 0.24430 1.05600
Cd	Cd	0.50000 0.14600 0.75570 1.05700
Cd	Cd	0.50000 0.85400 0.75570 1.06100
Cd	Cd	0.50000 0.85400 0.24430 1.05900
Cd	Cd	0.50000 0.24430 0.85400 1.05900
Cd	Cd	0.50000 0.75570 0.85400 1.06100
Cd	Cd	0.50000 0.75570 0.14600 1.05700
Cd	Cd	0.50000 0.24430 0.14600 1.05600
Cd	Cd	0.24430 0.14600 0.50000 1.05600
Cd	Cd	0.75570 0.14600 0.50000 1.05700
Cd	Cd	0.75570 0.85400 0.50000 1.06100
Cd	Cd	0.24430 0.85400 0.50000 1.05900
Cd	Cd	0.14600 0.50000 0.75570 1.05700
Cd	Cd	0.14600 0.50000 0.24430 1.05600
Cd	Cd	0.85400 0.50000 0.24430 1.05900
Cd	Cd	0.85400 0.50000 0.75570 1.06100
