data_crystal

_cell_length_a 15.25100
_cell_length_b 21.50410
_cell_length_c 22.80790
_cell_angle_alpha 118.12600
_cell_angle_beta  107.65100
_cell_angle_gamma 90.00000

_symmetry_space_group_name_	'P 1'
_symmetry_space_group_name_H-M	'P 1'

loop_
_symmetry_equiv_pos_as_xyz
  x,y,z

loop_
_atom_site_label
_atom_site_type_symbol
_atom_site_fract_x
_atom_site_fract_y
_atom_site_fract_z
_atom_site_charge
Mn	Mn	0.36009 0.22404 0.53222 1.29100
Mn	Mn	0.11202 0.17108 0.43642 1.28500
Mn	Mn	0.01845 0.60364 0.06628 1.24600
Mn	Mn	0.13991 0.69182 0.46778 1.29100
Mn	Mn	0.38798 0.73466 0.56358 1.28500
Mn	Mn	0.48155 0.53736 0.93372 1.24600
Mn	Mn	0.63991 0.77596 0.46778 1.29100
Mn	Mn	0.88798 0.82892 0.56358 1.28500
Mn	Mn	0.98155 0.39636 0.93372 1.24500
Mn	Mn	0.86009 0.30818 0.53222 1.29000
Mn	Mn	0.61202 0.26534 0.43642 1.28400
Mn	Mn	0.51845 0.46264 0.06628 1.24500
P 	P 	0.99063 0.99639 0.31594 0.23500
P 	P 	0.47893 0.17750 0.66088 0.24300
P 	P 	0.50937 0.68045 0.68406 0.23500
P 	P 	0.02107 0.51662 0.33912 0.24300
P 	P 	0.00937 0.00361 0.68406 0.23500
P 	P 	0.52107 0.82250 0.33912 0.24300
P 	P 	0.49063 0.31955 0.31594 0.23500
P 	P 	0.97893 0.48338 0.66088 0.24300
H 	H 	0.56780 0.20020 0.58080 0.01800
H 	H 	0.84040 0.27620 0.70420 0.04200
H 	H 	0.81140 0.25770 0.79040 0.04500
H 	H 	0.62570 0.04150 0.28300 0.02800
H 	H 	0.65460 0.93180 0.20640 0.05700
H 	H 	0.58980 0.06700 0.61460 0.04800
H 	H 	0.41430 0.88300 0.53600 0.03700
H 	H 	0.29530 0.94880 0.56000 0.05400
H 	H 	0.32160 0.07290 0.61080 0.06200
H 	H 	0.10480 0.87120 0.48340 0.04300
H 	H 	0.90080 0.94510 0.38420 0.04800
H 	H 	0.15690 0.95270 0.36720 0.06000
H 	H 	0.20730 0.90000 0.43780 0.05700
H 	H 	0.90390 0.10790 0.39040 0.01300
H 	H 	0.80780 0.91030 0.21780 0.03000
H 	H 	0.99950 0.84320 0.23740 0.04800
H 	H 	0.99210 0.81220 0.04600 0.04200
H 	H 	0.98650 0.93380 0.08480 0.04800
H 	H 	0.98700 0.00920 0.19860 0.04300
H 	H 	0.45610 0.31000 0.76000 0.04200
H 	H 	0.48610 0.12070 0.75620 0.03400
H 	H 	0.48310 0.17270 0.87200 0.05100
H 	H 	0.47430 0.29340 0.93340 0.03000
H 	H 	0.65910 0.22020 0.77580 0.02600
H 	H 	0.93220 0.61940 0.41920 0.01800
H 	H 	0.65960 0.57200 0.29580 0.04200
H 	H 	0.68860 0.46730 0.20960 0.04500
H 	H 	0.87430 0.75850 0.71700 0.02800
H 	H 	0.84540 0.72540 0.79360 0.05700
H 	H 	0.91020 0.45240 0.38540 0.04800
H 	H 	0.08570 0.34700 0.46400 0.03700
H 	H 	0.20470 0.38880 0.44000 0.05400
H 	H 	0.17840 0.46210 0.38920 0.06200
H 	H 	0.39520 0.38780 0.51660 0.04300
H 	H 	0.59920 0.56090 0.61580 0.04800
H 	H 	0.34310 0.58550 0.63280 0.06000
H 	H 	0.29270 0.46220 0.56220 0.05700
H 	H 	0.59610 0.71750 0.60960 0.01300
H 	H 	0.69220 0.69250 0.78220 0.03100
H 	H 	0.50050 0.60580 0.76260 0.04800
H 	H 	0.50790 0.76620 0.95400 0.04200
H 	H 	0.51350 0.84900 0.91520 0.04800
H 	H 	0.51300 0.81060 0.80140 0.04300
H 	H 	0.04390 0.55000 0.24000 0.04100
H 	H 	0.01390 0.36450 0.24380 0.03400
H 	H 	0.01690 0.30070 0.12800 0.05100
H 	H 	0.02570 0.36000 0.06660 0.03000
H 	H 	0.84090 0.44440 0.22420 0.02600
H 	H 	0.43220 0.79980 0.41920 0.01800
H 	H 	0.15960 0.72380 0.29580 0.04200
H 	H 	0.18860 0.74230 0.20960 0.04500
H 	H 	0.37430 0.95850 0.71700 0.02800
H 	H 	0.34540 0.06820 0.79360 0.05700
H 	H 	0.41020 0.93300 0.38540 0.04800
H 	H 	0.58570 0.11700 0.46400 0.03700
H 	H 	0.70470 0.05120 0.44000 0.05400
H 	H 	0.67840 0.92710 0.38920 0.06200
H 	H 	0.89520 0.12880 0.51660 0.04300
H 	H 	0.09920 0.05490 0.61580 0.04800
H 	H 	0.84310 0.04730 0.63280 0.06000
H 	H 	0.79270 0.10000 0.56220 0.05700
H 	H 	0.09610 0.89210 0.60960 0.01300
H 	H 	0.19220 0.08970 0.78220 0.03000
H 	H 	0.00050 0.15680 0.76260 0.04800
H 	H 	0.00790 0.18780 0.95400 0.04200
H 	H 	0.01350 0.06620 0.91520 0.04800
H 	H 	0.01300 0.99080 0.80140 0.04300
H 	H 	0.54390 0.69000 0.24000 0.04200
H 	H 	0.51390 0.87930 0.24380 0.03400
H 	H 	0.51690 0.82730 0.12800 0.05100
H 	H 	0.52570 0.70660 0.06660 0.03000
H 	H 	0.34090 0.77980 0.22420 0.02600
H 	H 	0.06780 0.38060 0.58080 0.01800
H 	H 	0.34040 0.42800 0.70420 0.04200
H 	H 	0.31140 0.53270 0.79040 0.04500
H 	H 	0.12570 0.24150 0.28300 0.02800
H 	H 	0.15460 0.27460 0.20640 0.05700
H 	H 	0.08980 0.54760 0.61460 0.04800
H 	H 	0.91430 0.65300 0.53600 0.03700
H 	H 	0.79530 0.61120 0.56000 0.05400
H 	H 	0.82160 0.53790 0.61080 0.06200
H 	H 	0.60480 0.61220 0.48340 0.04300
H 	H 	0.40080 0.43910 0.38420 0.04800
H 	H 	0.65690 0.41450 0.36720 0.06000
H 	H 	0.70730 0.53780 0.43780 0.05700
H 	H 	0.40390 0.28250 0.39040 0.01300
H 	H 	0.30780 0.30750 0.21780 0.03100
H 	H 	0.49950 0.39420 0.23740 0.04800
H 	H 	0.49210 0.23380 0.04600 0.04200
H 	H 	0.48650 0.15100 0.08480 0.04800
H 	H 	0.48700 0.18940 0.19860 0.04300
H 	H 	0.95610 0.45000 0.76000 0.04100
H 	H 	0.98610 0.63550 0.75620 0.03400
H 	H 	0.98310 0.69930 0.87200 0.05100
H 	H 	0.97430 0.64000 0.93340 0.03000
H 	H 	0.15910 0.55560 0.77580 0.02600
C 	C 	0.61683 0.21392 0.62428 0.02200
C 	C 	0.70680 0.24168 0.63470 -0.11700
C 	C 	0.77890 0.25809 0.69690 0.02400
C 	C 	0.76150 0.24818 0.74874 -0.07900
C 	C 	0.72300 0.25801 0.58106 0.39900
C 	C 	0.74680 0.15830 0.39278 0.39100
C 	C 	0.76200 0.08617 0.34362 -0.12400
C 	C 	0.68810 0.03311 0.28894 0.03300
C 	C 	0.70550 0.96804 0.24308 -0.08500
C 	C 	0.59167 0.92819 0.55760 0.33000
C 	C 	0.52990 0.04312 0.60368 -0.00300
C 	C 	0.51327 0.96930 0.57302 -0.07700
C 	C 	0.42570 0.93365 0.55676 -0.00300
C 	C 	0.35520 0.97304 0.57124 -0.05100
C 	C 	0.37050 0.04667 0.60160 -0.01800
C 	C 	0.92510 0.88651 0.46636 0.32700
C 	C 	0.99250 0.90514 0.43792 -0.07300
C 	C 	0.08410 0.89201 0.45406 -0.00500
C 	C 	0.96300 0.93624 0.39550 -0.00300
C 	C 	0.02440 0.95446 0.36960 -0.04900
C 	C 	0.11530 0.94062 0.38532 -0.01500
C 	C 	0.14530 0.90948 0.42722 -0.04600
C 	C 	0.85320 0.07259 0.35200 0.03100
C 	C 	0.87040 0.00798 0.30478 -0.07500
C 	C 	0.79640 0.95483 0.24994 0.00200
C 	C 	0.99260 0.93356 0.22954 -0.04500
C 	C 	0.99740 0.86168 0.20664 -0.01000
C 	C 	0.99900 0.81611 0.13834 -0.07600
C 	C 	0.99330 0.84310 0.09286 -0.00500
C 	C 	0.98920 0.91539 0.11580 -0.05900
C 	C 	0.98930 0.95997 0.18322 -0.01800
C 	C 	0.00660 0.73877 0.11396 0.30500
C 	C 	0.45840 0.39102 0.89126 0.39200
C 	C 	0.46330 0.31330 0.85200 -0.13200
C 	C 	0.46230 0.28224 0.78288 0.02100
C 	C 	0.47030 0.21011 0.74690 -0.06000
C 	C 	0.47950 0.16941 0.78020 -0.01300
C 	C 	0.47900 0.20084 0.84960 -0.07400
C 	C 	0.47260 0.27219 0.88586 0.01400
C 	C 	0.45980 0.08233 0.61862 -0.05000
C 	C 	0.59880 0.20633 0.67678 -0.07400
C 	C 	0.67140 0.22434 0.73934 -0.00500
C 	C 	0.88317 0.58964 0.37572 0.02200
C 	C 	0.79320 0.60698 0.36530 -0.11700
C 	C 	0.72110 0.56119 0.30310 0.02400
C 	C 	0.73850 0.49944 0.25126 -0.07900
C 	C 	0.77700 0.67695 0.41894 0.39900
C 	C 	0.75320 0.76552 0.60722 0.39100
C 	C 	0.73800 0.74255 0.65638 -0.12300
C 	C 	0.81190 0.74417 0.71106 0.03300
C 	C 	0.79450 0.72496 0.75692 -0.08400
C 	C 	0.90833 0.37059 0.44240 0.33000
C 	C 	0.97010 0.43944 0.39632 -0.00300
C 	C 	0.98673 0.39628 0.42698 -0.07700
C 	C 	0.07430 0.37689 0.44324 -0.00300
C 	C 	0.14480 0.40180 0.42876 -0.05100
C 	C 	0.12950 0.44507 0.39840 -0.01700
C 	C 	0.57490 0.42015 0.53364 0.32700
C 	C 	0.50750 0.46722 0.56208 -0.07300
C 	C 	0.41590 0.43795 0.54594 -0.00500
C 	C 	0.53700 0.54074 0.60450 -0.00400
C 	C 	0.47560 0.58486 0.63040 -0.04800
C 	C 	0.38470 0.55530 0.61468 -0.01600
C 	C 	0.35470 0.48226 0.57278 -0.04600
C 	C 	0.64680 0.72059 0.64800 0.03100
C 	C 	0.62960 0.70320 0.69522 -0.07400
C 	C 	0.70360 0.70489 0.75006 0.00100
C 	C 	0.50740 0.70402 0.77046 -0.04600
C 	C 	0.50260 0.65504 0.79336 -0.01000
C 	C 	0.50100 0.67777 0.86166 -0.07600
C 	C 	0.50670 0.75024 0.90714 -0.00400
C 	C 	0.51080 0.79959 0.88420 -0.05900
C 	C 	0.51070 0.77675 0.81678 -0.01800
C 	C 	0.49340 0.62481 0.88604 0.30600
C 	C 	0.04160 0.49976 0.10874 0.39200
C 	C 	0.03670 0.46130 0.14800 -0.13200
C 	C 	0.03770 0.49936 0.21712 0.02100
C 	C 	0.02970 0.46321 0.25310 -0.06000
C 	C 	0.02050 0.38921 0.21980 -0.01300
C 	C 	0.02100 0.35124 0.15040 -0.07400
C 	C 	0.02740 0.38633 0.11414 0.01400
C 	C 	0.04020 0.46371 0.38138 -0.05000
C 	C 	0.90120 0.52955 0.32322 -0.07400
C 	C 	0.82860 0.48500 0.26066 -0.00500
C 	C 	0.38317 0.78608 0.37572 0.02200
C 	C 	0.29320 0.75832 0.36530 -0.11700
C 	C 	0.22110 0.74191 0.30310 0.02400
C 	C 	0.23850 0.75182 0.25126 -0.07900
C 	C 	0.27700 0.74199 0.41894 0.39900
C 	C 	0.25320 0.84170 0.60722 0.39100
C 	C 	0.23800 0.91383 0.65638 -0.12400
C 	C 	0.31190 0.96689 0.71106 0.03300
C 	C 	0.29450 0.03196 0.75692 -0.08500
C 	C 	0.40833 0.07181 0.44240 0.33000
C 	C 	0.47010 0.95688 0.39632 -0.00300
C 	C 	0.48673 0.03070 0.42698 -0.07700
C 	C 	0.57430 0.06635 0.44324 -0.00300
C 	C 	0.64480 0.02696 0.42876 -0.05100
C 	C 	0.62950 0.95333 0.39840 -0.01800
C 	C 	0.07490 0.11349 0.53364 0.32700
C 	C 	0.00750 0.09486 0.56208 -0.07300
C 	C 	0.91590 0.10799 0.54594 -0.00500
C 	C 	0.03700 0.06376 0.60450 -0.00300
C 	C 	0.97560 0.04554 0.63040 -0.04900
C 	C 	0.88470 0.05938 0.61468 -0.01500
C 	C 	0.85470 0.09052 0.57278 -0.04600
C 	C 	0.14680 0.92741 0.64800 0.03100
C 	C 	0.12960 0.99202 0.69522 -0.07500
C 	C 	0.20360 0.04517 0.75006 0.00200
C 	C 	0.00740 0.06644 0.77046 -0.04500
C 	C 	0.00260 0.13832 0.79336 -0.01000
C 	C 	0.00100 0.18389 0.86166 -0.07600
C 	C 	0.00670 0.15690 0.90714 -0.00500
C 	C 	0.01080 0.08461 0.88420 -0.05900
C 	C 	0.01070 0.04003 0.81678 -0.01800
C 	C 	0.99340 0.26123 0.88604 0.30500
C 	C 	0.54160 0.60898 0.10874 0.39200
C 	C 	0.53670 0.68670 0.14800 -0.13200
C 	C 	0.53770 0.71776 0.21712 0.02100
C 	C 	0.52970 0.78989 0.25310 -0.06000
C 	C 	0.52050 0.83059 0.21980 -0.01300
C 	C 	0.52100 0.79916 0.15040 -0.07400
C 	C 	0.52740 0.72781 0.11414 0.01400
C 	C 	0.54020 0.91767 0.38138 -0.05000
C 	C 	0.40120 0.79367 0.32322 -0.07400
C 	C 	0.32860 0.77566 0.26066 -0.00500
C 	C 	0.11683 0.41036 0.62428 0.02200
C 	C 	0.20680 0.39302 0.63470 -0.11700
C 	C 	0.27890 0.43881 0.69690 0.02400
C 	C 	0.26150 0.50056 0.74874 -0.07900
C 	C 	0.22300 0.32305 0.58106 0.39900
C 	C 	0.24680 0.23448 0.39278 0.39100
C 	C 	0.26200 0.25745 0.34362 -0.12300
C 	C 	0.18810 0.25583 0.28894 0.03300
C 	C 	0.20550 0.27504 0.24308 -0.08400
C 	C 	0.09167 0.62941 0.55760 0.33000
C 	C 	0.02990 0.56056 0.60368 -0.00300
C 	C 	0.01327 0.60372 0.57302 -0.07700
C 	C 	0.92570 0.62311 0.55676 -0.00300
C 	C 	0.85520 0.59820 0.57124 -0.05100
C 	C 	0.87050 0.55493 0.60160 -0.01700
C 	C 	0.42510 0.57985 0.46636 0.32700
C 	C 	0.49250 0.53278 0.43792 -0.07300
C 	C 	0.58410 0.56205 0.45406 -0.00500
C 	C 	0.46300 0.45926 0.39550 -0.00400
C 	C 	0.52440 0.41514 0.36960 -0.04800
C 	C 	0.61530 0.44470 0.38532 -0.01600
C 	C 	0.64530 0.51774 0.42722 -0.04600
C 	C 	0.35320 0.27941 0.35200 0.03100
C 	C 	0.37040 0.29680 0.30478 -0.07400
C 	C 	0.29640 0.29511 0.24994 0.00100
C 	C 	0.49260 0.29598 0.22954 -0.04600
C 	C 	0.49740 0.34496 0.20664 -0.01000
C 	C 	0.49900 0.32223 0.13834 -0.07600
C 	C 	0.49330 0.24976 0.09286 -0.00400
C 	C 	0.48920 0.20041 0.11580 -0.05900
C 	C 	0.48930 0.22325 0.18322 -0.01800
C 	C 	0.50660 0.37519 0.11396 0.30600
C 	C 	0.95840 0.50024 0.89126 0.39200
C 	C 	0.96330 0.53870 0.85200 -0.13200
C 	C 	0.96230 0.50064 0.78288 0.02100
C 	C 	0.97030 0.53679 0.74690 -0.06000
C 	C 	0.97950 0.61079 0.78020 -0.01300
C 	C 	0.97900 0.64876 0.84960 -0.07400
C 	C 	0.97260 0.61367 0.88586 0.01400
C 	C 	0.95980 0.53629 0.61862 -0.05000
C 	C 	0.09880 0.47045 0.67678 -0.07400
C 	C 	0.17140 0.51500 0.73934 -0.00500
O 	O 	0.65262 0.24823 0.52898 -0.45900
O 	O 	0.80456 0.28271 0.59400 -0.46000
O 	O 	0.23732 0.13708 0.48444 -0.39100
O 	O 	0.81347 0.19769 0.44814 -0.46700
O 	O 	0.66750 0.17523 0.37358 -0.44900
O 	O 	0.41329 0.20631 0.62052 -0.37400
O 	O 	0.57247 0.86041 0.52848 -0.41600
O 	O 	0.95566 0.85894 0.50544 -0.40800
O 	O 	0.84326 0.89766 0.44818 -0.25100
O 	O 	0.05371 0.06540 0.34570 -0.37100
O 	O 	0.66912 0.96199 0.57360 -0.25400
O 	O 	0.01180 0.70068 0.05406 -0.42200
O 	O 	0.01036 0.71461 0.15454 -0.39700
O 	O 	0.47040 0.42016 0.95476 -0.56800
O 	O 	0.44549 0.42497 0.85724 -0.46600
O 	O 	0.84738 0.71925 0.47102 -0.45900
O 	O 	0.69544 0.68871 0.40600 -0.46000
O 	O 	0.26268 0.65264 0.51556 -0.39100
O 	O 	0.68653 0.74955 0.55186 -0.46700
O 	O 	0.83250 0.80165 0.62642 -0.44900
O 	O 	0.08671 0.58579 0.37948 -0.37400
O 	O 	0.92753 0.33193 0.47152 -0.41700
O 	O 	0.54434 0.35350 0.49456 -0.40800
O 	O 	0.65674 0.44948 0.55182 -0.25100
O 	O 	0.44629 0.71970 0.65430 -0.37100
O 	O 	0.83088 0.38839 0.42640 -0.25400
O 	O 	0.48820 0.64662 0.94594 -0.42200
O 	O 	0.48964 0.56007 0.84546 -0.39700
O 	O 	0.02960 0.46540 0.04524 -0.56800
O 	O 	0.05451 0.56773 0.14276 -0.46600
O 	O 	0.34738 0.75177 0.47102 -0.45900
O 	O 	0.19544 0.71729 0.40600 -0.46000
O 	O 	0.76268 0.86292 0.51556 -0.39100
O 	O 	0.18653 0.80231 0.55186 -0.46700
O 	O 	0.33250 0.82477 0.62642 -0.44900
O 	O 	0.58671 0.79369 0.37948 -0.37400
O 	O 	0.42753 0.13959 0.47152 -0.41600
O 	O 	0.04434 0.14106 0.49456 -0.40800
O 	O 	0.15674 0.10234 0.55182 -0.25100
O 	O 	0.94629 0.93460 0.65430 -0.37100
O 	O 	0.33088 0.03801 0.42640 -0.25400
O 	O 	0.98820 0.29932 0.94594 -0.42200
O 	O 	0.98964 0.28539 0.84546 -0.39700
O 	O 	0.52960 0.57984 0.04524 -0.56800
O 	O 	0.55451 0.57503 0.14276 -0.46600
O 	O 	0.15262 0.28075 0.52898 -0.45900
O 	O 	0.30456 0.31129 0.59400 -0.46000
O 	O 	0.73732 0.34736 0.48444 -0.39100
O 	O 	0.31347 0.25045 0.44814 -0.46700
O 	O 	0.16750 0.19835 0.37358 -0.44900
O 	O 	0.91329 0.41421 0.62052 -0.37400
O 	O 	0.07247 0.66807 0.52848 -0.41700
O 	O 	0.45566 0.64650 0.50544 -0.40800
O 	O 	0.34326 0.55052 0.44818 -0.25100
O 	O 	0.55371 0.28030 0.34570 -0.37100
O 	O 	0.16912 0.61161 0.57360 -0.25400
O 	O 	0.51180 0.35338 0.05406 -0.42200
O 	O 	0.51036 0.43993 0.15454 -0.39700
O 	O 	0.97040 0.53460 0.95476 -0.56800
O 	O 	0.94549 0.43227 0.85724 -0.46600
