data_crystal

_cell_length_a 9.15020
_cell_length_b 9.30390
_cell_length_c 9.30390
_cell_angle_alpha 76.00660
_cell_angle_beta  60.54480
_cell_angle_gamma 60.54480

_symmetry_space_group_name_	'P 1'
_symmetry_space_group_name_H-M	'P 1'

loop_
_symmetry_equiv_pos_as_xyz
  x,y,z

loop_
_atom_site_label
_atom_site_type_symbol
_atom_site_fract_x
_atom_site_fract_y
_atom_site_fract_z
_atom_site_charge
Rb	Rb	0.12500 0.75000 0.75000 0.67600
Rb	Rb	0.87500 0.25000 0.25000 0.67600
Y 	Y 	0.62500 0.75000 0.75000 2.36400
Y 	Y 	0.37500 0.25000 0.25000 2.36400
C 	C 	0.60600 0.97400 0.98400 0.06800
C 	C 	0.06400 0.52600 0.51600 0.07200
C 	C 	0.59000 0.01600 0.47400 0.07200
C 	C 	0.58000 0.48400 0.02600 0.07200
C 	C 	0.39400 0.02600 0.01600 0.06800
C 	C 	0.93600 0.47400 0.48400 0.07200
C 	C 	0.41000 0.98400 0.52600 0.07200
C 	C 	0.42000 0.51600 0.97400 0.07200
O 	O 	0.72650 0.88300 0.85700 -0.46300
O 	O 	0.63820 0.13700 0.95700 -0.36400
O 	O 	0.96650 0.61700 0.64300 -0.46300
O 	O 	0.23220 0.36300 0.54300 -0.36900
O 	O 	0.58350 0.14300 0.38300 -0.46400
O 	O 	0.59520 0.04300 0.63700 -0.36800
O 	O 	0.60950 0.35700 0.11700 -0.46500
O 	O 	0.77520 0.45700 0.86300 -0.36800
O 	O 	0.27350 0.11700 0.14300 -0.46300
O 	O 	0.36180 0.86300 0.04300 -0.36400
O 	O 	0.03350 0.38300 0.35700 -0.46300
O 	O 	0.76780 0.63700 0.45700 -0.36900
O 	O 	0.41650 0.85700 0.61700 -0.46400
O 	O 	0.40480 0.95700 0.36300 -0.36800
O 	O 	0.39050 0.64300 0.88300 -0.46500
O 	O 	0.22480 0.54300 0.13700 -0.36800
