data_crystal

_cell_length_a 8.60840
_cell_length_b 9.03620
_cell_length_c 9.03620
_cell_angle_alpha 76.88590
_cell_angle_beta  61.55400
_cell_angle_gamma 61.55400

_symmetry_space_group_name_	'P 1'
_symmetry_space_group_name_H-M	'P 1'

loop_
_symmetry_equiv_pos_as_xyz
  x,y,z

loop_
_atom_site_label
_atom_site_type_symbol
_atom_site_fract_x
_atom_site_fract_y
_atom_site_fract_z
_atom_site_charge
Sr	Sr	0.50000 0.00000 1.00000 1.44600
Zr	Zr	0.75000 0.50000 0.50000 3.20200
Cd	Cd	-0.00000 0.00000 -0.00000 1.16200
C 	C 	0.76990 0.27670 0.27670 0.24500
C 	C 	0.98270 0.23130 0.23130 0.16800
C 	C 	0.32330 0.72330 0.72330 0.24900
C 	C 	0.44530 0.76870 0.76870 0.27900
C 	C 	0.95340 0.27670 0.72330 0.15800
C 	C 	0.78600 0.23130 0.76870 0.28000
C 	C 	0.95340 0.72330 0.27670 0.19400
C 	C 	0.78600 0.76870 0.23130 0.28600
O 	O 	0.12110 0.12290 0.12290 -0.51500
O 	O 	0.00090 0.31430 0.31430 -0.60200
O 	O 	0.73460 0.20320 0.20320 -0.41700
O 	O 	0.64880 0.38830 0.38830 -0.55300
O 	O 	0.36690 0.87710 0.87710 -0.34200
O 	O 	0.62950 0.68570 0.68570 -0.61000
O 	O 	0.14100 0.79680 0.79680 -0.24300
O 	O 	0.42540 0.61170 0.61170 -0.52000
O 	O 	0.75600 0.12290 0.87710 -0.61200
O 	O 	0.68480 0.31430 0.68570 -0.68300
O 	O 	0.06220 0.20320 0.79680 -0.37700
O 	O 	0.96290 0.38830 0.61170 -0.55400
O 	O 	0.75600 0.87710 0.12290 -0.32000
O 	O 	0.68480 0.68570 0.31430 -0.59900
O 	O 	0.06220 0.79680 0.20320 -0.19200
O 	O 	0.96290 0.61170 0.38830 -0.53000
