data_crystal

_cell_length_a 8.42880
_cell_length_b 9.00600
_cell_length_c 9.00600
_cell_angle_alpha 77.35070
_cell_angle_beta  62.09830
_cell_angle_gamma 62.09830

_symmetry_space_group_name_	'P 1'
_symmetry_space_group_name_H-M	'P 1'

loop_
_symmetry_equiv_pos_as_xyz
  x,y,z

loop_
_atom_site_label
_atom_site_type_symbol
_atom_site_fract_x
_atom_site_fract_y
_atom_site_fract_z
_atom_site_charge
Ca	Ca	-0.00000 0.00000 -0.00000 1.38300
Ca	Ca	0.50000 0.00000 -0.00000 1.38500
Zr	Zr	0.75000 0.50000 0.50000 3.18000
C 	C 	0.97280 0.23160 0.23160 0.30900
C 	C 	0.76270 0.26590 0.26590 0.03600
C 	C 	0.43600 0.76840 0.76840 0.26100
C 	C 	0.29450 0.73410 0.73410 0.19600
C 	C 	0.79560 0.23160 0.76840 0.25000
C 	C 	0.97140 0.26590 0.73410 0.14000
C 	C 	0.79560 0.76840 0.23160 0.25000
C 	C 	0.97140 0.73410 0.26590 0.14000
O 	O 	0.13500 0.12700 0.12700 -0.78700
O 	O 	0.00660 0.30750 0.30750 -0.74200
O 	O 	0.68100 0.20980 0.20980 -0.47800
O 	O 	0.63730 0.37770 0.37770 -0.46900
O 	O 	0.38900 0.87300 0.87300 -0.19000
O 	O 	0.62160 0.69250 0.69250 -0.54800
O 	O 	0.10060 0.79020 0.79020 -0.14700
O 	O 	0.39270 0.62230 0.62230 -0.44700
O 	O 	0.73800 0.12700 0.87300 -0.45800
O 	O 	0.68590 0.30750 0.69250 -0.62200
O 	O 	0.10920 0.20980 0.79020 -0.32300
O 	O 	0.98500 0.37770 0.62230 -0.45800
O 	O 	0.73800 0.87300 0.12700 -0.45800
O 	O 	0.68590 0.69250 0.30750 -0.62200
O 	O 	0.10920 0.79020 0.20980 -0.32300
O 	O 	0.98500 0.62230 0.37770 -0.45800
