data_crystal

_cell_length_a 27.96000
_cell_length_b 26.62000
_cell_length_c 6.10100
_cell_angle_alpha 90.00000
_cell_angle_beta  94.96000
_cell_angle_gamma 90.00000

_symmetry_space_group_name_	'P 1'
_symmetry_space_group_name_H-M	'P 1'

loop_
_symmetry_equiv_pos_as_xyz
  x,y,z

loop_
_atom_site_label
_atom_site_type_symbol
_atom_site_fract_x
_atom_site_fract_y
_atom_site_fract_z
_atom_site_charge
Cu	Cu	0.75300 0.73190 0.36120 0.91000
O 	O 	0.79010 0.77660 0.48100 -0.65000
O 	O 	0.94870 0.94380 0.42200 -0.47200
O 	O 	0.95350 0.09840 0.11600 -0.49100
N 	N 	0.71800 0.67400 0.20600 -0.21300
N 	N 	0.79500 0.73400 0.13600 -0.36000
C 	C 	0.74920 0.66230 0.02800 -0.15300
C 	C 	0.73720 0.62340 0.88040 0.08900
C 	C 	0.76350 0.61620 0.69890 -0.14800
C 	C 	0.80190 0.64800 0.66480 0.06400
C 	C 	0.81390 0.68700 0.81240 -0.23500
C 	C 	0.78750 0.69410 0.99400 0.18700
C 	C 	0.82700 0.76600 0.10500 0.45300
C 	C 	0.68500 0.64600 0.25600 0.16800
C 	C 	0.66300 0.65400 0.41800 -0.31800
C 	C 	0.82500 0.80700 0.44000 0.37200
C 	C 	0.84900 0.80110 0.25800 -0.18600
C 	C 	0.88410 0.83640 0.20900 0.12700
C 	C 	0.89680 0.87550 0.34500 -0.23000
C 	C 	0.87480 0.87900 0.53700 0.15800
C 	C 	0.93480 0.90970 0.29700 0.45300
H 	H 	0.71110 0.60180 0.90360 0.02100
H 	H 	0.75530 0.58970 0.59840 0.08000
H 	H 	0.81980 0.64310 0.54120 -0.00500
H 	H 	0.84000 0.70870 0.78930 0.11200
H 	H 	0.83790 0.76440 0.96220 -0.09200
H 	H 	0.84090 0.77220 0.17360 -0.19400
H 	H 	0.82050 0.85210 0.71110 0.02900
H 	H 	0.67770 0.61780 0.16160 -0.03500
H 	H 	0.89850 0.83170 0.07710 -0.00200
H 	H 	0.88630 0.90530 0.63910 -0.00100
Cu	Cu	0.25300 0.23190 0.36120 0.90900
O 	O 	0.29010 0.27660 0.48100 -0.65100
O 	O 	0.44870 0.44380 0.42200 -0.49200
O 	O 	0.45350 0.59840 0.11600 -0.51700
N 	N 	0.21800 0.17400 0.20600 -0.21300
N 	N 	0.29500 0.23400 0.13600 -0.36100
C 	C 	0.24920 0.16230 0.02800 -0.15400
C 	C 	0.23720 0.12340 0.88040 0.08900
C 	C 	0.26350 0.11620 0.69890 -0.15000
C 	C 	0.30190 0.14800 0.66480 0.06300
C 	C 	0.31390 0.18700 0.81240 -0.23700
C 	C 	0.28750 0.19410 0.99400 0.18700
C 	C 	0.32700 0.26600 0.10500 0.45400
C 	C 	0.18500 0.14600 0.25600 0.16900
C 	C 	0.16300 0.15400 0.41800 -0.32100
C 	C 	0.32500 0.30700 0.44000 0.37400
C 	C 	0.34900 0.30110 0.25800 -0.19200
C 	C 	0.38410 0.33640 0.20900 0.13000
C 	C 	0.39680 0.37550 0.34500 -0.23900
C 	C 	0.37480 0.37900 0.53700 0.16100
C 	C 	0.43480 0.40970 0.29700 0.45800
H 	H 	0.21110 0.10180 0.90360 0.02000
H 	H 	0.25530 0.08970 0.59840 0.07900
H 	H 	0.31980 0.14310 0.54120 -0.00800
H 	H 	0.34000 0.20870 0.78930 0.10900
H 	H 	0.33790 0.26440 0.96220 -0.09400
H 	H 	0.34090 0.27220 0.17360 -0.19500
H 	H 	0.32050 0.35210 0.71110 0.03000
H 	H 	0.17770 0.11780 0.16160 -0.03600
H 	H 	0.39850 0.33170 0.07710 -0.00900
H 	H 	0.38630 0.40530 0.63910 -0.00400
Cu	Cu	0.24700 0.73190 0.63880 0.90900
O 	O 	0.20990 0.77660 0.51900 -0.66700
O 	O 	0.05130 0.94380 0.57800 -0.50400
O 	O 	0.04650 0.09840 0.88400 -0.49100
N 	N 	0.28200 0.67400 0.79400 -0.23700
N 	N 	0.20500 0.73400 0.86400 -0.25000
C 	C 	0.25080 0.66230 0.97200 0.13700
C 	C 	0.26280 0.62340 0.11960 -0.19300
C 	C 	0.23650 0.61620 0.30110 0.04200
C 	C 	0.19810 0.64800 0.33520 -0.12500
C 	C 	0.18610 0.68700 0.18760 -0.04900
C 	C 	0.21250 0.69410 0.00600 -0.09600
C 	C 	0.17300 0.76600 0.89500 0.30200
C 	C 	0.31500 0.64600 0.74400 0.15400
C 	C 	0.33700 0.65400 0.58200 -0.27900
C 	C 	0.17500 0.80700 0.56000 0.42700
C 	C 	0.15100 0.80110 0.74200 -0.29000
C 	C 	0.11590 0.83640 0.79100 0.19900
C 	C 	0.10320 0.87550 0.65500 -0.27100
C 	C 	0.12520 0.87900 0.46300 0.19000
C 	C 	0.06520 0.90970 0.70300 0.46800
H 	H 	0.28890 0.60180 0.09640 0.08300
H 	H 	0.24470 0.58970 0.40160 0.01300
H 	H 	0.18020 0.64310 0.45880 0.05500
H 	H 	0.16000 0.70870 0.21070 0.03100
H 	H 	0.16210 0.76440 0.03780 -0.09700
H 	H 	0.15910 0.77220 0.82640 -0.03300
H 	H 	0.17950 0.85210 0.28890 0.02600
H 	H 	0.32230 0.61780 0.83840 -0.00700
H 	H 	0.10150 0.83170 0.92290 -0.00700
H 	H 	0.11370 0.90530 0.36090 -0.02800
Cu	Cu	0.74700 0.23190 0.63880 0.90900
O 	O 	0.70990 0.27660 0.51900 -0.66600
O 	O 	0.55130 0.44380 0.57800 -0.49100
O 	O 	0.54650 0.59840 0.88400 -0.47500
N 	N 	0.78200 0.17400 0.79400 -0.23600
N 	N 	0.70500 0.23400 0.86400 -0.25000
C 	C 	0.75080 0.16230 0.97200 0.13600
C 	C 	0.76280 0.12340 0.11960 -0.19100
C 	C 	0.73650 0.11620 0.30110 0.04200
C 	C 	0.69810 0.14800 0.33520 -0.12200
C 	C 	0.68610 0.18700 0.18760 -0.04800
C 	C 	0.71250 0.19410 0.00600 -0.09300
C 	C 	0.67300 0.26600 0.89500 0.30200
C 	C 	0.81500 0.14600 0.74400 0.15300
C 	C 	0.83700 0.15400 0.58200 -0.27400
C 	C 	0.67500 0.30700 0.56000 0.42600
C 	C 	0.65100 0.30110 0.74200 -0.28400
C 	C 	0.61590 0.33640 0.79100 0.19700
C 	C 	0.60320 0.37550 0.65500 -0.26400
C 	C 	0.62520 0.37900 0.46300 0.18800
C 	C 	0.56520 0.40970 0.70300 0.46700
H 	H 	0.78890 0.10180 0.09640 0.08300
H 	H 	0.74470 0.08970 0.40160 0.01500
H 	H 	0.68020 0.14310 0.45880 0.05800
H 	H 	0.66000 0.20870 0.21070 0.03500
H 	H 	0.66210 0.26440 0.03780 -0.09500
H 	H 	0.65910 0.27220 0.82640 -0.03300
H 	H 	0.67950 0.35210 0.28890 0.02600
H 	H 	0.82230 0.11780 0.83840 -0.00600
H 	H 	0.60150 0.33170 0.92290 -0.00100
H 	H 	0.61370 0.40530 0.36090 -0.02600
Cu	Cu	0.24700 0.26810 0.63880 0.90900
O 	O 	0.20990 0.22340 0.51900 -0.66700
O 	O 	0.05130 0.05620 0.57800 -0.50400
O 	O 	0.04650 0.90160 0.88400 -0.49100
N 	N 	0.28200 0.32600 0.79400 -0.23700
N 	N 	0.20500 0.26600 0.86400 -0.25000
C 	C 	0.25080 0.33770 0.97200 0.13700
C 	C 	0.26280 0.37660 0.11960 -0.19300
C 	C 	0.23650 0.38380 0.30110 0.04200
C 	C 	0.19810 0.35200 0.33520 -0.12500
C 	C 	0.18610 0.31300 0.18760 -0.04900
C 	C 	0.21250 0.30590 0.00600 -0.09600
C 	C 	0.17300 0.23400 0.89500 0.30200
C 	C 	0.31500 0.35400 0.74400 0.15400
C 	C 	0.33700 0.34600 0.58200 -0.27900
C 	C 	0.17500 0.19300 0.56000 0.42700
C 	C 	0.15100 0.19890 0.74200 -0.29000
C 	C 	0.11590 0.16360 0.79100 0.19900
C 	C 	0.10320 0.12450 0.65500 -0.27100
C 	C 	0.12520 0.12100 0.46300 0.19000
C 	C 	0.06520 0.09030 0.70300 0.46800
H 	H 	0.28890 0.39820 0.09640 0.08300
H 	H 	0.24470 0.41030 0.40160 0.01300
H 	H 	0.18020 0.35690 0.45880 0.05500
H 	H 	0.16000 0.29130 0.21070 0.03100
H 	H 	0.16210 0.23560 0.03780 -0.09700
H 	H 	0.15910 0.22780 0.82640 -0.03300
H 	H 	0.17950 0.14790 0.28890 0.02600
H 	H 	0.32230 0.38220 0.83840 -0.00700
H 	H 	0.10150 0.16830 0.92290 -0.00700
H 	H 	0.11370 0.09470 0.36090 -0.02800
Cu	Cu	0.74700 0.76810 0.63880 0.90900
O 	O 	0.70990 0.72340 0.51900 -0.66700
O 	O 	0.55130 0.55620 0.57800 -0.49100
O 	O 	0.54650 0.40160 0.88400 -0.47500
N 	N 	0.78200 0.82600 0.79400 -0.23600
N 	N 	0.70500 0.76600 0.86400 -0.25000
C 	C 	0.75080 0.83770 0.97200 0.13600
C 	C 	0.76280 0.87660 0.11960 -0.19200
C 	C 	0.73650 0.88380 0.30110 0.04200
C 	C 	0.69810 0.85200 0.33520 -0.12200
C 	C 	0.68610 0.81300 0.18760 -0.04800
C 	C 	0.71250 0.80590 0.00600 -0.09300
C 	C 	0.67300 0.73400 0.89500 0.30200
C 	C 	0.81500 0.85400 0.74400 0.15300
C 	C 	0.83700 0.84600 0.58200 -0.27500
C 	C 	0.67500 0.69300 0.56000 0.42600
C 	C 	0.65100 0.69890 0.74200 -0.28400
C 	C 	0.61590 0.66360 0.79100 0.19700
C 	C 	0.60320 0.62450 0.65500 -0.26400
C 	C 	0.62520 0.62100 0.46300 0.18800
C 	C 	0.56520 0.59030 0.70300 0.46700
H 	H 	0.78890 0.89820 0.09640 0.08300
H 	H 	0.74470 0.91030 0.40160 0.01400
H 	H 	0.68020 0.85690 0.45880 0.05800
H 	H 	0.66000 0.79130 0.21070 0.03500
H 	H 	0.66210 0.73560 0.03780 -0.09500
H 	H 	0.65910 0.72780 0.82640 -0.03300
H 	H 	0.67950 0.64790 0.28890 0.02600
H 	H 	0.82230 0.88220 0.83840 -0.00700
H 	H 	0.60150 0.66830 0.92290 -0.00100
H 	H 	0.61370 0.59470 0.36090 -0.02600
Cu	Cu	0.75300 0.26810 0.36120 0.90900
O 	O 	0.79010 0.22340 0.48100 -0.65000
O 	O 	0.94870 0.05620 0.42200 -0.47000
O 	O 	0.95350 0.90160 0.11600 -0.49200
N 	N 	0.71800 0.32600 0.20600 -0.21300
N 	N 	0.79500 0.26600 0.13600 -0.36000
C 	C 	0.74920 0.33770 0.02800 -0.15300
C 	C 	0.73720 0.37660 0.88040 0.08900
C 	C 	0.76350 0.38380 0.69890 -0.14800
C 	C 	0.80190 0.35200 0.66480 0.06400
C 	C 	0.81390 0.31300 0.81240 -0.23500
C 	C 	0.78750 0.30590 0.99400 0.18700
C 	C 	0.82700 0.23400 0.10500 0.45300
C 	C 	0.68500 0.35400 0.25600 0.16800
C 	C 	0.66300 0.34600 0.41800 -0.31800
C 	C 	0.82500 0.19300 0.44000 0.37200
C 	C 	0.84900 0.19890 0.25800 -0.18600
C 	C 	0.88410 0.16360 0.20900 0.12700
C 	C 	0.89680 0.12450 0.34500 -0.23000
C 	C 	0.87480 0.12100 0.53700 0.15800
C 	C 	0.93480 0.09030 0.29700 0.45200
H 	H 	0.71110 0.39820 0.90360 0.02100
H 	H 	0.75530 0.41030 0.59840 0.08000
H 	H 	0.81980 0.35690 0.54120 -0.00500
H 	H 	0.84000 0.29130 0.78930 0.11200
H 	H 	0.83790 0.23560 0.96220 -0.09200
H 	H 	0.84090 0.22780 0.17360 -0.19400
H 	H 	0.82050 0.14790 0.71110 0.02900
H 	H 	0.67770 0.38220 0.16160 -0.03500
H 	H 	0.89850 0.16830 0.07710 -0.00200
H 	H 	0.88630 0.09470 0.63910 -0.00100
Cu	Cu	0.25300 0.76810 0.36120 0.90900
O 	O 	0.29010 0.72340 0.48100 -0.65100
O 	O 	0.44870 0.55620 0.42200 -0.49200
O 	O 	0.45350 0.40160 0.11600 -0.51700
N 	N 	0.21800 0.82600 0.20600 -0.21300
N 	N 	0.29500 0.76600 0.13600 -0.36100
C 	C 	0.24920 0.83770 0.02800 -0.15400
C 	C 	0.23720 0.87660 0.88040 0.08900
C 	C 	0.26350 0.88380 0.69890 -0.15000
C 	C 	0.30190 0.85200 0.66480 0.06300
C 	C 	0.31390 0.81300 0.81240 -0.23700
C 	C 	0.28750 0.80590 0.99400 0.18700
C 	C 	0.32700 0.73400 0.10500 0.45400
C 	C 	0.18500 0.85400 0.25600 0.16900
C 	C 	0.16300 0.84600 0.41800 -0.32200
C 	C 	0.32500 0.69300 0.44000 0.37400
C 	C 	0.34900 0.69890 0.25800 -0.19200
C 	C 	0.38410 0.66360 0.20900 0.13000
C 	C 	0.39680 0.62450 0.34500 -0.24000
C 	C 	0.37480 0.62100 0.53700 0.16100
C 	C 	0.43480 0.59030 0.29700 0.45800
H 	H 	0.21110 0.89820 0.90360 0.02000
H 	H 	0.25530 0.91030 0.59840 0.07900
H 	H 	0.31980 0.85690 0.54120 -0.00900
H 	H 	0.34000 0.79130 0.78930 0.10900
H 	H 	0.33790 0.73560 0.96220 -0.09400
H 	H 	0.34090 0.72780 0.17360 -0.19500
H 	H 	0.32050 0.64790 0.71110 0.03000
H 	H 	0.17770 0.88220 0.16160 -0.03600
H 	H 	0.39850 0.66830 0.07710 -0.00900
H 	H 	0.38630 0.59470 0.63910 -0.00400
Zn	Zn	0.00000 0.00000 0.50000 1.22200
Zn	Zn	0.50000 0.50000 0.50000 1.23900
Zn	Zn	-0.00000 0.05460 -0.00000 1.18200
Zn	Zn	0.50000 0.55460 -0.00000 1.19900
Zn	Zn	-0.00000 0.94540 -0.00000 1.18200
Zn	Zn	0.50000 0.44540 -0.00000 1.19900
O 	O 	0.02710 0.00000 0.19800 -0.69200
O 	O 	0.52710 0.50000 0.19800 -0.67500
O 	O 	0.97290 -0.00000 0.80200 -0.59600
O 	O 	0.47290 0.50000 0.80200 -0.63300
