data_crystal

_cell_length_a 15.27800
_cell_length_b 15.56000
_cell_length_c 18.17400
_cell_angle_alpha 64.66500
_cell_angle_beta  78.12300
_cell_angle_gamma 61.04800

_symmetry_space_group_name_	'P 1'
_symmetry_space_group_name_H-M	'P 1'

loop_
_symmetry_equiv_pos_as_xyz
  x,y,z

loop_
_atom_site_label
_atom_site_type_symbol
_atom_site_fract_x
_atom_site_fract_y
_atom_site_fract_z
_atom_site_charge
C 	C 	0.03730 0.31990 0.42810 0.22600
C 	C 	0.94570 0.33160 0.48510 0.21700
C 	C 	0.10990 0.30910 0.66930 0.22400
C 	C 	0.10070 0.20750 0.73240 0.21800
C 	C 	0.28100 0.33400 0.83660 0.23900
C 	C 	0.19070 0.44430 0.82810 0.20900
C 	C 	0.42710 0.34260 0.99810 0.25000
C 	C 	0.52030 0.32240 0.94140 0.21800
C 	C 	0.59950 0.02160 0.25600 0.19600
C 	C 	0.59300 0.98860 0.18990 0.23200
C 	C 	0.77960 0.66100 0.31770 0.20400
C 	C 	0.69330 0.63110 0.32810 0.22500
C 	C 	0.03600 0.27320 0.99240 0.27700
C 	C 	0.93960 0.35040 0.93500 0.21700
C 	C 	0.36340 0.64530 0.75780 0.22500
C 	C 	0.37080 0.60100 0.69490 0.20200
C 	C 	0.54130 0.78040 0.49400 0.25600
C 	C 	0.44830 0.84950 0.43740 0.21300
C 	C 	0.28100 0.01780 0.59680 0.19600
C 	C 	0.19320 0.99850 0.59090 0.26700
C 	C 	0.78160 0.19850 0.10060 0.24400
C 	C 	0.69560 0.30630 0.10530 0.21600
C 	C 	0.88230 0.32590 0.23490 0.21500
C 	C 	0.87480 0.43280 0.16720 0.21700
O 	O 	0.86330 0.38610 0.45150 -0.35400
O 	O 	0.96510 0.28580 0.55990 -0.42100
O 	O 	0.02590 0.36620 0.35300 -0.33800
O 	O 	0.12180 0.26220 0.46230 -0.38600
O 	O 	0.09230 0.15250 0.70190 -0.40200
O 	O 	0.09970 0.19100 0.80590 -0.36100
O 	O 	0.11700 0.31880 0.59510 -0.40200
O 	O 	0.11010 0.36980 0.69430 -0.37000
O 	O 	0.10530 0.45660 0.82160 -0.35100
O 	O 	0.21220 0.51150 0.83040 -0.40300
O 	O 	0.26470 0.26550 0.83410 -0.37500
O 	O 	0.36480 0.32470 0.84530 -0.41200
O 	O 	0.50340 0.37770 0.86680 -0.39100
O 	O 	0.60300 0.25610 0.97230 -0.34000
O 	O 	0.34630 0.40610 0.96260 -0.40700
O 	O 	0.44010 0.29360 0.07310 -0.37400
O 	O 	0.59370 0.11160 0.23450 -0.35200
O 	O 	0.60960 0.95430 0.32810 -0.40200
O 	O 	0.59020 0.04630 0.11830 -0.37500
O 	O 	0.58980 0.89840 0.21790 -0.41400
O 	O 	0.75580 0.74890 0.32110 -0.40500
O 	O 	0.86590 0.59690 0.30650 -0.34800
O 	O 	0.60790 0.69850 0.33530 -0.41100
O 	O 	0.71380 0.54480 0.32510 -0.36100
O 	O 	0.11640 0.23920 0.95960 -0.38300
O 	O 	0.01690 0.25660 0.06570 -0.42800
O 	O 	0.95250 0.37590 0.86110 -0.37400
O 	O 	0.85810 0.38130 0.97080 -0.40000
O 	O 	0.37360 0.51120 0.72130 -0.39600
O 	O 	0.37520 0.65470 0.62040 -0.35000
O 	O 	0.35420 0.58900 0.83010 -0.41200
O 	O 	0.37060 0.73100 0.73120 -0.36900
O 	O 	0.52930 0.75080 0.56750 -0.37600
O 	O 	0.62200 0.76220 0.45660 -0.43100
O 	O 	0.36550 0.86720 0.46930 -0.34700
O 	O 	0.46440 0.88260 0.36170 -0.40600
O 	O 	0.36620 0.94690 0.60220 -0.34600
O 	O 	0.25530 0.11020 0.59470 -0.39700
O 	O 	0.21220 0.91080 0.59480 -0.35700
O 	O 	0.10850 0.07560 0.58180 -0.40900
O 	O 	0.60860 0.31990 0.11200 -0.34600
O 	O 	0.72730 0.36970 0.10380 -0.40400
O 	O 	0.75620 0.13290 0.10310 -0.37200
O 	O 	0.86780 0.18970 0.09560 -0.42800
O 	O 	0.89200 0.25720 0.20870 -0.41400
O 	O 	0.88120 0.31380 0.30670 -0.36600
O 	O 	0.86950 0.44330 0.09470 -0.41400
O 	O 	0.87360 0.49910 0.18810 -0.36600
Cr	Cr	0.10878 0.20180 0.58341 1.56600
Cr	Cr	0.35800 0.45646 0.84223 1.56300
Cr	Cr	0.60867 0.82575 0.33630 1.56200
Cr	Cr	0.87269 0.31633 0.09054 1.56100
Mn	Mn	0.10839 0.31148 0.82705 1.30900
Mn	Mn	0.59634 0.19035 0.10426 1.30600
Mn	Mn	0.87133 0.44831 0.31924 1.30800
Mn	Mn	0.37347 0.80374 0.60208 1.30700
C 	C 	0.35800 0.85630 0.95400 0.29400
C 	C 	0.36470 0.81970 0.89510 -0.26100
H 	H 	0.36740 0.75170 0.91160 0.16100
C 	C 	0.36740 0.87540 0.81690 0.14700
H 	H 	0.37470 0.84540 0.77890 0.00800
C 	C 	0.35990 0.97670 0.78850 -0.13900
H 	H 	0.36000 0.01730 0.73190 0.09700
C 	C 	0.35250 0.01560 0.84470 0.05900
H 	H 	0.34600 0.08550 0.82640 0.02900
C 	C 	0.35400 0.95770 0.92750 -0.14600
C 	C 	0.35410 0.00040 0.98290 0.07900
H 	H 	0.35220 0.06890 0.95850 0.02600
C 	C 	0.37330 0.00280 0.11060 0.18900
H 	H 	0.44650 0.96600 0.12240 0.00500
C 	C 	0.34140 0.12190 0.06990 -0.59100
H 	H 	0.37850 0.13710 0.01900 0.21700
H 	H 	0.35560 0.14530 0.10640 0.21600
H 	H 	0.26950 0.16000 0.05820 0.22400
C 	C 	0.32000 0.97210 0.18980 -0.20200
H 	H 	0.34100 0.98400 0.23130 0.11900
H 	H 	0.24680 0.01540 0.18220 0.08600
C 	C 	0.35340 0.79980 0.29320 0.06200
H 	H 	0.34600 0.83090 0.33050 0.04500
C 	C 	0.37110 0.68860 0.32670 -0.13900
C 	C 	0.38270 0.63620 0.41070 0.07400
H 	H 	0.38440 0.67060 0.44240 0.02700
C 	C 	0.39180 0.53340 0.44830 -0.13700
H 	H 	0.39980 0.49750 0.50570 0.10000
C 	C 	0.38940 0.48300 0.40190 0.10400
H 	H 	0.39560 0.41280 0.42760 0.01500
C 	C 	0.37780 0.53550 0.31790 -0.21400
H 	H 	0.37610 0.50110 0.28620 0.13500
C 	C 	0.36860 0.63830 0.28030 0.25700
N 	N 	0.35650 0.95960 0.06070 -0.27800
N 	N 	0.34720 0.85840 0.21630 -0.23400
O 	O 	0.36350 0.79270 0.03280 -0.44700
O 	O 	0.35670 0.68640 0.19860 -0.42100
Mn	Mn	0.35410 0.81883 0.12560 1.32100
O 	O 	0.52200 0.73770 0.10330 -0.21300
C 	C 	0.59380 0.68210 0.16410 0.00300
H 	H 	0.66050 0.65390 0.14080 0.20500
H 	H 	0.58230 0.62320 0.20650 0.05800
H 	H 	0.58910 0.73010 0.18780 0.10100
O 	O 	0.52280 0.74030 0.15860 -0.22900
C 	C 	0.58960 0.64900 0.13880 0.08900
H 	H 	0.65770 0.62330 0.15570 -0.19600
H 	H 	0.58830 0.66890 0.08000 0.06100
H 	H 	0.56840 0.59260 0.16740 0.02100
C 	C 	0.85230 0.93650 0.47430 0.29500
C 	C 	0.86960 0.02440 0.41810 -0.23100
H 	H 	0.88030 0.06710 0.43670 0.14100
C 	C 	0.87050 0.04640 0.33530 0.10600
H 	H 	0.87830 0.10730 0.29740 0.02700
C 	C 	0.86040 0.98280 0.30610 -0.16300
H 	H 	0.86260 0.99890 0.24930 0.11000
C 	C 	0.84760 0.89900 0.35910 0.11300
H 	H 	0.84110 0.85480 0.33930 0.01500
C 	C 	0.84350 0.87400 0.44130 -0.18200
C 	C 	0.82870 0.78220 0.49480 0.09800
H 	H 	0.81560 0.74800 0.46880 0.01300
C 	C 	0.81510 0.64430 0.62050 0.24400
H 	H 	0.74320 0.66720 0.63710 -0.03300
C 	C 	0.84140 0.57220 0.57460 -0.62600
H 	H 	0.79920 0.61170 0.52600 0.23600
H 	H 	0.83010 0.51020 0.61000 0.22800
H 	H 	0.91190 0.54860 0.55830 0.22200
C 	C 	0.87670 0.58770 0.69380 -0.25700
H 	H 	0.94780 0.55000 0.68040 0.10500
H 	H 	0.85570 0.53440 0.73520 0.12500
C 	C 	0.86180 0.64120 0.80310 0.04800
H 	H 	0.86070 0.57550 0.83760 0.04600
C 	C 	0.86040 0.70500 0.84100 -0.12000
C 	C 	0.86620 0.66300 0.92930 0.02700
H 	H 	0.87070 0.59370 0.95860 0.05300
C 	C 	0.86570 0.71500 0.97200 -0.07300
H 	H 	0.86570 0.68590 0.02980 0.06900
C 	C 	0.86510 0.81590 0.92710 0.05100
H 	H 	0.86740 0.85300 0.95620 0.03500
C 	C 	0.86130 0.86310 0.84150 -0.17400
H 	H 	0.86040 0.93100 0.81360 0.12100
C 	C 	0.85870 0.80740 0.79740 0.23300
N 	N 	0.83060 0.74030 0.57290 -0.29400
N 	N 	0.86460 0.66510 0.72620 -0.23100
O 	O 	0.84650 0.92130 0.55090 -0.45300
O 	O 	0.85700 0.85210 0.71770 -0.42900
Mn	Mn	0.84783 0.80344 0.64113 1.31300
O 	O 	0.01570 0.74330 0.60790 -0.19600
C 	C 	0.09610 0.67000 0.66020 -0.51100
H 	H 	0.15850 0.65960 0.62920 0.20400
H 	H 	0.09240 0.60220 0.68730 0.23000
H 	H 	0.09440 0.69620 0.70100 0.13100
O 	O 	0.01580 0.69460 0.66260 -0.07700
C 	C 	0.08600 0.75000 0.64090 0.38600
H 	H 	0.15590 0.69600 0.65290 -0.08700
H 	H 	0.06710 0.79340 0.67330 -0.07800
H 	H 	0.07970 0.79610 0.58280 -0.03600
