data_crystal

_cell_length_a 15.29330
_cell_length_b 15.59850
_cell_length_c 18.19420
_cell_angle_alpha 64.68500
_cell_angle_beta  77.98600
_cell_angle_gamma 61.07700

_symmetry_space_group_name_	'P 1'
_symmetry_space_group_name_H-M	'P 1'

loop_
_symmetry_equiv_pos_as_xyz
  x,y,z

loop_
_atom_site_label
_atom_site_type_symbol
_atom_site_fract_x
_atom_site_fract_y
_atom_site_fract_z
_atom_site_charge
C 	C 	0.18040 0.76560 0.94880 0.29600
C 	C 	0.27300 0.69040 0.00460 0.10200
C 	C 	0.44970 0.83750 0.83930 0.23600
C 	C 	0.53340 0.72620 0.84430 0.23300
C 	C 	0.69250 0.71160 0.01010 0.12600
C 	C 	0.79000 0.69100 0.95360 0.30700
C 	C 	0.94630 0.69670 0.11970 0.22200
C 	C 	0.03320 0.59640 0.10980 0.22700
C 	C 	0.63870 0.98560 0.71190 0.27900
C 	C 	0.62730 0.02360 0.77970 0.16500
C 	C 	0.44750 0.38260 0.62080 0.24900
C 	C 	0.53390 0.40360 0.62910 0.21600
C 	C 	0.20130 0.71280 0.50940 0.23300
C 	C 	0.29570 0.69770 0.45400 0.23000
C 	C 	0.35400 0.70260 0.68970 0.23100
C 	C 	0.34640 0.60500 0.75480 0.21100
C 	C 	0.70090 0.24210 0.46180 0.24000
C 	C 	0.79310 0.17250 0.51810 0.22000
C 	C 	0.85340 0.36720 0.21440 0.21500
C 	C 	0.86350 0.40300 0.27600 0.21900
C 	C 	0.94950 0.01470 0.35530 0.21000
C 	C 	0.03440 0.04050 0.34940 0.21000
C 	C 	0.12740 0.71990 0.25240 0.21800
C 	C 	0.11790 0.82740 0.18980 0.21700
O 	O 	0.09820 0.79400 0.98470 -0.36300
O 	O 	0.25640 0.67010 0.07980 -0.36000
O 	O 	0.19210 0.79190 0.87380 -0.33700
O 	O 	0.35590 0.65500 0.97230 -0.25700
O 	O 	0.36340 0.85910 0.83140 -0.32100
O 	O 	0.50900 0.66240 0.84180 -0.32300
O 	O 	0.48160 0.89830 0.84140 -0.37500
O 	O 	0.62100 0.71100 0.85000 -0.37700
O 	O 	0.61260 0.77640 0.97410 -0.32200
O 	O 	0.77170 0.74760 0.88010 -0.39200
O 	O 	0.70510 0.66330 0.08500 -0.31700
O 	O 	0.87060 0.62430 0.98670 -0.31800
O 	O 	0.85930 0.70290 0.12730 -0.32000
O 	O 	0.01890 0.52480 0.11240 -0.34600
O 	O 	0.96740 0.76490 0.11760 -0.38900
O 	O 	0.11830 0.59580 0.10130 -0.39100
O 	O 	0.64760 0.89160 0.73700 -0.38400
O 	O 	0.62410 0.96160 0.85130 -0.33700
O 	O 	0.63620 0.04490 0.63990 -0.36600
O 	O 	0.62940 0.10920 0.75930 -0.31100
O 	O 	0.46800 0.29430 0.62250 -0.33600
O 	O 	0.61970 0.32760 0.64260 -0.31300
O 	O 	0.36360 0.45750 0.61240 -0.38700
O 	O 	0.50910 0.49410 0.62640 -0.37200
O 	O 	0.21910 0.66850 0.58540 -0.37700
O 	O 	0.37820 0.64030 0.49140 -0.38300
O 	O 	0.11970 0.76220 0.47750 -0.32400
O 	O 	0.28480 0.74170 0.37940 -0.33300
O 	O 	0.36440 0.70610 0.61770 -0.38700
O 	O 	0.34280 0.54270 0.72870 -0.36900
O 	O 	0.34610 0.77240 0.70950 -0.32700
O 	O 	0.34140 0.59310 0.82720 -0.31300
O 	O 	0.61840 0.26250 0.49500 -0.33400
O 	O 	0.78090 0.14450 0.59280 -0.33100
O 	O 	0.72020 0.27020 0.38700 -0.39400
O 	O 	0.87680 0.15070 0.48250 -0.37600
O 	O 	0.84570 0.27970 0.24420 -0.38400
O 	O 	0.87230 0.33790 0.35030 -0.37500
O 	O 	0.85340 0.42200 0.14120 -0.35000
O 	O 	0.86380 0.48920 0.25160 -0.33000
O 	O 	0.86430 0.08230 0.36470 -0.38300
O 	O 	0.00920 0.12970 0.35110 -0.38100
O 	O 	0.96770 0.93090 0.35150 -0.30000
O 	O 	0.12010 0.97500 0.34370 -0.31400
O 	O 	0.12910 0.70030 0.32520 -0.32400
O 	O 	0.12240 0.88870 0.21490 -0.34000
O 	O 	0.12850 0.65790 0.22380 -0.37600
O 	O 	0.10670 0.84460 0.11630 -0.39700
Cr	Cr	0.11159 0.72415 0.10410 1.55900
Cr	Cr	0.62704 0.83130 0.85502 1.56900
Cr	Cr	0.36262 0.58633 0.61037 1.56900
Cr	Cr	0.86340 0.21017 0.36259 1.56700
Mn	Mn	0.34800 0.72271 0.84059 1.31300
Mn	Mn	0.86162 0.56416 0.11939 1.30400
Mn	Mn	0.62620 0.19190 0.62764 1.31300
Mn	Mn	0.12832 0.83143 0.34396 1.31000
