data_crystal

_cell_length_a 14.11920
_cell_length_b 16.65450
_cell_length_c 21.58330
_cell_angle_alpha 90.00000
_cell_angle_beta  90.00000
_cell_angle_gamma 90.00000

_symmetry_space_group_name_	'P 1'
_symmetry_space_group_name_H-M	'P 1'

loop_
_symmetry_equiv_pos_as_xyz
  x,y,z

loop_
_atom_site_label
_atom_site_type_symbol
_atom_site_fract_x
_atom_site_fract_y
_atom_site_fract_z
_atom_site_charge
Ni	Ni	0.87412 0.26898 0.92333 1.07800
Ni	Ni	0.03689 0.27003 0.59868 1.07900
N 	N 	0.82828 0.24661 0.83444 -0.26600
C 	C 	0.81292 0.24443 0.78232 0.17300
N 	N 	0.90876 0.26021 0.64386 -0.26800
C 	C 	0.85480 0.25198 0.68262 0.17300
N 	N 	0.78759 0.24196 0.72372 -0.17700
N 	N 	0.00951 0.28265 0.88231 -0.25700
C 	C 	0.06061 0.29096 0.84102 0.16400
N 	N 	0.09470 0.28591 0.68718 -0.26100
C 	C 	0.10436 0.29129 0.73988 0.16700
N 	N 	0.12621 0.30044 0.79905 -0.17500
N 	N 	0.92965 0.28747 0.01218 -0.25900
C 	C 	0.99610 0.27688 0.04147 0.17300
N 	N 	0.23122 0.24300 0.05110 -0.25800
C 	C 	0.15260 0.25339 0.06152 0.17000
N 	N 	0.06498 0.26501 0.08064 -0.17700
N 	N 	0.85386 0.39063 0.91399 -0.26800
C 	C 	0.84548 0.45899 0.90747 0.17700
N 	N 	0.93269 0.64787 0.89451 -0.26400
C 	C 	0.88600 0.59187 0.89712 0.17300
N 	N 	0.82277 0.53420 0.89886 -0.18100
N 	N 	0.16972 0.28185 0.55690 -0.26200
C 	C 	0.25000 0.29044 0.55047 0.17600
N 	N 	0.46217 0.24945 0.48260 -0.26200
C 	C 	0.40050 0.27342 0.51205 0.17600
N 	N 	0.34070 0.30698 0.55055 -0.17900
N 	N 	0.97840 0.89321 0.91585 -0.25800
C 	C 	0.95240 0.95099 0.94128 0.16500
N 	N 	0.89536 0.14770 0.93890 -0.26700
C 	C 	0.90974 0.08249 0.95352 0.17700
N 	N 	0.92532 0.01057 0.97607 -0.17800
Ni	Ni	0.62588 0.73102 0.42333 1.07700
Ni	Ni	0.46311 0.72997 0.09868 1.07800
N 	N 	0.67172 0.75339 0.33444 -0.26700
C 	C 	0.68708 0.75557 0.28232 0.17200
N 	N 	0.59124 0.73979 0.14386 -0.26800
C 	C 	0.64520 0.74802 0.18262 0.17300
N 	N 	0.71241 0.75804 0.22372 -0.17700
N 	N 	0.49049 0.71735 0.38231 -0.25800
C 	C 	0.43939 0.70904 0.34102 0.16400
N 	N 	0.40530 0.71409 0.18718 -0.26100
C 	C 	0.39564 0.70871 0.23988 0.16700
N 	N 	0.37379 0.69956 0.29905 -0.17500
N 	N 	0.57035 0.71253 0.51218 -0.25900
C 	C 	0.50390 0.72312 0.54147 0.17000
N 	N 	0.26878 0.75700 0.55110 -0.25800
C 	C 	0.34740 0.74661 0.56152 0.17100
N 	N 	0.43502 0.73499 0.58064 -0.17600
N 	N 	0.64614 0.60937 0.41399 -0.26800
C 	C 	0.65452 0.54101 0.40747 0.17700
N 	N 	0.56731 0.35213 0.39451 -0.26400
C 	C 	0.61400 0.40813 0.39712 0.17300
N 	N 	0.67723 0.46580 0.39886 -0.18100
N 	N 	0.33028 0.71815 0.05690 -0.26200
C 	C 	0.25000 0.70956 0.05047 0.17600
N 	N 	0.03783 0.75055 0.98260 -0.26100
C 	C 	0.09950 0.72658 0.01205 0.17400
N 	N 	0.15930 0.69302 0.05055 -0.17900
N 	N 	0.52160 0.10679 0.41585 -0.25700
C 	C 	0.54760 0.04901 0.44128 0.16600
N 	N 	0.60464 0.85230 0.43890 -0.26700
C 	C 	0.59026 0.91751 0.45352 0.17700
N 	N 	0.57468 0.98943 0.47607 -0.17800
Ni	Ni	0.12588 0.76898 0.57667 1.07700
Ni	Ni	0.96311 0.77003 0.90132 1.07700
N 	N 	0.17172 0.74661 0.66556 -0.26700
C 	C 	0.18708 0.74443 0.71768 0.17200
N 	N 	0.09124 0.76021 0.85614 -0.26800
C 	C 	0.14520 0.75198 0.81738 0.17300
N 	N 	0.21241 0.74196 0.77628 -0.17700
N 	N 	0.99049 0.78265 0.61769 -0.25800
C 	C 	0.93939 0.79096 0.65898 0.16400
N 	N 	0.90530 0.78591 0.81282 -0.26100
C 	C 	0.89564 0.79129 0.76012 0.16700
N 	N 	0.87379 0.80044 0.70095 -0.17500
N 	N 	0.07035 0.78747 0.48782 -0.25900
C 	C 	0.00390 0.77688 0.45853 0.17000
N 	N 	0.76878 0.74300 0.44890 -0.25800
C 	C 	0.84740 0.75339 0.43848 0.17100
N 	N 	0.93502 0.76501 0.41936 -0.17600
N 	N 	0.14614 0.89063 0.58601 -0.26800
C 	C 	0.15452 0.95899 0.59253 0.17800
N 	N 	0.06731 0.14787 0.60549 -0.26400
C 	C 	0.11400 0.09187 0.60288 0.17300
N 	N 	0.17723 0.03420 0.60114 -0.18100
N 	N 	0.83028 0.78185 0.94310 -0.26200
C 	C 	0.75000 0.79044 0.94953 0.17500
N 	N 	0.53783 0.74945 0.01740 -0.26200
C 	C 	0.59950 0.77342 0.98795 0.17500
N 	N 	0.65930 0.80698 0.94945 -0.17900
N 	N 	0.02160 0.39321 0.58415 -0.25700
C 	C 	0.04760 0.45099 0.55872 0.16600
N 	N 	0.10464 0.64770 0.56110 -0.26700
C 	C 	0.09026 0.58249 0.54648 0.17700
N 	N 	0.07468 0.51057 0.52393 -0.17900
Ni	Ni	0.37412 0.23102 0.07667 1.07700
Ni	Ni	0.53689 0.22997 0.40132 1.07800
N 	N 	0.32828 0.25339 0.16556 -0.26700
C 	C 	0.31292 0.25557 0.21768 0.17200
N 	N 	0.40876 0.23979 0.35614 -0.26800
C 	C 	0.35480 0.24802 0.31738 0.17300
N 	N 	0.28759 0.25804 0.27628 -0.17700
N 	N 	0.50951 0.21735 0.11769 -0.25800
C 	C 	0.56061 0.20904 0.15898 0.16400
N 	N 	0.59470 0.21409 0.31282 -0.26100
C 	C 	0.60436 0.20871 0.26012 0.16700
N 	N 	0.62621 0.19956 0.20095 -0.17500
N 	N 	0.42965 0.21253 0.98782 -0.25900
C 	C 	0.49610 0.22312 0.95853 0.17100
N 	N 	0.73122 0.25700 0.94890 -0.25800
C 	C 	0.65260 0.24661 0.93848 0.17100
N 	N 	0.56498 0.23499 0.91936 -0.17600
N 	N 	0.35386 0.10937 0.08601 -0.26800
C 	C 	0.34548 0.04101 0.09253 0.17600
N 	N 	0.43269 0.85213 0.10549 -0.26400
C 	C 	0.38600 0.90813 0.10288 0.17300
N 	N 	0.32277 0.96580 0.10114 -0.18000
N 	N 	0.66972 0.21815 0.44310 -0.26200
C 	C 	0.75000 0.20956 0.44953 0.17600
N 	N 	0.96217 0.25055 0.51740 -0.26200
C 	C 	0.90050 0.22658 0.48795 0.17600
N 	N 	0.84070 0.19302 0.44945 -0.17900
N 	N 	0.47840 0.60679 0.08415 -0.25700
C 	C 	0.45240 0.54901 0.05872 0.16600
N 	N 	0.39536 0.35230 0.06110 -0.26700
C 	C 	0.40974 0.41751 0.04648 0.17700
N 	N 	0.42532 0.48943 0.02393 -0.17900
