data_crystal

_cell_length_a 14.22280
_cell_length_b 16.70500
_cell_length_c 21.60200
_cell_angle_alpha 90.00000
_cell_angle_beta  90.00000
_cell_angle_gamma 90.00000

_symmetry_space_group_name_	'P 1'
_symmetry_space_group_name_H-M	'P 1'

loop_
_symmetry_equiv_pos_as_xyz
  x,y,z

loop_
_atom_site_label
_atom_site_type_symbol
_atom_site_fract_x
_atom_site_fract_y
_atom_site_fract_z
_atom_site_charge
Co	Co	0.87076 0.26820 0.92522 1.13400
Co	Co	0.03565 0.26935 0.59847 1.13400
N 	N 	0.82653 0.24429 0.83416 -0.27300
C 	C 	0.81128 0.24251 0.78211 0.16900
N 	N 	0.90505 0.25904 0.64324 -0.27300
C 	C 	0.85179 0.25117 0.68230 0.16900
N 	N 	0.78571 0.24062 0.72374 -0.17800
N 	N 	0.00883 0.28340 0.88437 -0.26100
C 	C 	0.05906 0.29146 0.84271 0.15900
N 	N 	0.09219 0.28553 0.68925 -0.26700
C 	C 	0.10233 0.29083 0.74187 0.16500
N 	N 	0.12444 0.30035 0.80063 -0.17500
N 	N 	0.92443 0.28746 0.01630 -0.26400
C 	C 	0.99200 0.27891 0.04450 0.16800
N 	N 	0.22527 0.24495 0.05076 -0.26300
C 	C 	0.14770 0.25642 0.06257 0.16700
N 	N 	0.06192 0.26980 0.08267 -0.17800
N 	N 	0.84943 0.39110 0.91565 -0.27600
C 	C 	0.84167 0.45925 0.90907 0.17600
N 	N 	0.93187 0.64602 0.89535 -0.27000
C 	C 	0.88360 0.59080 0.89800 0.16800
N 	N 	0.82024 0.53411 0.89998 -0.18200
N 	N 	0.17091 0.28285 0.55724 -0.26700
C 	C 	0.25060 0.29144 0.55193 0.17200
N 	N 	0.46090 0.25128 0.48445 -0.26900
C 	C 	0.39991 0.27500 0.51427 0.17500
N 	N 	0.34108 0.30786 0.55262 -0.18100
N 	N 	0.98034 0.89427 0.91673 -0.26500
C 	C 	0.95385 0.95067 0.94268 0.16200
N 	N 	0.89371 0.14592 0.94157 -0.27400
C 	C 	0.90947 0.08088 0.95613 0.17300
N 	N 	0.92617 0.00918 0.97836 -0.17900
Co	Co	0.62924 0.73180 0.42522 1.13500
Co	Co	0.46435 0.73065 0.09847 1.13500
N 	N 	0.67347 0.75571 0.33416 -0.27200
C 	C 	0.68872 0.75749 0.28211 0.17000
N 	N 	0.59495 0.74096 0.14324 -0.27300
C 	C 	0.64821 0.74883 0.18230 0.16900
N 	N 	0.71429 0.75938 0.22374 -0.17800
N 	N 	0.49117 0.71660 0.38437 -0.26100
C 	C 	0.44094 0.70854 0.34271 0.15900
N 	N 	0.40781 0.71447 0.18925 -0.26700
C 	C 	0.39767 0.70917 0.24187 0.16500
N 	N 	0.37556 0.69965 0.30063 -0.17600
N 	N 	0.57557 0.71254 0.51630 -0.26400
C 	C 	0.50800 0.72109 0.54450 0.16600
N 	N 	0.27473 0.75505 0.55076 -0.26300
C 	C 	0.35230 0.74358 0.56257 0.16700
N 	N 	0.43808 0.73020 0.58267 -0.17700
N 	N 	0.65057 0.60890 0.41565 -0.27600
C 	C 	0.65833 0.54075 0.40907 0.17600
N 	N 	0.56813 0.35398 0.39535 -0.27000
C 	C 	0.61640 0.40920 0.39800 0.16900
N 	N 	0.67976 0.46589 0.39998 -0.18200
N 	N 	0.32909 0.71715 0.05724 -0.26700
C 	C 	0.24940 0.70856 0.05193 0.17200
N 	N 	0.03910 0.74872 0.98445 -0.26700
C 	C 	0.10009 0.72500 0.01427 0.17300
N 	N 	0.15892 0.69214 0.05262 -0.18000
N 	N 	0.51966 0.10573 0.41673 -0.26500
C 	C 	0.54615 0.04933 0.44268 0.16300
N 	N 	0.60629 0.85408 0.44157 -0.27400
C 	C 	0.59053 0.91912 0.45613 0.17300
N 	N 	0.57383 0.99082 0.47836 -0.17900
Co	Co	0.12924 0.76820 0.57478 1.13500
Co	Co	0.96435 0.76935 0.90153 1.13500
N 	N 	0.17347 0.74429 0.66584 -0.27200
C 	C 	0.18872 0.74251 0.71789 0.17000
N 	N 	0.09495 0.75904 0.85676 -0.27300
C 	C 	0.14821 0.75117 0.81770 0.16900
N 	N 	0.21429 0.74062 0.77626 -0.17800
N 	N 	0.99117 0.78340 0.61563 -0.26100
C 	C 	0.94094 0.79146 0.65729 0.15800
N 	N 	0.90781 0.78553 0.81075 -0.26700
C 	C 	0.89767 0.79083 0.75813 0.16500
N 	N 	0.87556 0.80035 0.69937 -0.17600
N 	N 	0.07557 0.78746 0.48370 -0.26400
C 	C 	0.00800 0.77891 0.45550 0.16600
N 	N 	0.77473 0.74495 0.44924 -0.26300
C 	C 	0.85230 0.75642 0.43743 0.16700
N 	N 	0.93808 0.76980 0.41733 -0.17700
N 	N 	0.15057 0.89110 0.58435 -0.27600
C 	C 	0.15833 0.95925 0.59093 0.17600
N 	N 	0.06813 0.14602 0.60465 -0.27000
C 	C 	0.11640 0.09080 0.60200 0.16800
N 	N 	0.17976 0.03411 0.60002 -0.18300
N 	N 	0.82909 0.78285 0.94276 -0.26800
C 	C 	0.74940 0.79144 0.94807 0.17200
N 	N 	0.53910 0.75128 0.01555 -0.26800
C 	C 	0.60009 0.77500 0.98573 0.17500
N 	N 	0.65892 0.80786 0.94738 -0.18000
N 	N 	0.01966 0.39427 0.58327 -0.26500
C 	C 	0.04615 0.45067 0.55732 0.16400
N 	N 	0.10629 0.64592 0.55843 -0.27400
C 	C 	0.09053 0.58088 0.54387 0.17300
N 	N 	0.07383 0.50918 0.52164 -0.17900
Co	Co	0.37076 0.23180 0.07478 1.13500
Co	Co	0.53565 0.23065 0.40153 1.13500
N 	N 	0.32653 0.25571 0.16584 -0.27200
C 	C 	0.31128 0.25749 0.21789 0.17000
N 	N 	0.40505 0.24096 0.35676 -0.27400
C 	C 	0.35179 0.24883 0.31770 0.16900
N 	N 	0.28571 0.25938 0.27626 -0.17800
N 	N 	0.50883 0.21660 0.11563 -0.26100
C 	C 	0.55906 0.20854 0.15729 0.15900
N 	N 	0.59219 0.21447 0.31075 -0.26700
C 	C 	0.60233 0.20917 0.25813 0.16500
N 	N 	0.62444 0.19965 0.19937 -0.17500
N 	N 	0.42443 0.21254 0.98370 -0.26400
C 	C 	0.49200 0.22109 0.95550 0.16600
N 	N 	0.72527 0.25505 0.94924 -0.26300
C 	C 	0.64770 0.24358 0.93743 0.16700
N 	N 	0.56192 0.23020 0.91733 -0.17700
N 	N 	0.34943 0.10890 0.08435 -0.27600
C 	C 	0.34167 0.04075 0.09093 0.17500
N 	N 	0.43187 0.85398 0.10465 -0.27000
C 	C 	0.38360 0.90920 0.10200 0.16900
N 	N 	0.32024 0.96589 0.10002 -0.18200
N 	N 	0.67091 0.21715 0.44276 -0.26700
C 	C 	0.75060 0.20856 0.44807 0.17300
N 	N 	0.96090 0.24872 0.51555 -0.26800
C 	C 	0.89991 0.22500 0.48573 0.17500
N 	N 	0.84108 0.19214 0.44738 -0.18000
N 	N 	0.48034 0.60573 0.08327 -0.26400
C 	C 	0.45385 0.54933 0.05732 0.16400
N 	N 	0.39371 0.35408 0.05843 -0.27400
C 	C 	0.40947 0.41912 0.04387 0.17300
N 	N 	0.42617 0.49082 0.02164 -0.17900
