data_crystal

_cell_length_a 11.18650
_cell_length_b 11.18650
_cell_length_c 11.92470
_cell_angle_alpha 69.75030
_cell_angle_beta  69.75030
_cell_angle_gamma 82.36490

_symmetry_space_group_name_	'P 1'
_symmetry_space_group_name_H-M	'P 1'

loop_
_symmetry_equiv_pos_as_xyz
  x,y,z

loop_
_atom_site_label
_atom_site_type_symbol
_atom_site_fract_x
_atom_site_fract_y
_atom_site_fract_z
_atom_site_charge
Mn	Mn	0.42128 0.77388 0.59732 1.26000
Mn	Mn	0.22612 0.57872 0.90268 1.26000
H 	H 	0.86920 0.66900 0.75060 0.01100
H 	H 	0.15930 0.86410 0.45200 0.04200
H 	H 	0.80710 0.89370 0.42530 0.04600
H 	H 	0.93940 0.05100 0.21350 -0.10100
H 	H 	0.94980 0.90420 0.21770 -0.02900
H 	H 	0.42990 0.49830 0.75280 0.17300
H 	H 	0.45630 0.58210 0.80460 0.19600
H 	H 	0.33100 0.13080 0.74940 0.01000
H 	H 	0.13590 0.84070 0.04800 0.04000
H 	H 	0.10630 0.19290 0.07470 0.04600
H 	H 	0.94900 0.06060 0.28650 -0.10300
H 	H 	0.09580 0.05020 0.28230 -0.03200
H 	H 	0.50170 0.57010 0.74720 0.17300
H 	H 	0.41790 0.54370 0.69540 0.19600
C 	C 	0.68155 0.73575 0.64790 0.35700
C 	C 	0.81829 0.77529 0.59590 -0.10400
C 	C 	0.90023 0.72563 0.66660 0.04900
C 	C 	0.02905 0.75985 0.61300 -0.13100
C 	C 	0.12292 0.70992 0.68350 0.42100
C 	C 	0.07191 0.84191 0.48930 0.01800
C 	C 	0.99080 0.89140 0.42050 0.02900
C 	C 	0.86358 0.85898 0.47290 -0.03300
C 	C 	0.99830 0.97650 0.20590 0.42000
C 	C 	0.26425 0.31845 0.85210 0.35800
C 	C 	0.22471 0.18171 0.90410 -0.10600
C 	C 	0.27437 0.09977 0.83340 0.05500
C 	C 	0.24015 0.97095 0.88700 -0.13900
C 	C 	0.29008 0.87708 0.81650 0.42400
C 	C 	0.15809 0.92809 0.01070 0.02900
C 	C 	0.10860 0.00920 0.07950 0.02100
C 	C 	0.14102 0.13642 0.02710 -0.03000
C 	C 	0.02350 0.00170 0.29410 0.43100
O 	O 	0.60800 0.80372 0.59050 -0.46300
O 	O 	0.64760 0.63836 0.74260 -0.34600
O 	O 	0.08390 0.64698 0.79920 -0.45100
O 	O 	0.23610 0.73578 0.62130 -0.52000
O 	O 	0.06810 0.94210 0.29380 -0.38200
O 	O 	0.19628 0.39200 0.90950 -0.46300
O 	O 	0.36164 0.35240 0.75740 -0.34600
O 	O 	0.35302 0.91610 0.70080 -0.45200
O 	O 	0.26422 0.76390 0.87870 -0.52100
O 	O 	0.05790 0.93190 0.20620 -0.37200
O 	O 	0.41800 0.58200 0.75000 -0.94400
Mn	Mn	0.57872 0.22612 0.40268 1.26100
Mn	Mn	0.77388 0.42128 0.09732 1.26100
H 	H 	0.13080 0.33100 0.24940 0.01200
H 	H 	0.84070 0.13590 0.54800 0.04300
H 	H 	0.19290 0.10630 0.57470 0.04700
H 	H 	0.06060 0.94900 0.78650 -0.10000
H 	H 	0.05020 0.09580 0.78230 -0.02900
H 	H 	0.57010 0.50170 0.24720 0.17300
H 	H 	0.54370 0.41790 0.19540 0.19600
H 	H 	0.66900 0.86920 0.25060 0.01000
H 	H 	0.86410 0.15930 0.95200 0.04000
H 	H 	0.89370 0.80710 0.92530 0.04600
H 	H 	0.05100 0.93940 0.71350 -0.10300
H 	H 	0.90420 0.94980 0.71770 -0.03200
H 	H 	0.49830 0.42990 0.25280 0.17300
H 	H 	0.58210 0.45630 0.30460 0.19600
C 	C 	0.31845 0.26425 0.35210 0.35700
C 	C 	0.18171 0.22471 0.40410 -0.10400
C 	C 	0.09977 0.27437 0.33340 0.04900
C 	C 	0.97095 0.24015 0.38700 -0.13100
C 	C 	0.87708 0.29008 0.31650 0.42100
C 	C 	0.92809 0.15809 0.51070 0.01800
C 	C 	0.00920 0.10860 0.57950 0.02900
C 	C 	0.13642 0.14102 0.52710 -0.03300
C 	C 	0.00170 0.02350 0.79410 0.42000
C 	C 	0.73575 0.68155 0.14790 0.35800
C 	C 	0.77529 0.81829 0.09590 -0.10600
C 	C 	0.72563 0.90023 0.16660 0.05500
C 	C 	0.75985 0.02905 0.11300 -0.13900
C 	C 	0.70992 0.12292 0.18350 0.42400
C 	C 	0.84191 0.07191 0.98930 0.02900
C 	C 	0.89140 0.99080 0.92050 0.02100
C 	C 	0.85898 0.86358 0.97290 -0.03000
C 	C 	0.97650 0.99830 0.70590 0.43100
O 	O 	0.39200 0.19628 0.40950 -0.46300
O 	O 	0.35240 0.36164 0.25740 -0.34600
O 	O 	0.91610 0.35302 0.20080 -0.45100
O 	O 	0.76390 0.26422 0.37870 -0.52000
O 	O 	0.93190 0.05790 0.70620 -0.38200
O 	O 	0.80372 0.60800 0.09050 -0.46300
O 	O 	0.63836 0.64760 0.24260 -0.34600
O 	O 	0.64698 0.08390 0.29920 -0.45200
O 	O 	0.73578 0.23610 0.12130 -0.52100
O 	O 	0.94210 0.06810 0.79380 -0.37200
O 	O 	0.58200 0.41800 0.25000 -0.94400
