data_crystal

_cell_length_a 16.81670
_cell_length_b 14.26360
_cell_length_c 12.00700
_cell_angle_alpha 90.00000
_cell_angle_beta  118.46900
_cell_angle_gamma 90.00000

_symmetry_space_group_name_	'P 1'
_symmetry_space_group_name_H-M	'P 1'

loop_
_symmetry_equiv_pos_as_xyz
  x,y,z

loop_
_atom_site_label
_atom_site_type_symbol
_atom_site_fract_x
_atom_site_fract_y
_atom_site_fract_z
_atom_site_charge
Co	Co	0.40322 0.82699 0.59902 1.14700
O 	O 	0.29843 0.90603 0.58580 -0.44300
O 	O 	0.36117 0.00405 0.75010 -0.33400
C 	C 	0.29570 0.97440 0.65030 0.34700
C 	C 	0.20560 0.02400 0.59840 -0.09400
C 	C 	0.18830 0.08980 0.66880 0.06100
H 	H 	0.23250 0.10300 0.75350 0.01500
C 	C 	0.10470 0.13690 0.61420 -0.14500
C 	C 	0.07920 0.21030 0.68240 0.43400
O 	O 	0.12989 0.22675 0.79700 -0.43300
O 	O 	0.00576 0.24770 0.61470 -0.47000
C 	C 	0.04120 0.11680 0.48940 0.08100
H 	H 	0.98500 0.14900 0.45130 -0.00200
C 	C 	0.05910 0.05090 0.42070 0.05500
C 	C 	0.14120 0.00420 0.47420 -0.03400
H 	H 	0.15350 0.95890 0.42640 0.06000
O 	O 	0.99580 0.06500 0.28930 -0.43900
C 	C 	0.01450 0.01110 0.20560 0.59400
H 	H 	0.00670 0.94440 0.21310 -0.13200
H 	H 	0.07480 0.02300 0.21730 -0.08400
H 	H 	0.53590 0.96170 0.75280 0.19200
H 	H 	0.48080 0.93310 0.80460 0.18600
Co	Co	0.90322 0.32699 0.59902 1.13300
O 	O 	0.79843 0.40603 0.58580 -0.44800
O 	O 	0.86117 0.50405 0.75010 -0.34100
C 	C 	0.79570 0.47440 0.65030 0.35500
C 	C 	0.70560 0.52400 0.59840 -0.10300
C 	C 	0.68830 0.58980 0.66880 0.05700
H 	H 	0.73250 0.60300 0.75350 0.01300
C 	C 	0.60470 0.63690 0.61420 -0.13100
C 	C 	0.57920 0.71030 0.68240 0.42900
O 	O 	0.62989 0.72675 0.79700 -0.43800
O 	O 	0.50576 0.74770 0.61470 -0.49400
C 	C 	0.54120 0.61680 0.48940 0.01800
H 	H 	0.48500 0.64900 0.45130 0.04900
C 	C 	0.55910 0.55090 0.42070 0.01300
C 	C 	0.64120 0.50420 0.47420 -0.01700
H 	H 	0.65350 0.45890 0.42640 0.04900
O 	O 	0.49580 0.56500 0.28930 -0.41100
C 	C 	0.51450 0.51110 0.20560 0.54600
H 	H 	0.50670 0.44440 0.21310 -0.14500
H 	H 	0.57480 0.52300 0.21730 -0.07000
H 	H 	0.03590 0.46170 0.75280 0.19200
H 	H 	0.98080 0.43310 0.80460 0.15100
Co	Co	0.59678 0.82699 0.90098 1.14700
O 	O 	0.70157 0.90603 0.91420 -0.44300
O 	O 	0.63883 0.00405 0.74990 -0.33100
C 	C 	0.70430 0.97440 0.84970 0.34000
C 	C 	0.79440 0.02400 0.90160 -0.07300
C 	C 	0.81170 0.08980 0.83120 0.02700
H 	H 	0.76750 0.10300 0.74650 0.02400
C 	C 	0.89530 0.13690 0.88580 -0.08800
C 	C 	0.92080 0.21030 0.81760 0.41400
O 	O 	0.87011 0.22675 0.70300 -0.44100
O 	O 	0.99424 0.24770 0.88530 -0.51600
C 	C 	0.95880 0.11680 0.01060 -0.08000
H 	H 	0.01500 0.14900 0.04870 0.11000
C 	C 	0.94090 0.05090 0.07930 -0.00200
C 	C 	0.85880 0.00420 0.02580 -0.04300
H 	H 	0.84650 0.95890 0.07360 0.05600
O 	O 	0.00420 0.06500 0.21070 -0.37100
C 	C 	0.98550 0.01110 0.29440 0.46600
H 	H 	0.99330 0.94440 0.28690 -0.14700
H 	H 	0.92520 0.02300 0.28270 -0.04900
H 	H 	0.46410 0.96170 0.74720 0.19200
H 	H 	0.51920 0.93310 0.69540 0.18600
Co	Co	0.09678 0.32699 0.90098 1.15700
O 	O 	0.20157 0.40603 0.91420 -0.44100
O 	O 	0.13883 0.50405 0.74990 -0.32700
C 	C 	0.20430 0.47440 0.84970 0.35200
C 	C 	0.29440 0.52400 0.90160 -0.09700
C 	C 	0.31170 0.58980 0.83120 0.05500
H 	H 	0.26750 0.60300 0.74650 0.01800
C 	C 	0.39530 0.63690 0.88580 -0.12800
C 	C 	0.42080 0.71030 0.81760 0.42800
O 	O 	0.37011 0.72675 0.70300 -0.43600
O 	O 	0.49424 0.74770 0.88530 -0.49400
C 	C 	0.45880 0.61680 0.01060 0.01700
H 	H 	0.51500 0.64900 0.04870 0.04900
C 	C 	0.44090 0.55090 0.07930 0.01500
C 	C 	0.35880 0.50420 0.02580 -0.02000
H 	H 	0.34650 0.45890 0.07360 0.05100
O 	O 	0.50420 0.56500 0.21070 -0.41100
C 	C 	0.48550 0.51110 0.29440 0.54600
H 	H 	0.49330 0.44440 0.28690 -0.14500
H 	H 	0.42520 0.52300 0.28270 -0.06900
H 	H 	0.96410 0.46170 0.74720 0.16400
H 	H 	0.01920 0.43310 0.69540 0.17400
O 	O 	0.50000 0.91400 0.75000 -0.94400
O 	O 	-0.00000 0.41400 0.75000 -0.86100
Co	Co	0.59678 0.17301 0.40098 1.14700
O 	O 	0.70157 0.09397 0.41420 -0.44500
O 	O 	0.63883 0.99595 0.24990 -0.33400
C 	C 	0.70430 0.02560 0.34970 0.34900
C 	C 	0.79440 0.97600 0.40160 -0.09900
C 	C 	0.81170 0.91020 0.33120 0.04700
H 	H 	0.76750 0.89700 0.24650 0.01800
C 	C 	0.89530 0.86310 0.38580 -0.11100
C 	C 	0.92080 0.78970 0.31760 0.42200
O 	O 	0.87011 0.77325 0.20300 -0.44300
O 	O 	0.99424 0.75230 0.38530 -0.52100
C 	C 	0.95880 0.88320 0.51060 -0.04800
H 	H 	0.01500 0.85100 0.54870 0.09900
C 	C 	0.94090 0.94910 0.57930 -0.01700
C 	C 	0.85880 0.99580 0.52580 -0.00900
H 	H 	0.84650 0.04110 0.57360 0.04200
O 	O 	0.00420 0.93500 0.71070 -0.37200
C 	C 	0.98550 0.98890 0.79440 0.47000
H 	H 	0.99330 0.05560 0.78690 -0.14700
H 	H 	0.92520 0.97700 0.78270 -0.04900
H 	H 	0.46410 0.03830 0.24720 0.19200
H 	H 	0.51920 0.06690 0.19540 0.18600
Co	Co	0.09678 0.67301 0.40098 1.15700
O 	O 	0.20157 0.59397 0.41420 -0.44200
O 	O 	0.13883 0.49595 0.24990 -0.32700
C 	C 	0.20430 0.52560 0.34970 0.35300
C 	C 	0.29440 0.47600 0.40160 -0.09800
C 	C 	0.31170 0.41020 0.33120 0.05600
H 	H 	0.26750 0.39700 0.24650 0.01800
C 	C 	0.39530 0.36310 0.38580 -0.12900
C 	C 	0.42080 0.28970 0.31760 0.42900
O 	O 	0.37011 0.27325 0.20300 -0.43700
O 	O 	0.49424 0.25230 0.38530 -0.49400
C 	C 	0.45880 0.38320 0.51060 0.01700
H 	H 	0.51500 0.35100 0.54870 0.04900
C 	C 	0.44090 0.44910 0.57930 0.01500
C 	C 	0.35880 0.49580 0.52580 -0.01900
H 	H 	0.34650 0.54110 0.57360 0.05100
O 	O 	0.50420 0.43500 0.71070 -0.41200
C 	C 	0.48550 0.48890 0.79440 0.54700
H 	H 	0.49330 0.55560 0.78690 -0.14500
H 	H 	0.42520 0.47700 0.78270 -0.06900
H 	H 	0.96410 0.53830 0.24720 0.16200
H 	H 	0.01920 0.56690 0.19540 0.17200
Co	Co	0.40322 0.17301 0.09902 1.14700
O 	O 	0.29843 0.09397 0.08580 -0.44200
O 	O 	0.36117 0.99595 0.25010 -0.33100
C 	C 	0.29570 0.02560 0.15030 0.34100
C 	C 	0.20560 0.97600 0.09840 -0.07500
C 	C 	0.18830 0.91020 0.16880 0.04700
H 	H 	0.23250 0.89700 0.25350 0.01900
C 	C 	0.10470 0.86310 0.11420 -0.12900
C 	C 	0.07920 0.78970 0.18240 0.42900
O 	O 	0.12989 0.77325 0.29700 -0.43200
O 	O 	0.00576 0.75230 0.11470 -0.46800
C 	C 	0.04120 0.88320 0.98940 0.05600
H 	H 	0.98500 0.85100 0.95130 0.00900
C 	C 	0.05910 0.94910 0.92070 0.06500
C 	C 	0.14120 0.99580 0.97420 -0.06000
H 	H 	0.15350 0.04110 0.92640 0.07200
O 	O 	0.99580 0.93500 0.78930 -0.43900
C 	C 	0.01450 0.98890 0.70560 0.59200
H 	H 	0.00670 0.05560 0.71310 -0.13200
H 	H 	0.07480 0.97700 0.71730 -0.08400
H 	H 	0.53590 0.03830 0.25280 0.19200
H 	H 	0.48080 0.06690 0.30460 0.18700
Co	Co	0.90322 0.67301 0.09902 1.13200
O 	O 	0.79843 0.59397 0.08580 -0.44900
O 	O 	0.86117 0.49595 0.25010 -0.34300
C 	C 	0.79570 0.52560 0.15030 0.35700
C 	C 	0.70560 0.47600 0.09840 -0.11000
C 	C 	0.68830 0.41020 0.16880 0.06300
H 	H 	0.73250 0.39700 0.25350 0.01100
C 	C 	0.60470 0.36310 0.11420 -0.13900
C 	C 	0.57920 0.28970 0.18240 0.43100
O 	O 	0.62989 0.27325 0.29700 -0.43900
O 	O 	0.50576 0.25230 0.11470 -0.49600
C 	C 	0.54120 0.38320 0.98940 0.02800
H 	H 	0.48500 0.35100 0.95130 0.04700
C 	C 	0.55910 0.44910 0.92070 0.00800
C 	C 	0.64120 0.49580 0.97420 -0.00800
H 	H 	0.65350 0.54110 0.92640 0.04700
O 	O 	0.49580 0.43500 0.78930 -0.41000
C 	C 	0.51450 0.48890 0.70560 0.54700
H 	H 	0.50670 0.55560 0.71310 -0.14500
H 	H 	0.57480 0.47700 0.71730 -0.06900
H 	H 	0.03590 0.53830 0.25280 0.19200
H 	H 	0.98080 0.56690 0.30460 0.14800
O 	O 	0.50000 0.08600 0.25000 -0.94300
O 	O 	-0.00000 0.58600 0.25000 -0.85500
