data_crystal

_cell_length_a 16.79100
_cell_length_b 14.10700
_cell_length_c 12.22800
_cell_angle_alpha 90.00000
_cell_angle_beta  119.02000
_cell_angle_gamma 90.00000

_symmetry_space_group_name_	'P 1'
_symmetry_space_group_name_H-M	'P 1'

loop_
_symmetry_equiv_pos_as_xyz
  x,y,z

loop_
_atom_site_label
_atom_site_type_symbol
_atom_site_fract_x
_atom_site_fract_y
_atom_site_fract_z
_atom_site_charge
Co	Co	0.09662 0.16872 0.89762 1.16000
C 	C 	0.42340 0.78580 0.82210 0.41300
C 	C 	0.39880 0.85980 0.88910 -0.07700
C 	C 	0.31600 0.90790 0.83300 0.02400
H 	H 	0.27330 0.89580 0.75020 0.04100
C 	C 	0.29770 0.97400 0.90170 -0.01200
C 	C 	0.36130 0.99300 0.02580 -0.12800
H 	H 	0.34870 0.03790 0.07090 0.10200
C 	C 	0.44360 0.94460 0.08180 0.16700
C 	C 	0.46090 0.87820 0.01280 -0.01100
H 	H 	0.51570 0.84510 0.05050 0.10400
C 	C 	0.20640 0.02220 0.84750 0.32300
O 	O 	0.48824 0.73200 0.89220 -0.45500
O 	O 	0.38117 0.77881 0.70610 -0.41200
O 	O 	0.13965 0.98680 0.75590 -0.29200
O 	O 	0.20370 0.09694 0.90190 -0.42700
O 	O 	0.50036 0.93346 0.20424 -1.74900
H 	H 	0.03440 0.04130 0.73620 0.34200
C 	C 	0.51750 0.98230 0.21160 2.69300
H 	H 	0.57830 0.96850 0.22540 -0.54100
H 	H 	0.51160 0.05020 0.21830 -0.79400
Co	Co	0.59662 0.66872 0.89762 1.15700
C 	C 	0.92340 0.28580 0.82210 0.41400
C 	C 	0.89880 0.35980 0.88910 -0.08200
C 	C 	0.81600 0.40790 0.83300 0.04400
H 	H 	0.77330 0.39580 0.75020 0.03100
C 	C 	0.79770 0.47400 0.90170 -0.05900
C 	C 	0.86130 0.49300 0.02580 -0.06400
H 	H 	0.84870 0.53790 0.07090 0.06700
C 	C 	0.94360 0.44460 0.08180 0.10400
C 	C 	0.96090 0.37820 0.01280 -0.05100
H 	H 	0.01570 0.34510 0.05050 0.15300
C 	C 	0.70640 0.52220 0.84750 0.35500
O 	O 	0.98824 0.23200 0.89220 -0.48200
O 	O 	0.88117 0.27881 0.70610 -0.42000
O 	O 	0.63965 0.48680 0.75590 -0.31700
O 	O 	0.70370 0.59694 0.90190 -0.43300
O 	O 	0.00036 0.43346 0.20424 -1.75300
H 	H 	0.53440 0.54130 0.73620 0.35600
C 	C 	0.01750 0.48230 0.21160 2.83400
H 	H 	0.07830 0.46850 0.22540 -0.57400
H 	H 	0.01160 0.55020 0.21830 -0.81400
Co	Co	0.90338 0.16872 0.60238 1.14200
C 	C 	0.57660 0.78580 0.67790 0.42500
C 	C 	0.60120 0.85980 0.61090 -0.11000
C 	C 	0.68400 0.90790 0.66700 0.05800
H 	H 	0.72670 0.89580 0.74980 0.02700
C 	C 	0.70230 0.97400 0.59830 -0.06300
C 	C 	0.63870 0.99300 0.47420 -0.07100
H 	H 	0.65130 0.03790 0.42910 0.07600
C 	C 	0.55640 0.94460 0.41820 0.13400
C 	C 	0.53910 0.87820 0.48720 0.02800
H 	H 	0.48430 0.84510 0.44950 0.09300
C 	C 	0.79360 0.02220 0.65250 0.35100
O 	O 	0.51176 0.73200 0.60780 -0.46000
O 	O 	0.61883 0.77881 0.79390 -0.41500
O 	O 	0.86035 0.98680 0.74410 -0.31700
O 	O 	0.79630 0.09694 0.59810 -0.43600
O 	O 	0.49964 0.93346 0.29576 -1.73600
H 	H 	0.96560 0.04130 0.76380 0.30800
C 	C 	0.48250 0.98230 0.28840 2.69500
H 	H 	0.42170 0.96850 0.27460 -0.54200
H 	H 	0.48840 0.05020 0.28170 -0.79600
Co	Co	0.40338 0.66872 0.60238 1.15600
C 	C 	0.07660 0.28580 0.67790 0.43600
C 	C 	0.10120 0.35980 0.61090 -0.13200
C 	C 	0.18400 0.40790 0.66700 0.07100
H 	H 	0.22670 0.39580 0.74980 0.02300
C 	C 	0.20230 0.47400 0.59830 -0.06500
C 	C 	0.13870 0.49300 0.47420 -0.07800
H 	H 	0.15130 0.53790 0.42910 0.08300
C 	C 	0.05640 0.44460 0.41820 0.17100
C 	C 	0.03910 0.37820 0.48720 0.10000
H 	H 	0.98430 0.34510 0.44950 0.04200
C 	C 	0.29360 0.52220 0.65250 0.35800
O 	O 	0.01176 0.23200 0.60780 -0.44100
O 	O 	0.11883 0.27881 0.79390 -0.41300
O 	O 	0.36035 0.48680 0.74410 -0.31800
O 	O 	0.29630 0.59694 0.59810 -0.43300
O 	O 	0.99964 0.43346 0.29576 -1.82200
H 	H 	0.46560 0.54130 0.76380 0.35600
C 	C 	0.98250 0.48230 0.28840 2.72000
H 	H 	0.92170 0.46850 0.27460 -0.54400
H 	H 	0.98840 0.55020 0.28170 -0.83200
O 	O 	-0.00000 0.07962 0.75000 -0.85000
O 	O 	0.50000 0.57962 0.75000 -0.91700
Co	Co	0.90338 0.83128 0.10238 1.13800
C 	C 	0.57660 0.21420 0.17790 0.41700
C 	C 	0.60120 0.14020 0.11090 -0.08500
C 	C 	0.68400 0.09210 0.16700 0.03200
H 	H 	0.72670 0.10420 0.24980 0.03500
C 	C 	0.70230 0.02600 0.09830 -0.02400
C 	C 	0.63870 0.00700 0.97420 -0.11800
H 	H 	0.65130 0.96210 0.92910 0.09900
C 	C 	0.55640 0.05540 0.91820 0.16000
C 	C 	0.53910 0.12180 0.98720 -0.00200
H 	H 	0.48430 0.15490 0.94950 0.10200
C 	C 	0.79360 0.97780 0.15250 0.32800
O 	O 	0.51176 0.26800 0.10780 -0.45700
O 	O 	0.61883 0.22119 0.29390 -0.41400
O 	O 	0.86035 0.01320 0.24410 -0.30800
O 	O 	0.79630 0.90306 0.09810 -0.43400
O 	O 	0.49964 0.06654 0.79576 -1.74500
H 	H 	0.96560 0.95870 0.26380 0.29700
C 	C 	0.48250 0.01770 0.78840 2.69000
H 	H 	0.42170 0.03150 0.77460 -0.54000
H 	H 	0.48840 0.94980 0.78170 -0.79300
Co	Co	0.40338 0.33128 0.10238 1.15600
C 	C 	0.07660 0.71420 0.17790 0.43500
C 	C 	0.10120 0.64020 0.11090 -0.12900
C 	C 	0.18400 0.59210 0.16700 0.06900
H 	H 	0.22670 0.60420 0.24980 0.02400
C 	C 	0.20230 0.52600 0.09830 -0.06300
C 	C 	0.13870 0.50700 0.97420 -0.08000
H 	H 	0.15130 0.46210 0.92910 0.08300
C 	C 	0.05640 0.55540 0.91820 0.16900
C 	C 	0.03910 0.62180 0.98720 0.09300
H 	H 	0.98430 0.65490 0.94950 0.04800
C 	C 	0.29360 0.47780 0.15250 0.35700
O 	O 	0.01176 0.76800 0.10780 -0.44000
O 	O 	0.11883 0.72119 0.29390 -0.41100
O 	O 	0.36035 0.51320 0.24410 -0.31700
O 	O 	0.29630 0.40306 0.09810 -0.43100
O 	O 	0.99964 0.56654 0.79576 -1.81900
H 	H 	0.46560 0.45870 0.26380 0.35600
C 	C 	0.98250 0.51770 0.78840 2.72300
H 	H 	0.92170 0.53150 0.77460 -0.54400
H 	H 	0.98840 0.44980 0.78170 -0.83000
Co	Co	0.09662 0.83128 0.39762 1.16400
C 	C 	0.42340 0.21420 0.32210 0.42500
C 	C 	0.39880 0.14020 0.38910 -0.10700
C 	C 	0.31600 0.09210 0.33300 0.05600
H 	H 	0.27330 0.10420 0.25020 0.03100
C 	C 	0.29770 0.02600 0.40170 -0.05800
C 	C 	0.36130 0.00700 0.52580 -0.07400
H 	H 	0.34870 0.96210 0.57090 0.07800
C 	C 	0.44360 0.05540 0.58180 0.13600
C 	C 	0.46090 0.12180 0.51280 0.02700
H 	H 	0.51570 0.15490 0.55050 0.09400
C 	C 	0.20640 0.97780 0.34750 0.34900
O 	O 	0.48824 0.26800 0.39220 -0.46000
O 	O 	0.38117 0.22119 0.20610 -0.41400
O 	O 	0.13965 0.01320 0.25590 -0.30200
O 	O 	0.20370 0.90306 0.40190 -0.43000
O 	O 	0.50036 0.06654 0.70424 -1.73400
H 	H 	0.03440 0.95870 0.23620 0.34000
C 	C 	0.51750 0.01770 0.71160 2.69000
H 	H 	0.57830 0.03150 0.72540 -0.54100
H 	H 	0.51160 0.94980 0.71830 -0.79500
Co	Co	0.59662 0.33128 0.39762 1.15600
C 	C 	0.92340 0.71420 0.32210 0.41800
C 	C 	0.89880 0.64020 0.38910 -0.09100
C 	C 	0.81600 0.59210 0.33300 0.05200
H 	H 	0.77330 0.60420 0.25020 0.02800
C 	C 	0.79770 0.52600 0.40170 -0.06900
C 	C 	0.86130 0.50700 0.52580 -0.05500
H 	H 	0.84870 0.46210 0.57090 0.06600
C 	C 	0.94360 0.55540 0.58180 0.10200
C 	C 	0.96090 0.62180 0.51280 -0.04000
H 	H 	0.01570 0.65490 0.55050 0.14800
C 	C 	0.70640 0.47780 0.34750 0.35800
O 	O 	0.98824 0.76800 0.39220 -0.48600
O 	O 	0.88117 0.72119 0.20610 -0.42300
O 	O 	0.63965 0.51320 0.25590 -0.31900
O 	O 	0.70370 0.40306 0.40190 -0.43500
O 	O 	0.00036 0.56654 0.70424 -1.75400
H 	H 	0.53440 0.45870 0.23620 0.35500
C 	C 	0.01750 0.51770 0.71160 2.82800
H 	H 	0.07830 0.53150 0.72540 -0.57200
H 	H 	0.01160 0.44980 0.71830 -0.81500
O 	O 	0.00000 0.92038 0.25000 -0.83600
O 	O 	0.50000 0.42038 0.25000 -0.91700
