data_crystal

_cell_length_a 14.31750
_cell_length_b 14.40200
_cell_length_c 22.61620
_cell_angle_alpha 90.00000
_cell_angle_beta  100.49800
_cell_angle_gamma 90.00000

_symmetry_space_group_name_	'P 1'
_symmetry_space_group_name_H-M	'P 1'

loop_
_symmetry_equiv_pos_as_xyz
  x,y,z

loop_
_atom_site_label
_atom_site_type_symbol
_atom_site_fract_x
_atom_site_fract_y
_atom_site_fract_z
_atom_site_charge
Cd	Cd	0.75528 0.74707 0.24112 1.23600
Cd	Cd	0.31474 0.12532 0.13933 1.15900
O 	O 	0.80450 0.81970 0.16262 -0.37800
O 	O 	0.87940 0.86230 0.25330 -0.34800
C 	C 	0.86780 0.86630 0.19640 0.27500
C 	C 	0.93090 0.92790 0.16728 -0.03800
C 	C 	0.99660 0.98540 0.20130 -0.00700
H 	H 	0.00170 0.98780 0.24370 0.05400
C 	C 	0.05470 0.03960 0.17310 -0.07400
C 	C 	0.04790 0.03550 0.11120 -0.09100
H 	H 	0.08860 0.07280 0.09220 0.02200
C 	C 	0.98260 0.97780 0.07710 0.09900
C 	C 	0.92310 0.92530 0.10500 -0.10000
H 	H 	0.87630 0.88700 0.08160 0.06000
C 	C 	0.98380 0.95030 0.01220 -0.53700
H 	H 	0.92030 0.93070 0.99080 0.10900
H 	H 	0.03070 0.90060 0.00950 0.16900
C 	C 	0.12380 0.10750 0.20890 0.32100
O 	O 	0.12330 0.12140 0.26277 -0.35200
O 	O 	0.18050 0.15100 0.18093 -0.54000
O 	O 	0.39460 0.09400 0.23150 -0.50300
O 	O 	0.35170 0.15600 0.31312 -0.44100
C 	C 	0.39640 0.10010 0.28690 0.37900
C 	C 	0.46290 0.03400 0.32689 -0.07800
C 	C 	0.46610 0.03330 0.38830 -0.08800
H 	H 	0.42770 0.07560 0.40550 0.06700
C 	C 	0.52390 0.97220 0.42500 0.11600
C 	C 	0.57800 0.91030 0.40010 -0.09900
H 	H 	0.61630 0.86680 0.42530 0.04600
C 	C 	0.57790 0.90980 0.33860 -0.07900
C 	C 	0.51850 0.97220 0.30160 0.00700
H 	H 	0.51640 0.97200 0.25940 0.03200
C 	C 	0.53670 0.98800 0.48900 -0.54600
H 	H 	0.56270 0.93040 0.50960 0.05800
H 	H 	0.58550 0.03690 0.49950 0.17400
C 	C 	0.63720 0.84180 0.31150 0.35500
O 	O 	0.64420 0.85190 0.25780 -0.42100
O 	O 	0.68030 0.78130 0.34560 -0.50500
O 	O 	0.96390 0.98290 0.01480 0.21100
O 	O 	0.52330 0.95790 0.48810 0.28000
Cd	Cd	0.24472 0.24707 0.25888 1.23500
Cd	Cd	0.68526 0.62532 0.36066 1.15800
O 	O 	0.19550 0.31970 0.33738 -0.37800
O 	O 	0.12060 0.36230 0.24670 -0.34900
C 	C 	0.13220 0.36630 0.30360 0.27300
C 	C 	0.06910 0.42790 0.33272 -0.03300
C 	C 	0.00340 0.48540 0.29870 -0.02100
H 	H 	0.99830 0.48780 0.25630 0.06100
C 	C 	0.94530 0.53960 0.32690 -0.06700
C 	C 	0.95210 0.53550 0.38880 -0.09100
H 	H 	0.91140 0.57280 0.40780 0.02300
C 	C 	0.01740 0.47780 0.42290 0.09800
C 	C 	0.07690 0.42530 0.39500 -0.10300
H 	H 	0.12370 0.38700 0.41840 0.06000
C 	C 	0.01620 0.45030 0.48780 -0.53300
H 	H 	0.07970 0.43070 0.50920 0.11000
H 	H 	0.96930 0.40060 0.49050 0.17000
C 	C 	0.87620 0.60750 0.29110 0.31900
O 	O 	0.87670 0.62140 0.23723 -0.35200
O 	O 	0.81950 0.65100 0.31907 -0.53900
O 	O 	0.60540 0.59400 0.26850 -0.50300
O 	O 	0.64830 0.65600 0.18688 -0.44100
C 	C 	0.60360 0.60010 0.21310 0.37800
C 	C 	0.53710 0.53400 0.17311 -0.07700
C 	C 	0.53390 0.53330 0.11170 -0.08800
H 	H 	0.57230 0.57560 0.09450 0.06700
C 	C 	0.47610 0.47220 0.07500 0.11600
C 	C 	0.42200 0.41030 0.09990 -0.09900
H 	H 	0.38370 0.36680 0.07470 0.04500
C 	C 	0.42210 0.40980 0.16140 -0.07900
C 	C 	0.48150 0.47220 0.19840 0.00600
H 	H 	0.48360 0.47200 0.24060 0.03200
C 	C 	0.46330 0.48800 0.01100 -0.54600
H 	H 	0.43730 0.43040 0.99040 0.05800
H 	H 	0.41450 0.53690 0.00050 0.17400
C 	C 	0.36280 0.34180 0.18850 0.35500
O 	O 	0.35580 0.35190 0.24220 -0.42100
O 	O 	0.31970 0.28130 0.15440 -0.50500
O 	O 	0.03610 0.48290 0.48520 0.20500
O 	O 	0.47670 0.45790 0.01190 0.27900
Cd	Cd	0.24472 0.25293 0.75888 1.23500
Cd	Cd	0.68526 0.87468 0.86066 1.15800
O 	O 	0.19550 0.18030 0.83738 -0.37800
O 	O 	0.12060 0.13770 0.74670 -0.34800
C 	C 	0.13220 0.13370 0.80360 0.27500
C 	C 	0.06910 0.07210 0.83272 -0.03800
C 	C 	0.00340 0.01460 0.79870 -0.00700
H 	H 	0.99830 0.01220 0.75630 0.05400
C 	C 	0.94530 0.96040 0.82690 -0.07400
C 	C 	0.95210 0.96450 0.88880 -0.09100
H 	H 	0.91140 0.92720 0.90780 0.02200
C 	C 	0.01740 0.02220 0.92290 0.09900
C 	C 	0.07690 0.07470 0.89500 -0.10000
H 	H 	0.12370 0.11300 0.91840 0.06000
C 	C 	0.01620 0.04970 0.98780 -0.53700
H 	H 	0.07970 0.06930 0.00920 0.10900
H 	H 	0.96930 0.09940 0.99050 0.16900
C 	C 	0.87620 0.89250 0.79110 0.32100
O 	O 	0.87670 0.87860 0.73723 -0.35200
O 	O 	0.81950 0.84900 0.81907 -0.54000
O 	O 	0.60540 0.90600 0.76850 -0.50300
O 	O 	0.64830 0.84400 0.68688 -0.44100
C 	C 	0.60360 0.89990 0.71310 0.37900
C 	C 	0.53710 0.96600 0.67311 -0.07800
C 	C 	0.53390 0.96670 0.61170 -0.08800
H 	H 	0.57230 0.92440 0.59450 0.06700
C 	C 	0.47610 0.02780 0.57500 0.11600
C 	C 	0.42200 0.08970 0.59990 -0.09900
H 	H 	0.38370 0.13320 0.57470 0.04600
C 	C 	0.42210 0.09020 0.66140 -0.07900
C 	C 	0.48150 0.02780 0.69840 0.00700
H 	H 	0.48360 0.02800 0.74060 0.03200
C 	C 	0.46330 0.01200 0.51100 -0.54600
H 	H 	0.43730 0.06960 0.49040 0.05800
H 	H 	0.41450 0.96310 0.50050 0.17400
C 	C 	0.36280 0.15820 0.68850 0.35500
O 	O 	0.35580 0.14810 0.74220 -0.42100
O 	O 	0.31970 0.21870 0.65440 -0.50500
O 	O 	0.03610 0.01710 0.98520 0.21100
O 	O 	0.47670 0.04210 0.51190 0.28000
Cd	Cd	0.75528 0.75293 0.74112 1.23500
Cd	Cd	0.31474 0.37468 0.63933 1.15800
O 	O 	0.80450 0.68030 0.66262 -0.37800
O 	O 	0.87940 0.63770 0.75330 -0.34900
C 	C 	0.86780 0.63370 0.69640 0.27300
C 	C 	0.93090 0.57210 0.66728 -0.03300
C 	C 	0.99660 0.51460 0.70130 -0.02100
H 	H 	0.00170 0.51220 0.74370 0.06100
C 	C 	0.05470 0.46040 0.67310 -0.06700
C 	C 	0.04790 0.46450 0.61120 -0.09100
H 	H 	0.08860 0.42720 0.59220 0.02300
C 	C 	0.98260 0.52220 0.57710 0.09800
C 	C 	0.92310 0.57470 0.60500 -0.10300
H 	H 	0.87630 0.61300 0.58160 0.06000
C 	C 	0.98380 0.54970 0.51220 -0.53300
H 	H 	0.92030 0.56930 0.49080 0.11000
H 	H 	0.03070 0.59940 0.50950 0.17000
C 	C 	0.12380 0.39250 0.70890 0.31900
O 	O 	0.12330 0.37860 0.76277 -0.35200
O 	O 	0.18050 0.34900 0.68093 -0.53900
O 	O 	0.39460 0.40600 0.73150 -0.50300
O 	O 	0.35170 0.34400 0.81312 -0.44100
C 	C 	0.39640 0.39990 0.78690 0.37800
C 	C 	0.46290 0.46600 0.82689 -0.07700
C 	C 	0.46610 0.46670 0.88830 -0.08800
H 	H 	0.42770 0.42440 0.90550 0.06700
C 	C 	0.52390 0.52780 0.92500 0.11600
C 	C 	0.57800 0.58970 0.90010 -0.09900
H 	H 	0.61630 0.63320 0.92530 0.04500
C 	C 	0.57790 0.59020 0.83860 -0.07900
C 	C 	0.51850 0.52780 0.80160 0.00600
H 	H 	0.51640 0.52800 0.75940 0.03200
C 	C 	0.53670 0.51200 0.98900 -0.54600
H 	H 	0.56270 0.56960 0.00960 0.05800
H 	H 	0.58550 0.46310 0.99950 0.17400
C 	C 	0.63720 0.65820 0.81150 0.35500
O 	O 	0.64420 0.64810 0.75780 -0.42100
O 	O 	0.68030 0.71870 0.84560 -0.50500
O 	O 	0.96390 0.51710 0.51480 0.20500
O 	O 	0.52330 0.54210 0.98810 0.27900
