data_crystal

_cell_length_a 15.81890
_cell_length_b 15.81890
_cell_length_c 15.81890
_cell_angle_alpha 100.84500
_cell_angle_beta  113.94900
_cell_angle_gamma 113.94900

_symmetry_space_group_name_	'P 1'
_symmetry_space_group_name_H-M	'P 1'

loop_
_symmetry_equiv_pos_as_xyz
  x,y,z

loop_
_atom_site_label
_atom_site_type_symbol
_atom_site_fract_x
_atom_site_fract_y
_atom_site_fract_z
_atom_site_charge
Co	Co	0.49315 0.59117 0.02280 1.12000
Co	Co	0.00685 0.02965 0.09802 1.11800
Co	Co	0.43163 0.02280 0.02965 1.11900
Co	Co	0.06837 0.09802 0.59117 1.11900
Co	Co	0.50685 0.40883 0.97720 1.11900
Co	Co	0.99315 0.97035 0.90198 1.11700
Co	Co	0.56837 0.97720 0.97035 1.11800
Co	Co	0.93163 0.90198 0.40883 1.11800
H 	H 	0.58520 0.78580 0.99720 -0.02600
H 	H 	0.52450 0.52130 0.73180 0.11600
H 	H 	0.64490 0.55400 0.80750 0.11000
H 	H 	0.64520 0.68350 0.75970 0.08200
H 	H 	0.69330 0.72210 0.87720 0.08800
H 	H 	0.57250 0.68940 0.80170 0.09700
H 	H 	0.30190 0.88880 0.10790 -0.01100
H 	H 	0.29220 0.62290 0.14850 0.15200
H 	H 	0.36480 0.60570 0.12030 0.15600
H 	H 	0.91480 0.91200 0.20060 -0.02300
H 	H 	0.97550 0.70730 0.99680 0.11600
H 	H 	0.85510 0.66260 0.90910 0.11100
H 	H 	0.85480 0.61450 0.03830 0.08100
H 	H 	0.80670 0.68390 0.02880 0.08700
H 	H 	0.92750 0.72920 0.11690 0.09500
H 	H 	0.19810 0.30600 0.58690 -0.01200
H 	H 	0.20780 0.35630 0.33070 0.15200
H 	H 	0.13520 0.25550 0.24090 0.15600
H 	H 	0.21140 0.99720 0.91200 -0.02600
H 	H 	0.21050 0.73180 0.70730 0.11400
H 	H 	0.25350 0.80750 0.66260 0.10900
H 	H 	0.07620 0.75970 0.61450 0.08500
H 	H 	0.15510 0.87720 0.68390 0.09200
H 	H 	0.11230 0.80170 0.72920 0.10000
H 	H 	0.21910 0.10790 0.30600 -0.01200
H 	H 	0.52560 0.14850 0.35630 0.15300
H 	H 	0.51460 0.12030 0.25550 0.15600
H 	H 	0.28860 0.20060 0.78580 -0.02300
H 	H 	0.28950 0.99680 0.52130 0.11600
H 	H 	0.24650 0.90910 0.55400 0.11000
H 	H 	0.42380 0.03830 0.68350 0.08400
H 	H 	0.34490 0.02880 0.72210 0.09000
H 	H 	0.38770 0.11690 0.68940 0.09800
H 	H 	0.28090 0.58690 0.88880 -0.01200
H 	H 	0.97440 0.33070 0.62290 0.15300
H 	H 	0.98540 0.24090 0.60570 0.15700
H 	H 	0.41480 0.21420 0.00280 -0.02600
H 	H 	0.47550 0.47870 0.26820 0.11600
H 	H 	0.35510 0.44600 0.19250 0.11000
H 	H 	0.35480 0.31650 0.24030 0.08200
H 	H 	0.30670 0.27790 0.12280 0.08800
H 	H 	0.42750 0.31060 0.19830 0.09700
H 	H 	0.69810 0.11120 0.89210 -0.01100
H 	H 	0.70780 0.37710 0.85150 0.15200
H 	H 	0.63520 0.39430 0.87970 0.15600
H 	H 	0.08520 0.08800 0.79940 -0.02300
H 	H 	0.02450 0.29270 0.00320 0.11600
H 	H 	0.14490 0.33740 0.09090 0.11100
H 	H 	0.14520 0.38550 0.96170 0.08100
H 	H 	0.19330 0.31610 0.97120 0.08700
H 	H 	0.07250 0.27080 0.88310 0.09500
H 	H 	0.80190 0.69400 0.41310 -0.01200
H 	H 	0.79220 0.64370 0.66930 0.15200
H 	H 	0.86480 0.74450 0.75910 0.15600
H 	H 	0.78860 0.00280 0.08800 -0.02600
H 	H 	0.78950 0.26820 0.29270 0.11400
H 	H 	0.74650 0.19250 0.33740 0.10900
H 	H 	0.92380 0.24030 0.38550 0.08500
H 	H 	0.84490 0.12280 0.31610 0.09200
H 	H 	0.88770 0.19830 0.27080 0.10000
H 	H 	0.78090 0.89210 0.69400 -0.01200
H 	H 	0.47440 0.85150 0.64370 0.15300
H 	H 	0.48540 0.87970 0.74450 0.15600
H 	H 	0.71140 0.79940 0.21420 -0.02300
H 	H 	0.71050 0.00320 0.47870 0.11600
H 	H 	0.75350 0.09090 0.44600 0.11000
H 	H 	0.57620 0.96170 0.31650 0.08400
H 	H 	0.65510 0.97120 0.27790 0.09000
H 	H 	0.61230 0.88310 0.31060 0.09800
H 	H 	0.71910 0.41310 0.11120 -0.01200
H 	H 	0.02560 0.66930 0.37710 0.15300
H 	H 	0.01460 0.75910 0.39430 0.15700
C 	C 	0.53945 0.79004 0.01827 0.09700
C 	C 	0.43175 0.75727 0.07202 -0.04600
C 	C 	0.36086 0.72226 0.10660 0.14500
C 	C 	0.55848 0.54337 0.87497 0.42600
C 	C 	0.58829 0.56751 0.80022 -0.28700
C 	C 	0.62840 0.67540 0.81060 -0.19800
C 	C 	0.44964 0.84354 0.05440 0.10400
C 	C 	0.33712 0.85621 0.09907 0.10700
C 	C 	0.96055 0.97882 0.25059 0.09300
C 	C 	0.06825 0.14027 0.32552 -0.04600
C 	C 	0.13914 0.24574 0.36140 0.14400
C 	C 	0.94152 0.81649 0.98489 0.42000
C 	C 	0.91171 0.71193 0.97922 -0.29200
C 	C 	0.87160 0.68220 0.04700 -0.18800
C 	C 	0.05036 0.10476 0.39390 0.09900
C 	C 	0.16288 0.26195 0.51909 0.10600
C 	C 	0.22823 0.01827 0.97882 0.10500
C 	C 	0.31475 0.07202 0.14027 -0.04700
C 	C 	0.38434 0.10660 0.24574 0.14500
C 	C 	0.33160 0.87497 0.81649 0.42500
C 	C 	0.23271 0.80022 0.71193 -0.28300
C 	C 	0.13520 0.81060 0.68220 -0.20600
C 	C 	0.21086 0.05440 0.10476 0.10200
C 	C 	0.24286 0.09907 0.26195 0.10600
C 	C 	0.27177 0.25059 0.79004 0.09200
C 	C 	0.18525 0.32552 0.75727 -0.04600
C 	C 	0.11566 0.36140 0.72226 0.14600
C 	C 	0.16840 0.98489 0.54337 0.42900
C 	C 	0.26729 0.97922 0.56751 -0.28600
C 	C 	0.36480 0.04700 0.67540 -0.20200
C 	C 	0.28914 0.39390 0.84354 0.10400
C 	C 	0.25714 0.51909 0.85621 0.10700
C 	C 	0.46055 0.20996 0.98173 0.09700
C 	C 	0.56825 0.24273 0.92798 -0.04600
C 	C 	0.63914 0.27774 0.89340 0.14500
C 	C 	0.44152 0.45663 0.12503 0.42600
C 	C 	0.41171 0.43249 0.19978 -0.28700
C 	C 	0.37160 0.32460 0.18940 -0.19800
C 	C 	0.55036 0.15646 0.94560 0.10400
C 	C 	0.66288 0.14379 0.90093 0.10700
C 	C 	0.03945 0.02118 0.74941 0.09300
C 	C 	0.93175 0.85973 0.67448 -0.04600
C 	C 	0.86086 0.75426 0.63860 0.14400
C 	C 	0.05848 0.18351 0.01511 0.42000
C 	C 	0.08829 0.28807 0.02078 -0.29200
C 	C 	0.12840 0.31780 0.95300 -0.18800
C 	C 	0.94964 0.89524 0.60610 0.09900
C 	C 	0.83712 0.73805 0.48091 0.10600
C 	C 	0.77177 0.98173 0.02118 0.10500
C 	C 	0.68525 0.92798 0.85973 -0.04700
C 	C 	0.61566 0.89340 0.75426 0.14500
C 	C 	0.66840 0.12503 0.18351 0.42500
C 	C 	0.76729 0.19978 0.28807 -0.28300
C 	C 	0.86480 0.18940 0.31780 -0.20600
C 	C 	0.78914 0.94560 0.89524 0.10200
C 	C 	0.75714 0.90093 0.73805 0.10600
C 	C 	0.72823 0.74941 0.20996 0.09200
C 	C 	0.81475 0.67448 0.24273 -0.04600
C 	C 	0.88434 0.63860 0.27774 0.14600
C 	C 	0.83160 0.01511 0.45663 0.42900
C 	C 	0.73271 0.02078 0.43249 -0.28600
C 	C 	0.63520 0.95300 0.32460 -0.20200
C 	C 	0.71086 0.60610 0.15646 0.10400
C 	C 	0.74286 0.48091 0.14379 0.10700
N 	N 	0.49048 0.72230 0.04790 -0.23400
N 	N 	0.33635 0.64055 0.12762 -0.32200
N 	N 	0.31418 0.77498 0.11926 -0.15600
N 	N 	0.51901 0.86503 0.02044 -0.27000
N 	N 	0.40380 0.89723 0.06783 -0.26400
N 	N 	0.00952 0.05742 0.23182 -0.23600
N 	N 	0.16365 0.29127 0.30420 -0.32200
N 	N 	0.18582 0.30508 0.46080 -0.15600
N 	N 	0.98099 0.00143 0.34602 -0.26600
N 	N 	0.09620 0.16403 0.49343 -0.26400
N 	N 	0.32560 0.04790 0.05742 -0.23800
N 	N 	0.48707 0.12762 0.29127 -0.32200
N 	N 	0.34428 0.11926 0.30508 -0.15700
N 	N 	0.15541 0.02044 0.00143 -0.27500
N 	N 	0.17060 0.06783 0.16403 -0.26500
N 	N 	0.17440 0.23182 0.72230 -0.23300
N 	N 	0.01293 0.30420 0.64055 -0.32300
N 	N 	0.15572 0.46080 0.77498 -0.15600
N 	N 	0.34459 0.34602 0.86503 -0.27000
N 	N 	0.32940 0.49343 0.89723 -0.26500
N 	N 	0.50952 0.27770 0.95210 -0.23400
N 	N 	0.66365 0.35945 0.87238 -0.32200
N 	N 	0.68582 0.22502 0.88074 -0.15600
N 	N 	0.48099 0.13497 0.97956 -0.27000
N 	N 	0.59620 0.10277 0.93217 -0.26400
N 	N 	0.99048 0.94258 0.76818 -0.23600
N 	N 	0.83635 0.70873 0.69580 -0.32200
N 	N 	0.81418 0.69492 0.53920 -0.15600
N 	N 	0.01901 0.99857 0.65398 -0.26600
N 	N 	0.90380 0.83597 0.50657 -0.26400
N 	N 	0.67440 0.95210 0.94258 -0.23800
N 	N 	0.51293 0.87238 0.70873 -0.32200
N 	N 	0.65572 0.88074 0.69492 -0.15700
N 	N 	0.84459 0.97956 0.99857 -0.27500
N 	N 	0.82940 0.93217 0.83597 -0.26500
N 	N 	0.82560 0.76818 0.27770 -0.23300
N 	N 	0.98707 0.69580 0.35945 -0.32300
N 	N 	0.84428 0.53920 0.22502 -0.15600
N 	N 	0.65541 0.65398 0.13497 -0.27000
N 	N 	0.67060 0.50657 0.10277 -0.26500
O 	O 	0.53633 0.59896 0.91719 -0.48400
O 	O 	0.55528 0.46655 0.88933 -0.50000
O 	O 	0.96367 0.88086 0.06263 -0.47600
O 	O 	0.94472 0.83405 0.91127 -0.49900
O 	O 	0.31823 0.91719 0.88086 -0.48300
O 	O 	0.42278 0.88933 0.83405 -0.49900
O 	O 	0.18177 0.06263 0.59896 -0.48600
O 	O 	0.07722 0.91127 0.46655 -0.49900
O 	O 	0.46367 0.40104 0.08281 -0.48400
O 	O 	0.44472 0.53345 0.11067 -0.50000
O 	O 	0.03633 0.11914 0.93737 -0.47600
O 	O 	0.05528 0.16595 0.08873 -0.49900
O 	O 	0.68177 0.08281 0.11914 -0.48300
O 	O 	0.57722 0.11067 0.16595 -0.49900
O 	O 	0.81823 0.93737 0.40104 -0.48600
O 	O 	0.92278 0.08873 0.53345 -0.49900
