data_crystal

_cell_length_a 7.57390
_cell_length_b 8.50280
_cell_length_c 15.49450
_cell_angle_alpha 99.56800
_cell_angle_beta  103.00900
_cell_angle_gamma 90.67100

_symmetry_space_group_name_	'P 1'
_symmetry_space_group_name_H-M	'P 1'

loop_
_symmetry_equiv_pos_as_xyz
  x,y,z

loop_
_atom_site_label
_atom_site_type_symbol
_atom_site_fract_x
_atom_site_fract_y
_atom_site_fract_z
_atom_site_charge
Ag	Ag	0.34830 0.51598 0.21425 0.42800
Ag	Ag	0.56246 0.63745 0.09316 0.44100
Ag	Ag	0.07020 0.35245 0.28977 0.43200
N 	N 	0.19620 0.20280 0.07170 -0.28000
N 	N 	0.22060 0.83580 0.02778 -0.22900
N 	N 	0.08050 0.02650 0.86675 -0.31800
N 	N 	0.17940 0.04090 0.70561 -0.23900
N 	N 	0.45140 0.93230 0.75990 -0.35600
N 	N 	0.44280 0.80270 0.38128 -0.22200
N 	N 	0.35930 0.16760 0.41271 -0.27700
C 	C 	0.23850 0.97820 0.85305 0.01600
H 	H 	0.31830 0.93890 0.89850 0.03100
C 	C 	0.28980 0.98430 0.77208 0.20500
C 	C 	0.02170 0.09100 0.72083 -0.17700
H 	H 	0.94220 0.13180 0.67590 0.03800
C 	C 	0.97100 0.08510 0.79987 0.06000
H 	H 	0.85940 0.12220 0.80730 -0.05800
C 	C 	0.34280 0.76130 0.04567 -0.15700
C 	C 	0.76920 0.52410 0.16380 -0.16600
C 	C 	0.41250 0.70280 0.32088 -0.13700
C 	C 	0.25960 0.31610 0.11787 -0.21100
C 	C 	0.25830 0.23680 0.37017 -0.18500
N 	N 	0.87260 0.46270 0.20880 -0.18800
H 	H 	0.48000 0.93300 0.71000 0.15400
H 	H 	0.52700 0.90400 0.80100 0.16400
Ag	Ag	0.65170 0.48402 0.78575 0.43700
Ag	Ag	0.43754 0.36255 0.90684 0.45100
Ag	Ag	0.92980 0.64755 0.71023 0.48100
N 	N 	0.80380 0.79720 0.92830 -0.17500
N 	N 	0.77940 0.16420 0.97222 -0.22200
N 	N 	0.91950 0.97350 0.13325 -0.09700
N 	N 	0.82060 0.95910 0.29439 -0.11200
N 	N 	0.54860 0.06770 0.24010 -0.30400
N 	N 	0.55720 0.19730 0.61872 -0.28000
N 	N 	0.64070 0.83240 0.58729 -0.22900
C 	C 	0.76150 0.02180 0.14695 -0.23300
H 	H 	0.68170 0.06110 0.10150 0.01700
C 	C 	0.71020 0.01570 0.22792 0.01800
C 	C 	0.97830 0.90900 0.27917 0.15200
H 	H 	0.05780 0.86820 0.32410 -0.06700
C 	C 	0.02900 0.91490 0.20013 -0.14300
H 	H 	0.14060 0.87780 0.19270 0.04600
C 	C 	0.65720 0.23870 0.95433 -0.14000
C 	C 	0.23080 0.47590 0.83620 -0.15000
C 	C 	0.58750 0.29720 0.67912 -0.16400
C 	C 	0.74040 0.68390 0.88213 -0.15000
C 	C 	0.74170 0.76320 0.62983 -0.11500
N 	N 	0.12740 0.53730 0.79120 -0.20200
H 	H 	0.52000 0.06700 0.29000 0.06800
H 	H 	0.47300 0.09600 0.19900 0.09400
Mn	Mn	-0.00000 0.00000 -0.00000 1.12500
Mn	Mn	0.50000 0.00000 0.50000 1.12500
