data_crystal

_cell_length_a 12.56800
_cell_length_b 13.59000
_cell_length_c 25.68000
_cell_angle_alpha 80.49800
_cell_angle_beta  76.87200
_cell_angle_gamma 76.60700

_symmetry_space_group_name_	'P 1'
_symmetry_space_group_name_H-M	'P 1'

loop_
_symmetry_equiv_pos_as_xyz
  x,y,z

loop_
_atom_site_label
_atom_site_type_symbol
_atom_site_fract_x
_atom_site_fract_y
_atom_site_fract_z
_atom_site_charge
Zn	Zn	0.60778 0.39757 0.34702 1.16900
Zn	Zn	0.68580 0.36571 0.20043 1.18200
Mo	Mo	0.43830 0.23842 0.45327 1.15000
Mo	Mo	0.45190 0.20130 0.58894 1.07000
Mo	Mo	0.34895 0.00735 0.51630 1.15200
Mo	Mo	0.52476 0.94066 0.62524 1.08100
C 	C 	0.07190 0.96860 0.45320 -0.01400
C 	C 	0.04870 0.07010 0.46150 -0.01800
C 	C 	0.97430 0.10230 0.50790 -0.00100
C 	C 	0.14990 0.93490 0.40150 -0.00600
H 	H 	0.15700 0.99480 0.37560 0.03800
H 	H 	0.22320 0.90480 0.40940 0.07700
C 	C 	0.10840 0.14550 0.42320 0.02000
H 	H 	0.11380 0.19960 0.44220 0.03300
H 	H 	0.18330 0.11190 0.40790 0.01200
C 	C 	0.93950 0.21470 0.51290 0.00900
H 	H 	0.92960 0.25260 0.47830 0.04200
H 	H 	0.86930 0.22850 0.53830 0.05400
C 	C 	0.02590 0.89480 0.35250 0.30300
C 	C 	0.99370 0.81490 0.33470 -0.28400
H 	H 	0.03060 0.74750 0.34020 0.14600
C 	C 	0.90020 0.84390 0.30770 0.20100
H 	H 	0.87660 0.79450 0.29450 -0.04900
C 	C 	0.84720 0.94130 0.30130 -0.32000
H 	H 	0.78430 0.95850 0.28580 0.13400
C 	C 	0.88380 0.01330 0.31700 0.24900
C 	C 	0.97110 0.99470 0.34370 -0.33800
H 	H 	0.99220 0.04720 0.35540 0.16600
C 	C 	0.81590 0.16930 0.25770 0.10400
H 	H 	0.84430 0.14120 0.22550 0.00000
C 	C 	0.77130 0.18800 0.34190 0.08700
H 	H 	0.76240 0.17480 0.37920 -0.02500
C 	C 	0.09720 0.24020 0.33620 0.32000
C 	C 	0.03970 0.27200 0.29470 -0.32100
H 	H 	0.96860 0.25900 0.29880 0.14900
C 	C 	0.08720 0.32380 0.24620 0.20200
H 	H 	0.04740 0.34480 0.21860 -0.05600
C 	C 	0.19380 0.34390 0.23930 -0.28800
H 	H 	0.22740 0.37640 0.20710 0.13700
C 	C 	0.24750 0.31320 0.28280 0.24700
C 	C 	0.20240 0.26160 0.33050 -0.35600
H 	H 	0.24160 0.24140 0.35840 0.15200
C 	C 	0.43870 0.33060 0.23500 0.11500
H 	H 	0.43460 0.31490 0.20170 0.01000
C 	C 	0.39670 0.36120 0.31710 0.10600
H 	H 	0.35640 0.37120 0.35160 -0.04300
C 	C 	0.00390 0.33860 0.54890 0.35300
C 	C 	0.89990 0.40030 0.56250 -0.38300
H 	H 	0.83660 0.38020 0.55850 0.17300
C 	C 	0.88980 0.49020 0.58160 0.28700
H 	H 	0.81900 0.52960 0.59140 -0.08200
C 	C 	0.98090 0.52480 0.58710 -0.34900
H 	H 	0.97320 0.58790 0.59860 0.16100
C 	C 	0.08330 0.46220 0.57480 0.27600
C 	C 	0.09560 0.37210 0.55560 -0.36600
H 	H 	0.16660 0.33220 0.54690 0.13600
C 	C 	0.27570 0.49410 0.54140 0.09200
H 	H 	0.28810 0.46760 0.50890 -0.03800
C 	C 	0.19960 0.54260 0.61810 0.10200
H 	H 	0.14820 0.55740 0.64950 -0.02200
C 	C 	0.90280 0.97420 0.99480 0.01900
C 	C 	0.94540 0.93810 0.04090 0.01900
C 	C 	0.04160 0.96480 0.04680 -0.00900
C 	C 	0.80040 0.94040 0.98740 -0.00300
H 	H 	0.77900 0.97340 0.95380 0.05300
H 	H 	0.81570 0.86720 0.98690 0.03900
C 	C 	0.62210 0.92710 0.03780 0.11600
C 	C 	0.54050 0.94220 0.08400 -0.04900
C 	C 	0.44450 0.90300 0.09190 -0.10800
C 	C 	0.43020 0.84850 0.05350 -0.02400
C 	C 	0.51180 0.83330 0.00730 0.00900
C 	C 	0.60780 0.87260 0.99950 -0.09800
C 	C 	0.88910 0.87050 0.08620 0.02000
H 	H 	0.84110 0.83740 0.07330 0.03700
H 	H 	0.94420 0.81840 0.10160 0.02500
C 	C 	0.74950 0.89990 0.16650 0.35300
C 	C 	0.67070 0.97020 0.19590 -0.36100
H 	H 	0.67210 0.03910 0.18740 0.17700
C 	C 	0.59140 0.93940 0.23700 0.24000
H 	H 	0.53760 0.98750 0.25560 -0.09700
C 	C 	0.59040 0.83370 0.25170 -0.32900
H 	H 	0.53800 0.81090 0.28010 0.12000
C 	C 	0.66950 0.76860 0.22220 0.26000
C 	C 	0.75330 0.79650 0.18050 -0.35800
H 	H 	0.80890 0.74810 0.16300 0.15600
C 	C 	0.69070 0.59080 0.20190 0.11900
H 	H 	0.70680 0.60440 0.16460 -0.03600
C 	C 	0.65030 0.60980 0.28560 0.12900
H 	H 	0.62980 0.64020 0.31720 -0.08200
C 	C 	0.09560 0.91950 0.09830 0.06600
H 	H 	0.05700 0.86790 0.12000 0.02000
H 	H 	0.17340 0.88810 0.08720 0.01900
C 	C 	0.14750 0.97080 0.16750 0.31000
C 	C 	0.16260 0.05420 0.18780 -0.29800
H 	H 	0.13380 0.11990 0.17360 0.14400
C 	C 	0.22090 0.03930 0.22940 0.19800
H 	H 	0.23100 0.09510 0.24300 -0.04200
C 	C 	0.26400 0.94110 0.25070 -0.27900
H 	H 	0.30300 0.93110 0.27850 0.13100
C 	C 	0.24890 0.85770 0.23030 0.25800
C 	C 	0.19060 0.87260 0.18880 -0.32800
H 	H 	0.18050 0.81690 0.17520 0.15200
N 	N 	0.82820 0.11960 0.30560 -0.18400
N 	N 	0.76010 0.26100 0.26120 -0.23800
N 	N 	0.73280 0.27320 0.31540 -0.23100
N 	N 	0.35650 0.33500 0.27750 -0.18300
N 	N 	0.52870 0.35170 0.24660 -0.21400
N 	N 	0.50020 0.37040 0.29940 -0.24000
N 	N 	0.18110 0.49720 0.57800 -0.19100
N 	N 	0.34910 0.53210 0.55610 -0.13400
N 	N 	0.29880 0.56190 0.60570 -0.24200
N 	N 	0.67250 0.65910 0.23620 -0.18900
N 	N 	0.68240 0.50090 0.22920 -0.24700
N 	N 	0.66190 0.51130 0.28290 -0.24100
O 	O 	0.11540 0.86390 0.37730 -0.23800
O 	O 	0.04520 0.18750 0.38060 -0.27200
O 	O 	0.02600 0.24530 0.53150 -0.26900
O 	O 	0.71510 0.96870 0.03110 -0.19300
O 	O 	0.82320 0.93730 0.12650 -0.24100
O 	O 	0.08670 0.99580 0.12720 -0.26000
O 	O 	0.54470 0.28620 0.40840 -0.57000
O 	O 	0.38320 0.17770 0.40601 -0.54000
O 	O 	0.48200 0.24450 0.51850 -0.01500
O 	O 	0.34260 0.14010 0.51600 -0.53900
O 	O 	0.37020 0.97840 0.44990 -0.46100
O 	O 	0.45780 0.92520 0.55019 -0.55600
O 	O 	0.42620 0.07340 0.61790 -0.57100
N 	N 	0.29720 0.76200 0.24880 -0.16800
C 	C 	0.31360 0.72930 0.30230 0.05500
H 	H 	0.29380 0.76950 0.33040 0.06200
N 	N 	0.36550 0.62450 0.30560 -0.09700
N 	N 	0.38120 0.59240 0.25400 -0.19800
C 	C 	0.33900 0.67730 0.21890 0.10000
N 	N 	0.41500 0.79700 0.89140 -0.04700
N 	N 	0.52800 0.74790 0.87580 -0.11700
C 	C 	0.58100 0.73600 0.92050 0.15900
C 	C 	0.39000 0.83900 0.93800 -0.03600
N 	N 	0.49000 0.81400 0.95490 1.71700
O 	O 	0.53210 0.22580 0.62210 0.90400
O 	O 	0.68500 0.24500 0.15690 0.02800
N 	N 	0.41300 0.60500 0.25030 0.10800
N 	N 	0.32100 0.57400 0.26900 0.00700
C 	C 	0.55800 0.89800 0.09060 0.00000
C 	C 	0.47300 0.85400 0.09470 0.11300
N 	N 	0.50100 0.77800 0.96380 -2.02000
C 	C 	0.39800 0.81600 0.94580 -0.14100
N 	N 	0.52800 0.71900 0.98300 0.58400
N 	N 	0.41800 0.74400 0.90700 0.01900
O 	O 	0.60200 0.46000 0.13790 -1.06500
O 	O 	0.61600 0.38700 0.14150 -0.11000
O 	O 	0.55540 0.46520 0.09880 0.06400
O 	O 	0.75680 0.28150 0.11010 -0.12400
O 	O 	0.73500 0.23910 0.15930 -0.29400
O 	O 	0.50830 0.22950 0.51600 -0.43300
O 	O 	0.57260 0.21320 0.61600 -1.29500
O 	O 	0.59170 0.15700 0.52780 -0.15600
O 	O 	0.64550 0.45670 0.13060 0.80900
Zn	Zn	0.39222 0.60243 0.65298 1.17000
Zn	Zn	0.31420 0.63429 0.79957 1.18300
Mo	Mo	0.56170 0.76158 0.54673 1.15100
Mo	Mo	0.54810 0.79870 0.41106 1.07100
Mo	Mo	0.65105 0.99265 0.48370 1.15300
Mo	Mo	0.47524 0.05934 0.37476 1.08200
C 	C 	0.92810 0.03140 0.54680 -0.01300
C 	C 	0.95130 0.92990 0.53850 -0.01700
C 	C 	0.02570 0.89770 0.49210 -0.00000
C 	C 	0.85010 0.06510 0.59850 -0.00500
H 	H 	0.84300 0.00520 0.62440 0.03800
H 	H 	0.77680 0.09520 0.59060 0.07700
C 	C 	0.89160 0.85450 0.57680 0.02000
H 	H 	0.88620 0.80040 0.55780 0.03300
H 	H 	0.81670 0.88810 0.59210 0.01200
C 	C 	0.06050 0.78530 0.48710 0.00900
H 	H 	0.07040 0.74740 0.52170 0.04200
H 	H 	0.13070 0.77150 0.46170 0.05400
C 	C 	0.97410 0.10520 0.64750 0.30300
C 	C 	0.00630 0.18510 0.66530 -0.28400
H 	H 	0.96940 0.25250 0.65980 0.14600
C 	C 	0.09980 0.15610 0.69230 0.20100
H 	H 	0.12340 0.20550 0.70550 -0.04900
C 	C 	0.15280 0.05870 0.69870 -0.32000
H 	H 	0.21570 0.04150 0.71420 0.13400
C 	C 	0.11620 0.98670 0.68300 0.24900
C 	C 	0.02890 0.00530 0.65630 -0.33800
H 	H 	0.00780 0.95280 0.64460 0.16600
C 	C 	0.18410 0.83070 0.74230 0.10400
H 	H 	0.15570 0.85880 0.77450 0.00000
C 	C 	0.22870 0.81200 0.65810 0.08700
H 	H 	0.23760 0.82520 0.62080 -0.02500
C 	C 	0.90280 0.75980 0.66380 0.32000
C 	C 	0.96030 0.72800 0.70530 -0.32100
H 	H 	0.03140 0.74100 0.70120 0.14900
C 	C 	0.91280 0.67620 0.75380 0.20200
H 	H 	0.95260 0.65520 0.78140 -0.05600
C 	C 	0.80620 0.65610 0.76070 -0.28800
H 	H 	0.77260 0.62360 0.79290 0.13700
C 	C 	0.75250 0.68680 0.71720 0.24700
C 	C 	0.79760 0.73840 0.66950 -0.35600
H 	H 	0.75840 0.75860 0.64160 0.15200
C 	C 	0.56130 0.66940 0.76500 0.11500
H 	H 	0.56540 0.68510 0.79830 0.01000
C 	C 	0.60330 0.63880 0.68290 0.10600
H 	H 	0.64360 0.62880 0.64840 -0.04300
C 	C 	0.99610 0.66140 0.45110 0.35300
C 	C 	0.10010 0.59970 0.43750 -0.38300
H 	H 	0.16340 0.61980 0.44150 0.17300
C 	C 	0.11020 0.50980 0.41840 0.28700
H 	H 	0.18100 0.47040 0.40860 -0.08200
C 	C 	0.01910 0.47520 0.41290 -0.34900
H 	H 	0.02680 0.41210 0.40140 0.16100
C 	C 	0.91670 0.53780 0.42520 0.27600
C 	C 	0.90440 0.62790 0.44440 -0.36600
H 	H 	0.83340 0.66780 0.45310 0.13600
C 	C 	0.72430 0.50590 0.45860 0.09200
H 	H 	0.71190 0.53240 0.49110 -0.03800
C 	C 	0.80040 0.45740 0.38190 0.10200
H 	H 	0.85180 0.44260 0.35050 -0.02200
C 	C 	0.09720 0.02580 0.00520 0.01900
C 	C 	0.05460 0.06190 0.95910 0.01900
C 	C 	0.95840 0.03520 0.95320 -0.00900
C 	C 	0.19960 0.05960 0.01260 -0.00300
H 	H 	0.22100 0.02660 0.04620 0.05300
H 	H 	0.18430 0.13280 0.01310 0.03900
C 	C 	0.37790 0.07290 0.96220 0.11600
C 	C 	0.45950 0.05780 0.91600 -0.04900
C 	C 	0.55550 0.09700 0.90810 -0.10800
C 	C 	0.56980 0.15150 0.94650 -0.02400
C 	C 	0.48820 0.16670 0.99270 0.00900
C 	C 	0.39220 0.12740 0.00050 -0.09800
C 	C 	0.11090 0.12950 0.91380 0.02000
H 	H 	0.15890 0.16260 0.92670 0.03700
H 	H 	0.05580 0.18160 0.89840 0.02500
C 	C 	0.25050 0.10010 0.83350 0.35300
C 	C 	0.32930 0.02980 0.80410 -0.36100
H 	H 	0.32790 0.96090 0.81260 0.17700
C 	C 	0.40860 0.06060 0.76300 0.24000
H 	H 	0.46240 0.01250 0.74440 -0.09700
C 	C 	0.40960 0.16630 0.74830 -0.32900
H 	H 	0.46200 0.18910 0.71990 0.12000
C 	C 	0.33050 0.23140 0.77780 0.26000
C 	C 	0.24670 0.20350 0.81950 -0.35800
H 	H 	0.19110 0.25190 0.83700 0.15600
C 	C 	0.30930 0.40920 0.79810 0.11900
H 	H 	0.29320 0.39560 0.83540 -0.03600
C 	C 	0.34970 0.39020 0.71440 0.12900
H 	H 	0.37020 0.35980 0.68280 -0.08200
C 	C 	0.90440 0.08050 0.90170 0.06600
H 	H 	0.94300 0.13210 0.88000 0.02000
H 	H 	0.82660 0.11190 0.91280 0.01900
C 	C 	0.85250 0.02920 0.83250 0.31000
C 	C 	0.83740 0.94580 0.81220 -0.29800
H 	H 	0.86620 0.88010 0.82640 0.14400
C 	C 	0.77910 0.96070 0.77060 0.19800
H 	H 	0.76900 0.90490 0.75700 -0.04200
C 	C 	0.73600 0.05890 0.74930 -0.27900
H 	H 	0.69700 0.06890 0.72150 0.13100
C 	C 	0.75110 0.14230 0.76970 0.25800
C 	C 	0.80940 0.12740 0.81120 -0.32800
H 	H 	0.81950 0.18310 0.82480 0.15200
N 	N 	0.17180 0.88040 0.69440 -0.18400
N 	N 	0.23990 0.73900 0.73880 -0.23800
N 	N 	0.26720 0.72680 0.68460 -0.23100
N 	N 	0.64350 0.66500 0.72250 -0.18300
N 	N 	0.47130 0.64830 0.75340 -0.21400
N 	N 	0.49980 0.62960 0.70060 -0.24000
N 	N 	0.81890 0.50280 0.42200 -0.19100
N 	N 	0.65090 0.46790 0.44390 -0.13400
N 	N 	0.70120 0.43810 0.39430 -0.24200
N 	N 	0.32750 0.34090 0.76380 -0.18900
N 	N 	0.31760 0.49910 0.77080 -0.24700
N 	N 	0.33810 0.48870 0.71710 -0.24100
O 	O 	0.88460 0.13610 0.62270 -0.23800
O 	O 	0.95480 0.81250 0.61940 -0.27200
O 	O 	0.97400 0.75470 0.46850 -0.26900
O 	O 	0.28490 0.03130 0.96890 -0.19300
O 	O 	0.17680 0.06270 0.87350 -0.24100
O 	O 	0.91330 0.00420 0.87280 -0.26000
O 	O 	0.45530 0.71380 0.59160 -0.57000
O 	O 	0.61680 0.82230 0.59399 -0.54000
O 	O 	0.51800 0.75550 0.48150 -0.01500
O 	O 	0.65740 0.85990 0.48400 -0.53900
O 	O 	0.62980 0.02160 0.55010 -0.46100
O 	O 	0.54220 0.07480 0.44981 -0.55600
O 	O 	0.57380 0.92660 0.38210 -0.57100
N 	N 	0.70280 0.23800 0.75120 -0.16800
C 	C 	0.68640 0.27070 0.69770 0.05500
H 	H 	0.70620 0.23050 0.66960 0.06200
N 	N 	0.63450 0.37550 0.69440 -0.09700
N 	N 	0.61880 0.40760 0.74600 -0.19800
C 	C 	0.66100 0.32270 0.78110 0.10000
N 	N 	0.58500 0.20300 0.10860 -0.04700
N 	N 	0.47200 0.25210 0.12420 -0.11700
C 	C 	0.41900 0.26400 0.07950 0.15900
C 	C 	0.61000 0.16100 0.06200 -0.03600
N 	N 	0.51000 0.18600 0.04510 1.71700
O 	O 	0.46790 0.77420 0.37790 0.90400
O 	O 	0.31500 0.75500 0.84310 0.02800
N 	N 	0.58700 0.39500 0.74970 0.10800
N 	N 	0.67900 0.42600 0.73100 0.00700
C 	C 	0.44200 0.10200 0.90940 0.00000
C 	C 	0.52700 0.14600 0.90530 0.11300
N 	N 	0.49900 0.22200 0.03620 -2.02000
C 	C 	0.60200 0.18400 0.05420 -0.14100
N 	N 	0.47200 0.28100 0.01700 0.58400
N 	N 	0.58200 0.25600 0.09300 0.01900
O 	O 	0.39800 0.54000 0.86210 -1.06500
O 	O 	0.38400 0.61300 0.85850 -0.11000
O 	O 	0.44460 0.53480 0.90120 0.06400
O 	O 	0.24320 0.71850 0.88990 -0.12400
O 	O 	0.26500 0.76090 0.84070 -0.29400
O 	O 	0.49170 0.77050 0.48400 -0.43300
O 	O 	0.42740 0.78680 0.38400 -1.29500
O 	O 	0.40830 0.84300 0.47220 -0.15600
O 	O 	0.35450 0.54330 0.86940 0.80900
