data_crystal

_cell_length_a 16.47250
_cell_length_b 18.97130
_cell_length_c 19.23200
_cell_angle_alpha 108.40900
_cell_angle_beta  108.93500
_cell_angle_gamma 106.42400

_symmetry_space_group_name_	'P 1'
_symmetry_space_group_name_H-M	'P 1'

loop_
_symmetry_equiv_pos_as_xyz
  x,y,z

loop_
_atom_site_label
_atom_site_type_symbol
_atom_site_fract_x
_atom_site_fract_y
_atom_site_fract_z
_atom_site_charge
Cd	Cd	0.91525 0.31524 0.66549 1.21100
Cd	Cd	0.53216 0.29575 0.64122 1.16100
Mo	Mo	0.82853 0.08975 0.53430 1.13200
Mo	Mo	0.04351 0.08753 0.59139 1.13800
Mo	Mo	0.88496 0.91422 0.56223 1.05900
Mo	Mo	0.93028 0.12038 0.42120 1.03900
Mo	Mo	0.78039 0.35690 0.79419 1.22000
Mo	Mo	0.03932 0.50760 0.86553 1.14300
Mo	Mo	0.08490 0.46479 0.03445 1.13300
Mo	Mo	0.80099 0.34323 0.96011 1.05500
C 	C 	0.65960 0.02590 0.99190 -0.00600
C 	C 	0.78640 0.15380 0.10310 -0.00200
C 	C 	0.69760 0.11210 0.03420 -0.00300
C 	C 	0.82460 0.24690 0.15340 0.05400
H 	H 	0.89080 0.27440 0.16660 0.00300
H 	H 	0.78840 0.26880 0.12280 -0.00600
C 	C 	0.84000 0.33500 0.28150 0.33900
C 	C 	0.85500 0.40350 0.26830 -0.35200
H 	H 	0.85170 0.40070 0.21820 0.13000
C 	C 	0.87490 0.47650 0.33020 0.24800
H 	H 	0.88350 0.52230 0.32030 -0.07300
C 	C 	0.88280 0.48500 0.40590 -0.32200
H 	H 	0.89950 0.53580 0.44750 0.13900
C 	C 	0.86490 0.41540 0.41770 0.27000
C 	C 	0.84700 0.34230 0.35840 -0.34500
H 	H 	0.83950 0.29690 0.36900 0.14800
C 	C 	0.85180 0.46750 0.54970 0.11400
H 	H 	0.83710 0.51030 0.54530 0.00100
C 	C 	0.88730 0.36650 0.52460 0.12200
H 	H 	0.90200 0.32450 0.49990 -0.06400
C 	C 	0.64230 0.15870 0.00700 0.03400
H 	H 	0.68520 0.21010 0.01360 -0.01500
H 	H 	0.59590 0.12620 0.94950 0.03400
C 	C 	0.60200 0.25280 0.09670 0.23500
C 	C 	0.62860 0.31710 0.07440 0.04500
C 	C 	0.61890 0.38550 0.11120 0.06900
C 	C 	0.61360 0.40300 0.18250 -0.20500
H 	H 	0.61250 0.45260 0.20990 0.10400
C 	C 	0.60980 0.34750 0.21530 0.21900
C 	C 	0.59910 0.27230 0.17030 -0.27800
H 	H 	0.58960 0.23290 0.18940 0.15500
N 	N 	0.87010 0.41810 0.49450 -0.18600
N 	N 	0.85710 0.44810 0.60920 -0.11200
N 	N 	0.88080 0.38230 0.59210 -0.23000
N 	N 	0.61770 0.36880 0.29470 -0.15600
C 	C 	0.61400 0.43930 0.34600 0.07500
H 	H 	0.60820 0.48190 0.33380 -0.00100
N 	N 	0.62060 0.43330 0.41930 -0.09000
N 	N 	0.62830 0.35920 0.41320 -0.08400
C 	C 	0.62660 0.31930 0.33620 0.07800
H 	H 	0.63050 0.26950 0.31650 0.01700
O 	O 	0.81460 0.25860 0.22690 -0.27700
O 	O 	0.59460 0.17470 0.05790 -0.22500
O 	O 	0.82400 0.18480 0.55560 -0.54600
O 	O 	0.98040 0.14900 0.55850 -0.54000
O 	O 	0.81770 0.05700 0.42920 -0.54300
O 	O 	0.91960 0.82840 0.53800 -0.61300
O 	O 	0.02070 0.97350 0.55980 -0.60300
O 	O 	0.14400 0.12220 0.57710 -0.49100
O 	O 	0.89590 0.01930 0.56160 -0.61400
O 	O 	0.80320 0.31550 0.71260 -0.51100
O 	O 	0.03020 0.42920 0.78230 -0.53000
O 	O 	0.04740 0.56410 0.98780 -0.59400
O 	O 	0.91110 0.45720 0.85450 -0.57600
O 	O 	0.06670 0.42520 0.93210 -0.44900
O 	O 	0.79690 0.44090 0.91100 -0.52900
O 	O 	0.81630 0.30630 0.85790 -0.52000
O 	O 	0.17090 0.56960 0.93680 -0.52700
O 	O 	0.65870 0.31130 0.75420 -0.55700
C 	C 	0.83730 0.11190 0.13000 -0.02300
C 	C 	0.80330 0.02780 0.08400 0.02400
C 	C 	0.71050 0.98410 0.01560 -0.04000
O 	O 	0.90300 0.96000 0.04800 -0.08500
C 	C 	0.85890 0.98150 0.11070 0.04400
O 	O 	0.00140 0.19770 0.19140 -0.27500
C 	C 	0.92920 0.15860 0.20800 0.08300
H 	H 	0.92350 0.19910 0.24960 0.00300
H 	H 	0.94440 0.12110 0.22870 -0.02500
C 	C 	0.94490 0.91360 0.05970 0.29700
C 	C 	0.08360 0.25940 0.25850 0.30400
C 	C 	0.96830 0.88560 0.99930 -0.30700
H 	H 	0.95200 0.89920 0.95580 0.16100
C 	C 	0.01670 0.83660 0.00130 0.18200
H 	H 	0.03140 0.81670 0.95850 -0.02800
C 	C 	0.97060 0.89450 0.12580 -0.30700
H 	H 	0.95420 0.91290 0.16780 0.11700
C 	C 	0.20860 0.39220 0.31170 0.24100
C 	C 	0.12660 0.32620 0.24620 -0.31500
H 	H 	0.10090 0.32640 0.19550 0.13200
C 	C 	0.04320 0.81700 0.06590 -0.28500
H 	H 	0.07520 0.78380 0.06720 0.09800
C 	C 	0.20410 0.32470 0.39730 0.20900
H 	H 	0.23080 0.32320 0.44710 -0.05300
C 	C 	0.24830 0.39240 0.38790 -0.28700
H 	H 	0.30330 0.43700 0.43140 0.14400
C 	C 	0.12120 0.25980 0.33380 -0.31900
H 	H 	0.09050 0.21590 0.34180 0.10800
N 	N 	0.24700 0.46230 0.30130 -0.18400
C 	C 	0.02130 0.84740 0.12680 0.22900
N 	N 	0.05090 0.83220 0.19860 -0.18400
C 	C 	0.04200 0.76100 0.20100 0.10900
H 	H 	0.01650 0.71070 0.15520 -0.00600
C 	C 	0.09080 0.88750 0.27610 0.10300
H 	H 	0.10530 0.94310 0.29340 -0.06800
O 	O 	0.55420 0.97740 0.84810 -0.58600
C 	C 	0.55360 0.97770 0.92250 0.11800
N 	N 	0.10710 0.85350 0.32510 -0.20300
N 	N 	0.07380 0.77210 0.27600 -0.20700
C 	C 	0.39900 0.86370 0.62950 0.29000
C 	C 	0.38930 0.90480 0.77770 -0.41100
H 	H 	0.38550 0.91680 0.82700 0.19300
C 	C 	0.47420 0.92600 0.77690 0.42900
C 	C 	0.48230 0.90390 0.70350 -0.40200
H 	H 	0.54140 0.91580 0.70410 0.17800
N 	N 	0.40580 0.84380 0.55470 -0.19200
C 	C 	0.30540 0.86350 0.70090 0.27000
H 	H 	0.24620 0.84980 0.70010 -0.09700
C 	C 	0.31150 0.84360 0.62780 -0.36200
H 	H 	0.25670 0.81680 0.57790 0.14000
C 	C 	0.41730 0.88960 0.51620 0.10300
H 	H 	0.41980 0.94220 0.53450 -0.03400
C 	C 	0.40630 0.77450 0.50710 0.10000
H 	H 	0.39650 0.72820 0.51640 0.00200
N 	N 	0.25410 0.55590 0.25730 -0.18400
C 	C 	0.19770 0.48700 0.25140 0.11400
H 	H 	0.13260 0.45930 0.21730 -0.06500
N 	N 	0.34440 0.57860 0.31640 -0.21800
N 	N 	0.42250 0.78020 0.44520 -0.21700
C 	C 	0.33760 0.52030 0.33870 0.11200
H 	H 	0.38890 0.51850 0.37580 -0.01400
N 	N 	0.42480 0.85330 0.44930 -0.13300
O 	O 	0.62030 0.85870 0.87630 -0.23800
C 	C 	0.67460 0.89030 0.96460 0.20800
N 	N 	0.62240 0.76160 0.61700 -0.14000
C 	C 	0.57280 0.67800 0.58310 0.12200
C 	C 	0.67360 0.86760 0.83390 0.13300
C 	C 	0.76500 0.92840 0.86720 -0.04900
C 	C 	0.80990 0.93300 0.81780 0.01800
C 	C 	0.76350 0.87680 0.73500 -0.08000
C 	C 	0.67210 0.81600 0.70170 0.07900
C 	C 	0.62720 0.81140 0.75110 -0.06100
N 	N 	0.56170 0.70550 0.47900 -0.22000
N 	N 	0.53320 0.64370 0.50540 -0.11700
C 	C 	0.61180 0.77860 0.55160 0.00900
O 	O 	0.56900 0.95200 0.84800 0.29600
C 	C 	0.58800 0.29600 0.05000 -0.15700
O 	O 	0.89300 0.96400 0.05800 -0.14000
O 	O 	0.95150 0.83830 0.55260 0.07300
O 	O 	0.66590 0.85490 0.01660 -0.23200
C 	C 	0.68800 0.78480 0.00470 0.13300
C 	C 	0.69900 0.74340 0.93730 -0.03900
C 	C 	0.72700 0.68050 0.93430 0.00000
C 	C 	0.74400 0.65900 0.99900 -0.06400
C 	C 	0.73300 0.70030 0.06590 0.08000
C 	C 	0.70400 0.76320 0.06890 -0.07500
N 	N 	0.74900 0.68320 0.13530 -0.14400
N 	N 	0.74000 0.67140 0.24550 -0.10800
N 	N 	0.79270 0.63100 0.22330 -0.10300
C 	C 	0.79810 0.63830 0.15520 0.08400
C 	C 	0.70300 0.69200 0.18100 0.06100
Cd	Cd	0.08475 0.68476 0.33451 1.21200
Cd	Cd	0.46784 0.70425 0.35878 1.16200
Mo	Mo	0.17147 0.91025 0.46570 1.13200
Mo	Mo	0.95649 0.91247 0.40861 1.13800
Mo	Mo	0.11504 0.08578 0.43777 1.05900
Mo	Mo	0.06972 0.87962 0.57880 1.03900
Mo	Mo	0.21961 0.64310 0.20581 1.22000
Mo	Mo	0.96068 0.49240 0.13447 1.14300
Mo	Mo	0.91510 0.53521 0.96555 1.13300
Mo	Mo	0.19901 0.65677 0.03989 1.05500
C 	C 	0.34040 0.97410 0.00810 -0.00600
C 	C 	0.21360 0.84620 0.89690 -0.00200
C 	C 	0.30240 0.88790 0.96580 -0.00300
C 	C 	0.17540 0.75310 0.84660 0.05400
H 	H 	0.10920 0.72560 0.83340 0.00300
H 	H 	0.21160 0.73120 0.87720 -0.00600
C 	C 	0.16000 0.66500 0.71850 0.33900
C 	C 	0.14500 0.59650 0.73170 -0.35200
H 	H 	0.14830 0.59930 0.78180 0.13000
C 	C 	0.12510 0.52350 0.66980 0.24800
H 	H 	0.11650 0.47770 0.67970 -0.07300
C 	C 	0.11720 0.51500 0.59410 -0.32200
H 	H 	0.10050 0.46420 0.55250 0.13900
C 	C 	0.13510 0.58460 0.58230 0.27000
C 	C 	0.15300 0.65770 0.64160 -0.34500
H 	H 	0.16050 0.70310 0.63100 0.14800
C 	C 	0.14820 0.53250 0.45030 0.11400
H 	H 	0.16290 0.48970 0.45470 0.00100
C 	C 	0.11270 0.63350 0.47540 0.12200
H 	H 	0.09800 0.67550 0.50010 -0.06400
C 	C 	0.35770 0.84130 0.99300 0.03400
H 	H 	0.31480 0.78990 0.98640 -0.01500
H 	H 	0.40410 0.87380 0.05050 0.03400
C 	C 	0.39800 0.74720 0.90330 0.23500
C 	C 	0.37140 0.68290 0.92560 0.04500
C 	C 	0.38110 0.61450 0.88880 0.06900
C 	C 	0.38640 0.59700 0.81750 -0.20500
H 	H 	0.38750 0.54740 0.79010 0.10400
C 	C 	0.39020 0.65250 0.78470 0.21900
C 	C 	0.40090 0.72770 0.82970 -0.27800
H 	H 	0.41040 0.76710 0.81060 0.15500
N 	N 	0.12990 0.58190 0.50550 -0.18600
N 	N 	0.14290 0.55190 0.39080 -0.11200
N 	N 	0.11920 0.61770 0.40790 -0.23000
N 	N 	0.38230 0.63120 0.70530 -0.15600
C 	C 	0.38600 0.56070 0.65400 0.07500
H 	H 	0.39180 0.51810 0.66620 -0.00100
N 	N 	0.37940 0.56670 0.58070 -0.09000
N 	N 	0.37170 0.64080 0.58680 -0.08400
C 	C 	0.37340 0.68070 0.66380 0.07800
H 	H 	0.36950 0.73050 0.68350 0.01700
O 	O 	0.18540 0.74140 0.77310 -0.27700
O 	O 	0.40540 0.82530 0.94210 -0.22500
O 	O 	0.17600 0.81520 0.44440 -0.54600
O 	O 	0.01960 0.85100 0.44150 -0.54000
O 	O 	0.18230 0.94300 0.57080 -0.54300
O 	O 	0.08040 0.17160 0.46200 -0.61300
O 	O 	0.97930 0.02650 0.44020 -0.60300
O 	O 	0.85600 0.87780 0.42290 -0.49100
O 	O 	0.10410 0.98070 0.43840 -0.61400
O 	O 	0.19680 0.68450 0.28740 -0.51100
O 	O 	0.96980 0.57080 0.21770 -0.53000
O 	O 	0.95260 0.43590 0.01220 -0.59400
O 	O 	0.08890 0.54280 0.14550 -0.57600
O 	O 	0.93330 0.57480 0.06790 -0.44900
O 	O 	0.20310 0.55910 0.08900 -0.52900
O 	O 	0.18370 0.69370 0.14210 -0.52000
O 	O 	0.82910 0.43040 0.06320 -0.52700
O 	O 	0.34130 0.68870 0.24580 -0.55700
C 	C 	0.16270 0.88810 0.87000 -0.02300
C 	C 	0.19670 0.97220 0.91600 0.02400
C 	C 	0.28950 0.01590 0.98440 -0.04000
O 	O 	0.09700 0.04000 0.95200 -0.08500
C 	C 	0.14110 0.01850 0.88930 0.04400
O 	O 	0.99860 0.80230 0.80860 -0.27500
C 	C 	0.07080 0.84140 0.79200 0.08300
H 	H 	0.07650 0.80090 0.75040 0.00300
H 	H 	0.05560 0.87890 0.77130 -0.02500
C 	C 	0.05510 0.08640 0.94030 0.29700
C 	C 	0.91640 0.74060 0.74150 0.30400
C 	C 	0.03170 0.11440 0.00070 -0.30700
H 	H 	0.04800 0.10080 0.04420 0.16100
C 	C 	0.98330 0.16340 0.99870 0.18200
H 	H 	0.96860 0.18330 0.04150 -0.02800
C 	C 	0.02940 0.10550 0.87420 -0.30700
H 	H 	0.04580 0.08710 0.83220 0.11700
C 	C 	0.79140 0.60780 0.68830 0.24100
C 	C 	0.87340 0.67380 0.75380 -0.31500
H 	H 	0.89910 0.67360 0.80450 0.13200
C 	C 	0.95680 0.18300 0.93410 -0.28500
H 	H 	0.92480 0.21620 0.93280 0.09800
C 	C 	0.79590 0.67530 0.60270 0.20900
H 	H 	0.76920 0.67680 0.55290 -0.05300
C 	C 	0.75170 0.60760 0.61210 -0.28700
H 	H 	0.69670 0.56300 0.56860 0.14400
C 	C 	0.87880 0.74020 0.66620 -0.31900
H 	H 	0.90950 0.78410 0.65820 0.10800
N 	N 	0.75300 0.53770 0.69870 -0.18400
C 	C 	0.97870 0.15260 0.87320 0.22900
N 	N 	0.94910 0.16780 0.80140 -0.18400
C 	C 	0.95800 0.23900 0.79900 0.10900
H 	H 	0.98350 0.28930 0.84480 -0.00600
C 	C 	0.90920 0.11250 0.72390 0.10300
H 	H 	0.89470 0.05690 0.70660 -0.06800
O 	O 	0.44580 0.02260 0.15190 -0.58600
C 	C 	0.44640 0.02230 0.07750 0.11800
N 	N 	0.89290 0.14650 0.67490 -0.20300
N 	N 	0.92620 0.22790 0.72400 -0.20700
C 	C 	0.60100 0.13630 0.37050 0.29000
C 	C 	0.61070 0.09520 0.22230 -0.41100
H 	H 	0.61450 0.08320 0.17300 0.19300
C 	C 	0.52580 0.07400 0.22310 0.42900
C 	C 	0.51770 0.09610 0.29650 -0.40200
H 	H 	0.45860 0.08420 0.29590 0.17800
N 	N 	0.59420 0.15620 0.44530 -0.19200
C 	C 	0.69460 0.13650 0.29910 0.27000
H 	H 	0.75380 0.15020 0.29990 -0.09700
C 	C 	0.68850 0.15640 0.37220 -0.36200
H 	H 	0.74330 0.18320 0.42210 0.14000
C 	C 	0.58270 0.11040 0.48380 0.10300
H 	H 	0.58020 0.05780 0.46550 -0.03400
C 	C 	0.59370 0.22550 0.49290 0.10000
H 	H 	0.60350 0.27180 0.48360 0.00200
N 	N 	0.74590 0.44410 0.74270 -0.18400
C 	C 	0.80230 0.51300 0.74860 0.11400
H 	H 	0.86740 0.54070 0.78270 -0.06500
N 	N 	0.65560 0.42140 0.68360 -0.21800
N 	N 	0.57750 0.21980 0.55480 -0.21700
C 	C 	0.66240 0.47970 0.66130 0.11200
H 	H 	0.61110 0.48150 0.62420 -0.01400
N 	N 	0.57520 0.14670 0.55070 -0.13300
O 	O 	0.37970 0.14130 0.12370 -0.23800
C 	C 	0.32540 0.10970 0.03540 0.20800
N 	N 	0.37760 0.23840 0.38300 -0.14000
C 	C 	0.42720 0.32200 0.41690 0.12200
C 	C 	0.32640 0.13240 0.16610 0.13300
C 	C 	0.23500 0.07160 0.13280 -0.04900
C 	C 	0.19010 0.06700 0.18220 0.01800
C 	C 	0.23650 0.12320 0.26500 -0.08000
C 	C 	0.32790 0.18400 0.29830 0.07900
C 	C 	0.37280 0.18860 0.24890 -0.06100
N 	N 	0.43830 0.29450 0.52100 -0.22000
N 	N 	0.46680 0.35630 0.49460 -0.11700
C 	C 	0.38820 0.22140 0.44840 0.00900
O 	O 	0.43100 0.04800 0.15200 0.29600
C 	C 	0.41200 0.70400 0.95000 -0.15700
O 	O 	0.10700 0.03600 0.94200 -0.14000
O 	O 	0.04850 0.16170 0.44740 0.07300
O 	O 	0.33410 0.14510 0.98340 -0.23200
C 	C 	0.31200 0.21520 0.99530 0.13300
C 	C 	0.30100 0.25660 0.06270 -0.03900
C 	C 	0.27300 0.31950 0.06570 0.00000
C 	C 	0.25600 0.34100 0.00100 -0.06400
C 	C 	0.26700 0.29970 0.93410 0.08000
C 	C 	0.29600 0.23680 0.93110 -0.07500
N 	N 	0.25100 0.31680 0.86470 -0.14400
N 	N 	0.26000 0.32860 0.75450 -0.10800
N 	N 	0.20730 0.36900 0.77670 -0.10300
C 	C 	0.20190 0.36170 0.84480 0.08400
C 	C 	0.29700 0.30800 0.81900 0.06100
