data_crystal

_cell_length_a 22.95390
_cell_length_b 22.95390
_cell_length_c 22.95390
_cell_angle_alpha 60.00000
_cell_angle_beta  60.00000
_cell_angle_gamma 60.00000

_symmetry_space_group_name_	'P 1'
_symmetry_space_group_name_H-M	'P 1'

loop_
_symmetry_equiv_pos_as_xyz
  x,y,z

loop_
_atom_site_label
_atom_site_type_symbol
_atom_site_fract_x
_atom_site_fract_y
_atom_site_fract_z
_atom_site_charge
Ni	Ni	0.87280 0.04240 0.04240 1.05600
Ni	Ni	0.04240 0.87280 0.04240 1.05600
Ni	Ni	0.04240 0.04240 0.87280 1.05400
Ni	Ni	0.04240 0.04240 0.04240 1.05300
Ni	Ni	0.95760 0.12720 0.95760 1.05400
Ni	Ni	0.12720 0.95760 0.95760 1.05300
Ni	Ni	0.95760 0.95760 0.12720 1.05400
Ni	Ni	0.95760 0.95760 0.95760 1.05200
H 	H 	0.90658 0.09342 0.09342 0.20900
H 	H 	0.09342 0.90658 0.90658 0.20800
H 	H 	0.90658 0.09342 0.90658 0.20900
H 	H 	0.09342 0.90658 0.09342 0.20900
H 	H 	0.90658 0.90658 0.09342 0.20900
H 	H 	0.09342 0.09342 0.90658 0.20900
H 	H 	0.51145 0.61341 0.93757 0.05200
H 	H 	0.29441 0.82905 0.93827 0.01400
H 	H 	0.61341 0.51145 0.93757 0.05200
H 	H 	0.82905 0.29441 0.93827 0.01500
H 	H 	0.93757 0.93757 0.51145 0.05000
H 	H 	0.93827 0.93827 0.29441 0.01600
H 	H 	0.93757 0.93757 0.61341 0.05200
H 	H 	0.93827 0.93827 0.82905 0.01500
H 	H 	0.51145 0.93757 0.93757 0.05100
H 	H 	0.29441 0.93827 0.93827 0.01400
H 	H 	0.61341 0.93757 0.93757 0.05200
H 	H 	0.82905 0.93827 0.93827 0.01600
H 	H 	0.93757 0.51145 0.61341 0.05200
H 	H 	0.93827 0.29441 0.82905 0.01400
H 	H 	0.93757 0.61341 0.51145 0.05100
H 	H 	0.93827 0.82905 0.29441 0.01300
H 	H 	0.51145 0.93757 0.61341 0.05100
H 	H 	0.29441 0.93827 0.82905 0.01400
H 	H 	0.61341 0.93757 0.51145 0.05200
H 	H 	0.82905 0.93827 0.29441 0.01400
H 	H 	0.93757 0.61341 0.93757 0.05200
H 	H 	0.93827 0.82905 0.93827 0.01500
H 	H 	0.93757 0.51145 0.93757 0.05100
H 	H 	0.93827 0.29441 0.93827 0.01400
H 	H 	0.38659 0.48855 0.06243 0.05200
H 	H 	0.17095 0.70559 0.06173 0.01400
H 	H 	0.48855 0.38659 0.06243 0.05200
H 	H 	0.70559 0.17095 0.06173 0.01400
H 	H 	0.06243 0.06243 0.48855 0.05200
H 	H 	0.06173 0.06173 0.70559 0.01500
H 	H 	0.06243 0.06243 0.38659 0.05100
H 	H 	0.06173 0.06173 0.17095 0.01600
H 	H 	0.06243 0.48855 0.06243 0.05200
H 	H 	0.06173 0.70559 0.06173 0.01500
H 	H 	0.06243 0.38659 0.06243 0.05200
H 	H 	0.06173 0.17095 0.06173 0.01400
H 	H 	0.48855 0.06243 0.38659 0.05200
H 	H 	0.70559 0.06173 0.17095 0.01400
H 	H 	0.38659 0.06243 0.48855 0.05200
H 	H 	0.17095 0.06173 0.70559 0.01400
H 	H 	0.06243 0.48855 0.38659 0.05100
H 	H 	0.06173 0.70559 0.17095 0.01300
H 	H 	0.06243 0.38659 0.48855 0.05200
H 	H 	0.06173 0.17095 0.70559 0.01400
H 	H 	0.38659 0.06243 0.06243 0.05200
H 	H 	0.17095 0.06173 0.06173 0.01400
H 	H 	0.48855 0.06243 0.06243 0.05200
H 	H 	0.70559 0.06173 0.06173 0.01500
C 	C 	0.43944 0.56056 -0.00000 0.03500
C 	C 	0.37410 0.62590 -0.00000 -0.03100
C 	C 	0.32008 0.67992 -0.00000 0.00000
C 	C 	0.25472 0.74528 -0.00000 -0.02500
C 	C 	0.56056 0.43944 -0.00000 0.03500
C 	C 	0.62590 0.37410 -0.00000 -0.03100
C 	C 	0.67992 0.32008 -0.00000 0.00000
C 	C 	0.74528 0.25472 -0.00000 -0.02500
C 	C 	0.00000 0.00000 0.43944 0.03000
C 	C 	-0.00000 1.00000 0.37410 -0.02500
C 	C 	-0.00000 0.00000 0.32008 -0.00700
C 	C 	1.00000 -0.00000 0.25472 -0.01800
C 	C 	0.00000 0.00000 0.56056 0.03600
C 	C 	0.00000 -0.00000 0.62590 -0.03100
C 	C 	-0.00000 1.00000 0.67992 -0.00000
C 	C 	-0.00000 -0.00000 0.74528 -0.02300
C 	C 	0.43944 0.00000 -0.00000 0.03600
C 	C 	0.37410 0.00000 -0.00000 -0.03100
C 	C 	0.32008 0.00000 -0.00000 0.00000
C 	C 	0.25472 0.00000 -0.00000 -0.02700
C 	C 	0.56056 0.00000 -0.00000 0.03700
C 	C 	0.62590 0.00000 -0.00000 -0.03000
C 	C 	0.67992 0.00000 -0.00000 -0.00100
C 	C 	0.74528 0.00000 -0.00000 -0.02100
C 	C 	0.00000 0.43944 0.56056 0.03400
C 	C 	0.00000 0.37410 0.62590 -0.03100
C 	C 	0.00000 0.32008 0.67992 0.00000
C 	C 	-0.00000 0.25472 0.74528 -0.02800
C 	C 	1.00000 0.56056 0.43944 0.03200
C 	C 	1.00000 0.62590 0.37410 -0.03200
C 	C 	0.00000 0.67992 0.32008 0.00200
C 	C 	1.00000 0.74528 0.25472 -0.03000
C 	C 	0.43944 0.00000 0.56056 0.03400
C 	C 	0.37410 -0.00000 0.62590 -0.03100
C 	C 	0.32008 -0.00000 0.67992 0.00000
C 	C 	0.25472 -0.00000 0.74528 -0.02700
C 	C 	0.56056 0.00000 0.43944 0.03400
C 	C 	0.62590 -0.00000 0.37410 -0.03100
C 	C 	0.67992 0.00000 0.32008 0.00000
C 	C 	0.74528 -0.00000 0.25472 -0.02700
C 	C 	-0.00000 0.56056 -0.00000 0.03600
C 	C 	-0.00000 0.62590 -0.00000 -0.03100
C 	C 	-0.00000 0.67992 -0.00000 -0.00100
C 	C 	-0.00000 0.74528 -0.00000 -0.02200
C 	C 	0.00000 0.43944 -0.00000 0.03500
C 	C 	-0.00000 0.37410 -0.00000 -0.03100
C 	C 	-0.00000 0.32008 -0.00000 0.00000
C 	C 	-0.00000 0.25472 -0.00000 -0.02800
C 	C 	0.50680 0.56736 0.96292 -0.06000
C 	C 	0.25379 0.81399 0.96611 0.02700
C 	C 	0.56736 0.50680 0.96292 -0.06000
C 	C 	0.81399 0.25379 0.96611 0.02700
C 	C 	0.96292 0.96292 0.50680 -0.05600
C 	C 	0.96611 0.96611 0.25379 0.02400
C 	C 	0.96292 0.96292 0.56736 -0.06200
C 	C 	0.96611 0.96611 0.81399 0.02500
C 	C 	0.50680 0.96292 0.96292 -0.06000
C 	C 	0.25379 0.96611 0.96611 0.02800
C 	C 	0.56736 0.96292 0.96292 -0.06200
C 	C 	0.81399 0.96611 0.96611 0.02200
C 	C 	0.96292 0.50680 0.56736 -0.05900
C 	C 	0.96611 0.25379 0.81399 0.03000
C 	C 	0.96292 0.56736 0.50680 -0.05700
C 	C 	0.96611 0.81399 0.25379 0.03200
C 	C 	0.50680 0.96292 0.56736 -0.05900
C 	C 	0.25379 0.96611 0.81399 0.02900
C 	C 	0.56736 0.96292 0.50680 -0.05900
C 	C 	0.81399 0.96611 0.25379 0.02900
C 	C 	0.96292 0.56736 0.96292 -0.06100
C 	C 	0.96611 0.81399 0.96611 0.02300
C 	C 	0.96292 0.50680 0.96292 -0.06000
C 	C 	0.96611 0.25379 0.96611 0.03000
C 	C 	0.43264 0.49320 0.03708 -0.05800
C 	C 	0.18601 0.74621 0.03389 0.03000
C 	C 	0.49320 0.43264 0.03708 -0.05800
C 	C 	0.74621 0.18601 0.03389 0.03000
C 	C 	0.03708 0.03708 0.49320 -0.06000
C 	C 	0.03389 0.03389 0.74621 0.02900
C 	C 	0.03708 0.03708 0.43264 -0.05500
C 	C 	0.03389 0.03389 0.18601 0.02400
C 	C 	0.03708 0.49320 0.03708 -0.05800
C 	C 	0.03389 0.74621 0.03389 0.02900
C 	C 	0.03708 0.43264 0.03708 -0.05700
C 	C 	0.03389 0.18601 0.03389 0.03100
C 	C 	0.49320 0.03708 0.43264 -0.05800
C 	C 	0.74621 0.03389 0.18601 0.03000
C 	C 	0.43264 0.03708 0.49320 -0.05800
C 	C 	0.18601 0.03389 0.74621 0.03000
C 	C 	0.03708 0.49320 0.43264 -0.05600
C 	C 	0.03389 0.74621 0.18601 0.03200
C 	C 	0.03708 0.43264 0.49320 -0.05800
C 	C 	0.03389 0.18601 0.74621 0.03100
C 	C 	0.43264 0.03708 0.03708 -0.05800
C 	C 	0.18601 0.03389 0.03389 0.03000
C 	C 	0.49320 0.03708 0.03708 -0.05800
C 	C 	0.74621 0.03389 0.03389 0.02900
N 	N 	0.18451 0.85739 0.97905 -0.22300
N 	N 	0.85739 0.18451 0.97905 -0.22300
N 	N 	0.97905 0.97905 0.18451 -0.22200
N 	N 	0.97905 0.97905 0.85739 -0.22400
N 	N 	0.18451 0.97905 0.97905 -0.22300
N 	N 	0.85739 0.97905 0.97905 -0.22400
N 	N 	0.97905 0.18451 0.85739 -0.22300
N 	N 	0.97905 0.85739 0.18451 -0.22300
N 	N 	0.18451 0.97905 0.85739 -0.22300
N 	N 	0.85739 0.97905 0.18451 -0.22300
N 	N 	0.97905 0.85739 0.97905 -0.22400
N 	N 	0.97905 0.18451 0.97905 -0.22300
N 	N 	0.14261 0.81549 0.02095 -0.22200
N 	N 	0.81549 0.14261 0.02095 -0.22200
N 	N 	0.02095 0.02095 0.81549 -0.22100
N 	N 	0.02095 0.02095 0.14261 -0.22200
N 	N 	0.02095 0.81549 0.02095 -0.22000
N 	N 	0.02095 0.14261 0.02095 -0.22300
N 	N 	0.81549 0.02095 0.14261 -0.22200
N 	N 	0.14261 0.02095 0.81549 -0.22200
N 	N 	0.02095 0.81549 0.14261 -0.22300
N 	N 	0.02095 0.14261 0.81549 -0.22200
N 	N 	0.14261 0.02095 0.02095 -0.22200
N 	N 	0.81549 0.02095 0.02095 -0.22000
O 	O 	0.93584 0.06416 0.06416 -0.82300
O 	O 	0.06416 0.93584 0.93584 -0.82500
O 	O 	0.93584 0.06416 0.93584 -0.82500
O 	O 	0.06416 0.93584 0.06416 -0.82400
O 	O 	0.93584 0.93584 0.06416 -0.82400
O 	O 	0.06416 0.06416 0.93584 -0.82500
