data_crystal

_cell_length_a 19.84800
_cell_length_b 19.84800
_cell_length_c 27.85300
_cell_angle_alpha 90.00000
_cell_angle_beta  90.00000
_cell_angle_gamma 120.00000

_symmetry_space_group_name_	'P 1'
_symmetry_space_group_name_H-M	'P 1'

loop_
_symmetry_equiv_pos_as_xyz
  x,y,z

loop_
_atom_site_label
_atom_site_type_symbol
_atom_site_fract_x
_atom_site_fract_y
_atom_site_fract_z
_atom_site_charge
Yb	Yb	0.58033 0.21460 0.75000 1.51100
Yb	Yb	0.63427 0.41967 0.75000 1.51100
Yb	Yb	0.78540 0.36573 0.75000 1.51100
Yb	Yb	0.36573 0.78540 0.25000 1.51100
Yb	Yb	0.21460 0.58033 0.25000 1.51100
Yb	Yb	0.41967 0.63427 0.25000 1.51100
H 	H 	0.84080 0.24630 0.86640 0.00000
H 	H 	0.86550 0.17940 0.92400 0.08600
H 	H 	0.64240 0.01540 0.92210 0.08500
H 	H 	0.61920 0.08390 0.86370 0.00000
H 	H 	0.87990 0.07520 0.94500 0.06100
H 	H 	0.40550 0.15920 0.86640 0.00000
H 	H 	0.31390 0.13450 0.92400 0.08600
H 	H 	0.37300 0.35760 0.92210 0.08500
H 	H 	0.46470 0.38080 0.86370 0.00000
H 	H 	0.19530 0.12010 0.94500 0.06100
H 	H 	0.75370 0.59450 0.86640 -0.00100
H 	H 	0.82060 0.68610 0.92400 0.08500
H 	H 	0.98460 0.62700 0.92210 0.08400
H 	H 	0.91610 0.53530 0.86370 -0.00100
H 	H 	0.92480 0.80470 0.94500 0.06000
H 	H 	0.84080 0.24630 0.63360 -0.00100
H 	H 	0.86550 0.17940 0.57600 0.08500
H 	H 	0.64240 0.01540 0.57790 0.08400
H 	H 	0.61920 0.08390 0.63630 -0.00100
H 	H 	0.87990 0.07520 0.55500 0.06000
H 	H 	0.40550 0.15920 0.63360 -0.00100
H 	H 	0.31390 0.13450 0.57600 0.08500
H 	H 	0.37300 0.35760 0.57790 0.08400
H 	H 	0.46470 0.38080 0.63630 -0.00100
H 	H 	0.19530 0.12010 0.55500 0.06000
H 	H 	0.75370 0.59450 0.63360 -0.00100
H 	H 	0.82060 0.68610 0.57600 0.08500
H 	H 	0.98460 0.62700 0.57790 0.08400
H 	H 	0.91610 0.53530 0.63630 -0.00100
H 	H 	0.92480 0.80470 0.55500 0.06000
H 	H 	0.59450 0.75370 0.13360 -0.00100
H 	H 	0.68610 0.82060 0.07600 0.08500
H 	H 	0.62700 0.98460 0.07790 0.08400
H 	H 	0.53530 0.91610 0.13630 -0.00100
H 	H 	0.80470 0.92480 0.05500 0.06000
H 	H 	0.24630 0.84080 0.13360 -0.00100
H 	H 	0.17940 0.86550 0.07600 0.08500
H 	H 	0.01540 0.64240 0.07790 0.08400
H 	H 	0.08390 0.61920 0.13630 -0.00100
H 	H 	0.07520 0.87990 0.05500 0.06000
H 	H 	0.15920 0.40550 0.13360 -0.00100
H 	H 	0.13450 0.31390 0.07600 0.08600
H 	H 	0.35760 0.37300 0.07790 0.08400
H 	H 	0.38080 0.46470 0.13630 -0.00100
H 	H 	0.12010 0.19530 0.05500 0.06000
H 	H 	0.59450 0.75370 0.36640 -0.00100
H 	H 	0.68610 0.82060 0.42400 0.08500
H 	H 	0.62700 0.98460 0.42210 0.08400
H 	H 	0.53530 0.91610 0.36370 -0.00100
H 	H 	0.80470 0.92480 0.44500 0.06000
H 	H 	0.24630 0.84080 0.36640 -0.00100
H 	H 	0.17940 0.86550 0.42400 0.08500
H 	H 	0.01540 0.64240 0.42210 0.08400
H 	H 	0.08390 0.61920 0.36370 -0.00100
H 	H 	0.07520 0.87990 0.44500 0.06000
H 	H 	0.15920 0.40550 0.36640 -0.00100
H 	H 	0.13450 0.31390 0.42400 0.08500
H 	H 	0.35760 0.37300 0.42210 0.08400
H 	H 	0.38080 0.46470 0.36370 -0.00100
H 	H 	0.12010 0.19530 0.44500 0.06000
H 	H 	0.66840 0.00000 -0.00000 0.05600
H 	H 	0.33160 0.33160 -0.00000 0.05600
H 	H 	0.00000 0.66840 -0.00000 0.05600
H 	H 	0.66840 -0.00000 0.50000 0.05600
H 	H 	0.33160 0.33160 0.50000 0.05600
H 	H 	0.00000 0.66840 0.50000 0.05600
H 	H 	-0.00000 0.11680 -0.00000 0.07300
H 	H 	0.11680 0.00000 -0.00000 0.07300
H 	H 	0.88320 0.88320 -0.00000 0.07300
H 	H 	-0.00000 0.11680 0.50000 0.07300
H 	H 	0.11680 -0.00000 0.50000 0.07300
H 	H 	0.88320 0.88320 0.50000 0.07300
C 	C 	0.71150 0.21430 0.81950 0.42200
C 	C 	0.72740 0.17080 0.85850 -0.18200
C 	C 	0.80040 0.19900 0.87740 0.10200
C 	C 	0.81530 0.15940 0.91210 -0.17000
C 	C 	0.75680 0.09080 0.92910 0.09000
C 	C 	0.68310 0.06230 0.91080 -0.16600
C 	C 	0.66930 0.10330 0.87560 0.10100
C 	C 	0.77160 0.04430 0.96580 0.01200
C 	C 	0.84110 0.04460 0.96690 -0.09100
C 	C 	0.50280 0.28850 0.81950 0.42200
C 	C 	0.44340 0.27260 0.85850 -0.18200
C 	C 	0.39860 0.19960 0.87740 0.10200
C 	C 	0.34410 0.18470 0.91210 -0.17000
C 	C 	0.33400 0.24320 0.92910 0.09000
C 	C 	0.37920 0.31690 0.91080 -0.16600
C 	C 	0.43400 0.33070 0.87560 0.10100
C 	C 	0.27270 0.22840 0.96580 0.01200
C 	C 	0.20350 0.15890 0.96690 -0.09100
C 	C 	0.78570 0.49720 0.81950 0.42200
C 	C 	0.82920 0.55660 0.85850 -0.18200
C 	C 	0.80100 0.60140 0.87740 0.10200
C 	C 	0.84060 0.65590 0.91210 -0.17000
C 	C 	0.90920 0.66600 0.92910 0.09000
C 	C 	0.93770 0.62080 0.91080 -0.16600
C 	C 	0.89670 0.56600 0.87560 0.10100
C 	C 	0.95570 0.72730 0.96580 0.01200
C 	C 	0.95540 0.79650 0.96690 -0.09100
C 	C 	0.71150 0.21430 0.68050 0.42200
C 	C 	0.72740 0.17080 0.64150 -0.18200
C 	C 	0.80040 0.19900 0.62260 0.10200
C 	C 	0.81530 0.15940 0.58790 -0.17000
C 	C 	0.75680 0.09080 0.57090 0.09000
C 	C 	0.68310 0.06230 0.58920 -0.16600
C 	C 	0.66930 0.10330 0.62440 0.10100
C 	C 	0.77160 0.04430 0.53420 0.01300
C 	C 	0.84110 0.04460 0.53310 -0.09100
C 	C 	0.50280 0.28850 0.68050 0.42200
C 	C 	0.44340 0.27260 0.64150 -0.18200
C 	C 	0.39860 0.19960 0.62260 0.10200
C 	C 	0.34410 0.18470 0.58790 -0.17000
C 	C 	0.33400 0.24320 0.57090 0.09000
C 	C 	0.37920 0.31690 0.58920 -0.16600
C 	C 	0.43400 0.33070 0.62440 0.10100
C 	C 	0.27270 0.22840 0.53420 0.01300
C 	C 	0.20350 0.15890 0.53310 -0.09100
C 	C 	0.78570 0.49720 0.68050 0.42200
C 	C 	0.82920 0.55660 0.64150 -0.18200
C 	C 	0.80100 0.60140 0.62260 0.10200
C 	C 	0.84060 0.65590 0.58790 -0.17000
C 	C 	0.90920 0.66600 0.57090 0.09000
C 	C 	0.93770 0.62080 0.58920 -0.16600
C 	C 	0.89670 0.56600 0.62440 0.10100
C 	C 	0.95570 0.72730 0.53420 0.01300
C 	C 	0.95540 0.79650 0.53310 -0.09000
C 	C 	0.49720 0.78570 0.18050 0.42200
C 	C 	0.55660 0.82920 0.14150 -0.18200
C 	C 	0.60140 0.80100 0.12260 0.10200
C 	C 	0.65590 0.84060 0.08790 -0.17000
C 	C 	0.66600 0.90920 0.07090 0.09000
C 	C 	0.62080 0.93770 0.08920 -0.16600
C 	C 	0.56600 0.89670 0.12440 0.10100
C 	C 	0.72730 0.95570 0.03420 0.01300
C 	C 	0.79650 0.95540 0.03310 -0.09000
C 	C 	0.21430 0.71150 0.18050 0.42200
C 	C 	0.17080 0.72740 0.14150 -0.18200
C 	C 	0.19900 0.80040 0.12260 0.10200
C 	C 	0.15940 0.81530 0.08790 -0.17000
C 	C 	0.09080 0.75680 0.07090 0.09000
C 	C 	0.06230 0.68310 0.08920 -0.16600
C 	C 	0.10330 0.66930 0.12440 0.10100
C 	C 	0.04430 0.77160 0.03420 0.01200
C 	C 	0.04460 0.84110 0.03310 -0.09100
C 	C 	0.28850 0.50280 0.18050 0.42200
C 	C 	0.27260 0.44340 0.14150 -0.18200
C 	C 	0.19960 0.39860 0.12260 0.10200
C 	C 	0.18470 0.34410 0.08790 -0.17000
C 	C 	0.24320 0.33400 0.07090 0.09000
C 	C 	0.31690 0.37920 0.08920 -0.16600
C 	C 	0.33070 0.43400 0.12440 0.10100
C 	C 	0.22840 0.27270 0.03420 0.01300
C 	C 	0.15890 0.20350 0.03310 -0.09100
C 	C 	0.49720 0.78570 0.31950 0.42200
C 	C 	0.55660 0.82920 0.35850 -0.18200
C 	C 	0.60140 0.80100 0.37740 0.10200
C 	C 	0.65590 0.84060 0.41210 -0.17000
C 	C 	0.66600 0.90920 0.42910 0.09000
C 	C 	0.62080 0.93770 0.41080 -0.16600
C 	C 	0.56600 0.89670 0.37560 0.10100
C 	C 	0.72730 0.95570 0.46580 0.01300
C 	C 	0.79650 0.95540 0.46690 -0.09000
C 	C 	0.21430 0.71150 0.31950 0.42200
C 	C 	0.17080 0.72740 0.35850 -0.18200
C 	C 	0.19900 0.80040 0.37740 0.10200
C 	C 	0.15940 0.81530 0.41210 -0.17000
C 	C 	0.09080 0.75680 0.42910 0.09000
C 	C 	0.06230 0.68310 0.41080 -0.16600
C 	C 	0.10330 0.66930 0.37560 0.10100
C 	C 	0.04430 0.77160 0.46580 0.01300
C 	C 	0.04460 0.84110 0.46690 -0.09100
C 	C 	0.28850 0.50280 0.31950 0.42200
C 	C 	0.27260 0.44340 0.35850 -0.18200
C 	C 	0.19960 0.39860 0.37740 0.10200
C 	C 	0.18470 0.34410 0.41210 -0.17000
C 	C 	0.24320 0.33400 0.42910 0.09000
C 	C 	0.31690 0.37920 0.41080 -0.16600
C 	C 	0.33070 0.43400 0.37560 0.10100
C 	C 	0.22840 0.27270 0.46580 0.01300
C 	C 	0.15890 0.20350 0.46690 -0.09100
C 	C 	0.71520 0.00000 -0.00000 -0.08500
C 	C 	0.85450 0.00000 -0.00000 0.02300
C 	C 	0.93010 0.00000 -0.00000 0.05600
C 	C 	0.28480 0.28480 -0.00000 -0.08500
C 	C 	0.14550 0.14550 -0.00000 0.02300
C 	C 	0.06990 0.06990 -0.00000 0.05700
C 	C 	-0.00000 0.71520 -0.00000 -0.08500
C 	C 	0.00000 0.85450 -0.00000 0.02300
C 	C 	-0.00000 0.93010 -0.00000 0.05600
C 	C 	0.71520 -0.00000 0.50000 -0.08500
C 	C 	0.85450 -0.00000 0.50000 0.02300
C 	C 	0.93010 -0.00000 0.50000 0.05600
C 	C 	0.28480 0.28480 0.50000 -0.08500
C 	C 	0.14550 0.14550 0.50000 0.02300
C 	C 	0.06990 0.06990 0.50000 0.05700
C 	C 	0.00000 0.71520 0.50000 -0.08500
C 	C 	0.00000 0.85450 0.50000 0.02300
C 	C 	-0.00000 0.93010 0.50000 0.05600
C 	C 	0.00000 0.06990 -0.00000 -0.12700
C 	C 	0.06990 0.00000 -0.00000 -0.12700
C 	C 	0.93010 0.93010 -0.00000 -0.12700
C 	C 	0.00000 0.06990 0.50000 -0.12700
C 	C 	0.06990 -0.00000 0.50000 -0.12700
C 	C 	0.93010 0.93010 0.50000 -0.12700
O 	O 	0.64380 0.18640 0.80490 -0.49400
O 	O 	0.76890 0.27870 0.80540 -0.48500
O 	O 	0.54260 0.35620 0.80490 -0.49400
O 	O 	0.50980 0.23110 0.80540 -0.48500
O 	O 	0.81360 0.45740 0.80490 -0.49400
O 	O 	0.72130 0.49020 0.80540 -0.48500
O 	O 	0.64380 0.18640 0.69510 -0.49400
O 	O 	0.76890 0.27870 0.69460 -0.48500
O 	O 	0.54260 0.35620 0.69510 -0.49400
O 	O 	0.50980 0.23110 0.69460 -0.48500
O 	O 	0.81360 0.45740 0.69510 -0.49400
O 	O 	0.72130 0.49020 0.69460 -0.48500
O 	O 	0.45740 0.81360 0.19510 -0.49400
O 	O 	0.49020 0.72130 0.19460 -0.48500
O 	O 	0.18640 0.64380 0.19510 -0.49400
O 	O 	0.27870 0.76890 0.19460 -0.48500
O 	O 	0.35620 0.54260 0.19510 -0.49400
O 	O 	0.23110 0.50980 0.19460 -0.48500
O 	O 	0.45740 0.81360 0.30490 -0.49400
O 	O 	0.49020 0.72130 0.30540 -0.48500
O 	O 	0.18640 0.64380 0.30490 -0.49400
O 	O 	0.27870 0.76890 0.30540 -0.48500
O 	O 	0.35620 0.54260 0.30490 -0.49400
O 	O 	0.23110 0.50980 0.30540 -0.48500
O 	O 	0.66667 0.33334 0.75000 -0.72900
O 	O 	0.33333 0.66666 0.25000 -0.72900
