data_crystal

_cell_length_a 18.67770
_cell_length_b 18.67770
_cell_length_c 54.44300
_cell_angle_alpha 90.00000
_cell_angle_beta  90.00000
_cell_angle_gamma 120.00000

_symmetry_space_group_name_	'P 1'
_symmetry_space_group_name_H-M	'P 1'

loop_
_symmetry_equiv_pos_as_xyz
  x,y,z

loop_
_atom_site_label
_atom_site_type_symbol
_atom_site_fract_x
_atom_site_fract_y
_atom_site_fract_z
_atom_site_charge
Cu	Cu	0.47641 0.95275 0.01995 0.90300
C 	C 	0.36150 0.90690 0.98067 0.36600
O 	O 	0.37141 0.88949 0.00216 -0.40900
C 	C 	0.28260 0.84730 0.96828 -0.07900
C 	C 	0.26850 0.86100 0.94429 -0.03100
H 	H 	0.30610 0.90950 0.93630 0.05900
C 	C 	0.19760 0.80200 0.93195 0.02300
C 	C 	0.18350 0.81660 0.88435 0.00500
C 	C 	0.18690 0.81350 0.90598 -0.02600
C 	C 	0.23680 0.89140 0.84530 0.01000
C 	C 	0.17570 0.82440 0.85883 -0.02200
C 	C 	0.22530 0.90160 0.82103 0.01100
C 	C 	0.22490 0.77570 0.98056 0.02100
H 	H 	0.23420 0.76660 0.99670 0.05400
C 	C 	0.15250 0.71730 0.96835 -0.07900
C 	C 	0.13920 0.73180 0.94419 -0.03100
H 	H 	0.09090 0.69410 0.93620 0.06000
C 	C 	0.09300 0.63860 0.98071 0.37000
O 	O 	0.11037 0.62849 0.00213 -0.41000
O 	O 	0.03172 0.58846 0.96861 -0.41300
O 	O 	0.41164 0.96833 0.96861 -0.41200
C 	C 	0.28550 0.97200 0.80884 0.20200
H 	H 	0.27720 0.97870 0.79240 -0.03200
C 	C 	0.36020 0.03510 0.82067 -0.10400
H 	H 	0.39970 0.08100 0.81210 0.06300
C 	C 	0.37020 0.02370 0.84524 -0.12400
H 	H 	0.41630 0.06270 0.85380 0.07000
C 	C 	0.30790 0.95050 0.85718 0.21700
H 	H 	0.31530 0.94230 0.87360 -0.03600
H 	H 	0.27930 0.93380 0.85410 -0.11800
H 	H 	0.26460 0.94970 0.81330 -0.11300
Cu	Cu	0.14308 0.28608 0.35328 0.90400
C 	C 	0.02817 0.24023 0.31400 0.36800
O 	O 	0.03808 0.22282 0.33549 -0.40900
C 	C 	0.94927 0.18063 0.30161 -0.08000
C 	C 	0.93517 0.19433 0.27762 -0.03000
H 	H 	0.97277 0.24283 0.26963 0.06000
C 	C 	0.86427 0.13533 0.26528 0.02200
C 	C 	0.85017 0.14993 0.21768 0.00500
C 	C 	0.85357 0.14683 0.23931 -0.02600
C 	C 	0.90347 0.22473 0.17863 0.01000
C 	C 	0.84237 0.15773 0.19216 -0.02200
C 	C 	0.89197 0.23493 0.15436 0.01100
C 	C 	0.89157 0.10903 0.31389 0.02200
H 	H 	0.90087 0.09993 0.33003 0.05400
C 	C 	0.81917 0.05063 0.30168 -0.08000
C 	C 	0.80587 0.06513 0.27752 -0.03000
H 	H 	0.75757 0.02743 0.26953 0.06000
C 	C 	0.75967 0.97193 0.31404 0.37000
O 	O 	0.77704 0.96182 0.33546 -0.41000
O 	O 	0.69839 0.92179 0.30194 -0.41200
O 	O 	0.07831 0.30166 0.30194 -0.41200
C 	C 	0.95217 0.30533 0.14217 0.20200
H 	H 	0.94387 0.31203 0.12573 -0.03200
C 	C 	0.02687 0.36843 0.15400 -0.10500
H 	H 	0.06637 0.41433 0.14543 0.06300
C 	C 	0.03687 0.35703 0.17857 -0.12400
H 	H 	0.08297 0.39603 0.18713 0.07000
C 	C 	0.97457 0.28383 0.19051 0.21700
H 	H 	0.98197 0.27563 0.20693 -0.03600
H 	H 	0.94597 0.26713 0.18743 -0.11900
H 	H 	0.93127 0.28303 0.14663 -0.11300
Cu	Cu	0.80974 0.61942 0.68661 0.90400
C 	C 	0.69483 0.57357 0.64734 0.36700
O 	O 	0.70474 0.55616 0.66883 -0.40800
C 	C 	0.61593 0.51397 0.63495 -0.07800
C 	C 	0.60183 0.52767 0.61096 -0.03000
H 	H 	0.63943 0.57617 0.60297 0.06000
C 	C 	0.53093 0.46867 0.59862 0.02300
C 	C 	0.51683 0.48327 0.55102 0.00500
C 	C 	0.52023 0.48017 0.57265 -0.02600
C 	C 	0.57013 0.55807 0.51197 0.01000
C 	C 	0.50903 0.49107 0.52550 -0.02200
C 	C 	0.55863 0.56827 0.48770 0.01100
C 	C 	0.55823 0.44237 0.64723 0.02100
H 	H 	0.56753 0.43327 0.66337 0.05400
C 	C 	0.48583 0.38397 0.63502 -0.07900
C 	C 	0.47253 0.39847 0.61086 -0.03100
H 	H 	0.42423 0.36077 0.60287 0.06000
C 	C 	0.42633 0.30527 0.64738 0.37000
O 	O 	0.44370 0.29516 0.66880 -0.41000
O 	O 	0.36505 0.25513 0.63528 -0.41200
O 	O 	0.74497 0.63500 0.63528 -0.41200
C 	C 	0.61883 0.63867 0.47551 0.20200
H 	H 	0.61053 0.64537 0.45907 -0.03200
C 	C 	0.69353 0.70177 0.48734 -0.10500
H 	H 	0.73303 0.74767 0.47877 0.06300
C 	C 	0.70353 0.69037 0.51191 -0.12400
H 	H 	0.74963 0.72937 0.52047 0.07000
C 	C 	0.64123 0.61717 0.52385 0.21700
H 	H 	0.64863 0.60897 0.54027 -0.03600
H 	H 	0.61263 0.60047 0.52077 -0.11800
H 	H 	0.59793 0.61637 0.47997 -0.11300
Cu	Cu	0.04725 0.52366 0.01995 0.90400
C 	C 	0.09310 0.45460 0.98067 0.36700
O 	O 	0.11051 0.48192 0.00216 -0.40800
C 	C 	0.15270 0.43530 0.96828 -0.07800
C 	C 	0.13900 0.40750 0.94429 -0.03000
H 	H 	0.09050 0.39660 0.93630 0.06000
C 	C 	0.19800 0.39560 0.93195 0.02300
C 	C 	0.18340 0.36690 0.88435 0.00500
C 	C 	0.18650 0.37340 0.90598 -0.02600
C 	C 	0.10860 0.34540 0.84530 0.01000
C 	C 	0.17560 0.35130 0.85883 -0.02200
C 	C 	0.09840 0.32370 0.82103 0.01100
C 	C 	0.22430 0.44920 0.98056 0.02100
H 	H 	0.23340 0.46760 0.99670 0.05400
C 	C 	0.28270 0.43520 0.96835 -0.07900
C 	C 	0.26820 0.40740 0.94419 -0.03100
H 	H 	0.30590 0.39680 0.93620 0.06000
C 	C 	0.36140 0.45440 0.98071 0.37000
O 	O 	0.37151 0.48188 0.00213 -0.41000
O 	O 	0.41154 0.44326 0.96861 -0.41200
O 	O 	0.03167 0.44331 0.96861 -0.41200
C 	C 	0.02800 0.31350 0.80884 0.20200
H 	H 	0.02130 0.29850 0.79240 -0.03200
C 	C 	0.96490 0.32510 0.82067 -0.10400
H 	H 	0.91900 0.31870 0.81210 0.06300
C 	C 	0.97630 0.34650 0.84524 -0.12400
H 	H 	0.93730 0.35360 0.85380 0.07000
C 	C 	0.04950 0.35740 0.85718 0.21700
H 	H 	0.05770 0.37300 0.87360 -0.03600
H 	H 	0.06620 0.34550 0.85410 -0.11800
H 	H 	0.05030 0.31490 0.81330 -0.11300
Cu	Cu	0.71392 0.85699 0.35328 0.90400
C 	C 	0.75977 0.78793 0.31400 0.36700
O 	O 	0.77718 0.81525 0.33549 -0.40800
C 	C 	0.81937 0.76863 0.30161 -0.07900
C 	C 	0.80567 0.74083 0.27762 -0.03000
H 	H 	0.75717 0.72993 0.26963 0.06000
C 	C 	0.86467 0.72893 0.26528 0.02300
C 	C 	0.85007 0.70023 0.21768 0.00500
C 	C 	0.85317 0.70673 0.23931 -0.02600
C 	C 	0.77527 0.67873 0.17863 0.01000
C 	C 	0.84227 0.68463 0.19216 -0.02200
C 	C 	0.76507 0.65703 0.15436 0.01100
C 	C 	0.89097 0.78253 0.31389 0.02100
H 	H 	0.90007 0.80093 0.33003 0.05400
C 	C 	0.94937 0.76853 0.30168 -0.08000
C 	C 	0.93487 0.74073 0.27752 -0.03100
H 	H 	0.97257 0.73013 0.26953 0.06000
C 	C 	0.02807 0.78773 0.31404 0.37000
O 	O 	0.03818 0.81521 0.33546 -0.41000
O 	O 	0.07821 0.77659 0.30194 -0.41200
O 	O 	0.69834 0.77664 0.30194 -0.41200
C 	C 	0.69467 0.64683 0.14217 0.20200
H 	H 	0.68797 0.63183 0.12573 -0.03200
C 	C 	0.63157 0.65843 0.15400 -0.10500
H 	H 	0.58567 0.65203 0.14543 0.06300
C 	C 	0.64297 0.67983 0.17857 -0.12400
H 	H 	0.60397 0.68693 0.18713 0.07000
C 	C 	0.71617 0.69073 0.19051 0.21700
H 	H 	0.72437 0.70633 0.20693 -0.03600
H 	H 	0.73287 0.67883 0.18743 -0.11800
H 	H 	0.71697 0.64823 0.14663 -0.11300
Cu	Cu	0.38058 0.19033 0.68661 0.90400
C 	C 	0.42643 0.12127 0.64734 0.36700
O 	O 	0.44384 0.14859 0.66883 -0.40800
C 	C 	0.48603 0.10197 0.63495 -0.07800
C 	C 	0.47233 0.07417 0.61096 -0.03000
H 	H 	0.42383 0.06327 0.60297 0.06000
C 	C 	0.53133 0.06227 0.59862 0.02300
C 	C 	0.51673 0.03357 0.55102 0.00500
C 	C 	0.51983 0.04007 0.57265 -0.02600
C 	C 	0.44193 0.01207 0.51197 0.01000
C 	C 	0.50893 0.01797 0.52550 -0.02200
C 	C 	0.43173 0.99037 0.48770 0.01100
C 	C 	0.55763 0.11587 0.64723 0.02100
H 	H 	0.56673 0.13427 0.66337 0.05400
C 	C 	0.61603 0.10187 0.63502 -0.07900
C 	C 	0.60153 0.07407 0.61086 -0.03100
H 	H 	0.63923 0.06347 0.60287 0.06000
C 	C 	0.69473 0.12107 0.64738 0.37000
O 	O 	0.70484 0.14855 0.66880 -0.41000
O 	O 	0.74487 0.10993 0.63528 -0.41200
O 	O 	0.36500 0.10998 0.63528 -0.41200
C 	C 	0.36133 0.98017 0.47551 0.20200
H 	H 	0.35463 0.96517 0.45907 -0.03200
C 	C 	0.29823 0.99177 0.48734 -0.10500
H 	H 	0.25233 0.98537 0.47877 0.06300
C 	C 	0.30963 0.01317 0.51191 -0.12400
H 	H 	0.27063 0.02027 0.52047 0.07000
C 	C 	0.38283 0.02407 0.52385 0.21700
H 	H 	0.39103 0.03967 0.54027 -0.03600
H 	H 	0.39953 0.01217 0.52077 -0.11800
H 	H 	0.38363 0.98157 0.47997 -0.11300
Cu	Cu	0.47634 0.52359 0.01995 0.90400
C 	C 	0.54540 0.63850 0.98067 0.36700
O 	O 	0.51808 0.62859 0.00216 -0.40800
C 	C 	0.56470 0.71740 0.96828 -0.07800
C 	C 	0.59250 0.73150 0.94429 -0.03000
H 	H 	0.60340 0.69390 0.93630 0.06000
C 	C 	0.60440 0.80240 0.93195 0.02300
C 	C 	0.63310 0.81650 0.88435 0.00500
C 	C 	0.62660 0.81310 0.90598 -0.02600
C 	C 	0.65460 0.76320 0.84530 0.01000
C 	C 	0.64870 0.82430 0.85883 -0.02200
C 	C 	0.67630 0.77470 0.82103 0.01100
C 	C 	0.55080 0.77510 0.98056 0.02100
H 	H 	0.53240 0.76580 0.99670 0.05400
C 	C 	0.56480 0.84750 0.96835 -0.07900
C 	C 	0.59260 0.86080 0.94419 -0.03100
H 	H 	0.60320 0.90910 0.93620 0.06000
C 	C 	0.54560 0.90700 0.98071 0.37000
O 	O 	0.51812 0.88963 0.00213 -0.41000
O 	O 	0.55674 0.96828 0.96861 -0.41300
O 	O 	0.55669 0.58836 0.96861 -0.41200
C 	C 	0.68650 0.71450 0.80884 0.20200
H 	H 	0.70150 0.72280 0.79240 -0.03200
C 	C 	0.67490 0.63980 0.82067 -0.10500
H 	H 	0.68130 0.60030 0.81210 0.06300
C 	C 	0.65350 0.62980 0.84524 -0.12400
H 	H 	0.64640 0.58370 0.85380 0.07000
C 	C 	0.64260 0.69210 0.85718 0.21700
H 	H 	0.62700 0.68470 0.87360 -0.03600
H 	H 	0.65450 0.72070 0.85410 -0.11800
H 	H 	0.68510 0.73540 0.81330 -0.11300
Cu	Cu	0.14301 0.85692 0.35328 0.90400
C 	C 	0.21207 0.97183 0.31400 0.36700
O 	O 	0.18475 0.96192 0.33549 -0.40800
C 	C 	0.23137 0.05073 0.30161 -0.07900
C 	C 	0.25917 0.06483 0.27762 -0.03000
H 	H 	0.27007 0.02723 0.26963 0.06000
C 	C 	0.27107 0.13573 0.26528 0.02300
C 	C 	0.29977 0.14983 0.21768 0.00500
C 	C 	0.29327 0.14643 0.23931 -0.02600
C 	C 	0.32127 0.09653 0.17863 0.01000
C 	C 	0.31537 0.15763 0.19216 -0.02200
C 	C 	0.34297 0.10803 0.15436 0.01100
C 	C 	0.21747 0.10843 0.31389 0.02100
H 	H 	0.19907 0.09913 0.33003 0.05400
C 	C 	0.23147 0.18083 0.30168 -0.07900
C 	C 	0.25927 0.19413 0.27752 -0.03100
H 	H 	0.26987 0.24243 0.26953 0.06000
C 	C 	0.21227 0.24033 0.31404 0.37000
O 	O 	0.18479 0.22296 0.33546 -0.41000
O 	O 	0.22341 0.30161 0.30194 -0.41200
O 	O 	0.22336 0.92169 0.30194 -0.41200
C 	C 	0.35317 0.04783 0.14217 0.20200
H 	H 	0.36817 0.05613 0.12573 -0.03200
C 	C 	0.34157 0.97313 0.15400 -0.10400
H 	H 	0.34797 0.93363 0.14543 0.06300
C 	C 	0.32017 0.96313 0.17857 -0.12400
H 	H 	0.31307 0.91703 0.18713 0.07000
C 	C 	0.30927 0.02543 0.19051 0.21700
H 	H 	0.29367 0.01803 0.20693 -0.03600
H 	H 	0.32117 0.05403 0.18743 -0.11900
H 	H 	0.35177 0.06873 0.14663 -0.11300
Cu	Cu	0.80967 0.19026 0.68661 0.90400
C 	C 	0.87873 0.30517 0.64734 0.36700
O 	O 	0.85141 0.29526 0.66883 -0.40800
C 	C 	0.89803 0.38407 0.63495 -0.07800
C 	C 	0.92583 0.39817 0.61096 -0.03000
H 	H 	0.93673 0.36057 0.60297 0.06000
C 	C 	0.93773 0.46907 0.59862 0.02300
C 	C 	0.96643 0.48317 0.55102 0.00500
C 	C 	0.95993 0.47977 0.57265 -0.02600
C 	C 	0.98793 0.42987 0.51197 0.01000
C 	C 	0.98203 0.49097 0.52550 -0.02200
C 	C 	0.00963 0.44137 0.48770 0.01100
C 	C 	0.88413 0.44177 0.64723 0.02100
H 	H 	0.86573 0.43247 0.66337 0.05400
C 	C 	0.89813 0.51417 0.63502 -0.07900
C 	C 	0.92593 0.52747 0.61086 -0.03100
H 	H 	0.93653 0.57577 0.60287 0.06000
C 	C 	0.87893 0.57367 0.64738 0.37000
O 	O 	0.85145 0.55630 0.66880 -0.41000
O 	O 	0.89007 0.63495 0.63528 -0.41200
O 	O 	0.89002 0.25503 0.63528 -0.41200
C 	C 	0.01983 0.38117 0.47551 0.20200
H 	H 	0.03483 0.38947 0.45907 -0.03200
C 	C 	0.00823 0.30647 0.48734 -0.10500
H 	H 	0.01463 0.26697 0.47877 0.06300
C 	C 	0.98683 0.29647 0.51191 -0.12400
H 	H 	0.97973 0.25037 0.52047 0.07000
C 	C 	0.97593 0.35877 0.52385 0.21700
H 	H 	0.96033 0.35137 0.54027 -0.03600
H 	H 	0.98783 0.38737 0.52077 -0.11800
H 	H 	0.01843 0.40207 0.47997 -0.11300
Cu	Cu	0.52359 0.04725 0.98005 0.90400
C 	C 	0.63850 0.09310 0.01933 0.36700
O 	O 	0.62859 0.11051 0.99784 -0.40800
C 	C 	0.71740 0.15270 0.03172 -0.07800
C 	C 	0.73150 0.13900 0.05571 -0.03000
H 	H 	0.69390 0.09050 0.06370 0.06000
C 	C 	0.80240 0.19800 0.06805 0.02300
C 	C 	0.81650 0.18340 0.11565 0.00500
C 	C 	0.81310 0.18650 0.09402 -0.02600
C 	C 	0.76320 0.10860 0.15470 0.01000
C 	C 	0.82430 0.17560 0.14117 -0.02200
C 	C 	0.77470 0.09840 0.17897 0.01100
C 	C 	0.77510 0.22430 0.01944 0.02100
H 	H 	0.76580 0.23340 0.00330 0.05400
C 	C 	0.84750 0.28270 0.03165 -0.07900
C 	C 	0.86080 0.26820 0.05581 -0.03100
H 	H 	0.90910 0.30590 0.06380 0.06000
C 	C 	0.90700 0.36140 0.01929 0.37000
O 	O 	0.88963 0.37151 0.99787 -0.41000
O 	O 	0.96828 0.41154 0.03139 -0.41300
O 	O 	0.58836 0.03167 0.03139 -0.41200
C 	C 	0.71450 0.02800 0.19116 0.20200
H 	H 	0.72280 0.02130 0.20760 -0.03200
C 	C 	0.63980 0.96490 0.17933 -0.10400
H 	H 	0.60030 0.91900 0.18790 0.06300
C 	C 	0.62980 0.97630 0.15476 -0.12400
H 	H 	0.58370 0.93730 0.14620 0.07000
C 	C 	0.69210 0.04950 0.14282 0.21700
H 	H 	0.68470 0.05770 0.12640 -0.03600
H 	H 	0.72070 0.06620 0.14590 -0.11800
H 	H 	0.73540 0.05030 0.18670 -0.11300
Cu	Cu	0.19026 0.38058 0.31339 0.90400
C 	C 	0.30517 0.42643 0.35266 0.36700
O 	O 	0.29526 0.44384 0.33117 -0.40800
C 	C 	0.38407 0.48603 0.36505 -0.07800
C 	C 	0.39817 0.47233 0.38904 -0.03000
H 	H 	0.36057 0.42383 0.39703 0.06000
C 	C 	0.46907 0.53133 0.40138 0.02300
C 	C 	0.48317 0.51673 0.44898 0.00500
C 	C 	0.47977 0.51983 0.42735 -0.02600
C 	C 	0.42987 0.44193 0.48803 0.01000
C 	C 	0.49097 0.50893 0.47450 -0.02200
C 	C 	0.44137 0.43173 0.51230 0.01100
C 	C 	0.44177 0.55763 0.35277 0.02100
H 	H 	0.43247 0.56673 0.33663 0.05400
C 	C 	0.51417 0.61603 0.36498 -0.07900
C 	C 	0.52747 0.60153 0.38914 -0.03100
H 	H 	0.57577 0.63923 0.39713 0.06000
C 	C 	0.57367 0.69473 0.35262 0.37000
O 	O 	0.55630 0.70484 0.33120 -0.41000
O 	O 	0.63495 0.74487 0.36472 -0.41200
O 	O 	0.25503 0.36500 0.36472 -0.41200
C 	C 	0.38117 0.36133 0.52449 0.20200
H 	H 	0.38947 0.35463 0.54093 -0.03200
C 	C 	0.30647 0.29823 0.51266 -0.10500
H 	H 	0.26697 0.25233 0.52123 0.06300
C 	C 	0.29647 0.30963 0.48809 -0.12400
H 	H 	0.25037 0.27063 0.47953 0.07000
C 	C 	0.35877 0.38283 0.47615 0.21700
H 	H 	0.35137 0.39103 0.45973 -0.03600
H 	H 	0.38737 0.39953 0.47923 -0.11800
H 	H 	0.40207 0.38363 0.52003 -0.11300
Cu	Cu	0.85692 0.71392 0.64672 0.90400
C 	C 	0.97183 0.75977 0.68600 0.36800
O 	O 	0.96192 0.77718 0.66451 -0.40900
C 	C 	0.05073 0.81937 0.69839 -0.08000
C 	C 	0.06483 0.80567 0.72238 -0.03000
H 	H 	0.02723 0.75717 0.73037 0.06000
C 	C 	0.13573 0.86467 0.73472 0.02200
C 	C 	0.14983 0.85007 0.78232 0.00500
C 	C 	0.14643 0.85317 0.76069 -0.02600
C 	C 	0.09653 0.77527 0.82137 0.01000
C 	C 	0.15763 0.84227 0.80784 -0.02200
C 	C 	0.10803 0.76507 0.84564 0.01100
C 	C 	0.10843 0.89097 0.68611 0.02200
H 	H 	0.09913 0.90007 0.66997 0.05400
C 	C 	0.18083 0.94937 0.69832 -0.08000
C 	C 	0.19413 0.93487 0.72248 -0.03000
H 	H 	0.24243 0.97257 0.73047 0.06000
C 	C 	0.24033 0.02807 0.68596 0.37000
O 	O 	0.22296 0.03818 0.66454 -0.41000
O 	O 	0.30161 0.07821 0.69806 -0.41200
O 	O 	0.92169 0.69834 0.69806 -0.41200
C 	C 	0.04783 0.69467 0.85783 0.20200
H 	H 	0.05613 0.68797 0.87427 -0.03200
C 	C 	0.97313 0.63157 0.84600 -0.10500
H 	H 	0.93363 0.58567 0.85457 0.06300
C 	C 	0.96313 0.64297 0.82143 -0.12400
H 	H 	0.91703 0.60397 0.81287 0.07000
C 	C 	0.02543 0.71617 0.80949 0.21700
H 	H 	0.01803 0.72437 0.79307 -0.03600
H 	H 	0.05403 0.73287 0.81257 -0.11900
H 	H 	0.06873 0.71697 0.85337 -0.11300
Cu	Cu	0.95275 0.47634 0.98005 0.90400
C 	C 	0.90690 0.54540 0.01933 0.36700
O 	O 	0.88949 0.51808 0.99784 -0.40800
C 	C 	0.84730 0.56470 0.03172 -0.07800
C 	C 	0.86100 0.59250 0.05571 -0.03000
H 	H 	0.90950 0.60340 0.06370 0.06000
C 	C 	0.80200 0.60440 0.06805 0.02300
C 	C 	0.81660 0.63310 0.11565 0.00500
C 	C 	0.81350 0.62660 0.09402 -0.02600
C 	C 	0.89140 0.65460 0.15470 0.01000
C 	C 	0.82440 0.64870 0.14117 -0.02200
C 	C 	0.90160 0.67630 0.17897 0.01100
C 	C 	0.77570 0.55080 0.01944 0.02100
H 	H 	0.76660 0.53240 0.00330 0.05400
C 	C 	0.71730 0.56480 0.03165 -0.07900
C 	C 	0.73180 0.59260 0.05581 -0.03100
H 	H 	0.69410 0.60320 0.06380 0.06000
C 	C 	0.63860 0.54560 0.01929 0.37000
O 	O 	0.62849 0.51812 0.99787 -0.41000
O 	O 	0.58846 0.55674 0.03139 -0.41200
O 	O 	0.96833 0.55669 0.03139 -0.41200
C 	C 	0.97200 0.68650 0.19116 0.20200
H 	H 	0.97870 0.70150 0.20760 -0.03200
C 	C 	0.03510 0.67490 0.17933 -0.10400
H 	H 	0.08100 0.68130 0.18790 0.06300
C 	C 	0.02370 0.65350 0.15476 -0.12400
H 	H 	0.06270 0.64640 0.14620 0.07000
C 	C 	0.95050 0.64260 0.14282 0.21700
H 	H 	0.94230 0.62700 0.12640 -0.03600
H 	H 	0.93380 0.65450 0.14590 -0.11800
H 	H 	0.94970 0.68510 0.18670 -0.11300
Cu	Cu	0.61942 0.80967 0.31339 0.90400
C 	C 	0.57357 0.87873 0.35266 0.36700
O 	O 	0.55616 0.85141 0.33117 -0.40800
C 	C 	0.51397 0.89803 0.36505 -0.07800
C 	C 	0.52767 0.92583 0.38904 -0.03000
H 	H 	0.57617 0.93673 0.39703 0.06000
C 	C 	0.46867 0.93773 0.40138 0.02300
C 	C 	0.48327 0.96643 0.44898 0.00500
C 	C 	0.48017 0.95993 0.42735 -0.02600
C 	C 	0.55807 0.98793 0.48803 0.01000
C 	C 	0.49107 0.98203 0.47450 -0.02200
C 	C 	0.56827 0.00963 0.51230 0.01100
C 	C 	0.44237 0.88413 0.35277 0.02100
H 	H 	0.43327 0.86573 0.33663 0.05400
C 	C 	0.38397 0.89813 0.36498 -0.07900
C 	C 	0.39847 0.92593 0.38914 -0.03100
H 	H 	0.36077 0.93653 0.39713 0.06000
C 	C 	0.30527 0.87893 0.35262 0.37000
O 	O 	0.29516 0.85145 0.33120 -0.41000
O 	O 	0.25513 0.89007 0.36472 -0.41200
O 	O 	0.63500 0.89002 0.36472 -0.41200
C 	C 	0.63867 0.01983 0.52449 0.20200
H 	H 	0.64537 0.03483 0.54093 -0.03200
C 	C 	0.70177 0.00823 0.51266 -0.10500
H 	H 	0.74767 0.01463 0.52123 0.06300
C 	C 	0.69037 0.98683 0.48809 -0.12400
H 	H 	0.72937 0.97973 0.47953 0.07000
C 	C 	0.61717 0.97593 0.47615 0.21700
H 	H 	0.60897 0.96033 0.45973 -0.03600
H 	H 	0.60047 0.98783 0.47923 -0.11800
H 	H 	0.61637 0.01843 0.52003 -0.11300
Cu	Cu	0.28608 0.14301 0.64672 0.90400
C 	C 	0.24023 0.21207 0.68600 0.36700
O 	O 	0.22282 0.18475 0.66451 -0.40800
C 	C 	0.18063 0.23137 0.69839 -0.07900
C 	C 	0.19433 0.25917 0.72238 -0.03000
H 	H 	0.24283 0.27007 0.73037 0.06000
C 	C 	0.13533 0.27107 0.73472 0.02300
C 	C 	0.14993 0.29977 0.78232 0.00500
C 	C 	0.14683 0.29327 0.76069 -0.02600
C 	C 	0.22473 0.32127 0.82137 0.01000
C 	C 	0.15773 0.31537 0.80784 -0.02200
C 	C 	0.23493 0.34297 0.84564 0.01100
C 	C 	0.10903 0.21747 0.68611 0.02100
H 	H 	0.09993 0.19907 0.66997 0.05400
C 	C 	0.05063 0.23147 0.69832 -0.08000
C 	C 	0.06513 0.25927 0.72248 -0.03100
H 	H 	0.02743 0.26987 0.73047 0.06000
C 	C 	0.97193 0.21227 0.68596 0.37000
O 	O 	0.96182 0.18479 0.66454 -0.41000
O 	O 	0.92179 0.22341 0.69806 -0.41200
O 	O 	0.30166 0.22336 0.69806 -0.41200
C 	C 	0.30533 0.35317 0.85783 0.20200
H 	H 	0.31203 0.36817 0.87427 -0.03200
C 	C 	0.36843 0.34157 0.84600 -0.10500
H 	H 	0.41433 0.34797 0.85457 0.06300
C 	C 	0.35703 0.32017 0.82143 -0.12400
H 	H 	0.39603 0.31307 0.81287 0.07000
C 	C 	0.28383 0.30927 0.80949 0.21700
H 	H 	0.27563 0.29367 0.79307 -0.03600
H 	H 	0.26713 0.32117 0.81257 -0.11800
H 	H 	0.28303 0.35177 0.85337 -0.11300
Cu	Cu	0.52366 0.47641 0.98005 0.90400
C 	C 	0.45460 0.36150 0.01933 0.36700
O 	O 	0.48192 0.37141 0.99784 -0.40800
C 	C 	0.43530 0.28260 0.03172 -0.07800
C 	C 	0.40750 0.26850 0.05571 -0.03000
H 	H 	0.39660 0.30610 0.06370 0.06000
C 	C 	0.39560 0.19760 0.06805 0.02300
C 	C 	0.36690 0.18350 0.11565 0.00500
C 	C 	0.37340 0.18690 0.09402 -0.02600
C 	C 	0.34540 0.23680 0.15470 0.01000
C 	C 	0.35130 0.17570 0.14117 -0.02200
C 	C 	0.32370 0.22530 0.17897 0.01100
C 	C 	0.44920 0.22490 0.01944 0.02100
H 	H 	0.46760 0.23420 0.00330 0.05400
C 	C 	0.43520 0.15250 0.03165 -0.07900
C 	C 	0.40740 0.13920 0.05581 -0.03100
H 	H 	0.39680 0.09090 0.06380 0.06000
C 	C 	0.45440 0.09300 0.01929 0.37000
O 	O 	0.48188 0.11037 0.99787 -0.41000
O 	O 	0.44326 0.03172 0.03139 -0.41300
O 	O 	0.44331 0.41164 0.03139 -0.41200
C 	C 	0.31350 0.28550 0.19116 0.20200
H 	H 	0.29850 0.27720 0.20760 -0.03200
C 	C 	0.32510 0.36020 0.17933 -0.10500
H 	H 	0.31870 0.39970 0.18790 0.06300
C 	C 	0.34650 0.37020 0.15476 -0.12400
H 	H 	0.35360 0.41630 0.14620 0.07000
C 	C 	0.35740 0.30790 0.14282 0.21700
H 	H 	0.37300 0.31530 0.12640 -0.03600
H 	H 	0.34550 0.27930 0.14590 -0.11800
H 	H 	0.31490 0.26460 0.18670 -0.11300
Cu	Cu	0.19033 0.80974 0.31339 0.90400
C 	C 	0.12127 0.69483 0.35266 0.36700
O 	O 	0.14859 0.70474 0.33117 -0.40800
C 	C 	0.10197 0.61593 0.36505 -0.07800
C 	C 	0.07417 0.60183 0.38904 -0.03000
H 	H 	0.06327 0.63943 0.39703 0.06000
C 	C 	0.06227 0.53093 0.40138 0.02300
C 	C 	0.03357 0.51683 0.44898 0.00500
C 	C 	0.04007 0.52023 0.42735 -0.02600
C 	C 	0.01207 0.57013 0.48803 0.01000
C 	C 	0.01797 0.50903 0.47450 -0.02200
C 	C 	0.99037 0.55863 0.51230 0.01100
C 	C 	0.11587 0.55823 0.35277 0.02100
H 	H 	0.13427 0.56753 0.33663 0.05400
C 	C 	0.10187 0.48583 0.36498 -0.07900
C 	C 	0.07407 0.47253 0.38914 -0.03100
H 	H 	0.06347 0.42423 0.39713 0.06000
C 	C 	0.12107 0.42633 0.35262 0.37000
O 	O 	0.14855 0.44370 0.33120 -0.41000
O 	O 	0.10993 0.36505 0.36472 -0.41200
O 	O 	0.10998 0.74497 0.36472 -0.41200
C 	C 	0.98017 0.61883 0.52449 0.20200
H 	H 	0.96517 0.61053 0.54093 -0.03200
C 	C 	0.99177 0.69353 0.51266 -0.10500
H 	H 	0.98537 0.73303 0.52123 0.06300
C 	C 	0.01317 0.70353 0.48809 -0.12400
H 	H 	0.02027 0.74963 0.47953 0.07000
C 	C 	0.02407 0.64123 0.47615 0.21700
H 	H 	0.03967 0.64863 0.45973 -0.03600
H 	H 	0.01217 0.61263 0.47923 -0.11800
H 	H 	0.98157 0.59793 0.52003 -0.11300
Cu	Cu	0.85699 0.14308 0.64672 0.90400
C 	C 	0.78793 0.02817 0.68600 0.36700
O 	O 	0.81525 0.03808 0.66451 -0.40800
C 	C 	0.76863 0.94927 0.69839 -0.07900
C 	C 	0.74083 0.93517 0.72238 -0.03000
H 	H 	0.72993 0.97277 0.73037 0.06000
C 	C 	0.72893 0.86427 0.73472 0.02300
C 	C 	0.70023 0.85017 0.78232 0.00500
C 	C 	0.70673 0.85357 0.76069 -0.02600
C 	C 	0.67873 0.90347 0.82137 0.01000
C 	C 	0.68463 0.84237 0.80784 -0.02200
C 	C 	0.65703 0.89197 0.84564 0.01100
C 	C 	0.78253 0.89157 0.68611 0.02100
H 	H 	0.80093 0.90087 0.66997 0.05400
C 	C 	0.76853 0.81917 0.69832 -0.07900
C 	C 	0.74073 0.80587 0.72248 -0.03100
H 	H 	0.73013 0.75757 0.73047 0.06000
C 	C 	0.78773 0.75967 0.68596 0.37000
O 	O 	0.81521 0.77704 0.66454 -0.41000
O 	O 	0.77659 0.69839 0.69806 -0.41200
O 	O 	0.77664 0.07831 0.69806 -0.41200
C 	C 	0.64683 0.95217 0.85783 0.20200
H 	H 	0.63183 0.94387 0.87427 -0.03200
C 	C 	0.65843 0.02687 0.84600 -0.10400
H 	H 	0.65203 0.06637 0.85457 0.06300
C 	C 	0.67983 0.03687 0.82143 -0.12400
H 	H 	0.68693 0.08297 0.81287 0.07000
C 	C 	0.69073 0.97457 0.80949 0.21700
H 	H 	0.70633 0.98197 0.79307 -0.03600
H 	H 	0.67883 0.94597 0.81257 -0.11900
H 	H 	0.64823 0.93127 0.85337 -0.11300
