data_crystal

_cell_length_a 19.27500
_cell_length_b 19.27500
_cell_length_c 13.12300
_cell_angle_alpha 90.00000
_cell_angle_beta  90.00000
_cell_angle_gamma 120.00000

_symmetry_space_group_name_	'P 1'
_symmetry_space_group_name_H-M	'P 1'

loop_
_symmetry_equiv_pos_as_xyz
  x,y,z

loop_
_atom_site_label
_atom_site_type_symbol
_atom_site_fract_x
_atom_site_fract_y
_atom_site_fract_z
_atom_site_charge
I 	I 	0.29947 0.52021 0.68535 -0.79900
Cu	Cu	0.40034 0.64565 0.57622 0.72600
N 	N 	0.48400 0.62170 0.52140 -0.21700
C 	C 	0.55570 0.64920 0.56680 0.02500
H 	H 	0.56410 0.67440 0.63140 0.00100
C 	C 	0.53320 0.57700 0.38220 0.04200
C 	C 	0.47420 0.58650 0.43140 -0.01200
H 	H 	0.42390 0.56640 0.39840 0.01900
C 	C 	0.61620 0.64260 0.52550 -0.05100
H 	H 	0.66560 0.66230 0.56060 0.04900
N 	N 	0.52610 0.59210 0.18900 -0.10300
C 	C 	0.51800 0.53890 0.27510 -0.11100
H 	H 	0.55590 0.51900 0.26420 0.05900
H 	H 	0.46320 0.49190 0.27370 0.06200
C 	C 	0.46630 0.61700 0.18500 -0.10800
H 	H 	0.47880 0.65380 0.12650 0.05800
H 	H 	0.47110 0.64770 0.24770 0.07000
C 	C 	0.38310 0.55250 0.17550 0.03800
H 	H 	0.36780 0.51740 0.23630 0.02400
H 	H 	0.34730 0.57540 0.17160 0.03100
C 	C 	0.60480 0.60600 0.42910 -0.07200
H 	H 	0.64690 0.60180 0.39770 0.06700
C 	C 	0.60720 0.66360 0.18160 0.01900
C 	C 	0.67030 0.64750 0.15690 -0.04500
H 	H 	0.67220 0.61090 0.20850 0.05600
H 	H 	0.72240 0.69810 0.15800 0.04800
O 	O 	0.37410 0.50670 0.08610 -0.22500
O 	O 	0.65670 0.61040 0.05460 -0.21100
C 	C 	0.71170 0.58510 0.03570 -0.04600
H 	H 	0.70140 0.54070 0.08240 0.00100
H 	H 	0.76660 0.62980 0.04880 0.03400
C 	C 	0.29470 0.44230 0.07220 -0.10000
H 	H 	0.25560 0.46040 0.08540 0.04100
H 	H 	0.28350 0.39800 0.11970 0.05800
O 	O 	0.50240 0.63200 0.89900 -0.31900
Cu	Cu	0.45160 0.68940 0.84950 0.79400
I 	I 	0.56890 0.67650 0.87200 -0.06700
I 	I 	0.47979 0.77926 0.68535 -0.79700
Cu	Cu	0.35435 0.75469 0.57622 0.72500
N 	N 	0.37830 0.86230 0.52140 -0.21700
C 	C 	0.35080 0.90650 0.56680 0.01800
H 	H 	0.32560 0.88970 0.63140 0.00400
C 	C 	0.42300 0.95620 0.38220 0.02900
C 	C 	0.41350 0.88770 0.43140 -0.00500
H 	H 	0.43360 0.85750 0.39840 0.01700
C 	C 	0.35740 0.97360 0.52550 -0.03500
H 	H 	0.33770 0.00330 0.56060 0.03200
N 	N 	0.40790 0.93400 0.18900 -0.10600
C 	C 	0.46110 0.97910 0.27510 -0.07900
H 	H 	0.48100 0.03690 0.26420 0.04100
H 	H 	0.50810 0.97130 0.27370 0.05800
C 	C 	0.38300 0.84930 0.18500 -0.10500
H 	H 	0.34620 0.82500 0.12650 0.05700
H 	H 	0.35230 0.82340 0.24770 0.06800
C 	C 	0.44750 0.83060 0.17550 0.03600
H 	H 	0.48260 0.85040 0.23630 0.02600
H 	H 	0.42460 0.77190 0.17160 0.03200
C 	C 	0.39400 0.99880 0.42910 -0.04700
H 	H 	0.39820 0.04510 0.39770 0.04900
C 	C 	0.33640 0.94360 0.18160 0.03200
C 	C 	0.35250 0.02280 0.15690 -0.06300
H 	H 	0.38910 0.06130 0.20850 0.05800
H 	H 	0.30190 0.02430 0.15800 0.04500
O 	O 	0.49330 0.86740 0.08610 -0.22200
O 	O 	0.38960 0.04630 0.05460 -0.21400
C 	C 	0.41490 0.12660 0.03570 -0.04700
H 	H 	0.45930 0.16070 0.08240 0.00100
H 	H 	0.37020 0.13680 0.04880 0.03000
C 	C 	0.55770 0.85240 0.07220 -0.09800
H 	H 	0.53960 0.79520 0.08540 0.04200
H 	H 	0.60200 0.88550 0.11970 0.06300
O 	O 	0.36800 0.87040 0.89900 -0.31900
Cu	Cu	0.31060 0.76220 0.84950 0.79400
I 	I 	0.32350 0.89240 0.87200 -0.06200
I 	I 	0.22074 0.70053 0.68535 -0.80000
Cu	Cu	0.24531 0.59966 0.57622 0.72500
N 	N 	0.13770 0.51600 0.52140 -0.21700
C 	C 	0.09350 0.44430 0.56680 0.03000
H 	H 	0.11030 0.43590 0.63140 -0.00400
C 	C 	0.04380 0.46680 0.38220 0.05800
C 	C 	0.11230 0.52580 0.43140 -0.02200
H 	H 	0.14250 0.57610 0.39840 0.02100
C 	C 	0.02640 0.38380 0.52550 -0.07100
H 	H 	0.99670 0.33440 0.56060 0.06500
N 	N 	0.06600 0.47390 0.18900 -0.09900
C 	C 	0.02090 0.48200 0.27510 -0.14900
H 	H 	0.96310 0.44410 0.26420 0.08000
H 	H 	0.02870 0.53680 0.27370 0.06800
C 	C 	0.15070 0.53370 0.18500 -0.11100
H 	H 	0.17500 0.52120 0.12650 0.05800
H 	H 	0.17660 0.52890 0.24770 0.07100
C 	C 	0.16940 0.61690 0.17550 0.04000
H 	H 	0.14960 0.63220 0.23630 0.02200
H 	H 	0.22810 0.65270 0.17160 0.03000
C 	C 	0.00120 0.39520 0.42910 -0.10300
H 	H 	0.95490 0.35310 0.39770 0.08600
C 	C 	0.05640 0.39280 0.18160 -0.00400
C 	C 	0.97720 0.32970 0.15690 -0.01800
H 	H 	0.93870 0.32780 0.20850 0.05000
H 	H 	0.97570 0.27760 0.15800 0.04200
O 	O 	0.13260 0.62590 0.08610 -0.22800
O 	O 	0.95370 0.34330 0.05460 -0.21000
C 	C 	0.87340 0.28830 0.03570 -0.04300
H 	H 	0.83930 0.29860 0.08240 0.00100
H 	H 	0.86320 0.23340 0.04880 0.03100
C 	C 	0.14760 0.70530 0.07220 -0.09700
H 	H 	0.20480 0.74440 0.08540 0.04100
H 	H 	0.11450 0.71650 0.11970 0.05700
O 	O 	0.12960 0.49760 0.89900 -0.31500
Cu	Cu	0.23780 0.54840 0.84950 0.79400
I 	I 	0.10760 0.43110 0.87200 -0.08300
I 	I 	0.70053 0.47979 0.31465 -0.80100
Cu	Cu	0.59966 0.35435 0.42378 0.72500
N 	N 	0.51600 0.37830 0.47860 -0.21600
C 	C 	0.44430 0.35080 0.43320 0.02200
H 	H 	0.43590 0.32560 0.36860 0.00100
C 	C 	0.46680 0.42300 0.61780 0.04300
C 	C 	0.52580 0.41350 0.56860 -0.01300
H 	H 	0.57610 0.43360 0.60160 0.02000
C 	C 	0.38380 0.35740 0.47450 -0.05000
H 	H 	0.33440 0.33770 0.43940 0.04400
N 	N 	0.47390 0.40790 0.81100 -0.09600
C 	C 	0.48200 0.46110 0.72490 -0.11300
H 	H 	0.44410 0.48100 0.73580 0.06100
H 	H 	0.53680 0.50810 0.72630 0.06500
C 	C 	0.53370 0.38300 0.81500 -0.11300
H 	H 	0.52120 0.34620 0.87350 0.08200
H 	H 	0.52890 0.35230 0.75230 0.07300
C 	C 	0.61690 0.44750 0.82450 0.04700
H 	H 	0.63220 0.48260 0.76370 0.02200
H 	H 	0.65270 0.42460 0.82840 0.03900
C 	C 	0.39520 0.39400 0.57090 -0.07400
H 	H 	0.35310 0.39820 0.60230 0.06600
C 	C 	0.39280 0.33640 0.81840 0.03500
C 	C 	0.32970 0.35250 0.84310 -0.04500
H 	H 	0.32780 0.38910 0.79150 0.05600
H 	H 	0.27760 0.30190 0.84200 0.05600
O 	O 	0.62590 0.49330 0.91390 -0.21700
O 	O 	0.34330 0.38960 0.94540 -0.20200
C 	C 	0.28830 0.41490 0.96430 0.11200
H 	H 	0.29860 0.45930 0.91760 -0.02800
H 	H 	0.23340 0.37020 0.95120 0.01000
C 	C 	0.70530 0.55770 0.92780 0.05600
H 	H 	0.74440 0.53960 0.91460 0.02300
H 	H 	0.71650 0.60200 0.88030 0.03600
O 	O 	0.49760 0.36800 0.10100 -0.32400
Cu	Cu	0.54840 0.31060 0.15050 0.79000
I 	I 	0.43110 0.32350 0.12800 -0.13200
I 	I 	0.52021 0.22074 0.31465 -0.80400
Cu	Cu	0.64565 0.24531 0.42378 0.72500
N 	N 	0.62170 0.13770 0.47860 -0.21600
C 	C 	0.64920 0.09350 0.43320 0.03000
H 	H 	0.67440 0.11030 0.36860 -0.00300
C 	C 	0.57700 0.04380 0.61780 0.05600
C 	C 	0.58650 0.11230 0.56860 -0.02000
H 	H 	0.56640 0.14250 0.60160 0.02100
C 	C 	0.64260 0.02640 0.47450 -0.06800
H 	H 	0.66230 0.99670 0.43940 0.06200
N 	N 	0.59210 0.06600 0.81100 -0.09300
C 	C 	0.53890 0.02090 0.72490 -0.14200
H 	H 	0.51900 0.96310 0.73580 0.07800
H 	H 	0.49190 0.02870 0.72630 0.06900
C 	C 	0.61700 0.15070 0.81500 -0.11600
H 	H 	0.65380 0.17500 0.87350 0.08200
H 	H 	0.64770 0.17660 0.75230 0.07400
C 	C 	0.55250 0.16940 0.82450 0.05000
H 	H 	0.51740 0.14960 0.76370 0.02000
H 	H 	0.57540 0.22810 0.82840 0.03900
C 	C 	0.60600 0.00120 0.57090 -0.09700
H 	H 	0.60180 0.95490 0.60230 0.08300
C 	C 	0.66360 0.05640 0.81840 0.02300
C 	C 	0.64750 0.97720 0.84310 -0.02900
H 	H 	0.61090 0.93870 0.79150 0.05400
H 	H 	0.69810 0.97570 0.84200 0.05900
O 	O 	0.50670 0.13260 0.91390 -0.21900
O 	O 	0.61040 0.95370 0.94540 -0.19800
C 	C 	0.58510 0.87340 0.96430 0.11000
H 	H 	0.54070 0.83930 0.91760 -0.02700
H 	H 	0.62980 0.86320 0.95120 0.01300
C 	C 	0.44230 0.14760 0.92780 0.05900
H 	H 	0.46040 0.20480 0.91460 0.02100
H 	H 	0.39800 0.11450 0.88030 0.03100
O 	O 	0.63200 0.12960 0.10100 -0.32400
Cu	Cu	0.68940 0.23780 0.15050 0.79000
I 	I 	0.67650 0.10760 0.12800 -0.13700
I 	I 	0.77926 0.29947 0.31465 -0.80100
Cu	Cu	0.75469 0.40034 0.42378 0.72600
N 	N 	0.86230 0.48400 0.47860 -0.21600
C 	C 	0.90650 0.55570 0.43320 0.01600
H 	H 	0.88970 0.56410 0.36860 0.00600
C 	C 	0.95620 0.53320 0.61780 0.02900
C 	C 	0.88770 0.47420 0.56860 -0.00400
H 	H 	0.85750 0.42390 0.60160 0.01700
C 	C 	0.97360 0.61620 0.47450 -0.02800
H 	H 	0.00330 0.66560 0.43940 0.02700
N 	N 	0.93400 0.52610 0.81100 -0.10000
C 	C 	0.97910 0.51800 0.72490 -0.07700
H 	H 	0.03690 0.55590 0.73580 0.04200
H 	H 	0.97130 0.46320 0.72630 0.06000
C 	C 	0.84930 0.46630 0.81500 -0.11100
H 	H 	0.82500 0.47880 0.87350 0.08100
H 	H 	0.82340 0.47110 0.75230 0.07200
C 	C 	0.83060 0.38310 0.82450 0.04600
H 	H 	0.85040 0.36780 0.76370 0.02300
H 	H 	0.77190 0.34730 0.82840 0.04000
C 	C 	0.99880 0.60480 0.57090 -0.04500
H 	H 	0.04510 0.64690 0.60230 0.04800
C 	C 	0.94360 0.60720 0.81840 0.05600
C 	C 	0.02280 0.67030 0.84310 -0.07000
H 	H 	0.06130 0.67220 0.79150 0.06100
H 	H 	0.02430 0.72240 0.84200 0.06100
O 	O 	0.86740 0.37410 0.91390 -0.21400
O 	O 	0.04630 0.65670 0.94540 -0.20200
C 	C 	0.12660 0.71170 0.96430 0.10900
H 	H 	0.16070 0.70140 0.91760 -0.02700
H 	H 	0.13680 0.76660 0.95120 0.01200
C 	C 	0.85240 0.29470 0.92780 0.05400
H 	H 	0.79520 0.25560 0.91460 0.02300
H 	H 	0.88550 0.28350 0.88030 0.03700
O 	O 	0.87040 0.50240 0.10100 -0.32800
Cu	Cu	0.76220 0.45160 0.15050 0.79000
I 	I 	0.89240 0.56890 0.12800 -0.11400
I 	I 	0.33333 0.66667 0.40693 -0.58900
Cu	Cu	0.33333 0.66667 0.74913 0.58600
I 	I 	0.33333 0.66667 0.94872 -0.77500
I 	I 	0.66667 0.33333 0.59307 -0.58600
Cu	Cu	0.66667 0.33333 0.25087 0.58800
I 	I 	0.66667 0.33333 0.05128 -0.87000
K 	K 	0.50000 0.50000 -0.00000 0.65500
K 	K 	0.50000 0.00000 -0.00000 0.65200
K 	K 	-0.00000 0.50000 -0.00000 0.65100
