data_crystal

_cell_length_a 44.39100
_cell_length_b 44.39100
_cell_length_c 23.25800
_cell_angle_alpha 90.00000
_cell_angle_beta  90.00000
_cell_angle_gamma 120.00000

_symmetry_space_group_name_	'P 1'
_symmetry_space_group_name_H-M	'P 1'

loop_
_symmetry_equiv_pos_as_xyz
  x,y,z

loop_
_atom_site_label
_atom_site_type_symbol
_atom_site_fract_x
_atom_site_fract_y
_atom_site_fract_z
_atom_site_charge
O 	O 	0.80870 0.25370 0.20100 -0.52600
C 	C 	0.82930 0.32100 0.30120 -0.04300
H 	H 	0.82620 0.30900 0.33640 0.05100
C 	C 	0.83800 0.35550 0.30090 0.01500
H 	H 	0.84040 0.36750 0.33590 -0.00700
O 	O 	0.80130 0.13470 0.19080 -0.52600
O 	O 	0.77640 0.15910 0.14280 -0.53200
C 	C 	0.78200 0.13490 0.15140 0.43600
C 	C 	0.76150 0.10200 0.11780 -0.09800
C 	C 	0.73910 0.10220 0.07940 -0.02800
H 	H 	0.73570 0.12160 0.07550 0.04200
C 	C 	0.72140 0.07320 0.04600 0.00100
H 	H 	0.70540 0.07210 0.01780 -0.00500
N 	N 	0.72680 0.04540 0.05340 -0.18800
C 	C 	0.75070 0.04790 0.09280 0.00500
H 	H 	0.75470 0.02890 0.09690 -0.00800
C 	C 	0.76950 0.07700 0.12710 -0.03100
H 	H 	0.78630 0.07900 0.15440 0.03900
O 	O 	0.74630 0.55500 0.20100 -0.52700
C 	C 	0.67900 0.50830 0.30120 -0.04400
H 	H 	0.69100 0.51720 0.33640 0.05000
C 	C 	0.64450 0.48250 0.30090 0.01300
H 	H 	0.63250 0.47290 0.33590 -0.00800
O 	O 	0.86530 0.66660 0.19080 -0.52600
O 	O 	0.84090 0.61730 0.14280 -0.53300
C 	C 	0.86510 0.64710 0.15140 0.43500
C 	C 	0.89800 0.65950 0.11780 -0.09900
C 	C 	0.89780 0.63690 0.07940 -0.02800
H 	H 	0.87840 0.61410 0.07550 0.04100
C 	C 	0.92680 0.64820 0.04600 -0.00000
H 	H 	0.92790 0.63330 0.01780 -0.00500
N 	N 	0.95460 0.68140 0.05340 -0.18800
C 	C 	0.95210 0.70280 0.09280 0.00400
H 	H 	0.97110 0.72580 0.09690 -0.00800
C 	C 	0.92300 0.69250 0.12710 -0.03000
H 	H 	0.92100 0.70730 0.15440 0.03900
O 	O 	0.44500 0.19130 0.20100 -0.52800
C 	C 	0.49170 0.17070 0.30120 -0.04400
H 	H 	0.48280 0.17380 0.33640 0.05000
C 	C 	0.51750 0.16200 0.30090 0.01300
H 	H 	0.52710 0.15960 0.33590 -0.00800
O 	O 	0.33340 0.19870 0.19080 -0.52700
O 	O 	0.38270 0.22360 0.14280 -0.53300
C 	C 	0.35290 0.21800 0.15140 0.43500
C 	C 	0.34050 0.23850 0.11780 -0.09900
C 	C 	0.36310 0.26090 0.07940 -0.02800
H 	H 	0.38590 0.26430 0.07550 0.04100
C 	C 	0.35180 0.27860 0.04600 -0.00000
H 	H 	0.36670 0.29460 0.01780 -0.00600
N 	N 	0.31860 0.27320 0.05340 -0.18900
C 	C 	0.29720 0.24930 0.09280 0.00400
H 	H 	0.27420 0.24530 0.09690 -0.00900
C 	C 	0.30750 0.23050 0.12710 -0.03100
H 	H 	0.29270 0.21370 0.15440 0.03900
O 	O 	0.19130 0.74630 0.70100 -0.52700
C 	C 	0.17070 0.67900 0.80120 -0.04400
H 	H 	0.17380 0.69100 0.83640 0.05100
C 	C 	0.16200 0.64450 0.80090 0.01400
H 	H 	0.15960 0.63250 0.83590 -0.00700
O 	O 	0.19870 0.86530 0.69080 -0.52600
O 	O 	0.22360 0.84090 0.64280 -0.53200
C 	C 	0.21800 0.86510 0.65140 0.43500
C 	C 	0.23850 0.89800 0.61780 -0.09800
C 	C 	0.26090 0.89780 0.57940 -0.02800
H 	H 	0.26430 0.87840 0.57550 0.04200
C 	C 	0.27860 0.92680 0.54600 0.00100
H 	H 	0.29460 0.92790 0.51780 -0.00200
N 	N 	0.27320 0.95460 0.55340 -0.18600
C 	C 	0.24930 0.95210 0.59280 0.00600
H 	H 	0.24530 0.97110 0.59690 -0.00600
C 	C 	0.23050 0.92300 0.62710 -0.03000
H 	H 	0.21370 0.92100 0.65440 0.04000
O 	O 	0.25370 0.44500 0.70100 -0.52700
C 	C 	0.32100 0.49170 0.80120 -0.04400
H 	H 	0.30900 0.48280 0.83640 0.05100
C 	C 	0.35550 0.51750 0.80090 0.01400
H 	H 	0.36750 0.52710 0.83590 -0.00700
O 	O 	0.13470 0.33340 0.69080 -0.52600
O 	O 	0.15910 0.38270 0.64280 -0.53200
C 	C 	0.13490 0.35290 0.65140 0.43500
C 	C 	0.10200 0.34050 0.61780 -0.09800
C 	C 	0.10220 0.36310 0.57940 -0.02800
H 	H 	0.12160 0.38590 0.57550 0.04200
C 	C 	0.07320 0.35180 0.54600 0.00100
H 	H 	0.07210 0.36670 0.51780 -0.00300
N 	N 	0.04540 0.31860 0.55340 -0.18700
C 	C 	0.04790 0.29720 0.59280 0.00500
H 	H 	0.02890 0.27420 0.59690 -0.00700
C 	C 	0.07700 0.30750 0.62710 -0.03000
H 	H 	0.07900 0.29270 0.65440 0.04000
O 	O 	0.55500 0.80870 0.70100 -0.52700
C 	C 	0.50830 0.82930 0.80120 -0.04300
H 	H 	0.51720 0.82620 0.83640 0.05100
C 	C 	0.48250 0.83800 0.80090 0.01400
H 	H 	0.47290 0.84040 0.83590 -0.00600
O 	O 	0.66660 0.80130 0.69080 -0.52600
O 	O 	0.61730 0.77640 0.64280 -0.53200
C 	C 	0.64710 0.78200 0.65140 0.43500
C 	C 	0.65950 0.76150 0.61780 -0.09800
C 	C 	0.63690 0.73910 0.57940 -0.02800
H 	H 	0.61410 0.73570 0.57550 0.04200
C 	C 	0.64820 0.72140 0.54600 0.00100
H 	H 	0.63330 0.70540 0.51780 -0.00300
N 	N 	0.68140 0.72680 0.55340 -0.18700
C 	C 	0.70280 0.75070 0.59280 0.00600
H 	H 	0.72580 0.75470 0.59690 -0.00600
C 	C 	0.69250 0.76950 0.62710 -0.03000
H 	H 	0.70730 0.78630 0.65440 0.04000
O 	O 	0.25370 0.80870 0.79900 -0.52600
C 	C 	0.32100 0.82930 0.69880 -0.04400
H 	H 	0.30900 0.82620 0.66360 0.05000
C 	C 	0.35550 0.83800 0.69910 0.01400
H 	H 	0.36750 0.84040 0.66410 -0.00800
O 	O 	0.13470 0.80130 0.80920 -0.52500
O 	O 	0.15910 0.77640 0.85720 -0.53100
C 	C 	0.13490 0.78200 0.84860 0.43500
C 	C 	0.10200 0.76150 0.88220 -0.09700
C 	C 	0.10220 0.73910 0.92060 -0.02700
H 	H 	0.12160 0.73570 0.92450 0.04400
C 	C 	0.07320 0.72140 0.95400 0.00300
H 	H 	0.07210 0.70540 0.98220 0.00100
N 	N 	0.04540 0.72680 0.94660 -0.18300
C 	C 	0.04790 0.75070 0.90720 0.00700
H 	H 	0.02890 0.75470 0.90310 -0.00300
C 	C 	0.07700 0.76950 0.87290 -0.02900
H 	H 	0.07900 0.78630 0.84560 0.04100
O 	O 	0.55500 0.74630 0.79900 -0.52600
C 	C 	0.50830 0.67900 0.69880 -0.04400
H 	H 	0.51720 0.69100 0.66360 0.05000
C 	C 	0.48250 0.64450 0.69910 0.01400
H 	H 	0.47290 0.63250 0.66410 -0.00800
O 	O 	0.66660 0.86530 0.80920 -0.52500
O 	O 	0.61730 0.84090 0.85720 -0.53000
C 	C 	0.64710 0.86510 0.84860 0.43500
C 	C 	0.65950 0.89800 0.88220 -0.09700
C 	C 	0.63690 0.89780 0.92060 -0.02700
H 	H 	0.61410 0.87840 0.92450 0.04400
C 	C 	0.64820 0.92680 0.95400 0.00300
H 	H 	0.63330 0.92790 0.98220 0.00200
N 	N 	0.68140 0.95460 0.94660 -0.18200
C 	C 	0.70280 0.95210 0.90720 0.00700
H 	H 	0.72580 0.97110 0.90310 -0.00200
C 	C 	0.69250 0.92300 0.87290 -0.02900
H 	H 	0.70730 0.92100 0.84560 0.04100
O 	O 	0.19130 0.44500 0.79900 -0.52600
C 	C 	0.17070 0.49170 0.69880 -0.04400
H 	H 	0.17380 0.48280 0.66360 0.05000
C 	C 	0.16200 0.51750 0.69910 0.01400
H 	H 	0.15960 0.52710 0.66410 -0.00900
O 	O 	0.19870 0.33340 0.80920 -0.52500
O 	O 	0.22360 0.38270 0.85720 -0.53100
C 	C 	0.21800 0.35290 0.84860 0.43500
C 	C 	0.23850 0.34050 0.88220 -0.09700
C 	C 	0.26090 0.36310 0.92060 -0.02700
H 	H 	0.26430 0.38590 0.92450 0.04400
C 	C 	0.27860 0.35180 0.95400 0.00300
H 	H 	0.29460 0.36670 0.98220 0.00200
N 	N 	0.27320 0.31860 0.94660 -0.18200
C 	C 	0.24930 0.29720 0.90720 0.00700
H 	H 	0.24530 0.27420 0.90310 -0.00300
C 	C 	0.23050 0.30750 0.87290 -0.02900
H 	H 	0.21370 0.29270 0.84560 0.04100
O 	O 	0.74630 0.19130 0.29900 -0.52700
C 	C 	0.67900 0.17070 0.19880 -0.04400
H 	H 	0.69100 0.17380 0.16360 0.04900
C 	C 	0.64450 0.16200 0.19910 0.01300
H 	H 	0.63250 0.15960 0.16410 -0.01000
O 	O 	0.86530 0.19870 0.30920 -0.52600
O 	O 	0.84090 0.22360 0.35720 -0.53100
C 	C 	0.86510 0.21800 0.34860 0.43500
C 	C 	0.89800 0.23850 0.38220 -0.09800
C 	C 	0.89780 0.26090 0.42060 -0.02700
H 	H 	0.87840 0.26430 0.42450 0.04300
C 	C 	0.92680 0.27860 0.45400 0.00100
H 	H 	0.92790 0.29460 0.48220 -0.00100
N 	N 	0.95460 0.27320 0.44660 -0.18600
C 	C 	0.95210 0.24930 0.40720 0.00600
H 	H 	0.97110 0.24530 0.40310 -0.00600
C 	C 	0.92300 0.23050 0.37290 -0.03000
H 	H 	0.92100 0.21370 0.34560 0.03900
O 	O 	0.44500 0.25370 0.29900 -0.52700
C 	C 	0.49170 0.32100 0.19880 -0.04400
H 	H 	0.48280 0.30900 0.16360 0.04900
C 	C 	0.51750 0.35550 0.19910 0.01300
H 	H 	0.52710 0.36750 0.16410 -0.01000
O 	O 	0.33340 0.13470 0.30920 -0.52600
O 	O 	0.38270 0.15910 0.35720 -0.53200
C 	C 	0.35290 0.13490 0.34860 0.43500
C 	C 	0.34050 0.10200 0.38220 -0.09800
C 	C 	0.36310 0.10220 0.42060 -0.02800
H 	H 	0.38590 0.12160 0.42450 0.04300
C 	C 	0.35180 0.07320 0.45400 0.00100
H 	H 	0.36670 0.07210 0.48220 -0.00200
N 	N 	0.31860 0.04540 0.44660 -0.18700
C 	C 	0.29720 0.04790 0.40720 0.00500
H 	H 	0.27420 0.02890 0.40310 -0.00800
C 	C 	0.30750 0.07700 0.37290 -0.03000
H 	H 	0.29270 0.07900 0.34560 0.03900
O 	O 	0.80870 0.55500 0.29900 -0.52700
C 	C 	0.82930 0.50830 0.19880 -0.04400
H 	H 	0.82620 0.51720 0.16360 0.04900
C 	C 	0.83800 0.48250 0.19910 0.01300
H 	H 	0.84040 0.47290 0.16410 -0.01000
O 	O 	0.80130 0.66660 0.30920 -0.52600
O 	O 	0.77640 0.61730 0.35720 -0.53100
C 	C 	0.78200 0.64710 0.34860 0.43500
C 	C 	0.76150 0.65950 0.38220 -0.09800
C 	C 	0.73910 0.63690 0.42060 -0.02800
H 	H 	0.73570 0.61410 0.42450 0.04300
C 	C 	0.72140 0.64820 0.45400 0.00100
H 	H 	0.70540 0.63330 0.48220 -0.00200
N 	N 	0.72680 0.68140 0.44660 -0.18700
C 	C 	0.75070 0.70280 0.40720 0.00500
H 	H 	0.75470 0.72580 0.40310 -0.00700
C 	C 	0.76950 0.69250 0.37290 -0.03000
H 	H 	0.78630 0.70730 0.34560 0.03900
O 	O 	0.19130 0.74630 0.79900 -0.52600
C 	C 	0.17070 0.67900 0.69880 -0.04400
H 	H 	0.17380 0.69100 0.66360 0.05000
C 	C 	0.16200 0.64450 0.69910 0.01400
H 	H 	0.15960 0.63250 0.66410 -0.00900
O 	O 	0.19870 0.86530 0.80920 -0.52500
O 	O 	0.22360 0.84090 0.85720 -0.53000
C 	C 	0.21800 0.86510 0.84860 0.43500
C 	C 	0.23850 0.89800 0.88220 -0.09700
C 	C 	0.26090 0.89780 0.92060 -0.02700
H 	H 	0.26430 0.87840 0.92450 0.04400
C 	C 	0.27860 0.92680 0.95400 0.00300
H 	H 	0.29460 0.92790 0.98220 0.00200
N 	N 	0.27320 0.95460 0.94660 -0.18200
C 	C 	0.24930 0.95210 0.90720 0.00700
H 	H 	0.24530 0.97110 0.90310 -0.00200
C 	C 	0.23050 0.92300 0.87290 -0.02900
H 	H 	0.21370 0.92100 0.84560 0.04100
O 	O 	0.25370 0.44500 0.79900 -0.52600
C 	C 	0.32100 0.49170 0.69880 -0.04400
H 	H 	0.30900 0.48280 0.66360 0.05000
C 	C 	0.35550 0.51750 0.69910 0.01400
H 	H 	0.36750 0.52710 0.66410 -0.00800
O 	O 	0.13470 0.33340 0.80920 -0.52500
O 	O 	0.15910 0.38270 0.85720 -0.53100
C 	C 	0.13490 0.35290 0.84860 0.43500
C 	C 	0.10200 0.34050 0.88220 -0.09700
C 	C 	0.10220 0.36310 0.92060 -0.02700
H 	H 	0.12160 0.38590 0.92450 0.04400
C 	C 	0.07320 0.35180 0.95400 0.00300
H 	H 	0.07210 0.36670 0.98220 0.00100
N 	N 	0.04540 0.31860 0.94660 -0.18300
C 	C 	0.04790 0.29720 0.90720 0.00700
H 	H 	0.02890 0.27420 0.90310 -0.00400
C 	C 	0.07700 0.30750 0.87290 -0.02900
H 	H 	0.07900 0.29270 0.84560 0.04100
O 	O 	0.55500 0.80870 0.79900 -0.52600
C 	C 	0.50830 0.82930 0.69880 -0.04400
H 	H 	0.51720 0.82620 0.66360 0.05000
C 	C 	0.48250 0.83800 0.69910 0.01400
H 	H 	0.47290 0.84040 0.66410 -0.00800
O 	O 	0.66660 0.80130 0.80920 -0.52500
O 	O 	0.61730 0.77640 0.85720 -0.53000
C 	C 	0.64710 0.78200 0.84860 0.43500
C 	C 	0.65950 0.76150 0.88220 -0.09700
C 	C 	0.63690 0.73910 0.92060 -0.02700
H 	H 	0.61410 0.73570 0.92450 0.04400
C 	C 	0.64820 0.72140 0.95400 0.00300
H 	H 	0.63330 0.70540 0.98220 0.00200
N 	N 	0.68140 0.72680 0.94660 -0.18200
C 	C 	0.70280 0.75070 0.90720 0.00700
H 	H 	0.72580 0.75470 0.90310 -0.00300
C 	C 	0.69250 0.76950 0.87290 -0.02900
H 	H 	0.70730 0.78630 0.84560 0.04100
O 	O 	0.80870 0.25370 0.29900 -0.52700
C 	C 	0.82930 0.32100 0.19880 -0.04400
H 	H 	0.82620 0.30900 0.16360 0.04900
C 	C 	0.83800 0.35550 0.19910 0.01300
H 	H 	0.84040 0.36750 0.16410 -0.01000
O 	O 	0.80130 0.13470 0.30920 -0.52600
O 	O 	0.77640 0.15910 0.35720 -0.53100
C 	C 	0.78200 0.13490 0.34860 0.43500
C 	C 	0.76150 0.10200 0.38220 -0.09800
C 	C 	0.73910 0.10220 0.42060 -0.02800
H 	H 	0.73570 0.12160 0.42450 0.04300
C 	C 	0.72140 0.07320 0.45400 0.00100
H 	H 	0.70540 0.07210 0.48220 -0.00200
N 	N 	0.72680 0.04540 0.44660 -0.18700
C 	C 	0.75070 0.04790 0.40720 0.00500
H 	H 	0.75470 0.02890 0.40310 -0.00800
C 	C 	0.76950 0.07700 0.37290 -0.03000
H 	H 	0.78630 0.07900 0.34560 0.03900
O 	O 	0.74630 0.55500 0.29900 -0.52700
C 	C 	0.67900 0.50830 0.19880 -0.04400
H 	H 	0.69100 0.51720 0.16360 0.04900
C 	C 	0.64450 0.48250 0.19910 0.01300
H 	H 	0.63250 0.47290 0.16410 -0.01000
O 	O 	0.86530 0.66660 0.30920 -0.52600
O 	O 	0.84090 0.61730 0.35720 -0.53100
C 	C 	0.86510 0.64710 0.34860 0.43500
C 	C 	0.89800 0.65950 0.38220 -0.09800
C 	C 	0.89780 0.63690 0.42060 -0.02700
H 	H 	0.87840 0.61410 0.42450 0.04300
C 	C 	0.92680 0.64820 0.45400 0.00200
H 	H 	0.92790 0.63330 0.48220 -0.00100
N 	N 	0.95460 0.68140 0.44660 -0.18600
C 	C 	0.95210 0.70280 0.40720 0.00600
H 	H 	0.97110 0.72580 0.40310 -0.00600
C 	C 	0.92300 0.69250 0.37290 -0.03000
H 	H 	0.92100 0.70730 0.34560 0.04000
O 	O 	0.44500 0.19130 0.29900 -0.52700
C 	C 	0.49170 0.17070 0.19880 -0.04400
H 	H 	0.48280 0.17380 0.16360 0.04900
C 	C 	0.51750 0.16200 0.19910 0.01300
H 	H 	0.52710 0.15960 0.16410 -0.01000
O 	O 	0.33340 0.19870 0.30920 -0.52600
O 	O 	0.38270 0.22360 0.35720 -0.53100
C 	C 	0.35290 0.21800 0.34860 0.43500
C 	C 	0.34050 0.23850 0.38220 -0.09800
C 	C 	0.36310 0.26090 0.42060 -0.02800
H 	H 	0.38590 0.26430 0.42450 0.04300
C 	C 	0.35180 0.27860 0.45400 0.00100
H 	H 	0.36670 0.29460 0.48220 -0.00200
N 	N 	0.31860 0.27320 0.44660 -0.18700
C 	C 	0.29720 0.24930 0.40720 0.00500
H 	H 	0.27420 0.24530 0.40310 -0.00700
C 	C 	0.30750 0.23050 0.37290 -0.03000
H 	H 	0.29270 0.21370 0.34560 0.03900
O 	O 	0.74630 0.19130 0.20100 -0.52800
C 	C 	0.67900 0.17070 0.30120 -0.04400
H 	H 	0.69100 0.17380 0.33640 0.05000
C 	C 	0.64450 0.16200 0.30090 0.01300
H 	H 	0.63250 0.15960 0.33590 -0.00800
O 	O 	0.86530 0.19870 0.19080 -0.52700
O 	O 	0.84090 0.22360 0.14280 -0.53300
C 	C 	0.86510 0.21800 0.15140 0.43500
C 	C 	0.89800 0.23850 0.11780 -0.09900
C 	C 	0.89780 0.26090 0.07940 -0.02800
H 	H 	0.87840 0.26430 0.07550 0.04100
C 	C 	0.92680 0.27860 0.04600 -0.00000
H 	H 	0.92790 0.29460 0.01780 -0.00500
N 	N 	0.95460 0.27320 0.05340 -0.18800
C 	C 	0.95210 0.24930 0.09280 0.00400
H 	H 	0.97110 0.24530 0.09690 -0.00800
C 	C 	0.92300 0.23050 0.12710 -0.03000
H 	H 	0.92100 0.21370 0.15440 0.03900
O 	O 	0.44500 0.25370 0.20100 -0.52700
C 	C 	0.49170 0.32100 0.30120 -0.04400
H 	H 	0.48280 0.30900 0.33640 0.05000
C 	C 	0.51750 0.35550 0.30090 0.01300
H 	H 	0.52710 0.36750 0.33590 -0.00800
O 	O 	0.33340 0.13470 0.19080 -0.52700
O 	O 	0.38270 0.15910 0.14280 -0.53300
C 	C 	0.35290 0.13490 0.15140 0.43500
C 	C 	0.34050 0.10200 0.11780 -0.09900
C 	C 	0.36310 0.10220 0.07940 -0.02900
H 	H 	0.38590 0.12160 0.07550 0.04100
C 	C 	0.35180 0.07320 0.04600 -0.00100
H 	H 	0.36670 0.07210 0.01780 -0.00600
N 	N 	0.31860 0.04540 0.05340 -0.18900
C 	C 	0.29720 0.04790 0.09280 0.00400
H 	H 	0.27420 0.02890 0.09690 -0.01000
C 	C 	0.30750 0.07700 0.12710 -0.03100
H 	H 	0.29270 0.07900 0.15440 0.03800
O 	O 	0.80870 0.55500 0.20100 -0.52700
C 	C 	0.82930 0.50830 0.30120 -0.04400
H 	H 	0.82620 0.51720 0.33640 0.05000
C 	C 	0.83800 0.48250 0.30090 0.01400
H 	H 	0.84040 0.47290 0.33590 -0.00800
O 	O 	0.80130 0.66660 0.19080 -0.52700
O 	O 	0.77640 0.61730 0.14280 -0.53300
C 	C 	0.78200 0.64710 0.15140 0.43500
C 	C 	0.76150 0.65950 0.11780 -0.09900
C 	C 	0.73910 0.63690 0.07940 -0.02800
H 	H 	0.73570 0.61410 0.07550 0.04100
C 	C 	0.72140 0.64820 0.04600 -0.00000
H 	H 	0.70540 0.63330 0.01780 -0.00600
N 	N 	0.72680 0.68140 0.05340 -0.18900
C 	C 	0.75070 0.70280 0.09280 0.00400
H 	H 	0.75470 0.72580 0.09690 -0.00900
C 	C 	0.76950 0.69250 0.12710 -0.03100
H 	H 	0.78630 0.70730 0.15440 0.03900
O 	O 	0.25370 0.80870 0.70100 -0.52700
C 	C 	0.32100 0.82930 0.80120 -0.04300
H 	H 	0.30900 0.82620 0.83640 0.05100
C 	C 	0.35550 0.83800 0.80090 0.01400
H 	H 	0.36750 0.84040 0.83590 -0.00600
O 	O 	0.13470 0.80130 0.69080 -0.52600
O 	O 	0.15910 0.77640 0.64280 -0.53200
C 	C 	0.13490 0.78200 0.65140 0.43500
C 	C 	0.10200 0.76150 0.61780 -0.09800
C 	C 	0.10220 0.73910 0.57940 -0.02800
H 	H 	0.12160 0.73570 0.57550 0.04200
C 	C 	0.07320 0.72140 0.54600 0.00100
H 	H 	0.07210 0.70540 0.51780 -0.00300
N 	N 	0.04540 0.72680 0.55340 -0.18700
C 	C 	0.04790 0.75070 0.59280 0.00600
H 	H 	0.02890 0.75470 0.59690 -0.00700
C 	C 	0.07700 0.76950 0.62710 -0.03000
H 	H 	0.07900 0.78630 0.65440 0.04000
O 	O 	0.55500 0.74630 0.70100 -0.52700
C 	C 	0.50830 0.67900 0.80120 -0.04400
H 	H 	0.51720 0.69100 0.83640 0.05100
C 	C 	0.48250 0.64450 0.80090 0.01400
H 	H 	0.47290 0.63250 0.83590 -0.00700
O 	O 	0.66660 0.86530 0.69080 -0.52500
O 	O 	0.61730 0.84090 0.64280 -0.53200
C 	C 	0.64710 0.86510 0.65140 0.43500
C 	C 	0.65950 0.89800 0.61780 -0.09800
C 	C 	0.63690 0.89780 0.57940 -0.02800
H 	H 	0.61410 0.87840 0.57550 0.04200
C 	C 	0.64820 0.92680 0.54600 0.00200
H 	H 	0.63330 0.92790 0.51780 -0.00200
N 	N 	0.68140 0.95460 0.55340 -0.18600
C 	C 	0.70280 0.95210 0.59280 0.00600
H 	H 	0.72580 0.97110 0.59690 -0.00500
C 	C 	0.69250 0.92300 0.62710 -0.03000
H 	H 	0.70730 0.92100 0.65440 0.04100
O 	O 	0.19130 0.44500 0.70100 -0.52700
C 	C 	0.17070 0.49170 0.80120 -0.04400
H 	H 	0.17380 0.48280 0.83640 0.05100
C 	C 	0.16200 0.51750 0.80090 0.01400
H 	H 	0.15960 0.52710 0.83590 -0.00700
O 	O 	0.19870 0.33340 0.69080 -0.52600
O 	O 	0.22360 0.38270 0.64280 -0.53200
C 	C 	0.21800 0.35290 0.65140 0.43500
C 	C 	0.23850 0.34050 0.61780 -0.09800
C 	C 	0.26090 0.36310 0.57940 -0.02800
H 	H 	0.26430 0.38590 0.57550 0.04200
C 	C 	0.27860 0.35180 0.54600 0.00100
H 	H 	0.29460 0.36670 0.51780 -0.00300
N 	N 	0.27320 0.31860 0.55340 -0.18700
C 	C 	0.24930 0.29720 0.59280 0.00600
H 	H 	0.24530 0.27420 0.59690 -0.00600
C 	C 	0.23050 0.30750 0.62710 -0.03000
H 	H 	0.21370 0.29270 0.65440 0.04000
Ag	Ag	0.85253 0.42626 0.25000 0.48600
Ag	Ag	0.57374 0.42626 0.25000 0.48600
Ag	Ag	0.57374 0.14747 0.25000 0.48500
Ag	Ag	0.14747 0.57374 0.75000 0.48700
Ag	Ag	0.42626 0.57373 0.75000 0.48700
Ag	Ag	0.42626 0.85253 0.75000 0.48800
Ag	Ag	0.70264 0.00000 -0.00000 0.48300
Ag	Ag	-0.00000 0.70264 -0.00000 0.48300
Ag	Ag	0.29736 0.29736 -0.00000 0.48400
Ag	Ag	0.29736 0.00000 0.50000 0.49200
Ag	Ag	-0.00000 0.29736 0.50000 0.49200
Ag	Ag	0.70264 0.70264 0.50000 0.49400
Ag	Ag	0.29736 0.00000 -0.00000 0.48300
Ag	Ag	-0.00000 0.29736 -0.00000 0.48300
Ag	Ag	0.70264 0.70264 -0.00000 0.48500
Ag	Ag	0.70264 0.00000 0.50000 0.49200
Ag	Ag	-0.00000 0.70264 0.50000 0.49200
Ag	Ag	0.29736 0.29736 0.50000 0.49300
Cr	Cr	0.83156 0.16844 0.25000 1.55500
O 	O 	0.80790 0.19210 0.25000 -0.84600
Cr	Cr	0.83156 0.66312 0.25000 1.55500
O 	O 	0.80790 0.61580 0.25000 -0.84600
Cr	Cr	0.33688 0.16844 0.25000 1.55500
O 	O 	0.38420 0.19210 0.25000 -0.84600
Cr	Cr	0.16844 0.83156 0.75000 1.55500
O 	O 	0.19210 0.80790 0.75000 -0.84600
Cr	Cr	0.16844 0.33688 0.75000 1.55500
O 	O 	0.19210 0.38420 0.75000 -0.84600
Cr	Cr	0.66312 0.83156 0.75000 1.55600
O 	O 	0.61580 0.80790 0.75000 -0.84600
Cr	Cr	0.79487 0.20513 0.17980 1.54600
Cr	Cr	0.79487 0.58974 0.17980 1.54600
Cr	Cr	0.41026 0.20513 0.17980 1.54600
Cr	Cr	0.20513 0.79487 0.67980 1.54600
Cr	Cr	0.20513 0.41026 0.67980 1.54600
Cr	Cr	0.58974 0.79487 0.67980 1.54600
Cr	Cr	0.20513 0.79487 0.82020 1.54600
Cr	Cr	0.58974 0.79487 0.82020 1.54600
Cr	Cr	0.20513 0.41026 0.82020 1.54600
Cr	Cr	0.79487 0.20513 0.32020 1.54600
Cr	Cr	0.41026 0.20513 0.32020 1.54600
Cr	Cr	0.79487 0.58974 0.32020 1.54600
C 	C 	0.81340 0.26600 0.25000 0.41900
C 	C 	0.82540 0.30450 0.25000 -0.06900
N 	N 	0.84300 0.37180 0.25000 -0.18500
C 	C 	0.73400 0.54740 0.25000 0.41900
C 	C 	0.69550 0.52090 0.25000 -0.06900
N 	N 	0.62820 0.47120 0.25000 -0.18500
C 	C 	0.45260 0.18660 0.25000 0.41900
C 	C 	0.47910 0.17460 0.25000 -0.07000
N 	N 	0.52880 0.15700 0.25000 -0.18500
C 	C 	0.18660 0.73400 0.75000 0.41800
C 	C 	0.17460 0.69550 0.75000 -0.06900
N 	N 	0.15700 0.62820 0.75000 -0.18500
C 	C 	0.26600 0.45260 0.75000 0.41800
C 	C 	0.30450 0.47910 0.75000 -0.06900
N 	N 	0.37180 0.52880 0.75000 -0.18400
C 	C 	0.54740 0.81340 0.75000 0.41800
C 	C 	0.52090 0.82540 0.75000 -0.06900
N 	N 	0.47120 0.84300 0.75000 -0.18400
C 	C 	0.26600 0.81340 0.75000 0.41800
C 	C 	0.30450 0.82540 0.75000 -0.06900
N 	N 	0.37180 0.84300 0.75000 -0.18400
C 	C 	0.54740 0.73400 0.75000 0.41800
C 	C 	0.52090 0.69550 0.75000 -0.06900
N 	N 	0.47120 0.62820 0.75000 -0.18400
C 	C 	0.18660 0.45260 0.75000 0.41800
C 	C 	0.17460 0.47910 0.75000 -0.06900
N 	N 	0.15700 0.52880 0.75000 -0.18500
C 	C 	0.73400 0.18660 0.25000 0.41900
C 	C 	0.69550 0.17460 0.25000 -0.07000
N 	N 	0.62820 0.15700 0.25000 -0.18500
C 	C 	0.45260 0.26600 0.25000 0.41900
C 	C 	0.47910 0.30450 0.25000 -0.06900
N 	N 	0.52880 0.37180 0.25000 -0.18500
C 	C 	0.81340 0.54740 0.25000 0.41900
C 	C 	0.82540 0.52090 0.25000 -0.06900
N 	N 	0.84300 0.47120 0.25000 -0.18500
