data_crystal

_cell_length_a 22.85800
_cell_length_b 22.85800
_cell_length_c 14.04200
_cell_angle_alpha 90.00000
_cell_angle_beta  90.00000
_cell_angle_gamma 120.00000

_symmetry_space_group_name_	'P 1'
_symmetry_space_group_name_H-M	'P 1'

loop_
_symmetry_equiv_pos_as_xyz
  x,y,z

loop_
_atom_site_label
_atom_site_type_symbol
_atom_site_fract_x
_atom_site_fract_y
_atom_site_fract_z
_atom_site_charge
O 	O 	0.22310 0.66040 0.39940 -0.53400
C 	C 	0.15830 0.53060 0.22130 -0.03200
H 	H 	0.18480 0.51010 0.23450 0.03100
C 	C 	0.11540 0.51000 0.14340 0.00700
H 	H 	0.11190 0.47500 0.10320 -0.04100
C 	C 	0.08080 0.49340 0.18180 0.01500
H 	H 	0.05190 0.44660 0.16910 -0.03400
C 	C 	0.12410 0.51320 0.25860 -0.01800
H 	H 	0.12760 0.48060 0.29630 0.02700
O 	O 	0.33960 0.56270 0.39940 -0.53400
C 	C 	0.46940 0.62770 0.22130 -0.03600
H 	H 	0.48990 0.67470 0.23450 0.03600
C 	C 	0.49000 0.60540 0.14340 0.00100
H 	H 	0.52500 0.63690 0.10320 -0.03500
C 	C 	0.50660 0.58740 0.18180 0.01900
H 	H 	0.55340 0.60530 0.16910 -0.02600
C 	C 	0.48680 0.61090 0.25860 -0.01200
H 	H 	0.51940 0.64700 0.29630 0.03000
O 	O 	0.43730 0.77690 0.39940 -0.53200
C 	C 	0.37230 0.84170 0.22130 -0.04200
H 	H 	0.32530 0.81520 0.23450 0.03500
C 	C 	0.39460 0.88460 0.14340 -0.00400
H 	H 	0.36310 0.88810 0.10320 -0.03200
C 	C 	0.41260 0.91920 0.18180 0.02400
H 	H 	0.39470 0.94810 0.16910 -0.02000
C 	C 	0.38910 0.87590 0.25860 -0.00600
H 	H 	0.35300 0.87240 0.29630 0.02900
O 	O 	0.77690 0.33960 0.39940 -0.53300
C 	C 	0.84170 0.46940 0.22130 -0.04200
H 	H 	0.81520 0.48990 0.23450 0.03600
C 	C 	0.88460 0.49000 0.14340 -0.00400
H 	H 	0.88810 0.52500 0.10320 -0.03100
C 	C 	0.91920 0.50660 0.18180 0.02400
H 	H 	0.94810 0.55340 0.16910 -0.01800
C 	C 	0.87590 0.48680 0.25860 -0.00600
H 	H 	0.87240 0.51940 0.29630 0.03100
O 	O 	0.66040 0.43730 0.39940 -0.53300
C 	C 	0.53060 0.37230 0.22130 -0.03700
H 	H 	0.51010 0.32530 0.23450 0.03200
C 	C 	0.51000 0.39460 0.14340 0.00100
H 	H 	0.47500 0.36310 0.10320 -0.03800
C 	C 	0.49340 0.41260 0.18180 0.01900
H 	H 	0.44660 0.39470 0.16910 -0.02900
C 	C 	0.51320 0.38910 0.25860 -0.01200
H 	H 	0.48060 0.35300 0.29630 0.02600
O 	O 	0.56270 0.22310 0.39940 -0.53600
C 	C 	0.62770 0.15830 0.22130 -0.03300
H 	H 	0.67470 0.18480 0.23450 0.03200
C 	C 	0.60540 0.11540 0.14340 0.00600
H 	H 	0.63690 0.11190 0.10320 -0.04000
C 	C 	0.58740 0.08080 0.18180 0.01400
H 	H 	0.60530 0.05190 0.16910 -0.03400
C 	C 	0.61090 0.12410 0.25860 -0.01900
H 	H 	0.64700 0.12760 0.29630 0.02700
O 	O 	0.66040 0.22310 0.60060 -0.53300
C 	C 	0.53060 0.15830 0.77870 0.00100
H 	H 	0.51010 0.18480 0.76550 0.03500
C 	C 	0.51000 0.11540 0.85660 0.02600
H 	H 	0.47500 0.11190 0.89680 0.00100
C 	C 	0.49340 0.08080 0.81820 -0.00800
H 	H 	0.44660 0.05190 0.83090 -0.00900
C 	C 	0.51320 0.12410 0.74140 -0.04000
H 	H 	0.48060 0.12760 0.70370 0.03700
O 	O 	0.56270 0.33960 0.60060 -0.53300
C 	C 	0.62770 0.46940 0.77870 -0.00400
H 	H 	0.67470 0.48990 0.76550 0.03900
C 	C 	0.60540 0.49000 0.85660 0.02100
H 	H 	0.63690 0.52500 0.89680 0.00700
C 	C 	0.58740 0.50660 0.81820 -0.00300
H 	H 	0.60530 0.55340 0.83090 0.00100
C 	C 	0.61090 0.48680 0.74140 -0.03400
H 	H 	0.64700 0.51940 0.70370 0.04200
O 	O 	0.77690 0.43730 0.60060 -0.53000
C 	C 	0.84170 0.37230 0.77870 -0.00800
H 	H 	0.81520 0.32530 0.76550 0.03900
C 	C 	0.88460 0.39460 0.85660 0.01600
H 	H 	0.88810 0.36310 0.89680 0.00900
C 	C 	0.91920 0.41260 0.81820 0.00200
H 	H 	0.94810 0.39470 0.83090 0.00600
C 	C 	0.87590 0.38910 0.74140 -0.02800
H 	H 	0.87240 0.35300 0.70370 0.04000
O 	O 	0.33960 0.77690 0.60060 -0.53100
C 	C 	0.46940 0.84170 0.77870 -0.00900
H 	H 	0.48990 0.81520 0.76550 0.04000
C 	C 	0.49000 0.88460 0.85660 0.01600
H 	H 	0.52500 0.88810 0.89680 0.01100
C 	C 	0.50660 0.91920 0.81820 0.00200
H 	H 	0.55340 0.94810 0.83090 0.00700
C 	C 	0.48680 0.87590 0.74140 -0.02800
H 	H 	0.51940 0.87240 0.70370 0.04200
O 	O 	0.43730 0.66040 0.60060 -0.53100
C 	C 	0.37230 0.53060 0.77870 -0.00400
H 	H 	0.32530 0.51010 0.76550 0.03600
C 	C 	0.39460 0.51000 0.85660 0.02100
H 	H 	0.36310 0.47500 0.89680 0.00400
C 	C 	0.41260 0.49340 0.81820 -0.00200
H 	H 	0.39470 0.44660 0.83090 -0.00200
C 	C 	0.38910 0.51320 0.74140 -0.03400
H 	H 	0.35300 0.48060 0.70370 0.03800
O 	O 	0.22310 0.56270 0.60060 -0.53400
C 	C 	0.15830 0.62770 0.77870 0.00000
H 	H 	0.18480 0.67470 0.76550 0.03600
C 	C 	0.11540 0.60540 0.85660 0.02600
H 	H 	0.11190 0.63690 0.89680 0.00200
C 	C 	0.08080 0.58740 0.81820 -0.00800
H 	H 	0.05190 0.60530 0.83090 -0.00700
C 	C 	0.12410 0.61090 0.74140 -0.04100
H 	H 	0.12760 0.64700 0.70370 0.03900
O 	O 	0.77690 0.33960 0.60060 -0.53100
C 	C 	0.84170 0.46940 0.77870 -0.00900
H 	H 	0.81520 0.48990 0.76550 0.04000
C 	C 	0.88460 0.49000 0.85660 0.01600
H 	H 	0.88810 0.52500 0.89680 0.01100
C 	C 	0.91920 0.50660 0.81820 0.00200
H 	H 	0.94810 0.55340 0.83090 0.00700
C 	C 	0.87590 0.48680 0.74140 -0.02800
H 	H 	0.87240 0.51940 0.70370 0.04200
O 	O 	0.66040 0.43730 0.60060 -0.53100
C 	C 	0.53060 0.37230 0.77870 -0.00400
H 	H 	0.51010 0.32530 0.76550 0.03600
C 	C 	0.51000 0.39460 0.85660 0.02100
H 	H 	0.47500 0.36310 0.89680 0.00400
C 	C 	0.49340 0.41260 0.81820 -0.00200
H 	H 	0.44660 0.39470 0.83090 -0.00200
C 	C 	0.51320 0.38910 0.74140 -0.03400
H 	H 	0.48060 0.35300 0.70370 0.03800
O 	O 	0.56270 0.22310 0.60060 -0.53400
C 	C 	0.62770 0.15830 0.77870 0.00000
H 	H 	0.67470 0.18480 0.76550 0.03600
C 	C 	0.60540 0.11540 0.85660 0.02600
H 	H 	0.63690 0.11190 0.89680 0.00200
C 	C 	0.58740 0.08080 0.81820 -0.00800
H 	H 	0.60530 0.05190 0.83090 -0.00700
C 	C 	0.61090 0.12410 0.74140 -0.04100
H 	H 	0.64700 0.12760 0.70370 0.03900
O 	O 	0.22310 0.66040 0.60060 -0.53300
C 	C 	0.15830 0.53060 0.77870 0.00100
H 	H 	0.18480 0.51010 0.76550 0.03500
C 	C 	0.11540 0.51000 0.85660 0.02600
H 	H 	0.11190 0.47500 0.89680 0.00100
C 	C 	0.08080 0.49340 0.81820 -0.00800
H 	H 	0.05190 0.44660 0.83090 -0.00900
C 	C 	0.12410 0.51320 0.74140 -0.04000
H 	H 	0.12760 0.48060 0.70370 0.03700
O 	O 	0.33960 0.56270 0.60060 -0.53300
C 	C 	0.46940 0.62770 0.77870 -0.00400
H 	H 	0.48990 0.67470 0.76550 0.03900
C 	C 	0.49000 0.60540 0.85660 0.02100
H 	H 	0.52500 0.63690 0.89680 0.00700
C 	C 	0.50660 0.58740 0.81820 -0.00300
H 	H 	0.55340 0.60530 0.83090 0.00100
C 	C 	0.48680 0.61090 0.74140 -0.03400
H 	H 	0.51940 0.64700 0.70370 0.04200
O 	O 	0.43730 0.77690 0.60060 -0.53000
C 	C 	0.37230 0.84170 0.77870 -0.00800
H 	H 	0.32530 0.81520 0.76550 0.03900
C 	C 	0.39460 0.88460 0.85660 0.01600
H 	H 	0.36310 0.88810 0.89680 0.00900
C 	C 	0.41260 0.91920 0.81820 0.00200
H 	H 	0.39470 0.94810 0.83090 0.00600
C 	C 	0.38910 0.87590 0.74140 -0.02800
H 	H 	0.35300 0.87240 0.70370 0.04000
O 	O 	0.33960 0.77690 0.39940 -0.53300
C 	C 	0.46940 0.84170 0.22130 -0.04200
H 	H 	0.48990 0.81520 0.23450 0.03600
C 	C 	0.49000 0.88460 0.14340 -0.00400
H 	H 	0.52500 0.88810 0.10320 -0.03100
C 	C 	0.50660 0.91920 0.18180 0.02400
H 	H 	0.55340 0.94810 0.16910 -0.01800
C 	C 	0.48680 0.87590 0.25860 -0.00600
H 	H 	0.51940 0.87240 0.29630 0.03100
O 	O 	0.43730 0.66040 0.39940 -0.53300
C 	C 	0.37230 0.53060 0.22130 -0.03700
H 	H 	0.32530 0.51010 0.23450 0.03200
C 	C 	0.39460 0.51000 0.14340 0.00100
H 	H 	0.36310 0.47500 0.10320 -0.03800
C 	C 	0.41260 0.49340 0.18180 0.01900
H 	H 	0.39470 0.44660 0.16910 -0.02900
C 	C 	0.38910 0.51320 0.25860 -0.01200
H 	H 	0.35300 0.48060 0.29630 0.02600
O 	O 	0.22310 0.56270 0.39940 -0.53600
C 	C 	0.15830 0.62770 0.22130 -0.03300
H 	H 	0.18480 0.67470 0.23450 0.03200
C 	C 	0.11540 0.60540 0.14340 0.00600
H 	H 	0.11190 0.63690 0.10320 -0.04000
C 	C 	0.08080 0.58740 0.18180 0.01400
H 	H 	0.05190 0.60530 0.16910 -0.03400
C 	C 	0.12410 0.61090 0.25860 -0.01900
H 	H 	0.12760 0.64700 0.29630 0.02700
O 	O 	0.66040 0.22310 0.39940 -0.53500
C 	C 	0.53060 0.15830 0.22130 -0.03300
H 	H 	0.51010 0.18480 0.23450 0.03000
C 	C 	0.51000 0.11540 0.14340 0.00600
H 	H 	0.47500 0.11190 0.10320 -0.04200
C 	C 	0.49340 0.08080 0.18180 0.01400
H 	H 	0.44660 0.05190 0.16910 -0.03500
C 	C 	0.51320 0.12410 0.25860 -0.01900
H 	H 	0.48060 0.12760 0.29630 0.02600
O 	O 	0.56270 0.33960 0.39940 -0.53500
C 	C 	0.62770 0.46940 0.22130 -0.03700
H 	H 	0.67470 0.48990 0.23450 0.03500
C 	C 	0.60540 0.49000 0.14340 0.00100
H 	H 	0.63690 0.52500 0.10320 -0.03500
C 	C 	0.58740 0.50660 0.18180 0.01900
H 	H 	0.60530 0.55340 0.16910 -0.02600
C 	C 	0.61090 0.48680 0.25860 -0.01200
H 	H 	0.64700 0.51940 0.29630 0.03000
O 	O 	0.77690 0.43730 0.39940 -0.53200
C 	C 	0.84170 0.37230 0.22130 -0.04200
H 	H 	0.81520 0.32530 0.23450 0.03500
C 	C 	0.88460 0.39460 0.14340 -0.00400
H 	H 	0.88810 0.36310 0.10320 -0.03200
C 	C 	0.91920 0.41260 0.18180 0.02400
H 	H 	0.94810 0.39470 0.16910 -0.02000
C 	C 	0.87590 0.38910 0.25860 -0.00600
H 	H 	0.87240 0.35300 0.29630 0.02900
Cd	Cd	-0.00000 0.50000 -0.00000 1.11400
Cd	Cd	0.50000 0.50000 -0.00000 1.12400
Cd	Cd	0.50000 0.00000 -0.00000 1.11400
Cr	Cr	0.28521 0.71479 0.50000 1.55800
Cr	Cr	0.28521 0.57042 0.50000 1.55700
Cr	Cr	0.42958 0.71479 0.50000 1.55800
Cr	Cr	0.71479 0.28521 0.50000 1.55800
Cr	Cr	0.71479 0.42958 0.50000 1.55800
Cr	Cr	0.57042 0.28521 0.50000 1.55700
O 	O 	0.33333 0.66667 0.50000 -0.80900
O 	O 	0.66667 0.33333 0.50000 -0.80900
C 	C 	0.20520 0.60260 0.36880 0.42500
C 	C 	0.16230 0.58115 0.27990 -0.08800
N 	N 	0.07910 0.53955 0.12520 -0.25200
C 	C 	0.39740 0.60260 0.36880 0.42600
C 	C 	0.41885 0.58115 0.27990 -0.08700
N 	N 	0.46045 0.53955 0.12520 -0.24800
C 	C 	0.39740 0.79480 0.36880 0.42700
C 	C 	0.41885 0.83770 0.27990 -0.08600
N 	N 	0.46045 0.92090 0.12520 -0.24100
C 	C 	0.79480 0.39740 0.36880 0.42700
C 	C 	0.83770 0.41885 0.27990 -0.08600
N 	N 	0.92090 0.46045 0.12520 -0.24100
C 	C 	0.60260 0.39740 0.36880 0.42600
C 	C 	0.58115 0.41885 0.27990 -0.08700
N 	N 	0.53955 0.46045 0.12520 -0.24800
C 	C 	0.60260 0.20520 0.36880 0.42500
C 	C 	0.58115 0.16230 0.27990 -0.08800
N 	N 	0.53955 0.07910 0.12520 -0.25200
C 	C 	0.60260 0.20520 0.63120 0.42800
C 	C 	0.58115 0.16230 0.72010 -0.08600
N 	N 	0.53955 0.07910 0.87480 -0.21800
C 	C 	0.60260 0.39740 0.63120 0.42900
C 	C 	0.58115 0.41885 0.72010 -0.08600
N 	N 	0.53955 0.46045 0.87480 -0.21400
C 	C 	0.79480 0.39740 0.63120 0.43000
C 	C 	0.83770 0.41885 0.72010 -0.08500
N 	N 	0.92090 0.46045 0.87480 -0.20800
C 	C 	0.39740 0.79480 0.63120 0.43000
C 	C 	0.41885 0.83770 0.72010 -0.08500
N 	N 	0.46045 0.92090 0.87480 -0.20800
C 	C 	0.39740 0.60260 0.63120 0.42900
C 	C 	0.41885 0.58115 0.72010 -0.08600
N 	N 	0.46045 0.53955 0.87480 -0.21400
C 	C 	0.20520 0.60260 0.63120 0.42800
C 	C 	0.16230 0.58115 0.72010 -0.08600
N 	N 	0.07910 0.53955 0.87480 -0.21800
