data_crystal

_cell_length_a 13.33820
_cell_length_b 21.49860
_cell_length_c 10.15270
_cell_angle_alpha 90.00000
_cell_angle_beta  95.00000
_cell_angle_gamma 90.00000

_symmetry_space_group_name_	'P 1'
_symmetry_space_group_name_H-M	'P 1'

loop_
_symmetry_equiv_pos_as_xyz
  x,y,z

loop_
_atom_site_label
_atom_site_type_symbol
_atom_site_fract_x
_atom_site_fract_y
_atom_site_fract_z
_atom_site_charge
C 	C 	0.10330 0.71980 0.75460 -0.02300
C 	C 	0.25990 0.80310 0.75410 -0.07700
C 	C 	0.13670 0.73650 0.63570 -0.08900
H 	H 	0.10820 0.71980 0.55660 0.06500
C 	C 	0.21560 0.77980 0.63820 -0.08800
H 	H 	0.23830 0.79290 0.55880 0.06100
C 	C 	0.22150 0.78590 0.87490 0.08500
H 	H 	0.24920 0.80290 0.95410 0.00300
C 	C 	0.14240 0.74360 0.87520 0.06200
H 	H 	0.11670 0.73170 0.95370 0.02200
C 	C 	0.34660 0.84750 0.75220 0.36900
C 	C 	0.36280 0.01730 0.80440 0.40800
C 	C 	0.27260 0.05930 0.79270 -0.13600
C 	C 	0.23840 0.08200 0.66810 0.04400
H 	H 	0.27160 0.07180 0.59420 0.03000
C 	C 	0.15400 0.12010 0.65590 -0.09700
H 	H 	0.13040 0.13580 0.57370 0.07000
C 	C 	0.10510 0.13460 0.76780 0.02000
C 	C 	0.13820 0.11170 0.89160 -0.10000
H 	H 	0.10450 0.12150 0.96520 0.06900
C 	C 	0.22270 0.07370 0.90330 0.03800
H 	H 	0.24600 0.05780 0.98560 0.02100
Cd	Cd	0.51548 0.92697 0.91945 1.24300
O 	O 	0.38510 0.99060 0.70350 -0.44500
O 	O 	0.41000 0.00950 0.91910 -0.51900
O 	O 	0.37890 0.87100 0.86070 -0.42300
O 	O 	0.38020 0.85680 0.64060 -0.43200
O 	O 	0.00460 0.63380 0.87250 -0.33100
O 	O 	0.00450 0.21830 0.62800 -0.22800
C 	C 	0.17130 0.71450 0.66000 0.02900
H 	H 	0.16380 0.68340 0.59610 0.02100
C 	C 	0.25140 0.75630 0.66200 0.07300
H 	H 	0.29890 0.75250 0.60020 0.01500
C 	C 	0.19500 0.80920 0.84600 -0.09100
H 	H 	0.20460 0.84050 0.90940 0.05700
C 	C 	0.11300 0.76910 0.84800 -0.13800
H 	H 	0.06520 0.77450 0.90910 0.07400
C 	C 	0.89670 0.71980 0.74540 0.01400
C 	C 	0.74010 0.80310 0.74590 -0.09100
C 	C 	0.86330 0.73650 0.86430 0.01600
H 	H 	0.89180 0.71980 0.94340 0.04500
C 	C 	0.78440 0.77980 0.86180 0.05100
H 	H 	0.76170 0.79290 0.94120 0.01700
C 	C 	0.77850 0.78590 0.62510 0.01700
H 	H 	0.75080 0.80290 0.54590 0.02700
C 	C 	0.85760 0.74360 0.62480 -0.02400
H 	H 	0.88330 0.73170 0.54630 0.05400
C 	C 	0.65340 0.84750 0.74780 0.37400
C 	C 	0.63720 0.01730 0.69560 0.41200
C 	C 	0.72740 0.05930 0.70730 -0.14500
C 	C 	0.76160 0.08200 0.83190 0.06100
H 	H 	0.72840 0.07180 0.90580 0.02700
C 	C 	0.84600 0.12010 0.84410 -0.11400
H 	H 	0.86960 0.13580 0.92630 0.08300
C 	C 	0.89490 0.13460 0.73220 0.05700
C 	C 	0.86180 0.11170 0.60840 -0.11500
H 	H 	0.89550 0.12150 0.53480 0.08800
C 	C 	0.77730 0.07370 0.59670 0.05400
H 	H 	0.75400 0.05780 0.51440 0.01800
Cd	Cd	0.48452 0.92697 0.58055 1.24300
O 	O 	0.61490 0.99060 0.79650 -0.44600
O 	O 	0.59000 0.00950 0.58090 -0.52000
O 	O 	0.62110 0.87100 0.63930 -0.42200
O 	O 	0.61980 0.85680 0.85940 -0.43300
O 	O 	0.99540 0.63380 0.62750 -0.28700
O 	O 	0.99550 0.21830 0.87200 -0.18700
C 	C 	0.82870 0.71450 0.84000 -0.09700
H 	H 	0.83620 0.68340 0.90390 0.06600
C 	C 	0.74860 0.75630 0.83800 -0.04800
H 	H 	0.70110 0.75250 0.89980 0.05400
C 	C 	0.80500 0.80920 0.65400 -0.01300
H 	H 	0.79540 0.84050 0.59060 0.03500
C 	C 	0.88700 0.76910 0.65200 -0.06400
H 	H 	0.93480 0.77450 0.59090 0.06800
C 	C 	0.89670 0.28020 0.24540 0.00800
C 	C 	0.74010 0.19690 0.24590 -0.09000
C 	C 	0.86330 0.26350 0.36430 0.01100
H 	H 	0.89180 0.28020 0.44340 0.04600
C 	C 	0.78440 0.22020 0.36180 0.04400
H 	H 	0.76170 0.20710 0.44120 0.01900
C 	C 	0.77850 0.21410 0.12510 0.02000
H 	H 	0.75080 0.19710 0.04590 0.02500
C 	C 	0.85760 0.25640 0.12480 -0.01900
H 	H 	0.88330 0.26830 0.04630 0.05100
C 	C 	0.65340 0.15250 0.24780 0.37400
C 	C 	0.63720 0.98270 0.19560 0.41100
C 	C 	0.72740 0.94070 0.20730 -0.14200
C 	C 	0.76160 0.91800 0.33190 0.05800
H 	H 	0.72840 0.92820 0.40580 0.02700
C 	C 	0.84600 0.87990 0.34410 -0.10900
H 	H 	0.86960 0.86420 0.42630 0.08100
C 	C 	0.89490 0.86540 0.23220 0.05000
C 	C 	0.86180 0.88830 0.10840 -0.11100
H 	H 	0.89550 0.87850 0.03480 0.08600
C 	C 	0.77730 0.92630 0.09670 0.05100
H 	H 	0.75400 0.94220 0.01440 0.01900
Cd	Cd	0.48452 0.07303 0.08055 1.24300
O 	O 	0.61490 0.00940 0.29650 -0.44500
O 	O 	0.59000 0.99050 0.08090 -0.51900
O 	O 	0.62110 0.12900 0.13930 -0.42200
O 	O 	0.61980 0.14320 0.35940 -0.43300
O 	O 	0.99540 0.36620 0.12750 -0.29200
O 	O 	0.99550 0.78170 0.37200 -0.19200
C 	C 	0.82870 0.28550 0.34000 -0.08900
H 	H 	0.83620 0.31660 0.40390 0.06300
C 	C 	0.74860 0.24370 0.33800 -0.04300
H 	H 	0.70110 0.24750 0.39980 0.05200
C 	C 	0.80500 0.19080 0.15400 -0.01700
H 	H 	0.79540 0.15950 0.09060 0.03600
C 	C 	0.88700 0.23090 0.15200 -0.06700
H 	H 	0.93480 0.22550 0.09090 0.06700
C 	C 	0.10330 0.28020 0.25460 -0.02500
C 	C 	0.25990 0.19690 0.25410 -0.07800
C 	C 	0.13670 0.26350 0.13570 -0.08500
H 	H 	0.10820 0.28020 0.05660 0.06300
C 	C 	0.21560 0.22020 0.13820 -0.08200
H 	H 	0.23830 0.20710 0.05880 0.05900
C 	C 	0.22150 0.21410 0.37490 0.08100
H 	H 	0.24920 0.19710 0.45410 0.00600
C 	C 	0.14240 0.25640 0.37520 0.05700
H 	H 	0.11670 0.26830 0.45370 0.02500
C 	C 	0.34660 0.15250 0.25220 0.36800
C 	C 	0.36280 0.98270 0.30440 0.40800
C 	C 	0.27260 0.94070 0.29270 -0.13500
C 	C 	0.23840 0.91800 0.16810 0.04400
H 	H 	0.27160 0.92820 0.09420 0.03100
C 	C 	0.15400 0.87990 0.15590 -0.09600
H 	H 	0.13040 0.86420 0.07370 0.07000
C 	C 	0.10510 0.86540 0.26780 0.01900
C 	C 	0.13820 0.88830 0.39160 -0.09900
H 	H 	0.10450 0.87850 0.46520 0.07000
C 	C 	0.22270 0.92630 0.40330 0.03700
H 	H 	0.24600 0.94220 0.48560 0.02200
Cd	Cd	0.51548 0.07303 0.41945 1.24300
O 	O 	0.38510 0.00940 0.20350 -0.44500
O 	O 	0.41000 0.99050 0.41910 -0.51900
O 	O 	0.37890 0.12900 0.36070 -0.42200
O 	O 	0.38020 0.14320 0.14060 -0.43200
O 	O 	0.00460 0.36620 0.37250 -0.33100
O 	O 	0.00450 0.78170 0.12800 -0.22800
C 	C 	0.17130 0.28550 0.16000 0.02400
H 	H 	0.16380 0.31660 0.09610 0.02400
C 	C 	0.25140 0.24370 0.16200 0.06600
H 	H 	0.29890 0.24750 0.10020 0.01700
C 	C 	0.19500 0.19080 0.34600 -0.08600
H 	H 	0.20460 0.15950 0.40940 0.05600
C 	C 	0.11300 0.23090 0.34800 -0.13200
H 	H 	0.06520 0.22550 0.40910 0.07400
S 	S 	-0.00000 0.66852 0.75000 0.26600
S 	S 	-0.00000 0.18504 0.75000 0.19300
S 	S 	0.00000 0.33148 0.25000 0.27600
S 	S 	-0.00000 0.81496 0.25000 0.20200
C 	C 	0.60330 0.21980 0.75460 -0.03200
C 	C 	0.75990 0.30310 0.75410 -0.07700
C 	C 	0.63670 0.23650 0.63570 -0.03700
H 	H 	0.60820 0.21980 0.55660 0.05300
C 	C 	0.71560 0.27980 0.63820 -0.03100
H 	H 	0.73830 0.29290 0.55880 0.04200
C 	C 	0.72150 0.28590 0.87490 0.05200
H 	H 	0.74920 0.30290 0.95410 0.01800
C 	C 	0.64240 0.24360 0.87520 0.03100
H 	H 	0.61670 0.23170 0.95370 0.03500
C 	C 	0.84660 0.34750 0.75220 0.36900
C 	C 	0.86280 0.51730 0.80440 0.40500
C 	C 	0.77260 0.55930 0.79270 -0.12500
C 	C 	0.73840 0.58200 0.66810 0.03600
H 	H 	0.77160 0.57180 0.59420 0.03500
C 	C 	0.65400 0.62010 0.65590 -0.08000
H 	H 	0.63040 0.63580 0.57370 0.06700
C 	C 	0.60510 0.63460 0.76780 0.00500
C 	C 	0.63820 0.61170 0.89160 -0.08200
H 	H 	0.60450 0.62150 0.96520 0.07000
C 	C 	0.72270 0.57370 0.90330 0.02900
H 	H 	0.74600 0.55780 0.98560 0.02600
Cd	Cd	0.01548 0.42697 0.91945 1.23200
O 	O 	0.88510 0.49060 0.70350 -0.43600
O 	O 	0.91000 0.50950 0.91910 -0.50600
O 	O 	0.87890 0.37100 0.86070 -0.41400
O 	O 	0.88020 0.35680 0.64060 -0.42500
O 	O 	0.50460 0.13380 0.87250 -0.32900
O 	O 	0.50450 0.71830 0.62800 -0.23000
C 	C 	0.67130 0.21450 0.66000 -0.01900
H 	H 	0.66380 0.18340 0.59610 0.03800
C 	C 	0.75140 0.25630 0.66200 0.01600
H 	H 	0.79890 0.25250 0.60020 0.03600
C 	C 	0.69500 0.30920 0.84600 -0.06100
H 	H 	0.70460 0.34050 0.90940 0.05000
C 	C 	0.61300 0.26910 0.84800 -0.09900
H 	H 	0.56520 0.27450 0.90910 0.07100
C 	C 	0.39670 0.21980 0.74540 -0.03100
C 	C 	0.24010 0.30310 0.74590 -0.08200
C 	C 	0.36330 0.23650 0.86430 -0.03500
H 	H 	0.39180 0.21980 0.94340 0.05300
C 	C 	0.28440 0.27980 0.86180 -0.02600
H 	H 	0.26170 0.29290 0.94120 0.04000
C 	C 	0.27850 0.28590 0.62510 0.05000
H 	H 	0.25080 0.30290 0.54590 0.01500
C 	C 	0.35760 0.24360 0.62480 0.02400
H 	H 	0.38330 0.23170 0.54630 0.03600
C 	C 	0.15340 0.34750 0.74780 0.37100
C 	C 	0.13720 0.51730 0.69560 0.40600
C 	C 	0.22740 0.55930 0.70730 -0.13100
C 	C 	0.26160 0.58200 0.83190 0.03600
H 	H 	0.22840 0.57180 0.90580 0.03200
C 	C 	0.34600 0.62010 0.84410 -0.08400
H 	H 	0.36960 0.63580 0.92630 0.06600
C 	C 	0.39490 0.63460 0.73220 0.00300
C 	C 	0.36180 0.61170 0.60840 -0.08500
H 	H 	0.39550 0.62150 0.53480 0.07100
C 	C 	0.27730 0.57370 0.59670 0.03000
H 	H 	0.25400 0.55780 0.51440 0.02500
Cd	Cd	0.98452 0.42697 0.58055 1.25300
O 	O 	0.11490 0.49060 0.79650 -0.45100
O 	O 	0.09000 0.50950 0.58090 -0.53000
O 	O 	0.12110 0.37100 0.63930 -0.43000
O 	O 	0.11980 0.35680 0.85940 -0.44100
O 	O 	0.49540 0.13380 0.62750 -0.32900
O 	O 	0.49550 0.71830 0.87200 -0.23200
C 	C 	0.32870 0.21450 0.84000 -0.02300
H 	H 	0.33620 0.18340 0.90390 0.03900
C 	C 	0.24860 0.25630 0.83800 0.01500
H 	H 	0.20110 0.25250 0.89980 0.03100
C 	C 	0.30500 0.30920 0.65400 -0.05500
H 	H 	0.29540 0.34050 0.59060 0.04800
C 	C 	0.38700 0.26910 0.65200 -0.09400
H 	H 	0.43480 0.27450 0.59090 0.06900
C 	C 	0.39670 0.78020 0.24540 -0.03100
C 	C 	0.24010 0.69690 0.24590 -0.08100
C 	C 	0.36330 0.76350 0.36430 -0.03900
H 	H 	0.39180 0.78020 0.44340 0.05400
C 	C 	0.28440 0.72020 0.36180 -0.03000
H 	H 	0.26170 0.70710 0.44120 0.04200
C 	C 	0.27850 0.71410 0.12510 0.05000
H 	H 	0.25080 0.69710 0.04590 0.01500
C 	C 	0.35760 0.75640 0.12480 0.02500
H 	H 	0.38330 0.76830 0.04630 0.03600
C 	C 	0.15340 0.65250 0.24780 0.37100
C 	C 	0.13720 0.48270 0.19560 0.40600
C 	C 	0.22740 0.44070 0.20730 -0.13000
C 	C 	0.26160 0.41800 0.33190 0.03600
H 	H 	0.22840 0.42820 0.40580 0.03300
C 	C 	0.34600 0.37990 0.34410 -0.08300
H 	H 	0.36960 0.36420 0.42630 0.06700
C 	C 	0.39490 0.36540 0.23220 0.00200
C 	C 	0.36180 0.38830 0.10840 -0.08400
H 	H 	0.39550 0.37850 0.03480 0.07100
C 	C 	0.27730 0.42630 0.09670 0.02900
H 	H 	0.25400 0.44220 0.01440 0.02600
Cd	Cd	0.98452 0.57303 0.08055 1.25200
O 	O 	0.11490 0.50940 0.29650 -0.45000
O 	O 	0.09000 0.49050 0.08090 -0.52700
O 	O 	0.12110 0.62900 0.13930 -0.42700
O 	O 	0.11980 0.64320 0.35940 -0.44000
O 	O 	0.49540 0.86620 0.12750 -0.32900
O 	O 	0.49550 0.28170 0.37200 -0.23100
C 	C 	0.32870 0.78550 0.34000 -0.01900
H 	H 	0.33620 0.81660 0.40390 0.03800
C 	C 	0.24860 0.74370 0.33800 0.01800
H 	H 	0.20110 0.74750 0.39980 0.03100
C 	C 	0.30500 0.69080 0.15400 -0.05500
H 	H 	0.29540 0.65950 0.09060 0.04800
C 	C 	0.38700 0.73090 0.15200 -0.09500
H 	H 	0.43480 0.72550 0.09090 0.06900
C 	C 	0.60330 0.78020 0.25460 -0.03200
C 	C 	0.75990 0.69690 0.25410 -0.07800
C 	C 	0.63670 0.76350 0.13570 -0.03400
H 	H 	0.60820 0.78020 0.05660 0.05200
C 	C 	0.71560 0.72020 0.13820 -0.02600
H 	H 	0.73830 0.70710 0.05880 0.04000
C 	C 	0.72150 0.71410 0.37490 0.05100
H 	H 	0.74920 0.69710 0.45410 0.01800
C 	C 	0.64240 0.75640 0.37520 0.02900
H 	H 	0.61670 0.76830 0.45370 0.03600
C 	C 	0.84660 0.65250 0.25220 0.36900
C 	C 	0.86280 0.48270 0.30440 0.40500
C 	C 	0.77260 0.44070 0.29270 -0.12600
C 	C 	0.73840 0.41800 0.16810 0.03700
H 	H 	0.77160 0.42820 0.09420 0.03400
C 	C 	0.65400 0.37990 0.15590 -0.08000
H 	H 	0.63040 0.36420 0.07370 0.06700
C 	C 	0.60510 0.36540 0.26780 0.00500
C 	C 	0.63820 0.38830 0.39160 -0.08300
H 	H 	0.60450 0.37850 0.46520 0.07000
C 	C 	0.72270 0.42630 0.40330 0.02900
H 	H 	0.74600 0.44220 0.48560 0.02600
Cd	Cd	0.01548 0.57303 0.41945 1.23300
O 	O 	0.88510 0.50940 0.20350 -0.43700
O 	O 	0.91000 0.49050 0.41910 -0.50800
O 	O 	0.87890 0.62900 0.36070 -0.41500
O 	O 	0.88020 0.64320 0.14060 -0.42600
O 	O 	0.50460 0.86620 0.37250 -0.32900
O 	O 	0.50450 0.28170 0.12800 -0.23000
C 	C 	0.67130 0.78550 0.16000 -0.02300
H 	H 	0.66380 0.81660 0.09610 0.04000
C 	C 	0.75140 0.74370 0.16200 0.01200
H 	H 	0.79890 0.74750 0.10020 0.03700
C 	C 	0.69500 0.69080 0.34600 -0.05900
H 	H 	0.70460 0.65950 0.40940 0.04900
C 	C 	0.61300 0.73090 0.34800 -0.09700
H 	H 	0.56520 0.72550 0.40910 0.07000
S 	S 	0.50000 0.16852 0.75000 0.33900
S 	S 	0.50000 0.68504 0.75000 0.27300
S 	S 	0.50000 0.83148 0.25000 0.33900
S 	S 	0.50000 0.31496 0.25000 0.27300
