data_crystal

_cell_length_a 8.57320
_cell_length_b 8.57320
_cell_length_c 14.33590
_cell_angle_alpha 87.08440
_cell_angle_beta  87.08440
_cell_angle_gamma 81.74280

_symmetry_space_group_name_	'P 1'
_symmetry_space_group_name_H-M	'P 1'

loop_
_symmetry_equiv_pos_as_xyz
  x,y,z

loop_
_atom_site_label
_atom_site_type_symbol
_atom_site_fract_x
_atom_site_fract_y
_atom_site_fract_z
_atom_site_charge
Cu	Cu	0.97710 0.65430 0.49000 0.89500
Cu	Cu	0.34570 0.02290 0.01000 0.89200
Cu	Cu	0.02290 0.34570 0.51000 0.89500
Cu	Cu	0.65430 0.97710 0.99000 0.89200
H 	H 	0.53770 0.37510 0.41740 0.08400
H 	H 	0.52430 0.56390 0.41250 0.08400
H 	H 	0.40060 0.23660 0.30250 0.09200
H 	H 	0.29790 0.33550 0.22330 0.09300
H 	H 	0.36410 0.72390 0.28670 0.09300
H 	H 	0.78550 0.30130 0.20730 0.08900
H 	H 	0.62490 0.46230 0.08260 0.08400
H 	H 	0.43610 0.47570 0.08750 0.08300
H 	H 	0.76340 0.59940 0.19750 0.09300
H 	H 	0.66450 0.70210 0.27670 0.09400
H 	H 	0.27610 0.63590 0.21330 0.09200
H 	H 	0.69870 0.21450 0.29270 0.08800
H 	H 	0.46230 0.62490 0.58260 0.08400
H 	H 	0.47570 0.43610 0.58750 0.08400
H 	H 	0.59940 0.76340 0.69750 0.09200
H 	H 	0.70210 0.66450 0.77670 0.09300
H 	H 	0.63590 0.27610 0.71330 0.09300
H 	H 	0.21450 0.69870 0.79270 0.08900
H 	H 	0.37510 0.53770 0.91740 0.08400
H 	H 	0.56390 0.52430 0.91250 0.08300
H 	H 	0.23660 0.40060 0.80250 0.09300
H 	H 	0.33550 0.29790 0.72330 0.09400
H 	H 	0.72390 0.36410 0.78670 0.09200
H 	H 	0.30130 0.78550 0.70730 0.08800
C 	C 	0.23770 0.48910 0.38550 0.29700
C 	C 	0.38190 0.48070 0.31680 0.04600
C 	C 	0.53060 0.46980 0.37450 -0.17300
C 	C 	0.67950 0.45950 0.30710 0.04500
C 	C 	0.81770 0.45770 0.37190 0.29900
C 	C 	0.39370 0.33130 0.25970 -0.17300
C 	C 	0.51090 0.76230 0.11450 0.29700
C 	C 	0.51930 0.61810 0.18320 0.04700
C 	C 	0.53020 0.46940 0.12550 -0.17300
C 	C 	0.54050 0.32050 0.19290 0.04400
C 	C 	0.54230 0.18230 0.12810 0.29900
C 	C 	0.66870 0.60630 0.24030 -0.17300
C 	C 	0.76230 0.51090 0.61450 0.29700
C 	C 	0.61810 0.51930 0.68320 0.04600
C 	C 	0.46940 0.53020 0.62550 -0.17300
C 	C 	0.32050 0.54050 0.69290 0.04500
C 	C 	0.18230 0.54230 0.62810 0.29900
C 	C 	0.60630 0.66870 0.74030 -0.17300
C 	C 	0.48910 0.23770 0.88550 0.29700
C 	C 	0.48070 0.38190 0.81680 0.04700
C 	C 	0.46980 0.53060 0.87450 -0.17300
C 	C 	0.45950 0.67950 0.80710 0.04400
C 	C 	0.45770 0.81770 0.87190 0.29900
C 	C 	0.33130 0.39370 0.75970 -0.17300
C 	C 	0.37190 0.62810 0.25000 -0.17300
C 	C 	0.69050 0.30950 0.25000 -0.16800
C 	C 	0.62810 0.37190 0.75000 -0.17300
C 	C 	0.30950 0.69050 0.75000 -0.16800
O 	O 	0.16880 0.62360 0.40670 -0.39900
O 	O 	0.19890 0.36030 0.41810 -0.40100
O 	O 	0.88470 0.32790 0.40490 -0.38900
O 	O 	0.84830 0.59090 0.39230 -0.41100
O 	O 	0.37640 0.83120 0.09330 -0.39600
O 	O 	0.63970 0.80110 0.08190 -0.39800
O 	O 	0.67210 0.11530 0.09510 -0.39000
O 	O 	0.40910 0.15170 0.10770 -0.41300
O 	O 	0.83120 0.37640 0.59330 -0.39900
O 	O 	0.80110 0.63970 0.58190 -0.40100
O 	O 	0.11530 0.67210 0.59510 -0.38900
O 	O 	0.15170 0.40910 0.60770 -0.41100
O 	O 	0.62360 0.16880 0.90670 -0.39600
O 	O 	0.36030 0.19890 0.91810 -0.39800
O 	O 	0.32790 0.88470 0.90490 -0.39000
O 	O 	0.59090 0.84830 0.89230 -0.41300
