data_crystal

_cell_length_a 8.46710
_cell_length_b 8.46710
_cell_length_c 14.44370
_cell_angle_alpha 90.00000
_cell_angle_beta  90.00000
_cell_angle_gamma 90.00000

_symmetry_space_group_name_	'P 1'
_symmetry_space_group_name_H-M	'P 1'

loop_
_symmetry_equiv_pos_as_xyz
  x,y,z

loop_
_atom_site_label
_atom_site_type_symbol
_atom_site_fract_x
_atom_site_fract_y
_atom_site_fract_z
_atom_site_charge
Cu	Cu	0.50000 0.85300 -0.00000 0.84300
Cu	Cu	0.50000 0.14700 -0.00000 0.83300
Cu	Cu	0.14700 0.50000 0.50000 0.89300
Cu	Cu	0.85300 0.50000 0.50000 0.90300
H 	H 	0.75590 0.85000 0.71050 0.10200
H 	H 	0.24410 0.15000 0.71050 0.10300
H 	H 	0.15000 0.75590 0.21050 0.07200
H 	H 	0.85000 0.24410 0.21050 0.08600
H 	H 	0.24410 0.85000 0.28950 0.09400
H 	H 	0.75590 0.15000 0.28950 0.07900
H 	H 	0.85000 0.75590 0.78950 0.11100
H 	H 	0.15000 0.24410 0.78950 0.11100
H 	H 	0.24410 0.15000 0.28950 0.08700
H 	H 	0.75590 0.85000 0.28950 0.08600
H 	H 	0.85000 0.24410 0.78950 0.11900
H 	H 	0.15000 0.75590 0.78950 0.10400
H 	H 	0.75590 0.15000 0.71050 0.09600
H 	H 	0.24410 0.85000 0.71050 0.11100
H 	H 	0.15000 0.24410 0.21050 0.07900
H 	H 	0.85000 0.75590 0.21050 0.07800
H 	H 	-0.00000 0.09470 0.91320 0.15100
H 	H 	-0.00000 0.90530 0.91320 0.17400
H 	H 	0.90530 0.00000 0.41320 0.12100
H 	H 	0.09470 0.00000 0.41320 0.09700
H 	H 	0.00000 0.09470 0.08680 0.05500
H 	H 	-0.00000 0.90530 0.08680 0.07700
H 	H 	0.09470 0.00000 0.58680 0.10600
H 	H 	0.90530 0.00000 0.58680 0.13000
C 	C 	0.71230 0.00000 0.87830 0.22600
C 	C 	0.85090 0.00000 0.81110 0.09900
C 	C 	0.28770 0.00000 0.87830 0.22800
C 	C 	0.14910 0.00000 0.81110 0.08800
C 	C 	0.00000 0.71230 0.37830 0.25000
C 	C 	0.00000 0.85090 0.31110 0.04500
C 	C 	0.00000 0.28770 0.37830 0.25300
C 	C 	-0.00000 0.14910 0.31110 0.03400
C 	C 	0.28770 0.00000 0.12170 0.25900
C 	C 	0.14910 0.00000 0.18890 0.01900
C 	C 	0.71230 0.00000 0.12170 0.25600
C 	C 	0.85090 0.00000 0.18890 0.03000
C 	C 	-0.00000 0.71230 0.62170 0.24000
C 	C 	-0.00000 0.85090 0.68890 0.08000
C 	C 	-0.00000 0.28770 0.62170 0.24300
C 	C 	-0.00000 0.14910 0.68890 0.06900
C 	C 	0.85140 0.85140 0.75000 -0.14600
C 	C 	0.14860 0.14860 0.75000 -0.21400
C 	C 	0.14860 0.85140 0.25000 -0.13400
C 	C 	0.85140 0.14860 0.25000 -0.13300
C 	C 	0.14860 0.14860 0.25000 -0.16200
C 	C 	0.85140 0.85140 0.25000 -0.09400
C 	C 	0.85140 0.14860 0.75000 -0.18500
C 	C 	0.14860 0.85140 0.75000 -0.18600
C 	C 	0.00000 0.00000 0.87300 -0.32700
C 	C 	0.00000 0.00000 0.37300 -0.25900
C 	C 	-0.00000 -0.00000 0.12700 -0.22400
C 	C 	0.00000 0.00000 0.62700 -0.29100
O 	O 	0.66180 0.86830 0.90580 -0.29600
O 	O 	0.33820 0.13170 0.90580 -0.33200
O 	O 	0.13170 0.66180 0.40580 -0.39500
O 	O 	0.86830 0.33820 0.40580 -0.37300
O 	O 	0.33820 0.86830 0.09420 -0.40600
O 	O 	0.66180 0.13170 0.09420 -0.42600
O 	O 	0.86830 0.66180 0.59420 -0.35900
O 	O 	0.13170 0.33820 0.59420 -0.39600
O 	O 	0.33820 0.13170 0.09420 -0.43300
O 	O 	0.66180 0.86830 0.09420 -0.39700
O 	O 	0.86830 0.33820 0.59420 -0.36800
O 	O 	0.13170 0.66180 0.59420 -0.38900
O 	O 	0.66180 0.13170 0.90580 -0.32500
O 	O 	0.33820 0.86830 0.90580 -0.30500
O 	O 	0.13170 0.33820 0.40580 -0.40100
O 	O 	0.86830 0.66180 0.40580 -0.36400
