data_crystal

_cell_length_a 22.24900
_cell_length_b 22.24900
_cell_length_c 22.24900
_cell_angle_alpha 90.00000
_cell_angle_beta  90.00000
_cell_angle_gamma 90.00000

_symmetry_space_group_name_	'P 1'
_symmetry_space_group_name_H-M	'P 1'

loop_
_symmetry_equiv_pos_as_xyz
  x,y,z

loop_
_atom_site_label
_atom_site_type_symbol
_atom_site_fract_x
_atom_site_fract_y
_atom_site_fract_z
_atom_site_charge
H 	H 	0.35156 0.85922 0.20001 0.02200
C 	C 	0.28146 0.05100 0.87376 -0.04300
H 	H 	0.26275 0.02930 0.83128 0.02700
C 	C 	0.32975 0.02541 0.90292 -0.02800
H 	H 	0.35273 0.98414 0.88307 0.08000
H 	H 	0.64844 0.14078 0.20001 0.01600
C 	C 	0.71854 0.94900 0.87376 -0.08800
H 	H 	0.73725 0.97070 0.83128 0.07000
C 	C 	0.67025 0.97459 0.90292 0.13400
H 	H 	0.64727 0.01586 0.88307 -0.03100
H 	H 	0.64844 0.85922 0.79999 0.02500
C 	C 	0.71854 0.05100 0.12624 -0.02800
H 	H 	0.73725 0.02930 0.16872 0.02400
C 	C 	0.67025 0.02541 0.09708 -0.04800
H 	H 	0.64727 0.98414 0.11693 0.08000
H 	H 	0.35156 0.14078 0.79999 0.01900
C 	C 	0.28146 0.94900 0.12624 -0.08100
H 	H 	0.26275 0.97070 0.16872 0.06200
C 	C 	0.32975 0.97459 0.09708 0.11800
H 	H 	0.35273 0.01586 0.11693 -0.03800
H 	H 	0.20001 0.35156 0.85922 0.02300
C 	C 	0.87376 0.28146 0.05100 -0.04200
H 	H 	0.83128 0.26275 0.02930 0.02900
C 	C 	0.90292 0.32975 0.02541 -0.02700
H 	H 	0.88307 0.35273 0.98414 0.08100
H 	H 	0.20001 0.64844 0.14078 0.01900
C 	C 	0.87376 0.71854 0.94900 -0.08700
H 	H 	0.83128 0.73725 0.97070 0.07100
C 	C 	0.90292 0.67025 0.97459 0.13500
H 	H 	0.88307 0.64727 0.01586 -0.03000
H 	H 	0.79999 0.64844 0.85922 0.02500
C 	C 	0.12624 0.71854 0.05100 -0.02800
H 	H 	0.16872 0.73725 0.02930 0.02300
C 	C 	0.09708 0.67025 0.02541 -0.04800
H 	H 	0.11693 0.64727 0.98414 0.08000
H 	H 	0.79999 0.35156 0.14078 0.01700
C 	C 	0.12624 0.28146 0.94900 -0.08100
H 	H 	0.16872 0.26275 0.97070 0.06200
C 	C 	0.09708 0.32975 0.97459 0.11800
H 	H 	0.11693 0.35273 0.01586 -0.03800
H 	H 	0.85922 0.20001 0.35156 0.02300
C 	C 	0.05100 0.87376 0.28146 -0.04200
H 	H 	0.02930 0.83128 0.26275 0.02900
C 	C 	0.02541 0.90292 0.32975 -0.02700
H 	H 	0.98414 0.88307 0.35273 0.08100
H 	H 	0.14078 0.20001 0.64844 0.02000
C 	C 	0.94900 0.87376 0.71854 -0.08700
H 	H 	0.97070 0.83128 0.73725 0.07100
C 	C 	0.97459 0.90292 0.67025 0.13500
H 	H 	0.01586 0.88307 0.64727 -0.03000
H 	H 	0.85922 0.79999 0.64844 0.02500
C 	C 	0.05100 0.12624 0.71854 -0.02800
H 	H 	0.02930 0.16872 0.73725 0.02300
C 	C 	0.02541 0.09708 0.67025 -0.04800
H 	H 	0.98414 0.11693 0.64727 0.08000
H 	H 	0.14078 0.79999 0.35156 0.01600
C 	C 	0.94900 0.12624 0.28146 -0.08100
H 	H 	0.97070 0.16872 0.26275 0.06200
C 	C 	0.97459 0.09708 0.32975 0.11800
H 	H 	0.01586 0.11693 0.35273 -0.03800
H 	H 	0.85922 0.35143 0.19994 0.02300
C 	C 	0.05100 0.28146 0.87376 -0.04200
H 	H 	0.02930 0.26275 0.83128 0.02900
C 	C 	0.02541 0.32975 0.90292 -0.02700
H 	H 	0.98414 0.35273 0.88307 0.08100
H 	H 	0.14078 0.64857 0.19994 0.02000
C 	C 	0.94900 0.71854 0.87376 -0.08700
H 	H 	0.97070 0.73725 0.83128 0.07100
C 	C 	0.97459 0.67025 0.90292 0.13500
H 	H 	0.01586 0.64727 0.88307 -0.03000
H 	H 	0.85922 0.64857 0.80006 0.02500
C 	C 	0.05100 0.71854 0.12624 -0.02800
H 	H 	0.02930 0.73725 0.16872 0.02300
C 	C 	0.02541 0.67025 0.09708 -0.04800
H 	H 	0.98414 0.64727 0.11693 0.08000
H 	H 	0.14078 0.35143 0.80006 0.01600
C 	C 	0.94900 0.28146 0.12624 -0.08100
H 	H 	0.97070 0.26275 0.16872 0.06200
C 	C 	0.97459 0.32975 0.09708 0.11800
H 	H 	0.01586 0.35273 0.11693 -0.03800
H 	H 	0.35143 0.19994 0.85922 0.02300
C 	C 	0.28146 0.87376 0.05100 -0.04200
H 	H 	0.26275 0.83128 0.02930 0.02800
C 	C 	0.32975 0.90292 0.02541 -0.02700
H 	H 	0.35273 0.88307 0.98414 0.08100
H 	H 	0.64857 0.19994 0.14078 0.01700
C 	C 	0.71854 0.87376 0.94900 -0.08700
H 	H 	0.73725 0.83128 0.97070 0.07100
C 	C 	0.67025 0.90292 0.97459 0.13500
H 	H 	0.64727 0.88307 0.01586 -0.03000
H 	H 	0.64857 0.80006 0.85922 0.02500
C 	C 	0.71854 0.12624 0.05100 -0.02800
H 	H 	0.73725 0.16872 0.02930 0.02400
C 	C 	0.67025 0.09708 0.02541 -0.04800
H 	H 	0.64727 0.11693 0.98414 0.08000
H 	H 	0.35143 0.80006 0.14078 0.01900
C 	C 	0.28146 0.12624 0.94900 -0.08100
H 	H 	0.26275 0.16872 0.97070 0.06200
C 	C 	0.32975 0.09708 0.97459 0.11800
H 	H 	0.35273 0.11693 0.01586 -0.03800
H 	H 	0.19994 0.85922 0.35143 0.02300
C 	C 	0.87376 0.05100 0.28146 -0.04200
H 	H 	0.83128 0.02930 0.26275 0.02900
C 	C 	0.90292 0.02541 0.32975 -0.02700
H 	H 	0.88307 0.98414 0.35273 0.08100
H 	H 	0.19994 0.14078 0.64857 0.01900
C 	C 	0.87376 0.94900 0.71854 -0.08700
H 	H 	0.83128 0.97070 0.73725 0.07100
C 	C 	0.90292 0.97459 0.67025 0.13500
H 	H 	0.88307 0.01586 0.64727 -0.03000
H 	H 	0.80006 0.85922 0.64857 0.02500
C 	C 	0.12624 0.05100 0.71854 -0.02800
H 	H 	0.16872 0.02930 0.73725 0.02300
C 	C 	0.09708 0.02541 0.67025 -0.04800
H 	H 	0.11693 0.98414 0.64727 0.08000
H 	H 	0.80006 0.14078 0.35143 0.01700
C 	C 	0.12624 0.94900 0.28146 -0.08100
H 	H 	0.16872 0.97070 0.26275 0.06200
C 	C 	0.09708 0.97459 0.32975 0.11800
H 	H 	0.11693 0.01586 0.35273 -0.03800
Co	Co	0.42427 0.00000 -0.00000 1.10800
Co	Co	0.57573 0.00000 -0.00000 1.10900
Co	Co	-0.00000 0.42427 -0.00000 1.10800
Co	Co	-0.00000 0.57573 -0.00000 1.10900
Co	Co	0.00000 0.00000 0.42427 1.10800
Co	Co	0.00000 0.00000 0.57573 1.10900
O 	O 	0.47221 0.93802 0.06198 -0.40000
N 	N 	0.35129 0.04645 0.95355 -0.20000
C 	C 	0.29745 0.77881 0.22119 -0.06000
O 	O 	0.40615 0.78367 0.21633 -0.22000
C 	C 	0.20282 0.13112 0.86888 0.11100
O 	O 	0.57315 0.93571 0.06429 -0.41300
C 	C 	0.52122 0.91872 0.08128 0.34600
C 	C 	0.35259 0.80874 0.19126 0.05300
C 	C 	0.25606 0.10329 0.89671 0.00600
C 	C 	0.51948 0.87026 0.12974 -0.05600
C 	C 	0.46313 0.85050 0.14950 -0.06500
H 	H 	0.42046 0.87056 0.12944 0.05900
C 	C 	0.45912 0.80529 0.19471 0.14600
C 	C 	0.51100 0.78230 0.21770 -0.09000
H 	H 	0.50914 0.74609 0.25391 0.06200
C 	C 	0.56760 0.80229 0.19771 -0.00900
H 	H 	0.61035 0.78231 0.21769 0.03000
C 	C 	0.57070 0.84620 0.15380 -0.01400
H 	H 	0.61659 0.86231 0.13769 0.04200
O 	O 	0.52779 0.06198 0.06198 -0.43900
N 	N 	0.64871 0.95355 0.95355 -0.20300
C 	C 	0.70255 0.22119 0.22119 -0.05900
O 	O 	0.59385 0.21633 0.21633 -0.22200
C 	C 	0.79718 0.86888 0.86888 0.11600
O 	O 	0.42685 0.06429 0.06429 -0.44800
C 	C 	0.47878 0.08128 0.08128 0.34700
C 	C 	0.64741 0.19126 0.19126 0.05500
C 	C 	0.74394 0.89671 0.89671 0.03700
C 	C 	0.48052 0.12974 0.12974 -0.06700
C 	C 	0.53687 0.14950 0.14950 -0.06800
H 	H 	0.57954 0.12944 0.12944 0.05500
C 	C 	0.54088 0.19471 0.19471 0.14200
C 	C 	0.48900 0.21770 0.21770 -0.09300
H 	H 	0.49086 0.25391 0.25391 0.05700
C 	C 	0.43240 0.19771 0.19771 -0.01600
H 	H 	0.38965 0.21769 0.21769 0.02100
C 	C 	0.42930 0.15380 0.15380 -0.01800
H 	H 	0.38341 0.13769 0.13769 0.03000
O 	O 	0.52779 0.93802 0.93802 -0.36500
N 	N 	0.64871 0.04645 0.04645 -0.19500
C 	C 	0.70255 0.77881 0.77881 -0.06100
O 	O 	0.59385 0.78367 0.78367 -0.21800
C 	C 	0.79718 0.13112 0.13112 0.11700
O 	O 	0.42685 0.93571 0.93571 -0.38100
C 	C 	0.47878 0.91872 0.91872 0.34600
C 	C 	0.64741 0.80874 0.80874 0.05000
C 	C 	0.74394 0.10329 0.10329 -0.02400
C 	C 	0.48052 0.87026 0.87026 -0.04600
C 	C 	0.53687 0.85050 0.85050 -0.06100
H 	H 	0.57954 0.87056 0.87056 0.06200
C 	C 	0.54088 0.80529 0.80529 0.14900
C 	C 	0.48900 0.78230 0.78230 -0.08700
H 	H 	0.49086 0.74609 0.74609 0.06500
C 	C 	0.43240 0.80229 0.80229 -0.00300
H 	H 	0.38965 0.78231 0.78231 0.03400
C 	C 	0.42930 0.84620 0.84620 -0.01100
H 	H 	0.38341 0.86231 0.86231 0.05000
O 	O 	0.47221 0.06198 0.93802 -0.40000
N 	N 	0.35129 0.95355 0.04645 -0.20000
C 	C 	0.29745 0.22119 0.77881 -0.06000
O 	O 	0.40615 0.21633 0.78367 -0.22000
C 	C 	0.20282 0.86888 0.13112 0.11100
O 	O 	0.57315 0.06429 0.93571 -0.41300
C 	C 	0.52122 0.08128 0.91872 0.34600
C 	C 	0.35259 0.19126 0.80874 0.05300
C 	C 	0.25606 0.89671 0.10329 0.00600
C 	C 	0.51948 0.12974 0.87026 -0.05600
C 	C 	0.46313 0.14950 0.85050 -0.06500
H 	H 	0.42046 0.12944 0.87056 0.05900
C 	C 	0.45912 0.19471 0.80529 0.14600
C 	C 	0.51100 0.21770 0.78230 -0.09000
H 	H 	0.50914 0.25391 0.74609 0.06200
C 	C 	0.56760 0.19771 0.80229 -0.00900
H 	H 	0.61035 0.21769 0.78231 0.03000
C 	C 	0.57070 0.15380 0.84620 -0.01400
H 	H 	0.61659 0.13769 0.86231 0.04200
O 	O 	0.06198 0.47221 0.93802 -0.40000
N 	N 	0.95355 0.35129 0.04645 -0.20000
C 	C 	0.22119 0.29745 0.77881 -0.06000
O 	O 	0.21633 0.40615 0.78367 -0.21900
C 	C 	0.86888 0.20282 0.13112 0.11100
O 	O 	0.06429 0.57315 0.93571 -0.41300
C 	C 	0.08128 0.52122 0.91872 0.34600
C 	C 	0.19126 0.35259 0.80874 0.05300
C 	C 	0.89671 0.25606 0.10329 0.00600
C 	C 	0.12974 0.51948 0.87026 -0.05600
C 	C 	0.14950 0.46313 0.85050 -0.06500
H 	H 	0.12944 0.42046 0.87056 0.05900
C 	C 	0.19471 0.45912 0.80529 0.14600
C 	C 	0.21770 0.51100 0.78230 -0.08900
H 	H 	0.25391 0.50914 0.74609 0.06200
C 	C 	0.19771 0.56760 0.80229 -0.00900
H 	H 	0.21769 0.61035 0.78231 0.03000
C 	C 	0.15380 0.57070 0.84620 -0.01400
H 	H 	0.13769 0.61659 0.86231 0.04200
O 	O 	0.06198 0.52779 0.06198 -0.43900
N 	N 	0.95355 0.64871 0.95355 -0.20300
C 	C 	0.22119 0.70255 0.22119 -0.06000
O 	O 	0.21633 0.59385 0.21633 -0.22300
C 	C 	0.86888 0.79718 0.86888 0.11600
O 	O 	0.06429 0.42685 0.06429 -0.44800
C 	C 	0.08128 0.47878 0.08128 0.34700
C 	C 	0.19126 0.64741 0.19126 0.05300
C 	C 	0.89671 0.74394 0.89671 0.03700
C 	C 	0.12974 0.48052 0.12974 -0.06700
C 	C 	0.14950 0.53687 0.14950 -0.06900
H 	H 	0.12944 0.57954 0.12944 0.05500
C 	C 	0.19471 0.54088 0.19471 0.14200
C 	C 	0.21770 0.48900 0.21770 -0.09300
H 	H 	0.25391 0.49086 0.25391 0.05700
C 	C 	0.19771 0.43240 0.19771 -0.01600
H 	H 	0.21769 0.38965 0.21769 0.02100
C 	C 	0.15380 0.42930 0.15380 -0.01800
H 	H 	0.13769 0.38341 0.13769 0.03000
O 	O 	0.93802 0.52779 0.93802 -0.36500
N 	N 	0.04645 0.64871 0.04645 -0.19500
C 	C 	0.77881 0.70255 0.77881 -0.06100
O 	O 	0.78367 0.59385 0.78367 -0.21800
C 	C 	0.13112 0.79718 0.13112 0.11700
O 	O 	0.93571 0.42685 0.93571 -0.38100
C 	C 	0.91872 0.47878 0.91872 0.34600
C 	C 	0.80874 0.64741 0.80874 0.05000
C 	C 	0.10329 0.74394 0.10329 -0.02500
C 	C 	0.87026 0.48052 0.87026 -0.04600
C 	C 	0.85050 0.53687 0.85050 -0.06100
H 	H 	0.87056 0.57954 0.87056 0.06200
C 	C 	0.80529 0.54088 0.80529 0.14900
C 	C 	0.78230 0.48900 0.78230 -0.08700
H 	H 	0.74609 0.49086 0.74609 0.06500
C 	C 	0.80229 0.43240 0.80229 -0.00300
H 	H 	0.78231 0.38965 0.78231 0.03400
C 	C 	0.84620 0.42930 0.84620 -0.01100
H 	H 	0.86231 0.38341 0.86231 0.05000
O 	O 	0.93802 0.47221 0.06198 -0.40000
N 	N 	0.04645 0.35129 0.95355 -0.20000
C 	C 	0.77881 0.29745 0.22119 -0.05900
O 	O 	0.78367 0.40615 0.21633 -0.21900
C 	C 	0.13112 0.20282 0.86888 0.11100
O 	O 	0.93571 0.57315 0.06429 -0.41300
C 	C 	0.91872 0.52122 0.08128 0.34600
C 	C 	0.80874 0.35259 0.19126 0.05400
C 	C 	0.10329 0.25606 0.89671 0.00600
C 	C 	0.87026 0.51948 0.12974 -0.05600
C 	C 	0.85050 0.46313 0.14950 -0.06500
H 	H 	0.87056 0.42046 0.12944 0.05900
C 	C 	0.80529 0.45912 0.19471 0.14600
C 	C 	0.78230 0.51100 0.21770 -0.08900
H 	H 	0.74609 0.50914 0.25391 0.06200
C 	C 	0.80229 0.56760 0.19771 -0.00900
H 	H 	0.78231 0.61035 0.21769 0.03000
C 	C 	0.84620 0.57070 0.15380 -0.01400
H 	H 	0.86231 0.61659 0.13769 0.04200
O 	O 	0.93802 0.06198 0.47221 -0.40000
N 	N 	0.04645 0.95355 0.35129 -0.20000
C 	C 	0.77881 0.22119 0.29745 -0.05900
O 	O 	0.78367 0.21633 0.40615 -0.21900
C 	C 	0.13112 0.86888 0.20282 0.11100
O 	O 	0.93571 0.06429 0.57315 -0.41300
C 	C 	0.91872 0.08128 0.52122 0.34600
C 	C 	0.80874 0.19126 0.35259 0.05400
C 	C 	0.10329 0.89671 0.25606 0.00600
C 	C 	0.87026 0.12974 0.51948 -0.05600
C 	C 	0.85050 0.14950 0.46313 -0.06500
H 	H 	0.87056 0.12944 0.42046 0.05900
C 	C 	0.80529 0.19471 0.45912 0.14600
C 	C 	0.78230 0.21770 0.51100 -0.08900
H 	H 	0.74609 0.25391 0.50914 0.06200
C 	C 	0.80229 0.19771 0.56760 -0.00900
H 	H 	0.78231 0.21769 0.61035 0.03000
C 	C 	0.84620 0.15380 0.57070 -0.01400
H 	H 	0.86231 0.13769 0.61659 0.04200
O 	O 	0.06198 0.06198 0.52779 -0.43900
N 	N 	0.95355 0.95355 0.64871 -0.20300
C 	C 	0.22119 0.22119 0.70255 -0.06000
O 	O 	0.21633 0.21633 0.59385 -0.22300
C 	C 	0.86888 0.86888 0.79718 0.11600
O 	O 	0.06429 0.06429 0.42685 -0.44800
C 	C 	0.08128 0.08128 0.47878 0.34700
C 	C 	0.19126 0.19126 0.64741 0.05300
C 	C 	0.89671 0.89671 0.74394 0.03700
C 	C 	0.12974 0.12974 0.48052 -0.06700
C 	C 	0.14950 0.14950 0.53687 -0.06900
H 	H 	0.12944 0.12944 0.57954 0.05500
C 	C 	0.19471 0.19471 0.54088 0.14200
C 	C 	0.21770 0.21770 0.48900 -0.09300
H 	H 	0.25391 0.25391 0.49086 0.05700
C 	C 	0.19771 0.19771 0.43240 -0.01600
H 	H 	0.21769 0.21769 0.38965 0.02100
C 	C 	0.15380 0.15380 0.42930 -0.01800
H 	H 	0.13769 0.13769 0.38341 0.03000
O 	O 	0.93802 0.93802 0.52779 -0.36500
N 	N 	0.04645 0.04645 0.64871 -0.19500
C 	C 	0.77881 0.77881 0.70255 -0.06100
O 	O 	0.78367 0.78367 0.59385 -0.21800
C 	C 	0.13112 0.13112 0.79718 0.11700
O 	O 	0.93571 0.93571 0.42685 -0.38100
C 	C 	0.91872 0.91872 0.47878 0.34600
C 	C 	0.80874 0.80874 0.64741 0.05000
C 	C 	0.10329 0.10329 0.74394 -0.02500
C 	C 	0.87026 0.87026 0.48052 -0.04600
C 	C 	0.85050 0.85050 0.53687 -0.06100
H 	H 	0.87056 0.87056 0.57954 0.06200
C 	C 	0.80529 0.80529 0.54088 0.14900
C 	C 	0.78230 0.78230 0.48900 -0.08700
H 	H 	0.74609 0.74609 0.49086 0.06500
C 	C 	0.80229 0.80229 0.43240 -0.00300
H 	H 	0.78231 0.78231 0.38965 0.03400
C 	C 	0.84620 0.84620 0.42930 -0.01100
H 	H 	0.86231 0.86231 0.38341 0.05000
O 	O 	0.06198 0.93802 0.47221 -0.40000
N 	N 	0.95355 0.04645 0.35129 -0.20000
C 	C 	0.22119 0.77881 0.29745 -0.06000
O 	O 	0.21633 0.78367 0.40615 -0.21900
C 	C 	0.86888 0.13112 0.20282 0.11100
O 	O 	0.06429 0.93571 0.57315 -0.41300
C 	C 	0.08128 0.91872 0.52122 0.34600
C 	C 	0.19126 0.80874 0.35259 0.05300
C 	C 	0.89671 0.10329 0.25606 0.00600
C 	C 	0.12974 0.87026 0.51948 -0.05600
C 	C 	0.14950 0.85050 0.46313 -0.06500
H 	H 	0.12944 0.87056 0.42046 0.05900
C 	C 	0.19471 0.80529 0.45912 0.14600
C 	C 	0.21770 0.78230 0.51100 -0.08900
H 	H 	0.25391 0.74609 0.50914 0.06200
C 	C 	0.19771 0.80229 0.56760 -0.00900
H 	H 	0.21769 0.78231 0.61035 0.03000
C 	C 	0.15380 0.84620 0.57070 -0.01400
H 	H 	0.13769 0.86231 0.61659 0.04200
C 	C 	0.27366 0.72634 0.19658 0.07500
C 	C 	0.30153 0.69847 0.13996 -0.16900
C 	C 	0.72634 0.27366 0.19658 0.07400
C 	C 	0.69847 0.30153 0.13996 -0.16100
C 	C 	0.72634 0.72634 0.80342 0.07800
C 	C 	0.69847 0.69847 0.86004 -0.17400
C 	C 	0.27366 0.27366 0.80342 0.07700
C 	C 	0.30153 0.30153 0.86004 -0.16600
C 	C 	0.19658 0.27366 0.72634 0.07500
C 	C 	0.13996 0.30153 0.69847 -0.16500
C 	C 	0.19658 0.72634 0.27366 0.07500
C 	C 	0.13996 0.69847 0.30153 -0.16500
C 	C 	0.80342 0.72634 0.72634 0.07800
C 	C 	0.86004 0.69847 0.69847 -0.17400
C 	C 	0.80342 0.27366 0.27366 0.07600
C 	C 	0.86004 0.30153 0.30153 -0.16600
C 	C 	0.72634 0.19658 0.27366 0.07400
C 	C 	0.69847 0.13996 0.30153 -0.16100
C 	C 	0.27366 0.19658 0.72634 0.07500
C 	C 	0.30153 0.13996 0.69847 -0.16900
C 	C 	0.72634 0.80342 0.72634 0.07800
C 	C 	0.69847 0.86004 0.69847 -0.17400
C 	C 	0.27366 0.80342 0.27366 0.07700
C 	C 	0.30153 0.86004 0.30153 -0.16600
N 	N 	0.18050 0.18050 0.89516 -0.14300
N 	N 	0.81950 0.81950 0.89516 -0.13800
N 	N 	0.81950 0.18050 0.10484 -0.14900
N 	N 	0.18050 0.81950 0.10484 -0.14900
N 	N 	0.89516 0.18050 0.18050 -0.14300
N 	N 	0.89516 0.81950 0.81950 -0.13800
N 	N 	0.10484 0.81950 0.18050 -0.14900
N 	N 	0.10484 0.18050 0.81950 -0.14900
N 	N 	0.18050 0.89516 0.18050 -0.14300
N 	N 	0.81950 0.89516 0.81950 -0.13800
N 	N 	0.18050 0.10484 0.81950 -0.14900
N 	N 	0.81950 0.10484 0.18050 -0.14900
H 	H 	0.28133 0.72052 0.09835 0.05700
H 	H 	0.29175 0.64818 0.13909 0.06700
H 	H 	0.35221 0.70601 0.14038 0.06800
H 	H 	0.67653 0.26474 0.11184 0.05700
H 	H 	0.73507 0.32452 0.11245 0.05700
H 	H 	0.66310 0.33603 0.15354 0.06700
H 	H 	0.70661 0.64788 0.85995 0.08000
H 	H 	0.64807 0.70766 0.86056 0.08000
H 	H 	0.72004 0.71917 0.90165 0.07000
H 	H 	0.33553 0.33738 0.84647 0.08000
H 	H 	0.32511 0.26504 0.88721 0.07100
H 	H 	0.26465 0.32287 0.88850 0.07000
H 	H 	0.10204 0.26707 0.69877 0.05600
H 	H 	0.14984 0.31563 0.65021 0.06800
H 	H 	0.12594 0.34259 0.72573 0.06200
H 	H 	0.14984 0.65021 0.31563 0.06800
H 	H 	0.10204 0.69877 0.26707 0.05600
H 	H 	0.12594 0.72573 0.34259 0.06200
H 	H 	0.86026 0.70714 0.64797 0.08000
H 	H 	0.86026 0.64797 0.70714 0.08000
H 	H 	0.90166 0.71961 0.71961 0.07000
H 	H 	0.88786 0.32399 0.26483 0.07000
H 	H 	0.88786 0.26483 0.32399 0.07000
H 	H 	0.84646 0.33646 0.33646 0.08000
H 	H 	0.73507 0.11245 0.32452 0.05700
H 	H 	0.67653 0.11184 0.26474 0.05700
H 	H 	0.66310 0.15354 0.33603 0.06700
H 	H 	0.29175 0.13909 0.64818 0.06700
H 	H 	0.28133 0.09835 0.72052 0.05700
H 	H 	0.35221 0.14038 0.70601 0.06800
H 	H 	0.64807 0.86056 0.70766 0.08000
H 	H 	0.70661 0.85995 0.64788 0.08000
H 	H 	0.72004 0.90165 0.71917 0.07000
H 	H 	0.32511 0.88721 0.26504 0.07100
H 	H 	0.33553 0.84647 0.33738 0.08000
H 	H 	0.26465 0.88850 0.32287 0.07000
