data_crystal

_cell_length_a 22.03900
_cell_length_b 22.03900
_cell_length_c 22.03900
_cell_angle_alpha 90.00000
_cell_angle_beta  90.00000
_cell_angle_gamma 90.00000

_symmetry_space_group_name_	'P 1'
_symmetry_space_group_name_H-M	'P 1'

loop_
_symmetry_equiv_pos_as_xyz
  x,y,z

loop_
_atom_site_label
_atom_site_type_symbol
_atom_site_fract_x
_atom_site_fract_y
_atom_site_fract_z
_atom_site_charge
H 	H 	0.35199 0.85909 0.20078 0.02200
C 	C 	0.28164 0.04984 0.87424 -0.04100
H 	H 	0.26156 0.02688 0.83247 0.02900
C 	C 	0.33009 0.02505 0.90256 -0.02400
H 	H 	0.35331 0.98343 0.88244 0.08000
H 	H 	0.64801 0.14091 0.20078 0.01500
C 	C 	0.71836 0.95016 0.87424 -0.09000
H 	H 	0.73844 0.97312 0.83247 0.07100
C 	C 	0.66991 0.97495 0.90256 0.13600
H 	H 	0.64669 0.01657 0.88244 -0.02700
H 	H 	0.64801 0.85909 0.79922 0.02300
C 	C 	0.71836 0.04984 0.12576 -0.02800
H 	H 	0.73844 0.02688 0.16753 0.02300
C 	C 	0.66991 0.02505 0.09744 -0.04600
H 	H 	0.64669 0.98343 0.11756 0.08000
H 	H 	0.35199 0.14091 0.79922 0.01700
C 	C 	0.28164 0.95016 0.12576 -0.08300
H 	H 	0.26156 0.97312 0.16753 0.06200
C 	C 	0.33009 0.97495 0.09744 0.11900
H 	H 	0.35331 0.01657 0.11756 -0.03400
H 	H 	0.20078 0.35199 0.85909 0.02100
C 	C 	0.87424 0.28164 0.04984 -0.04200
H 	H 	0.83247 0.26156 0.02688 0.02900
C 	C 	0.90256 0.33009 0.02505 -0.02400
H 	H 	0.88244 0.35331 0.98343 0.08000
H 	H 	0.20078 0.64801 0.14091 0.01700
C 	C 	0.87424 0.71836 0.95016 -0.09000
H 	H 	0.83247 0.73844 0.97312 0.07100
C 	C 	0.90256 0.66991 0.97495 0.13600
H 	H 	0.88244 0.64669 0.01657 -0.02700
H 	H 	0.79922 0.64801 0.85909 0.02300
C 	C 	0.12576 0.71836 0.04984 -0.02700
H 	H 	0.16753 0.73844 0.02688 0.02300
C 	C 	0.09744 0.66991 0.02505 -0.04600
H 	H 	0.11756 0.64669 0.98343 0.08000
H 	H 	0.79922 0.35199 0.14091 0.01500
C 	C 	0.12576 0.28164 0.95016 -0.08300
H 	H 	0.16753 0.26156 0.97312 0.06200
C 	C 	0.09744 0.33009 0.97495 0.11900
H 	H 	0.11756 0.35331 0.01657 -0.03400
H 	H 	0.85909 0.20078 0.35199 0.02100
C 	C 	0.04984 0.87424 0.28164 -0.04200
H 	H 	0.02688 0.83247 0.26156 0.02900
C 	C 	0.02505 0.90256 0.33009 -0.02400
H 	H 	0.98343 0.88244 0.35331 0.08000
H 	H 	0.14091 0.20078 0.64801 0.01800
C 	C 	0.95016 0.87424 0.71836 -0.09000
H 	H 	0.97312 0.83247 0.73844 0.07100
C 	C 	0.97495 0.90256 0.66991 0.13600
H 	H 	0.01657 0.88244 0.64669 -0.02700
H 	H 	0.85909 0.79922 0.64801 0.02300
C 	C 	0.04984 0.12576 0.71836 -0.02800
H 	H 	0.02688 0.16753 0.73844 0.02300
C 	C 	0.02505 0.09744 0.66991 -0.04600
H 	H 	0.98343 0.11756 0.64669 0.08000
H 	H 	0.14091 0.79922 0.35199 0.01400
C 	C 	0.95016 0.12576 0.28164 -0.08300
H 	H 	0.97312 0.16753 0.26156 0.06200
C 	C 	0.97495 0.09744 0.33009 0.11900
H 	H 	0.01657 0.11756 0.35331 -0.03400
H 	H 	0.85911 0.35168 0.20062 0.02000
C 	C 	0.04984 0.28164 0.87424 -0.04200
H 	H 	0.02688 0.26156 0.83247 0.02900
C 	C 	0.02505 0.33009 0.90256 -0.02400
H 	H 	0.98343 0.35331 0.88244 0.08000
H 	H 	0.14089 0.64832 0.20062 0.01800
C 	C 	0.95016 0.71836 0.87424 -0.09000
H 	H 	0.97312 0.73844 0.83247 0.07100
C 	C 	0.97495 0.66991 0.90256 0.13600
H 	H 	0.01657 0.64669 0.88244 -0.02700
H 	H 	0.85911 0.64832 0.79938 0.02300
C 	C 	0.04984 0.71836 0.12576 -0.02800
H 	H 	0.02688 0.73844 0.16753 0.02300
C 	C 	0.02505 0.66991 0.09744 -0.04600
H 	H 	0.98343 0.64669 0.11756 0.08000
H 	H 	0.14089 0.35168 0.79938 0.01400
C 	C 	0.95016 0.28164 0.12576 -0.08300
H 	H 	0.97312 0.26156 0.16753 0.06200
C 	C 	0.97495 0.33009 0.09744 0.11900
H 	H 	0.01657 0.35331 0.11756 -0.03400
H 	H 	0.35168 0.20062 0.85911 0.02100
C 	C 	0.28164 0.87424 0.04984 -0.04200
H 	H 	0.26156 0.83247 0.02688 0.02800
C 	C 	0.33009 0.90256 0.02505 -0.02400
H 	H 	0.35331 0.88244 0.98343 0.08000
H 	H 	0.64832 0.20062 0.14089 0.01500
C 	C 	0.71836 0.87424 0.95016 -0.09000
H 	H 	0.73844 0.83247 0.97312 0.07100
C 	C 	0.66991 0.90256 0.97495 0.13600
H 	H 	0.64669 0.88244 0.01657 -0.02700
H 	H 	0.64832 0.79938 0.85911 0.02300
C 	C 	0.71836 0.12576 0.04984 -0.02800
H 	H 	0.73844 0.16753 0.02688 0.02300
C 	C 	0.66991 0.09744 0.02505 -0.04600
H 	H 	0.64669 0.11756 0.98343 0.08000
H 	H 	0.35168 0.79938 0.14089 0.01700
C 	C 	0.28164 0.12576 0.95016 -0.08300
H 	H 	0.26156 0.16753 0.97312 0.06200
C 	C 	0.33009 0.09744 0.97495 0.11900
H 	H 	0.35331 0.11756 0.01657 -0.03400
H 	H 	0.20062 0.85911 0.35168 0.02100
C 	C 	0.87424 0.04984 0.28164 -0.04200
H 	H 	0.83247 0.02688 0.26156 0.02900
C 	C 	0.90256 0.02505 0.33009 -0.02400
H 	H 	0.88244 0.98343 0.35331 0.08000
H 	H 	0.20062 0.14089 0.64832 0.01700
C 	C 	0.87424 0.95016 0.71836 -0.09000
H 	H 	0.83247 0.97312 0.73844 0.07100
C 	C 	0.90256 0.97495 0.66991 0.13600
H 	H 	0.88244 0.01657 0.64669 -0.02700
H 	H 	0.79938 0.85911 0.64832 0.02300
C 	C 	0.12576 0.04984 0.71836 -0.02700
H 	H 	0.16753 0.02688 0.73844 0.02300
C 	C 	0.09744 0.02505 0.66991 -0.04600
H 	H 	0.11756 0.98343 0.64669 0.08000
H 	H 	0.79938 0.14089 0.35168 0.01500
C 	C 	0.12576 0.95016 0.28164 -0.08300
H 	H 	0.16753 0.97312 0.26156 0.06200
C 	C 	0.09744 0.97495 0.33009 0.11900
H 	H 	0.11756 0.01657 0.35331 -0.03400
Ni	Ni	0.42386 0.00000 -0.00000 1.05100
Ni	Ni	0.57614 0.00000 -0.00000 1.05100
Ni	Ni	0.00000 0.42386 -0.00000 1.05100
Ni	Ni	-0.00000 0.57614 -0.00000 1.05100
Ni	Ni	0.00000 0.00000 0.42386 1.05100
Ni	Ni	0.00000 0.00000 0.57614 1.05100
O 	O 	0.47298 0.93805 0.06195 -0.39100
N 	N 	0.35248 0.04677 0.95323 -0.19700
C 	C 	0.29826 0.77782 0.22218 -0.06800
O 	O 	0.40651 0.78300 0.21700 -0.22500
C 	C 	0.20312 0.13134 0.86866 0.11700
O 	O 	0.57343 0.93552 0.06448 -0.40700
C 	C 	0.52172 0.91774 0.08226 0.35800
C 	C 	0.35312 0.80815 0.19185 0.06000
C 	C 	0.25695 0.10330 0.89670 0.00400
C 	C 	0.52020 0.87019 0.12981 -0.07000
C 	C 	0.46375 0.85066 0.14934 -0.06000
H 	H 	0.42083 0.87108 0.12892 0.05800
C 	C 	0.45934 0.80465 0.19535 0.15100
C 	C 	0.51140 0.78228 0.21772 -0.09300
H 	H 	0.51024 0.74571 0.25429 0.06200
C 	C 	0.56850 0.80109 0.19891 -0.00900
H 	H 	0.61086 0.78010 0.21990 0.03000
C 	C 	0.57160 0.84650 0.15350 -0.00800
H 	H 	0.61773 0.86305 0.13695 0.04100
O 	O 	0.52702 0.06195 0.06195 -0.42900
N 	N 	0.64752 0.95323 0.95323 -0.20200
C 	C 	0.70174 0.22218 0.22218 -0.06700
O 	O 	0.59349 0.21700 0.21700 -0.22600
C 	C 	0.79688 0.86866 0.86866 0.12100
O 	O 	0.42657 0.06448 0.06448 -0.44100
C 	C 	0.47828 0.08226 0.08226 0.36000
C 	C 	0.64688 0.19185 0.19185 0.06300
C 	C 	0.74305 0.89670 0.89670 0.03700
C 	C 	0.47980 0.12981 0.12981 -0.08100
C 	C 	0.53625 0.14934 0.14934 -0.06400
H 	H 	0.57917 0.12892 0.12892 0.05500
C 	C 	0.54066 0.19535 0.19535 0.14700
C 	C 	0.48860 0.21772 0.21772 -0.09500
H 	H 	0.48976 0.25429 0.25429 0.05800
C 	C 	0.43150 0.19891 0.19891 -0.01700
H 	H 	0.38914 0.21990 0.21990 0.02100
C 	C 	0.42840 0.15350 0.15350 -0.01100
H 	H 	0.38227 0.13695 0.13695 0.02900
O 	O 	0.52702 0.93805 0.93805 -0.35700
N 	N 	0.64752 0.04677 0.04677 -0.19200
C 	C 	0.70174 0.77782 0.77782 -0.06900
O 	O 	0.59349 0.78300 0.78300 -0.22300
C 	C 	0.79688 0.13134 0.13134 0.12400
O 	O 	0.42657 0.93552 0.93552 -0.37600
C 	C 	0.47828 0.91774 0.91774 0.35600
C 	C 	0.64688 0.80815 0.80815 0.05700
C 	C 	0.74305 0.10330 0.10330 -0.02700
C 	C 	0.47980 0.87019 0.87019 -0.06000
C 	C 	0.53625 0.85066 0.85066 -0.05700
H 	H 	0.57917 0.87108 0.87108 0.06200
C 	C 	0.54066 0.80465 0.80465 0.15400
C 	C 	0.48860 0.78228 0.78228 -0.09100
H 	H 	0.48976 0.74571 0.74571 0.06600
C 	C 	0.43150 0.80109 0.80109 -0.00300
H 	H 	0.38914 0.78010 0.78010 0.03400
C 	C 	0.42840 0.84650 0.84650 -0.00600
H 	H 	0.38227 0.86305 0.86305 0.04800
O 	O 	0.47298 0.06195 0.93805 -0.39100
N 	N 	0.35248 0.95323 0.04677 -0.19700
C 	C 	0.29826 0.22218 0.77782 -0.06800
O 	O 	0.40651 0.21700 0.78300 -0.22500
C 	C 	0.20312 0.86866 0.13134 0.11700
O 	O 	0.57343 0.06448 0.93552 -0.40700
C 	C 	0.52172 0.08226 0.91774 0.35800
C 	C 	0.35312 0.19185 0.80815 0.06000
C 	C 	0.25695 0.89670 0.10330 0.00400
C 	C 	0.52020 0.12981 0.87019 -0.07000
C 	C 	0.46375 0.14934 0.85066 -0.06000
H 	H 	0.42083 0.12892 0.87108 0.05800
C 	C 	0.45934 0.19535 0.80465 0.15100
C 	C 	0.51140 0.21772 0.78228 -0.09300
H 	H 	0.51024 0.25429 0.74571 0.06200
C 	C 	0.56850 0.19891 0.80109 -0.00900
H 	H 	0.61086 0.21990 0.78010 0.03000
C 	C 	0.57160 0.15350 0.84650 -0.00800
H 	H 	0.61773 0.13695 0.86305 0.04100
O 	O 	0.06195 0.47298 0.93805 -0.39100
N 	N 	0.95323 0.35248 0.04677 -0.19700
C 	C 	0.22218 0.29826 0.77782 -0.06800
O 	O 	0.21700 0.40651 0.78300 -0.22400
C 	C 	0.86866 0.20312 0.13134 0.11700
O 	O 	0.06448 0.57343 0.93552 -0.40700
C 	C 	0.08226 0.52172 0.91774 0.35800
C 	C 	0.19185 0.35312 0.80815 0.06100
C 	C 	0.89670 0.25695 0.10330 0.00500
C 	C 	0.12981 0.52020 0.87019 -0.07000
C 	C 	0.14934 0.46375 0.85066 -0.06000
H 	H 	0.12892 0.42083 0.87108 0.05800
C 	C 	0.19535 0.45934 0.80465 0.15100
C 	C 	0.21772 0.51140 0.78228 -0.09300
H 	H 	0.25429 0.51024 0.74571 0.06200
C 	C 	0.19891 0.56850 0.80109 -0.00900
H 	H 	0.21990 0.61086 0.78010 0.03000
C 	C 	0.15350 0.57160 0.84650 -0.00800
H 	H 	0.13695 0.61773 0.86305 0.04100
O 	O 	0.06195 0.52702 0.06195 -0.42900
N 	N 	0.95323 0.64752 0.95323 -0.20200
C 	C 	0.22218 0.70174 0.22218 -0.06800
O 	O 	0.21700 0.59349 0.21700 -0.22800
C 	C 	0.86866 0.79688 0.86866 0.12100
O 	O 	0.06448 0.42657 0.06448 -0.44100
C 	C 	0.08226 0.47828 0.08226 0.36000
C 	C 	0.19185 0.64688 0.19185 0.06000
C 	C 	0.89670 0.74305 0.89670 0.03700
C 	C 	0.12981 0.47980 0.12981 -0.08100
C 	C 	0.14934 0.53625 0.14934 -0.06400
H 	H 	0.12892 0.57917 0.12892 0.05500
C 	C 	0.19535 0.54066 0.19535 0.14600
C 	C 	0.21772 0.48860 0.21772 -0.09600
H 	H 	0.25429 0.48976 0.25429 0.05800
C 	C 	0.19891 0.43150 0.19891 -0.01700
H 	H 	0.21990 0.38914 0.21990 0.02100
C 	C 	0.15350 0.42840 0.15350 -0.01100
H 	H 	0.13695 0.38227 0.13695 0.02900
O 	O 	0.93805 0.52702 0.93805 -0.35700
N 	N 	0.04677 0.64752 0.04677 -0.19200
C 	C 	0.77782 0.70174 0.77782 -0.06900
O 	O 	0.78300 0.59349 0.78300 -0.22300
C 	C 	0.13134 0.79688 0.13134 0.12400
O 	O 	0.93552 0.42657 0.93552 -0.37600
C 	C 	0.91774 0.47828 0.91774 0.35600
C 	C 	0.80815 0.64688 0.80815 0.05700
C 	C 	0.10330 0.74305 0.10330 -0.02700
C 	C 	0.87019 0.47980 0.87019 -0.06000
C 	C 	0.85066 0.53625 0.85066 -0.05700
H 	H 	0.87108 0.57917 0.87108 0.06200
C 	C 	0.80465 0.54066 0.80465 0.15400
C 	C 	0.78228 0.48860 0.78228 -0.09100
H 	H 	0.74571 0.48976 0.74571 0.06600
C 	C 	0.80109 0.43150 0.80109 -0.00300
H 	H 	0.78010 0.38914 0.78010 0.03400
C 	C 	0.84650 0.42840 0.84650 -0.00600
H 	H 	0.86305 0.38227 0.86305 0.04800
O 	O 	0.93805 0.47298 0.06195 -0.39100
N 	N 	0.04677 0.35248 0.95323 -0.19700
C 	C 	0.77782 0.29826 0.22218 -0.06700
O 	O 	0.78300 0.40651 0.21700 -0.22400
C 	C 	0.13134 0.20312 0.86866 0.11800
O 	O 	0.93552 0.57343 0.06448 -0.40700
C 	C 	0.91774 0.52172 0.08226 0.35800
C 	C 	0.80815 0.35312 0.19185 0.06200
C 	C 	0.10330 0.25695 0.89670 0.00500
C 	C 	0.87019 0.52020 0.12981 -0.07000
C 	C 	0.85066 0.46375 0.14934 -0.06000
H 	H 	0.87108 0.42083 0.12892 0.05800
C 	C 	0.80465 0.45934 0.19535 0.15100
C 	C 	0.78228 0.51140 0.21772 -0.09300
H 	H 	0.74571 0.51024 0.25429 0.06200
C 	C 	0.80109 0.56850 0.19891 -0.00900
H 	H 	0.78010 0.61086 0.21990 0.03000
C 	C 	0.84650 0.57160 0.15350 -0.00800
H 	H 	0.86305 0.61773 0.13695 0.04100
O 	O 	0.93805 0.06195 0.47298 -0.39100
N 	N 	0.04677 0.95323 0.35248 -0.19700
C 	C 	0.77782 0.22218 0.29826 -0.06700
O 	O 	0.78300 0.21700 0.40651 -0.22400
C 	C 	0.13134 0.86866 0.20312 0.11800
O 	O 	0.93552 0.06448 0.57343 -0.40700
C 	C 	0.91774 0.08226 0.52172 0.35800
C 	C 	0.80815 0.19185 0.35312 0.06200
C 	C 	0.10330 0.89670 0.25695 0.00500
C 	C 	0.87019 0.12981 0.52020 -0.07000
C 	C 	0.85066 0.14934 0.46375 -0.06000
H 	H 	0.87108 0.12892 0.42083 0.05800
C 	C 	0.80465 0.19535 0.45934 0.15100
C 	C 	0.78228 0.21772 0.51140 -0.09300
H 	H 	0.74571 0.25429 0.51024 0.06200
C 	C 	0.80109 0.19891 0.56850 -0.00900
H 	H 	0.78010 0.21990 0.61086 0.03000
C 	C 	0.84650 0.15350 0.57160 -0.00800
H 	H 	0.86305 0.13695 0.61773 0.04100
O 	O 	0.06195 0.06195 0.52702 -0.42900
N 	N 	0.95323 0.95323 0.64752 -0.20200
C 	C 	0.22218 0.22218 0.70174 -0.06800
O 	O 	0.21700 0.21700 0.59349 -0.22800
C 	C 	0.86866 0.86866 0.79688 0.12100
O 	O 	0.06448 0.06448 0.42657 -0.44100
C 	C 	0.08226 0.08226 0.47828 0.36000
C 	C 	0.19185 0.19185 0.64688 0.06000
C 	C 	0.89670 0.89670 0.74305 0.03700
C 	C 	0.12981 0.12981 0.47980 -0.08100
C 	C 	0.14934 0.14934 0.53625 -0.06400
H 	H 	0.12892 0.12892 0.57917 0.05500
C 	C 	0.19535 0.19535 0.54066 0.14600
C 	C 	0.21772 0.21772 0.48860 -0.09600
H 	H 	0.25429 0.25429 0.48976 0.05800
C 	C 	0.19891 0.19891 0.43150 -0.01700
H 	H 	0.21990 0.21990 0.38914 0.02100
C 	C 	0.15350 0.15350 0.42840 -0.01100
H 	H 	0.13695 0.13695 0.38227 0.02900
O 	O 	0.93805 0.93805 0.52702 -0.35700
N 	N 	0.04677 0.04677 0.64752 -0.19200
C 	C 	0.77782 0.77782 0.70174 -0.06900
O 	O 	0.78300 0.78300 0.59349 -0.22300
C 	C 	0.13134 0.13134 0.79688 0.12400
O 	O 	0.93552 0.93552 0.42657 -0.37600
C 	C 	0.91774 0.91774 0.47828 0.35600
C 	C 	0.80815 0.80815 0.64688 0.05700
C 	C 	0.10330 0.10330 0.74305 -0.02700
C 	C 	0.87019 0.87019 0.47980 -0.06000
C 	C 	0.85066 0.85066 0.53625 -0.05700
H 	H 	0.87108 0.87108 0.57917 0.06200
C 	C 	0.80465 0.80465 0.54066 0.15400
C 	C 	0.78228 0.78228 0.48860 -0.09100
H 	H 	0.74571 0.74571 0.48976 0.06600
C 	C 	0.80109 0.80109 0.43150 -0.00300
H 	H 	0.78010 0.78010 0.38914 0.03400
C 	C 	0.84650 0.84650 0.42840 -0.00600
H 	H 	0.86305 0.86305 0.38227 0.04800
O 	O 	0.06195 0.93805 0.47298 -0.39100
N 	N 	0.95323 0.04677 0.35248 -0.19700
C 	C 	0.22218 0.77782 0.29826 -0.06800
O 	O 	0.21700 0.78300 0.40651 -0.22400
C 	C 	0.86866 0.13134 0.20312 0.11700
O 	O 	0.06448 0.93552 0.57343 -0.40700
C 	C 	0.08226 0.91774 0.52172 0.35800
C 	C 	0.19185 0.80815 0.35312 0.06100
C 	C 	0.89670 0.10330 0.25695 0.00500
C 	C 	0.12981 0.87019 0.52020 -0.07000
C 	C 	0.14934 0.85066 0.46375 -0.06000
H 	H 	0.12892 0.87108 0.42083 0.05800
C 	C 	0.19535 0.80465 0.45934 0.15100
C 	C 	0.21772 0.78228 0.51140 -0.09300
H 	H 	0.25429 0.74571 0.51024 0.06200
C 	C 	0.19891 0.80109 0.56850 -0.00900
H 	H 	0.21990 0.78010 0.61086 0.03000
C 	C 	0.15350 0.84650 0.57160 -0.00800
H 	H 	0.13695 0.86305 0.61773 0.04100
C 	C 	0.27363 0.72637 0.19614 0.08400
C 	C 	0.30172 0.69828 0.13987 -0.17400
C 	C 	0.72637 0.27363 0.19614 0.08200
C 	C 	0.69828 0.30172 0.13987 -0.16600
C 	C 	0.72637 0.72637 0.80386 0.08700
C 	C 	0.69828 0.69828 0.86013 -0.17900
C 	C 	0.27363 0.27363 0.80386 0.08500
C 	C 	0.30172 0.30172 0.86013 -0.17100
C 	C 	0.19614 0.27363 0.72637 0.08300
C 	C 	0.13987 0.30172 0.69828 -0.17000
C 	C 	0.19614 0.72637 0.27363 0.08300
C 	C 	0.13987 0.69828 0.30172 -0.17000
C 	C 	0.80386 0.72637 0.72637 0.08700
C 	C 	0.86013 0.69828 0.69828 -0.17900
C 	C 	0.80386 0.27363 0.27363 0.08500
C 	C 	0.86013 0.30172 0.30172 -0.17100
C 	C 	0.72637 0.19614 0.27363 0.08200
C 	C 	0.69828 0.13987 0.30172 -0.16600
C 	C 	0.27363 0.19614 0.72637 0.08400
C 	C 	0.30172 0.13987 0.69828 -0.17400
C 	C 	0.72637 0.80386 0.72637 0.08700
C 	C 	0.69828 0.86013 0.69828 -0.17900
C 	C 	0.27363 0.80386 0.27363 0.08500
C 	C 	0.30172 0.86013 0.30172 -0.17100
N 	N 	0.18025 0.18025 0.89489 -0.14800
N 	N 	0.81975 0.81975 0.89489 -0.14200
N 	N 	0.81975 0.18025 0.10511 -0.15300
N 	N 	0.18025 0.81975 0.10511 -0.15400
N 	N 	0.89489 0.18025 0.18025 -0.14800
N 	N 	0.89489 0.81975 0.81975 -0.14200
N 	N 	0.10511 0.81975 0.18025 -0.15400
N 	N 	0.10511 0.18025 0.81975 -0.15400
N 	N 	0.18025 0.89489 0.18025 -0.14800
N 	N 	0.81975 0.89489 0.81975 -0.14200
N 	N 	0.18025 0.10511 0.81975 -0.15400
N 	N 	0.81975 0.10511 0.18025 -0.15300
H 	H 	0.28149 0.72031 0.09767 0.05800
H 	H 	0.29190 0.64750 0.13921 0.06900
H 	H 	0.35287 0.70594 0.14048 0.06900
H 	H 	0.67552 0.26479 0.11169 0.05800
H 	H 	0.73519 0.32458 0.11175 0.05800
H 	H 	0.66303 0.33688 0.15391 0.06900
H 	H 	0.70697 0.64729 0.86012 0.08100
H 	H 	0.64731 0.70708 0.86018 0.08100
H 	H 	0.71946 0.71937 0.90234 0.07100
H 	H 	0.33602 0.33781 0.84610 0.08100
H 	H 	0.32561 0.26500 0.88764 0.07200
H 	H 	0.26463 0.32344 0.88891 0.07100
H 	H 	0.10143 0.26711 0.69840 0.05700
H 	H 	0.15014 0.31591 0.64961 0.07000
H 	H 	0.12578 0.34324 0.72573 0.06400
H 	H 	0.15014 0.64961 0.31591 0.07000
H 	H 	0.10143 0.69840 0.26711 0.05700
H 	H 	0.12578 0.72573 0.34324 0.06400
H 	H 	0.86015 0.70703 0.64730 0.08100
H 	H 	0.86015 0.64730 0.70703 0.08100
H 	H 	0.90234 0.71942 0.71942 0.07100
H 	H 	0.88828 0.32453 0.26480 0.07100
H 	H 	0.88828 0.26480 0.32453 0.07100
H 	H 	0.84609 0.33692 0.33692 0.08100
H 	H 	0.73519 0.11175 0.32458 0.05800
H 	H 	0.67552 0.11169 0.26479 0.05800
H 	H 	0.66303 0.15391 0.33688 0.06900
H 	H 	0.29190 0.13921 0.64750 0.06900
H 	H 	0.28149 0.09767 0.72031 0.05800
H 	H 	0.35287 0.14048 0.70594 0.06900
H 	H 	0.64731 0.86018 0.70708 0.08100
H 	H 	0.70697 0.86012 0.64729 0.08100
H 	H 	0.71946 0.90234 0.71937 0.07100
H 	H 	0.32561 0.88764 0.26500 0.07200
H 	H 	0.33602 0.84610 0.33781 0.08100
H 	H 	0.26463 0.88891 0.32344 0.07100
