data_crystal

_cell_length_a 12.29500
_cell_length_b 30.75470
_cell_length_c 24.76490
_cell_angle_alpha 90.00000
_cell_angle_beta  97.53000
_cell_angle_gamma 90.00000

_symmetry_space_group_name_	'P 1'
_symmetry_space_group_name_H-M	'P 1'

loop_
_symmetry_equiv_pos_as_xyz
  x,y,z

loop_
_atom_site_label
_atom_site_type_symbol
_atom_site_fract_x
_atom_site_fract_y
_atom_site_fract_z
_atom_site_charge
Zn	Zn	0.58151 0.26267 0.20692 1.21000
Zn	Zn	0.37930 0.27096 0.25387 1.21000
Zn	Zn	0.78026 0.14301 0.06244 1.23100
Zn	Zn	0.68886 0.12964 0.92093 1.20500
N 	N 	0.71960 0.25248 0.16870 -0.20200
N 	N 	0.80060 0.20387 0.10620 -0.19100
N 	N 	0.91880 0.24150 0.17950 -0.09800
N 	N 	0.82740 0.28251 0.10190 -0.09600
C 	C 	0.70640 0.21190 0.13660 -0.03000
H 	H 	0.63830 0.21360 0.11050 0.03500
H 	H 	0.69890 0.18710 0.16130 0.02800
C 	C 	0.82440 0.24850 0.20790 -0.01400
H 	H 	0.83540 0.27530 0.23000 0.03600
H 	H 	0.81760 0.22380 0.23300 0.03300
C 	C 	0.73380 0.28940 0.13150 -0.01900
H 	H 	0.66640 0.29270 0.10520 0.04000
H 	H 	0.74480 0.31650 0.15300 0.04000
C 	C 	0.90160 0.20130 0.14770 -0.01200
H 	H 	0.89420 0.17660 0.17260 0.02700
H 	H 	0.96640 0.19570 0.12880 0.03400
C 	C 	0.92660 0.27750 0.14230 0.00100
H 	H 	0.99100 0.27300 0.12280 0.03700
H 	H 	0.93860 0.30470 0.16360 0.04100
C 	C 	0.81210 0.24200 0.07060 -0.01100
H 	H 	0.87590 0.23740 0.05060 0.04200
H 	H 	0.74570 0.24450 0.04350 0.03000
N 	N 	0.24080 0.27765 0.29200 -0.19900
N 	N 	0.16400 0.31662 0.36430 -0.18400
N 	N 	0.13600 0.23820 0.35360 -0.09400
N 	N 	0.04250 0.28800 0.28630 -0.09600
C 	C 	0.25700 0.31370 0.33220 -0.04200
H 	H 	0.32570 0.30880 0.35710 0.04300
H 	H 	0.26420 0.34150 0.31290 0.05200
C 	C 	0.13590 0.28580 0.25510 -0.01300
H 	H 	0.14160 0.31340 0.23530 0.03800
H 	H 	0.12370 0.26210 0.22790 0.03700
C 	C 	0.22890 0.23630 0.32230 -0.02900
H 	H 	0.21820 0.21190 0.29610 0.04400
H 	H 	0.29700 0.23080 0.34730 0.04400
C 	C 	0.15460 0.27390 0.39230 -0.01300
H 	H 	0.22280 0.26840 0.41740 0.03100
H 	H 	0.09300 0.27530 0.41440 0.04000
C 	C 	0.03670 0.24730 0.31560 0.00200
H 	H 	0.02440 0.22320 0.28900 0.04000
H 	H 	0.97300 0.24830 0.33630 0.03700
C 	C 	0.06150 0.32350 0.32620 -0.01800
H 	H 	0.99850 0.32540 0.34720 0.03200
H 	H 	0.06660 0.35140 0.30670 0.04400
O 	O 	0.52890 0.19973 0.20930 -0.46900
O 	O 	0.36120 0.20706 0.23440 -0.46500
C 	C 	0.43700 0.18560 0.21800 0.38900
C 	C 	0.41630 0.13820 0.20790 -0.11100
C 	C 	0.49310 0.11300 0.18670 0.00200
H 	H 	0.56070 0.12580 0.18050 0.04500
C 	C 	0.47390 0.06890 0.17410 -0.02300
C 	C 	0.55090 0.04330 0.15110 -0.02500
H 	H 	0.61740 0.05610 0.14330 0.04700
C 	C 	0.53150 0.00090 0.14010 -0.07400
H 	H 	0.58570 0.98380 0.12600 0.06100
C 	C 	0.43210 0.98160 0.14930 0.05400
C 	C 	0.35610 0.00530 0.17170 -0.13000
H 	H 	0.28980 0.99200 0.17880 0.10100
C 	C 	0.37530 0.05000 0.18470 0.08200
C 	C 	0.29560 0.07630 0.20540 -0.12500
H 	H 	0.22740 0.06400 0.21130 0.07500
C 	C 	0.31580 0.11920 0.21690 0.04500
H 	H 	0.26190 0.13630 0.23120 0.02800
C 	C 	0.41800 0.93610 0.12750 -0.10900
O 	O 	0.32500 0.92100 0.12880 0.59500
O 	O 	0.49500 0.91510 0.11250 0.11100
O 	O 	0.63660 0.25657 0.28759 -0.48600
O 	O 	0.48420 0.25300 0.32391 -0.46200
C 	C 	0.58560 0.25230 0.32650 0.42300
C 	C 	0.65320 0.24650 0.38100 -0.10800
C 	C 	0.76760 0.25300 0.38580 0.03400
H 	H 	0.80010 0.26090 0.35440 0.03000
C 	C 	0.83250 0.24840 0.43450 -0.09800
H 	H 	0.90950 0.25280 0.43670 0.06700
C 	C 	0.78620 0.23710 0.48160 0.03700
C 	C 	0.85070 0.23330 0.53340 -0.03700
H 	H 	0.92770 0.23790 0.53620 0.05900
C 	C 	0.80560 0.22320 0.57880 -0.07400
C 	C 	0.69110 0.21400 0.57460 0.00600
H 	H 	0.65950 0.20560 0.60600 0.04000
C 	C 	0.62640 0.21730 0.52500 -0.07500
H 	H 	0.55020 0.21130 0.52260 0.05800
C 	C 	0.67130 0.22940 0.47780 0.01500
C 	C 	0.60590 0.23480 0.42630 -0.01300
H 	H 	0.52890 0.23020 0.42320 0.05000
C 	C 	0.87290 0.22290 0.63450 0.36600
O 	O 	0.82230 0.21533 0.67482 -0.45700
O 	O 	0.97410 0.23083 0.63720 -0.45700
O 	O 	0.59350 0.32791 0.21953 -0.45500
O 	O 	0.44640 0.33063 0.26400 -0.46600
C 	C 	0.53260 0.34650 0.24900 0.36400
C 	C 	0.56200 0.39180 0.26880 -0.04300
C 	C 	0.66560 0.40970 0.26140 -0.03400
H 	H 	0.71620 0.39330 0.24370 0.05500
C 	C 	0.69180 0.45080 0.27990 -0.02200
H 	H 	0.76050 0.46290 0.27430 0.04000
C 	C 	0.62030 0.47530 0.30680 -0.06900
C 	C 	0.64440 0.51730 0.32690 0.09900
H 	H 	0.71190 0.53020 0.32080 -0.00100
C 	C 	0.57580 0.54040 0.35480 -0.28500
C 	C 	0.47660 0.52140 0.36350 0.16000
H 	H 	0.42740 0.53710 0.38270 -0.02200
C 	C 	0.44900 0.48080 0.34490 -0.20400
H 	H 	0.38130 0.46840 0.35170 0.11900
C 	C 	0.51960 0.45680 0.31580 0.11600
C 	C 	0.49260 0.41470 0.29580 -0.09400
H 	H 	0.42420 0.40230 0.30130 0.09300
C 	C 	0.60390 0.58370 0.38090 0.40000
O 	O 	0.52260 0.60420 0.39680 0.05600
O 	O 	0.69780 0.59590 0.38340 -0.72100
O 	O 	0.87050 0.16596 0.00920 -0.50100
O 	O 	0.85000 0.13515 0.92695 -0.48800
C 	C 	0.90690 0.14980 0.96800 0.38900
C 	C 	0.02830 0.14860 0.96800 -0.09400
C 	C 	0.09780 0.15420 0.01580 -0.02800
H 	H 	0.06840 0.15910 0.04880 0.05400
C 	C 	0.21200 0.15250 0.01580 0.02900
C 	C 	0.28530 0.15810 0.06440 -0.08900
H 	H 	0.25730 0.16240 0.09800 0.06600
C 	C 	0.39570 0.15720 0.06330 0.02800
H 	H 	0.44410 0.16070 0.09610 0.03900
C 	C 	0.43890 0.15110 0.01360 -0.10300
C 	C 	0.37030 0.14460 0.96610 -0.02200
H 	H 	0.40020 0.13970 0.93320 0.04500
C 	C 	0.25430 0.14510 0.96580 0.02100
C 	C 	0.18160 0.13880 0.91730 -0.08200
H 	H 	0.20950 0.13330 0.88390 0.06300
C 	C 	0.07090 0.14060 0.91870 0.02000
H 	H 	0.02210 0.13640 0.88610 0.04500
C 	C 	0.55930 0.15150 0.01150 0.38800
O 	O 	0.59560 0.15999 0.96850 -0.51700
O 	O 	0.61900 0.14480 0.05700 -0.47700
C 	C 	0.38800 0.93670 0.13300 0.18900
O 	O 	0.30100 0.92010 0.14500 -0.89800
O 	O 	0.43000 0.91350 0.10010 -0.49500
C 	C 	0.63300 0.58260 0.37400 0.30000
O 	O 	0.58700 0.60510 0.40590 -0.57400
O 	O 	0.71600 0.60160 0.35720 0.17300
Zn	Zn	0.91849 0.76267 0.29308 1.21100
Zn	Zn	0.12070 0.77096 0.24613 1.21100
Zn	Zn	0.71974 0.64301 0.43756 1.23200
Zn	Zn	0.81114 0.62964 0.57907 1.20600
N 	N 	0.78040 0.75248 0.33130 -0.20100
N 	N 	0.69940 0.70387 0.39380 -0.19000
N 	N 	0.58120 0.74150 0.32050 -0.09700
N 	N 	0.67260 0.78251 0.39810 -0.09600
C 	C 	0.79360 0.71190 0.36340 -0.02900
H 	H 	0.86170 0.71360 0.38950 0.03600
H 	H 	0.80110 0.68710 0.33870 0.02900
C 	C 	0.67560 0.74850 0.29210 -0.01300
H 	H 	0.66460 0.77530 0.27000 0.03700
H 	H 	0.68240 0.72380 0.26700 0.03300
C 	C 	0.76620 0.78940 0.36850 -0.01900
H 	H 	0.83360 0.79270 0.39480 0.03900
H 	H 	0.75520 0.81650 0.34700 0.04000
C 	C 	0.59840 0.70130 0.35230 -0.01200
H 	H 	0.60580 0.67660 0.32740 0.02700
H 	H 	0.53360 0.69570 0.37120 0.03400
C 	C 	0.57340 0.77750 0.35770 0.00100
H 	H 	0.50900 0.77300 0.37720 0.03700
H 	H 	0.56140 0.80470 0.33640 0.04100
C 	C 	0.68790 0.74200 0.42940 -0.01100
H 	H 	0.62410 0.73740 0.44940 0.04200
H 	H 	0.75430 0.74450 0.45650 0.03000
N 	N 	0.25920 0.77765 0.20800 -0.19900
N 	N 	0.33600 0.81662 0.13570 -0.18400
N 	N 	0.36400 0.73820 0.14640 -0.09400
N 	N 	0.45750 0.78800 0.21370 -0.09600
C 	C 	0.24300 0.81370 0.16780 -0.04200
H 	H 	0.17430 0.80880 0.14290 0.04300
H 	H 	0.23580 0.84150 0.18710 0.05200
C 	C 	0.36410 0.78580 0.24490 -0.01300
H 	H 	0.35840 0.81340 0.26470 0.03800
H 	H 	0.37630 0.76210 0.27210 0.03700
C 	C 	0.27110 0.73630 0.17770 -0.02900
H 	H 	0.28180 0.71190 0.20390 0.04400
H 	H 	0.20300 0.73080 0.15270 0.04400
C 	C 	0.34540 0.77390 0.10770 -0.01300
H 	H 	0.27720 0.76840 0.08260 0.03100
H 	H 	0.40700 0.77530 0.08560 0.04000
C 	C 	0.46330 0.74730 0.18440 0.00300
H 	H 	0.47560 0.72320 0.21100 0.04000
H 	H 	0.52700 0.74830 0.16370 0.03600
C 	C 	0.43850 0.82350 0.17380 -0.01700
H 	H 	0.50150 0.82540 0.15280 0.03200
H 	H 	0.43340 0.85140 0.19330 0.04300
O 	O 	0.97110 0.69973 0.29070 -0.47000
O 	O 	0.13880 0.70706 0.26560 -0.46600
C 	C 	0.06300 0.68560 0.28200 0.39100
C 	C 	0.08370 0.63820 0.29210 -0.11200
C 	C 	0.00690 0.61300 0.31330 0.00400
H 	H 	0.93930 0.62580 0.31950 0.04400
C 	C 	0.02610 0.56890 0.32590 -0.02300
C 	C 	0.94910 0.54330 0.34890 -0.02500
H 	H 	0.88260 0.55610 0.35670 0.04700
C 	C 	0.96850 0.50090 0.35990 -0.07500
H 	H 	0.91430 0.48380 0.37400 0.06200
C 	C 	0.06790 0.48160 0.35070 0.05400
C 	C 	0.14390 0.50530 0.32830 -0.12900
H 	H 	0.21020 0.49200 0.32120 0.10100
C 	C 	0.12470 0.55000 0.31530 0.08200
C 	C 	0.20440 0.57630 0.29460 -0.12600
H 	H 	0.27260 0.56400 0.28870 0.07500
C 	C 	0.18420 0.61920 0.28310 0.04600
H 	H 	0.23810 0.63630 0.26880 0.02800
C 	C 	0.08200 0.43610 0.37250 -0.10900
O 	O 	0.17500 0.42100 0.37120 0.59400
O 	O 	0.00500 0.41510 0.38750 0.11100
O 	O 	0.86340 0.75657 0.21241 -0.48600
O 	O 	0.01580 0.75300 0.17609 -0.46100
C 	C 	0.91440 0.75230 0.17350 0.42100
C 	C 	0.84680 0.74650 0.11900 -0.10700
C 	C 	0.73240 0.75300 0.11420 0.03400
H 	H 	0.69990 0.76090 0.14560 0.03000
C 	C 	0.66750 0.74840 0.06550 -0.09800
H 	H 	0.59050 0.75280 0.06330 0.06600
C 	C 	0.71380 0.73710 0.01840 0.03700
C 	C 	0.64930 0.73330 0.96660 -0.03700
H 	H 	0.57230 0.73790 0.96380 0.05900
C 	C 	0.69440 0.72320 0.92120 -0.07400
C 	C 	0.80890 0.71400 0.92540 0.00600
H 	H 	0.84050 0.70560 0.89400 0.04000
C 	C 	0.87360 0.71730 0.97500 -0.07500
H 	H 	0.94980 0.71130 0.97740 0.05800
C 	C 	0.82870 0.72940 0.02220 0.01500
C 	C 	0.89410 0.73480 0.07370 -0.01300
H 	H 	0.97110 0.73020 0.07680 0.05000
C 	C 	0.62710 0.72290 0.86550 0.36600
O 	O 	0.67770 0.71533 0.82518 -0.45800
O 	O 	0.52590 0.73083 0.86280 -0.45800
O 	O 	0.90650 0.82791 0.28047 -0.45500
O 	O 	0.05360 0.83063 0.23600 -0.46600
C 	C 	0.96740 0.84650 0.25100 0.36300
C 	C 	0.93800 0.89180 0.23120 -0.04700
C 	C 	0.83440 0.90970 0.23860 -0.03200
H 	H 	0.78380 0.89330 0.25630 0.05400
C 	C 	0.80820 0.95080 0.22010 -0.02400
H 	H 	0.73950 0.96290 0.22570 0.04100
C 	C 	0.87970 0.97530 0.19320 -0.06600
C 	C 	0.85560 0.01730 0.17310 0.09700
H 	H 	0.78810 0.03020 0.17920 -0.00000
C 	C 	0.92420 0.04040 0.14520 -0.28200
C 	C 	0.02340 0.02140 0.13650 0.15500
H 	H 	0.07260 0.03710 0.11730 -0.02100
C 	C 	0.05100 0.98080 0.15510 -0.19900
H 	H 	0.11870 0.96840 0.14830 0.11700
C 	C 	0.98040 0.95680 0.18420 0.11100
C 	C 	0.00740 0.91470 0.20420 -0.08900
H 	H 	0.07580 0.90230 0.19870 0.09100
C 	C 	0.89610 0.08370 0.11910 0.40000
O 	O 	0.97740 0.10420 0.10320 0.05600
O 	O 	0.80220 0.09590 0.11660 -0.72000
O 	O 	0.62950 0.66596 0.49080 -0.50100
O 	O 	0.65000 0.63515 0.57305 -0.48800
C 	C 	0.59310 0.64980 0.53200 0.38700
C 	C 	0.47170 0.64860 0.53200 -0.09200
C 	C 	0.40220 0.65420 0.48420 -0.02900
H 	H 	0.43160 0.65910 0.45120 0.05500
C 	C 	0.28800 0.65250 0.48420 0.03000
C 	C 	0.21470 0.65810 0.43560 -0.08900
H 	H 	0.24270 0.66240 0.40200 0.06700
C 	C 	0.10430 0.65720 0.43670 0.02800
H 	H 	0.05590 0.66070 0.40390 0.04000
C 	C 	0.06110 0.65110 0.48640 -0.10300
C 	C 	0.12970 0.64460 0.53390 -0.02200
H 	H 	0.09980 0.63970 0.56680 0.04500
C 	C 	0.24570 0.64510 0.53420 0.02100
C 	C 	0.31840 0.63880 0.58270 -0.08100
H 	H 	0.29050 0.63330 0.61610 0.06300
C 	C 	0.42910 0.64060 0.58130 0.01900
H 	H 	0.47790 0.63640 0.61390 0.04600
C 	C 	0.94070 0.65150 0.48850 0.38700
O 	O 	0.90440 0.65999 0.53150 -0.51700
O 	O 	0.88100 0.64480 0.44300 -0.47700
C 	C 	0.11200 0.43670 0.36700 0.18900
O 	O 	0.19900 0.42010 0.35500 -0.89800
O 	O 	0.07000 0.41350 0.39990 -0.49500
C 	C 	0.86700 0.08260 0.12600 0.30000
O 	O 	0.91300 0.10510 0.09410 -0.57400
O 	O 	0.78400 0.10160 0.14280 0.17300
Zn	Zn	0.41849 0.73733 0.79308 1.21100
Zn	Zn	0.62070 0.72904 0.74613 1.21100
Zn	Zn	0.21974 0.85699 0.93756 1.23200
Zn	Zn	0.31114 0.87036 0.07907 1.20600
N 	N 	0.28040 0.74752 0.83130 -0.20100
N 	N 	0.19940 0.79613 0.89380 -0.19000
N 	N 	0.08120 0.75850 0.82050 -0.09700
N 	N 	0.17260 0.71749 0.89810 -0.09500
C 	C 	0.29360 0.78810 0.86340 -0.02900
H 	H 	0.36170 0.78640 0.88950 0.03600
H 	H 	0.30110 0.81290 0.83870 0.02900
C 	C 	0.17560 0.75150 0.79210 -0.01300
H 	H 	0.16460 0.72470 0.77000 0.03700
H 	H 	0.18240 0.77620 0.76700 0.03400
C 	C 	0.26620 0.71060 0.86850 -0.01900
H 	H 	0.33360 0.70730 0.89480 0.04000
H 	H 	0.25520 0.68350 0.84700 0.04000
C 	C 	0.09840 0.79870 0.85230 -0.01200
H 	H 	0.10580 0.82340 0.82740 0.02700
H 	H 	0.03360 0.80430 0.87120 0.03400
C 	C 	0.07340 0.72250 0.85770 0.00100
H 	H 	0.00900 0.72700 0.87720 0.03700
H 	H 	0.06140 0.69530 0.83640 0.04100
C 	C 	0.18790 0.75800 0.92940 -0.01100
H 	H 	0.12410 0.76260 0.94940 0.04200
H 	H 	0.25430 0.75550 0.95650 0.03000
N 	N 	0.75920 0.72235 0.70800 -0.19900
N 	N 	0.83600 0.68338 0.63570 -0.18400
N 	N 	0.86400 0.76180 0.64640 -0.09400
N 	N 	0.95750 0.71200 0.71370 -0.09600
C 	C 	0.74300 0.68630 0.66780 -0.04200
H 	H 	0.67430 0.69120 0.64290 0.04300
H 	H 	0.73580 0.65850 0.68710 0.05200
C 	C 	0.86410 0.71420 0.74490 -0.01300
H 	H 	0.85840 0.68660 0.76470 0.03800
H 	H 	0.87630 0.73790 0.77210 0.03700
C 	C 	0.77110 0.76370 0.67770 -0.02900
H 	H 	0.78180 0.78810 0.70390 0.04400
H 	H 	0.70300 0.76920 0.65270 0.04400
C 	C 	0.84540 0.72610 0.60770 -0.01300
H 	H 	0.77720 0.73160 0.58260 0.03100
H 	H 	0.90700 0.72470 0.58560 0.04000
C 	C 	0.96330 0.75270 0.68440 0.00200
H 	H 	0.97560 0.77680 0.71100 0.04000
H 	H 	0.02700 0.75170 0.66370 0.03700
C 	C 	0.93850 0.67650 0.67380 -0.01800
H 	H 	0.00150 0.67460 0.65280 0.03200
H 	H 	0.93340 0.64860 0.69330 0.04400
O 	O 	0.47110 0.80027 0.79070 -0.46900
O 	O 	0.63880 0.79294 0.76560 -0.46500
C 	C 	0.56300 0.81440 0.78200 0.38900
C 	C 	0.58370 0.86180 0.79210 -0.11100
C 	C 	0.50690 0.88700 0.81330 0.00200
H 	H 	0.43930 0.87420 0.81950 0.04500
C 	C 	0.52610 0.93110 0.82590 -0.02300
C 	C 	0.44910 0.95670 0.84890 -0.02500
H 	H 	0.38260 0.94390 0.85670 0.04700
C 	C 	0.46850 0.99910 0.85990 -0.07400
H 	H 	0.41430 0.01620 0.87400 0.06100
C 	C 	0.56790 0.01840 0.85070 0.05400
C 	C 	0.64390 0.99470 0.82830 -0.13000
H 	H 	0.71020 0.00800 0.82120 0.10100
C 	C 	0.62470 0.95000 0.81530 0.08200
C 	C 	0.70440 0.92370 0.79460 -0.12500
H 	H 	0.77260 0.93600 0.78870 0.07500
C 	C 	0.68420 0.88080 0.78310 0.04500
H 	H 	0.73810 0.86370 0.76880 0.02800
C 	C 	0.58200 0.06390 0.87250 -0.10900
O 	O 	0.67500 0.07900 0.87120 0.59500
O 	O 	0.50500 0.08490 0.88750 0.11100
O 	O 	0.36340 0.74343 0.71241 -0.48600
O 	O 	0.51580 0.74700 0.67609 -0.46200
C 	C 	0.41440 0.74770 0.67350 0.42300
C 	C 	0.34680 0.75350 0.61900 -0.10800
C 	C 	0.23240 0.74700 0.61420 0.03400
H 	H 	0.19990 0.73910 0.64560 0.03000
C 	C 	0.16750 0.75160 0.56550 -0.09800
H 	H 	0.09050 0.74720 0.56330 0.06700
C 	C 	0.21380 0.76290 0.51840 0.03700
C 	C 	0.14930 0.76670 0.46660 -0.03700
H 	H 	0.07230 0.76210 0.46380 0.05900
C 	C 	0.19440 0.77680 0.42120 -0.07400
C 	C 	0.30890 0.78600 0.42540 0.00600
H 	H 	0.34050 0.79440 0.39400 0.04000
C 	C 	0.37360 0.78270 0.47500 -0.07500
H 	H 	0.44980 0.78870 0.47740 0.05800
C 	C 	0.32870 0.77060 0.52220 0.01500
C 	C 	0.39410 0.76520 0.57370 -0.01300
H 	H 	0.47110 0.76980 0.57680 0.05000
C 	C 	0.12710 0.77710 0.36550 0.36600
O 	O 	0.17770 0.78467 0.32518 -0.45700
O 	O 	0.02590 0.76917 0.36280 -0.45700
O 	O 	0.40650 0.67209 0.78047 -0.45500
O 	O 	0.55360 0.66937 0.73600 -0.46600
C 	C 	0.46740 0.65350 0.75100 0.36400
C 	C 	0.43800 0.60820 0.73120 -0.04300
C 	C 	0.33440 0.59030 0.73860 -0.03400
H 	H 	0.28380 0.60670 0.75630 0.05500
C 	C 	0.30820 0.54920 0.72010 -0.02200
H 	H 	0.23950 0.53710 0.72570 0.04000
C 	C 	0.37970 0.52470 0.69320 -0.06900
C 	C 	0.35560 0.48270 0.67310 0.09900
H 	H 	0.28810 0.46980 0.67920 -0.00100
C 	C 	0.42420 0.45960 0.64520 -0.28500
C 	C 	0.52340 0.47860 0.63650 0.16000
H 	H 	0.57260 0.46290 0.61730 -0.02200
C 	C 	0.55100 0.51920 0.65510 -0.20400
H 	H 	0.61870 0.53160 0.64830 0.11900
C 	C 	0.48040 0.54320 0.68420 0.11600
C 	C 	0.50740 0.58530 0.70420 -0.09400
H 	H 	0.57580 0.59770 0.69870 0.09300
C 	C 	0.39610 0.41630 0.61910 0.40000
O 	O 	0.47740 0.39580 0.60320 0.05600
O 	O 	0.30220 0.40410 0.61660 -0.72100
O 	O 	0.12950 0.83404 0.99080 -0.50100
O 	O 	0.15000 0.86485 0.07305 -0.48800
C 	C 	0.09310 0.85020 0.03200 0.38900
C 	C 	0.97170 0.85140 0.03200 -0.09400
C 	C 	0.90220 0.84580 0.98420 -0.02800
H 	H 	0.93160 0.84090 0.95120 0.05400
C 	C 	0.78800 0.84750 0.98420 0.02900
C 	C 	0.71470 0.84190 0.93560 -0.08900
H 	H 	0.74270 0.83760 0.90200 0.06600
C 	C 	0.60430 0.84280 0.93670 0.02800
H 	H 	0.55590 0.83930 0.90390 0.03900
C 	C 	0.56110 0.84890 0.98640 -0.10300
C 	C 	0.62970 0.85540 0.03390 -0.02200
H 	H 	0.59980 0.86030 0.06680 0.04500
C 	C 	0.74570 0.85490 0.03420 0.02100
C 	C 	0.81840 0.86120 0.08270 -0.08200
H 	H 	0.79050 0.86670 0.11610 0.06300
C 	C 	0.92910 0.85940 0.08130 0.02000
H 	H 	0.97790 0.86360 0.11390 0.04500
C 	C 	0.44070 0.84850 0.98850 0.38800
O 	O 	0.40440 0.84001 0.03150 -0.51700
O 	O 	0.38100 0.85520 0.94300 -0.47700
C 	C 	0.61200 0.06330 0.86700 0.18900
O 	O 	0.69900 0.07990 0.85500 -0.89800
O 	O 	0.57000 0.08650 0.89990 -0.49500
C 	C 	0.36700 0.41740 0.62600 0.30000
O 	O 	0.41300 0.39490 0.59410 -0.57400
O 	O 	0.28400 0.39840 0.64280 0.17300
Zn	Zn	0.08151 0.23733 0.70692 1.21100
Zn	Zn	0.87930 0.22904 0.75387 1.21100
Zn	Zn	0.28026 0.35699 0.56244 1.23200
Zn	Zn	0.18886 0.37036 0.42093 1.20600
N 	N 	0.21960 0.24752 0.66870 -0.20100
N 	N 	0.30060 0.29613 0.60620 -0.19000
N 	N 	0.41880 0.25850 0.67950 -0.09700
N 	N 	0.32740 0.21749 0.60190 -0.09600
C 	C 	0.20640 0.28810 0.63660 -0.02900
H 	H 	0.13830 0.28640 0.61050 0.03600
H 	H 	0.19890 0.31290 0.66130 0.02900
C 	C 	0.32440 0.25150 0.70790 -0.01300
H 	H 	0.33540 0.22470 0.73000 0.03700
H 	H 	0.31760 0.27620 0.73300 0.03300
C 	C 	0.23380 0.21060 0.63150 -0.01900
H 	H 	0.16640 0.20730 0.60520 0.03900
H 	H 	0.24480 0.18350 0.65300 0.04000
C 	C 	0.40160 0.29870 0.64770 -0.01200
H 	H 	0.39420 0.32340 0.67260 0.02700
H 	H 	0.46640 0.30430 0.62880 0.03400
C 	C 	0.42660 0.22250 0.64230 0.00100
H 	H 	0.49100 0.22700 0.62280 0.03700
H 	H 	0.43860 0.19530 0.66360 0.04100
C 	C 	0.31210 0.25800 0.57060 -0.01100
H 	H 	0.37590 0.26260 0.55060 0.04200
H 	H 	0.24570 0.25550 0.54350 0.03000
N 	N 	0.74080 0.22235 0.79200 -0.19900
N 	N 	0.66400 0.18338 0.86430 -0.18400
N 	N 	0.63600 0.26180 0.85360 -0.09400
N 	N 	0.54250 0.21200 0.78630 -0.09600
C 	C 	0.75700 0.18630 0.83220 -0.04200
H 	H 	0.82570 0.19120 0.85710 0.04300
H 	H 	0.76420 0.15850 0.81290 0.05200
C 	C 	0.63590 0.21420 0.75510 -0.01300
H 	H 	0.64160 0.18660 0.73530 0.03800
H 	H 	0.62370 0.23790 0.72790 0.03700
C 	C 	0.72890 0.26370 0.82230 -0.02900
H 	H 	0.71820 0.28810 0.79610 0.04400
H 	H 	0.79700 0.26920 0.84730 0.04400
C 	C 	0.65460 0.22610 0.89230 -0.01300
H 	H 	0.72280 0.23160 0.91740 0.03100
H 	H 	0.59300 0.22470 0.91440 0.04000
C 	C 	0.53670 0.25270 0.81560 0.00300
H 	H 	0.52440 0.27680 0.78900 0.04000
H 	H 	0.47300 0.25170 0.83630 0.03600
C 	C 	0.56150 0.17650 0.82620 -0.01700
H 	H 	0.49850 0.17460 0.84720 0.03200
H 	H 	0.56660 0.14860 0.80670 0.04300
O 	O 	0.02890 0.30027 0.70930 -0.47000
O 	O 	0.86120 0.29294 0.73440 -0.46600
C 	C 	0.93700 0.31440 0.71800 0.39100
C 	C 	0.91630 0.36180 0.70790 -0.11200
C 	C 	0.99310 0.38700 0.68670 0.00400
H 	H 	0.06070 0.37420 0.68050 0.04400
C 	C 	0.97390 0.43110 0.67410 -0.02300
C 	C 	0.05090 0.45670 0.65110 -0.02500
H 	H 	0.11740 0.44390 0.64330 0.04700
C 	C 	0.03150 0.49910 0.64010 -0.07500
H 	H 	0.08570 0.51620 0.62600 0.06200
C 	C 	0.93210 0.51840 0.64930 0.05400
C 	C 	0.85610 0.49470 0.67170 -0.12900
H 	H 	0.78980 0.50800 0.67880 0.10100
C 	C 	0.87530 0.45000 0.68470 0.08200
C 	C 	0.79560 0.42370 0.70540 -0.12600
H 	H 	0.72740 0.43600 0.71130 0.07500
C 	C 	0.81580 0.38080 0.71690 0.04600
H 	H 	0.76190 0.36370 0.73120 0.02800
C 	C 	0.91800 0.56390 0.62750 -0.10900
O 	O 	0.82500 0.57900 0.62880 0.59400
O 	O 	0.99500 0.58490 0.61250 0.11100
O 	O 	0.13660 0.24343 0.78759 -0.48600
O 	O 	0.98420 0.24700 0.82391 -0.46100
C 	C 	0.08560 0.24770 0.82650 0.42100
C 	C 	0.15320 0.25350 0.88100 -0.10700
C 	C 	0.26760 0.24700 0.88580 0.03400
H 	H 	0.30010 0.23910 0.85440 0.03000
C 	C 	0.33250 0.25160 0.93450 -0.09800
H 	H 	0.40950 0.24720 0.93670 0.06600
C 	C 	0.28620 0.26290 0.98160 0.03700
C 	C 	0.35070 0.26670 0.03340 -0.03700
H 	H 	0.42770 0.26210 0.03620 0.05900
C 	C 	0.30560 0.27680 0.07880 -0.07400
C 	C 	0.19110 0.28600 0.07460 0.00600
H 	H 	0.15950 0.29440 0.10600 0.04000
C 	C 	0.12640 0.28270 0.02500 -0.07500
H 	H 	0.05020 0.28870 0.02260 0.05800
C 	C 	0.17130 0.27060 0.97780 0.01500
C 	C 	0.10590 0.26520 0.92630 -0.01300
H 	H 	0.02890 0.26980 0.92320 0.05000
C 	C 	0.37290 0.27710 0.13450 0.36600
O 	O 	0.32230 0.28467 0.17482 -0.45800
O 	O 	0.47410 0.26917 0.13720 -0.45800
O 	O 	0.09350 0.17209 0.71953 -0.45500
O 	O 	0.94640 0.16937 0.76400 -0.46600
C 	C 	0.03260 0.15350 0.74900 0.36300
C 	C 	0.06200 0.10820 0.76880 -0.04700
C 	C 	0.16560 0.09030 0.76140 -0.03200
H 	H 	0.21620 0.10670 0.74370 0.05400
C 	C 	0.19180 0.04920 0.77990 -0.02400
H 	H 	0.26050 0.03710 0.77430 0.04100
C 	C 	0.12030 0.02470 0.80680 -0.06600
C 	C 	0.14440 0.98270 0.82690 0.09700
H 	H 	0.21190 0.96980 0.82080 -0.00000
C 	C 	0.07580 0.95960 0.85480 -0.28200
C 	C 	0.97660 0.97860 0.86350 0.15500
H 	H 	0.92740 0.96290 0.88270 -0.02100
C 	C 	0.94900 0.01920 0.84490 -0.19900
H 	H 	0.88130 0.03160 0.85170 0.11700
C 	C 	0.01960 0.04320 0.81580 0.11100
C 	C 	0.99260 0.08530 0.79580 -0.08900
H 	H 	0.92420 0.09770 0.80130 0.09100
C 	C 	0.10390 0.91630 0.88090 0.40000
O 	O 	0.02260 0.89580 0.89680 0.05600
O 	O 	0.19780 0.90410 0.88340 -0.72000
O 	O 	0.37050 0.33404 0.50920 -0.50100
O 	O 	0.35000 0.36485 0.42695 -0.48800
C 	C 	0.40690 0.35020 0.46800 0.38700
C 	C 	0.52830 0.35140 0.46800 -0.09200
C 	C 	0.59780 0.34580 0.51580 -0.02900
H 	H 	0.56840 0.34090 0.54880 0.05500
C 	C 	0.71200 0.34750 0.51580 0.03000
C 	C 	0.78530 0.34190 0.56440 -0.08900
H 	H 	0.75730 0.33760 0.59800 0.06700
C 	C 	0.89570 0.34280 0.56330 0.02800
H 	H 	0.94410 0.33930 0.59610 0.04000
C 	C 	0.93890 0.34890 0.51360 -0.10300
C 	C 	0.87030 0.35540 0.46610 -0.02200
H 	H 	0.90020 0.36030 0.43320 0.04500
C 	C 	0.75430 0.35490 0.46580 0.02100
C 	C 	0.68160 0.36120 0.41730 -0.08100
H 	H 	0.70950 0.36670 0.38390 0.06300
C 	C 	0.57090 0.35940 0.41870 0.01900
H 	H 	0.52210 0.36360 0.38610 0.04600
C 	C 	0.05930 0.34850 0.51150 0.38700
O 	O 	0.09560 0.34001 0.46850 -0.51700
O 	O 	0.11900 0.35520 0.55700 -0.47700
C 	C 	0.88800 0.56330 0.63300 0.18900
O 	O 	0.80100 0.57990 0.64500 -0.89800
O 	O 	0.93000 0.58650 0.60010 -0.49500
C 	C 	0.13300 0.91740 0.87400 0.30000
O 	O 	0.08700 0.89490 0.90590 -0.57400
O 	O 	0.21600 0.89840 0.85720 0.17300
