data_crystal

_cell_length_a 23.37500
_cell_length_b 18.69200
_cell_length_c 32.32900
_cell_angle_alpha 90.00000
_cell_angle_beta  117.40500
_cell_angle_gamma 90.00000

_symmetry_space_group_name_	'P 1'
_symmetry_space_group_name_H-M	'P 1'

loop_
_symmetry_equiv_pos_as_xyz
  x,y,z

loop_
_atom_site_label
_atom_site_type_symbol
_atom_site_fract_x
_atom_site_fract_y
_atom_site_fract_z
_atom_site_charge
Cu	Cu	0.30981 0.00017 0.27895 0.89900
Cu	Cu	0.19171 0.23407 0.98522 0.90100
Cu	Cu	0.30171 0.72804 0.98912 0.90800
Cu	Cu	0.19645 0.79826 0.97734 0.90900
Cu	Cu	0.29585 0.30342 0.99652 0.90500
Cu	Cu	0.20533 0.00061 0.19778 0.91600
O 	O 	0.25170 0.64660 0.99357 -0.38000
O 	O 	0.16479 0.71140 0.98634 -0.40200
O 	O 	0.26240 0.71500 0.92277 -0.39000
O 	O 	0.17170 0.76990 0.91227 -0.41600
O 	O 	0.23748 0.88557 0.97088 -0.40000
O 	O 	0.32838 0.82800 0.98364 -0.39400
O 	O 	0.24880 0.80790 0.04693 -0.39700
O 	O 	0.33260 0.74490 0.05440 -0.41400
O 	O 	0.24942 0.38670 0.99984 -0.40700
O 	O 	0.16150 0.32910 0.99377 -0.39500
O 	O 	0.26510 0.57680 0.79470 -0.39400
O 	O 	0.17959 0.57220 0.72620 -0.42500
O 	O 	0.82380 0.93380 0.77169 -0.43100
O 	O 	0.73808 0.93060 0.70294 -0.40400
O 	O 	0.83823 0.75940 0.58116 -0.39500
O 	O 	0.74706 0.81330 0.57039 -0.39600
O 	O 	0.32520 0.20750 0.99073 -0.41100
O 	O 	0.23560 0.14750 0.97850 -0.40500
O 	O 	0.25179 0.93120 0.17946 -0.40000
O 	O 	0.34069 0.92700 0.24871 -0.39400
O 	O 	0.67201 0.78320 0.43572 -0.39100
O 	O 	0.76025 0.72100 0.44663 -0.42200
O 	O 	0.75225 0.57730 0.31876 -0.39500
O 	O 	0.66238 0.57973 0.24949 -0.39300
O 	O 	0.49420 0.76120 0.22000 -0.09200
O 	O 	0.02710 0.74600 0.73620 -0.06200
C 	C 	0.30390 0.78250 0.07080 0.36300
C 	C 	0.33360 0.79590 0.12100 -0.04900
C 	C 	0.30670 0.84350 0.14074 -0.01400
H 	H 	0.26720 0.86520 0.12210 0.06800
C 	C 	0.33820 0.85810 0.18700 -0.02700
C 	C 	0.30870 0.91300 0.20600 0.33400
C 	C 	0.39820 0.82840 0.21540 -0.10700
H 	H 	0.41950 0.84050 0.24680 0.08600
C 	C 	0.42680 0.78100 0.19730 0.14600
C 	C 	0.39470 0.76600 0.14990 -0.09400
H 	H 	0.41380 0.73570 0.13700 0.09300
C 	C 	0.58210 0.73990 0.29630 0.04200
C 	C 	0.60790 0.68690 0.27858 -0.04300
H 	H 	0.58540 0.67210 0.24770 0.08000
C 	C 	0.66790 0.65690 0.30820 -0.05700
C 	C 	0.69540 0.59860 0.29120 0.33500
C 	C 	0.70120 0.67570 0.35486 0.00300
H 	H 	0.74120 0.65570 0.37400 0.06200
C 	C 	0.67370 0.72460 0.37220 -0.05800
C 	C 	0.70780 0.74440 0.42320 0.35900
C 	C 	0.61360 0.75540 0.34356 -0.05300
H 	H 	0.59480 0.78630 0.35630 0.06700
C 	C 	0.29190 0.15240 0.98420 0.36300
C 	C 	0.32430 0.08490 0.98280 -0.07100
C 	C 	0.38710 0.08610 0.98820 -0.03600
H 	H 	0.40820 0.12920 0.99070 0.06500
C 	C 	0.41820 0.01980 0.98970 0.03400
C 	C 	0.38940 0.95880 0.98520 -0.04500
H 	H 	0.41100 0.91680 0.98550 0.06800
C 	C 	0.32540 0.95490 0.97970 -0.06400
C 	C 	0.29340 0.01910 0.97780 0.01400
H 	H 	0.25110 0.01790 0.97310 0.05800
C 	C 	0.29480 0.88400 0.97780 0.34600
C 	C 	0.16440 0.58380 0.99600 -0.05000
C 	C 	0.19540 0.65230 0.99250 0.31500
C 	C 	0.19350 0.51870 0.99780 0.00000
H 	H 	0.23340 0.51760 0.99800 0.06300
C 	C 	0.16400 0.45510 0.99930 -0.05800
C 	C 	0.19490 0.38490 0.99870 0.34300
C 	C 	0.10440 0.45680 0.99960 -0.04400
H 	H 	0.08430 0.41500 0.00170 0.06800
C 	C 	0.07560 0.52520 0.99670 0.03600
C 	C 	0.10710 0.58490 0.99680 -0.05000
H 	H 	0.08890 0.62880 0.99750 0.06900
C 	C 	0.01500 0.53000 0.99960 -0.01700
C 	C 	0.48370 0.03120 0.99690 -0.01600
C 	C 	0.20610 0.67230 0.83004 -0.00600
H 	H 	0.24810 0.65820 0.84980 0.06400
C 	C 	0.17720 0.64860 0.78407 -0.04700
C 	C 	0.20760 0.59540 0.76590 0.36300
C 	C 	0.11530 0.67160 0.75470 -0.09600
H 	H 	0.09470 0.65590 0.72390 0.09200
C 	C 	0.08400 0.71800 0.77080 0.14500
C 	C 	0.11190 0.73750 0.81630 -0.10600
H 	H 	0.08880 0.76570 0.82710 0.08400
C 	C 	0.92290 0.80050 0.72220 0.04000
C 	C 	0.89670 0.78500 0.67570 -0.03700
H 	H 	0.91990 0.75910 0.66390 0.07700
C 	C 	0.83390 0.80910 0.64629 -0.07700
C 	C 	0.80490 0.79150 0.59700 0.34300
C 	C 	0.80040 0.84610 0.66450 0.02200
H 	H 	0.75780 0.85860 0.64520 0.05500
C 	C 	0.82890 0.86540 0.71150 -0.07200
C 	C 	0.79510 0.91320 0.73130 0.37700
C 	C 	0.89210 0.84390 0.74040 -0.04400
H 	H 	0.91310 0.85840 0.77140 0.06100
C 	C 	0.52160 0.76920 0.26944 -0.02800
H 	H 	0.52400 0.82000 0.27630 0.04600
H 	H 	0.49210 0.74810 0.27940 0.05700
C 	C 	0.98770 0.78080 0.75500 -0.03200
H 	H 	0.98540 0.74880 0.77780 0.05500
H 	H 	0.01000 0.82370 0.77150 0.04700
C 	C 	0.20250 0.73840 0.89720 0.34700
C 	C 	0.17470 0.71620 0.84740 -0.04100
O 	O 	0.48510 0.73740 0.22770 -0.10800
O 	O 	0.01360 0.73100 0.73840 -0.12600
Cu	Cu	0.69019 0.50017 0.22105 0.89800
Cu	Cu	0.80829 0.73407 0.51478 0.90000
Cu	Cu	0.69829 0.22804 0.51088 0.90700
Cu	Cu	0.80355 0.29826 0.52266 0.90900
Cu	Cu	0.70415 0.80342 0.50348 0.90400
Cu	Cu	0.79467 0.50061 0.30222 0.91500
O 	O 	0.74830 0.14660 0.50643 -0.38100
O 	O 	0.83521 0.21140 0.51366 -0.40300
O 	O 	0.73760 0.21500 0.57723 -0.39100
O 	O 	0.82830 0.26990 0.58773 -0.41700
O 	O 	0.76252 0.38557 0.52912 -0.40200
O 	O 	0.67162 0.32800 0.51636 -0.39500
O 	O 	0.75120 0.30790 0.45307 -0.39800
O 	O 	0.66740 0.24490 0.44560 -0.41400
O 	O 	0.75058 0.88670 0.50016 -0.40800
O 	O 	0.83850 0.82910 0.50623 -0.39500
O 	O 	0.73490 0.07680 0.70530 -0.39300
O 	O 	0.82041 0.07220 0.77380 -0.42500
O 	O 	0.17620 0.43380 0.72831 -0.43100
O 	O 	0.26192 0.43060 0.79706 -0.40400
O 	O 	0.16177 0.25940 0.91884 -0.39500
O 	O 	0.25294 0.31330 0.92961 -0.39600
O 	O 	0.67480 0.70750 0.50927 -0.41100
O 	O 	0.76440 0.64750 0.52150 -0.40500
O 	O 	0.74821 0.43120 0.32054 -0.40100
O 	O 	0.65931 0.42700 0.25129 -0.39500
O 	O 	0.32799 0.28320 0.06428 -0.39100
O 	O 	0.23975 0.22100 0.05337 -0.42200
O 	O 	0.24775 0.07730 0.18124 -0.39500
O 	O 	0.33762 0.07973 0.25051 -0.39300
O 	O 	0.50580 0.26120 0.28000 -0.09200
O 	O 	0.97290 0.24600 0.76380 -0.06000
C 	C 	0.69610 0.28250 0.42920 0.36300
C 	C 	0.66640 0.29590 0.37900 -0.05000
C 	C 	0.69330 0.34350 0.35926 -0.01400
H 	H 	0.73280 0.36520 0.37790 0.06700
C 	C 	0.66180 0.35810 0.31300 -0.02800
C 	C 	0.69130 0.41300 0.29400 0.33400
C 	C 	0.60180 0.32840 0.28460 -0.10700
H 	H 	0.58050 0.34050 0.25320 0.08600
C 	C 	0.57320 0.28100 0.30270 0.14600
C 	C 	0.60530 0.26600 0.35010 -0.09400
H 	H 	0.58620 0.23570 0.36300 0.09300
C 	C 	0.41790 0.23990 0.20370 0.04200
C 	C 	0.39210 0.18690 0.22142 -0.04300
H 	H 	0.41460 0.17210 0.25230 0.08000
C 	C 	0.33210 0.15690 0.19180 -0.05700
C 	C 	0.30460 0.09860 0.20880 0.33500
C 	C 	0.29880 0.17570 0.14514 0.00300
H 	H 	0.25880 0.15570 0.12600 0.06200
C 	C 	0.32630 0.22460 0.12780 -0.05800
C 	C 	0.29220 0.24440 0.07680 0.35900
C 	C 	0.38640 0.25540 0.15644 -0.05300
H 	H 	0.40520 0.28630 0.14370 0.06700
C 	C 	0.70810 0.65240 0.51580 0.36300
C 	C 	0.67570 0.58490 0.51720 -0.07100
C 	C 	0.61290 0.58610 0.51180 -0.03600
H 	H 	0.59180 0.62920 0.50930 0.06500
C 	C 	0.58180 0.51980 0.51030 0.03300
C 	C 	0.61060 0.45880 0.51480 -0.04500
H 	H 	0.58900 0.41680 0.51450 0.06700
C 	C 	0.67460 0.45490 0.52030 -0.06500
C 	C 	0.70660 0.51910 0.52220 0.01400
H 	H 	0.74890 0.51790 0.52690 0.05800
C 	C 	0.70520 0.38400 0.52220 0.34600
C 	C 	0.83560 0.08380 0.50400 -0.05000
C 	C 	0.80460 0.15230 0.50750 0.31500
C 	C 	0.80650 0.01870 0.50220 0.00200
H 	H 	0.76660 0.01760 0.50200 0.06200
C 	C 	0.83600 0.95510 0.50070 -0.05900
C 	C 	0.80510 0.88490 0.50130 0.34300
C 	C 	0.89560 0.95680 0.50040 -0.04400
H 	H 	0.91570 0.91500 0.49830 0.06700
C 	C 	0.92440 0.02520 0.50330 0.03600
C 	C 	0.89290 0.08490 0.50320 -0.05000
H 	H 	0.91110 0.12880 0.50250 0.06900
C 	C 	0.98500 0.03000 0.50040 -0.01600
C 	C 	0.51630 0.53120 0.50310 -0.01700
C 	C 	0.79390 0.17230 0.66996 -0.00600
H 	H 	0.75190 0.15820 0.65020 0.06400
C 	C 	0.82280 0.14860 0.71593 -0.04700
C 	C 	0.79240 0.09540 0.73410 0.36300
C 	C 	0.88470 0.17160 0.74530 -0.09600
H 	H 	0.90530 0.15590 0.77610 0.09200
C 	C 	0.91600 0.21800 0.72920 0.14500
C 	C 	0.88810 0.23750 0.68370 -0.10600
H 	H 	0.91120 0.26570 0.67290 0.08400
C 	C 	0.07710 0.30050 0.77780 0.04000
C 	C 	0.10330 0.28500 0.82430 -0.03700
H 	H 	0.08010 0.25910 0.83610 0.07700
C 	C 	0.16610 0.30910 0.85371 -0.07700
C 	C 	0.19510 0.29150 0.90300 0.34300
C 	C 	0.19960 0.34610 0.83550 0.02100
H 	H 	0.24220 0.35860 0.85480 0.05500
C 	C 	0.17110 0.36540 0.78850 -0.07200
C 	C 	0.20490 0.41320 0.76870 0.37600
C 	C 	0.10790 0.34390 0.75960 -0.04400
H 	H 	0.08690 0.35840 0.72860 0.06100
C 	C 	0.47840 0.26920 0.23056 -0.02800
H 	H 	0.47600 0.32000 0.22370 0.04600
H 	H 	0.50790 0.24810 0.22060 0.05700
C 	C 	0.01230 0.28080 0.74500 -0.03300
H 	H 	0.01460 0.24880 0.72220 0.05500
H 	H 	0.99000 0.32370 0.72850 0.04700
C 	C 	0.79750 0.23840 0.60280 0.34700
C 	C 	0.82530 0.21620 0.65260 -0.04100
O 	O 	0.51490 0.23740 0.27230 -0.10800
O 	O 	0.98640 0.23100 0.76160 -0.12700
Cu	Cu	0.69019 0.99983 0.72105 0.89800
Cu	Cu	0.80829 0.76593 0.01478 0.90000
Cu	Cu	0.69829 0.27196 0.01088 0.90700
Cu	Cu	0.80355 0.20174 0.02266 0.90800
Cu	Cu	0.70415 0.69658 0.00348 0.90400
Cu	Cu	0.79467 0.99939 0.80222 0.91500
O 	O 	0.74830 0.35340 0.00643 -0.38100
O 	O 	0.83521 0.28860 0.01366 -0.40300
O 	O 	0.73760 0.28500 0.07723 -0.39100
O 	O 	0.82830 0.23010 0.08773 -0.41700
O 	O 	0.76252 0.11443 0.02912 -0.40100
O 	O 	0.67162 0.17200 0.01636 -0.39500
O 	O 	0.75120 0.19210 0.95307 -0.39700
O 	O 	0.66740 0.25510 0.94560 -0.41400
O 	O 	0.75058 0.61330 0.00016 -0.40700
O 	O 	0.83850 0.67090 0.00623 -0.39500
O 	O 	0.73490 0.42320 0.20530 -0.39400
O 	O 	0.82041 0.42780 0.27380 -0.42500
O 	O 	0.17620 0.06620 0.22831 -0.43100
O 	O 	0.26192 0.06940 0.29706 -0.40400
O 	O 	0.16177 0.24060 0.41884 -0.39500
O 	O 	0.25294 0.18670 0.42961 -0.39600
O 	O 	0.67480 0.79250 0.00927 -0.41100
O 	O 	0.76440 0.85250 0.02150 -0.40500
O 	O 	0.74821 0.06880 0.82054 -0.40000
O 	O 	0.65931 0.07300 0.75129 -0.39400
O 	O 	0.32799 0.21680 0.56428 -0.39100
O 	O 	0.23975 0.27900 0.55337 -0.42200
O 	O 	0.24775 0.42270 0.68124 -0.39500
O 	O 	0.33762 0.42027 0.75051 -0.39300
O 	O 	0.50580 0.23880 0.78000 -0.09200
O 	O 	0.97290 0.25400 0.26380 -0.06200
C 	C 	0.69610 0.21750 0.92920 0.36300
C 	C 	0.66640 0.20410 0.87900 -0.04900
C 	C 	0.69330 0.15650 0.85926 -0.01400
H 	H 	0.73280 0.13480 0.87790 0.06800
C 	C 	0.66180 0.14190 0.81300 -0.02700
C 	C 	0.69130 0.08700 0.79400 0.33400
C 	C 	0.60180 0.17160 0.78460 -0.10700
H 	H 	0.58050 0.15950 0.75320 0.08600
C 	C 	0.57320 0.21900 0.80270 0.14600
C 	C 	0.60530 0.23400 0.85010 -0.09400
H 	H 	0.58620 0.26430 0.86300 0.09300
C 	C 	0.41790 0.26010 0.70370 0.04200
C 	C 	0.39210 0.31310 0.72142 -0.04300
H 	H 	0.41460 0.32790 0.75230 0.08000
C 	C 	0.33210 0.34310 0.69180 -0.05700
C 	C 	0.30460 0.40140 0.70880 0.33500
C 	C 	0.29880 0.32430 0.64514 0.00300
H 	H 	0.25880 0.34430 0.62600 0.06200
C 	C 	0.32630 0.27540 0.62780 -0.05800
C 	C 	0.29220 0.25560 0.57680 0.35900
C 	C 	0.38640 0.24460 0.65644 -0.05300
H 	H 	0.40520 0.21370 0.64370 0.06700
C 	C 	0.70810 0.84760 0.01580 0.36300
C 	C 	0.67570 0.91510 0.01720 -0.07100
C 	C 	0.61290 0.91390 0.01180 -0.03600
H 	H 	0.59180 0.87080 0.00930 0.06500
C 	C 	0.58180 0.98020 0.01030 0.03400
C 	C 	0.61060 0.04120 0.01480 -0.04500
H 	H 	0.58900 0.08320 0.01450 0.06800
C 	C 	0.67460 0.04510 0.02030 -0.06400
C 	C 	0.70660 0.98090 0.02220 0.01400
H 	H 	0.74890 0.98210 0.02690 0.05800
C 	C 	0.70520 0.11600 0.02220 0.34600
C 	C 	0.83560 0.41620 0.00400 -0.05000
C 	C 	0.80460 0.34770 0.00750 0.31500
C 	C 	0.80650 0.48130 0.00220 0.00000
H 	H 	0.76660 0.48240 0.00200 0.06300
C 	C 	0.83600 0.54490 0.00070 -0.05800
C 	C 	0.80510 0.61510 0.00130 0.34300
C 	C 	0.89560 0.54320 0.00040 -0.04400
H 	H 	0.91570 0.58500 0.99830 0.06800
C 	C 	0.92440 0.47480 0.00330 0.03600
C 	C 	0.89290 0.41510 0.00320 -0.05000
H 	H 	0.91110 0.37120 0.00250 0.06900
C 	C 	0.98500 0.47000 0.00040 -0.01700
C 	C 	0.51630 0.96880 0.00310 -0.01600
C 	C 	0.79390 0.32770 0.16996 -0.00600
H 	H 	0.75190 0.34180 0.15020 0.06400
C 	C 	0.82280 0.35140 0.21593 -0.04700
C 	C 	0.79240 0.40460 0.23410 0.36300
C 	C 	0.88470 0.32840 0.24530 -0.09600
H 	H 	0.90530 0.34410 0.27610 0.09200
C 	C 	0.91600 0.28200 0.22920 0.14500
C 	C 	0.88810 0.26250 0.18370 -0.10600
H 	H 	0.91120 0.23430 0.17290 0.08400
C 	C 	0.07710 0.19950 0.27780 0.04000
C 	C 	0.10330 0.21500 0.32430 -0.03700
H 	H 	0.08010 0.24090 0.33610 0.07700
C 	C 	0.16610 0.19090 0.35371 -0.07700
C 	C 	0.19510 0.20850 0.40300 0.34300
C 	C 	0.19960 0.15390 0.33550 0.02200
H 	H 	0.24220 0.14140 0.35480 0.05500
C 	C 	0.17110 0.13460 0.28850 -0.07200
C 	C 	0.20490 0.08680 0.26870 0.37700
C 	C 	0.10790 0.15610 0.25960 -0.04400
H 	H 	0.08690 0.14160 0.22860 0.06100
C 	C 	0.47840 0.23080 0.73056 -0.02800
H 	H 	0.47600 0.18000 0.72370 0.04600
H 	H 	0.50790 0.25190 0.72060 0.05700
C 	C 	0.01230 0.21920 0.24500 -0.03200
H 	H 	0.01460 0.25120 0.22220 0.05500
H 	H 	0.99000 0.17630 0.22850 0.04700
C 	C 	0.79750 0.26160 0.10280 0.34700
C 	C 	0.82530 0.28380 0.15260 -0.04100
O 	O 	0.51490 0.26260 0.77230 -0.10800
O 	O 	0.98640 0.26900 0.26160 -0.12600
Cu	Cu	0.30981 0.49983 0.77895 0.89800
Cu	Cu	0.19171 0.26593 0.48522 0.90000
Cu	Cu	0.30171 0.77196 0.48912 0.90700
Cu	Cu	0.19645 0.70174 0.47734 0.90900
Cu	Cu	0.29585 0.19658 0.49652 0.90400
Cu	Cu	0.20533 0.49939 0.69778 0.91500
O 	O 	0.25170 0.85340 0.49357 -0.38100
O 	O 	0.16479 0.78860 0.48634 -0.40300
O 	O 	0.26240 0.78500 0.42277 -0.39100
O 	O 	0.17170 0.73010 0.41227 -0.41700
O 	O 	0.23748 0.61443 0.47088 -0.40200
O 	O 	0.32838 0.67200 0.48364 -0.39500
O 	O 	0.24880 0.69210 0.54693 -0.39800
O 	O 	0.33260 0.75510 0.55440 -0.41400
O 	O 	0.24942 0.11330 0.49984 -0.40800
O 	O 	0.16150 0.17090 0.49377 -0.39500
O 	O 	0.26510 0.92320 0.29470 -0.39300
O 	O 	0.17959 0.92780 0.22620 -0.42500
O 	O 	0.82380 0.56620 0.27169 -0.43100
O 	O 	0.73808 0.56940 0.20294 -0.40400
O 	O 	0.83823 0.74060 0.08116 -0.39500
O 	O 	0.74706 0.68670 0.07039 -0.39600
O 	O 	0.32520 0.29250 0.49073 -0.41100
O 	O 	0.23560 0.35250 0.47850 -0.40500
O 	O 	0.25179 0.56880 0.67946 -0.40100
O 	O 	0.34069 0.57300 0.74871 -0.39500
O 	O 	0.67201 0.71680 0.93572 -0.39100
O 	O 	0.76025 0.77900 0.94663 -0.42200
O 	O 	0.75225 0.92270 0.81876 -0.39500
O 	O 	0.66238 0.92027 0.74949 -0.39300
O 	O 	0.49420 0.73880 0.72000 -0.09200
O 	O 	0.02710 0.75400 0.23620 -0.06000
C 	C 	0.30390 0.71750 0.57080 0.36300
C 	C 	0.33360 0.70410 0.62100 -0.05000
C 	C 	0.30670 0.65650 0.64074 -0.01400
H 	H 	0.26720 0.63480 0.62210 0.06700
C 	C 	0.33820 0.64190 0.68700 -0.02800
C 	C 	0.30870 0.58700 0.70600 0.33400
C 	C 	0.39820 0.67160 0.71540 -0.10700
H 	H 	0.41950 0.65950 0.74680 0.08600
C 	C 	0.42680 0.71900 0.69730 0.14600
C 	C 	0.39470 0.73400 0.64990 -0.09400
H 	H 	0.41380 0.76430 0.63700 0.09300
C 	C 	0.58210 0.76010 0.79630 0.04200
C 	C 	0.60790 0.81310 0.77858 -0.04300
H 	H 	0.58540 0.82790 0.74770 0.08000
C 	C 	0.66790 0.84310 0.80820 -0.05700
C 	C 	0.69540 0.90140 0.79120 0.33500
C 	C 	0.70120 0.82430 0.85486 0.00300
H 	H 	0.74120 0.84430 0.87400 0.06200
C 	C 	0.67370 0.77540 0.87220 -0.05800
C 	C 	0.70780 0.75560 0.92320 0.35900
C 	C 	0.61360 0.74460 0.84356 -0.05300
H 	H 	0.59480 0.71370 0.85630 0.06700
C 	C 	0.29190 0.34760 0.48420 0.36300
C 	C 	0.32430 0.41510 0.48280 -0.07100
C 	C 	0.38710 0.41390 0.48820 -0.03600
H 	H 	0.40820 0.37080 0.49070 0.06500
C 	C 	0.41820 0.48020 0.48970 0.03300
C 	C 	0.38940 0.54120 0.48520 -0.04500
H 	H 	0.41100 0.58320 0.48550 0.06700
C 	C 	0.32540 0.54510 0.47970 -0.06500
C 	C 	0.29340 0.48090 0.47780 0.01400
H 	H 	0.25110 0.48210 0.47310 0.05800
C 	C 	0.29480 0.61600 0.47780 0.34600
C 	C 	0.16440 0.91620 0.49600 -0.05000
C 	C 	0.19540 0.84770 0.49250 0.31500
C 	C 	0.19350 0.98130 0.49780 0.00200
H 	H 	0.23340 0.98240 0.49800 0.06200
C 	C 	0.16400 0.04490 0.49930 -0.05900
C 	C 	0.19490 0.11510 0.49870 0.34300
C 	C 	0.10440 0.04320 0.49960 -0.04400
H 	H 	0.08430 0.08500 0.50170 0.06700
C 	C 	0.07560 0.97480 0.49670 0.03600
C 	C 	0.10710 0.91510 0.49680 -0.05000
H 	H 	0.08890 0.87120 0.49750 0.06900
C 	C 	0.01500 0.97000 0.49960 -0.01600
C 	C 	0.48370 0.46880 0.49690 -0.01700
C 	C 	0.20610 0.82770 0.33004 -0.00600
H 	H 	0.24810 0.84180 0.34980 0.06400
C 	C 	0.17720 0.85140 0.28407 -0.04700
C 	C 	0.20760 0.90460 0.26590 0.36300
C 	C 	0.11530 0.82840 0.25470 -0.09600
H 	H 	0.09470 0.84410 0.22390 0.09200
C 	C 	0.08400 0.78200 0.27080 0.14500
C 	C 	0.11190 0.76250 0.31630 -0.10600
H 	H 	0.08880 0.73430 0.32710 0.08400
C 	C 	0.92290 0.69950 0.22220 0.04000
C 	C 	0.89670 0.71500 0.17570 -0.03700
H 	H 	0.91990 0.74090 0.16390 0.07700
C 	C 	0.83390 0.69090 0.14629 -0.07700
C 	C 	0.80490 0.70850 0.09700 0.34300
C 	C 	0.80040 0.65390 0.16450 0.02100
H 	H 	0.75780 0.64140 0.14520 0.05500
C 	C 	0.82890 0.63460 0.21150 -0.07200
C 	C 	0.79510 0.58680 0.23130 0.37600
C 	C 	0.89210 0.65610 0.24040 -0.04400
H 	H 	0.91310 0.64160 0.27140 0.06100
C 	C 	0.52160 0.73080 0.76944 -0.02800
H 	H 	0.52400 0.68000 0.77630 0.04600
H 	H 	0.49210 0.75190 0.77940 0.05700
C 	C 	0.98770 0.71920 0.25500 -0.03300
H 	H 	0.98540 0.75120 0.27780 0.05500
H 	H 	0.01000 0.67630 0.27150 0.04700
C 	C 	0.20250 0.76160 0.39720 0.34700
C 	C 	0.17470 0.78380 0.34740 -0.04100
O 	O 	0.48510 0.76260 0.72770 -0.10800
O 	O 	0.01360 0.76900 0.23840 -0.12700
