data_crystal

_cell_length_a 11.39100
_cell_length_b 12.41400
_cell_length_c 12.84600
_cell_angle_alpha 71.04000
_cell_angle_beta  68.39000
_cell_angle_gamma 66.88000

_symmetry_space_group_name_	'P 1'
_symmetry_space_group_name_H-M	'P 1'

loop_
_symmetry_equiv_pos_as_xyz
  x,y,z

loop_
_atom_site_label
_atom_site_type_symbol
_atom_site_fract_x
_atom_site_fract_y
_atom_site_fract_z
_atom_site_charge
Ga	Ga	0.39573 0.70795 0.24627 2.10200
Ga	Ga	0.19857 0.72125 0.93643 2.07900
Ga	Ga	0.10635 0.82590 0.25664 2.10100
Ga	Ga	0.31605 0.77747 0.58054 2.07700
Ga	Ga	0.73202 0.92923 0.16611 2.07900
Ga	Ga	0.78485 0.55445 0.33519 2.07900
P 	P 	0.18746 0.68039 0.48269 0.62500
P 	P 	0.55422 0.78938 0.34998 0.67600
P 	P 	0.31354 0.85102 0.02035 0.61000
P 	P 	0.63685 0.45695 0.23003 0.71500
P 	P 	0.86533 0.06137 0.24828 0.66800
P 	P 	0.96479 0.70646 0.17018 0.67000
F 	F 	0.24900 0.67440 0.23110 -0.81400
F 	F 	0.25270 0.85970 0.27360 -0.80800
O 	O 	0.42010 0.78680 0.08500 -0.48400
O 	O 	0.33080 0.64770 0.40930 -0.62900
O 	O 	0.52250 0.76520 0.25690 -0.62800
O 	O 	0.51170 0.55850 0.21430 -0.55800
O 	O 	0.89290 0.17790 0.16830 -0.65900
O 	O 	0.32630 0.77000 0.94390 -0.62800
O 	O 	0.08850 0.67230 0.07210 -0.62700
O 	O 	0.70740 0.41630 0.11560 -0.62000
O 	O 	0.98580 0.97700 0.28880 -0.53600
O 	O 	0.17050 0.88710 0.09450 -0.61400
O 	O 	0.98180 0.76390 0.24880 -0.61500
O 	O 	0.08080 0.75190 0.41930 -0.48300
O 	O 	0.17570 0.75240 0.56680 -0.63100
O 	O 	0.43380 0.82540 0.45030 -0.62800
O 	O 	0.60050 0.35310 0.32600 -0.68500
O 	O 	0.74690 0.09400 0.35210 -0.63900
O 	O 	0.82880 0.00560 0.18030 -0.72000
O 	O 	0.35100 0.96440 0.94020 -0.58400
O 	O 	0.84650 0.79070 0.12100 -0.67900
O 	O 	0.60850 0.89670 0.30010 -0.61900
O 	O 	0.93590 0.58790 0.23840 -0.59900
O 	O 	0.65970 0.67870 0.39650 -0.68700
O 	O 	0.15050 0.56540 0.55450 -0.60000
O 	O 	0.73450 0.49600 0.25300 -0.70600
Ga	Ga	0.60427 0.29205 0.75373 2.10100
Ga	Ga	0.80143 0.27875 0.06357 2.07800
Ga	Ga	0.89365 0.17410 0.74336 2.10100
Ga	Ga	0.68395 0.22253 0.41946 2.07700
Ga	Ga	0.26798 0.07077 0.83389 2.07900
Ga	Ga	0.21515 0.44555 0.66481 2.07900
P 	P 	0.81254 0.31961 0.51731 0.62500
P 	P 	0.44578 0.21062 0.65002 0.67600
P 	P 	0.68646 0.14898 0.97965 0.61000
P 	P 	0.36315 0.54305 0.76997 0.71500
P 	P 	0.13467 0.93863 0.75172 0.66800
P 	P 	0.03521 0.29354 0.82982 0.67000
F 	F 	0.75100 0.32560 0.76890 -0.81400
F 	F 	0.74730 0.14030 0.72640 -0.80800
O 	O 	0.57990 0.21320 0.91500 -0.48400
O 	O 	0.66920 0.35230 0.59070 -0.62900
O 	O 	0.47750 0.23480 0.74310 -0.62800
O 	O 	0.48830 0.44150 0.78570 -0.55800
O 	O 	0.10710 0.82210 0.83170 -0.65900
O 	O 	0.67370 0.23000 0.05610 -0.62800
O 	O 	0.91150 0.32770 0.92790 -0.62700
O 	O 	0.29260 0.58370 0.88440 -0.62000
O 	O 	0.01420 0.02300 0.71120 -0.53600
O 	O 	0.82950 0.11290 0.90550 -0.61400
O 	O 	0.01820 0.23610 0.75120 -0.61500
O 	O 	0.91920 0.24810 0.58070 -0.48300
O 	O 	0.82430 0.24760 0.43320 -0.63100
O 	O 	0.56620 0.17460 0.54970 -0.62800
O 	O 	0.39950 0.64690 0.67400 -0.68500
O 	O 	0.25310 0.90600 0.64790 -0.63900
O 	O 	0.17120 0.99440 0.81970 -0.72000
O 	O 	0.64900 0.03560 0.05980 -0.58400
O 	O 	0.15350 0.20930 0.87900 -0.67900
O 	O 	0.39150 0.10330 0.69990 -0.61900
O 	O 	0.06410 0.41210 0.76160 -0.59900
O 	O 	0.34030 0.32130 0.60350 -0.68700
O 	O 	0.84950 0.43460 0.44550 -0.60000
O 	O 	0.26550 0.50400 0.74700 -0.70600
