data_crystal

_cell_length_a 11.49980
_cell_length_b 15.83540
_cell_length_c 17.52040
_cell_angle_alpha 90.00000
_cell_angle_beta  90.00000
_cell_angle_gamma 90.00000

_symmetry_space_group_name_	'P 1'
_symmetry_space_group_name_H-M	'P 1'

loop_
_symmetry_equiv_pos_as_xyz
  x,y,z

loop_
_atom_site_label
_atom_site_type_symbol
_atom_site_fract_x
_atom_site_fract_y
_atom_site_fract_z
_atom_site_charge
Zn	Zn	0.00000 0.89205 0.33270 1.15100
Zn	Zn	-0.00000 0.39205 0.16730 1.14700
Zn	Zn	-0.00000 0.60795 0.83270 1.15000
Zn	Zn	-0.00000 0.00000 -0.00000 1.10100
Zn	Zn	-0.00000 0.50000 0.50000 1.11200
Zn	Zn	0.00000 0.10795 0.66730 1.14500
Fe	Fe	0.00000 0.19827 0.39143 1.13700
Fe	Fe	-0.00000 0.69827 0.10857 1.13900
Fe	Fe	-0.00000 0.80173 0.60857 1.13800
Fe	Fe	0.00000 0.30173 0.89143 1.13600
H 	H 	0.41220 0.16200 0.77300 0.07900
H 	H 	0.58780 0.33800 0.27300 0.07500
H 	H 	0.21000 0.96840 0.41580 -0.01500
H 	H 	0.21110 0.93610 0.09390 -0.03600
H 	H 	0.78890 0.43610 0.40610 0.00900
H 	H 	0.21000 0.53160 0.91580 -0.01800
H 	H 	0.79000 0.96840 0.41580 0.02800
H 	H 	0.58780 0.66200 0.72700 0.07800
H 	H 	0.78640 0.33180 0.26710 0.02600
H 	H 	0.78890 0.56390 0.59390 0.00800
H 	H 	0.41220 0.83800 0.22700 0.07900
H 	H 	0.40920 0.56480 0.59740 0.07900
H 	H 	0.78640 0.83180 0.23290 0.02600
H 	H 	0.59080 0.06480 0.90260 0.06700
H 	H 	0.59080 0.93520 0.09740 0.06800
H 	H 	0.78640 0.16820 0.76710 0.02600
H 	H 	0.41220 0.66200 0.72700 0.08000
H 	H 	0.78890 0.93610 0.09390 0.00900
H 	H 	0.59240 0.97910 0.41490 0.08500
H 	H 	0.21000 0.46840 0.08420 -0.02700
H 	H 	0.21110 0.06390 0.90610 -0.03800
H 	H 	0.21110 0.43610 0.40610 -0.03600
H 	H 	0.21000 0.03160 0.58420 -0.02900
H 	H 	0.59080 0.43520 0.40260 0.07600
H 	H 	0.59240 0.47910 0.08510 0.07400
H 	H 	0.79000 0.53160 0.91580 0.02600
H 	H 	0.40760 0.02090 0.58510 0.07500
H 	H 	0.21360 0.16820 0.76710 -0.01500
H 	H 	0.21360 0.66820 0.73290 -0.01500
H 	H 	0.21360 0.83180 0.23290 -0.01500
H 	H 	0.59080 0.56480 0.59740 0.07700
H 	H 	0.59240 0.52090 0.91490 0.08300
H 	H 	0.40760 0.47910 0.08510 0.07700
H 	H 	0.79000 0.03160 0.58420 0.01600
H 	H 	0.58780 0.16200 0.77300 0.07700
H 	H 	0.40760 0.97910 0.41490 0.08700
H 	H 	0.79000 0.46840 0.08420 0.01800
H 	H 	0.21110 0.56390 0.59390 -0.03600
H 	H 	0.59240 0.02090 0.58510 0.07300
H 	H 	0.21360 0.33180 0.26710 -0.01600
H 	H 	0.40920 0.06480 0.90260 0.07000
H 	H 	0.41220 0.33800 0.27300 0.07700
H 	H 	0.58780 0.83800 0.22700 0.07700
H 	H 	0.40920 0.43520 0.40260 0.07900
H 	H 	0.40760 0.52090 0.91490 0.08600
H 	H 	0.78890 0.06390 0.90610 0.00700
H 	H 	0.40920 0.93520 0.09740 0.07000
H 	H 	0.78640 0.66820 0.73290 0.02600
C 	C 	0.56430 0.50000 0.50000 0.05400
C 	C 	0.62960 0.44760 0.12270 -0.12600
C 	C 	0.37320 0.86470 0.26670 -0.14100
C 	C 	0.43480 0.90760 0.32170 0.06700
C 	C 	0.62680 0.86470 0.26670 -0.12400
C 	C 	0.00000 0.65280 0.00680 -0.27600
C 	C 	0.25320 0.86150 0.27060 0.07300
C 	C 	0.17000 0.30200 0.89360 -0.20400
C 	C 	-0.00000 0.68990 0.56660 -0.25500
C 	C 	0.62860 0.03820 0.94280 -0.09100
C 	C 	0.25090 0.05880 0.62290 0.08600
C 	C 	0.25140 0.03700 0.94520 0.09000
C 	C 	-0.00000 0.15280 0.49320 -0.25300
C 	C 	0.37320 0.36470 0.23330 -0.14200
C 	C 	0.37140 0.03820 0.94280 -0.11000
C 	C 	0.25320 0.13850 0.72940 0.07000
C 	C 	0.74860 0.53700 0.55480 0.08500
C 	C 	0.62680 0.13530 0.73330 -0.12500
C 	C 	0.74910 0.44120 0.12290 0.08700
C 	C 	0.62680 0.63530 0.76670 -0.12400
C 	C 	0.43570 0.50000 0.50000 0.06500
C 	C 	0.37040 0.44760 0.12270 -0.14500
C 	C 	0.25320 0.36150 0.22940 0.06900
C 	C 	0.25140 0.46300 0.44520 0.08100
C 	C 	0.17000 0.19800 0.39360 -0.21000
C 	C 	0.56430 0.00000 -0.00000 0.00400
C 	C 	0.83000 0.80200 0.60640 -0.06600
C 	C 	0.62960 0.55240 0.87730 -0.12400
C 	C 	0.37040 0.05240 0.62270 -0.14500
C 	C 	0.00000 0.41360 0.84790 -0.25500
C 	C 	0.43480 0.09240 0.67830 0.06300
C 	C 	0.43480 0.40760 0.17830 0.06200
C 	C 	-0.00000 0.58640 0.15210 -0.25800
C 	C 	0.43570 0.00000 -0.00000 0.01300
C 	C 	0.74910 0.55880 0.87710 0.09200
C 	C 	0.00000 0.31010 0.43340 -0.25500
C 	C 	0.74910 0.05880 0.62290 0.08700
C 	C 	0.74860 0.46300 0.44520 0.08500
C 	C 	0.43480 0.59240 0.82170 0.06700
C 	C 	0.74860 0.96300 0.05480 0.09200
C 	C 	0.74680 0.63850 0.77060 0.07900
C 	C 	0.17000 0.80200 0.60640 -0.20300
C 	C 	0.74910 0.94120 0.37710 0.09200
C 	C 	0.37140 0.96180 0.05720 -0.10900
C 	C 	0.37320 0.63530 0.76670 -0.14100
C 	C 	0.37040 0.94760 0.37730 -0.14200
C 	C 	-0.00000 0.08640 0.34790 -0.26500
C 	C 	-0.00000 0.84720 0.50680 -0.24400
C 	C 	-0.00000 0.24570 0.79430 -0.25600
C 	C 	0.62860 0.46180 0.44280 -0.12600
C 	C 	0.25140 0.53700 0.55480 0.08200
C 	C 	0.74680 0.36150 0.22940 0.07400
C 	C 	0.74860 0.03700 0.94520 0.09000
C 	C 	0.62960 0.94760 0.37730 -0.12400
C 	C 	0.62860 0.53820 0.55720 -0.12600
C 	C 	0.62960 0.05240 0.62270 -0.12600
C 	C 	0.25090 0.55880 0.87710 0.09100
C 	C 	0.00000 0.34720 0.99320 -0.21700
C 	C 	0.56520 0.09240 0.67830 0.05400
C 	C 	0.56520 0.90760 0.32170 0.05800
C 	C 	0.83000 0.19800 0.39360 -0.07000
C 	C 	0.37140 0.53820 0.55720 -0.14600
C 	C 	0.74680 0.13850 0.72940 0.07500
C 	C 	0.56520 0.40760 0.17830 0.05300
C 	C 	0.25140 0.96300 0.05480 0.09200
C 	C 	0.56520 0.59240 0.82170 0.05800
C 	C 	0.25090 0.44120 0.12290 0.08600
C 	C 	0.17000 0.69800 0.10640 -0.20800
C 	C 	0.00000 0.18990 0.93340 -0.25200
C 	C 	-0.00000 0.75430 0.20570 -0.25500
C 	C 	0.25320 0.63850 0.77060 0.07400
C 	C 	0.25090 0.94120 0.37710 0.09100
C 	C 	-0.00000 0.91360 0.65210 -0.24700
C 	C 	0.37040 0.55240 0.87730 -0.14200
C 	C 	-0.00000 0.25430 0.29430 -0.26000
C 	C 	0.37320 0.13530 0.73330 -0.14200
C 	C 	0.74680 0.86150 0.27060 0.07800
C 	C 	0.00000 0.74570 0.70570 -0.25200
C 	C 	0.62860 0.96180 0.05720 -0.08900
C 	C 	0.83000 0.69800 0.10640 -0.07000
C 	C 	0.37140 0.46180 0.44280 -0.14600
C 	C 	-0.00000 0.81010 0.06660 -0.25600
C 	C 	0.62680 0.36470 0.23330 -0.12500
C 	C 	0.83000 0.30200 0.89360 -0.06800
N 	N 	-0.00000 0.48080 0.82310 -0.24800
N 	N 	0.80930 0.60127 0.82561 -0.20500
N 	N 	0.72950 0.30290 0.89690 -0.07000
N 	N 	0.27050 0.80290 0.60310 -0.05600
N 	N 	0.27050 0.30290 0.89690 -0.05700
N 	N 	-0.00000 0.01920 0.32310 -0.26000
N 	N 	-0.00000 0.51920 0.17690 -0.24900
N 	N 	0.00000 0.86840 0.44390 -0.25000
N 	N 	0.80970 0.50000 0.50000 -0.22600
N 	N 	0.80930 0.39873 0.17439 -0.20600
N 	N 	-0.00000 0.29590 0.24070 -0.26000
N 	N 	0.19070 0.10127 0.67439 -0.26300
N 	N 	0.72950 0.80290 0.60310 -0.06900
N 	N 	-0.00000 0.87840 0.04480 -0.25100
N 	N 	-0.00000 0.36840 0.05610 -0.27600
N 	N 	0.19070 0.39873 0.17439 -0.26200
N 	N 	-0.00000 0.79590 0.25930 -0.25700
N 	N 	0.72950 0.19710 0.39690 -0.07600
N 	N 	0.27050 0.69710 0.10310 -0.06200
N 	N 	-0.00000 0.37840 0.45520 -0.25700
N 	N 	-0.00000 0.98080 0.67690 -0.23500
N 	N 	0.19030 0.50000 0.50000 -0.28300
N 	N 	0.80970 0.00000 -0.00000 -0.25300
N 	N 	-0.00000 0.63160 0.94390 -0.23000
N 	N 	-0.00000 0.62160 0.54480 -0.25700
N 	N 	-0.00000 0.20410 0.74070 -0.25900
N 	N 	0.72950 0.69710 0.10310 -0.07400
N 	N 	0.80930 0.89873 0.32561 -0.20300
N 	N 	0.19070 0.60127 0.82561 -0.26000
N 	N 	-0.00000 0.70410 0.75930 -0.25600
N 	N 	0.27050 0.19710 0.39690 -0.06300
N 	N 	0.80930 0.10127 0.67439 -0.20700
N 	N 	-0.00000 0.13160 0.55610 -0.25500
N 	N 	0.19030 0.00000 -0.00000 -0.31200
N 	N 	-0.00000 0.12160 0.95520 -0.25100
N 	N 	0.19070 0.89873 0.32561 -0.25800
