data_crystal

_cell_length_a 23.46170
_cell_length_b 8.11700
_cell_length_c 16.89760
_cell_angle_alpha 90.00000
_cell_angle_beta  112.87300
_cell_angle_gamma 90.00000

_symmetry_space_group_name_	'P 1'
_symmetry_space_group_name_H-M	'P 1'

loop_
_symmetry_equiv_pos_as_xyz
  x,y,z

loop_
_atom_site_label
_atom_site_type_symbol
_atom_site_fract_x
_atom_site_fract_y
_atom_site_fract_z
_atom_site_charge
C 	C 	0.15688 0.41460 0.59499 0.26400
C 	C 	0.12966 0.33380 0.65494 0.23800
Ga	Ga	0.16119 0.65777 0.71148 2.08000
Ga	Ga	0.10343 0.11589 0.51524 2.07900
H 	H 	0.03620 0.94300 0.63800 -0.02500
H 	H 	0.26400 0.85200 0.64600 -0.01300
H 	H 	0.20700 0.16000 0.42900 -0.02700
H 	H 	0.16530 0.99300 0.28900 0.70200
O 	O 	0.13498 0.27570 0.30273 -0.54400
O 	O 	0.10490 0.09770 0.40196 -0.50400
O 	O 	0.25834 0.10530 0.70480 -0.56100
O 	O 	0.18264 0.00900 0.56160 -0.53400
O 	O 	0.97251 0.76160 0.53099 -0.50900
O 	O 	0.07846 0.68540 0.62644 -0.51600
O 	O 	0.10801 0.19280 0.63627 -0.43600
O 	O 	0.18869 0.87350 0.69915 -0.61100
O 	O 	0.06183 0.91470 0.51774 -0.55600
O 	O 	0.15153 0.33400 0.52977 -0.44200
O 	O 	0.18142 0.55270 0.61679 -0.46000
O 	O 	0.13175 0.41830 0.71860 -0.41000
O 	O 	0.16113 0.97270 0.32202 -0.91800
P 	P 	0.03783 0.82632 0.57785 0.52800
P 	P 	0.22415 0.95907 0.65173 0.54800
P 	P 	0.15274 0.13455 0.36571 0.62900
C 	C 	0.65688 0.91460 0.59499 0.26300
C 	C 	0.62966 0.83380 0.65494 0.23600
Ga	Ga	0.66119 0.15777 0.71148 2.08000
Ga	Ga	0.60343 0.61589 0.51524 2.07900
H 	H 	0.53620 0.44300 0.63800 -0.02600
H 	H 	0.76400 0.35200 0.64600 -0.01300
H 	H 	0.70700 0.66000 0.42900 -0.02700
H 	H 	0.66530 0.49300 0.28900 0.70200
O 	O 	0.63498 0.77570 0.30273 -0.54400
O 	O 	0.60490 0.59770 0.40196 -0.50400
O 	O 	0.75834 0.60530 0.70480 -0.56000
O 	O 	0.68264 0.50900 0.56160 -0.53400
O 	O 	0.47251 0.26160 0.53099 -0.50800
O 	O 	0.57846 0.18540 0.62644 -0.51600
O 	O 	0.60801 0.69280 0.63627 -0.43600
O 	O 	0.68869 0.37350 0.69915 -0.61100
O 	O 	0.56183 0.41470 0.51774 -0.55600
O 	O 	0.65153 0.83400 0.52977 -0.44200
O 	O 	0.68142 0.05270 0.61679 -0.46000
O 	O 	0.63175 0.91830 0.71860 -0.41000
O 	O 	0.66113 0.47270 0.32202 -0.91700
P 	P 	0.53783 0.32632 0.57785 0.52800
P 	P 	0.72415 0.45907 0.65173 0.54700
P 	P 	0.65274 0.63455 0.36571 0.62900
C 	C 	0.84312 0.41460 0.90501 0.26300
C 	C 	0.87034 0.33380 0.84506 0.23600
Ga	Ga	0.83881 0.65777 0.78852 2.08000
Ga	Ga	0.89657 0.11589 0.98476 2.07800
H 	H 	0.96380 0.94300 0.86200 -0.02600
H 	H 	0.73600 0.85200 0.85400 -0.01300
H 	H 	0.79300 0.16000 0.07100 -0.02600
H 	H 	0.83470 0.99300 0.21100 0.70200
O 	O 	0.86502 0.27570 0.19727 -0.54400
O 	O 	0.89510 0.09770 0.09804 -0.50200
O 	O 	0.74166 0.10530 0.79520 -0.56100
O 	O 	0.81736 0.00900 0.93840 -0.53600
O 	O 	0.02749 0.76160 0.96901 -0.50400
O 	O 	0.92154 0.68540 0.87356 -0.51600
O 	O 	0.89199 0.19280 0.86373 -0.43700
O 	O 	0.81131 0.87350 0.80085 -0.61100
O 	O 	0.93817 0.91470 0.98226 -0.55600
O 	O 	0.84847 0.33400 0.97023 -0.44300
O 	O 	0.81858 0.55270 0.88321 -0.46000
O 	O 	0.86825 0.41830 0.78140 -0.41100
O 	O 	0.83887 0.97270 0.17798 -0.91800
P 	P 	0.96217 0.82632 0.92215 0.52500
P 	P 	0.77585 0.95907 0.84827 0.54900
P 	P 	0.84726 0.13455 0.13429 0.62900
C 	C 	0.34312 0.91460 0.90501 0.26400
C 	C 	0.37034 0.83380 0.84506 0.23600
Ga	Ga	0.33881 0.15777 0.78852 2.08000
Ga	Ga	0.39657 0.61589 0.98476 2.07900
H 	H 	0.46380 0.44300 0.86200 -0.02600
H 	H 	0.23600 0.35200 0.85400 -0.01300
H 	H 	0.29300 0.66000 0.07100 -0.02700
H 	H 	0.33470 0.49300 0.21100 0.70200
O 	O 	0.36502 0.77570 0.19727 -0.54400
O 	O 	0.39510 0.59770 0.09804 -0.50400
O 	O 	0.24166 0.60530 0.79520 -0.56000
O 	O 	0.31736 0.50900 0.93840 -0.53300
O 	O 	0.52749 0.26160 0.96901 -0.50900
O 	O 	0.42154 0.18540 0.87356 -0.51600
O 	O 	0.39199 0.69280 0.86373 -0.43600
O 	O 	0.31131 0.37350 0.80085 -0.61100
O 	O 	0.43817 0.41470 0.98226 -0.55600
O 	O 	0.34847 0.83400 0.97023 -0.44100
O 	O 	0.31858 0.05270 0.88321 -0.46100
O 	O 	0.36825 0.91830 0.78140 -0.41000
O 	O 	0.33887 0.47270 0.17798 -0.91700
P 	P 	0.46217 0.32632 0.92215 0.52800
P 	P 	0.27585 0.45907 0.84827 0.54700
P 	P 	0.34726 0.63455 0.13429 0.62900
C 	C 	0.84312 0.58540 0.40501 0.26300
C 	C 	0.87034 0.66620 0.34506 0.23700
Ga	Ga	0.83881 0.34223 0.28852 2.08000
Ga	Ga	0.89657 0.88411 0.48476 2.07900
H 	H 	0.96380 0.05700 0.36200 -0.02500
H 	H 	0.73600 0.14800 0.35400 -0.01300
H 	H 	0.79300 0.84000 0.57100 -0.02700
H 	H 	0.83470 0.00700 0.71100 0.70200
O 	O 	0.86502 0.72430 0.69727 -0.54400
O 	O 	0.89510 0.90230 0.59804 -0.50400
O 	O 	0.74166 0.89470 0.29520 -0.56100
O 	O 	0.81736 0.99100 0.43840 -0.53400
O 	O 	0.02749 0.23840 0.46901 -0.50900
O 	O 	0.92154 0.31460 0.37356 -0.51600
O 	O 	0.89199 0.80720 0.36373 -0.43600
O 	O 	0.81131 0.12650 0.30085 -0.61100
O 	O 	0.93817 0.08530 0.48226 -0.55600
O 	O 	0.84847 0.66600 0.47023 -0.44200
O 	O 	0.81858 0.44730 0.38321 -0.46000
O 	O 	0.86825 0.58170 0.28140 -0.41000
O 	O 	0.83887 0.02730 0.67798 -0.91800
P 	P 	0.96217 0.17368 0.42215 0.52800
P 	P 	0.77585 0.04093 0.34827 0.54800
P 	P 	0.84726 0.86545 0.63429 0.62900
C 	C 	0.34312 0.08540 0.40501 0.26300
C 	C 	0.37034 0.16620 0.34506 0.23600
Ga	Ga	0.33881 0.84223 0.28852 2.08000
Ga	Ga	0.39657 0.38411 0.48476 2.07900
H 	H 	0.46380 0.55700 0.36200 -0.02600
H 	H 	0.23600 0.64800 0.35400 -0.01300
H 	H 	0.29300 0.34000 0.57100 -0.02700
H 	H 	0.33470 0.50700 0.71100 0.70200
O 	O 	0.36502 0.22430 0.69727 -0.54400
O 	O 	0.39510 0.40230 0.59804 -0.50400
O 	O 	0.24166 0.39470 0.29520 -0.56000
O 	O 	0.31736 0.49100 0.43840 -0.53400
O 	O 	0.52749 0.73840 0.46901 -0.50800
O 	O 	0.42154 0.81460 0.37356 -0.51600
O 	O 	0.39199 0.30720 0.36373 -0.43600
O 	O 	0.31131 0.62650 0.30085 -0.61100
O 	O 	0.43817 0.58530 0.48226 -0.55600
O 	O 	0.34847 0.16600 0.47023 -0.44200
O 	O 	0.31858 0.94730 0.38321 -0.46000
O 	O 	0.36825 0.08170 0.28140 -0.41000
O 	O 	0.33887 0.52730 0.67798 -0.91700
P 	P 	0.46217 0.67368 0.42215 0.52800
P 	P 	0.27585 0.54093 0.34827 0.54700
P 	P 	0.34726 0.36545 0.63429 0.62900
C 	C 	0.15688 0.58540 0.09499 0.26300
C 	C 	0.12966 0.66620 0.15494 0.23600
Ga	Ga	0.16119 0.34223 0.21148 2.08000
Ga	Ga	0.10343 0.88411 0.01524 2.07800
H 	H 	0.03620 0.05700 0.13800 -0.02600
H 	H 	0.26400 0.14800 0.14600 -0.01300
H 	H 	0.20700 0.84000 0.92900 -0.02600
H 	H 	0.16530 0.00700 0.78900 0.70200
O 	O 	0.13498 0.72430 0.80273 -0.54400
O 	O 	0.10490 0.90230 0.90196 -0.50200
O 	O 	0.25834 0.89470 0.20480 -0.56100
O 	O 	0.18264 0.99100 0.06160 -0.53600
O 	O 	0.97251 0.23840 0.03099 -0.50400
O 	O 	0.07846 0.31460 0.12644 -0.51600
O 	O 	0.10801 0.80720 0.13627 -0.43700
O 	O 	0.18869 0.12650 0.19915 -0.61100
O 	O 	0.06183 0.08530 0.01774 -0.55600
O 	O 	0.15153 0.66600 0.02977 -0.44300
O 	O 	0.18142 0.44730 0.11679 -0.46000
O 	O 	0.13175 0.58170 0.21860 -0.41100
O 	O 	0.16113 0.02730 0.82202 -0.91800
P 	P 	0.03783 0.17368 0.07785 0.52500
P 	P 	0.22415 0.04093 0.15173 0.54900
P 	P 	0.15274 0.86545 0.86571 0.62900
C 	C 	0.65688 0.08540 0.09499 0.26400
C 	C 	0.62966 0.16620 0.15494 0.23600
Ga	Ga	0.66119 0.84223 0.21148 2.08000
Ga	Ga	0.60343 0.38411 0.01524 2.07900
H 	H 	0.53620 0.55700 0.13800 -0.02600
H 	H 	0.76400 0.64800 0.14600 -0.01300
H 	H 	0.70700 0.34000 0.92900 -0.02700
H 	H 	0.66530 0.50700 0.78900 0.70200
O 	O 	0.63498 0.22430 0.80273 -0.54400
O 	O 	0.60490 0.40230 0.90196 -0.50400
O 	O 	0.75834 0.39470 0.20480 -0.56000
O 	O 	0.68264 0.49100 0.06160 -0.53300
O 	O 	0.47251 0.73840 0.03099 -0.50900
O 	O 	0.57846 0.81460 0.12644 -0.51600
O 	O 	0.60801 0.30720 0.13627 -0.43600
O 	O 	0.68869 0.62650 0.19915 -0.61100
O 	O 	0.56183 0.58530 0.01774 -0.55600
O 	O 	0.65153 0.16600 0.02977 -0.44100
O 	O 	0.68142 0.94730 0.11679 -0.46100
O 	O 	0.63175 0.08170 0.21860 -0.41000
O 	O 	0.66113 0.52730 0.82202 -0.91700
P 	P 	0.53783 0.67368 0.07785 0.52800
P 	P 	0.72415 0.54093 0.15173 0.54700
P 	P 	0.65274 0.36545 0.86571 0.62900
