data_crystal

_cell_length_a 16.34200
_cell_length_b 16.80900
_cell_length_c 19.30300
_cell_angle_alpha 90.00000
_cell_angle_beta  104.78000
_cell_angle_gamma 90.00000

_symmetry_space_group_name_	'P 1'
_symmetry_space_group_name_H-M	'P 1'

loop_
_symmetry_equiv_pos_as_xyz
  x,y,z

loop_
_atom_site_label
_atom_site_type_symbol
_atom_site_fract_x
_atom_site_fract_y
_atom_site_fract_z
_atom_site_charge
Mn	Mn	0.86684 0.89212 0.05305 1.24600
Mn	Mn	0.58807 0.64935 0.94423 1.26800
Br	Br	0.88626 0.21338 0.21333 -0.24300
Br	Br	0.87217 0.45694 0.14689 -0.23100
Br	Br	0.77801 0.90973 0.14514 -0.45900
Br	Br	0.53915 0.77207 0.86251 -0.25600
O 	O 	0.93420 0.00650 0.06780 -0.59000
O 	O 	0.04970 0.10170 0.02130 -0.59100
O 	O 	0.60900 0.54380 0.01740 -0.58900
O 	O 	0.53030 0.41800 0.06860 -0.57800
O 	O 	0.97530 0.83640 0.13000 -0.30600
O 	O 	0.61350 0.57060 0.86100 -0.31900
N 	N 	0.11870 0.16630 0.19660 -0.12500
N 	N 	0.72290 0.57010 0.19580 -0.12500
N 	N 	0.82360 0.77700 0.00760 -0.26000
N 	N 	0.76960 0.72960 0.99710 0.01500
N 	N 	0.72070 0.67790 0.98570 -0.19300
C 	C 	0.97430 0.14430 0.11160 0.02000
C 	C 	0.93370 0.22040 0.12930 -0.05600
H 	H 	0.88880 0.23560 0.08800 0.05200
H 	H 	0.97590 0.26240 0.13770 0.08100
C 	C 	0.90640 0.07770 0.09150 0.10700
H 	H 	0.88540 0.06640 0.13320 0.00400
H 	H 	0.85920 0.09770 0.05430 -0.04000
C 	C 	0.00680 0.16580 0.04560 -0.00300
H 	H 	0.95930 0.18220 0.00690 0.00700
H 	H 	0.04520 0.21070 0.05760 0.01200
C 	C 	0.04530 0.11080 0.17430 -0.09400
H 	H 	0.02210 0.10060 0.21500 0.04900
H 	H 	0.06490 0.06050 0.15970 0.02200
C 	C 	0.18190 0.16160 0.16300 0.06900
H 	H 	0.18000 0.12290 0.12820 -0.03300
C 	C 	0.25010 0.21490 0.18060 -0.14300
H 	H 	0.29330 0.21320 0.15720 0.08100
C 	C 	0.25100 0.26990 0.23370 0.04900
H 	H 	0.29550 0.30600 0.24650 0.01100
C 	C 	0.18620 0.27220 0.26850 -0.13000
H 	H 	0.18810 0.30880 0.30500 0.06600
C 	C 	0.12080 0.22130 0.24900 0.05400
H 	H 	0.07670 0.22360 0.27140 0.01500
C 	C 	0.68270 0.45080 0.11210 -0.05700
C 	C 	0.76540 0.40120 0.13670 -0.02900
H 	H 	0.76290 0.35830 0.10250 0.04900
H 	H 	0.76610 0.37700 0.18240 0.07400
C 	C 	0.68450 0.49870 0.04370 0.12200
H 	H 	0.73270 0.53440 0.05440 0.00600
H 	H 	0.69150 0.46220 0.00670 -0.03500
C 	C 	0.61330 0.38670 0.09270 0.11500
H 	H 	0.62470 0.35290 0.05560 -0.04200
H 	H 	0.61610 0.35380 0.13450 -0.00400
C 	C 	0.66380 0.50130 0.17230 -0.04700
H 	H 	0.60650 0.52170 0.15630 0.03500
H 	H 	0.66610 0.46730 0.21330 0.06900
C 	C 	0.78600 0.56380 0.25470 0.08600
H 	H 	0.79190 0.51700 0.28120 0.04400
C 	C 	0.84320 0.62530 0.27750 -0.11900
H 	H 	0.88800 0.62010 0.31800 0.10300
C 	C 	0.83100 0.69530 0.23730 0.07400
H 	H 	0.86700 0.73840 0.25160 0.03200
C 	C 	0.76440 0.70030 0.17570 -0.15100
H 	H 	0.75550 0.74610 0.14780 0.08700
C 	C 	0.71310 0.63610 0.15790 0.12100
H 	H 	0.66880 0.63890 0.11670 -0.03700
C 	C 	0.99610 0.75220 0.14190 0.05100
H 	H 	0.04760 0.74680 0.17900 0.01800
H 	H 	0.00330 0.72890 0.09850 -0.02000
H 	H 	0.95100 0.72560 0.15610 0.03400
C 	C 	0.56300 0.57810 0.78750 0.06300
H 	H 	0.58370 0.54190 0.75750 -0.00300
H 	H 	0.56690 0.63160 0.77120 -0.06500
H 	H 	0.50500 0.56590 0.78530 0.00300
Br	Br	0.54070 0.72390 0.81730 -0.26400
C 	C 	0.98100 0.87400 0.20400 -0.23700
H 	H 	0.02740 0.85090 0.23860 0.11300
H 	H 	0.92910 0.86350 0.21730 0.11800
H 	H 	0.98890 0.93010 0.20130 0.10900
C 	C 	0.68400 0.54760 0.84030 -0.08000
H 	H 	0.66830 0.51360 0.79910 0.05700
H 	H 	0.72200 0.51930 0.87880 0.07000
H 	H 	0.71270 0.59380 0.82860 0.05900
Mn	Mn	0.63316 0.39212 0.44695 1.25000
Mn	Mn	0.91193 0.14935 0.55577 1.26200
Br	Br	0.61374 0.71338 0.28667 -0.25300
Br	Br	0.62783 0.95694 0.35311 -0.19100
Br	Br	0.72199 0.40973 0.35486 -0.46900
Br	Br	0.96085 0.27207 0.63749 -0.27000
O 	O 	0.56580 0.50650 0.43220 -0.57200
O 	O 	0.45030 0.60170 0.47870 -0.55900
O 	O 	0.89100 0.04380 0.48260 -0.58700
O 	O 	0.96970 0.91800 0.43140 -0.52400
O 	O 	0.52470 0.33640 0.37000 -0.21700
O 	O 	0.88650 0.07060 0.63900 -0.37600
N 	N 	0.38130 0.66630 0.30340 -0.12600
N 	N 	0.77710 0.07010 0.30420 -0.10800
N 	N 	0.67640 0.27700 0.49240 -0.21600
N 	N 	0.73040 0.22960 0.50290 -0.03100
N 	N 	0.77930 0.17790 0.51430 -0.21200
C 	C 	0.52570 0.64430 0.38840 -0.05200
C 	C 	0.56630 0.72040 0.37070 -0.03100
H 	H 	0.61120 0.73560 0.41200 0.05300
H 	H 	0.52410 0.76240 0.36230 0.06700
C 	C 	0.59360 0.57770 0.40850 0.11500
H 	H 	0.61460 0.56640 0.36680 0.00900
H 	H 	0.64080 0.59770 0.44570 -0.02600
C 	C 	0.49320 0.66580 0.45440 0.10000
H 	H 	0.54070 0.68220 0.49310 -0.02000
H 	H 	0.45480 0.71070 0.44240 0.00800
C 	C 	0.45470 0.61080 0.32570 -0.04800
H 	H 	0.47790 0.60060 0.28500 0.05600
H 	H 	0.43510 0.56050 0.34030 0.03000
C 	C 	0.31810 0.66160 0.33700 0.07800
H 	H 	0.32000 0.62290 0.37180 -0.02000
C 	C 	0.24990 0.71490 0.31940 -0.14000
H 	H 	0.20670 0.71320 0.34280 0.08800
C 	C 	0.24900 0.76990 0.26630 0.05500
H 	H 	0.20450 0.80600 0.25350 0.00900
C 	C 	0.31380 0.77220 0.23150 -0.13100
H 	H 	0.31190 0.80880 0.19500 0.06700
C 	C 	0.37920 0.72130 0.25100 0.06300
H 	H 	0.42330 0.72360 0.22860 0.01900
C 	C 	0.81730 0.95080 0.38790 0.00600
C 	C 	0.73460 0.90120 0.36330 -0.05300
H 	H 	0.73710 0.85830 0.39750 0.06300
H 	H 	0.73390 0.87700 0.31760 0.08400
C 	C 	0.81550 0.99870 0.45630 0.21900
H 	H 	0.76730 0.03440 0.44560 -0.03900
H 	H 	0.80850 0.96220 0.49330 -0.03000
C 	C 	0.88670 0.88670 0.40730 0.06800
H 	H 	0.87530 0.85290 0.44440 -0.01200
H 	H 	0.88390 0.85380 0.36550 0.01700
C 	C 	0.83620 0.00130 0.32770 -0.20200
H 	H 	0.89350 0.02170 0.34370 0.07300
H 	H 	0.83390 0.96730 0.28670 0.14600
C 	C 	0.71400 0.06380 0.24530 0.06600
H 	H 	0.70810 0.01700 0.21880 0.02800
C 	C 	0.65680 0.12530 0.22250 -0.11300
H 	H 	0.61200 0.12010 0.18200 0.08100
C 	C 	0.66900 0.19530 0.26270 0.05700
H 	H 	0.63300 0.23840 0.24840 0.02900
C 	C 	0.73560 0.20030 0.32430 -0.13800
H 	H 	0.74450 0.24610 0.35220 0.08900
C 	C 	0.78690 0.13610 0.34210 0.10600
H 	H 	0.83120 0.13890 0.38330 -0.02000
C 	C 	0.50390 0.25220 0.35810 -0.27300
H 	H 	0.45240 0.24680 0.32100 0.13100
H 	H 	0.49670 0.22890 0.40150 0.10900
H 	H 	0.54900 0.22560 0.34390 0.12400
C 	C 	0.93700 0.07810 0.71250 0.24800
H 	H 	0.91630 0.04190 0.74250 -0.06600
H 	H 	0.93310 0.13160 0.72880 -0.17900
H 	H 	0.99500 0.06590 0.71470 -0.05000
Br	Br	0.95930 0.22390 0.68270 -0.25200
C 	C 	0.51900 0.37400 0.29600 -0.52500
H 	H 	0.47260 0.35090 0.26140 0.26500
H 	H 	0.57090 0.36350 0.28270 0.20100
H 	H 	0.51110 0.43010 0.29870 0.18000
C 	C 	0.81600 0.04760 0.65970 -0.00900
H 	H 	0.83170 0.01360 0.70090 0.02600
H 	H 	0.77800 0.01930 0.62120 0.02300
H 	H 	0.78730 0.09380 0.67140 0.03300
Mn	Mn	0.13316 0.10788 0.94695 1.25300
Mn	Mn	0.41193 0.35065 0.05577 1.24100
Br	Br	0.11374 0.78662 0.78667 -0.25400
Br	Br	0.12783 0.54306 0.85311 -0.22500
Br	Br	0.22199 0.09027 0.85486 -0.49100
Br	Br	0.46085 0.22793 0.13749 -0.33000
O 	O 	0.06580 0.99350 0.93220 -0.51900
O 	O 	0.95030 0.89830 0.97870 -0.50100
O 	O 	0.39100 0.45620 0.98260 -0.50700
O 	O 	0.46970 0.58200 0.93140 -0.53100
O 	O 	0.02470 0.16360 0.87000 -0.12500
O 	O 	0.38650 0.42940 0.13900 -0.36200
N 	N 	0.88130 0.83370 0.80340 -0.12300
N 	N 	0.27710 0.42990 0.80420 -0.12100
N 	N 	0.17640 0.22300 0.99240 -0.17000
N 	N 	0.23040 0.27040 0.00290 -0.07800
N 	N 	0.27930 0.32210 0.01430 -0.23200
C 	C 	0.02570 0.85570 0.88840 -0.08300
C 	C 	0.06630 0.77960 0.87070 -0.02300
H 	H 	0.11120 0.76440 0.91200 0.05700
H 	H 	0.02410 0.73760 0.86230 0.05800
C 	C 	0.09360 0.92230 0.90850 0.09900
H 	H 	0.11460 0.93360 0.86680 0.02400
H 	H 	0.14080 0.90230 0.94570 -0.00400
C 	C 	0.99320 0.83420 0.95440 0.15100
H 	H 	0.04070 0.81780 0.99310 -0.02500
H 	H 	0.95480 0.78930 0.94240 0.01300
C 	C 	0.95470 0.88920 0.82570 -0.03000
H 	H 	0.97790 0.89940 0.78500 0.07000
H 	H 	0.93510 0.93950 0.84030 0.04600
C 	C 	0.81810 0.83840 0.83700 0.08500
H 	H 	0.82000 0.87710 0.87180 -0.00400
C 	C 	0.74990 0.78510 0.81940 -0.13300
H 	H 	0.70670 0.78680 0.84280 0.09500
C 	C 	0.74900 0.73010 0.76630 0.05900
H 	H 	0.70450 0.69400 0.75350 0.01100
C 	C 	0.81380 0.72780 0.73150 -0.12700
H 	H 	0.81190 0.69120 0.69500 0.07500
C 	C 	0.87920 0.77870 0.75100 0.07200
H 	H 	0.92330 0.77640 0.72860 0.03100
C 	C 	0.31730 0.54920 0.88790 -0.01900
C 	C 	0.23460 0.59880 0.86330 -0.04900
H 	H 	0.23710 0.64170 0.89750 0.06700
H 	H 	0.23390 0.62300 0.81760 0.08000
C 	C 	0.31550 0.50130 0.95630 0.06100
H 	H 	0.26730 0.46560 0.94560 0.04700
H 	H 	0.30850 0.53780 0.99330 0.02000
C 	C 	0.38670 0.61330 0.90730 0.07300
H 	H 	0.37530 0.64710 0.94440 -0.00600
H 	H 	0.38390 0.64620 0.86550 0.01200
C 	C 	0.33620 0.49870 0.82770 -0.07000
H 	H 	0.39350 0.47830 0.84370 0.04900
H 	H 	0.33390 0.53270 0.78670 0.07600
C 	C 	0.21400 0.43620 0.74530 0.08100
H 	H 	0.20810 0.48300 0.71880 0.04200
C 	C 	0.15680 0.37470 0.72250 -0.11800
H 	H 	0.11200 0.37990 0.68200 0.08700
C 	C 	0.16900 0.30470 0.76270 0.06500
H 	H 	0.13300 0.26160 0.74840 0.01900
C 	C 	0.23560 0.29970 0.82430 -0.14600
H 	H 	0.24450 0.25390 0.85220 0.09800
C 	C 	0.28690 0.36390 0.84210 0.11900
H 	H 	0.33120 0.36110 0.88330 -0.01600
C 	C 	0.00390 0.24780 0.85810 -0.61300
H 	H 	0.95240 0.25320 0.82100 0.25600
H 	H 	0.99670 0.27110 0.90150 0.24900
H 	H 	0.04900 0.27440 0.84390 0.22600
C 	C 	0.43700 0.42190 0.21250 0.09400
H 	H 	0.41630 0.45810 0.24250 -0.01400
H 	H 	0.43310 0.36840 0.22880 -0.08000
H 	H 	0.49500 0.43410 0.21470 -0.00900
Br	Br	0.45930 0.27610 0.18270 -0.23200
C 	C 	0.01900 0.12600 0.79600 -0.80900
H 	H 	0.97260 0.14910 0.76140 0.41500
H 	H 	0.07090 0.13650 0.78270 0.28200
H 	H 	0.01110 0.06990 0.79870 0.24700
C 	C 	0.31600 0.45240 0.15970 -0.00300
H 	H 	0.33170 0.48640 0.20090 0.02700
H 	H 	0.27800 0.48070 0.12120 0.01400
H 	H 	0.28730 0.40620 0.17140 0.02700
Mn	Mn	0.36684 0.60788 0.55305 1.24900
Mn	Mn	0.08807 0.85065 0.44423 1.24900
Br	Br	0.38626 0.28662 0.71333 -0.24800
Br	Br	0.37217 0.04306 0.64689 -0.27000
Br	Br	0.27801 0.59027 0.64514 -0.47700
Br	Br	0.03915 0.72793 0.36251 -0.31800
O 	O 	0.43420 0.49350 0.56780 -0.57300
O 	O 	0.54970 0.39830 0.52130 -0.56000
O 	O 	0.10900 0.95620 0.51740 -0.50100
O 	O 	0.03030 0.08200 0.56860 -0.58900
O 	O 	0.47530 0.66360 0.63000 -0.21200
O 	O 	0.11350 0.92940 0.36100 -0.30200
N 	N 	0.61870 0.33370 0.69660 -0.12500
N 	N 	0.22290 0.92990 0.69580 -0.14000
N 	N 	0.32360 0.72300 0.50760 -0.21500
N 	N 	0.26960 0.77040 0.49710 -0.03000
N 	N 	0.22070 0.82210 0.48570 -0.21200
C 	C 	0.47430 0.35570 0.61160 -0.05500
C 	C 	0.43370 0.27960 0.62930 -0.02700
H 	H 	0.38880 0.26440 0.58800 0.04800
H 	H 	0.47590 0.23760 0.63770 0.06300
C 	C 	0.40640 0.42230 0.59150 0.11800
H 	H 	0.38540 0.43360 0.63320 0.00800
H 	H 	0.35920 0.40230 0.55430 -0.03000
C 	C 	0.50680 0.33420 0.54560 0.10500
H 	H 	0.45930 0.31780 0.50690 -0.02500
H 	H 	0.54520 0.28930 0.55760 0.00400
C 	C 	0.54530 0.38920 0.67430 -0.04800
H 	H 	0.52210 0.39940 0.71500 0.05900
H 	H 	0.56490 0.43950 0.65970 0.03000
C 	C 	0.68190 0.33840 0.66300 0.07900
H 	H 	0.68000 0.37710 0.62820 -0.01800
C 	C 	0.75010 0.28510 0.68060 -0.13800
H 	H 	0.79330 0.28680 0.65720 0.08800
C 	C 	0.75100 0.23010 0.73370 0.05400
H 	H 	0.79550 0.19400 0.74650 0.01200
C 	C 	0.68620 0.22780 0.76850 -0.12800
H 	H 	0.68810 0.19120 0.80500 0.07500
C 	C 	0.62080 0.27870 0.74900 0.06600
H 	H 	0.57670 0.27640 0.77140 0.02700
C 	C 	0.18270 0.04920 0.61210 -0.08900
C 	C 	0.26540 0.09880 0.63670 -0.02200
H 	H 	0.26290 0.14170 0.60250 0.05100
H 	H 	0.26610 0.12300 0.68240 0.06800
C 	C 	0.18450 0.00130 0.54370 -0.04900
H 	H 	0.23270 0.96560 0.55440 0.09900
H 	H 	0.19150 0.03780 0.50670 0.01600
C 	C 	0.11330 0.11330 0.59270 0.12300
H 	H 	0.12470 0.14710 0.55560 -0.03900
H 	H 	0.11610 0.14620 0.63450 -0.01200
C 	C 	0.16380 0.99870 0.67230 0.10500
H 	H 	0.10650 0.97830 0.65630 0.00800
H 	H 	0.16610 0.03270 0.71330 -0.01100
C 	C 	0.28600 0.93620 0.75470 0.10200
H 	H 	0.29190 0.98300 0.78120 0.06000
C 	C 	0.34320 0.87470 0.77750 -0.12500
H 	H 	0.38800 0.87990 0.81800 0.11000
C 	C 	0.33100 0.80470 0.73730 0.08300
H 	H 	0.36700 0.76160 0.75160 0.02200
C 	C 	0.26440 0.79970 0.67570 -0.16000
H 	H 	0.25550 0.75390 0.64780 0.09600
C 	C 	0.21310 0.86390 0.65790 0.13600
H 	H 	0.16880 0.86110 0.61670 -0.03300
C 	C 	0.49610 0.74780 0.64190 -0.30300
H 	H 	0.54760 0.75320 0.67900 0.14800
H 	H 	0.50330 0.77110 0.59850 0.12600
H 	H 	0.45100 0.77440 0.65610 0.14000
C 	C 	0.06300 0.92190 0.28750 -0.09300
H 	H 	0.08370 0.95810 0.25750 0.05100
H 	H 	0.06690 0.86840 0.27120 0.03500
H 	H 	0.00500 0.93410 0.28530 0.04500
Br	Br	0.04070 0.77610 0.31730 -0.24300
C 	C 	0.48100 0.62600 0.70400 -0.52000
H 	H 	0.52740 0.64910 0.73860 0.26200
H 	H 	0.42910 0.63650 0.71730 0.20000
H 	H 	0.48890 0.56990 0.70130 0.17800
C 	C 	0.18400 0.95240 0.34030 -0.08000
H 	H 	0.16830 0.98640 0.29910 0.06200
H 	H 	0.22200 0.98070 0.37880 0.06500
H 	H 	0.21270 0.90620 0.32860 0.05600
Mn	Mn	-0.00000 0.00000 -0.00000 1.24200
Mn	Mn	0.50000 0.50000 0.50000 1.30200
Mn	Mn	0.50000 0.50000 -0.00000 1.28100
Mn	Mn	0.00000 0.00000 0.50000 1.27600
