data_crystal

_cell_length_a 17.32260
_cell_length_b 9.28200
_cell_length_c 29.83880
_cell_angle_alpha 90.00000
_cell_angle_beta  93.72600
_cell_angle_gamma 90.00000

_symmetry_space_group_name_	'P 1'
_symmetry_space_group_name_H-M	'P 1'

loop_
_symmetry_equiv_pos_as_xyz
  x,y,z

loop_
_atom_site_label
_atom_site_type_symbol
_atom_site_fract_x
_atom_site_fract_y
_atom_site_fract_z
_atom_site_charge
Ag	Ag	0.50258 0.08860 0.11168 0.49500
Ag	Ag	0.81934 0.10588 0.22064 0.49500
Ag	Ag	0.83348 0.99440 0.44378 0.49200
S 	S 	0.92451 0.19709 0.47199 -0.06900
S 	S 	0.58379 0.86564 0.14516 -0.06100
S 	S 	0.74295 0.87674 0.19496 -0.06600
S 	S 	0.88678 0.76810 0.48465 -0.07100
S 	S 	0.04539 0.80876 0.16246 -0.06300
S 	S 	0.80237 0.99759 0.35883 -0.10100
S 	S 	0.80413 0.51868 0.52739 -0.06600
S 	S 	0.95741 0.05263 0.20366 -0.08700
S 	S 	0.56205 0.09338 0.03528 -0.08500
S 	S 	0.35970 0.05112 0.12083 -0.07800
S 	S 	0.26744 0.81098 0.16213 -0.05900
S 	S 	0.77394 0.23647 0.28858 -0.08500
H 	H 	0.02310 0.02590 0.47760 0.03800
C 	C 	0.66070 0.97480 0.17055 -0.14000
H 	H 	0.63940 0.03460 0.19430 0.03800
H 	H 	0.67880 0.04100 0.14740 0.03500
C 	C 	0.30760 0.02210 0.06718 -0.32900
H 	H 	0.34070 0.97010 0.04720 0.10100
H 	H 	0.29280 0.11520 0.05370 0.10100
H 	H 	0.26100 0.96510 0.07150 0.10900
C 	C 	0.86560 0.55410 0.57751 -0.33800
H 	H 	0.91590 0.58950 0.56900 0.11300
H 	H 	0.87290 0.46510 0.59490 0.10100
H 	H 	0.84130 0.62710 0.59570 0.10200
C 	C 	0.97630 0.25440 0.42437 -0.34700
H 	H 	0.02360 0.30530 0.43500 0.12100
H 	H 	0.94350 0.31900 0.40540 0.10400
H 	H 	0.99000 0.16990 0.40680 0.09900
C 	C 	0.63250 0.79190 0.09825 -0.34800
H 	H 	0.65410 0.87070 0.08110 0.10800
H 	H 	0.59540 0.73740 0.07870 0.10400
H 	H 	0.67430 0.72790 0.10960 0.12000
C 	C 	0.64800 0.20420 0.04268 -0.33000
H 	H 	0.67100 0.21580 0.01370 0.10300
H 	H 	0.68540 0.15770 0.06410 0.09900
H 	H 	0.63410 0.29890 0.05420 0.09800
C 	C 	0.81830 0.18240 0.34220 -0.11800
H 	H 	0.79890 0.24650 0.36550 0.03900
H 	H 	0.87470 0.19840 0.34180 0.03700
C 	C 	0.95260 0.87330 0.18051 -0.13300
H 	H 	0.91410 0.87200 0.15450 0.03500
H 	H 	0.93430 0.80640 0.20340 0.03900
H 	H 	0.53140 0.27200 0.98130 0.03400
C 	C 	0.36090 0.87200 0.14466 -0.13400
H 	H 	0.39870 0.86980 0.17100 0.03100
H 	H 	0.37900 0.80340 0.12220 0.04000
C 	C 	0.06740 0.95110 0.12369 -0.35700
H 	H 	0.03240 0.94410 0.09660 0.10400
H 	H 	0.12100 0.94120 0.11550 0.11400
H 	H 	0.06070 0.04490 0.13800 0.13100
C 	C 	0.24160 0.95820 0.19787 -0.36300
H 	H 	0.28250 0.97200 0.22180 0.11100
H 	H 	0.19280 0.93590 0.21120 0.11800
H 	H 	0.23560 0.04650 0.18000 0.13200
C 	C 	0.67370 0.19690 0.29665 -0.32600
H 	H 	0.66840 0.09490 0.30440 0.10400
H 	H 	0.64230 0.21750 0.26890 0.09800
H 	H 	0.65600 0.25670 0.32100 0.10400
C 	C 	0.79650 0.69640 0.50296 -0.13200
H 	H 	0.77650 0.76320 0.52530 0.03600
H 	H 	0.75820 0.69340 0.47690 0.03500
C 	C 	0.87640 0.90320 0.33036 -0.29700
H 	H 	0.87190 0.92740 0.29830 0.08000
H 	H 	0.86980 0.79910 0.33410 0.08600
H 	H 	0.92760 0.93190 0.34330 0.08100
C 	C 	0.70240 0.80000 0.24406 -0.34300
H 	H 	0.68810 0.87760 0.26420 0.10300
H 	H 	0.74080 0.73730 0.25980 0.10500
H 	H 	0.65630 0.74360 0.23480 0.11700
C 	C 	0.90880 0.63820 0.44221 -0.33900
H 	H 	0.91490 0.54260 0.45590 0.12200
H 	H 	0.95690 0.66570 0.42890 0.10000
H 	H 	0.86650 0.63580 0.41880 0.10000
C 	C 	0.01920 0.02620 0.25400 -0.30100
H 	H 	0.99920 0.94670 0.27140 0.08700
H 	H 	0.02030 0.11450 0.27200 0.09000
H 	H 	0.07170 0.00320 0.24590 0.10300
Ag	Ag	0.00258 0.58860 0.11168 0.49500
Ag	Ag	0.31934 0.60588 0.22064 0.49300
Ag	Ag	0.33348 0.49440 0.44378 0.49400
S 	S 	0.42451 0.69709 0.47199 -0.07200
S 	S 	0.08379 0.36564 0.14516 -0.06000
S 	S 	0.24295 0.37674 0.19496 -0.06700
S 	S 	0.38678 0.26810 0.48465 -0.06700
S 	S 	0.54539 0.30876 0.16246 -0.06800
S 	S 	0.30237 0.49759 0.35883 -0.09700
S 	S 	0.30413 0.01868 0.52739 -0.06300
S 	S 	0.45741 0.55263 0.20366 -0.08100
S 	S 	0.06205 0.59338 0.03528 -0.08600
S 	S 	0.85970 0.55112 0.12083 -0.08000
S 	S 	0.76744 0.31098 0.16213 -0.06000
S 	S 	0.27394 0.73647 0.28858 -0.08600
H 	H 	0.52310 0.52590 0.47760 0.03700
C 	C 	0.16070 0.47480 0.17055 -0.13600
H 	H 	0.13940 0.53460 0.19430 0.03600
H 	H 	0.17880 0.54100 0.14740 0.03400
C 	C 	0.80760 0.52210 0.06718 -0.33000
H 	H 	0.84070 0.47010 0.04720 0.10100
H 	H 	0.79280 0.61520 0.05370 0.10100
H 	H 	0.76100 0.46510 0.07150 0.11000
C 	C 	0.36560 0.05410 0.57751 -0.32700
H 	H 	0.41590 0.08950 0.56900 0.11200
H 	H 	0.37290 0.96510 0.59490 0.09500
H 	H 	0.34130 0.12710 0.59570 0.10000
C 	C 	0.47630 0.75440 0.42437 -0.33300
H 	H 	0.52360 0.80530 0.43500 0.11400
H 	H 	0.44350 0.81900 0.40540 0.09900
H 	H 	0.49000 0.66990 0.40680 0.09500
C 	C 	0.13250 0.29190 0.09825 -0.35000
H 	H 	0.15410 0.37070 0.08110 0.10900
H 	H 	0.09540 0.23740 0.07870 0.10600
H 	H 	0.17430 0.22790 0.10960 0.12000
C 	C 	0.14800 0.70420 0.04268 -0.33000
H 	H 	0.17100 0.71580 0.01370 0.10300
H 	H 	0.18540 0.65770 0.06410 0.09900
H 	H 	0.13410 0.79890 0.05420 0.09800
C 	C 	0.31830 0.68240 0.34220 -0.12200
H 	H 	0.29890 0.74650 0.36550 0.03900
H 	H 	0.37470 0.69840 0.34180 0.03800
C 	C 	0.45260 0.37330 0.18051 -0.13000
H 	H 	0.41410 0.37200 0.15450 0.03500
H 	H 	0.43430 0.30640 0.20340 0.03900
H 	H 	0.03140 0.77200 0.98130 0.03300
C 	C 	0.86090 0.37200 0.14466 -0.13300
H 	H 	0.89870 0.36980 0.17100 0.03000
H 	H 	0.87900 0.30340 0.12220 0.03900
C 	C 	0.56740 0.45110 0.12369 -0.35100
H 	H 	0.53240 0.44410 0.09660 0.10100
H 	H 	0.62100 0.44120 0.11550 0.11300
H 	H 	0.56070 0.54490 0.13800 0.12800
C 	C 	0.74160 0.45820 0.19787 -0.35900
H 	H 	0.78250 0.47200 0.22180 0.11100
H 	H 	0.69280 0.43590 0.21120 0.11700
H 	H 	0.73560 0.54650 0.18000 0.13000
C 	C 	0.17370 0.69690 0.29665 -0.32600
H 	H 	0.16840 0.59490 0.30440 0.10200
H 	H 	0.14230 0.71750 0.26890 0.09800
H 	H 	0.15600 0.75670 0.32100 0.10400
C 	C 	0.29650 0.19640 0.50296 -0.13500
H 	H 	0.27650 0.26320 0.52530 0.03700
H 	H 	0.25820 0.19340 0.47690 0.03600
C 	C 	0.37640 0.40320 0.33036 -0.30100
H 	H 	0.37190 0.42740 0.29830 0.08200
H 	H 	0.36980 0.29910 0.33410 0.08800
H 	H 	0.42760 0.43190 0.34330 0.08400
C 	C 	0.20240 0.30000 0.24406 -0.34400
H 	H 	0.18810 0.37760 0.26420 0.10400
H 	H 	0.24080 0.23730 0.25980 0.10700
H 	H 	0.15630 0.24360 0.23480 0.11800
C 	C 	0.40880 0.13820 0.44221 -0.34400
H 	H 	0.41490 0.04260 0.45590 0.12600
H 	H 	0.45690 0.16570 0.42890 0.10400
H 	H 	0.36650 0.13580 0.41880 0.10200
C 	C 	0.51920 0.52620 0.25400 -0.32800
H 	H 	0.49920 0.44670 0.27140 0.09900
H 	H 	0.52030 0.61450 0.27200 0.09600
H 	H 	0.57170 0.50320 0.24590 0.10900
Ag	Ag	0.49742 0.08860 0.88831 0.49400
Ag	Ag	0.18066 0.10588 0.77936 0.49400
Ag	Ag	0.16651 0.99440 0.55622 0.49100
S 	S 	0.07549 0.19709 0.52801 -0.07000
S 	S 	0.41621 0.86564 0.85484 -0.06200
S 	S 	0.25705 0.87674 0.80504 -0.06700
S 	S 	0.11322 0.76810 0.51535 -0.06800
S 	S 	0.95461 0.80876 0.83754 -0.07200
S 	S 	0.19763 0.99759 0.64117 -0.10200
S 	S 	0.19587 0.51868 0.47261 -0.06500
S 	S 	0.04259 0.05263 0.79634 -0.07400
S 	S 	0.43795 0.09338 0.96472 -0.09100
S 	S 	0.64030 0.05112 0.87917 -0.07900
S 	S 	0.73256 0.81098 0.83787 -0.05900
S 	S 	0.22606 0.23647 0.71142 -0.08400
H 	H 	0.97690 0.02590 0.52240 0.03300
C 	C 	0.33930 0.97480 0.82945 -0.14000
H 	H 	0.36060 0.03460 0.80570 0.03800
H 	H 	0.32120 0.04100 0.85260 0.03600
C 	C 	0.69240 0.02210 0.93282 -0.32600
H 	H 	0.65930 0.97010 0.95280 0.09800
H 	H 	0.70720 0.11520 0.94630 0.09800
H 	H 	0.73900 0.96510 0.92850 0.10800
C 	C 	0.13440 0.55410 0.42249 -0.34100
H 	H 	0.08410 0.58950 0.43100 0.11600
H 	H 	0.12710 0.46510 0.40510 0.10200
H 	H 	0.15870 0.62710 0.40430 0.10300
C 	C 	0.02370 0.25440 0.57563 -0.32300
H 	H 	0.97640 0.30530 0.56500 0.10900
H 	H 	0.05650 0.31900 0.59460 0.09800
H 	H 	0.01000 0.16990 0.59320 0.09500
C 	C 	0.36750 0.79190 0.90175 -0.34700
H 	H 	0.34590 0.87070 0.91890 0.10700
H 	H 	0.40460 0.73740 0.92130 0.10300
H 	H 	0.32570 0.72790 0.89040 0.11900
C 	C 	0.35200 0.20420 0.95732 -0.32600
H 	H 	0.32900 0.21580 0.98630 0.10000
H 	H 	0.31460 0.15770 0.93590 0.09800
H 	H 	0.36590 0.29890 0.94580 0.09700
C 	C 	0.18170 0.18240 0.65780 -0.11800
H 	H 	0.20110 0.24650 0.63450 0.03900
H 	H 	0.12530 0.19840 0.65820 0.03800
C 	C 	0.04740 0.87330 0.81949 -0.12900
H 	H 	0.08590 0.87200 0.84550 0.03500
H 	H 	0.06570 0.80640 0.79660 0.03900
H 	H 	0.46860 0.27200 0.01870 0.03800
C 	C 	0.63910 0.87200 0.85534 -0.13400
H 	H 	0.60130 0.86980 0.82900 0.03000
H 	H 	0.62100 0.80340 0.87780 0.04000
C 	C 	0.93260 0.95110 0.87631 -0.35100
H 	H 	0.96760 0.94410 0.90340 0.10000
H 	H 	0.87900 0.94120 0.88450 0.11200
H 	H 	0.93930 0.04490 0.86200 0.12700
C 	C 	0.75840 0.95820 0.80213 -0.36200
H 	H 	0.71750 0.97200 0.77820 0.11100
H 	H 	0.80720 0.93590 0.78880 0.11800
H 	H 	0.76440 0.04650 0.82000 0.13200
C 	C 	0.32630 0.19690 0.70335 -0.32700
H 	H 	0.33160 0.09490 0.69560 0.10400
H 	H 	0.35770 0.21750 0.73110 0.09800
H 	H 	0.34400 0.25670 0.67900 0.10500
C 	C 	0.20350 0.69640 0.49704 -0.13400
H 	H 	0.22350 0.76320 0.47470 0.03600
H 	H 	0.24180 0.69340 0.52310 0.03500
C 	C 	0.12360 0.90320 0.66964 -0.29900
H 	H 	0.12810 0.92740 0.70170 0.08000
H 	H 	0.13020 0.79910 0.66590 0.08700
H 	H 	0.07240 0.93190 0.65670 0.08300
C 	C 	0.29760 0.80000 0.75594 -0.34300
H 	H 	0.31190 0.87760 0.73580 0.10300
H 	H 	0.25920 0.73730 0.74020 0.10600
H 	H 	0.34370 0.74360 0.76520 0.11700
C 	C 	0.09120 0.63820 0.55779 -0.34300
H 	H 	0.08510 0.54260 0.54410 0.12500
H 	H 	0.04310 0.66570 0.57110 0.10400
H 	H 	0.13350 0.63580 0.58120 0.10100
C 	C 	0.98080 0.02620 0.74600 -0.34000
H 	H 	0.00080 0.94670 0.72860 0.10400
H 	H 	0.97970 0.11450 0.72800 0.09800
H 	H 	0.92830 0.00320 0.75410 0.11300
Ag	Ag	0.99742 0.58860 0.88831 0.49200
Ag	Ag	0.68066 0.60588 0.77936 0.49300
Ag	Ag	0.66651 0.49440 0.55622 0.49400
S 	S 	0.57549 0.69709 0.52801 -0.07200
S 	S 	0.91621 0.36564 0.85484 -0.06400
S 	S 	0.75705 0.37674 0.80504 -0.06700
S 	S 	0.61322 0.26810 0.51535 -0.06700
S 	S 	0.45461 0.30876 0.83754 -0.06800
S 	S 	0.69763 0.49759 0.64117 -0.09700
S 	S 	0.69587 0.01868 0.47261 -0.06300
S 	S 	0.54259 0.55263 0.79634 -0.08100
S 	S 	0.93795 0.59338 0.96472 -0.09700
S 	S 	0.14030 0.55112 0.87917 -0.07700
S 	S 	0.23256 0.31098 0.83787 -0.05900
S 	S 	0.72606 0.73647 0.71142 -0.08700
H 	H 	0.47690 0.52590 0.52240 0.03700
C 	C 	0.83930 0.47480 0.82945 -0.13500
H 	H 	0.86060 0.53460 0.80570 0.03500
H 	H 	0.82120 0.54100 0.85260 0.03300
C 	C 	0.19240 0.52210 0.93282 -0.32900
H 	H 	0.15930 0.47010 0.95280 0.10000
H 	H 	0.20720 0.61520 0.94630 0.09900
H 	H 	0.23900 0.46510 0.92850 0.10900
C 	C 	0.63440 0.05410 0.42249 -0.32700
H 	H 	0.58410 0.08950 0.43100 0.11200
H 	H 	0.62710 0.96510 0.40510 0.09500
H 	H 	0.65870 0.12710 0.40430 0.10000
C 	C 	0.52370 0.75440 0.57563 -0.33300
H 	H 	0.47640 0.80530 0.56500 0.11400
H 	H 	0.55650 0.81900 0.59460 0.09900
H 	H 	0.51000 0.66990 0.59320 0.09500
C 	C 	0.86750 0.29190 0.90175 -0.34600
H 	H 	0.84590 0.37070 0.91890 0.10700
H 	H 	0.90460 0.23740 0.92130 0.10300
H 	H 	0.82570 0.22790 0.89040 0.11900
C 	C 	0.85200 0.70420 0.95732 -0.32300
H 	H 	0.82900 0.71580 0.98630 0.09900
H 	H 	0.81460 0.65770 0.93590 0.09700
H 	H 	0.86590 0.79890 0.94580 0.09500
C 	C 	0.68170 0.68240 0.65780 -0.12100
H 	H 	0.70110 0.74650 0.63450 0.03900
H 	H 	0.62530 0.69840 0.65820 0.03700
C 	C 	0.54740 0.37330 0.81949 -0.13000
H 	H 	0.58590 0.37200 0.84550 0.03500
H 	H 	0.56570 0.30640 0.79660 0.03900
H 	H 	0.96860 0.77200 0.01870 0.03200
C 	C 	0.13910 0.37200 0.85534 -0.13400
H 	H 	0.10130 0.36980 0.82900 0.03200
H 	H 	0.12100 0.30340 0.87780 0.04100
C 	C 	0.43260 0.45110 0.87631 -0.35000
H 	H 	0.46760 0.44410 0.90340 0.10100
H 	H 	0.37900 0.44120 0.88450 0.11300
H 	H 	0.43930 0.54490 0.86200 0.12700
C 	C 	0.25840 0.45820 0.80213 -0.35900
H 	H 	0.21750 0.47200 0.77820 0.11100
H 	H 	0.30720 0.43590 0.78880 0.11800
H 	H 	0.26440 0.54650 0.82000 0.13000
C 	C 	0.82630 0.69690 0.70335 -0.32300
H 	H 	0.83160 0.59490 0.69560 0.10100
H 	H 	0.85770 0.71750 0.73110 0.09600
H 	H 	0.84400 0.75670 0.67900 0.10200
C 	C 	0.70350 0.19640 0.49704 -0.13500
H 	H 	0.72350 0.26320 0.47470 0.03700
H 	H 	0.74180 0.19340 0.52310 0.03600
C 	C 	0.62360 0.40320 0.66964 -0.30100
H 	H 	0.62810 0.42740 0.70170 0.08200
H 	H 	0.63020 0.29910 0.66590 0.08800
H 	H 	0.57240 0.43190 0.65670 0.08400
C 	C 	0.79760 0.30000 0.75594 -0.34300
H 	H 	0.81190 0.37760 0.73580 0.10300
H 	H 	0.75920 0.23730 0.74020 0.10600
H 	H 	0.84370 0.24360 0.76520 0.11700
C 	C 	0.59120 0.13820 0.55779 -0.34400
H 	H 	0.58510 0.04260 0.54410 0.12600
H 	H 	0.54310 0.16570 0.57110 0.10400
H 	H 	0.63350 0.13580 0.58120 0.10200
C 	C 	0.48080 0.52620 0.74600 -0.32800
H 	H 	0.50080 0.44670 0.72860 0.09900
H 	H 	0.47970 0.61450 0.72800 0.09600
H 	H 	0.42830 0.50320 0.75410 0.10900
C 	C 	0.00000 0.08870 0.50000 -0.12400
C 	C 	0.50000 0.58870 0.50000 -0.13200
C 	C 	0.50000 0.20970 -0.00000 -0.12200
C 	C 	-0.00000 0.70970 -0.00000 -0.11100
