data_crystal

_cell_length_a 12.98800
_cell_length_b 13.72200
_cell_length_c 19.73000
_cell_angle_alpha 90.00000
_cell_angle_beta  90.00000
_cell_angle_gamma 90.00000

_symmetry_space_group_name_	'P 1'
_symmetry_space_group_name_H-M	'P 1'

loop_
_symmetry_equiv_pos_as_xyz
  x,y,z

loop_
_atom_site_label
_atom_site_type_symbol
_atom_site_fract_x
_atom_site_fract_y
_atom_site_fract_z
_atom_site_charge
Ni	Ni	0.70699 0.39774 0.02599 1.10800
Ni	Ni	0.96377 0.00000 0.50000 1.09500
Ni	Ni	0.56086 0.02400 0.38513 1.08600
Ni	Ni	0.56086 0.52400 0.11487 1.09500
Ni	Ni	0.88594 0.79906 0.40224 1.09500
Ni	Ni	0.70699 0.60226 0.97401 1.12100
Ni	Ni	0.70699 0.89774 0.47401 1.11900
Ni	Ni	0.70699 0.10226 0.52599 1.11000
Ni	Ni	0.96377 0.50000 -0.00000 1.09700
Ni	Ni	0.56086 0.97600 0.61487 1.10400
Ni	Ni	0.88594 0.20094 0.59776 1.09500
Ni	Ni	0.56086 0.47600 0.88513 1.09500
Ni	Ni	0.88594 0.70094 0.90224 1.09600
Ni	Ni	0.88594 0.29906 0.09776 1.09400
H 	H 	0.18030 0.29900 0.63620 0.05300
H 	H 	0.65640 0.85900 0.19350 0.05700
H 	H 	0.92000 0.29740 0.24860 0.00300
H 	H 	0.88280 0.08240 0.12730 -0.00800
H 	H 	0.35020 0.17030 0.16510 0.06800
H 	H 	0.90390 0.02780 0.78750 0.00300
H 	H 	0.18030 0.79900 0.86380 0.04900
H 	H 	0.90390 0.52780 0.71250 0.05100
H 	H 	0.18030 0.20100 0.13620 0.06000
H 	H 	0.87180 0.65290 0.02030 0.13900
H 	H 	0.58910 0.95150 0.76350 0.03000
H 	H 	0.87180 0.15290 0.47970 0.15600
H 	H 	0.87180 0.34710 0.97970 0.17400
H 	H 	0.35020 0.32970 0.66510 0.08100
H 	H 	0.54600 0.85510 0.00170 -0.01800
H 	H 	0.61280 0.26240 0.88260 0.03100
H 	H 	0.61280 0.73760 0.11740 0.02900
H 	H 	0.61280 0.23760 0.38260 0.03000
H 	H 	0.93370 0.30500 0.83800 0.04800
H 	H 	0.65640 0.14100 0.80650 0.04700
H 	H 	0.64720 0.15960 0.15890 0.04800
H 	H 	0.75280 0.05300 0.40530 0.17400
H 	H 	0.54600 0.14490 0.99830 0.04800
H 	H 	0.87180 0.84710 0.52030 0.15500
H 	H 	0.75280 0.44700 0.90530 0.17600
H 	H 	0.27570 0.38900 0.99370 0.06600
H 	H 	0.75280 0.55300 0.09470 0.17700
H 	H 	0.27570 0.61100 0.00630 -0.00100
H 	H 	0.54600 0.64490 0.50170 0.02600
H 	H 	0.75280 0.94700 0.59470 0.17900
H 	H 	0.65640 0.64100 0.69350 0.05100
H 	H 	0.81380 0.50000 0.50000 0.01800
H 	H 	0.64720 0.34040 0.65890 0.04900
H 	H 	0.93370 0.80500 0.66200 0.03600
H 	H 	0.45530 0.50000 0.50000 0.08800
H 	H 	0.45530 0.00000 -0.00000 0.10100
H 	H 	0.58910 0.54850 0.26350 0.02000
H 	H 	0.54600 0.35510 0.49830 0.02600
H 	H 	0.90390 0.97220 0.21250 0.10500
H 	H 	0.27570 0.11100 0.49370 0.02500
H 	H 	0.35020 0.67030 0.33490 0.07900
H 	H 	0.88280 0.91760 0.87270 0.04200
H 	H 	0.92000 0.70260 0.75140 0.01800
H 	H 	0.92000 0.79740 0.25140 0.01100
H 	H 	0.27570 0.88900 0.50630 0.03700
H 	H 	0.64720 0.65960 0.34110 0.05100
H 	H 	0.61280 0.76240 0.61740 0.03000
H 	H 	0.90390 0.47220 0.28750 0.05100
H 	H 	0.35020 0.82970 0.83490 0.09200
H 	H 	0.64720 0.84040 0.84110 0.05300
H 	H 	0.93370 0.19500 0.33800 0.05900
H 	H 	0.93370 0.69500 0.16200 0.04700
H 	H 	0.65640 0.35900 0.30650 0.05100
H 	H 	0.58910 0.04850 0.23650 0.01200
H 	H 	0.48170 0.25170 0.10960 0.02300
H 	H 	0.48170 0.74830 0.89040 0.00700
H 	H 	0.88280 0.41760 0.62730 0.01600
H 	H 	0.48170 0.24830 0.60960 0.01300
H 	H 	0.48170 0.75170 0.39040 0.01600
H 	H 	0.58910 0.45150 0.73650 0.02100
H 	H 	0.81380 0.00000 -0.00000 0.02200
H 	H 	0.18030 0.70100 0.36380 0.05600
H 	H 	0.88280 0.58240 0.37270 0.01600
H 	H 	0.92000 0.20260 0.74860 0.01200
C 	C 	0.64490 0.20430 0.79140 -0.02700
C 	C 	0.60540 0.88890 0.74900 0.02800
C 	C 	0.92170 0.57050 0.21290 -0.06800
C 	C 	0.33500 0.21440 0.13070 -0.09000
C 	C 	0.47690 0.37540 0.00840 0.37600
C 	C 	0.74230 0.18420 0.00990 0.34300
C 	C 	0.41360 0.26170 0.09690 0.03000
C 	C 	0.58170 0.58620 0.49990 0.06100
C 	C 	0.63740 0.82210 0.79610 -0.03500
C 	C 	0.09920 0.17320 0.54920 0.39400
C 	C 	0.23310 0.76730 0.88670 0.07700
C 	C 	0.74230 0.68420 0.49010 0.37700
C 	C 	0.60540 0.38890 0.75100 0.02600
C 	C 	0.38990 0.67490 0.95690 -0.19500
C 	C 	0.68800 0.08790 0.00290 -0.12300
C 	C 	0.63740 0.32210 0.70390 -0.03600
C 	C 	0.90650 0.46140 0.72200 -0.06000
C 	C 	0.20980 0.70190 0.93820 -0.13400
C 	C 	0.93370 0.99660 0.65300 0.41200
C 	C 	0.47690 0.87540 0.49160 0.41300
C 	C 	0.61720 0.77740 0.66330 0.02100
C 	C 	0.93370 0.49660 0.84700 0.35700
C 	C 	0.93370 0.50340 0.15300 0.35900
C 	C 	0.67190 0.14870 0.67130 0.41700
C 	C 	0.63740 0.67790 0.29610 -0.04100
C 	C 	0.60540 0.61110 0.24900 0.03000
C 	C 	0.38990 0.32510 0.04310 -0.13000
C 	C 	0.64490 0.29570 0.29140 -0.03000
C 	C 	0.92170 0.92950 0.71290 -0.11500
C 	C 	0.91560 0.73070 0.25910 0.03300
C 	C 	0.65500 0.72720 0.77590 -0.08300
C 	C 	0.29060 0.34420 0.02770 0.02300
C 	C 	0.38990 0.82510 0.45690 -0.15800
C 	C 	0.90650 0.96140 0.77800 0.03400
C 	C 	0.93370 0.00340 0.34700 0.30400
C 	C 	0.65500 0.77280 0.27590 -0.07800
C 	C 	0.89520 0.10580 0.17080 0.07900
C 	C 	0.90650 0.53860 0.27800 -0.05900
C 	C 	0.92490 0.83100 0.70510 -0.02600
C 	C 	0.64490 0.70430 0.70860 -0.02900
C 	C 	0.20980 0.20190 0.56180 -0.11500
C 	C 	0.63740 0.17790 0.20390 -0.04000
C 	C 	0.09920 0.67320 0.95080 0.40300
C 	C 	0.41360 0.23830 0.59690 0.06200
C 	C 	0.20980 0.79810 0.43820 -0.10500
C 	C 	0.29060 0.84420 0.47230 0.08200
C 	C 	0.74230 0.31580 0.50990 0.37700
C 	C 	0.41360 0.76170 0.40310 0.05800
C 	C 	0.38990 0.17490 0.54310 -0.16900
C 	C 	0.23310 0.73270 0.38670 0.04900
C 	C 	0.58170 0.41380 0.50010 0.06100
C 	C 	0.65500 0.27280 0.22410 -0.08300
C 	C 	0.67190 0.85130 0.32870 0.41100
C 	C 	0.29060 0.65580 0.97230 0.14300
C 	C 	0.64490 0.79570 0.20860 -0.03300
C 	C 	0.09920 0.32680 0.04920 0.38100
C 	C 	0.61720 0.22260 0.33670 0.02200
C 	C 	0.91560 0.26930 0.74090 0.03300
C 	C 	0.89520 0.39420 0.67080 0.03200
C 	C 	0.68800 0.41210 0.50290 -0.13900
C 	C 	0.89520 0.60580 0.32920 0.03200
C 	C 	0.92170 0.07050 0.28710 -0.01700
C 	C 	0.91560 0.76930 0.75910 0.01200
C 	C 	0.67190 0.35130 0.17130 0.41400
C 	C 	0.61720 0.72260 0.16330 0.02500
C 	C 	0.47690 0.62460 0.99160 0.45000
C 	C 	0.23310 0.26730 0.61330 0.05300
C 	C 	0.65500 0.22720 0.72410 -0.08600
C 	C 	0.67190 0.64870 0.82870 0.41400
C 	C 	0.41360 0.73830 0.90310 0.09000
C 	C 	0.52690 0.00000 -0.00000 -0.21100
C 	C 	0.91560 0.23070 0.24090 0.05400
C 	C 	0.23310 0.23270 0.11330 0.02500
C 	C 	0.33500 0.78560 0.86930 -0.13600
C 	C 	0.74230 0.81580 0.99010 0.40000
C 	C 	0.68800 0.91210 0.99710 -0.12100
C 	C 	0.52690 0.50000 0.50000 -0.13200
C 	C 	0.92490 0.66900 0.20510 -0.06100
C 	C 	0.92490 0.33100 0.79490 -0.06200
C 	C 	0.60540 0.11110 0.25100 0.02800
C 	C 	0.47690 0.12460 0.50840 0.41400
C 	C 	0.74220 0.00000 -0.00000 0.01400
C 	C 	0.89520 0.89420 0.82920 -0.01400
C 	C 	0.09920 0.82680 0.45080 0.39100
C 	C 	0.90650 0.03860 0.22200 -0.15800
C 	C 	0.33500 0.71440 0.36930 -0.11000
C 	C 	0.68800 0.58790 0.49710 -0.13900
C 	C 	0.74220 0.50000 0.50000 0.07000
C 	C 	0.33500 0.28560 0.63070 -0.11700
C 	C 	0.61720 0.27740 0.83670 0.02000
C 	C 	0.92490 0.16900 0.29490 -0.09900
C 	C 	0.20980 0.29810 0.06180 -0.08500
C 	C 	0.92170 0.42950 0.78710 -0.06600
C 	C 	0.58170 0.91380 0.99990 0.16500
C 	C 	0.58170 0.08620 0.00010 0.04100
C 	C 	0.29060 0.15580 0.52770 0.08700
N 	N 	0.59680 0.86790 0.68330 -0.21200
N 	N 	0.59680 0.63210 0.18330 -0.21500
N 	N 	0.90080 0.20040 0.17904 -0.22900
N 	N 	0.59680 0.13210 0.31670 -0.21800
N 	N 	0.90080 0.70040 0.32096 -0.21600
N 	N 	0.90080 0.29960 0.67904 -0.21500
N 	N 	0.90080 0.79960 0.82096 -0.20100
N 	N 	0.59680 0.36790 0.81670 -0.21400
O 	O 	0.55080 0.59510 0.95509 -0.54400
O 	O 	0.62330 0.92720 0.31867 -0.43700
O 	O 	0.92010 0.41470 0.16287 -0.44000
O 	O 	0.69200 0.25810 0.99140 -0.39500
O 	O 	0.03280 0.73060 0.92834 -0.33800
O 	O 	0.86190 0.61000 0.98109 -0.65100
O 	O 	0.47190 0.11380 0.44562 -0.44400
O 	O 	0.72510 0.16940 0.62104 -0.52900
O 	O 	0.62330 0.07280 0.68133 -0.46800
O 	O 	0.47190 0.61380 0.05438 -0.45700
O 	O 	0.47190 0.88620 0.55438 -0.43300
O 	O 	0.62330 0.57280 0.81867 -0.45300
O 	O 	0.82990 0.31490 0.53621 -0.42600
O 	O 	0.55080 0.90490 0.45509 -0.53000
O 	O 	0.69540 0.46337 0.93540 -0.66600
O 	O 	0.62330 0.42720 0.18133 -0.45300
O 	O 	0.92010 0.91470 0.33713 -0.40800
O 	O 	0.72510 0.33060 0.12104 -0.52700
O 	O 	0.72510 0.83060 0.37896 -0.52100
O 	O 	0.72510 0.66940 0.87896 -0.52400
O 	O 	0.95450 0.54460 0.09839 -0.46000
O 	O 	0.95450 0.04460 0.40161 -0.45100
O 	O 	0.55080 0.09510 0.54491 -0.54900
O 	O 	0.69200 0.24190 0.49140 -0.42200
O 	O 	0.69540 0.03663 0.43540 -0.68400
O 	O 	0.82990 0.18510 0.03621 -0.42300
O 	O 	0.08480 0.59650 0.98181 -0.33300
O 	O 	0.55080 0.40490 0.04491 -0.53600
O 	O 	0.08480 0.90350 0.48181 -0.32900
O 	O 	0.86190 0.11000 0.51891 -0.67900
O 	O 	0.47190 0.38620 0.94562 -0.41800
O 	O 	0.86190 0.89000 0.48109 -0.66300
O 	O 	0.95450 0.45540 0.90161 -0.45200
O 	O 	0.95450 0.95540 0.59839 -0.46000
O 	O 	0.86190 0.39000 0.01891 -0.69300
O 	O 	0.08480 0.09650 0.51819 -0.34800
O 	O 	0.03280 0.23060 0.57166 -0.34000
O 	O 	0.82990 0.81490 0.96379 -0.42000
O 	O 	0.08480 0.40350 0.01819 -0.34500
O 	O 	0.82990 0.68510 0.46379 -0.42600
O 	O 	0.03280 0.76940 0.42834 -0.33800
O 	O 	0.69540 0.96337 0.56460 -0.66100
O 	O 	0.92010 0.58530 0.83713 -0.44000
O 	O 	0.03280 0.26940 0.07166 -0.34000
O 	O 	0.92010 0.08530 0.66287 -0.47000
O 	O 	0.69200 0.75810 0.50860 -0.42200
O 	O 	0.69540 0.53663 0.06460 -0.67800
O 	O 	0.69200 0.74190 0.00860 -0.44300
