data_crystal

_cell_length_a 10.39000
_cell_length_b 16.08700
_cell_length_c 18.71700
_cell_angle_alpha 90.00000
_cell_angle_beta  90.00000
_cell_angle_gamma 90.00000

_symmetry_space_group_name_	'P 1'
_symmetry_space_group_name_H-M	'P 1'

loop_
_symmetry_equiv_pos_as_xyz
  x,y,z

loop_
_atom_site_label
_atom_site_type_symbol
_atom_site_fract_x
_atom_site_fract_y
_atom_site_fract_z
_atom_site_charge
Sn	Sn	0.50950 0.75400 0.15200 1.16200
Sn	Sn	0.65180 0.35160 0.06410 1.16400
Sn	Sn	0.30740 0.38540 0.06760 1.16600
P 	P 	0.51660 0.55210 0.09280 0.44100
P 	P 	0.25040 0.80490 0.24340 0.43600
O 	O 	0.33970 0.73150 0.21360 -0.46300
O 	O 	0.11230 0.76520 0.24800 -0.43200
O 	O 	0.53710 0.61570 0.15850 -0.42700
O 	O 	0.47090 0.31570 0.10510 -0.57900
O 	O 	0.62690 0.48500 0.09600 -0.47100
O 	O 	0.29160 0.83420 0.31880 -0.48500
O 	O 	0.52180 0.60530 0.02130 -0.60500
O 	O 	0.38450 0.50870 0.10270 -0.46500
O 	O 	0.25070 0.88200 0.18990 -0.44800
Sn	Sn	0.49050 0.25400 0.34800 1.16300
Sn	Sn	0.34820 0.85160 0.43590 1.16400
Sn	Sn	0.69260 0.88540 0.43240 1.16700
P 	P 	0.48340 0.05210 0.40720 0.44300
P 	P 	0.74960 0.30490 0.25660 0.43700
O 	O 	0.66030 0.23150 0.28640 -0.46200
O 	O 	0.88770 0.26520 0.25200 -0.43100
O 	O 	0.46290 0.11570 0.34150 -0.42600
O 	O 	0.52910 0.81570 0.39490 -0.58000
O 	O 	0.37310 0.98500 0.40400 -0.47300
O 	O 	0.70840 0.33420 0.18120 -0.48500
O 	O 	0.47820 0.10530 0.47870 -0.60500
O 	O 	0.61550 0.00870 0.39730 -0.46600
O 	O 	0.74930 0.38200 0.31010 -0.44700
Sn	Sn	0.00950 0.75400 0.34800 1.16300
Sn	Sn	0.15180 0.35160 0.43590 1.16400
Sn	Sn	0.80740 0.38540 0.43240 1.16700
P 	P 	0.01660 0.55210 0.40720 0.44300
P 	P 	0.75040 0.80490 0.25660 0.43700
O 	O 	0.83970 0.73150 0.28640 -0.46200
O 	O 	0.61230 0.76520 0.25200 -0.43100
O 	O 	0.03710 0.61570 0.34150 -0.42600
O 	O 	0.97090 0.31570 0.39490 -0.58000
O 	O 	0.12690 0.48500 0.40400 -0.47100
O 	O 	0.79160 0.83420 0.18120 -0.48500
O 	O 	0.02180 0.60530 0.47870 -0.60500
O 	O 	0.88450 0.50870 0.39730 -0.46600
O 	O 	0.75070 0.88200 0.31010 -0.44700
Sn	Sn	0.99050 0.25400 0.15200 1.16300
Sn	Sn	0.84820 0.85160 0.06410 1.16400
Sn	Sn	0.19260 0.88540 0.06760 1.16600
P 	P 	0.98340 0.05210 0.09280 0.44200
P 	P 	0.24960 0.30490 0.24340 0.43700
O 	O 	0.16030 0.23150 0.21360 -0.46100
O 	O 	0.38770 0.26520 0.24800 -0.43100
O 	O 	0.96290 0.11570 0.15850 -0.42700
O 	O 	0.02910 0.81570 0.10510 -0.58000
O 	O 	0.87310 0.98500 0.09600 -0.47300
O 	O 	0.20840 0.33420 0.31880 -0.48500
O 	O 	0.97820 0.10530 0.02130 -0.60400
O 	O 	0.11550 0.00870 0.10270 -0.46300
O 	O 	0.24930 0.38200 0.18990 -0.44600
Sn	Sn	0.99050 0.24600 0.65200 1.16300
Sn	Sn	0.84820 0.64840 0.56410 1.16400
Sn	Sn	0.19260 0.61460 0.56760 1.16700
P 	P 	0.98340 0.44790 0.59280 0.44300
P 	P 	0.24960 0.19510 0.74340 0.43700
O 	O 	0.16030 0.26850 0.71360 -0.46200
O 	O 	0.38770 0.23480 0.74800 -0.43100
O 	O 	0.96290 0.38430 0.65850 -0.42600
O 	O 	0.02910 0.68430 0.60510 -0.58000
O 	O 	0.87310 0.51500 0.59600 -0.47100
O 	O 	0.20840 0.16580 0.81880 -0.48500
O 	O 	0.97820 0.39470 0.52130 -0.60500
O 	O 	0.11550 0.49130 0.60270 -0.46600
O 	O 	0.24930 0.11800 0.68990 -0.44700
Sn	Sn	0.00950 0.74600 0.84800 1.16300
Sn	Sn	0.15180 0.14840 0.93590 1.16400
Sn	Sn	0.80740 0.11460 0.93240 1.16600
P 	P 	0.01660 0.94790 0.90720 0.44200
P 	P 	0.75040 0.69510 0.75660 0.43700
O 	O 	0.83970 0.76850 0.78640 -0.46100
O 	O 	0.61230 0.73480 0.75200 -0.43100
O 	O 	0.03710 0.88430 0.84150 -0.42700
O 	O 	0.97090 0.18430 0.89490 -0.58000
O 	O 	0.12690 0.01500 0.90400 -0.47300
O 	O 	0.79160 0.66580 0.68120 -0.48500
O 	O 	0.02180 0.89470 0.97870 -0.60400
O 	O 	0.88450 0.99130 0.89730 -0.46300
O 	O 	0.75070 0.61800 0.81010 -0.44600
Sn	Sn	0.49050 0.24600 0.84800 1.16300
Sn	Sn	0.34820 0.64840 0.93590 1.16500
Sn	Sn	0.69260 0.61460 0.93240 1.16700
P 	P 	0.48340 0.44790 0.90720 0.44200
P 	P 	0.74960 0.19510 0.75660 0.43700
O 	O 	0.66030 0.26850 0.78640 -0.46200
O 	O 	0.88770 0.23480 0.75200 -0.43100
O 	O 	0.46290 0.38430 0.84150 -0.42600
O 	O 	0.52910 0.68430 0.89490 -0.57900
O 	O 	0.37310 0.51500 0.90400 -0.47100
O 	O 	0.70840 0.16580 0.68120 -0.48500
O 	O 	0.47820 0.39470 0.97870 -0.60500
O 	O 	0.61550 0.49130 0.89730 -0.46500
O 	O 	0.74930 0.11800 0.81010 -0.44800
Sn	Sn	0.50950 0.74600 0.65200 1.16300
Sn	Sn	0.65180 0.14840 0.56410 1.16400
Sn	Sn	0.30740 0.11460 0.56760 1.16700
P 	P 	0.51660 0.94790 0.59280 0.44300
P 	P 	0.25040 0.69510 0.74340 0.43700
O 	O 	0.33970 0.76850 0.71360 -0.46200
O 	O 	0.11230 0.73480 0.74800 -0.43100
O 	O 	0.53710 0.88430 0.65850 -0.42600
O 	O 	0.47090 0.18430 0.60510 -0.58000
O 	O 	0.62690 0.01500 0.59600 -0.47300
O 	O 	0.29160 0.66580 0.81880 -0.48500
O 	O 	0.52180 0.89470 0.52130 -0.60500
O 	O 	0.38450 0.99130 0.60270 -0.46600
O 	O 	0.25070 0.61800 0.68990 -0.44700
