data_crystal

_cell_length_a 25.23170
_cell_length_b 25.23170
_cell_length_c 25.23170
_cell_angle_alpha 109.47120
_cell_angle_beta  109.47120
_cell_angle_gamma 109.47120

_symmetry_space_group_name_	'P 1'
_symmetry_space_group_name_H-M	'P 1'

loop_
_symmetry_equiv_pos_as_xyz
  x,y,z

loop_
_atom_site_label
_atom_site_type_symbol
_atom_site_fract_x
_atom_site_fract_y
_atom_site_fract_z
_atom_site_charge
N 	N 	0.14402 0.53641 0.50333 -0.16800
N 	N 	0.18690 0.53753 0.48403 -0.09500
C 	C 	0.28590 0.46170 0.51800 -0.04000
H 	H 	0.27090 0.44660 0.54290 0.05700
C 	C 	0.33130 0.44890 0.50700 -0.03600
H 	H 	0.34690 0.42560 0.52430 0.05500
N 	N 	0.03308 0.64069 0.49667 -0.16700
N 	N 	0.05350 0.70287 0.51597 -0.09600
C 	C 	0.94370 0.76790 0.48200 -0.04600
H 	H 	0.90370 0.72800 0.45710 0.05800
C 	C 	0.94190 0.82430 0.49300 -0.04200
H 	H 	0.90130 0.82260 0.47570 0.05600
N 	N 	0.96692 0.46359 0.60761 -0.17200
N 	N 	0.94650 0.46247 0.64937 -0.09900
C 	C 	0.05630 0.53830 0.82420 -0.04100
H 	H 	0.09630 0.55340 0.82430 0.05700
C 	C 	0.05810 0.55110 0.88240 -0.03700
H 	H 	0.09870 0.57440 0.92130 0.05400
N 	N 	0.85598 0.35931 0.39239 -0.17000
N 	N 	0.81310 0.29713 0.35063 -0.09600
C 	C 	0.71410 0.23210 0.17580 -0.04000
H 	H 	0.72910 0.27200 0.17570 0.05700
C 	C 	0.66870 0.17570 0.11760 -0.03700
H 	H 	0.65310 0.17740 0.07870 0.05600
N 	N 	0.50333 0.14402 0.53641 -0.16900
N 	N 	0.48403 0.18690 0.53753 -0.09600
C 	C 	0.51800 0.28590 0.46170 -0.04100
H 	H 	0.54290 0.27090 0.44660 0.05700
C 	C 	0.50700 0.33130 0.44890 -0.03600
H 	H 	0.52430 0.34690 0.42560 0.05500
N 	N 	0.49667 0.03308 0.64069 -0.16700
N 	N 	0.51597 0.05350 0.70287 -0.09600
C 	C 	0.48200 0.94370 0.76790 -0.04600
H 	H 	0.45710 0.90370 0.72800 0.05800
C 	C 	0.49300 0.94190 0.82430 -0.04200
H 	H 	0.47570 0.90130 0.82260 0.05600
N 	N 	0.60761 0.96692 0.46359 -0.17200
N 	N 	0.64937 0.94650 0.46247 -0.09900
C 	C 	0.82420 0.05630 0.53830 -0.04100
H 	H 	0.82430 0.09630 0.55340 0.05700
C 	C 	0.88240 0.05810 0.55110 -0.03700
H 	H 	0.92130 0.09870 0.57440 0.05400
N 	N 	0.39239 0.85598 0.35931 -0.17000
N 	N 	0.35063 0.81310 0.29713 -0.09600
C 	C 	0.17580 0.71410 0.23210 -0.04000
H 	H 	0.17570 0.72910 0.27200 0.05700
C 	C 	0.11760 0.66870 0.17570 -0.03700
H 	H 	0.07870 0.65310 0.17740 0.05600
N 	N 	0.53641 0.50333 0.14402 -0.16900
N 	N 	0.53753 0.48403 0.18690 -0.09600
C 	C 	0.46170 0.51800 0.28590 -0.04100
H 	H 	0.44660 0.54290 0.27090 0.05700
C 	C 	0.44890 0.50700 0.33130 -0.03600
H 	H 	0.42560 0.52430 0.34690 0.05500
N 	N 	0.64069 0.49667 0.03308 -0.16700
N 	N 	0.70287 0.51597 0.05350 -0.09600
C 	C 	0.76790 0.48200 0.94370 -0.04600
H 	H 	0.72800 0.45710 0.90370 0.05800
C 	C 	0.82430 0.49300 0.94190 -0.04200
H 	H 	0.82260 0.47570 0.90130 0.05600
N 	N 	0.46359 0.60761 0.96692 -0.17200
N 	N 	0.46247 0.64937 0.94650 -0.09900
C 	C 	0.53830 0.82420 0.05630 -0.04100
H 	H 	0.55340 0.82430 0.09630 0.05700
C 	C 	0.55110 0.88240 0.05810 -0.03700
H 	H 	0.57440 0.92130 0.09870 0.05400
N 	N 	0.35931 0.39239 0.85598 -0.17000
N 	N 	0.29713 0.35063 0.81310 -0.09600
C 	C 	0.23210 0.17580 0.71410 -0.04000
H 	H 	0.27200 0.17570 0.72910 0.05700
C 	C 	0.17570 0.11760 0.66870 -0.03700
H 	H 	0.17740 0.07870 0.65310 0.05600
N 	N 	0.35931 0.96692 0.50333 -0.17200
N 	N 	0.29713 0.94650 0.48403 -0.09900
C 	C 	0.23210 0.05630 0.51800 -0.04200
H 	H 	0.27200 0.09630 0.54290 0.05800
C 	C 	0.17570 0.05810 0.50700 -0.03600
H 	H 	0.17740 0.09870 0.52430 0.05500
N 	N 	0.46359 0.85598 0.49667 -0.17000
N 	N 	0.46247 0.81310 0.51597 -0.09600
C 	C 	0.53830 0.71410 0.48200 -0.04100
H 	H 	0.55340 0.72910 0.45710 0.05700
C 	C 	0.55110 0.66870 0.49300 -0.03700
H 	H 	0.57440 0.65310 0.47570 0.05500
N 	N 	0.64069 0.14402 0.60761 -0.16900
N 	N 	0.70287 0.18690 0.64937 -0.09600
C 	C 	0.76790 0.28590 0.82420 -0.04000
H 	H 	0.72800 0.27090 0.82430 0.05600
C 	C 	0.82430 0.33130 0.88240 -0.03900
H 	H 	0.82260 0.34690 0.92130 0.05400
N 	N 	0.53641 0.03308 0.39239 -0.16700
N 	N 	0.53753 0.05350 0.35063 -0.09600
C 	C 	0.46170 0.94370 0.17580 -0.04700
H 	H 	0.44660 0.90370 0.17570 0.05800
C 	C 	0.44890 0.94190 0.11760 -0.04100
H 	H 	0.42560 0.90130 0.07870 0.05700
N 	N 	0.03308 0.39239 0.53641 -0.16700
N 	N 	0.05350 0.35063 0.53753 -0.09600
C 	C 	0.94370 0.17580 0.46170 -0.04700
H 	H 	0.90370 0.17570 0.44660 0.05800
C 	C 	0.94190 0.11760 0.44890 -0.04100
H 	H 	0.90130 0.07870 0.42560 0.05700
N 	N 	0.14402 0.60761 0.64069 -0.16900
N 	N 	0.18690 0.64937 0.70287 -0.09600
C 	C 	0.28590 0.82420 0.76790 -0.04000
H 	H 	0.27090 0.82430 0.72800 0.05600
C 	C 	0.33130 0.88240 0.82430 -0.03900
H 	H 	0.34690 0.92130 0.82260 0.05400
N 	N 	0.85598 0.49667 0.46359 -0.17000
N 	N 	0.81310 0.51597 0.46247 -0.09600
C 	C 	0.71410 0.48200 0.53830 -0.04100
H 	H 	0.72910 0.45710 0.55340 0.05700
C 	C 	0.66870 0.49300 0.55110 -0.03700
H 	H 	0.65310 0.47570 0.57440 0.05500
N 	N 	0.96692 0.50333 0.35931 -0.17200
N 	N 	0.94650 0.48403 0.29713 -0.09900
C 	C 	0.05630 0.51800 0.23210 -0.04200
H 	H 	0.09630 0.54290 0.27200 0.05800
C 	C 	0.05810 0.50700 0.17570 -0.03600
H 	H 	0.09870 0.52430 0.17740 0.05500
N 	N 	0.60761 0.64069 0.14402 -0.16900
N 	N 	0.64937 0.70287 0.18690 -0.09600
C 	C 	0.82420 0.76790 0.28590 -0.04000
H 	H 	0.82430 0.72800 0.27090 0.05600
C 	C 	0.88240 0.82430 0.33130 -0.03900
H 	H 	0.92130 0.82260 0.34690 0.05400
N 	N 	0.39239 0.53641 0.03308 -0.16700
N 	N 	0.35063 0.53753 0.05350 -0.09600
C 	C 	0.17580 0.46170 0.94370 -0.04700
H 	H 	0.17570 0.44660 0.90370 0.05800
C 	C 	0.11760 0.44890 0.94190 -0.04100
H 	H 	0.07870 0.42560 0.90130 0.05700
N 	N 	0.50333 0.35931 0.96692 -0.17200
N 	N 	0.48403 0.29713 0.94650 -0.09900
C 	C 	0.51800 0.23210 0.05630 -0.04200
H 	H 	0.54290 0.27200 0.09630 0.05800
C 	C 	0.50700 0.17570 0.05810 -0.03600
H 	H 	0.52430 0.17740 0.09870 0.05500
N 	N 	0.49667 0.46359 0.85598 -0.17000
N 	N 	0.51597 0.46247 0.81310 -0.09600
C 	C 	0.48200 0.53830 0.71410 -0.04100
H 	H 	0.45710 0.55340 0.72910 0.05700
C 	C 	0.49300 0.55110 0.66870 -0.03700
H 	H 	0.47570 0.57440 0.65310 0.05500
N 	N 	0.85598 0.46359 0.49667 -0.17000
N 	N 	0.81310 0.46247 0.51597 -0.09600
C 	C 	0.71410 0.53830 0.48200 -0.04100
H 	H 	0.72910 0.55340 0.45710 0.05700
C 	C 	0.66870 0.55110 0.49300 -0.03700
H 	H 	0.65310 0.57440 0.47570 0.05500
N 	N 	0.96692 0.35931 0.50333 -0.17200
N 	N 	0.94650 0.29713 0.48403 -0.09900
C 	C 	0.05630 0.23210 0.51800 -0.04200
H 	H 	0.09630 0.27200 0.54290 0.05800
C 	C 	0.05810 0.17570 0.50700 -0.03600
H 	H 	0.09870 0.17740 0.52430 0.05500
N 	N 	0.03308 0.53641 0.39239 -0.16700
N 	N 	0.05350 0.53753 0.35063 -0.09600
C 	C 	0.94370 0.46170 0.17580 -0.04700
H 	H 	0.90370 0.44660 0.17570 0.05800
C 	C 	0.94190 0.44890 0.11760 -0.04100
H 	H 	0.90130 0.42560 0.07870 0.05700
N 	N 	0.14402 0.64069 0.60761 -0.16900
N 	N 	0.18690 0.70287 0.64937 -0.09600
C 	C 	0.28590 0.76790 0.82420 -0.04000
H 	H 	0.27090 0.72800 0.82430 0.05600
C 	C 	0.33130 0.82430 0.88240 -0.03900
H 	H 	0.34690 0.82260 0.92130 0.05400
N 	N 	0.49667 0.85598 0.46359 -0.17000
N 	N 	0.51597 0.81310 0.46247 -0.09600
C 	C 	0.48200 0.71410 0.53830 -0.04100
H 	H 	0.45710 0.72910 0.55340 0.05700
C 	C 	0.49300 0.66870 0.55110 -0.03700
H 	H 	0.47570 0.65310 0.57440 0.05500
N 	N 	0.50333 0.96692 0.35931 -0.17200
N 	N 	0.48403 0.94650 0.29713 -0.09900
C 	C 	0.51800 0.05630 0.23210 -0.04200
H 	H 	0.54290 0.09630 0.27200 0.05800
C 	C 	0.50700 0.05810 0.17570 -0.03600
H 	H 	0.52430 0.09870 0.17740 0.05500
N 	N 	0.39239 0.03308 0.53641 -0.16700
N 	N 	0.35063 0.05350 0.53753 -0.09600
C 	C 	0.17580 0.94370 0.46170 -0.04700
H 	H 	0.17570 0.90370 0.44660 0.05800
C 	C 	0.11760 0.94190 0.44890 -0.04100
H 	H 	0.07870 0.90130 0.42560 0.05700
N 	N 	0.60761 0.14402 0.64069 -0.16900
N 	N 	0.64937 0.18690 0.70287 -0.09600
C 	C 	0.82420 0.28590 0.76790 -0.04000
H 	H 	0.82430 0.27090 0.72800 0.05600
C 	C 	0.88240 0.33130 0.82430 -0.03900
H 	H 	0.92130 0.34690 0.82260 0.05400
N 	N 	0.46359 0.49667 0.85598 -0.17000
N 	N 	0.46247 0.51597 0.81310 -0.09600
C 	C 	0.53830 0.48200 0.71410 -0.04100
H 	H 	0.55340 0.45710 0.72910 0.05700
C 	C 	0.55110 0.49300 0.66870 -0.03700
H 	H 	0.57440 0.47570 0.65310 0.05500
N 	N 	0.35931 0.50333 0.96692 -0.17200
N 	N 	0.29713 0.48403 0.94650 -0.09900
C 	C 	0.23210 0.51800 0.05630 -0.04200
H 	H 	0.27200 0.54290 0.09630 0.05800
C 	C 	0.17570 0.50700 0.05810 -0.03600
H 	H 	0.17740 0.52430 0.09870 0.05500
N 	N 	0.53641 0.39239 0.03308 -0.16700
N 	N 	0.53753 0.35063 0.05350 -0.09600
C 	C 	0.46170 0.17580 0.94370 -0.04700
H 	H 	0.44660 0.17570 0.90370 0.05800
C 	C 	0.44890 0.11760 0.94190 -0.04100
H 	H 	0.42560 0.07870 0.90130 0.05700
N 	N 	0.64069 0.60761 0.14402 -0.16900
N 	N 	0.70287 0.64937 0.18690 -0.09600
C 	C 	0.76790 0.82420 0.28590 -0.04000
H 	H 	0.72800 0.82430 0.27090 0.05600
C 	C 	0.82430 0.88240 0.33130 -0.03900
H 	H 	0.82260 0.92130 0.34690 0.05400
N 	N 	0.64069 0.03308 0.49667 -0.16700
N 	N 	0.70287 0.05350 0.51597 -0.09600
C 	C 	0.76790 0.94370 0.48200 -0.04600
H 	H 	0.72800 0.90370 0.45710 0.05800
C 	C 	0.82430 0.94190 0.49300 -0.04200
H 	H 	0.82260 0.90130 0.47570 0.05600
N 	N 	0.53641 0.14402 0.50333 -0.16900
N 	N 	0.53753 0.18690 0.48403 -0.09600
C 	C 	0.46170 0.28590 0.51800 -0.04100
H 	H 	0.44660 0.27090 0.54290 0.05700
C 	C 	0.44890 0.33130 0.50700 -0.03600
H 	H 	0.42560 0.34690 0.52430 0.05500
N 	N 	0.35931 0.85598 0.39239 -0.17000
N 	N 	0.29713 0.81310 0.35063 -0.09600
C 	C 	0.23210 0.71410 0.17580 -0.04000
H 	H 	0.27200 0.72910 0.17570 0.05700
C 	C 	0.17570 0.66870 0.11760 -0.03700
H 	H 	0.17740 0.65310 0.07870 0.05600
N 	N 	0.46359 0.96692 0.60761 -0.17200
N 	N 	0.46247 0.94650 0.64937 -0.09900
C 	C 	0.53830 0.05630 0.82420 -0.04100
H 	H 	0.55340 0.09630 0.82430 0.05700
C 	C 	0.55110 0.05810 0.88240 -0.03700
H 	H 	0.57440 0.09870 0.92130 0.05400
N 	N 	0.96692 0.60761 0.46359 -0.17200
N 	N 	0.94650 0.64937 0.46247 -0.09900
C 	C 	0.05630 0.82420 0.53830 -0.04100
H 	H 	0.09630 0.82430 0.55340 0.05700
C 	C 	0.05810 0.88240 0.55110 -0.03700
H 	H 	0.09870 0.92130 0.57440 0.05400
N 	N 	0.85598 0.39239 0.35931 -0.17000
N 	N 	0.81310 0.35063 0.29713 -0.09600
C 	C 	0.71410 0.17580 0.23210 -0.04000
H 	H 	0.72910 0.17570 0.27200 0.05700
C 	C 	0.66870 0.11760 0.17570 -0.03700
H 	H 	0.65310 0.07870 0.17740 0.05600
N 	N 	0.14402 0.50333 0.53641 -0.16900
N 	N 	0.18690 0.48403 0.53753 -0.09600
C 	C 	0.28590 0.51800 0.46170 -0.04100
H 	H 	0.27090 0.54290 0.44660 0.05700
C 	C 	0.33130 0.50700 0.44890 -0.03600
H 	H 	0.34690 0.52430 0.42560 0.05500
N 	N 	0.03308 0.49667 0.64069 -0.16700
N 	N 	0.05350 0.51597 0.70287 -0.09600
C 	C 	0.94370 0.48200 0.76790 -0.04600
H 	H 	0.90370 0.45710 0.72800 0.05800
C 	C 	0.94190 0.49300 0.82430 -0.04200
H 	H 	0.90130 0.47570 0.82260 0.05600
N 	N 	0.39239 0.35931 0.85598 -0.17000
N 	N 	0.35063 0.29713 0.81310 -0.09600
C 	C 	0.17580 0.23210 0.71410 -0.04000
H 	H 	0.17570 0.27200 0.72910 0.05700
C 	C 	0.11760 0.17570 0.66870 -0.03700
H 	H 	0.07870 0.17740 0.65310 0.05600
N 	N 	0.60761 0.46359 0.96692 -0.17200
N 	N 	0.64937 0.46247 0.94650 -0.09900
C 	C 	0.82420 0.53830 0.05630 -0.04100
H 	H 	0.82430 0.55340 0.09630 0.05700
C 	C 	0.88240 0.55110 0.05810 -0.03700
H 	H 	0.92130 0.57440 0.09870 0.05400
N 	N 	0.49667 0.64069 0.03308 -0.16700
N 	N 	0.51597 0.70287 0.05350 -0.09600
C 	C 	0.48200 0.76790 0.94370 -0.04600
H 	H 	0.45710 0.72800 0.90370 0.05800
C 	C 	0.49300 0.82430 0.94190 -0.04200
H 	H 	0.47570 0.82260 0.90130 0.05600
N 	N 	0.50333 0.53641 0.14402 -0.16900
N 	N 	0.48403 0.53753 0.18690 -0.09600
C 	C 	0.51800 0.46170 0.28590 -0.04100
H 	H 	0.54290 0.44660 0.27090 0.05700
C 	C 	0.50700 0.44890 0.33130 -0.03600
H 	H 	0.52430 0.42560 0.34690 0.05500
Mn	Mn	0.09420 0.59420 0.50000 1.25700
O 	O 	0.16810 0.66810 0.50000 -0.30000
Mn	Mn	0.90580 0.40580 0.50000 1.25600
O 	O 	0.83190 0.33190 0.50000 -0.30000
Mn	Mn	0.50000 0.09420 0.59420 1.25700
O 	O 	0.50000 0.16810 0.66810 -0.30000
Mn	Mn	0.50000 0.90580 0.40580 1.25600
O 	O 	0.50000 0.83190 0.33190 -0.30000
Mn	Mn	0.59420 0.50000 0.09420 1.25700
O 	O 	0.66810 0.50000 0.16810 -0.30000
Mn	Mn	0.40580 0.50000 0.90580 1.25600
O 	O 	0.33190 0.50000 0.83190 -0.30000
Mn	Mn	0.40580 0.90580 0.50000 1.25600
O 	O 	0.33190 0.83190 0.50000 -0.30000
Mn	Mn	0.59420 0.09420 0.50000 1.25700
O 	O 	0.66810 0.16810 0.50000 -0.30000
Mn	Mn	0.09420 0.50000 0.59420 1.25700
O 	O 	0.16810 0.50000 0.66810 -0.30000
Mn	Mn	0.90580 0.50000 0.40580 1.25600
O 	O 	0.83190 0.50000 0.33190 -0.30000
Mn	Mn	0.50000 0.59420 0.09420 1.25700
O 	O 	0.50000 0.66810 0.16810 -0.30000
Mn	Mn	0.50000 0.40580 0.90580 1.25600
O 	O 	0.50000 0.33190 0.83190 -0.30000
Cl	Cl	-0.00000 0.50000 0.50000 -0.84000
Cl	Cl	0.50000 0.00000 0.50000 -0.84000
Cl	Cl	0.50000 0.50000 -0.00000 -0.84000
N 	N 	0.41610 0.41610 0.47380 -0.14400
N 	N 	0.94230 0.94230 0.52620 -0.14800
N 	N 	0.05770 0.58390 -0.00000 -0.14100
N 	N 	0.58390 0.05770 -0.00000 -0.14100
N 	N 	0.47380 0.41610 0.41610 -0.14400
N 	N 	0.52620 0.94230 0.94230 -0.14800
N 	N 	-0.00000 0.05770 0.58390 -0.14100
N 	N 	-0.00000 0.58390 0.05770 -0.14100
N 	N 	0.41610 0.47380 0.41610 -0.14400
N 	N 	0.94230 0.52620 0.94230 -0.14800
N 	N 	0.58390 0.00000 0.05770 -0.14100
N 	N 	0.05770 0.00000 0.58390 -0.14100
N 	N 	0.05770 0.05770 0.47380 -0.14400
N 	N 	0.58390 0.58390 0.52620 -0.14400
N 	N 	0.94230 0.41610 -0.00000 -0.14200
N 	N 	0.41610 0.94230 -0.00000 -0.14200
N 	N 	0.94230 0.00000 0.41610 -0.14200
N 	N 	0.41610 0.00000 0.94230 -0.14200
N 	N 	0.58390 0.52620 0.58390 -0.14400
N 	N 	0.05770 0.47380 0.05770 -0.14400
N 	N 	0.00000 0.94230 0.41610 -0.14200
N 	N 	0.00000 0.41610 0.94230 -0.14200
N 	N 	0.47380 0.05770 0.05770 -0.14400
N 	N 	0.52620 0.58390 0.58390 -0.14400
C 	C 	0.21180 0.50520 0.50520 0.12100
C 	C 	0.26140 0.49500 0.49500 -0.00600
C 	C 	0.35500 0.47010 0.47010 -0.00900
C 	C 	0.39720 0.45240 0.45240 0.12600
C 	C 	-0.00000 0.70660 0.49480 0.12400
C 	C 	0.00000 0.76640 0.50500 -0.00100
C 	C 	0.00000 0.88490 0.52990 -0.00400
C 	C 	-0.00000 0.94480 0.54760 0.12400
C 	C 	-0.00000 0.49480 0.70660 0.12400
C 	C 	0.00000 0.50500 0.76640 -0.00100
C 	C 	0.00000 0.52990 0.88490 -0.00400
C 	C 	-0.00000 0.54760 0.94480 0.12400
C 	C 	0.78820 0.29340 0.29340 0.12100
C 	C 	0.73860 0.23360 0.23360 -0.00600
C 	C 	0.64500 0.11510 0.11510 -0.00800
C 	C 	0.60280 0.05520 0.05520 0.12700
C 	C 	0.50520 0.21180 0.50520 0.12100
C 	C 	0.49500 0.26140 0.49500 -0.00600
C 	C 	0.47010 0.35500 0.47010 -0.00900
C 	C 	0.45240 0.39720 0.45240 0.12600
C 	C 	0.49480 0.00000 0.70660 0.12400
C 	C 	0.50500 0.00000 0.76640 -0.00100
C 	C 	0.52990 0.00000 0.88490 -0.00400
C 	C 	0.54760 0.00000 0.94480 0.12400
C 	C 	0.70660 0.00000 0.49480 0.12400
C 	C 	0.76640 0.00000 0.50500 -0.00100
C 	C 	0.88490 0.00000 0.52990 -0.00400
C 	C 	0.94480 0.00000 0.54760 0.12400
C 	C 	0.29340 0.78820 0.29340 0.12100
C 	C 	0.23360 0.73860 0.23360 -0.00600
C 	C 	0.11510 0.64500 0.11510 -0.00800
C 	C 	0.05520 0.60280 0.05520 0.12700
C 	C 	0.50520 0.50520 0.21180 0.12100
C 	C 	0.49500 0.49500 0.26140 -0.00600
C 	C 	0.47010 0.47010 0.35500 -0.00900
C 	C 	0.45240 0.45240 0.39720 0.12600
C 	C 	0.70660 0.49480 -0.00000 0.12400
C 	C 	0.76640 0.50500 -0.00000 -0.00100
C 	C 	0.88490 0.52990 -0.00000 -0.00400
C 	C 	0.94480 0.54760 -0.00000 0.12400
C 	C 	0.49480 0.70660 -0.00000 0.12400
C 	C 	0.50500 0.76640 -0.00000 -0.00100
C 	C 	0.52990 0.88490 -0.00000 -0.00400
C 	C 	0.54760 0.94480 -0.00000 0.12400
C 	C 	0.29340 0.29340 0.78820 0.12100
C 	C 	0.23360 0.23360 0.73860 -0.00600
C 	C 	0.11510 0.11510 0.64500 -0.00800
C 	C 	0.05520 0.05520 0.60280 0.12700
C 	C 	0.29340 0.00000 0.50520 0.12400
C 	C 	0.23360 0.00000 0.49500 0.00000
C 	C 	0.11510 0.00000 0.47010 -0.00400
C 	C 	0.05520 0.00000 0.45240 0.13000
C 	C 	0.49480 0.78820 0.49480 0.12000
C 	C 	0.50500 0.73860 0.50500 -0.00600
C 	C 	0.52990 0.64500 0.52990 -0.00900
C 	C 	0.54760 0.60280 0.54760 0.12500
C 	C 	0.70660 0.21180 0.70660 0.12100
C 	C 	0.76640 0.26140 0.76640 -0.00700
C 	C 	0.88490 0.35500 0.88490 -0.00700
C 	C 	0.94480 0.39720 0.94480 0.11600
C 	C 	0.50520 0.00000 0.29340 0.12400
C 	C 	0.49500 0.00000 0.23360 0.00000
C 	C 	0.47010 0.00000 0.11510 -0.00400
C 	C 	0.45240 0.00000 0.05520 0.13000
C 	C 	0.00000 0.29340 0.50520 0.12400
C 	C 	0.00000 0.23360 0.49500 0.00000
C 	C 	-0.00000 0.11510 0.47010 -0.00400
C 	C 	0.00000 0.05520 0.45240 0.13000
C 	C 	0.21180 0.70660 0.70660 0.12100
C 	C 	0.26140 0.76640 0.76640 -0.00700
C 	C 	0.35500 0.88490 0.88490 -0.00700
C 	C 	0.39720 0.94480 0.94480 0.11600
C 	C 	0.78820 0.49480 0.49480 0.12000
C 	C 	0.73860 0.50500 0.50500 -0.00600
C 	C 	0.64500 0.52990 0.52990 -0.00900
C 	C 	0.60280 0.54760 0.54760 0.12500
C 	C 	0.00000 0.50520 0.29340 0.12400
C 	C 	0.00000 0.49500 0.23360 0.00000
C 	C 	-0.00000 0.47010 0.11510 -0.00400
C 	C 	0.00000 0.45240 0.05520 0.13000
C 	C 	0.70660 0.70660 0.21180 0.12100
C 	C 	0.76640 0.76640 0.26140 -0.00700
C 	C 	0.88490 0.88490 0.35500 -0.00700
C 	C 	0.94480 0.94480 0.39720 0.11600
C 	C 	0.29340 0.50520 -0.00000 0.12400
C 	C 	0.23360 0.49500 -0.00000 0.00000
C 	C 	0.11510 0.47010 -0.00000 -0.00400
C 	C 	0.05520 0.45240 -0.00000 0.13000
C 	C 	0.50520 0.29340 -0.00000 0.12400
C 	C 	0.49500 0.23360 -0.00000 0.00000
C 	C 	0.47010 0.11510 -0.00000 -0.00400
C 	C 	0.45240 0.05520 -0.00000 0.13000
C 	C 	0.49480 0.49480 0.78820 0.12000
C 	C 	0.50500 0.50500 0.73860 -0.00600
C 	C 	0.52990 0.52990 0.64500 -0.00900
C 	C 	0.54760 0.54760 0.60280 0.12500
