data_crystal

_cell_length_a 12.78700
_cell_length_b 15.30200
_cell_length_c 16.95310
_cell_angle_alpha 90.00000
_cell_angle_beta  108.35500
_cell_angle_gamma 90.00000

_symmetry_space_group_name_	'P 1'
_symmetry_space_group_name_H-M	'P 1'

loop_
_symmetry_equiv_pos_as_xyz
  x,y,z

loop_
_atom_site_label
_atom_site_type_symbol
_atom_site_fract_x
_atom_site_fract_y
_atom_site_fract_z
_atom_site_charge
Nd	Nd	0.76983 0.84014 0.06783 1.43300
Nd	Nd	0.23017 0.34014 0.43217 1.43900
Nd	Nd	0.23017 0.15986 0.93217 1.43300
Nd	Nd	0.76983 0.65986 0.56783 1.43900
C 	C 	0.67010 0.04470 0.11410 0.14800
C 	C 	0.50560 0.10770 0.07870 0.13900
C 	C 	0.78660 0.85950 0.28430 0.13300
C 	C 	0.74640 0.81200 0.39800 0.14000
C 	C 	0.05560 0.91150 0.10900 0.14900
C 	C 	0.17260 0.00400 0.07640 0.15200
C 	C 	0.32990 0.54470 0.38590 0.14500
C 	C 	0.49440 0.60770 0.42130 0.13900
C 	C 	0.21340 0.35950 0.21570 0.13400
C 	C 	0.25360 0.31200 0.10200 0.14100
C 	C 	0.94440 0.41150 0.39100 0.14700
C 	C 	0.82740 0.50400 0.42360 0.15000
C 	C 	0.32990 0.95530 0.88590 0.14800
C 	C 	0.49440 0.89230 0.92130 0.13900
C 	C 	0.21340 0.14050 0.71570 0.13300
C 	C 	0.25360 0.18800 0.60200 0.14000
C 	C 	0.94440 0.08850 0.89100 0.14900
C 	C 	0.82740 0.99600 0.92360 0.15200
C 	C 	0.67010 0.45530 0.61410 0.14500
C 	C 	0.50560 0.39230 0.57870 0.13900
C 	C 	0.78660 0.64050 0.78430 0.13400
C 	C 	0.74640 0.68800 0.89800 0.14100
C 	C 	0.05560 0.58850 0.60900 0.14700
C 	C 	0.17260 0.49600 0.57640 0.15000
N 	N 	0.73390 0.99600 0.10630 -0.27400
N 	N 	0.60630 0.10130 0.13050 -0.19900
N 	N 	0.41690 0.11790 0.03700 -0.27700
N 	N 	0.81290 0.85450 0.22680 -0.28900
N 	N 	0.75250 0.87580 0.34810 -0.20200
N 	N 	0.73760 0.76400 0.44530 -0.29900
N 	N 	0.97160 0.88710 0.10910 -0.28900
N 	N 	0.15590 0.93520 0.11590 -0.20300
N 	N 	0.19490 0.06460 0.04630 -0.26700
N 	N 	0.26610 0.49600 0.39370 -0.27200
N 	N 	0.39370 0.60130 0.36950 -0.19800
N 	N 	0.58310 0.61790 0.46300 -0.27800
N 	N 	0.18710 0.35450 0.27320 -0.28900
N 	N 	0.24750 0.37580 0.15190 -0.20100
N 	N 	0.26240 0.26400 0.05470 -0.29700
N 	N 	0.02840 0.38710 0.39090 -0.28600
N 	N 	0.84410 0.43520 0.38410 -0.20100
N 	N 	0.80510 0.56460 0.45370 -0.26800
N 	N 	0.26610 0.00400 0.89370 -0.27400
N 	N 	0.39370 0.89870 0.86950 -0.19900
N 	N 	0.58310 0.88210 0.96300 -0.27700
N 	N 	0.18710 0.14550 0.77320 -0.28900
N 	N 	0.24750 0.12420 0.65190 -0.20200
N 	N 	0.26240 0.23600 0.55470 -0.29900
N 	N 	0.02840 0.11290 0.89090 -0.28900
N 	N 	0.84410 0.06480 0.88410 -0.20300
N 	N 	0.80510 0.93540 0.95370 -0.26700
N 	N 	0.73390 0.50400 0.60630 -0.27200
N 	N 	0.60630 0.39870 0.63050 -0.19800
N 	N 	0.41690 0.38210 0.53700 -0.27800
N 	N 	0.81290 0.64550 0.72680 -0.28900
N 	N 	0.75250 0.62420 0.84810 -0.20100
N 	N 	0.73760 0.73600 0.94530 -0.29700
N 	N 	0.97160 0.61290 0.60910 -0.28600
N 	N 	0.15590 0.56480 0.61590 -0.20100
N 	N 	0.19490 0.43540 0.54630 -0.26800
