data_crystal

_cell_length_a 13.68500
_cell_length_b 13.14400
_cell_length_c 22.64900
_cell_angle_alpha 90.00000
_cell_angle_beta  100.55100
_cell_angle_gamma 90.00000

_symmetry_space_group_name_	'P 1'
_symmetry_space_group_name_H-M	'P 1'

loop_
_symmetry_equiv_pos_as_xyz
  x,y,z

loop_
_atom_site_label
_atom_site_type_symbol
_atom_site_fract_x
_atom_site_fract_y
_atom_site_fract_z
_atom_site_charge
W 	W 	0.23809 0.48897 0.47599 1.37300
W 	W 	0.35508 0.68963 0.41363 1.83300
W 	W 	0.36624 0.44240 0.35741 1.81400
W 	W 	0.50929 0.25307 0.44144 1.43300
W 	W 	0.38202 0.30063 0.56149 1.86300
W 	W 	0.37210 0.54721 0.62070 1.77300
La	La	0.27569 0.40167 0.17655 1.63400
La	La	0.78086 0.40149 0.22202 1.62500
O 	O 	0.40300 0.52700 0.45640 -1.75500
O 	O 	0.50200 0.61500 0.48410 -1.65200
O 	O 	0.50700 0.42700 0.44030 -1.41500
O 	O 	0.59700 0.53300 0.47270 -1.45400
O 	O 	0.25800 0.43300 0.39930 -0.50600
O 	O 	0.27000 0.35800 0.51370 -0.52700
O 	O 	0.26900 0.53900 0.55630 -0.52800
O 	O 	0.25600 0.62500 0.44250 -0.52500
O 	O 	0.29320 0.78040 0.37260 -0.63100
O 	O 	0.48300 0.72230 0.39770 -0.53000
O 	O 	0.35620 0.57910 0.35630 -0.55700
O 	O 	0.40200 0.31200 0.39130 -0.52800
O 	O 	0.60800 0.24500 0.51110 -0.54500
O 	O 	0.41200 0.23600 0.49210 -0.52200
O 	O 	0.33300 0.20500 0.59160 -0.69800
O 	O 	0.36800 0.40300 0.62010 -0.54000
O 	O 	0.31280 0.56450 0.67760 -0.59200
O 	O 	0.50900 0.53900 0.65930 -0.56500
O 	O 	0.39700 0.68300 0.59590 -0.51700
O 	O 	0.30330 0.41290 0.28970 -0.62300
O 	O 	0.44770 0.47720 0.18830 -0.44400
O 	O 	0.60880 0.45270 0.19290 -0.43800
O 	O 	0.79040 0.73320 0.29030 -0.38100
O 	O 	0.78280 0.58100 0.25050 -0.41000
O 	O 	0.72240 0.24140 0.26430 -0.38600
O 	O 	0.73970 0.08300 0.29690 -0.46600
O 	O 	0.05380 0.95460 0.29740 -0.42900
O 	O 	0.89360 0.93390 0.30640 -0.40500
N 	N 	0.46970 0.66250 0.23490 -0.22100
H 	H 	0.40910 0.64350 0.22340 0.15300
N 	N 	0.59470 0.76260 0.27390 -0.20100
N 	N 	0.89150 0.23920 0.22380 -0.20600
N 	N 	0.01500 0.13180 0.23440 -0.17400
H 	H 	0.07010 0.10430 0.22960 0.09200
C 	C 	0.49800 0.74800 0.26000 0.18100
H 	H 	0.45340 0.79740 0.26770 -0.02100
C 	C 	0.55230 0.60710 0.22980 -0.02800
C 	C 	0.63120 0.67060 0.25410 -0.05800
C 	C 	0.73600 0.66200 0.26600 0.32900
C 	C 	0.53360 0.50370 0.20030 0.38800
C 	C 	0.98800 0.22100 0.21510 0.09000
H 	H 	0.02650 0.26620 0.19790 -0.00300
C 	C 	0.86600 0.15500 0.25160 -0.04400
C 	C 	0.94900 0.08550 0.26280 -0.16600
C 	C 	0.96600 0.98400 0.28760 0.45900
C 	C 	0.77400 0.15800 0.27210 0.31600
W 	W 	0.76191 0.98897 0.02401 1.20700
W 	W 	0.64492 0.18963 0.08637 1.71400
W 	W 	0.63376 0.94240 0.14259 1.82200
W 	W 	0.49071 0.75307 0.05856 1.21400
W 	W 	0.61798 0.80063 0.93851 1.80700
W 	W 	0.62790 0.04721 0.87930 1.55000
La	La	0.72431 0.90167 0.32345 1.70000
La	La	0.21914 0.90149 0.27798 1.68600
O 	O 	0.59700 0.02700 0.04360 -1.36200
O 	O 	0.49800 0.11500 0.01590 -1.23500
O 	O 	0.49300 0.92700 0.05970 -1.01600
O 	O 	0.40300 0.03300 0.02730 -1.16900
O 	O 	0.74200 0.93300 0.10070 -0.48600
O 	O 	0.73000 0.85800 0.98630 -0.41400
O 	O 	0.73100 0.03900 0.94370 -0.50700
O 	O 	0.74400 0.12500 0.05750 -0.58200
O 	O 	0.70680 0.28040 0.12740 -0.62400
O 	O 	0.51700 0.22230 0.10230 -0.52700
O 	O 	0.64380 0.07910 0.14370 -0.61500
O 	O 	0.59800 0.81200 0.10870 -0.52600
O 	O 	0.39200 0.74500 0.98890 -0.41900
O 	O 	0.58800 0.73600 0.00790 -0.60900
O 	O 	0.66700 0.70500 0.90840 -0.63700
O 	O 	0.63200 0.90300 0.87990 -0.47400
O 	O 	0.68720 0.06450 0.82240 -0.57800
O 	O 	0.49100 0.03900 0.84070 -0.57700
O 	O 	0.60300 0.18300 0.90410 -0.48700
O 	O 	0.69670 0.91290 0.21030 -0.59700
O 	O 	0.55230 0.97720 0.31170 -0.26600
O 	O 	0.39120 0.95270 0.30710 -0.28100
O 	O 	0.20960 0.23320 0.20970 -0.39400
O 	O 	0.21720 0.08100 0.24950 -0.46800
O 	O 	0.27760 0.74140 0.23570 -0.38900
O 	O 	0.26030 0.58300 0.20310 -0.41600
O 	O 	0.94620 0.45460 0.20260 -0.45300
O 	O 	0.10640 0.43390 0.19360 -0.41700
N 	N 	0.53030 0.16250 0.26510 -0.23500
H 	H 	0.59090 0.14350 0.27660 0.14100
N 	N 	0.40530 0.26260 0.22610 -0.19200
N 	N 	0.10850 0.73920 0.27620 -0.20400
N 	N 	0.98500 0.63180 0.26560 -0.20500
H 	H 	0.92990 0.60430 0.27040 0.12700
C 	C 	0.50200 0.24800 0.24000 0.17700
H 	H 	0.54660 0.29740 0.23230 -0.02100
C 	C 	0.44770 0.10710 0.27020 0.02600
C 	C 	0.36880 0.17060 0.24590 -0.10300
C 	C 	0.26400 0.16200 0.23400 0.34600
C 	C 	0.46640 0.00370 0.29970 0.08300
C 	C 	0.01200 0.72100 0.28490 0.12600
H 	H 	0.97350 0.76620 0.30210 -0.01000
C 	C 	0.13400 0.65500 0.24840 -0.06200
C 	C 	0.05100 0.58550 0.23720 -0.04000
C 	C 	0.03400 0.48400 0.21240 0.34300
C 	C 	0.22600 0.65800 0.22790 0.32500
W 	W 	0.76191 0.51103 0.52401 1.37500
W 	W 	0.64492 0.31037 0.58637 1.82700
W 	W 	0.63376 0.55760 0.64259 1.81600
W 	W 	0.49071 0.74693 0.55856 1.48400
W 	W 	0.61798 0.69937 0.43851 1.86900
W 	W 	0.62790 0.45279 0.37930 1.77100
La	La	0.72431 0.59833 0.82345 1.67600
La	La	0.21914 0.59851 0.77798 1.64600
O 	O 	0.59700 0.47300 0.54360 -1.75500
O 	O 	0.49800 0.38500 0.51590 -1.64900
O 	O 	0.49300 0.57300 0.55970 -1.41900
O 	O 	0.40300 0.46700 0.52730 -1.45300
O 	O 	0.74200 0.56700 0.60070 -0.50200
O 	O 	0.73000 0.64200 0.48630 -0.51800
O 	O 	0.73100 0.46100 0.44370 -0.53200
O 	O 	0.74400 0.37500 0.55750 -0.53300
O 	O 	0.70680 0.21960 0.62740 -0.64400
O 	O 	0.51700 0.27770 0.60230 -0.53400
O 	O 	0.64380 0.42090 0.64370 -0.55600
O 	O 	0.59800 0.68800 0.60870 -0.52400
O 	O 	0.39200 0.75500 0.48890 -0.52500
O 	O 	0.58800 0.76400 0.50790 -0.50100
O 	O 	0.66700 0.79500 0.40840 -0.67900
O 	O 	0.63200 0.59700 0.37990 -0.54000
O 	O 	0.68720 0.43550 0.32240 -0.59300
O 	O 	0.49100 0.46100 0.34070 -0.56400
O 	O 	0.60300 0.31700 0.40410 -0.52300
O 	O 	0.69670 0.58710 0.71030 -0.62500
O 	O 	0.55230 0.52280 0.81170 -0.43100
O 	O 	0.39120 0.54730 0.80710 -0.42500
O 	O 	0.20960 0.26680 0.70970 -0.38000
O 	O 	0.21720 0.41900 0.74950 -0.40400
O 	O 	0.27760 0.75860 0.73570 -0.38200
O 	O 	0.26030 0.91700 0.70310 -0.35100
O 	O 	0.94620 0.04540 0.70260 -0.44200
O 	O 	0.10640 0.06610 0.69360 -0.40700
N 	N 	0.53030 0.33750 0.76510 -0.22200
H 	H 	0.59090 0.35650 0.77660 0.15700
N 	N 	0.40530 0.23740 0.72610 -0.19700
N 	N 	0.10850 0.76080 0.77620 -0.19900
N 	N 	0.98500 0.86820 0.76560 -0.23200
H 	H 	0.92990 0.89570 0.77040 0.16500
C 	C 	0.50200 0.25200 0.74000 0.18200
H 	H 	0.54660 0.20260 0.73230 -0.02300
C 	C 	0.44770 0.39290 0.77020 -0.02400
C 	C 	0.36880 0.32940 0.74590 -0.05600
C 	C 	0.26400 0.33800 0.73400 0.33300
C 	C 	0.46640 0.49630 0.79970 0.39100
C 	C 	0.01200 0.77900 0.78490 0.14600
H 	H 	0.97350 0.73380 0.80210 -0.00800
C 	C 	0.13400 0.84500 0.74840 -0.07800
C 	C 	0.05100 0.91450 0.73720 0.10900
C 	C 	0.03400 0.01600 0.71240 0.20300
C 	C 	0.22600 0.84200 0.72790 0.33900
W 	W 	0.23809 0.01103 0.97599 1.30600
W 	W 	0.35508 0.81037 0.91363 1.68700
W 	W 	0.36624 0.05760 0.85741 1.58700
W 	W 	0.50929 0.24693 0.94144 1.48500
W 	W 	0.38202 0.19937 0.06149 1.64200
W 	W 	0.37210 0.95279 0.12070 1.76700
La	La	0.27569 0.09833 0.67655 1.60300
La	La	0.78086 0.09851 0.72202 1.58600
O 	O 	0.40300 0.97300 0.95640 -1.09400
O 	O 	0.50200 0.88500 0.98410 -1.07900
O 	O 	0.50700 0.07300 0.94030 -1.01900
O 	O 	0.59700 0.96700 0.97270 -0.89000
O 	O 	0.25800 0.06700 0.89930 -0.50200
O 	O 	0.27000 0.14200 0.01370 -0.60000
O 	O 	0.26900 0.96100 0.05630 -0.53300
O 	O 	0.25600 0.87500 0.94250 -0.45000
O 	O 	0.29320 0.71960 0.87260 -0.58900
O 	O 	0.48300 0.77770 0.89770 -0.51500
O 	O 	0.35620 0.92090 0.85630 -0.47700
O 	O 	0.40200 0.18800 0.89130 -0.50800
O 	O 	0.60800 0.25500 0.01110 -0.62900
O 	O 	0.41200 0.26400 0.99210 -0.39900
O 	O 	0.33300 0.29500 0.09160 -0.67000
O 	O 	0.36800 0.09700 0.12010 -0.57500
O 	O 	0.31280 0.93550 0.17760 -0.55400
O 	O 	0.50900 0.96100 0.15930 -0.53100
O 	O 	0.39700 0.81700 0.09590 -0.53700
O 	O 	0.30330 0.08710 0.78970 -0.60100
O 	O 	0.44770 0.02280 0.68830 -0.61600
O 	O 	0.60880 0.04730 0.69290 -0.58900
O 	O 	0.79040 0.76680 0.79030 -0.36500
O 	O 	0.78280 0.91900 0.75050 -0.34700
O 	O 	0.72240 0.25860 0.76430 -0.37800
O 	O 	0.73970 0.41700 0.79690 -0.40200
O 	O 	0.05380 0.54540 0.79740 -0.42800
O 	O 	0.89360 0.56610 0.80640 -0.39600
N 	N 	0.46970 0.83750 0.73490 -0.20700
H 	H 	0.40910 0.85650 0.72340 0.16900
N 	N 	0.59470 0.73740 0.77390 -0.20600
N 	N 	0.89150 0.26080 0.72380 -0.20200
N 	N 	0.01500 0.36820 0.73440 -0.19800
H 	H 	0.07010 0.39570 0.72960 0.12700
C 	C 	0.49800 0.75200 0.76000 0.18500
H 	H 	0.45340 0.70260 0.76770 -0.02200
C 	C 	0.55230 0.89290 0.72980 -0.08100
C 	C 	0.63120 0.82940 0.75410 -0.01000
C 	C 	0.73600 0.83800 0.76600 0.31600
C 	C 	0.53360 0.99630 0.70030 0.70500
C 	C 	0.98800 0.27900 0.71510 0.10900
H 	H 	0.02650 0.23380 0.69790 -0.00400
C 	C 	0.86600 0.34500 0.75160 -0.05800
C 	C 	0.94900 0.41450 0.76280 -0.03300
C 	C 	0.96600 0.51600 0.78760 0.33900
C 	C 	0.77400 0.34200 0.77210 0.32800
Si	Si	0.50000 0.50000 0.50000 8.32500
Si	Si	0.50000 0.00000 -0.00000 5.50700
