data_crystal

_cell_length_a 8.12410
_cell_length_b 30.38430
_cell_length_c 15.66160
_cell_angle_alpha 90.00000
_cell_angle_beta  90.00000
_cell_angle_gamma 90.00000

_symmetry_space_group_name_	'P 1'
_symmetry_space_group_name_H-M	'P 1'

loop_
_symmetry_equiv_pos_as_xyz
  x,y,z

loop_
_atom_site_label
_atom_site_type_symbol
_atom_site_fract_x
_atom_site_fract_y
_atom_site_fract_z
_atom_site_charge
La	La	0.93440 0.59121 0.70363 1.64600
O 	O 	0.88970 0.46119 0.38950 -0.37400
O 	O 	0.74180 0.40625 0.33870 -0.48200
O 	O 	0.49410 0.52466 0.71020 -0.41600
O 	O 	0.73890 0.53863 0.65130 -0.44800
O 	O 	0.15540 0.63204 0.81600 -0.47000
O 	O 	0.98880 0.67043 0.73390 -0.41400
C 	C 	0.66080 0.43974 0.47190 -0.15600
C 	C 	0.52880 0.41202 0.48660 0.08900
H 	H 	0.50690 0.38940 0.44630 0.01000
N 	N 	0.43060 0.41547 0.55470 -0.13800
C 	C 	0.45950 0.44872 0.60880 0.10000
H 	H 	0.38750 0.45230 0.65610 0.02400
C 	C 	0.58920 0.47823 0.59950 -0.16500
C 	C 	0.69210 0.47300 0.53050 0.09700
H 	H 	0.78390 0.49200 0.52300 0.02700
C 	C 	0.76760 0.43579 0.39380 0.34300
C 	C 	0.60890 0.51632 0.65860 0.41600
C 	C 	0.14800 0.71064 0.83150 -0.17100
C 	C 	0.24560 0.71234 0.90440 0.11300
H 	H 	0.28040 0.68540 0.92930 -0.00900
C 	C 	0.09640 0.66846 0.79200 0.37800
La	La	0.56560 0.40879 0.20363 1.64800
O 	O 	0.61030 0.53881 0.88950 -0.37300
O 	O 	0.75820 0.59375 0.83870 -0.48100
O 	O 	0.00590 0.47534 0.21020 -0.41500
O 	O 	0.76110 0.46137 0.15130 -0.44800
O 	O 	0.34460 0.36796 0.31600 -0.47000
O 	O 	0.51120 0.32957 0.23390 -0.41200
C 	C 	0.83920 0.56026 0.97190 -0.15600
C 	C 	0.97120 0.58798 0.98660 0.08800
H 	H 	0.99310 0.61060 0.94630 0.00900
N 	N 	0.06940 0.58453 0.05470 -0.13700
C 	C 	0.04050 0.55128 0.10880 0.10100
H 	H 	0.11250 0.54770 0.15610 0.02400
C 	C 	0.91080 0.52177 0.09950 -0.16600
C 	C 	0.80790 0.52700 0.03050 0.09700
H 	H 	0.71610 0.50800 0.02300 0.02700
C 	C 	0.73240 0.56421 0.89380 0.34300
C 	C 	0.89110 0.48368 0.15860 0.41600
C 	C 	0.35200 0.28936 0.33150 -0.17000
C 	C 	0.25440 0.28766 0.40440 0.11200
H 	H 	0.21960 0.31460 0.42930 -0.00900
C 	C 	0.40360 0.33154 0.29200 0.37500
La	La	0.06560 0.09121 0.29637 1.64700
O 	O 	0.11030 0.96119 0.61050 -0.37300
O 	O 	0.25820 0.90625 0.66130 -0.48100
O 	O 	0.50590 0.02466 0.28980 -0.41500
O 	O 	0.26110 0.03863 0.34870 -0.44800
O 	O 	0.84460 0.13204 0.18400 -0.47000
O 	O 	0.01120 0.17043 0.26610 -0.41400
C 	C 	0.33920 0.93974 0.52810 -0.15600
C 	C 	0.47120 0.91202 0.51340 0.08900
H 	H 	0.49310 0.88940 0.55370 0.01000
N 	N 	0.56940 0.91547 0.44530 -0.13800
C 	C 	0.54050 0.94872 0.39120 0.10000
H 	H 	0.61250 0.95230 0.34390 0.02400
C 	C 	0.41080 0.97823 0.40050 -0.16500
C 	C 	0.30790 0.97300 0.46950 0.09700
H 	H 	0.21610 0.99200 0.47700 0.02700
C 	C 	0.23240 0.93579 0.60620 0.34300
C 	C 	0.39110 0.01632 0.34140 0.41600
C 	C 	0.85200 0.21064 0.16850 -0.17100
C 	C 	0.75440 0.21234 0.09560 0.11300
H 	H 	0.71960 0.18540 0.07070 -0.00900
C 	C 	0.90360 0.16846 0.20800 0.37800
La	La	0.43440 0.90879 0.79637 1.64800
O 	O 	0.38970 0.03881 0.11050 -0.37300
O 	O 	0.24180 0.09375 0.16130 -0.48100
O 	O 	0.99410 0.97534 0.78980 -0.41500
O 	O 	0.23890 0.96137 0.84870 -0.44800
O 	O 	0.65540 0.86796 0.68400 -0.47000
O 	O 	0.48880 0.82957 0.76610 -0.41200
C 	C 	0.16080 0.06026 0.02810 -0.15600
C 	C 	0.02880 0.08798 0.01340 0.08800
H 	H 	0.00690 0.11060 0.05370 0.00900
N 	N 	0.93060 0.08453 0.94530 -0.13700
C 	C 	0.95950 0.05128 0.89120 0.10100
H 	H 	0.88750 0.04770 0.84390 0.02400
C 	C 	0.08920 0.02177 0.90050 -0.16600
C 	C 	0.19210 0.02700 0.96950 0.09700
H 	H 	0.28390 0.00800 0.97700 0.02700
C 	C 	0.26760 0.06421 0.10620 0.34300
C 	C 	0.10890 0.98368 0.84140 0.41700
C 	C 	0.64800 0.78936 0.66850 -0.17000
C 	C 	0.74560 0.78766 0.59560 0.11200
H 	H 	0.78040 0.81460 0.57070 -0.00900
C 	C 	0.59640 0.83154 0.70800 0.37500
La	La	0.06560 0.40879 0.29637 1.64700
O 	O 	0.11030 0.53881 0.61050 -0.37300
O 	O 	0.25820 0.59375 0.66130 -0.48100
O 	O 	0.50590 0.47534 0.28980 -0.41500
O 	O 	0.26110 0.46137 0.34870 -0.44800
O 	O 	0.84460 0.36796 0.18400 -0.47000
O 	O 	0.01120 0.32957 0.26610 -0.41400
C 	C 	0.33920 0.56026 0.52810 -0.15600
C 	C 	0.47120 0.58798 0.51340 0.08900
H 	H 	0.49310 0.61060 0.55370 0.01000
N 	N 	0.56940 0.58453 0.44530 -0.13800
C 	C 	0.54050 0.55128 0.39120 0.10000
H 	H 	0.61250 0.54770 0.34390 0.02400
C 	C 	0.41080 0.52177 0.40050 -0.16500
C 	C 	0.30790 0.52700 0.46950 0.09700
H 	H 	0.21610 0.50800 0.47700 0.02700
C 	C 	0.23240 0.56421 0.60620 0.34300
C 	C 	0.39110 0.48368 0.34140 0.41600
C 	C 	0.85200 0.28936 0.16850 -0.17100
C 	C 	0.75440 0.28766 0.09560 0.11300
H 	H 	0.71960 0.31460 0.07070 -0.00900
C 	C 	0.90360 0.33154 0.20800 0.37800
La	La	0.43440 0.59121 0.79637 1.64800
O 	O 	0.38970 0.46119 0.11050 -0.37300
O 	O 	0.24180 0.40625 0.16130 -0.48100
O 	O 	0.99410 0.52466 0.78980 -0.41500
O 	O 	0.23890 0.53863 0.84870 -0.44800
O 	O 	0.65540 0.63204 0.68400 -0.47000
O 	O 	0.48880 0.67043 0.76610 -0.41200
C 	C 	0.16080 0.43974 0.02810 -0.15600
C 	C 	0.02880 0.41202 0.01340 0.08800
H 	H 	0.00690 0.38940 0.05370 0.00900
N 	N 	0.93060 0.41547 0.94530 -0.13700
C 	C 	0.95950 0.44872 0.89120 0.10100
H 	H 	0.88750 0.45230 0.84390 0.02400
C 	C 	0.08920 0.47823 0.90050 -0.16600
C 	C 	0.19210 0.47300 0.96950 0.09700
H 	H 	0.28390 0.49200 0.97700 0.02700
C 	C 	0.26760 0.43579 0.10620 0.34300
C 	C 	0.10890 0.51632 0.84140 0.41600
C 	C 	0.64800 0.71064 0.66850 -0.17000
C 	C 	0.74560 0.71234 0.59560 0.11200
H 	H 	0.78040 0.68540 0.57070 -0.00900
C 	C 	0.59640 0.66846 0.70800 0.37500
La	La	0.93440 0.90879 0.70363 1.64700
O 	O 	0.88970 0.03881 0.38950 -0.37300
O 	O 	0.74180 0.09375 0.33870 -0.48100
O 	O 	0.49410 0.97534 0.71020 -0.41500
O 	O 	0.73890 0.96137 0.65130 -0.44800
O 	O 	0.15540 0.86796 0.81600 -0.47000
O 	O 	0.98880 0.82957 0.73390 -0.41400
C 	C 	0.66080 0.06026 0.47190 -0.15600
C 	C 	0.52880 0.08798 0.48660 0.08900
H 	H 	0.50690 0.11060 0.44630 0.01000
N 	N 	0.43060 0.08453 0.55470 -0.13800
C 	C 	0.45950 0.05128 0.60880 0.10000
H 	H 	0.38750 0.04770 0.65610 0.02400
C 	C 	0.58920 0.02177 0.59950 -0.16500
C 	C 	0.69210 0.02700 0.53050 0.09700
H 	H 	0.78390 0.00800 0.52300 0.02700
C 	C 	0.76760 0.06421 0.39380 0.34300
C 	C 	0.60890 0.98368 0.65860 0.41600
C 	C 	0.14800 0.78936 0.83150 -0.17100
C 	C 	0.24560 0.78766 0.90440 0.11300
H 	H 	0.28040 0.81460 0.92930 -0.00900
C 	C 	0.09640 0.83154 0.79200 0.37800
La	La	0.56560 0.09121 0.20363 1.64800
O 	O 	0.61030 0.96119 0.88950 -0.37300
O 	O 	0.75820 0.90625 0.83870 -0.48100
O 	O 	0.00590 0.02466 0.21020 -0.41500
O 	O 	0.76110 0.03863 0.15130 -0.44800
O 	O 	0.34460 0.13204 0.31600 -0.47000
O 	O 	0.51120 0.17043 0.23390 -0.41200
C 	C 	0.83920 0.93974 0.97190 -0.15600
C 	C 	0.97120 0.91202 0.98660 0.08800
H 	H 	0.99310 0.88940 0.94630 0.00900
N 	N 	0.06940 0.91547 0.05470 -0.13700
C 	C 	0.04050 0.94872 0.10880 0.10100
H 	H 	0.11250 0.95230 0.15610 0.02400
C 	C 	0.91080 0.97823 0.09950 -0.16600
C 	C 	0.80790 0.97300 0.03050 0.09700
H 	H 	0.71610 0.99200 0.02300 0.02700
C 	C 	0.73240 0.93579 0.89380 0.34300
C 	C 	0.89110 0.01632 0.15860 0.41700
C 	C 	0.35200 0.21064 0.33150 -0.17000
C 	C 	0.25440 0.21234 0.40440 0.11200
H 	H 	0.21960 0.18540 0.42930 -0.00900
C 	C 	0.40360 0.16846 0.29200 0.37500
N 	N 	0.29290 0.75000 0.94130 -0.14100
C 	C 	0.09770 0.75000 0.79530 0.10800
H 	H 	0.02940 0.75000 0.74610 0.02800
N 	N 	0.20710 0.25000 0.44130 -0.14100
C 	C 	0.40230 0.25000 0.29530 0.10600
H 	H 	0.47060 0.25000 0.24610 0.02700
N 	N 	0.70710 0.25000 0.05870 -0.14100
C 	C 	0.90230 0.25000 0.20470 0.10800
H 	H 	0.97060 0.25000 0.25390 0.02800
N 	N 	0.79290 0.75000 0.55870 -0.14100
C 	C 	0.59770 0.75000 0.70470 0.10600
H 	H 	0.52940 0.75000 0.75390 0.02700
