data_crystal

_cell_length_a 8.11620
_cell_length_b 30.28420
_cell_length_c 15.67090
_cell_angle_alpha 90.00000
_cell_angle_beta  90.00000
_cell_angle_gamma 90.00000

_symmetry_space_group_name_	'P 1'
_symmetry_space_group_name_H-M	'P 1'

loop_
_symmetry_equiv_pos_as_xyz
  x,y,z

loop_
_atom_site_label
_atom_site_type_symbol
_atom_site_fract_x
_atom_site_fract_y
_atom_site_fract_z
_atom_site_charge
Ce	Ce	0.43911 0.90869 0.70393 2.13100
O 	O 	0.66250 0.86861 0.81620 -0.57200
O 	O 	0.38650 0.03933 0.38710 -0.43500
O 	O 	0.24830 0.96207 0.65120 -0.54000
O 	O 	0.49330 0.83022 0.73450 -0.48600
O 	O 	0.23430 0.09476 0.33830 -0.58100
O 	O 	0.00270 0.97380 0.70940 -0.50200
N 	N 	0.92640 0.08316 0.55500 -0.13900
C 	C 	0.60150 0.83181 0.79140 0.38900
C 	C 	0.15680 0.06026 0.47100 -0.15100
C 	C 	0.02320 0.08705 0.48670 0.07600
H 	H 	0.99860 0.10960 0.44660 0.01400
C 	C 	0.11580 0.98313 0.65870 0.46700
C 	C 	0.26400 0.06457 0.39280 0.33400
C 	C 	0.95960 0.05007 0.60910 0.10800
H 	H 	0.88900 0.04610 0.65690 0.02100
C 	C 	0.65430 0.78963 0.83110 -0.17500
C 	C 	0.09180 0.02120 0.59920 -0.17800
C 	C 	0.75170 0.78767 0.90380 0.11400
H 	H 	0.78460 0.81480 0.92920 -0.01800
C 	C 	0.19340 0.02692 0.52980 0.10000
H 	H 	0.28700 0.00850 0.52200 0.02600
Ce	Ce	0.06089 0.09131 0.20393 2.12900
O 	O 	0.83750 0.13139 0.31620 -0.57300
O 	O 	0.11350 0.96067 0.88710 -0.43300
O 	O 	0.25170 0.03793 0.15120 -0.54200
O 	O 	0.00670 0.16978 0.23450 -0.49500
O 	O 	0.26570 0.90524 0.83830 -0.57800
O 	O 	0.49730 0.02620 0.20940 -0.50500
N 	N 	0.57360 0.91684 0.05500 -0.14100
C 	C 	0.89850 0.16819 0.29140 0.39900
C 	C 	0.34320 0.93974 0.97100 -0.15100
C 	C 	0.47680 0.91295 0.98670 0.08500
H 	H 	0.50140 0.89040 0.94660 0.00800
C 	C 	0.38420 0.01687 0.15870 0.46600
C 	C 	0.23600 0.93543 0.89280 0.33500
C 	C 	0.54040 0.94993 0.10910 0.10700
H 	H 	0.61100 0.95390 0.15690 0.02200
C 	C 	0.84570 0.21037 0.33110 -0.17700
C 	C 	0.40820 0.97880 0.09920 -0.17700
C 	C 	0.74830 0.21233 0.40380 0.11600
H 	H 	0.71540 0.18520 0.42920 -0.01800
C 	C 	0.30660 0.97308 0.02980 0.09900
H 	H 	0.21300 0.99150 0.02200 0.02500
Ce	Ce	0.56089 0.40869 0.29607 2.13100
O 	O 	0.33750 0.36861 0.18380 -0.57200
O 	O 	0.61350 0.53933 0.61290 -0.43500
O 	O 	0.75170 0.46207 0.34880 -0.54000
O 	O 	0.50670 0.33022 0.26550 -0.48600
O 	O 	0.76570 0.59476 0.66170 -0.58100
O 	O 	0.99730 0.47380 0.29060 -0.50200
N 	N 	0.07360 0.58316 0.44500 -0.13900
C 	C 	0.39850 0.33181 0.20860 0.38900
C 	C 	0.84320 0.56026 0.52900 -0.15100
C 	C 	0.97680 0.58705 0.51330 0.07700
H 	H 	0.00140 0.60960 0.55340 0.01300
C 	C 	0.88420 0.48313 0.34130 0.46600
C 	C 	0.73600 0.56457 0.60720 0.33400
C 	C 	0.04040 0.55007 0.39090 0.10600
H 	H 	0.11100 0.54610 0.34310 0.02100
C 	C 	0.34570 0.28963 0.16890 -0.17500
C 	C 	0.90820 0.52120 0.40080 -0.17700
C 	C 	0.24830 0.28767 0.09620 0.11400
H 	H 	0.21540 0.31480 0.07080 -0.01800
C 	C 	0.80660 0.52692 0.47020 0.09900
H 	H 	0.71300 0.50850 0.47800 0.02600
Ce	Ce	0.93911 0.59131 0.79607 2.12900
O 	O 	0.16250 0.63139 0.68380 -0.57300
O 	O 	0.88650 0.46067 0.11290 -0.43300
O 	O 	0.74830 0.53793 0.84880 -0.54100
O 	O 	0.99330 0.66978 0.76550 -0.49500
O 	O 	0.73430 0.40524 0.16170 -0.57900
O 	O 	0.50270 0.52620 0.79060 -0.50500
N 	N 	0.42640 0.41684 0.94500 -0.14100
C 	C 	0.10150 0.66819 0.70860 0.39900
C 	C 	0.65680 0.43974 0.02900 -0.15100
C 	C 	0.52320 0.41295 0.01330 0.08600
H 	H 	0.49860 0.39040 0.05340 0.00800
C 	C 	0.61580 0.51687 0.84130 0.46700
C 	C 	0.76400 0.43543 0.10720 0.33500
C 	C 	0.45960 0.44993 0.89090 0.10700
H 	H 	0.38900 0.45390 0.84310 0.02200
C 	C 	0.15430 0.71037 0.66890 -0.17700
C 	C 	0.59180 0.47880 0.90080 -0.17700
C 	C 	0.25170 0.71233 0.59620 0.11600
H 	H 	0.28460 0.68520 0.57080 -0.01800
C 	C 	0.69340 0.47308 0.97020 0.09900
H 	H 	0.78700 0.49150 0.97800 0.02500
Ce	Ce	0.56089 0.09131 0.29607 2.13100
O 	O 	0.33750 0.13139 0.18380 -0.57200
O 	O 	0.61350 0.96067 0.61290 -0.43500
O 	O 	0.75170 0.03793 0.34880 -0.54000
O 	O 	0.50670 0.16978 0.26550 -0.48600
O 	O 	0.76570 0.90524 0.66170 -0.58100
O 	O 	0.99730 0.02620 0.29060 -0.50200
N 	N 	0.07360 0.91684 0.44500 -0.13900
C 	C 	0.39850 0.16819 0.20860 0.38900
C 	C 	0.84320 0.93974 0.52900 -0.15100
C 	C 	0.97680 0.91295 0.51330 0.07600
H 	H 	0.00140 0.89040 0.55340 0.01400
C 	C 	0.88420 0.01687 0.34130 0.46700
C 	C 	0.73600 0.93543 0.60720 0.33400
C 	C 	0.04040 0.94993 0.39090 0.10800
H 	H 	0.11100 0.95390 0.34310 0.02100
C 	C 	0.34570 0.21037 0.16890 -0.17500
C 	C 	0.90820 0.97880 0.40080 -0.17800
C 	C 	0.24830 0.21233 0.09620 0.11400
H 	H 	0.21540 0.18520 0.07080 -0.01800
C 	C 	0.80660 0.97308 0.47020 0.10000
H 	H 	0.71300 0.99150 0.47800 0.02600
Ce	Ce	0.93911 0.90869 0.79607 2.12900
O 	O 	0.16250 0.86861 0.68380 -0.57300
O 	O 	0.88650 0.03933 0.11290 -0.43300
O 	O 	0.74830 0.96207 0.84880 -0.54200
O 	O 	0.99330 0.83022 0.76550 -0.49500
O 	O 	0.73430 0.09476 0.16170 -0.57800
O 	O 	0.50270 0.97380 0.79060 -0.50500
N 	N 	0.42640 0.08316 0.94500 -0.14100
C 	C 	0.10150 0.83181 0.70860 0.39900
C 	C 	0.65680 0.06026 0.02900 -0.15100
C 	C 	0.52320 0.08705 0.01330 0.08500
H 	H 	0.49860 0.10960 0.05340 0.00800
C 	C 	0.61580 0.98313 0.84130 0.46600
C 	C 	0.76400 0.06457 0.10720 0.33500
C 	C 	0.45960 0.05007 0.89090 0.10700
H 	H 	0.38900 0.04610 0.84310 0.02200
C 	C 	0.15430 0.78963 0.66890 -0.17700
C 	C 	0.59180 0.02120 0.90080 -0.17700
C 	C 	0.25170 0.78767 0.59620 0.11600
H 	H 	0.28460 0.81480 0.57080 -0.01800
C 	C 	0.69340 0.02692 0.97020 0.09900
H 	H 	0.78700 0.00850 0.97800 0.02500
Ce	Ce	0.43911 0.59131 0.70393 2.13100
O 	O 	0.66250 0.63139 0.81620 -0.57200
O 	O 	0.38650 0.46067 0.38710 -0.43500
O 	O 	0.24830 0.53793 0.65120 -0.54000
O 	O 	0.49330 0.66978 0.73450 -0.48600
O 	O 	0.23430 0.40524 0.33830 -0.58100
O 	O 	0.00270 0.52620 0.70940 -0.50200
N 	N 	0.92640 0.41684 0.55500 -0.13900
C 	C 	0.60150 0.66819 0.79140 0.38900
C 	C 	0.15680 0.43974 0.47100 -0.15100
C 	C 	0.02320 0.41295 0.48670 0.07700
H 	H 	0.99860 0.39040 0.44660 0.01300
C 	C 	0.11580 0.51687 0.65870 0.46600
C 	C 	0.26400 0.43543 0.39280 0.33400
C 	C 	0.95960 0.44993 0.60910 0.10600
H 	H 	0.88900 0.45390 0.65690 0.02100
C 	C 	0.65430 0.71037 0.83110 -0.17500
C 	C 	0.09180 0.47880 0.59920 -0.17700
C 	C 	0.75170 0.71233 0.90380 0.11400
H 	H 	0.78460 0.68520 0.92920 -0.01800
C 	C 	0.19340 0.47308 0.52980 0.09900
H 	H 	0.28700 0.49150 0.52200 0.02600
Ce	Ce	0.06089 0.40869 0.20393 2.12900
O 	O 	0.83750 0.36861 0.31620 -0.57300
O 	O 	0.11350 0.53933 0.88710 -0.43300
O 	O 	0.25170 0.46207 0.15120 -0.54100
O 	O 	0.00670 0.33022 0.23450 -0.49500
O 	O 	0.26570 0.59476 0.83830 -0.57900
O 	O 	0.49730 0.47380 0.20940 -0.50500
N 	N 	0.57360 0.58316 0.05500 -0.14100
C 	C 	0.89850 0.33181 0.29140 0.39900
C 	C 	0.34320 0.56026 0.97100 -0.15100
C 	C 	0.47680 0.58705 0.98670 0.08600
H 	H 	0.50140 0.60960 0.94660 0.00800
C 	C 	0.38420 0.48313 0.15870 0.46700
C 	C 	0.23600 0.56457 0.89280 0.33500
C 	C 	0.54040 0.55007 0.10910 0.10700
H 	H 	0.61100 0.54610 0.15690 0.02200
C 	C 	0.84570 0.28963 0.33110 -0.17700
C 	C 	0.40820 0.52120 0.09920 -0.17700
C 	C 	0.74830 0.28767 0.40380 0.11600
H 	H 	0.71540 0.31480 0.42920 -0.01800
C 	C 	0.30660 0.52692 0.02980 0.09900
H 	H 	0.21300 0.50850 0.02200 0.02500
N 	N 	0.80250 0.75000 0.94060 -0.14500
C 	C 	0.60100 0.75000 0.79530 0.10900
H 	H 	0.52950 0.75000 0.74730 0.02900
N 	N 	0.69750 0.25000 0.44060 -0.14400
C 	C 	0.89900 0.25000 0.29530 0.11300
H 	H 	0.97050 0.25000 0.24730 0.03100
N 	N 	0.19750 0.25000 0.05940 -0.14500
C 	C 	0.39900 0.25000 0.20470 0.10900
H 	H 	0.47050 0.25000 0.25270 0.02900
N 	N 	0.30250 0.75000 0.55940 -0.14400
C 	C 	0.10100 0.75000 0.70470 0.11300
H 	H 	0.02950 0.75000 0.75270 0.03100
