data_crystal

_cell_length_a 8.50850
_cell_length_b 16.01560
_cell_length_c 27.93930
_cell_angle_alpha 90.00000
_cell_angle_beta  90.00000
_cell_angle_gamma 90.00000

_symmetry_space_group_name_	'P 1'
_symmetry_space_group_name_H-M	'P 1'

loop_
_symmetry_equiv_pos_as_xyz
  x,y,z

loop_
_atom_site_label
_atom_site_type_symbol
_atom_site_fract_x
_atom_site_fract_y
_atom_site_fract_z
_atom_site_charge
Tb	Tb	0.77034 0.80614 0.33229 1.96900
Tb	Tb	0.73059 0.20398 0.16917 2.01900
O 	O 	0.52080 0.71220 0.37140 -0.55200
O 	O 	0.94160 0.11880 0.18390 -0.54900
O 	O 	0.14650 0.76280 0.26480 -0.53500
O 	O 	0.51520 0.70670 0.62710 -0.53800
O 	O 	0.17490 0.16380 0.16010 -0.53600
O 	O 	0.68420 0.78870 0.58970 -0.50200
O 	O 	0.32140 0.84410 0.33680 -0.53000
O 	O 	0.68550 0.79290 0.41150 -0.49000
O 	O 	0.94010 0.84710 0.27170 -0.51700
O 	O 	0.56050 0.16680 0.22920 -0.56400
O 	O 	0.55720 0.89470 0.31580 -0.54000
O 	O 	0.34530 0.24710 0.23460 -0.50400
N 	N 	0.12870 0.07990 0.32480 -0.15800
N 	N 	0.41480 0.58280 0.49710 -0.15100
N 	N 	0.37130 0.92810 0.17460 -0.15800
C 	C 	0.57960 0.73670 0.40930 0.44400
C 	C 	0.08800 0.11030 0.17610 0.53600
C 	C 	0.43100 0.18170 0.24420 0.52200
C 	C 	0.35010 0.98670 0.31450 -0.23600
C 	C 	0.15900 0.02520 0.18470 -0.24200
C 	C 	0.45480 0.62350 0.45700 0.14500
H 	H 	0.42750 0.59910 0.42710 -0.02700
C 	C 	0.14700 0.88900 0.22170 -0.23900
C 	C 	0.29300 0.87260 0.20000 0.13800
H 	H 	0.33780 0.81870 0.20390 0.00100
C 	C 	0.35100 0.11810 0.27670 -0.23400
C 	C 	0.08190 0.96630 0.21310 0.17100
H 	H 	0.98280 0.97980 0.22670 -0.01500
C 	C 	0.53190 0.69740 0.45660 -0.20300
C 	C 	0.42630 0.04680 0.28650 0.17300
H 	H 	0.52940 0.03710 0.27470 -0.01600
C 	C 	0.54330 0.69490 0.54210 -0.19700
C 	C 	0.19740 0.00780 0.33270 0.13100
H 	H 	0.14320 0.96750 0.35140 -0.01100
C 	C 	0.30390 0.00340 0.16670 0.13900
H 	H 	0.35920 0.04320 0.14790 -0.01100
C 	C 	0.58210 0.73390 0.49830 0.12800
H 	H 	0.64160 0.78410 0.49780 0.01600
C 	C 	0.58200 0.73360 0.58820 0.44300
C 	C 	0.41600 0.90360 0.32480 0.51500
C 	C 	0.45530 0.61840 0.53910 0.12600
H 	H 	0.42440 0.59180 0.56790 -0.02200
C 	C 	0.20140 0.13350 0.29600 0.13600
H 	H 	0.14990 0.18430 0.28810 0.00200
C 	C 	0.07810 0.82650 0.25500 0.52300
Tb	Tb	0.72966 0.19386 0.83229 1.97100
Tb	Tb	0.76941 0.79602 0.66917 2.01400
O 	O 	0.97920 0.28780 0.87140 -0.55000
O 	O 	0.55840 0.88120 0.68390 -0.55200
O 	O 	0.35350 0.23720 0.76480 -0.53500
O 	O 	0.98480 0.29330 0.12710 -0.53600
O 	O 	0.32510 0.83620 0.66010 -0.53600
O 	O 	0.81580 0.21130 0.08970 -0.50000
O 	O 	0.17860 0.15590 0.83680 -0.53000
O 	O 	0.81450 0.20710 0.91150 -0.48900
O 	O 	0.55990 0.15290 0.77170 -0.51600
O 	O 	0.93950 0.83320 0.72920 -0.56500
O 	O 	0.94280 0.10530 0.81580 -0.53700
O 	O 	0.15470 0.75290 0.73460 -0.50500
N 	N 	0.37130 0.92010 0.82480 -0.15900
N 	N 	0.08520 0.41720 0.99710 -0.14800
N 	N 	0.12870 0.07190 0.67460 -0.15800
C 	C 	0.92040 0.26330 0.90930 0.44200
C 	C 	0.41200 0.88970 0.67610 0.53900
C 	C 	0.06900 0.81830 0.74420 0.52500
C 	C 	0.14990 0.01330 0.81450 -0.23900
C 	C 	0.34100 0.97480 0.68470 -0.24100
C 	C 	0.04520 0.37650 0.95700 0.13600
H 	H 	0.07250 0.40090 0.92710 -0.02500
C 	C 	0.35300 0.11100 0.72170 -0.23800
C 	C 	0.20700 0.12740 0.70000 0.13800
H 	H 	0.16220 0.18130 0.70390 0.00100
C 	C 	0.14900 0.88190 0.77670 -0.23700
C 	C 	0.41810 0.03370 0.71310 0.16900
H 	H 	0.51720 0.02020 0.72670 -0.01400
C 	C 	0.96810 0.30260 0.95660 -0.19200
C 	C 	0.07370 0.95320 0.78650 0.17600
H 	H 	0.97060 0.96290 0.77470 -0.01700
C 	C 	0.95670 0.30510 0.04210 -0.18700
C 	C 	0.30260 0.99220 0.83270 0.13400
H 	H 	0.35680 0.03250 0.85140 -0.01300
C 	C 	0.19610 0.99660 0.66670 0.14000
H 	H 	0.14080 0.95680 0.64790 -0.01100
C 	C 	0.91790 0.26610 0.99830 0.12200
H 	H 	0.85840 0.21590 0.99780 0.01900
C 	C 	0.91800 0.26640 0.08820 0.44000
C 	C 	0.08400 0.09640 0.82480 0.51200
C 	C 	0.04470 0.38160 0.03910 0.11700
H 	H 	0.07560 0.40820 0.06790 -0.02000
C 	C 	0.29860 0.86650 0.79600 0.13700
H 	H 	0.35010 0.81570 0.78810 0.00100
C 	C 	0.42190 0.17350 0.75500 0.52100
Tb	Tb	0.22966 0.30614 0.16771 1.96800
Tb	Tb	0.26941 0.70398 0.33083 2.01800
O 	O 	0.47920 0.21220 0.12860 -0.55300
O 	O 	0.05840 0.61880 0.31610 -0.55000
O 	O 	0.85350 0.26280 0.23520 -0.53500
O 	O 	0.48480 0.20670 0.87290 -0.53800
O 	O 	0.82510 0.66380 0.33990 -0.53600
O 	O 	0.31580 0.28870 0.91030 -0.50200
O 	O 	0.67860 0.34410 0.16320 -0.53000
O 	O 	0.31450 0.29290 0.08850 -0.49000
O 	O 	0.05990 0.34710 0.22830 -0.51600
O 	O 	0.43950 0.66680 0.27080 -0.56400
O 	O 	0.44280 0.39470 0.18420 -0.54000
O 	O 	0.65470 0.74710 0.26540 -0.50400
N 	N 	0.87130 0.57990 0.17520 -0.15800
N 	N 	0.58520 0.08280 0.00290 -0.15100
N 	N 	0.62870 0.42810 0.32540 -0.15800
C 	C 	0.42040 0.23670 0.09070 0.44400
C 	C 	0.91200 0.61030 0.32390 0.53600
C 	C 	0.56900 0.68170 0.25580 0.52300
C 	C 	0.64990 0.48670 0.18550 -0.23800
C 	C 	0.84100 0.52520 0.31530 -0.24000
C 	C 	0.54520 0.12350 0.04300 0.14500
H 	H 	0.57250 0.09910 0.07290 -0.02700
C 	C 	0.85300 0.38900 0.27830 -0.23700
C 	C 	0.70700 0.37260 0.30000 0.13700
H 	H 	0.66220 0.31870 0.29610 0.00100
C 	C 	0.64900 0.61810 0.22330 -0.23500
C 	C 	0.91810 0.46630 0.28690 0.16700
H 	H 	0.01720 0.47980 0.27330 -0.01300
C 	C 	0.46810 0.19740 0.04340 -0.20300
C 	C 	0.57370 0.54680 0.21350 0.17500
H 	H 	0.47060 0.53710 0.22530 -0.01700
C 	C 	0.45670 0.19490 0.95790 -0.19700
C 	C 	0.80260 0.50780 0.16730 0.13300
H 	H 	0.85680 0.46750 0.14860 -0.01200
C 	C 	0.69610 0.50340 0.33330 0.13800
H 	H 	0.64080 0.54320 0.35210 -0.01100
C 	C 	0.41790 0.23390 0.00170 0.12800
H 	H 	0.35840 0.28410 0.00220 0.01600
C 	C 	0.41800 0.23360 0.91180 0.44300
C 	C 	0.58400 0.40360 0.17520 0.51500
C 	C 	0.54470 0.11840 0.96090 0.12600
H 	H 	0.57560 0.09180 0.93210 -0.02100
C 	C 	0.79860 0.63350 0.20400 0.13700
H 	H 	0.85010 0.68430 0.21190 0.00100
C 	C 	0.92190 0.32650 0.24500 0.52200
Tb	Tb	0.27034 0.69386 0.66771 1.97100
Tb	Tb	0.23059 0.29602 0.83083 2.01500
O 	O 	0.02080 0.78780 0.62860 -0.55000
O 	O 	0.44160 0.38120 0.81610 -0.55200
O 	O 	0.64650 0.73720 0.73520 -0.53500
O 	O 	0.01520 0.79330 0.37290 -0.53600
O 	O 	0.67490 0.33620 0.83990 -0.53600
O 	O 	0.18420 0.71130 0.41030 -0.50000
O 	O 	0.82140 0.65590 0.66320 -0.53000
O 	O 	0.18550 0.70710 0.58850 -0.48900
O 	O 	0.44010 0.65290 0.72830 -0.51600
O 	O 	0.06050 0.33320 0.77080 -0.56500
O 	O 	0.05720 0.60530 0.68420 -0.53800
O 	O 	0.84530 0.25290 0.76540 -0.50500
N 	N 	0.62870 0.42010 0.67520 -0.15900
N 	N 	0.91480 0.91720 0.50290 -0.14800
N 	N 	0.87130 0.57190 0.82540 -0.15700
C 	C 	0.07960 0.76330 0.59070 0.44100
C 	C 	0.58800 0.38970 0.82390 0.53900
C 	C 	0.93100 0.31830 0.75580 0.52300
C 	C 	0.85010 0.51330 0.68550 -0.23700
C 	C 	0.65900 0.47480 0.81530 -0.24100
C 	C 	0.95480 0.87650 0.54300 0.13500
H 	H 	0.92750 0.90090 0.57290 -0.02500
C 	C 	0.64700 0.61100 0.77830 -0.23800
C 	C 	0.79300 0.62740 0.80000 0.13800
H 	H 	0.83780 0.68130 0.79610 0.00100
C 	C 	0.85100 0.38190 0.72330 -0.23500
C 	C 	0.58190 0.53370 0.78690 0.16900
H 	H 	0.48280 0.52020 0.77330 -0.01400
C 	C 	0.03190 0.80260 0.54340 -0.19100
C 	C 	0.92630 0.45320 0.71350 0.17200
H 	H 	0.02940 0.46290 0.72530 -0.01500
C 	C 	0.04330 0.80510 0.45790 -0.18700
C 	C 	0.69740 0.49220 0.66730 0.13200
H 	H 	0.64320 0.53250 0.64860 -0.01300
C 	C 	0.80390 0.49660 0.83330 0.13900
H 	H 	0.85920 0.45680 0.85210 -0.01100
C 	C 	0.08210 0.76610 0.50170 0.12100
H 	H 	0.14160 0.71590 0.50220 0.01900
C 	C 	0.08200 0.76640 0.41180 0.44000
C 	C 	0.91600 0.59640 0.67520 0.51200
C 	C 	0.95530 0.88160 0.46090 0.11700
H 	H 	0.92440 0.90820 0.43210 -0.02000
C 	C 	0.70140 0.36650 0.70400 0.13600
H 	H 	0.64990 0.31570 0.71190 0.00100
C 	C 	0.57810 0.67350 0.74500 0.52100
