data_crystal

_cell_length_a 24.00100
_cell_length_b 24.14230
_cell_length_c 24.35640
_cell_angle_alpha 85.62600
_cell_angle_beta  61.31900
_cell_angle_gamma 60.94400

_symmetry_space_group_name_	'P 1'
_symmetry_space_group_name_H-M	'P 1'

loop_
_symmetry_equiv_pos_as_xyz
  x,y,z

loop_
_atom_site_label
_atom_site_type_symbol
_atom_site_fract_x
_atom_site_fract_y
_atom_site_fract_z
_atom_site_charge
Er	Er	0.36359 0.84524 0.19891 1.76400
O 	O 	0.25290 0.87420 0.20550 -0.28900
O 	O 	0.29720 0.95930 0.22010 -0.27500
O 	O 	0.38230 0.86990 0.09810 -0.27500
O 	O 	0.45440 0.87230 0.16080 -0.28900
O 	O 	0.40320 0.75200 0.13320 -0.28000
O 	O 	0.34210 0.87970 0.29720 -0.28700
O 	O 	0.46420 0.76160 0.20500 -0.27900
O 	O 	0.31160 0.79090 0.27220 -0.27400
N 	N 	0.21370 0.84500 0.22860 -0.06000
N 	N 	0.23260 0.99740 0.22350 -0.06600
N 	N 	0.36690 0.84920 0.06040 -0.06800
N 	N 	0.46670 0.90710 0.11670 -0.06100
N 	N 	0.44730 0.69180 0.13760 -0.07400
C 	C 	0.23330 0.79180 0.19350 0.04700
C 	C 	0.15510 0.87100 0.28890 0.05800
C 	C 	0.23220 0.01730 0.17170 0.05800
C 	C 	0.17140 0.01390 0.27920 0.05800
C 	C 	0.29670 0.87950 0.07350 0.05800
C 	C 	0.42060 0.79790 0.01340 0.06300
C 	C 	0.42770 0.97450 0.13500 0.04600
C 	C 	0.51660 0.87730 0.05780 0.05900
C 	C 	0.41710 0.66170 0.17830 0.06300
C 	C 	0.52090 0.66500 0.10010 0.07100
H 	H 	0.27600 0.77380 0.15190 0.03400
C 	C 	0.19020 0.76310 0.21860 -0.09400
C 	C 	0.11320 0.84310 0.31450 -0.10100
H 	H 	0.14350 0.90800 0.31300 0.01800
H 	H 	0.27730 0.00560 0.13320 0.02900
C 	C 	0.16590 0.05500 0.17400 -0.10700
C 	C 	0.10250 0.05250 0.28380 -0.10400
H 	H 	0.17430 0.99970 0.31570 0.01700
H 	H 	0.25920 0.91510 0.10860 0.03200
C 	C 	0.27910 0.85930 0.03640 -0.10800
C 	C 	0.40360 0.77620 0.97540 -0.10700
H 	H 	0.46970 0.77640 0.00560 0.02200
H 	H 	0.39290 0.99560 0.17860 0.03400
C 	C 	0.44140 0.00920 0.08790 -0.09900
C 	C 	0.53240 0.91280 0.00780 -0.10000
H 	H 	0.54330 0.83140 0.04750 0.02000
H 	H 	0.36500 0.68000 0.20120 0.02800
C 	C 	0.46170 0.60410 0.18700 -0.11000
C 	C 	0.56660 0.60910 0.10730 -0.11100
H 	H 	0.54040 0.68610 0.06830 0.01300
H 	H 	0.20230 0.72680 0.19300 0.06200
C 	C 	0.12930 0.78700 0.28100 0.03300
H 	H 	0.07140 0.86190 0.35650 0.06100
H 	H 	0.16590 0.06980 0.13670 0.06700
C 	C 	0.09830 0.07240 0.22940 0.03900
H 	H 	0.05840 0.06530 0.32380 0.06300
H 	H 	0.22960 0.88290 0.04500 0.06600
C 	C 	0.33070 0.80570 0.98690 0.04700
H 	H 	0.44230 0.74040 0.94070 0.06700
H 	H 	0.41500 0.05500 0.09990 0.06300
C 	C 	0.49190 0.98060 0.02360 0.04200
H 	H 	0.56960 0.89060 0.96490 0.06300
H 	H 	0.43990 0.58230 0.21580 0.06800
C 	C 	0.53870 0.57600 0.15460 0.04000
H 	H 	0.61850 0.59090 0.08070 0.06700
C 	C 	0.08070 0.75810 0.30770 0.06000
C 	C 	0.02800 0.10570 0.23030 0.05100
C 	C 	0.31060 0.78180 0.95070 0.03500
C 	C 	0.58840 0.52050 0.17070 0.05500
C 	C 	0.10180 0.70010 0.28070 -0.12400
C 	C 	0.00990 0.79310 0.36300 -0.12100
C 	C 	0.01820 0.09010 0.18320 -0.12600
C 	C 	0.96120 0.15210 0.28600 -0.12000
C 	C 	0.24310 0.82230 0.95290 -0.10000
C 	C 	0.35710 0.71610 0.91030 -0.10500
C 	C 	0.65700 0.47580 0.12760 -0.11500
C 	C 	0.56710 0.51830 0.23410 -0.11600
C 	C 	0.05580 0.67570 0.30750 0.07300
H 	H 	0.14860 0.67580 0.24300 0.07200
H 	H 	0.99380 0.83470 0.38270 0.06800
C 	C 	0.96640 0.76950 0.38760 0.06200
C 	C 	0.95060 0.11760 0.19110 0.07900
H 	H 	0.05990 0.05960 0.14510 0.07200
H 	H 	0.96400 0.16530 0.32000 0.07000
C 	C 	0.89680 0.17630 0.29080 0.06800
C 	C 	0.22020 0.79910 0.92250 0.05500
H 	H 	0.21290 0.86600 0.97540 0.06200
H 	H 	0.40480 0.68720 0.90460 0.06600
C 	C 	0.33140 0.69840 0.88270 0.05800
C 	C 	0.70520 0.42650 0.14340 0.05600
H 	H 	0.67390 0.47770 0.08370 0.06800
H 	H 	0.51890 0.55030 0.26630 0.07000
C 	C 	0.61300 0.47160 0.25180 0.06500
N 	N 	0.98820 0.70940 0.35900 -0.06900
H 	H 	0.07240 0.63360 0.28890 0.01800
H 	H 	0.91940 0.79360 0.42530 0.02600
N 	N 	0.89100 0.15780 0.24390 -0.07300
H 	H 	0.94560 0.10770 0.15730 0.01200
H 	H 	0.85350 0.20740 0.32790 0.02900
N 	N 	0.26460 0.73700 0.88830 -0.06100
H 	H 	0.17360 0.82630 0.92550 0.01900
H 	H 	0.36150 0.65600 0.85720 0.03200
N 	N 	0.68280 0.42620 0.20570 -0.06200
H 	H 	0.75270 0.39390 0.11110 0.03200
H 	H 	0.59670 0.47050 0.29570 0.01600
O 	O 	0.94260 0.68650 0.38230 -0.27800
O 	O 	0.82290 0.18130 0.25280 -0.28300
O 	O 	0.23950 0.71600 0.86200 -0.28800
O 	O 	0.72740 0.38310 0.22380 -0.28300
Er	Er	0.85074 0.71492 0.35619 1.75800
Er	Er	0.74470 0.28060 0.23961 1.77000
O 	O 	0.88140 0.61280 0.37980 -0.28800
O 	O 	0.78060 0.73390 0.47050 -0.26700
O 	O 	0.79350 0.79040 0.30600 -0.27800
O 	O 	0.82180 0.81720 0.39570 -0.28000
O 	O 	0.74780 0.70980 0.38190 -0.29300
O 	O 	0.94840 0.71870 0.27030 -0.29000
O 	O 	0.88740 0.64950 0.26450 -0.27500
O 	O 	0.72010 0.20440 0.21830 -0.28200
O 	O 	0.77360 0.30980 0.30670 -0.28700
O 	O 	0.66690 0.27650 0.34220 -0.28900
O 	O 	0.62230 0.34530 0.25920 -0.27600
O 	O 	0.86550 0.26070 0.17340 -0.27800
N 	N 	0.91410 0.58380 0.41280 -0.06400
N 	N 	0.76330 0.78330 0.50980 -0.07500
N 	N 	0.74790 0.79070 0.28930 -0.06900
N 	N 	0.80650 0.86960 0.36970 -0.06700
N 	N 	0.70280 0.69930 0.43460 -0.05700
N 	N 	0.96670 0.71800 0.20860 -0.06400
N 	N 	0.73110 0.15000 0.24240 -0.06800
N 	N 	0.79320 0.35470 0.30040 -0.06600
N 	N 	0.67780 0.26750 0.39090 -0.05600
N 	N 	0.56340 0.34460 0.30500 -0.06700
N 	N 	0.10600 0.73280 0.88610 -0.06200
C 	C 	0.98860 0.54350 0.38250 0.07000
C 	C 	0.87370 0.59310 0.47680 0.05600
C 	C 	0.81220 0.77900 0.52470 0.06700
C 	C 	0.69680 0.83630 0.53240 0.07400
C 	C 	0.67610 0.82410 0.32830 0.06700
C 	C 	0.77580 0.75830 0.23120 0.05500
C 	C 	0.86260 0.87550 0.32310 0.05400
C 	C 	0.73710 0.91590 0.39200 0.06200
C 	C 	0.63650 0.75120 0.47930 0.05600
C 	C 	0.72270 0.63750 0.44220 0.04500
C 	C 	0.93030 0.77100 0.19200 0.05200
C 	C 	0.02240 0.66240 0.16490 0.06100
C 	C 	0.68080 0.15240 0.29980 0.05500
C 	C 	0.79490 0.09380 0.20460 0.06100
C 	C 	0.86400 0.33760 0.26400 0.05500
C 	C 	0.73910 0.41540 0.33230 0.05600
C 	C 	0.72070 0.20550 0.39620 0.03700
C 	C 	0.64370 0.31990 0.43630 0.05300
C 	C 	0.54960 0.30150 0.29410 0.05800
C 	C 	0.52430 0.38310 0.36210 0.05800
C 	C 	0.10840 0.67640 0.90190 0.05600
C 	C 	0.07380 0.78400 0.93260 0.05800
H 	H 	0.01760 0.53750 0.33740 0.01500
C 	C 	0.02050 0.51290 0.41530 -0.11800
C 	C 	0.90730 0.56100 0.51060 -0.10900
H 	H 	0.82160 0.62190 0.49850 0.03300
H 	H 	0.85850 0.74010 0.51000 0.02500
C 	C 	0.79440 0.83060 0.56070 -0.12000
C 	C 	0.68010 0.88740 0.56960 -0.12300
H 	H 	0.66190 0.83850 0.52280 0.01200
H 	H 	0.65690 0.84930 0.36790 0.01600
C 	C 	0.62820 0.82340 0.31330 -0.11200
C 	C 	0.73180 0.75540 0.21300 -0.10600
H 	H 	0.82760 0.73700 0.20210 0.03200
H 	H 	0.91210 0.84210 0.30910 0.03000
C 	C 	0.84990 0.92830 0.29560 -0.10800
C 	C 	0.71850 0.97150 0.36690 -0.10600
H 	H 	0.69890 0.91120 0.42620 0.01800
H 	H 	0.62440 0.79420 0.47380 0.01800
C 	C 	0.58860 0.74050 0.53120 -0.10600
C 	C 	0.67190 0.62760 0.49690 -0.10200
H 	H 	0.76920 0.60210 0.41170 0.03800
H 	H 	0.88750 0.80810 0.22360 0.03400
C 	C 	0.95570 0.77200 0.12700 -0.10600
C 	C 	0.04920 0.66060 0.10120 -0.11100
H 	H 	0.04330 0.62380 0.17910 0.02200
H 	H 	0.63640 0.19250 0.32400 0.03100
C 	C 	0.69200 0.09730 0.32490 -0.10500
C 	C 	0.80980 0.03770 0.22800 -0.10500
H 	H 	0.82880 0.09330 0.16260 0.01800
H 	H 	0.90070 0.29330 0.24490 0.03400
C 	C 	0.88500 0.38370 0.25340 -0.10400
C 	C 	0.75750 0.46490 0.32520 -0.10100
H 	H 	0.68940 0.42550 0.35910 0.01900
H 	H 	0.74700 0.16920 0.36300 0.03900
C 	C 	0.72390 0.19820 0.45280 -0.09600
C 	C 	0.64890 0.31300 0.49190 -0.10400
H 	H 	0.61590 0.36190 0.43060 0.02100
H 	H 	0.57810 0.27490 0.25290 0.03000
C 	C 	0.49210 0.29530 0.34440 -0.11400
C 	C 	0.46540 0.37800 0.41410 -0.10600
H 	H 	0.53550 0.41400 0.36830 0.01700
H 	H 	0.12920 0.64130 0.86950 0.03000
C 	C 	0.08150 0.67060 0.96310 -0.11100
C 	C 	0.04200 0.77930 0.99590 -0.10700
H 	H 	0.07320 0.82280 0.92150 0.01500
H 	H 	0.07290 0.48680 0.39320 0.06900
C 	C 	0.98120 0.51690 0.48100 0.04900
H 	H 	0.87850 0.56970 0.55590 0.06700
H 	H 	0.82940 0.82730 0.57070 0.07100
C 	C 	0.72780 0.88830 0.58400 0.05800
H 	H 	0.63220 0.92480 0.58660 0.07000
H 	H 	0.57660 0.84810 0.34300 0.06600
C 	C 	0.65260 0.78800 0.25620 0.04200
H 	H 	0.75300 0.73200 0.17180 0.06600
H 	H 	0.89040 0.93070 0.26200 0.06700
C 	C 	0.77790 0.97860 0.31640 0.04200
H 	H 	0.66820 0.00390 0.38240 0.06400
H 	H 	0.54240 0.77630 0.56150 0.06600
C 	C 	0.60590 0.67710 0.54130 0.04100
H 	H 	0.68470 0.58460 0.50280 0.06500
H 	H 	0.93150 0.81060 0.11440 0.06500
C 	C 	0.01570 0.71700 0.08090 0.04300
H 	H 	0.09000 0.62170 0.07090 0.06700
H 	H 	0.65540 0.09960 0.36620 0.06400
C 	C 	0.75890 0.03680 0.28870 0.04000
H 	H 	0.85540 0.99880 0.20250 0.06400
H 	H 	0.93510 0.37160 0.22490 0.06600
C 	C 	0.83130 0.44800 0.28510 0.03900
H 	H 	0.72020 0.50830 0.34730 0.06400
H 	H 	0.75080 0.15610 0.45900 0.06300
C 	C 	0.68810 0.25210 0.49950 0.03800
H 	H 	0.62570 0.34990 0.52340 0.06300
H 	H 	0.48170 0.26470 0.33600 0.06900
C 	C 	0.45150 0.33090 0.40350 0.05000
H 	H 	0.43640 0.40590 0.45480 0.06600
H 	H 	0.08770 0.62990 0.97310 0.06700
C 	C 	0.04520 0.72190 0.01220 0.04600
H 	H 	0.01790 0.81550 0.02850 0.06400
C 	C 	0.70810 0.94860 0.61900 0.03900
C 	C 	0.60350 0.78270 0.24150 0.04100
C 	C 	0.84800 0.50020 0.27680 0.05100
C 	C 	0.68970 0.24210 0.56060 0.05500
C 	C 	0.64050 0.98860 0.67090 -0.10700
C 	C 	0.76150 0.96770 0.59700 -0.10800
C 	C 	0.62410 0.76200 0.17850 -0.10400
C 	C 	0.53530 0.79500 0.29030 -0.10000
C 	C 	0.91440 0.48990 0.26550 -0.11200
C 	C 	0.79680 0.56160 0.28110 -0.11000
C 	C 	0.63130 0.28400 0.61580 -0.11400
C 	C 	0.74960 0.18980 0.56220 -0.12300
C 	C 	0.62420 0.04420 0.69990 0.05200
H 	H 	0.60370 0.97700 0.68720 0.06600
H 	H 	0.81010 0.93980 0.56250 0.06600
C 	C 	0.74540 0.02340 0.62330 0.05600
C 	C 	0.57460 0.75930 0.16690 0.05900
H 	H 	0.67230 0.74980 0.14410 0.06500
H 	H 	0.52020 0.80950 0.33300 0.06500
C 	C 	0.48820 0.78680 0.27880 0.04600
C 	C 	0.92960 0.53960 0.25880 0.06300
H 	H 	0.95120 0.44740 0.26220 0.06900
H 	H 	0.75110 0.56990 0.28700 0.07000
C 	C 	0.80970 0.61240 0.27720 0.05500
C 	C 	0.63220 0.27060 0.67380 0.05400
H 	H 	0.59070 0.32140 0.61630 0.06700
H 	H 	0.79170 0.16050 0.52350 0.06900
C 	C 	0.74880 0.18020 0.61740 0.07300
N 	N 	0.67560 0.06270 0.67560 -0.06300
H 	H 	0.57730 0.07030 0.73700 0.03200
H 	H 	0.78120 0.03620 0.60660 0.01800
N 	N 	0.50950 0.76910 0.21640 -0.06200
H 	H 	0.58610 0.75060 0.12420 0.02200
H 	H 	0.44240 0.79330 0.31310 0.03800
N 	N 	0.87680 0.59970 0.26600 -0.06700
H 	H 	0.97680 0.53090 0.24930 0.02000
H 	H 	0.77240 0.65530 0.28220 0.03500
N 	N 	0.68980 0.21940 0.67280 -0.06800
H 	H 	0.59110 0.29880 0.71340 0.03300
H 	H 	0.79080 0.14490 0.61720 0.01400
Er	Er	0.63641 0.15476 0.80109 1.76300
O 	O 	0.74710 0.12580 0.79450 -0.29000
O 	O 	0.70280 0.04070 0.77990 -0.27600
O 	O 	0.61770 0.13010 0.90190 -0.27600
O 	O 	0.54560 0.12770 0.83920 -0.29000
O 	O 	0.59680 0.24800 0.86680 -0.28100
O 	O 	0.65790 0.12030 0.70280 -0.28800
O 	O 	0.53580 0.23840 0.79500 -0.28000
O 	O 	0.68840 0.20910 0.72780 -0.27500
N 	N 	0.78630 0.15500 0.77140 -0.06100
N 	N 	0.76740 0.00260 0.77650 -0.06700
N 	N 	0.63310 0.15080 0.93960 -0.06900
N 	N 	0.53330 0.09290 0.88330 -0.06100
N 	N 	0.55270 0.30820 0.86240 -0.07400
C 	C 	0.76670 0.20820 0.80650 0.04700
C 	C 	0.84490 0.12900 0.71110 0.05800
C 	C 	0.76780 0.98270 0.82830 0.05800
C 	C 	0.82860 0.98610 0.72080 0.05800
C 	C 	0.70330 0.12050 0.92650 0.05800
C 	C 	0.57940 0.20210 0.98660 0.06300
C 	C 	0.57230 0.02550 0.86500 0.04600
C 	C 	0.48340 0.12270 0.94220 0.05900
C 	C 	0.58290 0.33830 0.82170 0.06300
C 	C 	0.47910 0.33500 0.89990 0.07100
H 	H 	0.72400 0.22620 0.84810 0.03400
C 	C 	0.80980 0.23690 0.78140 -0.09400
C 	C 	0.88680 0.15690 0.68550 -0.10100
H 	H 	0.85650 0.09200 0.68700 0.01800
H 	H 	0.72270 0.99440 0.86680 0.02900
C 	C 	0.83410 0.94500 0.82600 -0.10700
C 	C 	0.89750 0.94750 0.71620 -0.10400
H 	H 	0.82570 0.00030 0.68430 0.01700
H 	H 	0.74080 0.08490 0.89140 0.03200
C 	C 	0.72090 0.14070 0.96360 -0.10800
C 	C 	0.59640 0.22380 0.02460 -0.10700
H 	H 	0.53030 0.22360 0.99440 0.02200
H 	H 	0.60710 0.00440 0.82140 0.03400
C 	C 	0.55860 0.99080 0.91210 -0.09900
C 	C 	0.46760 0.08720 0.99220 -0.10000
H 	H 	0.45670 0.16860 0.95250 0.02000
H 	H 	0.63500 0.32000 0.79880 0.02800
C 	C 	0.53830 0.39590 0.81300 -0.11000
C 	C 	0.43340 0.39090 0.89270 -0.11100
H 	H 	0.45960 0.31390 0.93170 0.01300
H 	H 	0.79770 0.27320 0.80700 0.06200
C 	C 	0.87070 0.21300 0.71900 0.03300
H 	H 	0.92860 0.13810 0.64350 0.06100
H 	H 	0.83410 0.93020 0.86330 0.06700
C 	C 	0.90170 0.92760 0.77060 0.03900
H 	H 	0.94160 0.93470 0.67620 0.06300
H 	H 	0.77040 0.11710 0.95500 0.06600
C 	C 	0.66930 0.19430 0.01310 0.04700
H 	H 	0.55770 0.25960 0.05930 0.06700
H 	H 	0.58500 0.94500 0.90010 0.06300
C 	C 	0.50810 0.01940 0.97640 0.04200
H 	H 	0.43040 0.10940 0.03510 0.06300
H 	H 	0.56010 0.41770 0.78420 0.06800
C 	C 	0.46130 0.42400 0.84540 0.04000
H 	H 	0.38150 0.40910 0.91930 0.06700
C 	C 	0.91930 0.24190 0.69230 0.06000
C 	C 	0.97200 0.89430 0.76970 0.05100
C 	C 	0.68940 0.21820 0.04930 0.03500
C 	C 	0.41160 0.47950 0.82930 0.05500
C 	C 	0.89820 0.29990 0.71930 -0.12400
C 	C 	0.99010 0.20690 0.63700 -0.12100
C 	C 	0.98180 0.90990 0.81680 -0.12600
C 	C 	0.03880 0.84790 0.71400 -0.12000
C 	C 	0.75690 0.17770 0.04710 -0.10000
C 	C 	0.64290 0.28390 0.08970 -0.10500
C 	C 	0.34300 0.52420 0.87240 -0.11500
C 	C 	0.43290 0.48170 0.76590 -0.11600
C 	C 	0.94420 0.32430 0.69250 0.07300
H 	H 	0.85140 0.32420 0.75700 0.07200
H 	H 	0.00620 0.16530 0.61730 0.06800
C 	C 	0.03360 0.23050 0.61240 0.06200
C 	C 	0.04940 0.88240 0.80890 0.07900
H 	H 	0.94010 0.94040 0.85490 0.07200
H 	H 	0.03600 0.83470 0.68000 0.07000
C 	C 	0.10320 0.82370 0.70920 0.06800
C 	C 	0.77980 0.20090 0.07750 0.05500
H 	H 	0.78710 0.13400 0.02460 0.06200
H 	H 	0.59520 0.31280 0.09540 0.06600
C 	C 	0.66860 0.30160 0.11730 0.05800
C 	C 	0.29480 0.57350 0.85660 0.05600
H 	H 	0.32610 0.52230 0.91630 0.06800
H 	H 	0.48110 0.44970 0.73370 0.07000
C 	C 	0.38700 0.52840 0.74820 0.06500
N 	N 	0.01180 0.29060 0.64100 -0.06900
H 	H 	0.92760 0.36640 0.71110 0.01800
H 	H 	0.08060 0.20640 0.57470 0.02600
N 	N 	0.10900 0.84220 0.75610 -0.07300
H 	H 	0.05440 0.89230 0.84270 0.01200
H 	H 	0.14650 0.79260 0.67210 0.02900
N 	N 	0.73540 0.26300 0.11170 -0.06100
H 	H 	0.82640 0.17370 0.07450 0.01900
H 	H 	0.63850 0.34400 0.14280 0.03200
N 	N 	0.31720 0.57380 0.79430 -0.06200
H 	H 	0.24730 0.60610 0.88890 0.03200
H 	H 	0.40330 0.52950 0.70430 0.01600
O 	O 	0.05740 0.31350 0.61770 -0.27800
O 	O 	0.17710 0.81870 0.74720 -0.28300
O 	O 	0.76050 0.28400 0.13800 -0.28800
O 	O 	0.27260 0.61690 0.77620 -0.28300
Er	Er	0.14926 0.28508 0.64381 1.75800
Er	Er	0.25530 0.71940 0.76039 1.77000
O 	O 	0.11860 0.38720 0.62020 -0.28800
O 	O 	0.21940 0.26610 0.52950 -0.26700
O 	O 	0.20650 0.20960 0.69400 -0.27800
O 	O 	0.17820 0.18280 0.60430 -0.28000
O 	O 	0.25220 0.29020 0.61810 -0.29300
O 	O 	0.05160 0.28130 0.72970 -0.29000
O 	O 	0.11260 0.35050 0.73550 -0.27500
O 	O 	0.27990 0.79560 0.78170 -0.28200
O 	O 	0.22640 0.69020 0.69330 -0.28700
O 	O 	0.33310 0.72350 0.65780 -0.28900
O 	O 	0.37770 0.65470 0.74080 -0.27600
O 	O 	0.13450 0.73930 0.82660 -0.27800
N 	N 	0.08590 0.41620 0.58720 -0.06400
N 	N 	0.23670 0.21670 0.49020 -0.07500
N 	N 	0.25210 0.20930 0.71070 -0.06900
N 	N 	0.19350 0.13040 0.63030 -0.06700
N 	N 	0.29720 0.30070 0.56540 -0.05700
N 	N 	0.03330 0.28200 0.79140 -0.06400
N 	N 	0.26890 0.85000 0.75760 -0.06800
N 	N 	0.20680 0.64530 0.69960 -0.06600
N 	N 	0.32220 0.73250 0.60910 -0.05600
N 	N 	0.43660 0.65540 0.69500 -0.06700
N 	N 	0.89400 0.26720 0.11390 -0.06200
C 	C 	0.01140 0.45650 0.61750 0.07000
C 	C 	0.12630 0.40690 0.52320 0.05600
C 	C 	0.18780 0.22100 0.47530 0.06700
C 	C 	0.30320 0.16370 0.46760 0.07400
C 	C 	0.32390 0.17590 0.67170 0.06700
C 	C 	0.22420 0.24170 0.76880 0.05500
C 	C 	0.13740 0.12450 0.67690 0.05400
C 	C 	0.26290 0.08410 0.60800 0.06200
C 	C 	0.36350 0.24880 0.52070 0.05600
C 	C 	0.27730 0.36250 0.55780 0.04500
C 	C 	0.06970 0.22900 0.80800 0.05200
C 	C 	0.97760 0.33760 0.83510 0.06100
C 	C 	0.31920 0.84760 0.70020 0.05500
C 	C 	0.20510 0.90620 0.79540 0.06100
C 	C 	0.13600 0.66240 0.73600 0.05500
C 	C 	0.26090 0.58460 0.66770 0.05600
C 	C 	0.27930 0.79450 0.60380 0.03700
C 	C 	0.35630 0.68010 0.56370 0.05300
C 	C 	0.45040 0.69850 0.70590 0.05800
C 	C 	0.47570 0.61690 0.63790 0.05800
C 	C 	0.89160 0.32360 0.09810 0.05600
C 	C 	0.92620 0.21600 0.06740 0.05800
H 	H 	0.98240 0.46250 0.66260 0.01500
C 	C 	0.97950 0.48710 0.58470 -0.11800
C 	C 	0.09270 0.43900 0.48940 -0.10900
H 	H 	0.17840 0.37810 0.50150 0.03300
H 	H 	0.14150 0.25990 0.49000 0.02500
C 	C 	0.20560 0.16940 0.43930 -0.12000
C 	C 	0.31990 0.11260 0.43040 -0.12300
H 	H 	0.33810 0.16150 0.47720 0.01200
H 	H 	0.34310 0.15070 0.63210 0.01600
C 	C 	0.37180 0.17660 0.68670 -0.11200
C 	C 	0.26820 0.24460 0.78700 -0.10600
H 	H 	0.17240 0.26300 0.79790 0.03200
H 	H 	0.08790 0.15790 0.69090 0.03000
C 	C 	0.15010 0.07170 0.70440 -0.10800
C 	C 	0.28150 0.02850 0.63310 -0.10600
H 	H 	0.30110 0.08880 0.57380 0.01800
H 	H 	0.37560 0.20580 0.52620 0.01800
C 	C 	0.41140 0.25950 0.46880 -0.10600
C 	C 	0.32810 0.37240 0.50310 -0.10200
H 	H 	0.23080 0.39790 0.58830 0.03800
H 	H 	0.11250 0.19190 0.77640 0.03400
C 	C 	0.04430 0.22800 0.87300 -0.10600
C 	C 	0.95080 0.33940 0.89880 -0.11100
H 	H 	0.95670 0.37620 0.82090 0.02200
H 	H 	0.36360 0.80750 0.67600 0.03100
C 	C 	0.30800 0.90270 0.67510 -0.10500
C 	C 	0.19020 0.96230 0.77200 -0.10500
H 	H 	0.17120 0.90670 0.83740 0.01800
H 	H 	0.09930 0.70670 0.75510 0.03400
C 	C 	0.11500 0.61630 0.74660 -0.10400
C 	C 	0.24250 0.53510 0.67480 -0.10100
H 	H 	0.31060 0.57450 0.64090 0.01900
H 	H 	0.25300 0.83080 0.63700 0.03900
C 	C 	0.27610 0.80180 0.54720 -0.09600
C 	C 	0.35110 0.68700 0.50810 -0.10400
H 	H 	0.38410 0.63810 0.56940 0.02100
H 	H 	0.42190 0.72510 0.74710 0.03000
C 	C 	0.50790 0.70470 0.65560 -0.11400
C 	C 	0.53460 0.62200 0.58590 -0.10600
H 	H 	0.46450 0.58600 0.63170 0.01700
H 	H 	0.87080 0.35870 0.13050 0.03000
C 	C 	0.91850 0.32940 0.03690 -0.11100
C 	C 	0.95800 0.22070 0.00410 -0.10700
H 	H 	0.92680 0.17720 0.07850 0.01500
H 	H 	0.92710 0.51320 0.60680 0.06900
C 	C 	0.01880 0.48310 0.51900 0.04900
H 	H 	0.12150 0.43030 0.44410 0.06700
H 	H 	0.17060 0.17270 0.42930 0.07100
C 	C 	0.27220 0.11170 0.41600 0.05800
H 	H 	0.36780 0.07520 0.41340 0.07000
H 	H 	0.42340 0.15190 0.65700 0.06600
C 	C 	0.34740 0.21200 0.74380 0.04200
H 	H 	0.24700 0.26800 0.82820 0.06600
H 	H 	0.10960 0.06930 0.73800 0.06700
C 	C 	0.22210 0.02140 0.68360 0.04200
H 	H 	0.33180 0.99610 0.61760 0.06400
H 	H 	0.45760 0.22370 0.43850 0.06600
C 	C 	0.39410 0.32290 0.45870 0.04100
H 	H 	0.31530 0.41540 0.49720 0.06500
H 	H 	0.06850 0.18940 0.88560 0.06500
C 	C 	0.98430 0.28300 0.91910 0.04300
H 	H 	0.91000 0.37830 0.92910 0.06700
H 	H 	0.34460 0.90040 0.63380 0.06400
C 	C 	0.24110 0.96320 0.71130 0.04000
H 	H 	0.14460 0.00120 0.79750 0.06400
H 	H 	0.06490 0.62840 0.77510 0.06600
C 	C 	0.16870 0.55200 0.71490 0.03900
H 	H 	0.27980 0.49170 0.65270 0.06400
H 	H 	0.24920 0.84390 0.54100 0.06300
C 	C 	0.31190 0.74790 0.50050 0.03800
H 	H 	0.37430 0.65010 0.47660 0.06300
H 	H 	0.51830 0.73530 0.66400 0.06900
C 	C 	0.54850 0.66910 0.59650 0.05000
H 	H 	0.56360 0.59410 0.54520 0.06600
H 	H 	0.91230 0.37010 0.02690 0.06700
C 	C 	0.95480 0.27810 0.98780 0.04600
H 	H 	0.98210 0.18450 0.97150 0.06400
C 	C 	0.29190 0.05140 0.38100 0.03900
C 	C 	0.39650 0.21730 0.75850 0.04100
C 	C 	0.15200 0.49980 0.72320 0.05100
C 	C 	0.31030 0.75790 0.43940 0.05500
C 	C 	0.35950 0.01140 0.32910 -0.10700
C 	C 	0.23850 0.03230 0.40300 -0.10800
C 	C 	0.37590 0.23800 0.82150 -0.10400
C 	C 	0.46470 0.20500 0.70970 -0.10000
C 	C 	0.08560 0.51010 0.73450 -0.11200
C 	C 	0.20320 0.43840 0.71890 -0.11000
C 	C 	0.36870 0.71600 0.38420 -0.11400
C 	C 	0.25040 0.81020 0.43780 -0.12300
C 	C 	0.37580 0.95580 0.30010 0.05200
H 	H 	0.39630 0.02300 0.31280 0.06600
H 	H 	0.18990 0.06020 0.43750 0.06600
C 	C 	0.25460 0.97660 0.37670 0.05600
C 	C 	0.42540 0.24070 0.83310 0.05900
H 	H 	0.32770 0.25020 0.85590 0.06500
H 	H 	0.47980 0.19050 0.66700 0.06500
C 	C 	0.51180 0.21320 0.72120 0.04600
C 	C 	0.07040 0.46040 0.74120 0.06300
H 	H 	0.04880 0.55260 0.73780 0.06900
H 	H 	0.24890 0.43010 0.71300 0.07000
C 	C 	0.19030 0.38760 0.72280 0.05500
C 	C 	0.36780 0.72940 0.32620 0.05400
H 	H 	0.40930 0.67860 0.38370 0.06700
H 	H 	0.20830 0.83950 0.47650 0.06900
C 	C 	0.25120 0.81980 0.38260 0.07300
N 	N 	0.32440 0.93730 0.32440 -0.06300
H 	H 	0.42270 0.92970 0.26300 0.03200
H 	H 	0.21880 0.96380 0.39340 0.01800
N 	N 	0.49050 0.23090 0.78360 -0.06200
H 	H 	0.41390 0.24940 0.87580 0.02200
H 	H 	0.55760 0.20670 0.68690 0.03800
N 	N 	0.12320 0.40030 0.73400 -0.06700
H 	H 	0.02320 0.46910 0.75070 0.02000
H 	H 	0.22760 0.34470 0.71780 0.03500
N 	N 	0.31020 0.78060 0.32720 -0.06800
H 	H 	0.40890 0.70120 0.28660 0.03300
H 	H 	0.20920 0.85510 0.38280 0.01400
