data_crystal

_cell_length_a 24.02400
_cell_length_b 24.18760
_cell_length_c 24.39900
_cell_angle_alpha 84.06700
_cell_angle_beta  61.94300
_cell_angle_gamma 61.65100

_symmetry_space_group_name_	'P 1'
_symmetry_space_group_name_H-M	'P 1'

loop_
_symmetry_equiv_pos_as_xyz
  x,y,z

loop_
_atom_site_label
_atom_site_type_symbol
_atom_site_fract_x
_atom_site_fract_y
_atom_site_fract_z
_atom_site_charge
Dy	Dy	0.35131 0.85629 0.20968 1.85400
O 	O 	0.24530 0.88000 0.21050 -0.30200
O 	O 	0.28380 0.96900 0.22810 -0.28500
O 	O 	0.37020 0.88220 0.10790 -0.28400
O 	O 	0.43940 0.88680 0.17490 -0.30200
O 	O 	0.39000 0.76320 0.14560 -0.28000
O 	O 	0.33010 0.89130 0.30630 -0.30500
O 	O 	0.45300 0.77170 0.21450 -0.28600
O 	O 	0.30130 0.79800 0.28350 -0.27900
N 	N 	0.20650 0.85030 0.23930 -0.06200
N 	N 	0.22170 0.00580 0.23030 -0.06400
N 	N 	0.35430 0.86210 0.07110 -0.06500
N 	N 	0.45720 0.91790 0.12590 -0.06900
N 	N 	0.43860 0.70280 0.14590 -0.07400
C 	C 	0.22400 0.79660 0.20630 0.05400
C 	C 	0.14430 0.87620 0.29460 0.06100
C 	C 	0.22050 0.02300 0.17790 0.05600
C 	C 	0.16230 0.02360 0.28170 0.05300
C 	C 	0.28910 0.88720 0.08060 0.05800
C 	C 	0.41020 0.81510 0.02250 0.05100
C 	C 	0.41730 0.98100 0.14030 0.05000
C 	C 	0.50980 0.88630 0.07380 0.06400
C 	C 	0.40890 0.67200 0.19280 0.05300
C 	C 	0.50790 0.68010 0.10960 0.08200
H 	H 	0.26480 0.77960 0.16560 0.03200
C 	C 	0.18270 0.76810 0.23240 -0.10600
C 	C 	0.10740 0.84580 0.32090 -0.10600
H 	H 	0.12720 0.91690 0.31460 0.01700
H 	H 	0.26460 0.01090 0.14010 0.02900
C 	C 	0.15660 0.05780 0.17670 -0.10500
C 	C 	0.09160 0.06050 0.28470 -0.10300
H 	H 	0.16420 0.01240 0.31950 0.01900
H 	H 	0.25170 0.92150 0.11400 0.03100
C 	C 	0.27180 0.86560 0.04370 -0.10100
C 	C 	0.39630 0.79190 0.98090 -0.09600
H 	H 	0.45790 0.79770 0.01600 0.02500
H 	H 	0.38140 0.00200 0.18200 0.03300
C 	C 	0.43300 0.01540 0.08660 -0.09800
C 	C 	0.53100 0.91710 0.01800 -0.10300
H 	H 	0.53700 0.84150 0.07030 0.01700
H 	H 	0.35820 0.69060 0.21900 0.03200
C 	C 	0.45650 0.61210 0.20030 -0.11400
C 	C 	0.55380 0.62360 0.11460 -0.12400
H 	H 	0.52550 0.70400 0.07950 0.00900
H 	H 	0.19710 0.73050 0.20870 0.06600
C 	C 	0.12440 0.78770 0.28770 0.04200
H 	H 	0.06860 0.86170 0.36270 0.06300
H 	H 	0.15770 0.07020 0.13810 0.06500
C 	C 	0.08860 0.07630 0.23140 0.03600
H 	H 	0.04860 0.07300 0.32370 0.06300
H 	H 	0.22290 0.88430 0.05270 0.06200
C 	C 	0.32540 0.81650 0.99350 0.03100
H 	H 	0.43490 0.76030 0.94540 0.06200
H 	H 	0.40420 0.06030 0.09320 0.06300
C 	C 	0.48710 0.98530 0.02840 0.04300
H 	H 	0.56970 0.89370 0.97800 0.06400
H 	H 	0.43850 0.58790 0.22950 0.07000
C 	C 	0.52680 0.59090 0.16530 0.05500
H 	H 	0.60380 0.60470 0.08540 0.07100
C 	C 	0.07500 0.76040 0.31900 0.04800
C 	C 	0.01940 0.11030 0.23250 0.06000
C 	C 	0.30480 0.79020 0.95820 0.07100
C 	C 	0.58060 0.53400 0.17690 0.04100
C 	C 	0.09800 0.70010 0.28760 -0.10100
C 	C 	0.01110 0.78810 0.36790 -0.11500
C 	C 	0.00990 0.09220 0.18730 -0.12300
C 	C 	0.96120 0.15500 0.27890 -0.12200
C 	C 	0.24060 0.82420 0.96190 -0.13000
C 	C 	0.34710 0.73320 0.92640 -0.11500
C 	C 	0.64450 0.49150 0.12880 -0.10200
C 	C 	0.56450 0.52250 0.23820 -0.10400
C 	C 	0.04720 0.67580 0.31720 0.05800
H 	H 	0.14290 0.67800 0.25040 0.06400
H 	H 	0.99660 0.82820 0.38710 0.06600
C 	C 	0.96310 0.76660 0.39460 0.06000
C 	C 	0.94050 0.11680 0.19480 0.07100
H 	H 	0.05060 0.06280 0.15090 0.07100
H 	H 	0.96500 0.17130 0.31000 0.07200
C 	C 	0.89280 0.17890 0.28270 0.06000
C 	C 	0.22020 0.79910 0.93050 0.07300
H 	H 	0.20860 0.86560 0.98580 0.07100
H 	H 	0.39190 0.70950 0.92650 0.06900
C 	C 	0.33270 0.70260 0.89120 0.04700
C 	C 	0.69480 0.43850 0.13870 0.04400
H 	H 	0.65490 0.49850 0.08680 0.06400
H 	H 	0.51820 0.54870 0.27250 0.06500
C 	C 	0.61870 0.47070 0.24850 0.05600
N 	N 	0.98260 0.71060 0.36640 -0.06500
H 	H 	0.06020 0.63480 0.30130 0.02300
H 	H 	0.91810 0.78970 0.43130 0.02700
N 	N 	0.88470 0.15970 0.24100 -0.06800
H 	H 	0.93470 0.10130 0.16480 0.01500
H 	H 	0.85140 0.21030 0.31730 0.03200
N 	N 	0.26260 0.74200 0.89670 -0.06400
H 	H 	0.17380 0.82410 0.93360 0.01200
H 	H 	0.36570 0.66120 0.86720 0.03400
N 	N 	0.67920 0.42950 0.20030 -0.05700
H 	H 	0.73880 0.40910 0.10440 0.03300
H 	H 	0.61140 0.46570 0.29010 0.01800
O 	O 	0.93790 0.68680 0.38750 -0.28700
O 	O 	0.82000 0.18360 0.24530 -0.31100
O 	O 	0.24130 0.71510 0.87120 -0.29300
O 	O 	0.72550 0.38200 0.21400 -0.30100
Dy	Dy	0.84516 0.71722 0.36043 1.88800
Dy	Dy	0.74278 0.27976 0.23153 1.87800
O 	O 	0.87090 0.61430 0.38430 -0.29900
O 	O 	0.78030 0.73180 0.47360 -0.27500
O 	O 	0.79260 0.79400 0.30710 -0.28900
O 	O 	0.82400 0.81250 0.39650 -0.31300
O 	O 	0.73600 0.72060 0.39080 -0.30300
O 	O 	0.94210 0.72060 0.27520 -0.30700
O 	O 	0.87120 0.65680 0.27410 -0.29500
O 	O 	0.71750 0.20250 0.21280 -0.29000
O 	O 	0.76870 0.30950 0.30180 -0.29200
O 	O 	0.66480 0.27420 0.33310 -0.29700
O 	O 	0.62330 0.33810 0.24620 -0.28600
O 	O 	0.86140 0.26460 0.16830 -0.28900
N 	N 	0.90690 0.58300 0.41790 -0.07600
N 	N 	0.76020 0.78170 0.51320 -0.08800
N 	N 	0.74660 0.79390 0.28960 -0.06900
N 	N 	0.80690 0.86870 0.36760 -0.07800
N 	N 	0.68650 0.71490 0.44400 -0.05500
N 	N 	0.96360 0.71940 0.21430 -0.06000
N 	N 	0.73020 0.14790 0.23520 -0.06700
N 	N 	0.78340 0.36000 0.29660 -0.08600
N 	N 	0.67500 0.26330 0.38420 -0.06200
N 	N 	0.56370 0.33810 0.29800 -0.07200
N 	N 	0.10760 0.73320 0.89100 -0.04900
C 	C 	0.97500 0.54580 0.38400 0.06500
C 	C 	0.87270 0.59090 0.47980 0.06300
C 	C 	0.81090 0.77630 0.52870 0.07800
C 	C 	0.70340 0.83090 0.52740 0.10500
C 	C 	0.67680 0.83310 0.32880 0.04900
C 	C 	0.77020 0.76280 0.23580 0.06100
C 	C 	0.86410 0.87430 0.31930 0.05600
C 	C 	0.74060 0.91190 0.39020 0.08900
C 	C 	0.62710 0.76370 0.48340 0.05600
C 	C 	0.70810 0.64900 0.45570 0.03500
C 	C 	0.93380 0.77170 0.19200 0.05600
C 	C 	0.01500 0.66610 0.17420 0.05600
C 	C 	0.68260 0.14730 0.29430 0.05900
C 	C 	0.79030 0.09620 0.20170 0.06600
C 	C 	0.85090 0.34570 0.26010 0.06800
C 	C 	0.73480 0.41340 0.32860 0.08400
C 	C 	0.72030 0.20560 0.38750 0.03900
C 	C 	0.63000 0.31130 0.43310 0.05400
C 	C 	0.55350 0.28870 0.28440 0.04900
C 	C 	0.52050 0.38040 0.35070 0.08500
C 	C 	0.11810 0.67340 0.90150 0.03000
C 	C 	0.07260 0.78760 0.93460 0.03700
H 	H 	0.99820 0.53980 0.33980 0.01500
C 	C 	0.01430 0.51270 0.41990 -0.10900
C 	C 	0.91180 0.55600 0.51180 -0.12000
H 	H 	0.82240 0.61980 0.50270 0.03000
H 	H 	0.85430 0.73730 0.51720 0.02000
C 	C 	0.79780 0.82560 0.55930 -0.13000
C 	C 	0.68460 0.88040 0.56480 -0.13800
H 	H 	0.67250 0.83400 0.51200 0.00100
H 	H 	0.66270 0.86080 0.36330 0.02300
C 	C 	0.62110 0.83210 0.31650 -0.09300
C 	C 	0.72450 0.76160 0.21810 -0.10800
H 	H 	0.82070 0.74030 0.20810 0.03100
H 	H 	0.91210 0.84060 0.30470 0.02900
C 	C 	0.85080 0.92900 0.29290 -0.10800
C 	C 	0.72660 0.96420 0.36420 -0.12400
H 	H 	0.70320 0.90650 0.42420 0.00700
H 	H 	0.61760 0.80550 0.47470 0.01800
C 	C 	0.57840 0.75500 0.53720 -0.09800
C 	C 	0.66020 0.63980 0.50910 -0.09000
H 	H 	0.75320 0.61460 0.42740 0.04000
H 	H 	0.89480 0.80950 0.22050 0.03100
C 	C 	0.95840 0.77180 0.12880 -0.11400
C 	C 	0.04470 0.66510 0.10840 -0.11000
H 	H 	0.03320 0.62760 0.19000 0.02100
H 	H 	0.63940 0.18520 0.31900 0.02900
C 	C 	0.69790 0.09240 0.31690 -0.11700
C 	C 	0.80770 0.03690 0.22310 -0.11100
H 	H 	0.82350 0.09860 0.16130 0.01700
H 	H 	0.88620 0.30350 0.23890 0.03000
C 	C 	0.87080 0.39280 0.25260 -0.11400
C 	C 	0.74970 0.46400 0.32500 -0.12400
H 	H 	0.68730 0.42010 0.35570 0.01000
H 	H 	0.74630 0.17220 0.35350 0.03800
C 	C 	0.73080 0.19240 0.44320 -0.09200
C 	C 	0.64010 0.30460 0.48580 -0.10100
H 	H 	0.59270 0.34940 0.43150 0.02200
H 	H 	0.58100 0.26340 0.24420 0.03400
C 	C 	0.49760 0.28060 0.33740 -0.10900
C 	C 	0.47200 0.37030 0.39650 -0.13600
H 	H 	0.52530 0.41650 0.35420 0.00600
H 	H 	0.14400 0.63780 0.86980 0.04000
C 	C 	0.08080 0.67270 0.97380 -0.07800
C 	C 	0.04260 0.78020 0.99730 -0.08500
H 	H 	0.06970 0.82700 0.92190 0.02000
H 	H 	0.06530 0.48720 0.39780 0.06500
C 	C 	0.97830 0.51840 0.48370 0.05900
H 	H 	0.88660 0.56120 0.55640 0.06900
H 	H 	0.83420 0.82260 0.56730 0.07400
C 	C 	0.73430 0.88170 0.58050 0.05900
H 	H 	0.63710 0.91540 0.58120 0.07400
H 	H 	0.57090 0.85420 0.34540 0.06000
C 	C 	0.64970 0.79540 0.25820 0.03700
H 	H 	0.74320 0.73800 0.17900 0.06700
H 	H 	0.88920 0.93570 0.26260 0.06700
C 	C 	0.77720 0.97570 0.31230 0.04600
H 	H 	0.67780 0.99700 0.38250 0.06900
H 	H 	0.53450 0.79070 0.56510 0.06200
C 	C 	0.59340 0.69130 0.55180 0.02600
H 	H 	0.67180 0.59780 0.51810 0.06100
H 	H 	0.93670 0.81050 0.11480 0.06800
C 	C 	0.01270 0.71920 0.08490 0.05300
H 	H 	0.08600 0.62780 0.08050 0.06700
H 	H 	0.66300 0.09220 0.35740 0.06700
C 	C 	0.75850 0.03800 0.28670 0.04900
H 	H 	0.84930 0.99870 0.19710 0.06600
H 	H 	0.91870 0.38430 0.22390 0.06800
C 	C 	0.81780 0.45320 0.28870 0.05100
H 	H 	0.71210 0.50510 0.34780 0.06900
H 	H 	0.76430 0.15200 0.44620 0.06100
C 	C 	0.68710 0.24480 0.49180 0.03200
H 	H 	0.61510 0.34020 0.51720 0.06200
H 	H 	0.48780 0.24780 0.33400 0.06900
C 	C 	0.45840 0.32190 0.39340 0.06300
H 	H 	0.44360 0.39830 0.43510 0.07400
H 	H 	0.08220 0.63400 0.98740 0.05700
C 	C 	0.04600 0.72400 0.01930 0.02500
H 	H 	0.01750 0.81660 0.02780 0.05600
C 	C 	0.72240 0.94070 0.61110 0.04600
C 	C 	0.59950 0.79090 0.24330 0.04700
C 	C 	0.83600 0.51180 0.28040 0.06900
C 	C 	0.69090 0.23720 0.55200 0.06400
C 	C 	0.65290 0.97740 0.66200 -0.09400
C 	C 	0.76700 0.96270 0.59020 -0.12100
C 	C 	0.61320 0.77170 0.18760 -0.11600
C 	C 	0.53040 0.80540 0.29680 -0.09300
C 	C 	0.90550 0.49270 0.26120 -0.12100
C 	C 	0.78130 0.56890 0.29340 -0.13100
C 	C 	0.63460 0.27300 0.60690 -0.12800
C 	C 	0.75240 0.18380 0.55220 -0.13500
C 	C 	0.63090 0.03830 0.69390 0.03300
H 	H 	0.61910 0.96230 0.67620 0.06200
H 	H 	0.81260 0.94080 0.55380 0.07100
C 	C 	0.74700 0.02010 0.62240 0.07000
C 	C 	0.56150 0.76710 0.17930 0.06600
H 	H 	0.65900 0.76060 0.15230 0.06900
H 	H 	0.51860 0.81770 0.33820 0.06200
C 	C 	0.47730 0.79980 0.28270 0.03600
C 	C 	0.91580 0.54710 0.26210 0.05500
H 	H 	0.94280 0.44970 0.24880 0.07100
H 	H 	0.73450 0.57430 0.30810 0.07500
C 	C 	0.79160 0.61950 0.28580 0.06200
C 	C 	0.64040 0.26110 0.66220 0.07200
H 	H 	0.59120 0.30600 0.60840 0.07200
H 	H 	0.79230 0.15530 0.51490 0.07400
C 	C 	0.75000 0.17650 0.60780 0.08700
N 	N 	0.68580 0.05460 0.66670 -0.06100
H 	H 	0.58490 0.06360 0.72880 0.03800
H 	H 	0.78240 0.03300 0.60940 0.01500
N 	N 	0.49760 0.77960 0.22500 -0.06400
H 	H 	0.57370 0.75420 0.13800 0.01900
H 	H 	0.43000 0.81090 0.31550 0.04000
N 	N 	0.85900 0.60810 0.27640 -0.06100
H 	H 	0.96180 0.54060 0.25280 0.02200
H 	H 	0.75580 0.66050 0.28670 0.02900
N 	N 	0.69630 0.21320 0.66110 -0.08400
H 	H 	0.60260 0.28880 0.70060 0.02500
H 	H 	0.79060 0.14180 0.60910 0.01100
Dy	Dy	0.64869 0.14371 0.79032 1.85300
O 	O 	0.75470 0.12000 0.78950 -0.30300
O 	O 	0.71620 0.03100 0.77190 -0.28600
O 	O 	0.62980 0.11780 0.89210 -0.28500
O 	O 	0.56060 0.11320 0.82510 -0.30300
O 	O 	0.61000 0.23680 0.85440 -0.28100
O 	O 	0.66990 0.10870 0.69370 -0.30600
O 	O 	0.54700 0.22830 0.78550 -0.28700
O 	O 	0.69870 0.20200 0.71650 -0.28000
N 	N 	0.79350 0.14970 0.76070 -0.06300
N 	N 	0.77830 0.99420 0.76970 -0.06500
N 	N 	0.64570 0.13790 0.92890 -0.06600
N 	N 	0.54280 0.08210 0.87410 -0.07000
N 	N 	0.56140 0.29720 0.85410 -0.07500
C 	C 	0.77600 0.20340 0.79370 0.05400
C 	C 	0.85570 0.12380 0.70540 0.06100
C 	C 	0.77950 0.97700 0.82210 0.05600
C 	C 	0.83770 0.97640 0.71830 0.05300
C 	C 	0.71090 0.11280 0.91940 0.05800
C 	C 	0.58980 0.18490 0.97750 0.05100
C 	C 	0.58270 0.01900 0.85970 0.05000
C 	C 	0.49020 0.11370 0.92620 0.06400
C 	C 	0.59110 0.32800 0.80720 0.05300
C 	C 	0.49210 0.31990 0.89040 0.08200
H 	H 	0.73520 0.22040 0.83440 0.03200
C 	C 	0.81730 0.23190 0.76760 -0.10600
C 	C 	0.89260 0.15420 0.67910 -0.10600
H 	H 	0.87280 0.08310 0.68540 0.01700
H 	H 	0.73540 0.98910 0.85990 0.02900
C 	C 	0.84340 0.94220 0.82330 -0.10500
C 	C 	0.90840 0.93950 0.71530 -0.10300
H 	H 	0.83580 0.98760 0.68050 0.01900
H 	H 	0.74830 0.07850 0.88600 0.03100
C 	C 	0.72820 0.13440 0.95630 -0.10100
C 	C 	0.60370 0.20810 0.01910 -0.09600
H 	H 	0.54210 0.20230 0.98400 0.02500
H 	H 	0.61860 0.99800 0.81800 0.03300
C 	C 	0.56700 0.98460 0.91340 -0.09800
C 	C 	0.46900 0.08290 0.98200 -0.10300
H 	H 	0.46300 0.15850 0.92970 0.01700
H 	H 	0.64180 0.30940 0.78100 0.03200
C 	C 	0.54350 0.38790 0.79970 -0.11400
C 	C 	0.44620 0.37640 0.88540 -0.12400
H 	H 	0.47450 0.29600 0.92050 0.00900
H 	H 	0.80290 0.26950 0.79130 0.06600
C 	C 	0.87560 0.21230 0.71230 0.04200
H 	H 	0.93140 0.13830 0.63730 0.06300
H 	H 	0.84230 0.92980 0.86190 0.06500
C 	C 	0.91140 0.92370 0.76860 0.03600
H 	H 	0.95140 0.92700 0.67630 0.06300
H 	H 	0.77710 0.11570 0.94730 0.06200
C 	C 	0.67460 0.18350 0.00650 0.03100
H 	H 	0.56510 0.23970 0.05460 0.06200
H 	H 	0.59580 0.93970 0.90680 0.06300
C 	C 	0.51290 0.01470 0.97160 0.04300
H 	H 	0.43030 0.10630 0.02200 0.06400
H 	H 	0.56150 0.41210 0.77050 0.07000
C 	C 	0.47320 0.40910 0.83470 0.05500
H 	H 	0.39620 0.39530 0.91460 0.07100
C 	C 	0.92500 0.23960 0.68100 0.04800
C 	C 	0.98060 0.88970 0.76750 0.06000
C 	C 	0.69520 0.20980 0.04180 0.07100
C 	C 	0.41940 0.46600 0.82310 0.04100
C 	C 	0.90200 0.29990 0.71240 -0.10100
C 	C 	0.98890 0.21190 0.63210 -0.11500
C 	C 	0.99010 0.90780 0.81270 -0.12300
C 	C 	0.03880 0.84500 0.72110 -0.12200
C 	C 	0.75940 0.17580 0.03810 -0.13000
C 	C 	0.65290 0.26680 0.07360 -0.11500
C 	C 	0.35550 0.50850 0.87120 -0.10200
C 	C 	0.43550 0.47750 0.76180 -0.10400
C 	C 	0.95280 0.32420 0.68280 0.05800
H 	H 	0.85710 0.32200 0.74960 0.06400
H 	H 	0.00340 0.17180 0.61290 0.06600
C 	C 	0.03690 0.23340 0.60540 0.06000
C 	C 	0.05950 0.88320 0.80520 0.07100
H 	H 	0.94940 0.93720 0.84910 0.07100
H 	H 	0.03500 0.82870 0.69000 0.07200
C 	C 	0.10720 0.82110 0.71730 0.06000
C 	C 	0.77980 0.20090 0.06950 0.07300
H 	H 	0.79140 0.13440 0.01420 0.07100
H 	H 	0.60810 0.29050 0.07350 0.06900
C 	C 	0.66730 0.29740 0.10880 0.04700
C 	C 	0.30520 0.56150 0.86130 0.04400
H 	H 	0.34510 0.50150 0.91320 0.06400
H 	H 	0.48180 0.45130 0.72750 0.06500
C 	C 	0.38130 0.52930 0.75150 0.05600
N 	N 	0.01740 0.28940 0.63360 -0.06500
H 	H 	0.93980 0.36520 0.69870 0.02300
H 	H 	0.08190 0.21030 0.56870 0.02700
N 	N 	0.11530 0.84030 0.75900 -0.06800
H 	H 	0.06530 0.89870 0.83520 0.01500
H 	H 	0.14860 0.78970 0.68270 0.03200
N 	N 	0.73740 0.25800 0.10330 -0.06400
H 	H 	0.82620 0.17590 0.06640 0.01200
H 	H 	0.63430 0.33880 0.13280 0.03400
N 	N 	0.32080 0.57050 0.79970 -0.05700
H 	H 	0.26120 0.59090 0.89560 0.03300
H 	H 	0.38860 0.53430 0.70990 0.01800
O 	O 	0.06210 0.31320 0.61250 -0.28700
O 	O 	0.18000 0.81640 0.75470 -0.31100
O 	O 	0.75870 0.28490 0.12880 -0.29300
O 	O 	0.27450 0.61800 0.78600 -0.30100
Dy	Dy	0.15484 0.28278 0.63957 1.88800
Dy	Dy	0.25722 0.72024 0.76847 1.87800
O 	O 	0.12910 0.38570 0.61570 -0.29900
O 	O 	0.21970 0.26820 0.52640 -0.27500
O 	O 	0.20740 0.20600 0.69290 -0.28900
O 	O 	0.17600 0.18750 0.60350 -0.31300
O 	O 	0.26400 0.27940 0.60920 -0.30300
O 	O 	0.05790 0.27940 0.72480 -0.30700
O 	O 	0.12880 0.34320 0.72590 -0.29500
O 	O 	0.28250 0.79750 0.78720 -0.29000
O 	O 	0.23130 0.69050 0.69820 -0.29200
O 	O 	0.33520 0.72580 0.66690 -0.29700
O 	O 	0.37670 0.66190 0.75380 -0.28600
O 	O 	0.13860 0.73540 0.83170 -0.28900
N 	N 	0.09310 0.41700 0.58210 -0.07600
N 	N 	0.23980 0.21830 0.48680 -0.08800
N 	N 	0.25340 0.20610 0.71040 -0.06900
N 	N 	0.19310 0.13130 0.63240 -0.07800
N 	N 	0.31350 0.28510 0.55600 -0.05500
N 	N 	0.03640 0.28060 0.78570 -0.06000
N 	N 	0.26980 0.85210 0.76480 -0.06700
N 	N 	0.21660 0.64000 0.70340 -0.08600
N 	N 	0.32500 0.73670 0.61580 -0.06200
N 	N 	0.43630 0.66190 0.70200 -0.07200
N 	N 	0.89240 0.26680 0.10900 -0.04900
C 	C 	0.02500 0.45420 0.61600 0.06500
C 	C 	0.12730 0.40910 0.52020 0.06300
C 	C 	0.18910 0.22370 0.47130 0.07800
C 	C 	0.29660 0.16910 0.47260 0.10500
C 	C 	0.32320 0.16690 0.67120 0.04900
C 	C 	0.22980 0.23720 0.76420 0.06100
C 	C 	0.13590 0.12570 0.68070 0.05600
C 	C 	0.25940 0.08810 0.60980 0.08900
C 	C 	0.37290 0.23630 0.51660 0.05600
C 	C 	0.29190 0.35100 0.54430 0.03500
C 	C 	0.06620 0.22830 0.80800 0.05600
C 	C 	0.98500 0.33390 0.82580 0.05600
C 	C 	0.31740 0.85270 0.70570 0.05900
C 	C 	0.20970 0.90380 0.79830 0.06600
C 	C 	0.14910 0.65430 0.73990 0.06800
C 	C 	0.26520 0.58660 0.67140 0.08400
C 	C 	0.27970 0.79440 0.61250 0.03900
C 	C 	0.37000 0.68870 0.56690 0.05400
C 	C 	0.44650 0.71130 0.71560 0.04900
C 	C 	0.47950 0.61960 0.64930 0.08500
C 	C 	0.88190 0.32660 0.09850 0.03000
C 	C 	0.92740 0.21240 0.06540 0.03700
H 	H 	0.00180 0.46020 0.66020 0.01500
C 	C 	0.98570 0.48730 0.58010 -0.10900
C 	C 	0.08820 0.44400 0.48820 -0.12000
H 	H 	0.17760 0.38020 0.49730 0.03000
H 	H 	0.14570 0.26270 0.48280 0.02000
C 	C 	0.20220 0.17440 0.44070 -0.13000
C 	C 	0.31540 0.11960 0.43520 -0.13800
H 	H 	0.32750 0.16600 0.48800 0.00100
H 	H 	0.33730 0.13920 0.63670 0.02300
C 	C 	0.37890 0.16790 0.68350 -0.09300
C 	C 	0.27550 0.23840 0.78190 -0.10800
H 	H 	0.17930 0.25970 0.79190 0.03100
H 	H 	0.08790 0.15940 0.69530 0.02900
C 	C 	0.14920 0.07100 0.70710 -0.10800
C 	C 	0.27340 0.03580 0.63580 -0.12400
H 	H 	0.29680 0.09350 0.57580 0.00700
H 	H 	0.38240 0.19450 0.52530 0.01800
C 	C 	0.42160 0.24500 0.46280 -0.09800
C 	C 	0.33980 0.36020 0.49090 -0.09000
H 	H 	0.24680 0.38540 0.57260 0.04000
H 	H 	0.10520 0.19050 0.77950 0.03100
C 	C 	0.04160 0.22820 0.87120 -0.11400
C 	C 	0.95530 0.33490 0.89160 -0.11000
H 	H 	0.96680 0.37240 0.81000 0.02100
H 	H 	0.36060 0.81480 0.68100 0.02900
C 	C 	0.30210 0.90760 0.68310 -0.11700
C 	C 	0.19230 0.96310 0.77690 -0.11100
H 	H 	0.17650 0.90140 0.83870 0.01700
H 	H 	0.11380 0.69650 0.76110 0.03000
C 	C 	0.12920 0.60720 0.74740 -0.11400
C 	C 	0.25030 0.53600 0.67500 -0.12400
H 	H 	0.31270 0.57990 0.64430 0.01000
H 	H 	0.25370 0.82780 0.64650 0.03800
C 	C 	0.26920 0.80760 0.55680 -0.09200
C 	C 	0.35990 0.69540 0.51420 -0.10100
H 	H 	0.40730 0.65060 0.56850 0.02200
H 	H 	0.41900 0.73660 0.75580 0.03400
C 	C 	0.50240 0.71940 0.66260 -0.10900
C 	C 	0.52800 0.62970 0.60350 -0.13600
H 	H 	0.47470 0.58350 0.64580 0.00600
H 	H 	0.85600 0.36220 0.13020 0.04000
C 	C 	0.91920 0.32730 0.02620 -0.07800
C 	C 	0.95740 0.21980 0.00270 -0.08500
H 	H 	0.93030 0.17300 0.07810 0.02000
H 	H 	0.93470 0.51280 0.60220 0.06500
C 	C 	0.02170 0.48160 0.51630 0.05900
H 	H 	0.11340 0.43880 0.44360 0.06900
H 	H 	0.16580 0.17740 0.43270 0.07400
C 	C 	0.26570 0.11830 0.41950 0.05900
H 	H 	0.36290 0.08460 0.41880 0.07400
H 	H 	0.42910 0.14580 0.65460 0.06000
C 	C 	0.35030 0.20460 0.74180 0.03700
H 	H 	0.25680 0.26200 0.82100 0.06700
H 	H 	0.11080 0.06430 0.73740 0.06700
C 	C 	0.22280 0.02430 0.68770 0.04600
H 	H 	0.32220 0.00300 0.61750 0.06900
H 	H 	0.46550 0.20930 0.43490 0.06200
C 	C 	0.40660 0.30870 0.44820 0.02600
H 	H 	0.32820 0.40220 0.48190 0.06100
H 	H 	0.06330 0.18950 0.88520 0.06800
C 	C 	0.98730 0.28080 0.91510 0.05300
H 	H 	0.91400 0.37220 0.91950 0.06700
H 	H 	0.33700 0.90780 0.64260 0.06700
C 	C 	0.24150 0.96200 0.71330 0.04900
H 	H 	0.15070 0.00130 0.80290 0.06600
H 	H 	0.08130 0.61570 0.77610 0.06800
C 	C 	0.18220 0.54680 0.71130 0.05100
H 	H 	0.28790 0.49490 0.65220 0.06900
H 	H 	0.23570 0.84800 0.55380 0.06100
C 	C 	0.31290 0.75520 0.50820 0.03200
H 	H 	0.38490 0.65980 0.48280 0.06200
H 	H 	0.51220 0.75220 0.66600 0.06900
C 	C 	0.54160 0.67810 0.60660 0.06300
H 	H 	0.55640 0.60170 0.56490 0.07400
H 	H 	0.91780 0.36600 0.01260 0.05700
C 	C 	0.95400 0.27600 0.98070 0.02500
H 	H 	0.98250 0.18340 0.97220 0.05600
C 	C 	0.27760 0.05930 0.38890 0.04600
C 	C 	0.40050 0.20910 0.75670 0.04700
C 	C 	0.16400 0.48820 0.71960 0.06900
C 	C 	0.30910 0.76280 0.44800 0.06400
C 	C 	0.34710 0.02260 0.33800 -0.09400
C 	C 	0.23300 0.03730 0.40980 -0.12100
C 	C 	0.38680 0.22830 0.81240 -0.11600
C 	C 	0.46960 0.19460 0.70320 -0.09300
C 	C 	0.09450 0.50730 0.73880 -0.12100
C 	C 	0.21870 0.43110 0.70660 -0.13100
C 	C 	0.36540 0.72700 0.39310 -0.12800
C 	C 	0.24760 0.81620 0.44780 -0.13500
C 	C 	0.36910 0.96170 0.30610 0.03300
H 	H 	0.38090 0.03770 0.32380 0.06200
H 	H 	0.18740 0.05920 0.44620 0.07100
C 	C 	0.25300 0.97990 0.37760 0.07000
C 	C 	0.43850 0.23290 0.82070 0.06600
H 	H 	0.34100 0.23940 0.84770 0.06900
H 	H 	0.48140 0.18230 0.66180 0.06200
C 	C 	0.52270 0.20020 0.71730 0.03600
C 	C 	0.08420 0.45290 0.73790 0.05500
H 	H 	0.05720 0.55030 0.75120 0.07100
H 	H 	0.26550 0.42570 0.69190 0.07500
C 	C 	0.20840 0.38050 0.71420 0.06200
C 	C 	0.35960 0.73890 0.33780 0.07200
H 	H 	0.40880 0.69400 0.39160 0.07200
H 	H 	0.20770 0.84470 0.48510 0.07400
C 	C 	0.25000 0.82350 0.39220 0.08700
N 	N 	0.31420 0.94540 0.33330 -0.06100
H 	H 	0.41510 0.93640 0.27120 0.03800
H 	H 	0.21760 0.96700 0.39060 0.01500
N 	N 	0.50240 0.22040 0.77500 -0.06400
H 	H 	0.42630 0.24580 0.86200 0.01900
H 	H 	0.57000 0.18910 0.68450 0.04000
N 	N 	0.14100 0.39190 0.72360 -0.06100
H 	H 	0.03820 0.45940 0.74720 0.02200
H 	H 	0.24420 0.33950 0.71330 0.02900
N 	N 	0.30370 0.78680 0.33890 -0.08400
H 	H 	0.39740 0.71120 0.29940 0.02500
H 	H 	0.20940 0.85820 0.39090 0.01100
