data_crystal

_cell_length_a 10.54540
_cell_length_b 17.59860
_cell_length_c 19.99640
_cell_angle_alpha 90.00000
_cell_angle_beta  90.00000
_cell_angle_gamma 91.28300

_symmetry_space_group_name_	'P 1'
_symmetry_space_group_name_H-M	'P 1'

loop_
_symmetry_equiv_pos_as_xyz
  x,y,z

loop_
_atom_site_label
_atom_site_type_symbol
_atom_site_fract_x
_atom_site_fract_y
_atom_site_fract_z
_atom_site_charge
Tb	Tb	0.32093 0.99996 0.26530 1.81800
Tb	Tb	0.25344 0.49220 0.01836 1.83800
Tb	Tb	0.17907 0.00004 0.76530 1.81300
Tb	Tb	0.24656 0.50780 0.51836 1.83900
Tb	Tb	0.67907 0.00004 0.73470 1.81700
Tb	Tb	0.74656 0.50780 0.98164 1.83700
Tb	Tb	0.82093 0.99996 0.23470 1.81300
Tb	Tb	0.75344 0.49220 0.48164 1.83900
H 	H 	0.36020 0.20140 0.17470 0.04400
H 	H 	0.34420 0.30100 0.10330 0.01700
H 	H 	0.71370 0.28340 0.05300 0.03900
H 	H 	0.72640 0.17770 0.12100 0.02700
H 	H 	0.21180 0.67030 0.10090 0.01600
H 	H 	0.24320 0.78680 0.15670 0.04000
H 	H 	0.86640 0.81440 0.17060 0.00400
H 	H 	0.83240 0.70400 0.10880 0.04200
H 	H 	0.13980 0.79860 0.67470 0.04400
H 	H 	0.15580 0.69900 0.60330 0.01700
H 	H 	0.78630 0.71660 0.55300 0.03800
H 	H 	0.77360 0.82230 0.62100 0.02600
H 	H 	0.28820 0.32970 0.60090 0.01700
H 	H 	0.25680 0.21320 0.65670 0.04000
H 	H 	0.63360 0.18560 0.67060 0.00300
H 	H 	0.66760 0.29600 0.60880 0.04400
H 	H 	0.63980 0.79860 0.82530 0.04400
H 	H 	0.65580 0.69900 0.89670 0.01700
H 	H 	0.28630 0.71660 0.94700 0.03900
H 	H 	0.27360 0.82230 0.87900 0.02700
H 	H 	0.78820 0.32970 0.89910 0.01600
H 	H 	0.75680 0.21320 0.84330 0.04000
H 	H 	0.13360 0.18560 0.82940 0.00400
H 	H 	0.16760 0.29600 0.89120 0.04200
H 	H 	0.86020 0.20140 0.32530 0.04400
H 	H 	0.84420 0.30100 0.39670 0.01700
H 	H 	0.21370 0.28340 0.44700 0.03800
H 	H 	0.22640 0.17770 0.37900 0.02600
H 	H 	0.71180 0.67030 0.39910 0.01700
H 	H 	0.74320 0.78680 0.34330 0.04000
H 	H 	0.36640 0.81440 0.32940 0.00300
H 	H 	0.33240 0.70400 0.39120 0.04400
C 	C 	0.55870 0.11460 0.20160 0.45500
C 	C 	0.54520 0.18010 0.15540 -0.11700
C 	C 	0.43210 0.21800 0.14950 -0.00100
C 	C 	0.42350 0.27710 0.10880 0.00900
C 	C 	0.53040 0.30530 0.07360 -0.12900
C 	C 	0.64180 0.26670 0.07800 0.01000
C 	C 	0.64950 0.20450 0.11840 -0.00000
C 	C 	0.51910 0.37680 0.03250 0.48200
C 	C 	0.99710 0.60580 0.05440 0.51300
C 	C 	0.01900 0.67790 0.09700 -0.12900
C 	C 	0.14200 0.70030 0.11300 0.00100
C 	C 	0.15900 0.76880 0.14760 -0.00000
C 	C 	0.06000 0.81020 0.16850 -0.13500
C 	C 	0.93620 0.78600 0.15510 0.00900
C 	C 	0.91660 0.72060 0.11900 -0.01100
C 	C 	0.08400 0.88700 0.20370 0.49100
C 	C 	0.94130 0.88540 0.70160 0.45300
C 	C 	0.95480 0.81990 0.65540 -0.11900
C 	C 	0.06790 0.78200 0.64950 0.00000
C 	C 	0.07650 0.72290 0.60880 0.00900
C 	C 	0.96960 0.69470 0.57360 -0.13100
C 	C 	0.85820 0.73330 0.57800 0.01000
C 	C 	0.85050 0.79550 0.61840 -0.00000
C 	C 	0.98090 0.62320 0.53250 0.48200
C 	C 	0.50290 0.39420 0.55440 0.51100
C 	C 	0.48100 0.32210 0.59700 -0.12500
C 	C 	0.35800 0.29970 0.61300 -0.00100
C 	C 	0.34100 0.23120 0.64760 0.00200
C 	C 	0.44000 0.18980 0.66850 -0.13600
C 	C 	0.56380 0.21400 0.65510 0.01100
C 	C 	0.58340 0.27940 0.61900 -0.01400
C 	C 	0.41600 0.11300 0.70370 0.49100
C 	C 	0.44130 0.88540 0.79840 0.45500
C 	C 	0.45480 0.81990 0.84460 -0.11700
C 	C 	0.56790 0.78200 0.85050 -0.00100
C 	C 	0.57650 0.72290 0.89120 0.00900
C 	C 	0.46960 0.69470 0.92640 -0.12900
C 	C 	0.35820 0.73330 0.92200 0.01000
C 	C 	0.35050 0.79550 0.88160 -0.00000
C 	C 	0.48090 0.62320 0.96750 0.48200
C 	C 	0.00290 0.39420 0.94560 0.51300
C 	C 	0.98100 0.32210 0.90300 -0.12900
C 	C 	0.85800 0.29970 0.88700 0.00100
C 	C 	0.84100 0.23120 0.85240 -0.00000
C 	C 	0.94000 0.18980 0.83150 -0.13500
C 	C 	0.06380 0.21400 0.84490 0.00900
C 	C 	0.08340 0.27940 0.88100 -0.01100
C 	C 	0.91600 0.11300 0.79630 0.49100
C 	C 	0.05870 0.11460 0.29840 0.45300
C 	C 	0.04520 0.18010 0.34460 -0.11900
C 	C 	0.93210 0.21800 0.35050 0.00000
C 	C 	0.92350 0.27710 0.39120 0.00900
C 	C 	0.03040 0.30530 0.42640 -0.13100
C 	C 	0.14180 0.26670 0.42200 0.01000
C 	C 	0.14950 0.20450 0.38160 -0.00000
C 	C 	0.01910 0.37680 0.46750 0.48200
C 	C 	0.49710 0.60580 0.44560 0.51100
C 	C 	0.51900 0.67790 0.40300 -0.12500
C 	C 	0.64200 0.70030 0.38700 -0.00100
C 	C 	0.65900 0.76880 0.35240 0.00200
C 	C 	0.56000 0.81020 0.33150 -0.13600
C 	C 	0.43620 0.78600 0.34490 0.01100
C 	C 	0.41660 0.72060 0.38100 -0.01400
C 	C 	0.58400 0.88700 0.29630 0.49100
N 	N 	0.31000 0.02310 0.12180 0.07100
N 	N 	0.26100 0.52280 0.87760 0.06800
N 	N 	0.19000 0.97690 0.62180 0.07000
N 	N 	0.23900 0.47720 0.37760 0.06800
N 	N 	0.69000 0.97690 0.87820 0.07100
N 	N 	0.73900 0.47720 0.12240 0.06800
N 	N 	0.81000 0.02310 0.37820 0.07000
N 	N 	0.76100 0.52280 0.62240 0.06800
O 	O 	0.39400 0.98480 0.14580 -0.25400
O 	O 	0.24110 0.05930 0.16260 -0.26900
O 	O 	0.29530 0.02980 0.06020 -0.12900
O 	O 	0.46810 0.09800 0.24250 -0.47600
O 	O 	0.66250 0.07800 0.20280 -0.51600
O 	O 	0.41450 0.40940 0.02900 -0.54600
O 	O 	0.61810 0.40050 0.00150 -0.49600
O 	O 	0.33550 0.47810 0.90010 -0.26400
O 	O 	0.17890 0.55230 0.91280 -0.26100
O 	O 	0.26800 0.54270 0.81670 -0.13300
O 	O 	0.88560 0.59560 0.03290 -0.50200
O 	O 	0.08620 0.56290 0.04740 -0.56400
O 	O 	0.98800 0.92040 0.22500 -0.54800
O 	O 	0.19480 0.90850 0.21150 -0.51000
O 	O 	0.10600 0.01520 0.64580 -0.25300
O 	O 	0.25890 0.94070 0.66260 -0.26800
O 	O 	0.20470 0.97020 0.56020 -0.13100
O 	O 	0.03190 0.90200 0.74250 -0.47300
O 	O 	0.83750 0.92200 0.70280 -0.51700
O 	O 	0.08550 0.59060 0.52900 -0.54600
O 	O 	0.88190 0.59950 0.50150 -0.49700
O 	O 	0.16450 0.52190 0.40010 -0.26500
O 	O 	0.32110 0.44770 0.41280 -0.26200
O 	O 	0.23200 0.45730 0.31670 -0.13300
O 	O 	0.61440 0.40440 0.53290 -0.50200
O 	O 	0.41380 0.43710 0.54740 -0.56200
O 	O 	0.51200 0.07960 0.72500 -0.54700
O 	O 	0.30520 0.09150 0.71150 -0.50900
O 	O 	0.60600 0.01520 0.85420 -0.25400
O 	O 	0.75890 0.94070 0.83740 -0.26900
O 	O 	0.70470 0.97020 0.93980 -0.12900
O 	O 	0.53190 0.90200 0.75750 -0.47600
O 	O 	0.33750 0.92200 0.79720 -0.51600
O 	O 	0.58550 0.59060 0.97100 -0.54600
O 	O 	0.38190 0.59950 0.99850 -0.49600
O 	O 	0.66450 0.52190 0.09990 -0.26400
O 	O 	0.82110 0.44770 0.08720 -0.26100
O 	O 	0.73200 0.45730 0.18330 -0.13300
O 	O 	0.11440 0.40440 0.96710 -0.50200
O 	O 	0.91380 0.43710 0.95260 -0.56400
O 	O 	0.01200 0.07960 0.77500 -0.54800
O 	O 	0.80520 0.09150 0.78850 -0.51000
O 	O 	0.89400 0.98480 0.35420 -0.25300
O 	O 	0.74110 0.05930 0.33740 -0.26800
O 	O 	0.79530 0.02980 0.43980 -0.13100
O 	O 	0.96810 0.09800 0.25750 -0.47300
O 	O 	0.16250 0.07800 0.29720 -0.51700
O 	O 	0.91450 0.40940 0.47100 -0.54600
O 	O 	0.11810 0.40050 0.49850 -0.49700
O 	O 	0.83550 0.47810 0.59990 -0.26500
O 	O 	0.67890 0.55230 0.58720 -0.26200
O 	O 	0.76800 0.54270 0.68330 -0.13300
O 	O 	0.38560 0.59560 0.46710 -0.50200
O 	O 	0.58620 0.56290 0.45260 -0.56200
O 	O 	0.48800 0.92040 0.27500 -0.54700
O 	O 	0.69480 0.90850 0.28850 -0.50900
