data_crystal

_cell_length_a 12.14910
_cell_length_b 12.28400
_cell_length_c 12.21600
_cell_angle_alpha 90.00000
_cell_angle_beta  90.00000
_cell_angle_gamma 90.00000

_symmetry_space_group_name_	'P 1'
_symmetry_space_group_name_H-M	'P 1'

loop_
_symmetry_equiv_pos_as_xyz
  x,y,z

loop_
_atom_site_label
_atom_site_type_symbol
_atom_site_fract_x
_atom_site_fract_y
_atom_site_fract_z
_atom_site_charge
N 	N 	0.31850 0.31750 0.18600 -0.19900
N 	N 	0.81850 0.81750 0.18600 -0.15000
N 	N 	0.68150 0.18250 0.68600 -0.18100
N 	N 	0.18150 0.68250 0.68600 -0.20000
N 	N 	0.68150 0.81750 0.31400 -0.18000
N 	N 	0.18150 0.31750 0.31400 -0.19900
N 	N 	0.31850 0.68250 0.81400 -0.19800
N 	N 	0.81850 0.18250 0.81400 -0.14900
N 	N 	0.68150 0.68250 0.81400 -0.18000
N 	N 	0.18150 0.18250 0.81400 -0.19900
N 	N 	0.31850 0.81750 0.31400 -0.19700
N 	N 	0.81850 0.31750 0.31400 -0.14800
N 	N 	0.31850 0.18250 0.68600 -0.19700
N 	N 	0.81850 0.68250 0.68600 -0.14800
N 	N 	0.68150 0.31750 0.18600 -0.18000
N 	N 	0.18150 0.81750 0.18600 -0.19900
Mn	Mn	0.50000 0.30794 0.19456 1.25900
N 	N 	0.50000 0.32910 0.37520 -0.18700
N 	N 	0.50000 0.26540 0.44550 -0.02400
N 	N 	0.50000 0.20100 0.51470 -0.19200
N 	N 	0.50000 0.48670 0.17010 -0.18900
N 	N 	0.50000 0.55930 0.23020 -0.01800
N 	N 	0.50000 0.63090 0.28950 -0.19800
Mn	Mn	0.00000 0.80794 0.19456 1.24000
N 	N 	-0.00000 0.82910 0.37520 -0.20900
N 	N 	-0.00000 0.76540 0.44550 -0.03800
N 	N 	-0.00000 0.70100 0.51470 -0.21400
N 	N 	-0.00000 0.98670 0.17010 -0.21100
N 	N 	-0.00000 0.05930 0.23020 -0.03100
N 	N 	-0.00000 0.13090 0.28950 -0.22000
Mn	Mn	0.50000 0.19206 0.69456 1.25900
N 	N 	0.50000 0.17090 0.87520 -0.18700
N 	N 	0.50000 0.23460 0.94550 -0.02500
N 	N 	0.50000 0.29900 0.01470 -0.19200
N 	N 	0.50000 0.01330 0.67010 -0.18900
N 	N 	0.50000 0.94070 0.73020 -0.01800
N 	N 	0.50000 0.86910 0.78950 -0.19800
Mn	Mn	-0.00000 0.69206 0.69456 1.24000
N 	N 	-0.00000 0.67090 0.87520 -0.20900
N 	N 	0.00000 0.73460 0.94550 -0.03800
N 	N 	-0.00000 0.79900 0.01470 -0.21400
N 	N 	-0.00000 0.51330 0.67010 -0.21100
N 	N 	0.00000 0.44070 0.73020 -0.03200
N 	N 	-0.00000 0.36910 0.78950 -0.22000
Mn	Mn	0.50000 0.80794 0.30544 1.25900
N 	N 	0.50000 0.82910 0.12480 -0.18700
N 	N 	0.50000 0.76540 0.05450 -0.02500
N 	N 	0.50000 0.70100 0.98530 -0.19200
N 	N 	0.50000 0.98670 0.32990 -0.18900
N 	N 	0.50000 0.05930 0.26980 -0.01800
N 	N 	0.50000 0.13090 0.21050 -0.19800
Mn	Mn	-0.00000 0.30794 0.30544 1.24000
N 	N 	-0.00000 0.32910 0.12480 -0.20900
N 	N 	-0.00000 0.26540 0.05450 -0.03800
N 	N 	-0.00000 0.20100 0.98530 -0.21400
N 	N 	-0.00000 0.48670 0.32990 -0.21100
N 	N 	-0.00000 0.55930 0.26980 -0.03200
N 	N 	-0.00000 0.63090 0.21050 -0.22000
Mn	Mn	0.50000 0.69206 0.80544 1.25900
N 	N 	0.50000 0.67090 0.62480 -0.18700
N 	N 	0.50000 0.73460 0.55450 -0.02400
N 	N 	0.50000 0.79900 0.48530 -0.19200
N 	N 	0.50000 0.51330 0.82990 -0.18900
N 	N 	0.50000 0.44070 0.76980 -0.01800
N 	N 	0.50000 0.36910 0.71050 -0.19800
Mn	Mn	-0.00000 0.19206 0.80544 1.24000
N 	N 	-0.00000 0.17090 0.62480 -0.20900
N 	N 	-0.00000 0.23460 0.55450 -0.03800
N 	N 	-0.00000 0.29900 0.48530 -0.21400
N 	N 	-0.00000 0.01330 0.82990 -0.21100
N 	N 	-0.00000 0.94070 0.76980 -0.03100
N 	N 	-0.00000 0.86910 0.71050 -0.22000
N 	N 	0.25000 0.31650 0.25000 -0.02800
N 	N 	0.75000 0.18350 0.75000 -0.01300
N 	N 	0.75000 0.81650 0.25000 -0.01300
N 	N 	0.25000 0.68350 0.75000 -0.02800
N 	N 	0.75000 0.68350 0.75000 -0.01300
N 	N 	0.25000 0.81650 0.25000 -0.02800
N 	N 	0.25000 0.18350 0.75000 -0.02800
N 	N 	0.75000 0.31650 0.25000 -0.01300
