data_crystal

_cell_length_a 8.42580
_cell_length_b 9.27100
_cell_length_c 12.82400
_cell_angle_alpha 90.00000
_cell_angle_beta  105.76000
_cell_angle_gamma 90.00000

_symmetry_space_group_name_	'P 1'
_symmetry_space_group_name_H-M	'P 1'

loop_
_symmetry_equiv_pos_as_xyz
  x,y,z

loop_
_atom_site_label
_atom_site_type_symbol
_atom_site_fract_x
_atom_site_fract_y
_atom_site_fract_z
_atom_site_charge
Mn	Mn	0.25702 0.74841 0.01078 1.25500
N 	N 	0.32562 0.79743 0.18860 -0.19300
N 	N 	0.26937 0.80010 0.26239 -0.02400
N 	N 	0.21348 0.80678 0.33612 -0.19600
N 	N 	0.04300 0.61974 0.01824 -0.20300
N 	N 	0.10732 0.94643 0.97211 -0.20500
N 	N 	0.48162 0.87531 0.00742 -0.19700
N 	N 	0.42938 0.55915 0.05486 -0.18700
Mn	Mn	0.74298 0.24841 0.48922 1.25300
N 	N 	0.67438 0.29743 0.31140 -0.19100
N 	N 	0.73063 0.30010 0.23761 -0.02300
N 	N 	0.78652 0.30678 0.16388 -0.19300
N 	N 	0.95700 0.11974 0.48176 -0.20800
N 	N 	0.89268 0.44643 0.52789 -0.20400
N 	N 	0.51838 0.37531 0.49258 -0.18900
N 	N 	0.57062 0.05915 0.44514 -0.18600
Mn	Mn	0.74298 0.25159 0.98922 1.25000
N 	N 	0.67438 0.20257 0.81140 -0.19300
N 	N 	0.73063 0.19990 0.73761 -0.02400
N 	N 	0.78652 0.19322 0.66388 -0.19600
N 	N 	0.95700 0.38026 0.98176 -0.21500
N 	N 	0.89268 0.05357 0.02789 -0.19500
N 	N 	0.51838 0.12469 0.99258 -0.19600
N 	N 	0.57062 0.44085 0.94514 -0.19200
Mn	Mn	0.25702 0.75159 0.51078 1.25300
N 	N 	0.32562 0.70257 0.68860 -0.19300
N 	N 	0.26937 0.69990 0.76239 -0.02300
N 	N 	0.21348 0.69322 0.83612 -0.19500
N 	N 	0.04300 0.88026 0.51824 -0.20800
N 	N 	0.10732 0.55357 0.47211 -0.19700
N 	N 	0.48162 0.62469 0.50742 -0.19100
N 	N 	0.42938 0.94085 0.55486 -0.19400
N 	N 	-0.00000 0.50000 -0.00000 -0.02100
N 	N 	0.00000 0.00000 0.50000 -0.01900
N 	N 	-0.00000 0.00000 -0.00000 -0.01600
N 	N 	0.00000 0.50000 0.50000 -0.02400
N 	N 	0.50000 0.00000 -0.00000 -0.02100
N 	N 	0.50000 0.50000 0.50000 -0.03700
N 	N 	0.50000 0.50000 -0.00000 -0.03100
N 	N 	0.50000 0.00000 0.50000 -0.03100
