data_crystal

_cell_length_a 8.46400
_cell_length_b 9.32400
_cell_length_c 12.88200
_cell_angle_alpha 90.00000
_cell_angle_beta  105.46600
_cell_angle_gamma 90.00000

_symmetry_space_group_name_	'P 1'
_symmetry_space_group_name_H-M	'P 1'

loop_
_symmetry_equiv_pos_as_xyz
  x,y,z

loop_
_atom_site_label
_atom_site_type_symbol
_atom_site_fract_x
_atom_site_fract_y
_atom_site_fract_z
_atom_site_charge
Mn	Mn	0.25567 0.74878 0.00907 1.25200
N 	N 	0.31920 0.79650 0.18576 -0.19500
N 	N 	0.26524 0.79781 0.26021 -0.02300
N 	N 	0.21220 0.80390 0.33465 -0.19600
N 	N 	0.04180 0.61941 0.01519 -0.20200
N 	N 	0.10370 0.94455 0.97035 -0.20400
N 	N 	0.47881 0.87657 0.00673 -0.19800
N 	N 	0.42630 0.56029 0.05178 -0.18800
Mn	Mn	0.74433 0.24878 0.49093 1.25300
N 	N 	0.68080 0.29650 0.31424 -0.19300
N 	N 	0.73476 0.29781 0.23979 -0.02200
N 	N 	0.78780 0.30390 0.16535 -0.19300
N 	N 	0.95820 0.11941 0.48481 -0.20700
N 	N 	0.89630 0.44455 0.52965 -0.20300
N 	N 	0.52119 0.37657 0.49327 -0.19000
N 	N 	0.57370 0.06029 0.44822 -0.18800
Mn	Mn	0.74433 0.25122 0.99093 1.25000
N 	N 	0.68080 0.20350 0.81424 -0.19500
N 	N 	0.73476 0.20219 0.73979 -0.02300
N 	N 	0.78780 0.19610 0.66535 -0.19600
N 	N 	0.95820 0.38059 0.98481 -0.21300
N 	N 	0.89630 0.05545 0.02965 -0.19500
N 	N 	0.52119 0.12343 0.99327 -0.19700
N 	N 	0.57370 0.43971 0.94822 -0.19300
Mn	Mn	0.25567 0.75122 0.50907 1.25200
N 	N 	0.31920 0.70350 0.68576 -0.19400
N 	N 	0.26524 0.70219 0.76021 -0.02200
N 	N 	0.21220 0.69610 0.83465 -0.19500
N 	N 	0.04180 0.88059 0.51519 -0.20600
N 	N 	0.10370 0.55545 0.47035 -0.19700
N 	N 	0.47881 0.62343 0.50673 -0.19200
N 	N 	0.42630 0.93971 0.55178 -0.19600
N 	N 	-0.00000 0.50000 -0.00000 -0.02000
N 	N 	-0.00000 0.00000 0.50000 -0.01900
N 	N 	-0.00000 0.00000 -0.00000 -0.01600
N 	N 	-0.00000 0.50000 0.50000 -0.02300
N 	N 	0.50000 0.00000 -0.00000 -0.02000
N 	N 	0.50000 0.50000 0.50000 -0.03500
N 	N 	0.50000 0.50000 -0.00000 -0.02900
N 	N 	0.50000 0.00000 0.50000 -0.02900
