data_crystal

_cell_length_a 8.50200
_cell_length_b 9.43100
_cell_length_c 12.93000
_cell_angle_alpha 90.00000
_cell_angle_beta  104.77000
_cell_angle_gamma 90.00000

_symmetry_space_group_name_	'P 1'
_symmetry_space_group_name_H-M	'P 1'

loop_
_symmetry_equiv_pos_as_xyz
  x,y,z

loop_
_atom_site_label
_atom_site_type_symbol
_atom_site_fract_x
_atom_site_fract_y
_atom_site_fract_z
_atom_site_charge
N 	N 	0.71850 0.12950 0.99810 -0.11200
N 	N 	0.55040 0.04630 0.17500 -0.25600
N 	N 	0.33730 0.18980 0.95970 -0.13400
N 	N 	0.21850 0.62950 0.99810 -0.09100
N 	N 	0.05040 0.54630 0.17500 -0.23200
N 	N 	0.83730 0.68980 0.95970 -0.01800
N 	N 	0.28150 0.12950 0.50190 -0.26900
N 	N 	0.44960 0.04630 0.32500 -0.25800
N 	N 	0.66270 0.18980 0.54030 -0.21200
N 	N 	0.78150 0.62950 0.50190 -0.14000
N 	N 	0.94960 0.54630 0.32500 -0.06000
N 	N 	0.16270 0.68980 0.54030 -0.20400
N 	N 	0.28150 0.87050 0.00190 -0.16500
N 	N 	0.44960 0.95370 0.82500 -0.08800
N 	N 	0.66270 0.81020 0.04030 -0.13400
N 	N 	0.78150 0.37050 0.00190 -0.18900
N 	N 	0.94960 0.45370 0.82500 -0.03400
N 	N 	0.16270 0.31020 0.04030 -0.26200
N 	N 	0.71850 0.87050 0.49810 -0.09200
N 	N 	0.55040 0.95370 0.67500 -0.10100
N 	N 	0.33730 0.81020 0.45970 -0.14300
N 	N 	0.21850 0.37050 0.49810 -0.22300
N 	N 	0.05040 0.45370 0.67500 -0.21900
N 	N 	0.83730 0.31020 0.45970 -0.15500
Mn	Mn	0.50000 0.00000 -0.00000 1.12100
Mn	Mn	0.00000 0.50000 -0.00000 1.13900
Mn	Mn	0.50000 0.00000 0.50000 1.17100
Mn	Mn	0.00000 0.50000 0.50000 1.18900
N 	N 	0.50000 0.04360 0.25000 -0.05500
N 	N 	0.00000 0.54360 0.25000 -0.12900
N 	N 	0.50000 0.95640 0.75000 0.02400
N 	N 	0.00000 0.45640 0.75000 -0.12300
N 	N 	0.75000 0.25000 -0.00000 -0.11000
N 	N 	0.25000 0.25000 0.50000 -0.05400
N 	N 	0.25000 0.75000 -0.00000 -0.11600
N 	N 	0.75000 0.75000 0.50000 0.00200
N 	N 	0.25000 0.25000 -0.00000 -0.14100
N 	N 	0.75000 0.25000 0.50000 -0.02400
N 	N 	0.75000 0.75000 -0.00000 -0.08000
N 	N 	0.25000 0.75000 0.50000 -0.02300
