data_crystal

_cell_length_a 8.45290
_cell_length_b 9.35810
_cell_length_c 12.88400
_cell_angle_alpha 90.00000
_cell_angle_beta  105.26500
_cell_angle_gamma 90.00000

_symmetry_space_group_name_	'P 1'
_symmetry_space_group_name_H-M	'P 1'

loop_
_symmetry_equiv_pos_as_xyz
  x,y,z

loop_
_atom_site_label
_atom_site_type_symbol
_atom_site_fract_x
_atom_site_fract_y
_atom_site_fract_z
_atom_site_charge
N 	N 	0.71860 0.12920 0.99750 -0.11300
N 	N 	0.55100 0.04830 0.17521 -0.25600
N 	N 	0.33780 0.19060 0.95940 -0.13400
N 	N 	0.21860 0.62920 0.99750 -0.09100
N 	N 	0.05100 0.54830 0.17521 -0.23200
N 	N 	0.83780 0.69060 0.95940 -0.01800
N 	N 	0.28140 0.12920 0.50250 -0.27100
N 	N 	0.44900 0.04830 0.32479 -0.25800
N 	N 	0.66220 0.19060 0.54060 -0.21300
N 	N 	0.78140 0.62920 0.50250 -0.14100
N 	N 	0.94900 0.54830 0.32479 -0.05900
N 	N 	0.16220 0.69060 0.54060 -0.20500
N 	N 	0.28140 0.87080 0.00250 -0.16500
N 	N 	0.44900 0.95170 0.82479 -0.08800
N 	N 	0.66220 0.80940 0.04060 -0.13500
N 	N 	0.78140 0.37080 0.00250 -0.18900
N 	N 	0.94900 0.45170 0.82479 -0.03300
N 	N 	0.16220 0.30940 0.04060 -0.26300
N 	N 	0.71860 0.87080 0.49750 -0.09200
N 	N 	0.55100 0.95170 0.67521 -0.10100
N 	N 	0.33780 0.80940 0.45940 -0.14400
N 	N 	0.21860 0.37080 0.49750 -0.22400
N 	N 	0.05100 0.45170 0.67521 -0.21900
N 	N 	0.83780 0.30940 0.45940 -0.15600
Mn	Mn	0.50000 0.00000 -0.00000 1.12200
Mn	Mn	-0.00000 0.50000 -0.00000 1.14100
Mn	Mn	0.50000 0.00000 0.50000 1.17200
Mn	Mn	0.00000 0.50000 0.50000 1.19100
N 	N 	0.50000 0.04550 0.25000 -0.05400
N 	N 	0.00000 0.54550 0.25000 -0.12900
N 	N 	0.50000 0.95450 0.75000 0.02400
N 	N 	-0.00000 0.45450 0.75000 -0.12300
N 	N 	0.75000 0.25000 -0.00000 -0.11000
N 	N 	0.25000 0.25000 0.50000 -0.05300
N 	N 	0.25000 0.75000 -0.00000 -0.11600
N 	N 	0.75000 0.75000 0.50000 0.00300
N 	N 	0.25000 0.25000 -0.00000 -0.14100
N 	N 	0.75000 0.25000 0.50000 -0.02400
N 	N 	0.75000 0.75000 -0.00000 -0.08000
N 	N 	0.25000 0.75000 0.50000 -0.02300
