data_crystal

_cell_length_a 12.02000
_cell_length_b 11.19000
_cell_length_c 11.06700
_cell_angle_alpha 90.00000
_cell_angle_beta  121.78000
_cell_angle_gamma 90.00000

_symmetry_space_group_name_	'P 1'
_symmetry_space_group_name_H-M	'P 1'

loop_
_symmetry_equiv_pos_as_xyz
  x,y,z

loop_
_atom_site_label
_atom_site_type_symbol
_atom_site_fract_x
_atom_site_fract_y
_atom_site_fract_z
_atom_site_charge
O 	O 	0.33860 0.12920 0.49390 -0.25400
O 	O 	0.40970 0.29340 0.62520 -0.17300
C 	C 	0.32190 0.22770 0.53400 0.24200
O 	O 	0.83860 0.62920 0.49390 -0.20900
O 	O 	0.90970 0.79340 0.62520 -0.13100
C 	C 	0.82190 0.72770 0.53400 0.24700
O 	O 	0.66140 0.12920 0.50610 -0.24700
O 	O 	0.59030 0.29340 0.37480 -0.17000
C 	C 	0.67810 0.22770 0.46600 0.25000
O 	O 	0.16140 0.62920 0.50610 -0.24300
O 	O 	0.09030 0.79340 0.37480 -0.17200
C 	C 	0.17810 0.72770 0.46600 0.24900
O 	O 	0.66140 0.87080 0.50610 -0.20300
O 	O 	0.59030 0.70660 0.37480 -0.15700
C 	C 	0.67810 0.77230 0.46600 0.25000
O 	O 	0.16140 0.37080 0.50610 -0.24700
O 	O 	0.09030 0.20660 0.37480 -0.19800
C 	C 	0.17810 0.27230 0.46600 0.24400
O 	O 	0.33860 0.87080 0.49390 -0.20900
O 	O 	0.40970 0.70660 0.62520 -0.16000
C 	C 	0.32190 0.77230 0.53400 0.24100
O 	O 	0.83860 0.37080 0.49390 -0.21300
O 	O 	0.90970 0.20660 0.62520 -0.15700
C 	C 	0.82190 0.27230 0.53400 0.24200
Na	Na	0.50000 0.00000 0.50000 0.58900
Na	Na	0.00000 0.50000 0.50000 0.58900
