data_crystal

_cell_length_a 13.76200
_cell_length_b 9.56300
_cell_length_c 9.88300
_cell_angle_alpha 90.00000
_cell_angle_beta  101.07400
_cell_angle_gamma 90.00000

_symmetry_space_group_name_	'P 1'
_symmetry_space_group_name_H-M	'P 1'

loop_
_symmetry_equiv_pos_as_xyz
  x,y,z

loop_
_atom_site_label
_atom_site_type_symbol
_atom_site_fract_x
_atom_site_fract_y
_atom_site_fract_z
_atom_site_charge
Zn	Zn	0.59568 0.06824 0.90085 1.18300
N 	N 	0.55861 0.21030 0.75140 -0.29200
O 	O 	0.72691 0.98640 0.90170 -0.44800
O 	O 	0.77134 0.19380 0.98370 -0.34500
N 	N 	0.55982 0.34630 0.57050 -0.26100
C 	C 	0.93370 0.93690 0.06920 0.00700
H 	H 	0.88930 0.89350 0.11570 0.05300
N 	N 	0.49243 0.39940 0.64340 -0.26200
C 	C 	0.79120 0.07390 0.94710 0.33600
C 	C 	0.03380 0.90480 0.10490 -0.04300
C 	C 	0.89850 0.03250 0.96530 -0.03200
O 	O 	0.15600 0.82740 0.28860 -0.48000
H 	H 	0.16920 0.77210 0.35300 0.31500
O 	O 	0.00880 0.72530 0.26110 -0.26600
C 	C 	0.59690 0.23330 0.63810 0.10600
H 	H 	0.64410 0.17610 0.61050 -0.01800
C 	C 	0.49430 0.31640 0.74870 0.10600
H 	H 	0.45520 0.32930 0.81480 -0.05000
C 	C 	0.06440 0.80790 0.22440 0.38200
Zn	Zn	0.40432 0.56824 0.59915 1.18500
N 	N 	0.44139 0.71030 0.74860 -0.29200
O 	O 	0.27309 0.48640 0.59830 -0.46000
O 	O 	0.22866 0.69380 0.51630 -0.34500
N 	N 	0.44018 0.84630 0.92950 -0.25800
C 	C 	0.06630 0.43690 0.43080 0.00900
H 	H 	0.11070 0.39350 0.38430 0.05300
N 	N 	0.50757 0.89940 0.85660 -0.26000
C 	C 	0.20880 0.57390 0.55290 0.34800
C 	C 	0.96620 0.40480 0.39510 -0.04200
C 	C 	0.10150 0.53250 0.53470 -0.03100
O 	O 	0.84400 0.32740 0.21140 -0.48000
H 	H 	0.83080 0.27210 0.14700 0.31700
O 	O 	0.99120 0.22530 0.23890 -0.26300
C 	C 	0.40310 0.73330 0.86190 0.10700
H 	H 	0.35590 0.67610 0.88950 -0.01700
C 	C 	0.50570 0.81640 0.75130 0.10600
H 	H 	0.54480 0.82930 0.68520 -0.04900
C 	C 	0.93560 0.30790 0.27560 0.38200
Zn	Zn	0.40432 0.93176 0.09915 1.18200
N 	N 	0.44139 0.78970 0.24860 -0.29300
O 	O 	0.27309 0.01360 0.09830 -0.44800
O 	O 	0.22866 0.80620 0.01630 -0.34500
N 	N 	0.44018 0.65370 0.42950 -0.26100
C 	C 	0.06630 0.06310 0.93080 0.00700
H 	H 	0.11070 0.10650 0.88430 0.05300
N 	N 	0.50757 0.60060 0.35660 -0.26200
C 	C 	0.20880 0.92610 0.05290 0.33600
C 	C 	0.96620 0.09520 0.89510 -0.04300
C 	C 	0.10150 0.96750 0.03470 -0.03200
O 	O 	0.84400 0.17260 0.71140 -0.48000
H 	H 	0.83080 0.22790 0.64700 0.31500
O 	O 	0.99120 0.27470 0.73890 -0.26600
C 	C 	0.40310 0.76670 0.36190 0.10600
H 	H 	0.35590 0.82390 0.38950 -0.01800
C 	C 	0.50570 0.68360 0.25130 0.10600
H 	H 	0.54480 0.67070 0.18520 -0.05000
C 	C 	0.93560 0.19210 0.77560 0.38200
Zn	Zn	0.59568 0.43176 0.40085 1.18500
N 	N 	0.55861 0.28970 0.25140 -0.29200
O 	O 	0.72691 0.51360 0.40170 -0.46000
O 	O 	0.77134 0.30620 0.48370 -0.34500
N 	N 	0.55982 0.15370 0.07050 -0.25800
C 	C 	0.93370 0.56310 0.56920 0.00900
H 	H 	0.88930 0.60650 0.61570 0.05300
N 	N 	0.49243 0.10060 0.14340 -0.26000
C 	C 	0.79120 0.42610 0.44710 0.34800
C 	C 	0.03380 0.59520 0.60490 -0.04200
C 	C 	0.89850 0.46750 0.46530 -0.03100
O 	O 	0.15600 0.67260 0.78860 -0.48000
H 	H 	0.16920 0.72790 0.85300 0.31700
O 	O 	0.00880 0.77470 0.76110 -0.26300
C 	C 	0.59690 0.26670 0.13810 0.10700
H 	H 	0.64410 0.32390 0.11050 -0.01700
C 	C 	0.49430 0.18360 0.24870 0.10600
H 	H 	0.45520 0.17070 0.31480 -0.04900
C 	C 	0.06440 0.69210 0.72440 0.38200
