data_crystal

_cell_length_a 9.99000
_cell_length_b 15.15300
_cell_length_c 20.30700
_cell_angle_alpha 90.00000
_cell_angle_beta  94.15200
_cell_angle_gamma 90.00000

_symmetry_space_group_name_	'P 1'
_symmetry_space_group_name_H-M	'P 1'

loop_
_symmetry_equiv_pos_as_xyz
  x,y,z

loop_
_atom_site_label
_atom_site_type_symbol
_atom_site_fract_x
_atom_site_fract_y
_atom_site_fract_z
_atom_site_charge
C 	C 	0.27750 0.04560 0.09000 0.06600
H 	H 	0.25810 0.04780 0.13400 -0.05300
C 	C 	0.40080 0.01750 0.07500 -0.14300
H 	H 	0.46390 0.00050 0.10860 0.06000
C 	C 	0.43290 0.01420 0.00900 0.05800
C 	C 	0.33390 0.04040 0.96190 -0.15100
H 	H 	0.35040 0.04020 0.91740 0.06200
C 	C 	0.21240 0.06650 0.98090 0.07200
H 	H 	0.14680 0.08240 0.94820 -0.07500
C 	C 	0.78240 0.17700 0.99030 0.05000
H 	H 	0.83460 0.16600 0.95510 -0.06000
C 	C 	0.65550 0.21180 0.97710 -0.13300
H 	H 	0.62380 0.22520 0.93410 0.05700
C 	C 	0.57490 0.22660 0.03050 0.04900
C 	C 	0.63010 0.20590 0.09240 -0.14100
H 	H 	0.58030 0.21520 0.12870 0.05900
C 	C 	0.75660 0.17210 0.10190 0.06400
H 	H 	0.79010 0.15820 0.14460 -0.05100
C 	C 	0.23280 0.31610 0.05820 0.06100
H 	H 	0.18330 0.33050 0.09370 -0.06200
C 	C 	0.36080 0.28510 0.07080 -0.14800
H 	H 	0.39660 0.27960 0.11420 0.05900
C 	C 	0.43800 0.26170 0.01880 0.06100
C 	C 	0.38090 0.27340 0.95660 -0.14500
H 	H 	0.42870 0.25970 0.92040 0.06500
C 	C 	0.25090 0.30580 0.94740 0.06800
H 	H 	0.21400 0.31360 0.90440 -0.05200
C 	C 	0.74710 0.43390 0.93350 0.05600
H 	H 	0.77950 0.42420 0.89240 -0.05300
C 	C 	0.61870 0.46710 0.93660 -0.13800
H 	H 	0.56630 0.47930 0.89790 0.05900
C 	C 	0.56800 0.48200 0.99790 0.05400
C 	C 	0.65230 0.46150 0.05390 -0.14900
H 	H 	0.62390 0.47000 0.09600 0.06200
C 	C 	0.77790 0.42850 0.04530 0.07000
H 	H 	0.83240 0.41450 0.08290 -0.06200
Cu	Cu	0.01062 0.11160 0.06484 0.78500
Cu	Cu	0.00038 0.37070 0.98112 0.78500
N 	N 	0.18200 0.07060 0.04311 -0.29200
N 	N 	0.83410 0.15820 0.05170 -0.28700
N 	N 	0.17600 0.32660 0.99720 -0.29400
N 	N 	0.82650 0.41530 0.98790 -0.29800
C 	C 	0.72250 0.95440 0.91000 0.06700
H 	H 	0.74190 0.95220 0.86600 -0.05200
C 	C 	0.59920 0.98250 0.92500 -0.14200
H 	H 	0.53610 0.99950 0.89140 0.06100
C 	C 	0.56710 0.98580 0.99100 0.05800
C 	C 	0.66610 0.95960 0.03810 -0.15100
H 	H 	0.64960 0.95980 0.08260 0.06200
C 	C 	0.78760 0.93350 0.01910 0.07200
H 	H 	0.85320 0.91760 0.05180 -0.07500
C 	C 	0.21760 0.82300 0.00970 0.05000
H 	H 	0.16540 0.83400 0.04490 -0.06000
C 	C 	0.34450 0.78820 0.02290 -0.13300
H 	H 	0.37620 0.77480 0.06590 0.05700
C 	C 	0.42510 0.77340 0.96950 0.04900
C 	C 	0.36990 0.79410 0.90760 -0.14100
H 	H 	0.41970 0.78480 0.87130 0.05900
C 	C 	0.24340 0.82790 0.89810 0.06400
H 	H 	0.20990 0.84180 0.85540 -0.05100
C 	C 	0.76720 0.68390 0.94180 0.06100
H 	H 	0.81670 0.66950 0.90630 -0.06200
C 	C 	0.63920 0.71490 0.92920 -0.14800
H 	H 	0.60340 0.72040 0.88580 0.05900
C 	C 	0.56200 0.73830 0.98120 0.06100
C 	C 	0.61910 0.72660 0.04340 -0.14500
H 	H 	0.57130 0.74030 0.07960 0.06500
C 	C 	0.74910 0.69420 0.05260 0.06800
H 	H 	0.78600 0.68640 0.09560 -0.05200
C 	C 	0.25290 0.56610 0.06650 0.05600
H 	H 	0.22050 0.57580 0.10760 -0.05300
C 	C 	0.38130 0.53290 0.06340 -0.13800
H 	H 	0.43370 0.52070 0.10210 0.05900
C 	C 	0.43200 0.51800 0.00210 0.05400
C 	C 	0.34770 0.53850 0.94610 -0.14900
H 	H 	0.37610 0.53000 0.90400 0.06200
C 	C 	0.22210 0.57150 0.95470 0.07000
H 	H 	0.16760 0.58550 0.91710 -0.06200
Cu	Cu	0.98938 0.88840 0.93516 0.78500
Cu	Cu	0.99962 0.62930 0.01888 0.78500
N 	N 	0.81800 0.92940 0.95689 -0.29200
N 	N 	0.16590 0.84180 0.94830 -0.28700
N 	N 	0.82400 0.67340 0.00280 -0.29400
N 	N 	0.17350 0.58470 0.01210 -0.29800
C 	C 	0.22250 0.54560 0.41000 0.06700
H 	H 	0.24190 0.54780 0.36600 -0.05200
C 	C 	0.09920 0.51750 0.42500 -0.14200
H 	H 	0.03610 0.50050 0.39140 0.06200
C 	C 	0.06710 0.51420 0.49100 0.05900
C 	C 	0.16610 0.54040 0.53810 -0.15200
H 	H 	0.14960 0.54020 0.58260 0.06200
C 	C 	0.28760 0.56650 0.51910 0.07300
H 	H 	0.35320 0.58240 0.55180 -0.07400
C 	C 	0.71760 0.67700 0.50970 0.04900
H 	H 	0.66540 0.66600 0.54490 -0.06100
C 	C 	0.84450 0.71180 0.52290 -0.13200
H 	H 	0.87620 0.72520 0.56590 0.05700
C 	C 	0.92510 0.72660 0.46950 0.04700
C 	C 	0.86990 0.70590 0.40760 -0.14000
H 	H 	0.91970 0.71520 0.37130 0.05900
C 	C 	0.74340 0.67210 0.39810 0.06300
H 	H 	0.70990 0.65820 0.35540 -0.05100
C 	C 	0.26720 0.81610 0.44180 0.06300
H 	H 	0.31670 0.83050 0.40630 -0.06200
C 	C 	0.13920 0.78510 0.42920 -0.15000
H 	H 	0.10340 0.77960 0.38580 0.06000
C 	C 	0.06200 0.76170 0.48120 0.06500
C 	C 	0.11910 0.77340 0.54340 -0.14700
H 	H 	0.07130 0.75970 0.57960 0.06600
C 	C 	0.24910 0.80580 0.55260 0.07000
H 	H 	0.28600 0.81360 0.59560 -0.05300
C 	C 	0.75290 0.93390 0.56650 0.05500
H 	H 	0.72050 0.92420 0.60760 -0.05300
C 	C 	0.88130 0.96710 0.56340 -0.13800
H 	H 	0.93370 0.97930 0.60210 0.05800
C 	C 	0.93200 0.98200 0.50210 0.05300
C 	C 	0.84770 0.96150 0.44610 -0.14900
H 	H 	0.87610 0.97000 0.40400 0.06200
C 	C 	0.72210 0.92850 0.45470 0.07000
H 	H 	0.66760 0.91450 0.41710 -0.06200
Cu	Cu	0.48938 0.61160 0.43516 0.78500
Cu	Cu	0.49962 0.87070 0.51888 0.78600
N 	N 	0.31800 0.57060 0.45689 -0.29100
N 	N 	0.66590 0.65820 0.44830 -0.28700
N 	N 	0.32400 0.82660 0.50280 -0.29400
N 	N 	0.67350 0.91530 0.51210 -0.29800
C 	C 	0.77750 0.45440 0.59000 0.06700
H 	H 	0.75810 0.45220 0.63400 -0.05200
C 	C 	0.90080 0.48250 0.57500 -0.14200
H 	H 	0.96390 0.49950 0.60860 0.06200
C 	C 	0.93290 0.48580 0.50900 0.05900
C 	C 	0.83390 0.45960 0.46190 -0.15200
H 	H 	0.85040 0.45980 0.41740 0.06200
C 	C 	0.71240 0.43350 0.48090 0.07300
H 	H 	0.64680 0.41760 0.44820 -0.07400
C 	C 	0.28240 0.32300 0.49030 0.04900
H 	H 	0.33460 0.33400 0.45510 -0.06100
C 	C 	0.15550 0.28820 0.47710 -0.13200
H 	H 	0.12380 0.27480 0.43410 0.05700
C 	C 	0.07490 0.27340 0.53050 0.04700
C 	C 	0.13010 0.29410 0.59240 -0.14000
H 	H 	0.08030 0.28480 0.62870 0.05900
C 	C 	0.25660 0.32790 0.60190 0.06300
H 	H 	0.29010 0.34180 0.64460 -0.05100
C 	C 	0.73280 0.18390 0.55820 0.06300
H 	H 	0.68330 0.16950 0.59370 -0.06200
C 	C 	0.86080 0.21490 0.57080 -0.15000
H 	H 	0.89660 0.22040 0.61420 0.06000
C 	C 	0.93800 0.23830 0.51880 0.06500
C 	C 	0.88090 0.22660 0.45660 -0.14700
H 	H 	0.92870 0.24030 0.42040 0.06600
C 	C 	0.75090 0.19420 0.44740 0.07000
H 	H 	0.71400 0.18640 0.40440 -0.05300
C 	C 	0.24710 0.06610 0.43350 0.05500
H 	H 	0.27950 0.07580 0.39240 -0.05300
C 	C 	0.11870 0.03290 0.43660 -0.13800
H 	H 	0.06630 0.02070 0.39790 0.05800
C 	C 	0.06800 0.01800 0.49790 0.05300
C 	C 	0.15230 0.03850 0.55390 -0.14900
H 	H 	0.12390 0.03000 0.59600 0.06200
C 	C 	0.27790 0.07150 0.54530 0.07000
H 	H 	0.33240 0.08550 0.58290 -0.06200
Cu	Cu	0.51062 0.38840 0.56484 0.78500
Cu	Cu	0.50038 0.12930 0.48112 0.78600
N 	N 	0.68200 0.42940 0.54311 -0.29100
N 	N 	0.33410 0.34180 0.55170 -0.28700
N 	N 	0.67600 0.17340 0.49720 -0.29400
N 	N 	0.32650 0.08470 0.48790 -0.29800
