data_crystal

_cell_length_a 7.53460
_cell_length_b 11.46370
_cell_length_c 17.23500
_cell_angle_alpha 82.28600
_cell_angle_beta  88.01600
_cell_angle_gamma 84.34300

_symmetry_space_group_name_	'P 1'
_symmetry_space_group_name_H-M	'P 1'

loop_
_symmetry_equiv_pos_as_xyz
  x,y,z

loop_
_atom_site_label
_atom_site_type_symbol
_atom_site_fract_x
_atom_site_fract_y
_atom_site_fract_z
_atom_site_charge
Ag	Ag	0.61849 0.51488 0.15473 0.39600
Ag	Ag	0.70200 0.77710 0.08930 0.23300
Ag	Ag	0.69100 0.77290 0.10560 0.13600
Ag	Ag	0.12950 0.73800 0.11244 0.13900
Ag	Ag	0.08520 0.74970 0.09950 0.22100
Ag	Ag	0.12192 0.36115 0.01606 0.37400
Ag	Ag	0.66020 0.94395 0.41580 0.39300
Ag	Ag	0.65476 0.19404 0.59200 0.35700
Ag	Ag	0.28829 0.30784 0.59642 0.33600
Ag	Ag	0.12591 0.26770 0.44752 0.37100
N 	N 	0.12030 0.34270 0.14580 -0.20300
N 	N 	0.12250 0.30760 0.30930 -0.19300
C 	C 	0.88570 0.62020 0.11140 -0.47000
C 	C 	0.95910 0.53110 0.14670 -0.04500
C 	C 	0.04560 0.42470 0.18850 -0.05800
C 	C 	0.04770 0.40690 0.27020 0.00000
H 	H 	0.99540 0.46610 0.29790 -0.06200
C 	C 	0.19400 0.22520 0.26670 -0.00100
H 	H 	0.24460 0.15370 0.29230 -0.00200
C 	C 	0.19540 0.24250 0.18670 -0.02900
H 	H 	0.24980 0.18330 0.15950 -0.01100
N 	N 	0.62950 0.11970 0.33920 -0.18200
N 	N 	0.63650 0.33680 0.24520 -0.18900
C 	C 	0.41970 0.21280 0.50860 -0.48900
C 	C 	0.48660 0.21500 0.44290 -0.03000
C 	C 	0.56540 0.22070 0.36600 -0.05900
C 	C 	0.57170 0.32880 0.31820 0.00800
H 	H 	0.52890 0.39790 0.33830 -0.05900
C 	C 	0.69970 0.23530 0.21940 0.00600
H 	H 	0.74580 0.23700 0.16860 -0.03600
C 	C 	0.69770 0.12800 0.26680 -0.02300
H 	H 	0.74550 0.05960 0.24730 0.00300
N 	N 	0.48690 0.89760 0.21470 0.06900
O 	O 	0.37120 0.95960 0.24870 -0.25400
O 	O 	0.45010 0.86570 0.15140 -0.33300
O 	O 	0.63580 0.86910 0.24340 -0.31600
Ag	Ag	0.38151 0.48512 0.84527 0.39700
Ag	Ag	0.29800 0.22290 0.91070 0.23400
Ag	Ag	0.30900 0.22710 0.89440 0.13700
Ag	Ag	0.87050 0.26200 0.88756 0.14000
Ag	Ag	0.91480 0.25030 0.90050 0.22100
Ag	Ag	0.87808 0.63885 0.98394 0.37400
Ag	Ag	0.33980 0.05605 0.58420 0.39300
Ag	Ag	0.34524 0.80596 0.40800 0.35700
Ag	Ag	0.71171 0.69216 0.40358 0.33600
Ag	Ag	0.87409 0.73230 0.55248 0.37100
N 	N 	0.87970 0.65730 0.85420 -0.20300
N 	N 	0.87750 0.69240 0.69070 -0.19300
C 	C 	0.11430 0.37980 0.88860 -0.47000
C 	C 	0.04090 0.46890 0.85330 -0.04500
C 	C 	0.95440 0.57530 0.81150 -0.05800
C 	C 	0.95230 0.59310 0.72980 0.00000
H 	H 	0.00460 0.53390 0.70210 -0.06200
C 	C 	0.80600 0.77480 0.73330 -0.00100
H 	H 	0.75540 0.84630 0.70770 -0.00200
C 	C 	0.80460 0.75750 0.81330 -0.02900
H 	H 	0.75020 0.81670 0.84050 -0.01100
N 	N 	0.37050 0.88030 0.66080 -0.18200
N 	N 	0.36350 0.66320 0.75480 -0.18900
C 	C 	0.58030 0.78720 0.49140 -0.48900
C 	C 	0.51340 0.78500 0.55710 -0.03000
C 	C 	0.43460 0.77930 0.63400 -0.05900
C 	C 	0.42830 0.67120 0.68180 0.00800
H 	H 	0.47110 0.60210 0.66170 -0.05900
C 	C 	0.30030 0.76470 0.78060 0.00600
H 	H 	0.25420 0.76300 0.83140 -0.03600
C 	C 	0.30230 0.87200 0.73320 -0.02300
H 	H 	0.25450 0.94040 0.75270 0.00300
N 	N 	0.51310 0.10240 0.78530 0.06900
O 	O 	0.62880 0.04040 0.75130 -0.25400
O 	O 	0.54990 0.13430 0.84860 -0.33300
O 	O 	0.36420 0.13090 0.75660 -0.31600
