data_crystal

_cell_length_a 7.73100
_cell_length_b 7.84550
_cell_length_c 7.84550
_cell_angle_alpha 116.47300
_cell_angle_beta  103.02500
_cell_angle_gamma 103.02500

_symmetry_space_group_name_	'P 1'
_symmetry_space_group_name_H-M	'P 1'

loop_
_symmetry_equiv_pos_as_xyz
  x,y,z

loop_
_atom_site_label
_atom_site_type_symbol
_atom_site_fract_x
_atom_site_fract_y
_atom_site_fract_z
_atom_site_charge
Mn	Mn	0.75000 0.14331 0.85669 1.19900
Mn	Mn	0.25000 0.85669 0.14331 1.20300
H 	H 	0.94700 0.31300 0.50100 0.04500
H 	H 	0.02500 0.61300 0.52300 -0.00900
H 	H 	0.44700 0.50100 0.31300 0.04100
H 	H 	0.52500 0.52300 0.61300 -0.00100
C 	C 	0.98120 0.11860 0.22680 0.32100
C 	C 	0.98300 0.31580 0.38800 -0.19500
C 	C 	0.02760 0.49580 0.39920 -0.08400
C 	C 	0.08030 0.53990 0.24630 0.35200
C 	C 	0.48120 0.22680 0.11860 0.35900
C 	C 	0.48300 0.38800 0.31580 -0.13900
C 	C 	0.52760 0.39920 0.49580 -0.15000
C 	C 	0.58030 0.24630 0.53990 0.37000
O 	O 	0.09140 0.04510 0.29190 -0.32700
O 	O 	0.86810 0.02890 0.04470 -0.37600
O 	O 	0.00900 0.41090 0.05970 -0.40800
O 	O 	0.20080 0.71920 0.32240 -0.51100
O 	O 	0.59140 0.29190 0.04510 -0.37100
O 	O 	0.36810 0.04470 0.02890 -0.36500
O 	O 	0.50900 0.05970 0.41090 -0.42800
O 	O 	0.70080 0.32240 0.71920 -0.52600
