data_crystal

_cell_length_a 14.70310
_cell_length_b 20.83790
_cell_length_c 20.83790
_cell_angle_alpha 82.85010
_cell_angle_beta  69.34150
_cell_angle_gamma 69.34160

_symmetry_space_group_name_	'P 1'
_symmetry_space_group_name_H-M	'P 1'

loop_
_symmetry_equiv_pos_as_xyz
  x,y,z

loop_
_atom_site_label
_atom_site_type_symbol
_atom_site_fract_x
_atom_site_fract_y
_atom_site_fract_z
_atom_site_charge
Mo	Mo	0.51022 0.94711 0.00341 1.03100
Mo	Mo	0.96074 0.55289 0.49659 1.03400
Mo	Mo	0.51363 0.99659 0.44711 1.03400
Mo	Mo	0.45733 0.50341 0.05289 1.03400
Mo	Mo	0.48978 0.05289 0.99659 1.03100
Mo	Mo	0.03926 0.44711 0.50341 1.03400
Mo	Mo	0.48637 0.00341 0.55289 1.03300
Mo	Mo	0.54267 0.49659 0.94711 1.03300
H 	H 	0.98670 0.93310 0.73730 -0.09700
H 	H 	0.76710 0.04120 0.07220 0.19500
H 	H 	0.77480 0.94500 0.02040 -0.06700
H 	H 	0.75740 0.06300 0.99780 0.19800
H 	H 	0.02780 0.93490 0.91810 -0.08400
H 	H 	0.92830 0.86480 0.03220 0.15200
H 	H 	0.16900 0.91300 0.82000 -0.37000
H 	H 	0.11960 0.00380 0.71980 0.47200
H 	H 	0.13180 0.01870 0.78930 0.48400
H 	H 	0.86420 0.04960 0.01000 0.18400
H 	H 	0.97620 0.92440 0.02540 0.16500
H 	H 	0.87980 0.92140 0.09120 0.16500
H 	H 	0.16570 0.85730 0.71290 0.58100
H 	H 	0.71710 0.94790 0.81410 -0.06300
H 	H 	0.77300 0.89210 0.71450 0.19200
H 	H 	0.87100 0.91710 0.68250 0.19100
H 	H 	0.87040 0.85840 0.74000 0.15900
H 	H 	0.70870 0.03130 0.72010 0.19600
H 	H 	0.70120 0.06250 0.78890 0.20600
H 	H 	0.80730 0.04320 0.72580 0.18600
H 	H 	0.55470 0.89170 0.20970 0.05100
H 	H 	0.54140 0.08900 0.19040 0.04800
H 	H 	0.56770 0.89300 0.31720 0.00500
H 	H 	0.54460 0.08380 0.30040 -0.00100
H 	H 	0.23080 0.97680 0.72860 0.49900
H 	H 	0.26540 0.85310 0.73010 0.59600
H 	H 	0.18160 0.82230 0.78270 0.57800
H 	H 	0.15710 0.56690 0.76270 -0.11500
H 	H 	0.38050 0.45880 0.42780 0.21500
H 	H 	0.24020 0.55500 0.47960 -0.08200
H 	H 	0.31820 0.43700 0.50220 0.22400
H 	H 	0.38080 0.56510 0.58190 -0.11100
H 	H 	0.32530 0.63520 0.46780 0.16700
H 	H 	0.40200 0.58700 0.68000 -0.41200
H 	H 	0.34320 0.49620 0.78020 0.52800
H 	H 	0.43980 0.48130 0.71070 0.54100
H 	H 	0.42380 0.45040 0.49000 0.20200
H 	H 	0.42600 0.57560 0.47460 0.18300
H 	H 	0.39240 0.57860 0.40880 0.17900
H 	H 	0.23590 0.64270 0.78710 0.63200
H 	H 	0.97910 0.55210 0.68590 -0.06700
H 	H 	0.87960 0.60790 0.78550 0.19500
H 	H 	0.97060 0.58290 0.81750 0.19400
H 	H 	0.96880 0.64160 0.76000 0.16300
H 	H 	0.96010 0.46870 0.77990 0.20100
H 	H 	0.05260 0.43750 0.71110 0.20900
H 	H 	0.07630 0.45680 0.77420 0.18900
H 	H 	0.15610 0.60830 0.29030 0.05200
H 	H 	0.32080 0.41100 0.30960 0.04900
H 	H 	0.27790 0.60700 0.18280 0.00500
H 	H 	0.42880 0.41620 0.19960 -0.00200
H 	H 	0.43620 0.52320 0.77140 0.54900
H 	H 	0.34860 0.64690 0.76990 0.64700
H 	H 	0.28660 0.67770 0.71730 0.63100
H 	H 	0.72400 0.26270 0.43310 -0.11500
H 	H 	0.83930 0.92780 0.54120 0.21700
H 	H 	0.79520 0.97960 0.44500 -0.08400
H 	H 	0.75520 0.00220 0.56300 0.22800
H 	H 	0.94590 0.08190 0.43490 -0.11000
H 	H 	0.96050 0.96780 0.36480 0.17300
H 	H 	0.98900 0.18000 0.41300 -0.41200
H 	H 	0.83940 0.28020 0.50380 0.52900
H 	H 	0.92110 0.21070 0.51870 0.54200
H 	H 	0.87420 0.99000 0.54960 0.20400
H 	H 	0.00160 0.97460 0.42440 0.19200
H 	H 	0.97100 0.90880 0.42140 0.18400
H 	H 	0.87860 0.28710 0.35730 0.63300
H 	H 	0.53120 0.18590 0.44790 -0.06800
H 	H 	0.48750 0.28550 0.39210 0.19500
H 	H 	0.55350 0.31750 0.41710 0.19400
H 	H 	0.61040 0.26000 0.35840 0.16300
H 	H 	0.42880 0.27990 0.53130 0.19800
H 	H 	0.49010 0.21110 0.56250 0.20800
H 	H 	0.53310 0.27420 0.54320 0.18800
H 	H 	0.76440 0.79030 0.39170 0.05200
H 	H 	0.73180 0.80960 0.58900 0.04900
H 	H 	0.88490 0.68280 0.39300 0.00400
H 	H 	0.84500 0.69960 0.58380 -0.00200
H 	H 	0.95940 0.27140 0.47680 0.55000
H 	H 	0.99550 0.26990 0.35310 0.64800
H 	H 	0.96430 0.21730 0.32230 0.63300
H 	H 	0.91980 0.23730 0.06690 -0.10500
H 	H 	0.80830 0.57220 0.95880 0.21300
H 	H 	0.71980 0.52040 0.05500 -0.08000
H 	H 	0.82040 0.49780 0.93700 0.22100
H 	H 	0.96270 0.41810 0.06510 -0.10400
H 	H 	0.79310 0.53220 0.13520 0.16500
H 	H 	0.08200 0.32000 0.08700 -0.38900
H 	H 	0.12340 0.21980 0.99620 0.49300
H 	H 	0.15050 0.28930 0.98130 0.50500
H 	H 	0.91380 0.51000 0.95040 0.20100
H 	H 	0.90060 0.52540 0.07560 0.18000
H 	H 	0.80120 0.59120 0.07860 0.17700
H 	H 	0.02300 0.21290 0.14270 0.60400
H 	H 	0.66500 0.31410 0.05210 -0.06800
H 	H 	0.66510 0.21450 0.10790 0.19600
H 	H 	0.78810 0.18250 0.08290 0.19600
H 	H 	0.72880 0.24000 0.14160 0.16400
H 	H 	0.74000 0.22010 0.96870 0.19900
H 	H 	0.76370 0.28890 0.93750 0.21000
H 	H 	0.85050 0.22580 0.95680 0.19000
H 	H 	0.44640 0.70970 0.10830 0.05100
H 	H 	0.63040 0.69040 0.91100 0.04800
H 	H 	0.46070 0.81720 0.10700 0.00500
H 	H 	0.62840 0.80040 0.91620 -0.00200
H 	H 	0.20760 0.22860 0.02320 0.51900
H 	H 	0.11850 0.23010 0.14690 0.61800
H 	H 	0.00390 0.28270 0.17770 0.60100
H 	H 	0.01330 0.06690 0.26270 -0.09700
H 	H 	0.23290 0.95880 0.92780 0.19500
H 	H 	0.22520 0.05500 0.97960 -0.06700
H 	H 	0.24260 0.93700 0.00220 0.19800
H 	H 	0.97220 0.06510 0.08190 -0.08400
H 	H 	0.07170 0.13520 0.96780 0.15200
H 	H 	0.83100 0.08700 0.18000 -0.37000
H 	H 	0.88040 0.99620 0.28020 0.47200
H 	H 	0.86820 0.98130 0.21070 0.48400
H 	H 	0.13580 0.95040 0.99000 0.18400
H 	H 	0.02380 0.07560 0.97460 0.16500
H 	H 	0.12020 0.07860 0.90880 0.16500
H 	H 	0.83430 0.14270 0.28710 0.58100
H 	H 	0.28290 0.05210 0.18590 -0.06300
H 	H 	0.22700 0.10790 0.28550 0.19200
H 	H 	0.12900 0.08290 0.31750 0.19100
H 	H 	0.12960 0.14160 0.26000 0.15900
H 	H 	0.29130 0.96870 0.27990 0.19600
H 	H 	0.29880 0.93750 0.21110 0.20600
H 	H 	0.19270 0.95680 0.27420 0.18600
H 	H 	0.44530 0.10830 0.79030 0.05100
H 	H 	0.45860 0.91100 0.80960 0.04800
H 	H 	0.43230 0.10700 0.68280 0.00500
H 	H 	0.45540 0.91620 0.69960 -0.00100
H 	H 	0.76920 0.02320 0.27140 0.49900
H 	H 	0.73460 0.14690 0.26990 0.59600
H 	H 	0.81840 0.17770 0.21730 0.57800
H 	H 	0.84290 0.43310 0.23730 -0.11500
H 	H 	0.61950 0.54120 0.57220 0.21500
H 	H 	0.75980 0.44500 0.52040 -0.08200
H 	H 	0.68180 0.56300 0.49780 0.22400
H 	H 	0.61920 0.43490 0.41810 -0.11100
H 	H 	0.67470 0.36480 0.53220 0.16700
H 	H 	0.59800 0.41300 0.32000 -0.41200
H 	H 	0.65680 0.50380 0.21980 0.52800
H 	H 	0.56020 0.51870 0.28930 0.54100
H 	H 	0.57620 0.54960 0.51000 0.20200
H 	H 	0.57400 0.42440 0.52540 0.18300
H 	H 	0.60760 0.42140 0.59120 0.17900
H 	H 	0.76410 0.35730 0.21290 0.63200
H 	H 	0.02090 0.44790 0.31410 -0.06700
H 	H 	0.12040 0.39210 0.21450 0.19500
H 	H 	0.02940 0.41710 0.18250 0.19400
H 	H 	0.03120 0.35840 0.24000 0.16300
H 	H 	0.03990 0.53130 0.22010 0.20100
H 	H 	0.94740 0.56250 0.28890 0.20900
H 	H 	0.92370 0.54320 0.22580 0.18900
H 	H 	0.84390 0.39170 0.70970 0.05200
H 	H 	0.67920 0.58900 0.69040 0.04900
H 	H 	0.72210 0.39300 0.81720 0.00500
H 	H 	0.57120 0.58380 0.80040 -0.00200
H 	H 	0.56380 0.47680 0.22860 0.54900
H 	H 	0.65140 0.35310 0.23010 0.64700
H 	H 	0.71340 0.32230 0.28270 0.63100
H 	H 	0.27600 0.73730 0.56690 -0.11500
H 	H 	0.16070 0.07220 0.45880 0.21700
H 	H 	0.20480 0.02040 0.55500 -0.08400
H 	H 	0.24480 0.99780 0.43700 0.22800
H 	H 	0.05410 0.91810 0.56510 -0.11000
H 	H 	0.03950 0.03220 0.63520 0.17300
H 	H 	0.01100 0.82000 0.58700 -0.41200
H 	H 	0.16060 0.71980 0.49620 0.52900
H 	H 	0.07890 0.78930 0.48130 0.54200
H 	H 	0.12580 0.01000 0.45040 0.20400
H 	H 	0.99840 0.02540 0.57560 0.19200
H 	H 	0.02900 0.09120 0.57860 0.18400
H 	H 	0.12140 0.71290 0.64270 0.63300
H 	H 	0.46880 0.81410 0.55210 -0.06800
H 	H 	0.51250 0.71450 0.60790 0.19500
H 	H 	0.44650 0.68250 0.58290 0.19400
H 	H 	0.38960 0.74000 0.64160 0.16300
H 	H 	0.57120 0.72010 0.46870 0.19800
H 	H 	0.50990 0.78890 0.43750 0.20800
H 	H 	0.46690 0.72580 0.45680 0.18800
H 	H 	0.23560 0.20970 0.60830 0.05200
H 	H 	0.26820 0.19040 0.41100 0.04900
H 	H 	0.11510 0.31720 0.60700 0.00400
H 	H 	0.15500 0.30040 0.41620 -0.00200
H 	H 	0.04060 0.72860 0.52320 0.55000
H 	H 	0.00450 0.73010 0.64690 0.64800
H 	H 	0.03570 0.78270 0.67770 0.63300
H 	H 	0.08020 0.76270 0.93310 -0.10500
H 	H 	0.19170 0.42780 0.04120 0.21300
H 	H 	0.28020 0.47960 0.94500 -0.08000
H 	H 	0.17960 0.50220 0.06300 0.22100
H 	H 	0.03730 0.58190 0.93490 -0.10400
H 	H 	0.20690 0.46780 0.86480 0.16500
H 	H 	0.91800 0.68000 0.91300 -0.38900
H 	H 	0.87660 0.78020 0.00380 0.49300
H 	H 	0.84950 0.71070 0.01870 0.50500
H 	H 	0.08620 0.49000 0.04960 0.20100
H 	H 	0.09940 0.47460 0.92440 0.18000
H 	H 	0.19880 0.40880 0.92140 0.17700
H 	H 	0.97700 0.78710 0.85730 0.60400
H 	H 	0.33500 0.68590 0.94790 -0.06800
H 	H 	0.33490 0.78550 0.89210 0.19600
H 	H 	0.21190 0.81750 0.91710 0.19600
H 	H 	0.27120 0.76000 0.85840 0.16400
H 	H 	0.26000 0.77990 0.03130 0.19900
H 	H 	0.23630 0.71110 0.06250 0.21000
H 	H 	0.14950 0.77420 0.04320 0.19000
H 	H 	0.55360 0.29030 0.89170 0.05100
H 	H 	0.36960 0.30960 0.08900 0.04800
H 	H 	0.53930 0.18280 0.89300 0.00500
H 	H 	0.37160 0.19960 0.08380 -0.00200
H 	H 	0.79240 0.77140 0.97680 0.51900
H 	H 	0.88150 0.76990 0.85310 0.61800
H 	H 	0.99610 0.71730 0.82230 0.60100
C 	C 	0.70300 0.97121 0.92779 0.28900
C 	C 	0.81581 0.95708 0.89030 0.05000
C 	C 	0.88176 0.95104 0.92664 -0.21900
C 	C 	0.98340 0.93920 0.89280 0.27900
C 	C 	0.02370 0.93340 0.82300 -0.55200
C 	C 	0.95900 0.93800 0.78580 0.22300
C 	C 	0.85310 0.95001 0.81959 -0.20600
C 	C 	0.83778 0.95892 0.00412 0.30000
C 	C 	0.80350 0.03510 0.02270 -0.59100
C 	C 	0.91230 0.91320 0.04180 -0.57000
C 	C 	0.14030 0.92020 0.78180 1.40900
C 	C 	0.15710 0.98540 0.75240 -1.63700
C 	C 	0.19170 0.85910 0.74970 -2.04200
C 	C 	0.78020 0.95600 0.78060 0.32300
C 	C 	0.82800 0.90090 0.72430 -0.61100
C 	C 	0.74620 0.03010 0.75110 -0.61700
C 	C 	0.53355 0.99377 0.12053 0.30500
C 	C 	0.54373 0.99163 0.18831 -0.05500
C 	C 	0.55272 0.93254 0.22682 -0.07200
C 	C 	0.54367 0.04778 0.21608 -0.06200
C 	C 	0.55880 0.93440 0.29160 0.03600
C 	C 	0.54700 0.04375 0.28145 0.02800
C 	C 	0.10200 0.52879 0.57221 0.27300
C 	C 	0.16319 0.54292 0.60970 0.07900
C 	C 	0.25944 0.54896 0.57336 -0.27400
C 	C 	0.31540 0.56080 0.60720 0.34500
C 	C 	0.28010 0.56660 0.67700 -0.62900
C 	C 	0.18280 0.56200 0.71420 0.26900
C 	C 	0.12270 0.54999 0.68041 -0.23400
C 	C 	0.30082 0.54108 0.49588 0.36500
C 	C 	0.36130 0.46490 0.47730 -0.66700
C 	C 	0.36730 0.58680 0.45820 -0.62000
C 	C 	0.34230 0.57980 0.71820 1.56000
C 	C 	0.39490 0.51460 0.74760 -1.81900
C 	C 	0.30050 0.64090 0.75030 -2.22300
C 	C 	0.01680 0.54400 0.71940 0.33600
C 	C 	0.95320 0.59910 0.77570 -0.62200
C 	C 	0.02740 0.46990 0.74890 -0.63000
C 	C 	0.14785 0.50623 0.37947 0.31200
C 	C 	0.22367 0.50837 0.31169 -0.05100
C 	C 	0.21208 0.56746 0.27318 -0.07300
C 	C 	0.30753 0.45222 0.28392 -0.07000
C 	C 	0.28480 0.56560 0.20840 0.03700
C 	C 	0.37220 0.45625 0.21855 0.02500
C 	C 	0.63079 0.07221 0.47121 0.27300
C 	C 	0.70611 0.10970 0.45708 0.08000
C 	C 	0.80840 0.07336 0.45104 -0.27200
C 	C 	0.87620 0.10720 0.43920 0.34600
C 	C 	0.84670 0.17700 0.43340 -0.62900
C 	C 	0.74480 0.21420 0.43800 0.27000
C 	C 	0.67269 0.18041 0.45001 -0.23400
C 	C 	0.84190 0.99588 0.45892 0.37000
C 	C 	0.82620 0.97730 0.53510 -0.67600
C 	C 	0.95410 0.95820 0.41320 -0.63900
C 	C 	0.92210 0.21820 0.42020 1.56100
C 	C 	0.90950 0.24760 0.48540 -1.82200
C 	C 	0.94140 0.25030 0.35910 -2.22500
C 	C 	0.56080 0.21940 0.45600 0.33600
C 	C 	0.55230 0.27570 0.40090 -0.62300
C 	C 	0.49730 0.24890 0.53010 -0.62500
C 	C 	0.65408 0.87947 0.49377 0.31200
C 	C 	0.73204 0.81169 0.49163 -0.05100
C 	C 	0.77954 0.77318 0.43254 -0.07400
C 	C 	0.75975 0.78392 0.54778 -0.07000
C 	C 	0.85040 0.70840 0.43440 0.03700
C 	C 	0.82845 0.71855 0.54375 0.02500
C 	C 	0.67421 0.42779 0.02879 0.27500
C 	C 	0.77289 0.39030 0.04292 0.07100
C 	C 	0.83280 0.42664 0.04896 -0.26100
C 	C 	0.92260 0.39280 0.06080 0.32300
C 	C 	0.95710 0.32300 0.06660 -0.59500
C 	C 	0.89700 0.28580 0.06200 0.25100
C 	C 	0.80311 0.31959 0.04999 -0.22600
C 	C 	0.79670 0.50412 0.04108 0.35500
C 	C 	0.83860 0.52270 0.96490 -0.65900
C 	C 	0.82550 0.54180 0.08680 -0.61200
C 	C 	0.06050 0.28180 0.07980 1.47600
C 	C 	0.14250 0.25240 0.01460 -1.70800
C 	C 	0.05080 0.24970 0.14090 -2.12200
C 	C 	0.73620 0.28060 0.04400 0.33700
C 	C 	0.72890 0.22430 0.09910 -0.62400
C 	C 	0.77630 0.25110 0.96990 -0.62900
C 	C 	0.52732 0.62053 0.00623 0.31100
C 	C 	0.53536 0.68831 0.00837 -0.05500
C 	C 	0.48526 0.72682 0.06746 -0.07200
C 	C 	0.59145 0.71608 0.95222 -0.06600
C 	C 	0.49320 0.79160 0.06560 0.03600
C 	C 	0.59075 0.78145 0.95625 0.03000
C 	C 	0.29700 0.02879 0.07221 0.28900
C 	C 	0.18419 0.04292 0.10970 0.05000
C 	C 	0.11824 0.04896 0.07336 -0.21900
C 	C 	0.01660 0.06080 0.10720 0.27900
C 	C 	0.97630 0.06660 0.17700 -0.55200
C 	C 	0.04100 0.06200 0.21420 0.22300
C 	C 	0.14690 0.04999 0.18041 -0.20600
C 	C 	0.16222 0.04108 0.99588 0.30000
C 	C 	0.19650 0.96490 0.97730 -0.59100
C 	C 	0.08770 0.08680 0.95820 -0.57000
C 	C 	0.85970 0.07980 0.21820 1.40900
C 	C 	0.84290 0.01460 0.24760 -1.63700
C 	C 	0.80830 0.14090 0.25030 -2.04200
C 	C 	0.21980 0.04400 0.21940 0.32300
C 	C 	0.17200 0.09910 0.27570 -0.61100
C 	C 	0.25380 0.96990 0.24890 -0.61700
C 	C 	0.46645 0.00623 0.87947 0.30500
C 	C 	0.45627 0.00837 0.81169 -0.05500
C 	C 	0.44728 0.06746 0.77318 -0.07200
C 	C 	0.45633 0.95222 0.78392 -0.06200
C 	C 	0.44120 0.06560 0.70840 0.03600
C 	C 	0.45300 0.95625 0.71855 0.02800
C 	C 	0.89800 0.47121 0.42779 0.27300
C 	C 	0.83681 0.45708 0.39030 0.07900
C 	C 	0.74056 0.45104 0.42664 -0.27400
C 	C 	0.68460 0.43920 0.39280 0.34500
C 	C 	0.71990 0.43340 0.32300 -0.62900
C 	C 	0.81720 0.43800 0.28580 0.26900
C 	C 	0.87730 0.45001 0.31959 -0.23400
C 	C 	0.69918 0.45892 0.50412 0.36500
C 	C 	0.63870 0.53510 0.52270 -0.66700
C 	C 	0.63270 0.41320 0.54180 -0.62000
C 	C 	0.65770 0.42020 0.28180 1.56000
C 	C 	0.60510 0.48540 0.25240 -1.81900
C 	C 	0.69950 0.35910 0.24970 -2.22300
C 	C 	0.98320 0.45600 0.28060 0.33600
C 	C 	0.04680 0.40090 0.22430 -0.62200
C 	C 	0.97260 0.53010 0.25110 -0.63000
C 	C 	0.85215 0.49377 0.62053 0.31200
C 	C 	0.77633 0.49163 0.68831 -0.05100
C 	C 	0.78792 0.43254 0.72682 -0.07300
C 	C 	0.69247 0.54778 0.71608 -0.07000
C 	C 	0.71520 0.43440 0.79160 0.03700
C 	C 	0.62780 0.54375 0.78145 0.02500
C 	C 	0.36921 0.92779 0.52879 0.27300
C 	C 	0.29389 0.89030 0.54292 0.08000
C 	C 	0.19160 0.92664 0.54896 -0.27200
C 	C 	0.12380 0.89280 0.56080 0.34600
C 	C 	0.15330 0.82300 0.56660 -0.62900
C 	C 	0.25520 0.78580 0.56200 0.27000
C 	C 	0.32731 0.81959 0.54999 -0.23400
C 	C 	0.15810 0.00412 0.54108 0.37000
C 	C 	0.17380 0.02270 0.46490 -0.67600
C 	C 	0.04590 0.04180 0.58680 -0.63900
C 	C 	0.07790 0.78180 0.57980 1.56100
C 	C 	0.09050 0.75240 0.51460 -1.82200
C 	C 	0.05860 0.74970 0.64090 -2.22500
C 	C 	0.43920 0.78060 0.54400 0.33600
C 	C 	0.44770 0.72430 0.59910 -0.62300
C 	C 	0.50270 0.75110 0.46990 -0.62500
C 	C 	0.34592 0.12053 0.50623 0.31200
C 	C 	0.26796 0.18831 0.50837 -0.05100
C 	C 	0.22046 0.22682 0.56746 -0.07400
C 	C 	0.24025 0.21608 0.45222 -0.07000
C 	C 	0.14960 0.29160 0.56560 0.03700
C 	C 	0.17155 0.28145 0.45625 0.02500
C 	C 	0.32579 0.57221 0.97121 0.27500
C 	C 	0.22711 0.60970 0.95708 0.07100
C 	C 	0.16720 0.57336 0.95104 -0.26100
C 	C 	0.07740 0.60720 0.93920 0.32300
C 	C 	0.04290 0.67700 0.93340 -0.59500
C 	C 	0.10300 0.71420 0.93800 0.25100
C 	C 	0.19689 0.68041 0.95001 -0.22600
C 	C 	0.20330 0.49588 0.95892 0.35500
C 	C 	0.16140 0.47730 0.03510 -0.65900
C 	C 	0.17450 0.45820 0.91320 -0.61200
C 	C 	0.93950 0.71820 0.92020 1.47600
C 	C 	0.85750 0.74760 0.98540 -1.70800
C 	C 	0.94920 0.75030 0.85910 -2.12200
C 	C 	0.26380 0.71940 0.95600 0.33700
C 	C 	0.27110 0.77570 0.90090 -0.62400
C 	C 	0.22370 0.74890 0.03010 -0.62900
C 	C 	0.47268 0.37947 0.99377 0.31100
C 	C 	0.46464 0.31169 0.99163 -0.05500
C 	C 	0.51474 0.27318 0.93254 -0.07200
C 	C 	0.40855 0.28392 0.04778 -0.06600
C 	C 	0.50680 0.20840 0.93440 0.03600
C 	C 	0.40925 0.21855 0.04375 0.03000
N 	N 	0.55338 0.98833 0.31971 -0.18300
N 	N 	0.36142 0.51167 0.18029 -0.18200
N 	N 	0.87309 0.68029 0.48833 -0.18200
N 	N 	0.54171 0.81971 0.01167 -0.18500
N 	N 	0.44662 0.01167 0.68029 -0.18300
N 	N 	0.63858 0.48833 0.81971 -0.18200
N 	N 	0.12691 0.31971 0.51167 -0.18200
N 	N 	0.45829 0.18029 0.98833 -0.18500
O 	O 	0.66822 0.92206 0.94706 -0.42800
O 	O 	0.53837 0.93890 0.09652 -0.42700
O 	O 	0.64678 0.03382 0.93990 -0.42500
O 	O 	0.51674 0.05076 0.08934 -0.41800
O 	O 	0.03734 0.57794 0.55294 -0.42700
O 	O 	0.07379 0.56110 0.40348 -0.42700
O 	O 	0.12050 0.46618 0.56010 -0.41900
O 	O 	0.15684 0.44924 0.41066 -0.42600
O 	O 	0.61528 0.05294 0.42206 -0.42400
O 	O 	0.63489 0.90348 0.43890 -0.42700
O 	O 	0.58668 0.06010 0.53382 -0.41800
O 	O 	0.60608 0.91066 0.55076 -0.42600
O 	O 	0.59028 0.44706 0.07794 -0.42800
O 	O 	0.47727 0.59652 0.06110 -0.42700
O 	O 	0.68060 0.43990 0.96618 -0.41900
O 	O 	0.56750 0.58934 0.94924 -0.42500
O 	O 	0.33178 0.07794 0.05294 -0.42800
O 	O 	0.46163 0.06110 0.90348 -0.42700
O 	O 	0.35322 0.96618 0.06010 -0.42500
O 	O 	0.48326 0.94924 0.91066 -0.41800
O 	O 	0.96266 0.42206 0.44706 -0.42700
O 	O 	0.92621 0.43890 0.59652 -0.42700
O 	O 	0.87950 0.53382 0.43990 -0.41900
O 	O 	0.84316 0.55076 0.58934 -0.42600
O 	O 	0.38472 0.94706 0.57794 -0.42400
O 	O 	0.36511 0.09652 0.56110 -0.42700
O 	O 	0.41332 0.93990 0.46618 -0.41800
O 	O 	0.39392 0.08934 0.44924 -0.42600
O 	O 	0.40972 0.55294 0.92206 -0.42800
O 	O 	0.52273 0.40348 0.93890 -0.42700
O 	O 	0.31940 0.56010 0.03382 -0.41900
O 	O 	0.43250 0.41066 0.05076 -0.42500
