data_crystal

_cell_length_a 19.15950
_cell_length_b 15.14280
_cell_length_c 6.61800
_cell_angle_alpha 90.00000
_cell_angle_beta  90.00000
_cell_angle_gamma 90.00000

_symmetry_space_group_name_	'P 1'
_symmetry_space_group_name_H-M	'P 1'

loop_
_symmetry_equiv_pos_as_xyz
  x,y,z

loop_
_atom_site_label
_atom_site_type_symbol
_atom_site_fract_x
_atom_site_fract_y
_atom_site_fract_z
_atom_site_charge
P 	P 	0.05990 0.38750 0.92170 1.02000
O 	O 	0.31940 0.51790 0.81080 -0.55900
O 	O 	0.10730 0.60460 0.68430 -0.61500
O 	O 	0.27510 0.77040 0.81320 -0.56300
O 	O 	0.06600 0.38370 0.68090 -0.35600
H 	H 	0.04100 0.42300 0.58310 0.16900
P 	P 	0.94010 0.61250 0.92170 1.02100
O 	O 	0.68060 0.48210 0.81080 -0.55800
O 	O 	0.89270 0.39540 0.68430 -0.61400
O 	O 	0.72490 0.22960 0.81320 -0.56200
O 	O 	0.93400 0.61630 0.68090 -0.35500
H 	H 	0.95900 0.57700 0.58310 0.17000
P 	P 	0.44010 0.88750 0.57830 0.43600
O 	O 	0.18060 0.01790 0.68920 -0.59800
O 	O 	0.39270 0.10460 0.81570 -0.56400
O 	O 	0.22490 0.27040 0.68680 -0.60700
O 	O 	0.43400 0.88370 0.81910 -0.26000
H 	H 	0.45900 0.92300 0.91690 0.22100
P 	P 	0.55990 0.11250 0.57830 0.43600
O 	O 	0.81940 0.98210 0.68920 -0.59800
O 	O 	0.60730 0.89540 0.81570 -0.56400
O 	O 	0.77510 0.72960 0.68680 -0.60700
O 	O 	0.56600 0.11630 0.81910 -0.26000
H 	H 	0.54100 0.07700 0.91690 0.22100
P 	P 	0.94010 0.61250 0.07830 0.00500
O 	O 	0.68060 0.48210 0.18920 -0.69300
O 	O 	0.89270 0.39540 0.31570 -0.67000
O 	O 	0.72490 0.22960 0.18680 -0.69600
O 	O 	0.93400 0.61630 0.31910 -0.18100
H 	H 	0.95900 0.57700 0.41690 0.11600
P 	P 	0.05990 0.38750 0.07830 0.00500
O 	O 	0.31940 0.51790 0.18920 -0.69300
O 	O 	0.10730 0.60460 0.31570 -0.67000
O 	O 	0.27510 0.77040 0.18680 -0.69600
O 	O 	0.06600 0.38370 0.31910 -0.18100
H 	H 	0.04100 0.42300 0.41690 0.11600
P 	P 	0.55990 0.11250 0.42170 0.39200
O 	O 	0.81940 0.98210 0.31080 -0.67700
O 	O 	0.60730 0.89540 0.18430 -0.69200
O 	O 	0.77510 0.72960 0.31320 -0.67900
O 	O 	0.56600 0.11630 0.18090 -0.30100
H 	H 	0.54100 0.07700 0.08310 0.05700
P 	P 	0.44010 0.88750 0.42170 0.39200
O 	O 	0.18060 0.01790 0.31080 -0.67700
O 	O 	0.39270 0.10460 0.18430 -0.69200
O 	O 	0.22490 0.27040 0.31320 -0.67900
O 	O 	0.43400 0.88370 0.18090 -0.30100
H 	H 	0.45900 0.92300 0.08310 0.05700
Zr	Zr	0.11320 0.60463 -0.00000 3.21700
Zr	Zr	0.22056 0.27578 -0.00000 3.20500
P 	P 	0.27730 0.49920 -0.00000 0.71100
P 	P 	0.22670 0.78360 -0.00000 0.61600
O 	O 	0.20930 0.55160 -0.00000 -0.82800
O 	O 	0.07770 0.47940 -0.00000 -0.88200
O 	O 	0.15840 0.71800 -0.00000 -0.81300
O 	O 	0.26170 0.40180 -0.00000 -0.82400
O 	O 	0.11480 0.32520 -0.00000 -0.74200
O 	O 	0.98780 0.35150 -0.00000 -0.78000
O 	O 	0.20370 0.88090 -0.00000 -0.79800
Zr	Zr	0.88680 0.39537 -0.00000 3.21700
Zr	Zr	0.77944 0.72422 -0.00000 3.20500
P 	P 	0.72270 0.50080 -0.00000 0.71100
P 	P 	0.77330 0.21640 -0.00000 0.61600
O 	O 	0.79070 0.44840 -0.00000 -0.82800
O 	O 	0.92230 0.52060 -0.00000 -0.88200
O 	O 	0.84160 0.28200 -0.00000 -0.81300
O 	O 	0.73830 0.59820 -0.00000 -0.82400
O 	O 	0.88520 0.67480 -0.00000 -0.74200
O 	O 	0.01220 0.64850 -0.00000 -0.78000
O 	O 	0.79630 0.11910 -0.00000 -0.79800
Zr	Zr	0.38680 0.10463 0.50000 3.22400
Zr	Zr	0.27944 0.77578 0.50000 3.21400
P 	P 	0.22270 0.99920 0.50000 0.83000
P 	P 	0.27330 0.28360 0.50000 0.72900
O 	O 	0.29070 0.05160 0.50000 -0.77600
O 	O 	0.42230 0.97940 0.50000 -0.77600
O 	O 	0.34160 0.21800 0.50000 -0.76300
O 	O 	0.23830 0.90180 0.50000 -0.76400
O 	O 	0.38520 0.82520 0.50000 -0.63800
O 	O 	0.51220 0.85150 0.50000 -0.68200
O 	O 	0.29630 0.38090 0.50000 -0.74400
Zr	Zr	0.61320 0.89537 0.50000 3.22400
Zr	Zr	0.72056 0.22422 0.50000 3.21400
P 	P 	0.77730 0.00080 0.50000 0.83000
P 	P 	0.72670 0.71640 0.50000 0.72900
O 	O 	0.70930 0.94840 0.50000 -0.77600
O 	O 	0.57770 0.02060 0.50000 -0.77600
O 	O 	0.65840 0.78200 0.50000 -0.76300
O 	O 	0.76170 0.09820 0.50000 -0.76400
O 	O 	0.61480 0.17480 0.50000 -0.63800
O 	O 	0.48780 0.14850 0.50000 -0.68200
O 	O 	0.70370 0.61910 0.50000 -0.74400
Zr	Zr	0.31685 0.51094 0.50000 3.22800
P 	P 	0.15320 0.61420 0.50000 0.78800
F 	F 	0.33090 0.65020 0.50000 -0.98400
O 	O 	0.18830 0.70730 0.50000 -0.74000
O 	O 	0.21070 0.54840 0.50000 -0.73800
F 	F 	0.41840 0.51050 0.50000 -0.70700
Zr	Zr	0.68315 0.48906 0.50000 3.22800
P 	P 	0.84680 0.38580 0.50000 0.78800
F 	F 	0.66910 0.34980 0.50000 -0.98400
O 	O 	0.81170 0.29270 0.50000 -0.74000
O 	O 	0.78930 0.45160 0.50000 -0.73800
F 	F 	0.58160 0.48950 0.50000 -0.70700
Zr	Zr	0.18315 0.01094 -0.00000 3.21900
P 	P 	0.34680 0.11420 -0.00000 0.67000
F 	F 	0.16910 0.15020 -0.00000 -1.02600
O 	O 	0.31170 0.20730 -0.00000 -0.80800
O 	O 	0.28930 0.04840 -0.00000 -0.79800
F 	F 	0.08160 0.01050 -0.00000 -0.74800
Zr	Zr	0.81685 0.98906 -0.00000 3.21900
P 	P 	0.65320 0.88580 -0.00000 0.67000
F 	F 	0.83090 0.84980 -0.00000 -1.02600
O 	O 	0.68830 0.79270 -0.00000 -0.80800
O 	O 	0.71070 0.95160 -0.00000 -0.79800
F 	F 	0.91840 0.98950 -0.00000 -0.74800
