data_crystal

_cell_length_a 8.57900
_cell_length_b 10.18400
_cell_length_c 11.10700
_cell_angle_alpha 64.78000
_cell_angle_beta  71.73000
_cell_angle_gamma 79.30000

_symmetry_space_group_name_	'P 1'
_symmetry_space_group_name_H-M	'P 1'

loop_
_symmetry_equiv_pos_as_xyz
  x,y,z

loop_
_atom_site_label
_atom_site_type_symbol
_atom_site_fract_x
_atom_site_fract_y
_atom_site_fract_z
_atom_site_charge
Tb	Tb	0.13200 0.93860 0.15515 1.59400
O 	O 	0.39670 0.80170 0.19380 -0.41700
O 	O 	0.17680 0.76310 0.37000 -0.38800
O 	O 	0.12930 0.70740 0.14660 -0.41200
O 	O 	0.03090 0.86830 0.97760 -0.50300
O 	O 	0.94160 0.02000 0.32780 -0.38800
O 	O 	0.84320 0.87920 0.26700 -0.38400
C 	C 	0.41680 0.61130 0.41140 -0.05900
C 	C 	0.33670 0.53710 0.54870 -0.02500
H 	H 	0.22640 0.56130 0.58180 0.05800
C 	C 	0.58110 0.57250 0.36280 -0.01900
H 	H 	0.63590 0.62020 0.27060 0.04400
C 	C 	0.32500 0.73190 0.31940 0.30800
C 	C 	0.03150 0.61570 0.02200 -0.12100
C 	C 	0.03910 0.63280 0.89010 -0.00900
H 	H 	0.06520 0.72140 0.81650 0.03500
C 	C 	0.99240 0.48290 0.13250 -0.00900
H 	H 	0.98740 0.47160 0.22120 0.04700
C 	C 	0.06470 0.73830 0.05040 0.36000
C 	C 	0.65600 0.98070 0.41890 -0.05900
C 	C 	0.52480 0.91220 0.42840 -0.03000
H 	H 	0.54140 0.85330 0.38000 0.04800
C 	C 	0.63180 0.06960 0.49050 -0.03200
H 	H 	0.71910 0.11630 0.48430 0.05600
C 	C 	0.82400 0.95840 0.33330 0.30500
Tb	Tb	0.86801 0.06140 0.84484 1.59500
O 	O 	0.60330 0.19830 0.80620 -0.41700
O 	O 	0.82320 0.23690 0.63000 -0.38900
O 	O 	0.87070 0.29260 0.85340 -0.41200
O 	O 	0.96910 0.13170 0.02240 -0.50300
O 	O 	0.05840 0.98000 0.67220 -0.38800
O 	O 	0.15680 0.12080 0.73300 -0.38400
C 	C 	0.58320 0.38870 0.58860 -0.05900
C 	C 	0.66330 0.46290 0.45130 -0.02500
H 	H 	0.77360 0.43870 0.41820 0.05800
C 	C 	0.41890 0.42750 0.63720 -0.01900
H 	H 	0.36410 0.37980 0.72940 0.04400
C 	C 	0.67500 0.26810 0.68060 0.30800
C 	C 	0.96850 0.38430 0.97800 -0.12100
C 	C 	0.96090 0.36720 0.10990 -0.00900
H 	H 	0.93480 0.27860 0.18350 0.03500
C 	C 	0.00760 0.51710 0.86750 -0.00900
H 	H 	0.01260 0.52840 0.77880 0.04700
C 	C 	0.93530 0.26170 0.94960 0.36000
C 	C 	0.34400 0.01930 0.58110 -0.05900
C 	C 	0.47520 0.08780 0.57160 -0.03000
H 	H 	0.45860 0.14670 0.62000 0.04800
C 	C 	0.36820 0.93040 0.50950 -0.03200
H 	H 	0.28090 0.88370 0.51570 0.05600
C 	C 	0.17600 0.04160 0.66670 0.30500
