data_crystal

_cell_length_a 8.54660
_cell_length_b 10.17030
_cell_length_c 11.19210
_cell_angle_alpha 65.53100
_cell_angle_beta  71.88600
_cell_angle_gamma 78.79600

_symmetry_space_group_name_	'P 1'
_symmetry_space_group_name_H-M	'P 1'

loop_
_symmetry_equiv_pos_as_xyz
  x,y,z

loop_
_atom_site_label
_atom_site_type_symbol
_atom_site_fract_x
_atom_site_fract_y
_atom_site_fract_z
_atom_site_charge
Tb	Tb	0.36688 0.06013 0.84597 1.61100
O 	O 	0.32530 0.23480 0.63280 -0.38100
O 	O 	0.10170 0.19840 0.80570 -0.41300
O 	O 	0.55980 0.97510 0.67640 -0.38600
O 	O 	0.65480 0.11910 0.73660 -0.38300
O 	O 	0.36780 0.29090 0.85690 -0.41400
O 	O 	0.46820 0.13130 0.02250 -0.51300
C 	C 	0.91940 0.43110 0.63460 -0.02200
H 	H 	0.86400 0.38530 0.72510 0.04500
C 	C 	0.08320 0.38950 0.58820 -0.05300
C 	C 	0.16240 0.45910 0.45330 -0.02700
H 	H 	0.27260 0.43190 0.42090 0.05800
C 	C 	0.17520 0.26800 0.68100 0.29300
C 	C 	0.86940 0.93060 0.50800 -0.02900
H 	H 	0.78230 0.88430 0.51330 0.05500
C 	C 	0.84460 0.01760 0.58280 -0.05800
C 	C 	0.97590 0.08590 0.57370 -0.03300
H 	H 	0.95930 0.14370 0.62340 0.04800
C 	C 	0.67690 0.03830 0.66950 0.29700
C 	C 	0.45900 0.36930 0.10910 -0.02100
H 	H 	0.43130 0.28250 0.18200 0.03700
C 	C 	0.46780 0.38330 0.97790 -0.10800
C 	C 	0.50810 0.51450 0.86920 -0.01900
H 	H 	0.51300 0.52430 0.78180 0.04800
C 	C 	0.43350 0.26130 0.95140 0.37000
Tb	Tb	0.63312 0.93987 0.15403 1.61000
O 	O 	0.67470 0.76520 0.36720 -0.38200
O 	O 	0.89830 0.80160 0.19430 -0.41400
O 	O 	0.44020 0.02490 0.32360 -0.38700
O 	O 	0.34520 0.88090 0.26340 -0.38300
O 	O 	0.63220 0.70910 0.14310 -0.41400
O 	O 	0.53180 0.86870 0.97750 -0.51300
C 	C 	0.08060 0.56890 0.36540 -0.02200
H 	H 	0.13600 0.61470 0.27490 0.04500
C 	C 	0.91680 0.61050 0.41180 -0.05300
C 	C 	0.83760 0.54090 0.54670 -0.02700
H 	H 	0.72740 0.56810 0.57910 0.05800
C 	C 	0.82480 0.73200 0.31900 0.29300
C 	C 	0.13060 0.06940 0.49200 -0.02900
H 	H 	0.21770 0.11570 0.48670 0.05500
C 	C 	0.15540 0.98240 0.41720 -0.05800
C 	C 	0.02410 0.91410 0.42630 -0.03300
H 	H 	0.04070 0.85630 0.37660 0.04800
C 	C 	0.32310 0.96170 0.33050 0.29700
C 	C 	0.54100 0.63070 0.89090 -0.02100
H 	H 	0.56870 0.71750 0.81800 0.03700
C 	C 	0.53220 0.61670 0.02210 -0.10800
C 	C 	0.49190 0.48550 0.13080 -0.01900
H 	H 	0.48700 0.47570 0.21820 0.04800
C 	C 	0.56650 0.73870 0.04860 0.37000
