data_crystal

_cell_length_a 15.24290
_cell_length_b 15.24290
_cell_length_c 20.68940
_cell_angle_alpha 68.38450
_cell_angle_beta  68.38450
_cell_angle_gamma 60.00000

_symmetry_space_group_name_	'P 1'
_symmetry_space_group_name_H-M	'P 1'

loop_
_symmetry_equiv_pos_as_xyz
  x,y,z

loop_
_atom_site_label
_atom_site_type_symbol
_atom_site_fract_x
_atom_site_fract_y
_atom_site_fract_z
_atom_site_charge
Mn	Mn	0.37695 0.38312 0.25469 1.27400
Mn	Mn	0.38312 0.98524 0.25469 1.27400
Mn	Mn	0.98524 0.37695 0.25469 1.27400
Mn	Mn	0.12305 0.51476 0.24531 1.27400
Mn	Mn	0.72166 0.72166 0.83502 1.27700
Mn	Mn	0.61688 0.01476 0.74531 1.27400
Mn	Mn	0.62305 0.61688 0.74531 1.27400
Mn	Mn	0.27834 0.27834 0.16498 1.27700
Mn	Mn	0.22166 0.22166 0.33502 1.27700
Mn	Mn	0.01476 0.62305 0.74531 1.27400
Mn	Mn	0.51476 0.11688 0.24531 1.27400
Mn	Mn	0.88312 0.87695 0.75469 1.27500
Mn	Mn	0.48524 0.88312 0.75469 1.27400
Mn	Mn	0.11688 0.12305 0.24531 1.27500
Mn	Mn	0.87695 0.48524 0.75469 1.27400
Mn	Mn	0.77834 0.77834 0.66498 1.27700
H 	H 	0.62710 0.72420 0.50300 0.04600
H 	H 	0.72420 0.14570 0.50300 0.04600
H 	H 	0.85430 0.37290 0.49700 0.04600
H 	H 	0.92540 0.29740 0.10920 0.01100
H 	H 	0.77580 0.87290 0.99700 0.04900
H 	H 	0.66800 0.92540 0.10920 0.01000
H 	H 	0.87290 0.35430 0.99700 0.04700
H 	H 	0.16800 0.79740 0.60920 0.01100
H 	H 	0.12710 0.64570 0.00300 0.04700
H 	H 	0.35430 0.77580 0.99700 0.04700
H 	H 	0.27580 0.85430 0.49700 0.04600
H 	H 	0.79740 0.42540 0.60920 0.01100
H 	H 	0.64570 0.22420 0.00300 0.04700
H 	H 	0.42540 0.16800 0.60920 0.01100
H 	H 	0.57460 0.83200 0.39080 0.01100
H 	H 	0.20260 0.57460 0.39080 0.01100
H 	H 	0.07460 0.70260 0.89080 0.01100
H 	H 	0.22420 0.12710 0.00300 0.04900
H 	H 	0.70260 0.33200 0.89080 0.01100
H 	H 	0.14570 0.62710 0.50300 0.04600
H 	H 	0.83200 0.20260 0.39080 0.01100
H 	H 	0.29740 0.66800 0.10920 0.01100
H 	H 	0.37290 0.27580 0.49700 0.04600
H 	H 	0.33200 0.07460 0.89080 0.01000
C 	C 	0.43865 0.95205 0.94285 -0.13500
C 	C 	0.93907 0.48587 0.36809 0.40200
C 	C 	0.80907 0.60047 0.61319 0.41800
C 	C 	0.47727 0.10047 0.11319 0.41800
C 	C 	0.06938 0.64358 0.99916 -0.02000
C 	C 	0.60816 0.33216 0.05562 -0.10700
C 	C 	0.64358 0.28788 0.99916 -0.01900
C 	C 	0.66645 0.43865 0.94285 -0.13500
C 	C 	0.69093 0.52273 0.88681 0.41800
C 	C 	0.01413 0.56093 0.13191 0.40300
C 	C 	0.97727 0.80907 0.61319 0.41900
C 	C 	0.30907 0.47727 0.11319 0.41800
C 	C 	0.04795 0.33355 0.05715 -0.13300
C 	C 	0.95205 0.66645 0.94285 -0.13300
C 	C 	0.06093 0.51413 0.63191 0.40200
C 	C 	0.10816 0.50406 0.55562 -0.10800
C 	C 	0.35013 0.03873 0.93451 0.01300
C 	C 	0.66784 0.99594 0.94438 -0.10400
C 	C 	0.89953 0.69093 0.88681 0.41700
C 	C 	0.32337 0.64987 0.06549 0.01200
C 	C 	0.39953 0.02273 0.38681 0.41800
C 	C 	0.78788 0.14358 0.49916 -0.01800
C 	C 	0.70697 0.98587 0.86809 0.40200
C 	C 	0.17663 0.53873 0.43451 0.01200
C 	C 	0.56938 0.78788 0.49916 -0.01800
C 	C 	0.14358 0.56938 0.49916 -0.01800
C 	C 	0.54795 0.06135 0.55715 -0.13500
C 	C 	0.39184 0.66784 0.94438 -0.10700
C 	C 	0.16645 0.45205 0.44285 -0.13500
C 	C 	0.49594 0.16784 0.44438 -0.10800
C 	C 	0.60047 0.97727 0.61319 0.41800
C 	C 	0.56135 0.04795 0.05715 -0.13500
C 	C 	0.56093 0.29303 0.13191 0.40200
C 	C 	0.46127 0.14987 0.56549 0.01200
C 	C 	0.51413 0.79303 0.63191 0.40200
C 	C 	0.93865 0.16645 0.44285 -0.13600
C 	C 	0.10047 0.30907 0.11319 0.41700
C 	C 	0.93062 0.35642 0.00084 -0.02000
C 	C 	0.82337 0.46127 0.56549 0.01200
C 	C 	0.48587 0.20697 0.36809 0.40200
C 	C 	0.71212 0.93062 0.00084 -0.02300
C 	C 	0.43062 0.21212 0.50084 -0.01800
C 	C 	0.19093 0.39953 0.38681 0.41800
C 	C 	0.00406 0.60816 0.05562 -0.10600
C 	C 	0.52273 0.89953 0.88681 0.41800
C 	C 	0.45205 0.93865 0.44285 -0.13500
C 	C 	0.33216 0.00406 0.05562 -0.10400
C 	C 	0.28788 0.06938 0.99916 -0.02300
C 	C 	0.14987 0.82337 0.56549 0.01200
C 	C 	0.29303 0.01413 0.13191 0.40200
C 	C 	0.33355 0.56135 0.05715 -0.13500
C 	C 	0.64987 0.96127 0.06549 0.01300
C 	C 	0.83216 0.10816 0.55562 -0.10800
C 	C 	0.43907 0.70697 0.86809 0.40200
C 	C 	0.85013 0.17663 0.43451 0.01200
C 	C 	0.96127 0.32337 0.06549 0.01100
C 	C 	0.21212 0.85642 0.50084 -0.01800
C 	C 	0.02273 0.19093 0.38681 0.41900
C 	C 	0.35642 0.71212 0.00084 -0.01900
C 	C 	0.16784 0.89184 0.44438 -0.10800
C 	C 	0.53873 0.85013 0.43451 0.01200
C 	C 	0.98587 0.43907 0.86809 0.40300
C 	C 	0.20697 0.93907 0.36809 0.40200
C 	C 	0.89184 0.49594 0.44438 -0.10800
C 	C 	0.67663 0.35013 0.93451 0.01200
C 	C 	0.79303 0.06093 0.63191 0.40200
C 	C 	0.85642 0.43062 0.50084 -0.01800
C 	C 	0.99594 0.39184 0.94438 -0.10600
C 	C 	0.50406 0.83216 0.55562 -0.10800
C 	C 	0.06135 0.83355 0.55715 -0.13600
C 	C 	0.83355 0.54795 0.55715 -0.13500
C 	C 	0.03873 0.67663 0.93451 0.01100
S 	S 	0.38555 0.55069 0.97039 0.07600
S 	S 	0.94931 0.11445 0.52961 0.07700
S 	S 	0.05069 0.88555 0.47039 0.07700
S 	S 	0.61445 0.44931 0.02961 0.07600
S 	S 	0.59337 0.05069 0.47039 0.07700
S 	S 	0.88555 0.59337 0.47039 0.07700
S 	S 	0.90663 0.61445 0.02961 0.07500
S 	S 	0.40663 0.94931 0.52961 0.07700
S 	S 	0.09337 0.38555 0.97039 0.07500
S 	S 	0.55069 0.09337 0.97039 0.07500
S 	S 	0.11445 0.40663 0.52961 0.07700
S 	S 	0.44931 0.90663 0.02961 0.07500
O 	O 	0.42523 0.30073 0.35081 -0.48600
O 	O 	0.75000 0.85815 0.75000 -0.70700
O 	O 	0.81846 0.68026 0.90532 -0.45300
O 	O 	0.40404 0.18154 0.09468 -0.45400
O 	O 	0.48480 0.05740 0.17760 -0.61600
O 	O 	0.85815 0.64185 0.75000 -0.70700
O 	O 	0.09596 0.18026 0.40532 -0.45400
O 	O 	0.14327 0.98877 0.32939 -0.49600
O 	O 	0.07677 0.57477 0.64919 -0.48600
O 	O 	0.80073 0.92523 0.85081 -0.48500
O 	O 	0.90404 0.81974 0.59468 -0.45400
O 	O 	0.42323 0.80073 0.85081 -0.48600
O 	O 	0.92323 0.42523 0.35081 -0.48600
O 	O 	0.98480 0.78020 0.67760 -0.61600
O 	O 	0.92523 0.42323 0.85081 -0.48600
O 	O 	0.21980 0.44260 0.32240 -0.61600
O 	O 	0.19927 0.07477 0.14919 -0.48500
O 	O 	0.07477 0.57677 0.14919 -0.48600
O 	O 	0.64185 0.75000 0.75000 -0.70700
O 	O 	0.71980 0.51520 0.82240 -0.61600
O 	O 	0.98877 0.53857 0.32939 -0.49600
O 	O 	0.44260 0.01520 0.32240 -0.61600
O 	O 	0.68026 0.59596 0.90532 -0.45400
O 	O 	0.57677 0.19927 0.14919 -0.48600
O 	O 	0.03857 0.48877 0.82939 -0.49600
O 	O 	0.25000 0.14185 0.25000 -0.70700
O 	O 	0.28020 0.48480 0.17760 -0.61600
O 	O 	0.46143 0.85673 0.67061 -0.49600
O 	O 	0.55740 0.98480 0.67760 -0.61600
O 	O 	0.85673 0.01123 0.67061 -0.49600
O 	O 	0.51123 0.35673 0.17061 -0.49500
O 	O 	0.31974 0.40404 0.09468 -0.45400
O 	O 	0.48877 0.64327 0.82939 -0.49500
O 	O 	0.31846 0.09596 0.40532 -0.45400
O 	O 	0.01123 0.46143 0.67061 -0.49600
O 	O 	0.57477 0.69927 0.64919 -0.48600
O 	O 	0.78020 0.55740 0.67760 -0.61600
O 	O 	0.69927 0.07677 0.64919 -0.48600
O 	O 	0.35673 0.96143 0.17061 -0.49600
O 	O 	0.18154 0.31974 0.09468 -0.45300
O 	O 	0.18026 0.31846 0.40532 -0.45400
O 	O 	0.59596 0.81846 0.90532 -0.45400
O 	O 	0.35815 0.25000 0.25000 -0.70700
O 	O 	0.94260 0.71980 0.82240 -0.61500
O 	O 	0.51520 0.94260 0.82240 -0.61600
O 	O 	0.14185 0.35815 0.25000 -0.70700
O 	O 	0.05740 0.28020 0.17760 -0.61500
O 	O 	0.96143 0.51123 0.17061 -0.49600
O 	O 	0.01520 0.21980 0.32240 -0.61600
O 	O 	0.30073 0.92323 0.35081 -0.48600
O 	O 	0.53857 0.14327 0.32939 -0.49600
O 	O 	0.81974 0.68154 0.59468 -0.45400
O 	O 	0.64327 0.03857 0.82939 -0.49600
O 	O 	0.68154 0.90404 0.59468 -0.45400
