data_crystal

_cell_length_a 12.34400
_cell_length_b 26.32300
_cell_length_c 15.66300
_cell_angle_alpha 90.00000
_cell_angle_beta  97.56000
_cell_angle_gamma 90.00000

_symmetry_space_group_name_	'P 1'
_symmetry_space_group_name_H-M	'P 1'

loop_
_symmetry_equiv_pos_as_xyz
  x,y,z

loop_
_atom_site_label
_atom_site_type_symbol
_atom_site_fract_x
_atom_site_fract_y
_atom_site_fract_z
_atom_site_charge
Zn	Zn	0.22368 0.24099 0.22120 1.21500
Zn	Zn	0.38279 0.26324 0.40834 1.21600
O 	O 	0.45430 0.29750 0.32190 -0.51100
O 	O 	0.34390 0.28881 0.19740 -0.50000
O 	O 	0.67820 0.45522 0.10080 -0.30900
O 	O 	0.50800 0.68171 0.12570 -0.34400
O 	O 	0.67770 0.69478 0.09830 -0.48400
O 	O 	0.25990 0.30981 0.42220 -0.48400
O 	O 	0.15460 0.27811 0.30710 -0.51500
O 	O 	0.82950 0.44400 0.41010 -0.29900
O 	O 	0.88950 0.66568 0.25580 -0.34800
O 	O 	0.72790 0.67233 0.30100 -0.45000
N 	N 	0.48510 0.27460 0.51670 -0.26600
N 	N 	0.77900 0.26360 0.77110 -0.07000
N 	N 	0.82560 0.26170 0.85740 -0.07200
N 	N 	0.11960 0.25945 0.11080 -0.25200
C 	C 	0.42470 0.30780 0.24390 0.45300
C 	C 	0.49130 0.34660 0.20570 -0.23200
C 	C 	0.56650 0.37510 0.25870 0.18000
H 	H 	0.57660 0.36890 0.31890 -0.01000
C 	C 	0.62740 0.41260 0.22490 -0.29400
H 	H 	0.67750 0.43280 0.26160 0.14400
C 	C 	0.61330 0.41990 0.13630 0.31600
C 	C 	0.54010 0.39260 0.08310 -0.30000
H 	H 	0.53230 0.39820 0.02270 0.15000
C 	C 	0.47650 0.35620 0.11730 0.18300
H 	H 	0.42290 0.33780 0.08050 -0.02000
C 	C 	0.65620 0.50620 0.11000 0.28800
C 	C 	0.73420 0.53900 0.08410 -0.24700
H 	H 	0.79840 0.52610 0.06430 0.13100
C 	C 	0.71600 0.59100 0.08780 0.13600
H 	H 	0.76810 0.61380 0.06960 0.00200
C 	C 	0.62340 0.61010 0.11740 -0.18100
C 	C 	0.54880 0.57650 0.14290 0.14000
H 	H 	0.48470 0.58940 0.16270 -0.00100
C 	C 	0.56420 0.52440 0.14070 -0.26500
H 	H 	0.51240 0.50180 0.15980 0.12800
C 	C 	0.60000 0.66540 0.11530 0.34100
C 	C 	0.17250 0.30860 0.37010 0.43400
C 	C 	0.08390 0.34460 0.38250 -0.21500
C 	C 	0.09060 0.37730 0.45240 0.16800
H 	H 	0.15350 0.37670 0.49440 -0.00900
C 	C 	0.00650 0.41070 0.46140 -0.27900
H 	H 	0.01080 0.43250 0.51010 0.13900
C 	C 	0.91730 0.41220 0.40000 0.29100
C 	C 	0.90570 0.37920 0.32990 -0.26000
H 	H 	0.84190 0.38000 0.28880 0.13400
C 	C 	0.98990 0.34490 0.32130 0.15400
H 	H 	0.98370 0.32190 0.27420 -0.00400
C 	C 	0.82960 0.49290 0.37530 0.26100
C 	C 	0.73890 0.52190 0.38800 -0.23100
H 	H 	0.68270 0.50840 0.41740 0.12200
C 	C 	0.73300 0.57150 0.35630 0.11300
H 	H 	0.67210 0.59200 0.36490 0.01100
C 	C 	0.81420 0.59180 0.31220 -0.15900
C 	C 	0.90170 0.56070 0.29980 0.12000
H 	H 	0.95720 0.57370 0.26920 0.00800
C 	C 	0.91050 0.51130 0.33060 -0.24800
H 	H 	0.97090 0.49070 0.32120 0.12100
C 	C 	0.81240 0.64610 0.28640 0.33500
C 	C 	0.58680 0.25360 0.52940 0.09100
H 	H 	0.61250 0.23670 0.48240 0.00200
C 	C 	0.65320 0.25550 0.60520 -0.15800
H 	H 	0.72470 0.24150 0.61060 0.09700
C 	C 	0.61430 0.27820 0.67450 0.12100
C 	C 	0.51210 0.30190 0.66330 -0.16200
H 	H 	0.48660 0.31990 0.70930 0.10100
C 	C 	0.44980 0.29850 0.58440 0.08500
H 	H 	0.37920 0.31360 0.57700 -0.00100
C 	C 	0.67870 0.27880 0.76210 -0.04400
H 	H 	0.64640 0.29010 0.81050 0.07700
C 	C 	0.92270 0.27630 0.86710 -0.03500
H 	H 	0.95460 0.29000 0.82010 0.07100
C 	C 	0.98590 0.27200 0.95250 0.10800
C 	C 	0.09350 0.29050 0.96690 -0.15500
H 	H 	0.12350 0.30790 0.92230 0.10100
C 	C 	0.15500 0.28330 0.04530 0.09100
H 	H 	0.22740 0.29630 0.05330 -0.00400
C 	C 	0.01570 0.24290 0.09970 0.08000
H 	H 	0.98720 0.22720 0.14660 0.00500
C 	C 	0.94920 0.24800 0.02230 -0.14100
H 	H 	0.87690 0.23490 0.01660 0.09200
Zn	Zn	0.77632 0.74099 0.27880 1.21600
Zn	Zn	0.61721 0.76324 0.09166 1.21700
O 	O 	0.54570 0.79750 0.17810 -0.51000
O 	O 	0.65610 0.78881 0.30260 -0.49900
O 	O 	0.32180 0.95522 0.39920 -0.31000
O 	O 	0.49200 0.18171 0.37430 -0.34400
O 	O 	0.32230 0.19478 0.40170 -0.48400
O 	O 	0.74010 0.80981 0.07780 -0.48400
O 	O 	0.84540 0.77811 0.19290 -0.51300
O 	O 	0.17050 0.94400 0.08990 -0.29600
O 	O 	0.11050 0.16568 0.24420 -0.34800
O 	O 	0.27210 0.17233 0.19900 -0.45000
N 	N 	0.51490 0.77460 0.98330 -0.26600
N 	N 	0.22100 0.76360 0.72890 -0.07000
N 	N 	0.17440 0.76170 0.64260 -0.07000
N 	N 	0.88040 0.75945 0.38920 -0.25500
C 	C 	0.57530 0.80780 0.25610 0.45300
C 	C 	0.50870 0.84660 0.29430 -0.23200
C 	C 	0.43350 0.87510 0.24130 0.18000
H 	H 	0.42340 0.86890 0.18110 -0.01000
C 	C 	0.37260 0.91260 0.27510 -0.29400
H 	H 	0.32250 0.93280 0.23840 0.14400
C 	C 	0.38670 0.91990 0.36370 0.31600
C 	C 	0.45990 0.89260 0.41690 -0.30000
H 	H 	0.46770 0.89820 0.47730 0.15000
C 	C 	0.52350 0.85620 0.38270 0.18300
H 	H 	0.57710 0.83780 0.41950 -0.02000
C 	C 	0.34380 0.00620 0.39000 0.28900
C 	C 	0.26580 0.03900 0.41590 -0.24700
H 	H 	0.20160 0.02610 0.43570 0.13100
C 	C 	0.28400 0.09100 0.41220 0.13600
H 	H 	0.23190 0.11380 0.43040 0.00200
C 	C 	0.37660 0.11010 0.38260 -0.18200
C 	C 	0.45120 0.07650 0.35710 0.14000
H 	H 	0.51530 0.08940 0.33730 -0.00100
C 	C 	0.43580 0.02440 0.35930 -0.26600
H 	H 	0.48760 0.00180 0.34020 0.12800
C 	C 	0.40000 0.16540 0.38470 0.34100
C 	C 	0.82750 0.80860 0.12990 0.43200
C 	C 	0.91610 0.84460 0.11750 -0.20700
C 	C 	0.90940 0.87730 0.04760 0.15900
H 	H 	0.84650 0.87670 0.00560 -0.00600
C 	C 	0.99350 0.91070 0.03860 -0.26600
H 	H 	0.98920 0.93250 0.98990 0.13400
C 	C 	0.08270 0.91220 0.10000 0.28100
C 	C 	0.09430 0.87920 0.17010 -0.25300
H 	H 	0.15810 0.88000 0.21120 0.13200
C 	C 	0.01010 0.84490 0.17870 0.14600
H 	H 	0.01630 0.82190 0.22580 -0.00200
C 	C 	0.17040 0.99290 0.12470 0.25500
C 	C 	0.26110 0.02190 0.11200 -0.22700
H 	H 	0.31730 0.00840 0.08260 0.12100
C 	C 	0.26700 0.07150 0.14370 0.11000
H 	H 	0.32790 0.09200 0.13510 0.01200
C 	C 	0.18580 0.09180 0.18780 -0.15700
C 	C 	0.09830 0.06070 0.20020 0.11600
H 	H 	0.04280 0.07370 0.23080 0.00900
C 	C 	0.08950 0.01130 0.16940 -0.24100
H 	H 	0.02910 0.99070 0.17880 0.11800
C 	C 	0.18760 0.14610 0.21360 0.33400
C 	C 	0.41320 0.75360 0.97060 0.09300
H 	H 	0.38750 0.73670 0.01760 0.00100
C 	C 	0.34680 0.75550 0.89480 -0.15900
H 	H 	0.27530 0.74150 0.88940 0.09700
C 	C 	0.38570 0.77820 0.82550 0.12100
C 	C 	0.48790 0.80190 0.83670 -0.16300
H 	H 	0.51340 0.81990 0.79070 0.10100
C 	C 	0.55020 0.79850 0.91560 0.08500
H 	H 	0.62080 0.81360 0.92300 -0.00100
C 	C 	0.32130 0.77880 0.73790 -0.04400
H 	H 	0.35360 0.79010 0.68950 0.07800
C 	C 	0.07730 0.77630 0.63290 -0.03900
H 	H 	0.04540 0.79000 0.67990 0.07300
C 	C 	0.01410 0.77200 0.54750 0.11900
C 	C 	0.90650 0.79050 0.53310 -0.16500
H 	H 	0.87650 0.80790 0.57770 0.10400
C 	C 	0.84500 0.78330 0.45470 0.09800
H 	H 	0.77260 0.79630 0.44670 -0.00600
C 	C 	0.98430 0.74290 0.40030 0.09100
H 	H 	0.01280 0.72720 0.35340 0.00000
C 	C 	0.05080 0.74800 0.47770 -0.15300
H 	H 	0.12310 0.73490 0.48340 0.09500
Zn	Zn	0.77632 0.75901 0.77880 1.21600
Zn	Zn	0.61721 0.73676 0.59166 1.21700
O 	O 	0.54570 0.70250 0.67810 -0.51000
O 	O 	0.65610 0.71119 0.80260 -0.49900
O 	O 	0.32180 0.54478 0.89920 -0.30900
O 	O 	0.49200 0.31829 0.87430 -0.34400
O 	O 	0.32230 0.30522 0.90170 -0.48400
O 	O 	0.74010 0.69019 0.57780 -0.48400
O 	O 	0.84540 0.72189 0.69290 -0.51500
O 	O 	0.17050 0.55600 0.58990 -0.29900
O 	O 	0.11050 0.33432 0.74420 -0.34800
O 	O 	0.27210 0.32767 0.69900 -0.45000
N 	N 	0.51490 0.72540 0.48330 -0.26600
N 	N 	0.22100 0.73640 0.22890 -0.07000
N 	N 	0.17440 0.73830 0.14260 -0.07200
N 	N 	0.88040 0.74055 0.88920 -0.25200
C 	C 	0.57530 0.69220 0.75610 0.45300
C 	C 	0.50870 0.65340 0.79430 -0.23200
C 	C 	0.43350 0.62490 0.74130 0.18000
H 	H 	0.42340 0.63110 0.68110 -0.01000
C 	C 	0.37260 0.58740 0.77510 -0.29400
H 	H 	0.32250 0.56720 0.73840 0.14400
C 	C 	0.38670 0.58010 0.86370 0.31600
C 	C 	0.45990 0.60740 0.91690 -0.30000
H 	H 	0.46770 0.60180 0.97730 0.15000
C 	C 	0.52350 0.64380 0.88270 0.18300
H 	H 	0.57710 0.66220 0.91950 -0.02000
C 	C 	0.34380 0.49380 0.89000 0.28800
C 	C 	0.26580 0.46100 0.91590 -0.24700
H 	H 	0.20160 0.47390 0.93570 0.13100
C 	C 	0.28400 0.40900 0.91220 0.13600
H 	H 	0.23190 0.38620 0.93040 0.00200
C 	C 	0.37660 0.38990 0.88260 -0.18100
C 	C 	0.45120 0.42350 0.85710 0.14000
H 	H 	0.51530 0.41060 0.83730 -0.00100
C 	C 	0.43580 0.47560 0.85930 -0.26500
H 	H 	0.48760 0.49820 0.84020 0.12800
C 	C 	0.40000 0.33460 0.88470 0.34100
C 	C 	0.82750 0.69140 0.62990 0.43400
C 	C 	0.91610 0.65540 0.61750 -0.21500
C 	C 	0.90940 0.62270 0.54760 0.16800
H 	H 	0.84650 0.62330 0.50560 -0.00900
C 	C 	0.99350 0.58930 0.53860 -0.27900
H 	H 	0.98920 0.56750 0.48990 0.13900
C 	C 	0.08270 0.58780 0.60000 0.29100
C 	C 	0.09430 0.62080 0.67010 -0.26000
H 	H 	0.15810 0.62000 0.71120 0.13400
C 	C 	0.01010 0.65510 0.67870 0.15400
H 	H 	0.01630 0.67810 0.72580 -0.00400
C 	C 	0.17040 0.50710 0.62470 0.26100
C 	C 	0.26110 0.47810 0.61200 -0.23100
H 	H 	0.31730 0.49160 0.58260 0.12200
C 	C 	0.26700 0.42850 0.64370 0.11300
H 	H 	0.32790 0.40800 0.63510 0.01100
C 	C 	0.18580 0.40820 0.68780 -0.15900
C 	C 	0.09830 0.43930 0.70020 0.12000
H 	H 	0.04280 0.42630 0.73080 0.00800
C 	C 	0.08950 0.48870 0.66940 -0.24800
H 	H 	0.02910 0.50930 0.67880 0.12100
C 	C 	0.18760 0.35390 0.71360 0.33500
C 	C 	0.41320 0.74640 0.47060 0.09100
H 	H 	0.38750 0.76330 0.51760 0.00200
C 	C 	0.34680 0.74450 0.39480 -0.15800
H 	H 	0.27530 0.75850 0.38940 0.09700
C 	C 	0.38570 0.72180 0.32550 0.12100
C 	C 	0.48790 0.69810 0.33670 -0.16200
H 	H 	0.51340 0.68010 0.29070 0.10100
C 	C 	0.55020 0.70150 0.41560 0.08500
H 	H 	0.62080 0.68640 0.42300 -0.00100
C 	C 	0.32130 0.72120 0.23790 -0.04400
H 	H 	0.35360 0.70990 0.18950 0.07700
C 	C 	0.07730 0.72370 0.13290 -0.03500
H 	H 	0.04540 0.71000 0.17990 0.07100
C 	C 	0.01410 0.72800 0.04750 0.10800
C 	C 	0.90650 0.70950 0.03310 -0.15500
H 	H 	0.87650 0.69210 0.07770 0.10100
C 	C 	0.84500 0.71670 0.95470 0.09100
H 	H 	0.77260 0.70370 0.94670 -0.00400
C 	C 	0.98430 0.75710 0.90030 0.08000
H 	H 	0.01280 0.77280 0.85340 0.00500
C 	C 	0.05080 0.75200 0.97770 -0.14100
H 	H 	0.12310 0.76510 0.98340 0.09200
Zn	Zn	0.22368 0.25901 0.72120 1.21600
Zn	Zn	0.38279 0.23676 0.90834 1.21700
O 	O 	0.45430 0.20250 0.82190 -0.51000
O 	O 	0.34390 0.21119 0.69740 -0.49900
O 	O 	0.67820 0.04478 0.60080 -0.31000
O 	O 	0.50800 0.81829 0.62570 -0.34400
O 	O 	0.67770 0.80522 0.59830 -0.48400
O 	O 	0.25990 0.19019 0.92220 -0.48400
O 	O 	0.15460 0.22189 0.80710 -0.51300
O 	O 	0.82950 0.05600 0.91010 -0.29600
O 	O 	0.88950 0.83432 0.75580 -0.34800
O 	O 	0.72790 0.82767 0.80100 -0.45000
N 	N 	0.48510 0.22540 0.01670 -0.26600
N 	N 	0.77900 0.23640 0.27110 -0.07000
N 	N 	0.82560 0.23830 0.35740 -0.07000
N 	N 	0.11960 0.24055 0.61080 -0.25500
C 	C 	0.42470 0.19220 0.74390 0.45300
C 	C 	0.49130 0.15340 0.70570 -0.23200
C 	C 	0.56650 0.12490 0.75870 0.18000
H 	H 	0.57660 0.13110 0.81890 -0.01000
C 	C 	0.62740 0.08740 0.72490 -0.29400
H 	H 	0.67750 0.06720 0.76160 0.14400
C 	C 	0.61330 0.08010 0.63630 0.31600
C 	C 	0.54010 0.10740 0.58310 -0.30000
H 	H 	0.53230 0.10180 0.52270 0.15000
C 	C 	0.47650 0.14380 0.61730 0.18300
H 	H 	0.42290 0.16220 0.58050 -0.02000
C 	C 	0.65620 0.99380 0.61000 0.28900
C 	C 	0.73420 0.96100 0.58410 -0.24700
H 	H 	0.79840 0.97390 0.56430 0.13100
C 	C 	0.71600 0.90900 0.58780 0.13600
H 	H 	0.76810 0.88620 0.56960 0.00200
C 	C 	0.62340 0.88990 0.61740 -0.18200
C 	C 	0.54880 0.92350 0.64290 0.14000
H 	H 	0.48470 0.91060 0.66270 -0.00100
C 	C 	0.56420 0.97560 0.64070 -0.26600
H 	H 	0.51240 0.99820 0.65980 0.12800
C 	C 	0.60000 0.83460 0.61530 0.34100
C 	C 	0.17250 0.19140 0.87010 0.43200
C 	C 	0.08390 0.15540 0.88250 -0.20700
C 	C 	0.09060 0.12270 0.95240 0.15900
H 	H 	0.15350 0.12330 0.99440 -0.00600
C 	C 	0.00650 0.08930 0.96140 -0.26600
H 	H 	0.01080 0.06750 0.01010 0.13400
C 	C 	0.91730 0.08780 0.90000 0.28100
C 	C 	0.90570 0.12080 0.82990 -0.25300
H 	H 	0.84190 0.12000 0.78880 0.13200
C 	C 	0.98990 0.15510 0.82130 0.14600
H 	H 	0.98370 0.17810 0.77420 -0.00200
C 	C 	0.82960 0.00710 0.87530 0.25500
C 	C 	0.73890 0.97810 0.88800 -0.22700
H 	H 	0.68270 0.99160 0.91740 0.12100
C 	C 	0.73300 0.92850 0.85630 0.11000
H 	H 	0.67210 0.90800 0.86490 0.01200
C 	C 	0.81420 0.90820 0.81220 -0.15700
C 	C 	0.90170 0.93930 0.79980 0.11600
H 	H 	0.95720 0.92630 0.76920 0.00900
C 	C 	0.91050 0.98870 0.83060 -0.24100
H 	H 	0.97090 0.00930 0.82120 0.11800
C 	C 	0.81240 0.85390 0.78640 0.33400
C 	C 	0.58680 0.24640 0.02940 0.09300
H 	H 	0.61250 0.26330 0.98240 0.00100
C 	C 	0.65320 0.24450 0.10520 -0.15900
H 	H 	0.72470 0.25850 0.11060 0.09700
C 	C 	0.61430 0.22180 0.17450 0.12100
C 	C 	0.51210 0.19810 0.16330 -0.16300
H 	H 	0.48660 0.18010 0.20930 0.10100
C 	C 	0.44980 0.20150 0.08440 0.08500
H 	H 	0.37920 0.18640 0.07700 -0.00100
C 	C 	0.67870 0.22120 0.26210 -0.04400
H 	H 	0.64640 0.20990 0.31050 0.07800
C 	C 	0.92270 0.22370 0.36710 -0.03900
H 	H 	0.95460 0.21000 0.32010 0.07300
C 	C 	0.98590 0.22800 0.45250 0.11900
C 	C 	0.09350 0.20950 0.46690 -0.16500
H 	H 	0.12350 0.19210 0.42230 0.10400
C 	C 	0.15500 0.21670 0.54530 0.09800
H 	H 	0.22740 0.20370 0.55330 -0.00600
C 	C 	0.01570 0.25710 0.59970 0.09100
H 	H 	0.98720 0.27280 0.64660 0.00000
C 	C 	0.94920 0.25200 0.52230 -0.15300
H 	H 	0.87690 0.26510 0.51660 0.09500
