data_crystal

_cell_length_a 11.21950
_cell_length_b 15.81700
_cell_length_c 18.09890
_cell_angle_alpha 102.09900
_cell_angle_beta  96.38500
_cell_angle_gamma 98.94700

_symmetry_space_group_name_	'P 1'
_symmetry_space_group_name_H-M	'P 1'

loop_
_symmetry_equiv_pos_as_xyz
  x,y,z

loop_
_atom_site_label
_atom_site_type_symbol
_atom_site_fract_x
_atom_site_fract_y
_atom_site_fract_z
_atom_site_charge
Cd	Cd	0.73090 0.25003 0.63584 1.24100
Cd	Cd	0.64148 0.67881 0.88470 1.23900
O 	O 	0.52990 0.21040 0.59080 -0.40400
O 	O 	0.54410 0.35060 0.63760 -0.49900
O 	O 	0.93340 0.18890 0.63870 -0.32600
O 	O 	0.77350 0.13490 0.55020 -0.35500
O 	O 	0.67700 0.15490 0.72960 -0.32200
O 	O 	0.76030 0.29370 0.76470 -0.40600
O 	O 	0.40800 0.21530 0.01780 -0.35300
O 	O 	0.43650 0.19250 0.13260 -0.36000
O 	O 	0.81830 0.33480 0.56790 -0.45500
O 	O 	0.81140 0.44980 0.65100 -0.48600
O 	O 	0.72900 0.63680 0.77360 -0.51200
O 	O 	0.84460 0.73640 0.86910 -0.36000
O 	O 	0.46770 0.53070 0.74730 -0.48600
O 	O 	0.46380 0.59260 0.86710 -0.44800
O 	O 	0.19640 0.33640 0.95510 -0.26400
O 	O 	0.27000 0.42210 0.06810 -0.40600
C 	C 	0.34930 0.26820 0.57520 -0.09400
C 	C 	0.27090 0.18730 0.56380 -0.02100
H 	H 	0.30240 0.13910 0.57390 0.06200
C 	C 	0.14620 0.17690 0.53750 0.01500
C 	C 	0.10200 0.24860 0.52240 -0.04500
H 	H 	0.01910 0.24340 0.50600 0.06200
C 	C 	0.17940 0.32900 0.53130 -0.05800
H 	H 	0.14810 0.37620 0.51890 0.05200
C 	C 	0.30210 0.33960 0.55830 0.00500
H 	H 	0.35280 0.39390 0.56520 0.00700
C 	C 	0.06810 0.08730 0.52180 0.03400
C 	C 	0.94820 0.06960 0.53640 -0.05300
C 	C 	0.88510 0.98380 0.51520 -0.04500
H 	H 	0.80600 0.97290 0.52640 0.06800
C 	C 	0.48390 0.27720 0.60360 0.38300
C 	C 	0.88340 0.13700 0.58010 0.30400
C 	C 	0.71750 0.22230 0.78050 0.30600
C 	C 	0.71260 0.22170 0.86320 -0.03500
C 	C 	0.78050 0.29080 0.92120 -0.03500
H 	H 	0.83190 0.33660 0.90940 0.06300
C 	C 	0.76980 0.28980 0.99580 -0.01000
H 	H 	0.81290 0.33640 0.03450 0.04000
C 	C 	0.69650 0.22130 0.01480 -0.07000
H 	H 	0.69090 0.22220 0.06580 0.06400
C 	C 	0.63110 0.15120 0.95800 0.04000
C 	C 	0.64130 0.15220 0.88280 -0.05600
H 	H 	0.59920 0.10510 0.84420 0.07500
C 	C 	0.55940 0.07470 0.97860 0.02700
C 	C 	0.47710 0.08320 0.03010 -0.05300
C 	C 	0.41910 0.00900 0.05160 -0.04300
H 	H 	0.36490 0.01580 0.08690 0.06500
C 	C 	0.43890 0.17040 0.06280 0.30600
C 	C 	0.84590 0.41350 0.59380 0.42600
C 	C 	0.92500 0.46400 0.54790 -0.11700
C 	C 	0.00700 0.54400 0.57810 0.03500
C 	C 	0.07930 0.57650 0.52830 -0.03800
H 	H 	0.13430 0.62910 0.54780 0.05700
C 	C 	0.02400 0.59540 0.65810 -0.00100
C 	C 	0.13960 0.62250 0.70110 -0.04200
H 	H 	0.20670 0.60660 0.67950 0.04700
C 	C 	0.15730 0.67230 0.77520 -0.04700
H 	H 	0.23570 0.69040 0.80250 0.05200
C 	C 	0.05950 0.69510 0.80870 -0.00100
H 	H 	0.07160 0.72830 0.85870 0.04800
C 	C 	0.94260 0.66880 0.76800 -0.08700
C 	C 	0.92360 0.62100 0.69150 -0.01200
H 	H 	0.84580 0.60650 0.66330 0.01100
C 	C 	0.83190 0.68340 0.80590 0.32800
C 	C 	0.42010 0.54190 0.80550 0.41200
C 	C 	0.29320 0.49070 0.80310 -0.09700
C 	C 	0.23080 0.43600 0.73570 0.01100
H 	H 	0.26970 0.42600 0.69280 0.03500
C 	C 	0.11180 0.39630 0.73150 -0.04600
H 	H 	0.07000 0.36070 0.68550 0.05900
C 	C 	0.05370 0.40860 0.79500 -0.04400
H 	H 	0.97210 0.38350 0.79140 0.05700
C 	C 	0.11790 0.45900 0.86460 0.01500
C 	C 	0.23630 0.49990 0.86770 -0.01500
H 	H 	0.27900 0.53430 0.91400 0.05800
C 	C 	0.95890 0.52250 0.93360 -0.04000
H 	H 	0.93070 0.53730 0.88860 0.04800
C 	C 	0.05670 0.47670 0.93410 0.02700
C 	C 	0.09680 0.45390 0.00360 -0.07600
C 	C 	0.19570 0.39980 0.00780 0.33900
Cd	Cd	0.63529 0.49321 0.69717 1.19700
Cd	Cd	0.26910 0.74997 0.36416 1.24200
Cd	Cd	0.35852 0.32119 0.11530 1.24000
O 	O 	0.47010 0.78960 0.40920 -0.40300
O 	O 	0.45590 0.64940 0.36240 -0.49800
O 	O 	0.06660 0.81110 0.36130 -0.32500
O 	O 	0.22650 0.86510 0.44980 -0.35400
O 	O 	0.32300 0.84510 0.27040 -0.32200
O 	O 	0.23970 0.70630 0.23530 -0.40600
O 	O 	0.59200 0.78470 0.98220 -0.35300
O 	O 	0.56350 0.80750 0.86740 -0.36000
O 	O 	0.18170 0.66520 0.43210 -0.45500
O 	O 	0.18860 0.55020 0.34900 -0.48600
O 	O 	0.27100 0.36320 0.22640 -0.51200
O 	O 	0.15540 0.26360 0.13090 -0.36000
O 	O 	0.53230 0.46930 0.25270 -0.48600
O 	O 	0.53620 0.40740 0.13290 -0.44800
O 	O 	0.80360 0.66360 0.04490 -0.26400
O 	O 	0.73000 0.57790 0.93190 -0.40600
C 	C 	0.65070 0.73180 0.42480 -0.09400
C 	C 	0.72910 0.81270 0.43620 -0.02100
H 	H 	0.69760 0.86090 0.42610 0.06200
C 	C 	0.85380 0.82310 0.46250 0.01500
C 	C 	0.89800 0.75140 0.47760 -0.04500
H 	H 	0.98090 0.75660 0.49400 0.06200
C 	C 	0.82060 0.67100 0.46870 -0.05800
H 	H 	0.85190 0.62380 0.48110 0.05200
C 	C 	0.69790 0.66040 0.44170 0.00500
H 	H 	0.64720 0.60610 0.43480 0.00700
C 	C 	0.93190 0.91270 0.47820 0.03400
C 	C 	0.05180 0.93040 0.46360 -0.05300
C 	C 	0.11490 0.01620 0.48480 -0.04500
H 	H 	0.19400 0.02710 0.47360 0.06800
C 	C 	0.51610 0.72280 0.39640 0.38300
C 	C 	0.11660 0.86300 0.41990 0.30400
C 	C 	0.28250 0.77770 0.21950 0.30600
C 	C 	0.28740 0.77830 0.13680 -0.03500
C 	C 	0.21950 0.70920 0.07880 -0.03500
H 	H 	0.16810 0.66340 0.09060 0.06300
C 	C 	0.23020 0.71020 0.00420 -0.01000
H 	H 	0.18710 0.66360 0.96550 0.04000
C 	C 	0.30350 0.77870 0.98520 -0.07000
H 	H 	0.30910 0.77780 0.93420 0.06400
C 	C 	0.36890 0.84880 0.04200 0.04000
C 	C 	0.35870 0.84780 0.11720 -0.05600
H 	H 	0.40080 0.89490 0.15580 0.07500
C 	C 	0.44060 0.92530 0.02140 0.02700
C 	C 	0.52290 0.91680 0.96990 -0.05300
C 	C 	0.58090 0.99100 0.94840 -0.04300
H 	H 	0.63510 0.98420 0.91310 0.06500
C 	C 	0.56110 0.82960 0.93720 0.30600
C 	C 	0.15410 0.58650 0.40620 0.42600
C 	C 	0.07500 0.53600 0.45210 -0.11700
C 	C 	0.99300 0.45600 0.42190 0.03500
C 	C 	0.92070 0.42350 0.47170 -0.03800
H 	H 	0.86570 0.37090 0.45220 0.05700
C 	C 	0.97600 0.40460 0.34190 -0.00100
C 	C 	0.86040 0.37750 0.29890 -0.04200
H 	H 	0.79330 0.39340 0.32050 0.04700
C 	C 	0.84270 0.32770 0.22480 -0.04700
H 	H 	0.76430 0.30960 0.19750 0.05200
C 	C 	0.94050 0.30490 0.19130 -0.00100
H 	H 	0.92840 0.27170 0.14130 0.04800
C 	C 	0.05740 0.33120 0.23200 -0.08700
C 	C 	0.07640 0.37900 0.30850 -0.01200
H 	H 	0.15420 0.39350 0.33670 0.01100
C 	C 	0.16810 0.31660 0.19410 0.32800
C 	C 	0.57990 0.45810 0.19450 0.41200
C 	C 	0.70680 0.50930 0.19690 -0.09700
C 	C 	0.76920 0.56400 0.26430 0.01100
H 	H 	0.73030 0.57400 0.30720 0.03500
C 	C 	0.88820 0.60370 0.26850 -0.04600
H 	H 	0.93000 0.63930 0.31450 0.05900
C 	C 	0.94630 0.59140 0.20500 -0.04400
H 	H 	0.02790 0.61650 0.20860 0.05700
C 	C 	0.88210 0.54100 0.13540 0.01500
C 	C 	0.76370 0.50010 0.13230 -0.01500
H 	H 	0.72100 0.46570 0.08600 0.05800
C 	C 	0.04110 0.47750 0.06640 -0.04000
H 	H 	0.06930 0.46270 0.11140 0.04800
C 	C 	0.94330 0.52330 0.06590 0.02700
C 	C 	0.90320 0.54610 0.99640 -0.07600
C 	C 	0.80430 0.60020 0.99220 0.33900
Cd	Cd	0.36471 0.50679 0.30283 1.19700
