data_crystal

_cell_length_a 10.38620
_cell_length_b 10.38620
_cell_length_c 9.20890
_cell_angle_alpha 90.00000
_cell_angle_beta  90.00000
_cell_angle_gamma 120.00000

_symmetry_space_group_name_	'P 1'
_symmetry_space_group_name_H-M	'P 1'

loop_
_symmetry_equiv_pos_as_xyz
  x,y,z

loop_
_atom_site_label
_atom_site_type_symbol
_atom_site_fract_x
_atom_site_fract_y
_atom_site_fract_z
_atom_site_charge
P 	P 	0.88002 0.29352 0.09044 0.55200
H 	H 	0.02000 0.34300 0.09100 -0.14400
O 	O 	0.85120 0.39350 0.19270 -0.48600
O 	O 	0.84040 0.31020 0.93350 -0.45700
O 	O 	0.80630 0.13450 0.14400 -0.41100
P 	P 	0.70648 0.58650 0.09044 0.43800
H 	H 	0.65700 0.67700 0.09100 -0.03600
O 	O 	0.60650 0.45770 0.19270 -0.51100
O 	O 	0.68980 0.53020 0.93350 -0.47700
O 	O 	0.86550 0.67180 0.14400 -0.30900
P 	P 	0.41350 0.11998 0.09044 0.32700
H 	H 	0.32300 0.98000 0.09100 0.04400
O 	O 	0.54230 0.14880 0.19270 -0.52600
O 	O 	0.46980 0.15960 0.93350 -0.49700
O 	O 	0.32820 0.19370 0.14400 -0.41200
P 	P 	0.29352 0.88002 0.40956 0.55700
H 	H 	0.34300 0.02000 0.40900 -0.14700
O 	O 	0.39350 0.85120 0.30730 -0.48500
O 	O 	0.31020 0.84040 0.56650 -0.45900
O 	O 	0.13450 0.80630 0.35600 -0.41000
P 	P 	0.58650 0.70648 0.40956 0.43900
H 	H 	0.67700 0.65700 0.40900 -0.03600
O 	O 	0.45770 0.60650 0.30730 -0.51100
O 	O 	0.53020 0.68980 0.56650 -0.47700
O 	O 	0.67180 0.86550 0.35600 -0.30800
P 	P 	0.11998 0.41350 0.40956 0.32900
H 	H 	0.98000 0.32300 0.40900 0.04200
O 	O 	0.14880 0.54230 0.30730 -0.52600
O 	O 	0.15960 0.46980 0.56650 -0.49800
O 	O 	0.19370 0.32820 0.35600 -0.41200
P 	P 	0.11998 0.70648 0.90956 0.32200
H 	H 	0.98000 0.65700 0.90900 0.05500
O 	O 	0.14880 0.60650 0.80730 -0.52100
O 	O 	0.15960 0.68980 0.06650 -0.48700
O 	O 	0.19370 0.86550 0.85600 -0.33600
P 	P 	0.29352 0.41350 0.90956 0.44300
H 	H 	0.34300 0.32300 0.90900 -0.06100
O 	O 	0.39350 0.54230 0.80730 -0.51900
O 	O 	0.31020 0.46980 0.06650 -0.49200
O 	O 	0.13450 0.32820 0.85600 -0.43800
P 	P 	0.58650 0.88002 0.90956 0.54900
H 	H 	0.67700 0.02000 0.90900 -0.13100
O 	O 	0.45770 0.85120 0.80730 -0.48400
O 	O 	0.53020 0.84040 0.06650 -0.45100
O 	O 	0.67180 0.80630 0.85600 -0.35800
P 	P 	0.70648 0.11998 0.59044 0.32500
H 	H 	0.65700 0.98000 0.59100 0.05400
O 	O 	0.60650 0.14880 0.69270 -0.52100
O 	O 	0.68980 0.15960 0.43350 -0.49000
O 	O 	0.86550 0.19370 0.64400 -0.33400
P 	P 	0.41350 0.29352 0.59044 0.44400
H 	H 	0.32300 0.34300 0.59100 -0.06200
O 	O 	0.54230 0.39350 0.69270 -0.51900
O 	O 	0.46980 0.31020 0.43350 -0.49200
O 	O 	0.32820 0.13450 0.64400 -0.43700
P 	P 	0.88002 0.58650 0.59044 0.55500
H 	H 	0.02000 0.67700 0.59100 -0.13400
O 	O 	0.85120 0.45770 0.69270 -0.48300
O 	O 	0.84040 0.53020 0.43350 -0.45200
O 	O 	0.80630 0.67180 0.64400 -0.35800
Fe	Fe	0.61330 -0.00000 0.25000 1.12400
Fe	Fe	-0.00000 0.61330 0.25000 1.12600
Fe	Fe	0.38670 0.38670 0.25000 1.19600
Fe	Fe	0.38670 0.00000 0.75000 1.12200
Fe	Fe	0.00000 0.38670 0.75000 1.12100
Fe	Fe	0.61330 0.61330 0.75000 1.20300
Fe	Fe	0.66667 0.33333 0.33453 1.18200
Fe	Fe	0.33333 0.66667 0.16547 1.18200
Fe	Fe	0.33333 0.66667 0.66547 1.18200
Fe	Fe	0.66667 0.33333 0.83453 1.18200
