data_crystal

_cell_length_a 15.33000
_cell_length_b 15.45300
_cell_length_c 16.66000
_cell_angle_alpha 90.00000
_cell_angle_beta  90.00000
_cell_angle_gamma 90.00000

_symmetry_space_group_name_	'P 1'
_symmetry_space_group_name_H-M	'P 1'

loop_
_symmetry_equiv_pos_as_xyz
  x,y,z

loop_
_atom_site_label
_atom_site_type_symbol
_atom_site_fract_x
_atom_site_fract_y
_atom_site_fract_z
_atom_site_charge
Na	Na	0.80439 0.79367 0.78314 0.59800
Na	Na	0.69561 0.20633 0.28314 0.59700
Na	Na	0.19561 0.29367 0.71686 0.59700
Na	Na	0.30439 0.70633 0.21686 0.59700
Ni	Ni	0.39161 0.09381 0.89981 1.14900
Ni	Ni	0.10839 0.90619 0.39981 1.14900
Ni	Ni	0.60839 0.59381 0.60019 1.14900
Ni	Ni	0.89161 0.40619 0.10019 1.14900
H 	H 	0.64760 0.05150 0.73570 0.17200
H 	H 	0.64120 0.07090 0.82800 0.17800
H 	H 	0.63500 0.92190 0.85820 -0.00600
H 	H 	0.64970 0.88810 0.69230 0.06000
H 	H 	0.50500 0.84020 0.69130 -0.02900
H 	H 	0.51540 0.98580 0.66480 0.15700
H 	H 	0.42980 0.97030 0.71430 0.16100
H 	H 	0.21090 0.85660 0.98830 0.18600
H 	H 	0.30490 0.85120 0.95150 0.18400
H 	H 	0.36740 0.86310 0.07670 -0.03400
H 	H 	0.19640 0.87110 0.14260 0.07500
H 	H 	0.22350 0.01440 0.17680 -0.03700
H 	H 	0.16100 0.00020 0.05140 0.16600
H 	H 	0.22620 0.07850 0.04930 0.17600
H 	H 	0.43850 0.26180 0.13940 0.18100
H 	H 	0.41710 0.16340 0.12690 0.18300
H 	H 	0.56680 0.12950 0.11860 -0.02300
H 	H 	0.60000 0.30770 0.14640 0.07300
H 	H 	0.65030 0.32120 0.01640 -0.02300
H 	H 	0.52020 0.30110 0.94130 0.16200
H 	H 	0.50170 0.34810 0.02320 0.16200
H 	H 	0.47550 0.95930 0.85900 0.25900
H 	H 	0.76610 0.88960 0.81250 0.15300
H 	H 	0.62360 0.75480 0.74660 0.27400
H 	H 	0.47390 0.89090 0.83710 0.17800
H 	H 	0.37660 0.01540 0.02970 0.25500
H 	H 	0.32250 0.73160 0.04640 0.26500
H 	H 	0.27550 0.89100 0.25460 0.25200
H 	H 	0.36710 0.02280 0.09360 0.17700
H 	H 	0.53210 0.14200 0.97360 0.26400
H 	H 	0.52550 0.13700 0.24340 0.26600
H 	H 	0.73600 0.24810 0.11700 0.26900
H 	H 	0.60100 0.16630 0.97210 0.17200
H 	H 	0.85240 0.94850 0.23570 0.17200
H 	H 	0.85880 0.92910 0.32800 0.17900
H 	H 	0.86500 0.07810 0.35820 -0.00600
H 	H 	0.85030 0.11190 0.19230 0.06100
H 	H 	0.99500 0.15980 0.19130 -0.03000
H 	H 	0.98460 0.01420 0.16480 0.16000
H 	H 	0.07020 0.02970 0.21430 0.16300
H 	H 	0.28910 0.14340 0.48830 0.18500
H 	H 	0.19510 0.14880 0.45150 0.18400
H 	H 	0.13260 0.13690 0.57670 -0.03400
H 	H 	0.30360 0.12890 0.64260 0.07500
H 	H 	0.27650 0.98560 0.67680 -0.03500
H 	H 	0.33900 0.99980 0.55140 0.16600
H 	H 	0.27380 0.92150 0.54930 0.17600
H 	H 	0.06150 0.73820 0.63940 0.18100
H 	H 	0.08290 0.83660 0.62690 0.18400
H 	H 	0.93320 0.87050 0.61860 -0.02300
H 	H 	0.90000 0.69230 0.64640 0.07200
H 	H 	0.84970 0.67880 0.51640 -0.02300
H 	H 	0.97980 0.69890 0.44130 0.16300
H 	H 	0.99830 0.65190 0.52320 0.16300
H 	H 	0.02450 0.04070 0.35900 0.25800
H 	H 	0.73390 0.11040 0.31250 0.15300
H 	H 	0.87640 0.24520 0.24660 0.27400
H 	H 	0.02610 0.10910 0.33710 0.17800
H 	H 	0.12340 0.98460 0.52970 0.25700
H 	H 	0.17750 0.26840 0.54640 0.26500
H 	H 	0.22450 0.10900 0.75460 0.25200
H 	H 	0.13290 0.97720 0.59360 0.17600
H 	H 	0.96790 0.85800 0.47360 0.26300
H 	H 	0.97450 0.86300 0.74340 0.26600
H 	H 	0.76400 0.75190 0.61700 0.26900
H 	H 	0.89900 0.83370 0.47210 0.17200
H 	H 	0.35240 0.55150 0.76430 0.17200
H 	H 	0.35880 0.57090 0.67200 0.17900
H 	H 	0.36500 0.42190 0.64180 -0.00600
H 	H 	0.35030 0.38810 0.80770 0.06000
H 	H 	0.49500 0.34020 0.80870 -0.02900
H 	H 	0.48460 0.48580 0.83520 0.15800
H 	H 	0.57020 0.47030 0.78570 0.16100
H 	H 	0.78910 0.35660 0.51170 0.18600
H 	H 	0.69510 0.35120 0.54850 0.18400
H 	H 	0.63260 0.36310 0.42330 -0.03400
H 	H 	0.80360 0.37110 0.35740 0.07500
H 	H 	0.77650 0.51440 0.32320 -0.03500
H 	H 	0.83900 0.50020 0.44860 0.16600
H 	H 	0.77380 0.57850 0.45070 0.17600
H 	H 	0.56150 0.76180 0.36060 0.18100
H 	H 	0.58290 0.66340 0.37310 0.18400
H 	H 	0.43320 0.62950 0.38140 -0.02300
H 	H 	0.40000 0.80770 0.35360 0.07300
H 	H 	0.34970 0.82120 0.48360 -0.02300
H 	H 	0.47980 0.80110 0.55870 0.16300
H 	H 	0.49830 0.84810 0.47680 0.16300
H 	H 	0.52450 0.45930 0.64100 0.26000
H 	H 	0.23390 0.38960 0.68750 0.15300
H 	H 	0.37640 0.25480 0.75340 0.27400
H 	H 	0.52610 0.39090 0.66290 0.17800
H 	H 	0.62340 0.51540 0.47030 0.25700
H 	H 	0.67750 0.23160 0.45360 0.26500
H 	H 	0.72450 0.39100 0.24540 0.25200
H 	H 	0.63290 0.52280 0.40640 0.17600
H 	H 	0.46790 0.64200 0.52640 0.26400
H 	H 	0.47450 0.63700 0.25660 0.26600
H 	H 	0.26400 0.74810 0.38300 0.26900
H 	H 	0.39900 0.66630 0.52790 0.17200
H 	H 	0.14760 0.44850 0.26430 0.17200
H 	H 	0.14120 0.42910 0.17200 0.17800
H 	H 	0.13500 0.57810 0.14180 -0.00500
H 	H 	0.14970 0.61190 0.30770 0.06000
H 	H 	0.00500 0.65980 0.30870 -0.02900
H 	H 	0.01540 0.51420 0.33520 0.15700
H 	H 	0.92980 0.52970 0.28570 0.16100
H 	H 	0.71090 0.64340 0.01170 0.18500
H 	H 	0.80490 0.64880 0.04850 0.18400
H 	H 	0.86740 0.63690 0.92330 -0.03400
H 	H 	0.69640 0.62890 0.85740 0.07500
H 	H 	0.72350 0.48560 0.82320 -0.03500
H 	H 	0.66100 0.49980 0.94860 0.16600
H 	H 	0.72620 0.42150 0.95070 0.17600
H 	H 	0.93850 0.23820 0.86060 0.18200
H 	H 	0.91710 0.33660 0.87310 0.18400
H 	H 	0.06680 0.37050 0.88140 -0.02400
H 	H 	0.10000 0.19230 0.85360 0.07300
H 	H 	0.15030 0.17880 0.98360 -0.02400
H 	H 	0.02020 0.19890 0.05870 0.16400
H 	H 	0.00170 0.15190 0.97680 0.16500
H 	H 	0.97550 0.54070 0.14100 0.25900
H 	H 	0.26610 0.61040 0.18750 0.15300
H 	H 	0.12360 0.74520 0.25340 0.27400
H 	H 	0.97390 0.60910 0.16290 0.17800
H 	H 	0.87660 0.48460 0.97030 0.25600
H 	H 	0.82250 0.76840 0.95360 0.26400
H 	H 	0.77550 0.60900 0.74540 0.25200
H 	H 	0.86710 0.47720 0.90640 0.17600
H 	H 	0.03210 0.35800 0.02640 0.26300
H 	H 	0.02550 0.36300 0.75660 0.26700
H 	H 	0.23600 0.25190 0.88300 0.26900
H 	H 	0.10100 0.33370 0.02790 0.17300
C 	C 	0.52400 0.03330 0.77980 0.26200
C 	C 	0.62250 0.03190 0.78590 -0.39600
C 	C 	0.65490 0.93900 0.80460 0.23100
C 	C 	0.62290 0.87540 0.74430 -0.04700
C 	C 	0.52240 0.87840 0.73550 0.24400
C 	C 	0.49300 0.96890 0.71690 -0.42600
C 	C 	0.49280 0.12690 0.75790 0.20300
C 	C 	0.27150 0.97330 0.98440 0.28900
C 	C 	0.27040 0.87710 0.99410 -0.46700
C 	C 	0.30540 0.84770 0.07340 0.30900
C 	C 	0.25710 0.89080 0.14270 -0.08600
C 	C 	0.25860 0.98870 0.13380 0.27000
C 	C 	0.22210 0.01600 0.05420 -0.45100
C 	C 	0.23170 0.00330 0.90160 0.19800
C 	C 	0.45700 0.22270 0.02220 0.27600
C 	C 	0.45750 0.20920 0.11290 -0.43200
C 	C 	0.54950 0.18530 0.14160 0.27000
C 	C 	0.61390 0.25410 0.11770 -0.05400
C 	C 	0.61210 0.27190 0.02770 0.22800
C 	C 	0.52020 0.29390 0.99920 -0.42000
C 	C 	0.36090 0.24610 0.99530 0.20900
C 	C 	0.97600 0.96670 0.27980 0.26300
C 	C 	0.87750 0.96810 0.28590 -0.39900
C 	C 	0.84510 0.06100 0.30460 0.23400
C 	C 	0.87710 0.12460 0.24430 -0.04900
C 	C 	0.97760 0.12160 0.23550 0.24800
C 	C 	0.00700 0.03110 0.21690 -0.43100
C 	C 	0.00720 0.87310 0.25790 0.20400
C 	C 	0.22850 0.02670 0.48440 0.28800
C 	C 	0.22960 0.12290 0.49410 -0.46500
C 	C 	0.19460 0.15230 0.57340 0.30700
C 	C 	0.24290 0.10920 0.64270 -0.08400
C 	C 	0.24140 0.01130 0.63380 0.26500
C 	C 	0.27790 0.98400 0.55420 -0.44800
C 	C 	0.26830 0.99670 0.40160 0.19800
C 	C 	0.04300 0.77730 0.52220 0.27800
C 	C 	0.04250 0.79080 0.61290 -0.43100
C 	C 	0.95050 0.81470 0.64160 0.26900
C 	C 	0.88610 0.74590 0.61770 -0.05400
C 	C 	0.88790 0.72810 0.52770 0.22900
C 	C 	0.97980 0.70610 0.49920 -0.42200
C 	C 	0.13910 0.75390 0.49530 0.20800
C 	C 	0.47600 0.53330 0.72020 0.26200
C 	C 	0.37750 0.53190 0.71410 -0.39700
C 	C 	0.34510 0.43900 0.69540 0.23200
C 	C 	0.37710 0.37540 0.75570 -0.04800
C 	C 	0.47760 0.37840 0.76450 0.24400
C 	C 	0.50700 0.46890 0.78310 -0.42500
C 	C 	0.50720 0.62690 0.74210 0.20300
C 	C 	0.72850 0.47330 0.51560 0.29000
C 	C 	0.72960 0.37710 0.50590 -0.46600
C 	C 	0.69460 0.34770 0.42660 0.30800
C 	C 	0.74290 0.39080 0.35730 -0.08400
C 	C 	0.74140 0.48870 0.36620 0.26600
C 	C 	0.77790 0.51600 0.44580 -0.44800
C 	C 	0.76830 0.50330 0.59840 0.19800
C 	C 	0.54300 0.72270 0.47780 0.27800
C 	C 	0.54250 0.70920 0.38710 -0.43300
C 	C 	0.45050 0.68530 0.35840 0.27000
C 	C 	0.38610 0.75410 0.38230 -0.05400
C 	C 	0.38790 0.77190 0.47230 0.22900
C 	C 	0.47980 0.79390 0.50080 -0.42200
C 	C 	0.63910 0.74610 0.50470 0.20800
C 	C 	0.02400 0.46670 0.22020 0.26100
C 	C 	0.12250 0.46810 0.21410 -0.39600
C 	C 	0.15490 0.56100 0.19540 0.23200
C 	C 	0.12290 0.62460 0.25570 -0.04700
C 	C 	0.02240 0.62160 0.26450 0.24300
C 	C 	0.99300 0.53110 0.28310 -0.42400
C 	C 	0.99280 0.37310 0.24210 0.20400
C 	C 	0.77150 0.52670 0.01560 0.28900
C 	C 	0.77040 0.62290 0.00590 -0.46400
C 	C 	0.80540 0.65230 0.92660 0.30700
C 	C 	0.75710 0.60920 0.85730 -0.08400
C 	C 	0.75860 0.51130 0.86620 0.26600
C 	C 	0.72210 0.48400 0.94580 -0.44900
C 	C 	0.73170 0.49670 0.09840 0.19800
C 	C 	0.95700 0.27730 0.97780 0.27900
C 	C 	0.95750 0.29080 0.88710 -0.43400
C 	C 	0.04950 0.31470 0.85840 0.27100
C 	C 	0.11390 0.24590 0.88230 -0.05600
C 	C 	0.11210 0.22810 0.97230 0.23300
C 	C 	0.02020 0.20610 0.00080 -0.42700
C 	C 	0.86090 0.25390 0.00470 0.20700
O 	O 	0.48460 0.01150 0.85700 -0.54900
O 	O 	0.74820 0.93840 0.80230 -0.36200
O 	O 	0.65090 0.79240 0.77060 -0.39400
O 	O 	0.48200 0.84960 0.80720 -0.34500
O 	O 	0.43290 0.15920 0.80280 -0.36700
O 	O 	0.52590 0.16210 0.69950 -0.21100
O 	O 	0.36150 0.00340 0.98380 -0.55200
O 	O 	0.29670 0.75630 0.08290 -0.48200
O 	O 	0.29780 0.86460 0.21720 -0.35900
O 	O 	0.34540 0.02190 0.13860 -0.36200
O 	O 	0.27940 0.04460 0.85230 -0.35200
O 	O 	0.15450 0.98380 0.89170 -0.22200
O 	O 	0.47950 0.14300 0.98230 -0.55400
O 	O 	0.55150 0.18050 0.22850 -0.46200
O 	O 	0.69780 0.22410 0.14340 -0.38600
O 	O 	0.64230 0.19850 0.98180 -0.33400
O 	O 	0.32530 0.19390 0.94600 -0.36600
O 	O 	0.32750 0.31050 0.02470 -0.21000
O 	O 	0.01540 0.98850 0.35700 -0.54900
O 	O 	0.75180 0.06160 0.30230 -0.36200
O 	O 	0.84910 0.20760 0.27060 -0.39300
O 	O 	0.01800 0.15040 0.30720 -0.34600
O 	O 	0.06710 0.84080 0.30280 -0.36700
O 	O 	0.97410 0.83790 0.19950 -0.21200
O 	O 	0.13850 0.99660 0.48380 -0.55300
O 	O 	0.20330 0.24370 0.58290 -0.48200
O 	O 	0.20220 0.13540 0.71720 -0.35900
O 	O 	0.15460 0.97810 0.63860 -0.36100
O 	O 	0.22060 0.95540 0.35230 -0.35200
O 	O 	0.34550 0.01620 0.39170 -0.22200
O 	O 	0.02050 0.85700 0.48230 -0.55400
O 	O 	0.94850 0.81950 0.72850 -0.46200
O 	O 	0.80220 0.77590 0.64340 -0.38600
O 	O 	0.85770 0.80150 0.48180 -0.33400
O 	O 	0.17470 0.80610 0.44600 -0.36600
O 	O 	0.17250 0.68950 0.52470 -0.20900
O 	O 	0.51540 0.51150 0.64300 -0.55000
O 	O 	0.25180 0.43840 0.69770 -0.36200
O 	O 	0.34910 0.29240 0.72940 -0.39400
O 	O 	0.51800 0.34960 0.69280 -0.34400
O 	O 	0.56710 0.65920 0.69720 -0.36700
O 	O 	0.47410 0.66210 0.80050 -0.21100
O 	O 	0.63850 0.50340 0.51620 -0.55400
O 	O 	0.70330 0.25630 0.41710 -0.48200
O 	O 	0.70220 0.36460 0.28280 -0.35900
O 	O 	0.65460 0.52190 0.36140 -0.36100
O 	O 	0.72060 0.54460 0.64770 -0.35200
O 	O 	0.84550 0.48380 0.60830 -0.22200
O 	O 	0.52050 0.64300 0.51770 -0.55500
O 	O 	0.44850 0.68050 0.27150 -0.46200
O 	O 	0.30220 0.72410 0.35660 -0.38600
O 	O 	0.35770 0.69850 0.51820 -0.33400
O 	O 	0.67470 0.69390 0.55400 -0.36600
O 	O 	0.67250 0.81050 0.47530 -0.20900
O 	O 	0.98460 0.48850 0.14300 -0.55000
O 	O 	0.24820 0.56160 0.19770 -0.36200
O 	O 	0.15090 0.70760 0.22940 -0.39400
O 	O 	0.98200 0.65040 0.19280 -0.34400
O 	O 	0.93290 0.34080 0.19720 -0.36800
O 	O 	0.02590 0.33790 0.30050 -0.21200
O 	O 	0.86150 0.49660 0.01620 -0.55300
O 	O 	0.79670 0.74370 0.91710 -0.48200
O 	O 	0.79780 0.63540 0.78280 -0.35900
O 	O 	0.84540 0.47810 0.86140 -0.36100
O 	O 	0.77940 0.45540 0.14770 -0.35200
O 	O 	0.65450 0.51620 0.10830 -0.22200
O 	O 	0.97950 0.35700 0.01770 -0.55400
O 	O 	0.05150 0.31950 0.77150 -0.46300
O 	O 	0.19780 0.27590 0.85660 -0.38500
O 	O 	0.14230 0.30150 0.01820 -0.33500
O 	O 	0.82530 0.30610 0.05400 -0.36600
O 	O 	0.82750 0.18950 0.97530 -0.20900
