data_crystal

_cell_length_a 6.29240
_cell_length_b 8.67020
_cell_length_c 12.95270
_cell_angle_alpha 105.43200
_cell_angle_beta  90.45100
_cell_angle_gamma 105.11800

_symmetry_space_group_name_	'P 1'
_symmetry_space_group_name_H-M	'P 1'

loop_
_symmetry_equiv_pos_as_xyz
  x,y,z

loop_
_atom_site_label
_atom_site_type_symbol
_atom_site_fract_x
_atom_site_fract_y
_atom_site_fract_z
_atom_site_charge
C 	C 	0.94560 0.55190 0.04580 0.30700
C 	C 	0.40520 0.42050 0.47950 0.24500
C 	C 	0.26570 0.10450 0.78050 0.28800
Eu	Eu	0.44137 0.47133 0.74264 2.00400
Eu	Eu	0.19080 0.83336 0.92483 2.12700
O 	O 	0.51250 0.76920 0.83950 -0.67700
O 	O 	0.79750 0.66900 0.83870 -0.59500
O 	O 	0.83970 0.93190 0.92450 -0.64600
O 	O 	0.36060 0.37140 0.38060 -0.38400
O 	O 	0.31400 0.35080 0.54640 -0.39700
O 	O 	0.16510 0.96040 0.77700 -0.42500
O 	O 	0.23370 0.18350 0.71680 -0.42100
O 	O 	0.55750 0.34110 0.87360 -0.43800
O 	O 	0.49420 0.11600 0.93350 -0.52500
C 	C 	0.71690 0.79270 0.86870 0.66000
C 	C 	0.45650 0.19670 0.87110 0.29900
O 	O 	0.98020 0.70210 0.05540 -0.43700
O 	O 	0.14070 0.60160 0.70520 -0.35700
H 	H 	0.16500 0.71110 0.67490 0.12000
H 	H 	0.13320 0.64610 0.79080 -0.08900
O 	O 	0.73220 0.32860 0.66170 -0.91900
H 	H 	0.60980 0.27940 0.65990 0.33700
H 	H 	0.76920 0.32480 0.60230 0.43200
O 	O 	0.82670 0.47150 0.10320 -0.51100
C 	C 	0.05440 0.44810 0.95420 0.30800
C 	C 	0.59480 0.57950 0.52050 0.24600
C 	C 	0.73430 0.89550 0.21950 0.28900
Eu	Eu	0.55863 0.52867 0.25736 2.00500
Eu	Eu	0.80920 0.16664 0.07517 2.12700
O 	O 	0.48750 0.23080 0.16050 -0.67700
O 	O 	0.20250 0.33100 0.16130 -0.59500
O 	O 	0.16030 0.06810 0.07550 -0.64600
O 	O 	0.63940 0.62860 0.61940 -0.38400
O 	O 	0.68600 0.64920 0.45360 -0.39700
O 	O 	0.83490 0.03960 0.22300 -0.42500
O 	O 	0.76630 0.81650 0.28320 -0.42100
O 	O 	0.44250 0.65890 0.12640 -0.43800
O 	O 	0.50580 0.88400 0.06650 -0.52500
C 	C 	0.28310 0.20730 0.13130 0.66000
C 	C 	0.54350 0.80330 0.12890 0.29900
O 	O 	0.01980 0.29790 0.94460 -0.43700
O 	O 	0.85930 0.39840 0.29480 -0.35700
H 	H 	0.83500 0.28890 0.32510 0.12000
H 	H 	0.86680 0.35390 0.20920 -0.08900
O 	O 	0.26780 0.67140 0.33830 -0.91900
H 	H 	0.39020 0.72060 0.34010 0.33700
H 	H 	0.23080 0.67520 0.39770 0.43200
O 	O 	0.17330 0.52850 0.89680 -0.51100
