data_crystal

_cell_length_a 12.65300
_cell_length_b 25.49700
_cell_length_c 28.55100
_cell_angle_alpha 90.00000
_cell_angle_beta  90.94500
_cell_angle_gamma 90.00000

_symmetry_space_group_name_	'P 1'
_symmetry_space_group_name_H-M	'P 1'

loop_
_symmetry_equiv_pos_as_xyz
  x,y,z

loop_
_atom_site_label
_atom_site_type_symbol
_atom_site_fract_x
_atom_site_fract_y
_atom_site_fract_z
_atom_site_charge
Co	Co	0.74478 0.99815 0.81303 1.18000
Co	Co	0.24573 0.49964 0.18707 1.18000
Co	Co	0.88687 0.75065 0.03238 1.16400
Co	Co	0.60457 0.74899 0.02427 1.18100
O 	O 	0.74170 0.74959 0.07063 -0.36700
O 	O 	0.84620 0.81250 0.99027 -0.44900
O 	O 	0.67270 0.80072 0.97909 -0.43500
O 	O 	0.46020 0.18868 0.94041 -0.39100
O 	O 	0.33310 0.16943 0.88802 -0.24700
O 	O 	0.66090 0.68362 0.99125 -0.43000
O 	O 	0.83480 0.69559 0.98369 -0.44000
O 	O 	0.94180 0.68954 0.07332 -0.40800
O 	O 	0.81000 0.66861 0.12090 -0.24300
O 	O 	0.86510 0.04423 0.84118 -0.39200
O 	O 	0.90230 0.09680 0.78113 -0.24400
O 	O 	0.34650 0.55094 0.15417 -0.38500
O 	O 	0.39110 0.60433 0.21334 -0.24100
O 	O 	0.27020 0.74911 0.82239 -0.41700
O 	O 	0.14520 0.74799 0.87687 -0.27900
O 	O 	0.64140 0.55370 0.71309 -0.44000
O 	O 	0.62080 0.54213 0.79001 -0.42100
O 	O 	0.61640 0.95650 0.78837 -0.42800
O 	O 	0.64660 0.94367 0.71216 -0.42200
N 	N 	0.74740 0.95113 0.87473 -0.20600
N 	N 	0.63310 0.05003 0.84505 -0.20800
N 	N 	0.75440 0.54808 0.87437 -0.20600
N 	N 	0.11720 0.54572 0.15884 -0.20900
N 	N 	0.05100 0.19271 0.91933 -0.21800
N 	N 	0.52870 0.69699 0.07131 -0.21300
N 	N 	0.47650 0.74824 0.97302 -0.20400
N 	N 	0.36680 0.68642 0.74942 -0.20900
N 	N 	0.36800 0.81130 0.74846 -0.20800
C 	C 	0.84050 0.93372 0.89236 0.03300
H 	H 	0.90370 0.94980 0.88200 0.02600
C 	C 	0.84830 0.89366 0.92476 -0.04200
H 	H 	0.91530 0.88270 0.93670 0.05700
C 	C 	0.75490 0.86956 0.93969 -0.06100
C 	C 	0.66100 0.88810 0.92195 -0.04200
H 	H 	0.59650 0.87290 0.93180 0.06000
C 	C 	0.65910 0.92859 0.88988 0.03500
H 	H 	0.59280 0.94080 0.87820 0.01900
C 	C 	0.75930 0.82365 0.97287 0.39100
C 	C 	0.53740 0.06141 0.82517 0.04800
H 	H 	0.51800 0.04440 0.79670 0.03100
C 	C 	0.46620 0.09680 0.84454 -0.06000
H 	H 	0.40070 0.10400 0.82920 0.07300
C 	C 	0.49240 0.12117 0.88643 -0.02500
C 	C 	0.58710 0.10850 0.90784 -0.06400
H 	H 	0.60730 0.12430 0.93680 0.06600
C 	C 	0.65290 0.07230 0.88660 0.04900
H 	H 	0.71620 0.06260 0.90270 0.01200
C 	C 	0.42120 0.16188 0.90691 0.31000
C 	C 	0.66400 0.56558 0.89196 0.04000
H 	H 	0.59940 0.55020 0.88140 0.02500
C 	C 	0.66050 0.60478 0.92457 -0.04900
H 	H 	0.59440 0.61620 0.93610 0.06100
C 	C 	0.75280 0.62777 0.94069 -0.05400
C 	C 	0.84720 0.60899 0.92367 -0.04700
H 	H 	0.91270 0.62310 0.93450 0.06000
C 	C 	0.84490 0.56975 0.89103 0.03500
H 	H 	0.91010 0.55710 0.87950 0.01800
C 	C 	0.75090 0.67332 0.97489 0.38300
C 	C 	0.12230 0.56490 0.11540 0.04500
H 	H 	0.17780 0.55270 0.09620 0.01300
C 	C 	0.05230 0.60160 0.09610 -0.05800
H 	H 	0.06170 0.61460 0.06520 0.06300
C 	C 	0.97030 0.61850 0.12244 -0.03000
C 	C 	0.95710 0.59690 0.16580 -0.05800
H 	H 	0.89770 0.60620 0.18390 0.07200
C 	C 	0.03130 0.56100 0.18330 0.05000
H 	H 	0.02120 0.54670 0.21360 0.02700
C 	C 	0.90050 0.66180 0.10400 0.32300
C 	C 	0.00480 0.14960 0.93370 0.05200
H 	H 	0.00280 0.14380 0.96650 0.00700
C 	C 	0.95870 0.11200 0.90500 -0.06700
H 	H 	0.92720 0.08140 0.91750 0.06700
C 	C 	0.96050 0.12120 0.85670 -0.02300
C 	C 	0.01100 0.16610 0.84020 -0.06500
H 	H 	0.01480 0.17300 0.80760 0.07600
C 	C 	0.05520 0.20020 0.87290 0.05400
H 	H 	0.09030 0.23060 0.86170 0.02900
C 	C 	0.90520 0.08450 0.82360 0.31600
C 	C 	0.48190 0.65290 0.05890 0.05900
H 	H 	0.48070 0.64450 0.02650 0.01100
C 	C 	0.43380 0.61730 0.08917 -0.07100
H 	H 	0.39880 0.58690 0.07760 0.06900
C 	C 	0.43890 0.62800 0.13610 -0.02000
C 	C 	0.48640 0.67440 0.15160 -0.06000
H 	H 	0.48910 0.68320 0.18400 0.07600
C 	C 	0.52940 0.70720 0.11840 0.04800
H 	H 	0.56150 0.73880 0.12890 0.03200
C 	C 	0.38960 0.59190 0.17096 0.30900
C 	C 	0.37700 0.75378 0.98360 0.04600
H 	H 	0.35840 0.75720 0.01560 0.00900
C 	C 	0.29730 0.75480 0.94930 -0.05900
H 	H 	0.22570 0.75930 0.95800 0.05600
C 	C 	0.32260 0.74930 0.90250 -0.04300
C 	C 	0.43000 0.74361 0.89140 -0.05400
H 	H 	0.45070 0.73990 0.85970 0.05900
C 	C 	0.50430 0.74347 0.92712 0.03400
H 	H 	0.57690 0.74000 0.91970 0.02400
C 	C 	0.23710 0.74903 0.86440 0.33600
C 	C 	0.37650 0.65312 0.78605 0.03200
H 	H 	0.33000 0.65730 0.81160 0.01900
C 	C 	0.44980 0.61369 0.78821 -0.04500
H 	H 	0.45410 0.59150 0.81490 0.06000
C 	C 	0.51890 0.60625 0.75058 -0.05900
C 	C 	0.50760 0.63956 0.71270 -0.03800
H 	H 	0.55130 0.63530 0.68620 0.05900
C 	C 	0.43290 0.67898 0.71336 0.02300
H 	H 	0.42780 0.70200 0.68720 0.03000
C 	C 	0.60060 0.56312 0.75189 0.38000
C 	C 	0.43020 0.82041 0.71126 0.02300
H 	H 	0.42270 0.79840 0.68460 0.03100
C 	C 	0.50380 0.85988 0.71015 -0.03800
H 	H 	0.54470 0.86510 0.68290 0.05900
C 	C 	0.51830 0.89223 0.74895 -0.06100
C 	C 	0.45280 0.88320 0.78662 -0.04200
H 	H 	0.45890 0.90460 0.81380 0.05800
C 	C 	0.38010 0.84400 0.78506 0.03200
H 	H 	0.33550 0.83940 0.81120 0.01900
C 	C 	0.59990 0.93465 0.74935 0.37600
Co	Co	0.75522 0.99815 0.68697 1.17900
Co	Co	0.25427 0.49964 0.31293 1.17900
Co	Co	0.61313 0.75065 0.46762 1.16300
Co	Co	0.89543 0.74899 0.47573 1.18000
O 	O 	0.75830 0.74959 0.42937 -0.36800
O 	O 	0.65380 0.81250 0.50973 -0.45000
O 	O 	0.82730 0.80072 0.52091 -0.43600
O 	O 	0.03980 0.18868 0.55959 -0.39200
O 	O 	0.16690 0.16943 0.61198 -0.24800
O 	O 	0.83910 0.68362 0.50875 -0.43100
O 	O 	0.66520 0.69559 0.51631 -0.44000
O 	O 	0.55820 0.68954 0.42668 -0.40800
O 	O 	0.69000 0.66861 0.37910 -0.24300
O 	O 	0.63490 0.04423 0.65882 -0.39200
O 	O 	0.59770 0.09680 0.71887 -0.24500
O 	O 	0.15350 0.55094 0.34583 -0.38500
O 	O 	0.10890 0.60433 0.28666 -0.24100
O 	O 	0.22980 0.74911 0.67761 -0.41700
O 	O 	0.35480 0.74799 0.62313 -0.27900
O 	O 	0.85860 0.55370 0.78691 -0.44000
O 	O 	0.87920 0.54213 0.70999 -0.42100
O 	O 	0.88360 0.95650 0.71163 -0.42900
O 	O 	0.85340 0.94367 0.78784 -0.42200
N 	N 	0.75260 0.95113 0.62527 -0.20500
N 	N 	0.86690 0.05003 0.65495 -0.20800
N 	N 	0.74560 0.54808 0.62563 -0.20600
N 	N 	0.38280 0.54572 0.34116 -0.20900
N 	N 	0.44900 0.19271 0.58067 -0.21800
N 	N 	0.97130 0.69699 0.42869 -0.21300
N 	N 	0.02350 0.74824 0.52698 -0.20300
N 	N 	0.13320 0.68642 0.75058 -0.20900
N 	N 	0.13200 0.81130 0.75154 -0.20800
C 	C 	0.65950 0.93372 0.60764 0.03300
H 	H 	0.59630 0.94980 0.61800 0.02600
C 	C 	0.65170 0.89366 0.57524 -0.04200
H 	H 	0.58470 0.88270 0.56330 0.05700
C 	C 	0.74510 0.86956 0.56031 -0.06100
C 	C 	0.83900 0.88810 0.57805 -0.04200
H 	H 	0.90350 0.87290 0.56820 0.06000
C 	C 	0.84090 0.92859 0.61012 0.03500
H 	H 	0.90720 0.94080 0.62180 0.01800
C 	C 	0.74070 0.82365 0.52713 0.39100
C 	C 	0.96260 0.06141 0.67483 0.05100
H 	H 	0.98200 0.04440 0.70330 0.03100
C 	C 	0.03380 0.09680 0.65546 -0.06200
H 	H 	0.09930 0.10400 0.67080 0.07400
C 	C 	0.00760 0.12117 0.61357 -0.02700
C 	C 	0.91290 0.10850 0.59216 -0.06200
H 	H 	0.89270 0.12430 0.56320 0.06600
C 	C 	0.84710 0.07230 0.61340 0.04800
H 	H 	0.78380 0.06260 0.59730 0.01200
C 	C 	0.07880 0.16188 0.59309 0.31000
C 	C 	0.83600 0.56558 0.60804 0.04000
H 	H 	0.90060 0.55020 0.61860 0.02500
C 	C 	0.83950 0.60478 0.57543 -0.04900
H 	H 	0.90560 0.61620 0.56390 0.06000
C 	C 	0.74720 0.62777 0.55931 -0.05400
C 	C 	0.65280 0.60899 0.57633 -0.04700
H 	H 	0.58730 0.62310 0.56550 0.06000
C 	C 	0.65510 0.56975 0.60897 0.03500
H 	H 	0.58990 0.55710 0.62050 0.01800
C 	C 	0.74910 0.67332 0.52511 0.38300
C 	C 	0.37770 0.56490 0.38460 0.04600
H 	H 	0.32220 0.55270 0.40380 0.01200
C 	C 	0.44770 0.60160 0.40390 -0.06000
H 	H 	0.43830 0.61460 0.43480 0.06300
C 	C 	0.52970 0.61850 0.37756 -0.02900
C 	C 	0.54290 0.59690 0.33420 -0.05700
H 	H 	0.60230 0.60620 0.31610 0.07100
C 	C 	0.46870 0.56100 0.31670 0.04900
H 	H 	0.47880 0.54670 0.28640 0.02700
C 	C 	0.59950 0.66180 0.39600 0.32200
C 	C 	0.49520 0.14960 0.56630 0.05400
H 	H 	0.49720 0.14380 0.53350 0.00700
C 	C 	0.54130 0.11200 0.59500 -0.07000
H 	H 	0.57280 0.08140 0.58250 0.06700
C 	C 	0.53950 0.12120 0.64330 -0.02400
C 	C 	0.48900 0.16610 0.65980 -0.06300
H 	H 	0.48520 0.17300 0.69240 0.07600
C 	C 	0.44480 0.20020 0.62710 0.05400
H 	H 	0.40970 0.23060 0.63830 0.03000
C 	C 	0.59480 0.08450 0.67640 0.31600
C 	C 	0.01810 0.65290 0.44110 0.06000
H 	H 	0.01930 0.64450 0.47350 0.01100
C 	C 	0.06620 0.61730 0.41083 -0.07100
H 	H 	0.10120 0.58690 0.42240 0.06900
C 	C 	0.06110 0.62800 0.36390 -0.02000
C 	C 	0.01360 0.67440 0.34840 -0.05900
H 	H 	0.01090 0.68320 0.31600 0.07500
C 	C 	0.97060 0.70720 0.38160 0.04600
H 	H 	0.93850 0.73880 0.37110 0.03300
C 	C 	0.11040 0.59190 0.32904 0.30900
C 	C 	0.12300 0.75378 0.51640 0.04600
H 	H 	0.14160 0.75720 0.48440 0.00900
C 	C 	0.20270 0.75480 0.55070 -0.05800
H 	H 	0.27430 0.75930 0.54200 0.05600
C 	C 	0.17740 0.74930 0.59750 -0.04300
C 	C 	0.07000 0.74361 0.60860 -0.05200
H 	H 	0.04930 0.73990 0.64030 0.05800
C 	C 	0.99570 0.74347 0.57288 0.03200
H 	H 	0.92310 0.74000 0.58030 0.02500
C 	C 	0.26290 0.74903 0.63560 0.33600
C 	C 	0.12350 0.65312 0.71395 0.03200
H 	H 	0.17000 0.65730 0.68840 0.01900
C 	C 	0.05020 0.61369 0.71179 -0.04500
H 	H 	0.04590 0.59150 0.68510 0.06000
C 	C 	0.98110 0.60625 0.74942 -0.05900
C 	C 	0.99240 0.63956 0.78730 -0.03800
H 	H 	0.94870 0.63530 0.81380 0.05900
C 	C 	0.06710 0.67898 0.78664 0.02300
H 	H 	0.07220 0.70200 0.81280 0.03000
C 	C 	0.89940 0.56312 0.74811 0.38000
C 	C 	0.06980 0.82041 0.78874 0.02400
H 	H 	0.07730 0.79840 0.81540 0.03100
C 	C 	0.99620 0.85988 0.78985 -0.03800
H 	H 	0.95530 0.86510 0.81710 0.06000
C 	C 	0.98170 0.89223 0.75105 -0.06200
C 	C 	0.04720 0.88320 0.71338 -0.04100
H 	H 	0.04110 0.90460 0.68620 0.05800
C 	C 	0.11990 0.84400 0.71494 0.03200
H 	H 	0.16450 0.83940 0.68880 0.01900
C 	C 	0.90010 0.93465 0.75065 0.37600
Co	Co	0.25522 0.00185 0.18697 1.17900
Co	Co	0.75427 0.50036 0.81293 1.17900
Co	Co	0.11313 0.24935 0.96762 1.16300
Co	Co	0.39543 0.25101 0.97573 1.18000
O 	O 	0.25830 0.25041 0.92937 -0.36800
O 	O 	0.15380 0.18750 0.00973 -0.45000
O 	O 	0.32730 0.19928 0.02091 -0.43600
O 	O 	0.53980 0.81132 0.05959 -0.39200
O 	O 	0.66690 0.83057 0.11198 -0.24800
O 	O 	0.33910 0.31638 0.00875 -0.43100
O 	O 	0.16520 0.30441 0.01631 -0.44000
O 	O 	0.05820 0.31046 0.92668 -0.40800
O 	O 	0.19000 0.33139 0.87910 -0.24300
O 	O 	0.13490 0.95577 0.15882 -0.39200
O 	O 	0.09770 0.90320 0.21887 -0.24400
O 	O 	0.65350 0.44906 0.84583 -0.38500
O 	O 	0.60890 0.39567 0.78666 -0.24100
O 	O 	0.72980 0.25089 0.17761 -0.41700
O 	O 	0.85480 0.25201 0.12313 -0.27900
O 	O 	0.35860 0.44630 0.28691 -0.44000
O 	O 	0.37920 0.45787 0.20999 -0.42100
O 	O 	0.38360 0.04350 0.21163 -0.42800
O 	O 	0.35340 0.05633 0.28784 -0.42200
N 	N 	0.25260 0.04887 0.12527 -0.20600
N 	N 	0.36690 0.94997 0.15495 -0.20800
N 	N 	0.24560 0.45192 0.12563 -0.20600
N 	N 	0.88280 0.45428 0.84116 -0.20900
N 	N 	0.94900 0.80729 0.08067 -0.21800
N 	N 	0.47130 0.30301 0.92869 -0.21300
N 	N 	0.52350 0.25176 0.02698 -0.20400
N 	N 	0.63320 0.31358 0.25058 -0.20900
N 	N 	0.63200 0.18870 0.25154 -0.20800
C 	C 	0.15950 0.06628 0.10764 0.03300
H 	H 	0.09630 0.05020 0.11800 0.02600
C 	C 	0.15170 0.10634 0.07524 -0.04200
H 	H 	0.08470 0.11730 0.06330 0.05700
C 	C 	0.24510 0.13044 0.06031 -0.06100
C 	C 	0.33900 0.11190 0.07805 -0.04200
H 	H 	0.40350 0.12710 0.06820 0.06000
C 	C 	0.34090 0.07141 0.11012 0.03500
H 	H 	0.40720 0.05920 0.12180 0.01900
C 	C 	0.24070 0.17635 0.02713 0.39100
C 	C 	0.46260 0.93859 0.17483 0.04800
H 	H 	0.48200 0.95560 0.20330 0.03100
C 	C 	0.53380 0.90320 0.15546 -0.06000
H 	H 	0.59930 0.89600 0.17080 0.07300
C 	C 	0.50760 0.87883 0.11357 -0.02500
C 	C 	0.41290 0.89150 0.09216 -0.06400
H 	H 	0.39270 0.87570 0.06320 0.06600
C 	C 	0.34710 0.92770 0.11340 0.04900
H 	H 	0.28380 0.93740 0.09730 0.01200
C 	C 	0.57880 0.83812 0.09309 0.31000
C 	C 	0.33600 0.43442 0.10804 0.04000
H 	H 	0.40060 0.44980 0.11860 0.02500
C 	C 	0.33950 0.39522 0.07543 -0.04900
H 	H 	0.40560 0.38380 0.06390 0.06100
C 	C 	0.24720 0.37223 0.05931 -0.05400
C 	C 	0.15280 0.39101 0.07633 -0.04700
H 	H 	0.08730 0.37690 0.06550 0.06000
C 	C 	0.15510 0.43025 0.10897 0.03500
H 	H 	0.08990 0.44290 0.12050 0.01800
C 	C 	0.24910 0.32668 0.02511 0.38300
C 	C 	0.87770 0.43510 0.88460 0.04500
H 	H 	0.82220 0.44730 0.90380 0.01300
C 	C 	0.94770 0.39840 0.90390 -0.05800
H 	H 	0.93830 0.38540 0.93480 0.06300
C 	C 	0.02970 0.38150 0.87756 -0.03000
C 	C 	0.04290 0.40310 0.83420 -0.05800
H 	H 	0.10230 0.39380 0.81610 0.07200
C 	C 	0.96870 0.43900 0.81670 0.05000
H 	H 	0.97880 0.45330 0.78640 0.02700
C 	C 	0.09950 0.33820 0.89600 0.32300
C 	C 	0.99520 0.85040 0.06630 0.05200
H 	H 	0.99720 0.85620 0.03350 0.00700
C 	C 	0.04130 0.88800 0.09500 -0.06700
H 	H 	0.07280 0.91860 0.08250 0.06700
C 	C 	0.03950 0.87880 0.14330 -0.02300
C 	C 	0.98900 0.83390 0.15980 -0.06500
H 	H 	0.98520 0.82700 0.19240 0.07600
C 	C 	0.94480 0.79980 0.12710 0.05400
H 	H 	0.90970 0.76940 0.13830 0.02900
C 	C 	0.09480 0.91550 0.17640 0.31600
C 	C 	0.51810 0.34710 0.94110 0.05900
H 	H 	0.51930 0.35550 0.97350 0.01100
C 	C 	0.56620 0.38270 0.91083 -0.07100
H 	H 	0.60120 0.41310 0.92240 0.06900
C 	C 	0.56110 0.37200 0.86390 -0.02000
C 	C 	0.51360 0.32560 0.84840 -0.06000
H 	H 	0.51090 0.31680 0.81600 0.07600
C 	C 	0.47060 0.29280 0.88160 0.04800
H 	H 	0.43850 0.26120 0.87110 0.03200
C 	C 	0.61040 0.40810 0.82904 0.30900
C 	C 	0.62300 0.24622 0.01640 0.04600
H 	H 	0.64160 0.24280 0.98440 0.00900
C 	C 	0.70270 0.24520 0.05070 -0.05900
H 	H 	0.77430 0.24070 0.04200 0.05600
C 	C 	0.67740 0.25070 0.09750 -0.04300
C 	C 	0.57000 0.25639 0.10860 -0.05400
H 	H 	0.54930 0.26010 0.14030 0.05900
C 	C 	0.49570 0.25653 0.07288 0.03400
H 	H 	0.42310 0.26000 0.08030 0.02400
C 	C 	0.76290 0.25097 0.13560 0.33600
C 	C 	0.62350 0.34688 0.21395 0.03200
H 	H 	0.67000 0.34270 0.18840 0.01900
C 	C 	0.55020 0.38631 0.21179 -0.04500
H 	H 	0.54590 0.40850 0.18510 0.06000
C 	C 	0.48110 0.39375 0.24942 -0.05900
C 	C 	0.49240 0.36044 0.28730 -0.03800
H 	H 	0.44870 0.36470 0.31380 0.05900
C 	C 	0.56710 0.32102 0.28664 0.02300
H 	H 	0.57220 0.29800 0.31280 0.03000
C 	C 	0.39940 0.43688 0.24811 0.38000
C 	C 	0.56980 0.17959 0.28874 0.02300
H 	H 	0.57730 0.20160 0.31540 0.03100
C 	C 	0.49620 0.14012 0.28985 -0.03800
H 	H 	0.45530 0.13490 0.31710 0.05900
C 	C 	0.48170 0.10777 0.25105 -0.06100
C 	C 	0.54720 0.11680 0.21338 -0.04200
H 	H 	0.54110 0.09540 0.18620 0.05800
C 	C 	0.61990 0.15600 0.21494 0.03200
H 	H 	0.66450 0.16060 0.18880 0.01900
C 	C 	0.40010 0.06535 0.25065 0.37600
Co	Co	0.24478 0.00185 0.31303 1.17900
Co	Co	0.74573 0.50036 0.68707 1.17900
Co	Co	0.38687 0.24935 0.53238 1.16300
Co	Co	0.10457 0.25101 0.52427 1.18000
O 	O 	0.24170 0.25041 0.57063 -0.36800
O 	O 	0.34620 0.18750 0.49027 -0.45000
O 	O 	0.17270 0.19928 0.47909 -0.43600
O 	O 	0.96020 0.81132 0.44041 -0.39200
O 	O 	0.83310 0.83057 0.38802 -0.24800
O 	O 	0.16090 0.31638 0.49125 -0.43100
O 	O 	0.33480 0.30441 0.48369 -0.44000
O 	O 	0.44180 0.31046 0.57332 -0.40800
O 	O 	0.31000 0.33139 0.62090 -0.24300
O 	O 	0.36510 0.95577 0.34118 -0.39200
O 	O 	0.40230 0.90320 0.28113 -0.24500
O 	O 	0.84650 0.44906 0.65417 -0.38500
O 	O 	0.89110 0.39567 0.71334 -0.24100
O 	O 	0.77020 0.25089 0.32239 -0.41700
O 	O 	0.64520 0.25201 0.37687 -0.27900
O 	O 	0.14140 0.44630 0.21309 -0.44000
O 	O 	0.12080 0.45787 0.29001 -0.42100
O 	O 	0.11640 0.04350 0.28837 -0.42900
O 	O 	0.14660 0.05633 0.21216 -0.42200
N 	N 	0.24740 0.04887 0.37473 -0.20500
N 	N 	0.13310 0.94997 0.34505 -0.20800
N 	N 	0.25440 0.45192 0.37437 -0.20600
N 	N 	0.61720 0.45428 0.65884 -0.20900
N 	N 	0.55100 0.80729 0.41933 -0.21800
N 	N 	0.02870 0.30301 0.57131 -0.21300
N 	N 	0.97650 0.25176 0.47302 -0.20300
N 	N 	0.86680 0.31358 0.24942 -0.20900
N 	N 	0.86800 0.18870 0.24846 -0.20800
C 	C 	0.34050 0.06628 0.39236 0.03300
H 	H 	0.40370 0.05020 0.38200 0.02600
C 	C 	0.34830 0.10634 0.42476 -0.04200
H 	H 	0.41530 0.11730 0.43670 0.05700
C 	C 	0.25490 0.13044 0.43969 -0.06100
C 	C 	0.16100 0.11190 0.42195 -0.04200
H 	H 	0.09650 0.12710 0.43180 0.06000
C 	C 	0.15910 0.07141 0.38988 0.03500
H 	H 	0.09280 0.05920 0.37820 0.01800
C 	C 	0.25930 0.17635 0.47287 0.39100
C 	C 	0.03740 0.93859 0.32517 0.05100
H 	H 	0.01800 0.95560 0.29670 0.03100
C 	C 	0.96620 0.90320 0.34454 -0.06200
H 	H 	0.90070 0.89600 0.32920 0.07400
C 	C 	0.99240 0.87883 0.38643 -0.02700
C 	C 	0.08710 0.89150 0.40784 -0.06200
H 	H 	0.10730 0.87570 0.43680 0.06600
C 	C 	0.15290 0.92770 0.38660 0.04800
H 	H 	0.21620 0.93740 0.40270 0.01200
C 	C 	0.92120 0.83812 0.40691 0.31000
C 	C 	0.16400 0.43442 0.39196 0.04000
H 	H 	0.09940 0.44980 0.38140 0.02500
C 	C 	0.16050 0.39522 0.42457 -0.04900
H 	H 	0.09440 0.38380 0.43610 0.06000
C 	C 	0.25280 0.37223 0.44069 -0.05400
C 	C 	0.34720 0.39101 0.42367 -0.04700
H 	H 	0.41270 0.37690 0.43450 0.06000
C 	C 	0.34490 0.43025 0.39103 0.03500
H 	H 	0.41010 0.44290 0.37950 0.01800
C 	C 	0.25090 0.32668 0.47489 0.38300
C 	C 	0.62230 0.43510 0.61540 0.04600
H 	H 	0.67780 0.44730 0.59620 0.01200
C 	C 	0.55230 0.39840 0.59610 -0.06000
H 	H 	0.56170 0.38540 0.56520 0.06300
C 	C 	0.47030 0.38150 0.62244 -0.02900
C 	C 	0.45710 0.40310 0.66580 -0.05700
H 	H 	0.39770 0.39380 0.68390 0.07100
C 	C 	0.53130 0.43900 0.68330 0.04900
H 	H 	0.52120 0.45330 0.71360 0.02700
C 	C 	0.40050 0.33820 0.60400 0.32200
C 	C 	0.50480 0.85040 0.43370 0.05400
H 	H 	0.50280 0.85620 0.46650 0.00700
C 	C 	0.45870 0.88800 0.40500 -0.07000
H 	H 	0.42720 0.91860 0.41750 0.06700
C 	C 	0.46050 0.87880 0.35670 -0.02400
C 	C 	0.51100 0.83390 0.34020 -0.06300
H 	H 	0.51480 0.82700 0.30760 0.07600
C 	C 	0.55520 0.79980 0.37290 0.05400
H 	H 	0.59030 0.76940 0.36170 0.03000
C 	C 	0.40520 0.91550 0.32360 0.31600
C 	C 	0.98190 0.34710 0.55890 0.06000
H 	H 	0.98070 0.35550 0.52650 0.01100
C 	C 	0.93380 0.38270 0.58917 -0.07100
H 	H 	0.89880 0.41310 0.57760 0.06900
C 	C 	0.93890 0.37200 0.63610 -0.02000
C 	C 	0.98640 0.32560 0.65160 -0.05900
H 	H 	0.98910 0.31680 0.68400 0.07500
C 	C 	0.02940 0.29280 0.61840 0.04600
H 	H 	0.06150 0.26120 0.62890 0.03300
C 	C 	0.88960 0.40810 0.67096 0.30900
C 	C 	0.87700 0.24622 0.48360 0.04600
H 	H 	0.85840 0.24280 0.51560 0.00900
C 	C 	0.79730 0.24520 0.44930 -0.05800
H 	H 	0.72570 0.24070 0.45800 0.05600
C 	C 	0.82260 0.25070 0.40250 -0.04300
C 	C 	0.93000 0.25639 0.39140 -0.05200
H 	H 	0.95070 0.26010 0.35970 0.05800
C 	C 	0.00430 0.25653 0.42712 0.03200
H 	H 	0.07690 0.26000 0.41970 0.02500
C 	C 	0.73710 0.25097 0.36440 0.33600
C 	C 	0.87650 0.34688 0.28605 0.03200
H 	H 	0.83000 0.34270 0.31160 0.01900
C 	C 	0.94980 0.38631 0.28821 -0.04500
H 	H 	0.95410 0.40850 0.31490 0.06000
C 	C 	0.01890 0.39375 0.25058 -0.05900
C 	C 	0.00760 0.36044 0.21270 -0.03800
H 	H 	0.05130 0.36470 0.18620 0.05900
C 	C 	0.93290 0.32102 0.21336 0.02300
H 	H 	0.92780 0.29800 0.18720 0.03000
C 	C 	0.10060 0.43688 0.25189 0.38000
C 	C 	0.93020 0.17959 0.21126 0.02400
H 	H 	0.92270 0.20160 0.18460 0.03100
C 	C 	0.00380 0.14012 0.21015 -0.03800
H 	H 	0.04470 0.13490 0.18290 0.06000
C 	C 	0.01830 0.10777 0.24895 -0.06200
C 	C 	0.95280 0.11680 0.28662 -0.04100
H 	H 	0.95890 0.09540 0.31380 0.05800
C 	C 	0.88010 0.15600 0.28506 0.03200
H 	H 	0.83550 0.16060 0.31120 0.01900
C 	C 	0.09990 0.06535 0.24935 0.37600
Co	Co	0.25000 0.74901 0.75000 1.15000
Co	Co	0.75000 0.25099 0.25000 1.15000
O 	O 	0.75000 0.04243 0.75000 -0.37400
O 	O 	0.25000 0.95757 0.25000 -0.37400
O 	O 	0.25000 0.54577 0.25000 -0.37100
O 	O 	0.75000 0.45423 0.75000 -0.37100
