data_crystal

_cell_length_a 11.11710
_cell_length_b 14.99060
_cell_length_c 24.32810
_cell_angle_alpha 90.00000
_cell_angle_beta  93.21700
_cell_angle_gamma 90.00000

_symmetry_space_group_name_	'P 1'
_symmetry_space_group_name_H-M	'P 1'

loop_
_symmetry_equiv_pos_as_xyz
  x,y,z

loop_
_atom_site_label
_atom_site_type_symbol
_atom_site_fract_x
_atom_site_fract_y
_atom_site_fract_z
_atom_site_charge
Zn	Zn	0.13658 0.55694 0.34320 1.23100
Zn	Zn	0.99305 0.44509 0.44083 1.15600
Zn	Zn	0.82631 0.56004 0.34525 1.23000
O 	O 	0.86370 0.21330 0.05610 -0.32200
O 	O 	0.81290 0.43730 0.45100 -0.55300
O 	O 	0.17420 0.43120 0.44820 -0.55200
O 	O 	0.98260 0.49990 0.36310 -0.80200
H 	H 	0.97780 0.44610 0.33880 0.16800
O 	O 	0.16360 0.21270 0.06280 -0.33100
O 	O 	0.80110 0.54150 0.26570 -0.42600
O 	O 	0.17070 0.18800 0.15290 -0.47400
O 	O 	0.87130 0.18290 0.14550 -0.48200
O 	O 	0.81650 0.39710 0.28640 -0.30700
C 	C 	0.82830 0.44010 0.19250 -0.06400
O 	O 	0.70040 0.51310 0.38860 -0.49300
C 	C 	0.60220 0.42310 0.45070 -0.13700
C 	C 	0.84150 0.50940 0.15520 -0.02200
H 	H 	0.83460 0.56980 0.16660 0.05900
C 	C 	0.19270 0.33400 0.12500 -0.08700
C 	C 	0.24130 0.39240 0.08770 -0.01200
H 	H 	0.26180 0.37120 0.05260 0.04900
C 	C 	0.60920 0.36130 0.49260 0.02000
H 	H 	0.68540 0.34240 0.50800 0.04700
C 	C 	0.81440 0.45870 0.25240 0.30700
C 	C 	0.17380 0.23690 0.11120 0.36800
C 	C 	0.38490 0.41870 0.44930 -0.13700
O 	O 	0.27160 0.50530 0.38520 -0.49300
C 	C 	0.26680 0.45370 0.42690 0.44000
C 	C 	0.49150 0.45290 0.42950 0.07800
H 	H 	0.48760 0.49690 0.40140 0.03900
C 	C 	0.71540 0.45960 0.42940 0.44000
C 	C 	0.16640 0.36610 0.17610 0.02600
H 	H 	0.13410 0.32620 0.20190 0.05700
C 	C 	0.83390 0.35190 0.17570 0.01600
H 	H 	0.82490 0.30500 0.20140 0.05900
C 	C 	0.86120 0.23550 0.10530 0.36900
C 	C 	0.87070 0.40090 0.08340 -0.01300
H 	H 	0.88670 0.38760 0.04630 0.05000
C 	C 	0.39040 0.35630 0.49100 0.02100
H 	H 	0.31840 0.33370 0.50500 0.04800
C 	C 	0.85270 0.33240 0.12080 -0.08600
O 	O 	0.17480 0.56130 0.26300 -0.41400
O 	O 	0.11840 0.42580 0.28020 -0.35000
C 	C 	0.18530 0.45410 0.19120 -0.07500
C 	C 	0.15660 0.48160 0.24840 0.32300
C 	C 	0.23040 0.51100 0.15350 -0.01300
H 	H 	0.24170 0.57200 0.16310 0.05700
C 	C 	0.26030 0.48220 0.10160 -0.01300
C 	C 	0.31160 0.53990 0.06260 0.04100
C 	C 	0.51040 0.25980 0.55500 0.05300
C 	C 	0.50260 0.32650 0.51230 -0.03300
C 	C 	0.88250 0.56150 0.06350 0.04200
C 	C 	0.86520 0.48870 0.10100 -0.00800
C 	C 	0.35300 0.58650 0.02964 -0.10100
H 	H 	0.38640 0.62410 0.00300 0.07700
C 	C 	0.52550 0.20220 0.58747 -0.11200
H 	H 	0.53780 0.15570 0.61370 0.08100
C 	C 	0.89520 0.62500 0.03574 -0.11100
H 	H 	0.90540 0.67610 0.01340 0.07900
Zn	Zn	0.86342 0.05694 0.15680 1.23000
Zn	Zn	0.00695 0.94509 0.05917 1.15400
Zn	Zn	0.17369 0.06004 0.15475 1.23000
O 	O 	0.13630 0.71330 0.44390 -0.32400
O 	O 	0.18710 0.93730 0.04900 -0.55400
O 	O 	0.82580 0.93120 0.05180 -0.55200
O 	O 	0.01740 0.99990 0.13690 -0.80400
H 	H 	0.02220 0.94610 0.16120 0.16800
O 	O 	0.83640 0.71270 0.43720 -0.33100
O 	O 	0.19890 0.04150 0.23430 -0.42500
O 	O 	0.82930 0.68800 0.34710 -0.47400
O 	O 	0.12870 0.68290 0.35450 -0.48300
O 	O 	0.18350 0.89710 0.21360 -0.30700
C 	C 	0.17170 0.94010 0.30750 -0.06900
O 	O 	0.29960 0.01310 0.11140 -0.49200
C 	C 	0.39780 0.92310 0.04930 -0.13600
C 	C 	0.15850 0.00940 0.34480 -0.01500
H 	H 	0.16540 0.06980 0.33340 0.05700
C 	C 	0.80730 0.83400 0.37500 -0.08500
C 	C 	0.75870 0.89240 0.41230 -0.01400
H 	H 	0.73820 0.87120 0.44740 0.05000
C 	C 	0.39080 0.86130 0.00740 0.01700
H 	H 	0.31460 0.84240 0.99200 0.04800
C 	C 	0.18560 0.95870 0.24760 0.30600
C 	C 	0.82620 0.73690 0.38880 0.36700
C 	C 	0.61510 0.91870 0.05070 -0.13700
O 	O 	0.72840 0.00530 0.11480 -0.49300
C 	C 	0.73320 0.95370 0.07310 0.44100
C 	C 	0.50850 0.95290 0.07050 0.07700
H 	H 	0.51240 0.99690 0.09860 0.03900
C 	C 	0.28460 0.95960 0.07060 0.43900
C 	C 	0.83360 0.86610 0.32390 0.02400
H 	H 	0.86590 0.82620 0.29810 0.05800
C 	C 	0.16610 0.85190 0.32430 0.01800
H 	H 	0.17510 0.80500 0.29860 0.05800
C 	C 	0.13880 0.73550 0.39470 0.37000
C 	C 	0.12930 0.90090 0.41660 -0.00900
H 	H 	0.11330 0.88760 0.45370 0.04800
C 	C 	0.60960 0.85630 0.00900 0.02000
H 	H 	0.68160 0.83370 0.99500 0.04800
C 	C 	0.14730 0.83240 0.37920 -0.08900
O 	O 	0.82520 0.06130 0.23700 -0.41500
O 	O 	0.88160 0.92580 0.21980 -0.34900
C 	C 	0.81470 0.95410 0.30880 -0.07200
C 	C 	0.84340 0.98160 0.25160 0.32400
C 	C 	0.76960 0.01100 0.34650 -0.01900
H 	H 	0.75830 0.07200 0.33690 0.05800
C 	C 	0.73970 0.98220 0.39840 -0.00800
C 	C 	0.68840 0.03990 0.43740 0.03800
C 	C 	0.48960 0.75980 0.94500 0.05200
C 	C 	0.49740 0.82650 0.98770 -0.03200
C 	C 	0.11750 0.06150 0.43650 0.04600
C 	C 	0.13480 0.98870 0.39900 -0.01500
C 	C 	0.64700 0.08650 0.47036 -0.09900
H 	H 	0.61360 0.12410 0.49700 0.07600
C 	C 	0.47450 0.70220 0.91253 -0.11100
H 	H 	0.46220 0.65570 0.88630 0.08100
C 	C 	0.10480 0.12500 0.46426 -0.11400
H 	H 	0.09460 0.17610 0.48660 0.08000
Zn	Zn	0.86342 0.44306 0.65680 1.23000
Zn	Zn	0.00695 0.55491 0.55917 1.15500
Zn	Zn	0.17369 0.43996 0.65475 1.22900
O 	O 	0.13630 0.78670 0.94390 -0.32300
O 	O 	0.18710 0.56270 0.54900 -0.55400
O 	O 	0.82580 0.56880 0.55180 -0.55300
O 	O 	0.01740 0.50010 0.63690 -0.80200
H 	H 	0.02220 0.55390 0.66120 0.16800
O 	O 	0.83640 0.78730 0.93720 -0.33100
O 	O 	0.19890 0.45850 0.73430 -0.42600
O 	O 	0.82930 0.81200 0.84710 -0.47400
O 	O 	0.12870 0.81710 0.85450 -0.48200
O 	O 	0.18350 0.60290 0.71360 -0.30700
C 	C 	0.17170 0.55990 0.80750 -0.06400
O 	O 	0.29960 0.48690 0.61140 -0.49300
C 	C 	0.39780 0.57690 0.54930 -0.13700
C 	C 	0.15850 0.49060 0.84480 -0.02200
H 	H 	0.16540 0.43020 0.83340 0.05900
C 	C 	0.80730 0.66600 0.87500 -0.08700
C 	C 	0.75870 0.60760 0.91230 -0.01200
H 	H 	0.73820 0.62880 0.94740 0.04900
C 	C 	0.39080 0.63870 0.50740 0.02000
H 	H 	0.31460 0.65760 0.49200 0.04700
C 	C 	0.18560 0.54130 0.74760 0.30700
C 	C 	0.82620 0.76310 0.88880 0.36800
C 	C 	0.61510 0.58130 0.55070 -0.13700
O 	O 	0.72840 0.49470 0.61480 -0.49300
C 	C 	0.73320 0.54630 0.57310 0.44000
C 	C 	0.50850 0.54710 0.57050 0.07800
H 	H 	0.51240 0.50310 0.59860 0.03900
C 	C 	0.28460 0.54040 0.57060 0.44000
C 	C 	0.83360 0.63390 0.82390 0.02600
H 	H 	0.86590 0.67380 0.79810 0.05700
C 	C 	0.16610 0.64810 0.82430 0.01600
H 	H 	0.17510 0.69500 0.79860 0.05900
C 	C 	0.13880 0.76450 0.89470 0.36900
C 	C 	0.12930 0.59910 0.91660 -0.01300
H 	H 	0.11330 0.61240 0.95370 0.05000
C 	C 	0.60960 0.64370 0.50900 0.02100
H 	H 	0.68160 0.66630 0.49500 0.04800
C 	C 	0.14730 0.66760 0.87920 -0.08600
O 	O 	0.82520 0.43870 0.73700 -0.41400
O 	O 	0.88160 0.57420 0.71980 -0.35000
C 	C 	0.81470 0.54590 0.80880 -0.07500
C 	C 	0.84340 0.51840 0.75160 0.32300
C 	C 	0.76960 0.48900 0.84650 -0.01300
H 	H 	0.75830 0.42800 0.83690 0.05700
C 	C 	0.73970 0.51780 0.89840 -0.01300
C 	C 	0.68840 0.46010 0.93740 0.04100
C 	C 	0.48960 0.74020 0.44500 0.05300
C 	C 	0.49740 0.67350 0.48770 -0.03300
C 	C 	0.11750 0.43850 0.93650 0.04200
C 	C 	0.13480 0.51130 0.89900 -0.00800
C 	C 	0.64700 0.41350 0.97036 -0.10100
H 	H 	0.61360 0.37590 0.99700 0.07700
C 	C 	0.47450 0.79780 0.41253 -0.11200
H 	H 	0.46220 0.84430 0.38630 0.08100
C 	C 	0.10480 0.37500 0.96426 -0.11100
H 	H 	0.09460 0.32390 0.98660 0.07900
Zn	Zn	0.13658 0.94306 0.84320 1.23000
Zn	Zn	0.99305 0.05491 0.94083 1.15400
Zn	Zn	0.82631 0.93996 0.84525 1.23000
O 	O 	0.86370 0.28670 0.55610 -0.32400
O 	O 	0.81290 0.06270 0.95100 -0.55400
O 	O 	0.17420 0.06880 0.94820 -0.55200
O 	O 	0.98260 0.00010 0.86310 -0.80400
H 	H 	0.97780 0.05390 0.83880 0.16800
O 	O 	0.16360 0.28730 0.56280 -0.33100
O 	O 	0.80110 0.95850 0.76570 -0.42500
O 	O 	0.17070 0.31200 0.65290 -0.47400
O 	O 	0.87130 0.31710 0.64550 -0.48300
O 	O 	0.81650 0.10290 0.78640 -0.30700
C 	C 	0.82830 0.05990 0.69250 -0.06900
O 	O 	0.70040 0.98690 0.88860 -0.49200
C 	C 	0.60220 0.07690 0.95070 -0.13600
C 	C 	0.84150 0.99060 0.65520 -0.01500
H 	H 	0.83460 0.93020 0.66660 0.05700
C 	C 	0.19270 0.16600 0.62500 -0.08500
C 	C 	0.24130 0.10760 0.58770 -0.01400
H 	H 	0.26180 0.12880 0.55260 0.05000
C 	C 	0.60920 0.13870 0.99260 0.01700
H 	H 	0.68540 0.15760 0.00800 0.04800
C 	C 	0.81440 0.04130 0.75240 0.30600
C 	C 	0.17380 0.26310 0.61120 0.36700
C 	C 	0.38490 0.08130 0.94930 -0.13700
O 	O 	0.27160 0.99470 0.88520 -0.49300
C 	C 	0.26680 0.04630 0.92690 0.44100
C 	C 	0.49150 0.04710 0.92950 0.07700
H 	H 	0.48760 0.00310 0.90140 0.03900
C 	C 	0.71540 0.04040 0.92940 0.43900
C 	C 	0.16640 0.13390 0.67610 0.02400
H 	H 	0.13410 0.17380 0.70190 0.05800
C 	C 	0.83390 0.14810 0.67570 0.01800
H 	H 	0.82490 0.19500 0.70140 0.05800
C 	C 	0.86120 0.26450 0.60530 0.37000
C 	C 	0.87070 0.09910 0.58340 -0.00900
H 	H 	0.88670 0.11240 0.54630 0.04800
C 	C 	0.39040 0.14370 0.99100 0.02000
H 	H 	0.31840 0.16630 0.00500 0.04800
C 	C 	0.85270 0.16760 0.62080 -0.08900
O 	O 	0.17480 0.93870 0.76300 -0.41500
O 	O 	0.11840 0.07420 0.78020 -0.34900
C 	C 	0.18530 0.04590 0.69120 -0.07200
C 	C 	0.15660 0.01840 0.74840 0.32400
C 	C 	0.23040 0.98900 0.65350 -0.01900
H 	H 	0.24170 0.92800 0.66310 0.05800
C 	C 	0.26030 0.01780 0.60160 -0.00800
C 	C 	0.31160 0.96010 0.56260 0.03800
C 	C 	0.51040 0.24020 0.05500 0.05200
C 	C 	0.50260 0.17350 0.01230 -0.03200
C 	C 	0.88250 0.93850 0.56350 0.04600
C 	C 	0.86520 0.01130 0.60100 -0.01500
C 	C 	0.35300 0.91350 0.52964 -0.09900
H 	H 	0.38640 0.87590 0.50300 0.07600
C 	C 	0.52550 0.29780 0.08747 -0.11100
H 	H 	0.53780 0.34430 0.11370 0.08100
C 	C 	0.89520 0.87500 0.53574 -0.11400
H 	H 	0.90540 0.82390 0.51340 0.08000
