data_crystal

_cell_length_a 18.62330
_cell_length_b 18.62330
_cell_length_c 18.62330
_cell_angle_alpha 90.00000
_cell_angle_beta  90.00000
_cell_angle_gamma 90.00000

_symmetry_space_group_name_	'P 1'
_symmetry_space_group_name_H-M	'P 1'

loop_
_symmetry_equiv_pos_as_xyz
  x,y,z

loop_
_atom_site_label
_atom_site_type_symbol
_atom_site_fract_x
_atom_site_fract_y
_atom_site_fract_z
_atom_site_charge
N 	N 	0.36899 0.17389 0.08854 -0.11600
N 	N 	0.42462 0.12873 0.07781 -0.18900
N 	N 	0.63101 0.82611 0.08854 -0.10900
N 	N 	0.57538 0.87127 0.07781 -0.17700
N 	N 	0.63101 0.17389 0.91146 -0.08100
N 	N 	0.57538 0.12873 0.92219 -0.15000
N 	N 	0.36899 0.82611 0.91146 -0.07800
N 	N 	0.42462 0.87127 0.92219 -0.13900
N 	N 	0.08854 0.36899 0.17389 -0.11600
N 	N 	0.07781 0.42462 0.12873 -0.18900
N 	N 	0.08854 0.63101 0.82611 -0.10900
N 	N 	0.07781 0.57538 0.87127 -0.17700
N 	N 	0.91146 0.63101 0.17389 -0.08100
N 	N 	0.92219 0.57538 0.12873 -0.15000
N 	N 	0.91146 0.36899 0.82611 -0.07800
N 	N 	0.92219 0.42462 0.87127 -0.13800
N 	N 	0.17389 0.08854 0.36899 -0.11500
N 	N 	0.12873 0.07781 0.42462 -0.18800
N 	N 	0.82611 0.08854 0.63101 -0.10800
N 	N 	0.87127 0.07781 0.57538 -0.17600
N 	N 	0.17389 0.91146 0.63101 -0.08000
N 	N 	0.12873 0.92219 0.57538 -0.14900
N 	N 	0.82611 0.91146 0.36899 -0.07700
N 	N 	0.87127 0.92219 0.42462 -0.13800
N 	N 	0.17389 0.36899 0.91146 -0.08200
N 	N 	0.12873 0.42462 0.92219 -0.14900
N 	N 	0.82611 0.63101 0.91146 -0.07500
N 	N 	0.87127 0.57538 0.92219 -0.13700
N 	N 	0.17389 0.63101 0.08854 -0.11400
N 	N 	0.12873 0.57538 0.07781 -0.18800
N 	N 	0.82611 0.36899 0.08854 -0.11000
N 	N 	0.87127 0.42462 0.07781 -0.17700
N 	N 	0.36899 0.08854 0.82611 -0.11000
N 	N 	0.42462 0.07781 0.87127 -0.17700
N 	N 	0.63101 0.08854 0.17389 -0.11400
N 	N 	0.57538 0.07781 0.12873 -0.18800
N 	N 	0.63101 0.91146 0.82611 -0.07500
N 	N 	0.57538 0.92219 0.87127 -0.13700
N 	N 	0.36899 0.91146 0.17389 -0.08200
N 	N 	0.42462 0.92219 0.12873 -0.14900
N 	N 	0.08854 0.17389 0.63101 -0.11400
N 	N 	0.07781 0.12873 0.57538 -0.18800
N 	N 	0.08854 0.82611 0.36899 -0.11000
N 	N 	0.07781 0.87127 0.42462 -0.17700
N 	N 	0.91146 0.17389 0.36899 -0.08200
N 	N 	0.92219 0.12873 0.42462 -0.14900
N 	N 	0.91146 0.82611 0.63101 -0.07500
N 	N 	0.92219 0.87127 0.57538 -0.13700
N 	N 	0.63101 0.82611 0.91146 -0.07500
N 	N 	0.57538 0.87127 0.92219 -0.13700
N 	N 	0.36899 0.17389 0.91146 -0.08200
N 	N 	0.42462 0.12873 0.92219 -0.14900
N 	N 	0.36899 0.82611 0.08854 -0.11000
N 	N 	0.42462 0.87127 0.07781 -0.17700
N 	N 	0.63101 0.17389 0.08854 -0.11400
N 	N 	0.57538 0.12873 0.07781 -0.18800
N 	N 	0.91146 0.63101 0.82611 -0.07500
N 	N 	0.92219 0.57538 0.87127 -0.13700
N 	N 	0.91146 0.36899 0.17389 -0.08200
N 	N 	0.92219 0.42462 0.12873 -0.14900
N 	N 	0.08854 0.36899 0.82611 -0.11000
N 	N 	0.07781 0.42462 0.87127 -0.17700
N 	N 	0.08854 0.63101 0.17389 -0.11400
N 	N 	0.07781 0.57538 0.12873 -0.18800
N 	N 	0.82611 0.91146 0.63101 -0.07500
N 	N 	0.87127 0.92219 0.57538 -0.13700
N 	N 	0.17389 0.91146 0.36899 -0.08200
N 	N 	0.12873 0.92219 0.42462 -0.14900
N 	N 	0.82611 0.08854 0.36899 -0.11000
N 	N 	0.87127 0.07781 0.42462 -0.17700
N 	N 	0.17389 0.08854 0.63101 -0.11400
N 	N 	0.12873 0.07781 0.57538 -0.18800
N 	N 	0.82611 0.63101 0.08854 -0.10800
N 	N 	0.87127 0.57538 0.07781 -0.17600
N 	N 	0.17389 0.36899 0.08854 -0.11500
N 	N 	0.12873 0.42462 0.07781 -0.18800
N 	N 	0.82611 0.36899 0.91146 -0.07700
N 	N 	0.87127 0.42462 0.92219 -0.13800
N 	N 	0.17389 0.63101 0.91146 -0.08000
N 	N 	0.12873 0.57538 0.92219 -0.14900
N 	N 	0.63101 0.91146 0.17389 -0.08000
N 	N 	0.57538 0.92219 0.12873 -0.14900
N 	N 	0.36899 0.91146 0.82611 -0.07700
N 	N 	0.42462 0.92219 0.87127 -0.13800
N 	N 	0.36899 0.08854 0.17389 -0.11500
N 	N 	0.42462 0.07781 0.12873 -0.18800
N 	N 	0.63101 0.08854 0.82611 -0.10800
N 	N 	0.57538 0.07781 0.87127 -0.17600
N 	N 	0.91146 0.82611 0.36899 -0.07700
N 	N 	0.92219 0.87127 0.42462 -0.13800
N 	N 	0.91146 0.17389 0.63101 -0.08000
N 	N 	0.92219 0.12873 0.57538 -0.14900
N 	N 	0.08854 0.82611 0.63101 -0.10800
N 	N 	0.07781 0.87127 0.57538 -0.17600
N 	N 	0.08854 0.17389 0.36899 -0.11500
N 	N 	0.07781 0.12873 0.42462 -0.18800
Cu	Cu	0.50000 0.13144 -0.00000 0.78200
Cu	Cu	0.50000 0.86856 -0.00000 0.79800
Cu	Cu	-0.00000 0.50000 0.13144 0.78200
Cu	Cu	-0.00000 0.50000 0.86856 0.79800
Cu	Cu	0.13144 0.00000 0.50000 0.78200
Cu	Cu	0.86856 0.00000 0.50000 0.79800
Cu	Cu	0.13144 0.50000 -0.00000 0.78200
Cu	Cu	0.86856 0.50000 -0.00000 0.79800
Cu	Cu	0.50000 0.00000 0.86856 0.79800
Cu	Cu	0.50000 0.00000 0.13144 0.78200
Cu	Cu	-0.00000 0.13144 0.50000 0.78200
Cu	Cu	-0.00000 0.86856 0.50000 0.79800
C 	C 	0.24020 0.24020 0.14830 -0.08500
H 	H 	0.26040 0.26040 0.10730 0.05500
C 	C 	0.75980 0.75980 0.14830 -0.09100
H 	H 	0.73960 0.73960 0.10730 0.06600
C 	C 	0.75980 0.24020 0.85170 -0.09200
H 	H 	0.73960 0.26040 0.89270 0.09500
C 	C 	0.24020 0.75980 0.85170 -0.09200
H 	H 	0.26040 0.73960 0.89270 0.09500
C 	C 	0.14830 0.24020 0.24020 -0.08500
H 	H 	0.10730 0.26040 0.26040 0.05500
C 	C 	0.14830 0.75980 0.75980 -0.09100
H 	H 	0.10730 0.73960 0.73960 0.06600
C 	C 	0.85170 0.75980 0.24020 -0.09200
H 	H 	0.89270 0.73960 0.26040 0.09500
C 	C 	0.85170 0.24020 0.75980 -0.09200
H 	H 	0.89270 0.26040 0.73960 0.09500
C 	C 	0.24020 0.14830 0.24020 -0.08500
H 	H 	0.26040 0.10730 0.26040 0.05500
C 	C 	0.75980 0.14830 0.75980 -0.09100
H 	H 	0.73960 0.10730 0.73960 0.06600
C 	C 	0.24020 0.85170 0.75980 -0.09200
H 	H 	0.26040 0.89270 0.73960 0.09500
C 	C 	0.75980 0.85170 0.24020 -0.09200
H 	H 	0.73960 0.89270 0.26040 0.09500
C 	C 	0.24020 0.24020 0.85170 -0.08900
H 	H 	0.26040 0.26040 0.89270 0.08900
C 	C 	0.75980 0.75980 0.85170 -0.09500
H 	H 	0.73960 0.73960 0.89270 0.10000
C 	C 	0.24020 0.75980 0.14830 -0.08800
H 	H 	0.26040 0.73960 0.10730 0.06000
C 	C 	0.75980 0.24020 0.14830 -0.08800
H 	H 	0.73960 0.26040 0.10730 0.06000
C 	C 	0.24020 0.14830 0.75980 -0.08800
H 	H 	0.26040 0.10730 0.73960 0.06000
C 	C 	0.75980 0.14830 0.24020 -0.08800
H 	H 	0.73960 0.10730 0.26040 0.06000
C 	C 	0.75980 0.85170 0.75980 -0.09500
H 	H 	0.73960 0.89270 0.73960 0.10000
C 	C 	0.24020 0.85170 0.24020 -0.08900
H 	H 	0.26040 0.89270 0.26040 0.08900
C 	C 	0.14830 0.24020 0.75980 -0.08800
H 	H 	0.10730 0.26040 0.73960 0.06000
C 	C 	0.14830 0.75980 0.24020 -0.08800
H 	H 	0.10730 0.73960 0.26040 0.06000
C 	C 	0.85170 0.24020 0.24020 -0.08900
H 	H 	0.89270 0.26040 0.26040 0.08900
C 	C 	0.85170 0.75980 0.75980 -0.09500
H 	H 	0.89270 0.73960 0.73960 0.10000
C 	C 	0.27090 0.17920 0.17920 0.00700
C 	C 	0.33620 0.14710 0.14710 0.09000
C 	C 	0.72910 0.82080 0.17920 0.03700
C 	C 	0.66380 0.85290 0.14710 0.10300
C 	C 	0.72910 0.17920 0.82080 0.03700
C 	C 	0.66380 0.14710 0.85290 0.10300
C 	C 	0.27090 0.82080 0.82080 0.04700
C 	C 	0.33620 0.85290 0.85290 0.11200
C 	C 	0.17920 0.27090 0.17920 0.00700
C 	C 	0.14710 0.33620 0.14710 0.09000
C 	C 	0.17920 0.72910 0.82080 0.03700
C 	C 	0.14710 0.66380 0.85290 0.10300
C 	C 	0.82080 0.72910 0.17920 0.03700
C 	C 	0.85290 0.66380 0.14710 0.10300
C 	C 	0.82080 0.27090 0.82080 0.04700
C 	C 	0.85290 0.33620 0.85290 0.11200
C 	C 	0.17920 0.17920 0.27090 0.00700
C 	C 	0.14710 0.14710 0.33620 0.09000
C 	C 	0.82080 0.17920 0.72910 0.03700
C 	C 	0.85290 0.14710 0.66380 0.10300
C 	C 	0.17920 0.82080 0.72910 0.03700
C 	C 	0.14710 0.85290 0.66380 0.10300
C 	C 	0.82080 0.82080 0.27090 0.04700
C 	C 	0.85290 0.85290 0.33620 0.11200
C 	C 	0.17920 0.27090 0.82080 0.02700
C 	C 	0.14710 0.33620 0.85290 0.10100
C 	C 	0.82080 0.72910 0.82080 0.05700
C 	C 	0.85290 0.66380 0.85290 0.11400
C 	C 	0.17920 0.72910 0.17920 0.01700
C 	C 	0.14710 0.66380 0.14710 0.09100
C 	C 	0.82080 0.27090 0.17920 0.02700
C 	C 	0.85290 0.33620 0.14710 0.10100
C 	C 	0.27090 0.17920 0.82080 0.02700
C 	C 	0.33620 0.14710 0.85290 0.10100
C 	C 	0.72910 0.17920 0.17920 0.01700
C 	C 	0.66380 0.14710 0.14710 0.09100
C 	C 	0.72910 0.82080 0.82080 0.05700
C 	C 	0.66380 0.85290 0.85290 0.11400
C 	C 	0.27090 0.82080 0.17920 0.02700
C 	C 	0.33620 0.85290 0.14710 0.10100
C 	C 	0.17920 0.17920 0.72910 0.01700
C 	C 	0.14710 0.14710 0.66380 0.09100
C 	C 	0.17920 0.82080 0.27090 0.02700
C 	C 	0.14710 0.85290 0.33620 0.10100
C 	C 	0.82080 0.17920 0.27090 0.02700
C 	C 	0.85290 0.14710 0.33620 0.10100
C 	C 	0.82080 0.82080 0.72910 0.05700
C 	C 	0.85290 0.85290 0.66380 0.11400
