data_crystal

_cell_length_a 5.01390
_cell_length_b 9.30900
_cell_length_c 20.92300
_cell_angle_alpha 90.00000
_cell_angle_beta  110.29400
_cell_angle_gamma 90.00000

_symmetry_space_group_name_	'P 1'
_symmetry_space_group_name_H-M	'P 1'

loop_
_symmetry_equiv_pos_as_xyz
  x,y,z

loop_
_atom_site_label
_atom_site_type_symbol
_atom_site_fract_x
_atom_site_fract_y
_atom_site_fract_z
_atom_site_charge
Fe	Fe	0.40093 0.68831 0.78393 1.27600
P 	P 	0.78160 0.85277 0.71030 0.77900
P 	P 	0.61970 0.39334 0.58376 0.67800
B 	B 	0.46220 0.63450 0.63780 2.55800
O 	O 	0.46040 0.58510 0.70421 -1.36900
O 	O 	0.55970 0.78570 0.64487 -0.83100
O 	O 	0.86780 0.36510 0.55927 -0.30100
O 	O 	0.66000 0.54740 0.61555 -0.87900
O 	O 	0.79130 0.01440 0.69724 -0.41800
O 	O 	0.17570 0.62930 0.58539 -1.73600
O 	O 	0.34000 0.38550 0.52461 -0.42500
O 	O 	0.67530 0.83020 0.77017 -0.46300
O 	O 	0.62540 0.28280 0.63765 -0.43800
O 	O 	0.06870 0.78460 0.72135 -0.52100
H 	H 	0.06800 0.64000 0.59900 0.90600
H 	H 	0.42900 0.49900 0.70700 0.56800
Fe	Fe	0.59907 0.18831 0.71607 1.26400
P 	P 	0.21840 0.35277 0.78970 0.58500
P 	P 	0.38030 0.89334 0.91624 0.71600
B 	B 	0.53780 0.13450 0.86220 2.60700
O 	O 	0.53960 0.08510 0.79579 -1.47800
O 	O 	0.44030 0.28570 0.85513 -0.82900
O 	O 	0.13220 0.86510 0.94073 -0.35700
O 	O 	0.34000 0.04740 0.88445 -0.97800
O 	O 	0.20870 0.51440 0.80276 -0.40500
O 	O 	0.82430 0.12930 0.91461 -1.71800
O 	O 	0.66000 0.88550 0.97539 -0.29500
O 	O 	0.32470 0.33020 0.72983 -0.49000
O 	O 	0.37460 0.78280 0.86235 -0.44100
O 	O 	0.93130 0.28460 0.77865 -0.35400
H 	H 	0.93200 0.14000 0.90100 0.98600
H 	H 	0.57100 0.99900 0.79300 0.65400
Fe	Fe	0.59907 0.31169 0.21607 1.26400
P 	P 	0.21840 0.14723 0.28970 0.53600
P 	P 	0.38030 0.60666 0.41624 0.67800
B 	B 	0.53780 0.36550 0.36220 2.57300
O 	O 	0.53960 0.41490 0.29579 -1.39100
O 	O 	0.44030 0.21430 0.35513 -0.84000
O 	O 	0.13220 0.63490 0.44073 -0.39400
O 	O 	0.34000 0.45260 0.38445 -0.94300
O 	O 	0.20870 0.98560 0.30276 -0.35700
O 	O 	0.82430 0.37070 0.41461 -1.72500
O 	O 	0.66000 0.61450 0.47539 -0.34300
O 	O 	0.32470 0.16980 0.22983 -0.49000
O 	O 	0.37460 0.71720 0.36235 -0.43900
O 	O 	0.93130 0.21540 0.27865 -0.35800
H 	H 	0.93200 0.36000 0.40100 0.98300
H 	H 	0.57100 0.50100 0.29300 0.57900
Fe	Fe	0.40093 0.81169 0.28393 1.27600
P 	P 	0.78160 0.64723 0.21030 0.74100
P 	P 	0.61970 0.10666 0.08376 0.63100
B 	B 	0.46220 0.86550 0.13780 2.50700
O 	O 	0.46040 0.91490 0.20421 -1.26300
O 	O 	0.55970 0.71430 0.14487 -0.83600
O 	O 	0.86780 0.13490 0.05927 -0.31800
O 	O 	0.66000 0.95260 0.11555 -0.82900
O 	O 	0.79130 0.48560 0.19724 -0.38000
O 	O 	0.17570 0.87070 0.08539 -1.70500
O 	O 	0.34000 0.11450 0.02461 -0.45400
O 	O 	0.67530 0.66980 0.27017 -0.46300
O 	O 	0.62540 0.21720 0.13765 -0.43600
O 	O 	0.06870 0.71540 0.22135 -0.52600
H 	H 	0.06800 0.86000 0.09900 0.89200
H 	H 	0.42900 0.00100 0.20700 0.47900
Fe	Fe	0.00000 0.50000 0.50000 1.28400
Fe	Fe	-0.00000 0.00000 -0.00000 1.21600
