data_crystal

_cell_length_a 13.61200
_cell_length_b 9.57530
_cell_length_c 14.02200
_cell_angle_alpha 90.00000
_cell_angle_beta  90.00000
_cell_angle_gamma 90.00000

_symmetry_space_group_name_	'P 1'
_symmetry_space_group_name_H-M	'P 1'

loop_
_symmetry_equiv_pos_as_xyz
  x,y,z

loop_
_atom_site_label
_atom_site_type_symbol
_atom_site_fract_x
_atom_site_fract_y
_atom_site_fract_z
_atom_site_charge
V 	V 	0.36284 0.80954 0.69760 1.75600
P 	P 	0.55923 0.01231 0.72682 0.33400
H 	H 	0.64200 0.94400 0.72800 0.00800
P 	P 	0.67492 0.86810 0.37891 0.53900
H 	H 	0.61700 0.79600 0.32300 -0.06100
F 	F 	0.44224 0.84550 0.56140 -0.69600
O 	O 	0.55950 0.13180 0.79787 -0.44100
O 	O 	0.76600 0.77790 0.39410 -0.42900
O 	O 	0.47880 0.90920 0.75350 -0.37700
O 	O 	0.69970 0.00650 0.33430 -0.59200
O 	O 	0.55420 0.06180 0.62435 -0.49400
O 	O 	0.62180 0.88590 0.47500 -0.38000
V 	V 	0.13716 0.19046 0.19760 1.74400
P 	P 	0.94077 0.98769 0.22682 0.73600
H 	H 	0.85800 0.05600 0.22800 -0.16200
P 	P 	0.82508 0.13190 0.87891 0.38800
H 	H 	0.88300 0.20400 0.82300 -0.00500
F 	F 	0.05776 0.15450 0.06140 -0.83800
O 	O 	0.94050 0.86820 0.29787 -0.42900
O 	O 	0.73400 0.22210 0.89410 -0.40000
O 	O 	0.02120 0.09080 0.25350 -0.66600
O 	O 	0.80030 0.99350 0.83430 -0.40300
O 	O 	0.94580 0.93820 0.12435 -0.46000
O 	O 	0.87820 0.11410 0.97500 -0.27800
V 	V 	0.63716 0.30954 0.80240 1.74800
P 	P 	0.44077 0.51231 0.77318 0.47800
H 	H 	0.35800 0.44400 0.77200 -0.05000
P 	P 	0.32508 0.36810 0.12109 0.46400
H 	H 	0.38300 0.29600 0.17700 -0.06500
F 	F 	0.55776 0.34550 0.93860 -0.65000
O 	O 	0.44050 0.63180 0.70213 -0.45000
O 	O 	0.23400 0.27790 0.10590 -0.48600
O 	O 	0.52120 0.40920 0.74650 -0.47300
O 	O 	0.30030 0.50650 0.16570 -0.51800
O 	O 	0.44580 0.56180 0.87565 -0.39600
O 	O 	0.37820 0.38590 0.02500 -0.50700
V 	V 	0.86284 0.69046 0.30240 1.74900
P 	P 	0.05923 0.48769 0.27318 0.37800
H 	H 	0.14200 0.55600 0.27200 -0.06700
P 	P 	0.17492 0.63190 0.62109 0.46300
H 	H 	0.11700 0.70400 0.67700 -0.07600
F 	F 	0.94224 0.65450 0.43860 -0.66500
O 	O 	0.05950 0.36820 0.20213 -0.50900
O 	O 	0.26600 0.72210 0.60590 -0.43000
O 	O 	0.97880 0.59080 0.24650 -0.38800
O 	O 	0.19970 0.49350 0.66570 -0.50200
O 	O 	0.05420 0.43820 0.37565 -0.51400
O 	O 	0.12180 0.61410 0.52500 -0.44100
V 	V 	0.63716 0.19046 0.30240 1.74200
P 	P 	0.44077 0.98769 0.27318 0.63500
H 	H 	0.35800 0.05600 0.27200 -0.14600
P 	P 	0.32508 0.13190 0.62109 0.38700
H 	H 	0.38300 0.20400 0.67700 -0.04300
F 	F 	0.55776 0.15450 0.43860 -0.74300
O 	O 	0.44050 0.86820 0.20213 -0.47400
O 	O 	0.23400 0.22210 0.60590 -0.44400
O 	O 	0.52120 0.09080 0.24650 -0.57800
O 	O 	0.30030 0.99350 0.66570 -0.41500
O 	O 	0.44580 0.93820 0.37565 -0.45300
O 	O 	0.37820 0.11410 0.52500 -0.43700
V 	V 	0.86284 0.80954 0.80240 1.75600
P 	P 	0.05923 0.01231 0.77318 0.22600
H 	H 	0.14200 0.94400 0.77200 0.02800
P 	P 	0.17492 0.86810 0.12109 0.53900
H 	H 	0.11700 0.79600 0.17700 -0.09700
F 	F 	0.94224 0.84550 0.93860 -0.56500
O 	O 	0.05950 0.13180 0.70213 -0.48500
O 	O 	0.26600 0.77790 0.10590 -0.47300
O 	O 	0.97880 0.90920 0.74650 -0.28800
O 	O 	0.19970 0.00650 0.16570 -0.60300
O 	O 	0.05420 0.06180 0.87565 -0.44300
O 	O 	0.12180 0.88590 0.02500 -0.49600
V 	V 	0.36284 0.69046 0.19760 1.75100
P 	P 	0.55923 0.48769 0.22682 0.48700
H 	H 	0.64200 0.55600 0.22800 -0.08600
P 	P 	0.67492 0.63190 0.87891 0.46200
H 	H 	0.61700 0.70400 0.82300 -0.03800
F 	F 	0.44224 0.65450 0.06140 -0.77700
O 	O 	0.55950 0.36820 0.29787 -0.46400
O 	O 	0.76600 0.72210 0.89410 -0.38700
O 	O 	0.47880 0.59080 0.25350 -0.48000
O 	O 	0.69970 0.49350 0.83430 -0.48800
O 	O 	0.55420 0.43820 0.12435 -0.53800
O 	O 	0.62180 0.61410 0.97500 -0.29700
V 	V 	0.13716 0.30954 0.69760 1.75000
P 	P 	0.94077 0.51231 0.72682 0.58600
H 	H 	0.85800 0.44400 0.72800 -0.06900
P 	P 	0.82508 0.36810 0.37891 0.46400
H 	H 	0.88300 0.29600 0.32300 -0.02700
F 	F 	0.05776 0.34550 0.56140 -0.77100
O 	O 	0.94050 0.63180 0.79787 -0.40600
O 	O 	0.73400 0.27790 0.39410 -0.44300
O 	O 	0.02120 0.40920 0.75350 -0.56400
O 	O 	0.80030 0.50650 0.33430 -0.50500
O 	O 	0.94580 0.56180 0.62435 -0.43000
O 	O 	0.87820 0.38590 0.47500 -0.37100
V 	V 	0.50000 0.00000 0.50000 1.80300
V 	V 	-0.00000 0.00000 -0.00000 1.67000
V 	V 	0.50000 0.50000 -0.00000 1.76200
V 	V 	0.00000 0.50000 0.50000 1.78900
