data_crystal

_cell_length_a 6.35410
_cell_length_b 10.46000
_cell_length_c 14.76900
_cell_angle_alpha 90.00000
_cell_angle_beta  90.41200
_cell_angle_gamma 90.00000

_symmetry_space_group_name_	'P 1'
_symmetry_space_group_name_H-M	'P 1'

loop_
_symmetry_equiv_pos_as_xyz
  x,y,z

loop_
_atom_site_label
_atom_site_type_symbol
_atom_site_fract_x
_atom_site_fract_y
_atom_site_fract_z
_atom_site_charge
V 	V 	0.25485 0.10990 0.89048 1.71800
P 	P 	0.16930 0.32589 0.72581 0.46200
P 	P 	0.23390 0.96720 0.08278 -0.17300
O 	O 	0.27650 0.22120 0.77830 -0.48200
O 	O 	0.23710 0.96000 0.97890 -0.51600
O 	O 	0.28860 0.44980 0.71770 -0.37500
O 	O 	0.44230 0.93250 0.12570 -0.53000
O 	O 	0.06020 0.88990 0.12460 -0.52900
O 	O 	0.12030 0.27240 0.62820 -0.51000
H 	H 	0.11700 0.30900 0.58300 0.28800
P 	P 	0.25000 0.89830 0.07650 0.63600
V 	V 	0.24515 0.60990 0.60952 1.72300
P 	P 	0.33070 0.82589 0.77419 0.46500
P 	P 	0.26610 0.46720 0.41722 -0.15400
O 	O 	0.22350 0.72120 0.72170 -0.47900
O 	O 	0.26290 0.46000 0.52110 -0.52300
O 	O 	0.21140 0.94980 0.78230 -0.37100
O 	O 	0.05770 0.43250 0.37430 -0.52700
O 	O 	0.43980 0.38990 0.37540 -0.53000
O 	O 	0.37970 0.77240 0.87180 -0.50800
H 	H 	0.38300 0.80900 0.91700 0.28900
P 	P 	0.25000 0.39830 0.42350 0.62400
V 	V 	0.74515 0.89010 0.10952 1.71900
P 	P 	0.83070 0.67411 0.27419 0.46300
P 	P 	0.76610 0.03280 0.91722 -0.17200
O 	O 	0.72350 0.77880 0.22170 -0.48100
O 	O 	0.76290 0.04000 0.02110 -0.51600
O 	O 	0.71140 0.55020 0.28230 -0.37500
O 	O 	0.55770 0.06750 0.87430 -0.53000
O 	O 	0.93980 0.11010 0.87540 -0.52900
O 	O 	0.87970 0.72760 0.37180 -0.51000
H 	H 	0.88300 0.69100 0.41700 0.28800
P 	P 	0.75000 0.10170 0.92350 0.63600
V 	V 	0.75485 0.39010 0.39048 1.72300
P 	P 	0.66930 0.17411 0.22581 0.46500
P 	P 	0.73390 0.53280 0.58278 -0.15400
O 	O 	0.77650 0.27880 0.27830 -0.47900
O 	O 	0.73710 0.54000 0.47890 -0.52300
O 	O 	0.78860 0.05020 0.21770 -0.37100
O 	O 	0.94230 0.56750 0.62570 -0.52700
O 	O 	0.56020 0.61010 0.62460 -0.53000
O 	O 	0.62030 0.22760 0.12820 -0.50800
H 	H 	0.61700 0.19100 0.08300 0.28900
P 	P 	0.75000 0.60170 0.57650 0.62400
