data_crystal

_cell_length_a 28.40950
_cell_length_b 28.09220
_cell_length_c 9.47430
_cell_angle_alpha 90.00000
_cell_angle_beta  90.00000
_cell_angle_gamma 90.00000

_symmetry_space_group_name_	'P 1'
_symmetry_space_group_name_H-M	'P 1'

loop_
_symmetry_equiv_pos_as_xyz
  x,y,z

loop_
_atom_site_label
_atom_site_type_symbol
_atom_site_fract_x
_atom_site_fract_y
_atom_site_fract_z
_atom_site_charge
Zn	Zn	0.13155 0.51118 0.90457 1.13800
N 	N 	0.36746 0.33949 0.40060 -0.15700
N 	N 	0.38898 0.07802 0.64250 -0.29400
N 	N 	0.51327 0.42657 0.09270 -0.14400
N 	N 	0.57508 0.47100 0.05500 -0.29900
N 	N 	0.39479 0.15532 0.62130 -0.13500
C 	C 	0.40195 0.36160 0.31890 0.09200
C 	C 	0.37168 0.11606 0.57890 0.08600
H 	H 	0.34710 0.11570 0.51420 -0.04700
N 	N 	0.20972 0.44356 0.59250 -0.14000
C 	C 	0.41765 0.27943 0.50780 -0.09000
H 	H 	0.44280 0.30060 0.50430 0.06000
C 	C 	0.24995 0.41678 0.54280 0.06900
C 	C 	0.37435 0.29312 0.45690 0.09300
C 	C 	0.38690 0.20302 0.57030 0.07900
C 	C 	0.42852 0.14129 0.71620 -0.00800
H 	H 	0.45000 0.16070 0.76250 0.02900
C 	C 	0.47408 0.40528 0.16590 0.06900
N 	N 	0.16226 0.48294 0.73320 -0.30600
C 	C 	0.43125 0.33521 0.23240 -0.09400
H 	H 	0.42650 0.30260 0.22430 0.06800
C 	C 	0.46731 0.35647 0.15790 -0.06400
H 	H 	0.48710 0.33800 0.10220 0.05300
C 	C 	0.32710 0.36600 0.44800 0.08900
C 	C 	0.27618 0.39116 0.63700 -0.07100
H 	H 	0.26780 0.39050 0.73190 0.03700
C 	C 	0.34371 0.21609 0.52170 -0.07100
H 	H 	0.31850 0.19510 0.52720 0.05000
C 	C 	0.42428 0.23421 0.56450 -0.07000
H 	H 	0.45370 0.22510 0.59820 0.05300
C 	C 	0.54068 0.46076 0.14250 0.10300
H 	H 	0.53610 0.47570 0.22890 -0.03300
C 	C 	0.40877 0.41097 0.32440 -0.09700
H 	H 	0.38900 0.42960 0.37990 0.05300
C 	C 	0.33766 0.26112 0.46400 -0.08600
H 	H 	0.30830 0.26990 0.42950 0.06100
C 	C 	0.44456 0.43232 0.24800 -0.08700
H 	H 	0.44860 0.46510 0.25230 0.04300
C 	C 	0.42422 0.09329 0.72910 0.01100
H 	H 	0.44240 0.07400 0.78750 0.00200
C 	C 	0.31546 0.36601 0.59010 -0.09700
H 	H 	0.33390 0.34920 0.65420 0.07000
C 	C 	0.20179 0.45928 0.72440 0.10100
H 	H 	0.22190 0.45400 0.80020 -0.06400
C 	C 	0.56813 0.44260 0.93980 -0.01000
H 	H 	0.58650 0.44230 0.85860 -0.01100
C 	C 	0.26041 0.41570 0.40240 -0.06900
H 	H 	0.24180 0.43260 0.33880 0.03400
C 	C 	0.52986 0.41470 0.96400 -0.00300
H 	H 	0.51750 0.39190 0.90340 0.02600
C 	C 	0.29810 0.39010 0.35450 -0.09400
H 	H 	0.30440 0.38880 0.25820 0.04400
C 	C 	0.14370 0.48280 0.60620 0.01900
H 	H 	0.11530 0.49720 0.58260 -0.01100
C 	C 	0.17240 0.45800 0.51120 -0.01500
H 	H 	0.16740 0.45250 0.41550 0.01600
Zn	Zn	0.36845 0.01118 0.59543 1.13900
N 	N 	0.13254 0.83949 0.09940 -0.15600
N 	N 	0.11102 0.57802 0.85750 -0.29300
N 	N 	0.98673 0.92657 0.40730 -0.14200
N 	N 	0.92492 0.97100 0.44500 -0.29800
N 	N 	0.10521 0.65532 0.87870 -0.13400
C 	C 	0.09805 0.86160 0.18110 0.09300
C 	C 	0.12832 0.61606 0.92110 0.08700
H 	H 	0.15290 0.61570 0.98580 -0.04600
N 	N 	0.29028 0.94356 0.90750 -0.13800
C 	C 	0.08235 0.77943 0.99220 -0.08900
H 	H 	0.05720 0.80060 0.99570 0.06100
C 	C 	0.25005 0.91678 0.95720 0.06900
C 	C 	0.12565 0.79312 0.04310 0.09400
C 	C 	0.11310 0.70302 0.92970 0.08100
C 	C 	0.07148 0.64129 0.78380 -0.00700
H 	H 	0.05000 0.66070 0.73750 0.03000
C 	C 	0.02592 0.90528 0.33410 0.06900
N 	N 	0.33774 0.98294 0.76680 -0.30400
C 	C 	0.06875 0.83521 0.26760 -0.09300
H 	H 	0.07350 0.80260 0.27570 0.06800
C 	C 	0.03269 0.85647 0.34210 -0.06400
H 	H 	0.01290 0.83800 0.39780 0.05300
C 	C 	0.17290 0.86600 0.05200 0.09000
C 	C 	0.22382 0.89116 0.86300 -0.07000
H 	H 	0.23220 0.89050 0.76810 0.03700
C 	C 	0.15629 0.71609 0.97830 -0.07200
H 	H 	0.18150 0.69510 0.97280 0.05000
C 	C 	0.07572 0.73421 0.93550 -0.07000
H 	H 	0.04630 0.72510 0.90180 0.05300
C 	C 	0.95932 0.96076 0.35750 0.10300
H 	H 	0.96390 0.97570 0.27110 -0.03300
C 	C 	0.09123 0.91097 0.17560 -0.09700
H 	H 	0.11100 0.92960 0.12010 0.05300
C 	C 	0.16234 0.76112 0.03600 -0.08500
H 	H 	0.19170 0.76990 0.07050 0.06100
C 	C 	0.05544 0.93232 0.25200 -0.08700
H 	H 	0.05140 0.96510 0.24770 0.04300
C 	C 	0.07578 0.59329 0.77090 0.01100
H 	H 	0.05760 0.57400 0.71250 0.00200
C 	C 	0.18454 0.86601 0.90990 -0.09800
H 	H 	0.16610 0.84920 0.84580 0.07000
C 	C 	0.29821 0.95928 0.77560 0.10100
H 	H 	0.27810 0.95400 0.69980 -0.06400
C 	C 	0.93187 0.94260 0.56020 -0.01000
H 	H 	0.91350 0.94230 0.64140 -0.01100
C 	C 	0.23959 0.91570 0.09760 -0.06900
H 	H 	0.25820 0.93260 0.16120 0.03300
C 	C 	0.97014 0.91470 0.53600 -0.00300
H 	H 	0.98250 0.89190 0.59660 0.02600
C 	C 	0.20190 0.89010 0.14550 -0.09400
H 	H 	0.19560 0.88880 0.24180 0.04400
C 	C 	0.35630 0.98280 0.89380 0.01900
H 	H 	0.38470 0.99720 0.91740 -0.01100
C 	C 	0.32760 0.95800 0.98880 -0.01500
H 	H 	0.33260 0.95250 0.08450 0.01700
Zn	Zn	0.63155 0.51118 0.09543 1.13900
N 	N 	0.86746 0.33949 0.59940 -0.15600
N 	N 	0.88898 0.07802 0.35750 -0.29300
N 	N 	0.01327 0.42657 0.90730 -0.14300
N 	N 	0.07508 0.47100 0.94500 -0.29800
N 	N 	0.89479 0.15532 0.37870 -0.13400
C 	C 	0.90195 0.36160 0.68110 0.09300
C 	C 	0.87168 0.11606 0.42110 0.08700
H 	H 	0.84710 0.11570 0.48580 -0.04600
N 	N 	0.70972 0.44356 0.40750 -0.13900
C 	C 	0.91765 0.27943 0.49220 -0.08900
H 	H 	0.94280 0.30060 0.49570 0.06100
C 	C 	0.74995 0.41678 0.45720 0.07000
C 	C 	0.87435 0.29312 0.54310 0.09400
C 	C 	0.88690 0.20302 0.42970 0.08000
C 	C 	0.92852 0.14129 0.28380 -0.00700
H 	H 	0.95000 0.16070 0.23750 0.03000
C 	C 	0.97408 0.40528 0.83410 0.07000
N 	N 	0.66226 0.48294 0.26680 -0.30500
C 	C 	0.93125 0.33521 0.76760 -0.09300
H 	H 	0.92650 0.30260 0.77570 0.06800
C 	C 	0.96731 0.35647 0.84210 -0.06400
H 	H 	0.98710 0.33800 0.89780 0.05300
C 	C 	0.82710 0.36600 0.55200 0.08900
C 	C 	0.77618 0.39116 0.36300 -0.07100
H 	H 	0.76780 0.39050 0.26810 0.03700
C 	C 	0.84371 0.21609 0.47830 -0.07100
H 	H 	0.81850 0.19510 0.47280 0.05000
C 	C 	0.92428 0.23421 0.43550 -0.07000
H 	H 	0.95370 0.22510 0.40180 0.05300
C 	C 	0.04068 0.46076 0.85750 0.10300
H 	H 	0.03610 0.47570 0.77110 -0.03300
C 	C 	0.90877 0.41097 0.67560 -0.09700
H 	H 	0.88900 0.42960 0.62010 0.05300
C 	C 	0.83766 0.26112 0.53600 -0.08600
H 	H 	0.80830 0.26990 0.57050 0.06100
C 	C 	0.94456 0.43232 0.75200 -0.08700
H 	H 	0.94860 0.46510 0.74770 0.04300
C 	C 	0.92422 0.09329 0.27090 0.01100
H 	H 	0.94240 0.07400 0.21250 0.00200
C 	C 	0.81546 0.36601 0.40990 -0.09700
H 	H 	0.83390 0.34920 0.34580 0.07000
C 	C 	0.70179 0.45928 0.27560 0.10100
H 	H 	0.72190 0.45400 0.19980 -0.06400
C 	C 	0.06813 0.44260 0.06020 -0.01000
H 	H 	0.08650 0.44230 0.14140 -0.01100
C 	C 	0.76041 0.41570 0.59760 -0.06900
H 	H 	0.74180 0.43260 0.66120 0.03400
C 	C 	0.02986 0.41470 0.03600 -0.00300
H 	H 	0.01750 0.39190 0.09660 0.02600
C 	C 	0.79810 0.39010 0.64550 -0.09400
H 	H 	0.80440 0.38880 0.74180 0.04400
C 	C 	0.64370 0.48280 0.39380 0.01900
H 	H 	0.61530 0.49720 0.41740 -0.01100
C 	C 	0.67240 0.45800 0.48880 -0.01500
H 	H 	0.66740 0.45250 0.58450 0.01600
Zn	Zn	0.86845 0.01118 0.40457 1.13900
N 	N 	0.63254 0.83949 0.90060 -0.15600
N 	N 	0.61102 0.57802 0.14250 -0.29300
N 	N 	0.48673 0.92657 0.59270 -0.14300
N 	N 	0.42492 0.97100 0.55500 -0.29800
N 	N 	0.60521 0.65532 0.12130 -0.13400
C 	C 	0.59805 0.86160 0.81890 0.09300
C 	C 	0.62832 0.61606 0.07890 0.08700
H 	H 	0.65290 0.61570 0.01420 -0.04600
N 	N 	0.79028 0.94356 0.09250 -0.13800
C 	C 	0.58235 0.77943 0.00780 -0.08900
H 	H 	0.55720 0.80060 0.00430 0.06100
C 	C 	0.75005 0.91678 0.04280 0.06900
C 	C 	0.62565 0.79312 0.95690 0.09400
C 	C 	0.61310 0.70302 0.07030 0.08100
C 	C 	0.57148 0.64129 0.21620 -0.00700
H 	H 	0.55000 0.66070 0.26250 0.03000
C 	C 	0.52592 0.90528 0.66590 0.07000
N 	N 	0.83774 0.98294 0.23320 -0.30400
C 	C 	0.56875 0.83521 0.73240 -0.09300
H 	H 	0.57350 0.80260 0.72430 0.06800
C 	C 	0.53269 0.85647 0.65790 -0.06500
H 	H 	0.51290 0.83800 0.60220 0.05300
C 	C 	0.67290 0.86600 0.94800 0.09000
C 	C 	0.72382 0.89116 0.13700 -0.07000
H 	H 	0.73220 0.89050 0.23190 0.03700
C 	C 	0.65629 0.71609 0.02170 -0.07200
H 	H 	0.68150 0.69510 0.02720 0.05000
C 	C 	0.57572 0.73421 0.06450 -0.07000
H 	H 	0.54630 0.72510 0.09820 0.05300
C 	C 	0.45932 0.96076 0.64250 0.10300
H 	H 	0.46390 0.97570 0.72890 -0.03300
C 	C 	0.59123 0.91097 0.82440 -0.09700
H 	H 	0.61100 0.92960 0.87990 0.05300
C 	C 	0.66234 0.76112 0.96400 -0.08500
H 	H 	0.69170 0.76990 0.92950 0.06100
C 	C 	0.55544 0.93232 0.74800 -0.08700
H 	H 	0.55140 0.96510 0.75230 0.04300
C 	C 	0.57578 0.59329 0.22910 0.01100
H 	H 	0.55760 0.57400 0.28750 0.00200
C 	C 	0.68454 0.86601 0.09010 -0.09800
H 	H 	0.66610 0.84920 0.15420 0.07000
C 	C 	0.79821 0.95928 0.22440 0.10100
H 	H 	0.77810 0.95400 0.30020 -0.06400
C 	C 	0.43187 0.94260 0.43980 -0.01000
H 	H 	0.41350 0.94230 0.35860 -0.01100
C 	C 	0.73959 0.91570 0.90240 -0.06900
H 	H 	0.75820 0.93260 0.83880 0.03300
C 	C 	0.47014 0.91470 0.46400 -0.00300
H 	H 	0.48250 0.89190 0.40340 0.02600
C 	C 	0.70190 0.89010 0.85450 -0.09400
H 	H 	0.69560 0.88880 0.75820 0.04400
C 	C 	0.85630 0.98280 0.10620 0.01900
H 	H 	0.88470 0.99720 0.08260 -0.01000
C 	C 	0.82760 0.95800 0.01120 -0.01500
H 	H 	0.83260 0.95250 0.91550 0.01700
Zn	Zn	0.36845 0.48882 0.90457 1.13900
N 	N 	0.13254 0.66051 0.40060 -0.15600
N 	N 	0.11102 0.92198 0.64250 -0.29300
N 	N 	0.98673 0.57343 0.09270 -0.14300
N 	N 	0.92492 0.52900 0.05500 -0.29800
N 	N 	0.10521 0.84468 0.62130 -0.13400
C 	C 	0.09805 0.63840 0.31890 0.09300
C 	C 	0.12832 0.88394 0.57890 0.08700
H 	H 	0.15290 0.88430 0.51420 -0.04600
N 	N 	0.29028 0.55644 0.59250 -0.13900
C 	C 	0.08235 0.72057 0.50780 -0.08900
H 	H 	0.05720 0.69940 0.50430 0.06100
C 	C 	0.25005 0.58322 0.54280 0.07000
C 	C 	0.12565 0.70688 0.45690 0.09400
C 	C 	0.11310 0.79698 0.57030 0.08000
C 	C 	0.07148 0.85871 0.71620 -0.00700
H 	H 	0.05000 0.83930 0.76250 0.03000
C 	C 	0.02592 0.59472 0.16590 0.07000
N 	N 	0.33774 0.51706 0.73320 -0.30500
C 	C 	0.06875 0.66479 0.23240 -0.09300
H 	H 	0.07350 0.69740 0.22430 0.06800
C 	C 	0.03269 0.64353 0.15790 -0.06400
H 	H 	0.01290 0.66200 0.10220 0.05300
C 	C 	0.17290 0.63400 0.44800 0.08900
C 	C 	0.22382 0.60884 0.63700 -0.07100
H 	H 	0.23220 0.60950 0.73190 0.03700
C 	C 	0.15629 0.78391 0.52170 -0.07100
H 	H 	0.18150 0.80490 0.52720 0.05000
C 	C 	0.07572 0.76579 0.56450 -0.07000
H 	H 	0.04630 0.77490 0.59820 0.05300
C 	C 	0.95932 0.53924 0.14250 0.10300
H 	H 	0.96390 0.52430 0.22890 -0.03300
C 	C 	0.09123 0.58903 0.32440 -0.09700
H 	H 	0.11100 0.57040 0.37990 0.05300
C 	C 	0.16234 0.73888 0.46400 -0.08600
H 	H 	0.19170 0.73010 0.42950 0.06100
C 	C 	0.05544 0.56768 0.24800 -0.08700
H 	H 	0.05140 0.53490 0.25230 0.04300
C 	C 	0.07578 0.90671 0.72910 0.01100
H 	H 	0.05760 0.92600 0.78750 0.00200
C 	C 	0.18454 0.63399 0.59010 -0.09700
H 	H 	0.16610 0.65080 0.65420 0.07000
C 	C 	0.29821 0.54072 0.72440 0.10100
H 	H 	0.27810 0.54600 0.80020 -0.06400
C 	C 	0.93187 0.55740 0.93980 -0.01000
H 	H 	0.91350 0.55770 0.85860 -0.01100
C 	C 	0.23959 0.58430 0.40240 -0.06900
H 	H 	0.25820 0.56740 0.33880 0.03400
C 	C 	0.97014 0.58530 0.96400 -0.00300
H 	H 	0.98250 0.60810 0.90340 0.02600
C 	C 	0.20190 0.60990 0.35450 -0.09400
H 	H 	0.19560 0.61120 0.25820 0.04400
C 	C 	0.35630 0.51720 0.60620 0.01900
H 	H 	0.38470 0.50280 0.58260 -0.01100
C 	C 	0.32760 0.54200 0.51120 -0.01500
H 	H 	0.33260 0.54750 0.41550 0.01600
Zn	Zn	0.13155 0.98882 0.59543 1.13900
N 	N 	0.36746 0.16051 0.09940 -0.15600
N 	N 	0.38898 0.42198 0.85750 -0.29300
N 	N 	0.51327 0.07343 0.40730 -0.14300
N 	N 	0.57508 0.02900 0.44500 -0.29800
N 	N 	0.39479 0.34468 0.87870 -0.13400
C 	C 	0.40195 0.13840 0.18110 0.09300
C 	C 	0.37168 0.38394 0.92110 0.08700
H 	H 	0.34710 0.38430 0.98580 -0.04600
N 	N 	0.20972 0.05644 0.90750 -0.13800
C 	C 	0.41765 0.22057 0.99220 -0.08900
H 	H 	0.44280 0.19940 0.99570 0.06100
C 	C 	0.24995 0.08322 0.95720 0.06900
C 	C 	0.37435 0.20688 0.04310 0.09400
C 	C 	0.38690 0.29698 0.92970 0.08100
C 	C 	0.42852 0.35871 0.78380 -0.00700
H 	H 	0.45000 0.33930 0.73750 0.03000
C 	C 	0.47408 0.09472 0.33410 0.07000
N 	N 	0.16226 0.01706 0.76680 -0.30400
C 	C 	0.43125 0.16479 0.26760 -0.09300
H 	H 	0.42650 0.19740 0.27570 0.06800
C 	C 	0.46731 0.14353 0.34210 -0.06500
H 	H 	0.48710 0.16200 0.39780 0.05300
C 	C 	0.32710 0.13400 0.05200 0.09000
C 	C 	0.27618 0.10884 0.86300 -0.07000
H 	H 	0.26780 0.10950 0.76810 0.03700
C 	C 	0.34371 0.28391 0.97830 -0.07200
H 	H 	0.31850 0.30490 0.97280 0.05000
C 	C 	0.42428 0.26579 0.93550 -0.07000
H 	H 	0.45370 0.27490 0.90180 0.05300
C 	C 	0.54068 0.03924 0.35750 0.10300
H 	H 	0.53610 0.02430 0.27110 -0.03300
C 	C 	0.40877 0.08903 0.17560 -0.09700
H 	H 	0.38900 0.07040 0.12010 0.05300
C 	C 	0.33766 0.23888 0.03600 -0.08500
H 	H 	0.30830 0.23010 0.07050 0.06100
C 	C 	0.44456 0.06768 0.25200 -0.08700
H 	H 	0.44860 0.03490 0.24770 0.04300
C 	C 	0.42422 0.40671 0.77090 0.01100
H 	H 	0.44240 0.42600 0.71250 0.00200
C 	C 	0.31546 0.13399 0.90990 -0.09800
H 	H 	0.33390 0.15080 0.84580 0.07000
C 	C 	0.20179 0.04072 0.77560 0.10100
H 	H 	0.22190 0.04600 0.69980 -0.06400
C 	C 	0.56813 0.05740 0.56020 -0.01000
H 	H 	0.58650 0.05770 0.64140 -0.01100
C 	C 	0.26041 0.08430 0.09760 -0.06900
H 	H 	0.24180 0.06740 0.16120 0.03300
C 	C 	0.52986 0.08530 0.53600 -0.00300
H 	H 	0.51750 0.10810 0.59660 0.02600
C 	C 	0.29810 0.10990 0.14550 -0.09400
H 	H 	0.30440 0.11120 0.24180 0.04400
C 	C 	0.14370 0.01720 0.89380 0.01900
H 	H 	0.11530 0.00280 0.91740 -0.01000
C 	C 	0.17240 0.04200 0.98880 -0.01500
H 	H 	0.16740 0.04750 0.08450 0.01700
Zn	Zn	0.86845 0.48882 0.09543 1.13900
N 	N 	0.63254 0.66051 0.59940 -0.15600
N 	N 	0.61102 0.92198 0.35750 -0.29300
N 	N 	0.48673 0.57343 0.90730 -0.14300
N 	N 	0.42492 0.52900 0.94500 -0.29800
N 	N 	0.60521 0.84468 0.37870 -0.13400
C 	C 	0.59805 0.63840 0.68110 0.09300
C 	C 	0.62832 0.88394 0.42110 0.08700
H 	H 	0.65290 0.88430 0.48580 -0.04600
N 	N 	0.79028 0.55644 0.40750 -0.13900
C 	C 	0.58235 0.72057 0.49220 -0.08900
H 	H 	0.55720 0.69940 0.49570 0.06100
C 	C 	0.75005 0.58322 0.45720 0.07000
C 	C 	0.62565 0.70688 0.54310 0.09400
C 	C 	0.61310 0.79698 0.42970 0.08000
C 	C 	0.57148 0.85871 0.28380 -0.00700
H 	H 	0.55000 0.83930 0.23750 0.03000
C 	C 	0.52592 0.59472 0.83410 0.07000
N 	N 	0.83774 0.51706 0.26680 -0.30500
C 	C 	0.56875 0.66479 0.76760 -0.09300
H 	H 	0.57350 0.69740 0.77570 0.06800
C 	C 	0.53269 0.64353 0.84210 -0.06400
H 	H 	0.51290 0.66200 0.89780 0.05300
C 	C 	0.67290 0.63400 0.55200 0.08900
C 	C 	0.72382 0.60884 0.36300 -0.07100
H 	H 	0.73220 0.60950 0.26810 0.03700
C 	C 	0.65629 0.78391 0.47830 -0.07100
H 	H 	0.68150 0.80490 0.47280 0.05000
C 	C 	0.57572 0.76579 0.43550 -0.07000
H 	H 	0.54630 0.77490 0.40180 0.05300
C 	C 	0.45932 0.53924 0.85750 0.10300
H 	H 	0.46390 0.52430 0.77110 -0.03300
C 	C 	0.59123 0.58903 0.67560 -0.09700
H 	H 	0.61100 0.57040 0.62010 0.05300
C 	C 	0.66234 0.73888 0.53600 -0.08600
H 	H 	0.69170 0.73010 0.57050 0.06100
C 	C 	0.55544 0.56768 0.75200 -0.08700
H 	H 	0.55140 0.53490 0.74770 0.04300
C 	C 	0.57578 0.90671 0.27090 0.01100
H 	H 	0.55760 0.92600 0.21250 0.00200
C 	C 	0.68454 0.63399 0.40990 -0.09700
H 	H 	0.66610 0.65080 0.34580 0.07000
C 	C 	0.79821 0.54072 0.27560 0.10100
H 	H 	0.77810 0.54600 0.19980 -0.06400
C 	C 	0.43187 0.55740 0.06020 -0.01000
H 	H 	0.41350 0.55770 0.14140 -0.01100
C 	C 	0.73959 0.58430 0.59760 -0.06900
H 	H 	0.75820 0.56740 0.66120 0.03400
C 	C 	0.47014 0.58530 0.03600 -0.00300
H 	H 	0.48250 0.60810 0.09660 0.02600
C 	C 	0.70190 0.60990 0.64550 -0.09400
H 	H 	0.69560 0.61120 0.74180 0.04400
C 	C 	0.85630 0.51720 0.39380 0.01900
H 	H 	0.88470 0.50280 0.41740 -0.01100
C 	C 	0.82760 0.54200 0.48880 -0.01500
H 	H 	0.83260 0.54750 0.58450 0.01600
Zn	Zn	0.63155 0.98882 0.40457 1.13900
N 	N 	0.86746 0.16051 0.90060 -0.15600
N 	N 	0.88898 0.42198 0.14250 -0.29300
N 	N 	0.01327 0.07343 0.59270 -0.14200
N 	N 	0.07508 0.02900 0.55500 -0.29800
N 	N 	0.89479 0.34468 0.12130 -0.13400
C 	C 	0.90195 0.13840 0.81890 0.09300
C 	C 	0.87168 0.38394 0.07890 0.08700
H 	H 	0.84710 0.38430 0.01420 -0.04600
N 	N 	0.70972 0.05644 0.09250 -0.13800
C 	C 	0.91765 0.22057 0.00780 -0.08900
H 	H 	0.94280 0.19940 0.00430 0.06100
C 	C 	0.74995 0.08322 0.04280 0.06900
C 	C 	0.87435 0.20688 0.95690 0.09400
C 	C 	0.88690 0.29698 0.07030 0.08100
C 	C 	0.92852 0.35871 0.21620 -0.00700
H 	H 	0.95000 0.33930 0.26250 0.03000
C 	C 	0.97408 0.09472 0.66590 0.06900
N 	N 	0.66226 0.01706 0.23320 -0.30400
C 	C 	0.93125 0.16479 0.73240 -0.09300
H 	H 	0.92650 0.19740 0.72430 0.06800
C 	C 	0.96731 0.14353 0.65790 -0.06400
H 	H 	0.98710 0.16200 0.60220 0.05300
C 	C 	0.82710 0.13400 0.94800 0.09000
C 	C 	0.77618 0.10884 0.13700 -0.07000
H 	H 	0.76780 0.10950 0.23190 0.03700
C 	C 	0.84371 0.28391 0.02170 -0.07200
H 	H 	0.81850 0.30490 0.02720 0.05000
C 	C 	0.92428 0.26579 0.06450 -0.07000
H 	H 	0.95370 0.27490 0.09820 0.05300
C 	C 	0.04068 0.03924 0.64250 0.10300
H 	H 	0.03610 0.02430 0.72890 -0.03300
C 	C 	0.90877 0.08903 0.82440 -0.09700
H 	H 	0.88900 0.07040 0.87990 0.05300
C 	C 	0.83766 0.23888 0.96400 -0.08500
H 	H 	0.80830 0.23010 0.92950 0.06100
C 	C 	0.94456 0.06768 0.74800 -0.08700
H 	H 	0.94860 0.03490 0.75230 0.04300
C 	C 	0.92422 0.40671 0.22910 0.01100
H 	H 	0.94240 0.42600 0.28750 0.00200
C 	C 	0.81546 0.13399 0.09010 -0.09800
H 	H 	0.83390 0.15080 0.15420 0.07000
C 	C 	0.70179 0.04072 0.22440 0.10100
H 	H 	0.72190 0.04600 0.30020 -0.06400
C 	C 	0.06813 0.05740 0.43980 -0.01000
H 	H 	0.08650 0.05770 0.35860 -0.01100
C 	C 	0.76041 0.08430 0.90240 -0.06900
H 	H 	0.74180 0.06740 0.83880 0.03300
C 	C 	0.02986 0.08530 0.46400 -0.00300
H 	H 	0.01750 0.10810 0.40340 0.02600
C 	C 	0.79810 0.10990 0.85450 -0.09400
H 	H 	0.80440 0.11120 0.75820 0.04400
C 	C 	0.64370 0.01720 0.10620 0.01900
H 	H 	0.61530 0.00280 0.08260 -0.01100
C 	C 	0.67240 0.04200 0.01120 -0.01500
H 	H 	0.66740 0.04750 0.91550 0.01700
