data_crystal

_cell_length_a 8.03520
_cell_length_b 10.18950
_cell_length_c 16.02660
_cell_angle_alpha 93.34900
_cell_angle_beta  94.50400
_cell_angle_gamma 92.45200

_symmetry_space_group_name_	'P 1'
_symmetry_space_group_name_H-M	'P 1'

loop_
_symmetry_equiv_pos_as_xyz
  x,y,z

loop_
_atom_site_label
_atom_site_type_symbol
_atom_site_fract_x
_atom_site_fract_y
_atom_site_fract_z
_atom_site_charge
Mn	Mn	0.38842 0.55471 0.13608 1.32000
Mn	Mn	0.25600 0.06321 0.28629 1.31500
Mn	Mn	0.55567 0.24448 0.42358 1.31500
P 	P 	0.74158 0.41041 0.06410 0.64000
P 	P 	0.86969 0.16069 0.30598 0.57500
O 	O 	0.60860 0.48770 0.09627 -0.43300
O 	O 	0.73310 0.38060 0.97172 -0.41300
O 	O 	0.90610 0.49370 0.09650 -0.43500
H 	H 	0.98640 0.46110 0.07600 0.28600
O 	O 	0.75820 0.27670 0.10360 -0.46000
H 	H 	0.81070 0.28770 0.14960 0.33100
O 	O 	0.76480 0.17110 0.37964 -0.41500
O 	O 	0.04480 0.12910 0.33444 -0.39400
O 	O 	0.86240 0.28120 0.25503 -0.26400
O 	O 	0.79890 0.03900 0.24428 -0.42200
H 	H 	0.69710 0.03140 0.24510 0.29300
O 	O 	0.51310 0.74870 0.18150 -0.31800
O 	O 	0.45940 0.95130 0.23096 -0.35200
O 	O 	0.20390 0.66430 0.20875 -0.30400
O 	O 	0.15010 0.86600 0.25732 -0.32300
O 	O 	0.23260 0.36660 0.11926 -0.33400
O 	O 	0.21340 0.16720 0.16862 -0.31700
O 	O 	0.42650 0.45260 0.25792 -0.35400
O 	O 	0.40510 0.25200 0.30612 -0.50900
O 	O 	0.36640 0.35960 0.49034 -0.32200
O 	O 	0.32480 0.56120 0.54315 -0.33100
O 	O 	0.60350 0.14540 0.54306 -0.35300
O 	O 	0.59910 0.94350 0.59060 -0.48600
C 	C 	0.42180 0.83160 0.21120 0.24000
C 	C 	0.24250 0.78290 0.22707 0.23100
C 	C 	0.26390 0.28570 0.17290 0.21900
C 	C 	0.37670 0.33630 0.25250 0.27600
C 	C 	0.41080 0.47710 0.50997 0.23300
C 	C 	0.55920 0.02750 0.53855 0.26100
Mn	Mn	0.61158 0.44529 0.86392 1.32100
Mn	Mn	0.74400 0.93679 0.71371 1.31600
Mn	Mn	0.44433 0.75552 0.57642 1.31600
P 	P 	0.25842 0.58959 0.93590 0.64100
P 	P 	0.13031 0.83931 0.69402 0.57600
O 	O 	0.39140 0.51230 0.90373 -0.43200
O 	O 	0.26690 0.61940 0.02828 -0.41200
O 	O 	0.09390 0.50630 0.90350 -0.43400
H 	H 	0.01360 0.53890 0.92400 0.28600
O 	O 	0.24180 0.72330 0.89640 -0.46000
H 	H 	0.18930 0.71230 0.85040 0.33100
O 	O 	0.23520 0.82890 0.62036 -0.41500
O 	O 	0.95520 0.87090 0.66556 -0.39400
O 	O 	0.13760 0.71880 0.74497 -0.26400
O 	O 	0.20110 0.96100 0.75572 -0.42200
H 	H 	0.30290 0.96860 0.75490 0.29300
O 	O 	0.48690 0.25130 0.81850 -0.31800
O 	O 	0.54060 0.04870 0.76904 -0.35200
O 	O 	0.79610 0.33570 0.79125 -0.30400
O 	O 	0.84990 0.13400 0.74268 -0.32300
O 	O 	0.76740 0.63340 0.88074 -0.33400
O 	O 	0.78660 0.83280 0.83138 -0.31700
O 	O 	0.57350 0.54740 0.74208 -0.35400
O 	O 	0.59490 0.74800 0.69388 -0.50900
O 	O 	0.63360 0.64040 0.50966 -0.32200
O 	O 	0.67520 0.43880 0.45685 -0.33100
O 	O 	0.39650 0.85460 0.45694 -0.35300
O 	O 	0.40090 0.05650 0.40940 -0.48600
C 	C 	0.57820 0.16840 0.78880 0.24000
C 	C 	0.75750 0.21710 0.77293 0.23100
C 	C 	0.73610 0.71430 0.82710 0.21900
C 	C 	0.62330 0.66370 0.74750 0.27600
C 	C 	0.58920 0.52290 0.49003 0.23300
C 	C 	0.44080 0.97250 0.46145 0.26100
