data_crystal

_cell_length_a 19.65100
_cell_length_b 14.89630
_cell_length_c 8.52290
_cell_angle_alpha 90.00000
_cell_angle_beta  108.90200
_cell_angle_gamma 90.00000

_symmetry_space_group_name_	'P 1'
_symmetry_space_group_name_H-M	'P 1'

loop_
_symmetry_equiv_pos_as_xyz
  x,y,z

loop_
_atom_site_label
_atom_site_type_symbol
_atom_site_fract_x
_atom_site_fract_y
_atom_site_fract_z
_atom_site_charge
C 	C 	0.10286 0.56515 0.52605 0.41600
C 	C 	0.18022 0.58101 0.53497 -0.12400
C 	C 	0.20569 0.54511 0.41470 0.02600
H 	H 	0.17600 0.50920 0.33110 0.02900
C 	C 	0.27568 0.56283 0.41910 -0.08100
H 	H 	0.29280 0.53850 0.33870 0.06100
C 	C 	0.32000 0.61657 0.54270 -0.01400
H 	H 	0.36630 0.62950 0.54280 0.03500
C 	C 	0.29596 0.65161 0.66714 -0.04300
C 	C 	0.22561 0.63326 0.66121 0.00900
H 	H 	0.20870 0.65630 0.74300 0.03500
C 	C 	0.34387 0.70721 0.80240 0.10000
C 	C 	0.39348 0.76633 0.77408 -0.15500
H 	H 	0.39780 0.77060 0.66880 0.09100
C 	C 	0.43637 0.81878 0.90186 0.08100
H 	H 	0.46840 0.85850 0.87890 0.00100
C 	C 	0.38714 0.75727 0.08574 0.09000
H 	H 	0.38510 0.75300 0.19300 -0.00300
C 	C 	0.34140 0.70348 0.96413 -0.16300
H 	H 	0.30930 0.66510 0.99010 0.08800
N 	N 	0.43403 0.81510 0.05754 -0.22500
O 	O 	0.08362 0.59940 0.63945 -0.47300
O 	O 	0.06334 0.52241 0.40557 -0.49000
C 	C 	0.60286 0.06515 0.52605 0.41000
C 	C 	0.68022 0.08101 0.53497 -0.11800
C 	C 	0.70569 0.04511 0.41470 0.02000
H 	H 	0.67600 0.00920 0.33110 0.03200
C 	C 	0.77568 0.06283 0.41910 -0.07200
H 	H 	0.79280 0.03850 0.33870 0.06400
C 	C 	0.82000 0.11657 0.54270 -0.02000
H 	H 	0.86630 0.12950 0.54280 0.05300
C 	C 	0.79596 0.15161 0.66714 -0.03500
C 	C 	0.72561 0.13326 0.66121 0.00400
H 	H 	0.70870 0.15630 0.74300 0.03700
C 	C 	0.84387 0.20721 0.80240 0.10200
C 	C 	0.89348 0.26633 0.77408 -0.14000
H 	H 	0.89780 0.27060 0.66880 0.10000
C 	C 	0.93637 0.31878 0.90186 0.08000
H 	H 	0.96840 0.35850 0.87890 0.04000
C 	C 	0.88714 0.25727 0.08574 0.10400
H 	H 	0.88510 0.25300 0.19300 0.00700
C 	C 	0.84140 0.20348 0.96413 -0.16300
H 	H 	0.80930 0.16510 0.99010 0.09000
N 	N 	0.93403 0.31510 0.05754 -0.19700
O 	O 	0.58362 0.09940 0.63945 -0.44700
O 	O 	0.56334 0.02241 0.40557 -0.45500
C 	C 	0.89714 0.56515 0.97395 0.39200
C 	C 	0.81978 0.58101 0.96503 -0.11200
C 	C 	0.79431 0.54511 0.08530 0.01800
H 	H 	0.82400 0.50920 0.16890 0.03400
C 	C 	0.72432 0.56283 0.08090 -0.07000
H 	H 	0.70720 0.53850 0.16130 0.05700
C 	C 	0.68000 0.61657 0.95730 -0.02600
H 	H 	0.63370 0.62950 0.95720 0.03900
C 	C 	0.70404 0.65161 0.83286 -0.03600
C 	C 	0.77439 0.63326 0.83879 0.00000
H 	H 	0.79130 0.65630 0.75700 0.04000
C 	C 	0.65613 0.70721 0.69760 0.09600
C 	C 	0.60652 0.76633 0.72592 -0.15200
H 	H 	0.60220 0.77060 0.83120 0.08900
C 	C 	0.56363 0.81878 0.59814 0.08100
H 	H 	0.53160 0.85850 0.62110 0.00100
C 	C 	0.61286 0.75727 0.41426 0.08700
H 	H 	0.61490 0.75300 0.30700 -0.00200
C 	C 	0.65860 0.70348 0.53587 -0.15900
H 	H 	0.69070 0.66510 0.50990 0.08600
N 	N 	0.56597 0.81510 0.44246 -0.22500
O 	O 	0.91638 0.59940 0.86055 -0.40300
O 	O 	0.93666 0.52241 0.09443 -0.39800
C 	C 	0.39714 0.06515 0.97395 0.40700
C 	C 	0.31978 0.08101 0.96503 -0.12600
C 	C 	0.29431 0.04511 0.08530 0.02900
H 	H 	0.32400 0.00920 0.16890 0.02900
C 	C 	0.22432 0.06283 0.08090 -0.07900
H 	H 	0.20720 0.03850 0.16130 0.05500
C 	C 	0.18000 0.11657 0.95730 -0.02000
H 	H 	0.13370 0.12950 0.95720 0.02100
C 	C 	0.20404 0.15161 0.83286 -0.04700
C 	C 	0.27439 0.13326 0.83879 0.00900
H 	H 	0.29130 0.15630 0.75700 0.03600
C 	C 	0.15613 0.20721 0.69760 0.09600
C 	C 	0.10652 0.26633 0.72592 -0.16600
H 	H 	0.10220 0.27060 0.83120 0.07900
C 	C 	0.06363 0.31878 0.59814 0.07600
H 	H 	0.03160 0.35850 0.62110 -0.03400
C 	C 	0.11286 0.25727 0.41426 0.08100
H 	H 	0.11490 0.25300 0.30700 -0.01200
C 	C 	0.15860 0.20348 0.53587 -0.16800
H 	H 	0.19070 0.16510 0.50990 0.08600
N 	N 	0.06597 0.31510 0.44246 -0.24200
O 	O 	0.41638 0.09940 0.86055 -0.44700
O 	O 	0.43666 0.02241 0.09443 -0.45100
C 	C 	0.89714 0.43485 0.47395 0.39800
C 	C 	0.81978 0.41899 0.46503 -0.10900
C 	C 	0.79431 0.45489 0.58530 0.01400
H 	H 	0.82400 0.49080 0.66890 0.03500
C 	C 	0.72432 0.43717 0.58090 -0.07200
H 	H 	0.70720 0.46150 0.66130 0.05700
C 	C 	0.68000 0.38343 0.45730 -0.02200
H 	H 	0.63370 0.37050 0.45720 0.03800
C 	C 	0.70404 0.34839 0.33286 -0.03600
C 	C 	0.77439 0.36674 0.33879 0.00000
H 	H 	0.79130 0.34370 0.25700 0.04000
C 	C 	0.65613 0.29279 0.19760 0.09400
C 	C 	0.60652 0.23367 0.22592 -0.15300
H 	H 	0.60220 0.22940 0.33120 0.09000
C 	C 	0.56363 0.18122 0.09814 0.08500
H 	H 	0.53160 0.14150 0.12110 0.00100
C 	C 	0.61286 0.24273 0.91426 0.07900
H 	H 	0.61490 0.24700 0.80700 -0.00000
C 	C 	0.65860 0.29652 0.03587 -0.15200
H 	H 	0.69070 0.33490 0.00990 0.08500
N 	N 	0.56597 0.18490 0.94246 -0.22600
O 	O 	0.91638 0.40060 0.36055 -0.40300
O 	O 	0.93666 0.47759 0.59443 -0.40300
C 	C 	0.39714 0.93485 0.47395 0.41200
C 	C 	0.31978 0.91899 0.46503 -0.12300
C 	C 	0.29431 0.95489 0.58530 0.02600
H 	H 	0.32400 0.99080 0.66890 0.02900
C 	C 	0.22432 0.93717 0.58090 -0.08600
H 	H 	0.20720 0.96150 0.66130 0.05700
C 	C 	0.18000 0.88343 0.45730 -0.01200
H 	H 	0.13370 0.87050 0.45720 0.01900
C 	C 	0.20404 0.84839 0.33286 -0.04900
C 	C 	0.27439 0.86674 0.33879 0.01100
H 	H 	0.29130 0.84370 0.25700 0.03500
C 	C 	0.15613 0.79279 0.19760 0.09700
C 	C 	0.10652 0.73367 0.22592 -0.16800
H 	H 	0.10220 0.72940 0.33120 0.08000
C 	C 	0.06363 0.68122 0.09814 0.07900
H 	H 	0.03160 0.64150 0.12110 -0.03400
C 	C 	0.11286 0.74273 0.91426 0.08000
H 	H 	0.11490 0.74700 0.80700 -0.01200
C 	C 	0.15860 0.79652 0.03587 -0.16600
H 	H 	0.19070 0.83490 0.00990 0.08500
N 	N 	0.06597 0.68490 0.94246 -0.24300
O 	O 	0.41638 0.90060 0.36055 -0.44700
O 	O 	0.43666 0.97759 0.59443 -0.45600
C 	C 	0.10286 0.43485 0.02605 0.41900
C 	C 	0.18022 0.41899 0.03497 -0.12300
C 	C 	0.20569 0.45489 0.91470 0.02500
H 	H 	0.17600 0.49080 0.83110 0.02900
C 	C 	0.27568 0.43717 0.91910 -0.08500
H 	H 	0.29280 0.46150 0.83870 0.06200
C 	C 	0.32000 0.38343 0.04270 -0.01000
H 	H 	0.36630 0.37050 0.04280 0.03400
C 	C 	0.29596 0.34839 0.16714 -0.04400
C 	C 	0.22561 0.36674 0.16121 0.01000
H 	H 	0.20870 0.34370 0.24300 0.03500
C 	C 	0.34387 0.29279 0.30240 0.10000
C 	C 	0.39348 0.23367 0.27408 -0.15600
H 	H 	0.39780 0.22940 0.16880 0.09200
C 	C 	0.43637 0.18122 0.40186 0.08200
H 	H 	0.46840 0.14150 0.37890 0.00000
C 	C 	0.38714 0.24273 0.58574 0.08800
H 	H 	0.38510 0.24700 0.69300 -0.00300
C 	C 	0.34140 0.29652 0.46413 -0.16200
H 	H 	0.30930 0.33490 0.49010 0.08800
N 	N 	0.43403 0.18490 0.55754 -0.22600
O 	O 	0.08362 0.40060 0.13945 -0.47300
O 	O 	0.06334 0.47759 0.90557 -0.49300
C 	C 	0.60286 0.93485 0.02605 0.41000
C 	C 	0.68022 0.91899 0.03497 -0.11700
C 	C 	0.70569 0.95489 0.91470 0.02000
H 	H 	0.67600 0.99080 0.83110 0.03200
C 	C 	0.77568 0.93717 0.91910 -0.07400
H 	H 	0.79280 0.96150 0.83870 0.06400
C 	C 	0.82000 0.88343 0.04270 -0.01900
H 	H 	0.86630 0.87050 0.04280 0.05300
C 	C 	0.79596 0.84839 0.16714 -0.03400
C 	C 	0.72561 0.86674 0.16121 0.00400
H 	H 	0.70870 0.84370 0.24300 0.03800
C 	C 	0.84387 0.79279 0.30240 0.10000
C 	C 	0.89348 0.73367 0.27408 -0.14100
H 	H 	0.89780 0.72940 0.16880 0.10100
C 	C 	0.93637 0.68122 0.40186 0.08600
H 	H 	0.96840 0.64150 0.37890 0.03900
C 	C 	0.88714 0.74273 0.58574 0.09400
H 	H 	0.88510 0.74700 0.69300 0.00900
C 	C 	0.84140 0.79652 0.46413 -0.15200
H 	H 	0.80930 0.83490 0.49010 0.08800
N 	N 	0.93403 0.68490 0.55754 -0.19900
O 	O 	0.58362 0.90060 0.13945 -0.44600
O 	O 	0.56334 0.97759 0.90557 -0.45500
Mn	Mn	0.00000 0.58035 0.75000 1.25800
Mn	Mn	0.50000 0.08035 0.75000 1.30200
Mn	Mn	0.00000 0.41965 0.25000 1.25800
Mn	Mn	0.50000 0.91965 0.25000 1.30200
