data_crystal

_cell_length_a 19.10900
_cell_length_b 19.10900
_cell_length_c 24.31700
_cell_angle_alpha 90.00000
_cell_angle_beta  90.00000
_cell_angle_gamma 90.00000

_symmetry_space_group_name_	'P 1'
_symmetry_space_group_name_H-M	'P 1'

loop_
_symmetry_equiv_pos_as_xyz
  x,y,z

loop_
_atom_site_label
_atom_site_type_symbol
_atom_site_fract_x
_atom_site_fract_y
_atom_site_fract_z
_atom_site_charge
Cd	Cd	0.15917 0.67808 0.00524 1.19800
O 	O 	0.34313 0.65895 0.79908 -0.44100
O 	O 	0.33598 0.54468 0.80337 -0.45000
O 	O 	0.01854 0.65507 0.78347 -0.44100
O 	O 	0.02754 0.54008 0.78485 -0.43600
N 	N 	0.16981 0.62590 0.91784 -0.33000
C 	C 	0.31120 0.60450 0.81223 0.38200
C 	C 	0.04960 0.59960 0.79694 0.37800
C 	C 	0.11550 0.60640 0.83025 -0.28900
C 	C 	0.11140 0.61680 0.88690 0.34600
C 	C 	0.04160 0.61990 0.91630 -0.92400
H 	H 	0.04530 0.59670 0.95110 0.29200
H 	H 	0.00660 0.59720 0.89430 0.31000
H 	H 	0.02870 0.66790 0.92200 0.30100
C 	C 	0.23280 0.62130 0.89378 0.33600
C 	C 	0.29570 0.62870 0.93070 -0.85100
H 	H 	0.30230 0.67710 0.93990 0.25600
H 	H 	0.33650 0.61160 0.91200 0.27000
H 	H 	0.28850 0.60210 0.96370 0.25400
C 	C 	0.24040 0.60980 0.83720 -0.28600
C 	C 	0.18060 0.60360 0.80472 0.18700
C 	C 	0.18500 0.59700 0.74360 -0.04900
C 	C 	0.18530 0.65540 0.71060 -0.03300
H 	H 	0.18430 0.69950 0.72670 0.04000
C 	C 	0.18690 0.65020 0.65460 -0.06200
H 	H 	0.18710 0.69070 0.63340 0.04900
C 	C 	0.18810 0.58820 0.62970 -0.02100
H 	H 	0.18810 0.58560 0.59150 0.03300
C 	C 	0.18940 0.52910 0.65990 -0.06500
H 	H 	0.19200 0.48580 0.64250 0.04500
C 	C 	0.18680 0.53260 0.71820 -0.03000
H 	H 	0.18620 0.49180 0.73900 0.03500
Cd	Cd	0.65917 0.17808 0.50524 1.19800
O 	O 	0.84313 0.15895 0.29908 -0.44200
O 	O 	0.83598 0.04468 0.30337 -0.45100
O 	O 	0.51854 0.15507 0.28347 -0.44200
O 	O 	0.52754 0.04008 0.28485 -0.43600
N 	N 	0.66981 0.12590 0.41784 -0.33100
C 	C 	0.81120 0.10450 0.31223 0.38200
C 	C 	0.54960 0.09960 0.29694 0.37800
C 	C 	0.61550 0.10640 0.33025 -0.28800
C 	C 	0.61140 0.11680 0.38690 0.34600
C 	C 	0.54160 0.11990 0.41630 -0.92400
H 	H 	0.54530 0.09670 0.45110 0.29200
H 	H 	0.50660 0.09720 0.39430 0.30900
H 	H 	0.52870 0.16790 0.42200 0.30100
C 	C 	0.73280 0.12130 0.39378 0.33600
C 	C 	0.79570 0.12870 0.43070 -0.84900
H 	H 	0.80230 0.17710 0.43990 0.25500
H 	H 	0.83650 0.11160 0.41200 0.26900
H 	H 	0.78850 0.10210 0.46370 0.25300
C 	C 	0.74040 0.10980 0.33720 -0.28600
C 	C 	0.68060 0.10360 0.30472 0.18700
C 	C 	0.68500 0.09700 0.24360 -0.04800
C 	C 	0.68530 0.15540 0.21060 -0.03500
H 	H 	0.68430 0.19950 0.22670 0.04100
C 	C 	0.68690 0.15020 0.15460 -0.05900
H 	H 	0.68710 0.19070 0.13340 0.04800
C 	C 	0.68810 0.08820 0.12970 -0.02400
H 	H 	0.68810 0.08560 0.09150 0.03400
C 	C 	0.68940 0.02910 0.15990 -0.06100
H 	H 	0.69200 0.98580 0.14250 0.04300
C 	C 	0.68680 0.03260 0.21820 -0.03200
H 	H 	0.68620 0.99180 0.23900 0.03500
Cd	Cd	0.34083 0.32192 0.50524 1.19800
O 	O 	0.15687 0.34105 0.29908 -0.44200
O 	O 	0.16402 0.45532 0.30337 -0.45100
O 	O 	0.48146 0.34493 0.28347 -0.44200
O 	O 	0.47246 0.45992 0.28485 -0.43700
N 	N 	0.33019 0.37410 0.41784 -0.33100
C 	C 	0.18880 0.39550 0.31223 0.38200
C 	C 	0.45040 0.40040 0.29694 0.37800
C 	C 	0.38450 0.39360 0.33025 -0.28900
C 	C 	0.38860 0.38320 0.38690 0.34600
C 	C 	0.45840 0.38010 0.41630 -0.92400
H 	H 	0.45470 0.40330 0.45110 0.29200
H 	H 	0.49340 0.40280 0.39430 0.31000
H 	H 	0.47130 0.33210 0.42200 0.30100
C 	C 	0.26720 0.37870 0.39378 0.33600
C 	C 	0.20430 0.37130 0.43070 -0.85000
H 	H 	0.19770 0.32290 0.43990 0.25600
H 	H 	0.16350 0.38840 0.41200 0.27000
H 	H 	0.21150 0.39790 0.46370 0.25400
C 	C 	0.25960 0.39020 0.33720 -0.28600
C 	C 	0.31940 0.39640 0.30472 0.18700
C 	C 	0.31500 0.40300 0.24360 -0.04900
C 	C 	0.31470 0.34460 0.21060 -0.03300
H 	H 	0.31570 0.30050 0.22670 0.04100
C 	C 	0.31310 0.34980 0.15460 -0.06200
H 	H 	0.31290 0.30930 0.13340 0.04900
C 	C 	0.31190 0.41180 0.12970 -0.02100
H 	H 	0.31190 0.41440 0.09150 0.03300
C 	C 	0.31060 0.47090 0.15990 -0.06500
H 	H 	0.30800 0.51420 0.14250 0.04500
C 	C 	0.31320 0.46740 0.21820 -0.03000
H 	H 	0.31380 0.50820 0.23900 0.03500
Cd	Cd	0.84083 0.82192 0.00524 1.19700
O 	O 	0.65687 0.84105 0.79908 -0.44200
O 	O 	0.66402 0.95532 0.80337 -0.45000
O 	O 	0.98146 0.84493 0.78347 -0.44200
O 	O 	0.97246 0.95992 0.78485 -0.43600
N 	N 	0.83019 0.87410 0.91784 -0.33100
C 	C 	0.68880 0.89550 0.81223 0.38300
C 	C 	0.95040 0.90040 0.79694 0.37800
C 	C 	0.88450 0.89360 0.83025 -0.28900
C 	C 	0.88860 0.88320 0.88690 0.34800
C 	C 	0.95840 0.88010 0.91630 -0.92800
H 	H 	0.95470 0.90330 0.95110 0.29400
H 	H 	0.99340 0.90280 0.89430 0.31100
H 	H 	0.97130 0.83210 0.92200 0.30200
C 	C 	0.76720 0.87870 0.89378 0.33700
C 	C 	0.70430 0.87130 0.93070 -0.85200
H 	H 	0.69770 0.82290 0.93990 0.25700
H 	H 	0.66350 0.88840 0.91200 0.27100
H 	H 	0.71150 0.89790 0.96370 0.25500
C 	C 	0.75960 0.89020 0.83720 -0.28600
C 	C 	0.81940 0.89640 0.80472 0.18800
C 	C 	0.81500 0.90300 0.74360 -0.05000
C 	C 	0.81470 0.84460 0.71060 -0.03200
H 	H 	0.81570 0.80050 0.72670 0.04000
C 	C 	0.81310 0.84980 0.65460 -0.06100
H 	H 	0.81290 0.80930 0.63340 0.04900
C 	C 	0.81190 0.91180 0.62970 -0.02200
H 	H 	0.81190 0.91440 0.59150 0.03300
C 	C 	0.81060 0.97090 0.65990 -0.06400
H 	H 	0.80800 0.01420 0.64250 0.04300
C 	C 	0.81320 0.96740 0.71820 -0.02700
H 	H 	0.81380 0.00820 0.73900 0.03200
Cd	Cd	0.07192 0.40917 0.25524 1.19800
O 	O 	0.09105 0.59313 0.04908 -0.44200
O 	O 	0.20532 0.58598 0.05337 -0.45100
O 	O 	0.09493 0.26854 0.03347 -0.44200
O 	O 	0.20992 0.27754 0.03485 -0.43600
N 	N 	0.12410 0.41981 0.16784 -0.33100
C 	C 	0.14550 0.56120 0.06223 0.38200
C 	C 	0.15040 0.29960 0.04694 0.37800
C 	C 	0.14360 0.36550 0.08025 -0.28900
C 	C 	0.13320 0.36140 0.13690 0.34600
C 	C 	0.13010 0.29160 0.16630 -0.92400
H 	H 	0.15330 0.29530 0.20110 0.29200
H 	H 	0.15280 0.25660 0.14430 0.31000
H 	H 	0.08210 0.27870 0.17200 0.30100
C 	C 	0.12870 0.48280 0.14378 0.33600
C 	C 	0.12130 0.54570 0.18070 -0.85000
H 	H 	0.07290 0.55230 0.18990 0.25600
H 	H 	0.13840 0.58650 0.16200 0.27000
H 	H 	0.14790 0.53850 0.21370 0.25300
C 	C 	0.14020 0.49040 0.08720 -0.28600
C 	C 	0.14640 0.43060 0.05472 0.18800
C 	C 	0.15300 0.43500 0.99360 -0.04900
C 	C 	0.09460 0.43530 0.96060 -0.03300
H 	H 	0.05050 0.43430 0.97670 0.04100
C 	C 	0.09980 0.43690 0.90460 -0.06200
H 	H 	0.05930 0.43710 0.88340 0.04900
C 	C 	0.16180 0.43810 0.87970 -0.02100
H 	H 	0.16440 0.43810 0.84150 0.03300
C 	C 	0.22090 0.43940 0.90990 -0.06500
H 	H 	0.26420 0.44200 0.89250 0.04500
C 	C 	0.21740 0.43680 0.96820 -0.03000
H 	H 	0.25820 0.43620 0.98900 0.03500
Cd	Cd	0.57192 0.90917 0.75524 1.19800
O 	O 	0.59105 0.09313 0.54908 -0.44200
O 	O 	0.70532 0.08598 0.55337 -0.45100
O 	O 	0.59493 0.76854 0.53347 -0.44200
O 	O 	0.70992 0.77754 0.53485 -0.43700
N 	N 	0.62410 0.91981 0.66784 -0.33100
C 	C 	0.64550 0.06120 0.56223 0.38200
C 	C 	0.65040 0.79960 0.54694 0.37800
C 	C 	0.64360 0.86550 0.58025 -0.28900
C 	C 	0.63320 0.86140 0.63690 0.34600
C 	C 	0.63010 0.79160 0.66630 -0.92400
H 	H 	0.65330 0.79530 0.70110 0.29200
H 	H 	0.65280 0.75660 0.64430 0.31000
H 	H 	0.58210 0.77870 0.67200 0.30100
C 	C 	0.62870 0.98280 0.64378 0.33700
C 	C 	0.62130 0.04570 0.68070 -0.85200
H 	H 	0.57290 0.05230 0.68990 0.25600
H 	H 	0.63840 0.08650 0.66200 0.27000
H 	H 	0.64790 0.03850 0.71370 0.25300
C 	C 	0.64020 0.99040 0.58720 -0.28600
C 	C 	0.64640 0.93060 0.55472 0.18700
C 	C 	0.65300 0.93500 0.49360 -0.04900
C 	C 	0.59460 0.93530 0.46060 -0.03300
H 	H 	0.55050 0.93430 0.47670 0.04000
C 	C 	0.59980 0.93690 0.40460 -0.06200
H 	H 	0.55930 0.93710 0.38340 0.04900
C 	C 	0.66180 0.93810 0.37970 -0.02100
H 	H 	0.66440 0.93810 0.34150 0.03300
C 	C 	0.72090 0.93940 0.40990 -0.06500
H 	H 	0.76420 0.94200 0.39250 0.04500
C 	C 	0.71740 0.93680 0.46820 -0.03000
H 	H 	0.75820 0.93620 0.48900 0.03500
Cd	Cd	0.42808 0.59083 0.75524 1.19800
O 	O 	0.40895 0.40687 0.54908 -0.44200
O 	O 	0.29468 0.41402 0.55337 -0.45100
O 	O 	0.40507 0.73146 0.53347 -0.44200
O 	O 	0.29008 0.72246 0.53485 -0.43700
N 	N 	0.37590 0.58019 0.66784 -0.33100
C 	C 	0.35450 0.43880 0.56223 0.38200
C 	C 	0.34960 0.70040 0.54694 0.37800
C 	C 	0.35640 0.63450 0.58025 -0.28900
C 	C 	0.36680 0.63860 0.63690 0.34600
C 	C 	0.36990 0.70840 0.66630 -0.92400
H 	H 	0.34670 0.70470 0.70110 0.29200
H 	H 	0.34720 0.74340 0.64430 0.31000
H 	H 	0.41790 0.72130 0.67200 0.30100
C 	C 	0.37130 0.51720 0.64378 0.33600
C 	C 	0.37870 0.45430 0.68070 -0.85000
H 	H 	0.42710 0.44770 0.68990 0.25600
H 	H 	0.36160 0.41350 0.66200 0.27000
H 	H 	0.35210 0.46150 0.71370 0.25300
C 	C 	0.35980 0.50960 0.58720 -0.28600
C 	C 	0.35360 0.56940 0.55472 0.18700
C 	C 	0.34700 0.56500 0.49360 -0.04900
C 	C 	0.40540 0.56470 0.46060 -0.03300
H 	H 	0.44950 0.56570 0.47670 0.04000
C 	C 	0.40020 0.56310 0.40460 -0.06200
H 	H 	0.44070 0.56290 0.38340 0.04900
C 	C 	0.33820 0.56190 0.37970 -0.02100
H 	H 	0.33560 0.56190 0.34150 0.03300
C 	C 	0.27910 0.56060 0.40990 -0.06500
H 	H 	0.23580 0.55800 0.39250 0.04500
C 	C 	0.28260 0.56320 0.46820 -0.03000
H 	H 	0.24180 0.56380 0.48900 0.03500
Cd	Cd	0.92808 0.09083 0.25524 1.19700
O 	O 	0.90895 0.90687 0.04908 -0.44200
O 	O 	0.79468 0.91402 0.05337 -0.45100
O 	O 	0.90507 0.23146 0.03347 -0.44200
O 	O 	0.79008 0.22246 0.03485 -0.43600
N 	N 	0.87590 0.08019 0.16784 -0.33100
C 	C 	0.85450 0.93880 0.06223 0.38200
C 	C 	0.84960 0.20040 0.04694 0.37900
C 	C 	0.85640 0.13450 0.08025 -0.28900
C 	C 	0.86680 0.13860 0.13690 0.34600
C 	C 	0.86990 0.20840 0.16630 -0.92400
H 	H 	0.84670 0.20470 0.20110 0.29200
H 	H 	0.84720 0.24340 0.14430 0.31000
H 	H 	0.91790 0.22130 0.17200 0.30100
C 	C 	0.87130 0.01720 0.14378 0.33600
C 	C 	0.87870 0.95430 0.18070 -0.85100
H 	H 	0.92710 0.94770 0.18990 0.25600
H 	H 	0.86160 0.91350 0.16200 0.27000
H 	H 	0.85210 0.96150 0.21370 0.25400
C 	C 	0.85980 0.00960 0.08720 -0.28600
C 	C 	0.85360 0.06940 0.05472 0.19000
C 	C 	0.84700 0.06500 0.99360 -0.05300
C 	C 	0.90540 0.06470 0.96060 -0.03000
H 	H 	0.94950 0.06570 0.97670 0.03800
C 	C 	0.90020 0.06310 0.90460 -0.06600
H 	H 	0.94070 0.06290 0.88340 0.04900
C 	C 	0.83820 0.06190 0.87970 -0.01800
H 	H 	0.83560 0.06190 0.84150 0.03100
C 	C 	0.77910 0.06060 0.90990 -0.06900
H 	H 	0.73580 0.05800 0.89250 0.04500
C 	C 	0.78260 0.06320 0.96820 -0.02700
H 	H 	0.74180 0.06380 0.98900 0.03300
Cd	Cd	0.84083 0.32192 0.99476 1.19700
O 	O 	0.65687 0.34105 0.20092 -0.44200
O 	O 	0.66402 0.45532 0.19663 -0.45100
O 	O 	0.98146 0.34493 0.21653 -0.44200
O 	O 	0.97246 0.45992 0.21515 -0.43700
N 	N 	0.83019 0.37410 0.08216 -0.33100
C 	C 	0.68880 0.39550 0.18777 0.38200
C 	C 	0.95040 0.40040 0.20306 0.37800
C 	C 	0.88450 0.39360 0.16975 -0.28900
C 	C 	0.88860 0.38320 0.11310 0.34600
C 	C 	0.95840 0.38010 0.08370 -0.92400
H 	H 	0.95470 0.40330 0.04890 0.29200
H 	H 	0.99340 0.40280 0.10570 0.31000
H 	H 	0.97130 0.33210 0.07800 0.30100
C 	C 	0.76720 0.37870 0.10622 0.33600
C 	C 	0.70430 0.37130 0.06930 -0.85100
H 	H 	0.69770 0.32290 0.06010 0.25600
H 	H 	0.66350 0.38840 0.08800 0.27000
H 	H 	0.71150 0.39790 0.03630 0.25400
C 	C 	0.75960 0.39020 0.16280 -0.28600
C 	C 	0.81940 0.39640 0.19528 0.18700
C 	C 	0.81500 0.40300 0.25640 -0.04900
C 	C 	0.81470 0.34460 0.28940 -0.03300
H 	H 	0.81570 0.30050 0.27330 0.04000
C 	C 	0.81310 0.34980 0.34540 -0.06200
H 	H 	0.81290 0.30930 0.36660 0.04900
C 	C 	0.81190 0.41180 0.37030 -0.02100
H 	H 	0.81190 0.41440 0.40850 0.03300
C 	C 	0.81060 0.47090 0.34010 -0.06500
H 	H 	0.80800 0.51420 0.35750 0.04500
C 	C 	0.81320 0.46740 0.28180 -0.03000
H 	H 	0.81380 0.50820 0.26100 0.03500
Cd	Cd	0.34083 0.82192 0.49476 1.19800
O 	O 	0.15687 0.84105 0.70092 -0.44200
O 	O 	0.16402 0.95532 0.69663 -0.45100
O 	O 	0.48146 0.84493 0.71653 -0.44200
O 	O 	0.47246 0.95992 0.71515 -0.43600
N 	N 	0.33019 0.87410 0.58216 -0.33100
C 	C 	0.18880 0.89550 0.68777 0.38200
C 	C 	0.45040 0.90040 0.70306 0.37800
C 	C 	0.38450 0.89360 0.66975 -0.28800
C 	C 	0.38860 0.88320 0.61310 0.34600
C 	C 	0.45840 0.88010 0.58370 -0.92400
H 	H 	0.45470 0.90330 0.54890 0.29200
H 	H 	0.49340 0.90280 0.60570 0.30900
H 	H 	0.47130 0.83210 0.57800 0.30100
C 	C 	0.26720 0.87870 0.60622 0.33600
C 	C 	0.20430 0.87130 0.56930 -0.84900
H 	H 	0.19770 0.82290 0.56010 0.25500
H 	H 	0.16350 0.88840 0.58800 0.26900
H 	H 	0.21150 0.89790 0.53630 0.25300
C 	C 	0.25960 0.89020 0.66280 -0.28600
C 	C 	0.31940 0.89640 0.69528 0.18700
C 	C 	0.31500 0.90300 0.75640 -0.04800
C 	C 	0.31470 0.84460 0.78940 -0.03500
H 	H 	0.31570 0.80050 0.77330 0.04100
C 	C 	0.31310 0.84980 0.84540 -0.05900
H 	H 	0.31290 0.80930 0.86660 0.04800
C 	C 	0.31190 0.91180 0.87030 -0.02400
H 	H 	0.31190 0.91440 0.90850 0.03400
C 	C 	0.31060 0.97090 0.84010 -0.06100
H 	H 	0.30800 0.01420 0.85750 0.04300
C 	C 	0.31320 0.96740 0.78180 -0.03200
H 	H 	0.31380 0.00820 0.76100 0.03500
Cd	Cd	0.65917 0.67808 0.49476 1.19800
O 	O 	0.84313 0.65895 0.70092 -0.44200
O 	O 	0.83598 0.54468 0.69663 -0.45100
O 	O 	0.51854 0.65507 0.71653 -0.44200
O 	O 	0.52754 0.54008 0.71515 -0.43700
N 	N 	0.66981 0.62590 0.58216 -0.33100
C 	C 	0.81120 0.60450 0.68777 0.38200
C 	C 	0.54960 0.59960 0.70306 0.37800
C 	C 	0.61550 0.60640 0.66975 -0.28900
C 	C 	0.61140 0.61680 0.61310 0.34600
C 	C 	0.54160 0.61990 0.58370 -0.92400
H 	H 	0.54530 0.59670 0.54890 0.29200
H 	H 	0.50660 0.59720 0.60570 0.31000
H 	H 	0.52870 0.66790 0.57800 0.30100
C 	C 	0.73280 0.62130 0.60622 0.33600
C 	C 	0.79570 0.62870 0.56930 -0.85000
H 	H 	0.80230 0.67710 0.56010 0.25600
H 	H 	0.83650 0.61160 0.58800 0.27000
H 	H 	0.78850 0.60210 0.53630 0.25400
C 	C 	0.74040 0.60980 0.66280 -0.28600
C 	C 	0.68060 0.60360 0.69528 0.18700
C 	C 	0.68500 0.59700 0.75640 -0.04900
C 	C 	0.68530 0.65540 0.78940 -0.03300
H 	H 	0.68430 0.69950 0.77330 0.04100
C 	C 	0.68690 0.65020 0.84540 -0.06200
H 	H 	0.68710 0.69070 0.86660 0.04900
C 	C 	0.68810 0.58820 0.87030 -0.02100
H 	H 	0.68810 0.58560 0.90850 0.03300
C 	C 	0.68940 0.52910 0.84010 -0.06500
H 	H 	0.69200 0.48580 0.85750 0.04500
C 	C 	0.68680 0.53260 0.78180 -0.03000
H 	H 	0.68620 0.49180 0.76100 0.03500
Cd	Cd	0.15917 0.17808 0.99476 1.19700
O 	O 	0.34313 0.15895 0.20092 -0.44200
O 	O 	0.33598 0.04468 0.19663 -0.45000
O 	O 	0.01854 0.15507 0.21653 -0.44200
O 	O 	0.02754 0.04008 0.21515 -0.43600
N 	N 	0.16981 0.12590 0.08216 -0.33100
C 	C 	0.31120 0.10450 0.18777 0.38300
C 	C 	0.04960 0.09960 0.20306 0.37800
C 	C 	0.11550 0.10640 0.16975 -0.28900
C 	C 	0.11140 0.11680 0.11310 0.34800
C 	C 	0.04160 0.11990 0.08370 -0.92800
H 	H 	0.04530 0.09670 0.04890 0.29400
H 	H 	0.00660 0.09720 0.10570 0.31100
H 	H 	0.02870 0.16790 0.07800 0.30200
C 	C 	0.23280 0.12130 0.10622 0.33700
C 	C 	0.29570 0.12870 0.06930 -0.85200
H 	H 	0.30230 0.17710 0.06010 0.25700
H 	H 	0.33650 0.11160 0.08800 0.27100
H 	H 	0.28850 0.10210 0.03630 0.25500
C 	C 	0.24040 0.10980 0.16280 -0.28600
C 	C 	0.18060 0.10360 0.19528 0.18800
C 	C 	0.18500 0.09700 0.25640 -0.05000
C 	C 	0.18530 0.15540 0.28940 -0.03200
H 	H 	0.18430 0.19950 0.27330 0.04000
C 	C 	0.18690 0.15020 0.34540 -0.06100
H 	H 	0.18710 0.19070 0.36660 0.04900
C 	C 	0.18810 0.08820 0.37030 -0.02200
H 	H 	0.18810 0.08560 0.40850 0.03300
C 	C 	0.18940 0.02910 0.34010 -0.06400
H 	H 	0.19200 0.98580 0.35750 0.04300
C 	C 	0.18680 0.03260 0.28180 -0.02700
H 	H 	0.18620 0.99180 0.26100 0.03200
Cd	Cd	0.92808 0.59083 0.74476 1.19800
O 	O 	0.90895 0.40687 0.95092 -0.44200
O 	O 	0.79468 0.41402 0.94663 -0.45100
O 	O 	0.90507 0.73146 0.96653 -0.44200
O 	O 	0.79008 0.72246 0.96515 -0.43600
N 	N 	0.87590 0.58019 0.83216 -0.33100
C 	C 	0.85450 0.43880 0.93777 0.38200
C 	C 	0.84960 0.70040 0.95306 0.37800
C 	C 	0.85640 0.63450 0.91975 -0.28900
C 	C 	0.86680 0.63860 0.86310 0.34600
C 	C 	0.86990 0.70840 0.83370 -0.92400
H 	H 	0.84670 0.70470 0.79890 0.29200
H 	H 	0.84720 0.74340 0.85570 0.31000
H 	H 	0.91790 0.72130 0.82800 0.30100
C 	C 	0.87130 0.51720 0.85622 0.33600
C 	C 	0.87870 0.45430 0.81930 -0.85000
H 	H 	0.92710 0.44770 0.81010 0.25600
H 	H 	0.86160 0.41350 0.83800 0.27000
H 	H 	0.85210 0.46150 0.78630 0.25300
C 	C 	0.85980 0.50960 0.91280 -0.28600
C 	C 	0.85360 0.56940 0.94528 0.18800
C 	C 	0.84700 0.56500 0.00640 -0.04900
C 	C 	0.90540 0.56470 0.03940 -0.03300
H 	H 	0.94950 0.56570 0.02330 0.04100
C 	C 	0.90020 0.56310 0.09540 -0.06200
H 	H 	0.94070 0.56290 0.11660 0.04900
C 	C 	0.83820 0.56190 0.12030 -0.02100
H 	H 	0.83560 0.56190 0.15850 0.03300
C 	C 	0.77910 0.56060 0.09010 -0.06500
H 	H 	0.73580 0.55800 0.10750 0.04500
C 	C 	0.78260 0.56320 0.03180 -0.03000
H 	H 	0.74180 0.56380 0.01100 0.03500
Cd	Cd	0.42808 0.09083 0.24476 1.19800
O 	O 	0.40895 0.90687 0.45092 -0.44200
O 	O 	0.29468 0.91402 0.44663 -0.45100
O 	O 	0.40507 0.23146 0.46653 -0.44200
O 	O 	0.29008 0.22246 0.46515 -0.43700
N 	N 	0.37590 0.08019 0.33216 -0.33100
C 	C 	0.35450 0.93880 0.43777 0.38200
C 	C 	0.34960 0.20040 0.45306 0.37800
C 	C 	0.35640 0.13450 0.41975 -0.28900
C 	C 	0.36680 0.13860 0.36310 0.34600
C 	C 	0.36990 0.20840 0.33370 -0.92400
H 	H 	0.34670 0.20470 0.29890 0.29200
H 	H 	0.34720 0.24340 0.35570 0.31000
H 	H 	0.41790 0.22130 0.32800 0.30100
C 	C 	0.37130 0.01720 0.35622 0.33700
C 	C 	0.37870 0.95430 0.31930 -0.85200
H 	H 	0.42710 0.94770 0.31010 0.25600
H 	H 	0.36160 0.91350 0.33800 0.27000
H 	H 	0.35210 0.96150 0.28630 0.25300
C 	C 	0.35980 0.00960 0.41280 -0.28600
C 	C 	0.35360 0.06940 0.44528 0.18700
C 	C 	0.34700 0.06500 0.50640 -0.04900
C 	C 	0.40540 0.06470 0.53940 -0.03300
H 	H 	0.44950 0.06570 0.52330 0.04000
C 	C 	0.40020 0.06310 0.59540 -0.06200
H 	H 	0.44070 0.06290 0.61660 0.04900
C 	C 	0.33820 0.06190 0.62030 -0.02100
H 	H 	0.33560 0.06190 0.65850 0.03300
C 	C 	0.27910 0.06060 0.59010 -0.06500
H 	H 	0.23580 0.05800 0.60750 0.04500
C 	C 	0.28260 0.06320 0.53180 -0.03000
H 	H 	0.24180 0.06380 0.51100 0.03500
Cd	Cd	0.57192 0.40917 0.24476 1.19800
O 	O 	0.59105 0.59313 0.45092 -0.44200
O 	O 	0.70532 0.58598 0.44663 -0.45100
O 	O 	0.59493 0.26854 0.46653 -0.44200
O 	O 	0.70992 0.27754 0.46515 -0.43700
N 	N 	0.62410 0.41981 0.33216 -0.33100
C 	C 	0.64550 0.56120 0.43777 0.38200
C 	C 	0.65040 0.29960 0.45306 0.37800
C 	C 	0.64360 0.36550 0.41975 -0.28900
C 	C 	0.63320 0.36140 0.36310 0.34600
C 	C 	0.63010 0.29160 0.33370 -0.92400
H 	H 	0.65330 0.29530 0.29890 0.29200
H 	H 	0.65280 0.25660 0.35570 0.31000
H 	H 	0.58210 0.27870 0.32800 0.30100
C 	C 	0.62870 0.48280 0.35622 0.33600
C 	C 	0.62130 0.54570 0.31930 -0.85000
H 	H 	0.57290 0.55230 0.31010 0.25600
H 	H 	0.63840 0.58650 0.33800 0.27000
H 	H 	0.64790 0.53850 0.28630 0.25300
C 	C 	0.64020 0.49040 0.41280 -0.28600
C 	C 	0.64640 0.43060 0.44528 0.18700
C 	C 	0.65300 0.43500 0.50640 -0.04900
C 	C 	0.59460 0.43530 0.53940 -0.03300
H 	H 	0.55050 0.43430 0.52330 0.04000
C 	C 	0.59980 0.43690 0.59540 -0.06200
H 	H 	0.55930 0.43710 0.61660 0.04900
C 	C 	0.66180 0.43810 0.62030 -0.02100
H 	H 	0.66440 0.43810 0.65850 0.03300
C 	C 	0.72090 0.43940 0.59010 -0.06500
H 	H 	0.76420 0.44200 0.60750 0.04500
C 	C 	0.71740 0.43680 0.53180 -0.03000
H 	H 	0.75820 0.43620 0.51100 0.03500
Cd	Cd	0.07192 0.90917 0.74476 1.19700
O 	O 	0.09105 0.09313 0.95092 -0.44200
O 	O 	0.20532 0.08598 0.94663 -0.45100
O 	O 	0.09493 0.76854 0.96653 -0.44200
O 	O 	0.20992 0.77754 0.96515 -0.43600
N 	N 	0.12410 0.91981 0.83216 -0.33100
C 	C 	0.14550 0.06120 0.93777 0.38200
C 	C 	0.15040 0.79960 0.95306 0.37900
C 	C 	0.14360 0.86550 0.91975 -0.28900
C 	C 	0.13320 0.86140 0.86310 0.34600
C 	C 	0.13010 0.79160 0.83370 -0.92400
H 	H 	0.15330 0.79530 0.79890 0.29200
H 	H 	0.15280 0.75660 0.85570 0.31000
H 	H 	0.08210 0.77870 0.82800 0.30100
C 	C 	0.12870 0.98280 0.85622 0.33600
C 	C 	0.12130 0.04570 0.81930 -0.85100
H 	H 	0.07290 0.05230 0.81010 0.25600
H 	H 	0.13840 0.08650 0.83800 0.27000
H 	H 	0.14790 0.03850 0.78630 0.25400
C 	C 	0.14020 0.99040 0.91280 -0.28600
C 	C 	0.14640 0.93060 0.94528 0.19000
C 	C 	0.15300 0.93500 0.00640 -0.05300
C 	C 	0.09460 0.93530 0.03940 -0.03000
H 	H 	0.05050 0.93430 0.02330 0.03800
C 	C 	0.09980 0.93690 0.09540 -0.06600
H 	H 	0.05930 0.93710 0.11660 0.04900
C 	C 	0.16180 0.93810 0.12030 -0.01800
H 	H 	0.16440 0.93810 0.15850 0.03100
C 	C 	0.22090 0.93940 0.09010 -0.06900
H 	H 	0.26420 0.94200 0.10750 0.04500
C 	C 	0.21740 0.93680 0.03180 -0.02700
H 	H 	0.25820 0.93620 0.01100 0.03300
