data_crystal

_cell_length_a 13.76080
_cell_length_b 8.99380
_cell_length_c 16.48340
_cell_angle_alpha 90.00000
_cell_angle_beta  107.16900
_cell_angle_gamma 90.00000

_symmetry_space_group_name_	'P 1'
_symmetry_space_group_name_H-M	'P 1'

loop_
_symmetry_equiv_pos_as_xyz
  x,y,z

loop_
_atom_site_label
_atom_site_type_symbol
_atom_site_fract_x
_atom_site_fract_y
_atom_site_fract_z
_atom_site_charge
C 	C 	0.73750 0.40760 0.27820 0.04700
H 	H 	0.71060 0.32210 0.24820 -0.02300
C 	C 	0.81570 0.48010 0.25830 -0.12400
H 	H 	0.84060 0.44390 0.21540 0.04900
C 	C 	0.85690 0.60670 0.30220 0.00800
H 	H 	0.90910 0.65730 0.28900 -0.02700
C 	C 	0.81950 0.65730 0.36640 -0.06200
C 	C 	0.74040 0.57690 0.38190 0.02200
H 	H 	0.71490 0.61010 0.42510 -0.00100
C 	C 	0.85370 0.79140 0.41750 0.01200
H 	H 	0.81670 0.81990 0.45390 0.00500
C 	C 	0.94560 0.00540 0.47040 -0.00100
H 	H 	0.89860 0.00310 0.50500 0.00400
C 	C 	0.92540 0.14710 0.41600 -0.12200
H 	H 	0.96860 0.14740 0.37890 0.03700
H 	H 	0.85520 0.14760 0.38070 0.04800
C 	C 	0.94590 0.28570 0.47060 -0.08000
H 	H 	0.89860 0.29020 0.50400 0.04100
H 	H 	0.93530 0.37300 0.43450 0.04300
N 	N 	0.69870 0.45560 0.33930 -0.19000
N 	N 	0.92890 0.87210 0.41677 -0.17600
Ag	Ag	0.54768 0.35091 0.34521 0.49200
C 	C 	0.23750 0.90760 0.27820 0.04000
H 	H 	0.21060 0.82210 0.24820 -0.02100
C 	C 	0.31570 0.98010 0.25830 -0.11100
H 	H 	0.34060 0.94390 0.21540 0.04500
C 	C 	0.35690 0.10670 0.30220 -0.00700
H 	H 	0.40910 0.15730 0.28900 -0.02400
C 	C 	0.31950 0.15730 0.36640 -0.05600
C 	C 	0.24040 0.07690 0.38190 0.01200
H 	H 	0.21490 0.11010 0.42510 0.00200
C 	C 	0.35370 0.29140 0.41750 0.00800
H 	H 	0.31670 0.31990 0.45390 0.00500
C 	C 	0.44560 0.50540 0.47040 0.00200
H 	H 	0.39860 0.50310 0.50500 0.00500
C 	C 	0.42540 0.64710 0.41600 -0.12400
H 	H 	0.46860 0.64740 0.37890 0.03800
H 	H 	0.35520 0.64760 0.38070 0.05000
C 	C 	0.44590 0.78570 0.47060 -0.08000
H 	H 	0.39860 0.79020 0.50400 0.04100
H 	H 	0.43530 0.87300 0.43450 0.04400
N 	N 	0.19870 0.95560 0.33930 -0.18500
N 	N 	0.42890 0.37210 0.41677 -0.17800
Ag	Ag	0.04768 0.85091 0.34521 0.49400
C 	C 	0.26250 0.40760 0.72180 0.04600
H 	H 	0.28940 0.32210 0.75180 -0.02400
C 	C 	0.18430 0.48010 0.74170 -0.12500
H 	H 	0.15940 0.44390 0.78460 0.04800
C 	C 	0.14310 0.60670 0.69780 0.00800
H 	H 	0.09090 0.65730 0.71100 -0.02700
C 	C 	0.18050 0.65730 0.63360 -0.06200
C 	C 	0.25960 0.57690 0.61810 0.02200
H 	H 	0.28510 0.61010 0.57490 -0.00100
C 	C 	0.14630 0.79140 0.58250 0.01200
H 	H 	0.18330 0.81990 0.54610 0.00500
C 	C 	0.05440 0.00540 0.52960 -0.00100
H 	H 	0.10140 0.00310 0.49500 0.00400
C 	C 	0.07460 0.14710 0.58400 -0.12200
H 	H 	0.03140 0.14740 0.62110 0.03700
H 	H 	0.14480 0.14760 0.61930 0.04800
C 	C 	0.05410 0.28570 0.52940 -0.08000
H 	H 	0.10140 0.29020 0.49600 0.04100
H 	H 	0.06470 0.37300 0.56550 0.04300
N 	N 	0.30130 0.45560 0.66070 -0.19000
N 	N 	0.07110 0.87210 0.58323 -0.17600
Ag	Ag	0.45232 0.35091 0.65479 0.49200
C 	C 	0.76250 0.90760 0.72180 0.04000
H 	H 	0.78940 0.82210 0.75180 -0.02100
C 	C 	0.68430 0.98010 0.74170 -0.11100
H 	H 	0.65940 0.94390 0.78460 0.04500
C 	C 	0.64310 0.10670 0.69780 -0.00700
H 	H 	0.59090 0.15730 0.71100 -0.02400
C 	C 	0.68050 0.15730 0.63360 -0.05600
C 	C 	0.75960 0.07690 0.61810 0.01200
H 	H 	0.78510 0.11010 0.57490 0.00200
C 	C 	0.64630 0.29140 0.58250 0.00800
H 	H 	0.68330 0.31990 0.54610 0.00500
C 	C 	0.55440 0.50540 0.52960 0.00200
H 	H 	0.60140 0.50310 0.49500 0.00500
C 	C 	0.57460 0.64710 0.58400 -0.12400
H 	H 	0.53140 0.64740 0.62110 0.03800
H 	H 	0.64480 0.64760 0.61930 0.05000
C 	C 	0.55410 0.78570 0.52940 -0.08000
H 	H 	0.60140 0.79020 0.49600 0.04100
H 	H 	0.56470 0.87300 0.56550 0.04400
N 	N 	0.80130 0.95560 0.66070 -0.18500
N 	N 	0.57110 0.37210 0.58323 -0.17800
Ag	Ag	0.95232 0.85091 0.65479 0.49400
