data_crystal

_cell_length_a 13.75800
_cell_length_b 8.18000
_cell_length_c 18.03700
_cell_angle_alpha 90.00000
_cell_angle_beta  106.64700
_cell_angle_gamma 90.00000

_symmetry_space_group_name_	'P 1'
_symmetry_space_group_name_H-M	'P 1'

loop_
_symmetry_equiv_pos_as_xyz
  x,y,z

loop_
_atom_site_label
_atom_site_type_symbol
_atom_site_fract_x
_atom_site_fract_y
_atom_site_fract_z
_atom_site_charge
U 	U 	0.76746 0.07603 0.45994 0.03300
U 	U 	0.91195 0.78605 0.73467 0.03400
P 	P 	0.00490 0.05500 0.60960 0.47300
H 	H 	0.02720 0.12110 0.65670 -0.06700
P 	P 	0.76930 0.15530 0.65780 0.46900
H 	H 	0.83810 0.20010 0.67580 -0.05800
O 	O 	0.92610 0.15730 0.55030 -0.14700
O 	O 	0.95460 0.90330 0.63040 -0.14800
O 	O 	0.09750 0.01780 0.58530 -0.15800
O 	O 	0.73280 0.17700 0.57010 -0.14800
O 	O 	0.69850 0.98810 0.32710 -0.18100
O 	O 	0.77550 0.97520 0.67960 -0.14500
O 	O 	0.70380 0.25300 0.69460 -0.14400
O 	O 	0.48440 0.89260 0.34550 -0.17400
O 	O 	0.57650 0.80880 0.23010 -0.16800
O 	O 	0.58520 0.12210 0.42660 -0.17300
P 	P 	0.49830 0.07390 0.35810 0.52100
H 	H 	0.50960 0.12240 0.31160 -0.06800
P 	P 	0.67840 0.82550 0.28900 0.53600
H 	H 	0.67950 0.74610 0.33000 -0.07500
O 	O 	0.40400 0.15630 0.37260 -0.39200
H 	H 	0.39840 0.12670 0.41460 0.29500
O 	O 	0.76790 0.78300 0.25780 -0.41400
H 	H 	0.79050 0.86650 0.24410 0.30000
U 	U 	0.73254 0.57603 0.04006 0.03300
U 	U 	0.58805 0.28605 0.76533 0.03400
P 	P 	0.49510 0.55500 0.89040 0.47200
H 	H 	0.47280 0.62110 0.84330 -0.06700
P 	P 	0.73070 0.65530 0.84220 0.46900
H 	H 	0.66190 0.70010 0.82420 -0.05800
O 	O 	0.57390 0.65730 0.94970 -0.14700
O 	O 	0.54540 0.40330 0.86960 -0.14900
O 	O 	0.40250 0.51780 0.91470 -0.15800
O 	O 	0.76720 0.67700 0.92990 -0.14900
O 	O 	0.80150 0.48810 0.17290 -0.18100
O 	O 	0.72450 0.47520 0.82040 -0.14500
O 	O 	0.79620 0.75300 0.80540 -0.14400
O 	O 	0.01560 0.39260 0.15450 -0.17400
O 	O 	0.92350 0.30880 0.26990 -0.16800
O 	O 	0.91480 0.62210 0.07340 -0.17200
P 	P 	0.00170 0.57390 0.14190 0.51900
H 	H 	0.99040 0.62240 0.18840 -0.06700
P 	P 	0.82160 0.32550 0.21100 0.53600
H 	H 	0.82050 0.24610 0.17000 -0.07500
O 	O 	0.09600 0.65630 0.12740 -0.39100
H 	H 	0.10160 0.62670 0.08540 0.29500
O 	O 	0.73210 0.28300 0.24220 -0.41400
H 	H 	0.70950 0.36650 0.25590 0.30000
U 	U 	0.23254 0.92397 0.54006 0.03300
U 	U 	0.08805 0.21395 0.26533 0.03400
P 	P 	0.99510 0.94500 0.39040 0.47300
H 	H 	0.97280 0.87890 0.34330 -0.06700
P 	P 	0.23070 0.84470 0.34220 0.46900
H 	H 	0.16190 0.79990 0.32420 -0.05800
O 	O 	0.07390 0.84270 0.44970 -0.14700
O 	O 	0.04540 0.09670 0.36960 -0.14800
O 	O 	0.90250 0.98220 0.41470 -0.15800
O 	O 	0.26720 0.82300 0.42990 -0.14800
O 	O 	0.30150 0.01190 0.67290 -0.18100
O 	O 	0.22450 0.02480 0.32040 -0.14500
O 	O 	0.29620 0.74700 0.30540 -0.14400
O 	O 	0.51560 0.10740 0.65450 -0.17400
O 	O 	0.42350 0.19120 0.76990 -0.16800
O 	O 	0.41480 0.87790 0.57340 -0.17300
P 	P 	0.50170 0.92610 0.64190 0.52100
H 	H 	0.49040 0.87760 0.68840 -0.06800
P 	P 	0.32160 0.17450 0.71100 0.53600
H 	H 	0.32050 0.25390 0.67000 -0.07500
O 	O 	0.59600 0.84370 0.62740 -0.39200
H 	H 	0.60160 0.87330 0.58540 0.29500
O 	O 	0.23210 0.21700 0.74220 -0.41400
H 	H 	0.20950 0.13350 0.75590 0.30000
U 	U 	0.26746 0.42397 0.95994 0.03300
U 	U 	0.41195 0.71395 0.23467 0.03400
P 	P 	0.50490 0.44500 0.10960 0.47200
H 	H 	0.52720 0.37890 0.15670 -0.06700
P 	P 	0.26930 0.34470 0.15780 0.46900
H 	H 	0.33810 0.29990 0.17580 -0.05800
O 	O 	0.42610 0.34270 0.05030 -0.14700
O 	O 	0.45460 0.59670 0.13040 -0.14900
O 	O 	0.59750 0.48220 0.08530 -0.15800
O 	O 	0.23280 0.32300 0.07010 -0.14900
O 	O 	0.19850 0.51190 0.82710 -0.18100
O 	O 	0.27550 0.52480 0.17960 -0.14500
O 	O 	0.20380 0.24700 0.19460 -0.14400
O 	O 	0.98440 0.60740 0.84550 -0.17400
O 	O 	0.07650 0.69120 0.73010 -0.16800
O 	O 	0.08520 0.37790 0.92660 -0.17200
P 	P 	0.99830 0.42610 0.85810 0.51900
H 	H 	0.00960 0.37760 0.81160 -0.06700
P 	P 	0.17840 0.67450 0.78900 0.53600
H 	H 	0.17950 0.75390 0.83000 -0.07500
O 	O 	0.90400 0.34370 0.87260 -0.39100
H 	H 	0.89840 0.37330 0.91460 0.29500
O 	O 	0.26790 0.71700 0.75780 -0.41400
H 	H 	0.29050 0.63350 0.74410 0.30000
