data_crystal

_cell_length_a 19.86200
_cell_length_b 11.64500
_cell_length_c 22.81300
_cell_angle_alpha 90.00000
_cell_angle_beta  90.00000
_cell_angle_gamma 90.00000

_symmetry_space_group_name_	'P 1'
_symmetry_space_group_name_H-M	'P 1'

loop_
_symmetry_equiv_pos_as_xyz
  x,y,z

loop_
_atom_site_label
_atom_site_type_symbol
_atom_site_fract_x
_atom_site_fract_y
_atom_site_fract_z
_atom_site_charge
Zn	Zn	0.08241 0.57661 0.61832 1.19600
O 	O 	0.07305 0.68257 0.53751 -0.39000
O 	O 	0.05825 0.66067 0.44047 -0.25900
O 	O 	0.09746 0.41549 0.66211 -0.38800
O 	O 	0.10072 0.22497 0.64604 -0.24900
O 	O 	0.18658 0.14096 0.52683 -0.44700
O 	O 	0.08076 0.07103 0.53086 -0.28700
O 	O 	0.13139 0.47699 0.36132 -0.23500
O 	O 	0.02137 0.44064 0.36207 -0.39800
N 	N 	0.08479 0.46036 0.55138 -0.22100
N 	N 	0.09457 0.30522 0.46181 -0.09300
N 	N 	0.08405 0.70498 0.67974 -0.26400
N 	N 	0.05826 0.14693 0.88645 -0.21400
H 	H 	0.05420 0.20570 0.91220 0.17000
C 	C 	0.06981 0.62496 0.49081 0.29600
C 	C 	0.07957 0.49638 0.49644 -0.02100
C 	C 	0.08325 0.41701 0.45060 -0.01700
C 	C 	0.07778 0.44974 0.38612 0.33400
C 	C 	0.09803 0.32554 0.62982 0.29400
C 	C 	0.09425 0.35067 0.56419 -0.01500
C 	C 	0.10044 0.27229 0.51816 0.00400
C 	C 	0.12252 0.14889 0.52689 0.33100
C 	C 	0.08766 0.68327 0.73726 0.07400
H 	H 	0.08950 0.60730 0.74970 0.01400
C 	C 	0.08871 0.76919 0.77878 -0.11700
H 	H 	0.09170 0.75070 0.81840 0.08600
C 	C 	0.08523 0.88321 0.76155 0.04800
C 	C 	0.08440 0.90585 0.70147 -0.12200
H 	H 	0.08430 0.98110 0.68780 0.10400
C 	C 	0.08367 0.81497 0.66262 0.07000
H 	H 	0.08290 0.83090 0.62270 0.00000
C 	C 	0.07850 0.97688 0.80526 0.11600
C 	C 	0.07214 0.95114 0.86507 -0.10200
H 	H 	0.07530 0.87550 0.87790 0.08100
C 	C 	0.06126 0.03811 0.90462 0.06200
H 	H 	0.05600 0.02110 0.94420 0.02800
C 	C 	0.06469 0.17538 0.82992 0.14300
H 	H 	0.06230 0.25210 0.81880 0.01100
C 	C 	0.07483 0.09180 0.78818 -0.21800
H 	H 	0.07920 0.11180 0.74890 0.11700
C 	C 	0.23818 0.09632 0.65288 0.06400
H 	H 	0.23030 0.16400 0.63230 -0.00300
C 	C 	0.23718 0.09998 0.71366 -0.12000
H 	H 	0.22800 0.16850 0.73300 0.07900
C 	C 	0.24006 0.10069 0.84304 -0.11700
H 	H 	0.23340 0.17010 0.82370 0.08000
C 	C 	0.24011 0.09708 0.90368 0.06700
H 	H 	0.23300 0.16500 0.92420 -0.00100
Zn	Zn	0.41759 0.42339 0.61832 1.19700
O 	O 	0.42695 0.31743 0.53751 -0.39400
O 	O 	0.44175 0.33933 0.44047 -0.25900
O 	O 	0.40254 0.58451 0.66211 -0.38600
O 	O 	0.39928 0.77503 0.64604 -0.23700
O 	O 	0.31342 0.85904 0.52683 -0.42600
O 	O 	0.41924 0.92897 0.53086 -0.25200
O 	O 	0.36861 0.52301 0.36132 -0.23400
O 	O 	0.47863 0.55936 0.36207 -0.39700
N 	N 	0.41521 0.53964 0.55138 -0.22000
N 	N 	0.40543 0.69478 0.46181 -0.08900
N 	N 	0.41595 0.29502 0.67974 -0.26400
N 	N 	0.44174 0.85307 0.88645 -0.22300
H 	H 	0.44580 0.79430 0.91220 0.17500
C 	C 	0.43019 0.37504 0.49081 0.29600
C 	C 	0.42043 0.50362 0.49644 -0.02100
C 	C 	0.41675 0.58299 0.45060 -0.01700
C 	C 	0.42222 0.55026 0.38612 0.33500
C 	C 	0.40197 0.67446 0.62982 0.29100
C 	C 	0.40575 0.64933 0.56419 -0.01400
C 	C 	0.39956 0.72771 0.51816 0.00800
C 	C 	0.37748 0.85111 0.52689 0.32700
C 	C 	0.41234 0.31673 0.73726 0.07700
H 	H 	0.41050 0.39270 0.74970 0.01300
C 	C 	0.41129 0.23081 0.77878 -0.12500
H 	H 	0.40830 0.24930 0.81840 0.08800
C 	C 	0.41477 0.11679 0.76155 0.05700
C 	C 	0.41560 0.09415 0.70147 -0.13200
H 	H 	0.41570 0.01890 0.68780 0.07900
C 	C 	0.41633 0.18503 0.66262 0.07100
H 	H 	0.41710 0.16910 0.62270 -0.01000
C 	C 	0.42150 0.02312 0.80526 0.05000
C 	C 	0.42786 0.04886 0.86507 -0.20400
H 	H 	0.42470 0.12450 0.87790 0.10700
C 	C 	0.43874 0.96189 0.90462 0.17800
H 	H 	0.44400 0.97890 0.94420 0.01600
C 	C 	0.43531 0.82462 0.82992 0.11500
H 	H 	0.43770 0.74790 0.81880 0.02200
C 	C 	0.42517 0.90820 0.78818 -0.11000
H 	H 	0.42080 0.88820 0.74890 0.09800
C 	C 	0.26182 0.90368 0.65288 0.10300
H 	H 	0.26970 0.83600 0.63230 -0.01000
C 	C 	0.26282 0.90002 0.71366 -0.08700
H 	H 	0.27200 0.83150 0.73300 0.07200
C 	C 	0.25994 0.89931 0.84304 -0.08500
H 	H 	0.26660 0.82990 0.82370 0.07400
C 	C 	0.25989 0.90292 0.90368 0.10400
H 	H 	0.26700 0.83500 0.92420 -0.00700
Zn	Zn	0.91759 0.57661 0.88168 1.19700
O 	O 	0.92695 0.68257 0.96249 -0.38900
O 	O 	0.94175 0.66067 0.05953 -0.25800
O 	O 	0.90254 0.41549 0.83789 -0.38700
O 	O 	0.89928 0.22497 0.85396 -0.24800
O 	O 	0.81342 0.14096 0.97317 -0.44600
O 	O 	0.91924 0.07103 0.96914 -0.28600
O 	O 	0.86861 0.47699 0.13868 -0.23400
O 	O 	0.97863 0.44064 0.13793 -0.39700
N 	N 	0.91521 0.46036 0.94862 -0.22000
N 	N 	0.90543 0.30522 0.03819 -0.09100
N 	N 	0.91595 0.70498 0.82026 -0.26300
N 	N 	0.94174 0.14693 0.61355 -0.21400
H 	H 	0.94580 0.20570 0.58780 0.17000
C 	C 	0.93019 0.62496 0.00919 0.29600
C 	C 	0.92043 0.49638 0.00356 -0.02000
C 	C 	0.91675 0.41701 0.04940 -0.01700
C 	C 	0.92222 0.44974 0.11388 0.33400
C 	C 	0.90197 0.32554 0.87018 0.29400
C 	C 	0.90575 0.35067 0.93581 -0.01500
C 	C 	0.89956 0.27229 0.98184 0.00400
C 	C 	0.87748 0.14889 0.97311 0.33100
C 	C 	0.91234 0.68327 0.76274 0.07400
H 	H 	0.91050 0.60730 0.75030 0.01400
C 	C 	0.91129 0.76919 0.72122 -0.11700
H 	H 	0.90830 0.75070 0.68160 0.08600
C 	C 	0.91477 0.88321 0.73845 0.04800
C 	C 	0.91560 0.90585 0.79853 -0.12200
H 	H 	0.91570 0.98110 0.81220 0.10400
C 	C 	0.91633 0.81497 0.83738 0.07000
H 	H 	0.91710 0.83090 0.87730 0.00000
C 	C 	0.92150 0.97688 0.69474 0.11600
C 	C 	0.92786 0.95114 0.63493 -0.10200
H 	H 	0.92470 0.87550 0.62210 0.08100
C 	C 	0.93874 0.03811 0.59538 0.06200
H 	H 	0.94400 0.02110 0.55580 0.02800
C 	C 	0.93531 0.17538 0.67008 0.14300
H 	H 	0.93770 0.25210 0.68120 0.01100
C 	C 	0.92517 0.09180 0.71182 -0.21800
H 	H 	0.92080 0.11180 0.75110 0.11700
C 	C 	0.76182 0.09632 0.84712 0.06400
H 	H 	0.76970 0.16400 0.86770 -0.00300
C 	C 	0.76282 0.09998 0.78634 -0.12000
H 	H 	0.77200 0.16850 0.76700 0.07900
C 	C 	0.75994 0.10069 0.65696 -0.11700
H 	H 	0.76660 0.17010 0.67630 0.08000
C 	C 	0.75989 0.09708 0.59632 0.06700
H 	H 	0.76700 0.16500 0.57580 -0.00100
Zn	Zn	0.58241 0.42339 0.88168 1.19700
O 	O 	0.57305 0.31743 0.96249 -0.39400
O 	O 	0.55825 0.33933 0.05953 -0.25900
O 	O 	0.59746 0.58451 0.83789 -0.38600
O 	O 	0.60072 0.77503 0.85396 -0.23700
O 	O 	0.68658 0.85904 0.97317 -0.42600
O 	O 	0.58076 0.92897 0.96914 -0.25300
O 	O 	0.63139 0.52301 0.13868 -0.23400
O 	O 	0.52137 0.55936 0.13793 -0.39700
N 	N 	0.58479 0.53964 0.94862 -0.22000
N 	N 	0.59457 0.69478 0.03819 -0.08900
N 	N 	0.58405 0.29502 0.82026 -0.26400
N 	N 	0.55826 0.85307 0.61355 -0.22300
H 	H 	0.55420 0.79430 0.58780 0.17500
C 	C 	0.56981 0.37504 0.00919 0.29600
C 	C 	0.57957 0.50362 0.00356 -0.02100
C 	C 	0.58325 0.58299 0.04940 -0.01700
C 	C 	0.57778 0.55026 0.11388 0.33500
C 	C 	0.59803 0.67446 0.87018 0.29100
C 	C 	0.59425 0.64933 0.93581 -0.01400
C 	C 	0.60044 0.72771 0.98184 0.00800
C 	C 	0.62252 0.85111 0.97311 0.32700
C 	C 	0.58766 0.31673 0.76274 0.07700
H 	H 	0.58950 0.39270 0.75030 0.01300
C 	C 	0.58871 0.23081 0.72122 -0.12500
H 	H 	0.59170 0.24930 0.68160 0.08800
C 	C 	0.58523 0.11679 0.73845 0.05700
C 	C 	0.58440 0.09415 0.79853 -0.13200
H 	H 	0.58430 0.01890 0.81220 0.07900
C 	C 	0.58367 0.18503 0.83738 0.07100
H 	H 	0.58290 0.16910 0.87730 -0.01000
C 	C 	0.57850 0.02312 0.69474 0.05000
C 	C 	0.57214 0.04886 0.63493 -0.20500
H 	H 	0.57530 0.12450 0.62210 0.10800
C 	C 	0.56126 0.96189 0.59538 0.17800
H 	H 	0.55600 0.97890 0.55580 0.01600
C 	C 	0.56469 0.82462 0.67008 0.11500
H 	H 	0.56230 0.74790 0.68120 0.02200
C 	C 	0.57483 0.90820 0.71182 -0.11000
H 	H 	0.57920 0.88820 0.75110 0.09800
C 	C 	0.73818 0.90368 0.84712 0.10200
H 	H 	0.73030 0.83600 0.86770 -0.01000
C 	C 	0.73718 0.90002 0.78634 -0.08700
H 	H 	0.72800 0.83150 0.76700 0.07200
C 	C 	0.74006 0.89931 0.65696 -0.08500
H 	H 	0.73340 0.82990 0.67630 0.07400
C 	C 	0.74011 0.90292 0.59632 0.10400
H 	H 	0.73300 0.83500 0.57580 -0.00700
Zn	Zn	0.91759 0.42339 0.38168 1.19700
O 	O 	0.92695 0.31743 0.46249 -0.39400
O 	O 	0.94175 0.33933 0.55953 -0.25900
O 	O 	0.90254 0.58451 0.33789 -0.38600
O 	O 	0.89928 0.77503 0.35396 -0.23700
O 	O 	0.81342 0.85904 0.47317 -0.42600
O 	O 	0.91924 0.92897 0.46914 -0.25300
O 	O 	0.86861 0.52301 0.63868 -0.23400
O 	O 	0.97863 0.55936 0.63793 -0.39700
N 	N 	0.91521 0.53964 0.44862 -0.22000
N 	N 	0.90543 0.69478 0.53819 -0.08900
N 	N 	0.91595 0.29502 0.32026 -0.26400
N 	N 	0.94174 0.85307 0.11355 -0.22300
H 	H 	0.94580 0.79430 0.08780 0.17500
C 	C 	0.93019 0.37504 0.50919 0.29600
C 	C 	0.92043 0.50362 0.50356 -0.02100
C 	C 	0.91675 0.58299 0.54940 -0.01700
C 	C 	0.92222 0.55026 0.61388 0.33500
C 	C 	0.90197 0.67446 0.37018 0.29100
C 	C 	0.90575 0.64933 0.43581 -0.01400
C 	C 	0.89956 0.72771 0.48184 0.00800
C 	C 	0.87748 0.85111 0.47311 0.32700
C 	C 	0.91234 0.31673 0.26274 0.07700
H 	H 	0.91050 0.39270 0.25030 0.01300
C 	C 	0.91129 0.23081 0.22122 -0.12500
H 	H 	0.90830 0.24930 0.18160 0.08800
C 	C 	0.91477 0.11679 0.23845 0.05700
C 	C 	0.91560 0.09415 0.29853 -0.13200
H 	H 	0.91570 0.01890 0.31220 0.07900
C 	C 	0.91633 0.18503 0.33738 0.07100
H 	H 	0.91710 0.16910 0.37730 -0.01000
C 	C 	0.92150 0.02312 0.19474 0.05100
C 	C 	0.92786 0.04886 0.13493 -0.20400
H 	H 	0.92470 0.12450 0.12210 0.10700
C 	C 	0.93874 0.96189 0.09538 0.17700
H 	H 	0.94400 0.97890 0.05580 0.01700
C 	C 	0.93531 0.82462 0.17008 0.11500
H 	H 	0.93770 0.74790 0.18120 0.02200
C 	C 	0.92517 0.90820 0.21182 -0.11100
H 	H 	0.92080 0.88820 0.25110 0.09800
C 	C 	0.76182 0.90368 0.34712 0.10300
H 	H 	0.76970 0.83600 0.36770 -0.01000
C 	C 	0.76282 0.90002 0.28634 -0.08700
H 	H 	0.77200 0.83150 0.26700 0.07200
C 	C 	0.75994 0.89931 0.15696 -0.08500
H 	H 	0.76660 0.82990 0.17630 0.07400
C 	C 	0.75989 0.90292 0.09632 0.10400
H 	H 	0.76700 0.83500 0.07580 -0.00700
Zn	Zn	0.58241 0.57661 0.38168 1.19700
O 	O 	0.57305 0.68257 0.46249 -0.38900
O 	O 	0.55825 0.66067 0.55953 -0.25800
O 	O 	0.59746 0.41549 0.33789 -0.38700
O 	O 	0.60072 0.22497 0.35396 -0.24800
O 	O 	0.68658 0.14096 0.47317 -0.44600
O 	O 	0.58076 0.07103 0.46914 -0.28600
O 	O 	0.63139 0.47699 0.63868 -0.23400
O 	O 	0.52137 0.44064 0.63793 -0.39700
N 	N 	0.58479 0.46036 0.44862 -0.22000
N 	N 	0.59457 0.30522 0.53819 -0.09200
N 	N 	0.58405 0.70498 0.32026 -0.26300
N 	N 	0.55826 0.14693 0.11355 -0.21400
H 	H 	0.55420 0.20570 0.08780 0.17000
C 	C 	0.56981 0.62496 0.50919 0.29600
C 	C 	0.57957 0.49638 0.50356 -0.02000
C 	C 	0.58325 0.41701 0.54940 -0.01700
C 	C 	0.57778 0.44974 0.61388 0.33400
C 	C 	0.59803 0.32554 0.37018 0.29400
C 	C 	0.59425 0.35067 0.43581 -0.01500
C 	C 	0.60044 0.27229 0.48184 0.00400
C 	C 	0.62252 0.14889 0.47311 0.33100
C 	C 	0.58766 0.68327 0.26274 0.07400
H 	H 	0.58950 0.60730 0.25030 0.01400
C 	C 	0.58871 0.76919 0.22122 -0.11700
H 	H 	0.59170 0.75070 0.18160 0.08600
C 	C 	0.58523 0.88321 0.23845 0.04800
C 	C 	0.58440 0.90585 0.29853 -0.12200
H 	H 	0.58430 0.98110 0.31220 0.10400
C 	C 	0.58367 0.81497 0.33738 0.07000
H 	H 	0.58290 0.83090 0.37730 0.00000
C 	C 	0.57850 0.97688 0.19474 0.11600
C 	C 	0.57214 0.95114 0.13493 -0.10200
H 	H 	0.57530 0.87550 0.12210 0.08100
C 	C 	0.56126 0.03811 0.09538 0.06200
H 	H 	0.55600 0.02110 0.05580 0.02800
C 	C 	0.56469 0.17538 0.17008 0.14400
H 	H 	0.56230 0.25210 0.18120 0.01100
C 	C 	0.57483 0.09180 0.21182 -0.21800
H 	H 	0.57920 0.11180 0.25110 0.11800
C 	C 	0.73818 0.09632 0.34712 0.06400
H 	H 	0.73030 0.16400 0.36770 -0.00300
C 	C 	0.73718 0.09998 0.28634 -0.12000
H 	H 	0.72800 0.16850 0.26700 0.07900
C 	C 	0.74006 0.10069 0.15696 -0.11700
H 	H 	0.73340 0.17010 0.17630 0.08000
C 	C 	0.74011 0.09708 0.09632 0.06700
H 	H 	0.73300 0.16500 0.07580 -0.00100
Zn	Zn	0.08241 0.42339 0.11832 1.19600
O 	O 	0.07305 0.31743 0.03751 -0.39400
O 	O 	0.05825 0.33933 0.94047 -0.25900
O 	O 	0.09746 0.58451 0.16211 -0.38600
O 	O 	0.10072 0.77503 0.14604 -0.23700
O 	O 	0.18658 0.85904 0.02683 -0.42600
O 	O 	0.08076 0.92897 0.03086 -0.25300
O 	O 	0.13139 0.52301 0.86132 -0.23400
O 	O 	0.02137 0.55936 0.86207 -0.39700
N 	N 	0.08479 0.53964 0.05138 -0.22000
N 	N 	0.09457 0.69478 0.96181 -0.08900
N 	N 	0.08405 0.29502 0.17974 -0.26400
N 	N 	0.05826 0.85307 0.38645 -0.22300
H 	H 	0.05420 0.79430 0.41220 0.17500
C 	C 	0.06981 0.37504 0.99081 0.29700
C 	C 	0.07957 0.50362 0.99644 -0.02100
C 	C 	0.08325 0.58299 0.95060 -0.01700
C 	C 	0.07778 0.55026 0.88612 0.33500
C 	C 	0.09803 0.67446 0.12982 0.29100
C 	C 	0.09425 0.64933 0.06419 -0.01400
C 	C 	0.10044 0.72771 0.01816 0.00800
C 	C 	0.12252 0.85111 0.02689 0.32700
C 	C 	0.08766 0.31673 0.23726 0.07700
H 	H 	0.08950 0.39270 0.24970 0.01300
C 	C 	0.08871 0.23081 0.27878 -0.12500
H 	H 	0.09170 0.24930 0.31840 0.08800
C 	C 	0.08523 0.11679 0.26155 0.05700
C 	C 	0.08440 0.09415 0.20147 -0.13200
H 	H 	0.08430 0.01890 0.18780 0.07900
C 	C 	0.08367 0.18503 0.16262 0.07100
H 	H 	0.08290 0.16910 0.12270 -0.01000
C 	C 	0.07850 0.02312 0.30526 0.05100
C 	C 	0.07214 0.04886 0.36507 -0.20400
H 	H 	0.07530 0.12450 0.37790 0.10700
C 	C 	0.06126 0.96189 0.40462 0.17700
H 	H 	0.05600 0.97890 0.44420 0.01600
C 	C 	0.06469 0.82462 0.32992 0.11500
H 	H 	0.06230 0.74790 0.31880 0.02200
C 	C 	0.07483 0.90820 0.28818 -0.11100
H 	H 	0.07920 0.88820 0.24890 0.09800
C 	C 	0.23818 0.90368 0.15288 0.10200
H 	H 	0.23030 0.83600 0.13230 -0.01000
C 	C 	0.23718 0.90002 0.21366 -0.08700
H 	H 	0.22800 0.83150 0.23300 0.07200
C 	C 	0.24006 0.89931 0.34304 -0.08500
H 	H 	0.23340 0.82990 0.32370 0.07400
C 	C 	0.24011 0.90292 0.40368 0.10400
H 	H 	0.23300 0.83500 0.42420 -0.00700
Zn	Zn	0.41759 0.57661 0.11832 1.19700
O 	O 	0.42695 0.68257 0.03751 -0.38900
O 	O 	0.44175 0.66067 0.94047 -0.25800
O 	O 	0.40254 0.41549 0.16211 -0.38700
O 	O 	0.39928 0.22497 0.14604 -0.24800
O 	O 	0.31342 0.14096 0.02683 -0.44600
O 	O 	0.41924 0.07103 0.03086 -0.28600
O 	O 	0.36861 0.47699 0.86132 -0.23400
O 	O 	0.47863 0.44064 0.86207 -0.39700
N 	N 	0.41521 0.46036 0.05138 -0.22000
N 	N 	0.40543 0.30522 0.96181 -0.09200
N 	N 	0.41595 0.70498 0.17974 -0.26300
N 	N 	0.44174 0.14693 0.38645 -0.21400
H 	H 	0.44580 0.20570 0.41220 0.17000
C 	C 	0.43019 0.62496 0.99081 0.29600
C 	C 	0.42043 0.49638 0.99644 -0.02000
C 	C 	0.41675 0.41701 0.95060 -0.01700
C 	C 	0.42222 0.44974 0.88612 0.33400
C 	C 	0.40197 0.32554 0.12982 0.29400
C 	C 	0.40575 0.35067 0.06419 -0.01500
C 	C 	0.39956 0.27229 0.01816 0.00400
C 	C 	0.37748 0.14889 0.02689 0.33100
C 	C 	0.41234 0.68327 0.23726 0.07400
H 	H 	0.41050 0.60730 0.24970 0.01400
C 	C 	0.41129 0.76919 0.27878 -0.11700
H 	H 	0.40830 0.75070 0.31840 0.08600
C 	C 	0.41477 0.88321 0.26155 0.04800
C 	C 	0.41560 0.90585 0.20147 -0.12200
H 	H 	0.41570 0.98110 0.18780 0.10400
C 	C 	0.41633 0.81497 0.16262 0.07000
H 	H 	0.41710 0.83090 0.12270 0.00000
C 	C 	0.42150 0.97688 0.30526 0.11600
C 	C 	0.42786 0.95114 0.36507 -0.10100
H 	H 	0.42470 0.87550 0.37790 0.08100
C 	C 	0.43874 0.03811 0.40462 0.06100
H 	H 	0.44400 0.02110 0.44420 0.02800
C 	C 	0.43531 0.17538 0.32992 0.14400
H 	H 	0.43770 0.25210 0.31880 0.01100
C 	C 	0.42517 0.09180 0.28818 -0.21800
H 	H 	0.42080 0.11180 0.24890 0.11800
C 	C 	0.26182 0.09632 0.15288 0.06400
H 	H 	0.26970 0.16400 0.13230 -0.00300
C 	C 	0.26282 0.09998 0.21366 -0.12000
H 	H 	0.27200 0.16850 0.23300 0.07900
C 	C 	0.25994 0.10069 0.34304 -0.11700
H 	H 	0.26660 0.17010 0.32370 0.08000
C 	C 	0.25989 0.09708 0.40368 0.06700
H 	H 	0.26700 0.16500 0.42420 -0.00100
Zn	Zn	0.25000 0.00000 0.52911 1.17500
N 	N 	0.25000 0.00000 0.62225 -0.27700
N 	N 	0.25000 0.00000 0.93419 -0.26800
C 	C 	0.25000 0.00000 0.74548 0.02000
C 	C 	0.25000 0.00000 0.81083 0.02000
Zn	Zn	0.75000 0.00000 0.97089 1.17500
N 	N 	0.75000 0.00000 0.87775 -0.27700
N 	N 	0.75000 0.00000 0.56581 -0.26900
C 	C 	0.75000 0.00000 0.75452 0.02000
C 	C 	0.75000 0.00000 0.68917 0.02000
Zn	Zn	0.75000 0.00000 0.47089 1.17500
N 	N 	0.75000 0.00000 0.37775 -0.27700
N 	N 	0.75000 0.00000 0.06581 -0.26800
C 	C 	0.75000 0.00000 0.25452 0.02000
C 	C 	0.75000 0.00000 0.18917 0.02000
Zn	Zn	0.25000 0.00000 0.02911 1.17500
N 	N 	0.25000 -0.00000 0.12225 -0.27700
N 	N 	0.25000 0.00000 0.43419 -0.26900
C 	C 	0.25000 0.00000 0.24548 0.02000
C 	C 	0.25000 0.00000 0.31083 0.02000
