data_crystal

_cell_length_a 12.32630
_cell_length_b 20.70180
_cell_length_c 18.25170
_cell_angle_alpha 90.00000
_cell_angle_beta  91.64200
_cell_angle_gamma 90.00000

_symmetry_space_group_name_	'P 1'
_symmetry_space_group_name_H-M	'P 1'

loop_
_symmetry_equiv_pos_as_xyz
  x,y,z

loop_
_atom_site_label
_atom_site_type_symbol
_atom_site_fract_x
_atom_site_fract_y
_atom_site_fract_z
_atom_site_charge
C 	C 	0.41630 0.18490 0.96010 -0.02800
N 	N 	0.17400 0.31960 0.91910 -0.03600
N 	N 	0.32290 0.21850 0.93910 -0.09000
N 	N 	0.46530 0.28210 0.92060 -0.12500
C 	C 	0.28030 0.32380 0.88290 -0.18600
C 	C 	0.62370 0.31030 0.79250 -0.31600
H 	H 	0.65300 0.27510 0.81780 0.14800
C 	C 	0.50700 0.22410 0.94780 0.13700
C 	C 	0.52930 0.34070 0.90690 -0.27000
C 	C 	0.61180 0.20370 0.96390 -0.24700
C 	C 	0.62450 0.14260 0.99190 0.20900
C 	C 	0.55400 0.35100 0.82690 0.24700
C 	C 	0.18320 0.35690 0.98920 -0.07600
H 	H 	0.25460 0.35020 0.01160 0.04500
H 	H 	0.17500 0.40270 0.97890 0.05600
C 	C 	0.53460 0.10280 0.00460 -0.31900
C 	C 	0.51060 0.40150 0.78890 -0.28300
H 	H 	0.46370 0.42960 0.81200 0.11800
C 	C 	0.65110 0.32090 0.72080 0.25700
C 	C 	0.08650 0.34460 0.87070 -0.16800
H 	H 	0.10900 0.38490 0.84860 0.08000
H 	H 	0.02250 0.35310 0.89900 0.09300
C 	C 	0.35620 0.27540 0.91550 0.15500
C 	C 	0.42980 0.12310 0.98910 0.15000
N 	N 	0.08110 0.36910 0.10340 -0.10300
C 	C 	0.60540 0.37070 0.68140 -0.27800
C 	C 	0.63280 0.37930 0.60190 0.49800
C 	C 	0.53540 0.41210 0.71510 0.17000
N 	N 	0.03650 0.28510 0.03260 -0.14000
C 	C 	0.09880 0.33620 0.04080 0.10300
O 	O 	0.70320 0.34340 0.57610 -0.29700
O 	O 	0.58250 0.42110 0.56610 -0.55200
N 	N 	0.00120 0.31020 0.75000 -0.17800
N 	N 	0.09100 0.23500 0.81460 -0.09600
C 	C 	0.05230 0.41680 0.69970 0.22300
C 	C 	0.20300 0.41210 0.20200 0.21400
C 	C 	0.21370 0.49770 0.64670 -0.26100
C 	C 	0.05990 0.29590 0.81180 0.14800
O 	O 	0.40330 0.32160 0.42140 -0.29400
C 	C 	0.15170 0.39250 0.68120 -0.42100
C 	C 	0.96200 0.37420 0.72760 -0.13700
C 	C 	0.04970 0.20720 0.74980 -0.07600
C 	C 	0.99400 0.25460 0.70850 0.26000
C 	C 	0.37650 0.37790 0.40550 0.49200
C 	C 	0.11420 0.52250 0.66550 0.17900
H 	H 	0.10150 0.56660 0.66080 -0.02200
C 	C 	0.97290 0.28350 0.09400 0.14800
C 	C 	0.00000 0.33590 0.13870 -0.04100
C 	C 	0.23220 0.43170 0.65430 0.22400
C 	C 	0.03320 0.48300 0.69140 -0.27100
C 	C 	0.94800 0.24030 0.63970 -0.53500
C 	C 	0.31650 0.38990 0.33500 -0.25500
C 	C 	0.23450 0.46350 0.24700 -0.31400
C 	C 	0.28920 0.45190 0.31340 0.20400
H 	H 	0.30770 0.48650 0.34380 -0.04600
C 	C 	0.94990 0.34710 0.20530 0.01500
C 	C 	0.89210 0.24080 0.11450 -0.16100
H 	H 	0.87210 0.20550 0.08550 0.10000
C 	C 	0.95710 0.17860 0.61510 0.32300
C 	C 	0.00890 0.13160 0.65580 -0.29300
H 	H 	0.01170 0.08980 0.63730 0.11400
C 	C 	0.23370 0.35100 0.22310 -0.25300
H 	H 	0.21710 0.31640 0.19230 0.13300
C 	C 	0.05720 0.14440 0.72390 0.09900
C 	C 	0.28840 0.33960 0.28880 0.15600
C 	C 	0.13920 0.42590 0.13200 -0.20400
H 	H 	0.08720 0.46000 0.14090 0.08200
H 	H 	0.18830 0.44130 0.09530 0.07900
C 	C 	0.84320 0.25350 0.17980 0.05600
H 	H 	0.78810 0.22610 0.19450 0.00300
C 	C 	0.87200 0.30520 0.22510 -0.09300
O 	O 	0.28680 0.60050 0.62610 -0.28300
O 	O 	0.37960 0.51570 0.58840 -0.54800
O 	O 	0.39580 0.42510 0.44580 -0.56600
C 	C 	0.29910 0.54110 0.61790 0.46800
H 	H 	0.36700 0.09600 0.00100 -0.02100
H 	H 	0.53800 0.06200 0.01700 0.14200
H 	H 	0.95800 0.49600 0.70100 0.12300
H 	H 	0.31000 0.35900 0.88400 0.10700
H 	H 	0.59500 0.33800 0.93700 0.12000
H 	H 	0.90500 0.36500 0.69000 0.07600
H 	H 	0.92000 0.27100 0.62300 0.29900
H 	H 	0.95400 0.38700 0.23000 0.03800
H 	H 	0.47700 0.37100 0.91500 0.12200
H 	H 	0.93000 0.39800 0.77300 0.06500
H 	H 	0.32100 0.29400 0.30600 0.00200
H 	H 	0.08400 0.11600 0.75600 0.00800
H 	H 	0.16500 0.35500 0.68500 0.22200
H 	H 	0.92800 0.15800 0.56700 -0.06500
H 	H 	0.85000 0.30700 0.27700 0.07900
H 	H 	0.22900 0.50300 0.23000 0.14200
H 	H 	0.30400 0.41400 0.63400 -0.03800
H 	H 	0.66700 0.23200 0.95800 0.13200
H 	H 	0.70500 0.12800 0.01500 -0.03600
H 	H 	0.69400 0.29400 0.70500 -0.06900
H 	H 	0.25600 0.31700 0.82200 0.07500
H 	H 	0.48900 0.43800 0.67400 -0.01600
C 	C 	0.58370 0.81510 0.03990 0.11100
N 	N 	0.82600 0.68040 0.08090 -0.02100
N 	N 	0.67710 0.78150 0.06090 -0.11800
N 	N 	0.53470 0.71790 0.07940 -0.10900
C 	C 	0.71970 0.67620 0.11710 -0.19100
C 	C 	0.37630 0.68970 0.20750 -0.31100
H 	H 	0.34700 0.72490 0.18220 0.14600
C 	C 	0.49300 0.77590 0.05220 0.01200
C 	C 	0.47070 0.65930 0.09310 -0.26600
C 	C 	0.38820 0.79630 0.03610 -0.04000
C 	C 	0.37550 0.85740 0.00810 -0.09900
C 	C 	0.44600 0.64900 0.17310 0.24100
C 	C 	0.81680 0.64310 0.01080 -0.24900
H 	H 	0.74540 0.64980 0.98840 0.12800
H 	H 	0.82500 0.59730 0.02110 0.09400
C 	C 	0.46540 0.89720 0.99540 0.09100
C 	C 	0.48940 0.59850 0.21110 -0.27900
H 	H 	0.53630 0.57040 0.18800 0.11500
C 	C 	0.34890 0.67910 0.27920 0.25000
C 	C 	0.91350 0.65540 0.12930 -0.17300
H 	H 	0.89100 0.61510 0.15140 0.08400
H 	H 	0.97750 0.64690 0.10100 0.09800
C 	C 	0.64380 0.72460 0.08450 0.14600
C 	C 	0.57020 0.87690 0.01090 -0.18300
N 	N 	0.91890 0.63090 0.89660 -0.11400
C 	C 	0.39460 0.62930 0.31860 -0.27400
C 	C 	0.36720 0.62070 0.39810 0.49500
C 	C 	0.46460 0.58790 0.28490 0.16600
N 	N 	0.96350 0.71490 0.96740 -0.11000
C 	C 	0.90120 0.66380 0.95920 0.18700
O 	O 	0.29680 0.65660 0.42390 -0.29400
O 	O 	0.41750 0.57890 0.43390 -0.55200
N 	N 	0.99880 0.68980 0.25000 -0.10500
N 	N 	0.90900 0.76500 0.18540 -0.11800
C 	C 	0.94770 0.58320 0.30030 0.27000
C 	C 	0.79700 0.58790 0.79800 0.22100
C 	C 	0.78630 0.50230 0.35330 -0.26000
C 	C 	0.94010 0.70410 0.18820 0.15100
O 	O 	0.59670 0.67840 0.57860 -0.29300
C 	C 	0.84830 0.60750 0.31880 -0.46000
C 	C 	0.03800 0.62580 0.27240 -0.22700
C 	C 	0.95030 0.79280 0.25020 0.09200
C 	C 	0.00600 0.74540 0.29150 0.04000
C 	C 	0.62350 0.62210 0.59450 0.49300
C 	C 	0.88580 0.47750 0.33450 0.16000
H 	H 	0.89850 0.43340 0.33920 -0.00800
C 	C 	0.02710 0.71650 0.90600 0.06600
C 	C 	0.00000 0.66410 0.86130 0.02500
C 	C 	0.76780 0.56830 0.34570 0.24000
C 	C 	0.96680 0.51700 0.30860 -0.22300
C 	C 	0.05200 0.75970 0.36030 -0.19200
C 	C 	0.68350 0.61010 0.66500 -0.25500
C 	C 	0.76550 0.53650 0.75300 -0.31700
C 	C 	0.71080 0.54810 0.68660 0.20800
H 	H 	0.69230 0.51350 0.65620 -0.04600
C 	C 	0.05010 0.65290 0.79470 -0.06700
C 	C 	0.10790 0.75920 0.88550 -0.09600
H 	H 	0.12790 0.79450 0.91450 0.08000
C 	C 	0.04290 0.82140 0.38490 0.02000
C 	C 	0.99110 0.86840 0.34420 -0.01000
H 	H 	0.98830 0.91020 0.36270 0.04000
C 	C 	0.76630 0.64900 0.77690 -0.25400
H 	H 	0.78290 0.68360 0.80770 0.13500
C 	C 	0.94280 0.85560 0.27610 -0.11100
C 	C 	0.71160 0.66040 0.71120 0.15900
C 	C 	0.86080 0.57410 0.86800 -0.20500
H 	H 	0.91280 0.54000 0.85910 0.09600
H 	H 	0.81170 0.55870 0.90470 0.08900
C 	C 	0.15680 0.74650 0.82020 -0.00900
H 	H 	0.21190 0.77390 0.80550 0.03000
C 	C 	0.12800 0.69480 0.77490 -0.03400
O 	O 	0.71320 0.39950 0.37390 -0.28400
O 	O 	0.62040 0.48430 0.41160 -0.54800
O 	O 	0.60420 0.57490 0.55420 -0.56500
C 	C 	0.70090 0.45890 0.38210 0.46800
H 	H 	0.63300 0.90400 0.99900 0.12500
H 	H 	0.46200 0.93800 0.98300 0.01200
H 	H 	0.04200 0.50400 0.29900 0.08400
H 	H 	0.69000 0.64100 0.11600 0.10500
H 	H 	0.40500 0.66200 0.06300 0.11100
H 	H 	0.09500 0.63500 0.31000 0.10100
H 	H 	0.08000 0.72900 0.37700 0.13700
H 	H 	0.04600 0.61300 0.77000 0.05600
H 	H 	0.52300 0.62900 0.08500 0.11200
H 	H 	0.07000 0.60200 0.22700 0.07300
H 	H 	0.67900 0.70600 0.69400 0.00200
H 	H 	0.91600 0.88400 0.24400 0.10000
H 	H 	0.83500 0.64500 0.31500 0.24500
H 	H 	0.07200 0.84200 0.43300 0.01600
H 	H 	0.15000 0.69300 0.72300 0.05800
H 	H 	0.77100 0.49700 0.77000 0.14700
H 	H 	0.69600 0.58600 0.36600 -0.04300
H 	H 	0.33300 0.76800 0.04200 0.04700
H 	H 	0.29500 0.87200 0.98500 0.07300
H 	H 	0.30600 0.70600 0.29500 -0.06500
H 	H 	0.74400 0.68300 0.17800 0.07700
H 	H 	0.51100 0.56200 0.32600 -0.01600
Tb	Tb	0.50000 0.50000 0.50000 2.24700
C 	C 	0.08370 0.68490 0.53990 0.03400
N 	N 	0.32600 0.81960 0.58090 -0.02600
N 	N 	0.17710 0.71850 0.56090 -0.10500
N 	N 	0.03470 0.78210 0.57940 -0.14700
C 	C 	0.21970 0.82380 0.61710 -0.19500
C 	C 	0.87630 0.81030 0.70750 -0.25100
H 	H 	0.84700 0.77510 0.68220 0.12600
C 	C 	0.99300 0.72410 0.55220 0.10500
C 	C 	0.97070 0.84070 0.59310 -0.16200
C 	C 	0.88820 0.70370 0.53610 -0.14300
C 	C 	0.87550 0.64260 0.50810 0.03600
C 	C 	0.94600 0.85100 0.67310 0.18200
C 	C 	0.31680 0.85690 0.51080 -0.17500
H 	H 	0.24540 0.85020 0.48840 0.09200
H 	H 	0.32500 0.90270 0.52110 0.08200
C 	C 	0.96540 0.60280 0.49540 -0.06000
C 	C 	0.98940 0.90150 0.71110 -0.20300
H 	H 	0.03630 0.92960 0.68800 0.08600
C 	C 	0.84890 0.82090 0.77920 0.19500
C 	C 	0.41350 0.84460 0.62930 -0.17500
H 	H 	0.39100 0.88490 0.65140 0.08600
H 	H 	0.47750 0.85310 0.60100 0.09900
C 	C 	0.14380 0.77540 0.58450 0.15400
C 	C 	0.07020 0.62310 0.51090 -0.06000
N 	N 	0.41890 0.86910 0.39660 -0.12300
C 	C 	0.89460 0.87070 0.81860 -0.23300
C 	C 	0.86720 0.87930 0.89810 0.47000
C 	C 	0.96460 0.91210 0.78490 0.14900
N 	N 	0.46350 0.78510 0.46740 -0.12000
C 	C 	0.40120 0.83620 0.45920 0.15400
O 	O 	0.79680 0.84340 0.92390 -0.27800
O 	O 	0.91750 0.92110 0.93390 -0.49400
N 	N 	0.49880 0.81020 0.75000 -0.14900
N 	N 	0.40900 0.73500 0.68540 -0.10700
C 	C 	0.44770 0.91680 0.80030 0.14300
C 	C 	0.29700 0.91210 0.29800 0.14000
C 	C 	0.28630 0.99770 0.85330 -0.10100
C 	C 	0.44010 0.79590 0.68820 0.15300
O 	O 	0.09670 0.82160 0.07860 -0.29600
C 	C 	0.34830 0.89250 0.81880 -0.28800
C 	C 	0.53800 0.87420 0.77240 -0.13000
C 	C 	0.45030 0.70720 0.75020 0.00400
C 	C 	0.50600 0.75460 0.79150 0.15900
C 	C 	0.12350 0.87790 0.09450 0.45700
C 	C 	0.38580 0.02250 0.83450 -0.01900
H 	H 	0.39850 0.06660 0.83920 0.04500
C 	C 	0.52710 0.78350 0.40600 0.07500
C 	C 	0.50000 0.83590 0.36130 0.04400
C 	C 	0.26780 0.93170 0.84570 0.11300
C 	C 	0.46680 0.98300 0.80860 -0.10000
C 	C 	0.55200 0.74030 0.86030 -0.37400
C 	C 	0.18350 0.88990 0.16500 -0.19600
C 	C 	0.26550 0.96350 0.25300 -0.15500
C 	C 	0.21080 0.95190 0.18660 0.10300
H 	H 	0.19230 0.98650 0.15620 0.00300
C 	C 	0.55010 0.84710 0.29470 -0.07100
C 	C 	0.60790 0.74080 0.38550 -0.09800
H 	H 	0.62790 0.70550 0.41450 0.07900
C 	C 	0.54290 0.67860 0.88490 0.18200
C 	C 	0.49110 0.63160 0.84420 -0.15800
H 	H 	0.48830 0.58980 0.86270 0.08200
C 	C 	0.26630 0.85100 0.27690 -0.19400
H 	H 	0.28290 0.81640 0.30770 0.11300
C 	C 	0.44280 0.64440 0.77610 0.00100
C 	C 	0.21160 0.83960 0.21120 0.10800
C 	C 	0.36080 0.92590 0.36800 -0.16000
H 	H 	0.41280 0.96000 0.35910 0.08500
H 	H 	0.31170 0.94130 0.40470 0.07700
C 	C 	0.65680 0.75350 0.32020 -0.00600
H 	H 	0.71190 0.72610 0.30550 0.02700
C 	C 	0.62800 0.80520 0.27490 -0.02900
O 	O 	0.21320 0.10050 0.87390 -0.25800
O 	O 	0.12040 0.01570 0.91160 -0.50900
O 	O 	0.10420 0.92510 0.05420 -0.53200
C 	C 	0.20090 0.04110 0.88210 0.38600
H 	H 	0.13300 0.59600 0.49900 0.06400
H 	H 	0.96200 0.56200 0.48300 0.06200
H 	H 	0.54200 0.99600 0.79900 0.07000
H 	H 	0.19000 0.85900 0.61600 0.11000
H 	H 	0.90500 0.83800 0.56300 0.08800
H 	H 	0.59500 0.86500 0.81000 0.07500
H 	H 	0.58000 0.77100 0.87700 0.22600
H 	H 	0.54600 0.88700 0.27000 0.06700
H 	H 	0.02300 0.87100 0.58500 0.07200
H 	H 	0.57000 0.89800 0.72700 0.05900
H 	H 	0.17900 0.79400 0.19400 0.01200
H 	H 	0.41600 0.61600 0.74400 0.05100
H 	H 	0.33500 0.85500 0.81500 0.16700
H 	H 	0.57200 0.65800 0.93300 -0.02300
H 	H 	0.65000 0.80700 0.22300 0.06000
H 	H 	0.27100 0.00300 0.27000 0.05700
H 	H 	0.19600 0.91400 0.86600 -0.00100
H 	H 	0.83300 0.73200 0.54200 0.09200
H 	H 	0.79500 0.62800 0.48500 0.02400
H 	H 	0.80600 0.79400 0.79500 -0.04100
H 	H 	0.24400 0.81700 0.67800 0.07700
H 	H 	0.01100 0.93800 0.82600 -0.01200
C 	C 	0.91630 0.31510 0.46010 0.06700
N 	N 	0.67400 0.18040 0.41910 -0.03000
N 	N 	0.82290 0.28150 0.43910 -0.10800
N 	N 	0.96530 0.21790 0.42060 -0.08400
C 	C 	0.78030 0.17620 0.38290 -0.18300
C 	C 	0.12370 0.18970 0.29250 -0.36400
H 	H 	0.15300 0.22490 0.31780 0.16400
C 	C 	0.00700 0.27590 0.44780 0.02600
C 	C 	0.02930 0.15930 0.40690 -0.38200
C 	C 	0.11180 0.29630 0.46390 -0.12000
C 	C 	0.12450 0.35740 0.49190 0.03900
C 	C 	0.05400 0.14900 0.32690 0.30200
C 	C 	0.68320 0.14310 0.48920 -0.16900
H 	H 	0.75460 0.14980 0.51160 0.09000
H 	H 	0.67500 0.09730 0.47890 0.07200
C 	C 	0.03460 0.39720 0.50460 -0.12200
C 	C 	0.01060 0.09850 0.28890 -0.35600
H 	H 	0.96370 0.07040 0.31200 0.14900
C 	C 	0.15110 0.17910 0.22080 0.29300
C 	C 	0.58650 0.15540 0.37070 -0.16600
H 	H 	0.60900 0.11510 0.34860 0.07700
H 	H 	0.52250 0.14690 0.39900 0.09100
C 	C 	0.85620 0.22460 0.41550 0.14500
C 	C 	0.92980 0.37690 0.48910 -0.01500
N 	N 	0.58110 0.13090 0.60340 -0.11500
C 	C 	0.10540 0.12930 0.18140 -0.29700
C 	C 	0.13280 0.12070 0.10190 0.48900
C 	C 	0.03540 0.08790 0.21510 0.16900
N 	N 	0.53650 0.21490 0.53260 -0.12000
C 	C 	0.59880 0.16380 0.54080 0.14600
O 	O 	0.20320 0.15660 0.07610 -0.30200
O 	O 	0.08250 0.07890 0.06610 -0.54700
N 	N 	0.50120 0.18980 0.25000 -0.13400
N 	N 	0.59100 0.26500 0.31460 -0.10700
C 	C 	0.55230 0.08320 0.19970 0.35500
C 	C 	0.70300 0.08790 0.70200 0.26900
C 	C 	0.71370 0.00230 0.14670 -0.42200
C 	C 	0.55990 0.20410 0.31180 0.14500
O 	O 	0.90330 0.17840 0.92140 -0.27700
C 	C 	0.65170 0.10750 0.18120 -0.59800
C 	C 	0.46200 0.12580 0.22760 -0.23400
C 	C 	0.54970 0.29280 0.24980 0.01100
C 	C 	0.49400 0.24540 0.20850 0.14300
C 	C 	0.87650 0.12210 0.90550 0.49100
C 	C 	0.61420 0.97750 0.16550 0.37400
H 	H 	0.60150 0.93340 0.16080 -0.08000
C 	C 	0.47290 0.21650 0.59400 0.07700
C 	C 	0.50000 0.16410 0.63870 0.03300
C 	C 	0.73220 0.06830 0.15430 0.35300
C 	C 	0.53320 0.01700 0.19140 -0.40900
C 	C 	0.44800 0.25970 0.13970 -0.35400
C 	C 	0.81650 0.11010 0.83500 -0.28000
C 	C 	0.73450 0.03650 0.74700 -0.43200
C 	C 	0.78920 0.04810 0.81340 0.27100
H 	H 	0.80770 0.01350 0.84380 -0.07400
C 	C 	0.44990 0.15290 0.70530 -0.06500
C 	C 	0.39210 0.25920 0.61450 -0.10400
H 	H 	0.37210 0.29450 0.58550 0.08000
C 	C 	0.45710 0.32140 0.11510 0.16100
C 	C 	0.50890 0.36840 0.15580 -0.14600
H 	H 	0.51170 0.41020 0.13730 0.07200
C 	C 	0.73370 0.14900 0.72310 -0.29000
H 	H 	0.71710 0.18360 0.69230 0.14600
C 	C 	0.55720 0.35560 0.22390 -0.01200
C 	C 	0.78840 0.16040 0.78880 0.18600
C 	C 	0.63920 0.07410 0.63200 -0.22800
H 	H 	0.58720 0.04000 0.64090 0.08700
H 	H 	0.68830 0.05870 0.59530 0.08700
C 	C 	0.34320 0.24650 0.67980 -0.00200
H 	H 	0.28810 0.27390 0.69450 0.02500
C 	C 	0.37200 0.19480 0.72510 -0.03900
O 	O 	0.78680 0.89950 0.12610 -0.29600
O 	O 	0.87960 0.98430 0.08840 -0.51600
O 	O 	0.89580 0.07490 0.94580 -0.52400
C 	C 	0.79910 0.95890 0.11790 0.53100
H 	H 	0.86700 0.40400 0.50100 0.05400
H 	H 	0.03800 0.43800 0.51700 0.07400
H 	H 	0.45800 0.00400 0.20100 0.14000
H 	H 	0.81000 0.14100 0.38400 0.10200
H 	H 	0.09500 0.16200 0.43700 0.14500
H 	H 	0.40500 0.13500 0.19000 0.10200
H 	H 	0.42000 0.22900 0.12300 0.20900
H 	H 	0.45400 0.11300 0.73000 0.05400
H 	H 	0.97700 0.12900 0.41500 0.16600
H 	H 	0.43000 0.10200 0.27300 0.08000
H 	H 	0.82100 0.20600 0.80600 -0.00200
H 	H 	0.58400 0.38400 0.25600 0.05500
H 	H 	0.66500 0.14500 0.18500 0.30400
H 	H 	0.42800 0.34200 0.06700 -0.02700
H 	H 	0.35000 0.19300 0.77700 0.05900
H 	H 	0.72900 0.99700 0.73000 0.21200
H 	H 	0.80400 0.08600 0.13400 -0.07600
H 	H 	0.16700 0.26800 0.45800 0.07900
H 	H 	0.20500 0.37200 0.51500 0.02200
H 	H 	0.19400 0.20600 0.20500 -0.08400
H 	H 	0.75600 0.18300 0.32200 0.07500
H 	H 	0.98900 0.06200 0.17400 -0.00600
Tb	Tb	-0.00000 0.00000 -0.00000 2.03300
