data_crystal

_cell_length_a 12.31600
_cell_length_b 20.86230
_cell_length_c 18.22670
_cell_angle_alpha 90.00000
_cell_angle_beta  91.68900
_cell_angle_gamma 90.00000

_symmetry_space_group_name_	'P 1'
_symmetry_space_group_name_H-M	'P 1'

loop_
_symmetry_equiv_pos_as_xyz
  x,y,z

loop_
_atom_site_label
_atom_site_type_symbol
_atom_site_fract_x
_atom_site_fract_y
_atom_site_fract_z
_atom_site_charge
H 	H 	0.65500 0.68800 0.72900 0.07300
H 	H 	0.00200 0.56900 0.32300 -0.04800
H 	H 	0.80200 0.71000 0.30300 -0.00900
H 	H 	0.58000 0.84600 0.43700 0.16700
H 	H 	0.82800 0.77000 0.04800 0.01600
H 	H 	0.13300 0.90400 0.00200 0.11800
H 	H 	0.85000 0.73500 0.18400 0.09300
H 	H 	0.02300 0.57700 0.18600 0.15600
H 	H 	0.81100 0.86700 0.98900 0.15700
H 	H 	0.95300 0.94100 0.98200 -0.01800
H 	H 	0.28300 0.69200 0.81400 0.07100
H 	H 	0.42900 0.88000 0.24800 0.75100
H 	H 	0.53900 0.61700 0.76000 0.04800
H 	H 	0.50000 0.90400 0.36600 -0.40900
H 	H 	0.72400 0.78400 0.79600 0.01800
C 	C 	0.50490 0.74620 0.29410 -0.26600
C 	C 	0.89220 0.63050 0.31970 -0.24400
C 	C 	0.86360 0.62220 0.39860 0.47300
C 	C 	0.55190 0.76020 0.36300 0.33900
H 	H 	0.58650 0.72870 0.39130 -0.06200
C 	C 	0.62440 0.69360 0.77560 -0.07200
C 	C 	0.29450 0.58770 0.80020 0.12600
C 	C 	0.21760 0.67810 0.11920 -0.16900
H 	H 	0.18710 0.63550 0.11220 0.07300
H 	H 	0.22710 0.68570 0.17140 0.09300
C 	C 	0.44550 0.58430 0.30130 0.17800
C 	C 	0.95990 0.58910 0.28500 0.21000
C 	C 	0.84890 0.68200 0.28130 0.14400
C 	C 	0.08420 0.81710 0.04120 0.13200
C 	C 	0.54470 0.82160 0.38710 -0.55800
C 	C 	0.20950 0.65960 0.71240 0.08100
H 	H 	0.18940 0.70110 0.69950 0.01300
C 	C 	0.34620 0.60780 0.32020 -0.23200
H 	H 	0.33260 0.65160 0.31630 0.11700
C 	C 	0.26560 0.56750 0.34520 0.14200
H 	H 	0.19880 0.58440 0.35770 -0.02200
C 	C 	0.39920 0.66420 0.96170 0.19200
C 	C 	0.53580 0.62730 0.27490 -0.20100
H 	H 	0.59040 0.63200 0.31400 0.10500
H 	H 	0.57000 0.60700 0.23370 0.08600
C 	C 	0.19930 0.45790 0.37910 0.43600
C 	C 	0.14250 0.72690 0.08620 0.14000
C 	C 	0.28410 0.50270 0.35170 -0.21300
C 	C 	0.94410 0.65230 0.17410 0.19300
C 	C 	0.96870 0.66290 0.09440 -0.16700
H 	H 	0.00830 0.62610 0.07680 0.06300
H 	H 	0.90070 0.66540 0.06640 0.08200
C 	C 	0.99210 0.77840 0.05290 -0.00500
C 	C 	0.52440 0.71560 0.90680 0.09100
C 	C 	0.31440 0.64480 0.01370 -0.26000
H 	H 	0.32170 0.59950 0.02460 0.09600
H 	H 	0.24310 0.65180 0.99110 0.13200
C 	C 	0.38600 0.47810 0.33370 0.12700
H 	H 	0.40000 0.43450 0.33870 -0.00300
C 	C 	0.88610 0.79880 0.03720 0.05200
C 	C 	0.46540 0.51870 0.30860 -0.22600
H 	H 	0.53270 0.50220 0.29650 0.10600
C 	C 	0.43900 0.70530 0.19030 0.14600
C 	C 	0.07060 0.87850 0.01220 -0.21500
C 	C 	0.87480 0.69350 0.20950 -0.19700
C 	C 	0.98510 0.60010 0.21200 -0.32500
C 	C 	0.49670 0.66380 0.86230 0.02900
C 	C 	0.18420 0.60920 0.66460 -0.20700
C 	C 	0.41160 0.65720 0.13200 -0.17100
H 	H 	0.47540 0.64820 0.10380 0.09100
H 	H 	0.38810 0.61760 0.15440 0.08100
C 	C 	0.26590 0.53650 0.75350 -0.20000
H 	H 	0.28290 0.49470 0.76740 0.09300
C 	C 	0.12770 0.62010 0.59430 0.44800
C 	C 	0.21250 0.54770 0.68700 0.12300
H 	H 	0.19520 0.51330 0.65650 -0.02100
C 	C 	0.45120 0.79330 0.25210 0.59600
C 	C 	0.87520 0.85960 0.00840 -0.26100
C 	C 	0.96490 0.89910 0.99570 0.18700
C 	C 	0.26390 0.64870 0.77850 -0.12300
C 	C 	0.60550 0.75820 0.88540 -0.12200
H 	H 	0.62520 0.79350 0.91400 0.09100
C 	C 	0.44450 0.85590 0.27720 -1.42600
C 	C 	0.54610 0.65160 0.79580 -0.03700
C 	C 	0.35690 0.57440 0.87020 -0.15100
H 	H 	0.30700 0.55980 0.90680 0.07600
H 	H 	0.40840 0.54020 0.86190 0.07700
C 	C 	0.49250 0.86850 0.34530 1.05100
C 	C 	0.65490 0.74510 0.82000 0.03700
N 	N 	0.32440 0.68230 0.08310 -0.02300
N 	N 	0.49720 0.69070 0.25270 -0.07100
N 	N 	0.17600 0.78360 0.06260 -0.12000
N 	N 	0.40950 0.76590 0.18760 -0.20900
N 	N 	0.03210 0.72080 0.08050 -0.11900
N 	N 	0.41570 0.63100 0.89830 -0.12600
N 	N 	0.46220 0.71490 0.96850 -0.12200
O 	O 	0.11660 0.48220 0.40710 -0.54600
O 	O 	0.21430 0.39880 0.37110 -0.28800
O 	O 	0.79410 0.65760 0.42540 -0.28500
O 	O 	0.91360 0.57920 0.43440 -0.54000
O 	O 	0.10950 0.57400 0.55150 -0.56400
O 	O 	0.09700 0.67650 0.57790 -0.28100
H 	H 	0.34500 0.31200 0.27100 0.07400
H 	H 	0.99800 0.43100 0.67700 -0.04600
H 	H 	0.19800 0.29000 0.69700 -0.01600
H 	H 	0.42000 0.15400 0.56300 0.17100
H 	H 	0.17200 0.23000 0.95200 0.12300
H 	H 	0.86700 0.09600 0.99800 0.02400
H 	H 	0.15000 0.26500 0.81600 0.09900
H 	H 	0.97700 0.42300 0.81400 0.19500
H 	H 	0.18900 0.13300 0.01100 -0.09100
H 	H 	0.04700 0.05900 0.01800 0.12200
H 	H 	0.71700 0.30800 0.18600 0.07000
H 	H 	0.57100 0.12000 0.75200 0.77300
H 	H 	0.46100 0.38300 0.24000 0.04800
H 	H 	0.50000 0.09600 0.63400 -0.44200
H 	H 	0.27600 0.21600 0.20400 0.01300
C 	C 	0.49510 0.25380 0.70590 -0.28100
C 	C 	0.10780 0.36950 0.68030 -0.26100
C 	C 	0.13640 0.37780 0.60140 0.47800
C 	C 	0.44810 0.23980 0.63700 0.35900
H 	H 	0.41350 0.27130 0.60870 -0.06900
C 	C 	0.37560 0.30640 0.22440 -0.07400
C 	C 	0.70550 0.41230 0.19980 0.12400
C 	C 	0.78240 0.32190 0.88080 -0.16300
H 	H 	0.81290 0.36450 0.88780 0.07800
H 	H 	0.77290 0.31430 0.82860 0.09200
C 	C 	0.55450 0.41570 0.69870 0.17900
C 	C 	0.04010 0.41090 0.71500 0.22800
C 	C 	0.15110 0.31800 0.71870 0.16500
C 	C 	0.91580 0.18290 0.95880 -0.00000
C 	C 	0.45530 0.17840 0.61290 -0.58500
C 	C 	0.79050 0.34040 0.28760 0.08100
H 	H 	0.81060 0.29890 0.30050 0.01500
C 	C 	0.65380 0.39220 0.67980 -0.23100
H 	H 	0.66740 0.34840 0.68370 0.11700
C 	C 	0.73440 0.43250 0.65480 0.14200
H 	H 	0.80120 0.41560 0.64230 -0.02100
C 	C 	0.60080 0.33580 0.03830 0.10800
C 	C 	0.46420 0.37270 0.72510 -0.20300
H 	H 	0.40960 0.36800 0.68600 0.10600
H 	H 	0.43000 0.39300 0.76630 0.08800
C 	C 	0.80070 0.54210 0.62090 0.43300
C 	C 	0.85750 0.27310 0.91380 0.14800
C 	C 	0.71590 0.49730 0.64830 -0.21200
C 	C 	0.05590 0.34770 0.82590 0.23300
C 	C 	0.03130 0.33710 0.90560 -0.22300
H 	H 	0.99170 0.37390 0.92320 0.09700
H 	H 	0.09930 0.33460 0.93360 0.10400
C 	C 	0.00790 0.22160 0.94710 0.12200
C 	C 	0.47560 0.28440 0.09320 0.08500
C 	C 	0.68560 0.35520 0.98630 -0.07900
H 	H 	0.67830 0.40050 0.97540 0.06000
H 	H 	0.75690 0.34820 0.00890 0.04600
C 	C 	0.61400 0.52190 0.66630 0.12700
H 	H 	0.60000 0.56550 0.66130 -0.00300
C 	C 	0.11390 0.20120 0.96280 -0.23600
C 	C 	0.53460 0.48130 0.69140 -0.22600
H 	H 	0.46730 0.49780 0.70350 0.10600
C 	C 	0.56100 0.29470 0.80970 0.14800
C 	C 	0.92940 0.12150 0.98780 0.10000
C 	C 	0.12520 0.30650 0.79050 -0.22200
C 	C 	0.01490 0.39990 0.78800 -0.39100
C 	C 	0.50330 0.33620 0.13770 0.02700
C 	C 	0.81580 0.39080 0.33540 -0.20200
C 	C 	0.58840 0.34280 0.86800 -0.16900
H 	H 	0.52460 0.35180 0.89620 0.09900
H 	H 	0.61190 0.38240 0.84560 0.08300
C 	C 	0.73410 0.46350 0.24650 -0.19900
H 	H 	0.71710 0.50530 0.23260 0.09100
C 	C 	0.87230 0.37990 0.40570 0.45000
C 	C 	0.78750 0.45230 0.31300 0.12300
H 	H 	0.80480 0.48670 0.34350 -0.01900
C 	C 	0.54880 0.20670 0.74790 0.61800
C 	C 	0.12480 0.14040 0.99160 0.27100
C 	C 	0.03510 0.10090 0.00430 -0.30300
C 	C 	0.73610 0.35130 0.22150 -0.12100
C 	C 	0.39450 0.24180 0.11460 -0.12500
H 	H 	0.37480 0.20650 0.08600 0.08500
C 	C 	0.55550 0.14410 0.72280 -1.48700
C 	C 	0.45390 0.34840 0.20420 -0.03900
C 	C 	0.64310 0.42560 0.12980 -0.15200
H 	H 	0.69300 0.44020 0.09320 0.06900
H 	H 	0.59160 0.45980 0.13810 0.07200
C 	C 	0.50750 0.13150 0.65470 1.10100
C 	C 	0.34510 0.25490 0.18000 0.03500
N 	N 	0.67560 0.31770 0.91690 -0.03700
N 	N 	0.50280 0.30930 0.74730 -0.06900
N 	N 	0.82400 0.21640 0.93740 -0.09300
N 	N 	0.59050 0.23410 0.81240 -0.21200
N 	N 	0.96790 0.27920 0.91950 -0.12100
N 	N 	0.58430 0.36900 0.10170 -0.11500
N 	N 	0.53780 0.28510 0.03150 -0.12200
O 	O 	0.88340 0.51780 0.59290 -0.54400
O 	O 	0.78570 0.60120 0.62890 -0.29300
O 	O 	0.20590 0.34240 0.57460 -0.28700
O 	O 	0.08640 0.42080 0.56560 -0.54600
O 	O 	0.89050 0.42600 0.44850 -0.56000
O 	O 	0.90300 0.32350 0.42210 -0.27600
Eu	Eu	0.00000 0.50000 0.50000 2.28900
H 	H 	0.84500 0.18800 0.77100 0.07500
H 	H 	0.49800 0.06900 0.17700 -0.04700
H 	H 	0.69800 0.21000 0.19700 -0.01200
H 	H 	0.92000 0.34600 0.06300 0.12700
H 	H 	0.67200 0.27000 0.45200 0.05700
H 	H 	0.36700 0.40400 0.49800 0.07900
H 	H 	0.65000 0.23500 0.31600 0.09600
H 	H 	0.47700 0.07700 0.31400 0.17100
H 	H 	0.68900 0.36700 0.51100 0.05800
H 	H 	0.54700 0.44100 0.51800 0.03600
H 	H 	0.21700 0.19200 0.68600 0.07600
H 	H 	0.07100 0.38000 0.25200 0.60200
H 	H 	0.96100 0.11700 0.74000 0.03900
H 	H 	-0.00000 0.40400 0.13400 -0.31100
H 	H 	0.77600 0.28400 0.70400 0.01400
C 	C 	0.99510 0.24620 0.20590 -0.17900
C 	C 	0.60780 0.13050 0.18030 -0.25000
C 	C 	0.63640 0.12220 0.10140 0.46600
C 	C 	0.94810 0.26020 0.13700 0.22700
H 	H 	0.91350 0.22870 0.10870 -0.02900
C 	C 	0.87560 0.19360 0.72440 -0.08400
C 	C 	0.20550 0.08770 0.69980 0.16300
C 	C 	0.28240 0.17810 0.38080 -0.16400
H 	H 	0.31290 0.13550 0.38780 0.07300
H 	H 	0.27290 0.18570 0.32860 0.09100
C 	C 	0.05450 0.08430 0.19870 0.27400
C 	C 	0.54010 0.08910 0.21500 0.20800
C 	C 	0.65110 0.18200 0.21870 0.15100
C 	C 	0.41580 0.31710 0.45880 0.08500
C 	C 	0.95530 0.32160 0.11290 -0.41700
C 	C 	0.29050 0.15960 0.78760 0.10500
H 	H 	0.31060 0.20110 0.80050 0.00600
C 	C 	0.15380 0.10780 0.17980 -0.34500
H 	H 	0.16740 0.15160 0.18370 0.15400
C 	C 	0.23440 0.06750 0.15480 0.27100
H 	H 	0.30120 0.08440 0.14230 -0.06900
C 	C 	0.10080 0.16420 0.53830 0.14600
C 	C 	0.96420 0.12730 0.22510 -0.23800
H 	H 	0.90960 0.13200 0.18600 0.11300
H 	H 	0.93000 0.10700 0.26630 0.09800
C 	C 	0.30070 0.95790 0.12090 0.51000
C 	C 	0.35750 0.22690 0.41380 0.14300
C 	C 	0.21590 0.00270 0.14830 -0.39100
C 	C 	0.55590 0.15230 0.32590 0.21200
C 	C 	0.53130 0.16290 0.40560 -0.20200
H 	H 	0.49170 0.12610 0.42320 0.08000
H 	H 	0.59930 0.16540 0.43360 0.09200
C 	C 	0.50790 0.27840 0.44710 0.03700
C 	C 	0.97560 0.21560 0.59320 0.10300
C 	C 	0.18560 0.14480 0.48630 -0.16500
H 	H 	0.17830 0.09950 0.47540 0.07100
H 	H 	0.25690 0.15180 0.50890 0.08600
C 	C 	0.11400 0.97810 0.16630 0.35400
H 	H 	0.10000 0.93450 0.16130 -0.07700
C 	C 	0.61390 0.29880 0.46280 -0.05900
C 	C 	0.03460 0.01870 0.19140 -0.42000
H 	H 	0.96730 0.00220 0.20350 0.16200
C 	C 	0.06100 0.20530 0.30970 0.14300
C 	C 	0.42940 0.37850 0.48780 -0.08800
C 	C 	0.62520 0.19350 0.29050 -0.20900
C 	C 	0.51490 0.10010 0.28800 -0.35900
C 	C 	0.00330 0.16380 0.63770 0.01000
C 	C 	0.31580 0.10920 0.83540 -0.23200
C 	C 	0.08840 0.15720 0.36800 -0.16500
H 	H 	0.02460 0.14820 0.39620 0.08900
H 	H 	0.11190 0.11760 0.34560 0.07700
C 	C 	0.23410 0.03650 0.74650 -0.30000
H 	H 	0.21710 0.99470 0.73260 0.15100
C 	C 	0.37230 0.12010 0.90570 0.45100
C 	C 	0.28750 0.04770 0.81300 0.17900
H 	H 	0.30480 0.01330 0.84350 -0.04800
C 	C 	0.04880 0.29330 0.24790 0.46700
C 	C 	0.62480 0.35960 0.49160 -0.05300
C 	C 	0.53510 0.39910 0.50430 -0.01000
C 	C 	0.23610 0.14870 0.72150 -0.14700
C 	C 	0.89450 0.25820 0.61460 -0.13300
H 	H 	0.87480 0.29350 0.58600 0.09200
C 	C 	0.05550 0.35590 0.22280 -1.13200
C 	C 	0.95390 0.15160 0.70420 -0.02300
C 	C 	0.14310 0.07440 0.62980 -0.17100
H 	H 	0.19300 0.05980 0.59320 0.07100
H 	H 	0.09160 0.04020 0.63810 0.07000
C 	C 	0.00750 0.36850 0.15470 0.78800
C 	C 	0.84510 0.24510 0.68000 0.04300
N 	N 	0.17560 0.18230 0.41690 -0.03200
N 	N 	0.00280 0.19070 0.24730 -0.08400
N 	N 	0.32400 0.28360 0.43740 -0.11000
N 	N 	0.09050 0.26590 0.31240 -0.18700
N 	N 	0.46790 0.22080 0.41950 -0.11400
N 	N 	0.08430 0.13100 0.60170 -0.11700
N 	N 	0.03780 0.21490 0.53150 -0.12600
O 	O 	0.38340 0.98220 0.09290 -0.52800
O 	O 	0.28570 0.89880 0.12890 -0.30600
O 	O 	0.70590 0.15760 0.07460 -0.29300
O 	O 	0.58640 0.07920 0.06560 -0.53900
O 	O 	0.39050 0.07400 0.94850 -0.53400
O 	O 	0.40300 0.17650 0.92210 -0.26900
H 	H 	0.15500 0.81200 0.22900 0.07000
H 	H 	0.50200 0.93100 0.82300 -0.04000
H 	H 	0.30200 0.79000 0.80300 -0.01200
H 	H 	0.08000 0.65400 0.93700 0.20800
H 	H 	0.32800 0.73000 0.54800 0.05800
H 	H 	0.63300 0.59600 0.50200 0.08000
H 	H 	0.35000 0.76500 0.68400 0.09800
H 	H 	0.52300 0.92300 0.68600 0.18900
H 	H 	0.31100 0.63300 0.48900 0.05800
H 	H 	0.45300 0.55900 0.48200 0.03600
H 	H 	0.78300 0.80800 0.31400 0.06200
H 	H 	0.92900 0.62000 0.74800 0.89900
H 	H 	0.03900 0.88300 0.26000 0.05900
H 	H 	0.00000 0.59600 0.86600 -0.53100
H 	H 	0.22400 0.71600 0.29600 0.01700
C 	C 	0.00490 0.75380 0.79410 -0.34900
C 	C 	0.39220 0.86950 0.81970 -0.24800
C 	C 	0.36360 0.87780 0.89860 0.46400
C 	C 	0.05190 0.73980 0.86300 0.45100
H 	H 	0.08650 0.77130 0.89130 -0.09500
C 	C 	0.12440 0.80640 0.27560 -0.05800
C 	C 	0.79450 0.91230 0.30020 0.07400
C 	C 	0.71760 0.82190 0.61920 -0.16800
H 	H 	0.68710 0.86450 0.61220 0.07900
H 	H 	0.72710 0.81430 0.67140 0.09400
C 	C 	0.94550 0.91570 0.80130 0.08900
C 	C 	0.45990 0.91090 0.78500 0.22700
C 	C 	0.34890 0.81800 0.78130 0.15600
C 	C 	0.58420 0.68290 0.54120 0.08500
C 	C 	0.04470 0.67840 0.88710 -0.70200
C 	C 	0.70950 0.84040 0.21240 0.04200
H 	H 	0.68940 0.79890 0.19950 0.02800
C 	C 	0.84620 0.89220 0.82020 -0.12400
H 	H 	0.83260 0.84840 0.81630 0.08100
C 	C 	0.76560 0.93250 0.84520 0.01900
H 	H 	0.69880 0.91560 0.85770 0.02700
C 	C 	0.89920 0.83580 0.46170 0.15400
C 	C 	0.03580 0.87270 0.77490 -0.16300
H 	H 	0.09040 0.86800 0.81400 0.09700
H 	H 	0.07000 0.89300 0.73370 0.07700
C 	C 	0.69930 0.04210 0.87910 0.35000
C 	C 	0.64250 0.77310 0.58620 0.14400
C 	C 	0.78410 0.99730 0.85170 -0.04400
C 	C 	0.44410 0.84770 0.67410 0.22500
C 	C 	0.46870 0.83710 0.59440 -0.21300
H 	H 	0.50830 0.87390 0.57680 0.09000
H 	H 	0.40070 0.83460 0.56640 0.10000
C 	C 	0.49210 0.72160 0.55290 0.03700
C 	C 	0.02440 0.78440 0.40680 0.06700
C 	C 	0.81440 0.85520 0.51370 -0.17400
H 	H 	0.82170 0.90050 0.52460 0.08400
H 	H 	0.74310 0.84820 0.49110 0.09100
C 	C 	0.88600 0.02190 0.83370 -0.07700
H 	H 	0.90000 0.06550 0.83870 0.06300
C 	C 	0.38610 0.70120 0.53720 -0.05800
C 	C 	0.96540 0.98130 0.80860 -0.05400
H 	H 	0.03270 0.99780 0.79650 0.05700
C 	C 	0.93900 0.79470 0.69030 0.15100
C 	C 	0.57060 0.62150 0.51220 -0.08800
C 	C 	0.37480 0.80650 0.70950 -0.21400
C 	C 	0.48510 0.89990 0.71200 -0.37200
C 	C 	0.99670 0.83620 0.36230 0.05500
C 	C 	0.68420 0.89080 0.16460 -0.15500
C 	C 	0.91160 0.84280 0.63200 -0.17500
H 	H 	0.97540 0.85180 0.60380 0.10000
H 	H 	0.88810 0.88240 0.65440 0.08800
C 	C 	0.76590 0.96350 0.25350 -0.07400
H 	H 	0.78290 0.00530 0.26740 0.02200
C 	C 	0.62770 0.87990 0.09430 0.42200
C 	C 	0.71250 0.95230 0.18700 0.04500
H 	H 	0.69520 0.98670 0.15650 0.02300
C 	C 	0.95120 0.70670 0.75210 0.72500
C 	C 	0.37520 0.64040 0.50840 -0.05300
C 	C 	0.46490 0.60090 0.49570 -0.01000
C 	C 	0.76390 0.85130 0.27850 -0.08700
C 	C 	0.10550 0.74180 0.38540 -0.11000
H 	H 	0.12520 0.70650 0.41400 0.08300
C 	C 	0.94450 0.64410 0.77720 -1.73800
C 	C 	0.04610 0.84840 0.29580 -0.06100
C 	C 	0.85690 0.92560 0.37020 -0.12500
H 	H 	0.80700 0.94020 0.40680 0.07100
H 	H 	0.90840 0.95980 0.36190 0.07900
C 	C 	0.99250 0.63150 0.84530 1.32800
C 	C 	0.15490 0.75490 0.32000 0.02500
N 	N 	0.82440 0.81770 0.58310 -0.02800
N 	N 	0.99720 0.80930 0.75270 -0.06100
N 	N 	0.67600 0.71640 0.56260 -0.11000
N 	N 	0.90950 0.73410 0.68760 -0.23100
N 	N 	0.53210 0.77920 0.58050 -0.11200
N 	N 	0.91570 0.86900 0.39830 -0.12600
N 	N 	0.96220 0.78510 0.46850 -0.11600
O 	O 	0.61660 0.01780 0.90710 -0.51200
O 	O 	0.71430 0.10120 0.87110 -0.26800
O 	O 	0.29410 0.84240 0.92540 -0.27100
O 	O 	0.41360 0.92080 0.93440 -0.50200
O 	O 	0.60950 0.92600 0.05150 -0.53300
O 	O 	0.59700 0.82350 0.07790 -0.27700
Eu	Eu	0.50000 0.00000 -0.00000 2.13200
