data_crystal

_cell_length_a 13.50630
_cell_length_b 15.35860
_cell_length_c 15.83030
_cell_angle_alpha 90.00000
_cell_angle_beta  95.84900
_cell_angle_gamma 90.00000

_symmetry_space_group_name_	'P 1'
_symmetry_space_group_name_H-M	'P 1'

loop_
_symmetry_equiv_pos_as_xyz
  x,y,z

loop_
_atom_site_label
_atom_site_type_symbol
_atom_site_fract_x
_atom_site_fract_y
_atom_site_fract_z
_atom_site_charge
O 	O 	0.09430 0.75300 0.57350 -0.31700
Co	Co	0.24066 0.90479 0.49645 1.18200
O 	O 	0.25040 0.77966 0.54404 -0.41700
C 	C 	0.22660 0.66960 0.64190 -0.15100
Fe	Fe	0.28448 0.65413 0.25418 1.15700
O 	O 	0.42175 0.51710 0.88274 -0.42300
C 	C 	0.16240 0.61620 0.68170 -0.16900
H 	H 	0.09280 0.61970 0.66580 0.07500
Fe	Fe	0.25408 0.68168 0.77095 1.07200
O 	O 	0.27223 0.45304 0.88123 -0.42500
C 	C 	0.19890 0.55710 0.74510 -0.13500
H 	H 	0.15420 0.51840 0.76860 0.05700
O 	O 	0.41723 0.38972 0.02636 -0.70800
H 	H 	0.43410 0.37370 0.08670 0.23900
H 	H 	0.43770 0.34080 0.99130 0.27700
C 	C 	0.29870 0.55450 0.77380 -0.19900
C 	C 	0.36510 0.60530 0.73270 -0.13900
H 	H 	0.43460 0.60170 0.74900 0.09000
O 	O 	0.25870 0.52954 0.04899 -0.46400
C 	C 	0.32800 0.66220 0.66650 -0.16300
H 	H 	0.37340 0.69620 0.63840 0.08700
O 	O 	0.41060 0.58745 0.05868 -0.44000
C 	C 	0.33390 0.50330 0.85360 0.37600
O 	O 	0.09850 0.83680 0.32220 -0.33000
O 	O 	0.25740 0.85776 0.37303 -0.42100
C 	C 	0.18540 0.73980 0.58090 0.33300
C 	C 	0.32220 0.58510 0.07310 0.40200
C 	C 	0.28630 0.65880 0.12560 -0.17300
C 	C 	0.35230 0.72150 0.16270 -0.13700
H 	H 	0.41790 0.72540 0.14620 0.08800
C 	C 	0.32120 0.77910 0.22470 -0.14500
H 	H 	0.36710 0.81990 0.25140 0.06300
C 	C 	0.22330 0.77630 0.24720 -0.16700
C 	C 	0.15590 0.71780 0.20390 -0.14000
H 	H 	0.08810 0.71840 0.21520 0.05900
C 	C 	0.18670 0.65900 0.14480 -0.12800
H 	H 	0.14040 0.61890 0.11740 0.06600
C 	C 	0.19060 0.82830 0.32080 0.34900
C 	C 	0.39790 0.61560 0.34100 -0.17200
H 	H 	0.46130 0.64280 0.34940 0.10200
C 	C 	0.31010 0.63530 0.38090 -0.15100
H 	H 	0.30450 0.67930 0.42230 0.07900
C 	C 	0.23670 0.58110 0.35010 -0.12700
H 	H 	0.17130 0.58050 0.36720 0.05500
C 	C 	0.26990 0.52770 0.29100 -0.15600
H 	H 	0.23100 0.48530 0.25910 0.06700
C 	C 	0.36680 0.54420 0.28450 -0.12400
H 	H 	0.40790 0.51410 0.24890 0.07300
C 	C 	0.12510 0.72710 0.82440 -1.20200
H 	H 	0.05710 0.71150 0.81210 0.42300
C 	C 	0.17600 0.79310 0.78320 0.67200
H 	H 	0.14800 0.82940 0.73840 -0.11600
C 	C 	0.27600 0.79530 0.82070 -0.63000
H 	H 	0.32670 0.83330 0.80530 -0.12300
C 	C 	0.28700 0.73060 0.88510 -0.07000
H 	H 	0.34640 0.71780 0.92040 0.10800
C 	C 	0.19380 0.68850 0.88740 2.66700
H 	H 	0.17980 0.64260 0.92460 -0.75500
C 	C 	0.20830 0.80060 0.81150 0.15700
C 	C 	0.30000 0.82150 0.77980 0.61100
C 	C 	0.37710 0.77670 0.82980 -0.07300
C 	C 	0.33300 0.72810 0.89250 0.07300
C 	C 	0.22870 0.74290 0.88120 -0.82900
H 	H 	0.14460 0.82160 0.78990 -0.24900
H 	H 	0.30840 0.85890 0.73320 -0.17700
H 	H 	0.44600 0.77880 0.82270 0.04600
H 	H 	0.36720 0.69200 0.93460 -0.07900
H 	H 	0.18090 0.71850 0.91440 -0.93300
O 	O 	0.40570 0.25300 0.92650 -0.29800
Co	Co	0.25934 0.40479 0.00355 1.15600
O 	O 	0.24960 0.27966 0.95596 -0.39800
C 	C 	0.27340 0.16960 0.85810 -0.14100
Fe	Fe	0.21552 0.15413 0.24582 1.15700
O 	O 	0.07825 0.01710 0.61726 -0.45300
C 	C 	0.33760 0.11620 0.81830 -0.17500
H 	H 	0.40720 0.11970 0.83420 0.08500
Fe	Fe	0.24592 0.18168 0.72905 1.07600
O 	O 	0.22777 0.95304 0.61877 -0.40200
C 	C 	0.30110 0.05710 0.75490 -0.13200
H 	H 	0.34580 0.01840 0.73140 0.05000
O 	O 	0.08277 0.88972 0.47364 -0.65000
H 	H 	0.06590 0.87370 0.41330 0.22400
H 	H 	0.06230 0.84080 0.50870 0.22800
C 	C 	0.20130 0.05450 0.72620 -0.20300
C 	C 	0.13490 0.10530 0.76730 -0.13600
H 	H 	0.06540 0.10170 0.75100 0.07300
O 	O 	0.24130 0.02954 0.45101 -0.46700
C 	C 	0.17200 0.16220 0.83350 -0.16900
H 	H 	0.12660 0.19620 0.86160 0.08500
O 	O 	0.08940 0.08745 0.44132 -0.45200
C 	C 	0.16610 0.00330 0.64640 0.33900
O 	O 	0.40150 0.33680 0.17780 -0.32400
O 	O 	0.24260 0.35776 0.12697 -0.43700
C 	C 	0.31460 0.23980 0.91910 0.33000
C 	C 	0.17780 0.08510 0.42690 0.40900
C 	C 	0.21370 0.15880 0.37440 -0.17300
C 	C 	0.14770 0.22150 0.33730 -0.13400
H 	H 	0.08210 0.22540 0.35380 0.07500
C 	C 	0.17880 0.27910 0.27530 -0.14700
H 	H 	0.13290 0.31990 0.24860 0.05200
C 	C 	0.27670 0.27630 0.25280 -0.16600
C 	C 	0.34410 0.21780 0.29610 -0.14000
H 	H 	0.41190 0.21840 0.28480 0.07000
C 	C 	0.31330 0.15900 0.35520 -0.12300
H 	H 	0.35960 0.11890 0.38260 0.07200
C 	C 	0.30940 0.32830 0.17920 0.34700
C 	C 	0.10210 0.11560 0.15900 -0.19400
H 	H 	0.03870 0.14280 0.15060 0.08500
C 	C 	0.18990 0.13530 0.11910 -0.18200
H 	H 	0.19550 0.17930 0.07770 0.07300
C 	C 	0.26330 0.08110 0.14990 -0.07000
H 	H 	0.32870 0.08050 0.13280 0.02800
C 	C 	0.23010 0.02770 0.20900 -0.27100
H 	H 	0.26900 0.98530 0.24090 0.13100
C 	C 	0.13320 0.04420 0.21550 -0.07500
H 	H 	0.09210 0.01410 0.25110 0.03300
C 	C 	0.37490 0.22710 0.67560 -1.15400
H 	H 	0.44290 0.21150 0.68790 0.41300
C 	C 	0.32400 0.29310 0.71680 0.65100
H 	H 	0.35200 0.32940 0.76160 -0.11300
C 	C 	0.22400 0.29530 0.67930 -0.60800
H 	H 	0.17330 0.33330 0.69470 -0.12100
C 	C 	0.21300 0.23060 0.61490 -0.05200
H 	H 	0.15360 0.21780 0.57960 0.08100
C 	C 	0.30620 0.18850 0.61260 2.53800
H 	H 	0.32020 0.14260 0.57540 -0.73100
C 	C 	0.29170 0.30060 0.68850 0.13800
C 	C 	0.20000 0.32150 0.72020 0.59200
C 	C 	0.12290 0.27670 0.67020 -0.09700
C 	C 	0.16700 0.22810 0.60750 0.08300
C 	C 	0.27130 0.24290 0.61880 -0.82500
H 	H 	0.35540 0.32160 0.71010 -0.23700
H 	H 	0.19160 0.35890 0.76680 -0.17900
H 	H 	0.05400 0.27880 0.67730 0.03400
H 	H 	0.13280 0.19200 0.56540 -0.08400
H 	H 	0.31910 0.21850 0.58560 -0.87900
O 	O 	0.90570 0.24700 0.42650 -0.29100
Co	Co	0.75934 0.09521 0.50355 1.16900
O 	O 	0.74960 0.22034 0.45596 -0.41600
C 	C 	0.77340 0.33040 0.35810 -0.14000
Fe	Fe	0.71552 0.34587 0.74582 1.15600
O 	O 	0.57825 0.48290 0.11726 -0.44400
C 	C 	0.83760 0.38380 0.31830 -0.17500
H 	H 	0.90720 0.38030 0.33420 0.09500
Fe	Fe	0.74592 0.31832 0.22905 1.07800
O 	O 	0.72777 0.54696 0.11877 -0.45000
C 	C 	0.80110 0.44290 0.25490 -0.12500
H 	H 	0.84580 0.48160 0.23140 0.06300
O 	O 	0.58277 0.61028 0.97364 -0.60600
H 	H 	0.56590 0.62630 0.91330 0.22500
H 	H 	0.56230 0.65920 0.00870 0.20000
C 	C 	0.70130 0.44550 0.22620 -0.20300
C 	C 	0.63490 0.39470 0.26730 -0.13300
H 	H 	0.56540 0.39830 0.25100 0.08900
O 	O 	0.74130 0.47046 0.95101 -0.43200
C 	C 	0.67200 0.33780 0.33350 -0.16700
H 	H 	0.62660 0.30380 0.36160 0.08700
O 	O 	0.58940 0.41255 0.94132 -0.41300
C 	C 	0.66610 0.49670 0.14640 0.37900
O 	O 	0.90150 0.16320 0.67780 -0.30900
O 	O 	0.74260 0.14224 0.62697 -0.42900
C 	C 	0.81460 0.26020 0.41910 0.32700
C 	C 	0.67780 0.41490 0.92690 0.40000
C 	C 	0.71370 0.34120 0.87440 -0.15600
C 	C 	0.64770 0.27850 0.83730 -0.13800
H 	H 	0.58210 0.27460 0.85380 0.09300
C 	C 	0.67880 0.22090 0.77530 -0.14200
H 	H 	0.63290 0.18010 0.74860 0.06000
C 	C 	0.77670 0.22370 0.75280 -0.16200
C 	C 	0.84410 0.28220 0.79610 -0.13400
H 	H 	0.91190 0.28160 0.78480 0.08300
C 	C 	0.81330 0.34100 0.85520 -0.12500
H 	H 	0.85960 0.38110 0.88260 0.09100
C 	C 	0.80940 0.17170 0.67920 0.34300
C 	C 	0.60210 0.38440 0.65900 -0.17300
H 	H 	0.53870 0.35720 0.65060 0.10100
C 	C 	0.68990 0.36470 0.61910 -0.14800
H 	H 	0.69550 0.32070 0.57770 0.07900
C 	C 	0.76330 0.41890 0.64990 -0.12900
H 	H 	0.82870 0.41950 0.63280 0.07000
C 	C 	0.73010 0.47230 0.70900 -0.15200
H 	H 	0.76900 0.51470 0.74090 0.07300
C 	C 	0.63320 0.45580 0.71550 -0.12500
H 	H 	0.59210 0.48590 0.75110 0.07300
C 	C 	0.87490 0.27290 0.17560 -1.12400
H 	H 	0.94290 0.28850 0.18790 0.41500
C 	C 	0.82400 0.20690 0.21680 0.63400
H 	H 	0.85200 0.17060 0.26160 -0.11000
C 	C 	0.72400 0.20470 0.17930 -0.58900
H 	H 	0.67330 0.16670 0.19470 -0.12200
C 	C 	0.71300 0.26940 0.11490 -0.04200
H 	H 	0.65360 0.28220 0.07960 0.07200
C 	C 	0.80620 0.31150 0.11260 2.46800
H 	H 	0.82020 0.35740 0.07540 -0.71600
C 	C 	0.79170 0.19940 0.18850 0.12200
C 	C 	0.70000 0.17850 0.22020 0.58400
C 	C 	0.62290 0.22330 0.17020 -0.10800
C 	C 	0.66700 0.27190 0.10750 0.08300
C 	C 	0.77130 0.25710 0.11880 -0.82100
H 	H 	0.85540 0.17840 0.21010 -0.22300
H 	H 	0.69160 0.14110 0.26680 -0.17900
H 	H 	0.55400 0.22120 0.17730 0.04700
H 	H 	0.63280 0.30800 0.06540 -0.08400
H 	H 	0.81910 0.28150 0.08560 -0.85100
O 	O 	0.59430 0.74700 0.07350 -0.31100
Co	Co	0.74066 0.59521 0.99645 1.19400
O 	O 	0.75040 0.72034 0.04404 -0.43400
C 	C 	0.72660 0.83040 0.14190 -0.15000
Fe	Fe	0.78448 0.84587 0.75418 1.15700
O 	O 	0.92175 0.98290 0.38274 -0.41000
C 	C 	0.66240 0.88380 0.18170 -0.16900
H 	H 	0.59280 0.88030 0.16580 0.08400
Fe	Fe	0.75408 0.81832 0.27095 1.07500
O 	O 	0.77223 0.04696 0.38123 -0.47000
C 	C 	0.69890 0.94290 0.24510 -0.12900
H 	H 	0.65420 0.98160 0.26860 0.06800
O 	O 	0.91723 0.11028 0.52636 -0.65700
H 	H 	0.93410 0.12630 0.58670 0.24000
H 	H 	0.93770 0.15920 0.49130 0.24800
C 	C 	0.79870 0.94550 0.27380 -0.19900
C 	C 	0.86510 0.89470 0.23270 -0.13600
H 	H 	0.93460 0.89830 0.24900 0.10600
O 	O 	0.75870 0.97046 0.54899 -0.42800
C 	C 	0.82800 0.83780 0.16650 -0.16000
H 	H 	0.87340 0.80380 0.13840 0.09000
O 	O 	0.91060 0.91255 0.55868 -0.39800
C 	C 	0.83390 0.99670 0.35360 0.41200
O 	O 	0.59850 0.66320 0.82220 -0.31500
O 	O 	0.75740 0.64224 0.87303 -0.41500
C 	C 	0.68540 0.76020 0.08090 0.33100
C 	C 	0.82220 0.91490 0.57310 0.39200
C 	C 	0.78630 0.84120 0.62560 -0.15500
C 	C 	0.85230 0.77850 0.66270 -0.14100
H 	H 	0.91790 0.77460 0.64620 0.10400
C 	C 	0.82120 0.72090 0.72470 -0.14000
H 	H 	0.86710 0.68010 0.75140 0.07000
C 	C 	0.72330 0.72370 0.74720 -0.16400
C 	C 	0.65590 0.78220 0.70390 -0.13300
H 	H 	0.58810 0.78160 0.71520 0.07300
C 	C 	0.68670 0.84100 0.64480 -0.13100
H 	H 	0.64040 0.88110 0.61740 0.08500
C 	C 	0.69060 0.67170 0.82080 0.34500
C 	C 	0.89790 0.88440 0.84100 -0.15100
H 	H 	0.96130 0.85720 0.84940 0.11700
C 	C 	0.81010 0.86470 0.88090 -0.11900
H 	H 	0.80450 0.82070 0.92230 0.08500
C 	C 	0.73670 0.91890 0.85010 -0.18200
H 	H 	0.67130 0.91950 0.86720 0.09600
C 	C 	0.76990 0.97230 0.79100 -0.04400
H 	H 	0.73100 0.01470 0.75910 0.01300
C 	C 	0.86680 0.95580 0.78450 -0.17100
H 	H 	0.90790 0.98590 0.74890 0.11100
C 	C 	0.62510 0.77290 0.32440 -1.16800
H 	H 	0.55710 0.78850 0.31210 0.42100
C 	C 	0.67600 0.70690 0.28320 0.65400
H 	H 	0.64800 0.67060 0.23840 -0.11300
C 	C 	0.77600 0.70470 0.32070 -0.61300
H 	H 	0.82670 0.66670 0.30530 -0.12200
C 	C 	0.78700 0.76940 0.38510 -0.06000
H 	H 	0.84640 0.78220 0.42040 0.09800
C 	C 	0.69380 0.81150 0.38740 2.57800
H 	H 	0.67980 0.85740 0.42460 -0.73600
C 	C 	0.70830 0.69940 0.31150 0.14200
C 	C 	0.80000 0.67850 0.27980 0.60100
C 	C 	0.87710 0.72330 0.32980 -0.08500
C 	C 	0.83300 0.77190 0.39250 0.07300
C 	C 	0.72870 0.75710 0.38120 -0.82000
H 	H 	0.64460 0.67840 0.28990 -0.23700
H 	H 	0.80840 0.64110 0.23320 -0.17600
H 	H 	0.94600 0.72120 0.32270 0.05800
H 	H 	0.86720 0.80800 0.43460 -0.07900
H 	H 	0.68090 0.78150 0.41440 -0.89900
Co	Co	0.50000 0.50000 -0.00000 1.18800
Co	Co	0.00000 0.00000 0.50000 1.17400
