data_crystal

_cell_length_a 13.72390
_cell_length_b 15.07240
_cell_length_c 15.86000
_cell_angle_alpha 90.00000
_cell_angle_beta  94.50400
_cell_angle_gamma 90.00000

_symmetry_space_group_name_	'P 1'
_symmetry_space_group_name_H-M	'P 1'

loop_
_symmetry_equiv_pos_as_xyz
  x,y,z

loop_
_atom_site_label
_atom_site_type_symbol
_atom_site_fract_x
_atom_site_fract_y
_atom_site_fract_z
_atom_site_charge
Co	Co	0.73753 0.90927 0.49630 1.18100
Fe	Fe	0.78013 0.65963 0.25053 1.15500
Fe	Fe	0.74559 0.67736 0.76848 1.13800
O 	O 	0.60270 0.74464 0.56962 -0.32600
O 	O 	0.75465 0.77989 0.54075 -0.42400
O 	O 	0.77916 0.44975 0.87954 -0.43000
O 	O 	0.92133 0.52485 0.88659 -0.38800
O 	O 	0.91840 0.58902 0.06543 -0.40500
O 	O 	0.76511 0.53969 0.04179 -0.47700
O 	O 	0.75464 0.86788 0.37081 -0.41700
O 	O 	0.59920 0.83997 0.32306 -0.33400
O 	O 	0.91554 0.38927 0.02504 -1.07400
H 	H 	0.91800 0.37200 0.07900 0.40600
H 	H 	0.92500 0.34700 0.99550 0.51600
C 	C 	0.83875 0.50395 0.85352 0.36800
C 	C 	0.80736 0.55297 0.77226 -0.16900
C 	C 	0.70930 0.54693 0.73943 -0.14400
H 	H 	0.66730 0.50410 0.76150 0.05800
C 	C 	0.67320 0.60419 0.67381 -0.16300
H 	H 	0.60650 0.60070 0.65300 0.07800
C 	C 	0.73500 0.66617 0.63910 -0.15900
C 	C 	0.83340 0.66850 0.66926 -0.14200
H 	H 	0.87660 0.70810 0.64440 0.08400
C 	C 	0.86960 0.61290 0.73600 -0.15100
H 	H 	0.93650 0.61610 0.75640 0.10800
C 	C 	0.69370 0.73590 0.57754 0.33800
C 	C 	0.82849 0.59226 0.07156 0.38500
C 	C 	0.79146 0.66820 0.12207 -0.18400
C 	C 	0.85610 0.72957 0.16405 -0.13200
H 	H 	0.92250 0.73120 0.15110 0.09400
C 	C 	0.82350 0.78820 0.22462 -0.15100
H 	H 	0.86790 0.82860 0.25300 0.08400
C 	C 	0.72407 0.78689 0.24324 -0.15000
C 	C 	0.65820 0.72964 0.19847 -0.15400
H 	H 	0.59100 0.73060 0.20890 0.07100
C 	C 	0.69160 0.67036 0.13777 -0.12900
H 	H 	0.64660 0.63180 0.10750 0.05100
C 	C 	0.68900 0.83610 0.31912 0.33300
C 	C 	0.85490 0.54510 0.27980 -0.14400
H 	H 	0.89590 0.51460 0.24390 0.08700
C 	C 	0.75580 0.53100 0.28340 -0.15200
H 	H 	0.71720 0.48980 0.25010 0.06700
C 	C 	0.72220 0.58770 0.34420 -0.14200
H 	H 	0.65690 0.59110 0.36000 0.05900
C 	C 	0.80060 0.63860 0.37790 -0.15500
H 	H 	0.79780 0.68320 0.42010 0.08000
C 	C 	0.88540 0.61240 0.33850 -0.14600
H 	H 	0.94960 0.63530 0.34920 0.08800
C 	C 	0.68280 0.68800 0.88580 0.00500
H 	H 	0.67750 0.64160 0.92580 0.22400
C 	C 	0.60910 0.71460 0.82300 0.48200
H 	H 	0.54590 0.68910 0.81360 -0.16900
C 	C 	0.64670 0.78580 0.77670 0.22600
H 	H 	0.61290 0.81650 0.73090 -0.05800
C 	C 	0.74350 0.80330 0.81090 -0.21400
H 	H 	0.78590 0.84760 0.79210 0.14400
C 	C 	0.76580 0.74280 0.87840 0.08900
H 	H 	0.82580 0.73960 0.91250 -0.22900
C 	C 	0.66140 0.75490 0.82680 -0.68000
C 	C 	0.72630 0.81040 0.78530 0.24100
C 	C 	0.82250 0.79460 0.82180 -0.43100
C 	C 	0.81720 0.72930 0.88580 0.33400
C 	C 	0.71760 0.70480 0.88890 -0.11300
H 	H 	0.59260 0.75190 0.81500 -0.07800
H 	H 	0.70840 0.85100 0.74090 -0.07400
H 	H 	0.88040 0.82270 0.80610 0.16000
H 	H 	0.87080 0.70610 0.92050 0.02900
H 	H 	0.69290 0.66240 0.92610 -0.20200
Co	Co	0.76247 0.40927 0.00370 1.15800
Fe	Fe	0.71987 0.15963 0.24947 1.15600
Fe	Fe	0.75441 0.17736 0.73152 1.13900
O 	O 	0.89730 0.24464 0.93038 -0.30700
O 	O 	0.74535 0.27989 0.95925 -0.40900
O 	O 	0.72084 0.94975 0.62046 -0.39900
O 	O 	0.57867 0.02485 0.61341 -0.42300
O 	O 	0.58160 0.08902 0.43457 -0.43300
O 	O 	0.73489 0.03969 0.45821 -0.48400
O 	O 	0.74536 0.36788 0.12919 -0.43300
O 	O 	0.90080 0.33997 0.17694 -0.32800
O 	O 	0.58446 0.88927 0.47496 -0.99700
H 	H 	0.58200 0.87200 0.42100 0.38100
H 	H 	0.57500 0.84700 0.50450 0.45200
C 	C 	0.66125 0.00395 0.64648 0.32400
C 	C 	0.69264 0.05297 0.72774 -0.17200
C 	C 	0.79070 0.04693 0.76057 -0.14500
H 	H 	0.83270 0.00410 0.73850 0.05000
C 	C 	0.82680 0.10419 0.82619 -0.16800
H 	H 	0.89350 0.10070 0.84700 0.08700
C 	C 	0.76500 0.16617 0.86090 -0.15200
C 	C 	0.66660 0.16850 0.83074 -0.14900
H 	H 	0.62340 0.20810 0.85560 0.07800
C 	C 	0.63040 0.11290 0.76400 -0.15200
H 	H 	0.56350 0.11610 0.74360 0.09000
C 	C 	0.80630 0.23590 0.92246 0.33400
C 	C 	0.67151 0.09226 0.42844 0.39500
C 	C 	0.70854 0.16820 0.37793 -0.18800
C 	C 	0.64390 0.22957 0.33595 -0.12900
H 	H 	0.57750 0.23120 0.34890 0.07800
C 	C 	0.67650 0.28820 0.27538 -0.15500
H 	H 	0.63210 0.32860 0.24700 0.07200
C 	C 	0.77593 0.28689 0.25676 -0.14800
C 	C 	0.84180 0.22964 0.30153 -0.15600
H 	H 	0.90900 0.23060 0.29110 0.08300
C 	C 	0.80840 0.17036 0.36223 -0.12200
H 	H 	0.85340 0.13180 0.39250 0.05800
C 	C 	0.81100 0.33610 0.18088 0.32900
C 	C 	0.64510 0.04510 0.22020 -0.09800
H 	H 	0.60410 0.01460 0.25610 0.04500
C 	C 	0.74420 0.03100 0.21660 -0.26300
H 	H 	0.78280 0.98980 0.24990 0.13400
C 	C 	0.77780 0.08770 0.15580 -0.09500
H 	H 	0.84310 0.09110 0.14000 0.03800
C 	C 	0.69940 0.13860 0.12210 -0.17600
H 	H 	0.70220 0.18320 0.07990 0.07200
C 	C 	0.61460 0.11240 0.16150 -0.17100
H 	H 	0.55040 0.13530 0.15080 0.07000
C 	C 	0.81720 0.18800 0.61420 0.01100
H 	H 	0.82250 0.14160 0.57420 0.21000
C 	C 	0.89090 0.21460 0.67700 0.48600
H 	H 	0.95410 0.18910 0.68640 -0.16100
C 	C 	0.85330 0.28580 0.72330 0.24800
H 	H 	0.88710 0.31650 0.76910 -0.06100
C 	C 	0.75650 0.30330 0.68910 -0.21700
H 	H 	0.71410 0.34760 0.70790 0.13500
C 	C 	0.73420 0.24280 0.62160 0.07700
H 	H 	0.67420 0.23960 0.58750 -0.22400
C 	C 	0.83860 0.25490 0.67320 -0.70600
C 	C 	0.77370 0.31040 0.71470 0.24400
C 	C 	0.67750 0.29460 0.67820 -0.42300
C 	C 	0.68280 0.22930 0.61420 0.32600
C 	C 	0.78240 0.20480 0.61110 -0.10700
H 	H 	0.90740 0.25190 0.68500 -0.07300
H 	H 	0.79160 0.35100 0.75910 -0.08000
H 	H 	0.61960 0.32270 0.69390 0.14100
H 	H 	0.62920 0.20610 0.57950 0.00900
H 	H 	0.80710 0.16240 0.57390 -0.20200
Co	Co	0.26247 0.09073 0.50370 1.16200
Fe	Fe	0.21987 0.34037 0.74947 1.15400
Fe	Fe	0.25441 0.32264 0.23152 1.14000
O 	O 	0.39730 0.25536 0.43038 -0.32700
O 	O 	0.24535 0.22011 0.45925 -0.43400
O 	O 	0.22084 0.55025 0.12046 -0.46000
O 	O 	0.07867 0.47515 0.11341 -0.44900
O 	O 	0.08160 0.41098 0.93457 -0.42600
O 	O 	0.23489 0.46031 0.95821 -0.45600
O 	O 	0.24536 0.13212 0.62919 -0.44100
O 	O 	0.40080 0.16003 0.67694 -0.34600
O 	O 	0.08446 0.61073 0.97496 -0.92200
H 	H 	0.08200 0.62800 0.92100 0.35300
H 	H 	0.07500 0.65300 0.00450 0.38300
C 	C 	0.16125 0.49605 0.14648 0.37800
C 	C 	0.19264 0.44703 0.22774 -0.18700
C 	C 	0.29070 0.45307 0.26057 -0.13800
H 	H 	0.33270 0.49590 0.23850 0.05300
C 	C 	0.32680 0.39581 0.32619 -0.16800
H 	H 	0.39350 0.39930 0.34700 0.07900
C 	C 	0.26500 0.33383 0.36090 -0.16000
C 	C 	0.16660 0.33150 0.33074 -0.15200
H 	H 	0.12340 0.29190 0.35560 0.06500
C 	C 	0.13040 0.38710 0.26400 -0.14500
H 	H 	0.06350 0.38390 0.24360 0.07500
C 	C 	0.30630 0.26410 0.42246 0.34000
C 	C 	0.17151 0.40774 0.92844 0.39500
C 	C 	0.20854 0.33180 0.87793 -0.18100
C 	C 	0.14390 0.27043 0.83595 -0.13400
H 	H 	0.07750 0.26880 0.84890 0.06800
C 	C 	0.17650 0.21180 0.77538 -0.15200
H 	H 	0.13210 0.17140 0.74700 0.06000
C 	C 	0.27593 0.21311 0.75676 -0.15800
C 	C 	0.34180 0.27036 0.80153 -0.14900
H 	H 	0.40900 0.26940 0.79110 0.07200
C 	C 	0.30840 0.32964 0.86223 -0.12800
H 	H 	0.35340 0.36820 0.89250 0.06300
C 	C 	0.31100 0.16390 0.68088 0.33400
C 	C 	0.14510 0.45490 0.72020 -0.15100
H 	H 	0.10410 0.48540 0.75610 0.06900
C 	C 	0.24420 0.46900 0.71660 -0.15500
H 	H 	0.28280 0.51020 0.74990 0.06800
C 	C 	0.27780 0.41230 0.65580 -0.14000
H 	H 	0.34310 0.40890 0.64000 0.05800
C 	C 	0.19940 0.36140 0.62210 -0.16300
H 	H 	0.20220 0.31680 0.57990 0.07400
C 	C 	0.11460 0.38760 0.66150 -0.15100
H 	H 	0.05040 0.36470 0.65080 0.05700
C 	C 	0.31720 0.31200 0.11420 0.01900
H 	H 	0.32250 0.35840 0.07420 0.19700
C 	C 	0.39090 0.28540 0.17700 0.45700
H 	H 	0.45410 0.31090 0.18640 -0.16900
C 	C 	0.35330 0.21420 0.22330 0.24300
H 	H 	0.38710 0.18350 0.26910 -0.07300
C 	C 	0.25650 0.19670 0.18910 -0.21300
H 	H 	0.21410 0.15240 0.20790 0.12200
C 	C 	0.23420 0.25720 0.12160 0.05400
H 	H 	0.17420 0.26040 0.08750 -0.20900
C 	C 	0.33860 0.24510 0.17320 -0.70000
C 	C 	0.27370 0.18960 0.21470 0.23600
C 	C 	0.17750 0.20540 0.17820 -0.41100
C 	C 	0.18280 0.27070 0.11420 0.30900
C 	C 	0.28240 0.29520 0.11110 -0.10700
H 	H 	0.40740 0.24810 0.18500 -0.06800
H 	H 	0.29160 0.14900 0.25910 -0.08500
H 	H 	0.11960 0.17730 0.19390 0.11700
H 	H 	0.12920 0.29390 0.07950 -0.01300
H 	H 	0.30710 0.33760 0.07390 -0.20500
Co	Co	0.23753 0.59073 0.99630 1.18800
Fe	Fe	0.28013 0.84037 0.75053 1.15400
Fe	Fe	0.24559 0.82264 0.26848 1.13900
O 	O 	0.10270 0.75536 0.06962 -0.34500
O 	O 	0.25465 0.72011 0.04075 -0.45000
O 	O 	0.27916 0.05025 0.37954 -0.49100
O 	O 	0.42133 0.97515 0.38659 -0.41900
O 	O 	0.41840 0.91098 0.56543 -0.40900
O 	O 	0.26511 0.96031 0.54179 -0.45200
O 	O 	0.25464 0.63212 0.87081 -0.42400
O 	O 	0.09920 0.66003 0.82306 -0.34800
O 	O 	0.41554 0.11073 0.52504 -1.02500
H 	H 	0.41800 0.12800 0.57900 0.38300
H 	H 	0.42500 0.15300 0.49550 0.46000
C 	C 	0.33875 0.99605 0.35352 0.42500
C 	C 	0.30736 0.94703 0.27226 -0.18300
C 	C 	0.20930 0.95307 0.23943 -0.13700
H 	H 	0.16730 0.99590 0.26150 0.06100
C 	C 	0.17320 0.89581 0.17381 -0.16300
H 	H 	0.10650 0.89930 0.15300 0.06900
C 	C 	0.23500 0.83383 0.13910 -0.16700
C 	C 	0.33340 0.83150 0.16926 -0.14500
H 	H 	0.37660 0.79190 0.14440 0.07100
C 	C 	0.36960 0.88710 0.23600 -0.14400
H 	H 	0.43650 0.88390 0.25640 0.09400
C 	C 	0.19370 0.76410 0.07754 0.34400
C 	C 	0.32849 0.90774 0.57156 0.38700
C 	C 	0.29146 0.83180 0.62207 -0.18000
C 	C 	0.35610 0.77043 0.66405 -0.13600
H 	H 	0.42250 0.76880 0.65110 0.08200
C 	C 	0.32350 0.71180 0.72462 -0.14900
H 	H 	0.36790 0.67140 0.75300 0.07200
C 	C 	0.22407 0.71311 0.74324 -0.15900
C 	C 	0.15820 0.77036 0.69847 -0.14900
H 	H 	0.09100 0.76940 0.70890 0.06100
C 	C 	0.19160 0.82964 0.63777 -0.13300
H 	H 	0.14660 0.86820 0.60750 0.05700
C 	C 	0.18900 0.66390 0.81912 0.33700
C 	C 	0.35490 0.95490 0.77980 -0.19900
H 	H 	0.39590 0.98540 0.74390 0.11000
C 	C 	0.25580 0.96900 0.78340 -0.04000
H 	H 	0.21720 0.01020 0.75010 -0.00200
C 	C 	0.22220 0.91230 0.84420 -0.18900
H 	H 	0.15690 0.90890 0.86000 0.08200
C 	C 	0.30060 0.86140 0.87790 -0.14000
H 	H 	0.29780 0.81680 0.92010 0.08400
C 	C 	0.38540 0.88760 0.83850 -0.12500
H 	H 	0.44960 0.86470 0.84920 0.07400
C 	C 	0.18280 0.81200 0.38580 0.01300
H 	H 	0.17750 0.85840 0.42580 0.21100
C 	C 	0.10910 0.78540 0.32300 0.45300
H 	H 	0.04590 0.81090 0.31360 -0.17800
C 	C 	0.14670 0.71420 0.27670 0.22000
H 	H 	0.11290 0.68350 0.23090 -0.07100
C 	C 	0.24350 0.69670 0.31090 -0.21100
H 	H 	0.28590 0.65240 0.29210 0.13200
C 	C 	0.26580 0.75720 0.37840 0.06700
H 	H 	0.32580 0.76040 0.41250 -0.21400
C 	C 	0.16140 0.74510 0.32680 -0.67200
C 	C 	0.22630 0.68960 0.28530 0.23300
C 	C 	0.32250 0.70540 0.32180 -0.41900
C 	C 	0.31720 0.77070 0.38580 0.31700
C 	C 	0.21760 0.79520 0.38890 -0.11300
H 	H 	0.09260 0.74810 0.31500 -0.07400
H 	H 	0.20840 0.64900 0.24090 -0.07800
H 	H 	0.38040 0.67730 0.30610 0.13800
H 	H 	0.37080 0.79390 0.42050 0.00800
H 	H 	0.19290 0.83760 0.42610 -0.20500
Co	Co	0.00000 0.50000 -0.00000 1.19100
Co	Co	0.50000 0.00000 0.50000 1.21600
