data_crystal

_cell_length_a 13.44220
_cell_length_b 15.26500
_cell_length_c 15.85800
_cell_angle_alpha 90.00000
_cell_angle_beta  94.54300
_cell_angle_gamma 90.00000

_symmetry_space_group_name_	'P 1'
_symmetry_space_group_name_H-M	'P 1'

loop_
_symmetry_equiv_pos_as_xyz
  x,y,z

loop_
_atom_site_label
_atom_site_type_symbol
_atom_site_fract_x
_atom_site_fract_y
_atom_site_fract_z
_atom_site_charge
Ni	Ni	0.73796 0.40944 0.49705 1.11900
Fe	Fe	0.78518 0.15315 0.25792 1.16400
Fe	Fe	0.75615 0.18834 0.77581 1.17600
O 	O 	0.60150 0.33760 0.32820 -0.32100
O 	O 	0.75920 0.35780 0.37830 -0.42400
O 	O 	0.91710 0.08430 0.06340 -0.41700
O 	O 	0.76300 0.03170 0.05340 -0.49300
O 	O 	0.91390 0.89280 0.02240 -0.68100
H 	H 	0.92960 0.87420 0.08180 0.25300
H 	H 	0.93360 0.84440 0.98570 0.28000
O 	O 	0.77520 0.96030 0.88470 -0.37800
O 	O 	0.92240 0.02690 0.88910 -0.40400
O 	O 	0.59870 0.25850 0.57950 -0.31100
O 	O 	0.75440 0.28800 0.55030 -0.41400
C 	C 	0.69550 0.33000 0.32680 0.35100
C 	C 	0.72920 0.27690 0.25180 -0.16400
C 	C 	0.82940 0.27620 0.23100 -0.16300
H 	H 	0.87640 0.31450 0.25970 0.07900
C 	C 	0.85990 0.22130 0.17040 -0.12700
H 	H 	0.92640 0.22500 0.15430 0.09200
C 	C 	0.79260 0.15780 0.13030 -0.20600
C 	C 	0.69200 0.16110 0.14930 -0.14000
H 	H 	0.64520 0.12200 0.12150 0.05500
C 	C 	0.65910 0.22190 0.20900 -0.14800
H 	H 	0.59070 0.22510 0.21960 0.06900
C 	C 	0.82560 0.08480 0.07630 0.41300
C 	C 	0.81100 0.13540 0.38690 -0.17000
H 	H 	0.80650 0.17910 0.42910 0.08600
C 	C 	0.89440 0.10860 0.34400 -0.16900
H 	H 	0.96000 0.13200 0.35090 0.08400
C 	C 	0.86000 0.03920 0.28830 -0.10100
H 	H 	0.90170 0.00630 0.25440 0.06200
C 	C 	0.75890 0.02610 0.29020 -0.23500
H 	H 	0.71790 0.98740 0.25570 0.11700
C 	C 	0.73170 0.07700 0.34820 -0.10000
H 	H 	0.66550 0.07740 0.36520 0.04100
C 	C 	0.83970 0.01190 0.85790 0.34000
C 	C 	0.80350 0.06160 0.77830 -0.14700
C 	C 	0.70340 0.06620 0.75250 -0.17000
H 	H 	0.65750 0.03130 0.78040 0.06400
C 	C 	0.66850 0.11990 0.68750 -0.13400
H 	H 	0.59940 0.11820 0.66930 0.06900
C 	C 	0.72960 0.17630 0.64740 -0.16400
C 	C 	0.83090 0.17030 0.67310 -0.15000
H 	H 	0.87700 0.20590 0.64620 0.08500
C 	C 	0.86620 0.11350 0.73680 -0.16800
H 	H 	0.93590 0.11070 0.75200 0.10800
C 	C 	0.69160 0.24680 0.58750 0.34600
C 	C 	0.71150 0.21750 0.89250 -0.14200
H 	H 	0.68030 0.18000 0.93030 0.07000
C 	C 	0.66260 0.26490 0.82410 -0.18300
H 	H 	0.59300 0.26470 0.80820 0.06000
C 	C 	0.73600 0.31270 0.78380 -0.19800
H 	H 	0.72420 0.35010 0.73620 0.09200
C 	C 	0.83040 0.29490 0.82730 -0.12700
H 	H 	0.89270 0.31820 0.81380 0.07000
C 	C 	0.81510 0.23600 0.89440 -0.13300
H 	H 	0.86550 0.21310 0.93370 0.09400
Ni	Ni	0.76204 0.90944 0.00295 1.10900
Fe	Fe	0.71482 0.65315 0.24208 1.16300
Fe	Fe	0.74385 0.68834 0.72419 1.17500
O 	O 	0.89850 0.83760 0.17180 -0.30400
O 	O 	0.74080 0.85780 0.12170 -0.42900
O 	O 	0.58290 0.58430 0.43660 -0.42600
O 	O 	0.73700 0.53170 0.44660 -0.46600
O 	O 	0.58610 0.39280 0.47760 -0.65700
H 	H 	0.57040 0.37420 0.41820 0.23700
H 	H 	0.56640 0.34440 0.51430 0.23800
O 	O 	0.72480 0.46030 0.61530 -0.43200
O 	O 	0.57760 0.52690 0.61090 -0.44200
O 	O 	0.90130 0.75850 0.92050 -0.28600
O 	O 	0.74560 0.78800 0.94970 -0.39300
C 	C 	0.80450 0.83000 0.17320 0.35100
C 	C 	0.77080 0.77690 0.24820 -0.15800
C 	C 	0.67060 0.77620 0.26900 -0.16300
H 	H 	0.62360 0.81450 0.24030 0.07100
C 	C 	0.64010 0.72130 0.32960 -0.12300
H 	H 	0.57360 0.72500 0.34570 0.08100
C 	C 	0.70740 0.65780 0.36970 -0.20100
C 	C 	0.80800 0.66110 0.35070 -0.13500
H 	H 	0.85480 0.62200 0.37850 0.07200
C 	C 	0.84090 0.72190 0.29100 -0.14300
H 	H 	0.90930 0.72510 0.28040 0.08300
C 	C 	0.67440 0.58480 0.42370 0.41600
C 	C 	0.68900 0.63540 0.11310 -0.15400
H 	H 	0.69350 0.67910 0.07090 0.06800
C 	C 	0.60560 0.60860 0.15600 -0.15600
H 	H 	0.54000 0.63200 0.14910 0.06300
C 	C 	0.64000 0.53920 0.21170 -0.15900
H 	H 	0.59830 0.50630 0.24560 0.08100
C 	C 	0.74110 0.52610 0.20980 -0.11900
H 	H 	0.78210 0.48740 0.24430 0.05700
C 	C 	0.76830 0.57700 0.15180 -0.16800
H 	H 	0.83450 0.57740 0.13480 0.07300
C 	C 	0.66030 0.51190 0.64210 0.39700
C 	C 	0.69650 0.56160 0.72170 -0.17000
C 	C 	0.79660 0.56620 0.74750 -0.14300
H 	H 	0.84250 0.53130 0.71960 0.07200
C 	C 	0.83150 0.61990 0.81250 -0.14900
H 	H 	0.90060 0.61820 0.83070 0.09200
C 	C 	0.77040 0.67630 0.85260 -0.14000
C 	C 	0.66910 0.67030 0.82690 -0.16700
H 	H 	0.62300 0.70590 0.85380 0.09000
C 	C 	0.63380 0.61350 0.76320 -0.14400
H 	H 	0.56410 0.61070 0.74800 0.09100
C 	C 	0.80840 0.74680 0.91250 0.33800
C 	C 	0.78850 0.71750 0.60750 -0.14200
H 	H 	0.81970 0.68000 0.56970 0.06800
C 	C 	0.83740 0.76490 0.67590 -0.18300
H 	H 	0.90700 0.76470 0.69180 0.07400
C 	C 	0.76400 0.81270 0.71620 -0.19500
H 	H 	0.77580 0.85010 0.76380 0.09700
C 	C 	0.66960 0.79490 0.67270 -0.12900
H 	H 	0.60730 0.81820 0.68620 0.06200
C 	C 	0.68490 0.73600 0.60560 -0.13600
H 	H 	0.63450 0.71310 0.56630 0.07700
Ni	Ni	0.26204 0.59056 0.50295 1.11600
Fe	Fe	0.21482 0.84685 0.74208 1.16100
Fe	Fe	0.24385 0.81166 0.22419 1.17500
O 	O 	0.39850 0.66240 0.67180 -0.31900
O 	O 	0.24080 0.64220 0.62170 -0.43300
O 	O 	0.08290 0.91570 0.93660 -0.41200
O 	O 	0.23700 0.96830 0.94660 -0.43700
O 	O 	0.08610 0.10720 0.97760 -0.61900
H 	H 	0.07040 0.12580 0.91820 0.22100
H 	H 	0.06640 0.15560 0.01430 0.19600
O 	O 	0.22480 0.03970 0.11530 -0.48900
O 	O 	0.07760 0.97310 0.11090 -0.46400
O 	O 	0.40130 0.74150 0.42050 -0.30700
O 	O 	0.24560 0.71200 0.44970 -0.41900
C 	C 	0.30450 0.67000 0.67320 0.35500
C 	C 	0.27080 0.72310 0.74820 -0.16700
C 	C 	0.17060 0.72380 0.76900 -0.16000
H 	H 	0.12360 0.68550 0.74030 0.06200
C 	C 	0.14010 0.77870 0.82960 -0.12800
H 	H 	0.07360 0.77500 0.84570 0.07200
C 	C 	0.20740 0.84220 0.86970 -0.19300
C 	C 	0.30800 0.83890 0.85070 -0.14000
H 	H 	0.35480 0.87800 0.87850 0.07700
C 	C 	0.34090 0.77810 0.79100 -0.13700
H 	H 	0.40930 0.77490 0.78040 0.07300
C 	C 	0.17440 0.91520 0.92370 0.41400
C 	C 	0.18900 0.86460 0.61310 -0.13300
H 	H 	0.19350 0.82090 0.57090 0.06900
C 	C 	0.10560 0.89140 0.65600 -0.13200
H 	H 	0.04000 0.86800 0.64910 0.04900
C 	C 	0.14000 0.96080 0.71170 -0.22400
H 	H 	0.09830 0.99370 0.74560 0.10900
C 	C 	0.24110 0.97390 0.70980 0.01700
H 	H 	0.28210 0.01260 0.74430 -0.02000
C 	C 	0.26830 0.92300 0.65180 -0.24000
H 	H 	0.33450 0.92260 0.63480 0.10300
C 	C 	0.16030 0.98810 0.14210 0.44500
C 	C 	0.19650 0.93840 0.22170 -0.18500
C 	C 	0.29660 0.93380 0.24750 -0.13500
H 	H 	0.34250 0.96870 0.21960 0.07000
C 	C 	0.33150 0.88010 0.31250 -0.15100
H 	H 	0.40060 0.88180 0.33070 0.08300
C 	C 	0.27040 0.82370 0.35260 -0.14800
C 	C 	0.16910 0.82970 0.32690 -0.17000
H 	H 	0.12300 0.79410 0.35380 0.07700
C 	C 	0.13380 0.88650 0.26320 -0.13700
H 	H 	0.06410 0.88930 0.24800 0.07800
C 	C 	0.30840 0.75320 0.41250 0.34300
C 	C 	0.28850 0.78250 0.10750 -0.15100
H 	H 	0.31970 0.82000 0.06970 0.05500
C 	C 	0.33740 0.73510 0.17590 -0.18700
H 	H 	0.40700 0.73530 0.19180 0.05800
C 	C 	0.26400 0.68730 0.21620 -0.20400
H 	H 	0.27580 0.64990 0.26380 0.09000
C 	C 	0.16960 0.70510 0.17270 -0.13600
H 	H 	0.10730 0.68180 0.18620 0.04400
C 	C 	0.18490 0.76400 0.10560 -0.14200
H 	H 	0.13450 0.78690 0.06630 0.05700
Ni	Ni	0.23796 0.09056 0.99705 1.12400
Fe	Fe	0.28518 0.34685 0.75792 1.16300
Fe	Fe	0.25615 0.31166 0.27581 1.17600
O 	O 	0.10150 0.16240 0.82820 -0.33600
O 	O 	0.25920 0.14220 0.87830 -0.43100
O 	O 	0.41710 0.41570 0.56340 -0.42700
O 	O 	0.26300 0.46830 0.55340 -0.47300
O 	O 	0.41390 0.60720 0.52240 -0.65700
H 	H 	0.42960 0.62580 0.58180 0.23800
H 	H 	0.43360 0.65560 0.48570 0.23900
O 	O 	0.27520 0.53970 0.38470 -0.43800
O 	O 	0.42240 0.47310 0.38910 -0.44200
O 	O 	0.09870 0.24150 0.07950 -0.33300
O 	O 	0.25440 0.21200 0.05030 -0.43900
C 	C 	0.19550 0.17000 0.82680 0.35500
C 	C 	0.22920 0.22310 0.75180 -0.17200
C 	C 	0.32940 0.22380 0.73100 -0.16200
H 	H 	0.37640 0.18550 0.75970 0.06800
C 	C 	0.35990 0.27870 0.67040 -0.13000
H 	H 	0.42640 0.27500 0.65430 0.08000
C 	C 	0.29260 0.34220 0.63030 -0.20300
C 	C 	0.19200 0.33890 0.64930 -0.14400
H 	H 	0.14520 0.37800 0.62150 0.05800
C 	C 	0.15910 0.27810 0.70900 -0.14300
H 	H 	0.09070 0.27490 0.71960 0.05900
C 	C 	0.32560 0.41520 0.57630 0.41700
C 	C 	0.31100 0.36460 0.88690 -0.15200
H 	H 	0.30650 0.32090 0.92910 0.08800
C 	C 	0.39440 0.39140 0.84400 -0.14900
H 	H 	0.46000 0.36800 0.85090 0.06900
C 	C 	0.36000 0.46080 0.78830 -0.15500
H 	H 	0.40170 0.49370 0.75440 0.08300
C 	C 	0.25890 0.47390 0.79020 -0.12200
H 	H 	0.21790 0.51260 0.75570 0.05300
C 	C 	0.23170 0.42300 0.84820 -0.15900
H 	H 	0.16550 0.42260 0.86520 0.06800
C 	C 	0.33970 0.48810 0.35790 0.39500
C 	C 	0.30350 0.43840 0.27830 -0.16400
C 	C 	0.20340 0.43380 0.25250 -0.16000
H 	H 	0.15750 0.46870 0.28040 0.06200
C 	C 	0.16850 0.38010 0.18750 -0.13700
H 	H 	0.09940 0.38180 0.16930 0.06000
C 	C 	0.22960 0.32370 0.14740 -0.17100
C 	C 	0.33090 0.32970 0.17310 -0.15400
H 	H 	0.37700 0.29410 0.14620 0.07300
C 	C 	0.36620 0.38650 0.23680 -0.15900
H 	H 	0.43590 0.38930 0.25200 0.09300
C 	C 	0.19160 0.25320 0.08750 0.35000
C 	C 	0.21150 0.28250 0.39250 -0.15200
H 	H 	0.18030 0.32000 0.43030 0.05700
C 	C 	0.16260 0.23510 0.32410 -0.18700
H 	H 	0.09300 0.23530 0.30820 0.04300
C 	C 	0.23600 0.18730 0.28380 -0.20800
H 	H 	0.22420 0.14990 0.23620 0.08500
C 	C 	0.33040 0.20510 0.32730 -0.13300
H 	H 	0.39270 0.18180 0.31380 0.05300
C 	C 	0.31510 0.26400 0.39440 -0.14000
H 	H 	0.36550 0.28690 0.43370 0.07400
Ni	Ni	-0.00000 0.00000 -0.00000 1.10300
Ni	Ni	0.50000 0.50000 0.50000 1.15500
