data_crystal

_cell_length_a 16.54080
_cell_length_b 17.45890
_cell_length_c 17.45890
_cell_angle_alpha 97.99610
_cell_angle_beta  95.47190
_cell_angle_gamma 84.52810

_symmetry_space_group_name_	'P 1'
_symmetry_space_group_name_H-M	'P 1'

loop_
_symmetry_equiv_pos_as_xyz
  x,y,z

loop_
_atom_site_label
_atom_site_type_symbol
_atom_site_fract_x
_atom_site_fract_y
_atom_site_fract_z
_atom_site_charge
Zn	Zn	0.04291 0.47921 0.24657 1.18900
Zn	Zn	0.86283 0.93621 0.28823 1.17700
Zn	Zn	0.77429 0.75506 0.25830 1.15600
Zn	Zn	0.67950 0.57748 0.23162 1.18200
Zn	Zn	0.03905 0.20660 0.41652 1.20200
Zn	Zn	0.00802 0.23779 0.01415 1.18400
Zn	Zn	0.02842 0.04315 0.27687 1.19600
Zn	Zn	0.45709 0.24657 0.47921 1.19000
Zn	Zn	0.63717 0.28823 0.93621 1.17800
Zn	Zn	0.72571 0.25830 0.75506 1.15600
Zn	Zn	0.82050 0.23162 0.57748 1.18300
Zn	Zn	0.46095 0.41652 0.20660 1.20400
Zn	Zn	0.49198 0.01415 0.23779 1.18800
Zn	Zn	0.47158 0.27687 0.04315 1.20000
Zn	Zn	0.95709 0.52079 0.75343 1.19000
Zn	Zn	0.13717 0.06379 0.71177 1.17800
Zn	Zn	0.22571 0.24494 0.74170 1.15700
Zn	Zn	0.32050 0.42252 0.76838 1.18300
Zn	Zn	0.96095 0.79340 0.58348 1.20300
Zn	Zn	0.99198 0.76221 0.98585 1.18500
Zn	Zn	0.97158 0.95685 0.72313 1.19700
Zn	Zn	0.54291 0.75343 0.52079 1.19100
Zn	Zn	0.36283 0.71177 0.06379 1.17900
Zn	Zn	0.27429 0.74170 0.24494 1.15700
Zn	Zn	0.17950 0.76838 0.42252 1.18300
Zn	Zn	0.53905 0.58348 0.79340 1.20400
Zn	Zn	0.50802 0.98585 0.76221 1.18800
Zn	Zn	0.52842 0.72313 0.95685 1.20000
H 	H 	0.89970 0.06580 0.34160 0.23300
H 	H 	0.14030 0.10300 0.36300 0.19200
H 	H 	0.81880 0.66520 0.09860 0.12800
H 	H 	0.87160 0.66760 0.03460 0.15900
H 	H 	0.97050 0.90030 0.13250 -0.06300
H 	H 	0.79600 0.42190 0.21030 0.15900
H 	H 	0.88560 0.40110 0.21390 0.15000
H 	H 	0.95650 0.65140 0.25920 -0.04600
H 	H 	0.71450 0.84580 0.11500 0.12400
H 	H 	0.65090 0.84620 0.04860 0.12300
H 	H 	0.55780 0.61470 0.07910 -0.06400
H 	H 	0.06660 0.64090 0.44630 0.12800
H 	H 	0.03900 0.56720 0.40280 0.11200
H 	H 	0.18130 0.57630 0.19070 -0.04000
H 	H 	0.94030 0.98040 0.46040 0.10300
H 	H 	0.96260 0.94060 0.53060 0.09200
H 	H 	0.87650 0.70600 0.42080 -0.04400
H 	H 	0.73700 0.08950 0.27430 0.13500
H 	H 	0.64680 0.10640 0.26620 0.13100
H 	H 	0.59010 0.85360 0.26100 -0.04100
H 	H 	0.94540 0.19860 0.24280 0.12500
H 	H 	0.94960 0.25100 0.18320 0.14400
H 	H 	0.05810 0.97870 0.10330 -0.02000
H 	H 	0.25130 0.32420 0.44540 0.14300
H 	H 	0.20150 0.26130 0.45890 0.10700
H 	H 	0.96460 0.35230 0.33470 -0.04400
H 	H 	0.60030 0.34160 0.06580 0.23300
H 	H 	0.35970 0.36300 0.10300 0.19200
H 	H 	0.68120 0.09860 0.66520 0.12800
H 	H 	0.62840 0.03460 0.66760 0.15800
H 	H 	0.52950 0.13250 0.90030 -0.06200
H 	H 	0.70400 0.21030 0.42190 0.15900
H 	H 	0.61440 0.21390 0.40110 0.14900
H 	H 	0.54350 0.25920 0.65140 -0.04600
H 	H 	0.78550 0.11500 0.84580 0.12400
H 	H 	0.84910 0.04860 0.84620 0.12500
H 	H 	0.94220 0.07910 0.61470 -0.06100
H 	H 	0.43340 0.44630 0.64090 0.12700
H 	H 	0.46100 0.40280 0.56720 0.11200
H 	H 	0.31870 0.19070 0.57630 -0.04000
H 	H 	0.55970 0.46040 0.98040 0.10500
H 	H 	0.53740 0.53060 0.94060 0.09500
H 	H 	0.62350 0.42080 0.70600 -0.04400
H 	H 	0.76300 0.27430 0.08950 0.13400
H 	H 	0.85320 0.26620 0.10640 0.13300
H 	H 	0.90990 0.26100 0.85360 -0.04100
H 	H 	0.55460 0.24280 0.19860 0.12400
H 	H 	0.55040 0.18320 0.25100 0.14400
H 	H 	0.44190 0.10330 0.97870 -0.03000
H 	H 	0.24870 0.44540 0.32420 0.14300
H 	H 	0.29850 0.45890 0.26130 0.10700
H 	H 	0.53540 0.33470 0.35230 -0.05100
H 	H 	0.10030 0.93420 0.65840 0.23300
H 	H 	0.85970 0.89700 0.63700 0.19200
H 	H 	0.18120 0.33480 0.90140 0.12800
H 	H 	0.12840 0.33240 0.96540 0.15900
H 	H 	0.02950 0.09970 0.86750 -0.06300
H 	H 	0.20400 0.57810 0.78970 0.15900
H 	H 	0.11440 0.59890 0.78610 0.15000
H 	H 	0.04350 0.34860 0.74080 -0.04600
H 	H 	0.28550 0.15420 0.88500 0.12400
H 	H 	0.34910 0.15380 0.95140 0.12300
H 	H 	0.44220 0.38530 0.92090 -0.06400
H 	H 	0.93340 0.35910 0.55370 0.12800
H 	H 	0.96100 0.43280 0.59720 0.11200
H 	H 	0.81870 0.42370 0.80930 -0.04000
H 	H 	0.05970 0.01960 0.53960 0.10300
H 	H 	0.03740 0.05940 0.46940 0.09200
H 	H 	0.12350 0.29400 0.57920 -0.04400
H 	H 	0.26300 0.91050 0.72570 0.13500
H 	H 	0.35320 0.89360 0.73380 0.13100
H 	H 	0.40990 0.14640 0.73900 -0.04100
H 	H 	0.05460 0.80140 0.75720 0.12500
H 	H 	0.05040 0.74900 0.81680 0.14400
H 	H 	0.94190 0.02130 0.89670 -0.02000
H 	H 	0.74870 0.67580 0.55460 0.14300
H 	H 	0.79850 0.73870 0.54110 0.10700
H 	H 	0.03540 0.64770 0.66530 -0.04400
H 	H 	0.39970 0.65840 0.93420 0.23300
H 	H 	0.64030 0.63700 0.89700 0.19200
H 	H 	0.31880 0.90140 0.33480 0.12800
H 	H 	0.37160 0.96540 0.33240 0.15800
H 	H 	0.47050 0.86750 0.09970 -0.06200
H 	H 	0.29600 0.78970 0.57810 0.15900
H 	H 	0.38560 0.78610 0.59890 0.14900
H 	H 	0.45650 0.74080 0.34860 -0.04600
H 	H 	0.21450 0.88500 0.15420 0.12400
H 	H 	0.15090 0.95140 0.15380 0.12500
H 	H 	0.05780 0.92090 0.38530 -0.06100
H 	H 	0.56660 0.55370 0.35910 0.12700
H 	H 	0.53900 0.59720 0.43280 0.11200
H 	H 	0.68130 0.80930 0.42370 -0.04000
H 	H 	0.44030 0.53960 0.01960 0.10500
H 	H 	0.46260 0.46940 0.05940 0.09500
H 	H 	0.37650 0.57920 0.29400 -0.04400
H 	H 	0.23700 0.72570 0.91050 0.13400
H 	H 	0.14680 0.73380 0.89360 0.13300
H 	H 	0.09010 0.73900 0.14640 -0.04100
H 	H 	0.44540 0.75720 0.80140 0.12400
H 	H 	0.44960 0.81680 0.74900 0.14400
H 	H 	0.55810 0.89670 0.02130 -0.03000
H 	H 	0.75130 0.55460 0.67580 0.14300
H 	H 	0.70150 0.54110 0.73870 0.10700
H 	H 	0.46460 0.66530 0.64770 -0.05100
C 	C 	0.04250 0.36630 0.12050 0.49600
C 	C 	0.62330 0.43090 0.18810 0.50200
C 	C 	0.87660 0.75690 0.11190 0.18600
C 	C 	0.93730 0.86110 0.13630 0.10200
C 	C 	0.85810 0.51250 0.22870 0.18600
C 	C 	0.91640 0.61660 0.25040 0.10100
C 	C 	0.65110 0.75780 0.10260 0.18600
C 	C 	0.59230 0.65400 0.09540 0.08600
C 	C 	0.11460 0.61350 0.34770 0.17800
C 	C 	0.16750 0.59730 0.24010 0.10000
C 	C 	0.91340 0.87320 0.44440 0.16300
C 	C 	0.88300 0.75760 0.41680 0.09600
C 	C 	0.67930 0.99790 0.26850 0.18700
C 	C 	0.62780 0.89040 0.26400 0.08600
C 	C 	0.00210 0.14660 0.15320 0.17200
C 	C 	0.04510 0.03200 0.10900 0.04600
C 	C 	0.13940 0.33550 0.39530 0.16800
C 	C 	0.01990 0.35620 0.34840 0.10900
C 	C 	0.45750 0.12050 0.36630 0.50700
C 	C 	0.87670 0.18810 0.43090 0.50300
C 	C 	0.62340 0.11190 0.75690 0.18500
C 	C 	0.56270 0.13630 0.86110 0.10200
C 	C 	0.64190 0.22870 0.51250 0.18500
C 	C 	0.58360 0.25040 0.61660 0.10000
C 	C 	0.84890 0.10260 0.75780 0.18700
C 	C 	0.90770 0.09540 0.65400 0.08600
C 	C 	0.38540 0.34770 0.61350 0.17800
C 	C 	0.33250 0.24010 0.59730 0.10000
C 	C 	0.58660 0.44440 0.87320 0.16500
C 	C 	0.61700 0.41680 0.75760 0.09600
C 	C 	0.82070 0.26850 0.99790 0.18600
C 	C 	0.87220 0.26400 0.89040 0.08600
C 	C 	0.49790 0.15320 0.14660 0.18100
C 	C 	0.45490 0.10900 0.03200 0.06100
C 	C 	0.36060 0.39530 0.33550 0.16800
C 	C 	0.48010 0.34840 0.35620 0.11900
C 	C 	0.95750 0.63370 0.87950 0.49600
C 	C 	0.37670 0.56910 0.81190 0.50200
C 	C 	0.12340 0.24310 0.88810 0.18600
C 	C 	0.06270 0.13890 0.86370 0.10200
C 	C 	0.14190 0.48750 0.77130 0.18600
C 	C 	0.08360 0.38340 0.74960 0.10100
C 	C 	0.34890 0.24220 0.89740 0.18600
C 	C 	0.40770 0.34600 0.90460 0.08600
C 	C 	0.88540 0.38650 0.65230 0.17800
C 	C 	0.83250 0.40270 0.75990 0.10000
C 	C 	0.08660 0.12680 0.55560 0.16300
C 	C 	0.11700 0.24240 0.58320 0.09600
C 	C 	0.32070 0.00210 0.73150 0.18700
C 	C 	0.37220 0.10960 0.73600 0.08600
C 	C 	0.99790 0.85340 0.84680 0.17200
C 	C 	0.95490 0.96800 0.89100 0.04600
C 	C 	0.86060 0.66450 0.60470 0.16800
C 	C 	0.98010 0.64380 0.65160 0.10900
C 	C 	0.54250 0.87950 0.63370 0.50700
C 	C 	0.12330 0.81190 0.56910 0.50300
C 	C 	0.37660 0.88810 0.24310 0.18500
C 	C 	0.43730 0.86370 0.13890 0.10200
C 	C 	0.35810 0.77130 0.48750 0.18500
C 	C 	0.41640 0.74960 0.38340 0.10000
C 	C 	0.15110 0.89740 0.24220 0.18700
C 	C 	0.09230 0.90460 0.34600 0.08600
C 	C 	0.61460 0.65230 0.38650 0.17800
C 	C 	0.66750 0.75990 0.40270 0.10000
C 	C 	0.41340 0.55560 0.12680 0.16500
C 	C 	0.38300 0.58320 0.24240 0.09600
C 	C 	0.17930 0.73150 0.00210 0.18600
C 	C 	0.12780 0.73600 0.10960 0.08600
C 	C 	0.50210 0.84680 0.85340 0.18100
C 	C 	0.54510 0.89100 0.96800 0.06100
C 	C 	0.63940 0.60470 0.66450 0.16800
C 	C 	0.51990 0.65160 0.64380 0.11900
N 	N 	0.93080 0.79708 0.08272 -0.29700
N 	N 	0.85090 0.79338 0.17862 -0.26000
N 	N 	0.89200 0.86171 0.19389 -0.27400
N 	N 	0.85280 0.68850 0.07770 -0.34400
N 	N 	0.93300 0.53904 0.23896 -0.31000
N 	N 	0.79970 0.57004 0.23296 -0.28500
N 	N 	0.83810 0.63828 0.24772 -0.24200
N 	N 	0.84490 0.43570 0.21610 -0.34900
N 	N 	0.59150 0.71785 0.06075 -0.31400
N 	N 	0.68560 0.72125 0.16055 -0.25500
N 	N 	0.64660 0.65295 0.15465 -0.26700
N 	N 	0.67500 0.82460 0.08680 -0.33400
N 	N 	0.11670 0.56530 0.28090 -0.30300
N 	N 	0.16000 0.67212 0.34908 -0.27500
N 	N 	0.19490 0.66132 0.27808 -0.24200
N 	N 	0.06760 0.60620 0.40620 -0.33000
N 	N 	0.91680 0.80681 0.47539 -0.31000
N 	N 	0.88100 0.86620 0.37140 -0.27900
N 	N 	0.86050 0.78990 0.35370 -0.24700
N 	N 	0.94230 0.93950 0.48330 -0.31800
N 	N 	0.60630 0.96803 0.26137 -0.30600
N 	N 	0.74150 0.94370 0.27390 -0.28400
N 	N 	0.70710 0.87348 0.27112 -0.23500
N 	N 	0.68890 0.07380 0.26980 -0.33600
N 	N 	0.02020 0.07770 0.17370 -0.31900
N 	N 	0.01540 0.15151 0.07969 -0.27300
N 	N 	0.04710 0.07850 0.05610 -0.11900
N 	N 	0.96040 0.20630 0.19890 -0.33400
N 	N 	0.06520 0.30660 0.38880 -0.31600
N 	N 	0.13930 0.39860 0.36200 -0.14600
N 	N 	0.05920 0.41070 0.32990 -0.26400
N 	N 	0.20590 0.30280 0.43880 -0.31900
N 	N 	0.56920 0.08272 0.79708 -0.29800
N 	N 	0.64910 0.17862 0.79338 -0.26000
N 	N 	0.60800 0.19389 0.86171 -0.27400
N 	N 	0.64720 0.07770 0.68850 -0.34300
N 	N 	0.56700 0.23896 0.53904 -0.31100
N 	N 	0.70030 0.23296 0.57004 -0.28500
N 	N 	0.66190 0.24772 0.63828 -0.24200
N 	N 	0.65510 0.21610 0.43570 -0.34900
N 	N 	0.90850 0.06075 0.71785 -0.31200
N 	N 	0.81440 0.16055 0.72125 -0.25500
N 	N 	0.85340 0.15465 0.65295 -0.26700
N 	N 	0.82500 0.08680 0.82460 -0.33400
N 	N 	0.38330 0.28090 0.56530 -0.30200
N 	N 	0.34000 0.34908 0.67212 -0.27500
N 	N 	0.30510 0.27808 0.66132 -0.24200
N 	N 	0.43240 0.40620 0.60620 -0.32900
N 	N 	0.58320 0.47539 0.80681 -0.30900
N 	N 	0.61900 0.37140 0.86620 -0.27800
N 	N 	0.63950 0.35370 0.78990 -0.24700
N 	N 	0.55770 0.48330 0.93950 -0.31900
N 	N 	0.89370 0.26137 0.96803 -0.30600
N 	N 	0.75850 0.27390 0.94370 -0.28400
N 	N 	0.79290 0.27112 0.87348 -0.23500
N 	N 	0.81110 0.26980 0.07380 -0.33500
N 	N 	0.47980 0.17370 0.07770 -0.32000
N 	N 	0.48460 0.07969 0.15151 -0.27200
N 	N 	0.45290 0.05610 0.07850 -0.12000
N 	N 	0.53960 0.19890 0.20630 -0.34000
N 	N 	0.43480 0.38880 0.30660 -0.31700
N 	N 	0.36070 0.36200 0.39860 -0.14600
N 	N 	0.44080 0.32990 0.41070 -0.26500
N 	N 	0.29410 0.43880 0.30280 -0.31900
N 	N 	0.06920 0.20292 0.91728 -0.29700
N 	N 	0.14910 0.20662 0.82138 -0.26000
N 	N 	0.10800 0.13829 0.80611 -0.27400
N 	N 	0.14720 0.31150 0.92230 -0.34400
N 	N 	0.06700 0.46096 0.76104 -0.31000
N 	N 	0.20030 0.42996 0.76704 -0.28500
N 	N 	0.16190 0.36172 0.75228 -0.24200
N 	N 	0.15510 0.56430 0.78390 -0.34900
N 	N 	0.40850 0.28215 0.93925 -0.31400
N 	N 	0.31440 0.27875 0.83945 -0.25500
N 	N 	0.35340 0.34705 0.84535 -0.26700
N 	N 	0.32500 0.17540 0.91320 -0.33400
N 	N 	0.88330 0.43470 0.71910 -0.30300
N 	N 	0.84000 0.32788 0.65092 -0.27500
N 	N 	0.80510 0.33868 0.72192 -0.24200
N 	N 	0.93240 0.39380 0.59380 -0.33000
N 	N 	0.08320 0.19319 0.52461 -0.31000
N 	N 	0.11900 0.13380 0.62860 -0.27900
N 	N 	0.13950 0.21010 0.64630 -0.24700
N 	N 	0.05770 0.06050 0.51670 -0.31800
N 	N 	0.39370 0.03197 0.73863 -0.30600
N 	N 	0.25850 0.05630 0.72610 -0.28400
N 	N 	0.29290 0.12652 0.72888 -0.23500
N 	N 	0.31110 0.92620 0.73020 -0.33600
N 	N 	0.97980 0.92230 0.82630 -0.31900
N 	N 	0.98460 0.84849 0.92031 -0.27300
N 	N 	0.95290 0.92150 0.94390 -0.11900
N 	N 	0.03960 0.79370 0.80110 -0.33400
N 	N 	0.93480 0.69340 0.61120 -0.31600
N 	N 	0.86070 0.60140 0.63800 -0.14600
N 	N 	0.94080 0.58930 0.67010 -0.26400
N 	N 	0.79410 0.69720 0.56120 -0.31900
N 	N 	0.43080 0.91728 0.20292 -0.29800
N 	N 	0.35090 0.82138 0.20662 -0.26000
N 	N 	0.39200 0.80611 0.13829 -0.27400
N 	N 	0.35280 0.92230 0.31150 -0.34300
N 	N 	0.43300 0.76104 0.46096 -0.31100
N 	N 	0.29970 0.76704 0.42996 -0.28500
N 	N 	0.33810 0.75228 0.36172 -0.24200
N 	N 	0.34490 0.78390 0.56430 -0.34900
N 	N 	0.09150 0.93925 0.28215 -0.31200
N 	N 	0.18560 0.83945 0.27875 -0.25500
N 	N 	0.14660 0.84535 0.34705 -0.26700
N 	N 	0.17500 0.91320 0.17540 -0.33400
N 	N 	0.61670 0.71910 0.43470 -0.30200
N 	N 	0.66000 0.65092 0.32788 -0.27500
N 	N 	0.69490 0.72192 0.33868 -0.24200
N 	N 	0.56760 0.59380 0.39380 -0.32900
N 	N 	0.41680 0.52461 0.19319 -0.30900
N 	N 	0.38100 0.62860 0.13380 -0.27800
N 	N 	0.36050 0.64630 0.21010 -0.24700
N 	N 	0.44230 0.51670 0.06050 -0.31900
N 	N 	0.10630 0.73863 0.03197 -0.30600
N 	N 	0.24150 0.72610 0.05630 -0.28400
N 	N 	0.20710 0.72888 0.12652 -0.23500
N 	N 	0.18890 0.73020 0.92620 -0.33500
N 	N 	0.52020 0.82630 0.92230 -0.32000
N 	N 	0.51540 0.92031 0.84849 -0.27200
N 	N 	0.54710 0.94390 0.92150 -0.12000
N 	N 	0.46040 0.80110 0.79370 -0.34000
N 	N 	0.56520 0.61120 0.69340 -0.31700
N 	N 	0.63930 0.63800 0.60140 -0.14600
N 	N 	0.55920 0.67010 0.58930 -0.26500
N 	N 	0.70590 0.56120 0.69720 -0.31900
O 	O 	0.92390 0.02450 0.30990 -0.76400
O 	O 	0.08430 0.11445 0.35445 -0.73000
O 	O 	0.98000 0.35003 0.14817 -0.44200
O 	O 	0.08360 0.42432 0.15150 -0.51000
O 	O 	0.07000 0.32468 0.05988 -0.52300
O 	O 	0.61390 0.49379 0.23481 -0.59300
O 	O 	0.57180 0.37910 0.18690 -0.54000
O 	O 	0.68530 0.40660 0.15160 -0.39400
O 	O 	0.57610 0.30990 0.02450 -0.77100
O 	O 	0.41570 0.35445 0.11445 -0.72700
O 	O 	0.52000 0.14817 0.35003 -0.45200
O 	O 	0.41640 0.15150 0.42432 -0.51200
O 	O 	0.43000 0.05988 0.32468 -0.52300
O 	O 	0.88610 0.23481 0.49379 -0.59100
O 	O 	0.92820 0.18690 0.37910 -0.53700
O 	O 	0.81470 0.15160 0.40660 -0.39300
O 	O 	0.07610 0.97550 0.69010 -0.76400
O 	O 	0.91570 0.88555 0.64555 -0.73000
O 	O 	0.02000 0.64997 0.85183 -0.44200
O 	O 	0.91640 0.57568 0.84850 -0.51000
O 	O 	0.93000 0.67532 0.94012 -0.52300
O 	O 	0.38610 0.50621 0.76519 -0.59300
O 	O 	0.42820 0.62090 0.81310 -0.54000
O 	O 	0.31470 0.59340 0.84840 -0.39400
O 	O 	0.42390 0.69010 0.97550 -0.77100
O 	O 	0.58430 0.64555 0.88555 -0.72700
O 	O 	0.48000 0.85183 0.64997 -0.45200
O 	O 	0.58360 0.84850 0.57568 -0.51200
O 	O 	0.57000 0.94012 0.67532 -0.52300
O 	O 	0.11390 0.76519 0.50621 -0.59100
O 	O 	0.07180 0.81310 0.62090 -0.53700
O 	O 	0.18530 0.84840 0.59340 -0.39300
