data_crystal

_cell_length_a 3.67690
_cell_length_b 8.20420
_cell_length_c 26.29200
_cell_angle_alpha 90.00000
_cell_angle_beta  92.92400
_cell_angle_gamma 90.00000

_symmetry_space_group_name_	'P 1'
_symmetry_space_group_name_H-M	'P 1'

loop_
_symmetry_equiv_pos_as_xyz
  x,y,z

loop_
_atom_site_label
_atom_site_type_symbol
_atom_site_fract_x
_atom_site_fract_y
_atom_site_fract_z
_atom_site_charge
K 	K 	0.93767 0.27204 0.77711 0.65800
K 	K 	0.06233 0.77204 0.72289 0.65800
K 	K 	0.06233 0.72796 0.22289 0.65800
K 	K 	0.93767 0.22796 0.27711 0.65800
H 	H 	0.50100 0.54600 0.82520 0.34600
H 	H 	0.47200 0.46100 0.86800 0.34300
H 	H 	0.46480 0.66250 0.62080 -0.00100
H 	H 	0.08620 0.20320 0.61370 -0.00500
H 	H 	0.88940 0.24900 0.52930 0.07400
H 	H 	0.49900 0.04600 0.67480 0.34500
H 	H 	0.52800 0.96100 0.63200 0.34300
H 	H 	0.53520 0.16250 0.87920 -0.00000
H 	H 	0.91380 0.70320 0.88630 -0.00500
H 	H 	0.11060 0.74900 0.97070 0.07300
H 	H 	0.49900 0.45400 0.17480 0.34600
H 	H 	0.52800 0.53900 0.13200 0.34300
H 	H 	0.53520 0.33750 0.37920 -0.00100
H 	H 	0.91380 0.79680 0.38630 -0.00500
H 	H 	0.11060 0.75100 0.47070 0.07400
H 	H 	0.50100 0.95400 0.32520 0.34500
H 	H 	0.47200 0.03900 0.36800 0.34300
H 	H 	0.46480 0.83750 0.12080 -0.00000
H 	H 	0.08620 0.29680 0.11370 -0.00500
H 	H 	0.88940 0.25100 0.02930 0.07300
C 	C 	0.06500 0.48320 0.52690 0.07900
C 	C 	0.34730 0.57660 0.60212 0.08200
C 	C 	0.30190 0.42960 0.62636 -0.15000
C 	C 	0.12560 0.30620 0.59838 0.06600
C 	C 	0.00840 0.33310 0.54857 -0.13000
C 	C 	0.44180 0.40400 0.68102 0.34300
C 	C 	0.93500 0.98320 0.97310 0.08000
C 	C 	0.65270 0.07660 0.89788 0.08000
C 	C 	0.69810 0.92960 0.87364 -0.14900
C 	C 	0.87440 0.80620 0.90162 0.06500
C 	C 	0.99160 0.83310 0.95143 -0.13000
C 	C 	0.55820 0.90400 0.81898 0.34300
C 	C 	0.93500 0.51680 0.47310 0.07900
C 	C 	0.65270 0.42340 0.39788 0.08200
C 	C 	0.69810 0.57040 0.37364 -0.15000
C 	C 	0.87440 0.69380 0.40162 0.06600
C 	C 	0.99160 0.66690 0.45143 -0.13000
C 	C 	0.55820 0.59600 0.31898 0.34300
C 	C 	0.06500 0.01680 0.02690 0.08000
C 	C 	0.34730 0.92340 0.10212 0.08000
C 	C 	0.30190 0.07040 0.12636 -0.14900
C 	C 	0.12560 0.19380 0.09838 0.06500
C 	C 	0.00840 0.16690 0.04857 -0.13000
C 	C 	0.44180 0.09600 0.18102 0.34300
N 	N 	0.23410 0.60530 0.55333 -0.13700
N 	N 	0.76590 0.10530 0.94667 -0.13800
N 	N 	0.76590 0.39470 0.44667 -0.13700
N 	N 	0.23410 0.89470 0.05333 -0.13800
O 	O 	0.40910 0.26320 0.69934 -0.39100
O 	O 	0.57840 0.52380 0.70422 -0.39100
O 	O 	0.45070 0.45340 0.83661 -0.78500
O 	O 	0.59090 0.76320 0.80066 -0.39100
O 	O 	0.42160 0.02380 0.79578 -0.39200
O 	O 	0.54930 0.95340 0.66339 -0.78300
O 	O 	0.59090 0.73680 0.30066 -0.39100
O 	O 	0.42160 0.47620 0.29578 -0.39100
O 	O 	0.54930 0.54660 0.16339 -0.78500
O 	O 	0.40910 0.23680 0.19934 -0.39100
O 	O 	0.57840 0.97620 0.20422 -0.39200
O 	O 	0.45070 0.04660 0.33661 -0.78300
