data_crystal

_cell_length_a 5.55200
_cell_length_b 13.36860
_cell_length_c 20.79700
_cell_angle_alpha 90.00000
_cell_angle_beta  95.57700
_cell_angle_gamma 90.00000

_symmetry_space_group_name_	'P 1'
_symmetry_space_group_name_H-M	'P 1'

loop_
_symmetry_equiv_pos_as_xyz
  x,y,z

loop_
_atom_site_label
_atom_site_type_symbol
_atom_site_fract_x
_atom_site_fract_y
_atom_site_fract_z
_atom_site_charge
Eu	Eu	0.87235 0.63267 0.52782 1.75200
Eu	Eu	0.12765 0.13267 0.97218 1.74300
Eu	Eu	0.12765 0.36733 0.47218 1.75200
Eu	Eu	0.87235 0.86733 0.02782 1.74300
P 	P 	0.58990 0.52088 0.41395 0.47900
P 	P 	0.41010 0.02088 0.08605 0.47900
P 	P 	0.41010 0.47912 0.58605 0.47800
P 	P 	0.58990 0.97912 0.91395 0.47800
H 	H 	0.83450 0.58010 0.33670 0.07200
H 	H 	0.74040 0.47300 0.31730 0.09900
H 	H 	0.62190 0.72860 0.29860 0.03900
H 	H 	0.41450 0.69880 0.34130 0.04200
H 	H 	0.12540 0.70130 0.24860 0.05200
H 	H 	0.25340 0.80600 0.25480 0.04600
H 	H 	0.51480 0.75850 0.17550 0.06500
H 	H 	0.45160 0.59990 0.12240 0.02600
H 	H 	0.24870 0.57350 0.16740 0.03900
H 	H 	0.62540 0.49780 0.20990 0.04200
H 	H 	0.74790 0.60400 0.21520 0.04700
H 	H 	0.16550 0.08010 0.16330 0.07300
H 	H 	0.25960 0.97300 0.18270 0.10100
H 	H 	0.37810 0.22860 0.20140 0.04000
H 	H 	0.58550 0.19880 0.15870 0.04300
H 	H 	0.87460 0.20130 0.25140 0.05100
H 	H 	0.74660 0.30600 0.24520 0.04500
H 	H 	0.48520 0.25850 0.32450 0.06600
H 	H 	0.54840 0.09990 0.37760 0.02500
H 	H 	0.75130 0.07350 0.33260 0.03900
H 	H 	0.37460 0.99780 0.29010 0.04300
H 	H 	0.25210 0.10400 0.28480 0.04800
H 	H 	0.16550 0.41990 0.66330 0.07200
H 	H 	0.25960 0.52700 0.68270 0.09900
H 	H 	0.37810 0.27140 0.70140 0.03900
H 	H 	0.58550 0.30120 0.65870 0.04200
H 	H 	0.87460 0.29870 0.75140 0.05200
H 	H 	0.74660 0.19400 0.74520 0.04600
H 	H 	0.48520 0.24150 0.82450 0.06500
H 	H 	0.54840 0.40010 0.87760 0.02600
H 	H 	0.75130 0.42650 0.83260 0.03900
H 	H 	0.37460 0.50220 0.79010 0.04200
H 	H 	0.25210 0.39600 0.78480 0.04700
H 	H 	0.83450 0.91990 0.83670 0.07300
H 	H 	0.74040 0.02700 0.81730 0.10100
H 	H 	0.62190 0.77140 0.79860 0.04000
H 	H 	0.41450 0.80120 0.84130 0.04300
H 	H 	0.12540 0.79870 0.74860 0.05100
H 	H 	0.25340 0.69400 0.75480 0.04500
H 	H 	0.51480 0.74150 0.67550 0.06600
H 	H 	0.45160 0.90010 0.62240 0.02500
H 	H 	0.24870 0.92650 0.66740 0.03900
H 	H 	0.62540 0.00220 0.70990 0.04300
H 	H 	0.74790 0.89600 0.71520 0.04800
C 	C 	0.69220 0.53770 0.33280 -0.21400
C 	C 	0.47090 0.69220 0.29880 -0.07000
C 	C 	0.27830 0.73560 0.24640 -0.07000
C 	C 	0.36150 0.72300 0.17790 -0.12400
C 	C 	0.39960 0.60940 0.16510 -0.06200
C 	C 	0.59690 0.56820 0.21750 -0.07700
C 	C 	0.17040 0.76420 0.12510 0.32800
C 	C 	0.30780 0.03770 0.16720 -0.21700
C 	C 	0.52910 0.19220 0.20120 -0.07100
C 	C 	0.72170 0.23560 0.25360 -0.06900
C 	C 	0.63850 0.22300 0.32210 -0.12500
C 	C 	0.60040 0.10940 0.33490 -0.06100
C 	C 	0.40310 0.06820 0.28250 -0.07900
C 	C 	0.82960 0.26420 0.37490 0.32900
C 	C 	0.30780 0.46230 0.66720 -0.21400
C 	C 	0.52910 0.30780 0.70120 -0.07000
C 	C 	0.72170 0.26440 0.75360 -0.07000
C 	C 	0.63850 0.27700 0.82210 -0.12400
C 	C 	0.60040 0.39060 0.83490 -0.06200
C 	C 	0.40310 0.43180 0.78250 -0.07700
C 	C 	0.82960 0.23580 0.87490 0.32800
C 	C 	0.69220 0.96230 0.83280 -0.21700
C 	C 	0.47090 0.80780 0.79880 -0.07100
C 	C 	0.27830 0.76440 0.74640 -0.06900
C 	C 	0.36150 0.77700 0.67790 -0.12500
C 	C 	0.39960 0.89060 0.66510 -0.06100
C 	C 	0.59690 0.93180 0.71750 -0.07900
C 	C 	0.17040 0.73580 0.62510 0.32900
N 	N 	0.50950 0.58220 0.28340 -0.07000
N 	N 	0.49050 0.08220 0.21660 -0.06900
N 	N 	0.49050 0.41780 0.71660 -0.07000
N 	N 	0.50950 0.91780 0.78340 -0.06900
O 	O 	0.54080 0.62300 0.44440 -0.48100
O 	O 	0.82240 0.48140 0.45430 -0.59600
O 	O 	0.37600 0.45020 0.40910 -0.47400
O 	O 	0.00200 0.81920 0.14090 -0.41500
O 	O 	0.19780 0.74880 0.06740 -0.47100
O 	O 	0.45920 0.12300 0.05560 -0.47800
O 	O 	0.17760 0.98140 0.04570 -0.59200
O 	O 	0.62400 0.95020 0.09090 -0.47500
O 	O 	0.99800 0.31920 0.35910 -0.41800
O 	O 	0.80220 0.24880 0.43260 -0.47400
O 	O 	0.45920 0.37700 0.55560 -0.48100
O 	O 	0.17760 0.51860 0.54570 -0.59600
O 	O 	0.62400 0.54980 0.59090 -0.47400
O 	O 	0.99800 0.18080 0.85910 -0.41500
O 	O 	0.80220 0.25120 0.93260 -0.47100
O 	O 	0.54080 0.87700 0.94440 -0.47800
O 	O 	0.82240 0.01860 0.95430 -0.59200
O 	O 	0.37600 0.04980 0.90910 -0.47500
O 	O 	0.00200 0.68080 0.64090 -0.41800
O 	O 	0.19780 0.75120 0.56740 -0.47400
