data_crystal

_cell_length_a 5.52940
_cell_length_b 13.35230
_cell_length_c 20.64200
_cell_angle_alpha 90.00000
_cell_angle_beta  95.37800
_cell_angle_gamma 90.00000

_symmetry_space_group_name_	'P 1'
_symmetry_space_group_name_H-M	'P 1'

loop_
_symmetry_equiv_pos_as_xyz
  x,y,z

loop_
_atom_site_label
_atom_site_type_symbol
_atom_site_fract_x
_atom_site_fract_y
_atom_site_fract_z
_atom_site_charge
Tb	Tb	0.87235 0.63267 0.52782 1.65400
Tb	Tb	0.12765 0.13267 0.97218 1.64500
Tb	Tb	0.12765 0.36733 0.47218 1.65400
Tb	Tb	0.87235 0.86733 0.02782 1.64500
P 	P 	0.58990 0.52088 0.41395 0.48000
P 	P 	0.41010 0.02088 0.08605 0.47900
P 	P 	0.41010 0.47912 0.58605 0.48100
P 	P 	0.58990 0.97912 0.91395 0.48000
H 	H 	0.83510 0.58020 0.33670 0.07700
H 	H 	0.74060 0.47290 0.31710 0.10200
H 	H 	0.62260 0.72860 0.29840 0.04200
H 	H 	0.41440 0.69890 0.34170 0.04500
H 	H 	0.12480 0.70130 0.24880 0.05000
H 	H 	0.25350 0.80610 0.25490 0.04400
H 	H 	0.51540 0.75850 0.17540 0.06900
H 	H 	0.45170 0.59980 0.12200 0.02800
H 	H 	0.24810 0.57360 0.16760 0.04000
H 	H 	0.62530 0.49770 0.20980 0.04300
H 	H 	0.74850 0.60390 0.21510 0.04800
H 	H 	0.16490 0.08020 0.16330 0.07700
H 	H 	0.25940 0.97290 0.18290 0.10400
H 	H 	0.37740 0.22860 0.20160 0.04300
H 	H 	0.58560 0.19890 0.15830 0.04600
H 	H 	0.87520 0.20130 0.25120 0.05000
H 	H 	0.74650 0.30610 0.24510 0.04400
H 	H 	0.48460 0.25850 0.32460 0.07000
H 	H 	0.54830 0.09980 0.37800 0.02700
H 	H 	0.75190 0.07360 0.33240 0.04000
H 	H 	0.37470 0.99770 0.29020 0.04400
H 	H 	0.25150 0.10390 0.28490 0.04900
H 	H 	0.16490 0.41980 0.66330 0.07700
H 	H 	0.25940 0.52710 0.68290 0.10200
H 	H 	0.37740 0.27140 0.70160 0.04200
H 	H 	0.58560 0.30110 0.65830 0.04500
H 	H 	0.87520 0.29870 0.75120 0.05000
H 	H 	0.74650 0.19390 0.74510 0.04400
H 	H 	0.48460 0.24150 0.82460 0.06900
H 	H 	0.54830 0.40020 0.87800 0.02800
H 	H 	0.75190 0.42640 0.83240 0.04000
H 	H 	0.37470 0.50230 0.79020 0.04300
H 	H 	0.25150 0.39610 0.78490 0.04800
H 	H 	0.83510 0.91980 0.83670 0.07700
H 	H 	0.74060 0.02710 0.81710 0.10400
H 	H 	0.62260 0.77140 0.79840 0.04300
H 	H 	0.41440 0.80110 0.84170 0.04600
H 	H 	0.12480 0.79870 0.74880 0.05000
H 	H 	0.25350 0.69390 0.75490 0.04400
H 	H 	0.51540 0.74150 0.67540 0.07000
H 	H 	0.45170 0.90020 0.62200 0.02700
H 	H 	0.24810 0.92640 0.66760 0.04000
H 	H 	0.62530 0.00230 0.70980 0.04400
H 	H 	0.74850 0.89610 0.71510 0.04900
C 	C 	0.69220 0.53770 0.33280 -0.21900
C 	C 	0.47090 0.69220 0.29880 -0.07300
C 	C 	0.27830 0.73560 0.24640 -0.06400
C 	C 	0.36150 0.72300 0.17790 -0.13000
C 	C 	0.39960 0.60940 0.16510 -0.06000
C 	C 	0.59690 0.56820 0.21750 -0.07700
C 	C 	0.17040 0.76420 0.12510 0.33900
C 	C 	0.30780 0.03770 0.16720 -0.22200
C 	C 	0.52910 0.19220 0.20120 -0.07500
C 	C 	0.72170 0.23560 0.25360 -0.06200
C 	C 	0.63850 0.22300 0.32210 -0.13200
C 	C 	0.60040 0.10940 0.33490 -0.05800
C 	C 	0.40310 0.06820 0.28250 -0.07900
C 	C 	0.82960 0.26420 0.37490 0.34000
C 	C 	0.30780 0.46230 0.66720 -0.21900
C 	C 	0.52910 0.30780 0.70120 -0.07300
C 	C 	0.72170 0.26440 0.75360 -0.06400
C 	C 	0.63850 0.27700 0.82210 -0.13000
C 	C 	0.60040 0.39060 0.83490 -0.06000
C 	C 	0.40310 0.43180 0.78250 -0.07700
C 	C 	0.82960 0.23580 0.87490 0.33900
C 	C 	0.69220 0.96230 0.83280 -0.22200
C 	C 	0.47090 0.80780 0.79880 -0.07500
C 	C 	0.27830 0.76440 0.74640 -0.06200
C 	C 	0.36150 0.77700 0.67790 -0.13200
C 	C 	0.39960 0.89060 0.66510 -0.05800
C 	C 	0.59690 0.93180 0.71750 -0.07900
C 	C 	0.17040 0.73580 0.62510 0.34000
N 	N 	0.50950 0.58220 0.28340 -0.06800
N 	N 	0.49050 0.08220 0.21660 -0.06700
N 	N 	0.49050 0.41780 0.71660 -0.06800
N 	N 	0.50950 0.91780 0.78340 -0.06700
O 	O 	0.54080 0.62300 0.44440 -0.46500
O 	O 	0.82240 0.48140 0.45430 -0.57200
O 	O 	0.37600 0.45020 0.40914 -0.46000
O 	O 	0.00200 0.81920 0.14090 -0.41000
O 	O 	0.19780 0.74880 0.06740 -0.46100
O 	O 	0.45920 0.12300 0.05560 -0.46300
O 	O 	0.17760 0.98140 0.04570 -0.56700
O 	O 	0.62400 0.95020 0.09086 -0.46100
O 	O 	0.99800 0.31920 0.35910 -0.41200
O 	O 	0.80220 0.24880 0.43260 -0.46300
O 	O 	0.45920 0.37700 0.55560 -0.46500
O 	O 	0.17760 0.51860 0.54570 -0.57200
O 	O 	0.62400 0.54980 0.59086 -0.46000
O 	O 	0.99800 0.18080 0.85910 -0.41000
O 	O 	0.80220 0.25120 0.93260 -0.46100
O 	O 	0.54080 0.87700 0.94440 -0.46300
O 	O 	0.82240 0.01860 0.95430 -0.56700
O 	O 	0.37600 0.04980 0.90914 -0.46100
O 	O 	0.00200 0.68080 0.64090 -0.41200
O 	O 	0.19780 0.75120 0.56740 -0.46300
