data_crystal

_cell_length_a 5.51500
_cell_length_b 13.39300
_cell_length_c 20.81050
_cell_angle_alpha 90.00000
_cell_angle_beta  95.38200
_cell_angle_gamma 90.00000

_symmetry_space_group_name_	'P 1'
_symmetry_space_group_name_H-M	'P 1'

loop_
_symmetry_equiv_pos_as_xyz
  x,y,z

loop_
_atom_site_label
_atom_site_type_symbol
_atom_site_fract_x
_atom_site_fract_y
_atom_site_fract_z
_atom_site_charge
Gd	Gd	0.87244 0.63255 0.52777 1.41900
Gd	Gd	0.12756 0.13255 0.97223 1.41200
Gd	Gd	0.12756 0.36745 0.47223 1.41800
Gd	Gd	0.87244 0.86745 0.02777 1.41100
P 	P 	0.59070 0.52121 0.41416 0.46000
P 	P 	0.40930 0.02121 0.08584 0.46000
P 	P 	0.40930 0.47879 0.58584 0.46000
P 	P 	0.59070 0.97879 0.91416 0.46000
H 	H 	0.83240 0.58220 0.33670 0.08200
H 	H 	0.74350 0.47450 0.31770 0.10400
H 	H 	0.62120 0.72770 0.29920 0.04600
H 	H 	0.40950 0.69700 0.34090 0.05100
H 	H 	0.25550 0.80510 0.25590 0.04600
H 	H 	0.12650 0.70080 0.24850 0.05200
H 	H 	0.51840 0.76000 0.17500 0.07300
H 	H 	0.24730 0.57390 0.16790 0.04500
H 	H 	0.45130 0.59850 0.12240 0.03600
H 	H 	0.62530 0.49690 0.20950 0.04500
H 	H 	0.75000 0.60260 0.21490 0.05000
H 	H 	0.16760 0.08220 0.16330 0.08200
H 	H 	0.25650 0.97450 0.18230 0.10500
H 	H 	0.37880 0.22770 0.20080 0.04700
H 	H 	0.59050 0.19700 0.15910 0.05200
H 	H 	0.74450 0.30510 0.24410 0.04500
H 	H 	0.87350 0.20080 0.25150 0.05100
H 	H 	0.48160 0.26000 0.32500 0.07400
H 	H 	0.75270 0.07390 0.33210 0.04500
H 	H 	0.54870 0.09850 0.37760 0.03500
H 	H 	0.37470 0.99690 0.29050 0.04600
H 	H 	0.25000 0.10260 0.28510 0.05000
H 	H 	0.16760 0.41780 0.66330 0.08200
H 	H 	0.25650 0.52550 0.68230 0.10400
H 	H 	0.37880 0.27230 0.70080 0.04600
H 	H 	0.59050 0.30300 0.65910 0.05100
H 	H 	0.74450 0.19490 0.74410 0.04600
H 	H 	0.87350 0.29920 0.75150 0.05200
H 	H 	0.48160 0.24000 0.82500 0.07300
H 	H 	0.75270 0.42610 0.83210 0.04500
H 	H 	0.54870 0.40150 0.87760 0.03600
H 	H 	0.37470 0.50310 0.79050 0.04500
H 	H 	0.25000 0.39740 0.78510 0.05000
H 	H 	0.83240 0.91780 0.83670 0.08200
H 	H 	0.74350 0.02550 0.81770 0.10500
H 	H 	0.62120 0.77230 0.79920 0.04700
H 	H 	0.40950 0.80300 0.84090 0.05200
H 	H 	0.25550 0.69490 0.75590 0.04500
H 	H 	0.12650 0.79920 0.74850 0.05100
H 	H 	0.51840 0.74000 0.67500 0.07400
H 	H 	0.24730 0.92610 0.66790 0.04500
H 	H 	0.45130 0.90150 0.62240 0.03500
H 	H 	0.62530 0.00310 0.70950 0.04600
H 	H 	0.75000 0.89740 0.71490 0.05000
C 	C 	0.69110 0.53880 0.33290 -0.21600
C 	C 	0.46890 0.69130 0.29870 -0.07700
C 	C 	0.28070 0.73510 0.24670 -0.06300
C 	C 	0.36400 0.72470 0.17760 -0.12900
C 	C 	0.40000 0.60890 0.16520 -0.06600
C 	C 	0.59760 0.56720 0.21720 -0.07500
C 	C 	0.17130 0.76390 0.12500 0.33000
C 	C 	0.30890 0.03880 0.16710 -0.21900
C 	C 	0.53110 0.19130 0.20130 -0.07800
C 	C 	0.71930 0.23510 0.25330 -0.06200
C 	C 	0.63600 0.22470 0.32240 -0.13000
C 	C 	0.60000 0.10890 0.33480 -0.06500
C 	C 	0.40240 0.06720 0.28280 -0.07700
C 	C 	0.82870 0.26390 0.37500 0.33100
C 	C 	0.30890 0.46120 0.66710 -0.21600
C 	C 	0.53110 0.30870 0.70130 -0.07700
C 	C 	0.71930 0.26490 0.75330 -0.06300
C 	C 	0.63600 0.27530 0.82240 -0.12900
C 	C 	0.60000 0.39110 0.83480 -0.06600
C 	C 	0.40240 0.43280 0.78280 -0.07500
C 	C 	0.82870 0.23610 0.87500 0.33000
C 	C 	0.69110 0.96120 0.83290 -0.21900
C 	C 	0.46890 0.80870 0.79870 -0.07800
C 	C 	0.28070 0.76490 0.74670 -0.06200
C 	C 	0.36400 0.77530 0.67760 -0.13000
C 	C 	0.40000 0.89110 0.66520 -0.06500
C 	C 	0.59760 0.93280 0.71720 -0.07700
C 	C 	0.17130 0.73610 0.62500 0.33100
N 	N 	0.50880 0.58130 0.28250 -0.06700
N 	N 	0.49120 0.08130 0.21750 -0.06600
N 	N 	0.49120 0.41870 0.71750 -0.06700
N 	N 	0.50880 0.91870 0.78250 -0.06600
O 	O 	0.54070 0.62270 0.44440 -0.42300
O 	O 	0.82140 0.48080 0.45480 -0.50800
O 	O 	0.37460 0.45030 0.40878 -0.41300
O 	O 	0.00190 0.81910 0.14080 -0.37600
O 	O 	0.19890 0.74890 0.06770 -0.42200
O 	O 	0.45930 0.12270 0.05560 -0.42100
O 	O 	0.17860 0.98080 0.04520 -0.50400
O 	O 	0.62540 0.95030 0.09122 -0.41400
O 	O 	0.99810 0.31910 0.35920 -0.37800
O 	O 	0.80110 0.24890 0.43230 -0.42400
O 	O 	0.45930 0.37730 0.55560 -0.42300
O 	O 	0.17860 0.51920 0.54520 -0.50800
O 	O 	0.62540 0.54970 0.59122 -0.41300
O 	O 	0.99810 0.18090 0.85920 -0.37600
O 	O 	0.80110 0.25110 0.93230 -0.42200
O 	O 	0.54070 0.87730 0.94440 -0.42100
O 	O 	0.82140 0.01920 0.95480 -0.50400
O 	O 	0.37460 0.04970 0.90878 -0.41400
O 	O 	0.00190 0.68090 0.64080 -0.37800
O 	O 	0.19890 0.75110 0.56770 -0.42400
