data_crystal

_cell_length_a 8.86700
_cell_length_b 8.86700
_cell_length_c 21.49900
_cell_angle_alpha 90.00000
_cell_angle_beta  90.00000
_cell_angle_gamma 120.00000

_symmetry_space_group_name_	'P 1'
_symmetry_space_group_name_H-M	'P 1'

loop_
_symmetry_equiv_pos_as_xyz
  x,y,z

loop_
_atom_site_label
_atom_site_type_symbol
_atom_site_fract_x
_atom_site_fract_y
_atom_site_fract_z
_atom_site_charge
Rb	Rb	-0.00000 0.00000 0.50000 0.61600
Rb	Rb	0.66667 0.33333 0.83333 0.66200
Rb	Rb	0.33333 0.66667 0.16667 0.65700
Fe	Fe	0.33333 0.66667 0.66667 1.17100
Fe	Fe	-0.00000 0.00000 -0.00000 1.04600
Fe	Fe	0.66667 0.33333 0.33333 1.17100
C 	C 	0.22930 0.77070 0.61500 -0.20200
N 	N 	0.17030 0.82970 0.58540 -0.09400
C 	C 	0.89597 0.10403 0.94833 -0.15000
N 	N 	0.83697 0.16303 0.91873 -0.10700
C 	C 	0.56263 0.43737 0.28167 -0.20500
N 	N 	0.50363 0.49637 0.25207 -0.10100
C 	C 	0.22930 0.45860 0.61500 -0.22000
N 	N 	0.17030 0.34060 0.58540 -0.12500
C 	C 	0.89597 0.79193 0.94833 -0.06600
N 	N 	0.83697 0.67393 0.91873 -0.10500
C 	C 	0.56263 0.12527 0.28167 -0.22300
N 	N 	0.50363 0.00727 0.25207 -0.13200
C 	C 	0.54140 0.77070 0.61500 -0.18600
N 	N 	0.65940 0.82970 0.58540 -0.06800
C 	C 	0.20807 0.10403 0.94833 -0.23100
N 	N 	0.32607 0.16303 0.91873 -0.10800
C 	C 	0.87473 0.43737 0.28167 -0.18800
N 	N 	0.99273 0.49637 0.25207 -0.07300
C 	C 	0.77070 0.22930 0.38500 -0.20400
N 	N 	0.82970 0.17030 0.41460 -0.09700
C 	C 	0.43737 0.56263 0.71833 -0.20300
N 	N 	0.49637 0.50363 0.74793 -0.09900
C 	C 	0.10403 0.89597 0.05167 -0.19800
N 	N 	0.16303 0.83697 0.08127 -0.10900
C 	C 	0.45860 0.22930 0.38500 -0.22100
N 	N 	0.34060 0.17030 0.41460 -0.12500
C 	C 	0.12527 0.56263 0.71833 -0.21900
N 	N 	0.00727 0.50363 0.74793 -0.12600
C 	C 	0.79193 0.89597 0.05167 -0.12300
N 	N 	0.67393 0.83697 0.08127 -0.10700
C 	C 	0.77070 0.54140 0.38500 -0.18600
N 	N 	0.82970 0.65940 0.41460 -0.06900
C 	C 	0.43737 0.87473 0.71833 -0.18400
N 	N 	0.49637 0.99273 0.74793 -0.06700
C 	C 	0.10403 0.20807 0.05167 -0.29200
N 	N 	0.16303 0.32607 0.08127 -0.11000
