data_crystal

_cell_length_a 15.26090
_cell_length_b 27.03600
_cell_length_c 9.56030
_cell_angle_alpha 90.00000
_cell_angle_beta  90.00000
_cell_angle_gamma 90.00000

_symmetry_space_group_name_	'P 1'
_symmetry_space_group_name_H-M	'P 1'

loop_
_symmetry_equiv_pos_as_xyz
  x,y,z

loop_
_atom_site_label
_atom_site_type_symbol
_atom_site_fract_x
_atom_site_fract_y
_atom_site_fract_z
_atom_site_charge
O 	O 	0.08950 0.01820 0.17410 -0.42500
O 	O 	0.08970 0.06650 0.98850 -0.43000
C 	C 	0.11530 0.05480 0.10740 0.42100
C 	C 	0.18440 0.08560 0.17860 -0.27600
C 	C 	0.18420 0.13560 0.17410 0.25300
C 	C 	0.10800 0.16790 0.11600 -0.54800
H 	H 	0.11250 0.16980 0.01350 0.17900
H 	H 	0.05170 0.15300 0.14140 0.16700
H 	H 	0.11180 0.20130 0.15530 0.16800
S 	S 	0.94580 0.89230 0.34450 0.24500
C 	C 	0.83500 0.91620 0.39200 -0.50800
H 	H 	0.80750 0.93040 0.30860 0.18300
H 	H 	0.79940 0.88900 0.42750 0.16900
H 	H 	0.84120 0.94170 0.46380 0.17200
C 	C 	0.96900 0.83260 0.26100 -0.08900
H 	H 	0.94740 0.80850 0.32940 0.02600
H 	H 	0.94740 0.86560 0.28570 -0.03500
H 	H 	0.94740 0.82370 0.16760 0.03700
H 	H 	0.06010 0.11790 0.42980 0.12900
H 	H 	0.96360 0.13260 0.48060 0.09800
H 	H 	0.97630 0.09540 0.35200 0.12000
C 	C 	0.09900 0.02400 0.51400 0.27400
H 	H 	0.08730 0.98890 0.49720 -0.15500
H 	H 	0.14180 0.02730 0.59010 -0.05900
H 	H 	0.12310 0.03900 0.42880 -0.05500
H 	H 	0.43990 0.88210 0.92980 0.13900
H 	H 	0.53640 0.86740 0.98060 0.10700
H 	H 	0.52370 0.90460 0.85200 0.13500
C 	C 	0.40100 0.97600 0.01400 0.27400
H 	H 	0.41270 0.01110 0.99720 -0.15600
H 	H 	0.35820 0.97270 0.09010 -0.06000
H 	H 	0.37690 0.96100 0.92880 -0.05600
O 	O 	0.41050 0.98180 0.67410 -0.42700
O 	O 	0.41030 0.93350 0.48850 -0.43100
C 	C 	0.38470 0.94520 0.60740 0.41900
C 	C 	0.31560 0.91440 0.67860 -0.27600
C 	C 	0.31580 0.86440 0.67410 0.25100
C 	C 	0.39200 0.83210 0.61600 -0.54600
H 	H 	0.38750 0.83020 0.51350 0.17700
H 	H 	0.44830 0.84700 0.64140 0.16200
H 	H 	0.38820 0.79870 0.65530 0.16500
S 	S 	0.55420 0.10770 0.84450 0.26400
C 	C 	0.66500 0.08380 0.89200 -0.51900
H 	H 	0.69250 0.06960 0.80860 0.18500
H 	H 	0.70060 0.11100 0.92750 0.17000
H 	H 	0.65880 0.05830 0.96380 0.17400
C 	C 	0.53100 0.16740 0.76100 -0.10200
H 	H 	0.55260 0.19150 0.82940 0.03000
H 	H 	0.55260 0.13440 0.78570 -0.03900
H 	H 	0.55260 0.17630 0.66760 0.04100
H 	H 	0.43990 0.11790 0.07020 0.13900
H 	H 	0.53640 0.13260 0.01940 0.10700
H 	H 	0.52370 0.09540 0.14800 0.13500
C 	C 	0.40100 0.02400 0.98600 0.27400
H 	H 	0.41270 0.98890 0.00280 -0.15600
H 	H 	0.35820 0.02730 0.90990 -0.06000
H 	H 	0.37690 0.03900 0.07120 -0.05600
O 	O 	0.41050 0.01820 0.32590 -0.42700
O 	O 	0.41030 0.06650 0.51150 -0.43100
C 	C 	0.38470 0.05480 0.39260 0.41900
C 	C 	0.31560 0.08560 0.32140 -0.27600
C 	C 	0.31580 0.13560 0.32590 0.25100
C 	C 	0.39200 0.16790 0.38400 -0.54600
H 	H 	0.38750 0.16980 0.48650 0.17700
H 	H 	0.44830 0.15300 0.35860 0.16200
H 	H 	0.38820 0.20130 0.34470 0.16500
S 	S 	0.55420 0.89230 0.15550 0.26400
C 	C 	0.66500 0.91620 0.10800 -0.51900
H 	H 	0.69250 0.93040 0.19140 0.18500
H 	H 	0.70060 0.88900 0.07250 0.17000
H 	H 	0.65880 0.94170 0.03620 0.17400
C 	C 	0.53100 0.83260 0.23900 -0.10200
H 	H 	0.55260 0.80850 0.17060 0.03000
H 	H 	0.55260 0.86560 0.21430 -0.03900
H 	H 	0.55260 0.82370 0.33240 0.04100
O 	O 	0.08950 0.98180 0.82590 -0.42600
O 	O 	0.08970 0.93350 0.01150 -0.43100
C 	C 	0.11530 0.94520 0.89260 0.42000
C 	C 	0.18440 0.91440 0.82140 -0.27700
C 	C 	0.18420 0.86440 0.82590 0.25200
C 	C 	0.10800 0.83210 0.88400 -0.54900
H 	H 	0.11250 0.83020 0.98650 0.17800
H 	H 	0.05170 0.84700 0.85860 0.16600
H 	H 	0.11180 0.79870 0.84470 0.16700
S 	S 	0.94580 0.10770 0.65550 0.24400
C 	C 	0.83500 0.08380 0.60800 -0.50900
H 	H 	0.80750 0.06960 0.69140 0.18200
H 	H 	0.79940 0.11100 0.57250 0.16800
H 	H 	0.84120 0.05830 0.53620 0.17100
C 	C 	0.96900 0.16740 0.73900 -0.09000
H 	H 	0.94740 0.19150 0.67060 0.02500
H 	H 	0.94740 0.13440 0.71430 -0.03600
H 	H 	0.94740 0.17630 0.83240 0.03600
H 	H 	0.06010 0.88210 0.57020 0.12800
H 	H 	0.96360 0.86740 0.51940 0.09700
H 	H 	0.97630 0.90460 0.64800 0.11900
C 	C 	0.09900 0.97600 0.48600 0.27300
H 	H 	0.08730 0.01110 0.50280 -0.15500
H 	H 	0.14180 0.97270 0.40990 -0.05900
H 	H 	0.12310 0.96100 0.57120 -0.05500
O 	O 	0.91050 0.98180 0.82590 -0.42900
O 	O 	0.91030 0.93350 0.01150 -0.43400
C 	C 	0.88470 0.94520 0.89260 0.42000
C 	C 	0.81560 0.91440 0.82140 -0.27600
C 	C 	0.81580 0.86440 0.82590 0.25000
C 	C 	0.89200 0.83210 0.88400 -0.54200
H 	H 	0.88750 0.83020 0.98650 0.17600
H 	H 	0.94830 0.84700 0.85860 0.15900
H 	H 	0.88820 0.79870 0.84470 0.16300
S 	S 	0.05420 0.10770 0.65550 0.25800
C 	C 	0.16500 0.08380 0.60800 -0.51600
H 	H 	0.19250 0.06960 0.69140 0.18400
H 	H 	0.20060 0.11100 0.57250 0.17000
H 	H 	0.15880 0.05830 0.53620 0.17300
C 	C 	0.03100 0.16740 0.73900 -0.11900
H 	H 	0.05260 0.19150 0.67060 0.03600
H 	H 	0.05260 0.13440 0.71430 -0.03000
H 	H 	0.05260 0.17630 0.83240 0.04700
H 	H 	0.93990 0.88210 0.57020 0.13300
H 	H 	0.03640 0.86740 0.51940 0.10500
H 	H 	0.02370 0.90460 0.64800 0.13600
C 	C 	0.90100 0.97600 0.48600 0.27300
H 	H 	0.91270 0.01110 0.50280 -0.15700
H 	H 	0.85820 0.97270 0.40990 -0.05900
H 	H 	0.87690 0.96100 0.57120 -0.05600
H 	H 	0.56010 0.11790 0.07020 0.13900
H 	H 	0.46360 0.13260 0.01940 0.10700
H 	H 	0.47630 0.09540 0.14800 0.13500
C 	C 	0.59900 0.02400 0.98600 0.27400
H 	H 	0.58730 0.98890 0.00280 -0.15600
H 	H 	0.64180 0.02730 0.90990 -0.06000
H 	H 	0.62310 0.03900 0.07120 -0.05600
O 	O 	0.58950 0.01820 0.32590 -0.42600
O 	O 	0.58970 0.06650 0.51150 -0.43100
C 	C 	0.61530 0.05480 0.39260 0.41900
C 	C 	0.68440 0.08560 0.32140 -0.27600
C 	C 	0.68420 0.13560 0.32590 0.25000
C 	C 	0.60800 0.16790 0.38400 -0.54500
H 	H 	0.61250 0.16980 0.48650 0.17700
H 	H 	0.55170 0.15300 0.35860 0.16200
H 	H 	0.61180 0.20130 0.34470 0.16500
S 	S 	0.44580 0.89230 0.15550 0.26400
C 	C 	0.33500 0.91620 0.10800 -0.51900
H 	H 	0.30750 0.93040 0.19140 0.18500
H 	H 	0.29940 0.88900 0.07250 0.17000
H 	H 	0.34120 0.94170 0.03620 0.17400
C 	C 	0.46900 0.83260 0.23900 -0.10200
H 	H 	0.44740 0.80850 0.17060 0.02900
H 	H 	0.44740 0.86560 0.21430 -0.03900
H 	H 	0.44740 0.82370 0.33240 0.04100
H 	H 	0.56010 0.88210 0.92980 0.13900
H 	H 	0.46360 0.86740 0.98060 0.10700
H 	H 	0.47630 0.90460 0.85200 0.13500
C 	C 	0.59900 0.97600 0.01400 0.27400
H 	H 	0.58730 0.01110 0.99720 -0.15600
H 	H 	0.64180 0.97270 0.09010 -0.06000
H 	H 	0.62310 0.96100 0.92880 -0.05600
O 	O 	0.58950 0.98180 0.67410 -0.42600
O 	O 	0.58970 0.93350 0.48850 -0.43100
C 	C 	0.61530 0.94520 0.60740 0.41900
C 	C 	0.68440 0.91440 0.67860 -0.27600
C 	C 	0.68420 0.86440 0.67410 0.25000
C 	C 	0.60800 0.83210 0.61600 -0.54500
H 	H 	0.61250 0.83020 0.51350 0.17700
H 	H 	0.55170 0.84700 0.64140 0.16200
H 	H 	0.61180 0.79870 0.65530 0.16500
S 	S 	0.44580 0.10770 0.84450 0.26400
C 	C 	0.33500 0.08380 0.89200 -0.51900
H 	H 	0.30750 0.06960 0.80860 0.18500
H 	H 	0.29940 0.11100 0.92750 0.17000
H 	H 	0.34120 0.05830 0.96380 0.17400
C 	C 	0.46900 0.16740 0.76100 -0.10200
H 	H 	0.44740 0.19150 0.82940 0.02900
H 	H 	0.44740 0.13440 0.78570 -0.03900
H 	H 	0.44740 0.17630 0.66760 0.04100
O 	O 	0.91050 0.01820 0.17410 -0.42900
O 	O 	0.91030 0.06650 0.98850 -0.43400
C 	C 	0.88470 0.05480 0.10740 0.42000
C 	C 	0.81560 0.08560 0.17860 -0.27600
C 	C 	0.81580 0.13560 0.17410 0.25000
C 	C 	0.89200 0.16790 0.11600 -0.54200
H 	H 	0.88750 0.16980 0.01350 0.17600
H 	H 	0.94830 0.15300 0.14140 0.15900
H 	H 	0.88820 0.20130 0.15530 0.16300
S 	S 	0.05420 0.89230 0.34450 0.25800
C 	C 	0.16500 0.91620 0.39200 -0.51600
H 	H 	0.19250 0.93040 0.30860 0.18400
H 	H 	0.20060 0.88900 0.42750 0.17000
H 	H 	0.15880 0.94170 0.46380 0.17300
C 	C 	0.03100 0.83260 0.26100 -0.11900
H 	H 	0.05260 0.80850 0.32940 0.03600
H 	H 	0.05260 0.86560 0.28570 -0.03000
H 	H 	0.05260 0.82370 0.16760 0.04700
H 	H 	0.93990 0.11790 0.42980 0.13300
H 	H 	0.03640 0.13260 0.48060 0.10500
H 	H 	0.02370 0.09540 0.35200 0.13600
C 	C 	0.90100 0.02400 0.51400 0.27300
H 	H 	0.91270 0.98890 0.49720 -0.15700
H 	H 	0.85820 0.02730 0.59010 -0.05900
H 	H 	0.87690 0.03900 0.42880 -0.05600
Cu	Cu	-0.00000 0.97094 0.11053 0.93500
O 	O 	0.00000 0.92690 0.29580 -0.42300
Cu	Cu	0.50000 0.02906 0.61053 0.93300
O 	O 	0.50000 0.07310 0.79580 -0.43300
Cu	Cu	0.50000 0.97094 0.38947 0.93300
O 	O 	0.50000 0.92690 0.20420 -0.43300
Cu	Cu	-0.00000 0.02906 0.88947 0.93500
O 	O 	-0.00000 0.07310 0.70420 -0.42300
C 	C 	0.25000 0.15860 0.25000 -0.21200
C 	C 	0.25000 0.06080 0.25000 0.18300
H 	H 	0.25000 0.02570 0.25000 -0.01700
C 	C 	0.25000 0.84140 0.75000 -0.21200
C 	C 	0.25000 0.93920 0.75000 0.18300
H 	H 	0.25000 0.97430 0.75000 -0.01700
C 	C 	0.75000 0.84140 0.75000 -0.21200
C 	C 	0.75000 0.93920 0.75000 0.18200
H 	H 	0.75000 0.97430 0.75000 -0.01700
C 	C 	0.75000 0.15860 0.25000 -0.21200
C 	C 	0.75000 0.06080 0.25000 0.18200
H 	H 	0.75000 0.02570 0.25000 -0.01700
S 	S 	-0.00000 0.05460 0.56120 0.12500
C 	C 	-0.00000 0.10600 0.44200 -0.69800
S 	S 	0.50000 0.94540 0.06120 0.12500
C 	C 	0.50000 0.89400 0.94200 -0.74300
S 	S 	0.50000 0.05460 0.93880 0.12500
C 	C 	0.50000 0.10600 0.05800 -0.74300
S 	S 	0.00000 0.94540 0.43880 0.12500
C 	C 	-0.00000 0.89400 0.55800 -0.69800
H 	H 	0.56010 0.61790 0.92980 0.13900
H 	H 	0.46360 0.63260 0.98060 0.10800
H 	H 	0.47630 0.59540 0.85200 0.13600
C 	C 	0.59900 0.52400 0.01400 0.27300
H 	H 	0.58730 0.48890 0.99720 -0.15600
H 	H 	0.64180 0.52730 0.09010 -0.05900
H 	H 	0.62310 0.53900 0.92880 -0.05600
O 	O 	0.58950 0.51820 0.67410 -0.42700
O 	O 	0.58970 0.56650 0.48850 -0.43100
C 	C 	0.61530 0.55480 0.60740 0.41900
C 	C 	0.68440 0.58560 0.67860 -0.27600
C 	C 	0.68420 0.63560 0.67410 0.25000
C 	C 	0.60800 0.66790 0.61600 -0.54500
H 	H 	0.61250 0.66980 0.51350 0.17700
H 	H 	0.55170 0.65300 0.64140 0.16200
H 	H 	0.61180 0.70130 0.65530 0.16500
S 	S 	0.44580 0.39230 0.84450 0.26400
C 	C 	0.33500 0.41620 0.89200 -0.52000
H 	H 	0.30750 0.43040 0.80860 0.18500
H 	H 	0.29940 0.38900 0.92750 0.17000
H 	H 	0.34120 0.44170 0.96380 0.17400
C 	C 	0.46900 0.33260 0.76100 -0.10200
H 	H 	0.44740 0.30850 0.82940 0.02900
H 	H 	0.44740 0.36560 0.78570 -0.03900
H 	H 	0.44740 0.32370 0.66760 0.04100
O 	O 	0.91050 0.48180 0.17410 -0.42900
O 	O 	0.91030 0.43350 0.98850 -0.43300
C 	C 	0.88470 0.44520 0.10740 0.41900
C 	C 	0.81560 0.41440 0.17860 -0.27600
C 	C 	0.81580 0.36440 0.17410 0.24900
C 	C 	0.89200 0.33210 0.11600 -0.54200
H 	H 	0.88750 0.33020 0.01350 0.17500
H 	H 	0.94830 0.34700 0.14140 0.15900
H 	H 	0.88820 0.29870 0.15530 0.16300
S 	S 	0.05420 0.60770 0.34450 0.25800
C 	C 	0.16500 0.58380 0.39200 -0.51600
H 	H 	0.19250 0.56960 0.30860 0.18400
H 	H 	0.20060 0.61100 0.42750 0.17000
H 	H 	0.15880 0.55830 0.46380 0.17300
C 	C 	0.03100 0.66740 0.26100 -0.11900
H 	H 	0.05260 0.69150 0.32940 0.03600
H 	H 	0.05260 0.63440 0.28570 -0.03000
H 	H 	0.05260 0.67630 0.16760 0.04700
H 	H 	0.93990 0.38210 0.42980 0.13300
H 	H 	0.03640 0.36740 0.48060 0.10500
H 	H 	0.02370 0.40460 0.35200 0.13600
C 	C 	0.90100 0.47600 0.51400 0.27300
H 	H 	0.91270 0.51110 0.49720 -0.15700
H 	H 	0.85820 0.47270 0.59010 -0.05900
H 	H 	0.87690 0.46100 0.42880 -0.05600
O 	O 	0.91050 0.51820 0.82590 -0.42900
O 	O 	0.91030 0.56650 0.01150 -0.43300
C 	C 	0.88470 0.55480 0.89260 0.41900
C 	C 	0.81560 0.58560 0.82140 -0.27600
C 	C 	0.81580 0.63560 0.82590 0.24900
C 	C 	0.89200 0.66790 0.88400 -0.54200
H 	H 	0.88750 0.66980 0.98650 0.17500
H 	H 	0.94830 0.65300 0.85860 0.15900
H 	H 	0.88820 0.70130 0.84470 0.16300
S 	S 	0.05420 0.39230 0.65550 0.25800
C 	C 	0.16500 0.41620 0.60800 -0.51600
H 	H 	0.19250 0.43040 0.69140 0.18400
H 	H 	0.20060 0.38900 0.57250 0.17000
H 	H 	0.15880 0.44170 0.53620 0.17300
C 	C 	0.03100 0.33260 0.73900 -0.11900
H 	H 	0.05260 0.30850 0.67060 0.03600
H 	H 	0.05260 0.36560 0.71430 -0.03000
H 	H 	0.05260 0.32370 0.83240 0.04700
H 	H 	0.93990 0.61790 0.57020 0.13300
H 	H 	0.03640 0.63260 0.51940 0.10500
H 	H 	0.02370 0.59540 0.64800 0.13600
C 	C 	0.90100 0.52400 0.48600 0.27300
H 	H 	0.91270 0.48890 0.50280 -0.15700
H 	H 	0.85820 0.52730 0.40990 -0.05900
H 	H 	0.87690 0.53900 0.57120 -0.05600
H 	H 	0.56010 0.38210 0.07020 0.13900
H 	H 	0.46360 0.36740 0.01940 0.10800
H 	H 	0.47630 0.40460 0.14800 0.13600
C 	C 	0.59900 0.47600 0.98600 0.27300
H 	H 	0.58730 0.51110 0.00280 -0.15600
H 	H 	0.64180 0.47270 0.90990 -0.05900
H 	H 	0.62310 0.46100 0.07120 -0.05600
O 	O 	0.58950 0.48180 0.32590 -0.42700
O 	O 	0.58970 0.43350 0.51150 -0.43100
C 	C 	0.61530 0.44520 0.39260 0.41900
C 	C 	0.68440 0.41440 0.32140 -0.27600
C 	C 	0.68420 0.36440 0.32590 0.25000
C 	C 	0.60800 0.33210 0.38400 -0.54500
H 	H 	0.61250 0.33020 0.48650 0.17700
H 	H 	0.55170 0.34700 0.35860 0.16200
H 	H 	0.61180 0.29870 0.34470 0.16500
S 	S 	0.44580 0.60770 0.15550 0.26400
C 	C 	0.33500 0.58380 0.10800 -0.52000
H 	H 	0.30750 0.56960 0.19140 0.18500
H 	H 	0.29940 0.61100 0.07250 0.17000
H 	H 	0.34120 0.55830 0.03620 0.17400
C 	C 	0.46900 0.66740 0.23900 -0.10200
H 	H 	0.44740 0.69150 0.17060 0.02900
H 	H 	0.44740 0.63440 0.21430 -0.03900
H 	H 	0.44740 0.67630 0.33240 0.04100
H 	H 	0.43990 0.38210 0.07020 0.13900
H 	H 	0.53640 0.36740 0.01940 0.10800
H 	H 	0.52370 0.40460 0.14800 0.13600
C 	C 	0.40100 0.47600 0.98600 0.27300
H 	H 	0.41270 0.51110 0.00280 -0.15600
H 	H 	0.35820 0.47270 0.90990 -0.05900
H 	H 	0.37690 0.46100 0.07120 -0.05600
O 	O 	0.41050 0.48180 0.32590 -0.42700
O 	O 	0.41030 0.43350 0.51150 -0.43100
C 	C 	0.38470 0.44520 0.39260 0.41900
C 	C 	0.31560 0.41440 0.32140 -0.27600
C 	C 	0.31580 0.36440 0.32590 0.25100
C 	C 	0.39200 0.33210 0.38400 -0.54600
H 	H 	0.38750 0.33020 0.48650 0.17700
H 	H 	0.44830 0.34700 0.35860 0.16200
H 	H 	0.38820 0.29870 0.34470 0.16500
S 	S 	0.55420 0.60770 0.15550 0.26400
C 	C 	0.66500 0.58380 0.10800 -0.52000
H 	H 	0.69250 0.56960 0.19140 0.18500
H 	H 	0.70060 0.61100 0.07250 0.17100
H 	H 	0.65880 0.55830 0.03620 0.17500
C 	C 	0.53100 0.66740 0.23900 -0.10200
H 	H 	0.55260 0.69150 0.17060 0.03000
H 	H 	0.55260 0.63440 0.21430 -0.03900
H 	H 	0.55260 0.67630 0.33240 0.04100
O 	O 	0.08950 0.51820 0.82590 -0.42600
O 	O 	0.08970 0.56650 0.01150 -0.43000
C 	C 	0.11530 0.55480 0.89260 0.41900
C 	C 	0.18440 0.58560 0.82140 -0.27700
C 	C 	0.18420 0.63560 0.82590 0.25200
C 	C 	0.10800 0.66790 0.88400 -0.54900
H 	H 	0.11250 0.66980 0.98650 0.17800
H 	H 	0.05170 0.65300 0.85860 0.16600
H 	H 	0.11180 0.70130 0.84470 0.16700
S 	S 	0.94580 0.39230 0.65550 0.24400
C 	C 	0.83500 0.41620 0.60800 -0.50900
H 	H 	0.80750 0.43040 0.69140 0.18200
H 	H 	0.79940 0.38900 0.57250 0.16800
H 	H 	0.84120 0.44170 0.53620 0.17100
C 	C 	0.96900 0.33260 0.73900 -0.09000
H 	H 	0.94740 0.30850 0.67060 0.02500
H 	H 	0.94740 0.36560 0.71430 -0.03600
H 	H 	0.94740 0.32370 0.83240 0.03600
H 	H 	0.06010 0.61790 0.57020 0.12800
H 	H 	0.96360 0.63260 0.51940 0.09700
H 	H 	0.97630 0.59540 0.64800 0.11900
C 	C 	0.09900 0.52400 0.48600 0.27300
H 	H 	0.08730 0.48890 0.50280 -0.15500
H 	H 	0.14180 0.52730 0.40990 -0.05900
H 	H 	0.12310 0.53900 0.57120 -0.05500
O 	O 	0.08950 0.48180 0.17410 -0.42600
O 	O 	0.08970 0.43350 0.98850 -0.43000
C 	C 	0.11530 0.44520 0.10740 0.41900
C 	C 	0.18440 0.41440 0.17860 -0.27700
C 	C 	0.18420 0.36440 0.17410 0.25200
C 	C 	0.10800 0.33210 0.11600 -0.54900
H 	H 	0.11250 0.33020 0.01350 0.17800
H 	H 	0.05170 0.34700 0.14140 0.16600
H 	H 	0.11180 0.29870 0.15530 0.16700
S 	S 	0.94580 0.60770 0.34450 0.24400
C 	C 	0.83500 0.58380 0.39200 -0.50900
H 	H 	0.80750 0.56960 0.30860 0.18200
H 	H 	0.79940 0.61100 0.42750 0.16800
H 	H 	0.84120 0.55830 0.46380 0.17100
C 	C 	0.96900 0.66740 0.26100 -0.09000
H 	H 	0.94740 0.69150 0.32940 0.02500
H 	H 	0.94740 0.63440 0.28570 -0.03600
H 	H 	0.94740 0.67630 0.16760 0.03600
H 	H 	0.06010 0.38210 0.42980 0.12800
H 	H 	0.96360 0.36740 0.48060 0.09700
H 	H 	0.97630 0.40460 0.35200 0.11900
C 	C 	0.09900 0.47600 0.51400 0.27300
H 	H 	0.08730 0.51110 0.49720 -0.15500
H 	H 	0.14180 0.47270 0.59010 -0.05900
H 	H 	0.12310 0.46100 0.42880 -0.05500
H 	H 	0.43990 0.61790 0.92980 0.13900
H 	H 	0.53640 0.63260 0.98060 0.10800
H 	H 	0.52370 0.59540 0.85200 0.13600
C 	C 	0.40100 0.52400 0.01400 0.27300
H 	H 	0.41270 0.48890 0.99720 -0.15600
H 	H 	0.35820 0.52730 0.09010 -0.05900
H 	H 	0.37690 0.53900 0.92880 -0.05600
O 	O 	0.41050 0.51820 0.67410 -0.42700
O 	O 	0.41030 0.56650 0.48850 -0.43100
C 	C 	0.38470 0.55480 0.60740 0.41900
C 	C 	0.31560 0.58560 0.67860 -0.27600
C 	C 	0.31580 0.63560 0.67410 0.25100
C 	C 	0.39200 0.66790 0.61600 -0.54600
H 	H 	0.38750 0.66980 0.51350 0.17700
H 	H 	0.44830 0.65300 0.64140 0.16200
H 	H 	0.38820 0.70130 0.65530 0.16500
S 	S 	0.55420 0.39230 0.84450 0.26400
C 	C 	0.66500 0.41620 0.89200 -0.52000
H 	H 	0.69250 0.43040 0.80860 0.18500
H 	H 	0.70060 0.38900 0.92750 0.17100
H 	H 	0.65880 0.44170 0.96380 0.17500
C 	C 	0.53100 0.33260 0.76100 -0.10200
H 	H 	0.55260 0.30850 0.82940 0.03000
H 	H 	0.55260 0.36560 0.78570 -0.03900
H 	H 	0.55260 0.32370 0.66760 0.04100
Cu	Cu	0.50000 0.47094 0.61053 0.93300
O 	O 	0.50000 0.42690 0.79580 -0.43300
Cu	Cu	-0.00000 0.52906 0.11053 0.93600
O 	O 	0.00000 0.57310 0.29580 -0.42300
Cu	Cu	0.00000 0.47094 0.88947 0.93600
O 	O 	0.00000 0.42690 0.70420 -0.42300
Cu	Cu	0.50000 0.52906 0.38947 0.93300
O 	O 	0.50000 0.57310 0.20420 -0.43300
C 	C 	0.75000 0.34140 0.25000 -0.21200
C 	C 	0.75000 0.43920 0.25000 0.18200
H 	H 	0.75000 0.47430 0.25000 -0.01700
C 	C 	0.75000 0.65860 0.75000 -0.21200
C 	C 	0.75000 0.56080 0.75000 0.18200
H 	H 	0.75000 0.52570 0.75000 -0.01700
C 	C 	0.25000 0.34140 0.25000 -0.21200
C 	C 	0.25000 0.43920 0.25000 0.18200
H 	H 	0.25000 0.47430 0.25000 -0.01700
C 	C 	0.25000 0.65860 0.75000 -0.21200
C 	C 	0.25000 0.56080 0.75000 0.18200
H 	H 	0.25000 0.52570 0.75000 -0.01700
S 	S 	0.50000 0.55460 0.06120 0.12600
C 	C 	0.50000 0.60600 0.94200 -0.74400
S 	S 	-0.00000 0.44540 0.56120 0.12500
C 	C 	-0.00000 0.39400 0.44200 -0.69800
S 	S 	-0.00000 0.55460 0.43880 0.12500
C 	C 	-0.00000 0.60600 0.55800 -0.69800
S 	S 	0.50000 0.44540 0.93880 0.12600
C 	C 	0.50000 0.39400 0.05800 -0.74400
