data_crystal

_cell_length_a 7.15550
_cell_length_b 12.42380
_cell_length_c 11.75750
_cell_angle_alpha 90.00000
_cell_angle_beta  91.78200
_cell_angle_gamma 90.00000

_symmetry_space_group_name_	'P 1'
_symmetry_space_group_name_H-M	'P 1'

loop_
_symmetry_equiv_pos_as_xyz
  x,y,z

loop_
_atom_site_label
_atom_site_type_symbol
_atom_site_fract_x
_atom_site_fract_y
_atom_site_fract_z
_atom_site_charge
O 	O 	0.53130 0.07955 0.57876 -0.45500
C 	C 	0.54210 0.15726 0.65226 0.37100
N 	N 	0.56750 0.32677 0.81497 -0.23600
C 	C 	0.45080 0.15355 0.75644 -0.33800
H 	H 	0.37900 0.09380 0.77420 0.14600
C 	C 	0.64480 0.25154 0.63423 -0.34000
H 	H 	0.70700 0.26060 0.56660 0.14400
C 	C 	0.65380 0.33004 0.71541 0.18300
H 	H 	0.72540 0.39060 0.70050 -0.04000
C 	C 	0.46710 0.23741 0.83185 0.18000
H 	H 	0.40400 0.23190 0.89960 -0.03900
Li	Li	0.60300 0.05250 0.42720 0.55400
O 	O 	0.87330 0.01156 0.40659 -0.25500
C 	C 	0.01650 0.08898 0.43040 0.00800
H 	H 	0.97400 0.15950 0.40560 0.02000
H 	H 	0.12670 0.07080 0.38850 0.03200
C 	C 	0.93450 0.90788 0.44540 -0.01100
H 	H 	0.04300 0.88580 0.40370 0.04100
H 	H 	0.83610 0.85550 0.43100 0.03200
O 	O 	0.46870 0.57955 0.92124 -0.45400
C 	C 	0.45790 0.65726 0.84774 0.37200
N 	N 	0.43250 0.82677 0.68503 -0.23500
C 	C 	0.54920 0.65355 0.74356 -0.33700
H 	H 	0.62100 0.59380 0.72580 0.14600
C 	C 	0.35520 0.75154 0.86577 -0.34000
H 	H 	0.29300 0.76060 0.93340 0.14400
C 	C 	0.34620 0.83004 0.78459 0.18300
H 	H 	0.27460 0.89060 0.79950 -0.04000
C 	C 	0.53290 0.73741 0.66815 0.18000
H 	H 	0.59600 0.73190 0.60040 -0.03900
Li	Li	0.39700 0.55250 0.07280 0.55400
O 	O 	0.12670 0.51156 0.09341 -0.25600
C 	C 	0.98350 0.58898 0.06960 0.00600
H 	H 	0.02600 0.65950 0.09440 0.02100
H 	H 	0.87330 0.57080 0.11150 0.03300
C 	C 	0.06550 0.40788 0.05460 -0.00700
H 	H 	0.95700 0.38580 0.09630 0.03900
H 	H 	0.16390 0.35550 0.06900 0.03100
O 	O 	0.46870 0.92045 0.42124 -0.45400
C 	C 	0.45790 0.84274 0.34774 0.37200
N 	N 	0.43250 0.67323 0.18503 -0.23500
C 	C 	0.54920 0.84645 0.24356 -0.33700
H 	H 	0.62100 0.90620 0.22580 0.14600
C 	C 	0.35520 0.74846 0.36577 -0.34000
H 	H 	0.29300 0.73940 0.43340 0.14400
C 	C 	0.34620 0.66996 0.28459 0.18300
H 	H 	0.27460 0.60940 0.29950 -0.04000
C 	C 	0.53290 0.76259 0.16815 0.18000
H 	H 	0.59600 0.76810 0.10040 -0.03900
Li	Li	0.39700 0.94750 0.57280 0.55400
O 	O 	0.12670 0.98844 0.59341 -0.25500
C 	C 	0.98350 0.91102 0.56960 0.00800
H 	H 	0.02600 0.84050 0.59440 0.02000
H 	H 	0.87330 0.92920 0.61150 0.03200
C 	C 	0.06550 0.09212 0.55460 -0.01100
H 	H 	0.95700 0.11420 0.59630 0.04100
H 	H 	0.16390 0.14450 0.56900 0.03200
O 	O 	0.53130 0.42045 0.07876 -0.45400
C 	C 	0.54210 0.34274 0.15226 0.37200
N 	N 	0.56750 0.17323 0.31497 -0.23500
C 	C 	0.45080 0.34645 0.25644 -0.33700
H 	H 	0.37900 0.40620 0.27420 0.14600
C 	C 	0.64480 0.24846 0.13423 -0.34000
H 	H 	0.70700 0.23940 0.06660 0.14400
C 	C 	0.65380 0.16996 0.21541 0.18300
H 	H 	0.72540 0.10940 0.20050 -0.04000
C 	C 	0.46710 0.26259 0.33185 0.18000
H 	H 	0.40400 0.26810 0.39960 -0.03900
Li	Li	0.60300 0.44750 0.92720 0.55400
O 	O 	0.87330 0.48844 0.90659 -0.25600
C 	C 	0.01650 0.41102 0.93040 0.00600
H 	H 	0.97400 0.34050 0.90560 0.02100
H 	H 	0.12670 0.42920 0.88850 0.03300
C 	C 	0.93450 0.59212 0.94540 -0.00700
H 	H 	0.04300 0.61420 0.90370 0.03900
H 	H 	0.83610 0.64450 0.93100 0.03100
