data_crystal

_cell_length_a 23.25980
_cell_length_b 19.13650
_cell_length_c 11.89280
_cell_angle_alpha 90.00000
_cell_angle_beta  90.00000
_cell_angle_gamma 90.00000

_symmetry_space_group_name_	'P 1'
_symmetry_space_group_name_H-M	'P 1'

loop_
_symmetry_equiv_pos_as_xyz
  x,y,z

loop_
_atom_site_label
_atom_site_type_symbol
_atom_site_fract_x
_atom_site_fract_y
_atom_site_fract_z
_atom_site_charge
O 	O 	0.31820 0.91720 0.79080 -0.45700
O 	O 	0.37420 0.84250 0.87870 -0.50900
O 	O 	0.49050 0.16300 0.10440 -0.39700
O 	O 	0.48380 0.83760 0.38920 -0.39400
O 	O 	0.37990 0.16010 0.63310 -0.53700
O 	O 	0.31870 0.08490 0.70530 -0.51500
C 	C 	0.36390 0.09930 0.65280 0.50700
C 	C 	0.48740 0.85750 0.49070 0.29200
C 	C 	0.45540 0.91990 0.53100 -0.01500
O 	O 	0.52450 0.17360 0.93420 -0.41500
O 	O 	0.28220 0.04010 0.92270 -0.24700
C 	C 	0.39950 0.03820 0.61120 -0.26100
C 	C 	0.45530 0.06520 0.85030 -0.03200
H 	H 	0.47390 0.09410 0.79900 0.04600
C 	C 	0.45240 0.93340 0.64640 -0.13100
H 	H 	0.46950 0.90240 0.69640 0.08800
C 	C 	0.39840 0.96340 0.88960 -0.10700
C 	C 	0.42470 0.99160 0.68750 0.17300
C 	C 	0.45840 0.08030 0.96470 -0.02900
C 	C 	0.40290 0.97720 0.00420 0.11300
H 	H 	0.38620 0.94690 0.05590 0.00900
C 	C 	0.42490 0.00730 0.81180 -0.07000
C 	C 	0.36160 0.90290 0.85030 0.47100
C 	C 	0.43190 0.03550 0.04160 -0.13200
H 	H 	0.43380 0.04500 0.11810 0.08100
O 	O 	0.51990 0.82420 0.55700 -0.41400
C 	C 	0.49260 0.14200 0.00320 0.29700
C 	C 	0.40300 0.02620 0.49630 0.01200
H 	H 	0.38700 0.05790 0.44600 0.00300
C 	C 	0.43060 0.96620 0.45640 -0.03400
H 	H 	0.43220 0.95750 0.37950 0.06500
O 	O 	0.68180 0.41720 0.20920 -0.49000
O 	O 	0.62580 0.34250 0.12130 -0.51800
O 	O 	0.50950 0.66300 0.89560 -0.39500
O 	O 	0.51620 0.33760 0.61080 -0.39600
O 	O 	0.62010 0.66010 0.36690 -0.53200
O 	O 	0.68130 0.58490 0.29470 -0.51600
C 	C 	0.63610 0.59930 0.34720 0.49400
C 	C 	0.51260 0.35750 0.50930 0.29300
C 	C 	0.54460 0.41990 0.46900 -0.02500
O 	O 	0.47550 0.67360 0.06580 -0.41300
O 	O 	0.71780 0.54010 0.07730 -0.24400
C 	C 	0.60050 0.53820 0.38880 -0.20300
C 	C 	0.54470 0.56520 0.14970 -0.07500
H 	H 	0.52610 0.59410 0.20100 0.06700
C 	C 	0.54760 0.43340 0.35360 -0.08700
H 	H 	0.53050 0.40240 0.30360 0.06700
C 	C 	0.60160 0.46340 0.11040 -0.17600
C 	C 	0.57530 0.49160 0.31250 0.05100
C 	C 	0.54160 0.58030 0.03530 -0.02000
C 	C 	0.59710 0.47720 0.99580 0.07200
H 	H 	0.61380 0.44690 0.94410 0.01200
C 	C 	0.57510 0.50730 0.18820 0.05100
C 	C 	0.63840 0.40290 0.14970 0.49500
C 	C 	0.56810 0.53550 0.95840 -0.07900
H 	H 	0.56620 0.54500 0.88190 0.07400
O 	O 	0.48010 0.32420 0.44300 -0.41600
C 	C 	0.50740 0.64200 0.99680 0.29500
C 	C 	0.59700 0.52620 0.50370 0.05200
H 	H 	0.61300 0.55790 0.55400 -0.00400
C 	C 	0.56940 0.46620 0.54360 -0.09000
H 	H 	0.56780 0.45750 0.62050 0.07100
O 	O 	0.81820 0.58280 0.20920 -0.48900
O 	O 	0.87420 0.65750 0.12130 -0.51700
O 	O 	0.99050 0.33700 0.89560 -0.39500
O 	O 	0.98380 0.66240 0.61080 -0.39400
O 	O 	0.87990 0.33990 0.36690 -0.53300
O 	O 	0.81870 0.41510 0.29470 -0.51700
C 	C 	0.86390 0.40070 0.34720 0.49400
C 	C 	0.98740 0.64250 0.50930 0.29200
C 	C 	0.95540 0.58010 0.46900 -0.02400
O 	O 	0.02450 0.32640 0.06580 -0.41300
O 	O 	0.78220 0.45990 0.07730 -0.24500
C 	C 	0.89950 0.46180 0.38880 -0.20400
C 	C 	0.95530 0.43480 0.14970 -0.07100
H 	H 	0.97390 0.40590 0.20100 0.06400
C 	C 	0.95240 0.56660 0.35360 -0.08800
H 	H 	0.96950 0.59760 0.30360 0.06800
C 	C 	0.89840 0.53660 0.11040 -0.17600
C 	C 	0.92470 0.50840 0.31250 0.05200
C 	C 	0.95840 0.41970 0.03530 -0.03000
C 	C 	0.90290 0.52280 0.99580 0.07000
H 	H 	0.88620 0.55310 0.94410 0.01400
C 	C 	0.92490 0.49270 0.18820 0.04900
C 	C 	0.86160 0.59710 0.14970 0.49500
C 	C 	0.93190 0.46450 0.95840 -0.07100
H 	H 	0.93380 0.45500 0.88190 0.07100
O 	O 	0.01990 0.67580 0.44300 -0.41500
C 	C 	0.99260 0.35800 0.99680 0.30100
C 	C 	0.90300 0.47380 0.50370 0.05300
H 	H 	0.88700 0.44210 0.55400 -0.00500
C 	C 	0.93060 0.53380 0.54360 -0.09000
H 	H 	0.93220 0.54250 0.62050 0.07200
O 	O 	0.18180 0.08280 0.79080 -0.49000
O 	O 	0.12580 0.15750 0.87870 -0.52100
O 	O 	0.00950 0.83700 0.10440 -0.39300
O 	O 	0.01620 0.16240 0.38920 -0.39600
O 	O 	0.12010 0.83990 0.63310 -0.52500
O 	O 	0.18130 0.91510 0.70530 -0.48500
C 	C 	0.13610 0.90070 0.65280 0.47000
C 	C 	0.01260 0.14250 0.49070 0.29300
C 	C 	0.04460 0.08010 0.53100 -0.03400
O 	O 	0.97550 0.82640 0.93420 -0.41100
O 	O 	0.21780 0.95990 0.92270 -0.19800
C 	C 	0.10050 0.96180 0.61120 -0.13600
C 	C 	0.04470 0.93480 0.85030 -0.11200
H 	H 	0.02610 0.90590 0.79900 0.08400
C 	C 	0.04760 0.06660 0.64640 -0.04300
H 	H 	0.03050 0.09760 0.69640 0.04700
C 	C 	0.10160 0.03660 0.88960 -0.23600
C 	C 	0.07530 0.00840 0.68750 -0.06900
C 	C 	0.04160 0.91970 0.96470 -0.02200
C 	C 	0.09710 0.02280 0.00420 0.02700
H 	H 	0.11380 0.05310 0.05590 0.02100
C 	C 	0.07510 0.99270 0.81180 0.16900
C 	C 	0.13840 0.09710 0.85030 0.50800
C 	C 	0.06810 0.96450 0.04160 -0.01500
H 	H 	0.06620 0.95500 0.11810 0.06400
O 	O 	0.98010 0.17580 0.55700 -0.41700
C 	C 	0.00740 0.85800 0.00320 0.30000
C 	C 	0.09700 0.97380 0.49630 0.09100
H 	H 	0.11300 0.94210 0.44600 -0.00700
C 	C 	0.06940 0.03380 0.45640 -0.14100
H 	H 	0.06780 0.04250 0.37950 0.07800
O 	O 	0.68180 0.08280 0.20920 -0.49000
O 	O 	0.62580 0.15750 0.12130 -0.52100
O 	O 	0.50950 0.83700 0.89560 -0.39300
O 	O 	0.51620 0.16240 0.61080 -0.39700
O 	O 	0.62010 0.83990 0.36690 -0.52500
O 	O 	0.68130 0.91510 0.29470 -0.48500
C 	C 	0.63610 0.90070 0.34720 0.47000
C 	C 	0.51260 0.14250 0.50930 0.29400
C 	C 	0.54460 0.08010 0.46900 -0.03400
O 	O 	0.47550 0.82640 0.06580 -0.41100
O 	O 	0.71780 0.95990 0.07730 -0.19800
C 	C 	0.60050 0.96180 0.38880 -0.13500
C 	C 	0.54470 0.93480 0.14970 -0.11600
H 	H 	0.52610 0.90590 0.20100 0.08600
C 	C 	0.54760 0.06660 0.35360 -0.04200
H 	H 	0.53050 0.09760 0.30360 0.04700
C 	C 	0.60160 0.03660 0.11040 -0.23500
C 	C 	0.57530 0.00840 0.31250 -0.07100
C 	C 	0.54160 0.91970 0.03530 -0.01300
C 	C 	0.59710 0.02280 0.99580 0.02700
H 	H 	0.61380 0.05310 0.94410 0.02000
C 	C 	0.57510 0.99270 0.18820 0.17100
C 	C 	0.63840 0.09710 0.14970 0.50800
C 	C 	0.56810 0.96450 0.95840 -0.02200
H 	H 	0.56620 0.95500 0.88190 0.06600
O 	O 	0.48010 0.17580 0.44300 -0.41800
C 	C 	0.50740 0.85800 0.99680 0.29500
C 	C 	0.59700 0.97380 0.50370 0.09100
H 	H 	0.61300 0.94210 0.55400 -0.00700
C 	C 	0.56940 0.03380 0.54360 -0.14100
H 	H 	0.56780 0.04250 0.62050 0.07800
O 	O 	0.31820 0.58280 0.79080 -0.48900
O 	O 	0.37420 0.65750 0.87870 -0.51700
O 	O 	0.49050 0.33700 0.10440 -0.39500
O 	O 	0.48380 0.66240 0.38920 -0.39500
O 	O 	0.37990 0.33990 0.63310 -0.53300
O 	O 	0.31870 0.41510 0.70530 -0.51700
C 	C 	0.36390 0.40070 0.65280 0.49400
C 	C 	0.48740 0.64250 0.49070 0.29300
C 	C 	0.45540 0.58010 0.53100 -0.02400
O 	O 	0.52450 0.32640 0.93420 -0.41400
O 	O 	0.28220 0.45990 0.92270 -0.24500
C 	C 	0.39950 0.46180 0.61120 -0.20300
C 	C 	0.45530 0.43480 0.85030 -0.07400
H 	H 	0.47390 0.40590 0.79900 0.06600
C 	C 	0.45240 0.56660 0.64640 -0.08800
H 	H 	0.46950 0.59760 0.69640 0.06800
C 	C 	0.39840 0.53660 0.88960 -0.17500
C 	C 	0.42470 0.50840 0.68750 0.05100
C 	C 	0.45840 0.41970 0.96470 -0.02100
C 	C 	0.40290 0.52280 0.00420 0.07100
H 	H 	0.38620 0.55310 0.05590 0.01300
C 	C 	0.42490 0.49270 0.81180 0.05000
C 	C 	0.36160 0.59710 0.85030 0.49500
C 	C 	0.43190 0.46450 0.04160 -0.07900
H 	H 	0.43380 0.45500 0.11810 0.07300
O 	O 	0.51990 0.67580 0.55700 -0.41600
C 	C 	0.49260 0.35800 0.00320 0.29600
C 	C 	0.40300 0.47380 0.49630 0.05300
H 	H 	0.38700 0.44210 0.44600 -0.00500
C 	C 	0.43060 0.53380 0.45640 -0.09000
H 	H 	0.43220 0.54250 0.37950 0.07200
O 	O 	0.18180 0.41720 0.79080 -0.49000
O 	O 	0.12580 0.34250 0.87870 -0.51800
O 	O 	0.00950 0.66300 0.10440 -0.39400
O 	O 	0.01620 0.33760 0.38920 -0.39500
O 	O 	0.12010 0.66010 0.63310 -0.53200
O 	O 	0.18130 0.58490 0.70530 -0.51700
C 	C 	0.13610 0.59930 0.65280 0.49400
C 	C 	0.01260 0.35750 0.49070 0.29200
C 	C 	0.04460 0.41990 0.53100 -0.02500
O 	O 	0.97550 0.67360 0.93420 -0.41200
O 	O 	0.21780 0.54010 0.92270 -0.24400
C 	C 	0.10050 0.53820 0.61120 -0.20300
C 	C 	0.04470 0.56520 0.85030 -0.07100
H 	H 	0.02610 0.59410 0.79900 0.06500
C 	C 	0.04760 0.43340 0.64640 -0.08800
H 	H 	0.03050 0.40240 0.69640 0.06700
C 	C 	0.10160 0.46340 0.88960 -0.17600
C 	C 	0.07530 0.49160 0.68750 0.05100
C 	C 	0.04160 0.58030 0.96470 -0.02900
C 	C 	0.09710 0.47720 0.00420 0.07100
H 	H 	0.11380 0.44690 0.05590 0.01300
C 	C 	0.07510 0.50730 0.81180 0.04900
C 	C 	0.13840 0.40290 0.85030 0.49500
C 	C 	0.06810 0.53550 0.04160 -0.07200
H 	H 	0.06620 0.54500 0.11810 0.07200
O 	O 	0.98010 0.32420 0.55700 -0.41600
C 	C 	0.00740 0.64200 0.00320 0.30100
C 	C 	0.09700 0.52620 0.49630 0.05300
H 	H 	0.11300 0.55790 0.44600 -0.00400
C 	C 	0.06940 0.46620 0.45640 -0.09000
H 	H 	0.06780 0.45750 0.37950 0.07200
O 	O 	0.81820 0.91720 0.20920 -0.45600
O 	O 	0.87420 0.84250 0.12130 -0.50900
O 	O 	0.99050 0.16300 0.89560 -0.39600
O 	O 	0.98380 0.83760 0.61080 -0.39300
O 	O 	0.87990 0.16010 0.36690 -0.53600
O 	O 	0.81870 0.08490 0.29470 -0.51600
C 	C 	0.86390 0.09930 0.34720 0.50700
C 	C 	0.98740 0.85750 0.50930 0.29200
C 	C 	0.95540 0.91990 0.46900 -0.01500
O 	O 	0.02450 0.17360 0.06580 -0.41500
O 	O 	0.78220 0.04010 0.07730 -0.24800
C 	C 	0.89950 0.03820 0.38880 -0.26100
C 	C 	0.95530 0.06520 0.14970 -0.02800
H 	H 	0.97390 0.09410 0.20100 0.04500
C 	C 	0.95240 0.93340 0.35360 -0.13100
H 	H 	0.96950 0.90240 0.30360 0.08800
C 	C 	0.89840 0.96340 0.11040 -0.10800
C 	C 	0.92470 0.99160 0.31250 0.17200
C 	C 	0.95840 0.08030 0.03530 -0.03800
C 	C 	0.90290 0.97720 0.99580 0.11100
H 	H 	0.88620 0.94690 0.94410 0.01000
C 	C 	0.92490 0.00730 0.18820 -0.07100
C 	C 	0.86160 0.90290 0.14970 0.47100
C 	C 	0.93190 0.03550 0.95840 -0.12400
H 	H 	0.93380 0.04500 0.88190 0.07900
O 	O 	0.01990 0.82420 0.44300 -0.41300
C 	C 	0.99260 0.14200 0.99680 0.30200
C 	C 	0.90300 0.02620 0.50370 0.01200
H 	H 	0.88700 0.05790 0.55400 0.00300
C 	C 	0.93060 0.96620 0.54360 -0.03500
H 	H 	0.93220 0.95750 0.62050 0.06600
Tb	Tb	0.43956 0.25000 0.58400 1.75100
Tb	Tb	0.56628 0.25000 0.07226 1.72400
Tb	Tb	0.56044 0.75000 0.41600 1.75100
Tb	Tb	0.43372 0.75000 0.92774 1.72400
Tb	Tb	0.93956 0.25000 0.41600 1.74900
Tb	Tb	0.06628 0.25000 0.92774 1.71700
Tb	Tb	0.06044 0.75000 0.58400 1.75000
Tb	Tb	0.93372 0.75000 0.07226 1.71700
Tb	Tb	0.25000 0.00000 0.73390 1.66400
O 	O 	0.25000 0.00000 0.07820 -0.14500
N 	N 	0.25000 0.00000 0.97720 0.04200
Tb	Tb	0.75000 0.50000 0.26610 1.76500
O 	O 	0.75000 0.50000 0.92180 -0.12800
N 	N 	0.75000 0.50000 0.02280 0.06400
Tb	Tb	0.75000 0.00000 0.26610 1.66400
O 	O 	0.75000 0.00000 0.92180 -0.14500
N 	N 	0.75000 -0.00000 0.02280 0.04200
Tb	Tb	0.25000 0.50000 0.73390 1.76500
O 	O 	0.25000 0.50000 0.07820 -0.12800
N 	N 	0.25000 0.50000 0.97720 0.06400
