data_crystal

_cell_length_a 18.76260
_cell_length_b 18.76260
_cell_length_c 37.79020
_cell_angle_alpha 90.00000
_cell_angle_beta  90.00000
_cell_angle_gamma 120.00000

_symmetry_space_group_name_	'P 1'
_symmetry_space_group_name_H-M	'P 1'

loop_
_symmetry_equiv_pos_as_xyz
  x,y,z

loop_
_atom_site_label
_atom_site_type_symbol
_atom_site_fract_x
_atom_site_fract_y
_atom_site_fract_z
_atom_site_charge
O 	O 	0.48271 0.37201 0.99562 -0.40800
O 	O 	0.44280 0.41015 0.04434 -0.41100
C 	C 	0.45410 0.36060 0.02649 0.36000
C 	C 	0.43310 0.28060 0.04408 -0.08500
C 	C 	0.40330 0.26520 0.07876 -0.02100
H 	H 	0.39310 0.30300 0.09030 0.05500
C 	C 	0.40170 0.14780 0.15700 0.19300
H 	H 	0.43800 0.12800 0.14940 -0.03100
C 	C 	0.37940 0.13690 0.19230 0.17900
H 	H 	0.40100 0.11000 0.20650 -0.02900
N 	N 	0.30350 0.20690 0.18190 -0.15800
N 	N 	0.32490 0.21710 0.14690 -0.15700
O 	O 	0.14938 0.70534 0.32895 -0.40800
O 	O 	0.10947 0.74348 0.37767 -0.41100
C 	C 	0.12077 0.69393 0.35982 0.36000
C 	C 	0.09977 0.61393 0.37741 -0.08500
C 	C 	0.06997 0.59853 0.41209 -0.02000
H 	H 	0.05977 0.63633 0.42363 0.05600
C 	C 	0.06837 0.48113 0.49033 0.19400
H 	H 	0.10467 0.46133 0.48273 -0.03000
C 	C 	0.04607 0.47023 0.52563 0.18000
H 	H 	0.06767 0.44333 0.53983 -0.02800
N 	N 	0.97017 0.54023 0.51523 -0.15700
N 	N 	0.99157 0.55043 0.48023 -0.15600
O 	O 	0.81604 0.03868 0.66229 -0.40700
O 	O 	0.77613 0.07682 0.71101 -0.41000
C 	C 	0.78743 0.02727 0.69316 0.36000
C 	C 	0.76643 0.94727 0.71075 -0.08400
C 	C 	0.73663 0.93187 0.74543 -0.02000
H 	H 	0.72643 0.96967 0.75697 0.05600
C 	C 	0.73503 0.81447 0.82367 0.19400
H 	H 	0.77133 0.79467 0.81607 -0.03000
C 	C 	0.71273 0.80357 0.85897 0.18100
H 	H 	0.73433 0.77667 0.87317 -0.02800
N 	N 	0.63683 0.87357 0.84857 -0.15700
N 	N 	0.65823 0.88377 0.81357 -0.15600
O 	O 	0.62799 0.11070 0.99562 -0.40700
O 	O 	0.58985 0.03265 0.04434 -0.41000
C 	C 	0.63940 0.09350 0.02649 0.36100
C 	C 	0.71940 0.15250 0.04408 -0.08400
C 	C 	0.73480 0.13810 0.07876 -0.02000
H 	H 	0.69700 0.09010 0.09030 0.05600
C 	C 	0.85220 0.25390 0.15700 0.19400
H 	H 	0.87200 0.31000 0.14940 -0.03000
C 	C 	0.86310 0.24250 0.19230 0.18000
H 	H 	0.89000 0.29100 0.20650 -0.02800
N 	N 	0.79310 0.09660 0.18190 -0.15700
N 	N 	0.78290 0.10780 0.14690 -0.15600
O 	O 	0.29466 0.44403 0.32895 -0.40700
O 	O 	0.25652 0.36598 0.37767 -0.41000
C 	C 	0.30607 0.42683 0.35982 0.36100
C 	C 	0.38607 0.48583 0.37741 -0.08400
C 	C 	0.40147 0.47143 0.41209 -0.02000
H 	H 	0.36367 0.42343 0.42363 0.05600
C 	C 	0.51887 0.58723 0.49033 0.19400
H 	H 	0.53867 0.64333 0.48273 -0.03000
C 	C 	0.52977 0.57583 0.52563 0.18100
H 	H 	0.55667 0.62433 0.53983 -0.02800
N 	N 	0.45977 0.42993 0.51523 -0.15800
N 	N 	0.44957 0.44113 0.48023 -0.15600
O 	O 	0.96132 0.77737 0.66229 -0.40700
O 	O 	0.92318 0.69932 0.71101 -0.41000
C 	C 	0.97273 0.76017 0.69316 0.36100
C 	C 	0.05273 0.81917 0.71075 -0.08400
C 	C 	0.06813 0.80477 0.74543 -0.02000
H 	H 	0.03033 0.75677 0.75697 0.05600
C 	C 	0.18553 0.92057 0.82367 0.19400
H 	H 	0.20533 0.97667 0.81607 -0.03000
C 	C 	0.19643 0.90917 0.85897 0.18000
H 	H 	0.22333 0.95767 0.87317 -0.02800
N 	N 	0.12643 0.76327 0.84857 -0.15700
N 	N 	0.11623 0.77447 0.81357 -0.15600
O 	O 	0.88930 0.51729 0.99562 -0.40700
O 	O 	0.96735 0.55720 0.04434 -0.41000
C 	C 	0.90650 0.54590 0.02649 0.36100
C 	C 	0.84750 0.56690 0.04408 -0.08400
C 	C 	0.86190 0.59670 0.07876 -0.02000
H 	H 	0.90990 0.60690 0.09030 0.05600
C 	C 	0.74610 0.59830 0.15700 0.19400
H 	H 	0.69000 0.56200 0.14940 -0.03000
C 	C 	0.75750 0.62060 0.19230 0.18000
H 	H 	0.70900 0.59900 0.20650 -0.02800
N 	N 	0.90340 0.69650 0.18190 -0.15700
N 	N 	0.89220 0.67510 0.14690 -0.15600
O 	O 	0.55597 0.85062 0.32895 -0.40700
O 	O 	0.63402 0.89053 0.37767 -0.41000
C 	C 	0.57317 0.87923 0.35982 0.36100
C 	C 	0.51417 0.90023 0.37741 -0.08400
C 	C 	0.52857 0.93003 0.41209 -0.02000
H 	H 	0.57657 0.94023 0.42363 0.05600
C 	C 	0.41277 0.93163 0.49033 0.19400
H 	H 	0.35667 0.89533 0.48273 -0.03000
C 	C 	0.42417 0.95393 0.52563 0.18000
H 	H 	0.37567 0.93233 0.53983 -0.02800
N 	N 	0.57007 0.02983 0.51523 -0.15700
N 	N 	0.55887 0.00843 0.48023 -0.15600
O 	O 	0.22263 0.18396 0.66229 -0.40700
O 	O 	0.30068 0.22387 0.71101 -0.41000
C 	C 	0.23983 0.21257 0.69316 0.36100
C 	C 	0.18083 0.23357 0.71075 -0.08400
C 	C 	0.19523 0.26337 0.74543 -0.02000
H 	H 	0.24323 0.27357 0.75697 0.05600
C 	C 	0.07943 0.26497 0.82367 0.19400
H 	H 	0.02333 0.22867 0.81607 -0.03000
C 	C 	0.09083 0.28727 0.85897 0.18000
H 	H 	0.04233 0.26567 0.87317 -0.02800
N 	N 	0.23673 0.36317 0.84857 -0.15700
N 	N 	0.22553 0.34177 0.81357 -0.15600
O 	O 	0.37201 0.48271 0.00438 -0.40700
O 	O 	0.41015 0.44280 0.95566 -0.41000
C 	C 	0.36060 0.45410 0.97351 0.36100
C 	C 	0.28060 0.43310 0.95592 -0.08400
C 	C 	0.26520 0.40330 0.92124 -0.02000
H 	H 	0.30300 0.39310 0.90970 0.05600
C 	C 	0.14780 0.40170 0.84300 0.19400
H 	H 	0.12800 0.43800 0.85060 -0.03000
C 	C 	0.13690 0.37940 0.80770 0.18000
H 	H 	0.11000 0.40100 0.79350 -0.02800
N 	N 	0.20690 0.30350 0.81810 -0.15700
N 	N 	0.21710 0.32490 0.85310 -0.15600
O 	O 	0.03868 0.81604 0.33771 -0.40700
O 	O 	0.07682 0.77613 0.28899 -0.41000
C 	C 	0.02727 0.78743 0.30684 0.36000
C 	C 	0.94727 0.76643 0.28925 -0.08400
C 	C 	0.93187 0.73663 0.25457 -0.02000
H 	H 	0.96967 0.72643 0.24303 0.05600
C 	C 	0.81447 0.73503 0.17633 0.19400
H 	H 	0.79467 0.77133 0.18393 -0.03000
C 	C 	0.80357 0.71273 0.14103 0.18100
H 	H 	0.77667 0.73433 0.12683 -0.02800
N 	N 	0.87357 0.63683 0.15143 -0.15700
N 	N 	0.88377 0.65823 0.18643 -0.15600
O 	O 	0.70534 0.14938 0.67105 -0.40700
O 	O 	0.74348 0.10947 0.62233 -0.41000
C 	C 	0.69393 0.12077 0.64018 0.36100
C 	C 	0.61393 0.09977 0.62259 -0.08400
C 	C 	0.59853 0.06997 0.58791 -0.02000
H 	H 	0.63633 0.05977 0.57637 0.05600
C 	C 	0.48113 0.06837 0.50967 0.19400
H 	H 	0.46133 0.10467 0.51727 -0.03000
C 	C 	0.47023 0.04607 0.47437 0.18000
H 	H 	0.44333 0.06767 0.46017 -0.02800
N 	N 	0.54023 0.97017 0.48477 -0.15700
N 	N 	0.55043 0.99157 0.51977 -0.15600
O 	O 	0.11070 0.62799 0.00438 -0.40700
O 	O 	0.03265 0.58985 0.95566 -0.41000
C 	C 	0.09350 0.63940 0.97351 0.36100
C 	C 	0.15250 0.71940 0.95592 -0.08400
C 	C 	0.13810 0.73480 0.92124 -0.02000
H 	H 	0.09010 0.69700 0.90970 0.05600
C 	C 	0.25390 0.85220 0.84300 0.19400
H 	H 	0.31000 0.87200 0.85060 -0.03000
C 	C 	0.24250 0.86310 0.80770 0.18000
H 	H 	0.29100 0.89000 0.79350 -0.02800
N 	N 	0.09660 0.79310 0.81810 -0.15700
N 	N 	0.10780 0.78290 0.85310 -0.15600
O 	O 	0.77737 0.96132 0.33771 -0.40700
O 	O 	0.69932 0.92318 0.28899 -0.41000
C 	C 	0.76017 0.97273 0.30684 0.36100
C 	C 	0.81917 0.05273 0.28925 -0.08400
C 	C 	0.80477 0.06813 0.25457 -0.02000
H 	H 	0.75677 0.03033 0.24303 0.05600
C 	C 	0.92057 0.18553 0.17633 0.19400
H 	H 	0.97667 0.20533 0.18393 -0.03000
C 	C 	0.90917 0.19643 0.14103 0.18000
H 	H 	0.95767 0.22333 0.12683 -0.02800
N 	N 	0.76327 0.12643 0.15143 -0.15700
N 	N 	0.77447 0.11623 0.18643 -0.15600
O 	O 	0.44403 0.29466 0.67105 -0.40700
O 	O 	0.36598 0.25652 0.62233 -0.41000
C 	C 	0.42683 0.30607 0.64018 0.36100
C 	C 	0.48583 0.38607 0.62259 -0.08400
C 	C 	0.47143 0.40147 0.58791 -0.02000
H 	H 	0.42343 0.36367 0.57637 0.05600
C 	C 	0.58723 0.51887 0.50967 0.19400
H 	H 	0.64333 0.53867 0.51727 -0.03000
C 	C 	0.57583 0.52977 0.47437 0.18100
H 	H 	0.62433 0.55667 0.46017 -0.02800
N 	N 	0.42993 0.45977 0.48477 -0.15800
N 	N 	0.44113 0.44957 0.51977 -0.15600
O 	O 	0.51729 0.88930 0.00438 -0.40700
O 	O 	0.55720 0.96735 0.95566 -0.41000
C 	C 	0.54590 0.90650 0.97351 0.36100
C 	C 	0.56690 0.84750 0.95592 -0.08400
C 	C 	0.59670 0.86190 0.92124 -0.02000
H 	H 	0.60690 0.90990 0.90970 0.05600
C 	C 	0.59830 0.74610 0.84300 0.19400
H 	H 	0.56200 0.69000 0.85060 -0.03000
C 	C 	0.62060 0.75750 0.80770 0.18000
H 	H 	0.59900 0.70900 0.79350 -0.02800
N 	N 	0.69650 0.90340 0.81810 -0.15700
N 	N 	0.67510 0.89220 0.85310 -0.15600
O 	O 	0.18396 0.22263 0.33771 -0.40700
O 	O 	0.22387 0.30068 0.28899 -0.41000
C 	C 	0.21257 0.23983 0.30684 0.36100
C 	C 	0.23357 0.18083 0.28925 -0.08400
C 	C 	0.26337 0.19523 0.25457 -0.02000
H 	H 	0.27357 0.24323 0.24303 0.05600
C 	C 	0.26497 0.07943 0.17633 0.19400
H 	H 	0.22867 0.02333 0.18393 -0.03000
C 	C 	0.28727 0.09083 0.14103 0.18000
H 	H 	0.26567 0.04233 0.12683 -0.02800
N 	N 	0.36317 0.23673 0.15143 -0.15700
N 	N 	0.34177 0.22553 0.18643 -0.15600
O 	O 	0.85062 0.55597 0.67105 -0.40700
O 	O 	0.89053 0.63402 0.62233 -0.41000
C 	C 	0.87923 0.57317 0.64018 0.36100
C 	C 	0.90023 0.51417 0.62259 -0.08400
C 	C 	0.93003 0.52857 0.58791 -0.02000
H 	H 	0.94023 0.57657 0.57637 0.05600
C 	C 	0.93163 0.41277 0.50967 0.19400
H 	H 	0.89533 0.35667 0.51727 -0.03000
C 	C 	0.95393 0.42417 0.47437 0.18000
H 	H 	0.93233 0.37567 0.46017 -0.02800
N 	N 	0.02983 0.57007 0.48477 -0.15700
N 	N 	0.00843 0.55887 0.51977 -0.15600
O 	O 	0.51729 0.62799 0.00438 -0.40700
O 	O 	0.55720 0.58985 0.95566 -0.41000
C 	C 	0.54590 0.63940 0.97351 0.36100
C 	C 	0.56690 0.71940 0.95592 -0.08400
C 	C 	0.59670 0.73480 0.92124 -0.02000
H 	H 	0.60690 0.69700 0.90970 0.05600
C 	C 	0.59830 0.85220 0.84300 0.19400
H 	H 	0.56200 0.87200 0.85060 -0.03000
C 	C 	0.62060 0.86310 0.80770 0.18000
H 	H 	0.59900 0.89000 0.79350 -0.02800
N 	N 	0.69650 0.79310 0.81810 -0.15700
N 	N 	0.67510 0.78290 0.85310 -0.15600
O 	O 	0.18396 0.96132 0.33771 -0.40700
O 	O 	0.22387 0.92318 0.28899 -0.41000
C 	C 	0.21257 0.97273 0.30684 0.36000
C 	C 	0.23357 0.05273 0.28925 -0.08400
C 	C 	0.26337 0.06813 0.25457 -0.02000
H 	H 	0.27357 0.03033 0.24303 0.05600
C 	C 	0.26497 0.18553 0.17633 0.19400
H 	H 	0.22867 0.20533 0.18393 -0.03000
C 	C 	0.28727 0.19643 0.14103 0.18100
H 	H 	0.26567 0.22333 0.12683 -0.02800
N 	N 	0.36317 0.12643 0.15143 -0.15700
N 	N 	0.34177 0.11623 0.18643 -0.15600
O 	O 	0.85062 0.29466 0.67105 -0.40700
O 	O 	0.89053 0.25652 0.62233 -0.41000
C 	C 	0.87923 0.30607 0.64018 0.36100
C 	C 	0.90023 0.38607 0.62259 -0.08400
C 	C 	0.93003 0.40147 0.58791 -0.02000
H 	H 	0.94023 0.36367 0.57637 0.05600
C 	C 	0.93163 0.51887 0.50967 0.19400
H 	H 	0.89533 0.53867 0.51727 -0.03000
C 	C 	0.95393 0.52977 0.47437 0.18000
H 	H 	0.93233 0.55667 0.46017 -0.02800
N 	N 	0.02983 0.45977 0.48477 -0.15700
N 	N 	0.00843 0.44957 0.51977 -0.15600
O 	O 	0.37201 0.88930 0.00438 -0.40700
O 	O 	0.41015 0.96735 0.95566 -0.41000
C 	C 	0.36060 0.90650 0.97351 0.36100
C 	C 	0.28060 0.84750 0.95592 -0.08400
C 	C 	0.26520 0.86190 0.92124 -0.02000
H 	H 	0.30300 0.90990 0.90970 0.05600
C 	C 	0.14780 0.74610 0.84300 0.19400
H 	H 	0.12800 0.69000 0.85060 -0.03000
C 	C 	0.13690 0.75750 0.80770 0.18000
H 	H 	0.11000 0.70900 0.79350 -0.02800
N 	N 	0.20690 0.90340 0.81810 -0.15700
N 	N 	0.21710 0.89220 0.85310 -0.15600
O 	O 	0.03868 0.22263 0.33771 -0.40700
O 	O 	0.07682 0.30068 0.28899 -0.41000
C 	C 	0.02727 0.23983 0.30684 0.36100
C 	C 	0.94727 0.18083 0.28925 -0.08400
C 	C 	0.93187 0.19523 0.25457 -0.02000
H 	H 	0.96967 0.24323 0.24303 0.05600
C 	C 	0.81447 0.07943 0.17633 0.19400
H 	H 	0.79467 0.02333 0.18393 -0.03000
C 	C 	0.80357 0.09083 0.14103 0.18000
H 	H 	0.77667 0.04233 0.12683 -0.02800
N 	N 	0.87357 0.23673 0.15143 -0.15700
N 	N 	0.88377 0.22553 0.18643 -0.15600
O 	O 	0.70534 0.55597 0.67105 -0.40700
O 	O 	0.74348 0.63402 0.62233 -0.41000
C 	C 	0.69393 0.57317 0.64018 0.36100
C 	C 	0.61393 0.51417 0.62259 -0.08400
C 	C 	0.59853 0.52857 0.58791 -0.02000
H 	H 	0.63633 0.57657 0.57637 0.05600
C 	C 	0.48113 0.41277 0.50967 0.19400
H 	H 	0.46133 0.35667 0.51727 -0.03000
C 	C 	0.47023 0.42417 0.47437 0.18100
H 	H 	0.44333 0.37567 0.46017 -0.02800
N 	N 	0.54023 0.57007 0.48477 -0.15800
N 	N 	0.55043 0.55887 0.51977 -0.15600
O 	O 	0.11070 0.48271 0.00438 -0.40700
O 	O 	0.03265 0.44280 0.95566 -0.41000
C 	C 	0.09350 0.45410 0.97351 0.36100
C 	C 	0.15250 0.43310 0.95592 -0.08400
C 	C 	0.13810 0.40330 0.92124 -0.02000
H 	H 	0.09010 0.39310 0.90970 0.05600
C 	C 	0.25390 0.40170 0.84300 0.19400
H 	H 	0.31000 0.43800 0.85060 -0.03000
C 	C 	0.24250 0.37940 0.80770 0.18000
H 	H 	0.29100 0.40100 0.79350 -0.02800
N 	N 	0.09660 0.30350 0.81810 -0.15700
N 	N 	0.10780 0.32490 0.85310 -0.15600
O 	O 	0.77737 0.81604 0.33771 -0.40700
O 	O 	0.69932 0.77613 0.28899 -0.41000
C 	C 	0.76017 0.78743 0.30684 0.36100
C 	C 	0.81917 0.76643 0.28925 -0.08400
C 	C 	0.80477 0.73663 0.25457 -0.02000
H 	H 	0.75677 0.72643 0.24303 0.05600
C 	C 	0.92057 0.73503 0.17633 0.19400
H 	H 	0.97667 0.77133 0.18393 -0.03000
C 	C 	0.90917 0.71273 0.14103 0.18000
H 	H 	0.95767 0.73433 0.12683 -0.02800
N 	N 	0.76327 0.63683 0.15143 -0.15700
N 	N 	0.77447 0.65823 0.18643 -0.15600
O 	O 	0.44403 0.14938 0.67105 -0.40700
O 	O 	0.36598 0.10947 0.62233 -0.41000
C 	C 	0.42683 0.12077 0.64018 0.36100
C 	C 	0.48583 0.09977 0.62259 -0.08400
C 	C 	0.47143 0.06997 0.58791 -0.02000
H 	H 	0.42343 0.05977 0.57637 0.05600
C 	C 	0.58723 0.06837 0.50967 0.19400
H 	H 	0.64333 0.10467 0.51727 -0.03000
C 	C 	0.57583 0.04607 0.47437 0.18000
H 	H 	0.62433 0.06767 0.46017 -0.02800
N 	N 	0.42993 0.97017 0.48477 -0.15700
N 	N 	0.44113 0.99157 0.51977 -0.15600
O 	O 	0.62799 0.51729 0.99562 -0.40700
O 	O 	0.58985 0.55720 0.04434 -0.41000
C 	C 	0.63940 0.54590 0.02649 0.36100
C 	C 	0.71940 0.56690 0.04408 -0.08400
C 	C 	0.73480 0.59670 0.07876 -0.02000
H 	H 	0.69700 0.60690 0.09030 0.05600
C 	C 	0.85220 0.59830 0.15700 0.19400
H 	H 	0.87200 0.56200 0.14940 -0.03000
C 	C 	0.86310 0.62060 0.19230 0.18000
H 	H 	0.89000 0.59900 0.20650 -0.02800
N 	N 	0.79310 0.69650 0.18190 -0.15700
N 	N 	0.78290 0.67510 0.14690 -0.15600
O 	O 	0.29466 0.85062 0.32895 -0.40700
O 	O 	0.25652 0.89053 0.37767 -0.41000
C 	C 	0.30607 0.87923 0.35982 0.36100
C 	C 	0.38607 0.90023 0.37741 -0.08400
C 	C 	0.40147 0.93003 0.41209 -0.02000
H 	H 	0.36367 0.94023 0.42363 0.05600
C 	C 	0.51887 0.93163 0.49033 0.19400
H 	H 	0.53867 0.89533 0.48273 -0.03000
C 	C 	0.52977 0.95393 0.52563 0.18000
H 	H 	0.55667 0.93233 0.53983 -0.02800
N 	N 	0.45977 0.02983 0.51523 -0.15700
N 	N 	0.44957 0.00843 0.48023 -0.15600
O 	O 	0.96132 0.18396 0.66229 -0.40700
O 	O 	0.92318 0.22387 0.71101 -0.41000
C 	C 	0.97273 0.21257 0.69316 0.36000
C 	C 	0.05273 0.23357 0.71075 -0.08400
C 	C 	0.06813 0.26337 0.74543 -0.02000
H 	H 	0.03033 0.27357 0.75697 0.05600
C 	C 	0.18553 0.26497 0.82367 0.19400
H 	H 	0.20533 0.22867 0.81607 -0.03000
C 	C 	0.19643 0.28727 0.85897 0.18100
H 	H 	0.22333 0.26567 0.87317 -0.02800
N 	N 	0.12643 0.36317 0.84857 -0.15700
N 	N 	0.11623 0.34177 0.81357 -0.15600
O 	O 	0.88930 0.37201 0.99562 -0.40700
O 	O 	0.96735 0.41015 0.04434 -0.41000
C 	C 	0.90650 0.36060 0.02649 0.36100
C 	C 	0.84750 0.28060 0.04408 -0.08400
C 	C 	0.86190 0.26520 0.07876 -0.02000
H 	H 	0.90990 0.30300 0.09030 0.05600
C 	C 	0.74610 0.14780 0.15700 0.19400
H 	H 	0.69000 0.12800 0.14940 -0.03000
C 	C 	0.75750 0.13690 0.19230 0.18000
H 	H 	0.70900 0.11000 0.20650 -0.02800
N 	N 	0.90340 0.20690 0.18190 -0.15700
N 	N 	0.89220 0.21710 0.14690 -0.15600
O 	O 	0.55597 0.70534 0.32895 -0.40700
O 	O 	0.63402 0.74348 0.37767 -0.41000
C 	C 	0.57317 0.69393 0.35982 0.36100
C 	C 	0.51417 0.61393 0.37741 -0.08400
C 	C 	0.52857 0.59853 0.41209 -0.02000
H 	H 	0.57657 0.63633 0.42363 0.05600
C 	C 	0.41277 0.48113 0.49033 0.19400
H 	H 	0.35667 0.46133 0.48273 -0.03000
C 	C 	0.42417 0.47023 0.52563 0.18100
H 	H 	0.37567 0.44333 0.53983 -0.02800
N 	N 	0.57007 0.54023 0.51523 -0.15800
N 	N 	0.55887 0.55043 0.48023 -0.15600
O 	O 	0.22263 0.03868 0.66229 -0.40700
O 	O 	0.30068 0.07682 0.71101 -0.41000
C 	C 	0.23983 0.02727 0.69316 0.36100
C 	C 	0.18083 0.94727 0.71075 -0.08400
C 	C 	0.19523 0.93187 0.74543 -0.02000
H 	H 	0.24323 0.96967 0.75697 0.05600
C 	C 	0.07943 0.81447 0.82367 0.19400
H 	H 	0.02333 0.79467 0.81607 -0.03000
C 	C 	0.09083 0.80357 0.85897 0.18000
H 	H 	0.04233 0.77667 0.87317 -0.02800
N 	N 	0.23673 0.87357 0.84857 -0.15700
N 	N 	0.22553 0.88377 0.81357 -0.15600
O 	O 	0.48271 0.11070 0.99562 -0.40700
O 	O 	0.44280 0.03265 0.04434 -0.41000
C 	C 	0.45410 0.09350 0.02649 0.36100
C 	C 	0.43310 0.15250 0.04408 -0.08400
C 	C 	0.40330 0.13810 0.07876 -0.02000
H 	H 	0.39310 0.09010 0.09030 0.05600
C 	C 	0.40170 0.25390 0.15700 0.19400
H 	H 	0.43800 0.31000 0.14940 -0.03000
C 	C 	0.37940 0.24250 0.19230 0.18000
H 	H 	0.40100 0.29100 0.20650 -0.02800
N 	N 	0.30350 0.09660 0.18190 -0.15700
N 	N 	0.32490 0.10780 0.14690 -0.15600
O 	O 	0.14938 0.44403 0.32895 -0.40700
O 	O 	0.10947 0.36598 0.37767 -0.41000
C 	C 	0.12077 0.42683 0.35982 0.36100
C 	C 	0.09977 0.48583 0.37741 -0.08400
C 	C 	0.06997 0.47143 0.41209 -0.02000
H 	H 	0.05977 0.42343 0.42363 0.05600
C 	C 	0.06837 0.58723 0.49033 0.19400
H 	H 	0.10467 0.64333 0.48273 -0.03000
C 	C 	0.04607 0.57583 0.52563 0.18000
H 	H 	0.06767 0.62433 0.53983 -0.02800
N 	N 	0.97017 0.42993 0.51523 -0.15700
N 	N 	0.99157 0.44113 0.48023 -0.15600
O 	O 	0.81604 0.77737 0.66229 -0.40700
O 	O 	0.77613 0.69932 0.71101 -0.41000
C 	C 	0.78743 0.76017 0.69316 0.36100
C 	C 	0.76643 0.81917 0.71075 -0.08400
C 	C 	0.73663 0.80477 0.74543 -0.02000
H 	H 	0.72643 0.75677 0.75697 0.05600
C 	C 	0.73503 0.92057 0.82367 0.19400
H 	H 	0.77133 0.97667 0.81607 -0.03000
C 	C 	0.71273 0.90917 0.85897 0.18000
H 	H 	0.73433 0.95767 0.87317 -0.02800
N 	N 	0.63683 0.76327 0.84857 -0.15700
N 	N 	0.65823 0.77447 0.81357 -0.15600
Cu	Cu	0.52309 0.47691 0.97097 0.90400
Cu	Cu	0.18975 0.81025 0.30430 0.90400
Cu	Cu	0.85642 0.14358 0.63763 0.90400
Cu	Cu	0.52309 0.04618 0.97097 0.90400
Cu	Cu	0.18975 0.37951 0.30430 0.90400
Cu	Cu	0.85642 0.71284 0.63763 0.90400
Cu	Cu	0.95382 0.47691 0.97097 0.90400
Cu	Cu	0.62049 0.81025 0.30430 0.90400
Cu	Cu	0.28716 0.14358 0.63763 0.90400
Cu	Cu	0.47691 0.52309 0.02903 0.90400
Cu	Cu	0.14358 0.85642 0.36237 0.90400
Cu	Cu	0.81025 0.18975 0.69570 0.90400
Cu	Cu	0.04618 0.52309 0.02903 0.90400
Cu	Cu	0.71284 0.85642 0.36237 0.90400
Cu	Cu	0.37951 0.18975 0.69570 0.90400
Cu	Cu	0.47691 0.95382 0.02903 0.90400
Cu	Cu	0.14358 0.28716 0.36237 0.90400
Cu	Cu	0.81025 0.62049 0.69570 0.90400
C 	C 	0.44790 0.22395 0.02686 0.02400
H 	H 	0.46790 0.23395 0.00380 0.05200
C 	C 	0.38880 0.19440 0.09612 -0.01100
C 	C 	0.37340 0.18670 0.13500 0.01900
C 	C 	0.32600 0.16300 0.20360 0.01500
C 	C 	0.11457 0.55728 0.36019 0.02400
H 	H 	0.13457 0.56728 0.33713 0.05200
C 	C 	0.05547 0.52773 0.42945 -0.01100
C 	C 	0.04007 0.52003 0.46833 0.01900
C 	C 	0.99267 0.49633 0.53693 0.01500
C 	C 	0.78123 0.89062 0.69353 0.02400
H 	H 	0.80123 0.90062 0.67047 0.05200
C 	C 	0.72213 0.86107 0.76279 -0.01100
C 	C 	0.70673 0.85337 0.80167 0.01900
C 	C 	0.65933 0.82967 0.87027 0.01500
C 	C 	0.77605 0.22395 0.02686 0.02400
H 	H 	0.76605 0.23395 0.00380 0.05200
C 	C 	0.80560 0.19440 0.09612 -0.01100
C 	C 	0.81330 0.18670 0.13500 0.01900
C 	C 	0.83700 0.16300 0.20360 0.01500
C 	C 	0.44272 0.55728 0.36019 0.02400
H 	H 	0.43272 0.56728 0.33713 0.05200
C 	C 	0.47227 0.52773 0.42945 -0.01100
C 	C 	0.47997 0.52003 0.46833 0.01900
C 	C 	0.50367 0.49633 0.53693 0.01400
C 	C 	0.10938 0.89062 0.69353 0.02400
H 	H 	0.09938 0.90062 0.67047 0.05200
C 	C 	0.13893 0.86107 0.76279 -0.01100
C 	C 	0.14663 0.85337 0.80167 0.01900
C 	C 	0.17033 0.82967 0.87027 0.01500
C 	C 	0.77605 0.55210 0.02686 0.02400
H 	H 	0.76605 0.53210 0.00380 0.05200
C 	C 	0.80560 0.61120 0.09612 -0.01100
C 	C 	0.81330 0.62660 0.13500 0.01900
C 	C 	0.83700 0.67400 0.20360 0.01500
C 	C 	0.44272 0.88543 0.36019 0.02400
H 	H 	0.43272 0.86543 0.33713 0.05200
C 	C 	0.47227 0.94453 0.42945 -0.01100
C 	C 	0.47997 0.95993 0.46833 0.01900
C 	C 	0.50367 0.00733 0.53693 0.01500
C 	C 	0.10938 0.21877 0.69353 0.02400
H 	H 	0.09938 0.19877 0.67047 0.05200
C 	C 	0.13893 0.27787 0.76279 -0.01100
C 	C 	0.14663 0.29327 0.80167 0.01900
C 	C 	0.17033 0.34067 0.87027 0.01500
C 	C 	0.22395 0.44790 0.97314 0.02400
H 	H 	0.23395 0.46790 0.99620 0.05200
C 	C 	0.19440 0.38880 0.90388 -0.01100
C 	C 	0.18670 0.37340 0.86500 0.01900
C 	C 	0.16300 0.32600 0.79640 0.01500
C 	C 	0.89062 0.78123 0.30647 0.02400
H 	H 	0.90062 0.80123 0.32953 0.05200
C 	C 	0.86107 0.72213 0.23721 -0.01100
C 	C 	0.85337 0.70673 0.19833 0.01900
C 	C 	0.82967 0.65933 0.12973 0.01500
C 	C 	0.55728 0.11457 0.63981 0.02400
H 	H 	0.56728 0.13457 0.66287 0.05200
C 	C 	0.52773 0.05547 0.57055 -0.01100
C 	C 	0.52003 0.04007 0.53167 0.01900
C 	C 	0.49633 0.99267 0.46307 0.01500
C 	C 	0.22395 0.77605 0.97314 0.02400
H 	H 	0.23395 0.76605 0.99620 0.05200
C 	C 	0.19440 0.80560 0.90388 -0.01100
C 	C 	0.18670 0.81330 0.86500 0.01900
C 	C 	0.16300 0.83700 0.79640 0.01500
C 	C 	0.89062 0.10938 0.30647 0.02400
H 	H 	0.90062 0.09938 0.32953 0.05200
C 	C 	0.86107 0.13893 0.23721 -0.01100
C 	C 	0.85337 0.14663 0.19833 0.01900
C 	C 	0.82967 0.17033 0.12973 0.01500
C 	C 	0.55728 0.44272 0.63981 0.02400
H 	H 	0.56728 0.43272 0.66287 0.05200
C 	C 	0.52773 0.47227 0.57055 -0.01100
C 	C 	0.52003 0.47997 0.53167 0.01900
C 	C 	0.49633 0.50367 0.46307 0.01400
C 	C 	0.55210 0.77605 0.97314 0.02400
H 	H 	0.53210 0.76605 0.99620 0.05200
C 	C 	0.61120 0.80560 0.90388 -0.01100
C 	C 	0.62660 0.81330 0.86500 0.01900
C 	C 	0.67400 0.83700 0.79640 0.01500
C 	C 	0.21877 0.10938 0.30647 0.02400
H 	H 	0.19877 0.09938 0.32953 0.05200
C 	C 	0.27787 0.13893 0.23721 -0.01100
C 	C 	0.29327 0.14663 0.19833 0.01900
C 	C 	0.34067 0.17033 0.12973 0.01500
C 	C 	0.88543 0.44272 0.63981 0.02400
H 	H 	0.86543 0.43272 0.66287 0.05200
C 	C 	0.94453 0.47227 0.57055 -0.01100
C 	C 	0.95993 0.47997 0.53167 0.01900
C 	C 	0.00733 0.50367 0.46307 0.01500
