data_crystal

_cell_length_a 18.57280
_cell_length_b 18.57280
_cell_length_c 18.57280
_cell_angle_alpha 90.00000
_cell_angle_beta  90.00000
_cell_angle_gamma 90.00000

_symmetry_space_group_name_	'P 1'
_symmetry_space_group_name_H-M	'P 1'

loop_
_symmetry_equiv_pos_as_xyz
  x,y,z

loop_
_atom_site_label
_atom_site_type_symbol
_atom_site_fract_x
_atom_site_fract_y
_atom_site_fract_z
_atom_site_charge
Ce	Ce	0.39290 0.25980 0.24410 2.16700
O 	O 	0.32250 0.32250 0.17750 -0.81800
O 	O 	0.45200 0.27300 0.12800 -0.43500
O 	O 	0.35700 0.25700 0.05300 -0.44900
C 	C 	0.42600 0.26900 0.06400 0.38200
C 	C 	0.46300 0.27400 -0.00000 -0.05500
O 	O 	0.46960 0.25700 0.34900 -0.42200
O 	O 	0.38300 0.25200 0.43450 -0.44200
C 	C 	0.45000 0.25900 0.41900 0.36700
C 	C 	0.50900 0.26700 0.46400 -0.05000
Ce	Ce	0.60710 0.74020 0.24410 2.16600
O 	O 	0.67750 0.67750 0.17750 -0.81900
O 	O 	0.54800 0.72700 0.12800 -0.43600
O 	O 	0.64300 0.74300 0.05300 -0.45000
C 	C 	0.57400 0.73100 0.06400 0.38100
C 	C 	0.53700 0.72600 -0.00000 -0.05600
O 	O 	0.53040 0.74300 0.34900 -0.42300
O 	O 	0.61700 0.74800 0.43450 -0.44300
C 	C 	0.55000 0.74100 0.41900 0.36600
C 	C 	0.49100 0.73300 0.46400 -0.05100
Ce	Ce	0.60710 0.25980 0.75590 2.16600
O 	O 	0.67750 0.32250 0.82250 -0.81900
O 	O 	0.54800 0.27300 0.87200 -0.43500
O 	O 	0.64300 0.25700 0.94700 -0.45100
C 	C 	0.57400 0.26900 0.93600 0.37600
C 	C 	0.53700 0.27400 -0.00000 -0.05100
O 	O 	0.53040 0.25700 0.65100 -0.42300
O 	O 	0.61700 0.25200 0.56550 -0.44300
C 	C 	0.55000 0.25900 0.58100 0.36600
C 	C 	0.49100 0.26700 0.53600 -0.05100
Ce	Ce	0.39290 0.74020 0.75590 2.16600
O 	O 	0.32250 0.67750 0.82250 -0.81900
O 	O 	0.45200 0.72700 0.87200 -0.43600
O 	O 	0.35700 0.74300 0.94700 -0.45100
C 	C 	0.42600 0.73100 0.93600 0.37600
C 	C 	0.46300 0.72600 -0.00000 -0.05200
O 	O 	0.46960 0.74300 0.65100 -0.42300
O 	O 	0.38300 0.74800 0.56550 -0.44300
C 	C 	0.45000 0.74100 0.58100 0.36600
C 	C 	0.50900 0.73300 0.53600 -0.05200
Ce	Ce	0.24410 0.39290 0.25980 2.16600
O 	O 	0.17750 0.32250 0.32250 -0.81900
O 	O 	0.12800 0.45200 0.27300 -0.43600
O 	O 	0.05300 0.35700 0.25700 -0.45000
C 	C 	0.06400 0.42600 0.26900 0.38100
C 	C 	-0.00000 0.46300 0.27400 -0.05600
O 	O 	0.34900 0.46960 0.25700 -0.42300
O 	O 	0.43450 0.38300 0.25200 -0.44300
C 	C 	0.41900 0.45000 0.25900 0.36600
C 	C 	0.46400 0.50900 0.26700 -0.05100
Ce	Ce	0.24410 0.60710 0.74020 2.16600
O 	O 	0.17750 0.67750 0.67750 -0.81900
O 	O 	0.12800 0.54800 0.72700 -0.43600
O 	O 	0.05300 0.64300 0.74300 -0.45000
C 	C 	0.06400 0.57400 0.73100 0.38100
C 	C 	0.00000 0.53700 0.72600 -0.05600
O 	O 	0.34900 0.53040 0.74300 -0.42300
O 	O 	0.43450 0.61700 0.74800 -0.44300
C 	C 	0.41900 0.55000 0.74100 0.36600
C 	C 	0.46400 0.49100 0.73300 -0.05100
Ce	Ce	0.75590 0.60710 0.25980 2.16600
O 	O 	0.82250 0.67750 0.32250 -0.81900
O 	O 	0.87200 0.54800 0.27300 -0.43500
O 	O 	0.94700 0.64300 0.25700 -0.45100
C 	C 	0.93600 0.57400 0.26900 0.37600
C 	C 	0.00000 0.53700 0.27400 -0.05100
O 	O 	0.65100 0.53040 0.25700 -0.42300
O 	O 	0.56550 0.61700 0.25200 -0.44300
C 	C 	0.58100 0.55000 0.25900 0.36600
C 	C 	0.53600 0.49100 0.26700 -0.05100
Ce	Ce	0.75590 0.39290 0.74020 2.16600
O 	O 	0.82250 0.32250 0.67750 -0.81900
O 	O 	0.87200 0.45200 0.72700 -0.43600
O 	O 	0.94700 0.35700 0.74300 -0.45100
C 	C 	0.93600 0.42600 0.73100 0.37600
C 	C 	-0.00000 0.46300 0.72600 -0.05200
O 	O 	0.65100 0.46960 0.74300 -0.42300
O 	O 	0.56550 0.38300 0.74800 -0.44300
C 	C 	0.58100 0.45000 0.74100 0.36600
C 	C 	0.53600 0.50900 0.73300 -0.05200
Ce	Ce	0.25980 0.24410 0.39290 2.16600
O 	O 	0.32250 0.17750 0.32250 -0.81900
O 	O 	0.27300 0.12800 0.45200 -0.43600
O 	O 	0.25700 0.05300 0.35700 -0.45000
C 	C 	0.26900 0.06400 0.42600 0.38100
C 	C 	0.27400 -0.00000 0.46300 -0.05600
O 	O 	0.25700 0.34900 0.46960 -0.42300
O 	O 	0.25200 0.43450 0.38300 -0.44300
C 	C 	0.25900 0.41900 0.45000 0.36600
C 	C 	0.26700 0.46400 0.50900 -0.05100
Ce	Ce	0.74020 0.24410 0.60710 2.16600
O 	O 	0.67750 0.17750 0.67750 -0.81900
O 	O 	0.72700 0.12800 0.54800 -0.43600
O 	O 	0.74300 0.05300 0.64300 -0.45000
C 	C 	0.73100 0.06400 0.57400 0.38100
C 	C 	0.72600 0.00000 0.53700 -0.05600
O 	O 	0.74300 0.34900 0.53040 -0.42300
O 	O 	0.74800 0.43450 0.61700 -0.44300
C 	C 	0.74100 0.41900 0.55000 0.36600
C 	C 	0.73300 0.46400 0.49100 -0.05100
Ce	Ce	0.25980 0.75590 0.60710 2.16600
O 	O 	0.32250 0.82250 0.67750 -0.81900
O 	O 	0.27300 0.87200 0.54800 -0.43500
O 	O 	0.25700 0.94700 0.64300 -0.45100
C 	C 	0.26900 0.93600 0.57400 0.37600
C 	C 	0.27400 0.00000 0.53700 -0.05100
O 	O 	0.25700 0.65100 0.53040 -0.42300
O 	O 	0.25200 0.56550 0.61700 -0.44300
C 	C 	0.25900 0.58100 0.55000 0.36600
C 	C 	0.26700 0.53600 0.49100 -0.05100
Ce	Ce	0.74020 0.75590 0.39290 2.16600
O 	O 	0.67750 0.82250 0.32250 -0.81900
O 	O 	0.72700 0.87200 0.45200 -0.43600
O 	O 	0.74300 0.94700 0.35700 -0.45100
C 	C 	0.73100 0.93600 0.42600 0.37600
C 	C 	0.72600 -0.00000 0.46300 -0.05200
O 	O 	0.74300 0.65100 0.46960 -0.42300
O 	O 	0.74800 0.56550 0.38300 -0.44300
C 	C 	0.74100 0.58100 0.45000 0.36600
C 	C 	0.73300 0.53600 0.50900 -0.05200
Ce	Ce	0.10710 0.24020 0.25590 2.16600
O 	O 	0.17750 0.17750 0.32250 -0.81900
O 	O 	0.04800 0.22700 0.37200 -0.43400
O 	O 	0.14300 0.24300 0.44700 -0.45000
C 	C 	0.07400 0.23100 0.43600 0.37900
C 	C 	0.03700 0.22600 0.50000 -0.05000
O 	O 	0.03040 0.24300 0.15100 -0.42200
O 	O 	0.11700 0.24800 0.06550 -0.44300
C 	C 	0.05000 0.24100 0.08100 0.37100
C 	C 	0.99100 0.23300 0.03600 -0.05600
Ce	Ce	0.89290 0.75980 0.25590 2.16500
O 	O 	0.82250 0.82250 0.32250 -0.81900
O 	O 	0.95200 0.77300 0.37200 -0.43800
O 	O 	0.85700 0.75700 0.44700 -0.45100
C 	C 	0.92600 0.76900 0.43600 0.38300
C 	C 	0.96300 0.77400 0.50000 -0.06200
O 	O 	0.96960 0.75700 0.15100 -0.42300
O 	O 	0.88300 0.75200 0.06550 -0.44100
C 	C 	0.95000 0.75900 0.08100 0.35900
C 	C 	0.00900 0.76700 0.03600 -0.03600
Ce	Ce	0.89290 0.24020 0.74410 2.16500
O 	O 	0.82250 0.17750 0.67750 -0.81900
O 	O 	0.95200 0.22700 0.62800 -0.43800
O 	O 	0.85700 0.24300 0.55300 -0.45100
C 	C 	0.92600 0.23100 0.56400 0.38300
C 	C 	0.96300 0.22600 0.50000 -0.06200
O 	O 	0.96960 0.24300 0.84900 -0.42400
O 	O 	0.88300 0.24800 0.93450 -0.44300
C 	C 	0.95000 0.24100 0.91900 0.36100
C 	C 	0.00900 0.23300 0.96400 -0.04700
Ce	Ce	0.10710 0.75980 0.74410 2.16600
O 	O 	0.17750 0.82250 0.67750 -0.81900
O 	O 	0.04800 0.77300 0.62800 -0.43500
O 	O 	0.14300 0.75700 0.55300 -0.45000
C 	C 	0.07400 0.76900 0.56400 0.37900
C 	C 	0.03700 0.77400 0.50000 -0.05100
O 	O 	0.03040 0.75700 0.84900 -0.42400
O 	O 	0.11700 0.75200 0.93450 -0.44600
C 	C 	0.05000 0.75900 0.91900 0.37400
C 	C 	0.99100 0.76700 0.96400 -0.06800
Ce	Ce	0.25590 0.10710 0.24020 2.16600
O 	O 	0.32250 0.17750 0.17750 -0.81900
O 	O 	0.37200 0.04800 0.22700 -0.43400
O 	O 	0.44700 0.14300 0.24300 -0.45000
C 	C 	0.43600 0.07400 0.23100 0.37900
C 	C 	0.50000 0.03700 0.22600 -0.05000
O 	O 	0.15100 0.03040 0.24300 -0.42200
O 	O 	0.06550 0.11700 0.24800 -0.44300
C 	C 	0.08100 0.05000 0.24100 0.37100
C 	C 	0.03600 0.99100 0.23300 -0.05600
Ce	Ce	0.25590 0.89290 0.75980 2.16500
O 	O 	0.32250 0.82250 0.82250 -0.81900
O 	O 	0.37200 0.95200 0.77300 -0.43800
O 	O 	0.44700 0.85700 0.75700 -0.45100
C 	C 	0.43600 0.92600 0.76900 0.38300
C 	C 	0.50000 0.96300 0.77400 -0.06200
O 	O 	0.15100 0.96960 0.75700 -0.42300
O 	O 	0.06550 0.88300 0.75200 -0.44100
C 	C 	0.08100 0.95000 0.75900 0.35900
C 	C 	0.03600 0.00900 0.76700 -0.03600
Ce	Ce	0.74410 0.89290 0.24020 2.16500
O 	O 	0.67750 0.82250 0.17750 -0.81900
O 	O 	0.62800 0.95200 0.22700 -0.43800
O 	O 	0.55300 0.85700 0.24300 -0.45100
C 	C 	0.56400 0.92600 0.23100 0.38300
C 	C 	0.50000 0.96300 0.22600 -0.06200
O 	O 	0.84900 0.96960 0.24300 -0.42400
O 	O 	0.93450 0.88300 0.24800 -0.44300
C 	C 	0.91900 0.95000 0.24100 0.36100
C 	C 	0.96400 0.00900 0.23300 -0.04700
Ce	Ce	0.74410 0.10710 0.75980 2.16600
O 	O 	0.67750 0.17750 0.82250 -0.81900
O 	O 	0.62800 0.04800 0.77300 -0.43500
O 	O 	0.55300 0.14300 0.75700 -0.45000
C 	C 	0.56400 0.07400 0.76900 0.37900
C 	C 	0.50000 0.03700 0.77400 -0.05100
O 	O 	0.84900 0.03040 0.75700 -0.42400
O 	O 	0.93450 0.11700 0.75200 -0.44600
C 	C 	0.91900 0.05000 0.75900 0.37400
C 	C 	0.96400 0.99100 0.76700 -0.06800
Ce	Ce	0.24020 0.25590 0.10710 2.16600
O 	O 	0.17750 0.32250 0.17750 -0.81900
O 	O 	0.22700 0.37200 0.04800 -0.43400
O 	O 	0.24300 0.44700 0.14300 -0.45000
C 	C 	0.23100 0.43600 0.07400 0.37900
C 	C 	0.22600 0.50000 0.03700 -0.05000
O 	O 	0.24300 0.15100 0.03040 -0.42200
O 	O 	0.24800 0.06550 0.11700 -0.44300
C 	C 	0.24100 0.08100 0.05000 0.37100
C 	C 	0.23300 0.03600 0.99100 -0.05600
Ce	Ce	0.75980 0.25590 0.89290 2.16500
O 	O 	0.82250 0.32250 0.82250 -0.81900
O 	O 	0.77300 0.37200 0.95200 -0.43800
O 	O 	0.75700 0.44700 0.85700 -0.45100
C 	C 	0.76900 0.43600 0.92600 0.38300
C 	C 	0.77400 0.50000 0.96300 -0.06200
O 	O 	0.75700 0.15100 0.96960 -0.42300
O 	O 	0.75200 0.06550 0.88300 -0.44100
C 	C 	0.75900 0.08100 0.95000 0.35900
C 	C 	0.76700 0.03600 0.00900 -0.03600
Ce	Ce	0.24020 0.74410 0.89290 2.16500
O 	O 	0.17750 0.67750 0.82250 -0.81900
O 	O 	0.22700 0.62800 0.95200 -0.43800
O 	O 	0.24300 0.55300 0.85700 -0.45100
C 	C 	0.23100 0.56400 0.92600 0.38300
C 	C 	0.22600 0.50000 0.96300 -0.06200
O 	O 	0.24300 0.84900 0.96960 -0.42400
O 	O 	0.24800 0.93450 0.88300 -0.44300
C 	C 	0.24100 0.91900 0.95000 0.36100
C 	C 	0.23300 0.96400 0.00900 -0.04700
Ce	Ce	0.75980 0.74410 0.10710 2.16600
O 	O 	0.82250 0.67750 0.17750 -0.81900
O 	O 	0.77300 0.62800 0.04800 -0.43500
O 	O 	0.75700 0.55300 0.14300 -0.45000
C 	C 	0.76900 0.56400 0.07400 0.37900
C 	C 	0.77400 0.50000 0.03700 -0.05100
O 	O 	0.75700 0.84900 0.03040 -0.42400
O 	O 	0.75200 0.93450 0.11700 -0.44600
C 	C 	0.75900 0.91900 0.05000 0.37400
C 	C 	0.76700 0.96400 0.99100 -0.06800
O 	O 	0.33490 0.33490 0.33490 -0.70100
O 	O 	0.66510 0.66510 0.33490 -0.70100
O 	O 	0.66510 0.33490 0.66510 -0.70100
O 	O 	0.33490 0.66510 0.66510 -0.70100
O 	O 	0.16510 0.16510 0.16510 -0.70100
O 	O 	0.83490 0.83490 0.16510 -0.70200
O 	O 	0.83490 0.16510 0.83490 -0.70200
O 	O 	0.16510 0.83490 0.83490 -0.70200
