data_crystal

_cell_length_a 15.76400
_cell_length_b 15.76400
_cell_length_c 16.91800
_cell_angle_alpha 90.00000
_cell_angle_beta  90.00000
_cell_angle_gamma 120.00000

_symmetry_space_group_name_	'P 1'
_symmetry_space_group_name_H-M	'P 1'

loop_
_symmetry_equiv_pos_as_xyz
  x,y,z

loop_
_atom_site_label
_atom_site_type_symbol
_atom_site_fract_x
_atom_site_fract_y
_atom_site_fract_z
_atom_site_charge
Cu	Cu	0.16724 0.80622 0.21613 0.89700
Cu	Cu	0.84722 0.69451 0.55010 0.89800
Cu	Cu	0.52723 0.49964 0.21141 0.90300
O 	O 	0.29380 0.10150 0.99140 -0.35700
O 	O 	0.45780 0.18090 0.98800 -0.26500
O 	O 	0.81490 0.87370 0.98420 -0.26000
O 	O 	0.65330 0.79670 0.99010 -0.36800
O 	O 	0.88210 0.67800 0.44070 -0.38700
O 	O 	0.80070 0.51180 0.44790 -0.28200
O 	O 	0.48630 0.63170 0.31370 -0.28400
O 	O 	0.56520 0.54670 0.31940 -0.39200
O 	O 	0.48380 0.45490 0.10290 -0.41900
O 	O 	0.40280 0.53320 0.10650 -0.30500
O 	O 	0.24070 0.37050 0.43960 -0.37600
O 	O 	0.15800 0.20520 0.44110 -0.28700
N 	N 	0.29100 0.92710 0.17690 -0.21300
N 	N 	0.30970 0.27720 0.91900 -0.23700
N 	N 	0.72860 0.70360 0.51040 -0.21200
N 	N 	0.64990 0.62160 0.17330 -0.21300
N 	N 	0.40830 0.37670 0.24850 -0.21300
N 	N 	0.04390 0.68030 0.25390 -0.21600
C 	C 	0.37750 0.95470 0.21180 0.06800
H 	H 	0.37780 0.91960 0.25740 0.00600
C 	C 	0.46260 0.02770 0.18700 -0.11600
H 	H 	0.52240 0.03950 0.21020 0.08300
C 	C 	0.46200 0.08510 0.12770 0.04000
H 	H 	0.52140 0.14200 0.11310 0.04100
C 	C 	0.37940 0.06330 0.08930 -0.09100
C 	C 	0.29160 0.98100 0.11680 0.05700
H 	H 	0.23150 0.96420 0.09120 0.02500
C 	C 	0.01730 0.59590 0.21440 0.05300
H 	H 	0.05490 0.59620 0.17030 0.01300
C 	C 	0.93540 0.50860 0.23780 -0.10600
H 	H 	0.91520 0.45050 0.20800 0.07900
C 	C 	0.88460 0.50660 0.30280 0.04900
H 	H 	0.83080 0.44640 0.32040 0.04200
C 	C 	0.91050 0.59060 0.34320 -0.11800
C 	C 	0.99090 0.67720 0.31520 0.09000
H 	H 	0.00800 0.73680 0.34170 0.01400
C 	C 	0.85850 0.59140 0.41800 0.32900
C 	C 	0.67480 0.65420 0.44890 0.07900
H 	H 	0.68790 0.60770 0.42450 0.01900
C 	C 	0.60020 0.66660 0.41820 -0.11300
C 	C 	0.58240 0.73460 0.45190 0.04600
H 	H 	0.53170 0.74500 0.43250 0.04200
C 	C 	0.63980 0.78830 0.51530 -0.11000
H 	H 	0.62750 0.83500 0.54030 0.07900
C 	C 	0.71350 0.77510 0.54190 0.06100
H 	H 	0.75500 0.81570 0.58300 0.01200
C 	C 	0.54290 0.60940 0.34540 0.32800
C 	C 	0.65200 0.67580 0.11290 0.07400
H 	H 	0.59260 0.65640 0.08520 0.01700
C 	C 	0.73680 0.76030 0.08750 -0.11000
C 	C 	0.82200 0.78660 0.12770 0.03700
H 	H 	0.88160 0.84190 0.11110 0.04200
C 	C 	0.82120 0.73210 0.19290 -0.10500
H 	H 	0.87940 0.75080 0.22210 0.08000
C 	C 	0.73460 0.65080 0.21420 0.05700
H 	H 	0.73380 0.61380 0.25880 0.01200
C 	C 	0.42120 0.47120 0.07730 0.38000
C 	C 	0.36220 0.41560 0.00470 -0.20700
C 	C 	0.30710 0.44630 0.96160 0.11900
H 	H 	0.30720 0.50470 0.97570 0.02300
C 	C 	0.25170 0.39010 0.89740 -0.16100
H 	H 	0.21370 0.40920 0.86650 0.10000
C 	C 	0.25440 0.30700 0.88090 0.10000
H 	H 	0.21410 0.26690 0.83910 -0.00400
C 	C 	0.36070 0.33000 0.98170 0.16500
H 	H 	0.39720 0.30820 0.01170 -0.02300
C 	C 	0.38420 0.28550 0.21800 0.06800
H 	H 	0.42230 0.28460 0.17480 0.00900
C 	C 	0.31430 0.20080 0.24310 -0.12000
H 	H 	0.30340 0.14180 0.21880 0.08300
C 	C 	0.25540 0.19820 0.30670 0.04800
H 	H 	0.20270 0.13750 0.32460 0.04200
C 	C 	0.27410 0.28090 0.34120 -0.10500
C 	C 	0.35240 0.37330 0.31050 0.05900
H 	H 	0.36460 0.43280 0.33470 0.02800
C 	C 	0.21990 0.28450 0.41310 0.30700
C 	C 	0.73770 0.81610 0.01480 0.29100
C 	C 	0.37830 0.12300 0.01690 0.27000
Cu	Cu	0.19378 0.36102 0.54946 0.89900
Cu	Cu	0.30549 0.15271 0.88343 0.89800
Cu	Cu	0.50036 0.02759 0.54474 0.90400
O 	O 	0.89850 0.19230 0.32473 -0.38500
O 	O 	0.81910 0.27690 0.32133 -0.29600
O 	O 	0.12630 0.94120 0.31753 -0.29600
O 	O 	0.20330 0.85660 0.32343 -0.39900
O 	O 	0.32200 0.20410 0.77403 -0.38700
O 	O 	0.48820 0.28890 0.78123 -0.28100
O 	O 	0.36830 0.85460 0.64703 -0.28400
O 	O 	0.45330 0.01850 0.65273 -0.38800
O 	O 	0.54510 0.02890 0.43623 -0.40400
O 	O 	0.46680 0.86960 0.43983 -0.29400
O 	O 	0.62950 0.87020 0.77293 -0.37600
O 	O 	0.79480 0.95280 0.77443 -0.28700
N 	N 	0.07290 0.36390 0.51023 -0.21500
N 	N 	0.72280 0.03250 0.25233 -0.21800
N 	N 	0.29640 0.02500 0.84373 -0.21000
N 	N 	0.37840 0.02830 0.50663 -0.21300
N 	N 	0.62330 0.03160 0.58183 -0.21200
N 	N 	0.31970 0.36360 0.58723 -0.21300
C 	C 	0.04530 0.42280 0.54513 0.07400
H 	H 	0.08040 0.45820 0.59073 0.00400
C 	C 	0.97230 0.43490 0.52033 -0.12400
H 	H 	0.96050 0.48290 0.54353 0.08700
C 	C 	0.91490 0.37690 0.46103 0.05400
H 	H 	0.85800 0.37940 0.44643 0.04000
C 	C 	0.93670 0.31610 0.42263 -0.10400
C 	C 	0.01900 0.31060 0.45013 0.06700
H 	H 	0.03580 0.26730 0.42453 0.02600
C 	C 	0.40410 0.42140 0.54773 0.06000
H 	H 	0.40380 0.45870 0.50363 0.01300
C 	C 	0.49140 0.42680 0.57113 -0.11200
H 	H 	0.54950 0.46470 0.54133 0.08100
C 	C 	0.49340 0.37800 0.63613 0.05000
H 	H 	0.55360 0.38440 0.65373 0.04200
C 	C 	0.40940 0.31990 0.67653 -0.11500
C 	C 	0.32280 0.31370 0.64853 0.07900
H 	H 	0.26320 0.27120 0.67503 0.02100
C 	C 	0.40860 0.26710 0.75133 0.32700
C 	C 	0.34580 0.02060 0.78223 0.08400
H 	H 	0.39230 0.08020 0.75783 0.01800
C 	C 	0.33340 0.93360 0.75153 -0.11700
C 	C 	0.26540 0.84780 0.78523 0.04600
H 	H 	0.25500 0.78670 0.76583 0.04200
C 	C 	0.21170 0.85150 0.84863 -0.10800
H 	H 	0.16500 0.79250 0.87363 0.08100
C 	C 	0.22490 0.93840 0.87523 0.05800
H 	H 	0.18430 0.93930 0.91633 0.01500
C 	C 	0.39060 0.93350 0.67873 0.32400
C 	C 	0.32420 0.97620 0.44623 0.08200
H 	H 	0.34360 0.93620 0.41853 0.01900
C 	C 	0.23970 0.97650 0.42083 -0.13100
C 	C 	0.21340 0.03540 0.46103 0.05700
H 	H 	0.15810 0.03970 0.44443 0.03900
C 	C 	0.26790 0.08910 0.52623 -0.11400
H 	H 	0.24920 0.12860 0.55543 0.08300
C 	C 	0.34920 0.08380 0.54753 0.06400
H 	H 	0.38620 0.12000 0.59213 0.01000
C 	C 	0.52880 0.95000 0.41063 0.35000
C 	C 	0.58440 0.94660 0.33803 -0.12800
C 	C 	0.55370 0.86080 0.29493 0.05100
H 	H 	0.49530 0.80250 0.30903 0.03900
C 	C 	0.60990 0.86160 0.23073 -0.12000
H 	H 	0.59080 0.80450 0.19983 0.08400
C 	C 	0.69300 0.94740 0.21423 0.06900
H 	H 	0.73310 0.94720 0.17243 0.00400
C 	C 	0.67000 0.03070 0.31503 0.08400
H 	H 	0.69180 0.08900 0.34503 0.01800
C 	C 	0.71450 0.09870 0.55133 0.07200
H 	H 	0.71540 0.13770 0.50813 0.00800
C 	C 	0.79920 0.11350 0.57643 -0.12400
H 	H 	0.85820 0.16160 0.55213 0.08500
C 	C 	0.80180 0.05720 0.64003 0.05600
H 	H 	0.86250 0.06520 0.65793 0.04000
C 	C 	0.71910 0.99320 0.67453 -0.11100
C 	C 	0.62670 0.97910 0.64383 0.05700
H 	H 	0.56720 0.93180 0.66803 0.02900
C 	C 	0.71550 0.93540 0.74643 0.30900
C 	C 	0.18390 0.92160 0.34813 0.34900
C 	C 	0.87700 0.25530 0.35023 0.32200
Cu	Cu	0.63898 0.83276 0.88280 0.89900
Cu	Cu	0.84729 0.15278 0.21677 0.89800
Cu	Cu	0.97241 0.47277 0.87808 0.90400
O 	O 	0.80770 0.70620 0.65807 -0.38700
O 	O 	0.72310 0.54220 0.65467 -0.29700
O 	O 	0.05880 0.18510 0.65087 -0.29500
O 	O 	0.14340 0.34670 0.65677 -0.39900
O 	O 	0.79590 0.11790 0.10737 -0.39500
O 	O 	0.71110 0.19930 0.11457 -0.29400
O 	O 	0.14540 0.51370 0.98037 -0.25400
O 	O 	0.98150 0.43480 0.98607 -0.36000
O 	O 	0.97110 0.51620 0.76957 -0.40400
O 	O 	0.13040 0.59720 0.77317 -0.29300
O 	O 	0.12980 0.75930 0.10627 -0.38600
O 	O 	0.04720 0.84200 0.10777 -0.30100
N 	N 	0.63610 0.70900 0.84357 -0.21800
N 	N 	0.96750 0.69030 0.58567 -0.21800
N 	N 	0.97500 0.27140 0.17707 -0.20900
N 	N 	0.97170 0.35010 0.83997 -0.21300
N 	N 	0.96840 0.59170 0.91517 -0.22800
N 	N 	0.63640 0.95610 0.92057 -0.23500
C 	C 	0.57720 0.62250 0.87847 0.08700
H 	H 	0.54180 0.62220 0.92407 0.00500
C 	C 	0.56510 0.53740 0.85367 -0.13800
H 	H 	0.51710 0.47760 0.87687 0.09300
C 	C 	0.62310 0.53800 0.79437 0.06400
H 	H 	0.62060 0.47860 0.77977 0.03700
C 	C 	0.68390 0.62060 0.75597 -0.11400
C 	C 	0.68940 0.70840 0.78347 0.07500
H 	H 	0.73270 0.76850 0.75787 0.02400
C 	C 	0.57860 0.98270 0.88107 0.08300
H 	H 	0.54130 0.94510 0.83697 0.00500
C 	C 	0.57320 0.06460 0.90447 -0.15500
H 	H 	0.53530 0.08480 0.87467 0.09700
C 	C 	0.62200 0.11540 0.96947 0.13000
H 	H 	0.61560 0.16920 0.98707 0.02200
C 	C 	0.68010 0.08950 0.00987 -0.20600
C 	C 	0.68630 0.00910 0.98187 0.18000
H 	H 	0.72880 0.99200 0.00837 -0.03000
C 	C 	0.73290 0.14150 0.08467 0.35500
C 	C 	0.97940 0.32520 0.11557 0.07500
H 	H 	0.91980 0.31210 0.09117 0.01700
C 	C 	0.06640 0.39980 0.08487 -0.10400
C 	C 	0.15220 0.41760 0.11857 0.03400
H 	H 	0.21330 0.46830 0.09917 0.04200
C 	C 	0.14850 0.36020 0.18197 -0.10400
H 	H 	0.20750 0.37250 0.20697 0.07700
C 	C 	0.06160 0.28650 0.20857 0.05200
H 	H 	0.06070 0.24500 0.24967 0.01400
C 	C 	0.06650 0.45710 0.01207 0.27200
C 	C 	0.02380 0.34800 0.77957 0.08100
H 	H 	0.06380 0.40740 0.75187 0.01900
C 	C 	0.02350 0.26320 0.75417 -0.13000
C 	C 	0.96460 0.17800 0.79437 0.05700
H 	H 	0.96030 0.11840 0.77777 0.04100
C 	C 	0.91090 0.17880 0.85957 -0.11200
H 	H 	0.87140 0.12060 0.88877 0.08600
C 	C 	0.91620 0.26540 0.88087 0.06500
H 	H 	0.88000 0.26620 0.92547 0.01400
C 	C 	0.05000 0.57880 0.74397 0.35000
C 	C 	0.05340 0.63780 0.67137 -0.12800
C 	C 	0.13920 0.69290 0.62827 0.05100
H 	H 	0.19750 0.69280 0.64237 0.04000
C 	C 	0.13840 0.74830 0.56407 -0.12000
H 	H 	0.19550 0.78630 0.53317 0.08500
C 	C 	0.05260 0.74560 0.54757 0.07000
H 	H 	0.05280 0.78590 0.50577 0.00400
C 	C 	0.96930 0.63930 0.64837 0.08400
H 	H 	0.91100 0.60280 0.67837 0.01900
C 	C 	0.90130 0.61580 0.88467 0.10200
H 	H 	0.86230 0.57770 0.84147 -0.00100
C 	C 	0.88650 0.68570 0.90977 -0.17200
H 	H 	0.83840 0.69660 0.88547 0.10200
C 	C 	0.94280 0.74460 0.97337 0.13600
H 	H 	0.93480 0.79730 0.99127 0.02000
C 	C 	0.00680 0.72590 0.00787 -0.19700
C 	C 	0.02090 0.64760 0.97717 0.13700
H 	H 	0.06820 0.63540 0.00137 -0.01200
C 	C 	0.06460 0.78010 0.07977 0.33400
C 	C 	0.07840 0.26230 0.68147 0.34900
C 	C 	0.74470 0.62170 0.68357 0.32500
