data_crystal

_cell_length_a 15.88200
_cell_length_b 8.46200
_cell_length_c 16.09600
_cell_angle_alpha 90.00000
_cell_angle_beta  112.56300
_cell_angle_gamma 90.00000

_symmetry_space_group_name_	'P 1'
_symmetry_space_group_name_H-M	'P 1'

loop_
_symmetry_equiv_pos_as_xyz
  x,y,z

loop_
_atom_site_label
_atom_site_type_symbol
_atom_site_fract_x
_atom_site_fract_y
_atom_site_fract_z
_atom_site_charge
Co	Co	0.36390 0.13654 0.47626 1.17900
P 	P 	0.15253 0.13676 0.36334 0.46200
P 	P 	0.02018 0.62988 0.40078 0.30500
O 	O 	0.11130 0.24880 0.28466 -0.44400
O 	O 	0.24815 0.09650 0.37567 -0.41600
O 	O 	0.13960 0.18990 0.44642 -0.48100
O 	O 	0.10849 0.58070 0.47636 -0.41700
O 	O 	0.97443 0.49190 0.34059 -0.36900
O 	O 	0.95619 0.71510 0.43460 -0.33200
H 	H 	0.11000 0.00600 0.34400 -0.05200
H 	H 	0.04200 0.73700 0.35300 -0.04000
Co	Co	0.86390 0.63654 0.47626 1.18600
P 	P 	0.65253 0.63676 0.36334 0.46600
P 	P 	0.52018 0.12988 0.40078 0.43300
O 	O 	0.61130 0.74880 0.28466 -0.42600
O 	O 	0.74815 0.59650 0.37567 -0.40900
O 	O 	0.63960 0.68990 0.44642 -0.46800
O 	O 	0.60849 0.08070 0.47636 -0.41800
O 	O 	0.47443 0.99190 0.34059 -0.46000
O 	O 	0.45619 0.21510 0.43460 -0.40900
H 	H 	0.61000 0.50600 0.34400 -0.03700
H 	H 	0.54200 0.23700 0.35300 -0.03300
Co	Co	0.63610 0.13654 0.02374 1.18300
P 	P 	0.84747 0.13676 0.13666 0.46700
P 	P 	0.97982 0.62988 0.09922 0.56100
O 	O 	0.88870 0.24880 0.21534 -0.39700
O 	O 	0.75185 0.09650 0.12433 -0.40900
O 	O 	0.86040 0.18990 0.05358 -0.45000
O 	O 	0.89151 0.58070 0.02364 -0.41500
O 	O 	0.02557 0.49190 0.15941 -0.53400
O 	O 	0.04381 0.71510 0.06540 -0.48000
H 	H 	0.89000 0.00600 0.15600 -0.02100
H 	H 	0.95800 0.73700 0.14700 -0.02400
Co	Co	0.13610 0.63654 0.02374 1.17800
P 	P 	0.34747 0.63676 0.13666 0.46600
P 	P 	0.47982 0.12988 0.09922 0.43300
O 	O 	0.38870 0.74880 0.21534 -0.42800
O 	O 	0.25185 0.59650 0.12433 -0.41400
O 	O 	0.36040 0.68990 0.05358 -0.46500
O 	O 	0.39151 0.08070 0.02364 -0.41700
O 	O 	0.52557 0.99190 0.15941 -0.45700
O 	O 	0.54381 0.21510 0.06540 -0.40600
H 	H 	0.39000 0.50600 0.15600 -0.03700
H 	H 	0.45800 0.23700 0.14700 -0.03300
Co	Co	0.63610 0.86346 0.52374 1.18000
P 	P 	0.84747 0.86324 0.63666 0.46700
P 	P 	0.97982 0.37012 0.59922 0.56000
O 	O 	0.88870 0.75120 0.71534 -0.39800
O 	O 	0.75185 0.90350 0.62433 -0.41000
O 	O 	0.86040 0.81010 0.55358 -0.45400
O 	O 	0.89151 0.41930 0.52364 -0.42000
O 	O 	0.02557 0.50810 0.65941 -0.53500
O 	O 	0.04381 0.28490 0.56540 -0.48300
H 	H 	0.89000 0.99400 0.65600 -0.02200
H 	H 	0.95800 0.26300 0.64700 -0.02500
Co	Co	0.13610 0.36346 0.52374 1.17500
P 	P 	0.34747 0.36324 0.63666 0.46600
P 	P 	0.47982 0.87012 0.59922 0.43400
O 	O 	0.38870 0.25120 0.71534 -0.42900
O 	O 	0.25185 0.40350 0.62433 -0.41600
O 	O 	0.36040 0.31010 0.55358 -0.46900
O 	O 	0.39151 0.91930 0.52364 -0.42000
O 	O 	0.52557 0.00810 0.65941 -0.46000
O 	O 	0.54381 0.78490 0.56540 -0.40800
H 	H 	0.39000 0.49400 0.65600 -0.03800
H 	H 	0.45800 0.76300 0.64700 -0.03400
Co	Co	0.36390 0.86346 0.97626 1.17700
P 	P 	0.15253 0.86324 0.86334 0.46400
P 	P 	0.02018 0.37012 0.90078 0.30900
O 	O 	0.11130 0.75120 0.78466 -0.44300
O 	O 	0.24815 0.90350 0.87567 -0.41700
O 	O 	0.13960 0.81010 0.94642 -0.48400
O 	O 	0.10849 0.41930 0.97636 -0.42000
O 	O 	0.97443 0.50810 0.84059 -0.37200
O 	O 	0.95619 0.28490 0.93460 -0.33700
H 	H 	0.11000 0.99400 0.84400 -0.05300
H 	H 	0.04200 0.26300 0.85300 -0.04000
Co	Co	0.86390 0.36346 0.97626 1.18300
P 	P 	0.65253 0.36324 0.86334 0.46600
P 	P 	0.52018 0.87012 0.90078 0.43300
O 	O 	0.61130 0.25120 0.78466 -0.42700
O 	O 	0.74815 0.40350 0.87567 -0.41000
O 	O 	0.63960 0.31010 0.94642 -0.47100
O 	O 	0.60849 0.91930 0.97636 -0.42200
O 	O 	0.47443 0.00810 0.84059 -0.46100
O 	O 	0.45619 0.78490 0.93460 -0.41100
H 	H 	0.61000 0.49400 0.84400 -0.03700
H 	H 	0.54200 0.76300 0.85300 -0.03300
Co	Co	0.00000 0.37328 0.25000 1.13700
Co	Co	0.50000 0.87328 0.25000 1.17500
Co	Co	0.00000 0.62672 0.75000 1.13700
Co	Co	0.50000 0.12672 0.75000 1.17500
