data_crystal

_cell_length_a 11.14400
_cell_length_b 15.23920
_cell_length_c 16.69500
_cell_angle_alpha 114.41900
_cell_angle_beta  90.00000
_cell_angle_gamma 111.44700

_symmetry_space_group_name_	'P 1'
_symmetry_space_group_name_H-M	'P 1'

loop_
_symmetry_equiv_pos_as_xyz
  x,y,z

loop_
_atom_site_label
_atom_site_type_symbol
_atom_site_fract_x
_atom_site_fract_y
_atom_site_fract_z
_atom_site_charge
Co	Co	-0.00000 0.50000 -0.00000 1.08900
Co	Co	0.50000 0.50000 0.50000 1.14800
Co	Co	0.50000 0.50000 -0.00000 1.16700
Co	Co	-0.00000 0.50000 0.50000 1.13500
H 	H 	0.87710 0.66840 0.86900 0.10500
H 	H 	0.47450 0.43100 0.68110 0.06300
H 	H 	0.75840 0.69540 0.60590 -0.00900
H 	H 	0.71250 0.32640 0.88240 0.02200
H 	H 	0.57040 0.15620 0.84170 0.07900
H 	H 	0.80840 0.14800 0.01580 0.01800
H 	H 	0.94330 0.31540 0.04760 0.08900
H 	H 	0.68370 0.86800 0.01950 0.00200
H 	H 	0.66990 0.73340 0.05270 0.06300
H 	H 	0.35310 0.54240 0.87510 0.02600
H 	H 	0.35440 0.67160 0.83860 0.06900
H 	H 	0.36500 0.82420 0.82280 0.17700
H 	H 	0.89120 0.74740 0.74000 0.18300
H 	H 	0.20870 0.33160 0.63100 0.05700
H 	H 	0.04350 0.56900 0.81890 0.04300
H 	H 	0.06300 0.30460 0.89410 -0.02700
H 	H 	0.38610 0.67360 0.61760 0.00200
H 	H 	0.41420 0.84380 0.65830 0.09900
H 	H 	0.66040 0.85200 0.48420 0.10200
H 	H 	0.62790 0.68460 0.45240 0.00400
H 	H 	0.81570 0.13200 0.48050 0.10000
H 	H 	0.93650 0.26660 0.44730 0.03400
H 	H 	0.81070 0.45760 0.62490 0.02200
H 	H 	0.68280 0.32840 0.66140 0.09200
H 	H 	0.54080 0.17580 0.67720 0.17500
H 	H 	0.14380 0.25260 0.76000 0.13800
H 	H 	0.12290 0.33160 0.13100 0.02500
H 	H 	0.52550 0.56900 0.31890 0.06900
H 	H 	0.24160 0.30460 0.39410 -0.02600
H 	H 	0.28750 0.67360 0.11760 -0.01700
H 	H 	0.42960 0.84380 0.15830 0.12100
H 	H 	0.19160 0.85200 0.98420 0.17500
H 	H 	0.05670 0.68460 0.95240 -0.08300
H 	H 	0.31630 0.13200 0.98050 0.16800
H 	H 	0.33010 0.26660 0.94730 -0.04600
H 	H 	0.64690 0.45760 0.12490 -0.00900
H 	H 	0.64560 0.32840 0.16140 0.10900
H 	H 	0.63500 0.17580 0.17720 0.17200
H 	H 	0.10880 0.25260 0.26000 0.11700
H 	H 	0.79130 0.66840 0.36900 0.07200
H 	H 	0.95650 0.43100 0.18110 0.09100
H 	H 	0.93700 0.69540 0.10590 -0.00500
H 	H 	0.61390 0.32640 0.38240 0.00100
H 	H 	0.58580 0.15620 0.34170 0.10100
H 	H 	0.33960 0.14800 0.51580 0.08600
H 	H 	0.37210 0.31540 0.54760 0.00100
H 	H 	0.18430 0.86800 0.51950 0.07300
H 	H 	0.06350 0.73340 0.55270 -0.01600
H 	H 	0.18930 0.54240 0.37510 -0.00500
H 	H 	0.31720 0.67160 0.33860 0.08600
H 	H 	0.45920 0.82420 0.32280 0.17300
H 	H 	0.85620 0.74740 0.24000 0.16200
C 	C 	0.76418 0.52996 0.92850 0.34500
C 	C 	0.71452 0.54044 0.84950 -0.03900
C 	C 	0.59235 0.46870 0.79280 -0.06300
C 	C 	0.49933 0.37506 0.80380 0.31700
C 	C 	0.79665 0.62090 0.83180 -0.08600
C 	C 	0.75713 0.62966 0.75750 0.10600
C 	C 	0.63807 0.55774 0.69960 0.04300
C 	C 	0.55489 0.47798 0.71820 -0.06200
C 	C 	0.73784 0.66348 0.64380 0.14800
C 	C 	0.73256 0.28952 0.90930 0.06500
C 	C 	0.64562 0.18684 0.88440 -0.06800
C 	C 	0.67219 0.13038 0.92400 -0.01000
C 	C 	0.78652 0.18204 0.98680 0.07200
C 	C 	0.86672 0.28324 0.00590 -0.07900
C 	C 	0.58874 0.02088 0.90300 0.14100
C 	C 	0.52772 0.87304 0.90490 0.15900
C 	C 	0.52039 0.78538 0.92430 -0.03200
C 	C 	0.61500 0.80220 0.98930 0.07900
C 	C 	0.60630 0.72100 0.00860 -0.08400
C 	C 	0.42013 0.60906 0.90470 0.04500
C 	C 	0.42054 0.68608 0.88190 -0.05900
C 	C 	0.23422 0.47004 0.57150 0.36000
C 	C 	0.17408 0.45956 0.65050 -0.07600
C 	C 	0.12365 0.53130 0.70720 -0.07300
C 	C 	0.12427 0.62494 0.69620 0.31700
C 	C 	0.17575 0.37910 0.66820 -0.07800
C 	C 	0.12747 0.37034 0.74250 0.06800
C 	C 	0.08033 0.44226 0.80040 0.03300
C 	C 	0.07691 0.52202 0.78180 -0.07400
C 	C 	0.07436 0.33652 0.85620 0.12300
C 	C 	0.44304 0.71048 0.59070 0.09700
C 	C 	0.45878 0.81316 0.61560 -0.14200
C 	C 	0.54181 0.86962 0.57600 0.08000
C 	C 	0.60448 0.81796 0.51320 -0.13900
C 	C 	0.58348 0.71676 0.49410 0.08500
C 	C 	0.56786 0.97912 0.59700 0.07800
C 	C 	0.65468 0.12696 0.59510 0.13100
C 	C 	0.73501 0.21462 0.57570 0.05700
C 	C 	0.81280 0.19780 0.51070 -0.11400
C 	C 	0.88530 0.27900 0.49140 0.09200
C 	C 	0.81107 0.39094 0.59530 0.09300
C 	C 	0.73446 0.31392 0.61810 -0.11900
C 	C 	0.23582 0.47004 0.07150 0.37400
C 	C 	0.28548 0.45956 0.15050 -0.09300
C 	C 	0.40765 0.53130 0.20720 -0.04600
C 	C 	0.50067 0.62494 0.19620 0.31200
C 	C 	0.20335 0.37910 0.16820 -0.05500
C 	C 	0.24287 0.37034 0.24250 0.05100
C 	C 	0.36193 0.44226 0.30040 0.06000
C 	C 	0.44511 0.52202 0.28180 -0.08400
C 	C 	0.26216 0.33652 0.35620 0.12200
C 	C 	0.26744 0.71048 0.09070 0.12400
C 	C 	0.35438 0.81316 0.11560 -0.21500
C 	C 	0.32781 0.86962 0.07600 0.15900
C 	C 	0.21348 0.81796 0.01320 -0.35600
C 	C 	0.13328 0.71676 0.99410 0.24700
C 	C 	0.41126 0.97912 0.09700 0.03400
C 	C 	0.47228 0.12696 0.09510 0.08700
C 	C 	0.47961 0.21462 0.07570 0.12900
C 	C 	0.38500 0.19780 0.01070 -0.32100
C 	C 	0.39370 0.27900 0.99140 0.24300
C 	C 	0.57987 0.39094 0.09530 0.11700
C 	C 	0.57946 0.31392 0.11810 -0.19200
C 	C 	0.76578 0.52996 0.42850 0.36200
C 	C 	0.82592 0.54044 0.34950 -0.05700
C 	C 	0.87635 0.46870 0.29280 -0.03300
C 	C 	0.87573 0.37506 0.30380 0.31000
C 	C 	0.82425 0.62090 0.33180 -0.06200
C 	C 	0.87253 0.62966 0.25750 0.08900
C 	C 	0.91967 0.55774 0.19960 0.07000
C 	C 	0.92309 0.47798 0.21820 -0.07200
C 	C 	0.92564 0.66348 0.14380 0.14700
C 	C 	0.55696 0.28952 0.40930 0.09100
C 	C 	0.54122 0.18684 0.38440 -0.13800
C 	C 	0.45819 0.13038 0.42400 0.06400
C 	C 	0.39552 0.18204 0.48680 -0.13500
C 	C 	0.41652 0.28324 0.50590 0.07400
C 	C 	0.43214 0.02088 0.40300 0.10100
C 	C 	0.34532 0.87304 0.40490 0.11400
C 	C 	0.26499 0.78538 0.42430 0.04100
C 	C 	0.18720 0.80220 0.48930 -0.13300
C 	C 	0.11470 0.72100 0.50860 0.07000
C 	C 	0.18893 0.60906 0.40470 0.06900
C 	C 	0.26554 0.68608 0.38190 -0.13300
N 	N 	0.84277 0.33934 0.96860 -0.14600
N 	N 	0.62683 0.96686 0.93860 -0.13300
N 	N 	0.47114 0.96548 0.85080 -0.09100
N 	N 	0.43497 0.87114 0.85270 -0.20600
N 	N 	0.51098 0.62516 0.96730 -0.16500
N 	N 	0.81722 0.69724 0.72040 -0.23300
N 	N 	0.62858 0.58116 0.62730 -0.23200
N 	N 	0.50343 0.66066 0.53140 -0.22200
N 	N 	0.65997 0.03314 0.56140 -0.11800
N 	N 	0.50566 0.03452 0.64920 -0.07100
N 	N 	0.56383 0.12886 0.64730 -0.19800
N 	N 	0.88582 0.37484 0.53270 -0.19600
N 	N 	0.11998 0.30276 0.77960 -0.22800
N 	N 	0.04742 0.41884 0.87270 -0.24000
N 	N 	0.15723 0.66066 0.03140 -0.28700
N 	N 	0.37317 0.03314 0.06140 -0.12700
N 	N 	0.52886 0.03452 0.14920 -0.06500
N 	N 	0.56503 0.12886 0.14730 -0.19100
N 	N 	0.48902 0.37484 0.03270 -0.27200
N 	N 	0.18278 0.30276 0.27960 -0.22100
N 	N 	0.37142 0.41884 0.37270 -0.23300
N 	N 	0.49657 0.33934 0.46860 -0.22000
N 	N 	0.34003 0.96686 0.43860 -0.14400
N 	N 	0.49434 0.96548 0.35080 -0.08600
N 	N 	0.43617 0.87114 0.35270 -0.19900
N 	N 	0.11418 0.62516 0.46730 -0.23500
N 	N 	0.88002 0.69724 0.22040 -0.22600
N 	N 	0.95258 0.58116 0.12730 -0.21000
O 	O 	0.87878 0.53456 0.93270 -0.35600
O 	O 	0.69146 0.51812 0.98410 -0.39400
O 	O 	0.43751 0.38762 0.86750 -0.38200
O 	O 	0.48067 0.28594 0.74310 -0.26600
O 	O 	0.34422 0.46544 0.56730 -0.42500
O 	O 	0.17334 0.48188 0.51590 -0.44100
O 	O 	0.04989 0.61238 0.63250 -0.42900
O 	O 	0.19473 0.71406 0.75690 -0.27600
O 	O 	0.12122 0.46544 0.06730 -0.47300
O 	O 	0.30854 0.48188 0.01590 -0.44200
O 	O 	0.56249 0.61238 0.13250 -0.39300
O 	O 	0.51933 0.71406 0.25690 -0.26300
O 	O 	0.65578 0.53456 0.43270 -0.42300
O 	O 	0.82666 0.51812 0.48410 -0.38900
O 	O 	0.95011 0.38762 0.36750 -0.33600
O 	O 	0.80527 0.28594 0.24310 -0.25200
