data_crystal

_cell_length_a 25.45000
_cell_length_b 11.92800
_cell_length_c 25.83500
_cell_angle_alpha 90.00000
_cell_angle_beta  116.77700
_cell_angle_gamma 90.00000

_symmetry_space_group_name_	'P 1'
_symmetry_space_group_name_H-M	'P 1'

loop_
_symmetry_equiv_pos_as_xyz
  x,y,z

loop_
_atom_site_label
_atom_site_type_symbol
_atom_site_fract_x
_atom_site_fract_y
_atom_site_fract_z
_atom_site_charge
Cd	Cd	0.47750 0.17535 0.09091 1.21100
Cd	Cd	0.07013 0.74728 0.51095 1.21200
Na	Na	0.97939 0.51250 0.92696 0.58000
C 	C 	0.39810 0.01740 0.02850 0.31700
C 	C 	0.35180 0.93540 0.98820 -0.13200
C 	C 	0.35350 0.90110 0.93680 0.08000
H 	H 	0.38270 0.92770 0.92760 0.01500
C 	C 	0.31100 0.82710 0.90030 -0.20800
H 	H 	0.31300 0.79990 0.86750 0.10200
C 	C 	0.26650 0.79390 0.91220 0.18100
C 	C 	0.26640 0.82490 0.96290 -0.20900
H 	H 	0.23770 0.79630 0.97230 0.10600
C 	C 	0.30740 0.89680 -0.00000 0.09000
H 	H 	0.30550 0.92010 0.03350 0.00900
C 	C 	0.19990 0.72550 0.81190 0.22200
C 	C 	0.17810 0.63070 0.77890 -0.28100
H 	H 	0.18180 0.56240 0.79760 0.12600
C 	C 	0.15170 0.63310 0.72130 0.17900
H 	H 	0.13560 0.56770 0.70050 -0.04200
C 	C 	0.14790 0.73300 0.69150 -0.22800
C 	C 	0.17000 0.82710 0.72540 0.17200
H 	H 	0.16780 0.89560 0.70730 -0.02000
C 	C 	0.19500 0.82380 0.78420 -0.27800
H 	H 	0.20870 0.88950 0.80540 0.12700
C 	C 	0.11950 0.73710 0.62750 0.38100
C 	C 	0.12000 0.40180 0.96740 0.37300
C 	C 	0.14740 0.48430 0.94190 -0.18700
C 	C 	0.11060 0.55400 0.89740 0.13500
H 	H 	0.07000 0.54600 0.88140 -0.03200
C 	C 	0.13460 0.63370 0.87750 -0.23300
H 	H 	0.11020 0.68580 0.85060 0.10800
C 	C 	0.19560 0.63940 0.89670 0.18400
C 	C 	0.23150 0.56510 0.93920 -0.22400
H 	H 	0.27200 0.56650 0.95200 0.10800
C 	C 	0.20720 0.48890 0.96270 0.12300
H 	H 	0.23130 0.44120 0.99240 0.00200
C 	C 	0.44510 0.38110 0.13460 0.38200
C 	C 	0.40860 0.47520 0.13910 -0.22400
C 	C 	0.41820 0.52360 0.18990 0.16400
H 	H 	0.44840 0.49640 0.22410 -0.03300
C 	C 	0.38500 0.61090 0.19250 -0.26200
H 	H 	0.39400 0.64430 0.22800 0.12500
C 	C 	0.33770 0.65080 0.14260 0.22200
C 	C 	0.32810 0.60440 0.09160 -0.26100
H 	H 	0.29840 0.63350 0.05760 0.12400
C 	C 	0.36090 0.51480 0.08800 0.15000
H 	H 	0.35160 0.48120 0.05240 -0.01600
C 	C 	0.33360 0.83130 0.18600 0.22300
C 	C 	0.38220 0.87530 0.18460 -0.25900
H 	H 	0.39280 0.84920 0.15670 0.13000
C 	C 	0.41610 0.95610 0.22240 0.15500
H 	H 	0.44790 0.98710 0.21880 -0.02800
C 	C 	0.40240 0.99120 0.26600 -0.22900
C 	C 	0.35200 0.94940 0.26560 0.16700
H 	H 	0.34010 0.97630 0.29240 -0.01800
C 	C 	0.31840 0.86840 0.22640 -0.27200
H 	H 	0.28530 0.83960 0.22810 0.12500
C 	C 	0.24040 0.73500 0.11850 0.18500
C 	C 	0.20790 0.83620 0.10080 -0.23500
H 	H 	0.22640 0.90570 0.10930 0.11500
C 	C 	0.14870 0.82700 0.07110 0.14000
H 	H 	0.12660 0.89250 0.05890 -0.01400
C 	C 	0.11960 0.72760 0.05810 -0.19500
C 	C 	0.15200 0.63130 0.07300 0.12500
H 	H 	0.13280 0.56270 0.06200 -0.01900
C 	C 	0.21330 0.63300 0.10410 -0.23100
H 	H 	0.23490 0.56690 0.11470 0.11600
C 	C 	0.05260 0.71760 0.02710 0.34200
C 	C 	0.44370 0.06550 0.31160 0.36200
N 	N 	0.22180 0.71900 0.87490 -0.20200
N 	N 	0.30440 0.74060 0.14610 -0.20900
O 	O 	0.48950 0.10440 0.31030 -0.52700
O 	O 	0.43260 0.09020 0.35390 -0.41400
O 	O 	0.43810 0.04920 0.01560 -0.40000
O 	O 	0.39450 0.05630 0.07180 -0.37500
O 	O 	0.42740 0.32780 0.08860 -0.46500
O 	O 	0.49260 0.35810 0.18030 -0.48200
O 	O 	0.02310 0.80970 0.02160 -0.42700
O 	O 	0.02860 0.62500 0.00950 -0.46300
O 	O 	0.15250 0.33570 0.00510 -0.40900
O 	O 	0.06530 0.39960 0.94770 -0.47300
O 	O 	0.12050 0.82630 0.60200 -0.41500
O 	O 	0.09400 0.65110 0.59940 -0.46400
Cd	Cd	0.52250 0.17535 0.40909 1.21000
Cd	Cd	0.92987 0.74728 0.98905 1.21200
Na	Na	0.02061 0.51250 0.57304 0.57900
C 	C 	0.60190 0.01740 0.47150 0.32400
C 	C 	0.64820 0.93540 0.51180 -0.14900
C 	C 	0.64650 0.90110 0.56320 0.09100
H 	H 	0.61730 0.92770 0.57240 0.01100
C 	C 	0.68900 0.82710 0.59970 -0.21800
H 	H 	0.68700 0.79990 0.63250 0.10500
C 	C 	0.73350 0.79390 0.58780 0.19000
C 	C 	0.73360 0.82490 0.53710 -0.22600
H 	H 	0.76230 0.79630 0.52770 0.11100
C 	C 	0.69260 0.89680 0.50000 0.11000
H 	H 	0.69450 0.92010 0.46650 0.00200
C 	C 	0.80010 0.72550 0.68810 0.22200
C 	C 	0.82190 0.63070 0.72110 -0.28100
H 	H 	0.81820 0.56240 0.70240 0.12600
C 	C 	0.84830 0.63310 0.77870 0.17900
H 	H 	0.86440 0.56770 0.79950 -0.04200
C 	C 	0.85210 0.73300 0.80850 -0.22800
C 	C 	0.83000 0.82710 0.77460 0.17300
H 	H 	0.83220 0.89560 0.79270 -0.02000
C 	C 	0.80500 0.82380 0.71580 -0.27900
H 	H 	0.79130 0.88950 0.69460 0.12700
C 	C 	0.88050 0.73710 0.87250 0.38100
C 	C 	0.88000 0.40180 0.53260 0.36800
C 	C 	0.85260 0.48430 0.55810 -0.18600
C 	C 	0.88940 0.55400 0.60260 0.13400
H 	H 	0.93000 0.54600 0.61860 -0.03200
C 	C 	0.86540 0.63370 0.62250 -0.23200
H 	H 	0.88980 0.68580 0.64940 0.10700
C 	C 	0.80440 0.63940 0.60330 0.18400
C 	C 	0.76850 0.56510 0.56080 -0.22400
H 	H 	0.72800 0.56650 0.54800 0.10700
C 	C 	0.79280 0.48890 0.53730 0.12100
H 	H 	0.76870 0.44120 0.50760 0.00100
C 	C 	0.55490 0.38110 0.36540 0.38200
C 	C 	0.59140 0.47520 0.36090 -0.22400
C 	C 	0.58180 0.52360 0.31010 0.16300
H 	H 	0.55160 0.49640 0.27590 -0.03300
C 	C 	0.61500 0.61090 0.30750 -0.26200
H 	H 	0.60600 0.64430 0.27200 0.12500
C 	C 	0.66230 0.65080 0.35740 0.22200
C 	C 	0.67190 0.60440 0.40840 -0.26100
H 	H 	0.70160 0.63350 0.44240 0.12400
C 	C 	0.63910 0.51480 0.41200 0.15000
H 	H 	0.64840 0.48120 0.44760 -0.01500
C 	C 	0.66640 0.83130 0.31400 0.22300
C 	C 	0.61780 0.87530 0.31540 -0.25900
H 	H 	0.60720 0.84920 0.34330 0.13000
C 	C 	0.58390 0.95610 0.27760 0.15500
H 	H 	0.55210 0.98710 0.28120 -0.02800
C 	C 	0.59760 0.99120 0.23400 -0.22900
C 	C 	0.64800 0.94940 0.23440 0.16700
H 	H 	0.65990 0.97630 0.20760 -0.01800
C 	C 	0.68160 0.86840 0.27360 -0.27200
H 	H 	0.71470 0.83960 0.27190 0.12500
C 	C 	0.75960 0.73500 0.38150 0.18500
C 	C 	0.79210 0.83620 0.39920 -0.23500
H 	H 	0.77360 0.90570 0.39070 0.11500
C 	C 	0.85130 0.82700 0.42890 0.14000
H 	H 	0.87340 0.89250 0.44110 -0.01300
C 	C 	0.88040 0.72760 0.44190 -0.19500
C 	C 	0.84800 0.63130 0.42700 0.12500
H 	H 	0.86720 0.56270 0.43800 -0.01800
C 	C 	0.78670 0.63300 0.39590 -0.23000
H 	H 	0.76510 0.56690 0.38530 0.11600
C 	C 	0.94740 0.71760 0.47290 0.34200
C 	C 	0.55630 0.06550 0.18840 0.36200
N 	N 	0.77820 0.71900 0.62510 -0.20400
N 	N 	0.69560 0.74060 0.35390 -0.20800
O 	O 	0.51050 0.10440 0.18970 -0.52700
O 	O 	0.56740 0.09020 0.14610 -0.41400
O 	O 	0.56190 0.04920 0.48440 -0.40000
O 	O 	0.60550 0.05630 0.42820 -0.37600
O 	O 	0.57260 0.32780 0.41140 -0.46400
O 	O 	0.50740 0.35810 0.31970 -0.48200
O 	O 	0.97690 0.80970 0.47840 -0.42600
O 	O 	0.97140 0.62500 0.49050 -0.46100
O 	O 	0.84750 0.33570 0.49490 -0.40400
O 	O 	0.93470 0.39960 0.55230 -0.47300
O 	O 	0.87950 0.82630 0.89800 -0.41500
O 	O 	0.90600 0.65110 0.90060 -0.46300
Cd	Cd	0.52250 0.82465 0.90909 1.21100
Cd	Cd	0.92987 0.25272 0.48905 1.21100
Na	Na	0.02061 0.48750 0.07304 0.57900
C 	C 	0.60190 0.98260 0.97150 0.32400
C 	C 	0.64820 0.06460 0.01180 -0.14700
C 	C 	0.64650 0.09890 0.06320 0.08800
H 	H 	0.61730 0.07230 0.07240 0.01100
C 	C 	0.68900 0.17290 0.09970 -0.21500
H 	H 	0.68700 0.20010 0.13250 0.10400
C 	C 	0.73350 0.20610 0.08780 0.18600
C 	C 	0.73360 0.17510 0.03710 -0.22000
H 	H 	0.76230 0.20370 0.02770 0.10800
C 	C 	0.69260 0.10320 -0.00000 0.10000
H 	H 	0.69450 0.07990 0.96650 0.00800
C 	C 	0.80010 0.27450 0.18810 0.22200
C 	C 	0.82190 0.36930 0.22110 -0.28100
H 	H 	0.81820 0.43760 0.20240 0.12600
C 	C 	0.84830 0.36690 0.27870 0.17900
H 	H 	0.86440 0.43230 0.29950 -0.04200
C 	C 	0.85210 0.26700 0.30850 -0.22800
C 	C 	0.83000 0.17290 0.27460 0.17200
H 	H 	0.83220 0.10440 0.29270 -0.02000
C 	C 	0.80500 0.17620 0.21580 -0.27800
H 	H 	0.79130 0.11050 0.19460 0.12700
C 	C 	0.88050 0.26290 0.37250 0.38100
C 	C 	0.88000 0.59820 0.03260 0.36400
C 	C 	0.85260 0.51570 0.05810 -0.18500
C 	C 	0.88940 0.44600 0.10260 0.13300
H 	H 	0.93000 0.45400 0.11860 -0.03200
C 	C 	0.86540 0.36630 0.12250 -0.23200
H 	H 	0.88980 0.31420 0.14940 0.10700
C 	C 	0.80440 0.36060 0.10330 0.18300
C 	C 	0.76850 0.43490 0.06080 -0.22300
H 	H 	0.72800 0.43350 0.04800 0.10600
C 	C 	0.79280 0.51110 0.03730 0.12000
H 	H 	0.76870 0.55880 0.00760 -0.00000
C 	C 	0.55490 0.61890 0.86540 0.38200
C 	C 	0.59140 0.52480 0.86090 -0.22400
C 	C 	0.58180 0.47640 0.81010 0.16400
H 	H 	0.55160 0.50360 0.77590 -0.03300
C 	C 	0.61500 0.38910 0.80750 -0.26200
H 	H 	0.60600 0.35570 0.77200 0.12500
C 	C 	0.66230 0.34920 0.85740 0.22200
C 	C 	0.67190 0.39560 0.90840 -0.26100
H 	H 	0.70160 0.36650 0.94240 0.12500
C 	C 	0.63910 0.48520 0.91200 0.15100
H 	H 	0.64840 0.51880 0.94760 -0.01400
C 	C 	0.66640 0.16870 0.81400 0.22300
C 	C 	0.61780 0.12470 0.81540 -0.25800
H 	H 	0.60720 0.15080 0.84330 0.13000
C 	C 	0.58390 0.04390 0.77760 0.15500
H 	H 	0.55210 0.01290 0.78120 -0.02700
C 	C 	0.59760 0.00880 0.73400 -0.22800
C 	C 	0.64800 0.05060 0.73440 0.16700
H 	H 	0.65990 0.02370 0.70760 -0.01700
C 	C 	0.68160 0.13160 0.77360 -0.27200
H 	H 	0.71470 0.16040 0.77190 0.12500
C 	C 	0.75960 0.26500 0.88150 0.18500
C 	C 	0.79210 0.16380 0.89920 -0.23400
H 	H 	0.77360 0.09430 0.89070 0.11500
C 	C 	0.85130 0.17300 0.92890 0.14000
H 	H 	0.87340 0.10750 0.94110 -0.01300
C 	C 	0.88040 0.27240 0.94190 -0.19400
C 	C 	0.84800 0.36870 0.92700 0.12500
H 	H 	0.86720 0.43730 0.93800 -0.01800
C 	C 	0.78670 0.36700 0.89590 -0.23000
H 	H 	0.76510 0.43310 0.88530 0.11600
C 	C 	0.94740 0.28240 0.97290 0.34100
C 	C 	0.55630 0.93450 0.68840 0.36100
N 	N 	0.77820 0.28100 0.12510 -0.20300
N 	N 	0.69560 0.25940 0.85390 -0.20800
O 	O 	0.51050 0.89560 0.68970 -0.52700
O 	O 	0.56740 0.90980 0.64610 -0.41400
O 	O 	0.56190 0.95080 0.98440 -0.39900
O 	O 	0.60550 0.94370 0.92820 -0.37600
O 	O 	0.57260 0.67220 0.91140 -0.46400
O 	O 	0.50740 0.64190 0.81970 -0.48200
O 	O 	0.97690 0.19030 0.97840 -0.42400
O 	O 	0.97140 0.37500 0.99050 -0.46000
O 	O 	0.84750 0.66430 0.99490 -0.40200
O 	O 	0.93470 0.60040 0.05230 -0.47300
O 	O 	0.87950 0.17370 0.39800 -0.41500
O 	O 	0.90600 0.34890 0.40060 -0.46400
Cd	Cd	0.47750 0.82465 0.59091 1.21000
Cd	Cd	0.07013 0.25272 0.01095 1.21000
Na	Na	0.97939 0.48750 0.42696 0.57900
C 	C 	0.39810 0.98260 0.52850 0.32300
C 	C 	0.35180 0.06460 0.48820 -0.14800
C 	C 	0.35350 0.09890 0.43680 0.09000
H 	H 	0.38270 0.07230 0.42760 0.01100
C 	C 	0.31100 0.17290 0.40030 -0.21700
H 	H 	0.31300 0.20010 0.36750 0.10500
C 	C 	0.26650 0.20610 0.41220 0.18900
C 	C 	0.26640 0.17510 0.46290 -0.22500
H 	H 	0.23770 0.20370 0.47230 0.11000
C 	C 	0.30740 0.10320 0.50000 0.11000
H 	H 	0.30550 0.07990 0.53350 0.00300
C 	C 	0.19990 0.27450 0.31190 0.22200
C 	C 	0.17810 0.36930 0.27890 -0.28100
H 	H 	0.18180 0.43760 0.29760 0.12600
C 	C 	0.15170 0.36690 0.22130 0.17900
H 	H 	0.13560 0.43230 0.20050 -0.04200
C 	C 	0.14790 0.26700 0.19150 -0.22800
C 	C 	0.17000 0.17290 0.22540 0.17300
H 	H 	0.16780 0.10440 0.20730 -0.02000
C 	C 	0.19500 0.17620 0.28420 -0.27900
H 	H 	0.20870 0.11050 0.30540 0.12700
C 	C 	0.11950 0.26290 0.12750 0.38100
C 	C 	0.12000 0.59820 0.46740 0.36700
C 	C 	0.14740 0.51570 0.44190 -0.18600
C 	C 	0.11060 0.44600 0.39740 0.13400
H 	H 	0.07000 0.45400 0.38140 -0.03200
C 	C 	0.13460 0.36630 0.37750 -0.23200
H 	H 	0.11020 0.31420 0.35060 0.10700
C 	C 	0.19560 0.36060 0.39670 0.18400
C 	C 	0.23150 0.43490 0.43920 -0.22400
H 	H 	0.27200 0.43350 0.45200 0.10700
C 	C 	0.20720 0.51110 0.46270 0.12100
H 	H 	0.23130 0.55880 0.49240 0.00100
C 	C 	0.44510 0.61890 0.63460 0.38200
C 	C 	0.40860 0.52480 0.63910 -0.22400
C 	C 	0.41820 0.47640 0.68990 0.16400
H 	H 	0.44840 0.50360 0.72410 -0.03300
C 	C 	0.38500 0.38910 0.69250 -0.26200
H 	H 	0.39400 0.35570 0.72800 0.12500
C 	C 	0.33770 0.34920 0.64260 0.22200
C 	C 	0.32810 0.39560 0.59160 -0.26100
H 	H 	0.29840 0.36650 0.55760 0.12400
C 	C 	0.36090 0.48520 0.58800 0.15100
H 	H 	0.35160 0.51880 0.55240 -0.01500
C 	C 	0.33360 0.16870 0.68600 0.22300
C 	C 	0.38220 0.12470 0.68460 -0.25800
H 	H 	0.39280 0.15080 0.65670 0.13000
C 	C 	0.41610 0.04390 0.72240 0.15400
H 	H 	0.44790 0.01290 0.71880 -0.02700
C 	C 	0.40240 0.00880 0.76600 -0.22700
C 	C 	0.35200 0.05060 0.76560 0.16600
H 	H 	0.34010 0.02370 0.79240 -0.01700
C 	C 	0.31840 0.13160 0.72640 -0.27100
H 	H 	0.28530 0.16040 0.72810 0.12500
C 	C 	0.24040 0.26500 0.61850 0.18500
C 	C 	0.20790 0.16380 0.60080 -0.23500
H 	H 	0.22640 0.09430 0.60930 0.11500
C 	C 	0.14870 0.17300 0.57110 0.14000
H 	H 	0.12660 0.10750 0.55890 -0.01300
C 	C 	0.11960 0.27240 0.55810 -0.19400
C 	C 	0.15200 0.36870 0.57300 0.12500
H 	H 	0.13280 0.43730 0.56200 -0.01800
C 	C 	0.21330 0.36700 0.60410 -0.23000
H 	H 	0.23490 0.43310 0.61470 0.11600
C 	C 	0.05260 0.28240 0.52710 0.34100
C 	C 	0.44370 0.93450 0.81160 0.36100
N 	N 	0.22180 0.28100 0.37490 -0.20400
N 	N 	0.30440 0.25940 0.64610 -0.20800
O 	O 	0.48950 0.89560 0.81030 -0.52700
O 	O 	0.43260 0.90980 0.85390 -0.41400
O 	O 	0.43810 0.95080 0.51560 -0.40000
O 	O 	0.39450 0.94370 0.57180 -0.37600
O 	O 	0.42740 0.67220 0.58860 -0.46400
O 	O 	0.49260 0.64190 0.68030 -0.48200
O 	O 	0.02310 0.19030 0.52160 -0.42500
O 	O 	0.02860 0.37500 0.50950 -0.46100
O 	O 	0.15250 0.66430 0.50510 -0.40400
O 	O 	0.06530 0.60040 0.44770 -0.47300
O 	O 	0.12050 0.17370 0.10200 -0.41600
O 	O 	0.09400 0.34890 0.09940 -0.46400
Cd	Cd	0.50000 0.23410 0.25000 1.19800
Cd	Cd	0.50000 0.76590 0.75000 1.19800
