data_crystal

_cell_length_a 9.17500
_cell_length_b 9.49300
_cell_length_c 21.51000
_cell_angle_alpha 90.00000
_cell_angle_beta  90.00000
_cell_angle_gamma 116.48300

_symmetry_space_group_name_	'P 1'
_symmetry_space_group_name_H-M	'P 1'

loop_
_symmetry_equiv_pos_as_xyz
  x,y,z

loop_
_atom_site_label
_atom_site_type_symbol
_atom_site_fract_x
_atom_site_fract_y
_atom_site_fract_z
_atom_site_charge
Dy	Dy	0.12484 0.35745 0.99173 2.01100
Dy	Dy	0.37516 0.64255 0.49173 2.01200
Dy	Dy	0.87516 0.64255 0.00827 2.01100
Dy	Dy	0.62484 0.35745 0.50827 2.01200
Cu	Cu	0.46158 0.30823 0.85361 0.85400
Cu	Cu	0.03842 0.69177 0.35361 0.85400
Cu	Cu	0.53842 0.69177 0.14639 0.85400
Cu	Cu	0.96158 0.30823 0.64639 0.85400
H 	H 	0.70710 0.97320 0.06920 -0.02500
H 	H 	0.44520 0.20900 0.07040 -0.01600
H 	H 	0.00440 0.34500 0.77750 -0.03100
H 	H 	0.85420 0.73170 0.73030 0.09300
H 	H 	0.89240 0.68680 0.83360 -0.00700
H 	H 	0.24470 0.00490 0.12400 0.12300
H 	H 	0.29460 0.80240 0.15860 -0.04400
H 	H 	0.87530 0.57170 0.65490 -0.01100
H 	H 	0.79290 0.02680 0.56920 -0.02600
H 	H 	0.05480 0.79100 0.57040 -0.01800
H 	H 	0.49560 0.65500 0.27750 -0.03200
H 	H 	0.64580 0.26830 0.23030 0.09400
H 	H 	0.60760 0.31320 0.33360 -0.00700
H 	H 	0.25530 0.99510 0.62400 0.12400
H 	H 	0.20540 0.19760 0.65860 -0.04600
H 	H 	0.62470 0.42830 0.15490 -0.01100
H 	H 	0.29290 0.02680 0.93080 -0.02500
H 	H 	0.55480 0.79100 0.92960 -0.01600
H 	H 	0.99560 0.65500 0.22250 -0.03100
H 	H 	0.14580 0.26830 0.26970 0.09300
H 	H 	0.10760 0.31320 0.16640 -0.00700
H 	H 	0.75530 0.99510 0.87600 0.12300
H 	H 	0.70540 0.19760 0.84140 -0.04400
H 	H 	0.12470 0.42830 0.34510 -0.01100
H 	H 	0.20710 0.97320 0.43080 -0.02600
H 	H 	0.94520 0.20900 0.42960 -0.01800
H 	H 	0.50440 0.34500 0.72250 -0.03200
H 	H 	0.35420 0.73170 0.76970 0.09400
H 	H 	0.39240 0.68680 0.66640 -0.00700
H 	H 	0.74470 0.00490 0.37600 0.12400
H 	H 	0.79460 0.80240 0.34140 -0.04600
H 	H 	0.37530 0.57170 0.84510 -0.01100
C 	C 	0.01190 0.00810 0.03550 0.26700
C 	C 	0.73260 0.24320 0.02800 0.50700
C 	C 	0.98670 0.47750 0.88160 0.50900
C 	C 	0.59710 0.11200 0.06430 -0.23000
C 	C 	0.61450 0.98170 0.08200 0.13500
C 	C 	0.45960 0.12130 0.08130 0.16300
C 	C 	0.97080 0.42160 0.76810 0.11100
C 	C 	0.88140 0.65140 0.74110 -0.19000
C 	C 	0.90630 0.62630 0.80230 0.11400
C 	C 	0.34240 0.00240 0.11440 -0.21600
C 	C 	0.37100 0.87940 0.13330 0.12500
C 	C 	0.95220 0.50960 0.81660 -0.22800
C 	C 	0.89700 0.55640 0.69590 0.10500
C 	C 	0.50250 0.47810 0.96640 0.25600
C 	C 	0.48810 0.99190 0.53550 0.26500
C 	C 	0.76740 0.75680 0.52800 0.50800
C 	C 	0.51330 0.52250 0.38160 0.51000
C 	C 	0.90290 0.88800 0.56430 -0.23200
C 	C 	0.88550 0.01830 0.58200 0.13700
C 	C 	0.04040 0.87870 0.58130 0.16600
C 	C 	0.52920 0.57840 0.26810 0.11300
C 	C 	0.61860 0.34860 0.24110 -0.19000
C 	C 	0.59370 0.37370 0.30230 0.11500
C 	C 	0.15760 0.99760 0.61440 -0.22100
C 	C 	0.12900 0.12060 0.63330 0.13000
C 	C 	0.54780 0.49040 0.31660 -0.22900
C 	C 	0.60300 0.44360 0.19590 0.10500
C 	C 	0.99750 0.52190 0.46640 0.25600
C 	C 	0.98810 0.99190 0.96450 0.26700
C 	C 	0.26740 0.75680 0.97200 0.50700
C 	C 	0.01330 0.52250 0.11840 0.50900
C 	C 	0.40290 0.88800 0.93570 -0.23000
C 	C 	0.38550 0.01830 0.91800 0.13500
C 	C 	0.54040 0.87870 0.91870 0.16300
C 	C 	0.02920 0.57840 0.23190 0.11100
C 	C 	0.11860 0.34860 0.25890 -0.19000
C 	C 	0.09370 0.37370 0.19770 0.11400
C 	C 	0.65760 0.99760 0.88560 -0.21600
C 	C 	0.62900 0.12060 0.86670 0.12500
C 	C 	0.04780 0.49040 0.18340 -0.22800
C 	C 	0.10300 0.44360 0.30410 0.10500
C 	C 	0.49750 0.52190 0.03360 0.25600
C 	C 	0.51190 0.00810 0.46450 0.26500
C 	C 	0.23260 0.24320 0.47200 0.50800
C 	C 	0.48670 0.47750 0.61840 0.51000
C 	C 	0.09710 0.11200 0.43570 -0.23200
C 	C 	0.11450 0.98170 0.41800 0.13700
C 	C 	0.95960 0.12130 0.41870 0.16600
C 	C 	0.47080 0.42160 0.73190 0.11300
C 	C 	0.38140 0.65140 0.75890 -0.19000
C 	C 	0.40630 0.62630 0.69770 0.11500
C 	C 	0.84240 0.00240 0.38560 -0.22100
C 	C 	0.87100 0.87940 0.36670 0.13000
C 	C 	0.45220 0.50960 0.68340 -0.22900
C 	C 	0.39700 0.55640 0.80410 0.10500
C 	C 	0.00250 0.47810 0.53360 0.25600
N 	N 	0.50430 0.86530 0.11690 -0.28000
N 	N 	0.94240 0.44210 0.70820 -0.27200
N 	N 	0.99570 0.13470 0.61690 -0.28200
N 	N 	0.55760 0.55790 0.20820 -0.27200
N 	N 	0.49570 0.13470 0.88310 -0.28000
N 	N 	0.05760 0.55790 0.29180 -0.27200
N 	N 	0.00430 0.86530 0.38310 -0.28200
N 	N 	0.44240 0.44210 0.79180 -0.27200
O 	O 	0.83960 0.21480 0.00386 -0.50200
O 	O 	0.36970 0.38240 0.94212 -0.49100
O 	O 	0.08980 0.14400 0.05696 -0.41600
O 	O 	0.05370 0.39000 0.88944 -0.50100
O 	O 	0.94580 0.54030 0.92457 -0.56600
O 	O 	0.72450 0.37130 0.02810 -0.51000
O 	O 	0.94840 0.88270 0.06583 -0.40900
O 	O 	0.63620 0.53910 0.93902 -0.42800
O 	O 	0.66040 0.78520 0.50386 -0.50200
O 	O 	0.13030 0.61760 0.44212 -0.49100
O 	O 	0.41020 0.85600 0.55696 -0.41600
O 	O 	0.44630 0.61000 0.38944 -0.50100
O 	O 	0.55420 0.45970 0.42457 -0.56700
O 	O 	0.77550 0.62870 0.52810 -0.51100
O 	O 	0.55160 0.11730 0.56583 -0.40700
O 	O 	0.86380 0.46090 0.43902 -0.42800
O 	O 	0.16040 0.78520 0.99614 -0.50200
O 	O 	0.63030 0.61760 0.05788 -0.49100
O 	O 	0.91020 0.85600 0.94304 -0.41600
O 	O 	0.94630 0.61000 0.11056 -0.50100
O 	O 	0.05420 0.45970 0.07543 -0.56600
O 	O 	0.27550 0.62870 0.97190 -0.51000
O 	O 	0.05160 0.11730 0.93417 -0.40900
O 	O 	0.36380 0.46090 0.06098 -0.42800
O 	O 	0.33960 0.21480 0.49614 -0.50200
O 	O 	0.86970 0.38240 0.55788 -0.49100
O 	O 	0.58980 0.14400 0.44304 -0.41600
O 	O 	0.55370 0.39000 0.61056 -0.50100
O 	O 	0.44580 0.54030 0.57543 -0.56700
O 	O 	0.22450 0.37130 0.47190 -0.51100
O 	O 	0.44840 0.88270 0.43417 -0.40700
O 	O 	0.13620 0.53910 0.56098 -0.42800
