data_crystal

_cell_length_a 9.23330
_cell_length_b 9.55030
_cell_length_c 21.58500
_cell_angle_alpha 90.00000
_cell_angle_beta  90.00000
_cell_angle_gamma 116.00600

_symmetry_space_group_name_	'P 1'
_symmetry_space_group_name_H-M	'P 1'

loop_
_symmetry_equiv_pos_as_xyz
  x,y,z

loop_
_atom_site_label
_atom_site_type_symbol
_atom_site_fract_x
_atom_site_fract_y
_atom_site_fract_z
_atom_site_charge
Sm	Sm	0.62341 0.85922 0.99144 2.22200
Sm	Sm	0.87659 0.14078 0.49144 2.24400
Sm	Sm	0.37659 0.14078 0.00856 2.22200
Sm	Sm	0.12341 0.85922 0.50856 2.24400
Cu	Cu	0.95914 0.80884 0.85455 0.85200
Cu	Cu	0.54086 0.19116 0.35455 0.85200
Cu	Cu	0.04086 0.19116 0.14545 0.85200
Cu	Cu	0.45914 0.80884 0.64545 0.85200
H 	H 	0.60890 0.81730 0.16640 -0.01300
H 	H 	0.06080 0.29690 0.93010 -0.01300
H 	H 	0.25580 0.49930 0.87480 0.11500
H 	H 	0.79250 0.52920 0.92970 -0.02700
H 	H 	0.64720 0.77190 0.26900 0.09600
H 	H 	0.20630 0.70320 0.84360 -0.04400
H 	H 	0.49600 0.15420 0.22390 -0.02900
H 	H 	0.62520 0.92650 0.34480 -0.01800
H 	H 	0.89110 0.18270 0.66640 -0.01500
H 	H 	0.43920 0.70310 0.43010 -0.01600
H 	H 	0.24420 0.50070 0.37480 0.11700
H 	H 	0.70750 0.47080 0.42970 -0.02800
H 	H 	0.85280 0.22810 0.76900 0.09800
H 	H 	0.29370 0.29680 0.34360 -0.04500
H 	H 	0.00400 0.84580 0.72390 -0.02800
H 	H 	0.87480 0.07350 0.84480 -0.01700
H 	H 	0.39110 0.18270 0.83360 -0.01300
H 	H 	0.93920 0.70310 0.06990 -0.01300
H 	H 	0.74420 0.50070 0.12520 0.11500
H 	H 	0.20750 0.47080 0.07030 -0.02700
H 	H 	0.35280 0.22810 0.73100 0.09600
H 	H 	0.79370 0.29680 0.15640 -0.04400
H 	H 	0.50400 0.84580 0.77610 -0.02900
H 	H 	0.37480 0.07350 0.65520 -0.01800
H 	H 	0.10890 0.81730 0.33360 -0.01500
H 	H 	0.56080 0.29690 0.56990 -0.01600
H 	H 	0.75580 0.49930 0.62520 0.11700
H 	H 	0.29250 0.52920 0.57030 -0.02800
H 	H 	0.14720 0.77190 0.23100 0.09800
H 	H 	0.70630 0.70320 0.65640 -0.04500
H 	H 	0.99600 0.15420 0.27610 -0.02800
H 	H 	0.12520 0.92650 0.15520 -0.01700
C 	C 	0.54600 0.99150 0.18450 -0.21200
C 	C 	0.51140 0.02730 0.12050 0.48200
C 	C 	0.59410 0.87630 0.19790 0.11600
C 	C 	0.77190 0.25950 0.96940 0.50700
C 	C 	0.90380 0.39040 0.93490 -0.22400
C 	C 	0.04410 0.38260 0.91860 0.14600
C 	C 	0.15920 0.50180 0.88520 -0.20500
C 	C 	0.88500 0.52110 0.91730 0.13000
C 	C 	0.61930 0.85140 0.25870 -0.19900
C 	C 	0.12960 0.62470 0.86750 0.11600
C 	C 	0.52910 0.07750 0.23300 0.10100
C 	C 	0.60350 0.94300 0.30410 0.12000
C 	C 	0.48880 0.49200 0.96450 0.26500
C 	C 	0.00350 0.97720 0.96630 0.25300
C 	C 	0.95400 0.00850 0.68450 -0.21800
C 	C 	0.98860 0.97270 0.62050 0.49000
C 	C 	0.90590 0.12370 0.69790 0.12100
C 	C 	0.72810 0.74050 0.46940 0.51100
C 	C 	0.59620 0.60960 0.43490 -0.23100
C 	C 	0.45590 0.61740 0.41860 0.15300
C 	C 	0.34080 0.49820 0.38520 -0.20900
C 	C 	0.61500 0.47890 0.41730 0.13300
C 	C 	0.88070 0.14860 0.75870 -0.20300
C 	C 	0.37040 0.37530 0.36750 0.12000
C 	C 	0.97090 0.92250 0.73300 0.10200
C 	C 	0.89650 0.05700 0.80410 0.12500
C 	C 	0.01120 0.50800 0.46450 0.26500
C 	C 	0.49650 0.02280 0.46630 0.26100
C 	C 	0.45400 0.00850 0.81550 -0.21200
C 	C 	0.48860 0.97270 0.87950 0.48200
C 	C 	0.40590 0.12370 0.80210 0.11600
C 	C 	0.22810 0.74050 0.03060 0.50700
C 	C 	0.09620 0.60960 0.06510 -0.22400
C 	C 	0.95590 0.61740 0.08140 0.14600
C 	C 	0.84080 0.49820 0.11480 -0.20500
C 	C 	0.11500 0.47890 0.08270 0.13000
C 	C 	0.38070 0.14860 0.74130 -0.19900
C 	C 	0.87040 0.37530 0.13250 0.11600
C 	C 	0.47090 0.92250 0.76700 0.10100
C 	C 	0.39650 0.05700 0.69590 0.12000
C 	C 	0.51120 0.50800 0.03550 0.26500
C 	C 	0.99650 0.02280 0.03370 0.25300
C 	C 	0.04600 0.99150 0.31550 -0.21800
C 	C 	0.01140 0.02730 0.37950 0.49000
C 	C 	0.09410 0.87630 0.30210 0.12100
C 	C 	0.27190 0.25950 0.53060 0.51100
C 	C 	0.40380 0.39040 0.56510 -0.23100
C 	C 	0.54410 0.38260 0.58140 0.15300
C 	C 	0.65920 0.50180 0.61480 -0.20900
C 	C 	0.38500 0.52110 0.58270 0.13300
C 	C 	0.11930 0.85140 0.24130 -0.20300
C 	C 	0.62960 0.62470 0.63250 0.12000
C 	C 	0.02910 0.07750 0.26700 0.10200
C 	C 	0.10350 0.94300 0.19590 0.12500
C 	C 	0.98880 0.49200 0.53550 0.26500
C 	C 	0.50350 0.97720 0.53370 0.26100
N 	N 	0.99500 0.63690 0.88310 -0.27900
N 	N 	0.55770 0.05680 0.29250 -0.27600
N 	N 	0.50500 0.36310 0.38310 -0.28000
N 	N 	0.94230 0.94320 0.79250 -0.27800
N 	N 	0.00500 0.36310 0.11690 -0.27900
N 	N 	0.44230 0.94320 0.70750 -0.27600
N 	N 	0.49500 0.63690 0.61690 -0.28000
N 	N 	0.05770 0.05680 0.20750 -0.27800
O 	O 	0.87320 0.88220 0.94214 -0.51500
O 	O 	0.78000 0.13210 0.96962 -0.52800
O 	O 	0.55040 0.96830 0.07549 -0.59300
O 	O 	0.55120 0.61540 0.93372 -0.42700
O 	O 	0.66400 0.28730 0.99420 -0.52000
O 	O 	0.44310 0.11450 0.11438 -0.51500
O 	O 	0.40890 0.35790 0.94314 -0.43700
O 	O 	0.13660 0.03770 0.93933 -0.44800
O 	O 	0.62680 0.11780 0.44214 -0.51700
O 	O 	0.72000 0.86790 0.46962 -0.53700
O 	O 	0.94960 0.03170 0.57549 -0.60100
O 	O 	0.94880 0.38460 0.43372 -0.42800
O 	O 	0.83600 0.71270 0.49420 -0.52700
O 	O 	0.05690 0.88550 0.61438 -0.51700
O 	O 	0.09110 0.64210 0.44314 -0.44000
O 	O 	0.36340 0.96230 0.43933 -0.45600
O 	O 	0.12680 0.11780 0.05786 -0.51500
O 	O 	0.22000 0.86790 0.03038 -0.52800
O 	O 	0.44960 0.03170 0.92451 -0.59300
O 	O 	0.44880 0.38460 0.06628 -0.42700
O 	O 	0.33600 0.71270 0.00580 -0.52000
O 	O 	0.55690 0.88550 0.88562 -0.51500
O 	O 	0.59110 0.64210 0.05686 -0.43700
O 	O 	0.86340 0.96230 0.06067 -0.44800
O 	O 	0.37320 0.88220 0.55786 -0.51700
O 	O 	0.28000 0.13210 0.53038 -0.53700
O 	O 	0.05040 0.96830 0.42451 -0.60100
O 	O 	0.05120 0.61540 0.56628 -0.42800
O 	O 	0.16400 0.28730 0.50580 -0.52700
O 	O 	0.94310 0.11450 0.38562 -0.51700
O 	O 	0.90890 0.35790 0.55686 -0.44000
O 	O 	0.63660 0.03770 0.56067 -0.45600
