data_crystal

_cell_length_a 11.61600
_cell_length_b 12.50300
_cell_length_c 14.89100
_cell_angle_alpha 90.00000
_cell_angle_beta  90.00000
_cell_angle_gamma 90.00000

_symmetry_space_group_name_	'P 1'
_symmetry_space_group_name_H-M	'P 1'

loop_
_symmetry_equiv_pos_as_xyz
  x,y,z

loop_
_atom_site_label
_atom_site_type_symbol
_atom_site_fract_x
_atom_site_fract_y
_atom_site_fract_z
_atom_site_charge
Mn	Mn	0.50000 0.50000 0.25000 1.24900
Mn	Mn	0.50000 0.50000 0.75000 1.24800
H 	H 	0.30060 0.78260 0.36410 0.05800
H 	H 	0.16350 0.91800 0.36480 0.06100
H 	H 	0.28600 0.65190 0.21870 -0.00900
H 	H 	0.08670 0.65710 0.21920 0.08400
H 	H 	0.69940 0.21740 0.36410 0.05800
H 	H 	0.83650 0.08200 0.36480 0.06100
H 	H 	0.71400 0.34810 0.21870 -0.00900
H 	H 	0.91330 0.34290 0.21920 0.08400
H 	H 	0.69940 0.78260 0.13590 0.05800
H 	H 	0.83650 0.91800 0.13520 0.06100
H 	H 	0.71400 0.65190 0.28130 -0.00900
H 	H 	0.91330 0.65710 0.28080 0.08400
H 	H 	0.30060 0.21740 0.13590 0.05800
H 	H 	0.16350 0.08200 0.13520 0.06200
H 	H 	0.28600 0.34810 0.28130 -0.00900
H 	H 	0.08670 0.34290 0.28080 0.08400
H 	H 	0.69940 0.21740 0.63590 0.05800
H 	H 	0.83650 0.08200 0.63520 0.06000
H 	H 	0.71400 0.34810 0.78130 -0.00900
H 	H 	0.91330 0.34290 0.78080 0.08400
H 	H 	0.30060 0.78260 0.63590 0.05800
H 	H 	0.16350 0.91800 0.63520 0.06100
H 	H 	0.28600 0.65190 0.78130 -0.00900
H 	H 	0.08670 0.65710 0.78080 0.08400
H 	H 	0.30060 0.21740 0.86410 0.05800
H 	H 	0.16350 0.08200 0.86480 0.06200
H 	H 	0.28600 0.34810 0.71870 -0.00900
H 	H 	0.08670 0.34290 0.71920 0.08400
H 	H 	0.69940 0.78260 0.86410 0.05900
H 	H 	0.83650 0.91800 0.86480 0.06100
H 	H 	0.71400 0.65190 0.71870 -0.00900
H 	H 	0.91330 0.65710 0.71920 0.08400
C 	C 	0.46320 0.65830 0.42020 0.12500
C 	C 	0.27570 0.81200 0.41960 -0.07500
C 	C 	0.19420 0.89260 0.42000 -0.05200
C 	C 	0.07710 0.09200 0.42030 0.09900
C 	C 	0.24490 0.58820 0.23220 0.07600
C 	C 	0.12570 0.59200 0.23190 -0.13000
C 	C 	0.53680 0.34170 0.42020 0.12500
C 	C 	0.72430 0.18800 0.41960 -0.07600
C 	C 	0.80580 0.10740 0.42000 -0.05100
C 	C 	0.92290 0.90800 0.42030 0.09900
C 	C 	0.75510 0.41180 0.23220 0.07600
C 	C 	0.87430 0.40800 0.23190 -0.13100
C 	C 	0.53680 0.65830 0.07980 0.12500
C 	C 	0.72430 0.81200 0.08040 -0.07600
C 	C 	0.80580 0.89260 0.08000 -0.05100
C 	C 	0.92290 0.09200 0.07970 0.09900
C 	C 	0.75510 0.58820 0.26780 0.07600
C 	C 	0.87430 0.59200 0.26810 -0.13100
C 	C 	0.46320 0.34170 0.07980 0.12500
C 	C 	0.27570 0.18800 0.08040 -0.07400
C 	C 	0.19420 0.10740 0.08000 -0.05400
C 	C 	0.07710 0.90800 0.07970 0.10100
C 	C 	0.24490 0.41180 0.26780 0.07600
C 	C 	0.12570 0.40800 0.26810 -0.13000
C 	C 	0.53680 0.34170 0.57980 0.12500
C 	C 	0.72430 0.18800 0.58040 -0.07600
C 	C 	0.80580 0.10740 0.58000 -0.05100
C 	C 	0.92290 0.90800 0.57970 0.09900
C 	C 	0.75510 0.41180 0.76780 0.07500
C 	C 	0.87430 0.40800 0.76810 -0.13000
C 	C 	0.46320 0.65830 0.57980 0.12500
C 	C 	0.27570 0.81200 0.58040 -0.07500
C 	C 	0.19420 0.89260 0.58000 -0.05200
C 	C 	0.07710 0.09200 0.57970 0.09900
C 	C 	0.24490 0.58820 0.76780 0.07600
C 	C 	0.12570 0.59200 0.76810 -0.13100
C 	C 	0.46320 0.34170 0.92020 0.12200
C 	C 	0.27570 0.18800 0.91960 -0.07600
C 	C 	0.19420 0.10740 0.92000 -0.05500
C 	C 	0.07710 0.90800 0.92030 0.10000
C 	C 	0.24490 0.41180 0.73220 0.07600
C 	C 	0.12570 0.40800 0.73190 -0.13100
C 	C 	0.53680 0.65830 0.92020 0.12300
C 	C 	0.72430 0.81200 0.91960 -0.07700
C 	C 	0.80580 0.89260 0.92000 -0.05300
C 	C 	0.92290 0.09200 0.92030 0.09600
C 	C 	0.75510 0.58820 0.73220 0.07500
C 	C 	0.87430 0.59200 0.73190 -0.13000
C 	C 	0.06420 0.50000 0.25000 0.05800
C 	C 	0.93580 0.50000 0.25000 0.05900
C 	C 	0.93580 0.50000 0.75000 0.05800
C 	C 	0.06420 0.50000 0.75000 0.05900
C 	C 	0.41730 0.69790 0.50000 -0.14300
C 	C 	0.32320 0.77360 0.50000 0.07600
C 	C 	0.15650 0.93620 0.50000 0.04200
C 	C 	0.06380 0.02720 0.50000 -0.07200
C 	C 	0.58270 0.30210 0.50000 -0.14300
C 	C 	0.67680 0.22640 0.50000 0.07700
C 	C 	0.84350 0.06380 0.50000 0.04100
C 	C 	0.93620 0.97280 0.50000 -0.07100
C 	C 	0.58270 0.69790 -0.00000 -0.14200
C 	C 	0.67680 0.77360 -0.00000 0.07800
C 	C 	0.84350 0.93620 -0.00000 0.04200
C 	C 	0.93620 0.02720 -0.00000 -0.06700
C 	C 	0.41730 0.30210 -0.00000 -0.14100
C 	C 	0.32320 0.22640 -0.00000 0.07700
C 	C 	0.15650 0.06380 -0.00000 0.04600
C 	C 	0.06380 0.97280 1.00000 -0.07600
N 	N 	0.50140 0.62530 0.35420 -0.27300
N 	N 	0.09410 0.13960 0.35730 -0.13200
N 	N 	0.49860 0.37470 0.35420 -0.27300
N 	N 	0.90590 0.86040 0.35730 -0.13200
N 	N 	0.49860 0.62530 0.14580 -0.27300
N 	N 	0.90590 0.13960 0.14270 -0.13100
N 	N 	0.50140 0.37470 0.14580 -0.27300
N 	N 	0.09410 0.86040 0.14270 -0.13200
N 	N 	0.49860 0.37470 0.64580 -0.27300
N 	N 	0.90590 0.86040 0.64270 -0.13200
N 	N 	0.50140 0.62530 0.64580 -0.27300
N 	N 	0.09410 0.13960 0.64270 -0.13200
N 	N 	0.50140 0.37470 0.85420 -0.27300
N 	N 	0.09410 0.86040 0.85730 -0.13200
N 	N 	0.49860 0.62530 0.85420 -0.27300
N 	N 	0.90590 0.13960 0.85730 -0.13100
N 	N 	0.30450 0.50000 0.25000 -0.24900
N 	N 	0.69550 0.50000 0.25000 -0.24900
N 	N 	0.69550 0.50000 0.75000 -0.24900
N 	N 	0.30450 0.50000 0.75000 -0.24900
