data_crystal

_cell_length_a 6.99410
_cell_length_b 7.48900
_cell_length_c 11.14610
_cell_angle_alpha 107.82200
_cell_angle_beta  106.36400
_cell_angle_gamma 95.46640

_symmetry_space_group_name_	'P 1'
_symmetry_space_group_name_H-M	'P 1'

loop_
_symmetry_equiv_pos_as_xyz
  x,y,z

loop_
_atom_site_label
_atom_site_type_symbol
_atom_site_fract_x
_atom_site_fract_y
_atom_site_fract_z
_atom_site_charge
Al	Al	0.29518 0.29518 0.59036 2.39900
Al	Al	0.70482 0.70482 0.40964 2.39800
Al	Al	0.00000 0.50000 0.50000 2.38900
Al	Al	0.50000 1.00000 0.50000 2.39200
H 	H 	0.99400 0.31000 0.64800 0.72000
H 	H 	0.14200 0.97300 0.47800 0.16200
H 	H 	0.65400 0.33800 0.64800 0.48900
H 	H 	0.33600 0.50500 0.47800 0.39700
H 	H 	0.00600 0.69000 0.35200 0.20200
H 	H 	0.85800 0.02700 0.52200 0.60300
H 	H 	0.34600 0.66200 0.35200 0.44700
H 	H 	0.66400 0.49500 0.52200 0.38500
H 	H 	0.55190 0.31210 -0.00000 0.10200
H 	H 	0.44810 0.68790 -0.00000 -0.01400
C 	C 	0.42680 0.06950 0.75140 0.56000
C 	C 	0.45580 0.03390 0.88040 0.14800
C 	C 	0.32460 0.68190 0.75140 0.51900
C 	C 	0.42460 0.84650 0.88040 -0.28200
C 	C 	0.57320 0.93050 0.24860 0.34600
C 	C 	0.54420 0.96610 0.11960 -0.27300
C 	C 	0.67540 0.31810 0.24860 0.38600
C 	C 	0.57540 0.15350 0.11960 0.17200
C 	C 	0.53070 0.18490 -0.00000 -0.13400
C 	C 	0.46930 0.81510 -0.00000 0.15700
O 	O 	0.02770 0.31620 0.58360 -1.54700
O 	O 	0.23550 0.04250 0.46700 -0.94600
O 	O 	0.32790 0.19900 0.73560 -0.68700
O 	O 	0.50340 0.97020 0.66940 -0.73700
O 	O 	0.55590 0.26740 0.58360 -1.23700
O 	O 	0.23150 0.42450 0.46700 -1.19100
O 	O 	0.40770 0.53660 0.73560 -0.66900
O 	O 	0.16600 0.69920 0.66940 -0.73800
O 	O 	0.97230 0.68380 0.41640 -0.94500
O 	O 	0.76450 0.95750 0.53300 -1.32800
O 	O 	0.67210 0.80100 0.26440 -0.61900
O 	O 	0.49660 0.02980 0.33060 -0.50300
O 	O 	0.44410 0.73260 0.41640 -1.27600
O 	O 	0.76850 0.57550 0.53300 -1.10200
O 	O 	0.59230 0.46340 0.26440 -0.64000
O 	O 	0.83400 0.30080 0.33060 -0.50500
