data_crystal

_cell_length_a 11.78200
_cell_length_b 13.00540
_cell_length_c 13.00540
_cell_angle_alpha 97.82830
_cell_angle_beta  105.47300
_cell_angle_gamma 105.47300

_symmetry_space_group_name_	'P 1'
_symmetry_space_group_name_H-M	'P 1'

loop_
_symmetry_equiv_pos_as_xyz
  x,y,z

loop_
_atom_site_label
_atom_site_type_symbol
_atom_site_fract_x
_atom_site_fract_y
_atom_site_fract_z
_atom_site_charge
Cu	Cu	0.12588 0.23121 0.67759 0.91700
Cu	Cu	0.37412 0.32241 0.76879 0.91700
Cu	Cu	0.87412 0.76879 0.32241 0.91700
Cu	Cu	0.62588 0.67759 0.23121 0.91700
H 	H 	0.12100 0.19410 0.33990 0.05900
H 	H 	0.47470 0.38350 0.48290 0.03700
H 	H 	0.49670 0.40470 0.31830 0.07600
H 	H 	0.02960 0.15270 0.13690 0.06500
H 	H 	0.04780 0.17620 0.97140 0.04100
H 	H 	0.40590 0.36020 0.11340 0.06700
H 	H 	0.91880 0.00960 0.59020 0.00600
H 	H 	0.89270 0.30100 0.61460 -0.00700
H 	H 	0.70650 0.93330 0.53130 0.10800
H 	H 	0.68020 0.23330 0.54710 0.10800
H 	H 	0.54030 0.02110 0.61770 0.09100
H 	H 	0.50720 0.10790 0.55110 0.08900
H 	H 	0.37900 0.66010 0.80590 0.05900
H 	H 	0.02530 0.51710 0.61650 0.03700
H 	H 	0.00330 0.68170 0.59530 0.07600
H 	H 	0.47040 0.86310 0.84730 0.06500
H 	H 	0.45220 0.02860 0.82380 0.04300
H 	H 	0.09410 0.88660 0.63980 0.06800
H 	H 	0.58120 0.40980 0.99040 0.00600
H 	H 	0.60730 0.38540 0.69900 -0.00700
H 	H 	0.79350 0.46870 0.06670 0.10800
H 	H 	0.81980 0.45290 0.76670 0.10800
H 	H 	0.95970 0.38230 0.97890 0.09200
H 	H 	0.99280 0.44890 0.89210 0.08900
H 	H 	0.87900 0.80590 0.66010 0.05900
H 	H 	0.52530 0.61650 0.51710 0.03700
H 	H 	0.50330 0.59530 0.68170 0.07600
H 	H 	0.97040 0.84730 0.86310 0.06500
H 	H 	0.95220 0.82380 0.02860 0.04100
H 	H 	0.59410 0.63980 0.88660 0.06700
H 	H 	0.08120 0.99040 0.40980 0.00600
H 	H 	0.10730 0.69900 0.38540 -0.00700
H 	H 	0.29350 0.06670 0.46870 0.10800
H 	H 	0.31980 0.76670 0.45290 0.10800
H 	H 	0.45970 0.97890 0.38230 0.09100
H 	H 	0.49280 0.89210 0.44890 0.08900
H 	H 	0.62100 0.33990 0.19410 0.05900
H 	H 	0.97470 0.48290 0.38350 0.03700
H 	H 	0.99670 0.31830 0.40470 0.07600
H 	H 	0.52960 0.13690 0.15270 0.06500
H 	H 	0.54780 0.97140 0.17620 0.04300
H 	H 	0.90590 0.11340 0.36020 0.06800
H 	H 	0.41880 0.59020 0.00960 0.00600
H 	H 	0.39270 0.61460 0.30100 -0.00700
H 	H 	0.20650 0.53130 0.93330 0.10800
H 	H 	0.18020 0.54710 0.23330 0.10800
H 	H 	0.04030 0.61770 0.02110 0.09200
H 	H 	0.00720 0.55110 0.10790 0.08900
C 	C 	0.27870 0.27867 0.53753 0.33700
C 	C 	0.29380 0.28790 0.42790 -0.07900
C 	C 	0.19570 0.23630 0.33450 -0.04200
C 	C 	0.40760 0.35000 0.41960 0.01700
C 	C 	0.20610 0.24630 0.23110 0.02300
C 	C 	0.42130 0.36170 0.32150 -0.10100
C 	C 	0.32100 0.30900 0.22300 0.03400
C 	C 	0.10480 0.19540 0.13300 -0.08700
C 	C 	0.11600 0.20820 0.03420 0.00600
C 	C 	0.33080 0.31930 0.11890 -0.04900
C 	C 	0.23100 0.26990 0.02550 -0.06600
C 	C 	0.24150 0.28130 0.91550 0.33600
C 	C 	0.86990 0.05540 0.58560 0.11700
C 	C 	0.85480 0.22570 0.59870 0.12700
C 	C 	0.74260 0.00900 0.54880 -0.20000
C 	C 	0.72620 0.18540 0.55900 -0.21700
C 	C 	0.66830 0.07760 0.53800 0.17000
C 	C 	0.53910 0.04646 0.55066 -0.18400
C 	C 	0.22130 0.46247 0.72133 0.33700
C 	C 	0.20620 0.57210 0.71210 -0.08000
C 	C 	0.30430 0.66550 0.76370 -0.04100
C 	C 	0.09240 0.58040 0.65000 0.01700
C 	C 	0.29390 0.76890 0.75370 0.02200
C 	C 	0.07870 0.67850 0.63830 -0.10200
C 	C 	0.17900 0.77700 0.69100 0.03500
C 	C 	0.39520 0.86700 0.80460 -0.08500
C 	C 	0.38400 0.96580 0.79180 0.00300
C 	C 	0.16920 0.88110 0.68070 -0.05000
C 	C 	0.26900 0.97450 0.73010 -0.06400
C 	C 	0.25850 0.08450 0.71870 0.33500
C 	C 	0.63010 0.41440 0.94460 0.11700
C 	C 	0.64520 0.40130 0.77430 0.12700
C 	C 	0.75740 0.45120 0.99100 -0.20000
C 	C 	0.77380 0.44100 0.81460 -0.21700
C 	C 	0.83170 0.46200 0.92240 0.17000
C 	C 	0.96090 0.44934 0.95354 -0.18400
C 	C 	0.72130 0.72133 0.46247 0.33700
C 	C 	0.70620 0.71210 0.57210 -0.07900
C 	C 	0.80430 0.76370 0.66550 -0.04200
C 	C 	0.59240 0.65000 0.58040 0.01700
C 	C 	0.79390 0.75370 0.76890 0.02300
C 	C 	0.57870 0.63830 0.67850 -0.10100
C 	C 	0.67900 0.69100 0.77700 0.03400
C 	C 	0.89520 0.80460 0.86700 -0.08700
C 	C 	0.88400 0.79180 0.96580 0.00600
C 	C 	0.66920 0.68070 0.88110 -0.04900
C 	C 	0.76900 0.73010 0.97450 -0.06600
C 	C 	0.75850 0.71870 0.08450 0.33600
C 	C 	0.13010 0.94460 0.41440 0.11700
C 	C 	0.14520 0.77430 0.40130 0.12700
C 	C 	0.25740 0.99100 0.45120 -0.20000
C 	C 	0.27380 0.81460 0.44100 -0.21700
C 	C 	0.33170 0.92240 0.46200 0.17000
C 	C 	0.46090 0.95354 0.44934 -0.18400
C 	C 	0.77870 0.53753 0.27867 0.33700
C 	C 	0.79380 0.42790 0.28790 -0.08000
C 	C 	0.69570 0.33450 0.23630 -0.04100
C 	C 	0.90760 0.41960 0.35000 0.01700
C 	C 	0.70610 0.23110 0.24630 0.02200
C 	C 	0.92130 0.32150 0.36170 -0.10200
C 	C 	0.82100 0.22300 0.30900 0.03500
C 	C 	0.60480 0.13300 0.19540 -0.08500
C 	C 	0.61600 0.03420 0.20820 0.00300
C 	C 	0.83080 0.11890 0.31930 -0.05000
C 	C 	0.73100 0.02550 0.26990 -0.06400
C 	C 	0.74150 0.91550 0.28130 0.33500
C 	C 	0.36990 0.58560 0.05540 0.11700
C 	C 	0.35480 0.59870 0.22570 0.12700
C 	C 	0.24260 0.54880 0.00900 -0.20000
C 	C 	0.22620 0.55900 0.18540 -0.21700
C 	C 	0.16830 0.53800 0.07760 0.17000
C 	C 	0.03910 0.55066 0.04646 -0.18400
N 	N 	0.92590 0.16345 0.61495 -0.21000
N 	N 	0.57410 0.38505 0.83655 -0.21000
N 	N 	0.07410 0.83655 0.38505 -0.21000
N 	N 	0.42590 0.61495 0.16345 -0.21000
O 	O 	0.17090 0.23465 0.54033 -0.39700
O 	O 	0.37640 0.31699 0.61939 -0.40200
O 	O 	0.14220 0.24923 0.83657 -0.39600
O 	O 	0.35010 0.32145 0.91037 -0.39400
O 	O 	0.32910 0.45967 0.76535 -0.39700
O 	O 	0.12360 0.38061 0.68301 -0.40300
O 	O 	0.35780 0.16343 0.75077 -0.39600
O 	O 	0.14990 0.08963 0.67855 -0.39500
O 	O 	0.82910 0.76535 0.45967 -0.39700
O 	O 	0.62360 0.68301 0.38061 -0.40200
O 	O 	0.85780 0.75077 0.16343 -0.39600
O 	O 	0.64990 0.67855 0.08963 -0.39400
O 	O 	0.67090 0.54033 0.23465 -0.39700
O 	O 	0.87640 0.61939 0.31699 -0.40300
O 	O 	0.64220 0.83657 0.24923 -0.39600
O 	O 	0.85010 0.91037 0.32145 -0.39500
