data_crystal

_cell_length_a 11.77970
_cell_length_b 29.18250
_cell_length_c 14.22850
_cell_angle_alpha 90.00000
_cell_angle_beta  100.67900
_cell_angle_gamma 90.00000

_symmetry_space_group_name_	'P 1'
_symmetry_space_group_name_H-M	'P 1'

loop_
_symmetry_equiv_pos_as_xyz
  x,y,z

loop_
_atom_site_label
_atom_site_type_symbol
_atom_site_fract_x
_atom_site_fract_y
_atom_site_fract_z
_atom_site_charge
C 	C 	0.33340 0.12590 0.83170 0.32600
C 	C 	0.30540 0.17310 0.79200 -0.09700
C 	C 	0.36170 0.21010 0.83670 0.03700
H 	H 	0.41920 0.20600 0.89040 0.03700
C 	C 	0.22250 0.18170 0.71330 0.04300
H 	H 	0.18000 0.15730 0.68320 0.03400
C 	C 	0.33320 0.25380 0.80190 -0.10000
H 	H 	0.36840 0.27890 0.83590 0.06900
C 	C 	0.19940 0.22470 0.67700 -0.10700
H 	H 	0.14400 0.22860 0.62180 0.07100
C 	C 	0.25480 0.26150 0.71920 0.04800
C 	C 	0.23110 0.30960 0.68530 0.05800
C 	C 	0.29690 0.34550 0.72550 -0.12000
H 	H 	0.35960 0.34000 0.77440 0.08000
C 	C 	0.13580 0.32030 0.61560 -0.11500
H 	H 	0.08910 0.29680 0.58600 0.07700
C 	C 	0.27160 0.39050 0.69450 0.06600
H 	H 	0.32170 0.41390 0.71980 0.02900
C 	C 	0.10880 0.36570 0.58910 0.06000
H 	H 	0.04320 0.37190 0.54340 0.02500
C 	C 	0.17660 0.40120 0.62890 -0.14300
C 	C 	0.14830 0.45000 0.60670 0.37400
C 	C 	0.17120 0.04580 0.00660 0.14000
H 	H 	0.13970 0.04080 0.94250 -0.01000
C 	C 	0.32880 0.05920 0.12190 0.14700
H 	H 	0.40810 0.06400 0.13880 -0.02600
C 	C 	0.09770 0.04740 0.07120 -0.23400
H 	H 	0.01840 0.04400 0.05150 0.13400
C 	C 	0.26430 0.06110 0.19220 -0.23700
H 	H 	0.29830 0.06680 0.25540 0.14700
C 	C 	0.14550 0.05430 0.16570 0.23400
C 	C 	0.07710 0.09240 0.29780 0.22100
C 	C 	0.01430 0.01270 0.24800 0.23100
C 	C 	0.94720 0.01130 0.32630 -0.04900
C 	C 	0.01250 0.08930 0.37840 -0.05200
C 	C 	0.94930 0.04910 0.38810 0.02600
C 	C 	0.88430 0.97290 0.33840 -0.03100
H 	H 	0.88320 0.94820 0.29690 0.07500
C 	C 	0.01150 0.12520 0.43760 -0.03500
H 	H 	0.05610 0.15100 0.43170 0.05700
C 	C 	0.82230 0.97060 0.41240 -0.01800
H 	H 	0.78060 0.94420 0.42010 0.06000
C 	C 	0.94250 0.12340 0.50850 -0.02100
H 	H 	0.93900 0.14890 0.54700 0.05400
C 	C 	0.82150 0.00650 0.47410 -0.05800
C 	C 	0.88130 0.08560 0.52200 -0.06100
C 	C 	0.88410 0.04740 0.46120 0.03400
C 	C 	0.75950 0.00330 0.55540 0.21700
C 	C 	0.80700 0.08490 0.59460 0.22700
C 	C 	0.67740 0.04170 0.67800 0.26000
C 	C 	0.56660 0.02770 0.65220 -0.26500
H 	H 	0.53800 0.01880 0.58950 0.14200
C 	C 	0.71510 0.05450 0.77090 -0.25600
H 	H 	0.79140 0.06350 0.79170 0.15400
C 	C 	0.49700 0.02670 0.71920 0.16400
H 	H 	0.42150 0.01640 0.70030 -0.02800
C 	C 	0.63900 0.05410 0.83310 0.15500
H 	H 	0.66450 0.06450 0.89530 -0.02600
N 	N 	0.28470 0.05106 0.03090 -0.25100
N 	N 	0.07500 0.05334 0.23880 -0.19600
N 	N 	0.75310 0.04298 0.61000 -0.20100
N 	N 	0.53010 0.03960 0.80860 -0.25900
O 	O 	0.27870 0.09250 0.79410 -0.36100
O 	O 	0.41300 0.12285 0.90360 -0.38300
O 	O 	0.06180 0.45949 0.54240 -0.48600
O 	O 	0.20910 0.48054 0.65090 -0.39600
O 	O 	0.01860 0.98109 0.19630 -0.23900
O 	O 	0.12870 0.12610 0.28240 -0.22300
O 	O 	0.79210 0.11783 0.64030 -0.22600
O 	O 	0.71760 0.96773 0.57620 -0.23200
Cd	Cd	0.40048 0.04377 0.91426 1.22600
C 	C 	0.16660 0.62590 0.66830 0.32400
C 	C 	0.19460 0.67310 0.70800 -0.09800
C 	C 	0.13830 0.71010 0.66330 0.03700
H 	H 	0.08080 0.70600 0.60960 0.03700
C 	C 	0.27750 0.68170 0.78670 0.04300
H 	H 	0.32000 0.65730 0.81680 0.03400
C 	C 	0.16680 0.75380 0.69810 -0.10000
H 	H 	0.13160 0.77890 0.66410 0.06900
C 	C 	0.30060 0.72470 0.82300 -0.10700
H 	H 	0.35600 0.72860 0.87820 0.07100
C 	C 	0.24520 0.76150 0.78080 0.04800
C 	C 	0.26890 0.80960 0.81470 0.05800
C 	C 	0.20310 0.84550 0.77450 -0.12000
H 	H 	0.14040 0.84000 0.72560 0.08000
C 	C 	0.36420 0.82030 0.88440 -0.11500
H 	H 	0.41090 0.79680 0.91400 0.07700
C 	C 	0.22840 0.89050 0.80550 0.06600
H 	H 	0.17830 0.91390 0.78020 0.02900
C 	C 	0.39120 0.86570 0.91090 0.06000
H 	H 	0.45680 0.87190 0.95660 0.02500
C 	C 	0.32340 0.90120 0.87110 -0.14200
C 	C 	0.35170 0.95000 0.89330 0.37400
C 	C 	0.32880 0.54580 0.49340 0.13500
H 	H 	0.36030 0.54080 0.55750 -0.00700
C 	C 	0.17120 0.55920 0.37810 0.14600
H 	H 	0.09190 0.56400 0.36120 -0.02500
C 	C 	0.40230 0.54740 0.42880 -0.23100
H 	H 	0.48160 0.54400 0.44850 0.13300
C 	C 	0.23570 0.56110 0.30780 -0.23600
H 	H 	0.20170 0.56680 0.24460 0.14700
C 	C 	0.35450 0.55430 0.33430 0.23300
C 	C 	0.42290 0.59240 0.20220 0.22100
C 	C 	0.48570 0.51270 0.25200 0.23100
C 	C 	0.55280 0.51130 0.17370 -0.05000
C 	C 	0.48750 0.58930 0.12160 -0.05200
C 	C 	0.55070 0.54910 0.11190 0.02700
C 	C 	0.61570 0.47290 0.16160 -0.03000
H 	H 	0.61680 0.44820 0.20310 0.07400
C 	C 	0.48850 0.62520 0.06240 -0.03500
H 	H 	0.44390 0.65100 0.06830 0.05700
C 	C 	0.67770 0.47060 0.08760 -0.01700
H 	H 	0.71940 0.44420 0.07990 0.05900
C 	C 	0.55750 0.62340 0.99150 -0.02100
H 	H 	0.56100 0.64890 0.95300 0.05400
C 	C 	0.67850 0.50650 0.02590 -0.05900
C 	C 	0.61870 0.58560 0.97800 -0.06100
C 	C 	0.61590 0.54740 0.03880 0.03300
C 	C 	0.74050 0.50330 0.94460 0.21700
C 	C 	0.69300 0.58490 0.90540 0.22700
C 	C 	0.82260 0.54170 0.82200 0.25900
C 	C 	0.93340 0.52770 0.84780 -0.26200
H 	H 	0.96200 0.51880 0.91050 0.14100
C 	C 	0.78490 0.55450 0.72910 -0.25500
H 	H 	0.70860 0.56350 0.70830 0.15400
C 	C 	0.00300 0.52670 0.78080 0.16200
H 	H 	0.07850 0.51640 0.79970 -0.02700
C 	C 	0.86100 0.55410 0.66690 0.15500
H 	H 	0.83550 0.56450 0.60470 -0.02500
N 	N 	0.21530 0.55106 0.46910 -0.25000
N 	N 	0.42500 0.55334 0.26120 -0.19500
N 	N 	0.74690 0.54298 0.89000 -0.20100
N 	N 	0.96990 0.53960 0.69140 -0.25700
O 	O 	0.22130 0.59250 0.70590 -0.36100
O 	O 	0.08700 0.62285 0.59640 -0.38200
O 	O 	0.43820 0.95949 0.95760 -0.48500
O 	O 	0.29090 0.98054 0.84910 -0.39500
O 	O 	0.48140 0.48109 0.30370 -0.23900
O 	O 	0.37130 0.62610 0.21760 -0.22300
O 	O 	0.70790 0.61783 0.85970 -0.22500
O 	O 	0.78240 0.46773 0.92380 -0.23100
Cd	Cd	0.09952 0.54377 0.58574 1.22600
C 	C 	0.66660 0.87410 0.16830 0.32500
C 	C 	0.69460 0.82690 0.20800 -0.09800
C 	C 	0.63830 0.78990 0.16330 0.03700
H 	H 	0.58080 0.79400 0.10960 0.03700
C 	C 	0.77750 0.81830 0.28670 0.04300
H 	H 	0.82000 0.84270 0.31680 0.03400
C 	C 	0.66680 0.74620 0.19810 -0.10000
H 	H 	0.63160 0.72110 0.16410 0.06900
C 	C 	0.80060 0.77530 0.32300 -0.10700
H 	H 	0.85600 0.77140 0.37820 0.07100
C 	C 	0.74520 0.73850 0.28080 0.04800
C 	C 	0.76890 0.69040 0.31470 0.05800
C 	C 	0.70310 0.65450 0.27450 -0.12000
H 	H 	0.64040 0.66000 0.22560 0.08000
C 	C 	0.86420 0.67970 0.38440 -0.11500
H 	H 	0.91090 0.70320 0.41400 0.07700
C 	C 	0.72840 0.60950 0.30550 0.06600
H 	H 	0.67830 0.58610 0.28020 0.02900
C 	C 	0.89120 0.63430 0.41090 0.06000
H 	H 	0.95680 0.62810 0.45660 0.02500
C 	C 	0.82340 0.59880 0.37110 -0.14300
C 	C 	0.85170 0.55000 0.39330 0.37400
C 	C 	0.82880 0.95420 0.99340 0.14000
H 	H 	0.86030 0.95920 0.05750 -0.01000
C 	C 	0.67120 0.94080 0.87810 0.14700
H 	H 	0.59190 0.93600 0.86120 -0.02600
C 	C 	0.90230 0.95260 0.92880 -0.23400
H 	H 	0.98160 0.95600 0.94850 0.13400
C 	C 	0.73570 0.93890 0.80780 -0.23700
H 	H 	0.70170 0.93320 0.74460 0.14700
C 	C 	0.85450 0.94570 0.83430 0.23400
C 	C 	0.92290 0.90760 0.70220 0.22100
C 	C 	0.98570 0.98730 0.75200 0.23100
C 	C 	0.05280 0.98870 0.67370 -0.04900
C 	C 	0.98750 0.91070 0.62160 -0.05200
C 	C 	0.05070 0.95090 0.61190 0.02600
C 	C 	0.11570 0.02710 0.66160 -0.03100
H 	H 	0.11680 0.05180 0.70310 0.07500
C 	C 	0.98850 0.87480 0.56240 -0.03500
H 	H 	0.94390 0.84900 0.56830 0.05700
C 	C 	0.17770 0.02940 0.58760 -0.01800
H 	H 	0.21940 0.05580 0.57990 0.06000
C 	C 	0.05750 0.87660 0.49150 -0.02100
H 	H 	0.06100 0.85110 0.45300 0.05400
C 	C 	0.17850 0.99350 0.52590 -0.05800
C 	C 	0.11870 0.91440 0.47800 -0.06100
C 	C 	0.11590 0.95260 0.53880 0.03400
C 	C 	0.24050 0.99670 0.44460 0.21700
C 	C 	0.19300 0.91510 0.40540 0.22700
C 	C 	0.32260 0.95830 0.32200 0.26000
C 	C 	0.43340 0.97230 0.34780 -0.26500
H 	H 	0.46200 0.98120 0.41050 0.14200
C 	C 	0.28490 0.94550 0.22910 -0.25600
H 	H 	0.20860 0.93650 0.20830 0.15400
C 	C 	0.50300 0.97330 0.28080 0.16400
H 	H 	0.57850 0.98360 0.29970 -0.02800
C 	C 	0.36100 0.94590 0.16690 0.15500
H 	H 	0.33550 0.93550 0.10470 -0.02600
N 	N 	0.71530 0.94894 0.96910 -0.25100
N 	N 	0.92500 0.94666 0.76120 -0.19600
N 	N 	0.24690 0.95702 0.39000 -0.20100
N 	N 	0.46990 0.96040 0.19140 -0.25900
O 	O 	0.72130 0.90750 0.20590 -0.36100
O 	O 	0.58700 0.87715 0.09640 -0.38300
O 	O 	0.93820 0.54051 0.45760 -0.48600
O 	O 	0.79090 0.51946 0.34910 -0.39600
O 	O 	0.98140 0.01891 0.80370 -0.23900
O 	O 	0.87130 0.87390 0.71760 -0.22300
O 	O 	0.20790 0.88217 0.35970 -0.22600
O 	O 	0.28240 0.03227 0.42380 -0.23200
Cd	Cd	0.59952 0.95624 0.08574 1.22600
C 	C 	0.83340 0.37410 0.33170 0.32400
C 	C 	0.80540 0.32690 0.29200 -0.09800
C 	C 	0.86170 0.28990 0.33670 0.03700
H 	H 	0.91920 0.29400 0.39040 0.03700
C 	C 	0.72250 0.31830 0.21330 0.04300
H 	H 	0.68000 0.34270 0.18320 0.03400
C 	C 	0.83320 0.24620 0.30190 -0.10000
H 	H 	0.86840 0.22110 0.33590 0.06900
C 	C 	0.69940 0.27530 0.17700 -0.10700
H 	H 	0.64400 0.27140 0.12180 0.07100
C 	C 	0.75480 0.23850 0.21920 0.04800
C 	C 	0.73110 0.19040 0.18530 0.05800
C 	C 	0.79690 0.15450 0.22550 -0.12000
H 	H 	0.85960 0.16000 0.27440 0.08000
C 	C 	0.63580 0.17970 0.11560 -0.11500
H 	H 	0.58910 0.20320 0.08600 0.07700
C 	C 	0.77160 0.10950 0.19450 0.06600
H 	H 	0.82170 0.08610 0.21980 0.02900
C 	C 	0.60880 0.13430 0.08910 0.06000
H 	H 	0.54320 0.12810 0.04340 0.02500
C 	C 	0.67660 0.09880 0.12890 -0.14200
C 	C 	0.64830 0.05000 0.10670 0.37400
C 	C 	0.67120 0.45420 0.50660 0.13500
H 	H 	0.63970 0.45920 0.44250 -0.00700
C 	C 	0.82880 0.44080 0.62190 0.14600
H 	H 	0.90810 0.43600 0.63880 -0.02500
C 	C 	0.59770 0.45260 0.57120 -0.23100
H 	H 	0.51840 0.45600 0.55150 0.13300
C 	C 	0.76430 0.43890 0.69220 -0.23600
H 	H 	0.79830 0.43320 0.75540 0.14700
C 	C 	0.64550 0.44570 0.66570 0.23300
C 	C 	0.57710 0.40760 0.79780 0.22100
C 	C 	0.51430 0.48730 0.74800 0.23100
C 	C 	0.44720 0.48870 0.82630 -0.05000
C 	C 	0.51250 0.41070 0.87840 -0.05200
C 	C 	0.44930 0.45090 0.88810 0.02700
C 	C 	0.38430 0.52710 0.83840 -0.03000
H 	H 	0.38320 0.55180 0.79690 0.07400
C 	C 	0.51150 0.37480 0.93760 -0.03500
H 	H 	0.55610 0.34900 0.93170 0.05700
C 	C 	0.32230 0.52940 0.91240 -0.01700
H 	H 	0.28060 0.55580 0.92010 0.05900
C 	C 	0.44250 0.37660 0.00850 -0.02100
H 	H 	0.43900 0.35110 0.04700 0.05400
C 	C 	0.32150 0.49350 0.97410 -0.05900
C 	C 	0.38130 0.41440 0.02200 -0.06100
C 	C 	0.38410 0.45260 0.96120 0.03300
C 	C 	0.25950 0.49670 0.05540 0.21700
C 	C 	0.30700 0.41510 0.09460 0.22700
C 	C 	0.17740 0.45830 0.17800 0.25900
C 	C 	0.06660 0.47230 0.15220 -0.26200
H 	H 	0.03800 0.48120 0.08950 0.14100
C 	C 	0.21510 0.44550 0.27090 -0.25500
H 	H 	0.29140 0.43650 0.29170 0.15400
C 	C 	0.99700 0.47330 0.21920 0.16200
H 	H 	0.92150 0.48360 0.20030 -0.02700
C 	C 	0.13900 0.44590 0.33310 0.15500
H 	H 	0.16450 0.43550 0.39530 -0.02500
N 	N 	0.78470 0.44894 0.53090 -0.25000
N 	N 	0.57500 0.44666 0.73880 -0.19500
N 	N 	0.25310 0.45702 0.11000 -0.20100
N 	N 	0.03010 0.46040 0.30860 -0.25700
O 	O 	0.77870 0.40750 0.29410 -0.36100
O 	O 	0.91300 0.37715 0.40360 -0.38200
O 	O 	0.56180 0.04051 0.04240 -0.48500
O 	O 	0.70910 0.01946 0.15090 -0.39500
O 	O 	0.51860 0.51891 0.69630 -0.23900
O 	O 	0.62870 0.37390 0.78240 -0.22300
O 	O 	0.29210 0.38217 0.14030 -0.22500
O 	O 	0.21760 0.53227 0.07620 -0.23100
Cd	Cd	0.90048 0.45624 0.41426 1.22600
