data_crystal

_cell_length_a 9.28500
_cell_length_b 10.36980
_cell_length_c 11.73500
_cell_angle_alpha 96.80900
_cell_angle_beta  93.26200
_cell_angle_gamma 111.42700

_symmetry_space_group_name_	'P 1'
_symmetry_space_group_name_H-M	'P 1'

loop_
_symmetry_equiv_pos_as_xyz
  x,y,z

loop_
_atom_site_label
_atom_site_type_symbol
_atom_site_fract_x
_atom_site_fract_y
_atom_site_fract_z
_atom_site_charge
Ce	Ce	0.02912 0.54966 0.18168 2.09700
O 	O 	0.95100 0.63260 0.00940 -0.59000
O 	O 	0.87280 0.64910 0.83330 -0.47600
O 	O 	0.15390 0.79170 0.29910 -0.47400
O 	O 	0.27000 0.64970 0.33970 -0.44100
O 	O 	0.77860 0.35290 0.10660 -0.52900
O 	O 	0.74040 0.33090 0.91300 -0.50100
C 	C 	0.92300 0.70340 0.93580 0.36800
C 	C 	0.95830 0.85500 0.97180 -0.11100
C 	C 	0.92060 0.93230 0.89370 -0.01100
H 	H 	0.86700 0.88690 0.82200 0.04200
C 	C 	0.03840 0.92460 0.07870 -0.01600
H 	H 	0.06450 0.87470 0.13180 0.01400
C 	C 	0.26120 0.76800 0.35160 0.30700
C 	C 	0.38640 0.88910 0.42830 -0.06900
C 	C 	0.49130 0.86540 0.50320 -0.03000
H 	H 	0.48620 0.77450 0.50530 0.03900
C 	C 	0.39600 0.02390 0.42480 -0.03000
H 	H 	0.32670 0.04080 0.37390 0.04600
C 	C 	0.71610 0.28530 0.00750 0.41400
C 	C 	0.60290 0.13900 0.00380 -0.10200
C 	C 	0.53720 0.09150 0.10190 -0.00500
H 	H 	0.56180 0.15270 0.17110 0.03200
C 	C 	0.56440 0.04600 0.90240 -0.02000
H 	H 	0.60720 0.07600 0.83590 0.04700
Ce	Ce	0.97088 0.45034 0.81832 2.09600
O 	O 	0.04900 0.36740 0.99060 -0.59100
O 	O 	0.12720 0.35090 0.16670 -0.47600
O 	O 	0.84610 0.20830 0.70090 -0.47400
O 	O 	0.73000 0.35030 0.66030 -0.44100
O 	O 	0.22140 0.64710 0.89340 -0.52900
O 	O 	0.25960 0.66910 0.08700 -0.50100
C 	C 	0.07700 0.29660 0.06420 0.36800
C 	C 	0.04170 0.14500 0.02820 -0.11100
C 	C 	0.07940 0.06770 0.10630 -0.01100
H 	H 	0.13300 0.11310 0.17800 0.04200
C 	C 	0.96160 0.07540 0.92130 -0.01600
H 	H 	0.93550 0.12530 0.86820 0.01400
C 	C 	0.73880 0.23200 0.64840 0.30700
C 	C 	0.61360 0.11090 0.57170 -0.06900
C 	C 	0.50870 0.13460 0.49680 -0.03000
H 	H 	0.51380 0.22550 0.49470 0.03900
C 	C 	0.60400 0.97610 0.57520 -0.03000
H 	H 	0.67330 0.95920 0.62610 0.04600
C 	C 	0.28390 0.71470 0.99250 0.41400
C 	C 	0.39710 0.86100 0.99620 -0.10200
C 	C 	0.46280 0.90850 0.89810 -0.00500
H 	H 	0.43820 0.84730 0.82890 0.03200
C 	C 	0.43560 0.95400 0.09760 -0.02000
H 	H 	0.39280 0.92400 0.16410 0.04700
