data_crystal

_cell_length_a 9.78870
_cell_length_b 10.05560
_cell_length_c 12.45660
_cell_angle_alpha 92.51400
_cell_angle_beta  91.62300
_cell_angle_gamma 91.49500

_symmetry_space_group_name_	'P 1'
_symmetry_space_group_name_H-M	'P 1'

loop_
_symmetry_equiv_pos_as_xyz
  x,y,z

loop_
_atom_site_label
_atom_site_type_symbol
_atom_site_fract_x
_atom_site_fract_y
_atom_site_fract_z
_atom_site_charge
Pr	Pr	0.05483 0.08947 0.85520 2.08900
Pr	Pr	0.09728 0.33909 0.59430 2.08900
O 	O 	0.34560 0.28170 0.62280 -0.43500
O 	O 	0.21280 0.17310 0.72890 -0.61600
O 	O 	0.92360 0.22540 0.69890 -0.57800
O 	O 	0.80790 0.13550 0.82710 -0.46500
O 	O 	0.92160 0.90990 0.93720 -0.60500
O 	O 	0.73880 0.83700 0.01660 -0.44200
O 	O 	0.78330 0.67180 0.58300 -0.43000
O 	O 	0.95090 0.53660 0.59790 -0.58900
O 	O 	0.21550 0.91580 0.87450 -0.53900
O 	O 	0.22550 0.74130 0.76360 -0.56600
H 	H 	0.19930 0.79530 0.72060 0.33800
O 	O 	0.04340 0.32540 0.90440 -0.51100
O 	O 	0.13540 0.44520 0.77560 -0.47900
O 	O 	0.01030 0.94090 0.69210 -0.48300
O 	O 	0.07550 0.06360 0.53450 -0.29800
O 	O 	0.18750 0.86320 0.58190 -0.27200
O 	O 	0.96060 0.85090 0.51450 -0.35200
O 	O 	0.10660 0.73970 0.52270 -0.25400
C 	C 	0.33120 0.21110 0.70190 0.45800
C 	C 	0.45470 0.16660 0.76590 -0.34200
H 	H 	0.43150 0.16010 0.84070 0.15700
H 	H 	0.48040 0.07910 0.73890 0.15100
C 	C 	0.81210 0.19800 0.74100 0.45700
C 	C 	0.67910 0.23220 0.68390 -0.33600
H 	H 	0.69500 0.30940 0.64140 0.15800
H 	H 	0.65020 0.15840 0.63500 0.16300
C 	C 	0.79880 0.86230 0.93320 0.45400
C 	C 	0.73000 0.82910 0.82460 -0.34400
H 	H 	0.77400 0.87900 0.76970 0.15900
H 	H 	0.63460 0.85250 0.82590 0.16400
C 	C 	0.86570 0.61130 0.63980 0.47300
C 	C 	0.86890 0.63600 0.76020 -0.34200
H 	H 	0.94200 0.70010 0.78020 0.16100
H 	H 	0.88930 0.55350 0.79410 0.15000
C 	C 	0.24030 0.79760 0.85540 0.56400
C 	C 	0.28820 0.72000 0.94990 -0.37700
H 	H 	0.37160 0.76240 0.98020 0.17400
H 	H 	0.21970 0.72560 0.00460 0.15700
C 	C 	0.12490 0.41320 0.87120 0.46200
C 	C 	0.21620 0.48060 0.95920 -0.34100
H 	H 	0.15820 0.52210 0.01200 0.15700
H 	H 	0.26630 0.41220 0.99470 0.15900
C 	C 	0.55720 0.38670 0.79730 0.17100
C 	C 	0.63780 0.59790 0.81290 0.16900
C 	C 	0.42860 0.54440 0.87680 0.17700
N 	N 	0.56990 0.26020 0.75800 -0.03300
N 	N 	0.74130 0.68540 0.80040 -0.03500
N 	N 	0.31390 0.58040 0.92600 -0.02400
N 	N 	0.44250 0.41430 0.85060 -0.15200
N 	N 	0.65860 0.47250 0.77840 -0.15900
N 	N 	0.52250 0.64020 0.85810 -0.14700
S 	S 	0.05660 0.93340 0.58150 0.73700
Pr	Pr	0.94517 0.91053 0.14480 2.08800
Pr	Pr	0.90272 0.66091 0.40570 2.08800
O 	O 	0.65440 0.71830 0.37720 -0.43600
O 	O 	0.78720 0.82690 0.27110 -0.61700
O 	O 	0.07640 0.77460 0.30110 -0.57800
O 	O 	0.19210 0.86450 0.17290 -0.46500
O 	O 	0.07840 0.09010 0.06280 -0.60500
O 	O 	0.26120 0.16300 0.98340 -0.44200
O 	O 	0.21670 0.32820 0.41700 -0.43000
O 	O 	0.04910 0.46340 0.40210 -0.58900
O 	O 	0.78450 0.08420 0.12550 -0.53900
O 	O 	0.77450 0.25870 0.23640 -0.56600
H 	H 	0.80070 0.20470 0.27940 0.33800
O 	O 	0.95660 0.67460 0.09560 -0.51100
O 	O 	0.86460 0.55480 0.22440 -0.47900
O 	O 	0.98970 0.05910 0.30790 -0.48300
O 	O 	0.92450 0.93640 0.46550 -0.29800
O 	O 	0.81250 0.13680 0.41810 -0.27200
O 	O 	0.03940 0.14910 0.48550 -0.35200
O 	O 	0.89340 0.26030 0.47730 -0.25400
C 	C 	0.66880 0.78890 0.29810 0.45800
C 	C 	0.54530 0.83340 0.23410 -0.34200
H 	H 	0.56850 0.83990 0.15930 0.15700
H 	H 	0.51960 0.92090 0.26110 0.15100
C 	C 	0.18790 0.80200 0.25900 0.45700
C 	C 	0.32090 0.76780 0.31610 -0.33600
H 	H 	0.30500 0.69060 0.35860 0.15800
H 	H 	0.34980 0.84160 0.36500 0.16300
C 	C 	0.20120 0.13770 0.06680 0.45400
C 	C 	0.27000 0.17090 0.17540 -0.34400
H 	H 	0.22600 0.12100 0.23030 0.15900
H 	H 	0.36540 0.14750 0.17410 0.16400
C 	C 	0.13430 0.38870 0.36020 0.47300
C 	C 	0.13110 0.36400 0.23980 -0.34200
H 	H 	0.05800 0.29990 0.21980 0.16100
H 	H 	0.11070 0.44650 0.20590 0.15000
C 	C 	0.75970 0.20240 0.14460 0.56400
C 	C 	0.71180 0.28000 0.05010 -0.37700
H 	H 	0.62840 0.23760 0.01980 0.17400
H 	H 	0.78030 0.27440 0.99540 0.15700
C 	C 	0.87510 0.58680 0.12880 0.46200
C 	C 	0.78380 0.51940 0.04080 -0.34100
H 	H 	0.84180 0.47790 0.98800 0.15700
H 	H 	0.73370 0.58780 0.00530 0.15900
C 	C 	0.44280 0.61330 0.20270 0.17100
C 	C 	0.36220 0.40210 0.18710 0.16900
C 	C 	0.57140 0.45560 0.12320 0.17700
N 	N 	0.43010 0.73980 0.24200 -0.03300
N 	N 	0.25870 0.31460 0.19960 -0.03500
N 	N 	0.68610 0.41960 0.07400 -0.02400
N 	N 	0.55750 0.58570 0.14940 -0.15200
N 	N 	0.34140 0.52750 0.22160 -0.15900
N 	N 	0.47750 0.35980 0.14190 -0.14700
S 	S 	0.94340 0.06660 0.41850 0.73700
