data_crystal

_cell_length_a 16.13900
_cell_length_b 18.09920
_cell_length_c 18.09920
_cell_angle_alpha 68.43970
_cell_angle_beta  72.70860
_cell_angle_gamma 107.29100

_symmetry_space_group_name_	'P 1'
_symmetry_space_group_name_H-M	'P 1'

loop_
_symmetry_equiv_pos_as_xyz
  x,y,z

loop_
_atom_site_label
_atom_site_type_symbol
_atom_site_fract_x
_atom_site_fract_y
_atom_site_fract_z
_atom_site_charge
Fe	Fe	0.50000 0.00000 0.50000 1.14000
Fe	Fe	-0.00000 0.50000 0.50000 1.13500
Fe	Fe	0.50000 0.50000 -0.00000 1.13800
H 	H 	0.29070 0.94320 0.79210 0.05600
H 	H 	0.25520 0.06180 0.74720 0.04000
H 	H 	0.31490 0.15550 0.59580 0.05900
H 	H 	0.40790 0.12930 0.49580 0.00600
H 	H 	0.66440 0.31570 0.08670 0.05900
H 	H 	0.64040 0.42240 0.99630 0.06400
H 	H 	0.42920 0.38420 0.19660 -0.00300
H 	H 	0.44930 0.27570 0.29240 0.07900
H 	H 	0.08280 0.79210 0.26470 0.17400
H 	H 	0.00240 0.74720 0.19100 -0.17800
H 	H 	0.91070 0.59580 0.24870 0.18300
H 	H 	0.90370 0.49580 0.37490 -0.05000
H 	H 	0.75110 0.08670 0.59760 0.06800
H 	H 	0.63670 0.99630 0.58130 0.05600
H 	H 	0.62580 0.19660 0.41920 -0.00400
H 	H 	0.74170 0.29240 0.43190 0.08500
H 	H 	0.34750 0.26470 0.94320 0.04500
H 	H 	0.19340 0.19100 0.06180 0.03000
H 	H 	0.15940 0.24870 0.15550 0.04600
H 	H 	0.27860 0.37490 0.12930 0.00700
H 	H 	0.34870 0.59760 0.31570 0.10300
H 	H 	0.21800 0.58130 0.42240 -0.01800
H 	H 	0.04500 0.41920 0.38420 -0.02900
H 	H 	0.17360 0.43190 0.27570 0.08900
H 	H 	0.70930 0.05680 0.20790 0.10500
H 	H 	0.74480 0.93820 0.25280 -0.02200
H 	H 	0.68510 0.84450 0.40420 0.11300
H 	H 	0.59210 0.87070 0.50420 -0.02100
H 	H 	0.33560 0.68430 0.91330 0.14800
H 	H 	0.35960 0.57760 0.00370 -0.10000
H 	H 	0.57080 0.61580 0.80340 -0.01600
H 	H 	0.55070 0.72430 0.70760 0.10600
H 	H 	0.91720 0.20790 0.73530 -0.00800
H 	H 	0.99760 0.25280 0.80900 0.18700
H 	H 	0.08930 0.40420 0.75130 -0.00500
H 	H 	0.09630 0.50420 0.62510 0.03400
H 	H 	0.24890 0.91330 0.40240 0.13800
H 	H 	0.36330 0.00370 0.41870 -0.09100
H 	H 	0.37420 0.80340 0.58080 -0.01500
H 	H 	0.25830 0.70760 0.56810 0.10000
H 	H 	0.65250 0.73530 0.05680 0.11600
H 	H 	0.80660 0.80900 0.93820 -0.01200
H 	H 	0.84060 0.75130 0.84450 0.12500
H 	H 	0.72140 0.62510 0.87070 -0.02100
H 	H 	0.65130 0.40240 0.68430 0.10200
H 	H 	0.78200 0.41870 0.57760 -0.01500
H 	H 	0.95500 0.58080 0.61580 0.01000
H 	H 	0.82640 0.56810 0.72430 0.09500
C 	C 	0.59360 0.09650 0.31120 0.05400
C 	C 	0.43920 0.79860 0.73900 0.06000
C 	C 	0.62560 0.02890 0.32940 0.06100
C 	C 	0.31600 0.98280 0.73150 -0.02300
C 	C 	0.29360 0.05250 0.70520 -0.06400
C 	C 	0.32910 0.10780 0.61590 -0.08200
C 	C 	0.38570 0.09240 0.55640 0.03900
C 	C 	0.44450 0.72090 0.79960 0.14900
C 	C 	0.38640 0.67290 0.88840 -0.26700
C 	C 	0.40090 0.60790 0.94250 0.26200
C 	C 	0.47780 0.37020 0.17270 0.07700
C 	C 	0.48870 0.30360 0.23120 -0.13200
C 	C 	0.90480 0.31120 0.59230 0.10300
C 	C 	0.17820 0.73900 0.46240 0.05600
C 	C 	0.95500 0.32940 0.64170 0.00200
C 	C 	0.04750 0.73150 0.28570 -0.42500
C 	C 	0.99880 0.70520 0.24230 0.46900
C 	C 	0.94500 0.61590 0.27630 -0.39700
C 	C 	0.94210 0.55640 0.35120 0.23300
C 	C 	0.24410 0.79960 0.47950 0.13600
C 	C 	0.27480 0.88840 0.43870 -0.25600
C 	C 	0.34340 0.94250 0.44960 0.24300
C 	C 	0.65050 0.17270 0.45710 0.08200
C 	C 	0.71990 0.23120 0.46520 -0.13900
C 	C 	0.49710 0.59230 0.09650 0.05400
C 	C 	0.64060 0.46240 0.79860 0.07600
C 	C 	0.59670 0.64170 0.02890 0.06300
C 	C 	0.33320 0.28570 0.98280 -0.01200
C 	C 	0.24110 0.24230 0.05250 -0.08200
C 	C 	0.22130 0.27630 0.10780 -0.07600
C 	C 	0.29330 0.35120 0.09240 0.03300
C 	C 	0.72360 0.47950 0.72090 0.09600
C 	C 	0.71350 0.43870 0.67290 -0.17500
C 	C 	0.79300 0.44960 0.60790 0.11600
C 	C 	0.10760 0.45710 0.37020 0.09900
C 	C 	0.18510 0.46520 0.30360 -0.17300
C 	C 	0.40640 0.90350 0.68880 0.07700
C 	C 	0.56080 0.20140 0.26100 0.08800
C 	C 	0.37440 0.97110 0.67060 0.06300
C 	C 	0.68400 0.01720 0.26850 -0.23900
C 	C 	0.70640 0.94750 0.29480 0.18700
C 	C 	0.67090 0.89220 0.38410 -0.21700
C 	C 	0.61430 0.90760 0.44360 0.13200
C 	C 	0.55550 0.27910 0.20040 0.04800
C 	C 	0.61360 0.32710 0.11160 -0.09100
C 	C 	0.59910 0.39210 0.05750 -0.02300
C 	C 	0.52220 0.62980 0.82730 0.12500
C 	C 	0.51130 0.69640 0.76880 -0.20900
C 	C 	0.09520 0.68880 0.40770 0.02700
C 	C 	0.82180 0.26100 0.53760 0.09300
C 	C 	0.04500 0.67060 0.35830 0.12700
C 	C 	0.95250 0.26850 0.71430 0.14700
C 	C 	0.00120 0.29480 0.75770 -0.32600
C 	C 	0.05500 0.38410 0.72370 0.08600
C 	C 	0.05790 0.44360 0.64880 -0.05400
C 	C 	0.75590 0.20040 0.52050 0.05900
C 	C 	0.72520 0.11160 0.56130 -0.10000
C 	C 	0.65660 0.05750 0.55040 -0.00700
C 	C 	0.34950 0.82730 0.54290 0.11900
C 	C 	0.28010 0.76880 0.53480 -0.20100
C 	C 	0.50290 0.40770 0.90350 0.07700
C 	C 	0.35940 0.53760 0.20140 0.07300
C 	C 	0.40330 0.35830 0.97110 0.06100
C 	C 	0.66680 0.71430 0.01720 -0.24800
C 	C 	0.75890 0.75770 0.94750 0.20300
C 	C 	0.77870 0.72370 0.89220 -0.22200
C 	C 	0.70670 0.64880 0.90760 0.13800
C 	C 	0.27640 0.52050 0.27910 0.09800
C 	C 	0.28650 0.56130 0.32710 -0.18000
C 	C 	0.20700 0.55040 0.39210 0.11700
C 	C 	0.89240 0.54290 0.62980 0.10100
C 	C 	0.81490 0.53480 0.69640 -0.16500
N 	N 	0.46863 0.90563 0.61704 -0.20900
N 	N 	0.48871 0.83713 0.65150 -0.09500
N 	N 	0.61357 0.16324 0.23343 -0.12900
N 	N 	0.58930 0.97385 0.41835 -0.23000
N 	N 	0.46820 0.58467 0.91537 -0.27900
N 	N 	0.08567 0.61704 0.47733 -0.22200
N 	N 	0.14021 0.65150 0.51137 -0.10200
N 	N 	0.84700 0.23343 0.60333 -0.13000
N 	N 	0.00765 0.41835 0.60780 -0.23800
N 	N 	0.38357 0.91537 0.49996 -0.27700
N 	N 	0.56300 0.47733 0.90563 -0.20800
N 	N 	0.65158 0.51137 0.83713 -0.09700
N 	N 	0.45033 0.60333 0.16324 -0.12400
N 	N 	0.61545 0.60780 0.97385 -0.22800
N 	N 	0.88353 0.49996 0.58467 -0.24900
N 	N 	0.53137 0.09437 0.38296 -0.22200
N 	N 	0.51129 0.16287 0.34850 -0.10100
N 	N 	0.38643 0.83676 0.76657 -0.11900
N 	N 	0.41070 0.02615 0.58165 -0.26200
N 	N 	0.53180 0.41533 0.08463 -0.24100
N 	N 	0.91433 0.38296 0.52267 -0.20700
N 	N 	0.85979 0.34850 0.48863 -0.09300
N 	N 	0.15300 0.76657 0.39667 -0.11800
N 	N 	0.99235 0.58165 0.39220 -0.25300
N 	N 	0.61643 0.08463 0.50004 -0.24400
N 	N 	0.43700 0.52267 0.09437 -0.22200
N 	N 	0.34842 0.48863 0.16287 -0.09900
N 	N 	0.54967 0.39667 0.83676 -0.12500
N 	N 	0.38455 0.39220 0.02615 -0.26300
N 	N 	0.11647 0.50004 0.41533 -0.27100
Fe	Fe	0.50000 0.50000 0.50000 1.16400
Fe	Fe	-0.00000 0.00000 0.50000 1.11000
Fe	Fe	-0.00000 0.50000 -0.00000 1.10600
H 	H 	0.41720 0.26470 0.79210 0.08300
H 	H 	0.49760 0.19100 0.74720 0.00500
H 	H 	0.58930 0.24870 0.59580 0.08600
H 	H 	0.59630 0.37490 0.49580 -0.00800
H 	H 	0.74890 0.59760 0.08670 0.06300
H 	H 	0.86330 0.58130 0.99630 0.07300
H 	H 	0.87420 0.41920 0.19660 0.00400
H 	H 	0.75830 0.43190 0.29240 0.08200
H 	H 	0.15250 0.94320 0.26470 0.01900
H 	H 	0.30660 0.06180 0.19100 0.04700
H 	H 	0.34060 0.15550 0.24870 0.04700
H 	H 	0.22140 0.12930 0.37490 0.01200
H 	H 	0.15130 0.31570 0.59760 0.09200
H 	H 	0.28200 0.42240 0.58130 -0.01700
H 	H 	0.45500 0.38420 0.41920 -0.00900
H 	H 	0.32640 0.27570 0.43190 0.09000
H 	H 	0.20930 0.79210 0.94320 0.05200
H 	H 	0.24480 0.74720 0.06180 0.04700
H 	H 	0.18510 0.59580 0.15550 0.05400
H 	H 	0.09210 0.49580 0.12930 -0.00500
H 	H 	0.83560 0.08670 0.31570 0.08500
H 	H 	0.85960 0.99630 0.42240 0.04300
H 	H 	0.07080 0.19660 0.38420 -0.00400
H 	H 	0.05070 0.29240 0.27570 0.10400
H 	H 	0.58280 0.73530 0.20790 0.08000
H 	H 	0.50240 0.80900 0.25280 0.01100
H 	H 	0.41070 0.75130 0.40420 0.08800
H 	H 	0.40370 0.62510 0.50420 -0.00900
H 	H 	0.25110 0.40240 0.91330 0.14500
H 	H 	0.13670 0.41870 0.00370 -0.11200
H 	H 	0.12580 0.58080 0.80340 -0.02200
H 	H 	0.24170 0.56810 0.70760 0.10300
H 	H 	0.84750 0.05680 0.73530 0.14400
H 	H 	0.69340 0.93820 0.80900 -0.03000
H 	H 	0.65940 0.84450 0.75130 0.12500
H 	H 	0.77860 0.87070 0.62510 -0.02500
H 	H 	0.84870 0.68430 0.40240 0.11300
H 	H 	0.71800 0.57760 0.41870 -0.01700
H 	H 	0.54500 0.61580 0.58080 -0.01100
H 	H 	0.67360 0.72430 0.56810 0.09500
H 	H 	0.79070 0.20790 0.05680 0.10900
H 	H 	0.75520 0.25280 0.93820 -0.02700
H 	H 	0.81490 0.40420 0.84450 0.11700
H 	H 	0.90790 0.50420 0.87070 -0.00800
H 	H 	0.16440 0.91330 0.68430 0.12400
H 	H 	0.14040 0.00370 0.57760 -0.08100
H 	H 	0.92920 0.80340 0.61580 -0.01400
H 	H 	0.94930 0.70760 0.72430 0.08300
C 	C 	0.59520 0.59230 0.31120 0.06500
C 	C 	0.32180 0.46240 0.73900 0.05800
C 	C 	0.54500 0.64170 0.32940 0.06200
C 	C 	0.45250 0.28570 0.73150 -0.13600
C 	C 	0.50120 0.24230 0.70520 0.06600
C 	C 	0.55500 0.27630 0.61590 -0.15300
C 	C 	0.55790 0.35120 0.55640 0.08700
C 	C 	0.25590 0.47950 0.79960 0.14800
C 	C 	0.22520 0.43870 0.88840 -0.27200
C 	C 	0.15660 0.44960 0.94250 0.26100
C 	C 	0.84950 0.45710 0.17270 0.08100
C 	C 	0.78010 0.46520 0.23120 -0.13400
C 	C 	0.00290 0.09650 0.59230 -0.01800
C 	C 	0.85940 0.79860 0.46240 0.07600
C 	C 	0.90330 0.02890 0.64170 0.15000
C 	C 	0.16680 0.98280 0.28570 0.03100
C 	C 	0.25890 0.05250 0.24230 -0.10900
C 	C 	0.27870 0.10780 0.27630 -0.05300
C 	C 	0.20670 0.09240 0.35120 0.02000
C 	C 	0.77640 0.72090 0.47950 0.10600
C 	C 	0.78650 0.67290 0.43870 -0.18300
C 	C 	0.70700 0.60790 0.44960 0.12200
C 	C 	0.39240 0.37020 0.45710 0.09700
C 	C 	0.31490 0.30360 0.46520 -0.16500
C 	C 	0.90640 0.31120 0.09650 0.06000
C 	C 	0.06080 0.73900 0.79860 0.08000
C 	C 	0.87440 0.32940 0.02890 0.07000
C 	C 	0.18400 0.73150 0.98280 -0.01000
C 	C 	0.20640 0.70520 0.05250 -0.08500
C 	C 	0.17090 0.61590 0.10780 -0.07700
C 	C 	0.11430 0.55640 0.09240 0.02800
C 	C 	0.05550 0.79960 0.72090 0.04500
C 	C 	0.11360 0.88840 0.67290 -0.20900
C 	C 	0.09910 0.94250 0.60790 0.20800
C 	C 	0.02220 0.17270 0.37020 0.06100
C 	C 	0.01130 0.23120 0.30360 -0.24700
C 	C 	0.40480 0.40770 0.68880 0.06400
C 	C 	0.67820 0.53760 0.26100 0.09000
C 	C 	0.45500 0.35830 0.67060 0.06300
C 	C 	0.54750 0.71430 0.26850 -0.13200
C 	C 	0.49880 0.75770 0.29480 0.06400
C 	C 	0.44500 0.72370 0.38410 -0.15000
C 	C 	0.44210 0.64880 0.44360 0.08700
C 	C 	0.74410 0.52050 0.20040 0.05000
C 	C 	0.77480 0.56130 0.11160 -0.08900
C 	C 	0.84340 0.55040 0.05750 -0.01500
C 	C 	0.15050 0.54290 0.82730 0.12100
C 	C 	0.21990 0.53480 0.76880 -0.20700
C 	C 	0.99710 0.90350 0.40770 0.14700
C 	C 	0.14060 0.20140 0.53760 0.07300
C 	C 	0.09670 0.97110 0.35830 -0.01900
C 	C 	0.83320 0.01720 0.71430 -0.29700
C 	C 	0.74110 0.94750 0.75770 0.23300
C 	C 	0.72130 0.89220 0.72370 -0.24700
C 	C 	0.79330 0.90760 0.64880 0.15200
C 	C 	0.22360 0.27910 0.52050 0.08900
C 	C 	0.21350 0.32710 0.56130 -0.17300
C 	C 	0.29300 0.39210 0.55040 0.11200
C 	C 	0.60760 0.62980 0.54290 0.10400
C 	C 	0.68510 0.69640 0.53480 -0.17500
C 	C 	0.09360 0.68880 0.90350 0.07200
C 	C 	0.93920 0.26100 0.20140 0.06700
C 	C 	0.12560 0.67060 0.97110 0.05800
C 	C 	0.81600 0.26850 0.01720 -0.24800
C 	C 	0.79360 0.29480 0.94750 0.20200
C 	C 	0.82910 0.38410 0.89220 -0.21900
C 	C 	0.88570 0.44360 0.90760 0.14100
C 	C 	0.94450 0.20040 0.27910 0.16200
C 	C 	0.88640 0.11160 0.32710 -0.15500
C 	C 	0.90090 0.05750 0.39210 0.03700
C 	C 	0.97780 0.82730 0.62980 0.13900
C 	C 	0.98870 0.76880 0.69640 -0.10400
N 	N 	0.41433 0.47733 0.61704 -0.21800
N 	N 	0.35979 0.51137 0.65150 -0.09600
N 	N 	0.65300 0.60333 0.23343 -0.12600
N 	N 	0.49235 0.60780 0.41835 -0.24800
N 	N 	0.11643 0.49996 0.91537 -0.28600
N 	N 	0.93700 0.90563 0.47733 -0.20500
N 	N 	0.84842 0.83713 0.51137 -0.09600
N 	N 	0.04967 0.16324 0.60333 -0.12600
N 	N 	0.88455 0.97385 0.60780 -0.23300
N 	N 	0.61647 0.58467 0.49996 -0.26500
N 	N 	0.03137 0.61704 0.90563 -0.21700
N 	N 	0.01129 0.65150 0.83713 -0.11600
N 	N 	0.88643 0.23343 0.16324 -0.12200
N 	N 	0.91070 0.41835 0.97385 -0.21600
N 	N 	0.03180 0.91537 0.58467 -0.29800
N 	N 	0.58567 0.52267 0.38296 -0.21800
N 	N 	0.64021 0.48863 0.34850 -0.10000
N 	N 	0.34700 0.39667 0.76657 -0.12200
N 	N 	0.50765 0.39220 0.58165 -0.24900
N 	N 	0.88357 0.50004 0.08463 -0.22800
N 	N 	0.06300 0.09437 0.52267 -0.21800
N 	N 	0.15158 0.16287 0.48863 -0.10000
N 	N 	0.95033 0.83676 0.39667 -0.12300
N 	N 	0.11545 0.02615 0.39220 -0.25400
N 	N 	0.38353 0.41533 0.50004 -0.26200
N 	N 	0.96863 0.38296 0.09437 -0.20300
N 	N 	0.98871 0.34850 0.16287 -0.07700
N 	N 	0.11357 0.76657 0.83676 -0.12600
N 	N 	0.08930 0.58165 0.02615 -0.27100
N 	N 	0.96820 0.08463 0.41533 -0.21500
