data_crystal

_cell_length_a 9.08790
_cell_length_b 16.33720
_cell_length_c 16.33720
_cell_angle_alpha 63.35720
_cell_angle_beta  79.31410
_cell_angle_gamma 100.68600

_symmetry_space_group_name_	'P 1'
_symmetry_space_group_name_H-M	'P 1'

loop_
_symmetry_equiv_pos_as_xyz
  x,y,z

loop_
_atom_site_label
_atom_site_type_symbol
_atom_site_fract_x
_atom_site_fract_y
_atom_site_fract_z
_atom_site_charge
Fe	Fe	0.50000 0.50000 0.50000 1.16500
Fe	Fe	-0.00000 0.50000 -0.00000 1.12200
Fe	Fe	-0.00000 0.00000 0.50000 1.12000
H 	H 	0.60160 0.72480 0.40520 -0.00500
H 	H 	0.83470 0.84910 0.31440 0.10600
H 	H 	0.06210 0.81810 0.26630 -0.04100
H 	H 	0.06040 0.65990 0.32110 0.03100
H 	H 	0.69590 0.17580 0.60350 0.09600
H 	H 	0.77090 0.04860 0.61190 -0.02600
H 	H 	0.14220 0.21640 0.39060 -0.00100
H 	H 	0.07830 0.35020 0.37920 0.10700
H 	H 	0.00680 0.40520 0.87000 0.00900
H 	H 	0.14910 0.31440 0.83650 0.04000
H 	H 	0.32840 0.26630 0.91560 0.06300
H 	H 	0.38150 0.32110 0.01900 -0.02300
H 	H 	0.29940 0.60350 0.22070 0.07800
H 	H 	0.38280 0.61190 0.33950 -0.01000
H 	H 	0.53280 0.39060 0.39300 -0.00300
H 	H 	0.45750 0.37920 0.27060 0.09100
H 	H 	0.87680 0.87000 0.72480 -0.03700
H 	H 	0.98560 0.83650 0.84910 0.16200
H 	H 	0.24400 0.91560 0.81810 0.01400
H 	H 	0.40050 0.01900 0.65990 0.00300
H 	H 	0.52010 0.22070 0.17580 0.07800
H 	H 	0.72230 0.33950 0.04860 -0.01300
H 	H 	0.92580 0.39300 0.21640 0.01300
H 	H 	0.72810 0.27060 0.35020 0.09400
H 	H 	0.39840 0.27520 0.59480 0.00700
H 	H 	0.16530 0.15090 0.68560 0.04600
H 	H 	0.93790 0.18190 0.73370 0.06600
H 	H 	0.93960 0.34010 0.67890 0.11900
H 	H 	0.30410 0.82420 0.39650 0.07500
H 	H 	0.22910 0.95140 0.38810 0.00900
H 	H 	0.85780 0.78360 0.60940 -0.00200
H 	H 	0.92170 0.64980 0.62080 0.07900
H 	H 	0.99320 0.59480 0.13000 -0.00200
H 	H 	0.85090 0.68560 0.16350 0.11100
H 	H 	0.67160 0.73370 0.08440 -0.03500
H 	H 	0.61850 0.67890 0.98100 0.16500
H 	H 	0.70060 0.39650 0.77930 0.09200
H 	H 	0.61720 0.38810 0.66050 -0.01000
H 	H 	0.46720 0.60940 0.60700 -0.00400
H 	H 	0.54250 0.62080 0.72940 0.09400
H 	H 	0.12320 0.13000 0.27520 0.06300
H 	H 	0.01440 0.16350 0.15090 -0.05100
H 	H 	0.75600 0.08440 0.18190 0.03500
H 	H 	0.59950 0.98100 0.34010 0.12600
H 	H 	0.47990 0.77930 0.82420 0.09100
H 	H 	0.27770 0.66050 0.95140 -0.00100
H 	H 	0.07420 0.60700 0.78360 -0.01400
H 	H 	0.27190 0.72940 0.64980 0.09100
C 	C 	0.69366 0.71132 0.38794 0.09100
C 	C 	0.83360 0.78620 0.33280 -0.17300
C 	C 	0.96950 0.76770 0.30560 0.12500
C 	C 	0.96840 0.67430 0.33640 -0.07000
C 	C 	0.82585 0.60164 0.39139 0.04000
C 	C 	0.80736 0.49895 0.43147 0.08900
C 	C 	0.82414 0.36252 0.47660 0.06600
C 	C 	0.87735 0.27915 0.48800 0.14300
C 	C 	0.78729 0.18596 0.55879 -0.17800
C 	C 	0.83224 0.11003 0.56281 0.11400
C 	C 	0.05022 0.20814 0.43358 0.06400
C 	C 	0.01212 0.28924 0.42618 -0.21900
C 	C 	0.08160 0.38794 0.90074 0.01700
C 	C 	0.16640 0.33280 0.88100 -0.03500
C 	C 	0.27510 0.30560 0.92670 -0.09300
C 	C 	0.30480 0.33640 0.98930 0.09800
C 	C 	0.21724 0.39139 0.00697 -0.08400
C 	C 	0.23883 0.43147 0.06958 0.10700
C 	C 	0.30074 0.47660 0.16088 0.07300
C 	C 	0.36535 0.48800 0.23285 0.06500
C 	C 	0.34608 0.55879 0.25525 -0.14500
C 	C 	0.39505 0.56281 0.32716 0.08400
C 	C 	0.48380 0.43358 0.35828 0.08300
C 	C 	0.43830 0.42618 0.28458 -0.14300
C 	C 	0.98234 0.90074 0.71132 0.21200
C 	C 	0.04740 0.88100 0.78620 -0.28000
C 	C 	0.20180 0.92670 0.76770 0.06000
C 	C 	0.29410 0.98930 0.67430 0.01900
C 	C 	0.22421 0.00697 0.60164 -0.05700
C 	C 	0.30841 0.06958 0.49895 0.09900
C 	C 	0.46162 0.16088 0.36252 0.07600
C 	C 	0.59820 0.23285 0.27915 0.06700
C 	C 	0.60133 0.25525 0.18596 -0.14300
C 	C 	0.72221 0.32716 0.11003 0.08700
C 	C 	0.84208 0.35828 0.20814 0.08500
C 	C 	0.72288 0.28458 0.28924 -0.13800
C 	C 	0.30634 0.28868 0.61206 0.04600
C 	C 	0.16640 0.21380 0.66720 -0.08500
C 	C 	0.03050 0.23230 0.69440 -0.03400
C 	C 	0.03160 0.32570 0.66360 -0.16100
C 	C 	0.17415 0.39836 0.60861 0.06000
C 	C 	0.19264 0.50105 0.56853 0.06700
C 	C 	0.17586 0.63748 0.52340 0.09200
C 	C 	0.12265 0.72085 0.51200 0.00300
C 	C 	0.21271 0.81404 0.44121 -0.11300
C 	C 	0.16776 0.88997 0.43719 0.06400
C 	C 	0.94978 0.79186 0.56642 0.10000
C 	C 	0.98788 0.71076 0.57382 -0.07300
C 	C 	0.91840 0.61206 0.09926 0.11600
C 	C 	0.83360 0.66720 0.11900 -0.21300
C 	C 	0.72490 0.69440 0.07330 0.17400
C 	C 	0.69520 0.66360 0.01070 -0.30700
C 	C 	0.78276 0.60861 0.99303 0.17000
C 	C 	0.76117 0.56853 0.93042 0.05400
C 	C 	0.69926 0.52340 0.83912 0.08600
C 	C 	0.63465 0.51200 0.76715 0.07500
C 	C 	0.65392 0.44121 0.74475 -0.14600
C 	C 	0.60495 0.43719 0.67284 0.09200
C 	C 	0.51620 0.56642 0.64172 0.08700
C 	C 	0.56170 0.57382 0.71542 -0.14500
C 	C 	0.01766 0.09926 0.28868 -0.14400
C 	C 	0.95260 0.11900 0.21380 0.11900
C 	C 	0.79820 0.07330 0.23230 -0.03500
C 	C 	0.70590 0.01070 0.32570 -0.19500
C 	C 	0.77579 0.99303 0.39836 0.12700
C 	C 	0.69159 0.93042 0.50105 0.06700
C 	C 	0.53838 0.83912 0.63748 0.08300
C 	C 	0.40180 0.76715 0.72085 0.07300
C 	C 	0.39867 0.74475 0.81404 -0.14600
C 	C 	0.27779 0.67284 0.88997 0.08900
C 	C 	0.15792 0.64172 0.79186 0.08500
C 	C 	0.27712 0.71542 0.71076 -0.14800
N 	N 	0.68933 0.61870 0.41721 -0.24600
N 	N 	0.66586 0.44003 0.48985 -0.22300
N 	N 	0.67445 0.34863 0.52178 -0.09700
N 	N 	0.91350 0.45528 0.41948 -0.11200
N 	N 	0.96022 0.11853 0.49997 -0.22900
N 	N 	0.10654 0.41721 0.96409 -0.19600
N 	N 	0.15571 0.48985 0.07012 -0.24100
N 	N 	0.19623 0.52178 0.12959 -0.11200
N 	N 	0.33298 0.41948 0.12524 -0.13700
N 	N 	0.46019 0.49997 0.38150 -0.25200
N 	N 	0.07063 0.96409 0.61870 -0.24200
N 	N 	0.22583 0.07012 0.44003 -0.23600
N 	N 	0.32582 0.12959 0.34863 -0.10700
N 	N 	0.45822 0.12524 0.45528 -0.13400
N 	N 	0.84169 0.38150 0.11853 -0.24300
N 	N 	0.31067 0.38130 0.58279 -0.24100
N 	N 	0.33414 0.55997 0.51015 -0.22100
N 	N 	0.32555 0.65137 0.47822 -0.10200
N 	N 	0.08650 0.54472 0.58052 -0.14000
N 	N 	0.03978 0.88147 0.50003 -0.26000
N 	N 	0.89346 0.58279 0.03591 -0.27300
N 	N 	0.84429 0.51015 0.92988 -0.19600
N 	N 	0.80377 0.47822 0.87041 -0.08800
N 	N 	0.66702 0.58052 0.87476 -0.11800
N 	N 	0.53981 0.50003 0.61850 -0.25300
N 	N 	0.92937 0.03591 0.38130 -0.20900
N 	N 	0.77417 0.92988 0.55997 -0.20100
N 	N 	0.67418 0.87041 0.65137 -0.09300
N 	N 	0.54178 0.87476 0.54472 -0.12100
N 	N 	0.15831 0.61850 0.88147 -0.25000
