data_crystal

_cell_length_a 8.93710
_cell_length_b 16.21550
_cell_length_c 16.21550
_cell_angle_alpha 63.29650
_cell_angle_beta  79.41380
_cell_angle_gamma 100.58600

_symmetry_space_group_name_	'P 1'
_symmetry_space_group_name_H-M	'P 1'

loop_
_symmetry_equiv_pos_as_xyz
  x,y,z

loop_
_atom_site_label
_atom_site_type_symbol
_atom_site_fract_x
_atom_site_fract_y
_atom_site_fract_z
_atom_site_charge
Fe	Fe	0.50000 -0.00000 0.50000 1.15900
Fe	Fe	-0.00000 0.50000 0.50000 1.15500
Fe	Fe	0.50000 0.50000 -0.00000 1.15700
H 	H 	0.09870 0.98050 0.33650 0.13700
H 	H 	0.25780 0.08790 0.17540 -0.03500
H 	H 	0.52600 0.16450 0.14580 0.08500
H 	H 	0.62970 0.13130 0.27400 -0.00800
H 	H 	0.76370 0.72740 0.64830 0.10200
H 	H 	0.57080 0.60310 0.78230 -0.00400
H 	H 	0.77050 0.66460 0.95270 0.00600
H 	H 	0.97500 0.78640 0.82310 0.10500
H 	H 	0.43520 0.33650 0.68300 0.06800
H 	H 	0.43320 0.17540 0.73670 0.01200
H 	H 	0.67180 0.14580 0.68970 0.06600
H 	H 	0.90370 0.27400 0.59470 0.01700
H 	H 	0.41200 0.64830 0.62430 0.08600
H 	H 	0.35310 0.78230 0.61460 -0.00000
H 	H 	0.72320 0.95270 0.38270 0.01100
H 	H 	0.79810 0.82310 0.39050 0.08400
H 	H 	0.11820 0.68300 0.98050 0.14600
H 	H 	0.16990 0.73670 0.08790 -0.03500
H 	H 	0.36150 0.68970 0.16450 0.09400
H 	H 	0.49840 0.59470 0.13130 -0.01100
H 	H 	0.03630 0.62430 0.72740 0.05500
H 	H 	0.96770 0.61460 0.60310 0.06300
H 	H 	0.10590 0.38270 0.66460 -0.00600
H 	H 	0.18860 0.39050 0.78640 0.06600
H 	H 	0.90130 0.01950 0.66350 -0.00100
H 	H 	0.74220 0.91210 0.82460 0.06800
H 	H 	0.47400 0.83550 0.85420 0.05500
H 	H 	0.37030 0.86870 0.72600 0.01600
H 	H 	0.23630 0.27260 0.35170 0.06800
H 	H 	0.42920 0.39690 0.21770 0.00600
H 	H 	0.22950 0.33540 0.04730 -0.01200
H 	H 	0.02500 0.21360 0.17690 0.04600
H 	H 	0.56480 0.66350 0.31700 0.07000
H 	H 	0.56680 0.82460 0.26330 0.02000
H 	H 	0.32820 0.85420 0.31030 0.07500
H 	H 	0.09630 0.72600 0.40530 -0.00900
H 	H 	0.58800 0.35170 0.37570 0.08400
H 	H 	0.64690 0.21770 0.38540 0.00200
H 	H 	0.27680 0.04730 0.61730 -0.01700
H 	H 	0.20190 0.17690 0.60950 0.06600
H 	H 	0.88180 0.31700 0.01950 -0.00800
H 	H 	0.83010 0.26330 0.91210 0.06800
H 	H 	0.63850 0.31030 0.83550 0.04700
H 	H 	0.50160 0.40530 0.86870 0.02000
H 	H 	0.96370 0.37570 0.27260 0.11500
H 	H 	0.03230 0.38540 0.39690 -0.06100
H 	H 	0.89410 0.61730 0.33540 -0.00000
H 	H 	0.81140 0.60950 0.21360 0.08400
C 	C 	0.18990 0.93270 0.49780 0.04400
C 	C 	0.03310 0.84160 0.63650 0.03800
C 	C 	0.27430 0.99460 0.39620 0.16000
C 	C 	0.20840 0.01200 0.32240 -0.28200
C 	C 	0.30160 0.07540 0.22740 0.13400
C 	C 	0.45930 0.12000 0.21020 -0.18700
C 	C 	0.52060 0.09990 0.28700 0.09700
C 	C 	0.89680 0.77040 0.71920 0.12100
C 	C 	0.76990 0.71410 0.71060 -0.15900
C 	C 	0.65500 0.64050 0.79090 0.10000
C 	C 	0.77160 0.67560 0.88990 0.09800
C 	C 	0.89280 0.74920 0.81290 -0.15300
C 	C 	0.68770 0.49780 0.56950 0.07900
C 	C 	0.66960 0.63650 0.52190 0.08800
C 	C 	0.67050 0.39620 0.60920 0.04800
C 	C 	0.53080 0.32240 0.66560 -0.10100
C 	C 	0.52900 0.22740 0.69720 0.03200
C 	C 	0.66950 0.21020 0.66980 -0.11100
C 	C 	0.80760 0.28700 0.61310 0.06500
C 	C 	0.61600 0.71920 0.51040 0.05700
C 	C 	0.48050 0.71060 0.57530 -0.13000
C 	C 	0.44590 0.79090 0.56860 0.08000
C 	C 	0.66150 0.88990 0.43450 0.07800
C 	C 	0.70570 0.81290 0.43790 -0.12200
C 	C 	0.25720 0.56950 0.93270 0.04000
C 	C 	0.19150 0.52190 0.84160 0.09600
C 	C 	0.27970 0.60920 0.99460 0.16900
C 	C 	0.19640 0.66560 0.01200 -0.29800
C 	C 	0.22620 0.69720 0.07540 0.14300
C 	C 	0.33930 0.66980 0.12000 -0.19700
C 	C 	0.42070 0.61310 0.09990 0.10100
C 	C 	0.12640 0.51040 0.77040 0.02200
C 	C 	0.05580 0.57530 0.71410 -0.07400
C 	C 	0.01450 0.56860 0.64050 -0.02000
C 	C 	0.09600 0.43450 0.67560 0.05700
C 	C 	0.14360 0.43790 0.74920 -0.10700
C 	C 	0.81010 0.06730 0.50220 0.11000
C 	C 	0.96690 0.15840 0.36350 0.13600
C 	C 	0.72570 0.00540 0.60380 -0.06900
C 	C 	0.79160 0.98800 0.67760 0.08100
C 	C 	0.69840 0.92460 0.77260 -0.07000
C 	C 	0.54070 0.88000 0.78980 -0.04400
C 	C 	0.47940 0.90010 0.71300 0.03300
C 	C 	0.10320 0.22960 0.28080 -0.01200
C 	C 	0.23010 0.28590 0.28940 -0.09900
C 	C 	0.34500 0.35950 0.20910 0.05800
C 	C 	0.22840 0.32440 0.11010 0.04900
C 	C 	0.10720 0.25080 0.18710 -0.09400
C 	C 	0.31230 0.50220 0.43050 0.07500
C 	C 	0.33040 0.36350 0.47810 0.08800
C 	C 	0.32950 0.60380 0.39080 0.04400
C 	C 	0.46920 0.67760 0.33440 -0.10400
C 	C 	0.47100 0.77260 0.30280 0.03400
C 	C 	0.33050 0.78980 0.33020 -0.12100
C 	C 	0.19240 0.71300 0.38690 0.06500
C 	C 	0.38400 0.28080 0.48960 0.05100
C 	C 	0.51950 0.28940 0.42470 -0.12700
C 	C 	0.55410 0.20910 0.43140 0.07700
C 	C 	0.33850 0.11010 0.56550 0.06900
C 	C 	0.29430 0.18710 0.56210 -0.12400
C 	C 	0.74280 0.43050 0.06730 0.11300
C 	C 	0.80850 0.47810 0.15840 0.07900
C 	C 	0.72030 0.39080 0.00540 -0.07800
C 	C 	0.80360 0.33440 0.98800 0.09500
C 	C 	0.77380 0.30280 0.92460 -0.07700
C 	C 	0.66070 0.33020 0.88000 -0.03400
C 	C 	0.57930 0.38690 0.90010 0.02800
C 	C 	0.87360 0.48960 0.22960 0.08500
C 	C 	0.94420 0.42470 0.28590 -0.18200
C 	C 	0.98550 0.43140 0.35950 0.17700
C 	C 	0.90400 0.56550 0.32440 0.09000
C 	C 	0.85640 0.56210 0.25080 -0.13900
N 	N 	0.27310 0.93280 0.55850 -0.20900
N 	N 	0.16970 0.87360 0.64990 -0.09600
N 	N 	0.03690 0.87650 0.54360 -0.12300
N 	N 	0.43160 0.03720 0.38030 -0.28200
N 	N 	0.65260 0.61710 0.88240 -0.25100
N 	N 	0.83160 0.55850 0.50870 -0.21400
N 	N 	0.81960 0.64990 0.47650 -0.09400
N 	N 	0.58050 0.54360 0.57990 -0.12700
N 	N 	0.81190 0.38030 0.58250 -0.23200
N 	N 	0.53500 0.88240 0.50050 -0.24600
N 	N 	0.34030 0.50870 0.93280 -0.20800
N 	N 	0.29610 0.47650 0.87360 -0.10100
N 	N 	0.16040 0.57990 0.87650 -0.12600
N 	N 	0.39440 0.58250 0.03720 -0.28600
N 	N 	0.03550 0.50050 0.61710 -0.24200
N 	N 	0.72690 0.06720 0.44150 -0.23400
N 	N 	0.83030 0.12640 0.35010 -0.10600
N 	N 	0.96310 0.12350 0.45640 -0.13200
N 	N 	0.56840 0.96280 0.61970 -0.19800
N 	N 	0.34740 0.38290 0.11760 -0.25100
N 	N 	0.16840 0.44150 0.49130 -0.22800
N 	N 	0.18040 0.35010 0.52350 -0.10800
N 	N 	0.41950 0.45640 0.42010 -0.12800
N 	N 	0.18810 0.61970 0.41750 -0.24800
N 	N 	0.46500 0.11760 0.49950 -0.25700
N 	N 	0.65970 0.49130 0.06720 -0.23500
N 	N 	0.70390 0.52350 0.12640 -0.10200
N 	N 	0.83960 0.42010 0.12350 -0.12900
N 	N 	0.60560 0.41750 0.96280 -0.19400
N 	N 	0.96450 0.49950 0.38290 -0.25900
