data_crystal

_cell_length_a 12.39820
_cell_length_b 18.89290
_cell_length_c 18.89290
_cell_angle_alpha 64.64500
_cell_angle_beta  77.36460
_cell_angle_gamma 102.63500

_symmetry_space_group_name_	'P 1'
_symmetry_space_group_name_H-M	'P 1'

loop_
_symmetry_equiv_pos_as_xyz
  x,y,z

loop_
_atom_site_label
_atom_site_type_symbol
_atom_site_fract_x
_atom_site_fract_y
_atom_site_fract_z
_atom_site_charge
Fe	Fe	0.00000 0.00000 0.50000 1.12300
Fe	Fe	0.50000 0.50000 0.50000 1.17300
Fe	Fe	-0.00000 0.50000 -0.00000 1.11500
H 	H 	0.32100 0.07240 0.25010 0.08800
H 	H 	0.40330 0.97360 0.31150 -0.01000
H 	H 	0.31930 0.88080 0.45480 0.09400
H 	H 	0.16110 0.89050 0.53290 -0.01400
H 	H 	0.19690 0.29510 0.10290 0.06700
H 	H 	0.17100 0.40850 0.00900 -0.01800
H 	H 	0.87780 0.36500 0.17640 -0.01200
H 	H 	0.89920 0.25140 0.27430 0.06700
H 	H 	0.57110 0.25010 0.67750 0.07600
H 	H 	0.71480 0.31150 0.71490 0.02200
H 	H 	0.77410 0.45480 0.66440 0.08800
H 	H 	0.69400 0.53290 0.57660 0.00200
H 	H 	0.29980 0.10290 0.60200 0.08200
H 	H 	0.18000 0.00900 0.58250 -0.02600
H 	H 	0.05420 0.17640 0.45860 -0.02500
H 	H 	0.17350 0.27430 0.47430 0.07900
H 	H 	0.24860 0.67750 0.07240 0.10400
H 	H 	0.42970 0.71490 0.97360 -0.01800
H 	H 	0.43850 0.66440 0.88080 0.10900
H 	H 	0.27060 0.57660 0.89050 -0.01200
H 	H 	0.90180 0.60200 0.29510 0.09900
H 	H 	0.76250 0.58250 0.40850 -0.00400
H 	H 	0.51280 0.45860 0.36500 -0.00900
H 	H 	0.64780 0.47430 0.25140 0.08400
H 	H 	0.67900 0.92760 0.74990 0.06400
H 	H 	0.59670 0.02640 0.68850 0.03600
H 	H 	0.68070 0.11920 0.54520 0.06200
H 	H 	0.83890 0.10950 0.46710 0.01500
H 	H 	0.80310 0.70490 0.89710 0.10700
H 	H 	0.82900 0.59150 0.99100 0.00400
H 	H 	0.12220 0.63500 0.82360 -0.00100
H 	H 	0.10080 0.74860 0.72570 0.10300
H 	H 	0.42890 0.74990 0.32250 0.07500
H 	H 	0.28520 0.68850 0.28510 0.00500
H 	H 	0.22590 0.54520 0.33560 0.06800
H 	H 	0.30600 0.46710 0.42340 -0.00400
H 	H 	0.70020 0.89710 0.39800 0.09300
H 	H 	0.82000 0.99100 0.41750 0.01100
H 	H 	0.94580 0.82360 0.54140 0.01100
H 	H 	0.82650 0.72570 0.52570 0.09100
H 	H 	0.75140 0.32250 0.92760 0.05000
H 	H 	0.57030 0.28510 0.02640 0.04200
H 	H 	0.56150 0.33560 0.11920 0.04900
H 	H 	0.72940 0.42340 0.10950 0.01200
H 	H 	0.09820 0.39800 0.70490 0.07700
H 	H 	0.23750 0.41750 0.59150 -0.01300
H 	H 	0.48720 0.54140 0.63500 -0.00600
H 	H 	0.35220 0.52570 0.74860 0.08800
C 	C 	0.13049 0.09511 0.32804 0.05700
C 	C 	0.06792 0.18833 0.26427 0.04500
C 	C 	0.19184 0.03805 0.35723 0.03900
C 	C 	0.28897 0.03500 0.30759 -0.19500
C 	C 	0.33781 0.97632 0.34389 0.13300
C 	C 	0.28825 0.92137 0.42922 -0.18100
C 	C 	0.19306 0.92760 0.47532 0.10100
C 	C 	0.05363 0.26053 0.19994 -0.01000
C 	C 	0.13168 0.30868 0.11954 -0.11900
C 	C 	0.11530 0.37655 0.06315 0.05400
C 	C 	0.94336 0.35116 0.16148 0.11600
C 	C 	0.95567 0.28300 0.22049 -0.05900
C 	C 	0.45853 0.32804 0.57685 0.07100
C 	C 	0.33219 0.26427 0.54740 0.07900
C 	C 	0.54907 0.35723 0.60472 0.05100
C 	C 	0.59656 0.30759 0.65741 -0.11300
C 	C 	0.68170 0.34389 0.67979 0.05100
C 	C 	0.71747 0.42922 0.64941 -0.13100
C 	C 	0.66838 0.47532 0.59708 0.07800
C 	C 	0.25357 0.19994 0.53953 0.06500
C 	C 	0.25122 0.11954 0.57178 -0.14900
C 	C 	0.17845 0.06315 0.56030 0.08100
C 	C 	0.10484 0.16148 0.48736 0.07900
C 	C 	0.17616 0.22049 0.49651 -0.14600
C 	C 	0.03538 0.57685 0.09511 -0.04300
C 	C 	0.87959 0.54740 0.18833 0.08900
C 	C 	0.15379 0.60472 0.03805 0.07100
C 	C 	0.25397 0.65741 0.03500 -0.24300
C 	C 	0.36149 0.67979 0.97632 0.18300
C 	C 	0.36688 0.64941 0.92137 -0.20500
C 	C 	0.26546 0.59708 0.92760 0.12500
C 	C 	0.79310 0.53953 0.26053 0.07200
C 	C 	0.82300 0.57178 0.30868 -0.14400
C 	C 	0.73875 0.56030 0.37655 0.09300
C 	C 	0.59220 0.48736 0.35116 0.08500
C 	C 	0.67267 0.49651 0.28300 -0.14000
C 	C 	0.86951 0.90489 0.67196 0.08700
C 	C 	0.93208 0.81167 0.73573 0.11700
C 	C 	0.80816 0.96195 0.64277 0.06200
C 	C 	0.71103 0.96500 0.69241 -0.03900
C 	C 	0.66219 0.02368 0.65611 -0.03500
C 	C 	0.71175 0.07863 0.57078 -0.08900
C 	C 	0.80694 0.07240 0.52468 0.05000
C 	C 	0.94637 0.73947 0.80006 0.14000
C 	C 	0.86832 0.69132 0.88046 -0.16500
C 	C 	0.88470 0.62345 0.93685 0.12000
C 	C 	0.05664 0.64884 0.83852 0.05600
C 	C 	0.04433 0.71700 0.77951 -0.21100
C 	C 	0.54147 0.67196 0.42315 0.07200
C 	C 	0.66781 0.73573 0.45260 0.08600
C 	C 	0.45093 0.64277 0.39528 0.05000
C 	C 	0.40344 0.69241 0.34259 -0.11800
C 	C 	0.31830 0.65611 0.32021 0.04500
C 	C 	0.28253 0.57078 0.35059 -0.13700
C 	C 	0.33162 0.52468 0.40292 0.07200
C 	C 	0.74643 0.80006 0.46047 0.07100
C 	C 	0.74878 0.88046 0.42822 -0.13800
C 	C 	0.82155 0.93685 0.43970 0.09600
C 	C 	0.89516 0.83852 0.51264 0.08700
C 	C 	0.82384 0.77951 0.50349 -0.13200
C 	C 	0.96462 0.42315 0.90489 0.18000
C 	C 	0.12041 0.45260 0.81167 0.07600
C 	C 	0.84621 0.39528 0.96195 0.03300
C 	C 	0.74603 0.34259 0.96500 0.00400
C 	C 	0.63851 0.32021 0.02368 -0.07700
C 	C 	0.63312 0.35059 0.07863 -0.06700
C 	C 	0.73454 0.40292 0.07240 0.02900
C 	C 	0.20690 0.46047 0.73947 0.06600
C 	C 	0.17700 0.42822 0.69132 -0.14500
C 	C 	0.26125 0.43970 0.62345 0.08500
C 	C 	0.40780 0.51264 0.64884 0.08300
C 	C 	0.32733 0.50349 0.71700 -0.13900
N 	N 	0.03636 0.08737 0.38489 -0.25300
N 	N 	0.99393 0.14699 0.34440 -0.04700
N 	N 	0.15445 0.15856 0.25001 -0.12900
N 	N 	0.14222 0.98507 0.44183 -0.23300
N 	N 	0.02218 0.39977 0.08193 -0.29200
N 	N 	0.42125 0.38489 0.52774 -0.22000
N 	N 	0.33833 0.34440 0.50861 -0.10000
N 	N 	0.40446 0.25001 0.59143 -0.12800
N 	N 	0.58405 0.44183 0.57310 -0.24500
N 	N 	0.10411 0.08193 0.51830 -0.26800
N 	N 	0.94899 0.52774 0.08737 -0.17300
N 	N 	0.84694 0.50861 0.14699 -0.10000
N 	N 	0.99589 0.59143 0.15856 -0.07800
N 	N 	0.15715 0.57310 0.98507 -0.23300
N 	N 	0.62241 0.51830 0.39977 -0.25600
N 	N 	0.96364 0.91263 0.61511 -0.17500
N 	N 	0.00607 0.85301 0.65560 -0.14400
N 	N 	0.84555 0.84144 0.74999 -0.12400
N 	N 	0.85778 0.01493 0.55817 -0.24300
N 	N 	0.97782 0.60023 0.91807 -0.21000
N 	N 	0.57875 0.61511 0.47226 -0.21900
N 	N 	0.66167 0.65560 0.49139 -0.09600
N 	N 	0.59554 0.74999 0.40857 -0.12500
N 	N 	0.41595 0.55817 0.42690 -0.24500
N 	N 	0.89589 0.91807 0.48170 -0.23200
N 	N 	0.05101 0.47226 0.91263 -0.24700
N 	N 	0.15306 0.49139 0.85301 -0.09500
N 	N 	0.00411 0.40857 0.84144 -0.17100
N 	N 	0.84285 0.42690 0.01493 -0.24100
N 	N 	0.37759 0.48170 0.60023 -0.25600
