data_crystal

_cell_length_a 11.89980
_cell_length_b 18.97920
_cell_length_c 18.97920
_cell_angle_alpha 64.24780
_cell_angle_beta  77.93640
_cell_angle_gamma 102.06400

_symmetry_space_group_name_	'P 1'
_symmetry_space_group_name_H-M	'P 1'

loop_
_symmetry_equiv_pos_as_xyz
  x,y,z

loop_
_atom_site_label
_atom_site_type_symbol
_atom_site_fract_x
_atom_site_fract_y
_atom_site_fract_z
_atom_site_charge
Fe	Fe	0.50000 0.00000 0.50000 1.15000
Fe	Fe	0.00000 0.50000 0.50000 1.14800
Fe	Fe	0.50000 0.50000 -0.00000 1.14500
H 	H 	0.23800 0.06410 0.68410 0.08500
H 	H 	0.05040 0.96250 0.72230 -0.00700
H 	H 	0.04660 0.87470 0.66450 0.07800
H 	H 	0.22140 0.88930 0.57350 -0.00500
H 	H 	0.85440 0.25330 0.47220 0.08000
H 	H 	0.99300 0.36770 0.45610 0.01600
H 	H 	0.73080 0.40900 0.58320 -0.00100
H 	H 	0.58520 0.29470 0.60210 0.07600
H 	H 	0.92210 0.68410 0.25180 0.08900
H 	H 	0.77270 0.72230 0.31520 0.01600
H 	H 	0.71110 0.66450 0.46080 0.07700
H 	H 	0.79490 0.57350 0.53720 0.00400
H 	H 	0.32660 0.47220 0.27450 0.07300
H 	H 	0.44910 0.45610 0.17620 -0.00100
H 	H 	0.31400 0.58320 0.00780 -0.02100
H 	H 	0.18730 0.60210 0.10320 0.06400
H 	H 	0.17390 0.25180 0.06410 0.07700
H 	H 	0.08790 0.31520 0.96250 -0.01400
H 	H 	0.17190 0.46080 0.87470 0.08200
H 	H 	0.33210 0.53720 0.88930 -0.00400
H 	H 	0.60110 0.27450 0.25330 0.07500
H 	H 	0.62530 0.17620 0.36770 0.00000
H 	H 	0.32180 0.00780 0.40900 -0.02100
H 	H 	0.29050 0.10320 0.29470 0.06300
H 	H 	0.76200 0.93590 0.31590 0.05300
H 	H 	0.94960 0.03750 0.27770 0.04600
H 	H 	0.95340 0.12530 0.33550 0.06200
H 	H 	0.77860 0.11070 0.42650 0.01000
H 	H 	0.14560 0.74670 0.52780 0.07400
H 	H 	0.00700 0.63230 0.54390 -0.01700
H 	H 	0.26920 0.59100 0.41680 -0.00300
H 	H 	0.41480 0.70530 0.39790 0.07800
H 	H 	0.07790 0.31590 0.74820 0.04900
H 	H 	0.22730 0.27770 0.68480 0.02400
H 	H 	0.28890 0.33550 0.53920 0.06200
H 	H 	0.20510 0.42650 0.46280 0.00100
H 	H 	0.67340 0.52780 0.72550 0.08000
H 	H 	0.55090 0.54390 0.82380 0.00000
H 	H 	0.68600 0.41680 0.99220 0.01700
H 	H 	0.81270 0.39790 0.89680 0.09000
H 	H 	0.82610 0.74820 0.93590 0.06100
H 	H 	0.91210 0.68480 0.03750 0.05300
H 	H 	0.82810 0.53920 0.12530 0.05700
H 	H 	0.66790 0.46280 0.11070 0.00900
H 	H 	0.39890 0.72550 0.74670 0.07800
H 	H 	0.37470 0.82380 0.63230 -0.00100
H 	H 	0.67820 0.99220 0.59100 0.01600
H 	H 	0.70950 0.89680 0.70530 0.09100
C 	C 	0.45770 0.09290 0.57880 0.07100
C 	C 	0.61639 0.18784 0.54807 0.08500
C 	C 	0.33503 0.03308 0.60769 0.03400
C 	C 	0.23291 0.02752 0.66219 -0.18200
C 	C 	0.12271 0.96806 0.68463 0.12000
C 	C 	0.12105 0.91636 0.65021 -0.15800
C 	C 	0.22550 0.92525 0.59625 0.09700
C 	C 	0.70391 0.25998 0.53915 0.05000
C 	C 	0.82688 0.28443 0.49559 -0.11500
C 	C 	0.90917 0.35281 0.48600 0.07200
C 	C 	0.75606 0.37694 0.56026 0.07300
C 	C 	0.66858 0.30869 0.57205 -0.11600
C 	C 	0.03650 0.57880 0.32830 0.02500
C 	C 	0.16446 0.54807 0.26409 0.08200
C 	C 	0.94272 0.60769 0.35923 0.10200
C 	C 	0.89510 0.66219 0.31029 -0.12800
C 	C 	0.80734 0.68463 0.34731 0.05500
C 	C 	0.77126 0.65021 0.43343 -0.12700
C 	C 	0.82175 0.59625 0.47850 0.08100
C 	C 	0.24306 0.53915 0.20087 0.04300
C 	C 	0.32247 0.49559 0.21998 -0.11900
C 	C 	0.39517 0.48600 0.16119 0.06300
C 	C 	0.31632 0.56026 0.06280 0.06400
C 	C 	0.24063 0.57205 0.11926 -0.12100
C 	C 	0.36480 0.32830 0.09290 0.06700
C 	C 	0.42855 0.26409 0.18784 0.08000
C 	C 	0.30195 0.35923 0.03308 0.02800
C 	C 	0.20539 0.31029 0.02752 -0.19300
C 	C 	0.15465 0.34731 0.96806 0.12900
C 	C 	0.20469 0.43343 0.91636 -0.16300
C 	C 	0.30025 0.47850 0.92525 0.10000
C 	C 	0.44393 0.20087 0.25998 0.04400
C 	C 	0.54245 0.21998 0.28443 -0.11900
C 	C 	0.55636 0.16119 0.35281 0.06400
C 	C 	0.37912 0.06280 0.37694 0.06400
C 	C 	0.35989 0.11926 0.30869 -0.12200
C 	C 	0.54230 0.90710 0.42120 0.08500
C 	C 	0.38361 0.81216 0.45193 0.08700
C 	C 	0.66497 0.96692 0.39231 0.05600
C 	C 	0.76709 0.97248 0.33781 -0.01800
C 	C 	0.87729 0.03194 0.31537 -0.05900
C 	C 	0.87895 0.08364 0.34979 -0.07400
C 	C 	0.77450 0.07475 0.40375 0.03900
C 	C 	0.29609 0.74002 0.46085 0.05100
C 	C 	0.17312 0.71557 0.50441 -0.12200
C 	C 	0.09083 0.64719 0.51400 0.06500
C 	C 	0.24394 0.62306 0.43974 0.07100
C 	C 	0.33142 0.69131 0.42795 -0.12000
C 	C 	0.96350 0.42120 0.67170 0.13200
C 	C 	0.83554 0.45193 0.73591 0.09100
C 	C 	0.05728 0.39231 0.64077 -0.01300
C 	C 	0.10490 0.33781 0.68971 -0.07200
C 	C 	0.19266 0.31537 0.65269 0.00600
C 	C 	0.22874 0.34979 0.56657 -0.10500
C 	C 	0.17825 0.40375 0.52150 0.05500
C 	C 	0.75694 0.46085 0.79913 0.05800
C 	C 	0.67753 0.50441 0.78002 -0.11800
C 	C 	0.60483 0.51400 0.83881 0.07300
C 	C 	0.68368 0.43974 0.93720 0.08000
C 	C 	0.75937 0.42795 0.88074 -0.11500
C 	C 	0.63520 0.67170 0.90710 0.09000
C 	C 	0.57145 0.73591 0.81216 0.09200
C 	C 	0.69805 0.64077 0.96692 0.06100
C 	C 	0.79461 0.68971 0.97248 -0.00700
C 	C 	0.84535 0.65269 0.03194 -0.06800
C 	C 	0.79531 0.56657 0.08364 -0.06800
C 	C 	0.69975 0.52150 0.07475 0.03500
C 	C 	0.55607 0.79913 0.74002 0.05700
C 	C 	0.45755 0.78002 0.71557 -0.11800
C 	C 	0.44364 0.83881 0.64719 0.07200
C 	C 	0.62088 0.93720 0.62306 0.08000
C 	C 	0.64011 0.88074 0.69131 -0.11400
N 	N 	0.54759 0.08629 0.52932 -0.22600
N 	N 	0.65239 0.14805 0.50828 -0.10200
N 	N 	0.49505 0.15538 0.59313 -0.12900
N 	N 	0.33481 0.98253 0.57340 -0.21900
N 	N 	0.87598 0.40067 0.51763 -0.24000
N 	N 	0.07691 0.52932 0.38439 -0.22000
N 	N 	0.16067 0.50828 0.34367 -0.10400
N 	N 	0.08818 0.59313 0.25149 -0.13100
N 	N 	0.90821 0.57340 0.44407 -0.23700
N 	N 	0.39361 0.51763 0.08170 -0.25700
N 	N 	0.46130 0.38439 0.08629 -0.22700
N 	N 	0.50434 0.34367 0.14805 -0.10300
N 	N 	0.33967 0.25149 0.15538 -0.13600
N 	N 	0.35228 0.44407 0.98253 -0.21600
N 	N 	0.47531 0.08170 0.40067 -0.25700
N 	N 	0.45241 0.91371 0.47068 -0.20900
N 	N 	0.34761 0.85195 0.49172 -0.09700
N 	N 	0.50495 0.84462 0.40687 -0.12700
N 	N 	0.66519 0.01747 0.42660 -0.25700
N 	N 	0.12402 0.59933 0.48237 -0.25700
N 	N 	0.92309 0.47068 0.61561 -0.21400
N 	N 	0.83933 0.49172 0.65633 -0.09500
N 	N 	0.91182 0.40687 0.74851 -0.12600
N 	N 	0.09179 0.42660 0.55593 -0.23900
N 	N 	0.60639 0.48237 0.91830 -0.23900
N 	N 	0.53870 0.61561 0.91371 -0.20700
N 	N 	0.49566 0.65633 0.85195 -0.09600
N 	N 	0.66033 0.74851 0.84462 -0.12100
N 	N 	0.64772 0.55593 0.01747 -0.26000
N 	N 	0.52469 0.91830 0.59933 -0.24100
