data_crystal

_cell_length_a 13.97600
_cell_length_b 13.97600
_cell_length_c 17.53100
_cell_angle_alpha 90.00000
_cell_angle_beta  90.00000
_cell_angle_gamma 90.00000

_symmetry_space_group_name_	'P 1'
_symmetry_space_group_name_H-M	'P 1'

loop_
_symmetry_equiv_pos_as_xyz
  x,y,z

loop_
_atom_site_label
_atom_site_type_symbol
_atom_site_fract_x
_atom_site_fract_y
_atom_site_fract_z
_atom_site_charge
Pr	Pr	0.28526 0.60751 0.24980 2.06700
C 	C 	0.45900 0.72460 0.35050 0.38900
C 	C 	0.52020 0.66230 0.29890 -0.06300
C 	C 	0.61930 0.66400 0.30270 0.01100
H 	H 	0.65130 0.70110 0.33860 0.02700
C 	C 	0.66860 0.60740 0.25030 -0.08100
H 	H 	0.73520 0.60790 0.24980 0.05800
C 	C 	0.61940 0.55090 0.19930 0.01100
H 	H 	0.65160 0.51300 0.16410 0.00100
C 	C 	0.52080 0.55220 0.20210 -0.07100
C 	C 	0.45970 0.48950 0.15060 0.36600
C 	C 	0.38160 0.06660 0.40050 0.28600
C 	C 	0.44450 0.12780 0.45170 -0.07800
C 	C 	0.44370 0.22730 0.44800 -0.00600
H 	H 	0.40660 0.25900 0.41190 0.02500
C 	C 	0.05620 0.48800 0.44830 0.06100
H 	H 	0.09330 0.45530 0.41280 0.00600
C 	C 	0.05530 0.58700 0.45110 -0.09100
C 	C 	0.11740 0.64910 0.39980 0.38200
H 	H 	0.30900 0.45900 0.36900 0.24200
H 	H 	0.14500 0.41300 0.22700 0.27500
H 	H 	0.35200 0.66500 0.13700 0.26500
H 	H 	0.88500 0.80400 0.37300 0.22500
H 	H 	0.31500 0.76300 0.13400 0.34700
N 	N 	0.47120 0.60670 0.25000 -0.18000
O 	O 	0.36860 0.71810 0.34180 -0.47200
O 	O 	0.50240 0.77780 0.39600 -0.53600
O 	O 	0.37000 0.49590 0.15820 -0.47500
O 	O 	0.50410 0.43510 0.10480 -0.54100
O 	O 	0.35160 0.49350 0.35040 -0.50900
O 	O 	0.19200 0.44420 0.24090 -0.53200
O 	O 	0.32810 0.11130 0.35500 -0.50200
O 	O 	0.35260 0.72150 0.15020 -0.83700
O 	O 	0.17070 0.60450 0.35410 -0.48900
O 	O 	0.11110 0.73850 0.40750 -0.48600
O 	O 	0.88580 0.75570 0.40030 -0.49600
O 	O 	0.38880 0.97750 0.40800 -0.43900
Pr	Pr	0.78526 0.10751 0.74980 2.05200
C 	C 	0.95900 0.22460 0.85050 0.53100
C 	C 	0.02020 0.16230 0.79890 -0.22200
C 	C 	0.11930 0.16400 0.80270 0.14100
H 	H 	0.15130 0.20110 0.83860 -0.01600
C 	C 	0.16860 0.10740 0.75030 -0.22500
H 	H 	0.23520 0.10790 0.74980 0.09700
C 	C 	0.11940 0.05090 0.69930 0.17400
H 	H 	0.15160 0.01300 0.66410 -0.07400
C 	C 	0.02080 0.05220 0.70210 -0.30300
C 	C 	0.95970 0.98950 0.65060 0.59400
C 	C 	0.88160 0.56660 0.90050 0.38600
C 	C 	0.94450 0.62780 0.95170 -0.03100
C 	C 	0.94370 0.72730 0.94800 0.33200
H 	H 	0.90660 0.75900 0.91190 -0.05400
C 	C 	0.55620 0.98800 0.94830 0.44500
H 	H 	0.59330 0.95530 0.91280 -0.08300
C 	C 	0.55530 0.08700 0.95110 -0.15700
C 	C 	0.61740 0.14910 0.89980 0.42300
H 	H 	0.80900 0.95900 0.86900 0.25600
H 	H 	0.64500 0.91300 0.72700 0.28500
H 	H 	0.85200 0.16500 0.63700 0.26300
H 	H 	0.38500 0.30400 0.87300 0.21100
H 	H 	0.81500 0.26300 0.63400 0.35000
N 	N 	0.97120 0.10670 0.75000 -0.08500
O 	O 	0.86860 0.21810 0.84180 -0.49300
O 	O 	0.00240 0.27780 0.89600 -0.58300
O 	O 	0.87000 0.99590 0.65820 -0.47900
O 	O 	0.00410 0.93510 0.60480 -0.59900
O 	O 	0.85160 0.99350 0.85040 -0.44000
O 	O 	0.69200 0.94420 0.74090 -0.49400
O 	O 	0.82810 0.61130 0.85500 -0.49100
O 	O 	0.85260 0.22150 0.65020 -0.82300
O 	O 	0.67070 0.10450 0.85410 -0.51200
O 	O 	0.61110 0.23850 0.90750 -0.44800
O 	O 	0.38580 0.25570 0.90030 -0.47300
O 	O 	0.88880 0.47750 0.90800 -0.45100
Pr	Pr	0.71474 0.60751 0.75020 2.06900
C 	C 	0.54100 0.72460 0.64950 0.38700
C 	C 	0.47980 0.66230 0.70110 -0.05600
C 	C 	0.38070 0.66400 0.69730 0.00300
H 	H 	0.34870 0.70110 0.66140 0.03000
C 	C 	0.33140 0.60740 0.74970 -0.06000
H 	H 	0.26480 0.60790 0.75020 0.05100
C 	C 	0.38060 0.55090 0.80070 0.00100
H 	H 	0.34840 0.51300 0.83590 0.02800
C 	C 	0.47920 0.55220 0.79790 -0.04900
C 	C 	0.54030 0.48950 0.84940 0.36200
C 	C 	0.61840 0.06660 0.59950 0.28800
C 	C 	0.55550 0.12780 0.54830 -0.07700
C 	C 	0.55630 0.22730 0.55200 -0.00500
H 	H 	0.59340 0.25900 0.58810 0.02600
C 	C 	0.94380 0.48800 0.55170 0.12100
H 	H 	0.90670 0.45530 0.58720 0.00400
C 	C 	0.94470 0.58700 0.54890 -0.03600
C 	C 	0.88260 0.64910 0.60020 0.37900
H 	H 	0.69100 0.45900 0.63100 0.24600
H 	H 	0.85500 0.41300 0.77300 0.29300
H 	H 	0.64800 0.66500 0.86300 0.29200
H 	H 	0.11500 0.80400 0.62700 0.22700
H 	H 	0.68500 0.76300 0.86600 0.37700
N 	N 	0.52880 0.60670 0.75000 -0.18200
O 	O 	0.63140 0.71810 0.65820 -0.46800
O 	O 	0.49760 0.77780 0.60400 -0.53400
O 	O 	0.63000 0.49590 0.84180 -0.44900
O 	O 	0.49590 0.43510 0.89520 -0.47900
O 	O 	0.64840 0.49350 0.64960 -0.50900
O 	O 	0.80800 0.44420 0.75910 -0.52600
O 	O 	0.67190 0.11130 0.64500 -0.49700
O 	O 	0.64740 0.72150 0.84980 -0.84000
O 	O 	0.82930 0.60450 0.64590 -0.47700
O 	O 	0.88890 0.73850 0.59250 -0.44600
O 	O 	0.11420 0.75570 0.59970 -0.53100
O 	O 	0.61120 0.97750 0.59200 -0.43600
Pr	Pr	0.21474 0.10751 0.25020 2.04500
C 	C 	0.04100 0.22460 0.14950 0.21400
C 	C 	0.97980 0.16230 0.20110 0.08900
C 	C 	0.88070 0.16400 0.19730 -0.11000
H 	H 	0.84870 0.20110 0.16140 0.05400
C 	C 	0.83140 0.10740 0.24970 0.01500
H 	H 	0.76480 0.10790 0.25020 0.00600
C 	C 	0.88060 0.05090 0.30070 -0.08900
H 	H 	0.84840 0.01300 0.33590 0.02300
C 	C 	0.97920 0.05220 0.29790 0.02800
C 	C 	0.04030 0.98950 0.34940 0.27100
C 	C 	0.11840 0.56660 0.09950 0.39500
C 	C 	0.05550 0.62780 0.04830 -0.18700
C 	C 	0.05630 0.72730 0.05200 0.16000
H 	H 	0.09340 0.75900 0.08810 -0.04200
C 	C 	0.44380 0.98800 0.05170 0.34500
H 	H 	0.40670 0.95530 0.08720 -0.07700
C 	C 	0.44470 0.08700 0.04890 -0.26800
C 	C 	0.38260 0.14910 0.10020 0.42900
H 	H 	0.19100 0.95900 0.13100 0.24200
H 	H 	0.35500 0.91300 0.27300 0.28300
H 	H 	0.14800 0.16500 0.36300 0.25600
H 	H 	0.61500 0.30400 0.12700 0.22000
H 	H 	0.18500 0.26300 0.36600 0.34700
N 	N 	0.02880 0.10670 0.25000 -0.28000
O 	O 	0.13140 0.21810 0.15820 -0.45900
O 	O 	0.99760 0.27780 0.10400 -0.46400
O 	O 	0.13000 0.99590 0.34180 -0.41700
O 	O 	0.99590 0.93510 0.39520 -0.41800
O 	O 	0.14840 0.99350 0.14960 -0.49400
O 	O 	0.30800 0.94420 0.25910 -0.50400
O 	O 	0.17190 0.61130 0.14500 -0.51900
O 	O 	0.14740 0.22150 0.34980 -0.84400
O 	O 	0.32930 0.10450 0.14590 -0.53500
O 	O 	0.38890 0.23850 0.09250 -0.51000
O 	O 	0.61420 0.25570 0.09970 -0.55400
O 	O 	0.11120 0.47750 0.09200 -0.54500
Pr	Pr	0.50000 0.89265 0.50000 2.00100
C 	C 	0.50000 0.27880 0.50000 -0.07600
H 	H 	0.50000 0.34530 0.50000 0.06000
N 	N 	0.50000 0.07780 0.50000 -0.25100
Pr	Pr	-0.00000 0.39265 -0.00000 1.92500
C 	C 	0.00000 0.77880 -0.00000 -0.45300
H 	H 	-0.00000 0.84530 -0.00000 0.14800
N 	N 	-0.00000 0.57780 -0.00000 -0.30500
Pr	Pr	-0.00000 0.82225 0.50000 2.02300
C 	C 	-0.00000 0.43980 0.50000 -0.20800
H 	H 	0.00000 0.37330 0.50000 0.08100
N 	N 	0.00000 0.63740 0.50000 -0.21300
Pr	Pr	0.50000 0.32225 -0.00000 1.99900
C 	C 	0.50000 0.93980 -0.00000 -0.50900
H 	H 	0.50000 0.87330 -0.00000 0.17900
N 	N 	0.50000 0.13740 -0.00000 -0.19800
