data_crystal

_cell_length_a 13.93600
_cell_length_b 13.93600
_cell_length_c 17.46900
_cell_angle_alpha 90.00000
_cell_angle_beta  90.00000
_cell_angle_gamma 90.00000

_symmetry_space_group_name_	'P 1'
_symmetry_space_group_name_H-M	'P 1'

loop_
_symmetry_equiv_pos_as_xyz
  x,y,z

loop_
_atom_site_label
_atom_site_type_symbol
_atom_site_fract_x
_atom_site_fract_y
_atom_site_fract_z
_atom_site_charge
Nd	Nd	0.28547 0.67676 0.74981 1.69200
N 	N 	0.47060 0.67730 0.75030 -0.20200
O 	O 	0.36730 0.56460 0.84180 -0.47500
O 	O 	0.17260 0.67370 0.64500 -0.52800
O 	O 	0.36830 0.78830 0.65840 -0.50300
O 	O 	0.50360 0.84990 0.60520 -0.51200
O 	O 	0.11180 0.54400 0.90780 -0.44000
O 	O 	0.50250 0.50560 0.89670 -0.45800
O 	O 	0.17140 0.68020 0.85360 -0.51900
O 	O 	0.11220 0.80870 0.59180 -0.50200
C 	C 	0.05600 0.65710 0.54840 -0.12200
C 	C 	0.52030 0.73290 0.70140 -0.09900
C 	C 	0.51940 0.62150 0.79880 -0.08200
C 	C 	0.66890 0.67730 0.75070 -0.10200
H 	H 	0.73560 0.67770 0.75110 0.04700
C 	C 	0.11900 0.71860 0.59960 0.39300
C 	C 	0.61820 0.62020 0.80170 0.00700
H 	H 	0.65020 0.58200 0.83710 0.01800
C 	C 	0.45950 0.79580 0.65020 0.37200
C 	C 	0.61910 0.73330 0.69940 0.01200
H 	H 	0.65170 0.77080 0.66390 -0.00700
C 	C 	0.11820 0.63450 0.89990 0.38900
C 	C 	0.05580 0.69710 0.95100 -0.10900
C 	C 	0.05550 0.79580 0.94840 0.26300
H 	H 	0.09210 0.82860 0.91240 -0.09900
C 	C 	0.45780 0.55800 0.85040 0.37200
C 	C 	0.05640 0.55710 0.55170 0.05500
H 	H 	0.09360 0.52490 0.58760 -0.02300
Nd	Nd	0.78547 0.17676 0.24981 1.77400
N 	N 	0.97060 0.17730 0.25030 -0.13400
O 	O 	0.86730 0.06460 0.34180 -0.47800
O 	O 	0.67260 0.17370 0.14500 -0.51200
O 	O 	0.86830 0.28830 0.15840 -0.51300
O 	O 	0.00360 0.34990 0.10520 -0.56200
O 	O 	0.61180 0.04400 0.40780 -0.40200
O 	O 	0.00250 0.00560 0.39670 -0.48200
O 	O 	0.67140 0.18020 0.35360 -0.50700
O 	O 	0.61220 0.30870 0.09180 -0.47900
C 	C 	0.55600 0.15710 0.04840 -0.04900
C 	C 	0.02030 0.23290 0.20140 -0.21200
C 	C 	0.01940 0.12150 0.29880 -0.18800
C 	C 	0.16890 0.17730 0.25070 -0.18900
H 	H 	0.23560 0.17770 0.25110 0.07500
C 	C 	0.61900 0.21860 0.09960 0.36900
C 	C 	0.11820 0.12020 0.30170 0.09600
H 	H 	0.15020 0.08200 0.33710 -0.01300
C 	C 	0.95950 0.29580 0.15020 0.49000
C 	C 	0.11910 0.23330 0.19940 0.10600
H 	H 	0.15170 0.27080 0.16390 -0.04200
C 	C 	0.61820 0.13450 0.39990 0.37100
C 	C 	0.55580 0.19710 0.45100 -0.07500
C 	C 	0.55550 0.29580 0.44840 0.00800
H 	H 	0.59210 0.32860 0.41240 0.00000
C 	C 	0.95780 0.05800 0.35040 0.47600
C 	C 	0.55640 0.05710 0.05170 -0.12600
H 	H 	0.59360 0.02490 0.08760 0.07000
Nd	Nd	0.71453 0.67676 0.25019 1.68000
N 	N 	0.52940 0.67730 0.24970 -0.20000
O 	O 	0.63270 0.56460 0.15820 -0.49400
O 	O 	0.82740 0.67370 0.35500 -0.51700
O 	O 	0.63170 0.78830 0.34160 -0.50200
O 	O 	0.49640 0.84990 0.39480 -0.51500
O 	O 	0.88820 0.54400 0.09220 -0.46000
O 	O 	0.49750 0.50560 0.10330 -0.51600
O 	O 	0.82860 0.68020 0.14640 -0.52600
O 	O 	0.88780 0.80870 0.40820 -0.47500
C 	C 	0.94400 0.65710 0.45160 -0.08200
C 	C 	0.47970 0.73290 0.29860 -0.10800
C 	C 	0.48060 0.62150 0.20120 -0.10400
C 	C 	0.33110 0.67730 0.24930 -0.12000
H 	H 	0.26440 0.67770 0.24890 0.02800
C 	C 	0.88100 0.71860 0.40040 0.38800
C 	C 	0.38180 0.62020 0.19830 0.00900
H 	H 	0.34980 0.58200 0.16290 -0.01400
C 	C 	0.54050 0.79580 0.34980 0.37200
C 	C 	0.38090 0.73330 0.30060 0.01200
H 	H 	0.34830 0.77080 0.33610 -0.01700
C 	C 	0.88180 0.63450 0.10010 0.38900
C 	C 	0.94420 0.69710 0.04900 -0.15000
C 	C 	0.94450 0.79580 0.05160 0.21600
H 	H 	0.90790 0.82860 0.08760 -0.09500
C 	C 	0.54220 0.55800 0.14960 0.37500
C 	C 	0.94360 0.55710 0.44830 0.09800
H 	H 	0.90640 0.52490 0.41240 -0.02400
Nd	Nd	0.21453 0.17676 0.75019 1.75600
N 	N 	0.02940 0.17730 0.74970 -0.27400
O 	O 	0.13270 0.06460 0.65820 -0.43200
O 	O 	0.32740 0.17370 0.85500 -0.49500
O 	O 	0.13170 0.28830 0.84160 -0.44600
O 	O 	0.99640 0.34990 0.89480 -0.37300
O 	O 	0.38820 0.04400 0.59220 -0.40200
O 	O 	0.99750 0.00560 0.60330 -0.35400
O 	O 	0.32860 0.18020 0.64640 -0.50700
O 	O 	0.38780 0.30870 0.90820 -0.43200
C 	C 	0.44400 0.15710 0.95160 0.03500
C 	C 	0.97970 0.23290 0.79860 0.05300
C 	C 	0.98060 0.12150 0.70120 0.05600
C 	C 	0.83110 0.17730 0.74930 0.02200
H 	H 	0.76440 0.17770 0.74890 0.01900
C 	C 	0.38100 0.21860 0.90040 0.36400
C 	C 	0.88180 0.12020 0.69830 -0.09400
H 	H 	0.84980 0.08200 0.66290 0.06600
C 	C 	0.04050 0.29580 0.84980 0.25400
C 	C 	0.88090 0.23330 0.80060 -0.09300
H 	H 	0.84830 0.27080 0.83610 0.06200
C 	C 	0.38180 0.13450 0.60010 0.37000
C 	C 	0.44420 0.19710 0.54900 -0.07500
C 	C 	0.44450 0.29580 0.55160 0.00800
H 	H 	0.40790 0.32860 0.58760 -0.00000
C 	C 	0.04220 0.05800 0.64960 0.25600
C 	C 	0.44360 0.05710 0.94830 -0.03200
H 	H 	0.40640 0.02490 0.91240 0.06400
Nd	Nd	0.50000 0.96231 0.50000 1.43200
Nd	Nd	-0.00000 0.46231 -0.00000 1.43900
Nd	Nd	-0.00000 0.89133 0.50000 1.37100
N 	N 	0.00000 0.70600 0.50000 -0.20200
C 	C 	-0.00000 0.50700 0.50000 -0.20700
H 	H 	-0.00000 0.44030 0.50000 0.06200
Nd	Nd	0.50000 0.39133 -0.00000 1.52700
N 	N 	0.50000 0.20600 -0.00000 -0.26400
C 	C 	0.50000 0.00700 -0.00000 0.11100
H 	H 	0.50000 0.94030 -0.00000 -0.15300
N 	N 	-0.00000 0.64630 -0.00000 -0.24000
C 	C 	-0.00000 0.84450 -0.00000 -0.46400
H 	H 	-0.00000 0.91130 -0.00000 0.08700
N 	N 	0.50000 0.14630 0.50000 -0.17300
C 	C 	0.50000 0.34450 0.50000 -0.09800
H 	H 	0.50000 0.41130 0.50000 0.03800
