data_crystal

_cell_length_a 17.62900
_cell_length_b 19.79700
_cell_length_c 13.25660
_cell_angle_alpha 90.00000
_cell_angle_beta  131.70000
_cell_angle_gamma 90.00000

_symmetry_space_group_name_	'P 1'
_symmetry_space_group_name_H-M	'P 1'

loop_
_symmetry_equiv_pos_as_xyz
  x,y,z

loop_
_atom_site_label
_atom_site_type_symbol
_atom_site_fract_x
_atom_site_fract_y
_atom_site_fract_z
_atom_site_charge
Ce	Ce	0.39237 0.01738 0.28468 2.04500
Ce	Ce	0.10752 0.76738 0.21520 2.03300
O 	O 	0.47184 0.11577 0.25930 -0.55600
O 	O 	0.56070 0.21254 0.33240 -0.57300
O 	O 	0.39790 0.00464 0.48080 -0.55400
O 	O 	0.44270 0.04140 0.67450 -0.57400
O 	O 	0.21291 0.86543 0.24100 -0.55400
O 	O 	0.22850 0.96230 0.16740 -0.57200
O 	O 	0.91712 0.75488 0.01870 -0.51700
O 	O 	0.76789 0.79146 0.82510 -0.56200
N 	N 	0.48530 0.11131 0.47120 -0.22200
N 	N 	0.01390 0.86069 0.02820 -0.27600
C 	C 	0.53060 0.16279 0.46490 -0.12700
C 	C 	0.58310 0.21266 0.56380 0.03300
H 	H 	0.61640 0.24710 0.55900 -0.01700
C 	C 	0.58480 0.20990 0.66970 -0.12800
H 	H 	0.61790 0.24320 0.73600 0.04100
C 	C 	0.53620 0.15661 0.67550 0.03400
H 	H 	0.53550 0.15390 0.74490 -0.02000
C 	C 	0.48910 0.10782 0.57570 -0.13000
C 	C 	0.51990 0.16391 0.34180 0.38400
C 	C 	0.43930 0.04646 0.57730 0.38000
C 	C 	0.06610 0.91237 0.03520 -0.07100
C 	C 	0.01940 0.96290 0.93610 -0.14300
H 	H 	0.05740 0.99770 0.94120 0.02600
C 	C 	0.91550 0.95960 0.83050 0.05500
H 	H 	0.88230 0.99270 0.76380 -0.01200
C 	C 	0.86110 0.90679 0.82450 -0.07900
H 	H 	0.79090 0.90430 0.75530 0.02200
C 	C 	0.91370 0.85776 0.92390 -0.03400
C 	C 	0.17850 0.91354 0.15780 0.35800
C 	C 	0.86240 0.79608 0.92280 0.34500
Ce	Ce	0.89237 0.51738 0.28468 2.05000
Ce	Ce	0.60752 0.26738 0.21520 2.04600
O 	O 	0.97184 0.61577 0.25930 -0.49900
O 	O 	0.06070 0.71254 0.33240 -0.57700
O 	O 	0.89790 0.50464 0.48080 -0.54200
O 	O 	0.94270 0.54140 0.67450 -0.55400
O 	O 	0.71291 0.36543 0.24100 -0.55100
O 	O 	0.72850 0.46230 0.16740 -0.57100
O 	O 	0.41712 0.25488 0.01870 -0.55500
O 	O 	0.26789 0.29146 0.82510 -0.58100
N 	N 	0.98530 0.61131 0.47120 -0.20600
N 	N 	0.51390 0.36069 0.02820 -0.22100
C 	C 	0.03060 0.66279 0.46490 -0.15200
C 	C 	0.08310 0.71266 0.56380 0.00100
H 	H 	0.11640 0.74710 0.55900 -0.01400
C 	C 	0.08480 0.70990 0.66970 -0.08300
H 	H 	0.11790 0.74320 0.73600 0.01400
C 	C 	0.03620 0.65661 0.67550 -0.08200
H 	H 	0.03550 0.65390 0.74490 -0.00200
C 	C 	0.98910 0.60782 0.57570 -0.04100
C 	C 	0.01990 0.66391 0.34180 0.31500
C 	C 	0.93930 0.54646 0.57730 0.35900
C 	C 	0.56610 0.41237 0.03520 -0.11900
C 	C 	0.51940 0.46290 0.93610 0.01900
H 	H 	0.55740 0.49770 0.94120 -0.01800
C 	C 	0.41550 0.45960 0.83050 -0.12600
H 	H 	0.38230 0.49270 0.76380 0.03300
C 	C 	0.36110 0.40679 0.82450 0.03000
H 	H 	0.29090 0.40430 0.75530 -0.02700
C 	C 	0.41370 0.35776 0.92390 -0.13200
C 	C 	0.67850 0.41354 0.15780 0.37900
C 	C 	0.36240 0.29608 0.92280 0.37700
Ce	Ce	0.39237 0.98262 0.78468 2.04300
Ce	Ce	0.10752 0.23262 0.71520 2.03100
O 	O 	0.47184 0.88423 0.75930 -0.56000
O 	O 	0.56070 0.78746 0.83240 -0.57800
O 	O 	0.39790 0.99536 0.98080 -0.56500
O 	O 	0.44270 0.95860 0.17450 -0.57600
O 	O 	0.21291 0.13457 0.74100 -0.55600
O 	O 	0.22850 0.03770 0.66740 -0.57400
O 	O 	0.91712 0.24512 0.51870 -0.52700
O 	O 	0.76789 0.20854 0.32510 -0.56300
N 	N 	0.48530 0.88869 0.97120 -0.22400
N 	N 	0.01390 0.13931 0.52820 -0.27800
C 	C 	0.53060 0.83721 0.96490 -0.14000
C 	C 	0.58310 0.78734 0.06380 0.04900
H 	H 	0.61640 0.75290 0.05900 -0.02000
C 	C 	0.58480 0.79010 0.16970 -0.13500
H 	H 	0.61790 0.75680 0.23600 0.04500
C 	C 	0.53620 0.84339 0.17550 0.03800
H 	H 	0.53550 0.84610 0.24490 -0.02100
C 	C 	0.48910 0.89218 0.07570 -0.12700
C 	C 	0.51990 0.83609 0.84180 0.38700
C 	C 	0.43930 0.95354 0.07730 0.39000
C 	C 	0.06610 0.08763 0.53520 -0.08300
C 	C 	0.01940 0.03710 0.43610 -0.12900
H 	H 	0.05740 0.00230 0.44120 0.02400
C 	C 	0.91550 0.04040 0.33050 0.05000
H 	H 	0.88230 0.00730 0.26380 -0.00800
C 	C 	0.86110 0.09321 0.32450 -0.07500
H 	H 	0.79090 0.09570 0.25530 0.02200
C 	C 	0.91370 0.14224 0.42390 -0.03000
C 	C 	0.17850 0.08646 0.65780 0.36100
C 	C 	0.86240 0.20392 0.42280 0.35600
Ce	Ce	0.89237 0.48262 0.78468 2.04900
Ce	Ce	0.60752 0.73262 0.71520 2.04500
O 	O 	0.97184 0.38423 0.75930 -0.50400
O 	O 	0.06070 0.28746 0.83240 -0.57900
O 	O 	0.89790 0.49536 0.98080 -0.55100
O 	O 	0.94270 0.45860 0.17450 -0.55400
O 	O 	0.71291 0.63457 0.74100 -0.55400
O 	O 	0.72850 0.53770 0.66740 -0.57400
O 	O 	0.41712 0.74512 0.51870 -0.56000
O 	O 	0.26789 0.70854 0.32510 -0.58100
N 	N 	0.98530 0.38869 0.97120 -0.21100
N 	N 	0.51390 0.63931 0.52820 -0.22300
C 	C 	0.03060 0.33721 0.96490 -0.15600
C 	C 	0.08310 0.28734 0.06380 0.00800
H 	H 	0.11640 0.25290 0.05900 -0.01500
C 	C 	0.08480 0.29010 0.16970 -0.08400
H 	H 	0.11790 0.25680 0.23600 0.01600
C 	C 	0.03620 0.34339 0.17550 -0.08200
H 	H 	0.03550 0.34610 0.24490 -0.00100
C 	C 	0.98910 0.39218 0.07570 -0.03600
C 	C 	0.01990 0.33609 0.84180 0.31800
C 	C 	0.93930 0.45354 0.07730 0.36700
C 	C 	0.56610 0.58763 0.53520 -0.12800
C 	C 	0.51940 0.53710 0.43610 0.03100
H 	H 	0.55740 0.50230 0.44120 -0.02000
C 	C 	0.41550 0.54040 0.33050 -0.13100
H 	H 	0.38230 0.50730 0.26380 0.03700
C 	C 	0.36110 0.59321 0.32450 0.03300
H 	H 	0.29090 0.59570 0.25530 -0.02700
C 	C 	0.41370 0.64224 0.42390 -0.13000
C 	C 	0.67850 0.58646 0.65780 0.38200
C 	C 	0.36240 0.70392 0.42280 0.38300
