data_crystal

_cell_length_a 15.03700
_cell_length_b 19.07500
_cell_length_c 24.90100
_cell_angle_alpha 90.00000
_cell_angle_beta  90.00000
_cell_angle_gamma 90.00000

_symmetry_space_group_name_	'P 1'
_symmetry_space_group_name_H-M	'P 1'

loop_
_symmetry_equiv_pos_as_xyz
  x,y,z

loop_
_atom_site_label
_atom_site_type_symbol
_atom_site_fract_x
_atom_site_fract_y
_atom_site_fract_z
_atom_site_charge
C 	C 	0.61730 0.49700 0.01150 0.01700
C 	C 	0.49850 0.85450 0.95950 -0.14100
H 	H 	0.48500 0.82620 0.99080 0.07500
H 	H 	0.44900 0.85080 0.93460 0.07400
C 	C 	0.63820 0.21670 0.54800 0.37800
C 	C 	0.50370 0.15890 0.59070 0.17300
H 	H 	0.48010 0.15050 0.55670 -0.01100
C 	C 	0.34830 0.21160 0.17240 -0.09500
H 	H 	0.29150 0.22870 0.17910 0.02000
C 	C 	0.02670 0.87790 0.83980 0.16600
H 	H 	0.96650 0.88760 0.83570 -0.01800
C 	C 	0.14090 0.80390 0.87030 0.16900
H 	H 	0.15970 0.76360 0.88800 0.00200
C 	C 	0.54710 0.14430 0.02640 -0.04400
H 	H 	0.60010 0.14790 0.04850 0.02000
H 	H 	0.55590 0.17350 0.99500 -0.01500
C 	C 	0.59780 0.82570 0.87980 0.04800
C 	C 	0.53540 0.06870 0.00870 -0.00300
C 	C 	0.51030 0.92980 0.97600 0.10600
C 	C 	0.23010 0.40170 0.10100 0.02700
C 	C 	0.68370 0.79880 0.87510 0.06800
C 	C 	0.78290 0.52980 0.92790 0.03600
C 	C 	0.45710 0.13970 0.63540 -0.29000
H 	H 	0.40190 0.11820 0.63160 0.14200
C 	C 	0.33280 0.50760 0.99680 -0.13500
H 	H 	0.31250 0.55430 0.00600 0.07400
H 	H 	0.31630 0.49850 0.95980 0.07200
C 	C 	0.58610 0.19090 0.59570 -0.20400
C 	C 	0.65220 0.80430 0.95950 0.08400
H 	H 	0.65690 0.80110 0.99670 0.01100
C 	C 	0.27050 0.38810 0.01900 0.08400
H 	H 	0.28100 0.36860 0.98540 -0.03900
C 	C 	0.39460 0.19260 0.03520 0.08800
H 	H 	0.38420 0.19510 0.99850 -0.04300
C 	C 	0.72000 0.78830 0.82540 -0.12500
H 	H 	0.77700 0.76980 0.82240 0.07100
C 	C 	0.26360 0.46560 0.08380 0.06700
C 	C 	0.58690 0.83240 0.78590 -0.04200
H 	H 	0.55550 0.84390 0.75490 0.03300
C 	C 	0.46270 0.17390 0.11150 0.06500
C 	C 	0.67320 0.80490 0.78060 0.00300
H 	H 	0.69790 0.79810 0.74680 0.02200
C 	C 	0.19920 0.39330 0.15220 -0.09000
H 	H 	0.17790 0.35030 0.16420 0.01600
C 	C 	0.98610 0.76820 0.89020 0.37500
C 	C 	0.57260 0.18290 0.69240 -0.28300
H 	H 	0.59580 0.19110 0.72640 0.12100
C 	C 	0.43160 0.50440 0.00200 0.09200
C 	C 	0.47690 0.55160 0.03260 -0.10000
H 	H 	0.44640 0.58720 0.05030 0.07300
C 	C 	0.47930 0.45370 0.97650 -0.11600
H 	H 	0.44970 0.42050 0.95580 0.05300
C 	C 	0.05230 0.81660 0.86500 -0.21200
C 	C 	0.56690 0.54660 0.03730 -0.03400
H 	H 	0.59600 0.57860 0.05930 0.05400
C 	C 	0.40070 0.11360 0.81640 0.00900
H 	H 	0.40960 0.13410 0.85160 0.01900
H 	H 	0.34300 0.12910 0.80380 0.04200
C 	C 	0.77840 0.60970 0.99140 0.08400
H 	H 	0.76750 0.63070 0.02450 0.00400
C 	C 	0.80490 0.47960 0.84420 -0.06600
H 	H 	0.80080 0.44170 0.82090 0.05200
C 	C 	0.83980 0.54200 0.82530 0.01400
H 	H 	0.86080 0.54410 0.79020 0.02900
C 	C 	0.53630 0.01490 0.04570 -0.01000
H 	H 	0.54570 0.02450 0.08190 0.03800
C 	C 	0.71650 0.49240 0.01730 -0.09200
H 	H 	0.73310 0.50310 0.05410 0.06400
H 	H 	0.73610 0.44510 0.00930 0.03900
C 	C 	0.51080 0.98490 0.94020 -0.11800
H 	H 	0.50280 0.97570 0.90390 0.08300
C 	C 	0.49040 0.15140 0.68610 0.29600
C 	C 	0.54720 0.84280 0.83470 -0.07300
H 	H 	0.48970 0.86040 0.83770 0.05400
C 	C 	0.84450 0.60120 0.85690 -0.13000
H 	H 	0.86620 0.64360 0.84390 0.06500
C 	C 	0.37670 0.19890 0.12070 0.02700
C 	C 	0.52290 0.05350 0.95680 -0.00900
H 	H 	0.52230 0.08940 0.93160 0.02100
C 	C 	0.81530 0.59370 0.90870 0.06600
C 	C 	0.20400 0.84990 0.84980 -0.30100
H 	H 	0.26430 0.83970 0.85280 0.14200
C 	C 	0.49260 0.17300 0.20310 -0.02000
H 	H 	0.53050 0.16460 0.23180 0.03700
C 	C 	0.61980 0.20220 0.64630 0.15500
H 	H 	0.67540 0.22310 0.65000 -0.01800
C 	C 	0.77650 0.47200 0.89540 -0.04900
H 	H 	0.75380 0.42970 0.90790 0.01600
C 	C 	0.17710 0.91000 0.82540 0.30000
C 	C 	0.32320 0.94100 0.79950 0.06100
H 	H 	0.32910 0.90290 0.77400 0.00300
H 	H 	0.34750 0.92610 0.83370 0.01900
C 	C 	0.08930 0.92580 0.82020 -0.29500
H 	H 	0.07130 0.96740 0.80400 0.14300
C 	C 	0.40550 0.19840 0.21280 -0.03000
H 	H 	0.38730 0.20620 0.24800 0.04400
C 	C 	0.52120 0.16070 0.15210 -0.10200
H 	H 	0.57820 0.14400 0.14520 0.06000
C 	C 	0.56880 0.45070 0.98070 -0.02400
H 	H 	0.59900 0.41590 0.96190 -0.00900
C 	C 	0.37110 0.00550 0.77940 -0.02500
H 	H 	0.42270 0.99200 0.75850 0.04600
H 	H 	0.33190 0.03290 0.75660 0.06600
C 	C 	0.46670 0.14290 0.78100 0.02200
H 	H 	0.47200 0.19300 0.78690 0.00900
H 	H 	0.52420 0.12140 0.78760 0.02400
C 	C 	0.20080 0.45110 0.18530 -0.03300
H 	H 	0.17830 0.44810 0.22000 0.03900
C 	C 	0.52290 0.94650 0.02880 -0.12100
H 	H 	0.52260 0.91080 0.05420 0.08900
C 	C 	0.26830 0.52430 0.11510 -0.09500
H 	H 	0.29090 0.56670 0.10270 0.06500
C 	C 	0.23700 0.51520 0.16630 -0.01800
H 	H 	0.23950 0.55310 0.18990 0.03800
Co	Co	0.21230 0.24935 0.06002 1.02100
Co	Co	0.83644 0.74719 0.94496 1.15400
N 	N 	0.23660 0.35320 0.05870 -0.28800
N 	N 	0.28920 0.45690 0.03140 -0.11700
N 	N 	0.76020 0.54200 0.98060 -0.11700
N 	N 	0.81310 0.64290 0.95040 -0.26200
N 	N 	0.47090 0.17060 0.05680 -0.13800
N 	N 	0.33580 0.21040 0.07160 -0.29000
N 	N 	0.71580 0.78610 0.92610 -0.26000
N 	N 	0.57940 0.82830 0.93380 -0.10800
O 	O 	0.70840 0.24800 0.55320 -0.34400
O 	O 	0.60240 0.20490 0.50320 -0.45400
O 	O 	0.01180 0.71710 0.91580 -0.32800
O 	O 	0.90490 0.78500 0.88541 -0.45600
O 	O 	0.43840 0.12910 0.72710 -0.25800
O 	O 	0.39670 0.04430 0.82270 -0.17900
O 	O 	0.23450 0.96040 0.80500 -0.26200
C 	C 	0.88270 0.50300 0.51150 0.01600
C 	C 	0.00150 0.14550 0.45950 -0.14200
H 	H 	0.01500 0.17380 0.49080 0.07600
H 	H 	0.05100 0.14920 0.43460 0.07500
C 	C 	0.86180 0.78330 0.04800 0.37800
C 	C 	0.99630 0.84110 0.09070 0.17400
H 	H 	0.01990 0.84950 0.05670 -0.01200
C 	C 	0.15170 0.78840 0.67240 -0.08800
H 	H 	0.20850 0.77130 0.67910 0.01800
C 	C 	0.47330 0.12210 0.33980 0.16100
H 	H 	0.53350 0.11240 0.33570 -0.01500
C 	C 	0.35910 0.19610 0.37030 0.16900
H 	H 	0.34030 0.23640 0.38800 0.00100
C 	C 	0.95290 0.85570 0.52640 -0.04600
H 	H 	0.89990 0.85210 0.54850 0.02000
H 	H 	0.94410 0.82650 0.49500 -0.01400
C 	C 	0.90220 0.17430 0.37980 0.04600
C 	C 	0.96460 0.93130 0.50870 0.00200
C 	C 	0.98970 0.07020 0.47600 0.10400
C 	C 	0.26990 0.59830 0.60100 0.02700
C 	C 	0.81630 0.20120 0.37510 0.06900
C 	C 	0.71710 0.47020 0.42790 0.03600
C 	C 	0.04290 0.86030 0.13540 -0.29200
H 	H 	0.09810 0.88180 0.13160 0.14300
C 	C 	0.16720 0.49240 0.49680 -0.13900
H 	H 	0.18750 0.44570 0.50600 0.07500
H 	H 	0.18370 0.50150 0.45980 0.07300
C 	C 	0.91390 0.80910 0.09570 -0.20500
C 	C 	0.84780 0.19570 0.45950 0.08400
H 	H 	0.84310 0.19890 0.49670 0.01100
C 	C 	0.22950 0.61190 0.51900 0.08600
H 	H 	0.21900 0.63140 0.48540 -0.04000
C 	C 	0.10540 0.80740 0.53520 0.09000
H 	H 	0.11580 0.80490 0.49850 -0.04400
C 	C 	0.78000 0.21170 0.32540 -0.12700
H 	H 	0.72300 0.23020 0.32240 0.07100
C 	C 	0.23640 0.53440 0.58380 0.06700
C 	C 	0.91310 0.16760 0.28590 -0.04600
H 	H 	0.94450 0.15610 0.25490 0.03500
C 	C 	0.03730 0.82610 0.61150 0.07200
C 	C 	0.82680 0.19510 0.28060 0.00600
H 	H 	0.80210 0.20190 0.24680 0.02100
C 	C 	0.30080 0.60670 0.65220 -0.09000
H 	H 	0.32210 0.64970 0.66420 0.01700
C 	C 	0.51390 0.23180 0.39020 0.37900
C 	C 	0.92740 0.81710 0.19240 -0.28400
H 	H 	0.90420 0.80890 0.22640 0.12200
C 	C 	0.06840 0.49560 0.50200 0.09600
C 	C 	0.02310 0.44840 0.53260 -0.10300
H 	H 	0.05360 0.41280 0.55030 0.07400
C 	C 	0.02070 0.54630 0.47650 -0.12000
H 	H 	0.05030 0.57950 0.45580 0.05500
C 	C 	0.44770 0.18340 0.36500 -0.21300
C 	C 	0.93310 0.45340 0.53730 -0.03100
H 	H 	0.90400 0.42140 0.55930 0.05200
C 	C 	0.09930 0.88640 0.31640 0.01000
H 	H 	0.09040 0.86590 0.35160 0.01900
H 	H 	0.15700 0.87090 0.30380 0.04200
C 	C 	0.72160 0.39030 0.49140 0.08600
H 	H 	0.73250 0.36930 0.52450 0.00200
C 	C 	0.69510 0.52040 0.34420 -0.06500
H 	H 	0.69920 0.55830 0.32090 0.05200
C 	C 	0.66020 0.45800 0.32530 0.01400
H 	H 	0.63920 0.45590 0.29020 0.02900
C 	C 	0.96370 0.98510 0.54570 -0.01500
H 	H 	0.95430 0.97550 0.58190 0.03900
C 	C 	0.78350 0.50760 0.51730 -0.09100
H 	H 	0.76690 0.49690 0.55410 0.06400
H 	H 	0.76390 0.55490 0.50930 0.03900
C 	C 	0.98920 0.01510 0.44020 -0.11300
H 	H 	0.99720 0.02430 0.40390 0.08100
C 	C 	0.00960 0.84860 0.18610 0.29700
C 	C 	0.95280 0.15720 0.33470 -0.06700
H 	H 	0.01030 0.13960 0.33770 0.05100
C 	C 	0.65550 0.39880 0.35690 -0.13000
H 	H 	0.63380 0.35640 0.34390 0.06500
C 	C 	0.12330 0.80110 0.62070 0.02300
C 	C 	0.97710 0.94650 0.45680 -0.01600
H 	H 	0.97770 0.91060 0.43160 0.02300
C 	C 	0.68470 0.40630 0.40870 0.06600
C 	C 	0.29600 0.15010 0.34980 -0.30000
H 	H 	0.23570 0.16030 0.35280 0.14100
C 	C 	0.00740 0.82700 0.70310 -0.00600
H 	H 	0.96950 0.83540 0.73180 0.03100
C 	C 	0.88020 0.79780 0.14630 0.15600
H 	H 	0.82460 0.77690 0.15000 -0.01800
C 	C 	0.72350 0.52800 0.39540 -0.04900
H 	H 	0.74620 0.57030 0.40790 0.01600
C 	C 	0.32290 0.09000 0.32540 0.29800
C 	C 	0.17680 0.05900 0.29950 0.05600
H 	H 	0.17090 0.09710 0.27400 0.00400
H 	H 	0.15250 0.07390 0.33370 0.02000
C 	C 	0.41070 0.07420 0.32020 -0.29200
H 	H 	0.42870 0.03260 0.30400 0.14100
C 	C 	0.09450 0.80160 0.71280 -0.03900
H 	H 	0.11270 0.79380 0.74800 0.04700
C 	C 	0.97880 0.83930 0.65210 -0.11500
H 	H 	0.92180 0.85600 0.64520 0.06400
C 	C 	0.93120 0.54930 0.48070 -0.02100
H 	H 	0.90100 0.58410 0.46190 -0.01000
C 	C 	0.12890 0.99450 0.27940 -0.01800
H 	H 	0.07730 0.00800 0.25850 0.04300
H 	H 	0.16810 0.96710 0.25660 0.06400
C 	C 	0.03330 0.85710 0.28100 0.02200
H 	H 	0.02800 0.80700 0.28690 0.00900
H 	H 	0.97580 0.87860 0.28760 0.02300
C 	C 	0.29920 0.54890 0.68530 -0.03300
H 	H 	0.32170 0.55190 0.72000 0.03900
C 	C 	0.97710 0.05350 0.52880 -0.11800
H 	H 	0.97740 0.08920 0.55420 0.08800
C 	C 	0.23170 0.47570 0.61510 -0.09400
H 	H 	0.20910 0.43330 0.60270 0.06500
C 	C 	0.26300 0.48480 0.66630 -0.01800
H 	H 	0.26050 0.44690 0.68990 0.03900
Co	Co	0.28770 0.75065 0.56002 1.02100
Co	Co	0.66356 0.25281 0.44496 1.15400
N 	N 	0.26340 0.64680 0.55870 -0.28800
N 	N 	0.21080 0.54310 0.53140 -0.11700
N 	N 	0.73980 0.45800 0.48060 -0.11700
N 	N 	0.68690 0.35710 0.45040 -0.26200
N 	N 	0.02910 0.82940 0.55680 -0.13900
N 	N 	0.16420 0.78960 0.57160 -0.28900
N 	N 	0.78420 0.21390 0.42610 -0.26000
N 	N 	0.92060 0.17170 0.43380 -0.10700
O 	O 	0.79160 0.75200 0.05320 -0.34400
O 	O 	0.89760 0.79510 0.00320 -0.45300
O 	O 	0.48820 0.28290 0.41580 -0.33100
O 	O 	0.59510 0.21500 0.38541 -0.45700
O 	O 	0.06160 0.87090 0.22710 -0.25800
O 	O 	0.10330 0.95570 0.32270 -0.18000
O 	O 	0.26550 0.03960 0.30500 -0.26100
C 	C 	0.38270 0.99700 0.48850 0.01600
C 	C 	0.50150 0.35450 0.54050 -0.14000
H 	H 	0.51500 0.32620 0.50920 0.07600
H 	H 	0.55100 0.35080 0.56540 0.07500
C 	C 	0.36180 0.71670 0.95200 0.37800
C 	C 	0.49630 0.65890 0.90930 0.17300
H 	H 	0.51990 0.65050 0.94330 -0.01100
C 	C 	0.65170 0.71160 0.32760 -0.09500
H 	H 	0.70850 0.72870 0.32090 0.02000
C 	C 	0.97330 0.37790 0.66020 0.16000
H 	H 	0.03350 0.38760 0.66430 -0.01500
C 	C 	0.85910 0.30390 0.62970 0.16800
H 	H 	0.84030 0.26360 0.61200 0.00200
C 	C 	0.45290 0.64430 0.47360 -0.04300
H 	H 	0.39990 0.64790 0.45150 0.01900
H 	H 	0.44410 0.67350 0.50500 -0.01500
C 	C 	0.40220 0.32570 0.62020 0.04800
C 	C 	0.46460 0.56870 0.49130 -0.00200
C 	C 	0.48970 0.42980 0.52400 0.10600
C 	C 	0.76990 0.90170 0.39900 0.02700
C 	C 	0.31630 0.29880 0.62490 0.06800
C 	C 	0.21710 0.02980 0.57210 0.03500
C 	C 	0.54290 0.63970 0.86460 -0.29000
H 	H 	0.59810 0.61820 0.86840 0.14200
C 	C 	0.66720 0.00760 0.50320 -0.13700
H 	H 	0.68750 0.05430 0.49400 0.07500
H 	H 	0.68370 0.99850 0.54020 0.07200
C 	C 	0.41390 0.69090 0.90430 -0.20400
C 	C 	0.34780 0.30430 0.54050 0.08400
H 	H 	0.34310 0.30110 0.50330 0.01100
C 	C 	0.72950 0.88810 0.48100 0.08600
H 	H 	0.71900 0.86860 0.51460 -0.04000
C 	C 	0.60540 0.69260 0.46480 0.09000
H 	H 	0.61580 0.69510 0.50150 -0.04400
C 	C 	0.28000 0.28830 0.67460 -0.12500
H 	H 	0.22300 0.26980 0.67760 0.07100
C 	C 	0.73640 0.96560 0.41620 0.06600
C 	C 	0.41310 0.33240 0.71410 -0.04200
H 	H 	0.44450 0.34390 0.74510 0.03300
C 	C 	0.53730 0.67390 0.38850 0.06500
C 	C 	0.32680 0.30490 0.71940 0.00300
H 	H 	0.30210 0.29810 0.75320 0.02200
C 	C 	0.80080 0.89330 0.34780 -0.09000
H 	H 	0.82210 0.85030 0.33580 0.01600
C 	C 	0.01390 0.26820 0.60980 0.37800
C 	C 	0.42740 0.68290 0.80760 -0.28300
H 	H 	0.40420 0.69110 0.77360 0.12100
C 	C 	0.56840 0.00440 0.49800 0.09500
C 	C 	0.52310 0.05160 0.46740 -0.10200
H 	H 	0.55360 0.08720 0.44970 0.07400
C 	C 	0.52070 0.95370 0.52350 -0.12000
H 	H 	0.55030 0.92050 0.54420 0.05400
C 	C 	0.94770 0.31660 0.63500 -0.21100
C 	C 	0.43310 0.04660 0.46270 -0.03200
H 	H 	0.40400 0.07860 0.44070 0.05300
C 	C 	0.59930 0.61360 0.68360 0.00900
H 	H 	0.59040 0.63410 0.64840 0.01900
H 	H 	0.65700 0.62910 0.69620 0.04200
C 	C 	0.22160 0.10970 0.50860 0.08600
H 	H 	0.23250 0.13070 0.47550 0.00200
C 	C 	0.19510 0.97960 0.65580 -0.06400
H 	H 	0.19920 0.94170 0.67910 0.05100
C 	C 	0.16020 0.04200 0.67470 0.01200
H 	H 	0.13920 0.04410 0.70980 0.02900
C 	C 	0.46370 0.51490 0.45430 -0.01000
H 	H 	0.45430 0.52450 0.41810 0.03800
C 	C 	0.28350 0.99240 0.48270 -0.08900
H 	H 	0.26690 0.00310 0.44590 0.06300
H 	H 	0.26390 0.94510 0.49070 0.03800
C 	C 	0.48920 0.48490 0.55980 -0.11700
H 	H 	0.49720 0.47570 0.59610 0.08200
C 	C 	0.50960 0.65140 0.81390 0.29600
C 	C 	0.45280 0.34280 0.66530 -0.07300
H 	H 	0.51030 0.36040 0.66230 0.05500
C 	C 	0.15550 0.10120 0.64310 -0.12900
H 	H 	0.13380 0.14360 0.65610 0.06500
C 	C 	0.62330 0.69890 0.37930 0.02700
C 	C 	0.47710 0.55350 0.54320 -0.01100
H 	H 	0.47770 0.58940 0.56840 0.02100
C 	C 	0.18470 0.09370 0.59130 0.06600
C 	C 	0.79600 0.34990 0.65020 -0.29900
H 	H 	0.73570 0.33970 0.64720 0.14100
C 	C 	0.50740 0.67300 0.29690 -0.02000
H 	H 	0.46950 0.66460 0.26820 0.03700
C 	C 	0.38020 0.70220 0.85370 0.15500
H 	H 	0.32460 0.72310 0.85000 -0.01800
C 	C 	0.22350 0.97200 0.60460 -0.04900
H 	H 	0.24620 0.92970 0.59210 0.01600
C 	C 	0.82290 0.41000 0.67460 0.29800
C 	C 	0.67680 0.44100 0.70050 0.06000
H 	H 	0.67090 0.40290 0.72600 0.00300
H 	H 	0.65250 0.42610 0.66630 0.01900
C 	C 	0.91070 0.42580 0.67980 -0.29200
H 	H 	0.92870 0.46740 0.69600 0.14100
C 	C 	0.59450 0.69840 0.28720 -0.03000
H 	H 	0.61270 0.70620 0.25200 0.04400
C 	C 	0.47880 0.66070 0.34790 -0.10200
H 	H 	0.42180 0.64400 0.35480 0.06000
C 	C 	0.43120 0.95070 0.51930 -0.02100
H 	H 	0.40100 0.91590 0.53810 -0.01000
C 	C 	0.62890 0.50550 0.72060 -0.02500
H 	H 	0.57730 0.49200 0.74150 0.04600
H 	H 	0.66810 0.53290 0.74340 0.06600
C 	C 	0.53330 0.64290 0.71900 0.02100
H 	H 	0.52800 0.69300 0.71310 0.00900
H 	H 	0.47580 0.62140 0.71240 0.02400
C 	C 	0.79920 0.95110 0.31470 -0.03400
H 	H 	0.82170 0.94810 0.28000 0.03900
C 	C 	0.47710 0.44650 0.47120 -0.12300
H 	H 	0.47740 0.41080 0.44580 0.08900
C 	C 	0.73170 0.02430 0.38490 -0.09400
H 	H 	0.70910 0.06670 0.39730 0.06500
C 	C 	0.76300 0.01520 0.33370 -0.01700
H 	H 	0.76050 0.05310 0.31010 0.03800
Co	Co	0.78770 0.74935 0.43998 1.02100
Co	Co	0.16356 0.24719 0.55504 1.15400
N 	N 	0.76340 0.85320 0.44130 -0.28800
N 	N 	0.71080 0.95690 0.46860 -0.11700
N 	N 	0.23980 0.04200 0.51940 -0.11700
N 	N 	0.18690 0.14290 0.54960 -0.26200
N 	N 	0.52910 0.67060 0.44320 -0.13800
N 	N 	0.66420 0.71040 0.42840 -0.29000
N 	N 	0.28420 0.28610 0.57390 -0.26000
N 	N 	0.42060 0.32830 0.56620 -0.10800
O 	O 	0.29160 0.74800 0.94680 -0.34400
O 	O 	0.39760 0.70490 0.99680 -0.45400
O 	O 	0.98820 0.21710 0.58420 -0.33000
O 	O 	0.09510 0.28500 0.61459 -0.45700
O 	O 	0.56160 0.62910 0.77290 -0.25800
O 	O 	0.60330 0.54430 0.67730 -0.17900
O 	O 	0.76550 0.46040 0.69500 -0.26100
C 	C 	0.11730 0.00300 0.98850 0.02800
C 	C 	0.99850 0.64550 0.04050 -0.13400
H 	H 	0.98500 0.67380 0.00920 0.07500
H 	H 	0.94900 0.64920 0.06540 0.07300
C 	C 	0.13820 0.28330 0.45200 0.37700
C 	C 	0.00370 0.34110 0.40930 0.16900
H 	H 	0.98010 0.34950 0.44330 -0.00900
C 	C 	0.84830 0.28840 0.82760 -0.09800
H 	H 	0.79150 0.27130 0.82090 0.02100
C 	C 	0.52670 0.62210 0.16020 0.16100
H 	H 	0.46650 0.61240 0.16430 -0.01500
C 	C 	0.64090 0.69610 0.12970 0.16900
H 	H 	0.65970 0.73640 0.11200 0.00100
C 	C 	0.04710 0.35570 0.97360 -0.04300
H 	H 	0.10010 0.35210 0.95150 0.02000
H 	H 	0.05590 0.32650 0.00500 -0.01700
C 	C 	0.09780 0.67430 0.12020 0.04900
C 	C 	0.03540 0.43130 0.99130 0.00500
C 	C 	0.01030 0.57020 0.02400 0.09700
C 	C 	0.73010 0.09830 0.89900 0.02700
C 	C 	0.18370 0.70120 0.12490 0.06700
C 	C 	0.28290 0.97020 0.07210 0.03700
C 	C 	0.95710 0.36030 0.36460 -0.28800
H 	H 	0.90190 0.38180 0.36840 0.14100
C 	C 	0.83280 0.99240 0.00320 -0.12600
H 	H 	0.81250 0.94570 0.99400 0.07100
H 	H 	0.81630 0.00150 0.04020 0.07000
C 	C 	0.08610 0.30910 0.40430 -0.20300
C 	C 	0.15220 0.69570 0.04050 0.08400
H 	H 	0.15690 0.69890 0.00330 0.01000
C 	C 	0.77050 0.11190 0.98100 0.08600
H 	H 	0.78100 0.13140 0.01460 -0.04000
C 	C 	0.89460 0.30740 0.96480 0.08800
H 	H 	0.88420 0.30490 0.00150 -0.04300
C 	C 	0.22000 0.71170 0.17460 -0.12400
H 	H 	0.27700 0.73020 0.17760 0.07000
C 	C 	0.76360 0.03440 0.91620 0.06900
C 	C 	0.08690 0.66760 0.21410 -0.04000
H 	H 	0.05550 0.65610 0.24510 0.03300
C 	C 	0.96270 0.32610 0.88850 0.06300
C 	C 	0.17320 0.69510 0.21940 0.00200
H 	H 	0.19790 0.70190 0.25320 0.02200
C 	C 	0.69920 0.10670 0.84780 -0.09000
H 	H 	0.67790 0.14970 0.83580 0.01700
C 	C 	0.48610 0.73180 0.10980 0.37900
C 	C 	0.07260 0.31710 0.30760 -0.28400
H 	H 	0.09580 0.30890 0.27360 0.12200
C 	C 	0.93160 0.99560 0.99800 0.07800
C 	C 	0.97690 0.94840 0.96740 -0.09400
H 	H 	0.94640 0.91280 0.94970 0.07000
C 	C 	0.97930 0.04630 0.02350 -0.09700
H 	H 	0.94970 0.07950 0.04420 0.04700
C 	C 	0.55230 0.68340 0.13500 -0.21300
C 	C 	0.06690 0.95340 0.96270 -0.03900
H 	H 	0.09600 0.92140 0.94070 0.05500
C 	C 	0.90070 0.38640 0.18360 0.00600
H 	H 	0.90960 0.36590 0.14840 0.02000
H 	H 	0.84300 0.37090 0.19620 0.04300
C 	C 	0.27840 0.89030 0.00860 0.08500
H 	H 	0.26750 0.86930 0.97550 0.00300
C 	C 	0.30490 0.02040 0.15580 -0.06700
H 	H 	0.30080 0.05830 0.17910 0.05200
C 	C 	0.33980 0.95800 0.17470 0.01600
H 	H 	0.36080 0.95590 0.20980 0.02900
C 	C 	0.03630 0.48510 0.95430 -0.01600
H 	H 	0.04570 0.47550 0.91810 0.04000
C 	C 	0.21650 0.00760 0.98270 -0.09900
H 	H 	0.23310 0.99690 0.94590 0.06600
H 	H 	0.23610 0.05490 0.99070 0.04100
C 	C 	0.01080 0.51510 0.05980 -0.10900
H 	H 	0.00280 0.52430 0.09610 0.07900
C 	C 	0.99040 0.34860 0.31390 0.29700
C 	C 	0.04720 0.65720 0.16530 -0.07500
H 	H 	0.98970 0.63960 0.16230 0.05600
C 	C 	0.34450 0.89880 0.14310 -0.13100
H 	H 	0.36620 0.85640 0.15610 0.06600
C 	C 	0.87670 0.30110 0.87930 0.02900
C 	C 	0.02290 0.44650 0.04320 -0.02000
H 	H 	0.02230 0.41060 0.06840 0.02400
C 	C 	0.31530 0.90630 0.09130 0.06700
C 	C 	0.70400 0.65010 0.15020 -0.30000
H 	H 	0.76430 0.66030 0.14720 0.14200
C 	C 	0.99260 0.32700 0.79690 -0.02400
H 	H 	0.03050 0.33540 0.76820 0.03900
C 	C 	0.11980 0.29780 0.35370 0.15500
H 	H 	0.17540 0.27690 0.35000 -0.01800
C 	C 	0.27650 0.02800 0.10460 -0.05000
H 	H 	0.25380 0.07030 0.09210 0.01600
C 	C 	0.67710 0.59000 0.17460 0.29900
C 	C 	0.82320 0.55900 0.20050 0.06100
H 	H 	0.82910 0.59710 0.22600 0.00300
H 	H 	0.84750 0.57390 0.16630 0.01900
C 	C 	0.58930 0.57420 0.17980 -0.29200
H 	H 	0.57130 0.53260 0.19600 0.14100
C 	C 	0.90550 0.30160 0.78720 -0.02600
H 	H 	0.88730 0.29380 0.75200 0.04300
C 	C 	0.02120 0.33930 0.84790 -0.09800
H 	H 	0.07820 0.35600 0.85480 0.05800
C 	C 	0.06880 0.04930 0.01930 -0.04200
H 	H 	0.09900 0.08410 0.03810 -0.00400
C 	C 	0.87110 0.49450 0.22060 -0.02500
H 	H 	0.92270 0.50800 0.24150 0.04700
H 	H 	0.83190 0.46710 0.24340 0.06600
C 	C 	0.96670 0.35710 0.21900 0.02600
H 	H 	0.97200 0.30700 0.21310 0.00800
H 	H 	0.02420 0.37860 0.21240 0.02200
C 	C 	0.70080 0.04890 0.81470 -0.03200
H 	H 	0.67830 0.05190 0.78000 0.03900
C 	C 	0.02290 0.55350 0.97120 -0.11300
H 	H 	0.02260 0.58920 0.94580 0.08600
C 	C 	0.76830 0.97570 0.88490 -0.09700
H 	H 	0.79090 0.93330 0.89730 0.06600
C 	C 	0.73700 0.98480 0.83370 -0.01800
H 	H 	0.73950 0.94690 0.81010 0.03800
Co	Co	0.71230 0.25065 0.93998 1.02100
Co	Co	0.33644 0.75281 0.05504 1.15400
N 	N 	0.73660 0.14680 0.94130 -0.28800
N 	N 	0.78920 0.04310 0.96860 -0.11800
N 	N 	0.26020 0.95800 0.01940 -0.11600
N 	N 	0.31310 0.85710 0.04960 -0.26200
N 	N 	0.97090 0.32940 0.94320 -0.13800
N 	N 	0.83580 0.28960 0.92840 -0.29000
N 	N 	0.21580 0.71390 0.07390 -0.26000
N 	N 	0.07940 0.67170 0.06620 -0.11000
O 	O 	0.20840 0.25200 0.44680 -0.34400
O 	O 	0.10240 0.29510 0.49680 -0.45400
O 	O 	0.51180 0.78290 0.08420 -0.33100
O 	O 	0.40490 0.71500 0.11459 -0.45700
O 	O 	0.93840 0.37090 0.27290 -0.25900
O 	O 	0.89670 0.45570 0.17730 -0.17800
O 	O 	0.73450 0.53960 0.19500 -0.26200
