data_crystal

_cell_length_a 22.77100
_cell_length_b 21.31190
_cell_length_c 19.01000
_cell_angle_alpha 90.00000
_cell_angle_beta  118.49900
_cell_angle_gamma 90.00000

_symmetry_space_group_name_	'P 1'
_symmetry_space_group_name_H-M	'P 1'

loop_
_symmetry_equiv_pos_as_xyz
  x,y,z

loop_
_atom_site_label
_atom_site_type_symbol
_atom_site_fract_x
_atom_site_fract_y
_atom_site_fract_z
_atom_site_charge
Ag	Ag	0.22722 0.37808 0.19342 0.46400
N 	N 	0.07050 0.37490 0.88820 -0.17800
N 	N 	0.43250 0.62650 0.11410 -0.17700
N 	N 	0.16420 0.37940 0.04970 -0.14400
N 	N 	0.08880 0.28940 0.75720 -0.16400
N 	N 	0.19480 0.20650 0.79270 -0.16100
N 	N 	0.30940 0.45820 0.21540 -0.16100
N 	N 	0.41120 0.54300 0.24560 -0.15900
N 	N 	0.17270 0.45360 0.24140 -0.19200
C 	C 	0.38460 0.50750 0.17920 0.11900
N 	N 	0.16970 0.30360 0.23490 -0.19900
N 	N 	0.06920 0.52570 0.23560 -0.13800
N 	N 	0.07020 0.22580 0.23380 -0.13700
C 	C 	0.33450 0.49380 0.27980 -0.01300
H 	H 	0.31720 0.49090 0.31630 -0.00100
N 	N 	0.33720 0.62980 0.95210 -0.14400
C 	C 	0.11620 0.25570 0.82510 0.10900
C 	C 	0.13900 0.31810 0.27790 0.09900
C 	C 	0.12900 0.42970 0.01030 -0.00300
H 	H 	0.13550 0.46790 0.03880 0.01700
C 	C 	0.15010 0.32650 0.00710 -0.05600
H 	H 	0.17340 0.28930 0.03300 0.03700
C 	C 	0.08350 0.42850 0.92980 -0.00100
H 	H 	0.06110 0.46600 0.90360 0.01200
C 	C 	0.16840 0.21450 0.84160 -0.05400
H 	H 	0.18610 0.19080 0.88980 0.03500
C 	C 	0.08740 0.26240 0.88180 -0.26300
H 	H 	0.03830 0.25760 0.85090 0.08300
H 	H 	0.10470 0.22770 0.92110 0.09000
C 	C 	0.16790 0.24170 0.72540 -0.02100
H 	H 	0.18570 0.23860 0.68940 -0.00700
C 	C 	0.10290 0.32340 0.92660 0.11300
C 	C 	0.39880 0.57440 0.07700 0.11900
C 	C 	0.16150 0.37650 0.32850 -0.26400
H 	H 	0.14350 0.37590 0.36670 0.09600
H 	H 	0.21090 0.37630 0.36010 0.06000
C 	C 	0.13960 0.43590 0.28030 0.09900
C 	C 	0.42090 0.67900 0.07120 0.00600
H 	H 	0.44540 0.71600 0.09550 0.01900
C 	C 	0.37260 0.67940 0.99080 -0.00600
H 	H 	0.36480 0.71770 0.96200 0.01600
C 	C 	0.11540 0.28190 0.70790 0.00400
H 	H 	0.09730 0.30520 0.65940 0.01300
C 	C 	0.41450 0.51380 0.12370 -0.27200
H 	H 	0.39840 0.47840 0.08530 0.09700
H 	H 	0.46360 0.50970 0.15580 0.09800
C 	C 	0.10110 0.21290 0.19080 -0.01300
H 	H 	0.08870 0.17630 0.15840 0.01800
C 	C 	0.38650 0.53580 0.29520 0.01000
H 	H 	0.40450 0.56000 0.34290 0.01700
C 	C 	0.15020 0.25120 0.19210 0.01000
H 	H 	0.17100 0.23970 0.16100 0.01100
C 	C 	0.33490 0.46510 0.16530 -0.06000
H 	H 	0.31790 0.43990 0.11850 0.03700
C 	C 	0.08920 0.27880 0.27680 -0.05200
H 	H 	0.06820 0.29020 0.30770 0.03400
C 	C 	0.08880 0.47390 0.27730 -0.04700
H 	H 	0.06710 0.46150 0.30710 0.03300
C 	C 	0.15360 0.50620 0.20010 0.00700
H 	H 	0.17610 0.52000 0.17180 0.01400
C 	C 	0.34940 0.57770 0.99600 -0.06000
H 	H 	0.32370 0.54130 0.97160 0.03600
C 	C 	0.10150 0.54190 0.19700 -0.00700
H 	H 	0.08890 0.57920 0.16580 0.01500
Ag	Ag	0.27420 0.37130 0.30120 0.44200
Ag	Ag	0.77278 0.37808 0.30658 0.46400
N 	N 	0.92950 0.37490 0.61180 -0.16900
N 	N 	0.56750 0.62650 0.38590 -0.17700
N 	N 	0.83580 0.37940 0.45030 -0.14100
N 	N 	0.91120 0.28940 0.74280 -0.15300
N 	N 	0.80520 0.20650 0.70730 -0.16000
N 	N 	0.69060 0.45820 0.28460 -0.16200
N 	N 	0.58880 0.54300 0.25440 -0.16000
N 	N 	0.82730 0.45360 0.25860 -0.19400
C 	C 	0.61540 0.50750 0.32080 0.11800
N 	N 	0.83030 0.30360 0.26510 -0.20000
N 	N 	0.93080 0.52570 0.26440 -0.12100
N 	N 	0.92980 0.22580 0.26620 -0.12000
C 	C 	0.66550 0.49380 0.22020 -0.01300
H 	H 	0.68280 0.49090 0.18370 -0.00200
N 	N 	0.66280 0.62980 0.54790 -0.14600
C 	C 	0.88380 0.25570 0.67490 0.12300
C 	C 	0.86100 0.31810 0.22210 0.10800
C 	C 	0.87100 0.42970 0.48970 -0.00200
H 	H 	0.86450 0.46790 0.46120 0.02300
C 	C 	0.84990 0.32650 0.49290 -0.06100
H 	H 	0.82660 0.28930 0.46700 0.04100
C 	C 	0.91650 0.42850 0.57020 0.01000
H 	H 	0.93890 0.46600 0.59640 0.02900
C 	C 	0.83160 0.21450 0.65840 -0.05600
H 	H 	0.81390 0.19080 0.61020 0.03800
C 	C 	0.91260 0.26240 0.61820 -0.28400
H 	H 	0.96170 0.25760 0.64910 0.11500
H 	H 	0.89530 0.22770 0.57890 0.10500
C 	C 	0.83210 0.24170 0.77460 -0.01700
H 	H 	0.81430 0.23860 0.81060 -0.00500
C 	C 	0.89710 0.32340 0.57340 0.13200
C 	C 	0.60120 0.57440 0.42300 0.11600
C 	C 	0.83850 0.37650 0.17150 -0.26800
H 	H 	0.85650 0.37590 0.13330 0.10300
H 	H 	0.78910 0.37630 0.13990 0.06100
C 	C 	0.86040 0.43590 0.21970 0.10800
C 	C 	0.57910 0.67900 0.42880 0.00200
H 	H 	0.55460 0.71600 0.40450 0.01900
C 	C 	0.62740 0.67940 0.50920 -0.00200
H 	H 	0.63520 0.71770 0.53800 0.01600
C 	C 	0.88460 0.28190 0.79210 0.01000
H 	H 	0.90270 0.30520 0.84060 0.02500
C 	C 	0.58550 0.51380 0.37630 -0.27000
H 	H 	0.60160 0.47840 0.41470 0.09700
H 	H 	0.53640 0.50970 0.34420 0.09700
C 	C 	0.89890 0.21290 0.30920 -0.00700
H 	H 	0.91130 0.17630 0.34160 0.03100
C 	C 	0.61350 0.53580 0.20480 0.01000
H 	H 	0.59550 0.56000 0.15710 0.01700
C 	C 	0.84980 0.25120 0.30790 0.01500
H 	H 	0.82900 0.23970 0.33900 0.01300
C 	C 	0.66510 0.46510 0.33470 -0.05900
H 	H 	0.68210 0.43990 0.38150 0.03700
C 	C 	0.91080 0.27880 0.22320 -0.04900
H 	H 	0.93180 0.29020 0.19230 0.05100
C 	C 	0.91120 0.47390 0.22270 -0.04400
H 	H 	0.93290 0.46150 0.19290 0.05100
C 	C 	0.84640 0.50620 0.29990 0.01300
H 	H 	0.82390 0.52000 0.32820 0.01500
C 	C 	0.65060 0.57770 0.50400 -0.05700
H 	H 	0.67630 0.54130 0.52840 0.03600
C 	C 	0.89850 0.54190 0.30300 -0.00300
H 	H 	0.91110 0.57920 0.33420 0.02900
Ag	Ag	0.72580 0.37130 0.19880 0.44200
Ag	Ag	0.27278 0.12192 0.80658 0.46300
N 	N 	0.42950 0.12510 0.11180 -0.17800
N 	N 	0.06750 0.87350 0.88590 -0.18000
N 	N 	0.33580 0.12060 0.95030 -0.14100
N 	N 	0.41120 0.21060 0.24280 -0.16100
N 	N 	0.30520 0.29350 0.20730 -0.16100
N 	N 	0.19060 0.04180 0.78460 -0.16300
N 	N 	0.08880 0.95700 0.75440 -0.16500
N 	N 	0.32730 0.04640 0.75860 -0.19300
C 	C 	0.11540 0.99250 0.82080 0.11000
N 	N 	0.33030 0.19640 0.76510 -0.20000
N 	N 	0.43080 0.97430 0.76440 -0.13200
N 	N 	0.42980 0.27420 0.76620 -0.13100
C 	C 	0.16550 0.00620 0.72020 -0.01600
H 	H 	0.18280 0.00910 0.68370 -0.00300
N 	N 	0.16280 0.87020 0.04790 -0.14800
C 	C 	0.38380 0.24430 0.17490 0.11600
C 	C 	0.36100 0.18190 0.72210 0.10300
C 	C 	0.37100 0.07030 0.98970 -0.00900
H 	H 	0.36450 0.03210 0.96120 0.02100
C 	C 	0.34990 0.17350 0.99290 -0.06400
H 	H 	0.32660 0.21070 0.96700 0.04000
C 	C 	0.41650 0.07150 0.07020 0.01000
H 	H 	0.43890 0.03400 0.09640 0.01800
C 	C 	0.33160 0.28550 0.15840 -0.05600
H 	H 	0.31390 0.30920 0.11020 0.03700
C 	C 	0.41260 0.23760 0.11820 -0.27600
H 	H 	0.46170 0.24240 0.14910 0.09900
H 	H 	0.39530 0.27230 0.07890 0.09900
C 	C 	0.33210 0.25830 0.27460 -0.01900
H 	H 	0.31430 0.26140 0.31060 -0.00600
C 	C 	0.39710 0.17660 0.07340 0.12700
C 	C 	0.10120 0.92560 0.92300 0.10600
C 	C 	0.33850 0.12350 0.67150 -0.26600
H 	H 	0.35650 0.12410 0.63330 0.09900
H 	H 	0.28910 0.12370 0.63990 0.06000
C 	C 	0.36040 0.06410 0.71970 0.10300
C 	C 	0.07910 0.82100 0.92880 -0.00400
H 	H 	0.05460 0.78400 0.90450 0.01200
C 	C 	0.12740 0.82060 0.00920 -0.00200
H 	H 	0.13520 0.78230 0.03800 0.01200
C 	C 	0.38460 0.21810 0.29210 0.00700
H 	H 	0.40270 0.19480 0.34060 0.01900
C 	C 	0.08550 0.98620 0.87630 -0.25800
H 	H 	0.10160 0.02160 0.91470 0.08800
H 	H 	0.03640 0.99030 0.84420 0.08100
C 	C 	0.39890 0.28710 0.80920 -0.01000
H 	H 	0.41130 0.32370 0.84160 0.02300
C 	C 	0.11350 0.96420 0.70480 0.00700
H 	H 	0.09550 0.94000 0.65710 0.01100
C 	C 	0.34980 0.24880 0.80790 0.01200
H 	H 	0.32900 0.26030 0.83900 0.01200
C 	C 	0.16510 0.03490 0.83470 -0.05800
H 	H 	0.18210 0.06010 0.88150 0.03500
C 	C 	0.41080 0.22120 0.72320 -0.05100
H 	H 	0.43180 0.20980 0.69230 0.04200
C 	C 	0.41120 0.02610 0.72270 -0.04600
H 	H 	0.43290 0.03850 0.69290 0.04100
C 	C 	0.34640 0.99380 0.79990 0.01000
H 	H 	0.32390 0.98000 0.82820 0.01400
C 	C 	0.15060 0.92230 0.00400 -0.05300
H 	H 	0.17630 0.95870 0.02840 0.03400
C 	C 	0.39850 0.95810 0.80300 -0.00500
H 	H 	0.41110 0.92080 0.83420 0.02100
Ag	Ag	0.22580 0.12870 0.69880 0.44100
Ag	Ag	0.72722 0.12192 0.69342 0.46400
N 	N 	0.57050 0.12510 0.38820 -0.17700
N 	N 	0.93250 0.87350 0.61410 -0.16800
N 	N 	0.66420 0.12060 0.54970 -0.14200
N 	N 	0.58880 0.21060 0.25720 -0.16100
N 	N 	0.69480 0.29350 0.29270 -0.16100
N 	N 	0.80940 0.04180 0.71540 -0.16100
N 	N 	0.91120 0.95700 0.74560 -0.15300
N 	N 	0.67270 0.04640 0.74140 -0.19300
C 	C 	0.88460 0.99250 0.67920 0.12500
N 	N 	0.66970 0.19640 0.73490 -0.20000
N 	N 	0.56920 0.97430 0.73560 -0.13200
N 	N 	0.57020 0.27420 0.73380 -0.13100
C 	C 	0.83450 0.00620 0.77980 -0.01200
H 	H 	0.81720 0.00910 0.81630 -0.00100
N 	N 	0.83720 0.87020 0.45210 -0.14400
C 	C 	0.61620 0.24430 0.32510 0.11600
C 	C 	0.63900 0.18190 0.77790 0.10300
C 	C 	0.62900 0.07030 0.51030 -0.00500
H 	H 	0.63550 0.03210 0.53880 0.02000
C 	C 	0.65010 0.17350 0.50710 -0.06000
H 	H 	0.67340 0.21070 0.53300 0.03900
C 	C 	0.58350 0.07150 0.42980 0.00700
H 	H 	0.56110 0.03400 0.40360 0.01900
C 	C 	0.66840 0.28550 0.34160 -0.05500
H 	H 	0.68610 0.30920 0.38980 0.03600
C 	C 	0.58740 0.23760 0.38180 -0.27500
H 	H 	0.53830 0.24240 0.35090 0.09800
H 	H 	0.60470 0.27230 0.42110 0.09800
C 	C 	0.66790 0.25830 0.22540 -0.01900
H 	H 	0.68570 0.26140 0.18940 -0.00600
C 	C 	0.60290 0.17660 0.42660 0.12400
C 	C 	0.89880 0.92560 0.57700 0.12400
C 	C 	0.66150 0.12350 0.82850 -0.26500
H 	H 	0.64350 0.12410 0.86670 0.09900
H 	H 	0.71090 0.12370 0.86010 0.06000
C 	C 	0.63960 0.06410 0.78030 0.10300
C 	C 	0.92090 0.82100 0.57120 0.00600
H 	H 	0.94540 0.78400 0.59550 0.03000
C 	C 	0.87260 0.82060 0.49080 0.00100
H 	H 	0.86480 0.78230 0.46200 0.01800
C 	C 	0.61540 0.21810 0.20790 0.00700
H 	H 	0.59730 0.19480 0.15940 0.01900
C 	C 	0.91450 0.98620 0.62370 -0.27900
H 	H 	0.89840 0.02160 0.58530 0.10400
H 	H 	0.96360 0.99030 0.65580 0.11400
C 	C 	0.60110 0.28710 0.69080 -0.01000
H 	H 	0.58870 0.32370 0.65840 0.02400
C 	C 	0.88650 0.96420 0.79520 0.01300
H 	H 	0.90450 0.94000 0.84290 0.02400
C 	C 	0.65020 0.24880 0.69210 0.01200
H 	H 	0.67100 0.26030 0.66100 0.01200
C 	C 	0.83490 0.03490 0.66530 -0.06000
H 	H 	0.81790 0.06010 0.61850 0.03800
C 	C 	0.58920 0.22120 0.77680 -0.05000
H 	H 	0.56820 0.20980 0.80770 0.04200
C 	C 	0.58880 0.02610 0.77730 -0.04600
H 	H 	0.56710 0.03850 0.80710 0.04100
C 	C 	0.65360 0.99380 0.70010 0.01000
H 	H 	0.67610 0.98000 0.67180 0.01400
C 	C 	0.84940 0.92230 0.49600 -0.05700
H 	H 	0.82370 0.95870 0.47160 0.03700
C 	C 	0.60150 0.95810 0.69700 -0.00500
H 	H 	0.58890 0.92080 0.66580 0.02100
Ag	Ag	0.77420 0.12870 0.80120 0.44400
Ag	Ag	0.00000 0.37960 0.75000 0.52400
Ag	Ag	0.50000 0.12040 0.25000 0.54600
Ag	Ag	0.50000 0.63436 0.25000 0.54700
Ag	Ag	-0.00000 0.86564 0.75000 0.52600
Ag	Ag	0.72722 0.87808 0.19342 0.46400
N 	N 	0.57050 0.87490 0.88820 -0.17600
N 	N 	0.93250 0.12650 0.11410 -0.16900
N 	N 	0.66420 0.87940 0.04970 -0.14300
N 	N 	0.58880 0.78940 0.75720 -0.16000
N 	N 	0.69480 0.70650 0.79270 -0.16100
N 	N 	0.80940 0.95820 0.21540 -0.16100
N 	N 	0.91120 0.04300 0.24560 -0.15300
N 	N 	0.67270 0.95360 0.24140 -0.19300
C 	C 	0.88460 0.00750 0.17920 0.12600
N 	N 	0.66970 0.80360 0.23490 -0.20000
N 	N 	0.56920 0.02570 0.23560 -0.13200
N 	N 	0.57020 0.72580 0.23380 -0.13100
C 	C 	0.83450 0.99380 0.27980 -0.01200
H 	H 	0.81720 0.99090 0.31630 -0.00100
N 	N 	0.83720 0.12980 0.95210 -0.14300
C 	C 	0.61620 0.75570 0.82510 0.11500
C 	C 	0.63900 0.81810 0.27790 0.10300
C 	C 	0.62900 0.92970 0.01030 -0.00200
H 	H 	0.63550 0.96790 0.03880 0.02000
C 	C 	0.65010 0.82650 0.00710 -0.05700
H 	H 	0.67340 0.78930 0.03300 0.03900
C 	C 	0.58350 0.92850 0.92980 0.00300
H 	H 	0.56110 0.96600 0.90360 0.02000
C 	C 	0.66840 0.71450 0.84160 -0.05500
H 	H 	0.68610 0.69080 0.88980 0.03600
C 	C 	0.58740 0.76240 0.88180 -0.27300
H 	H 	0.53830 0.75760 0.85090 0.09800
H 	H 	0.60470 0.72770 0.92110 0.09700
C 	C 	0.66790 0.74170 0.72540 -0.01900
H 	H 	0.68570 0.73860 0.68940 -0.00600
C 	C 	0.60290 0.82340 0.92660 0.12100
C 	C 	0.89880 0.07440 0.07700 0.12700
C 	C 	0.66150 0.87650 0.32850 -0.26600
H 	H 	0.64350 0.87590 0.36670 0.09900
H 	H 	0.71090 0.87630 0.36010 0.06000
C 	C 	0.63960 0.93590 0.28030 0.10300
C 	C 	0.92090 0.17900 0.07120 0.01000
H 	H 	0.94540 0.21600 0.09550 0.02900
C 	C 	0.87260 0.17940 0.99080 -0.00400
H 	H 	0.86480 0.21770 0.96200 0.01900
C 	C 	0.61540 0.78190 0.70790 0.00700
H 	H 	0.59730 0.80520 0.65940 0.01900
C 	C 	0.91450 0.01380 0.12370 -0.28100
H 	H 	0.89840 0.97840 0.08530 0.10400
H 	H 	0.96360 0.00970 0.15580 0.11500
C 	C 	0.60110 0.71290 0.19080 -0.01000
H 	H 	0.58870 0.67630 0.15840 0.02400
C 	C 	0.88650 0.03580 0.29520 0.01400
H 	H 	0.90450 0.06000 0.34290 0.02400
C 	C 	0.65020 0.75120 0.19210 0.01300
H 	H 	0.67100 0.73970 0.16100 0.01200
C 	C 	0.83490 0.96510 0.16530 -0.06100
H 	H 	0.81790 0.93990 0.11850 0.03900
C 	C 	0.58920 0.77880 0.27680 -0.05000
H 	H 	0.56820 0.79020 0.30770 0.04200
C 	C 	0.58880 0.97390 0.27730 -0.04600
H 	H 	0.56710 0.96150 0.30710 0.04100
C 	C 	0.65360 0.00620 0.20010 0.01000
H 	H 	0.67610 0.02000 0.17180 0.01400
C 	C 	0.84940 0.07770 0.99600 -0.06100
H 	H 	0.82370 0.04130 0.97160 0.03800
C 	C 	0.60150 0.04190 0.19700 -0.00500
H 	H 	0.58890 0.07920 0.16580 0.02100
Ag	Ag	0.77420 0.87130 0.30120 0.44400
Ag	Ag	0.27278 0.87808 0.30658 0.46300
N 	N 	0.42950 0.87490 0.61180 -0.17700
N 	N 	0.06750 0.12650 0.38590 -0.18000
N 	N 	0.33580 0.87940 0.45030 -0.14200
N 	N 	0.41120 0.78940 0.74280 -0.16100
N 	N 	0.30520 0.70650 0.70730 -0.16100
N 	N 	0.19060 0.95820 0.28460 -0.16300
N 	N 	0.08880 0.04300 0.25440 -0.16500
N 	N 	0.32730 0.95360 0.25860 -0.19300
C 	C 	0.11540 0.00750 0.32080 0.11100
N 	N 	0.33030 0.80360 0.26510 -0.20000
N 	N 	0.43080 0.02570 0.26440 -0.13200
N 	N 	0.42980 0.72580 0.26620 -0.13100
C 	C 	0.16550 0.99380 0.22020 -0.01600
H 	H 	0.18280 0.99090 0.18370 -0.00300
N 	N 	0.16280 0.12980 0.54790 -0.14700
C 	C 	0.38380 0.75570 0.67490 0.11600
C 	C 	0.36100 0.81810 0.22210 0.10300
C 	C 	0.37100 0.92970 0.48970 -0.00500
H 	H 	0.36450 0.96790 0.46120 0.02000
C 	C 	0.34990 0.82650 0.49290 -0.06100
H 	H 	0.32660 0.78930 0.46700 0.03900
C 	C 	0.41650 0.92850 0.57020 0.00600
H 	H 	0.43890 0.96600 0.59640 0.01900
C 	C 	0.33160 0.71450 0.65840 -0.05500
H 	H 	0.31390 0.69080 0.61020 0.03700
C 	C 	0.41260 0.76240 0.61820 -0.27500
H 	H 	0.46170 0.75760 0.64910 0.09800
H 	H 	0.39530 0.72770 0.57890 0.09800
C 	C 	0.33210 0.74170 0.77460 -0.01900
H 	H 	0.31430 0.73860 0.81060 -0.00600
C 	C 	0.39710 0.82340 0.57340 0.12400
C 	C 	0.10120 0.07440 0.42300 0.10800
C 	C 	0.33850 0.87650 0.17150 -0.26600
H 	H 	0.35650 0.87590 0.13330 0.10000
H 	H 	0.28910 0.87630 0.13990 0.06000
C 	C 	0.36040 0.93590 0.21970 0.10300
C 	C 	0.07910 0.17900 0.42880 -0.00100
H 	H 	0.05460 0.21600 0.40450 0.01100
C 	C 	0.12740 0.17940 0.50920 -0.00600
H 	H 	0.13520 0.21770 0.53800 0.01300
C 	C 	0.38460 0.78190 0.79210 0.00700
H 	H 	0.40270 0.80520 0.84060 0.01800
C 	C 	0.08550 0.01380 0.37630 -0.26000
H 	H 	0.10160 0.97840 0.41470 0.08900
H 	H 	0.03640 0.00970 0.34420 0.08200
C 	C 	0.39890 0.71290 0.30920 -0.01000
H 	H 	0.41130 0.67630 0.34160 0.02400
C 	C 	0.11350 0.03580 0.20480 0.00700
H 	H 	0.09550 0.06000 0.15710 0.01100
C 	C 	0.34980 0.75120 0.30790 0.01200
H 	H 	0.32900 0.73970 0.33900 0.01200
C 	C 	0.16510 0.96510 0.33470 -0.05900
H 	H 	0.18210 0.93990 0.38150 0.03500
C 	C 	0.41080 0.77880 0.22320 -0.05100
H 	H 	0.43180 0.79020 0.19230 0.04200
C 	C 	0.41120 0.97390 0.22270 -0.04600
H 	H 	0.43290 0.96150 0.19290 0.04200
C 	C 	0.34640 0.00620 0.29990 0.01000
H 	H 	0.32390 0.02000 0.32820 0.01400
C 	C 	0.15060 0.07770 0.50400 -0.05600
H 	H 	0.17630 0.04130 0.52840 0.03400
C 	C 	0.39850 0.04190 0.30300 -0.00500
H 	H 	0.41110 0.07920 0.33420 0.02100
Ag	Ag	0.22580 0.87130 0.19880 0.44100
Ag	Ag	0.77278 0.62192 0.80658 0.46400
N 	N 	0.92950 0.62510 0.11180 -0.17000
N 	N 	0.56750 0.37350 0.88590 -0.17600
N 	N 	0.83580 0.62060 0.95030 -0.14000
N 	N 	0.91120 0.71060 0.24280 -0.15300
N 	N 	0.80520 0.79350 0.20730 -0.16000
N 	N 	0.69060 0.54180 0.78460 -0.16200
N 	N 	0.58880 0.45700 0.75440 -0.16000
N 	N 	0.82730 0.54640 0.75860 -0.19400
C 	C 	0.61540 0.49250 0.82080 0.11700
N 	N 	0.83030 0.69640 0.76510 -0.20000
N 	N 	0.93080 0.47430 0.76440 -0.12100
N 	N 	0.92980 0.77420 0.76620 -0.12000
C 	C 	0.66550 0.50620 0.72020 -0.01300
H 	H 	0.68280 0.50910 0.68370 -0.00200
N 	N 	0.66280 0.37020 0.04790 -0.14700
C 	C 	0.88380 0.74430 0.17490 0.12400
C 	C 	0.86100 0.68190 0.72210 0.10700
C 	C 	0.87100 0.57030 0.98970 -0.00700
H 	H 	0.86450 0.53210 0.96120 0.02400
C 	C 	0.84990 0.67350 0.99290 -0.06500
H 	H 	0.82660 0.71070 0.96700 0.04200
C 	C 	0.91650 0.57150 0.07020 0.01400
H 	H 	0.93890 0.53400 0.09640 0.02700
C 	C 	0.83160 0.78550 0.15840 -0.05600
H 	H 	0.81390 0.80920 0.11020 0.03800
C 	C 	0.91260 0.73760 0.11820 -0.28500
H 	H 	0.96170 0.74240 0.14910 0.11500
H 	H 	0.89530 0.77230 0.07890 0.10600
C 	C 	0.83210 0.75830 0.27460 -0.01700
H 	H 	0.81430 0.76140 0.31060 -0.00500
C 	C 	0.89710 0.67660 0.07340 0.13500
C 	C 	0.60120 0.42560 0.92300 0.11300
C 	C 	0.83850 0.62350 0.67150 -0.26800
H 	H 	0.85650 0.62410 0.63330 0.10300
H 	H 	0.78910 0.62370 0.63990 0.06100
C 	C 	0.86040 0.56410 0.71970 0.10800
C 	C 	0.57910 0.32100 0.92880 -0.00100
H 	H 	0.55460 0.28400 0.90450 0.02000
C 	C 	0.62740 0.32060 0.00920 0.00100
H 	H 	0.63520 0.28230 0.03800 0.01500
C 	C 	0.88460 0.71810 0.29210 0.01000
H 	H 	0.90270 0.69480 0.34060 0.02600
C 	C 	0.58550 0.48620 0.87630 -0.26800
H 	H 	0.60160 0.52160 0.91470 0.09600
H 	H 	0.53640 0.49030 0.84420 0.09700
C 	C 	0.89890 0.78710 0.80920 -0.00800
H 	H 	0.91130 0.82370 0.84160 0.03100
C 	C 	0.61350 0.46420 0.70480 0.01000
H 	H 	0.59550 0.44000 0.65710 0.01700
C 	C 	0.84980 0.74880 0.80790 0.01500
H 	H 	0.82900 0.76030 0.83900 0.01200
C 	C 	0.66510 0.53490 0.83470 -0.05900
H 	H 	0.68210 0.56010 0.88150 0.03600
C 	C 	0.91080 0.72120 0.72320 -0.04900
H 	H 	0.93180 0.70980 0.69230 0.05100
C 	C 	0.91120 0.52610 0.72270 -0.04400
H 	H 	0.93290 0.53850 0.69290 0.05100
C 	C 	0.84640 0.49380 0.79990 0.01300
H 	H 	0.82390 0.48000 0.82820 0.01500
C 	C 	0.65060 0.42230 0.00400 -0.05300
H 	H 	0.67630 0.45870 0.02840 0.03500
C 	C 	0.89850 0.45810 0.80300 -0.00300
H 	H 	0.91110 0.42080 0.83420 0.02800
Ag	Ag	0.72580 0.62870 0.69880 0.44200
Ag	Ag	0.22722 0.62192 0.69342 0.46200
N 	N 	0.07050 0.62510 0.38820 -0.18100
N 	N 	0.43250 0.37350 0.61410 -0.17700
N 	N 	0.16420 0.62060 0.54970 -0.14400
N 	N 	0.08880 0.71060 0.25720 -0.16500
N 	N 	0.19480 0.79350 0.29270 -0.16200
N 	N 	0.30940 0.54180 0.71540 -0.16200
N 	N 	0.41120 0.45700 0.74560 -0.16000
N 	N 	0.17270 0.54640 0.74140 -0.19300
C 	C 	0.38460 0.49250 0.67920 0.11700
N 	N 	0.16970 0.69640 0.73490 -0.20000
N 	N 	0.06920 0.47430 0.73560 -0.13900
N 	N 	0.07020 0.77420 0.73380 -0.13800
C 	C 	0.33450 0.50620 0.77980 -0.01400
H 	H 	0.31720 0.50910 0.81630 -0.00200
N 	N 	0.33720 0.37020 0.45210 -0.14600
C 	C 	0.11620 0.74430 0.32510 0.10900
C 	C 	0.13900 0.68190 0.77790 0.09900
C 	C 	0.12900 0.57030 0.51030 -0.00800
H 	H 	0.13550 0.53210 0.53880 0.01800
C 	C 	0.15010 0.67350 0.50710 -0.06000
H 	H 	0.17340 0.71070 0.53300 0.03800
C 	C 	0.08350 0.57150 0.42980 0.00300
H 	H 	0.06110 0.53400 0.40360 0.01100
C 	C 	0.16840 0.78550 0.34160 -0.05400
H 	H 	0.18610 0.80920 0.38980 0.03500
C 	C 	0.08740 0.73760 0.38180 -0.26500
H 	H 	0.03830 0.74240 0.35090 0.08300
H 	H 	0.10470 0.77230 0.42110 0.09100
C 	C 	0.16790 0.75830 0.22540 -0.02100
H 	H 	0.18570 0.76140 0.18940 -0.00700
C 	C 	0.10290 0.67660 0.42660 0.11600
C 	C 	0.39880 0.42560 0.57700 0.11600
C 	C 	0.16150 0.62350 0.82850 -0.26300
H 	H 	0.14350 0.62410 0.86670 0.09600
H 	H 	0.21090 0.62370 0.86010 0.06000
C 	C 	0.13960 0.56410 0.78030 0.09900
C 	C 	0.42090 0.32100 0.57120 0.00200
H 	H 	0.44540 0.28400 0.59550 0.01900
C 	C 	0.37260 0.32060 0.49080 -0.00300
H 	H 	0.36480 0.28230 0.46200 0.01600
C 	C 	0.11540 0.71810 0.20790 0.00400
H 	H 	0.09730 0.69480 0.15940 0.01300
C 	C 	0.41450 0.48620 0.62370 -0.27000
H 	H 	0.39840 0.52160 0.58530 0.09700
H 	H 	0.46360 0.49030 0.65580 0.09700
C 	C 	0.10110 0.78710 0.69080 -0.01300
H 	H 	0.08870 0.82370 0.65840 0.01700
C 	C 	0.38650 0.46420 0.79520 0.01000
H 	H 	0.40450 0.44000 0.84290 0.01700
C 	C 	0.15020 0.74880 0.69210 0.01000
H 	H 	0.17100 0.76030 0.66100 0.01100
C 	C 	0.33490 0.53490 0.66530 -0.05900
H 	H 	0.31790 0.56010 0.61850 0.03700
C 	C 	0.08920 0.72120 0.77680 -0.05200
H 	H 	0.06820 0.70980 0.80770 0.03400
C 	C 	0.08880 0.52610 0.77730 -0.04700
H 	H 	0.06710 0.53850 0.80710 0.03300
C 	C 	0.15360 0.49380 0.70010 0.00700
H 	H 	0.17610 0.48000 0.67180 0.01400
C 	C 	0.34940 0.42230 0.49600 -0.05700
H 	H 	0.32370 0.45870 0.47160 0.03600
C 	C 	0.10150 0.45810 0.69700 -0.00700
H 	H 	0.08890 0.42080 0.66580 0.01500
Ag	Ag	0.27420 0.62870 0.80120 0.44200
Ag	Ag	0.50000 0.87960 0.75000 0.54600
Ag	Ag	-0.00000 0.62040 0.25000 0.52400
Ag	Ag	-0.00000 0.13436 0.25000 0.52600
Ag	Ag	0.50000 0.36564 0.75000 0.54700
