data_crystal

_cell_length_a 24.45860
_cell_length_b 12.18230
_cell_length_c 25.82290
_cell_angle_alpha 90.00000
_cell_angle_beta  103.10800
_cell_angle_gamma 90.00000

_symmetry_space_group_name_	'P 1'
_symmetry_space_group_name_H-M	'P 1'

loop_
_symmetry_equiv_pos_as_xyz
  x,y,z

loop_
_atom_site_label
_atom_site_type_symbol
_atom_site_fract_x
_atom_site_fract_y
_atom_site_fract_z
_atom_site_charge
Ag	Ag	0.33128 0.67716 0.41206 0.54500
Ag	Ag	0.16422 0.32384 0.55000 0.53000
Ag	Ag	0.06515 0.67668 0.19304 0.54600
Ag	Ag	0.53170 0.82490 0.67618 0.24900
N 	N 	0.48950 0.16760 0.77380 -0.13900
N 	N 	0.10918 0.84200 0.15142 -0.16200
C 	C 	0.19462 0.67160 0.35629 0.11800
N 	N 	0.27723 0.57970 0.46142 -0.17500
C 	C 	0.19207 0.67310 0.41439 -0.26800
H 	H 	0.20880 0.74290 0.43020 0.09100
H 	H 	0.15210 0.67330 0.41630 0.09500
N 	N 	0.14648 0.67950 0.26486 -0.14100
N 	N 	0.10992 0.51040 0.14304 -0.16000
N 	N 	0.99112 0.71680 0.11344 -0.17100
C 	C 	0.00360 0.75580 0.06927 0.11600
N 	N 	0.98740 0.32160 0.26048 -0.12800
N 	N 	0.90728 0.79040 0.02927 -0.14400
N 	N 	0.14928 0.32310 0.10072 -0.15300
N 	N 	0.01794 0.51660 0.21777 -0.17400
N 	N 	0.24429 0.68090 0.34441 -0.17300
N 	N 	0.58566 0.97260 0.64362 -0.16600
C 	C 	0.14595 0.66980 0.31605 -0.05300
H 	H 	0.11090 0.66130 0.32550 0.03700
N 	N 	0.13354 0.03360 0.10070 -0.14600
N 	N 	0.21615 0.41970 0.50053 -0.15100
N 	N 	0.59800 0.68110 0.64990 -0.16800
C 	C 	0.49114 0.73530 0.55388 0.12000
N 	N 	0.50830 0.97440 0.72290 -0.17400
N 	N 	0.47146 0.76970 0.59516 -0.17000
C 	C 	0.19680 0.69060 0.25370 -0.00500
H 	H 	0.19930 0.69880 0.21770 0.02200
C 	C 	0.00945 0.42420 0.18909 0.12200
C 	C 	0.09495 0.85390 0.09821 0.11800
C 	C 	0.22099 0.58010 0.44788 0.11700
C 	C 	0.01613 0.42810 0.13251 -0.27200
H 	H 	0.99520 0.36600 0.11250 0.09700
H 	H 	0.99930 0.49700 0.11570 0.10000
C 	C 	0.19073 0.49900 0.46773 -0.05800
H 	H 	0.15090 0.50010 0.45760 0.03800
C 	C 	0.62280 0.60460 0.68380 0.01200
H 	H 	0.63370 0.62280 0.72050 0.01700
C 	C 	0.27220 0.41940 0.51260 -0.00900
H 	H 	0.29170 0.36320 0.53480 0.01200
C 	C 	0.07640 0.42230 0.12829 0.11700
C 	C 	0.55350 0.73440 0.55912 -0.27900
H 	H 	0.56160 0.71840 0.52400 0.09900
H 	H 	0.56880 0.80800 0.57030 0.10300
C 	C 	0.89540 0.74960 0.07328 -0.00700
H 	H 	0.85730 0.74500 0.07590 0.02100
C 	C 	0.58210 0.16030 0.62000 -0.05800
H 	H 	0.56050 0.22560 0.61250 0.03600
N 	N 	0.39916 0.70060 0.50190 -0.13500
C 	C 	0.49650 0.06660 0.63787 -0.27600
H 	H 	0.47690 0.13230 0.62010 0.09800
H 	H 	0.47670 0.00060 0.62080 0.09400
C 	C 	0.24510 0.69050 0.29300 0.00900
H 	H 	0.28020 0.69740 0.28350 0.01700
C 	C 	0.48680 0.16360 0.72130 -0.06100
H 	H 	0.47810 0.22890 0.70100 0.03800
C 	C 	0.55660 0.06580 0.63232 0.12100
C 	C 	0.59340 0.54560 0.58347 -0.06200
H 	H 	0.58230 0.52660 0.54690 0.04100
C 	C 	0.06449 0.75950 0.06635 -0.27100
H 	H 	0.06690 0.76710 0.02880 0.09600
H 	H 	0.08290 0.68970 0.08010 0.09700
C 	C 	0.49610 0.06800 0.69560 0.12300
C 	C 	0.45360 0.69980 0.50766 -0.05400
H 	H 	0.46840 0.67380 0.47900 0.03700
C 	C 	0.41560 0.77090 0.58940 0.00700
H 	H 	0.40040 0.79660 0.61790 0.01500
N 	N 	0.61900 0.46940 0.61780 -0.14200
C 	C 	0.37980 0.73610 0.54360 -0.01000
H 	H 	0.34050 0.73720 0.54130 0.02200
C 	C 	0.30240 0.49990 0.49320 0.00800
H 	H 	0.34220 0.49800 0.50300 0.01700
C 	C 	0.96115 0.79380 0.02761 -0.05500
H 	H 	0.97110 0.82320 0.99690 0.03300
C 	C 	0.09710 0.32880 0.10801 -0.05700
H 	H 	0.07310 0.26700 0.09910 0.03300
C 	C 	0.93750 0.71360 0.11559 0.00800
H 	H 	0.92760 0.68610 0.14670 0.02100
C 	C 	0.14680 0.02290 0.15341 -0.00400
H 	H 	0.16500 0.08210 0.17440 0.02000
C 	C 	0.10668 0.94870 0.07340 -0.06000
H 	H 	0.09530 0.95370 0.03580 0.03500
C 	C 	0.16190 0.50260 0.13659 0.00900
H 	H 	0.18670 0.56290 0.14700 0.01800
C 	C 	0.99400 0.32840 0.21080 -0.05600
H 	H 	0.98770 0.26440 0.18920 0.04000
C 	C 	0.99600 0.41500 0.28843 -0.01300
H 	H 	0.99170 0.41510 0.32410 0.03200
C 	C 	0.01070 0.51040 0.26705 0.01700
H 	H 	0.01590 0.57480 0.28840 0.01200
C 	C 	0.18210 0.41020 0.11523 -0.00800
H 	H 	0.21960 0.40930 0.11090 0.01300
C 	C 	0.64000 0.97590 0.64200 0.00300
H 	H 	0.66180 0.91080 0.64930 0.02100
C 	C 	0.13500 0.92860 0.17867 0.00400
H 	H 	0.14550 0.92500 0.21640 0.02500
C 	C 	0.58250 0.65080 0.59859 0.12200
C 	C 	0.66540 0.07120 0.62990 -0.00200
H 	H 	0.70430 0.07080 0.63010 0.01800
C 	C 	0.50370 0.07400 0.80040 -0.00900
H 	H 	0.50790 0.07340 0.83790 0.03000
C 	C 	0.51250 0.97900 0.77530 0.01200
H 	H 	0.52190 0.91420 0.79580 0.01200
C 	C 	0.63320 0.50080 0.66830 -0.00700
H 	H 	0.65120 0.44970 0.69450 0.02200
N 	N 	0.63616 0.16270 0.61817 -0.14900
Ag	Ag	0.54080 0.81110 0.68190 0.25500
Ag	Ag	0.66872 0.17716 0.08794 0.54600
Ag	Ag	0.83578 0.82384 0.95000 0.53100
Ag	Ag	0.93485 0.17668 0.30696 0.54700
Ag	Ag	0.46830 0.32490 0.82382 0.25000
N 	N 	0.51050 0.66760 0.72620 -0.13900
N 	N 	0.89082 0.34200 0.34858 -0.16200
C 	C 	0.80538 0.17160 0.14371 0.11700
N 	N 	0.72277 0.07970 0.03858 -0.17600
C 	C 	0.80793 0.17310 0.08561 -0.26700
H 	H 	0.79120 0.24290 0.06980 0.09000
H 	H 	0.84790 0.17330 0.08370 0.09500
N 	N 	0.85352 0.17950 0.23514 -0.14100
N 	N 	0.89008 0.01040 0.35696 -0.16000
N 	N 	0.00888 0.21680 0.38656 -0.17100
C 	C 	0.99640 0.25580 0.43073 0.11700
N 	N 	0.01260 0.82160 0.23952 -0.12800
N 	N 	0.09272 0.29040 0.47073 -0.14400
N 	N 	0.85072 0.82310 0.39928 -0.15400
N 	N 	0.98206 0.01660 0.28223 -0.17400
N 	N 	0.75571 0.18090 0.15559 -0.17300
N 	N 	0.41434 0.47260 0.85638 -0.16600
C 	C 	0.85405 0.16980 0.18395 -0.05300
H 	H 	0.88910 0.16130 0.17450 0.03700
N 	N 	0.86646 0.53360 0.39930 -0.14600
N 	N 	0.78385 0.91970 0.99947 -0.15100
N 	N 	0.40200 0.18110 0.85010 -0.16800
C 	C 	0.50886 0.23530 0.94612 0.12000
N 	N 	0.49170 0.47440 0.77710 -0.17400
N 	N 	0.52854 0.26970 0.90484 -0.17000
C 	C 	0.80320 0.19060 0.24630 -0.00500
H 	H 	0.80070 0.19880 0.28230 0.02200
C 	C 	0.99055 0.92420 0.31091 0.12300
C 	C 	0.90505 0.35390 0.40179 0.11800
C 	C 	0.77901 0.08010 0.05212 0.11500
C 	C 	0.98387 0.92810 0.36749 -0.26900
H 	H 	0.00480 0.86600 0.38750 0.09500
H 	H 	0.00070 0.99700 0.38430 0.09800
C 	C 	0.80927 0.99900 0.03227 -0.05400
H 	H 	0.84910 0.00010 0.04240 0.03600
C 	C 	0.37720 0.10460 0.81620 0.01100
H 	H 	0.36630 0.12280 0.77950 0.01700
C 	C 	0.72780 0.91940 0.98740 -0.01000
H 	H 	0.70830 0.86320 0.96520 0.01200
C 	C 	0.92360 0.92230 0.37171 0.11700
C 	C 	0.44650 0.23440 0.94088 -0.27800
H 	H 	0.43840 0.21840 0.97600 0.09900
H 	H 	0.43120 0.30800 0.92970 0.10300
C 	C 	0.10460 0.24960 0.42672 -0.00700
H 	H 	0.14270 0.24500 0.42410 0.02100
C 	C 	0.41790 0.66030 0.88000 -0.05800
H 	H 	0.43950 0.72560 0.88750 0.03500
N 	N 	0.60084 0.20060 0.99810 -0.13500
C 	C 	0.50350 0.56660 0.86213 -0.27600
H 	H 	0.52310 0.63230 0.87990 0.09800
H 	H 	0.52330 0.50060 0.87920 0.09400
C 	C 	0.75490 0.19050 0.20700 0.00900
H 	H 	0.71980 0.19740 0.21650 0.01700
C 	C 	0.51320 0.66360 0.77870 -0.06100
H 	H 	0.52190 0.72890 0.79900 0.03800
C 	C 	0.44340 0.56580 0.86768 0.12100
C 	C 	0.40660 0.04560 0.91653 -0.06100
H 	H 	0.41770 0.02660 0.95310 0.04100
C 	C 	0.93551 0.25950 0.43365 -0.27200
H 	H 	0.93310 0.26710 0.47120 0.09600
H 	H 	0.91710 0.18970 0.41990 0.09700
C 	C 	0.50390 0.56800 0.80440 0.12300
C 	C 	0.54640 0.19980 0.99234 -0.05300
H 	H 	0.53160 0.17380 0.02100 0.03700
C 	C 	0.58440 0.27090 0.91060 0.00700
H 	H 	0.59960 0.29660 0.88210 0.01500
N 	N 	0.38100 0.96940 0.88220 -0.14300
C 	C 	0.62020 0.23610 0.95640 -0.01000
H 	H 	0.65950 0.23720 0.95870 0.02200
C 	C 	0.69760 0.99990 0.00680 0.01100
H 	H 	0.65780 0.99800 0.99700 0.01600
C 	C 	0.03885 0.29380 0.47239 -0.05700
H 	H 	0.02890 0.32320 0.50310 0.03400
C 	C 	0.90290 0.82880 0.39199 -0.05600
H 	H 	0.92690 0.76700 0.40090 0.03200
C 	C 	0.06250 0.21360 0.38441 0.00800
H 	H 	0.07240 0.18610 0.35330 0.02100
C 	C 	0.85320 0.52290 0.34659 -0.00400
H 	H 	0.83500 0.58210 0.32560 0.02100
C 	C 	0.89332 0.44870 0.42660 -0.06000
H 	H 	0.90470 0.45370 0.46420 0.03500
C 	C 	0.83810 0.00260 0.36341 0.00800
H 	H 	0.81330 0.06290 0.35300 0.01800
C 	C 	0.00600 0.82840 0.28920 -0.05700
H 	H 	0.01230 0.76440 0.31080 0.04100
C 	C 	0.00400 0.91500 0.21157 -0.01400
H 	H 	0.00830 0.91510 0.17590 0.03200
C 	C 	0.98930 0.01040 0.23295 0.01700
H 	H 	0.98410 0.07480 0.21160 0.01200
C 	C 	0.81790 0.91020 0.38477 -0.00700
H 	H 	0.78040 0.90930 0.38910 0.01300
C 	C 	0.36000 0.47590 0.85800 0.00300
H 	H 	0.33820 0.41080 0.85070 0.02100
C 	C 	0.86500 0.42860 0.32133 0.00500
H 	H 	0.85450 0.42500 0.28360 0.02500
C 	C 	0.41750 0.15080 0.90141 0.12200
C 	C 	0.33460 0.57120 0.87010 -0.00200
H 	H 	0.29570 0.57080 0.86990 0.01800
C 	C 	0.49630 0.57400 0.69960 -0.00900
H 	H 	0.49210 0.57340 0.66210 0.03000
C 	C 	0.48750 0.47900 0.72470 0.01200
H 	H 	0.47810 0.41420 0.70420 0.01200
C 	C 	0.36680 0.00080 0.83170 -0.00600
H 	H 	0.34880 0.94970 0.80550 0.02100
N 	N 	0.36384 0.66270 0.88183 -0.14900
Ag	Ag	0.45920 0.31110 0.81810 0.25500
Ag	Ag	0.66872 0.32284 0.58794 0.54600
Ag	Ag	0.83578 0.67616 0.45000 0.53100
Ag	Ag	0.93485 0.32332 0.80696 0.54700
Ag	Ag	0.46830 0.17510 0.32382 0.25000
N 	N 	0.51050 0.83240 0.22620 -0.13900
N 	N 	0.89082 0.15800 0.84858 -0.16200
C 	C 	0.80538 0.32840 0.64371 0.11800
N 	N 	0.72277 0.42030 0.53858 -0.17500
C 	C 	0.80793 0.32690 0.58561 -0.26800
H 	H 	0.79120 0.25710 0.56980 0.09100
H 	H 	0.84790 0.32670 0.58370 0.09500
N 	N 	0.85352 0.32050 0.73514 -0.14100
N 	N 	0.89008 0.48960 0.85696 -0.16000
N 	N 	0.00888 0.28320 0.88656 -0.17100
C 	C 	0.99640 0.24420 0.93073 0.11600
N 	N 	0.01260 0.67840 0.73952 -0.12800
N 	N 	0.09272 0.20960 0.97073 -0.14400
N 	N 	0.85072 0.67690 0.89928 -0.15300
N 	N 	0.98206 0.48340 0.78223 -0.17400
N 	N 	0.75571 0.31910 0.65559 -0.17300
N 	N 	0.41434 0.02740 0.35638 -0.16600
C 	C 	0.85405 0.33020 0.68395 -0.05300
H 	H 	0.88910 0.33870 0.67450 0.03700
N 	N 	0.86646 0.96640 0.89930 -0.14600
N 	N 	0.78385 0.58030 0.49947 -0.15100
N 	N 	0.40200 0.31890 0.35010 -0.16800
C 	C 	0.50886 0.26470 0.44612 0.12000
N 	N 	0.49170 0.02560 0.27710 -0.17400
N 	N 	0.52854 0.23030 0.40484 -0.17000
C 	C 	0.80320 0.30940 0.74630 -0.00500
H 	H 	0.80070 0.30120 0.78230 0.02200
C 	C 	0.99055 0.57580 0.81091 0.12200
C 	C 	0.90505 0.14610 0.90179 0.11800
C 	C 	0.77901 0.41990 0.55212 0.11700
C 	C 	0.98387 0.57190 0.86749 -0.27200
H 	H 	0.00480 0.63400 0.88750 0.09700
H 	H 	0.00070 0.50300 0.88430 0.10000
C 	C 	0.80927 0.50100 0.53227 -0.05800
H 	H 	0.84910 0.49990 0.54240 0.03800
C 	C 	0.37720 0.39540 0.31620 0.01200
H 	H 	0.36630 0.37720 0.27950 0.01700
C 	C 	0.72780 0.58060 0.48740 -0.00900
H 	H 	0.70830 0.63680 0.46520 0.01200
C 	C 	0.92360 0.57770 0.87171 0.11700
C 	C 	0.44650 0.26560 0.44088 -0.27900
H 	H 	0.43840 0.28160 0.47600 0.09900
H 	H 	0.43120 0.19200 0.42970 0.10300
C 	C 	0.10460 0.25040 0.92672 -0.00700
H 	H 	0.14270 0.25500 0.92410 0.02100
C 	C 	0.41790 0.83970 0.38000 -0.05800
H 	H 	0.43950 0.77440 0.38750 0.03600
N 	N 	0.60084 0.29940 0.49810 -0.13500
C 	C 	0.50350 0.93340 0.36213 -0.27600
H 	H 	0.52310 0.86770 0.37990 0.09800
H 	H 	0.52330 0.99940 0.37920 0.09400
C 	C 	0.75490 0.30950 0.70700 0.00900
H 	H 	0.71980 0.30260 0.71650 0.01700
C 	C 	0.51320 0.83640 0.27870 -0.06100
H 	H 	0.52190 0.77110 0.29900 0.03800
C 	C 	0.44340 0.93420 0.36768 0.12100
C 	C 	0.40660 0.45440 0.41653 -0.06200
H 	H 	0.41770 0.47340 0.45310 0.04100
C 	C 	0.93551 0.24050 0.93365 -0.27100
H 	H 	0.93310 0.23290 0.97120 0.09600
H 	H 	0.91710 0.31030 0.91990 0.09700
C 	C 	0.50390 0.93200 0.30440 0.12300
C 	C 	0.54640 0.30020 0.49234 -0.05400
H 	H 	0.53160 0.32620 0.52100 0.03700
C 	C 	0.58440 0.22910 0.41060 0.00700
H 	H 	0.59960 0.20340 0.38210 0.01500
N 	N 	0.38100 0.53060 0.38220 -0.14200
C 	C 	0.62020 0.26390 0.45640 -0.01000
H 	H 	0.65950 0.26280 0.45870 0.02200
C 	C 	0.69760 0.50010 0.50680 0.00800
H 	H 	0.65780 0.50200 0.49700 0.01700
C 	C 	0.03885 0.20620 0.97239 -0.05500
H 	H 	0.02890 0.17680 0.00310 0.03300
C 	C 	0.90290 0.67120 0.89199 -0.05700
H 	H 	0.92690 0.73300 0.90090 0.03300
C 	C 	0.06250 0.28640 0.88441 0.00800
H 	H 	0.07240 0.31390 0.85330 0.02100
C 	C 	0.85320 0.97710 0.84659 -0.00400
H 	H 	0.83500 0.91790 0.82560 0.02000
C 	C 	0.89332 0.05130 0.92660 -0.06000
H 	H 	0.90470 0.04630 0.96420 0.03500
C 	C 	0.83810 0.49740 0.86341 0.00900
H 	H 	0.81330 0.43710 0.85300 0.01800
C 	C 	0.00600 0.67160 0.78920 -0.05600
H 	H 	0.01230 0.73560 0.81080 0.04000
C 	C 	0.00400 0.58500 0.71157 -0.01300
H 	H 	0.00830 0.58490 0.67590 0.03200
C 	C 	0.98930 0.48960 0.73295 0.01700
H 	H 	0.98410 0.42520 0.71160 0.01200
C 	C 	0.81790 0.58980 0.88477 -0.00800
H 	H 	0.78040 0.59070 0.88910 0.01300
C 	C 	0.36000 0.02410 0.35800 0.00300
H 	H 	0.33820 0.08920 0.35070 0.02100
C 	C 	0.86500 0.07140 0.82133 0.00400
H 	H 	0.85450 0.07500 0.78360 0.02500
C 	C 	0.41750 0.34920 0.40141 0.12200
C 	C 	0.33460 0.92880 0.37010 -0.00200
H 	H 	0.29570 0.92920 0.36990 0.01800
C 	C 	0.49630 0.92600 0.19960 -0.00900
H 	H 	0.49210 0.92660 0.16210 0.03000
C 	C 	0.48750 0.02100 0.22470 0.01200
H 	H 	0.47810 0.08580 0.20420 0.01200
C 	C 	0.36680 0.49920 0.33170 -0.00700
H 	H 	0.34880 0.55030 0.30550 0.02200
N 	N 	0.36384 0.83730 0.38183 -0.14900
Ag	Ag	0.45920 0.18890 0.31810 0.25500
Ag	Ag	0.33128 0.82284 0.91206 0.54600
Ag	Ag	0.16422 0.17616 0.05000 0.53100
Ag	Ag	0.06515 0.82332 0.69304 0.54700
Ag	Ag	0.53170 0.67510 0.17618 0.25000
N 	N 	0.48950 0.33240 0.27380 -0.13900
N 	N 	0.10918 0.65800 0.65142 -0.16200
C 	C 	0.19462 0.82840 0.85629 0.11700
N 	N 	0.27723 0.92030 0.96142 -0.17600
C 	C 	0.19207 0.82690 0.91439 -0.26700
H 	H 	0.20880 0.75710 0.93020 0.09000
H 	H 	0.15210 0.82670 0.91630 0.09500
N 	N 	0.14648 0.82050 0.76486 -0.14100
N 	N 	0.10992 0.98960 0.64304 -0.16000
N 	N 	0.99112 0.78320 0.61344 -0.17100
C 	C 	0.00360 0.74420 0.56927 0.11700
N 	N 	0.98740 0.17840 0.76048 -0.12800
N 	N 	0.90728 0.70960 0.52927 -0.14400
N 	N 	0.14928 0.17690 0.60072 -0.15400
N 	N 	0.01794 0.98340 0.71777 -0.17400
N 	N 	0.24429 0.81910 0.84441 -0.17300
N 	N 	0.58566 0.52740 0.14362 -0.16600
C 	C 	0.14595 0.83020 0.81605 -0.05300
H 	H 	0.11090 0.83870 0.82550 0.03700
N 	N 	0.13354 0.46640 0.60070 -0.14600
N 	N 	0.21615 0.08030 0.00053 -0.15100
N 	N 	0.59800 0.81890 0.14990 -0.16800
C 	C 	0.49114 0.76470 0.05388 0.12000
N 	N 	0.50830 0.52560 0.22290 -0.17400
N 	N 	0.47146 0.73030 0.09516 -0.17000
C 	C 	0.19680 0.80940 0.75370 -0.00500
H 	H 	0.19930 0.80120 0.71770 0.02200
C 	C 	0.00945 0.07580 0.68909 0.12300
C 	C 	0.09495 0.64610 0.59821 0.11800
C 	C 	0.22099 0.91990 0.94788 0.11500
C 	C 	0.01613 0.07190 0.63251 -0.26900
H 	H 	0.99520 0.13400 0.61250 0.09500
H 	H 	0.99930 0.00300 0.61570 0.09800
C 	C 	0.19073 0.00100 0.96773 -0.05400
H 	H 	0.15090 0.99990 0.95760 0.03600
C 	C 	0.62280 0.89540 0.18380 0.01100
H 	H 	0.63370 0.87720 0.22050 0.01700
C 	C 	0.27220 0.08060 0.01260 -0.01000
H 	H 	0.29170 0.13680 0.03480 0.01200
C 	C 	0.07640 0.07770 0.62829 0.11700
C 	C 	0.55350 0.76560 0.05912 -0.27800
H 	H 	0.56160 0.78160 0.02400 0.09900
H 	H 	0.56880 0.69200 0.07030 0.10300
C 	C 	0.89540 0.75040 0.57328 -0.00700
H 	H 	0.85730 0.75500 0.57590 0.02100
C 	C 	0.58210 0.33970 0.12000 -0.05800
H 	H 	0.56050 0.27440 0.11250 0.03500
N 	N 	0.39916 0.79940 0.00190 -0.13500
C 	C 	0.49650 0.43340 0.13787 -0.27600
H 	H 	0.47690 0.36770 0.12010 0.09800
H 	H 	0.47670 0.49940 0.12080 0.09400
C 	C 	0.24510 0.80950 0.79300 0.00900
H 	H 	0.28020 0.80260 0.78350 0.01700
C 	C 	0.48680 0.33640 0.22130 -0.06100
H 	H 	0.47810 0.27110 0.20100 0.03800
C 	C 	0.55660 0.43420 0.13232 0.12100
C 	C 	0.59340 0.95440 0.08347 -0.06100
H 	H 	0.58230 0.97340 0.04690 0.04100
C 	C 	0.06449 0.74050 0.56635 -0.27200
H 	H 	0.06690 0.73290 0.52880 0.09600
H 	H 	0.08290 0.81030 0.58010 0.09700
C 	C 	0.49610 0.43200 0.19560 0.12300
C 	C 	0.45360 0.80020 0.00766 -0.05300
H 	H 	0.46840 0.82620 0.97900 0.03700
C 	C 	0.41560 0.72910 0.08940 0.00700
H 	H 	0.40040 0.70340 0.11790 0.01500
N 	N 	0.61900 0.03060 0.11780 -0.14300
C 	C 	0.37980 0.76390 0.04360 -0.01000
H 	H 	0.34050 0.76280 0.04130 0.02200
C 	C 	0.30240 0.00010 0.99320 0.01100
H 	H 	0.34220 0.00200 0.00300 0.01600
C 	C 	0.96115 0.70620 0.52761 -0.05700
H 	H 	0.97110 0.67680 0.49690 0.03400
C 	C 	0.09710 0.17120 0.60801 -0.05600
H 	H 	0.07310 0.23300 0.59910 0.03200
C 	C 	0.93750 0.78640 0.61559 0.00800
H 	H 	0.92760 0.81390 0.64670 0.02100
C 	C 	0.14680 0.47710 0.65341 -0.00400
H 	H 	0.16500 0.41790 0.67440 0.02100
C 	C 	0.10668 0.55130 0.57340 -0.06000
H 	H 	0.09530 0.54630 0.53580 0.03500
C 	C 	0.16190 0.99740 0.63659 0.00800
H 	H 	0.18670 0.93710 0.64700 0.01800
C 	C 	0.99400 0.17160 0.71080 -0.05700
H 	H 	0.98770 0.23560 0.68920 0.04100
C 	C 	0.99600 0.08500 0.78843 -0.01400
H 	H 	0.99170 0.08490 0.82410 0.03200
C 	C 	0.01070 0.98960 0.76705 0.01700
H 	H 	0.01590 0.92520 0.78840 0.01200
C 	C 	0.18210 0.08980 0.61523 -0.00700
H 	H 	0.21960 0.09070 0.61090 0.01300
C 	C 	0.64000 0.52410 0.14200 0.00300
H 	H 	0.66180 0.58920 0.14930 0.02100
C 	C 	0.13500 0.57140 0.67867 0.00500
H 	H 	0.14550 0.57500 0.71640 0.02500
C 	C 	0.58250 0.84920 0.09859 0.12200
C 	C 	0.66540 0.42880 0.12990 -0.00200
H 	H 	0.70430 0.42920 0.13010 0.01800
C 	C 	0.50370 0.42600 0.30040 -0.00900
H 	H 	0.50790 0.42660 0.33790 0.03000
C 	C 	0.51250 0.52100 0.27530 0.01200
H 	H 	0.52190 0.58580 0.29580 0.01200
C 	C 	0.63320 0.99920 0.16830 -0.00600
H 	H 	0.65120 0.05030 0.19450 0.02100
N 	N 	0.63616 0.33730 0.11817 -0.14900
Ag	Ag	0.54080 0.68890 0.18190 0.25500
