data_crystal

_cell_length_a 25.20200
_cell_length_b 13.22700
_cell_length_c 21.53300
_cell_angle_alpha 90.00000
_cell_angle_beta  123.63300
_cell_angle_gamma 90.00000

_symmetry_space_group_name_	'P 1'
_symmetry_space_group_name_H-M	'P 1'

loop_
_symmetry_equiv_pos_as_xyz
  x,y,z

loop_
_atom_site_label
_atom_site_type_symbol
_atom_site_fract_x
_atom_site_fract_y
_atom_site_fract_z
_atom_site_charge
Cu	Cu	0.57547 0.37748 0.01179 0.78000
C 	C 	0.42130 0.34650 0.79400 1.04900
C 	C 	0.38550 0.28200 0.60440 -3.87600
H 	H 	0.34080 0.26360 0.57480 1.15000
H 	H 	0.38880 0.35300 0.59580 1.14200
C 	C 	0.38880 0.34090 0.71350 -2.43200
H 	H 	0.34390 0.32830 0.69150 0.72900
H 	H 	0.39260 0.40570 0.69520 0.67300
C 	C 	0.39480 0.34940 0.83330 -0.58200
H 	H 	0.35120 0.34480 0.81210 0.20900
C 	C 	0.71300 0.42180 0.06840 0.14500
H 	H 	0.72590 0.35470 0.07380 -0.07300
C 	C 	0.48420 0.35880 0.84520 -0.56900
H 	H 	0.51490 0.36160 0.83410 0.23300
C 	C 	0.41780 0.22520 0.58110 4.45500
H 	H 	0.39890 0.23600 0.52880 -1.31800
H 	H 	0.41500 0.15480 0.58990 -1.26100
H 	H 	0.46170 0.24540 0.60850 -1.26800
C 	C 	0.41320 0.26510 0.69040 2.82200
H 	H 	0.40070 0.19900 0.69760 -0.81100
H 	H 	0.45940 0.26830 0.71950 -0.79400
N 	N 	0.43720 0.35950 0.90460 -0.13200
N 	N 	0.49640 0.36650 0.91330 -0.14800
N 	N 	0.65480 0.44890 0.04320 -0.26300
Cu	Cu	0.42453 0.37748 0.98821 0.78100
C 	C 	0.57870 0.34650 0.20600 1.04700
C 	C 	0.61450 0.28200 0.39560 -3.87600
H 	H 	0.65920 0.26360 0.42520 1.15100
H 	H 	0.61120 0.35300 0.40420 1.14100
C 	C 	0.61120 0.34090 0.28650 -2.43100
H 	H 	0.65610 0.32830 0.30850 0.72900
H 	H 	0.60740 0.40570 0.30480 0.67200
C 	C 	0.60520 0.34940 0.16670 -0.58200
H 	H 	0.64880 0.34480 0.18790 0.20900
C 	C 	0.28700 0.42180 0.93160 0.14600
H 	H 	0.27410 0.35470 0.92620 -0.07300
C 	C 	0.51580 0.35880 0.15480 -0.56900
H 	H 	0.48510 0.36160 0.16590 0.23300
C 	C 	0.58220 0.22520 0.41890 4.45400
H 	H 	0.60110 0.23600 0.47120 -1.31800
H 	H 	0.58500 0.15480 0.41010 -1.26100
H 	H 	0.53830 0.24540 0.39150 -1.26800
C 	C 	0.58680 0.26510 0.30960 2.82100
H 	H 	0.59930 0.19900 0.30240 -0.81000
H 	H 	0.54060 0.26830 0.28050 -0.79400
N 	N 	0.56280 0.35950 0.09540 -0.13300
N 	N 	0.50360 0.36650 0.08670 -0.14900
N 	N 	0.34520 0.44890 0.95680 -0.26200
Cu	Cu	0.42453 0.62252 0.98821 0.78100
C 	C 	0.57870 0.65350 0.20600 1.04300
C 	C 	0.61450 0.71800 0.39560 -3.86100
H 	H 	0.65920 0.73640 0.42520 1.14600
H 	H 	0.61120 0.64700 0.40420 1.13700
C 	C 	0.61120 0.65910 0.28650 -2.42100
H 	H 	0.65610 0.67170 0.30850 0.72600
H 	H 	0.60740 0.59430 0.30480 0.67000
C 	C 	0.60520 0.65060 0.16670 -0.57900
H 	H 	0.64880 0.65520 0.18790 0.20800
C 	C 	0.28700 0.57820 0.93160 0.14600
H 	H 	0.27410 0.64530 0.92620 -0.07200
C 	C 	0.51580 0.64120 0.15480 -0.56700
H 	H 	0.48510 0.63840 0.16590 0.23200
C 	C 	0.58220 0.77480 0.41890 4.43500
H 	H 	0.60110 0.76400 0.47120 -1.31200
H 	H 	0.58500 0.84520 0.41010 -1.25600
H 	H 	0.53830 0.75460 0.39150 -1.26300
C 	C 	0.58680 0.73490 0.30960 2.81000
H 	H 	0.59930 0.80100 0.30240 -0.80800
H 	H 	0.54060 0.73170 0.28050 -0.79100
N 	N 	0.56280 0.64050 0.09540 -0.13300
N 	N 	0.50360 0.63350 0.08670 -0.15000
N 	N 	0.34520 0.55110 0.95680 -0.26200
Cu	Cu	0.57547 0.62252 0.01179 0.77900
C 	C 	0.42130 0.65350 0.79400 1.04300
C 	C 	0.38550 0.71800 0.60440 -3.86100
H 	H 	0.34080 0.73640 0.57480 1.14500
H 	H 	0.38880 0.64700 0.59580 1.13700
C 	C 	0.38880 0.65910 0.71350 -2.42200
H 	H 	0.34390 0.67170 0.69150 0.72700
H 	H 	0.39260 0.59430 0.69520 0.67000
C 	C 	0.39480 0.65060 0.83330 -0.58000
H 	H 	0.35120 0.65520 0.81210 0.20800
C 	C 	0.71300 0.57820 0.06840 0.14500
H 	H 	0.72590 0.64530 0.07380 -0.07300
C 	C 	0.48420 0.64120 0.84520 -0.56700
H 	H 	0.51490 0.63840 0.83410 0.23200
C 	C 	0.41780 0.77480 0.58110 4.43600
H 	H 	0.39890 0.76400 0.52880 -1.31300
H 	H 	0.41500 0.84520 0.58990 -1.25700
H 	H 	0.46170 0.75460 0.60850 -1.26300
C 	C 	0.41320 0.73490 0.69040 2.81000
H 	H 	0.40070 0.80100 0.69760 -0.80800
H 	H 	0.45940 0.73170 0.71950 -0.79100
N 	N 	0.43720 0.64050 0.90460 -0.13300
N 	N 	0.49640 0.63350 0.91330 -0.14800
N 	N 	0.65480 0.55110 0.04320 -0.26300
C 	C 	0.75220 0.50000 0.08580 -0.25300
H 	H 	0.79560 0.50000 0.10510 0.10700
C 	C 	0.24780 0.50000 0.91420 -0.25300
H 	H 	0.20440 0.50000 0.89490 0.10900
Cu	Cu	0.07547 0.87748 0.01179 0.78300
C 	C 	0.92130 0.84650 0.79400 1.01700
C 	C 	0.88550 0.78200 0.60440 -3.70400
H 	H 	0.84080 0.76360 0.57480 1.09800
H 	H 	0.88880 0.85300 0.59580 1.08900
C 	C 	0.88880 0.84090 0.71350 -2.34500
H 	H 	0.84390 0.82830 0.69150 0.70400
H 	H 	0.89260 0.90570 0.69520 0.64700
C 	C 	0.89480 0.84940 0.83330 -0.56400
H 	H 	0.85120 0.84480 0.81210 0.20200
C 	C 	0.21300 0.92180 0.06840 0.13900
H 	H 	0.22590 0.85470 0.07380 -0.07100
C 	C 	0.98420 0.85880 0.84520 -0.57500
H 	H 	0.01490 0.86160 0.83410 0.24200
C 	C 	0.91780 0.72520 0.58110 4.24000
H 	H 	0.89890 0.73600 0.52880 -1.25400
H 	H 	0.91500 0.65480 0.58990 -1.20200
H 	H 	0.96170 0.74540 0.60850 -1.21000
C 	C 	0.91320 0.76510 0.69040 2.70100
H 	H 	0.90070 0.69900 0.69760 -0.77700
H 	H 	0.95940 0.76830 0.71950 -0.76300
N 	N 	0.93720 0.85950 0.90460 -0.13700
N 	N 	0.99640 0.86650 0.91330 -0.15200
N 	N 	0.15480 0.94890 0.04320 -0.26200
Cu	Cu	0.92453 0.87748 0.98821 0.77800
C 	C 	0.07870 0.84650 0.20600 1.07300
C 	C 	0.11450 0.78200 0.39560 -4.06000
H 	H 	0.15920 0.76360 0.42520 1.20500
H 	H 	0.11120 0.85300 0.40420 1.19600
C 	C 	0.11120 0.84090 0.28650 -2.51600
H 	H 	0.15610 0.82830 0.30850 0.75400
H 	H 	0.10740 0.90570 0.30480 0.69600
C 	C 	0.10520 0.84940 0.16670 -0.59800
H 	H 	0.14880 0.84480 0.18790 0.21400
C 	C 	0.78700 0.92180 0.93160 0.14000
H 	H 	0.77410 0.85470 0.92620 -0.07100
C 	C 	0.01580 0.85880 0.15480 -0.55400
H 	H 	0.98510 0.86160 0.16590 0.21700
C 	C 	0.08220 0.72520 0.41890 4.68700
H 	H 	0.10110 0.73600 0.47120 -1.38800
H 	H 	0.08500 0.65480 0.41010 -1.32700
H 	H 	0.03830 0.74540 0.39150 -1.33300
C 	C 	0.08680 0.76510 0.30960 2.94600
H 	H 	0.09930 0.69900 0.30240 -0.84600
H 	H 	0.04060 0.76830 0.28050 -0.82600
N 	N 	0.06280 0.85950 0.09540 -0.12900
N 	N 	0.00360 0.86650 0.08670 -0.14700
N 	N 	0.84520 0.94890 0.95680 -0.26300
Cu	Cu	0.92453 0.12252 0.98821 0.77800
C 	C 	0.07870 0.15350 0.20600 1.07100
C 	C 	0.11450 0.21800 0.39560 -4.04700
H 	H 	0.15920 0.23640 0.42520 1.20200
H 	H 	0.11120 0.14700 0.40420 1.19300
C 	C 	0.11120 0.15910 0.28650 -2.51000
H 	H 	0.15610 0.17170 0.30850 0.75200
H 	H 	0.10740 0.09430 0.30480 0.69600
C 	C 	0.10520 0.15060 0.16670 -0.59600
H 	H 	0.14880 0.15520 0.18790 0.21400
C 	C 	0.78700 0.07820 0.93160 0.14300
H 	H 	0.77410 0.14530 0.92620 -0.07100
C 	C 	0.01580 0.14120 0.15480 -0.55200
H 	H 	0.98510 0.13840 0.16590 0.21700
C 	C 	0.08220 0.27480 0.41890 4.67000
H 	H 	0.10110 0.26400 0.47120 -1.38300
H 	H 	0.08500 0.34520 0.41010 -1.32100
H 	H 	0.03830 0.25460 0.39150 -1.32800
C 	C 	0.08680 0.23490 0.30960 2.93700
H 	H 	0.09930 0.30100 0.30240 -0.84300
H 	H 	0.04060 0.23170 0.28050 -0.82300
N 	N 	0.06280 0.14050 0.09540 -0.12800
N 	N 	0.00360 0.13350 0.08670 -0.14700
N 	N 	0.84520 0.05110 0.95680 -0.26100
Cu	Cu	0.07547 0.12252 0.01179 0.78300
C 	C 	0.92130 0.15350 0.79400 1.01500
C 	C 	0.88550 0.21800 0.60440 -3.69100
H 	H 	0.84080 0.23640 0.57480 1.09400
H 	H 	0.88880 0.14700 0.59580 1.08600
C 	C 	0.88880 0.15910 0.71350 -2.33900
H 	H 	0.84390 0.17170 0.69150 0.70200
H 	H 	0.89260 0.09430 0.69520 0.64700
C 	C 	0.89480 0.15060 0.83330 -0.56200
H 	H 	0.85120 0.15520 0.81210 0.20200
C 	C 	0.21300 0.07820 0.06840 0.14300
H 	H 	0.22590 0.14530 0.07380 -0.07100
C 	C 	0.98420 0.14120 0.84520 -0.57300
H 	H 	0.01490 0.13840 0.83410 0.24100
C 	C 	0.91780 0.27480 0.58110 4.22300
H 	H 	0.89890 0.26400 0.52880 -1.24900
H 	H 	0.91500 0.34520 0.58990 -1.19700
H 	H 	0.96170 0.25460 0.60850 -1.20500
C 	C 	0.91320 0.23490 0.69040 2.69300
H 	H 	0.90070 0.30100 0.69760 -0.77400
H 	H 	0.95940 0.23170 0.71950 -0.76100
N 	N 	0.93720 0.14050 0.90460 -0.13700
N 	N 	0.99640 0.13350 0.91330 -0.15200
N 	N 	0.15480 0.05110 0.04320 -0.26000
C 	C 	0.25220 0.00000 0.08580 -0.24600
H 	H 	0.29560 0.00000 0.10510 0.10600
C 	C 	0.74780 0.00000 0.91420 -0.24600
H 	H 	0.70440 -0.00000 0.89490 0.10700
Cu	Cu	0.92216 0.86665 0.41452 0.97800
O 	O 	0.81510 0.09390 0.30710 -0.39500
O 	O 	0.83360 0.22050 0.20790 -0.42600
O 	O 	0.91970 0.09890 0.20980 -0.41600
O 	O 	0.95080 0.89990 0.34950 -0.38600
O 	O 	0.72130 0.21750 0.18290 -0.44900
O 	O 	0.74390 0.12080 0.09640 -0.44600
O 	O 	0.62260 0.09900 0.14380 -0.44100
O 	O 	0.88540 0.73970 0.35310 -0.35000
O 	O 	0.86270 0.83750 0.44390 -0.35800
O 	O 	0.69338 0.90230 0.29200 -0.41500
O 	O 	0.76710 0.74170 0.32470 -0.45000
W 	W 	0.77568 0.85914 0.38209 0.90600
W 	W 	0.80459 0.26781 0.26770 0.99100
W 	W 	0.67240 0.12932 0.10412 0.97000
W 	W 	0.83337 0.12848 0.13895 0.99500
Cu	Cu	0.07784 0.86665 0.58548 0.98100
O 	O 	0.18490 0.09390 0.69290 -0.39500
O 	O 	0.16640 0.22050 0.79210 -0.42600
O 	O 	0.08030 0.09890 0.79020 -0.41500
O 	O 	0.04920 0.89990 0.65050 -0.38400
O 	O 	0.27870 0.21750 0.81710 -0.45000
O 	O 	0.25610 0.12080 0.90360 -0.44600
O 	O 	0.37740 0.09900 0.85620 -0.44100
O 	O 	0.11460 0.73970 0.64690 -0.34700
O 	O 	0.13730 0.83750 0.55610 -0.34800
O 	O 	0.30662 0.90230 0.70800 -0.41500
O 	O 	0.23290 0.74170 0.67530 -0.44800
W 	W 	0.22432 0.85914 0.61791 0.90200
W 	W 	0.19541 0.26781 0.73230 0.99200
W 	W 	0.32760 0.12932 0.89588 0.97100
W 	W 	0.16663 0.12848 0.86105 0.99800
Cu	Cu	0.07784 0.13335 0.58548 0.98200
O 	O 	0.18490 0.90610 0.69290 -0.39700
O 	O 	0.16640 0.77950 0.79210 -0.42500
O 	O 	0.08030 0.90110 0.79020 -0.41600
O 	O 	0.04920 0.10010 0.65050 -0.38300
O 	O 	0.27870 0.78250 0.81710 -0.44900
O 	O 	0.25610 0.87920 0.90360 -0.44700
O 	O 	0.37740 0.90100 0.85620 -0.44200
O 	O 	0.11460 0.26030 0.64690 -0.34700
O 	O 	0.13730 0.16250 0.55610 -0.34800
O 	O 	0.30662 0.09770 0.70800 -0.41300
O 	O 	0.23290 0.25830 0.67530 -0.44800
W 	W 	0.22432 0.14086 0.61791 0.90400
W 	W 	0.19541 0.73219 0.73230 0.99200
W 	W 	0.32760 0.87068 0.89588 0.96800
W 	W 	0.16663 0.87152 0.86105 0.99600
Cu	Cu	0.92216 0.13335 0.41452 0.97900
O 	O 	0.81510 0.90610 0.30710 -0.39700
O 	O 	0.83360 0.77950 0.20790 -0.42500
O 	O 	0.91970 0.90110 0.20980 -0.41700
O 	O 	0.95080 0.10010 0.34950 -0.38500
O 	O 	0.72130 0.78250 0.18290 -0.44900
O 	O 	0.74390 0.87920 0.09640 -0.44700
O 	O 	0.62260 0.90100 0.14380 -0.44200
O 	O 	0.88540 0.26030 0.35310 -0.35000
O 	O 	0.86270 0.16250 0.44390 -0.35800
O 	O 	0.69338 0.09770 0.29200 -0.41300
O 	O 	0.76710 0.25830 0.32470 -0.45000
W 	W 	0.77568 0.14086 0.38209 0.90800
W 	W 	0.80459 0.73219 0.26770 0.99100
W 	W 	0.67240 0.87068 0.10412 0.96700
W 	W 	0.83337 0.87152 0.13895 0.99200
P 	P 	0.79973 -0.00000 0.25969 0.59600
O 	O 	0.83710 0.00000 0.22510 -0.37300
O 	O 	0.72920 -0.00000 0.19770 -0.37300
O 	O 	0.78430 0.00000 0.40540 -0.46100
O 	O 	0.64490 0.00000 0.05420 -0.43300
O 	O 	0.93050 -0.00000 0.44220 -0.44900
O 	O 	0.82530 0.00000 0.09420 -0.45100
W 	W 	0.64354 0.00000 0.22060 1.08500
W 	W 	0.95428 0.00000 0.29276 0.93100
P 	P 	0.20027 0.00000 0.74031 0.59600
O 	O 	0.16290 0.00000 0.77490 -0.37500
O 	O 	0.27080 -0.00000 0.80230 -0.37300
O 	O 	0.21570 0.00000 0.59460 -0.46400
O 	O 	0.35510 0.00000 0.94580 -0.43200
O 	O 	0.06950 0.00000 0.55780 -0.44300
O 	O 	0.17470 0.00000 0.90580 -0.45000
W 	W 	0.35646 0.00000 0.77940 1.08500
W 	W 	0.04572 0.00000 0.70724 0.94900
O 	O 	0.00000 0.81060 0.50000 -0.28800
O 	O 	0.00000 0.18940 0.50000 -0.28700
Cu	Cu	0.42216 0.36665 0.41452 0.98100
O 	O 	0.31510 0.59390 0.30710 -0.39500
O 	O 	0.33360 0.72050 0.20790 -0.42600
O 	O 	0.41970 0.59890 0.20980 -0.41500
O 	O 	0.45080 0.39990 0.34950 -0.38300
O 	O 	0.22130 0.71750 0.18290 -0.45000
O 	O 	0.24390 0.62080 0.09640 -0.44600
O 	O 	0.12260 0.59900 0.14380 -0.43900
O 	O 	0.38540 0.23970 0.35310 -0.34800
O 	O 	0.36270 0.33750 0.44390 -0.35200
O 	O 	0.19338 0.40230 0.29200 -0.41200
O 	O 	0.26710 0.24170 0.32470 -0.45000
W 	W 	0.27568 0.35914 0.38209 0.90500
W 	W 	0.30459 0.76781 0.26770 0.99000
W 	W 	0.17240 0.62932 0.10412 0.97200
W 	W 	0.33337 0.62848 0.13895 0.99700
Cu	Cu	0.57784 0.36665 0.58548 0.98100
O 	O 	0.68490 0.59390 0.69290 -0.39500
O 	O 	0.66640 0.72050 0.79210 -0.42600
O 	O 	0.58030 0.59890 0.79020 -0.41500
O 	O 	0.54920 0.39990 0.65050 -0.38300
O 	O 	0.77870 0.71750 0.81710 -0.44900
O 	O 	0.75610 0.62080 0.90360 -0.44600
O 	O 	0.87740 0.59900 0.85620 -0.44200
O 	O 	0.61460 0.23970 0.64690 -0.34700
O 	O 	0.63730 0.33750 0.55610 -0.35200
O 	O 	0.80662 0.40230 0.70800 -0.41400
O 	O 	0.73290 0.24170 0.67530 -0.44800
W 	W 	0.72432 0.35914 0.61791 0.90700
W 	W 	0.69541 0.76781 0.73230 0.99100
W 	W 	0.82760 0.62932 0.89588 0.96900
W 	W 	0.66663 0.62848 0.86105 0.99800
Cu	Cu	0.57784 0.63335 0.58548 0.98100
O 	O 	0.68490 0.40610 0.69290 -0.39500
O 	O 	0.66640 0.27950 0.79210 -0.42500
O 	O 	0.58030 0.40110 0.79020 -0.41500
O 	O 	0.54920 0.60010 0.65050 -0.38300
O 	O 	0.77870 0.28250 0.81710 -0.44900
O 	O 	0.75610 0.37920 0.90360 -0.44600
O 	O 	0.87740 0.40100 0.85620 -0.44200
O 	O 	0.61460 0.76030 0.64690 -0.34800
O 	O 	0.63730 0.66250 0.55610 -0.35300
O 	O 	0.80662 0.59770 0.70800 -0.41400
O 	O 	0.73290 0.75830 0.67530 -0.44800
W 	W 	0.72432 0.64086 0.61791 0.90700
W 	W 	0.69541 0.23219 0.73230 0.99300
W 	W 	0.82760 0.37068 0.89588 0.96900
W 	W 	0.66663 0.37152 0.86105 0.99800
Cu	Cu	0.42216 0.63335 0.41452 0.98100
O 	O 	0.31510 0.40610 0.30710 -0.39500
O 	O 	0.33360 0.27950 0.20790 -0.42500
O 	O 	0.41970 0.40110 0.20980 -0.41500
O 	O 	0.45080 0.60010 0.34950 -0.38300
O 	O 	0.22130 0.28250 0.18290 -0.45000
O 	O 	0.24390 0.37920 0.09640 -0.44600
O 	O 	0.12260 0.40100 0.14380 -0.44000
O 	O 	0.38540 0.76030 0.35310 -0.34800
O 	O 	0.36270 0.66250 0.44390 -0.35300
O 	O 	0.19338 0.59770 0.29200 -0.41200
O 	O 	0.26710 0.75830 0.32470 -0.45100
W 	W 	0.27568 0.64086 0.38209 0.90500
W 	W 	0.30459 0.23219 0.26770 0.99200
W 	W 	0.17240 0.37068 0.10412 0.97200
W 	W 	0.33337 0.37152 0.13895 0.99700
P 	P 	0.29973 0.50000 0.25969 0.59500
O 	O 	0.33710 0.50000 0.22510 -0.37500
O 	O 	0.22920 0.50000 0.19770 -0.37400
O 	O 	0.28430 0.50000 0.40540 -0.46300
O 	O 	0.14490 0.50000 0.05420 -0.43300
O 	O 	0.43050 0.50000 0.44220 -0.44600
O 	O 	0.32530 0.50000 0.09420 -0.45200
W 	W 	0.14354 0.50000 0.22060 1.08700
W 	W 	0.45428 0.50000 0.29276 0.93700
P 	P 	0.70027 0.50000 0.74031 0.59500
O 	O 	0.66290 0.50000 0.77490 -0.37500
O 	O 	0.77080 0.50000 0.80230 -0.37300
O 	O 	0.71570 0.50000 0.59460 -0.46500
O 	O 	0.85510 0.50000 0.94580 -0.43400
O 	O 	0.56950 0.50000 0.55780 -0.44600
O 	O 	0.67470 0.50000 0.90580 -0.45100
W 	W 	0.85646 0.50000 0.77940 1.07600
W 	W 	0.54572 0.50000 0.70724 0.93700
O 	O 	0.50000 0.31060 0.50000 -0.29500
O 	O 	0.50000 0.68940 0.50000 -0.29600
