data_crystal

_cell_length_a 28.19190
_cell_length_b 19.72000
_cell_length_c 11.89040
_cell_angle_alpha 90.00000
_cell_angle_beta  111.14000
_cell_angle_gamma 90.00000

_symmetry_space_group_name_	'P 1'
_symmetry_space_group_name_H-M	'P 1'

loop_
_symmetry_equiv_pos_as_xyz
  x,y,z

loop_
_atom_site_label
_atom_site_type_symbol
_atom_site_fract_x
_atom_site_fract_y
_atom_site_fract_z
_atom_site_charge
Pb	Pb	0.13608 0.23519 0.09129 1.23800
O 	O 	0.14500 0.35320 0.16740 -0.37900
N 	N 	0.16570 0.24340 0.31020 -0.16400
O 	O 	0.16600 0.42150 0.32440 -0.24600
C 	C 	0.17150 0.30440 0.36220 -0.11300
C 	C 	0.15990 0.36350 0.27910 0.32700
N 	N 	0.19730 0.25760 0.56220 -0.13600
C 	C 	0.17650 0.18840 0.38130 -0.00400
H 	H 	0.17340 0.14550 0.34700 0.04900
C 	C 	0.19200 0.19500 0.50200 0.01500
H 	H 	0.19970 0.15570 0.54850 0.04300
C 	C 	0.18820 0.31050 0.48870 0.21200
N 	N 	0.19510 0.36970 0.54680 -0.34900
H 	H 	0.20450 0.37050 0.62410 0.19500
H 	H 	0.19020 0.40710 0.50700 0.20300
Pb	Pb	0.63608 0.73519 0.09129 1.23900
O 	O 	0.64500 0.85320 0.16740 -0.37800
N 	N 	0.66570 0.74340 0.31020 -0.16300
O 	O 	0.66600 0.92150 0.32440 -0.24600
C 	C 	0.67150 0.80440 0.36220 -0.11200
C 	C 	0.65990 0.86350 0.27910 0.32800
N 	N 	0.69730 0.75760 0.56220 -0.13500
C 	C 	0.67650 0.68840 0.38130 -0.00300
H 	H 	0.67340 0.64550 0.34700 0.05000
C 	C 	0.69200 0.69500 0.50200 0.01600
H 	H 	0.69970 0.65570 0.54850 0.04400
C 	C 	0.68820 0.81050 0.48870 0.21300
N 	N 	0.69510 0.86970 0.54680 -0.34900
H 	H 	0.70450 0.87050 0.62410 0.19400
H 	H 	0.69020 0.90710 0.50700 0.20200
Pb	Pb	0.86392 0.23519 0.90871 1.23900
O 	O 	0.85500 0.35320 0.83260 -0.37800
N 	N 	0.83430 0.24340 0.68980 -0.16300
O 	O 	0.83400 0.42150 0.67560 -0.24500
C 	C 	0.82850 0.30440 0.63780 -0.11200
C 	C 	0.84010 0.36350 0.72090 0.32800
N 	N 	0.80270 0.25760 0.43780 -0.13500
C 	C 	0.82350 0.18840 0.61870 -0.00300
H 	H 	0.82660 0.14550 0.65300 0.05000
C 	C 	0.80800 0.19500 0.49800 0.01600
H 	H 	0.80030 0.15570 0.45150 0.04400
C 	C 	0.81180 0.31050 0.51130 0.21300
N 	N 	0.80490 0.36970 0.45320 -0.34900
H 	H 	0.79550 0.37050 0.37590 0.19500
H 	H 	0.80980 0.40710 0.49300 0.20300
Pb	Pb	0.36392 0.73519 0.90871 1.23900
O 	O 	0.35500 0.85320 0.83260 -0.37800
N 	N 	0.33430 0.74340 0.68980 -0.16300
O 	O 	0.33400 0.92150 0.67560 -0.24600
C 	C 	0.32850 0.80440 0.63780 -0.11200
C 	C 	0.34010 0.86350 0.72090 0.32800
N 	N 	0.30270 0.75760 0.43780 -0.13500
C 	C 	0.32350 0.68840 0.61870 -0.00300
H 	H 	0.32660 0.64550 0.65300 0.05000
C 	C 	0.30800 0.69500 0.49800 0.01600
H 	H 	0.30030 0.65570 0.45150 0.04400
C 	C 	0.31180 0.81050 0.51130 0.21300
N 	N 	0.30490 0.86970 0.45320 -0.34900
H 	H 	0.29550 0.87050 0.37590 0.19400
H 	H 	0.30980 0.90710 0.49300 0.20200
Pb	Pb	0.86392 0.76481 0.90871 1.23900
O 	O 	0.85500 0.64680 0.83260 -0.37800
N 	N 	0.83430 0.75660 0.68980 -0.16300
O 	O 	0.83400 0.57850 0.67560 -0.24500
C 	C 	0.82850 0.69560 0.63780 -0.11200
C 	C 	0.84010 0.63650 0.72090 0.32800
N 	N 	0.80270 0.74240 0.43780 -0.13500
C 	C 	0.82350 0.81160 0.61870 -0.00300
H 	H 	0.82660 0.85450 0.65300 0.04900
C 	C 	0.80800 0.80500 0.49800 0.01600
H 	H 	0.80030 0.84430 0.45150 0.04300
C 	C 	0.81180 0.68950 0.51130 0.21300
N 	N 	0.80490 0.63030 0.45320 -0.34900
H 	H 	0.79550 0.62950 0.37590 0.19500
H 	H 	0.80980 0.59290 0.49300 0.20300
Pb	Pb	0.36392 0.26481 0.90871 1.23900
O 	O 	0.35500 0.14680 0.83260 -0.37800
N 	N 	0.33430 0.25660 0.68980 -0.16300
O 	O 	0.33400 0.07850 0.67560 -0.24400
C 	C 	0.32850 0.19560 0.63780 -0.11200
C 	C 	0.34010 0.13650 0.72090 0.32700
N 	N 	0.30270 0.24240 0.43780 -0.13500
C 	C 	0.32350 0.31160 0.61870 -0.00300
H 	H 	0.32660 0.35450 0.65300 0.05000
C 	C 	0.30800 0.30500 0.49800 0.01600
H 	H 	0.30030 0.34430 0.45150 0.04400
C 	C 	0.31180 0.18950 0.51130 0.21300
N 	N 	0.30490 0.13030 0.45320 -0.35000
H 	H 	0.29550 0.12950 0.37590 0.19500
H 	H 	0.30980 0.09290 0.49300 0.20300
Pb	Pb	0.13608 0.76481 0.09129 1.23900
O 	O 	0.14500 0.64680 0.16740 -0.37800
N 	N 	0.16570 0.75660 0.31020 -0.16300
O 	O 	0.16600 0.57850 0.32440 -0.24500
C 	C 	0.17150 0.69560 0.36220 -0.11200
C 	C 	0.15990 0.63650 0.27910 0.32800
N 	N 	0.19730 0.74240 0.56220 -0.13500
C 	C 	0.17650 0.81160 0.38130 -0.00300
H 	H 	0.17340 0.85450 0.34700 0.04900
C 	C 	0.19200 0.80500 0.50200 0.01600
H 	H 	0.19970 0.84430 0.54850 0.04300
C 	C 	0.18820 0.68950 0.48870 0.21300
N 	N 	0.19510 0.63030 0.54680 -0.34900
H 	H 	0.20450 0.62950 0.62410 0.19500
H 	H 	0.19020 0.59290 0.50700 0.20300
Pb	Pb	0.63608 0.26481 0.09129 1.23900
O 	O 	0.64500 0.14680 0.16740 -0.37800
N 	N 	0.66570 0.25660 0.31020 -0.16300
O 	O 	0.66600 0.07850 0.32440 -0.24400
C 	C 	0.67150 0.19560 0.36220 -0.11200
C 	C 	0.65990 0.13650 0.27910 0.32700
N 	N 	0.69730 0.24240 0.56220 -0.13500
C 	C 	0.67650 0.31160 0.38130 -0.00300
H 	H 	0.67340 0.35450 0.34700 0.05000
C 	C 	0.69200 0.30500 0.50200 0.01600
H 	H 	0.69970 0.34430 0.54850 0.04400
C 	C 	0.68820 0.18950 0.48870 0.21300
N 	N 	0.69510 0.13030 0.54680 -0.35000
H 	H 	0.70450 0.12950 0.62410 0.19500
H 	H 	0.69020 0.09290 0.50700 0.20300
N 	N 	0.04920 0.26290 0.14390 -0.14500
O 	O 	0.08610 0.13740 0.14200 -0.33200
O 	O 	0.01690 0.09070 0.15190 -0.21800
C 	C 	0.02220 0.21190 0.15840 -0.08800
C 	C 	0.04400 0.14230 0.15070 0.31200
N 	N 	0.94580 0.16920 0.18350 -0.34200
H 	H 	0.91780 0.17750 0.19440 0.14900
H 	H 	0.95540 0.12810 0.18120 0.18600
C 	C 	0.97450 0.22080 0.17010 0.14900
N 	N 	0.95750 0.28410 0.17460 -0.17000
C 	C 	0.03220 0.32420 0.14800 -0.00800
H 	H 	0.05120 0.36130 0.14040 0.04000
C 	C 	0.98570 0.33480 0.16370 0.01200
H 	H 	0.97460 0.37900 0.16650 0.03000
O 	O 	0.19820 0.14070 0.13640 -0.34500
N 	N 	0.23520 0.26720 0.14210 -0.14700
N 	N 	0.33660 0.29030 0.17650 -0.16600
N 	N 	0.35090 0.17710 0.16860 -0.34400
H 	H 	0.38160 0.18700 0.17640 0.14800
H 	H 	0.34130 0.13540 0.16240 0.18200
O 	O 	0.27340 0.09680 0.16070 -0.24700
C 	C 	0.25350 0.32990 0.15180 -0.01000
H 	H 	0.23250 0.36670 0.14890 0.04300
C 	C 	0.30390 0.34020 0.16620 0.01900
H 	H 	0.31540 0.38460 0.16890 0.03400
C 	C 	0.26660 0.21520 0.15010 -0.10100
C 	C 	0.24510 0.14580 0.14960 0.31400
C 	C 	0.31850 0.22580 0.16610 0.17300
N 	N 	0.54920 0.76290 0.14390 -0.14500
O 	O 	0.58610 0.63740 0.14200 -0.33200
O 	O 	0.51690 0.59070 0.15190 -0.21800
C 	C 	0.52220 0.71190 0.15840 -0.08800
C 	C 	0.54400 0.64230 0.15070 0.31200
N 	N 	0.44580 0.66920 0.18350 -0.34200
H 	H 	0.41780 0.67750 0.19440 0.14900
H 	H 	0.45540 0.62810 0.18120 0.18600
C 	C 	0.47450 0.72080 0.17010 0.14900
N 	N 	0.45750 0.78410 0.17460 -0.17000
C 	C 	0.53220 0.82420 0.14800 -0.00800
H 	H 	0.55120 0.86130 0.14040 0.04000
C 	C 	0.48570 0.83480 0.16370 0.01200
H 	H 	0.47460 0.87900 0.16650 0.02900
O 	O 	0.69820 0.64070 0.13640 -0.34500
N 	N 	0.73520 0.76720 0.14210 -0.14700
N 	N 	0.83660 0.79030 0.17650 -0.16600
N 	N 	0.85090 0.67710 0.16860 -0.34400
H 	H 	0.88160 0.68700 0.17640 0.14800
H 	H 	0.84130 0.63540 0.16240 0.18200
O 	O 	0.77340 0.59680 0.16070 -0.24800
C 	C 	0.75350 0.82990 0.15180 -0.01000
H 	H 	0.73250 0.86670 0.14890 0.04200
C 	C 	0.80390 0.84020 0.16620 0.01900
H 	H 	0.81540 0.88460 0.16890 0.03400
C 	C 	0.76660 0.71520 0.15010 -0.10100
C 	C 	0.74510 0.64580 0.14960 0.31400
C 	C 	0.81850 0.72580 0.16610 0.17300
N 	N 	0.95080 0.26290 0.85610 -0.14500
O 	O 	0.91390 0.13740 0.85800 -0.33200
O 	O 	0.98310 0.09070 0.84810 -0.21800
C 	C 	0.97780 0.21190 0.84160 -0.08800
C 	C 	0.95600 0.14230 0.84930 0.31200
N 	N 	0.05420 0.16920 0.81650 -0.34200
H 	H 	0.08220 0.17750 0.80560 0.14900
H 	H 	0.04460 0.12810 0.81880 0.18600
C 	C 	0.02550 0.22080 0.82990 0.14900
N 	N 	0.04250 0.28410 0.82540 -0.17000
C 	C 	0.96780 0.32420 0.85200 -0.00800
H 	H 	0.94880 0.36130 0.85960 0.04000
C 	C 	0.01430 0.33480 0.83630 0.01200
H 	H 	0.02540 0.37900 0.83350 0.03000
O 	O 	0.80180 0.14070 0.86360 -0.34500
N 	N 	0.76480 0.26720 0.85790 -0.14700
N 	N 	0.66340 0.29030 0.82350 -0.16600
N 	N 	0.64910 0.17710 0.83140 -0.34400
H 	H 	0.61840 0.18700 0.82360 0.14800
H 	H 	0.65870 0.13540 0.83760 0.18200
O 	O 	0.72660 0.09680 0.83930 -0.24700
C 	C 	0.74650 0.32990 0.84820 -0.01000
H 	H 	0.76750 0.36670 0.85110 0.04300
C 	C 	0.69610 0.34020 0.83380 0.01900
H 	H 	0.68460 0.38460 0.83110 0.03400
C 	C 	0.73340 0.21520 0.84990 -0.10100
C 	C 	0.75490 0.14580 0.85040 0.31400
C 	C 	0.68150 0.22580 0.83390 0.17300
N 	N 	0.45080 0.76290 0.85610 -0.14500
O 	O 	0.41390 0.63740 0.85800 -0.33200
O 	O 	0.48310 0.59070 0.84810 -0.21800
C 	C 	0.47780 0.71190 0.84160 -0.08800
C 	C 	0.45600 0.64230 0.84930 0.31200
N 	N 	0.55420 0.66920 0.81650 -0.34200
H 	H 	0.58220 0.67750 0.80560 0.14900
H 	H 	0.54460 0.62810 0.81880 0.18600
C 	C 	0.52550 0.72080 0.82990 0.14900
N 	N 	0.54250 0.78410 0.82540 -0.17000
C 	C 	0.46780 0.82420 0.85200 -0.00800
H 	H 	0.44880 0.86130 0.85960 0.04000
C 	C 	0.51430 0.83480 0.83630 0.01200
H 	H 	0.52540 0.87900 0.83350 0.02900
O 	O 	0.30180 0.64070 0.86360 -0.34500
N 	N 	0.26480 0.76720 0.85790 -0.14700
N 	N 	0.16340 0.79030 0.82350 -0.16600
N 	N 	0.14910 0.67710 0.83140 -0.34400
H 	H 	0.11840 0.68700 0.82360 0.14800
H 	H 	0.15870 0.63540 0.83760 0.18200
O 	O 	0.22660 0.59680 0.83930 -0.24800
C 	C 	0.24650 0.82990 0.84820 -0.01000
H 	H 	0.26750 0.86670 0.85110 0.04200
C 	C 	0.19610 0.84020 0.83380 0.01900
H 	H 	0.18460 0.88460 0.83110 0.03400
C 	C 	0.23340 0.71520 0.84990 -0.10100
C 	C 	0.25490 0.64580 0.85040 0.31400
C 	C 	0.18150 0.72580 0.83390 0.17300
N 	N 	0.95080 0.73710 0.85610 -0.14500
O 	O 	0.91390 0.86260 0.85800 -0.33300
O 	O 	0.98310 0.90930 0.84810 -0.22000
C 	C 	0.97780 0.78810 0.84160 -0.08800
C 	C 	0.95600 0.85770 0.84930 0.31200
N 	N 	0.05420 0.83080 0.81650 -0.34200
H 	H 	0.08220 0.82250 0.80560 0.14800
H 	H 	0.04460 0.87190 0.81880 0.18500
C 	C 	0.02550 0.77920 0.82990 0.14900
N 	N 	0.04250 0.71590 0.82540 -0.17000
C 	C 	0.96780 0.67580 0.85200 -0.00800
H 	H 	0.94880 0.63870 0.85960 0.04000
C 	C 	0.01430 0.66520 0.83630 0.01200
H 	H 	0.02540 0.62100 0.83350 0.03000
O 	O 	0.80180 0.85930 0.86360 -0.34600
N 	N 	0.76480 0.73280 0.85790 -0.14700
N 	N 	0.66340 0.70970 0.82350 -0.16600
N 	N 	0.64910 0.82290 0.83140 -0.34400
H 	H 	0.61840 0.81300 0.82360 0.14700
H 	H 	0.65870 0.86460 0.83760 0.18100
O 	O 	0.72660 0.90320 0.83930 -0.24900
C 	C 	0.74650 0.67010 0.84820 -0.01000
H 	H 	0.76750 0.63330 0.85110 0.04300
C 	C 	0.69610 0.65980 0.83380 0.01900
H 	H 	0.68460 0.61540 0.83110 0.03400
C 	C 	0.73340 0.78480 0.84990 -0.10100
C 	C 	0.75490 0.85420 0.85040 0.31500
C 	C 	0.68150 0.77420 0.83390 0.17300
N 	N 	0.45080 0.23710 0.85610 -0.14500
O 	O 	0.41390 0.36260 0.85800 -0.33200
O 	O 	0.48310 0.40930 0.84810 -0.21800
C 	C 	0.47780 0.28810 0.84160 -0.08800
C 	C 	0.45600 0.35770 0.84930 0.31200
N 	N 	0.55420 0.33080 0.81650 -0.34200
H 	H 	0.58220 0.32250 0.80560 0.14900
H 	H 	0.54460 0.37190 0.81880 0.18600
C 	C 	0.52550 0.27920 0.82990 0.14900
N 	N 	0.54250 0.21590 0.82540 -0.17000
C 	C 	0.46780 0.17580 0.85200 -0.00800
H 	H 	0.44880 0.13870 0.85960 0.04000
C 	C 	0.51430 0.16520 0.83630 0.01200
H 	H 	0.52540 0.12100 0.83350 0.03000
O 	O 	0.30180 0.35930 0.86360 -0.34500
N 	N 	0.26480 0.23280 0.85790 -0.14700
N 	N 	0.16340 0.20970 0.82350 -0.16600
N 	N 	0.14910 0.32290 0.83140 -0.34400
H 	H 	0.11840 0.31300 0.82360 0.14800
H 	H 	0.15870 0.36460 0.83760 0.18200
O 	O 	0.22660 0.40320 0.83930 -0.24800
C 	C 	0.24650 0.17010 0.84820 -0.01000
H 	H 	0.26750 0.13330 0.85110 0.04300
C 	C 	0.19610 0.15980 0.83380 0.01900
H 	H 	0.18460 0.11540 0.83110 0.03500
C 	C 	0.23340 0.28480 0.84990 -0.10100
C 	C 	0.25490 0.35420 0.85040 0.31400
C 	C 	0.18150 0.27420 0.83390 0.17300
N 	N 	0.04920 0.73710 0.14390 -0.14500
O 	O 	0.08610 0.86260 0.14200 -0.33300
O 	O 	0.01690 0.90930 0.15190 -0.22000
C 	C 	0.02220 0.78810 0.15840 -0.08800
C 	C 	0.04400 0.85770 0.15070 0.31200
N 	N 	0.94580 0.83080 0.18350 -0.34200
H 	H 	0.91780 0.82250 0.19440 0.14800
H 	H 	0.95540 0.87190 0.18120 0.18500
C 	C 	0.97450 0.77920 0.17010 0.14900
N 	N 	0.95750 0.71590 0.17460 -0.17000
C 	C 	0.03220 0.67580 0.14800 -0.00800
H 	H 	0.05120 0.63870 0.14040 0.04000
C 	C 	0.98570 0.66520 0.16370 0.01200
H 	H 	0.97460 0.62100 0.16650 0.03000
O 	O 	0.19820 0.85930 0.13640 -0.34600
N 	N 	0.23520 0.73280 0.14210 -0.14700
N 	N 	0.33660 0.70970 0.17650 -0.16600
N 	N 	0.35090 0.82290 0.16860 -0.34400
H 	H 	0.38160 0.81300 0.17640 0.14700
H 	H 	0.34130 0.86460 0.16240 0.18100
O 	O 	0.27340 0.90320 0.16070 -0.24900
C 	C 	0.25350 0.67010 0.15180 -0.01000
H 	H 	0.23250 0.63330 0.14890 0.04300
C 	C 	0.30390 0.65980 0.16620 0.01900
H 	H 	0.31540 0.61540 0.16890 0.03400
C 	C 	0.26660 0.78480 0.15010 -0.10100
C 	C 	0.24510 0.85420 0.14960 0.31500
C 	C 	0.31850 0.77420 0.16610 0.17300
N 	N 	0.54920 0.23710 0.14390 -0.14500
O 	O 	0.58610 0.36260 0.14200 -0.33200
O 	O 	0.51690 0.40930 0.15190 -0.21800
C 	C 	0.52220 0.28810 0.15840 -0.08800
C 	C 	0.54400 0.35770 0.15070 0.31200
N 	N 	0.44580 0.33080 0.18350 -0.34200
H 	H 	0.41780 0.32250 0.19440 0.14900
H 	H 	0.45540 0.37190 0.18120 0.18600
C 	C 	0.47450 0.27920 0.17010 0.14900
N 	N 	0.45750 0.21590 0.17460 -0.17000
C 	C 	0.53220 0.17580 0.14800 -0.00800
H 	H 	0.55120 0.13870 0.14040 0.04000
C 	C 	0.48570 0.16520 0.16370 0.01200
H 	H 	0.47460 0.12100 0.16650 0.03000
O 	O 	0.69820 0.35930 0.13640 -0.34500
N 	N 	0.73520 0.23280 0.14210 -0.14700
N 	N 	0.83660 0.20970 0.17650 -0.16600
N 	N 	0.85090 0.32290 0.16860 -0.34400
H 	H 	0.88160 0.31300 0.17640 0.14800
H 	H 	0.84130 0.36460 0.16240 0.18200
O 	O 	0.77340 0.40320 0.16070 -0.24800
C 	C 	0.75350 0.17010 0.15180 -0.01000
H 	H 	0.73250 0.13330 0.14890 0.04300
C 	C 	0.80390 0.15980 0.16620 0.01900
H 	H 	0.81540 0.11540 0.16890 0.03500
C 	C 	0.76660 0.28480 0.15010 -0.10100
C 	C 	0.74510 0.35420 0.14960 0.31400
C 	C 	0.81850 0.27420 0.16610 0.17300
O 	O 	0.22600 0.00000 0.39700 -0.21700
N 	N 	0.09060 0.00000 0.34090 -0.06500
O 	O 	0.15820 0.00000 0.22400 -0.15700
C 	C 	0.15960 0.00000 0.52700 0.15400
C 	C 	0.14400 0.00000 0.40000 -0.08500
C 	C 	0.06190 0.00000 0.39100 0.03600
H 	H 	0.02730 0.00000 0.34600 0.04900
C 	C 	0.07790 -0.00000 0.52200 -0.00900
H 	H 	0.05320 -0.00000 0.55710 0.04400
C 	C 	0.17570 0.00000 0.34300 0.27300
N 	N 	0.12960 0.00000 0.59800 -0.12000
N 	N 	0.21420 -0.00000 0.60600 -0.31600
H 	H 	0.22270 0.00000 0.68350 0.17100
H 	H 	0.23730 0.00000 0.57500 0.19400
O 	O 	0.72600 0.50000 0.39700 -0.21800
N 	N 	0.59060 0.50000 0.34090 -0.06500
O 	O 	0.65820 0.50000 0.22400 -0.15800
C 	C 	0.65960 0.50000 0.52700 0.15400
C 	C 	0.64400 0.50000 0.40000 -0.08500
C 	C 	0.56190 0.50000 0.39100 0.03600
H 	H 	0.52730 0.50000 0.34600 0.04800
C 	C 	0.57790 0.50000 0.52200 -0.01000
H 	H 	0.55320 0.50000 0.55710 0.04400
C 	C 	0.67570 0.50000 0.34300 0.27300
N 	N 	0.62960 0.50000 0.59800 -0.12000
N 	N 	0.71420 0.50000 0.60600 -0.31600
H 	H 	0.72270 0.50000 0.68350 0.17100
H 	H 	0.73730 0.50000 0.57500 0.19400
O 	O 	0.77400 -0.00000 0.60300 -0.21700
N 	N 	0.90940 0.00000 0.65910 -0.06500
O 	O 	0.84180 0.00000 0.77600 -0.15700
C 	C 	0.84040 -0.00000 0.47300 0.15400
C 	C 	0.85600 -0.00000 0.60000 -0.08500
C 	C 	0.93810 -0.00000 0.60900 0.03600
H 	H 	0.97270 -0.00000 0.65400 0.04900
C 	C 	0.92210 0.00000 0.47800 -0.00900
H 	H 	0.94680 0.00000 0.44290 0.04400
C 	C 	0.82430 0.00000 0.65700 0.27300
N 	N 	0.87040 0.00000 0.40200 -0.12000
N 	N 	0.78580 0.00000 0.39400 -0.31600
H 	H 	0.77730 -0.00000 0.31650 0.17100
H 	H 	0.76270 -0.00000 0.42500 0.19400
O 	O 	0.27400 0.50000 0.60300 -0.21800
N 	N 	0.40940 0.50000 0.65910 -0.06500
O 	O 	0.34180 0.50000 0.77600 -0.15800
C 	C 	0.34040 0.50000 0.47300 0.15400
C 	C 	0.35600 0.50000 0.60000 -0.08500
C 	C 	0.43810 0.50000 0.60900 0.03600
H 	H 	0.47270 0.50000 0.65400 0.04800
C 	C 	0.42210 0.50000 0.47800 -0.01000
H 	H 	0.44680 0.50000 0.44290 0.04400
C 	C 	0.32430 0.50000 0.65700 0.27300
N 	N 	0.37040 0.50000 0.40200 -0.12000
N 	N 	0.28580 0.50000 0.39400 -0.31600
H 	H 	0.27730 0.50000 0.31650 0.17100
H 	H 	0.26270 0.50000 0.42500 0.19400
