data_crystal

_cell_length_a 12.46930
_cell_length_b 13.28510
_cell_length_c 13.17550
_cell_angle_alpha 112.30100
_cell_angle_beta  105.39700
_cell_angle_gamma 97.72840

_symmetry_space_group_name_	'P 1'
_symmetry_space_group_name_H-M	'P 1'

loop_
_symmetry_equiv_pos_as_xyz
  x,y,z

loop_
_atom_site_label
_atom_site_type_symbol
_atom_site_fract_x
_atom_site_fract_y
_atom_site_fract_z
_atom_site_charge
Zn	Zn	0.21873 0.47953 0.49144 1.20900
O 	O 	0.13710 0.57000 0.42620 -0.45000
O 	O 	0.29600 0.71010 0.50420 -0.29600
O 	O 	0.25550 0.55060 0.66040 -0.44100
O 	O 	0.30790 0.39060 0.63160 -0.31900
N 	N 	0.08220 0.33680 0.40980 -0.24900
N 	N 	0.11830 0.01700 0.40750 -0.21500
H 	H 	0.18610 0.06620 0.43800 0.12900
N 	N 	0.93050 0.94700 0.32640 -0.13600
N 	N 	0.33340 0.43700 0.40940 -0.25800
N 	N 	0.38360 0.40240 0.04930 -0.21200
H 	H 	0.39530 0.33460 0.02670 0.12500
N 	N 	0.36730 0.56890 0.16720 -0.13200
C 	C 	0.97650 0.34120 0.35610 0.05700
H 	H 	0.96630 0.41090 0.35640 0.00400
C 	C 	0.88230 0.24910 0.30060 -0.10300
H 	H 	0.80850 0.25570 0.26420 0.07400
C 	C 	0.89580 0.14690 0.29840 0.01700
H 	H 	0.83230 0.08170 0.25840 0.03500
C 	C 	0.00410 0.14120 0.35560 -0.06400
C 	C 	0.09470 0.23630 0.40860 0.04100
H 	H 	0.16910 0.23170 0.44590 0.00800
C 	C 	0.01910 0.03520 0.36190 0.14700
C 	C 	0.09960 0.91020 0.40010 0.06800
C 	C 	0.17100 0.84790 0.43360 -0.06100
H 	H 	0.25230 0.87800 0.46860 0.06900
C 	C 	0.11810 0.73940 0.41350 -0.06400
C 	C 	0.99760 0.69590 0.36130 0.01700
H 	H 	0.96380 0.62120 0.34720 0.03800
C 	C 	0.92690 0.75890 0.33000 -0.10100
H 	H 	0.84550 0.72940 0.29650 0.07800
C 	C 	0.97970 0.86720 0.34940 0.07000
C 	C 	0.19000 0.67030 0.45130 0.32500
C 	C 	0.39680 0.36500 0.42250 0.05800
H 	H 	0.39710 0.34090 0.48190 0.01200
C 	C 	0.46100 0.32540 0.35270 -0.11200
H 	H 	0.50610 0.27620 0.36530 0.08000
C 	C 	0.45950 0.35770 0.26400 0.00900
H 	H 	0.50200 0.32970 0.21410 0.03100
C 	C 	0.39490 0.43160 0.24940 -0.05900
C 	C 	0.33340 0.46930 0.32480 0.03800
H 	H 	0.28950 0.52040 0.31550 0.01400
C 	C 	0.38370 0.46950 0.15660 0.14100
C 	C 	0.36140 0.46100 0.98200 0.06900
C 	C 	0.34690 0.43220 0.86630 -0.07100
H 	H 	0.35630 0.36250 0.81750 0.07100
C 	C 	0.31770 0.51070 0.82410 -0.05300
C 	C 	0.31160 0.61710 0.90030 0.00100
H 	H 	0.29530 0.67030 0.87040 0.04200
C 	C 	0.32860 0.64560 0.01620 -0.09300
H 	H 	0.32440 0.71740 0.06640 0.07000
C 	C 	0.35260 0.56540 0.05880 0.06300
C 	C 	0.29330 0.48130 0.69850 0.28300
Zn	Zn	0.78127 0.52047 0.50856 1.20800
O 	O 	0.86290 0.43000 0.57380 -0.45100
O 	O 	0.70400 0.28990 0.49580 -0.29700
O 	O 	0.74450 0.44940 0.33960 -0.44200
O 	O 	0.69210 0.60940 0.36840 -0.32000
N 	N 	0.91780 0.66320 0.59020 -0.25000
N 	N 	0.88170 0.98300 0.59250 -0.21600
H 	H 	0.81390 0.93380 0.56200 0.12800
N 	N 	0.06950 0.05300 0.67360 -0.13600
N 	N 	0.66660 0.56300 0.59060 -0.25800
N 	N 	0.61640 0.59760 0.95070 -0.21200
H 	H 	0.60470 0.66540 0.97330 0.12500
N 	N 	0.63270 0.43110 0.83280 -0.13200
C 	C 	0.02350 0.65880 0.64390 0.05700
H 	H 	0.03370 0.58910 0.64360 0.00400
C 	C 	0.11770 0.75090 0.69940 -0.10300
H 	H 	0.19150 0.74430 0.73580 0.07400
C 	C 	0.10420 0.85310 0.70160 0.01700
H 	H 	0.16770 0.91830 0.74160 0.03500
C 	C 	0.99590 0.85880 0.64440 -0.06400
C 	C 	0.90530 0.76370 0.59140 0.04100
H 	H 	0.83090 0.76830 0.55410 0.00800
C 	C 	0.98090 0.96480 0.63810 0.14700
C 	C 	0.90040 0.08980 0.59990 0.06800
C 	C 	0.82900 0.15210 0.56640 -0.06100
H 	H 	0.74770 0.12200 0.53140 0.06900
C 	C 	0.88190 0.26060 0.58650 -0.06400
C 	C 	0.00240 0.30410 0.63870 0.01700
H 	H 	0.03620 0.37880 0.65280 0.03800
C 	C 	0.07310 0.24110 0.67000 -0.10100
H 	H 	0.15450 0.27060 0.70350 0.07800
C 	C 	0.02030 0.13280 0.65060 0.07000
C 	C 	0.81000 0.32970 0.54870 0.32500
C 	C 	0.60320 0.63500 0.57750 0.05800
H 	H 	0.60290 0.65910 0.51810 0.01200
C 	C 	0.53900 0.67460 0.64730 -0.11200
H 	H 	0.49390 0.72380 0.63470 0.08000
C 	C 	0.54050 0.64230 0.73600 0.00900
H 	H 	0.49800 0.67030 0.78590 0.03100
C 	C 	0.60510 0.56840 0.75060 -0.05900
C 	C 	0.66660 0.53070 0.67520 0.03800
H 	H 	0.71050 0.47960 0.68450 0.01400
C 	C 	0.61630 0.53050 0.84340 0.14100
C 	C 	0.63860 0.53900 0.01800 0.06900
C 	C 	0.65310 0.56780 0.13370 -0.07100
H 	H 	0.64370 0.63750 0.18250 0.07100
C 	C 	0.68230 0.48930 0.17590 -0.05300
C 	C 	0.68840 0.38290 0.09970 0.00100
H 	H 	0.70470 0.32970 0.12960 0.04200
C 	C 	0.67140 0.35440 0.98380 -0.09300
H 	H 	0.67560 0.28260 0.93360 0.07000
C 	C 	0.64740 0.43460 0.94120 0.06300
C 	C 	0.70670 0.51870 0.30150 0.28300
