data_crystal

_cell_length_a 21.38300
_cell_length_b 18.94000
_cell_length_c 9.58700
_cell_angle_alpha 90.00000
_cell_angle_beta  94.37900
_cell_angle_gamma 90.00000

_symmetry_space_group_name_	'P 1'
_symmetry_space_group_name_H-M	'P 1'

loop_
_symmetry_equiv_pos_as_xyz
  x,y,z

loop_
_atom_site_label
_atom_site_type_symbol
_atom_site_fract_x
_atom_site_fract_y
_atom_site_fract_z
_atom_site_charge
Zn	Zn	0.53555 0.39544 0.60423 1.21900
Zn	Zn	0.54305 0.10365 0.78341 1.21400
O 	O 	0.63390 0.10280 0.74200 -0.44000
C 	C 	0.23370 0.00070 0.39690 0.18700
C 	C 	0.64380 0.97830 0.73560 -0.28200
O 	O 	0.55480 0.00540 0.85930 -0.45800
C 	C 	0.74490 0.99880 0.57080 0.19200
N 	N 	0.28290 0.13190 0.44660 -0.15500
C 	C 	0.23120 0.12370 0.36340 0.10300
H 	H 	0.21110 0.16400 0.32720 0.01300
O 	O 	0.47620 0.13400 0.90190 -0.43800
C 	C 	0.39690 0.02320 0.65420 -0.06000
H 	H 	0.37270 0.98000 0.64520 0.06300
H 	H 	0.40570 0.03300 0.75310 0.05000
C 	C 	0.71490 0.05540 0.62370 -0.18400
N 	N 	0.36080 0.08080 0.58930 -0.11900
N 	N 	0.78830 0.13000 0.52020 -0.16100
C 	C 	0.45200 0.27890 0.29460 -0.09600
C 	C 	0.13120 0.98040 0.20110 -0.28100
N 	N 	0.79520 0.00400 0.49720 -0.16000
C 	C 	0.66100 0.04810 0.70430 0.31900
C 	C 	0.48980 0.24410 0.20770 0.02800
H 	H 	0.53270 0.25250 0.21440 0.05800
C 	C 	0.39650 0.14690 0.59640 -0.06900
H 	H 	0.40630 0.16010 0.69330 0.04000
H 	H 	0.37170 0.18430 0.55080 0.05800
O 	O 	0.56190 0.16300 0.02910 -0.32800
C 	C 	0.81580 0.06990 0.47880 0.17500
C 	C 	0.15990 0.92710 0.27310 0.16500
H 	H 	0.14510 0.88160 0.25420 -0.00800
N 	N 	0.49410 0.07960 0.59260 -0.26800
H 	H 	0.52450 0.07210 0.53280 0.11900
C 	C 	0.20490 0.05780 0.32670 -0.17100
C 	C 	0.45730 0.01370 0.58730 -0.06300
H 	H 	0.48160 0.97650 0.63540 0.04700
H 	H 	0.44850 0.99940 0.49070 0.06700
N 	N 	0.20860 0.93430 0.37120 -0.21200
N 	N 	0.28580 0.00610 0.48450 -0.16300
C 	C 	0.30810 0.07140 0.50540 0.16700
C 	C 	0.45500 0.13730 0.52640 -0.05800
H 	H 	0.47870 0.18100 0.53130 0.02300
H 	H 	0.44480 0.12630 0.42850 0.06700
C 	C 	0.23460 0.87050 0.44150 0.37300
H 	H 	0.20080 0.84410 0.47920 -0.07100
H 	H 	0.26380 0.88420 0.51900 -0.07200
C 	C 	0.73940 0.12160 0.59140 0.11900
H 	H 	0.71950 0.16170 0.62250 0.01000
N 	N 	0.72180 0.93150 0.59300 -0.15700
C 	C 	0.67470 0.92450 0.67740 0.16100
H 	H 	0.66230 0.87880 0.69760 0.01100
C 	C 	0.59430 0.96000 0.83170 0.42100
O 	O 	0.59420 0.89920 0.88140 -0.27600
N 	N 	0.86780 0.07740 0.40880 -0.11500
O 	O 	0.44380 0.36160 0.47690 -0.37900
C 	C 	0.38690 0.26840 0.28360 0.01900
H 	H 	0.36120 0.29320 0.34040 0.03900
C 	C 	0.50400 0.16210 0.00860 0.29800
O 	O 	0.53740 0.33110 0.43210 -0.42300
C 	C 	0.46380 0.19650 0.11000 -0.09500
C 	C 	0.40040 0.18630 0.10020 0.01600
H 	H 	0.38260 0.15530 0.03310 0.02500
C 	C 	0.36220 0.22080 0.18730 -0.09500
H 	H 	0.31930 0.21160 0.18070 0.06400
C 	C 	0.48020 0.32690 0.40820 0.32400
C 	C 	0.14990 0.05180 0.23130 0.29400
C 	C 	0.94670 0.15440 0.31180 -0.05800
H 	H 	0.97460 0.19370 0.33530 0.04300
H 	H 	0.91940 0.16780 0.23060 0.04400
C 	C 	0.90260 0.01470 0.37100 -0.04800
H 	H 	0.87340 0.97680 0.34550 0.06800
H 	H 	0.92980 0.99930 0.45080 0.07200
C 	C 	0.90760 0.14010 0.43230 -0.04900
H 	H 	0.93500 0.13340 0.51670 0.07600
H 	H 	0.88120 0.18080 0.44660 0.05300
C 	C 	0.94140 0.03050 0.25010 -0.06600
H 	H 	0.96570 0.98880 0.23040 0.06200
H 	H 	0.91360 0.04040 0.16790 0.05300
C 	C 	0.26730 0.82420 0.34490 -0.91200
H 	H 	0.23980 0.81420 0.26350 0.31100
H 	H 	0.27920 0.78090 0.39150 0.30800
H 	H 	0.30420 0.84780 0.31730 0.30900
N 	N 	0.98500 0.09100 0.27570 -0.21700
H 	H 	0.01210 0.08060 0.35070 0.06200
O 	O 	0.12440 0.10740 0.18120 -0.44700
O 	O 	0.07680 0.89840 0.05000 -0.31300
C 	C 	0.08030 0.96020 0.08640 0.40600
O 	O 	0.04540 0.00850 0.03170 -0.50500
C 	C 	0.74300 0.86600 0.50950 -0.00100
H 	H 	0.73260 0.85320 0.41700 0.04900
C 	C 	0.78130 0.83240 0.61130 -0.00800
Zn	Zn	0.03555 0.10456 0.10423 1.19700
Zn	Zn	0.04305 0.39635 0.28341 1.19200
O 	O 	0.13390 0.39720 0.24200 -0.45400
C 	C 	0.73370 0.49930 0.89690 0.19200
C 	C 	0.14380 0.52170 0.23560 -0.29300
O 	O 	0.05480 0.49460 0.35930 -0.49400
C 	C 	0.24490 0.50120 0.07080 0.17300
N 	N 	0.78290 0.36810 0.94660 -0.13900
C 	C 	0.73120 0.37630 0.86340 0.10200
H 	H 	0.71110 0.33600 0.82720 0.01900
O 	O 	0.97620 0.36600 0.40190 -0.37000
C 	C 	0.89690 0.47680 0.15420 -0.02200
H 	H 	0.87270 0.52000 0.14520 0.04900
H 	H 	0.90570 0.46700 0.25310 0.04100
C 	C 	0.21490 0.44460 0.12370 -0.18400
N 	N 	0.86080 0.41920 0.08930 -0.12600
N 	N 	0.28830 0.37000 0.02020 -0.17500
C 	C 	0.95200 0.22110 0.79460 -0.17400
C 	C 	0.63120 0.51960 0.70110 -0.27100
N 	N 	0.29520 0.49600 0.99720 -0.14800
C 	C 	0.16100 0.45190 0.20430 0.31900
C 	C 	0.98980 0.25590 0.70770 0.18500
H 	H 	0.03270 0.24750 0.71440 -0.03700
C 	C 	0.89650 0.35310 0.09640 -0.03000
H 	H 	0.90630 0.33990 0.19330 0.03000
H 	H 	0.87170 0.31570 0.05080 0.04000
O 	O 	0.06190 0.33700 0.52910 -0.30600
C 	C 	0.31580 0.43010 0.97880 0.19500
C 	C 	0.65990 0.57290 0.77310 0.16800
H 	H 	0.64510 0.61840 0.75420 -0.00700
N 	N 	0.99410 0.42040 0.09260 -0.18800
H 	H 	0.02450 0.42790 0.03280 0.04400
C 	C 	0.70490 0.44220 0.82670 -0.16600
C 	C 	0.95730 0.48630 0.08730 -0.13900
H 	H 	0.98160 0.52350 0.13540 0.09300
H 	H 	0.94850 0.50060 0.99070 0.11500
N 	N 	0.70860 0.56570 0.87120 -0.22100
N 	N 	0.78580 0.49390 0.98450 -0.14700
C 	C 	0.80810 0.42860 0.00540 0.13700
C 	C 	0.95500 0.36270 0.02640 -0.13100
H 	H 	0.97870 0.31900 0.03130 0.05700
H 	H 	0.94480 0.37370 0.92850 0.11100
C 	C 	0.73460 0.62950 0.94150 0.45900
H 	H 	0.70080 0.65590 0.97920 -0.08900
H 	H 	0.76380 0.61580 0.01900 -0.11300
C 	C 	0.23940 0.37840 0.09140 0.11500
H 	H 	0.21950 0.33830 0.12250 0.00600
N 	N 	0.22180 0.56850 0.09300 -0.15200
C 	C 	0.17470 0.57550 0.17740 0.15900
H 	H 	0.16230 0.62120 0.19760 0.00700
C 	C 	0.09430 0.54000 0.33170 0.42400
O 	O 	0.09420 0.60080 0.38140 -0.29900
N 	N 	0.36780 0.42260 0.90880 -0.12100
O 	O 	0.94380 0.13840 0.97690 -0.38600
C 	C 	0.88690 0.23160 0.78360 0.06900
H 	H 	0.86120 0.20680 0.84040 0.02500
C 	C 	0.00400 0.33790 0.50860 0.17700
O 	O 	0.03740 0.16890 0.93210 -0.49500
C 	C 	0.96380 0.30350 0.61000 -0.06400
C 	C 	0.90040 0.31370 0.60020 0.01900
H 	H 	0.88260 0.34470 0.53310 0.03400
C 	C 	0.86220 0.27920 0.68730 -0.11800
H 	H 	0.81930 0.28840 0.68070 0.07600
C 	C 	0.98020 0.17310 0.90820 0.44400
C 	C 	0.64990 0.44820 0.73130 0.29300
C 	C 	0.44670 0.34560 0.81180 -0.07200
H 	H 	0.47460 0.30630 0.83530 0.03200
H 	H 	0.41940 0.33220 0.73060 0.04800
C 	C 	0.40260 0.48530 0.87100 -0.05100
H 	H 	0.37340 0.52320 0.84550 0.07000
H 	H 	0.42980 0.50070 0.95080 0.06600
C 	C 	0.40760 0.35990 0.93230 -0.00500
H 	H 	0.43500 0.36660 0.01670 0.03700
H 	H 	0.38120 0.31920 0.94660 0.04500
C 	C 	0.44140 0.46950 0.75010 -0.05800
H 	H 	0.46570 0.51120 0.73040 0.04000
H 	H 	0.41360 0.45960 0.66790 0.05200
C 	C 	0.76730 0.67580 0.84490 -1.00800
H 	H 	0.73980 0.68580 0.76350 0.34200
H 	H 	0.77920 0.71910 0.89150 0.34300
H 	H 	0.80420 0.65220 0.81730 0.34100
N 	N 	0.48500 0.40900 0.77570 -0.27700
H 	H 	0.51210 0.41940 0.85070 0.13100
O 	O 	0.62440 0.39260 0.68120 -0.43400
O 	O 	0.57680 0.60160 0.55000 -0.28900
C 	C 	0.58030 0.53980 0.58640 0.40200
O 	O 	0.54540 0.49150 0.53170 -0.46700
C 	C 	0.24300 0.63400 0.00950 -0.04400
H 	H 	0.23260 0.64680 0.91700 0.07500
C 	C 	0.28130 0.66760 0.11130 -0.00400
Zn	Zn	0.03555 0.89544 0.60423 1.20200
Zn	Zn	0.04305 0.60365 0.78341 1.19300
O 	O 	0.13390 0.60280 0.74200 -0.44900
C 	C 	0.73370 0.50070 0.39690 0.18600
C 	C 	0.14380 0.47830 0.73560 -0.29200
O 	O 	0.05480 0.50540 0.85930 -0.48800
C 	C 	0.24490 0.49880 0.57080 0.19200
N 	N 	0.78290 0.63190 0.44660 -0.15500
C 	C 	0.73120 0.62370 0.36340 0.10200
H 	H 	0.71110 0.66400 0.32720 0.01500
O 	O 	0.97620 0.63400 0.90190 -0.35200
C 	C 	0.89690 0.52320 0.65420 -0.04500
H 	H 	0.87270 0.48000 0.64520 0.05900
H 	H 	0.90570 0.53300 0.75310 0.04800
C 	C 	0.21490 0.55540 0.62370 -0.18700
N 	N 	0.86080 0.58080 0.58930 -0.12300
N 	N 	0.28830 0.63000 0.52020 -0.16100
C 	C 	0.95200 0.77890 0.29460 -0.17900
C 	C 	0.63120 0.48040 0.20110 -0.27400
N 	N 	0.29520 0.50400 0.49720 -0.16000
C 	C 	0.16100 0.54810 0.70430 0.32300
C 	C 	0.98980 0.74410 0.20770 0.18500
H 	H 	0.03270 0.75250 0.21440 -0.03900
C 	C 	0.89650 0.64690 0.59640 -0.05600
H 	H 	0.90630 0.66010 0.69330 0.03800
H 	H 	0.87170 0.68430 0.55080 0.05400
O 	O 	0.06190 0.66300 0.02910 -0.30700
C 	C 	0.31580 0.56990 0.47880 0.17500
C 	C 	0.65990 0.42710 0.27310 0.16300
H 	H 	0.64510 0.38160 0.25420 -0.00600
N 	N 	0.99410 0.57960 0.59260 -0.20200
H 	H 	0.02450 0.57210 0.53280 0.05500
C 	C 	0.70490 0.55780 0.32670 -0.17000
C 	C 	0.95730 0.51370 0.58730 -0.08800
H 	H 	0.98160 0.47650 0.63540 0.08000
H 	H 	0.94850 0.49940 0.49070 0.08700
N 	N 	0.70860 0.43430 0.37120 -0.21200
N 	N 	0.78580 0.50610 0.48450 -0.16300
C 	C 	0.80810 0.57140 0.50540 0.16800
C 	C 	0.95500 0.63730 0.52640 -0.07900
H 	H 	0.97870 0.68100 0.53130 0.04800
H 	H 	0.94480 0.62630 0.42850 0.08300
C 	C 	0.73460 0.37050 0.44150 0.37300
H 	H 	0.70080 0.34410 0.47920 -0.07000
H 	H 	0.76380 0.38420 0.51900 -0.07200
C 	C 	0.23940 0.62160 0.59140 0.12000
H 	H 	0.21950 0.66170 0.62250 0.00800
N 	N 	0.22180 0.43150 0.59300 -0.15800
C 	C 	0.17470 0.42450 0.67740 0.16400
H 	H 	0.16230 0.37880 0.69760 0.00700
C 	C 	0.09430 0.46000 0.83170 0.42600
O 	O 	0.09420 0.39920 0.88140 -0.29000
N 	N 	0.36780 0.57740 0.40880 -0.11400
O 	O 	0.94380 0.86160 0.47690 -0.39700
C 	C 	0.88690 0.76840 0.28360 0.06900
H 	H 	0.86120 0.79320 0.34040 0.02100
C 	C 	0.00400 0.66210 0.00860 0.15400
O 	O 	0.03740 0.83110 0.43210 -0.50500
C 	C 	0.96380 0.69650 0.11000 -0.06200
C 	C 	0.90040 0.68630 0.10020 0.01600
H 	H 	0.88260 0.65530 0.03310 0.02800
C 	C 	0.86220 0.72080 0.18730 -0.12200
H 	H 	0.81930 0.71160 0.18070 0.07400
C 	C 	0.98020 0.82690 0.40820 0.44700
C 	C 	0.64990 0.55180 0.23130 0.29200
C 	C 	0.44670 0.65440 0.31180 -0.04800
H 	H 	0.47460 0.69370 0.33530 0.01900
H 	H 	0.41940 0.66780 0.23060 0.03700
C 	C 	0.40260 0.51470 0.37100 -0.05300
H 	H 	0.37340 0.47680 0.34550 0.06800
H 	H 	0.42980 0.49930 0.45080 0.06000
C 	C 	0.40760 0.64010 0.43230 -0.05700
H 	H 	0.43500 0.63340 0.51670 0.06700
H 	H 	0.38120 0.68080 0.44660 0.05500
C 	C 	0.44140 0.53050 0.25010 -0.05600
H 	H 	0.46570 0.48880 0.23040 0.03700
H 	H 	0.41360 0.54040 0.16790 0.04600
C 	C 	0.76730 0.32420 0.34490 -0.91300
H 	H 	0.73980 0.31420 0.26350 0.31100
H 	H 	0.77920 0.28090 0.39150 0.30800
H 	H 	0.80420 0.34780 0.31730 0.30900
N 	N 	0.48500 0.59100 0.27570 -0.28100
H 	H 	0.51210 0.58060 0.35070 0.12600
O 	O 	0.62440 0.60740 0.18120 -0.44000
O 	O 	0.57680 0.39840 0.05000 -0.29700
C 	C 	0.58030 0.46020 0.08640 0.40200
O 	O 	0.54540 0.50850 0.03170 -0.47800
C 	C 	0.24300 0.36600 0.50950 -0.00200
H 	H 	0.23260 0.35320 0.41700 0.04700
C 	C 	0.28130 0.33240 0.61130 -0.01000
Zn	Zn	0.53555 0.60456 0.10423 1.21300
Zn	Zn	0.54305 0.89635 0.28341 1.21200
O 	O 	0.63390 0.89720 0.24200 -0.44500
C 	C 	0.23370 0.99930 0.89690 0.19300
C 	C 	0.64380 0.02170 0.23560 -0.28500
O 	O 	0.55480 0.99460 0.35930 -0.46400
C 	C 	0.74490 0.00120 0.07080 0.17100
N 	N 	0.28290 0.86810 0.94660 -0.13900
C 	C 	0.23120 0.87630 0.86340 0.10400
H 	H 	0.21110 0.83600 0.82720 0.01700
O 	O 	0.47620 0.86600 0.40190 -0.45700
C 	C 	0.39690 0.97680 0.15420 -0.03600
H 	H 	0.37270 0.02000 0.14520 0.05200
H 	H 	0.40570 0.96700 0.25310 0.04300
C 	C 	0.71490 0.94460 0.12370 -0.18100
N 	N 	0.36080 0.91920 0.08930 -0.12300
N 	N 	0.78830 0.87000 0.02020 -0.17400
C 	C 	0.45200 0.72110 0.79460 -0.09400
C 	C 	0.13120 0.01960 0.70110 -0.27900
N 	N 	0.79520 0.99600 0.99720 -0.14900
C 	C 	0.66100 0.95190 0.20430 0.31500
C 	C 	0.48980 0.75590 0.70770 0.03100
H 	H 	0.53270 0.74750 0.71440 0.05800
C 	C 	0.39650 0.85310 0.09640 -0.04200
H 	H 	0.40630 0.83990 0.19330 0.03300
H 	H 	0.37170 0.81570 0.05080 0.04400
O 	O 	0.56190 0.83700 0.52910 -0.32700
C 	C 	0.81580 0.93010 0.97880 0.19400
C 	C 	0.15990 0.07290 0.77310 0.17100
H 	H 	0.14510 0.11840 0.75420 -0.00900
N 	N 	0.49410 0.92040 0.09260 -0.25400
H 	H 	0.52450 0.92790 0.03280 0.10800
C 	C 	0.20490 0.94220 0.82670 -0.16800
C 	C 	0.45730 0.98630 0.08730 -0.11500
H 	H 	0.48160 0.02350 0.13540 0.06000
H 	H 	0.44850 0.00060 0.99070 0.09600
N 	N 	0.20860 0.06570 0.87120 -0.22200
N 	N 	0.28580 0.99390 0.98450 -0.14600
C 	C 	0.30810 0.92860 0.00540 0.13600
C 	C 	0.45500 0.86270 0.02640 -0.11200
H 	H 	0.47870 0.81900 0.03130 0.03300
H 	H 	0.44480 0.87370 0.92850 0.09600
C 	C 	0.23460 0.12950 0.94150 0.46300
H 	H 	0.20080 0.15590 0.97920 -0.09100
H 	H 	0.26380 0.11580 0.01900 -0.11400
C 	C 	0.73940 0.87840 0.09140 0.11300
H 	H 	0.71950 0.83830 0.12250 0.00800
N 	N 	0.72180 0.06850 0.09300 -0.15100
C 	C 	0.67470 0.07550 0.17740 0.15700
H 	H 	0.66230 0.12120 0.19760 0.01100
C 	C 	0.59430 0.04000 0.33170 0.41900
O 	O 	0.59420 0.10080 0.38140 -0.28400
N 	N 	0.86780 0.92260 0.90880 -0.12200
O 	O 	0.44380 0.63840 0.97690 -0.36800
C 	C 	0.38690 0.73160 0.78360 0.02000
H 	H 	0.36120 0.70680 0.84040 0.04300
C 	C 	0.50400 0.83790 0.50860 0.32400
O 	O 	0.53740 0.66890 0.93210 -0.41500
C 	C 	0.46380 0.80350 0.61000 -0.09900
C 	C 	0.40040 0.81370 0.60020 0.02100
H 	H 	0.38260 0.84470 0.53310 0.03100
C 	C 	0.36220 0.77920 0.68730 -0.09400
H 	H 	0.31930 0.78840 0.68070 0.06700
C 	C 	0.48020 0.67310 0.90820 0.32300
C 	C 	0.14990 0.94820 0.73130 0.29600
C 	C 	0.94670 0.84560 0.81180 -0.08100
H 	H 	0.97460 0.80630 0.83530 0.05500
H 	H 	0.91940 0.83220 0.73060 0.05400
C 	C 	0.90260 0.98530 0.87100 -0.04500
H 	H 	0.87340 0.02320 0.84550 0.06900
H 	H 	0.92980 0.00070 0.95080 0.07700
C 	C 	0.90760 0.85990 0.93230 -0.00100
H 	H 	0.93500 0.86660 0.01670 0.04900
H 	H 	0.88120 0.81920 0.94660 0.04400
C 	C 	0.94140 0.96950 0.75010 -0.06700
H 	H 	0.96570 0.01120 0.73040 0.06400
H 	H 	0.91360 0.95960 0.66790 0.05900
C 	C 	0.26730 0.17580 0.84490 -1.01200
H 	H 	0.23980 0.18580 0.76350 0.34300
H 	H 	0.27920 0.21910 0.89150 0.34400
H 	H 	0.30420 0.15220 0.81730 0.34200
N 	N 	0.98500 0.90900 0.77570 -0.21400
H 	H 	0.01210 0.91940 0.85070 0.06800
O 	O 	0.12440 0.89260 0.68120 -0.44100
O 	O 	0.07680 0.10160 0.55000 -0.30500
C 	C 	0.08030 0.03980 0.58640 0.40400
O 	O 	0.04540 0.99150 0.53170 -0.49300
C 	C 	0.74300 0.13400 0.00950 -0.04300
H 	H 	0.73260 0.14680 0.91700 0.07600
C 	C 	0.78130 0.16760 0.11130 -0.00300
