data_crystal

_cell_length_a 10.01300
_cell_length_b 18.61700
_cell_length_c 21.23650
_cell_angle_alpha 90.00000
_cell_angle_beta  91.84400
_cell_angle_gamma 90.00000

_symmetry_space_group_name_	'P 1'
_symmetry_space_group_name_H-M	'P 1'

loop_
_symmetry_equiv_pos_as_xyz
  x,y,z

loop_
_atom_site_label
_atom_site_type_symbol
_atom_site_fract_x
_atom_site_fract_y
_atom_site_fract_z
_atom_site_charge
Cd	Cd	0.91779 0.39542 0.22708 1.16600
Cd	Cd	0.30488 0.37400 0.32806 1.22300
Cd	Cd	0.31395 0.32685 0.14642 1.24000
O 	O 	0.05660 0.37560 0.31220 -0.52900
O 	O 	0.14990 0.32730 0.39620 -0.39300
O 	O 	0.80340 0.35230 0.35930 -0.24100
O 	O 	0.46590 0.31300 0.39510 -0.36000
O 	O 	0.30830 0.28660 0.25270 -0.50500
O 	O 	0.46320 0.30090 0.06340 -0.35100
O 	O 	0.06150 0.34470 0.16010 -0.50900
O 	O 	0.80380 0.32280 0.10940 -0.25700
O 	O 	0.14490 0.30730 0.07140 -0.37500
O 	O 	0.31520 0.44570 0.14250 -0.42800
O 	O 	0.28660 0.45410 0.24550 -0.46000
O 	O 	0.25580 0.59840 0.23640 -0.16900
C 	C 	0.04760 0.34390 0.36330 0.31600
C 	C 	0.91590 0.32550 0.38890 0.00000
C 	C 	0.69860 0.32350 0.39070 0.05700
C 	C 	0.56140 0.34320 0.36760 0.26600
C 	C 	0.56100 0.31280 0.09830 0.25700
O 	O 	0.55190 0.32880 0.15620 -0.36600
C 	C 	0.69630 0.30430 0.07200 0.06700
C 	C 	0.73630 0.28190 0.01580 -0.07900
H 	H 	0.68160 0.26760 0.98190 0.07800
C 	C 	0.87680 0.28390 0.01780 -0.02600
H 	H 	0.93280 0.26960 0.98600 0.06200
C 	C 	0.91410 0.31040 0.07430 0.00500
C 	C 	0.04770 0.32260 0.10450 0.30900
O 	O 	0.28790 0.20500 0.17880 -0.35600
C 	C 	0.28760 0.22200 0.23520 0.31400
C 	C 	0.23620 0.66760 0.21560 0.01000
C 	C 	0.29370 0.47940 0.19200 0.35300
C 	C 	0.27460 0.55750 0.18370 -0.00900
C 	C 	0.24210 0.67040 0.15280 -0.05600
H 	H 	0.23090 0.71110 0.12790 0.05100
C 	C 	0.26840 0.60060 0.13140 -0.03000
H 	H 	0.27950 0.58640 0.08980 0.04800
O 	O 	0.54560 0.38660 0.32490 -0.37700
C 	C 	0.74440 0.28370 0.43940 -0.07400
H 	H 	0.69280 0.25940 0.46820 0.08000
C 	C 	0.88360 0.28520 0.43890 -0.02600
H 	H 	0.94250 0.26290 0.46740 0.06500
Cd	Cd	0.58221 0.89542 0.27292 1.16800
Cd	Cd	0.19512 0.87400 0.17194 1.22400
Cd	Cd	0.18605 0.82685 0.35358 1.24100
O 	O 	0.44340 0.87560 0.18780 -0.52800
O 	O 	0.35010 0.82730 0.10380 -0.39200
O 	O 	0.69660 0.85230 0.14070 -0.24000
O 	O 	0.03410 0.81300 0.10490 -0.35900
O 	O 	0.19170 0.78660 0.24730 -0.50500
O 	O 	0.03680 0.80090 0.43660 -0.35100
O 	O 	0.43850 0.84470 0.33990 -0.50900
O 	O 	0.69620 0.82280 0.39060 -0.25600
O 	O 	0.35510 0.80730 0.42860 -0.37400
O 	O 	0.18480 0.94570 0.35750 -0.42800
O 	O 	0.21340 0.95410 0.25450 -0.46000
O 	O 	0.24420 0.09840 0.26360 -0.16800
C 	C 	0.45240 0.84390 0.13670 0.31500
C 	C 	0.58410 0.82550 0.11110 0.00200
C 	C 	0.80140 0.82350 0.10930 0.05700
C 	C 	0.93860 0.84320 0.13240 0.26500
C 	C 	0.93900 0.81280 0.40170 0.25800
O 	O 	0.94810 0.82880 0.34380 -0.36600
C 	C 	0.80370 0.80430 0.42800 0.06700
C 	C 	0.76370 0.78190 0.48420 -0.08000
H 	H 	0.81840 0.76760 0.51810 0.07900
C 	C 	0.62320 0.78390 0.48220 -0.02600
H 	H 	0.56720 0.76960 0.51400 0.06200
C 	C 	0.58590 0.81040 0.42570 0.00700
C 	C 	0.45230 0.82260 0.39550 0.30700
O 	O 	0.21210 0.70500 0.32120 -0.35600
C 	C 	0.21240 0.72200 0.26480 0.31400
C 	C 	0.26380 0.16760 0.28440 0.01000
C 	C 	0.20630 0.97940 0.30800 0.35200
C 	C 	0.22540 0.05750 0.31630 -0.00800
C 	C 	0.25790 0.17040 0.34720 -0.05500
H 	H 	0.26910 0.21110 0.37210 0.05100
C 	C 	0.23160 0.10060 0.36860 -0.03000
H 	H 	0.22050 0.08640 0.41020 0.04800
O 	O 	0.95440 0.88660 0.17510 -0.37700
C 	C 	0.75560 0.78370 0.06060 -0.07300
H 	H 	0.80720 0.75940 0.03180 0.07900
C 	C 	0.61640 0.78520 0.06110 -0.02700
H 	H 	0.55750 0.76290 0.03260 0.06500
Cd	Cd	0.08221 0.60458 0.77292 1.16700
Cd	Cd	0.69512 0.62600 0.67194 1.22400
Cd	Cd	0.68605 0.67315 0.85358 1.24100
O 	O 	0.94340 0.62440 0.68780 -0.52800
O 	O 	0.85010 0.67270 0.60380 -0.39200
O 	O 	0.19660 0.64770 0.64070 -0.24000
O 	O 	0.53410 0.68700 0.60490 -0.35900
O 	O 	0.69170 0.71340 0.74730 -0.50400
O 	O 	0.53680 0.69910 0.93660 -0.35000
O 	O 	0.93850 0.65530 0.83990 -0.50800
O 	O 	0.19620 0.67720 0.89060 -0.25600
O 	O 	0.85510 0.69270 0.92860 -0.37400
O 	O 	0.68480 0.55430 0.85750 -0.42800
O 	O 	0.71340 0.54590 0.75450 -0.46000
O 	O 	0.74420 0.40160 0.76360 -0.16900
C 	C 	0.95240 0.65610 0.63670 0.31600
C 	C 	0.08410 0.67450 0.61110 0.00000
C 	C 	0.30140 0.67650 0.60930 0.05700
C 	C 	0.43860 0.65680 0.63240 0.26600
C 	C 	0.43900 0.68720 0.90170 0.25700
O 	O 	0.44810 0.67120 0.84380 -0.36600
C 	C 	0.30370 0.69570 0.92800 0.06700
C 	C 	0.26370 0.71810 0.98420 -0.07900
H 	H 	0.31840 0.73240 0.01810 0.07800
C 	C 	0.12320 0.71610 0.98220 -0.02600
H 	H 	0.06720 0.73040 0.01400 0.06200
C 	C 	0.08590 0.68960 0.92570 0.00500
C 	C 	0.95230 0.67740 0.89550 0.30900
O 	O 	0.71210 0.79500 0.82120 -0.35600
C 	C 	0.71240 0.77800 0.76480 0.31400
C 	C 	0.76380 0.33240 0.78440 0.01000
C 	C 	0.70630 0.52060 0.80800 0.35300
C 	C 	0.72540 0.44250 0.81630 -0.00900
C 	C 	0.75790 0.32960 0.84720 -0.05600
H 	H 	0.76910 0.28890 0.87210 0.05100
C 	C 	0.73160 0.39940 0.86860 -0.03000
H 	H 	0.72050 0.41360 0.91020 0.04800
O 	O 	0.45440 0.61340 0.67510 -0.37700
C 	C 	0.25560 0.71630 0.56060 -0.07400
H 	H 	0.30720 0.74060 0.53180 0.08000
C 	C 	0.11640 0.71480 0.56110 -0.02600
H 	H 	0.05750 0.73710 0.53260 0.06500
Cd	Cd	0.41779 0.10458 0.72708 1.16800
Cd	Cd	0.80488 0.12600 0.82806 1.22400
Cd	Cd	0.81395 0.17315 0.64642 1.24100
O 	O 	0.55660 0.12440 0.81220 -0.52800
O 	O 	0.64990 0.17270 0.89620 -0.39200
O 	O 	0.30340 0.14770 0.85930 -0.24000
O 	O 	0.96590 0.18700 0.89510 -0.35900
O 	O 	0.80830 0.21340 0.75270 -0.50500
O 	O 	0.96320 0.19910 0.56340 -0.35100
O 	O 	0.56150 0.15530 0.66010 -0.50900
O 	O 	0.30380 0.17720 0.60940 -0.25600
O 	O 	0.64490 0.19270 0.57140 -0.37400
O 	O 	0.81520 0.05430 0.64250 -0.42800
O 	O 	0.78660 0.04590 0.74550 -0.46000
O 	O 	0.75580 0.90160 0.73640 -0.16800
C 	C 	0.54760 0.15610 0.86330 0.31500
C 	C 	0.41590 0.17450 0.88890 0.00200
C 	C 	0.19860 0.17650 0.89070 0.05700
C 	C 	0.06140 0.15680 0.86760 0.26500
C 	C 	0.06100 0.18720 0.59830 0.25800
O 	O 	0.05190 0.17120 0.65620 -0.36600
C 	C 	0.19630 0.19570 0.57200 0.06700
C 	C 	0.23630 0.21810 0.51580 -0.08000
H 	H 	0.18160 0.23240 0.48190 0.07900
C 	C 	0.37680 0.21610 0.51780 -0.02600
H 	H 	0.43280 0.23040 0.48600 0.06200
C 	C 	0.41410 0.18960 0.57430 0.00700
C 	C 	0.54770 0.17740 0.60450 0.30700
O 	O 	0.78790 0.29500 0.67880 -0.35600
C 	C 	0.78760 0.27800 0.73520 0.31400
C 	C 	0.73620 0.83240 0.71560 0.01000
C 	C 	0.79370 0.02060 0.69200 0.35200
C 	C 	0.77460 0.94250 0.68370 -0.00800
C 	C 	0.74210 0.82960 0.65280 -0.05500
H 	H 	0.73090 0.78890 0.62790 0.05100
C 	C 	0.76840 0.89940 0.63140 -0.03000
H 	H 	0.77950 0.91360 0.58980 0.04800
O 	O 	0.04560 0.11340 0.82490 -0.37700
C 	C 	0.24440 0.21630 0.93940 -0.07300
H 	H 	0.19280 0.24060 0.96820 0.07900
C 	C 	0.38360 0.21480 0.93890 -0.02700
H 	H 	0.44250 0.23710 0.96740 0.06500
