data_crystal

_cell_length_a 29.51100
_cell_length_b 29.51100
_cell_length_c 9.59100
_cell_angle_alpha 90.00000
_cell_angle_beta  90.00000
_cell_angle_gamma 120.00000

_symmetry_space_group_name_	'P 1'
_symmetry_space_group_name_H-M	'P 1'

loop_
_symmetry_equiv_pos_as_xyz
  x,y,z

loop_
_atom_site_label
_atom_site_type_symbol
_atom_site_fract_x
_atom_site_fract_y
_atom_site_fract_z
_atom_site_charge
Fe	Fe	0.49070 0.12834 0.61184 1.17400
Mn	Mn	0.53415 0.17872 0.12650 1.18600
C 	C 	0.38184 0.11090 0.64850 0.07500
H 	H 	0.39670 0.14700 0.65270 -0.01700
C 	C 	0.32780 0.07920 0.65820 -0.13700
H 	H 	0.30710 0.09450 0.66970 0.06300
C 	C 	0.30480 0.02650 0.65140 0.05000
H 	H 	0.26860 0.00550 0.65470 -0.00300
C 	C 	0.33618 0.00500 0.63950 -0.11600
H 	H 	0.32130 0.96880 0.63710 0.06600
C 	C 	0.39045 0.03695 0.63090 0.04400
C 	C 	0.42679 0.01782 0.63260 0.05900
C 	C 	0.41310 0.96572 0.63900 -0.14200
H 	H 	0.37830 0.93990 0.62760 0.06700
C 	C 	0.45060 0.95170 0.66230 0.07000
H 	H 	0.44160 0.91670 0.66660 -0.02600
C 	C 	0.50150 0.99080 0.67880 -0.16300
H 	H 	0.52750 0.98280 0.69950 0.08000
C 	C 	0.51360 0.04190 0.66450 0.09600
H 	H 	0.54850 0.06800 0.67220 -0.02500
C 	C 	0.49831 0.13904 0.80960 -0.21600
C 	C 	0.56355 0.15750 0.58880 -0.25500
C 	C 	0.49706 0.19469 0.58700 -0.25400
C 	C 	0.48652 0.12209 0.41150 -0.22800
N 	N 	0.41306 0.08997 0.63310 -0.24700
N 	N 	0.47782 0.05621 0.63980 -0.25500
N 	N 	0.50221 0.14381 0.92830 -0.22300
N 	N 	0.60799 0.17452 0.56790 -0.25300
N 	N 	0.50130 0.23526 0.56540 -0.25100
N 	N 	0.48856 0.12484 0.29100 -0.22600
Fe	Fe	0.87166 0.36236 0.61184 1.17500
Mn	Mn	0.82128 0.35543 0.12650 1.18700
C 	C 	0.88910 0.27094 0.64850 0.07600
H 	H 	0.85300 0.24970 0.65270 -0.01600
C 	C 	0.92080 0.24860 0.65820 -0.13600
H 	H 	0.90550 0.21260 0.66970 0.06400
C 	C 	0.97350 0.27830 0.65140 0.05100
H 	H 	0.99450 0.26310 0.65470 -0.00200
C 	C 	0.99500 0.33118 0.63950 -0.11500
H 	H 	0.03120 0.35250 0.63710 0.06700
C 	C 	0.96305 0.35350 0.63090 0.04500
C 	C 	0.98218 0.40897 0.63260 0.06000
C 	C 	0.03428 0.44738 0.63900 -0.14200
H 	H 	0.06010 0.43840 0.62760 0.06700
C 	C 	0.04830 0.49890 0.66230 0.07000
H 	H 	0.08330 0.52490 0.66660 -0.02600
C 	C 	0.00920 0.51070 0.67880 -0.16300
H 	H 	0.01720 0.54470 0.69950 0.08000
C 	C 	0.95810 0.47170 0.66450 0.09600
H 	H 	0.93200 0.48050 0.67220 -0.02500
C 	C 	0.86096 0.35927 0.80960 -0.21600
C 	C 	0.84250 0.40605 0.58880 -0.25500
C 	C 	0.80531 0.30237 0.58700 -0.25400
C 	C 	0.87791 0.36443 0.41150 -0.22800
N 	N 	0.91003 0.32309 0.63310 -0.24700
N 	N 	0.94379 0.42161 0.63980 -0.25500
N 	N 	0.85619 0.35840 0.92830 -0.22300
N 	N 	0.82548 0.43347 0.56790 -0.25300
N 	N 	0.76474 0.26604 0.56540 -0.25100
N 	N 	0.87516 0.36372 0.29100 -0.22600
Fe	Fe	0.63764 0.50930 0.61184 1.17500
Mn	Mn	0.64457 0.46585 0.12650 1.18700
C 	C 	0.72906 0.61816 0.64850 0.07600
H 	H 	0.75030 0.60330 0.65270 -0.01600
C 	C 	0.75140 0.67220 0.65820 -0.13600
H 	H 	0.78740 0.69290 0.66970 0.06400
C 	C 	0.72170 0.69520 0.65140 0.05200
H 	H 	0.73690 0.73140 0.65470 -0.00300
C 	C 	0.66882 0.66382 0.63950 -0.11600
H 	H 	0.64750 0.67870 0.63710 0.06800
C 	C 	0.64650 0.60955 0.63090 0.04600
C 	C 	0.59103 0.57321 0.63260 0.05900
C 	C 	0.55262 0.58690 0.63900 -0.14100
H 	H 	0.56160 0.62170 0.62760 0.06700
C 	C 	0.50110 0.54940 0.66230 0.06900
H 	H 	0.47510 0.55840 0.66660 -0.02600
C 	C 	0.48930 0.49850 0.67880 -0.16200
H 	H 	0.45530 0.47250 0.69950 0.08000
C 	C 	0.52830 0.48640 0.66450 0.09500
H 	H 	0.51950 0.45150 0.67220 -0.02500
C 	C 	0.64073 0.50169 0.80960 -0.21600
C 	C 	0.59395 0.43645 0.58880 -0.25500
C 	C 	0.69763 0.50294 0.58700 -0.25400
C 	C 	0.63557 0.51348 0.41150 -0.22800
N 	N 	0.67691 0.58694 0.63310 -0.24700
N 	N 	0.57839 0.52218 0.63980 -0.25500
N 	N 	0.64160 0.49779 0.92830 -0.22300
N 	N 	0.56653 0.39201 0.56790 -0.25300
N 	N 	0.73396 0.49870 0.56540 -0.25100
N 	N 	0.63628 0.51144 0.29100 -0.22600
Fe	Fe	0.84263 0.53833 0.05483 1.17400
Mn	Mn	0.79918 0.48795 0.54017 1.18700
C 	C 	0.95149 0.55577 0.01817 0.07300
H 	H 	0.93663 0.51967 0.01397 -0.01600
C 	C 	0.00553 0.58747 0.00847 -0.13200
H 	H 	0.02623 0.57217 0.99697 0.06100
C 	C 	0.02853 0.64017 0.01527 0.05200
H 	H 	0.06473 0.66117 0.01197 -0.00200
C 	C 	0.99715 0.66167 0.02717 -0.11900
H 	H 	0.01203 0.69787 0.02957 0.07000
C 	C 	0.94288 0.62972 0.03577 0.04700
C 	C 	0.90654 0.64885 0.03407 0.05600
C 	C 	0.92023 0.70095 0.02767 -0.13500
H 	H 	0.95503 0.72677 0.03907 0.06400
C 	C 	0.88273 0.71497 0.00437 0.05800
H 	H 	0.89173 0.74997 0.00007 -0.02300
C 	C 	0.83183 0.67587 0.98787 -0.14800
H 	H 	0.80583 0.68387 0.96717 0.07500
C 	C 	0.81973 0.62477 0.00217 0.08300
H 	H 	0.78483 0.59867 0.99447 -0.01900
C 	C 	0.83502 0.52763 0.85707 -0.21400
C 	C 	0.76978 0.50917 0.07787 -0.25700
C 	C 	0.83627 0.47198 0.07967 -0.25600
C 	C 	0.84681 0.54458 0.25517 -0.22800
N 	N 	0.92027 0.57670 0.03357 -0.24700
N 	N 	0.85551 0.61046 0.02687 -0.25300
N 	N 	0.83112 0.52286 0.73837 -0.22500
N 	N 	0.72534 0.49215 0.09877 -0.25400
N 	N 	0.83203 0.43141 0.10127 -0.25200
N 	N 	0.84477 0.54183 0.37567 -0.22600
Fe	Fe	0.46167 0.30431 0.05483 1.17400
Mn	Mn	0.51205 0.31124 0.54017 1.18700
C 	C 	0.44423 0.39573 0.01817 0.07500
H 	H 	0.48033 0.41697 0.01397 -0.01600
C 	C 	0.41253 0.41807 0.00847 -0.13500
H 	H 	0.42783 0.45407 0.99697 0.06300
C 	C 	0.35983 0.38837 0.01527 0.05100
H 	H 	0.33883 0.40357 0.01197 -0.00200
C 	C 	0.33833 0.33549 0.02717 -0.11600
H 	H 	0.30213 0.31417 0.02957 0.06800
C 	C 	0.37028 0.31317 0.03577 0.04700
C 	C 	0.35115 0.25770 0.03407 0.05600
C 	C 	0.29905 0.21929 0.02767 -0.13500
H 	H 	0.27323 0.22827 0.03907 0.06500
C 	C 	0.28503 0.16777 0.00437 0.05900
H 	H 	0.25003 0.14177 0.00007 -0.02300
C 	C 	0.32413 0.15597 0.98787 -0.14900
H 	H 	0.31613 0.12197 0.96717 0.07500
C 	C 	0.37523 0.19497 0.00217 0.08400
H 	H 	0.40133 0.18617 0.99447 -0.01900
C 	C 	0.47237 0.30740 0.85707 -0.21400
C 	C 	0.49083 0.26062 0.07787 -0.25700
C 	C 	0.52802 0.36430 0.07967 -0.25500
C 	C 	0.45542 0.30224 0.25517 -0.22800
N 	N 	0.42330 0.34358 0.03357 -0.24700
N 	N 	0.38954 0.24506 0.02687 -0.25300
N 	N 	0.47714 0.30827 0.73837 -0.22500
N 	N 	0.50785 0.23320 0.09877 -0.25400
N 	N 	0.56859 0.40063 0.10127 -0.25200
N 	N 	0.45817 0.30295 0.37567 -0.22600
Fe	Fe	0.69569 0.15737 0.05483 1.17400
Mn	Mn	0.68876 0.20082 0.54017 1.18700
C 	C 	0.60427 0.04851 0.01817 0.07300
H 	H 	0.58303 0.06337 0.01397 -0.01600
C 	C 	0.58193 0.99447 0.00847 -0.13300
H 	H 	0.54593 0.97377 0.99697 0.06200
C 	C 	0.61163 0.97147 0.01527 0.05300
H 	H 	0.59643 0.93527 0.01197 -0.00200
C 	C 	0.66451 0.00285 0.02717 -0.12000
H 	H 	0.68583 0.98797 0.02957 0.07000
C 	C 	0.68683 0.05712 0.03577 0.04800
C 	C 	0.74230 0.09346 0.03407 0.05400
C 	C 	0.78071 0.07977 0.02767 -0.13200
H 	H 	0.77173 0.04497 0.03907 0.06300
C 	C 	0.83223 0.11727 0.00437 0.05400
H 	H 	0.85823 0.10827 0.00007 -0.02100
C 	C 	0.84403 0.16817 0.98787 -0.14300
H 	H 	0.87803 0.19417 0.96717 0.07300
C 	C 	0.80503 0.18027 0.00217 0.07900
H 	H 	0.81383 0.21517 0.99447 -0.01700
C 	C 	0.69260 0.16498 0.85707 -0.21300
C 	C 	0.73938 0.23022 0.07787 -0.25700
C 	C 	0.63570 0.16373 0.07967 -0.25600
C 	C 	0.69776 0.15319 0.25517 -0.22800
N 	N 	0.65642 0.07973 0.03357 -0.24700
N 	N 	0.75494 0.14449 0.02687 -0.25200
N 	N 	0.69173 0.16888 0.73837 -0.22500
N 	N 	0.76680 0.27466 0.09877 -0.25400
N 	N 	0.59937 0.16797 0.10127 -0.25200
N 	N 	0.69705 0.15523 0.37567 -0.22600
Fe	Fe	0.15737 0.46167 0.94517 1.17400
Mn	Mn	0.20082 0.51205 0.45983 1.18700
C 	C 	0.04851 0.44423 0.98183 0.07300
H 	H 	0.06337 0.48033 0.98603 -0.01600
C 	C 	0.99447 0.41253 0.99153 -0.13200
H 	H 	0.97377 0.42783 0.00303 0.06100
C 	C 	0.97147 0.35983 0.98473 0.05200
H 	H 	0.93527 0.33883 0.98803 -0.00200
C 	C 	0.00285 0.33833 0.97283 -0.11900
H 	H 	0.98797 0.30213 0.97043 0.07000
C 	C 	0.05712 0.37028 0.96423 0.04700
C 	C 	0.09346 0.35115 0.96593 0.05600
C 	C 	0.07977 0.29905 0.97233 -0.13500
H 	H 	0.04497 0.27323 0.96093 0.06400
C 	C 	0.11727 0.28503 0.99563 0.05800
H 	H 	0.10827 0.25003 0.99993 -0.02300
C 	C 	0.16817 0.32413 0.01213 -0.14800
H 	H 	0.19417 0.31613 0.03283 0.07500
C 	C 	0.18027 0.37523 0.99783 0.08300
H 	H 	0.21517 0.40133 0.00553 -0.01900
C 	C 	0.16498 0.47237 0.14293 -0.21400
C 	C 	0.23022 0.49083 0.92213 -0.25700
C 	C 	0.16373 0.52802 0.92033 -0.25600
C 	C 	0.15319 0.45542 0.74483 -0.22800
N 	N 	0.07973 0.42330 0.96643 -0.24700
N 	N 	0.14449 0.38954 0.97313 -0.25300
N 	N 	0.16888 0.47714 0.26163 -0.22500
N 	N 	0.27466 0.50785 0.90123 -0.25400
N 	N 	0.16797 0.56859 0.89873 -0.25200
N 	N 	0.15523 0.45817 0.62433 -0.22600
Fe	Fe	0.53833 0.69569 0.94517 1.17400
Mn	Mn	0.48795 0.68876 0.45983 1.18700
C 	C 	0.55577 0.60427 0.98183 0.07500
H 	H 	0.51967 0.58303 0.98603 -0.01600
C 	C 	0.58747 0.58193 0.99153 -0.13500
H 	H 	0.57217 0.54593 0.00303 0.06300
C 	C 	0.64017 0.61163 0.98473 0.05100
H 	H 	0.66117 0.59643 0.98803 -0.00200
C 	C 	0.66167 0.66451 0.97283 -0.11600
H 	H 	0.69787 0.68583 0.97043 0.06800
C 	C 	0.62972 0.68683 0.96423 0.04700
C 	C 	0.64885 0.74230 0.96593 0.05600
C 	C 	0.70095 0.78071 0.97233 -0.13500
H 	H 	0.72677 0.77173 0.96093 0.06500
C 	C 	0.71497 0.83223 0.99563 0.05900
H 	H 	0.74997 0.85823 0.99993 -0.02300
C 	C 	0.67587 0.84403 0.01213 -0.14900
H 	H 	0.68387 0.87803 0.03283 0.07500
C 	C 	0.62477 0.80503 0.99783 0.08400
H 	H 	0.59867 0.81383 0.00553 -0.01900
C 	C 	0.52763 0.69260 0.14293 -0.21400
C 	C 	0.50917 0.73938 0.92213 -0.25700
C 	C 	0.47198 0.63570 0.92033 -0.25500
C 	C 	0.54458 0.69776 0.74483 -0.22800
N 	N 	0.57670 0.65642 0.96643 -0.24700
N 	N 	0.61046 0.75494 0.97313 -0.25300
N 	N 	0.52286 0.69173 0.26163 -0.22500
N 	N 	0.49215 0.76680 0.90123 -0.25400
N 	N 	0.43141 0.59937 0.89873 -0.25200
N 	N 	0.54183 0.69705 0.62433 -0.22600
Fe	Fe	0.30431 0.84263 0.94517 1.17400
Mn	Mn	0.31124 0.79918 0.45983 1.18700
C 	C 	0.39573 0.95149 0.98183 0.07300
H 	H 	0.41697 0.93663 0.98603 -0.01600
C 	C 	0.41807 0.00553 0.99153 -0.13300
H 	H 	0.45407 0.02623 0.00303 0.06200
C 	C 	0.38837 0.02853 0.98473 0.05300
H 	H 	0.40357 0.06473 0.98803 -0.00200
C 	C 	0.33549 0.99715 0.97283 -0.12000
H 	H 	0.31417 0.01203 0.97043 0.07000
C 	C 	0.31317 0.94288 0.96423 0.04800
C 	C 	0.25770 0.90654 0.96593 0.05400
C 	C 	0.21929 0.92023 0.97233 -0.13200
H 	H 	0.22827 0.95503 0.96093 0.06300
C 	C 	0.16777 0.88273 0.99563 0.05400
H 	H 	0.14177 0.89173 0.99993 -0.02100
C 	C 	0.15597 0.83183 0.01213 -0.14300
H 	H 	0.12197 0.80583 0.03283 0.07300
C 	C 	0.19497 0.81973 0.99783 0.07900
H 	H 	0.18617 0.78483 0.00553 -0.01700
C 	C 	0.30740 0.83502 0.14293 -0.21300
C 	C 	0.26062 0.76978 0.92213 -0.25700
C 	C 	0.36430 0.83627 0.92033 -0.25600
C 	C 	0.30224 0.84681 0.74483 -0.22800
N 	N 	0.34358 0.92027 0.96643 -0.24700
N 	N 	0.24506 0.85551 0.97313 -0.25200
N 	N 	0.30827 0.83112 0.26163 -0.22500
N 	N 	0.23320 0.72534 0.90123 -0.25400
N 	N 	0.40063 0.83203 0.89873 -0.25200
N 	N 	0.30295 0.84477 0.62433 -0.22600
Fe	Fe	0.50930 0.87166 0.38816 1.17500
Mn	Mn	0.46585 0.82128 0.87350 1.18700
C 	C 	0.61816 0.88910 0.35150 0.07600
H 	H 	0.60330 0.85300 0.34730 -0.01600
C 	C 	0.67220 0.92080 0.34180 -0.13600
H 	H 	0.69290 0.90550 0.33030 0.06400
C 	C 	0.69520 0.97350 0.34860 0.05100
H 	H 	0.73140 0.99450 0.34530 -0.00200
C 	C 	0.66382 0.99500 0.36050 -0.11500
H 	H 	0.67870 0.03120 0.36290 0.06700
C 	C 	0.60955 0.96305 0.36910 0.04500
C 	C 	0.57321 0.98218 0.36740 0.06000
C 	C 	0.58690 0.03428 0.36100 -0.14200
H 	H 	0.62170 0.06010 0.37240 0.06700
C 	C 	0.54940 0.04830 0.33770 0.07000
H 	H 	0.55840 0.08330 0.33340 -0.02600
C 	C 	0.49850 0.00920 0.32120 -0.16300
H 	H 	0.47250 0.01720 0.30050 0.08000
C 	C 	0.48640 0.95810 0.33550 0.09600
H 	H 	0.45150 0.93200 0.32780 -0.02500
C 	C 	0.50169 0.86096 0.19040 -0.21600
C 	C 	0.43645 0.84250 0.41120 -0.25500
C 	C 	0.50294 0.80531 0.41300 -0.25400
C 	C 	0.51348 0.87791 0.58850 -0.22800
N 	N 	0.58694 0.91003 0.36690 -0.24700
N 	N 	0.52218 0.94379 0.36020 -0.25500
N 	N 	0.49779 0.85619 0.07170 -0.22300
N 	N 	0.39201 0.82548 0.43210 -0.25300
N 	N 	0.49870 0.76474 0.43460 -0.25100
N 	N 	0.51144 0.87516 0.70900 -0.22600
Fe	Fe	0.12834 0.63764 0.38816 1.17500
Mn	Mn	0.17872 0.64457 0.87350 1.18700
C 	C 	0.11090 0.72906 0.35150 0.07600
H 	H 	0.14700 0.75030 0.34730 -0.01600
C 	C 	0.07920 0.75140 0.34180 -0.13600
H 	H 	0.09450 0.78740 0.33030 0.06400
C 	C 	0.02650 0.72170 0.34860 0.05100
H 	H 	0.00550 0.73690 0.34530 -0.00200
C 	C 	0.00500 0.66882 0.36050 -0.11500
H 	H 	0.96880 0.64750 0.36290 0.06700
C 	C 	0.03695 0.64650 0.36910 0.04500
C 	C 	0.01782 0.59103 0.36740 0.06000
C 	C 	0.96572 0.55262 0.36100 -0.14200
H 	H 	0.93990 0.56160 0.37240 0.06700
C 	C 	0.95170 0.50110 0.33770 0.07000
H 	H 	0.91670 0.47510 0.33340 -0.02600
C 	C 	0.99080 0.48930 0.32120 -0.16300
H 	H 	0.98280 0.45530 0.30050 0.08000
C 	C 	0.04190 0.52830 0.33550 0.09600
H 	H 	0.06800 0.51950 0.32780 -0.02500
C 	C 	0.13904 0.64073 0.19040 -0.21600
C 	C 	0.15750 0.59395 0.41120 -0.25500
C 	C 	0.19469 0.69763 0.41300 -0.25400
C 	C 	0.12209 0.63557 0.58850 -0.22800
N 	N 	0.08997 0.67691 0.36690 -0.24700
N 	N 	0.05621 0.57839 0.36020 -0.25500
N 	N 	0.14381 0.64160 0.07170 -0.22300
N 	N 	0.17452 0.56653 0.43210 -0.25300
N 	N 	0.23526 0.73396 0.43460 -0.25100
N 	N 	0.12484 0.63628 0.70900 -0.22600
Fe	Fe	0.36236 0.49070 0.38816 1.17500
Mn	Mn	0.35543 0.53415 0.87350 1.18700
C 	C 	0.27094 0.38184 0.35150 0.07600
H 	H 	0.24970 0.39670 0.34730 -0.01600
C 	C 	0.24860 0.32780 0.34180 -0.13600
H 	H 	0.21260 0.30710 0.33030 0.06400
C 	C 	0.27830 0.30480 0.34860 0.05200
H 	H 	0.26310 0.26860 0.34530 -0.00300
C 	C 	0.33118 0.33618 0.36050 -0.11600
H 	H 	0.35250 0.32130 0.36290 0.06800
C 	C 	0.35350 0.39045 0.36910 0.04600
C 	C 	0.40897 0.42679 0.36740 0.05900
C 	C 	0.44738 0.41310 0.36100 -0.14100
H 	H 	0.43840 0.37830 0.37240 0.06700
C 	C 	0.49890 0.45060 0.33770 0.06900
H 	H 	0.52490 0.44160 0.33340 -0.02600
C 	C 	0.51070 0.50150 0.32120 -0.16200
H 	H 	0.54470 0.52750 0.30050 0.08000
C 	C 	0.47170 0.51360 0.33550 0.09500
H 	H 	0.48050 0.54850 0.32780 -0.02500
C 	C 	0.35927 0.49831 0.19040 -0.21600
C 	C 	0.40605 0.56355 0.41120 -0.25500
C 	C 	0.30237 0.49706 0.41300 -0.25400
C 	C 	0.36443 0.48652 0.58850 -0.22800
N 	N 	0.32309 0.41306 0.36690 -0.24700
N 	N 	0.42161 0.47782 0.36020 -0.25500
N 	N 	0.35840 0.50221 0.07170 -0.22300
N 	N 	0.43347 0.60799 0.43210 -0.25300
N 	N 	0.26604 0.50130 0.43460 -0.25100
N 	N 	0.36372 0.48856 0.70900 -0.22600
Fe	Fe	0.82403 0.79501 0.27851 1.17500
Mn	Mn	0.86748 0.84539 0.79317 1.18700
C 	C 	0.71517 0.77757 0.31517 0.07600
H 	H 	0.73003 0.81367 0.31937 -0.01600
C 	C 	0.66113 0.74587 0.32487 -0.13600
H 	H 	0.64043 0.76117 0.33637 0.06400
C 	C 	0.63813 0.69317 0.31807 0.05200
H 	H 	0.60193 0.67217 0.32137 -0.00300
C 	C 	0.66951 0.67167 0.30617 -0.11600
H 	H 	0.65463 0.63547 0.30377 0.06800
C 	C 	0.72378 0.70362 0.29757 0.04600
C 	C 	0.76012 0.68449 0.29927 0.05900
C 	C 	0.74643 0.63239 0.30567 -0.14100
H 	H 	0.71163 0.60657 0.29427 0.06700
C 	C 	0.78393 0.61837 0.32897 0.06900
H 	H 	0.77493 0.58337 0.33327 -0.02600
C 	C 	0.83483 0.65747 0.34547 -0.16200
H 	H 	0.86083 0.64947 0.36617 0.08000
C 	C 	0.84693 0.70857 0.33117 0.09500
H 	H 	0.88183 0.73467 0.33887 -0.02500
C 	C 	0.83164 0.80571 0.47627 -0.21600
C 	C 	0.89688 0.82417 0.25547 -0.25600
C 	C 	0.83039 0.86136 0.25367 -0.25400
C 	C 	0.81985 0.78876 0.07817 -0.22800
N 	N 	0.74639 0.75664 0.29977 -0.24700
N 	N 	0.81115 0.72288 0.30647 -0.25500
N 	N 	0.83554 0.81048 0.59497 -0.22400
N 	N 	0.94132 0.84119 0.23457 -0.25400
N 	N 	0.83463 0.90193 0.23207 -0.25200
N 	N 	0.82189 0.79151 0.95767 -0.22600
Fe	Fe	0.20499 0.02903 0.27851 1.17500
Mn	Mn	0.15461 0.02210 0.79317 1.18700
C 	C 	0.22243 0.93761 0.31517 0.07500
H 	H 	0.18633 0.91637 0.31937 -0.01600
C 	C 	0.25413 0.91527 0.32487 -0.13500
H 	H 	0.23883 0.87927 0.33637 0.06400
C 	C 	0.30683 0.94497 0.31807 0.05000
H 	H 	0.32783 0.92977 0.32137 -0.00200
C 	C 	0.32833 0.99785 0.30617 -0.11400
H 	H 	0.36453 0.01917 0.30377 0.06700
C 	C 	0.29638 0.02017 0.29757 0.04400
C 	C 	0.31551 0.07564 0.29927 0.06000
C 	C 	0.36761 0.11405 0.30567 -0.14100
H 	H 	0.39343 0.10507 0.29427 0.06700
C 	C 	0.38163 0.16557 0.32897 0.06900
H 	H 	0.41663 0.19157 0.33327 -0.02600
C 	C 	0.34253 0.17737 0.34547 -0.16200
H 	H 	0.35053 0.21137 0.36617 0.08000
C 	C 	0.29143 0.13837 0.33117 0.09500
H 	H 	0.26533 0.14717 0.33887 -0.02500
C 	C 	0.19429 0.02594 0.47627 -0.21600
C 	C 	0.17583 0.07272 0.25547 -0.25600
C 	C 	0.13864 0.96904 0.25367 -0.25400
C 	C 	0.21124 0.03110 0.07817 -0.22900
N 	N 	0.24336 0.98976 0.29977 -0.24600
N 	N 	0.27712 0.08828 0.30647 -0.25500
N 	N 	0.18952 0.02507 0.59497 -0.22400
N 	N 	0.15881 0.10014 0.23457 -0.25400
N 	N 	0.09807 0.93271 0.23207 -0.25100
N 	N 	0.20849 0.03039 0.95767 -0.22600
Fe	Fe	0.97097 0.17597 0.27851 1.17500
Mn	Mn	0.97790 0.13252 0.79317 1.18800
C 	C 	0.06239 0.28483 0.31517 0.07500
H 	H 	0.08363 0.26997 0.31937 -0.01600
C 	C 	0.08473 0.33887 0.32487 -0.13500
H 	H 	0.12073 0.35957 0.33637 0.06400
C 	C 	0.05503 0.36187 0.31807 0.05000
H 	H 	0.07023 0.39807 0.32137 -0.00200
C 	C 	0.00215 0.33049 0.30617 -0.11400
H 	H 	0.98083 0.34537 0.30377 0.06700
C 	C 	0.97983 0.27622 0.29757 0.04500
C 	C 	0.92436 0.23988 0.29927 0.05900
C 	C 	0.88595 0.25357 0.30567 -0.14100
H 	H 	0.89493 0.28837 0.29427 0.06700
C 	C 	0.83443 0.21607 0.32897 0.06900
H 	H 	0.80843 0.22507 0.33327 -0.02600
C 	C 	0.82263 0.16517 0.34547 -0.16200
H 	H 	0.78863 0.13917 0.36617 0.08000
C 	C 	0.86163 0.15307 0.33117 0.09500
H 	H 	0.85283 0.11817 0.33887 -0.02500
C 	C 	0.97406 0.16836 0.47627 -0.21600
C 	C 	0.92728 0.10312 0.25547 -0.25600
C 	C 	0.03096 0.16961 0.25367 -0.25400
C 	C 	0.96890 0.18015 0.07817 -0.23000
N 	N 	0.01024 0.25361 0.29977 -0.24600
N 	N 	0.91172 0.18885 0.30647 -0.25500
N 	N 	0.97493 0.16446 0.59497 -0.22400
N 	N 	0.89986 0.05868 0.23457 -0.25400
N 	N 	0.06729 0.16537 0.23207 -0.25200
N 	N 	0.96961 0.17811 0.95767 -0.22500
Fe	Fe	0.17597 0.20499 0.72149 1.17500
Mn	Mn	0.13252 0.15461 0.20683 1.18700
C 	C 	0.28483 0.22243 0.68483 0.07600
H 	H 	0.26997 0.18633 0.68063 -0.01600
C 	C 	0.33887 0.25413 0.67513 -0.13600
H 	H 	0.35957 0.23883 0.66363 0.06400
C 	C 	0.36187 0.30683 0.68193 0.05200
H 	H 	0.39807 0.32783 0.67863 -0.00300
C 	C 	0.33049 0.32833 0.69383 -0.11600
H 	H 	0.34537 0.36453 0.69623 0.06800
C 	C 	0.27622 0.29638 0.70243 0.04600
C 	C 	0.23988 0.31551 0.70073 0.05900
C 	C 	0.25357 0.36761 0.69433 -0.14100
H 	H 	0.28837 0.39343 0.70573 0.06700
C 	C 	0.21607 0.38163 0.67103 0.06900
H 	H 	0.22507 0.41663 0.66673 -0.02600
C 	C 	0.16517 0.34253 0.65453 -0.16200
H 	H 	0.13917 0.35053 0.63383 0.08000
C 	C 	0.15307 0.29143 0.66883 0.09500
H 	H 	0.11817 0.26533 0.66113 -0.02500
C 	C 	0.16836 0.19429 0.52373 -0.21600
C 	C 	0.10312 0.17583 0.74453 -0.25600
C 	C 	0.16961 0.13864 0.74633 -0.25400
C 	C 	0.18015 0.21124 0.92183 -0.22800
N 	N 	0.25361 0.24336 0.70023 -0.24700
N 	N 	0.18885 0.27712 0.69353 -0.25500
N 	N 	0.16446 0.18952 0.40503 -0.22400
N 	N 	0.05868 0.15881 0.76543 -0.25400
N 	N 	0.16537 0.09807 0.76793 -0.25200
N 	N 	0.17811 0.20849 0.04233 -0.22600
Fe	Fe	0.79501 0.97097 0.72149 1.17500
Mn	Mn	0.84539 0.97790 0.20683 1.18700
C 	C 	0.77757 0.06239 0.68483 0.07500
H 	H 	0.81367 0.08363 0.68063 -0.01600
C 	C 	0.74587 0.08473 0.67513 -0.13500
H 	H 	0.76117 0.12073 0.66363 0.06400
C 	C 	0.69317 0.05503 0.68193 0.05000
H 	H 	0.67217 0.07023 0.67863 -0.00200
C 	C 	0.67167 0.00215 0.69383 -0.11400
H 	H 	0.63547 0.98083 0.69623 0.06700
C 	C 	0.70362 0.97983 0.70243 0.04400
C 	C 	0.68449 0.92436 0.70073 0.06000
C 	C 	0.63239 0.88595 0.69433 -0.14100
H 	H 	0.60657 0.89493 0.70573 0.06700
C 	C 	0.61837 0.83443 0.67103 0.06900
H 	H 	0.58337 0.80843 0.66673 -0.02600
C 	C 	0.65747 0.82263 0.65453 -0.16200
H 	H 	0.64947 0.78863 0.63383 0.08000
C 	C 	0.70857 0.86163 0.66883 0.09500
H 	H 	0.73467 0.85283 0.66113 -0.02500
C 	C 	0.80571 0.97406 0.52373 -0.21600
C 	C 	0.82417 0.92728 0.74453 -0.25600
C 	C 	0.86136 0.03096 0.74633 -0.25400
C 	C 	0.78876 0.96890 0.92183 -0.22900
N 	N 	0.75664 0.01024 0.70023 -0.24600
N 	N 	0.72288 0.91172 0.69353 -0.25500
N 	N 	0.81048 0.97493 0.40503 -0.22400
N 	N 	0.84119 0.89986 0.76543 -0.25400
N 	N 	0.90193 0.06729 0.76793 -0.25100
N 	N 	0.79151 0.96961 0.04233 -0.22600
Fe	Fe	0.02903 0.82403 0.72149 1.17500
Mn	Mn	0.02210 0.86748 0.20683 1.18800
C 	C 	0.93761 0.71517 0.68483 0.07500
H 	H 	0.91637 0.73003 0.68063 -0.01600
C 	C 	0.91527 0.66113 0.67513 -0.13500
H 	H 	0.87927 0.64043 0.66363 0.06400
C 	C 	0.94497 0.63813 0.68193 0.05000
H 	H 	0.92977 0.60193 0.67863 -0.00200
C 	C 	0.99785 0.66951 0.69383 -0.11400
H 	H 	0.01917 0.65463 0.69623 0.06700
C 	C 	0.02017 0.72378 0.70243 0.04500
C 	C 	0.07564 0.76012 0.70073 0.05900
C 	C 	0.11405 0.74643 0.69433 -0.14100
H 	H 	0.10507 0.71163 0.70573 0.06700
C 	C 	0.16557 0.78393 0.67103 0.06900
H 	H 	0.19157 0.77493 0.66673 -0.02600
C 	C 	0.17737 0.83483 0.65453 -0.16200
H 	H 	0.21137 0.86083 0.63383 0.08000
C 	C 	0.13837 0.84693 0.66883 0.09500
H 	H 	0.14717 0.88183 0.66113 -0.02500
C 	C 	0.02594 0.83164 0.52373 -0.21600
C 	C 	0.07272 0.89688 0.74453 -0.25600
C 	C 	0.96904 0.83039 0.74633 -0.25400
C 	C 	0.03110 0.81985 0.92183 -0.23000
N 	N 	0.98976 0.74639 0.70023 -0.24600
N 	N 	0.08828 0.81115 0.69353 -0.25500
N 	N 	0.02507 0.83554 0.40503 -0.22400
N 	N 	0.10014 0.94132 0.76543 -0.25400
N 	N 	0.93271 0.83463 0.76793 -0.25200
N 	N 	0.03039 0.82189 0.04233 -0.22500
