data_crystal

_cell_length_a 22.08500
_cell_length_b 11.39400
_cell_length_c 20.57800
_cell_angle_alpha 90.00000
_cell_angle_beta  111.24300
_cell_angle_gamma 90.00000

_symmetry_space_group_name_	'P 1'
_symmetry_space_group_name_H-M	'P 1'

loop_
_symmetry_equiv_pos_as_xyz
  x,y,z

loop_
_atom_site_label
_atom_site_type_symbol
_atom_site_fract_x
_atom_site_fract_y
_atom_site_fract_z
_atom_site_charge
Eu	Eu	0.40241 0.46086 0.69677 1.94900
F 	F 	0.42330 0.07630 0.80540 -0.36500
F 	F 	0.42210 0.84510 0.80340 -0.36500
F 	F 	0.49910 0.68770 0.58023 -0.37100
F 	F 	0.54249 0.28850 0.55832 -0.36600
O 	O 	0.44545 0.26740 0.72713 -0.45900
O 	O 	0.44544 0.65480 0.72330 -0.46200
O 	O 	0.50435 0.46300 0.68012 -0.56000
O 	O 	0.60474 0.47210 0.68493 -0.42200
O 	O 	0.37840 0.34790 0.58610 -0.23200
O 	O 	0.35480 0.42220 0.48300 -0.05200
O 	O 	0.37200 0.53420 0.57318 -0.22900
N 	N 	0.36810 0.43490 0.54570 0.05700
C 	C 	0.46070 0.02070 0.77600 0.29800
C 	C 	0.46070 0.90070 0.77600 0.30400
C 	C 	0.54610 0.47350 0.65160 0.54800
C 	C 	0.52160 0.48760 0.57300 -0.24000
C 	C 	0.49970 0.59310 0.54150 0.30300
C 	C 	0.52170 0.39330 0.53050 0.30900
Eu	Eu	0.59759 0.46086 0.80323 1.94900
F 	F 	0.57670 0.07630 0.69460 -0.36600
F 	F 	0.57790 0.84510 0.69660 -0.36500
F 	F 	0.50090 0.68770 0.91977 -0.37200
F 	F 	0.45751 0.28850 0.94168 -0.36600
O 	O 	0.55455 0.26740 0.77287 -0.45900
O 	O 	0.55456 0.65480 0.77670 -0.46200
O 	O 	0.49565 0.46300 0.81988 -0.56000
O 	O 	0.39526 0.47210 0.81507 -0.42300
O 	O 	0.62160 0.34790 0.91390 -0.23200
O 	O 	0.64520 0.42220 0.01700 -0.05200
O 	O 	0.62800 0.53420 0.92682 -0.22900
N 	N 	0.63190 0.43490 0.95430 0.05800
C 	C 	0.53930 0.02070 0.72400 0.29700
C 	C 	0.53930 0.90070 0.72400 0.30500
C 	C 	0.45390 0.47350 0.84840 0.54800
C 	C 	0.47840 0.48760 0.92700 -0.24000
C 	C 	0.50030 0.59310 0.95850 0.30200
C 	C 	0.47830 0.39330 0.96950 0.30900
Eu	Eu	0.59759 0.53914 0.30323 1.95000
F 	F 	0.57670 0.92370 0.19460 -0.36500
F 	F 	0.57790 0.15490 0.19660 -0.36600
F 	F 	0.50090 0.31230 0.41977 -0.37200
F 	F 	0.45751 0.71150 0.44168 -0.36700
O 	O 	0.55455 0.73260 0.27287 -0.45900
O 	O 	0.55456 0.34520 0.27670 -0.46200
O 	O 	0.49565 0.53700 0.31988 -0.56100
O 	O 	0.39526 0.52790 0.31507 -0.42300
O 	O 	0.62160 0.65210 0.41390 -0.23200
O 	O 	0.64520 0.57780 0.51700 -0.05100
O 	O 	0.62800 0.46580 0.42682 -0.22900
N 	N 	0.63190 0.56510 0.45430 0.05700
C 	C 	0.53930 0.97930 0.22400 0.29800
C 	C 	0.53930 0.09930 0.22400 0.30400
C 	C 	0.45390 0.52650 0.34840 0.54800
C 	C 	0.47840 0.51240 0.42700 -0.24000
C 	C 	0.50030 0.40690 0.45850 0.30300
C 	C 	0.47830 0.60670 0.46950 0.30900
Eu	Eu	0.40241 0.53914 0.19677 1.94800
F 	F 	0.42330 0.92370 0.30540 -0.36600
F 	F 	0.42210 0.15490 0.30340 -0.36500
F 	F 	0.49910 0.31230 0.08023 -0.37200
F 	F 	0.54249 0.71150 0.05832 -0.36600
O 	O 	0.44545 0.73260 0.22713 -0.45900
O 	O 	0.44544 0.34520 0.22330 -0.46200
O 	O 	0.50435 0.53700 0.18012 -0.56000
O 	O 	0.60474 0.52790 0.18493 -0.42200
O 	O 	0.37840 0.65210 0.08610 -0.23200
O 	O 	0.35480 0.57780 0.98300 -0.05300
O 	O 	0.37200 0.46580 0.07318 -0.23000
N 	N 	0.36810 0.56510 0.04570 0.05800
C 	C 	0.46070 0.97930 0.27600 0.29700
C 	C 	0.46070 0.09930 0.27600 0.30500
C 	C 	0.54610 0.52650 0.15160 0.54800
C 	C 	0.52160 0.51240 0.07300 -0.24000
C 	C 	0.49970 0.40690 0.04150 0.30300
C 	C 	0.52170 0.60670 0.03050 0.31100
C 	C 	0.50000 0.21850 0.75000 0.58100
C 	C 	0.50000 0.08620 0.75000 -0.23100
C 	C 	0.50000 0.83600 0.75000 -0.22800
C 	C 	0.50000 0.70250 0.75000 0.59400
C 	C 	0.50000 0.78150 0.25000 0.58100
C 	C 	0.50000 0.91380 0.25000 -0.23100
C 	C 	0.50000 0.16400 0.25000 -0.22800
C 	C 	0.50000 0.29750 0.25000 0.59400
Eu	Eu	0.90241 0.96086 0.69677 1.96200
F 	F 	0.92330 0.57630 0.80540 -0.36500
F 	F 	0.92210 0.34510 0.80340 -0.36300
F 	F 	0.99910 0.18770 0.58023 -0.36800
F 	F 	0.04249 0.78850 0.55832 -0.37500
O 	O 	0.94545 0.76740 0.72713 -0.43500
O 	O 	0.94544 0.15480 0.72330 -0.43800
O 	O 	0.00435 0.96300 0.68012 -0.57900
O 	O 	0.10474 0.97210 0.68493 -0.42600
O 	O 	0.87840 0.84790 0.58610 -0.22700
O 	O 	0.85480 0.92220 0.48300 -0.04700
O 	O 	0.87200 0.03420 0.57318 -0.22600
N 	N 	0.86810 0.93490 0.54570 0.05800
C 	C 	0.96070 0.52070 0.77600 0.31500
C 	C 	0.96070 0.40070 0.77600 0.33000
C 	C 	0.04610 0.97350 0.65160 0.56200
C 	C 	0.02160 0.98760 0.57300 -0.28800
C 	C 	0.99970 0.09310 0.54150 0.35000
C 	C 	0.02170 0.89330 0.53050 0.33200
Eu	Eu	0.09759 0.96086 0.80323 1.92400
F 	F 	0.07670 0.57630 0.69460 -0.36800
F 	F 	0.07790 0.34510 0.69660 -0.36900
F 	F 	0.00090 0.18770 0.91977 -0.37400
F 	F 	0.95751 0.78850 0.94168 -0.35800
O 	O 	0.05455 0.76740 0.77287 -0.45400
O 	O 	0.05456 0.15480 0.77670 -0.45600
O 	O 	0.99565 0.96300 0.81988 -0.54000
O 	O 	0.89526 0.97210 0.81507 -0.41800
O 	O 	0.12160 0.84790 0.91390 -0.23700
O 	O 	0.14520 0.92220 0.01700 -0.05100
O 	O 	0.12800 0.03420 0.92682 -0.22700
N 	N 	0.13190 0.93490 0.95430 0.05300
C 	C 	0.03930 0.52070 0.72400 0.29300
C 	C 	0.03930 0.40070 0.72400 0.30700
C 	C 	0.95390 0.97350 0.84840 0.53400
C 	C 	0.97840 0.98760 0.92700 -0.19400
C 	C 	0.00030 0.09310 0.95850 0.26000
C 	C 	0.97830 0.89330 0.96950 0.28400
Eu	Eu	0.09759 0.03914 0.30323 1.92800
F 	F 	0.07670 0.42370 0.19460 -0.36800
F 	F 	0.07790 0.65490 0.19660 -0.36900
F 	F 	0.00090 0.81230 0.41977 -0.37300
F 	F 	0.95751 0.21150 0.44168 -0.35800
O 	O 	0.05455 0.23260 0.27287 -0.45500
O 	O 	0.05456 0.84520 0.27670 -0.45700
O 	O 	0.99565 0.03700 0.31988 -0.54100
O 	O 	0.89526 0.02790 0.31507 -0.41800
O 	O 	0.12160 0.15210 0.41390 -0.23600
O 	O 	0.14520 0.07780 0.51700 -0.05500
O 	O 	0.12800 0.96580 0.42682 -0.23000
N 	N 	0.13190 0.06510 0.45430 0.05700
C 	C 	0.03930 0.47930 0.22400 0.29300
C 	C 	0.03930 0.59930 0.22400 0.30700
C 	C 	0.95390 0.02650 0.34840 0.53400
C 	C 	0.97840 0.01240 0.42700 -0.19200
C 	C 	0.00030 0.90690 0.45850 0.25700
C 	C 	0.97830 0.10670 0.46950 0.28700
Eu	Eu	0.90241 0.03914 0.19677 1.95800
F 	F 	0.92330 0.42370 0.30540 -0.36400
F 	F 	0.92210 0.65490 0.30340 -0.36300
F 	F 	0.99910 0.81230 0.08023 -0.36900
F 	F 	0.04249 0.21150 0.05832 -0.37500
O 	O 	0.94545 0.23260 0.22713 -0.43600
O 	O 	0.94544 0.84520 0.22330 -0.43800
O 	O 	0.00435 0.03700 0.18012 -0.57800
O 	O 	0.10474 0.02790 0.18493 -0.42700
O 	O 	0.87840 0.15210 0.08610 -0.22700
O 	O 	0.85480 0.07780 0.98300 -0.04400
O 	O 	0.87200 0.96580 0.07318 -0.22300
N 	N 	0.86810 0.06510 0.04570 0.05400
C 	C 	0.96070 0.47930 0.27600 0.31400
C 	C 	0.96070 0.59930 0.27600 0.32900
C 	C 	0.04610 0.02650 0.15160 0.56200
C 	C 	0.02160 0.01240 0.07300 -0.28900
C 	C 	0.99970 0.90690 0.04150 0.35300
C 	C 	0.02170 0.10670 0.03050 0.33100
C 	C 	0.00000 0.71850 0.75000 0.55200
C 	C 	0.00000 0.58620 0.75000 -0.25100
C 	C 	0.00000 0.33600 0.75000 -0.25100
C 	C 	0.00000 0.20250 0.75000 0.56600
C 	C 	0.00000 0.28150 0.25000 0.55300
C 	C 	0.00000 0.41380 0.25000 -0.25000
C 	C 	0.00000 0.66400 0.25000 -0.25000
C 	C 	0.00000 0.79750 0.25000 0.56700
