data_crystal

_cell_length_a 13.16600
_cell_length_b 34.11200
_cell_length_c 10.07800
_cell_angle_alpha 90.00000
_cell_angle_beta  90.00000
_cell_angle_gamma 90.00000

_symmetry_space_group_name_	'P 1'
_symmetry_space_group_name_H-M	'P 1'

loop_
_symmetry_equiv_pos_as_xyz
  x,y,z

loop_
_atom_site_label
_atom_site_type_symbol
_atom_site_fract_x
_atom_site_fract_y
_atom_site_fract_z
_atom_site_charge
O 	O 	0.18530 0.79177 0.19520 -0.57700
O 	O 	0.90380 0.21780 0.36650 -0.43800
O 	O 	0.02820 0.21760 0.51060 -0.28600
O 	O 	0.20730 0.80560 0.40630 -0.55400
N 	N 	0.13750 0.97940 0.18710 -0.22600
H 	H 	0.13350 0.99300 0.25890 0.11100
N 	N 	0.13030 0.98560 0.95590 -0.13100
N 	N 	0.10910 0.06660 0.99190 -0.22200
H 	H 	0.10370 0.09210 0.00270 0.13200
N 	N 	0.13300 0.05610 0.21900 -0.52900
H 	H 	0.17320 0.04280 0.27300 0.17600
C 	C 	0.19090 0.81460 0.28860 0.56400
C 	C 	0.17130 0.85790 0.26000 -0.25800
C 	C 	0.12080 0.01090 0.85010 0.03500
C 	C 	0.16510 0.87190 0.13230 0.17100
H 	H 	0.16780 0.85380 0.06080 -0.03400
C 	C 	0.14970 0.93780 0.20780 0.21100
C 	C 	0.15530 0.92420 0.33690 -0.25100
H 	H 	0.15170 0.94240 0.40820 0.11100
C 	C 	0.15490 0.91140 0.10420 -0.24900
H 	H 	0.15160 0.92030 0.01490 0.12000
C 	C 	0.10960 0.05070 0.86450 0.07600
C 	C 	0.13070 0.00050 0.07370 0.07900
C 	C 	0.98870 0.10600 0.23470 -0.17200
H 	H 	0.94510 0.09030 0.18140 0.08400
C 	C 	0.95410 0.14130 0.27980 0.08200
H 	H 	0.88800 0.15030 0.25690 0.00400
C 	C 	0.11140 0.02050 0.61260 -0.03500
H 	H 	0.11240 0.01030 0.52500 0.02900
C 	C 	0.16600 0.88550 0.36390 0.16600
H 	H 	0.16980 0.87680 0.45340 -0.01700
C 	C 	0.01780 0.16420 0.36050 -0.14100
C 	C 	0.12370 0.99520 0.71970 -0.07600
H 	H 	0.13370 0.96790 0.70580 0.05600
C 	C 	0.98110 0.20310 0.41610 0.39200
C 	C 	0.11700 0.04310 0.09800 0.14900
C 	C 	0.09610 0.07610 0.76060 -0.09900
H 	H 	0.08590 0.10330 0.77570 0.06900
C 	C 	0.09780 0.06090 0.63180 -0.01600
H 	H 	0.08970 0.07790 0.55770 0.03700
C 	C 	0.08580 0.09200 0.26430 0.12100
C 	C 	0.15110 0.11580 0.34510 -0.14700
H 	H 	0.21860 0.10760 0.36370 0.08600
C 	C 	0.11490 0.15060 0.39530 0.06700
H 	H 	0.15580 0.16550 0.45420 0.02600
N 	N 	0.09800 0.05320 0.23400 0.27800
O 	O 	0.31470 0.70823 0.19520 -0.57500
O 	O 	0.59620 0.28220 0.36650 -0.43800
O 	O 	0.47180 0.28240 0.51060 -0.28700
O 	O 	0.29270 0.69440 0.40630 -0.55300
N 	N 	0.36250 0.52060 0.18710 -0.22500
H 	H 	0.36650 0.50700 0.25890 0.11200
N 	N 	0.36970 0.51440 0.95590 -0.13100
N 	N 	0.39090 0.43340 0.99190 -0.22400
H 	H 	0.39630 0.40790 0.00270 0.13400
N 	N 	0.36700 0.44390 0.21900 -0.53100
H 	H 	0.32680 0.45720 0.27300 0.17800
C 	C 	0.30910 0.68540 0.28860 0.56500
C 	C 	0.32870 0.64210 0.26000 -0.25600
C 	C 	0.37920 0.48910 0.85010 0.03600
C 	C 	0.33490 0.62810 0.13230 0.17300
H 	H 	0.33220 0.64620 0.06080 -0.03300
C 	C 	0.35030 0.56220 0.20780 0.21300
C 	C 	0.34470 0.57580 0.33690 -0.25000
H 	H 	0.34830 0.55760 0.40820 0.11100
C 	C 	0.34510 0.58860 0.10420 -0.24900
H 	H 	0.34840 0.57970 0.01490 0.12000
C 	C 	0.39040 0.44930 0.86450 0.07500
C 	C 	0.36930 0.49950 0.07370 0.08000
C 	C 	0.51130 0.39400 0.23470 -0.17400
H 	H 	0.55490 0.40970 0.18140 0.08500
C 	C 	0.54590 0.35870 0.27980 0.08600
H 	H 	0.61200 0.34970 0.25690 0.00300
C 	C 	0.38860 0.47950 0.61260 -0.03400
H 	H 	0.38760 0.48970 0.52500 0.02900
C 	C 	0.33400 0.61450 0.36390 0.16600
H 	H 	0.33020 0.62320 0.45340 -0.01700
C 	C 	0.48220 0.33580 0.36050 -0.14400
C 	C 	0.37630 0.50480 0.71970 -0.07700
H 	H 	0.36630 0.53210 0.70580 0.05600
C 	C 	0.51890 0.29690 0.41610 0.39700
C 	C 	0.38300 0.45690 0.09800 0.15100
C 	C 	0.40390 0.42390 0.76060 -0.09900
H 	H 	0.41410 0.39670 0.77570 0.06800
C 	C 	0.40220 0.43910 0.63180 -0.01700
H 	H 	0.41030 0.42210 0.55770 0.03700
C 	C 	0.41420 0.40800 0.26430 0.12300
C 	C 	0.34890 0.38420 0.34510 -0.14800
H 	H 	0.28140 0.39240 0.36370 0.08600
C 	C 	0.38510 0.34940 0.39530 0.06900
H 	H 	0.34420 0.33450 0.45420 0.02500
N 	N 	0.40200 0.44680 0.23400 0.28000
O 	O 	0.81470 0.29177 0.30480 -0.57500
O 	O 	0.09620 0.71780 0.13350 -0.43300
O 	O 	0.97180 0.71760 0.98940 -0.27200
O 	O 	0.79270 0.30560 0.09370 -0.54400
N 	N 	0.86250 0.47940 0.31290 -0.22500
H 	H 	0.86650 0.49300 0.24110 0.11300
N 	N 	0.86970 0.48560 0.54410 -0.13300
N 	N 	0.89090 0.56660 0.50810 -0.21800
H 	H 	0.89630 0.59210 0.49730 0.13000
N 	N 	0.86700 0.55610 0.28100 -0.53300
H 	H 	0.82680 0.54280 0.22700 0.17800
C 	C 	0.80910 0.31460 0.21140 0.56400
C 	C 	0.82870 0.35790 0.24000 -0.25300
C 	C 	0.87920 0.51090 0.64990 0.03700
C 	C 	0.83490 0.37190 0.36770 0.17200
H 	H 	0.83220 0.35380 0.43920 -0.03000
C 	C 	0.85030 0.43780 0.29220 0.21300
C 	C 	0.84470 0.42420 0.16310 -0.24800
H 	H 	0.84830 0.44240 0.09180 0.11200
C 	C 	0.84510 0.41140 0.39580 -0.24700
H 	H 	0.84840 0.42030 0.48510 0.12200
C 	C 	0.89040 0.55070 0.63550 0.07400
C 	C 	0.86930 0.50050 0.42630 0.08200
C 	C 	0.01130 0.60600 0.26530 -0.17200
H 	H 	0.05490 0.59030 0.31860 0.08200
C 	C 	0.04590 0.64130 0.22020 0.07100
H 	H 	0.11200 0.65030 0.24310 0.00600
C 	C 	0.88860 0.52050 0.88740 -0.03300
H 	H 	0.88760 0.51030 0.97500 0.02800
C 	C 	0.83400 0.38550 0.13610 0.16500
H 	H 	0.83020 0.37680 0.04660 -0.01300
C 	C 	0.98220 0.66420 0.13950 -0.12900
C 	C 	0.87630 0.49520 0.78030 -0.07800
H 	H 	0.86630 0.46790 0.79420 0.05500
C 	C 	0.01890 0.70310 0.08390 0.37100
C 	C 	0.88300 0.54310 0.40200 0.14800
C 	C 	0.90390 0.57610 0.73940 -0.09800
H 	H 	0.91410 0.60330 0.72430 0.06900
C 	C 	0.90220 0.56090 0.86820 -0.01800
H 	H 	0.91030 0.57790 0.94230 0.03900
C 	C 	0.91420 0.59200 0.23570 0.12100
C 	C 	0.84890 0.61580 0.15490 -0.14400
H 	H 	0.78140 0.60760 0.13630 0.08400
C 	C 	0.88510 0.65060 0.10470 0.05900
H 	H 	0.84420 0.66550 0.04580 0.02600
N 	N 	0.90200 0.55320 0.26600 0.28300
O 	O 	0.68530 0.20823 0.30480 -0.57500
O 	O 	0.40380 0.78220 0.13350 -0.43500
O 	O 	0.52820 0.78240 0.98940 -0.27400
O 	O 	0.70730 0.19440 0.09370 -0.54400
N 	N 	0.63750 0.02060 0.31290 -0.22500
H 	H 	0.63350 0.00700 0.24110 0.11300
N 	N 	0.63030 0.01440 0.54410 -0.13300
N 	N 	0.60910 0.93340 0.50810 -0.21800
H 	H 	0.60370 0.90790 0.49730 0.12900
N 	N 	0.63300 0.94390 0.28100 -0.52600
H 	H 	0.67320 0.95720 0.22700 0.17600
C 	C 	0.69090 0.18540 0.21140 0.56400
C 	C 	0.67130 0.14210 0.24000 -0.25300
C 	C 	0.62080 0.98910 0.64990 0.03700
C 	C 	0.66510 0.12810 0.36770 0.17200
H 	H 	0.66780 0.14620 0.43920 -0.03000
C 	C 	0.64970 0.06220 0.29220 0.21300
C 	C 	0.65530 0.07580 0.16310 -0.24800
H 	H 	0.65170 0.05760 0.09180 0.11200
C 	C 	0.65490 0.08860 0.39580 -0.24700
H 	H 	0.65160 0.07970 0.48510 0.12200
C 	C 	0.60960 0.94930 0.63550 0.07400
C 	C 	0.63070 0.99950 0.42630 0.08300
C 	C 	0.48870 0.89400 0.26530 -0.17300
H 	H 	0.44510 0.90970 0.31860 0.08300
C 	C 	0.45410 0.85870 0.22020 0.08100
H 	H 	0.38800 0.84970 0.24310 0.00300
C 	C 	0.61140 0.97950 0.88740 -0.03200
H 	H 	0.61240 0.98970 0.97500 0.02900
C 	C 	0.66600 0.11450 0.13610 0.16500
H 	H 	0.66980 0.12320 0.04660 -0.01300
C 	C 	0.51780 0.83580 0.13950 -0.14100
C 	C 	0.62370 0.00480 0.78030 -0.07900
H 	H 	0.63370 0.03210 0.79420 0.05600
C 	C 	0.48110 0.79690 0.08390 0.38100
C 	C 	0.61700 0.95690 0.40200 0.14700
C 	C 	0.59610 0.92390 0.73940 -0.09700
H 	H 	0.58590 0.89670 0.72430 0.06900
C 	C 	0.59780 0.93910 0.86820 -0.01800
H 	H 	0.58970 0.92210 0.94230 0.04000
C 	C 	0.58580 0.90800 0.23570 0.12100
C 	C 	0.65110 0.88420 0.15490 -0.14800
H 	H 	0.71860 0.89240 0.13630 0.08500
C 	C 	0.61490 0.84940 0.10470 0.06500
H 	H 	0.65580 0.83450 0.04580 0.02400
N 	N 	0.59800 0.94680 0.26600 0.27700
O 	O 	0.81470 0.20823 0.80480 -0.57600
O 	O 	0.09620 0.78220 0.63350 -0.43700
O 	O 	0.97180 0.78240 0.48940 -0.28500
O 	O 	0.79270 0.19440 0.59370 -0.55300
N 	N 	0.86250 0.02060 0.81290 -0.22500
H 	H 	0.86650 0.00700 0.74110 0.11200
N 	N 	0.86970 0.01440 0.04410 -0.13000
N 	N 	0.89090 0.93340 0.00810 -0.22100
H 	H 	0.89630 0.90790 0.99730 0.13300
N 	N 	0.86700 0.94390 0.78100 -0.52800
H 	H 	0.82680 0.95720 0.72700 0.17700
C 	C 	0.80910 0.18540 0.71140 0.56500
C 	C 	0.82870 0.14210 0.74000 -0.25700
C 	C 	0.87920 0.98910 0.14990 0.03600
C 	C 	0.83490 0.12810 0.86770 0.17200
H 	H 	0.83220 0.14620 0.93920 -0.03300
C 	C 	0.85030 0.06220 0.79220 0.21200
C 	C 	0.84470 0.07580 0.66310 -0.25000
H 	H 	0.84830 0.05760 0.59180 0.11100
C 	C 	0.84510 0.08860 0.89580 -0.24900
H 	H 	0.84840 0.07970 0.98510 0.12000
C 	C 	0.89040 0.94930 0.13550 0.07600
C 	C 	0.86930 0.99950 0.92630 0.07900
C 	C 	0.01130 0.89400 0.76530 -0.17200
H 	H 	0.05490 0.90970 0.81860 0.08400
C 	C 	0.04590 0.85870 0.72020 0.08200
H 	H 	0.11200 0.84970 0.74310 0.00400
C 	C 	0.88860 0.97950 0.38740 -0.03500
H 	H 	0.88760 0.98970 0.47500 0.02900
C 	C 	0.83400 0.11450 0.63610 0.16600
H 	H 	0.83020 0.12320 0.54660 -0.01700
C 	C 	0.98220 0.83580 0.63950 -0.14100
C 	C 	0.87630 0.00480 0.28030 -0.07600
H 	H 	0.86630 0.03210 0.29420 0.05600
C 	C 	0.01890 0.79690 0.58390 0.39200
C 	C 	0.88300 0.95690 0.90200 0.14900
C 	C 	0.90390 0.92390 0.23940 -0.09900
H 	H 	0.91410 0.89670 0.22430 0.06900
C 	C 	0.90220 0.93910 0.36820 -0.01600
H 	H 	0.91030 0.92210 0.44230 0.03700
C 	C 	0.91420 0.90800 0.73570 0.12100
C 	C 	0.84890 0.88420 0.65490 -0.14700
H 	H 	0.78140 0.89240 0.63630 0.08600
C 	C 	0.88510 0.84940 0.60470 0.06700
H 	H 	0.84420 0.83450 0.54580 0.02600
N 	N 	0.90200 0.94680 0.76600 0.27800
O 	O 	0.68530 0.29177 0.80480 -0.57500
O 	O 	0.40380 0.71780 0.63350 -0.43800
O 	O 	0.52820 0.71760 0.48940 -0.28700
O 	O 	0.70730 0.30560 0.59370 -0.55300
N 	N 	0.63750 0.47940 0.81290 -0.22500
H 	H 	0.63350 0.49300 0.74110 0.11200
N 	N 	0.63030 0.48560 0.04410 -0.13100
N 	N 	0.60910 0.56660 0.00810 -0.22400
H 	H 	0.60370 0.59210 0.99730 0.13400
N 	N 	0.63300 0.55610 0.78100 -0.53100
H 	H 	0.67320 0.54280 0.72700 0.17800
C 	C 	0.69090 0.31460 0.71140 0.56500
C 	C 	0.67130 0.35790 0.74000 -0.25600
C 	C 	0.62080 0.51090 0.14990 0.03600
C 	C 	0.66510 0.37190 0.86770 0.17300
H 	H 	0.66780 0.35380 0.93920 -0.03300
C 	C 	0.64970 0.43780 0.79220 0.21300
C 	C 	0.65530 0.42420 0.66310 -0.25000
H 	H 	0.65170 0.44240 0.59180 0.11100
C 	C 	0.65490 0.41140 0.89580 -0.24900
H 	H 	0.65160 0.42030 0.98510 0.12000
C 	C 	0.60960 0.55070 0.13550 0.07500
C 	C 	0.63070 0.50050 0.92630 0.08000
C 	C 	0.48870 0.60600 0.76530 -0.17400
H 	H 	0.44510 0.59030 0.81860 0.08500
C 	C 	0.45410 0.64130 0.72020 0.08600
H 	H 	0.38800 0.65030 0.74310 0.00300
C 	C 	0.61140 0.52050 0.38740 -0.03400
H 	H 	0.61240 0.51030 0.47500 0.02900
C 	C 	0.66600 0.38550 0.63610 0.16600
H 	H 	0.66980 0.37680 0.54660 -0.01700
C 	C 	0.51780 0.66420 0.63950 -0.14400
C 	C 	0.62370 0.49520 0.28030 -0.07700
H 	H 	0.63370 0.46790 0.29420 0.05600
C 	C 	0.48110 0.70310 0.58390 0.39700
C 	C 	0.61700 0.54310 0.90200 0.15100
C 	C 	0.59610 0.57610 0.23940 -0.09900
H 	H 	0.58590 0.60330 0.22430 0.06800
C 	C 	0.59780 0.56090 0.36820 -0.01700
H 	H 	0.58970 0.57790 0.44230 0.03700
C 	C 	0.58580 0.59200 0.73570 0.12300
C 	C 	0.65110 0.61580 0.65490 -0.14800
H 	H 	0.71860 0.60760 0.63630 0.08600
C 	C 	0.61490 0.65060 0.60470 0.06900
H 	H 	0.65580 0.66550 0.54580 0.02500
N 	N 	0.59800 0.55320 0.76600 0.28000
O 	O 	0.18530 0.70823 0.69520 -0.57500
O 	O 	0.90380 0.28220 0.86650 -0.43300
O 	O 	0.02820 0.28240 0.01060 -0.27200
O 	O 	0.20730 0.69440 0.90630 -0.54400
N 	N 	0.13750 0.52060 0.68710 -0.22500
H 	H 	0.13350 0.50700 0.75890 0.11300
N 	N 	0.13030 0.51440 0.45590 -0.13300
N 	N 	0.10910 0.43340 0.49190 -0.21800
H 	H 	0.10370 0.40790 0.50270 0.13000
N 	N 	0.13300 0.44390 0.71900 -0.53300
H 	H 	0.17320 0.45720 0.77300 0.17800
C 	C 	0.19090 0.68540 0.78860 0.56400
C 	C 	0.17130 0.64210 0.76000 -0.25300
C 	C 	0.12080 0.48910 0.35010 0.03700
C 	C 	0.16510 0.62810 0.63230 0.17200
H 	H 	0.16780 0.64620 0.56080 -0.03000
C 	C 	0.14970 0.56220 0.70780 0.21300
C 	C 	0.15530 0.57580 0.83690 -0.24800
H 	H 	0.15170 0.55760 0.90820 0.11200
C 	C 	0.15490 0.58860 0.60420 -0.24700
H 	H 	0.15160 0.57970 0.51490 0.12200
C 	C 	0.10960 0.44930 0.36450 0.07400
C 	C 	0.13070 0.49950 0.57370 0.08200
C 	C 	0.98870 0.39400 0.73470 -0.17200
H 	H 	0.94510 0.40970 0.68140 0.08200
C 	C 	0.95410 0.35870 0.77980 0.07100
H 	H 	0.88800 0.34970 0.75690 0.00600
C 	C 	0.11140 0.47950 0.11260 -0.03300
H 	H 	0.11240 0.48970 0.02500 0.02800
C 	C 	0.16600 0.61450 0.86390 0.16500
H 	H 	0.16980 0.62320 0.95340 -0.01300
C 	C 	0.01780 0.33580 0.86050 -0.12900
C 	C 	0.12370 0.50480 0.21970 -0.07800
H 	H 	0.13370 0.53210 0.20580 0.05500
C 	C 	0.98110 0.29690 0.91610 0.37100
C 	C 	0.11700 0.45690 0.59800 0.14800
C 	C 	0.09610 0.42390 0.26060 -0.09800
H 	H 	0.08590 0.39670 0.27570 0.06900
C 	C 	0.09780 0.43910 0.13180 -0.01800
H 	H 	0.08970 0.42210 0.05770 0.03900
C 	C 	0.08580 0.40800 0.76430 0.12100
C 	C 	0.15110 0.38420 0.84510 -0.14400
H 	H 	0.21860 0.39240 0.86370 0.08400
C 	C 	0.11490 0.34940 0.89530 0.05900
H 	H 	0.15580 0.33450 0.95420 0.02600
N 	N 	0.09800 0.44680 0.73400 0.28300
O 	O 	0.31470 0.79177 0.69520 -0.57500
O 	O 	0.59620 0.21780 0.86650 -0.43500
O 	O 	0.47180 0.21760 0.01060 -0.27400
O 	O 	0.29270 0.80560 0.90630 -0.54400
N 	N 	0.36250 0.97940 0.68710 -0.22500
H 	H 	0.36650 0.99300 0.75890 0.11300
N 	N 	0.36970 0.98560 0.45590 -0.13300
N 	N 	0.39090 0.06660 0.49190 -0.21800
H 	H 	0.39630 0.09210 0.50270 0.12900
N 	N 	0.36700 0.05610 0.71900 -0.52600
H 	H 	0.32680 0.04280 0.77300 0.17600
C 	C 	0.30910 0.81460 0.78860 0.56400
C 	C 	0.32870 0.85790 0.76000 -0.25300
C 	C 	0.37920 0.01090 0.35010 0.03700
C 	C 	0.33490 0.87190 0.63230 0.17200
H 	H 	0.33220 0.85380 0.56080 -0.03000
C 	C 	0.35030 0.93780 0.70780 0.21300
C 	C 	0.34470 0.92420 0.83690 -0.24800
H 	H 	0.34830 0.94240 0.90820 0.11200
C 	C 	0.34510 0.91140 0.60420 -0.24700
H 	H 	0.34840 0.92030 0.51490 0.12200
C 	C 	0.39040 0.05070 0.36450 0.07400
C 	C 	0.36930 0.00050 0.57370 0.08300
C 	C 	0.51130 0.10600 0.73470 -0.17300
H 	H 	0.55490 0.09030 0.68140 0.08300
C 	C 	0.54590 0.14130 0.77980 0.08100
H 	H 	0.61200 0.15030 0.75690 0.00300
C 	C 	0.38860 0.02050 0.11260 -0.03200
H 	H 	0.38760 0.01030 0.02500 0.02900
C 	C 	0.33400 0.88550 0.86390 0.16500
H 	H 	0.33020 0.87680 0.95340 -0.01300
C 	C 	0.48220 0.16420 0.86050 -0.14100
C 	C 	0.37630 0.99520 0.21970 -0.07900
H 	H 	0.36630 0.96790 0.20580 0.05600
C 	C 	0.51890 0.20310 0.91610 0.38100
C 	C 	0.38300 0.04310 0.59800 0.14700
C 	C 	0.40390 0.07610 0.26060 -0.09700
H 	H 	0.41410 0.10330 0.27570 0.06900
C 	C 	0.40220 0.06090 0.13180 -0.01800
H 	H 	0.41030 0.07790 0.05770 0.04000
C 	C 	0.41420 0.09200 0.76430 0.12100
C 	C 	0.34890 0.11580 0.84510 -0.14800
H 	H 	0.28140 0.10760 0.86370 0.08500
C 	C 	0.38510 0.15060 0.89530 0.06500
H 	H 	0.34420 0.16550 0.95420 0.02400
N 	N 	0.40200 0.05320 0.73400 0.27700
Eu	Eu	0.25000 0.75000 0.03590 1.98800
Eu	Eu	0.75000 0.25000 0.46410 2.01300
Eu	Eu	0.75000 0.25000 0.96410 1.98800
Eu	Eu	0.25000 0.75000 0.53590 2.01300
