data_crystal

_cell_length_a 21.19660
_cell_length_b 8.30140
_cell_length_c 23.87070
_cell_angle_alpha 90.00000
_cell_angle_beta  104.63900
_cell_angle_gamma 90.00000

_symmetry_space_group_name_	'P 1'
_symmetry_space_group_name_H-M	'P 1'

loop_
_symmetry_equiv_pos_as_xyz
  x,y,z

loop_
_atom_site_label
_atom_site_type_symbol
_atom_site_fract_x
_atom_site_fract_y
_atom_site_fract_z
_atom_site_charge
N 	N 	0.58285 0.57860 0.29845 -0.30100
N 	N 	0.61438 0.51840 0.35211 -0.20400
H 	H 	0.60000 0.44010 0.36900 0.04900
N 	N 	0.83076 0.93650 0.32800 -0.14700
N 	N 	0.80395 0.03469 0.36223 -0.19600
H 	H 	0.82140 0.12350 0.37710 0.09400
C 	C 	0.71402 0.55940 0.43461 -0.65500
H 	H 	0.68790 0.55840 0.46210 0.19300
H 	H 	0.74760 0.63940 0.44560 0.20300
H 	H 	0.73360 0.45540 0.43380 0.19300
C 	C 	0.67129 0.59880 0.37495 0.20200
C 	C 	0.67802 0.71620 0.33438 -0.12800
C 	C 	0.62115 0.70000 0.28743 0.17700
C 	C 	0.60128 0.80150 0.23307 -0.60600
H 	H 	0.62980 0.77930 0.20860 0.18300
H 	H 	0.60420 0.91360 0.24340 0.16600
H 	H 	0.55720 0.77610 0.21280 0.13500
C 	C 	0.70729 0.06490 0.40508 -0.61900
H 	H 	0.73610 0.12810 0.43430 0.18000
H 	H 	0.68460 0.98880 0.42310 0.18400
H 	H 	0.67630 0.13430 0.38010 0.17600
C 	C 	0.74641 0.97560 0.36997 0.19000
C 	C 	0.73439 0.83040 0.33886 -0.12800
C 	C 	0.78864 0.81200 0.31385 0.19600
C 	C 	0.80254 0.67360 0.27690 -0.64000
H 	H 	0.78830 0.70230 0.23670 0.19900
H 	H 	0.77960 0.57910 0.28400 0.20800
H 	H 	0.84850 0.65190 0.28670 0.18100
N 	N 	0.41715 0.57860 0.20155 -0.30200
N 	N 	0.38562 0.51840 0.14789 -0.20500
H 	H 	0.40000 0.44010 0.13100 0.04900
N 	N 	0.16924 0.93650 0.17200 -0.15700
N 	N 	0.19605 0.03469 0.13777 -0.19500
H 	H 	0.17860 0.12350 0.12290 0.08300
C 	C 	0.28598 0.55940 0.06539 -0.64500
H 	H 	0.31210 0.55840 0.03790 0.19100
H 	H 	0.25240 0.63940 0.05440 0.19600
H 	H 	0.26640 0.45540 0.06620 0.18700
C 	C 	0.32871 0.59880 0.12505 0.19900
C 	C 	0.32198 0.71620 0.16562 -0.12900
C 	C 	0.37885 0.70000 0.21257 0.17800
C 	C 	0.39872 0.80150 0.26693 -0.60700
H 	H 	0.37020 0.77930 0.29140 0.18400
H 	H 	0.39580 0.91360 0.25660 0.16700
H 	H 	0.44280 0.77610 0.28720 0.13600
C 	C 	0.29271 0.06490 0.09492 -0.60100
H 	H 	0.26390 0.12810 0.06570 0.17300
H 	H 	0.31540 0.98880 0.07690 0.17800
H 	H 	0.32370 0.13430 0.11990 0.17100
C 	C 	0.25359 0.97560 0.13003 0.17900
C 	C 	0.26561 0.83040 0.16114 -0.12200
C 	C 	0.21136 0.81200 0.18615 0.18200
C 	C 	0.19746 0.67360 0.22310 -0.61400
H 	H 	0.21170 0.70230 0.26330 0.18800
H 	H 	0.22040 0.57910 0.21600 0.19800
H 	H 	0.15150 0.65190 0.21330 0.16000
Zn	Zn	0.50000 0.47089 0.25000 1.09600
N 	N 	0.08285 0.07860 0.29845 -0.30900
N 	N 	0.11438 0.01840 0.35211 -0.20000
H 	H 	0.10000 0.94010 0.36900 0.03300
N 	N 	0.33076 0.43650 0.32800 -0.15100
N 	N 	0.30395 0.53469 0.36223 -0.20000
H 	H 	0.32140 0.62350 0.37710 0.08900
C 	C 	0.21402 0.05940 0.43461 -0.62200
H 	H 	0.18790 0.05840 0.46210 0.17900
H 	H 	0.24760 0.13940 0.44560 0.19000
H 	H 	0.23360 0.95540 0.43380 0.17900
C 	C 	0.17129 0.09880 0.37495 0.18600
C 	C 	0.17802 0.21620 0.33438 -0.11900
C 	C 	0.12115 0.20000 0.28743 0.15800
C 	C 	0.10128 0.30150 0.23307 -0.56600
H 	H 	0.12980 0.27930 0.20860 0.16800
H 	H 	0.10420 0.41360 0.24340 0.14700
H 	H 	0.05720 0.27610 0.21280 0.10700
C 	C 	0.20729 0.56490 0.40508 -0.62000
H 	H 	0.23610 0.62810 0.43430 0.17700
H 	H 	0.18460 0.48880 0.42310 0.18000
H 	H 	0.17630 0.63430 0.38010 0.17100
C 	C 	0.24641 0.47560 0.36997 0.19200
C 	C 	0.23439 0.33040 0.33886 -0.13200
C 	C 	0.28864 0.31200 0.31385 0.19300
C 	C 	0.30254 0.17360 0.27690 -0.63400
H 	H 	0.28830 0.20230 0.23670 0.19700
H 	H 	0.27960 0.07910 0.28400 0.20600
H 	H 	0.34850 0.15190 0.28670 0.17300
N 	N 	0.91715 0.07860 0.20155 -0.28600
N 	N 	0.88562 0.01840 0.14789 -0.20000
H 	H 	0.90000 0.94010 0.13100 0.05700
N 	N 	0.66924 0.43650 0.17200 -0.15100
N 	N 	0.69605 0.53469 0.13777 -0.20200
H 	H 	0.67860 0.62350 0.12290 0.08900
C 	C 	0.78598 0.05940 0.06539 -0.64500
H 	H 	0.81210 0.05840 0.03790 0.19700
H 	H 	0.75240 0.13940 0.05440 0.19900
H 	H 	0.76640 0.95540 0.06620 0.18700
C 	C 	0.82871 0.09880 0.12505 0.20600
C 	C 	0.82198 0.21620 0.16562 -0.13200
C 	C 	0.87885 0.20000 0.21257 0.20000
C 	C 	0.89872 0.30150 0.26693 -0.65800
H 	H 	0.87020 0.27930 0.29140 0.20500
H 	H 	0.89580 0.41360 0.25660 0.19200
H 	H 	0.94280 0.27610 0.28720 0.17200
C 	C 	0.79271 0.56490 0.09492 -0.65400
H 	H 	0.76390 0.62810 0.06570 0.19000
H 	H 	0.81540 0.48880 0.07690 0.20100
H 	H 	0.82370 0.63430 0.11990 0.19100
C 	C 	0.75359 0.47560 0.13003 0.20100
C 	C 	0.76561 0.33040 0.16114 -0.12900
C 	C 	0.71136 0.31200 0.18615 0.19100
C 	C 	0.69746 0.17360 0.22310 -0.63200
H 	H 	0.71170 0.20230 0.26330 0.19600
H 	H 	0.72040 0.07910 0.21600 0.20600
H 	H 	0.65150 0.15190 0.21330 0.17300
Zn	Zn	0.00000 0.97089 0.25000 1.07300
N 	N 	0.41715 0.42140 0.70155 -0.30200
N 	N 	0.38562 0.48160 0.64789 -0.20400
H 	H 	0.40000 0.55990 0.63100 0.04800
N 	N 	0.16924 0.06350 0.67200 -0.15700
N 	N 	0.19605 0.96531 0.63777 -0.19600
H 	H 	0.17860 0.87650 0.62290 0.08300
C 	C 	0.28598 0.44060 0.56539 -0.64200
H 	H 	0.31210 0.44160 0.53790 0.18900
H 	H 	0.25240 0.36060 0.55440 0.19400
H 	H 	0.26640 0.54460 0.56620 0.18500
C 	C 	0.32871 0.40120 0.62505 0.19800
C 	C 	0.32198 0.28380 0.66562 -0.12800
C 	C 	0.37885 0.30000 0.71257 0.17700
C 	C 	0.39872 0.19850 0.76693 -0.60600
H 	H 	0.37020 0.22070 0.79140 0.18300
H 	H 	0.39580 0.08640 0.75660 0.16600
H 	H 	0.44280 0.22390 0.78720 0.13500
C 	C 	0.29271 0.93510 0.59492 -0.61100
H 	H 	0.26390 0.87190 0.56570 0.17500
H 	H 	0.31540 0.01120 0.57690 0.18100
H 	H 	0.32370 0.86570 0.61990 0.17400
C 	C 	0.25359 0.02440 0.63003 0.18300
C 	C 	0.26561 0.16960 0.66114 -0.12400
C 	C 	0.21136 0.18800 0.68615 0.18200
C 	C 	0.19746 0.32640 0.72310 -0.61400
H 	H 	0.21170 0.29770 0.76330 0.18900
H 	H 	0.22040 0.42090 0.71600 0.19800
H 	H 	0.15150 0.34810 0.71330 0.16000
N 	N 	0.58285 0.42140 0.79845 -0.30200
N 	N 	0.61438 0.48160 0.85211 -0.20500
H 	H 	0.60000 0.55990 0.86900 0.04800
N 	N 	0.83076 0.06350 0.82800 -0.14800
N 	N 	0.80395 0.96531 0.86223 -0.19500
H 	H 	0.82140 0.87650 0.87710 0.09400
C 	C 	0.71402 0.44060 0.93461 -0.65200
H 	H 	0.68790 0.44160 0.96210 0.19200
H 	H 	0.74760 0.36060 0.94560 0.20100
H 	H 	0.73360 0.54460 0.93380 0.19200
C 	C 	0.67129 0.40120 0.87495 0.20100
C 	C 	0.67802 0.28380 0.83438 -0.12800
C 	C 	0.62115 0.30000 0.78743 0.17700
C 	C 	0.60128 0.19850 0.73307 -0.60600
H 	H 	0.62980 0.22070 0.70860 0.18300
H 	H 	0.60420 0.08640 0.74340 0.16600
H 	H 	0.55720 0.22390 0.71280 0.13500
C 	C 	0.70729 0.93510 0.90508 -0.60800
H 	H 	0.73610 0.87190 0.93430 0.17700
H 	H 	0.68460 0.01120 0.92310 0.17900
H 	H 	0.67630 0.86570 0.88010 0.17300
C 	C 	0.74641 0.02440 0.86997 0.18500
C 	C 	0.73439 0.16960 0.83886 -0.12600
C 	C 	0.78864 0.18800 0.81385 0.19500
C 	C 	0.80254 0.32640 0.77690 -0.63900
H 	H 	0.78830 0.29770 0.73670 0.19900
H 	H 	0.77960 0.42090 0.78400 0.20800
H 	H 	0.84850 0.34810 0.78670 0.18000
Zn	Zn	0.50000 0.52911 0.75000 1.09600
N 	N 	0.91715 0.92140 0.70155 -0.28600
N 	N 	0.88562 0.98160 0.64789 -0.20200
H 	H 	0.90000 0.05990 0.63100 0.05900
N 	N 	0.66924 0.56350 0.67200 -0.15100
N 	N 	0.69605 0.46531 0.63777 -0.20200
H 	H 	0.67860 0.37650 0.62290 0.08900
C 	C 	0.78598 0.94060 0.56539 -0.65100
H 	H 	0.81210 0.94160 0.53790 0.19800
H 	H 	0.75240 0.86060 0.55440 0.20000
H 	H 	0.76640 0.04460 0.56620 0.18900
C 	C 	0.82871 0.90120 0.62505 0.20700
C 	C 	0.82198 0.78380 0.66562 -0.13300
C 	C 	0.87885 0.80000 0.71257 0.20000
C 	C 	0.89872 0.69850 0.76693 -0.65700
H 	H 	0.87020 0.72070 0.79140 0.20400
H 	H 	0.89580 0.58640 0.75660 0.19200
H 	H 	0.94280 0.72390 0.78720 0.17200
C 	C 	0.79271 0.43510 0.59492 -0.65200
H 	H 	0.76390 0.37190 0.56570 0.18900
H 	H 	0.81540 0.51120 0.57690 0.20000
H 	H 	0.82370 0.36570 0.61990 0.19000
C 	C 	0.75359 0.52440 0.63003 0.20100
C 	C 	0.76561 0.66960 0.66114 -0.12800
C 	C 	0.71136 0.68800 0.68615 0.19100
C 	C 	0.69746 0.82640 0.72310 -0.63200
H 	H 	0.71170 0.79770 0.76330 0.19600
H 	H 	0.72040 0.92090 0.71600 0.20500
H 	H 	0.65150 0.84810 0.71330 0.17200
N 	N 	0.08285 0.92140 0.79845 -0.30900
N 	N 	0.11438 0.98160 0.85211 -0.19800
H 	H 	0.10000 0.05990 0.86900 0.03200
N 	N 	0.33076 0.56350 0.82800 -0.15100
N 	N 	0.30395 0.46531 0.86223 -0.20000
H 	H 	0.32140 0.37650 0.87710 0.08800
C 	C 	0.21402 0.94060 0.93461 -0.61200
H 	H 	0.18790 0.94160 0.96210 0.17600
H 	H 	0.24760 0.86060 0.94560 0.18700
H 	H 	0.23360 0.04460 0.93380 0.17500
C 	C 	0.17129 0.90120 0.87495 0.18400
C 	C 	0.17802 0.78380 0.83438 -0.11700
C 	C 	0.12115 0.80000 0.78743 0.15700
C 	C 	0.10128 0.69850 0.73307 -0.56500
H 	H 	0.12980 0.72070 0.70860 0.16700
H 	H 	0.10420 0.58640 0.74340 0.14700
H 	H 	0.05720 0.72390 0.71280 0.10600
C 	C 	0.20729 0.43510 0.90508 -0.61900
H 	H 	0.23610 0.37190 0.93430 0.17600
H 	H 	0.18460 0.51120 0.92310 0.17900
H 	H 	0.17630 0.36570 0.88010 0.17000
C 	C 	0.24641 0.52440 0.86997 0.19100
C 	C 	0.23439 0.66960 0.83886 -0.13200
C 	C 	0.28864 0.68800 0.81385 0.19300
C 	C 	0.30254 0.82640 0.77690 -0.63400
H 	H 	0.28830 0.79770 0.73670 0.19700
H 	H 	0.27960 0.92090 0.78400 0.20600
H 	H 	0.34850 0.84810 0.78670 0.17300
Zn	Zn	0.00000 0.02911 0.75000 1.07300
