data_crystal

_cell_length_a 11.61400
_cell_length_b 12.12200
_cell_length_c 23.23000
_cell_angle_alpha 83.50100
_cell_angle_beta  86.39600
_cell_angle_gamma 84.96300

_symmetry_space_group_name_	'P 1'
_symmetry_space_group_name_H-M	'P 1'

loop_
_symmetry_equiv_pos_as_xyz
  x,y,z

loop_
_atom_site_label
_atom_site_type_symbol
_atom_site_fract_x
_atom_site_fract_y
_atom_site_fract_z
_atom_site_charge
C 	C 	0.03880 0.28130 0.51890 0.06100
C 	C 	0.96400 0.37680 0.53830 0.06200
C 	C 	0.82230 0.48630 0.55300 0.06900
C 	C 	0.70190 0.54540 0.55260 0.06600
C 	C 	0.63560 0.55780 0.60190 -0.13000
H 	H 	0.66310 0.53480 0.63840 0.07400
C 	C 	0.52400 0.60700 0.59460 0.03800
H 	H 	0.47450 0.61960 0.62660 0.00600
C 	C 	0.48960 0.63600 0.54030 -0.13500
H 	H 	0.41500 0.66840 0.53470 0.03800
C 	C 	0.56300 0.61800 0.49300 0.07500
H 	H 	0.53840 0.63970 0.45580 -0.02000
C 	C 	0.70270 0.14810 0.34970 0.07800
H 	H 	0.69270 0.08760 0.37740 -0.02100
C 	C 	0.74120 0.30320 0.30840 0.05500
C 	C 	0.76750 0.41680 0.29760 0.05700
C 	C 	0.79280 0.57660 0.25050 0.08800
C 	C 	0.80480 0.66640 0.20410 0.00400
C 	C 	0.81010 0.77700 0.21750 -0.08800
H 	H 	0.80720 0.79350 0.25580 0.02000
C 	C 	0.81950 0.85830 0.17240 0.05000
H 	H 	0.82480 0.93110 0.18040 0.01800
C 	C 	0.81960 0.73620 0.10440 0.06200
H 	H 	0.82550 0.72250 0.06570 0.03100
C 	C 	0.80920 0.64970 0.14650 -0.09500
H 	H 	0.80510 0.57820 0.13620 0.04500
C 	C 	0.73600 0.30150 0.05120 0.08900
C 	C 	0.85760 0.33010 0.04760 0.07400
C 	C 	0.01410 0.39260 0.05850 0.09400
C 	C 	0.10510 0.44190 0.08540 0.05700
C 	C 	0.09430 0.46850 0.14190 -0.12700
H 	H 	0.02700 0.45580 0.16470 0.07300
C 	C 	0.18620 0.51500 0.16470 0.08800
H 	H 	0.17830 0.53500 0.20240 0.00200
C 	C 	0.29730 0.50410 0.08150 0.07600
H 	H 	0.36790 0.51600 0.06160 0.01600
C 	C 	0.20980 0.45830 0.05410 -0.11600
H 	H 	0.22180 0.43970 0.01630 0.08200
N 	N 	0.66710 0.57160 0.49940 -0.19000
N 	N 	0.86220 0.41460 0.51810 -0.19800
N 	N 	0.99130 0.42470 0.58280 -0.14700
N 	N 	0.90020 0.49520 0.59250 -0.10300
N 	N 	0.01220 0.22200 0.47700 -0.20300
N 	N 	0.13500 0.24230 0.54480 -0.15700
N 	N 	0.82130 0.83780 0.11720 -0.11700
N 	N 	0.77210 0.46940 0.24340 -0.18600
N 	N 	0.78360 0.48370 0.33730 -0.18200
N 	N 	0.80210 0.58780 0.30620 -0.17000
N 	N 	0.70090 0.25410 0.26770 -0.13800
N 	N 	0.67790 0.15100 0.29480 -0.10400
N 	N 	0.74400 0.24250 0.36050 -0.21300
N 	N 	0.27940 0.52990 0.13480 -0.13900
N 	N 	0.90650 0.38630 0.08420 -0.15400
N 	N 	0.93280 0.30280 0.00480 -0.07700
N 	N 	0.03690 0.34330 0.01010 -0.09000
N 	N 	0.66020 0.33010 0.09410 -0.19500
N 	N 	0.69570 0.24810 0.01250 -0.08200
Ag	Ag	0.83177 0.71431 0.36567 0.49200
Ag	Ag	0.86427 0.23826 0.42614 0.48400
Ag	Ag	0.78366 0.47600 0.42879 0.48500
Ag	Ag	0.71088 0.37339 0.17570 0.53200
N 	N 	0.17310 0.15270 0.51720 -0.10800
N 	N 	0.58220 0.24100 0.03190 -0.08500
C 	C 	0.10060 0.14060 0.47570 0.06700
H 	H 	0.10950 0.08590 0.45030 -0.01600
C 	C 	0.56120 0.28880 0.08080 0.08100
H 	H 	0.49090 0.29310 0.10230 0.00200
C 	C 	0.96120 0.71870 0.48110 0.06000
C 	C 	0.03600 0.62320 0.46170 0.06100
C 	C 	0.17770 0.51370 0.44700 0.06800
C 	C 	0.29810 0.45460 0.44740 0.06500
C 	C 	0.36440 0.44220 0.39810 -0.13100
H 	H 	0.33690 0.46520 0.36160 0.07300
C 	C 	0.47600 0.39300 0.40540 0.03700
H 	H 	0.52550 0.38040 0.37340 0.00500
C 	C 	0.51040 0.36400 0.45970 -0.13600
H 	H 	0.58500 0.33160 0.46530 0.03700
C 	C 	0.43700 0.38200 0.50700 0.07500
H 	H 	0.46160 0.36030 0.54420 -0.02000
C 	C 	0.29730 0.85190 0.65030 0.07800
H 	H 	0.30730 0.91240 0.62260 -0.02100
C 	C 	0.25880 0.69680 0.69160 0.05500
C 	C 	0.23250 0.58320 0.70240 0.05700
C 	C 	0.20720 0.42340 0.74950 0.08800
C 	C 	0.19520 0.33360 0.79590 0.00400
C 	C 	0.18990 0.22300 0.78250 -0.08800
H 	H 	0.19280 0.20650 0.74420 0.02000
C 	C 	0.18050 0.14170 0.82760 0.05000
H 	H 	0.17520 0.06890 0.81960 0.01800
C 	C 	0.18040 0.26380 0.89560 0.06200
H 	H 	0.17450 0.27750 0.93430 0.03100
C 	C 	0.19080 0.35030 0.85350 -0.09500
H 	H 	0.19490 0.42180 0.86380 0.04500
C 	C 	0.26400 0.69850 0.94880 0.08900
C 	C 	0.14240 0.66990 0.95240 0.07400
C 	C 	0.98590 0.60740 0.94150 0.09400
C 	C 	0.89490 0.55810 0.91460 0.05700
C 	C 	0.90570 0.53150 0.85810 -0.12700
H 	H 	0.97300 0.54420 0.83530 0.07300
C 	C 	0.81380 0.48500 0.83530 0.08800
H 	H 	0.82170 0.46500 0.79760 0.00200
C 	C 	0.70270 0.49590 0.91850 0.07600
H 	H 	0.63210 0.48400 0.93840 0.01600
C 	C 	0.79020 0.54170 0.94590 -0.11600
H 	H 	0.77820 0.56030 0.98370 0.08200
N 	N 	0.33290 0.42840 0.50060 -0.19000
N 	N 	0.13780 0.58540 0.48190 -0.19800
N 	N 	0.00870 0.57530 0.41720 -0.14700
N 	N 	0.09980 0.50480 0.40750 -0.10300
N 	N 	0.98780 0.77800 0.52300 -0.20300
N 	N 	0.86500 0.75770 0.45520 -0.15700
N 	N 	0.17870 0.16220 0.88280 -0.11700
N 	N 	0.22790 0.53060 0.75660 -0.18600
N 	N 	0.21640 0.51630 0.66270 -0.18200
N 	N 	0.19790 0.41220 0.69380 -0.17000
N 	N 	0.29910 0.74590 0.73230 -0.13800
N 	N 	0.32210 0.84900 0.70520 -0.10400
N 	N 	0.25600 0.75750 0.63950 -0.21300
N 	N 	0.72060 0.47010 0.86520 -0.13900
N 	N 	0.09350 0.61370 0.91580 -0.15400
N 	N 	0.06720 0.69720 0.99520 -0.07700
N 	N 	0.96310 0.65670 0.98990 -0.09000
N 	N 	0.33980 0.66990 0.90590 -0.19500
N 	N 	0.30430 0.75190 0.98750 -0.08200
Ag	Ag	0.16823 0.28569 0.63433 0.49200
Ag	Ag	0.13573 0.76174 0.57386 0.48400
Ag	Ag	0.21634 0.52400 0.57121 0.48500
Ag	Ag	0.28912 0.62661 0.82430 0.53200
N 	N 	0.82690 0.84730 0.48280 -0.10800
N 	N 	0.41780 0.75900 0.96810 -0.08500
C 	C 	0.89940 0.85940 0.52430 0.06700
H 	H 	0.89050 0.91410 0.54970 -0.01600
C 	C 	0.43880 0.71120 0.91920 0.08100
H 	H 	0.50910 0.70690 0.89770 0.00200
