data_crystal

_cell_length_a 13.98200
_cell_length_b 8.17950
_cell_length_c 24.08810
_cell_angle_alpha 90.00000
_cell_angle_beta  104.41900
_cell_angle_gamma 90.00000

_symmetry_space_group_name_	'P 1'
_symmetry_space_group_name_H-M	'P 1'

loop_
_symmetry_equiv_pos_as_xyz
  x,y,z

loop_
_atom_site_label
_atom_site_type_symbol
_atom_site_fract_x
_atom_site_fract_y
_atom_site_fract_z
_atom_site_charge
Re	Re	0.47064 0.90321 0.35761 0.64700
O 	O 	0.44191 0.11290 0.45705 -0.16200
C 	C 	0.39400 0.06870 0.31072 -0.05800
C 	C 	0.57098 0.45030 0.44426 -0.13000
H 	H 	0.54190 0.35310 0.45170 0.08600
C 	C 	0.51246 0.57690 0.41580 0.06900
N 	N 	0.55585 0.72212 0.40469 -0.17700
C 	C 	0.65777 0.74079 0.42203 0.06700
C 	C 	0.71630 0.61420 0.45049 -0.12400
H 	H 	0.78450 0.62670 0.46210 0.06900
C 	C 	0.67290 0.46900 0.46160 0.05800
C 	C 	0.26395 0.73220 0.34345 0.07100
H 	H 	0.23690 0.82440 0.32290 0.01300
N 	N 	0.36565 0.71940 0.36463 -0.17400
C 	C 	0.40611 0.58150 0.39540 0.06700
C 	C 	0.34486 0.45650 0.40499 -0.12100
H 	H 	0.37190 0.36420 0.42560 0.09100
C 	C 	0.24315 0.46920 0.38381 0.05100
H 	H 	0.20220 0.38550 0.39020 0.01600
C 	C 	0.20270 0.60710 0.35304 -0.11600
H 	H 	0.13470 0.61560 0.33890 0.07800
C 	C 	0.40120 0.72300 0.23977 0.07600
H 	H 	0.34500 0.77700 0.24270 0.01500
N 	N 	0.48330 0.75320 0.28188 -0.17900
C 	C 	0.56680 0.67600 0.27835 0.09900
H 	H 	0.62700 0.69800 0.30810 -0.00100
C 	C 	0.57030 0.56450 0.23574 -0.17800
H 	H 	0.62600 0.51500 0.23610 0.09900
C 	C 	0.48540 0.53150 0.19406 0.07200
H 	H 	0.48570 0.45530 0.16550 0.00700
C 	C 	0.39950 0.61450 0.19560 -0.12300
H 	H 	0.33800 0.60100 0.16600 0.07600
C 	C 	0.69057 0.88820 0.40002 0.05600
N 	N 	0.61787 0.98600 0.36593 -0.17500
C 	C 	0.64410 0.12600 0.34051 0.05900
H 	H 	0.59550 0.19140 0.31770 0.01000
C 	C 	0.74303 0.16820 0.34919 -0.11600
H 	H 	0.76060 0.26180 0.33220 0.06900
C 	C 	0.81573 0.07040 0.38328 0.03500
H 	H 	0.88190 0.09860 0.38910 0.01900
C 	C 	0.78951 0.93040 0.40870 -0.10900
H 	H 	0.83820 0.86490 0.43150 0.06800
C 	C 	0.69692 0.19240 0.51036 -0.11200
H 	H 	0.62910 0.18760 0.50630 0.08600
C 	C 	0.75690 0.06430 0.53643 0.05400
H 	H 	0.72920 0.97390 0.54990 0.02800
N 	N 	0.85829 0.07160 0.54244 -0.12300
C 	C 	0.89971 0.20680 0.52237 0.05400
H 	H 	0.96750 0.21160 0.52640 0.01300
C 	C 	0.83973 0.33480 0.49629 -0.11500
H 	H 	0.86740 0.42530 0.48290 0.06600
C 	C 	0.73834 0.32760 0.49029 0.05000
C 	C 	0.45380 0.02910 0.41992 -0.05400
O 	O 	0.34770 0.17230 0.28403 -0.15300
Re	Re	0.02936 0.40321 0.14239 0.64900
O 	O 	0.05809 0.61290 0.04295 -0.16100
C 	C 	0.10600 0.56870 0.18928 -0.05700
C 	C 	0.92902 0.95030 0.05574 -0.13000
H 	H 	0.95810 0.85310 0.04830 0.08800
C 	C 	0.98754 0.07690 0.08420 0.07100
N 	N 	0.94415 0.22212 0.09531 -0.17700
C 	C 	0.84223 0.24079 0.07797 0.06800
C 	C 	0.78370 0.11420 0.04951 -0.12400
H 	H 	0.71550 0.12670 0.03790 0.06900
C 	C 	0.82710 0.96900 0.03840 0.05800
C 	C 	0.23605 0.23220 0.15655 0.07100
H 	H 	0.26310 0.32440 0.17710 0.01300
N 	N 	0.13435 0.21940 0.13537 -0.17400
C 	C 	0.09389 0.08150 0.10460 0.06500
C 	C 	0.15514 0.95650 0.09501 -0.12000
H 	H 	0.12810 0.86420 0.07440 0.09100
C 	C 	0.25685 0.96920 0.11619 0.05000
H 	H 	0.29780 0.88550 0.10980 0.01600
C 	C 	0.29730 0.10710 0.14696 -0.11500
H 	H 	0.36530 0.11560 0.16110 0.07800
C 	C 	0.09880 0.22300 0.26023 0.07600
H 	H 	0.15500 0.27700 0.25730 0.01500
N 	N 	0.01670 0.25320 0.21812 -0.17900
C 	C 	0.93320 0.17600 0.22165 0.09900
H 	H 	0.87300 0.19800 0.19190 -0.00100
C 	C 	0.92970 0.06450 0.26426 -0.17700
H 	H 	0.87400 0.01500 0.26390 0.09900
C 	C 	0.01460 0.03150 0.30594 0.07200
H 	H 	0.01430 0.95530 0.33450 0.00700
C 	C 	0.10050 0.11450 0.30440 -0.12300
H 	H 	0.16200 0.10100 0.33400 0.07600
C 	C 	0.80943 0.38820 0.09998 0.05600
N 	N 	0.88213 0.48600 0.13407 -0.17400
C 	C 	0.85590 0.62600 0.15949 0.05800
H 	H 	0.90450 0.69140 0.18230 0.01000
C 	C 	0.75697 0.66820 0.15081 -0.11500
H 	H 	0.73940 0.76180 0.16780 0.06900
C 	C 	0.68427 0.57040 0.11672 0.03300
H 	H 	0.61810 0.59860 0.11090 0.02000
C 	C 	0.71049 0.43040 0.09130 -0.10800
H 	H 	0.66180 0.36490 0.06850 0.06800
C 	C 	0.80308 0.69240 0.98964 -0.11200
H 	H 	0.87090 0.68760 0.99370 0.08500
C 	C 	0.74310 0.56430 0.96357 0.05500
H 	H 	0.77080 0.47390 0.95010 0.02800
N 	N 	0.64171 0.57160 0.95756 -0.12300
C 	C 	0.60029 0.70680 0.97763 0.05400
H 	H 	0.53250 0.71160 0.97360 0.01300
C 	C 	0.66027 0.83480 0.00371 -0.11500
H 	H 	0.63260 0.92530 0.01710 0.06500
C 	C 	0.76166 0.82760 0.00971 0.05000
C 	C 	0.04620 0.52910 0.08008 -0.05400
O 	O 	0.15230 0.67230 0.21597 -0.15300
Re	Re	0.52936 0.09679 0.64239 0.64800
O 	O 	0.55809 0.88710 0.54295 -0.16100
C 	C 	0.60600 0.93130 0.68928 -0.05700
C 	C 	0.42902 0.54970 0.55574 -0.12900
H 	H 	0.45810 0.64690 0.54830 0.08700
C 	C 	0.48754 0.42310 0.58420 0.07000
N 	N 	0.44415 0.27788 0.59531 -0.17700
C 	C 	0.34223 0.25921 0.57797 0.06700
C 	C 	0.28370 0.38580 0.54951 -0.12400
H 	H 	0.21550 0.37330 0.53790 0.06900
C 	C 	0.32710 0.53100 0.53840 0.05800
C 	C 	0.73605 0.26780 0.65655 0.07100
H 	H 	0.76310 0.17560 0.67710 0.01300
N 	N 	0.63435 0.28060 0.63537 -0.17400
C 	C 	0.59389 0.41850 0.60460 0.06700
C 	C 	0.65514 0.54350 0.59501 -0.12100
H 	H 	0.62810 0.63580 0.57440 0.09100
C 	C 	0.75685 0.53080 0.61619 0.05100
H 	H 	0.79780 0.61450 0.60980 0.01600
C 	C 	0.79730 0.39290 0.64696 -0.11600
H 	H 	0.86530 0.38440 0.66110 0.07800
C 	C 	0.59880 0.27700 0.76023 0.07600
H 	H 	0.65500 0.22300 0.75730 0.01500
N 	N 	0.51670 0.24680 0.71812 -0.17900
C 	C 	0.43320 0.32400 0.72165 0.09900
H 	H 	0.37300 0.30200 0.69190 -0.00100
C 	C 	0.42970 0.43550 0.76426 -0.17800
H 	H 	0.37400 0.48500 0.76390 0.09900
C 	C 	0.51460 0.46850 0.80594 0.07200
H 	H 	0.51430 0.54470 0.83450 0.00700
C 	C 	0.60050 0.38550 0.80440 -0.12300
H 	H 	0.66200 0.39900 0.83400 0.07600
C 	C 	0.30943 0.11180 0.59998 0.05600
N 	N 	0.38213 0.01400 0.63407 -0.17500
C 	C 	0.35590 0.87400 0.65949 0.05900
H 	H 	0.40450 0.80860 0.68230 0.01000
C 	C 	0.25697 0.83180 0.65081 -0.11600
H 	H 	0.23940 0.73820 0.66780 0.06900
C 	C 	0.18427 0.92960 0.61672 0.03500
H 	H 	0.11810 0.90140 0.61090 0.01900
C 	C 	0.21049 0.06960 0.59130 -0.10900
H 	H 	0.16180 0.13510 0.56850 0.06800
C 	C 	0.30308 0.80760 0.48964 -0.11200
H 	H 	0.37090 0.81240 0.49370 0.08600
C 	C 	0.24310 0.93570 0.46357 0.05400
H 	H 	0.27080 0.02610 0.45010 0.02800
N 	N 	0.14171 0.92840 0.45756 -0.12300
C 	C 	0.10029 0.79320 0.47763 0.05400
H 	H 	0.03250 0.78840 0.47360 0.01300
C 	C 	0.16027 0.66520 0.50371 -0.11500
H 	H 	0.13260 0.57470 0.51710 0.06600
C 	C 	0.26166 0.67240 0.50971 0.05000
C 	C 	0.54620 0.97090 0.58008 -0.05400
O 	O 	0.65230 0.82770 0.71597 -0.15300
Re	Re	0.97064 0.59679 0.85761 0.64900
O 	O 	0.94191 0.38710 0.95705 -0.16100
C 	C 	0.89400 0.43130 0.81072 -0.05700
C 	C 	0.07098 0.04970 0.94426 -0.13000
H 	H 	0.04190 0.14690 0.95170 0.08800
C 	C 	0.01246 0.92310 0.91580 0.07100
N 	N 	0.05585 0.77788 0.90469 -0.17700
C 	C 	0.15777 0.75921 0.92203 0.06800
C 	C 	0.21630 0.88580 0.95049 -0.12400
H 	H 	0.28450 0.87330 0.96210 0.06900
C 	C 	0.17290 0.03100 0.96160 0.05800
C 	C 	0.76395 0.76780 0.84345 0.07100
H 	H 	0.73690 0.67560 0.82290 0.01300
N 	N 	0.86565 0.78060 0.86463 -0.17400
C 	C 	0.90611 0.91850 0.89540 0.06500
C 	C 	0.84486 0.04350 0.90499 -0.12000
H 	H 	0.87190 0.13580 0.92560 0.09100
C 	C 	0.74315 0.03080 0.88381 0.05000
H 	H 	0.70220 0.11450 0.89020 0.01600
C 	C 	0.70270 0.89290 0.85304 -0.11500
H 	H 	0.63470 0.88440 0.83890 0.07800
C 	C 	0.90120 0.77700 0.73977 0.07600
H 	H 	0.84500 0.72300 0.74270 0.01500
N 	N 	0.98330 0.74680 0.78188 -0.17900
C 	C 	0.06680 0.82400 0.77835 0.09900
H 	H 	0.12700 0.80200 0.80810 -0.00100
C 	C 	0.07030 0.93550 0.73574 -0.17700
H 	H 	0.12600 0.98500 0.73610 0.09900
C 	C 	0.98540 0.96850 0.69406 0.07200
H 	H 	0.98570 0.04470 0.66550 0.00700
C 	C 	0.89950 0.88550 0.69560 -0.12300
H 	H 	0.83800 0.89900 0.66600 0.07600
C 	C 	0.19057 0.61180 0.90002 0.05600
N 	N 	0.11787 0.51400 0.86593 -0.17400
C 	C 	0.14410 0.37400 0.84051 0.05800
H 	H 	0.09550 0.30860 0.81770 0.01000
C 	C 	0.24303 0.33180 0.84919 -0.11500
H 	H 	0.26060 0.23820 0.83220 0.06900
C 	C 	0.31573 0.42960 0.88328 0.03300
H 	H 	0.38190 0.40140 0.88910 0.02000
C 	C 	0.28951 0.56960 0.90870 -0.10800
H 	H 	0.33820 0.63510 0.93150 0.06800
C 	C 	0.19692 0.30760 0.01036 -0.11200
H 	H 	0.12910 0.31240 0.00630 0.08500
C 	C 	0.25690 0.43570 0.03643 0.05500
H 	H 	0.22920 0.52610 0.04990 0.02800
N 	N 	0.35829 0.42840 0.04244 -0.12300
C 	C 	0.39971 0.29320 0.02237 0.05400
H 	H 	0.46750 0.28840 0.02640 0.01300
C 	C 	0.33973 0.16520 0.99629 -0.11500
H 	H 	0.36740 0.07470 0.98290 0.06500
C 	C 	0.23834 0.17240 0.99029 0.05000
C 	C 	0.95380 0.47090 0.91992 -0.05400
O 	O 	0.84770 0.32770 0.78403 -0.15300
