data_crystal

_cell_length_a 19.42540
_cell_length_b 21.87800
_cell_length_c 15.57800
_cell_angle_alpha 90.00000
_cell_angle_beta  90.00000
_cell_angle_gamma 90.00000

_symmetry_space_group_name_	'P 1'
_symmetry_space_group_name_H-M	'P 1'

loop_
_symmetry_equiv_pos_as_xyz
  x,y,z

loop_
_atom_site_label
_atom_site_type_symbol
_atom_site_fract_x
_atom_site_fract_y
_atom_site_fract_z
_atom_site_charge
N 	N 	0.44043 0.59959 0.59947 -0.22600
C 	C 	0.44370 0.72660 0.59600 0.05200
C 	C 	0.44650 0.79420 0.59910 0.11700
C 	C 	0.39490 0.62990 0.55480 0.07800
H 	H 	0.36100 0.60840 0.52540 0.00600
N 	N 	0.39990 0.82994 0.56250 -0.22100
H 	H 	0.36170 0.81870 0.53950 0.13200
N 	N 	0.49630 0.82601 0.63200 -0.09200
C 	C 	0.48730 0.63130 0.64190 0.09000
H 	H 	0.52110 0.61000 0.67200 0.00300
C 	C 	0.39550 0.69490 0.54960 -0.12100
H 	H 	0.36380 0.71540 0.51540 0.07500
C 	C 	0.48870 0.69230 0.64380 -0.13500
H 	H 	0.52090 0.71200 0.67830 0.08900
N 	N 	0.48510 0.88530 0.62700 -0.08000
C 	C 	0.42450 0.88830 0.56870 0.12900
C 	C 	0.39580 0.94680 0.55970 -0.05500
C 	C 	0.32890 0.94780 0.52330 0.03400
H 	H 	0.30440 0.91140 0.51890 0.03100
N 	N 	0.55957 0.59959 0.40053 -0.22700
C 	C 	0.55630 0.72660 0.40400 0.05100
C 	C 	0.55350 0.79420 0.40090 0.11600
C 	C 	0.60510 0.62990 0.44520 0.07700
H 	H 	0.63900 0.60840 0.47460 0.00600
N 	N 	0.60010 0.82994 0.43750 -0.22100
H 	H 	0.63830 0.81870 0.46050 0.13200
N 	N 	0.50370 0.82601 0.36800 -0.09200
C 	C 	0.51270 0.63130 0.35810 0.09000
H 	H 	0.47890 0.61000 0.32800 0.00300
C 	C 	0.60450 0.69490 0.45040 -0.12100
H 	H 	0.63620 0.71540 0.48460 0.07500
C 	C 	0.51130 0.69230 0.35620 -0.13500
H 	H 	0.47910 0.71200 0.32170 0.08900
N 	N 	0.51490 0.88530 0.37300 -0.08000
C 	C 	0.57550 0.88830 0.43130 0.12900
C 	C 	0.60420 0.94680 0.44030 -0.05500
C 	C 	0.67110 0.94780 0.47670 0.03400
H 	H 	0.69560 0.91140 0.48110 0.03100
N 	N 	0.05957 0.40041 0.09947 -0.22700
C 	C 	0.05630 0.27340 0.09600 0.05200
C 	C 	0.05350 0.20580 0.09910 0.11600
C 	C 	0.10510 0.37010 0.05480 0.07700
H 	H 	0.13900 0.39160 0.02540 0.00600
N 	N 	0.10010 0.17006 0.06250 -0.22100
H 	H 	0.13830 0.18130 0.03950 0.13200
N 	N 	0.00370 0.17399 0.13200 -0.09200
C 	C 	0.01270 0.36870 0.14190 0.08800
H 	H 	0.97890 0.39000 0.17200 0.00500
C 	C 	0.10450 0.30510 0.04960 -0.12200
H 	H 	0.13620 0.28460 0.01540 0.07500
C 	C 	0.01130 0.30770 0.14380 -0.13800
H 	H 	0.97910 0.28800 0.17830 0.09100
N 	N 	0.01490 0.11470 0.12700 -0.07900
C 	C 	0.07550 0.11170 0.06870 0.12900
C 	C 	0.10420 0.05320 0.05970 -0.05000
C 	C 	0.17110 0.05220 0.02330 0.03800
H 	H 	0.19560 0.08860 0.01890 0.03100
N 	N 	0.94043 0.40041 0.90053 -0.22700
C 	C 	0.94370 0.27340 0.90400 0.05200
C 	C 	0.94650 0.20580 0.90090 0.11600
C 	C 	0.89490 0.37010 0.94520 0.07700
H 	H 	0.86100 0.39160 0.97460 0.00600
N 	N 	0.89990 0.17006 0.93750 -0.22100
H 	H 	0.86170 0.18130 0.96050 0.13200
N 	N 	0.99630 0.17399 0.86800 -0.09200
C 	C 	0.98730 0.36870 0.85810 0.08800
H 	H 	0.02110 0.39000 0.82800 0.00500
C 	C 	0.89550 0.30510 0.95040 -0.12200
H 	H 	0.86380 0.28460 0.98460 0.07500
C 	C 	0.98870 0.30770 0.85620 -0.13800
H 	H 	0.02090 0.28800 0.82170 0.09100
N 	N 	0.98510 0.11470 0.87300 -0.07900
C 	C 	0.92450 0.11170 0.93130 0.12900
C 	C 	0.89580 0.05320 0.94030 -0.05000
C 	C 	0.82890 0.05220 0.97670 0.03800
H 	H 	0.80440 0.08860 0.98110 0.03100
N 	N 	0.55957 0.40041 0.40053 -0.22700
C 	C 	0.55630 0.27340 0.40400 0.05200
C 	C 	0.55350 0.20580 0.40090 0.11700
C 	C 	0.60510 0.37010 0.44520 0.07700
H 	H 	0.63900 0.39160 0.47460 0.00600
N 	N 	0.60010 0.17006 0.43750 -0.22100
H 	H 	0.63830 0.18130 0.46050 0.13300
N 	N 	0.50370 0.17399 0.36800 -0.09200
C 	C 	0.51270 0.36870 0.35810 0.09000
H 	H 	0.47890 0.39000 0.32800 0.00300
C 	C 	0.60450 0.30510 0.45040 -0.12100
H 	H 	0.63620 0.28460 0.48460 0.07600
C 	C 	0.51130 0.30770 0.35620 -0.13600
H 	H 	0.47910 0.28800 0.32170 0.08900
N 	N 	0.51490 0.11470 0.37300 -0.07900
C 	C 	0.57550 0.11170 0.43130 0.12900
C 	C 	0.60420 0.05320 0.44030 -0.05100
C 	C 	0.67110 0.05220 0.47670 0.03900
H 	H 	0.69560 0.08860 0.48110 0.03000
N 	N 	0.44043 0.40041 0.59947 -0.22700
C 	C 	0.44370 0.27340 0.59600 0.05200
C 	C 	0.44650 0.20580 0.59910 0.11700
C 	C 	0.39490 0.37010 0.55480 0.07700
H 	H 	0.36100 0.39160 0.52540 0.00600
N 	N 	0.39990 0.17006 0.56250 -0.22100
H 	H 	0.36170 0.18130 0.53950 0.13300
N 	N 	0.49630 0.17399 0.63200 -0.09200
C 	C 	0.48730 0.36870 0.64190 0.09000
H 	H 	0.52110 0.39000 0.67200 0.00300
C 	C 	0.39550 0.30510 0.54960 -0.12100
H 	H 	0.36380 0.28460 0.51540 0.07600
C 	C 	0.48870 0.30770 0.64380 -0.13600
H 	H 	0.52090 0.28800 0.67830 0.08900
N 	N 	0.48510 0.11470 0.62700 -0.07900
C 	C 	0.42450 0.11170 0.56870 0.12900
C 	C 	0.39580 0.05320 0.55970 -0.05100
C 	C 	0.32890 0.05220 0.52330 0.03900
H 	H 	0.30440 0.08860 0.51890 0.03000
N 	N 	0.94043 0.59959 0.90053 -0.22700
C 	C 	0.94370 0.72660 0.90400 0.05200
C 	C 	0.94650 0.79420 0.90090 0.11600
C 	C 	0.89490 0.62990 0.94520 0.07700
H 	H 	0.86100 0.60840 0.97460 0.00600
N 	N 	0.89990 0.82994 0.93750 -0.22100
H 	H 	0.86170 0.81870 0.96050 0.13200
N 	N 	0.99630 0.82601 0.86800 -0.09200
C 	C 	0.98730 0.63130 0.85810 0.08800
H 	H 	0.02110 0.61000 0.82800 0.00500
C 	C 	0.89550 0.69490 0.95040 -0.12200
H 	H 	0.86380 0.71540 0.98460 0.07500
C 	C 	0.98870 0.69230 0.85620 -0.13800
H 	H 	0.02090 0.71200 0.82170 0.09100
N 	N 	0.98510 0.88530 0.87300 -0.08000
C 	C 	0.92450 0.88830 0.93130 0.12900
C 	C 	0.89580 0.94680 0.94030 -0.05300
C 	C 	0.82890 0.94780 0.97670 0.03300
H 	H 	0.80440 0.91140 0.98110 0.03100
N 	N 	0.05957 0.59959 0.09947 -0.22700
C 	C 	0.05630 0.72660 0.09600 0.05200
C 	C 	0.05350 0.79420 0.09910 0.11600
C 	C 	0.10510 0.62990 0.05480 0.07700
H 	H 	0.13900 0.60840 0.02540 0.00600
N 	N 	0.10010 0.82994 0.06250 -0.22100
H 	H 	0.13830 0.81870 0.03950 0.13200
N 	N 	0.00370 0.82601 0.13200 -0.09200
C 	C 	0.01270 0.63130 0.14190 0.08800
H 	H 	0.97890 0.61000 0.17200 0.00500
C 	C 	0.10450 0.69490 0.04960 -0.12200
H 	H 	0.13620 0.71540 0.01540 0.07500
C 	C 	0.01130 0.69230 0.14380 -0.13800
H 	H 	0.97910 0.71200 0.17830 0.09100
N 	N 	0.01490 0.88530 0.12700 -0.08000
C 	C 	0.07550 0.88830 0.06870 0.12900
C 	C 	0.10420 0.94680 0.05970 -0.05300
C 	C 	0.17110 0.94780 0.02330 0.03300
H 	H 	0.19560 0.91140 0.01890 0.03100
Co	Co	0.43996 0.50000 0.59942 1.16900
O 	O 	0.03646 0.50000 0.84720 -0.42700
C 	C 	0.08780 0.50000 0.89820 0.38300
O 	O 	0.08440 0.50000 0.97910 -0.48900
O 	O 	0.39690 0.50000 0.74100 -0.37700
C 	C 	0.27930 0.50000 0.85590 -0.04500
H 	H 	0.32090 0.50000 0.88550 0.06500
C 	C 	0.28000 0.50000 0.76590 -0.03300
C 	C 	0.21890 0.50000 0.72820 -0.05400
H 	H 	0.21810 0.50000 0.66850 0.07000
C 	C 	0.21650 0.50000 0.90350 0.00600
H 	H 	0.21670 0.50000 0.96320 0.04800
C 	C 	0.15490 0.50000 0.85750 -0.11000
C 	C 	0.15880 0.50000 0.76860 0.01700
H 	H 	0.11840 0.50000 0.73660 0.04700
O 	O 	0.33110 0.50000 0.62360 -0.34800
C 	C 	0.34620 0.50000 0.71340 0.30900
Co	Co	0.56004 0.50000 0.40058 1.16900
O 	O 	0.96354 0.50000 0.15280 -0.42700
C 	C 	0.91220 0.50000 0.10180 0.38300
O 	O 	0.91560 0.50000 0.02090 -0.48900
O 	O 	0.60310 0.50000 0.25900 -0.37700
C 	C 	0.72070 0.50000 0.14410 -0.04500
H 	H 	0.67910 0.50000 0.11450 0.06500
C 	C 	0.72000 0.50000 0.23410 -0.03300
C 	C 	0.78110 0.50000 0.27180 -0.05400
H 	H 	0.78190 0.50000 0.33150 0.07000
C 	C 	0.78350 0.50000 0.09650 0.00600
H 	H 	0.78330 0.50000 0.03680 0.04800
C 	C 	0.84510 0.50000 0.14250 -0.11000
C 	C 	0.84120 0.50000 0.23140 0.01700
H 	H 	0.88160 0.50000 0.26340 0.04700
O 	O 	0.66890 0.50000 0.37640 -0.34800
C 	C 	0.65380 0.50000 0.28660 0.30900
Co	Co	0.06004 0.50000 0.09942 1.16800
O 	O 	0.46354 0.50000 0.34720 -0.42800
C 	C 	0.41220 0.50000 0.39820 0.38300
O 	O 	0.41560 0.50000 0.47910 -0.49000
O 	O 	0.10310 0.50000 0.24100 -0.37800
C 	C 	0.22070 0.50000 0.35590 -0.04500
H 	H 	0.17910 0.50000 0.38550 0.06500
C 	C 	0.22000 0.50000 0.26590 -0.03400
C 	C 	0.28110 0.50000 0.22820 -0.05400
H 	H 	0.28190 0.50000 0.16850 0.07000
C 	C 	0.28350 0.50000 0.40350 0.00600
H 	H 	0.28330 0.50000 0.46320 0.04800
C 	C 	0.34510 0.50000 0.35750 -0.11000
C 	C 	0.34120 0.50000 0.26860 0.01700
H 	H 	0.38160 0.50000 0.23660 0.04700
O 	O 	0.16890 0.50000 0.12360 -0.34800
C 	C 	0.15380 0.50000 0.21340 0.30900
Co	Co	0.93996 0.50000 0.90058 1.16800
O 	O 	0.53646 0.50000 0.65280 -0.42800
C 	C 	0.58780 0.50000 0.60180 0.38300
O 	O 	0.58440 0.50000 0.52090 -0.49000
O 	O 	0.89690 0.50000 0.75900 -0.37800
C 	C 	0.77930 0.50000 0.64410 -0.04500
H 	H 	0.82090 0.50000 0.61450 0.06500
C 	C 	0.78000 0.50000 0.73410 -0.03400
C 	C 	0.71890 0.50000 0.77180 -0.05400
H 	H 	0.71810 0.50000 0.83150 0.07000
C 	C 	0.71650 0.50000 0.59650 0.00600
H 	H 	0.71670 0.50000 0.53680 0.04800
C 	C 	0.65490 0.50000 0.64250 -0.11000
C 	C 	0.65880 0.50000 0.73140 0.01700
H 	H 	0.61840 0.50000 0.76340 0.04700
O 	O 	0.83110 0.50000 0.87640 -0.34800
C 	C 	0.84620 0.50000 0.78660 0.30900
C 	C 	0.42240 0.00000 0.57560 0.00800
H 	H 	0.46560 0.00000 0.60140 0.05400
N 	N 	0.29990 0.00000 0.49480 -0.10600
C 	C 	0.57760 0.00000 0.42440 0.00800
H 	H 	0.53440 0.00000 0.39860 0.05400
N 	N 	0.70010 0.00000 0.50520 -0.10600
C 	C 	0.07760 0.00000 0.07560 0.00600
H 	H 	0.03440 0.00000 0.10140 0.05400
N 	N 	0.20010 0.00000 0.99480 -0.10400
C 	C 	0.92240 0.00000 0.92440 0.00600
H 	H 	0.96560 0.00000 0.89860 0.05400
N 	N 	0.79990 0.00000 0.00520 -0.10400
