data_crystal

_cell_length_a 14.11100
_cell_length_b 15.33370
_cell_length_c 18.70870
_cell_angle_alpha 78.67900
_cell_angle_beta  84.13400
_cell_angle_gamma 71.74500

_symmetry_space_group_name_	'P 1'
_symmetry_space_group_name_H-M	'P 1'

loop_
_symmetry_equiv_pos_as_xyz
  x,y,z

loop_
_atom_site_label
_atom_site_type_symbol
_atom_site_fract_x
_atom_site_fract_y
_atom_site_fract_z
_atom_site_charge
Co	Co	0.92799 0.73256 0.29486 1.05800
Co	Co	0.56505 0.28228 0.84648 1.06200
P 	P 	0.91665 0.90361 0.38784 0.22100
P 	P 	0.68984 0.11688 0.98119 0.22200
C 	C 	0.43600 0.42100 0.72760 0.06400
H 	H 	0.38420 0.40350 0.75760 -0.01800
C 	C 	0.40950 0.48760 0.66730 -0.12400
H 	H 	0.34110 0.51590 0.65660 0.06600
C 	C 	0.48390 0.51400 0.62120 0.05000
C 	C 	0.58260 0.46930 0.64070 -0.12000
H 	H 	0.63600 0.48410 0.61090 0.06900
C 	C 	0.60230 0.40360 0.70340 0.05700
H 	H 	0.66990 0.37480 0.71610 -0.04600
C 	C 	0.46040 0.58750 0.55560 0.07500
C 	C 	0.36300 0.63410 0.53560 -0.12400
H 	H 	0.30890 0.61760 0.56320 0.06600
C 	C 	0.34490 0.70500 0.47520 0.05900
C 	C 	0.42730 0.72430 0.43570 -0.11900
H 	H 	0.41820 0.77220 0.39400 0.05800
C 	C 	0.52290 0.67310 0.45770 0.06700
C 	C 	0.61610 0.68700 0.41860 0.05600
C 	C 	0.61570 0.75070 0.35420 -0.13000
H 	H 	0.55440 0.78940 0.33380 0.05600
C 	C 	0.70530 0.75680 0.32060 0.07200
H 	H 	0.70370 0.79990 0.27630 -0.03000
C 	C 	0.79420 0.64550 0.40770 0.07500
H 	H 	0.85660 0.60790 0.42700 -0.03800
C 	C 	0.70840 0.63430 0.44500 -0.13300
H 	H 	0.71260 0.59040 0.48900 0.07400
C 	C 	0.24080 0.75630 0.45400 0.00300
C 	C 	0.21730 0.78630 0.38120 -0.07400
H 	H 	0.26870 0.77470 0.34420 0.02600
C 	C 	0.11920 0.83340 0.36200 -0.03400
H 	H 	0.10420 0.85440 0.31200 0.00300
C 	C 	0.04340 0.84960 0.41540 -0.07900
C 	C 	0.06630 0.81910 0.48870 -0.01900
H 	H 	0.01460 0.82960 0.52570 0.03100
C 	C 	0.16400 0.77360 0.50790 -0.07500
H 	H 	0.17910 0.75400 0.55790 0.05200
C 	C 	0.91070 0.01720 0.33690 -0.04700
C 	C 	0.85150 0.05200 0.27700 -0.03000
H 	H 	0.81520 0.01550 0.26330 0.03500
C 	C 	0.84480 0.13970 0.23670 -0.05100
H 	H 	0.80600 0.16260 0.19460 0.04700
C 	C 	0.89590 0.19420 0.25860 -0.02900
H 	H 	0.88660 0.25660 0.23430 0.03500
C 	C 	0.95830 0.15800 0.31430 -0.04900
H 	H 	0.99550 0.19400 0.32720 0.04100
C 	C 	0.96850 0.06920 0.35250 -0.03200
H 	H 	0.01540 0.04330 0.38980 0.03700
C 	C 	0.83980 0.91500 0.46990 -0.03800
C 	C 	0.79890 0.84340 0.49940 -0.03600
H 	H 	0.80690 0.79360 0.47380 0.03700
C 	C 	0.74620 0.84500 0.56670 -0.04100
H 	H 	0.72000 0.79510 0.58730 0.03900
C 	C 	0.73160 0.91750 0.60370 -0.03800
H 	H 	0.69540 0.91790 0.64940 0.03700
C 	C 	0.76940 0.98900 0.57410 -0.03800
H 	H 	0.75820 0.03980 0.59910 0.04100
C 	C 	0.82380 0.98880 0.50830 -0.04200
H 	H 	0.85050 0.03870 0.48910 0.04700
C 	C 	0.90030 0.57640 0.23080 0.05200
H 	H 	0.84250 0.58590 0.26260 -0.01500
C 	C 	0.91630 0.51210 0.18530 -0.11700
H 	H 	0.86960 0.47860 0.18640 0.06300
C 	C 	0.00010 0.49570 0.13780 0.04500
C 	C 	0.06520 0.54800 0.13970 -0.11800
H 	H 	0.12350 0.53990 0.10830 0.06800
C 	C 	0.04520 0.61090 0.18680 0.05300
H 	H 	0.09110 0.64470 0.18740 -0.04600
C 	C 	0.02070 0.42700 0.08950 0.07200
C 	C 	0.95290 0.38000 0.08300 -0.12200
H 	H 	0.89000 0.39370 0.10900 0.06600
C 	C 	0.97750 0.31320 0.03850 0.05900
C 	C 	0.06950 0.29720 0.00030 -0.12000
H 	H 	0.08870 0.25220 0.96900 0.06000
C 	C 	0.13310 0.34730 0.00840 0.06700
C 	C 	0.23160 0.33390 0.96840 0.05600
C 	C 	0.26620 0.27210 0.92060 -0.13200
H 	H 	0.22640 0.23590 0.91180 0.05800
C 	C 	0.35810 0.26270 0.88570 0.07000
H 	H 	0.38040 0.21890 0.85350 -0.03100
C 	C 	0.38530 0.37010 0.94160 0.08300
H 	H 	0.42710 0.40480 0.94990 -0.03700
C 	C 	0.29470 0.38360 0.97920 -0.13700
H 	H 	0.27520 0.42650 0.01220 0.07400
C 	C 	0.90830 0.26050 0.03110 0.00900
C 	C 	0.80620 0.30690 0.02710 -0.08100
H 	H 	0.78090 0.37020 0.03350 0.04600
C 	C 	0.74190 0.26050 0.01400 -0.02100
H 	H 	0.67250 0.29230 0.01080 0.01500
C 	C 	0.77790 0.16810 0.00550 -0.07100
C 	C 	0.87840 0.12040 0.01320 -0.01800
H 	H 	0.90290 0.05610 0.00980 0.02600
C 	C 	0.94310 0.16720 0.02580 -0.07800
H 	H 	0.01210 0.13470 0.03100 0.05300
C 	C 	0.63600 0.06750 0.06470 -0.03600
C 	C 	0.69400 0.02000 0.12320 -0.04000
H 	H 	0.76410 0.00970 0.11900 0.03000
C 	C 	0.64990 0.98700 0.18840 -0.04800
H 	H 	0.68960 0.95720 0.22940 0.03200
C 	C 	0.55160 0.99710 0.19380 -0.03700
H 	H 	0.52250 0.97260 0.23810 0.02900
C 	C 	0.49410 0.04180 0.13660 -0.04700
H 	H 	0.42470 0.04810 0.14060 0.03800
C 	C 	0.53590 0.07880 0.07170 -0.03600
H 	H 	0.49460 0.11210 0.03210 0.04600
C 	C 	0.75750 0.02640 0.93180 -0.07300
C 	C 	0.73310 0.94310 0.94050 -0.02400
H 	H 	0.68610 0.93040 0.97800 0.03300
C 	C 	0.77690 0.87920 0.89500 -0.06200
H 	H 	0.75860 0.82360 0.90030 0.05000
C 	C 	0.84690 0.89610 0.84200 -0.02200
H 	H 	0.87690 0.85190 0.81080 0.03600
C 	C 	0.87440 0.97760 0.83350 -0.06600
H 	H 	0.92380 0.98820 0.79730 0.04300
C 	C 	0.83080 0.04170 0.87690 -0.02900
H 	H 	0.84930 0.09730 0.87060 0.00800
N 	N 	0.53050 0.37830 0.74770 -0.27500
N 	N 	0.53940 0.60570 0.51740 -0.13200
N 	N 	0.79450 0.70590 0.34640 -0.25600
N 	N 	0.96330 0.62640 0.23200 -0.27600
N 	N 	0.11040 0.41020 0.05270 -0.13200
N 	N 	0.41830 0.31200 0.89470 -0.26000
O 	O 	0.88260 0.84950 0.34344 -0.42100
O 	O 	0.60750 0.18880 0.93870 -0.42800
Co	Co	0.07201 0.26744 0.70514 1.05800
Co	Co	0.43495 0.71772 0.15352 1.06200
P 	P 	0.08335 0.09639 0.61216 0.22100
P 	P 	0.31016 0.88312 0.01881 0.22200
C 	C 	0.56400 0.57900 0.27240 0.06400
H 	H 	0.61580 0.59650 0.24240 -0.01800
C 	C 	0.59050 0.51240 0.33270 -0.12400
H 	H 	0.65890 0.48410 0.34340 0.06600
C 	C 	0.51610 0.48600 0.37880 0.05000
C 	C 	0.41740 0.53070 0.35930 -0.12000
H 	H 	0.36400 0.51590 0.38910 0.06900
C 	C 	0.39770 0.59640 0.29660 0.05700
H 	H 	0.33010 0.62520 0.28390 -0.04600
C 	C 	0.53960 0.41250 0.44440 0.07500
C 	C 	0.63700 0.36590 0.46440 -0.12400
H 	H 	0.69110 0.38240 0.43680 0.06600
C 	C 	0.65510 0.29500 0.52480 0.05900
C 	C 	0.57270 0.27570 0.56430 -0.11900
H 	H 	0.58180 0.22780 0.60600 0.05800
C 	C 	0.47710 0.32690 0.54230 0.06700
C 	C 	0.38390 0.31300 0.58140 0.05600
C 	C 	0.38430 0.24930 0.64580 -0.13000
H 	H 	0.44560 0.21060 0.66620 0.05600
C 	C 	0.29470 0.24320 0.67940 0.07200
H 	H 	0.29630 0.20010 0.72370 -0.03000
C 	C 	0.20580 0.35450 0.59230 0.07500
H 	H 	0.14340 0.39210 0.57300 -0.03800
C 	C 	0.29160 0.36570 0.55500 -0.13300
H 	H 	0.28740 0.40960 0.51100 0.07400
C 	C 	0.75920 0.24370 0.54600 0.00300
C 	C 	0.78270 0.21370 0.61880 -0.07400
H 	H 	0.73130 0.22530 0.65580 0.02600
C 	C 	0.88080 0.16660 0.63800 -0.03400
H 	H 	0.89580 0.14560 0.68800 0.00300
C 	C 	0.95660 0.15040 0.58460 -0.07900
C 	C 	0.93370 0.18090 0.51130 -0.01900
H 	H 	0.98540 0.17040 0.47430 0.03100
C 	C 	0.83600 0.22640 0.49210 -0.07500
H 	H 	0.82090 0.24600 0.44210 0.05200
C 	C 	0.08930 0.98280 0.66310 -0.04700
C 	C 	0.14850 0.94800 0.72300 -0.03000
H 	H 	0.18480 0.98450 0.73670 0.03500
C 	C 	0.15520 0.86030 0.76330 -0.05100
H 	H 	0.19400 0.83740 0.80540 0.04700
C 	C 	0.10410 0.80580 0.74140 -0.02900
H 	H 	0.11340 0.74340 0.76570 0.03500
C 	C 	0.04170 0.84200 0.68570 -0.04900
H 	H 	0.00450 0.80600 0.67280 0.04100
C 	C 	0.03150 0.93080 0.64750 -0.03200
H 	H 	0.98460 0.95670 0.61020 0.03700
C 	C 	0.16020 0.08500 0.53010 -0.03800
C 	C 	0.20110 0.15660 0.50060 -0.03600
H 	H 	0.19310 0.20640 0.52620 0.03700
C 	C 	0.25380 0.15500 0.43330 -0.04100
H 	H 	0.28000 0.20490 0.41270 0.03900
C 	C 	0.26840 0.08250 0.39630 -0.03800
H 	H 	0.30460 0.08210 0.35060 0.03700
C 	C 	0.23060 0.01100 0.42590 -0.03800
H 	H 	0.24180 0.96020 0.40090 0.04100
C 	C 	0.17620 0.01120 0.49170 -0.04200
H 	H 	0.14950 0.96130 0.51090 0.04700
C 	C 	0.09970 0.42360 0.76920 0.05200
H 	H 	0.15750 0.41410 0.73740 -0.01500
C 	C 	0.08370 0.48790 0.81470 -0.11700
H 	H 	0.13040 0.52140 0.81360 0.06300
C 	C 	0.99990 0.50430 0.86220 0.04500
C 	C 	0.93480 0.45200 0.86030 -0.11800
H 	H 	0.87650 0.46010 0.89170 0.06800
C 	C 	0.95480 0.38910 0.81320 0.05300
H 	H 	0.90890 0.35530 0.81260 -0.04600
C 	C 	0.97930 0.57300 0.91050 0.07200
C 	C 	0.04710 0.62000 0.91700 -0.12200
H 	H 	0.11000 0.60630 0.89100 0.06600
C 	C 	0.02250 0.68680 0.96150 0.05900
C 	C 	0.93050 0.70280 0.99970 -0.12000
H 	H 	0.91130 0.74780 0.03100 0.06000
C 	C 	0.86690 0.65270 0.99160 0.06700
C 	C 	0.76840 0.66610 0.03160 0.05600
C 	C 	0.73380 0.72790 0.07940 -0.13200
H 	H 	0.77360 0.76410 0.08820 0.05800
C 	C 	0.64190 0.73730 0.11430 0.07000
H 	H 	0.61960 0.78110 0.14650 -0.03100
C 	C 	0.61470 0.62990 0.05840 0.08300
H 	H 	0.57290 0.59520 0.05010 -0.03700
C 	C 	0.70530 0.61640 0.02080 -0.13700
H 	H 	0.72480 0.57350 0.98780 0.07400
C 	C 	0.09170 0.73950 0.96890 0.00900
C 	C 	0.19380 0.69310 0.97290 -0.08100
H 	H 	0.21910 0.62980 0.96650 0.04600
C 	C 	0.25810 0.73950 0.98600 -0.02100
H 	H 	0.32750 0.70770 0.98920 0.01500
C 	C 	0.22210 0.83190 0.99450 -0.07100
C 	C 	0.12160 0.87960 0.98680 -0.01800
H 	H 	0.09710 0.94390 0.99020 0.02600
C 	C 	0.05690 0.83280 0.97420 -0.07800
H 	H 	0.98790 0.86530 0.96900 0.05300
C 	C 	0.36400 0.93250 0.93530 -0.03600
C 	C 	0.30600 0.98000 0.87680 -0.04000
H 	H 	0.23590 0.99030 0.88100 0.03000
C 	C 	0.35010 0.01300 0.81160 -0.04800
H 	H 	0.31040 0.04280 0.77060 0.03200
C 	C 	0.44840 0.00290 0.80620 -0.03700
H 	H 	0.47750 0.02740 0.76190 0.02900
C 	C 	0.50590 0.95820 0.86340 -0.04700
H 	H 	0.57530 0.95190 0.85940 0.03800
C 	C 	0.46410 0.92120 0.92830 -0.03600
H 	H 	0.50540 0.88790 0.96790 0.04600
C 	C 	0.24250 0.97360 0.06820 -0.07300
C 	C 	0.26690 0.05690 0.05950 -0.02400
H 	H 	0.31390 0.06960 0.02200 0.03300
C 	C 	0.22310 0.12080 0.10500 -0.06200
H 	H 	0.24140 0.17640 0.09970 0.05000
C 	C 	0.15310 0.10390 0.15800 -0.02200
H 	H 	0.12310 0.14810 0.18920 0.03600
C 	C 	0.12560 0.02240 0.16650 -0.06600
H 	H 	0.07620 0.01180 0.20270 0.04300
C 	C 	0.16920 0.95830 0.12310 -0.02900
H 	H 	0.15070 0.90270 0.12940 0.00800
N 	N 	0.46950 0.62170 0.25230 -0.27500
N 	N 	0.46060 0.39430 0.48260 -0.13200
N 	N 	0.20550 0.29410 0.65360 -0.25600
N 	N 	0.03670 0.37360 0.76800 -0.27600
N 	N 	0.88960 0.58980 0.94730 -0.13200
N 	N 	0.58170 0.68800 0.10530 -0.26000
O 	O 	0.11740 0.15050 0.65656 -0.42100
O 	O 	0.39250 0.81120 0.06130 -0.42800
