data_crystal

_cell_length_a 10.06770
_cell_length_b 15.60390
_cell_length_c 20.10920
_cell_angle_alpha 78.18450
_cell_angle_beta  83.25420
_cell_angle_gamma 73.80050

_symmetry_space_group_name_	'P 1'
_symmetry_space_group_name_H-M	'P 1'

loop_
_symmetry_equiv_pos_as_xyz
  x,y,z

loop_
_atom_site_label
_atom_site_type_symbol
_atom_site_fract_x
_atom_site_fract_y
_atom_site_fract_z
_atom_site_charge
Zn	Zn	0.89907 0.17502 0.32824 1.22100
Zn	Zn	0.11820 0.35189 0.33788 1.21900
O 	O 	0.09550 0.07700 0.98641 -0.23200
O 	O 	0.70890 0.21760 0.68040 -0.25200
O 	O 	0.91240 0.41510 0.99495 -0.23800
O 	O 	0.25760 0.24480 0.69104 -0.24900
O 	O 	0.82850 0.31070 0.31485 -0.49300
O 	O 	0.91430 0.41900 0.33653 -0.47000
O 	O 	0.31580 0.36630 0.32756 -0.41200
O 	O 	0.18110 0.50460 0.32676 -0.34800
O 	O 	0.10220 0.11170 0.32153 -0.46900
O 	O 	0.19060 0.21441 0.35071 -0.48500
O 	O 	0.70480 0.15810 0.33323 -0.41000
O 	O 	0.83860 0.02110 0.32455 -0.34000
N 	N 	0.90970 0.18210 0.21819 -0.24100
N 	N 	0.89200 0.17840 0.01108 -0.24600
H 	H 	0.81730 0.21580 0.99270 0.13100
N 	N 	0.91630 0.12780 0.64843 -0.25800
H 	H 	0.99320 0.09000 0.66420 0.15400
N 	N 	0.89880 0.15770 0.43670 -0.26100
N 	N 	0.12180 0.36020 0.22891 -0.25000
N 	N 	0.12500 0.32810 0.02588 -0.24600
H 	H 	0.20130 0.29120 0.01150 0.13000
N 	N 	0.05610 0.34610 0.65630 -0.25200
H 	H 	0.97790 0.38170 0.67020 0.15200
N 	N 	0.10000 0.34660 0.44568 -0.23600
C 	C 	0.81220 0.24070 0.17960 0.12300
H 	H 	0.74400 0.28450 0.20050 -0.00400
C 	C 	0.80450 0.24130 0.11180 -0.21200
H 	H 	0.73230 0.28420 0.08700 0.10900
C 	C 	0.90450 0.17800 0.07970 0.21300
C 	C 	0.00680 0.11680 0.11870 -0.21100
H 	H 	0.07680 0.07240 0.09930 0.13000
C 	C 	0.00410 0.12210 0.18700 0.12100
H 	H 	0.07460 0.08000 0.21340 -0.00200
C 	C 	0.98370 0.12670 0.96930 0.22600
C 	C 	0.93750 0.13590 0.89950 -0.04300
C 	C 	0.03920 0.11100 0.84890 -0.02300
H 	H 	0.13340 0.08850 0.85980 0.05700
C 	C 	0.00520 0.11840 0.78280 -0.02900
H 	H 	0.07610 0.10050 0.74900 0.05300
C 	C 	0.86790 0.15200 0.76550 -0.04800
C 	C 	0.76580 0.17500 0.81640 -0.02900
H 	H 	0.67160 0.19670 0.80550 0.05200
C 	C 	0.79890 0.16700 0.88300 -0.02900
H 	H 	0.72760 0.18260 0.91720 0.03800
C 	C 	0.82250 0.16900 0.69450 0.23000
C 	C 	0.00910 0.10680 0.47080 0.11900
H 	H 	0.08750 0.07570 0.44590 -0.00900
C 	C 	0.01450 0.09720 0.54020 -0.22300
H 	H 	0.09590 0.06100 0.56170 0.11500
C 	C 	0.90210 0.13990 0.57850 0.21800
C 	C 	0.78470 0.19140 0.54360 -0.22100
H 	H 	0.70370 0.22180 0.56730 0.12600
C 	C 	0.78960 0.19700 0.47420 0.12300
H 	H 	0.70890 0.23140 0.45130 -0.01300
C 	C 	0.01830 0.40890 0.18950 0.11900
H 	H 	0.94390 0.45030 0.20920 -0.00600
C 	C 	0.01160 0.40320 0.12230 -0.21300
H 	H 	0.93540 0.43970 0.09700 0.13200
C 	C 	0.11890 0.34300 0.09310 0.21300
C 	C 	0.23070 0.29310 0.13210 -0.20700
H 	H 	0.30750 0.25250 0.11310 0.10200
C 	C 	0.22740 0.30380 0.19920 0.10700
H 	H 	0.30350 0.26950 0.22540 -0.00600
C 	C 	0.02340 0.36560 0.98060 0.23000
C 	C 	0.05950 0.34390 0.91030 -0.05000
C 	C 	0.19060 0.29730 0.88700 -0.01900
H 	H 	0.26350 0.27460 0.91720 0.03400
C 	C 	0.21450 0.28420 0.82040 -0.03700
H 	H 	0.30440 0.25290 0.80500 0.05600
C 	C 	0.10960 0.31580 0.77540 -0.03700
C 	C 	0.97750 0.36050 0.79880 -0.03900
H 	H 	0.90430 0.38160 0.76880 0.05400
C 	C 	0.95300 0.37410 0.86520 -0.02200
H 	H 	0.86250 0.40430 0.88070 0.05300
C 	C 	0.14830 0.29830 0.70440 0.22000
C 	C 	0.97580 0.36250 0.48100 0.04800
H 	H 	0.89520 0.37450 0.45670 0.00700
C 	C 	0.95800 0.36260 0.55040 -0.10200
H 	H 	0.86800 0.37580 0.57260 0.07200
C 	C 	0.00780 0.41010 0.47380 0.02100
H 	H 	0.94840 0.45760 0.44490 0.01800
C 	C 	0.99340 0.41090 0.54220 -0.08900
H 	H 	0.92590 0.45860 0.55940 0.06700
C 	C 	0.07690 0.34250 0.58680 0.18700
C 	C 	0.20340 0.33020 0.55090 -0.06900
H 	H 	0.28560 0.32000 0.57350 0.06700
C 	C 	0.20990 0.33270 0.48120 0.00900
H 	H 	0.29850 0.32390 0.45740 0.02200
C 	C 	0.17620 0.27390 0.55760 -0.12500
H 	H 	0.23590 0.22540 0.58550 0.09000
C 	C 	0.18490 0.27870 0.48750 0.05900
H 	H 	0.25240 0.23320 0.46800 0.01000
C 	C 	0.34480 0.07880 0.32440 -0.12800
C 	C 	0.46220 0.10720 0.32776 0.04800
H 	H 	0.45360 0.16750 0.33360 0.04500
C 	C 	0.59350 0.04670 0.32250 -0.09700
C 	C 	0.60540 0.95830 0.31480 0.02800
H 	H 	0.69460 0.91720 0.31200 0.04300
C 	C 	0.48820 0.92960 0.31110 -0.09600
H 	H 	0.49680 0.86910 0.30570 0.08400
C 	C 	0.35780 0.99020 0.31550 0.04200
H 	H 	0.27720 0.97130 0.31240 0.03800
C 	C 	0.20160 0.14110 0.33206 0.40900
C 	C 	0.72230 0.07600 0.32700 0.31500
C 	C 	0.67470 0.45380 0.32150 -0.13700
C 	C 	0.55750 0.42190 0.32213 0.05300
H 	H 	0.56670 0.35910 0.32400 0.04200
C 	C 	0.42670 0.48370 0.32000 -0.10400
C 	C 	0.41430 0.57580 0.31630 0.03600
H 	H 	0.32520 0.61750 0.31450 0.03900
C 	C 	0.53050 0.60710 0.31530 -0.10800
H 	H 	0.52180 0.67000 0.31210 0.08700
C 	C 	0.66010 0.54520 0.31900 0.05300
H 	H 	0.74000 0.56600 0.31980 0.03100
C 	C 	0.81640 0.38890 0.32514 0.41600
C 	C 	0.29880 0.45010 0.32490 0.31800
Zn	Zn	0.10093 0.82498 0.67176 1.22000
Zn	Zn	0.88180 0.64811 0.66212 1.21800
O 	O 	0.90450 0.92300 0.01359 -0.23300
O 	O 	0.29110 0.78240 0.31960 -0.25300
O 	O 	0.08760 0.58490 0.00505 -0.23900
O 	O 	0.74240 0.75520 0.30896 -0.25000
O 	O 	0.17150 0.68930 0.68515 -0.49400
O 	O 	0.08570 0.58100 0.66347 -0.47100
O 	O 	0.68420 0.63370 0.67244 -0.41300
O 	O 	0.81890 0.49540 0.67324 -0.34900
O 	O 	0.89780 0.88830 0.67847 -0.47000
O 	O 	0.80940 0.78559 0.64929 -0.48600
O 	O 	0.29520 0.84190 0.66677 -0.41100
O 	O 	0.16140 0.97890 0.67545 -0.34100
N 	N 	0.09030 0.81790 0.78181 -0.24200
N 	N 	0.10800 0.82160 0.98892 -0.24700
H 	H 	0.18270 0.78420 0.00730 0.13000
N 	N 	0.08370 0.87220 0.35157 -0.25900
H 	H 	0.00680 0.91000 0.33580 0.15400
N 	N 	0.10120 0.84230 0.56330 -0.26100
N 	N 	0.87820 0.63980 0.77109 -0.25000
N 	N 	0.87500 0.67190 0.97412 -0.24600
H 	H 	0.79870 0.70880 0.98850 0.13000
N 	N 	0.94390 0.65390 0.34370 -0.25200
H 	H 	0.02210 0.61830 0.32980 0.15200
N 	N 	0.90000 0.65340 0.55432 -0.23600
C 	C 	0.18780 0.75930 0.82040 0.12300
H 	H 	0.25600 0.71550 0.79950 -0.00400
C 	C 	0.19550 0.75870 0.88820 -0.21200
H 	H 	0.26770 0.71580 0.91300 0.10900
C 	C 	0.09550 0.82200 0.92030 0.21300
C 	C 	0.99320 0.88320 0.88130 -0.21100
H 	H 	0.92320 0.92760 0.90070 0.13000
C 	C 	0.99590 0.87790 0.81300 0.12100
H 	H 	0.92540 0.92000 0.78660 -0.00200
C 	C 	0.01630 0.87330 0.03070 0.22600
C 	C 	0.06250 0.86410 0.10050 -0.04300
C 	C 	0.96080 0.88900 0.15110 -0.02300
H 	H 	0.86660 0.91150 0.14020 0.05700
C 	C 	0.99480 0.88160 0.21720 -0.02900
H 	H 	0.92390 0.89950 0.25100 0.05300
C 	C 	0.13210 0.84800 0.23450 -0.04800
C 	C 	0.23420 0.82500 0.18360 -0.02900
H 	H 	0.32840 0.80330 0.19450 0.05200
C 	C 	0.20110 0.83300 0.11700 -0.02900
H 	H 	0.27240 0.81740 0.08280 0.03800
C 	C 	0.17750 0.83100 0.30550 0.23000
C 	C 	0.99090 0.89320 0.52920 0.11900
H 	H 	0.91250 0.92430 0.55410 -0.00900
C 	C 	0.98550 0.90280 0.45980 -0.22300
H 	H 	0.90410 0.93900 0.43830 0.11500
C 	C 	0.09790 0.86010 0.42150 0.21800
C 	C 	0.21530 0.80860 0.45640 -0.22100
H 	H 	0.29630 0.77820 0.43270 0.12600
C 	C 	0.21040 0.80300 0.52580 0.12300
H 	H 	0.29110 0.76860 0.54870 -0.01300
C 	C 	0.98170 0.59110 0.81050 0.11900
H 	H 	0.05610 0.54970 0.79080 -0.00600
C 	C 	0.98840 0.59680 0.87770 -0.21300
H 	H 	0.06460 0.56030 0.90300 0.13200
C 	C 	0.88110 0.65700 0.90690 0.21300
C 	C 	0.76930 0.70690 0.86790 -0.20700
H 	H 	0.69250 0.74750 0.88690 0.10200
C 	C 	0.77260 0.69620 0.80080 0.10700
H 	H 	0.69650 0.73050 0.77460 -0.00600
C 	C 	0.97660 0.63440 0.01940 0.23000
C 	C 	0.94050 0.65610 0.08970 -0.05000
C 	C 	0.80940 0.70270 0.11300 -0.01900
H 	H 	0.73650 0.72540 0.08280 0.03400
C 	C 	0.78550 0.71580 0.17960 -0.03700
H 	H 	0.69560 0.74710 0.19500 0.05600
C 	C 	0.89040 0.68420 0.22460 -0.03700
C 	C 	0.02250 0.63950 0.20120 -0.03900
H 	H 	0.09570 0.61840 0.23120 0.05400
C 	C 	0.04700 0.62590 0.13480 -0.02200
H 	H 	0.13750 0.59570 0.11930 0.05300
C 	C 	0.85170 0.70170 0.29560 0.22000
C 	C 	0.02420 0.63750 0.51900 0.04800
H 	H 	0.10480 0.62550 0.54330 0.00700
C 	C 	0.04200 0.63740 0.44960 -0.10200
H 	H 	0.13200 0.62420 0.42740 0.07200
C 	C 	0.99220 0.58990 0.52620 0.02100
H 	H 	0.05160 0.54240 0.55510 0.01800
C 	C 	0.00660 0.58910 0.45780 -0.08900
H 	H 	0.07410 0.54140 0.44060 0.06700
C 	C 	0.92310 0.65750 0.41320 0.18700
C 	C 	0.79660 0.66980 0.44910 -0.06900
H 	H 	0.71440 0.68000 0.42650 0.06700
C 	C 	0.79010 0.66730 0.51880 0.00900
H 	H 	0.70150 0.67610 0.54260 0.02200
C 	C 	0.82380 0.72610 0.44240 -0.12500
H 	H 	0.76410 0.77460 0.41450 0.09000
C 	C 	0.81510 0.72130 0.51250 0.05900
H 	H 	0.74760 0.76680 0.53200 0.01000
C 	C 	0.65520 0.92120 0.67560 -0.12800
C 	C 	0.53780 0.89280 0.67224 0.04800
H 	H 	0.54640 0.83250 0.66640 0.04500
C 	C 	0.40650 0.95330 0.67750 -0.09700
C 	C 	0.39460 0.04170 0.68520 0.02800
H 	H 	0.30540 0.08280 0.68800 0.04300
C 	C 	0.51180 0.07040 0.68890 -0.09600
H 	H 	0.50320 0.13090 0.69430 0.08400
C 	C 	0.64220 0.00980 0.68450 0.04200
H 	H 	0.72280 0.02870 0.68760 0.03800
C 	C 	0.79840 0.85890 0.66794 0.40900
C 	C 	0.27770 0.92400 0.67300 0.31500
C 	C 	0.32530 0.54620 0.67850 -0.13700
C 	C 	0.44250 0.57810 0.67787 0.05300
H 	H 	0.43330 0.64090 0.67600 0.04200
C 	C 	0.57330 0.51630 0.68000 -0.10400
C 	C 	0.58570 0.42420 0.68370 0.03600
H 	H 	0.67480 0.38250 0.68550 0.03900
C 	C 	0.46950 0.39290 0.68470 -0.10800
H 	H 	0.47820 0.33000 0.68790 0.08700
C 	C 	0.33990 0.45480 0.68100 0.05300
H 	H 	0.26000 0.43400 0.68020 0.03100
C 	C 	0.18360 0.61110 0.67486 0.41600
C 	C 	0.70120 0.54990 0.67510 0.31800
