data_crystal

_cell_length_a 21.89600
_cell_length_b 13.11800
_cell_length_c 12.30020
_cell_angle_alpha 90.00000
_cell_angle_beta  107.63500
_cell_angle_gamma 90.00000

_symmetry_space_group_name_	'P 1'
_symmetry_space_group_name_H-M	'P 1'

loop_
_symmetry_equiv_pos_as_xyz
  x,y,z

loop_
_atom_site_label
_atom_site_type_symbol
_atom_site_fract_x
_atom_site_fract_y
_atom_site_fract_z
_atom_site_charge
Cd	Cd	0.46169 0.02454 0.60786 1.22200
Cd	Cd	0.53831 0.02454 0.89214 1.22100
S 	S 	0.74263 0.52362 0.66620 0.26600
O 	O 	0.53147 0.91100 0.57960 -0.52000
O 	O 	0.56881 0.91110 0.76970 -0.44700
O 	O 	0.74968 0.51810 0.55310 -0.22500
O 	O 	0.79930 0.53330 0.76200 -0.22300
O 	O 	0.54629 0.13180 0.65540 -0.45200
O 	O 	0.59528 0.14300 0.84310 -0.43800
C 	C 	0.56740 0.87730 0.67400 0.40200
C 	C 	0.61140 0.78890 0.67190 -0.12900
C 	C 	0.65860 0.76090 0.77050 0.04600
H 	H 	0.66310 0.79690 0.83760 0.03100
C 	C 	0.69910 0.68020 0.77060 -0.09000
H 	H 	0.73100 0.66220 0.83700 0.07900
C 	C 	0.69140 0.62630 0.66980 0.01200
C 	C 	0.64320 0.65260 0.57200 -0.08700
H 	H 	0.63770 0.61530 0.50540 0.07200
C 	C 	0.60340 0.73390 0.57250 0.03900
H 	H 	0.57130 0.75170 0.50630 0.02300
C 	C 	0.70030 0.41530 0.68580 0.01100
C 	C 	0.71080 0.37710 0.79570 -0.09200
H 	H 	0.74140 0.40630 0.85740 0.08800
C 	C 	0.67490 0.29550 0.81070 0.04400
H 	H 	0.68200 0.26880 0.88350 0.03900
C 	C 	0.62870 0.25210 0.72040 -0.11700
C 	C 	0.62050 0.28860 0.61140 0.03900
H 	H 	0.59040 0.25810 0.54980 0.02700
C 	C 	0.65590 0.36870 0.59290 -0.09100
H 	H 	0.65050 0.39200 0.51920 0.07200
C 	C 	0.58660 0.16880 0.74100 0.40000
S 	S 	0.25737 0.52362 0.83380 0.26600
O 	O 	0.46853 0.91100 0.92040 -0.51800
O 	O 	0.43119 0.91110 0.73030 -0.44800
O 	O 	0.25032 0.51810 0.94690 -0.22600
O 	O 	0.20070 0.53330 0.73800 -0.22300
O 	O 	0.45371 0.13180 0.84460 -0.45300
O 	O 	0.40472 0.14300 0.65690 -0.43700
C 	C 	0.43260 0.87730 0.82600 0.40200
C 	C 	0.38860 0.78890 0.82810 -0.12900
C 	C 	0.34140 0.76090 0.72950 0.04600
H 	H 	0.33690 0.79690 0.66240 0.03000
C 	C 	0.30090 0.68020 0.72940 -0.09000
H 	H 	0.26900 0.66220 0.66300 0.07900
C 	C 	0.30860 0.62630 0.83020 0.01200
C 	C 	0.35680 0.65260 0.92800 -0.08600
H 	H 	0.36230 0.61530 0.99460 0.07200
C 	C 	0.39660 0.73390 0.92750 0.03800
H 	H 	0.42870 0.75170 0.99370 0.02400
C 	C 	0.29970 0.41530 0.81420 0.01100
C 	C 	0.28920 0.37710 0.70430 -0.09200
H 	H 	0.25860 0.40630 0.64260 0.08800
C 	C 	0.32510 0.29550 0.68930 0.04400
H 	H 	0.31800 0.26880 0.61650 0.03900
C 	C 	0.37130 0.25210 0.77960 -0.11700
C 	C 	0.37950 0.28860 0.88860 0.03900
H 	H 	0.40960 0.25810 0.95020 0.02600
C 	C 	0.34410 0.36870 0.90710 -0.09100
H 	H 	0.34950 0.39200 0.98080 0.07100
C 	C 	0.41340 0.16880 0.75900 0.40000
S 	S 	0.25737 0.47638 0.33380 0.26600
O 	O 	0.46853 0.08900 0.42040 -0.52000
O 	O 	0.43119 0.08890 0.23030 -0.44700
O 	O 	0.25032 0.48190 0.44690 -0.22500
O 	O 	0.20070 0.46670 0.23800 -0.22300
O 	O 	0.45371 0.86820 0.34460 -0.45200
O 	O 	0.40472 0.85700 0.15690 -0.43800
C 	C 	0.43260 0.12270 0.32600 0.40200
C 	C 	0.38860 0.21110 0.32810 -0.12900
C 	C 	0.34140 0.23910 0.22950 0.04600
H 	H 	0.33690 0.20310 0.16240 0.03100
C 	C 	0.30090 0.31980 0.22940 -0.09000
H 	H 	0.26900 0.33780 0.16300 0.07900
C 	C 	0.30860 0.37370 0.33020 0.01200
C 	C 	0.35680 0.34740 0.42800 -0.08700
H 	H 	0.36230 0.38470 0.49460 0.07200
C 	C 	0.39660 0.26610 0.42750 0.03900
H 	H 	0.42870 0.24830 0.49370 0.02300
C 	C 	0.29970 0.58470 0.31420 0.01100
C 	C 	0.28920 0.62290 0.20430 -0.09200
H 	H 	0.25860 0.59370 0.14260 0.08800
C 	C 	0.32510 0.70450 0.18930 0.04400
H 	H 	0.31800 0.73120 0.11650 0.03900
C 	C 	0.37130 0.74790 0.27960 -0.11700
C 	C 	0.37950 0.71140 0.38860 0.03900
H 	H 	0.40960 0.74190 0.45020 0.02700
C 	C 	0.34410 0.63130 0.40710 -0.09100
H 	H 	0.34950 0.60800 0.48080 0.07200
C 	C 	0.41340 0.83120 0.25900 0.40000
S 	S 	0.74263 0.47638 0.16620 0.26600
O 	O 	0.53147 0.08900 0.07960 -0.51800
O 	O 	0.56881 0.08890 0.26970 -0.44800
O 	O 	0.74968 0.48190 0.05310 -0.22600
O 	O 	0.79930 0.46670 0.26200 -0.22300
O 	O 	0.54629 0.86820 0.15540 -0.45300
O 	O 	0.59528 0.85700 0.34310 -0.43700
C 	C 	0.56740 0.12270 0.17400 0.40200
C 	C 	0.61140 0.21110 0.17190 -0.12900
C 	C 	0.65860 0.23910 0.27050 0.04600
H 	H 	0.66310 0.20310 0.33760 0.03000
C 	C 	0.69910 0.31980 0.27060 -0.09000
H 	H 	0.73100 0.33780 0.33700 0.07900
C 	C 	0.69140 0.37370 0.16980 0.01200
C 	C 	0.64320 0.34740 0.07200 -0.08600
H 	H 	0.63770 0.38470 0.00540 0.07200
C 	C 	0.60340 0.26610 0.07250 0.03800
H 	H 	0.57130 0.24830 0.00630 0.02400
C 	C 	0.70030 0.58470 0.18580 0.01100
C 	C 	0.71080 0.62290 0.29570 -0.09200
H 	H 	0.74140 0.59370 0.35740 0.08800
C 	C 	0.67490 0.70450 0.31070 0.04400
H 	H 	0.68200 0.73120 0.38350 0.03900
C 	C 	0.62870 0.74790 0.22040 -0.11700
C 	C 	0.62050 0.71140 0.11140 0.03900
H 	H 	0.59040 0.74190 0.04980 0.02600
C 	C 	0.65590 0.63130 0.09290 -0.09100
H 	H 	0.65050 0.60800 0.01920 0.07100
C 	C 	0.58660 0.83120 0.24100 0.40000
Cd	Cd	0.53831 0.97546 0.39214 1.22100
Cd	Cd	0.46169 0.97546 0.10786 1.22000
Cd	Cd	0.96169 0.52454 0.60786 1.22200
Cd	Cd	0.03831 0.52454 0.89214 1.22100
S 	S 	0.24263 0.02362 0.66620 0.26400
O 	O 	0.03147 0.41100 0.57960 -0.52000
O 	O 	0.06881 0.41110 0.76970 -0.44900
O 	O 	0.24968 0.01810 0.55310 -0.22500
O 	O 	0.29930 0.03330 0.76200 -0.22400
O 	O 	0.04629 0.63180 0.65540 -0.45200
O 	O 	0.09528 0.64300 0.84310 -0.43700
C 	C 	0.06740 0.37730 0.67400 0.40200
C 	C 	0.11140 0.28890 0.67190 -0.13000
C 	C 	0.15860 0.26090 0.77050 0.04700
H 	H 	0.16310 0.29690 0.83760 0.02900
C 	C 	0.19910 0.18020 0.77060 -0.09100
H 	H 	0.23100 0.16220 0.83700 0.07900
C 	C 	0.19140 0.12630 0.66980 0.01300
C 	C 	0.14320 0.15260 0.57200 -0.08700
H 	H 	0.13770 0.11530 0.50540 0.07200
C 	C 	0.10340 0.23390 0.57250 0.03900
H 	H 	0.07130 0.25170 0.50630 0.02300
C 	C 	0.20030 0.91530 0.68580 0.01300
C 	C 	0.21080 0.87710 0.79570 -0.09300
H 	H 	0.24140 0.90630 0.85740 0.09000
C 	C 	0.17490 0.79550 0.81070 0.04500
H 	H 	0.18200 0.76880 0.88350 0.03900
C 	C 	0.12870 0.75210 0.72040 -0.11700
C 	C 	0.12050 0.78860 0.61140 0.04000
H 	H 	0.09040 0.75810 0.54980 0.02700
C 	C 	0.15590 0.86870 0.59290 -0.09200
H 	H 	0.15050 0.89200 0.51920 0.07200
C 	C 	0.08660 0.66880 0.74100 0.40000
S 	S 	0.75737 0.02362 0.83380 0.26300
O 	O 	0.96853 0.41100 0.92040 -0.52000
O 	O 	0.93119 0.41110 0.73030 -0.44800
O 	O 	0.75032 0.01810 0.94690 -0.22600
O 	O 	0.70070 0.03330 0.73800 -0.22300
O 	O 	0.95371 0.63180 0.84460 -0.45100
O 	O 	0.90472 0.64300 0.65690 -0.43600
C 	C 	0.93260 0.37730 0.82600 0.40200
C 	C 	0.88860 0.28890 0.82810 -0.13000
C 	C 	0.84140 0.26090 0.72950 0.04700
H 	H 	0.83690 0.29690 0.66240 0.03000
C 	C 	0.80090 0.18020 0.72940 -0.09100
H 	H 	0.76900 0.16220 0.66300 0.07900
C 	C 	0.80860 0.12630 0.83020 0.01300
C 	C 	0.85680 0.15260 0.92800 -0.08700
H 	H 	0.86230 0.11530 0.99460 0.07100
C 	C 	0.89660 0.23390 0.92750 0.03900
H 	H 	0.92870 0.25170 0.99370 0.02300
C 	C 	0.79970 0.91530 0.81420 0.01500
C 	C 	0.78920 0.87710 0.70430 -0.09400
H 	H 	0.75860 0.90630 0.64260 0.08900
C 	C 	0.82510 0.79550 0.68930 0.04600
H 	H 	0.81800 0.76880 0.61650 0.03900
C 	C 	0.87130 0.75210 0.77960 -0.11700
C 	C 	0.87950 0.78860 0.88860 0.04100
H 	H 	0.90960 0.75810 0.95020 0.02700
C 	C 	0.84410 0.86870 0.90710 -0.09300
H 	H 	0.84950 0.89200 0.98080 0.07400
C 	C 	0.91340 0.66880 0.75900 0.40000
S 	S 	0.75737 0.97638 0.33380 0.26400
O 	O 	0.96853 0.58900 0.42040 -0.52000
O 	O 	0.93119 0.58890 0.23030 -0.44900
O 	O 	0.75032 0.98190 0.44690 -0.22500
O 	O 	0.70070 0.96670 0.23800 -0.22400
O 	O 	0.95371 0.36820 0.34460 -0.45200
O 	O 	0.90472 0.35700 0.15690 -0.43700
C 	C 	0.93260 0.62270 0.32600 0.40200
C 	C 	0.88860 0.71110 0.32810 -0.13000
C 	C 	0.84140 0.73910 0.22950 0.04700
H 	H 	0.83690 0.70310 0.16240 0.02900
C 	C 	0.80090 0.81980 0.22940 -0.09100
H 	H 	0.76900 0.83780 0.16300 0.07900
C 	C 	0.80860 0.87370 0.33020 0.01300
C 	C 	0.85680 0.84740 0.42800 -0.08700
H 	H 	0.86230 0.88470 0.49460 0.07200
C 	C 	0.89660 0.76610 0.42750 0.03900
H 	H 	0.92870 0.74830 0.49370 0.02300
C 	C 	0.79970 0.08470 0.31420 0.01300
C 	C 	0.78920 0.12290 0.20430 -0.09300
H 	H 	0.75860 0.09370 0.14260 0.09000
C 	C 	0.82510 0.20450 0.18930 0.04500
H 	H 	0.81800 0.23120 0.11650 0.03900
C 	C 	0.87130 0.24790 0.27960 -0.11700
C 	C 	0.87950 0.21140 0.38860 0.04000
H 	H 	0.90960 0.24190 0.45020 0.02700
C 	C 	0.84410 0.13130 0.40710 -0.09200
H 	H 	0.84950 0.10800 0.48080 0.07200
C 	C 	0.91340 0.33120 0.25900 0.40000
S 	S 	0.24263 0.97638 0.16620 0.26300
O 	O 	0.03147 0.58900 0.07960 -0.52000
O 	O 	0.06881 0.58890 0.26970 -0.44800
O 	O 	0.24968 0.98190 0.05310 -0.22600
O 	O 	0.29930 0.96670 0.26200 -0.22300
O 	O 	0.04629 0.36820 0.15540 -0.45100
O 	O 	0.09528 0.35700 0.34310 -0.43600
C 	C 	0.06740 0.62270 0.17400 0.40200
C 	C 	0.11140 0.71110 0.17190 -0.13000
C 	C 	0.15860 0.73910 0.27050 0.04700
H 	H 	0.16310 0.70310 0.33760 0.03000
C 	C 	0.19910 0.81980 0.27060 -0.09100
H 	H 	0.23100 0.83780 0.33700 0.07900
C 	C 	0.19140 0.87370 0.16980 0.01300
C 	C 	0.14320 0.84740 0.07200 -0.08700
H 	H 	0.13770 0.88470 0.00540 0.07100
C 	C 	0.10340 0.76610 0.07250 0.03900
H 	H 	0.07130 0.74830 0.00630 0.02300
C 	C 	0.20030 0.08470 0.18580 0.01500
C 	C 	0.21080 0.12290 0.29570 -0.09400
H 	H 	0.24140 0.09370 0.35740 0.08900
C 	C 	0.17490 0.20450 0.31070 0.04600
H 	H 	0.18200 0.23120 0.38350 0.03900
C 	C 	0.12870 0.24790 0.22040 -0.11700
C 	C 	0.12050 0.21140 0.11140 0.04100
H 	H 	0.09040 0.24190 0.04980 0.02700
C 	C 	0.15590 0.13130 0.09290 -0.09300
H 	H 	0.15050 0.10800 0.01920 0.07400
C 	C 	0.08660 0.33120 0.24100 0.40000
Cd	Cd	0.03831 0.47546 0.39214 1.22200
Cd	Cd	0.96169 0.47546 0.10786 1.22100
