data_crystal

_cell_length_a 21.69200
_cell_length_b 7.45940
_cell_length_c 9.87690
_cell_angle_alpha 90.00000
_cell_angle_beta  91.68700
_cell_angle_gamma 90.00000

_symmetry_space_group_name_	'P 1'
_symmetry_space_group_name_H-M	'P 1'

loop_
_symmetry_equiv_pos_as_xyz
  x,y,z

loop_
_atom_site_label
_atom_site_type_symbol
_atom_site_fract_x
_atom_site_fract_y
_atom_site_fract_z
_atom_site_charge
O 	O 	0.09766 0.03700 0.44910 -1.02700
C 	C 	0.10217 0.37850 0.14690 -0.41500
H 	H 	0.06660 0.41740 0.09680 0.13500
C 	C 	0.14850 0.49080 0.20580 -0.04600
C 	C 	0.19336 0.37940 0.27130 -0.31600
H 	H 	0.22950 0.41910 0.31900 0.11700
N 	N 	0.17470 0.19840 0.25280 -0.36200
N 	N 	0.11840 0.19780 0.17590 -0.48000
O 	O 	0.10400 0.75440 0.14430 0.03300
O 	O 	0.18950 0.76340 0.26000 -0.07500
C 	C 	0.14720 0.69040 0.20250 0.76400
O 	O 	0.90234 0.03700 0.55090 -1.02700
C 	C 	0.89783 0.37850 0.85310 -0.41500
H 	H 	0.93340 0.41740 0.90320 0.13500
C 	C 	0.85150 0.49080 0.79420 -0.04600
C 	C 	0.80664 0.37940 0.72870 -0.31600
H 	H 	0.77050 0.41910 0.68100 0.11700
N 	N 	0.82530 0.19840 0.74720 -0.36200
N 	N 	0.88160 0.19780 0.82410 -0.48000
O 	O 	0.89600 0.75440 0.85570 0.03300
O 	O 	0.81050 0.76340 0.74000 -0.07500
C 	C 	0.85280 0.69040 0.79750 0.76400
O 	O 	0.90234 0.96300 0.55090 0.64900
C 	C 	0.89783 0.62150 0.85310 -0.40000
H 	H 	0.93340 0.58260 0.90320 0.12700
C 	C 	0.85150 0.50920 0.79420 -0.04600
C 	C 	0.80664 0.62060 0.72870 -0.30800
H 	H 	0.77050 0.58090 0.68100 0.11100
N 	N 	0.82530 0.80160 0.74720 -0.35900
N 	N 	0.88160 0.80220 0.82410 -0.47800
O 	O 	0.89600 0.24560 0.85570 0.04700
O 	O 	0.81050 0.23660 0.74000 -0.05800
C 	C 	0.85280 0.30960 0.79750 0.78700
O 	O 	0.09766 0.96300 0.44910 0.64900
C 	C 	0.10217 0.62150 0.14690 -0.40000
H 	H 	0.06660 0.58260 0.09680 0.12700
C 	C 	0.14850 0.50920 0.20580 -0.04600
C 	C 	0.19336 0.62060 0.27130 -0.30800
H 	H 	0.22950 0.58090 0.31900 0.11100
N 	N 	0.17470 0.80160 0.25280 -0.35900
N 	N 	0.11840 0.80220 0.17590 -0.47800
O 	O 	0.10400 0.24560 0.14430 0.04700
O 	O 	0.18950 0.23660 0.26000 -0.05800
C 	C 	0.14720 0.30960 0.20250 0.78700
Zn	Zn	0.07113 0.00000 0.10750 1.18100
Zn	Zn	0.20001 0.00000 0.36329 1.17700
C 	C 	0.02990 0.00000 0.69780 0.07200
H 	H 	0.00100 0.00000 0.62350 0.00700
C 	C 	0.11520 -0.00000 0.81880 0.08100
H 	H 	0.15760 -0.00000 0.84560 -0.03400
C 	C 	0.09350 -0.00000 0.68650 -0.15700
C 	C 	0.12700 0.00000 0.55840 0.32300
O 	O 	0.18528 0.00000 0.56180 -0.51200
N 	N 	0.01502 0.00000 0.82740 -0.27000
N 	N 	0.06889 -0.00000 0.90440 -0.27300
Zn	Zn	0.92887 0.00000 0.89250 1.18100
Zn	Zn	0.79999 0.00000 0.63671 1.17700
C 	C 	0.97010 -0.00000 0.30220 0.07200
H 	H 	0.99900 -0.00000 0.37650 0.00700
C 	C 	0.88480 0.00000 0.18120 0.08100
H 	H 	0.84240 0.00000 0.15440 -0.03400
C 	C 	0.90650 0.00000 0.31350 -0.15700
C 	C 	0.87300 0.00000 0.44160 0.32300
O 	O 	0.81472 -0.00000 0.43820 -0.51200
N 	N 	0.98498 0.00000 0.17260 -0.27000
N 	N 	0.93111 0.00000 0.09560 -0.27300
O 	O 	0.59766 0.53700 0.44910 -0.13800
C 	C 	0.60217 0.87850 0.14690 -0.40800
H 	H 	0.56660 0.91740 0.09680 0.13700
C 	C 	0.64850 0.99080 0.20580 -0.08700
C 	C 	0.69336 0.87940 0.27130 -0.30800
H 	H 	0.72950 0.91910 0.31900 0.11900
N 	N 	0.67470 0.69840 0.25280 -0.36600
N 	N 	0.61840 0.69780 0.17590 -0.48800
O 	O 	0.60400 0.25440 0.14430 0.03400
O 	O 	0.68950 0.26340 0.26000 -0.07200
C 	C 	0.64720 0.19040 0.20250 0.76600
O 	O 	0.40234 0.53700 0.55090 -0.13800
C 	C 	0.39783 0.87850 0.85310 -0.40800
H 	H 	0.43340 0.91740 0.90320 0.13700
C 	C 	0.35150 0.99080 0.79420 -0.08700
C 	C 	0.30664 0.87940 0.72870 -0.30800
H 	H 	0.27050 0.91910 0.68100 0.11900
N 	N 	0.32530 0.69840 0.74720 -0.36600
N 	N 	0.38160 0.69780 0.82410 -0.48800
O 	O 	0.39600 0.25440 0.85570 0.03400
O 	O 	0.31050 0.26340 0.74000 -0.07200
C 	C 	0.35280 0.19040 0.79750 0.76600
O 	O 	0.40234 0.46300 0.55090 -0.24800
C 	C 	0.39783 0.12150 0.85310 -0.40900
H 	H 	0.43340 0.08260 0.90320 0.12300
C 	C 	0.35150 0.00920 0.79420 -0.00500
C 	C 	0.30664 0.12060 0.72870 -0.31600
H 	H 	0.27050 0.08090 0.68100 0.11100
N 	N 	0.32530 0.30160 0.74720 -0.35400
N 	N 	0.38160 0.30220 0.82410 -0.47400
O 	O 	0.39600 0.74560 0.85570 0.04500
O 	O 	0.31050 0.73660 0.74000 -0.06500
C 	C 	0.35280 0.80960 0.79750 0.78700
O 	O 	0.59766 0.46300 0.44910 -0.24800
C 	C 	0.60217 0.12150 0.14690 -0.40900
H 	H 	0.56660 0.08260 0.09680 0.12300
C 	C 	0.64850 0.00920 0.20580 -0.00500
C 	C 	0.69336 0.12060 0.27130 -0.31600
H 	H 	0.72950 0.08090 0.31900 0.11100
N 	N 	0.67470 0.30160 0.25280 -0.35400
N 	N 	0.61840 0.30220 0.17590 -0.47400
O 	O 	0.60400 0.74560 0.14430 0.04500
O 	O 	0.68950 0.73660 0.26000 -0.06500
C 	C 	0.64720 0.80960 0.20250 0.78700
Zn	Zn	0.57113 0.50000 0.10750 1.18300
Zn	Zn	0.70001 0.50000 0.36329 1.18100
C 	C 	0.52990 0.50000 0.69780 0.07400
H 	H 	0.50100 0.50000 0.62350 0.00900
C 	C 	0.61520 0.50000 0.81880 0.08300
H 	H 	0.65760 0.50000 0.84560 -0.03200
C 	C 	0.59350 0.50000 0.68650 -0.15800
C 	C 	0.62700 0.50000 0.55840 0.33200
O 	O 	0.68528 0.50000 0.56180 -0.50900
N 	N 	0.51502 0.50000 0.82740 -0.26900
N 	N 	0.56889 0.50000 0.90440 -0.27300
Zn	Zn	0.42887 0.50000 0.89250 1.18300
Zn	Zn	0.29999 0.50000 0.63671 1.18100
C 	C 	0.47010 0.50000 0.30220 0.07400
H 	H 	0.49900 0.50000 0.37650 0.00900
C 	C 	0.38480 0.50000 0.18120 0.08300
H 	H 	0.34240 0.50000 0.15440 -0.03200
C 	C 	0.40650 0.50000 0.31350 -0.15800
C 	C 	0.37300 0.50000 0.44160 0.33200
O 	O 	0.31472 0.50000 0.43820 -0.50900
N 	N 	0.48498 0.50000 0.17260 -0.26900
N 	N 	0.43111 0.50000 0.09560 -0.27300
