data_crystal

_cell_length_a 9.37250
_cell_length_b 14.76430
_cell_length_c 14.71530
_cell_angle_alpha 90.00000
_cell_angle_beta  101.05800
_cell_angle_gamma 90.00000

_symmetry_space_group_name_	'P 1'
_symmetry_space_group_name_H-M	'P 1'

loop_
_symmetry_equiv_pos_as_xyz
  x,y,z

loop_
_atom_site_label
_atom_site_type_symbol
_atom_site_fract_x
_atom_site_fract_y
_atom_site_fract_z
_atom_site_charge
Zn	Zn	0.01743 0.10873 0.22316 1.19400
O 	O 	0.15150 0.13661 0.34495 -0.43100
O 	O 	0.20350 0.25974 0.26981 -0.31300
O 	O 	0.08180 0.00248 0.74799 -0.44400
O 	O 	0.15730 0.02713 0.89930 -0.30900
N 	N 	0.43760 0.32650 0.59660 -0.24300
N 	N 	0.37240 0.28800 0.75890 -0.22100
C 	C 	0.20990 0.21390 0.34050 0.29700
C 	C 	0.29390 0.25130 0.43090 -0.02000
C 	C 	0.39370 0.32040 0.43160 -0.06600
H 	H 	0.41410 0.34320 0.37510 0.06400
C 	C 	0.46360 0.35610 0.51530 0.04700
H 	H 	0.53250 0.40330 0.51510 0.00500
C 	C 	0.26720 0.22030 0.51530 -0.06500
H 	H 	0.19920 0.17290 0.51700 0.06600
C 	C 	0.34050 0.25900 0.59720 0.04600
C 	C 	0.31410 0.23200 0.68970 0.04200
C 	C 	0.23770 0.15430 0.70530 -0.06100
H 	H 	0.19770 0.11560 0.65530 0.06700
C 	C 	0.22060 0.13390 0.79480 -0.02400
C 	C 	0.27980 0.19340 0.86560 -0.07000
H 	H 	0.26900 0.18210 0.92750 0.06700
C 	C 	0.35390 0.26850 0.84500 0.05400
H 	H 	0.39390 0.30850 0.89390 0.01200
C 	C 	0.14750 0.04790 0.81770 0.30500
Zn	Zn	0.48257 0.60873 0.27684 1.19500
O 	O 	0.34850 0.63661 0.15505 -0.42900
O 	O 	0.29650 0.75974 0.23019 -0.31100
O 	O 	0.41820 0.50248 0.75201 -0.44500
O 	O 	0.34270 0.52713 0.60070 -0.31100
N 	N 	0.06240 0.82650 0.90340 -0.24500
N 	N 	0.12760 0.78800 0.74110 -0.22000
C 	C 	0.29010 0.71390 0.15950 0.29500
C 	C 	0.20610 0.75130 0.06910 -0.01700
C 	C 	0.10630 0.82040 0.06840 -0.07600
H 	H 	0.08590 0.84320 0.12490 0.06700
C 	C 	0.03640 0.85610 0.98470 0.06200
H 	H 	0.96750 0.90330 0.98490 -0.00500
C 	C 	0.23280 0.72030 0.98470 -0.06700
H 	H 	0.30080 0.67290 0.98300 0.06700
C 	C 	0.15950 0.75900 0.90280 0.04800
C 	C 	0.18590 0.73200 0.81030 0.04200
C 	C 	0.26230 0.65430 0.79470 -0.06000
H 	H 	0.30230 0.61560 0.84470 0.06600
C 	C 	0.27940 0.63390 0.70520 -0.02500
C 	C 	0.22020 0.69340 0.63440 -0.06900
H 	H 	0.23100 0.68210 0.57250 0.06600
C 	C 	0.14610 0.76850 0.65500 0.05400
H 	H 	0.10610 0.80850 0.60610 0.01300
C 	C 	0.35250 0.54790 0.68230 0.30600
Zn	Zn	0.98257 0.89127 0.77684 1.19400
O 	O 	0.84850 0.86339 0.65505 -0.43100
O 	O 	0.79650 0.74026 0.73019 -0.31300
O 	O 	0.91820 0.99752 0.25201 -0.44400
O 	O 	0.84270 0.97287 0.10070 -0.30900
N 	N 	0.56240 0.67350 0.40340 -0.24300
N 	N 	0.62760 0.71200 0.24110 -0.22100
C 	C 	0.79010 0.78610 0.65950 0.29700
C 	C 	0.70610 0.74870 0.56910 -0.02000
C 	C 	0.60630 0.67960 0.56840 -0.06600
H 	H 	0.58590 0.65680 0.62490 0.06400
C 	C 	0.53640 0.64390 0.48470 0.04700
H 	H 	0.46750 0.59670 0.48490 0.00500
C 	C 	0.73280 0.77970 0.48470 -0.06500
H 	H 	0.80080 0.82710 0.48300 0.06600
C 	C 	0.65950 0.74100 0.40280 0.04600
C 	C 	0.68590 0.76800 0.31030 0.04200
C 	C 	0.76230 0.84570 0.29470 -0.06100
H 	H 	0.80230 0.88440 0.34470 0.06700
C 	C 	0.77940 0.86610 0.20520 -0.02400
C 	C 	0.72020 0.80660 0.13440 -0.07000
H 	H 	0.73100 0.81790 0.07250 0.06700
C 	C 	0.64610 0.73150 0.15500 0.05400
H 	H 	0.60610 0.69150 0.10610 0.01200
C 	C 	0.85250 0.95210 0.18230 0.30500
Zn	Zn	0.51743 0.39127 0.72316 1.19500
O 	O 	0.65150 0.36339 0.84495 -0.42900
O 	O 	0.70350 0.24026 0.76981 -0.31100
O 	O 	0.58180 0.49752 0.24799 -0.44500
O 	O 	0.65730 0.47287 0.39930 -0.31100
N 	N 	0.93760 0.17350 0.09660 -0.24500
N 	N 	0.87240 0.21200 0.25890 -0.22000
C 	C 	0.70990 0.28610 0.84050 0.29500
C 	C 	0.79390 0.24870 0.93090 -0.01700
C 	C 	0.89370 0.17960 0.93160 -0.07600
H 	H 	0.91410 0.15680 0.87510 0.06700
C 	C 	0.96360 0.14390 0.01530 0.06200
H 	H 	0.03250 0.09670 0.01510 -0.00500
C 	C 	0.76720 0.27970 0.01530 -0.06700
H 	H 	0.69920 0.32710 0.01700 0.06700
C 	C 	0.84050 0.24100 0.09720 0.04800
C 	C 	0.81410 0.26800 0.18970 0.04200
C 	C 	0.73770 0.34570 0.20530 -0.06000
H 	H 	0.69770 0.38440 0.15530 0.06600
C 	C 	0.72060 0.36610 0.29480 -0.02500
C 	C 	0.77980 0.30660 0.36560 -0.06900
H 	H 	0.76900 0.31790 0.42750 0.06600
C 	C 	0.85390 0.23150 0.34500 0.05400
H 	H 	0.89390 0.19150 0.39390 0.01300
C 	C 	0.64750 0.45210 0.31770 0.30600
