data_crystal

_cell_length_a 18.25700
_cell_length_b 8.47500
_cell_length_c 28.61500
_cell_angle_alpha 90.00000
_cell_angle_beta  129.59000
_cell_angle_gamma 90.00000

_symmetry_space_group_name_	'P 1'
_symmetry_space_group_name_H-M	'P 1'

loop_
_symmetry_equiv_pos_as_xyz
  x,y,z

loop_
_atom_site_label
_atom_site_type_symbol
_atom_site_fract_x
_atom_site_fract_y
_atom_site_fract_z
_atom_site_charge
O 	O 	0.98270 0.22260 0.57730 -0.28900
O 	O 	0.13230 0.29920 0.62870 -0.28200
C 	C 	0.01920 0.63570 0.71640 0.11000
C 	C 	0.05400 0.30510 0.61820 0.28300
O 	O 	0.66100 0.28010 0.60330 -0.31000
C 	C 	0.10280 0.63270 0.72450 -0.18500
H 	H 	0.15110 0.70440 0.75060 0.09700
C 	C 	0.95010 0.52400 0.67900 -0.15200
H 	H 	0.89500 0.52200 0.67440 0.09000
O 	O 	0.68400 0.23370 0.53720 -0.29800
C 	C 	0.91630 0.86150 0.70570 0.16400
C 	C 	0.96210 0.41430 0.64790 0.10000
H 	H 	0.91500 0.33990 0.62280 0.01200
C 	C 	0.04460 0.41620 0.65470 -0.16400
C 	C 	0.77780 0.09400 0.62910 -0.18700
C 	C 	0.87150 0.86830 0.64450 -0.21800
H 	H 	0.88620 0.79350 0.62790 0.11300
C 	C 	0.88990 0.97320 0.72810 -0.13800
H 	H 	0.91830 0.97100 0.76900 0.09700
C 	C 	0.82260 0.08740 0.69120 0.04400
H 	H 	0.80680 0.16080 0.70770 0.02200
C 	C 	0.80500 0.98420 0.60750 0.15700
H 	H 	0.77820 0.98770 0.56690 -0.00300
C 	C 	0.70270 0.21000 0.58710 0.32800
C 	C 	0.11390 0.52280 0.69370 0.08600
H 	H 	0.17040 0.52160 0.69970 0.01000
O 	O 	0.01730 0.22260 0.92270 -0.33000
O 	O 	0.86770 0.29920 0.87130 -0.28700
C 	C 	0.98080 0.63570 0.78360 0.19900
C 	C 	0.94600 0.30510 0.88180 0.34100
O 	O 	0.33900 0.28010 0.89670 -0.30500
C 	C 	0.89720 0.63270 0.77550 -0.21400
H 	H 	0.84890 0.70440 0.74940 0.10800
C 	C 	0.04990 0.52400 0.82100 -0.22800
H 	H 	0.10500 0.52200 0.82560 0.11300
O 	O 	0.31600 0.23370 0.96280 -0.27900
C 	C 	0.08370 0.86150 0.79430 0.12700
C 	C 	0.03790 0.41430 0.85210 0.06600
H 	H 	0.08500 0.33990 0.87720 0.01800
C 	C 	0.95540 0.41620 0.84530 -0.12900
C 	C 	0.22220 0.09400 0.87090 -0.17400
C 	C 	0.12850 0.86830 0.85550 -0.19900
H 	H 	0.11380 0.79350 0.87210 0.10100
C 	C 	0.11010 0.97320 0.77190 -0.11200
H 	H 	0.08170 0.97100 0.73100 0.07700
C 	C 	0.17740 0.08740 0.80880 0.01500
H 	H 	0.19320 0.16080 0.79230 0.02800
C 	C 	0.19500 0.98420 0.89250 0.13900
H 	H 	0.22180 0.98770 0.93310 0.01000
C 	C 	0.29730 0.21000 0.91290 0.31800
C 	C 	0.88610 0.52280 0.80630 0.10100
H 	H 	0.82960 0.52160 0.80030 0.00500
C 	C 	0.00000 0.74840 0.75000 -0.20200
O 	O 	0.01730 0.77740 0.42270 -0.31300
O 	O 	0.86770 0.70080 0.37130 -0.27300
C 	C 	0.98080 0.36430 0.28360 0.21500
C 	C 	0.94600 0.69490 0.38180 0.34200
O 	O 	0.33900 0.71990 0.39670 -0.29600
C 	C 	0.89720 0.36730 0.27550 -0.22100
H 	H 	0.84890 0.29560 0.24940 0.10800
C 	C 	0.04990 0.47600 0.32100 -0.23500
H 	H 	0.10500 0.47800 0.32560 0.11600
O 	O 	0.31600 0.76630 0.46280 -0.27500
C 	C 	0.08370 0.13850 0.29430 0.15900
C 	C 	0.03790 0.58570 0.35210 0.06800
H 	H 	0.08500 0.66010 0.37720 0.02500
C 	C 	0.95540 0.58380 0.34530 -0.12200
C 	C 	0.22220 0.90600 0.37090 -0.10500
C 	C 	0.12850 0.13170 0.35550 -0.18900
H 	H 	0.11380 0.20650 0.37210 0.09300
C 	C 	0.11010 0.02680 0.27190 -0.25600
H 	H 	0.08170 0.02900 0.23100 0.10700
C 	C 	0.17740 0.91260 0.30880 0.14600
H 	H 	0.19320 0.83920 0.29230 0.00200
C 	C 	0.19500 0.01580 0.39250 0.03200
H 	H 	0.22180 0.01230 0.43310 0.01700
C 	C 	0.29730 0.79000 0.41290 0.31400
C 	C 	0.88610 0.47720 0.30630 0.10500
H 	H 	0.82960 0.47840 0.30030 0.00600
O 	O 	0.98270 0.77740 0.07730 -0.27200
O 	O 	0.13230 0.70080 0.12870 -0.26700
C 	C 	0.01920 0.36430 0.21640 0.11300
C 	C 	0.05400 0.69490 0.11820 0.28500
O 	O 	0.66100 0.71990 0.10330 -0.30000
C 	C 	0.10280 0.36730 0.22450 -0.18600
H 	H 	0.15110 0.29560 0.25060 0.09400
C 	C 	0.95010 0.47600 0.17900 -0.14700
H 	H 	0.89500 0.47800 0.17440 0.08900
O 	O 	0.68400 0.76630 0.03720 -0.29500
C 	C 	0.91630 0.13850 0.20570 0.20000
C 	C 	0.96210 0.58570 0.14790 0.09700
H 	H 	0.91500 0.66010 0.12280 0.02000
C 	C 	0.04460 0.58380 0.15470 -0.15600
C 	C 	0.77780 0.90600 0.12910 -0.12300
C 	C 	0.87150 0.13170 0.14450 -0.20900
H 	H 	0.88620 0.20650 0.12790 0.10700
C 	C 	0.88990 0.02680 0.22810 -0.27200
H 	H 	0.91830 0.02900 0.26900 0.12700
C 	C 	0.82260 0.91260 0.19120 0.16400
H 	H 	0.80680 0.83920 0.20770 -0.00200
C 	C 	0.80500 0.01580 0.10750 0.05800
H 	H 	0.77820 0.01230 0.06690 0.00300
C 	C 	0.70270 0.79000 0.08710 0.32400
C 	C 	0.11390 0.47720 0.19370 0.08400
H 	H 	0.17040 0.47840 0.19970 0.01200
C 	C 	0.00000 0.25160 0.25000 -0.23000
C 	C 	0.65910 0.62720 0.52020 -0.10900
H 	H 	0.70600 0.54590 0.54540 0.06500
H 	H 	0.69180 0.72310 0.52430 0.06800
C 	C 	0.56010 0.85970 0.57560 -0.08200
H 	H 	0.59680 0.95510 0.59560 0.07900
H 	H 	0.49610 0.87680 0.56120 0.06800
N 	N 	0.46400 0.55710 0.54740 -0.26300
H 	H 	0.41870 0.64430 0.52560 0.10400
N 	N 	0.60020 0.65510 0.53800 -0.19800
N 	N 	0.60520 0.72310 0.61880 -0.09300
C 	C 	0.66250 0.65310 0.60560 -0.05400
H 	H 	0.68020 0.54600 0.62100 0.04700
H 	H 	0.71970 0.71430 0.62370 0.06100
C 	C 	0.53740 0.61370 0.61090 -0.04000
H 	H 	0.50560 0.66440 0.62400 0.05300
H 	H 	0.57150 0.52320 0.63690 0.04400
C 	C 	0.40920 0.42520 0.54550 -0.07400
H 	H 	0.37460 0.45980 0.55890 0.05500
H 	H 	0.45110 0.33940 0.57130 0.03900
C 	C 	0.55800 0.81810 0.52310 -0.08500
H 	H 	0.49340 0.81830 0.48500 0.04300
H 	H 	0.59560 0.89220 0.52040 0.07100
C 	C 	0.34090 0.37280 0.47980 -0.11200
H 	H 	0.29400 0.45410 0.45460 0.06700
H 	H 	0.30820 0.27690 0.47570 0.06500
C 	C 	0.43990 0.14030 0.42440 -0.07000
H 	H 	0.40320 0.04490 0.40440 0.04700
H 	H 	0.50390 0.12320 0.43880 0.04700
N 	N 	0.53600 0.44290 0.45260 -0.26200
H 	H 	0.58130 0.35570 0.47440 0.10200
N 	N 	0.39980 0.34490 0.46200 -0.19900
N 	N 	0.39480 0.27690 0.38120 -0.09900
C 	C 	0.33750 0.34690 0.39440 -0.05300
H 	H 	0.31980 0.45400 0.37900 0.04700
H 	H 	0.28030 0.28570 0.37630 0.05700
C 	C 	0.46260 0.38630 0.38910 -0.03900
H 	H 	0.49440 0.33560 0.37600 0.04700
H 	H 	0.42850 0.47680 0.36310 0.04600
C 	C 	0.59080 0.57480 0.45450 -0.07900
H 	H 	0.62540 0.54020 0.44110 0.05800
H 	H 	0.54890 0.66060 0.42870 0.04900
C 	C 	0.44200 0.18190 0.47690 -0.08400
H 	H 	0.50660 0.18170 0.51500 0.02800
H 	H 	0.40440 0.10780 0.47960 0.05000
Ni	Ni	0.50000 0.50000 0.50000 1.07500
C 	C 	0.98240 0.31560 0.46400 -0.04000
H 	H 	0.97680 0.31610 0.49550 0.02900
H 	H 	0.93540 0.38710 0.43190 0.05400
N 	N 	0.96880 0.15200 0.43950 -0.19100
N 	N 	0.86860 0.93320 0.44430 -0.23300
H 	H 	0.86710 0.84510 0.42160 0.11200
N 	N 	0.12200 0.22770 0.48060 -0.09300
C 	C 	0.04020 0.15000 0.42900 -0.07200
H 	H 	0.05520 0.04250 0.42610 0.03600
H 	H 	0.01570 0.20580 0.39200 0.05000
C 	C 	0.08350 0.36500 0.49000 -0.11500
H 	H 	0.08120 0.45650 0.46870 0.07000
H 	H 	0.12220 0.38990 0.53280 0.06800
C 	C 	0.87000 0.11800 0.38190 -0.10700
H 	H 	0.87200 0.03910 0.35820 0.05800
H 	H 	0.84140 0.21320 0.35780 0.06500
C 	C 	0.81290 0.05800 0.39980 -0.10600
H 	H 	0.80130 0.14270 0.41720 0.04500
H 	H 	0.75210 0.01710 0.36460 0.05200
C 	C 	0.18080 0.12600 0.53310 -0.03500
H 	H 	0.23720 0.18370 0.56540 0.04100
H 	H 	0.20110 0.03660 0.52270 0.02900
C 	C 	0.01760 0.68440 0.53600 -0.12900
H 	H 	0.02320 0.68390 0.50450 0.04500
H 	H 	0.06460 0.61290 0.56810 0.07200
N 	N 	0.03120 0.84800 0.56050 -0.19500
N 	N 	0.13140 0.06680 0.55570 -0.28300
H 	H 	0.13290 0.15490 0.57840 0.09600
N 	N 	0.87800 0.77230 0.51940 -0.10100
C 	C 	0.95980 0.85000 0.57100 -0.03800
H 	H 	0.94480 0.95750 0.57390 0.05600
H 	H 	0.98430 0.79420 0.60800 0.06400
C 	C 	0.91650 0.63500 0.51000 -0.03300
H 	H 	0.91880 0.54350 0.53130 0.05600
H 	H 	0.87780 0.61010 0.46720 0.05000
C 	C 	0.13000 0.88200 0.61810 -0.14200
H 	H 	0.12800 0.96090 0.64180 0.08200
H 	H 	0.15860 0.78680 0.64220 0.07600
C 	C 	0.18710 0.94200 0.60020 -0.01900
H 	H 	0.19870 0.85730 0.58280 0.03500
H 	H 	0.24790 0.98290 0.63540 0.05400
C 	C 	0.81920 0.87400 0.46690 -0.03900
H 	H 	0.76280 0.81630 0.43460 0.05500
H 	H 	0.79890 0.96340 0.47730 0.05600
Ni	Ni	0.00000 0.00000 0.50000 1.04300
C 	C 	0.34090 0.62720 0.97980 -0.04500
H 	H 	0.29400 0.54590 0.95460 0.05300
H 	H 	0.30820 0.72310 0.97570 0.05600
C 	C 	0.43990 0.85970 0.92440 -0.12600
H 	H 	0.40320 0.95510 0.90440 0.09400
H 	H 	0.50390 0.87680 0.93880 0.08900
N 	N 	0.53600 0.55710 0.95260 -0.26500
H 	H 	0.58130 0.64430 0.97440 0.11800
N 	N 	0.39980 0.65510 0.96200 -0.20600
N 	N 	0.39480 0.72310 0.88120 -0.08800
C 	C 	0.33750 0.65310 0.89440 -0.05200
H 	H 	0.31980 0.54600 0.87900 0.04700
H 	H 	0.28030 0.71430 0.87630 0.06000
C 	C 	0.46260 0.61370 0.88910 -0.03800
H 	H 	0.49440 0.66440 0.87600 0.05300
H 	H 	0.42850 0.52320 0.86310 0.04400
C 	C 	0.59080 0.42520 0.95450 -0.01300
H 	H 	0.62540 0.45980 0.94110 0.04500
H 	H 	0.54890 0.33940 0.92870 0.02700
C 	C 	0.44200 0.81810 0.97690 0.00800
H 	H 	0.50660 0.81830 0.01500 -0.00900
H 	H 	0.40440 0.89220 0.97960 0.05200
C 	C 	0.65910 0.37280 0.02020 -0.17500
H 	H 	0.70600 0.45410 0.04540 0.07900
H 	H 	0.69180 0.27690 0.02430 0.07600
C 	C 	0.56010 0.14030 0.07560 -0.02400
H 	H 	0.59680 0.04490 0.09560 0.03200
H 	H 	0.49610 0.12320 0.06120 0.02400
N 	N 	0.46400 0.44290 0.04740 -0.25600
H 	H 	0.41870 0.35570 0.02560 0.08700
N 	N 	0.60020 0.34490 0.03800 -0.18700
N 	N 	0.60520 0.27690 0.11880 -0.10300
C 	C 	0.66250 0.34690 0.10560 -0.05400
H 	H 	0.68020 0.45400 0.12100 0.04700
H 	H 	0.71970 0.28570 0.12370 0.05800
C 	C 	0.53740 0.38630 0.11090 -0.04100
H 	H 	0.50560 0.33560 0.12400 0.04600
H 	H 	0.57150 0.47680 0.13690 0.04700
C 	C 	0.40920 0.57480 0.04550 -0.14100
H 	H 	0.37460 0.54020 0.05890 0.06800
H 	H 	0.45110 0.66060 0.07130 0.06100
C 	C 	0.55800 0.18190 0.02310 -0.17900
H 	H 	0.49340 0.18170 0.98500 0.08200
H 	H 	0.59560 0.10780 0.02040 0.07000
Ni	Ni	0.50000 0.50000 -0.00000 1.05900
C 	C 	0.01760 0.31560 0.03600 -0.08800
H 	H 	0.02320 0.31610 0.00450 0.01300
H 	H 	0.06460 0.38710 0.06810 0.05600
N 	N 	0.03120 0.15200 0.06050 -0.22100
N 	N 	0.13140 0.93320 0.05570 -0.23600
H 	H 	0.13290 0.84510 0.07840 0.10200
N 	N 	0.87800 0.22770 0.01940 -0.11300
C 	C 	0.95980 0.15000 0.07100 -0.02500
H 	H 	0.94480 0.04250 0.07390 0.02800
H 	H 	0.98430 0.20580 0.10800 0.05800
C 	C 	0.91650 0.36500 0.01000 -0.12100
H 	H 	0.91880 0.45650 0.03130 0.07500
H 	H 	0.87780 0.38990 0.96720 0.09700
C 	C 	0.13000 0.11800 0.11810 -0.10500
H 	H 	0.12800 0.03910 0.14180 0.04700
H 	H 	0.15860 0.21320 0.14220 0.06100
C 	C 	0.18710 0.05800 0.10020 -0.11200
H 	H 	0.19870 0.14270 0.08280 0.04100
H 	H 	0.24790 0.01710 0.13540 0.05200
C 	C 	0.81920 0.12600 0.96690 0.00400
H 	H 	0.76280 0.18370 0.93460 0.03600
H 	H 	0.79890 0.03660 0.97730 0.03200
C 	C 	0.98240 0.68440 0.96400 -0.09500
H 	H 	0.97680 0.68390 0.99550 0.06400
H 	H 	0.93540 0.61290 0.93190 0.07300
N 	N 	0.96880 0.84800 0.93950 -0.16700
N 	N 	0.86860 0.06680 0.94430 -0.27200
H 	H 	0.86710 0.15490 0.92160 0.10800
N 	N 	0.12200 0.77230 0.98060 -0.08200
C 	C 	0.04020 0.85000 0.92900 -0.07600
H 	H 	0.05520 0.95750 0.92610 0.06600
H 	H 	0.01570 0.79420 0.89200 0.05600
C 	C 	0.08350 0.63500 0.99000 -0.00900
H 	H 	0.08120 0.54350 0.96870 0.04600
H 	H 	0.12220 0.61010 0.03280 0.01400
C 	C 	0.87000 0.88200 0.88190 -0.13900
H 	H 	0.87200 0.96090 0.85820 0.08800
H 	H 	0.84140 0.78680 0.85780 0.07800
C 	C 	0.81290 0.94200 0.89980 -0.02200
H 	H 	0.80130 0.85730 0.91720 0.04000
H 	H 	0.75210 0.98290 0.86460 0.05400
C 	C 	0.18080 0.87400 0.03310 -0.07800
H 	H 	0.23720 0.81630 0.06540 0.06100
H 	H 	0.20110 0.96340 0.02270 0.05600
Ni	Ni	-0.00000 0.00000 -0.00000 1.02800
