data_crystal

_cell_length_a 14.75560
_cell_length_b 22.50210
_cell_length_c 10.52080
_cell_angle_alpha 90.00000
_cell_angle_beta  90.00000
_cell_angle_gamma 90.00000

_symmetry_space_group_name_	'P 1'
_symmetry_space_group_name_H-M	'P 1'

loop_
_symmetry_equiv_pos_as_xyz
  x,y,z

loop_
_atom_site_label
_atom_site_type_symbol
_atom_site_fract_x
_atom_site_fract_y
_atom_site_fract_z
_atom_site_charge
Cl	Cl	0.89049 0.32950 0.19520 -0.56500
N 	N 	0.72240 0.22580 0.11020 -0.24500
C 	C 	0.59590 0.19140 0.93110 -0.03100
H 	H 	0.55350 0.18020 0.87020 0.05800
C 	C 	0.70590 0.16870 0.08770 0.00900
H 	H 	0.73800 0.14060 0.13420 0.02000
C 	C 	0.61230 0.96000 0.94440 0.04600
C 	C 	0.63140 0.08330 0.98060 0.02900
C 	C 	0.64320 0.14860 0.99850 -0.01600
C 	C 	0.61520 0.99950 0.84070 -0.05800
H 	H 	0.61180 0.98410 0.75880 0.06800
C 	C 	0.67570 0.26730 0.04310 0.04000
H 	H 	0.68720 0.30740 0.05710 0.00400
C 	C 	0.61810 0.98340 0.06460 -0.07000
H 	H 	0.61560 0.95860 0.13530 0.07500
C 	C 	0.62810 0.04680 0.08030 -0.04800
H 	H 	0.63230 0.06250 0.16190 0.05600
C 	C 	0.62300 0.06080 0.85660 -0.05000
H 	H 	0.62260 0.08620 0.78680 0.06100
C 	C 	0.61220 0.25100 0.95520 -0.08800
H 	H 	0.57980 0.27990 0.91140 0.07500
N 	N 	0.60210 0.87200 0.81940 -0.11800
C 	C 	0.60510 0.89780 0.92710 -0.00900
H 	H 	0.60250 0.87410 0.99940 0.04200
C 	C 	0.68320 0.78520 0.75170 -0.15100
H 	H 	0.73660 0.79940 0.79610 0.08300
H 	H 	0.68450 0.80070 0.66570 0.08600
C 	C 	0.51680 0.78460 0.75200 -0.15000
H 	H 	0.51530 0.80010 0.66600 0.08600
H 	H 	0.46320 0.79850 0.79620 0.07900
C 	C 	0.59950 0.80640 0.81840 0.08800
H 	H 	0.59960 0.79170 0.90610 0.00700
Cl	Cl	0.89049 0.17050 0.30480 -0.56600
N 	N 	0.72240 0.27420 0.38980 -0.24600
C 	C 	0.59590 0.30860 0.56890 -0.03200
H 	H 	0.55350 0.31980 0.62980 0.05700
C 	C 	0.70590 0.33130 0.41230 0.00800
H 	H 	0.73800 0.35940 0.36580 0.01900
C 	C 	0.61230 0.54000 0.55560 0.04400
C 	C 	0.63140 0.41670 0.51940 0.02900
C 	C 	0.64320 0.35140 0.50150 -0.01700
C 	C 	0.61520 0.50050 0.65930 -0.05800
H 	H 	0.61180 0.51590 0.74120 0.06700
C 	C 	0.67570 0.23270 0.45690 0.03800
H 	H 	0.68720 0.19260 0.44290 0.00300
C 	C 	0.61810 0.51660 0.43540 -0.07000
H 	H 	0.61560 0.54140 0.36470 0.07400
C 	C 	0.62810 0.45320 0.41970 -0.05000
H 	H 	0.63230 0.43750 0.33810 0.05500
C 	C 	0.62300 0.43920 0.64340 -0.05200
H 	H 	0.62260 0.41380 0.71320 0.06000
C 	C 	0.61220 0.24900 0.54480 -0.08900
H 	H 	0.57980 0.22010 0.58860 0.07500
N 	N 	0.60210 0.62800 0.68060 -0.11800
C 	C 	0.60510 0.60220 0.57290 -0.00900
H 	H 	0.60250 0.62590 0.50060 0.04200
C 	C 	0.68320 0.71480 0.74830 -0.15100
H 	H 	0.73660 0.70060 0.70390 0.08300
H 	H 	0.68450 0.69930 0.83430 0.08600
C 	C 	0.51680 0.71540 0.74800 -0.15000
H 	H 	0.51530 0.69990 0.83400 0.08600
H 	H 	0.46320 0.70150 0.70380 0.07900
C 	C 	0.59950 0.69360 0.68160 0.08800
H 	H 	0.59960 0.70830 0.59390 0.00700
Zn	Zn	0.81394 0.25000 0.25000 1.20900
Cl	Cl	0.60951 0.67050 0.19520 -0.56600
N 	N 	0.77760 0.77420 0.11020 -0.24600
C 	C 	0.90410 0.80860 0.93110 -0.03100
H 	H 	0.94650 0.81980 0.87020 0.05600
C 	C 	0.79410 0.83130 0.08770 0.00900
H 	H 	0.76200 0.85940 0.13420 0.01900
C 	C 	0.88770 0.04000 0.94440 0.04200
C 	C 	0.86860 0.91670 0.98060 0.03100
C 	C 	0.85680 0.85140 0.99850 -0.01800
C 	C 	0.88480 0.00050 0.84070 -0.05500
H 	H 	0.88820 0.01590 0.75880 0.06600
C 	C 	0.82430 0.73270 0.04310 0.03900
H 	H 	0.81280 0.69260 0.05710 0.00300
C 	C 	0.88190 0.01660 0.06460 -0.06700
H 	H 	0.88440 0.04140 0.13530 0.07300
C 	C 	0.87190 0.95320 0.08030 -0.05200
H 	H 	0.86770 0.93750 0.16190 0.05600
C 	C 	0.87700 0.93920 0.85660 -0.05400
H 	H 	0.87740 0.91380 0.78680 0.06100
C 	C 	0.88780 0.74900 0.95520 -0.09000
H 	H 	0.92020 0.72010 0.91140 0.07500
N 	N 	0.89790 0.12800 0.81940 -0.11800
C 	C 	0.89490 0.10220 0.92710 -0.00800
H 	H 	0.89750 0.12590 0.99940 0.04200
C 	C 	0.81680 0.21480 0.75170 -0.15100
H 	H 	0.76340 0.20060 0.79610 0.08300
H 	H 	0.81550 0.19930 0.66570 0.08600
C 	C 	0.98320 0.21540 0.75200 -0.14900
H 	H 	0.98470 0.19990 0.66600 0.08600
H 	H 	0.03680 0.20150 0.79620 0.07900
C 	C 	0.90050 0.19360 0.81840 0.08800
H 	H 	0.90040 0.20830 0.90610 0.00700
Cl	Cl	0.60951 0.82950 0.30480 -0.56600
N 	N 	0.77760 0.72580 0.38980 -0.24600
C 	C 	0.90410 0.69140 0.56890 -0.03200
H 	H 	0.94650 0.68020 0.62980 0.05600
C 	C 	0.79410 0.66870 0.41230 0.00800
H 	H 	0.76200 0.64060 0.36580 0.01900
C 	C 	0.88770 0.46000 0.55560 0.04400
C 	C 	0.86860 0.58330 0.51940 0.02900
C 	C 	0.85680 0.64860 0.50150 -0.01700
C 	C 	0.88480 0.49950 0.65930 -0.05800
H 	H 	0.88820 0.48410 0.74120 0.06700
C 	C 	0.82430 0.76730 0.45690 0.03800
H 	H 	0.81280 0.80740 0.44290 0.00300
C 	C 	0.88190 0.48340 0.43540 -0.07000
H 	H 	0.88440 0.45860 0.36470 0.07400
C 	C 	0.87190 0.54680 0.41970 -0.05000
H 	H 	0.86770 0.56250 0.33810 0.05500
C 	C 	0.87700 0.56080 0.64340 -0.05200
H 	H 	0.87740 0.58620 0.71320 0.06000
C 	C 	0.88780 0.75100 0.54480 -0.08900
H 	H 	0.92020 0.77990 0.58860 0.07500
N 	N 	0.89790 0.37200 0.68060 -0.11800
C 	C 	0.89490 0.39780 0.57290 -0.00900
H 	H 	0.89750 0.37410 0.50060 0.04200
C 	C 	0.81680 0.28520 0.74830 -0.15100
H 	H 	0.76340 0.29940 0.70390 0.08300
H 	H 	0.81550 0.30070 0.83430 0.08600
C 	C 	0.98320 0.28460 0.74800 -0.15000
H 	H 	0.98470 0.30010 0.83400 0.08600
H 	H 	0.03680 0.29850 0.70380 0.07900
C 	C 	0.90050 0.30640 0.68160 0.08800
H 	H 	0.90040 0.29170 0.59390 0.00700
Zn	Zn	0.68606 0.75000 0.25000 1.20900
Cl	Cl	0.10951 0.67050 0.80480 -0.56600
N 	N 	0.27760 0.77420 0.88980 -0.24600
C 	C 	0.40410 0.80860 0.06890 -0.03200
H 	H 	0.44650 0.81980 0.12980 0.05700
C 	C 	0.29410 0.83130 0.91230 0.00800
H 	H 	0.26200 0.85940 0.86580 0.01900
C 	C 	0.38770 0.04000 0.05560 0.04500
C 	C 	0.36860 0.91670 0.01940 0.02800
C 	C 	0.35680 0.85140 0.00150 -0.01700
C 	C 	0.38480 0.00050 0.15930 -0.05900
H 	H 	0.38820 0.01590 0.24120 0.06700
C 	C 	0.32430 0.73270 0.95690 0.03900
H 	H 	0.31280 0.69260 0.94290 0.00300
C 	C 	0.38190 0.01660 0.93540 -0.07100
H 	H 	0.38440 0.04140 0.86470 0.07400
C 	C 	0.37190 0.95320 0.91970 -0.04900
H 	H 	0.36770 0.93750 0.83810 0.05500
C 	C 	0.37700 0.93920 0.14340 -0.05100
H 	H 	0.37740 0.91380 0.21320 0.06000
C 	C 	0.38780 0.74900 0.04480 -0.08900
H 	H 	0.42020 0.72010 0.08860 0.07500
N 	N 	0.39790 0.12800 0.18060 -0.11800
C 	C 	0.39490 0.10220 0.07290 -0.00900
H 	H 	0.39750 0.12590 0.00060 0.04200
C 	C 	0.31680 0.21480 0.24830 -0.15100
H 	H 	0.26340 0.20060 0.20390 0.08300
H 	H 	0.31550 0.19930 0.33430 0.08600
C 	C 	0.48320 0.21540 0.24800 -0.15000
H 	H 	0.48470 0.19990 0.33400 0.08600
H 	H 	0.53680 0.20150 0.20380 0.07900
C 	C 	0.40050 0.19360 0.18160 0.08800
H 	H 	0.40040 0.20830 0.09390 0.00700
Cl	Cl	0.10951 0.82950 0.69520 -0.56600
N 	N 	0.27760 0.72580 0.61020 -0.24600
C 	C 	0.40410 0.69140 0.43110 -0.03200
H 	H 	0.44650 0.68020 0.37020 0.05700
C 	C 	0.29410 0.66870 0.58770 0.00800
H 	H 	0.26200 0.64060 0.63420 0.01900
C 	C 	0.38770 0.46000 0.44440 0.04400
C 	C 	0.36860 0.58330 0.48060 0.02900
C 	C 	0.35680 0.64860 0.49850 -0.01700
C 	C 	0.38480 0.49950 0.34070 -0.05800
H 	H 	0.38820 0.48410 0.25880 0.06700
C 	C 	0.32430 0.76730 0.54310 0.03800
H 	H 	0.31280 0.80740 0.55710 0.00300
C 	C 	0.38190 0.48340 0.56460 -0.07000
H 	H 	0.38440 0.45860 0.63530 0.07400
C 	C 	0.37190 0.54680 0.58030 -0.05000
H 	H 	0.36770 0.56250 0.66190 0.05500
C 	C 	0.37700 0.56080 0.35660 -0.05200
H 	H 	0.37740 0.58620 0.28680 0.06000
C 	C 	0.38780 0.75100 0.45520 -0.08900
H 	H 	0.42020 0.77990 0.41140 0.07500
N 	N 	0.39790 0.37200 0.31940 -0.11800
C 	C 	0.39490 0.39780 0.42710 -0.00900
H 	H 	0.39750 0.37410 0.49940 0.04200
C 	C 	0.31680 0.28520 0.25170 -0.15100
H 	H 	0.26340 0.29940 0.29610 0.08300
H 	H 	0.31550 0.30070 0.16570 0.08600
C 	C 	0.48320 0.28460 0.25200 -0.15000
H 	H 	0.48470 0.30010 0.16600 0.08600
H 	H 	0.53680 0.29850 0.29620 0.07900
C 	C 	0.40050 0.30640 0.31840 0.08800
H 	H 	0.40040 0.29170 0.40610 0.00700
Zn	Zn	0.18606 0.75000 0.75000 1.20900
Cl	Cl	0.39049 0.32950 0.80480 -0.56600
N 	N 	0.22240 0.22580 0.88980 -0.24600
C 	C 	0.09590 0.19140 0.06890 -0.03100
H 	H 	0.05350 0.18020 0.12980 0.05600
C 	C 	0.20590 0.16870 0.91230 0.00900
H 	H 	0.23800 0.14060 0.86580 0.01900
C 	C 	0.11230 0.96000 0.05560 0.04200
C 	C 	0.13140 0.08330 0.01940 0.03100
C 	C 	0.14320 0.14860 0.00150 -0.01800
C 	C 	0.11520 0.99950 0.15930 -0.05500
H 	H 	0.11180 0.98410 0.24120 0.06600
C 	C 	0.17570 0.26730 0.95690 0.03900
H 	H 	0.18720 0.30740 0.94290 0.00300
C 	C 	0.11810 0.98340 0.93540 -0.06700
H 	H 	0.11560 0.95860 0.86470 0.07300
C 	C 	0.12810 0.04680 0.91970 -0.05200
H 	H 	0.13230 0.06250 0.83810 0.05600
C 	C 	0.12300 0.06080 0.14340 -0.05400
H 	H 	0.12260 0.08620 0.21320 0.06100
C 	C 	0.11220 0.25100 0.04480 -0.09000
H 	H 	0.07980 0.27990 0.08860 0.07500
N 	N 	0.10210 0.87200 0.18060 -0.11800
C 	C 	0.10510 0.89780 0.07290 -0.00800
H 	H 	0.10250 0.87410 0.00060 0.04200
C 	C 	0.18320 0.78520 0.24830 -0.15100
H 	H 	0.23660 0.79940 0.20390 0.08300
H 	H 	0.18450 0.80070 0.33430 0.08600
C 	C 	0.01680 0.78460 0.24800 -0.14900
H 	H 	0.01530 0.80010 0.33400 0.08600
H 	H 	0.96320 0.79850 0.20380 0.07900
C 	C 	0.09950 0.80640 0.18160 0.08800
H 	H 	0.09960 0.79170 0.09390 0.00700
Cl	Cl	0.39049 0.17050 0.69520 -0.56600
N 	N 	0.22240 0.27420 0.61020 -0.24600
C 	C 	0.09590 0.30860 0.43110 -0.03200
H 	H 	0.05350 0.31980 0.37020 0.05600
C 	C 	0.20590 0.33130 0.58770 0.00800
H 	H 	0.23800 0.35940 0.63420 0.01900
C 	C 	0.11230 0.54000 0.44440 0.04400
C 	C 	0.13140 0.41670 0.48060 0.02900
C 	C 	0.14320 0.35140 0.49850 -0.01700
C 	C 	0.11520 0.50050 0.34070 -0.05800
H 	H 	0.11180 0.51590 0.25880 0.06700
C 	C 	0.17570 0.23270 0.54310 0.03800
H 	H 	0.18720 0.19260 0.55710 0.00300
C 	C 	0.11810 0.51660 0.56460 -0.07000
H 	H 	0.11560 0.54140 0.63530 0.07400
C 	C 	0.12810 0.45320 0.58030 -0.05000
H 	H 	0.13230 0.43750 0.66190 0.05500
C 	C 	0.12300 0.43920 0.35660 -0.05200
H 	H 	0.12260 0.41380 0.28680 0.06000
C 	C 	0.11220 0.24900 0.45520 -0.08900
H 	H 	0.07980 0.22010 0.41140 0.07500
N 	N 	0.10210 0.62800 0.31940 -0.11800
C 	C 	0.10510 0.60220 0.42710 -0.00900
H 	H 	0.10250 0.62590 0.49940 0.04200
C 	C 	0.18320 0.71480 0.25170 -0.15100
H 	H 	0.23660 0.70060 0.29610 0.08300
H 	H 	0.18450 0.69930 0.16570 0.08600
C 	C 	0.01680 0.71540 0.25200 -0.15000
H 	H 	0.01530 0.69990 0.16600 0.08600
H 	H 	0.96320 0.70150 0.29620 0.07900
C 	C 	0.09950 0.69360 0.31840 0.08800
H 	H 	0.09960 0.70830 0.40610 0.00700
Zn	Zn	0.31394 0.25000 0.75000 1.20900
