data_crystal

_cell_length_a 21.21110
_cell_length_b 21.21110
_cell_length_c 21.21110
_cell_angle_alpha 90.00000
_cell_angle_beta  90.00000
_cell_angle_gamma 90.00000

_symmetry_space_group_name_	'P 1'
_symmetry_space_group_name_H-M	'P 1'

loop_
_symmetry_equiv_pos_as_xyz
  x,y,z

loop_
_atom_site_label
_atom_site_type_symbol
_atom_site_fract_x
_atom_site_fract_y
_atom_site_fract_z
_atom_site_charge
N 	N 	0.56670 0.69530 0.06450 -0.23500
C 	C 	0.58350 0.75620 0.08200 0.04700
H 	H 	0.56580 0.79130 0.06050 -0.01900
C 	C 	0.62600 0.76570 0.13100 -0.11500
H 	H 	0.63740 0.80730 0.14300 0.06700
C 	C 	0.65180 0.71430 0.16240 0.04600
C 	C 	0.63510 0.65340 0.14490 -0.11600
H 	H 	0.65270 0.61830 0.16640 0.06300
C 	C 	0.59250 0.64390 0.09590 0.04900
H 	H 	0.58110 0.60230 0.08400 -0.02100
C 	C 	0.69330 0.72500 0.21640 0.04100
C 	C 	0.74410 0.68160 0.22930 -0.10900
H 	H 	0.74880 0.64460 0.20450 0.06300
N 	N 	0.43330 0.30470 0.06450 -0.23500
C 	C 	0.41650 0.24380 0.08200 0.04500
H 	H 	0.43420 0.20870 0.06050 -0.02400
C 	C 	0.37400 0.23430 0.13100 -0.11700
H 	H 	0.36260 0.19270 0.14300 0.05700
C 	C 	0.34820 0.28570 0.16240 0.04300
C 	C 	0.36490 0.34660 0.14490 -0.11700
H 	H 	0.34730 0.38170 0.16640 0.06200
C 	C 	0.40750 0.35610 0.09590 0.04700
H 	H 	0.41890 0.39770 0.08400 -0.02100
C 	C 	0.30670 0.27500 0.21640 0.03600
C 	C 	0.25590 0.31840 0.22930 -0.10800
H 	H 	0.25120 0.35540 0.20450 0.06000
N 	N 	0.43330 0.69530 0.93550 -0.22000
C 	C 	0.41650 0.75620 0.91800 0.05300
H 	H 	0.43420 0.79130 0.93950 -0.00100
C 	C 	0.37400 0.76570 0.86900 -0.11100
H 	H 	0.36260 0.80730 0.85700 0.07100
C 	C 	0.34820 0.71430 0.83760 0.04800
C 	C 	0.36490 0.65340 0.85510 -0.11300
H 	H 	0.34730 0.61830 0.83360 0.06500
C 	C 	0.40750 0.64390 0.90410 0.05400
H 	H 	0.41890 0.60230 0.91600 -0.00900
C 	C 	0.30670 0.72500 0.78360 0.04300
C 	C 	0.25590 0.68160 0.77070 -0.10800
H 	H 	0.25120 0.64460 0.79550 0.06500
N 	N 	0.56670 0.30470 0.93550 -0.22000
C 	C 	0.58350 0.24380 0.91800 0.05200
H 	H 	0.56580 0.20870 0.93950 -0.00600
C 	C 	0.62600 0.23430 0.86900 -0.11100
H 	H 	0.63740 0.19270 0.85700 0.06600
C 	C 	0.65180 0.28570 0.83760 0.04700
C 	C 	0.63510 0.34660 0.85510 -0.11200
H 	H 	0.65270 0.38170 0.83360 0.06600
C 	C 	0.59250 0.35610 0.90410 0.05500
H 	H 	0.58110 0.39770 0.91600 -0.00800
C 	C 	0.69330 0.27500 0.78360 0.04300
C 	C 	0.74410 0.31840 0.77070 -0.10800
H 	H 	0.74880 0.35540 0.79550 0.06600
N 	N 	0.06450 0.56670 0.69530 -0.23400
C 	C 	0.08200 0.58350 0.75620 0.04800
H 	H 	0.06050 0.56580 0.79130 -0.01800
C 	C 	0.13100 0.62600 0.76570 -0.11500
H 	H 	0.14300 0.63740 0.80730 0.06700
C 	C 	0.16240 0.65180 0.71430 0.04600
C 	C 	0.14490 0.63510 0.65340 -0.11600
H 	H 	0.16640 0.65270 0.61830 0.06300
C 	C 	0.09590 0.59250 0.64390 0.04900
H 	H 	0.08400 0.58110 0.60230 -0.02100
C 	C 	0.21640 0.69330 0.72500 0.04100
C 	C 	0.22930 0.74410 0.68160 -0.10900
H 	H 	0.20450 0.74880 0.64460 0.06300
N 	N 	0.06450 0.43330 0.30470 -0.23500
C 	C 	0.08200 0.41650 0.24380 0.04500
H 	H 	0.06050 0.43420 0.20870 -0.02400
C 	C 	0.13100 0.37400 0.23430 -0.11700
H 	H 	0.14300 0.36260 0.19270 0.05700
C 	C 	0.16240 0.34820 0.28570 0.04300
C 	C 	0.14490 0.36490 0.34660 -0.11700
H 	H 	0.16640 0.34730 0.38170 0.06200
C 	C 	0.09590 0.40750 0.35610 0.04700
H 	H 	0.08400 0.41890 0.39770 -0.02100
C 	C 	0.21640 0.30670 0.27500 0.03600
C 	C 	0.22930 0.25590 0.31840 -0.10800
H 	H 	0.20450 0.25120 0.35540 0.06000
N 	N 	0.93550 0.43330 0.69530 -0.22000
C 	C 	0.91800 0.41650 0.75620 0.05300
H 	H 	0.93950 0.43420 0.79130 -0.00100
C 	C 	0.86900 0.37400 0.76570 -0.11100
H 	H 	0.85700 0.36260 0.80730 0.07100
C 	C 	0.83760 0.34820 0.71430 0.04800
C 	C 	0.85510 0.36490 0.65340 -0.11300
H 	H 	0.83360 0.34730 0.61830 0.06500
C 	C 	0.90410 0.40750 0.64390 0.05400
H 	H 	0.91600 0.41890 0.60230 -0.00900
C 	C 	0.78360 0.30670 0.72500 0.04300
C 	C 	0.77070 0.25590 0.68160 -0.10800
H 	H 	0.79550 0.25120 0.64460 0.06500
N 	N 	0.93550 0.56670 0.30470 -0.22000
C 	C 	0.91800 0.58350 0.24380 0.05200
H 	H 	0.93950 0.56580 0.20870 -0.00600
C 	C 	0.86900 0.62600 0.23430 -0.11100
H 	H 	0.85700 0.63740 0.19270 0.06600
C 	C 	0.83760 0.65180 0.28570 0.04700
C 	C 	0.85510 0.63510 0.34660 -0.11200
H 	H 	0.83360 0.65270 0.38170 0.06600
C 	C 	0.90410 0.59250 0.35610 0.05500
H 	H 	0.91600 0.58110 0.39770 -0.00800
C 	C 	0.78360 0.69330 0.27500 0.04300
C 	C 	0.77070 0.74410 0.31840 -0.10800
H 	H 	0.79550 0.74880 0.35540 0.06600
N 	N 	0.69530 0.06450 0.56670 -0.23400
C 	C 	0.75620 0.08200 0.58350 0.04800
H 	H 	0.79130 0.06050 0.56580 -0.01800
C 	C 	0.76570 0.13100 0.62600 -0.11500
H 	H 	0.80730 0.14300 0.63740 0.06700
C 	C 	0.71430 0.16240 0.65180 0.04600
C 	C 	0.65340 0.14490 0.63510 -0.11600
H 	H 	0.61830 0.16640 0.65270 0.06300
C 	C 	0.64390 0.09590 0.59250 0.04900
H 	H 	0.60230 0.08400 0.58110 -0.02100
C 	C 	0.72500 0.21640 0.69330 0.04100
C 	C 	0.68160 0.22930 0.74410 -0.10900
H 	H 	0.64460 0.20450 0.74880 0.06300
N 	N 	0.30470 0.06450 0.43330 -0.23500
C 	C 	0.24380 0.08200 0.41650 0.04500
H 	H 	0.20870 0.06050 0.43420 -0.02400
C 	C 	0.23430 0.13100 0.37400 -0.11700
H 	H 	0.19270 0.14300 0.36260 0.05700
C 	C 	0.28570 0.16240 0.34820 0.04300
C 	C 	0.34660 0.14490 0.36490 -0.11700
H 	H 	0.38170 0.16640 0.34730 0.06200
C 	C 	0.35610 0.09590 0.40750 0.04700
H 	H 	0.39770 0.08400 0.41890 -0.02100
C 	C 	0.27500 0.21640 0.30670 0.03600
C 	C 	0.31840 0.22930 0.25590 -0.10800
H 	H 	0.35540 0.20450 0.25120 0.06000
N 	N 	0.69530 0.93550 0.43330 -0.22000
C 	C 	0.75620 0.91800 0.41650 0.05300
H 	H 	0.79130 0.93950 0.43420 -0.00100
C 	C 	0.76570 0.86900 0.37400 -0.11100
H 	H 	0.80730 0.85700 0.36260 0.07100
C 	C 	0.71430 0.83760 0.34820 0.04800
C 	C 	0.65340 0.85510 0.36490 -0.11300
H 	H 	0.61830 0.83360 0.34730 0.06500
C 	C 	0.64390 0.90410 0.40750 0.05400
H 	H 	0.60230 0.91600 0.41890 -0.00900
C 	C 	0.72500 0.78360 0.30670 0.04300
C 	C 	0.68160 0.77070 0.25590 -0.10800
H 	H 	0.64460 0.79550 0.25120 0.06500
N 	N 	0.30470 0.93550 0.56670 -0.22000
C 	C 	0.24380 0.91800 0.58350 0.05200
H 	H 	0.20870 0.93950 0.56580 -0.00600
C 	C 	0.23430 0.86900 0.62600 -0.11100
H 	H 	0.19270 0.85700 0.63740 0.06600
C 	C 	0.28570 0.83760 0.65180 0.04700
C 	C 	0.34660 0.85510 0.63510 -0.11200
H 	H 	0.38170 0.83360 0.65270 0.06600
C 	C 	0.35610 0.90410 0.59250 0.05500
H 	H 	0.39770 0.91600 0.58110 -0.00800
C 	C 	0.27500 0.78360 0.69330 0.04300
C 	C 	0.31840 0.77070 0.74410 -0.10800
H 	H 	0.35540 0.79550 0.74880 0.06600
N 	N 	0.43330 0.30470 0.93550 -0.22000
C 	C 	0.41650 0.24380 0.91800 0.05100
H 	H 	0.43420 0.20870 0.93950 -0.00700
C 	C 	0.37400 0.23430 0.86900 -0.11200
H 	H 	0.36260 0.19270 0.85700 0.06400
C 	C 	0.34820 0.28570 0.83760 0.04600
C 	C 	0.36490 0.34660 0.85510 -0.11300
H 	H 	0.34730 0.38170 0.83360 0.06500
C 	C 	0.40750 0.35610 0.90410 0.05400
H 	H 	0.41890 0.39770 0.91600 -0.00900
C 	C 	0.30670 0.27500 0.78360 0.04000
C 	C 	0.25590 0.31840 0.77070 -0.10800
H 	H 	0.25120 0.35540 0.79550 0.06400
N 	N 	0.56670 0.69530 0.93550 -0.21900
C 	C 	0.58350 0.75620 0.91800 0.05400
H 	H 	0.56580 0.79130 0.93950 -0.00100
C 	C 	0.62600 0.76570 0.86900 -0.11000
H 	H 	0.63740 0.80730 0.85700 0.07300
C 	C 	0.65180 0.71430 0.83760 0.04900
C 	C 	0.63510 0.65340 0.85510 -0.11200
H 	H 	0.65270 0.61830 0.83360 0.06600
C 	C 	0.59250 0.64390 0.90410 0.05500
H 	H 	0.58110 0.60230 0.91600 -0.00900
C 	C 	0.69330 0.72500 0.78360 0.04500
C 	C 	0.74410 0.68160 0.77070 -0.10900
H 	H 	0.74880 0.64460 0.79550 0.06700
N 	N 	0.56670 0.30470 0.06450 -0.23500
C 	C 	0.58350 0.24380 0.08200 0.04600
H 	H 	0.56580 0.20870 0.06050 -0.02300
C 	C 	0.62600 0.23430 0.13100 -0.11600
H 	H 	0.63740 0.19270 0.14300 0.05900
C 	C 	0.65180 0.28570 0.16240 0.04400
C 	C 	0.63510 0.34660 0.14490 -0.11700
H 	H 	0.65270 0.38170 0.16640 0.06300
C 	C 	0.59250 0.35610 0.09590 0.04800
H 	H 	0.58110 0.39770 0.08400 -0.02100
C 	C 	0.69330 0.27500 0.21640 0.03900
C 	C 	0.74410 0.31840 0.22930 -0.10800
H 	H 	0.74880 0.35540 0.20450 0.06200
N 	N 	0.43330 0.69530 0.06450 -0.23400
C 	C 	0.41650 0.75620 0.08200 0.04700
H 	H 	0.43420 0.79130 0.06050 -0.01800
C 	C 	0.37400 0.76570 0.13100 -0.11600
H 	H 	0.36260 0.80730 0.14300 0.06500
C 	C 	0.34820 0.71430 0.16240 0.04500
C 	C 	0.36490 0.65340 0.14490 -0.11700
H 	H 	0.34730 0.61830 0.16640 0.06200
C 	C 	0.40750 0.64390 0.09590 0.04800
H 	H 	0.41890 0.60230 0.08400 -0.02100
C 	C 	0.30670 0.72500 0.21640 0.03900
C 	C 	0.25590 0.68160 0.22930 -0.10800
H 	H 	0.25120 0.64460 0.20450 0.06100
N 	N 	0.93550 0.43330 0.30470 -0.22000
C 	C 	0.91800 0.41650 0.24380 0.05100
H 	H 	0.93950 0.43420 0.20870 -0.00700
C 	C 	0.86900 0.37400 0.23430 -0.11200
H 	H 	0.85700 0.36260 0.19270 0.06400
C 	C 	0.83760 0.34820 0.28570 0.04600
C 	C 	0.85510 0.36490 0.34660 -0.11300
H 	H 	0.83360 0.34730 0.38170 0.06500
C 	C 	0.90410 0.40750 0.35610 0.05400
H 	H 	0.91600 0.41890 0.39770 -0.00900
C 	C 	0.78360 0.30670 0.27500 0.04000
C 	C 	0.77070 0.25590 0.31840 -0.10800
H 	H 	0.79550 0.25120 0.35540 0.06400
N 	N 	0.93550 0.56670 0.69530 -0.21900
C 	C 	0.91800 0.58350 0.75620 0.05400
H 	H 	0.93950 0.56580 0.79130 -0.00100
C 	C 	0.86900 0.62600 0.76570 -0.11000
H 	H 	0.85700 0.63740 0.80730 0.07300
C 	C 	0.83760 0.65180 0.71430 0.04900
C 	C 	0.85510 0.63510 0.65340 -0.11200
H 	H 	0.83360 0.65270 0.61830 0.06600
C 	C 	0.90410 0.59250 0.64390 0.05500
H 	H 	0.91600 0.58110 0.60230 -0.00900
C 	C 	0.78360 0.69330 0.72500 0.04500
C 	C 	0.77070 0.74410 0.68160 -0.10900
H 	H 	0.79550 0.74880 0.64460 0.06700
N 	N 	0.06450 0.56670 0.30470 -0.23500
C 	C 	0.08200 0.58350 0.24380 0.04600
H 	H 	0.06050 0.56580 0.20870 -0.02300
C 	C 	0.13100 0.62600 0.23430 -0.11600
H 	H 	0.14300 0.63740 0.19270 0.05900
C 	C 	0.16240 0.65180 0.28570 0.04400
C 	C 	0.14490 0.63510 0.34660 -0.11700
H 	H 	0.16640 0.65270 0.38170 0.06300
C 	C 	0.09590 0.59250 0.35610 0.04800
H 	H 	0.08400 0.58110 0.39770 -0.02100
C 	C 	0.21640 0.69330 0.27500 0.03900
C 	C 	0.22930 0.74410 0.31840 -0.10800
H 	H 	0.20450 0.74880 0.35540 0.06200
N 	N 	0.06450 0.43330 0.69530 -0.23400
C 	C 	0.08200 0.41650 0.75620 0.04700
H 	H 	0.06050 0.43420 0.79130 -0.01800
C 	C 	0.13100 0.37400 0.76570 -0.11600
H 	H 	0.14300 0.36260 0.80730 0.06500
C 	C 	0.16240 0.34820 0.71430 0.04500
C 	C 	0.14490 0.36490 0.65340 -0.11700
H 	H 	0.16640 0.34730 0.61830 0.06200
C 	C 	0.09590 0.40750 0.64390 0.04800
H 	H 	0.08400 0.41890 0.60230 -0.02100
C 	C 	0.21640 0.30670 0.72500 0.03900
C 	C 	0.22930 0.25590 0.68160 -0.10800
H 	H 	0.20450 0.25120 0.64460 0.06100
N 	N 	0.30470 0.93550 0.43330 -0.22000
C 	C 	0.24380 0.91800 0.41650 0.05100
H 	H 	0.20870 0.93950 0.43420 -0.00700
C 	C 	0.23430 0.86900 0.37400 -0.11200
H 	H 	0.19270 0.85700 0.36260 0.06400
C 	C 	0.28570 0.83760 0.34820 0.04600
C 	C 	0.34660 0.85510 0.36490 -0.11300
H 	H 	0.38170 0.83360 0.34730 0.06500
C 	C 	0.35610 0.90410 0.40750 0.05400
H 	H 	0.39770 0.91600 0.41890 -0.00900
C 	C 	0.27500 0.78360 0.30670 0.04000
C 	C 	0.31840 0.77070 0.25590 -0.10800
H 	H 	0.35540 0.79550 0.25120 0.06400
N 	N 	0.69530 0.93550 0.56670 -0.21900
C 	C 	0.75620 0.91800 0.58350 0.05400
H 	H 	0.79130 0.93950 0.56580 -0.00100
C 	C 	0.76570 0.86900 0.62600 -0.11000
H 	H 	0.80730 0.85700 0.63740 0.07300
C 	C 	0.71430 0.83760 0.65180 0.04900
C 	C 	0.65340 0.85510 0.63510 -0.11200
H 	H 	0.61830 0.83360 0.65270 0.06600
C 	C 	0.64390 0.90410 0.59250 0.05500
H 	H 	0.60230 0.91600 0.58110 -0.00900
C 	C 	0.72500 0.78360 0.69330 0.04500
C 	C 	0.68160 0.77070 0.74410 -0.10900
H 	H 	0.64460 0.79550 0.74880 0.06700
N 	N 	0.30470 0.06450 0.56670 -0.23500
C 	C 	0.24380 0.08200 0.58350 0.04600
H 	H 	0.20870 0.06050 0.56580 -0.02300
C 	C 	0.23430 0.13100 0.62600 -0.11600
H 	H 	0.19270 0.14300 0.63740 0.05900
C 	C 	0.28570 0.16240 0.65180 0.04400
C 	C 	0.34660 0.14490 0.63510 -0.11700
H 	H 	0.38170 0.16640 0.65270 0.06300
C 	C 	0.35610 0.09590 0.59250 0.04800
H 	H 	0.39770 0.08400 0.58110 -0.02100
C 	C 	0.27500 0.21640 0.69330 0.03900
C 	C 	0.31840 0.22930 0.74410 -0.10800
H 	H 	0.35540 0.20450 0.74880 0.06200
N 	N 	0.69530 0.06450 0.43330 -0.23400
C 	C 	0.75620 0.08200 0.41650 0.04700
H 	H 	0.79130 0.06050 0.43420 -0.01800
C 	C 	0.76570 0.13100 0.37400 -0.11600
H 	H 	0.80730 0.14300 0.36260 0.06500
C 	C 	0.71430 0.16240 0.34820 0.04500
C 	C 	0.65340 0.14490 0.36490 -0.11700
H 	H 	0.61830 0.16640 0.34730 0.06200
C 	C 	0.64390 0.09590 0.40750 0.04800
H 	H 	0.60230 0.08400 0.41890 -0.02100
C 	C 	0.72500 0.21640 0.30670 0.03900
C 	C 	0.68160 0.22930 0.25590 -0.10800
H 	H 	0.64460 0.20450 0.25120 0.06100
Cu	Cu	0.50000 0.68779 -0.00000 0.84200
Cu	Cu	0.50000 0.31221 -0.00000 0.84200
Cu	Cu	-0.00000 0.50000 0.68779 0.84200
Cu	Cu	-0.00000 0.50000 0.31221 0.84200
Cu	Cu	0.68779 0.00000 0.50000 0.84200
Cu	Cu	0.31221 0.00000 0.50000 0.84200
