data_crystal

_cell_length_a 9.21530
_cell_length_b 11.13280
_cell_length_c 15.26840
_cell_angle_alpha 70.27800
_cell_angle_beta  83.97300
_cell_angle_gamma 71.33600

_symmetry_space_group_name_	'P 1'
_symmetry_space_group_name_H-M	'P 1'

loop_
_symmetry_equiv_pos_as_xyz
  x,y,z

loop_
_atom_site_label
_atom_site_type_symbol
_atom_site_fract_x
_atom_site_fract_y
_atom_site_fract_z
_atom_site_charge
Zn	Zn	0.68806 0.74919 0.74625 1.18300
Zn	Zn	0.49009 0.47112 0.64980 1.22500
Zn	Zn	0.14487 0.81390 0.51218 1.23600
P 	P 	0.39824 0.76324 0.65559 0.43100
H 	H 	0.30950 0.82010 0.72580 -0.04300
P 	P 	0.24640 0.51760 0.50222 0.54300
H 	H 	0.14450 0.45150 0.50910 -0.02200
P 	P 	0.91956 0.91720 0.65906 0.48900
H 	H 	0.03560 0.89050 0.70480 -0.07100
O 	O 	0.55480 0.78780 0.64420 -0.46900
O 	O 	0.40720 0.61720 0.69980 -0.49200
O 	O 	0.31550 0.82990 0.56540 -0.46500
O 	O 	0.34020 0.44230 0.58940 -0.49900
O 	O 	0.32200 0.55510 0.40960 -0.33400
O 	O 	0.34080 0.46920 0.42760 -0.23000
O 	O 	0.12930 0.63690 0.52290 -0.25400
O 	O 	0.16940 0.66370 0.47000 -0.27900
O 	O 	0.96770 0.83860 0.59330 -0.49000
O 	O 	0.79460 0.87890 0.72310 -0.48400
O 	O 	0.88060 0.06790 0.61330 -0.45900
N 	N 	0.82990 0.55930 0.78130 -0.29200
N 	N 	0.44180 0.68760 0.23060 -0.25400
N 	N 	0.36280 0.15270 0.54300 -0.22300
H 	H 	0.36010 0.17280 0.48030 0.14400
N 	N 	0.16570 0.10360 0.96410 -0.12300
N 	N 	0.34540 0.98250 0.89010 -0.13300
C 	C 	0.95540 0.52590 0.73120 0.08700
H 	H 	0.97220 0.59020 0.67710 -0.01500
C 	C 	0.06110 0.39930 0.75690 -0.16000
H 	H 	0.14780 0.37980 0.72090 0.09100
C 	C 	0.80320 0.46390 0.85700 0.07700
H 	H 	0.71400 0.48590 0.89050 -0.04500
C 	C 	0.90180 0.33410 0.88790 -0.15300
H 	H 	0.87970 0.27040 0.94060 0.08900
C 	C 	0.03650 0.30210 0.83660 0.08300
C 	C 	0.31220 0.78880 0.22540 0.06900
H 	H 	0.25490 0.79010 0.27920 0.00800
C 	C 	0.26090 0.89000 0.14420 -0.12400
H 	H 	0.17100 0.95890 0.14350 0.08300
C 	C 	0.52630 0.68710 0.15270 0.05300
H 	H 	0.61750 0.61840 0.15610 -0.01100
C 	C 	0.48040 0.78740 0.06700 -0.11200
H 	H 	0.54060 0.78530 0.01440 0.05700
C 	C 	0.34460 0.88950 0.06150 0.04300
C 	C 	0.47630 0.10390 0.60490 0.14800
H 	H 	0.57780 0.08360 0.58550 -0.01800
C 	C 	0.44250 0.08420 0.69590 -0.22100
H 	H 	0.52130 0.05010 0.73930 0.09500
C 	C 	0.21760 0.18100 0.56780 0.13600
H 	H 	0.14200 0.21440 0.52250 -0.02200
C 	C 	0.17610 0.16230 0.65890 -0.19500
H 	H 	0.07350 0.18110 0.67630 0.11000
C 	C 	0.29250 0.11400 0.72530 0.11800
C 	C 	0.15090 0.16750 0.87230 0.02000
C 	C 	0.28660 0.99070 0.97380 0.07800
C 	C 	0.25880 0.09220 0.82580 -0.00200
Zn	Zn	0.31194 0.25081 0.25375 1.18200
Zn	Zn	0.50991 0.52888 0.35020 1.22400
Zn	Zn	0.85513 0.18610 0.48782 1.23500
P 	P 	0.60176 0.23676 0.34441 0.43000
H 	H 	0.69050 0.17990 0.27420 -0.04300
P 	P 	0.75360 0.48240 0.49778 0.54300
H 	H 	0.85550 0.54850 0.49090 -0.02200
P 	P 	0.08044 0.08280 0.34094 0.48900
H 	H 	0.96440 0.10950 0.29520 -0.07100
O 	O 	0.44520 0.21220 0.35580 -0.46900
O 	O 	0.59280 0.38280 0.30020 -0.49200
O 	O 	0.68450 0.17010 0.43460 -0.46500
O 	O 	0.65980 0.55770 0.41060 -0.49900
O 	O 	0.67800 0.44490 0.59040 -0.33400
O 	O 	0.65920 0.53080 0.57240 -0.23000
O 	O 	0.87070 0.36310 0.47710 -0.25400
O 	O 	0.83060 0.33630 0.53000 -0.27900
O 	O 	0.03230 0.16140 0.40670 -0.49000
O 	O 	0.20540 0.12110 0.27690 -0.48400
O 	O 	0.11940 0.93210 0.38670 -0.45900
N 	N 	0.17010 0.44070 0.21870 -0.29200
N 	N 	0.55820 0.31240 0.76940 -0.25400
N 	N 	0.63720 0.84730 0.45700 -0.22300
H 	H 	0.63990 0.82720 0.51970 0.14400
N 	N 	0.83430 0.89640 0.03590 -0.12300
N 	N 	0.65460 0.01750 0.10990 -0.13300
C 	C 	0.04460 0.47410 0.26880 0.08700
H 	H 	0.02780 0.40980 0.32290 -0.01500
C 	C 	0.93890 0.60070 0.24310 -0.16000
H 	H 	0.85220 0.62020 0.27910 0.09100
C 	C 	0.19680 0.53610 0.14300 0.07700
H 	H 	0.28600 0.51410 0.10950 -0.04500
C 	C 	0.09820 0.66590 0.11210 -0.15300
H 	H 	0.12030 0.72960 0.05940 0.08900
C 	C 	0.96350 0.69790 0.16340 0.08300
C 	C 	0.68780 0.21120 0.77460 0.06900
H 	H 	0.74510 0.20990 0.72080 0.00800
C 	C 	0.73910 0.11000 0.85580 -0.12400
H 	H 	0.82900 0.04110 0.85650 0.08300
C 	C 	0.47370 0.31290 0.84730 0.05300
H 	H 	0.38250 0.38160 0.84390 -0.01100
C 	C 	0.51960 0.21260 0.93300 -0.11200
H 	H 	0.45940 0.21470 0.98560 0.05700
C 	C 	0.65540 0.11050 0.93850 0.04300
C 	C 	0.52370 0.89610 0.39510 0.14800
H 	H 	0.42220 0.91640 0.41450 -0.01800
C 	C 	0.55750 0.91580 0.30410 -0.22100
H 	H 	0.47870 0.94990 0.26070 0.09500
C 	C 	0.78240 0.81900 0.43220 0.13600
H 	H 	0.85800 0.78560 0.47750 -0.02200
C 	C 	0.82390 0.83770 0.34110 -0.19500
H 	H 	0.92650 0.81890 0.32370 0.11000
C 	C 	0.70750 0.88600 0.27470 0.11800
C 	C 	0.84910 0.83250 0.12770 0.02000
C 	C 	0.71340 0.00930 0.02620 0.07800
C 	C 	0.74120 0.90780 0.17420 -0.00200
