data_crystal

_cell_length_a 16.78900
_cell_length_b 16.78900
_cell_length_c 15.14400
_cell_angle_alpha 90.00000
_cell_angle_beta  90.00000
_cell_angle_gamma 120.00000

_symmetry_space_group_name_	'P 1'
_symmetry_space_group_name_H-M	'P 1'

loop_
_symmetry_equiv_pos_as_xyz
  x,y,z

loop_
_atom_site_label
_atom_site_type_symbol
_atom_site_fract_x
_atom_site_fract_y
_atom_site_fract_z
_atom_site_charge
C 	C 	0.48867 0.70243 0.61360 0.47000
C 	C 	0.58886 0.73407 0.61970 -0.29500
C 	C 	0.64658 0.77540 0.54880 0.27000
H 	H 	0.62270 0.78320 0.49620 -0.04700
C 	C 	0.73880 0.80500 0.55490 -0.40800
H 	H 	0.77750 0.83320 0.50690 0.18400
C 	C 	0.77304 0.79261 0.63190 0.39800
C 	C 	0.71810 0.75170 0.70300 -0.38900
H 	H 	0.74260 0.74370 0.75510 0.17900
C 	C 	0.62520 0.72230 0.69670 0.25700
H 	H 	0.58710 0.69440 0.74500 -0.04300
C 	C 	0.93048 0.91056 0.63466 0.49200
C 	C 	0.90876 0.97975 0.63455 -0.53600
H 	H 	0.84790 0.96620 0.63440 0.23100
O 	O 	0.43896 0.66585 0.67762 -0.45800
O 	O 	0.46197 0.71535 0.53929 -0.50200
O 	O 	0.86607 0.81869 0.63943 -0.38100
C 	C 	0.29757 0.78624 0.61360 0.46900
C 	C 	0.26593 0.85479 0.61970 -0.29600
C 	C 	0.22460 0.87118 0.54880 0.26900
H 	H 	0.21680 0.83950 0.49620 -0.04800
C 	C 	0.19500 0.93380 0.55490 -0.40800
H 	H 	0.16680 0.94430 0.50690 0.18400
C 	C 	0.20739 0.98043 0.63190 0.39800
C 	C 	0.24830 0.96640 0.70300 -0.38900
H 	H 	0.25630 0.99890 0.75510 0.17900
C 	C 	0.27770 0.90290 0.69670 0.25700
H 	H 	0.30560 0.89270 0.74500 -0.04300
C 	C 	0.08944 0.01992 0.63466 0.49200
C 	C 	0.02025 0.92901 0.63455 -0.53700
H 	H 	0.03380 0.88170 0.63440 0.23100
O 	O 	0.33415 0.77311 0.67762 -0.45800
O 	O 	0.28465 0.74662 0.53929 -0.50300
O 	O 	0.18131 0.04738 0.63943 -0.38100
C 	C 	0.21376 0.51133 0.61360 0.46900
C 	C 	0.14521 0.41114 0.61970 -0.29600
C 	C 	0.12882 0.35342 0.54880 0.27000
H 	H 	0.16050 0.37730 0.49620 -0.04800
C 	C 	0.06620 0.26120 0.55490 -0.40800
H 	H 	0.05570 0.22250 0.50690 0.18400
C 	C 	0.01957 0.22696 0.63190 0.39800
C 	C 	0.03360 0.28190 0.70300 -0.38900
H 	H 	0.00110 0.25740 0.75510 0.17900
C 	C 	0.09710 0.37480 0.69670 0.25700
H 	H 	0.10730 0.41290 0.74500 -0.04300
C 	C 	0.98008 0.06952 0.63466 0.49200
C 	C 	0.07099 0.09124 0.63455 -0.53600
H 	H 	0.11830 0.15210 0.63440 0.23100
O 	O 	0.22689 0.56104 0.67762 -0.45800
O 	O 	0.25338 0.53803 0.53929 -0.50200
O 	O 	0.95262 0.13393 0.63943 -0.38100
C 	C 	0.29757 0.51133 0.88640 0.46900
C 	C 	0.26593 0.41114 0.88030 -0.29600
C 	C 	0.22460 0.35342 0.95120 0.27000
H 	H 	0.21680 0.37730 0.00380 -0.04800
C 	C 	0.19500 0.26120 0.94510 -0.40800
H 	H 	0.16680 0.22250 0.99310 0.18400
C 	C 	0.20739 0.22696 0.86810 0.39800
C 	C 	0.24830 0.28190 0.79700 -0.38900
H 	H 	0.25630 0.25740 0.74490 0.17900
C 	C 	0.27770 0.37480 0.80330 0.25700
H 	H 	0.30560 0.41290 0.75500 -0.04300
C 	C 	0.08944 0.06952 0.86534 0.49100
C 	C 	0.02025 0.09124 0.86545 -0.53500
H 	H 	0.03380 0.15210 0.86560 0.23000
O 	O 	0.33415 0.56104 0.82238 -0.45800
O 	O 	0.28465 0.53803 0.96071 -0.50200
O 	O 	0.18131 0.13393 0.86057 -0.38000
C 	C 	0.21376 0.70243 0.88640 0.47000
C 	C 	0.14521 0.73407 0.88030 -0.29800
C 	C 	0.12882 0.77540 0.95120 0.27300
H 	H 	0.16050 0.78320 0.00380 -0.05000
C 	C 	0.06620 0.80500 0.94510 -0.41000
H 	H 	0.05570 0.83320 0.99310 0.18500
C 	C 	0.01957 0.79261 0.86810 0.40000
C 	C 	0.03360 0.75170 0.79700 -0.39000
H 	H 	0.00110 0.74370 0.74490 0.18000
C 	C 	0.09710 0.72230 0.80330 0.25900
H 	H 	0.10730 0.69440 0.75500 -0.04400
C 	C 	0.98008 0.91056 0.86534 0.49100
C 	C 	0.07099 0.97975 0.86545 -0.53500
H 	H 	0.11830 0.96620 0.86560 0.23100
O 	O 	0.22689 0.66585 0.82238 -0.45900
O 	O 	0.25338 0.71535 0.96071 -0.50200
O 	O 	0.95262 0.81869 0.86057 -0.38100
C 	C 	0.48867 0.78624 0.88640 0.46900
C 	C 	0.58886 0.85479 0.88030 -0.29700
C 	C 	0.64658 0.87118 0.95120 0.27100
H 	H 	0.62270 0.83950 0.00380 -0.04900
C 	C 	0.73880 0.93380 0.94510 -0.40900
H 	H 	0.77750 0.94430 0.99310 0.18400
C 	C 	0.77304 0.98043 0.86810 0.39900
C 	C 	0.71810 0.96640 0.79700 -0.38900
H 	H 	0.74260 0.99890 0.74490 0.18000
C 	C 	0.62520 0.90290 0.80330 0.25800
H 	H 	0.58710 0.89270 0.75500 -0.04400
C 	C 	0.93048 0.01992 0.86534 0.49000
C 	C 	0.90876 0.92901 0.86545 -0.53500
H 	H 	0.84790 0.88170 0.86560 0.23000
O 	O 	0.43896 0.77311 0.82238 -0.45800
O 	O 	0.46197 0.74662 0.96071 -0.50200
O 	O 	0.86607 0.04738 0.86057 -0.38100
Co	Co	0.33333 0.66667 0.75000 1.20600
Co	Co	0.33333 0.66667 0.51195 1.14100
Co	Co	0.33333 0.66667 0.98805 1.14200
C 	C 	0.51133 0.29757 0.38640 0.46900
C 	C 	0.41114 0.26593 0.38030 -0.29600
C 	C 	0.35342 0.22460 0.45120 0.26900
H 	H 	0.37730 0.21680 0.50380 -0.04800
C 	C 	0.26120 0.19500 0.44510 -0.40800
H 	H 	0.22250 0.16680 0.49310 0.18400
C 	C 	0.22696 0.20739 0.36810 0.39800
C 	C 	0.28190 0.24830 0.29700 -0.38900
H 	H 	0.25740 0.25630 0.24490 0.17900
C 	C 	0.37480 0.27770 0.30330 0.25700
H 	H 	0.41290 0.30560 0.25500 -0.04300
C 	C 	0.06952 0.08944 0.36534 0.49200
C 	C 	0.09124 0.02025 0.36545 -0.53600
H 	H 	0.15210 0.03380 0.36560 0.23100
O 	O 	0.56104 0.33415 0.32238 -0.45800
O 	O 	0.53803 0.28465 0.46071 -0.50200
O 	O 	0.13393 0.18131 0.36057 -0.38100
C 	C 	0.70243 0.21376 0.38640 0.46900
C 	C 	0.73407 0.14521 0.38030 -0.29600
C 	C 	0.77540 0.12882 0.45120 0.26900
H 	H 	0.78320 0.16050 0.50380 -0.04800
C 	C 	0.80500 0.06620 0.44510 -0.40800
H 	H 	0.83320 0.05570 0.49310 0.18400
C 	C 	0.79261 0.01957 0.36810 0.39800
C 	C 	0.75170 0.03360 0.29700 -0.38900
H 	H 	0.74370 0.00110 0.24490 0.17900
C 	C 	0.72230 0.09710 0.30330 0.25700
H 	H 	0.69440 0.10730 0.25500 -0.04300
C 	C 	0.91056 0.98008 0.36534 0.49200
C 	C 	0.97975 0.07099 0.36545 -0.53700
H 	H 	0.96620 0.11830 0.36560 0.23100
O 	O 	0.66585 0.22689 0.32238 -0.45800
O 	O 	0.71535 0.25338 0.46071 -0.50300
O 	O 	0.81869 0.95262 0.36057 -0.38100
C 	C 	0.78624 0.48867 0.38640 0.46900
C 	C 	0.85479 0.58886 0.38030 -0.29600
C 	C 	0.87118 0.64658 0.45120 0.27000
H 	H 	0.83950 0.62270 0.50380 -0.04800
C 	C 	0.93380 0.73880 0.44510 -0.40800
H 	H 	0.94430 0.77750 0.49310 0.18400
C 	C 	0.98043 0.77304 0.36810 0.39800
C 	C 	0.96640 0.71810 0.29700 -0.38900
H 	H 	0.99890 0.74260 0.24490 0.17900
C 	C 	0.90290 0.62520 0.30330 0.25700
H 	H 	0.89270 0.58710 0.25500 -0.04300
C 	C 	0.01992 0.93048 0.36534 0.49200
C 	C 	0.92901 0.90876 0.36545 -0.53600
H 	H 	0.88170 0.84790 0.36560 0.23100
O 	O 	0.77311 0.43896 0.32238 -0.45800
O 	O 	0.74662 0.46197 0.46071 -0.50200
O 	O 	0.04738 0.86607 0.36057 -0.38100
C 	C 	0.70243 0.48867 0.11360 0.46900
C 	C 	0.73407 0.58886 0.11970 -0.29600
C 	C 	0.77540 0.64658 0.04880 0.27000
H 	H 	0.78320 0.62270 0.99620 -0.04800
C 	C 	0.80500 0.73880 0.05490 -0.40800
H 	H 	0.83320 0.77750 0.00690 0.18400
C 	C 	0.79261 0.77304 0.13190 0.39800
C 	C 	0.75170 0.71810 0.20300 -0.38900
H 	H 	0.74370 0.74260 0.25510 0.17900
C 	C 	0.72230 0.62520 0.19670 0.25700
H 	H 	0.69440 0.58710 0.24500 -0.04300
C 	C 	0.91056 0.93048 0.13466 0.49100
C 	C 	0.97975 0.90876 0.13455 -0.53500
H 	H 	0.96620 0.84790 0.13440 0.23000
O 	O 	0.66585 0.43896 0.17762 -0.45800
O 	O 	0.71535 0.46197 0.03929 -0.50200
O 	O 	0.81869 0.86607 0.13943 -0.38000
C 	C 	0.78624 0.29757 0.11360 0.47000
C 	C 	0.85479 0.26593 0.11970 -0.29800
C 	C 	0.87118 0.22460 0.04880 0.27300
H 	H 	0.83950 0.21680 0.99620 -0.05000
C 	C 	0.93380 0.19500 0.05490 -0.41000
H 	H 	0.94430 0.16680 0.00690 0.18500
C 	C 	0.98043 0.20739 0.13190 0.40000
C 	C 	0.96640 0.24830 0.20300 -0.39000
H 	H 	0.99890 0.25630 0.25510 0.18000
C 	C 	0.90290 0.27770 0.19670 0.25900
H 	H 	0.89270 0.30560 0.24500 -0.04400
C 	C 	0.01992 0.08944 0.13466 0.49100
C 	C 	0.92901 0.02025 0.13455 -0.53500
H 	H 	0.88170 0.03380 0.13440 0.23100
O 	O 	0.77311 0.33415 0.17762 -0.45900
O 	O 	0.74662 0.28465 0.03929 -0.50200
O 	O 	0.04738 0.18131 0.13943 -0.38100
C 	C 	0.51133 0.21376 0.11360 0.46900
C 	C 	0.41114 0.14521 0.11970 -0.29700
C 	C 	0.35342 0.12882 0.04880 0.27100
H 	H 	0.37730 0.16050 0.99620 -0.04900
C 	C 	0.26120 0.06620 0.05490 -0.40900
H 	H 	0.22250 0.05570 0.00690 0.18400
C 	C 	0.22696 0.01957 0.13190 0.39900
C 	C 	0.28190 0.03360 0.20300 -0.38900
H 	H 	0.25740 0.00110 0.25510 0.18000
C 	C 	0.37480 0.09710 0.19670 0.25800
H 	H 	0.41290 0.10730 0.24500 -0.04400
C 	C 	0.06952 0.98008 0.13466 0.49000
C 	C 	0.09124 0.07099 0.13455 -0.53500
H 	H 	0.15210 0.11830 0.13440 0.23000
O 	O 	0.56104 0.22689 0.17762 -0.45800
O 	O 	0.53803 0.25338 0.03929 -0.50200
O 	O 	0.13393 0.95262 0.13943 -0.38100
Co	Co	0.66667 0.33333 0.25000 1.20600
Co	Co	0.66667 0.33333 0.48805 1.14100
Co	Co	0.66667 0.33333 0.01195 1.14200
