data_crystal

_cell_length_a 11.71260
_cell_length_b 15.74320
_cell_length_c 29.34240
_cell_angle_alpha 90.00000
_cell_angle_beta  90.12600
_cell_angle_gamma 90.00000

_symmetry_space_group_name_	'P 1'
_symmetry_space_group_name_H-M	'P 1'

loop_
_symmetry_equiv_pos_as_xyz
  x,y,z

loop_
_atom_site_label
_atom_site_type_symbol
_atom_site_fract_x
_atom_site_fract_y
_atom_site_fract_z
_atom_site_charge
Zn	Zn	0.47450 0.63260 0.40840 1.21000
C 	C 	0.43310 0.80040 0.82970 0.34400
O 	O 	0.34920 0.77120 0.84830 -0.31800
N 	N 	0.60040 0.53650 0.41350 -0.23900
C 	C 	0.63250 0.51230 0.45520 0.03300
C 	C 	0.65000 0.49740 0.38000 0.05200
N 	N 	0.32470 0.56690 0.41600 -0.24600
O 	O 	0.52180 0.82570 0.84680 -0.45200
C 	C 	0.45350 0.78860 0.77710 -0.10400
C 	C 	0.73460 0.42970 0.38250 -0.02600
O 	O 	0.50540 0.68090 0.46520 -0.46100
C 	C 	0.53470 0.81000 0.75190 0.06100
C 	C 	0.72780 0.44230 0.46370 -0.01700
C 	C 	0.76310 0.41850 0.42370 0.02300
C 	C 	0.36800 0.74980 0.70390 -0.01300
C 	C 	0.86280 0.37370 0.42110 -0.01100
C 	C 	0.55010 0.80160 0.70530 -0.01900
C 	C 	0.96110 0.40650 0.39950 0.00300
C 	C 	0.46460 0.78130 0.68320 0.01200
C 	C 	0.99340 0.43070 0.44800 0.00400
C 	C 	0.45250 0.76640 0.63150 0.01000
C 	C 	0.11400 0.48210 0.43000 0.01000
C 	C 	0.35170 0.79240 0.60410 -0.01900
C 	C 	0.12570 0.57220 0.41870 -0.01700
C 	C 	0.53290 0.72780 0.60400 -0.00700
C 	C 	0.22410 0.60850 0.41410 0.06100
C 	C 	0.33130 0.78400 0.55940 0.05000
C 	C 	0.21720 0.42730 0.42740 0.01100
C 	C 	0.43280 0.72680 0.48800 0.32500
C 	C 	0.42570 0.74840 0.53670 -0.10700
C 	C 	0.31680 0.47430 0.42540 0.01600
C 	C 	0.53130 0.71980 0.55550 0.04500
O 	O 	0.34280 0.74630 0.46530 -0.27400
C 	C 	0.35680 0.76540 0.75620 0.04600
Zn	Zn	0.47450 0.86740 0.90840 1.21100
C 	C 	0.43310 0.69960 0.32970 0.34400
O 	O 	0.34920 0.72880 0.34830 -0.31700
N 	N 	0.60040 0.96350 0.91350 -0.23800
C 	C 	0.63250 0.98770 0.95520 0.03200
C 	C 	0.65000 0.00260 0.88000 0.05400
N 	N 	0.32470 0.93310 0.91600 -0.24400
O 	O 	0.52180 0.67430 0.34680 -0.45100
C 	C 	0.45350 0.71140 0.27710 -0.10400
C 	C 	0.73460 0.07030 0.88250 -0.02400
O 	O 	0.50540 0.81910 0.96520 -0.46000
C 	C 	0.53470 0.69000 0.25190 0.06200
C 	C 	0.72780 0.05770 0.96370 -0.01400
C 	C 	0.76310 0.08150 0.92370 0.02300
C 	C 	0.36800 0.75020 0.20390 -0.01100
C 	C 	0.86280 0.12630 0.92110 -0.01000
C 	C 	0.55010 0.69840 0.20530 -0.01900
C 	C 	0.96110 0.09350 0.89950 0.00500
C 	C 	0.46460 0.71870 0.18320 0.01200
C 	C 	0.99340 0.06930 0.94800 0.01000
C 	C 	0.45250 0.73360 0.13150 0.01000
C 	C 	0.11400 0.01790 0.93000 0.00100
C 	C 	0.35170 0.70760 0.10410 -0.01900
C 	C 	0.12570 0.92780 0.91870 -0.01200
C 	C 	0.53290 0.77220 0.10400 -0.00700
C 	C 	0.22410 0.89150 0.91410 0.05900
C 	C 	0.33130 0.71600 0.05940 0.05000
C 	C 	0.21720 0.07270 0.92740 0.01200
C 	C 	0.43280 0.77320 0.98800 0.32500
C 	C 	0.42570 0.75160 0.03670 -0.10700
C 	C 	0.31680 0.02570 0.92540 0.01400
C 	C 	0.53130 0.78020 0.05550 0.04500
O 	O 	0.34280 0.75370 0.96530 -0.27400
C 	C 	0.35680 0.73460 0.25620 0.04600
C 	C 	0.27490 0.11480 0.41530 0.05100
Zn	Zn	0.02540 0.13290 0.40850 1.21000
C 	C 	0.18160 0.97330 0.42180 0.01900
C 	C 	0.39290 0.98130 0.43180 0.00900
C 	C 	0.37320 0.07300 0.42250 -0.01000
C 	C 	0.29820 0.94140 0.42900 0.01200
C 	C 	0.75080 0.92230 0.42130 0.02500
C 	C 	0.67490 0.88080 0.42300 -0.01400
C 	C 	0.58020 0.90420 0.41920 0.00700
C 	C 	0.50620 0.93340 0.44280 0.00200
C 	C 	0.77020 0.96220 0.46320 -0.01700
C 	C 	0.86820 0.01910 0.45690 0.03600
C 	C 	0.86340 0.00970 0.37280 0.03000
C 	C 	0.77650 0.94060 0.37780 -0.01400
O 	O 	0.97970 0.32730 0.84750 -0.48600
C 	C 	0.06020 0.30000 0.83020 0.37900
N 	N 	0.17350 0.06820 0.41510 -0.24800
O 	O 	0.15160 0.27260 0.84760 -0.31700
C 	C 	0.04670 0.28840 0.77740 -0.12100
O 	O 	0.99320 0.18200 0.46630 -0.45400
N 	N 	0.90040 0.03460 0.41420 -0.22500
C 	C 	0.96200 0.30720 0.75320 0.07000
O 	O 	0.15900 0.24830 0.46530 -0.27800
C 	C 	0.14450 0.26320 0.75660 0.05200
C 	C 	0.94760 0.29980 0.70470 -0.01500
C 	C 	0.13010 0.24800 0.70170 -0.01100
C 	C 	0.03920 0.28250 0.68310 0.00900
C 	C 	0.05440 0.26930 0.63190 0.00700
C 	C 	0.96510 0.22850 0.60480 -0.00200
C 	C 	0.15090 0.29520 0.60580 -0.01900
C 	C 	0.96230 0.21940 0.55650 0.04400
C 	C 	0.16540 0.28650 0.55970 0.04700
C 	C 	0.06790 0.22790 0.48640 0.32500
C 	C 	0.07570 0.24600 0.53610 -0.09900
C 	C 	0.27490 0.38520 0.91530 0.05000
Zn	Zn	0.02540 0.36710 0.90850 1.21000
C 	C 	0.18160 0.52670 0.92180 0.01500
C 	C 	0.39290 0.51870 0.93180 0.00700
C 	C 	0.37320 0.42700 0.92250 -0.00900
C 	C 	0.29820 0.55860 0.92900 0.01200
C 	C 	0.75080 0.57770 0.92130 0.02200
C 	C 	0.67490 0.61920 0.92300 -0.01200
C 	C 	0.58020 0.59580 0.91920 0.00600
C 	C 	0.50620 0.56660 0.94280 0.00300
C 	C 	0.77020 0.53780 0.96320 -0.01200
C 	C 	0.86820 0.48090 0.95690 0.03200
C 	C 	0.86340 0.49030 0.87280 0.02600
C 	C 	0.77650 0.55940 0.87780 -0.00800
O 	O 	0.97970 0.17270 0.34750 -0.48500
C 	C 	0.06020 0.20000 0.33020 0.37800
N 	N 	0.17350 0.43180 0.91510 -0.24600
O 	O 	0.15160 0.22740 0.34760 -0.31600
C 	C 	0.04670 0.21160 0.27740 -0.12100
O 	O 	0.99320 0.31800 0.96630 -0.45300
N 	N 	0.90040 0.46540 0.91420 -0.22400
C 	C 	0.96200 0.19280 0.25320 0.06900
O 	O 	0.15900 0.25170 0.96530 -0.27800
C 	C 	0.14450 0.23680 0.25660 0.05200
C 	C 	0.94760 0.20020 0.20470 -0.01500
C 	C 	0.13010 0.25200 0.20170 -0.01100
C 	C 	0.03920 0.21750 0.18310 0.00800
C 	C 	0.05440 0.23070 0.13190 0.00800
C 	C 	0.96510 0.27150 0.10480 -0.00400
C 	C 	0.15090 0.20480 0.10580 -0.02000
C 	C 	0.96230 0.28060 0.05650 0.04200
C 	C 	0.16540 0.21350 0.05970 0.04600
C 	C 	0.06790 0.27210 0.98640 0.32200
C 	C 	0.07570 0.25400 0.03610 -0.09600
Zn	Zn	0.52550 0.13260 0.09160 1.21100
C 	C 	0.56690 0.30040 0.67030 0.34400
O 	O 	0.65080 0.27120 0.65170 -0.31700
N 	N 	0.39960 0.03650 0.08650 -0.23800
C 	C 	0.36750 0.01230 0.04480 0.03200
C 	C 	0.35000 0.99740 0.12000 0.05400
N 	N 	0.67530 0.06690 0.08400 -0.24400
O 	O 	0.47820 0.32570 0.65320 -0.45100
C 	C 	0.54650 0.28860 0.72290 -0.10400
C 	C 	0.26540 0.92970 0.11750 -0.02400
O 	O 	0.49460 0.18090 0.03480 -0.46000
C 	C 	0.46530 0.31000 0.74810 0.06200
C 	C 	0.27220 0.94230 0.03630 -0.01400
C 	C 	0.23690 0.91850 0.07630 0.02300
C 	C 	0.63200 0.24980 0.79610 -0.01100
C 	C 	0.13720 0.87370 0.07890 -0.01000
C 	C 	0.44990 0.30160 0.79470 -0.01900
C 	C 	0.03890 0.90650 0.10050 0.00500
C 	C 	0.53540 0.28130 0.81680 0.01200
C 	C 	0.00660 0.93070 0.05200 0.01000
C 	C 	0.54750 0.26640 0.86850 0.01000
C 	C 	0.88600 0.98210 0.07000 0.00100
C 	C 	0.64830 0.29240 0.89590 -0.01900
C 	C 	0.87430 0.07220 0.08130 -0.01200
C 	C 	0.46710 0.22780 0.89600 -0.00700
C 	C 	0.77590 0.10850 0.08590 0.05900
C 	C 	0.66870 0.28400 0.94060 0.05000
C 	C 	0.78280 0.92730 0.07260 0.01200
C 	C 	0.56720 0.22680 0.01200 0.32500
C 	C 	0.57430 0.24840 0.96330 -0.10700
C 	C 	0.68320 0.97430 0.07460 0.01400
C 	C 	0.46870 0.21980 0.94450 0.04500
O 	O 	0.65720 0.24630 0.03470 -0.27400
C 	C 	0.64320 0.26540 0.74380 0.04600
Zn	Zn	0.52550 0.36740 0.59160 1.21100
C 	C 	0.56690 0.19960 0.17030 0.34500
O 	O 	0.65080 0.22880 0.15170 -0.31700
N 	N 	0.39960 0.46350 0.58650 -0.23800
C 	C 	0.36750 0.48770 0.54480 0.03400
C 	C 	0.35000 0.50260 0.62000 0.05300
N 	N 	0.67530 0.43310 0.58400 -0.24500
O 	O 	0.47820 0.17430 0.15320 -0.45100
C 	C 	0.54650 0.21140 0.22290 -0.10300
C 	C 	0.26540 0.57030 0.61750 -0.02500
O 	O 	0.49460 0.31910 0.53480 -0.46000
C 	C 	0.46530 0.19000 0.24810 0.06200
C 	C 	0.27220 0.55770 0.53630 -0.01600
C 	C 	0.23690 0.58150 0.57630 0.02400
C 	C 	0.63200 0.25020 0.29610 -0.01200
C 	C 	0.13720 0.62630 0.57890 -0.01000
C 	C 	0.44990 0.19840 0.29470 -0.01900
C 	C 	0.03890 0.59350 0.60050 0.00300
C 	C 	0.53540 0.21870 0.31680 0.01200
C 	C 	0.00660 0.56930 0.55200 0.00400
C 	C 	0.54750 0.23360 0.36850 0.01000
C 	C 	0.88600 0.51790 0.57000 0.01000
C 	C 	0.64830 0.20760 0.39590 -0.01900
C 	C 	0.87430 0.42780 0.58130 -0.01700
C 	C 	0.46710 0.27220 0.39600 -0.00700
C 	C 	0.77590 0.39150 0.58590 0.06100
C 	C 	0.66870 0.21600 0.44060 0.05000
C 	C 	0.78280 0.57270 0.57260 0.01100
C 	C 	0.56720 0.27320 0.51200 0.32500
C 	C 	0.57430 0.25160 0.46330 -0.10700
C 	C 	0.68320 0.52570 0.57460 0.01600
C 	C 	0.46870 0.28020 0.44450 0.04500
O 	O 	0.65720 0.25370 0.53470 -0.27400
C 	C 	0.64320 0.23460 0.24380 0.04600
C 	C 	0.72510 0.61480 0.08470 0.05000
Zn	Zn	0.97460 0.63290 0.09150 1.21000
C 	C 	0.81840 0.47330 0.07820 0.01500
C 	C 	0.60710 0.48130 0.06820 0.00700
C 	C 	0.62680 0.57300 0.07750 -0.00900
C 	C 	0.70180 0.44140 0.07100 0.01200
C 	C 	0.24920 0.42230 0.07870 0.02200
C 	C 	0.32510 0.38080 0.07700 -0.01200
C 	C 	0.41980 0.40420 0.08080 0.00600
C 	C 	0.49380 0.43340 0.05720 0.00300
C 	C 	0.22980 0.46220 0.03680 -0.01200
C 	C 	0.13180 0.51910 0.04310 0.03200
C 	C 	0.13660 0.50970 0.12720 0.02600
C 	C 	0.22350 0.44060 0.12220 -0.00800
O 	O 	0.02030 0.82730 0.65250 -0.48500
C 	C 	0.93980 0.80000 0.66980 0.37800
N 	N 	0.82650 0.56820 0.08490 -0.24600
O 	O 	0.84840 0.77260 0.65240 -0.31600
C 	C 	0.95330 0.78840 0.72260 -0.12100
O 	O 	0.00680 0.68200 0.03370 -0.45300
N 	N 	0.09960 0.53460 0.08580 -0.22400
C 	C 	0.03800 0.80720 0.74680 0.06900
O 	O 	0.84100 0.74830 0.03470 -0.27800
C 	C 	0.85550 0.76320 0.74340 0.05200
C 	C 	0.05240 0.79980 0.79530 -0.01500
C 	C 	0.86990 0.74800 0.79830 -0.01100
C 	C 	0.96080 0.78250 0.81690 0.00800
C 	C 	0.94560 0.76930 0.86810 0.00800
C 	C 	0.03490 0.72850 0.89520 -0.00400
C 	C 	0.84910 0.79520 0.89420 -0.02000
C 	C 	0.03770 0.71940 0.94350 0.04200
C 	C 	0.83460 0.78650 0.94030 0.04600
C 	C 	0.93210 0.72790 0.01360 0.32200
C 	C 	0.92430 0.74600 0.96390 -0.09600
C 	C 	0.72510 0.88520 0.58470 0.05100
Zn	Zn	0.97460 0.86710 0.59150 1.21000
C 	C 	0.81840 0.02670 0.57820 0.01900
C 	C 	0.60710 0.01870 0.56820 0.00900
C 	C 	0.62680 0.92700 0.57750 -0.01000
C 	C 	0.70180 0.05860 0.57100 0.01200
C 	C 	0.24920 0.07770 0.57870 0.02500
C 	C 	0.32510 0.11920 0.57700 -0.01400
C 	C 	0.41980 0.09580 0.58080 0.00700
C 	C 	0.49380 0.06660 0.55720 0.00200
C 	C 	0.22980 0.03780 0.53680 -0.01700
C 	C 	0.13180 0.98090 0.54310 0.03600
C 	C 	0.13660 0.99030 0.62720 0.03000
C 	C 	0.22350 0.05940 0.62220 -0.01400
O 	O 	0.02030 0.67270 0.15250 -0.48600
C 	C 	0.93980 0.70000 0.16980 0.37900
N 	N 	0.82650 0.93180 0.58490 -0.24800
O 	O 	0.84840 0.72740 0.15240 -0.31700
C 	C 	0.95330 0.71160 0.22260 -0.12100
O 	O 	0.00680 0.81800 0.53370 -0.45400
N 	N 	0.09960 0.96540 0.58580 -0.22500
C 	C 	0.03800 0.69280 0.24680 0.07000
O 	O 	0.84100 0.75170 0.53470 -0.27800
C 	C 	0.85550 0.73680 0.24340 0.05200
C 	C 	0.05240 0.70020 0.29530 -0.01500
C 	C 	0.86990 0.75200 0.29830 -0.01100
C 	C 	0.96080 0.71750 0.31690 0.00900
C 	C 	0.94560 0.73070 0.36810 0.00700
C 	C 	0.03490 0.77150 0.39520 -0.00200
C 	C 	0.84910 0.70480 0.39420 -0.01900
C 	C 	0.03770 0.78060 0.44350 0.04400
C 	C 	0.83460 0.71350 0.44030 0.04700
C 	C 	0.93210 0.77210 0.51360 0.32500
C 	C 	0.92430 0.75400 0.46390 -0.09900
