data_crystal

_cell_length_a 13.99000
_cell_length_b 15.42500
_cell_length_c 23.96860
_cell_angle_alpha 104.57100
_cell_angle_beta  106.45300
_cell_angle_gamma 93.49100

_symmetry_space_group_name_	'P 1'
_symmetry_space_group_name_H-M	'P 1'

loop_
_symmetry_equiv_pos_as_xyz
  x,y,z

loop_
_atom_site_label
_atom_site_type_symbol
_atom_site_fract_x
_atom_site_fract_y
_atom_site_fract_z
_atom_site_charge
Ir	Ir	0.18189 0.27945 0.11961 0.35500
N 	N 	0.15640 0.15770 0.13550 -0.16100
C 	C 	0.07080 0.09910 0.10770 0.07100
H 	H 	0.02150 0.11070 0.07490 0.02100
C 	C 	0.05230 0.02230 0.12530 -0.12400
H 	H 	0.99140 0.98170 0.10500 0.07400
C 	C 	0.12390 0.00640 0.17270 0.04900
H 	H 	0.11240 0.95490 0.18620 0.00600
C 	C 	0.21190 0.06490 0.20050 -0.13200
H 	H 	0.26250 0.05290 0.23250 0.06900
C 	C 	0.22790 0.14150 0.18230 0.08400
C 	C 	0.31730 0.21050 0.20790 0.00300
C 	C 	0.40360 0.20360 0.25240 -0.06100
H 	H 	0.40640 0.15180 0.26710 0.04900
C 	C 	0.48350 0.27040 0.27490 -0.02000
H 	H 	0.54150 0.26670 0.30610 0.04000
C 	C 	0.47890 0.34420 0.25140 -0.05700
H 	H 	0.53550 0.39030 0.26630 0.04600
C 	C 	0.39550 0.35290 0.20750 -0.01600
H 	H 	0.39500 0.40440 0.19250 0.03700
C 	C 	0.31000 0.28490 0.18450 -0.06800
N 	N 	0.21440 0.40940 0.11811 -0.15900
C 	C 	0.25670 0.43340 0.07880 0.07100
H 	H 	0.26890 0.38700 0.04820 0.02000
C 	C 	0.28270 0.52230 0.08140 -0.12500
H 	H 	0.31340 0.53670 0.05360 0.07900
C 	C 	0.26350 0.58920 0.12460 0.04800
H 	H 	0.28160 0.65110 0.12790 0.01100
C 	C 	0.21720 0.56510 0.16360 -0.12600
H 	H 	0.20150 0.61130 0.19280 0.06900
C 	C 	0.19290 0.47420 0.16090 0.08200
C 	C 	0.14680 0.43980 0.19950 0.00300
C 	C 	0.12220 0.49540 0.24800 -0.06300
H 	H 	0.13390 0.55940 0.25640 0.05000
C 	C 	0.08100 0.45730 0.28350 -0.01500
H 	H 	0.06510 0.49500 0.31660 0.04100
C 	C 	0.06270 0.36400 0.27100 -0.06100
H 	H 	0.03350 0.33730 0.29510 0.05600
C 	C 	0.08780 0.30960 0.22250 -0.00900
H 	H 	0.07400 0.24570 0.21370 0.03700
C 	C 	0.13170 0.34530 0.18700 -0.06800
C 	C 	0.60450 0.34130 0.00150 0.11800
C 	C 	0.58730 0.39230 0.05320 -0.16100
H 	H 	0.64040 0.41240 0.09050 0.08600
C 	C 	0.49130 0.41360 0.04980 0.09400
H 	H 	0.48110 0.44940 0.08560 0.00300
N 	N 	0.41380 0.38740 0.00040 -0.14000
C 	C 	0.43110 0.34020 0.95050 0.09200
H 	H 	0.37670 0.32170 0.91380 0.00300
C 	C 	0.52450 0.31670 0.94960 -0.16500
H 	H 	0.53310 0.28320 0.91270 0.08400
C 	C 	0.70280 0.31600 0.00190 -0.07000
C 	C 	0.78180 0.29610 0.00090 0.02200
C 	C 	0.87700 0.27220 0.99590 -0.01900
C 	C 	0.96000 0.28290 0.04670 0.02700
H 	H 	0.95250 0.30720 0.08550 0.02700
N 	N 	0.04950 0.26080 0.04384 -0.13900
C 	C 	0.06150 0.22610 0.98890 0.05400
C 	C 	0.98260 0.21410 0.93550 -0.08100
H 	H 	0.99270 0.19120 0.89730 0.05200
C 	C 	0.88950 0.23570 0.93880 -0.01800
H 	H 	0.83450 0.22600 0.90290 0.03500
C 	C 	0.16160 0.20180 0.98898 0.05900
N 	N 	0.22970 0.21660 0.04419 -0.14000
C 	C 	0.32260 0.19330 0.04810 0.02600
H 	H 	0.37010 0.20340 0.08710 0.02900
C 	C 	0.35100 0.15520 0.99760 -0.01900
C 	C 	0.28020 0.14110 0.94100 -0.01400
H 	H 	0.29700 0.11500 0.90530 0.03500
C 	C 	0.18570 0.16490 0.93660 -0.08500
H 	H 	0.13740 0.15600 0.89800 0.05200
C 	C 	0.45010 0.13180 0.00340 0.02200
C 	C 	0.53220 0.11390 0.00610 -0.06500
C 	C 	0.63310 0.09330 0.01110 0.12000
C 	C 	0.70500 0.10830 0.06690 -0.16500
H 	H 	0.68910 0.13150 0.10330 0.08700
C 	C 	0.79970 0.08870 0.06830 0.09300
H 	H 	0.84880 0.10080 0.10700 0.00300
N 	N 	0.82860 0.05430 0.02000 -0.13800
C 	C 	0.75870 0.04130 0.96740 0.09300
H 	H 	0.77720 0.01820 0.93190 0.01200
C 	C 	0.66080 0.05840 0.95980 -0.16300
H 	H 	0.61380 0.04660 0.92050 0.08600
Ir	Ir	0.25885 0.70135 0.48382 0.35100
N 	N 	0.24320 0.75510 0.41264 -0.16000
C 	C 	0.31760 0.80330 0.40360 0.07500
H 	H 	0.38230 0.81580 0.43300 0.01400
C 	C 	0.30500 0.83490 0.35470 -0.13300
H 	H 	0.35980 0.86760 0.34920 0.07300
C 	C 	0.20950 0.81810 0.31240 0.04600
H 	H 	0.19780 0.84070 0.27800 0.00700
C 	C 	0.13240 0.76900 0.32070 -0.13100
H 	H 	0.06690 0.75810 0.29230 0.06800
C 	C 	0.14950 0.73500 0.37080 0.08000
C 	C 	0.07720 0.67600 0.38290 0.00300
C 	C 	0.97600 0.65360 0.34980 -0.07100
H 	H 	0.94900 0.67810 0.31700 0.04900
C 	C 	0.91530 0.59650 0.36430 -0.01000
H 	H 	0.84570 0.58170 0.34200 0.02900
C 	C 	0.95500 0.55980 0.41180 -0.07000
H 	H 	0.91230 0.51940 0.42140 0.05400
C 	C 	0.05560 0.58120 0.44510 -0.00700
H 	H 	0.08160 0.55450 0.47700 0.03200
C 	C 	0.11940 0.64120 0.43280 -0.07200
N 	N 	0.27260 0.63300 0.54828 -0.16200
C 	C 	0.24750 0.66050 0.59910 0.08000
H 	H 	0.21920 0.71510 0.60630 0.01500
C 	C 	0.26090 0.61320 0.64090 -0.14200
H 	H 	0.24030 0.63400 0.67590 0.07700
C 	C 	0.30350 0.53670 0.63250 0.05600
H 	H 	0.31510 0.50400 0.66200 0.00300
C 	C 	0.32980 0.50700 0.58040 -0.13600
H 	H 	0.35910 0.45280 0.57360 0.07200
C 	C 	0.31410 0.55550 0.53760 0.08400
C 	C 	0.33780 0.53110 0.48110 -0.00100
C 	C 	0.37610 0.45230 0.46040 -0.06200
H 	H 	0.39050 0.41160 0.48460 0.04900
C 	C 	0.39290 0.43350 0.40660 -0.01400
H 	H 	0.41800 0.37900 0.39260 0.03900
C 	C 	0.37400 0.49290 0.37080 -0.05800
H 	H 	0.38660 0.47890 0.33280 0.05200
C 	C 	0.33680 0.57250 0.39040 -0.01500
H 	H 	0.32460 0.61310 0.36610 0.03600
C 	C 	0.31720 0.59320 0.44630 -0.06600
C 	C 	0.77450 0.90760 0.49810 0.11700
C 	C 	0.73010 0.97400 0.52850 -0.15800
H 	H 	0.76980 0.02160 0.56240 0.09100
C 	C 	0.62650 0.96940 0.50820 0.09000
H 	H 	0.59660 0.01530 0.52910 0.01400
N 	N 	0.56630 0.90500 0.46160 -0.13700
C 	C 	0.61120 0.83990 0.43290 0.07900
H 	H 	0.56980 0.79250 0.39950 0.00400
C 	C 	0.71440 0.83960 0.45020 -0.15900
H 	H 	0.74290 0.79270 0.42920 0.08300
C 	C 	0.88290 0.91000 0.51700 -0.06300
C 	C 	0.97080 0.91060 0.53220 0.02100
C 	C 	0.07720 0.90540 0.54770 -0.01800
C 	C 	0.10820 0.82990 0.51840 0.02600
H 	H 	0.05850 0.78370 0.48860 0.03100
N 	N 	0.20490 0.81750 0.52933 -0.13800
C 	C 	0.27610 0.88410 0.57200 0.05600
C 	C 	0.24870 0.96060 0.60420 -0.08200
H 	H 	0.29890 0.00580 0.63430 0.05500
C 	C 	0.14980 0.97150 0.59290 -0.01500
H 	H 	0.13050 0.02360 0.61550 0.03600
C 	C 	0.38180 0.86670 0.57940 0.06100
N 	N 	0.39450 0.78820 0.54377 -0.14100
C 	C 	0.46250 0.92660 0.62120 -0.08700
H 	H 	0.45220 0.98080 0.64680 0.05500
C 	C 	0.55940 0.90640 0.62530 -0.01800
H 	H 	0.61620 0.94830 0.65220 0.03200
C 	C 	0.57240 0.82490 0.59010 -0.02200
C 	C 	0.48680 0.76760 0.54880 0.02700
H 	H 	0.49500 0.71210 0.52360 0.02400
C 	C 	0.67160 0.80070 0.59570 0.01900
C 	C 	0.75530 0.78560 0.60400 -0.06700
C 	C 	0.85810 0.77160 0.61390 0.11800
C 	C 	0.88480 0.69770 0.57900 -0.16100
H 	H 	0.83450 0.65320 0.54830 0.08700
C 	C 	0.98640 0.68860 0.58920 0.08600
H 	H 	0.00360 0.63700 0.56470 0.00500
N 	N 	0.06030 0.74830 0.63120 -0.13900
C 	C 	0.03290 0.81950 0.66550 0.08300
H 	H 	0.08450 0.86220 0.69670 0.00600
C 	C 	0.93400 0.83420 0.65790 -0.15900
H 	H 	0.91860 0.88660 0.68270 0.08500
Ir	Ir	0.81811 0.72055 0.88039 0.35600
N 	N 	0.84360 0.84230 0.86450 -0.16000
C 	C 	0.92920 0.90090 0.89230 0.07100
H 	H 	0.97850 0.88930 0.92510 0.02100
C 	C 	0.94770 0.97770 0.87470 -0.12400
H 	H 	0.00860 0.01830 0.89500 0.07400
C 	C 	0.87610 0.99360 0.82730 0.04900
H 	H 	0.88760 0.04510 0.81380 0.00600
C 	C 	0.78810 0.93510 0.79950 -0.13200
H 	H 	0.73750 0.94710 0.76750 0.06900
C 	C 	0.77210 0.85850 0.81770 0.08400
C 	C 	0.68270 0.78950 0.79210 0.00300
C 	C 	0.59640 0.79640 0.74760 -0.06100
H 	H 	0.59360 0.84820 0.73290 0.04900
C 	C 	0.51650 0.72960 0.72510 -0.02000
H 	H 	0.45850 0.73330 0.69390 0.04000
C 	C 	0.52110 0.65580 0.74860 -0.05700
H 	H 	0.46450 0.60970 0.73370 0.04600
C 	C 	0.60450 0.64710 0.79250 -0.01600
H 	H 	0.60500 0.59560 0.80750 0.03700
C 	C 	0.69000 0.71510 0.81550 -0.06800
N 	N 	0.78560 0.59060 0.88189 -0.15900
C 	C 	0.74330 0.56660 0.92120 0.07100
H 	H 	0.73110 0.61300 0.95180 0.02000
C 	C 	0.71730 0.47770 0.91860 -0.12500
H 	H 	0.68660 0.46330 0.94640 0.07900
C 	C 	0.73650 0.41080 0.87540 0.04800
H 	H 	0.71840 0.34890 0.87210 0.01100
C 	C 	0.78280 0.43490 0.83640 -0.12600
H 	H 	0.79850 0.38870 0.80720 0.06900
C 	C 	0.80710 0.52580 0.83910 0.08200
C 	C 	0.85320 0.56020 0.80050 0.00300
C 	C 	0.87780 0.50460 0.75200 -0.06300
H 	H 	0.86610 0.44060 0.74360 0.05000
C 	C 	0.91900 0.54270 0.71650 -0.01500
H 	H 	0.93490 0.50500 0.68340 0.04100
C 	C 	0.93730 0.63600 0.72900 -0.06100
H 	H 	0.96650 0.66270 0.70490 0.05600
C 	C 	0.91220 0.69040 0.77750 -0.00900
H 	H 	0.92600 0.75430 0.78630 0.03700
C 	C 	0.86830 0.65470 0.81300 -0.06800
C 	C 	0.39550 0.65870 0.99850 0.11800
C 	C 	0.41270 0.60770 0.94680 -0.16100
H 	H 	0.35960 0.58760 0.90950 0.08600
C 	C 	0.50870 0.58640 0.95020 0.09400
H 	H 	0.51890 0.55060 0.91440 0.00300
N 	N 	0.58620 0.61260 0.99960 -0.14000
C 	C 	0.56890 0.65980 0.04950 0.09200
H 	H 	0.62330 0.67830 0.08620 0.00300
C 	C 	0.47550 0.68330 0.05040 -0.16500
H 	H 	0.46690 0.71680 0.08730 0.08400
C 	C 	0.29720 0.68400 0.99810 -0.07000
C 	C 	0.21820 0.70390 0.99910 0.02200
C 	C 	0.12300 0.72780 0.00410 -0.01900
C 	C 	0.04000 0.71710 0.95330 0.02700
H 	H 	0.04750 0.69280 0.91450 0.02700
N 	N 	0.95050 0.73920 0.95616 -0.13900
C 	C 	0.93850 0.77390 0.01110 0.05400
C 	C 	0.01740 0.78590 0.06450 -0.08100
H 	H 	0.00730 0.80880 0.10270 0.05200
C 	C 	0.11050 0.76430 0.06120 -0.01800
H 	H 	0.16550 0.77400 0.09710 0.03500
C 	C 	0.83840 0.79820 0.01102 0.05900
N 	N 	0.77030 0.78340 0.95581 -0.14000
C 	C 	0.67740 0.80670 0.95190 0.02600
H 	H 	0.62990 0.79660 0.91290 0.02900
C 	C 	0.64900 0.84480 0.00240 -0.01900
C 	C 	0.71980 0.85890 0.05900 -0.01400
H 	H 	0.70300 0.88500 0.09470 0.03500
C 	C 	0.81430 0.83510 0.06340 -0.08500
H 	H 	0.86260 0.84400 0.10200 0.05200
C 	C 	0.54990 0.86820 0.99660 0.02200
C 	C 	0.46780 0.88610 0.99390 -0.06500
C 	C 	0.36690 0.90670 0.98890 0.12000
C 	C 	0.29500 0.89170 0.93310 -0.16500
H 	H 	0.31090 0.86850 0.89670 0.08700
C 	C 	0.20030 0.91130 0.93170 0.09300
H 	H 	0.15120 0.89920 0.89300 0.00300
N 	N 	0.17140 0.94570 0.98000 -0.13800
C 	C 	0.24130 0.95870 0.03260 0.09300
H 	H 	0.22280 0.98180 0.06810 0.01200
C 	C 	0.33920 0.94160 0.04020 -0.16300
H 	H 	0.38620 0.95340 0.07950 0.08600
Ir	Ir	0.74115 0.29865 0.51618 0.35100
N 	N 	0.75680 0.24490 0.58736 -0.16000
C 	C 	0.68240 0.19670 0.59640 0.07500
H 	H 	0.61770 0.18420 0.56700 0.01400
C 	C 	0.69500 0.16510 0.64530 -0.13300
H 	H 	0.64020 0.13240 0.65080 0.07300
C 	C 	0.79050 0.18190 0.68760 0.04600
H 	H 	0.80220 0.15930 0.72200 0.00700
C 	C 	0.86760 0.23100 0.67930 -0.13100
H 	H 	0.93310 0.24190 0.70770 0.06800
C 	C 	0.85050 0.26500 0.62920 0.08000
C 	C 	0.92280 0.32400 0.61710 0.00300
C 	C 	0.02400 0.34640 0.65020 -0.07100
H 	H 	0.05100 0.32190 0.68300 0.04900
C 	C 	0.08470 0.40350 0.63570 -0.01000
H 	H 	0.15430 0.41830 0.65800 0.02900
C 	C 	0.04500 0.44020 0.58820 -0.07000
H 	H 	0.08770 0.48060 0.57860 0.05400
C 	C 	0.94440 0.41880 0.55490 -0.00700
H 	H 	0.91840 0.44550 0.52300 0.03200
C 	C 	0.88060 0.35880 0.56720 -0.07200
N 	N 	0.72740 0.36700 0.45172 -0.16200
C 	C 	0.75250 0.33950 0.40090 0.08000
H 	H 	0.78080 0.28490 0.39370 0.01500
C 	C 	0.73910 0.38680 0.35910 -0.14200
H 	H 	0.75970 0.36600 0.32410 0.07700
C 	C 	0.69650 0.46330 0.36750 0.05600
H 	H 	0.68490 0.49600 0.33800 0.00300
C 	C 	0.67020 0.49300 0.41960 -0.13600
H 	H 	0.64090 0.54720 0.42640 0.07200
C 	C 	0.68590 0.44450 0.46240 0.08400
C 	C 	0.66220 0.46890 0.51890 -0.00100
C 	C 	0.62390 0.54770 0.53960 -0.06200
H 	H 	0.60950 0.58840 0.51540 0.04900
C 	C 	0.60710 0.56650 0.59340 -0.01400
H 	H 	0.58200 0.62100 0.60740 0.03900
C 	C 	0.62600 0.50710 0.62920 -0.05800
H 	H 	0.61340 0.52110 0.66720 0.05200
C 	C 	0.66320 0.42750 0.60960 -0.01500
H 	H 	0.67540 0.38690 0.63390 0.03600
C 	C 	0.68280 0.40680 0.55370 -0.06600
C 	C 	0.22550 0.09240 0.50190 0.11700
C 	C 	0.26990 0.02600 0.47150 -0.15800
H 	H 	0.23020 0.97840 0.43760 0.09100
C 	C 	0.37350 0.03060 0.49180 0.09000
H 	H 	0.40340 0.98470 0.47090 0.01400
N 	N 	0.43370 0.09500 0.53840 -0.13700
C 	C 	0.38880 0.16010 0.56710 0.07900
H 	H 	0.43020 0.20750 0.60050 0.00400
C 	C 	0.28560 0.16040 0.54980 -0.15900
H 	H 	0.25710 0.20730 0.57080 0.08300
C 	C 	0.11710 0.09000 0.48300 -0.06300
C 	C 	0.02920 0.08940 0.46780 0.02100
C 	C 	0.92280 0.09460 0.45230 -0.01800
C 	C 	0.89180 0.17010 0.48160 0.02600
H 	H 	0.94150 0.21630 0.51140 0.03100
N 	N 	0.79510 0.18250 0.47067 -0.13800
C 	C 	0.72390 0.11590 0.42800 0.05600
C 	C 	0.75130 0.03940 0.39580 -0.08200
H 	H 	0.70110 0.99420 0.36570 0.05500
C 	C 	0.85020 0.02850 0.40710 -0.01500
H 	H 	0.86950 0.97640 0.38450 0.03600
C 	C 	0.61820 0.13330 0.42060 0.06100
N 	N 	0.60550 0.21180 0.45623 -0.14100
C 	C 	0.53750 0.07340 0.37880 -0.08700
H 	H 	0.54780 0.01920 0.35320 0.05500
C 	C 	0.44060 0.09360 0.37470 -0.01800
H 	H 	0.38380 0.05170 0.34780 0.03200
C 	C 	0.42760 0.17510 0.40990 -0.02200
C 	C 	0.51320 0.23240 0.45120 0.02700
H 	H 	0.50500 0.28790 0.47640 0.02400
C 	C 	0.32840 0.19930 0.40430 0.01900
C 	C 	0.24470 0.21440 0.39600 -0.06700
C 	C 	0.14190 0.22840 0.38610 0.11800
C 	C 	0.11520 0.30230 0.42100 -0.16100
H 	H 	0.16550 0.34680 0.45170 0.08700
C 	C 	0.01360 0.31140 0.41080 0.08600
H 	H 	0.99640 0.36300 0.43530 0.00500
N 	N 	0.93970 0.25170 0.36880 -0.13900
C 	C 	0.96710 0.18050 0.33450 0.08300
H 	H 	0.91550 0.13780 0.30330 0.00600
C 	C 	0.06600 0.16580 0.34210 -0.15900
H 	H 	0.08140 0.11340 0.31730 0.08500
