data_crystal

_cell_length_a 12.64580
_cell_length_b 15.61090
_cell_length_c 17.13440
_cell_angle_alpha 89.59700
_cell_angle_beta  82.23800
_cell_angle_gamma 84.82600

_symmetry_space_group_name_	'P 1'
_symmetry_space_group_name_H-M	'P 1'

loop_
_symmetry_equiv_pos_as_xyz
  x,y,z

loop_
_atom_site_label
_atom_site_type_symbol
_atom_site_fract_x
_atom_site_fract_y
_atom_site_fract_z
_atom_site_charge
O 	O 	0.82170 0.87820 0.30192 -0.22000
O 	O 	0.82220 0.86430 0.71610 -0.24200
O 	O 	0.00300 0.72490 0.59784 -0.24300
O 	O 	0.64030 0.01460 0.42470 -0.23400
O 	O 	0.89490 0.05410 0.77250 -0.23300
O 	O 	0.74130 0.20840 0.47212 -0.23700
N 	N 	0.94810 0.78280 0.35050 -0.14000
N 	N 	0.68940 0.95840 0.67640 -0.14400
N 	N 	0.85580 0.74160 0.53070 -0.15100
N 	N 	0.74060 0.09520 0.71880 -0.14500
N 	N 	0.01620 0.71010 0.46310 -0.14900
N 	N 	0.65600 0.89160 0.49990 -0.14900
N 	N 	0.68810 0.14890 0.59350 -0.14800
N 	N 	0.87350 0.18030 0.70270 -0.14600
N 	N 	0.72600 0.83180 0.61680 -0.15200
N 	N 	0.78250 0.79590 0.41310 -0.14700
N 	N 	0.80960 0.24390 0.58470 -0.14900
N 	N 	0.61620 0.01780 0.56050 -0.14600
C 	C 	0.63380 0.86910 0.58270 0.06100
H 	H 	0.57370 0.83320 0.59220 0.02700
C 	C 	0.84800 0.82460 0.34990 0.26100
C 	C 	0.69830 0.16670 0.67530 0.05500
H 	H 	0.63110 0.19380 0.70340 0.03200
C 	C 	0.60700 0.95690 0.62480 0.05500
H 	H 	0.53490 0.96180 0.65450 0.04200
C 	C 	0.75310 0.88290 0.67400 0.27100
C 	C 	0.94580 0.70950 0.40370 0.05400
H 	H 	0.95540 0.65480 0.37480 0.04100
C 	C 	0.83260 0.72410 0.45220 0.06300
H 	H 	0.79290 0.67310 0.45120 0.02300
C 	C 	0.63890 0.97890 0.48830 0.26500
C 	C 	0.96280 0.72580 0.53710 0.26400
C 	C 	0.97050 0.21640 0.71820 0.02000
H 	H 	0.00040 0.18340 0.75950 0.06500
H 	H 	0.95210 0.27490 0.73740 0.05600
C 	C 	0.78860 0.22900 0.66810 0.06100
H 	H 	0.76480 0.28270 0.69710 0.02500
C 	C 	0.84240 0.10390 0.73460 0.26700
C 	C 	0.67170 0.83040 0.43560 0.03400
H 	H 	0.64560 0.85800 0.39020 0.05100
H 	H 	0.62860 0.78300 0.45030 0.03200
C 	C 	0.68440 0.01980 0.74010 0.01900
H 	H 	0.60990 0.03800 0.75830 0.06700
H 	H 	0.71460 0.99130 0.78360 0.07000
C 	C 	0.86990 0.31290 0.55150 0.03500
H 	H 	0.84480 0.33060 0.50230 0.04800
H 	H 	0.85610 0.36180 0.58720 0.03800
C 	C 	0.59710 0.10950 0.57080 0.03700
H 	H 	0.53590 0.12210 0.61080 0.03700
H 	H 	0.57930 0.13490 0.52190 0.04600
C 	C 	0.77630 0.74590 0.59950 0.03900
H 	H 	0.80970 0.72480 0.64450 0.04500
H 	H 	0.72150 0.70830 0.59170 0.03200
C 	C 	0.74600 0.20100 0.54340 0.26000
O 	O 	0.17830 0.12180 0.69808 -0.21900
O 	O 	0.17780 0.13570 0.28390 -0.24100
O 	O 	0.99700 0.27510 0.40216 -0.24200
O 	O 	0.35970 0.98540 0.57530 -0.23200
O 	O 	0.10510 0.94590 0.22750 -0.23200
O 	O 	0.25870 0.79160 0.52788 -0.23600
N 	N 	0.05190 0.21720 0.64950 -0.13900
N 	N 	0.31060 0.04160 0.32360 -0.14300
N 	N 	0.14420 0.25840 0.46930 -0.15000
N 	N 	0.25940 0.90480 0.28120 -0.14400
N 	N 	0.98380 0.28990 0.53690 -0.14800
N 	N 	0.34400 0.10840 0.50010 -0.14800
N 	N 	0.31190 0.85110 0.40650 -0.14700
N 	N 	0.12650 0.81970 0.29730 -0.14500
N 	N 	0.27400 0.16820 0.38320 -0.15100
N 	N 	0.21750 0.20410 0.58690 -0.14700
N 	N 	0.19040 0.75610 0.41530 -0.14900
N 	N 	0.38380 0.98220 0.43950 -0.14500
C 	C 	0.36620 0.13090 0.41730 0.06100
H 	H 	0.42630 0.16680 0.40780 0.02700
C 	C 	0.15200 0.17540 0.65010 0.26100
C 	C 	0.30170 0.83330 0.32470 0.05500
H 	H 	0.36890 0.80620 0.29660 0.03200
C 	C 	0.39300 0.04310 0.37520 0.05500
H 	H 	0.46510 0.03820 0.34550 0.04200
C 	C 	0.24690 0.11710 0.32600 0.27100
C 	C 	0.05420 0.29050 0.59630 0.05400
H 	H 	0.04460 0.34520 0.62520 0.04100
C 	C 	0.16740 0.27590 0.54780 0.06300
H 	H 	0.20710 0.32690 0.54880 0.02300
C 	C 	0.36110 0.02110 0.51170 0.26400
C 	C 	0.03720 0.27420 0.46290 0.26400
C 	C 	0.02950 0.78360 0.28180 0.02000
H 	H 	0.99960 0.81660 0.24050 0.06500
H 	H 	0.04790 0.72510 0.26260 0.05600
C 	C 	0.21140 0.77100 0.33190 0.06100
H 	H 	0.23520 0.71730 0.30290 0.02500
C 	C 	0.15760 0.89610 0.26540 0.26700
C 	C 	0.32830 0.16960 0.56440 0.03400
H 	H 	0.35440 0.14200 0.60980 0.05100
H 	H 	0.37140 0.21700 0.54970 0.03200
C 	C 	0.31560 0.98020 0.25990 0.02000
H 	H 	0.39010 0.96200 0.24170 0.06700
H 	H 	0.28540 0.00870 0.21640 0.07000
C 	C 	0.13010 0.68710 0.44850 0.03500
H 	H 	0.15520 0.66940 0.49770 0.04800
H 	H 	0.14390 0.63820 0.41280 0.03800
C 	C 	0.40290 0.89050 0.42920 0.03700
H 	H 	0.46410 0.87790 0.38920 0.03700
H 	H 	0.42070 0.86510 0.47810 0.04600
C 	C 	0.22370 0.25410 0.40050 0.03900
H 	H 	0.19030 0.27520 0.35550 0.04500
H 	H 	0.27850 0.29170 0.40830 0.03200
C 	C 	0.25400 0.79900 0.45660 0.26000
O 	O 	0.30460 0.45890 0.11532 -0.23400
O 	O 	0.11270 0.35710 0.75375 -0.24300
O 	O 	0.34330 0.59960 0.94720 -0.22100
O 	O 	0.14830 0.76840 0.92070 -0.22700
O 	O 	0.92610 0.79000 0.06710 -0.23300
O 	O 	0.92270 0.51990 0.73280 -0.23600
N 	N 	0.91670 0.65840 0.77830 -0.14400
N 	N 	0.21150 0.47510 0.74360 -0.15000
N 	N 	0.85190 0.77490 0.95250 -0.14300
N 	N 	0.76760 0.72900 0.06470 -0.14100
N 	N 	0.29200 0.57250 0.82570 -0.14400
N 	N 	0.32360 0.36970 0.00710 -0.14600
N 	N 	0.35450 0.46290 0.89480 -0.14700
N 	N 	0.76500 0.67250 0.88120 -0.14600
N 	N 	0.00600 0.75920 0.85100 -0.14200
N 	N 	0.16380 0.69180 0.80450 -0.14800
N 	N 	0.07390 0.59140 0.73290 -0.14700
N 	N 	0.25340 0.36890 0.82440 -0.14400
C 	C 	0.14970 0.52550 0.69210 0.03800
H 	H 	0.11070 0.48750 0.66440 0.04600
H 	H 	0.19840 0.55290 0.65300 0.03500
C 	C 	0.69270 0.71880 0.00890 0.05700
H 	H 	0.62460 0.75370 0.02360 0.04900
C 	C 	0.75330 0.74900 0.93010 0.05900
H 	H 	0.71230 0.79680 0.90720 0.04600
C 	C 	0.80150 0.67330 0.79720 0.02800
H 	H 	0.76840 0.62940 0.77180 0.05400
H 	H 	0.77810 0.72860 0.77610 0.05200
C 	C 	0.96690 0.58330 0.74750 0.27200
C 	C 	0.11040 0.74170 0.86510 0.26600
C 	C 	0.98900 0.72600 0.77500 0.05300
H 	H 	0.96840 0.77250 0.73980 0.05200
C 	C 	0.18430 0.39620 0.77230 0.26300
C 	C 	0.27540 0.66070 0.80120 0.03100
H 	H 	0.31040 0.66610 0.74760 0.03800
H 	H 	0.30910 0.69680 0.83460 0.05900
C 	C 	0.85570 0.76670 0.03190 0.27000
C 	C 	0.30750 0.50030 0.77050 0.05600
H 	H 	0.36300 0.50940 0.72620 0.02400
C 	C 	0.28910 0.39190 0.08380 0.26800
C 	C 	0.39960 0.41800 0.95840 0.02800
H 	H 	0.42600 0.45960 0.99110 0.05900
H 	H 	0.46020 0.37900 0.93650 0.04700
C 	C 	0.09880 0.67850 0.74300 0.06300
H 	H 	0.12880 0.70300 0.69300 0.04100
C 	C 	0.26170 0.27990 0.85090 0.00900
H 	H 	0.21540 0.24760 0.82380 0.07000
H 	H 	0.33470 0.25500 0.83640 0.06800
C 	C 	0.92950 0.81730 0.89890 0.02400
H 	H 	0.89140 0.85480 0.86470 0.05600
H 	H 	0.96790 0.85300 0.92940 0.05700
C 	C 	0.33120 0.55030 0.89510 0.26100
C 	C 	0.34180 0.42330 0.82150 0.05900
H 	H 	0.40920 0.39270 0.79730 0.02500
O 	O 	0.69540 0.54110 0.88468 -0.23400
O 	O 	0.88730 0.64290 0.24625 -0.24300
O 	O 	0.65670 0.40040 0.05280 -0.22100
O 	O 	0.85170 0.23160 0.07930 -0.22700
O 	O 	0.07390 0.21000 0.93290 -0.23300
O 	O 	0.07730 0.48010 0.26720 -0.23600
N 	N 	0.08330 0.34160 0.22170 -0.14400
N 	N 	0.78850 0.52490 0.25640 -0.15000
N 	N 	0.14810 0.22510 0.04750 -0.14400
N 	N 	0.23240 0.27100 0.93530 -0.14100
N 	N 	0.70800 0.42750 0.17430 -0.14400
N 	N 	0.67640 0.63030 0.99290 -0.14500
N 	N 	0.64550 0.53710 0.10520 -0.14700
N 	N 	0.23500 0.32750 0.11880 -0.14600
N 	N 	0.99400 0.24080 0.14900 -0.14200
N 	N 	0.83620 0.30820 0.19550 -0.14800
N 	N 	0.92610 0.40860 0.26710 -0.14700
N 	N 	0.74660 0.63110 0.17560 -0.14400
C 	C 	0.85030 0.47450 0.30790 0.03800
H 	H 	0.88930 0.51250 0.33560 0.04600
H 	H 	0.80160 0.44710 0.34700 0.03500
C 	C 	0.30730 0.28120 0.99110 0.05800
H 	H 	0.37540 0.24630 0.97640 0.04900
C 	C 	0.24670 0.25100 0.06990 0.05800
H 	H 	0.28770 0.20320 0.09280 0.04600
C 	C 	0.19850 0.32670 0.20280 0.02800
H 	H 	0.23160 0.37060 0.22820 0.05400
H 	H 	0.22190 0.27140 0.22390 0.05200
C 	C 	0.03310 0.41670 0.25250 0.27200
C 	C 	0.88960 0.25830 0.13490 0.26600
C 	C 	0.01100 0.27400 0.22500 0.05300
H 	H 	0.03160 0.22750 0.26020 0.05200
C 	C 	0.81570 0.60380 0.22770 0.26300
C 	C 	0.72460 0.33930 0.19880 0.03100
H 	H 	0.68960 0.33390 0.25240 0.03800
H 	H 	0.69090 0.30320 0.16540 0.05900
C 	C 	0.14430 0.23330 0.96810 0.27000
C 	C 	0.69250 0.49970 0.22950 0.05600
H 	H 	0.63700 0.49060 0.27380 0.02400
C 	C 	0.71090 0.60810 0.91620 0.26800
C 	C 	0.60040 0.58200 0.04160 0.02800
H 	H 	0.57400 0.54040 0.00890 0.05900
H 	H 	0.53980 0.62100 0.06350 0.04700
C 	C 	0.90120 0.32150 0.25700 0.06300
H 	H 	0.87120 0.29700 0.30700 0.04100
C 	C 	0.73830 0.72010 0.14910 0.00900
H 	H 	0.78460 0.75240 0.17620 0.07000
H 	H 	0.66530 0.74500 0.16360 0.06800
C 	C 	0.07050 0.18270 0.10110 0.02400
H 	H 	0.10860 0.14520 0.13530 0.05500
H 	H 	0.03210 0.14700 0.07060 0.05700
C 	C 	0.66880 0.44970 0.10490 0.26100
C 	C 	0.65820 0.57670 0.17850 0.05900
H 	H 	0.59080 0.60730 0.20270 0.02500
O 	O 	0.39310 0.96790 0.91210 0.02000
C 	C 	0.36360 0.95230 0.87650 -0.21300
C 	C 	0.06840 0.91280 0.65690 -0.05800
H 	H 	0.99720 0.91960 0.68660 0.08100
H 	H 	0.07830 0.85590 0.63310 0.07900
C 	C 	0.33700 0.78140 0.11750 0.00000
C 	C 	0.42620 0.83910 0.11940 0.27200
C 	C 	0.34490 0.70070 0.15250 -0.07000
H 	H 	0.40480 0.68210 0.17620 0.06900
C 	C 	0.08740 0.62080 0.11730 -0.05900
H 	H 	0.01940 0.65510 0.12960 0.08100
H 	H 	0.09220 0.57730 0.15760 0.08300
C 	C 	0.24700 0.80820 0.08350 -0.06300
H 	H 	0.24080 0.86200 0.06000 0.09800
C 	C 	0.26250 0.64890 0.15150 0.04600
H 	H 	0.26680 0.59460 0.17410 0.04800
C 	C 	0.99860 0.96650 0.53270 -0.10000
H 	H 	0.92640 0.96820 0.56050 0.07700
H 	H 	0.01630 0.90980 0.50910 0.08000
C 	C 	0.12170 0.95960 0.78190 0.06400
H 	H 	0.05230 0.98500 0.79560 0.04900
C 	C 	0.07580 0.97990 0.59170 -0.10200
H 	H 	0.05930 0.03690 0.61490 0.08700
H 	H 	0.14850 0.97650 0.56450 0.09000
C 	C 	0.24930 0.88340 0.69150 0.08100
H 	H 	0.26720 0.85570 0.64310 0.04200
C 	C 	0.09140 0.57790 0.03860 -0.11400
H 	H 	0.15910 0.54300 0.02640 0.09400
H 	H 	0.08720 0.62130 0.99810 0.09200
C 	C 	0.29970 0.92800 0.81180 0.06500
C 	C 	0.19670 0.96350 0.83300 -0.08100
H 	H 	0.17740 0.99030 0.88180 0.10000
C 	C 	0.16680 0.75470 0.08450 0.05200
H 	H 	0.10560 0.77250 0.06190 0.06100
C 	C 	0.00020 0.52190 0.03890 -0.09200
H 	H 	0.00520 0.47850 0.07930 0.07400
H 	H 	0.93300 0.55690 0.05220 0.07500
C 	C 	0.32580 0.88720 0.74010 -0.12000
H 	H 	0.39510 0.86240 0.72480 0.09400
O 	O 	0.43720 0.00030 0.85680 -0.13100
O 	O 	0.35220 0.91880 0.94270 -0.10300
N 	N 	0.14890 0.91880 0.71210 -0.11200
C 	C 	0.40450 0.91680 0.85350 0.45900
O 	O 	0.41110 0.91200 0.08680 -0.18100
N 	N 	0.17580 0.67670 0.11780 -0.10500
O 	O 	0.50200 0.81380 0.15390 -0.22900
O 	O 	0.48350 0.86270 0.83480 -0.26200
O 	O 	0.60690 0.03210 0.08790 0.02000
C 	C 	0.63640 0.04770 0.12350 -0.21300
C 	C 	0.93160 0.08720 0.34310 -0.05800
H 	H 	0.00280 0.08040 0.31340 0.08100
H 	H 	0.92170 0.14410 0.36690 0.07900
C 	C 	0.66300 0.21860 0.88250 0.00000
C 	C 	0.57380 0.16090 0.88060 0.27200
C 	C 	0.65510 0.29930 0.84750 -0.07000
H 	H 	0.59520 0.31790 0.82380 0.06900
C 	C 	0.91260 0.37920 0.88270 -0.06000
H 	H 	0.98060 0.34490 0.87040 0.08100
H 	H 	0.90780 0.42270 0.84240 0.08300
C 	C 	0.75300 0.19180 0.91650 -0.06200
H 	H 	0.75920 0.13800 0.94000 0.09800
C 	C 	0.73750 0.35110 0.84850 0.04600
H 	H 	0.73320 0.40540 0.82590 0.04800
C 	C 	0.00140 0.03350 0.46730 -0.10000
H 	H 	0.07360 0.03180 0.43950 0.07700
H 	H 	0.98370 0.09020 0.49090 0.08000
C 	C 	0.87830 0.04040 0.21810 0.06400
H 	H 	0.94770 0.01500 0.20440 0.04900
C 	C 	0.92420 0.02010 0.40830 -0.10300
H 	H 	0.94070 0.96310 0.38510 0.08800
H 	H 	0.85150 0.02350 0.43550 0.09000
C 	C 	0.75070 0.11660 0.30850 0.08100
H 	H 	0.73280 0.14430 0.35690 0.04200
C 	C 	0.90860 0.42210 0.96140 -0.11300
H 	H 	0.84090 0.45700 0.97360 0.09400
H 	H 	0.91280 0.37870 0.00190 0.09100
C 	C 	0.70030 0.07200 0.18820 0.06500
C 	C 	0.80330 0.03650 0.16700 -0.08100
H 	H 	0.82260 0.00970 0.11820 0.09900
C 	C 	0.83320 0.24530 0.91550 0.05200
H 	H 	0.89440 0.22750 0.93810 0.06100
C 	C 	0.99980 0.47810 0.96110 -0.09300
H 	H 	0.99480 0.52150 0.92070 0.07400
H 	H 	0.06700 0.44310 0.94780 0.07600
C 	C 	0.67420 0.11280 0.25990 -0.12000
H 	H 	0.60490 0.13760 0.27520 0.09400
O 	O 	0.56280 0.99970 0.14320 -0.13000
O 	O 	0.64780 0.08120 0.05730 -0.10300
N 	N 	0.85110 0.08120 0.28790 -0.11200
C 	C 	0.59550 0.08320 0.14650 0.46000
O 	O 	0.58890 0.08800 0.91320 -0.18100
N 	N 	0.82420 0.32330 0.88220 -0.10500
O 	O 	0.49800 0.18620 0.84610 -0.22900
O 	O 	0.51650 0.13730 0.16520 -0.26200
U 	U 	0.50000 0.00000 -0.00000 0.00700
