data_crystal

_cell_length_a 18.67000
_cell_length_b 24.31000
_cell_length_c 14.01000
_cell_angle_alpha 89.25800
_cell_angle_beta  135.71900
_cell_angle_gamma 90.78900

_symmetry_space_group_name_	'P 1'
_symmetry_space_group_name_H-M	'P 1'

loop_
_symmetry_equiv_pos_as_xyz
  x,y,z

loop_
_atom_site_label
_atom_site_type_symbol
_atom_site_fract_x
_atom_site_fract_y
_atom_site_fract_z
_atom_site_charge
C 	C 	0.75060 0.37490 0.78810 -0.00400
C 	C 	0.77040 0.37720 0.63660 -0.00500
C 	C 	0.94700 0.57310 0.91030 0.40500
C 	C 	0.57280 0.57620 0.52760 0.38500
C 	C 	0.76000 0.67690 0.72040 0.36900
C 	C 	0.76030 0.40740 0.71300 -0.07600
C 	C 	0.75990 0.47140 0.71480 0.37200
C 	C 	0.85820 0.59120 0.51010 0.04100
C 	C 	0.85490 0.59080 0.40650 -0.06700
C 	C 	0.76450 0.57560 0.27340 0.02600
C 	C 	0.68030 0.56020 0.24880 -0.06500
C 	C 	0.68760 0.56010 0.35540 0.03700
C 	C 	0.67010 0.59710 0.93150 0.04000
C 	C 	0.67470 0.59890 0.03610 -0.05900
C 	C 	0.75800 0.57450 0.16380 0.02000
C 	C 	0.83370 0.54780 0.18180 -0.05900
C 	C 	0.82500 0.54590 0.07390 0.03400
C 	C 	0.75890 0.74080 0.72680 -0.08200
C 	C 	0.76940 0.77770 0.65720 -0.01000
C 	C 	0.76760 0.83680 0.66680 0.01300
C 	C 	0.75520 0.86030 0.74650 0.00700
C 	C 	0.74480 0.82400 0.81510 -0.04900
C 	C 	0.74660 0.76610 0.80540 0.00900
C 	C 	0.75340 0.91940 0.75610 -0.00400
C 	C 	0.76390 0.95630 0.68650 -0.09900
C 	C 	0.77610 0.93100 0.60790 0.02300
C 	C 	0.77800 0.87310 0.59820 -0.05600
C 	C 	0.13570 0.12360 0.01260 0.00900
C 	C 	0.24300 0.12250 0.13620 0.00600
C 	C 	0.27700 0.11990 0.26450 0.01200
C 	C 	0.20260 0.11800 0.26650 -0.05500
C 	C 	0.09710 0.11890 0.14470 0.02300
C 	C 	0.38430 0.11900 0.38810 -0.00300
C 	C 	0.45940 0.12050 0.38590 -0.09500
C 	C 	0.42280 0.12280 0.25590 0.01800
C 	C 	0.31730 0.12390 0.13410 -0.05100
C 	C 	0.13340 0.58230 0.02560 0.01800
C 	C 	0.24070 0.58110 0.14910 -0.01100
C 	C 	0.27470 0.57490 0.27710 0.05200
C 	C 	0.20040 0.57040 0.27880 -0.06800
C 	C 	0.09490 0.57190 0.15700 0.03200
C 	C 	0.38200 0.57340 0.40060 -0.06900
C 	C 	0.45720 0.57810 0.39880 -0.05900
C 	C 	0.42050 0.58480 0.26940 0.00300
C 	C 	0.31500 0.58610 0.14760 -0.03700
C 	C 	0.76260 0.01640 0.70460 0.38100
C 	C 	0.75100 0.31610 0.78680 -0.00400
C 	C 	0.77090 0.31840 0.63530 -0.00400
C 	C 	0.57500 0.11990 0.51470 0.39300
C 	C 	0.94930 0.11750 0.89760 0.40400
C 	C 	0.76120 0.28590 0.71040 -0.07700
C 	C 	0.76170 0.22190 0.70890 0.37200
C 	C 	0.85550 0.09910 0.49600 0.03500
C 	C 	0.85140 0.09750 0.39180 -0.06100
C 	C 	0.76510 0.11880 0.26140 0.02000
C 	C 	0.68610 0.14250 0.24030 -0.06000
C 	C 	0.69440 0.14440 0.34790 0.03200
C 	C 	0.66720 0.09800 0.91760 0.04100
C 	C 	0.67090 0.09830 0.02160 -0.06600
C 	C 	0.75850 0.11770 0.15180 0.02600
C 	C 	0.83960 0.13730 0.17310 -0.06500
C 	C 	0.83170 0.13750 0.06600 0.03700
C 	C 	0.05830 0.57770 0.02740 -0.11800
C 	C 	0.06050 0.12190 0.01470 -0.11200
H 	H 	0.74210 0.39560 0.85260 0.04400
H 	H 	0.77860 0.39980 0.57300 0.04200
H 	H 	0.93120 0.60440 0.61750 0.01400
H 	H 	0.92550 0.60260 0.43050 0.04400
H 	H 	0.60580 0.54790 0.14180 0.04700
H 	H 	0.61900 0.54620 0.33450 0.01800
H 	H 	0.60320 0.61790 0.82880 0.02400
H 	H 	0.61080 0.62010 0.01730 0.04500
H 	H 	0.90220 0.52750 0.28430 0.04300
H 	H 	0.88610 0.52320 0.08890 0.01800
H 	H 	0.77940 0.75920 0.59260 0.04200
H 	H 	0.73460 0.84090 0.88080 0.04000
H 	H 	0.73800 0.73800 0.86230 0.03900
H 	H 	0.74320 0.93630 0.82180 0.04100
H 	H 	0.78510 0.95730 0.54910 0.03600
H 	H 	0.78800 0.85460 0.53360 0.04200
H 	H 	0.10880 0.12590 0.90950 0.03900
H 	H 	0.22730 0.11580 0.36820 0.04200
H 	H 	0.03840 0.11710 0.14910 0.03700
H 	H 	0.40900 0.11700 0.48980 0.04100
H 	H 	0.47920 0.12390 0.24730 0.03500
H 	H 	0.29070 0.12590 0.03110 0.04100
H 	H 	0.10650 0.58700 0.92270 0.03700
H 	H 	0.22500 0.56540 0.38010 0.05900
H 	H 	0.03610 0.56840 0.16110 0.03700
H 	H 	0.40670 0.56820 0.50200 0.21100
H 	H 	0.47690 0.58940 0.26120 0.03900
H 	H 	0.28830 0.59140 0.04500 0.03900
H 	H 	0.74270 0.29350 0.85020 0.04200
H 	H 	0.77940 0.29770 0.57090 0.04100
H 	H 	0.92480 0.08080 0.60090 0.01600
H 	H 	0.91800 0.07900 0.41310 0.04200
H 	H 	0.61510 0.16010 0.13560 0.04300
H 	H 	0.63050 0.16480 0.33030 0.01800
H 	H 	0.59670 0.08150 0.81270 0.01400
H 	H 	0.60290 0.08290 0.00020 0.04400
H 	H 	0.91170 0.15320 0.27780 0.04400
H 	H 	0.89730 0.15480 0.08390 0.01600
N 	N 	0.74480 0.57090 0.95200 -0.24400
N 	N 	0.77490 0.57610 0.48300 -0.24800
N 	N 	0.74720 0.11740 0.94140 -0.24800
N 	N 	0.77740 0.12230 0.47240 -0.24600
O 	O 	0.88590 0.57200 0.92340 -0.48500
O 	O 	0.60980 0.57350 0.64730 -0.45000
O 	O 	0.74990 0.64750 0.78700 -0.45600
O 	O 	0.75000 0.49710 0.78480 -0.44900
O 	O 	0.63410 0.57740 0.51470 -0.47700
O 	O 	0.90990 0.57490 0.79030 -0.46900
O 	O 	0.76960 0.49980 0.64670 -0.45100
O 	O 	0.77070 0.65210 0.65000 -0.44500
O 	O 	0.77270 0.04570 0.63780 -0.45800
O 	O 	0.75180 0.04120 0.77470 -0.44900
O 	O 	0.61210 0.11830 0.63470 -0.46500
O 	O 	0.88790 0.11630 0.91040 -0.48500
O 	O 	0.75210 0.19350 0.77710 -0.45200
O 	O 	0.91230 0.11990 0.77780 -0.46800
O 	O 	0.63620 0.12090 0.50160 -0.47900
O 	O 	0.77170 0.19620 0.63900 -0.45200
O 	O 	0.41990 0.54180 0.55770 -0.27000
Zn	Zn	0.74690 0.57200 0.81710 1.26300
Zn	Zn	0.77310 0.57620 0.61870 1.26000
Zn	Zn	0.74900 0.11720 0.80580 1.26000
Zn	Zn	0.77530 0.12120 0.60750 1.26200
