data_crystal

_cell_length_a 7.29730
_cell_length_b 7.94800
_cell_length_c 13.82240
_cell_angle_alpha 90.00000
_cell_angle_beta  90.00000
_cell_angle_gamma 90.00000

_symmetry_space_group_name_	'P 1'
_symmetry_space_group_name_H-M	'P 1'

loop_
_symmetry_equiv_pos_as_xyz
  x,y,z

loop_
_atom_site_label
_atom_site_type_symbol
_atom_site_fract_x
_atom_site_fract_y
_atom_site_fract_z
_atom_site_charge
Zn	Zn	0.75924 0.71943 0.66453 1.25200
O 	O 	0.58650 0.92540 0.66291 -0.39400
O 	O 	0.90375 0.80618 0.78854 -0.36000
O 	O 	0.60870 0.60502 0.77203 -0.39700
O 	O 	0.61923 0.61081 0.54686 -0.36800
O 	O 	0.91920 0.86982 0.57341 -0.37400
O 	O 	0.92287 0.50424 0.64373 -0.37100
C 	C 	0.50866 0.69260 0.49474 0.41500
H 	H 	0.49250 0.80890 0.50820 -0.08000
C 	C 	0.50097 0.98458 0.73352 0.44800
H 	H 	0.52050 0.93500 0.79520 -0.09300
C 	C 	0.99169 0.94291 0.78645 0.40300
H 	H 	0.99290 0.00370 0.72730 -0.08100
Zn	Zn	0.74076 0.28057 0.16453 1.25100
O 	O 	0.91350 0.07460 0.16291 -0.39600
O 	O 	0.59625 0.19382 0.28854 -0.36000
O 	O 	0.89130 0.39498 0.27203 -0.39500
O 	O 	0.88077 0.38919 0.04686 -0.36600
O 	O 	0.58080 0.13018 0.07341 -0.37700
O 	O 	0.57713 0.49576 0.14373 -0.37100
C 	C 	0.99134 0.30740 0.99474 0.41300
H 	H 	0.00750 0.19110 0.00820 -0.08100
C 	C 	0.99903 0.01542 0.23352 0.45000
H 	H 	0.97950 0.06500 0.29520 -0.09300
C 	C 	0.50831 0.05709 0.28645 0.40100
H 	H 	0.50710 0.99630 0.22730 -0.07900
Zn	Zn	0.24076 0.21943 0.83547 1.25100
O 	O 	0.41350 0.42540 0.83709 -0.39600
O 	O 	0.09625 0.30618 0.71146 -0.36100
O 	O 	0.39130 0.10502 0.72797 -0.39500
O 	O 	0.38077 0.11081 0.95314 -0.36500
O 	O 	0.08080 0.36982 0.92659 -0.37600
O 	O 	0.07713 0.00424 0.85627 -0.36800
C 	C 	0.49134 0.19260 0.00526 0.41000
H 	H 	0.50750 0.30890 0.99180 -0.07800
C 	C 	0.49903 0.48458 0.76648 0.45100
H 	H 	0.47950 0.43500 0.70480 -0.09300
C 	C 	0.00831 0.44291 0.71355 0.40700
H 	H 	0.00710 0.50370 0.77270 -0.08200
Zn	Zn	0.25924 0.78057 0.33547 1.25100
O 	O 	0.08650 0.57460 0.33709 -0.39500
O 	O 	0.40375 0.69382 0.21146 -0.36100
O 	O 	0.10870 0.89498 0.22797 -0.39700
O 	O 	0.11923 0.88919 0.45314 -0.36700
O 	O 	0.41920 0.63018 0.42659 -0.37800
O 	O 	0.42287 0.99576 0.35627 -0.36900
C 	C 	0.00866 0.80740 0.50526 0.40800
H 	H 	0.99250 0.69110 0.49180 -0.07600
C 	C 	0.00097 0.51542 0.26648 0.44900
H 	H 	0.02050 0.56500 0.20480 -0.09300
C 	C 	0.49169 0.55709 0.21355 0.40800
H 	H 	0.49290 0.49630 0.27270 -0.08200
