data_crystal

_cell_length_a 18.26570
_cell_length_b 18.26570
_cell_length_c 22.37080
_cell_angle_alpha 90.00000
_cell_angle_beta  90.00000
_cell_angle_gamma 120.00000

_symmetry_space_group_name_	'P 1'
_symmetry_space_group_name_H-M	'P 1'

loop_
_symmetry_equiv_pos_as_xyz
  x,y,z

loop_
_atom_site_label
_atom_site_type_symbol
_atom_site_fract_x
_atom_site_fract_y
_atom_site_fract_z
_atom_site_charge
O 	O 	0.47130 0.82200 0.08890 -0.60100
C 	C 	0.53730 0.99250 0.04690 0.23400
C 	C 	0.50500 0.93370 0.99900 0.43700
O 	O 	0.58910 0.99720 0.09300 -0.08000
O 	O 	0.52110 0.88800 0.97300 -0.20400
O 	O 	0.13797 0.15533 0.42223 -0.60000
C 	C 	0.20397 0.32583 0.38023 0.20000
C 	C 	0.17167 0.26703 0.33233 0.40800
O 	O 	0.25577 0.33053 0.42633 -0.08100
O 	O 	0.18777 0.22133 0.30633 -0.20400
O 	O 	0.80463 0.48867 0.75557 -0.59500
C 	C 	0.87063 0.65917 0.71357 0.20000
C 	C 	0.83833 0.60037 0.66567 0.40500
O 	O 	0.92243 0.66387 0.75967 -0.07600
O 	O 	0.85443 0.55467 0.63967 -0.19700
O 	O 	0.17800 0.64930 0.08890 -0.58500
C 	C 	0.00750 0.54480 0.04690 0.16100
C 	C 	0.06630 0.57130 0.99900 0.34200
O 	O 	0.00280 0.59190 0.09300 -0.07600
O 	O 	0.11200 0.63310 0.97300 -0.18700
O 	O 	0.84467 0.98263 0.42223 -0.58200
C 	C 	0.67417 0.87813 0.38023 0.18800
C 	C 	0.73297 0.90463 0.33233 0.38700
O 	O 	0.66947 0.92523 0.42633 -0.07400
O 	O 	0.77867 0.96643 0.30633 -0.18700
O 	O 	0.51133 0.31597 0.75557 -0.59400
C 	C 	0.34083 0.21147 0.71357 0.19000
C 	C 	0.39963 0.23797 0.66567 0.39300
O 	O 	0.33613 0.25857 0.75967 -0.08000
O 	O 	0.44533 0.29977 0.63967 -0.19600
O 	O 	0.35070 0.52870 0.08890 -0.59600
C 	C 	0.45520 0.46270 0.04690 0.19400
C 	C 	0.42870 0.49500 0.99900 0.39900
O 	O 	0.40810 0.41090 0.09300 -0.08100
O 	O 	0.36690 0.47890 0.97300 -0.19900
O 	O 	0.01737 0.86203 0.42223 -0.59900
C 	C 	0.12187 0.79603 0.38023 0.19300
C 	C 	0.09537 0.82833 0.33233 0.39700
O 	O 	0.07477 0.74423 0.42633 -0.08200
O 	O 	0.03357 0.81223 0.30633 -0.19900
O 	O 	0.68403 0.19537 0.75557 -0.59600
C 	C 	0.78853 0.12937 0.71357 0.19500
C 	C 	0.76203 0.16167 0.66567 0.40000
O 	O 	0.74143 0.07757 0.75967 -0.08100
O 	O 	0.70023 0.14557 0.63967 -0.19900
O 	O 	0.82200 0.47130 0.91110 -0.60200
C 	C 	0.99250 0.53730 0.95310 0.23400
C 	C 	0.93370 0.50500 0.00100 0.43700
O 	O 	0.99720 0.58910 0.90700 -0.08000
O 	O 	0.88800 0.52110 0.02700 -0.20400
O 	O 	0.48867 0.80463 0.24443 -0.59500
C 	C 	0.65917 0.87063 0.28643 0.20000
C 	C 	0.60037 0.83833 0.33433 0.40500
O 	O 	0.66387 0.92243 0.24033 -0.07600
O 	O 	0.55467 0.85443 0.36033 -0.19700
O 	O 	0.15533 0.13797 0.57777 -0.60000
C 	C 	0.32583 0.20397 0.61977 0.20000
C 	C 	0.26703 0.17167 0.66767 0.40800
O 	O 	0.33053 0.25577 0.57367 -0.08100
O 	O 	0.22133 0.18777 0.69367 -0.20400
O 	O 	0.64930 0.17800 0.91110 -0.58500
C 	C 	0.54480 0.00750 0.95310 0.16100
C 	C 	0.57130 0.06630 0.00100 0.34200
O 	O 	0.59190 0.00280 0.90700 -0.07600
O 	O 	0.63310 0.11200 0.02700 -0.18700
O 	O 	0.31597 0.51133 0.24443 -0.59400
C 	C 	0.21147 0.34083 0.28643 0.19000
C 	C 	0.23797 0.39963 0.33433 0.39300
O 	O 	0.25857 0.33613 0.24033 -0.08000
O 	O 	0.29977 0.44533 0.36033 -0.19600
O 	O 	0.98263 0.84467 0.57777 -0.58200
C 	C 	0.87813 0.67417 0.61977 0.18800
C 	C 	0.90463 0.73297 0.66767 0.38700
O 	O 	0.92523 0.66947 0.57367 -0.07400
O 	O 	0.96643 0.77867 0.69367 -0.18700
O 	O 	0.52870 0.35070 0.91110 -0.59600
C 	C 	0.46270 0.45520 0.95310 0.19400
C 	C 	0.49500 0.42870 0.00100 0.39900
O 	O 	0.41090 0.40810 0.90700 -0.08100
O 	O 	0.47890 0.36690 0.02700 -0.19900
O 	O 	0.19537 0.68403 0.24443 -0.59600
C 	C 	0.12937 0.78853 0.28643 0.19500
C 	C 	0.16167 0.76203 0.33433 0.40000
O 	O 	0.07757 0.74143 0.24033 -0.08100
O 	O 	0.14557 0.70023 0.36033 -0.19900
O 	O 	0.86203 0.01737 0.57777 -0.59900
C 	C 	0.79603 0.12187 0.61977 0.19300
C 	C 	0.82833 0.09537 0.66767 0.39700
O 	O 	0.74423 0.07477 0.57367 -0.08200
O 	O 	0.81223 0.03357 0.69367 -0.19900
O 	O 	0.52870 0.17800 0.91110 -0.58600
C 	C 	0.46270 0.00750 0.95310 0.16000
C 	C 	0.49500 0.06630 0.00100 0.34300
O 	O 	0.41090 0.00280 0.90700 -0.07800
O 	O 	0.47890 0.11200 0.02700 -0.18900
O 	O 	0.19537 0.51133 0.24443 -0.59500
C 	C 	0.12937 0.34083 0.28643 0.19000
C 	C 	0.16167 0.39963 0.33433 0.39300
O 	O 	0.07757 0.33613 0.24033 -0.08200
O 	O 	0.14557 0.44533 0.36033 -0.19800
O 	O 	0.86203 0.84467 0.57777 -0.58800
C 	C 	0.79603 0.67417 0.61977 0.18800
C 	C 	0.82833 0.73297 0.66767 0.38800
O 	O 	0.74423 0.66947 0.57367 -0.07700
O 	O 	0.81223 0.77867 0.69367 -0.19100
O 	O 	0.82200 0.35070 0.91110 -0.60200
C 	C 	0.99250 0.45520 0.95310 0.23400
C 	C 	0.93370 0.42870 0.00100 0.43800
O 	O 	0.99720 0.40810 0.90700 -0.08100
O 	O 	0.88800 0.36690 0.02700 -0.20600
O 	O 	0.48867 0.68403 0.24443 -0.59600
C 	C 	0.65917 0.78853 0.28643 0.20000
C 	C 	0.60037 0.76203 0.33433 0.40500
O 	O 	0.66387 0.74143 0.24033 -0.07800
O 	O 	0.55467 0.70023 0.36033 -0.19900
O 	O 	0.15533 0.01737 0.57777 -0.60600
C 	C 	0.32583 0.12187 0.61977 0.20000
C 	C 	0.26703 0.09537 0.66767 0.40900
O 	O 	0.33053 0.07477 0.57367 -0.08500
O 	O 	0.22133 0.03357 0.69367 -0.20700
O 	O 	0.64930 0.47130 0.91110 -0.59400
C 	C 	0.54480 0.53730 0.95310 0.19500
C 	C 	0.57130 0.50500 0.00100 0.39700
O 	O 	0.59190 0.58910 0.90700 -0.07800
O 	O 	0.63310 0.52110 0.02700 -0.19600
O 	O 	0.31597 0.80463 0.24443 -0.59400
C 	C 	0.21147 0.87063 0.28643 0.19600
C 	C 	0.23797 0.83833 0.33433 0.39900
O 	O 	0.25857 0.92243 0.24033 -0.07600
O 	O 	0.29977 0.85443 0.36033 -0.19600
O 	O 	0.98263 0.13797 0.57777 -0.58700
C 	C 	0.87813 0.20397 0.61977 0.19400
C 	C 	0.90463 0.17167 0.66767 0.39500
O 	O 	0.92523 0.25577 0.57367 -0.07500
O 	O 	0.96643 0.18777 0.69367 -0.19300
O 	O 	0.17800 0.52870 0.08890 -0.58600
C 	C 	0.00750 0.46270 0.04690 0.16000
C 	C 	0.06630 0.49500 0.99900 0.34300
O 	O 	0.00280 0.41090 0.09300 -0.07800
O 	O 	0.11200 0.47890 0.97300 -0.18900
O 	O 	0.84467 0.86203 0.42223 -0.58800
C 	C 	0.67417 0.79603 0.38023 0.18800
C 	C 	0.73297 0.82833 0.33233 0.38800
O 	O 	0.66947 0.74423 0.42633 -0.07700
O 	O 	0.77867 0.81223 0.30633 -0.19100
O 	O 	0.51133 0.19537 0.75557 -0.59500
C 	C 	0.34083 0.12937 0.71357 0.19000
C 	C 	0.39963 0.16167 0.66567 0.39300
O 	O 	0.33613 0.07757 0.75967 -0.08200
O 	O 	0.44533 0.14557 0.63967 -0.19800
O 	O 	0.35070 0.82200 0.08890 -0.60200
C 	C 	0.45520 0.99250 0.04690 0.23400
C 	C 	0.42870 0.93370 0.99900 0.43800
O 	O 	0.40810 0.99720 0.09300 -0.08100
O 	O 	0.36690 0.88800 0.97300 -0.20600
O 	O 	0.01737 0.15533 0.42223 -0.60600
C 	C 	0.12187 0.32583 0.38023 0.20000
C 	C 	0.09537 0.26703 0.33233 0.40900
O 	O 	0.07477 0.33053 0.42633 -0.08500
O 	O 	0.03357 0.22133 0.30633 -0.20700
O 	O 	0.68403 0.48867 0.75557 -0.59600
C 	C 	0.78853 0.65917 0.71357 0.20000
C 	C 	0.76203 0.60037 0.66567 0.40500
O 	O 	0.74143 0.66387 0.75967 -0.07800
O 	O 	0.70023 0.55467 0.63967 -0.19900
O 	O 	0.47130 0.64930 0.08890 -0.59400
C 	C 	0.53730 0.54480 0.04690 0.19500
C 	C 	0.50500 0.57130 0.99900 0.39700
O 	O 	0.58910 0.59190 0.09300 -0.07800
O 	O 	0.52110 0.63310 0.97300 -0.19600
O 	O 	0.13797 0.98263 0.42223 -0.58700
C 	C 	0.20397 0.87813 0.38023 0.19400
C 	C 	0.17167 0.90463 0.33233 0.39500
O 	O 	0.25577 0.92523 0.42633 -0.07500
O 	O 	0.18777 0.96643 0.30633 -0.19300
O 	O 	0.80463 0.31597 0.75557 -0.59400
C 	C 	0.87063 0.21147 0.71357 0.19600
C 	C 	0.83833 0.23797 0.66567 0.39900
O 	O 	0.92243 0.25857 0.75967 -0.07600
O 	O 	0.85443 0.29977 0.63967 -0.19600
Zn	Zn	0.33333 0.66667 0.07962 1.15100
Zn	Zn	-0.00000 0.00000 0.41295 1.14300
Zn	Zn	0.66667 0.33333 0.74629 1.15200
Zn	Zn	0.66667 0.33333 0.92038 1.15100
Zn	Zn	0.33333 0.66667 0.25371 1.15200
Zn	Zn	-0.00000 0.00000 0.58705 1.14300
Zn	Zn	0.44924 0.72462 0.13770 1.14900
Zn	Zn	0.11591 0.05795 0.47103 1.14600
Zn	Zn	0.78257 0.39129 0.80437 1.14900
Zn	Zn	0.27538 0.72462 0.13770 1.14900
Zn	Zn	0.94205 0.05795 0.47103 1.15100
Zn	Zn	0.60871 0.39129 0.80437 1.14900
Zn	Zn	0.27538 0.55076 0.13770 1.14800
Zn	Zn	0.94205 0.88409 0.47103 1.15400
Zn	Zn	0.60871 0.21743 0.80437 1.14800
Zn	Zn	0.72462 0.44924 0.86230 1.14900
Zn	Zn	0.39129 0.78257 0.19563 1.14900
Zn	Zn	0.05795 0.11591 0.52897 1.14600
Zn	Zn	0.72462 0.27538 0.86230 1.14900
Zn	Zn	0.39129 0.60871 0.19563 1.14900
Zn	Zn	0.05795 0.94205 0.52897 1.15100
Zn	Zn	0.55076 0.27538 0.86230 1.14800
Zn	Zn	0.21743 0.60871 0.19563 1.14800
Zn	Zn	0.88409 0.94205 0.52897 1.15400
O 	O 	0.33333 0.66667 0.16667 -1.54200
O 	O 	-0.00000 0.00000 0.50000 -1.55900
O 	O 	0.66667 0.33333 0.83333 -1.54200
O 	O 	0.43125 0.86250 0.12950 -0.58700
O 	O 	0.39100 0.78200 0.04920 -0.61500
C 	C 	0.46400 0.92800 0.03850 -1.02500
C 	C 	0.42590 0.85180 0.07360 1.45200
O 	O 	0.09792 0.19583 0.46283 -0.58600
O 	O 	0.05767 0.11533 0.38253 -0.61700
C 	C 	0.13067 0.26133 0.37183 -0.96600
C 	C 	0.09257 0.18513 0.40693 1.43000
O 	O 	0.76458 0.52917 0.79617 -0.58100
O 	O 	0.72433 0.44867 0.71587 -0.60800
C 	C 	0.79733 0.59467 0.70517 -0.95600
C 	C 	0.75923 0.51847 0.74027 1.41700
O 	O 	0.13750 0.56875 0.12950 -0.57300
O 	O 	0.21800 0.60900 0.04920 -0.59600
C 	C 	0.07200 0.53600 0.03850 -0.83900
C 	C 	0.14820 0.57410 0.07360 1.36200
O 	O 	0.80417 0.90208 0.46283 -0.57400
O 	O 	0.88467 0.94233 0.38253 -0.59300
C 	C 	0.73867 0.86933 0.37183 -0.91800
C 	C 	0.81487 0.90743 0.40693 1.39000
O 	O 	0.47083 0.23542 0.79617 -0.58100
O 	O 	0.55133 0.27567 0.71587 -0.60600
C 	C 	0.40533 0.20267 0.70517 -0.93300
C 	C 	0.48153 0.24077 0.74027 1.40700
O 	O 	0.43125 0.56875 0.12950 -0.58100
O 	O 	0.39100 0.60900 0.04920 -0.60700
C 	C 	0.46400 0.53600 0.03850 -0.94200
C 	C 	0.42590 0.57410 0.07360 1.41100
O 	O 	0.09792 0.90208 0.46283 -0.57900
O 	O 	0.05767 0.94233 0.38253 -0.60300
C 	C 	0.13067 0.86933 0.37183 -0.93900
C 	C 	0.09257 0.90743 0.40693 1.40700
O 	O 	0.76458 0.23542 0.79617 -0.58100
O 	O 	0.72433 0.27567 0.71587 -0.60700
C 	C 	0.79733 0.20267 0.70517 -0.94600
C 	C 	0.75923 0.24077 0.74027 1.41300
O 	O 	0.86250 0.43125 0.87050 -0.58700
O 	O 	0.78200 0.39100 0.95080 -0.61500
C 	C 	0.92800 0.46400 0.96150 -1.02500
C 	C 	0.85180 0.42590 0.92640 1.45200
O 	O 	0.52917 0.76458 0.20383 -0.58100
O 	O 	0.44867 0.72433 0.28413 -0.60800
C 	C 	0.59467 0.79733 0.29483 -0.95600
C 	C 	0.51847 0.75923 0.25973 1.41700
O 	O 	0.19583 0.09792 0.53717 -0.58600
O 	O 	0.11533 0.05767 0.61747 -0.61700
C 	C 	0.26133 0.13067 0.62817 -0.96600
C 	C 	0.18513 0.09257 0.59307 1.43000
O 	O 	0.56875 0.13750 0.87050 -0.57300
O 	O 	0.60900 0.21800 0.95080 -0.59600
C 	C 	0.53600 0.07200 0.96150 -0.83900
C 	C 	0.57410 0.14820 0.92640 1.36200
O 	O 	0.23542 0.47083 0.20383 -0.58100
O 	O 	0.27567 0.55133 0.28413 -0.60600
C 	C 	0.20267 0.40533 0.29483 -0.93300
C 	C 	0.24077 0.48153 0.25973 1.40700
O 	O 	0.90208 0.80417 0.53717 -0.57400
O 	O 	0.94233 0.88467 0.61747 -0.59300
C 	C 	0.86933 0.73867 0.62817 -0.91800
C 	C 	0.90743 0.81487 0.59307 1.39000
O 	O 	0.56875 0.43125 0.87050 -0.58100
O 	O 	0.60900 0.39100 0.95080 -0.60700
C 	C 	0.53600 0.46400 0.96150 -0.94200
C 	C 	0.57410 0.42590 0.92640 1.41100
O 	O 	0.23542 0.76458 0.20383 -0.58100
O 	O 	0.27567 0.72433 0.28413 -0.60700
C 	C 	0.20267 0.79733 0.29483 -0.94600
C 	C 	0.24077 0.75923 0.25973 1.41300
O 	O 	0.90208 0.09792 0.53717 -0.57900
O 	O 	0.94233 0.05767 0.61747 -0.60300
C 	C 	0.86933 0.13067 0.62817 -0.93900
C 	C 	0.90743 0.09257 0.59307 1.40700
