data_crystal

_cell_length_a 9.41500
_cell_length_b 10.11700
_cell_length_c 14.65700
_cell_angle_alpha 85.81500
_cell_angle_beta  74.70400
_cell_angle_gamma 70.06700

_symmetry_space_group_name_	'P 1'
_symmetry_space_group_name_H-M	'P 1'

loop_
_symmetry_equiv_pos_as_xyz
  x,y,z

loop_
_atom_site_label
_atom_site_type_symbol
_atom_site_fract_x
_atom_site_fract_y
_atom_site_fract_z
_atom_site_charge
C 	C 	0.16020 0.31090 0.97120 0.12300
H 	H 	0.12630 0.40040 0.94690 -0.01600
C 	C 	0.07560 0.22310 0.97350 -0.21800
H 	H 	0.98500 0.25340 0.95230 0.12800
C 	C 	0.12710 0.08980 0.00760 0.19100
C 	C 	0.25910 0.04930 0.04180 -0.20200
H 	H 	0.29530 0.95990 0.06580 0.12000
C 	C 	0.33590 0.14450 0.03940 0.11800
H 	H 	0.42260 0.11880 0.06420 -0.00500
C 	C 	0.62130 0.35880 0.13060 0.39800
C 	C 	0.66290 0.27800 0.21420 -0.14200
C 	C 	0.70310 0.33770 0.28180 0.06500
H 	H 	0.71620 0.42510 0.27160 0.01100
C 	C 	0.72370 0.26680 0.36470 -0.14100
H 	H 	0.74800 0.30880 0.41010 0.07500
C 	C 	0.70890 0.13450 0.38120 0.07700
C 	C 	0.67430 0.07540 0.31070 -0.13300
H 	H 	0.66650 0.98580 0.31920 0.09200
C 	C 	0.65120 0.14460 0.22920 0.07500
H 	H 	0.62750 0.10200 0.18370 0.03500
C 	C 	0.72040 0.05890 0.47110 -0.00600
C 	C 	0.62370 0.12810 0.55640 -0.10700
H 	H 	0.56210 0.22190 0.55560 0.06800
C 	C 	0.61860 0.05870 0.64210 0.08400
C 	C 	0.70990 0.91720 0.64320 0.09300
C 	C 	0.80540 0.84900 0.55920 -0.11600
H 	H 	0.86530 0.75460 0.56000 0.07000
C 	C 	0.81340 0.91950 0.47270 0.00100
C 	C 	0.92890 0.84690 0.38650 0.06400
C 	C 	0.03960 0.90600 0.33580 -0.12200
H 	H 	0.03810 0.99150 0.35610 0.08300
C 	C 	0.15110 0.84020 0.25610 0.05400
H 	H 	0.22680 0.87920 0.22520 0.03900
C 	C 	0.15100 0.71520 0.22140 -0.13400
C 	C 	0.03910 0.65710 0.27050 0.05500
H 	H 	0.03690 0.57450 0.24780 0.01600
C 	C 	0.93090 0.72020 0.35250 -0.13200
H 	H 	0.85900 0.67830 0.38540 0.07000
C 	C 	0.27420 0.64400 0.13590 0.38900
C 	C 	0.78050 0.71010 0.73040 -0.22800
H 	H 	0.76650 0.67850 0.79450 0.11200
H 	H 	0.88980 0.69080 0.70160 0.10200
H 	H 	0.73930 0.66150 0.69560 0.10600
C 	C 	0.44950 0.26590 0.73020 -0.23100
H 	H 	0.39070 0.29590 0.79380 0.11200
H 	H 	0.37980 0.28730 0.68960 0.10000
H 	H 	0.52400 0.31400 0.70880 0.10900
N 	N 	0.28980 0.27270 0.00260 -0.26400
N 	N 	0.05810 0.97620 0.01270 -0.09600
O 	O 	0.66690 0.46240 0.10587 -0.46200
O 	O 	0.53860 0.31920 0.09100 -0.47200
O 	O 	0.25540 0.54470 0.09947 -0.46900
O 	O 	0.38920 0.68720 0.10736 -0.46100
O 	O 	0.52980 0.11780 0.72774 -0.14900
O 	O 	0.70000 0.85780 0.72967 -0.14800
Zn	Zn	0.41299 0.40701 0.99519 1.21300
C 	C 	0.83980 0.68910 0.02880 0.12400
H 	H 	0.87370 0.59960 0.05310 -0.01500
C 	C 	0.92440 0.77690 0.02650 -0.21700
H 	H 	0.01500 0.74660 0.04770 0.12900
C 	C 	0.87290 0.91020 0.99240 0.19200
C 	C 	0.74090 0.95070 0.95820 -0.20100
H 	H 	0.70470 0.04010 0.93420 0.12100
C 	C 	0.66410 0.85550 0.96060 0.11900
H 	H 	0.57740 0.88120 0.93580 -0.00400
C 	C 	0.37870 0.64120 0.86940 0.39900
C 	C 	0.33710 0.72200 0.78580 -0.14100
C 	C 	0.29690 0.66230 0.71820 0.06600
H 	H 	0.28380 0.57490 0.72840 0.01100
C 	C 	0.27630 0.73320 0.63530 -0.14100
H 	H 	0.25200 0.69120 0.58990 0.07500
C 	C 	0.29110 0.86550 0.61880 0.07700
C 	C 	0.32570 0.92460 0.68930 -0.13300
H 	H 	0.33350 0.01420 0.68080 0.09200
C 	C 	0.34880 0.85540 0.77080 0.07500
H 	H 	0.37250 0.89800 0.81630 0.03500
C 	C 	0.27960 0.94110 0.52890 -0.00600
C 	C 	0.37630 0.87190 0.44360 -0.10700
H 	H 	0.43790 0.77810 0.44440 0.06800
C 	C 	0.38140 0.94130 0.35790 0.08400
C 	C 	0.29010 0.08280 0.35680 0.09300
C 	C 	0.19460 0.15100 0.44080 -0.11600
H 	H 	0.13470 0.24540 0.44000 0.07000
C 	C 	0.18660 0.08050 0.52730 0.00100
C 	C 	0.07110 0.15310 0.61350 0.06400
C 	C 	0.96040 0.09400 0.66420 -0.12200
H 	H 	0.96190 0.00850 0.64390 0.08300
C 	C 	0.84890 0.15980 0.74390 0.05400
H 	H 	0.77320 0.12080 0.77480 0.03900
C 	C 	0.84900 0.28480 0.77860 -0.13400
C 	C 	0.96090 0.34290 0.72950 0.05500
H 	H 	0.96310 0.42550 0.75220 0.01600
C 	C 	0.06910 0.27980 0.64750 -0.13200
H 	H 	0.14100 0.32170 0.61460 0.07000
C 	C 	0.72580 0.35600 0.86410 0.38900
C 	C 	0.21950 0.28990 0.26960 -0.22800
H 	H 	0.23350 0.32150 0.20550 0.11200
H 	H 	0.11020 0.30920 0.29840 0.10200
H 	H 	0.26070 0.33850 0.30440 0.10600
C 	C 	0.55050 0.73410 0.26980 -0.23100
H 	H 	0.60930 0.70410 0.20620 0.11200
H 	H 	0.62020 0.71270 0.31040 0.10000
H 	H 	0.47600 0.68600 0.29120 0.10900
N 	N 	0.71020 0.72730 0.99740 -0.26400
N 	N 	0.94190 0.02380 0.98730 -0.09600
O 	O 	0.33310 0.53760 0.89413 -0.46200
O 	O 	0.46140 0.68080 0.90900 -0.47200
O 	O 	0.74460 0.45530 0.90053 -0.46900
O 	O 	0.61080 0.31280 0.89264 -0.46100
O 	O 	0.47020 0.88220 0.27226 -0.14900
O 	O 	0.30000 0.14220 0.27033 -0.14800
Zn	Zn	0.58701 0.59299 0.00481 1.21300
