data_crystal

_cell_length_a 17.36440
_cell_length_b 16.21220
_cell_length_c 16.20030
_cell_angle_alpha 90.00000
_cell_angle_beta  103.51700
_cell_angle_gamma 90.00000

_symmetry_space_group_name_	'P 1'
_symmetry_space_group_name_H-M	'P 1'

loop_
_symmetry_equiv_pos_as_xyz
  x,y,z

loop_
_atom_site_label
_atom_site_type_symbol
_atom_site_fract_x
_atom_site_fract_y
_atom_site_fract_z
_atom_site_charge
C 	C 	0.66330 0.34710 0.57250 0.04700
H 	H 	0.66570 0.32430 0.62570 0.01900
C 	C 	0.61070 0.31300 0.50270 -0.07400
H 	H 	0.57900 0.26860 0.50960 0.07400
C 	C 	0.60630 0.34530 0.42470 -0.00900
H 	H 	0.57130 0.32350 0.37730 0.06800
C 	C 	0.65510 0.41190 0.41630 -0.02100
C 	C 	0.65530 0.45190 0.33790 0.06500
C 	C 	0.70160 0.51820 0.33170 0.03600
C 	C 	0.75720 0.54920 0.40450 -0.02000
C 	C 	0.80960 0.61380 0.40130 0.00200
H 	H 	0.80830 0.64060 0.35020 0.04400
C 	C 	0.86230 0.63740 0.47270 -0.09100
H 	H 	0.89800 0.67990 0.47130 0.07400
C 	C 	0.86200 0.59670 0.54850 0.06900
H 	H 	0.89890 0.61250 0.59740 -0.02900
C 	C 	0.75980 0.51180 0.48320 0.04100
C 	C 	0.70750 0.44320 0.48910 0.03500
C 	C 	0.63270 0.49640 0.20780 0.12400
H 	H 	0.61110 0.50050 0.14980 0.00500
C 	C 	0.57330 0.58600 0.52040 -0.11200
C 	C 	0.56890 0.61470 0.44080 0.01000
H 	H 	0.60070 0.65870 0.43260 0.04600
C 	C 	0.51690 0.57870 0.37120 -0.04000
H 	H 	0.51390 0.59890 0.31680 0.06900
C 	C 	0.52650 0.51790 0.53600 0.04800
C 	C 	0.47100 0.51450 0.38280 -0.06900
H 	H 	0.43690 0.49100 0.33580 0.07400
C 	C 	0.88170 0.32940 0.51100 -0.10300
C 	C 	0.89220 0.37050 0.44140 -0.01300
H 	H 	0.92810 0.41400 0.44750 0.05700
C 	C 	0.84880 0.34740 0.36020 -0.02500
H 	H 	0.85620 0.37550 0.31260 0.04400
C 	C 	0.79630 0.28450 0.35100 -0.08200
H 	H 	0.76800 0.27020 0.29680 0.07400
C 	C 	0.78320 0.24000 0.42150 0.05500
C 	C 	0.72810 0.32630 0.91430 -0.11300
C 	C 	0.71850 0.36720 0.98450 0.00700
H 	H 	0.68210 0.41010 0.97870 0.04800
C 	C 	0.76260 0.34550 0.06510 -0.03900
H 	H 	0.75570 0.37460 0.11240 0.05000
C 	C 	0.81530 0.28280 0.07530 -0.06900
H 	H 	0.84380 0.26870 0.12950 0.07100
C 	C 	0.82760 0.26200 0.50380 0.04300
C 	C 	0.93960 0.36810 0.85850 0.04400
H 	H 	0.94490 0.34340 0.80830 0.01400
C 	C 	0.98640 0.33850 0.93500 -0.07700
H 	H 	0.02240 0.29600 0.93510 0.06200
C 	C 	0.97860 0.37270 0.00930 -0.02000
H 	H 	0.00830 0.35320 0.06100 0.04900
C 	C 	0.92510 0.43770 0.00690 -0.01000
C 	C 	0.91190 0.47800 0.08070 0.03100
C 	C 	0.91400 0.51800 0.20710 0.10700
H 	H 	0.92690 0.52320 0.26590 0.00800
C 	C 	0.85690 0.53970 0.07400 0.06200
C 	C 	0.81050 0.56930 0.99600 -0.03400
C 	C 	0.75690 0.63460 0.98790 -0.01400
H 	H 	0.75040 0.66270 0.03590 0.05600
C 	C 	0.71470 0.65680 0.91030 -0.07600
H 	H 	0.67810 0.69960 0.90400 0.07500
C 	C 	0.72700 0.61450 0.83970 0.04100
H 	H 	0.69680 0.62940 0.78650 0.02200
C 	C 	0.82170 0.53100 0.92160 0.03600
C 	C 	0.87970 0.46450 0.92780 0.02100
Pr	Pr	0.79849 0.48017 0.70445 2.02600
N 	N 	0.71043 0.41064 0.56700 -0.22700
N 	N 	0.81154 0.53640 0.55450 -0.24200
N 	N 	0.68760 0.54660 0.24880 -0.12600
N 	N 	0.61020 0.43830 0.25670 -0.21500
H 	H 	0.57510 0.40050 0.24070 0.14800
N 	N 	0.88810 0.42939 0.85320 -0.23400
N 	N 	0.77960 0.55390 0.84430 -0.24300
N 	N 	0.94810 0.46450 0.16550 -0.14200
N 	N 	0.85870 0.56390 0.15570 -0.21300
H 	H 	0.82990 0.60140 0.17090 0.13600
O 	O 	0.69277 0.57489 0.65240 -0.50900
O 	O 	0.67921 0.69984 0.56970 -0.28700
O 	O 	0.58959 0.67118 0.65930 -0.26900
O 	O 	0.88421 0.38185 0.66383 -0.50900
O 	O 	0.98756 0.29060 0.64700 -0.27500
O 	O 	0.98617 0.43250 0.59690 -0.29400
O 	O 	0.72171 0.38491 0.76377 -0.50400
O 	O 	0.61770 0.42160 0.83050 -0.28800
O 	O 	0.62517 0.28420 0.77630 -0.27500
S 	S 	0.63806 0.63807 0.60613 0.55900
S 	S 	0.94096 0.36172 0.61118 0.53200
S 	S 	0.66689 0.35663 0.81440 0.57000
C 	C 	0.33670 0.84710 0.92750 0.04900
H 	H 	0.33430 0.82430 0.87430 0.01700
C 	C 	0.38930 0.81300 0.99730 -0.08400
H 	H 	0.42100 0.76860 0.99040 0.07500
C 	C 	0.39370 0.84530 0.07530 -0.00200
H 	H 	0.42870 0.82350 0.12270 0.06400
C 	C 	0.34490 0.91190 0.08370 -0.02800
C 	C 	0.34470 0.95190 0.16210 0.06900
C 	C 	0.29840 0.01820 0.16830 0.03200
C 	C 	0.24280 0.04920 0.09550 -0.01900
C 	C 	0.19040 0.11380 0.09870 0.00300
H 	H 	0.19170 0.14060 0.14980 0.04300
C 	C 	0.13770 0.13740 0.02730 -0.09600
H 	H 	0.10200 0.17990 0.02870 0.07500
C 	C 	0.13800 0.09670 0.95150 0.07400
H 	H 	0.10110 0.11250 0.90260 -0.02900
C 	C 	0.24020 0.01180 0.01680 0.03500
C 	C 	0.29250 0.94320 0.01090 0.04200
C 	C 	0.36730 0.99640 0.29220 0.12800
H 	H 	0.38890 0.00050 0.35020 0.00400
C 	C 	0.42670 0.08600 0.97960 -0.10800
C 	C 	0.43110 0.11470 0.05920 0.00100
H 	H 	0.39930 0.15870 0.06740 0.04800
C 	C 	0.48310 0.07870 0.12880 -0.03000
H 	H 	0.48610 0.09890 0.18320 0.06500
C 	C 	0.47350 0.01790 0.96400 0.05200
C 	C 	0.52900 0.01450 0.11720 -0.08300
H 	H 	0.56310 0.99100 0.16420 0.08000
C 	C 	0.11830 0.82940 0.98900 -0.10500
C 	C 	0.10780 0.87050 0.05860 -0.01000
H 	H 	0.07190 0.91400 0.05250 0.05700
C 	C 	0.15120 0.84740 0.13980 -0.02600
H 	H 	0.14380 0.87550 0.18740 0.04400
C 	C 	0.20370 0.78450 0.14900 -0.08100
H 	H 	0.23200 0.77020 0.20320 0.07400
C 	C 	0.21680 0.74000 0.07850 0.05600
C 	C 	0.27190 0.82630 0.58570 -0.11200
C 	C 	0.28150 0.86720 0.51550 0.00400
H 	H 	0.31790 0.91010 0.52130 0.04900
C 	C 	0.23740 0.84550 0.43490 -0.03700
H 	H 	0.24430 0.87460 0.38760 0.05000
C 	C 	0.18470 0.78280 0.42470 -0.07100
H 	H 	0.15620 0.76870 0.37050 0.07100
C 	C 	0.17240 0.76200 0.99620 0.04200
C 	C 	0.06040 0.86810 0.64150 0.04300
H 	H 	0.05510 0.84340 0.69170 0.01500
C 	C 	0.01360 0.83850 0.56500 -0.07300
H 	H 	0.97760 0.79600 0.56490 0.06000
C 	C 	0.02140 0.87270 0.49070 -0.02500
H 	H 	0.99170 0.85320 0.43900 0.05200
C 	C 	0.07490 0.93770 0.49310 -0.00700
C 	C 	0.08810 0.97800 0.41930 0.02900
C 	C 	0.08600 0.01800 0.29290 0.10800
H 	H 	0.07310 0.02320 0.23410 0.00800
C 	C 	0.14310 0.03970 0.42600 0.06400
C 	C 	0.18950 0.06930 0.50400 -0.03600
C 	C 	0.24310 0.13460 0.51210 -0.00900
H 	H 	0.24960 0.16270 0.46410 0.05300
C 	C 	0.28530 0.15680 0.58970 -0.08000
H 	H 	0.32190 0.19960 0.59600 0.07600
C 	C 	0.27300 0.11450 0.66030 0.04300
H 	H 	0.30320 0.12940 0.71350 0.02100
C 	C 	0.17830 0.03100 0.57840 0.04000
C 	C 	0.12030 0.96450 0.57220 0.01800
Pr	Pr	0.20151 0.98017 0.79555 2.02500
N 	N 	0.28957 0.91064 0.93300 -0.23100
N 	N 	0.18846 0.03640 0.94550 -0.24000
N 	N 	0.31240 0.04660 0.25120 -0.12600
N 	N 	0.38980 0.93830 0.24330 -0.21600
H 	H 	0.42490 0.90050 0.25930 0.14900
N 	N 	0.11190 0.92939 0.64680 -0.23300
N 	N 	0.22040 0.05390 0.65570 -0.24300
N 	N 	0.05190 0.96450 0.33450 -0.14200
N 	N 	0.14130 0.06390 0.34430 -0.21300
H 	H 	0.17010 0.10140 0.32910 0.13600
O 	O 	0.30723 0.07489 0.84760 -0.50700
O 	O 	0.32079 0.19984 0.93030 -0.28600
O 	O 	0.41041 0.17118 0.84070 -0.26900
O 	O 	0.11579 0.88185 0.83617 -0.51000
O 	O 	0.01244 0.79060 0.85300 -0.27500
O 	O 	0.01383 0.93250 0.90310 -0.29500
O 	O 	0.27829 0.88491 0.73623 -0.50400
O 	O 	0.38230 0.92160 0.66950 -0.28800
O 	O 	0.37483 0.78420 0.72370 -0.27500
S 	S 	0.36194 0.13807 0.89387 0.55800
S 	S 	0.05904 0.86172 0.88882 0.53200
S 	S 	0.33311 0.85663 0.68560 0.57000
C 	C 	0.33670 0.65290 0.42750 0.04600
H 	H 	0.33430 0.67570 0.37430 0.01800
C 	C 	0.38930 0.68700 0.49730 -0.07500
H 	H 	0.42100 0.73140 0.49040 0.07300
C 	C 	0.39370 0.65470 0.57530 -0.01000
H 	H 	0.42870 0.67650 0.62270 0.06700
C 	C 	0.34490 0.58810 0.58370 -0.02200
C 	C 	0.34470 0.54810 0.66210 0.06400
C 	C 	0.29840 0.48180 0.66830 0.03500
C 	C 	0.24280 0.45080 0.59550 -0.02100
C 	C 	0.19040 0.38620 0.59870 0.00200
H 	H 	0.19170 0.35940 0.64980 0.04400
C 	C 	0.13770 0.36260 0.52730 -0.09100
H 	H 	0.10200 0.32010 0.52870 0.07400
C 	C 	0.13800 0.40330 0.45150 0.06900
H 	H 	0.10110 0.38750 0.40260 -0.02900
C 	C 	0.24020 0.48820 0.51680 0.04100
C 	C 	0.29250 0.55680 0.51090 0.03500
C 	C 	0.36730 0.50360 0.79220 0.12400
H 	H 	0.38890 0.49950 0.85020 0.00500
C 	C 	0.42670 0.41400 0.47960 -0.11200
C 	C 	0.43110 0.38530 0.55920 0.01000
H 	H 	0.39930 0.34130 0.56740 0.04600
C 	C 	0.48310 0.42130 0.62880 -0.04000
H 	H 	0.48610 0.40110 0.68320 0.06900
C 	C 	0.47350 0.48210 0.46400 0.04800
C 	C 	0.52900 0.48550 0.61720 -0.06900
H 	H 	0.56310 0.50900 0.66420 0.07400
C 	C 	0.11830 0.67060 0.48900 -0.10300
C 	C 	0.10780 0.62950 0.55860 -0.01300
H 	H 	0.07190 0.58600 0.55250 0.05700
C 	C 	0.15120 0.65260 0.63980 -0.02500
H 	H 	0.14380 0.62450 0.68740 0.04400
C 	C 	0.20370 0.71550 0.64900 -0.08200
H 	H 	0.23200 0.72980 0.70320 0.07400
C 	C 	0.21680 0.76000 0.57850 0.05500
C 	C 	0.27190 0.67370 0.08570 -0.11300
C 	C 	0.28150 0.63280 0.01550 0.00700
H 	H 	0.31790 0.58990 0.02130 0.04800
C 	C 	0.23740 0.65450 0.93490 -0.03900
H 	H 	0.24430 0.62540 0.88760 0.05000
C 	C 	0.18470 0.71720 0.92470 -0.06900
H 	H 	0.15620 0.73130 0.87050 0.07100
C 	C 	0.17240 0.73800 0.49620 0.04300
C 	C 	0.06040 0.63190 0.14150 0.04400
H 	H 	0.05510 0.65660 0.19170 0.01400
C 	C 	0.01360 0.66150 0.06500 -0.07700
H 	H 	0.97760 0.70400 0.06490 0.06200
C 	C 	0.02140 0.62730 0.99070 -0.02000
H 	H 	0.99170 0.64680 0.93900 0.04900
C 	C 	0.07490 0.56230 0.99310 -0.01000
C 	C 	0.08810 0.52200 0.91930 0.03100
C 	C 	0.08600 0.48200 0.79290 0.10700
H 	H 	0.07310 0.47680 0.73410 0.00800
C 	C 	0.14310 0.46030 0.92600 0.06200
C 	C 	0.18950 0.43070 0.00400 -0.03400
C 	C 	0.24310 0.36540 0.01210 -0.01400
H 	H 	0.24960 0.33730 0.96410 0.05600
C 	C 	0.28530 0.34320 0.08970 -0.07600
H 	H 	0.32190 0.30040 0.09600 0.07500
C 	C 	0.27300 0.38550 0.16030 0.04100
H 	H 	0.30320 0.37060 0.21350 0.02200
C 	C 	0.17830 0.46900 0.07840 0.03600
C 	C 	0.12030 0.53550 0.07220 0.02100
Pr	Pr	0.20151 0.51983 0.29555 2.02600
N 	N 	0.28957 0.58936 0.43300 -0.22700
N 	N 	0.18846 0.46360 0.44550 -0.24200
N 	N 	0.31240 0.45340 0.75120 -0.12600
N 	N 	0.38980 0.56170 0.74330 -0.21500
H 	H 	0.42490 0.59950 0.75930 0.14800
N 	N 	0.11190 0.57061 0.14680 -0.23400
N 	N 	0.22040 0.44610 0.15570 -0.24300
N 	N 	0.05190 0.53550 0.83450 -0.14200
N 	N 	0.14130 0.43610 0.84430 -0.21300
H 	H 	0.17010 0.39860 0.82910 0.13600
O 	O 	0.30723 0.42511 0.34760 -0.50900
O 	O 	0.32079 0.30016 0.43030 -0.28700
O 	O 	0.41041 0.32882 0.34070 -0.26900
O 	O 	0.11579 0.61815 0.33617 -0.50900
O 	O 	0.01244 0.70940 0.35300 -0.27500
O 	O 	0.01383 0.56750 0.40310 -0.29400
O 	O 	0.27829 0.61509 0.23623 -0.50400
O 	O 	0.38230 0.57840 0.16950 -0.28800
O 	O 	0.37483 0.71580 0.22370 -0.27500
S 	S 	0.36194 0.36193 0.39387 0.55900
S 	S 	0.05904 0.63828 0.38882 0.53200
S 	S 	0.33311 0.64337 0.18560 0.57000
C 	C 	0.66330 0.15290 0.07250 0.04900
H 	H 	0.66570 0.17570 0.12570 0.01700
C 	C 	0.61070 0.18700 0.00270 -0.08400
H 	H 	0.57900 0.23140 0.00960 0.07500
C 	C 	0.60630 0.15470 0.92470 -0.00200
H 	H 	0.57130 0.17650 0.87730 0.06400
C 	C 	0.65510 0.08810 0.91630 -0.02800
C 	C 	0.65530 0.04810 0.83790 0.06900
C 	C 	0.70160 0.98180 0.83170 0.03200
C 	C 	0.75720 0.95080 0.90450 -0.01900
C 	C 	0.80960 0.88620 0.90130 0.00300
H 	H 	0.80830 0.85940 0.85020 0.04300
C 	C 	0.86230 0.86260 0.97270 -0.09600
H 	H 	0.89800 0.82010 0.97130 0.07500
C 	C 	0.86200 0.90330 0.04850 0.07400
H 	H 	0.89890 0.88750 0.09740 -0.02900
C 	C 	0.75980 0.98820 0.98320 0.03500
C 	C 	0.70750 0.05680 0.98910 0.04200
C 	C 	0.63270 0.00360 0.70780 0.12800
H 	H 	0.61110 0.99950 0.64980 0.00400
C 	C 	0.57330 0.91400 0.02040 -0.10800
C 	C 	0.56890 0.88530 0.94080 0.00100
H 	H 	0.60070 0.84130 0.93260 0.04800
C 	C 	0.51690 0.92130 0.87120 -0.03000
H 	H 	0.51390 0.90110 0.81680 0.06500
C 	C 	0.52650 0.98210 0.03600 0.05200
C 	C 	0.47100 0.98550 0.88280 -0.08300
H 	H 	0.43690 0.00900 0.83580 0.08000
C 	C 	0.88170 0.17060 0.01100 -0.10500
C 	C 	0.89220 0.12950 0.94140 -0.01000
H 	H 	0.92810 0.08600 0.94750 0.05700
C 	C 	0.84880 0.15260 0.86020 -0.02600
H 	H 	0.85620 0.12450 0.81260 0.04400
C 	C 	0.79630 0.21550 0.85100 -0.08100
H 	H 	0.76800 0.22980 0.79680 0.07400
C 	C 	0.78320 0.26000 0.92150 0.05600
C 	C 	0.72810 0.17370 0.41430 -0.11200
C 	C 	0.71850 0.13280 0.48450 0.00400
H 	H 	0.68210 0.08990 0.47870 0.04900
C 	C 	0.76260 0.15450 0.56510 -0.03700
H 	H 	0.75570 0.12540 0.61240 0.05000
C 	C 	0.81530 0.21720 0.57530 -0.07100
H 	H 	0.84380 0.23130 0.62950 0.07100
C 	C 	0.82760 0.23800 0.00380 0.04200
C 	C 	0.93960 0.13190 0.35850 0.04300
H 	H 	0.94490 0.15660 0.30830 0.01500
C 	C 	0.98640 0.16150 0.43500 -0.07300
H 	H 	0.02240 0.20400 0.43510 0.06000
C 	C 	0.97860 0.12730 0.50930 -0.02500
H 	H 	0.00830 0.14680 0.56100 0.05200
C 	C 	0.92510 0.06230 0.50690 -0.00700
C 	C 	0.91190 0.02200 0.58070 0.02900
C 	C 	0.91400 0.98200 0.70710 0.10800
H 	H 	0.92690 0.97680 0.76590 0.00800
C 	C 	0.85690 0.96030 0.57400 0.06400
C 	C 	0.81050 0.93070 0.49600 -0.03600
C 	C 	0.75690 0.86540 0.48790 -0.00900
H 	H 	0.75040 0.83730 0.53590 0.05300
C 	C 	0.71470 0.84320 0.41030 -0.08000
H 	H 	0.67810 0.80040 0.40400 0.07600
C 	C 	0.72700 0.88550 0.33970 0.04300
H 	H 	0.69680 0.87060 0.28650 0.02100
C 	C 	0.82170 0.96900 0.42160 0.04000
C 	C 	0.87970 0.03550 0.42780 0.01800
Pr	Pr	0.79849 0.01983 0.20445 2.02500
N 	N 	0.71043 0.08936 0.06700 -0.23100
N 	N 	0.81154 0.96360 0.05450 -0.24000
N 	N 	0.68760 0.95340 0.74880 -0.12600
N 	N 	0.61020 0.06170 0.75670 -0.21600
H 	H 	0.57510 0.09950 0.74070 0.14900
N 	N 	0.88810 0.07061 0.35320 -0.23300
N 	N 	0.77960 0.94610 0.34430 -0.24300
N 	N 	0.94810 0.03550 0.66550 -0.14200
N 	N 	0.85870 0.93610 0.65570 -0.21300
H 	H 	0.82990 0.89860 0.67090 0.13600
O 	O 	0.69277 0.92511 0.15240 -0.50700
O 	O 	0.67921 0.80016 0.06970 -0.28600
O 	O 	0.58959 0.82882 0.15930 -0.26900
O 	O 	0.88421 0.11815 0.16383 -0.51000
O 	O 	0.98756 0.20940 0.14700 -0.27500
O 	O 	0.98617 0.06750 0.09690 -0.29500
O 	O 	0.72171 0.11509 0.26377 -0.50400
O 	O 	0.61770 0.07840 0.33050 -0.28800
O 	O 	0.62517 0.21580 0.27630 -0.27500
S 	S 	0.63806 0.86193 0.10613 0.55800
S 	S 	0.94096 0.13828 0.11118 0.53200
S 	S 	0.66689 0.14337 0.31440 0.57000
