data_crystal

_cell_length_a 8.69700
_cell_length_b 25.05000
_cell_length_c 11.63800
_cell_angle_alpha 90.00000
_cell_angle_beta  104.01000
_cell_angle_gamma 90.00000

_symmetry_space_group_name_	'P 1'
_symmetry_space_group_name_H-M	'P 1'

loop_
_symmetry_equiv_pos_as_xyz
  x,y,z

loop_
_atom_site_label
_atom_site_type_symbol
_atom_site_fract_x
_atom_site_fract_y
_atom_site_fract_z
_atom_site_charge
Cu	Cu	0.58793 0.03319 0.60365 0.93400
Cu	Cu	0.27507 0.08485 0.40521 0.94500
Cl	Cl	0.75889 0.10140 0.60414 -0.44500
O 	O 	0.35670 0.05262 0.66777 -0.34900
O 	O 	0.18480 0.03370 0.49698 -0.42900
O 	O 	0.34070 0.97848 0.22751 -0.37300
O 	O 	0.18080 0.04856 0.22133 -0.33800
O 	O 	0.57550 0.37437 0.87524 -0.36600
O 	O 	0.66640 0.33427 0.04910 -0.27400
O 	O 	0.36240 0.14424 0.33200 -0.36200
O 	O 	0.56500 0.10552 0.27630 -0.28700
O 	O 	0.47420 0.04340 0.43822 -0.62000
H 	H 	0.54550 0.05670 0.39120 0.21400
N 	N 	0.15880 0.01098 0.79894 -0.06200
N 	N 	0.42830 0.26219 0.00930 -0.07100
C 	C 	0.09710 0.05014 0.85180 0.02700
H 	H 	0.03210 0.07560 0.80590 0.06100
C 	C 	0.12900 0.05315 0.97360 -0.04300
H 	H 	0.08640 0.08070 0.00980 0.07100
C 	C 	0.22470 0.01499 0.04160 -0.03000
C 	C 	0.29090 0.97591 0.98460 -0.04700
H 	H 	0.35890 0.95060 0.02830 0.07700
C 	C 	0.25580 0.97468 0.86260 0.03000
H 	H 	0.30000 0.94830 0.82430 0.05500
C 	C 	0.11430 0.00653 0.66780 -0.30700
H 	H 	0.01010 0.02210 0.63800 0.16600
H 	H 	0.10760 0.96910 0.64600 0.16000
C 	C 	0.23150 0.03409 0.60900 0.41200
C 	C 	0.25060 0.01485 0.17610 0.33700
C 	C 	0.32420 0.26132 0.07750 0.03300
H 	H 	0.24440 0.28690 0.06680 0.05900
C 	C 	0.33480 0.22277 0.16330 -0.04900
H 	H 	0.26330 0.22260 0.21120 0.07500
C 	C 	0.45200 0.18431 0.17820 -0.02300
C 	C 	0.55750 0.18577 0.10590 -0.05900
H 	H 	0.63710 0.16030 0.11400 0.07100
C 	C 	0.54260 0.22544 0.02210 0.04500
H 	H 	0.61330 0.22670 0.97370 0.03900
C 	C 	0.42140 0.30504 0.92130 -0.27500
H 	H 	0.32740 0.32660 0.91680 0.15400
H 	H 	0.41410 0.28940 0.84390 0.13800
C 	C 	0.56880 0.34056 0.95490 0.39100
C 	C 	0.46320 0.14025 0.27000 0.31800
Cu	Cu	0.91207 0.53319 0.89635 0.93300
Cu	Cu	0.22493 0.58485 0.09479 0.94400
Cl	Cl	0.74111 0.60140 0.89586 -0.44700
O 	O 	0.14330 0.55262 0.83223 -0.35000
O 	O 	0.31520 0.53370 0.00302 -0.42900
O 	O 	0.15930 0.47848 0.27249 -0.37300
O 	O 	0.31920 0.54856 0.27867 -0.33700
O 	O 	0.92450 0.87437 0.62476 -0.36700
O 	O 	0.83360 0.83427 0.45090 -0.27500
O 	O 	0.13760 0.64424 0.16800 -0.36200
O 	O 	0.93500 0.60552 0.22370 -0.28700
O 	O 	0.02580 0.54340 0.06178 -0.62100
H 	H 	0.95450 0.55670 0.10880 0.21400
N 	N 	0.34120 0.51098 0.70106 -0.06200
N 	N 	0.07170 0.76219 0.49070 -0.07000
C 	C 	0.40290 0.55014 0.64820 0.02900
H 	H 	0.46790 0.57560 0.69410 0.06100
C 	C 	0.37100 0.55315 0.52640 -0.04600
H 	H 	0.41360 0.58070 0.49020 0.07300
C 	C 	0.27530 0.51499 0.45840 -0.02800
C 	C 	0.20910 0.47591 0.51540 -0.04900
H 	H 	0.14110 0.45060 0.47170 0.07700
C 	C 	0.24420 0.47468 0.63740 0.03100
H 	H 	0.20000 0.44830 0.67570 0.05400
C 	C 	0.38570 0.50653 0.83220 -0.30800
H 	H 	0.48990 0.52210 0.86200 0.16600
H 	H 	0.39240 0.46910 0.85400 0.16000
C 	C 	0.26850 0.53409 0.89100 0.41300
C 	C 	0.24940 0.51485 0.32390 0.33600
C 	C 	0.17580 0.76132 0.42250 0.03400
H 	H 	0.25560 0.78690 0.43320 0.05900
C 	C 	0.16520 0.72277 0.33670 -0.04900
H 	H 	0.23670 0.72260 0.28880 0.07500
C 	C 	0.04800 0.68431 0.32180 -0.02300
C 	C 	0.94250 0.68577 0.39410 -0.05900
H 	H 	0.86290 0.66030 0.38600 0.07100
C 	C 	0.95740 0.72544 0.47790 0.04400
H 	H 	0.88670 0.72670 0.52630 0.04000
C 	C 	0.07860 0.80504 0.57870 -0.27400
H 	H 	0.17260 0.82660 0.58320 0.15400
H 	H 	0.08590 0.78940 0.65610 0.13800
C 	C 	0.93120 0.84056 0.54510 0.39100
C 	C 	0.03680 0.64025 0.23000 0.31800
Cu	Cu	0.41207 0.96681 0.39635 0.93300
Cu	Cu	0.72493 0.91515 0.59479 0.94400
Cl	Cl	0.24111 0.89860 0.39586 -0.44600
O 	O 	0.64330 0.94738 0.33223 -0.35000
O 	O 	0.81520 0.96630 0.50302 -0.42900
O 	O 	0.65930 0.02152 0.77249 -0.37300
O 	O 	0.81920 0.95144 0.77867 -0.33800
O 	O 	0.42450 0.62563 0.12476 -0.36600
O 	O 	0.33360 0.66573 0.95090 -0.27400
O 	O 	0.63760 0.85576 0.66800 -0.36200
O 	O 	0.43500 0.89448 0.72370 -0.28700
O 	O 	0.52580 0.95660 0.56178 -0.62000
H 	H 	0.45450 0.94330 0.60880 0.21400
N 	N 	0.84120 0.98902 0.20106 -0.06200
N 	N 	0.57170 0.73781 0.99070 -0.07100
C 	C 	0.90290 0.94986 0.14820 0.02700
H 	H 	0.96790 0.92440 0.19410 0.06100
C 	C 	0.87100 0.94685 0.02640 -0.04300
H 	H 	0.91360 0.91930 0.99020 0.07100
C 	C 	0.77530 0.98501 0.95840 -0.03000
C 	C 	0.70910 0.02409 0.01540 -0.04700
H 	H 	0.64110 0.04940 0.97170 0.07700
C 	C 	0.74420 0.02532 0.13740 0.03000
H 	H 	0.70000 0.05170 0.17570 0.05500
C 	C 	0.88570 0.99347 0.33220 -0.30700
H 	H 	0.98990 0.97790 0.36200 0.16600
H 	H 	0.89240 0.03090 0.35400 0.16000
C 	C 	0.76850 0.96591 0.39100 0.41200
C 	C 	0.74940 0.98515 0.82390 0.33700
C 	C 	0.67580 0.73868 0.92250 0.03300
H 	H 	0.75560 0.71310 0.93320 0.05900
C 	C 	0.66520 0.77723 0.83670 -0.04900
H 	H 	0.73670 0.77740 0.78880 0.07500
C 	C 	0.54800 0.81569 0.82180 -0.02300
C 	C 	0.44250 0.81423 0.89410 -0.05900
H 	H 	0.36290 0.83970 0.88600 0.07100
C 	C 	0.45740 0.77456 0.97790 0.04500
H 	H 	0.38670 0.77330 0.02630 0.03900
C 	C 	0.57860 0.69496 0.07870 -0.27500
H 	H 	0.67260 0.67340 0.08320 0.15400
H 	H 	0.58590 0.71060 0.15610 0.13800
C 	C 	0.43120 0.65944 0.04510 0.39100
C 	C 	0.53680 0.85975 0.73000 0.31800
Cu	Cu	0.08793 0.46681 0.10365 0.93300
Cu	Cu	0.77507 0.41515 0.90521 0.94400
Cl	Cl	0.25889 0.39860 0.10414 -0.44700
O 	O 	0.85670 0.44738 0.16777 -0.35000
O 	O 	0.68480 0.46630 0.99698 -0.42900
O 	O 	0.84070 0.52152 0.72751 -0.37300
O 	O 	0.68080 0.45144 0.72133 -0.33700
O 	O 	0.07550 0.12563 0.37524 -0.36700
O 	O 	0.16640 0.16573 0.54910 -0.27500
O 	O 	0.86240 0.35576 0.83200 -0.36200
O 	O 	0.06500 0.39448 0.77630 -0.28700
O 	O 	0.97420 0.45660 0.93822 -0.62100
H 	H 	0.04550 0.44330 0.89120 0.21400
N 	N 	0.65880 0.48902 0.29894 -0.06200
N 	N 	0.92830 0.23781 0.50930 -0.07000
C 	C 	0.59710 0.44986 0.35180 0.02900
H 	H 	0.53210 0.42440 0.30590 0.06100
C 	C 	0.62900 0.44685 0.47360 -0.04600
H 	H 	0.58640 0.41930 0.50980 0.07300
C 	C 	0.72470 0.48501 0.54160 -0.02800
C 	C 	0.79090 0.52409 0.48460 -0.04900
H 	H 	0.85890 0.54940 0.52830 0.07700
C 	C 	0.75580 0.52532 0.36260 0.03100
H 	H 	0.80000 0.55170 0.32430 0.05400
C 	C 	0.61430 0.49347 0.16780 -0.30800
H 	H 	0.51010 0.47790 0.13800 0.16600
H 	H 	0.60760 0.53090 0.14600 0.16000
C 	C 	0.73150 0.46591 0.10900 0.41300
C 	C 	0.75060 0.48515 0.67610 0.33600
C 	C 	0.82420 0.23868 0.57750 0.03400
H 	H 	0.74440 0.21310 0.56680 0.05900
C 	C 	0.83480 0.27723 0.66330 -0.04900
H 	H 	0.76330 0.27740 0.71120 0.07500
C 	C 	0.95200 0.31569 0.67820 -0.02300
C 	C 	0.05750 0.31423 0.60590 -0.05900
H 	H 	0.13710 0.33970 0.61400 0.07100
C 	C 	0.04260 0.27456 0.52210 0.04400
H 	H 	0.11330 0.27330 0.47370 0.04000
C 	C 	0.92140 0.19496 0.42130 -0.27400
H 	H 	0.82740 0.17340 0.41680 0.15400
H 	H 	0.91410 0.21060 0.34390 0.13800
C 	C 	0.06880 0.15944 0.45490 0.39100
C 	C 	0.96320 0.35975 0.77000 0.31800
