data_crystal

_cell_length_a 16.54780
_cell_length_b 16.54780
_cell_length_c 12.43530
_cell_angle_alpha 90.00000
_cell_angle_beta  90.00000
_cell_angle_gamma 120.00000

_symmetry_space_group_name_	'P 1'
_symmetry_space_group_name_H-M	'P 1'

loop_
_symmetry_equiv_pos_as_xyz
  x,y,z

loop_
_atom_site_label
_atom_site_type_symbol
_atom_site_fract_x
_atom_site_fract_y
_atom_site_fract_z
_atom_site_charge
O 	O 	0.18800 0.59710 0.30560 -0.38100
O 	O 	0.24180 0.51320 0.38620 -0.38500
O 	O 	0.06970 0.18170 0.36630 -0.10500
C 	C 	0.08390 0.43460 0.34100 -0.06500
C 	C 	0.08320 0.35180 0.34370 -0.06700
H 	H 	0.13970 0.35070 0.35250 0.07300
C 	C 	0.17880 0.52390 0.34510 0.32400
C 	C 	0.33380 0.38470 0.47550 -0.49800
H 	H 	0.32870 0.38760 0.55380 0.16200
H 	H 	0.30230 0.31930 0.45250 0.17400
H 	H 	0.30450 0.41670 0.44080 0.16800
C 	C 	0.43750 0.28430 0.47110 -0.52400
H 	H 	0.40630 0.24610 0.40780 0.17600
H 	H 	0.39130 0.27130 0.52770 0.16700
H 	H 	0.48430 0.26940 0.49740 0.15200
C 	C 	0.48200 0.38090 0.44270 0.13900
C 	C 	0.43420 0.43110 0.44450 0.10900
O 	O 	0.40290 0.59090 0.63893 -0.38000
O 	O 	0.48680 0.72860 0.71953 -0.38400
O 	O 	0.81830 0.88800 0.69963 -0.10000
C 	C 	0.56540 0.64930 0.67433 -0.06500
C 	C 	0.64820 0.73140 0.67703 -0.06900
H 	H 	0.64930 0.78900 0.68583 0.07400
C 	C 	0.47610 0.65490 0.67843 0.32400
C 	C 	0.61530 0.94910 0.80883 -0.48000
H 	H 	0.61240 0.94110 0.88713 0.16000
H 	H 	0.68070 0.98300 0.78583 0.17200
H 	H 	0.58330 0.88780 0.77413 0.16400
C 	C 	0.71570 0.15320 0.80443 -0.53300
H 	H 	0.75390 0.16020 0.74113 0.17900
H 	H 	0.72870 0.12000 0.86103 0.16900
H 	H 	0.73060 0.21490 0.83073 0.15500
C 	C 	0.61910 0.10110 0.77603 0.14600
C 	C 	0.56890 0.00310 0.77783 0.09200
O 	O 	0.40910 0.81200 0.97227 -0.37400
O 	O 	0.27140 0.75820 0.05287 -0.38300
O 	O 	0.11200 0.93030 0.03297 -0.10300
C 	C 	0.35070 0.91610 0.00767 -0.06200
C 	C 	0.26860 0.91680 0.01037 -0.06600
H 	H 	0.21100 0.86030 0.01917 0.07200
C 	C 	0.34510 0.82120 0.01177 0.31800
C 	C 	0.05090 0.66620 0.14217 -0.51200
H 	H 	0.05890 0.67130 0.22047 0.16500
H 	H 	0.01700 0.69770 0.11917 0.17600
H 	H 	0.11220 0.69550 0.10747 0.17200
C 	C 	0.84680 0.56250 0.13777 -0.52000
H 	H 	0.83980 0.59370 0.07447 0.17500
H 	H 	0.88000 0.60870 0.19437 0.16700
H 	H 	0.78510 0.51570 0.16407 0.15100
C 	C 	0.89890 0.51800 0.10937 0.13400
C 	C 	0.99690 0.56580 0.11117 0.12000
O 	O 	0.81200 0.40290 0.80560 -0.37900
O 	O 	0.75820 0.48680 0.88620 -0.38300
O 	O 	0.93030 0.81830 0.86630 -0.09600
C 	C 	0.91610 0.56540 0.84100 -0.05900
C 	C 	0.91680 0.64820 0.84370 -0.06100
H 	H 	0.86030 0.64930 0.85250 0.07200
C 	C 	0.82120 0.47610 0.84510 0.32300
C 	C 	0.66620 0.61530 0.97550 -0.48800
H 	H 	0.67130 0.61240 0.05380 0.15700
H 	H 	0.69770 0.68070 0.95250 0.17300
H 	H 	0.69550 0.58330 0.94080 0.16600
C 	C 	0.56250 0.71570 0.97110 -0.51100
H 	H 	0.59370 0.75390 0.90780 0.17300
H 	H 	0.60870 0.72870 0.02770 0.16100
H 	H 	0.51570 0.73060 0.99740 0.15000
C 	C 	0.51800 0.61910 0.94270 0.13700
C 	C 	0.56580 0.56890 0.94450 0.10900
O 	O 	0.59710 0.40910 0.13893 -0.38100
O 	O 	0.51320 0.27140 0.21953 -0.38400
O 	O 	0.18170 0.11200 0.19963 -0.10500
C 	C 	0.43460 0.35070 0.17433 -0.06600
C 	C 	0.35180 0.26860 0.17703 -0.06800
H 	H 	0.35070 0.21100 0.18583 0.07300
C 	C 	0.52390 0.34510 0.17843 0.32400
C 	C 	0.38470 0.05090 0.30883 -0.51100
H 	H 	0.38760 0.05890 0.38713 0.16400
H 	H 	0.31930 0.01700 0.28583 0.17600
H 	H 	0.41670 0.11220 0.27413 0.17200
C 	C 	0.28430 0.84680 0.30443 -0.52100
H 	H 	0.24610 0.83980 0.24113 0.17600
H 	H 	0.27130 0.88000 0.36103 0.16700
H 	H 	0.26940 0.78510 0.33073 0.15200
C 	C 	0.38090 0.89890 0.27603 0.13500
C 	C 	0.43110 0.99690 0.27783 0.12000
O 	O 	0.59090 0.18800 0.47227 -0.38000
O 	O 	0.72860 0.24180 0.55287 -0.38400
O 	O 	0.88800 0.06970 0.53297 -0.10300
C 	C 	0.64930 0.08390 0.50767 -0.06400
C 	C 	0.73140 0.08320 0.51037 -0.06700
H 	H 	0.78900 0.13970 0.51917 0.07300
C 	C 	0.65490 0.17880 0.51177 0.32400
C 	C 	0.94910 0.33380 0.64217 -0.48200
H 	H 	0.94110 0.32870 0.72047 0.15900
H 	H 	0.98300 0.30230 0.61917 0.17200
H 	H 	0.88780 0.30450 0.60747 0.16400
C 	C 	0.15320 0.43750 0.63777 -0.53000
H 	H 	0.16020 0.40630 0.57447 0.17800
H 	H 	0.12000 0.39130 0.69437 0.16800
H 	H 	0.21490 0.48430 0.66407 0.15400
C 	C 	0.10110 0.48200 0.60937 0.14500
C 	C 	0.00310 0.43420 0.61117 0.09500
O 	O 	0.59710 0.18800 0.02773 -0.38200
O 	O 	0.51320 0.24180 0.94713 -0.38400
O 	O 	0.18170 0.06970 0.96703 -0.10500
C 	C 	0.43460 0.08390 0.99233 -0.06500
C 	C 	0.35180 0.08320 0.98963 -0.06800
H 	H 	0.35070 0.13970 0.98083 0.07300
C 	C 	0.52390 0.17880 0.98823 0.32600
C 	C 	0.38470 0.33380 0.85783 -0.49900
H 	H 	0.38760 0.32870 0.77953 0.16200
H 	H 	0.31930 0.30230 0.88083 0.17400
H 	H 	0.41670 0.30450 0.89253 0.16900
C 	C 	0.28430 0.43750 0.86223 -0.52500
H 	H 	0.24610 0.40630 0.92553 0.17700
H 	H 	0.27130 0.39130 0.80563 0.16700
H 	H 	0.26940 0.48430 0.83593 0.15300
C 	C 	0.38090 0.48200 0.89063 0.14000
C 	C 	0.43110 0.43420 0.88883 0.10900
O 	O 	0.59090 0.40290 0.69440 -0.38000
O 	O 	0.72860 0.48680 0.61380 -0.38400
O 	O 	0.88800 0.81830 0.63370 -0.10100
C 	C 	0.64930 0.56540 0.65900 -0.06500
C 	C 	0.73140 0.64820 0.65630 -0.06900
H 	H 	0.78900 0.64930 0.64750 0.07400
C 	C 	0.65490 0.47610 0.65490 0.32400
C 	C 	0.94910 0.61530 0.52450 -0.48200
H 	H 	0.94110 0.61240 0.44620 0.15900
H 	H 	0.98300 0.68070 0.54750 0.17200
H 	H 	0.88780 0.58330 0.55920 0.16500
C 	C 	0.15320 0.71570 0.52890 -0.53100
H 	H 	0.16020 0.75390 0.59220 0.17800
H 	H 	0.12000 0.72870 0.47230 0.16900
H 	H 	0.21490 0.73060 0.50260 0.15500
C 	C 	0.10110 0.61910 0.55730 0.14500
C 	C 	0.00310 0.56890 0.55550 0.09500
O 	O 	0.81200 0.40910 0.36107 -0.37900
O 	O 	0.75820 0.27140 0.28047 -0.38400
O 	O 	0.93030 0.11200 0.30037 -0.10100
C 	C 	0.91610 0.35070 0.32567 -0.06100
C 	C 	0.91680 0.26860 0.32297 -0.06200
H 	H 	0.86030 0.21100 0.31417 0.07200
C 	C 	0.82120 0.34510 0.32157 0.32400
C 	C 	0.66620 0.05090 0.19117 -0.51100
H 	H 	0.67130 0.05890 0.11287 0.16400
H 	H 	0.69770 0.01700 0.21417 0.17600
H 	H 	0.69550 0.11220 0.22587 0.17200
C 	C 	0.56250 0.84680 0.19557 -0.52000
H 	H 	0.59370 0.83980 0.25887 0.17600
H 	H 	0.60870 0.88000 0.13897 0.16600
H 	H 	0.51570 0.78510 0.16927 0.15100
C 	C 	0.51800 0.89890 0.22397 0.13500
C 	C 	0.56580 0.99690 0.22217 0.11900
O 	O 	0.40290 0.81200 0.52773 -0.37900
O 	O 	0.48680 0.75820 0.44713 -0.38400
O 	O 	0.81830 0.93030 0.46703 -0.09900
C 	C 	0.56540 0.91610 0.49233 -0.06000
C 	C 	0.64820 0.91680 0.48963 -0.06200
H 	H 	0.64930 0.86030 0.48083 0.07200
C 	C 	0.47610 0.82120 0.48823 0.32300
C 	C 	0.61530 0.66620 0.35783 -0.49900
H 	H 	0.61240 0.67130 0.27953 0.16200
H 	H 	0.68070 0.69770 0.38083 0.17500
H 	H 	0.58330 0.69550 0.39253 0.16900
C 	C 	0.71570 0.56250 0.36223 -0.52600
H 	H 	0.75390 0.59370 0.42553 0.17700
H 	H 	0.72870 0.60870 0.30563 0.16800
H 	H 	0.73060 0.51570 0.33593 0.15300
C 	C 	0.61910 0.51800 0.39063 0.14000
C 	C 	0.56890 0.56580 0.38883 0.10900
O 	O 	0.40910 0.59710 0.19440 -0.38000
O 	O 	0.27140 0.51320 0.11380 -0.38500
O 	O 	0.11200 0.18170 0.13370 -0.10500
C 	C 	0.35070 0.43460 0.15900 -0.06600
C 	C 	0.26860 0.35180 0.15630 -0.06800
H 	H 	0.21100 0.35070 0.14750 0.07300
C 	C 	0.34510 0.52390 0.15490 0.32400
C 	C 	0.05090 0.38470 0.02450 -0.51500
H 	H 	0.05890 0.38760 0.94620 0.16600
H 	H 	0.01700 0.31930 0.04750 0.17700
H 	H 	0.11220 0.41670 0.05920 0.17300
C 	C 	0.84680 0.28430 0.02890 -0.53100
H 	H 	0.83980 0.24610 0.09220 0.17800
H 	H 	0.88000 0.27130 0.97230 0.17200
H 	H 	0.78510 0.26940 0.00260 0.15400
C 	C 	0.89890 0.38090 0.05730 0.13800
C 	C 	0.99690 0.43110 0.05550 0.11900
O 	O 	0.18800 0.59090 0.86107 -0.38000
O 	O 	0.24180 0.72860 0.78047 -0.38300
O 	O 	0.06970 0.88800 0.80037 -0.10200
C 	C 	0.08390 0.64930 0.82567 -0.06300
C 	C 	0.08320 0.73140 0.82297 -0.06700
H 	H 	0.13970 0.78900 0.81417 0.07400
C 	C 	0.17880 0.65490 0.82157 0.32400
C 	C 	0.33380 0.94910 0.69117 -0.47900
H 	H 	0.32870 0.94110 0.61287 0.15800
H 	H 	0.30230 0.98300 0.71417 0.17100
H 	H 	0.30450 0.88780 0.72587 0.16400
C 	C 	0.43750 0.15320 0.69557 -0.53100
H 	H 	0.40630 0.16020 0.75887 0.17800
H 	H 	0.39130 0.12000 0.63897 0.16800
H 	H 	0.48430 0.21490 0.66927 0.15400
C 	C 	0.48200 0.10110 0.72397 0.14600
C 	C 	0.43420 0.00310 0.72217 0.09300
Ag	Ag	0.65222 0.34778 0.41667 0.50500
Ag	Ag	0.39649 0.60351 0.41667 0.53000
N 	N 	0.57400 0.42600 0.41667 -0.21100
N 	N 	0.47840 0.52160 0.41667 -0.18700
Ag	Ag	0.65222 0.30444 0.75000 0.50500
Ag	Ag	0.39649 0.79298 0.75000 0.53100
N 	N 	0.57400 0.14800 0.75000 -0.21300
N 	N 	0.47840 0.95680 0.75000 -0.17700
Ag	Ag	0.69556 0.34778 0.08333 0.50400
Ag	Ag	0.20702 0.60351 0.08333 0.52900
N 	N 	0.85200 0.42600 0.08333 -0.21000
N 	N 	0.04320 0.52160 0.08333 -0.19400
Ag	Ag	0.34778 0.65222 0.91667 0.50500
Ag	Ag	0.60351 0.39649 0.91667 0.53100
N 	N 	0.42600 0.57400 0.91667 -0.21000
N 	N 	0.52160 0.47840 0.91667 -0.18700
Ag	Ag	0.34778 0.69556 0.25000 0.50400
Ag	Ag	0.60351 0.20702 0.25000 0.53000
N 	N 	0.42600 0.85200 0.25000 -0.20900
N 	N 	0.52160 0.04320 0.25000 -0.19400
Ag	Ag	0.30444 0.65222 0.58333 0.50400
Ag	Ag	0.79298 0.39649 0.58333 0.53100
N 	N 	0.14800 0.57400 0.58333 -0.21300
N 	N 	0.95680 0.47840 0.58333 -0.17800
N 	N 	-0.00000 0.18210 0.33333 -0.01000
C 	C 	0.00000 0.43500 0.33333 -0.00500
H 	H 	-0.00000 0.49240 0.33333 0.03700
C 	C 	-0.00000 0.27040 0.33333 0.08000
N 	N 	0.81790 0.81790 0.66667 -0.00900
C 	C 	0.56500 0.56500 0.66667 0.00100
H 	H 	0.50760 0.50760 0.66667 0.03700
C 	C 	0.72960 0.72960 0.66667 0.08800
N 	N 	0.18210 0.00000 -0.00000 -0.01000
C 	C 	0.43500 0.00000 -0.00000 -0.00400
H 	H 	0.49240 0.00000 -0.00000 0.03700
C 	C 	0.27040 0.00000 -0.00000 0.08300
N 	N 	0.00000 0.81790 0.83333 -0.01100
C 	C 	0.00000 0.56500 0.83333 -0.00700
H 	H 	-0.00000 0.50760 0.83333 0.03800
C 	C 	0.00000 0.72960 0.83333 0.08000
N 	N 	0.18210 0.18210 0.16667 -0.00800
C 	C 	0.43500 0.43500 0.16667 0.00100
H 	H 	0.49240 0.49240 0.16667 0.03700
C 	C 	0.27040 0.27040 0.16667 0.08600
N 	N 	0.81790 0.00000 0.50000 -0.01100
C 	C 	0.56500 0.00000 0.50000 -0.00600
H 	H 	0.50760 0.00000 0.50000 0.03700
C 	C 	0.72960 0.00000 0.50000 0.08000
