data_crystal

_cell_length_a 8.21340
_cell_length_b 16.97400
_cell_length_c 19.39600
_cell_angle_alpha 90.00000
_cell_angle_beta  101.13000
_cell_angle_gamma 90.00000

_symmetry_space_group_name_	'P 1'
_symmetry_space_group_name_H-M	'P 1'

loop_
_symmetry_equiv_pos_as_xyz
  x,y,z

loop_
_atom_site_label
_atom_site_type_symbol
_atom_site_fract_x
_atom_site_fract_y
_atom_site_fract_z
_atom_site_charge
C 	C 	0.44010 0.06590 0.12640 0.39400
C 	C 	0.32170 0.10550 0.16750 -0.29400
H 	H 	0.23380 0.13160 0.13490 0.13300
H 	H 	0.27130 0.06570 0.19240 0.12100
C 	C 	0.50340 0.14970 0.28020 -0.05500
H 	H 	0.52200 0.10240 0.30450 0.05000
C 	C 	0.57050 0.22390 0.30010 0.11800
C 	C 	0.69190 0.24670 0.36550 -0.15700
H 	H 	0.74350 0.19960 0.38810 0.08400
H 	H 	0.77840 0.27930 0.35260 0.10900
C 	C 	0.51750 0.25870 0.45910 -0.00900
H 	H 	0.49280 0.20580 0.46470 0.03300
C 	C 	0.46870 0.32180 0.49290 0.01300
H 	H 	0.40220 0.31900 0.52650 0.02900
C 	C 	0.61680 0.36890 0.42350 0.08100
H 	H 	0.67410 0.40310 0.39930 0.02300
N 	N 	0.53050 0.39060 0.47072 -0.21200
N 	N 	0.61080 0.29030 0.41520 -0.09400
N 	N 	0.40640 0.16320 0.21780 -0.02800
N 	N 	0.41220 0.23910 0.19850 -0.05100
N 	N 	0.51050 0.27520 0.24900 -0.08800
O 	O 	0.58980 0.06840 0.14833 -0.32800
O 	O 	0.36830 0.03580 0.06799 -0.46800
C 	C 	0.55990 0.56590 0.37360 0.40200
C 	C 	0.67830 0.60550 0.33250 -0.30200
H 	H 	0.76620 0.63160 0.36510 0.15000
H 	H 	0.72870 0.56570 0.30760 0.14800
C 	C 	0.49660 0.64970 0.21980 -0.05100
H 	H 	0.47800 0.60240 0.19550 0.06100
C 	C 	0.42950 0.72390 0.19990 0.11700
C 	C 	0.30810 0.74670 0.13450 -0.14800
H 	H 	0.25650 0.69960 0.11190 0.07400
H 	H 	0.22160 0.77930 0.14740 0.09900
C 	C 	0.48250 0.75870 0.04090 0.03800
H 	H 	0.50720 0.70580 0.03530 0.01200
C 	C 	0.53130 0.82180 0.00710 -0.09200
H 	H 	0.59780 0.81900 0.97350 0.10000
C 	C 	0.38320 0.86890 0.07650 0.07700
H 	H 	0.32590 0.90310 0.10070 0.03900
N 	N 	0.46950 0.89060 0.02928 -0.18600
N 	N 	0.38920 0.79030 0.08480 -0.10400
N 	N 	0.59360 0.66320 0.28220 -0.02300
N 	N 	0.58780 0.73910 0.30150 -0.04300
N 	N 	0.48950 0.77520 0.25100 -0.08100
O 	O 	0.41020 0.56840 0.35167 -0.30700
O 	O 	0.63170 0.53580 0.43201 -0.43000
C 	C 	0.55990 0.93410 0.87360 0.40100
C 	C 	0.67830 0.89450 0.83250 -0.30300
H 	H 	0.76620 0.86840 0.86510 0.15400
H 	H 	0.72870 0.93430 0.80760 0.16900
C 	C 	0.49660 0.85030 0.71980 -0.05300
H 	H 	0.47800 0.89760 0.69550 0.08000
C 	C 	0.42950 0.77610 0.69990 0.12600
C 	C 	0.30810 0.75330 0.63450 -0.16000
H 	H 	0.25650 0.80040 0.61190 0.09200
H 	H 	0.22160 0.72070 0.64740 0.10600
C 	C 	0.48250 0.74130 0.54090 -0.01000
H 	H 	0.50720 0.79420 0.53530 0.05000
C 	C 	0.53130 0.67820 0.50710 0.01800
H 	H 	0.59780 0.68100 0.47350 0.03200
C 	C 	0.38320 0.63110 0.57650 0.07900
H 	H 	0.32590 0.59690 0.60070 0.02300
N 	N 	0.46950 0.60940 0.52928 -0.21200
N 	N 	0.38920 0.70970 0.58480 -0.09200
N 	N 	0.59360 0.83680 0.78220 -0.02000
N 	N 	0.58780 0.76090 0.80150 -0.04400
N 	N 	0.48950 0.72480 0.75100 -0.08500
O 	O 	0.41020 0.93160 0.85167 -0.27500
O 	O 	0.63170 0.96420 0.93201 -0.37000
C 	C 	0.44010 0.43410 0.62640 0.40000
C 	C 	0.32170 0.39450 0.66750 -0.29700
H 	H 	0.23380 0.36840 0.63490 0.13900
H 	H 	0.27130 0.43430 0.69240 0.14400
C 	C 	0.50340 0.35030 0.78020 -0.05500
H 	H 	0.52200 0.39760 0.80450 0.07000
C 	C 	0.57050 0.27610 0.80010 0.12700
C 	C 	0.69190 0.25330 0.86550 -0.17000
H 	H 	0.74350 0.30040 0.88810 0.10200
H 	H 	0.77840 0.22070 0.85260 0.11500
C 	C 	0.51750 0.24130 0.95910 -0.06200
H 	H 	0.49280 0.29420 0.96470 0.07300
C 	C 	0.46870 0.17820 0.99290 0.13500
H 	H 	0.40220 0.18100 0.02650 -0.04300
C 	C 	0.61680 0.13110 0.92350 0.08400
H 	H 	0.67410 0.09690 0.89930 0.01300
N 	N 	0.53050 0.10940 0.97072 -0.22300
N 	N 	0.61080 0.20970 0.91520 -0.08100
N 	N 	0.40640 0.33680 0.71780 -0.02400
N 	N 	0.41220 0.26090 0.69850 -0.05200
N 	N 	0.51050 0.22480 0.74900 -0.09200
O 	O 	0.58980 0.43160 0.64833 -0.30300
O 	O 	0.36830 0.46420 0.56799 -0.43200
Cu	Cu	0.50000 0.50000 0.50000 0.91200
Cu	Cu	0.50000 0.00000 -0.00000 0.85800
C 	C 	0.94010 0.56590 0.62640 0.42800
C 	C 	0.82170 0.60550 0.66750 -0.31100
H 	H 	0.73380 0.63160 0.63490 0.15000
H 	H 	0.77130 0.56570 0.69240 0.15300
C 	C 	0.00340 0.64970 0.78020 -0.07700
H 	H 	0.02200 0.60240 0.80450 0.07200
C 	C 	0.07050 0.72390 0.80010 0.13200
C 	C 	0.19190 0.74670 0.86550 -0.17400
H 	H 	0.24350 0.69960 0.88810 0.09900
H 	H 	0.27840 0.77930 0.85260 0.11500
C 	C 	0.01750 0.75870 0.95910 -0.12900
H 	H 	0.99280 0.70580 0.96470 0.10900
C 	C 	0.96870 0.82180 0.99290 0.18800
H 	H 	0.90220 0.81900 0.02650 -0.05300
C 	C 	0.11680 0.86890 0.92350 0.08300
H 	H 	0.17410 0.90310 0.89930 0.04300
N 	N 	0.03050 0.89060 0.97072 -0.21500
N 	N 	0.11080 0.79030 0.91520 -0.07000
N 	N 	0.90640 0.66320 0.71780 -0.01000
N 	N 	0.91220 0.73910 0.69850 -0.03600
N 	N 	0.01050 0.77520 0.74900 -0.09300
O 	O 	0.08980 0.56840 0.64833 -0.32400
O 	O 	0.86830 0.53580 0.56799 -0.43200
C 	C 	0.05990 0.06590 0.87360 0.36000
C 	C 	0.17830 0.10550 0.83250 -0.27700
H 	H 	0.26620 0.13160 0.86510 0.13400
H 	H 	0.22870 0.06570 0.80760 0.11800
C 	C 	0.99660 0.14970 0.71980 -0.02700
H 	H 	0.97800 0.10240 0.69550 0.04700
C 	C 	0.92950 0.22390 0.69990 0.10900
C 	C 	0.80810 0.24670 0.63450 -0.14100
H 	H 	0.75650 0.19960 0.61190 0.07600
H 	H 	0.72160 0.27930 0.64740 0.10100
C 	C 	0.98250 0.25870 0.54090 0.08800
H 	H 	0.00720 0.20580 0.53530 -0.01600
C 	C 	0.03130 0.32180 0.50710 -0.07300
H 	H 	0.09780 0.31900 0.47350 0.05700
C 	C 	0.88320 0.36890 0.57650 0.08500
H 	H 	0.82590 0.40310 0.60070 0.02300
N 	N 	0.96950 0.39060 0.52928 -0.18800
N 	N 	0.88920 0.29030 0.58480 -0.11000
N 	N 	0.09360 0.16320 0.78220 -0.04200
N 	N 	0.08780 0.23910 0.80150 -0.05600
N 	N 	0.98950 0.27520 0.75100 -0.07400
O 	O 	0.91020 0.06840 0.85167 -0.29700
O 	O 	0.13170 0.03580 0.93201 -0.42700
C 	C 	0.05990 0.43410 0.37360 0.37100
C 	C 	0.17830 0.39450 0.33250 -0.28700
H 	H 	0.26620 0.36840 0.36510 0.13900
H 	H 	0.22870 0.43430 0.30760 0.13900
C 	C 	0.99660 0.35030 0.21980 -0.02600
H 	H 	0.97800 0.39760 0.19550 0.05800
C 	C 	0.92950 0.27610 0.19990 0.11100
C 	C 	0.80810 0.25330 0.13450 -0.14000
H 	H 	0.75650 0.30040 0.11190 0.07500
H 	H 	0.72160 0.22070 0.14740 0.09800
C 	C 	0.98250 0.24130 0.04090 0.14200
H 	H 	0.00720 0.29420 0.03530 -0.04100
C 	C 	0.03130 0.17820 0.00710 -0.19300
H 	H 	0.09780 0.18100 0.97350 0.13300
C 	C 	0.88320 0.13110 0.07650 0.07800
H 	H 	0.82590 0.09690 0.10070 0.00600
N 	N 	0.96950 0.10940 0.02928 -0.18500
N 	N 	0.88920 0.20970 0.08480 -0.12100
N 	N 	0.09360 0.33680 0.28220 -0.03900
N 	N 	0.08780 0.26090 0.30150 -0.06100
N 	N 	0.98950 0.22480 0.25100 -0.07800
O 	O 	0.91020 0.43160 0.35167 -0.28300
O 	O 	0.13170 0.46420 0.43201 -0.42600
C 	C 	0.94010 0.93410 0.12640 0.43300
C 	C 	0.82170 0.89450 0.16750 -0.31800
H 	H 	0.73380 0.86840 0.13490 0.15600
H 	H 	0.77130 0.93430 0.19240 0.17400
C 	C 	0.00340 0.85030 0.28020 -0.07700
H 	H 	0.02200 0.89760 0.30450 0.08400
C 	C 	0.07050 0.77610 0.30010 0.13400
C 	C 	0.19190 0.75330 0.36550 -0.17500
H 	H 	0.24350 0.80040 0.38810 0.09900
H 	H 	0.27840 0.72070 0.35260 0.11300
C 	C 	0.01750 0.74130 0.45910 -0.09700
H 	H 	0.99280 0.79420 0.46470 0.09300
C 	C 	0.96870 0.67820 0.49290 0.09600
H 	H 	0.90220 0.68100 0.52650 0.00700
C 	C 	0.11680 0.63110 0.42350 0.07500
H 	H 	0.17410 0.59690 0.39930 0.02300
N 	N 	0.03050 0.60940 0.47072 -0.23200
N 	N 	0.11080 0.70970 0.41520 -0.07800
N 	N 	0.90640 0.83680 0.21780 -0.00700
N 	N 	0.91220 0.76090 0.19850 -0.04000
N 	N 	0.01050 0.72480 0.24900 -0.09900
O 	O 	0.08980 0.93160 0.14833 -0.30100
O 	O 	0.86830 0.96420 0.06799 -0.40200
Cu	Cu	-0.00000 0.00000 -0.00000 0.84900
Cu	Cu	0.00000 0.50000 0.50000 0.90400
