data_crystal

_cell_length_a 10.94190
_cell_length_b 11.40470
_cell_length_c 14.49010
_cell_angle_alpha 97.47300
_cell_angle_beta  107.19800
_cell_angle_gamma 105.45800

_symmetry_space_group_name_	'P 1'
_symmetry_space_group_name_H-M	'P 1'

loop_
_symmetry_equiv_pos_as_xyz
  x,y,z

loop_
_atom_site_label
_atom_site_type_symbol
_atom_site_fract_x
_atom_site_fract_y
_atom_site_fract_z
_atom_site_charge
Cu	Cu	0.45012 0.58711 0.44419 0.90300
Cu	Cu	0.21455 0.37504 0.49562 0.90700
Cu	Cu	0.86683 0.79382 0.85658 0.87900
O 	O 	0.52059 0.75050 0.42520 -0.41900
O 	O 	0.73094 0.75220 0.43412 -0.40900
O 	O 	0.02685 0.30545 0.48296 -0.39000
O 	O 	0.03042 0.14340 0.38026 -0.30100
O 	O 	0.52554 0.29240 0.37656 -0.33300
O 	O 	0.37167 0.10590 0.34600 -0.26400
O 	O 	0.04792 0.82910 0.84674 -0.40100
O 	O 	0.09704 0.65230 0.85808 -0.28000
O 	O 	0.55700 0.64910 0.85990 -0.28400
O 	O 	0.70381 0.82800 0.86342 -0.41100
O 	O 	0.61040 0.21090 0.89010 -0.41400
H 	H 	0.64400 0.29260 0.91500 0.23300
O 	O 	0.41520 0.22610 0.89900 -0.27400
O 	O 	0.38002 0.41997 0.46668 -0.74400
H 	H 	0.37200 0.37200 0.41400 0.24900
N 	N 	0.26010 0.58840 0.39888 -0.20000
N 	N 	0.16180 0.50070 0.41794 -0.19600
N 	N 	0.06640 0.61190 0.32735 -0.13400
N 	N 	0.94350 0.82860 0.00095 -0.21400
N 	N 	0.95410 0.85960 0.15614 -0.10500
C 	C 	0.96690 0.65990 0.26690 -0.01900
H 	H 	0.87580 0.60740 0.25870 0.04700
H 	H 	0.97450 0.65620 0.20090 0.05900
C 	C 	0.98800 0.79380 0.31450 -0.12400
H 	H 	0.95800 0.79440 0.37190 0.08300
H 	H 	0.08460 0.84110 0.33850 0.08500
C 	C 	0.91160 0.85740 0.24330 -0.05200
H 	H 	0.81450 0.81280 0.22170 0.07000
H 	H 	0.92810 0.94310 0.27740 0.07300
C 	C 	0.20060 0.65320 0.34540 0.10100
H 	H 	0.24470 0.71960 0.32240 0.00700
C 	C 	0.04710 0.51750 0.37390 0.11100
H 	H 	0.96280 0.47020 0.37460 -0.00000
C 	C 	0.87460 0.81120 0.06180 0.08500
H 	H 	0.78110 0.76980 0.04110 0.02400
C 	C 	0.07520 0.89270 0.06120 0.00500
H 	H 	0.14820 0.91890 0.03890 0.03900
C 	C 	0.08350 0.91210 0.15670 -0.03100
H 	H 	0.16170 0.95320 0.21260 0.05700
C 	C 	0.66970 0.93320 0.41390 -0.11400
C 	C 	0.80050 0.00070 0.42250 0.05000
H 	H 	0.86730 0.96160 0.43110 0.03500
C 	C 	0.83200 0.12560 0.41850 -0.10700
C 	C 	0.73360 0.18370 0.40550 0.05100
H 	H 	0.75660 0.26930 0.40590 0.02900
C 	C 	0.60110 0.11590 0.39190 -0.10500
C 	C 	0.57020 0.99060 0.39750 0.05600
H 	H 	0.48140 0.94470 0.39020 0.04400
C 	C 	0.63870 0.80140 0.42530 0.37500
C 	C 	0.97360 0.19570 0.42640 0.32300
C 	C 	0.49150 0.17600 0.37020 0.32000
C 	C 	0.26780 0.83320 0.85760 -0.10200
C 	C 	0.35850 0.76790 0.85540 0.04700
H 	H 	0.33120 0.68120 0.85030 0.04200
C 	C 	0.48970 0.83080 0.86080 -0.10500
C 	C 	0.52910 0.95850 0.86760 0.05600
H 	H 	0.61660 0.00070 0.86970 0.04800
C 	C 	0.44010 0.02450 0.87150 -0.11100
C 	C 	0.30930 0.96120 0.86620 0.04800
H 	H 	0.24880 0.00570 0.86840 0.04100
C 	C 	0.12670 0.76450 0.85380 0.33800
C 	C 	0.58960 0.76180 0.86110 0.35800
C 	C 	0.48530 0.16340 0.88730 0.36400
Cu	Cu	0.54988 0.41289 0.55581 0.90400
Cu	Cu	0.78545 0.62496 0.50438 0.90800
Cu	Cu	0.13317 0.20618 0.14342 0.87900
O 	O 	0.47941 0.24950 0.57480 -0.41900
O 	O 	0.26906 0.24780 0.56588 -0.40900
O 	O 	0.97315 0.69455 0.51704 -0.39000
O 	O 	0.96958 0.85660 0.61974 -0.30100
O 	O 	0.47446 0.70760 0.62344 -0.33300
O 	O 	0.62833 0.89410 0.65400 -0.26400
O 	O 	0.95208 0.17090 0.15326 -0.40100
O 	O 	0.90296 0.34770 0.14192 -0.28000
O 	O 	0.44300 0.35090 0.14010 -0.28400
O 	O 	0.29619 0.17200 0.13658 -0.41100
O 	O 	0.38960 0.78910 0.10990 -0.41400
H 	H 	0.35600 0.70740 0.08500 0.23300
O 	O 	0.58480 0.77390 0.10100 -0.27400
O 	O 	0.61998 0.58003 0.53332 -0.74400
H 	H 	0.62800 0.62800 0.58600 0.24900
N 	N 	0.73990 0.41160 0.60112 -0.20000
N 	N 	0.83820 0.49930 0.58206 -0.19600
N 	N 	0.93360 0.38810 0.67265 -0.13400
N 	N 	0.05650 0.17140 0.99905 -0.21400
N 	N 	0.04590 0.14040 0.84386 -0.10500
C 	C 	0.03310 0.34010 0.73310 -0.01900
H 	H 	0.12420 0.39260 0.74130 0.04700
H 	H 	0.02550 0.34380 0.79910 0.05900
C 	C 	0.01200 0.20620 0.68550 -0.12400
H 	H 	0.04200 0.20560 0.62810 0.08300
H 	H 	0.91540 0.15890 0.66150 0.08500
C 	C 	0.08840 0.14260 0.75670 -0.05200
H 	H 	0.18550 0.18720 0.77830 0.07000
H 	H 	0.07190 0.05690 0.72260 0.07300
C 	C 	0.79940 0.34680 0.65460 0.10100
H 	H 	0.75530 0.28040 0.67760 0.00700
C 	C 	0.95290 0.48250 0.62610 0.11100
H 	H 	0.03720 0.52980 0.62540 -0.00000
C 	C 	0.12540 0.18880 0.93820 0.08500
H 	H 	0.21890 0.23020 0.95890 0.02400
C 	C 	0.92480 0.10730 0.93880 0.00500
H 	H 	0.85180 0.08110 0.96110 0.03900
C 	C 	0.91650 0.08790 0.84330 -0.03100
H 	H 	0.83830 0.04680 0.78740 0.05700
C 	C 	0.33030 0.06680 0.58610 -0.11400
C 	C 	0.19950 0.99930 0.57750 0.05000
H 	H 	0.13270 0.03840 0.56890 0.03500
C 	C 	0.16800 0.87440 0.58150 -0.10700
C 	C 	0.26640 0.81630 0.59450 0.05100
H 	H 	0.24340 0.73070 0.59410 0.02900
C 	C 	0.39890 0.88410 0.60810 -0.10500
C 	C 	0.42980 0.00940 0.60250 0.05600
H 	H 	0.51860 0.05530 0.60980 0.04400
C 	C 	0.36130 0.19860 0.57470 0.37500
C 	C 	0.02640 0.80430 0.57360 0.32300
C 	C 	0.50850 0.82400 0.62980 0.32000
C 	C 	0.73220 0.16680 0.14240 -0.10200
C 	C 	0.64150 0.23210 0.14460 0.04700
H 	H 	0.66880 0.31880 0.14970 0.04200
C 	C 	0.51030 0.16920 0.13920 -0.10500
C 	C 	0.47090 0.04150 0.13240 0.05600
H 	H 	0.38340 0.99930 0.13030 0.04800
C 	C 	0.55990 0.97550 0.12850 -0.11100
C 	C 	0.69070 0.03880 0.13380 0.04800
H 	H 	0.75120 0.99430 0.13160 0.04100
C 	C 	0.87330 0.23550 0.14620 0.33800
C 	C 	0.41040 0.23820 0.13890 0.35800
C 	C 	0.51470 0.83660 0.11270 0.36400
