data_crystal

_cell_length_a 11.88010
_cell_length_b 13.73230
_cell_length_c 13.98720
_cell_angle_alpha 84.56700
_cell_angle_beta  79.10400
_cell_angle_gamma 79.22500

_symmetry_space_group_name_	'P 1'
_symmetry_space_group_name_H-M	'P 1'

loop_
_symmetry_equiv_pos_as_xyz
  x,y,z

loop_
_atom_site_label
_atom_site_type_symbol
_atom_site_fract_x
_atom_site_fract_y
_atom_site_fract_z
_atom_site_charge
Zn	Zn	0.74378 0.07907 0.23088 1.19400
N 	N 	0.71980 0.09400 0.08400 -0.23400
N 	N 	0.77260 0.22480 0.19200 -0.24400
N 	N 	0.56720 0.10700 0.29540 -0.23900
N 	N 	0.75560 0.08670 0.38190 -0.22900
C 	C 	0.69770 0.02550 0.03340 0.02800
H 	H 	0.69580 0.96140 0.06090 0.01900
C 	C 	0.67680 0.05040 0.93700 -0.05700
H 	H 	0.65830 0.00250 0.90280 0.05200
C 	C 	0.68310 0.14060 0.89390 -0.04900
H 	H 	0.67020 0.15510 0.83020 0.05000
C 	C 	0.70950 0.21360 0.94650 0.02200
C 	C 	0.72700 0.18590 0.04270 0.01500
C 	C 	0.71780 0.31440 0.90880 -0.05800
H 	H 	0.70680 0.33380 0.84520 0.05500
C 	C 	0.74140 0.38120 0.96510 -0.05600
H 	H 	0.74570 0.44560 0.93920 0.05900
C 	C 	0.75980 0.35500 0.06260 0.01600
C 	C 	0.75380 0.25730 0.09890 0.01700
C 	C 	0.78610 0.41770 0.12390 -0.03000
H 	H 	0.79170 0.48290 0.10170 0.04500
C 	C 	0.80360 0.38660 0.21460 -0.08500
H 	H 	0.81900 0.42980 0.25590 0.07800
C 	C 	0.79830 0.28830 0.24520 0.06900
H 	H 	0.81380 0.26610 0.30700 0.01200
C 	C 	0.47440 0.11770 0.25280 0.05000
H 	H 	0.48590 0.11300 0.18560 -0.00000
C 	C 	0.36070 0.13570 0.30390 -0.07200
H 	H 	0.29780 0.14300 0.27150 0.06900
C 	C 	0.34340 0.14250 0.40220 -0.05100
H 	H 	0.26810 0.15580 0.43740 0.07600
C 	C 	0.43960 0.12910 0.45090 0.03000
C 	C 	0.54890 0.11340 0.39370 0.01500
C 	C 	0.65030 0.10260 0.44130 0.02700
C 	C 	0.42740 0.13330 0.55420 -0.07100
H 	H 	0.35350 0.14380 0.59220 0.07100
C 	C 	0.52160 0.12220 0.59730 -0.03900
H 	H 	0.51170 0.12400 0.66470 0.05100
C 	C 	0.63640 0.10760 0.54130 0.00800
C 	C 	0.73840 0.09420 0.58120 -0.02600
H 	H 	0.73360 0.09600 0.64820 0.04400
C 	C 	0.84220 0.07890 0.52360 -0.07900
H 	H 	0.90980 0.06930 0.55020 0.06800
C 	C 	0.84910 0.07740 0.42410 0.05800
H 	H 	0.92220 0.06960 0.38470 0.01500
Zn	Zn	0.25622 0.92093 0.76912 1.19500
N 	N 	0.28020 0.90600 0.91600 -0.23300
N 	N 	0.22740 0.77520 0.80800 -0.24400
N 	N 	0.43280 0.89300 0.70460 -0.23900
N 	N 	0.24440 0.91330 0.61810 -0.22900
C 	C 	0.30230 0.97450 0.96660 0.02800
H 	H 	0.30420 0.03860 0.93910 0.01900
C 	C 	0.32320 0.94960 0.06300 -0.05700
H 	H 	0.34170 0.99750 0.09720 0.05200
C 	C 	0.31690 0.85940 0.10610 -0.04900
H 	H 	0.32980 0.84490 0.16980 0.05000
C 	C 	0.29050 0.78640 0.05350 0.02200
C 	C 	0.27300 0.81410 0.95730 0.01500
C 	C 	0.28220 0.68560 0.09120 -0.05800
H 	H 	0.29320 0.66620 0.15480 0.05500
C 	C 	0.25860 0.61880 0.03490 -0.05600
H 	H 	0.25430 0.55440 0.06080 0.05900
C 	C 	0.24020 0.64500 0.93740 0.01600
C 	C 	0.24620 0.74270 0.90110 0.01700
C 	C 	0.21390 0.58230 0.87610 -0.03000
H 	H 	0.20830 0.51710 0.89830 0.04500
C 	C 	0.19640 0.61340 0.78540 -0.08500
H 	H 	0.18100 0.57020 0.74410 0.07800
C 	C 	0.20170 0.71170 0.75480 0.06900
H 	H 	0.18620 0.73390 0.69300 0.01200
C 	C 	0.52560 0.88230 0.74720 0.05000
H 	H 	0.51410 0.88700 0.81440 -0.00000
C 	C 	0.63930 0.86430 0.69610 -0.07200
H 	H 	0.70220 0.85700 0.72850 0.06900
C 	C 	0.65660 0.85750 0.59780 -0.05100
H 	H 	0.73190 0.84420 0.56260 0.07600
C 	C 	0.56040 0.87090 0.54910 0.03000
C 	C 	0.45110 0.88660 0.60630 0.01500
C 	C 	0.34970 0.89740 0.55870 0.02700
C 	C 	0.57260 0.86670 0.44580 -0.07100
H 	H 	0.64650 0.85620 0.40780 0.07100
C 	C 	0.47840 0.87780 0.40270 -0.03900
H 	H 	0.48830 0.87600 0.33530 0.05100
C 	C 	0.36360 0.89240 0.45870 0.00800
C 	C 	0.26160 0.90580 0.41880 -0.02600
H 	H 	0.26640 0.90400 0.35180 0.04400
C 	C 	0.15780 0.92110 0.47640 -0.07900
H 	H 	0.09020 0.93070 0.44980 0.06800
C 	C 	0.15090 0.92260 0.57590 0.05800
H 	H 	0.07780 0.93040 0.61530 0.01500
O 	O 	0.91190 0.98180 0.21630 -0.39300
O 	O 	0.75720 0.91210 0.24320 -0.38400
O 	O 	0.09190 0.65590 0.55520 -0.28300
O 	O 	0.93690 0.77720 0.57310 -0.50200
H 	H 	0.94720 0.77130 0.62980 0.32300
O 	O 	0.91660 0.76910 0.76140 -0.31500
O 	O 	0.86850 0.62070 0.81400 -0.50600
H 	H 	0.83010 0.62930 0.77010 0.28500
C 	C 	0.86320 0.90610 0.23970 0.31200
C 	C 	0.93350 0.81110 0.27450 -0.10900
C 	C 	0.94610 0.80610 0.37250 0.06100
H 	H 	0.91230 0.86010 0.40980 0.03000
C 	C 	0.00760 0.72280 0.41570 -0.12900
C 	C 	0.05820 0.64310 0.35900 0.05900
H 	H 	0.10270 0.58750 0.38520 0.02700
C 	C 	0.04220 0.64680 0.26320 -0.12800
H 	H 	0.07470 0.59190 0.22680 0.08700
C 	C 	0.97990 0.72840 0.21910 0.06400
C 	C 	0.01780 0.71520 0.52080 0.38800
C 	C 	0.96120 0.72500 0.11680 0.05200
C 	C 	0.96410 0.80610 0.04850 -0.10800
H 	H 	0.97870 0.86550 0.06620 0.08100
C 	C 	0.94540 0.79890 0.95420 0.04000
H 	H 	0.94800 0.85320 0.90930 0.03000
C 	C 	0.92290 0.71040 0.92720 -0.11900
C 	C 	0.92300 0.63000 0.99350 0.04900
H 	H 	0.91030 0.57010 0.97520 0.03200
C 	C 	0.94200 0.63670 0.08790 -0.11500
H 	H 	0.94170 0.58150 0.13180 0.07900
C 	C 	0.90030 0.70180 0.82570 0.39700
O 	O 	0.08810 0.01820 0.78370 -0.39300
O 	O 	0.24280 0.08790 0.75680 -0.38400
O 	O 	0.90810 0.34410 0.44480 -0.28300
O 	O 	0.06310 0.22280 0.42690 -0.50200
H 	H 	0.05280 0.22870 0.37020 0.32300
O 	O 	0.08340 0.23090 0.23860 -0.31500
O 	O 	0.13150 0.37930 0.18600 -0.50600
H 	H 	0.16990 0.37070 0.22990 0.28500
C 	C 	0.13680 0.09390 0.76030 0.31200
C 	C 	0.06650 0.18890 0.72550 -0.10900
C 	C 	0.05390 0.19390 0.62750 0.06100
H 	H 	0.08770 0.13990 0.59020 0.03000
C 	C 	0.99240 0.27720 0.58430 -0.12900
C 	C 	0.94180 0.35690 0.64100 0.05900
H 	H 	0.89730 0.41250 0.61480 0.02700
C 	C 	0.95780 0.35320 0.73680 -0.12800
H 	H 	0.92530 0.40810 0.77320 0.08700
C 	C 	0.02010 0.27160 0.78090 0.06400
C 	C 	0.98220 0.28480 0.47920 0.38800
C 	C 	0.03880 0.27500 0.88320 0.05200
C 	C 	0.03590 0.19390 0.95150 -0.10800
H 	H 	0.02130 0.13450 0.93380 0.08100
C 	C 	0.05460 0.20110 0.04580 0.04000
H 	H 	0.05200 0.14680 0.09070 0.03000
C 	C 	0.07710 0.28960 0.07280 -0.11900
C 	C 	0.07700 0.37000 0.00650 0.04900
H 	H 	0.08970 0.42990 0.02480 0.03200
C 	C 	0.05800 0.36330 0.91210 -0.11500
H 	H 	0.05830 0.41850 0.86820 0.07900
C 	C 	0.09970 0.29820 0.17430 0.39700
