data_crystal

_cell_length_a 9.15860
_cell_length_b 9.50320
_cell_length_c 13.92080
_cell_angle_alpha 95.38300
_cell_angle_beta  91.85100
_cell_angle_gamma 107.70000

_symmetry_space_group_name_	'P 1'
_symmetry_space_group_name_H-M	'P 1'

loop_
_symmetry_equiv_pos_as_xyz
  x,y,z

loop_
_atom_site_label
_atom_site_type_symbol
_atom_site_fract_x
_atom_site_fract_y
_atom_site_fract_z
_atom_site_charge
Sm	Sm	0.20047 0.44117 0.00079 2.67900
O 	O 	0.60580 0.35480 0.04550 -0.55000
O 	O 	0.36890 0.29990 0.97816 -0.55400
O 	O 	0.39090 0.53520 0.13746 -0.20100
H 	H 	0.39600 0.47300 0.17470 0.14000
H 	H 	0.31400 0.49900 0.09700 -0.40600
O 	O 	0.09290 0.63610 0.05021 -0.71300
O 	O 	0.18440 0.43180 0.82860 -0.24000
H 	H 	0.16700 0.41500 0.88680 -0.37800
H 	H 	0.10700 0.38200 0.79190 0.15900
O 	O 	0.98090 0.81040 0.05260 -0.48600
O 	O 	0.61320 0.94210 0.23400 -0.26300
N 	N 	0.35790 0.64720 0.62370 -0.09900
N 	N 	0.38450 0.59380 0.70630 -0.04700
N 	N 	0.52790 0.59580 0.71340 -0.06600
N 	N 	0.59960 0.65020 0.63570 -0.10400
C 	C 	0.49220 0.68220 0.58200 0.14300
C 	C 	0.51820 0.74560 0.48990 -0.10100
C 	C 	0.64280 0.73880 0.43770 0.09200
H 	H 	0.70940 0.69140 0.46120 0.01200
C 	C 	0.67010 0.80030 0.35180 -0.22400
H 	H 	0.75250 0.79250 0.31670 0.12500
C 	C 	0.57270 0.87410 0.31860 0.26000
C 	C 	0.45050 0.88460 0.36880 -0.24300
H 	H 	0.38580 0.93430 0.34560 0.12100
C 	C 	0.42310 0.82110 0.45470 0.09100
H 	H 	0.34010 0.82910 0.48920 0.00800
C 	C 	0.49860 0.96660 0.17630 0.15100
C 	C 	0.53470 0.09980 0.13770 -0.06100
H 	H 	0.63030 0.17030 0.15260 0.06800
C 	C 	0.42710 0.12830 0.07600 -0.14300
C 	C 	0.47060 0.27140 0.03040 0.50500
C 	C 	0.28380 0.02510 0.05510 0.05000
H 	H 	0.21010 0.04660 0.01660 0.00700
C 	C 	0.25090 0.88890 0.09230 -0.11900
C 	C 	0.10030 0.77330 0.06420 0.40700
C 	C 	0.35890 0.85800 0.15230 -0.07300
H 	H 	0.33770 0.76600 0.17590 0.05500
Sm	Sm	0.79953 0.55883 0.99921 2.67800
O 	O 	0.39420 0.64520 0.95450 -0.55100
O 	O 	0.63110 0.70010 0.02184 -0.55500
O 	O 	0.60910 0.46480 0.86254 -0.20200
H 	H 	0.60400 0.52700 0.82530 0.14000
H 	H 	0.68600 0.50100 0.90300 -0.40600
O 	O 	0.90710 0.36390 0.94979 -0.71300
O 	O 	0.81560 0.56820 0.17140 -0.24000
H 	H 	0.83300 0.58500 0.11320 -0.37800
H 	H 	0.89300 0.61800 0.20810 0.15900
O 	O 	0.01910 0.18960 0.94740 -0.48600
O 	O 	0.38680 0.05790 0.76600 -0.26300
N 	N 	0.64210 0.35280 0.37630 -0.09900
N 	N 	0.61550 0.40620 0.29370 -0.04700
N 	N 	0.47210 0.40420 0.28660 -0.06600
N 	N 	0.40040 0.34980 0.36430 -0.10400
C 	C 	0.50780 0.31780 0.41800 0.14300
C 	C 	0.48180 0.25440 0.51010 -0.10100
C 	C 	0.35720 0.26120 0.56230 0.09200
H 	H 	0.29060 0.30860 0.53880 0.01200
C 	C 	0.32990 0.19970 0.64820 -0.22400
H 	H 	0.24750 0.20750 0.68330 0.12500
C 	C 	0.42730 0.12590 0.68140 0.26000
C 	C 	0.54950 0.11540 0.63120 -0.24300
H 	H 	0.61420 0.06570 0.65440 0.12100
C 	C 	0.57690 0.17890 0.54530 0.09100
H 	H 	0.65990 0.17090 0.51080 0.00800
C 	C 	0.50140 0.03340 0.82370 0.15100
C 	C 	0.46530 0.90020 0.86230 -0.06100
H 	H 	0.36970 0.82970 0.84740 0.06800
C 	C 	0.57290 0.87170 0.92400 -0.14300
C 	C 	0.52940 0.72860 0.96960 0.50500
C 	C 	0.71620 0.97490 0.94490 0.05000
H 	H 	0.78990 0.95340 0.98340 0.00700
C 	C 	0.74910 0.11110 0.90770 -0.11900
C 	C 	0.89970 0.22670 0.93580 0.40700
C 	C 	0.64110 0.14200 0.84770 -0.07300
H 	H 	0.66230 0.23400 0.82410 0.05500
