data_crystal

_cell_length_a 9.62500
_cell_length_b 13.51680
_cell_length_c 23.68690
_cell_angle_alpha 90.00000
_cell_angle_beta  111.17400
_cell_angle_gamma 90.00000

_symmetry_space_group_name_	'P 1'
_symmetry_space_group_name_H-M	'P 1'

loop_
_symmetry_equiv_pos_as_xyz
  x,y,z

loop_
_atom_site_label
_atom_site_type_symbol
_atom_site_fract_x
_atom_site_fract_y
_atom_site_fract_z
_atom_site_charge
C 	C 	0.23490 0.47018 0.49073 -0.21600
H 	H 	0.14420 0.46290 0.45890 0.12300
C 	C 	0.49540 0.49423 0.58611 0.03500
C 	C 	0.14130 0.62783 0.52307 0.29200
C 	C 	0.76930 0.42657 0.86520 0.01000
C 	C 	0.63640 0.51825 0.63845 0.36600
C 	C 	0.70590 0.79097 0.75998 0.37300
C 	C 	0.30670 0.57097 0.74137 0.37000
C 	C 	0.77770 0.38021 0.80880 0.38200
C 	C 	0.35020 0.40251 0.49882 0.32800
C 	C 	0.43590 0.62700 0.78593 0.03300
C 	C 	0.84510 0.54586 0.94457 0.30700
C 	C 	0.84850 0.51085 0.88980 -0.19500
H 	H 	0.90320 0.54370 0.87020 0.10500
C 	C 	0.68140 0.41152 0.94233 0.05800
C 	C 	0.48320 0.41402 0.54807 -0.22500
H 	H 	0.56120 0.36940 0.55520 0.12200
C 	C 	0.62830 0.73360 0.79493 0.02700
C 	C 	0.66570 0.74212 0.85678 -0.21100
H 	H 	0.74580 0.78100 0.87990 0.14300
C 	C 	0.57940 0.69048 0.88360 0.32100
C 	C 	0.58900 0.35029 0.96866 0.30600
C 	C 	0.75810 0.49475 0.97136 -0.22400
H 	H 	0.75200 0.51620 0.00770 0.12200
C 	C 	0.46250 0.63041 0.84705 -0.23100
H 	H 	0.40470 0.59400 0.86360 0.12000
C 	C 	0.25780 0.54765 0.53066 0.05300
Eu	Eu	0.99158 0.43867 0.72411 1.63600
Eu	Eu	0.41281 0.70434 0.64797 1.91200
N 	N 	0.51625 0.67753 0.75987 -0.21600
N 	N 	0.38548 0.56044 0.57787 -0.22200
N 	N 	0.68639 0.37660 0.89042 -0.21200
O 	O 	0.21933 0.52844 0.76138 -0.48000
O 	O 	0.61304 0.70054 0.94292 -0.46400
H 	H 	0.55550 0.66720 0.95350 0.29600
O 	O 	0.63408 0.59674 0.66719 -0.44200
O 	O 	0.92580 0.62624 0.96793 -0.44100
H 	H 	0.91620 0.64060 0.99990 0.27500
O 	O 	0.63498 0.80048 0.70391 -0.45600
O 	O 	0.32466 0.33236 0.45629 -0.46800
H 	H 	0.39900 0.29760 0.46380 0.29700
O 	O 	0.52809 0.27422 0.93886 -0.42500
O 	O 	0.58120 0.37692 0.01771 -0.29000
O 	O 	0.72760 0.29379 0.79645 -0.44900
O 	O 	0.83565 0.43062 0.77920 -0.49800
O 	O 	0.74537 0.46092 0.64899 -0.45700
O 	O 	0.29618 0.57386 0.68677 -0.45800
O 	O 	0.83236 0.82424 0.78870 -0.47100
O 	O 	0.03212 0.63227 0.47556 -0.25100
O 	O 	0.16945 0.68653 0.56813 -0.40900
C 	C 	0.76510 0.97018 0.00927 -0.21300
H 	H 	0.85580 0.96290 0.04110 0.12400
C 	C 	0.50460 0.99423 0.91389 0.03500
C 	C 	0.85870 0.12783 0.97693 0.29400
C 	C 	0.23070 0.92657 0.63480 0.00900
C 	C 	0.36360 0.01825 0.86155 0.36700
C 	C 	0.29410 0.29097 0.74002 0.37400
C 	C 	0.69330 0.07097 0.75863 0.37000
C 	C 	0.22230 0.88021 0.69120 0.38200
C 	C 	0.64980 0.90251 0.00118 0.32600
C 	C 	0.56410 0.12700 0.71407 0.03300
C 	C 	0.15490 0.04586 0.55543 0.31100
C 	C 	0.15150 0.01085 0.61020 -0.19400
H 	H 	0.09680 0.04370 0.62980 0.10600
C 	C 	0.31860 0.91152 0.55767 0.06100
C 	C 	0.51680 0.91402 0.95193 -0.22300
H 	H 	0.43880 0.86940 0.94480 0.12200
C 	C 	0.37170 0.23360 0.70507 0.02700
C 	C 	0.33430 0.24212 0.64322 -0.21100
H 	H 	0.25420 0.28100 0.62010 0.14300
C 	C 	0.42060 0.19048 0.61640 0.32000
C 	C 	0.41100 0.85029 0.53134 0.30500
C 	C 	0.24190 0.99475 0.52864 -0.23200
H 	H 	0.24800 0.01620 0.49230 0.12600
C 	C 	0.53750 0.13041 0.65295 -0.23100
H 	H 	0.59530 0.09400 0.63640 0.12000
C 	C 	0.74220 0.04765 0.96934 0.05100
Eu	Eu	0.00842 0.93867 0.77589 1.63100
Eu	Eu	0.58719 0.20434 0.85202 1.91200
N 	N 	0.48375 0.17753 0.74013 -0.21600
N 	N 	0.61452 0.06044 0.92213 -0.22200
N 	N 	0.31361 0.87660 0.60958 -0.21200
O 	O 	0.78067 0.02844 0.73862 -0.48000
O 	O 	0.38696 0.20054 0.55708 -0.46400
H 	H 	0.44450 0.16720 0.54650 0.29600
O 	O 	0.36592 0.09674 0.83281 -0.44200
O 	O 	0.07420 0.12624 0.53207 -0.44200
H 	H 	0.08380 0.14060 0.50010 0.27600
O 	O 	0.36502 0.30048 0.79609 -0.45700
O 	O 	0.67534 0.83236 0.04371 -0.46800
H 	H 	0.60100 0.79760 0.03620 0.29700
O 	O 	0.47191 0.77422 0.56114 -0.42500
O 	O 	0.41880 0.87692 0.48229 -0.29000
O 	O 	0.27240 0.79379 0.70355 -0.44900
O 	O 	0.16435 0.93062 0.72080 -0.49900
O 	O 	0.25463 0.96092 0.85101 -0.45800
O 	O 	0.70382 0.07386 0.81323 -0.45900
O 	O 	0.16764 0.32424 0.71130 -0.47300
O 	O 	0.96788 0.13227 0.02444 -0.25200
O 	O 	0.83055 0.18653 0.93187 -0.40900
C 	C 	0.76510 0.52982 0.50927 -0.21500
H 	H 	0.85580 0.53710 0.54110 0.12400
C 	C 	0.50460 0.50577 0.41389 0.03600
C 	C 	0.85870 0.37217 0.47693 0.29300
C 	C 	0.23070 0.57343 0.13480 0.01000
C 	C 	0.36360 0.48175 0.36155 0.36600
C 	C 	0.29410 0.20903 0.24002 0.37300
C 	C 	0.69330 0.42903 0.25863 0.37000
C 	C 	0.22230 0.61979 0.19120 0.38200
C 	C 	0.64980 0.59749 0.50118 0.32800
C 	C 	0.56410 0.37300 0.21407 0.03300
C 	C 	0.15490 0.45414 0.05543 0.30700
C 	C 	0.15150 0.48915 0.11020 -0.19500
H 	H 	0.09680 0.45630 0.12980 0.10500
C 	C 	0.31860 0.58848 0.05767 0.05800
C 	C 	0.51680 0.58598 0.45193 -0.22500
H 	H 	0.43880 0.63060 0.44480 0.12200
C 	C 	0.37170 0.26640 0.20507 0.02700
C 	C 	0.33430 0.25788 0.14322 -0.21100
H 	H 	0.25420 0.21900 0.12010 0.14300
C 	C 	0.42060 0.30952 0.11640 0.32100
C 	C 	0.41100 0.64971 0.03134 0.30600
C 	C 	0.24190 0.50525 0.02864 -0.22400
H 	H 	0.24800 0.48380 0.99230 0.12200
C 	C 	0.53750 0.36959 0.15295 -0.23100
H 	H 	0.59530 0.40600 0.13640 0.12000
C 	C 	0.74220 0.45235 0.46934 0.05300
Eu	Eu	0.00842 0.56133 0.27589 1.63600
Eu	Eu	0.58719 0.29566 0.35202 1.91200
N 	N 	0.48375 0.32247 0.24013 -0.21600
N 	N 	0.61452 0.43956 0.42213 -0.22200
N 	N 	0.31361 0.62340 0.10958 -0.21200
O 	O 	0.78067 0.47156 0.23862 -0.48000
O 	O 	0.38696 0.29946 0.05708 -0.46400
H 	H 	0.44450 0.33280 0.04650 0.29600
O 	O 	0.36592 0.40326 0.33281 -0.44200
O 	O 	0.07420 0.37376 0.03207 -0.44100
H 	H 	0.08380 0.35940 0.00010 0.27500
O 	O 	0.36502 0.19952 0.29609 -0.45600
O 	O 	0.67534 0.66764 0.54371 -0.46800
H 	H 	0.60100 0.70240 0.53620 0.29700
O 	O 	0.47191 0.72578 0.06114 -0.42500
O 	O 	0.41880 0.62308 0.98229 -0.29000
O 	O 	0.27240 0.70621 0.20355 -0.44900
O 	O 	0.16435 0.56938 0.22080 -0.49800
O 	O 	0.25463 0.53908 0.35101 -0.45700
O 	O 	0.70382 0.42614 0.31323 -0.45800
O 	O 	0.16764 0.17576 0.21130 -0.47100
O 	O 	0.96788 0.36773 0.52444 -0.25100
O 	O 	0.83055 0.31347 0.43187 -0.40900
C 	C 	0.23490 0.02982 0.99073 -0.21300
H 	H 	0.14420 0.03710 0.95890 0.12400
C 	C 	0.49540 0.00577 0.08611 0.03500
C 	C 	0.14130 0.87217 0.02307 0.29400
C 	C 	0.76930 0.07343 0.36520 0.00900
C 	C 	0.63640 0.98175 0.13845 0.36700
C 	C 	0.70590 0.70903 0.25998 0.37400
C 	C 	0.30670 0.92903 0.24137 0.37000
C 	C 	0.77770 0.11979 0.30880 0.38200
C 	C 	0.35020 0.09749 0.99882 0.32600
C 	C 	0.43590 0.87300 0.28593 0.03300
C 	C 	0.84510 0.95414 0.44457 0.31100
C 	C 	0.84850 0.98915 0.38980 -0.19400
H 	H 	0.90320 0.95630 0.37020 0.10600
C 	C 	0.68140 0.08848 0.44233 0.06100
C 	C 	0.48320 0.08598 0.04807 -0.22300
H 	H 	0.56120 0.13060 0.05520 0.12200
C 	C 	0.62830 0.76640 0.29493 0.02700
C 	C 	0.66570 0.75788 0.35678 -0.21100
H 	H 	0.74580 0.71900 0.37990 0.14300
C 	C 	0.57940 0.80952 0.38360 0.32000
C 	C 	0.58900 0.14971 0.46866 0.30500
C 	C 	0.75810 0.00525 0.47136 -0.23200
H 	H 	0.75200 0.98380 0.50770 0.12600
C 	C 	0.46250 0.86959 0.34705 -0.23100
H 	H 	0.40470 0.90600 0.36360 0.12000
C 	C 	0.25780 0.95235 0.03066 0.05100
Eu	Eu	0.99158 0.06133 0.22411 1.63100
Eu	Eu	0.41281 0.79566 0.14797 1.91200
N 	N 	0.51625 0.82247 0.25987 -0.21600
N 	N 	0.38548 0.93956 0.07787 -0.22200
N 	N 	0.68639 0.12340 0.39042 -0.21200
O 	O 	0.21933 0.97156 0.26138 -0.48000
O 	O 	0.61304 0.79946 0.44292 -0.46400
H 	H 	0.55550 0.83280 0.45350 0.29600
O 	O 	0.63408 0.90326 0.16719 -0.44200
O 	O 	0.92580 0.87376 0.46793 -0.44200
H 	H 	0.91620 0.85940 0.49990 0.27600
O 	O 	0.63498 0.69952 0.20391 -0.45700
O 	O 	0.32466 0.16764 0.95629 -0.46800
H 	H 	0.39900 0.20240 0.96380 0.29700
O 	O 	0.52809 0.22578 0.43886 -0.42500
O 	O 	0.58120 0.12308 0.51771 -0.29000
O 	O 	0.72760 0.20621 0.29645 -0.44900
O 	O 	0.83565 0.06938 0.27920 -0.49900
O 	O 	0.74537 0.03908 0.14899 -0.45800
O 	O 	0.29618 0.92614 0.18677 -0.45900
O 	O 	0.83236 0.67576 0.28870 -0.47300
O 	O 	0.03212 0.86773 0.97556 -0.25200
O 	O 	0.16945 0.81347 0.06813 -0.40900
