data_crystal

_cell_length_a 8.70220
_cell_length_b 8.95200
_cell_length_c 12.66980
_cell_angle_alpha 106.80700
_cell_angle_beta  90.98300
_cell_angle_gamma 110.05400

_symmetry_space_group_name_	'P 1'
_symmetry_space_group_name_H-M	'P 1'

loop_
_symmetry_equiv_pos_as_xyz
  x,y,z

loop_
_atom_site_label
_atom_site_type_symbol
_atom_site_fract_x
_atom_site_fract_y
_atom_site_fract_z
_atom_site_charge
Cu	Cu	0.98806 0.95647 0.66759 0.90400
Cu	Cu	0.33935 0.94478 0.65641 0.91700
O 	O 	0.22250 0.74890 0.69970 -0.41800
O 	O 	0.96300 0.73640 0.67930 -0.42600
O 	O 	0.98330 0.76880 0.92590 -0.20700
O 	O 	0.71030 0.63930 0.89140 -0.21600
O 	O 	0.62580 0.17530 0.79120 -0.28100
O 	O 	0.49790 0.14460 0.63050 -0.39600
O 	O 	0.21150 0.06360 0.74070 -0.63300
O 	O 	0.98110 0.17530 0.66673 -0.40300
O 	O 	0.83580 0.10250 0.50183 -0.41800
C 	C 	0.01130 0.51590 0.72340 -0.12600
H 	H 	0.10240 0.48500 0.74410 0.09600
C 	C 	0.06970 0.68060 0.70010 0.39500
C 	C 	0.87640 0.49330 0.80170 -0.05600
H 	H 	0.89100 0.42370 0.84520 0.08300
C 	C 	0.85350 0.64500 0.87780 0.28500
C 	C 	0.74260 0.38380 0.70200 -0.09400
H 	H 	0.68650 0.45160 0.68180 0.07800
C 	C 	0.61610 0.22430 0.71100 0.31000
C 	C 	0.88340 0.37360 0.62640 -0.10200
H 	H 	0.87250 0.40930 0.56140 0.05800
C 	C 	0.90320 0.20570 0.59560 0.34400
H 	H 	0.25800 0.16380 0.75200 0.30700
Cu	Cu	0.01194 0.04353 0.33241 0.90300
Cu	Cu	0.66065 0.05522 0.34359 0.91600
O 	O 	0.77750 0.25110 0.30030 -0.41800
O 	O 	0.03700 0.26360 0.32070 -0.42600
O 	O 	0.01670 0.23120 0.07410 -0.20700
O 	O 	0.28970 0.36070 0.10860 -0.21600
O 	O 	0.37420 0.82470 0.20880 -0.28100
O 	O 	0.50210 0.85540 0.36950 -0.39600
O 	O 	0.78850 0.93640 0.25930 -0.63300
O 	O 	0.01890 0.82470 0.33327 -0.40300
O 	O 	0.16420 0.89750 0.49817 -0.41800
C 	C 	0.98870 0.48410 0.27660 -0.12600
H 	H 	0.89760 0.51500 0.25590 0.09600
C 	C 	0.93030 0.31940 0.29990 0.39500
C 	C 	0.12360 0.50670 0.19830 -0.05600
H 	H 	0.10900 0.57630 0.15480 0.08300
C 	C 	0.14650 0.35500 0.12220 0.28500
C 	C 	0.25740 0.61620 0.29800 -0.09400
H 	H 	0.31350 0.54840 0.31820 0.07800
C 	C 	0.38390 0.77570 0.28900 0.31000
C 	C 	0.11660 0.62640 0.37360 -0.10200
H 	H 	0.12750 0.59070 0.43860 0.05800
C 	C 	0.09680 0.79430 0.40440 0.34400
H 	H 	0.74200 0.83620 0.24800 0.30700
