data_crystal

_cell_length_a 24.47970
_cell_length_b 24.59380
_cell_length_c 25.23740
_cell_angle_alpha 118.43600
_cell_angle_beta  111.96900
_cell_angle_gamma 94.22900

_symmetry_space_group_name_	'P 1'
_symmetry_space_group_name_H-M	'P 1'

loop_
_symmetry_equiv_pos_as_xyz
  x,y,z

loop_
_atom_site_label
_atom_site_type_symbol
_atom_site_fract_x
_atom_site_fract_y
_atom_site_fract_z
_atom_site_charge
C 	C 	0.45740 0.04550 0.82230 0.34000
C 	C 	0.38950 0.01350 0.77690 -0.08800
C 	C 	0.36370 0.94720 0.74900 0.01700
H 	H 	0.38880 0.92320 0.76080 0.03700
C 	C 	0.30020 0.91720 0.70330 -0.08000
H 	H 	0.28260 0.87190 0.68220 0.06000
C 	C 	0.26290 0.95320 0.68860 0.02000
H 	H 	0.21980 0.93260 0.65850 0.03900
C 	C 	0.28850 0.01900 0.71790 -0.08900
C 	C 	0.35160 0.04940 0.76230 0.03200
H 	H 	0.36890 0.09460 0.78270 0.06800
C 	C 	0.24860 0.05710 0.69890 0.36200
C 	C 	0.68550 0.15730 0.98560 0.36200
C 	C 	0.75050 0.19080 0.04240 -0.10100
C 	C 	0.78730 0.15480 0.05890 0.03300
H 	H 	0.77240 0.10870 0.03240 0.03800
C 	C 	0.84610 0.18780 0.11500 -0.09300
H 	H 	0.87180 0.16400 0.12630 0.06600
C 	C 	0.86720 0.25520 0.15430 0.03700
H 	H 	0.90740 0.27710 0.19240 0.03600
C 	C 	0.83080 0.29060 0.13890 -0.10700
C 	C 	0.77250 0.25870 0.08330 0.04700
H 	H 	0.74710 0.28310 0.07270 0.05800
C 	C 	0.85280 0.36350 0.18260 0.36900
C 	C 	0.41540 0.91550 0.19930 0.36100
C 	C 	0.41760 0.93020 0.26530 -0.10500
C 	C 	0.40950 0.98820 0.30700 0.04000
H 	H 	0.39980 0.01690 0.29240 0.03300
C 	C 	0.41580 0.00370 0.37000 -0.10900
H 	H 	0.41050 0.04320 0.39850 0.07500
C 	C 	0.42980 0.96190 0.39120 0.04400
H 	H 	0.43420 0.97280 0.43440 0.03900
C 	C 	0.43760 0.90350 0.34930 -0.11000
C 	C 	0.43050 0.88799 0.28600 0.05200
H 	H 	0.43460 0.84790 0.25680 0.05300
C 	C 	0.45390 0.85780 0.37120 0.36500
C 	C 	0.55570 0.12080 0.00070 0.35000
C 	C 	0.54640 0.13040 0.05970 -0.10300
C 	C 	0.54500 0.08180 0.07220 0.04500
H 	H 	0.54890 0.04180 0.04260 0.03600
C 	C 	0.53820 0.09030 0.12680 -0.10900
H 	H 	0.53620 0.05590 0.13420 0.08000
C 	C 	0.53420 0.14930 0.17110 0.04100
H 	H 	0.53030 0.15560 0.20960 0.03100
C 	C 	0.53570 0.19920 0.15980 -0.10700
C 	C 	0.54060 0.18920 0.10280 0.05000
H 	H 	0.53990 0.22230 0.09340 0.05400
C 	C 	0.53320 0.26320 0.20890 0.35800
C 	C 	0.88200 0.81990 0.37550 0.36500
C 	C 	0.92090 0.78260 0.39770 -0.10300
C 	C 	0.97790 0.81450 0.45580 0.04100
H 	H 	0.99230 0.86070 0.48310 0.03000
C 	C 	0.01340 0.78030 0.47400 -0.09900
H 	H 	0.05190 0.80260 0.51450 0.06600
C 	C 	0.99340 0.71260 0.43330 0.03600
H 	H 	0.01880 0.68870 0.44510 0.03500
C 	C 	0.93620 0.68020 0.37540 -0.09900
C 	C 	0.89980 0.71440 0.35720 0.04500
H 	H 	0.86070 0.69210 0.31750 0.05500
C 	C 	0.91500 0.60670 0.33030 0.35600
C 	C 	0.77290 0.89990 0.41780 0.37000
C 	C 	0.74510 0.91210 0.46550 -0.10100
C 	C 	0.77660 0.96510 0.53290 0.03500
H 	H 	0.81590 0.99290 0.54920 0.03700
C 	C 	0.75060 0.97710 0.57600 -0.09500
H 	H 	0.77230 0.01270 0.62210 0.06800
C 	C 	0.69250 0.93690 0.55120 0.03800
H 	H 	0.67470 0.94510 0.58080 0.03200
C 	C 	0.66020 0.88470 0.48390 -0.10700
C 	C 	0.68740 0.87140 0.44130 0.04800
H 	H 	0.66650 0.83460 0.39580 0.05400
C 	C 	0.59650 0.84320 0.45630 0.36400
C 	C 	0.13560 0.13170 0.73920 0.36300
C 	C 	0.10830 0.14260 0.78650 -0.09500
C 	C 	0.06020 0.09380 0.76940 0.02900
H 	H 	0.04540 0.05250 0.72820 0.03900
C 	C 	0.03380 0.10430 0.81130 -0.08200
H 	H 	0.00160 0.07020 0.79970 0.06300
C 	C 	0.05480 0.16670 0.87240 0.02200
H 	H 	0.03610 0.17500 0.90130 0.04200
C 	C 	0.10290 0.21500 0.88900 -0.08800
C 	C 	0.13080 0.20280 0.84680 0.03700
H 	H 	0.16480 0.23560 0.85940 0.06300
C 	C 	0.12450 0.28180 0.95180 0.34800
C 	C 	0.83940 0.47040 0.32570 0.36900
C 	C 	0.81250 0.45850 0.36470 -0.11100
C 	C 	0.84920 0.46080 0.42320 0.04000
H 	H 	0.89280 0.47220 0.43990 0.03300
C 	C 	0.82410 0.44710 0.45810 -0.09600
H 	H 	0.85010 0.44870 0.49810 0.06300
C 	C 	0.76020 0.43100 0.43360 0.03600
H 	H 	0.74220 0.42140 0.45680 0.03600
C 	C 	0.72270 0.42890 0.37500 -0.10600
C 	C 	0.74870 0.44360 0.34120 0.05200
H 	H 	0.72300 0.44340 0.30200 0.05000
C 	C 	0.65340 0.40840 0.34660 0.36700
C 	C 	0.92090 0.49980 0.18160 0.36500
C 	C 	0.94580 0.51350 0.14120 -0.10500
C 	C 	0.00500 0.51190 0.15050 0.03700
H 	H 	0.02890 0.49990 0.18020 0.03400
C 	C 	0.02960 0.52790 0.11630 -0.10300
H 	H 	0.07000 0.52620 0.12200 0.07900
C 	C 	0.99440 0.54640 0.07340 0.04400
H 	H 	0.01140 0.55920 0.05130 0.03400
C 	C 	0.93410 0.54630 0.06280 -0.11100
C 	C 	0.91010 0.52940 0.09680 0.05300
H 	H 	0.86900 0.52870 0.08940 0.05000
C 	C 	0.89770 0.56740 0.01760 0.36600
C 	C 	0.54140 0.48220 0.38680 0.36400
C 	C 	0.54010 0.54850 0.43570 -0.10600
C 	C 	0.54480 0.56360 0.49810 0.04000
H 	H 	0.55050 0.53320 0.51120 0.03800
C 	C 	0.54090 0.62350 0.54130 -0.10200
H 	H 	0.54400 0.63390 0.58400 0.07400
C 	C 	0.53250 0.66760 0.52260 0.03900
H 	H 	0.53090 0.70880 0.55270 0.03100
C 	C 	0.52647 0.65190 0.45940 -0.10800
C 	C 	0.53210 0.59270 0.41660 0.05100
H 	H 	0.53050 0.58290 0.37470 0.04100
C 	C 	0.51381 0.69890 0.43750 0.36400
C 	C 	0.42290 0.33920 0.26000 0.36000
C 	C 	0.35510 0.32700 0.23900 -0.10900
C 	C 	0.32790 0.30070 0.26540 0.03600
H 	H 	0.35170 0.28770 0.29420 0.03400
C 	C 	0.26540 0.29410 0.24860 -0.09800
H 	H 	0.24690 0.27790 0.26740 0.06800
C 	C 	0.23070 0.31080 0.20510 0.04200
H 	H 	0.18800 0.30500 0.19320 0.03400
C 	C 	0.25630 0.33580 0.17850 -0.10800
C 	C 	0.31900 0.34470 0.19640 0.05600
H 	H 	0.33720 0.36310 0.17900 0.03900
C 	C 	0.21930 0.35660 0.13270 0.35500
C 	C 	0.19870 0.50680 0.16270 0.36000
C 	C 	0.22310 0.57370 0.22600 -0.10800
C 	C 	0.18740 0.59560 0.25890 0.03600
H 	H 	0.14730 0.56850 0.24140 0.03200
C 	C 	0.21080 0.65760 0.31770 -0.09500
H 	H 	0.18560 0.67350 0.33890 0.06700
C 	C 	0.27010 0.69620 0.34550 0.03700
H 	H 	0.28600 0.73810 0.38630 0.03500
C 	C 	0.30700 0.67350 0.31330 -0.10900
C 	C 	0.28220 0.61240 0.25300 0.05200
H 	H 	0.30630 0.59710 0.23010 0.04900
C 	C 	0.37230 0.71290 0.34440 0.36200
Cu	Cu	0.86286 0.93644 0.38630 0.90400
Cu	Cu	0.77208 0.82753 0.29008 0.92500
Cu	Cu	0.48325 0.81649 0.46025 0.90300
Cu	Cu	0.48660 0.73892 0.34583 0.90500
Cu	Cu	0.11265 0.37996 0.06460 0.90200
Cu	Cu	0.20963 0.40909 0.04999 0.95100
Cu	Cu	0.54399 0.35410 0.34253 0.90200
Cu	Cu	0.53151 0.39094 0.25716 0.92200
Cu	Cu	0.93738 0.48505 0.29244 0.90300
Cu	Cu	0.82768 0.48521 0.21703 0.92800
Cu	Cu	0.58022 0.04578 0.88899 0.90300
Cu	Cu	0.56519 0.15946 0.91481 0.93200
O 	O 	0.49070 0.01009 0.82851 -0.40400
O 	O 	0.47740 0.10731 0.85275 -0.36800
O 	O 	0.66638 0.09599 0.95368 -0.40700
O 	O 	0.65503 0.19242 0.97445 -0.38400
O 	O 	0.40780 0.95781 0.18552 -0.40500
O 	O 	0.42320 0.86232 0.16452 -0.38600
O 	O 	0.56350 0.06753 0.96604 -0.40300
O 	O 	0.55413 0.16608 0.99037 -0.37500
O 	O 	0.19402 0.02536 0.65310 -0.40800
O 	O 	0.27312 0.11704 0.73148 -0.38200
O 	O 	0.90526 0.88038 0.40971 -0.40900
O 	O 	0.82902 0.78736 0.32558 -0.39600
O 	O 	0.82134 0.94160 0.44070 -0.41400
O 	O 	0.74570 0.84778 0.36038 -0.39100
O 	O 	0.10689 0.08221 0.68026 -0.40700
O 	O 	0.18598 0.17269 0.76345 -0.38700
O 	O 	0.95313 0.57859 0.34500 -0.41100
O 	O 	0.85987 0.57993 0.28270 -0.38200
O 	O 	0.90640 0.39010 0.23160 -0.40800
O 	O 	0.81576 0.39106 0.16500 -0.39900
O 	O 	0.89555 0.47650 0.34320 -0.40500
O 	O 	0.80330 0.47440 0.27760 -0.39500
O 	O 	0.95737 0.49320 0.22690 -0.40900
O 	O 	0.86528 0.49660 0.16590 -0.39300
O 	O 	0.54202 0.27357 0.26571 -0.40800
O 	O 	0.52323 0.30244 0.19010 -0.38500
O 	O 	0.54289 0.44184 0.40393 -0.40300
O 	O 	0.54171 0.47448 0.33429 -0.40800
O 	O 	0.63213 0.39141 0.37615 -0.41300
O 	O 	0.62219 0.41115 0.29573 -0.39800
O 	O 	0.45423 0.32553 0.30200 -0.41000
O 	O 	0.44367 0.36304 0.23451 -0.39500
O 	O 	0.16425 0.35250 0.12230 -0.39900
O 	O 	0.24562 0.37550 0.10740 -0.38200
O 	O 	0.92429 0.58850 0.99458 -0.41800
O 	O 	0.84193 0.56190 0.00600 -0.38700
O 	O 	0.14872 0.46953 0.14425 -0.41400
O 	O 	0.23141 0.49354 0.13240 -0.38100
O 	O 	0.09300 0.29340 0.98360 -0.39600
O 	O 	0.17334 0.32067 0.96904 -0.37300
O 	O 	0.50357 0.74811 0.47573 -0.41500
O 	O 	0.51334 0.68473 0.38221 -0.39900
O 	O 	0.46339 0.87618 0.43141 -0.39900
O 	O 	0.45828 0.80609 0.33050 -0.40800
O 	O 	0.57207 0.85838 0.49580 -0.40400
O 	O 	0.57214 0.79579 0.39607 -0.40500
O 	O 	0.39516 0.76381 0.40348 -0.40400
O 	O 	0.40146 0.69175 0.31058 -0.40500
O 	O 	0.56190 0.25900 0.95560 -0.02000
O 	O 	0.53400 0.23980 0.91370 -0.15400
O 	O 	0.37090 0.24590 0.89900 -0.12800
O 	O 	0.74000 0.59360 0.03930 -0.37500
O 	O 	0.59570 0.29570 0.02070 -0.17000
N 	N 	0.72000 0.64370 0.11340 -0.00600
N 	N 	0.72090 0.63420 0.13140 -0.14300
N 	N 	0.71520 0.70200 0.12970 -0.11500
O 	O 	0.71370 0.73070 0.20340 -0.06200
O 	O 	0.70490 0.73450 0.20820 -0.16300
C 	C 	0.74090 0.69240 0.18000 0.22900
C 	C 	0.67100 0.64100 0.06240 0.05300
C 	C 	0.66420 0.70600 0.07900 0.12900
C 	C 	0.75820 0.59610 0.14090 -0.06000
C 	C 	0.74310 0.58690 0.08860 0.25800
N 	N 	0.63570 0.39590 0.10460 -0.15500
O 	O 	0.73190 0.47140 0.15340 -0.26100
C 	C 	0.69260 0.41830 0.14050 0.19700
C 	C 	0.59080 0.33590 0.07560 0.19300
C 	C 	0.60340 0.44000 0.08600 0.06600
C 	C 	0.60940 0.37210 0.13410 -0.03700
N 	N 	0.34440 0.47040 0.13080 -0.17300
O 	O 	0.27960 0.42700 0.02210 0.47900
O 	O 	0.29880 0.43920 0.06080 -1.27900
C 	C 	0.32600 0.46840 0.07340 1.01200
C 	C 	0.39600 0.52560 0.19390 -0.23900
C 	C 	0.33400 0.40800 0.12500 0.16200
C 	C 	0.39820 0.50570 0.15620 0.19800
N 	N 	0.44470 0.49640 0.18210 -0.26100
O 	O 	0.50200 0.43060 0.19390 -0.65200
O 	O 	0.52920 0.43100 0.19760 0.32300
C 	C 	0.46760 0.46300 0.20580 0.36700
C 	C 	0.44360 0.49500 0.12020 -0.02800
C 	C 	0.43680 0.53730 0.22580 0.19900
C 	C 	0.54260 0.95450 0.17770 0.34100
C 	C 	0.61050 0.98650 0.22310 -0.08700
C 	C 	0.63630 0.05280 0.25100 0.01800
H 	H 	0.61120 0.07680 0.23920 0.03800
C 	C 	0.69980 0.08280 0.29670 -0.07900
H 	H 	0.71740 0.12810 0.31780 0.06100
C 	C 	0.73710 0.04680 0.31140 0.02100
H 	H 	0.78020 0.06740 0.34150 0.04000
C 	C 	0.71150 0.98100 0.28210 -0.08800
C 	C 	0.64840 0.95060 0.23770 0.03300
H 	H 	0.63110 0.90540 0.21730 0.06800
C 	C 	0.75140 0.94290 0.30110 0.36200
C 	C 	0.31450 0.84270 0.01440 0.36200
C 	C 	0.24950 0.80920 0.95760 -0.10100
C 	C 	0.21270 0.84520 0.94110 0.03300
H 	H 	0.22760 0.89130 0.96760 0.03800
C 	C 	0.15390 0.81220 0.88500 -0.09300
H 	H 	0.12820 0.83600 0.87370 0.06600
C 	C 	0.13280 0.74480 0.84570 0.03700
H 	H 	0.09260 0.72290 0.80760 0.03600
C 	C 	0.16920 0.70940 0.86110 -0.10700
C 	C 	0.22750 0.74130 0.91670 0.04700
H 	H 	0.25290 0.71690 0.92730 0.05800
C 	C 	0.14720 0.63650 0.81740 0.36900
C 	C 	0.58460 0.08450 0.80070 0.36100
C 	C 	0.58240 0.06980 0.73470 -0.10500
C 	C 	0.59050 0.01180 0.69300 0.04000
H 	H 	0.60020 0.98310 0.70760 0.03300
C 	C 	0.58420 0.99630 0.63000 -0.10900
H 	H 	0.58950 0.95680 0.60150 0.07500
C 	C 	0.57020 0.03810 0.60880 0.04400
H 	H 	0.56580 0.02720 0.56560 0.03900
C 	C 	0.56240 0.09650 0.65070 -0.11000
C 	C 	0.56950 0.11201 0.71400 0.05200
H 	H 	0.56540 0.15210 0.74320 0.05300
C 	C 	0.54610 0.14220 0.62880 0.36500
C 	C 	0.44430 0.87920 0.99930 0.35000
C 	C 	0.45360 0.86960 0.94030 -0.10300
C 	C 	0.45500 0.91820 0.92780 0.04500
H 	H 	0.45110 0.95820 0.95740 0.03600
C 	C 	0.46180 0.90970 0.87320 -0.10900
H 	H 	0.46380 0.94410 0.86580 0.08000
C 	C 	0.46580 0.85070 0.82890 0.04100
H 	H 	0.46970 0.84440 0.79040 0.03100
C 	C 	0.46430 0.80080 0.84020 -0.10700
C 	C 	0.45940 0.81080 0.89720 0.05000
H 	H 	0.46010 0.77770 0.90660 0.05400
C 	C 	0.46680 0.73680 0.79110 0.35800
C 	C 	0.11800 0.18010 0.62450 0.36500
C 	C 	0.07910 0.21740 0.60230 -0.10300
C 	C 	0.02210 0.18550 0.54420 0.04100
H 	H 	0.00770 0.13930 0.51690 0.03000
C 	C 	0.98660 0.21970 0.52600 -0.09900
H 	H 	0.94810 0.19740 0.48550 0.06600
C 	C 	0.00660 0.28740 0.56670 0.03600
H 	H 	0.98120 0.31130 0.55490 0.03500
C 	C 	0.06380 0.31980 0.62460 -0.09900
C 	C 	0.10020 0.28560 0.64280 0.04500
H 	H 	0.13930 0.30790 0.68250 0.05500
C 	C 	0.08500 0.39330 0.66970 0.35600
C 	C 	0.22710 0.10010 0.58220 0.37000
C 	C 	0.25490 0.08790 0.53450 -0.10100
C 	C 	0.22340 0.03490 0.46710 0.03500
H 	H 	0.18410 0.00710 0.45080 0.03700
C 	C 	0.24940 0.02290 0.42400 -0.09500
H 	H 	0.22770 0.98730 0.37790 0.06800
C 	C 	0.30750 0.06310 0.44880 0.03800
H 	H 	0.32530 0.05490 0.41920 0.03200
C 	C 	0.33980 0.11530 0.51610 -0.10700
C 	C 	0.31260 0.12860 0.55870 0.04800
H 	H 	0.33350 0.16540 0.60420 0.05400
C 	C 	0.40350 0.15680 0.54370 0.36400
C 	C 	0.86440 0.86830 0.26080 0.36300
C 	C 	0.89170 0.85740 0.21350 -0.09500
C 	C 	0.93980 0.90620 0.23060 0.02900
H 	H 	0.95460 0.94750 0.27180 0.03900
C 	C 	0.96620 0.89570 0.18870 -0.08200
H 	H 	0.99840 0.92980 0.20030 0.06300
C 	C 	0.94520 0.83330 0.12760 0.02200
H 	H 	0.96390 0.82500 0.09870 0.04200
C 	C 	0.89710 0.78500 0.11100 -0.08800
C 	C 	0.86920 0.79720 0.15320 0.03700
H 	H 	0.83520 0.76440 0.14060 0.06300
C 	C 	0.87550 0.71820 0.04820 0.34800
C 	C 	0.16060 0.52960 0.67430 0.36900
C 	C 	0.18750 0.54150 0.63530 -0.11100
C 	C 	0.15080 0.53920 0.57680 0.04000
H 	H 	0.10720 0.52780 0.56010 0.03300
C 	C 	0.17590 0.55290 0.54190 -0.09600
H 	H 	0.14990 0.55130 0.50190 0.06300
C 	C 	0.23980 0.56900 0.56640 0.03600
H 	H 	0.25780 0.57860 0.54320 0.03600
C 	C 	0.27730 0.57110 0.62500 -0.10600
C 	C 	0.25130 0.55640 0.65880 0.05200
H 	H 	0.27700 0.55660 0.69800 0.05000
C 	C 	0.34660 0.59160 0.65340 0.36700
C 	C 	0.07910 0.50020 0.81840 0.36500
C 	C 	0.05420 0.48650 0.85880 -0.10500
C 	C 	0.99500 0.48810 0.84950 0.03700
H 	H 	0.97110 0.50010 0.81980 0.03400
C 	C 	0.97040 0.47210 0.88370 -0.10300
H 	H 	0.93000 0.47380 0.87800 0.07900
C 	C 	0.00560 0.45360 0.92660 0.04400
H 	H 	0.98860 0.44080 0.94870 0.03400
C 	C 	0.06590 0.45370 0.93720 -0.11100
C 	C 	0.08990 0.47060 0.90320 0.05300
H 	H 	0.13100 0.47130 0.91060 0.05000
C 	C 	0.10230 0.43260 0.98240 0.36600
C 	C 	0.45860 0.51780 0.61320 0.36400
C 	C 	0.45990 0.45150 0.56430 -0.10600
C 	C 	0.45520 0.43640 0.50190 0.04000
H 	H 	0.44950 0.46680 0.48880 0.03800
C 	C 	0.45910 0.37650 0.45870 -0.10200
H 	H 	0.45600 0.36610 0.41600 0.07400
C 	C 	0.46750 0.33240 0.47740 0.03900
H 	H 	0.46910 0.29120 0.44730 0.03100
C 	C 	0.47353 0.34810 0.54060 -0.10800
C 	C 	0.46790 0.40730 0.58340 0.05100
H 	H 	0.46950 0.41710 0.62530 0.04100
C 	C 	0.48619 0.30110 0.56250 0.36400
C 	C 	0.57710 0.66080 0.74000 0.36000
C 	C 	0.64490 0.67300 0.76100 -0.10900
C 	C 	0.67210 0.69930 0.73460 0.03600
H 	H 	0.64830 0.71230 0.70580 0.03400
C 	C 	0.73460 0.70590 0.75140 -0.09800
H 	H 	0.75310 0.72210 0.73260 0.06800
C 	C 	0.76930 0.68920 0.79490 0.04200
H 	H 	0.81200 0.69500 0.80680 0.03400
C 	C 	0.74370 0.66420 0.82150 -0.10800
C 	C 	0.68100 0.65530 0.80360 0.05600
H 	H 	0.66280 0.63690 0.82100 0.03900
C 	C 	0.78070 0.64340 0.86730 0.35500
C 	C 	0.80130 0.49320 0.83730 0.36000
C 	C 	0.77690 0.42630 0.77400 -0.10800
C 	C 	0.81260 0.40440 0.74110 0.03600
H 	H 	0.85270 0.43150 0.75860 0.03200
C 	C 	0.78920 0.34240 0.68230 -0.09500
H 	H 	0.81440 0.32650 0.66110 0.06700
C 	C 	0.72990 0.30380 0.65450 0.03700
H 	H 	0.71400 0.26190 0.61370 0.03500
C 	C 	0.69300 0.32650 0.68670 -0.10900
C 	C 	0.71780 0.38760 0.74700 0.05200
H 	H 	0.69370 0.40290 0.76990 0.04900
C 	C 	0.62770 0.28710 0.65560 0.36200
Cu	Cu	0.13714 0.06356 0.61370 0.90400
Cu	Cu	0.22792 0.17247 0.70992 0.92500
Cu	Cu	0.51675 0.18351 0.53975 0.90300
Cu	Cu	0.51340 0.26108 0.65417 0.90500
Cu	Cu	0.88735 0.62004 0.93540 0.90200
Cu	Cu	0.79037 0.59091 0.95001 0.95100
Cu	Cu	0.45601 0.64590 0.65747 0.90200
Cu	Cu	0.46849 0.60906 0.74284 0.92200
Cu	Cu	0.06262 0.51495 0.70756 0.90300
Cu	Cu	0.17232 0.51479 0.78297 0.92800
Cu	Cu	0.41978 0.95422 0.11101 0.90300
Cu	Cu	0.43481 0.84054 0.08519 0.93200
O 	O 	0.50930 0.98991 0.17149 -0.40400
O 	O 	0.52260 0.89269 0.14725 -0.36800
O 	O 	0.33362 0.90401 0.04632 -0.40700
O 	O 	0.34497 0.80758 0.02555 -0.38400
O 	O 	0.59220 0.04219 0.81448 -0.40500
O 	O 	0.57680 0.13768 0.83548 -0.38600
O 	O 	0.43650 0.93247 0.03396 -0.40300
O 	O 	0.44587 0.83392 0.00963 -0.37500
O 	O 	0.80598 0.97464 0.34690 -0.40800
O 	O 	0.72688 0.88296 0.26852 -0.38200
O 	O 	0.09474 0.11962 0.59029 -0.40900
O 	O 	0.17098 0.21264 0.67442 -0.39600
O 	O 	0.17866 0.05840 0.55930 -0.41400
O 	O 	0.25430 0.15222 0.63962 -0.39100
O 	O 	0.89311 0.91779 0.31974 -0.40700
O 	O 	0.81402 0.82731 0.23655 -0.38700
O 	O 	0.04687 0.42141 0.65500 -0.41100
O 	O 	0.14013 0.42007 0.71730 -0.38200
O 	O 	0.09360 0.60990 0.76840 -0.40800
O 	O 	0.18424 0.60894 0.83500 -0.39900
O 	O 	0.10445 0.52350 0.65680 -0.40500
O 	O 	0.19670 0.52560 0.72240 -0.39500
O 	O 	0.04263 0.50680 0.77310 -0.40900
O 	O 	0.13472 0.50340 0.83410 -0.39300
O 	O 	0.45798 0.72643 0.73429 -0.40800
O 	O 	0.47677 0.69756 0.80990 -0.38500
O 	O 	0.45711 0.55816 0.59607 -0.40300
O 	O 	0.45829 0.52552 0.66571 -0.40800
O 	O 	0.36787 0.60859 0.62385 -0.41300
O 	O 	0.37781 0.58885 0.70427 -0.39800
O 	O 	0.54577 0.67447 0.69800 -0.41000
O 	O 	0.55633 0.63696 0.76549 -0.39500
O 	O 	0.83575 0.64750 0.87770 -0.39900
O 	O 	0.75438 0.62450 0.89260 -0.38200
O 	O 	0.07571 0.41150 0.00542 -0.41800
O 	O 	0.15807 0.43810 0.99400 -0.38700
O 	O 	0.85128 0.53047 0.85575 -0.41400
O 	O 	0.76859 0.50646 0.86760 -0.38100
O 	O 	0.90700 0.70660 0.01640 -0.39600
O 	O 	0.82666 0.67933 0.03096 -0.37300
O 	O 	0.49643 0.25189 0.52427 -0.41500
O 	O 	0.48666 0.31527 0.61779 -0.39900
O 	O 	0.53661 0.12382 0.56859 -0.39900
O 	O 	0.54172 0.19391 0.66950 -0.40800
O 	O 	0.42793 0.14162 0.50420 -0.40400
O 	O 	0.42786 0.20421 0.60393 -0.40500
O 	O 	0.60484 0.23619 0.59652 -0.40400
O 	O 	0.59854 0.30825 0.68942 -0.40500
O 	O 	0.43810 0.74100 0.04440 -0.02000
O 	O 	0.46600 0.76020 0.08630 -0.15400
O 	O 	0.62910 0.75410 0.10100 -0.12800
O 	O 	0.26000 0.40640 0.96070 -0.37500
O 	O 	0.40430 0.70430 0.97930 -0.17000
N 	N 	0.28000 0.35630 0.88660 -0.00600
N 	N 	0.27910 0.36580 0.86860 -0.14300
N 	N 	0.28480 0.29800 0.87030 -0.11500
O 	O 	0.28630 0.26930 0.79660 -0.06200
O 	O 	0.29510 0.26550 0.79180 -0.16300
C 	C 	0.25910 0.30760 0.82000 0.22900
C 	C 	0.32900 0.35900 0.93760 0.05300
C 	C 	0.33580 0.29400 0.92100 0.12900
C 	C 	0.24180 0.40390 0.85910 -0.06000
C 	C 	0.25690 0.41310 0.91140 0.25800
N 	N 	0.36430 0.60410 0.89540 -0.15500
O 	O 	0.26810 0.52860 0.84660 -0.26100
C 	C 	0.30740 0.58170 0.85950 0.19700
C 	C 	0.40920 0.66410 0.92440 0.19300
C 	C 	0.39660 0.56000 0.91400 0.06600
C 	C 	0.39060 0.62790 0.86590 -0.03700
N 	N 	0.65560 0.52960 0.86920 -0.17300
O 	O 	0.72040 0.57300 0.97790 0.47900
O 	O 	0.70120 0.56080 0.93920 -1.27900
C 	C 	0.67400 0.53160 0.92660 1.01200
C 	C 	0.60400 0.47440 0.80610 -0.23900
C 	C 	0.66600 0.59200 0.87500 0.16200
C 	C 	0.60180 0.49430 0.84380 0.19800
N 	N 	0.55530 0.50360 0.81790 -0.26100
O 	O 	0.49800 0.56940 0.80610 -0.65200
O 	O 	0.47080 0.56900 0.80240 0.32300
C 	C 	0.53240 0.53700 0.79420 0.36700
C 	C 	0.55640 0.50500 0.87980 -0.02800
C 	C 	0.56320 0.46270 0.77420 0.19900
