data_crystal

_cell_length_a 11.39740
_cell_length_b 11.53370
_cell_length_c 12.58480
_cell_angle_alpha 117.06700
_cell_angle_beta  101.07000
_cell_angle_gamma 101.14700

_symmetry_space_group_name_	'P 1'
_symmetry_space_group_name_H-M	'P 1'

loop_
_symmetry_equiv_pos_as_xyz
  x,y,z

loop_
_atom_site_label
_atom_site_type_symbol
_atom_site_fract_x
_atom_site_fract_y
_atom_site_fract_z
_atom_site_charge
Cu	Cu	0.48170 0.99088 0.19451 0.88900
P 	P 	0.33466 0.85125 0.89125 0.47700
O 	O 	0.42590 0.88260 0.01140 -0.40700
O 	O 	0.24300 0.69680 0.82320 -0.33800
O 	O 	0.39170 0.86270 0.79660 -0.39800
N 	N 	0.34220 0.86900 0.20980 -0.22400
N 	N 	0.49840 0.11150 0.37650 -0.22000
C 	C 	0.22620 0.94860 0.91660 -0.34100
H 	H 	0.26720 0.03660 0.92670 0.11500
H 	H 	0.15380 0.90070 0.84070 0.13500
C 	C 	0.17770 0.97630 0.02720 0.10400
C 	C 	0.07130 0.87770 0.01360 -0.07900
C 	C 	0.00520 0.75030 0.89790 0.01300
H 	H 	0.03360 0.72900 0.82890 0.03600
C 	C 	0.90130 0.66000 0.88820 -0.09800
H 	H 	0.86040 0.57740 0.81250 0.05900
C 	C 	0.85380 0.68900 0.99110 0.03500
H 	H 	0.78100 0.62710 0.98130 0.00300
C 	C 	0.91440 0.80640 0.10270 -0.14800
H 	H 	0.88470 0.82350 0.17050 0.06200
C 	C 	0.02440 0.90510 0.11800 0.10600
C 	C 	0.08510 0.02790 0.23320 -0.17500
H 	H 	0.05530 0.04440 0.30080 0.08100
C 	C 	0.18950 0.12570 0.24780 0.10600
C 	C 	0.24950 0.25100 0.36550 -0.13700
H 	H 	0.22100 0.26470 0.43350 0.07000
C 	C 	0.34750 0.35050 0.37970 0.02700
H 	H 	0.38480 0.43270 0.45640 0.01900
C 	C 	0.39300 0.32870 0.27750 -0.09000
H 	H 	0.45970 0.39800 0.28810 0.06200
C 	C 	0.34180 0.20900 0.16380 -0.01100
H 	H 	0.37500 0.19750 0.09900 0.02900
C 	C 	0.23750 0.10100 0.14340 -0.09100
C 	C 	0.29880 0.58710 0.78440 0.50900
H 	H 	0.37590 0.61250 0.85000 -0.12200
H 	H 	0.31920 0.57030 0.70840 -0.12000
C 	C 	0.20400 0.45920 0.76030 -0.97800
H 	H 	0.18900 0.47460 0.83750 0.32000
H 	H 	0.23650 0.38360 0.72900 0.30800
H 	H 	0.12630 0.43820 0.69920 0.32200
C 	C 	0.26920 0.74180 0.11810 0.06800
H 	H 	0.28480 0.70310 0.04150 0.00300
C 	C 	0.17150 0.66660 0.13410 -0.12700
H 	H 	0.12060 0.57950 0.06830 0.06500
C 	C 	0.15020 0.72210 0.24900 0.04000
H 	H 	0.08590 0.67200 0.26200 -0.00100
C 	C 	0.22600 0.85350 0.34460 -0.11300
H 	H 	0.21230 0.89350 0.42200 0.05700
C 	C 	0.32300 0.92460 0.32290 0.05000
C 	C 	0.41130 0.06160 0.41650 0.05300
C 	C 	0.40830 0.13700 0.53940 -0.11700
H 	H 	0.34650 0.10190 0.56540 0.04900
C 	C 	0.49860 0.26420 0.62170 0.03500
H 	H 	0.49910 0.31580 0.70410 0.00200
C 	C 	0.58800 0.31350 0.57920 -0.12200
H 	H 	0.64970 0.39890 0.63300 0.06900
C 	C 	0.58520 0.23510 0.45610 0.06500
H 	H 	0.64520 0.26920 0.42790 0.01000
Cu	Cu	0.51830 0.00912 0.80549 0.89000
P 	P 	0.66534 0.14875 0.10875 0.47800
O 	O 	0.57410 0.11740 0.98860 -0.40600
O 	O 	0.75700 0.30320 0.17680 -0.33700
O 	O 	0.60830 0.13730 0.20340 -0.39700
N 	N 	0.65780 0.13100 0.79020 -0.22300
N 	N 	0.50160 0.88850 0.62350 -0.21900
C 	C 	0.77380 0.05140 0.08340 -0.34000
H 	H 	0.73280 0.96340 0.07330 0.11500
H 	H 	0.84620 0.09930 0.15930 0.13500
C 	C 	0.82230 0.02370 0.97280 0.10400
C 	C 	0.92870 0.12230 0.98640 -0.07900
C 	C 	0.99480 0.24970 0.10210 0.01300
H 	H 	0.96640 0.27100 0.17110 0.03600
C 	C 	0.09870 0.34000 0.11180 -0.09800
H 	H 	0.13960 0.42260 0.18750 0.05900
C 	C 	0.14620 0.31100 0.00890 0.03500
H 	H 	0.21900 0.37290 0.01870 0.00300
C 	C 	0.08560 0.19360 0.89730 -0.14800
H 	H 	0.11530 0.17650 0.82950 0.06200
C 	C 	0.97560 0.09490 0.88200 0.10600
C 	C 	0.91490 0.97210 0.76680 -0.17500
H 	H 	0.94470 0.95560 0.69920 0.08100
C 	C 	0.81050 0.87430 0.75220 0.10600
C 	C 	0.75050 0.74900 0.63450 -0.13700
H 	H 	0.77900 0.73530 0.56650 0.07000
C 	C 	0.65250 0.64950 0.62030 0.02700
H 	H 	0.61520 0.56730 0.54360 0.01900
C 	C 	0.60700 0.67130 0.72250 -0.09000
H 	H 	0.54030 0.60200 0.71190 0.06200
C 	C 	0.65820 0.79100 0.83620 -0.01100
H 	H 	0.62500 0.80250 0.90100 0.02900
C 	C 	0.76250 0.89900 0.85660 -0.09100
C 	C 	0.70120 0.41290 0.21560 0.50900
H 	H 	0.62410 0.38750 0.15000 -0.12200
H 	H 	0.68080 0.42970 0.29160 -0.12000
C 	C 	0.79600 0.54080 0.23970 -0.97800
H 	H 	0.81100 0.52540 0.16250 0.32000
H 	H 	0.76350 0.61640 0.27100 0.30800
H 	H 	0.87370 0.56180 0.30080 0.32200
C 	C 	0.73080 0.25820 0.88190 0.06800
H 	H 	0.71520 0.29690 0.95850 0.00300
C 	C 	0.82850 0.33340 0.86590 -0.12700
H 	H 	0.87940 0.42050 0.93170 0.06500
C 	C 	0.84980 0.27790 0.75100 0.04000
H 	H 	0.91410 0.32800 0.73800 -0.00100
C 	C 	0.77400 0.14650 0.65540 -0.11300
H 	H 	0.78770 0.10650 0.57800 0.05700
C 	C 	0.67700 0.07540 0.67710 0.05000
C 	C 	0.58870 0.93840 0.58350 0.05300
C 	C 	0.59170 0.86300 0.46060 -0.11700
H 	H 	0.65350 0.89810 0.43460 0.04900
C 	C 	0.50140 0.73580 0.37830 0.03500
H 	H 	0.50090 0.68420 0.29590 0.00200
C 	C 	0.41200 0.68650 0.42080 -0.12200
H 	H 	0.35030 0.60110 0.36700 0.06900
C 	C 	0.41480 0.76490 0.54390 0.06500
H 	H 	0.35480 0.73080 0.57210 0.01000
