data_crystal

_cell_length_a 19.83190
_cell_length_b 19.83190
_cell_length_c 15.22080
_cell_angle_alpha 90.00000
_cell_angle_beta  90.00000
_cell_angle_gamma 120.00000

_symmetry_space_group_name_	'P 1'
_symmetry_space_group_name_H-M	'P 1'

loop_
_symmetry_equiv_pos_as_xyz
  x,y,z

loop_
_atom_site_label
_atom_site_type_symbol
_atom_site_fract_x
_atom_site_fract_y
_atom_site_fract_z
_atom_site_charge
C 	C 	0.46140 0.60650 0.41660 0.47900
C 	C 	0.42970 0.47150 0.45480 0.01400
C 	C 	0.48100 0.55100 0.46220 -0.14700
C 	C 	0.55120 0.58040 0.50630 0.01000
C 	C 	0.27520 0.42810 0.48090 -0.35300
H 	H 	0.22290 0.40740 0.45630 0.11500
H 	H 	0.29190 0.47890 0.50800 0.10300
H 	H 	0.27450 0.39210 0.52550 0.12900
C 	C 	0.58320 0.70510 0.61080 -0.41200
H 	H 	0.60560 0.76170 0.61500 0.14500
H 	H 	0.60090 0.68680 0.66070 0.14700
H 	H 	0.52630 0.67970 0.61160 0.13700
C 	C 	0.31920 0.50680 0.08540 0.47500
C 	C 	0.32680 0.46000 0.01420 -0.04900
C 	C 	0.30770 0.38310 0.02720 -0.01100
C 	C 	0.32450 0.34410 0.96260 -0.17700
C 	C 	0.36040 0.38210 0.88500 0.28600
C 	C 	0.37940 0.45900 0.87200 -0.07900
C 	C 	0.36270 0.49800 0.93660 -0.12100
S 	S 	0.25780 0.33570 0.12260 -0.13700
S 	S 	0.30610 0.24690 0.97950 -0.37200
S 	S 	0.42590 0.50920 0.77420 -0.08700
S 	S 	0.38680 0.59620 0.92680 -0.19800
C 	C 	0.38790 0.34120 0.82330 -0.94300
O 	O 	0.34420 0.29590 0.76640 -0.48100
O 	O 	0.45560 0.36100 0.83210 -0.62600
C 	C 	0.33440 0.34170 0.18920 0.29900
H 	H 	0.36650 0.32690 0.15440 -0.07100
H 	H 	0.31220 0.30630 0.23930 -0.05200
H 	H 	0.36650 0.39520 0.21050 -0.60000
C 	C 	0.20810 0.19190 0.94500 0.28300
H 	H 	0.19020 0.13630 0.95050 -0.03900
H 	H 	0.17550 0.20510 0.98100 0.01000
H 	H 	0.20420 0.20390 0.88300 -0.01200
C 	C 	0.37300 0.44490 0.69040 0.03400
H 	H 	0.39590 0.46880 0.63350 0.00500
H 	H 	0.37570 0.39700 0.69720 0.04100
H 	H 	0.31910 0.43260 0.69300 0.02700
C 	C 	0.48940 0.64540 0.93570 -0.09200
H 	H 	0.51000 0.70170 0.93110 -0.03400
H 	H 	0.50410 0.63340 0.99260 -0.17400
H 	H 	0.51090 0.62840 0.88830 0.02300
C 	C 	0.31970 0.45560 0.00730 -0.07000
C 	C 	0.29090 0.37670 0.02220 0.04800
C 	C 	0.27310 0.32610 0.95160 0.21100
C 	C 	0.28410 0.35430 0.86620 -0.11600
C 	C 	0.31280 0.43320 0.85120 0.00100
C 	C 	0.33070 0.48380 0.92180 0.13900
C 	C 	0.26270 0.30000 0.78400 0.03500
O 	O 	0.31860 0.28900 0.76500 0.52400
O 	O 	0.20210 0.27680 0.73780 -0.17600
O 	O 	0.54000 0.63900 0.15000 -0.27300
H 	H 	0.52700 0.59800 0.12000 0.25000
H 	H 	0.58800 0.66300 0.15200 1.07100
S 	S 	0.35880 0.58410 0.90490 0.20700
C 	C 	0.31760 0.22540 0.01600 0.46200
H 	H 	0.30520 0.17190 0.02820 -0.09600
H 	H 	0.36270 0.25050 0.97700 -0.00700
H 	H 	0.32970 0.25440 0.07170 -0.06500
S 	S 	0.23710 0.22450 0.96620 -0.23800
S 	S 	0.27640 0.34400 0.13900 0.03600
S 	S 	0.32250 0.47000 0.73580 0.00800
C 	C 	0.37300 0.38100 0.17080 0.15800
H 	H 	0.40690 0.40180 0.11930 -0.04000
H 	H 	0.37930 0.33940 0.19720 -0.04400
H 	H 	0.38720 0.42270 0.21390 0.45400
C 	C 	0.42020 0.49900 0.71800 -0.40500
H 	H 	0.43530 0.52070 0.65880 0.13500
H 	H 	0.45240 0.53930 0.76140 0.18700
H 	H 	0.42790 0.45440 0.72470 0.18200
C 	C 	0.46020 0.63090 0.91400 -0.36300
H 	H 	0.48220 0.68710 0.90580 0.17900
H 	H 	0.47430 0.62110 0.97240 0.33500
H 	H 	0.48090 0.61090 0.86910 0.12500
Eu	Eu	0.44228 0.66051 0.21252 2.06600
O 	O 	0.48240 0.62230 0.33900 -0.53200
O 	O 	0.42450 0.63140 0.45900 -0.56400
O 	O 	0.32570 0.58340 0.30110 -0.84000
H 	H 	0.32260 0.53450 0.32350 0.17300
O 	O 	0.34640 0.68460 0.57500 -0.23300
H 	H 	0.36920 0.67070 0.61150 0.02400
H 	H 	0.32770 0.70730 0.60440 0.15400
O 	O 	0.25650 0.50480 0.09660 -0.54700
O 	O 	0.37920 0.54360 0.12920 -0.55600
S 	S 	0.34209 0.43902 0.39451 -0.02100
S 	S 	0.61332 0.68241 0.51310 0.05000
C 	C 	0.39350 0.85490 0.41660 0.48000
C 	C 	0.52850 0.95820 0.45480 0.01500
C 	C 	0.44900 0.93000 0.46220 -0.14600
C 	C 	0.41960 0.97080 0.50630 0.01100
C 	C 	0.57190 0.84710 0.48090 -0.35200
H 	H 	0.59260 0.81550 0.45630 0.11600
H 	H 	0.52110 0.81300 0.50800 0.10300
H 	H 	0.60790 0.88240 0.52550 0.12900
C 	C 	0.29490 0.87810 0.61080 -0.41100
H 	H 	0.23830 0.84390 0.61500 0.14500
H 	H 	0.31320 0.91410 0.66070 0.14700
H 	H 	0.32030 0.84660 0.61160 0.13700
C 	C 	0.49320 0.81240 0.08540 0.47400
C 	C 	0.54000 0.86680 0.01420 -0.04800
C 	C 	0.61690 0.92460 0.02720 -0.01100
C 	C 	0.65590 0.98040 0.96260 -0.17100
C 	C 	0.61790 0.97830 0.88500 0.28100
C 	C 	0.54100 0.92040 0.87200 -0.07800
C 	C 	0.50200 0.86470 0.93660 -0.12000
S 	S 	0.66430 0.92210 0.12260 -0.13400
S 	S 	0.75310 0.05920 0.97950 -0.38700
S 	S 	0.49080 0.91670 0.77420 -0.08600
S 	S 	0.40380 0.79060 0.92680 -0.19700
C 	C 	0.65880 0.04670 0.82330 -0.93600
O 	O 	0.70410 0.04830 0.76640 -0.47600
O 	O 	0.63900 0.09460 0.83210 -0.62500
C 	C 	0.65830 0.99270 0.18920 0.29100
H 	H 	0.67310 0.03960 0.15440 -0.06900
H 	H 	0.69370 0.00590 0.23930 -0.05100
H 	H 	0.60480 0.97130 0.21050 -0.58500
C 	C 	0.80810 0.01620 0.94500 0.29900
H 	H 	0.86370 0.05390 0.95050 -0.04200
H 	H 	0.79490 0.97040 0.98100 0.00500
H 	H 	0.79610 0.00030 0.88300 -0.01500
C 	C 	0.55510 0.92810 0.69040 0.03300
H 	H 	0.53120 0.92710 0.63350 0.00500
H 	H 	0.60300 0.97870 0.69720 0.04100
H 	H 	0.56740 0.88650 0.69300 0.02700
C 	C 	0.35460 0.84400 0.93570 -0.09300
H 	H 	0.29830 0.80830 0.93110 -0.03400
H 	H 	0.36660 0.87070 0.99260 -0.17500
H 	H 	0.37160 0.88250 0.88830 0.02300
C 	C 	0.54440 0.86410 0.00730 -0.07000
C 	C 	0.62330 0.91420 0.02220 0.04800
C 	C 	0.67390 0.94700 0.95160 0.20700
C 	C 	0.64570 0.92980 0.86620 -0.11400
C 	C 	0.56680 0.87960 0.85120 0.00100
C 	C 	0.51620 0.84690 0.92180 0.13600
C 	C 	0.70000 0.96270 0.78400 0.03600
O 	O 	0.71100 0.02960 0.76500 0.51900
O 	O 	0.72320 0.92530 0.73780 -0.17600
O 	O 	0.36100 0.90100 0.15000 -0.27300
H 	H 	0.40200 0.92900 0.12000 0.25100
H 	H 	0.33700 0.92500 0.15200 1.06700
S 	S 	0.41590 0.77470 0.90490 0.20700
C 	C 	0.77460 0.09220 0.01600 0.47700
H 	H 	0.82810 0.13330 0.02820 -0.10100
H 	H 	0.74950 0.11220 0.97700 -0.00600
H 	H 	0.74560 0.07530 0.07170 -0.06900
S 	S 	0.77550 0.01260 0.96620 -0.23900
S 	S 	0.65600 0.93240 0.13900 0.03600
S 	S 	0.53000 0.85250 0.73580 0.00700
C 	C 	0.61900 0.99200 0.17080 0.15600
H 	H 	0.59820 0.00510 0.11930 -0.04000
H 	H 	0.66060 0.03990 0.19720 -0.04400
H 	H 	0.57730 0.96450 0.21390 0.44300
C 	C 	0.50100 0.92120 0.71800 -0.40400
H 	H 	0.47930 0.91460 0.65880 0.13400
H 	H 	0.46070 0.91310 0.76140 0.18600
H 	H 	0.54560 0.97350 0.72470 0.18100
C 	C 	0.36910 0.82930 0.91400 -0.36400
H 	H 	0.31290 0.79510 0.90580 0.17900
H 	H 	0.37890 0.85320 0.97240 0.33600
H 	H 	0.38910 0.87000 0.86910 0.12500
Eu	Eu	0.33949 0.78177 0.21252 2.06700
O 	O 	0.37770 0.86010 0.33900 -0.53200
O 	O 	0.36860 0.79310 0.45900 -0.56400
O 	O 	0.41660 0.74230 0.30110 -0.84000
H 	H 	0.46550 0.78810 0.32350 0.17300
O 	O 	0.31540 0.66180 0.57500 -0.23300
H 	H 	0.32930 0.69850 0.61150 0.02400
H 	H 	0.29270 0.62040 0.60440 0.15400
O 	O 	0.49520 0.75170 0.09660 -0.54700
O 	O 	0.45640 0.83560 0.12920 -0.55500
S 	S 	0.56098 0.90307 0.39451 -0.02100
S 	S 	0.31759 0.93091 0.51310 0.05000
C 	C 	0.14510 0.53860 0.41660 0.48000
C 	C 	0.04180 0.57030 0.45480 0.01500
C 	C 	0.07000 0.51900 0.46220 -0.14600
C 	C 	0.02920 0.44880 0.50630 0.01100
C 	C 	0.15290 0.72480 0.48090 -0.35200
H 	H 	0.18450 0.77710 0.45630 0.11600
H 	H 	0.18700 0.70810 0.50800 0.10300
H 	H 	0.11760 0.72550 0.52550 0.12900
C 	C 	0.12190 0.41680 0.61080 -0.41100
H 	H 	0.15610 0.39440 0.61500 0.14500
H 	H 	0.08590 0.39910 0.66070 0.14700
H 	H 	0.15340 0.47370 0.61160 0.13700
C 	C 	0.18760 0.68080 0.08540 0.47400
C 	C 	0.13320 0.67320 0.01420 -0.04800
C 	C 	0.07540 0.69230 0.02720 -0.01000
C 	C 	0.01960 0.67550 0.96260 -0.17700
C 	C 	0.02170 0.63960 0.88500 0.28300
C 	C 	0.07960 0.62060 0.87200 -0.07900
C 	C 	0.13530 0.63730 0.93660 -0.12000
S 	S 	0.07790 0.74220 0.12260 -0.13400
S 	S 	0.94080 0.69390 0.97950 -0.37600
S 	S 	0.08330 0.57410 0.77420 -0.08600
S 	S 	0.20940 0.61320 0.92680 -0.19700
C 	C 	0.95330 0.61210 0.82330 -0.93900
O 	O 	0.95170 0.65580 0.76640 -0.47700
O 	O 	0.90540 0.54440 0.83210 -0.62600
C 	C 	0.00730 0.66560 0.18920 0.29200
H 	H 	0.96040 0.63350 0.15440 -0.06900
H 	H 	0.99410 0.68780 0.23930 -0.05100
H 	H 	0.02870 0.63350 0.21050 -0.58600
C 	C 	0.98380 0.79190 0.94500 0.29100
H 	H 	0.94610 0.80980 0.95050 -0.04100
H 	H 	0.02960 0.82450 0.98100 0.00600
H 	H 	0.99970 0.79580 0.88300 -0.01300
C 	C 	0.07190 0.62700 0.69040 0.03300
H 	H 	0.07290 0.60410 0.63350 0.00500
H 	H 	0.02130 0.62430 0.69720 0.04000
H 	H 	0.11350 0.68090 0.69300 0.02700
C 	C 	0.15600 0.51060 0.93570 -0.09300
H 	H 	0.19170 0.49000 0.93110 -0.03400
H 	H 	0.12930 0.49590 0.99260 -0.17400
H 	H 	0.11750 0.48910 0.88830 0.02300
C 	C 	0.13590 0.68030 0.00730 -0.07000
C 	C 	0.08580 0.70910 0.02220 0.04900
C 	C 	0.05300 0.72690 0.95160 0.20800
C 	C 	0.07020 0.71590 0.86620 -0.11500
C 	C 	0.12040 0.68720 0.85120 0.00100
C 	C 	0.15310 0.66930 0.92180 0.13600
C 	C 	0.03730 0.73730 0.78400 0.03500
O 	O 	0.97040 0.68140 0.76500 0.52000
O 	O 	0.07470 0.79790 0.73780 -0.17700
O 	O 	0.09900 0.46000 0.15000 -0.27300
H 	H 	0.07100 0.47300 0.12000 0.25000
H 	H 	0.07500 0.41200 0.15200 1.06900
S 	S 	0.22530 0.64120 0.90490 0.20700
C 	C 	0.90780 0.68240 0.01600 0.46500
H 	H 	0.86670 0.69480 0.02820 -0.09700
H 	H 	0.88780 0.63730 0.97700 -0.00600
H 	H 	0.92470 0.67030 0.07170 -0.06600
S 	S 	0.98740 0.76290 0.96620 -0.23700
S 	S 	0.06760 0.72360 0.13900 0.03700
S 	S 	0.14750 0.67750 0.73580 0.00700
C 	C 	0.00800 0.62700 0.17080 0.15600
H 	H 	0.99490 0.59310 0.11930 -0.04000
H 	H 	0.96010 0.62070 0.19720 -0.04400
H 	H 	0.03550 0.61280 0.21390 0.44400
C 	C 	0.07880 0.57980 0.71800 -0.40400
H 	H 	0.08540 0.56470 0.65880 0.13400
H 	H 	0.08690 0.54760 0.76140 0.18600
H 	H 	0.02650 0.57210 0.72470 0.18100
C 	C 	0.17070 0.53980 0.91400 -0.36300
H 	H 	0.20490 0.51780 0.90580 0.17900
H 	H 	0.14680 0.52570 0.97240 0.33500
H 	H 	0.13000 0.51910 0.86910 0.12500
Eu	Eu	0.21823 0.55772 0.21252 2.06700
O 	O 	0.13990 0.51760 0.33900 -0.53200
O 	O 	0.20690 0.57550 0.45900 -0.56400
O 	O 	0.25770 0.67430 0.30110 -0.84000
H 	H 	0.21190 0.67740 0.32350 0.17300
O 	O 	0.33820 0.65360 0.57500 -0.23300
H 	H 	0.30150 0.63080 0.61150 0.02400
H 	H 	0.37960 0.67230 0.60440 0.15400
O 	O 	0.24830 0.74350 0.09660 -0.54600
O 	O 	0.16440 0.62080 0.12920 -0.55600
S 	S 	0.09693 0.65791 0.39451 -0.02100
S 	S 	0.06909 0.38668 0.51310 0.05000
C 	C 	0.53860 0.39350 0.58340 0.48000
C 	C 	0.57030 0.52850 0.54520 0.01500
C 	C 	0.51900 0.44900 0.53780 -0.14600
C 	C 	0.44880 0.41960 0.49370 0.01100
C 	C 	0.72480 0.57190 0.51910 -0.35200
H 	H 	0.77710 0.59260 0.54370 0.11600
H 	H 	0.70810 0.52110 0.49200 0.10300
H 	H 	0.72550 0.60790 0.47450 0.12900
C 	C 	0.41680 0.29490 0.38920 -0.41200
H 	H 	0.39440 0.23830 0.38500 0.14500
H 	H 	0.39910 0.31320 0.33930 0.14700
H 	H 	0.47370 0.32030 0.38840 0.13700
C 	C 	0.68080 0.49320 0.91460 0.47500
C 	C 	0.67320 0.54000 0.98580 -0.04900
C 	C 	0.69230 0.61690 0.97280 -0.01100
C 	C 	0.67550 0.65590 0.03740 -0.17700
C 	C 	0.63960 0.61790 0.11500 0.28600
C 	C 	0.62060 0.54100 0.12800 -0.07900
C 	C 	0.63730 0.50200 0.06340 -0.12100
S 	S 	0.74220 0.66430 0.87740 -0.13700
S 	S 	0.69390 0.75310 0.02050 -0.37200
S 	S 	0.57410 0.49080 0.22580 -0.08700
S 	S 	0.61320 0.40380 0.07320 -0.19800
C 	C 	0.61210 0.65880 0.17670 -0.94300
O 	O 	0.65580 0.70410 0.23360 -0.48100
O 	O 	0.54440 0.63900 0.16790 -0.62600
C 	C 	0.66560 0.65830 0.81080 0.29900
H 	H 	0.63350 0.67310 0.84560 -0.07100
H 	H 	0.68780 0.69370 0.76070 -0.05200
H 	H 	0.63350 0.60480 0.78950 -0.60000
C 	C 	0.79190 0.80810 0.05500 0.28300
H 	H 	0.80980 0.86370 0.04950 -0.03900
H 	H 	0.82450 0.79490 0.01900 0.01000
H 	H 	0.79580 0.79610 0.11700 -0.01200
C 	C 	0.62700 0.55510 0.30960 0.03400
H 	H 	0.60410 0.53120 0.36650 0.00500
H 	H 	0.62430 0.60300 0.30280 0.04100
H 	H 	0.68090 0.56740 0.30700 0.02700
C 	C 	0.51060 0.35460 0.06430 -0.09200
H 	H 	0.49000 0.29830 0.06890 -0.03400
H 	H 	0.49590 0.36660 0.00740 -0.17400
H 	H 	0.48910 0.37160 0.11170 0.02300
C 	C 	0.68030 0.54440 0.99270 -0.07000
C 	C 	0.70910 0.62330 0.97780 0.04800
C 	C 	0.72690 0.67390 0.04840 0.21100
C 	C 	0.71590 0.64570 0.13380 -0.11600
C 	C 	0.68720 0.56680 0.14880 0.00100
C 	C 	0.66930 0.51620 0.07820 0.13900
C 	C 	0.73730 0.70000 0.21600 0.03500
O 	O 	0.68140 0.71100 0.23500 0.52400
O 	O 	0.79790 0.72320 0.26220 -0.17600
O 	O 	0.46000 0.36100 0.85000 -0.27300
H 	H 	0.47300 0.40200 0.88000 0.25000
H 	H 	0.41200 0.33700 0.84800 1.07100
S 	S 	0.64120 0.41590 0.09510 0.20700
C 	C 	0.68240 0.77460 0.98400 0.46200
H 	H 	0.69480 0.82810 0.97180 -0.09600
H 	H 	0.63730 0.74950 0.02300 -0.00700
H 	H 	0.67030 0.74560 0.92830 -0.06500
S 	S 	0.76290 0.77550 0.03380 -0.23800
S 	S 	0.72360 0.65600 0.86100 0.03600
S 	S 	0.67750 0.53000 0.26420 0.00800
C 	C 	0.62700 0.61900 0.82920 0.15800
H 	H 	0.59310 0.59820 0.88070 -0.04000
H 	H 	0.62070 0.66060 0.80280 -0.04400
H 	H 	0.61280 0.57730 0.78610 0.45400
C 	C 	0.57980 0.50100 0.28200 -0.40500
H 	H 	0.56470 0.47930 0.34120 0.13500
H 	H 	0.54760 0.46070 0.23860 0.18700
H 	H 	0.57210 0.54560 0.27530 0.18200
C 	C 	0.53980 0.36910 0.08600 -0.36300
H 	H 	0.51780 0.31290 0.09420 0.17900
H 	H 	0.52570 0.37890 0.02760 0.33500
H 	H 	0.51910 0.38910 0.13090 0.12500
Eu	Eu	0.55772 0.33949 0.78748 2.06600
O 	O 	0.51760 0.37770 0.66100 -0.53200
O 	O 	0.57550 0.36860 0.54100 -0.56400
O 	O 	0.67430 0.41660 0.69890 -0.84000
H 	H 	0.67740 0.46550 0.67650 0.17300
O 	O 	0.65360 0.31540 0.42500 -0.23300
H 	H 	0.63080 0.32930 0.38850 0.02400
H 	H 	0.67230 0.29270 0.39560 0.15400
O 	O 	0.74350 0.49520 0.90340 -0.54700
O 	O 	0.62080 0.45640 0.87080 -0.55600
S 	S 	0.65791 0.56098 0.60549 -0.02100
S 	S 	0.38668 0.31759 0.48690 0.05000
C 	C 	0.60650 0.14510 0.58340 0.48000
C 	C 	0.47150 0.04180 0.54520 0.01500
C 	C 	0.55100 0.07000 0.53780 -0.14600
C 	C 	0.58040 0.02920 0.49370 0.01100
C 	C 	0.42810 0.15290 0.51910 -0.35200
H 	H 	0.40740 0.18450 0.54370 0.11600
H 	H 	0.47890 0.18700 0.49200 0.10300
H 	H 	0.39210 0.11760 0.47450 0.12900
C 	C 	0.70510 0.12190 0.38920 -0.41100
H 	H 	0.76170 0.15610 0.38500 0.14500
H 	H 	0.68680 0.08590 0.33930 0.14700
H 	H 	0.67970 0.15340 0.38840 0.13700
C 	C 	0.50680 0.18760 0.91460 0.47400
C 	C 	0.46000 0.13320 0.98580 -0.04800
C 	C 	0.38310 0.07540 0.97280 -0.01100
C 	C 	0.34410 0.01960 0.03740 -0.17100
C 	C 	0.38210 0.02170 0.11500 0.28100
C 	C 	0.45900 0.07960 0.12800 -0.07800
C 	C 	0.49800 0.13530 0.06340 -0.12000
S 	S 	0.33570 0.07790 0.87740 -0.13400
S 	S 	0.24690 0.94080 0.02050 -0.38700
S 	S 	0.50920 0.08330 0.22580 -0.08600
S 	S 	0.59620 0.20940 0.07320 -0.19700
C 	C 	0.34120 0.95330 0.17670 -0.93600
O 	O 	0.29590 0.95170 0.23360 -0.47600
O 	O 	0.36100 0.90540 0.16790 -0.62500
C 	C 	0.34170 0.00730 0.81080 0.29100
H 	H 	0.32690 0.96040 0.84560 -0.06900
H 	H 	0.30630 0.99410 0.76070 -0.05100
H 	H 	0.39520 0.02870 0.78950 -0.58500
C 	C 	0.19190 0.98380 0.05500 0.29900
H 	H 	0.13630 0.94610 0.04950 -0.04200
H 	H 	0.20510 0.02960 0.01900 0.00500
H 	H 	0.20390 0.99970 0.11700 -0.01500
C 	C 	0.44490 0.07190 0.30960 0.03300
H 	H 	0.46880 0.07290 0.36650 0.00500
H 	H 	0.39700 0.02130 0.30280 0.04100
H 	H 	0.43260 0.11350 0.30700 0.02700
C 	C 	0.64540 0.15600 0.06430 -0.09300
H 	H 	0.70170 0.19170 0.06890 -0.03400
H 	H 	0.63340 0.12930 0.00740 -0.17500
H 	H 	0.62840 0.11750 0.11170 0.02300
C 	C 	0.45560 0.13590 0.99270 -0.07000
C 	C 	0.37670 0.08580 0.97780 0.04800
C 	C 	0.32610 0.05300 0.04840 0.20700
C 	C 	0.35430 0.07020 0.13380 -0.11400
C 	C 	0.43320 0.12040 0.14880 0.00100
C 	C 	0.48380 0.15310 0.07820 0.13600
C 	C 	0.30000 0.03730 0.21600 0.03600
O 	O 	0.28900 0.97040 0.23500 0.51900
O 	O 	0.27680 0.07470 0.26220 -0.17600
O 	O 	0.63900 0.09900 0.85000 -0.27300
H 	H 	0.59800 0.07100 0.88000 0.25100
H 	H 	0.66300 0.07500 0.84800 1.06700
S 	S 	0.58410 0.22530 0.09510 0.20700
C 	C 	0.22540 0.90780 0.98400 0.47700
H 	H 	0.17190 0.86670 0.97180 -0.10100
H 	H 	0.25050 0.88780 0.02300 -0.00600
H 	H 	0.25440 0.92470 0.92830 -0.06900
S 	S 	0.22450 0.98740 0.03380 -0.23900
S 	S 	0.34400 0.06760 0.86100 0.03600
S 	S 	0.47000 0.14750 0.26420 0.00700
C 	C 	0.38100 0.00800 0.82920 0.15600
H 	H 	0.40180 0.99490 0.88070 -0.04000
H 	H 	0.33940 0.96010 0.80280 -0.04400
H 	H 	0.42270 0.03550 0.78610 0.44300
C 	C 	0.49900 0.07880 0.28200 -0.40400
H 	H 	0.52070 0.08540 0.34120 0.13400
H 	H 	0.53930 0.08690 0.23860 0.18600
H 	H 	0.45440 0.02650 0.27530 0.18100
C 	C 	0.63090 0.17070 0.08600 -0.36400
H 	H 	0.68710 0.20490 0.09420 0.17900
H 	H 	0.62110 0.14680 0.02760 0.33600
H 	H 	0.61090 0.13000 0.13090 0.12500
Eu	Eu	0.66051 0.21823 0.78748 2.06700
O 	O 	0.62230 0.13990 0.66100 -0.53200
O 	O 	0.63140 0.20690 0.54100 -0.56400
O 	O 	0.58340 0.25770 0.69890 -0.84000
H 	H 	0.53450 0.21190 0.67650 0.17300
O 	O 	0.68460 0.33820 0.42500 -0.23300
H 	H 	0.67070 0.30150 0.38850 0.02400
H 	H 	0.70730 0.37960 0.39560 0.15400
O 	O 	0.50480 0.24830 0.90340 -0.54700
O 	O 	0.54360 0.16440 0.87080 -0.55500
S 	S 	0.43902 0.09693 0.60549 -0.02100
S 	S 	0.68241 0.06909 0.48690 0.05000
C 	C 	0.85490 0.46140 0.58340 0.48000
C 	C 	0.95820 0.42970 0.54520 0.01500
C 	C 	0.93000 0.48100 0.53780 -0.14600
C 	C 	0.97080 0.55120 0.49370 0.01100
C 	C 	0.84710 0.27520 0.51910 -0.35200
H 	H 	0.81550 0.22290 0.54370 0.11600
H 	H 	0.81300 0.29190 0.49200 0.10300
H 	H 	0.88240 0.27450 0.47450 0.12900
C 	C 	0.87810 0.58320 0.38920 -0.41100
H 	H 	0.84390 0.60560 0.38500 0.14500
H 	H 	0.91410 0.60090 0.33930 0.14700
H 	H 	0.84660 0.52630 0.38840 0.13700
C 	C 	0.81240 0.31920 0.91460 0.47400
C 	C 	0.86680 0.32680 0.98580 -0.04800
C 	C 	0.92460 0.30770 0.97280 -0.01000
C 	C 	0.98040 0.32450 0.03740 -0.17700
C 	C 	0.97830 0.36040 0.11500 0.28300
C 	C 	0.92040 0.37940 0.12800 -0.07900
C 	C 	0.86470 0.36270 0.06340 -0.12000
S 	S 	0.92210 0.25780 0.87740 -0.13400
S 	S 	0.05920 0.30610 0.02050 -0.37600
S 	S 	0.91670 0.42590 0.22580 -0.08600
S 	S 	0.79060 0.38680 0.07320 -0.19700
C 	C 	0.04670 0.38790 0.17670 -0.93900
O 	O 	0.04830 0.34420 0.23360 -0.47700
O 	O 	0.09460 0.45560 0.16790 -0.62600
C 	C 	0.99270 0.33440 0.81080 0.29200
H 	H 	0.03960 0.36650 0.84560 -0.06900
H 	H 	0.00590 0.31220 0.76070 -0.05100
H 	H 	0.97130 0.36650 0.78950 -0.58600
C 	C 	0.01620 0.20810 0.05500 0.29100
H 	H 	0.05390 0.19020 0.04950 -0.04100
H 	H 	0.97040 0.17550 0.01900 0.00600
H 	H 	0.00030 0.20420 0.11700 -0.01300
C 	C 	0.92810 0.37300 0.30960 0.03300
H 	H 	0.92710 0.39590 0.36650 0.00500
H 	H 	0.97870 0.37570 0.30280 0.04000
H 	H 	0.88650 0.31910 0.30700 0.02700
C 	C 	0.84400 0.48940 0.06430 -0.09300
H 	H 	0.80830 0.51000 0.06890 -0.03400
H 	H 	0.87070 0.50410 0.00740 -0.17400
H 	H 	0.88250 0.51090 0.11170 0.02300
C 	C 	0.86410 0.31970 0.99270 -0.07000
C 	C 	0.91420 0.29090 0.97780 0.04900
C 	C 	0.94700 0.27310 0.04840 0.20800
C 	C 	0.92980 0.28410 0.13380 -0.11500
C 	C 	0.87960 0.31280 0.14880 0.00100
C 	C 	0.84690 0.33070 0.07820 0.13600
C 	C 	0.96270 0.26270 0.21600 0.03500
O 	O 	0.02960 0.31860 0.23500 0.52000
O 	O 	0.92530 0.20210 0.26220 -0.17700
O 	O 	0.90100 0.54000 0.85000 -0.27300
H 	H 	0.92900 0.52700 0.88000 0.25000
H 	H 	0.92500 0.58800 0.84800 1.06900
S 	S 	0.77470 0.35880 0.09510 0.20700
C 	C 	0.09220 0.31760 0.98400 0.46500
H 	H 	0.13330 0.30520 0.97180 -0.09700
H 	H 	0.11220 0.36270 0.02300 -0.00600
H 	H 	0.07530 0.32970 0.92830 -0.06600
S 	S 	0.01260 0.23710 0.03380 -0.23700
S 	S 	0.93240 0.27640 0.86100 0.03700
S 	S 	0.85250 0.32250 0.26420 0.00700
C 	C 	0.99200 0.37300 0.82920 0.15600
H 	H 	0.00510 0.40690 0.88070 -0.04000
H 	H 	0.03990 0.37930 0.80280 -0.04400
H 	H 	0.96450 0.38720 0.78610 0.44400
C 	C 	0.92120 0.42020 0.28200 -0.40400
H 	H 	0.91460 0.43530 0.34120 0.13400
H 	H 	0.91310 0.45240 0.23860 0.18600
H 	H 	0.97350 0.42790 0.27530 0.18100
C 	C 	0.82930 0.46020 0.08600 -0.36300
H 	H 	0.79510 0.48220 0.09420 0.17900
H 	H 	0.85320 0.47430 0.02760 0.33500
H 	H 	0.87000 0.48090 0.13090 0.12500
Eu	Eu	0.78177 0.44228 0.78748 2.06700
O 	O 	0.86010 0.48240 0.66100 -0.53200
O 	O 	0.79310 0.42450 0.54100 -0.56400
O 	O 	0.74230 0.32570 0.69890 -0.84000
H 	H 	0.78810 0.32260 0.67650 0.17300
O 	O 	0.66180 0.34640 0.42500 -0.23300
H 	H 	0.69850 0.36920 0.38850 0.02400
H 	H 	0.62040 0.32770 0.39560 0.15400
O 	O 	0.75170 0.25650 0.90340 -0.54600
O 	O 	0.83560 0.37920 0.87080 -0.55600
S 	S 	0.90307 0.34209 0.60549 -0.02100
S 	S 	0.93091 0.61332 0.48690 0.05000
Eu	Eu	0.33333 0.66667 0.41665 2.04300
O 	O 	0.33333 0.66667 0.15200 -0.81100
H 	H 	0.33333 0.66667 0.08630 0.18800
Eu	Eu	0.66667 0.33333 0.58335 2.04300
O 	O 	0.66667 0.33333 0.84800 -0.81100
H 	H 	0.66667 0.33333 0.91370 0.18800
