data_crystal

_cell_length_a 8.35920
_cell_length_b 8.54980
_cell_length_c 11.55160
_cell_angle_alpha 111.21900
_cell_angle_beta  106.89300
_cell_angle_gamma 92.67000

_symmetry_space_group_name_	'P 1'
_symmetry_space_group_name_H-M	'P 1'

loop_
_symmetry_equiv_pos_as_xyz
  x,y,z

loop_
_atom_site_label
_atom_site_type_symbol
_atom_site_fract_x
_atom_site_fract_y
_atom_site_fract_z
_atom_site_charge
N 	N 	0.64990 0.19180 0.99940 -0.17800
N 	N 	0.58440 0.34040 0.00340 -0.13000
N 	N 	0.84250 0.36760 0.99910 -0.07400
N 	N 	0.99840 0.42650 0.99860 -0.02900
N 	N 	0.45320 0.16740 0.15770 -0.21500
N 	N 	0.29070 0.17860 0.16210 -0.12700
N 	N 	0.47200 0.35930 0.34500 -0.10500
N 	N 	0.55330 0.47790 0.47260 -0.04200
C 	C 	0.70230 0.44370 0.00310 0.03700
H 	H 	0.69340 0.55270 0.00520 0.02700
C 	C 	0.80310 0.21060 0.99720 0.10800
H 	H 	0.87450 0.13010 0.99460 -0.01100
C 	C 	0.30550 0.29400 0.27570 0.09600
H 	H 	0.21570 0.32750 0.30560 0.01500
C 	C 	0.55990 0.27750 0.26730 0.09800
H 	H 	0.67730 0.29650 0.28850 -0.01300
N 	N 	0.35010 0.80820 0.00060 -0.19800
N 	N 	0.41560 0.65960 0.99660 -0.07700
N 	N 	0.15750 0.63240 0.00090 -0.13100
N 	N 	0.00160 0.57350 0.00140 -0.05400
N 	N 	0.54680 0.83260 0.84230 -0.15900
N 	N 	0.70930 0.82140 0.83790 -0.07900
N 	N 	0.52800 0.64070 0.65500 -0.10200
N 	N 	0.44670 0.52210 0.52740 -0.03900
C 	C 	0.29770 0.55630 0.99690 0.16300
H 	H 	0.30660 0.44730 0.99480 0.02000
C 	C 	0.19690 0.78940 0.00280 0.10600
H 	H 	0.12550 0.86990 0.00540 0.02200
C 	C 	0.69450 0.70600 0.72430 0.11300
H 	H 	0.78430 0.67250 0.69440 0.02500
C 	C 	0.44010 0.72250 0.73270 0.11600
H 	H 	0.32270 0.70350 0.71150 0.01500
Cu	Cu	0.50000 0.00000 -0.00000 0.80200
