data_crystal

_cell_length_a 16.44550
_cell_length_b 15.00980
_cell_length_c 27.89950
_cell_angle_alpha 79.51300
_cell_angle_beta  98.02400
_cell_angle_gamma 105.15600

_symmetry_space_group_name_	'P 1'
_symmetry_space_group_name_H-M	'P 1'

loop_
_symmetry_equiv_pos_as_xyz
  x,y,z

loop_
_atom_site_label
_atom_site_type_symbol
_atom_site_fract_x
_atom_site_fract_y
_atom_site_fract_z
_atom_site_charge
Cu	Cu	0.76192 0.45493 0.02571 0.84900
N 	N 	0.87370 0.44500 0.06303 -0.23200
H 	H 	0.86810 0.44500 0.09760 0.05300
N 	N 	0.78660 0.59500 0.02303 -0.23000
H 	H 	0.77350 0.60490 0.05460 0.05400
N 	N 	0.73830 0.31490 0.02903 -0.23000
H 	H 	0.75090 0.30410 0.99760 0.05500
N 	N 	0.65100 0.46500 0.98753 -0.23400
H 	H 	0.65850 0.46840 0.95300 0.05100
C 	C 	0.58850 0.29410 0.99516 -0.16700
H 	H 	0.60900 0.29670 0.96390 0.05800
H 	H 	0.53420 0.24880 0.99620 0.06200
C 	C 	0.72250 0.62680 0.98590 -0.09300
H 	H 	0.73800 0.63030 0.95320 0.03400
H 	H 	0.71840 0.68820 0.99000 0.04500
C 	C 	0.63890 0.55660 0.99311 -0.08600
H 	H 	0.62240 0.55430 0.02550 0.02700
H 	H 	0.59500 0.57360 0.96890 0.04100
C 	C 	0.94740 0.52170 0.04918 -0.03300
H 	H 	0.95580 0.52250 0.01540 0.01400
H 	H 	0.99760 0.51020 0.06950 0.02200
C 	C 	0.88490 0.35190 0.05927 -0.08800
H 	H 	0.92810 0.33540 0.08420 0.04300
H 	H 	0.90220 0.35220 0.02740 0.03100
C 	C 	0.87380 0.65210 0.01657 -0.03500
H 	H 	0.87680 0.71650 0.01920 0.02800
H 	H 	0.88800 0.65060 0.98420 0.01900
C 	C 	0.65020 0.26060 0.03584 -0.03700
H 	H 	0.63540 0.26730 0.06720 0.01700
H 	H 	0.64620 0.19490 0.03590 0.02900
C 	C 	0.93670 0.61570 0.05486 -0.16600
H 	H 	0.99120 0.66030 0.05340 0.05900
H 	H 	0.91850 0.61140 0.08700 0.05700
C 	C 	0.57540 0.38860 0.99822 -0.03200
H 	H 	0.52800 0.39990 0.97510 0.02400
H 	H 	0.56120 0.38860 0.03080 0.01600
C 	C 	0.80190 0.28340 0.06636 -0.08800
H 	H 	0.80560 0.22160 0.06260 0.04400
H 	H 	0.78610 0.28070 0.09890 0.03400
Cu	Cu	0.75023 0.79266 0.22149 0.84900
N 	N 	0.82690 0.71780 0.26117 -0.23700
H 	H 	0.86680 0.75920 0.28180 0.05600
N 	N 	0.67940 0.87660 0.18203 -0.23400
H 	H 	0.63350 0.83630 0.16390 0.05500
N 	N 	0.81660 0.79790 0.16446 -0.23100
H 	H 	0.78510 0.74560 0.14750 0.05100
N 	N 	0.68920 0.79550 0.27865 -0.23400
H 	H 	0.72600 0.84220 0.29760 0.05200
C 	C 	0.83040 0.88070 0.12615 -0.02500
H 	H 	0.85080 0.86490 0.09860 0.02400
H 	H 	0.87450 0.92990 0.13890 0.01800
C 	C 	0.74220 0.66270 0.33154 -0.17300
H 	H 	0.78390 0.70670 0.34940 0.06100
H 	H 	0.72320 0.60690 0.35480 0.06400
C 	C 	0.66770 0.70440 0.31330 -0.04100
H 	H 	0.64420 0.71500 0.34120 0.02700
H 	H 	0.62440 0.65990 0.29670 0.01700
C 	C 	0.71830 0.95320 0.14581 -0.02000
H 	H 	0.76340 0.99650 0.16210 0.01400
H 	H 	0.67640 0.98660 0.12970 0.02500
C 	C 	0.89610 0.77490 0.18540 -0.08500
H 	H 	0.93490 0.82870 0.19740 0.02900
H 	H 	0.92200 0.75690 0.16070 0.03900
C 	C 	0.87710 0.69500 0.22709 -0.08800
H 	H 	0.84580 0.63860 0.21420 0.02800
H 	H 	0.92970 0.68370 0.24450 0.03800
C 	C 	0.63890 0.90820 0.21820 -0.09500
H 	H 	0.67800 0.96050 0.23140 0.03100
H 	H 	0.58900 0.92830 0.20240 0.04400
C 	C 	0.61510 0.82980 0.25810 -0.07600
H 	H 	0.59270 0.85060 0.28330 0.03400
H 	H 	0.57150 0.78000 0.24540 0.02700
C 	C 	0.75360 0.91760 0.10820 -0.17700
H 	H 	0.70970 0.86820 0.09540 0.06200
H 	H 	0.76760 0.96790 0.08120 0.06600
C 	C 	0.78570 0.63690 0.29404 -0.02300
H 	H 	0.82770 0.60400 0.31070 0.02200
H 	H 	0.74440 0.59480 0.27500 0.00600
Cu	Cu	0.77419 0.24102 0.28258 0.84800
N 	N 	0.77460 0.21370 0.21433 -0.23200
H 	H 	0.80100 0.27280 0.19480 0.05400
N 	N 	0.77160 0.27000 0.35003 -0.23200
H 	H 	0.73350 0.21560 0.36720 0.05300
N 	N 	0.87220 0.18000 0.30138 -0.23200
H 	H 	0.84860 0.11410 0.31380 0.05100
N 	N 	0.68310 0.31170 0.26114 -0.23200
H 	H 	0.71030 0.37280 0.24370 0.05200
C 	C 	0.85110 0.28850 0.38235 -0.03500
H 	H 	0.83800 0.29100 0.41490 0.02800
H 	H 	0.88580 0.34930 0.37020 0.02000
C 	C 	0.68990 0.17980 0.18881 -0.04000
H 	H 	0.66030 0.12280 0.20790 0.01400
H 	H 	0.69630 0.16550 0.15720 0.03100
C 	C 	0.83160 0.15150 0.21808 -0.08300
H 	H 	0.85080 0.15450 0.18640 0.04100
H 	H 	0.80240 0.08750 0.22910 0.02600
C 	C 	0.65400 0.32910 0.30597 -0.08700
H 	H 	0.61170 0.27500 0.31890 0.03300
H 	H 	0.62880 0.38230 0.29820 0.04100
C 	C 	0.72930 0.34820 0.34319 -0.09100
H 	H 	0.76840 0.40650 0.33190 0.03200
H 	H 	0.71130 0.35320 0.37400 0.04500
C 	C 	0.90590 0.18330 0.25428 -0.09400
H 	H 	0.94420 0.14250 0.25850 0.03900
H 	H 	0.93660 0.24630 0.24260 0.03100
C 	C 	0.90160 0.21600 0.38606 -0.16500
H 	H 	0.86520 0.15460 0.39510 0.05300
H 	H 	0.94730 0.22630 0.41200 0.06300
C 	C 	0.63840 0.25150 0.18150 -0.15900
H 	H 	0.58820 0.23150 0.15960 0.05900
H 	H 	0.67130 0.31000 0.16540 0.05000
C 	C 	0.93870 0.21730 0.33888 -0.03600
H 	H 	0.96720 0.28080 0.32650 0.01700
H 	H 	0.98030 0.18000 0.34560 0.02600
C 	C 	0.61100 0.26920 0.22750 -0.04000
H 	H 	0.57290 0.31050 0.21860 0.02700
H 	H 	0.58000 0.21060 0.24450 0.01600
Cu	Cu	0.24537 0.06182 0.47527 0.84800
N 	N 	0.28970 0.19770 0.48218 -0.23300
H 	H 	0.27940 0.20430 0.51500 0.05500
N 	N 	0.14270 0.10050 0.43888 -0.23300
H 	H 	0.14950 0.10730 0.40400 0.05200
N 	N 	0.34720 0.02340 0.51378 -0.23300
H 	H 	0.33790 0.01510 0.54840 0.05100
N 	N 	0.20030 0.92600 0.46823 -0.23200
H 	H 	0.21150 0.91980 0.43560 0.05300
C 	C 	0.25330 0.87440 0.50362 -0.09000
H 	H 	0.24760 0.81330 0.49480 0.04400
H 	H 	0.23550 0.86600 0.53620 0.03200
C 	C 	0.43380 0.18470 0.51678 -0.17100
H 	H 	0.41360 0.18090 0.54830 0.05900
H 	H 	0.49210 0.22080 0.51820 0.06400
C 	C 	0.38160 0.23610 0.47781 -0.03400
H 	H 	0.39670 0.30190 0.48100 0.02800
H 	H 	0.39430 0.23080 0.44570 0.01300
C 	C 	0.14710 0.19530 0.44903 -0.08900
H 	H 	0.12930 0.19170 0.48120 0.03200
H 	H 	0.11040 0.22520 0.42480 0.04400
C 	C 	0.10820 0.88520 0.47181 -0.04100
H 	H 	0.09540 0.88410 0.50480 0.01900
H 	H 	0.09400 0.82120 0.46540 0.03000
C 	C 	0.05980 0.03650 0.44630 -0.03600
H 	H 	0.01660 0.06170 0.42510 0.02500
H 	H 	0.04820 0.03220 0.47990 0.01700
C 	C 	0.34390 0.92970 0.50287 -0.08600
H 	H 	0.38010 0.89930 0.52730 0.04100
H 	H 	0.36320 0.93470 0.47090 0.02900
C 	C 	0.23720 0.24950 0.44685 -0.08400
H 	H 	0.25390 0.25640 0.41410 0.03200
H 	H 	0.24410 0.31130 0.45510 0.04300
C 	C 	0.43130 0.08700 0.50856 -0.02900
H 	H 	0.44690 0.08960 0.47600 0.01600
H 	H 	0.47260 0.06250 0.53200 0.02300
C 	C 	0.05480 0.94020 0.43591 -0.16000
H 	H 	0.07200 0.94580 0.40340 0.05600
H 	H 	0.99620 0.90500 0.43560 0.05500
Cu	Cu	0.24978 0.77829 0.25168 0.84800
N 	N 	0.16720 0.80730 0.29037 -0.23200
H 	H 	0.19980 0.85320 0.31110 0.05200
N 	N 	0.20810 0.86520 0.19558 -0.23300
H 	H 	0.16600 0.82590 0.17480 0.05500
N 	N 	0.29270 0.69440 0.30899 -0.23300
H 	H 	0.33230 0.73550 0.33000 0.05400
N 	N 	0.33260 0.74870 0.21331 -0.23300
H 	H 	0.30080 0.69870 0.19490 0.05000
C 	C 	0.16220 0.91900 0.21654 -0.08600
H 	H 	0.12560 0.94640 0.19100 0.04000
H 	H 	0.20210 0.96900 0.23120 0.02600
C 	C 	0.31700 0.86930 0.14171 -0.16900
H 	H 	0.27520 0.82040 0.12730 0.05800
H 	H 	0.34820 0.90960 0.11560 0.06300
C 	C 	0.37700 0.82570 0.17777 -0.03000
H 	H 	0.41160 0.80170 0.16030 0.02300
H 	H 	0.41430 0.87310 0.19540 0.01500
C 	C 	0.27120 0.92640 0.16342 -0.03500
H 	H 	0.31210 0.96950 0.18210 0.01600
H 	H 	0.24300 0.96270 0.13720 0.02800
C 	C 	0.22990 0.63140 0.34053 -0.03100
H 	H 	0.25910 0.59740 0.36740 0.02800
H 	H 	0.19230 0.58610 0.32160 0.01600
C 	C 	0.11960 0.72690 0.32305 -0.03500
H 	H 	0.08560 0.68080 0.30340 0.01400
H 	H 	0.08150 0.74800 0.33950 0.02700
C 	C 	0.11040 0.85340 0.25478 -0.08800
H 	H 	0.08320 0.88780 0.27120 0.03700
H 	H 	0.06680 0.80710 0.23950 0.03200
C 	C 	0.17780 0.68160 0.36116 -0.16900
H 	H 	0.21580 0.72950 0.37830 0.06100
H 	H 	0.14390 0.63750 0.38500 0.06400
C 	C 	0.34340 0.64460 0.28910 -0.08700
H 	H 	0.30650 0.59150 0.27550 0.02900
H 	H 	0.38190 0.62150 0.31510 0.04300
C 	C 	0.39250 0.70930 0.25030 -0.08800
H 	H 	0.43370 0.75910 0.26440 0.03000
H 	H 	0.42250 0.67580 0.23510 0.03700
Cu	Cu	0.23923 0.31435 0.22424 0.84700
N 	N 	0.13840 0.37040 0.20075 -0.23100
H 	H 	0.16070 0.43470 0.18530 0.05000
N 	N 	0.23200 0.34650 0.29044 -0.23200
H 	H 	0.20290 0.28880 0.31000 0.05500
N 	N 	0.33490 0.25070 0.24953 -0.23000
H 	H 	0.30910 0.18850 0.26640 0.05100
N 	N 	0.24520 0.27710 0.15934 -0.23300
H 	H 	0.27780 0.33240 0.13960 0.05200
C 	C 	0.36710 0.31060 0.32934 -0.15800
H 	H 	0.41400 0.33050 0.35340 0.05900
H 	H 	0.33300 0.25120 0.34370 0.05100
C 	C 	0.31360 0.38170 0.31907 -0.04200
H 	H 	0.30260 0.39560 0.34980 0.03200
H 	H 	0.34450 0.43920 0.30100 0.01700
C 	C 	0.10310 0.37580 0.24603 -0.09200
H 	H 	0.07100 0.31450 0.25940 0.03200
H 	H 	0.06550 0.41770 0.23870 0.03700
C 	C 	0.10960 0.31440 0.12025 -0.16200
H 	H 	0.14290 0.37490 0.10670 0.05100
H 	H 	0.06330 0.29490 0.09580 0.06100
C 	C 	0.29610 0.20660 0.16870 -0.08900
H 	H 	0.31680 0.20200 0.13860 0.04400
H 	H 	0.26150 0.14590 0.18100 0.03200
C 	C 	0.36890 0.23630 0.20575 -0.08900
H 	H 	0.40060 0.18860 0.21480 0.04100
H 	H 	0.40660 0.29380 0.19210 0.03100
C 	C 	0.16490 0.24470 0.12958 -0.03900
H 	H 	0.13390 0.18570 0.14630 0.01800
H 	H 	0.17720 0.23390 0.09840 0.03000
C 	C 	0.17550 0.41130 0.28251 -0.08600
H 	H 	0.20590 0.47400 0.26990 0.02700
H 	H 	0.15450 0.41290 0.31310 0.04200
C 	C 	0.07290 0.32520 0.16523 -0.03600
H 	H 	0.03130 0.36220 0.15520 0.02600
H 	H 	0.04410 0.26410 0.18090 0.01800
C 	C 	0.40220 0.29590 0.28481 -0.04000
H 	H 	0.43240 0.35590 0.26860 0.01700
H 	H 	0.44240 0.25740 0.29530 0.02700
Cu	Cu	0.23808 0.54507 0.97429 0.84800
N 	N 	0.12630 0.55500 0.93697 -0.23300
H 	H 	0.13190 0.55500 0.90240 0.05200
N 	N 	0.21340 0.40500 0.97697 -0.23100
H 	H 	0.22650 0.39510 0.94540 0.05300
N 	N 	0.26170 0.68510 0.97097 -0.23100
H 	H 	0.24910 0.69590 0.00240 0.05500
N 	N 	0.34900 0.53500 0.01247 -0.23400
H 	H 	0.34150 0.53160 0.04700 0.05100
C 	C 	0.41150 0.70590 0.00484 -0.16700
H 	H 	0.39100 0.70330 0.03610 0.05800
H 	H 	0.46580 0.75120 0.00380 0.06200
C 	C 	0.27750 0.37320 0.01410 -0.09300
H 	H 	0.26200 0.36970 0.04680 0.03400
H 	H 	0.28160 0.31180 0.01000 0.04500
C 	C 	0.36110 0.44340 0.00689 -0.08600
H 	H 	0.37760 0.44570 0.97450 0.02700
H 	H 	0.40500 0.42640 0.03110 0.04100
C 	C 	0.05260 0.47830 0.95082 -0.03300
H 	H 	0.04420 0.47750 0.98460 0.01400
H 	H 	0.00240 0.48980 0.93050 0.02200
C 	C 	0.11510 0.64810 0.94073 -0.08800
H 	H 	0.07190 0.66460 0.91580 0.04300
H 	H 	0.09780 0.64780 0.97260 0.03100
C 	C 	0.12620 0.34790 0.98343 -0.03500
H 	H 	0.12320 0.28350 0.98080 0.02800
H 	H 	0.11200 0.34940 0.01580 0.01900
C 	C 	0.34980 0.73940 0.96416 -0.03700
H 	H 	0.36460 0.73270 0.93280 0.01700
H 	H 	0.35380 0.80510 0.96410 0.02900
C 	C 	0.06330 0.38430 0.94514 -0.16600
H 	H 	0.00880 0.33970 0.94660 0.05900
H 	H 	0.08150 0.38860 0.91300 0.05700
C 	C 	0.42460 0.61140 0.00178 -0.03200
H 	H 	0.47200 0.60010 0.02490 0.02400
H 	H 	0.43880 0.61140 0.96920 0.01600
C 	C 	0.19810 0.71660 0.93364 -0.08800
H 	H 	0.19440 0.77840 0.93740 0.04400
H 	H 	0.21390 0.71930 0.90110 0.03400
Cu	Cu	0.24977 0.20734 0.77851 0.84900
N 	N 	0.17310 0.28220 0.73883 -0.23700
H 	H 	0.13320 0.24080 0.71820 0.05600
N 	N 	0.32060 0.12340 0.81797 -0.23400
H 	H 	0.36650 0.16370 0.83610 0.05500
N 	N 	0.18340 0.20210 0.83554 -0.23100
H 	H 	0.21490 0.25440 0.85250 0.05100
N 	N 	0.31080 0.20450 0.72135 -0.23400
H 	H 	0.27400 0.15780 0.70240 0.05200
C 	C 	0.16960 0.11930 0.87385 -0.02500
H 	H 	0.14920 0.13510 0.90140 0.02400
H 	H 	0.12550 0.07010 0.86110 0.01800
C 	C 	0.25780 0.33730 0.66846 -0.17300
H 	H 	0.21610 0.29330 0.65060 0.06100
H 	H 	0.27680 0.39310 0.64520 0.06400
C 	C 	0.33230 0.29560 0.68670 -0.04100
H 	H 	0.35580 0.28500 0.65880 0.02700
H 	H 	0.37560 0.34010 0.70330 0.01700
C 	C 	0.28170 0.04680 0.85419 -0.02000
H 	H 	0.23660 0.00350 0.83790 0.01400
H 	H 	0.32360 0.01340 0.87030 0.02500
C 	C 	0.10390 0.22510 0.81460 -0.08500
H 	H 	0.06510 0.17130 0.80260 0.02900
H 	H 	0.07800 0.24310 0.83930 0.03900
C 	C 	0.12290 0.30500 0.77291 -0.08800
H 	H 	0.15420 0.36140 0.78580 0.02800
H 	H 	0.07030 0.31630 0.75550 0.03800
C 	C 	0.36110 0.09180 0.78180 -0.09500
H 	H 	0.32200 0.03950 0.76860 0.03100
H 	H 	0.41100 0.07170 0.79760 0.04400
C 	C 	0.38490 0.17020 0.74190 -0.07600
H 	H 	0.40730 0.14940 0.71670 0.03400
H 	H 	0.42850 0.22000 0.75460 0.02700
C 	C 	0.24640 0.08240 0.89180 -0.17700
H 	H 	0.29030 0.13180 0.90460 0.06200
H 	H 	0.23240 0.03210 0.91880 0.06600
C 	C 	0.21430 0.36310 0.70596 -0.02300
H 	H 	0.17230 0.39600 0.68930 0.02200
H 	H 	0.25560 0.40520 0.72500 0.00600
Cu	Cu	0.22581 0.75898 0.71742 0.84800
N 	N 	0.22540 0.78630 0.78567 -0.23200
H 	H 	0.19900 0.72720 0.80520 0.05400
N 	N 	0.22840 0.73000 0.64997 -0.23200
H 	H 	0.26650 0.78440 0.63280 0.05300
N 	N 	0.12780 0.82000 0.69862 -0.23200
H 	H 	0.15140 0.88590 0.68620 0.05100
N 	N 	0.31690 0.68830 0.73886 -0.23200
H 	H 	0.28970 0.62720 0.75630 0.05200
C 	C 	0.14890 0.71150 0.61765 -0.03500
H 	H 	0.16200 0.70900 0.58510 0.02800
H 	H 	0.11420 0.65070 0.62980 0.02000
C 	C 	0.31010 0.82020 0.81119 -0.04000
H 	H 	0.33970 0.87720 0.79210 0.01400
H 	H 	0.30370 0.83450 0.84280 0.03100
C 	C 	0.16840 0.84850 0.78192 -0.08300
H 	H 	0.14920 0.84550 0.81360 0.04100
H 	H 	0.19760 0.91250 0.77090 0.02600
C 	C 	0.34600 0.67090 0.69403 -0.08700
H 	H 	0.38830 0.72500 0.68110 0.03300
H 	H 	0.37120 0.61770 0.70180 0.04100
C 	C 	0.27070 0.65180 0.65681 -0.09100
H 	H 	0.23160 0.59350 0.66810 0.03200
H 	H 	0.28870 0.64680 0.62600 0.04500
C 	C 	0.09410 0.81670 0.74572 -0.09400
H 	H 	0.05580 0.85750 0.74150 0.03900
H 	H 	0.06340 0.75370 0.75740 0.03100
C 	C 	0.09840 0.78400 0.61394 -0.16500
H 	H 	0.13480 0.84540 0.60490 0.05300
H 	H 	0.05270 0.77370 0.58800 0.06300
C 	C 	0.36160 0.74850 0.81850 -0.15900
H 	H 	0.41180 0.76850 0.84040 0.05900
H 	H 	0.32870 0.69000 0.83460 0.05000
C 	C 	0.06130 0.78270 0.66112 -0.03600
H 	H 	0.03280 0.71920 0.67350 0.01700
H 	H 	0.01970 0.82000 0.65440 0.02600
C 	C 	0.38900 0.73080 0.77250 -0.04000
H 	H 	0.42710 0.68950 0.78140 0.02700
H 	H 	0.42000 0.78940 0.75550 0.01600
Cu	Cu	0.75463 0.93818 0.52473 0.84800
N 	N 	0.71030 0.80230 0.51782 -0.23300
H 	H 	0.72060 0.79570 0.48500 0.05500
N 	N 	0.85730 0.89950 0.56112 -0.23300
H 	H 	0.85050 0.89270 0.59600 0.05200
N 	N 	0.65280 0.97660 0.48622 -0.23300
H 	H 	0.66210 0.98490 0.45160 0.05100
N 	N 	0.79970 0.07400 0.53177 -0.23200
H 	H 	0.78850 0.08020 0.56440 0.05300
C 	C 	0.74670 0.12560 0.49638 -0.09000
H 	H 	0.75240 0.18670 0.50520 0.04400
H 	H 	0.76450 0.13400 0.46380 0.03200
C 	C 	0.56620 0.81530 0.48322 -0.17100
H 	H 	0.58640 0.81910 0.45170 0.05900
H 	H 	0.50790 0.77920 0.48180 0.06400
C 	C 	0.61840 0.76390 0.52219 -0.03400
H 	H 	0.60330 0.69810 0.51900 0.02800
H 	H 	0.60570 0.76920 0.55430 0.01300
C 	C 	0.85290 0.80470 0.55097 -0.08900
H 	H 	0.87070 0.80830 0.51880 0.03200
H 	H 	0.88960 0.77480 0.57520 0.04400
C 	C 	0.89180 0.11480 0.52819 -0.04100
H 	H 	0.90460 0.11590 0.49520 0.01900
H 	H 	0.90600 0.17880 0.53460 0.03000
C 	C 	0.94020 0.96350 0.55370 -0.03600
H 	H 	0.98340 0.93830 0.57490 0.02500
H 	H 	0.95180 0.96780 0.52010 0.01700
C 	C 	0.65610 0.07030 0.49713 -0.08600
H 	H 	0.61990 0.10070 0.47270 0.04100
H 	H 	0.63680 0.06530 0.52910 0.02900
C 	C 	0.76280 0.75050 0.55315 -0.08400
H 	H 	0.74610 0.74360 0.58590 0.03200
H 	H 	0.75590 0.68870 0.54490 0.04300
C 	C 	0.56870 0.91300 0.49144 -0.02900
H 	H 	0.55310 0.91040 0.52400 0.01600
H 	H 	0.52740 0.93750 0.46800 0.02300
C 	C 	0.94520 0.05980 0.56409 -0.16000
H 	H 	0.92800 0.05420 0.59660 0.05600
H 	H 	0.00380 0.09500 0.56440 0.05500
Cu	Cu	0.75022 0.22171 0.74832 0.84800
N 	N 	0.83280 0.19270 0.70963 -0.23200
H 	H 	0.80020 0.14680 0.68890 0.05200
N 	N 	0.79190 0.13480 0.80442 -0.23300
H 	H 	0.83400 0.17410 0.82520 0.05500
N 	N 	0.70730 0.30560 0.69101 -0.23300
H 	H 	0.66770 0.26450 0.67000 0.05400
N 	N 	0.66740 0.25130 0.78669 -0.23300
H 	H 	0.69920 0.30130 0.80510 0.05000
C 	C 	0.83780 0.08100 0.78346 -0.08600
H 	H 	0.87440 0.05360 0.80900 0.04000
H 	H 	0.79790 0.03100 0.76880 0.02600
C 	C 	0.68300 0.13070 0.85829 -0.16900
H 	H 	0.72480 0.17960 0.87270 0.05800
H 	H 	0.65180 0.09040 0.88440 0.06300
C 	C 	0.62300 0.17430 0.82223 -0.03000
H 	H 	0.58840 0.19830 0.83970 0.02300
H 	H 	0.58570 0.12690 0.80460 0.01500
C 	C 	0.72880 0.07360 0.83658 -0.03500
H 	H 	0.68790 0.03050 0.81790 0.01600
H 	H 	0.75700 0.03730 0.86280 0.02800
C 	C 	0.77010 0.36860 0.65947 -0.03100
H 	H 	0.74090 0.40260 0.63260 0.02800
H 	H 	0.80770 0.41390 0.67840 0.01600
C 	C 	0.88040 0.27310 0.67695 -0.03500
H 	H 	0.91440 0.31920 0.69660 0.01400
H 	H 	0.91850 0.25200 0.66050 0.02700
C 	C 	0.88960 0.14660 0.74522 -0.08800
H 	H 	0.91680 0.11220 0.72880 0.03700
H 	H 	0.93320 0.19290 0.76050 0.03200
C 	C 	0.82220 0.31840 0.63884 -0.16900
H 	H 	0.78420 0.27050 0.62170 0.06100
H 	H 	0.85610 0.36250 0.61500 0.06400
C 	C 	0.65660 0.35540 0.71090 -0.08700
H 	H 	0.69350 0.40850 0.72450 0.02900
H 	H 	0.61810 0.37850 0.68490 0.04300
C 	C 	0.60750 0.29070 0.74970 -0.08800
H 	H 	0.56630 0.24090 0.73560 0.03000
H 	H 	0.57750 0.32420 0.76490 0.03700
Cu	Cu	0.76077 0.68565 0.77576 0.84700
N 	N 	0.86160 0.62960 0.79925 -0.23100
H 	H 	0.83930 0.56530 0.81470 0.05000
N 	N 	0.76800 0.65350 0.70956 -0.23200
H 	H 	0.79710 0.71120 0.69000 0.05500
N 	N 	0.66510 0.74930 0.75047 -0.23000
H 	H 	0.69090 0.81150 0.73360 0.05100
N 	N 	0.75480 0.72290 0.84066 -0.23300
H 	H 	0.72220 0.66760 0.86040 0.05200
C 	C 	0.63290 0.68940 0.67066 -0.15800
H 	H 	0.58600 0.66950 0.64660 0.05900
H 	H 	0.66700 0.74880 0.65630 0.05100
C 	C 	0.68640 0.61830 0.68093 -0.04200
H 	H 	0.69740 0.60440 0.65020 0.03200
H 	H 	0.65550 0.56080 0.69900 0.01700
C 	C 	0.89690 0.62420 0.75397 -0.09200
H 	H 	0.92900 0.68550 0.74060 0.03200
H 	H 	0.93450 0.58230 0.76130 0.03700
C 	C 	0.89040 0.68560 0.87975 -0.16200
H 	H 	0.85710 0.62510 0.89330 0.05100
H 	H 	0.93670 0.70510 0.90420 0.06100
C 	C 	0.70390 0.79340 0.83130 -0.08900
H 	H 	0.68320 0.79800 0.86140 0.04400
H 	H 	0.73850 0.85410 0.81900 0.03200
C 	C 	0.63110 0.76370 0.79425 -0.08900
H 	H 	0.59940 0.81140 0.78520 0.04100
H 	H 	0.59340 0.70620 0.80790 0.03100
C 	C 	0.83510 0.75530 0.87042 -0.03900
H 	H 	0.86610 0.81430 0.85370 0.01800
H 	H 	0.82280 0.76610 0.90160 0.03000
C 	C 	0.82450 0.58870 0.71749 -0.08600
H 	H 	0.79410 0.52600 0.73010 0.02700
H 	H 	0.84550 0.58710 0.68690 0.04200
C 	C 	0.92710 0.67480 0.83477 -0.03600
H 	H 	0.96870 0.63780 0.84480 0.02600
H 	H 	0.95590 0.73590 0.81910 0.01800
C 	C 	0.59780 0.70410 0.71519 -0.04000
H 	H 	0.56760 0.64410 0.73140 0.01700
H 	H 	0.55760 0.74260 0.70470 0.02700
