data_crystal

_cell_length_a 17.10170
_cell_length_b 13.70340
_cell_length_c 10.02540
_cell_angle_alpha 90.00000
_cell_angle_beta  105.42900
_cell_angle_gamma 90.00000

_symmetry_space_group_name_	'P 1'
_symmetry_space_group_name_H-M	'P 1'

loop_
_symmetry_equiv_pos_as_xyz
  x,y,z

loop_
_atom_site_label
_atom_site_type_symbol
_atom_site_fract_x
_atom_site_fract_y
_atom_site_fract_z
_atom_site_charge
Zn	Zn	0.02874 0.11544 0.60296 1.24000
Zn	Zn	0.52280 0.39908 0.75680 0.86600
O 	O 	0.60090 0.49730 0.55300 -0.50900
O 	O 	0.64000 0.41210 0.75000 -0.42200
O 	O 	0.76760 0.33900 0.67450 -0.14700
O 	O 	0.87970 0.19910 0.78230 -0.41800
O 	O 	0.93600 0.21920 0.60390 -0.45500
O 	O 	0.02780 0.16910 0.42030 -0.56300
C 	C 	0.64890 0.44100 0.63610 0.33300
C 	C 	0.71950 0.40780 0.59300 0.01800
C 	C 	0.74600 0.42640 0.47880 -0.04200
H 	H 	0.72350 0.46960 0.40740 0.07100
C 	C 	0.81560 0.36550 0.49140 -0.02900
H 	H 	0.84790 0.36210 0.43010 0.05900
C 	C 	0.82540 0.31390 0.60950 0.02400
C 	C 	0.88590 0.23750 0.67130 0.34800
Zn	Zn	0.52874 0.61544 0.60296 1.22800
Zn	Zn	0.02280 0.89908 0.75680 0.89400
O 	O 	0.10090 0.99730 0.55300 -0.49800
O 	O 	0.14000 0.91210 0.75000 -0.41500
O 	O 	0.26760 0.83900 0.67450 -0.14500
O 	O 	0.37970 0.69910 0.78230 -0.40300
O 	O 	0.43600 0.71920 0.60390 -0.42000
O 	O 	0.52780 0.66910 0.42030 -0.59800
C 	C 	0.14890 0.94100 0.63610 0.33400
C 	C 	0.21950 0.90780 0.59300 0.02000
C 	C 	0.24600 0.92640 0.47880 -0.03800
H 	H 	0.22350 0.96960 0.40740 0.07100
C 	C 	0.31560 0.86550 0.49140 -0.03100
H 	H 	0.34790 0.86210 0.43010 0.06900
C 	C 	0.32540 0.81390 0.60950 0.03300
C 	C 	0.38590 0.73750 0.67130 0.34600
Zn	Zn	0.97126 0.11544 0.89704 1.20800
Zn	Zn	0.47720 0.39908 0.74320 0.86500
O 	O 	0.39910 0.49730 0.94700 -0.50800
O 	O 	0.36000 0.41210 0.75000 -0.42100
O 	O 	0.23240 0.33900 0.82550 -0.14700
O 	O 	0.12030 0.19910 0.71770 -0.39400
O 	O 	0.06400 0.21920 0.89610 -0.38700
O 	O 	0.97220 0.16910 0.07970 -0.63100
C 	C 	0.35110 0.44100 0.86390 0.33300
C 	C 	0.28050 0.40780 0.90700 0.02300
C 	C 	0.25400 0.42640 0.02120 -0.03600
H 	H 	0.27650 0.46960 0.09260 0.07200
C 	C 	0.18440 0.36550 0.00860 -0.03900
H 	H 	0.15210 0.36210 0.06990 0.08000
C 	C 	0.17460 0.31390 0.89050 0.04800
C 	C 	0.11410 0.23750 0.82870 0.34100
Zn	Zn	0.47126 0.61544 0.89704 1.22800
Zn	Zn	0.97720 0.89908 0.74320 0.83000
O 	O 	0.89910 0.99730 0.94700 -0.52900
O 	O 	0.86000 0.91210 0.75000 -0.43400
O 	O 	0.73240 0.83900 0.82550 -0.14800
O 	O 	0.62030 0.69910 0.71770 -0.40500
O 	O 	0.56400 0.71920 0.89610 -0.41900
O 	O 	0.47220 0.66910 0.07970 -0.59800
C 	C 	0.85110 0.94100 0.86390 0.33300
C 	C 	0.78050 0.90780 0.90700 0.01800
C 	C 	0.75400 0.92640 0.02120 -0.03800
H 	H 	0.77650 0.96960 0.09260 0.06900
C 	C 	0.68440 0.86550 0.00860 -0.03400
H 	H 	0.65210 0.86210 0.06990 0.06900
C 	C 	0.67460 0.81390 0.89050 0.03600
C 	C 	0.61410 0.73750 0.82870 0.34500
Zn	Zn	0.97126 0.88456 0.39704 1.20900
Zn	Zn	0.47720 0.60092 0.24320 0.86500
O 	O 	0.39910 0.50270 0.44700 -0.50900
O 	O 	0.36000 0.58790 0.25000 -0.42200
O 	O 	0.23240 0.66100 0.32550 -0.14600
O 	O 	0.12030 0.80090 0.21770 -0.39600
O 	O 	0.06400 0.78080 0.39610 -0.38900
O 	O 	0.97220 0.83090 0.57970 -0.63500
C 	C 	0.35110 0.55900 0.36390 0.33400
C 	C 	0.28050 0.59220 0.40700 0.01900
C 	C 	0.25400 0.57360 0.52120 -0.03200
H 	H 	0.27650 0.53040 0.59260 0.07200
C 	C 	0.18440 0.63450 0.50860 -0.03400
H 	H 	0.15210 0.63790 0.56990 0.08000
C 	C 	0.17460 0.68610 0.39050 0.04200
C 	C 	0.11410 0.76250 0.32870 0.34300
Zn	Zn	0.47126 0.38456 0.39704 1.22800
Zn	Zn	0.97720 0.10092 0.24320 0.83300
O 	O 	0.89910 0.00270 0.44700 -0.53000
O 	O 	0.86000 0.08790 0.25000 -0.43300
O 	O 	0.73240 0.16100 0.32550 -0.14700
O 	O 	0.62030 0.30090 0.21770 -0.40500
O 	O 	0.56400 0.28080 0.39610 -0.42000
O 	O 	0.47220 0.33090 0.57970 -0.59700
C 	C 	0.85110 0.05900 0.36390 0.33400
C 	C 	0.78050 0.09220 0.40700 0.01600
C 	C 	0.75400 0.07360 0.52120 -0.03700
H 	H 	0.77650 0.03040 0.59260 0.06900
C 	C 	0.68440 0.13450 0.50860 -0.03200
H 	H 	0.65210 0.13790 0.56990 0.06900
C 	C 	0.67460 0.18610 0.39050 0.03300
C 	C 	0.61410 0.26250 0.32870 0.34600
Zn	Zn	0.02874 0.88456 0.10296 1.23800
Zn	Zn	0.52280 0.60092 0.25680 0.86500
O 	O 	0.60090 0.50270 0.05300 -0.51000
O 	O 	0.64000 0.58790 0.25000 -0.42300
O 	O 	0.76760 0.66100 0.17450 -0.14800
O 	O 	0.87970 0.80090 0.28230 -0.41800
O 	O 	0.93600 0.78080 0.10390 -0.45400
O 	O 	0.02780 0.83090 0.92030 -0.55800
C 	C 	0.64890 0.55900 0.13610 0.33300
C 	C 	0.71950 0.59220 0.09300 0.01800
C 	C 	0.74600 0.57360 0.97880 -0.04200
H 	H 	0.72350 0.53040 0.90740 0.07100
C 	C 	0.81560 0.63450 0.99140 -0.02900
H 	H 	0.84790 0.63790 0.93010 0.05900
C 	C 	0.82540 0.68610 0.10950 0.02400
C 	C 	0.88590 0.76250 0.17130 0.34800
Zn	Zn	0.52874 0.38456 0.10296 1.22800
Zn	Zn	0.02280 0.10092 0.25680 0.89200
O 	O 	0.10090 0.00270 0.05300 -0.50100
O 	O 	0.14000 0.08790 0.25000 -0.41700
O 	O 	0.26760 0.16100 0.17450 -0.14500
O 	O 	0.37970 0.30090 0.28230 -0.40400
O 	O 	0.43600 0.28080 0.10390 -0.42000
O 	O 	0.52780 0.33090 0.92030 -0.59700
C 	C 	0.14890 0.05900 0.13610 0.33500
C 	C 	0.21950 0.09220 0.09300 0.01700
C 	C 	0.24600 0.07360 0.97880 -0.03500
H 	H 	0.22350 0.03040 0.90740 0.07000
C 	C 	0.31560 0.13450 0.99140 -0.03000
H 	H 	0.34790 0.13790 0.93010 0.06800
C 	C 	0.32540 0.18610 0.10950 0.03100
C 	C 	0.38590 0.26250 0.17130 0.34600
O 	O 	0.00000 0.03610 0.75000 -0.75000
O 	O 	0.50000 0.53610 0.75000 -0.79400
O 	O 	0.00000 0.96390 0.25000 -0.75300
O 	O 	0.50000 0.46390 0.25000 -0.79400
