data_crystal

_cell_length_a 6.67620
_cell_length_b 7.98640
_cell_length_c 13.74500
_cell_angle_alpha 78.53500
_cell_angle_beta  84.94100
_cell_angle_gamma 76.90700

_symmetry_space_group_name_	'P 1'
_symmetry_space_group_name_H-M	'P 1'

loop_
_symmetry_equiv_pos_as_xyz
  x,y,z

loop_
_atom_site_label
_atom_site_type_symbol
_atom_site_fract_x
_atom_site_fract_y
_atom_site_fract_z
_atom_site_charge
Ca	Ca	0.35636 0.16033 0.59027 1.48300
O 	O 	0.61430 0.50550 0.13390 -0.44100
O 	O 	0.58000 0.41570 0.29750 -0.31200
O 	O 	0.40370 0.10530 0.41760 -0.61800
O 	O 	0.18900 0.35440 0.43060 -0.45800
O 	O 	0.30240 0.02110 0.76830 -0.28900
O 	O 	0.55060 0.15620 0.73710 -0.29300
O 	O 	0.48600 0.03390 0.88900 -0.09200
N 	N 	0.30030 0.37470 0.10060 -0.22600
N 	N 	0.08680 0.19890 0.25400 -0.10600
N 	N 	0.44550 0.06990 0.80040 0.06500
C 	C 	0.24140 0.26960 0.27270 -0.02900
C 	C 	0.35010 0.35730 0.19570 -0.03700
C 	C 	0.14580 0.30760 0.08270 0.02000
H 	H 	0.10870 0.32020 0.01760 -0.02300
C 	C 	0.03900 0.21930 0.15890 0.00700
H 	H 	0.93180 0.17310 0.14410 0.02700
C 	C 	0.53070 0.43280 0.21080 0.32500
C 	C 	0.28390 0.24450 0.38100 0.36500
Ca	Ca	0.64364 0.83967 0.40973 1.48300
O 	O 	0.38570 0.49450 0.86610 -0.37100
O 	O 	0.42000 0.58430 0.70250 -0.30200
O 	O 	0.59630 0.89470 0.58240 -0.61200
O 	O 	0.81100 0.64560 0.56940 -0.45800
O 	O 	0.69760 0.97890 0.23170 -0.30100
O 	O 	0.44940 0.84380 0.26290 -0.30100
O 	O 	0.51400 0.96610 0.11100 -0.16200
N 	N 	0.69970 0.62530 0.89940 -0.18600
N 	N 	0.91320 0.80110 0.74600 -0.10100
N 	N 	0.55450 0.93010 0.19960 0.07000
C 	C 	0.75860 0.73040 0.72730 -0.02800
C 	C 	0.64990 0.64270 0.80430 -0.01800
C 	C 	0.85420 0.69240 0.91730 0.04100
H 	H 	0.89130 0.67980 0.98240 0.05600
C 	C 	0.96100 0.78070 0.84110 0.00700
H 	H 	0.06820 0.82690 0.85590 0.06300
C 	C 	0.46930 0.56720 0.78920 0.31500
C 	C 	0.71610 0.75550 0.61900 0.36500
Co	Co	0.50000 0.50000 -0.00000 1.07200
