data_crystal

_cell_length_a 10.92520
_cell_length_b 9.33370
_cell_length_c 14.25950
_cell_angle_alpha 90.00000
_cell_angle_beta  98.00930
_cell_angle_gamma 90.00000

_symmetry_space_group_name_	'P 1'
_symmetry_space_group_name_H-M	'P 1'

loop_
_symmetry_equiv_pos_as_xyz
  x,y,z

loop_
_atom_site_label
_atom_site_type_symbol
_atom_site_fract_x
_atom_site_fract_y
_atom_site_fract_z
_atom_site_charge
Zn	Zn	0.52024 0.23397 0.61963 1.17200
N 	N 	0.55250 0.38130 0.71940 -0.29400
N 	N 	0.46480 0.05940 0.67920 -0.29000
N 	N 	0.39380 0.28060 0.50850 -0.29200
N 	N 	0.21870 0.32110 0.42160 -0.21800
H 	H 	0.14260 0.34490 0.40580 0.11500
N 	N 	0.68150 0.21030 0.56930 -0.29200
N 	N 	0.83690 0.25920 0.49500 -0.21500
H 	H 	0.88150 0.30250 0.45870 0.11300
C 	C 	0.48250 0.48910 0.74510 0.10100
H 	H 	0.40490 0.51190 0.71300 -0.05600
C 	C 	0.35250 0.99140 0.65440 -0.02900
H 	H 	0.29330 0.01460 0.60330 0.01400
C 	C 	0.65570 0.38530 0.78250 0.00900
H 	H 	0.72290 0.32400 0.78280 -0.00500
C 	C 	0.27960 0.32020 0.50800 0.12600
H 	H 	0.24530 0.34480 0.56190 -0.04900
C 	C 	0.29710 0.27790 0.36250 0.03300
H 	H 	0.27910 0.26690 0.29720 -0.00300
C 	C 	0.40630 0.25380 0.41570 -0.04200
H 	H 	0.47830 0.22390 0.39360 0.01000
C 	C 	0.72450 0.29460 0.50910 0.13100
H 	H 	0.68060 0.37140 0.47950 -0.05400
C 	C 	0.86910 0.14120 0.54840 0.02000
H 	H 	0.94250 0.08980 0.55140 0.01300
C 	C 	0.77410 0.11360 0.59600 -0.01700
H 	H 	0.77160 0.04060 0.64010 0.00700
Zn	Zn	0.47976 0.73397 0.88037 1.17100
N 	N 	0.44750 0.88130 0.78060 -0.29500
N 	N 	0.53520 0.55940 0.82080 -0.29200
N 	N 	0.60620 0.78060 0.99150 -0.29400
N 	N 	0.78130 0.82110 0.07840 -0.21800
H 	H 	0.85740 0.84490 0.09420 0.11400
N 	N 	0.31850 0.71030 0.93070 -0.29200
N 	N 	0.16310 0.75920 0.00500 -0.21300
H 	H 	0.11850 0.80250 0.04130 0.11200
C 	C 	0.51750 0.98910 0.75490 0.09700
H 	H 	0.59510 0.01190 0.78700 -0.05500
C 	C 	0.64750 0.49140 0.84560 -0.02700
H 	H 	0.70670 0.51460 0.89670 0.01400
C 	C 	0.34430 0.88530 0.71750 0.01000
H 	H 	0.27710 0.82400 0.71720 -0.00500
C 	C 	0.72040 0.82020 0.99200 0.12500
H 	H 	0.75470 0.84480 0.93810 -0.04900
C 	C 	0.70290 0.77790 0.13750 0.03200
H 	H 	0.72090 0.76690 0.20280 -0.00300
C 	C 	0.59370 0.75380 0.08430 -0.04100
H 	H 	0.52170 0.72390 0.10640 0.00900
C 	C 	0.27550 0.79460 0.99090 0.12600
H 	H 	0.31940 0.87140 0.02050 -0.05100
C 	C 	0.13090 0.64120 0.95160 0.01800
H 	H 	0.05750 0.58980 0.94860 0.01300
C 	C 	0.22590 0.61360 0.90400 -0.01600
H 	H 	0.22840 0.54060 0.85990 0.00700
Zn	Zn	0.47976 0.76603 0.38037 1.17100
N 	N 	0.44750 0.61870 0.28060 -0.29500
N 	N 	0.53520 0.94060 0.32080 -0.29100
N 	N 	0.60620 0.71940 0.49150 -0.29300
N 	N 	0.78130 0.67890 0.57840 -0.21900
H 	H 	0.85740 0.65510 0.59420 0.11400
N 	N 	0.31850 0.78970 0.43070 -0.29300
N 	N 	0.16310 0.74080 0.50500 -0.21600
H 	H 	0.11850 0.69750 0.54130 0.11200
C 	C 	0.51750 0.51090 0.25490 0.10000
H 	H 	0.59510 0.48810 0.28700 -0.05600
C 	C 	0.64750 0.00860 0.34560 -0.02900
H 	H 	0.70670 0.98540 0.39670 0.01400
C 	C 	0.34430 0.61470 0.21750 0.00900
H 	H 	0.27710 0.67600 0.21720 -0.00500
C 	C 	0.72040 0.67980 0.49200 0.12600
H 	H 	0.75470 0.65520 0.43810 -0.04900
C 	C 	0.70290 0.72210 0.63750 0.03300
H 	H 	0.72090 0.73310 0.70280 -0.00300
C 	C 	0.59370 0.74620 0.58430 -0.04200
H 	H 	0.52170 0.77610 0.60640 0.01000
C 	C 	0.27550 0.70540 0.49090 0.13100
H 	H 	0.31940 0.62860 0.52050 -0.05400
C 	C 	0.13090 0.85880 0.45160 0.02000
H 	H 	0.05750 0.91020 0.44860 0.01300
C 	C 	0.22590 0.88640 0.40400 -0.01700
H 	H 	0.22840 0.95940 0.35990 0.00700
Zn	Zn	0.52024 0.26603 0.11963 1.17100
N 	N 	0.55250 0.11870 0.21940 -0.29500
N 	N 	0.46480 0.44060 0.17920 -0.29200
N 	N 	0.39380 0.21940 0.00850 -0.29400
N 	N 	0.21870 0.17890 0.92160 -0.21800
H 	H 	0.14260 0.15510 0.90580 0.11400
N 	N 	0.68150 0.28970 0.06930 -0.29200
N 	N 	0.83690 0.24080 0.99500 -0.21300
H 	H 	0.88150 0.19750 0.95870 0.11200
C 	C 	0.48250 0.01090 0.24510 0.09700
H 	H 	0.40490 0.98810 0.21300 -0.05500
C 	C 	0.35250 0.50860 0.15440 -0.02700
H 	H 	0.29330 0.48540 0.10330 0.01400
C 	C 	0.65570 0.11470 0.28250 0.01000
H 	H 	0.72290 0.17600 0.28280 -0.00500
C 	C 	0.27960 0.17980 0.00800 0.12500
H 	H 	0.24530 0.15520 0.06190 -0.04900
C 	C 	0.29710 0.22210 0.86250 0.03200
H 	H 	0.27910 0.23310 0.79720 -0.00300
C 	C 	0.40630 0.24620 0.91570 -0.04100
H 	H 	0.47830 0.27610 0.89360 0.00900
C 	C 	0.72450 0.20540 0.00910 0.12600
H 	H 	0.68060 0.12860 0.97950 -0.05100
C 	C 	0.86910 0.35880 0.04840 0.01800
H 	H 	0.94250 0.41020 0.05140 0.01300
C 	C 	0.77410 0.38640 0.09600 -0.01600
H 	H 	0.77160 0.45940 0.14010 0.00700
