data_crystal

_cell_length_a 13.13500
_cell_length_b 13.13500
_cell_length_c 5.87940
_cell_angle_alpha 90.00000
_cell_angle_beta  90.00000
_cell_angle_gamma 120.00000

_symmetry_space_group_name_	'P 1'
_symmetry_space_group_name_H-M	'P 1'

loop_
_symmetry_equiv_pos_as_xyz
  x,y,z

loop_
_atom_site_label
_atom_site_type_symbol
_atom_site_fract_x
_atom_site_fract_y
_atom_site_fract_z
_atom_site_charge
C 	C 	0.91440 0.76390 0.84770 -0.01000
C 	C 	0.89930 0.65800 0.77030 -0.07400
C 	C 	0.96110 0.65870 0.57700 0.12700
H 	H 	0.95330 0.58880 0.52170 0.01000
C 	C 	0.03360 0.76330 0.46800 -0.18900
H 	H 	0.07300 0.76450 0.33570 0.11900
C 	C 	0.04700 0.86730 0.55960 0.05600
H 	H 	0.09870 0.93840 0.49030 0.04900
C 	C 	0.85090 0.77690 0.05710 0.33100
C 	C 	0.81920 0.54470 0.89020 0.26500
N 	N 	0.98840 0.86800 0.74210 -0.18900
O 	O 	0.88090 0.88560 0.09420 -0.33400
O 	O 	0.78110 0.69240 0.16260 -0.24200
O 	O 	0.71320 0.48070 0.82320 -0.38600
O 	O 	0.86020 0.51160 0.05180 -0.32400
C 	C 	0.23610 0.15050 0.84770 -0.03500
C 	C 	0.34200 0.24130 0.77030 -0.05700
C 	C 	0.34130 0.30240 0.57700 0.02800
H 	H 	0.41120 0.36450 0.52170 0.03000
C 	C 	0.23670 0.27030 0.46800 -0.10900
H 	H 	0.23550 0.30850 0.33570 0.09400
C 	C 	0.13270 0.17970 0.55960 0.07300
H 	H 	0.06160 0.16030 0.49030 -0.00000
C 	C 	0.22310 0.07400 0.05710 0.25000
C 	C 	0.45530 0.27450 0.89020 0.25100
N 	N 	0.13200 0.12040 0.74210 -0.25600
O 	O 	0.11440 0.99530 0.09420 -0.30200
O 	O 	0.30760 0.08870 0.16260 -0.25100
O 	O 	0.51930 0.23250 0.82320 -0.39200
O 	O 	0.48840 0.34860 0.05180 -0.32900
C 	C 	0.84950 0.08560 0.84770 -0.07800
C 	C 	0.75870 0.10070 0.77030 0.00400
C 	C 	0.69760 0.03890 0.57700 -0.13100
H 	H 	0.63550 0.04670 0.52170 0.06700
C 	C 	0.72970 0.96640 0.46800 0.04800
H 	H 	0.69150 0.92700 0.33570 0.06600
C 	C 	0.82030 0.95300 0.55960 0.10800
H 	H 	0.83970 0.90130 0.49030 0.03300
C 	C 	0.92600 0.14910 0.05710 0.40300
C 	C 	0.72550 0.18080 0.89020 0.23200
N 	N 	0.87960 0.01160 0.74210 -0.25400
O 	O 	0.00470 0.11910 0.09420 -0.45500
O 	O 	0.91130 0.21890 0.16260 -0.25800
O 	O 	0.76750 0.28680 0.82320 -0.37300
O 	O 	0.65140 0.13980 0.05180 -0.34100
Dy	Dy	0.66667 0.33333 0.10940 1.58900
Co	Co	-0.00000 0.00000 0.90702 1.13600
