data_crystal

_cell_length_a 20.92470
_cell_length_b 20.92470
_cell_length_c 6.40000
_cell_angle_alpha 90.00000
_cell_angle_beta  90.00000
_cell_angle_gamma 120.00000

_symmetry_space_group_name_	'P 1'
_symmetry_space_group_name_H-M	'P 1'

loop_
_symmetry_equiv_pos_as_xyz
  x,y,z

loop_
_atom_site_label
_atom_site_type_symbol
_atom_site_fract_x
_atom_site_fract_y
_atom_site_fract_z
_atom_site_charge
Cu	Cu	0.89286 0.94643 0.25000 0.77800
Cu	Cu	0.05357 0.94643 0.25000 0.80100
Cu	Cu	0.05357 0.10714 0.25000 0.82800
O 	O 	0.00000 0.00000 0.15000 -0.39000
O 	O 	0.00000 0.00000 0.35000 -0.38900
C 	C 	0.70502 0.29498 0.25000 0.08100
C 	C 	0.74641 0.25359 0.25000 -0.02600
C 	C 	0.82311 0.17689 0.25000 0.03500
C 	C 	0.86450 0.13550 0.25000 -0.04200
C 	C 	0.70502 0.41004 0.25000 0.08000
C 	C 	0.74641 0.49281 0.25000 -0.02600
C 	C 	0.82311 0.64622 0.25000 0.03000
C 	C 	0.86450 0.72900 0.25000 -0.04500
C 	C 	0.58996 0.29498 0.25000 0.08300
C 	C 	0.50719 0.25359 0.25000 -0.02600
C 	C 	0.35378 0.17689 0.25000 0.04000
C 	C 	0.27100 0.13550 0.25000 -0.03900
C 	C 	0.74337 0.37169 0.25000 -0.14000
H 	H 	0.79580 0.39790 0.25000 0.07000
C 	C 	0.62831 0.37169 0.25000 -0.14000
H 	H 	0.60210 0.39790 0.25000 0.07400
C 	C 	0.62831 0.25663 0.25000 -0.14000
H 	H 	0.60210 0.20420 0.25000 0.07700
C 	C 	0.70805 0.17689 0.25000 -0.02100
H 	H 	0.65563 0.15068 0.25000 0.03700
C 	C 	0.74641 0.13854 0.25000 -0.08100
H 	H 	0.72019 0.08611 0.25000 0.06000
C 	C 	0.83397 0.06086 0.25000 -0.01100
H 	H 	0.78270 0.02578 0.25000 0.02300
N 	N 	0.88975 0.04526 0.25000 -0.21600
C 	C 	0.82311 0.53117 0.25000 -0.02700
H 	H 	0.84932 0.50495 0.25000 0.02600
C 	C 	0.86146 0.60787 0.25000 -0.08200
H 	H 	0.91389 0.63408 0.25000 0.03800
C 	C 	0.93914 0.77311 0.25000 -0.02200
H 	H 	0.97422 0.75691 0.25000 -0.01100
N 	N 	0.95474 0.84449 0.25000 -0.24800
C 	C 	0.46883 0.29195 0.25000 -0.02100
H 	H 	0.49505 0.34437 0.25000 0.03100
C 	C 	0.39213 0.25359 0.25000 -0.08300
H 	H 	0.36592 0.27981 0.25000 0.05100
C 	C 	0.22689 0.16603 0.25000 -0.01400
H 	H 	0.24309 0.21730 0.25000 0.00700
N 	N 	0.15551 0.11025 0.25000 -0.22200
C 	C 	0.82311 0.29195 0.25000 -0.02500
H 	H 	0.84932 0.34437 0.25000 0.02500
C 	C 	0.86146 0.25359 0.25000 -0.08300
H 	H 	0.91389 0.27981 0.25000 0.03900
C 	C 	0.93914 0.16603 0.25000 -0.02100
H 	H 	0.97422 0.21730 0.25000 -0.01100
N 	N 	0.95474 0.11025 0.25000 -0.24300
C 	C 	0.46883 0.17689 0.25000 -0.01800
H 	H 	0.49505 0.15068 0.25000 0.03700
C 	C 	0.39213 0.13854 0.25000 -0.08200
H 	H 	0.36592 0.08611 0.25000 0.06200
C 	C 	0.22689 0.06086 0.25000 -0.00900
H 	H 	0.24309 0.02578 0.25000 0.02400
N 	N 	0.15551 0.04526 0.25000 -0.20900
C 	C 	0.70805 0.53117 0.25000 -0.02500
H 	H 	0.65563 0.50495 0.25000 0.03200
C 	C 	0.74641 0.60787 0.25000 -0.08100
H 	H 	0.72019 0.63408 0.25000 0.04900
C 	C 	0.83397 0.77311 0.25000 -0.01700
H 	H 	0.78270 0.75691 0.25000 0.00500
N 	N 	0.88975 0.84449 0.25000 -0.23600
Cu	Cu	0.10714 0.05357 0.75000 0.82800
Cu	Cu	0.94643 0.05357 0.75000 0.80000
Cu	Cu	0.94643 0.89286 0.75000 0.77700
O 	O 	0.00000 -0.00000 0.65000 -0.38900
O 	O 	-0.00000 -0.00000 0.85000 -0.39000
C 	C 	0.29498 0.70502 0.75000 0.08100
C 	C 	0.25359 0.74641 0.75000 -0.02600
C 	C 	0.17689 0.82311 0.75000 0.03500
C 	C 	0.13550 0.86450 0.75000 -0.04200
C 	C 	0.29498 0.58996 0.75000 0.08300
C 	C 	0.25359 0.50719 0.75000 -0.02600
C 	C 	0.17689 0.35378 0.75000 0.04000
C 	C 	0.13550 0.27100 0.75000 -0.03900
C 	C 	0.41004 0.70502 0.75000 0.08000
C 	C 	0.49281 0.74641 0.75000 -0.02600
C 	C 	0.64622 0.82311 0.75000 0.03000
C 	C 	0.72900 0.86450 0.75000 -0.04500
C 	C 	0.25663 0.62831 0.75000 -0.14000
H 	H 	0.20420 0.60210 0.75000 0.07700
C 	C 	0.37169 0.62831 0.75000 -0.14000
H 	H 	0.39790 0.60210 0.75000 0.07400
C 	C 	0.37169 0.74337 0.75000 -0.14000
H 	H 	0.39790 0.79580 0.75000 0.07000
C 	C 	0.29195 0.82311 0.75000 -0.02500
H 	H 	0.34437 0.84932 0.75000 0.02500
C 	C 	0.25359 0.86146 0.75000 -0.08300
H 	H 	0.27981 0.91389 0.75000 0.03900
C 	C 	0.16603 0.93914 0.75000 -0.02100
H 	H 	0.21730 0.97422 0.75000 -0.01100
N 	N 	0.11025 0.95474 0.75000 -0.24300
C 	C 	0.17689 0.46883 0.75000 -0.01800
H 	H 	0.15068 0.49505 0.75000 0.03700
C 	C 	0.13854 0.39213 0.75000 -0.08200
H 	H 	0.08611 0.36592 0.75000 0.06200
C 	C 	0.06086 0.22689 0.75000 -0.00900
H 	H 	0.02578 0.24309 0.75000 0.02400
N 	N 	0.04526 0.15551 0.75000 -0.20900
C 	C 	0.53117 0.70805 0.75000 -0.02500
H 	H 	0.50495 0.65563 0.75000 0.03200
C 	C 	0.60787 0.74641 0.75000 -0.08100
H 	H 	0.63408 0.72019 0.75000 0.04900
C 	C 	0.77311 0.83397 0.75000 -0.01700
H 	H 	0.75691 0.78270 0.75000 0.00500
N 	N 	0.84449 0.88975 0.75000 -0.23600
C 	C 	0.17689 0.70805 0.75000 -0.02100
H 	H 	0.15068 0.65563 0.75000 0.03700
C 	C 	0.13854 0.74641 0.75000 -0.08100
H 	H 	0.08611 0.72019 0.75000 0.06000
C 	C 	0.06086 0.83397 0.75000 -0.01100
H 	H 	0.02578 0.78270 0.75000 0.02300
N 	N 	0.04526 0.88975 0.75000 -0.21600
C 	C 	0.53117 0.82311 0.75000 -0.02700
H 	H 	0.50495 0.84932 0.75000 0.02600
C 	C 	0.60787 0.86146 0.75000 -0.08200
H 	H 	0.63408 0.91389 0.75000 0.03800
C 	C 	0.77311 0.93914 0.75000 -0.02200
H 	H 	0.75691 0.97422 0.75000 -0.01100
N 	N 	0.84449 0.95474 0.75000 -0.24800
C 	C 	0.29195 0.46883 0.75000 -0.02100
H 	H 	0.34437 0.49505 0.75000 0.03100
C 	C 	0.25359 0.39213 0.75000 -0.08300
H 	H 	0.27981 0.36592 0.75000 0.05100
C 	C 	0.16603 0.22689 0.75000 -0.01400
H 	H 	0.21730 0.24309 0.75000 0.00700
N 	N 	0.11025 0.15551 0.75000 -0.22200
