data_crystal

_cell_length_a 28.33630
_cell_length_b 13.46180
_cell_length_c 18.25770
_cell_angle_alpha 90.00000
_cell_angle_beta  106.78000
_cell_angle_gamma 90.00000

_symmetry_space_group_name_	'P 1'
_symmetry_space_group_name_H-M	'P 1'

loop_
_symmetry_equiv_pos_as_xyz
  x,y,z

loop_
_atom_site_label
_atom_site_type_symbol
_atom_site_fract_x
_atom_site_fract_y
_atom_site_fract_z
_atom_site_charge
N 	N 	0.27523 0.08740 0.99002 -0.23600
N 	N 	0.66795 0.29730 0.47047 -0.26000
O 	O 	0.36040 0.57441 0.13067 -0.23400
O 	O 	0.42412 0.51860 0.27874 -0.23800
C 	C 	0.30231 0.04210 0.05352 0.04300
H 	H 	0.31340 0.07950 0.09800 -0.03200
C 	C 	0.31468 0.94320 0.05649 -0.15900
H 	H 	0.33370 0.91550 0.10220 0.07100
C 	C 	0.29895 0.88430 0.99161 0.06700
C 	C 	0.27252 0.93250 0.92531 -0.12700
H 	H 	0.26210 0.89720 0.87960 0.06700
C 	C 	0.26162 0.03180 0.92653 0.08100
H 	H 	0.24390 0.06190 0.88100 -0.02800
C 	C 	0.30987 0.77570 0.99299 0.13400
C 	C 	0.33172 0.72770 0.06237 -0.26800
H 	H 	0.34030 0.76420 0.10760 0.11600
C 	C 	0.34062 0.62710 0.06451 0.22300
C 	C 	0.32847 0.57130 0.99717 -0.19200
H 	H 	0.33520 0.50360 0.99840 0.11500
C 	C 	0.30628 0.61830 0.92863 0.10800
H 	H 	0.29740 0.58150 0.88360 -0.02200
C 	C 	0.29699 0.71980 0.92607 -0.17700
H 	H 	0.28210 0.75040 0.87950 0.08200
C 	C 	0.64390 0.29500 0.52403 0.06400
H 	H 	0.66120 0.27730 0.57380 -0.03400
C 	C 	0.59426 0.31800 0.50790 -0.12600
H 	H 	0.57900 0.31590 0.54660 0.07300
C 	C 	0.56721 0.34430 0.43370 0.03500
C 	C 	0.59266 0.34860 0.37960 -0.12400
H 	H 	0.57640 0.36760 0.32970 0.08500
C 	C 	0.64218 0.32450 0.39955 0.07500
H 	H 	0.65840 0.32740 0.36200 -0.02900
C 	C 	0.51338 0.36460 0.41340 0.11500
C 	C 	0.49222 0.43290 0.35616 -0.24000
H 	H 	0.51180 0.46710 0.33150 0.13400
C 	C 	0.44149 0.44980 0.33600 0.25500
C 	C 	0.41174 0.39840 0.37140 -0.25500
H 	H 	0.37790 0.40890 0.35700 0.11800
C 	C 	0.43333 0.33110 0.42850 0.13400
H 	H 	0.41380 0.29710 0.45320 -0.01300
C 	C 	0.48373 0.31370 0.44950 -0.19000
H 	H 	0.49770 0.26790 0.48780 0.09500
C 	C 	0.36279 0.62360 0.20092 0.01500
H 	H 	0.33180 0.65650 0.19740 0.01600
H 	H 	0.38870 0.67320 0.21210 0.03700
C 	C 	0.37327 0.54650 0.26280 0.02000
H 	H 	0.36700 0.57330 0.30840 0.01800
H 	H 	0.35220 0.48910 0.24610 0.02800
N 	N 	0.72477 0.08740 0.50998 -0.25700
N 	N 	0.33205 0.29730 0.02953 -0.27600
O 	O 	0.63960 0.57441 0.36933 -0.23700
O 	O 	0.57588 0.51860 0.22126 -0.24000
C 	C 	0.69769 0.04210 0.44648 0.06000
H 	H 	0.68660 0.07950 0.40200 -0.03400
C 	C 	0.68532 0.94320 0.44351 -0.11600
H 	H 	0.66630 0.91550 0.39780 0.06100
C 	C 	0.70105 0.88430 0.50839 0.02700
C 	C 	0.72748 0.93250 0.57469 -0.11400
H 	H 	0.73790 0.89720 0.62040 0.06200
C 	C 	0.73838 0.03180 0.57347 0.06700
H 	H 	0.75610 0.06190 0.61900 -0.02500
C 	C 	0.69013 0.77570 0.50701 0.11400
C 	C 	0.66828 0.72770 0.43763 -0.24400
H 	H 	0.65970 0.76420 0.39240 0.11200
C 	C 	0.65938 0.62710 0.43549 0.26000
C 	C 	0.67153 0.57130 0.50283 -0.24900
H 	H 	0.66480 0.50360 0.50160 0.12300
C 	C 	0.69372 0.61830 0.57137 0.12900
H 	H 	0.70260 0.58150 0.61640 -0.03000
C 	C 	0.70301 0.71980 0.57393 -0.18900
H 	H 	0.71790 0.75040 0.62050 0.08600
C 	C 	0.35610 0.29500 0.97597 0.07900
H 	H 	0.33880 0.27730 0.92620 -0.03400
C 	C 	0.40574 0.31800 0.99210 -0.07400
H 	H 	0.42100 0.31590 0.95340 0.06400
C 	C 	0.43279 0.34430 0.06630 -0.01600
C 	C 	0.40734 0.34860 0.12040 -0.10300
H 	H 	0.42360 0.36760 0.17030 0.07700
C 	C 	0.35782 0.32450 0.10045 0.05700
H 	H 	0.34160 0.32740 0.13800 -0.02400
C 	C 	0.48662 0.36460 0.08660 0.13100
C 	C 	0.50778 0.43290 0.14384 -0.25400
H 	H 	0.48820 0.46710 0.16850 0.13700
C 	C 	0.55851 0.44980 0.16400 0.26100
C 	C 	0.58826 0.39840 0.12860 -0.26600
H 	H 	0.62210 0.40890 0.14300 0.12100
C 	C 	0.56667 0.33110 0.07150 0.14200
H 	H 	0.58620 0.29710 0.04680 -0.02200
C 	C 	0.51627 0.31370 0.05050 -0.20700
H 	H 	0.50230 0.26790 0.01220 0.09100
C 	C 	0.63721 0.62360 0.29908 0.01800
H 	H 	0.66820 0.65650 0.30260 0.01500
H 	H 	0.61130 0.67320 0.28790 0.03600
C 	C 	0.62673 0.54650 0.23720 0.02000
H 	H 	0.63300 0.57330 0.19160 0.01600
H 	H 	0.64780 0.48910 0.25390 0.02800
N 	N 	0.22477 0.41260 0.00998 -0.27400
N 	N 	0.83205 0.20270 0.52953 -0.26000
O 	O 	0.13960 0.92559 0.86933 -0.23900
O 	O 	0.07588 0.98140 0.72126 -0.23400
C 	C 	0.19769 0.45790 0.94648 0.08200
H 	H 	0.18660 0.42050 0.90200 -0.03500
C 	C 	0.18532 0.55680 0.94351 -0.07600
H 	H 	0.16630 0.58450 0.89780 0.05400
C 	C 	0.20105 0.61570 0.00839 -0.01200
C 	C 	0.22748 0.56750 0.07469 -0.10400
H 	H 	0.23790 0.60280 0.12040 0.05700
C 	C 	0.23838 0.46820 0.07347 0.05500
H 	H 	0.25610 0.43810 0.11900 -0.02300
C 	C 	0.19013 0.72430 0.00701 0.09400
C 	C 	0.16828 0.77230 0.93763 -0.21900
H 	H 	0.15970 0.73580 0.89240 0.10900
C 	C 	0.15938 0.87290 0.93549 0.29600
C 	C 	0.17153 0.92870 0.00283 -0.30500
H 	H 	0.16480 0.99640 0.00160 0.13100
C 	C 	0.19372 0.88170 0.07137 0.15000
H 	H 	0.20260 0.91850 0.11640 -0.03900
C 	C 	0.20301 0.78020 0.07393 -0.20000
H 	H 	0.21790 0.74960 0.12050 0.08900
C 	C 	0.85610 0.20500 0.47597 0.06500
H 	H 	0.83880 0.22270 0.42620 -0.03500
C 	C 	0.90574 0.18200 0.49210 -0.12800
H 	H 	0.92100 0.18410 0.45340 0.07300
C 	C 	0.93279 0.15570 0.56630 0.03900
C 	C 	0.90734 0.15140 0.62040 -0.12600
H 	H 	0.92360 0.13240 0.67030 0.08600
C 	C 	0.85782 0.17550 0.60045 0.07600
H 	H 	0.84160 0.17260 0.63800 -0.02900
C 	C 	0.98662 0.13540 0.58660 0.10700
C 	C 	0.00778 0.06710 0.64384 -0.23000
H 	H 	0.98820 0.03290 0.66850 0.13000
C 	C 	0.05851 0.05020 0.66400 0.24900
C 	C 	0.08826 0.10160 0.62860 -0.24900
H 	H 	0.12210 0.09110 0.64300 0.11600
C 	C 	0.06667 0.16890 0.57150 0.12700
H 	H 	0.08620 0.20290 0.54680 -0.01100
C 	C 	0.01627 0.18630 0.55050 -0.18200
H 	H 	0.00230 0.23210 0.51220 0.09300
C 	C 	0.13721 0.87640 0.79908 0.01900
H 	H 	0.16820 0.84350 0.80260 0.01500
H 	H 	0.11130 0.82680 0.78790 0.03800
C 	C 	0.12673 0.95350 0.73720 0.02000
H 	H 	0.13300 0.92670 0.69160 0.01800
H 	H 	0.14780 0.01090 0.75390 0.02900
N 	N 	0.77523 0.41260 0.49002 -0.25700
N 	N 	0.16795 0.20270 0.97047 -0.24200
O 	O 	0.86040 0.92559 0.63067 -0.23600
O 	O 	0.92412 0.98140 0.77874 -0.23400
C 	C 	0.80231 0.45790 0.55352 0.06300
H 	H 	0.81340 0.42050 0.59800 -0.03400
C 	C 	0.81468 0.55680 0.55649 -0.11900
H 	H 	0.83370 0.58450 0.60220 0.06300
C 	C 	0.79895 0.61570 0.49161 0.02900
C 	C 	0.77252 0.56750 0.42531 -0.11700
H 	H 	0.76210 0.60280 0.37960 0.06200
C 	C 	0.76162 0.46820 0.42653 0.07000
H 	H 	0.74390 0.43810 0.38100 -0.02700
C 	C 	0.80987 0.72430 0.49299 0.11300
C 	C 	0.83172 0.77230 0.56237 -0.24300
H 	H 	0.84030 0.73580 0.60760 0.11300
C 	C 	0.84062 0.87290 0.56451 0.26000
C 	C 	0.82847 0.92870 0.49717 -0.24900
H 	H 	0.83520 0.99640 0.49840 0.12300
C 	C 	0.80628 0.88170 0.42863 0.12900
H 	H 	0.79740 0.91850 0.38360 -0.03100
C 	C 	0.79699 0.78020 0.42607 -0.18800
H 	H 	0.78210 0.74960 0.37950 0.08500
C 	C 	0.14390 0.20500 0.02403 0.04800
H 	H 	0.16120 0.22270 0.07380 -0.03300
C 	C 	0.09426 0.18200 0.00790 -0.17400
H 	H 	0.07900 0.18410 0.04660 0.08000
C 	C 	0.06721 0.15570 0.93370 0.08200
C 	C 	0.09266 0.15140 0.87960 -0.14300
H 	H 	0.07640 0.13240 0.82970 0.09300
C 	C 	0.14218 0.17550 0.89955 0.09200
H 	H 	0.15840 0.17260 0.86200 -0.03200
C 	C 	0.01338 0.13540 0.91340 0.10500
C 	C 	0.99222 0.06710 0.85616 -0.23200
H 	H 	0.01180 0.03290 0.83150 0.13300
C 	C 	0.94149 0.05020 0.83600 0.25200
C 	C 	0.91174 0.10160 0.87140 -0.24700
H 	H 	0.87790 0.09110 0.85700 0.11600
C 	C 	0.93333 0.16890 0.92850 0.12900
H 	H 	0.91380 0.20290 0.95320 -0.00500
C 	C 	0.98373 0.18630 0.94950 -0.17700
H 	H 	0.99770 0.23210 0.98780 0.10100
C 	C 	0.86279 0.87640 0.70092 0.01600
H 	H 	0.83180 0.84350 0.69740 0.01700
H 	H 	0.88870 0.82680 0.71210 0.03900
C 	C 	0.87327 0.95350 0.76280 0.02100
H 	H 	0.86700 0.92670 0.80840 0.01900
H 	H 	0.85220 0.01090 0.74610 0.02800
Cd	Cd	0.25000 0.25000 -0.00000 1.15000
Cd	Cd	0.75000 0.25000 0.50000 1.16000
N 	N 	0.77523 0.58740 0.99002 -0.23700
N 	N 	0.16795 0.79730 0.47047 -0.25900
O 	O 	0.86040 0.07441 0.13067 -0.23500
O 	O 	0.92412 0.01860 0.27874 -0.24000
C 	C 	0.80231 0.54210 0.05352 0.04400
H 	H 	0.81340 0.57950 0.09800 -0.03200
C 	C 	0.81468 0.44320 0.05649 -0.16100
H 	H 	0.83370 0.41550 0.10220 0.07200
C 	C 	0.79895 0.38430 0.99161 0.07000
C 	C 	0.77252 0.43250 0.92531 -0.13000
H 	H 	0.76210 0.39720 0.87960 0.06800
C 	C 	0.76162 0.53180 0.92653 0.08500
H 	H 	0.74390 0.56190 0.88100 -0.02900
C 	C 	0.80987 0.27570 0.99299 0.13300
C 	C 	0.83172 0.22770 0.06237 -0.26700
H 	H 	0.84030 0.26420 0.10760 0.11600
C 	C 	0.84062 0.12710 0.06451 0.22300
C 	C 	0.82847 0.07130 0.99717 -0.19300
H 	H 	0.83520 0.00360 0.99840 0.11400
C 	C 	0.80628 0.11830 0.92863 0.10800
H 	H 	0.79740 0.08150 0.88360 -0.02200
C 	C 	0.79699 0.21980 0.92607 -0.17700
H 	H 	0.78210 0.25040 0.87950 0.08200
C 	C 	0.14390 0.79500 0.52403 0.06300
H 	H 	0.16120 0.77730 0.57380 -0.03400
C 	C 	0.09426 0.81800 0.50790 -0.12300
H 	H 	0.07900 0.81590 0.54660 0.07200
C 	C 	0.06721 0.84430 0.43370 0.03200
C 	C 	0.09266 0.84860 0.37960 -0.12100
H 	H 	0.07640 0.86760 0.32970 0.08400
C 	C 	0.14218 0.82450 0.39955 0.07400
H 	H 	0.15840 0.82740 0.36200 -0.02800
C 	C 	0.01338 0.86460 0.41340 0.12400
C 	C 	0.99222 0.93290 0.35616 -0.25000
H 	H 	0.01180 0.96710 0.33150 0.13800
C 	C 	0.94149 0.94980 0.33600 0.26200
C 	C 	0.91174 0.89840 0.37140 -0.26100
H 	H 	0.87790 0.90890 0.35700 0.12000
C 	C 	0.93333 0.83110 0.42850 0.14000
H 	H 	0.91380 0.79710 0.45320 -0.01600
C 	C 	0.98373 0.81370 0.44950 -0.19800
H 	H 	0.99770 0.76790 0.48780 0.09800
C 	C 	0.86279 0.12360 0.20092 0.01600
H 	H 	0.83180 0.15650 0.19740 0.01600
H 	H 	0.88870 0.17320 0.21210 0.03600
C 	C 	0.87327 0.04650 0.26280 0.01900
H 	H 	0.86700 0.07330 0.30840 0.01700
H 	H 	0.85220 0.98910 0.24610 0.02900
N 	N 	0.22477 0.58740 0.50998 -0.25700
N 	N 	0.83205 0.79730 0.02953 -0.27600
O 	O 	0.13960 0.07441 0.36933 -0.23800
O 	O 	0.07588 0.01860 0.22126 -0.23900
C 	C 	0.19769 0.54210 0.44648 0.06300
H 	H 	0.18660 0.57950 0.40200 -0.03400
C 	C 	0.18532 0.44320 0.44351 -0.11900
H 	H 	0.16630 0.41550 0.39780 0.06200
C 	C 	0.20105 0.38430 0.50839 0.02900
C 	C 	0.22748 0.43250 0.57469 -0.11700
H 	H 	0.23790 0.39720 0.62040 0.06300
C 	C 	0.23838 0.53180 0.57347 0.07000
H 	H 	0.25610 0.56190 0.61900 -0.02600
C 	C 	0.19013 0.27570 0.50701 0.11300
C 	C 	0.16828 0.22770 0.43763 -0.24300
H 	H 	0.15970 0.26420 0.39240 0.11200
C 	C 	0.15938 0.12710 0.43549 0.25900
C 	C 	0.17153 0.07130 0.50283 -0.24900
H 	H 	0.16480 0.00360 0.50160 0.12200
C 	C 	0.19372 0.11830 0.57137 0.12900
H 	H 	0.20260 0.08150 0.61640 -0.03000
C 	C 	0.20301 0.21980 0.57393 -0.18800
H 	H 	0.21790 0.25040 0.62050 0.08600
C 	C 	0.85610 0.79500 0.97597 0.08100
H 	H 	0.83880 0.77730 0.92620 -0.03500
C 	C 	0.90574 0.81800 0.99210 -0.07600
H 	H 	0.92100 0.81590 0.95340 0.06400
C 	C 	0.93279 0.84430 0.06630 -0.01200
C 	C 	0.90734 0.84860 0.12040 -0.10500
H 	H 	0.92360 0.86760 0.17030 0.07700
C 	C 	0.85782 0.82450 0.10045 0.05800
H 	H 	0.84160 0.82740 0.13800 -0.02500
C 	C 	0.98662 0.86460 0.08660 0.12200
C 	C 	0.00778 0.93290 0.14384 -0.24400
H 	H 	0.98820 0.96710 0.16850 0.13300
C 	C 	0.05851 0.94980 0.16400 0.25700
C 	C 	0.08826 0.89840 0.12860 -0.26100
H 	H 	0.12210 0.90890 0.14300 0.11900
C 	C 	0.06667 0.83110 0.07150 0.13600
H 	H 	0.08620 0.79710 0.04680 -0.02000
C 	C 	0.01627 0.81370 0.05050 -0.19900
H 	H 	0.00230 0.76790 0.01220 0.08900
C 	C 	0.13721 0.12360 0.29908 0.01900
H 	H 	0.16820 0.15650 0.30260 0.01400
H 	H 	0.11130 0.17320 0.28790 0.03600
C 	C 	0.12673 0.04650 0.23720 0.01700
H 	H 	0.13300 0.07330 0.19160 0.01700
H 	H 	0.14780 0.98910 0.25390 0.03000
N 	N 	0.72477 0.91260 0.00998 -0.27500
N 	N 	0.33205 0.70270 0.52953 -0.26000
O 	O 	0.63960 0.42559 0.86933 -0.24000
O 	O 	0.57588 0.48140 0.72126 -0.23500
C 	C 	0.69769 0.95790 0.94648 0.08500
H 	H 	0.68660 0.92050 0.90200 -0.03600
C 	C 	0.68532 0.05680 0.94351 -0.08100
H 	H 	0.66630 0.08450 0.89780 0.05500
C 	C 	0.70105 0.11570 0.00839 -0.00900
C 	C 	0.72748 0.06750 0.07469 -0.10700
H 	H 	0.73790 0.10280 0.12040 0.05800
C 	C 	0.73838 0.96820 0.07347 0.05700
H 	H 	0.75610 0.93810 0.11900 -0.02400
C 	C 	0.69013 0.22430 0.00701 0.09200
C 	C 	0.66828 0.27230 0.93763 -0.21900
H 	H 	0.65970 0.23580 0.89240 0.10800
C 	C 	0.65938 0.37290 0.93549 0.29600
C 	C 	0.67153 0.42870 0.00283 -0.30500
H 	H 	0.66480 0.49640 0.00160 0.13100
C 	C 	0.69372 0.38170 0.07137 0.14900
H 	H 	0.70260 0.41850 0.11640 -0.03900
C 	C 	0.70301 0.28020 0.07393 -0.19900
H 	H 	0.71790 0.24960 0.12050 0.08800
C 	C 	0.35610 0.70500 0.47597 0.06400
H 	H 	0.33880 0.72270 0.42620 -0.03500
C 	C 	0.40574 0.68200 0.49210 -0.12600
H 	H 	0.42100 0.68410 0.45340 0.07200
C 	C 	0.43279 0.65570 0.56630 0.03500
C 	C 	0.40734 0.65140 0.62040 -0.12400
H 	H 	0.42360 0.63240 0.67030 0.08500
C 	C 	0.35782 0.67550 0.60045 0.07500
H 	H 	0.34160 0.67260 0.63800 -0.02800
C 	C 	0.48662 0.63540 0.58660 0.11500
C 	C 	0.50778 0.56710 0.64384 -0.23900
H 	H 	0.48820 0.53290 0.66850 0.13400
C 	C 	0.55851 0.55020 0.66400 0.25500
C 	C 	0.58826 0.60160 0.62860 -0.25500
H 	H 	0.62210 0.59110 0.64300 0.11800
C 	C 	0.56667 0.66890 0.57150 0.13400
H 	H 	0.58620 0.70290 0.54680 -0.01300
C 	C 	0.51627 0.68630 0.55050 -0.18900
H 	H 	0.50230 0.73210 0.51220 0.09500
C 	C 	0.63721 0.37640 0.79908 0.02000
H 	H 	0.66820 0.34350 0.80260 0.01500
H 	H 	0.61130 0.32680 0.78790 0.03800
C 	C 	0.62673 0.45350 0.73720 0.01800
H 	H 	0.63300 0.42670 0.69160 0.01900
H 	H 	0.64780 0.51090 0.75390 0.03000
N 	N 	0.27523 0.91260 0.49002 -0.25800
N 	N 	0.66795 0.70270 0.97047 -0.24100
O 	O 	0.36040 0.42559 0.63067 -0.23700
O 	O 	0.42412 0.48140 0.77874 -0.23300
C 	C 	0.30231 0.95790 0.55352 0.06600
H 	H 	0.31340 0.92050 0.59800 -0.03400
C 	C 	0.31468 0.05680 0.55649 -0.12200
H 	H 	0.33370 0.08450 0.60220 0.06400
C 	C 	0.29895 0.11570 0.49161 0.03100
C 	C 	0.27252 0.06750 0.42531 -0.12000
H 	H 	0.26210 0.10280 0.37960 0.06300
C 	C 	0.26162 0.96820 0.42653 0.07200
H 	H 	0.24390 0.93810 0.38100 -0.02700
C 	C 	0.30987 0.22430 0.49299 0.11200
C 	C 	0.33172 0.27230 0.56237 -0.24300
H 	H 	0.34030 0.23580 0.60760 0.11200
C 	C 	0.34062 0.37290 0.56451 0.25900
C 	C 	0.32847 0.42870 0.49717 -0.24800
H 	H 	0.33520 0.49640 0.49840 0.12300
C 	C 	0.30628 0.38170 0.42863 0.12800
H 	H 	0.29740 0.41850 0.38360 -0.03100
C 	C 	0.29699 0.28020 0.42607 -0.18700
H 	H 	0.28210 0.24960 0.37950 0.08500
C 	C 	0.64390 0.70500 0.02403 0.04900
H 	H 	0.66120 0.72270 0.07380 -0.03400
C 	C 	0.59426 0.68200 0.00790 -0.17700
H 	H 	0.57900 0.68410 0.04660 0.08100
C 	C 	0.56721 0.65570 0.93370 0.08700
C 	C 	0.59266 0.65140 0.87960 -0.14500
H 	H 	0.57640 0.63240 0.82970 0.09300
C 	C 	0.64218 0.67550 0.89955 0.09300
H 	H 	0.65840 0.67260 0.86200 -0.03200
C 	C 	0.51338 0.63540 0.91340 0.09900
C 	C 	0.49222 0.56710 0.85616 -0.22500
H 	H 	0.51180 0.53290 0.83150 0.13000
C 	C 	0.44149 0.55020 0.83600 0.24900
C 	C 	0.41174 0.60160 0.87140 -0.24400
H 	H 	0.37790 0.59110 0.85700 0.11500
C 	C 	0.43333 0.66890 0.92850 0.12500
H 	H 	0.41380 0.70290 0.95320 -0.00400
C 	C 	0.48373 0.68630 0.94950 -0.17200
H 	H 	0.49770 0.73210 0.98780 0.10000
C 	C 	0.36279 0.37640 0.70092 0.01700
H 	H 	0.33180 0.34350 0.69740 0.01600
H 	H 	0.38870 0.32680 0.71210 0.03800
C 	C 	0.37327 0.45350 0.76280 0.01800
H 	H 	0.36700 0.42670 0.80840 0.02000
H 	H 	0.35220 0.51090 0.74610 0.03000
Cd	Cd	0.75000 0.75000 -0.00000 1.14900
Cd	Cd	0.25000 0.75000 0.50000 1.16000
