data_crystal

_cell_length_a 22.10300
_cell_length_b 19.93200
_cell_length_c 15.10100
_cell_angle_alpha 90.00000
_cell_angle_beta  130.84800
_cell_angle_gamma 90.00000

_symmetry_space_group_name_	'P 1'
_symmetry_space_group_name_H-M	'P 1'

loop_
_symmetry_equiv_pos_as_xyz
  x,y,z

loop_
_atom_site_label
_atom_site_type_symbol
_atom_site_fract_x
_atom_site_fract_y
_atom_site_fract_z
_atom_site_charge
C 	C 	0.83170 0.51210 0.88100 -0.22700
H 	H 	0.86110 0.54880 0.92910 0.13800
C 	C 	0.75770 0.52100 0.77440 0.18500
H 	H 	0.73690 0.56410 0.74920 -0.01100
C 	C 	0.74260 0.40790 0.73730 0.18600
H 	H 	0.71160 0.37220 0.68780 -0.02700
C 	C 	0.81740 0.39610 0.84300 -0.23400
H 	H 	0.83720 0.35250 0.86430 0.12500
C 	C 	0.86270 0.44820 0.91700 0.17500
C 	C 	0.94400 0.43820 0.03510 0.01600
C 	C 	0.97680 0.37440 0.07510 -0.11700
H 	H 	0.94810 0.33730 0.02800 0.07500
C 	C 	0.05110 0.36570 0.18330 0.07900
C 	C 	0.09120 0.42180 0.24810 -0.13600
H 	H 	0.14210 0.41810 0.32130 0.09300
C 	C 	0.05530 0.48530 0.20390 0.08400
C 	C 	0.09790 0.54740 0.27410 0.06800
C 	C 	0.16880 0.54530 0.38930 -0.13700
H 	H 	0.19100 0.50410 0.42590 0.09500
C 	C 	0.20640 0.60340 0.44950 0.08300
H 	H 	0.25260 0.60030 0.52780 -0.02400
C 	C 	0.11090 0.66740 0.29180 0.09000
H 	H 	0.09020 0.70950 0.25830 -0.02200
C 	C 	0.06840 0.61240 0.22560 -0.14000
H 	H 	0.02050 0.61740 0.14910 0.09900
C 	C 	0.08290 0.29660 0.23490 0.04900
C 	C 	0.07660 0.23940 0.17500 -0.09800
C 	C 	0.09630 0.17690 0.22880 0.05400
H 	H 	0.08750 0.13860 0.18660 0.04800
C 	C 	0.12880 0.17050 0.34410 -0.12000
C 	C 	0.14280 0.22900 0.40750 0.05000
H 	H 	0.16780 0.22620 0.48630 0.03300
C 	C 	0.11920 0.28980 0.35240 -0.10700
H 	H 	0.12780 0.32800 0.39460 0.07400
N 	N 	0.71470 0.46880 0.70590 -0.25600
H 	H 	0.66760 0.47540 0.63960 0.17000
N 	N 	0.98290 0.49320 0.09830 -0.12900
N 	N 	0.18030 0.66480 0.40180 -0.29100
O 	O 	0.07920 0.18170 0.02560 -0.27400
O 	O 	0.96060 0.24610 0.94840 -0.23100
O 	O 	0.08430 0.30270 0.03340 -0.28800
O 	O 	0.08500 0.07310 0.39760 -0.22000
O 	O 	0.20190 0.10100 0.53340 -0.28400
O 	O 	0.15540 0.04590 0.35110 -0.30600
S 	S 	0.04771 0.24310 0.03443 0.45100
S 	S 	0.15460 0.09146 0.41220 0.58900
C 	C 	0.66830 0.98790 0.11900 -0.15900
H 	H 	0.63890 0.95120 0.07090 0.09500
C 	C 	0.74230 0.97900 0.22560 0.13900
H 	H 	0.76310 0.93590 0.25080 0.00200
C 	C 	0.75740 0.09210 0.26270 0.14100
H 	H 	0.78840 0.12780 0.31220 -0.01300
C 	C 	0.68260 0.10390 0.15700 -0.16400
H 	H 	0.66280 0.14750 0.13570 0.08300
C 	C 	0.63730 0.05180 0.08300 0.05500
C 	C 	0.55600 0.06180 0.96490 0.11500
C 	C 	0.52320 0.12560 0.92490 -0.15600
H 	H 	0.55190 0.16270 0.97200 0.11500
C 	C 	0.44890 0.13430 0.81670 0.09400
C 	C 	0.40880 0.07820 0.75190 -0.14600
H 	H 	0.35790 0.08190 0.67870 0.09600
C 	C 	0.44470 0.01470 0.79610 0.08700
C 	C 	0.40210 0.95260 0.72590 0.07000
C 	C 	0.33120 0.95470 0.61070 -0.14000
H 	H 	0.30900 0.99590 0.57410 0.09500
C 	C 	0.29360 0.89660 0.55050 0.08400
H 	H 	0.24740 0.89970 0.47220 -0.02600
C 	C 	0.38910 0.83260 0.70820 0.09300
H 	H 	0.40980 0.79050 0.74170 -0.01800
C 	C 	0.43160 0.88760 0.77440 -0.14400
H 	H 	0.47950 0.88260 0.85090 0.11400
C 	C 	0.41710 0.20340 0.76510 0.04900
C 	C 	0.42340 0.26060 0.82500 -0.10800
C 	C 	0.40370 0.32310 0.77120 0.06100
H 	H 	0.41250 0.36140 0.81340 0.05000
C 	C 	0.37120 0.32950 0.65590 -0.12200
C 	C 	0.35720 0.27100 0.59250 0.05200
H 	H 	0.33220 0.27380 0.51370 0.03200
C 	C 	0.38080 0.21020 0.64760 -0.10800
H 	H 	0.37220 0.17200 0.60540 0.07400
N 	N 	0.78530 0.03120 0.29410 -0.23600
H 	H 	0.83240 0.02460 0.36040 0.16400
N 	N 	0.51710 0.00680 0.90170 -0.12800
N 	N 	0.31970 0.83520 0.59820 -0.29200
O 	O 	0.42080 0.31830 0.97440 -0.26600
O 	O 	0.53940 0.25390 0.05160 -0.29700
O 	O 	0.41570 0.19730 0.96660 -0.28000
O 	O 	0.41500 0.42690 0.60240 -0.22000
O 	O 	0.29810 0.39900 0.46660 -0.28500
O 	O 	0.34460 0.45410 0.64890 -0.30300
S 	S 	0.45229 0.25690 0.96557 0.52600
S 	S 	0.34540 0.40854 0.58780 0.58900
Zn	Zn	0.25000 0.75000 0.50000 1.12200
C 	C 	0.33170 0.01210 0.88100 -0.22400
H 	H 	0.36110 0.04880 0.92910 0.13800
C 	C 	0.25770 0.02100 0.77440 0.18600
H 	H 	0.23690 0.06410 0.74920 -0.01100
C 	C 	0.24260 0.90790 0.73730 0.18600
H 	H 	0.21160 0.87220 0.68780 -0.02700
C 	C 	0.31740 0.89610 0.84300 -0.23400
H 	H 	0.33720 0.85250 0.86430 0.12500
C 	C 	0.36270 0.94820 0.91700 0.17300
C 	C 	0.44400 0.93820 0.03510 0.01300
C 	C 	0.47680 0.87440 0.07510 -0.10400
H 	H 	0.44810 0.83730 0.02800 0.07200
C 	C 	0.55110 0.86570 0.18330 0.06600
C 	C 	0.59120 0.92180 0.24810 -0.12800
H 	H 	0.64210 0.91810 0.32130 0.08900
C 	C 	0.55530 0.98530 0.20390 0.07400
C 	C 	0.59790 0.04740 0.27410 0.07300
C 	C 	0.66880 0.04530 0.38930 -0.14000
H 	H 	0.69100 0.00410 0.42590 0.09700
C 	C 	0.70640 0.10340 0.44950 0.08500
H 	H 	0.75260 0.10030 0.52780 -0.02500
C 	C 	0.61090 0.16740 0.29180 0.09100
H 	H 	0.59020 0.20950 0.25830 -0.02300
C 	C 	0.56840 0.11240 0.22560 -0.14400
H 	H 	0.52050 0.11740 0.14910 0.09800
C 	C 	0.58290 0.79660 0.23490 0.05200
C 	C 	0.57660 0.73940 0.17500 -0.09900
C 	C 	0.59630 0.67690 0.22880 0.05500
H 	H 	0.58750 0.63860 0.18660 0.04700
C 	C 	0.62880 0.67050 0.34410 -0.12200
C 	C 	0.64280 0.72900 0.40750 0.05200
H 	H 	0.66780 0.72620 0.48630 0.03300
C 	C 	0.61920 0.78980 0.35240 -0.11000
H 	H 	0.62780 0.82800 0.39460 0.07500
N 	N 	0.21470 0.96880 0.70590 -0.25700
H 	H 	0.16760 0.97540 0.63960 0.17000
N 	N 	0.48290 0.99320 0.09830 -0.12400
N 	N 	0.68030 0.16480 0.40180 -0.29200
O 	O 	0.57920 0.68170 0.02560 -0.27400
O 	O 	0.46060 0.74610 0.94840 -0.22600
O 	O 	0.58430 0.80270 0.03340 -0.28900
O 	O 	0.58500 0.57310 0.39760 -0.22200
O 	O 	0.70190 0.60100 0.53340 -0.28500
O 	O 	0.65540 0.54590 0.35110 -0.30700
S 	S 	0.54771 0.74310 0.03443 0.44500
S 	S 	0.65460 0.59146 0.41220 0.59000
C 	C 	0.16830 0.48790 0.11900 -0.16000
H 	H 	0.13890 0.45120 0.07090 0.09700
C 	C 	0.24230 0.47900 0.22560 0.14200
H 	H 	0.26310 0.43590 0.25080 0.00100
C 	C 	0.25740 0.59210 0.26270 0.14300
H 	H 	0.28840 0.62780 0.31220 -0.01300
C 	C 	0.18260 0.60390 0.15700 -0.16600
H 	H 	0.16280 0.64750 0.13570 0.08400
C 	C 	0.13730 0.55180 0.08300 0.05800
C 	C 	0.05600 0.56180 0.96490 0.11000
C 	C 	0.02320 0.62560 0.92490 -0.14400
H 	H 	0.05190 0.66270 0.97200 0.11100
C 	C 	0.94890 0.63430 0.81670 0.08300
C 	C 	0.90880 0.57820 0.75190 -0.13800
H 	H 	0.85790 0.58190 0.67870 0.09300
C 	C 	0.94470 0.51470 0.79610 0.07800
C 	C 	0.90210 0.45260 0.72590 0.07500
C 	C 	0.83120 0.45470 0.61070 -0.14300
H 	H 	0.80900 0.49590 0.57410 0.09700
C 	C 	0.79360 0.39660 0.55050 0.08600
H 	H 	0.74740 0.39970 0.47220 -0.02700
C 	C 	0.88910 0.33260 0.70820 0.09400
H 	H 	0.90980 0.29050 0.74170 -0.01900
C 	C 	0.93160 0.38760 0.77440 -0.14800
H 	H 	0.97950 0.38260 0.85090 0.11300
C 	C 	0.91710 0.70340 0.76510 0.05200
C 	C 	0.92340 0.76060 0.82500 -0.11000
C 	C 	0.90370 0.82310 0.77120 0.06200
H 	H 	0.91250 0.86140 0.81340 0.04900
C 	C 	0.87120 0.82950 0.65590 -0.12400
C 	C 	0.85720 0.77100 0.59250 0.05400
H 	H 	0.83220 0.77380 0.51370 0.03100
C 	C 	0.88080 0.71020 0.64760 -0.11100
H 	H 	0.87220 0.67200 0.60540 0.07400
N 	N 	0.28530 0.53120 0.29410 -0.23700
H 	H 	0.33240 0.52460 0.36040 0.16500
N 	N 	0.01710 0.50680 0.90170 -0.12300
N 	N 	0.81970 0.33520 0.59820 -0.29300
O 	O 	0.92080 0.81830 0.97440 -0.26600
O 	O 	0.03940 0.75390 0.05160 -0.29200
O 	O 	0.91570 0.69730 0.96660 -0.28000
O 	O 	0.91500 0.92690 0.60240 -0.22300
O 	O 	0.79810 0.89900 0.46660 -0.28600
O 	O 	0.84460 0.95410 0.64890 -0.30500
S 	S 	0.95229 0.75690 0.96557 0.51900
S 	S 	0.84540 0.90854 0.58780 0.59100
Zn	Zn	0.75000 0.25000 0.50000 1.12200
C 	C 	0.16830 0.51210 0.61900 -0.19500
H 	H 	0.13890 0.54880 0.57090 0.11900
C 	C 	0.24230 0.52100 0.72560 0.16600
H 	H 	0.26310 0.56410 0.75080 -0.00400
C 	C 	0.25740 0.40790 0.76270 0.16800
H 	H 	0.28840 0.37220 0.81220 -0.01900
C 	C 	0.18260 0.39610 0.65700 -0.20300
H 	H 	0.16280 0.35250 0.63570 0.10600
C 	C 	0.13730 0.44820 0.58300 0.11900
C 	C 	0.05600 0.43820 0.46490 0.06000
C 	C 	0.02320 0.37440 0.42490 -0.11800
H 	H 	0.05190 0.33730 0.47200 0.09000
C 	C 	0.94890 0.36570 0.31670 0.07100
C 	C 	0.90880 0.42180 0.25190 -0.13500
H 	H 	0.85790 0.41810 0.17870 0.09000
C 	C 	0.94470 0.48530 0.29610 0.08000
C 	C 	0.90210 0.54740 0.22590 0.05000
C 	C 	0.83120 0.54530 0.11070 -0.09400
H 	H 	0.80900 0.50410 0.07410 0.07100
C 	C 	0.79360 0.60340 0.05050 -0.00100
H 	H 	0.74740 0.60030 0.97220 0.02800
C 	C 	0.88910 0.66740 0.20820 0.07900
H 	H 	0.90980 0.70950 0.24170 -0.02000
C 	C 	0.93160 0.61240 0.27440 -0.12900
H 	H 	0.97950 0.61740 0.35090 0.09900
C 	C 	0.91710 0.29660 0.26510 0.04900
C 	C 	0.92340 0.23940 0.32500 -0.10200
C 	C 	0.90370 0.17690 0.27120 0.05000
H 	H 	0.91250 0.13860 0.31340 0.05100
C 	C 	0.87120 0.17050 0.15590 -0.11400
C 	C 	0.85720 0.22900 0.09250 0.04300
H 	H 	0.83220 0.22620 0.01370 0.02200
C 	C 	0.88080 0.28980 0.14760 -0.10900
H 	H 	0.87220 0.32800 0.10540 0.06800
N 	N 	0.28530 0.46880 0.79410 -0.24800
H 	H 	0.33240 0.47540 0.86040 0.17400
N 	N 	0.01710 0.49320 0.40170 -0.12200
N 	N 	0.81970 0.66480 0.09820 -0.28200
O 	O 	0.92080 0.18170 0.47440 -0.27000
O 	O 	0.03940 0.24610 0.55160 -0.25500
O 	O 	0.91570 0.30270 0.46660 -0.28500
O 	O 	0.91500 0.07310 0.10240 -0.22500
O 	O 	0.79810 0.10100 0.96660 -0.24800
O 	O 	0.84460 0.04590 0.14890 -0.29800
S 	S 	0.95229 0.24310 0.46557 0.47700
S 	S 	0.84540 0.09146 0.08780 0.53600
C 	C 	0.33170 0.98790 0.38100 -0.19400
H 	H 	0.36110 0.95120 0.42910 0.11700
C 	C 	0.25770 0.97900 0.27440 0.16100
H 	H 	0.23690 0.93590 0.24920 -0.00600
C 	C 	0.24260 0.09210 0.23730 0.16300
H 	H 	0.21160 0.12780 0.18780 -0.02100
C 	C 	0.31740 0.10390 0.34300 -0.20000
H 	H 	0.33720 0.14750 0.36430 0.10400
C 	C 	0.36270 0.05180 0.41700 0.11700
C 	C 	0.44400 0.06180 0.53510 0.06200
C 	C 	0.47680 0.12560 0.57510 -0.12700
H 	H 	0.44810 0.16270 0.52800 0.09200
C 	C 	0.55110 0.13430 0.68330 0.07700
C 	C 	0.59120 0.07820 0.74810 -0.13200
H 	H 	0.64210 0.08190 0.82130 0.09300
C 	C 	0.55530 0.01470 0.70390 0.07400
C 	C 	0.59790 0.95260 0.77410 0.09300
C 	C 	0.66880 0.95470 0.88930 -0.18700
H 	H 	0.69100 0.99590 0.92590 0.12000
C 	C 	0.70640 0.89660 0.94950 0.17000
H 	H 	0.75260 0.89970 0.02780 -0.07700
C 	C 	0.61090 0.83260 0.79180 0.10400
H 	H 	0.59020 0.79050 0.75830 -0.02100
C 	C 	0.56840 0.88760 0.72560 -0.15900
H 	H 	0.52050 0.88260 0.64910 0.11100
C 	C 	0.58290 0.20340 0.73490 0.05500
C 	C 	0.57660 0.26060 0.67500 -0.10700
C 	C 	0.59630 0.32310 0.72880 0.06600
H 	H 	0.58750 0.36140 0.68660 0.04600
C 	C 	0.62880 0.32950 0.84410 -0.13100
C 	C 	0.64280 0.27100 0.90750 0.06300
H 	H 	0.66780 0.27380 0.98630 0.04200
C 	C 	0.61920 0.21020 0.85240 -0.11300
H 	H 	0.62780 0.17200 0.89460 0.08100
N 	N 	0.21470 0.03120 0.20590 -0.24500
H 	H 	0.16760 0.02460 0.13960 0.16200
N 	N 	0.48290 0.00680 0.59830 -0.12400
N 	N 	0.68030 0.83520 0.90180 -0.30000
O 	O 	0.57920 0.31830 0.52560 -0.27100
O 	O 	0.46060 0.25390 0.44840 -0.26300
O 	O 	0.58430 0.19730 0.53340 -0.28500
O 	O 	0.58500 0.42690 0.89760 -0.21900
O 	O 	0.70190 0.39900 0.03340 -0.32100
O 	O 	0.65540 0.45410 0.85110 -0.31300
S 	S 	0.54771 0.25690 0.53443 0.48600
S 	S 	0.65460 0.40854 0.91220 0.64400
Zn	Zn	0.75000 0.75000 -0.00000 1.11200
C 	C 	0.66830 0.01210 0.61900 -0.19100
H 	H 	0.63890 0.04880 0.57090 0.11700
C 	C 	0.74230 0.02100 0.72560 0.16500
H 	H 	0.76310 0.06410 0.75080 -0.00400
C 	C 	0.75740 0.90790 0.76270 0.16500
H 	H 	0.78840 0.87220 0.81220 -0.01800
C 	C 	0.68260 0.89610 0.65700 -0.20000
H 	H 	0.66280 0.85250 0.63570 0.10400
C 	C 	0.63730 0.94820 0.58300 0.11400
C 	C 	0.55600 0.93820 0.46490 0.06400
C 	C 	0.52320 0.87440 0.42490 -0.13200
H 	H 	0.55190 0.83730 0.47200 0.09400
C 	C 	0.44890 0.86570 0.31670 0.08300
C 	C 	0.40880 0.92180 0.25190 -0.14100
H 	H 	0.35790 0.91810 0.17870 0.09200
C 	C 	0.44470 0.98530 0.29610 0.08700
C 	C 	0.40210 0.04740 0.22590 0.05000
C 	C 	0.33120 0.04530 0.11070 -0.09400
H 	H 	0.30900 0.00410 0.07410 0.07200
C 	C 	0.29360 0.10340 0.05050 0.00000
H 	H 	0.24740 0.10030 0.97220 0.02700
C 	C 	0.38910 0.16740 0.20820 0.08000
H 	H 	0.40980 0.20950 0.24170 -0.01900
C 	C 	0.43160 0.11240 0.27440 -0.12900
H 	H 	0.47950 0.11740 0.35090 0.10100
C 	C 	0.41710 0.79660 0.26510 0.04600
C 	C 	0.42340 0.73940 0.32500 -0.10100
C 	C 	0.40370 0.67690 0.27120 0.05000
H 	H 	0.41250 0.63860 0.31340 0.05200
C 	C 	0.37120 0.67050 0.15590 -0.11300
C 	C 	0.35720 0.72900 0.09250 0.04100
H 	H 	0.33220 0.72620 0.01370 0.02300
C 	C 	0.38080 0.78980 0.14760 -0.10600
H 	H 	0.37220 0.82800 0.10540 0.06800
N 	N 	0.78530 0.96880 0.79410 -0.24800
H 	H 	0.83240 0.97540 0.86040 0.17200
N 	N 	0.51710 0.99320 0.40170 -0.12800
N 	N 	0.31970 0.16480 0.09820 -0.28200
O 	O 	0.42080 0.68170 0.47440 -0.27000
O 	O 	0.53940 0.74610 0.55160 -0.26000
O 	O 	0.41570 0.80270 0.46660 -0.28500
O 	O 	0.41500 0.57310 0.10240 -0.22300
O 	O 	0.29810 0.60100 0.96660 -0.24900
O 	O 	0.34460 0.54590 0.14890 -0.29700
S 	S 	0.45229 0.74310 0.46557 0.48400
S 	S 	0.34540 0.59146 0.08780 0.53700
C 	C 	0.83170 0.48790 0.38100 -0.19000
H 	H 	0.86110 0.45120 0.42910 0.11500
C 	C 	0.75770 0.47900 0.27440 0.16000
H 	H 	0.73690 0.43590 0.24920 -0.00600
C 	C 	0.74260 0.59210 0.23730 0.16100
H 	H 	0.71160 0.62780 0.18780 -0.02100
C 	C 	0.81740 0.60390 0.34300 -0.19700
H 	H 	0.83720 0.64750 0.36430 0.10300
C 	C 	0.86270 0.55180 0.41700 0.11200
C 	C 	0.94400 0.56180 0.53510 0.06600
C 	C 	0.97680 0.62560 0.57510 -0.14000
H 	H 	0.94810 0.66270 0.52800 0.09500
C 	C 	0.05110 0.63430 0.68330 0.08800
C 	C 	0.09120 0.57820 0.74810 -0.13800
H 	H 	0.14210 0.58190 0.82130 0.09500
C 	C 	0.05530 0.51470 0.70390 0.07900
C 	C 	0.09790 0.45260 0.77410 0.09400
C 	C 	0.16880 0.45470 0.88930 -0.18600
H 	H 	0.19100 0.49590 0.92590 0.12100
C 	C 	0.20640 0.39660 0.94950 0.16900
H 	H 	0.25260 0.39970 0.02780 -0.07700
C 	C 	0.11090 0.33260 0.79180 0.10400
H 	H 	0.09020 0.29050 0.75830 -0.02000
C 	C 	0.06840 0.38760 0.72560 -0.15900
H 	H 	0.02050 0.38260 0.64910 0.11300
C 	C 	0.08290 0.70340 0.73490 0.05200
C 	C 	0.07660 0.76060 0.67500 -0.10600
C 	C 	0.09630 0.82310 0.72880 0.06600
H 	H 	0.08750 0.86140 0.68660 0.04700
C 	C 	0.12880 0.82950 0.84410 -0.13000
C 	C 	0.14280 0.77100 0.90750 0.06100
H 	H 	0.16780 0.77380 0.98630 0.04200
C 	C 	0.11920 0.71020 0.85240 -0.11000
H 	H 	0.12780 0.67200 0.89460 0.08000
N 	N 	0.71470 0.53120 0.20590 -0.24500
H 	H 	0.66760 0.52460 0.13960 0.16100
N 	N 	0.98290 0.50680 0.59830 -0.12900
N 	N 	0.18030 0.33520 0.90180 -0.29900
O 	O 	0.07920 0.81830 0.52560 -0.27200
O 	O 	0.96060 0.75390 0.44840 -0.26800
O 	O 	0.08430 0.69730 0.53340 -0.28500
O 	O 	0.08500 0.92690 0.89760 -0.21800
O 	O 	0.20190 0.89900 0.03340 -0.31900
O 	O 	0.15540 0.95410 0.85110 -0.31300
S 	S 	0.04771 0.75690 0.53443 0.49300
S 	S 	0.15460 0.90854 0.91220 0.64100
Zn	Zn	0.25000 0.25000 -0.00000 1.11300
