data_crystal

_cell_length_a 10.21400
_cell_length_b 14.06400
_cell_length_c 14.28200
_cell_angle_alpha 75.12700
_cell_angle_beta  87.91700
_cell_angle_gamma 79.52000

_symmetry_space_group_name_	'P 1'
_symmetry_space_group_name_H-M	'P 1'

loop_
_symmetry_equiv_pos_as_xyz
  x,y,z

loop_
_atom_site_label
_atom_site_type_symbol
_atom_site_fract_x
_atom_site_fract_y
_atom_site_fract_z
_atom_site_charge
Rh	Rh	0.51211 0.04873 0.55655 0.90000
Rh	Rh	0.51124 0.44435 0.94702 0.90200
F 	F 	0.10850 0.25330 0.43700 -0.37600
F 	F 	0.08310 0.16570 0.34320 -0.33900
F 	F 	0.04370 0.11370 0.49410 -0.40400
F 	F 	0.69540 0.26820 0.30720 -0.40000
F 	F 	0.81460 0.13750 0.28950 -0.38200
F 	F 	0.64550 0.19860 0.20360 -0.44000
F 	F 	0.08950 0.58940 0.82290 -0.35100
F 	F 	0.03570 0.59670 0.96520 -0.36500
F 	F 	0.09540 0.71740 0.87200 -0.36600
F 	F 	0.34870 0.20710 0.19150 -0.39900
F 	F 	0.19710 0.33370 0.19940 -0.35500
F 	F 	0.36450 0.29010 0.29420 -0.41400
O 	O 	0.32830 0.12900 0.51530 -0.22000
O 	O 	0.30330 0.03780 0.40690 -0.20300
O 	O 	0.59990 0.14150 0.44800 -0.20700
O 	O 	0.57480 0.04950 0.34300 -0.23800
O 	O 	0.32500 0.50950 0.89730 -0.20700
O 	O 	0.30470 0.61610 0.99310 -0.21300
O 	O 	0.42850 0.34620 0.05250 -0.22300
O 	O 	0.40780 0.45210 0.15160 -0.21800
N 	N 	0.52810 0.13460 0.66660 -0.16200
N 	N 	0.52250 0.33380 0.85610 -0.17200
C 	C 	0.26590 0.10430 0.45260 0.16800
C 	C 	0.11870 0.16130 0.43220 0.90300
C 	C 	0.61170 0.11820 0.36830 0.16500
C 	C 	0.69360 0.18250 0.28980 0.92500
C 	C 	0.52480 0.14890 0.73700 0.23600
C 	C 	0.52160 0.15650 0.83910 -0.06600
C 	C 	0.52460 0.26360 0.84430 0.24300
C 	C 	0.50900 0.08120 0.91710 0.04200
C 	C 	0.50210 0.09850 0.01380 0.08900
C 	C 	0.49080 0.01990 0.09380 0.09400
C 	C 	0.26060 0.57940 0.93280 0.14100
C 	C 	0.12180 0.62220 0.89520 0.89100
C 	C 	0.39520 0.37230 0.13080 0.16000
C 	C 	0.32500 0.30000 0.20620 0.86200
Rh	Rh	0.48789 0.95127 0.44345 0.89900
Rh	Rh	0.48876 0.55565 0.05298 0.90100
F 	F 	0.89150 0.74670 0.56300 -0.37600
F 	F 	0.91690 0.83430 0.65680 -0.33900
F 	F 	0.95630 0.88630 0.50590 -0.40400
F 	F 	0.30460 0.73180 0.69280 -0.40000
F 	F 	0.18540 0.86250 0.71050 -0.38200
F 	F 	0.35450 0.80140 0.79640 -0.44000
F 	F 	0.91050 0.41060 0.17710 -0.35100
F 	F 	0.96430 0.40330 0.03480 -0.36500
F 	F 	0.90460 0.28260 0.12800 -0.36600
F 	F 	0.65130 0.79290 0.80850 -0.39900
F 	F 	0.80290 0.66630 0.80060 -0.35500
F 	F 	0.63550 0.70990 0.70580 -0.41400
O 	O 	0.67170 0.87100 0.48470 -0.22000
O 	O 	0.69670 0.96220 0.59310 -0.20300
O 	O 	0.40010 0.85850 0.55200 -0.20700
O 	O 	0.42520 0.95050 0.65700 -0.23800
O 	O 	0.67500 0.49050 0.10270 -0.20700
O 	O 	0.69530 0.38390 0.00690 -0.21300
O 	O 	0.57150 0.65380 0.94750 -0.22300
O 	O 	0.59220 0.54790 0.84840 -0.21800
N 	N 	0.47190 0.86540 0.33340 -0.16200
N 	N 	0.47750 0.66620 0.14390 -0.17200
C 	C 	0.73410 0.89570 0.54740 0.16800
C 	C 	0.88130 0.83870 0.56780 0.90300
C 	C 	0.38830 0.88180 0.63170 0.16500
C 	C 	0.30640 0.81750 0.71020 0.92500
C 	C 	0.47520 0.85110 0.26300 0.23600
C 	C 	0.47840 0.84350 0.16090 -0.06600
C 	C 	0.47540 0.73640 0.15570 0.24300
C 	C 	0.49100 0.91880 0.08290 0.04200
C 	C 	0.49790 0.90150 0.98620 0.08900
C 	C 	0.50920 0.98010 0.90620 0.09400
C 	C 	0.73940 0.42060 0.06720 0.14100
C 	C 	0.87820 0.37780 0.10480 0.89100
C 	C 	0.60480 0.62770 0.86920 0.16000
C 	C 	0.67500 0.70000 0.79380 0.86200
