data_crystal

_cell_length_a 17.67900
_cell_length_b 27.13400
_cell_length_c 6.91130
_cell_angle_alpha 90.00000
_cell_angle_beta  94.22200
_cell_angle_gamma 90.00000

_symmetry_space_group_name_	'P 1'
_symmetry_space_group_name_H-M	'P 1'

loop_
_symmetry_equiv_pos_as_xyz
  x,y,z

loop_
_atom_site_label
_atom_site_type_symbol
_atom_site_fract_x
_atom_site_fract_y
_atom_site_fract_z
_atom_site_charge
N 	N 	0.43714 0.08373 0.27790 -0.28900
N 	N 	0.55225 0.19391 0.19470 -0.25600
H 	H 	0.54190 0.22490 0.18820 0.12300
C 	C 	0.49290 0.16262 0.24330 0.11100
C 	C 	0.49540 0.11184 0.23090 -0.05400
H 	H 	0.53860 0.09680 0.18900 -0.02100
C 	C 	0.37510 0.10561 0.33990 0.01800
H 	H 	0.33560 0.08590 0.37700 -0.05300
C 	C 	0.36760 0.15575 0.35060 -0.04400
H 	H 	0.32320 0.16980 0.38950 0.04600
C 	C 	0.42710 0.18514 0.30280 -0.09800
H 	H 	0.42370 0.21930 0.30990 0.05600
O 	O 	0.64696 0.13832 0.15940 -0.31000
C 	C 	0.62380 0.18092 0.15680 0.31700
C 	C 	0.67600 0.22358 0.12110 -0.38500
H 	H 	0.64700 0.25100 0.06410 0.12800
H 	H 	0.71310 0.21370 0.03180 0.14000
C 	C 	0.71620 0.23921 0.31450 0.11900
C 	C 	0.68240 0.27224 0.43560 -0.10100
H 	H 	0.63670 0.28700 0.39350 0.04900
C 	C 	0.78410 0.21652 0.38130 -0.09900
H 	H 	0.80700 0.19390 0.30320 0.05000
N 	N 	0.06286 0.58373 0.72210 -0.28400
N 	N 	0.94775 0.69391 0.80530 -0.25700
H 	H 	0.95810 0.72490 0.81180 0.12300
C 	C 	0.00710 0.66262 0.75670 0.11200
C 	C 	0.00460 0.61184 0.76910 -0.05600
H 	H 	0.96140 0.59680 0.81100 -0.01700
C 	C 	0.12490 0.60561 0.66010 0.01700
H 	H 	0.16440 0.58590 0.62300 -0.04700
C 	C 	0.13240 0.65575 0.64940 -0.04200
H 	H 	0.17680 0.66980 0.61050 0.04500
C 	C 	0.07290 0.68514 0.69720 -0.10000
H 	H 	0.07630 0.71930 0.69010 0.05700
O 	O 	0.85304 0.63832 0.84060 -0.30500
C 	C 	0.87620 0.68092 0.84320 0.31700
C 	C 	0.82400 0.72358 0.87890 -0.38600
H 	H 	0.85300 0.75100 0.93590 0.13000
H 	H 	0.78690 0.71370 0.96820 0.14100
C 	C 	0.78380 0.73921 0.68550 0.12100
C 	C 	0.81760 0.77224 0.56440 -0.10100
H 	H 	0.86330 0.78700 0.60650 0.05100
C 	C 	0.71590 0.71652 0.61870 -0.09900
H 	H 	0.69300 0.69390 0.69680 0.05300
N 	N 	0.06286 0.41627 0.72210 -0.28500
N 	N 	0.94775 0.30609 0.80530 -0.25700
H 	H 	0.95810 0.27510 0.81180 0.12100
C 	C 	0.00710 0.33738 0.75670 0.11100
C 	C 	0.00460 0.38816 0.76910 -0.05500
H 	H 	0.96140 0.40320 0.81100 -0.01700
C 	C 	0.12490 0.39439 0.66010 0.01700
H 	H 	0.16440 0.41410 0.62300 -0.04700
C 	C 	0.13240 0.34425 0.64940 -0.04300
H 	H 	0.17680 0.33020 0.61050 0.04600
C 	C 	0.07290 0.31486 0.69720 -0.09900
H 	H 	0.07630 0.28070 0.69010 0.05500
O 	O 	0.85304 0.36168 0.84060 -0.30500
C 	C 	0.87620 0.31908 0.84320 0.31600
C 	C 	0.82400 0.27642 0.87890 -0.38300
H 	H 	0.85300 0.24900 0.93590 0.12600
H 	H 	0.78690 0.28630 0.96820 0.14000
C 	C 	0.78380 0.26079 0.68550 0.11900
C 	C 	0.81760 0.22776 0.56440 -0.10100
H 	H 	0.86330 0.21300 0.60650 0.04700
C 	C 	0.71590 0.28348 0.61870 -0.09800
H 	H 	0.69300 0.30610 0.69680 0.05200
N 	N 	0.43714 0.91627 0.27790 -0.27400
N 	N 	0.55225 0.80609 0.19470 -0.25700
H 	H 	0.54190 0.77510 0.18820 0.12200
C 	C 	0.49290 0.83738 0.24330 0.11300
C 	C 	0.49540 0.88816 0.23090 -0.05500
H 	H 	0.53860 0.90320 0.18900 -0.01000
C 	C 	0.37510 0.89439 0.33990 0.01700
H 	H 	0.33560 0.91410 0.37700 -0.03600
C 	C 	0.36760 0.84425 0.35060 -0.03900
H 	H 	0.32320 0.83020 0.38950 0.04600
C 	C 	0.42710 0.81486 0.30280 -0.10000
H 	H 	0.42370 0.78070 0.30990 0.05700
O 	O 	0.64696 0.86168 0.15940 -0.29900
C 	C 	0.62380 0.81908 0.15680 0.31500
C 	C 	0.67600 0.77642 0.12110 -0.38300
H 	H 	0.64700 0.74900 0.06410 0.12700
H 	H 	0.71310 0.78630 0.03180 0.14100
C 	C 	0.71620 0.76079 0.31450 0.11900
C 	C 	0.68240 0.72776 0.43560 -0.10000
H 	H 	0.63670 0.71300 0.39350 0.04900
C 	C 	0.78410 0.78348 0.38130 -0.09800
H 	H 	0.80700 0.80610 0.30320 0.05500
Cd	Cd	0.44310 -0.00000 0.24340 1.05000
Cd	Cd	0.05690 0.50000 0.75660 1.06500
N 	N 	0.93714 0.58373 0.27790 -0.28400
N 	N 	0.05225 0.69391 0.19470 -0.25700
H 	H 	0.04190 0.72490 0.18820 0.12300
C 	C 	0.99290 0.66262 0.24330 0.11200
C 	C 	0.99540 0.61184 0.23090 -0.05600
H 	H 	0.03860 0.59680 0.18900 -0.01700
C 	C 	0.87510 0.60561 0.33990 0.01700
H 	H 	0.83560 0.58590 0.37700 -0.04700
C 	C 	0.86760 0.65575 0.35060 -0.04200
H 	H 	0.82320 0.66980 0.38950 0.04500
C 	C 	0.92710 0.68514 0.30280 -0.10000
H 	H 	0.92370 0.71930 0.30990 0.05700
O 	O 	0.14696 0.63832 0.15940 -0.30500
C 	C 	0.12380 0.68092 0.15680 0.31700
C 	C 	0.17600 0.72358 0.12110 -0.38600
H 	H 	0.14700 0.75100 0.06410 0.13000
H 	H 	0.21310 0.71370 0.03180 0.14100
C 	C 	0.21620 0.73921 0.31450 0.12100
C 	C 	0.18240 0.77224 0.43560 -0.10100
H 	H 	0.13670 0.78700 0.39350 0.05100
C 	C 	0.28410 0.71652 0.38130 -0.09900
H 	H 	0.30700 0.69390 0.30320 0.05300
N 	N 	0.56286 0.08373 0.72210 -0.29000
N 	N 	0.44775 0.19391 0.80530 -0.25700
H 	H 	0.45810 0.22490 0.81180 0.12200
C 	C 	0.50710 0.16262 0.75670 0.11000
C 	C 	0.50460 0.11184 0.76910 -0.05500
H 	H 	0.46140 0.09680 0.81100 -0.02200
C 	C 	0.62490 0.10561 0.66010 0.01700
H 	H 	0.66440 0.08590 0.62300 -0.05400
C 	C 	0.63240 0.15575 0.64940 -0.04500
H 	H 	0.67680 0.16980 0.61050 0.04500
C 	C 	0.57290 0.18514 0.69720 -0.09800
H 	H 	0.57630 0.21930 0.69010 0.05600
O 	O 	0.35304 0.13832 0.84060 -0.31000
C 	C 	0.37620 0.18092 0.84320 0.31700
C 	C 	0.32400 0.22358 0.87890 -0.38500
H 	H 	0.35300 0.25100 0.93590 0.12800
H 	H 	0.28690 0.21370 0.96820 0.14000
C 	C 	0.28380 0.23921 0.68550 0.11900
C 	C 	0.31760 0.27224 0.56440 -0.10100
H 	H 	0.36330 0.28700 0.60650 0.04900
C 	C 	0.21590 0.21652 0.61870 -0.09900
H 	H 	0.19300 0.19390 0.69680 0.05000
N 	N 	0.56286 0.91627 0.72210 -0.27400
N 	N 	0.44775 0.80609 0.80530 -0.25700
H 	H 	0.45810 0.77510 0.81180 0.12200
C 	C 	0.50710 0.83738 0.75670 0.11300
C 	C 	0.50460 0.88816 0.76910 -0.05500
H 	H 	0.46140 0.90320 0.81100 -0.01000
C 	C 	0.62490 0.89439 0.66010 0.01700
H 	H 	0.66440 0.91410 0.62300 -0.03600
C 	C 	0.63240 0.84425 0.64940 -0.03900
H 	H 	0.67680 0.83020 0.61050 0.04600
C 	C 	0.57290 0.81486 0.69720 -0.10000
H 	H 	0.57630 0.78070 0.69010 0.05700
O 	O 	0.35304 0.86168 0.84060 -0.29900
C 	C 	0.37620 0.81908 0.84320 0.31500
C 	C 	0.32400 0.77642 0.87890 -0.38300
H 	H 	0.35300 0.74900 0.93590 0.12700
H 	H 	0.28690 0.78630 0.96820 0.14100
C 	C 	0.28380 0.76079 0.68550 0.11900
C 	C 	0.31760 0.72776 0.56440 -0.10000
H 	H 	0.36330 0.71300 0.60650 0.04900
C 	C 	0.21590 0.78348 0.61870 -0.09800
H 	H 	0.19300 0.80610 0.69680 0.05500
N 	N 	0.93714 0.41627 0.27790 -0.28500
N 	N 	0.05225 0.30609 0.19470 -0.25700
H 	H 	0.04190 0.27510 0.18820 0.12100
C 	C 	0.99290 0.33738 0.24330 0.11100
C 	C 	0.99540 0.38816 0.23090 -0.05500
H 	H 	0.03860 0.40320 0.18900 -0.01700
C 	C 	0.87510 0.39439 0.33990 0.01700
H 	H 	0.83560 0.41410 0.37700 -0.04700
C 	C 	0.86760 0.34425 0.35060 -0.04300
H 	H 	0.82320 0.33020 0.38950 0.04600
C 	C 	0.92710 0.31486 0.30280 -0.09900
H 	H 	0.92370 0.28070 0.30990 0.05500
O 	O 	0.14696 0.36168 0.15940 -0.30500
C 	C 	0.12380 0.31908 0.15680 0.31600
C 	C 	0.17600 0.27642 0.12110 -0.38300
H 	H 	0.14700 0.24900 0.06410 0.12600
H 	H 	0.21310 0.28630 0.03180 0.14000
C 	C 	0.21620 0.26079 0.31450 0.11900
C 	C 	0.18240 0.22776 0.43560 -0.10100
H 	H 	0.13670 0.21300 0.39350 0.04700
C 	C 	0.28410 0.28348 0.38130 -0.09800
H 	H 	0.30700 0.30610 0.30320 0.05200
Cd	Cd	0.94310 0.50000 0.24340 1.06500
Cd	Cd	0.55690 0.00000 0.75660 1.05000
