data_crystal

_cell_length_a 8.61470
_cell_length_b 16.54840
_cell_length_c 9.36910
_cell_angle_alpha 90.00000
_cell_angle_beta  93.61700
_cell_angle_gamma 90.00000

_symmetry_space_group_name_	'P 1'
_symmetry_space_group_name_H-M	'P 1'

loop_
_symmetry_equiv_pos_as_xyz
  x,y,z

loop_
_atom_site_label
_atom_site_type_symbol
_atom_site_fract_x
_atom_site_fract_y
_atom_site_fract_z
_atom_site_charge
C 	C 	0.32410 0.17820 0.50050 0.09400
H 	H 	0.41060 0.20750 0.46950 -0.02400
C 	C 	0.16970 0.08140 0.55100 -0.01600
H 	H 	0.12880 0.02850 0.56040 -0.01800
C 	C 	0.09850 0.15010 0.59050 0.00600
H 	H 	0.00140 0.15440 0.63250 0.01100
C 	C 	0.17410 0.29670 0.57950 0.17000
C 	C 	0.07630 0.32230 0.68310 -0.20200
H 	H 	0.02340 0.28470 0.73930 0.10300
C 	C 	0.05940 0.40410 0.70080 0.11300
H 	H 	0.99260 0.42420 0.76950 -0.01600
C 	C 	0.14050 0.45780 0.61760 -0.20600
H 	H 	0.13160 0.51470 0.62840 0.09200
C 	C 	0.23420 0.42430 0.51900 0.16800
C 	C 	0.40320 0.44690 0.31640 0.09600
H 	H 	0.42370 0.39170 0.29700 -0.01900
C 	C 	0.31680 0.55750 0.41790 0.00800
H 	H 	0.26570 0.59350 0.47840 0.01900
C 	C 	0.40390 0.57730 0.30820 -0.01200
H 	H 	0.42740 0.63080 0.27970 0.00400
N 	N 	0.31050 0.09920 0.49500 -0.25700
N 	N 	0.19650 0.21290 0.55700 -0.14700
N 	N 	0.25200 0.34500 0.49830 -0.16700
N 	N 	0.31700 0.47400 0.42410 -0.14500
N 	N 	0.45310 0.50790 0.24430 -0.24900
C 	C 	0.67590 0.67820 0.99950 0.19900
H 	H 	0.58940 0.70750 0.03050 -0.08000
C 	C 	0.83030 0.58140 0.94900 0.02400
H 	H 	0.87120 0.52850 0.93960 -0.00300
C 	C 	0.90150 0.65010 0.90950 -0.00100
H 	H 	0.99860 0.65440 0.86750 0.01900
C 	C 	0.82590 0.79670 0.92050 0.19700
C 	C 	0.92370 0.82230 0.81690 -0.18700
H 	H 	0.97660 0.78470 0.76070 0.09200
C 	C 	0.94060 0.90410 0.79920 0.06000
H 	H 	0.00740 0.92420 0.73050 0.01200
C 	C 	0.85950 0.95780 0.88240 -0.10300
H 	H 	0.86840 0.01470 0.87160 0.03200
C 	C 	0.76580 0.92430 0.98100 0.19400
C 	C 	0.59680 0.94690 0.18360 0.15300
H 	H 	0.57630 0.89170 0.20300 -0.03600
C 	C 	0.68320 0.05750 0.08210 -0.05700
H 	H 	0.73430 0.09350 0.02160 0.02100
C 	C 	0.59610 0.07730 0.19180 0.00400
H 	H 	0.57260 0.13080 0.22030 -0.00500
N 	N 	0.68950 0.59920 0.00500 -0.30300
N 	N 	0.80350 0.71290 0.94300 -0.16100
N 	N 	0.74800 0.84500 0.00170 -0.20300
N 	N 	0.68300 0.97400 0.07590 -0.13800
N 	N 	0.54690 0.00790 0.25570 -0.28700
C 	C 	0.67590 0.82180 0.49950 0.09500
H 	H 	0.58940 0.79250 0.53050 -0.02000
C 	C 	0.83030 0.91860 0.44900 -0.01700
H 	H 	0.87120 0.97150 0.43960 0.01900
C 	C 	0.90150 0.84990 0.40950 0.01200
H 	H 	0.99860 0.84560 0.36750 0.01200
C 	C 	0.82590 0.70330 0.42050 0.16600
C 	C 	0.92370 0.67770 0.31690 -0.20000
H 	H 	0.97660 0.71530 0.26070 0.08900
C 	C 	0.94060 0.59590 0.29920 0.09800
H 	H 	0.00740 0.57580 0.23050 -0.02100
C 	C 	0.85950 0.54220 0.38240 -0.20300
H 	H 	0.86840 0.48530 0.37160 0.08700
C 	C 	0.76580 0.57570 0.48100 0.16500
C 	C 	0.59680 0.55310 0.68360 0.09800
H 	H 	0.57630 0.60830 0.70300 -0.01600
C 	C 	0.68320 0.44250 0.58210 0.00900
H 	H 	0.73430 0.40650 0.52160 0.01700
C 	C 	0.59610 0.42270 0.69180 -0.00900
H 	H 	0.57260 0.36920 0.72030 0.00900
N 	N 	0.68950 0.90080 0.50500 -0.24000
N 	N 	0.80350 0.78710 0.44300 -0.14800
N 	N 	0.74800 0.65500 0.50170 -0.16600
N 	N 	0.68300 0.52600 0.57590 -0.14500
N 	N 	0.54690 0.49210 0.75570 -0.24000
C 	C 	0.32410 0.32180 0.00050 -0.01300
H 	H 	0.41060 0.29250 0.96950 0.03900
C 	C 	0.16970 0.41860 0.05100 -0.05900
H 	H 	0.12880 0.47150 0.06040 0.00300
C 	C 	0.09850 0.34990 0.09050 0.01900
H 	H 	0.00140 0.34560 0.13250 0.00300
C 	C 	0.17410 0.20330 0.07950 0.13500
C 	C 	0.07630 0.17770 0.18310 -0.20900
H 	H 	0.02340 0.21530 0.23930 0.09600
C 	C 	0.05940 0.09590 0.20080 0.14200
H 	H 	0.99260 0.07580 0.26950 -0.04500
C 	C 	0.14050 0.04220 0.11760 -0.29900
H 	H 	0.13160 0.98530 0.12840 0.14400
C 	C 	0.23420 0.07570 0.01900 0.13300
C 	C 	0.40320 0.05310 0.81640 0.04200
H 	H 	0.42370 0.10830 0.79700 0.00100
C 	C 	0.31680 0.94250 0.91790 0.07100
H 	H 	0.26570 0.90650 0.97840 0.01700
C 	C 	0.40390 0.92270 0.80820 -0.02400
H 	H 	0.42740 0.86920 0.77970 0.01800
N 	N 	0.31050 0.40080 0.99500 -0.19300
N 	N 	0.19650 0.28710 0.05700 -0.13400
N 	N 	0.25200 0.15500 0.99830 -0.12500
N 	N 	0.31700 0.02600 0.92410 -0.14800
N 	N 	0.45310 0.99210 0.74430 -0.20100
Cd	Cd	0.50000 0.00000 0.50000 1.14100
Cd	Cd	0.50000 0.50000 -0.00000 1.14600
