data_crystal

_cell_length_a 19.76230
_cell_length_b 21.37470
_cell_length_c 8.36900
_cell_angle_alpha 90.00000
_cell_angle_beta  112.17100
_cell_angle_gamma 90.00000

_symmetry_space_group_name_	'P 1'
_symmetry_space_group_name_H-M	'P 1'

loop_
_symmetry_equiv_pos_as_xyz
  x,y,z

loop_
_atom_site_label
_atom_site_type_symbol
_atom_site_fract_x
_atom_site_fract_y
_atom_site_fract_z
_atom_site_charge
Zn	Zn	0.25861 0.00732 0.40768 1.19500
C 	C 	0.36920 0.04510 0.69020 0.26400
C 	C 	0.43720 0.04460 0.85280 -0.12000
C 	C 	0.46920 0.98840 0.92750 0.04400
H 	H 	0.44830 0.95070 0.87780 0.04300
C 	C 	0.46860 0.09970 0.92830 -0.01600
H 	H 	0.44680 0.13750 0.88130 0.05400
C 	C 	0.11690 0.02150 0.37880 0.32500
C 	C 	0.05780 0.02490 0.44170 -0.08500
C 	C 	0.07090 0.02490 0.61240 -0.01700
H 	H 	0.11910 0.02450 0.69090 0.04100
C 	C 	0.98360 0.02530 0.32700 -0.03300
H 	H 	0.97230 0.02580 0.20860 0.05200
C 	C 	0.19700 0.89170 0.19340 0.14400
H 	H 	0.16110 0.91370 0.10660 -0.00400
C 	C 	0.26300 0.81530 0.33690 0.02500
H 	H 	0.28240 0.77560 0.37180 0.02900
C 	C 	0.28600 0.86880 0.41750 -0.00500
H 	H 	0.32540 0.87300 0.52190 0.03600
C 	C 	0.16120 0.78690 0.06170 0.24700
C 	C 	0.09350 0.80420 0.95310 -0.28700
H 	H 	0.07420 0.84290 0.96390 0.14700
C 	C 	0.05250 0.76100 0.82090 0.23300
C 	C 	0.96020 0.83940 0.64770 0.02200
H 	H 	0.98770 0.87550 0.68580 0.04300
C 	C 	0.89320 0.83650 0.53230 -0.00500
H 	H 	0.86610 0.87070 0.47360 0.05300
C 	C 	0.92690 0.74230 0.61740 0.10200
H 	H 	0.92850 0.69910 0.63040 0.00800
C 	C 	0.08290 0.70650 0.79680 -0.28900
H 	H 	0.05830 0.68050 0.70400 0.13800
C 	C 	0.15200 0.69090 0.91490 0.23800
C 	C 	0.18640 0.61230 0.74070 0.08500
H 	H 	0.16500 0.63200 0.63440 0.00500
C 	C 	0.24580 0.54620 0.94440 0.00800
H 	H 	0.27220 0.51130 0.00030 0.01500
C 	C 	0.22290 0.59320 0.02150 0.01200
H 	H 	0.23160 0.59710 0.13830 0.04200
C 	C 	0.19160 0.73010 0.04480 -0.29400
H 	H 	0.23810 0.71890 0.12070 0.14600
N 	N 	0.24380 0.91750 0.32550 -0.24900
N 	N 	0.20470 0.83050 0.19160 -0.16900
N 	N 	0.86810 0.77350 0.51000 -0.11000
N 	N 	0.98220 0.77950 0.70210 -0.16100
N 	N 	0.22390 0.55830 0.77230 -0.26500
N 	N 	0.18560 0.63260 0.89550 -0.15300
O 	O 	0.34450 0.99410 0.62030 -0.37700
O 	O 	0.34060 0.09590 0.63640 -0.30900
O 	O 	0.18144 0.02890 0.48820 -0.46700
O 	O 	0.10525 0.01050 0.22400 -0.33200
Zn	Zn	0.75861 0.50732 0.40768 1.21200
C 	C 	0.86920 0.54510 0.69020 0.33500
C 	C 	0.93720 0.54460 0.85280 -0.06600
C 	C 	0.96920 0.48840 0.92750 -0.02300
H 	H 	0.94830 0.45070 0.87780 0.05200
C 	C 	0.96860 0.59970 0.92830 -0.02300
H 	H 	0.94680 0.63750 0.88130 0.05500
C 	C 	0.61690 0.52150 0.37880 0.32500
C 	C 	0.55780 0.52490 0.44170 -0.07400
C 	C 	0.57090 0.52490 0.61240 -0.01300
H 	H 	0.61910 0.52450 0.69090 0.04900
C 	C 	0.48360 0.52530 0.32700 -0.02700
H 	H 	0.47230 0.52580 0.20860 0.05900
C 	C 	0.69700 0.39170 0.19340 0.13900
H 	H 	0.66110 0.41370 0.10660 -0.02400
C 	C 	0.76300 0.31530 0.33690 0.02200
H 	H 	0.78240 0.27560 0.37180 0.02800
C 	C 	0.78600 0.36880 0.41750 -0.00800
H 	H 	0.82540 0.37300 0.52190 0.03100
C 	C 	0.66120 0.28690 0.06170 0.24100
C 	C 	0.59350 0.30420 0.95310 -0.28200
H 	H 	0.57420 0.34290 0.96390 0.13800
C 	C 	0.55250 0.26100 0.82090 0.22800
C 	C 	0.46020 0.33940 0.64770 0.02100
H 	H 	0.48770 0.37550 0.68580 0.02900
C 	C 	0.39320 0.33650 0.53230 -0.00700
H 	H 	0.36610 0.37070 0.47360 0.04000
C 	C 	0.42690 0.24230 0.61740 0.10200
H 	H 	0.42850 0.19910 0.63040 0.00700
C 	C 	0.58290 0.20650 0.79680 -0.28600
H 	H 	0.55830 0.18050 0.70400 0.13500
C 	C 	0.65200 0.19090 0.91490 0.23400
C 	C 	0.68640 0.11230 0.74070 0.08000
H 	H 	0.66500 0.13200 0.63440 0.00300
C 	C 	0.74580 0.04620 0.94440 0.00500
H 	H 	0.77220 0.01130 0.00030 -0.00200
C 	C 	0.72290 0.09320 0.02150 0.00500
H 	H 	0.73160 0.09710 0.13830 0.04100
C 	C 	0.69160 0.23010 0.04480 -0.29100
H 	H 	0.73810 0.21890 0.12070 0.14300
N 	N 	0.74380 0.41750 0.32550 -0.26800
N 	N 	0.70470 0.33050 0.19160 -0.16900
N 	N 	0.36810 0.27350 0.51000 -0.11100
N 	N 	0.48220 0.27950 0.70210 -0.16100
N 	N 	0.72390 0.05830 0.77230 -0.27400
N 	N 	0.68560 0.13260 0.89550 -0.15300
O 	O 	0.84450 0.49410 0.62030 -0.45800
O 	O 	0.84060 0.59590 0.63640 -0.32300
O 	O 	0.68144 0.52890 0.48820 -0.45000
O 	O 	0.60525 0.51050 0.22400 -0.31100
Zn	Zn	0.74139 0.00732 0.59232 1.19400
C 	C 	0.63080 0.04510 0.30980 0.26300
C 	C 	0.56280 0.04460 0.14720 -0.12100
C 	C 	0.53080 0.98840 0.07250 0.04300
H 	H 	0.55170 0.95070 0.12220 0.04200
C 	C 	0.53140 0.09970 0.07170 -0.01700
H 	H 	0.55320 0.13750 0.11870 0.05300
C 	C 	0.88310 0.02150 0.62120 0.32400
C 	C 	0.94220 0.02490 0.55830 -0.08500
C 	C 	0.92910 0.02490 0.38760 -0.01700
H 	H 	0.88090 0.02450 0.30910 0.04100
C 	C 	0.01640 0.02530 0.67300 -0.03300
H 	H 	0.02770 0.02580 0.79140 0.05200
C 	C 	0.80300 0.89170 0.80660 0.14400
H 	H 	0.83890 0.91370 0.89340 -0.00400
C 	C 	0.73700 0.81530 0.66310 0.02500
H 	H 	0.71760 0.77560 0.62820 0.02900
C 	C 	0.71400 0.86880 0.58250 -0.00500
H 	H 	0.67460 0.87300 0.47810 0.03600
C 	C 	0.83880 0.78690 0.93830 0.24700
C 	C 	0.90650 0.80420 0.04690 -0.28700
H 	H 	0.92580 0.84290 0.03610 0.14700
C 	C 	0.94750 0.76100 0.17910 0.23300
C 	C 	0.03980 0.83940 0.35230 0.02200
H 	H 	0.01230 0.87550 0.31420 0.04300
C 	C 	0.10680 0.83650 0.46770 -0.00500
H 	H 	0.13390 0.87070 0.52640 0.05300
C 	C 	0.07310 0.74230 0.38260 0.10200
H 	H 	0.07150 0.69910 0.36960 0.00800
C 	C 	0.91710 0.70650 0.20320 -0.28900
H 	H 	0.94170 0.68050 0.29600 0.13800
C 	C 	0.84800 0.69090 0.08510 0.23800
C 	C 	0.81360 0.61230 0.25930 0.08500
H 	H 	0.83500 0.63200 0.36560 0.00500
C 	C 	0.75420 0.54620 0.05560 0.00800
H 	H 	0.72780 0.51130 0.99970 0.01500
C 	C 	0.77710 0.59320 0.97850 0.01200
H 	H 	0.76840 0.59710 0.86170 0.04200
C 	C 	0.80840 0.73010 0.95520 -0.29400
H 	H 	0.76190 0.71890 0.87930 0.14600
N 	N 	0.75620 0.91750 0.67450 -0.24900
N 	N 	0.79530 0.83050 0.80840 -0.16900
N 	N 	0.13190 0.77350 0.49000 -0.11000
N 	N 	0.01780 0.77950 0.29790 -0.16100
N 	N 	0.77610 0.55830 0.22770 -0.26500
N 	N 	0.81440 0.63260 0.10450 -0.15300
O 	O 	0.65550 0.99410 0.37970 -0.37700
O 	O 	0.65940 0.09590 0.36360 -0.30900
O 	O 	0.81856 0.02890 0.51180 -0.46700
O 	O 	0.89475 0.01050 0.77600 -0.33200
Zn	Zn	0.24139 0.50732 0.59232 1.21200
C 	C 	0.13080 0.54510 0.30980 0.33500
C 	C 	0.06280 0.54460 0.14720 -0.06600
C 	C 	0.03080 0.48840 0.07250 -0.02300
H 	H 	0.05170 0.45070 0.12220 0.05200
C 	C 	0.03140 0.59970 0.07170 -0.02300
H 	H 	0.05320 0.63750 0.11870 0.05500
C 	C 	0.38310 0.52150 0.62120 0.32500
C 	C 	0.44220 0.52490 0.55830 -0.07400
C 	C 	0.42910 0.52490 0.38760 -0.01300
H 	H 	0.38090 0.52450 0.30910 0.04900
C 	C 	0.51640 0.52530 0.67300 -0.02700
H 	H 	0.52770 0.52580 0.79140 0.05900
C 	C 	0.30300 0.39170 0.80660 0.13900
H 	H 	0.33890 0.41370 0.89340 -0.02400
C 	C 	0.23700 0.31530 0.66310 0.02200
H 	H 	0.21760 0.27560 0.62820 0.02800
C 	C 	0.21400 0.36880 0.58250 -0.00800
H 	H 	0.17460 0.37300 0.47810 0.03100
C 	C 	0.33880 0.28690 0.93830 0.24100
C 	C 	0.40650 0.30420 0.04690 -0.28200
H 	H 	0.42580 0.34290 0.03610 0.13800
C 	C 	0.44750 0.26100 0.17910 0.22800
C 	C 	0.53980 0.33940 0.35230 0.02100
H 	H 	0.51230 0.37550 0.31420 0.02900
C 	C 	0.60680 0.33650 0.46770 -0.00700
H 	H 	0.63390 0.37070 0.52640 0.04000
C 	C 	0.57310 0.24230 0.38260 0.10200
H 	H 	0.57150 0.19910 0.36960 0.00700
C 	C 	0.41710 0.20650 0.20320 -0.28600
H 	H 	0.44170 0.18050 0.29600 0.13500
C 	C 	0.34800 0.19090 0.08510 0.23400
C 	C 	0.31360 0.11230 0.25930 0.08000
H 	H 	0.33500 0.13200 0.36560 0.00300
C 	C 	0.25420 0.04620 0.05560 0.00500
H 	H 	0.22780 0.01130 0.99970 -0.00200
C 	C 	0.27710 0.09320 0.97850 0.00500
H 	H 	0.26840 0.09710 0.86170 0.04100
C 	C 	0.30840 0.23010 0.95520 -0.29100
H 	H 	0.26190 0.21890 0.87930 0.14300
N 	N 	0.25620 0.41750 0.67450 -0.26800
N 	N 	0.29530 0.33050 0.80840 -0.16900
N 	N 	0.63190 0.27350 0.49000 -0.11100
N 	N 	0.51780 0.27950 0.29790 -0.16100
N 	N 	0.27610 0.05830 0.22770 -0.27400
N 	N 	0.31440 0.13260 0.10450 -0.15300
O 	O 	0.15550 0.49410 0.37970 -0.45800
O 	O 	0.15940 0.59590 0.36360 -0.32300
O 	O 	0.31856 0.52890 0.51180 -0.45000
O 	O 	0.39475 0.51050 0.77600 -0.31100
