data_crystal

_cell_length_a 30.09000
_cell_length_b 17.23000
_cell_length_c 8.65800
_cell_angle_alpha 90.00000
_cell_angle_beta  90.00000
_cell_angle_gamma 90.00000

_symmetry_space_group_name_	'P 1'
_symmetry_space_group_name_H-M	'P 1'

loop_
_symmetry_equiv_pos_as_xyz
  x,y,z

loop_
_atom_site_label
_atom_site_type_symbol
_atom_site_fract_x
_atom_site_fract_y
_atom_site_fract_z
_atom_site_charge
O 	O 	0.44290 0.83730 0.83100 -0.37900
O 	O 	0.44200 0.93620 0.67680 -0.38600
C 	C 	0.42620 0.87540 0.73000 0.34400
C 	C 	0.38030 0.85000 0.66700 -0.12100
C 	C 	0.35940 0.78320 0.72600 0.08200
H 	H 	0.37280 0.75430 0.80330 0.02400
C 	C 	0.31920 0.76150 0.66700 -0.17900
H 	H 	0.30520 0.71760 0.70600 0.11000
C 	C 	0.29910 0.80290 0.55100 0.16800
C 	C 	0.31990 0.86890 0.49200 -0.18600
H 	H 	0.30630 0.89740 0.41400 0.10200
C 	C 	0.35970 0.89140 0.54800 0.08500
H 	H 	0.37370 0.93490 0.50630 0.02300
N 	N 	0.25760 0.78360 0.48400 -0.10200
O 	O 	0.94290 0.33730 0.83100 -0.35100
O 	O 	0.94200 0.43620 0.67680 -0.35900
C 	C 	0.92620 0.37540 0.73000 0.34000
C 	C 	0.88030 0.35000 0.66700 -0.10900
C 	C 	0.85940 0.28320 0.72600 0.07700
H 	H 	0.87280 0.25430 0.80330 0.03200
C 	C 	0.81920 0.26150 0.66700 -0.17300
H 	H 	0.80520 0.21760 0.70600 0.10900
C 	C 	0.79910 0.30290 0.55100 0.16400
C 	C 	0.81990 0.36890 0.49200 -0.18000
H 	H 	0.80630 0.39740 0.41400 0.10100
C 	C 	0.85970 0.39140 0.54800 0.07900
H 	H 	0.87370 0.43490 0.50630 0.02900
N 	N 	0.75760 0.28360 0.48400 -0.10100
O 	O 	0.44290 0.16270 0.16900 -0.37800
O 	O 	0.44200 0.06380 0.32320 -0.38500
C 	C 	0.42620 0.12460 0.27000 0.34500
C 	C 	0.38030 0.15000 0.33300 -0.12000
C 	C 	0.35940 0.21680 0.27400 0.08300
H 	H 	0.37280 0.24570 0.19670 0.02500
C 	C 	0.31920 0.23850 0.33300 -0.17900
H 	H 	0.30520 0.28240 0.29400 0.11000
C 	C 	0.29910 0.19710 0.44900 0.16800
C 	C 	0.31990 0.13110 0.50800 -0.18600
H 	H 	0.30630 0.10260 0.58600 0.10200
C 	C 	0.35970 0.10860 0.45200 0.08500
H 	H 	0.37370 0.06510 0.49370 0.02300
N 	N 	0.25760 0.21640 0.51600 -0.10200
O 	O 	0.94290 0.66270 0.16900 -0.35100
O 	O 	0.94200 0.56380 0.32320 -0.35900
C 	C 	0.92620 0.62460 0.27000 0.34000
C 	C 	0.88030 0.65000 0.33300 -0.10900
C 	C 	0.85940 0.71680 0.27400 0.07700
H 	H 	0.87280 0.74570 0.19670 0.03200
C 	C 	0.81920 0.73850 0.33300 -0.17300
H 	H 	0.80520 0.78240 0.29400 0.10900
C 	C 	0.79910 0.69710 0.44900 0.16400
C 	C 	0.81990 0.63110 0.50800 -0.18000
H 	H 	0.80630 0.60260 0.58600 0.10100
C 	C 	0.85970 0.60860 0.45200 0.07900
H 	H 	0.87370 0.56510 0.49370 0.02900
N 	N 	0.75760 0.71640 0.51600 -0.10100
O 	O 	0.55710 0.16270 0.16900 -0.37900
O 	O 	0.55800 0.06380 0.32320 -0.38500
C 	C 	0.57380 0.12460 0.27000 0.34500
C 	C 	0.61970 0.15000 0.33300 -0.12000
C 	C 	0.64060 0.21680 0.27400 0.08300
H 	H 	0.62720 0.24570 0.19670 0.02500
C 	C 	0.68080 0.23850 0.33300 -0.18000
H 	H 	0.69480 0.28240 0.29400 0.11000
C 	C 	0.70090 0.19710 0.44900 0.16800
C 	C 	0.68010 0.13110 0.50800 -0.18600
H 	H 	0.69370 0.10260 0.58600 0.10200
C 	C 	0.64030 0.10860 0.45200 0.08500
H 	H 	0.62630 0.06510 0.49370 0.02300
N 	N 	0.74240 0.21640 0.51600 -0.10100
O 	O 	0.05710 0.66270 0.16900 -0.38200
O 	O 	0.05800 0.56380 0.32320 -0.38800
C 	C 	0.07380 0.62460 0.27000 0.34600
C 	C 	0.11970 0.65000 0.33300 -0.12000
C 	C 	0.14060 0.71680 0.27400 0.08300
H 	H 	0.12720 0.74570 0.19670 0.02500
C 	C 	0.18080 0.73850 0.33300 -0.17900
H 	H 	0.19480 0.78240 0.29400 0.11000
C 	C 	0.20090 0.69710 0.44900 0.16800
C 	C 	0.18010 0.63110 0.50800 -0.18600
H 	H 	0.19370 0.60260 0.58600 0.10200
C 	C 	0.14030 0.60860 0.45200 0.08500
H 	H 	0.12630 0.56510 0.49370 0.02300
N 	N 	0.24240 0.71640 0.51600 -0.10200
O 	O 	0.55710 0.83730 0.83100 -0.37900
O 	O 	0.55800 0.93620 0.67680 -0.38500
C 	C 	0.57380 0.87540 0.73000 0.34500
C 	C 	0.61970 0.85000 0.66700 -0.12000
C 	C 	0.64060 0.78320 0.72600 0.08300
H 	H 	0.62720 0.75430 0.80330 0.02500
C 	C 	0.68080 0.76150 0.66700 -0.18000
H 	H 	0.69480 0.71760 0.70600 0.11000
C 	C 	0.70090 0.80290 0.55100 0.16800
C 	C 	0.68010 0.86890 0.49200 -0.18600
H 	H 	0.69370 0.89740 0.41400 0.10200
C 	C 	0.64030 0.89140 0.54800 0.08500
H 	H 	0.62630 0.93490 0.50630 0.02300
N 	N 	0.74240 0.78360 0.48400 -0.10100
O 	O 	0.05710 0.33730 0.83100 -0.38200
O 	O 	0.05800 0.43620 0.67680 -0.38800
C 	C 	0.07380 0.37540 0.73000 0.34600
C 	C 	0.11970 0.35000 0.66700 -0.12000
C 	C 	0.14060 0.28320 0.72600 0.08300
H 	H 	0.12720 0.25430 0.80330 0.02500
C 	C 	0.18080 0.26150 0.66700 -0.17900
H 	H 	0.19480 0.21760 0.70600 0.11000
C 	C 	0.20090 0.30290 0.55100 0.16800
C 	C 	0.18010 0.36890 0.49200 -0.18600
H 	H 	0.19370 0.39740 0.41400 0.10200
C 	C 	0.14030 0.39140 0.54800 0.08500
H 	H 	0.12630 0.43490 0.50630 0.02300
N 	N 	0.24240 0.28360 0.48400 -0.10200
Cd	Cd	0.50000 0.93150 0.84610 1.23900
O 	O 	0.50000 0.94100 0.10090 -0.47900
C 	C 	0.50000 0.88010 0.20970 0.16400
C 	C 	0.50000 0.90400 0.36200 -0.04800
C 	C 	0.50000 0.81200 0.14200 -0.05600
Cd	Cd	-0.00000 0.43150 0.84610 1.23000
O 	O 	0.00000 0.44100 0.10090 -0.49200
C 	C 	0.00000 0.38010 0.20970 0.17000
C 	C 	0.00000 0.40400 0.36200 -0.07100
C 	C 	-0.00000 0.31200 0.14200 -0.07900
Cd	Cd	0.50000 0.06850 0.15390 1.23900
O 	O 	0.50000 0.05900 0.89910 -0.47900
C 	C 	0.50000 0.11990 0.79030 0.16400
C 	C 	0.50000 0.09600 0.63800 -0.04800
C 	C 	0.50000 0.18800 0.85800 -0.05600
Cd	Cd	-0.00000 0.56850 0.15390 1.23000
O 	O 	-0.00000 0.55900 0.89910 -0.49200
C 	C 	-0.00000 0.61990 0.79030 0.17000
C 	C 	-0.00000 0.59600 0.63800 -0.07100
C 	C 	-0.00000 0.68800 0.85800 -0.07900
O 	O 	0.55710 0.66270 0.33100 -0.37800
O 	O 	0.55800 0.56380 0.17680 -0.38500
C 	C 	0.57380 0.62460 0.23000 0.34600
C 	C 	0.61970 0.65000 0.16700 -0.12100
C 	C 	0.64060 0.71680 0.22600 0.08500
H 	H 	0.62720 0.74570 0.30330 0.02500
C 	C 	0.68080 0.73850 0.16700 -0.18100
H 	H 	0.69480 0.78240 0.20600 0.11100
C 	C 	0.70090 0.69710 0.05100 0.17000
C 	C 	0.68010 0.63110 0.99200 -0.19000
H 	H 	0.69370 0.60260 0.91400 0.10300
C 	C 	0.64030 0.60860 0.04800 0.08700
H 	H 	0.62630 0.56510 0.00630 0.02200
N 	N 	0.74240 0.71640 0.98400 -0.10300
O 	O 	0.05710 0.16270 0.33100 -0.38200
O 	O 	0.05800 0.06380 0.17680 -0.38900
C 	C 	0.07380 0.12460 0.23000 0.34500
C 	C 	0.11970 0.15000 0.16700 -0.11700
C 	C 	0.14060 0.21680 0.22600 0.08000
H 	H 	0.12720 0.24570 0.30330 0.02600
C 	C 	0.18080 0.23850 0.16700 -0.17500
H 	H 	0.19480 0.28240 0.20600 0.10900
C 	C 	0.20090 0.19710 0.05100 0.16300
C 	C 	0.18010 0.13110 0.99200 -0.17900
H 	H 	0.19370 0.10260 0.91400 0.10000
C 	C 	0.14030 0.10860 0.04800 0.07900
H 	H 	0.12630 0.06510 0.00630 0.02500
N 	N 	0.24240 0.21640 0.98400 -0.10000
O 	O 	0.55710 0.33730 0.66900 -0.37800
O 	O 	0.55800 0.43620 0.82320 -0.38500
C 	C 	0.57380 0.37540 0.77000 0.34600
C 	C 	0.61970 0.35000 0.83300 -0.12100
C 	C 	0.64060 0.28320 0.77400 0.08500
H 	H 	0.62720 0.25430 0.69670 0.02500
C 	C 	0.68080 0.26150 0.83300 -0.18100
H 	H 	0.69480 0.21760 0.79400 0.11100
C 	C 	0.70090 0.30290 0.94900 0.17000
C 	C 	0.68010 0.36890 0.00800 -0.19000
H 	H 	0.69370 0.39740 0.08600 0.10300
C 	C 	0.64030 0.39140 0.95200 0.08700
H 	H 	0.62630 0.43490 0.99370 0.02200
N 	N 	0.74240 0.28360 0.01600 -0.10300
O 	O 	0.05710 0.83730 0.66900 -0.38200
O 	O 	0.05800 0.93620 0.82320 -0.38900
C 	C 	0.07380 0.87540 0.77000 0.34500
C 	C 	0.11970 0.85000 0.83300 -0.11700
C 	C 	0.14060 0.78320 0.77400 0.08000
H 	H 	0.12720 0.75430 0.69670 0.02600
C 	C 	0.18080 0.76150 0.83300 -0.17500
H 	H 	0.19480 0.71760 0.79400 0.10900
C 	C 	0.20090 0.80290 0.94900 0.16300
C 	C 	0.18010 0.86890 0.00800 -0.17900
H 	H 	0.19370 0.89740 0.08600 0.10000
C 	C 	0.14030 0.89140 0.95200 0.07900
H 	H 	0.12630 0.93490 0.99370 0.02500
N 	N 	0.24240 0.78360 0.01600 -0.10000
O 	O 	0.44290 0.33730 0.66900 -0.37800
O 	O 	0.44200 0.43620 0.82320 -0.38500
C 	C 	0.42620 0.37540 0.77000 0.34600
C 	C 	0.38030 0.35000 0.83300 -0.12100
C 	C 	0.35940 0.28320 0.77400 0.08500
H 	H 	0.37280 0.25430 0.69670 0.02500
C 	C 	0.31920 0.26150 0.83300 -0.18100
H 	H 	0.30520 0.21760 0.79400 0.11100
C 	C 	0.29910 0.30290 0.94900 0.17000
C 	C 	0.31990 0.36890 0.00800 -0.18900
H 	H 	0.30630 0.39740 0.08600 0.10300
C 	C 	0.35970 0.39140 0.95200 0.08700
H 	H 	0.37370 0.43490 0.99370 0.02200
N 	N 	0.25760 0.28360 0.01600 -0.10300
O 	O 	0.94290 0.83730 0.66900 -0.35100
O 	O 	0.94200 0.93620 0.82320 -0.35900
C 	C 	0.92620 0.87540 0.77000 0.33900
C 	C 	0.88030 0.85000 0.83300 -0.10600
C 	C 	0.85940 0.78320 0.77400 0.07400
H 	H 	0.87280 0.75430 0.69670 0.03300
C 	C 	0.81920 0.76150 0.83300 -0.16900
H 	H 	0.80520 0.71760 0.79400 0.10800
C 	C 	0.79910 0.80290 0.94900 0.15900
C 	C 	0.81990 0.86890 0.00800 -0.17300
H 	H 	0.80630 0.89740 0.08600 0.09900
C 	C 	0.85970 0.89140 0.95200 0.07300
H 	H 	0.87370 0.93490 0.99370 0.03000
N 	N 	0.75760 0.78360 0.01600 -0.09900
O 	O 	0.44290 0.66270 0.33100 -0.37800
O 	O 	0.44200 0.56380 0.17680 -0.38500
C 	C 	0.42620 0.62460 0.23000 0.34600
C 	C 	0.38030 0.65000 0.16700 -0.12100
C 	C 	0.35940 0.71680 0.22600 0.08500
H 	H 	0.37280 0.74570 0.30330 0.02500
C 	C 	0.31920 0.73850 0.16700 -0.18100
H 	H 	0.30520 0.78240 0.20600 0.11100
C 	C 	0.29910 0.69710 0.05100 0.17000
C 	C 	0.31990 0.63110 0.99200 -0.18900
H 	H 	0.30630 0.60260 0.91400 0.10300
C 	C 	0.35970 0.60860 0.04800 0.08700
H 	H 	0.37370 0.56510 0.00630 0.02200
N 	N 	0.25760 0.71640 0.98400 -0.10300
O 	O 	0.94290 0.16270 0.33100 -0.35100
O 	O 	0.94200 0.06380 0.17680 -0.35900
C 	C 	0.92620 0.12460 0.23000 0.33900
C 	C 	0.88030 0.15000 0.16700 -0.10600
C 	C 	0.85940 0.21680 0.22600 0.07400
H 	H 	0.87280 0.24570 0.30330 0.03300
C 	C 	0.81920 0.23850 0.16700 -0.16900
H 	H 	0.80520 0.28240 0.20600 0.10800
C 	C 	0.79910 0.19710 0.05100 0.15900
C 	C 	0.81990 0.13110 0.99200 -0.17300
H 	H 	0.80630 0.10260 0.91400 0.09900
C 	C 	0.85970 0.10860 0.04800 0.07300
H 	H 	0.87370 0.06510 0.00630 0.03000
N 	N 	0.75760 0.21640 0.98400 -0.09900
Cd	Cd	0.50000 0.56850 0.34610 1.23900
O 	O 	0.50000 0.55900 0.60090 -0.48000
C 	C 	0.50000 0.61990 0.70970 0.16400
C 	C 	0.50000 0.59600 0.86200 -0.04900
C 	C 	0.50000 0.68800 0.64200 -0.05700
Cd	Cd	-0.00000 0.06850 0.34610 1.23000
O 	O 	-0.00000 0.05900 0.60090 -0.49200
C 	C 	0.00000 0.11990 0.70970 0.16900
C 	C 	-0.00000 0.09600 0.86200 -0.07000
C 	C 	-0.00000 0.18800 0.64200 -0.07900
Cd	Cd	0.50000 0.43150 0.65390 1.23900
O 	O 	0.50000 0.44100 0.39910 -0.48000
C 	C 	0.50000 0.38010 0.29030 0.16400
C 	C 	0.50000 0.40400 0.13800 -0.04900
C 	C 	0.50000 0.31200 0.35800 -0.05700
Cd	Cd	-0.00000 0.93150 0.65390 1.23000
O 	O 	-0.00000 0.94100 0.39910 -0.49200
C 	C 	-0.00000 0.88010 0.29030 0.16900
C 	C 	-0.00000 0.90400 0.13800 -0.07000
C 	C 	-0.00000 0.81200 0.35800 -0.07900
