data_crystal

_cell_length_a 9.25650
_cell_length_b 10.17360
_cell_length_c 15.40500
_cell_angle_alpha 95.28200
_cell_angle_beta  105.18800
_cell_angle_gamma 91.39400

_symmetry_space_group_name_	'P 1'
_symmetry_space_group_name_H-M	'P 1'

loop_
_symmetry_equiv_pos_as_xyz
  x,y,z

loop_
_atom_site_label
_atom_site_type_symbol
_atom_site_fract_x
_atom_site_fract_y
_atom_site_fract_z
_atom_site_charge
Co	Co	0.66282 0.91829 0.19192 1.13800
Co	Co	0.30074 0.58265 0.93341 1.17100
P 	P 	0.61607 0.71252 0.00263 0.39000
O 	O 	0.67120 0.60442 0.06220 -0.46500
O 	O 	0.58190 0.83341 0.05928 -0.50400
O 	O 	0.48570 0.66650 0.92107 -0.41500
O 	O 	0.51900 0.94445 0.86779 -0.46700
O 	O 	0.59340 0.87300 0.74726 -0.28600
O 	O 	0.16460 0.98114 0.83916 -0.40600
O 	O 	0.29230 0.90533 0.96776 -0.40500
O 	O 	0.25050 0.65059 0.04393 -0.44000
O 	O 	0.21710 0.81805 0.13852 -0.24000
N 	N 	0.14320 0.60830 0.82023 -0.25500
N 	N 	0.93020 0.61770 0.71642 -0.10400
N 	N 	0.95440 0.28490 0.68360 -0.10000
N 	N 	0.17350 0.20280 0.74147 -0.24800
C 	C 	0.77000 0.76830 0.96085 0.04000
C 	C 	0.75920 0.84720 0.88924 -0.10000
C 	C 	0.89200 0.89000 0.87051 0.06700
H 	H 	0.88580 0.93810 0.81980 0.05600
C 	C 	0.03240 0.86410 0.92399 -0.10100
C 	C 	0.04190 0.78720 0.99588 0.03500
C 	C 	0.91080 0.73780 0.01100 -0.13100
H 	H 	0.91740 0.68100 0.05740 0.06500
C 	C 	0.61330 0.89070 0.83108 0.37200
C 	C 	0.17430 0.92140 0.90843 0.37200
C 	C 	0.18310 0.75420 0.06349 0.27800
C 	C 	0.99700 0.58070 0.79824 0.10000
H 	H 	0.94580 0.54010 0.83550 -0.00600
C 	C 	0.17020 0.66730 0.74860 0.00500
H 	H 	0.26550 0.69930 0.74490 0.01400
C 	C 	0.04000 0.67260 0.68460 -0.00600
H 	H 	0.02710 0.70770 0.62810 0.03700
C 	C 	0.76870 0.60500 0.67110 -0.10500
H 	H 	0.73280 0.69360 0.65750 0.08000
H 	H 	0.71490 0.57170 0.71300 0.06700
C 	C 	0.73040 0.51370 0.58477 0.04000
C 	C 	0.67910 0.56740 0.50290 -0.08600
H 	H 	0.67740 0.66070 0.50250 0.06100
C 	C 	0.63080 0.48750 0.42230 -0.00700
H 	H 	0.59500 0.52580 0.36710 0.02500
C 	C 	0.63470 0.35160 0.42210 -0.05600
H 	H 	0.60090 0.29600 0.36700 0.04800
C 	C 	0.68810 0.29760 0.50260 -0.05300
H 	H 	0.69220 0.20440 0.50220 0.03200
C 	C 	0.73570 0.37590 0.58403 0.00900
C 	C 	0.79400 0.31030 0.66930 -0.08500
H 	H 	0.78010 0.36790 0.72160 0.06500
H 	H 	0.73620 0.22570 0.66510 0.05000
C 	C 	0.03280 0.21000 0.74530 0.05500
H 	H 	0.99210 0.16750 0.78670 0.02100
C 	C 	0.05130 0.32760 0.63710 -0.01300
H 	H 	0.02890 0.38210 0.58890 0.03900
C 	C 	0.18420 0.27730 0.67300 -0.01100
H 	H 	0.27250 0.29120 0.65400 -0.00300
Co	Co	0.33718 0.08171 0.80808 1.08400
Co	Co	0.69926 0.41735 0.06659 1.15800
P 	P 	0.38393 0.28748 0.99737 0.48500
O 	O 	0.32880 0.39558 0.93780 -0.46600
O 	O 	0.41810 0.16659 0.94072 -0.53900
O 	O 	0.51430 0.33350 0.07893 -0.45600
O 	O 	0.48100 0.05555 0.13221 -0.53400
O 	O 	0.40660 0.12700 0.25274 -0.31400
O 	O 	0.83540 0.01886 0.16084 -0.47500
O 	O 	0.70770 0.09467 0.03224 -0.47100
O 	O 	0.74950 0.34941 0.95607 -0.43800
O 	O 	0.78290 0.18195 0.86148 -0.30200
N 	N 	0.85680 0.39170 0.17977 -0.25000
N 	N 	0.06980 0.38230 0.28358 -0.11000
N 	N 	0.04560 0.71510 0.31640 -0.10700
N 	N 	0.82650 0.79720 0.25853 -0.23500
C 	C 	0.23000 0.23170 0.03915 -0.14200
C 	C 	0.24080 0.15280 0.11076 -0.05200
C 	C 	0.10800 0.11000 0.12949 -0.02900
H 	H 	0.11420 0.06190 0.18020 0.04700
C 	C 	0.96760 0.13590 0.07601 -0.03900
C 	C 	0.95810 0.21280 0.00412 -0.16900
C 	C 	0.08920 0.26220 0.98900 0.10500
H 	H 	0.08260 0.31900 0.94260 -0.00900
C 	C 	0.38670 0.10930 0.16892 0.34400
C 	C 	0.82570 0.07860 0.09157 0.34400
C 	C 	0.81690 0.24580 0.93651 0.38400
C 	C 	0.00300 0.41930 0.20176 0.09000
H 	H 	0.05420 0.45990 0.16450 -0.01000
C 	C 	0.82980 0.33270 0.25140 -0.00100
H 	H 	0.73450 0.30070 0.25510 0.01200
C 	C 	0.96000 0.32740 0.31540 0.00300
H 	H 	0.97290 0.29230 0.37190 0.02500
C 	C 	0.23130 0.39500 0.32890 -0.09500
H 	H 	0.26720 0.30640 0.34250 0.06900
H 	H 	0.28510 0.42830 0.28700 0.06500
C 	C 	0.26960 0.48630 0.41523 0.02400
C 	C 	0.32090 0.43260 0.49710 -0.07100
H 	H 	0.32260 0.33930 0.49750 0.04400
C 	C 	0.36920 0.51250 0.57770 -0.02400
H 	H 	0.40500 0.47420 0.63290 0.02900
C 	C 	0.36530 0.64840 0.57790 -0.03600
H 	H 	0.39910 0.70400 0.63300 0.04900
C 	C 	0.31190 0.70240 0.49740 -0.06800
H 	H 	0.30780 0.79560 0.49780 0.06000
C 	C 	0.26430 0.62410 0.41597 0.02700
C 	C 	0.20600 0.68970 0.33070 -0.09500
H 	H 	0.21990 0.63210 0.27840 0.06900
H 	H 	0.26380 0.77430 0.33490 0.07200
C 	C 	0.96720 0.79000 0.25470 0.09000
H 	H 	0.00790 0.83250 0.21330 0.03100
C 	C 	0.94870 0.67240 0.36290 0.00400
H 	H 	0.97110 0.61790 0.41110 0.04000
C 	C 	0.81580 0.72270 0.32700 -0.00600
H 	H 	0.72750 0.70880 0.34600 0.00800
Co	Co	0.50000 0.00000 -0.00000 1.14700
