data_crystal

_cell_length_a 33.19300
_cell_length_b 6.89560
_cell_length_c 21.92910
_cell_angle_alpha 90.00000
_cell_angle_beta  114.46800
_cell_angle_gamma 90.00000

_symmetry_space_group_name_	'P 1'
_symmetry_space_group_name_H-M	'P 1'

loop_
_symmetry_equiv_pos_as_xyz
  x,y,z

loop_
_atom_site_label
_atom_site_type_symbol
_atom_site_fract_x
_atom_site_fract_y
_atom_site_fract_z
_atom_site_charge
N 	N 	0.59689 0.97320 0.88090 -0.14200
N 	N 	0.54171 0.78550 0.81770 -0.28700
C 	C 	0.58513 0.80920 0.84480 0.08100
H 	H 	0.60500 0.72300 0.83960 -0.04000
C 	C 	0.52516 0.93820 0.83960 -0.02500
H 	H 	0.49540 0.95870 0.82950 -0.02600
C 	C 	0.55851 0.05440 0.87810 -0.02500
H 	H 	0.55600 0.16850 0.89880 -0.00200
C 	C 	0.64130 0.05170 0.91680 0.08500
C 	C 	0.64715 0.23880 0.93990 -0.11100
H 	H 	0.62270 0.31580 0.93320 0.04800
C 	C 	0.68961 0.31380 0.97350 -0.03200
H 	H 	0.69290 0.43900 0.99060 0.03100
C 	C 	0.72676 0.20920 0.98210 -0.00800
C 	C 	0.72035 0.01970 0.95830 -0.03200
H 	H 	0.74480 0.94350 0.96430 0.03300
C 	C 	0.67814 0.94160 0.92570 -0.10800
H 	H 	0.67470 0.81480 0.90980 0.05900
N 	N 	0.40311 0.97320 0.61910 -0.14400
N 	N 	0.45829 0.78550 0.68230 -0.28800
C 	C 	0.41487 0.80920 0.65520 0.08000
H 	H 	0.39500 0.72300 0.66040 -0.04100
C 	C 	0.47484 0.93820 0.66040 -0.02500
H 	H 	0.50460 0.95870 0.67050 -0.02600
C 	C 	0.44149 0.05440 0.62190 -0.02500
H 	H 	0.44400 0.16850 0.60120 -0.00200
C 	C 	0.35870 0.05170 0.58320 0.08600
C 	C 	0.35285 0.23880 0.56010 -0.11100
H 	H 	0.37730 0.31580 0.56680 0.04800
C 	C 	0.31039 0.31380 0.52650 -0.03300
H 	H 	0.30710 0.43900 0.50940 0.03100
C 	C 	0.27324 0.20920 0.51790 -0.00600
C 	C 	0.27965 0.01970 0.54170 -0.03200
H 	H 	0.25520 0.94350 0.53570 0.03300
C 	C 	0.32186 0.94160 0.57430 -0.10900
H 	H 	0.32530 0.81480 0.59020 0.05900
N 	N 	0.90311 0.52680 0.11910 -0.14000
N 	N 	0.95829 0.71450 0.18230 -0.29000
C 	C 	0.91487 0.69080 0.15520 0.08100
H 	H 	0.89500 0.77700 0.16040 -0.03900
C 	C 	0.97484 0.56180 0.16040 0.02900
H 	H 	0.00460 0.54130 0.17050 -0.05900
C 	C 	0.94149 0.44560 0.12190 -0.04600
H 	H 	0.94400 0.33150 0.10120 0.01200
C 	C 	0.85870 0.44830 0.08320 0.08900
C 	C 	0.85285 0.26120 0.06010 -0.11200
H 	H 	0.87730 0.18420 0.06680 0.05100
C 	C 	0.81039 0.18620 0.02650 -0.03100
H 	H 	0.80710 0.06100 0.00940 0.03200
C 	C 	0.77324 0.29080 0.01790 -0.00600
C 	C 	0.77965 0.48030 0.04170 -0.02900
H 	H 	0.75520 0.55650 0.03570 0.03300
C 	C 	0.82186 0.55840 0.07430 -0.11200
H 	H 	0.82530 0.68520 0.09020 0.06100
N 	N 	0.09689 0.52680 0.38090 -0.14900
N 	N 	0.04171 0.71450 0.31770 -0.28200
C 	C 	0.08513 0.69080 0.34480 0.08000
H 	H 	0.10500 0.77700 0.33960 -0.04200
C 	C 	0.02516 0.56180 0.33960 -0.08300
H 	H 	0.99540 0.54130 0.32950 0.01100
C 	C 	0.05851 0.44560 0.37810 0.00500
H 	H 	0.05600 0.33150 0.39880 -0.01600
C 	C 	0.14130 0.44830 0.41680 0.08900
C 	C 	0.14715 0.26120 0.43990 -0.11500
H 	H 	0.12270 0.18420 0.43320 0.04800
C 	C 	0.18961 0.18620 0.47350 -0.03000
H 	H 	0.19290 0.06100 0.49060 0.03000
C 	C 	0.22676 0.29080 0.48210 -0.00900
C 	C 	0.22035 0.48030 0.45830 -0.02800
H 	H 	0.24480 0.55650 0.46430 0.03200
C 	C 	0.17814 0.55840 0.42570 -0.11400
H 	H 	0.17470 0.68520 0.40980 0.06000
Co	Co	0.50000 0.59262 0.75000 1.00300
Co	Co	0.00000 0.90738 0.25000 0.99400
N 	N 	0.09689 0.47320 0.88090 -0.14900
N 	N 	0.04171 0.28550 0.81770 -0.28200
C 	C 	0.08513 0.30920 0.84480 0.08000
H 	H 	0.10500 0.22300 0.83960 -0.04200
C 	C 	0.02516 0.43820 0.83960 -0.08200
H 	H 	0.99540 0.45870 0.82950 0.01000
C 	C 	0.05851 0.55440 0.87810 0.00500
H 	H 	0.05600 0.66850 0.89880 -0.01600
C 	C 	0.14130 0.55170 0.91680 0.09000
C 	C 	0.14715 0.73880 0.93990 -0.11600
H 	H 	0.12270 0.81580 0.93320 0.04900
C 	C 	0.18961 0.81380 0.97350 -0.02800
H 	H 	0.19290 0.93900 0.99060 0.02900
C 	C 	0.22676 0.70920 0.98210 -0.01100
C 	C 	0.22035 0.51970 0.95830 -0.02700
H 	H 	0.24480 0.44350 0.96430 0.03100
C 	C 	0.17814 0.44160 0.92570 -0.11500
H 	H 	0.17470 0.31480 0.90980 0.06100
N 	N 	0.90311 0.47320 0.61910 -0.14000
N 	N 	0.95829 0.28550 0.68230 -0.29000
C 	C 	0.91487 0.30920 0.65520 0.08100
H 	H 	0.89500 0.22300 0.66040 -0.03900
C 	C 	0.97484 0.43820 0.66040 0.02800
H 	H 	0.00460 0.45870 0.67050 -0.05900
C 	C 	0.94149 0.55440 0.62190 -0.04600
H 	H 	0.94400 0.66850 0.60120 0.01100
C 	C 	0.85870 0.55170 0.58320 0.09000
C 	C 	0.85285 0.73880 0.56010 -0.11300
H 	H 	0.87730 0.81580 0.56680 0.05100
C 	C 	0.81039 0.81380 0.52650 -0.02900
H 	H 	0.80710 0.93900 0.50940 0.03100
C 	C 	0.77324 0.70920 0.51790 -0.00900
C 	C 	0.77965 0.51970 0.54170 -0.02800
H 	H 	0.75520 0.44350 0.53570 0.03200
C 	C 	0.82186 0.44160 0.57430 -0.11300
H 	H 	0.82530 0.31480 0.59020 0.06100
N 	N 	0.40311 0.02680 0.11910 -0.14300
N 	N 	0.45829 0.21450 0.18230 -0.28800
C 	C 	0.41487 0.19080 0.15520 0.08000
H 	H 	0.39500 0.27700 0.16040 -0.04100
C 	C 	0.47484 0.06180 0.16040 -0.02500
H 	H 	0.50460 0.04130 0.17050 -0.02600
C 	C 	0.44149 0.94560 0.12190 -0.02500
H 	H 	0.44400 0.83150 0.10120 -0.00200
C 	C 	0.35870 0.94830 0.08320 0.08400
C 	C 	0.35285 0.76120 0.06010 -0.10900
H 	H 	0.37730 0.68420 0.06680 0.04700
C 	C 	0.31039 0.68620 0.02650 -0.03500
H 	H 	0.30710 0.56100 0.00940 0.03200
C 	C 	0.27324 0.79080 0.01790 -0.00300
C 	C 	0.27965 0.98030 0.04170 -0.03500
H 	H 	0.25520 0.05650 0.03570 0.03500
C 	C 	0.32186 0.05840 0.07430 -0.10700
H 	H 	0.32530 0.18520 0.09020 0.05800
N 	N 	0.59689 0.02680 0.38090 -0.14400
N 	N 	0.54171 0.21450 0.31770 -0.28800
C 	C 	0.58513 0.19080 0.34480 0.08000
H 	H 	0.60500 0.27700 0.33960 -0.04100
C 	C 	0.52516 0.06180 0.33960 -0.02500
H 	H 	0.49540 0.04130 0.32950 -0.02600
C 	C 	0.55851 0.94560 0.37810 -0.02400
H 	H 	0.55600 0.83150 0.39880 -0.00200
C 	C 	0.64130 0.94830 0.41680 0.08600
C 	C 	0.64715 0.76120 0.43990 -0.11100
H 	H 	0.62270 0.68420 0.43320 0.04800
C 	C 	0.68961 0.68620 0.47350 -0.03200
H 	H 	0.69290 0.56100 0.49060 0.03100
C 	C 	0.72676 0.79080 0.48210 -0.00600
C 	C 	0.72035 0.98030 0.45830 -0.03100
H 	H 	0.74480 0.05650 0.46430 0.03300
C 	C 	0.67814 0.05840 0.42570 -0.11000
H 	H 	0.67470 0.18520 0.40980 0.06000
Co	Co	0.00000 0.09262 0.75000 0.99400
Co	Co	0.50000 0.40738 0.25000 1.00300
