data_crystal

_cell_length_a 17.95030
_cell_length_b 11.28460
_cell_length_c 9.25740
_cell_angle_alpha 90.00000
_cell_angle_beta  119.70900
_cell_angle_gamma 90.00000

_symmetry_space_group_name_	'P 1'
_symmetry_space_group_name_H-M	'P 1'

loop_
_symmetry_equiv_pos_as_xyz
  x,y,z

loop_
_atom_site_label
_atom_site_type_symbol
_atom_site_fract_x
_atom_site_fract_y
_atom_site_fract_z
_atom_site_charge
N 	N 	0.98690 0.35870 0.32800 -0.05400
C 	C 	0.91730 0.29020 0.26460 0.13200
H 	H 	0.87340 0.31130 0.28550 -0.06500
C 	C 	0.90590 0.19190 0.17180 -0.08100
H 	H 	0.85580 0.14760 0.13240 0.00000
C 	C 	0.96940 0.15740 0.13560 0.34200
C 	C 	0.04040 0.23160 0.19480 -0.10600
H 	H 	0.08540 0.21250 0.17630 0.08000
C 	C 	0.04440 0.33540 0.28260 -0.11500
H 	H 	0.08870 0.38900 0.30940 0.06500
C 	C 	0.95930 0.04460 0.04160 -0.12500
N 	N 	0.00270 0.36310 0.34580 -0.16100
C 	C 	0.94540 0.27600 0.29820 -0.06100
H 	H 	0.90070 0.28370 0.32110 0.00500
C 	C 	0.94810 0.17470 0.21650 -0.20800
H 	H 	0.90460 0.11850 0.18050 0.09400
C 	C 	0.01710 0.15840 0.18920 -0.19700
C 	C 	0.07630 0.24590 0.24220 0.11600
H 	H 	0.12180 0.24070 0.22140 -0.05900
C 	C 	0.07050 0.33920 0.32340 0.10100
H 	H 	0.11620 0.39210 0.36840 -0.08000
C 	C 	0.03460 0.04490 0.12440 -0.04500
N 	N 	0.01310 0.35870 0.67200 -0.21400
C 	C 	0.08270 0.29020 0.73540 0.16100
H 	H 	0.12660 0.31130 0.71450 -0.07100
C 	C 	0.09410 0.19190 0.82820 0.11900
H 	H 	0.14420 0.14760 0.86760 -0.04900
C 	C 	0.03060 0.15740 0.86440 -0.09600
C 	C 	0.95960 0.23160 0.80520 -0.11600
H 	H 	0.91460 0.21250 0.82370 0.09900
C 	C 	0.95560 0.33540 0.71740 -0.05200
H 	H 	0.91130 0.38900 0.69060 0.01000
C 	C 	0.04070 0.04460 0.95840 -0.01900
N 	N 	0.99730 0.36310 0.65420 -0.01100
C 	C 	0.05460 0.27600 0.70180 -0.10500
H 	H 	0.09930 0.28370 0.67890 0.01900
C 	C 	0.05190 0.17470 0.78350 -0.19000
H 	H 	0.09540 0.11850 0.81950 0.07100
C 	C 	0.98290 0.15840 0.81080 0.25300
C 	C 	0.92370 0.24590 0.75780 -0.14700
H 	H 	0.87820 0.24070 0.77860 0.01300
C 	C 	0.92950 0.33920 0.67660 0.11600
H 	H 	0.88380 0.39210 0.63160 -0.05500
C 	C 	0.96540 0.04490 0.87560 -0.14400
N 	N 	0.01310 0.64130 0.67200 -0.21400
C 	C 	0.08270 0.70980 0.73540 0.17900
H 	H 	0.12660 0.68870 0.71450 -0.09400
C 	C 	0.09410 0.80810 0.82820 0.23800
H 	H 	0.14420 0.85240 0.86760 -0.07300
C 	C 	0.03060 0.84260 0.86440 -0.13300
C 	C 	0.95960 0.76840 0.80520 -0.11100
H 	H 	0.91460 0.78750 0.82370 0.07800
C 	C 	0.95560 0.66460 0.71740 -0.05400
H 	H 	0.91130 0.61100 0.69060 0.00700
C 	C 	0.04070 0.95540 0.95840 0.05900
N 	N 	0.99730 0.63690 0.65420 -0.00200
C 	C 	0.05460 0.72400 0.70180 -0.14900
H 	H 	0.09930 0.71630 0.67890 0.05000
C 	C 	0.05190 0.82530 0.78350 -0.25500
H 	H 	0.09540 0.88150 0.81950 0.08200
C 	C 	0.98290 0.84160 0.81080 0.25900
C 	C 	0.92370 0.75410 0.75780 -0.12900
H 	H 	0.87820 0.75930 0.77860 0.02200
C 	C 	0.92950 0.66080 0.67660 0.11500
H 	H 	0.88380 0.60790 0.63160 -0.05000
C 	C 	0.96540 0.95510 0.87560 0.02300
N 	N 	0.98690 0.64130 0.32800 -0.05500
C 	C 	0.91730 0.70980 0.26460 0.15000
H 	H 	0.87340 0.68870 0.28550 -0.08700
C 	C 	0.90590 0.80810 0.17180 0.03800
H 	H 	0.85580 0.85240 0.13240 -0.02300
C 	C 	0.96940 0.84260 0.13560 0.30400
C 	C 	0.04040 0.76840 0.19480 -0.10100
H 	H 	0.08540 0.78750 0.17630 0.05800
C 	C 	0.04440 0.66460 0.28260 -0.11600
H 	H 	0.08870 0.61100 0.30940 0.06200
C 	C 	0.95930 0.95540 0.04160 -0.04600
N 	N 	0.00270 0.63690 0.34580 -0.15100
C 	C 	0.94540 0.72400 0.29820 -0.10500
H 	H 	0.90070 0.71630 0.32110 0.03600
C 	C 	0.94810 0.82530 0.21650 -0.27300
H 	H 	0.90460 0.88150 0.18050 0.10500
C 	C 	0.01710 0.84160 0.18920 -0.19100
C 	C 	0.07630 0.75410 0.24220 0.13500
H 	H 	0.12180 0.75930 0.22140 -0.04900
C 	C 	0.07050 0.66080 0.32340 0.09900
H 	H 	0.11620 0.60790 0.36840 -0.07600
C 	C 	0.03460 0.95510 0.12440 0.12300
Zn	Zn	0.00000 0.50000 0.50000 1.14800
N 	N 	0.48690 0.85870 0.32800 -0.12600
C 	C 	0.41730 0.79020 0.26460 0.16000
H 	H 	0.37340 0.81130 0.28550 -0.05500
C 	C 	0.40590 0.69190 0.17180 0.06900
H 	H 	0.35580 0.64760 0.13240 -0.03300
C 	C 	0.46940 0.65740 0.13560 0.10900
C 	C 	0.54040 0.73160 0.19480 -0.11100
H 	H 	0.58540 0.71250 0.17630 0.07800
C 	C 	0.54440 0.83540 0.28260 -0.08600
H 	H 	0.58870 0.88900 0.30940 0.03300
C 	C 	0.45930 0.54460 0.04160 -0.02700
N 	N 	0.50270 0.86310 0.34580 -0.08000
C 	C 	0.44540 0.77600 0.29820 -0.09200
H 	H 	0.40070 0.78370 0.32110 0.00500
C 	C 	0.44810 0.67470 0.21650 -0.22900
H 	H 	0.40460 0.61850 0.18050 0.08900
C 	C 	0.51710 0.65840 0.18920 0.02800
C 	C 	0.57630 0.74590 0.24220 0.00000
H 	H 	0.62180 0.74070 0.22140 -0.01700
C 	C 	0.57050 0.83920 0.32340 0.11700
H 	H 	0.61620 0.89210 0.36840 -0.05100
C 	C 	0.53460 0.54490 0.12440 -0.02000
N 	N 	0.51310 0.85870 0.67200 -0.12700
C 	C 	0.58270 0.79020 0.73540 0.15800
H 	H 	0.62660 0.81130 0.71450 -0.05700
C 	C 	0.59410 0.69190 0.82820 0.06600
H 	H 	0.64420 0.64760 0.86760 -0.03200
C 	C 	0.53060 0.65740 0.86440 0.10800
C 	C 	0.45960 0.73160 0.80520 -0.11400
H 	H 	0.41460 0.71250 0.82370 0.07900
C 	C 	0.45560 0.83540 0.71740 -0.08600
H 	H 	0.41130 0.88900 0.69060 0.03100
C 	C 	0.54070 0.54460 0.95840 -0.02400
N 	N 	0.49730 0.86310 0.65420 -0.08000
C 	C 	0.55460 0.77600 0.70180 -0.09100
H 	H 	0.59930 0.78370 0.67890 0.00600
C 	C 	0.55190 0.67470 0.78350 -0.22600
H 	H 	0.59540 0.61850 0.81950 0.08800
C 	C 	0.48290 0.65840 0.81080 0.03000
C 	C 	0.42370 0.74590 0.75780 0.00300
H 	H 	0.37820 0.74070 0.77860 -0.01500
C 	C 	0.42950 0.83920 0.67660 0.11900
H 	H 	0.38380 0.89210 0.63160 -0.04800
C 	C 	0.46540 0.54490 0.87560 -0.01700
N 	N 	0.51310 0.14130 0.67200 -0.13800
C 	C 	0.58270 0.20980 0.73540 0.15100
H 	H 	0.62660 0.18870 0.71450 -0.10100
C 	C 	0.59410 0.30810 0.82820 0.08600
H 	H 	0.64420 0.35240 0.86760 -0.04000
C 	C 	0.53060 0.34260 0.86440 0.10000
C 	C 	0.45960 0.26840 0.80520 -0.10600
H 	H 	0.41460 0.28750 0.82370 0.08000
C 	C 	0.45560 0.16460 0.71740 -0.08100
H 	H 	0.41130 0.11100 0.69060 0.03700
C 	C 	0.54070 0.45540 0.95840 -0.03900
N 	N 	0.49730 0.13690 0.65420 -0.08100
C 	C 	0.55460 0.22400 0.70180 -0.11600
H 	H 	0.59930 0.21630 0.67890 0.04800
C 	C 	0.55190 0.32530 0.78350 -0.23300
H 	H 	0.59540 0.38150 0.81950 0.08700
C 	C 	0.48290 0.34160 0.81080 0.03300
C 	C 	0.42370 0.25410 0.75780 -0.01200
H 	H 	0.37820 0.25930 0.77860 -0.02000
C 	C 	0.42950 0.16080 0.67660 0.09900
H 	H 	0.38380 0.10790 0.63160 -0.07600
C 	C 	0.46540 0.45510 0.87560 -0.00200
N 	N 	0.48690 0.14130 0.32800 -0.13800
C 	C 	0.41730 0.20980 0.26460 0.15300
H 	H 	0.37340 0.18870 0.28550 -0.09900
C 	C 	0.40590 0.30810 0.17180 0.08900
H 	H 	0.35580 0.35240 0.13240 -0.04100
C 	C 	0.46940 0.34260 0.13560 0.10100
C 	C 	0.54040 0.26840 0.19480 -0.10300
H 	H 	0.58540 0.28750 0.17630 0.07900
C 	C 	0.54440 0.16460 0.28260 -0.08100
H 	H 	0.58870 0.11100 0.30940 0.04000
C 	C 	0.45930 0.45540 0.04160 -0.04200
N 	N 	0.50270 0.13690 0.34580 -0.08100
C 	C 	0.44540 0.22400 0.29820 -0.11800
H 	H 	0.40070 0.21630 0.32110 0.04700
C 	C 	0.44810 0.32530 0.21650 -0.23600
H 	H 	0.40460 0.38150 0.18050 0.08700
C 	C 	0.51710 0.34160 0.18920 0.03100
C 	C 	0.57630 0.25410 0.24220 -0.01400
H 	H 	0.62180 0.25930 0.22140 -0.02200
C 	C 	0.57050 0.16080 0.32340 0.09700
H 	H 	0.61620 0.10790 0.36840 -0.07900
C 	C 	0.53460 0.45510 0.12440 -0.00500
Zn	Zn	0.50000 0.00000 0.50000 1.12400
