data_crystal

_cell_length_a 28.93240
_cell_length_b 7.70070
_cell_length_c 16.08370
_cell_angle_alpha 90.00000
_cell_angle_beta  107.62900
_cell_angle_gamma 90.00000

_symmetry_space_group_name_	'P 1'
_symmetry_space_group_name_H-M	'P 1'

loop_
_symmetry_equiv_pos_as_xyz
  x,y,z

loop_
_atom_site_label
_atom_site_type_symbol
_atom_site_fract_x
_atom_site_fract_y
_atom_site_fract_z
_atom_site_charge
C 	C 	0.67877 0.52230 0.09790 0.28600
C 	C 	0.68988 0.69840 0.06850 -0.00900
C 	C 	0.68507 0.72670 0.98110 -0.04600
H 	H 	0.67390 0.63810 0.94080 0.07400
C 	C 	0.69683 0.88670 0.95400 -0.02000
C 	C 	0.71350 0.01950 0.01380 -0.13200
H 	H 	0.72150 0.12670 0.99530 0.08900
C 	C 	0.71820 0.99190 0.10140 0.13200
C 	C 	0.70648 0.83200 0.12850 -0.14200
H 	H 	0.70970 0.81350 0.18720 0.07500
C 	C 	0.69259 0.91460 0.85880 0.33000
C 	C 	0.59660 0.09620 0.03500 0.10200
H 	H 	0.60460 0.18690 0.00370 -0.00200
C 	C 	0.56580 0.96740 0.99000 -0.17900
H 	H 	0.55310 0.97300 0.92960 0.09600
C 	C 	0.55380 0.83160 0.03460 0.12900
C 	C 	0.57300 0.82870 0.12370 -0.17200
H 	H 	0.56590 0.73790 0.15600 0.09900
C 	C 	0.60300 0.96350 0.16480 0.09400
H 	H 	0.61510 0.96260 0.22540 -0.01100
C 	C 	0.52290 0.69080 0.98720 -0.04900
H 	H 	0.50890 0.69770 0.92710 0.05800
N 	N 	0.73247 0.12930 0.16420 -0.49200
N 	N 	0.61526 0.09480 0.12140 -0.27500
N 	N 	0.51540 0.56160 0.02800 -0.07700
O 	O 	0.66488 0.40400 0.04380 -0.33500
O 	O 	0.68498 0.49900 0.17902 -0.44700
O 	O 	0.70427 0.05570 0.83453 -0.31500
O 	O 	0.67639 0.78500 0.80947 -0.46500
Zn	Zn	0.67245 0.24759 0.18778 1.20700
H 	H 	0.74500 0.20600 0.15400 0.23700
H 	H 	0.75290 0.08200 0.21400 0.15200
C 	C 	0.32123 0.52230 0.40210 0.28800
C 	C 	0.31012 0.69840 0.43150 -0.01100
C 	C 	0.31493 0.72670 0.51890 -0.04100
H 	H 	0.32610 0.63810 0.55920 0.07400
C 	C 	0.30317 0.88670 0.54600 -0.02200
C 	C 	0.28650 0.01950 0.48620 -0.12400
H 	H 	0.27850 0.12670 0.50470 0.08700
C 	C 	0.28180 0.99190 0.39860 0.12900
C 	C 	0.29352 0.83200 0.37150 -0.13800
H 	H 	0.29030 0.81350 0.31280 0.07500
C 	C 	0.30741 0.91460 0.64120 0.33200
C 	C 	0.40340 0.09620 0.46500 0.10000
H 	H 	0.39540 0.18690 0.49630 -0.00100
C 	C 	0.43420 0.96740 0.51000 -0.17400
H 	H 	0.44690 0.97300 0.57040 0.09400
C 	C 	0.44620 0.83160 0.46540 0.12400
C 	C 	0.42700 0.82870 0.37630 -0.16900
H 	H 	0.43410 0.73790 0.34400 0.09800
C 	C 	0.39700 0.96350 0.33520 0.09100
H 	H 	0.38490 0.96260 0.27460 -0.01000
C 	C 	0.47710 0.69080 0.51280 -0.04600
H 	H 	0.49110 0.69770 0.57290 0.05700
N 	N 	0.26753 0.12930 0.33580 -0.49000
N 	N 	0.38474 0.09480 0.37860 -0.27400
N 	N 	0.48460 0.56160 0.47200 -0.07800
O 	O 	0.33512 0.40400 0.45620 -0.33500
O 	O 	0.31502 0.49900 0.32098 -0.44800
O 	O 	0.29573 0.05570 0.66547 -0.31600
O 	O 	0.32361 0.78500 0.69053 -0.46500
Zn	Zn	0.32755 0.24759 0.31222 1.20700
H 	H 	0.25500 0.20600 0.34600 0.23600
H 	H 	0.24710 0.08200 0.28600 0.15200
C 	C 	0.32123 0.47770 0.90210 0.28700
C 	C 	0.31012 0.30160 0.93150 -0.00800
C 	C 	0.31493 0.27330 0.01890 -0.04500
H 	H 	0.32610 0.36190 0.05920 0.07500
C 	C 	0.30317 0.11330 0.04600 -0.01900
C 	C 	0.28650 0.98050 0.98620 -0.13100
H 	H 	0.27850 0.87330 0.00470 0.09000
C 	C 	0.28180 0.00810 0.89860 0.13300
C 	C 	0.29352 0.16800 0.87150 -0.14100
H 	H 	0.29030 0.18650 0.81280 0.07600
C 	C 	0.30741 0.08540 0.14120 0.33000
C 	C 	0.40340 0.90380 0.96500 0.10200
H 	H 	0.39540 0.81310 0.99630 -0.00200
C 	C 	0.43420 0.03260 0.01000 -0.17900
H 	H 	0.44690 0.02700 0.07040 0.09600
C 	C 	0.44620 0.16840 0.96540 0.12900
C 	C 	0.42700 0.17130 0.87630 -0.17200
H 	H 	0.43410 0.26210 0.84400 0.09900
C 	C 	0.39700 0.03650 0.83520 0.09400
H 	H 	0.38490 0.03740 0.77460 -0.01100
C 	C 	0.47710 0.30920 0.01280 -0.04900
H 	H 	0.49110 0.30230 0.07290 0.05800
N 	N 	0.26753 0.87070 0.83580 -0.49200
N 	N 	0.38474 0.90520 0.87860 -0.27500
N 	N 	0.48460 0.43840 0.97200 -0.07700
O 	O 	0.33512 0.59600 0.95620 -0.33500
O 	O 	0.31502 0.50100 0.82098 -0.44700
O 	O 	0.29573 0.94430 0.16547 -0.31500
O 	O 	0.32361 0.21500 0.19053 -0.46500
Zn	Zn	0.32755 0.75241 0.81222 1.20700
H 	H 	0.25500 0.79400 0.84600 0.23700
H 	H 	0.24710 0.91800 0.78600 0.15200
C 	C 	0.67877 0.47770 0.59790 0.28800
C 	C 	0.68988 0.30160 0.56850 -0.01100
C 	C 	0.68507 0.27330 0.48110 -0.04100
H 	H 	0.67390 0.36190 0.44080 0.07400
C 	C 	0.69683 0.11330 0.45400 -0.02200
C 	C 	0.71350 0.98050 0.51380 -0.12400
H 	H 	0.72150 0.87330 0.49530 0.08700
C 	C 	0.71820 0.00810 0.60140 0.12900
C 	C 	0.70648 0.16800 0.62850 -0.13800
H 	H 	0.70970 0.18650 0.68720 0.07500
C 	C 	0.69259 0.08540 0.35880 0.33200
C 	C 	0.59660 0.90380 0.53500 0.10000
H 	H 	0.60460 0.81310 0.50370 -0.00100
C 	C 	0.56580 0.03260 0.49000 -0.17400
H 	H 	0.55310 0.02700 0.42960 0.09400
C 	C 	0.55380 0.16840 0.53460 0.12400
C 	C 	0.57300 0.17130 0.62370 -0.16900
H 	H 	0.56590 0.26210 0.65600 0.09800
C 	C 	0.60300 0.03650 0.66480 0.09100
H 	H 	0.61510 0.03740 0.72540 -0.01000
C 	C 	0.52290 0.30920 0.48720 -0.04600
H 	H 	0.50890 0.30230 0.42710 0.05700
N 	N 	0.73247 0.87070 0.66420 -0.49000
N 	N 	0.61526 0.90520 0.62140 -0.27400
N 	N 	0.51540 0.43840 0.52800 -0.07800
O 	O 	0.66488 0.59600 0.54380 -0.33500
O 	O 	0.68498 0.50100 0.67902 -0.44800
O 	O 	0.70427 0.94430 0.33453 -0.31600
O 	O 	0.67639 0.21500 0.30947 -0.46500
Zn	Zn	0.67245 0.75241 0.68778 1.20700
H 	H 	0.74500 0.79400 0.65400 0.23600
H 	H 	0.75290 0.91800 0.71400 0.15200
C 	C 	0.17877 0.02230 0.09790 0.28500
C 	C 	0.18988 0.19840 0.06850 -0.01100
C 	C 	0.18507 0.22670 0.98110 -0.04100
H 	H 	0.17390 0.13810 0.94080 0.07400
C 	C 	0.19683 0.38670 0.95400 -0.02300
C 	C 	0.21350 0.51950 0.01380 -0.12400
H 	H 	0.22150 0.62670 0.99530 0.08600
C 	C 	0.21820 0.49190 0.10140 0.12900
C 	C 	0.20648 0.33200 0.12850 -0.13800
H 	H 	0.20970 0.31350 0.18720 0.07500
C 	C 	0.19259 0.41460 0.85880 0.33300
C 	C 	0.09660 0.59620 0.03500 0.09900
H 	H 	0.10460 0.68690 0.00370 -0.00100
C 	C 	0.06580 0.46740 0.99000 -0.17200
H 	H 	0.05310 0.47300 0.92960 0.09400
C 	C 	0.05380 0.33160 0.03460 0.12100
C 	C 	0.07300 0.32870 0.12370 -0.16700
H 	H 	0.06590 0.23790 0.15600 0.09700
C 	C 	0.10300 0.46350 0.16480 0.09000
H 	H 	0.11510 0.46260 0.22540 -0.01000
C 	C 	0.02290 0.19080 0.98720 -0.04300
H 	H 	0.00890 0.19770 0.92710 0.05600
N 	N 	0.23247 0.62930 0.16420 -0.49000
N 	N 	0.11526 0.59480 0.12140 -0.27300
N 	N 	0.01540 0.06160 0.02800 -0.07900
O 	O 	0.16488 0.90400 0.04380 -0.33300
O 	O 	0.18498 0.99900 0.17902 -0.44600
O 	O 	0.20427 0.55570 0.83453 -0.31700
O 	O 	0.17639 0.28500 0.80947 -0.46600
Zn	Zn	0.17245 0.74759 0.18778 1.20700
H 	H 	0.24500 0.70600 0.15400 0.23600
H 	H 	0.25290 0.58200 0.21400 0.15200
C 	C 	0.82123 0.02230 0.40210 0.28600
C 	C 	0.81012 0.19840 0.43150 -0.01100
C 	C 	0.81493 0.22670 0.51890 -0.04200
H 	H 	0.82610 0.13810 0.55920 0.07400
C 	C 	0.80317 0.38670 0.54600 -0.02200
C 	C 	0.78650 0.51950 0.48620 -0.12400
H 	H 	0.77850 0.62670 0.50470 0.08700
C 	C 	0.78180 0.49190 0.39860 0.12900
C 	C 	0.79352 0.33200 0.37150 -0.13900
H 	H 	0.79030 0.31350 0.31280 0.07500
C 	C 	0.80741 0.41460 0.64120 0.33300
C 	C 	0.90340 0.59620 0.46500 0.10000
H 	H 	0.89540 0.68690 0.49630 -0.00100
C 	C 	0.93420 0.46740 0.51000 -0.17400
H 	H 	0.94690 0.47300 0.57040 0.09400
C 	C 	0.94620 0.33160 0.46540 0.12400
C 	C 	0.92700 0.32870 0.37630 -0.16900
H 	H 	0.93410 0.23790 0.34400 0.09800
C 	C 	0.89700 0.46350 0.33520 0.09100
H 	H 	0.88490 0.46260 0.27460 -0.01000
C 	C 	0.97710 0.19080 0.51280 -0.04600
H 	H 	0.99110 0.19770 0.57290 0.05700
N 	N 	0.76753 0.62930 0.33580 -0.49000
N 	N 	0.88474 0.59480 0.37860 -0.27300
N 	N 	0.98460 0.06160 0.47200 -0.07800
O 	O 	0.83512 0.90400 0.45620 -0.33400
O 	O 	0.81502 0.99900 0.32098 -0.44700
O 	O 	0.79573 0.55570 0.66547 -0.31700
O 	O 	0.82361 0.28500 0.69053 -0.46500
Zn	Zn	0.82755 0.74759 0.31222 1.20700
H 	H 	0.75500 0.70600 0.34600 0.23600
H 	H 	0.74710 0.58200 0.28600 0.15200
C 	C 	0.82123 0.97770 0.90210 0.28500
C 	C 	0.81012 0.80160 0.93150 -0.01100
C 	C 	0.81493 0.77330 0.01890 -0.04100
H 	H 	0.82610 0.86190 0.05920 0.07400
C 	C 	0.80317 0.61330 0.04600 -0.02300
C 	C 	0.78650 0.48050 0.98620 -0.12400
H 	H 	0.77850 0.37330 0.00470 0.08600
C 	C 	0.78180 0.50810 0.89860 0.12900
C 	C 	0.79352 0.66800 0.87150 -0.13800
H 	H 	0.79030 0.68650 0.81280 0.07500
C 	C 	0.80741 0.58540 0.14120 0.33300
C 	C 	0.90340 0.40380 0.96500 0.09900
H 	H 	0.89540 0.31310 0.99630 -0.00100
C 	C 	0.93420 0.53260 0.01000 -0.17200
H 	H 	0.94690 0.52700 0.07040 0.09400
C 	C 	0.94620 0.66840 0.96540 0.12100
C 	C 	0.92700 0.67130 0.87630 -0.16700
H 	H 	0.93410 0.76210 0.84400 0.09700
C 	C 	0.89700 0.53650 0.83520 0.09000
H 	H 	0.88490 0.53740 0.77460 -0.01000
C 	C 	0.97710 0.80920 0.01280 -0.04300
H 	H 	0.99110 0.80230 0.07290 0.05600
N 	N 	0.76753 0.37070 0.83580 -0.49000
N 	N 	0.88474 0.40520 0.87860 -0.27300
N 	N 	0.98460 0.93840 0.97200 -0.07900
O 	O 	0.83512 0.09600 0.95620 -0.33300
O 	O 	0.81502 0.00100 0.82098 -0.44600
O 	O 	0.79573 0.44430 0.16547 -0.31700
O 	O 	0.82361 0.71500 0.19053 -0.46600
Zn	Zn	0.82755 0.25241 0.81222 1.20700
H 	H 	0.75500 0.29400 0.84600 0.23600
H 	H 	0.74710 0.41800 0.78600 0.15200
C 	C 	0.17877 0.97770 0.59790 0.28600
C 	C 	0.18988 0.80160 0.56850 -0.01100
C 	C 	0.18507 0.77330 0.48110 -0.04200
H 	H 	0.17390 0.86190 0.44080 0.07400
C 	C 	0.19683 0.61330 0.45400 -0.02200
C 	C 	0.21350 0.48050 0.51380 -0.12400
H 	H 	0.22150 0.37330 0.49530 0.08700
C 	C 	0.21820 0.50810 0.60140 0.12900
C 	C 	0.20648 0.66800 0.62850 -0.13900
H 	H 	0.20970 0.68650 0.68720 0.07500
C 	C 	0.19259 0.58540 0.35880 0.33300
C 	C 	0.09660 0.40380 0.53500 0.10000
H 	H 	0.10460 0.31310 0.50370 -0.00100
C 	C 	0.06580 0.53260 0.49000 -0.17400
H 	H 	0.05310 0.52700 0.42960 0.09400
C 	C 	0.05380 0.66840 0.53460 0.12400
C 	C 	0.07300 0.67130 0.62370 -0.16900
H 	H 	0.06590 0.76210 0.65600 0.09800
C 	C 	0.10300 0.53650 0.66480 0.09100
H 	H 	0.11510 0.53740 0.72540 -0.01000
C 	C 	0.02290 0.80920 0.48720 -0.04600
H 	H 	0.00890 0.80230 0.42710 0.05700
N 	N 	0.23247 0.37070 0.66420 -0.49000
N 	N 	0.11526 0.40520 0.62140 -0.27300
N 	N 	0.01540 0.93840 0.52800 -0.07800
O 	O 	0.16488 0.09600 0.54380 -0.33400
O 	O 	0.18498 0.00100 0.67902 -0.44700
O 	O 	0.20427 0.44430 0.33453 -0.31700
O 	O 	0.17639 0.71500 0.30947 -0.46500
Zn	Zn	0.17245 0.25241 0.68778 1.20700
H 	H 	0.24500 0.29400 0.65400 0.23600
H 	H 	0.25290 0.41800 0.71400 0.15200
