data_crystal

_cell_length_a 16.33700
_cell_length_b 11.92500
_cell_length_c 14.00700
_cell_angle_alpha 90.00000
_cell_angle_beta  100.84000
_cell_angle_gamma 90.00000

_symmetry_space_group_name_	'P 1'
_symmetry_space_group_name_H-M	'P 1'

loop_
_symmetry_equiv_pos_as_xyz
  x,y,z

loop_
_atom_site_label
_atom_site_type_symbol
_atom_site_fract_x
_atom_site_fract_y
_atom_site_fract_z
_atom_site_charge
Zn	Zn	0.28366 0.02044 0.22162 1.09800
S 	S 	0.02524 0.13483 0.90363 0.44300
O 	O 	0.93915 0.13558 0.90466 -0.29500
O 	O 	0.06536 0.06263 0.84738 -0.28200
N 	N 	0.17402 0.07586 0.14069 -0.30600
N 	N 	0.07400 0.11753 0.01806 -0.16700
N 	N 	0.04974 0.26484 0.87662 -0.16600
N 	N 	0.12333 0.40310 0.83252 -0.31100
C 	C 	0.15216 0.07390 0.04600 0.11900
H 	H 	0.18510 0.04680 0.00370 -0.06500
C 	C 	0.10741 0.12380 0.17610 -0.03200
H 	H 	0.10610 0.13540 0.24140 -0.00700
C 	C 	0.04590 0.15060 0.10230 0.02800
H 	H 	0.99520 0.18420 0.10610 0.00200
C 	C 	0.12008 0.29370 0.84229 0.10100
H 	H 	0.15960 0.24340 0.82800 -0.06900
C 	C 	0.05273 0.44710 0.86290 -0.03700
H 	H 	0.03930 0.52280 0.86320 -0.02900
C 	C 	0.00739 0.36350 0.89130 0.00000
H 	H 	0.95840 0.37000 0.91560 -0.01700
Zn	Zn	0.21634 0.47956 0.77838 1.09700
S 	S 	0.47476 0.36517 0.09637 0.44300
O 	O 	0.56085 0.36442 0.09534 -0.29900
O 	O 	0.43464 0.43737 0.15262 -0.28500
N 	N 	0.32598 0.42414 0.85931 -0.30700
N 	N 	0.42600 0.38247 0.98194 -0.16700
N 	N 	0.45026 0.23516 0.12338 -0.16800
N 	N 	0.37667 0.09690 0.16748 -0.31100
C 	C 	0.34784 0.42610 0.95400 0.11800
H 	H 	0.31490 0.45320 0.99630 -0.06600
C 	C 	0.39259 0.37620 0.82390 -0.02900
H 	H 	0.39390 0.36460 0.75860 -0.00800
C 	C 	0.45410 0.34940 0.89770 0.02500
H 	H 	0.50480 0.31580 0.89390 0.00600
C 	C 	0.37992 0.20630 0.15771 0.10100
H 	H 	0.34040 0.25660 0.17200 -0.06900
C 	C 	0.44727 0.05290 0.13710 -0.04500
H 	H 	0.46070 0.97720 0.13680 -0.02300
C 	C 	0.49261 0.13650 0.10870 0.00700
H 	H 	0.54160 0.13000 0.08440 -0.02100
Zn	Zn	0.78366 0.52044 0.22162 1.09700
S 	S 	0.52524 0.63483 0.90363 0.44300
O 	O 	0.43915 0.63558 0.90466 -0.29900
O 	O 	0.56536 0.56263 0.84738 -0.28500
N 	N 	0.67402 0.57586 0.14069 -0.30700
N 	N 	0.57400 0.61753 0.01806 -0.16700
N 	N 	0.54974 0.76484 0.87662 -0.16800
N 	N 	0.62333 0.90310 0.83252 -0.31100
C 	C 	0.65216 0.57390 0.04600 0.11800
H 	H 	0.68510 0.54680 0.00370 -0.06600
C 	C 	0.60741 0.62380 0.17610 -0.02900
H 	H 	0.60610 0.63540 0.24140 -0.00800
C 	C 	0.54590 0.65060 0.10230 0.02500
H 	H 	0.49520 0.68420 0.10610 0.00600
C 	C 	0.62008 0.79370 0.84229 0.10100
H 	H 	0.65960 0.74340 0.82800 -0.06900
C 	C 	0.55273 0.94710 0.86290 -0.04500
H 	H 	0.53930 0.02280 0.86320 -0.02300
C 	C 	0.50739 0.86350 0.89130 0.00700
H 	H 	0.45840 0.87000 0.91560 -0.02100
Zn	Zn	0.71634 0.97956 0.77838 1.09700
S 	S 	0.97476 0.86517 0.09637 0.44200
O 	O 	0.06085 0.86442 0.09534 -0.29600
O 	O 	0.93464 0.93737 0.15262 -0.28300
N 	N 	0.82598 0.92414 0.85931 -0.30700
N 	N 	0.92600 0.88247 0.98194 -0.16800
N 	N 	0.95026 0.73516 0.12338 -0.16700
N 	N 	0.87667 0.59690 0.16748 -0.31200
C 	C 	0.84784 0.92610 0.95400 0.11800
H 	H 	0.81490 0.95320 0.99630 -0.06600
C 	C 	0.89259 0.87620 0.82390 -0.03200
H 	H 	0.89390 0.86460 0.75860 -0.00700
C 	C 	0.95410 0.84940 0.89770 0.02800
H 	H 	0.00480 0.81580 0.89390 0.00200
C 	C 	0.87992 0.70630 0.15771 0.10100
H 	H 	0.84040 0.75660 0.17200 -0.06900
C 	C 	0.94727 0.55290 0.13710 -0.03700
H 	H 	0.96070 0.47720 0.13680 -0.02900
C 	C 	0.99261 0.63650 0.10870 0.00000
H 	H 	0.04160 0.63000 0.08440 -0.01700
Zn	Zn	0.71634 0.02044 0.27838 1.09700
S 	S 	0.97476 0.13483 0.59637 0.44300
O 	O 	0.06085 0.13558 0.59534 -0.29800
O 	O 	0.93464 0.06263 0.65262 -0.28400
N 	N 	0.82598 0.07586 0.35931 -0.30700
N 	N 	0.92600 0.11753 0.48194 -0.16700
N 	N 	0.95026 0.26484 0.62338 -0.16800
N 	N 	0.87667 0.40310 0.66748 -0.31200
C 	C 	0.84784 0.07390 0.45400 0.11800
H 	H 	0.81490 0.04680 0.49630 -0.06500
C 	C 	0.89259 0.12380 0.32390 -0.02900
H 	H 	0.89390 0.13540 0.25860 -0.00800
C 	C 	0.95410 0.15060 0.39770 0.02300
H 	H 	0.00480 0.18420 0.39390 0.00600
C 	C 	0.87992 0.29370 0.65771 0.10200
H 	H 	0.84040 0.24340 0.67200 -0.06900
C 	C 	0.94727 0.44710 0.63710 -0.03900
H 	H 	0.96070 0.52280 0.63680 -0.02800
C 	C 	0.99261 0.36350 0.60870 0.00400
H 	H 	0.04160 0.37000 0.58440 -0.02000
Zn	Zn	0.78366 0.47956 0.72162 1.09700
S 	S 	0.52524 0.36517 0.40363 0.44300
O 	O 	0.43915 0.36442 0.40466 -0.29900
O 	O 	0.56536 0.43737 0.34738 -0.28500
N 	N 	0.67402 0.42414 0.64069 -0.30700
N 	N 	0.57400 0.38247 0.51806 -0.16700
N 	N 	0.54974 0.23516 0.37662 -0.16800
N 	N 	0.62333 0.09690 0.33252 -0.31200
C 	C 	0.65216 0.42610 0.54600 0.11800
H 	H 	0.68510 0.45320 0.50370 -0.06500
C 	C 	0.60741 0.37620 0.67610 -0.03000
H 	H 	0.60610 0.36460 0.74140 -0.00700
C 	C 	0.54590 0.34940 0.60230 0.02400
H 	H 	0.49520 0.31580 0.60610 0.00500
C 	C 	0.62008 0.20630 0.34229 0.10200
H 	H 	0.65960 0.25660 0.32800 -0.06900
C 	C 	0.55273 0.05290 0.36290 -0.04100
H 	H 	0.53930 0.97720 0.36320 -0.02600
C 	C 	0.50739 0.13650 0.39130 0.00600
H 	H 	0.45840 0.13000 0.41560 -0.02000
Zn	Zn	0.21634 0.52044 0.27838 1.09700
S 	S 	0.47476 0.63483 0.59637 0.44300
O 	O 	0.56085 0.63558 0.59534 -0.29900
O 	O 	0.43464 0.56263 0.65262 -0.28500
N 	N 	0.32598 0.57586 0.35931 -0.30700
N 	N 	0.42600 0.61753 0.48194 -0.16700
N 	N 	0.45026 0.76484 0.62338 -0.16800
N 	N 	0.37667 0.90310 0.66748 -0.31200
C 	C 	0.34784 0.57390 0.45400 0.11800
H 	H 	0.31490 0.54680 0.49630 -0.06500
C 	C 	0.39259 0.62380 0.32390 -0.03000
H 	H 	0.39390 0.63540 0.25860 -0.00700
C 	C 	0.45410 0.65060 0.39770 0.02400
H 	H 	0.50480 0.68420 0.39390 0.00500
C 	C 	0.37992 0.79370 0.65771 0.10200
H 	H 	0.34040 0.74340 0.67200 -0.06900
C 	C 	0.44727 0.94710 0.63710 -0.04100
H 	H 	0.46070 0.02280 0.63680 -0.02600
C 	C 	0.49261 0.86350 0.60870 0.00600
H 	H 	0.54160 0.87000 0.58440 -0.02000
Zn	Zn	0.28366 0.97956 0.72162 1.09700
S 	S 	0.02524 0.86517 0.40363 0.44300
O 	O 	0.93915 0.86442 0.40466 -0.29800
O 	O 	0.06536 0.93737 0.34738 -0.28400
N 	N 	0.17402 0.92414 0.64069 -0.30700
N 	N 	0.07400 0.88247 0.51806 -0.16700
N 	N 	0.04974 0.73516 0.37662 -0.16800
N 	N 	0.12333 0.59690 0.33252 -0.31200
C 	C 	0.15216 0.92610 0.54600 0.11800
H 	H 	0.18510 0.95320 0.50370 -0.06500
C 	C 	0.10741 0.87620 0.67610 -0.02900
H 	H 	0.10610 0.86460 0.74140 -0.00800
C 	C 	0.04590 0.84940 0.60230 0.02300
H 	H 	0.99520 0.81580 0.60610 0.00600
C 	C 	0.12008 0.70630 0.34229 0.10200
H 	H 	0.15960 0.75660 0.32800 -0.06900
C 	C 	0.05273 0.55290 0.36290 -0.03900
H 	H 	0.03930 0.47720 0.36320 -0.02800
C 	C 	0.00739 0.63650 0.39130 0.00400
H 	H 	0.95840 0.63000 0.41560 -0.02000
