data_crystal

_cell_length_a 11.51650
_cell_length_b 33.10800
_cell_length_c 15.34900
_cell_angle_alpha 90.00000
_cell_angle_beta  103.07400
_cell_angle_gamma 90.00000

_symmetry_space_group_name_	'P 1'
_symmetry_space_group_name_H-M	'P 1'

loop_
_symmetry_equiv_pos_as_xyz
  x,y,z

loop_
_atom_site_label
_atom_site_type_symbol
_atom_site_fract_x
_atom_site_fract_y
_atom_site_fract_z
_atom_site_charge
C 	C 	0.07760 0.62012 0.87460 -0.15600
C 	C 	0.17180 0.59277 0.88420 0.07400
C 	C 	0.21330 0.57465 0.96540 -0.14800
C 	C 	0.16470 0.58352 0.03860 0.07100
C 	C 	0.07380 0.61209 0.02700 -0.15600
C 	C 	0.31970 0.54678 0.98120 0.39800
C 	C 	0.54610 0.82140 0.85390 0.01700
C 	C 	0.47780 0.84828 0.83070 -0.06900
C 	C 	0.39380 0.87738 0.78400 0.09800
C 	C 	0.37480 0.87894 0.69210 -0.14700
C 	C 	0.29030 0.90431 0.64010 0.06300
C 	C 	0.22530 0.92941 0.68180 -0.13600
C 	C 	0.24310 0.92861 0.77380 0.05800
C 	C 	0.32760 0.90235 0.82620 -0.14200
C 	C 	0.13100 0.95592 0.62670 0.37100
C 	C 	0.56460 0.76921 0.02340 -0.08100
C 	C 	0.50380 0.72892 0.02140 0.02400
C 	C 	0.58470 0.69675 0.03740 0.03200
C 	C 	0.71190 0.71029 0.05550 -0.08600
C 	C 	0.72090 0.73399 0.97210 0.01600
C 	C 	0.79540 0.72391 0.91480 -0.03500
C 	C 	0.78830 0.74773 0.83810 0.01500
C 	C 	0.86280 0.74255 0.76850 -0.08200
C 	C 	0.77270 0.73555 0.68100 0.02600
C 	C 	0.68800 0.76602 0.66050 0.02700
C 	C 	0.70720 0.79953 0.73020 -0.08800
C 	C 	0.70570 0.77896 0.81900 0.01600
C 	C 	0.63200 0.78872 0.87650 -0.03300
C 	C 	0.64180 0.76543 0.95370 0.01300
C 	C 	0.38310 0.72120 0.00500 -0.07000
C 	C 	0.34450 0.68120 0.00430 -0.03000
C 	C 	0.42340 0.64950 0.01870 -0.02300
C 	C 	0.54480 0.65720 0.03610 -0.08000
C 	C 	0.76920 0.70241 0.62650 -0.07300
C 	C 	0.67750 0.69980 0.54890 -0.03300
C 	C 	0.59380 0.72940 0.52950 -0.02900
C 	C 	0.59810 0.76270 0.58610 -0.07400
C 	C 	0.65050 0.77259 0.11360 0.02300
C 	C 	0.73040 0.74088 0.13060 0.02900
C 	C 	0.81670 0.73914 0.20990 -0.07500
C 	C 	0.81930 0.76990 0.27260 -0.02800
C 	C 	0.73930 0.80120 0.25610 -0.03200
C 	C 	0.65370 0.80298 0.17750 -0.07100
C 	C 	0.83470 0.81521 0.74080 0.03300
C 	C 	0.91840 0.78437 0.76090 0.02200
C 	C 	0.03810 0.79350 0.77530 -0.06300
C 	C 	0.07260 0.83370 0.76820 -0.04300
C 	C 	0.98720 0.86320 0.74840 -0.01300
C 	C 	0.86900 0.85470 0.73420 -0.08000
C 	C 	0.87240 0.68916 0.92900 0.01800
C 	C 	0.94000 0.66160 0.93560 -0.07600
C 	C 	0.02950 0.63078 0.94570 0.10600
Zn	Zn	0.46553 0.48261 0.07945 1.19500
O 	O 	0.33890 0.52462 0.04860 -0.49000
O 	O 	0.38280 0.54811 0.92210 -0.47700
O 	O 	0.07180 0.97845 0.66720 -0.44700
O 	O 	0.11750 0.95347 0.54160 -0.47400
H 	H 	0.04570 0.63160 0.81800 0.07900
H 	H 	0.20660 0.58660 0.83600 0.01400
H 	H 	0.19370 0.57100 0.09400 0.01500
H 	H 	0.04060 0.61840 0.07530 0.08100
H 	H 	0.42030 0.86150 0.66450 0.07400
H 	H 	0.27860 0.90470 0.57730 0.01400
H 	H 	0.19730 0.94600 0.80150 0.02200
H 	H 	0.33950 0.90140 0.88950 0.07600
H 	H 	0.50860 0.79210 0.01120 0.05700
H 	H 	0.76750 0.68720 0.06790 0.05700
H 	H 	0.92220 0.72080 0.78340 0.05800
H 	H 	0.64540 0.82000 0.71410 0.05800
H 	H 	0.32870 0.74300 0.99270 0.05700
H 	H 	0.26250 0.67590 0.99410 0.04500
H 	H 	0.39530 0.62280 0.01670 0.04500
H 	H 	0.59870 0.63580 0.04740 0.06200
H 	H 	0.82650 0.68170 0.64090 0.05100
H 	H 	0.67400 0.67730 0.51210 0.03900
H 	H 	0.53260 0.72740 0.47820 0.04400
H 	H 	0.53890 0.78300 0.57330 0.05600
H 	H 	0.87040 0.71720 0.22050 0.05800
H 	H 	0.87710 0.76940 0.32750 0.04300
H 	H 	0.74380 0.82180 0.29940 0.04000
H 	H 	0.59770 0.82420 0.16570 0.05000
H 	H 	0.09530 0.77250 0.78980 0.05500
H 	H 	0.15230 0.84020 0.77760 0.05000
H 	H 	0.01060 0.89010 0.74430 0.03900
H 	H 	0.81040 0.87510 0.72030 0.05800
C 	C 	0.42240 0.12012 0.62540 -0.15700
C 	C 	0.32820 0.09277 0.61580 0.07500
C 	C 	0.28670 0.07465 0.53460 -0.14800
C 	C 	0.33530 0.08352 0.46140 0.07200
C 	C 	0.42620 0.11209 0.47300 -0.15700
C 	C 	0.18030 0.04678 0.51880 0.39800
C 	C 	0.95390 0.32140 0.64610 0.01500
C 	C 	0.02220 0.34828 0.66930 -0.06700
C 	C 	0.10620 0.37738 0.71600 0.09700
C 	C 	0.12520 0.37894 0.80790 -0.14600
C 	C 	0.20970 0.40431 0.85990 0.06300
C 	C 	0.27470 0.42941 0.81820 -0.13500
C 	C 	0.25690 0.42861 0.72620 0.05800
C 	C 	0.17240 0.40235 0.67380 -0.14200
C 	C 	0.36900 0.45592 0.87330 0.37100
C 	C 	0.93540 0.26921 0.47660 -0.08000
C 	C 	0.99620 0.22892 0.47860 0.02100
C 	C 	0.91530 0.19675 0.46260 0.03400
C 	C 	0.78810 0.21029 0.44450 -0.08800
C 	C 	0.77910 0.23399 0.52790 0.01700
C 	C 	0.70460 0.22391 0.58520 -0.03600
C 	C 	0.71170 0.24773 0.66190 0.01500
C 	C 	0.63720 0.24255 0.73150 -0.08200
C 	C 	0.72730 0.23555 0.81900 0.02600
C 	C 	0.81200 0.26602 0.83950 0.02700
C 	C 	0.79280 0.29953 0.76980 -0.08700
C 	C 	0.79430 0.27896 0.68100 0.01500
C 	C 	0.86800 0.28872 0.62350 -0.03200
C 	C 	0.85820 0.26543 0.54630 0.01200
C 	C 	0.11690 0.22120 0.49500 -0.06700
C 	C 	0.15550 0.18120 0.49570 -0.03400
C 	C 	0.07660 0.14950 0.48130 -0.01800
C 	C 	0.95520 0.15720 0.46390 -0.08400
C 	C 	0.73080 0.20241 0.87350 -0.07300
C 	C 	0.82250 0.19980 0.95110 -0.03400
C 	C 	0.90620 0.22940 0.97050 -0.02800
C 	C 	0.90190 0.26270 0.91390 -0.07400
C 	C 	0.84950 0.27259 0.38640 0.02200
C 	C 	0.76960 0.24088 0.36940 0.02900
C 	C 	0.68330 0.23914 0.29010 -0.07600
C 	C 	0.68070 0.26990 0.22740 -0.02700
C 	C 	0.76070 0.30120 0.24390 -0.03300
C 	C 	0.84630 0.30298 0.32250 -0.07000
C 	C 	0.66530 0.31521 0.75920 0.03100
C 	C 	0.58160 0.28437 0.73910 0.02200
C 	C 	0.46190 0.29350 0.72470 -0.06400
C 	C 	0.42740 0.33370 0.73180 -0.03900
C 	C 	0.51280 0.36320 0.75160 -0.01900
C 	C 	0.63100 0.35470 0.76580 -0.07700
C 	C 	0.62760 0.18916 0.57100 0.01900
C 	C 	0.56000 0.16160 0.56440 -0.07700
C 	C 	0.47050 0.13078 0.55430 0.10800
Zn	Zn	0.03447 0.98261 0.42055 1.19500
O 	O 	0.16110 0.02462 0.45140 -0.49000
O 	O 	0.11720 0.04811 0.57790 -0.47700
O 	O 	0.42820 0.47845 0.83280 -0.44700
O 	O 	0.38250 0.45347 0.95840 -0.47400
H 	H 	0.45430 0.13160 0.68200 0.08000
H 	H 	0.29340 0.08660 0.66400 0.01400
H 	H 	0.30630 0.07100 0.40600 0.01500
H 	H 	0.45940 0.11840 0.42470 0.08200
H 	H 	0.07970 0.36150 0.83550 0.07400
H 	H 	0.22140 0.40470 0.92270 0.01400
H 	H 	0.30270 0.44600 0.69850 0.02200
H 	H 	0.16050 0.40140 0.61050 0.07600
H 	H 	0.99140 0.29210 0.48880 0.05600
H 	H 	0.73250 0.18720 0.43210 0.05700
H 	H 	0.57780 0.22080 0.71660 0.05700
H 	H 	0.85460 0.32000 0.78590 0.05800
H 	H 	0.17130 0.24300 0.50730 0.05600
H 	H 	0.23750 0.17590 0.50590 0.04700
H 	H 	0.10470 0.12280 0.48330 0.04300
H 	H 	0.90130 0.13580 0.45260 0.06300
H 	H 	0.67350 0.18170 0.85910 0.05100
H 	H 	0.82600 0.17730 0.98790 0.03900
H 	H 	0.96740 0.22740 0.02180 0.04300
H 	H 	0.96110 0.28300 0.92670 0.05600
H 	H 	0.62960 0.21720 0.27950 0.05800
H 	H 	0.62290 0.26940 0.17250 0.04200
H 	H 	0.75620 0.32180 0.20060 0.04000
H 	H 	0.90230 0.32420 0.33430 0.04900
H 	H 	0.40470 0.27250 0.71020 0.05600
H 	H 	0.34770 0.34020 0.72240 0.04800
H 	H 	0.48940 0.39010 0.75570 0.04200
H 	H 	0.68960 0.37510 0.77970 0.05700
C 	C 	0.92240 0.37988 0.12540 -0.15600
C 	C 	0.82820 0.40723 0.11580 0.07400
C 	C 	0.78670 0.42535 0.03460 -0.14800
C 	C 	0.83530 0.41648 0.96140 0.07100
C 	C 	0.92620 0.38791 0.97300 -0.15600
C 	C 	0.68030 0.45322 0.01880 0.39800
C 	C 	0.45390 0.17860 0.14610 0.01700
C 	C 	0.52220 0.15172 0.16930 -0.06900
C 	C 	0.60620 0.12262 0.21600 0.09800
C 	C 	0.62520 0.12106 0.30790 -0.14700
C 	C 	0.70970 0.09569 0.35990 0.06300
C 	C 	0.77470 0.07059 0.31820 -0.13600
C 	C 	0.75690 0.07139 0.22620 0.05800
C 	C 	0.67240 0.09765 0.17380 -0.14200
C 	C 	0.86900 0.04408 0.37330 0.37100
C 	C 	0.43540 0.23079 0.97660 -0.08100
C 	C 	0.49620 0.27108 0.97860 0.02400
C 	C 	0.41530 0.30325 0.96260 0.03200
C 	C 	0.28810 0.28971 0.94450 -0.08600
C 	C 	0.27910 0.26601 0.02790 0.01600
C 	C 	0.20460 0.27609 0.08520 -0.03500
C 	C 	0.21170 0.25227 0.16190 0.01500
C 	C 	0.13720 0.25745 0.23150 -0.08200
C 	C 	0.22730 0.26445 0.31900 0.02600
C 	C 	0.31200 0.23398 0.33950 0.02700
C 	C 	0.29280 0.20047 0.26980 -0.08800
C 	C 	0.29430 0.22104 0.18100 0.01600
C 	C 	0.36800 0.21128 0.12350 -0.03300
C 	C 	0.35820 0.23457 0.04630 0.01300
C 	C 	0.61690 0.27880 0.99500 -0.07000
C 	C 	0.65550 0.31880 0.99570 -0.03000
C 	C 	0.57660 0.35050 0.98130 -0.02300
C 	C 	0.45520 0.34280 0.96390 -0.08000
C 	C 	0.23080 0.29759 0.37350 -0.07300
C 	C 	0.32250 0.30020 0.45110 -0.03300
C 	C 	0.40620 0.27060 0.47050 -0.02900
C 	C 	0.40190 0.23730 0.41390 -0.07400
C 	C 	0.34950 0.22741 0.88640 0.02300
C 	C 	0.26960 0.25912 0.86940 0.02900
C 	C 	0.18330 0.26086 0.79010 -0.07500
C 	C 	0.18070 0.23010 0.72740 -0.02800
C 	C 	0.26070 0.19880 0.74390 -0.03200
C 	C 	0.34630 0.19702 0.82250 -0.07100
C 	C 	0.16530 0.18479 0.25920 0.03300
C 	C 	0.08160 0.21563 0.23910 0.02200
C 	C 	0.96190 0.20650 0.22470 -0.06300
C 	C 	0.92740 0.16630 0.23180 -0.04300
C 	C 	0.01280 0.13680 0.25160 -0.01300
C 	C 	0.13100 0.14530 0.26580 -0.08000
C 	C 	0.12760 0.31084 0.07100 0.01800
C 	C 	0.06000 0.33840 0.06440 -0.07600
C 	C 	0.97050 0.36922 0.05430 0.10600
Zn	Zn	0.53447 0.51739 0.92055 1.19500
O 	O 	0.66110 0.47538 0.95140 -0.49000
O 	O 	0.61720 0.45189 0.07790 -0.47700
O 	O 	0.92820 0.02155 0.33280 -0.44700
O 	O 	0.88250 0.04653 0.45840 -0.47400
H 	H 	0.95430 0.36840 0.18200 0.07900
H 	H 	0.79340 0.41340 0.16400 0.01400
H 	H 	0.80630 0.42900 0.90600 0.01500
H 	H 	0.95940 0.38160 0.92470 0.08100
H 	H 	0.57970 0.13850 0.33550 0.07400
H 	H 	0.72140 0.09530 0.42270 0.01400
H 	H 	0.80270 0.05400 0.19850 0.02200
H 	H 	0.66050 0.09860 0.11050 0.07600
H 	H 	0.49140 0.20790 0.98880 0.05700
H 	H 	0.23250 0.31280 0.93210 0.05700
H 	H 	0.07780 0.27920 0.21660 0.05800
H 	H 	0.35460 0.18000 0.28590 0.05800
H 	H 	0.67130 0.25700 0.00730 0.05700
H 	H 	0.73750 0.32410 0.00590 0.04500
H 	H 	0.60470 0.37720 0.98330 0.04500
H 	H 	0.40130 0.36420 0.95260 0.06200
H 	H 	0.17350 0.31830 0.35910 0.05100
H 	H 	0.32600 0.32270 0.48790 0.03900
H 	H 	0.46740 0.27260 0.52180 0.04400
H 	H 	0.46110 0.21700 0.42670 0.05600
H 	H 	0.12960 0.28280 0.77950 0.05800
H 	H 	0.12290 0.23060 0.67250 0.04300
H 	H 	0.25620 0.17820 0.70060 0.04000
H 	H 	0.40230 0.17580 0.83430 0.05000
H 	H 	0.90470 0.22750 0.21020 0.05500
H 	H 	0.84770 0.15980 0.22240 0.05000
H 	H 	0.98940 0.10990 0.25570 0.03900
H 	H 	0.18960 0.12490 0.27970 0.05800
C 	C 	0.57760 0.87988 0.37460 -0.15700
C 	C 	0.67180 0.90723 0.38420 0.07500
C 	C 	0.71330 0.92535 0.46540 -0.14800
C 	C 	0.66470 0.91648 0.53860 0.07200
C 	C 	0.57380 0.88791 0.52700 -0.15700
C 	C 	0.81970 0.95322 0.48120 0.39800
C 	C 	0.04610 0.67860 0.35390 0.01500
C 	C 	0.97780 0.65172 0.33070 -0.06700
C 	C 	0.89380 0.62262 0.28400 0.09700
C 	C 	0.87480 0.62106 0.19210 -0.14600
C 	C 	0.79030 0.59569 0.14010 0.06300
C 	C 	0.72530 0.57059 0.18180 -0.13500
C 	C 	0.74310 0.57139 0.27380 0.05800
C 	C 	0.82760 0.59765 0.32620 -0.14200
C 	C 	0.63100 0.54408 0.12670 0.37100
C 	C 	0.06460 0.73079 0.52340 -0.08000
C 	C 	0.00380 0.77108 0.52140 0.02100
C 	C 	0.08470 0.80325 0.53740 0.03400
C 	C 	0.21190 0.78971 0.55550 -0.08800
C 	C 	0.22090 0.76601 0.47210 0.01700
C 	C 	0.29540 0.77609 0.41480 -0.03600
C 	C 	0.28830 0.75227 0.33810 0.01500
C 	C 	0.36280 0.75745 0.26850 -0.08200
C 	C 	0.27270 0.76445 0.18100 0.02600
C 	C 	0.18800 0.73398 0.16050 0.02700
C 	C 	0.20720 0.70047 0.23020 -0.08700
C 	C 	0.20570 0.72104 0.31900 0.01500
C 	C 	0.13200 0.71128 0.37650 -0.03200
C 	C 	0.14180 0.73457 0.45370 0.01200
C 	C 	0.88310 0.77880 0.50500 -0.06700
C 	C 	0.84450 0.81880 0.50430 -0.03400
C 	C 	0.92340 0.85050 0.51870 -0.01800
C 	C 	0.04480 0.84280 0.53610 -0.08400
C 	C 	0.26920 0.79759 0.12650 -0.07300
C 	C 	0.17750 0.80020 0.04890 -0.03400
C 	C 	0.09380 0.77060 0.02950 -0.02800
C 	C 	0.09810 0.73730 0.08610 -0.07400
C 	C 	0.15050 0.72741 0.61360 0.02200
C 	C 	0.23040 0.75912 0.63060 0.02900
C 	C 	0.31670 0.76086 0.70990 -0.07600
C 	C 	0.31930 0.73010 0.77260 -0.02700
C 	C 	0.23930 0.69880 0.75610 -0.03300
C 	C 	0.15370 0.69702 0.67750 -0.07000
C 	C 	0.33470 0.68479 0.24080 0.03100
C 	C 	0.41840 0.71563 0.26090 0.02200
C 	C 	0.53810 0.70650 0.27530 -0.06400
C 	C 	0.57260 0.66630 0.26820 -0.03900
C 	C 	0.48720 0.63680 0.24840 -0.01900
C 	C 	0.36900 0.64530 0.23420 -0.07700
C 	C 	0.37240 0.81084 0.42900 0.01900
C 	C 	0.44000 0.83840 0.43560 -0.07700
C 	C 	0.52950 0.86922 0.44570 0.10800
Zn	Zn	0.96553 0.01739 0.57945 1.19500
O 	O 	0.83890 0.97538 0.54860 -0.49000
O 	O 	0.88280 0.95189 0.42210 -0.47700
O 	O 	0.57180 0.52155 0.16720 -0.44700
O 	O 	0.61750 0.54653 0.04160 -0.47400
H 	H 	0.54570 0.86840 0.31800 0.08000
H 	H 	0.70660 0.91340 0.33600 0.01400
H 	H 	0.69370 0.92900 0.59400 0.01500
H 	H 	0.54060 0.88160 0.57530 0.08200
H 	H 	0.92030 0.63850 0.16450 0.07400
H 	H 	0.77860 0.59530 0.07730 0.01400
H 	H 	0.69730 0.55400 0.30150 0.02200
H 	H 	0.83950 0.59860 0.38950 0.07600
H 	H 	0.00860 0.70790 0.51120 0.05600
H 	H 	0.26750 0.81280 0.56790 0.05700
H 	H 	0.42220 0.77920 0.28340 0.05700
H 	H 	0.14540 0.68000 0.21410 0.05800
H 	H 	0.82870 0.75700 0.49270 0.05600
H 	H 	0.76250 0.82410 0.49410 0.04700
H 	H 	0.89530 0.87720 0.51670 0.04300
H 	H 	0.09870 0.86420 0.54740 0.06300
H 	H 	0.32650 0.81830 0.14090 0.05100
H 	H 	0.17400 0.82270 0.01210 0.03900
H 	H 	0.03260 0.77260 0.97820 0.04300
H 	H 	0.03890 0.71700 0.07330 0.05600
H 	H 	0.37040 0.78280 0.72050 0.05800
H 	H 	0.37710 0.73060 0.82750 0.04200
H 	H 	0.24380 0.67820 0.79940 0.04000
H 	H 	0.09770 0.67580 0.66570 0.04900
H 	H 	0.59530 0.72750 0.28980 0.05600
H 	H 	0.65230 0.65980 0.27760 0.04800
H 	H 	0.51060 0.60990 0.24430 0.04200
H 	H 	0.31040 0.62490 0.22030 0.05700
