data_crystal

_cell_length_a 8.29530
_cell_length_b 10.62580
_cell_length_c 12.45740
_cell_angle_alpha 83.38900
_cell_angle_beta  81.47900
_cell_angle_gamma 84.41900

_symmetry_space_group_name_	'P 1'
_symmetry_space_group_name_H-M	'P 1'

loop_
_symmetry_equiv_pos_as_xyz
  x,y,z

loop_
_atom_site_label
_atom_site_type_symbol
_atom_site_fract_x
_atom_site_fract_y
_atom_site_fract_z
_atom_site_charge
C 	C 	0.75360 0.40920 0.18390 0.08500
H 	H 	0.75050 0.34520 0.13940 -0.00800
C 	C 	0.64730 0.40690 0.28060 -0.14900
H 	H 	0.57450 0.34400 0.29860 0.07700
C 	C 	0.86260 0.58800 0.21590 0.08400
H 	H 	0.93370 0.65140 0.19370 -0.00700
C 	C 	0.76440 0.59270 0.31600 -0.14700
H 	H 	0.77340 0.65630 0.35970 0.08500
C 	C 	0.33850 0.43290 0.10420 0.22300
H 	H 	0.30340 0.41030 0.18120 -0.05500
H 	H 	0.45560 0.44010 0.09370 -0.04700
C 	C 	0.29880 0.33120 0.03820 -0.32000
H 	H 	0.34360 0.34980 0.96220 0.16100
H 	H 	0.34810 0.24910 0.06480 0.10200
C 	C 	0.65020 0.50050 0.35160 0.08000
N 	N 	0.86140 0.49730 0.14910 -0.21300
N 	N 	0.11490 0.32670 0.04810 -0.25000
O 	O 	0.25430 0.55340 0.06820 -0.51700
H 	H 	0.27500 0.60900 0.10340 0.24000
H 	H 	0.10400 0.30700 0.12760 0.06800
H 	H 	0.10400 0.25600 0.00600 0.04100
C 	C 	0.24640 0.59080 0.81610 0.07200
H 	H 	0.24950 0.65480 0.86060 -0.00800
C 	C 	0.35270 0.59310 0.71940 -0.15200
H 	H 	0.42550 0.65600 0.70140 0.07800
C 	C 	0.13740 0.41200 0.78410 0.07100
H 	H 	0.06630 0.34860 0.80630 -0.02700
C 	C 	0.23560 0.40730 0.68400 -0.15300
H 	H 	0.22660 0.34370 0.64030 0.07000
C 	C 	0.66150 0.56710 0.89580 0.07100
H 	H 	0.69660 0.58970 0.81880 0.00900
H 	H 	0.54440 0.55990 0.90630 0.02400
C 	C 	0.70120 0.66880 0.96180 -0.03700
H 	H 	0.65640 0.65020 0.03780 0.00600
H 	H 	0.65190 0.75090 0.93520 0.04100
C 	C 	0.34980 0.49950 0.64840 0.07400
N 	N 	0.13860 0.50270 0.85090 -0.22600
N 	N 	0.88510 0.67330 0.95190 -0.25600
O 	O 	0.74570 0.44660 0.93180 -0.41100
H 	H 	0.72500 0.39100 0.89660 0.24600
H 	H 	0.89600 0.69300 0.87240 0.10800
H 	H 	0.89600 0.74400 0.99400 0.11000
Cu	Cu	-0.00000 0.50000 -0.00000 0.83100
Hg	Hg	0.50000 0.50000 0.50000 -0.07400
