data_crystal

_cell_length_a 16.74880
_cell_length_b 12.82140
_cell_length_c 30.45800
_cell_angle_alpha 90.00000
_cell_angle_beta  116.08400
_cell_angle_gamma 90.00000

_symmetry_space_group_name_	'P 1'
_symmetry_space_group_name_H-M	'P 1'

loop_
_symmetry_equiv_pos_as_xyz
  x,y,z

loop_
_atom_site_label
_atom_site_type_symbol
_atom_site_fract_x
_atom_site_fract_y
_atom_site_fract_z
_atom_site_charge
Mn	Mn	0.61678 0.96491 0.63630 1.32100
Mn	Mn	0.84464 0.06531 0.20871 1.28200
C 	C 	0.44480 0.08920 0.57580 0.35200
C 	C 	0.38730 0.15720 0.58810 -0.00300
C 	C 	0.39920 0.16550 0.63550 -0.11400
H 	H 	0.44360 0.12740 0.66020 0.07600
C 	C 	0.34460 0.23090 0.64630 0.09100
H 	H 	0.35300 0.23660 0.67850 0.00200
C 	C 	0.27880 0.28710 0.61090 -0.23000
H 	H 	0.24330 0.33210 0.61860 0.13000
C 	C 	0.26570 0.27540 0.56220 0.22700
C 	C 	0.32020 0.21230 0.55160 -0.17100
H 	H 	0.31220 0.20630 0.51950 0.12000
C 	C 	0.13800 0.38610 0.53170 0.00400
H 	H 	0.16710 0.43820 0.55680 0.04500
H 	H 	0.10260 0.34130 0.54190 0.04900
C 	C 	0.28550 0.02990 0.41360 0.33600
C 	C 	0.22480 0.04380 0.43730 -0.02200
C 	C 	0.23280 0.98030 0.47530 -0.09500
H 	H 	0.27760 0.93050 0.48740 0.07800
C 	C 	0.17310 0.99150 0.49530 0.12600
H 	H 	0.17640 0.94700 0.52010 -0.00600
C 	C 	0.10920 0.06790 0.47850 -0.26400
H 	H 	0.06850 0.07360 0.49160 0.12500
C 	C 	0.10480 0.13540 0.44290 0.25700
C 	C 	0.16210 0.12000 0.42200 -0.16600
H 	H 	0.15760 0.16330 0.39660 0.09500
C 	C 	0.00780 0.26240 0.45290 0.01800
H 	H 	0.03960 0.24250 0.48700 0.04100
H 	H 	0.94630 0.24070 0.44080 0.04100
C 	C 	0.67870 0.13040 0.22740 0.39100
C 	C 	0.68220 0.17120 0.27460 -0.05000
C 	C 	0.62470 0.12260 0.29470 -0.05200
H 	H 	0.58290 0.07220 0.27710 0.05900
C 	C 	0.63600 0.15660 0.34270 0.01300
H 	H 	0.60050 0.12850 0.35610 0.03500
C 	C 	0.69940 0.23070 0.36820 -0.13500
H 	H 	0.70900 0.24980 0.39960 0.08900
C 	C 	0.75240 0.27980 0.34520 0.16500
C 	C 	0.74630 0.24430 0.30020 -0.12100
H 	H 	0.78460 0.26950 0.28800 0.08100
C 	C 	0.88980 0.36200 0.36350 -0.00000
H 	H 	0.87220 0.39500 0.33190 0.03900
H 	H 	0.91420 0.29380 0.36250 0.04900
C 	C 	0.73660 0.86640 0.20710 0.34900
C 	C 	0.72440 0.76970 0.23160 0.01400
C 	C 	0.64500 0.71540 0.21060 -0.12200
H 	H 	0.59970 0.74050 0.18180 0.08800
C 	C 	0.63070 0.62750 0.23030 0.09700
H 	H 	0.57580 0.59420 0.21610 -0.00300
C 	C 	0.69880 0.58780 0.27190 -0.22400
H 	H 	0.69180 0.52460 0.28480 0.12300
C 	C 	0.77740 0.64260 0.29430 0.22800
C 	C 	0.79250 0.73230 0.27480 -0.17900
H 	H 	0.84660 0.76720 0.28990 0.11500
C 	C 	0.91390 0.57740 0.34190 0.13500
H 	H 	0.94340 0.63760 0.33640 -0.00300
H 	H 	0.90530 0.52580 0.31700 -0.00600
C 	C 	0.99570 0.02160 0.31200 0.23200
C 	C 	0.95910 0.97630 0.34480 0.18700
C 	C 	0.88200 0.01390 0.34390 -0.33000
H 	H 	0.85150 0.06830 0.32310 0.14900
C 	C 	0.84970 0.96910 0.37470 0.30500
H 	H 	0.79880 0.99610 0.37550 -0.06100
C 	C 	0.89150 0.88740 0.40310 -0.39800
H 	H 	0.86890 0.85800 0.42330 0.18500
C 	C 	0.96600 0.84750 0.40280 0.37200
C 	C 	0.00120 0.89360 0.37460 -0.32600
H 	H 	0.05410 0.86860 0.37560 0.16300
C 	C 	0.05770 0.69590 0.42100 0.04500
H 	H 	0.11950 0.71320 0.44150 0.03000
H 	H 	0.04640 0.70400 0.38710 0.02100
C 	C 	0.49820 0.80640 0.56460 0.29700
C 	C 	0.45020 0.71320 0.56990 0.04600
C 	C 	0.49170 0.64910 0.60860 -0.15200
H 	H 	0.54880 0.66540 0.63200 0.10000
C 	C 	0.45060 0.55920 0.61410 0.14400
H 	H 	0.48000 0.51560 0.64080 -0.01700
C 	C 	0.36900 0.53580 0.58080 -0.26300
H 	H 	0.34110 0.47660 0.58500 0.14000
C 	C 	0.32520 0.59690 0.54060 0.25400
C 	C 	0.36450 0.68640 0.53460 -0.19900
H 	H 	0.33480 0.72860 0.50740 0.12200
C 	C 	0.16960 0.60260 0.51170 0.01900
H 	H 	0.15870 0.67690 0.50630 0.03700
H 	H 	0.17950 0.58590 0.54470 0.04200
C 	C 	0.08020 0.43770 0.48370 0.01500
C 	C 	0.01360 0.37770 0.44710 -0.00000
C 	C 	0.95850 0.42680 0.40250 0.02100
C 	C 	0.97240 0.53000 0.39490 -0.02900
C 	C 	0.04050 0.58630 0.43000 0.00500
C 	C 	0.09280 0.53990 0.47450 0.00400
O 	O 	0.44650 0.09910 0.53522 -0.42800
O 	O 	0.48980 0.02150 0.60690 -0.46000
O 	O 	0.20130 0.32700 0.52373 -0.22100
O 	O 	0.35930 0.98800 0.43483 -0.44700
O 	O 	0.25960 0.06760 0.37077 -0.52800
O 	O 	0.04780 0.21580 0.42473 -0.24000
O 	O 	0.74540 0.14350 0.22100 -0.51100
O 	O 	0.61080 0.08390 0.19990 -0.45700
O 	O 	0.81540 0.35100 0.37310 -0.21700
O 	O 	0.80740 0.91690 0.22673 -0.42200
O 	O 	0.67230 0.89020 0.16750 -0.43100
O 	O 	0.84200 0.60310 0.34020 -0.26800
O 	O 	0.06910 0.99120 0.31633 -0.38200
O 	O 	0.94860 0.09100 0.28233 -0.42100
O 	O 	0.00240 0.76320 0.43149 -0.28000
O 	O 	0.57290 0.82380 0.59920 -0.41800
O 	O 	0.24080 0.57240 0.50350 -0.22700
O 	O 	0.45850 0.85800 0.52450 -0.35100
H 	H 	0.47700 0.89300 0.50500 -0.04200
Mn	Mn	0.38322 0.96491 0.86370 1.32200
Mn	Mn	0.15536 0.06531 0.29129 1.28400
C 	C 	0.55520 0.08920 0.92420 0.35100
C 	C 	0.61270 0.15720 0.91190 0.00400
C 	C 	0.60080 0.16550 0.86450 -0.11600
H 	H 	0.55640 0.12740 0.83980 0.07800
C 	C 	0.65540 0.23090 0.85370 0.09600
H 	H 	0.64700 0.23660 0.82150 0.00200
C 	C 	0.72120 0.28710 0.88910 -0.23200
H 	H 	0.75670 0.33210 0.88140 0.13300
C 	C 	0.73430 0.27540 0.93780 0.23300
C 	C 	0.67980 0.21230 0.94840 -0.17300
H 	H 	0.68780 0.20630 0.98050 0.12700
C 	C 	0.86200 0.38610 0.96830 0.02700
H 	H 	0.83290 0.43820 0.94320 0.04000
H 	H 	0.89740 0.34130 0.95810 0.04600
C 	C 	0.71450 0.02990 0.08640 0.34100
C 	C 	0.77520 0.04380 0.06270 -0.04900
C 	C 	0.76720 0.98030 0.02470 -0.05700
H 	H 	0.72240 0.93050 0.01260 0.05900
C 	C 	0.82690 0.99150 0.00470 0.07200
H 	H 	0.82360 0.94700 0.97990 0.02100
C 	C 	0.89080 0.06790 0.02150 -0.23500
H 	H 	0.93150 0.07360 0.00840 0.10700
C 	C 	0.89520 0.13540 0.05710 0.23400
C 	C 	0.83790 0.12000 0.07800 -0.14600
H 	H 	0.84240 0.16330 0.10340 0.08700
C 	C 	0.99220 0.26240 0.04710 0.01500
H 	H 	0.96040 0.24250 0.01300 0.03500
H 	H 	0.05370 0.24070 0.05920 0.04100
C 	C 	0.32130 0.13040 0.27260 0.39100
C 	C 	0.31780 0.17120 0.22540 -0.05000
C 	C 	0.37530 0.12260 0.20530 -0.05200
H 	H 	0.41710 0.07220 0.22290 0.05900
C 	C 	0.36400 0.15660 0.15730 0.01300
H 	H 	0.39950 0.12850 0.14390 0.03400
C 	C 	0.30060 0.23070 0.13180 -0.13600
H 	H 	0.29100 0.24980 0.10040 0.08900
C 	C 	0.24760 0.27980 0.15480 0.16500
C 	C 	0.25370 0.24430 0.19980 -0.12200
H 	H 	0.21540 0.26950 0.21200 0.08100
C 	C 	0.11020 0.36200 0.13650 0.00000
H 	H 	0.12780 0.39500 0.16810 0.03900
H 	H 	0.08580 0.29380 0.13750 0.04800
C 	C 	0.26340 0.86640 0.29290 0.34900
C 	C 	0.27560 0.76970 0.26840 0.01500
C 	C 	0.35500 0.71540 0.28940 -0.12200
H 	H 	0.40030 0.74050 0.31820 0.08900
C 	C 	0.36930 0.62750 0.26970 0.09700
H 	H 	0.42420 0.59420 0.28390 -0.00300
C 	C 	0.30120 0.58780 0.22810 -0.22400
H 	H 	0.30820 0.52460 0.21520 0.12300
C 	C 	0.22260 0.64260 0.20570 0.22800
C 	C 	0.20750 0.73230 0.22520 -0.17900
H 	H 	0.15340 0.76720 0.21010 0.11500
C 	C 	0.08610 0.57740 0.15810 0.13500
H 	H 	0.05660 0.63760 0.16360 -0.00300
H 	H 	0.09470 0.52580 0.18300 -0.00600
C 	C 	0.00430 0.02160 0.18800 0.23000
C 	C 	0.04090 0.97630 0.15520 0.18800
C 	C 	0.11800 0.01390 0.15610 -0.33300
H 	H 	0.14850 0.06830 0.17690 0.15000
C 	C 	0.15030 0.96910 0.12530 0.30600
H 	H 	0.20120 0.99610 0.12450 -0.06100
C 	C 	0.10850 0.88740 0.09690 -0.39900
H 	H 	0.13110 0.85800 0.07670 0.18200
C 	C 	0.03400 0.84750 0.09720 0.37100
C 	C 	0.99880 0.89360 0.12540 -0.32400
H 	H 	0.94590 0.86860 0.12440 0.16300
C 	C 	0.94230 0.69590 0.07900 0.04500
H 	H 	0.88050 0.71320 0.05850 0.02600
H 	H 	0.95360 0.70400 0.11290 0.02100
C 	C 	0.50180 0.80640 0.93540 0.29900
C 	C 	0.54980 0.71320 0.93010 0.04900
C 	C 	0.50830 0.64910 0.89140 -0.15300
H 	H 	0.45120 0.66540 0.86800 0.10000
C 	C 	0.54940 0.55920 0.88590 0.14600
H 	H 	0.52000 0.51560 0.85920 -0.01700
C 	C 	0.63100 0.53580 0.91920 -0.26400
H 	H 	0.65890 0.47660 0.91500 0.14100
C 	C 	0.67480 0.59690 0.95940 0.25700
C 	C 	0.63550 0.68640 0.96540 -0.20000
H 	H 	0.66520 0.72860 0.99260 0.12700
C 	C 	0.83040 0.60260 0.98830 0.03600
H 	H 	0.84130 0.67690 0.99370 0.03600
H 	H 	0.82050 0.58590 0.95530 0.03800
C 	C 	0.91980 0.43770 0.01630 -0.00200
C 	C 	0.98640 0.37770 0.05290 0.00100
C 	C 	0.04150 0.42680 0.09750 0.02000
C 	C 	0.02760 0.53000 0.10510 -0.02900
C 	C 	0.95950 0.58630 0.07000 0.00500
C 	C 	0.90720 0.53990 0.02550 -0.00800
O 	O 	0.55350 0.09910 0.96478 -0.41700
O 	O 	0.51020 0.02150 0.89310 -0.45700
O 	O 	0.79870 0.32700 0.97627 -0.21900
O 	O 	0.64070 0.98800 0.06517 -0.44900
O 	O 	0.74040 0.06760 0.12923 -0.53000
O 	O 	0.95220 0.21580 0.07527 -0.23600
O 	O 	0.25460 0.14350 0.27900 -0.51000
O 	O 	0.38920 0.08390 0.30010 -0.45700
O 	O 	0.18460 0.35100 0.12690 -0.21800
O 	O 	0.19260 0.91690 0.27327 -0.42300
O 	O 	0.32770 0.89020 0.33250 -0.43100
O 	O 	0.15800 0.60310 0.15980 -0.26900
O 	O 	0.93090 0.99120 0.18367 -0.38000
O 	O 	0.05140 0.09100 0.21767 -0.42000
O 	O 	0.99760 0.76320 0.06851 -0.28300
O 	O 	0.42710 0.82380 0.90080 -0.41800
O 	O 	0.75920 0.57240 0.99650 -0.22500
O 	O 	0.54150 0.85800 0.97550 -0.35000
H 	H 	0.52300 0.89300 0.99500 -0.03500
Mn	Mn	0.38322 0.03509 0.36370 1.30800
Mn	Mn	0.15536 0.93469 0.79129 1.29700
C 	C 	0.55520 0.91080 0.42420 0.34900
C 	C 	0.61270 0.84280 0.41190 0.00900
C 	C 	0.60080 0.83450 0.36450 -0.11800
H 	H 	0.55640 0.87260 0.33980 0.08600
C 	C 	0.65540 0.76910 0.35370 0.10000
H 	H 	0.64700 0.76340 0.32150 0.00300
C 	C 	0.72120 0.71290 0.38910 -0.23500
H 	H 	0.75670 0.66790 0.38140 0.13300
C 	C 	0.73430 0.72460 0.43780 0.23100
C 	C 	0.67980 0.78770 0.44840 -0.17400
H 	H 	0.68780 0.79370 0.48050 0.12400
C 	C 	0.86200 0.61390 0.46830 0.00300
H 	H 	0.83290 0.56180 0.44320 0.04600
H 	H 	0.89740 0.65870 0.45810 0.04900
C 	C 	0.71450 0.97010 0.58640 0.38400
C 	C 	0.77520 0.95620 0.56270 -0.00200
C 	C 	0.76720 0.01970 0.52470 -0.11000
H 	H 	0.72240 0.06950 0.51260 0.07600
C 	C 	0.82690 0.00850 0.50470 0.05200
H 	H 	0.82360 0.05300 0.47990 0.01000
C 	C 	0.89080 0.93210 0.52150 -0.18400
H 	H 	0.93150 0.92640 0.50840 0.10500
C 	C 	0.89520 0.86460 0.55710 0.23100
C 	C 	0.83790 0.88000 0.57800 -0.14900
H 	H 	0.84240 0.83670 0.60340 0.09100
C 	C 	0.99220 0.73760 0.54710 0.01400
H 	H 	0.96040 0.75750 0.51300 0.04300
H 	H 	0.05370 0.75930 0.55920 0.04500
C 	C 	0.32130 0.86960 0.77260 0.39100
C 	C 	0.31780 0.82880 0.72540 -0.04400
C 	C 	0.37530 0.87740 0.70530 -0.05000
H 	H 	0.41710 0.92780 0.72290 0.06700
C 	C 	0.36400 0.84340 0.65730 0.01400
H 	H 	0.39950 0.87150 0.64390 0.04100
C 	C 	0.30060 0.76930 0.63180 -0.13300
H 	H 	0.29100 0.75020 0.60040 0.09000
C 	C 	0.24760 0.72020 0.65480 0.16600
C 	C 	0.25370 0.75570 0.69980 -0.11900
H 	H 	0.21540 0.73050 0.71200 0.08300
C 	C 	0.11020 0.63800 0.63650 -0.00300
H 	H 	0.12780 0.60500 0.66810 0.04100
H 	H 	0.08580 0.70620 0.63750 0.05100
C 	C 	0.26340 0.13360 0.79290 0.35100
C 	C 	0.27560 0.23030 0.76840 0.01000
C 	C 	0.35500 0.28460 0.78940 -0.12000
H 	H 	0.40030 0.25950 0.81820 0.08700
C 	C 	0.36930 0.37250 0.76970 0.09500
H 	H 	0.42420 0.40580 0.78390 -0.00200
C 	C 	0.30120 0.41220 0.72810 -0.22200
H 	H 	0.30820 0.47540 0.71520 0.12200
C 	C 	0.22260 0.35740 0.70570 0.22700
C 	C 	0.20750 0.26770 0.72520 -0.17700
H 	H 	0.15340 0.23280 0.71010 0.11300
C 	C 	0.08610 0.42260 0.65810 0.13800
H 	H 	0.05660 0.36240 0.66360 -0.00400
H 	H 	0.09470 0.47420 0.68300 -0.00700
C 	C 	0.00430 0.97840 0.68800 0.39600
C 	C 	0.04090 0.02370 0.65520 -0.07200
C 	C 	0.11800 0.98610 0.65610 -0.01000
H 	H 	0.14850 0.93170 0.67690 0.04600
C 	C 	0.15030 0.03090 0.62530 0.01500
H 	H 	0.20120 0.00390 0.62450 0.02500
C 	C 	0.10850 0.11260 0.59690 -0.18200
H 	H 	0.13110 0.14200 0.57670 0.10600
C 	C 	0.03400 0.15250 0.59720 0.21000
C 	C 	0.99880 0.10640 0.62540 -0.13300
H 	H 	0.94590 0.13140 0.62440 0.09400
C 	C 	0.94230 0.30410 0.57900 0.01600
H 	H 	0.88050 0.28680 0.55850 0.03900
H 	H 	0.95360 0.29600 0.61290 0.03200
C 	C 	0.50180 0.19360 0.43540 0.29400
C 	C 	0.54980 0.28680 0.43010 0.04700
C 	C 	0.50830 0.35090 0.39140 -0.15300
H 	H 	0.45120 0.33460 0.36800 0.10000
C 	C 	0.54940 0.44080 0.38590 0.14400
H 	H 	0.52000 0.48440 0.35920 -0.01700
C 	C 	0.63100 0.46420 0.41920 -0.26400
H 	H 	0.65890 0.52340 0.41500 0.14100
C 	C 	0.67480 0.40310 0.45940 0.25500
C 	C 	0.63550 0.31360 0.46540 -0.20000
H 	H 	0.66520 0.27140 0.49260 0.12200
C 	C 	0.83040 0.39740 0.48830 0.02300
H 	H 	0.84130 0.32310 0.49370 0.03400
H 	H 	0.82050 0.41410 0.45530 0.04100
C 	C 	0.91980 0.56230 0.51630 0.01700
C 	C 	0.98640 0.62230 0.55290 -0.00000
C 	C 	0.04150 0.57320 0.59750 0.02300
C 	C 	0.02760 0.47000 0.60510 -0.03400
C 	C 	0.95950 0.41370 0.57000 0.01500
C 	C 	0.90720 0.46010 0.52550 -0.00200
O 	O 	0.55350 0.90090 0.46478 -0.41600
O 	O 	0.51020 0.97850 0.39310 -0.43700
O 	O 	0.79870 0.67300 0.47627 -0.22200
O 	O 	0.64070 0.01200 0.56517 -0.49100
O 	O 	0.74040 0.93240 0.62923 -0.52800
O 	O 	0.95220 0.78420 0.57527 -0.23000
O 	O 	0.25460 0.85650 0.77900 -0.50200
O 	O 	0.38920 0.91610 0.80010 -0.44500
O 	O 	0.18460 0.64900 0.62690 -0.21600
O 	O 	0.19260 0.08310 0.77327 -0.43800
O 	O 	0.32770 0.10980 0.83250 -0.44300
O 	O 	0.15800 0.39690 0.65980 -0.26900
O 	O 	0.93090 0.00880 0.68367 -0.45900
O 	O 	0.05140 0.90900 0.71767 -0.45200
O 	O 	0.99760 0.23680 0.56851 -0.23700
O 	O 	0.42710 0.17620 0.40080 -0.42300
O 	O 	0.75920 0.42760 0.49650 -0.22800
O 	O 	0.54150 0.14200 0.47550 -0.35500
H 	H 	0.52300 0.10700 0.49500 -0.04800
Mn	Mn	0.61678 0.03509 0.13630 1.30700
Mn	Mn	0.84464 0.93469 0.70871 1.29800
C 	C 	0.44480 0.91080 0.07580 0.35000
C 	C 	0.38730 0.84280 0.08810 0.00500
C 	C 	0.39920 0.83450 0.13550 -0.11600
H 	H 	0.44360 0.87260 0.16020 0.08500
C 	C 	0.34460 0.76910 0.14630 0.09800
H 	H 	0.35300 0.76340 0.17850 0.00400
C 	C 	0.27880 0.71290 0.11090 -0.23200
H 	H 	0.24330 0.66790 0.11860 0.13200
C 	C 	0.26570 0.72460 0.06220 0.22700
C 	C 	0.32020 0.78770 0.05160 -0.17200
H 	H 	0.31220 0.79370 0.01950 0.11800
C 	C 	0.13800 0.61390 0.03170 -0.01800
H 	H 	0.16710 0.56180 0.05680 0.05100
H 	H 	0.10260 0.65870 0.04190 0.05200
C 	C 	0.28550 0.97010 0.91360 0.36700
C 	C 	0.22480 0.95620 0.93730 0.03500
C 	C 	0.23280 0.01970 0.97530 -0.16800
H 	H 	0.27760 0.06950 0.98740 0.10400
C 	C 	0.17310 0.00850 0.99530 0.15500
H 	H 	0.17640 0.05300 0.02010 -0.03900
C 	C 	0.10920 0.93210 0.97850 -0.25300
H 	H 	0.06850 0.92640 0.99160 0.13400
C 	C 	0.10480 0.86460 0.94290 0.27200
C 	C 	0.16210 0.88000 0.92200 -0.18600
H 	H 	0.15760 0.83670 0.89660 0.10400
C 	C 	0.00780 0.73760 0.95290 0.02100
H 	H 	0.03960 0.75750 0.98700 0.04500
H 	H 	0.94630 0.75930 0.94080 0.04300
C 	C 	0.67870 0.86960 0.72740 0.39000
C 	C 	0.68220 0.82880 0.77460 -0.04400
C 	C 	0.62470 0.87740 0.79470 -0.05000
H 	H 	0.58290 0.92780 0.77710 0.06700
C 	C 	0.63600 0.84340 0.84270 0.01400
H 	H 	0.60050 0.87150 0.85610 0.04100
C 	C 	0.69940 0.76930 0.86820 -0.13300
H 	H 	0.70900 0.75020 0.89960 0.09000
C 	C 	0.75240 0.72020 0.84520 0.16600
C 	C 	0.74630 0.75570 0.80020 -0.11900
H 	H 	0.78460 0.73050 0.78800 0.08300
C 	C 	0.88980 0.63800 0.86350 -0.00400
H 	H 	0.87220 0.60500 0.83190 0.04100
H 	H 	0.91420 0.70620 0.86250 0.05200
C 	C 	0.73660 0.13360 0.70710 0.35100
C 	C 	0.72440 0.23030 0.73160 0.00900
C 	C 	0.64500 0.28460 0.71060 -0.12000
H 	H 	0.59970 0.25950 0.68180 0.08700
C 	C 	0.63070 0.37250 0.73030 0.09400
H 	H 	0.57580 0.40580 0.71610 -0.00200
C 	C 	0.69880 0.41220 0.77190 -0.22200
H 	H 	0.69180 0.47540 0.78480 0.12200
C 	C 	0.77740 0.35740 0.79430 0.22700
C 	C 	0.79250 0.26770 0.77480 -0.17700
H 	H 	0.84660 0.23280 0.78990 0.11200
C 	C 	0.91390 0.42260 0.84190 0.13900
H 	H 	0.94340 0.36240 0.83640 -0.00400
H 	H 	0.90530 0.47420 0.81700 -0.00700
C 	C 	0.99570 0.97840 0.81200 0.39400
C 	C 	0.95910 0.02370 0.84480 -0.07400
C 	C 	0.88200 0.98610 0.84390 -0.01000
H 	H 	0.85150 0.93170 0.82310 0.04600
C 	C 	0.84970 0.03090 0.87470 0.01500
H 	H 	0.79880 0.00390 0.87550 0.02600
C 	C 	0.89150 0.11260 0.90310 -0.17900
H 	H 	0.86890 0.14200 0.92330 0.10800
C 	C 	0.96600 0.15250 0.90280 0.20600
C 	C 	0.00120 0.10640 0.87460 -0.12700
H 	H 	0.05410 0.13140 0.87560 0.09300
C 	C 	0.05770 0.30410 0.92100 0.01300
H 	H 	0.11950 0.28680 0.94150 0.04500
H 	H 	0.04640 0.29600 0.88710 0.03400
C 	C 	0.49820 0.19360 0.06460 0.29300
C 	C 	0.45020 0.28680 0.06990 0.04300
C 	C 	0.49170 0.35090 0.10860 -0.15100
H 	H 	0.54880 0.33460 0.13200 0.09800
C 	C 	0.45060 0.44080 0.11410 0.14100
H 	H 	0.48000 0.48440 0.14080 -0.01600
C 	C 	0.36900 0.46420 0.08080 -0.26200
H 	H 	0.34110 0.52340 0.08500 0.13900
C 	C 	0.32520 0.40310 0.04060 0.25100
C 	C 	0.36450 0.31360 0.03460 -0.19700
H 	H 	0.33480 0.27140 0.00740 0.11500
C 	C 	0.16960 0.39740 0.01170 0.00400
H 	H 	0.15870 0.32310 0.00630 0.03400
H 	H 	0.17950 0.41410 0.04470 0.04500
C 	C 	0.08020 0.56230 0.98370 0.03300
C 	C 	0.01360 0.62230 0.94710 -0.00300
C 	C 	0.95850 0.57320 0.90250 0.02500
C 	C 	0.97240 0.47000 0.89490 -0.03500
C 	C 	0.04050 0.41370 0.93000 0.01600
C 	C 	0.09280 0.46010 0.97450 0.01200
O 	O 	0.44650 0.90090 0.03522 -0.42200
O 	O 	0.48980 0.97850 0.10690 -0.43700
O 	O 	0.20130 0.67300 0.02373 -0.22300
O 	O 	0.35930 0.01200 0.93483 -0.47800
O 	O 	0.25960 0.93240 0.87077 -0.52300
O 	O 	0.04780 0.78420 0.92473 -0.24100
O 	O 	0.74540 0.85650 0.72100 -0.50200
O 	O 	0.61080 0.91610 0.69990 -0.44500
O 	O 	0.81540 0.64900 0.87310 -0.21500
O 	O 	0.80740 0.08310 0.72673 -0.43900
O 	O 	0.67230 0.10980 0.66750 -0.44500
O 	O 	0.84200 0.39690 0.84020 -0.26900
O 	O 	0.06910 0.00880 0.81633 -0.45700
O 	O 	0.94860 0.90900 0.78233 -0.45100
O 	O 	0.00240 0.23680 0.93149 -0.23000
O 	O 	0.57290 0.17620 0.09920 -0.42400
O 	O 	0.24080 0.42760 0.00350 -0.23100
O 	O 	0.45850 0.14200 0.02450 -0.35900
H 	H 	0.47700 0.10700 0.00500 -0.05400
Mn	Mn	0.50000 0.00000 0.50000 1.31600
Mn	Mn	0.50000 0.00000 -0.00000 1.30700
