data_crystal

_cell_length_a 14.73680
_cell_length_b 14.73680
_cell_length_c 14.73680
_cell_angle_alpha 60.00000
_cell_angle_beta  60.00000
_cell_angle_gamma 90.00000

_symmetry_space_group_name_	'P 1'
_symmetry_space_group_name_H-M	'P 1'

loop_
_symmetry_equiv_pos_as_xyz
  x,y,z

loop_
_atom_site_label
_atom_site_type_symbol
_atom_site_fract_x
_atom_site_fract_y
_atom_site_fract_z
_atom_site_charge
Zr	Zr	0.11954 0.88046 -0.00000 3.13600
Zr	Zr	0.11954 0.11954 -0.00000 3.13300
Zr	Zr	0.88046 0.11954 -0.00000 3.14200
Zr	Zr	0.88046 0.88046 -0.00000 3.14400
Zr	Zr	0.88046 0.88046 0.23908 3.22100
Zr	Zr	0.11954 0.11954 0.76092 3.20800
H 	H 	0.40797 0.84828 0.73082 0.12100
H 	H 	0.15172 0.13879 0.26918 -0.04100
H 	H 	0.86121 0.42090 0.73082 0.11200
H 	H 	0.57910 0.59203 0.26918 -0.03700
H 	H 	0.57910 0.13879 0.26918 -0.03500
H 	H 	0.40797 0.42090 0.73082 0.12000
H 	H 	0.15172 0.59203 0.26918 -0.04400
H 	H 	0.86121 0.84828 0.73082 0.11400
H 	H 	0.57910 0.59203 0.55970 0.06700
H 	H 	0.40797 0.84828 0.01293 -0.06000
H 	H 	0.15172 0.13879 0.44030 0.01400
H 	H 	0.86121 0.42090 0.98707 0.13700
H 	H 	0.40797 0.42090 0.44030 0.01500
H 	H 	0.15172 0.59203 0.98707 0.14000
H 	H 	0.86121 0.84828 0.55970 0.05900
H 	H 	0.57910 0.13879 0.01293 -0.05800
H 	H 	0.40797 0.13879 0.44030 0.01800
H 	H 	0.15172 0.42090 0.98707 0.14000
H 	H 	0.86121 0.59203 0.55970 0.05700
H 	H 	0.57910 0.84828 0.01293 -0.05800
H 	H 	0.57910 0.84828 0.55970 0.06700
H 	H 	0.40797 0.13879 0.01293 -0.06000
H 	H 	0.15172 0.42090 0.44030 0.01100
H 	H 	0.86121 0.59203 0.98707 0.13700
H 	H 	0.28361 0.09454 0.81093 0.36800
H 	H 	0.90546 0.09454 0.18907 0.24100
H 	H 	0.90546 0.09454 0.81093 0.38300
H 	H 	0.90546 0.71639 0.18907 0.24500
C 	C 	0.44635 0.91117 0.62931 -0.00200
C 	C 	0.08883 0.07566 0.37069 -0.01300
C 	C 	0.92434 0.45952 0.62931 0.08600
C 	C 	0.54048 0.55365 0.37069 0.01700
C 	C 	0.54048 0.07566 0.37069 -0.00900
C 	C 	0.44635 0.45952 0.62931 -0.00100
C 	C 	0.08883 0.55365 0.37069 0.01900
C 	C 	0.92434 0.91117 0.62931 0.07700
C 	C 	0.54048 0.55365 0.53518 0.04200
C 	C 	0.44635 0.91117 0.01317 -0.03800
C 	C 	0.08883 0.07566 0.46482 -0.05500
C 	C 	0.92434 0.45952 0.98683 0.13500
C 	C 	0.44635 0.45952 0.46482 -0.02600
C 	C 	0.08883 0.55365 0.98683 0.05600
C 	C 	0.92434 0.91117 0.53518 0.12300
C 	C 	0.54048 0.07566 0.01317 -0.06300
C 	C 	0.44635 0.07566 0.46482 -0.05300
C 	C 	0.08883 0.45952 0.98683 0.05600
C 	C 	0.92434 0.55365 0.53518 0.13000
C 	C 	0.54048 0.91117 0.01317 -0.03800
C 	C 	0.54048 0.91117 0.53518 0.04100
C 	C 	0.44635 0.07566 0.01317 -0.06600
C 	C 	0.08883 0.45952 0.46482 -0.02500
C 	C 	0.92434 0.55365 0.98683 0.13200
C 	C 	0.00417 0.69989 0.30427 0.41600
C 	C 	0.30011 0.30844 0.69573 0.45500
C 	C 	0.69156 0.99583 0.30427 0.54100
C 	C 	0.00417 0.99583 0.69573 0.39400
C 	C 	0.00417 0.30844 0.69573 0.35500
C 	C 	0.00417 0.99583 0.30427 0.45600
C 	C 	0.30011 0.99583 0.69573 0.48300
C 	C 	0.69156 0.69989 0.30427 0.51500
C 	C 	0.00417 0.69989 0.99167 0.38300
C 	C 	0.69156 0.99583 0.00833 0.51900
C 	C 	0.30011 0.99583 0.00833 0.52600
C 	C 	0.00417 0.30844 0.99167 0.37600
C 	C 	0.39918 0.99378 0.59460 -0.05700
C 	C 	0.00622 0.99378 0.40540 -0.21100
C 	C 	0.00622 0.41162 0.59460 -0.16600
C 	C 	0.58838 0.60082 0.40540 -0.15800
C 	C 	0.58838 0.99378 0.40540 -0.13500
C 	C 	0.39918 0.41162 0.59460 -0.08100
C 	C 	0.00622 0.60082 0.40540 -0.24500
C 	C 	0.00622 0.99378 0.59460 -0.13200
C 	C 	0.39918 0.99378 0.01244 -0.18100
C 	C 	0.00622 0.41162 0.98756 -0.11100
C 	C 	0.00622 0.60082 0.98756 -0.11000
C 	C 	0.58838 0.99378 0.01244 -0.17800
O 	O 	0.26179 0.92030 0.81234 -0.50600
O 	O 	0.07970 0.07413 0.18766 -0.81400
O 	O 	0.92587 0.26736 0.81234 -0.41300
O 	O 	0.73264 0.73821 0.18766 -0.77900
O 	O 	0.73264 0.07413 0.18766 -0.80400
O 	O 	0.26179 0.26736 0.81234 -0.50300
O 	O 	0.07970 0.73821 0.18766 -0.77800
O 	O 	0.92587 0.92030 0.81234 -0.42600
O 	O 	0.73264 0.73821 0.34149 -0.65000
O 	O 	0.26179 0.92030 0.00557 -0.87300
O 	O 	0.07970 0.07413 0.65851 -0.67800
O 	O 	0.92587 0.26736 0.99443 -0.32700
O 	O 	0.26179 0.26736 0.65851 -0.65200
O 	O 	0.07970 0.73821 0.99443 -0.40700
O 	O 	0.92587 0.92030 0.34149 -0.57100
O 	O 	0.73264 0.07413 0.00557 -0.89000
O 	O 	0.26179 0.07413 0.65851 -0.67900
O 	O 	0.07970 0.26736 0.99443 -0.40700
O 	O 	0.92587 0.73821 0.34149 -0.56300
O 	O 	0.73264 0.92030 0.00557 -0.86600
O 	O 	0.73264 0.92030 0.34149 -0.65200
O 	O 	0.26179 0.07413 0.00557 -0.90300
O 	O 	0.07970 0.26736 0.65851 -0.64700
O 	O 	0.92587 0.73821 0.99443 -0.33100
O 	O 	0.93239 0.79716 0.13523 -1.32500
O 	O 	0.20284 0.06761 0.86477 -1.00300
O 	O 	0.93239 0.06761 0.13523 -1.33500
O 	O 	0.93239 0.06761 0.86477 -0.95700
O 	O 	0.04973 0.14920 0.90053 -1.24900
O 	O 	0.85080 0.95027 0.09947 -1.52700
O 	O 	0.04973 0.95027 0.90053 -1.22800
O 	O 	0.04973 0.95027 0.09947 -1.59300
