data_crystal

_cell_length_a 18.64490
_cell_length_b 27.22670
_cell_length_c 8.89320
_cell_angle_alpha 90.00000
_cell_angle_beta  107.48200
_cell_angle_gamma 90.00000

_symmetry_space_group_name_	'P 1'
_symmetry_space_group_name_H-M	'P 1'

loop_
_symmetry_equiv_pos_as_xyz
  x,y,z

loop_
_atom_site_label
_atom_site_type_symbol
_atom_site_fract_x
_atom_site_fract_y
_atom_site_fract_z
_atom_site_charge
C 	C 	0.57580 0.06610 0.69570 0.34000
C 	C 	0.61830 0.10290 0.81300 -0.07600
C 	C 	0.69570 0.10880 0.84170 0.07800
H 	H 	0.72110 0.08980 0.78730 0.06700
C 	C 	0.73440 0.14290 0.95130 -0.14300
H 	H 	0.78600 0.14650 0.97060 0.15400
C 	C 	0.69700 0.17210 0.03380 0.18200
C 	C 	0.61860 0.16640 0.00200 -0.12400
H 	H 	0.59270 0.18610 0.05370 0.15100
C 	C 	0.58010 0.13190 0.89480 0.10000
H 	H 	0.52870 0.12770 0.87660 0.08500
C 	C 	0.73460 0.20830 0.14580 -0.07200
C 	C 	0.76300 0.23910 0.24350 0.22400
C 	C 	0.79220 0.27640 0.35820 -0.21700
C 	C 	0.86740 0.28020 0.43900 0.35500
C 	C 	0.89600 0.31680 0.54570 0.14500
C 	C 	0.84820 0.35060 0.57990 0.23700
C 	C 	0.77310 0.34760 0.50390 0.12900
C 	C 	0.74620 0.31130 0.39330 0.33200
O 	O 	0.60410 0.05208 0.59070 -0.33400
O 	O 	0.51310 0.05230 0.71210 -0.33100
F 	F 	0.91410 0.24700 0.41060 -0.34000
F 	F 	0.96820 0.31900 0.62450 -0.32600
F 	F 	0.87590 0.38573 0.68620 -0.37600
F 	F 	0.72660 0.38000 0.53620 -0.31700
F 	F 	0.67260 0.30870 0.32330 -0.38200
C 	C 	0.42420 0.06610 0.30430 0.33900
C 	C 	0.38170 0.10290 0.18700 -0.07700
C 	C 	0.30430 0.10880 0.15830 0.07700
H 	H 	0.27890 0.08980 0.21270 0.06600
C 	C 	0.26560 0.14290 0.04870 -0.14400
H 	H 	0.21400 0.14650 0.02940 0.15300
C 	C 	0.30300 0.17210 0.96620 0.18100
C 	C 	0.38140 0.16640 0.99800 -0.12500
H 	H 	0.40730 0.18610 0.94630 0.15000
C 	C 	0.41990 0.13190 0.10520 0.09900
H 	H 	0.47130 0.12770 0.12340 0.08400
C 	C 	0.26540 0.20830 0.85420 -0.07300
C 	C 	0.23700 0.23910 0.75650 0.22300
C 	C 	0.20780 0.27640 0.64180 -0.21800
C 	C 	0.13260 0.28020 0.56100 0.35400
C 	C 	0.10400 0.31680 0.45430 0.14400
C 	C 	0.15180 0.35060 0.42010 0.23600
C 	C 	0.22690 0.34760 0.49610 0.12800
C 	C 	0.25380 0.31130 0.60670 0.33100
O 	O 	0.39590 0.05208 0.40930 -0.33500
O 	O 	0.48690 0.05230 0.28790 -0.33200
F 	F 	0.08590 0.24700 0.58940 -0.34100
F 	F 	0.03180 0.31900 0.37550 -0.32700
F 	F 	0.12410 0.38573 0.31380 -0.37700
F 	F 	0.27340 0.38000 0.46380 -0.31700
F 	F 	0.32740 0.30870 0.67670 -0.38200
C 	C 	0.42420 0.93390 0.30430 0.33700
C 	C 	0.38170 0.89710 0.18700 -0.06700
C 	C 	0.30430 0.89120 0.15830 0.07400
H 	H 	0.27890 0.91020 0.21270 0.07700
C 	C 	0.26560 0.85710 0.04870 -0.13700
H 	H 	0.21400 0.85350 0.02940 0.15600
C 	C 	0.30300 0.82790 0.96620 0.17900
C 	C 	0.38140 0.83360 0.99800 -0.12000
H 	H 	0.40730 0.81390 0.94630 0.14900
C 	C 	0.41990 0.86810 0.10520 0.09600
H 	H 	0.47130 0.87230 0.12340 0.08700
C 	C 	0.26540 0.79170 0.85420 -0.07000
C 	C 	0.23700 0.76090 0.75650 0.22300
C 	C 	0.20780 0.72360 0.64180 -0.21800
C 	C 	0.13260 0.71980 0.56100 0.35400
C 	C 	0.10400 0.68320 0.45430 0.14400
C 	C 	0.15180 0.64940 0.42010 0.23500
C 	C 	0.22690 0.65240 0.49610 0.12800
C 	C 	0.25380 0.68870 0.60670 0.33100
O 	O 	0.39590 0.94792 0.40930 -0.31200
O 	O 	0.48690 0.94770 0.28790 -0.30800
F 	F 	0.08590 0.75300 0.58940 -0.33900
F 	F 	0.03180 0.68100 0.37550 -0.32700
F 	F 	0.12410 0.61427 0.31380 -0.37700
F 	F 	0.27340 0.62000 0.46380 -0.31700
F 	F 	0.32740 0.69130 0.67670 -0.38200
C 	C 	0.57580 0.93390 0.69570 0.33700
C 	C 	0.61830 0.89710 0.81300 -0.06700
C 	C 	0.69570 0.89120 0.84170 0.07400
H 	H 	0.72110 0.91020 0.78730 0.07700
C 	C 	0.73440 0.85710 0.95130 -0.13700
H 	H 	0.78600 0.85350 0.97060 0.15600
C 	C 	0.69700 0.82790 0.03380 0.17900
C 	C 	0.61860 0.83360 0.00200 -0.12000
H 	H 	0.59270 0.81390 0.05370 0.14900
C 	C 	0.58010 0.86810 0.89480 0.09600
H 	H 	0.52870 0.87230 0.87660 0.08700
C 	C 	0.73460 0.79170 0.14580 -0.07000
C 	C 	0.76300 0.76090 0.24350 0.22300
C 	C 	0.79220 0.72360 0.35820 -0.21800
C 	C 	0.86740 0.71980 0.43900 0.35400
C 	C 	0.89600 0.68320 0.54570 0.14400
C 	C 	0.84820 0.64940 0.57990 0.23500
C 	C 	0.77310 0.65240 0.50390 0.12800
C 	C 	0.74620 0.68870 0.39330 0.33100
O 	O 	0.60410 0.94792 0.59070 -0.31200
O 	O 	0.51310 0.94770 0.71210 -0.30800
F 	F 	0.91410 0.75300 0.41060 -0.33900
F 	F 	0.96820 0.68100 0.62450 -0.32700
F 	F 	0.87590 0.61427 0.68620 -0.37700
F 	F 	0.72660 0.62000 0.53620 -0.31700
F 	F 	0.67260 0.69130 0.32330 -0.38200
Rh	Rh	0.54744 0.00000 0.43492 0.88000
Rh	Rh	0.45256 0.00000 0.56508 0.88000
C 	C 	0.07580 0.56610 0.69570 0.33900
C 	C 	0.11830 0.60290 0.81300 -0.07300
C 	C 	0.19570 0.60880 0.84170 0.07700
H 	H 	0.22110 0.58980 0.78730 0.07100
C 	C 	0.23440 0.64290 0.95130 -0.14200
H 	H 	0.28600 0.64650 0.97060 0.15500
C 	C 	0.19700 0.67210 0.03380 0.18100
C 	C 	0.11860 0.66640 0.00200 -0.12200
H 	H 	0.09270 0.68610 0.05370 0.15000
C 	C 	0.08010 0.63190 0.89480 0.09700
H 	H 	0.02870 0.62770 0.87660 0.08500
C 	C 	0.23460 0.70830 0.14580 -0.07200
C 	C 	0.26300 0.73910 0.24350 0.22400
C 	C 	0.29220 0.77640 0.35820 -0.21800
C 	C 	0.36740 0.78020 0.43900 0.35400
C 	C 	0.39600 0.81680 0.54570 0.14400
C 	C 	0.34820 0.85060 0.57990 0.23600
C 	C 	0.27310 0.84760 0.50390 0.12900
C 	C 	0.24620 0.81130 0.39330 0.33100
O 	O 	0.10410 0.55208 0.59070 -0.32900
O 	O 	0.01310 0.55230 0.71210 -0.32500
F 	F 	0.41410 0.74700 0.41060 -0.34000
F 	F 	0.46820 0.81900 0.62450 -0.32700
F 	F 	0.37590 0.88573 0.68620 -0.37300
F 	F 	0.22660 0.88000 0.53620 -0.31200
F 	F 	0.17260 0.80870 0.32330 -0.38100
C 	C 	0.92420 0.56610 0.30430 0.33900
C 	C 	0.88170 0.60290 0.18700 -0.07300
C 	C 	0.80430 0.60880 0.15830 0.07700
H 	H 	0.77890 0.58980 0.21270 0.07100
C 	C 	0.76560 0.64290 0.04870 -0.14200
H 	H 	0.71400 0.64650 0.02940 0.15500
C 	C 	0.80300 0.67210 0.96620 0.18100
C 	C 	0.88140 0.66640 0.99800 -0.12200
H 	H 	0.90730 0.68610 0.94630 0.15000
C 	C 	0.91990 0.63190 0.10520 0.09700
H 	H 	0.97130 0.62770 0.12340 0.08500
C 	C 	0.76540 0.70830 0.85420 -0.07200
C 	C 	0.73700 0.73910 0.75650 0.22400
C 	C 	0.70780 0.77640 0.64180 -0.21800
C 	C 	0.63260 0.78020 0.56100 0.35400
C 	C 	0.60400 0.81680 0.45430 0.14400
C 	C 	0.65180 0.85060 0.42010 0.23600
C 	C 	0.72690 0.84760 0.49610 0.12900
C 	C 	0.75380 0.81130 0.60670 0.33100
O 	O 	0.89590 0.55208 0.40930 -0.32900
O 	O 	0.98690 0.55230 0.28790 -0.32500
F 	F 	0.58590 0.74700 0.58940 -0.34000
F 	F 	0.53180 0.81900 0.37550 -0.32700
F 	F 	0.62410 0.88573 0.31380 -0.37300
F 	F 	0.77340 0.88000 0.46380 -0.31200
F 	F 	0.82740 0.80870 0.67670 -0.38100
C 	C 	0.92420 0.43390 0.30430 0.33900
C 	C 	0.88170 0.39710 0.18700 -0.07300
C 	C 	0.80430 0.39120 0.15830 0.07600
H 	H 	0.77890 0.41020 0.21270 0.07100
C 	C 	0.76560 0.35710 0.04870 -0.14100
H 	H 	0.71400 0.35350 0.02940 0.15500
C 	C 	0.80300 0.32790 0.96620 0.18100
C 	C 	0.88140 0.33360 0.99800 -0.12200
H 	H 	0.90730 0.31390 0.94630 0.14900
C 	C 	0.91990 0.36810 0.10520 0.09700
H 	H 	0.97130 0.37230 0.12340 0.08500
C 	C 	0.76540 0.29170 0.85420 -0.07200
C 	C 	0.73700 0.26090 0.75650 0.22300
C 	C 	0.70780 0.22360 0.64180 -0.21800
C 	C 	0.63260 0.21980 0.56100 0.35400
C 	C 	0.60400 0.18320 0.45430 0.14400
C 	C 	0.65180 0.14940 0.42010 0.23500
C 	C 	0.72690 0.15240 0.49610 0.12700
C 	C 	0.75380 0.18870 0.60670 0.33100
O 	O 	0.89590 0.44792 0.40930 -0.32900
O 	O 	0.98690 0.44770 0.28790 -0.32500
F 	F 	0.58590 0.25300 0.58940 -0.34000
F 	F 	0.53180 0.18100 0.37550 -0.32700
F 	F 	0.62410 0.11427 0.31380 -0.37900
F 	F 	0.77340 0.12000 0.46380 -0.32200
F 	F 	0.82740 0.19130 0.67670 -0.38400
C 	C 	0.07580 0.43390 0.69570 0.33900
C 	C 	0.11830 0.39710 0.81300 -0.07300
C 	C 	0.19570 0.39120 0.84170 0.07600
H 	H 	0.22110 0.41020 0.78730 0.07100
C 	C 	0.23440 0.35710 0.95130 -0.14100
H 	H 	0.28600 0.35350 0.97060 0.15500
C 	C 	0.19700 0.32790 0.03380 0.18100
C 	C 	0.11860 0.33360 0.00200 -0.12200
H 	H 	0.09270 0.31390 0.05370 0.14900
C 	C 	0.08010 0.36810 0.89480 0.09700
H 	H 	0.02870 0.37230 0.87660 0.08500
C 	C 	0.23460 0.29170 0.14580 -0.07200
C 	C 	0.26300 0.26090 0.24350 0.22300
C 	C 	0.29220 0.22360 0.35820 -0.21800
C 	C 	0.36740 0.21980 0.43900 0.35400
C 	C 	0.39600 0.18320 0.54570 0.14400
C 	C 	0.34820 0.14940 0.57990 0.23500
C 	C 	0.27310 0.15240 0.50390 0.12700
C 	C 	0.24620 0.18870 0.39330 0.33100
O 	O 	0.10410 0.44792 0.59070 -0.32900
O 	O 	0.01310 0.44770 0.71210 -0.32500
F 	F 	0.41410 0.25300 0.41060 -0.34000
F 	F 	0.46820 0.18100 0.62450 -0.32700
F 	F 	0.37590 0.11427 0.68620 -0.37900
F 	F 	0.22660 0.12000 0.53620 -0.32200
F 	F 	0.17260 0.19130 0.32330 -0.38400
Rh	Rh	0.04744 0.50000 0.43492 0.90100
Rh	Rh	0.95256 0.50000 0.56508 0.90100
