data_crystal

_cell_length_a 17.66650
_cell_length_b 22.72260
_cell_length_c 8.57490
_cell_angle_alpha 90.00000
_cell_angle_beta  118.32000
_cell_angle_gamma 90.00000

_symmetry_space_group_name_	'P 1'
_symmetry_space_group_name_H-M	'P 1'

loop_
_symmetry_equiv_pos_as_xyz
  x,y,z

loop_
_atom_site_label
_atom_site_type_symbol
_atom_site_fract_x
_atom_site_fract_y
_atom_site_fract_z
_atom_site_charge
La	La	0.81830 0.26629 0.86640 1.68400
C 	C 	0.84120 0.08280 0.58760 -0.17400
C 	C 	0.90450 0.05700 0.74350 0.12600
H 	H 	0.94470 0.08050 0.83330 0.00100
C 	C 	0.90720 0.99740 0.76360 -0.22900
H 	H 	0.94950 0.98060 0.86720 0.11400
C 	C 	0.84630 0.96080 0.62870 0.20800
C 	C 	0.84920 0.10110 0.14830 -0.34400
H 	H 	0.89340 0.11820 0.24870 0.15900
C 	C 	0.78780 0.13600 0.02110 0.31100
C 	C 	0.72220 0.10960 0.86820 -0.27300
C 	C 	0.71830 0.04970 0.84090 0.11600
H 	H 	0.67530 0.03350 0.73680 0.01000
C 	C 	0.78130 0.98750 0.47450 -0.13600
C 	C 	0.78020 0.04910 0.45480 0.08500
H 	H 	0.73830 0.06680 0.35230 0.01100
O 	O 	0.85570 0.18664 0.71980 -0.43500
O 	O 	0.92600 0.16772 0.54250 -0.31200
O 	O 	0.72950 0.32355 0.59720 -0.43100
O 	O 	0.68470 0.20210 0.66530 -0.40200
O 	O 	0.58110 0.12270 0.56960 -0.29100
O 	O 	0.89710 0.31616 0.18000 -0.41800
O 	O 	0.78730 0.19527 0.04240 -0.51400
S 	S 	0.84905 0.15889 0.55970 0.60900
S 	S 	0.64217 0.15700 0.71720 0.57400
O 	O 	0.91280 0.30030 0.70840 -0.36800
H 	H 	0.86500 0.30070 0.59620 0.18200
H 	H 	0.93900 0.26370 0.72330 0.15300
O 	O 	0.90830 0.33780 0.79840 -0.32800
H 	H 	0.90520 0.37130 0.73360 0.21500
H 	H 	0.96280 0.33710 0.89750 0.18600
O 	O 	0.88500 0.37480 0.91970 -0.47400
H 	H 	0.92480 0.36850 0.03760 0.20400
H 	H 	0.83860 0.39480 0.91640 0.18600
La	La	0.68170 0.76629 0.63360 1.68300
C 	C 	0.65880 0.58280 0.91240 -0.17500
C 	C 	0.59550 0.55700 0.75650 0.12500
H 	H 	0.55530 0.58050 0.66670 0.00000
C 	C 	0.59280 0.49740 0.73640 -0.23000
H 	H 	0.55050 0.48060 0.63280 0.11300
C 	C 	0.65370 0.46080 0.87130 0.20800
C 	C 	0.65080 0.60110 0.35170 -0.34500
H 	H 	0.60660 0.61820 0.25130 0.15900
C 	C 	0.71220 0.63600 0.47890 0.31100
C 	C 	0.77780 0.60960 0.63180 -0.27300
C 	C 	0.78170 0.54970 0.65910 0.11600
H 	H 	0.82470 0.53350 0.76320 0.01000
C 	C 	0.71870 0.48750 0.02550 -0.13500
C 	C 	0.71980 0.54910 0.04520 0.08500
H 	H 	0.76170 0.56680 0.14770 0.01100
O 	O 	0.64430 0.68664 0.78020 -0.43500
O 	O 	0.57400 0.66772 0.95750 -0.31100
O 	O 	0.77050 0.82355 0.90280 -0.43100
O 	O 	0.81530 0.70210 0.83470 -0.40200
O 	O 	0.91890 0.62270 0.93040 -0.29100
O 	O 	0.60290 0.81616 0.32000 -0.41800
O 	O 	0.71270 0.69527 0.45760 -0.51400
S 	S 	0.65095 0.65889 0.94030 0.60900
S 	S 	0.85783 0.65700 0.78280 0.57400
O 	O 	0.58720 0.80030 0.79160 -0.36800
H 	H 	0.63500 0.80070 0.90380 0.18200
H 	H 	0.56100 0.76370 0.77670 0.15300
O 	O 	0.59170 0.83780 0.70160 -0.32800
H 	H 	0.59480 0.87130 0.76640 0.21500
H 	H 	0.53720 0.83710 0.60250 0.18600
O 	O 	0.61500 0.87480 0.58030 -0.47500
H 	H 	0.57520 0.86850 0.46240 0.20500
H 	H 	0.66140 0.89480 0.58360 0.18600
La	La	0.68170 0.23371 0.13360 1.68300
C 	C 	0.65880 0.41720 0.41240 -0.17500
C 	C 	0.59550 0.44300 0.25650 0.12500
H 	H 	0.55530 0.41950 0.16670 0.00000
C 	C 	0.59280 0.50260 0.23640 -0.23000
H 	H 	0.55050 0.51940 0.13280 0.11300
C 	C 	0.65370 0.53920 0.37130 0.20800
C 	C 	0.65080 0.39890 0.85170 -0.34500
H 	H 	0.60660 0.38180 0.75130 0.15900
C 	C 	0.71220 0.36400 0.97890 0.31100
C 	C 	0.77780 0.39040 0.13180 -0.27300
C 	C 	0.78170 0.45030 0.15910 0.11600
H 	H 	0.82470 0.46650 0.26320 0.01000
C 	C 	0.71870 0.51250 0.52550 -0.13500
C 	C 	0.71980 0.45090 0.54520 0.08500
H 	H 	0.76170 0.43320 0.64770 0.01100
O 	O 	0.64430 0.31336 0.28020 -0.43500
O 	O 	0.57400 0.33228 0.45750 -0.31200
O 	O 	0.77050 0.17645 0.40280 -0.43100
O 	O 	0.81530 0.29790 0.33470 -0.40200
O 	O 	0.91890 0.37730 0.43040 -0.29100
O 	O 	0.60290 0.18384 0.82000 -0.41800
O 	O 	0.71270 0.30473 0.95760 -0.51400
S 	S 	0.65095 0.34111 0.44030 0.60900
S 	S 	0.85783 0.34300 0.28280 0.57400
O 	O 	0.58720 0.19970 0.29160 -0.36800
H 	H 	0.63500 0.19930 0.40380 0.18200
H 	H 	0.56100 0.23630 0.27670 0.15300
O 	O 	0.59170 0.16220 0.20160 -0.32800
H 	H 	0.59480 0.12870 0.26640 0.21500
H 	H 	0.53720 0.16290 0.10250 0.18600
O 	O 	0.61500 0.12520 0.08030 -0.47500
H 	H 	0.57520 0.13150 0.96240 0.20500
H 	H 	0.66140 0.10520 0.08360 0.18600
La	La	0.81830 0.73371 0.36640 1.68300
C 	C 	0.84120 0.91720 0.08760 -0.17400
C 	C 	0.90450 0.94300 0.24350 0.12500
H 	H 	0.94470 0.91950 0.33330 0.00000
C 	C 	0.90720 0.00260 0.26360 -0.23000
H 	H 	0.94950 0.01940 0.36720 0.11300
C 	C 	0.84630 0.03920 0.12870 0.20800
C 	C 	0.84920 0.89890 0.64830 -0.34500
H 	H 	0.89340 0.88180 0.74870 0.15900
C 	C 	0.78780 0.86400 0.52110 0.31100
C 	C 	0.72220 0.89040 0.36820 -0.27300
C 	C 	0.71830 0.95030 0.34090 0.11600
H 	H 	0.67530 0.96650 0.23680 0.01000
C 	C 	0.78130 0.01250 0.97450 -0.13500
C 	C 	0.78020 0.95090 0.95480 0.08400
H 	H 	0.73830 0.93320 0.85230 0.01100
O 	O 	0.85570 0.81336 0.21980 -0.43500
O 	O 	0.92600 0.83228 0.04250 -0.31200
O 	O 	0.72950 0.67645 0.09720 -0.43100
O 	O 	0.68470 0.79790 0.16530 -0.40200
O 	O 	0.58110 0.87730 0.06960 -0.29100
O 	O 	0.89710 0.68384 0.68000 -0.41800
O 	O 	0.78730 0.80473 0.54240 -0.51400
S 	S 	0.84905 0.84111 0.05970 0.60900
S 	S 	0.64217 0.84300 0.21720 0.57400
O 	O 	0.91280 0.69970 0.20840 -0.36800
H 	H 	0.86500 0.69930 0.09620 0.18200
H 	H 	0.93900 0.73630 0.22330 0.15300
O 	O 	0.90830 0.66220 0.29840 -0.32800
H 	H 	0.90520 0.62870 0.23360 0.21500
H 	H 	0.96280 0.66290 0.39750 0.18600
O 	O 	0.88500 0.62520 0.41970 -0.47500
H 	H 	0.92480 0.63150 0.53760 0.20500
H 	H 	0.83860 0.60520 0.41640 0.18600
La	La	0.31830 0.76629 0.86640 1.68300
C 	C 	0.34120 0.58280 0.58760 -0.17500
C 	C 	0.40450 0.55700 0.74350 0.12500
H 	H 	0.44470 0.58050 0.83330 0.00000
C 	C 	0.40720 0.49740 0.76360 -0.23000
H 	H 	0.44950 0.48060 0.86720 0.11300
C 	C 	0.34630 0.46080 0.62870 0.20800
C 	C 	0.34920 0.60110 0.14830 -0.34500
H 	H 	0.39340 0.61820 0.24870 0.15900
C 	C 	0.28780 0.63600 0.02110 0.31100
C 	C 	0.22220 0.60960 0.86820 -0.27300
C 	C 	0.21830 0.54970 0.84090 0.11600
H 	H 	0.17530 0.53350 0.73680 0.01000
C 	C 	0.28130 0.48750 0.47450 -0.13500
C 	C 	0.28020 0.54910 0.45480 0.08500
H 	H 	0.23830 0.56680 0.35230 0.01100
O 	O 	0.35570 0.68664 0.71980 -0.43500
O 	O 	0.42600 0.66772 0.54250 -0.31200
O 	O 	0.22950 0.82355 0.59720 -0.43100
O 	O 	0.18470 0.70210 0.66530 -0.40200
O 	O 	0.08110 0.62270 0.56960 -0.29100
O 	O 	0.39710 0.81616 0.18000 -0.41800
O 	O 	0.28730 0.69527 0.04240 -0.51400
S 	S 	0.34905 0.65889 0.55970 0.60900
S 	S 	0.14217 0.65700 0.71720 0.57400
O 	O 	0.41280 0.80030 0.70840 -0.36800
H 	H 	0.36500 0.80070 0.59620 0.18200
H 	H 	0.43900 0.76370 0.72330 0.15300
O 	O 	0.40830 0.83780 0.79840 -0.32800
H 	H 	0.40520 0.87130 0.73360 0.21500
H 	H 	0.46280 0.83710 0.89750 0.18600
O 	O 	0.38500 0.87480 0.91970 -0.47500
H 	H 	0.42480 0.86850 0.03760 0.20500
H 	H 	0.33860 0.89480 0.91640 0.18600
La	La	0.18170 0.26629 0.63360 1.68300
C 	C 	0.15880 0.08280 0.91240 -0.17400
C 	C 	0.09550 0.05700 0.75650 0.12500
H 	H 	0.05530 0.08050 0.66670 0.00000
C 	C 	0.09280 0.99740 0.73640 -0.23000
H 	H 	0.05050 0.98060 0.63280 0.11300
C 	C 	0.15370 0.96080 0.87130 0.20800
C 	C 	0.15080 0.10110 0.35170 -0.34500
H 	H 	0.10660 0.11820 0.25130 0.15900
C 	C 	0.21220 0.13600 0.47890 0.31100
C 	C 	0.27780 0.10960 0.63180 -0.27300
C 	C 	0.28170 0.04970 0.65910 0.11600
H 	H 	0.32470 0.03350 0.76320 0.01000
C 	C 	0.21870 0.98750 0.02550 -0.13500
C 	C 	0.21980 0.04910 0.04520 0.08400
H 	H 	0.26170 0.06680 0.14770 0.01100
O 	O 	0.14430 0.18664 0.78020 -0.43500
O 	O 	0.07400 0.16772 0.95750 -0.31200
O 	O 	0.27050 0.32355 0.90280 -0.43100
O 	O 	0.31530 0.20210 0.83470 -0.40200
O 	O 	0.41890 0.12270 0.93040 -0.29100
O 	O 	0.10290 0.31616 0.32000 -0.41800
O 	O 	0.21270 0.19527 0.45760 -0.51400
S 	S 	0.15095 0.15889 0.94030 0.60900
S 	S 	0.35783 0.15700 0.78280 0.57400
O 	O 	0.08720 0.30030 0.79160 -0.36800
H 	H 	0.13500 0.30070 0.90380 0.18200
H 	H 	0.06100 0.26370 0.77670 0.15300
O 	O 	0.09170 0.33780 0.70160 -0.32800
H 	H 	0.09480 0.37130 0.76640 0.21500
H 	H 	0.03720 0.33710 0.60250 0.18600
O 	O 	0.11500 0.37480 0.58030 -0.47500
H 	H 	0.07520 0.36850 0.46240 0.20500
H 	H 	0.16140 0.39480 0.58360 0.18600
La	La	0.18170 0.73371 0.13360 1.68300
C 	C 	0.15880 0.91720 0.41240 -0.17500
C 	C 	0.09550 0.94300 0.25650 0.12500
H 	H 	0.05530 0.91950 0.16670 0.00000
C 	C 	0.09280 0.00260 0.23640 -0.23000
H 	H 	0.05050 0.01940 0.13280 0.11300
C 	C 	0.15370 0.03920 0.37130 0.20800
C 	C 	0.15080 0.89890 0.85170 -0.34400
H 	H 	0.10660 0.88180 0.75130 0.15900
C 	C 	0.21220 0.86400 0.97890 0.31100
C 	C 	0.27780 0.89040 0.13180 -0.27300
C 	C 	0.28170 0.95030 0.15910 0.11600
H 	H 	0.32470 0.96650 0.26320 0.01000
C 	C 	0.21870 0.01250 0.52550 -0.13600
C 	C 	0.21980 0.95090 0.54520 0.08500
H 	H 	0.26170 0.93320 0.64770 0.01100
O 	O 	0.14430 0.81336 0.28020 -0.43500
O 	O 	0.07400 0.83228 0.45750 -0.31200
O 	O 	0.27050 0.67645 0.40280 -0.43100
O 	O 	0.31530 0.79790 0.33470 -0.40200
O 	O 	0.41890 0.87730 0.43040 -0.29100
O 	O 	0.10290 0.68384 0.82000 -0.41800
O 	O 	0.21270 0.80473 0.95760 -0.51400
S 	S 	0.15095 0.84111 0.44030 0.60900
S 	S 	0.35783 0.84300 0.28280 0.57400
O 	O 	0.08720 0.69970 0.29160 -0.36800
H 	H 	0.13500 0.69930 0.40380 0.18200
H 	H 	0.06100 0.73630 0.27670 0.15300
O 	O 	0.09170 0.66220 0.20160 -0.32800
H 	H 	0.09480 0.62870 0.26640 0.21500
H 	H 	0.03720 0.66290 0.10250 0.18600
O 	O 	0.11500 0.62520 0.08030 -0.47400
H 	H 	0.07520 0.63150 0.96240 0.20400
H 	H 	0.16140 0.60520 0.08360 0.18600
La	La	0.31830 0.23371 0.36640 1.68300
C 	C 	0.34120 0.41720 0.08760 -0.17500
C 	C 	0.40450 0.44300 0.24350 0.12500
H 	H 	0.44470 0.41950 0.33330 0.00000
C 	C 	0.40720 0.50260 0.26360 -0.23000
H 	H 	0.44950 0.51940 0.36720 0.11300
C 	C 	0.34630 0.53920 0.12870 0.20800
C 	C 	0.34920 0.39890 0.64830 -0.34500
H 	H 	0.39340 0.38180 0.74870 0.15900
C 	C 	0.28780 0.36400 0.52110 0.31100
C 	C 	0.22220 0.39040 0.36820 -0.27300
C 	C 	0.21830 0.45030 0.34090 0.11600
H 	H 	0.17530 0.46650 0.23680 0.01000
C 	C 	0.28130 0.51250 0.97450 -0.13500
C 	C 	0.28020 0.45090 0.95480 0.08500
H 	H 	0.23830 0.43320 0.85230 0.01100
O 	O 	0.35570 0.31336 0.21980 -0.43500
O 	O 	0.42600 0.33228 0.04250 -0.31100
O 	O 	0.22950 0.17645 0.09720 -0.43100
O 	O 	0.18470 0.29790 0.16530 -0.40200
O 	O 	0.08110 0.37730 0.06960 -0.29100
O 	O 	0.39710 0.18384 0.68000 -0.41800
O 	O 	0.28730 0.30473 0.54240 -0.51400
S 	S 	0.34905 0.34111 0.05970 0.60900
S 	S 	0.14217 0.34300 0.21720 0.57400
O 	O 	0.41280 0.19970 0.20840 -0.36800
H 	H 	0.36500 0.19930 0.09620 0.18200
H 	H 	0.43900 0.23630 0.22330 0.15300
O 	O 	0.40830 0.16220 0.29840 -0.32800
H 	H 	0.40520 0.12870 0.23360 0.21500
H 	H 	0.46280 0.16290 0.39750 0.18600
O 	O 	0.38500 0.12520 0.41970 -0.47500
H 	H 	0.42480 0.13150 0.53760 0.20500
H 	H 	0.33860 0.10520 0.41640 0.18600
