data_crystal

_cell_length_a 15.17550
_cell_length_b 22.26650
_cell_length_c 8.14660
_cell_angle_alpha 90.00000
_cell_angle_beta  110.28200
_cell_angle_gamma 90.00000

_symmetry_space_group_name_	'P 1'
_symmetry_space_group_name_H-M	'P 1'

loop_
_symmetry_equiv_pos_as_xyz
  x,y,z

loop_
_atom_site_label
_atom_site_type_symbol
_atom_site_fract_x
_atom_site_fract_y
_atom_site_fract_z
_atom_site_charge
Zn	Zn	0.24656 0.13475 0.70760 1.21500
C 	C 	0.42370 0.06490 0.70970 0.08800
H 	H 	0.45140 0.10240 0.71290 -0.00200
C 	C 	0.47070 0.01650 0.70620 -0.14600
H 	H 	0.53280 0.02010 0.71220 0.08500
C 	C 	0.43180 0.95960 0.69410 0.06200
H 	H 	0.46470 0.92570 0.68190 0.01300
C 	C 	0.33760 0.95510 0.70110 -0.14800
H 	H 	0.30760 0.91870 0.70090 0.09600
C 	C 	0.29770 0.00860 0.70790 0.09000
C 	C 	0.19990 0.00640 0.70950 0.04400
C 	C 	0.14430 0.95590 0.71190 -0.14000
H 	H 	0.17020 0.91810 0.71210 0.09000
C 	C 	0.05910 0.95880 0.71370 0.08800
H 	H 	0.02520 0.92380 0.71080 0.00300
C 	C 	0.01940 0.01340 0.72000 -0.16400
H 	H 	0.95980 0.01720 0.72710 0.09400
C 	C 	0.07640 0.06510 0.71470 0.11400
H 	H 	0.05130 0.10300 0.71750 -0.01100
C 	C 	0.34320 0.18760 0.98060 0.34700
C 	C 	0.40060 0.21200 0.16010 -0.11300
C 	C 	0.37060 0.20730 0.30260 0.02700
H 	H 	0.31330 0.18930 0.28930 0.04700
C 	C 	0.42640 0.22940 0.46490 -0.10000
H 	H 	0.40630 0.22620 0.56020 0.07400
C 	C 	0.51210 0.25630 0.48470 0.03800
C 	C 	0.54210 0.26110 0.34220 -0.10200
H 	H 	0.59940 0.27910 0.35550 0.07900
C 	C 	0.48630 0.23890 0.17990 0.03200
H 	H 	0.50640 0.24210 0.08460 0.04500
C 	C 	0.58610 0.28450 0.64550 0.06000
H 	H 	0.63850 0.30330 0.63470 0.02800
C 	C 	0.57610 0.28220 0.78650 -0.25400
H 	H 	0.52430 0.26270 0.79760 0.14300
C 	C 	0.64800 0.31120 0.94500 0.39100
N 	N 	0.33190 0.06090 0.70860 -0.25400
N 	N 	0.15770 0.06210 0.70670 -0.24800
O 	O 	0.26880 0.16060 0.96420 -0.42200
O 	O 	0.36760 0.19300 0.85140 -0.39700
O 	O 	0.72090 0.33730 0.94840 -0.43400
O 	O 	0.62420 0.30840 0.07670 -0.42400
Zn	Zn	0.74656 0.36525 0.20760 1.21100
C 	C 	0.92370 0.43510 0.20970 0.07700
H 	H 	0.95140 0.39760 0.21290 -0.00200
C 	C 	0.97070 0.48350 0.20620 -0.13600
H 	H 	0.03280 0.47990 0.21220 0.07500
C 	C 	0.93180 0.54040 0.19410 0.05100
H 	H 	0.96470 0.57430 0.18190 0.01200
C 	C 	0.83760 0.54490 0.20110 -0.14800
H 	H 	0.80760 0.58130 0.20090 0.09200
C 	C 	0.79770 0.49140 0.20790 0.08600
C 	C 	0.69990 0.49360 0.20950 0.03800
C 	C 	0.64430 0.54410 0.21190 -0.13800
H 	H 	0.67020 0.58190 0.21210 0.08700
C 	C 	0.55910 0.54120 0.21370 0.07700
H 	H 	0.52520 0.57620 0.21080 0.00300
C 	C 	0.51940 0.48660 0.22000 -0.15500
H 	H 	0.45980 0.48280 0.22710 0.08400
C 	C 	0.57640 0.43490 0.21470 0.10500
H 	H 	0.55130 0.39700 0.21750 -0.01000
C 	C 	0.84320 0.31240 0.48060 0.32700
C 	C 	0.90060 0.28800 0.66010 -0.08700
C 	C 	0.87060 0.29270 0.80260 -0.00100
H 	H 	0.81330 0.31070 0.78930 0.06100
C 	C 	0.92640 0.27060 0.96490 -0.05700
H 	H 	0.90630 0.27380 0.06020 0.04900
C 	C 	0.01210 0.24370 0.98470 0.03900
C 	C 	0.04210 0.23890 0.84220 -0.09800
H 	H 	0.09940 0.22090 0.85550 0.08100
C 	C 	0.98630 0.26110 0.67990 0.02700
H 	H 	0.00640 0.25790 0.58460 0.05000
C 	C 	0.08610 0.21550 0.14550 0.03600
H 	H 	0.13850 0.19670 0.13470 0.03200
C 	C 	0.07610 0.21780 0.28650 -0.23500
H 	H 	0.02430 0.23730 0.29760 0.13100
C 	C 	0.14800 0.18880 0.44500 0.36500
N 	N 	0.83190 0.43910 0.20860 -0.25400
N 	N 	0.65770 0.43790 0.20670 -0.24900
O 	O 	0.76880 0.33940 0.46420 -0.42400
O 	O 	0.86760 0.30700 0.35140 -0.39600
O 	O 	0.22090 0.16270 0.44840 -0.43400
O 	O 	0.12420 0.19160 0.57670 -0.40600
Zn	Zn	0.74656 0.63475 0.70760 1.21400
C 	C 	0.92370 0.56490 0.70970 0.08100
H 	H 	0.95140 0.60240 0.71290 0.00100
C 	C 	0.97070 0.51650 0.70620 -0.13400
H 	H 	0.03280 0.52010 0.71220 0.07800
C 	C 	0.93180 0.45960 0.69410 0.05500
H 	H 	0.96470 0.42570 0.68190 0.01500
C 	C 	0.83760 0.45510 0.70110 -0.14500
H 	H 	0.80760 0.41870 0.70090 0.09500
C 	C 	0.79770 0.50860 0.70790 0.09000
C 	C 	0.69990 0.50640 0.70950 0.04300
C 	C 	0.64430 0.45590 0.71190 -0.13600
H 	H 	0.67020 0.41810 0.71210 0.08900
C 	C 	0.55910 0.45880 0.71370 0.08000
H 	H 	0.52520 0.42380 0.71080 0.00600
C 	C 	0.51940 0.51340 0.72000 -0.15300
H 	H 	0.45980 0.51720 0.72710 0.08800
C 	C 	0.57640 0.56510 0.71470 0.10900
H 	H 	0.55130 0.60300 0.71750 -0.00800
C 	C 	0.84320 0.68760 0.98060 0.34900
C 	C 	0.90060 0.71200 0.16010 -0.11800
C 	C 	0.87060 0.70730 0.30260 0.02900
H 	H 	0.81330 0.68930 0.28930 0.04700
C 	C 	0.92640 0.72940 0.46490 -0.10000
H 	H 	0.90630 0.72620 0.56020 0.07500
C 	C 	0.01210 0.75630 0.48470 0.03900
C 	C 	0.04210 0.76110 0.34220 -0.11000
H 	H 	0.09940 0.77910 0.35550 0.08200
C 	C 	0.98630 0.73890 0.17990 0.04400
H 	H 	0.00640 0.74210 0.08460 0.03900
C 	C 	0.08610 0.78450 0.64550 0.05800
H 	H 	0.13850 0.80330 0.63470 0.02800
C 	C 	0.07610 0.78220 0.78650 -0.25300
H 	H 	0.02430 0.76270 0.79760 0.14200
C 	C 	0.14800 0.81120 0.94500 0.39000
N 	N 	0.83190 0.56090 0.70860 -0.25200
N 	N 	0.65770 0.56210 0.70670 -0.24700
O 	O 	0.76880 0.66060 0.96420 -0.42200
O 	O 	0.86760 0.69300 0.85140 -0.39600
O 	O 	0.22090 0.83730 0.94840 -0.43400
O 	O 	0.12420 0.80840 0.07670 -0.42300
Zn	Zn	0.24656 0.86525 0.20760 1.21100
C 	C 	0.42370 0.93510 0.20970 0.08200
H 	H 	0.45140 0.89760 0.21290 -0.00500
C 	C 	0.47070 0.98350 0.20620 -0.14500
H 	H 	0.53280 0.97990 0.21220 0.08000
C 	C 	0.43180 0.04040 0.19410 0.05600
H 	H 	0.46470 0.07430 0.18190 0.01000
C 	C 	0.33760 0.04490 0.20110 -0.15100
H 	H 	0.30760 0.08130 0.20090 0.09300
C 	C 	0.29770 0.99140 0.20790 0.08700
C 	C 	0.19990 0.99360 0.20950 0.04000
C 	C 	0.14430 0.04410 0.21190 -0.14200
H 	H 	0.17020 0.08190 0.21210 0.08800
C 	C 	0.05910 0.04120 0.21370 0.08300
H 	H 	0.02520 0.07620 0.21080 0.00100
C 	C 	0.01940 0.98660 0.22000 -0.16300
H 	H 	0.95980 0.98280 0.22710 0.08900
C 	C 	0.07640 0.93490 0.21470 0.10900
H 	H 	0.05130 0.89700 0.21750 -0.01200
C 	C 	0.34320 0.81240 0.48060 0.32600
C 	C 	0.40060 0.78800 0.66010 -0.08300
C 	C 	0.37060 0.79270 0.80260 -0.00300
H 	H 	0.31330 0.81070 0.78930 0.06200
C 	C 	0.42640 0.77060 0.96490 -0.05900
H 	H 	0.40630 0.77380 0.06020 0.04900
C 	C 	0.51210 0.74370 0.98470 0.04000
C 	C 	0.54210 0.73890 0.84220 -0.09100
H 	H 	0.59940 0.72090 0.85550 0.07800
C 	C 	0.48630 0.76110 0.67990 0.01500
H 	H 	0.50640 0.75790 0.58460 0.05600
C 	C 	0.58610 0.71550 0.14550 0.03500
H 	H 	0.63850 0.69670 0.13470 0.03200
C 	C 	0.57610 0.71780 0.28650 -0.23400
H 	H 	0.52430 0.73730 0.29760 0.13100
C 	C 	0.64800 0.68880 0.44500 0.36500
N 	N 	0.33190 0.93910 0.20860 -0.25500
N 	N 	0.15770 0.93790 0.20670 -0.25000
O 	O 	0.26880 0.83940 0.46420 -0.42400
O 	O 	0.36760 0.80700 0.35140 -0.39600
O 	O 	0.72090 0.66270 0.44840 -0.43400
O 	O 	0.62420 0.69160 0.57670 -0.40600
