data_crystal

_cell_length_a 8.84380
_cell_length_b 12.78210
_cell_length_c 12.20850
_cell_angle_alpha 90.00000
_cell_angle_beta  100.06300
_cell_angle_gamma 90.00000

_symmetry_space_group_name_	'P 1'
_symmetry_space_group_name_H-M	'P 1'

loop_
_symmetry_equiv_pos_as_xyz
  x,y,z

loop_
_atom_site_label
_atom_site_type_symbol
_atom_site_fract_x
_atom_site_fract_y
_atom_site_fract_z
_atom_site_charge
Cd	Cd	0.22015 0.91397 0.38475 1.22000
Cd	Cd	0.20626 0.79095 0.03396 1.21100
Cd	Cd	0.26321 0.56056 0.34974 1.22400
O 	O 	0.00390 0.60500 0.36150 -0.38600
O 	O 	0.17350 0.73010 0.38370 -0.47100
O 	O 	0.45370 0.84540 0.41750 -0.40500
O 	O 	0.53810 0.00380 0.40120 -0.30900
O 	O 	0.48420 0.59000 0.28550 -0.37900
O 	O 	0.28670 0.65510 0.16980 -0.46400
O 	O 	0.98150 0.72680 0.06560 -0.36200
H 	H 	0.03200 0.67180 0.05700 0.06900
O 	O 	0.88450 0.87010 0.97860 -0.25500
O 	O 	0.21900 0.41950 0.22170 -0.37400
O 	O 	0.21330 0.38310 0.39880 -0.44600
O 	O 	0.23430 0.98880 0.04230 -0.52400
O 	O 	0.20350 0.90110 0.18990 -0.51400
N 	N 	0.96170 0.87660 0.40100 -0.13000
N 	N 	0.83910 0.92840 0.41000 -0.15000
H 	H 	0.83780 0.99530 0.41720 0.16200
N 	N 	0.47570 0.77470 0.06730 -0.15800
N 	N 	0.59440 0.81250 0.02500 -0.16800
H 	H 	0.58780 0.86230 0.97710 0.16200
N 	N 	0.19170 0.17370 0.35310 -0.19200
N 	N 	0.19040 0.07680 0.30950 -0.17900
C 	C 	0.03760 0.69750 0.37590 0.17000
C 	C 	0.91860 0.77530 0.39140 0.12100
C 	C 	0.76430 0.76640 0.39550 -0.08500
H 	H 	0.70620 0.70540 0.39140 0.10100
C 	C 	0.71430 0.86870 0.40710 0.03600
C 	C 	0.55660 0.91120 0.40900 0.31800
C 	C 	0.42680 0.64350 0.20030 0.29300
C 	C 	0.53240 0.69840 0.13670 -0.02100
C 	C 	0.68880 0.68740 0.13730 -0.04600
H 	H 	0.75590 0.63920 0.17700 0.09500
C 	C 	0.72200 0.76340 0.06600 0.03900
C 	C 	0.87230 0.79050 0.03470 0.29100
C 	C 	0.20900 0.35520 0.29860 0.27100
C 	C 	0.20220 0.24340 0.27200 -0.04300
C 	C 	0.21150 0.19140 0.17380 0.00600
H 	H 	0.22050 0.22000 0.10520 0.00700
C 	C 	0.20390 0.08460 0.20260 -0.09300
C 	C 	0.21510 0.98950 0.14040 0.33800
Cd	Cd	0.22015 0.08603 0.88475 1.22000
Cd	Cd	0.20626 0.20905 0.53396 1.21200
Cd	Cd	0.26321 0.43944 0.84974 1.22300
O 	O 	0.00390 0.39500 0.86150 -0.38400
O 	O 	0.17350 0.26990 0.88370 -0.47100
O 	O 	0.45370 0.15460 0.91750 -0.40300
O 	O 	0.53810 0.99620 0.90120 -0.30500
O 	O 	0.48420 0.41000 0.78550 -0.37700
O 	O 	0.28670 0.34490 0.66980 -0.46300
O 	O 	0.98150 0.27320 0.56560 -0.36600
H 	H 	0.03200 0.32820 0.55700 0.07200
O 	O 	0.88450 0.12990 0.47860 -0.26800
O 	O 	0.21900 0.58050 0.72170 -0.37200
O 	O 	0.21330 0.61690 0.89880 -0.44100
O 	O 	0.23430 0.01120 0.54230 -0.51700
O 	O 	0.20350 0.09890 0.68990 -0.51400
N 	N 	0.96170 0.12340 0.90100 -0.12900
N 	N 	0.83910 0.07160 0.91000 -0.15000
H 	H 	0.83780 0.00470 0.91720 0.16200
N 	N 	0.47570 0.22530 0.56730 -0.15700
N 	N 	0.59440 0.18750 0.52500 -0.15600
H 	H 	0.58780 0.13770 0.47710 0.15000
N 	N 	0.19170 0.82630 0.85310 -0.19000
N 	N 	0.19040 0.92320 0.80950 -0.17600
C 	C 	0.03760 0.30250 0.87590 0.17200
C 	C 	0.91860 0.22470 0.89140 0.12000
C 	C 	0.76430 0.23360 0.89550 -0.08500
H 	H 	0.70620 0.29460 0.89140 0.10200
C 	C 	0.71430 0.13130 0.90710 0.03700
C 	C 	0.55660 0.08880 0.90900 0.31500
C 	C 	0.42680 0.35650 0.70030 0.29400
C 	C 	0.53240 0.30160 0.63670 -0.02100
C 	C 	0.68880 0.31260 0.63730 -0.04200
H 	H 	0.75590 0.36080 0.67700 0.09400
C 	C 	0.72200 0.23660 0.56600 0.03400
C 	C 	0.87230 0.20950 0.53470 0.30900
C 	C 	0.20900 0.64480 0.79860 0.27100
C 	C 	0.20220 0.75660 0.77200 -0.04100
C 	C 	0.21150 0.80860 0.67380 0.00700
H 	H 	0.22050 0.78000 0.60520 0.00800
C 	C 	0.20390 0.91540 0.70260 -0.09500
C 	C 	0.21510 0.01050 0.64040 0.34100
