data_crystal

_cell_length_a 12.39800
_cell_length_b 33.49600
_cell_length_c 12.86800
_cell_angle_alpha 90.00000
_cell_angle_beta  96.64000
_cell_angle_gamma 90.00000

_symmetry_space_group_name_	'P 1'
_symmetry_space_group_name_H-M	'P 1'

loop_
_symmetry_equiv_pos_as_xyz
  x,y,z

loop_
_atom_site_label
_atom_site_type_symbol
_atom_site_fract_x
_atom_site_fract_y
_atom_site_fract_z
_atom_site_charge
Fe	Fe	0.69786 0.06952 0.60443 1.16200
C 	C 	0.79150 0.15021 0.73260 -0.00400
H 	H 	0.73170 0.15670 0.67730 0.02200
H 	H 	0.81640 0.17540 0.76790 0.01700
N 	N 	0.69650 0.08985 0.77170 -0.21700
N 	N 	0.75150 0.12308 0.80870 -0.13500
C 	C 	0.75800 0.12560 0.91250 0.27500
C 	C 	0.70390 0.09340 0.94680 -0.30500
C 	C 	0.66730 0.07123 0.85630 0.29800
C 	C 	0.60670 0.03280 0.84670 -0.68500
H 	H 	0.55610 0.03300 0.78230 0.22100
H 	H 	0.56600 0.02950 0.90700 0.21700
H 	H 	0.65810 0.01070 0.84440 0.21700
C 	C 	0.81620 0.16030 0.97200 -0.60600
H 	H 	0.79330 0.18550 0.93770 0.20000
H 	H 	0.89490 0.15710 0.97250 0.18800
H 	H 	0.79800 0.16050 0.04410 0.20100
C 	C 	0.69080 0.08320 0.05650 0.32200
C 	C 	0.67850 0.11110 0.12810 -0.10100
H 	H 	0.67920 0.13840 0.10760 0.05500
C 	C 	0.76430 0.08970 0.12890 -0.27400
H 	H 	0.82790 0.10370 0.11550 0.11100
C 	C 	0.66460 0.10230 0.23170 0.03500
H 	H 	0.65520 0.12310 0.28010 0.00700
C 	C 	0.75300 0.07640 0.22960 0.18100
H 	H 	0.81610 0.07740 0.27910 -0.04400
C 	C 	0.66460 0.06257 0.26300 -0.27900
C 	C 	0.68650 0.03340 0.19790 0.09000
H 	H 	0.69070 0.00650 0.22170 -0.00600
C 	C 	0.56770 0.05950 0.17910 0.09800
H 	H 	0.49980 0.05020 0.19680 -0.00700
C 	C 	0.70330 0.04230 0.09400 -0.17800
H 	H 	0.72280 0.02180 0.04880 0.07800
C 	C 	0.57900 0.07050 0.07560 -0.19800
H 	H 	0.52000 0.06980 0.02160 0.08400
C 	C 	0.65130 0.05323 0.37350 0.46700
O 	O 	0.69500 0.07557 0.44310 -0.48100
O 	O 	0.60240 0.02273 0.39320 -0.46900
N 	N 	0.85810 0.10005 0.62370 -0.22400
N 	N 	0.88080 0.13215 0.68530 -0.13500
C 	C 	0.98690 0.14015 0.69910 0.23300
C 	C 	0.03710 0.11200 0.64300 -0.24900
C 	C 	0.95180 0.08719 0.59770 0.26900
C 	C 	0.03500 0.17490 0.76220 -0.55500
H 	H 	0.11120 0.17820 0.75020 0.17600
H 	H 	0.03090 0.16990 0.83660 0.17000
H 	H 	0.99450 0.19920 0.74080 0.16200
C 	C 	0.96010 0.05210 0.52840 -0.66900
H 	H 	0.96890 0.02780 0.57080 0.21000
H 	H 	0.02300 0.05540 0.48950 0.21600
H 	H 	0.89390 0.05010 0.47910 0.20700
C 	C 	0.15230 0.10800 0.63140 0.18200
C 	C 	0.21220 0.13960 0.60170 -0.20600
H 	H 	0.17910 0.16500 0.58840 0.08600
C 	C 	0.32320 0.13430 0.59100 0.10200
H 	H 	0.36480 0.15640 0.57220 0.00000
C 	C 	0.37180 0.09810 0.60690 -0.16700
C 	C 	0.31050 0.06560 0.63610 0.08900
H 	H 	0.34300 0.04000 0.64640 0.00400
C 	C 	0.20280 0.07110 0.64980 -0.19900
H 	H 	0.16220 0.04930 0.67220 0.08900
C 	C 	0.48850 0.09141 0.59510 0.35200
O 	O 	0.52540 0.05596 0.59470 -0.50700
O 	O 	0.55080 0.12109 0.58920 -0.35000
N 	N 	0.11320 0.79391 0.73580 -0.26700
N 	N 	0.04900 0.78510 0.81600 -0.14000
C 	C 	0.97450 0.81370 0.82260 0.24600
C 	C 	0.98780 0.84170 0.74920 -0.25500
C 	C 	0.07470 0.82800 0.69350 0.27100
C 	C 	0.11200 0.84820 0.60490 -0.68400
H 	H 	0.17800 0.86330 0.62820 0.21700
H 	H 	0.05550 0.86640 0.57400 0.22600
H 	H 	0.12780 0.82840 0.55260 0.17900
C 	C 	0.89170 0.81260 0.90060 -0.57800
H 	H 	0.85340 0.83820 0.89950 0.18800
H 	H 	0.92890 0.80770 0.97090 0.17200
H 	H 	0.83940 0.79110 0.88170 0.18200
C 	C 	0.92080 0.87730 0.72420 0.18600
C 	C 	0.80900 0.87340 0.68810 -0.21300
H 	H 	0.77570 0.84780 0.68280 0.09600
C 	C 	0.74750 0.90810 0.66010 0.12700
H 	H 	0.67310 0.90570 0.63350 -0.00100
C 	C 	0.79290 0.94467 0.67070 -0.22000
C 	C 	0.89620 0.94880 0.71360 0.13200
H 	H 	0.92570 0.97480 0.72540 -0.01300
C 	C 	0.96080 0.91560 0.74130 -0.22900
H 	H 	0.03350 0.91930 0.77230 0.10100
C 	C 	0.72490 0.98022 0.63350 0.44900
O 	O 	0.62910 0.97401 0.59570 -0.45000
O 	O 	0.76500 0.01371 0.64630 -0.48500
Fe	Fe	0.30214 0.56952 0.39557 1.16300
C 	C 	0.20850 0.65021 0.26740 -0.00400
H 	H 	0.26830 0.65670 0.32270 0.02200
H 	H 	0.18360 0.67540 0.23210 0.01700
N 	N 	0.30350 0.58985 0.22830 -0.21700
N 	N 	0.24850 0.62308 0.19130 -0.13500
C 	C 	0.24200 0.62560 0.08750 0.27500
C 	C 	0.29610 0.59340 0.05320 -0.30600
C 	C 	0.33270 0.57123 0.14370 0.30200
C 	C 	0.39330 0.53280 0.15330 -0.69400
H 	H 	0.44390 0.53300 0.21770 0.22600
H 	H 	0.43400 0.52950 0.09300 0.22200
H 	H 	0.34190 0.51070 0.15560 0.22300
C 	C 	0.18380 0.66030 0.02800 -0.60700
H 	H 	0.20670 0.68550 0.06230 0.20000
H 	H 	0.10510 0.65710 0.02750 0.18800
H 	H 	0.20200 0.66050 0.95590 0.20100
C 	C 	0.30920 0.58320 0.94350 0.32200
C 	C 	0.32150 0.61110 0.87190 -0.10000
H 	H 	0.32080 0.63840 0.89240 0.05500
C 	C 	0.23570 0.58970 0.87110 -0.27400
H 	H 	0.17210 0.60370 0.88450 0.11100
C 	C 	0.33540 0.60230 0.76830 0.03400
H 	H 	0.34480 0.62310 0.71990 0.00700
C 	C 	0.24700 0.57640 0.77040 0.18100
H 	H 	0.18390 0.57740 0.72090 -0.04300
C 	C 	0.33540 0.56257 0.73700 -0.27800
C 	C 	0.31350 0.53340 0.80210 0.08900
H 	H 	0.30930 0.50650 0.77830 -0.00200
C 	C 	0.43230 0.55950 0.82090 0.09800
H 	H 	0.50020 0.55020 0.80320 -0.00500
C 	C 	0.29670 0.54230 0.90600 -0.17700
H 	H 	0.27720 0.52180 0.95120 0.08000
C 	C 	0.42100 0.57050 0.92440 -0.19800
H 	H 	0.48000 0.56980 0.97840 0.08500
C 	C 	0.34870 0.55323 0.62650 0.46700
O 	O 	0.30500 0.57557 0.55690 -0.48000
O 	O 	0.39760 0.52273 0.60680 -0.46500
N 	N 	0.14190 0.60005 0.37630 -0.22400
N 	N 	0.11920 0.63215 0.31470 -0.13500
C 	C 	0.01310 0.64015 0.30090 0.23400
C 	C 	0.96290 0.61200 0.35700 -0.25000
C 	C 	0.04820 0.58719 0.40230 0.27200
C 	C 	0.96500 0.67490 0.23780 -0.55600
H 	H 	0.88880 0.67820 0.24980 0.17700
H 	H 	0.96910 0.66990 0.16340 0.17000
H 	H 	0.00550 0.69920 0.25920 0.16200
C 	C 	0.03990 0.55210 0.47160 -0.67500
H 	H 	0.03110 0.52780 0.42920 0.21600
H 	H 	0.97700 0.55540 0.51050 0.21900
H 	H 	0.10610 0.55010 0.52090 0.21000
C 	C 	0.84770 0.60800 0.36860 0.18300
C 	C 	0.78780 0.63960 0.39830 -0.20600
H 	H 	0.82090 0.66500 0.41160 0.08600
C 	C 	0.67680 0.63430 0.40900 0.10100
H 	H 	0.63520 0.65640 0.42780 0.00000
C 	C 	0.62820 0.59810 0.39310 -0.16600
C 	C 	0.68950 0.56560 0.36390 0.08800
H 	H 	0.65700 0.54000 0.35360 0.00700
C 	C 	0.79720 0.57110 0.35020 -0.19800
H 	H 	0.83780 0.54930 0.32780 0.09100
C 	C 	0.51150 0.59141 0.40490 0.35200
O 	O 	0.47460 0.55596 0.40530 -0.50500
O 	O 	0.44920 0.62109 0.41080 -0.34900
N 	N 	0.88680 0.29391 0.26420 -0.26700
N 	N 	0.95100 0.28510 0.18400 -0.13900
C 	C 	0.02550 0.31370 0.17740 0.24600
C 	C 	0.01220 0.34170 0.25080 -0.25500
C 	C 	0.92530 0.32800 0.30650 0.27200
C 	C 	0.88800 0.34820 0.39510 -0.68500
H 	H 	0.82200 0.36330 0.37180 0.21700
H 	H 	0.94450 0.36640 0.42600 0.22600
H 	H 	0.87220 0.32840 0.44740 0.17900
C 	C 	0.10830 0.31260 0.09940 -0.57700
H 	H 	0.14660 0.33820 0.10050 0.18700
H 	H 	0.07110 0.30770 0.02910 0.17200
H 	H 	0.16060 0.29110 0.11830 0.18200
C 	C 	0.07920 0.37730 0.27580 0.18500
C 	C 	0.19100 0.37340 0.31190 -0.21200
H 	H 	0.22430 0.34780 0.31720 0.09600
C 	C 	0.25250 0.40810 0.33990 0.12400
H 	H 	0.32690 0.40570 0.36650 -0.00000
C 	C 	0.20710 0.44467 0.32930 -0.21600
C 	C 	0.10380 0.44880 0.28640 0.12900
H 	H 	0.07430 0.47480 0.27460 -0.01600
C 	C 	0.03920 0.41560 0.25870 -0.22900
H 	H 	0.96650 0.41930 0.22770 0.10100
C 	C 	0.27510 0.48022 0.36650 0.43200
O 	O 	0.37090 0.47401 0.40430 -0.45100
O 	O 	0.23500 0.51371 0.35370 -0.47300
Fe	Fe	0.30214 0.93048 0.39557 1.16400
C 	C 	0.20850 0.84979 0.26740 -0.00400
H 	H 	0.26830 0.84330 0.32270 0.02200
H 	H 	0.18360 0.82460 0.23210 0.01700
N 	N 	0.30350 0.91015 0.22830 -0.21700
N 	N 	0.24850 0.87692 0.19130 -0.13500
C 	C 	0.24200 0.87440 0.08750 0.27600
C 	C 	0.29610 0.90660 0.05320 -0.30600
C 	C 	0.33270 0.92877 0.14370 0.30500
C 	C 	0.39330 0.96720 0.15330 -0.70300
H 	H 	0.44390 0.96700 0.21770 0.23100
H 	H 	0.43400 0.97050 0.09300 0.22800
H 	H 	0.34190 0.98930 0.15560 0.22900
C 	C 	0.18380 0.83970 0.02800 -0.60700
H 	H 	0.20670 0.81450 0.06230 0.20000
H 	H 	0.10510 0.84290 0.02750 0.18800
H 	H 	0.20200 0.83950 0.95590 0.20100
C 	C 	0.30920 0.91680 0.94350 0.32100
C 	C 	0.32150 0.88890 0.87190 -0.10000
H 	H 	0.32080 0.86160 0.89240 0.05500
C 	C 	0.23570 0.91030 0.87110 -0.27300
H 	H 	0.17210 0.89630 0.88450 0.11100
C 	C 	0.33540 0.89770 0.76830 0.03300
H 	H 	0.34480 0.87690 0.71990 0.00700
C 	C 	0.24700 0.92360 0.77040 0.18100
H 	H 	0.18390 0.92260 0.72090 -0.04200
C 	C 	0.33540 0.93743 0.73700 -0.27600
C 	C 	0.31350 0.96660 0.80210 0.08800
H 	H 	0.30930 0.99350 0.77830 0.00300
C 	C 	0.43230 0.94050 0.82090 0.09800
H 	H 	0.50020 0.94980 0.80320 -0.00300
C 	C 	0.29670 0.95770 0.90600 -0.17500
H 	H 	0.27720 0.97820 0.95120 0.08200
C 	C 	0.42100 0.92950 0.92440 -0.19700
H 	H 	0.48000 0.93020 0.97840 0.08600
C 	C 	0.34870 0.94677 0.62650 0.46500
O 	O 	0.30500 0.92443 0.55690 -0.47900
O 	O 	0.39760 0.97727 0.60680 -0.45800
N 	N 	0.14190 0.89995 0.37630 -0.22400
N 	N 	0.11920 0.86785 0.31470 -0.13500
C 	C 	0.01310 0.85985 0.30090 0.23400
C 	C 	0.96290 0.88800 0.35700 -0.25000
C 	C 	0.04820 0.91281 0.40230 0.27400
C 	C 	0.96500 0.82510 0.23780 -0.55600
H 	H 	0.88880 0.82180 0.24980 0.17700
H 	H 	0.96910 0.83010 0.16340 0.17100
H 	H 	0.00550 0.80080 0.25920 0.16200
C 	C 	0.03990 0.94790 0.47160 -0.68300
H 	H 	0.03110 0.97220 0.42920 0.22100
H 	H 	0.97700 0.94460 0.51050 0.22200
H 	H 	0.10610 0.94990 0.52090 0.21300
C 	C 	0.84770 0.89200 0.36860 0.18300
C 	C 	0.78780 0.86040 0.39830 -0.20600
H 	H 	0.82090 0.83500 0.41160 0.08600
C 	C 	0.67680 0.86570 0.40900 0.10100
H 	H 	0.63520 0.84360 0.42780 0.00000
C 	C 	0.62820 0.90190 0.39310 -0.16500
C 	C 	0.68950 0.93440 0.36390 0.08800
H 	H 	0.65700 0.96000 0.35360 0.01100
C 	C 	0.79720 0.92890 0.35020 -0.19700
H 	H 	0.83780 0.95070 0.32780 0.09300
C 	C 	0.51150 0.90859 0.40490 0.35100
O 	O 	0.47460 0.94404 0.40530 -0.50200
O 	O 	0.44920 0.87891 0.41080 -0.34900
N 	N 	0.88680 0.20609 0.26420 -0.26700
N 	N 	0.95100 0.21490 0.18400 -0.13900
C 	C 	0.02550 0.18630 0.17740 0.24500
C 	C 	0.01220 0.15830 0.25080 -0.25400
C 	C 	0.92530 0.17200 0.30650 0.27100
C 	C 	0.88800 0.15180 0.39510 -0.68400
H 	H 	0.82200 0.13670 0.37180 0.21700
H 	H 	0.94450 0.13360 0.42600 0.22600
H 	H 	0.87220 0.17160 0.44740 0.17900
C 	C 	0.10830 0.18740 0.09940 -0.57600
H 	H 	0.14660 0.16180 0.10050 0.18700
H 	H 	0.07110 0.19230 0.02910 0.17200
H 	H 	0.16060 0.20890 0.11830 0.18100
C 	C 	0.07920 0.12270 0.27580 0.18300
C 	C 	0.19100 0.12660 0.31190 -0.20900
H 	H 	0.22430 0.15220 0.31720 0.09500
C 	C 	0.25250 0.09190 0.33990 0.12000
H 	H 	0.32690 0.09430 0.36650 0.00100
C 	C 	0.20710 0.05533 0.32930 -0.21100
C 	C 	0.10380 0.05120 0.28640 0.12400
H 	H 	0.07430 0.02520 0.27460 -0.01800
C 	C 	0.03920 0.08440 0.25870 -0.22600
H 	H 	0.96650 0.08070 0.22770 0.09900
C 	C 	0.27510 0.01978 0.36650 0.41500
O 	O 	0.37090 0.02599 0.40430 -0.45000
O 	O 	0.23500 0.98629 0.35370 -0.46000
Fe	Fe	0.69786 0.43048 0.60443 1.16300
C 	C 	0.79150 0.34979 0.73260 -0.00400
H 	H 	0.73170 0.34330 0.67730 0.02200
H 	H 	0.81640 0.32460 0.76790 0.01700
N 	N 	0.69650 0.41015 0.77170 -0.21700
N 	N 	0.75150 0.37692 0.80870 -0.13500
C 	C 	0.75800 0.37440 0.91250 0.27500
C 	C 	0.70390 0.40660 0.94680 -0.30600
C 	C 	0.66730 0.42877 0.85630 0.30200
C 	C 	0.60670 0.46720 0.84670 -0.69400
H 	H 	0.55610 0.46700 0.78230 0.22600
H 	H 	0.56600 0.47050 0.90700 0.22200
H 	H 	0.65810 0.48930 0.84440 0.22300
C 	C 	0.81620 0.33970 0.97200 -0.60700
H 	H 	0.79330 0.31450 0.93770 0.20000
H 	H 	0.89490 0.34290 0.97250 0.18800
H 	H 	0.79800 0.33950 0.04410 0.20100
C 	C 	0.69080 0.41680 0.05650 0.32200
C 	C 	0.67850 0.38890 0.12810 -0.10000
H 	H 	0.67920 0.36160 0.10760 0.05500
C 	C 	0.76430 0.41030 0.12890 -0.27400
H 	H 	0.82790 0.39630 0.11550 0.11100
C 	C 	0.66460 0.39770 0.23170 0.03400
H 	H 	0.65520 0.37690 0.28010 0.00700
C 	C 	0.75300 0.42360 0.22960 0.18100
H 	H 	0.81610 0.42260 0.27910 -0.04300
C 	C 	0.66460 0.43743 0.26300 -0.27800
C 	C 	0.68650 0.46660 0.19790 0.08900
H 	H 	0.69070 0.49350 0.22170 -0.00200
C 	C 	0.56770 0.44050 0.17910 0.09800
H 	H 	0.49980 0.44980 0.19680 -0.00500
C 	C 	0.70330 0.45770 0.09400 -0.17700
H 	H 	0.72280 0.47820 0.04880 0.08100
C 	C 	0.57900 0.42950 0.07560 -0.19800
H 	H 	0.52000 0.43020 0.02160 0.08500
C 	C 	0.65130 0.44677 0.37350 0.46700
O 	O 	0.69500 0.42443 0.44310 -0.48000
O 	O 	0.60240 0.47727 0.39320 -0.46500
N 	N 	0.85810 0.39995 0.62370 -0.22400
N 	N 	0.88080 0.36785 0.68530 -0.13500
C 	C 	0.98690 0.35985 0.69910 0.23400
C 	C 	0.03710 0.38800 0.64300 -0.25000
C 	C 	0.95180 0.41281 0.59770 0.27200
C 	C 	0.03500 0.32510 0.76220 -0.55600
H 	H 	0.11120 0.32180 0.75020 0.17700
H 	H 	0.03090 0.33010 0.83660 0.17100
H 	H 	0.99450 0.30080 0.74080 0.16300
C 	C 	0.96010 0.44790 0.52840 -0.67500
H 	H 	0.96890 0.47220 0.57080 0.21600
H 	H 	0.02300 0.44460 0.48950 0.21900
H 	H 	0.89390 0.44990 0.47910 0.21000
C 	C 	0.15230 0.39200 0.63140 0.18300
C 	C 	0.21220 0.36040 0.60170 -0.20600
H 	H 	0.17910 0.33500 0.58840 0.08600
C 	C 	0.32320 0.36570 0.59100 0.10100
H 	H 	0.36480 0.34360 0.57220 0.00000
C 	C 	0.37180 0.40190 0.60690 -0.16600
C 	C 	0.31050 0.43440 0.63610 0.08800
H 	H 	0.34300 0.46000 0.64640 0.00700
C 	C 	0.20280 0.42890 0.64980 -0.19900
H 	H 	0.16220 0.45070 0.67220 0.09100
C 	C 	0.48850 0.40859 0.59510 0.35200
O 	O 	0.52540 0.44404 0.59470 -0.50500
O 	O 	0.55080 0.37891 0.58920 -0.34900
N 	N 	0.11320 0.70609 0.73580 -0.26700
N 	N 	0.04900 0.71490 0.81600 -0.14000
C 	C 	0.97450 0.68630 0.82260 0.24600
C 	C 	0.98780 0.65830 0.74920 -0.25500
C 	C 	0.07470 0.67200 0.69350 0.27100
C 	C 	0.11200 0.65180 0.60490 -0.68400
H 	H 	0.17800 0.63670 0.62820 0.21700
H 	H 	0.05550 0.63360 0.57400 0.22600
H 	H 	0.12780 0.67160 0.55260 0.17900
C 	C 	0.89170 0.68740 0.90060 -0.57700
H 	H 	0.85340 0.66180 0.89950 0.18700
H 	H 	0.92890 0.69230 0.97090 0.17200
H 	H 	0.83940 0.70890 0.88170 0.18200
C 	C 	0.92080 0.62270 0.72420 0.18500
C 	C 	0.80900 0.62660 0.68810 -0.21200
H 	H 	0.77570 0.65220 0.68280 0.09500
C 	C 	0.74750 0.59190 0.66010 0.12400
H 	H 	0.67310 0.59430 0.63350 -0.00000
C 	C 	0.79290 0.55533 0.67070 -0.21600
C 	C 	0.89620 0.55120 0.71360 0.12900
H 	H 	0.92570 0.52520 0.72540 -0.01500
C 	C 	0.96080 0.58440 0.74130 -0.22800
H 	H 	0.03350 0.58070 0.77230 0.10000
C 	C 	0.72490 0.51978 0.63350 0.43200
O 	O 	0.62910 0.52599 0.59570 -0.45100
O 	O 	0.76500 0.48629 0.64630 -0.47300
Fe	Fe	0.50000 -0.00000 0.50000 1.19800
Fe	Fe	0.50000 0.50000 0.50000 1.20400
Fe	Fe	0.21931 0.75000 0.69427 1.06300
Cl	Cl	0.35020 0.75000 0.85040 -0.53200
C 	C 	0.06980 0.75000 0.87920 -0.01800
H 	H 	0.02250 0.75000 0.93610 0.01900
H 	H 	0.14630 0.75000 0.91130 0.03300
Fe	Fe	0.78069 0.25000 0.30573 1.06300
Cl	Cl	0.64980 0.25000 0.14960 -0.53200
C 	C 	0.93020 0.25000 0.12080 -0.01800
H 	H 	0.97750 0.25000 0.06390 0.01900
H 	H 	0.85370 0.25000 0.08870 0.03300
