data_crystal

_cell_length_a 6.93430
_cell_length_b 10.91630
_cell_length_c 16.86580
_cell_angle_alpha 95.78800
_cell_angle_beta  94.36100
_cell_angle_gamma 96.85500

_symmetry_space_group_name_	'P 1'
_symmetry_space_group_name_H-M	'P 1'

loop_
_symmetry_equiv_pos_as_xyz
  x,y,z

loop_
_atom_site_label
_atom_site_type_symbol
_atom_site_fract_x
_atom_site_fract_y
_atom_site_fract_z
_atom_site_charge
Cu	Cu	0.50051 0.36055 0.00064 0.90000
Cu	Cu	0.53123 0.53163 0.18666 0.88900
O 	O 	0.45280 0.24310 0.07905 -0.42500
O 	O 	0.57560 0.36020 0.19281 -0.44900
O 	O 	0.49760 0.70760 0.19366 -0.44800
O 	O 	0.44400 0.50628 0.07095 -0.72200
H 	H 	0.33170 0.50960 0.08740 0.20200
O 	O 	0.46220 0.78090 0.07470 -0.42900
O 	O 	0.68010 0.96790 0.43349 -0.20900
O 	O 	0.71920 0.17400 0.43862 -0.21900
N 	N 	0.60880 0.56080 0.30760 -0.19100
N 	N 	0.97470 0.49370 0.46110 -0.08200
C 	C 	0.49760 0.62490 0.35300 0.03200
H 	H 	0.38810 0.65420 0.33030 0.01800
C 	C 	0.54840 0.64730 0.43490 -0.03600
H 	H 	0.47120 0.69280 0.46620 0.07700
C 	C 	0.76150 0.51890 0.34340 -0.01900
H 	H 	0.83950 0.47290 0.31290 0.03600
C 	C 	0.80660 0.54270 0.42570 0.09200
C 	C 	0.70440 0.60590 0.47120 -0.08000
H 	H 	0.73660 0.62230 0.52610 0.08400
C 	C 	0.51620 0.25920 0.15134 0.37300
C 	C 	0.52640 0.14440 0.19389 -0.12300
C 	C 	0.48860 0.02590 0.15188 0.05500
H 	H 	0.45210 0.01650 0.09720 0.03700
C 	C 	0.50560 0.92170 0.19225 -0.12500
C 	C 	0.48410 0.79250 0.14947 0.37900
C 	C 	0.55980 0.93690 0.27385 0.04700
H 	H 	0.56980 0.86760 0.30100 0.04500
C 	C 	0.59920 0.05510 0.31545 -0.09400
C 	C 	0.58210 0.15910 0.27537 0.04600
H 	H 	0.60790 0.23810 0.30310 0.04100
C 	C 	0.67000 0.06680 0.40140 0.29900
Cu	Cu	0.49949 0.63945 0.99936 0.89900
Cu	Cu	0.46877 0.46837 0.81334 0.88800
O 	O 	0.54720 0.75690 0.92095 -0.42500
O 	O 	0.42440 0.63980 0.80719 -0.44900
O 	O 	0.50240 0.29240 0.80634 -0.44800
O 	O 	0.55600 0.49372 0.92905 -0.72200
H 	H 	0.66830 0.49040 0.91260 0.20200
O 	O 	0.53780 0.21910 0.92530 -0.42900
O 	O 	0.31990 0.03210 0.56651 -0.20900
O 	O 	0.28080 0.82600 0.56138 -0.21900
N 	N 	0.39120 0.43920 0.69240 -0.19100
N 	N 	0.02530 0.50630 0.53890 -0.08200
C 	C 	0.50240 0.37510 0.64700 0.03200
H 	H 	0.61190 0.34580 0.66970 0.01800
C 	C 	0.45160 0.35270 0.56510 -0.03600
H 	H 	0.52880 0.30720 0.53380 0.07700
C 	C 	0.23850 0.48110 0.65660 -0.01900
H 	H 	0.16050 0.52710 0.68710 0.03600
C 	C 	0.19340 0.45730 0.57430 0.09200
C 	C 	0.29560 0.39410 0.52880 -0.08000
H 	H 	0.26340 0.37770 0.47390 0.08400
C 	C 	0.48380 0.74080 0.84866 0.37300
C 	C 	0.47360 0.85560 0.80611 -0.12300
C 	C 	0.51140 0.97410 0.84812 0.05500
H 	H 	0.54790 0.98350 0.90280 0.03700
C 	C 	0.49440 0.07830 0.80775 -0.12500
C 	C 	0.51590 0.20750 0.85053 0.37900
C 	C 	0.44020 0.06310 0.72615 0.04700
H 	H 	0.43020 0.13240 0.69900 0.04500
C 	C 	0.40080 0.94490 0.68455 -0.09400
C 	C 	0.41790 0.84090 0.72463 0.04600
H 	H 	0.39210 0.76190 0.69690 0.04100
C 	C 	0.33000 0.93320 0.59860 0.29900
