data_crystal

_cell_length_a 10.95930
_cell_length_b 13.84540
_cell_length_c 17.40390
_cell_angle_alpha 109.18600
_cell_angle_beta  90.17700
_cell_angle_gamma 108.00900

_symmetry_space_group_name_	'P 1'
_symmetry_space_group_name_H-M	'P 1'

loop_
_symmetry_equiv_pos_as_xyz
  x,y,z

loop_
_atom_site_label
_atom_site_type_symbol
_atom_site_fract_x
_atom_site_fract_y
_atom_site_fract_z
_atom_site_charge
Zn	Zn	0.58450 0.93737 0.41076 1.17300
Cu	Cu	0.25150 0.89043 0.40482 0.88700
Cl	Cl	0.66160 0.83210 0.30480 -0.58100
O 	O 	0.40540 0.85100 0.40960 -0.56900
O 	O 	0.40530 0.65540 0.21360 -0.34600
H 	H 	0.47550 0.70700 0.22740 0.23900
O 	O 	0.13490 0.53320 0.36640 -0.35300
H 	H 	0.18470 0.54050 0.40620 0.20200
O 	O 	0.32600 0.98770 0.31080 -0.41500
H 	H 	0.40320 0.02610 0.32860 0.17300
O 	O 	0.32570 0.03630 0.48410 -0.56600
O 	O 	0.99040 0.10160 0.45600 -0.37400
H 	H 	0.91600 0.09520 0.43800 0.16900
N 	N 	0.16150 0.73260 0.35040 -0.21900
H 	H 	0.12840 0.70680 0.39610 0.07000
N 	N 	0.10410 0.94180 0.39120 -0.21200
H 	H 	0.05990 0.94630 0.44180 0.09500
C 	C 	0.95100 0.76010 0.32140 -0.11200
H 	H 	0.86730 0.72260 0.28620 0.08700
H 	H 	0.93520 0.76220 0.37780 0.06700
C 	C 	0.04500 0.69460 0.28990 -0.07800
H 	H 	0.99880 0.61690 0.27940 0.06900
H 	H 	0.07220 0.70250 0.23750 0.07600
C 	C 	0.25870 0.67770 0.31990 -0.03000
C 	C 	0.37240 0.73730 0.38770 0.08200
H 	H 	0.34930 0.71670 0.43650 -0.02000
H 	H 	0.44810 0.71530 0.36870 0.00000
C 	C 	0.30100 0.69610 0.23820 0.05700
H 	H 	0.22710 0.65840 0.19460 0.03900
H 	H 	0.32880 0.77440 0.24660 0.01200
C 	C 	0.21000 0.55730 0.30330 0.06200
H 	H 	0.15540 0.51990 0.24970 0.03400
H 	H 	0.28360 0.53020 0.30060 0.02600
C 	C 	0.00300 0.87180 0.32110 -0.07100
H 	H 	0.93190 0.90240 0.32410 0.07800
H 	H 	0.04020 0.87090 0.26920 0.06600
C 	C 	0.16890 0.05320 0.39580 -0.05300
C 	C 	0.24720 0.05580 0.32270 0.09200
H 	H 	0.18700 0.03170 0.27240 -0.00500
H 	H 	0.30290 0.13120 0.33230 -0.01300
C 	C 	0.25800 0.10650 0.47680 0.08900
H 	H 	0.32090 0.17640 0.47820 -0.00800
H 	H 	0.20680 0.12110 0.52330 0.00600
C 	C 	0.07480 0.11500 0.39740 0.11300
H 	H 	0.12340 0.19290 0.41070 -0.00700
H 	H 	0.02480 0.08780 0.34270 -0.01400
Zn	Zn	0.41550 0.06263 0.58924 1.17400
Cu	Cu	0.74850 0.10957 0.59518 0.88800
Cl	Cl	0.33840 0.16790 0.69520 -0.58100
O 	O 	0.59460 0.14900 0.59040 -0.56900
O 	O 	0.59470 0.34460 0.78640 -0.34600
H 	H 	0.52450 0.29300 0.77260 0.23900
O 	O 	0.86510 0.46680 0.63360 -0.35300
H 	H 	0.81530 0.45950 0.59380 0.20200
O 	O 	0.67400 0.01230 0.68920 -0.41500
H 	H 	0.59680 0.97390 0.67140 0.17300
O 	O 	0.67430 0.96370 0.51590 -0.56600
O 	O 	0.00960 0.89840 0.54400 -0.37400
H 	H 	0.08400 0.90480 0.56200 0.16900
N 	N 	0.83850 0.26740 0.64960 -0.21900
H 	H 	0.87160 0.29320 0.60390 0.07000
N 	N 	0.89590 0.05820 0.60880 -0.21200
H 	H 	0.94010 0.05370 0.55820 0.09500
C 	C 	0.04900 0.23990 0.67860 -0.11200
H 	H 	0.13270 0.27740 0.71380 0.08700
H 	H 	0.06480 0.23780 0.62220 0.06700
C 	C 	0.95500 0.30540 0.71010 -0.07800
H 	H 	0.00120 0.38310 0.72060 0.06900
H 	H 	0.92780 0.29750 0.76250 0.07600
C 	C 	0.74130 0.32230 0.68010 -0.03000
C 	C 	0.62760 0.26270 0.61230 0.08200
H 	H 	0.65070 0.28330 0.56350 -0.02000
H 	H 	0.55190 0.28470 0.63130 0.00000
C 	C 	0.69900 0.30390 0.76180 0.05700
H 	H 	0.77290 0.34160 0.80540 0.03900
H 	H 	0.67120 0.22560 0.75340 0.01200
C 	C 	0.79000 0.44270 0.69670 0.06200
H 	H 	0.84460 0.48010 0.75030 0.03400
H 	H 	0.71640 0.46980 0.69940 0.02600
C 	C 	0.99700 0.12820 0.67890 -0.07100
H 	H 	0.06810 0.09760 0.67590 0.07800
H 	H 	0.95980 0.12910 0.73080 0.06600
C 	C 	0.83110 0.94680 0.60420 -0.05300
C 	C 	0.75280 0.94420 0.67730 0.09200
H 	H 	0.81300 0.96830 0.72760 -0.00500
H 	H 	0.69710 0.86880 0.66770 -0.01300
C 	C 	0.74200 0.89350 0.52320 0.08900
H 	H 	0.67910 0.82360 0.52180 -0.00800
H 	H 	0.79320 0.87890 0.47670 0.00600
C 	C 	0.92520 0.88500 0.60260 0.11300
H 	H 	0.87660 0.80710 0.58930 -0.00700
H 	H 	0.97520 0.91220 0.65730 -0.01400
Zn	Zn	0.91040 0.05478 0.94055 1.17400
Cu	Cu	0.75510 0.89465 0.04184 0.89100
Cl	Cl	0.82990 0.15570 0.88670 -0.55100
O 	O 	0.90910 0.85770 0.01740 -0.56700
O 	O 	0.92120 0.66430 0.10740 -0.33000
H 	H 	0.90840 0.60560 0.06850 0.21000
O 	O 	0.64660 0.54970 0.89340 -0.34700
H 	H 	0.56780 0.52770 0.89900 0.21500
O 	O 	0.83300 0.99880 0.18670 -0.41700
H 	H 	0.90850 0.03800 0.18600 0.17500
O 	O 	0.82790 0.03830 0.03490 -0.56900
O 	O 	0.48950 0.10310 0.09370 -0.38800
H 	H 	0.44730 0.03690 0.07150 0.20200
N 	N 	0.66880 0.73710 0.01560 -0.22500
H 	H 	0.63200 0.70960 0.95690 0.07400
N 	N 	0.60870 0.94560 0.08150 -0.21400
H 	H 	0.56200 0.94600 0.03220 0.06900
C 	C 	0.46100 0.75970 0.05900 -0.14900
H 	H 	0.37800 0.72060 0.07430 0.09300
H 	H 	0.44420 0.75890 0.00280 0.07400
C 	C 	0.55600 0.70100 0.05940 -0.04000
H 	H 	0.58760 0.71480 0.11670 0.05300
H 	H 	0.51280 0.62210 0.03280 0.04000
C 	C 	0.76790 0.68480 0.01610 -0.04000
C 	C 	0.87820 0.74690 0.97840 0.09900
H 	H 	0.91950 0.71380 0.93430 -0.01300
C 	C 	0.81550 0.70190 0.10480 0.05300
H 	H 	0.84180 0.78000 0.13790 0.02700
H 	H 	0.74380 0.66290 0.12920 0.02900
C 	C 	0.72100 0.56260 0.96430 0.08700
H 	H 	0.79600 0.53730 0.94940 0.01500
H 	H 	0.66840 0.52010 0.99570 -0.00100
C 	C 	0.50880 0.87920 0.11880 -0.04900
H 	H 	0.43550 0.90750 0.12870 0.06000
H 	H 	0.54650 0.88300 0.17200 0.04900
C 	C 	0.67170 0.05910 0.13140 -0.06200
C 	C 	0.75170 0.06350 0.20710 0.09900
H 	H 	0.80540 0.13950 0.23690 -0.01400
H 	H 	0.69160 0.03910 0.24440 -0.01300
C 	C 	0.76110 0.10810 0.07550 0.10200
H 	H 	0.76950 0.17560 0.06960 -0.00900
C 	C 	0.57590 0.11820 0.16290 0.09100
H 	H 	0.52600 0.08890 0.20230 -0.00600
H 	H 	0.62240 0.19630 0.19130 0.00500
Zn	Zn	0.08960 0.94522 0.05945 1.17400
Cu	Cu	0.24490 0.10535 0.95816 0.89100
Cl	Cl	0.17010 0.84430 0.11330 -0.55100
O 	O 	0.09090 0.14230 0.98260 -0.56700
O 	O 	0.07880 0.33570 0.89260 -0.33000
H 	H 	0.09160 0.39440 0.93150 0.21000
O 	O 	0.35340 0.45030 0.10660 -0.34700
H 	H 	0.43220 0.47230 0.10100 0.21500
O 	O 	0.16700 0.00120 0.81330 -0.41700
H 	H 	0.09150 0.96200 0.81400 0.17500
O 	O 	0.17210 0.96170 0.96510 -0.56900
O 	O 	0.51050 0.89690 0.90630 -0.38800
H 	H 	0.55270 0.96310 0.92850 0.20200
N 	N 	0.33120 0.26290 0.98440 -0.22500
H 	H 	0.36800 0.29040 0.04310 0.07400
N 	N 	0.39130 0.05440 0.91850 -0.21400
H 	H 	0.43800 0.05400 0.96780 0.06900
C 	C 	0.53900 0.24030 0.94100 -0.14900
H 	H 	0.62200 0.27940 0.92570 0.09300
H 	H 	0.55580 0.24110 0.99720 0.07400
C 	C 	0.44400 0.29900 0.94060 -0.04000
H 	H 	0.41240 0.28520 0.88330 0.05300
H 	H 	0.48720 0.37790 0.96720 0.04000
C 	C 	0.23210 0.31520 0.98390 -0.04000
C 	C 	0.12180 0.25310 0.02160 0.09900
H 	H 	0.08050 0.28620 0.06570 -0.01300
C 	C 	0.18450 0.29810 0.89520 0.05300
H 	H 	0.15820 0.22000 0.86210 0.02700
H 	H 	0.25620 0.33710 0.87080 0.02900
C 	C 	0.27900 0.43740 0.03570 0.08700
H 	H 	0.20400 0.46270 0.05060 0.01500
H 	H 	0.33160 0.47990 0.00430 -0.00100
C 	C 	0.49120 0.12080 0.88120 -0.04900
H 	H 	0.56450 0.09250 0.87130 0.06000
H 	H 	0.45350 0.11700 0.82800 0.04900
C 	C 	0.32830 0.94090 0.86860 -0.06200
C 	C 	0.24830 0.93650 0.79290 0.09900
H 	H 	0.19460 0.86050 0.76310 -0.01400
H 	H 	0.30840 0.96090 0.75560 -0.01300
C 	C 	0.23890 0.89190 0.92450 0.10200
H 	H 	0.23050 0.82440 0.93040 -0.00900
C 	C 	0.42410 0.88180 0.83710 0.09100
H 	H 	0.47400 0.91110 0.79770 -0.00600
H 	H 	0.37760 0.80370 0.80870 0.00500
