data_crystal

_cell_length_a 18.80590
_cell_length_b 18.80590
_cell_length_c 37.62620
_cell_angle_alpha 90.00000
_cell_angle_beta  90.00000
_cell_angle_gamma 120.00000

_symmetry_space_group_name_	'P 1'
_symmetry_space_group_name_H-M	'P 1'

loop_
_symmetry_equiv_pos_as_xyz
  x,y,z

loop_
_atom_site_label
_atom_site_type_symbol
_atom_site_fract_x
_atom_site_fract_y
_atom_site_fract_z
_atom_site_charge
O 	O 	0.44419 0.14920 0.17148 -0.40400
O 	O 	0.36669 0.11030 0.12259 -0.40800
C 	C 	0.42710 0.12100 0.14070 0.36700
C 	C 	0.48620 0.10000 0.12331 -0.08000
C 	C 	0.47220 0.07060 0.08789 -0.01500
H 	H 	0.42450 0.06090 0.07620 0.06000
C 	C 	0.57470 0.04330 0.01280 0.11200
H 	H 	0.63030 0.07650 0.02070 0.01000
N 	N 	0.43890 0.98090 0.02240 -0.15200
O 	O 	0.11086 0.48253 0.50481 -0.40400
O 	O 	0.03336 0.44363 0.45592 -0.40900
C 	C 	0.09377 0.45433 0.47403 0.36600
C 	C 	0.15287 0.43333 0.45664 -0.08100
C 	C 	0.13887 0.40393 0.42122 -0.01600
H 	H 	0.09117 0.39423 0.40953 0.05900
C 	C 	0.24137 0.37663 0.34613 0.11100
H 	H 	0.29697 0.40983 0.35403 0.00900
N 	N 	0.10557 0.31423 0.35573 -0.15300
O 	O 	0.77752 0.81587 0.83815 -0.40500
O 	O 	0.70002 0.77697 0.78926 -0.40900
C 	C 	0.76043 0.78767 0.80737 0.36600
C 	C 	0.81953 0.76667 0.78998 -0.08000
C 	C 	0.80553 0.73727 0.75456 -0.01600
H 	H 	0.75783 0.72757 0.74287 0.05900
C 	C 	0.90803 0.70997 0.67947 0.11100
H 	H 	0.96363 0.74317 0.68737 0.00900
N 	N 	0.77223 0.64757 0.68907 -0.15300
O 	O 	0.85080 0.29499 0.17148 -0.40500
O 	O 	0.88970 0.25639 0.12259 -0.40900
C 	C 	0.87900 0.30610 0.14070 0.36600
C 	C 	0.90000 0.38620 0.12331 -0.08100
C 	C 	0.92940 0.40160 0.08789 -0.01600
H 	H 	0.93910 0.36360 0.07620 0.05900
C 	C 	0.95670 0.53140 0.01280 0.11100
H 	H 	0.92350 0.55380 0.02070 0.00900
N 	N 	0.01910 0.45800 0.02240 -0.15300
O 	O 	0.51747 0.62832 0.50481 -0.40500
O 	O 	0.55637 0.58972 0.45592 -0.40900
C 	C 	0.54567 0.63943 0.47403 0.36600
C 	C 	0.56667 0.71953 0.45664 -0.08100
C 	C 	0.59607 0.73493 0.42122 -0.01600
H 	H 	0.60577 0.69693 0.40953 0.05900
C 	C 	0.62337 0.86473 0.34613 0.11100
H 	H 	0.59017 0.88713 0.35403 0.00900
N 	N 	0.68577 0.79133 0.35573 -0.15300
O 	O 	0.18413 0.96166 0.83815 -0.40500
O 	O 	0.22303 0.92306 0.78926 -0.40900
C 	C 	0.21233 0.97277 0.80737 0.36500
C 	C 	0.23333 0.05287 0.78998 -0.08000
C 	C 	0.26273 0.06827 0.75456 -0.01600
H 	H 	0.27243 0.03027 0.74287 0.05900
C 	C 	0.29003 0.19807 0.67947 0.11100
H 	H 	0.25683 0.22047 0.68737 0.00900
N 	N 	0.35243 0.12467 0.68907 -0.15300
O 	O 	0.70501 0.55581 0.17148 -0.40500
O 	O 	0.74361 0.63331 0.12259 -0.40900
C 	C 	0.69390 0.57290 0.14070 0.36600
C 	C 	0.61380 0.51380 0.12331 -0.08100
C 	C 	0.59840 0.52780 0.08789 -0.01600
H 	H 	0.63640 0.57550 0.07620 0.05900
C 	C 	0.46860 0.42530 0.01280 0.11100
H 	H 	0.44620 0.36970 0.02070 0.00900
N 	N 	0.54200 0.56110 0.02240 -0.15300
O 	O 	0.37168 0.88914 0.50481 -0.40500
O 	O 	0.41028 0.96664 0.45592 -0.40900
C 	C 	0.36057 0.90623 0.47403 0.36600
C 	C 	0.28047 0.84713 0.45664 -0.08100
C 	C 	0.26507 0.86113 0.42122 -0.01600
H 	H 	0.30307 0.90883 0.40953 0.05900
C 	C 	0.13527 0.75863 0.34613 0.11100
H 	H 	0.11287 0.70303 0.35403 0.00900
N 	N 	0.20867 0.89443 0.35573 -0.15300
O 	O 	0.03834 0.22248 0.83815 -0.40500
O 	O 	0.07694 0.29998 0.78926 -0.40900
C 	C 	0.02723 0.23957 0.80737 0.36500
C 	C 	0.94713 0.18047 0.78998 -0.08000
C 	C 	0.93173 0.19447 0.75456 -0.01600
H 	H 	0.96973 0.24217 0.74287 0.06000
C 	C 	0.80193 0.09197 0.67947 0.11100
H 	H 	0.77953 0.03637 0.68737 0.00900
N 	N 	0.87533 0.22777 0.68907 -0.15300
O 	O 	0.14920 0.44419 0.82852 -0.40500
O 	O 	0.11030 0.36669 0.87741 -0.40900
C 	C 	0.12100 0.42710 0.85930 0.36600
C 	C 	0.10000 0.48620 0.87669 -0.08100
C 	C 	0.07060 0.47220 0.91211 -0.01600
H 	H 	0.06090 0.42450 0.92380 0.05900
C 	C 	0.04330 0.57470 0.98720 0.11100
H 	H 	0.07650 0.63030 0.97930 0.00900
N 	N 	0.98090 0.43890 0.97760 -0.15300
O 	O 	0.81587 0.77752 0.16185 -0.40500
O 	O 	0.77697 0.70002 0.21074 -0.40900
C 	C 	0.78767 0.76043 0.19263 0.36600
C 	C 	0.76667 0.81953 0.21002 -0.08000
C 	C 	0.73727 0.80553 0.24544 -0.01600
H 	H 	0.72757 0.75783 0.25713 0.05900
C 	C 	0.70997 0.90803 0.32053 0.11100
H 	H 	0.74317 0.96363 0.31263 0.00900
N 	N 	0.64757 0.77223 0.31093 -0.15300
O 	O 	0.48253 0.11086 0.49519 -0.40500
O 	O 	0.44363 0.03336 0.54408 -0.40900
C 	C 	0.45433 0.09377 0.52597 0.36600
C 	C 	0.43333 0.15287 0.54336 -0.08100
C 	C 	0.40393 0.13887 0.57878 -0.01600
H 	H 	0.39423 0.09117 0.59047 0.05900
C 	C 	0.37663 0.24137 0.65387 0.11100
H 	H 	0.40983 0.29697 0.64597 0.00900
N 	N 	0.31423 0.10557 0.64427 -0.15300
O 	O 	0.29499 0.85080 0.82852 -0.40500
O 	O 	0.25639 0.88970 0.87741 -0.40900
C 	C 	0.30610 0.87900 0.85930 0.36600
C 	C 	0.38620 0.90000 0.87669 -0.08100
C 	C 	0.40160 0.92940 0.91211 -0.01600
H 	H 	0.36360 0.93910 0.92380 0.05900
C 	C 	0.53140 0.95670 0.98720 0.11100
H 	H 	0.55380 0.92350 0.97930 0.00900
N 	N 	0.45800 0.01910 0.97760 -0.15300
O 	O 	0.96166 0.18413 0.16185 -0.40500
O 	O 	0.92306 0.22303 0.21074 -0.40900
C 	C 	0.97277 0.21233 0.19263 0.36500
C 	C 	0.05287 0.23333 0.21002 -0.08000
C 	C 	0.06827 0.26273 0.24544 -0.01600
H 	H 	0.03027 0.27243 0.25713 0.05900
C 	C 	0.19807 0.29003 0.32053 0.11100
H 	H 	0.22047 0.25683 0.31263 0.00900
N 	N 	0.12467 0.35243 0.31093 -0.15300
O 	O 	0.62832 0.51747 0.49519 -0.40500
O 	O 	0.58972 0.55637 0.54408 -0.40900
C 	C 	0.63943 0.54567 0.52597 0.36600
C 	C 	0.71953 0.56667 0.54336 -0.08100
C 	C 	0.73493 0.59607 0.57878 -0.01600
H 	H 	0.69693 0.60577 0.59047 0.05900
C 	C 	0.86473 0.62337 0.65387 0.11100
H 	H 	0.88713 0.59017 0.64597 0.00900
N 	N 	0.79133 0.68577 0.64427 -0.15300
O 	O 	0.55581 0.70501 0.82852 -0.40500
O 	O 	0.63331 0.74361 0.87741 -0.40900
C 	C 	0.57290 0.69390 0.85930 0.36600
C 	C 	0.51380 0.61380 0.87669 -0.08100
C 	C 	0.52780 0.59840 0.91211 -0.01600
H 	H 	0.57550 0.63640 0.92380 0.05900
C 	C 	0.42530 0.46860 0.98720 0.11100
H 	H 	0.36970 0.44620 0.97930 0.00900
N 	N 	0.56110 0.54200 0.97760 -0.15300
O 	O 	0.22248 0.03834 0.16185 -0.40500
O 	O 	0.29998 0.07694 0.21074 -0.40900
C 	C 	0.23957 0.02723 0.19263 0.36500
C 	C 	0.18047 0.94713 0.21002 -0.08000
C 	C 	0.19447 0.93173 0.24544 -0.01600
H 	H 	0.24217 0.96973 0.25713 0.06000
C 	C 	0.09197 0.80193 0.32053 0.11100
H 	H 	0.03637 0.77953 0.31263 0.00900
N 	N 	0.22777 0.87533 0.31093 -0.15300
O 	O 	0.88914 0.37168 0.49519 -0.40500
O 	O 	0.96664 0.41028 0.54408 -0.40900
C 	C 	0.90623 0.36057 0.52597 0.36600
C 	C 	0.84713 0.28047 0.54336 -0.08100
C 	C 	0.86113 0.26507 0.57878 -0.01600
H 	H 	0.90883 0.30307 0.59047 0.05900
C 	C 	0.75863 0.13527 0.65387 0.11100
H 	H 	0.70303 0.11287 0.64597 0.00900
N 	N 	0.89443 0.20867 0.64427 -0.15300
O 	O 	0.55581 0.85080 0.82852 -0.40500
O 	O 	0.63331 0.88970 0.87741 -0.40900
C 	C 	0.57290 0.87900 0.85930 0.36600
C 	C 	0.51380 0.90000 0.87669 -0.08100
C 	C 	0.52780 0.92940 0.91211 -0.01600
H 	H 	0.57550 0.93910 0.92380 0.05900
C 	C 	0.42530 0.95670 0.98720 0.11100
H 	H 	0.36970 0.92350 0.97930 0.00900
N 	N 	0.56110 0.01910 0.97760 -0.15300
O 	O 	0.22248 0.18413 0.16185 -0.40500
O 	O 	0.29998 0.22303 0.21074 -0.40900
C 	C 	0.23957 0.21233 0.19263 0.36600
C 	C 	0.18047 0.23333 0.21002 -0.08000
C 	C 	0.19447 0.26273 0.24544 -0.01600
H 	H 	0.24217 0.27243 0.25713 0.05900
C 	C 	0.09197 0.29003 0.32053 0.11100
H 	H 	0.03637 0.25683 0.31263 0.00900
N 	N 	0.22777 0.35243 0.31093 -0.15300
O 	O 	0.88914 0.51747 0.49519 -0.40500
O 	O 	0.96664 0.55637 0.54408 -0.40900
C 	C 	0.90623 0.54567 0.52597 0.36600
C 	C 	0.84713 0.56667 0.54336 -0.08100
C 	C 	0.86113 0.59607 0.57878 -0.01600
H 	H 	0.90883 0.60577 0.59047 0.05900
C 	C 	0.75863 0.62337 0.65387 0.11100
H 	H 	0.70303 0.59017 0.64597 0.00900
N 	N 	0.89443 0.68577 0.64427 -0.15300
O 	O 	0.14920 0.70501 0.82852 -0.40500
O 	O 	0.11030 0.74361 0.87741 -0.40900
C 	C 	0.12100 0.69390 0.85930 0.36600
C 	C 	0.10000 0.61380 0.87669 -0.08100
C 	C 	0.07060 0.59840 0.91211 -0.01600
H 	H 	0.06090 0.63640 0.92380 0.05900
C 	C 	0.04330 0.46860 0.98720 0.11100
H 	H 	0.07650 0.44620 0.97930 0.00900
N 	N 	0.98090 0.54200 0.97760 -0.15300
O 	O 	0.81587 0.03834 0.16185 -0.40500
O 	O 	0.77697 0.07694 0.21074 -0.40900
C 	C 	0.78767 0.02723 0.19263 0.36500
C 	C 	0.76667 0.94713 0.21002 -0.08000
C 	C 	0.73727 0.93173 0.24544 -0.01600
H 	H 	0.72757 0.96973 0.25713 0.05900
C 	C 	0.70997 0.80193 0.32053 0.11100
H 	H 	0.74317 0.77953 0.31263 0.00900
N 	N 	0.64757 0.87533 0.31093 -0.15300
O 	O 	0.48253 0.37168 0.49519 -0.40500
O 	O 	0.44363 0.41028 0.54408 -0.40900
C 	C 	0.45433 0.36057 0.52597 0.36600
C 	C 	0.43333 0.28047 0.54336 -0.08100
C 	C 	0.40393 0.26507 0.57878 -0.01600
H 	H 	0.39423 0.30307 0.59047 0.05900
C 	C 	0.37663 0.13527 0.65387 0.11100
H 	H 	0.40983 0.11287 0.64597 0.00900
N 	N 	0.31423 0.20867 0.64427 -0.15300
O 	O 	0.29499 0.44419 0.82852 -0.40500
O 	O 	0.25639 0.36669 0.87741 -0.40900
C 	C 	0.30610 0.42710 0.85930 0.36600
C 	C 	0.38620 0.48620 0.87669 -0.08100
C 	C 	0.40160 0.47220 0.91211 -0.01600
H 	H 	0.36360 0.42450 0.92380 0.05900
C 	C 	0.53140 0.57470 0.98720 0.11100
H 	H 	0.55380 0.63030 0.97930 0.00900
N 	N 	0.45800 0.43890 0.97760 -0.15300
O 	O 	0.96166 0.77752 0.16185 -0.40500
O 	O 	0.92306 0.70002 0.21074 -0.40900
C 	C 	0.97277 0.76043 0.19263 0.36500
C 	C 	0.05287 0.81953 0.21002 -0.08000
C 	C 	0.06827 0.80553 0.24544 -0.01600
H 	H 	0.03027 0.75783 0.25713 0.06000
C 	C 	0.19807 0.90803 0.32053 0.11100
H 	H 	0.22047 0.96363 0.31263 0.00900
N 	N 	0.12467 0.77223 0.31093 -0.15300
O 	O 	0.62832 0.11086 0.49519 -0.40500
O 	O 	0.58972 0.03336 0.54408 -0.40900
C 	C 	0.63943 0.09377 0.52597 0.36600
C 	C 	0.71953 0.15287 0.54336 -0.08100
C 	C 	0.73493 0.13887 0.57878 -0.01600
H 	H 	0.69693 0.09117 0.59047 0.05900
C 	C 	0.86473 0.24137 0.65387 0.11100
H 	H 	0.88713 0.29697 0.64597 0.00900
N 	N 	0.79133 0.10557 0.64427 -0.15300
O 	O 	0.85080 0.55581 0.17148 -0.40500
O 	O 	0.88970 0.63331 0.12259 -0.40900
C 	C 	0.87900 0.57290 0.14070 0.36600
C 	C 	0.90000 0.51380 0.12331 -0.08100
C 	C 	0.92940 0.52780 0.08789 -0.01600
H 	H 	0.93910 0.57550 0.07620 0.05900
C 	C 	0.95670 0.42530 0.01280 0.11100
H 	H 	0.92350 0.36970 0.02070 0.00900
N 	N 	0.01910 0.56110 0.02240 -0.15300
O 	O 	0.51747 0.88914 0.50481 -0.40500
O 	O 	0.55637 0.96664 0.45592 -0.40900
C 	C 	0.54567 0.90623 0.47403 0.36600
C 	C 	0.56667 0.84713 0.45664 -0.08100
C 	C 	0.59607 0.86113 0.42122 -0.01600
H 	H 	0.60577 0.90883 0.40953 0.05900
C 	C 	0.62337 0.75863 0.34613 0.11100
H 	H 	0.59017 0.70303 0.35403 0.00900
N 	N 	0.68577 0.89443 0.35573 -0.15300
O 	O 	0.18413 0.22248 0.83815 -0.40500
O 	O 	0.22303 0.29998 0.78926 -0.40900
C 	C 	0.21233 0.23957 0.80737 0.36600
C 	C 	0.23333 0.18047 0.78998 -0.08000
C 	C 	0.26273 0.19447 0.75456 -0.01600
H 	H 	0.27243 0.24217 0.74287 0.05900
C 	C 	0.29003 0.09197 0.67947 0.11100
H 	H 	0.25683 0.03637 0.68737 0.00900
N 	N 	0.35243 0.22777 0.68907 -0.15300
O 	O 	0.70501 0.14920 0.17148 -0.40500
O 	O 	0.74361 0.11030 0.12259 -0.40900
C 	C 	0.69390 0.12100 0.14070 0.36600
C 	C 	0.61380 0.10000 0.12331 -0.08100
C 	C 	0.59840 0.07060 0.08789 -0.01600
H 	H 	0.63640 0.06090 0.07620 0.05900
C 	C 	0.46860 0.04330 0.01280 0.11100
H 	H 	0.44620 0.07650 0.02070 0.00900
N 	N 	0.54200 0.98090 0.02240 -0.15300
O 	O 	0.37168 0.48253 0.50481 -0.40500
O 	O 	0.41028 0.44363 0.45592 -0.40900
C 	C 	0.36057 0.45433 0.47403 0.36600
C 	C 	0.28047 0.43333 0.45664 -0.08100
C 	C 	0.26507 0.40393 0.42122 -0.01600
H 	H 	0.30307 0.39423 0.40953 0.05900
C 	C 	0.13527 0.37663 0.34613 0.11100
H 	H 	0.11287 0.40983 0.35403 0.00900
N 	N 	0.20867 0.31423 0.35573 -0.15300
O 	O 	0.03834 0.81587 0.83815 -0.40500
O 	O 	0.07694 0.77697 0.78926 -0.40900
C 	C 	0.02723 0.78767 0.80737 0.36500
C 	C 	0.94713 0.76667 0.78998 -0.08000
C 	C 	0.93173 0.73727 0.75456 -0.01600
H 	H 	0.96973 0.72757 0.74287 0.05900
C 	C 	0.80193 0.70997 0.67947 0.11100
H 	H 	0.77953 0.74317 0.68737 0.00900
N 	N 	0.87533 0.64757 0.68907 -0.15300
O 	O 	0.44419 0.29499 0.17148 -0.40500
O 	O 	0.36669 0.25639 0.12259 -0.40900
C 	C 	0.42710 0.30610 0.14070 0.36600
C 	C 	0.48620 0.38620 0.12331 -0.08100
C 	C 	0.47220 0.40160 0.08789 -0.01600
H 	H 	0.42450 0.36360 0.07620 0.05900
C 	C 	0.57470 0.53140 0.01280 0.11100
H 	H 	0.63030 0.55380 0.02070 0.00900
N 	N 	0.43890 0.45800 0.02240 -0.15300
O 	O 	0.11086 0.62832 0.50481 -0.40500
O 	O 	0.03336 0.58972 0.45592 -0.40900
C 	C 	0.09377 0.63943 0.47403 0.36600
C 	C 	0.15287 0.71953 0.45664 -0.08100
C 	C 	0.13887 0.73493 0.42122 -0.01600
H 	H 	0.09117 0.69693 0.40953 0.05900
C 	C 	0.24137 0.86473 0.34613 0.11100
H 	H 	0.29697 0.88713 0.35403 0.00900
N 	N 	0.10557 0.79133 0.35573 -0.15300
O 	O 	0.77752 0.96166 0.83815 -0.40500
O 	O 	0.70002 0.92306 0.78926 -0.40900
C 	C 	0.76043 0.97277 0.80737 0.36500
C 	C 	0.81953 0.05287 0.78998 -0.08000
C 	C 	0.80553 0.06827 0.75456 -0.01600
H 	H 	0.75783 0.03027 0.74287 0.06000
C 	C 	0.90803 0.19807 0.67947 0.11100
H 	H 	0.96363 0.22047 0.68737 0.00900
N 	N 	0.77223 0.12467 0.68907 -0.15300
Cu	Cu	0.37881 0.18941 0.19586 0.90500
Cu	Cu	0.04548 0.52274 0.52919 0.90500
Cu	Cu	0.71214 0.85607 0.86252 0.90500
Cu	Cu	0.81059 0.18941 0.19586 0.90500
Cu	Cu	0.47726 0.52274 0.52919 0.90500
Cu	Cu	0.14393 0.85607 0.86252 0.90500
Cu	Cu	0.81059 0.62119 0.19586 0.90500
Cu	Cu	0.47726 0.95452 0.52919 0.90500
Cu	Cu	0.14393 0.28786 0.86252 0.90500
Cu	Cu	0.18941 0.37881 0.80414 0.90500
Cu	Cu	0.85607 0.71214 0.13748 0.90500
Cu	Cu	0.52274 0.04548 0.47081 0.90500
Cu	Cu	0.18941 0.81059 0.80414 0.90500
Cu	Cu	0.85607 0.14393 0.13748 0.90500
Cu	Cu	0.52274 0.47726 0.47081 0.90500
Cu	Cu	0.62119 0.81059 0.80414 0.90500
Cu	Cu	0.28786 0.14393 0.13748 0.90500
Cu	Cu	0.95452 0.47726 0.47081 0.90500
C 	C 	0.55740 0.11480 0.14041 0.02800
H 	H 	0.56740 0.13480 0.16360 0.05400
C 	C 	0.52820 0.05640 0.07050 -0.00100
C 	C 	0.51265 0.02530 0.03430 0.05100
C 	C 	0.22407 0.44813 0.47374 0.02800
H 	H 	0.23407 0.46813 0.49693 0.05400
C 	C 	0.19487 0.38973 0.40383 -0.00100
C 	C 	0.17932 0.35863 0.36763 0.05100
C 	C 	0.89073 0.78147 0.80708 0.02700
H 	H 	0.90073 0.80147 0.83027 0.05500
C 	C 	0.86153 0.72307 0.73717 -0.00100
C 	C 	0.84598 0.69197 0.70097 0.05100
C 	C 	0.88520 0.44260 0.14041 0.02800
H 	H 	0.86520 0.43260 0.16360 0.05400
C 	C 	0.94360 0.47180 0.07050 -0.00100
C 	C 	0.97470 0.48735 0.03430 0.05100
C 	C 	0.55187 0.77593 0.47374 0.02800
H 	H 	0.53187 0.76593 0.49693 0.05400
C 	C 	0.61027 0.80513 0.40383 -0.00100
C 	C 	0.64137 0.82068 0.36763 0.05100
C 	C 	0.21853 0.10927 0.80708 0.02700
H 	H 	0.19853 0.09927 0.83027 0.05500
C 	C 	0.27693 0.13847 0.73717 -0.00100
C 	C 	0.30803 0.15402 0.70097 0.05100
C 	C 	0.55740 0.44260 0.14041 0.02800
H 	H 	0.56740 0.43260 0.16360 0.05400
C 	C 	0.52820 0.47180 0.07050 -0.00100
C 	C 	0.51265 0.48735 0.03430 0.05100
C 	C 	0.22407 0.77593 0.47374 0.02800
H 	H 	0.23407 0.76593 0.49693 0.05400
C 	C 	0.19487 0.80513 0.40383 -0.00100
C 	C 	0.17932 0.82068 0.36763 0.05100
C 	C 	0.89073 0.10927 0.80708 0.02700
H 	H 	0.90073 0.09927 0.83027 0.05500
C 	C 	0.86153 0.13847 0.73717 -0.00100
C 	C 	0.84598 0.15402 0.70097 0.05100
C 	C 	0.11480 0.55740 0.85959 0.02800
H 	H 	0.13480 0.56740 0.83640 0.05400
C 	C 	0.05640 0.52820 0.92950 -0.00100
C 	C 	0.02530 0.51265 0.96570 0.05100
C 	C 	0.78147 0.89073 0.19292 0.02700
H 	H 	0.80147 0.90073 0.16973 0.05500
C 	C 	0.72307 0.86153 0.26283 -0.00100
C 	C 	0.69197 0.84598 0.29903 0.05100
C 	C 	0.44813 0.22407 0.52626 0.02800
H 	H 	0.46813 0.23407 0.50307 0.05400
C 	C 	0.38973 0.19487 0.59617 -0.00100
C 	C 	0.35863 0.17932 0.63237 0.05100
C 	C 	0.44260 0.88520 0.85959 0.02800
H 	H 	0.43260 0.86520 0.83640 0.05400
C 	C 	0.47180 0.94360 0.92950 -0.00100
C 	C 	0.48735 0.97470 0.96570 0.05100
C 	C 	0.10927 0.21853 0.19292 0.02700
H 	H 	0.09927 0.19853 0.16973 0.05500
C 	C 	0.13847 0.27693 0.26283 -0.00100
C 	C 	0.15402 0.30803 0.29903 0.05100
C 	C 	0.77593 0.55187 0.52626 0.02800
H 	H 	0.76593 0.53187 0.50307 0.05400
C 	C 	0.80513 0.61027 0.59617 -0.00100
C 	C 	0.82068 0.64137 0.63237 0.05100
C 	C 	0.44260 0.55740 0.85959 0.02800
H 	H 	0.43260 0.56740 0.83640 0.05400
C 	C 	0.47180 0.52820 0.92950 -0.00100
C 	C 	0.48735 0.51265 0.96570 0.05100
C 	C 	0.10927 0.89073 0.19292 0.02700
H 	H 	0.09927 0.90073 0.16973 0.05500
C 	C 	0.13847 0.86153 0.26283 -0.00100
C 	C 	0.15402 0.84598 0.29903 0.05100
C 	C 	0.77593 0.22407 0.52626 0.02800
H 	H 	0.76593 0.23407 0.50307 0.05400
C 	C 	0.80513 0.19487 0.59617 -0.00100
C 	C 	0.82068 0.17932 0.63237 0.05100
