data_crystal

_cell_length_a 8.24500
_cell_length_b 11.65710
_cell_length_c 15.32120
_cell_angle_alpha 100.77800
_cell_angle_beta  99.66800
_cell_angle_gamma 91.32400

_symmetry_space_group_name_	'P 1'
_symmetry_space_group_name_H-M	'P 1'

loop_
_symmetry_equiv_pos_as_xyz
  x,y,z

loop_
_atom_site_label
_atom_site_type_symbol
_atom_site_fract_x
_atom_site_fract_y
_atom_site_fract_z
_atom_site_charge
Ca	Ca	0.25306 0.44736 0.46586 1.49500
O 	O 	0.24990 0.65200 0.50400 -0.49800
O 	O 	0.99360 0.65310 0.53400 -0.54700
O 	O 	0.51040 0.47840 0.58805 -0.57100
O 	O 	0.26800 0.47210 0.63230 -0.42600
N 	N 	0.02090 0.89390 0.58950 -0.07100
N 	N 	0.91800 0.96990 0.70640 -0.10300
N 	N 	0.40620 0.55360 0.81100 -0.07500
N 	N 	0.23330 0.60960 0.89940 -0.08800
C 	C 	0.12370 0.70250 0.52490 0.47600
C 	C 	0.13660 0.83430 0.53590 -0.34200
H 	H 	0.24800 0.86250 0.56450 0.13700
H 	H 	0.11680 0.85470 0.47660 0.13900
C 	C 	0.86260 0.92020 0.55830 -0.03500
H 	H 	0.80950 0.90690 0.49850 0.03300
C 	C 	0.79870 0.96930 0.63180 -0.01700
H 	H 	0.69400 0.99730 0.63170 0.02900
C 	C 	0.05080 0.92400 0.67900 0.04900
H 	H 	0.14880 0.91440 0.71630 0.02500
C 	C 	0.90260 0.01690 0.80130 -0.12500
H 	H 	0.79240 0.99700 0.81030 0.08100
H 	H 	0.91760 0.10150 0.81300 0.07800
C 	C 	0.02760 0.96910 0.86810 0.03200
C 	C 	0.15440 0.04330 0.92400 -0.01000
C 	C 	0.26370 0.99640 0.98670 0.33200
H 	H 	0.34690 0.04570 0.02500 -0.06000
C 	C 	0.25360 0.88050 0.99420 -0.76600
C 	C 	0.12560 0.80690 0.93730 0.30000
C 	C 	0.01230 0.85060 0.87470 -0.03600
C 	C 	0.37790 0.83510 0.06230 2.38900
C 	C 	0.17760 0.17010 0.91890 -0.48500
H 	H 	0.27100 0.20520 0.96280 0.19600
H 	H 	0.19580 0.17610 0.85960 0.18900
H 	H 	0.08070 0.20980 0.93110 0.16800
C 	C 	0.87430 0.77140 0.81520 -0.39600
H 	H 	0.80230 0.81640 0.78050 0.13600
H 	H 	0.81340 0.73530 0.85200 0.13200
H 	H 	0.91930 0.71210 0.77520 0.11500
C 	C 	0.11350 0.68050 0.94650 -0.24300
H 	H 	0.13480 0.67610 0.01000 0.10800
H 	H 	0.00250 0.64790 0.92130 0.09000
C 	C 	0.31180 0.63960 0.83740 0.07500
H 	H 	0.30230 0.70920 0.81600 0.01600
C 	C 	0.27800 0.50100 0.91200 0.01100
H 	H 	0.24110 0.45930 0.95170 0.02900
C 	C 	0.38520 0.46520 0.85660 -0.01300
H 	H 	0.43540 0.39410 0.85040 0.05500
C 	C 	0.50810 0.55190 0.74130 -0.27700
H 	H 	0.60570 0.50990 0.75660 0.10200
H 	H 	0.54380 0.63160 0.74070 0.08800
C 	C 	0.41920 0.49520 0.64740 0.39500
H 	H 	0.43200 0.77500 0.03100 -0.70200
H 	H 	0.32600 0.79400 0.10300 -0.61800
H 	H 	0.43700 0.88700 0.09100 -0.99500
Ca	Ca	0.74694 0.55264 0.53414 1.49400
O 	O 	0.75010 0.34800 0.49600 -0.49900
O 	O 	0.00640 0.34690 0.46600 -0.54700
O 	O 	0.48960 0.52160 0.41195 -0.57100
O 	O 	0.73200 0.52790 0.36770 -0.42600
N 	N 	0.97910 0.10610 0.41050 -0.07100
N 	N 	0.08200 0.03010 0.29360 -0.10300
N 	N 	0.59380 0.44640 0.18900 -0.07500
N 	N 	0.76670 0.39040 0.10060 -0.08800
C 	C 	0.87630 0.29750 0.47510 0.47600
C 	C 	0.86340 0.16570 0.46410 -0.34200
H 	H 	0.75200 0.13750 0.43550 0.13700
H 	H 	0.88320 0.14530 0.52340 0.13900
C 	C 	0.13740 0.07980 0.44170 -0.03500
H 	H 	0.19050 0.09310 0.50150 0.03300
C 	C 	0.20130 0.03070 0.36820 -0.01700
H 	H 	0.30600 0.00270 0.36830 0.02900
C 	C 	0.94920 0.07600 0.32100 0.04900
H 	H 	0.85120 0.08560 0.28370 0.02500
C 	C 	0.09740 0.98310 0.19870 -0.12500
H 	H 	0.20760 0.00300 0.18970 0.08100
H 	H 	0.08240 0.89850 0.18700 0.07800
C 	C 	0.97240 0.03090 0.13190 0.03200
C 	C 	0.84560 0.95670 0.07600 -0.01000
C 	C 	0.73630 0.00360 0.01330 0.33200
H 	H 	0.65310 0.95430 0.97500 -0.06000
C 	C 	0.74640 0.11950 0.00580 -0.76600
C 	C 	0.87440 0.19310 0.06270 0.30000
C 	C 	0.98770 0.14940 0.12530 -0.03600
C 	C 	0.62210 0.16490 0.93770 2.38900
C 	C 	0.82240 0.82990 0.08110 -0.48500
H 	H 	0.72900 0.79480 0.03720 0.19600
H 	H 	0.80420 0.82390 0.14040 0.18900
H 	H 	0.91930 0.79020 0.06890 0.16800
C 	C 	0.12570 0.22860 0.18480 -0.39600
H 	H 	0.19770 0.18360 0.21950 0.13600
H 	H 	0.18660 0.26470 0.14800 0.13200
H 	H 	0.08070 0.28790 0.22480 0.11500
C 	C 	0.88650 0.31950 0.05350 -0.24300
H 	H 	0.86520 0.32390 0.99000 0.10800
H 	H 	0.99750 0.35210 0.07870 0.09000
C 	C 	0.68820 0.36040 0.16260 0.07500
H 	H 	0.69770 0.29080 0.18400 0.01600
C 	C 	0.72200 0.49900 0.08800 0.01100
H 	H 	0.75890 0.54070 0.04830 0.02900
C 	C 	0.61480 0.53480 0.14340 -0.01300
H 	H 	0.56460 0.60590 0.14960 0.05500
C 	C 	0.49190 0.44810 0.25870 -0.27700
H 	H 	0.39430 0.49010 0.24340 0.10200
H 	H 	0.45620 0.36840 0.25930 0.08800
C 	C 	0.58080 0.50480 0.35260 0.39500
H 	H 	0.56800 0.22500 0.96900 -0.70200
H 	H 	0.67400 0.20600 0.89700 -0.61800
H 	H 	0.56300 0.11300 0.90900 -0.99500
