data_crystal

_cell_length_a 16.56800
_cell_length_b 13.67100
_cell_length_c 29.94900
_cell_angle_alpha 90.00000
_cell_angle_beta  111.38000
_cell_angle_gamma 90.00000

_symmetry_space_group_name_	'P 1'
_symmetry_space_group_name_H-M	'P 1'

loop_
_symmetry_equiv_pos_as_xyz
  x,y,z

loop_
_atom_site_label
_atom_site_type_symbol
_atom_site_fract_x
_atom_site_fract_y
_atom_site_fract_z
_atom_site_charge
Mn	Mn	0.75861 0.90328 0.74933 1.21900
N 	N 	0.65270 0.90020 0.68205 -0.28900
N 	N 	0.86190 0.90030 0.81640 -0.29100
N 	N 	0.75192 0.06030 0.75168 -0.28500
N 	N 	0.76560 0.74900 0.74764 -0.29400
N 	N 	0.27360 0.01400 0.12527 -0.15400
N 	N 	0.22080 0.00200 0.37764 -0.15600
C 	C 	0.73810 0.26700 0.75116 0.11800
C 	C 	0.98230 0.91050 0.91117 0.12500
C 	C 	0.59710 0.84410 0.60063 -0.17700
H 	H 	0.60350 0.80300 0.57740 0.08900
C 	C 	0.04080 0.91740 0.96183 -0.09600
H 	H 	0.02710 0.88000 0.98400 0.06200
C 	C 	0.52640 0.90700 0.58890 0.12300
C 	C 	0.91500 0.84270 0.89768 -0.18000
H 	H 	0.90900 0.79940 0.92020 0.09000
C 	C 	0.21330 0.94330 0.11264 0.08400
H 	H 	0.20740 0.90410 0.13660 0.00000
C 	C 	0.46510 0.91260 0.53904 -0.09400
H 	H 	0.47760 0.87500 0.51650 0.06100
C 	C 	0.28410 0.93490 0.38934 0.08700
H 	H 	0.29000 0.89700 0.36490 -0.00200
C 	C 	0.92870 0.96330 0.82925 0.09800
H 	H 	0.93450 0.00430 0.80580 -0.03700
C 	C 	0.34110 0.91880 0.43582 -0.16300
H 	H 	0.38390 0.87120 0.44210 0.08500
C 	C 	0.80180 0.21960 0.73876 -0.17900
H 	H 	0.84150 0.25600 0.73030 0.08700
C 	C 	0.68250 0.20690 0.76438 -0.18300
H 	H 	0.63930 0.23440 0.77320 0.08800
C 	C 	0.51970 0.96520 0.62600 -0.18200
H 	H 	0.47320 0.00770 0.62030 0.08800
C 	C 	0.15950 0.92570 0.06562 -0.16000
H 	H 	0.11820 0.87620 0.05850 0.08400
C 	C 	0.16810 0.98310 0.02898 0.10800
C 	C 	0.69170 0.10670 0.76431 0.10000
H 	H 	0.65400 0.06870 0.77360 -0.03900
C 	C 	0.58290 0.95830 0.67102 0.10000
H 	H 	0.57690 0.99650 0.69530 -0.03700
C 	C 	0.98950 0.97090 0.87519 -0.18200
H 	H 	0.03460 0.01570 0.88210 0.08800
C 	C 	0.39370 0.96620 0.52328 -0.08300
H 	H 	0.38010 0.00190 0.54600 0.05400
C 	C 	0.11100 0.97230 0.97819 -0.07900
H 	H 	0.12590 0.00730 0.95570 0.05200
C 	C 	0.85740 0.83980 0.85115 0.09800
H 	H 	0.81310 0.79380 0.84310 -0.03600
C 	C 	0.33360 0.97480 0.47301 0.11100
C 	C 	0.21270 0.05450 0.41364 0.08700
H 	H 	0.16870 0.10080 0.40630 -0.00600
C 	C 	0.65800 0.84260 0.64671 0.09500
H 	H 	0.70470 0.79990 0.65360 -0.03500
C 	C 	0.28270 0.06780 0.08984 0.08600
H 	H 	0.32510 0.11610 0.09790 -0.00500
C 	C 	0.26670 0.04310 0.46112 -0.17000
H 	H 	0.25840 0.08090 0.48490 0.08200
C 	C 	0.23210 0.05460 0.04208 -0.16800
H 	H 	0.24090 0.09340 0.01870 0.08200
C 	C 	0.80570 0.11900 0.73905 0.09600
H 	H 	0.84800 0.08950 0.73000 -0.03900
C 	C 	0.78780 0.43750 0.74920 -0.09600
H 	H 	0.83930 0.41260 0.74800 0.05700
C 	C 	0.72870 0.37360 0.75137 -0.08900
H 	H 	0.67770 0.39840 0.75310 0.05500
C 	C 	0.84080 0.70340 0.75410 0.10200
H 	H 	0.88960 0.74160 0.75870 -0.04300
C 	C 	0.77770 0.54400 0.74852 0.12800
C 	C 	0.69690 0.69190 0.74158 0.10500
H 	H 	0.64400 0.72160 0.73700 -0.04400
C 	C 	0.84980 0.60320 0.75437 -0.18900
H 	H 	0.90310 0.57520 0.75840 0.08800
C 	C 	0.70070 0.59110 0.74181 -0.19100
H 	H 	0.65090 0.55470 0.73740 0.09000
Mn	Mn	0.24139 0.40328 0.75067 1.22000
N 	N 	0.34730 0.40020 0.81795 -0.28800
N 	N 	0.13810 0.40030 0.68360 -0.29100
N 	N 	0.24808 0.56030 0.74832 -0.28500
N 	N 	0.23440 0.24900 0.75236 -0.29400
N 	N 	0.72640 0.51400 0.37473 -0.15400
N 	N 	0.77920 0.50200 0.12236 -0.15500
C 	C 	0.26190 0.76700 0.74884 0.11900
C 	C 	0.01770 0.41050 0.58883 0.12600
C 	C 	0.40290 0.34410 0.89937 -0.17700
H 	H 	0.39650 0.30300 0.92260 0.08900
C 	C 	0.95920 0.41740 0.53817 -0.09600
H 	H 	0.97290 0.38000 0.51600 0.06200
C 	C 	0.47360 0.40700 0.91110 0.12300
C 	C 	0.08500 0.34270 0.60232 -0.18100
H 	H 	0.09100 0.29940 0.57980 0.09000
C 	C 	0.78670 0.44330 0.38736 0.08400
H 	H 	0.79260 0.40410 0.36340 0.00000
C 	C 	0.53490 0.41260 0.96096 -0.09400
H 	H 	0.52240 0.37500 0.98350 0.06100
C 	C 	0.71590 0.43490 0.11066 0.08600
H 	H 	0.71000 0.39700 0.13510 -0.00200
C 	C 	0.07130 0.46330 0.67075 0.10000
H 	H 	0.06550 0.50430 0.69420 -0.03800
C 	C 	0.65890 0.41880 0.06418 -0.16200
H 	H 	0.61610 0.37120 0.05790 0.08500
C 	C 	0.19820 0.71960 0.76124 -0.17900
H 	H 	0.15850 0.75600 0.76970 0.08700
C 	C 	0.31750 0.70690 0.73562 -0.18300
H 	H 	0.36070 0.73440 0.72680 0.08800
C 	C 	0.48030 0.46520 0.87400 -0.18200
H 	H 	0.52680 0.50770 0.87970 0.08800
C 	C 	0.84050 0.42570 0.43438 -0.16000
H 	H 	0.88180 0.37620 0.44150 0.08500
C 	C 	0.83190 0.48310 0.47102 0.10900
C 	C 	0.30830 0.60670 0.73569 0.10000
H 	H 	0.34600 0.56870 0.72640 -0.03900
C 	C 	0.41710 0.45830 0.82898 0.10000
H 	H 	0.42310 0.49650 0.80470 -0.03700
C 	C 	0.01050 0.47090 0.62481 -0.18400
H 	H 	0.96540 0.51570 0.61790 0.08900
C 	C 	0.60630 0.46620 0.97672 -0.08300
H 	H 	0.61990 0.50190 0.95400 0.05400
C 	C 	0.88900 0.47230 0.52181 -0.08100
H 	H 	0.87410 0.50730 0.54430 0.05300
C 	C 	0.14260 0.33980 0.64885 0.09800
H 	H 	0.18690 0.29380 0.65690 -0.03700
C 	C 	0.66640 0.47480 0.02699 0.11000
C 	C 	0.78730 0.55450 0.08636 0.08700
H 	H 	0.83130 0.60080 0.09370 -0.00500
C 	C 	0.34200 0.34260 0.85329 0.09500
H 	H 	0.29530 0.29990 0.84640 -0.03500
C 	C 	0.71730 0.56780 0.41016 0.08600
H 	H 	0.67490 0.61610 0.40210 -0.00600
C 	C 	0.73330 0.54310 0.03888 -0.16900
H 	H 	0.74160 0.58090 0.01510 0.08200
C 	C 	0.76790 0.55460 0.45792 -0.16800
H 	H 	0.75910 0.59340 0.48130 0.08200
C 	C 	0.19430 0.61900 0.76095 0.09700
H 	H 	0.15200 0.58950 0.77000 -0.03900
C 	C 	0.21220 0.93750 0.75080 -0.09500
H 	H 	0.16070 0.91260 0.75200 0.05600
C 	C 	0.27130 0.87360 0.74863 -0.09100
H 	H 	0.32230 0.89840 0.74690 0.05500
C 	C 	0.15920 0.20340 0.74590 0.10100
H 	H 	0.11040 0.24160 0.74130 -0.04300
C 	C 	0.22230 0.04400 0.75148 0.12600
C 	C 	0.30310 0.19190 0.75842 0.10400
H 	H 	0.35600 0.22160 0.76300 -0.04300
C 	C 	0.15020 0.10320 0.74563 -0.18800
H 	H 	0.09690 0.07520 0.74160 0.08700
C 	C 	0.29930 0.09110 0.75819 -0.19000
H 	H 	0.34910 0.05470 0.76260 0.09000
Mn	Mn	0.24139 0.09672 0.25067 1.22000
N 	N 	0.34730 0.09980 0.31795 -0.28800
N 	N 	0.13810 0.09970 0.18360 -0.29100
N 	N 	0.24808 0.93970 0.24832 -0.28500
N 	N 	0.23440 0.25100 0.25236 -0.29400
N 	N 	0.72640 0.98600 0.87473 -0.15400
N 	N 	0.77920 0.99800 0.62236 -0.15600
C 	C 	0.26190 0.73300 0.24884 0.11800
C 	C 	0.01770 0.08950 0.08883 0.12500
C 	C 	0.40290 0.15590 0.39937 -0.17700
H 	H 	0.39650 0.19700 0.42260 0.08900
C 	C 	0.95920 0.08260 0.03817 -0.09600
H 	H 	0.97290 0.12000 0.01600 0.06200
C 	C 	0.47360 0.09300 0.41110 0.12300
C 	C 	0.08500 0.15730 0.10232 -0.18000
H 	H 	0.09100 0.20060 0.07980 0.09000
C 	C 	0.78670 0.05670 0.88736 0.08400
H 	H 	0.79260 0.09590 0.86340 0.00000
C 	C 	0.53490 0.08740 0.46096 -0.09400
H 	H 	0.52240 0.12500 0.48350 0.06100
C 	C 	0.71590 0.06510 0.61066 0.08700
H 	H 	0.71000 0.10300 0.63510 -0.00200
C 	C 	0.07130 0.03670 0.17075 0.09800
H 	H 	0.06550 0.99570 0.19420 -0.03700
C 	C 	0.65890 0.08120 0.56418 -0.16300
H 	H 	0.61610 0.12880 0.55790 0.08500
C 	C 	0.19820 0.78040 0.26124 -0.17900
H 	H 	0.15850 0.74400 0.26970 0.08700
C 	C 	0.31750 0.79310 0.23562 -0.18300
H 	H 	0.36070 0.76560 0.22680 0.08800
C 	C 	0.48030 0.03480 0.37400 -0.18200
H 	H 	0.52680 0.99230 0.37970 0.08800
C 	C 	0.84050 0.07430 0.93438 -0.16000
H 	H 	0.88180 0.12380 0.94150 0.08400
C 	C 	0.83190 0.01690 0.97102 0.10800
C 	C 	0.30830 0.89330 0.23569 0.10000
H 	H 	0.34600 0.93130 0.22640 -0.03900
C 	C 	0.41710 0.04170 0.32898 0.10000
H 	H 	0.42310 0.00350 0.30470 -0.03700
C 	C 	0.01050 0.02910 0.12481 -0.18200
H 	H 	0.96540 0.98430 0.11790 0.08800
C 	C 	0.60630 0.03380 0.47672 -0.08300
H 	H 	0.61990 0.99810 0.45400 0.05400
C 	C 	0.88900 0.02770 0.02181 -0.07900
H 	H 	0.87410 0.99270 0.04430 0.05200
C 	C 	0.14260 0.16020 0.14885 0.09800
H 	H 	0.18690 0.20620 0.15690 -0.03600
C 	C 	0.66640 0.02520 0.52699 0.11100
C 	C 	0.78730 0.94550 0.58636 0.08700
H 	H 	0.83130 0.89920 0.59370 -0.00600
C 	C 	0.34200 0.15740 0.35329 0.09500
H 	H 	0.29530 0.20010 0.34640 -0.03500
C 	C 	0.71730 0.93220 0.91016 0.08600
H 	H 	0.67490 0.88390 0.90210 -0.00500
C 	C 	0.73330 0.95690 0.53888 -0.17000
H 	H 	0.74160 0.91910 0.51510 0.08200
C 	C 	0.76790 0.94540 0.95792 -0.16800
H 	H 	0.75910 0.90660 0.98130 0.08200
C 	C 	0.19430 0.88100 0.26095 0.09600
H 	H 	0.15200 0.91050 0.27000 -0.03900
C 	C 	0.21220 0.56250 0.25080 -0.09600
H 	H 	0.16070 0.58740 0.25200 0.05700
C 	C 	0.27130 0.62640 0.24863 -0.08900
H 	H 	0.32230 0.60160 0.24690 0.05500
C 	C 	0.15920 0.29660 0.24590 0.10200
H 	H 	0.11040 0.25840 0.24130 -0.04300
C 	C 	0.22230 0.45600 0.25148 0.12800
C 	C 	0.30310 0.30810 0.25842 0.10500
H 	H 	0.35600 0.27840 0.26300 -0.04400
C 	C 	0.15020 0.39680 0.24563 -0.18900
H 	H 	0.09690 0.42480 0.24160 0.08800
C 	C 	0.29930 0.40890 0.25819 -0.19100
H 	H 	0.34910 0.44530 0.26260 0.09000
Mn	Mn	0.75861 0.59672 0.24933 1.22000
N 	N 	0.65270 0.59980 0.18205 -0.28800
N 	N 	0.86190 0.59970 0.31640 -0.29100
N 	N 	0.75192 0.43970 0.25168 -0.28500
N 	N 	0.76560 0.75100 0.24764 -0.29400
N 	N 	0.27360 0.48600 0.62527 -0.15400
N 	N 	0.22080 0.49800 0.87764 -0.15500
C 	C 	0.73810 0.23300 0.25116 0.11900
C 	C 	0.98230 0.58950 0.41117 0.12600
C 	C 	0.59710 0.65590 0.10063 -0.17700
H 	H 	0.60350 0.69700 0.07740 0.08900
C 	C 	0.04080 0.58260 0.46183 -0.09600
H 	H 	0.02710 0.62000 0.48400 0.06200
C 	C 	0.52640 0.59300 0.08890 0.12300
C 	C 	0.91500 0.65730 0.39768 -0.18100
H 	H 	0.90900 0.70060 0.42020 0.09000
C 	C 	0.21330 0.55670 0.61264 0.08400
H 	H 	0.20740 0.59590 0.63660 0.00000
C 	C 	0.46510 0.58740 0.03904 -0.09400
H 	H 	0.47760 0.62500 0.01650 0.06100
C 	C 	0.28410 0.56510 0.88934 0.08600
H 	H 	0.29000 0.60300 0.86490 -0.00200
C 	C 	0.92870 0.53670 0.32925 0.10000
H 	H 	0.93450 0.49570 0.30580 -0.03800
C 	C 	0.34110 0.58120 0.93582 -0.16200
H 	H 	0.38390 0.62880 0.94210 0.08500
C 	C 	0.80180 0.28040 0.23876 -0.17900
H 	H 	0.84150 0.24400 0.23030 0.08700
C 	C 	0.68250 0.29310 0.26438 -0.18300
H 	H 	0.63930 0.26560 0.27320 0.08800
C 	C 	0.51970 0.53480 0.12600 -0.18200
H 	H 	0.47320 0.49230 0.12030 0.08800
C 	C 	0.15950 0.57430 0.56562 -0.16000
H 	H 	0.11820 0.62380 0.55850 0.08500
C 	C 	0.16810 0.51690 0.52898 0.10900
C 	C 	0.69170 0.39330 0.26431 0.10000
H 	H 	0.65400 0.43130 0.27360 -0.03900
C 	C 	0.58290 0.54170 0.17102 0.10000
H 	H 	0.57690 0.50350 0.19530 -0.03700
C 	C 	0.98950 0.52910 0.37519 -0.18400
H 	H 	0.03460 0.48430 0.38210 0.08900
C 	C 	0.39370 0.53380 0.02328 -0.08300
H 	H 	0.38010 0.49810 0.04600 0.05400
C 	C 	0.11100 0.52770 0.47819 -0.08100
H 	H 	0.12590 0.49270 0.45570 0.05300
C 	C 	0.85740 0.66020 0.35115 0.09800
H 	H 	0.81310 0.70620 0.34310 -0.03700
C 	C 	0.33360 0.52520 0.97301 0.11000
C 	C 	0.21270 0.44550 0.91364 0.08700
H 	H 	0.16870 0.39920 0.90630 -0.00500
C 	C 	0.65800 0.65740 0.14671 0.09500
H 	H 	0.70470 0.70010 0.15360 -0.03500
C 	C 	0.28270 0.43220 0.58984 0.08600
H 	H 	0.32510 0.38390 0.59790 -0.00600
C 	C 	0.26670 0.45690 0.96112 -0.16900
H 	H 	0.25840 0.41910 0.98490 0.08200
C 	C 	0.23210 0.44540 0.54208 -0.16800
H 	H 	0.24090 0.40660 0.51870 0.08200
C 	C 	0.80570 0.38100 0.23905 0.09700
H 	H 	0.84800 0.41050 0.23000 -0.03900
C 	C 	0.78780 0.06250 0.24920 -0.09500
H 	H 	0.83930 0.08740 0.24800 0.05600
C 	C 	0.72870 0.12640 0.25137 -0.09100
H 	H 	0.67770 0.10160 0.25310 0.05500
C 	C 	0.84080 0.79660 0.25410 0.10100
H 	H 	0.88960 0.75840 0.25870 -0.04300
C 	C 	0.77770 0.95600 0.24852 0.12600
C 	C 	0.69690 0.80810 0.24158 0.10400
H 	H 	0.64400 0.77840 0.23700 -0.04300
C 	C 	0.84980 0.89680 0.25437 -0.18800
H 	H 	0.90310 0.92480 0.25840 0.08700
C 	C 	0.70070 0.90890 0.24181 -0.19000
H 	H 	0.65090 0.94530 0.23740 0.09000
