data_crystal

_cell_length_a 17.73300
_cell_length_b 8.13190
_cell_length_c 26.41600
_cell_angle_alpha 90.00000
_cell_angle_beta  101.85400
_cell_angle_gamma 90.00000

_symmetry_space_group_name_	'P 1'
_symmetry_space_group_name_H-M	'P 1'

loop_
_symmetry_equiv_pos_as_xyz
  x,y,z

loop_
_atom_site_label
_atom_site_type_symbol
_atom_site_fract_x
_atom_site_fract_y
_atom_site_fract_z
_atom_site_charge
N 	N 	0.04458 0.77020 0.83198 -0.24200
C 	C 	0.10682 0.85210 0.85313 0.08800
H 	H 	0.13650 0.91210 0.83450 -0.02400
C 	C 	0.01856 0.70010 0.87254 -0.12900
H 	H 	0.97520 0.63360 0.86940 0.09700
O 	O 	0.37060 0.11100 0.03970 -0.23700
N 	N 	0.12255 0.83880 0.90515 -0.14600
N 	N 	0.21165 0.23320 0.19533 -0.14000
N 	N 	0.11559 0.24240 0.23681 -0.25900
C 	C 	0.25771 0.91650 0.92399 -0.06600
H 	H 	0.26140 0.87490 0.89180 0.05700
C 	C 	0.32192 0.98480 0.95527 -0.10000
H 	H 	0.36880 0.99270 0.94480 0.07400
C 	C 	0.31282 0.04100 0.00312 0.13500
C 	C 	0.24334 0.03140 0.02000 -0.00600
C 	C 	0.17872 0.96520 0.98768 -0.10500
H 	H 	0.13160 0.95930 0.99780 0.07000
C 	C 	0.18725 0.90840 0.93963 0.09600
C 	C 	0.25978 0.09920 0.07197 -0.01500
C 	C 	0.33747 0.14330 0.08155 0.14000
C 	C 	0.37558 0.20890 0.12769 -0.11500
H 	H 	0.42760 0.23560 0.13340 0.06500
C 	C 	0.33251 0.23340 0.16548 -0.06400
H 	H 	0.35640 0.27500 0.19760 0.03500
C 	C 	0.25416 0.19680 0.15602 0.08100
C 	C 	0.21653 0.12870 0.10949 -0.10100
H 	H 	0.16430 0.10350 0.10360 0.06400
C 	C 	0.23260 0.34190 0.23581 -0.00100
H 	H 	0.27840 0.40100 0.24430 0.02500
C 	C 	0.17326 0.34520 0.26069 -0.01000
H 	H 	0.17170 0.40830 0.28980 0.01400
C 	C 	0.14118 0.17680 0.19782 0.09000
H 	H 	0.11380 0.10080 0.17490 -0.03400
C 	C 	0.06538 0.74220 0.91763 0.06200
H 	H 	0.06000 0.71190 0.95070 0.00700
N 	N 	0.95542 0.77020 0.66802 -0.26000
C 	C 	0.89318 0.85210 0.64687 0.09300
H 	H 	0.86350 0.91210 0.66550 -0.02000
C 	C 	0.98144 0.70010 0.62746 0.13900
H 	H 	0.02480 0.63360 0.63060 -0.06900
O 	O 	0.62940 0.11100 0.46030 -0.23600
N 	N 	0.87745 0.83880 0.59485 -0.12600
N 	N 	0.78835 0.23320 0.30467 -0.13900
N 	N 	0.88441 0.24240 0.26319 -0.24100
C 	C 	0.74229 0.91650 0.57601 -0.06700
H 	H 	0.73860 0.87490 0.60820 0.05700
C 	C 	0.67808 0.98480 0.54473 -0.09800
H 	H 	0.63120 0.99270 0.55520 0.07300
C 	C 	0.68718 0.04100 0.49688 0.13300
C 	C 	0.75666 0.03140 0.48000 -0.00300
C 	C 	0.82128 0.96520 0.51232 -0.10600
H 	H 	0.86840 0.95930 0.50220 0.08500
C 	C 	0.81275 0.90840 0.56037 0.09800
C 	C 	0.74022 0.09920 0.42803 -0.01000
C 	C 	0.66253 0.14330 0.41845 0.13700
C 	C 	0.62442 0.20890 0.37231 -0.11200
H 	H 	0.57240 0.23560 0.36660 0.06400
C 	C 	0.66749 0.23340 0.33452 -0.06700
H 	H 	0.64360 0.27500 0.30240 0.03600
C 	C 	0.74584 0.19680 0.34398 0.08600
C 	C 	0.78347 0.12870 0.39051 -0.10700
H 	H 	0.83570 0.10350 0.39640 0.07800
C 	C 	0.76740 0.34190 0.26419 0.00200
H 	H 	0.72160 0.40100 0.25570 0.02500
C 	C 	0.82674 0.34520 0.23931 -0.00700
H 	H 	0.82830 0.40830 0.21020 0.01800
C 	C 	0.85882 0.17680 0.30218 0.09000
H 	H 	0.88620 0.10080 0.32510 -0.01200
C 	C 	0.93462 0.74220 0.58237 -0.05900
H 	H 	0.94000 0.71190 0.54930 0.07500
N 	N 	0.95542 0.22980 0.16802 -0.26000
C 	C 	0.89318 0.14790 0.14687 0.09300
H 	H 	0.86350 0.08790 0.16550 -0.02000
C 	C 	0.98144 0.29990 0.12746 0.13800
H 	H 	0.02480 0.36640 0.13060 -0.06900
O 	O 	0.62940 0.88900 0.96030 -0.23600
N 	N 	0.87745 0.16120 0.09485 -0.12600
N 	N 	0.78835 0.76680 0.80467 -0.13900
N 	N 	0.88441 0.75760 0.76319 -0.24100
C 	C 	0.74229 0.08350 0.07601 -0.06700
H 	H 	0.73860 0.12510 0.10820 0.05700
C 	C 	0.67808 0.01520 0.04473 -0.09800
H 	H 	0.63120 0.00730 0.05520 0.07300
C 	C 	0.68718 0.95900 0.99688 0.13300
C 	C 	0.75666 0.96860 0.98000 -0.00300
C 	C 	0.82128 0.03480 0.01232 -0.10600
H 	H 	0.86840 0.04070 0.00220 0.08500
C 	C 	0.81275 0.09160 0.06037 0.09800
C 	C 	0.74022 0.90080 0.92803 -0.01000
C 	C 	0.66253 0.85670 0.91845 0.13700
C 	C 	0.62442 0.79110 0.87231 -0.11200
H 	H 	0.57240 0.76440 0.86660 0.06400
C 	C 	0.66749 0.76660 0.83452 -0.06700
H 	H 	0.64360 0.72500 0.80240 0.03600
C 	C 	0.74584 0.80320 0.84398 0.08600
C 	C 	0.78347 0.87130 0.89051 -0.10700
H 	H 	0.83570 0.89650 0.89640 0.07800
C 	C 	0.76740 0.65810 0.76419 0.00200
H 	H 	0.72160 0.59900 0.75570 0.02500
C 	C 	0.82674 0.65480 0.73931 -0.00700
H 	H 	0.82830 0.59170 0.71020 0.01800
C 	C 	0.85882 0.82320 0.80218 0.09000
H 	H 	0.88620 0.89920 0.82510 -0.01200
C 	C 	0.93462 0.25780 0.08237 -0.05900
H 	H 	0.94000 0.28810 0.04930 0.07500
N 	N 	0.04458 0.22980 0.33198 -0.24300
C 	C 	0.10682 0.14790 0.35313 0.08800
H 	H 	0.13650 0.08790 0.33450 -0.02400
C 	C 	0.01856 0.29990 0.37254 -0.13000
H 	H 	0.97520 0.36640 0.36940 0.09700
O 	O 	0.37060 0.88900 0.53970 -0.23700
N 	N 	0.12255 0.16120 0.40515 -0.14700
N 	N 	0.21165 0.76680 0.69533 -0.14000
N 	N 	0.11559 0.75760 0.73681 -0.25900
C 	C 	0.25771 0.08350 0.42399 -0.06600
H 	H 	0.26140 0.12510 0.39180 0.05700
C 	C 	0.32192 0.01520 0.45527 -0.10000
H 	H 	0.36880 0.00730 0.44480 0.07400
C 	C 	0.31282 0.95900 0.50312 0.13500
C 	C 	0.24334 0.96860 0.52000 -0.00600
C 	C 	0.17872 0.03480 0.48768 -0.10400
H 	H 	0.13160 0.04070 0.49780 0.07000
C 	C 	0.18725 0.09160 0.43963 0.09600
C 	C 	0.25978 0.90080 0.57197 -0.01500
C 	C 	0.33747 0.85670 0.58155 0.14000
C 	C 	0.37558 0.79110 0.62769 -0.11500
H 	H 	0.42760 0.76440 0.63340 0.06500
C 	C 	0.33251 0.76660 0.66548 -0.06400
H 	H 	0.35640 0.72500 0.69760 0.03500
C 	C 	0.25416 0.80320 0.65602 0.08100
C 	C 	0.21653 0.87130 0.60949 -0.10100
H 	H 	0.16430 0.89650 0.60360 0.06400
C 	C 	0.23260 0.65810 0.73581 -0.00100
H 	H 	0.27840 0.59900 0.74430 0.02500
C 	C 	0.17326 0.65480 0.76069 -0.01000
H 	H 	0.17170 0.59170 0.78980 0.01400
C 	C 	0.14118 0.82320 0.69782 0.09000
H 	H 	0.11380 0.89920 0.67490 -0.03400
C 	C 	0.06538 0.25780 0.41763 0.06300
H 	H 	0.06000 0.28810 0.45070 0.00700
Co	Co	0.00000 0.23591 0.25000 1.04400
Co	Co	-0.00000 0.76409 0.75000 1.04400
N 	N 	0.54458 0.27020 0.83198 -0.25500
C 	C 	0.60682 0.35210 0.85313 0.09100
H 	H 	0.63650 0.41210 0.83450 -0.02200
C 	C 	0.51856 0.20010 0.87254 0.00400
H 	H 	0.47520 0.13360 0.86940 0.01300
O 	O 	0.87060 0.61100 0.03970 -0.22800
N 	N 	0.62255 0.33880 0.90515 -0.13600
N 	N 	0.71165 0.73320 0.19533 -0.13900
N 	N 	0.61559 0.74240 0.23681 -0.25300
C 	C 	0.75771 0.41650 0.92399 -0.06400
H 	H 	0.76140 0.37490 0.89180 0.05800
C 	C 	0.82192 0.48480 0.95527 -0.10000
H 	H 	0.86880 0.49270 0.94480 0.08100
C 	C 	0.81282 0.54100 0.00312 0.13600
C 	C 	0.74334 0.53140 0.02000 -0.00500
C 	C 	0.67872 0.46520 0.98768 -0.10500
H 	H 	0.63160 0.45930 0.99780 0.07700
C 	C 	0.68725 0.40840 0.93963 0.09700
C 	C 	0.75978 0.59920 0.07197 -0.01300
C 	C 	0.83747 0.64330 0.08155 0.14100
C 	C 	0.87558 0.70890 0.12769 -0.11400
H 	H 	0.92760 0.73560 0.13340 0.07700
C 	C 	0.83251 0.73340 0.16548 -0.06300
H 	H 	0.85640 0.77500 0.19760 0.04100
C 	C 	0.75416 0.69680 0.15602 0.08300
C 	C 	0.71653 0.62870 0.10949 -0.10300
H 	H 	0.66430 0.60350 0.10360 0.07000
C 	C 	0.73260 0.84190 0.23581 0.00000
H 	H 	0.77840 0.90100 0.24430 0.02700
C 	C 	0.67326 0.84520 0.26069 -0.00800
H 	H 	0.67170 0.90830 0.28980 0.01500
C 	C 	0.64118 0.67680 0.19782 0.09000
H 	H 	0.61380 0.60080 0.17490 -0.02400
C 	C 	0.56538 0.24220 0.91763 0.00200
H 	H 	0.56000 0.21190 0.95070 0.04000
N 	N 	0.45542 0.27020 0.66802 -0.25500
C 	C 	0.39318 0.35210 0.64687 0.09000
H 	H 	0.36350 0.41210 0.66550 -0.02300
C 	C 	0.48144 0.20010 0.62746 0.00400
H 	H 	0.52480 0.13360 0.63060 0.01300
O 	O 	0.12940 0.61100 0.46030 -0.24400
N 	N 	0.37745 0.33880 0.59485 -0.13600
N 	N 	0.28835 0.73320 0.30467 -0.14000
N 	N 	0.38441 0.74240 0.26319 -0.25300
C 	C 	0.24229 0.41650 0.57601 -0.06800
H 	H 	0.23860 0.37490 0.60820 0.05600
C 	C 	0.17808 0.48480 0.54473 -0.09900
H 	H 	0.13120 0.49270 0.55520 0.06600
C 	C 	0.18718 0.54100 0.49688 0.13300
C 	C 	0.25666 0.53140 0.48000 -0.00500
C 	C 	0.32128 0.46520 0.51232 -0.10600
H 	H 	0.36840 0.45930 0.50220 0.07700
C 	C 	0.31275 0.40840 0.56037 0.09700
C 	C 	0.24022 0.59920 0.42803 -0.01200
C 	C 	0.16253 0.64330 0.41845 0.13600
C 	C 	0.12442 0.70890 0.37231 -0.11300
H 	H 	0.07240 0.73560 0.36660 0.05400
C 	C 	0.16749 0.73340 0.33452 -0.06700
H 	H 	0.14360 0.77500 0.30240 0.03100
C 	C 	0.24584 0.69680 0.34398 0.08300
C 	C 	0.28347 0.62870 0.39051 -0.10500
H 	H 	0.33570 0.60350 0.39640 0.07100
C 	C 	0.26740 0.84190 0.26419 0.00000
H 	H 	0.22160 0.90100 0.25570 0.02300
C 	C 	0.32674 0.84520 0.23931 -0.00900
H 	H 	0.32830 0.90830 0.21020 0.01500
C 	C 	0.35882 0.67680 0.30218 0.09000
H 	H 	0.38620 0.60080 0.32510 -0.02400
C 	C 	0.43462 0.24220 0.58237 0.00200
H 	H 	0.44000 0.21190 0.54930 0.04100
N 	N 	0.45542 0.72980 0.16802 -0.25500
C 	C 	0.39318 0.64790 0.14687 0.09000
H 	H 	0.36350 0.58790 0.16550 -0.02300
C 	C 	0.48144 0.79990 0.12746 0.00400
H 	H 	0.52480 0.86640 0.13060 0.01300
O 	O 	0.12940 0.38900 0.96030 -0.24400
N 	N 	0.37745 0.66120 0.09485 -0.13600
N 	N 	0.28835 0.26680 0.80467 -0.14000
N 	N 	0.38441 0.25760 0.76319 -0.25300
C 	C 	0.24229 0.58350 0.07601 -0.06800
H 	H 	0.23860 0.62510 0.10820 0.05600
C 	C 	0.17808 0.51520 0.04473 -0.09800
H 	H 	0.13120 0.50730 0.05520 0.06600
C 	C 	0.18718 0.45900 0.99688 0.13200
C 	C 	0.25666 0.46860 0.98000 -0.00500
C 	C 	0.32128 0.53480 0.01232 -0.10500
H 	H 	0.36840 0.54070 0.00220 0.07700
C 	C 	0.31275 0.59160 0.06037 0.09700
C 	C 	0.24022 0.40080 0.92803 -0.01200
C 	C 	0.16253 0.35670 0.91845 0.13600
C 	C 	0.12442 0.29110 0.87231 -0.11300
H 	H 	0.07240 0.26440 0.86660 0.05400
C 	C 	0.16749 0.26660 0.83452 -0.06700
H 	H 	0.14360 0.22500 0.80240 0.03100
C 	C 	0.24584 0.30320 0.84398 0.08300
C 	C 	0.28347 0.37130 0.89051 -0.10500
H 	H 	0.33570 0.39650 0.89640 0.07100
C 	C 	0.26740 0.15810 0.76419 0.00000
H 	H 	0.22160 0.09900 0.75570 0.02200
C 	C 	0.32674 0.15480 0.73931 -0.00900
H 	H 	0.32830 0.09170 0.71020 0.01500
C 	C 	0.35882 0.32320 0.80218 0.09000
H 	H 	0.38620 0.39920 0.82510 -0.02400
C 	C 	0.43462 0.75780 0.08237 0.00200
H 	H 	0.44000 0.78810 0.04930 0.04100
N 	N 	0.54458 0.72980 0.33198 -0.25500
C 	C 	0.60682 0.64790 0.35313 0.09100
H 	H 	0.63650 0.58790 0.33450 -0.02200
C 	C 	0.51856 0.79990 0.37254 0.00400
H 	H 	0.47520 0.86640 0.36940 0.01300
O 	O 	0.87060 0.38900 0.53970 -0.22800
N 	N 	0.62255 0.66120 0.40515 -0.13600
N 	N 	0.71165 0.26680 0.69533 -0.13900
N 	N 	0.61559 0.25760 0.73681 -0.25300
C 	C 	0.75771 0.58350 0.42399 -0.06400
H 	H 	0.76140 0.62510 0.39180 0.05800
C 	C 	0.82192 0.51520 0.45527 -0.10000
H 	H 	0.86880 0.50730 0.44480 0.08100
C 	C 	0.81282 0.45900 0.50312 0.13600
C 	C 	0.74334 0.46860 0.52000 -0.00500
C 	C 	0.67872 0.53480 0.48768 -0.10500
H 	H 	0.63160 0.54070 0.49780 0.07700
C 	C 	0.68725 0.59160 0.43963 0.09700
C 	C 	0.75978 0.40080 0.57197 -0.01300
C 	C 	0.83747 0.35670 0.58155 0.14100
C 	C 	0.87558 0.29110 0.62769 -0.11400
H 	H 	0.92760 0.26440 0.63340 0.07700
C 	C 	0.83251 0.26660 0.66548 -0.06300
H 	H 	0.85640 0.22500 0.69760 0.04100
C 	C 	0.75416 0.30320 0.65602 0.08300
C 	C 	0.71653 0.37130 0.60949 -0.10400
H 	H 	0.66430 0.39650 0.60360 0.07000
C 	C 	0.73260 0.15810 0.73581 0.00000
H 	H 	0.77840 0.09900 0.74430 0.02700
C 	C 	0.67326 0.15480 0.76069 -0.00800
H 	H 	0.67170 0.09170 0.78980 0.01500
C 	C 	0.64118 0.32320 0.69782 0.09000
H 	H 	0.61380 0.39920 0.67490 -0.02400
C 	C 	0.56538 0.75780 0.41763 0.00200
H 	H 	0.56000 0.78810 0.45070 0.04100
Co	Co	0.50000 0.73591 0.25000 1.06700
Co	Co	0.50000 0.26409 0.75000 1.06700
