data_crystal

_cell_length_a 22.27490
_cell_length_b 12.72530
_cell_length_c 17.73340
_cell_angle_alpha 90.00000
_cell_angle_beta  126.33500
_cell_angle_gamma 90.00000

_symmetry_space_group_name_	'P 1'
_symmetry_space_group_name_H-M	'P 1'

loop_
_symmetry_equiv_pos_as_xyz
  x,y,z

loop_
_atom_site_label
_atom_site_type_symbol
_atom_site_fract_x
_atom_site_fract_y
_atom_site_fract_z
_atom_site_charge
Zn	Zn	0.05216 0.52064 0.10152 1.19900
S 	S 	0.33493 0.62963 0.92034 0.27000
O 	O 	0.96081 0.45915 0.08347 -0.48300
O 	O 	0.12316 0.56210 0.07107 -0.46700
O 	O 	0.09448 0.37191 0.12711 -0.45100
O 	O 	0.98605 0.65117 0.02715 -0.47600
O 	O 	0.29885 0.66774 0.82682 -0.22000
O 	O 	0.39742 0.68535 0.99717 -0.21300
C 	C 	0.06419 0.31835 0.05380 0.39200
C 	C 	0.09075 0.20655 0.06283 -0.09700
C 	C 	0.04977 0.13940 0.98744 0.02200
H 	H 	0.00650 0.16350 0.93200 0.04400
C 	C 	0.07251 0.03660 0.99362 -0.05500
H 	H 	0.04460 0.99140 0.94280 0.06500
C 	C 	0.13687 0.00160 0.07567 -0.01500
C 	C 	0.17886 0.06760 0.15218 -0.06200
H 	H 	0.22220 0.04340 0.20740 0.06000
C 	C 	0.15543 0.17020 0.14530 0.00900
H 	H 	0.18320 0.21520 0.19630 0.05600
C 	C 	0.10328 0.56171 0.98870 0.41400
C 	C 	0.16127 0.58452 0.97287 -0.11100
C 	C 	0.14070 0.58880 0.88260 0.03600
H 	H 	0.09080 0.58090 0.83240 0.02600
C 	C 	0.19330 0.60460 0.86559 -0.09700
H 	H 	0.17930 0.60710 0.80470 0.07000
C 	C 	0.26711 0.61657 0.94140 0.01500
C 	C 	0.28866 0.61430 0.03206 -0.08700
H 	H 	0.33850 0.62270 0.08210 0.07700
C 	C 	0.23555 0.59940 0.04784 0.03800
H 	H 	0.24950 0.59930 0.10870 0.03900
Zn	Zn	0.55216 0.02064 0.10152 1.19800
S 	S 	0.83493 0.12963 0.92034 0.27600
O 	O 	0.46081 0.95915 0.08347 -0.48400
O 	O 	0.62316 0.06210 0.07107 -0.46800
O 	O 	0.59448 0.87191 0.12711 -0.45100
O 	O 	0.48605 0.15117 0.02715 -0.48400
O 	O 	0.79885 0.16774 0.82682 -0.22100
O 	O 	0.89742 0.18535 0.99717 -0.21500
C 	C 	0.56419 0.81835 0.05380 0.40200
C 	C 	0.59075 0.70655 0.06283 -0.09700
C 	C 	0.54977 0.63940 0.98744 0.02500
H 	H 	0.50650 0.66350 0.93200 0.04100
C 	C 	0.57251 0.53660 0.99362 -0.07900
H 	H 	0.54460 0.49140 0.94280 0.07500
C 	C 	0.63687 0.50160 0.07567 0.00300
C 	C 	0.67886 0.56760 0.15218 -0.07100
H 	H 	0.72220 0.54340 0.20740 0.06300
C 	C 	0.65543 0.67020 0.14530 0.01600
H 	H 	0.68320 0.71520 0.19630 0.05400
C 	C 	0.60328 0.06171 0.98870 0.41400
C 	C 	0.66127 0.08452 0.97287 -0.11000
C 	C 	0.64070 0.08880 0.88260 0.03500
H 	H 	0.59080 0.08090 0.83240 0.02600
C 	C 	0.69330 0.10460 0.86559 -0.09500
H 	H 	0.67930 0.10710 0.80470 0.07000
C 	C 	0.76711 0.11657 0.94140 0.01300
C 	C 	0.78866 0.11430 0.03206 -0.08600
H 	H 	0.83850 0.12270 0.08210 0.07700
C 	C 	0.73555 0.09940 0.04784 0.03700
H 	H 	0.74950 0.09930 0.10870 0.04000
Zn	Zn	0.94784 0.47936 0.89848 1.19800
S 	S 	0.66507 0.37037 0.07966 0.26900
O 	O 	0.03919 0.54085 0.91653 -0.48400
O 	O 	0.87684 0.43790 0.92893 -0.46800
O 	O 	0.90552 0.62809 0.87289 -0.45100
O 	O 	0.01395 0.34883 0.97285 -0.47600
O 	O 	0.70115 0.33226 0.17318 -0.22000
O 	O 	0.60258 0.31465 0.00283 -0.21300
C 	C 	0.93581 0.68165 0.94620 0.39200
C 	C 	0.90925 0.79345 0.93717 -0.09700
C 	C 	0.95023 0.86060 0.01256 0.02200
H 	H 	0.99350 0.83650 0.06800 0.04400
C 	C 	0.92749 0.96340 0.00638 -0.05500
H 	H 	0.95540 0.00860 0.05720 0.06500
C 	C 	0.86313 0.99840 0.92433 -0.01500
C 	C 	0.82114 0.93240 0.84782 -0.06200
H 	H 	0.77780 0.95660 0.79260 0.06000
C 	C 	0.84457 0.82980 0.85470 0.00900
H 	H 	0.81680 0.78480 0.80370 0.05600
C 	C 	0.89672 0.43829 0.01130 0.41400
C 	C 	0.83873 0.41548 0.02713 -0.11100
C 	C 	0.85930 0.41120 0.11740 0.03600
H 	H 	0.90920 0.41910 0.16760 0.02600
C 	C 	0.80670 0.39540 0.13441 -0.09700
H 	H 	0.82070 0.39290 0.19530 0.07000
C 	C 	0.73289 0.38343 0.05860 0.01500
C 	C 	0.71134 0.38570 0.96794 -0.08700
H 	H 	0.66150 0.37730 0.91790 0.07700
C 	C 	0.76445 0.40060 0.95216 0.03800
H 	H 	0.75050 0.40070 0.89130 0.03900
Zn	Zn	0.44784 0.97936 0.89848 1.19800
S 	S 	0.16507 0.87037 0.07966 0.27600
O 	O 	0.53919 0.04085 0.91653 -0.48400
O 	O 	0.37684 0.93790 0.92893 -0.46800
O 	O 	0.40552 0.12809 0.87289 -0.45100
O 	O 	0.51395 0.84883 0.97285 -0.48400
O 	O 	0.20115 0.83226 0.17318 -0.22100
O 	O 	0.10258 0.81465 0.00283 -0.21500
C 	C 	0.43581 0.18165 0.94620 0.40200
C 	C 	0.40925 0.29345 0.93717 -0.09700
C 	C 	0.45023 0.36060 0.01256 0.02500
H 	H 	0.49350 0.33650 0.06800 0.04100
C 	C 	0.42749 0.46340 0.00638 -0.07900
H 	H 	0.45540 0.50860 0.05720 0.07500
C 	C 	0.36313 0.49840 0.92433 0.00300
C 	C 	0.32114 0.43240 0.84782 -0.07100
H 	H 	0.27780 0.45660 0.79260 0.06300
C 	C 	0.34457 0.32980 0.85470 0.01600
H 	H 	0.31680 0.28480 0.80370 0.05400
C 	C 	0.39672 0.93829 0.01130 0.41400
C 	C 	0.33873 0.91548 0.02713 -0.11000
C 	C 	0.35930 0.91120 0.11740 0.03500
H 	H 	0.40920 0.91910 0.16760 0.02600
C 	C 	0.30670 0.89540 0.13441 -0.09500
H 	H 	0.32070 0.89290 0.19530 0.07000
C 	C 	0.23289 0.88343 0.05860 0.01300
C 	C 	0.21134 0.88570 0.96794 -0.08600
H 	H 	0.16150 0.87730 0.91790 0.07700
C 	C 	0.26445 0.90060 0.95216 0.03700
H 	H 	0.25050 0.90070 0.89130 0.04000
Zn	Zn	0.94784 0.52064 0.39848 1.19900
S 	S 	0.66507 0.62963 0.57966 0.26900
O 	O 	0.03919 0.45915 0.41653 -0.48500
O 	O 	0.87684 0.56210 0.42893 -0.46500
O 	O 	0.90552 0.37191 0.37289 -0.45100
O 	O 	0.01395 0.65117 0.47285 -0.48200
O 	O 	0.70115 0.66774 0.67318 -0.22000
O 	O 	0.60258 0.68535 0.50283 -0.21300
C 	C 	0.93581 0.31835 0.44620 0.39900
C 	C 	0.90925 0.20655 0.43717 -0.09900
C 	C 	0.95023 0.13940 0.51256 0.02800
H 	H 	0.99350 0.16350 0.56800 0.04000
C 	C 	0.92749 0.03660 0.50638 -0.07900
H 	H 	0.95540 0.99140 0.55720 0.07600
C 	C 	0.86313 0.00160 0.42433 0.00200
C 	C 	0.82114 0.06760 0.34782 -0.07200
H 	H 	0.77780 0.04340 0.29260 0.06300
C 	C 	0.84457 0.17020 0.35470 0.01600
H 	H 	0.81680 0.21520 0.30370 0.05300
C 	C 	0.89672 0.56171 0.51130 0.41200
C 	C 	0.83873 0.58452 0.52713 -0.11200
C 	C 	0.85930 0.58880 0.61740 0.03600
H 	H 	0.90920 0.58090 0.66760 0.02500
C 	C 	0.80670 0.60460 0.63441 -0.09700
H 	H 	0.82070 0.60710 0.69530 0.07000
C 	C 	0.73289 0.61657 0.55860 0.01500
C 	C 	0.71134 0.61430 0.46794 -0.08700
H 	H 	0.66150 0.62270 0.41790 0.07700
C 	C 	0.76445 0.59940 0.45216 0.04000
H 	H 	0.75050 0.59930 0.39130 0.03900
Zn	Zn	0.44784 0.02064 0.39848 1.19900
S 	S 	0.16507 0.12963 0.57966 0.27000
O 	O 	0.53919 0.95915 0.41653 -0.48400
O 	O 	0.37684 0.06210 0.42893 -0.46500
O 	O 	0.40552 0.87191 0.37289 -0.45100
O 	O 	0.51395 0.15117 0.47285 -0.48200
O 	O 	0.20115 0.16774 0.67318 -0.21900
O 	O 	0.10258 0.18535 0.50283 -0.21300
C 	C 	0.43581 0.81835 0.44620 0.39900
C 	C 	0.40925 0.70655 0.43717 -0.09800
C 	C 	0.45023 0.63940 0.51256 0.02800
H 	H 	0.49350 0.66350 0.56800 0.04000
C 	C 	0.42749 0.53660 0.50638 -0.07900
H 	H 	0.45540 0.49140 0.55720 0.07500
C 	C 	0.36313 0.50160 0.42433 0.00200
C 	C 	0.32114 0.56760 0.34782 -0.07200
H 	H 	0.27780 0.54340 0.29260 0.06300
C 	C 	0.34457 0.67020 0.35470 0.01600
H 	H 	0.31680 0.71520 0.30370 0.05400
C 	C 	0.39672 0.06171 0.51130 0.41200
C 	C 	0.33873 0.08452 0.52713 -0.11200
C 	C 	0.35930 0.08880 0.61740 0.03600
H 	H 	0.40920 0.08090 0.66760 0.02600
C 	C 	0.30670 0.10460 0.63441 -0.09700
H 	H 	0.32070 0.10710 0.69530 0.07100
C 	C 	0.23289 0.11657 0.55860 0.01500
C 	C 	0.21134 0.11430 0.46794 -0.08700
H 	H 	0.16150 0.12270 0.41790 0.07700
C 	C 	0.26445 0.09940 0.45216 0.04000
H 	H 	0.25050 0.09930 0.39130 0.03900
Zn	Zn	0.05216 0.47936 0.60152 1.19900
S 	S 	0.33493 0.37037 0.42034 0.26900
O 	O 	0.96081 0.54085 0.58347 -0.48500
O 	O 	0.12316 0.43790 0.57107 -0.46500
O 	O 	0.09448 0.62809 0.62711 -0.45100
O 	O 	0.98605 0.34883 0.52715 -0.48200
O 	O 	0.29885 0.33226 0.32682 -0.22000
O 	O 	0.39742 0.31465 0.49717 -0.21300
C 	C 	0.06419 0.68165 0.55380 0.39900
C 	C 	0.09075 0.79345 0.56283 -0.09900
C 	C 	0.04977 0.86060 0.48744 0.02800
H 	H 	0.00650 0.83650 0.43200 0.04000
C 	C 	0.07251 0.96340 0.49362 -0.07900
H 	H 	0.04460 0.00860 0.44280 0.07600
C 	C 	0.13687 0.99840 0.57567 0.00200
C 	C 	0.17886 0.93240 0.65218 -0.07200
H 	H 	0.22220 0.95660 0.70740 0.06300
C 	C 	0.15543 0.82980 0.64530 0.01600
H 	H 	0.18320 0.78480 0.69630 0.05300
C 	C 	0.10328 0.43829 0.48870 0.41200
C 	C 	0.16127 0.41548 0.47287 -0.11200
C 	C 	0.14070 0.41120 0.38260 0.03600
H 	H 	0.09080 0.41910 0.33240 0.02500
C 	C 	0.19330 0.39540 0.36559 -0.09700
H 	H 	0.17930 0.39290 0.30470 0.07000
C 	C 	0.26711 0.38343 0.44140 0.01500
C 	C 	0.28866 0.38570 0.53206 -0.08700
H 	H 	0.33850 0.37730 0.58210 0.07700
C 	C 	0.23555 0.40060 0.54784 0.04000
H 	H 	0.24950 0.40070 0.60870 0.03900
Zn	Zn	0.55216 0.97936 0.60152 1.19900
S 	S 	0.83493 0.87037 0.42034 0.27000
O 	O 	0.46081 0.04085 0.58347 -0.48400
O 	O 	0.62316 0.93790 0.57107 -0.46500
O 	O 	0.59448 0.12809 0.62711 -0.45100
O 	O 	0.48605 0.84883 0.52715 -0.48200
O 	O 	0.79885 0.83226 0.32682 -0.21900
O 	O 	0.89742 0.81465 0.49717 -0.21300
C 	C 	0.56419 0.18165 0.55380 0.39900
C 	C 	0.59075 0.29345 0.56283 -0.09800
C 	C 	0.54977 0.36060 0.48744 0.02800
H 	H 	0.50650 0.33650 0.43200 0.04000
C 	C 	0.57251 0.46340 0.49362 -0.07900
H 	H 	0.54460 0.50860 0.44280 0.07500
C 	C 	0.63687 0.49840 0.57567 0.00200
C 	C 	0.67886 0.43240 0.65218 -0.07200
H 	H 	0.72220 0.45660 0.70740 0.06300
C 	C 	0.65543 0.32980 0.64530 0.01600
H 	H 	0.68320 0.28480 0.69630 0.05400
C 	C 	0.60328 0.93829 0.48870 0.41200
C 	C 	0.66127 0.91548 0.47287 -0.11200
C 	C 	0.64070 0.91120 0.38260 0.03600
H 	H 	0.59080 0.91910 0.33240 0.02600
C 	C 	0.69330 0.89540 0.36559 -0.09700
H 	H 	0.67930 0.89290 0.30470 0.07100
C 	C 	0.76711 0.88343 0.44140 0.01500
C 	C 	0.78866 0.88570 0.53206 -0.08700
H 	H 	0.83850 0.87730 0.58210 0.07700
C 	C 	0.73555 0.90060 0.54784 0.04000
H 	H 	0.74950 0.90070 0.60870 0.03900
