data_crystal

_cell_length_a 12.72160
_cell_length_b 9.49600
_cell_length_c 18.09000
_cell_angle_alpha 90.00000
_cell_angle_beta  108.22800
_cell_angle_gamma 90.00000

_symmetry_space_group_name_	'P 1'
_symmetry_space_group_name_H-M	'P 1'

loop_
_symmetry_equiv_pos_as_xyz
  x,y,z

loop_
_atom_site_label
_atom_site_type_symbol
_atom_site_fract_x
_atom_site_fract_y
_atom_site_fract_z
_atom_site_charge
Zn	Zn	0.79669 0.95994 0.07309 1.24800
Cl	Cl	0.66224 0.84810 0.10191 -0.47800
O 	O 	0.13000 0.87440 0.05300 -0.46100
O 	O 	0.27650 0.91630 0.01420 -0.46000
O 	O 	0.47280 0.58380 0.39140 -0.45000
O 	O 	0.61040 0.57040 0.33990 -0.44700
C 	C 	0.30170 0.79250 0.13120 -0.07300
C 	C 	0.41440 0.77690 0.14110 -0.01400
H 	H 	0.44360 0.80870 0.10300 0.09300
C 	C 	0.48220 0.71420 0.20770 -0.00000
H 	H 	0.55730 0.70450 0.21420 0.08600
C 	C 	0.44100 0.66610 0.26410 -0.07600
C 	C 	0.32920 0.67960 0.25260 -0.01000
H 	H 	0.29960 0.64580 0.29010 0.05700
C 	C 	0.26150 0.74150 0.18730 -0.01100
H 	H 	0.18630 0.74920 0.18080 0.06100
C 	C 	0.23040 0.86570 0.06060 0.39600
C 	C 	0.51380 0.60270 0.33750 0.39300
O 	O 	0.89060 0.84400 0.02830 -0.54100
O 	O 	0.94030 0.73450 0.14210 -0.27300
C 	C 	0.96840 0.61730 0.03600 -0.12500
C 	C 	0.02510 0.50430 0.07990 0.01200
H 	H 	0.04200 0.50590 0.13380 0.04000
C 	C 	0.05670 0.38940 0.04430 -0.12900
H 	H 	0.09530 0.31570 0.07470 0.08100
C 	C 	0.93260 0.73790 0.07390 0.36000
Zn	Zn	0.70331 0.45994 0.42691 1.24100
Cl	Cl	0.83776 0.34810 0.39809 -0.47300
O 	O 	0.37000 0.37440 0.44700 -0.45800
O 	O 	0.22350 0.41630 0.48580 -0.45900
O 	O 	0.02720 0.08380 0.10860 -0.53000
O 	O 	0.88960 0.07040 0.16010 -0.49000
C 	C 	0.19830 0.29250 0.36880 -0.08500
C 	C 	0.08560 0.27690 0.35890 0.01000
H 	H 	0.05640 0.30870 0.39700 0.07100
C 	C 	0.01780 0.21420 0.29230 -0.06800
H 	H 	0.94270 0.20450 0.28580 0.12400
C 	C 	0.05900 0.16610 0.23590 -0.12000
C 	C 	0.17080 0.17960 0.24740 0.00500
H 	H 	0.20040 0.14580 0.20990 0.03600
C 	C 	0.23850 0.24150 0.31270 -0.02400
H 	H 	0.31370 0.24920 0.31920 0.06000
C 	C 	0.26960 0.36570 0.43940 0.39700
C 	C 	0.98620 0.10270 0.16250 0.47700
O 	O 	0.60940 0.34400 0.47170 -0.52900
O 	O 	0.55970 0.23450 0.35790 -0.28500
C 	C 	0.53160 0.11730 0.46400 0.05800
C 	C 	0.47490 0.00430 0.42010 -0.20800
H 	H 	0.45800 0.00590 0.36620 0.11000
C 	C 	0.44330 0.88940 0.45570 0.17700
H 	H 	0.40470 0.81570 0.42530 0.00000
C 	C 	0.56740 0.23790 0.42610 0.29100
Zn	Zn	0.20331 0.04006 0.92691 1.23300
Cl	Cl	0.33776 0.15190 0.89809 -0.48600
O 	O 	0.87000 0.12560 0.94700 -0.42900
O 	O 	0.72350 0.08370 0.98580 -0.43600
O 	O 	0.52720 0.41620 0.60860 -0.45900
O 	O 	0.38960 0.42960 0.66010 -0.45300
C 	C 	0.69830 0.20750 0.86880 -0.06000
C 	C 	0.58560 0.22310 0.85890 -0.02900
H 	H 	0.55640 0.19130 0.89700 0.10200
C 	C 	0.51780 0.28580 0.79230 0.01100
H 	H 	0.44270 0.29550 0.78580 0.07800
C 	C 	0.55900 0.33390 0.73590 -0.09000
C 	C 	0.67080 0.32040 0.74740 0.00100
H 	H 	0.70040 0.35420 0.70990 0.05000
C 	C 	0.73850 0.25850 0.81270 -0.02900
H 	H 	0.81370 0.25080 0.81920 0.06800
C 	C 	0.76960 0.13430 0.93940 0.38600
C 	C 	0.48620 0.39730 0.66250 0.39500
O 	O 	0.10940 0.15600 0.97170 -0.52500
O 	O 	0.05970 0.26550 0.85790 -0.30600
C 	C 	0.03160 0.38270 0.96400 -0.00700
C 	C 	0.97490 0.49570 0.92010 -0.02900
H 	H 	0.95800 0.49410 0.86620 0.07700
C 	C 	0.94330 0.61060 0.95570 0.09000
H 	H 	0.90470 0.68430 0.92530 0.04000
C 	C 	0.06740 0.26210 0.92610 0.31700
Zn	Zn	0.29669 0.54006 0.57309 1.24100
Cl	Cl	0.16224 0.65190 0.60191 -0.48800
O 	O 	0.63000 0.62560 0.55300 -0.45200
O 	O 	0.77650 0.58370 0.51420 -0.44400
O 	O 	0.97280 0.91620 0.89140 -0.37000
O 	O 	0.11040 0.92960 0.83990 -0.40700
C 	C 	0.80170 0.70750 0.63120 -0.05600
C 	C 	0.91440 0.72310 0.64110 -0.04400
H 	H 	0.94360 0.69130 0.60300 0.11900
C 	C 	0.98220 0.78580 0.70770 0.06600
H 	H 	0.05730 0.79550 0.71420 0.04600
C 	C 	0.94100 0.83390 0.76410 -0.04500
C 	C 	0.82920 0.82040 0.75260 -0.01800
H 	H 	0.79960 0.85420 0.79010 0.07200
C 	C 	0.76150 0.75850 0.68730 -0.01100
H 	H 	0.68630 0.75080 0.68080 0.06600
C 	C 	0.73040 0.63430 0.56060 0.39300
C 	C 	0.01380 0.89730 0.83750 0.31600
O 	O 	0.39060 0.65600 0.52830 -0.54700
O 	O 	0.44030 0.76550 0.64210 -0.29300
C 	C 	0.46840 0.88270 0.53600 -0.18700
C 	C 	0.52510 0.99570 0.57990 0.18600
H 	H 	0.54200 0.99410 0.63380 0.00800
C 	C 	0.55670 0.11060 0.54430 -0.21600
H 	H 	0.59530 0.18430 0.57470 0.12000
C 	C 	0.43260 0.76210 0.57390 0.38700
Zn	Zn	-0.00000 0.00000 -0.00000 1.19800
Zn	Zn	0.50000 0.50000 0.50000 1.24300
