data_crystal

_cell_length_a 21.07690
_cell_length_b 15.66800
_cell_length_c 9.21920
_cell_angle_alpha 90.00000
_cell_angle_beta  103.26100
_cell_angle_gamma 90.00000

_symmetry_space_group_name_	'P 1'
_symmetry_space_group_name_H-M	'P 1'

loop_
_symmetry_equiv_pos_as_xyz
  x,y,z

loop_
_atom_site_label
_atom_site_type_symbol
_atom_site_fract_x
_atom_site_fract_y
_atom_site_fract_z
_atom_site_charge
Mg	Mg	0.81392 0.92470 0.26186 1.45700
O 	O 	0.90601 0.89990 0.40180 -0.41600
O 	O 	0.76692 0.91475 0.43350 -0.49000
O 	O 	0.79350 0.79554 0.25950 -0.43200
O 	O 	0.87291 0.91448 0.11290 -0.47400
C 	C 	0.95333 0.90310 0.33870 0.14900
C 	C 	0.73280 0.81690 0.59540 -0.21500
H 	H 	0.72100 0.86030 0.65620 0.08300
C 	C 	0.75681 0.83790 0.47220 0.14200
C 	C 	0.77371 0.76900 0.37170 0.14500
C 	C 	0.93375 0.90760 0.16810 0.16300
C 	C 	0.01832 0.90440 0.41210 -0.22300
H 	H 	0.03010 0.90310 0.51790 0.11500
Mg	Mg	0.18608 0.92470 0.23814 1.45600
O 	O 	0.09399 0.89990 0.09820 -0.41700
O 	O 	0.23308 0.91475 0.06650 -0.49100
O 	O 	0.20650 0.79554 0.24050 -0.43300
O 	O 	0.12709 0.91448 0.38710 -0.47400
C 	C 	0.04667 0.90310 0.16130 0.14800
C 	C 	0.26720 0.81690 0.90460 -0.21400
H 	H 	0.27900 0.86030 0.84380 0.08300
C 	C 	0.24319 0.83790 0.02780 0.14100
C 	C 	0.22629 0.76900 0.12830 0.14600
C 	C 	0.06625 0.90760 0.33190 0.16300
C 	C 	0.98168 0.90440 0.08790 -0.22200
H 	H 	0.96990 0.90310 0.98210 0.11500
Mg	Mg	0.68608 0.57530 0.73814 1.45600
O 	O 	0.59399 0.60010 0.59820 -0.41700
O 	O 	0.73308 0.58525 0.56650 -0.49200
O 	O 	0.70650 0.70446 0.74050 -0.43300
O 	O 	0.62709 0.58552 0.88710 -0.47400
C 	C 	0.54667 0.59690 0.66130 0.14800
C 	C 	0.76720 0.68310 0.40460 -0.21500
H 	H 	0.77900 0.63970 0.34380 0.08300
C 	C 	0.74319 0.66210 0.52780 0.14200
C 	C 	0.72629 0.73100 0.62830 0.14500
C 	C 	0.56625 0.59240 0.83190 0.16300
C 	C 	0.48168 0.59560 0.58790 -0.22200
H 	H 	0.46990 0.59690 0.48210 0.11500
Mg	Mg	0.31392 0.57530 0.76186 1.45600
O 	O 	0.40601 0.60010 0.90180 -0.41700
O 	O 	0.26692 0.58525 0.93350 -0.49200
O 	O 	0.29350 0.70446 0.75950 -0.43300
O 	O 	0.37291 0.58552 0.61290 -0.47400
C 	C 	0.45333 0.59690 0.83870 0.14800
C 	C 	0.23280 0.68310 0.09540 -0.21600
H 	H 	0.22100 0.63970 0.15620 0.08300
C 	C 	0.25681 0.66210 0.97220 0.14200
C 	C 	0.27371 0.73100 0.87170 0.14500
C 	C 	0.43375 0.59240 0.66810 0.16300
C 	C 	0.51832 0.59560 0.91210 -0.22200
H 	H 	0.53010 0.59690 0.01790 0.11500
Mg	Mg	0.31392 0.42470 0.26186 1.45600
O 	O 	0.40601 0.39990 0.40180 -0.41700
O 	O 	0.26692 0.41475 0.43350 -0.49200
O 	O 	0.29350 0.29554 0.25950 -0.43300
O 	O 	0.37291 0.41448 0.11290 -0.47400
C 	C 	0.45333 0.40310 0.33870 0.14800
C 	C 	0.23280 0.31690 0.59540 -0.21500
H 	H 	0.22100 0.36030 0.65620 0.08300
C 	C 	0.25681 0.33790 0.47220 0.14200
C 	C 	0.27371 0.26900 0.37170 0.14500
C 	C 	0.43375 0.40760 0.16810 0.16300
C 	C 	0.51832 0.40440 0.41210 -0.22200
H 	H 	0.53010 0.40310 0.51790 0.11500
Mg	Mg	0.68608 0.42470 0.23814 1.45600
O 	O 	0.59399 0.39990 0.09820 -0.41700
O 	O 	0.73308 0.41475 0.06650 -0.49200
O 	O 	0.70650 0.29554 0.24050 -0.43300
O 	O 	0.62709 0.41448 0.38710 -0.47400
C 	C 	0.54667 0.40310 0.16130 0.14800
C 	C 	0.76720 0.31690 0.90460 -0.21600
H 	H 	0.77900 0.36030 0.84380 0.08300
C 	C 	0.74319 0.33790 0.02780 0.14200
C 	C 	0.72629 0.26900 0.12830 0.14500
C 	C 	0.56625 0.40760 0.33190 0.16300
C 	C 	0.48168 0.40440 0.08790 -0.22200
H 	H 	0.46990 0.40310 0.98210 0.11500
Mg	Mg	0.18608 0.07530 0.73814 1.45600
O 	O 	0.09399 0.10010 0.59820 -0.41700
O 	O 	0.23308 0.08525 0.56650 -0.49100
O 	O 	0.20650 0.20446 0.74050 -0.43300
O 	O 	0.12709 0.08552 0.88710 -0.47400
C 	C 	0.04667 0.09690 0.66130 0.14900
C 	C 	0.26720 0.18310 0.40460 -0.21500
H 	H 	0.27900 0.13970 0.34380 0.08300
C 	C 	0.24319 0.16210 0.52780 0.14200
C 	C 	0.22629 0.23100 0.62830 0.14500
C 	C 	0.06625 0.09240 0.83190 0.16300
C 	C 	0.98168 0.09560 0.58790 -0.22300
H 	H 	0.96990 0.09690 0.48210 0.11500
Mg	Mg	0.81392 0.07530 0.76186 1.45600
O 	O 	0.90601 0.10010 0.90180 -0.41700
O 	O 	0.76692 0.08525 0.93350 -0.49100
O 	O 	0.79350 0.20446 0.75950 -0.43300
O 	O 	0.87291 0.08552 0.61290 -0.47400
C 	C 	0.95333 0.09690 0.83870 0.14800
C 	C 	0.73280 0.18310 0.09540 -0.21400
H 	H 	0.72100 0.13970 0.15620 0.08300
C 	C 	0.75681 0.16210 0.97220 0.14100
C 	C 	0.77371 0.23100 0.87170 0.14600
C 	C 	0.93375 0.09240 0.66810 0.16300
C 	C 	0.01832 0.09560 0.91210 -0.22200
H 	H 	0.03010 0.09690 0.01790 0.11500
