data_crystal

_cell_length_a 10.10850
_cell_length_b 18.91800
_cell_length_c 11.04380
_cell_angle_alpha 90.00000
_cell_angle_beta  110.98400
_cell_angle_gamma 90.00000

_symmetry_space_group_name_	'P 1'
_symmetry_space_group_name_H-M	'P 1'

loop_
_symmetry_equiv_pos_as_xyz
  x,y,z

loop_
_atom_site_label
_atom_site_type_symbol
_atom_site_fract_x
_atom_site_fract_y
_atom_site_fract_z
_atom_site_charge
Cd	Cd	0.66494 0.06026 0.06119 1.23400
O 	O 	0.55680 0.11600 0.18580 -0.40700
O 	O 	0.40500 0.03980 0.06590 -0.47800
O 	O 	0.70190 0.17660 0.91830 -0.38500
O 	O 	0.55580 0.10370 0.85460 -0.19700
O 	O 	0.59030 0.19990 0.97170 -0.35500
O 	O 	0.51090 0.12150 0.88900 -0.33200
O 	O 	0.90340 0.04970 0.08670 -0.39600
O 	O 	0.86090 0.14050 0.18780 -0.49500
C 	C 	0.94670 0.09920 0.15950 0.32700
C 	C 	0.10170 0.11520 0.21970 -0.10000
C 	C 	0.19390 0.08940 0.16300 0.03000
H 	H 	0.16020 0.06070 0.08990 0.04400
C 	C 	0.15170 0.15620 0.33190 -0.03400
H 	H 	0.08900 0.17320 0.36930 0.03900
C 	C 	0.29500 0.17130 0.38740 0.00600
C 	C 	0.38690 0.14710 0.32850 -0.01900
H 	H 	0.48280 0.15810 0.36460 0.05400
C 	C 	0.33690 0.10660 0.21570 -0.10000
C 	C 	0.35410 0.21370 0.50980 -0.00800
C 	C 	0.42200 0.17740 0.62720 -0.00700
H 	H 	0.42120 0.12820 0.62680 0.04600
C 	C 	0.49030 0.21250 0.74400 -0.09800
C 	C 	0.56180 0.16880 0.86310 0.62900
C 	C 	0.43900 0.08490 0.15110 0.38800
Cd	Cd	0.33506 0.56026 0.93881 1.23500
O 	O 	0.44320 0.61600 0.81420 -0.40600
O 	O 	0.59500 0.53980 0.93410 -0.47600
O 	O 	0.29810 0.67660 0.08170 -0.38600
O 	O 	0.44420 0.60370 0.14540 -0.19900
O 	O 	0.40970 0.69990 0.02830 -0.35600
O 	O 	0.48910 0.62150 0.11100 -0.33400
O 	O 	0.09660 0.54970 0.91330 -0.39400
O 	O 	0.13910 0.64050 0.81220 -0.49500
C 	C 	0.05330 0.59920 0.84050 0.32800
C 	C 	0.89830 0.61520 0.78030 -0.10200
C 	C 	0.80610 0.58940 0.83700 0.03000
H 	H 	0.83980 0.56070 0.91010 0.04400
C 	C 	0.84830 0.65620 0.66810 -0.03400
H 	H 	0.91100 0.67320 0.63070 0.03800
C 	C 	0.70500 0.67130 0.61260 0.00600
C 	C 	0.61310 0.64710 0.67150 -0.01900
H 	H 	0.51720 0.65810 0.63540 0.05400
C 	C 	0.66310 0.60660 0.78430 -0.10000
C 	C 	0.64590 0.71370 0.49020 -0.00800
C 	C 	0.57800 0.67740 0.37280 -0.00700
H 	H 	0.57880 0.62820 0.37320 0.04600
C 	C 	0.50970 0.71250 0.25600 -0.10000
C 	C 	0.43820 0.66880 0.13690 0.63000
C 	C 	0.56100 0.58490 0.84890 0.38800
Cd	Cd	0.33506 0.93974 0.93881 1.23400
O 	O 	0.44320 0.88400 0.81420 -0.40700
O 	O 	0.59500 0.96020 0.93410 -0.47800
O 	O 	0.29810 0.82340 0.08170 -0.38500
O 	O 	0.44420 0.89630 0.14540 -0.19700
O 	O 	0.40970 0.80010 0.02830 -0.35500
O 	O 	0.48910 0.87850 0.11100 -0.33200
O 	O 	0.09660 0.95030 0.91330 -0.39600
O 	O 	0.13910 0.85950 0.81220 -0.49500
C 	C 	0.05330 0.90080 0.84050 0.32700
C 	C 	0.89830 0.88480 0.78030 -0.10000
C 	C 	0.80610 0.91060 0.83700 0.03000
H 	H 	0.83980 0.93930 0.91010 0.04400
C 	C 	0.84830 0.84380 0.66810 -0.03400
H 	H 	0.91100 0.82680 0.63070 0.03900
C 	C 	0.70500 0.82870 0.61260 0.00600
C 	C 	0.61310 0.85290 0.67150 -0.01900
H 	H 	0.51720 0.84190 0.63540 0.05400
C 	C 	0.66310 0.89340 0.78430 -0.10000
C 	C 	0.64590 0.78630 0.49020 -0.00800
C 	C 	0.57800 0.82260 0.37280 -0.00700
H 	H 	0.57880 0.87180 0.37320 0.04600
C 	C 	0.50970 0.78750 0.25600 -0.09800
C 	C 	0.43820 0.83120 0.13690 0.62900
C 	C 	0.56100 0.91510 0.84890 0.38800
Cd	Cd	0.66494 0.43974 0.06119 1.23500
O 	O 	0.55680 0.38400 0.18580 -0.40600
O 	O 	0.40500 0.46020 0.06590 -0.47600
O 	O 	0.70190 0.32340 0.91830 -0.38600
O 	O 	0.55580 0.39630 0.85460 -0.19900
O 	O 	0.59030 0.30010 0.97170 -0.35600
O 	O 	0.51090 0.37850 0.88900 -0.33400
O 	O 	0.90340 0.45030 0.08670 -0.39400
O 	O 	0.86090 0.35950 0.18780 -0.49500
C 	C 	0.94670 0.40080 0.15950 0.32800
C 	C 	0.10170 0.38480 0.21970 -0.10200
C 	C 	0.19390 0.41060 0.16300 0.03000
H 	H 	0.16020 0.43930 0.08990 0.04400
C 	C 	0.15170 0.34380 0.33190 -0.03400
H 	H 	0.08900 0.32680 0.36930 0.03800
C 	C 	0.29500 0.32870 0.38740 0.00600
C 	C 	0.38690 0.35290 0.32850 -0.01900
H 	H 	0.48280 0.34190 0.36460 0.05400
C 	C 	0.33690 0.39340 0.21570 -0.10000
C 	C 	0.35410 0.28630 0.50980 -0.00800
C 	C 	0.42200 0.32260 0.62720 -0.00700
H 	H 	0.42120 0.37180 0.62680 0.04600
C 	C 	0.49030 0.28750 0.74400 -0.10000
C 	C 	0.56180 0.33120 0.86310 0.63000
C 	C 	0.43900 0.41510 0.15110 0.38800
Cd	Cd	0.79802 0.25000 0.09910 1.23100
Cd	Cd	0.20198 0.75000 0.90090 1.23100
