data_crystal

_cell_length_a 13.05200
_cell_length_b 16.30900
_cell_length_c 19.75800
_cell_angle_alpha 72.56700
_cell_angle_beta  88.00300
_cell_angle_gamma 81.93500

_symmetry_space_group_name_	'P 1'
_symmetry_space_group_name_H-M	'P 1'

loop_
_symmetry_equiv_pos_as_xyz
  x,y,z

loop_
_atom_site_label
_atom_site_type_symbol
_atom_site_fract_x
_atom_site_fract_y
_atom_site_fract_z
_atom_site_charge
O 	O 	0.65040 0.35600 0.68160 -0.78900
Si	Si	0.60200 0.27110 0.72920 2.24700
O 	O 	0.69420 0.14020 0.63320 -0.48100
O 	O 	0.57370 0.11490 0.87950 -0.49400
O 	O 	0.52950 0.24930 0.93090 -0.46600
O 	O 	0.67800 0.41370 0.80340 -0.48100
O 	O 	0.35650 0.35620 0.71170 -0.48300
O 	O 	0.72420 0.25190 0.88250 -0.48600
O 	O 	0.52320 0.24110 0.68460 -0.80600
O 	O 	0.78290 0.08800 0.87410 -0.44500
O 	O 	0.65150 0.29710 0.55620 -0.49800
O 	O 	0.44940 0.27770 0.55550 -0.46400
O 	O 	0.47400 0.47210 0.71030 -0.48300
O 	O 	0.81370 0.25480 0.63330 -0.48100
O 	O 	0.77130 0.03560 0.76150 -0.43500
O 	O 	0.89330 0.15290 0.75980 -0.45000
O 	O 	0.36260 0.29570 0.85320 -0.46300
O 	O 	0.65100 0.46210 0.55780 -0.47800
O 	O 	0.81790 0.41790 0.63380 -0.45200
O 	O 	0.48580 0.41040 0.85390 -0.45500
O 	O 	0.69440 0.19620 0.75850 -0.81600
O 	O 	0.46330 0.41820 0.60230 -0.49100
O 	O 	0.83340 0.31570 0.76960 -0.48500
O 	O 	0.49770 0.11190 0.63500 -0.44000
O 	O 	0.55840 0.06340 0.76780 -0.48100
O 	O 	0.66510 0.51530 0.67060 -0.45300
O 	O 	0.34060 0.21420 0.66980 -0.46000
O 	O 	0.41070 0.16120 0.80460 -0.48700
O 	O 	0.53650 0.29220 0.79500 -0.78400
W 	W 	0.83109 0.19868 0.83330 0.99200
W 	W 	0.74654 0.36337 0.57733 1.03600
W 	W 	0.39575 0.40028 0.78155 1.01900
W 	W 	0.61351 0.33810 0.88234 1.01500
W 	W 	0.57603 0.20135 0.57834 1.00200
W 	W 	0.45477 0.19311 0.88267 1.06100
W 	W 	0.76752 0.42583 0.72429 1.03600
W 	W 	0.67021 0.05394 0.83172 0.99000
W 	W 	0.37832 0.33058 0.62255 1.01300
W 	W 	0.81331 0.13643 0.68721 1.00000
W 	W 	0.54985 0.49079 0.62414 1.03000
W 	W 	0.43288 0.12246 0.72360 1.04700
O 	O 	0.34960 0.64400 0.31840 -0.79000
Si	Si	0.39800 0.72890 0.27080 2.24600
O 	O 	0.30580 0.85980 0.36680 -0.48100
O 	O 	0.42630 0.88510 0.12050 -0.49400
O 	O 	0.47050 0.75070 0.06910 -0.46600
O 	O 	0.32200 0.58630 0.19660 -0.48100
O 	O 	0.64350 0.64380 0.28830 -0.48300
O 	O 	0.27580 0.74810 0.11750 -0.48600
O 	O 	0.47680 0.75890 0.31540 -0.80600
O 	O 	0.21710 0.91200 0.12590 -0.44500
O 	O 	0.34850 0.70290 0.44380 -0.49800
O 	O 	0.55060 0.72230 0.44450 -0.46400
O 	O 	0.52600 0.52790 0.28970 -0.48300
O 	O 	0.18630 0.74520 0.36670 -0.48100
O 	O 	0.22870 0.96440 0.23850 -0.43500
O 	O 	0.10670 0.84710 0.24020 -0.45000
O 	O 	0.63740 0.70430 0.14680 -0.46300
O 	O 	0.34900 0.53790 0.44220 -0.47800
O 	O 	0.18210 0.58210 0.36620 -0.45200
O 	O 	0.51420 0.58960 0.14610 -0.45500
O 	O 	0.30560 0.80380 0.24150 -0.81600
O 	O 	0.53670 0.58180 0.39770 -0.49100
O 	O 	0.16660 0.68430 0.23040 -0.48500
O 	O 	0.50230 0.88810 0.36500 -0.44000
O 	O 	0.44160 0.93660 0.23220 -0.48100
O 	O 	0.33490 0.48470 0.32940 -0.45300
O 	O 	0.65940 0.78580 0.33020 -0.46000
O 	O 	0.58930 0.83880 0.19540 -0.48700
O 	O 	0.46350 0.70780 0.20500 -0.78400
W 	W 	0.16891 0.80132 0.16670 0.99200
W 	W 	0.25346 0.63663 0.42267 1.03600
W 	W 	0.60425 0.59972 0.21845 1.01900
W 	W 	0.38649 0.66190 0.11766 1.01500
W 	W 	0.42397 0.79865 0.42166 1.00200
W 	W 	0.54523 0.80689 0.11733 1.06100
W 	W 	0.23248 0.57417 0.27571 1.03600
W 	W 	0.32979 0.94606 0.16828 0.99000
W 	W 	0.62168 0.66942 0.37745 1.01300
W 	W 	0.18669 0.86357 0.31279 1.00000
W 	W 	0.45015 0.50921 0.37586 1.03000
W 	W 	0.56712 0.87754 0.27640 1.04700
