data_crystal

_cell_length_a 7.66090
_cell_length_b 21.51800
_cell_length_c 12.25800
_cell_angle_alpha 90.00000
_cell_angle_beta  98.82000
_cell_angle_gamma 90.00000

_symmetry_space_group_name_	'P 1'
_symmetry_space_group_name_H-M	'P 1'

loop_
_symmetry_equiv_pos_as_xyz
  x,y,z

loop_
_atom_site_label
_atom_site_type_symbol
_atom_site_fract_x
_atom_site_fract_y
_atom_site_fract_z
_atom_site_charge
O 	O 	0.70800 0.68660 0.15360 -0.41300
O 	O 	0.73840 0.66570 0.32540 -0.41800
C 	C 	0.67000 0.65470 0.22870 0.34500
C 	C 	0.56800 0.54620 0.26880 -0.01900
H 	H 	0.63680 0.54830 0.33810 0.09100
O 	O 	0.70490 0.36700 0.55700 -0.27100
O 	O 	0.42660 0.38680 0.28440 -0.25300
O 	O 	0.97840 0.64840 0.60290 -0.25600
O 	O 	0.87660 0.32430 0.69760 -0.46800
O 	O 	0.78690 0.58900 0.49320 -0.46800
H 	H 	0.79810 0.61490 0.44560 0.30600
O 	O 	0.59350 0.44830 0.40260 -0.48500
H 	H 	0.59250 0.41860 0.44430 0.33400
C 	C 	0.81630 0.37070 0.64130 0.39200
N 	N 	0.16540 0.49350 0.93020 -0.08200
C 	C 	0.85910 0.48650 0.61740 0.00200
H 	H 	0.78960 0.48400 0.54840 0.08400
C 	C 	0.88770 0.43340 0.68260 -0.07900
C 	C 	0.90450 0.59960 0.58150 0.37100
C 	C 	0.03690 0.54780 0.75740 -0.06700
H 	H 	0.08920 0.58540 0.78140 0.09300
N 	N 	0.25040 0.54300 0.95690 -0.08500
C 	C 	0.49480 0.43630 0.30920 0.38300
C 	C 	0.06100 0.49550 0.82390 0.09000
C 	C 	0.93310 0.54310 0.65410 -0.03900
C 	C 	0.47600 0.49180 0.23490 -0.03600
C 	C 	0.98600 0.43890 0.78740 -0.03900
H 	H 	0.00170 0.40440 0.83360 0.05100
C 	C 	0.37000 0.48900 0.13240 -0.08200
H 	H 	0.30930 0.45260 0.11000 0.09200
C 	C 	0.35520 0.54000 0.06440 0.11100
C 	C 	0.45400 0.59430 0.09490 -0.08300
H 	H 	0.45040 0.62760 0.04620 0.09000
C 	C 	0.55590 0.59750 0.19810 -0.03400
O 	O 	0.29200 0.18660 0.84640 -0.41200
O 	O 	0.26160 0.16570 0.67460 -0.41800
C 	C 	0.33000 0.15470 0.77130 0.34500
C 	C 	0.43200 0.04620 0.73120 -0.01900
H 	H 	0.36320 0.04830 0.66190 0.09100
O 	O 	0.29510 0.86700 0.44300 -0.27200
O 	O 	0.57340 0.88680 0.71560 -0.25200
O 	O 	0.02160 0.14840 0.39710 -0.25700
O 	O 	0.12340 0.82430 0.30240 -0.46900
O 	O 	0.21310 0.08900 0.50680 -0.46800
H 	H 	0.20190 0.11490 0.55440 0.30600
O 	O 	0.40650 0.94830 0.59740 -0.48400
H 	H 	0.40750 0.91860 0.55570 0.33400
C 	C 	0.18370 0.87070 0.35870 0.39400
N 	N 	0.83460 0.99350 0.06980 -0.08200
C 	C 	0.14090 0.98650 0.38260 0.00800
H 	H 	0.21040 0.98400 0.45160 0.08200
C 	C 	0.11230 0.93340 0.31740 -0.08400
C 	C 	0.09550 0.09960 0.41850 0.37300
C 	C 	0.96310 0.04780 0.24260 -0.05800
H 	H 	0.91080 0.08540 0.21860 0.09000
N 	N 	0.74960 0.04300 0.04310 -0.08400
C 	C 	0.50520 0.93630 0.69080 0.38300
C 	C 	0.93900 0.99550 0.17610 0.08200
C 	C 	0.06690 0.04310 0.34590 -0.04600
C 	C 	0.52400 0.99180 0.76510 -0.03600
C 	C 	0.01400 0.93890 0.21260 -0.03100
H 	H 	0.99830 0.90440 0.16640 0.04800
C 	C 	0.63000 0.98900 0.86760 -0.08100
H 	H 	0.69070 0.95260 0.89000 0.09200
C 	C 	0.64480 0.04000 0.93560 0.11000
C 	C 	0.54600 0.09430 0.90510 -0.08300
H 	H 	0.54960 0.12760 0.95380 0.09000
C 	C 	0.44410 0.09750 0.80190 -0.03400
O 	O 	0.29200 0.31340 0.84640 -0.41200
O 	O 	0.26160 0.33430 0.67460 -0.41700
C 	C 	0.33000 0.34530 0.77130 0.34500
C 	C 	0.43200 0.45380 0.73120 -0.01900
H 	H 	0.36320 0.45170 0.66190 0.09100
O 	O 	0.29510 0.63300 0.44300 -0.27100
O 	O 	0.57340 0.61320 0.71560 -0.25300
O 	O 	0.02160 0.35160 0.39710 -0.25600
O 	O 	0.12340 0.67570 0.30240 -0.46800
O 	O 	0.21310 0.41100 0.50680 -0.46800
H 	H 	0.20190 0.38510 0.55440 0.30600
O 	O 	0.40650 0.55170 0.59740 -0.48500
H 	H 	0.40750 0.58140 0.55570 0.33400
C 	C 	0.18370 0.62930 0.35870 0.39200
N 	N 	0.83460 0.50650 0.06980 -0.08200
C 	C 	0.14090 0.51350 0.38260 0.00200
H 	H 	0.21040 0.51600 0.45160 0.08400
C 	C 	0.11230 0.56660 0.31740 -0.07900
C 	C 	0.09550 0.40040 0.41850 0.37100
C 	C 	0.96310 0.45220 0.24260 -0.06700
H 	H 	0.91080 0.41460 0.21860 0.09300
N 	N 	0.74960 0.45700 0.04310 -0.08500
C 	C 	0.50520 0.56370 0.69080 0.38300
C 	C 	0.93900 0.50450 0.17610 0.09000
C 	C 	0.06690 0.45690 0.34590 -0.03900
C 	C 	0.52400 0.50820 0.76510 -0.03600
C 	C 	0.01400 0.56110 0.21260 -0.03900
H 	H 	0.99830 0.59560 0.16640 0.05100
C 	C 	0.63000 0.51100 0.86760 -0.08200
H 	H 	0.69070 0.54740 0.89000 0.09200
C 	C 	0.64480 0.46000 0.93560 0.11100
C 	C 	0.54600 0.40570 0.90510 -0.08300
H 	H 	0.54960 0.37240 0.95380 0.09000
C 	C 	0.44410 0.40250 0.80190 -0.03400
O 	O 	0.70800 0.81340 0.15360 -0.41200
O 	O 	0.73840 0.83430 0.32540 -0.41800
C 	C 	0.67000 0.84530 0.22870 0.34500
C 	C 	0.56800 0.95380 0.26880 -0.01900
H 	H 	0.63680 0.95170 0.33810 0.09100
O 	O 	0.70490 0.13300 0.55700 -0.27200
O 	O 	0.42660 0.11320 0.28440 -0.25200
O 	O 	0.97840 0.85160 0.60290 -0.25700
O 	O 	0.87660 0.17570 0.69760 -0.46900
O 	O 	0.78690 0.91100 0.49320 -0.46800
H 	H 	0.79810 0.88510 0.44560 0.30600
O 	O 	0.59350 0.05170 0.40260 -0.48400
H 	H 	0.59250 0.08140 0.44430 0.33400
C 	C 	0.81630 0.12930 0.64130 0.39400
N 	N 	0.16540 0.00650 0.93020 -0.08200
C 	C 	0.85910 0.01350 0.61740 0.00800
H 	H 	0.78960 0.01600 0.54840 0.08200
C 	C 	0.88770 0.06660 0.68260 -0.08400
C 	C 	0.90450 0.90040 0.58150 0.37300
C 	C 	0.03690 0.95220 0.75740 -0.05800
H 	H 	0.08920 0.91460 0.78140 0.09000
N 	N 	0.25040 0.95700 0.95690 -0.08400
C 	C 	0.49480 0.06370 0.30920 0.38300
C 	C 	0.06100 0.00450 0.82390 0.08200
C 	C 	0.93310 0.95690 0.65410 -0.04600
C 	C 	0.47600 0.00820 0.23490 -0.03600
C 	C 	0.98600 0.06110 0.78740 -0.03100
H 	H 	0.00170 0.09560 0.83360 0.04800
C 	C 	0.37000 0.01100 0.13240 -0.08100
H 	H 	0.30930 0.04740 0.11000 0.09200
C 	C 	0.35520 0.96000 0.06440 0.11000
C 	C 	0.45400 0.90570 0.09490 -0.08300
H 	H 	0.45040 0.87240 0.04620 0.09000
C 	C 	0.55590 0.90250 0.19810 -0.03400
Ho	Ho	0.08415 0.25000 0.73279 1.68300
Ho	Ho	0.91585 0.75000 0.26721 1.68300
