data_crystal

_cell_length_a 12.31260
_cell_length_b 20.43300
_cell_length_c 23.89540
_cell_angle_alpha 90.00000
_cell_angle_beta  99.74070
_cell_angle_gamma 90.00000

_symmetry_space_group_name_	'P 1'
_symmetry_space_group_name_H-M	'P 1'

loop_
_symmetry_equiv_pos_as_xyz
  x,y,z

loop_
_atom_site_label
_atom_site_type_symbol
_atom_site_fract_x
_atom_site_fract_y
_atom_site_fract_z
_atom_site_charge
Ni	Ni	0.01099 0.65925 0.22055 1.03800
Ni	Ni	0.38578 0.83838 0.17416 1.06400
Cl	Cl	0.19491 0.84600 0.16343 -0.54900
N 	N 	0.87285 0.60893 0.23577 -0.17700
N 	N 	0.50590 0.90253 0.15677 -0.18000
N 	N 	0.51732 0.77440 0.19808 -0.22400
H 	H 	0.52480 0.74810 0.16370 0.05900
N 	N 	0.09833 0.57539 0.25540 -0.22300
H 	H 	0.09600 0.54280 0.22400 0.06000
N 	N 	0.99818 0.70716 0.30184 -0.20900
H 	H 	0.97950 0.75340 0.29040 0.06200
N 	N 	0.96173 0.62192 0.13597 -0.21700
H 	H 	0.91750 0.65820 0.11520 0.06500
N 	N 	0.39864 0.89280 0.25125 -0.20400
H 	H 	0.46840 0.87990 0.27660 0.06200
C 	C 	0.07790 0.66404 0.06914 0.10400
C 	C 	0.44380 0.66822 0.22893 0.10600
C 	C 	0.29820 0.59574 0.24872 0.10000
C 	C 	0.18890 0.74642 0.35064 0.10600
C 	C 	0.36480 0.65094 0.26157 -0.19600
H 	H 	0.35600 0.67720 0.29330 0.08400
N 	N 	0.35760 0.82445 0.08404 -0.21500
H 	H 	0.28640 0.84780 0.07100 0.08000
C 	C 	0.30010 0.83303 0.31948 0.12200
C 	C 	0.14010 0.77579 0.01486 -0.14800
H 	H 	0.16090 0.81370 0.99620 0.07100
C 	C 	0.07980 0.71454 0.35472 -0.15400
H 	H 	0.09520 0.67040 0.37130 0.05900
H 	H 	0.04470 0.74020 0.38190 0.07200
C 	C 	0.31300 0.55675 0.20290 -0.16600
H 	H 	0.26850 0.51900 0.19370 0.07100
C 	C 	0.87960 0.56923 0.13971 -0.08200
H 	H 	0.91750 0.52830 0.15410 0.03800
H 	H 	0.83580 0.56050 0.10180 0.04500
C 	C 	0.90810 0.54767 0.26794 -0.09600
H 	H 	0.89550 0.50990 0.24170 0.05100
H 	H 	0.86220 0.54140 0.29770 0.05600
N 	N 	0.92600 0.74645 0.18461 -0.31000
C 	C 	0.45820 0.62834 0.18346 -0.16600
H 	H 	0.51280 0.63900 0.16120 0.07200
C 	C 	0.21450 0.57821 0.28596 -0.15900
H 	H 	0.23420 0.53510 0.30370 0.06700
H 	H 	0.21910 0.61090 0.31690 0.05600
C 	C 	0.22040 0.73852 0.04892 0.11600
C 	C 	0.51670 0.72698 0.24540 -0.16100
H 	H 	0.49140 0.74970 0.27740 0.05500
H 	H 	0.59300 0.71170 0.25880 0.07100
C 	C 	0.39310 0.57304 0.17051 0.05900
H 	H 	0.40330 0.54620 0.13940 -0.00300
C 	C 	0.51400 0.95795 0.19811 -0.09200
H 	H 	0.51890 0.99980 0.17780 0.05300
H 	H 	0.58180 0.95310 0.22670 0.05100
C 	C 	0.20030 0.79962 0.31505 -0.19600
H 	H 	0.13930 0.81310 0.28760 0.08800
C 	C 	0.81580 0.65538 0.26848 -0.09900
H 	H 	0.75400 0.63280 0.28200 0.05300
H 	H 	0.78500 0.69190 0.24350 0.03800
C 	C 	0.28020 0.72591 0.38927 -0.16700
H 	H 	0.27410 0.68910 0.41280 0.07200
C 	C 	0.99940 0.70198 0.03486 -0.15000
H 	H 	0.92400 0.68960 0.02970 0.06900
C 	C 	0.03010 0.75762 0.00811 0.05300
H 	H 	0.97570 0.78330 0.98510 -0.00100
C 	C 	0.18850 0.68291 0.07595 -0.18400
H 	H 	0.24280 0.65750 0.09930 0.07900
C 	C 	0.91370 0.79236 0.15783 0.27200
C 	C 	0.89420 0.68222 0.31874 -0.07900
H 	H 	0.85780 0.71820 0.33620 0.04200
H 	H 	0.91240 0.64730 0.34750 0.04400
C 	C 	0.61240 0.86645 0.16329 -0.08800
H 	H 	0.67450 0.89750 0.17240 0.04400
H 	H 	0.61910 0.84400 0.12730 0.03800
C 	C 	0.04260 0.60404 0.09857 -0.15600
H 	H 	0.00890 0.57190 0.06980 0.07000
H 	H 	0.10800 0.58340 0.12160 0.05000
C 	C 	0.80530 0.59263 0.17997 -0.09300
H 	H 	0.76390 0.63180 0.16400 0.04000
H 	H 	0.75150 0.55800 0.18490 0.05100
C 	C 	0.38940 0.81273 0.35946 -0.17300
H 	H 	0.45720 0.83590 0.36340 0.07600
C 	C 	0.43940 0.86415 0.05963 -0.07700
H 	H 	0.40760 0.87810 0.02060 0.04000
H 	H 	0.50610 0.83770 0.05780 0.03700
C 	C 	0.33970 0.75905 0.05619 -0.14900
H 	H 	0.38590 0.72610 0.07950 0.05000
H 	H 	0.36300 0.76070 0.01850 0.06900
C 	C 	0.30860 0.89454 0.28559 -0.17000
H 	H 	0.23770 0.90170 0.25990 0.08900
H 	H 	0.32080 0.93220 0.31200 0.07500
C 	C 	0.61670 0.81686 0.21031 -0.08700
H 	H 	0.68410 0.78990 0.21270 0.04500
H 	H 	0.61850 0.83950 0.24710 0.03500
C 	C 	0.41420 0.95926 0.22780 -0.10000
H 	H 	0.42550 0.99180 0.25890 0.05700
H 	H 	0.34780 0.97190 0.20050 0.04000
C 	C 	0.46990 0.92395 0.09697 -0.09900
H 	H 	0.53020 0.94830 0.08360 0.05000
H 	H 	0.40550 0.95340 0.09460 0.03800
C 	C 	0.02880 0.54905 0.29549 -0.08200
H 	H 	0.03770 0.57670 0.33000 0.03500
H 	H 	0.05330 0.50420 0.30710 0.04200
C 	C 	0.90040 0.85210 0.12420 -0.68000
H 	H 	0.83470 0.84840 0.09470 0.20700
H 	H 	0.96550 0.85880 0.10620 0.23700
H 	H 	0.89190 0.88940 0.14880 0.21600
C 	C 	0.37990 0.75867 0.39374 0.06800
H 	H 	0.44160 0.74420 0.42020 -0.00700
Ni	Ni	0.98901 0.15925 0.27945 1.03700
Ni	Ni	0.61422 0.33838 0.32584 1.06300
Cl	Cl	0.80509 0.34600 0.33657 -0.54900
N 	N 	0.12715 0.10893 0.26423 -0.17800
N 	N 	0.49410 0.40253 0.34323 -0.18100
N 	N 	0.48268 0.27440 0.30192 -0.22500
H 	H 	0.47520 0.24810 0.33630 0.05800
N 	N 	0.90167 0.07539 0.24460 -0.22400
H 	H 	0.90400 0.04280 0.27600 0.05900
N 	N 	0.00182 0.20716 0.19816 -0.21000
H 	H 	0.02050 0.25340 0.20960 0.06100
N 	N 	0.03827 0.12192 0.36403 -0.21700
H 	H 	0.08250 0.15820 0.38480 0.06400
N 	N 	0.60136 0.39280 0.24875 -0.20500
H 	H 	0.53160 0.37990 0.22340 0.06100
C 	C 	0.92210 0.16404 0.43086 0.10200
C 	C 	0.55620 0.16822 0.27107 0.10500
C 	C 	0.70180 0.09574 0.25128 0.09900
C 	C 	0.81110 0.24642 0.14936 0.10600
C 	C 	0.63520 0.15094 0.23843 -0.19600
H 	H 	0.64400 0.17720 0.20670 0.08400
N 	N 	0.64240 0.32445 0.41596 -0.21500
H 	H 	0.71360 0.34780 0.42900 0.08000
C 	C 	0.69990 0.33303 0.18052 0.12200
C 	C 	0.85990 0.27579 0.48514 -0.14700
H 	H 	0.83910 0.31370 0.50380 0.07100
C 	C 	0.92020 0.21454 0.14528 -0.15400
H 	H 	0.90480 0.17040 0.12870 0.05900
H 	H 	0.95530 0.24020 0.11810 0.07200
C 	C 	0.68700 0.05675 0.29710 -0.16600
H 	H 	0.73150 0.01900 0.30630 0.07000
C 	C 	0.12040 0.06923 0.36029 -0.08300
H 	H 	0.08250 0.02830 0.34590 0.03900
H 	H 	0.16420 0.06050 0.39820 0.04500
C 	C 	0.09190 0.04767 0.23206 -0.09400
H 	H 	0.10450 0.00990 0.25830 0.05100
H 	H 	0.13780 0.04140 0.20230 0.05600
N 	N 	0.07400 0.24645 0.31539 -0.30900
C 	C 	0.54180 0.12834 0.31654 -0.16600
H 	H 	0.48720 0.13900 0.33880 0.07200
C 	C 	0.78550 0.07821 0.21404 -0.15900
H 	H 	0.76580 0.03510 0.19630 0.06700
H 	H 	0.78090 0.11090 0.18310 0.05600
C 	C 	0.77960 0.23852 0.45108 0.11600
C 	C 	0.48330 0.22698 0.25460 -0.16100
H 	H 	0.50860 0.24970 0.22260 0.05500
H 	H 	0.40700 0.21170 0.24120 0.07100
C 	C 	0.60690 0.07304 0.32949 0.05900
H 	H 	0.59670 0.04620 0.36060 -0.00300
C 	C 	0.48600 0.45795 0.30189 -0.09200
H 	H 	0.48110 0.49980 0.32220 0.05200
H 	H 	0.41820 0.45310 0.27330 0.05000
C 	C 	0.79970 0.29962 0.18495 -0.19600
H 	H 	0.86070 0.31310 0.21240 0.08800
C 	C 	0.18420 0.15538 0.23152 -0.09800
H 	H 	0.24600 0.13280 0.21800 0.05300
H 	H 	0.21500 0.19190 0.25650 0.03800
C 	C 	0.71980 0.22591 0.11073 -0.16700
H 	H 	0.72590 0.18910 0.08720 0.07200
C 	C 	0.00060 0.20198 0.46514 -0.14900
H 	H 	0.07600 0.18960 0.47030 0.06900
C 	C 	0.96990 0.25762 0.49189 0.05300
H 	H 	0.02430 0.28330 0.51490 -0.00100
C 	C 	0.81150 0.18291 0.42405 -0.18300
H 	H 	0.75720 0.15750 0.40070 0.07900
C 	C 	0.08630 0.29236 0.34217 0.27100
C 	C 	0.10580 0.18222 0.18126 -0.07900
H 	H 	0.14220 0.21820 0.16380 0.04100
H 	H 	0.08760 0.14730 0.15250 0.04400
C 	C 	0.38760 0.36645 0.33671 -0.08800
H 	H 	0.32550 0.39750 0.32760 0.04400
H 	H 	0.38090 0.34400 0.37270 0.03800
C 	C 	0.95740 0.10404 0.40143 -0.15600
H 	H 	0.99110 0.07190 0.43020 0.06900
H 	H 	0.89200 0.08340 0.37840 0.05000
C 	C 	0.19470 0.09263 0.32003 -0.09300
H 	H 	0.23610 0.13180 0.33600 0.03900
H 	H 	0.24850 0.05800 0.31510 0.05100
C 	C 	0.61060 0.31273 0.14054 -0.17300
H 	H 	0.54280 0.33590 0.13660 0.07600
C 	C 	0.56060 0.36415 0.44037 -0.07700
H 	H 	0.59240 0.37810 0.47940 0.04000
H 	H 	0.49390 0.33770 0.44220 0.03700
C 	C 	0.66030 0.25905 0.44381 -0.14900
H 	H 	0.61410 0.22610 0.42050 0.05000
H 	H 	0.63700 0.26070 0.48150 0.06900
C 	C 	0.69140 0.39454 0.21441 -0.17000
H 	H 	0.76230 0.40170 0.24010 0.08900
H 	H 	0.67920 0.43220 0.18800 0.07500
C 	C 	0.38330 0.31686 0.28969 -0.08700
H 	H 	0.31590 0.28990 0.28730 0.04500
H 	H 	0.38150 0.33950 0.25290 0.03500
C 	C 	0.58580 0.45926 0.27220 -0.10100
H 	H 	0.57450 0.49180 0.24110 0.05700
H 	H 	0.65220 0.47190 0.29950 0.04000
C 	C 	0.53010 0.42395 0.40303 -0.09900
H 	H 	0.46980 0.44830 0.41640 0.05000
H 	H 	0.59450 0.45340 0.40540 0.03800
C 	C 	0.97120 0.04905 0.20451 -0.08500
H 	H 	0.96230 0.07670 0.17000 0.03500
H 	H 	0.94670 0.00420 0.19290 0.04200
C 	C 	0.09960 0.35210 0.37580 -0.67900
H 	H 	0.16530 0.34840 0.40530 0.20600
H 	H 	0.03450 0.35880 0.39380 0.23600
H 	H 	0.10810 0.38940 0.35120 0.21500
C 	C 	0.62010 0.25867 0.10626 0.06800
H 	H 	0.55840 0.24420 0.07980 -0.00700
Ni	Ni	0.98901 0.34075 0.77945 1.03700
Ni	Ni	0.61422 0.16162 0.82584 1.06300
Cl	Cl	0.80509 0.15400 0.83657 -0.55000
N 	N 	0.12715 0.39107 0.76423 -0.17800
N 	N 	0.49410 0.09747 0.84323 -0.18100
N 	N 	0.48268 0.22560 0.80192 -0.22500
H 	H 	0.47520 0.25190 0.83630 0.05800
N 	N 	0.90167 0.42461 0.74460 -0.22400
H 	H 	0.90400 0.45720 0.77600 0.05900
N 	N 	0.00182 0.29284 0.69816 -0.21000
H 	H 	0.02050 0.24660 0.70960 0.06100
N 	N 	0.03827 0.37808 0.86403 -0.21800
H 	H 	0.08250 0.34180 0.88480 0.06400
N 	N 	0.60136 0.10720 0.74875 -0.20500
H 	H 	0.53160 0.12010 0.72340 0.06100
C 	C 	0.92210 0.33596 0.93086 0.10300
C 	C 	0.55620 0.33178 0.77107 0.10500
C 	C 	0.70180 0.40426 0.75128 0.09900
C 	C 	0.81110 0.25358 0.64936 0.10600
C 	C 	0.63520 0.34906 0.73843 -0.19600
H 	H 	0.64400 0.32280 0.70670 0.08400
N 	N 	0.64240 0.17555 0.91596 -0.21500
H 	H 	0.71360 0.15220 0.92900 0.08000
C 	C 	0.69990 0.16697 0.68052 0.12200
C 	C 	0.85990 0.22421 0.98514 -0.14800
H 	H 	0.83910 0.18630 0.00380 0.07100
C 	C 	0.92020 0.28546 0.64528 -0.15400
H 	H 	0.90480 0.32960 0.62870 0.05900
H 	H 	0.95530 0.25980 0.61810 0.07200
C 	C 	0.68700 0.44325 0.79710 -0.16600
H 	H 	0.73150 0.48100 0.80630 0.07100
C 	C 	0.12040 0.43077 0.86029 -0.08200
H 	H 	0.08250 0.47170 0.84590 0.03800
H 	H 	0.16420 0.43950 0.89820 0.04500
C 	C 	0.09190 0.45233 0.73206 -0.09600
H 	H 	0.10450 0.49010 0.75830 0.05100
H 	H 	0.13780 0.45860 0.70230 0.05600
N 	N 	0.07400 0.25355 0.81539 -0.31000
C 	C 	0.54180 0.37166 0.81654 -0.16600
H 	H 	0.48720 0.36100 0.83880 0.07200
C 	C 	0.78550 0.42179 0.71404 -0.15900
H 	H 	0.76580 0.46490 0.69630 0.06700
H 	H 	0.78090 0.38910 0.68310 0.05600
C 	C 	0.77960 0.26148 0.95108 0.11600
C 	C 	0.48330 0.27302 0.75460 -0.16100
H 	H 	0.50860 0.25030 0.72260 0.05500
H 	H 	0.40700 0.28830 0.74120 0.07100
C 	C 	0.60690 0.42696 0.82949 0.05900
H 	H 	0.59670 0.45380 0.86060 -0.00300
C 	C 	0.48600 0.04205 0.80189 -0.09200
H 	H 	0.48110 0.00020 0.82220 0.05300
H 	H 	0.41820 0.04690 0.77330 0.05100
C 	C 	0.79970 0.20038 0.68495 -0.19600
H 	H 	0.86070 0.18690 0.71240 0.08800
C 	C 	0.18420 0.34462 0.73152 -0.09900
H 	H 	0.24600 0.36720 0.71800 0.05300
H 	H 	0.21500 0.30810 0.75650 0.03800
C 	C 	0.71980 0.27409 0.61073 -0.16700
H 	H 	0.72590 0.31090 0.58720 0.07200
C 	C 	0.00060 0.29802 0.96514 -0.15000
H 	H 	0.07600 0.31040 0.97030 0.06900
C 	C 	0.96990 0.24238 0.99189 0.05300
H 	H 	0.02430 0.21670 0.01490 -0.00100
C 	C 	0.81150 0.31709 0.92405 -0.18400
H 	H 	0.75720 0.34250 0.90070 0.07900
C 	C 	0.08630 0.20764 0.84217 0.27200
C 	C 	0.10580 0.31778 0.68126 -0.07900
H 	H 	0.14220 0.28180 0.66380 0.04200
H 	H 	0.08760 0.35270 0.65250 0.04400
C 	C 	0.38760 0.13355 0.83671 -0.08800
H 	H 	0.32550 0.10250 0.82760 0.04400
H 	H 	0.38090 0.15600 0.87270 0.03800
C 	C 	0.95740 0.39596 0.90143 -0.15600
H 	H 	0.99110 0.42810 0.93020 0.07000
H 	H 	0.89200 0.41660 0.87840 0.05000
C 	C 	0.19470 0.40737 0.82003 -0.09300
H 	H 	0.23610 0.36820 0.83600 0.04000
H 	H 	0.24850 0.44200 0.81510 0.05100
C 	C 	0.61060 0.18727 0.64054 -0.17300
H 	H 	0.54280 0.16410 0.63660 0.07600
C 	C 	0.56060 0.13585 0.94037 -0.07700
H 	H 	0.59240 0.12190 0.97940 0.04000
H 	H 	0.49390 0.16230 0.94220 0.03700
C 	C 	0.66030 0.24095 0.94381 -0.14900
H 	H 	0.61410 0.27390 0.92050 0.05000
H 	H 	0.63700 0.23930 0.98150 0.06900
C 	C 	0.69140 0.10546 0.71441 -0.17000
H 	H 	0.76230 0.09830 0.74010 0.08900
H 	H 	0.67920 0.06780 0.68800 0.07500
C 	C 	0.38330 0.18314 0.78969 -0.08700
H 	H 	0.31590 0.21010 0.78730 0.04500
H 	H 	0.38150 0.16050 0.75290 0.03500
C 	C 	0.58580 0.04074 0.77220 -0.10000
H 	H 	0.57450 0.00820 0.74110 0.05700
H 	H 	0.65220 0.02810 0.79950 0.04000
C 	C 	0.53010 0.07605 0.90303 -0.09900
H 	H 	0.46980 0.05170 0.91640 0.05000
H 	H 	0.59450 0.04660 0.90540 0.03800
C 	C 	0.97120 0.45095 0.70451 -0.08200
H 	H 	0.96230 0.42330 0.67000 0.03500
H 	H 	0.94670 0.49580 0.69290 0.04200
C 	C 	0.09960 0.14790 0.87580 -0.68000
H 	H 	0.16530 0.15160 0.90530 0.20700
H 	H 	0.03450 0.14120 0.89380 0.23700
H 	H 	0.10810 0.11060 0.85120 0.21600
C 	C 	0.62010 0.24133 0.60626 0.06800
H 	H 	0.55840 0.25580 0.57980 -0.00700
Ni	Ni	0.01099 0.84075 0.72055 1.03700
Ni	Ni	0.38578 0.66162 0.67416 1.06300
Cl	Cl	0.19491 0.65400 0.66343 -0.54900
N 	N 	0.87285 0.89107 0.73577 -0.17800
N 	N 	0.50590 0.59747 0.65677 -0.18100
N 	N 	0.51732 0.72560 0.69808 -0.22500
H 	H 	0.52480 0.75190 0.66370 0.05800
N 	N 	0.09833 0.92461 0.75540 -0.22400
H 	H 	0.09600 0.95720 0.72400 0.05900
N 	N 	0.99818 0.79284 0.80184 -0.21000
H 	H 	0.97950 0.74660 0.79040 0.06100
N 	N 	0.96173 0.87808 0.63597 -0.21700
H 	H 	0.91750 0.84180 0.61520 0.06400
N 	N 	0.39864 0.60720 0.75125 -0.20500
H 	H 	0.46840 0.62010 0.77660 0.06100
C 	C 	0.07790 0.83596 0.56914 0.10200
C 	C 	0.44380 0.83178 0.72893 0.10500
C 	C 	0.29820 0.90426 0.74872 0.09900
C 	C 	0.18890 0.75358 0.85064 0.10600
C 	C 	0.36480 0.84906 0.76157 -0.19600
H 	H 	0.35600 0.82280 0.79330 0.08400
N 	N 	0.35760 0.67555 0.58404 -0.21500
H 	H 	0.28640 0.65220 0.57100 0.08000
C 	C 	0.30010 0.66697 0.81948 0.12200
C 	C 	0.14010 0.72421 0.51486 -0.14700
H 	H 	0.16090 0.68630 0.49620 0.07100
C 	C 	0.07980 0.78546 0.85472 -0.15400
H 	H 	0.09520 0.82960 0.87130 0.05900
H 	H 	0.04470 0.75980 0.88190 0.07200
C 	C 	0.31300 0.94325 0.70290 -0.16600
H 	H 	0.26850 0.98100 0.69370 0.07000
C 	C 	0.87960 0.93077 0.63971 -0.08300
H 	H 	0.91750 0.97170 0.65410 0.03900
H 	H 	0.83580 0.93950 0.60180 0.04500
C 	C 	0.90810 0.95233 0.76794 -0.09400
H 	H 	0.89550 0.99010 0.74170 0.05100
H 	H 	0.86220 0.95860 0.79770 0.05600
N 	N 	0.92600 0.75355 0.68461 -0.30900
C 	C 	0.45820 0.87166 0.68346 -0.16600
H 	H 	0.51280 0.86100 0.66120 0.07200
C 	C 	0.21450 0.92179 0.78596 -0.15900
H 	H 	0.23420 0.96490 0.80370 0.06700
H 	H 	0.21910 0.88910 0.81690 0.05600
C 	C 	0.22040 0.76148 0.54892 0.11600
C 	C 	0.51670 0.77302 0.74540 -0.16100
H 	H 	0.49140 0.75030 0.77740 0.05500
H 	H 	0.59300 0.78830 0.75880 0.07100
C 	C 	0.39310 0.92696 0.67051 0.05900
H 	H 	0.40330 0.95380 0.63940 -0.00300
C 	C 	0.51400 0.54205 0.69811 -0.09200
H 	H 	0.51890 0.50020 0.67780 0.05200
H 	H 	0.58180 0.54690 0.72670 0.05000
C 	C 	0.20030 0.70038 0.81505 -0.19600
H 	H 	0.13930 0.68690 0.78760 0.08800
C 	C 	0.81580 0.84462 0.76848 -0.09800
H 	H 	0.75400 0.86720 0.78200 0.05300
H 	H 	0.78500 0.80810 0.74350 0.03800
C 	C 	0.28020 0.77409 0.88927 -0.16700
H 	H 	0.27410 0.81090 0.91280 0.07200
C 	C 	0.99940 0.79802 0.53486 -0.14900
H 	H 	0.92400 0.81040 0.52970 0.06900
C 	C 	0.03010 0.74238 0.50811 0.05300
H 	H 	0.97570 0.71670 0.48510 -0.00100
C 	C 	0.18850 0.81709 0.57595 -0.18300
H 	H 	0.24280 0.84250 0.59930 0.07900
C 	C 	0.91370 0.70764 0.65783 0.27100
C 	C 	0.89420 0.81778 0.81874 -0.07900
H 	H 	0.85780 0.78180 0.83620 0.04100
H 	H 	0.91240 0.85270 0.84750 0.04400
C 	C 	0.61240 0.63355 0.66329 -0.08800
H 	H 	0.67450 0.60250 0.67240 0.04400
H 	H 	0.61910 0.65600 0.62730 0.03800
C 	C 	0.04260 0.89596 0.59857 -0.15600
H 	H 	0.00890 0.92810 0.56980 0.06900
H 	H 	0.10800 0.91660 0.62160 0.05000
C 	C 	0.80530 0.90737 0.67997 -0.09300
H 	H 	0.76390 0.86820 0.66400 0.03900
H 	H 	0.75150 0.94200 0.68490 0.05100
C 	C 	0.38940 0.68727 0.85946 -0.17300
H 	H 	0.45720 0.66410 0.86340 0.07600
C 	C 	0.43940 0.63585 0.55963 -0.07700
H 	H 	0.40760 0.62190 0.52060 0.04000
H 	H 	0.50610 0.66230 0.55780 0.03700
C 	C 	0.33970 0.74095 0.55619 -0.14900
H 	H 	0.38590 0.77390 0.57950 0.05000
H 	H 	0.36300 0.73930 0.51850 0.06900
C 	C 	0.30860 0.60546 0.78559 -0.17000
H 	H 	0.23770 0.59830 0.75990 0.08900
H 	H 	0.32080 0.56780 0.81200 0.07500
C 	C 	0.61670 0.68314 0.71031 -0.08700
H 	H 	0.68410 0.71010 0.71270 0.04500
H 	H 	0.61850 0.66050 0.74710 0.03500
C 	C 	0.41420 0.54074 0.72780 -0.10100
H 	H 	0.42550 0.50820 0.75890 0.05700
H 	H 	0.34780 0.52810 0.70050 0.04000
C 	C 	0.46990 0.57605 0.59697 -0.09900
H 	H 	0.53020 0.55170 0.58360 0.05000
H 	H 	0.40550 0.54660 0.59460 0.03800
C 	C 	0.02880 0.95095 0.79549 -0.08500
H 	H 	0.03770 0.92330 0.83000 0.03500
H 	H 	0.05330 0.99580 0.80710 0.04200
C 	C 	0.90040 0.64790 0.62420 -0.67900
H 	H 	0.83470 0.65160 0.59470 0.20600
H 	H 	0.96550 0.64120 0.60620 0.23600
H 	H 	0.89190 0.61060 0.64880 0.21500
C 	C 	0.37990 0.74133 0.89374 0.06800
H 	H 	0.44160 0.75580 0.92020 -0.00700
