data_crystal

_cell_length_a 29.99700
_cell_length_b 12.85960
_cell_length_c 12.81880
_cell_angle_alpha 90.00000
_cell_angle_beta  90.00000
_cell_angle_gamma 90.00000

_symmetry_space_group_name_	'P 1'
_symmetry_space_group_name_H-M	'P 1'

loop_
_symmetry_equiv_pos_as_xyz
  x,y,z

loop_
_atom_site_label
_atom_site_type_symbol
_atom_site_fract_x
_atom_site_fract_y
_atom_site_fract_z
_atom_site_charge
C 	C 	0.42100 0.93000 0.56000 -0.03200
C 	C 	0.41700 0.83000 0.62000 0.14000
C 	C 	0.39700 0.02000 0.59000 0.02500
C 	C 	0.44800 0.93000 0.47000 0.01800
N 	N 	0.38900 0.82000 0.70000 -0.12900
N 	N 	0.42600 0.74000 0.56400 -0.12500
C 	C 	0.40100 0.11000 0.53000 0.03400
C 	C 	0.45100 0.03000 0.42000 0.02800
C 	C 	0.36900 0.73000 0.73000 0.12900
C 	C 	0.40600 0.64000 0.59000 0.12800
N 	N 	0.42900 0.11000 0.45000 -0.24000
C 	C 	0.33700 0.73000 0.82000 -0.04400
N 	N 	0.37700 0.64000 0.67000 -0.13300
C 	C 	0.41700 0.55000 0.53000 -0.03500
Zn	Zn	0.42350 0.23600 0.33900 1.18100
C 	C 	0.33600 0.82000 0.89000 0.03100
C 	C 	0.31700 0.64000 0.86000 0.02900
C 	C 	0.45800 0.54000 0.48000 0.00900
C 	C 	0.38500 0.47000 0.53000 0.03700
Br	Br	0.49560 0.24500 0.22200 -0.40800
Br	Br	0.35640 0.27300 0.26500 -0.44000
C 	C 	0.31600 0.82000 0.98000 0.02400
C 	C 	0.29700 0.64000 0.96000 0.04100
C 	C 	0.46500 0.45000 0.42000 0.06200
C 	C 	0.39400 0.38000 0.47000 -0.01400
N 	N 	0.29700 0.73000 0.02100 -0.27400
N 	N 	0.43300 0.38000 0.41000 -0.23300
Br	Br	0.24900 0.90800 0.18900 -0.42900
C 	C 	0.07900 0.57000 0.56000 -0.03100
C 	C 	0.08300 0.67000 0.62000 0.14100
C 	C 	0.10300 0.48000 0.59000 0.02600
C 	C 	0.05200 0.57000 0.47000 0.01900
N 	N 	0.11100 0.68000 0.70000 -0.12800
N 	N 	0.07400 0.76000 0.56400 -0.12400
C 	C 	0.09900 0.39000 0.53000 0.03500
C 	C 	0.04900 0.47000 0.42000 0.03000
C 	C 	0.13100 0.77000 0.73000 0.13000
C 	C 	0.09400 0.86000 0.59000 0.12900
N 	N 	0.07100 0.39000 0.45000 -0.23900
C 	C 	0.16300 0.77000 0.82000 -0.04300
N 	N 	0.12300 0.86000 0.67000 -0.13300
C 	C 	0.08300 0.95000 0.53000 -0.03500
Zn	Zn	0.07650 0.26400 0.33900 1.18100
C 	C 	0.16400 0.68000 0.89000 0.03100
C 	C 	0.18300 0.86000 0.86000 0.02900
C 	C 	0.04200 0.96000 0.48000 0.00900
C 	C 	0.11500 0.03000 0.53000 0.03700
Br	Br	0.00440 0.25500 0.22200 -0.40800
Br	Br	0.14360 0.22700 0.26500 -0.44000
C 	C 	0.18400 0.68000 0.98000 0.02400
C 	C 	0.20300 0.86000 0.96000 0.04100
C 	C 	0.03500 0.05000 0.42000 0.06200
C 	C 	0.10600 0.12000 0.47000 -0.01400
N 	N 	0.20300 0.77000 0.02100 -0.27400
N 	N 	0.06700 0.12000 0.41000 -0.23300
Br	Br	0.25100 0.59200 0.18900 -0.42900
Zn	Zn	0.25000 0.75000 0.10800 1.21700
C 	C 	0.57900 0.43000 0.94000 -0.03100
C 	C 	0.58300 0.33000 0.88000 0.14100
C 	C 	0.60300 0.52000 0.91000 0.02600
C 	C 	0.55200 0.43000 0.03000 0.01900
N 	N 	0.61100 0.32000 0.80000 -0.12800
N 	N 	0.57400 0.24000 0.93600 -0.12300
C 	C 	0.59900 0.61000 0.97000 0.03500
C 	C 	0.54900 0.53000 0.08000 0.03000
C 	C 	0.63100 0.23000 0.77000 0.13000
C 	C 	0.59400 0.14000 0.91000 0.12900
N 	N 	0.57100 0.61000 0.05000 -0.23900
C 	C 	0.66300 0.23000 0.68000 -0.04300
N 	N 	0.62300 0.14000 0.83000 -0.13300
C 	C 	0.58300 0.05000 0.97000 -0.03400
Zn	Zn	0.57650 0.73600 0.16100 1.18100
C 	C 	0.66400 0.32000 0.61000 0.03100
C 	C 	0.68300 0.14000 0.64000 0.02900
C 	C 	0.54200 0.04000 0.02000 0.00800
C 	C 	0.61500 0.97000 0.97000 0.03700
Br	Br	0.50440 0.74500 0.27800 -0.40800
Br	Br	0.64360 0.77300 0.23500 -0.44000
C 	C 	0.68400 0.32000 0.52000 0.02400
C 	C 	0.70300 0.14000 0.54000 0.04100
C 	C 	0.53500 0.95000 0.08000 0.06300
C 	C 	0.60600 0.88000 0.03000 -0.01400
N 	N 	0.70300 0.23000 0.47900 -0.27400
N 	N 	0.56700 0.88000 0.09000 -0.23300
Br	Br	0.75100 0.40800 0.31100 -0.42900
C 	C 	0.92100 0.07000 0.94000 -0.03000
C 	C 	0.91700 0.17000 0.88000 0.14100
C 	C 	0.89700 0.98000 0.91000 0.02600
C 	C 	0.94800 0.07000 0.03000 0.01800
N 	N 	0.88900 0.18000 0.80000 -0.12800
N 	N 	0.92600 0.26000 0.93600 -0.12300
C 	C 	0.90100 0.89000 0.97000 0.03500
C 	C 	0.95100 0.97000 0.08000 0.03000
C 	C 	0.86900 0.27000 0.77000 0.13000
C 	C 	0.90600 0.36000 0.91000 0.12900
N 	N 	0.92900 0.89000 0.05000 -0.23900
C 	C 	0.83700 0.27000 0.68000 -0.04300
N 	N 	0.87700 0.36000 0.83000 -0.13300
C 	C 	0.91700 0.45000 0.97000 -0.03500
Zn	Zn	0.92350 0.76400 0.16100 1.18100
C 	C 	0.83600 0.18000 0.61000 0.03100
C 	C 	0.81700 0.36000 0.64000 0.02900
C 	C 	0.95800 0.46000 0.02000 0.00800
C 	C 	0.88500 0.53000 0.97000 0.03800
Br	Br	0.99560 0.75500 0.27800 -0.40900
Br	Br	0.85640 0.72700 0.23500 -0.44000
C 	C 	0.81600 0.18000 0.52000 0.02400
C 	C 	0.79700 0.36000 0.54000 0.04100
C 	C 	0.96500 0.55000 0.08000 0.06200
C 	C 	0.89400 0.62000 0.03000 -0.01500
N 	N 	0.79700 0.27000 0.47900 -0.27400
N 	N 	0.93300 0.62000 0.09000 -0.23300
Br	Br	0.74900 0.09200 0.31100 -0.42900
Zn	Zn	0.75000 0.25000 0.39200 1.21700
C 	C 	0.57900 0.07000 0.44000 -0.03100
C 	C 	0.58300 0.17000 0.38000 0.14100
C 	C 	0.60300 0.98000 0.41000 0.02600
C 	C 	0.55200 0.07000 0.53000 0.01900
N 	N 	0.61100 0.18000 0.30000 -0.12800
N 	N 	0.57400 0.26000 0.43600 -0.12400
C 	C 	0.59900 0.89000 0.47000 0.03500
C 	C 	0.54900 0.97000 0.58000 0.02900
C 	C 	0.63100 0.27000 0.27000 0.13000
C 	C 	0.59400 0.36000 0.41000 0.12900
N 	N 	0.57100 0.89000 0.55000 -0.23900
C 	C 	0.66300 0.27000 0.18000 -0.04300
N 	N 	0.62300 0.36000 0.33000 -0.13300
C 	C 	0.58300 0.45000 0.47000 -0.03500
Zn	Zn	0.57650 0.76400 0.66100 1.18100
C 	C 	0.66400 0.18000 0.11000 0.03100
C 	C 	0.68300 0.36000 0.14000 0.02900
C 	C 	0.54200 0.46000 0.52000 0.00900
C 	C 	0.61500 0.53000 0.47000 0.03700
Br	Br	0.50440 0.75500 0.77800 -0.40800
Br	Br	0.64360 0.72700 0.73500 -0.44000
C 	C 	0.68400 0.18000 0.02000 0.02400
C 	C 	0.70300 0.36000 0.04000 0.04100
C 	C 	0.53500 0.55000 0.58000 0.06200
C 	C 	0.60600 0.62000 0.53000 -0.01400
N 	N 	0.70300 0.27000 0.97900 -0.27400
N 	N 	0.56700 0.62000 0.59000 -0.23300
Br	Br	0.75100 0.09200 0.81100 -0.42900
C 	C 	0.92100 0.43000 0.44000 -0.03100
C 	C 	0.91700 0.33000 0.38000 0.14100
C 	C 	0.89700 0.52000 0.41000 0.02600
C 	C 	0.94800 0.43000 0.53000 0.01900
N 	N 	0.88900 0.32000 0.30000 -0.12800
N 	N 	0.92600 0.24000 0.43600 -0.12400
C 	C 	0.90100 0.61000 0.47000 0.03500
C 	C 	0.95100 0.53000 0.58000 0.03000
C 	C 	0.86900 0.23000 0.27000 0.13000
C 	C 	0.90600 0.14000 0.41000 0.12900
N 	N 	0.92900 0.61000 0.55000 -0.23900
C 	C 	0.83700 0.23000 0.18000 -0.04300
N 	N 	0.87700 0.14000 0.33000 -0.13300
C 	C 	0.91700 0.05000 0.47000 -0.03500
Zn	Zn	0.92350 0.73600 0.66100 1.18100
C 	C 	0.83600 0.32000 0.11000 0.03100
C 	C 	0.81700 0.14000 0.14000 0.02900
C 	C 	0.95800 0.04000 0.52000 0.00900
C 	C 	0.88500 0.97000 0.47000 0.03700
Br	Br	0.99560 0.74500 0.77800 -0.40800
Br	Br	0.85640 0.77300 0.73500 -0.44000
C 	C 	0.81600 0.32000 0.02000 0.02400
C 	C 	0.79700 0.14000 0.04000 0.04100
C 	C 	0.96500 0.95000 0.58000 0.06200
C 	C 	0.89400 0.88000 0.53000 -0.01400
N 	N 	0.79700 0.23000 0.97900 -0.27400
N 	N 	0.93300 0.88000 0.59000 -0.23300
Br	Br	0.74900 0.40800 0.81100 -0.42900
Zn	Zn	0.75000 0.25000 0.89200 1.21700
C 	C 	0.42100 0.57000 0.06000 -0.03100
C 	C 	0.41700 0.67000 0.12000 0.14100
C 	C 	0.39700 0.48000 0.09000 0.02600
C 	C 	0.44800 0.57000 0.97000 0.01900
N 	N 	0.38900 0.68000 0.20000 -0.12800
N 	N 	0.42600 0.76000 0.06400 -0.12300
C 	C 	0.40100 0.39000 0.03000 0.03500
C 	C 	0.45100 0.47000 0.92000 0.03000
C 	C 	0.36900 0.77000 0.23000 0.13000
C 	C 	0.40600 0.86000 0.09000 0.12900
N 	N 	0.42900 0.39000 0.95000 -0.23900
C 	C 	0.33700 0.77000 0.32000 -0.04300
N 	N 	0.37700 0.86000 0.17000 -0.13300
C 	C 	0.41700 0.95000 0.03000 -0.03400
Zn	Zn	0.42350 0.26400 0.83900 1.18100
C 	C 	0.33600 0.68000 0.39000 0.03100
C 	C 	0.31700 0.86000 0.36000 0.02900
C 	C 	0.45800 0.96000 0.98000 0.00800
C 	C 	0.38500 0.03000 0.03000 0.03700
Br	Br	0.49560 0.25500 0.72200 -0.40800
Br	Br	0.35640 0.22700 0.76500 -0.44000
C 	C 	0.31600 0.68000 0.48000 0.02400
C 	C 	0.29700 0.86000 0.46000 0.04100
C 	C 	0.46500 0.05000 0.92000 0.06300
C 	C 	0.39400 0.12000 0.97000 -0.01400
N 	N 	0.29700 0.77000 0.52100 -0.27400
N 	N 	0.43300 0.12000 0.91000 -0.23300
Br	Br	0.24900 0.59200 0.68900 -0.42900
C 	C 	0.07900 0.93000 0.06000 -0.03000
C 	C 	0.08300 0.83000 0.12000 0.14100
C 	C 	0.10300 0.02000 0.09000 0.02600
C 	C 	0.05200 0.93000 0.97000 0.01800
N 	N 	0.11100 0.82000 0.20000 -0.12800
N 	N 	0.07400 0.74000 0.06400 -0.12300
C 	C 	0.09900 0.11000 0.03000 0.03500
C 	C 	0.04900 0.03000 0.92000 0.03000
C 	C 	0.13100 0.73000 0.23000 0.13000
C 	C 	0.09400 0.64000 0.09000 0.12900
N 	N 	0.07100 0.11000 0.95000 -0.23900
C 	C 	0.16300 0.73000 0.32000 -0.04300
N 	N 	0.12300 0.64000 0.17000 -0.13300
C 	C 	0.08300 0.55000 0.03000 -0.03500
Zn	Zn	0.07650 0.23600 0.83900 1.18100
C 	C 	0.16400 0.82000 0.39000 0.03100
C 	C 	0.18300 0.64000 0.36000 0.02900
C 	C 	0.04200 0.54000 0.98000 0.00800
C 	C 	0.11500 0.47000 0.03000 0.03800
Br	Br	0.00440 0.24500 0.72200 -0.40900
Br	Br	0.14360 0.27300 0.76500 -0.44000
C 	C 	0.18400 0.82000 0.48000 0.02400
C 	C 	0.20300 0.64000 0.46000 0.04100
C 	C 	0.03500 0.45000 0.92000 0.06200
C 	C 	0.10600 0.38000 0.97000 -0.01500
N 	N 	0.20300 0.73000 0.52100 -0.27400
N 	N 	0.06700 0.38000 0.91000 -0.23300
Br	Br	0.25100 0.90800 0.68900 -0.42900
Zn	Zn	0.25000 0.75000 0.60800 1.21700
