data_crystal

_cell_length_a 12.70300
_cell_length_b 9.44400
_cell_length_c 29.40100
_cell_angle_alpha 90.00000
_cell_angle_beta  90.00000
_cell_angle_gamma 90.00000

_symmetry_space_group_name_	'P 1'
_symmetry_space_group_name_H-M	'P 1'

loop_
_symmetry_equiv_pos_as_xyz
  x,y,z

loop_
_atom_site_label
_atom_site_type_symbol
_atom_site_fract_x
_atom_site_fract_y
_atom_site_fract_z
_atom_site_charge
Cd	Cd	0.09193 0.03113 0.28436 1.17500
O 	O 	0.81720 0.44120 0.87624 -0.28500
O 	O 	0.95480 0.48130 0.92102 -0.49000
H 	H 	0.97850 0.51790 0.89790 0.31600
O 	O 	0.86050 0.28870 0.07311 -0.28100
O 	O 	0.12990 0.76730 0.30471 -0.40800
O 	O 	0.03650 0.90990 0.34730 -0.43600
O 	O 	0.08680 0.14510 0.21203 -0.39200
O 	O 	0.02240 0.92940 0.21650 -0.39600
C 	C 	0.81120 0.28990 0.03030 0.25200
C 	C 	0.85950 0.35740 0.99503 -0.19900
H 	H 	0.92540 0.39820 0.99900 0.13500
C 	C 	0.80970 0.36490 0.95305 0.02800
C 	C 	0.85930 0.43320 0.91286 0.33600
C 	C 	0.71080 0.30350 0.94768 -0.13300
H 	H 	0.67700 0.30730 0.91970 0.10200
C 	C 	0.66350 0.23750 0.98374 0.11000
H 	H 	0.59690 0.19810 0.98020 0.01000
C 	C 	0.71370 0.22880 0.02535 -0.24200
H 	H 	0.68200 0.18220 0.04960 0.12700
C 	C 	0.91590 0.16840 0.08538 0.21900
C 	C 	0.95200 0.16730 0.13016 -0.14400
C 	C 	0.07430 0.78860 0.33843 0.37800
C 	C 	0.00670 0.04840 0.14583 -0.01400
C 	C 	0.04180 0.04080 0.19463 0.27400
C 	C 	0.02570 0.93500 0.11722 -0.06100
H 	H 	0.06110 0.85550 0.12790 0.05800
C 	C 	0.99150 0.94050 0.07241 0.02500
H 	H 	0.00730 0.86630 0.05280 0.03100
C 	C 	0.93390 0.05560 0.05652 -0.18800
H 	H 	0.90800 0.05660 0.02690 0.10600
Cd	Cd	0.90807 0.53113 0.21564 1.18000
O 	O 	0.18280 0.94120 0.62376 -0.28600
O 	O 	0.04520 0.98130 0.57898 -0.48500
H 	H 	0.02150 0.01790 0.60210 0.31200
O 	O 	0.13950 0.78870 0.42689 -0.28500
O 	O 	0.87010 0.26730 0.19529 -0.40900
O 	O 	0.96350 0.40990 0.15270 -0.44000
O 	O 	0.91320 0.64510 0.28797 -0.39200
O 	O 	0.97760 0.42940 0.28350 -0.40800
C 	C 	0.18880 0.78990 0.46970 0.25600
C 	C 	0.14050 0.85740 0.50497 -0.20200
H 	H 	0.07460 0.89820 0.50100 0.13700
C 	C 	0.19030 0.86490 0.54695 0.03000
C 	C 	0.14070 0.93320 0.58714 0.33400
C 	C 	0.28920 0.80350 0.55232 -0.13600
H 	H 	0.32300 0.80730 0.58030 0.10200
C 	C 	0.33650 0.73750 0.51626 0.11200
H 	H 	0.40310 0.69810 0.51980 0.00900
C 	C 	0.28630 0.72880 0.47465 -0.24400
H 	H 	0.31800 0.68220 0.45040 0.12800
C 	C 	0.08410 0.66840 0.41462 0.24000
C 	C 	0.04800 0.66730 0.36984 -0.16500
C 	C 	0.92570 0.28860 0.16157 0.37200
C 	C 	0.99330 0.54840 0.35417 0.02100
C 	C 	0.95820 0.54080 0.30537 0.28000
C 	C 	0.97430 0.43500 0.38278 -0.11900
H 	H 	0.93890 0.35550 0.37210 0.07600
C 	C 	0.00850 0.44050 0.42759 0.08000
H 	H 	0.99270 0.36630 0.44720 0.00800
C 	C 	0.06610 0.55560 0.44348 -0.22600
H 	H 	0.09200 0.55660 0.47310 0.11800
Cd	Cd	0.40807 0.96887 0.78436 1.17700
O 	O 	0.68280 0.55880 0.37624 -0.28500
O 	O 	0.54520 0.51870 0.42102 -0.49000
H 	H 	0.52150 0.48210 0.39790 0.31700
O 	O 	0.63950 0.71130 0.57311 -0.28800
O 	O 	0.37010 0.23270 0.80471 -0.41100
O 	O 	0.46350 0.09010 0.84730 -0.44000
O 	O 	0.41320 0.85490 0.71203 -0.38900
O 	O 	0.47760 0.07060 0.71650 -0.40000
C 	C 	0.68880 0.71010 0.53030 0.25500
C 	C 	0.64050 0.64260 0.49503 -0.20100
H 	H 	0.57460 0.60180 0.49900 0.13600
C 	C 	0.69030 0.63510 0.45305 0.02900
C 	C 	0.64070 0.56680 0.41286 0.33600
C 	C 	0.78920 0.69650 0.44768 -0.13500
H 	H 	0.82300 0.69270 0.41970 0.10200
C 	C 	0.83650 0.76250 0.48374 0.11100
H 	H 	0.90310 0.80190 0.48020 0.00700
C 	C 	0.78630 0.77120 0.52535 -0.24400
H 	H 	0.81800 0.81780 0.54960 0.12600
C 	C 	0.58410 0.83160 0.58538 0.24500
C 	C 	0.54800 0.83270 0.63016 -0.17100
C 	C 	0.42570 0.21140 0.83843 0.38000
C 	C 	0.49330 0.95160 0.64583 0.02300
C 	C 	0.45820 0.95920 0.69463 0.27000
C 	C 	0.47430 0.06500 0.61722 -0.12200
H 	H 	0.43890 0.14450 0.62790 0.07800
C 	C 	0.50850 0.05950 0.57241 0.09500
H 	H 	0.49270 0.13370 0.55280 0.00300
C 	C 	0.56610 0.94440 0.55652 -0.23900
H 	H 	0.59200 0.94340 0.52690 0.12300
Cd	Cd	0.59193 0.46887 0.71564 1.18000
O 	O 	0.31720 0.05880 0.12376 -0.29000
O 	O 	0.45480 0.01870 0.07898 -0.49900
H 	H 	0.47850 0.98210 0.10210 0.32500
O 	O 	0.36050 0.21130 0.92689 -0.28700
O 	O 	0.62990 0.73270 0.69529 -0.41300
O 	O 	0.53650 0.59010 0.65270 -0.44300
O 	O 	0.58680 0.35490 0.78797 -0.38900
O 	O 	0.52240 0.57060 0.78350 -0.40900
C 	C 	0.31120 0.21010 0.96970 0.25600
C 	C 	0.35950 0.14260 0.00497 -0.20100
H 	H 	0.42540 0.10180 0.00100 0.13600
C 	C 	0.30970 0.13510 0.04695 0.02700
C 	C 	0.35930 0.06680 0.08714 0.33800
C 	C 	0.21080 0.19650 0.05232 -0.13500
H 	H 	0.17700 0.19270 0.08030 0.10000
C 	C 	0.16350 0.26250 0.01626 0.11000
H 	H 	0.09690 0.30190 0.01980 0.00800
C 	C 	0.21370 0.27120 0.97465 -0.24400
H 	H 	0.18200 0.31780 0.95040 0.12700
C 	C 	0.41590 0.33160 0.91462 0.24400
C 	C 	0.45200 0.33270 0.86984 -0.17000
C 	C 	0.57430 0.71140 0.66157 0.38000
C 	C 	0.50670 0.45160 0.85417 0.02800
C 	C 	0.54180 0.45920 0.80537 0.27800
C 	C 	0.52570 0.56500 0.88278 -0.12800
H 	H 	0.56110 0.64450 0.87210 0.07900
C 	C 	0.49150 0.55950 0.92759 0.09100
H 	H 	0.50730 0.63370 0.94720 0.00400
C 	C 	0.43390 0.44440 0.94348 -0.23300
H 	H 	0.40800 0.44340 0.97310 0.12100
Cd	Cd	0.90807 0.96887 0.71564 1.17500
O 	O 	0.18280 0.55880 0.12376 -0.28500
O 	O 	0.04520 0.51870 0.07898 -0.49000
H 	H 	0.02150 0.48210 0.10210 0.31600
O 	O 	0.13950 0.71130 0.92689 -0.28100
O 	O 	0.87010 0.23270 0.69529 -0.40800
O 	O 	0.96350 0.09010 0.65270 -0.43600
O 	O 	0.91320 0.85490 0.78797 -0.39200
O 	O 	0.97760 0.07060 0.78350 -0.39600
C 	C 	0.18880 0.71010 0.96970 0.25200
C 	C 	0.14050 0.64260 0.00497 -0.19900
H 	H 	0.07460 0.60180 0.00100 0.13500
C 	C 	0.19030 0.63510 0.04695 0.02800
C 	C 	0.14070 0.56680 0.08714 0.33600
C 	C 	0.28920 0.69650 0.05232 -0.13300
H 	H 	0.32300 0.69270 0.08030 0.10200
C 	C 	0.33650 0.76250 0.01626 0.11000
H 	H 	0.40310 0.80190 0.01980 0.01000
C 	C 	0.28630 0.77120 0.97465 -0.24200
H 	H 	0.31800 0.81780 0.95040 0.12700
C 	C 	0.08410 0.83160 0.91462 0.21900
C 	C 	0.04800 0.83270 0.86984 -0.14400
C 	C 	0.92570 0.21140 0.66157 0.37800
C 	C 	0.99330 0.95160 0.85417 -0.01400
C 	C 	0.95820 0.95920 0.80537 0.27400
C 	C 	0.97430 0.06500 0.88278 -0.06100
H 	H 	0.93890 0.14450 0.87210 0.05800
C 	C 	0.00850 0.05950 0.92759 0.02500
H 	H 	0.99270 0.13370 0.94720 0.03100
C 	C 	0.06610 0.94440 0.94348 -0.18800
H 	H 	0.09200 0.94340 0.97310 0.10600
Cd	Cd	0.09193 0.46887 0.78436 1.18000
O 	O 	0.81720 0.05880 0.37624 -0.28600
O 	O 	0.95480 0.01870 0.42102 -0.48500
H 	H 	0.97850 0.98210 0.39790 0.31200
O 	O 	0.86050 0.21130 0.57311 -0.28500
O 	O 	0.12990 0.73270 0.80471 -0.40900
O 	O 	0.03650 0.59010 0.84730 -0.44000
O 	O 	0.08680 0.35490 0.71203 -0.39200
O 	O 	0.02240 0.57060 0.71650 -0.40800
C 	C 	0.81120 0.21010 0.53030 0.25600
C 	C 	0.85950 0.14260 0.49503 -0.20200
H 	H 	0.92540 0.10180 0.49900 0.13700
C 	C 	0.80970 0.13510 0.45305 0.03000
C 	C 	0.85930 0.06680 0.41286 0.33400
C 	C 	0.71080 0.19650 0.44768 -0.13600
H 	H 	0.67700 0.19270 0.41970 0.10200
C 	C 	0.66350 0.26250 0.48374 0.11200
H 	H 	0.59690 0.30190 0.48020 0.00900
C 	C 	0.71370 0.27120 0.52535 -0.24400
H 	H 	0.68200 0.31780 0.54960 0.12800
C 	C 	0.91590 0.33160 0.58538 0.24000
C 	C 	0.95200 0.33270 0.63016 -0.16500
C 	C 	0.07430 0.71140 0.83843 0.37200
C 	C 	0.00670 0.45160 0.64583 0.02100
C 	C 	0.04180 0.45920 0.69463 0.28000
C 	C 	0.02570 0.56500 0.61722 -0.11900
H 	H 	0.06110 0.64450 0.62790 0.07600
C 	C 	0.99150 0.55950 0.57241 0.08000
H 	H 	0.00730 0.63370 0.55280 0.00800
C 	C 	0.93390 0.44440 0.55652 -0.22600
H 	H 	0.90800 0.44340 0.52690 0.11800
Cd	Cd	0.59193 0.03113 0.21564 1.17700
O 	O 	0.31720 0.44120 0.62376 -0.28500
O 	O 	0.45480 0.48130 0.57898 -0.49000
H 	H 	0.47850 0.51790 0.60210 0.31700
O 	O 	0.36050 0.28870 0.42689 -0.28800
O 	O 	0.62990 0.76730 0.19529 -0.41100
O 	O 	0.53650 0.90990 0.15270 -0.44000
O 	O 	0.58680 0.14510 0.28797 -0.38900
O 	O 	0.52240 0.92940 0.28350 -0.40000
C 	C 	0.31120 0.28990 0.46970 0.25500
C 	C 	0.35950 0.35740 0.50497 -0.20100
H 	H 	0.42540 0.39820 0.50100 0.13600
C 	C 	0.30970 0.36490 0.54695 0.02900
C 	C 	0.35930 0.43320 0.58714 0.33600
C 	C 	0.21080 0.30350 0.55232 -0.13500
H 	H 	0.17700 0.30730 0.58030 0.10200
C 	C 	0.16350 0.23750 0.51626 0.11100
H 	H 	0.09690 0.19810 0.51980 0.00700
C 	C 	0.21370 0.22880 0.47465 -0.24400
H 	H 	0.18200 0.18220 0.45040 0.12600
C 	C 	0.41590 0.16840 0.41462 0.24500
C 	C 	0.45200 0.16730 0.36984 -0.17100
C 	C 	0.57430 0.78860 0.16157 0.38000
C 	C 	0.50670 0.04840 0.35417 0.02300
C 	C 	0.54180 0.04080 0.30537 0.27000
C 	C 	0.52570 0.93500 0.38278 -0.12200
H 	H 	0.56110 0.85550 0.37210 0.07800
C 	C 	0.49150 0.94050 0.42759 0.09500
H 	H 	0.50730 0.86630 0.44720 0.00300
C 	C 	0.43390 0.05560 0.44348 -0.23900
H 	H 	0.40800 0.05660 0.47310 0.12300
Cd	Cd	0.40807 0.53113 0.28436 1.18000
O 	O 	0.68280 0.94120 0.87624 -0.29000
O 	O 	0.54520 0.98130 0.92102 -0.49900
H 	H 	0.52150 0.01790 0.89790 0.32500
O 	O 	0.63950 0.78870 0.07311 -0.28700
O 	O 	0.37010 0.26730 0.30471 -0.41300
O 	O 	0.46350 0.40990 0.34730 -0.44300
O 	O 	0.41320 0.64510 0.21203 -0.38900
O 	O 	0.47760 0.42940 0.21650 -0.40900
C 	C 	0.68880 0.78990 0.03030 0.25600
C 	C 	0.64050 0.85740 0.99503 -0.20100
H 	H 	0.57460 0.89820 0.99900 0.13600
C 	C 	0.69030 0.86490 0.95305 0.02700
C 	C 	0.64070 0.93320 0.91286 0.33800
C 	C 	0.78920 0.80350 0.94768 -0.13500
H 	H 	0.82300 0.80730 0.91970 0.10000
C 	C 	0.83650 0.73750 0.98374 0.11000
H 	H 	0.90310 0.69810 0.98020 0.00800
C 	C 	0.78630 0.72880 0.02535 -0.24400
H 	H 	0.81800 0.68220 0.04960 0.12700
C 	C 	0.58410 0.66840 0.08538 0.24400
C 	C 	0.54800 0.66730 0.13016 -0.17000
C 	C 	0.42570 0.28860 0.33843 0.38000
C 	C 	0.49330 0.54840 0.14583 0.02800
C 	C 	0.45820 0.54080 0.19463 0.27800
C 	C 	0.47430 0.43500 0.11722 -0.12800
H 	H 	0.43890 0.35550 0.12790 0.07900
C 	C 	0.50850 0.44050 0.07241 0.09100
H 	H 	0.49270 0.36630 0.05280 0.00400
C 	C 	0.56610 0.55560 0.05652 -0.23300
H 	H 	0.59200 0.55660 0.02690 0.12100
