data_crystal

_cell_length_a 27.41000
_cell_length_b 27.41000
_cell_length_c 6.72790
_cell_angle_alpha 90.00000
_cell_angle_beta  90.00000
_cell_angle_gamma 120.00000

_symmetry_space_group_name_	'P 1'
_symmetry_space_group_name_H-M	'P 1'

loop_
_symmetry_equiv_pos_as_xyz
  x,y,z

loop_
_atom_site_label
_atom_site_type_symbol
_atom_site_fract_x
_atom_site_fract_y
_atom_site_fract_z
_atom_site_charge
Cd	Cd	0.30384 0.03606 0.67980 1.19500
P 	P 	0.42730 0.03880 0.53000 0.42400
O 	O 	0.48150 0.08640 0.46200 -0.27400
O 	O 	0.39620 0.05540 0.67800 -0.51900
O 	O 	0.39010 0.00740 0.35500 -0.53400
N 	N 	0.45900 0.00200 0.87000 -0.19300
C 	C 	0.44060 0.98590 0.65600 -0.07300
C 	C 	0.45100 0.94620 0.94800 -0.01600
C 	C 	0.52230 0.04280 0.84500 -0.01200
Cd	Cd	0.97051 0.36939 0.01313 1.19600
P 	P 	0.09397 0.37213 0.86333 0.42500
O 	O 	0.14817 0.41973 0.79533 -0.27400
O 	O 	0.06287 0.38873 0.01133 -0.51900
O 	O 	0.05677 0.34073 0.68833 -0.53400
N 	N 	0.12567 0.33533 0.20333 -0.19300
C 	C 	0.10727 0.31923 0.98933 -0.07300
C 	C 	0.11767 0.27953 0.28133 -0.01500
C 	C 	0.18897 0.37613 0.17833 -0.01200
Cd	Cd	0.63717 0.70273 0.34647 1.19600
P 	P 	0.76063 0.70547 0.19667 0.42500
O 	O 	0.81483 0.75307 0.12867 -0.27500
O 	O 	0.72953 0.72207 0.34467 -0.51900
O 	O 	0.72343 0.67407 0.02167 -0.53400
N 	N 	0.79233 0.66867 0.53667 -0.19300
C 	C 	0.77393 0.65257 0.32267 -0.07300
C 	C 	0.78433 0.61287 0.61467 -0.01500
C 	C 	0.85563 0.70947 0.51167 -0.01200
Cd	Cd	0.96394 0.26778 0.67980 1.19600
P 	P 	0.96120 0.38850 0.53000 0.42500
O 	O 	0.91360 0.39510 0.46200 -0.27400
O 	O 	0.94460 0.34080 0.67800 -0.51900
O 	O 	0.99260 0.38270 0.35500 -0.53400
N 	N 	0.99800 0.45700 0.87000 -0.19300
C 	C 	0.01410 0.45470 0.65600 -0.07300
C 	C 	0.05380 0.50480 0.94800 -0.01600
C 	C 	0.95720 0.47950 0.84500 -0.01200
Cd	Cd	0.63061 0.60111 0.01313 1.19600
P 	P 	0.62787 0.72183 0.86333 0.42500
O 	O 	0.58027 0.72843 0.79533 -0.27400
O 	O 	0.61127 0.67413 0.01133 -0.51900
O 	O 	0.65927 0.71603 0.68833 -0.53400
N 	N 	0.66467 0.79033 0.20333 -0.19300
C 	C 	0.68077 0.78803 0.98933 -0.07300
C 	C 	0.72047 0.83813 0.28133 -0.01500
C 	C 	0.62387 0.81283 0.17833 -0.01200
Cd	Cd	0.29727 0.93445 0.34647 1.19600
P 	P 	0.29453 0.05517 0.19667 0.42500
O 	O 	0.24693 0.06177 0.12867 -0.27500
O 	O 	0.27793 0.00747 0.34467 -0.51900
O 	O 	0.32593 0.04937 0.02167 -0.53400
N 	N 	0.33133 0.12367 0.53667 -0.19300
C 	C 	0.34743 0.12137 0.32267 -0.07300
C 	C 	0.38713 0.17147 0.61467 -0.01500
C 	C 	0.29053 0.14617 0.51167 -0.01300
Cd	Cd	0.73222 0.69616 0.67980 1.19600
P 	P 	0.61150 0.57270 0.53000 0.42500
O 	O 	0.60490 0.51850 0.46200 -0.27400
O 	O 	0.65920 0.60380 0.67800 -0.51900
O 	O 	0.61730 0.60990 0.35500 -0.53400
N 	N 	0.54300 0.54100 0.87000 -0.19300
C 	C 	0.54530 0.55940 0.65600 -0.07300
C 	C 	0.49520 0.54900 0.94800 -0.01600
C 	C 	0.52050 0.47770 0.84500 -0.01200
Cd	Cd	0.39889 0.02949 0.01313 1.19600
P 	P 	0.27817 0.90603 0.86333 0.42500
O 	O 	0.27157 0.85183 0.79533 -0.27400
O 	O 	0.32587 0.93713 0.01133 -0.51800
O 	O 	0.28397 0.94323 0.68833 -0.53400
N 	N 	0.20967 0.87433 0.20333 -0.19300
C 	C 	0.21197 0.89273 0.98933 -0.07300
C 	C 	0.16187 0.88233 0.28133 -0.01500
C 	C 	0.18717 0.81103 0.17833 -0.01200
Cd	Cd	0.06555 0.36283 0.34647 1.19600
P 	P 	0.94483 0.23937 0.19667 0.42500
O 	O 	0.93823 0.18517 0.12867 -0.27500
O 	O 	0.99253 0.27047 0.34467 -0.51900
O 	O 	0.95063 0.27657 0.02167 -0.53500
N 	N 	0.87633 0.20767 0.53667 -0.19300
C 	C 	0.87863 0.22607 0.32267 -0.07300
C 	C 	0.82853 0.21567 0.61467 -0.01500
C 	C 	0.85383 0.14437 0.51167 -0.01300
Cd	Cd	0.69616 0.96394 0.32020 1.19600
P 	P 	0.57270 0.96120 0.47000 0.42500
O 	O 	0.51850 0.91360 0.53800 -0.27400
O 	O 	0.60380 0.94460 0.32200 -0.51900
O 	O 	0.60990 0.99260 0.64500 -0.53400
N 	N 	0.54100 0.99800 0.13000 -0.19300
C 	C 	0.55940 0.01410 0.34400 -0.07300
C 	C 	0.54900 0.05380 0.05200 -0.01600
C 	C 	0.47770 0.95720 0.15500 -0.01200
Cd	Cd	0.36283 0.29727 0.65353 1.19600
P 	P 	0.23937 0.29453 0.80333 0.42500
O 	O 	0.18517 0.24693 0.87133 -0.27500
O 	O 	0.27047 0.27793 0.65533 -0.51900
O 	O 	0.27657 0.32593 0.97833 -0.53400
N 	N 	0.20767 0.33133 0.46333 -0.19300
C 	C 	0.22607 0.34743 0.67733 -0.07300
C 	C 	0.21567 0.38713 0.38533 -0.01500
C 	C 	0.14437 0.29053 0.48833 -0.01200
Cd	Cd	0.02949 0.63061 0.98687 1.19600
P 	P 	0.90603 0.62787 0.13667 0.42500
O 	O 	0.85183 0.58027 0.20467 -0.27400
O 	O 	0.93713 0.61127 0.98867 -0.51900
O 	O 	0.94323 0.65927 0.31167 -0.53400
N 	N 	0.87433 0.66467 0.79667 -0.19300
C 	C 	0.89273 0.68077 0.01067 -0.07300
C 	C 	0.88233 0.72047 0.71867 -0.01500
C 	C 	0.81103 0.62387 0.82167 -0.01200
Cd	Cd	0.03606 0.73222 0.32020 1.19600
P 	P 	0.03880 0.61150 0.47000 0.42500
O 	O 	0.08640 0.60490 0.53800 -0.27400
O 	O 	0.05540 0.65920 0.32200 -0.51900
O 	O 	0.00740 0.61730 0.64500 -0.53400
N 	N 	0.00200 0.54300 0.13000 -0.19300
C 	C 	0.98590 0.54530 0.34400 -0.07300
C 	C 	0.94620 0.49520 0.05200 -0.01600
C 	C 	0.04280 0.52050 0.15500 -0.01200
Cd	Cd	0.70273 0.06555 0.65353 1.19600
P 	P 	0.70547 0.94483 0.80333 0.42500
O 	O 	0.75307 0.93823 0.87133 -0.27500
O 	O 	0.72207 0.99253 0.65533 -0.51900
O 	O 	0.67407 0.95063 0.97833 -0.53400
N 	N 	0.66867 0.87633 0.46333 -0.19300
C 	C 	0.65257 0.87863 0.67733 -0.07300
C 	C 	0.61287 0.82853 0.38533 -0.01500
C 	C 	0.70947 0.85383 0.48833 -0.01300
Cd	Cd	0.36939 0.39889 0.98687 1.19600
P 	P 	0.37213 0.27817 0.13667 0.42500
O 	O 	0.41973 0.27157 0.20467 -0.27400
O 	O 	0.38873 0.32587 0.98867 -0.51900
O 	O 	0.34073 0.28397 0.31167 -0.53400
N 	N 	0.33533 0.20967 0.79667 -0.19300
C 	C 	0.31923 0.21197 0.01067 -0.07300
C 	C 	0.27953 0.16187 0.71867 -0.01500
C 	C 	0.37613 0.18717 0.82167 -0.01200
Cd	Cd	0.26778 0.30384 0.32020 1.19600
P 	P 	0.38850 0.42730 0.47000 0.42500
O 	O 	0.39510 0.48150 0.53800 -0.27400
O 	O 	0.34080 0.39620 0.32200 -0.51900
O 	O 	0.38270 0.39010 0.64500 -0.53400
N 	N 	0.45700 0.45900 0.13000 -0.19300
C 	C 	0.45470 0.44060 0.34400 -0.07300
C 	C 	0.50480 0.45100 0.05200 -0.01600
C 	C 	0.47950 0.52230 0.15500 -0.01200
Cd	Cd	0.93445 0.63717 0.65353 1.19600
P 	P 	0.05517 0.76063 0.80333 0.42500
O 	O 	0.06177 0.81483 0.87133 -0.27500
O 	O 	0.00747 0.72953 0.65533 -0.51900
O 	O 	0.04937 0.72343 0.97833 -0.53500
N 	N 	0.12367 0.79233 0.46333 -0.19300
C 	C 	0.12137 0.77393 0.67733 -0.07300
C 	C 	0.17147 0.78433 0.38533 -0.01500
C 	C 	0.14617 0.85563 0.48833 -0.01300
Cd	Cd	0.60111 0.97051 0.98687 1.19600
P 	P 	0.72183 0.09397 0.13667 0.42500
O 	O 	0.72843 0.14817 0.20467 -0.27400
O 	O 	0.67413 0.06287 0.98867 -0.51800
O 	O 	0.71603 0.05677 0.31167 -0.53400
N 	N 	0.79033 0.12567 0.79667 -0.19300
C 	C 	0.78803 0.10727 0.01067 -0.07300
C 	C 	0.83813 0.11767 0.71867 -0.01500
C 	C 	0.81283 0.18897 0.82167 -0.01200
