data_crystal

_cell_length_a 6.61180
_cell_length_b 12.43250
_cell_length_c 8.80750
_cell_angle_alpha 90.00000
_cell_angle_beta  107.72300
_cell_angle_gamma 90.00000

_symmetry_space_group_name_	'P 1'
_symmetry_space_group_name_H-M	'P 1'

loop_
_symmetry_equiv_pos_as_xyz
  x,y,z

loop_
_atom_site_label
_atom_site_type_symbol
_atom_site_fract_x
_atom_site_fract_y
_atom_site_fract_z
_atom_site_charge
F 	F 	0.21830 0.38055 0.54250 -0.65400
N 	N 	0.79720 0.12500 0.85890 -0.13800
N 	N 	0.58900 0.12120 0.85010 -0.09500
N 	N 	0.48120 0.19270 0.75060 -0.03700
N 	N 	0.61620 0.24710 0.68920 -0.19200
C 	C 	0.80820 0.20500 0.75930 0.27300
N 	N 	0.98970 0.23600 0.73060 -0.27600
H 	H 	0.98650 0.28630 0.66290 0.23800
H 	H 	0.10800 0.20540 0.78020 0.14100
F 	F 	0.78170 0.38055 0.45750 -0.61800
N 	N 	0.20280 0.12500 0.14110 -0.26200
N 	N 	0.41100 0.12120 0.14990 -0.17700
N 	N 	0.51880 0.19270 0.24940 -0.05900
N 	N 	0.38380 0.24710 0.31080 -0.20100
C 	C 	0.19180 0.20500 0.24070 0.20100
N 	N 	0.01030 0.23600 0.26940 -0.44800
H 	H 	0.01350 0.28630 0.33710 0.19000
H 	H 	0.89200 0.20540 0.21980 0.25500
F 	F 	0.78170 0.61945 0.45750 -0.61600
N 	N 	0.20280 0.87500 0.14110 -0.22900
N 	N 	0.41100 0.87880 0.14990 -0.14000
N 	N 	0.51880 0.80730 0.24940 -0.04600
N 	N 	0.38380 0.75290 0.31080 -0.19800
C 	C 	0.19180 0.79500 0.24070 0.21900
N 	N 	0.01030 0.76400 0.26940 -0.44900
H 	H 	0.01350 0.71370 0.33710 0.19500
H 	H 	0.89200 0.79460 0.21980 0.27200
F 	F 	0.21830 0.61945 0.54250 -0.65000
N 	N 	0.79720 0.87500 0.85890 -0.11200
N 	N 	0.58900 0.87880 0.85010 -0.06400
N 	N 	0.48120 0.80730 0.75060 -0.02500
N 	N 	0.61620 0.75290 0.68920 -0.18900
C 	C 	0.80820 0.79500 0.75930 0.28800
N 	N 	0.98970 0.76400 0.73060 -0.28000
H 	H 	0.98650 0.71370 0.66290 0.24300
H 	H 	0.10800 0.79460 0.78020 0.15800
Fe	Fe	0.50000 0.00000 -0.00000 1.06400
Fe	Fe	-0.00000 0.00000 -0.00000 1.00700
Fe	Fe	0.50000 0.36653 0.50000 1.23300
Fe	Fe	0.50000 0.63347 0.50000 1.23500
Fe	Fe	0.00000 0.50000 0.50000 1.26500
F 	F 	0.80420 0.00000 0.13880 -0.69800
F 	F 	0.19580 0.00000 0.86120 -0.62300
O 	O 	0.60610 0.50000 0.66600 -0.41600
O 	O 	0.99650 0.50000 0.25770 -0.21500
C 	C 	0.17600 0.50000 0.22900 0.04800
O 	O 	0.39390 0.50000 0.33400 -0.40200
O 	O 	0.00350 0.50000 0.74230 -0.39900
C 	C 	0.82400 0.50000 0.77100 0.38300
