data_crystal

_cell_length_a 20.59400
_cell_length_b 20.59400
_cell_length_c 6.53040
_cell_angle_alpha 90.00000
_cell_angle_beta  90.00000
_cell_angle_gamma 120.00000

_symmetry_space_group_name_	'P 1'
_symmetry_space_group_name_H-M	'P 1'

loop_
_symmetry_equiv_pos_as_xyz
  x,y,z

loop_
_atom_site_label
_atom_site_type_symbol
_atom_site_fract_x
_atom_site_fract_y
_atom_site_fract_z
_atom_site_charge
O 	O 	0.44390 0.27690 0.80800 -0.13800
O 	O 	0.56470 0.29830 0.43000 -0.38500
O 	O 	0.52830 0.30290 0.44900 -0.13200
O 	O 	0.43380 0.27100 0.28800 -0.09200
O 	O 	0.72310 0.16700 0.80800 -0.13900
O 	O 	0.70170 0.26640 0.43000 -0.38600
O 	O 	0.69710 0.22540 0.44900 -0.13300
O 	O 	0.72900 0.16280 0.28800 -0.09200
O 	O 	0.83300 0.55610 0.80800 -0.13900
O 	O 	0.73360 0.43530 0.43000 -0.38600
O 	O 	0.77460 0.47170 0.44900 -0.13300
O 	O 	0.83720 0.56620 0.28800 -0.09300
O 	O 	0.44390 0.27690 0.69200 -0.13700
O 	O 	0.56470 0.29830 0.07000 -0.38500
O 	O 	0.52830 0.30290 0.05100 -0.13200
O 	O 	0.43380 0.27100 0.21200 -0.09700
O 	O 	0.72310 0.16700 0.69200 -0.13700
O 	O 	0.70170 0.26640 0.07000 -0.38500
O 	O 	0.69710 0.22540 0.05100 -0.13200
O 	O 	0.72900 0.16280 0.21200 -0.09700
O 	O 	0.83300 0.55610 0.69200 -0.13700
O 	O 	0.73360 0.43530 0.07000 -0.38500
O 	O 	0.77460 0.47170 0.05100 -0.13200
O 	O 	0.83720 0.56620 0.21200 -0.09700
O 	O 	0.27690 0.44390 0.19200 -0.13900
O 	O 	0.29830 0.56470 0.57000 -0.38600
O 	O 	0.30290 0.52830 0.55100 -0.13300
O 	O 	0.27100 0.43380 0.71200 -0.09300
O 	O 	0.16700 0.72310 0.19200 -0.13900
O 	O 	0.26640 0.70170 0.57000 -0.38600
O 	O 	0.22540 0.69710 0.55100 -0.13300
O 	O 	0.16280 0.72900 0.71200 -0.09200
O 	O 	0.55610 0.83300 0.19200 -0.13900
O 	O 	0.43530 0.73360 0.57000 -0.38600
O 	O 	0.47170 0.77460 0.55100 -0.13300
O 	O 	0.56620 0.83720 0.71200 -0.09300
O 	O 	0.27690 0.44390 0.30800 -0.13700
O 	O 	0.29830 0.56470 0.93000 -0.38500
O 	O 	0.30290 0.52830 0.94900 -0.13200
O 	O 	0.27100 0.43380 0.78800 -0.09700
O 	O 	0.16700 0.72310 0.30800 -0.13700
O 	O 	0.26640 0.70170 0.93000 -0.38500
O 	O 	0.22540 0.69710 0.94900 -0.13200
O 	O 	0.16280 0.72900 0.78800 -0.09700
O 	O 	0.55610 0.83300 0.30800 -0.13700
O 	O 	0.43530 0.73360 0.93000 -0.38500
O 	O 	0.47170 0.77460 0.94900 -0.13200
O 	O 	0.56620 0.83720 0.78800 -0.09700
Co	Co	0.55508 0.30242 0.75000 1.17700
Co	Co	0.69758 0.25266 0.75000 1.17700
Co	Co	0.74734 0.44492 0.75000 1.17700
Co	Co	0.30242 0.55508 0.25000 1.17700
Co	Co	0.25266 0.69758 0.25000 1.17700
Co	Co	0.44492 0.74734 0.25000 1.17700
Co	Co	0.66667 0.33333 0.25000 1.14100
Co	Co	0.33333 0.66667 0.75000 1.14100
O 	O 	0.66667 0.33333 0.68400 -0.37200
H 	H 	0.66667 0.33333 0.55510 0.02700
O 	O 	0.66667 0.33333 0.81600 -0.36800
H 	H 	0.66667 0.33333 0.94490 0.02300
O 	O 	0.33333 0.66667 0.31600 -0.37200
H 	H 	0.33333 0.66667 0.44490 0.02700
O 	O 	0.33333 0.66667 0.18400 -0.36800
H 	H 	0.33333 0.66667 0.05510 0.02300
C 	C 	0.47030 0.16540 0.25000 -0.14000
C 	C 	0.39680 0.11050 0.25000 0.08400
H 	H 	0.35960 0.12500 0.25000 0.02600
C 	C 	0.37370 0.03520 0.25000 -0.17100
H 	H 	0.32200 0.99840 0.25000 0.09900
C 	C 	0.42990 0.01430 0.25000 0.16600
C 	C 	0.50230 0.06820 0.25000 -0.18400
H 	H 	0.53940 0.05360 0.25000 0.11100
C 	C 	0.52540 0.14270 0.25000 0.09100
H 	H 	0.57730 0.17910 0.25000 -0.01600
C 	C 	0.33790 0.87510 0.25000 0.12800
H 	H 	0.29370 0.87870 0.25000 -0.00200
C 	C 	0.45080 0.90450 0.25000 0.11500
H 	H 	0.50410 0.93260 0.25000 0.00900
N 	N 	0.40670 0.93450 0.25000 -0.16700
N 	N 	0.33740 0.81210 0.25000 -0.20400
N 	N 	0.41120 0.83110 0.25000 -0.19500
P 	P 	0.50400 0.26340 0.25000 0.42300
C 	C 	0.83460 0.30490 0.25000 -0.14000
C 	C 	0.88950 0.28630 0.25000 0.08400
H 	H 	0.87500 0.23460 0.25000 0.02600
C 	C 	0.96480 0.33850 0.25000 -0.17100
H 	H 	0.00160 0.32360 0.25000 0.09900
C 	C 	0.98570 0.41560 0.25000 0.16600
C 	C 	0.93180 0.43410 0.25000 -0.18400
H 	H 	0.94640 0.48580 0.25000 0.11100
C 	C 	0.85730 0.38270 0.25000 0.09100
H 	H 	0.82090 0.39820 0.25000 -0.01600
C 	C 	0.12490 0.46280 0.25000 0.12800
H 	H 	0.12130 0.41500 0.25000 -0.00200
C 	C 	0.09550 0.54630 0.25000 0.11500
H 	H 	0.06740 0.57150 0.25000 0.00900
N 	N 	0.06550 0.47220 0.25000 -0.16700
N 	N 	0.18790 0.52530 0.25000 -0.20400
N 	N 	0.16890 0.58010 0.25000 -0.19500
P 	P 	0.73660 0.24060 0.25000 0.42300
C 	C 	0.69510 0.52970 0.25000 -0.14000
C 	C 	0.71370 0.60320 0.25000 0.08500
H 	H 	0.76540 0.64040 0.25000 0.02600
C 	C 	0.66150 0.62630 0.25000 -0.17200
H 	H 	0.67640 0.67800 0.25000 0.10000
C 	C 	0.58440 0.57010 0.25000 0.16600
C 	C 	0.56590 0.49770 0.25000 -0.18400
H 	H 	0.51420 0.46060 0.25000 0.11100
C 	C 	0.61730 0.47460 0.25000 0.09100
H 	H 	0.60180 0.42270 0.25000 -0.01600
C 	C 	0.53720 0.66210 0.25000 0.12800
H 	H 	0.58500 0.70630 0.25000 -0.00200
C 	C 	0.45370 0.54920 0.25000 0.11500
H 	H 	0.42850 0.49590 0.25000 0.00900
N 	N 	0.52780 0.59330 0.25000 -0.16600
N 	N 	0.47470 0.66260 0.25000 -0.20400
N 	N 	0.41990 0.58880 0.25000 -0.19500
P 	P 	0.75940 0.49600 0.25000 0.42300
C 	C 	0.16540 0.47030 0.75000 -0.14000
C 	C 	0.11050 0.39680 0.75000 0.08400
H 	H 	0.12500 0.35960 0.75000 0.02600
C 	C 	0.03520 0.37370 0.75000 -0.17100
H 	H 	0.99840 0.32200 0.75000 0.09900
C 	C 	0.01430 0.42990 0.75000 0.16600
C 	C 	0.06820 0.50230 0.75000 -0.18400
H 	H 	0.05360 0.53940 0.75000 0.11100
C 	C 	0.14270 0.52540 0.75000 0.09100
H 	H 	0.17910 0.57730 0.75000 -0.01600
C 	C 	0.87510 0.33790 0.75000 0.12800
H 	H 	0.87870 0.29370 0.75000 -0.00200
C 	C 	0.90450 0.45080 0.75000 0.11500
H 	H 	0.93260 0.50410 0.75000 0.00900
N 	N 	0.93450 0.40670 0.75000 -0.16700
N 	N 	0.81210 0.33740 0.75000 -0.20400
N 	N 	0.83110 0.41120 0.75000 -0.19500
P 	P 	0.26340 0.50400 0.75000 0.42300
C 	C 	0.30490 0.83460 0.75000 -0.14000
C 	C 	0.28630 0.88950 0.75000 0.08400
H 	H 	0.23460 0.87500 0.75000 0.02600
C 	C 	0.33850 0.96480 0.75000 -0.17100
H 	H 	0.32360 0.00160 0.75000 0.09900
C 	C 	0.41560 0.98570 0.75000 0.16600
C 	C 	0.43410 0.93180 0.75000 -0.18400
H 	H 	0.48580 0.94640 0.75000 0.11100
C 	C 	0.38270 0.85730 0.75000 0.09100
H 	H 	0.39820 0.82090 0.75000 -0.01600
C 	C 	0.46280 0.12490 0.75000 0.12800
H 	H 	0.41500 0.12130 0.75000 -0.00200
C 	C 	0.54630 0.09550 0.75000 0.11500
H 	H 	0.57150 0.06740 0.75000 0.00900
N 	N 	0.47220 0.06550 0.75000 -0.16700
N 	N 	0.52530 0.18790 0.75000 -0.20400
N 	N 	0.58010 0.16890 0.75000 -0.19500
P 	P 	0.24060 0.73660 0.75000 0.42300
C 	C 	0.52970 0.69510 0.75000 -0.14000
C 	C 	0.60320 0.71370 0.75000 0.08500
H 	H 	0.64040 0.76540 0.75000 0.02600
C 	C 	0.62630 0.66150 0.75000 -0.17200
H 	H 	0.67800 0.67640 0.75000 0.10000
C 	C 	0.57010 0.58440 0.75000 0.16600
C 	C 	0.49770 0.56590 0.75000 -0.18400
H 	H 	0.46060 0.51420 0.75000 0.11100
C 	C 	0.47460 0.61730 0.75000 0.09100
H 	H 	0.42270 0.60180 0.75000 -0.01600
C 	C 	0.66210 0.53720 0.75000 0.12800
H 	H 	0.70630 0.58500 0.75000 -0.00200
C 	C 	0.54920 0.45370 0.75000 0.11500
H 	H 	0.49590 0.42850 0.75000 0.00900
N 	N 	0.59330 0.52780 0.75000 -0.16600
N 	N 	0.66260 0.47470 0.75000 -0.20400
N 	N 	0.58880 0.41990 0.75000 -0.19500
P 	P 	0.49600 0.75940 0.75000 0.42300
