data_crystal

_cell_length_a 14.62610
_cell_length_b 23.25260
_cell_length_c 15.73570
_cell_angle_alpha 90.00000
_cell_angle_beta  107.09900
_cell_angle_gamma 90.00000

_symmetry_space_group_name_	'P 1'
_symmetry_space_group_name_H-M	'P 1'

loop_
_symmetry_equiv_pos_as_xyz
  x,y,z

loop_
_atom_site_label
_atom_site_type_symbol
_atom_site_fract_x
_atom_site_fract_y
_atom_site_fract_z
_atom_site_charge
Cd	Cd	0.25727 0.30073 0.69677 1.21600
Cd	Cd	0.23509 0.43774 0.58374 1.23300
C 	C 	0.84090 0.29310 0.66070 0.13200
C 	C 	0.92950 0.29960 0.72130 -0.10900
H 	H 	0.94070 0.28580 0.77890 0.08300
C 	C 	0.00250 0.32680 0.69670 -0.02000
H 	H 	0.06250 0.33100 0.73800 0.03800
C 	C 	0.98670 0.34770 0.61170 -0.08400
C 	C 	0.89630 0.34100 0.55130 0.05500
H 	H 	0.88460 0.35520 0.49390 0.02800
C 	C 	0.82380 0.31370 0.57530 -0.15400
H 	H 	0.76390 0.30920 0.53410 0.09100
C 	C 	0.06230 0.37810 0.58510 0.34600
C 	C 	0.78200 0.21140 0.73020 0.18200
C 	C 	0.85100 0.17360 0.71790 -0.21100
H 	H 	0.88820 0.18380 0.68150 0.12000
C 	C 	0.86380 0.12040 0.76060 0.11800
H 	H 	0.91220 0.09610 0.75500 0.00800
C 	C 	0.80660 0.10360 0.81020 -0.16900
C 	C 	0.73830 0.14110 0.82270 0.11500
H 	H 	0.69930 0.12980 0.85690 0.00600
C 	C 	0.72750 0.19480 0.78520 -0.21300
H 	H 	0.68350 0.22030 0.79660 0.10600
C 	C 	0.18490 0.54420 0.64950 0.37600
C 	C 	0.67520 0.29130 0.66500 0.19700
C 	C 	0.66740 0.34940 0.67720 -0.23400
H 	H 	0.72240 0.37160 0.69800 0.12200
C 	C 	0.57930 0.37510 0.65890 0.13400
H 	H 	0.57540 0.41450 0.66720 0.00300
C 	C 	0.49540 0.34280 0.62780 -0.19700
C 	C 	0.50370 0.28530 0.61440 0.12800
H 	H 	0.44870 0.26310 0.59380 -0.02100
C 	C 	0.59230 0.25930 0.63070 -0.23400
H 	H 	0.59630 0.22040 0.61870 0.11300
C 	C 	0.39950 0.37140 0.61140 0.38200
C 	C 	0.16790 0.48790 0.40080 0.39200
C 	C 	0.16590 0.50440 0.30710 -0.17800
C 	C 	0.08690 0.53310 0.25260 0.12200
H 	H 	0.03620 0.54270 0.27440 -0.00500
C 	C 	0.08280 0.54750 0.16750 -0.22900
H 	H 	0.02860 0.56580 0.13170 0.10800
C 	C 	0.15820 0.53540 0.13330 0.18400
C 	C 	0.23800 0.50810 0.18900 -0.22400
H 	H 	0.29080 0.50110 0.16910 0.11300
C 	C 	0.23980 0.49140 0.27330 0.12300
H 	H 	0.29210 0.47090 0.30810 0.00500
C 	C 	0.18600 0.50680 0.99220 0.22700
C 	C 	0.17220 0.44920 0.00340 -0.29500
H 	H 	0.14360 0.43730 0.04590 0.13400
C 	C 	0.20040 0.40900 0.95220 0.16600
H 	H 	0.19240 0.37020 0.96210 -0.00600
C 	C 	0.23980 0.42480 0.88730 -0.18000
C 	C 	0.25350 0.48220 0.87510 0.13000
H 	H 	0.28080 0.49350 0.83130 0.00100
C 	C 	0.22720 0.52420 0.92700 -0.23600
H 	H 	0.23710 0.56300 0.91820 0.12000
C 	C 	0.26530 0.38000 0.82680 0.34100
C 	C 	0.90880 0.09400 0.50020 0.16700
C 	C 	0.97110 0.08610 0.58450 -0.16100
H 	H 	0.96800 0.05250 0.61570 0.09900
C 	C 	0.03810 0.12770 0.62280 0.05200
H 	H 	0.07910 0.12170 0.67970 0.02200
C 	C 	0.04520 0.17780 0.57850 -0.17200
C 	C 	0.97810 0.18700 0.49590 0.13600
H 	H 	0.97910 0.22130 0.46580 0.00700
C 	C 	0.91080 0.14630 0.45860 -0.21300
H 	H 	0.86570 0.15380 0.40430 0.10900
C 	C 	0.12220 0.22050 0.61600 0.33600
N 	N 	0.76570 0.26510 0.68640 -0.19200
N 	N 	0.15450 0.54950 0.04480 -0.21500
O 	O 	0.04180 0.40498 0.51300 -0.45800
O 	O 	0.14740 0.37634 0.63690 -0.51700
O 	O 	0.25880 0.52550 0.63360 -0.42200
O 	O 	0.10870 0.51699 0.63640 -0.45600
O 	O 	0.39500 0.42410 0.61210 -0.39600
O 	O 	0.32620 0.34010 0.59620 -0.48600
O 	O 	0.22460 0.44970 0.44030 -0.41800
O 	O 	0.11140 0.51523 0.43370 -0.45600
O 	O 	0.31260 0.39620 0.77680 -0.38900
O 	O 	0.23600 0.32930 0.82960 -0.39200
O 	O 	0.16170 0.22100 0.69800 -0.39200
O 	O 	0.14800 0.25450 0.56560 -0.36300
Cd	Cd	0.74273 0.80073 0.80323 1.21800
Cd	Cd	0.76491 0.93774 0.91626 1.23900
C 	C 	0.15910 0.79310 0.83930 0.27000
C 	C 	0.07050 0.79960 0.77870 -0.35500
H 	H 	0.05930 0.78580 0.72110 0.15800
C 	C 	0.99750 0.82680 0.80330 0.29600
H 	H 	0.93750 0.83100 0.76200 -0.05800
C 	C 	0.01330 0.84770 0.88830 -0.34300
C 	C 	0.10370 0.84100 0.94870 0.27200
H 	H 	0.11540 0.85520 0.00610 -0.06400
C 	C 	0.17620 0.81370 0.92470 -0.32900
H 	H 	0.23610 0.80920 0.96590 0.15400
C 	C 	0.93770 0.87810 0.91490 0.47200
C 	C 	0.21800 0.71140 0.76980 0.18700
C 	C 	0.14900 0.67360 0.78210 -0.22000
H 	H 	0.11180 0.68380 0.81850 0.11500
C 	C 	0.13620 0.62040 0.73940 0.12100
H 	H 	0.08780 0.59610 0.74500 -0.00300
C 	C 	0.19340 0.60360 0.68980 -0.17500
C 	C 	0.26170 0.64110 0.67730 0.12100
H 	H 	0.30070 0.62980 0.64310 0.00200
C 	C 	0.27250 0.69480 0.71480 -0.22000
H 	H 	0.31650 0.72030 0.70340 0.10700
C 	C 	0.81510 0.04420 0.85050 0.37300
C 	C 	0.32480 0.79130 0.83500 0.20100
C 	C 	0.33260 0.84940 0.82280 -0.23600
H 	H 	0.27760 0.87160 0.80200 0.12300
C 	C 	0.42070 0.87510 0.84110 0.13500
H 	H 	0.42460 0.91450 0.83280 0.00600
C 	C 	0.50460 0.84280 0.87220 -0.19500
C 	C 	0.49630 0.78530 0.88560 0.12900
H 	H 	0.55130 0.76310 0.90620 -0.01900
C 	C 	0.40770 0.75930 0.86930 -0.23600
H 	H 	0.40370 0.72040 0.88130 0.11600
C 	C 	0.60050 0.87140 0.88860 0.38200
C 	C 	0.83210 0.98790 0.09920 0.44500
C 	C 	0.83410 0.00440 0.19290 -0.25600
C 	C 	0.91310 0.03310 0.24740 0.18200
H 	H 	0.96380 0.04270 0.22560 -0.01300
C 	C 	0.91720 0.04750 0.33250 -0.27400
H 	H 	0.97140 0.06580 0.36830 0.13900
C 	C 	0.84180 0.03540 0.36670 0.22500
C 	C 	0.76200 0.00810 0.31100 -0.30000
H 	H 	0.70920 0.00110 0.33090 0.13600
C 	C 	0.76020 0.99140 0.22670 0.22400
H 	H 	0.70790 0.97090 0.19190 -0.02600
C 	C 	0.81400 0.00680 0.50780 0.15600
C 	C 	0.82780 0.94920 0.49660 -0.18200
H 	H 	0.85640 0.93730 0.45410 0.10900
C 	C 	0.79960 0.90900 0.54780 0.09200
H 	H 	0.80760 0.87020 0.53790 0.02000
C 	C 	0.76020 0.92480 0.61270 -0.14000
C 	C 	0.74650 0.98220 0.62490 0.11000
H 	H 	0.71920 0.99350 0.66870 0.01300
C 	C 	0.77280 0.02420 0.57300 -0.20800
H 	H 	0.76290 0.06300 0.58180 0.10800
C 	C 	0.73470 0.88000 0.67320 0.33000
C 	C 	0.09120 0.59400 0.99980 0.21100
C 	C 	0.02890 0.58610 0.91550 -0.25400
H 	H 	0.03200 0.55250 0.88430 0.11900
C 	C 	0.96190 0.62770 0.87720 0.13100
H 	H 	0.92090 0.62170 0.82030 0.00600
C 	C 	0.95480 0.67780 0.92150 -0.12300
C 	C 	0.02190 0.68700 0.00410 0.06300
H 	H 	0.02090 0.72130 0.03420 0.01100
C 	C 	0.08920 0.64630 0.04140 -0.22800
H 	H 	0.13430 0.65380 0.09570 0.11000
C 	C 	0.87780 0.72050 0.88400 0.32900
N 	N 	0.23430 0.76510 0.81360 -0.21500
N 	N 	0.84550 0.04950 0.45520 -0.19500
O 	O 	0.95820 0.90498 0.98700 -0.45800
O 	O 	0.85260 0.87634 0.86310 -0.54000
O 	O 	0.74120 0.02550 0.86640 -0.42500
O 	O 	0.89130 0.01699 0.86360 -0.44500
O 	O 	0.60500 0.92410 0.88790 -0.38900
O 	O 	0.67380 0.84010 0.90380 -0.48200
O 	O 	0.77540 0.94970 0.05970 -0.43000
O 	O 	0.88860 0.01523 0.06630 -0.47000
O 	O 	0.68740 0.89620 0.72320 -0.38400
O 	O 	0.76400 0.82930 0.67040 -0.38200
O 	O 	0.83830 0.72100 0.80200 -0.38400
O 	O 	0.85200 0.75450 0.93440 -0.34600
Cd	Cd	0.74273 0.69927 0.30323 1.21800
Cd	Cd	0.76491 0.56226 0.41626 1.23400
C 	C 	0.15910 0.70690 0.33930 0.26400
C 	C 	0.07050 0.70040 0.27870 -0.35600
H 	H 	0.05930 0.71420 0.22110 0.15700
C 	C 	0.99750 0.67320 0.30330 0.30100
H 	H 	0.93750 0.66900 0.26200 -0.06000
C 	C 	0.01330 0.65230 0.38830 -0.34000
C 	C 	0.10370 0.65900 0.44870 0.23900
H 	H 	0.11540 0.64480 0.50610 -0.04300
C 	C 	0.17620 0.68630 0.42470 -0.31200
H 	H 	0.23610 0.69080 0.46590 0.14400
C 	C 	0.93770 0.62190 0.41490 0.47300
C 	C 	0.21800 0.78860 0.26980 0.18500
C 	C 	0.14900 0.82640 0.28210 -0.21700
H 	H 	0.11180 0.81620 0.31850 0.11300
C 	C 	0.13620 0.87960 0.23940 0.11800
H 	H 	0.08780 0.90390 0.24500 -0.00000
C 	C 	0.19340 0.89640 0.18980 -0.17100
C 	C 	0.26170 0.85890 0.17730 0.11800
H 	H 	0.30070 0.87020 0.14310 0.00200
C 	C 	0.27250 0.80520 0.21480 -0.21800
H 	H 	0.31650 0.77970 0.20340 0.10500
C 	C 	0.81510 0.45580 0.35050 0.37000
C 	C 	0.32480 0.70870 0.33500 0.20100
C 	C 	0.33260 0.65060 0.32280 -0.24000
H 	H 	0.27760 0.62840 0.30200 0.12200
C 	C 	0.42070 0.62490 0.34110 0.13700
H 	H 	0.42460 0.58550 0.33280 0.00100
C 	C 	0.50460 0.65720 0.37220 -0.20000
C 	C 	0.49630 0.71470 0.38560 0.13000
H 	H 	0.55130 0.73690 0.40620 -0.02100
C 	C 	0.40770 0.74070 0.36930 -0.23900
H 	H 	0.40370 0.77960 0.38130 0.11500
C 	C 	0.60050 0.62860 0.38860 0.38300
C 	C 	0.83210 0.51210 0.59920 0.39100
C 	C 	0.83410 0.49560 0.69290 -0.17000
C 	C 	0.91310 0.46690 0.74740 0.12100
H 	H 	0.96380 0.45730 0.72560 0.01000
C 	C 	0.91720 0.45250 0.83250 -0.22000
H 	H 	0.97140 0.43420 0.86830 0.12300
C 	C 	0.84180 0.46460 0.86670 0.18500
C 	C 	0.76200 0.49190 0.81100 -0.21800
H 	H 	0.70920 0.49890 0.83090 0.11500
C 	C 	0.76020 0.50860 0.72670 0.12000
H 	H 	0.70790 0.52910 0.69190 0.00700
C 	C 	0.81400 0.49320 0.00780 0.11400
C 	C 	0.82780 0.55080 0.99660 -0.12600
H 	H 	0.85640 0.56270 0.95410 0.08900
C 	C 	0.79960 0.59100 0.04780 0.03400
H 	H 	0.80760 0.62980 0.03790 0.03600
C 	C 	0.76020 0.57520 0.11270 -0.10300
C 	C 	0.74650 0.51780 0.12490 0.05200
H 	H 	0.71920 0.50650 0.16870 0.02700
C 	C 	0.77280 0.47580 0.07300 -0.15000
H 	H 	0.76290 0.43700 0.08180 0.08800
C 	C 	0.73470 0.62000 0.17320 0.31600
C 	C 	0.09120 0.90600 0.49980 0.17800
C 	C 	0.02890 0.91390 0.41550 -0.23900
H 	H 	0.03200 0.94750 0.38430 0.11700
C 	C 	0.96190 0.87230 0.37720 0.12400
H 	H 	0.92090 0.87830 0.32030 0.00900
C 	C 	0.95480 0.82220 0.42150 -0.13000
C 	C 	0.02190 0.81300 0.50410 0.06900
H 	H 	0.02090 0.77870 0.53420 0.01400
C 	C 	0.08920 0.85370 0.54140 -0.19900
H 	H 	0.13430 0.84620 0.59570 0.10200
C 	C 	0.87780 0.77950 0.38400 0.33100
N 	N 	0.23430 0.73490 0.31360 -0.21400
N 	N 	0.84550 0.45050 0.95520 -0.17000
O 	O 	0.95820 0.59502 0.48700 -0.46600
O 	O 	0.85260 0.62366 0.36310 -0.54200
O 	O 	0.74120 0.47450 0.36640 -0.42100
O 	O 	0.89130 0.48301 0.36360 -0.44000
O 	O 	0.60500 0.57590 0.38790 -0.39700
O 	O 	0.67380 0.65990 0.40380 -0.48500
O 	O 	0.77540 0.55030 0.55970 -0.41400
O 	O 	0.88860 0.48477 0.56630 -0.44400
O 	O 	0.68740 0.60380 0.22320 -0.38400
O 	O 	0.76400 0.67070 0.17040 -0.38100
O 	O 	0.83830 0.77900 0.30200 -0.38600
O 	O 	0.85200 0.74550 0.43440 -0.35000
Cd	Cd	0.25727 0.19927 0.19677 1.21600
Cd	Cd	0.23509 0.06226 0.08374 1.22800
C 	C 	0.84090 0.20690 0.16070 0.11100
C 	C 	0.92950 0.20040 0.22130 -0.07900
H 	H 	0.94070 0.21420 0.27890 0.07400
C 	C 	0.00250 0.17320 0.19670 -0.05300
H 	H 	0.06250 0.16900 0.23800 0.04900
C 	C 	0.98670 0.15230 0.11170 -0.04900
C 	C 	0.89630 0.15900 0.05130 0.00300
H 	H 	0.88460 0.14480 0.99390 0.05600
C 	C 	0.82380 0.18630 0.07530 -0.11900
H 	H 	0.76390 0.19080 0.03410 0.07500
C 	C 	0.06230 0.12190 0.08510 0.33100
C 	C 	0.78200 0.28860 0.23020 0.17900
C 	C 	0.85100 0.32640 0.21790 -0.20800
H 	H 	0.88820 0.31620 0.18150 0.11900
C 	C 	0.86380 0.37960 0.26060 0.11500
H 	H 	0.91220 0.40390 0.25500 0.01000
C 	C 	0.80660 0.39640 0.31020 -0.16700
C 	C 	0.73830 0.35890 0.32270 0.11300
H 	H 	0.69930 0.37020 0.35690 0.00500
C 	C 	0.72750 0.30520 0.28520 -0.21200
H 	H 	0.68350 0.27970 0.29660 0.10400
C 	C 	0.18490 0.95580 0.14950 0.37200
C 	C 	0.67520 0.20870 0.16500 0.19700
C 	C 	0.66740 0.15060 0.17720 -0.23700
H 	H 	0.72240 0.12840 0.19800 0.12100
C 	C 	0.57930 0.12490 0.15890 0.13500
H 	H 	0.57540 0.08550 0.16720 -0.00200
C 	C 	0.49540 0.15720 0.12780 -0.20200
C 	C 	0.50370 0.21470 0.11440 0.12900
H 	H 	0.44870 0.23690 0.09380 -0.02300
C 	C 	0.59230 0.24070 0.13070 -0.23700
H 	H 	0.59630 0.27960 0.11870 0.11300
C 	C 	0.39950 0.12860 0.11140 0.38400
C 	C 	0.16790 0.01210 0.90080 0.32200
C 	C 	0.16590 0.99560 0.80710 -0.07100
C 	C 	0.08690 0.96690 0.75260 0.04600
H 	H 	0.03620 0.95730 0.77440 0.02500
C 	C 	0.08280 0.95250 0.66750 -0.16100
H 	H 	0.02860 0.93420 0.63170 0.09000
C 	C 	0.15820 0.96460 0.63330 0.13500
C 	C 	0.23800 0.99190 0.68900 -0.12200
H 	H 	0.29080 0.99890 0.66910 0.08600
C 	C 	0.23980 0.00860 0.77330 -0.00700
H 	H 	0.29210 0.02910 0.80810 0.04600
C 	C 	0.18600 0.99320 0.49220 0.18000
C 	C 	0.17220 0.05080 0.50340 -0.23200
H 	H 	0.14360 0.06270 0.54590 0.11000
C 	C 	0.20040 0.09100 0.45220 0.09700
H 	H 	0.19240 0.12980 0.46210 0.01200
C 	C 	0.23980 0.07520 0.38730 -0.13700
C 	C 	0.25350 0.01780 0.37510 0.05700
H 	H 	0.28080 0.00650 0.33130 0.01800
C 	C 	0.22720 0.97580 0.42700 -0.16500
H 	H 	0.23710 0.93700 0.41820 0.09700
C 	C 	0.26530 0.12000 0.32680 0.32400
C 	C 	0.90880 0.40600 0.00020 0.14100
C 	C 	0.97110 0.41390 0.08450 -0.15200
H 	H 	0.96800 0.44750 0.11570 0.09800
C 	C 	0.03810 0.37230 0.12280 0.05000
H 	H 	0.07910 0.37830 0.17970 0.02300
C 	C 	0.04520 0.32220 0.07850 -0.18200
C 	C 	0.97810 0.31300 0.99590 0.14400
H 	H 	0.97910 0.27870 0.96580 0.00800
C 	C 	0.91080 0.35370 0.95860 -0.19200
H 	H 	0.86570 0.34620 0.90430 0.10400
C 	C 	0.12220 0.27950 0.11600 0.33900
N 	N 	0.76570 0.23490 0.18640 -0.18900
N 	N 	0.15450 0.95050 0.54480 -0.18500
O 	O 	0.04180 0.09502 0.01300 -0.46500
O 	O 	0.14740 0.12366 0.13690 -0.51600
O 	O 	0.25880 0.97450 0.13360 -0.41500
O 	O 	0.10870 0.98301 0.13640 -0.44600
O 	O 	0.39500 0.07590 0.11210 -0.40600
O 	O 	0.32620 0.15990 0.09620 -0.49100
O 	O 	0.22460 0.05030 0.94030 -0.39700
O 	O 	0.11140 0.98477 0.93370 -0.41900
O 	O 	0.31260 0.10380 0.27680 -0.38900
O 	O 	0.23600 0.17070 0.32960 -0.39100
O 	O 	0.16170 0.27900 0.19800 -0.39400
O 	O 	0.14800 0.24550 0.06560 -0.36800
Cd	Cd	0.00000 0.50000 0.50000 1.23600
Cd	Cd	-0.00000 0.00000 -0.00000 1.22400
