data_crystal

_cell_length_a 11.16580
_cell_length_b 11.17970
_cell_length_c 13.13990
_cell_angle_alpha 67.86300
_cell_angle_beta  65.72400
_cell_angle_gamma 67.08000

_symmetry_space_group_name_	'P 1'
_symmetry_space_group_name_H-M	'P 1'

loop_
_symmetry_equiv_pos_as_xyz
  x,y,z

loop_
_atom_site_label
_atom_site_type_symbol
_atom_site_fract_x
_atom_site_fract_y
_atom_site_fract_z
_atom_site_charge
Br	Br	0.53878 0.25350 0.32917 -0.30000
C 	C 	0.67200 0.04560 0.03670 0.21500
C 	C 	0.55350 0.03620 0.12740 -0.17600
H 	H 	0.49950 0.98930 0.12930 0.09500
C 	C 	0.51380 0.09560 0.21590 -0.04600
H 	H 	0.43260 0.09060 0.27580 0.04400
C 	C 	0.59690 0.16270 0.21400 0.10800
C 	C 	0.71640 0.17070 0.12730 -0.07700
H 	H 	0.77130 0.21470 0.12820 0.05200
C 	C 	0.75670 0.11200 0.03600 -0.09100
C 	C 	0.87970 0.13400 0.94190 0.04200
H 	H 	0.92520 0.18410 0.94780 0.01000
C 	C 	0.10100 0.08810 0.68300 0.04900
C 	C 	0.28660 0.22490 0.63690 -0.31200
H 	H 	0.27290 0.18100 0.71850 0.12800
H 	H 	0.38290 0.22040 0.60100 0.14200
C 	C 	0.20680 0.37070 0.62540 0.26100
C 	C 	0.17570 0.43000 0.71160 -0.28900
H 	H 	0.20010 0.37890 0.77820 0.11900
C 	C 	0.10790 0.56600 0.69890 0.19600
H 	H 	0.09050 0.60620 0.75580 -0.07000
C 	C 	0.06630 0.64180 0.60340 -0.27700
H 	H 	0.01770 0.73200 0.59660 0.11100
C 	C 	0.09700 0.58330 0.51950 0.20400
H 	H 	0.06990 0.63430 0.45410 -0.03400
C 	C 	0.16780 0.44920 0.52890 -0.28900
H 	H 	0.18920 0.41150 0.46920 0.14400
C 	C 	0.72880 0.14560 0.61910 0.10700
H 	H 	0.77800 0.07030 0.59020 -0.02400
C 	C 	0.65450 0.25900 0.55470 -0.21400
H 	H 	0.65450 0.25940 0.48380 0.13200
C 	C 	0.58150 0.37020 0.59830 0.19100
C 	C 	0.58140 0.36550 0.70250 -0.23500
H 	H 	0.53080 0.43840 0.73450 0.13100
C 	C 	0.65710 0.25170 0.76000 0.13800
H 	H 	0.65700 0.25060 0.83120 -0.01200
Mo	Mo	0.86309 0.93670 0.82738 1.02700
N 	N 	0.93080 0.09020 0.85110 -0.17800
N 	N 	0.04560 0.13350 0.77300 -0.10400
N 	N 	0.73090 0.14250 0.72150 -0.21900
N 	N 	0.50180 0.51150 0.53740 -0.08600
O 	O 	0.70210 0.99390 0.94950 -0.43500
S 	S 	0.04781 0.98346 0.64994 -0.22800
S 	S 	0.24746 0.12811 0.57590 0.04900
Br	Br	0.46122 0.74650 0.67083 -0.29900
C 	C 	0.32800 0.95440 0.96330 0.21600
C 	C 	0.44650 0.96380 0.87260 -0.17600
H 	H 	0.50050 0.01070 0.87070 0.09500
C 	C 	0.48620 0.90440 0.78410 -0.04600
H 	H 	0.56740 0.90940 0.72420 0.04400
C 	C 	0.40310 0.83730 0.78600 0.10800
C 	C 	0.28360 0.82930 0.87270 -0.07700
H 	H 	0.22870 0.78530 0.87180 0.05200
C 	C 	0.24330 0.88800 0.96400 -0.09100
C 	C 	0.12030 0.86600 0.05810 0.04200
H 	H 	0.07480 0.81590 0.05220 0.01000
C 	C 	0.89900 0.91190 0.31700 0.04900
C 	C 	0.71340 0.77510 0.36310 -0.31200
H 	H 	0.72710 0.81900 0.28150 0.12800
H 	H 	0.61710 0.77960 0.39900 0.14200
C 	C 	0.79320 0.62930 0.37460 0.26100
C 	C 	0.82430 0.57000 0.28840 -0.28900
H 	H 	0.79990 0.62110 0.22180 0.11900
C 	C 	0.89210 0.43400 0.30110 0.19600
H 	H 	0.90950 0.39380 0.24420 -0.07000
C 	C 	0.93370 0.35820 0.39660 -0.27700
H 	H 	0.98230 0.26800 0.40340 0.11100
C 	C 	0.90300 0.41670 0.48050 0.20400
H 	H 	0.93010 0.36570 0.54590 -0.03400
C 	C 	0.83220 0.55080 0.47110 -0.28900
H 	H 	0.81080 0.58850 0.53080 0.14400
C 	C 	0.27120 0.85440 0.38090 0.10700
H 	H 	0.22200 0.92970 0.40980 -0.02400
C 	C 	0.34550 0.74100 0.44530 -0.21400
H 	H 	0.34550 0.74060 0.51620 0.13200
C 	C 	0.41850 0.62980 0.40170 0.19100
C 	C 	0.41860 0.63450 0.29750 -0.23500
H 	H 	0.46920 0.56160 0.26550 0.13100
C 	C 	0.34290 0.74830 0.24000 0.13800
H 	H 	0.34300 0.74940 0.16880 -0.01200
Mo	Mo	0.13691 0.06330 0.17262 1.02700
N 	N 	0.06920 0.90980 0.14890 -0.17800
N 	N 	0.95440 0.86650 0.22700 -0.10400
N 	N 	0.26910 0.85750 0.27850 -0.21900
N 	N 	0.49820 0.48850 0.46260 -0.08600
O 	O 	0.29790 0.00610 0.05050 -0.43500
S 	S 	0.95219 0.01654 0.35006 -0.22800
S 	S 	0.75254 0.87189 0.42410 0.04900
