data_crystal

_cell_length_a 8.97390
_cell_length_b 8.58410
_cell_length_c 30.68600
_cell_angle_alpha 90.00000
_cell_angle_beta  90.00000
_cell_angle_gamma 90.00000

_symmetry_space_group_name_	'P 1'
_symmetry_space_group_name_H-M	'P 1'

loop_
_symmetry_equiv_pos_as_xyz
  x,y,z

loop_
_atom_site_label
_atom_site_type_symbol
_atom_site_fract_x
_atom_site_fract_y
_atom_site_fract_z
_atom_site_charge
C 	C 	0.41680 0.44160 0.61490 0.07600
H 	H 	0.48630 0.36430 0.62110 0.00300
C 	C 	0.41030 0.57250 0.64040 -0.16800
C 	C 	0.51430 0.59130 0.67850 0.33300
C 	C 	0.30590 0.68640 0.63080 0.07600
H 	H 	0.30080 0.77660 0.64760 -0.02200
C 	C 	0.20830 0.66500 0.59590 -0.17700
H 	H 	0.13720 0.74110 0.59010 0.08400
C 	C 	0.21360 0.53540 0.56980 0.11200
C 	C 	0.32020 0.42360 0.57980 -0.17900
H 	H 	0.32720 0.33470 0.56260 0.08200
C 	C 	0.10850 0.51670 0.53270 -0.09400
C 	C 	0.15400 0.51190 0.48970 0.20700
C 	C 	0.95430 0.50520 0.54250 -0.15400
H 	H 	0.92440 0.50930 0.57140 0.08200
C 	C 	0.31570 0.52770 0.47630 -0.71500
H 	H 	0.36640 0.43090 0.48140 0.23100
H 	H 	0.36190 0.60860 0.49310 0.23400
H 	H 	0.32120 0.55360 0.44590 0.23700
O 	O 	0.49800 0.71190 0.70199 -0.48600
O 	O 	0.61470 0.49380 0.68560 -0.37700
C 	C 	0.58320 0.55840 0.11490 0.07700
H 	H 	0.51370 0.63570 0.12110 0.00400
C 	C 	0.58970 0.42750 0.14040 -0.16800
C 	C 	0.48570 0.40870 0.17850 0.33300
C 	C 	0.69410 0.31360 0.13080 0.07700
H 	H 	0.69920 0.22340 0.14760 -0.02200
C 	C 	0.79170 0.33500 0.09590 -0.17800
H 	H 	0.86280 0.25890 0.09010 0.08400
C 	C 	0.78640 0.46460 0.06980 0.11200
C 	C 	0.67980 0.57640 0.07980 -0.17900
H 	H 	0.67280 0.66530 0.06260 0.08200
C 	C 	0.89150 0.48330 0.03270 -0.09500
C 	C 	0.84600 0.48810 0.98970 0.20700
C 	C 	0.04570 0.49480 0.04250 -0.15400
H 	H 	0.07560 0.49070 0.07140 0.08200
C 	C 	0.68430 0.47230 0.97630 -0.71500
H 	H 	0.63360 0.56910 0.98140 0.23200
H 	H 	0.63810 0.39140 0.99310 0.23400
H 	H 	0.67880 0.44640 0.94590 0.23700
O 	O 	0.50200 0.28810 0.20199 -0.48600
O 	O 	0.38530 0.50620 0.18560 -0.37700
C 	C 	0.58320 0.55840 0.38510 0.07700
H 	H 	0.51370 0.63570 0.37890 0.00400
C 	C 	0.58970 0.42750 0.35960 -0.16800
C 	C 	0.48570 0.40870 0.32150 0.33300
C 	C 	0.69410 0.31360 0.36920 0.07600
H 	H 	0.69920 0.22340 0.35240 -0.02200
C 	C 	0.79170 0.33500 0.40410 -0.17700
H 	H 	0.86280 0.25890 0.40990 0.08400
C 	C 	0.78640 0.46460 0.43020 0.11200
C 	C 	0.67980 0.57640 0.42020 -0.17900
H 	H 	0.67280 0.66530 0.43740 0.08200
C 	C 	0.89150 0.48330 0.46730 -0.09400
C 	C 	0.84600 0.48810 0.51030 0.20700
C 	C 	0.04570 0.49480 0.45750 -0.15400
H 	H 	0.07560 0.49070 0.42860 0.08200
C 	C 	0.68430 0.47230 0.52370 -0.71500
H 	H 	0.63360 0.56910 0.51860 0.23100
H 	H 	0.63810 0.39140 0.50690 0.23400
H 	H 	0.67880 0.44640 0.55410 0.23700
O 	O 	0.50200 0.28810 0.29801 -0.48600
O 	O 	0.38530 0.50620 0.31440 -0.37700
C 	C 	0.41680 0.44160 0.88510 0.07700
H 	H 	0.48630 0.36430 0.87890 0.00400
C 	C 	0.41030 0.57250 0.85960 -0.16800
C 	C 	0.51430 0.59130 0.82150 0.33300
C 	C 	0.30590 0.68640 0.86920 0.07700
H 	H 	0.30080 0.77660 0.85240 -0.02200
C 	C 	0.20830 0.66500 0.90410 -0.17800
H 	H 	0.13720 0.74110 0.90990 0.08400
C 	C 	0.21360 0.53540 0.93020 0.11200
C 	C 	0.32020 0.42360 0.92020 -0.17900
H 	H 	0.32720 0.33470 0.93740 0.08200
C 	C 	0.10850 0.51670 0.96730 -0.09500
C 	C 	0.15400 0.51190 0.01030 0.20700
C 	C 	0.95430 0.50520 0.95750 -0.15400
H 	H 	0.92440 0.50930 0.92860 0.08200
C 	C 	0.31570 0.52770 0.02370 -0.71500
H 	H 	0.36640 0.43090 0.01860 0.23200
H 	H 	0.36190 0.60860 0.00690 0.23400
H 	H 	0.32120 0.55360 0.05410 0.23700
O 	O 	0.49800 0.71190 0.79801 -0.48600
O 	O 	0.61470 0.49380 0.81440 -0.37700
Pb	Pb	0.70349 0.68859 0.75000 1.21600
Pb	Pb	0.29651 0.31141 0.25000 1.21600
C 	C 	0.08320 0.94160 0.38510 0.04800
H 	H 	0.01370 0.86430 0.37890 0.01500
C 	C 	0.08970 0.07250 0.35960 -0.12500
C 	C 	0.98570 0.09130 0.32150 0.27100
C 	C 	0.19410 0.18640 0.36920 0.04800
H 	H 	0.19920 0.27660 0.35240 -0.00800
C 	C 	0.29170 0.16500 0.40410 -0.15500
H 	H 	0.36280 0.24110 0.40990 0.07900
C 	C 	0.28640 0.03540 0.43020 0.09600
C 	C 	0.17980 0.92360 0.42020 -0.15600
H 	H 	0.17280 0.83470 0.43740 0.07300
C 	C 	0.39150 0.01670 0.46730 -0.08400
C 	C 	0.34600 0.01190 0.51030 0.20000
C 	C 	0.54570 0.00520 0.45750 -0.16000
H 	H 	0.57560 0.00930 0.42860 0.08000
C 	C 	0.18430 0.02770 0.52370 -0.68000
H 	H 	0.13360 0.93090 0.51860 0.21600
H 	H 	0.13810 0.10860 0.50690 0.22500
H 	H 	0.17880 0.05360 0.55410 0.22900
O 	O 	0.00200 0.21190 0.29801 -0.45900
O 	O 	0.88530 0.99380 0.31440 -0.35100
C 	C 	0.91680 0.05840 0.88510 0.04800
H 	H 	0.98630 0.13570 0.87890 0.01500
C 	C 	0.91030 0.92750 0.85960 -0.12500
C 	C 	0.01430 0.90870 0.82150 0.27100
C 	C 	0.80590 0.81360 0.86920 0.04700
H 	H 	0.80080 0.72340 0.85240 -0.00800
C 	C 	0.70830 0.83500 0.90410 -0.15500
H 	H 	0.63720 0.75890 0.90990 0.07900
C 	C 	0.71360 0.96460 0.93020 0.09500
C 	C 	0.82020 0.07640 0.92020 -0.15600
H 	H 	0.82720 0.16530 0.93740 0.07300
C 	C 	0.60850 0.98330 0.96730 -0.08400
C 	C 	0.65400 0.98810 0.01030 0.20000
C 	C 	0.45430 0.99480 0.95750 -0.16100
H 	H 	0.42440 0.99070 0.92860 0.08000
C 	C 	0.81570 0.97230 0.02370 -0.67900
H 	H 	0.86640 0.06910 0.01860 0.21500
H 	H 	0.86190 0.89140 0.00690 0.22500
H 	H 	0.82120 0.94640 0.05410 0.22900
O 	O 	0.99800 0.78810 0.79801 -0.45800
O 	O 	0.11470 0.00620 0.81440 -0.35100
C 	C 	0.91680 0.05840 0.61490 0.04800
H 	H 	0.98630 0.13570 0.62110 0.01500
C 	C 	0.91030 0.92750 0.64040 -0.12500
C 	C 	0.01430 0.90870 0.67850 0.27100
C 	C 	0.80590 0.81360 0.63080 0.04800
H 	H 	0.80080 0.72340 0.64760 -0.00800
C 	C 	0.70830 0.83500 0.59590 -0.15500
H 	H 	0.63720 0.75890 0.59010 0.07900
C 	C 	0.71360 0.96460 0.56980 0.09600
C 	C 	0.82020 0.07640 0.57980 -0.15600
H 	H 	0.82720 0.16530 0.56260 0.07300
C 	C 	0.60850 0.98330 0.53270 -0.08400
C 	C 	0.65400 0.98810 0.48970 0.20000
C 	C 	0.45430 0.99480 0.54250 -0.16000
H 	H 	0.42440 0.99070 0.57140 0.08000
C 	C 	0.81570 0.97230 0.47630 -0.68000
H 	H 	0.86640 0.06910 0.48140 0.21600
H 	H 	0.86190 0.89140 0.49310 0.22500
H 	H 	0.82120 0.94640 0.44590 0.22900
O 	O 	0.99800 0.78810 0.70199 -0.45900
O 	O 	0.11470 0.00620 0.68560 -0.35100
C 	C 	0.08320 0.94160 0.11490 0.04800
H 	H 	0.01370 0.86430 0.12110 0.01500
C 	C 	0.08970 0.07250 0.14040 -0.12500
C 	C 	0.98570 0.09130 0.17850 0.27100
C 	C 	0.19410 0.18640 0.13080 0.04700
H 	H 	0.19920 0.27660 0.14760 -0.00800
C 	C 	0.29170 0.16500 0.09590 -0.15500
H 	H 	0.36280 0.24110 0.09010 0.07900
C 	C 	0.28640 0.03540 0.06980 0.09500
C 	C 	0.17980 0.92360 0.07980 -0.15600
H 	H 	0.17280 0.83470 0.06260 0.07300
C 	C 	0.39150 0.01670 0.03270 -0.08400
C 	C 	0.34600 0.01190 0.98970 0.20000
C 	C 	0.54570 0.00520 0.04250 -0.16100
H 	H 	0.57560 0.00930 0.07140 0.08000
C 	C 	0.18430 0.02770 0.97630 -0.67900
H 	H 	0.13360 0.93090 0.98140 0.21500
H 	H 	0.13810 0.10860 0.99310 0.22500
H 	H 	0.17880 0.05360 0.94590 0.22900
O 	O 	0.00200 0.21190 0.20199 -0.45800
O 	O 	0.88530 0.99380 0.18560 -0.35100
Pb	Pb	0.79651 0.18859 0.25000 1.20900
Pb	Pb	0.20349 0.81141 0.75000 1.20900
