data_crystal

_cell_length_a 22.49700
_cell_length_b 19.42100
_cell_length_c 12.64600
_cell_angle_alpha 90.00000
_cell_angle_beta  90.00000
_cell_angle_gamma 90.00000

_symmetry_space_group_name_	'P 1'
_symmetry_space_group_name_H-M	'P 1'

loop_
_symmetry_equiv_pos_as_xyz
  x,y,z

loop_
_atom_site_label
_atom_site_type_symbol
_atom_site_fract_x
_atom_site_fract_y
_atom_site_fract_z
_atom_site_charge
Cd	Cd	0.07524 0.48857 0.06144 1.21500
O 	O 	0.99907 0.56487 0.06910 -0.46800
O 	O 	0.07761 0.62420 0.01620 -0.33400
O 	O 	0.01237 0.43361 0.20360 -0.38000
O 	O 	0.08234 0.37762 0.11780 -0.42900
N 	N 	0.15466 0.53123 0.15940 -0.22600
N 	N 	0.18464 0.58355 0.11360 -0.22600
H 	H 	0.17200 0.61600 0.07600 0.13100
N 	N 	0.37181 0.51259 0.40770 -0.27600
N 	N 	0.39321 0.48260 0.32020 -0.19500
H 	H 	0.43100 0.46500 0.31200 0.12300
C 	C 	0.02507 0.62203 0.05120 0.29200
C 	C 	0.99289 0.68767 0.07150 -0.07000
C 	C 	0.93416 0.68754 0.10860 0.00100
H 	H 	0.91460 0.64600 0.11970 0.03500
C 	C 	0.04005 0.37846 0.18140 0.32000
C 	C 	0.02169 0.31166 0.23320 -0.12900
C 	C 	0.98603 0.31170 0.32270 0.05500
H 	H 	0.97240 0.35310 0.35060 0.00100
C 	C 	0.17800 0.44120 0.29180 -0.74100
H 	H 	0.15990 0.40660 0.24830 0.23100
H 	H 	0.15060 0.45520 0.34580 0.21800
H 	H 	0.21320 0.42280 0.32410 0.22800
C 	C 	0.19425 0.50190 0.22520 0.20100
C 	C 	0.24875 0.53720 0.22100 -0.13700
C 	C 	0.24112 0.58920 0.14880 0.23800
C 	C 	0.28400 0.64400 0.11170 -0.71600
H 	H 	0.26340 0.67650 0.06770 0.22200
H 	H 	0.31550 0.62290 0.07190 0.21800
H 	H 	0.30050 0.66740 0.17180 0.24200
C 	C 	0.27600 0.55550 0.45470 -0.49900
H 	H 	0.25670 0.51540 0.48310 0.05900
H 	H 	0.24710 0.58390 0.41970 1.65000
H 	H 	0.29410 0.58100 0.51110 0.65300
C 	C 	0.28300 0.58290 0.46090 -1.24100
H 	H 	0.26610 0.55560 0.51650 0.17000
H 	H 	0.25190 0.60580 0.42280 -1.10600
H 	H 	0.30940 0.61650 0.49080 0.19500
C 	C 	0.31791 0.53600 0.38500 0.48300
C 	C 	0.30408 0.52000 0.27940 -0.27100
C 	C 	0.35340 0.48650 0.24020 0.28700
C 	C 	0.35300 0.43010 0.15260 -0.10000
H 	H 	0.39280 0.41390 0.14090 0.06300
H 	H 	0.33750 0.44920 0.08820 0.02000
H 	H 	0.32840 0.39240 0.17480 0.00100
C 	C 	0.36970 0.46700 0.12640 -0.65600
H 	H 	0.35920 0.50400 0.07970 0.19200
H 	H 	0.34850 0.42610 0.10630 0.23200
H 	H 	0.41170 0.45860 0.12190 0.19800
Cd	Cd	0.42476 0.51143 0.56144 1.21600
O 	O 	0.50093 0.43513 0.56910 -0.48100
O 	O 	0.42239 0.37580 0.51620 -0.34000
O 	O 	0.48763 0.56639 0.70360 -0.37600
O 	O 	0.41766 0.62238 0.61780 -0.42700
N 	N 	0.34534 0.46877 0.65940 -0.22700
N 	N 	0.31536 0.41645 0.61360 -0.22700
H 	H 	0.32800 0.38400 0.57600 0.13100
N 	N 	0.12819 0.48741 0.90770 -0.27000
N 	N 	0.10679 0.51740 0.82020 -0.19500
H 	H 	0.06900 0.53500 0.81200 0.12300
C 	C 	0.47493 0.37797 0.55120 0.31800
C 	C 	0.50711 0.31233 0.57150 -0.11200
C 	C 	0.56584 0.31246 0.60860 0.03100
H 	H 	0.58540 0.35400 0.61970 0.02400
C 	C 	0.45995 0.62154 0.68140 0.31600
C 	C 	0.47831 0.68834 0.73320 -0.11600
C 	C 	0.51397 0.68830 0.82270 0.03900
H 	H 	0.52760 0.64690 0.85060 0.00600
C 	C 	0.32200 0.55880 0.79180 -0.74600
H 	H 	0.34010 0.59340 0.74830 0.23300
H 	H 	0.34940 0.54480 0.84580 0.22100
H 	H 	0.28680 0.57720 0.82410 0.23100
C 	C 	0.30575 0.49810 0.72520 0.20400
C 	C 	0.25125 0.46280 0.72100 -0.14100
C 	C 	0.25888 0.41080 0.64880 0.24000
C 	C 	0.21600 0.35600 0.61170 -0.71700
H 	H 	0.23660 0.32350 0.56770 0.22300
H 	H 	0.18450 0.37710 0.57190 0.21900
H 	H 	0.19950 0.33260 0.67180 0.24200
C 	C 	0.22400 0.44450 0.95470 -0.46700
H 	H 	0.24330 0.48460 0.98310 0.05800
H 	H 	0.25290 0.41610 0.91970 1.54900
H 	H 	0.20590 0.41900 0.01110 0.60700
C 	C 	0.21700 0.41710 0.96090 -1.16700
H 	H 	0.23390 0.44440 0.01650 0.15800
H 	H 	0.24810 0.39420 0.92280 -1.03600
H 	H 	0.19060 0.38350 0.99080 0.19000
C 	C 	0.18209 0.46400 0.88500 0.45600
C 	C 	0.19592 0.48000 0.77940 -0.25800
C 	C 	0.14660 0.51350 0.74020 0.28200
C 	C 	0.14700 0.56990 0.65260 -0.09800
H 	H 	0.10720 0.58610 0.64090 0.06300
H 	H 	0.16250 0.55080 0.58820 0.01900
H 	H 	0.17160 0.60760 0.67480 0.00100
C 	C 	0.13030 0.53300 0.62640 -0.65300
H 	H 	0.14080 0.49600 0.57970 0.19100
H 	H 	0.15150 0.57390 0.60630 0.23100
H 	H 	0.08830 0.54140 0.62190 0.19800
Cd	Cd	0.07524 0.01143 0.06144 1.21200
O 	O 	0.99907 0.93513 0.06910 -0.46600
O 	O 	0.07761 0.87580 0.01620 -0.33400
O 	O 	0.01237 0.06639 0.20360 -0.38100
O 	O 	0.08234 0.12238 0.11780 -0.43100
N 	N 	0.15466 0.96877 0.15940 -0.22600
N 	N 	0.18464 0.91645 0.11360 -0.22700
H 	H 	0.17200 0.88400 0.07600 0.13100
N 	N 	0.37181 0.98741 0.40770 -0.27600
N 	N 	0.39321 0.01740 0.32020 -0.19700
H 	H 	0.43100 0.03500 0.31200 0.12200
C 	C 	0.02507 0.87797 0.05120 0.29000
C 	C 	0.99289 0.81233 0.07150 -0.06900
C 	C 	0.93416 0.81246 0.10860 0.00100
H 	H 	0.91460 0.85400 0.11970 0.03500
C 	C 	0.04005 0.12154 0.18140 0.32000
C 	C 	0.02169 0.18834 0.23320 -0.12900
C 	C 	0.98603 0.18830 0.32270 0.05500
H 	H 	0.97240 0.14690 0.35060 0.00100
C 	C 	0.17800 0.05880 0.29180 -0.75400
H 	H 	0.15990 0.09340 0.24830 0.23500
H 	H 	0.15060 0.04480 0.34580 0.22100
H 	H 	0.21320 0.07720 0.32410 0.23200
C 	C 	0.19425 0.99810 0.22520 0.20900
C 	C 	0.24875 0.96280 0.22100 -0.14000
C 	C 	0.24112 0.91080 0.14880 0.24100
C 	C 	0.28400 0.85600 0.11170 -0.71900
H 	H 	0.26340 0.82350 0.06770 0.22400
H 	H 	0.31550 0.87710 0.07190 0.22000
H 	H 	0.30050 0.83260 0.17180 0.24300
C 	C 	0.27600 0.94450 0.45470 -0.49700
H 	H 	0.25670 0.98460 0.48310 0.05900
H 	H 	0.24710 0.91610 0.41970 1.64600
H 	H 	0.29410 0.91900 0.51110 0.65100
C 	C 	0.28300 0.91710 0.46090 -1.23700
H 	H 	0.26610 0.94440 0.51650 0.16900
H 	H 	0.25190 0.89420 0.42280 -1.10300
H 	H 	0.30940 0.88350 0.49080 0.19400
C 	C 	0.31791 0.96400 0.38500 0.48100
C 	C 	0.30408 0.98000 0.27940 -0.26700
C 	C 	0.35340 0.01350 0.24020 0.28800
C 	C 	0.35300 0.06990 0.15260 -0.10800
H 	H 	0.39280 0.08610 0.14090 0.06400
H 	H 	0.33750 0.05080 0.08820 0.01400
H 	H 	0.32840 0.10760 0.17480 0.00200
C 	C 	0.36970 0.03300 0.12640 -0.66700
H 	H 	0.35920 0.99600 0.07970 0.20100
H 	H 	0.34850 0.07390 0.10630 0.24400
H 	H 	0.41170 0.04140 0.12190 0.20000
Cd	Cd	0.42476 0.98857 0.56144 1.21600
O 	O 	0.50093 0.06487 0.56910 -0.48000
O 	O 	0.42239 0.12420 0.51620 -0.34000
O 	O 	0.48763 0.93361 0.70360 -0.37700
O 	O 	0.41766 0.87762 0.61780 -0.42700
N 	N 	0.34534 0.03123 0.65940 -0.22800
N 	N 	0.31536 0.08355 0.61360 -0.22800
H 	H 	0.32800 0.11600 0.57600 0.13100
N 	N 	0.12819 0.01259 0.90770 -0.26200
N 	N 	0.10679 0.98260 0.82020 -0.19600
H 	H 	0.06900 0.96500 0.81200 0.12200
C 	C 	0.47493 0.12203 0.55120 0.31700
C 	C 	0.50711 0.18767 0.57150 -0.11200
C 	C 	0.56584 0.18754 0.60860 0.03100
H 	H 	0.58540 0.14600 0.61970 0.02400
C 	C 	0.45995 0.87846 0.68140 0.31600
C 	C 	0.47831 0.81166 0.73320 -0.11600
C 	C 	0.51397 0.81170 0.82270 0.03900
H 	H 	0.52760 0.85310 0.85060 0.00500
C 	C 	0.32200 0.94120 0.79180 -0.75800
H 	H 	0.34010 0.90660 0.74830 0.23600
H 	H 	0.34940 0.95520 0.84580 0.22300
H 	H 	0.28680 0.92280 0.82410 0.23300
C 	C 	0.30575 0.00190 0.72520 0.21400
C 	C 	0.25125 0.03720 0.72100 -0.14800
C 	C 	0.25888 0.08920 0.64880 0.24300
C 	C 	0.21600 0.14400 0.61170 -0.72000
H 	H 	0.23660 0.17650 0.56770 0.22400
H 	H 	0.18450 0.12290 0.57190 0.22000
H 	H 	0.19950 0.16740 0.67180 0.24200
C 	C 	0.22400 0.05550 0.95470 -0.44000
H 	H 	0.24330 0.01540 0.98310 0.05900
H 	H 	0.25290 0.08390 0.91970 1.46500
H 	H 	0.20590 0.08100 0.01110 0.56900
C 	C 	0.21700 0.08290 0.96090 -1.10300
H 	H 	0.23390 0.05560 0.01650 0.14500
H 	H 	0.24810 0.10580 0.92280 -0.97900
H 	H 	0.19060 0.11650 0.99080 0.18300
C 	C 	0.18209 0.03600 0.88500 0.43200
C 	C 	0.19592 0.02000 0.77940 -0.24000
C 	C 	0.14660 0.98650 0.74020 0.27300
C 	C 	0.14700 0.93010 0.65260 -0.09900
H 	H 	0.10720 0.91390 0.64090 0.06200
H 	H 	0.16250 0.94920 0.58820 0.01700
H 	H 	0.17160 0.89240 0.67480 0.00100
C 	C 	0.13030 0.96700 0.62640 -0.64900
H 	H 	0.14080 0.00400 0.57970 0.19100
H 	H 	0.15150 0.92610 0.60630 0.23200
H 	H 	0.08830 0.95860 0.62190 0.19700
C 	C 	0.90460 0.75000 0.12920 -0.07100
H 	H 	0.86610 0.75000 0.15590 0.05700
C 	C 	0.02074 0.75000 0.05380 -0.00400
H 	H 	0.05970 0.75000 0.02910 0.05400
C 	C 	0.59540 0.25000 0.62920 -0.10100
H 	H 	0.63390 0.25000 0.65590 0.06900
C 	C 	0.47926 0.25000 0.55380 0.04600
H 	H 	0.44030 0.25000 0.52910 0.03800
C 	C 	0.97070 0.25000 0.37040 -0.13700
H 	H 	0.95020 0.25000 0.43430 0.06400
C 	C 	0.03902 0.25000 0.19120 0.05700
H 	H 	0.06350 0.25000 0.13190 0.03500
C 	C 	0.52930 0.75000 0.87040 -0.12300
H 	H 	0.54980 0.75000 0.93430 0.05800
C 	C 	0.46098 0.75000 0.69120 0.04600
H 	H 	0.43650 0.75000 0.63190 0.04100
Cd	Cd	0.92476 0.98857 0.93856 1.21200
O 	O 	0.00093 0.06487 0.93090 -0.46600
O 	O 	0.92239 0.12420 0.98380 -0.33400
O 	O 	0.98763 0.93361 0.79640 -0.38100
O 	O 	0.91766 0.87762 0.88220 -0.43100
N 	N 	0.84534 0.03123 0.84060 -0.22600
N 	N 	0.81536 0.08355 0.88640 -0.22700
H 	H 	0.82800 0.11600 0.92400 0.13100
N 	N 	0.62819 0.01259 0.59230 -0.27600
N 	N 	0.60679 0.98260 0.67980 -0.19700
H 	H 	0.56900 0.96500 0.68800 0.12200
C 	C 	0.97493 0.12203 0.94880 0.29000
C 	C 	0.00711 0.18767 0.92850 -0.06900
C 	C 	0.06584 0.18754 0.89140 0.00100
H 	H 	0.08540 0.14600 0.88030 0.03500
C 	C 	0.95995 0.87846 0.81860 0.32000
C 	C 	0.97831 0.81166 0.76680 -0.12900
C 	C 	0.01397 0.81170 0.67730 0.05500
H 	H 	0.02760 0.85310 0.64940 0.00100
C 	C 	0.82200 0.94120 0.70820 -0.75400
H 	H 	0.84010 0.90660 0.75170 0.23500
H 	H 	0.84940 0.95520 0.65420 0.22100
H 	H 	0.78680 0.92280 0.67590 0.23200
C 	C 	0.80575 0.00190 0.77480 0.20900
C 	C 	0.75125 0.03720 0.77900 -0.14000
C 	C 	0.75888 0.08920 0.85120 0.24100
C 	C 	0.71600 0.14400 0.88830 -0.71900
H 	H 	0.73660 0.17650 0.93230 0.22400
H 	H 	0.68450 0.12290 0.92810 0.22000
H 	H 	0.69950 0.16740 0.82820 0.24300
C 	C 	0.72400 0.05550 0.54530 -0.49700
H 	H 	0.74330 0.01540 0.51690 0.05900
H 	H 	0.75290 0.08390 0.58030 1.64600
H 	H 	0.70590 0.08100 0.48890 0.65100
C 	C 	0.71700 0.08290 0.53910 -1.23700
H 	H 	0.73390 0.05560 0.48350 0.16900
H 	H 	0.74810 0.10580 0.57720 -1.10300
H 	H 	0.69060 0.11650 0.50920 0.19400
C 	C 	0.68209 0.03600 0.61500 0.48100
C 	C 	0.69592 0.02000 0.72060 -0.26700
C 	C 	0.64660 0.98650 0.75980 0.28800
C 	C 	0.64700 0.93010 0.84740 -0.10800
H 	H 	0.60720 0.91390 0.85910 0.06400
H 	H 	0.66250 0.94920 0.91180 0.01400
H 	H 	0.67160 0.89240 0.82520 0.00200
C 	C 	0.63030 0.96700 0.87360 -0.66700
H 	H 	0.64080 0.00400 0.92030 0.20100
H 	H 	0.65150 0.92610 0.89370 0.24400
H 	H 	0.58830 0.95860 0.87810 0.20000
Cd	Cd	0.57524 0.01143 0.43856 1.21600
O 	O 	0.49907 0.93513 0.43090 -0.48000
O 	O 	0.57761 0.87580 0.48380 -0.34000
O 	O 	0.51237 0.06639 0.29640 -0.37700
O 	O 	0.58234 0.12238 0.38220 -0.42700
N 	N 	0.65466 0.96877 0.34060 -0.22800
N 	N 	0.68464 0.91645 0.38640 -0.22800
H 	H 	0.67200 0.88400 0.42400 0.13100
N 	N 	0.87181 0.98741 0.09230 -0.26200
N 	N 	0.89321 0.01740 0.17980 -0.19600
H 	H 	0.93100 0.03500 0.18800 0.12200
C 	C 	0.52507 0.87797 0.44880 0.31700
C 	C 	0.49289 0.81233 0.42850 -0.11200
C 	C 	0.43416 0.81246 0.39140 0.03100
H 	H 	0.41460 0.85400 0.38030 0.02400
C 	C 	0.54005 0.12154 0.31860 0.31600
C 	C 	0.52169 0.18834 0.26680 -0.11600
C 	C 	0.48603 0.18830 0.17730 0.03900
H 	H 	0.47240 0.14690 0.14940 0.00500
C 	C 	0.67800 0.05880 0.20820 -0.75800
H 	H 	0.65990 0.09340 0.25170 0.23600
H 	H 	0.65060 0.04480 0.15420 0.22300
H 	H 	0.71320 0.07720 0.17590 0.23300
C 	C 	0.69425 0.99810 0.27480 0.21400
C 	C 	0.74875 0.96280 0.27900 -0.14800
C 	C 	0.74112 0.91080 0.35120 0.24300
C 	C 	0.78400 0.85600 0.38830 -0.72000
H 	H 	0.76340 0.82350 0.43230 0.22400
H 	H 	0.81550 0.87710 0.42810 0.22000
H 	H 	0.80050 0.83260 0.32820 0.24200
C 	C 	0.77600 0.94450 0.04530 -0.44000
H 	H 	0.75670 0.98460 0.01690 0.05900
H 	H 	0.74710 0.91610 0.08030 1.46500
H 	H 	0.79410 0.91900 0.98890 0.56900
C 	C 	0.78300 0.91710 0.03910 -1.10300
H 	H 	0.76610 0.94440 0.98350 0.14500
H 	H 	0.75190 0.89420 0.07720 -0.97900
H 	H 	0.80940 0.88350 0.00920 0.18300
C 	C 	0.81791 0.96400 0.11500 0.43200
C 	C 	0.80408 0.98000 0.22060 -0.24000
C 	C 	0.85340 0.01350 0.25980 0.27300
C 	C 	0.85300 0.06990 0.34740 -0.09900
H 	H 	0.89280 0.08610 0.35910 0.06200
H 	H 	0.83750 0.05080 0.41180 0.01700
H 	H 	0.82840 0.10760 0.32520 0.00100
C 	C 	0.86970 0.03300 0.37360 -0.64900
H 	H 	0.85920 0.99600 0.42030 0.19100
H 	H 	0.84850 0.07390 0.39370 0.23200
H 	H 	0.91170 0.04140 0.37810 0.19700
Cd	Cd	0.92476 0.51143 0.93856 1.21400
O 	O 	0.00093 0.43513 0.93090 -0.46900
O 	O 	0.92239 0.37580 0.98380 -0.33500
O 	O 	0.98763 0.56639 0.79640 -0.38100
O 	O 	0.91766 0.62238 0.88220 -0.43000
N 	N 	0.84534 0.46877 0.84060 -0.22700
N 	N 	0.81536 0.41645 0.88640 -0.22700
H 	H 	0.82800 0.38400 0.92400 0.13000
N 	N 	0.62819 0.48741 0.59230 -0.27700
N 	N 	0.60679 0.51740 0.67980 -0.19600
H 	H 	0.56900 0.53500 0.68800 0.12200
C 	C 	0.97493 0.37797 0.94880 0.29100
C 	C 	0.00711 0.31233 0.92850 -0.07000
C 	C 	0.06584 0.31246 0.89140 0.00100
H 	H 	0.08540 0.35400 0.88030 0.03500
C 	C 	0.95995 0.62154 0.81860 0.32000
C 	C 	0.97831 0.68834 0.76680 -0.12900
C 	C 	0.01397 0.68830 0.67730 0.05500
H 	H 	0.02760 0.64690 0.64940 0.00100
C 	C 	0.82200 0.55880 0.70820 -0.74100
H 	H 	0.84010 0.59340 0.75170 0.23100
H 	H 	0.84940 0.54480 0.65420 0.21800
H 	H 	0.78680 0.57720 0.67590 0.22800
C 	C 	0.80575 0.49810 0.77480 0.20100
C 	C 	0.75125 0.46280 0.77900 -0.13700
C 	C 	0.75888 0.41080 0.85120 0.23800
C 	C 	0.71600 0.35600 0.88830 -0.71600
H 	H 	0.73660 0.32350 0.93230 0.22200
H 	H 	0.68450 0.37710 0.92810 0.21800
H 	H 	0.69950 0.33260 0.82820 0.24200
C 	C 	0.72400 0.44450 0.54530 -0.49900
H 	H 	0.74330 0.48460 0.51690 0.05900
H 	H 	0.75290 0.41610 0.58030 1.65000
H 	H 	0.70590 0.41900 0.48890 0.65300
C 	C 	0.71700 0.41710 0.53910 -1.24100
H 	H 	0.73390 0.44440 0.48350 0.17000
H 	H 	0.74810 0.39420 0.57720 -1.10600
H 	H 	0.69060 0.38350 0.50920 0.19500
C 	C 	0.68209 0.46400 0.61500 0.48300
C 	C 	0.69592 0.48000 0.72060 -0.27100
C 	C 	0.64660 0.51350 0.75980 0.28700
C 	C 	0.64700 0.56990 0.84740 -0.10000
H 	H 	0.60720 0.58610 0.85910 0.06300
H 	H 	0.66250 0.55080 0.91180 0.02000
H 	H 	0.67160 0.60760 0.82520 0.00100
C 	C 	0.63030 0.53300 0.87360 -0.65600
H 	H 	0.64080 0.49600 0.92030 0.19200
H 	H 	0.65150 0.57390 0.89370 0.23200
H 	H 	0.58830 0.54140 0.87810 0.19800
Cd	Cd	0.57524 0.48857 0.43856 1.21600
O 	O 	0.49907 0.56487 0.43090 -0.48100
O 	O 	0.57761 0.62420 0.48380 -0.34000
O 	O 	0.51237 0.43361 0.29640 -0.37600
O 	O 	0.58234 0.37762 0.38220 -0.42700
N 	N 	0.65466 0.53123 0.34060 -0.22700
N 	N 	0.68464 0.58355 0.38640 -0.22700
H 	H 	0.67200 0.61600 0.42400 0.13100
N 	N 	0.87181 0.51259 0.09230 -0.27000
N 	N 	0.89321 0.48260 0.17980 -0.19500
H 	H 	0.93100 0.46500 0.18800 0.12300
C 	C 	0.52507 0.62203 0.44880 0.31800
C 	C 	0.49289 0.68767 0.42850 -0.11200
C 	C 	0.43416 0.68754 0.39140 0.03100
H 	H 	0.41460 0.64600 0.38030 0.02400
C 	C 	0.54005 0.37846 0.31860 0.31600
C 	C 	0.52169 0.31166 0.26680 -0.11600
C 	C 	0.48603 0.31170 0.17730 0.03900
H 	H 	0.47240 0.35310 0.14940 0.00600
C 	C 	0.67800 0.44120 0.20820 -0.74600
H 	H 	0.65990 0.40660 0.25170 0.23300
H 	H 	0.65060 0.45520 0.15420 0.22100
H 	H 	0.71320 0.42280 0.17590 0.23100
C 	C 	0.69425 0.50190 0.27480 0.20400
C 	C 	0.74875 0.53720 0.27900 -0.14100
C 	C 	0.74112 0.58920 0.35120 0.24000
C 	C 	0.78400 0.64400 0.38830 -0.71700
H 	H 	0.76340 0.67650 0.43230 0.22300
H 	H 	0.81550 0.62290 0.42810 0.21900
H 	H 	0.80050 0.66740 0.32820 0.24200
C 	C 	0.77600 0.55550 0.04530 -0.46700
H 	H 	0.75670 0.51540 0.01690 0.05800
H 	H 	0.74710 0.58390 0.08030 1.54900
H 	H 	0.79410 0.58100 0.98890 0.60700
C 	C 	0.78300 0.58290 0.03910 -1.16700
H 	H 	0.76610 0.55560 0.98350 0.15800
H 	H 	0.75190 0.60580 0.07720 -1.03600
H 	H 	0.80940 0.61650 0.00920 0.19000
C 	C 	0.81791 0.53600 0.11500 0.45600
C 	C 	0.80408 0.52000 0.22060 -0.25800
C 	C 	0.85340 0.48650 0.25980 0.28200
C 	C 	0.85300 0.43010 0.34740 -0.09800
H 	H 	0.89280 0.41390 0.35910 0.06300
H 	H 	0.83750 0.44920 0.41180 0.01900
H 	H 	0.82840 0.39240 0.32520 0.00100
C 	C 	0.86970 0.46700 0.37360 -0.65300
H 	H 	0.85920 0.50400 0.42030 0.19100
H 	H 	0.84850 0.42610 0.39370 0.23100
H 	H 	0.91170 0.45860 0.37810 0.19800
C 	C 	0.09540 0.25000 0.87080 -0.07100
H 	H 	0.13390 0.25000 0.84410 0.05700
C 	C 	0.97926 0.25000 0.94620 -0.00400
H 	H 	0.94030 0.25000 0.97090 0.05400
C 	C 	0.40460 0.75000 0.37080 -0.10100
H 	H 	0.36610 0.75000 0.34410 0.06900
C 	C 	0.52074 0.75000 0.44620 0.04600
H 	H 	0.55970 0.75000 0.47090 0.03800
C 	C 	0.02930 0.75000 0.62960 -0.13700
H 	H 	0.04980 0.75000 0.56570 0.06400
C 	C 	0.96098 0.75000 0.80880 0.05700
H 	H 	0.93650 0.75000 0.86810 0.03500
C 	C 	0.47070 0.25000 0.12960 -0.12300
H 	H 	0.45020 0.25000 0.06570 0.05800
C 	C 	0.53902 0.25000 0.30880 0.04600
H 	H 	0.56350 0.25000 0.36810 0.04100
