data_crystal

_cell_length_a 22.80700
_cell_length_b 25.24300
_cell_length_c 16.20400
_cell_angle_alpha 90.00000
_cell_angle_beta  133.80900
_cell_angle_gamma 90.00000

_symmetry_space_group_name_	'P 1'
_symmetry_space_group_name_H-M	'P 1'

loop_
_symmetry_equiv_pos_as_xyz
  x,y,z

loop_
_atom_site_label
_atom_site_type_symbol
_atom_site_fract_x
_atom_site_fract_y
_atom_site_fract_z
_atom_site_charge
C 	C 	0.27803 0.01213 0.75320 0.23700
C 	C 	0.92287 0.94885 0.59130 0.41300
C 	C 	0.92043 0.09462 0.60000 0.42600
C 	C 	0.20648 0.98420 0.67040 -0.24500
H 	H 	0.19980 0.96350 0.61700 0.14800
C 	C 	0.14584 0.98780 0.66900 0.14800
H 	H 	0.09760 0.96970 0.61210 -0.01200
C 	C 	0.87290 0.90744 0.49850 -0.15600
C 	C 	0.87573 0.14116 0.52050 -0.19600
C 	C 	0.22135 0.04230 0.82520 0.13500
H 	H 	0.22680 0.06180 0.87890 -0.00700
C 	C 	0.89825 0.88712 0.44730 0.09800
H 	H 	0.94610 0.89960 0.47020 0.01800
C 	C 	0.79960 0.88983 0.46000 0.10600
H 	H 	0.78090 0.90400 0.49110 0.01300
C 	C 	0.85320 0.84853 0.36250 -0.18900
H 	H 	0.87060 0.83500 0.32920 0.11100
C 	C 	0.28499 0.04195 0.83210 -0.24100
H 	H 	0.33190 0.06130 0.88850 0.11600
C 	C 	0.79240 0.22683 0.37220 0.20500
C 	C 	0.80920 0.16207 0.49350 0.14900
H 	H 	0.79090 0.14730 0.52480 0.00200
C 	C 	0.78190 0.83070 0.32880 0.16800
C 	C 	0.34750 0.98851 0.69030 0.23100
C 	C 	0.75460 0.85166 0.37630 -0.19200
H 	H 	0.70590 0.83990 0.35170 0.10500
C 	C 	0.89950 0.16334 0.46990 0.14400
H 	H 	0.94370 0.14920 0.48480 -0.00400
C 	C 	0.76820 0.20495 0.42020 -0.23700
H 	H 	0.72340 0.21880 0.40400 0.12300
C 	C 	0.42800 0.99421 0.72470 -0.04700
C 	C 	0.50100 0.99490 0.83550 -0.03000
H 	H 	0.50270 0.99580 0.89450 0.03400
C 	C 	0.85900 0.20593 0.39780 -0.23000
H 	H 	0.87680 0.22080 0.36580 0.12400
C 	C 	0.42710 0.99430 0.63920 -0.03200
H 	H 	0.37760 0.99390 0.56320 0.05300
H 	H 	0.38300 0.03020 0.81200 0.15800
N 	N 	0.74264 0.27014 0.29300 -0.10300
N 	N 	0.73022 0.78936 0.24420 -0.09900
N 	N 	0.15186 0.01582 0.74458 -0.27300
N 	N 	0.34371 0.01252 0.76210 -0.28600
O 	O 	0.89721 0.96532 0.63410 -0.46400
O 	O 	0.98757 0.96303 0.61974 -0.46200
O 	O 	0.89714 0.07937 0.64722 -0.46800
O 	O 	0.97719 0.07503 0.61434 -0.46100
O 	O 	0.29202 0.96453 0.60480 -0.23700
Zn	Zn	0.06011 0.01967 0.73900 1.21600
C 	C 	0.77803 0.51213 0.75320 0.23700
C 	C 	0.42287 0.44885 0.59130 0.41200
C 	C 	0.42043 0.59462 0.60000 0.42500
C 	C 	0.70648 0.48420 0.67040 -0.24700
H 	H 	0.69980 0.46350 0.61700 0.14800
C 	C 	0.64584 0.48780 0.66900 0.14600
H 	H 	0.59760 0.46970 0.61210 -0.01200
C 	C 	0.37290 0.40744 0.49850 -0.15600
C 	C 	0.37573 0.64116 0.52050 -0.19700
C 	C 	0.72135 0.54230 0.82520 0.13400
H 	H 	0.72680 0.56180 0.87890 -0.00800
C 	C 	0.39825 0.38712 0.44730 0.09700
H 	H 	0.44610 0.39960 0.47020 0.01700
C 	C 	0.29960 0.38983 0.46000 0.10500
H 	H 	0.28090 0.40400 0.49110 0.01300
C 	C 	0.35320 0.34853 0.36250 -0.18800
H 	H 	0.37060 0.33500 0.32920 0.11100
C 	C 	0.78499 0.54195 0.83210 -0.24200
H 	H 	0.83190 0.56130 0.88850 0.11600
C 	C 	0.29240 0.72683 0.37220 0.20500
C 	C 	0.30920 0.66207 0.49350 0.14900
H 	H 	0.29090 0.64730 0.52480 0.00200
C 	C 	0.28190 0.33070 0.32880 0.16800
C 	C 	0.84750 0.48851 0.69030 0.23100
C 	C 	0.25460 0.35166 0.37630 -0.19200
H 	H 	0.20590 0.33990 0.35170 0.10500
C 	C 	0.39950 0.66334 0.46990 0.14400
H 	H 	0.44370 0.64920 0.48480 -0.00400
C 	C 	0.26820 0.70495 0.42020 -0.23700
H 	H 	0.22340 0.71880 0.40400 0.12300
C 	C 	0.92800 0.49421 0.72470 -0.05100
C 	C 	0.00100 0.49490 0.83550 -0.02600
H 	H 	0.00270 0.49580 0.89450 0.03300
C 	C 	0.35900 0.70593 0.39780 -0.23000
H 	H 	0.37680 0.72080 0.36580 0.12300
C 	C 	0.92710 0.49430 0.63920 -0.02900
H 	H 	0.87760 0.49390 0.56320 0.05200
H 	H 	0.88300 0.53020 0.81200 0.15800
N 	N 	0.24264 0.77014 0.29300 -0.10400
N 	N 	0.23022 0.28936 0.24420 -0.09900
N 	N 	0.65186 0.51582 0.74458 -0.27200
N 	N 	0.84371 0.51252 0.76210 -0.28600
O 	O 	0.39721 0.46532 0.63410 -0.46400
O 	O 	0.48757 0.46303 0.61974 -0.46200
O 	O 	0.39714 0.57937 0.64722 -0.46800
O 	O 	0.47719 0.57503 0.61434 -0.46100
O 	O 	0.79202 0.46453 0.60480 -0.23800
Zn	Zn	0.56011 0.51967 0.73900 1.21600
C 	C 	0.72197 0.01213 0.74680 0.23700
C 	C 	0.07713 0.94885 0.90870 0.41500
C 	C 	0.07957 0.09462 0.90000 0.42500
C 	C 	0.79352 0.98420 0.82960 -0.24700
H 	H 	0.80020 0.96350 0.88300 0.14700
C 	C 	0.85416 0.98780 0.83100 0.14700
H 	H 	0.90240 0.96970 0.88790 -0.01300
C 	C 	0.12710 0.90744 0.00150 -0.16000
C 	C 	0.12427 0.14116 0.97950 -0.19600
C 	C 	0.77865 0.04230 0.67480 0.13400
H 	H 	0.77320 0.06180 0.62110 -0.00800
C 	C 	0.10175 0.88712 0.05270 0.09900
H 	H 	0.05390 0.89960 0.02980 0.01600
C 	C 	0.20040 0.88983 0.04000 0.10700
H 	H 	0.21910 0.90400 0.00890 0.01200
C 	C 	0.14680 0.84853 0.13750 -0.19000
H 	H 	0.12940 0.83500 0.17080 0.11200
C 	C 	0.71501 0.04195 0.66790 -0.24200
H 	H 	0.66810 0.06130 0.61150 0.11600
C 	C 	0.20760 0.22683 0.12780 0.20400
C 	C 	0.19080 0.16207 0.00650 0.14800
H 	H 	0.20910 0.14730 0.97520 0.00300
C 	C 	0.21810 0.83070 0.17120 0.16900
C 	C 	0.65250 0.98851 0.80970 0.23100
C 	C 	0.24540 0.85166 0.12370 -0.19400
H 	H 	0.29410 0.83990 0.14830 0.10500
C 	C 	0.10050 0.16334 0.03010 0.14200
H 	H 	0.05630 0.14920 0.01520 -0.00300
C 	C 	0.23180 0.20495 0.07980 -0.23600
H 	H 	0.27660 0.21880 0.09600 0.12300
C 	C 	0.57200 0.99421 0.77530 -0.04700
C 	C 	0.49900 0.99490 0.66450 -0.03000
H 	H 	0.49730 0.99580 0.60550 0.03400
C 	C 	0.14100 0.20593 0.10220 -0.22900
H 	H 	0.12320 0.22080 0.13420 0.12300
C 	C 	0.57290 0.99430 0.86080 -0.03200
H 	H 	0.62240 0.99390 0.93680 0.05400
H 	H 	0.61700 0.03020 0.68800 0.15800
N 	N 	0.25736 0.27014 0.20700 -0.10300
N 	N 	0.26978 0.78936 0.25580 -0.09900
N 	N 	0.84814 0.01582 0.75542 -0.27300
N 	N 	0.65629 0.01252 0.73790 -0.28600
O 	O 	0.10279 0.96532 0.86590 -0.46400
O 	O 	0.01243 0.96303 0.88026 -0.46100
O 	O 	0.10286 0.07937 0.85278 -0.46800
O 	O 	0.02281 0.07503 0.88566 -0.46100
O 	O 	0.70798 0.96453 0.89520 -0.23700
Zn	Zn	0.93989 0.01967 0.76100 1.21600
C 	C 	0.22197 0.51213 0.74680 0.23700
C 	C 	0.57713 0.44885 0.90870 0.41200
C 	C 	0.57957 0.59462 0.90000 0.42500
C 	C 	0.29352 0.48420 0.82960 -0.24700
H 	H 	0.30020 0.46350 0.88300 0.14800
C 	C 	0.35416 0.48780 0.83100 0.14600
H 	H 	0.40240 0.46970 0.88790 -0.01200
C 	C 	0.62710 0.40744 0.00150 -0.15500
C 	C 	0.62427 0.64116 0.97950 -0.19800
C 	C 	0.27865 0.54230 0.67480 0.13500
H 	H 	0.27320 0.56180 0.62110 -0.00800
C 	C 	0.60175 0.38712 0.05270 0.09700
H 	H 	0.55390 0.39960 0.02980 0.01700
C 	C 	0.70040 0.38983 0.04000 0.10500
H 	H 	0.71910 0.40400 0.00890 0.01400
C 	C 	0.64680 0.34853 0.13750 -0.18800
H 	H 	0.62940 0.33500 0.17080 0.11100
C 	C 	0.21501 0.54195 0.66790 -0.24200
H 	H 	0.16810 0.56130 0.61150 0.11600
C 	C 	0.70760 0.72683 0.12780 0.20600
C 	C 	0.69080 0.66207 0.00650 0.15100
H 	H 	0.70910 0.64730 0.97520 0.00100
C 	C 	0.71810 0.33070 0.17120 0.16800
C 	C 	0.15250 0.48851 0.80970 0.23000
C 	C 	0.74540 0.35166 0.12370 -0.19200
H 	H 	0.79410 0.33990 0.14830 0.10500
C 	C 	0.60050 0.66334 0.03010 0.14500
H 	H 	0.55630 0.64920 0.01520 -0.00400
C 	C 	0.73180 0.70495 0.07980 -0.23800
H 	H 	0.77660 0.71880 0.09600 0.12400
C 	C 	0.07200 0.49421 0.77530 -0.04400
C 	C 	0.99900 0.49490 0.66450 -0.03400
H 	H 	0.99730 0.49580 0.60550 0.03500
C 	C 	0.64100 0.70593 0.10220 -0.23000
H 	H 	0.62320 0.72080 0.13420 0.12400
C 	C 	0.07290 0.49430 0.86080 -0.03500
H 	H 	0.12240 0.49390 0.93680 0.05500
H 	H 	0.11700 0.53020 0.68800 0.15800
N 	N 	0.75736 0.77014 0.20700 -0.10400
N 	N 	0.76978 0.28936 0.25580 -0.09800
N 	N 	0.34814 0.51582 0.75542 -0.27200
N 	N 	0.15629 0.51252 0.73790 -0.28600
O 	O 	0.60279 0.46532 0.86590 -0.46400
O 	O 	0.51243 0.46303 0.88026 -0.46200
O 	O 	0.60286 0.57937 0.85278 -0.46800
O 	O 	0.52281 0.57503 0.88566 -0.46100
O 	O 	0.20798 0.46453 0.89520 -0.23700
Zn	Zn	0.43989 0.51967 0.76100 1.21600
C 	C 	0.72197 0.98787 0.24680 0.23600
C 	C 	0.07713 0.05115 0.40870 0.41200
C 	C 	0.07957 0.90538 0.40000 0.42500
C 	C 	0.79352 0.01580 0.32960 -0.24600
H 	H 	0.80020 0.03650 0.38300 0.14700
C 	C 	0.85416 0.01220 0.33100 0.14700
H 	H 	0.90240 0.03030 0.38790 -0.01300
C 	C 	0.12710 0.09256 0.50150 -0.15700
C 	C 	0.12427 0.85884 0.47950 -0.19700
C 	C 	0.77865 0.95770 0.17480 0.13400
H 	H 	0.77320 0.93820 0.12110 -0.00800
C 	C 	0.10175 0.11288 0.55270 0.09700
H 	H 	0.05390 0.10040 0.52980 0.01700
C 	C 	0.20040 0.11017 0.54000 0.10500
H 	H 	0.21910 0.09600 0.50890 0.01300
C 	C 	0.14680 0.15147 0.63750 -0.18900
H 	H 	0.12940 0.16500 0.67080 0.11100
C 	C 	0.71501 0.95805 0.16790 -0.24100
H 	H 	0.66810 0.93870 0.11150 0.11600
C 	C 	0.20760 0.77317 0.62780 0.20500
C 	C 	0.19080 0.83793 0.50650 0.14900
H 	H 	0.20910 0.85270 0.47520 0.00200
C 	C 	0.21810 0.16930 0.67120 0.16800
C 	C 	0.65250 0.01149 0.30970 0.23100
C 	C 	0.24540 0.14834 0.62370 -0.19200
H 	H 	0.29410 0.16010 0.64830 0.10500
C 	C 	0.10050 0.83666 0.53010 0.14400
H 	H 	0.05630 0.85080 0.51520 -0.00400
C 	C 	0.23180 0.79505 0.57980 -0.23700
H 	H 	0.27660 0.78120 0.59600 0.12300
C 	C 	0.57200 0.00579 0.27530 -0.04700
C 	C 	0.49900 0.00510 0.16450 -0.03000
H 	H 	0.49730 0.00420 0.10550 0.03400
C 	C 	0.14100 0.79407 0.60220 -0.23000
H 	H 	0.12320 0.77920 0.63420 0.12400
C 	C 	0.57290 0.00570 0.36080 -0.03200
H 	H 	0.62240 0.00610 0.43680 0.05300
H 	H 	0.61700 0.96980 0.18800 0.15800
N 	N 	0.25736 0.72986 0.70700 -0.10300
N 	N 	0.26978 0.21064 0.75580 -0.09900
N 	N 	0.84814 0.98418 0.25542 -0.27300
N 	N 	0.65629 0.98748 0.23790 -0.28600
O 	O 	0.10279 0.03468 0.36590 -0.46400
O 	O 	0.01243 0.03697 0.38026 -0.46200
O 	O 	0.10286 0.92063 0.35278 -0.46800
O 	O 	0.02281 0.92497 0.38566 -0.46100
O 	O 	0.70798 0.03547 0.39520 -0.23700
Zn	Zn	0.93989 0.98033 0.26100 1.21600
C 	C 	0.22197 0.48787 0.24680 0.23700
C 	C 	0.57713 0.55115 0.40870 0.41200
C 	C 	0.57957 0.40538 0.40000 0.42500
C 	C 	0.29352 0.51580 0.32960 -0.24700
H 	H 	0.30020 0.53650 0.38300 0.14800
C 	C 	0.35416 0.51220 0.33100 0.14600
H 	H 	0.40240 0.53030 0.38790 -0.01200
C 	C 	0.62710 0.59256 0.50150 -0.15600
C 	C 	0.62427 0.35884 0.47950 -0.19700
C 	C 	0.27865 0.45770 0.17480 0.13400
H 	H 	0.27320 0.43820 0.12110 -0.00800
C 	C 	0.60175 0.61288 0.55270 0.09700
H 	H 	0.55390 0.60040 0.52980 0.01700
C 	C 	0.70040 0.61017 0.54000 0.10500
H 	H 	0.71910 0.59600 0.50890 0.01300
C 	C 	0.64680 0.65147 0.63750 -0.18800
H 	H 	0.62940 0.66500 0.67080 0.11100
C 	C 	0.21501 0.45805 0.16790 -0.24200
H 	H 	0.16810 0.43870 0.11150 0.11600
C 	C 	0.70760 0.27317 0.62780 0.20500
C 	C 	0.69080 0.33793 0.50650 0.14900
H 	H 	0.70910 0.35270 0.47520 0.00200
C 	C 	0.71810 0.66930 0.67120 0.16800
C 	C 	0.15250 0.51149 0.30970 0.23100
C 	C 	0.74540 0.64834 0.62370 -0.19200
H 	H 	0.79410 0.66010 0.64830 0.10500
C 	C 	0.60050 0.33666 0.53010 0.14400
H 	H 	0.55630 0.35080 0.51520 -0.00400
C 	C 	0.73180 0.29505 0.57980 -0.23700
H 	H 	0.77660 0.28120 0.59600 0.12300
C 	C 	0.07200 0.50579 0.27530 -0.05100
C 	C 	0.99900 0.50510 0.16450 -0.02600
H 	H 	0.99730 0.50420 0.10550 0.03300
C 	C 	0.64100 0.29407 0.60220 -0.23000
H 	H 	0.62320 0.27920 0.63420 0.12300
C 	C 	0.07290 0.50570 0.36080 -0.02900
H 	H 	0.12240 0.50610 0.43680 0.05200
H 	H 	0.11700 0.46980 0.18800 0.15800
N 	N 	0.75736 0.22986 0.70700 -0.10400
N 	N 	0.76978 0.71064 0.75580 -0.09900
N 	N 	0.34814 0.48418 0.25542 -0.27200
N 	N 	0.15629 0.48748 0.23790 -0.28600
O 	O 	0.60279 0.53468 0.36590 -0.46400
O 	O 	0.51243 0.53697 0.38026 -0.46200
O 	O 	0.60286 0.42063 0.35278 -0.46800
O 	O 	0.52281 0.42497 0.38566 -0.46100
O 	O 	0.20798 0.53547 0.39520 -0.23800
Zn	Zn	0.43989 0.48033 0.26100 1.21600
C 	C 	0.27803 0.98787 0.25320 0.23700
C 	C 	0.92287 0.05115 0.09130 0.41500
C 	C 	0.92043 0.90538 0.10000 0.42500
C 	C 	0.20648 0.01580 0.17040 -0.24700
H 	H 	0.19980 0.03650 0.11700 0.14700
C 	C 	0.14584 0.01220 0.16900 0.14700
H 	H 	0.09760 0.03030 0.11210 -0.01300
C 	C 	0.87290 0.09256 0.99850 -0.16000
C 	C 	0.87573 0.85884 0.02050 -0.19600
C 	C 	0.22135 0.95770 0.32520 0.13400
H 	H 	0.22680 0.93820 0.37890 -0.00800
C 	C 	0.89825 0.11288 0.94730 0.09900
H 	H 	0.94610 0.10040 0.97020 0.01600
C 	C 	0.79960 0.11017 0.96000 0.10700
H 	H 	0.78090 0.09600 0.99110 0.01200
C 	C 	0.85320 0.15147 0.86250 -0.19000
H 	H 	0.87060 0.16500 0.82920 0.11200
C 	C 	0.28499 0.95805 0.33210 -0.24200
H 	H 	0.33190 0.93870 0.38850 0.11600
C 	C 	0.79240 0.77317 0.87220 0.20400
C 	C 	0.80920 0.83793 0.99350 0.14800
H 	H 	0.79090 0.85270 0.02480 0.00300
C 	C 	0.78190 0.16930 0.82880 0.16900
C 	C 	0.34750 0.01149 0.19030 0.23100
C 	C 	0.75460 0.14834 0.87630 -0.19400
H 	H 	0.70590 0.16010 0.85170 0.10500
C 	C 	0.89950 0.83666 0.96990 0.14200
H 	H 	0.94370 0.85080 0.98480 -0.00300
C 	C 	0.76820 0.79505 0.92020 -0.23600
H 	H 	0.72340 0.78120 0.90400 0.12300
C 	C 	0.42800 0.00579 0.22470 -0.04700
C 	C 	0.50100 0.00510 0.33550 -0.03000
H 	H 	0.50270 0.00420 0.39450 0.03400
C 	C 	0.85900 0.79407 0.89780 -0.22900
H 	H 	0.87680 0.77920 0.86580 0.12300
C 	C 	0.42710 0.00570 0.13920 -0.03200
H 	H 	0.37760 0.00610 0.06320 0.05400
H 	H 	0.38300 0.96980 0.31200 0.15800
N 	N 	0.74264 0.72986 0.79300 -0.10300
N 	N 	0.73022 0.21064 0.74420 -0.09900
N 	N 	0.15186 0.98418 0.24458 -0.27300
N 	N 	0.34371 0.98748 0.26210 -0.28600
O 	O 	0.89721 0.03468 0.13410 -0.46400
O 	O 	0.98757 0.03697 0.11974 -0.46100
O 	O 	0.89714 0.92063 0.14722 -0.46800
O 	O 	0.97719 0.92497 0.11434 -0.46100
O 	O 	0.29202 0.03547 0.10480 -0.23700
Zn	Zn	0.06011 0.98033 0.23900 1.21600
C 	C 	0.77803 0.48787 0.25320 0.23700
C 	C 	0.42287 0.55115 0.09130 0.41200
C 	C 	0.42043 0.40538 0.10000 0.42500
C 	C 	0.70648 0.51580 0.17040 -0.24700
H 	H 	0.69980 0.53650 0.11700 0.14800
C 	C 	0.64584 0.51220 0.16900 0.14600
H 	H 	0.59760 0.53030 0.11210 -0.01200
C 	C 	0.37290 0.59256 0.99850 -0.15500
C 	C 	0.37573 0.35884 0.02050 -0.19800
C 	C 	0.72135 0.45770 0.32520 0.13500
H 	H 	0.72680 0.43820 0.37890 -0.00800
C 	C 	0.39825 0.61288 0.94730 0.09700
H 	H 	0.44610 0.60040 0.97020 0.01700
C 	C 	0.29960 0.61017 0.96000 0.10500
H 	H 	0.28090 0.59600 0.99110 0.01400
C 	C 	0.35320 0.65147 0.86250 -0.18800
H 	H 	0.37060 0.66500 0.82920 0.11100
C 	C 	0.78499 0.45805 0.33210 -0.24200
H 	H 	0.83190 0.43870 0.38850 0.11600
C 	C 	0.29240 0.27317 0.87220 0.20600
C 	C 	0.30920 0.33793 0.99350 0.15100
H 	H 	0.29090 0.35270 0.02480 0.00100
C 	C 	0.28190 0.66930 0.82880 0.16800
C 	C 	0.84750 0.51149 0.19030 0.23000
C 	C 	0.25460 0.64834 0.87630 -0.19200
H 	H 	0.20590 0.66010 0.85170 0.10500
C 	C 	0.39950 0.33666 0.96990 0.14500
H 	H 	0.44370 0.35080 0.98480 -0.00400
C 	C 	0.26820 0.29505 0.92020 -0.23800
H 	H 	0.22340 0.28120 0.90400 0.12400
C 	C 	0.92800 0.50579 0.22470 -0.04400
C 	C 	0.00100 0.50510 0.33550 -0.03400
H 	H 	0.00270 0.50420 0.39450 0.03500
C 	C 	0.35900 0.29407 0.89780 -0.23000
H 	H 	0.37680 0.27920 0.86580 0.12400
C 	C 	0.92710 0.50570 0.13920 -0.03500
H 	H 	0.87760 0.50610 0.06320 0.05500
H 	H 	0.88300 0.46980 0.31200 0.15800
N 	N 	0.24264 0.22986 0.79300 -0.10400
N 	N 	0.23022 0.71064 0.74420 -0.09800
N 	N 	0.65186 0.48418 0.24458 -0.27200
N 	N 	0.84371 0.48748 0.26210 -0.28600
O 	O 	0.39721 0.53468 0.13410 -0.46400
O 	O 	0.48757 0.53697 0.11974 -0.46200
O 	O 	0.39714 0.42063 0.14722 -0.46800
O 	O 	0.47719 0.42497 0.11434 -0.46100
O 	O 	0.79202 0.53547 0.10480 -0.23700
Zn	Zn	0.56011 0.48033 0.23900 1.21600
