data_crystal

_cell_length_a 10.30400
_cell_length_b 12.58200
_cell_length_c 17.04000
_cell_angle_alpha 90.00000
_cell_angle_beta  98.60000
_cell_angle_gamma 90.00000

_symmetry_space_group_name_	'P 1'
_symmetry_space_group_name_H-M	'P 1'

loop_
_symmetry_equiv_pos_as_xyz
  x,y,z

loop_
_atom_site_label
_atom_site_type_symbol
_atom_site_fract_x
_atom_site_fract_y
_atom_site_fract_z
_atom_site_charge
Zn	Zn	0.88337 0.87255 0.47348 1.21800
O 	O 	0.87180 0.49454 0.91243 -0.50000
O 	O 	0.05270 0.39670 0.91231 -0.47500
O 	O 	0.14230 0.22380 0.66577 -0.31900
O 	O 	0.99010 0.23060 0.55948 -0.43400
N 	N 	0.70110 0.82150 0.48271 -0.26500
N 	N 	0.54080 0.72140 0.51690 -0.21500
H 	H 	0.50240 0.67040 0.53790 0.12300
S 	S 	0.79362 0.65431 0.57199 -0.03900
C 	C 	0.67190 0.73560 0.52140 0.11500
C 	C 	0.58040 0.86580 0.45050 0.05200
C 	C 	0.55160 0.95760 0.40520 -0.10500
H 	H 	0.61720 0.00030 0.39000 0.07100
C 	C 	0.41820 0.98170 0.38400 -0.01900
H 	H 	0.39510 0.04210 0.35360 0.04100
C 	C 	0.32010 0.91950 0.40630 -0.01600
H 	H 	0.23310 0.93940 0.39100 0.03500
C 	C 	0.34750 0.82940 0.45030 -0.11000
H 	H 	0.28120 0.78700 0.46500 0.07900
C 	C 	0.48000 0.80410 0.47220 0.08100
C 	C 	0.70030 0.55170 0.61385 -0.19400
H 	H 	0.64170 0.58330 0.64690 0.09000
H 	H 	0.64830 0.51140 0.57190 0.08500
C 	C 	0.79860 0.48070 0.66267 0.09200
C 	C 	0.82610 0.49220 0.74457 -0.07700
H 	H 	0.78110 0.54280 0.76980 0.07300
C 	C 	0.92060 0.42870 0.78939 -0.06600
C 	C 	0.98980 0.35430 0.75138 -0.01400
H 	H 	0.05530 0.31380 0.78080 0.06200
C 	C 	0.96150 0.34030 0.66941 -0.03400
C 	C 	0.86560 0.40310 0.62562 -0.08900
H 	H 	0.84580 0.39340 0.57100 0.07600
C 	C 	0.03710 0.25890 0.62978 0.29100
C 	C 	0.95050 0.44190 0.87835 0.38400
Zn	Zn	0.11663 0.37255 0.02652 1.21800
O 	O 	0.12820 0.99454 0.58757 -0.49900
O 	O 	0.94730 0.89670 0.58769 -0.48700
O 	O 	0.85770 0.72380 0.83423 -0.31700
O 	O 	0.00990 0.73060 0.94052 -0.42700
N 	N 	0.29890 0.32150 0.01729 -0.26600
N 	N 	0.45920 0.22140 0.98310 -0.21600
H 	H 	0.49760 0.17040 0.96210 0.12300
S 	S 	0.20638 0.15431 0.92801 -0.04000
C 	C 	0.32810 0.23560 0.97860 0.11700
C 	C 	0.41960 0.36580 0.04950 0.05000
C 	C 	0.44840 0.45760 0.09480 -0.09900
H 	H 	0.38280 0.50030 0.11000 0.06800
C 	C 	0.58180 0.48170 0.11600 -0.02600
H 	H 	0.60490 0.54210 0.14640 0.04500
C 	C 	0.67990 0.41950 0.09370 -0.01200
H 	H 	0.76690 0.43940 0.10900 0.03300
C 	C 	0.65250 0.32940 0.04970 -0.11300
H 	H 	0.71880 0.28700 0.03500 0.08100
C 	C 	0.52000 0.30410 0.02780 0.08300
C 	C 	0.29970 0.05170 0.88615 -0.19500
H 	H 	0.35830 0.08330 0.85310 0.09000
H 	H 	0.35170 0.01140 0.92810 0.08400
C 	C 	0.20140 0.98070 0.83733 0.09000
C 	C 	0.17390 0.99220 0.75543 -0.06600
H 	H 	0.21890 0.04280 0.73020 0.06700
C 	C 	0.07940 0.92870 0.71061 -0.07700
C 	C 	0.01020 0.85430 0.74862 0.00500
H 	H 	0.94470 0.81380 0.71920 0.05100
C 	C 	0.03850 0.84030 0.83059 -0.03200
C 	C 	0.13440 0.90310 0.87438 -0.08700
H 	H 	0.15420 0.89340 0.92900 0.07700
C 	C 	0.96290 0.75890 0.87022 0.27900
C 	C 	0.04950 0.94190 0.62165 0.40000
Zn	Zn	0.11663 0.12745 0.52652 1.21900
O 	O 	0.12820 0.50546 0.08757 -0.49900
O 	O 	0.94730 0.60330 0.08769 -0.47500
O 	O 	0.85770 0.77620 0.33423 -0.31900
O 	O 	0.00990 0.76940 0.44052 -0.43400
N 	N 	0.29890 0.17850 0.51729 -0.26500
N 	N 	0.45920 0.27860 0.48310 -0.21500
H 	H 	0.49760 0.32960 0.46210 0.12300
S 	S 	0.20638 0.34569 0.42801 -0.03900
C 	C 	0.32810 0.26440 0.47860 0.11500
C 	C 	0.41960 0.13420 0.54950 0.05200
C 	C 	0.44840 0.04240 0.59480 -0.10500
H 	H 	0.38280 0.99970 0.61000 0.07100
C 	C 	0.58180 0.01830 0.61600 -0.01900
H 	H 	0.60490 0.95790 0.64640 0.04100
C 	C 	0.67990 0.08050 0.59370 -0.01600
H 	H 	0.76690 0.06060 0.60900 0.03500
C 	C 	0.65250 0.17060 0.54970 -0.11000
H 	H 	0.71880 0.21300 0.53500 0.07900
C 	C 	0.52000 0.19590 0.52780 0.08100
C 	C 	0.29970 0.44830 0.38615 -0.19400
H 	H 	0.35830 0.41670 0.35310 0.09000
H 	H 	0.35170 0.48860 0.42810 0.08500
C 	C 	0.20140 0.51930 0.33733 0.09200
C 	C 	0.17390 0.50780 0.25543 -0.07700
H 	H 	0.21890 0.45720 0.23020 0.07300
C 	C 	0.07940 0.57130 0.21061 -0.06600
C 	C 	0.01020 0.64570 0.24862 -0.01400
H 	H 	0.94470 0.68620 0.21920 0.06200
C 	C 	0.03850 0.65970 0.33059 -0.03400
C 	C 	0.13440 0.59690 0.37438 -0.08900
H 	H 	0.15420 0.60660 0.42900 0.07600
C 	C 	0.96290 0.74110 0.37022 0.29100
C 	C 	0.04950 0.55810 0.12165 0.38400
Zn	Zn	0.88337 0.62745 0.97348 1.21800
O 	O 	0.87180 0.00546 0.41243 -0.49900
O 	O 	0.05270 0.10330 0.41231 -0.48700
O 	O 	0.14230 0.27620 0.16577 -0.31700
O 	O 	0.99010 0.26940 0.05948 -0.42700
N 	N 	0.70110 0.67850 0.98271 -0.26600
N 	N 	0.54080 0.77860 0.01690 -0.21600
H 	H 	0.50240 0.82960 0.03790 0.12300
S 	S 	0.79362 0.84569 0.07199 -0.04000
C 	C 	0.67190 0.76440 0.02140 0.11700
C 	C 	0.58040 0.63420 0.95050 0.05000
C 	C 	0.55160 0.54240 0.90520 -0.09900
H 	H 	0.61720 0.49970 0.89000 0.06800
C 	C 	0.41820 0.51830 0.88400 -0.02600
H 	H 	0.39510 0.45790 0.85360 0.04500
C 	C 	0.32010 0.58050 0.90630 -0.01200
H 	H 	0.23310 0.56060 0.89100 0.03300
C 	C 	0.34750 0.67060 0.95030 -0.11300
H 	H 	0.28120 0.71300 0.96500 0.08100
C 	C 	0.48000 0.69590 0.97220 0.08300
C 	C 	0.70030 0.94830 0.11385 -0.19500
H 	H 	0.64170 0.91670 0.14690 0.09000
H 	H 	0.64830 0.98860 0.07190 0.08400
C 	C 	0.79860 0.01930 0.16267 0.09000
C 	C 	0.82610 0.00780 0.24457 -0.06600
H 	H 	0.78110 0.95720 0.26980 0.06700
C 	C 	0.92060 0.07130 0.28939 -0.07700
C 	C 	0.98980 0.14570 0.25138 0.00500
H 	H 	0.05530 0.18620 0.28080 0.05100
C 	C 	0.96150 0.15970 0.16941 -0.03200
C 	C 	0.86560 0.09690 0.12562 -0.08700
H 	H 	0.84580 0.10660 0.07100 0.07700
C 	C 	0.03710 0.24110 0.12978 0.27900
C 	C 	0.95050 0.05810 0.37835 0.40000
