data_crystal

_cell_length_a 15.73770
_cell_length_b 21.12540
_cell_length_c 11.74870
_cell_angle_alpha 90.00000
_cell_angle_beta  90.00000
_cell_angle_gamma 90.00000

_symmetry_space_group_name_	'P 1'
_symmetry_space_group_name_H-M	'P 1'

loop_
_symmetry_equiv_pos_as_xyz
  x,y,z

loop_
_atom_site_label
_atom_site_type_symbol
_atom_site_fract_x
_atom_site_fract_y
_atom_site_fract_z
_atom_site_charge
Cd	Cd	0.25157 0.41183 0.36997 1.22900
C 	C 	0.25340 0.41260 0.93210 0.07100
N 	N 	0.24610 0.41060 0.17110 -0.22600
N 	N 	0.26290 0.41330 0.56830 -0.21500
C 	C 	0.25910 0.41270 0.81060 0.01500
O 	O 	0.78360 0.48020 0.35640 -0.37700
O 	O 	0.87440 0.14050 0.65990 -0.43300
O 	O 	0.64720 0.49660 0.38380 -0.50100
O 	O 	0.99720 0.11020 0.58370 -0.40700
C 	C 	0.70960 0.46070 0.36920 0.35000
C 	C 	0.22380 0.46070 0.11390 0.08000
H 	H 	0.20480 0.49580 0.15450 -0.00200
C 	C 	0.47130 0.45000 0.13780 0.05700
H 	H 	0.44890 0.41590 0.17790 0.00400
C 	C 	0.47380 0.44720 0.02000 -0.11700
H 	H 	0.45820 0.41050 0.98140 0.07000
C 	C 	0.27090 0.36040 0.11210 0.07900
H 	H 	0.28770 0.32440 0.15170 0.00100
C 	C 	0.22670 0.46500 0.99360 -0.14300
H 	H 	0.21100 0.50220 0.95670 0.07500
C 	C 	0.03370 0.29590 0.45620 -0.11600
C 	C 	0.51970 0.44910 0.65350 0.09600
H 	H 	0.53300 0.41240 0.61370 -0.00300
C 	C 	0.25140 0.35780 0.74580 -0.07400
H 	H 	0.24490 0.31900 0.78250 0.04600
C 	C 	0.26930 0.46830 0.74750 -0.01000
H 	H 	0.27280 0.50720 0.78450 0.03500
C 	C 	0.27430 0.46550 0.62990 0.00100
H 	H 	0.28650 0.50280 0.59110 0.02900
C 	C 	0.25320 0.35960 0.62770 0.03000
H 	H 	0.24730 0.32180 0.58780 0.00900
C 	C 	0.30470 0.37160 0.63000 0.00700
H 	H 	0.33630 0.34140 0.59120 0.01000
C 	C 	0.30570 0.36840 0.74800 -0.02500
H 	H 	0.33710 0.33730 0.78520 0.03100
C 	C 	0.21900 0.45640 0.73900 -0.08100
H 	H 	0.18620 0.48710 0.77550 0.05500
C 	C 	0.22130 0.45980 0.62000 0.02500
H 	H 	0.19550 0.49240 0.57980 0.02100
O 	O 	0.17870 0.28850 0.40230 -0.33100
C 	C 	0.52160 0.44760 0.77020 -0.16200
H 	H 	0.53760 0.41090 0.80820 0.08700
O 	O 	0.11760 0.38030 0.38980 -0.41300
C 	C 	0.94020 0.14920 0.60050 0.37000
C 	C 	0.27300 0.35890 0.99240 -0.14400
H 	H 	0.28760 0.32180 0.95440 0.07400
N 	N 	0.76820 0.35260 0.38260 -0.11600
C 	C 	0.95040 0.21500 0.55030 -0.08800
O 	O 	0.77720 0.38200 0.56390 -0.22600
C 	C 	0.02710 0.23540 0.50540 0.00900
H 	H 	0.07440 0.20900 0.50790 0.04400
C 	C 	0.87970 0.25360 0.54610 0.01100
H 	H 	0.82890 0.24050 0.57880 0.04400
C 	C 	0.11710 0.32220 0.41240 0.34500
C 	C 	0.88460 0.31200 0.49310 -0.06300
C 	C 	0.69290 0.39010 0.36330 -0.08300
H 	H 	0.64840 0.37830 0.41780 0.07700
C 	C 	0.80430 0.35220 0.48350 0.22100
C 	C 	0.96000 0.33200 0.44650 0.04300
H 	H 	0.96190 0.37030 0.40760 0.04700
C 	C 	0.66550 0.37130 0.23970 -0.11300
H 	H 	0.60410 0.36870 0.23300 0.01800
H 	H 	0.68690 0.40130 0.18410 0.05400
H 	H 	0.62020 0.34010 0.24210 0.05700
H 	H 	0.64510 0.40820 0.19880 0.01900
C 	C 	0.79500 0.31770 0.28280 -0.06600
H 	H 	0.82130 0.27760 0.30240 0.01700
H 	H 	0.83320 0.34220 0.23530 0.04700
H 	H 	0.78440 0.27280 0.29240 0.03900
H 	H 	0.85520 0.32400 0.26880 0.02200
C 	C 	0.70530 0.30860 0.22600 -0.04800
H 	H 	0.71080 0.29750 0.14610 0.02500
H 	H 	0.67280 0.27610 0.26450 0.04000
C 	C 	0.74100 0.34500 0.18300 -0.04100
H 	H 	0.77230 0.37730 0.14190 0.03500
H 	H 	0.72550 0.31150 0.12960 0.01700
Cd	Cd	0.74843 0.58817 0.36997 1.22900
C 	C 	0.74660 0.58740 0.93210 0.07100
N 	N 	0.75390 0.58940 0.17110 -0.22600
N 	N 	0.73710 0.58670 0.56830 -0.21500
C 	C 	0.74090 0.58730 0.81060 0.01700
O 	O 	0.21640 0.51980 0.35640 -0.38100
O 	O 	0.12560 0.85950 0.65990 -0.43800
O 	O 	0.35280 0.50340 0.38380 -0.50100
O 	O 	0.00280 0.88980 0.58370 -0.43500
C 	C 	0.29040 0.53930 0.36920 0.35100
C 	C 	0.77620 0.53930 0.11390 0.08200
H 	H 	0.79520 0.50420 0.15450 0.00100
C 	C 	0.52870 0.55000 0.13780 0.05800
H 	H 	0.55110 0.58410 0.17790 0.00300
C 	C 	0.52620 0.55280 0.02000 -0.11700
H 	H 	0.54180 0.58950 0.98140 0.07000
C 	C 	0.72910 0.63960 0.11210 0.08100
H 	H 	0.71230 0.67560 0.15170 0.00200
C 	C 	0.77330 0.53500 0.99360 -0.14100
H 	H 	0.78900 0.49780 0.95670 0.07800
C 	C 	0.96630 0.70410 0.45620 -0.07600
C 	C 	0.48030 0.55090 0.65350 0.09600
H 	H 	0.46700 0.58760 0.61370 -0.00300
C 	C 	0.74860 0.64220 0.74580 -0.07100
H 	H 	0.75510 0.68100 0.78250 0.04600
C 	C 	0.73070 0.53170 0.74750 -0.01500
H 	H 	0.72720 0.49280 0.78450 0.03700
C 	C 	0.72570 0.53450 0.62990 -0.00300
H 	H 	0.71350 0.49720 0.59110 0.03000
C 	C 	0.74680 0.64040 0.62770 0.03400
H 	H 	0.75270 0.67820 0.58780 0.00800
C 	C 	0.69530 0.62840 0.63000 0.00400
H 	H 	0.66370 0.65860 0.59120 0.01100
C 	C 	0.69430 0.63160 0.74800 -0.02900
H 	H 	0.66290 0.66270 0.78520 0.03300
C 	C 	0.78100 0.54360 0.73900 -0.07700
H 	H 	0.81380 0.51290 0.77550 0.05900
C 	C 	0.77870 0.54020 0.62000 0.03200
H 	H 	0.80450 0.50760 0.57980 0.02200
O 	O 	0.82130 0.71150 0.40230 -0.32600
C 	C 	0.47840 0.55240 0.77020 -0.16200
H 	H 	0.46240 0.58910 0.80820 0.08700
O 	O 	0.88240 0.61970 0.38980 -0.39900
C 	C 	0.05980 0.85080 0.60050 0.38500
C 	C 	0.72700 0.64110 0.99240 -0.14200
H 	H 	0.71240 0.67820 0.95440 0.07400
N 	N 	0.23180 0.64740 0.38260 -0.11600
C 	C 	0.04960 0.78500 0.55030 -0.14800
O 	O 	0.22280 0.61800 0.56390 -0.22800
C 	C 	0.97290 0.76460 0.50540 0.06800
H 	H 	0.92560 0.79100 0.50790 0.03200
C 	C 	0.12030 0.74640 0.54610 0.02400
H 	H 	0.17110 0.75950 0.57880 0.03900
C 	C 	0.88290 0.67780 0.41240 0.33700
C 	C 	0.11540 0.68800 0.49310 -0.05700
C 	C 	0.30710 0.60990 0.36330 -0.08500
H 	H 	0.35160 0.62170 0.41780 0.07800
C 	C 	0.19570 0.64780 0.48350 0.21700
C 	C 	0.04000 0.66800 0.44650 -0.01700
H 	H 	0.03810 0.62970 0.40760 0.05400
C 	C 	0.33450 0.62870 0.23970 -0.11100
H 	H 	0.39590 0.63130 0.23300 0.01800
H 	H 	0.31310 0.59870 0.18410 0.05300
H 	H 	0.37980 0.65990 0.24210 0.05600
H 	H 	0.35490 0.59180 0.19880 0.01800
C 	C 	0.20500 0.68230 0.28280 -0.06100
H 	H 	0.17870 0.72240 0.30240 0.01300
H 	H 	0.16680 0.65780 0.23530 0.04400
H 	H 	0.21560 0.72720 0.29240 0.03900
H 	H 	0.14480 0.67600 0.26880 0.01800
C 	C 	0.29470 0.69140 0.22600 -0.04800
H 	H 	0.28920 0.70250 0.14610 0.02300
H 	H 	0.32720 0.72390 0.26450 0.04100
C 	C 	0.25900 0.65500 0.18300 -0.04400
H 	H 	0.22770 0.62270 0.14190 0.03400
H 	H 	0.27450 0.68850 0.12960 0.01900
Cd	Cd	0.24843 0.91183 0.63003 1.23100
C 	C 	0.24660 0.91260 0.06790 0.04900
N 	N 	0.25390 0.91060 0.82890 -0.21900
N 	N 	0.23710 0.91330 0.43170 -0.21600
C 	C 	0.24090 0.91270 0.18940 0.02600
O 	O 	0.71640 0.98020 0.64360 -0.37000
O 	O 	0.62560 0.64050 0.34010 -0.43600
O 	O 	0.85280 0.99660 0.61620 -0.48500
O 	O 	0.50280 0.61020 0.41630 -0.42500
C 	C 	0.79040 0.96070 0.63080 0.34700
C 	C 	0.27620 0.96070 0.88610 0.05800
H 	H 	0.29520 0.99580 0.84550 0.01400
C 	C 	0.02870 0.95000 0.86220 0.06600
H 	H 	0.05110 0.91590 0.82210 -0.00100
C 	C 	0.02620 0.94720 0.98000 -0.11100
H 	H 	0.04180 0.91050 0.01860 0.06700
C 	C 	0.22910 0.86040 0.88790 0.06800
H 	H 	0.21230 0.82440 0.84830 0.00400
C 	C 	0.27330 0.96500 0.00640 -0.09400
H 	H 	0.28900 0.00220 0.04330 0.05000
C 	C 	0.46630 0.79590 0.54380 -0.09500
C 	C 	0.98030 0.94910 0.34650 0.11500
H 	H 	0.96700 0.91240 0.38630 -0.00000
C 	C 	0.24860 0.85780 0.25420 -0.05000
H 	H 	0.25510 0.81900 0.21750 0.03900
C 	C 	0.23070 0.96830 0.25250 0.04100
H 	H 	0.22720 0.00720 0.21550 0.00800
C 	C 	0.22570 0.96550 0.37010 0.06900
H 	H 	0.21350 0.00280 0.40890 -0.00300
C 	C 	0.24680 0.85960 0.37230 0.05000
H 	H 	0.25270 0.82180 0.41220 0.00300
C 	C 	0.19530 0.87160 0.37000 -0.01300
H 	H 	0.16370 0.84140 0.40880 0.01500
C 	C 	0.19430 0.86840 0.25200 -0.05500
H 	H 	0.16290 0.83730 0.21480 0.03900
C 	C 	0.28100 0.95640 0.26100 -0.13300
H 	H 	0.31380 0.98710 0.22450 0.08200
C 	C 	0.27870 0.95980 0.38000 -0.02300
H 	H 	0.30450 0.99240 0.42020 0.04600
O 	O 	0.32130 0.78850 0.59770 -0.32800
C 	C 	0.97840 0.94760 0.22980 -0.10800
H 	H 	0.96240 0.91090 0.19180 0.07800
O 	O 	0.38240 0.88030 0.61020 -0.40300
C 	C 	0.55980 0.64920 0.39950 0.37800
C 	C 	0.22700 0.85890 0.00760 -0.12500
H 	H 	0.21240 0.82180 0.04560 0.06700
N 	N 	0.73180 0.85260 0.61740 -0.11600
C 	C 	0.54960 0.71500 0.44970 -0.11800
O 	O 	0.72280 0.88200 0.43610 -0.22400
C 	C 	0.47290 0.73540 0.49460 0.03900
H 	H 	0.42560 0.70900 0.49210 0.03800
C 	C 	0.62030 0.75360 0.45390 0.01700
H 	H 	0.67110 0.74050 0.42120 0.04200
C 	C 	0.38290 0.82220 0.58760 0.34000
C 	C 	0.61540 0.81200 0.50690 -0.05800
C 	C 	0.80710 0.89010 0.63670 -0.07800
H 	H 	0.85160 0.87830 0.58220 0.08000
C 	C 	0.69570 0.85220 0.51650 0.21900
C 	C 	0.54000 0.83200 0.55350 0.01200
H 	H 	0.53810 0.87030 0.59240 0.05300
C 	C 	0.83450 0.87130 0.76030 -0.12500
H 	H 	0.89590 0.86870 0.76700 0.02500
H 	H 	0.81310 0.90130 0.81590 0.05700
H 	H 	0.87980 0.84010 0.75790 0.06000
H 	H 	0.85490 0.90820 0.80120 0.02500
C 	C 	0.70500 0.81770 0.71720 -0.06600
H 	H 	0.67870 0.77760 0.69760 0.01500
H 	H 	0.66680 0.84220 0.76470 0.04600
H 	H 	0.71560 0.77280 0.70760 0.03900
H 	H 	0.64480 0.82400 0.73120 0.02000
C 	C 	0.79470 0.80860 0.77400 -0.04400
H 	H 	0.78920 0.79750 0.85390 0.02400
H 	H 	0.82720 0.77610 0.73550 0.04100
C 	C 	0.75900 0.84500 0.81700 -0.04000
H 	H 	0.72770 0.87730 0.85810 0.03600
H 	H 	0.77450 0.81150 0.87040 0.01800
Cd	Cd	0.75157 0.08817 0.63003 1.22600
C 	C 	0.75340 0.08740 0.06790 0.08200
N 	N 	0.74610 0.08940 0.82890 -0.23100
N 	N 	0.76290 0.08670 0.43170 -0.21500
C 	C 	0.75910 0.08730 0.18940 0.01200
O 	O 	0.28360 0.01980 0.64360 -0.38800
O 	O 	0.37440 0.35950 0.34010 -0.43700
O 	O 	0.14720 0.00340 0.61620 -0.51000
O 	O 	0.49720 0.38980 0.41630 -0.42500
C 	C 	0.20960 0.03930 0.63080 0.35300
C 	C 	0.72380 0.03930 0.88610 0.09300
H 	H 	0.70480 0.00420 0.84550 -0.01100
C 	C 	0.97130 0.05000 0.86220 0.07700
H 	H 	0.94890 0.08410 0.82210 0.00000
C 	C 	0.97380 0.05280 0.98000 -0.10300
H 	H 	0.95820 0.08950 0.01860 0.07400
C 	C 	0.77090 0.13960 0.88790 0.08000
H 	H 	0.78770 0.17560 0.84830 0.00200
C 	C 	0.72670 0.03500 0.00640 -0.17300
H 	H 	0.71100 0.99780 0.04330 0.09900
C 	C 	0.53370 0.20410 0.54380 -0.09800
C 	C 	0.01970 0.05090 0.34650 0.07700
H 	H 	0.03300 0.08760 0.38630 -0.00300
C 	C 	0.75140 0.14220 0.25420 -0.09600
H 	H 	0.74490 0.18100 0.21750 0.05300
C 	C 	0.76930 0.03170 0.25250 -0.06100
H 	H 	0.77280 0.99280 0.21550 0.06300
C 	C 	0.77430 0.03450 0.37010 -0.06200
H 	H 	0.78650 0.99720 0.40890 0.06000
C 	C 	0.75320 0.14040 0.37230 0.01500
H 	H 	0.74730 0.17820 0.41220 0.01400
C 	C 	0.80470 0.12840 0.37000 0.02400
H 	H 	0.83630 0.15860 0.40880 0.00600
C 	C 	0.80570 0.13160 0.25200 -0.00100
H 	H 	0.83710 0.16270 0.21480 0.02700
C 	C 	0.71900 0.04360 0.26100 -0.03200
H 	H 	0.68620 0.01290 0.22450 0.03600
C 	C 	0.72130 0.04020 0.38000 0.07500
H 	H 	0.69550 0.00760 0.42020 -0.00100
O 	O 	0.67870 0.21150 0.59770 -0.32900
C 	C 	0.02160 0.05240 0.22980 -0.14300
H 	H 	0.03760 0.08910 0.19180 0.07500
O 	O 	0.61760 0.11970 0.61020 -0.40900
C 	C 	0.44020 0.35080 0.39950 0.37800
C 	C 	0.77300 0.14110 0.00760 -0.14600
H 	H 	0.78760 0.17820 0.04560 0.07700
N 	N 	0.26820 0.14740 0.61740 -0.11600
C 	C 	0.45040 0.28500 0.44970 -0.11900
O 	O 	0.27720 0.11800 0.43610 -0.22900
C 	C 	0.52710 0.26460 0.49460 0.04000
H 	H 	0.57440 0.29100 0.49210 0.03800
C 	C 	0.37970 0.24640 0.45390 0.01800
H 	H 	0.32890 0.25950 0.42120 0.04100
C 	C 	0.61710 0.17780 0.58760 0.34200
C 	C 	0.38460 0.18800 0.50690 -0.06200
C 	C 	0.19290 0.10990 0.63670 -0.08900
H 	H 	0.14840 0.12170 0.58220 0.07600
C 	C 	0.30430 0.14780 0.51650 0.21900
C 	C 	0.46000 0.16800 0.55350 0.01400
H 	H 	0.46190 0.12970 0.59240 0.04800
C 	C 	0.16550 0.12870 0.76030 -0.10100
H 	H 	0.10410 0.13130 0.76700 0.01100
H 	H 	0.18690 0.09870 0.81590 0.05000
H 	H 	0.12020 0.15990 0.75790 0.05300
H 	H 	0.14510 0.09180 0.80120 0.01400
C 	C 	0.29500 0.18230 0.71720 -0.06100
H 	H 	0.32130 0.22240 0.69760 0.01400
H 	H 	0.33320 0.15780 0.76470 0.04400
H 	H 	0.28440 0.22720 0.70760 0.03900
H 	H 	0.35520 0.17600 0.73120 0.01900
C 	C 	0.20530 0.19140 0.77400 -0.05100
H 	H 	0.21080 0.20250 0.85390 0.02300
H 	H 	0.17280 0.22390 0.73550 0.03900
C 	C 	0.24100 0.15500 0.81700 -0.04400
H 	H 	0.27230 0.12270 0.85810 0.03300
H 	H 	0.22550 0.18850 0.87040 0.01800
Cd	Cd	0.50000 0.50000 0.39547 1.22900
C 	C 	0.50000 0.50000 0.82940 0.08500
C 	C 	0.50000 0.50000 0.96200 0.03700
N 	N 	0.50000 0.50000 0.19570 -0.22300
N 	N 	0.50000 0.50000 0.59580 -0.23400
Cd	Cd	-0.00000 0.00000 0.60453 1.21900
C 	C 	-0.00000 -0.00000 0.17060 0.03500
C 	C 	-0.00000 -0.00000 0.03800 0.01600
N 	N 	0.00000 0.00000 0.80430 -0.24800
N 	N 	-0.00000 -0.00000 0.40420 -0.25300
