data_crystal

_cell_length_a 6.75270
_cell_length_b 12.18170
_cell_length_c 13.45980
_cell_angle_alpha 70.65800
_cell_angle_beta  76.20300
_cell_angle_gamma 86.53200

_symmetry_space_group_name_	'P 1'
_symmetry_space_group_name_H-M	'P 1'

loop_
_symmetry_equiv_pos_as_xyz
  x,y,z

loop_
_atom_site_label
_atom_site_type_symbol
_atom_site_fract_x
_atom_site_fract_y
_atom_site_fract_z
_atom_site_charge
V 	V 	0.16822 0.24384 0.37168 1.63800
C 	C 	0.79582 0.12587 0.50407 0.28400
C 	C 	0.96180 0.40800 0.20357 0.27000
C 	C 	0.85071 0.08110 0.41041 -0.03200
C 	C 	0.16529 0.37836 0.14689 0.02000
C 	C 	0.04641 0.05556 0.26670 0.06600
C 	C 	0.46687 0.30488 0.13060 0.03400
C 	C 	0.20490 0.05148 0.17922 -0.11700
H 	H 	0.32850 0.09070 0.16310 0.06200
C 	C 	0.64786 0.24718 0.14565 -0.09500
H 	H 	0.67060 0.21080 0.21440 0.03900
C 	C 	0.16930 0.98650 0.11793 -0.00400
H 	H 	0.27130 0.98220 0.05920 0.03000
C 	C 	0.79210 0.24653 0.05337 -0.02500
H 	H 	0.91390 0.20840 0.06060 0.04400
C 	C 	0.98240 0.92670 0.14218 -0.03900
H 	H 	0.96360 0.88510 0.09820 0.04000
C 	C 	0.75930 0.30208 0.94874 -0.01600
H 	H 	0.86050 0.30000 0.88890 0.03400
C 	C 	0.82630 0.92806 0.22948 -0.09700
H 	H 	0.70350 0.88800 0.24580 0.06500
C 	C 	0.58090 0.35955 0.93274 -0.10500
H 	H 	0.55920 0.39620 0.86380 0.06300
C 	C 	0.86289 0.99283 0.29164 0.05700
C 	C 	0.43475 0.35953 0.02601 0.09300
N 	N 	0.03310 0.11153 0.34266 -0.29600
N 	N 	0.29276 0.31783 0.20528 -0.31600
N 	N 	0.74329 0.01137 0.38310 -0.19600
H 	H 	0.62250 0.98340 0.41630 0.09800
N 	N 	0.24201 0.40555 0.03982 -0.20300
H 	H 	0.18250 0.44430 0.98940 0.16100
O 	O 	0.93671 0.19198 0.50483 -0.52200
O 	O 	0.92480 0.35748 0.30542 -0.46000
O 	O 	0.63246 0.09947 0.57199 -0.30700
O 	O 	0.85026 0.47674 0.15183 -0.26800
V 	V 	0.83178 0.75616 0.62832 1.63800
C 	C 	0.20418 0.87413 0.49593 0.28400
C 	C 	0.03820 0.59200 0.79643 0.27000
C 	C 	0.14929 0.91890 0.58959 -0.03200
C 	C 	0.83471 0.62164 0.85311 0.02000
C 	C 	0.95359 0.94444 0.73330 0.06600
C 	C 	0.53313 0.69512 0.86940 0.03400
C 	C 	0.79510 0.94852 0.82078 -0.11700
H 	H 	0.67150 0.90930 0.83690 0.06200
C 	C 	0.35214 0.75282 0.85435 -0.09500
H 	H 	0.32940 0.78920 0.78560 0.03900
C 	C 	0.83070 0.01350 0.88207 -0.00400
H 	H 	0.72870 0.01780 0.94080 0.03000
C 	C 	0.20790 0.75347 0.94663 -0.02500
H 	H 	0.08610 0.79160 0.93940 0.04400
C 	C 	0.01760 0.07330 0.85782 -0.03900
H 	H 	0.03640 0.11490 0.90180 0.04000
C 	C 	0.24070 0.69792 0.05126 -0.01600
H 	H 	0.13950 0.70000 0.11110 0.03400
C 	C 	0.17370 0.07194 0.77052 -0.09700
H 	H 	0.29650 0.11200 0.75420 0.06500
C 	C 	0.41910 0.64045 0.06726 -0.10500
H 	H 	0.44080 0.60380 0.13620 0.06300
C 	C 	0.13711 0.00717 0.70836 0.05700
C 	C 	0.56525 0.64047 0.97399 0.09300
N 	N 	0.96690 0.88847 0.65734 -0.29600
N 	N 	0.70724 0.68217 0.79472 -0.31600
N 	N 	0.25671 0.98863 0.61690 -0.19600
H 	H 	0.37750 0.01660 0.58370 0.09800
N 	N 	0.75799 0.59445 0.96018 -0.20300
H 	H 	0.81750 0.55570 0.01060 0.16100
O 	O 	0.06329 0.80802 0.49517 -0.52200
O 	O 	0.07520 0.64252 0.69458 -0.46000
O 	O 	0.36754 0.90053 0.42801 -0.30700
O 	O 	0.14974 0.52326 0.84817 -0.26800
