data_crystal

_cell_length_a 9.11980
_cell_length_b 9.60750
_cell_length_c 14.32410
_cell_angle_alpha 94.95100
_cell_angle_beta  98.05000
_cell_angle_gamma 92.02900

_symmetry_space_group_name_	'P 1'
_symmetry_space_group_name_H-M	'P 1'

loop_
_symmetry_equiv_pos_as_xyz
  x,y,z

loop_
_atom_site_label
_atom_site_type_symbol
_atom_site_fract_x
_atom_site_fract_y
_atom_site_fract_z
_atom_site_charge
Fe	Fe	0.98961 0.51642 0.17686 1.10600
S 	S 	0.20734 0.65387 0.03062 0.55400
O 	O 	0.90821 0.39076 0.04813 -0.43900
O 	O 	0.24975 0.80134 0.03392 -0.26000
O 	O 	0.17018 0.61332 0.12102 -0.44100
C 	C 	0.37011 0.56436 0.01321 -0.09700
C 	C 	0.43728 0.58739 0.93388 -0.02500
H 	H 	0.39420 0.64710 0.88920 0.06200
C 	C 	0.43219 0.47757 0.07952 -0.00400
H 	H 	0.38590 0.46280 0.13350 0.03800
S 	S 	0.76549 0.37521 0.32711 0.50700
O 	O 	0.82174 0.42139 0.24324 -0.42700
O 	O 	0.76513 0.22428 0.32788 -0.25200
O 	O 	0.62617 0.43579 0.34084 -0.26100
C 	C 	0.89630 0.44434 0.42498 -0.09400
C 	C 	0.85967 0.55423 0.48573 -0.02400
H 	H 	0.76390 0.59090 0.47580 0.05200
C 	C 	0.03612 0.38978 0.43881 -0.02900
H 	H 	0.06040 0.31470 0.39700 0.03500
Fe	Fe	0.01039 0.48358 0.82314 1.10500
S 	S 	0.79266 0.34613 0.96938 0.55300
O 	O 	0.09179 0.60924 0.95187 -0.43900
O 	O 	0.75025 0.19866 0.96608 -0.26000
O 	O 	0.82982 0.38668 0.87898 -0.44100
C 	C 	0.62989 0.43564 0.98679 -0.09700
C 	C 	0.56272 0.41261 0.06612 -0.02500
H 	H 	0.60580 0.35290 0.11080 0.06200
C 	C 	0.56781 0.52243 0.92048 -0.00400
H 	H 	0.61410 0.53720 0.86650 0.03800
S 	S 	0.23451 0.62479 0.67289 0.50700
O 	O 	0.17826 0.57861 0.75676 -0.42700
O 	O 	0.23487 0.77572 0.67212 -0.25200
O 	O 	0.37383 0.56421 0.65916 -0.26100
C 	C 	0.10370 0.55566 0.57502 -0.09400
C 	C 	0.14033 0.44577 0.51427 -0.02400
H 	H 	0.23610 0.40910 0.52420 0.05200
C 	C 	0.96388 0.61022 0.56119 -0.02900
H 	H 	0.93960 0.68530 0.60300 0.03500
