data_crystal

_cell_length_a 12.34000
_cell_length_b 12.34000
_cell_length_c 22.85200
_cell_angle_alpha 90.00000
_cell_angle_beta  90.00000
_cell_angle_gamma 90.00000

_symmetry_space_group_name_	'P 1'
_symmetry_space_group_name_H-M	'P 1'

loop_
_symmetry_equiv_pos_as_xyz
  x,y,z

loop_
_atom_site_label
_atom_site_type_symbol
_atom_site_fract_x
_atom_site_fract_y
_atom_site_fract_z
_atom_site_charge
C 	C 	0.47670 0.41120 0.37420 0.04200
H 	H 	0.46100 0.34690 0.39530 -0.00200
C 	C 	0.47410 0.40730 0.31430 -0.08700
H 	H 	0.45490 0.34220 0.29480 0.05100
C 	C 	0.97670 0.91120 0.87420 0.06700
H 	H 	0.96100 0.84690 0.89530 0.00600
C 	C 	0.97410 0.90730 0.81430 -0.04100
H 	H 	0.95490 0.84220 0.79480 0.04900
C 	C 	0.52330 0.58880 0.37420 0.04200
H 	H 	0.53900 0.65310 0.39530 -0.00200
C 	C 	0.52590 0.59270 0.31430 -0.08800
H 	H 	0.54510 0.65780 0.29480 0.05500
C 	C 	0.02330 0.08880 0.87420 0.01600
H 	H 	0.03900 0.15310 0.89530 0.00600
C 	C 	0.02590 0.09270 0.81430 -0.08600
H 	H 	0.04510 0.15780 0.79480 0.04600
C 	C 	0.58880 0.47670 0.37420 0.04200
H 	H 	0.65310 0.46100 0.39530 -0.00200
C 	C 	0.59270 0.47410 0.31430 -0.08800
H 	H 	0.65780 0.45490 0.29480 0.05400
C 	C 	0.08880 0.97670 0.87420 0.05000
H 	H 	0.15310 0.96100 0.89530 0.00700
C 	C 	0.09270 0.97410 0.81430 -0.06000
H 	H 	0.15780 0.95490 0.79480 0.05200
C 	C 	0.41120 0.52330 0.37420 0.04100
H 	H 	0.34690 0.53900 0.39530 -0.00300
C 	C 	0.40730 0.52590 0.31430 -0.08800
H 	H 	0.34220 0.54510 0.29480 0.05100
C 	C 	0.91120 0.02330 0.87420 0.04900
H 	H 	0.84690 0.03900 0.89530 -0.00000
C 	C 	0.90730 0.02590 0.81430 -0.06300
H 	H 	0.84220 0.04510 0.79480 0.04400
C 	C 	0.52330 0.41120 0.12580 0.04100
H 	H 	0.53900 0.34690 0.10470 -0.00300
C 	C 	0.52590 0.40730 0.18570 -0.08800
H 	H 	0.54510 0.34220 0.20520 0.05100
C 	C 	0.02330 0.91120 0.62580 0.05000
H 	H 	0.03900 0.84690 0.60470 -0.00700
C 	C 	0.02590 0.90730 0.68570 -0.06500
H 	H 	0.04510 0.84220 0.70520 0.04400
C 	C 	0.47670 0.58880 0.12580 0.04200
H 	H 	0.46100 0.65310 0.10470 -0.00200
C 	C 	0.47410 0.59270 0.18570 -0.08800
H 	H 	0.45490 0.65780 0.20520 0.05400
C 	C 	0.97670 0.08880 0.62580 0.05200
H 	H 	0.96100 0.15310 0.60470 0.00000
C 	C 	0.97410 0.09270 0.68570 -0.06300
H 	H 	0.95490 0.15780 0.70520 0.05200
C 	C 	0.41120 0.47670 0.12580 0.04100
H 	H 	0.34690 0.46100 0.10470 -0.00300
C 	C 	0.40730 0.47410 0.18570 -0.08800
H 	H 	0.34220 0.45490 0.20520 0.05000
C 	C 	0.91120 0.97670 0.62580 0.06800
H 	H 	0.84690 0.96100 0.60470 -0.00200
C 	C 	0.90730 0.97410 0.68570 -0.04400
H 	H 	0.84220 0.95490 0.70520 0.04900
C 	C 	0.58880 0.52330 0.12580 0.04200
H 	H 	0.65310 0.53900 0.10470 -0.00200
C 	C 	0.59270 0.52590 0.18570 -0.08800
H 	H 	0.65780 0.54510 0.20520 0.05500
C 	C 	0.08880 0.02330 0.62580 0.01600
H 	H 	0.15310 0.03900 0.60470 -0.00100
C 	C 	0.09270 0.02590 0.68570 -0.08800
H 	H 	0.15780 0.04510 0.70520 0.04600
C 	C 	0.52330 0.58880 0.62580 0.04300
H 	H 	0.53900 0.65310 0.60470 -0.00200
C 	C 	0.52590 0.59270 0.68570 -0.08900
H 	H 	0.54510 0.65780 0.70520 0.05500
C 	C 	0.02330 0.08880 0.12580 0.01500
H 	H 	0.03900 0.15310 0.10470 -0.00100
C 	C 	0.02590 0.09270 0.18570 -0.08700
H 	H 	0.04510 0.15780 0.20520 0.04500
C 	C 	0.47670 0.41120 0.62580 0.04200
H 	H 	0.46100 0.34690 0.60470 -0.00300
C 	C 	0.47410 0.40730 0.68570 -0.08900
H 	H 	0.45490 0.34220 0.70520 0.05100
C 	C 	0.97670 0.91120 0.12580 0.06900
H 	H 	0.96100 0.84690 0.10470 -0.00200
C 	C 	0.97410 0.90730 0.18570 -0.04100
H 	H 	0.95490 0.84220 0.20520 0.04800
C 	C 	0.41120 0.52330 0.62580 0.04200
H 	H 	0.34690 0.53900 0.60470 -0.00300
C 	C 	0.40730 0.52590 0.68570 -0.08900
H 	H 	0.34220 0.54510 0.70520 0.05200
C 	C 	0.91120 0.02330 0.12580 0.05000
H 	H 	0.84690 0.03900 0.10470 -0.00700
C 	C 	0.90730 0.02590 0.18570 -0.06300
H 	H 	0.84220 0.04510 0.20520 0.04200
C 	C 	0.58880 0.47670 0.62580 0.04200
H 	H 	0.65310 0.46100 0.60470 -0.00200
C 	C 	0.59270 0.47410 0.68570 -0.08900
H 	H 	0.65780 0.45490 0.70520 0.05500
C 	C 	0.08880 0.97670 0.12580 0.05200
H 	H 	0.15310 0.96100 0.10470 0.00000
C 	C 	0.09270 0.97410 0.18570 -0.06100
H 	H 	0.15780 0.95490 0.20520 0.05100
C 	C 	0.47670 0.58880 0.87420 0.04100
H 	H 	0.46100 0.65310 0.89530 0.00500
C 	C 	0.47410 0.59270 0.81430 -0.08600
H 	H 	0.45490 0.65780 0.79480 0.05500
C 	C 	0.97670 0.08880 0.37420 0.05100
H 	H 	0.96100 0.15310 0.39530 0.00000
C 	C 	0.97410 0.09270 0.31430 -0.06100
H 	H 	0.95490 0.15780 0.29480 0.05100
C 	C 	0.52330 0.41120 0.87420 0.04100
H 	H 	0.53900 0.34690 0.89530 0.00400
C 	C 	0.52590 0.40730 0.81430 -0.08600
H 	H 	0.54510 0.34220 0.79480 0.05200
C 	C 	0.02330 0.91120 0.37420 0.05000
H 	H 	0.03900 0.84690 0.39530 -0.00700
C 	C 	0.02590 0.90730 0.31430 -0.06400
H 	H 	0.04510 0.84220 0.29480 0.04200
C 	C 	0.58880 0.52330 0.87420 0.04200
H 	H 	0.65310 0.53900 0.89530 0.00500
C 	C 	0.59270 0.52590 0.81430 -0.08600
H 	H 	0.65780 0.54510 0.79480 0.05500
C 	C 	0.08880 0.02330 0.37420 0.01500
H 	H 	0.15310 0.03900 0.39530 -0.00100
C 	C 	0.09270 0.02590 0.31430 -0.08700
H 	H 	0.15780 0.04510 0.29480 0.04500
C 	C 	0.41120 0.47670 0.87420 0.04100
H 	H 	0.34690 0.46100 0.89530 0.00400
C 	C 	0.40730 0.47410 0.81430 -0.08600
H 	H 	0.34220 0.45490 0.79480 0.05200
C 	C 	0.91120 0.97670 0.37420 0.06800
H 	H 	0.84690 0.96100 0.39530 -0.00200
C 	C 	0.90730 0.97410 0.31430 -0.04100
H 	H 	0.84220 0.95490 0.29480 0.04800
Fe	Fe	0.50000 0.50000 0.50000 1.13100
Fe	Fe	-0.00000 0.00000 -0.00000 1.10400
Fe	Fe	0.50000 0.50000 -0.00000 1.12600
Fe	Fe	0.00000 0.00000 0.50000 1.11000
N 	N 	0.63880 0.60230 0.50000 -0.27100
C 	C 	0.72590 0.63560 0.50000 0.13800
C 	C 	0.02910 0.60780 0.50000 -0.15300
H 	H 	0.05000 0.68190 0.50000 0.07100
N 	N 	0.13880 0.10230 -0.00000 -0.27300
C 	C 	0.22590 0.13560 -0.00000 0.10600
C 	C 	0.52910 0.10780 -0.00000 -0.01100
H 	H 	0.55000 0.18190 -0.00000 0.02600
N 	N 	0.36120 0.39770 0.50000 -0.26500
C 	C 	0.27410 0.36440 0.50000 0.11900
C 	C 	0.97090 0.39220 0.50000 0.01300
H 	H 	0.95000 0.31810 0.50000 0.02900
N 	N 	0.86120 0.89770 -0.00000 -0.25800
C 	C 	0.77410 0.86440 -0.00000 0.14100
C 	C 	0.47090 0.89220 -0.00000 -0.13300
H 	H 	0.45000 0.81810 -0.00000 0.06900
N 	N 	0.39770 0.63880 0.50000 -0.27000
C 	C 	0.36440 0.72590 0.50000 0.13800
C 	C 	0.39220 0.02910 0.50000 -0.15400
H 	H 	0.31810 0.05000 0.50000 0.07000
N 	N 	0.89770 0.13880 -0.00000 -0.26600
C 	C 	0.86440 0.22590 -0.00000 0.14000
C 	C 	0.89220 0.52910 -0.00000 -0.13200
H 	H 	0.81810 0.55000 -0.00000 0.06900
N 	N 	0.60230 0.36120 0.50000 -0.26500
C 	C 	0.63560 0.27410 0.50000 0.12000
C 	C 	0.60780 0.97090 0.50000 0.01200
H 	H 	0.68190 0.95000 0.50000 0.02900
N 	N 	0.10230 0.86120 -0.00000 -0.26300
C 	C 	0.13560 0.77410 -0.00000 0.10900
C 	C 	0.10780 0.47090 -0.00000 -0.01100
H 	H 	0.18190 0.45000 -0.00000 0.02600
N 	N 	0.36120 0.60230 -0.00000 -0.26800
C 	C 	0.27410 0.63560 -0.00000 0.11500
C 	C 	0.97090 0.60780 -0.00000 0.01300
H 	H 	0.95000 0.68190 -0.00000 0.02700
N 	N 	0.86120 0.10230 0.50000 -0.26100
C 	C 	0.77410 0.13560 0.50000 0.11300
C 	C 	0.47090 0.10780 0.50000 -0.01200
H 	H 	0.45000 0.18190 0.50000 0.02900
N 	N 	0.63880 0.39770 -0.00000 -0.27300
C 	C 	0.72590 0.36440 -0.00000 0.13400
C 	C 	0.02910 0.39220 -0.00000 -0.15800
H 	H 	0.05000 0.31810 -0.00000 0.06900
N 	N 	0.13880 0.89770 0.50000 -0.26300
C 	C 	0.22590 0.86440 0.50000 0.14400
C 	C 	0.52910 0.89220 0.50000 -0.12900
H 	H 	0.55000 0.81810 0.50000 0.07000
N 	N 	0.60230 0.63880 -0.00000 -0.27300
C 	C 	0.63560 0.72590 -0.00000 0.13500
C 	C 	0.60780 0.02910 -0.00000 -0.15700
H 	H 	0.68190 0.05000 -0.00000 0.07000
N 	N 	0.10230 0.13880 0.50000 -0.27000
C 	C 	0.13560 0.22590 0.50000 0.11100
C 	C 	0.10780 0.52910 0.50000 -0.01100
H 	H 	0.18190 0.55000 0.50000 0.02900
N 	N 	0.39770 0.36120 -0.00000 -0.26700
C 	C 	0.36440 0.27410 -0.00000 0.11400
C 	C 	0.39220 0.97090 -0.00000 0.01400
H 	H 	0.31810 0.95000 -0.00000 0.02600
N 	N 	0.89770 0.86120 0.50000 -0.25600
C 	C 	0.86440 0.77410 0.50000 0.14400
C 	C 	0.89220 0.47090 0.50000 -0.13000
H 	H 	0.81810 0.45000 0.50000 0.07000
C 	C 	0.83450 0.66550 0.50000 -0.16800
C 	C 	0.91870 0.58130 0.50000 0.13300
C 	C 	0.16550 0.33450 0.50000 -0.12300
C 	C 	0.08130 0.41870 0.50000 -0.00700
C 	C 	0.33450 0.83450 0.50000 -0.16900
C 	C 	0.41870 0.91870 0.50000 0.13400
C 	C 	0.66550 0.16550 0.50000 -0.12300
C 	C 	0.58130 0.08130 0.50000 -0.00600
C 	C 	0.16550 0.66550 -0.00000 -0.12300
C 	C 	0.08130 0.58130 -0.00000 -0.01000
C 	C 	0.83450 0.33450 -0.00000 -0.17100
C 	C 	0.91870 0.41870 -0.00000 0.13400
C 	C 	0.66550 0.83450 -0.00000 -0.17000
C 	C 	0.58130 0.91870 -0.00000 0.13400
C 	C 	0.33450 0.16550 -0.00000 -0.12300
C 	C 	0.41870 0.08130 -0.00000 -0.01200
N 	N 	0.50000 0.50000 0.40410 -0.24300
C 	C 	0.50000 0.50000 0.28240 0.06800
N 	N 	0.00000 0.00000 0.90410 -0.26600
C 	C 	0.00000 0.00000 0.78240 0.00400
N 	N 	0.50000 0.50000 0.09590 -0.24300
C 	C 	0.50000 0.50000 0.21760 0.06700
N 	N 	0.00000 0.00000 0.59590 -0.27400
C 	C 	0.00000 0.00000 0.71760 0.00800
N 	N 	0.50000 0.50000 0.59590 -0.24400
C 	C 	0.50000 0.50000 0.71760 0.07000
N 	N 	0.00000 0.00000 0.09590 -0.27500
C 	C 	0.00000 0.00000 0.21760 0.00300
N 	N 	0.50000 0.50000 0.90410 -0.23700
C 	C 	0.50000 0.50000 0.78240 0.06500
N 	N 	0.00000 0.00000 0.40410 -0.27400
C 	C 	-0.00000 -0.00000 0.28240 0.00400
