data_crystal

_cell_length_a 10.10900
_cell_length_b 11.25440
_cell_length_c 12.32820
_cell_angle_alpha 70.57600
_cell_angle_beta  77.90300
_cell_angle_gamma 82.21000

_symmetry_space_group_name_	'P 1'
_symmetry_space_group_name_H-M	'P 1'

loop_
_symmetry_equiv_pos_as_xyz
  x,y,z

loop_
_atom_site_label
_atom_site_type_symbol
_atom_site_fract_x
_atom_site_fract_y
_atom_site_fract_z
_atom_site_charge
Ni	Ni	0.59908 0.73184 0.63862 1.07700
N 	N 	0.60350 0.79050 0.46064 -0.22700
N 	N 	0.55700 0.89420 0.28566 -0.09700
N 	N 	0.67810 0.58580 0.97976 -0.09900
N 	N 	0.59760 0.66980 0.81696 -0.22900
O 	O 	0.70133 0.88949 0.62803 -0.37600
O 	O 	0.81557 0.71438 0.61453 -0.38700
O 	O 	0.30564 0.65106 0.64345 -0.30700
O 	O 	0.40442 0.80363 0.66573 -0.41700
C 	C 	0.81110 0.82280 0.62420 0.30900
C 	C 	0.93570 0.87030 0.63770 -0.09300
C 	C 	0.92960 0.98770 0.65190 0.02100
H 	H 	0.84850 0.03780 0.65130 0.04300
C 	C 	0.04410 0.03050 0.66700 -0.08600
H 	H 	0.04030 0.10950 0.67660 0.06600
C 	C 	0.16440 0.95550 0.66770 0.02200
H 	H 	0.24150 0.98490 0.67740 0.04200
C 	C 	0.17190 0.83780 0.65440 -0.10000
C 	C 	0.05650 0.79550 0.63980 0.03000
H 	H 	0.06010 0.71590 0.63130 0.04200
C 	C 	0.30350 0.75780 0.65410 0.33700
C 	C 	0.52260 0.87840 0.40100 0.08600
H 	H 	0.45090 0.92360 0.43420 0.01800
C 	C 	0.69410 0.74850 0.37880 0.00800
H 	H 	0.76430 0.68630 0.39510 0.02100
C 	C 	0.66560 0.81140 0.27100 -0.01600
H 	H 	0.71110 0.80030 0.20080 0.04200
C 	C 	0.48340 0.97720 0.19570 -0.15000
H 	H 	0.54770 0.01070 0.12460 0.07900
H 	H 	0.43860 0.04790 0.22080 0.09100
C 	C 	0.37900 0.91200 0.16940 0.10200
C 	C 	0.29460 0.98140 0.09140 -0.12000
H 	H 	0.30530 0.06710 0.05440 0.07200
C 	C 	0.19570 0.92590 0.06780 -0.01600
H 	H 	0.14110 0.97470 0.01470 0.03700
C 	C 	0.17570 0.79910 0.12120 -0.01000
C 	C 	0.26200 0.72980 0.19890 -0.01300
H 	H 	0.25230 0.64390 0.23570 0.02600
C 	C 	0.36050 0.78580 0.22190 -0.12000
H 	H 	0.41610 0.73720 0.27420 0.07800
C 	C 	0.70030 0.60520 0.86460 0.07900
H 	H 	0.77890 0.57630 0.82340 0.00100
C 	C 	0.50480 0.69230 0.90710 0.01300
H 	H 	0.42100 0.73690 0.89990 0.02600
C 	C 	0.55300 0.64020 0.00820 -0.01200
H 	H 	0.50930 0.64130 0.08220 0.03600
C 	C 	0.77350 0.51940 0.05830 -0.16200
H 	H 	0.82650 0.45440 0.02900 0.08700
H 	H 	0.72230 0.47770 0.13460 0.08800
C 	C 	0.86860 0.60280 0.07200 0.10900
C 	C 	0.92500 0.70220 0.98320 -0.12200
H 	H 	0.89670 0.72630 0.91140 0.08100
C 	C 	0.02290 0.76800 0.99710 -0.02200
H 	H 	0.06030 0.83420 0.93450 0.04000
C 	C 	0.06590 0.73610 0.10360 -0.00900
C 	C 	0.00440 0.63800 0.19440 -0.00800
H 	H 	0.02950 0.61570 0.26740 0.03500
C 	C 	0.90810 0.57320 0.17940 -0.13400
H 	H 	0.86870 0.50840 0.24220 0.09000
Ni	Ni	0.40092 0.26816 0.36138 1.07600
N 	N 	0.39650 0.20950 0.53936 -0.22800
N 	N 	0.44300 0.10580 0.71434 -0.09800
N 	N 	0.32190 0.41420 0.02024 -0.10000
N 	N 	0.40240 0.33020 0.18304 -0.22900
O 	O 	0.29867 0.11051 0.37197 -0.37600
O 	O 	0.18443 0.28562 0.38547 -0.38700
O 	O 	0.69436 0.34894 0.35655 -0.30700
O 	O 	0.59558 0.19637 0.33427 -0.41700
C 	C 	0.18890 0.17720 0.37580 0.30900
C 	C 	0.06430 0.12970 0.36230 -0.09300
C 	C 	0.07040 0.01230 0.34810 0.02100
H 	H 	0.15150 0.96220 0.34870 0.04300
C 	C 	0.95590 0.96950 0.33300 -0.08600
H 	H 	0.95970 0.89050 0.32340 0.06600
C 	C 	0.83560 0.04450 0.33230 0.02200
H 	H 	0.75850 0.01510 0.32260 0.04200
C 	C 	0.82810 0.16220 0.34560 -0.10000
C 	C 	0.94350 0.20450 0.36020 0.03000
H 	H 	0.93990 0.28410 0.36870 0.04200
C 	C 	0.69650 0.24220 0.34590 0.33700
C 	C 	0.47740 0.12160 0.59900 0.08600
H 	H 	0.54910 0.07640 0.56580 0.01800
C 	C 	0.30590 0.25150 0.62120 0.00800
H 	H 	0.23570 0.31370 0.60490 0.02100
C 	C 	0.33440 0.18860 0.72900 -0.01600
H 	H 	0.28890 0.19970 0.79920 0.04200
C 	C 	0.51660 0.02280 0.80430 -0.15000
H 	H 	0.45230 0.98930 0.87540 0.07900
H 	H 	0.56140 0.95210 0.77920 0.09100
C 	C 	0.62100 0.08800 0.83060 0.10200
C 	C 	0.70540 0.01860 0.90860 -0.12000
H 	H 	0.69470 0.93290 0.94560 0.07200
C 	C 	0.80430 0.07410 0.93220 -0.01600
H 	H 	0.85890 0.02530 0.98530 0.03700
C 	C 	0.82430 0.20090 0.87880 -0.01000
C 	C 	0.73800 0.27020 0.80110 -0.01300
H 	H 	0.74770 0.35610 0.76430 0.02600
C 	C 	0.63950 0.21420 0.77810 -0.12000
H 	H 	0.58390 0.26280 0.72580 0.07800
C 	C 	0.29970 0.39480 0.13540 0.07900
H 	H 	0.22110 0.42370 0.17660 0.00100
C 	C 	0.49520 0.30770 0.09290 0.01300
H 	H 	0.57900 0.26310 0.10010 0.02600
C 	C 	0.44700 0.35980 0.99180 -0.01200
H 	H 	0.49070 0.35870 0.91780 0.03600
C 	C 	0.22650 0.48060 0.94170 -0.16200
H 	H 	0.17350 0.54560 0.97100 0.08700
H 	H 	0.27770 0.52230 0.86540 0.08800
C 	C 	0.13140 0.39720 0.92800 0.10900
C 	C 	0.07500 0.29780 0.01680 -0.12200
H 	H 	0.10330 0.27370 0.08860 0.08100
C 	C 	0.97710 0.23200 0.00290 -0.02200
H 	H 	0.93970 0.16580 0.06550 0.04000
C 	C 	0.93410 0.26390 0.89640 -0.00900
C 	C 	0.99560 0.36200 0.80560 -0.00800
H 	H 	0.97050 0.38430 0.73260 0.03500
C 	C 	0.09190 0.42680 0.82060 -0.13400
H 	H 	0.13130 0.49160 0.75780 0.09000
