data_crystal

_cell_length_a 19.47540
_cell_length_b 7.25950
_cell_length_c 22.78900
_cell_angle_alpha 90.00000
_cell_angle_beta  90.00000
_cell_angle_gamma 90.00000

_symmetry_space_group_name_	'P 1'
_symmetry_space_group_name_H-M	'P 1'

loop_
_symmetry_equiv_pos_as_xyz
  x,y,z

loop_
_atom_site_label
_atom_site_type_symbol
_atom_site_fract_x
_atom_site_fract_y
_atom_site_fract_z
_atom_site_charge
Cu	Cu	0.55183 0.18870 0.39825 0.87200
N 	N 	0.49110 0.09690 0.33330 -0.22000
N 	N 	0.64120 0.20080 0.35400 -0.23600
N 	N 	0.60960 0.29560 0.46130 -0.22700
O 	O 	0.47120 0.17910 0.44620 -0.38200
O 	O 	0.36240 0.08480 0.44790 -0.23900
C 	C 	0.41740 0.10800 0.42060 0.24800
C 	C 	0.41900 0.11200 0.35400 -0.01500
H 	H 	0.40170 0.23200 0.34180 0.01800
C 	C 	0.37500 0.96400 0.32500 -0.18800
H 	H 	0.40350 0.86020 0.31500 0.07700
H 	H 	0.35500 0.01360 0.28990 0.06200
H 	H 	0.33960 0.92570 0.35140 -0.09300
C 	C 	0.42900 0.01900 0.36200 0.00400
H 	H 	0.43780 0.88780 0.36870 0.01800
C 	C 	0.36600 0.03500 0.32200 -0.16100
H 	H 	0.34490 0.15310 0.32770 0.06600
H 	H 	0.33370 0.93970 0.33220 0.22100
H 	H 	0.37960 0.02120 0.28200 0.04500
C 	C 	0.65460 0.14600 0.29820 0.08300
H 	H 	0.61880 0.10850 0.27390 -0.02200
C 	C 	0.71890 0.14500 0.27820 -0.16500
H 	H 	0.72670 0.11340 0.23920 0.07100
C 	C 	0.77280 0.18800 0.31240 0.07600
H 	H 	0.81730 0.18040 0.29780 -0.01200
C 	C 	0.76150 0.24200 0.36870 -0.13700
H 	H 	0.79810 0.27190 0.39300 0.07200
C 	C 	0.69580 0.25100 0.38900 0.05300
C 	C 	0.67750 0.30700 0.44790 0.04900
C 	C 	0.72220 0.38100 0.48780 -0.11000
H 	H 	0.76850 0.39120 0.47830 0.08300
C 	C 	0.69940 0.44100 0.54220 0.04700
H 	H 	0.72990 0.49200 0.56920 0.02600
C 	C 	0.62880 0.42400 0.55560 -0.12300
H 	H 	0.61140 0.45790 0.59200 0.06400
C 	C 	0.58750 0.35500 0.51260 0.08800
H 	H 	0.54050 0.35020 0.51990 -0.00500
Cu	Cu	0.94817 0.81130 0.89825 0.87000
N 	N 	0.00890 0.90310 0.83330 -0.22100
N 	N 	0.85880 0.79920 0.85400 -0.23700
N 	N 	0.89040 0.70440 0.96130 -0.22900
O 	O 	0.02880 0.82090 0.94620 -0.38200
O 	O 	0.13760 0.91520 0.94790 -0.23900
C 	C 	0.08260 0.89200 0.92060 0.24600
C 	C 	0.08100 0.88800 0.85400 -0.01200
H 	H 	0.09830 0.76800 0.84180 0.01700
C 	C 	0.12500 0.03600 0.82500 -0.18700
H 	H 	0.09650 0.13980 0.81500 0.07700
H 	H 	0.14500 0.98640 0.78990 0.06600
H 	H 	0.16040 0.07430 0.85140 -0.09200
C 	C 	0.07100 0.98100 0.86200 0.00300
H 	H 	0.06220 0.11220 0.86870 0.01800
C 	C 	0.13400 0.96500 0.82200 -0.16600
H 	H 	0.15510 0.84690 0.82770 0.06800
H 	H 	0.16630 0.06030 0.83220 0.21900
H 	H 	0.12040 0.97880 0.78200 0.04400
C 	C 	0.84540 0.85400 0.79820 0.08300
H 	H 	0.88120 0.89150 0.77390 -0.02200
C 	C 	0.78110 0.85500 0.77820 -0.16500
H 	H 	0.77330 0.88660 0.73920 0.07100
C 	C 	0.72720 0.81200 0.81240 0.07500
H 	H 	0.68270 0.81960 0.79780 -0.01200
C 	C 	0.73850 0.75800 0.86870 -0.13700
H 	H 	0.70190 0.72810 0.89300 0.07100
C 	C 	0.80420 0.74900 0.88900 0.05200
C 	C 	0.82250 0.69300 0.94790 0.05000
C 	C 	0.77780 0.61900 0.98780 -0.11300
H 	H 	0.73150 0.60880 0.97830 0.08400
C 	C 	0.80060 0.55900 0.04220 0.05000
H 	H 	0.77010 0.50800 0.06920 0.02500
C 	C 	0.87120 0.57600 0.05560 -0.12600
H 	H 	0.88860 0.54210 0.09200 0.06500
C 	C 	0.91250 0.64500 0.01260 0.09000
H 	H 	0.95950 0.64980 0.01990 -0.00500
Cu	Cu	0.44817 0.68870 0.10175 0.87100
N 	N 	0.50890 0.59690 0.16670 -0.22100
N 	N 	0.35880 0.70080 0.14600 -0.23700
N 	N 	0.39040 0.79560 0.03870 -0.22800
O 	O 	0.52880 0.67910 0.05380 -0.38300
O 	O 	0.63760 0.58480 0.05210 -0.24000
C 	C 	0.58260 0.60800 0.07940 0.24700
C 	C 	0.58100 0.61200 0.14600 -0.01600
H 	H 	0.59830 0.73200 0.15820 0.01800
C 	C 	0.62500 0.46400 0.17500 -0.18800
H 	H 	0.59650 0.36020 0.18500 0.07700
H 	H 	0.64500 0.51360 0.21010 0.06400
H 	H 	0.66040 0.42570 0.14860 -0.09200
C 	C 	0.57100 0.51900 0.13800 0.00400
H 	H 	0.56220 0.38780 0.13130 0.01800
C 	C 	0.63400 0.53500 0.17800 -0.16200
H 	H 	0.65510 0.65310 0.17230 0.06700
H 	H 	0.66630 0.43970 0.16780 0.21900
H 	H 	0.62040 0.52120 0.21800 0.04400
C 	C 	0.34540 0.64600 0.20180 0.08300
H 	H 	0.38120 0.60850 0.22610 -0.02200
C 	C 	0.28110 0.64500 0.22180 -0.16500
H 	H 	0.27330 0.61340 0.26080 0.07100
C 	C 	0.22720 0.68800 0.18760 0.07600
H 	H 	0.18270 0.68040 0.20220 -0.01200
C 	C 	0.23850 0.74200 0.13130 -0.13700
H 	H 	0.20190 0.77190 0.10700 0.07100
C 	C 	0.30420 0.75100 0.11100 0.05200
C 	C 	0.32250 0.80700 0.05210 0.04900
C 	C 	0.27780 0.88100 0.01220 -0.11100
H 	H 	0.23150 0.89120 0.02170 0.08300
C 	C 	0.30060 0.94100 0.95780 0.04800
H 	H 	0.27010 0.99200 0.93080 0.02600
C 	C 	0.37120 0.92400 0.94440 -0.12500
H 	H 	0.38860 0.95790 0.90800 0.06500
C 	C 	0.41250 0.85500 0.98740 0.08800
H 	H 	0.45950 0.85020 0.98010 -0.00500
Cu	Cu	0.05183 0.31130 0.60175 0.87100
N 	N 	0.99110 0.40310 0.66670 -0.22100
N 	N 	0.14120 0.29920 0.64600 -0.23700
N 	N 	0.10960 0.20440 0.53870 -0.22800
O 	O 	0.97120 0.32090 0.55380 -0.38200
O 	O 	0.86240 0.41520 0.55210 -0.24000
C 	C 	0.91740 0.39200 0.57940 0.24700
C 	C 	0.91900 0.38800 0.64600 -0.01500
H 	H 	0.90170 0.26800 0.65820 0.01800
C 	C 	0.87500 0.53600 0.67500 -0.18800
H 	H 	0.90350 0.63980 0.68500 0.07700
H 	H 	0.85500 0.48640 0.71010 0.06400
H 	H 	0.83960 0.57430 0.64860 -0.09200
C 	C 	0.92900 0.48100 0.63800 0.00400
H 	H 	0.93780 0.61220 0.63130 0.01800
C 	C 	0.86600 0.46500 0.67800 -0.16100
H 	H 	0.84490 0.34690 0.67230 0.06700
H 	H 	0.83370 0.56030 0.66780 0.21900
H 	H 	0.87960 0.47880 0.71800 0.04400
C 	C 	0.15460 0.35400 0.70180 0.08300
H 	H 	0.11880 0.39150 0.72610 -0.02200
C 	C 	0.21890 0.35500 0.72180 -0.16500
H 	H 	0.22670 0.38660 0.76080 0.07100
C 	C 	0.27280 0.31200 0.68760 0.07600
H 	H 	0.31730 0.31960 0.70220 -0.01200
C 	C 	0.26150 0.25800 0.63130 -0.13700
H 	H 	0.29810 0.22810 0.60700 0.07100
C 	C 	0.19580 0.24900 0.61100 0.05300
C 	C 	0.17750 0.19300 0.55210 0.04900
C 	C 	0.22220 0.11900 0.51220 -0.11000
H 	H 	0.26850 0.10880 0.52170 0.08300
C 	C 	0.19940 0.05900 0.45780 0.04600
H 	H 	0.22990 0.00800 0.43080 0.02600
C 	C 	0.12880 0.07600 0.44440 -0.12300
H 	H 	0.11140 0.04210 0.40800 0.06400
C 	C 	0.08750 0.14500 0.48740 0.08700
H 	H 	0.04050 0.14980 0.48010 -0.00500
Cu	Cu	0.44817 0.81130 0.60175 0.87100
N 	N 	0.50890 0.90310 0.66670 -0.22100
N 	N 	0.35880 0.79920 0.64600 -0.23700
N 	N 	0.39040 0.70440 0.53870 -0.22800
O 	O 	0.52880 0.82090 0.55380 -0.38300
O 	O 	0.63760 0.91520 0.55210 -0.24000
C 	C 	0.58260 0.89200 0.57940 0.24700
C 	C 	0.58100 0.88800 0.64600 -0.01600
H 	H 	0.59830 0.76800 0.65820 0.01800
C 	C 	0.62500 0.03600 0.67500 -0.18800
H 	H 	0.59650 0.13980 0.68500 0.07700
H 	H 	0.64500 0.98640 0.71010 0.06200
H 	H 	0.66040 0.07430 0.64860 -0.09300
C 	C 	0.57100 0.98100 0.63800 0.00400
H 	H 	0.56220 0.11220 0.63130 0.01800
C 	C 	0.63400 0.96500 0.67800 -0.16100
H 	H 	0.65510 0.84690 0.67230 0.06600
H 	H 	0.66630 0.06030 0.66780 0.22100
H 	H 	0.62040 0.97880 0.71800 0.04500
C 	C 	0.34540 0.85400 0.70180 0.08300
H 	H 	0.38120 0.89150 0.72610 -0.02200
C 	C 	0.28110 0.85500 0.72180 -0.16500
H 	H 	0.27330 0.88660 0.76080 0.07100
C 	C 	0.22720 0.81200 0.68760 0.07600
H 	H 	0.18270 0.81960 0.70220 -0.01200
C 	C 	0.23850 0.75800 0.63130 -0.13700
H 	H 	0.20190 0.72810 0.60700 0.07200
C 	C 	0.30420 0.74900 0.61100 0.05300
C 	C 	0.32250 0.69300 0.55210 0.04900
C 	C 	0.27780 0.61900 0.51220 -0.11000
H 	H 	0.23150 0.60880 0.52170 0.08300
C 	C 	0.30060 0.55900 0.45780 0.04700
H 	H 	0.27010 0.50800 0.43080 0.02600
C 	C 	0.37120 0.57600 0.44440 -0.12300
H 	H 	0.38860 0.54210 0.40800 0.06400
C 	C 	0.41250 0.64500 0.48740 0.08800
H 	H 	0.45950 0.64980 0.48010 -0.00500
Cu	Cu	0.05183 0.18870 0.10175 0.87000
N 	N 	0.99110 0.09690 0.16670 -0.22100
N 	N 	0.14120 0.20080 0.14600 -0.23700
N 	N 	0.10960 0.29560 0.03870 -0.22900
O 	O 	0.97120 0.17910 0.05380 -0.38200
O 	O 	0.86240 0.08480 0.05210 -0.23900
C 	C 	0.91740 0.10800 0.07940 0.24600
C 	C 	0.91900 0.11200 0.14600 -0.01200
H 	H 	0.90170 0.23200 0.15820 0.01700
C 	C 	0.87500 0.96400 0.17500 -0.18700
H 	H 	0.90350 0.86020 0.18500 0.07700
H 	H 	0.85500 0.01360 0.21010 0.06600
H 	H 	0.83960 0.92570 0.14860 -0.09200
C 	C 	0.92900 0.01900 0.13800 0.00300
H 	H 	0.93780 0.88780 0.13130 0.01800
C 	C 	0.86600 0.03500 0.17800 -0.16600
H 	H 	0.84490 0.15310 0.17230 0.06800
H 	H 	0.83370 0.93970 0.16780 0.21900
H 	H 	0.87960 0.02120 0.21800 0.04400
C 	C 	0.15460 0.14600 0.20180 0.08300
H 	H 	0.11880 0.10850 0.22610 -0.02200
C 	C 	0.21890 0.14500 0.22180 -0.16500
H 	H 	0.22670 0.11340 0.26080 0.07100
C 	C 	0.27280 0.18800 0.18760 0.07500
H 	H 	0.31730 0.18040 0.20220 -0.01200
C 	C 	0.26150 0.24200 0.13130 -0.13700
H 	H 	0.29810 0.27190 0.10700 0.07100
C 	C 	0.19580 0.25100 0.11100 0.05200
C 	C 	0.17750 0.30700 0.05210 0.05000
C 	C 	0.22220 0.38100 0.01220 -0.11300
H 	H 	0.26850 0.39120 0.02170 0.08400
C 	C 	0.19940 0.44100 0.95780 0.05000
H 	H 	0.22990 0.49200 0.93080 0.02500
C 	C 	0.12880 0.42400 0.94440 -0.12600
H 	H 	0.11140 0.45790 0.90800 0.06500
C 	C 	0.08750 0.35500 0.98740 0.09000
H 	H 	0.04050 0.35020 0.98010 -0.00500
Cu	Cu	0.55183 0.31130 0.89825 0.87100
N 	N 	0.49110 0.40310 0.83330 -0.22100
N 	N 	0.64120 0.29920 0.85400 -0.23700
N 	N 	0.60960 0.20440 0.96130 -0.22800
O 	O 	0.47120 0.32090 0.94620 -0.38300
O 	O 	0.36240 0.41520 0.94790 -0.24000
C 	C 	0.41740 0.39200 0.92060 0.24700
C 	C 	0.41900 0.38800 0.85400 -0.01600
H 	H 	0.40170 0.26800 0.84180 0.01800
C 	C 	0.37500 0.53600 0.82500 -0.18800
H 	H 	0.40350 0.63980 0.81500 0.07700
H 	H 	0.35500 0.48640 0.78990 0.06400
H 	H 	0.33960 0.57430 0.85140 -0.09200
C 	C 	0.42900 0.48100 0.86200 0.00400
H 	H 	0.43780 0.61220 0.86870 0.01800
C 	C 	0.36600 0.46500 0.82200 -0.16200
H 	H 	0.34490 0.34690 0.82770 0.06700
H 	H 	0.33370 0.56030 0.83220 0.21900
H 	H 	0.37960 0.47880 0.78200 0.04400
C 	C 	0.65460 0.35400 0.79820 0.08300
H 	H 	0.61880 0.39150 0.77390 -0.02200
C 	C 	0.71890 0.35500 0.77820 -0.16500
H 	H 	0.72670 0.38660 0.73920 0.07100
C 	C 	0.77280 0.31200 0.81240 0.07600
H 	H 	0.81730 0.31960 0.79780 -0.01200
C 	C 	0.76150 0.25800 0.86870 -0.13700
H 	H 	0.79810 0.22810 0.89300 0.07100
C 	C 	0.69580 0.24900 0.88900 0.05200
C 	C 	0.67750 0.19300 0.94790 0.04900
C 	C 	0.72220 0.11900 0.98780 -0.11100
H 	H 	0.76850 0.10880 0.97830 0.08300
C 	C 	0.69940 0.05900 0.04220 0.04800
H 	H 	0.72990 0.00800 0.06920 0.02600
C 	C 	0.62880 0.07600 0.05560 -0.12500
H 	H 	0.61140 0.04210 0.09200 0.06500
C 	C 	0.58750 0.14500 0.01260 0.08800
H 	H 	0.54050 0.14980 0.01990 -0.00500
Cu	Cu	0.94817 0.68870 0.39825 0.87100
N 	N 	0.00890 0.59690 0.33330 -0.22100
N 	N 	0.85880 0.70080 0.35400 -0.23700
N 	N 	0.89040 0.79560 0.46130 -0.22800
O 	O 	0.02880 0.67910 0.44620 -0.38200
O 	O 	0.13760 0.58480 0.44790 -0.24000
C 	C 	0.08260 0.60800 0.42060 0.24700
C 	C 	0.08100 0.61200 0.35400 -0.01500
H 	H 	0.09830 0.73200 0.34180 0.01800
C 	C 	0.12500 0.46400 0.32500 -0.18800
H 	H 	0.09650 0.36020 0.31500 0.07700
H 	H 	0.14500 0.51360 0.28990 0.06400
H 	H 	0.16040 0.42570 0.35140 -0.09200
C 	C 	0.07100 0.51900 0.36200 0.00400
H 	H 	0.06220 0.38780 0.36870 0.01800
C 	C 	0.13400 0.53500 0.32200 -0.16100
H 	H 	0.15510 0.65310 0.32770 0.06700
H 	H 	0.16630 0.43970 0.33220 0.21900
H 	H 	0.12040 0.52120 0.28200 0.04400
C 	C 	0.84540 0.64600 0.29820 0.08300
H 	H 	0.88120 0.60850 0.27390 -0.02200
C 	C 	0.78110 0.64500 0.27820 -0.16500
H 	H 	0.77330 0.61340 0.23920 0.07100
C 	C 	0.72720 0.68800 0.31240 0.07600
H 	H 	0.68270 0.68040 0.29780 -0.01200
C 	C 	0.73850 0.74200 0.36870 -0.13700
H 	H 	0.70190 0.77190 0.39300 0.07100
C 	C 	0.80420 0.75100 0.38900 0.05300
C 	C 	0.82250 0.80700 0.44790 0.04900
C 	C 	0.77780 0.88100 0.48780 -0.11000
H 	H 	0.73150 0.89120 0.47830 0.08300
C 	C 	0.80060 0.94100 0.54220 0.04600
H 	H 	0.77010 0.99200 0.56920 0.02600
C 	C 	0.87120 0.92400 0.55560 -0.12300
H 	H 	0.88860 0.95790 0.59200 0.06400
C 	C 	0.91250 0.85500 0.51260 0.08700
H 	H 	0.95950 0.85020 0.51990 -0.00500
