data_crystal

_cell_length_a 11.59360
_cell_length_b 11.92010
_cell_length_c 12.12230
_cell_angle_alpha 63.59300
_cell_angle_beta  88.02500
_cell_angle_gamma 67.33100

_symmetry_space_group_name_	'P 1'
_symmetry_space_group_name_H-M	'P 1'

loop_
_symmetry_equiv_pos_as_xyz
  x,y,z

loop_
_atom_site_label
_atom_site_type_symbol
_atom_site_fract_x
_atom_site_fract_y
_atom_site_fract_z
_atom_site_charge
Co	Co	0.79802 0.18642 0.83959 1.16100
Co	Co	0.75840 0.45878 0.30276 1.15200
Cl	Cl	0.75800 0.59510 0.10559 -0.48000
Cl	Cl	0.92818 0.26090 0.40573 -0.48700
Cl	Cl	0.63834 0.25759 0.69018 -0.61600
Cl	Cl	0.86950 0.95910 0.94548 -0.47300
N 	N 	0.72530 0.26280 0.95890 -0.25400
N 	N 	0.47000 0.32230 0.29350 -0.11100
N 	N 	0.61060 0.40580 0.30690 -0.21300
N 	N 	0.53210 0.41670 0.38990 -0.22800
N 	N 	0.36130 0.44300 0.52260 -0.22900
N 	N 	0.27270 0.43660 0.59720 -0.21200
N 	N 	0.27420 0.31580 0.49720 -0.10900
N 	N 	0.93260 0.24830 0.75980 -0.26000
C 	C 	0.80050 0.25140 0.04790 0.08000
H 	H 	0.88690 0.22370 0.04520 0.02400
C 	C 	0.75450 0.27940 0.14410 -0.11800
H 	H 	0.80940 0.27160 0.20390 0.08300
C 	C 	0.62760 0.31870 0.15100 0.05500
C 	C 	0.55000 0.33040 0.05860 -0.12800
H 	H 	0.46330 0.35820 0.05910 0.11400
C 	C 	0.60230 0.30060 0.96620 0.09000
H 	H 	0.54920 0.30720 0.90580 -0.00100
C 	C 	0.57020 0.34820 0.25100 0.09800
C 	C 	0.45200 0.36480 0.38030 0.08700
C 	C 	0.35900 0.37050 0.46410 0.08300
C 	C 	0.22150 0.36070 0.57910 0.09800
C 	C 	0.12080 0.32560 0.64310 0.05900
C 	C 	0.11770 0.20210 0.66580 -0.11400
H 	H 	0.17890 0.14250 0.64240 0.11000
C 	C 	0.02200 0.16890 0.72380 0.10400
H 	H 	0.02080 0.08600 0.73810 0.00700
C 	C 	0.93630 0.36680 0.73770 0.10400
H 	H 	0.87380 0.42480 0.76160 -0.00400
C 	C 	0.02810 0.40680 0.68120 -0.12600
H 	H 	0.02730 0.49000 0.66860 0.07700
Co	Co	0.20198 0.81358 0.16041 1.16000
Co	Co	0.24160 0.54122 0.69724 1.15200
Cl	Cl	0.24200 0.40490 0.89441 -0.48000
Cl	Cl	0.07182 0.73910 0.59427 -0.48700
Cl	Cl	0.36166 0.74241 0.30982 -0.61600
Cl	Cl	0.13050 0.04090 0.05452 -0.47300
N 	N 	0.27470 0.73720 0.04110 -0.25400
N 	N 	0.53000 0.67770 0.70650 -0.11100
N 	N 	0.38940 0.59420 0.69310 -0.21300
N 	N 	0.46790 0.58330 0.61010 -0.22800
N 	N 	0.63870 0.55700 0.47740 -0.22900
N 	N 	0.72730 0.56340 0.40280 -0.21200
N 	N 	0.72580 0.68420 0.50280 -0.10900
N 	N 	0.06740 0.75170 0.24020 -0.26000
C 	C 	0.19950 0.74860 0.95210 0.08000
H 	H 	0.11310 0.77630 0.95480 0.02400
C 	C 	0.24550 0.72060 0.85590 -0.11800
H 	H 	0.19060 0.72840 0.79610 0.08300
C 	C 	0.37240 0.68130 0.84900 0.05500
C 	C 	0.45000 0.66960 0.94140 -0.12800
H 	H 	0.53670 0.64180 0.94090 0.11400
C 	C 	0.39770 0.69940 0.03380 0.09000
H 	H 	0.45080 0.69280 0.09420 -0.00100
C 	C 	0.42980 0.65180 0.74900 0.09800
C 	C 	0.54800 0.63520 0.61970 0.08700
C 	C 	0.64100 0.62950 0.53590 0.08300
C 	C 	0.77850 0.63930 0.42090 0.09800
C 	C 	0.87920 0.67440 0.35690 0.05900
C 	C 	0.88230 0.79790 0.33420 -0.11400
H 	H 	0.82110 0.85750 0.35760 0.11000
C 	C 	0.97800 0.83110 0.27620 0.10400
H 	H 	0.97920 0.91400 0.26190 0.00700
C 	C 	0.06370 0.63320 0.26230 0.10400
H 	H 	0.12620 0.57520 0.23840 -0.00400
C 	C 	0.97190 0.59320 0.31880 -0.12600
H 	H 	0.97270 0.51000 0.33140 0.07700
Co	Co	0.50000 0.50000 0.50000 1.15500
