data_crystal

_cell_length_a 11.67650
_cell_length_b 10.38520
_cell_length_c 15.09130
_cell_angle_alpha 90.00000
_cell_angle_beta  107.07400
_cell_angle_gamma 90.00000

_symmetry_space_group_name_	'P 1'
_symmetry_space_group_name_H-M	'P 1'

loop_
_symmetry_equiv_pos_as_xyz
  x,y,z

loop_
_atom_site_label
_atom_site_type_symbol
_atom_site_fract_x
_atom_site_fract_y
_atom_site_fract_z
_atom_site_charge
Zn	Zn	0.54923 0.14328 0.57653 1.14100
Zn	Zn	0.13585 0.35638 0.27487 1.13800
N 	N 	0.46490 0.24690 0.46200 -0.30600
C 	C 	0.34800 0.26120 0.42600 0.09300
H 	H 	0.29420 0.23420 0.45710 -0.08300
N 	N 	0.31120 0.31680 0.34200 -0.28500
C 	C 	0.41700 0.33900 0.32090 -0.00900
C 	C 	0.44750 0.40390 0.24900 0.03100
N 	N 	0.56060 0.41280 0.25140 -0.14100
C 	C 	0.64510 0.36320 0.32460 0.08600
H 	H 	0.72390 0.37000 0.32320 -0.01900
N 	N 	0.62840 0.30540 0.39880 -0.17600
C 	C 	0.51240 0.29610 0.39580 0.09200
S 	S 	0.33610 0.47240 0.15860 -0.04300
C 	C 	0.42220 0.56750 0.10070 -0.39600
H 	H 	0.36890 0.61060 0.04850 0.11400
H 	H 	0.46860 0.63010 0.14300 0.13000
H 	H 	0.47490 0.51220 0.07980 0.13300
N 	N 	0.56550 0.95050 0.58810 -0.29300
C 	C 	0.59900 0.88860 0.66840 0.06400
H 	H 	0.62700 0.93170 0.72470 -0.05700
N 	N 	0.58990 0.75830 0.66310 -0.31100
C 	C 	0.54540 0.73460 0.57190 0.10800
N 	N 	0.51820 0.61920 0.53170 -0.17000
C 	C 	0.47320 0.62820 0.44170 0.09300
H 	H 	0.44690 0.55100 0.41140 0.00500
N 	N 	0.45920 0.73290 0.38590 -0.13300
C 	C 	0.48940 0.84440 0.42670 0.03000
C 	C 	0.53010 0.85300 0.52180 -0.02800
S 	S 	0.47620 0.98330 0.35840 -0.03100
C 	C 	0.40530 0.92150 0.24750 -0.39000
H 	H 	0.39270 0.98970 0.20270 0.11600
H 	H 	0.45490 0.85640 0.23250 0.13000
H 	H 	0.32950 0.88470 0.24660 0.12400
N 	N 	0.11070 0.54660 0.26150 -0.29900
C 	C 	0.08180 0.60970 0.18190 0.08400
H 	H 	0.05880 0.56630 0.12550 -0.06100
N 	N 	0.08700 0.73670 0.18550 -0.32100
C 	C 	0.12560 0.75960 0.27940 0.08700
N 	N 	0.14810 0.87720 0.31950 -0.17800
C 	C 	0.18250 0.86720 0.41240 0.08700
H 	H 	0.19910 0.94470 0.44440 -0.02500
N 	N 	0.19610 0.76280 0.46510 -0.14000
C 	C 	0.17350 0.64890 0.42180 0.03000
C 	C 	0.13820 0.64410 0.32520 -0.02200
S 	S 	0.18380 0.50910 0.48790 -0.08500
C 	C 	0.25150 0.56060 0.60600 -0.37600
H 	H 	0.26010 0.48790 0.64680 0.11500
H 	H 	0.32890 0.59700 0.61170 0.12000
H 	H 	0.20150 0.62410 0.62220 0.13200
Zn	Zn	0.04923 0.85672 0.07653 1.12900
Zn	Zn	0.63585 0.64362 0.77487 1.14200
N 	N 	0.96490 0.75310 0.96200 -0.27300
C 	C 	0.84800 0.73880 0.92600 0.09700
H 	H 	0.79420 0.76580 0.95710 -0.07200
N 	N 	0.81120 0.68320 0.84200 -0.28700
C 	C 	0.91700 0.66100 0.82090 0.02100
C 	C 	0.94750 0.59610 0.74900 0.04200
N 	N 	0.06060 0.58720 0.75140 -0.15400
C 	C 	0.14510 0.63680 0.82460 0.08200
H 	H 	0.22390 0.63000 0.82320 -0.01700
N 	N 	0.12840 0.69460 0.89880 -0.16500
C 	C 	0.01240 0.70390 0.89580 0.05000
S 	S 	0.83610 0.52760 0.65860 -0.02100
C 	C 	0.92220 0.43250 0.60070 -0.44200
H 	H 	0.86890 0.38940 0.54850 0.14200
H 	H 	0.96860 0.36990 0.64300 0.15300
H 	H 	0.97490 0.48780 0.57980 0.16500
N 	N 	0.06550 0.04950 0.08810 -0.29300
C 	C 	0.09900 0.11140 0.16840 0.05900
H 	H 	0.12700 0.06830 0.22470 -0.06200
N 	N 	0.08990 0.24170 0.16310 -0.31700
C 	C 	0.04540 0.26540 0.07190 0.11500
N 	N 	0.01820 0.38080 0.03170 -0.21600
C 	C 	0.97320 0.37180 0.94170 0.16800
H 	H 	0.94690 0.44900 0.91140 -0.01000
N 	N 	0.95920 0.26710 0.88590 -0.15100
C 	C 	0.98940 0.15560 0.92670 0.09600
C 	C 	0.03010 0.14700 0.02180 -0.10600
S 	S 	0.97620 0.01670 0.85840 -0.02200
C 	C 	0.90530 0.07850 0.74750 -0.40400
H 	H 	0.89270 0.01030 0.70270 0.12600
H 	H 	0.95490 0.14360 0.73250 0.14000
H 	H 	0.82950 0.11530 0.74660 0.12900
N 	N 	0.61070 0.45340 0.76150 -0.29700
C 	C 	0.58180 0.39030 0.68190 0.08800
H 	H 	0.55880 0.43370 0.62550 -0.05100
N 	N 	0.58700 0.26330 0.68550 -0.31500
C 	C 	0.62560 0.24040 0.77940 0.08900
N 	N 	0.64810 0.12280 0.81950 -0.17600
C 	C 	0.68250 0.13280 0.91240 0.09000
H 	H 	0.69910 0.05530 0.94440 -0.01600
N 	N 	0.69610 0.23720 0.96510 -0.12800
C 	C 	0.67350 0.35110 0.92180 0.02500
C 	C 	0.63820 0.35590 0.82520 -0.01600
S 	S 	0.68380 0.49090 0.98790 -0.02300
C 	C 	0.75150 0.43940 0.10600 -0.45900
H 	H 	0.76010 0.51210 0.14680 0.14100
H 	H 	0.82890 0.40300 0.11170 0.14400
H 	H 	0.70150 0.37590 0.12220 0.15500
