data_crystal

_cell_length_a 20.90100
_cell_length_b 9.71220
_cell_length_c 25.54120
_cell_angle_alpha 90.00000
_cell_angle_beta  99.29200
_cell_angle_gamma 90.00000

_symmetry_space_group_name_	'P 1'
_symmetry_space_group_name_H-M	'P 1'

loop_
_symmetry_equiv_pos_as_xyz
  x,y,z

loop_
_atom_site_label
_atom_site_type_symbol
_atom_site_fract_x
_atom_site_fract_y
_atom_site_fract_z
_atom_site_charge
C 	C 	0.56800 0.89910 0.30449 0.35100
C 	C 	0.61570 0.98790 0.33878 -0.14800
C 	C 	0.63830 0.94820 0.38980 0.10200
H 	H 	0.62250 0.86600 0.40330 0.01100
C 	C 	0.68370 0.02630 0.42180 -0.18600
H 	H 	0.69830 0.99860 0.45740 0.09600
C 	C 	0.70830 0.14460 0.40244 0.17800
C 	C 	0.68540 0.18490 0.35150 -0.19500
H 	H 	0.70100 0.26740 0.33810 0.10200
C 	C 	0.63960 0.10570 0.31950 0.10400
H 	H 	0.62460 0.13330 0.28390 0.01700
C 	C 	0.81770 0.17490 0.43920 0.16400
C 	C 	0.86420 0.26410 0.47450 0.02200
C 	C 	0.93090 0.24850 0.48660 -0.07000
H 	H 	0.95230 0.17520 0.47180 0.06500
C 	C 	0.96540 0.34250 0.52060 0.00000
H 	H 	0.01100 0.33330 0.52980 0.03800
C 	C 	0.93410 0.44970 0.54140 -0.06300
H 	H 	0.95770 0.51410 0.56500 0.05500
C 	C 	0.86757 0.46130 0.52702 0.01500
C 	C 	0.82390 0.56320 0.54651 0.15900
C 	C 	0.71350 0.62790 0.54160 0.17400
C 	C 	0.70270 0.62280 0.59392 -0.19300
H 	H 	0.72780 0.56310 0.61860 0.10300
C 	C 	0.65580 0.70400 0.60970 0.10700
H 	H 	0.64990 0.70210 0.64580 0.00400
C 	C 	0.61710 0.78850 0.57464 -0.16700
C 	C 	0.62620 0.78980 0.52190 0.10500
H 	H 	0.59940 0.84560 0.49680 0.01700
C 	C 	0.67430 0.71030 0.50585 -0.20300
H 	H 	0.68050 0.71230 0.46980 0.09700
C 	C 	0.57010 0.88600 0.59270 0.39900
C 	C 	0.88790 0.94800 0.67787 0.34400
C 	C 	0.84110 0.03580 0.64251 -0.14000
C 	C 	0.78980 0.97570 0.60924 0.07900
H 	H 	0.78270 0.87930 0.61060 0.03000
C 	C 	0.74900 0.05740 0.57400 -0.16600
H 	H 	0.71460 0.01590 0.55050 0.09900
C 	C 	0.75770 0.19940 0.57255 0.16100
C 	C 	0.80750 0.25850 0.60788 -0.18100
H 	H 	0.81280 0.35560 0.60860 0.09200
C 	C 	0.84920 0.17680 0.64203 0.08400
H 	H 	0.88390 0.21800 0.66540 0.02200
C 	C 	0.65440 0.28180 0.53491 0.16300
C 	C 	0.61779 0.35180 0.48732 0.02700
C 	C 	0.55120 0.36340 0.47370 -0.06400
H 	H 	0.52290 0.32450 0.49540 0.07300
C 	C 	0.52700 0.43320 0.42780 -0.00400
H 	H 	0.48150 0.44350 0.41780 0.03500
C 	C 	0.56800 0.48830 0.39614 -0.05300
H 	H 	0.55130 0.53550 0.36430 0.04100
C 	C 	0.63390 0.47330 0.41181 0.01200
C 	C 	0.68750 0.52980 0.38569 0.16600
C 	C 	0.80110 0.56140 0.39634 0.17300
C 	C 	0.81790 0.69700 0.40850 -0.18500
H 	H 	0.79220 0.75040 0.42840 0.10500
C 	C 	0.87120 0.75520 0.39210 0.10400
H 	H 	0.88210 0.84850 0.40050 0.03500
C 	C 	0.90920 0.67830 0.36329 -0.16500
C 	C 	0.89350 0.54190 0.35160 0.10600
H 	H 	0.91940 0.48840 0.33190 -0.00100
C 	C 	0.83970 0.48370 0.36860 -0.19500
H 	H 	0.82940 0.38970 0.36120 0.09600
C 	C 	0.96590 0.74030 0.34310 0.40600
N 	N 	0.75737 0.22070 0.43542 -0.28500
N 	N 	0.83514 0.36830 0.49446 -0.25300
N 	N 	0.76218 0.54600 0.52404 -0.28300
N 	N 	0.74532 0.50270 0.41344 -0.28600
N 	N 	0.65654 0.40520 0.45650 -0.25300
N 	N 	0.71775 0.27990 0.53365 -0.28000
O 	O 	0.67564 0.59570 0.34342 -0.22100
O 	O 	0.62614 0.23440 0.57056 -0.21300
O 	O 	0.83723 0.07300 0.41719 -0.21400
O 	O 	0.84572 0.65020 0.58105 -0.22300
O 	O 	0.54077 0.80040 0.32464 -0.41600
O 	O 	0.55551 0.92160 0.25554 -0.41800
O 	O 	0.53304 0.94760 0.55383 -0.46000
H 	H 	0.51510 0.01570 0.56560 0.27800
O 	O 	0.56750 0.90600 0.63944 -0.29400
O 	O 	0.87098 0.83140 0.69235 -0.41300
O 	O 	0.94525 0.98940 0.69200 -0.43400
O 	O 	0.97205 0.87250 0.35314 -0.48800
H 	H 	0.00670 0.90120 0.34430 0.29600
O 	O 	0.00244 0.67590 0.32036 -0.30300
Co	Co	0.74577 0.38703 0.47614 1.17200
Eu	Eu	0.98032 0.76959 0.73878 1.43200
C 	C 	0.06800 0.60090 0.80449 0.35100
C 	C 	0.11570 0.51210 0.83878 -0.14800
C 	C 	0.13830 0.55180 0.88980 0.10400
H 	H 	0.12250 0.63400 0.90330 0.01100
C 	C 	0.18370 0.47370 0.92180 -0.18900
H 	H 	0.19830 0.50140 0.95740 0.09800
C 	C 	0.20830 0.35540 0.90244 0.17900
C 	C 	0.18540 0.31510 0.85150 -0.19600
H 	H 	0.20100 0.23260 0.83810 0.10100
C 	C 	0.13960 0.39430 0.81950 0.10400
H 	H 	0.12460 0.36670 0.78390 0.01700
C 	C 	0.31770 0.32510 0.93920 0.16400
C 	C 	0.36420 0.23590 0.97450 0.02200
C 	C 	0.43090 0.25150 0.98660 -0.06900
H 	H 	0.45230 0.32480 0.97180 0.06500
C 	C 	0.46540 0.15750 0.02060 -0.00100
H 	H 	0.51100 0.16670 0.02980 0.03800
C 	C 	0.43410 0.05030 0.04140 -0.06200
H 	H 	0.45770 0.98590 0.06500 0.05400
C 	C 	0.36757 0.03870 0.02702 0.01500
C 	C 	0.32390 0.93680 0.04651 0.15900
C 	C 	0.21350 0.87210 0.04160 0.17500
C 	C 	0.20270 0.87720 0.09392 -0.19300
H 	H 	0.22780 0.93690 0.11860 0.10300
C 	C 	0.15580 0.79600 0.10970 0.10700
H 	H 	0.14990 0.79790 0.14580 0.00400
C 	C 	0.11710 0.71150 0.07464 -0.16700
C 	C 	0.12620 0.71020 0.02190 0.10400
H 	H 	0.09940 0.65440 0.99680 0.01800
C 	C 	0.17430 0.78970 0.00585 -0.20400
H 	H 	0.18050 0.78770 0.96980 0.09700
C 	C 	0.07010 0.61400 0.09270 0.39900
C 	C 	0.38790 0.55200 0.17787 0.34500
C 	C 	0.34110 0.46420 0.14251 -0.14400
C 	C 	0.28980 0.52430 0.10924 0.08400
H 	H 	0.28270 0.62070 0.11060 0.02800
C 	C 	0.24900 0.44260 0.07400 -0.16900
H 	H 	0.21460 0.48410 0.05050 0.09900
C 	C 	0.25770 0.30060 0.07255 0.16200
C 	C 	0.30750 0.24150 0.10788 -0.18300
H 	H 	0.31280 0.14440 0.10860 0.09300
C 	C 	0.34920 0.32320 0.14203 0.08600
H 	H 	0.38390 0.28200 0.16540 0.02100
C 	C 	0.15440 0.21820 0.03491 0.16300
C 	C 	0.11779 0.14820 0.98732 0.02600
C 	C 	0.05120 0.13660 0.97370 -0.06400
H 	H 	0.02290 0.17550 0.99540 0.07300
C 	C 	0.02700 0.06680 0.92780 -0.00400
H 	H 	0.98150 0.05650 0.91780 0.03600
C 	C 	0.06800 0.01170 0.89614 -0.05500
H 	H 	0.05130 0.96450 0.86430 0.04300
C 	C 	0.13390 0.02670 0.91181 0.01100
C 	C 	0.18750 0.97020 0.88569 0.16700
C 	C 	0.30110 0.93860 0.89634 0.17700
C 	C 	0.31790 0.80300 0.90850 -0.18800
H 	H 	0.29220 0.74960 0.92840 0.10600
C 	C 	0.37120 0.74480 0.89210 0.10700
H 	H 	0.38210 0.65150 0.90050 0.03400
C 	C 	0.40920 0.82170 0.86329 -0.16800
C 	C 	0.39350 0.95810 0.85160 0.11200
H 	H 	0.41940 0.01160 0.83190 -0.00300
C 	C 	0.33970 0.01630 0.86860 -0.20100
H 	H 	0.32940 0.11030 0.86120 0.09700
C 	C 	0.46590 0.75970 0.84310 0.40800
N 	N 	0.25737 0.27930 0.93542 -0.28600
N 	N 	0.33514 0.13170 0.99446 -0.25300
N 	N 	0.26218 0.95400 0.02404 -0.28300
N 	N 	0.24532 0.99730 0.91344 -0.28600
N 	N 	0.15654 0.09480 0.95650 -0.25300
N 	N 	0.21775 0.22010 0.03365 -0.28100
O 	O 	0.17564 0.90430 0.84342 -0.22100
O 	O 	0.12614 0.26560 0.07056 -0.21300
O 	O 	0.33723 0.42700 0.91719 -0.21400
O 	O 	0.34572 0.84980 0.08105 -0.22300
O 	O 	0.04077 0.69960 0.82464 -0.41500
O 	O 	0.05551 0.57840 0.75554 -0.41800
O 	O 	0.03304 0.55240 0.05383 -0.46000
H 	H 	0.01510 0.48430 0.06560 0.27800
O 	O 	0.06750 0.59400 0.13944 -0.29400
O 	O 	0.37098 0.66860 0.19235 -0.41300
O 	O 	0.44525 0.51060 0.19200 -0.43400
O 	O 	0.47205 0.62750 0.85314 -0.48700
H 	H 	0.50670 0.59880 0.84430 0.29500
O 	O 	0.50244 0.82410 0.82036 -0.30300
Co	Co	0.24577 0.11297 0.97614 1.17200
Eu	Eu	0.48032 0.73041 0.23878 1.43300
C 	C 	0.93200 0.39910 0.19551 0.35100
C 	C 	0.88430 0.48790 0.16122 -0.14800
C 	C 	0.86170 0.44820 0.11020 0.10400
H 	H 	0.87750 0.36600 0.09670 0.01100
C 	C 	0.81630 0.52630 0.07820 -0.18900
H 	H 	0.80170 0.49860 0.04260 0.09800
C 	C 	0.79170 0.64460 0.09756 0.17900
C 	C 	0.81460 0.68490 0.14850 -0.19600
H 	H 	0.79900 0.76740 0.16190 0.10100
C 	C 	0.86040 0.60570 0.18050 0.10400
H 	H 	0.87540 0.63330 0.21610 0.01700
C 	C 	0.68230 0.67490 0.06080 0.16400
C 	C 	0.63580 0.76410 0.02550 0.02200
C 	C 	0.56910 0.74850 0.01340 -0.06900
H 	H 	0.54770 0.67520 0.02820 0.06500
C 	C 	0.53460 0.84250 0.97940 -0.00100
H 	H 	0.48900 0.83330 0.97020 0.03800
C 	C 	0.56590 0.94970 0.95860 -0.06200
H 	H 	0.54230 0.01410 0.93500 0.05400
C 	C 	0.63243 0.96130 0.97298 0.01500
C 	C 	0.67610 0.06320 0.95349 0.15900
C 	C 	0.78650 0.12790 0.95840 0.17500
C 	C 	0.79730 0.12280 0.90608 -0.19300
H 	H 	0.77220 0.06310 0.88140 0.10300
C 	C 	0.84420 0.20400 0.89030 0.10700
H 	H 	0.85010 0.20210 0.85420 0.00400
C 	C 	0.88290 0.28850 0.92536 -0.16700
C 	C 	0.87380 0.28980 0.97810 0.10400
H 	H 	0.90060 0.34560 0.00320 0.01800
C 	C 	0.82570 0.21030 0.99415 -0.20400
H 	H 	0.81950 0.21230 0.03020 0.09700
C 	C 	0.92990 0.38600 0.90730 0.39900
C 	C 	0.61210 0.44800 0.82213 0.34500
C 	C 	0.65890 0.53580 0.85749 -0.14400
C 	C 	0.71020 0.47570 0.89076 0.08400
H 	H 	0.71730 0.37930 0.88940 0.02800
C 	C 	0.75100 0.55740 0.92600 -0.16900
H 	H 	0.78540 0.51590 0.94950 0.09900
C 	C 	0.74230 0.69940 0.92745 0.16200
C 	C 	0.69250 0.75850 0.89212 -0.18300
H 	H 	0.68720 0.85560 0.89140 0.09300
C 	C 	0.65080 0.67680 0.85797 0.08600
H 	H 	0.61610 0.71800 0.83460 0.02100
C 	C 	0.84560 0.78180 0.96509 0.16300
C 	C 	0.88221 0.85180 0.01268 0.02600
C 	C 	0.94880 0.86340 0.02630 -0.06400
H 	H 	0.97710 0.82450 0.00460 0.07300
C 	C 	0.97300 0.93320 0.07220 -0.00400
H 	H 	0.01850 0.94350 0.08220 0.03600
C 	C 	0.93200 0.98830 0.10386 -0.05500
H 	H 	0.94870 0.03550 0.13570 0.04300
C 	C 	0.86610 0.97330 0.08819 0.01100
C 	C 	0.81250 0.02980 0.11431 0.16700
C 	C 	0.69890 0.06140 0.10366 0.17700
C 	C 	0.68210 0.19700 0.09150 -0.18800
H 	H 	0.70780 0.25040 0.07160 0.10600
C 	C 	0.62880 0.25520 0.10790 0.10700
H 	H 	0.61790 0.34850 0.09950 0.03400
C 	C 	0.59080 0.17830 0.13671 -0.16800
C 	C 	0.60650 0.04190 0.14840 0.11200
H 	H 	0.58060 0.98840 0.16810 -0.00300
C 	C 	0.66030 0.98370 0.13140 -0.20100
H 	H 	0.67060 0.88970 0.13880 0.09700
C 	C 	0.53410 0.24030 0.15690 0.40800
N 	N 	0.74263 0.72070 0.06458 -0.28600
N 	N 	0.66486 0.86830 0.00554 -0.25300
N 	N 	0.73782 0.04600 0.97596 -0.28300
N 	N 	0.75468 0.00270 0.08656 -0.28600
N 	N 	0.84346 0.90520 0.04350 -0.25300
N 	N 	0.78225 0.77990 0.96635 -0.28100
O 	O 	0.82436 0.09570 0.15658 -0.22100
O 	O 	0.87386 0.73440 0.92944 -0.21300
O 	O 	0.66277 0.57300 0.08281 -0.21400
O 	O 	0.65428 0.15020 0.91895 -0.22300
O 	O 	0.95923 0.30040 0.17536 -0.41500
O 	O 	0.94449 0.42160 0.24446 -0.41800
O 	O 	0.96696 0.44760 0.94617 -0.46000
H 	H 	0.98490 0.51570 0.93440 0.27800
O 	O 	0.93250 0.40600 0.86056 -0.29400
O 	O 	0.62902 0.33140 0.80765 -0.41300
O 	O 	0.55475 0.48940 0.80800 -0.43400
O 	O 	0.52795 0.37250 0.14686 -0.48700
H 	H 	0.49330 0.40120 0.15570 0.29500
O 	O 	0.49756 0.17590 0.17964 -0.30300
Co	Co	0.75423 0.88703 0.02386 1.17200
Eu	Eu	0.51968 0.26959 0.76122 1.43300
C 	C 	0.43200 0.10090 0.69551 0.35100
C 	C 	0.38430 0.01210 0.66122 -0.14800
C 	C 	0.36170 0.05180 0.61020 0.10200
H 	H 	0.37750 0.13400 0.59670 0.01100
C 	C 	0.31630 0.97370 0.57820 -0.18600
H 	H 	0.30170 0.00140 0.54260 0.09600
C 	C 	0.29170 0.85540 0.59756 0.17800
C 	C 	0.31460 0.81510 0.64850 -0.19500
H 	H 	0.29900 0.73260 0.66190 0.10200
C 	C 	0.36040 0.89430 0.68050 0.10400
H 	H 	0.37540 0.86670 0.71610 0.01700
C 	C 	0.18230 0.82510 0.56080 0.16400
C 	C 	0.13580 0.73590 0.52550 0.02200
C 	C 	0.06910 0.75150 0.51340 -0.07000
H 	H 	0.04770 0.82480 0.52820 0.06500
C 	C 	0.03460 0.65750 0.47940 0.00000
H 	H 	0.98900 0.66670 0.47020 0.03800
C 	C 	0.06590 0.55030 0.45860 -0.06300
H 	H 	0.04230 0.48590 0.43500 0.05500
C 	C 	0.13243 0.53870 0.47298 0.01500
C 	C 	0.17610 0.43680 0.45349 0.15900
C 	C 	0.28650 0.37210 0.45840 0.17400
C 	C 	0.29730 0.37720 0.40608 -0.19300
H 	H 	0.27220 0.43690 0.38140 0.10300
C 	C 	0.34420 0.29600 0.39030 0.10700
H 	H 	0.35010 0.29790 0.35420 0.00400
C 	C 	0.38290 0.21150 0.42536 -0.16700
C 	C 	0.37380 0.21020 0.47810 0.10500
H 	H 	0.40060 0.15440 0.50320 0.01700
C 	C 	0.32570 0.28970 0.49415 -0.20300
H 	H 	0.31950 0.28770 0.53020 0.09700
C 	C 	0.42990 0.11400 0.40730 0.39900
C 	C 	0.11210 0.05200 0.32213 0.34400
C 	C 	0.15890 0.96420 0.35749 -0.14000
C 	C 	0.21020 0.02430 0.39076 0.07900
H 	H 	0.21730 0.12070 0.38940 0.03000
C 	C 	0.25100 0.94260 0.42600 -0.16600
H 	H 	0.28540 0.98410 0.44950 0.09900
C 	C 	0.24230 0.80060 0.42745 0.16100
C 	C 	0.19250 0.74150 0.39212 -0.18100
H 	H 	0.18720 0.64440 0.39140 0.09200
C 	C 	0.15080 0.82320 0.35797 0.08400
H 	H 	0.11610 0.78200 0.33460 0.02200
C 	C 	0.34560 0.71820 0.46509 0.16300
C 	C 	0.38221 0.64820 0.51268 0.02700
C 	C 	0.44880 0.63660 0.52630 -0.06400
H 	H 	0.47710 0.67550 0.50460 0.07300
C 	C 	0.47300 0.56680 0.57220 -0.00400
H 	H 	0.51850 0.55650 0.58220 0.03500
C 	C 	0.43200 0.51170 0.60386 -0.05300
H 	H 	0.44870 0.46450 0.63570 0.04100
C 	C 	0.36610 0.52670 0.58819 0.01200
C 	C 	0.31250 0.47020 0.61431 0.16600
C 	C 	0.19890 0.43860 0.60366 0.17300
C 	C 	0.18210 0.30300 0.59150 -0.18500
H 	H 	0.20780 0.24960 0.57160 0.10500
C 	C 	0.12880 0.24480 0.60790 0.10400
H 	H 	0.11790 0.15150 0.59950 0.03500
C 	C 	0.09080 0.32170 0.63671 -0.16500
C 	C 	0.10650 0.45810 0.64840 0.10600
H 	H 	0.08060 0.51160 0.66810 -0.00100
C 	C 	0.16030 0.51630 0.63140 -0.19500
H 	H 	0.17060 0.61030 0.63880 0.09600
C 	C 	0.03410 0.25970 0.65690 0.40600
N 	N 	0.24263 0.77930 0.56458 -0.28500
N 	N 	0.16486 0.63170 0.50554 -0.25300
N 	N 	0.23782 0.45400 0.47596 -0.28300
N 	N 	0.25468 0.49730 0.58656 -0.28600
N 	N 	0.34346 0.59480 0.54350 -0.25300
N 	N 	0.28225 0.72010 0.46635 -0.28000
O 	O 	0.32436 0.40430 0.65658 -0.22100
O 	O 	0.37386 0.76560 0.42944 -0.21300
O 	O 	0.16277 0.92700 0.58281 -0.21400
O 	O 	0.15428 0.34980 0.41895 -0.22300
O 	O 	0.45923 0.19960 0.67536 -0.41600
O 	O 	0.44449 0.07840 0.74446 -0.41800
O 	O 	0.46696 0.05240 0.44617 -0.46000
H 	H 	0.48490 0.98430 0.43440 0.27800
O 	O 	0.43250 0.09400 0.36056 -0.29400
O 	O 	0.12902 0.16860 0.30765 -0.41300
O 	O 	0.05475 0.01060 0.30800 -0.43400
O 	O 	0.02795 0.12750 0.64686 -0.48800
H 	H 	0.99330 0.09880 0.65570 0.29600
O 	O 	0.99756 0.32410 0.67964 -0.30300
Co	Co	0.25423 0.61297 0.52386 1.17200
Eu	Eu	0.01968 0.23041 0.26122 1.43200
