data_crystal

_cell_length_a 13.41200
_cell_length_b 10.46900
_cell_length_c 29.03100
_cell_angle_alpha 90.00000
_cell_angle_beta  100.99900
_cell_angle_gamma 90.00000

_symmetry_space_group_name_	'P 1'
_symmetry_space_group_name_H-M	'P 1'

loop_
_symmetry_equiv_pos_as_xyz
  x,y,z

loop_
_atom_site_label
_atom_site_type_symbol
_atom_site_fract_x
_atom_site_fract_y
_atom_site_fract_z
_atom_site_charge
N 	N 	0.90150 0.52750 0.50750 -0.27700
C 	C 	0.83740 0.59410 0.47380 0.16300
N 	N 	0.10120 0.25960 0.51140 -0.27500
C 	C 	0.71910 0.73520 0.39680 -0.01600
O 	O 	0.18360 0.12460 0.57520 -0.19900
C 	C 	0.14470 0.19550 0.47810 0.12000
C 	C 	0.97500 0.48090 0.58670 0.05800
O 	O 	0.85330 0.65450 0.56880 -0.20900
C 	C 	0.20060 0.05030 0.40260 0.09600
C 	C 	0.21900 0.19060 0.40740 0.04000
C 	C 	0.12670 0.22210 0.55710 0.12500
C 	C 	0.12790 0.05190 0.47320 -0.05200
H 	H 	0.09640 0.00930 0.49460 0.05800
C 	C 	0.77400 0.53630 0.43960 -0.21100
H 	H 	0.76840 0.44790 0.44100 0.10500
C 	C 	0.15990 0.98090 0.43620 -0.12100
H 	H 	0.15380 0.89250 0.43450 0.08700
C 	C 	0.18820 0.25820 0.44860 -0.16200
H 	H 	0.20040 0.34530 0.45290 0.08800
C 	C 	0.90340 0.56710 0.55190 0.14200
C 	C 	0.78830 0.80570 0.43190 -0.00600
H 	H 	0.79420 0.89400 0.43020 0.05100
C 	C 	0.65970 0.79930 0.36240 -0.06000
H 	H 	0.66080 0.88800 0.36130 0.06000
C 	C 	0.84410 0.73830 0.46710 -0.11600
H 	H 	0.89050 0.78320 0.48920 0.08200
C 	C 	0.71290 0.60190 0.40040 0.11900
C 	C 	0.27390 0.05920 0.33410 0.09800
C 	C 	0.58630 0.59540 0.32860 0.09000
C 	C 	0.07730 0.30540 0.58920 0.02800
C 	C 	0.22930 0.99010 0.36490 -0.19200
H 	H 	0.21850 0.90290 0.36030 0.10100
C 	C 	0.26130 0.25840 0.37440 -0.09300
H 	H 	0.27290 0.34580 0.37740 0.06900
C 	C 	0.52740 0.52980 0.29130 -0.12200
H 	H 	0.53290 0.44130 0.29150 0.07400
C 	C 	0.33060 0.25790 0.30170 -0.04600
H 	H 	0.34120 0.34550 0.30470 0.04700
C 	C 	0.99190 0.48760 0.63800 -0.05000
H 	H 	0.96440 0.55030 0.65450 0.06000
C 	C 	0.52290 0.80040 0.28460 -0.04500
H 	H 	0.52720 0.88800 0.28010 0.04500
C 	C 	0.28590 0.18860 0.33590 0.00000
C 	C 	0.30060 0.99540 0.28800 -0.14100
H 	H 	0.28780 0.90880 0.28270 0.07700
C 	C 	0.46480 0.58090 0.25580 0.00900
H 	H 	0.42780 0.53060 0.23220 0.02900
C 	C 	0.64510 0.53360 0.36650 -0.17000
H 	H 	0.63950 0.44560 0.36960 0.09600
C 	C 	0.35750 0.19110 0.26430 -0.06700
H 	H 	0.38860 0.23790 0.24380 0.05100
C 	C 	0.05980 0.37940 0.66120 -0.03200
H 	H 	0.06740 0.37240 0.69370 0.03500
C 	C 	0.34300 0.06580 0.25500 0.02700
H 	H 	0.35980 0.02800 0.22850 0.02200
C 	C 	0.59510 0.72780 0.32780 -0.00600
C 	C 	0.10860 0.29500 0.64030 -0.07300
H 	H 	0.15620 0.23710 0.65570 0.06600
N 	N 	0.01960 0.39500 0.56520 -0.27800
C 	C 	0.45500 0.72560 0.25490 -0.05700
H 	H 	0.40240 0.76400 0.23400 0.05100
N 	N 	0.09850 0.52750 0.49250 -0.28700
C 	C 	0.16260 0.59410 0.52620 0.15800
N 	N 	0.89880 0.25960 0.48860 -0.26500
C 	C 	0.28090 0.73520 0.60320 -0.01800
O 	O 	0.81640 0.12460 0.42480 -0.19300
C 	C 	0.85530 0.19550 0.52190 0.12800
C 	C 	0.02500 0.48090 0.41330 0.02400
O 	O 	0.14670 0.65450 0.43120 -0.21300
C 	C 	0.79940 0.05030 0.59740 0.09900
C 	C 	0.78100 0.19060 0.59260 0.04400
C 	C 	0.87330 0.22210 0.44290 0.12600
C 	C 	0.87210 0.05190 0.52680 -0.04900
H 	H 	0.90360 0.00930 0.50540 0.06800
C 	C 	0.22600 0.53630 0.56040 -0.21300
H 	H 	0.23160 0.44790 0.55900 0.10500
C 	C 	0.84010 0.98090 0.56380 -0.11500
H 	H 	0.84620 0.89250 0.56550 0.09000
C 	C 	0.81180 0.25820 0.55140 -0.15900
H 	H 	0.79960 0.34530 0.54710 0.08900
C 	C 	0.09660 0.56710 0.44810 0.13800
C 	C 	0.21170 0.80570 0.56810 -0.01200
H 	H 	0.20580 0.89400 0.56980 0.04800
C 	C 	0.34030 0.79930 0.63760 -0.06100
H 	H 	0.33920 0.88800 0.63870 0.05800
C 	C 	0.15590 0.73830 0.53290 -0.11900
H 	H 	0.10950 0.78320 0.51080 0.07200
C 	C 	0.28710 0.60190 0.59960 0.11700
C 	C 	0.72610 0.05920 0.66590 0.09800
C 	C 	0.41370 0.59540 0.67140 0.08900
C 	C 	0.92270 0.30540 0.41080 0.05500
C 	C 	0.77070 0.99010 0.63510 -0.19000
H 	H 	0.78150 0.90290 0.63970 0.10300
C 	C 	0.73870 0.25840 0.62560 -0.09100
H 	H 	0.72710 0.34580 0.62260 0.07000
C 	C 	0.47260 0.52980 0.70870 -0.12300
H 	H 	0.46710 0.44130 0.70850 0.07300
C 	C 	0.66940 0.25790 0.69830 -0.04600
H 	H 	0.65880 0.34550 0.69530 0.04700
C 	C 	0.00810 0.48760 0.36200 -0.12500
H 	H 	0.03560 0.55030 0.34550 0.07400
C 	C 	0.47710 0.80040 0.71540 -0.04600
H 	H 	0.47280 0.88800 0.71990 0.04400
C 	C 	0.71410 0.18860 0.66410 0.00200
C 	C 	0.69940 0.99540 0.71200 -0.13900
H 	H 	0.71220 0.90880 0.71730 0.07700
C 	C 	0.53520 0.58090 0.74420 0.00800
H 	H 	0.57220 0.53060 0.76780 0.02900
C 	C 	0.35490 0.53360 0.63350 -0.17100
H 	H 	0.36050 0.44560 0.63040 0.09500
C 	C 	0.64250 0.19110 0.73570 -0.06600
H 	H 	0.61140 0.23790 0.75620 0.05200
C 	C 	0.94020 0.37940 0.33880 0.06500
H 	H 	0.93260 0.37240 0.30630 0.01900
C 	C 	0.65700 0.06580 0.74500 0.02700
H 	H 	0.64020 0.02800 0.77150 0.02300
C 	C 	0.40490 0.72780 0.67220 -0.00800
C 	C 	0.89140 0.29500 0.35970 -0.11500
H 	H 	0.84380 0.23710 0.34430 0.08700
N 	N 	0.98040 0.39500 0.43480 -0.24400
C 	C 	0.54500 0.72560 0.74510 -0.05800
H 	H 	0.59760 0.76400 0.76600 0.05100
Fe	Fe	0.00000 0.39430 0.50000 1.17700
N 	N 	0.40150 0.02750 0.00750 -0.28800
C 	C 	0.33740 0.09410 0.97380 0.16100
N 	N 	0.60120 0.75960 0.01140 -0.29100
C 	C 	0.21910 0.23520 0.89680 0.01100
O 	O 	0.68360 0.62460 0.07520 -0.20400
C 	C 	0.64470 0.69550 0.97810 0.17300
C 	C 	0.47500 0.98090 0.08670 0.03400
O 	O 	0.35330 0.15450 0.06880 -0.21400
C 	C 	0.70060 0.55030 0.90260 0.00900
C 	C 	0.71900 0.69060 0.90740 0.09400
C 	C 	0.62670 0.72210 0.05710 0.12500
C 	C 	0.62790 0.55190 0.97320 -0.10900
H 	H 	0.59640 0.50930 0.99460 0.08800
C 	C 	0.27400 0.03630 0.93960 -0.16600
H 	H 	0.26840 0.94790 0.94100 0.08100
C 	C 	0.65990 0.48090 0.93620 -0.02700
H 	H 	0.65380 0.39250 0.93450 0.06300
C 	C 	0.68820 0.75820 0.94860 -0.20200
H 	H 	0.70040 0.84530 0.95290 0.10500
C 	C 	0.40340 0.06710 0.05190 0.14900
C 	C 	0.28830 0.30570 0.93190 -0.02500
H 	H 	0.29420 0.39400 0.93020 0.06100
C 	C 	0.15970 0.29930 0.86240 -0.09000
H 	H 	0.16080 0.38800 0.86130 0.07000
C 	C 	0.34410 0.23830 0.96710 -0.10600
H 	H 	0.39050 0.28320 0.98920 0.08300
C 	C 	0.21290 0.10190 0.90040 0.08000
C 	C 	0.77390 0.55920 0.83410 0.01200
C 	C 	0.08630 0.09540 0.82860 0.05100
C 	C 	0.57730 0.80540 0.08920 0.04300
C 	C 	0.72930 0.49010 0.86490 -0.08100
H 	H 	0.71850 0.40290 0.86030 0.07000
C 	C 	0.76130 0.75840 0.87440 -0.14200
H 	H 	0.77290 0.84580 0.87740 0.08800
C 	C 	0.02740 0.02980 0.79130 -0.10400
H 	H 	0.03290 0.94130 0.79150 0.04800
C 	C 	0.83060 0.75790 0.80170 -0.10100
H 	H 	0.84120 0.84550 0.80470 0.06700
C 	C 	0.49190 0.98760 0.13800 -0.11800
H 	H 	0.46440 0.05030 0.15450 0.08800
C 	C 	0.02290 0.30040 0.78460 -0.10700
H 	H 	0.02720 0.38800 0.78010 0.06000
C 	C 	0.78590 0.68860 0.83590 0.06200
C 	C 	0.80060 0.49540 0.78800 -0.05300
H 	H 	0.78780 0.40880 0.78270 0.05300
C 	C 	0.96480 0.08090 0.75580 0.00900
H 	H 	0.92780 0.03060 0.73220 0.04000
C 	C 	0.14510 0.03360 0.86650 -0.10900
H 	H 	0.13950 0.94560 0.86960 0.06300
C 	C 	0.85750 0.69110 0.76430 -0.00200
H 	H 	0.88860 0.73790 0.74380 0.03100
C 	C 	0.55980 0.87940 0.16120 0.02900
H 	H 	0.56740 0.87240 0.19370 0.02100
C 	C 	0.84300 0.56580 0.75500 -0.05200
H 	H 	0.85980 0.52800 0.72850 0.04900
C 	C 	0.09510 0.22780 0.82780 0.02200
C 	C 	0.60860 0.79500 0.14030 -0.10300
H 	H 	0.65620 0.73710 0.15570 0.07900
N 	N 	0.51960 0.89500 0.06520 -0.26500
C 	C 	0.95500 0.22560 0.75490 0.00400
H 	H 	0.90240 0.26400 0.73400 0.03700
N 	N 	0.59850 0.02750 0.99250 -0.25600
C 	C 	0.66260 0.09410 0.02620 0.10500
N 	N 	0.39880 0.75960 0.98860 -0.26000
C 	C 	0.78090 0.23520 0.10320 0.04300
O 	O 	0.31640 0.62460 0.92480 -0.19900
C 	C 	0.35530 0.69550 0.02190 0.12200
C 	C 	0.52500 0.98090 0.91330 0.03600
O 	O 	0.64670 0.15450 0.93120 -0.20000
C 	C 	0.29940 0.55030 0.09740 0.01700
C 	C 	0.28100 0.69060 0.09260 0.07400
C 	C 	0.37330 0.72210 0.94290 0.12700
C 	C 	0.37210 0.55190 0.02680 -0.09300
H 	H 	0.40360 0.50930 0.00540 0.06500
C 	C 	0.72600 0.03630 0.06040 -0.12300
H 	H 	0.73160 0.94790 0.05900 0.06300
C 	C 	0.34010 0.48090 0.06380 -0.04700
H 	H 	0.34620 0.39250 0.06550 0.06300
C 	C 	0.31180 0.75820 0.05140 -0.17800
H 	H 	0.29960 0.84530 0.04710 0.08600
C 	C 	0.59660 0.06710 0.94810 0.15200
C 	C 	0.71170 0.30570 0.06810 -0.05700
H 	H 	0.70580 0.39400 0.06980 0.06900
C 	C 	0.84030 0.29930 0.13760 -0.11400
H 	H 	0.83920 0.38800 0.13870 0.08300
C 	C 	0.65590 0.23830 0.03290 -0.07400
H 	H 	0.60950 0.28320 0.01080 0.05700
C 	C 	0.78710 0.10190 0.09960 0.04400
C 	C 	0.22610 0.55920 0.16590 0.01200
C 	C 	0.91370 0.09540 0.17140 -0.00400
C 	C 	0.42270 0.80540 0.91080 0.04300
C 	C 	0.27070 0.49010 0.13510 -0.09200
H 	H 	0.28150 0.40290 0.13970 0.06900
C 	C 	0.23870 0.75840 0.12560 -0.13500
H 	H 	0.22710 0.84580 0.12260 0.07700
C 	C 	0.97260 0.02980 0.20870 0.03800
H 	H 	0.96710 0.94130 0.20850 0.01900
C 	C 	0.16940 0.75790 0.19830 -0.10200
H 	H 	0.15880 0.84550 0.19530 0.05800
C 	C 	0.50810 0.98760 0.86200 -0.11700
H 	H 	0.53560 0.05030 0.84550 0.08800
C 	C 	0.97710 0.30040 0.21540 -0.04300
H 	H 	0.97280 0.38800 0.21990 0.05700
C 	C 	0.21410 0.68860 0.16410 0.05100
C 	C 	0.19940 0.49540 0.21200 -0.06200
H 	H 	0.21220 0.40880 0.21730 0.05100
C 	C 	0.03520 0.08090 0.24420 -0.10900
H 	H 	0.07220 0.03060 0.26780 0.07000
C 	C 	0.85490 0.03360 0.13350 -0.06000
H 	H 	0.86050 0.94560 0.13040 0.05100
C 	C 	0.14250 0.69110 0.23570 -0.01000
H 	H 	0.11140 0.73790 0.25620 0.02400
C 	C 	0.44020 0.87940 0.83880 0.02800
H 	H 	0.43260 0.87240 0.80630 0.02000
C 	C 	0.15700 0.56580 0.24500 -0.05400
H 	H 	0.14020 0.52800 0.27150 0.04200
C 	C 	0.90490 0.22780 0.17220 0.04800
C 	C 	0.39140 0.79500 0.85970 -0.10300
H 	H 	0.34380 0.73710 0.84430 0.07600
N 	N 	0.48040 0.89500 0.93480 -0.26100
C 	C 	0.04500 0.22560 0.24510 -0.04500
H 	H 	0.09760 0.26400 0.26600 0.04400
Fe	Fe	0.50000 0.89430 -0.00000 1.17600
