data_crystal

_cell_length_a 14.05200
_cell_length_b 32.52800
_cell_length_c 17.99200
_cell_angle_alpha 90.00000
_cell_angle_beta  103.46200
_cell_angle_gamma 90.00000

_symmetry_space_group_name_	'P 1'
_symmetry_space_group_name_H-M	'P 1'

loop_
_symmetry_equiv_pos_as_xyz
  x,y,z

loop_
_atom_site_label
_atom_site_type_symbol
_atom_site_fract_x
_atom_site_fract_y
_atom_site_fract_z
_atom_site_charge
Bi	Bi	0.67139 0.67996 0.27330 1.84100
W 	W 	0.46010 0.65607 0.12259 0.92500
W 	W 	0.43307 0.65654 0.30145 0.89300
W 	W 	0.64897 0.65502 0.46443 0.90200
W 	W 	0.87217 0.65541 0.42967 0.88900
W 	W 	0.90382 0.65519 0.23161 0.91400
W 	W 	0.70822 0.65519 0.08590 0.89200
W 	W 	0.51442 0.57186 0.23148 0.99600
W 	W 	0.73518 0.57058 0.39313 0.96400
W 	W 	0.76295 0.57034 0.19262 0.98900
O 	O 	0.44490 0.59520 0.13570 -0.41700
O 	O 	0.37510 0.66410 0.18970 -0.47200
O 	O 	0.42100 0.59760 0.27950 -0.41000
O 	O 	0.52430 0.64210 0.39360 -0.45800
O 	O 	0.67340 0.59430 0.46840 -0.41700
O 	O 	0.79090 0.66190 0.50570 -0.44800
O 	O 	0.85530 0.59520 0.44200 -0.41000
O 	O 	0.91030 0.64200 0.33670 -0.46200
O 	O 	0.89440 0.59500 0.21500 -0.40800
O 	O 	0.85410 0.66100 0.12220 -0.45500
O 	O 	0.73760 0.59480 0.09490 -0.41200
O 	O 	0.57540 0.64180 0.08610 -0.45600
O 	O 	0.51190 0.70630 0.14140 -0.64700
O 	O 	0.48770 0.70770 0.30590 -0.64800
O 	O 	0.63850 0.70720 0.43070 -0.62600
O 	O 	0.84050 0.70760 0.39350 -0.64100
O 	O 	0.87250 0.70710 0.25090 -0.63600
O 	O 	0.69030 0.70750 0.11450 -0.63300
O 	O 	0.60270 0.56640 0.32580 -0.44300
O 	O 	0.77640 0.56550 0.30220 -0.45000
O 	O 	0.62730 0.56540 0.19000 -0.44900
O 	O 	0.54850 0.63990 0.23990 -0.57700
O 	O 	0.71830 0.64060 0.36770 -0.58200
O 	O 	0.74480 0.64020 0.21050 -0.58000
Bi	Bi	0.67139 0.82004 0.27330 1.84000
W 	W 	0.46010 0.84393 0.12259 0.92400
W 	W 	0.43307 0.84346 0.30145 0.89200
W 	W 	0.64897 0.84498 0.46443 0.90100
W 	W 	0.87217 0.84459 0.42967 0.88800
W 	W 	0.90382 0.84481 0.23161 0.91300
W 	W 	0.70822 0.84481 0.08590 0.89100
W 	W 	0.51442 0.92814 0.23148 0.99500
W 	W 	0.73518 0.92942 0.39313 0.96300
W 	W 	0.76295 0.92966 0.19262 0.98800
O 	O 	0.44490 0.90480 0.13570 -0.41800
O 	O 	0.37510 0.83590 0.18970 -0.47300
O 	O 	0.42100 0.90240 0.27950 -0.41100
O 	O 	0.52430 0.85790 0.39360 -0.45900
O 	O 	0.67340 0.90570 0.46840 -0.41800
O 	O 	0.79090 0.83810 0.50570 -0.44900
O 	O 	0.85530 0.90480 0.44200 -0.41000
O 	O 	0.91030 0.85800 0.33670 -0.46200
O 	O 	0.89440 0.90500 0.21500 -0.40800
O 	O 	0.85410 0.83900 0.12220 -0.45500
O 	O 	0.73760 0.90520 0.09490 -0.41200
O 	O 	0.57540 0.85820 0.08610 -0.45600
O 	O 	0.51190 0.79370 0.14140 -0.64700
O 	O 	0.48770 0.79230 0.30590 -0.64800
O 	O 	0.63850 0.79280 0.43070 -0.62600
O 	O 	0.84050 0.79240 0.39350 -0.64100
O 	O 	0.87250 0.79290 0.25090 -0.63600
O 	O 	0.69030 0.79250 0.11450 -0.63300
O 	O 	0.60270 0.93360 0.32580 -0.44300
O 	O 	0.77640 0.93450 0.30220 -0.45000
O 	O 	0.62730 0.93460 0.19000 -0.44900
O 	O 	0.54850 0.86010 0.23990 -0.57700
O 	O 	0.71830 0.85940 0.36770 -0.58200
O 	O 	0.74480 0.85980 0.21050 -0.58000
Cu	Cu	0.59250 0.75000 0.11330 0.84700
Cu	Cu	0.54540 0.75000 0.38013 0.84500
Cu	Cu	0.87730 0.75000 0.32883 0.84300
Na	Na	0.40310 0.75000 0.19730 0.55900
Na	Na	0.78000 0.75000 0.48430 0.56200
Na	Na	0.83740 0.75000 0.13330 0.56000
Bi	Bi	0.32861 0.17996 0.72670 1.84000
W 	W 	0.53990 0.15607 0.87741 0.92400
W 	W 	0.56693 0.15654 0.69855 0.89200
W 	W 	0.35103 0.15502 0.53557 0.90100
W 	W 	0.12783 0.15541 0.57033 0.88800
W 	W 	0.09618 0.15519 0.76839 0.91300
W 	W 	0.29178 0.15519 0.91410 0.89100
W 	W 	0.48558 0.07186 0.76852 0.99500
W 	W 	0.26482 0.07058 0.60687 0.96300
W 	W 	0.23705 0.07034 0.80738 0.98800
O 	O 	0.55510 0.09520 0.86430 -0.41800
O 	O 	0.62490 0.16410 0.81030 -0.47300
O 	O 	0.57900 0.09760 0.72050 -0.41100
O 	O 	0.47570 0.14210 0.60640 -0.45900
O 	O 	0.32660 0.09430 0.53160 -0.41800
O 	O 	0.20910 0.16190 0.49430 -0.44900
O 	O 	0.14470 0.09520 0.55800 -0.41000
O 	O 	0.08970 0.14200 0.66330 -0.46200
O 	O 	0.10560 0.09500 0.78500 -0.40800
O 	O 	0.14590 0.16100 0.87780 -0.45500
O 	O 	0.26240 0.09480 0.90510 -0.41200
O 	O 	0.42460 0.14180 0.91390 -0.45600
O 	O 	0.48810 0.20630 0.85860 -0.64700
O 	O 	0.51230 0.20770 0.69410 -0.64800
O 	O 	0.36150 0.20720 0.56930 -0.62600
O 	O 	0.15950 0.20760 0.60650 -0.64100
O 	O 	0.12750 0.20710 0.74910 -0.63600
O 	O 	0.30970 0.20750 0.88550 -0.63300
O 	O 	0.39730 0.06640 0.67420 -0.44300
O 	O 	0.22360 0.06550 0.69780 -0.45000
O 	O 	0.37270 0.06540 0.81000 -0.44900
O 	O 	0.45150 0.13990 0.76010 -0.57700
O 	O 	0.28170 0.14060 0.63230 -0.58200
O 	O 	0.25520 0.14020 0.78950 -0.58000
Bi	Bi	0.32861 0.32004 0.72670 1.84000
W 	W 	0.53990 0.34393 0.87741 0.92400
W 	W 	0.56693 0.34346 0.69855 0.89200
W 	W 	0.35103 0.34498 0.53557 0.90100
W 	W 	0.12783 0.34459 0.57033 0.88800
W 	W 	0.09618 0.34481 0.76839 0.91300
W 	W 	0.29178 0.34481 0.91410 0.89100
W 	W 	0.48558 0.42814 0.76852 0.99500
W 	W 	0.26482 0.42942 0.60687 0.96300
W 	W 	0.23705 0.42966 0.80738 0.98800
O 	O 	0.55510 0.40480 0.86430 -0.41800
O 	O 	0.62490 0.33590 0.81030 -0.47300
O 	O 	0.57900 0.40240 0.72050 -0.41100
O 	O 	0.47570 0.35790 0.60640 -0.45900
O 	O 	0.32660 0.40570 0.53160 -0.41800
O 	O 	0.20910 0.33810 0.49430 -0.44900
O 	O 	0.14470 0.40480 0.55800 -0.41000
O 	O 	0.08970 0.35800 0.66330 -0.46200
O 	O 	0.10560 0.40500 0.78500 -0.40800
O 	O 	0.14590 0.33900 0.87780 -0.45500
O 	O 	0.26240 0.40520 0.90510 -0.41200
O 	O 	0.42460 0.35820 0.91390 -0.45600
O 	O 	0.48810 0.29370 0.85860 -0.64700
O 	O 	0.51230 0.29230 0.69410 -0.64800
O 	O 	0.36150 0.29280 0.56930 -0.62600
O 	O 	0.15950 0.29240 0.60650 -0.64100
O 	O 	0.12750 0.29290 0.74910 -0.63600
O 	O 	0.30970 0.29250 0.88550 -0.63300
O 	O 	0.39730 0.43360 0.67420 -0.44300
O 	O 	0.22360 0.43450 0.69780 -0.45000
O 	O 	0.37270 0.43460 0.81000 -0.44900
O 	O 	0.45150 0.36010 0.76010 -0.57700
O 	O 	0.28170 0.35940 0.63230 -0.58200
O 	O 	0.25520 0.35980 0.78950 -0.58000
Cu	Cu	0.40750 0.25000 0.88670 0.84700
Cu	Cu	0.45460 0.25000 0.61987 0.84500
Cu	Cu	0.12270 0.25000 0.67117 0.84300
Na	Na	0.59690 0.25000 0.80270 0.55900
Na	Na	0.22000 0.25000 0.51570 0.56200
Na	Na	0.16260 0.25000 0.86670 0.56000
Cu	Cu	0.40698 0.45404 0.18701 0.84700
Cu	Cu	0.76045 0.44509 0.44550 0.84400
C 	C 	0.57710 0.46760 0.11940 -0.01700
H 	H 	0.61320 0.47880 0.16470 0.00000
C 	C 	0.60720 0.46210 0.05260 0.03100
H 	H 	0.66650 0.47050 0.04320 0.00700
C 	C 	0.45820 0.43880 0.03610 0.11600
H 	H 	0.39730 0.42790 0.01280 -0.02200
C 	C 	0.23000 0.44720 0.06650 0.07700
H 	H 	0.23180 0.41860 0.06500 -0.03400
C 	C 	0.17070 0.51690 0.03590 -0.01800
H 	H 	0.13510 0.53980 0.01470 0.02000
C 	C 	0.25790 0.51070 0.09930 0.04000
H 	H 	0.28860 0.53270 0.12820 -0.01400
C 	C 	0.35130 0.42720 0.32860 0.12200
H 	H 	0.41030 0.41330 0.34490 -0.03500
C 	C 	0.23200 0.46170 0.26090 -0.02600
H 	H 	0.19760 0.47910 0.22310 0.02500
C 	C 	0.20100 0.44660 0.32130 0.01200
H 	H 	0.13750 0.44780 0.32880 0.01500
C 	C 	0.58270 0.45080 0.31250 0.12900
H 	H 	0.57820 0.47890 0.32070 -0.05700
C 	C 	0.63050 0.38890 0.32550 -0.02300
H 	H 	0.66390 0.36480 0.34280 -0.00400
C 	C 	0.55090 0.39260 0.26560 0.00100
H 	H 	0.52130 0.37120 0.23450 -0.01500
C 	C 	0.58200 0.42330 0.51010 0.07600
H 	H 	0.56160 0.39980 0.48140 -0.03200
C 	C 	0.63000 0.42800 0.53200 0.03200
C 	C 	0.92200 0.48710 0.55520 -0.00500
H 	H 	0.90970 0.51170 0.52810 -0.00000
C 	C 	0.55400 0.48320 0.56300 0.76200
H 	H 	0.51810 0.50290 0.58240 -0.20700
C 	C 	0.59000 0.47050 0.61000 -0.45600
C 	C 	0.99800 0.48150 0.61970 0.01900
H 	H 	0.04610 0.49960 0.64480 0.01200
C 	C 	0.62900 0.48720 0.52900 -0.77200
H 	H 	0.65350 0.51270 0.51950 0.23700
C 	C 	0.67700 0.47500 0.57200 0.46100
C 	C 	0.90590 0.42550 0.58420 0.15600
H 	H 	0.88440 0.39850 0.58370 -0.07700
C 	C 	0.93160 0.41390 0.39570 0.10900
H 	H 	0.96130 0.40600 0.44540 -0.03800
C 	C 	0.90770 0.42100 0.27420 0.01200
H 	H 	0.91320 0.41980 0.22370 0.00600
C 	C 	0.83530 0.43980 0.30130 -0.01600
H 	H 	0.78270 0.45380 0.27090 0.00700
N 	N 	0.48400 0.45320 0.10560 -0.23900
N 	N 	0.53580 0.44250 0.00400 -0.21800
H 	H 	0.53860 0.43360 0.95950 0.13800
N 	N 	0.28960 0.47390 0.11260 -0.24300
N 	N 	0.16270 0.47550 0.02060 -0.18700
H 	H 	0.11740 0.46650 0.98340 0.10500
N 	N 	0.32640 0.44640 0.26580 -0.23700
N 	N 	0.28120 0.42920 0.36890 -0.22000
H 	H 	0.28620 0.42120 0.41520 0.12000
N 	N 	0.52150 0.43270 0.25850 -0.25600
N 	N 	0.65230 0.42840 0.35610 -0.23800
N 	N 	0.66560 0.45070 0.50900 -0.21100
N 	N 	0.54530 0.44030 0.56040 -0.26300
H 	H 	0.51760 0.42660 0.59040 0.18200
N 	N 	0.86850 0.45260 0.53680 -0.26600
N 	N 	0.98060 0.44130 0.63490 -0.22400
H 	H 	0.01450 0.42780 0.67310 0.14200
N 	N 	0.85020 0.43510 0.37950 -0.24800
N 	N 	0.96930 0.40450 0.33570 -0.21100
H 	H 	0.02190 0.39070 0.33650 0.10400
Cu	Cu	0.59302 0.95404 0.81299 0.84700
Cu	Cu	0.23955 0.94509 0.55450 0.84400
C 	C 	0.42290 0.96760 0.88060 -0.01700
H 	H 	0.38680 0.97880 0.83530 0.00000
C 	C 	0.39280 0.96210 0.94740 0.03100
H 	H 	0.33350 0.97050 0.95680 0.00700
C 	C 	0.54180 0.93880 0.96390 0.11600
H 	H 	0.60270 0.92790 0.98720 -0.02200
C 	C 	0.77000 0.94720 0.93350 0.07700
H 	H 	0.76820 0.91860 0.93500 -0.03400
C 	C 	0.82930 0.01690 0.96410 -0.01900
H 	H 	0.86490 0.03980 0.98530 0.02000
C 	C 	0.74210 0.01070 0.90070 0.04000
H 	H 	0.71140 0.03270 0.87180 -0.01400
C 	C 	0.64870 0.92720 0.67140 0.12200
H 	H 	0.58970 0.91330 0.65510 -0.03600
C 	C 	0.76800 0.96170 0.73910 -0.02600
H 	H 	0.80240 0.97910 0.77690 0.02500
C 	C 	0.79900 0.94660 0.67870 0.01200
H 	H 	0.86250 0.94780 0.67120 0.01500
C 	C 	0.41730 0.95080 0.68750 0.12900
H 	H 	0.42180 0.97890 0.67930 -0.05700
C 	C 	0.36950 0.88890 0.67450 -0.02300
H 	H 	0.33610 0.86480 0.65720 -0.00400
C 	C 	0.44910 0.89260 0.73440 0.00100
H 	H 	0.47870 0.87120 0.76550 -0.01500
C 	C 	0.41800 0.92330 0.48990 0.07700
H 	H 	0.43840 0.89980 0.51860 -0.03200
C 	C 	0.37000 0.92800 0.46800 0.03100
C 	C 	0.07800 0.98710 0.44480 -0.00500
H 	H 	0.09030 0.01170 0.47190 -0.00000
C 	C 	0.44600 0.98320 0.43700 0.75600
H 	H 	0.48190 0.00290 0.41760 -0.20600
C 	C 	0.41000 0.97050 0.39000 -0.45300
C 	C 	0.00200 0.98150 0.38030 0.02000
H 	H 	0.95390 0.99960 0.35520 0.01100
C 	C 	0.37100 0.98720 0.47100 -0.76600
H 	H 	0.34650 0.01270 0.48050 0.23500
C 	C 	0.32300 0.97500 0.42800 0.45800
C 	C 	0.09410 0.92550 0.41580 0.15600
H 	H 	0.11560 0.89850 0.41630 -0.07700
C 	C 	0.06840 0.91390 0.60430 0.10900
H 	H 	0.03870 0.90600 0.55460 -0.03700
C 	C 	0.09230 0.92100 0.72580 0.01200
H 	H 	0.08680 0.91980 0.77630 0.00600
C 	C 	0.16470 0.93980 0.69870 -0.01600
H 	H 	0.21730 0.95380 0.72910 0.00700
N 	N 	0.51600 0.95320 0.89440 -0.23900
N 	N 	0.46420 0.94250 0.99600 -0.21700
H 	H 	0.46140 0.93360 0.04050 0.13800
N 	N 	0.71040 0.97390 0.88740 -0.24300
N 	N 	0.83730 0.97550 0.97940 -0.18600
H 	H 	0.88260 0.96650 0.01660 0.10400
N 	N 	0.67360 0.94640 0.73420 -0.23700
N 	N 	0.71880 0.92920 0.63110 -0.22000
H 	H 	0.71380 0.92120 0.58480 0.12000
N 	N 	0.47850 0.93270 0.74150 -0.25600
N 	N 	0.34770 0.92840 0.64390 -0.23800
N 	N 	0.33440 0.95070 0.49100 -0.21100
N 	N 	0.45470 0.94030 0.43960 -0.26300
H 	H 	0.48240 0.92660 0.40960 0.18200
N 	N 	0.13150 0.95260 0.46320 -0.26600
N 	N 	0.01940 0.94130 0.36510 -0.22400
H 	H 	0.98550 0.92780 0.32690 0.14100
N 	N 	0.14980 0.93510 0.62050 -0.24800
N 	N 	0.03070 0.90450 0.66430 -0.21100
H 	H 	0.97810 0.89070 0.66350 0.10400
Cu	Cu	0.59302 0.54596 0.81299 0.84700
Cu	Cu	0.23955 0.55491 0.55450 0.84400
C 	C 	0.42290 0.53240 0.88060 -0.01700
H 	H 	0.38680 0.52120 0.83530 0.00000
C 	C 	0.39280 0.53790 0.94740 0.03100
H 	H 	0.33350 0.52950 0.95680 0.00700
C 	C 	0.54180 0.56120 0.96390 0.11600
H 	H 	0.60270 0.57210 0.98720 -0.02200
C 	C 	0.77000 0.55280 0.93350 0.07700
H 	H 	0.76820 0.58140 0.93500 -0.03400
C 	C 	0.82930 0.48310 0.96410 -0.01800
H 	H 	0.86490 0.46020 0.98530 0.02000
C 	C 	0.74210 0.48930 0.90070 0.04000
H 	H 	0.71140 0.46730 0.87180 -0.01400
C 	C 	0.64870 0.57280 0.67140 0.12200
H 	H 	0.58970 0.58670 0.65510 -0.03500
C 	C 	0.76800 0.53830 0.73910 -0.02600
H 	H 	0.80240 0.52090 0.77690 0.02500
C 	C 	0.79900 0.55340 0.67870 0.01200
H 	H 	0.86250 0.55220 0.67120 0.01500
C 	C 	0.41730 0.54920 0.68750 0.12900
H 	H 	0.42180 0.52110 0.67930 -0.05700
C 	C 	0.36950 0.61110 0.67450 -0.02300
H 	H 	0.33610 0.63520 0.65720 -0.00400
C 	C 	0.44910 0.60740 0.73440 0.00100
H 	H 	0.47870 0.62880 0.76550 -0.01500
C 	C 	0.41800 0.57670 0.48990 0.07600
H 	H 	0.43840 0.60020 0.51860 -0.03200
C 	C 	0.37000 0.57200 0.46800 0.03200
C 	C 	0.07800 0.51290 0.44480 -0.00500
H 	H 	0.09030 0.48830 0.47190 -0.00000
C 	C 	0.44600 0.51680 0.43700 0.76200
H 	H 	0.48190 0.49710 0.41760 -0.20700
C 	C 	0.41000 0.52950 0.39000 -0.45600
C 	C 	0.00200 0.51850 0.38030 0.01900
H 	H 	0.95390 0.50040 0.35520 0.01200
C 	C 	0.37100 0.51280 0.47100 -0.77200
H 	H 	0.34650 0.48730 0.48050 0.23700
C 	C 	0.32300 0.52500 0.42800 0.46100
C 	C 	0.09410 0.57450 0.41580 0.15600
H 	H 	0.11560 0.60150 0.41630 -0.07700
C 	C 	0.06840 0.58610 0.60430 0.10900
H 	H 	0.03870 0.59400 0.55460 -0.03800
C 	C 	0.09230 0.57900 0.72580 0.01200
H 	H 	0.08680 0.58020 0.77630 0.00600
C 	C 	0.16470 0.56020 0.69870 -0.01600
H 	H 	0.21730 0.54620 0.72910 0.00700
N 	N 	0.51600 0.54680 0.89440 -0.23900
N 	N 	0.46420 0.55750 0.99600 -0.21800
H 	H 	0.46140 0.56640 0.04050 0.13800
N 	N 	0.71040 0.52610 0.88740 -0.24300
N 	N 	0.83730 0.52450 0.97940 -0.18700
H 	H 	0.88260 0.53350 0.01660 0.10500
N 	N 	0.67360 0.55360 0.73420 -0.23700
N 	N 	0.71880 0.57080 0.63110 -0.22000
H 	H 	0.71380 0.57880 0.58480 0.12000
N 	N 	0.47850 0.56730 0.74150 -0.25600
N 	N 	0.34770 0.57160 0.64390 -0.23800
N 	N 	0.33440 0.54930 0.49100 -0.21100
N 	N 	0.45470 0.55970 0.43960 -0.26300
H 	H 	0.48240 0.57340 0.40960 0.18200
N 	N 	0.13150 0.54740 0.46320 -0.26600
N 	N 	0.01940 0.55870 0.36510 -0.22400
H 	H 	0.98550 0.57220 0.32690 0.14200
N 	N 	0.14980 0.56490 0.62050 -0.24800
N 	N 	0.03070 0.59550 0.66430 -0.21100
H 	H 	0.97810 0.60930 0.66350 0.10400
Cu	Cu	0.40698 0.04596 0.18701 0.84700
Cu	Cu	0.76045 0.05491 0.44550 0.84400
C 	C 	0.57710 0.03240 0.11940 -0.01700
H 	H 	0.61320 0.02120 0.16470 0.00000
C 	C 	0.60720 0.03790 0.05260 0.03100
H 	H 	0.66650 0.02950 0.04320 0.00700
C 	C 	0.45820 0.06120 0.03610 0.11600
H 	H 	0.39730 0.07210 0.01280 -0.02200
C 	C 	0.23000 0.05280 0.06650 0.07700
H 	H 	0.23180 0.08140 0.06500 -0.03400
C 	C 	0.17070 0.98310 0.03590 -0.01900
H 	H 	0.13510 0.96020 0.01470 0.02000
C 	C 	0.25790 0.98930 0.09930 0.04000
H 	H 	0.28860 0.96730 0.12820 -0.01400
C 	C 	0.35130 0.07280 0.32860 0.12200
H 	H 	0.41030 0.08670 0.34490 -0.03600
C 	C 	0.23200 0.03830 0.26090 -0.02600
H 	H 	0.19760 0.02090 0.22310 0.02500
C 	C 	0.20100 0.05340 0.32130 0.01200
H 	H 	0.13750 0.05220 0.32880 0.01500
C 	C 	0.58270 0.04920 0.31250 0.12900
H 	H 	0.57820 0.02110 0.32070 -0.05700
C 	C 	0.63050 0.11110 0.32550 -0.02300
H 	H 	0.66390 0.13520 0.34280 -0.00400
C 	C 	0.55090 0.10740 0.26560 0.00100
H 	H 	0.52130 0.12880 0.23450 -0.01500
C 	C 	0.58200 0.07670 0.51010 0.07700
H 	H 	0.56160 0.10020 0.48140 -0.03200
C 	C 	0.63000 0.07200 0.53200 0.03100
C 	C 	0.92200 0.01290 0.55520 -0.00500
H 	H 	0.90970 0.98830 0.52810 -0.00000
C 	C 	0.55400 0.01680 0.56300 0.75600
H 	H 	0.51810 0.99710 0.58240 -0.20600
C 	C 	0.59000 0.02950 0.61000 -0.45300
C 	C 	0.99800 0.01850 0.61970 0.02000
H 	H 	0.04610 0.00040 0.64480 0.01100
C 	C 	0.62900 0.01280 0.52900 -0.76600
H 	H 	0.65350 0.98730 0.51950 0.23500
C 	C 	0.67700 0.02500 0.57200 0.45800
C 	C 	0.90590 0.07450 0.58420 0.15600
H 	H 	0.88440 0.10150 0.58370 -0.07700
C 	C 	0.93160 0.08610 0.39570 0.10900
H 	H 	0.96130 0.09400 0.44540 -0.03700
C 	C 	0.90770 0.07900 0.27420 0.01200
H 	H 	0.91320 0.08020 0.22370 0.00600
C 	C 	0.83530 0.06020 0.30130 -0.01600
H 	H 	0.78270 0.04620 0.27090 0.00700
N 	N 	0.48400 0.04680 0.10560 -0.23900
N 	N 	0.53580 0.05750 0.00400 -0.21700
H 	H 	0.53860 0.06640 0.95950 0.13800
N 	N 	0.28960 0.02610 0.11260 -0.24300
N 	N 	0.16270 0.02450 0.02060 -0.18600
H 	H 	0.11740 0.03350 0.98340 0.10400
N 	N 	0.32640 0.05360 0.26580 -0.23700
N 	N 	0.28120 0.07080 0.36890 -0.22000
H 	H 	0.28620 0.07880 0.41520 0.12000
N 	N 	0.52150 0.06730 0.25850 -0.25600
N 	N 	0.65230 0.07160 0.35610 -0.23800
N 	N 	0.66560 0.04930 0.50900 -0.21100
N 	N 	0.54530 0.05970 0.56040 -0.26300
H 	H 	0.51760 0.07340 0.59040 0.18200
N 	N 	0.86850 0.04740 0.53680 -0.26600
N 	N 	0.98060 0.05870 0.63490 -0.22400
H 	H 	0.01450 0.07220 0.67310 0.14100
N 	N 	0.85020 0.06490 0.37950 -0.24800
N 	N 	0.96930 0.09550 0.33570 -0.21100
H 	H 	0.02190 0.10930 0.33650 0.10400
