data_crystal

_cell_length_a 15.53200
_cell_length_b 23.55200
_cell_length_c 7.41600
_cell_angle_alpha 90.00000
_cell_angle_beta  110.19100
_cell_angle_gamma 90.00000

_symmetry_space_group_name_	'P 1'
_symmetry_space_group_name_H-M	'P 1'

loop_
_symmetry_equiv_pos_as_xyz
  x,y,z

loop_
_atom_site_label
_atom_site_type_symbol
_atom_site_fract_x
_atom_site_fract_y
_atom_site_fract_z
_atom_site_charge
O 	O 	0.05190 0.16657 0.01260 -0.45700
O 	O 	0.13140 0.19236 0.30760 -0.41100
N 	N 	0.08559 0.05591 0.37680 -0.22100
N 	N 	0.12680 0.19140 0.74100 -0.35400
H 	H 	0.13100 0.19130 0.62840 0.14400
H 	H 	0.08410 0.17240 0.76240 0.16300
C 	C 	0.11880 0.19170 0.13130 0.33100
C 	C 	0.18650 0.22182 0.06090 -0.12700
C 	C 	0.18080 0.21838 0.86920 0.20200
C 	C 	0.25540 0.25362 0.19010 -0.11700
H 	H 	0.25880 0.25620 0.31750 0.08700
C 	C 	0.17340 0.05790 0.49800 0.04200
H 	H 	0.20000 0.09290 0.54240 0.00100
C 	C 	0.22430 0.00900 0.55720 -0.08800
H 	H 	0.28520 0.01130 0.63770 0.06100
C 	C 	0.18620 0.95890 0.49900 -0.00900
H 	H 	0.21960 0.92570 0.54120 0.03200
C 	C 	0.09780 0.95632 0.37690 -0.04500
H 	H 	0.07060 0.92130 0.33450 0.01500
C 	C 	0.04800 0.00610 0.31560 -0.08400
O 	O 	0.94810 0.16657 0.48740 -0.37600
O 	O 	0.86860 0.19236 0.19240 -0.37300
N 	N 	0.91441 0.05591 0.12320 -0.24400
N 	N 	0.87320 0.19140 0.75900 -0.37200
H 	H 	0.86900 0.19130 0.87160 0.17700
H 	H 	0.91590 0.17240 0.73760 0.21100
C 	C 	0.88120 0.19170 0.36870 0.32400
C 	C 	0.81350 0.22182 0.43910 -0.11300
C 	C 	0.81920 0.21838 0.63080 0.22400
C 	C 	0.74460 0.25362 0.30990 -0.11500
H 	H 	0.74120 0.25620 0.18250 0.09300
C 	C 	0.82660 0.05790 0.00200 0.10800
H 	H 	0.80000 0.09290 0.95760 -0.01600
C 	C 	0.77570 0.00900 0.94280 -0.20000
H 	H 	0.71480 0.01130 0.86230 0.09900
C 	C 	0.81380 0.95890 0.00100 0.14400
H 	H 	0.78040 0.92570 0.95880 -0.02100
C 	C 	0.90220 0.95632 0.12310 -0.23100
H 	H 	0.92940 0.92130 0.16550 0.12800
C 	C 	0.95200 0.00610 0.18440 0.20200
O 	O 	0.44810 0.33343 0.98740 -0.42100
O 	O 	0.36860 0.30764 0.69240 -0.39800
N 	N 	0.41441 0.44409 0.62320 -0.23600
N 	N 	0.37320 0.30860 0.25900 -0.36200
H 	H 	0.36900 0.30870 0.37160 0.15800
H 	H 	0.41590 0.32760 0.23760 0.18600
C 	C 	0.38120 0.30830 0.86870 0.32700
C 	C 	0.31350 0.27818 0.93910 -0.12200
C 	C 	0.31920 0.28162 0.13080 0.20900
C 	C 	0.24460 0.24638 0.80990 -0.11600
H 	H 	0.24120 0.24380 0.68250 0.08700
C 	C 	0.32660 0.44210 0.50200 0.07600
H 	H 	0.30000 0.40710 0.45760 -0.01400
C 	C 	0.27570 0.49100 0.44280 -0.14800
H 	H 	0.21480 0.48870 0.36230 0.06900
C 	C 	0.31380 0.54110 0.50100 0.06900
H 	H 	0.28040 0.57430 0.45880 -0.00200
C 	C 	0.40220 0.54368 0.62310 -0.14100
H 	H 	0.42940 0.57870 0.66550 0.07100
C 	C 	0.45200 0.49390 0.68440 0.05800
O 	O 	0.55190 0.33343 0.51260 -0.42100
O 	O 	0.63140 0.30764 0.80760 -0.39400
N 	N 	0.58559 0.44409 0.87680 -0.23700
N 	N 	0.62680 0.30860 0.24100 -0.36200
H 	H 	0.63100 0.30870 0.12840 0.16000
H 	H 	0.58410 0.32760 0.26240 0.18700
C 	C 	0.61880 0.30830 0.63130 0.32800
C 	C 	0.68650 0.27818 0.56090 -0.11600
C 	C 	0.68080 0.28162 0.36920 0.21300
C 	C 	0.75540 0.24638 0.69010 -0.11800
H 	H 	0.75880 0.24380 0.81750 0.09500
C 	C 	0.67340 0.44210 0.99800 0.08400
H 	H 	0.70000 0.40710 0.04240 -0.00700
C 	C 	0.72430 0.49100 0.05720 -0.15200
H 	H 	0.78520 0.48870 0.13770 0.09500
C 	C 	0.68620 0.54110 0.99900 0.07800
H 	H 	0.71960 0.57430 0.04120 0.00800
C 	C 	0.59780 0.54368 0.87690 -0.14300
H 	H 	0.57060 0.57870 0.83450 0.07300
C 	C 	0.54800 0.49390 0.81560 0.06100
Cd	Cd	0.00000 0.13528 0.25000 1.18600
Cd	Cd	0.50000 0.36472 0.75000 1.21700
O 	O 	0.55190 0.66657 0.01260 -0.42100
O 	O 	0.63140 0.69236 0.30760 -0.39400
N 	N 	0.58559 0.55591 0.37680 -0.23700
N 	N 	0.62680 0.69140 0.74100 -0.36300
H 	H 	0.63100 0.69130 0.62840 0.16100
H 	H 	0.58410 0.67240 0.76240 0.18700
C 	C 	0.61880 0.69170 0.13130 0.32800
C 	C 	0.68650 0.72182 0.06090 -0.11800
C 	C 	0.68080 0.71838 0.86920 0.21500
C 	C 	0.75540 0.75362 0.19010 -0.11700
H 	H 	0.75880 0.75620 0.31750 0.09400
C 	C 	0.67340 0.55790 0.49800 0.08300
H 	H 	0.70000 0.59290 0.54240 -0.00600
C 	C 	0.72430 0.50900 0.55720 -0.15100
H 	H 	0.78520 0.51130 0.63770 0.09500
C 	C 	0.68620 0.45890 0.49900 0.07700
H 	H 	0.71960 0.42570 0.54120 0.00800
C 	C 	0.59780 0.45632 0.37690 -0.14300
H 	H 	0.57060 0.42130 0.33450 0.07300
C 	C 	0.54800 0.50610 0.31560 0.06100
O 	O 	0.44810 0.66657 0.48740 -0.42100
O 	O 	0.36860 0.69236 0.19240 -0.39900
N 	N 	0.41441 0.55591 0.12320 -0.23600
N 	N 	0.37320 0.69140 0.75900 -0.36200
H 	H 	0.36900 0.69130 0.87160 0.15800
H 	H 	0.41590 0.67240 0.73760 0.18600
C 	C 	0.38120 0.69170 0.36870 0.32700
C 	C 	0.31350 0.72182 0.43910 -0.12300
C 	C 	0.31920 0.71838 0.63080 0.21000
C 	C 	0.24460 0.75362 0.30990 -0.11500
H 	H 	0.24120 0.75620 0.18250 0.08600
C 	C 	0.32660 0.55790 0.00200 0.07500
H 	H 	0.30000 0.59290 0.95760 -0.01300
C 	C 	0.27570 0.50900 0.94280 -0.14700
H 	H 	0.21480 0.51130 0.86230 0.06900
C 	C 	0.31380 0.45890 0.00100 0.06800
H 	H 	0.28040 0.42570 0.95880 -0.00100
C 	C 	0.40220 0.45632 0.12310 -0.14000
H 	H 	0.42940 0.42130 0.16550 0.07100
C 	C 	0.45200 0.50610 0.18440 0.05800
O 	O 	0.94810 0.83343 0.98740 -0.37600
O 	O 	0.86860 0.80764 0.69240 -0.37200
N 	N 	0.91441 0.94409 0.62320 -0.24600
N 	N 	0.87320 0.80860 0.25900 -0.37100
H 	H 	0.86900 0.80870 0.37160 0.17700
H 	H 	0.91590 0.82760 0.23760 0.21100
C 	C 	0.88120 0.80830 0.86870 0.32400
C 	C 	0.81350 0.77818 0.93910 -0.11200
C 	C 	0.81920 0.78162 0.13080 0.22200
C 	C 	0.74460 0.74638 0.80990 -0.11600
H 	H 	0.74120 0.74380 0.68250 0.09300
C 	C 	0.82660 0.94210 0.50200 0.11700
H 	H 	0.80000 0.90710 0.45760 -0.01900
C 	C 	0.77570 0.99100 0.44280 -0.21100
H 	H 	0.71480 0.98870 0.36230 0.10300
C 	C 	0.81380 0.04110 0.50100 0.15500
H 	H 	0.78040 0.07430 0.45880 -0.02600
C 	C 	0.90220 0.04368 0.62310 -0.23800
H 	H 	0.92940 0.07870 0.66550 0.13100
C 	C 	0.95200 0.99390 0.68440 0.20500
O 	O 	0.05190 0.83343 0.51260 -0.45800
O 	O 	0.13140 0.80764 0.80760 -0.41200
N 	N 	0.08559 0.94409 0.87680 -0.22200
N 	N 	0.12680 0.80860 0.24100 -0.35400
H 	H 	0.13100 0.80870 0.12840 0.14400
H 	H 	0.08410 0.82760 0.26240 0.16300
C 	C 	0.11880 0.80830 0.63130 0.33100
C 	C 	0.18650 0.77818 0.56090 -0.12600
C 	C 	0.18080 0.78162 0.36920 0.20100
C 	C 	0.25540 0.74638 0.69010 -0.11800
H 	H 	0.25880 0.74380 0.81750 0.08800
C 	C 	0.17340 0.94210 0.99800 0.05000
H 	H 	0.20000 0.90710 0.04240 -0.00200
C 	C 	0.22430 0.99100 0.05720 -0.09800
H 	H 	0.28520 0.98870 0.13770 0.06400
C 	C 	0.18620 0.04110 0.99900 0.00200
H 	H 	0.21960 0.07430 0.04120 0.02800
C 	C 	0.09780 0.04368 0.87690 -0.05200
H 	H 	0.07060 0.07870 0.83450 0.01700
C 	C 	0.04800 0.99390 0.81560 -0.08200
Cd	Cd	0.50000 0.63528 0.25000 1.21700
Cd	Cd	0.00000 0.86472 0.75000 1.18600
