data_crystal

_cell_length_a 9.63870
_cell_length_b 10.91570
_cell_length_c 14.61640
_cell_angle_alpha 71.28600
_cell_angle_beta  86.65400
_cell_angle_gamma 69.07200

_symmetry_space_group_name_	'P 1'
_symmetry_space_group_name_H-M	'P 1'

loop_
_symmetry_equiv_pos_as_xyz
  x,y,z

loop_
_atom_site_label
_atom_site_type_symbol
_atom_site_fract_x
_atom_site_fract_y
_atom_site_fract_z
_atom_site_charge
Cd	Cd	0.69567 0.47490 0.25091 1.15100
N 	N 	0.42640 0.27110 0.16272 -0.09100
N 	N 	0.49090 0.30600 0.07772 -0.11000
N 	N 	0.56280 0.38060 0.18644 -0.26300
N 	N 	0.66540 0.67070 0.11139 -0.34300
H 	H 	0.75790 0.67110 0.09220 0.08100
H 	H 	0.61800 0.66250 0.06200 0.10500
N 	N 	0.25740 0.68630 0.34390 -0.09400
N 	N 	0.33850 0.68210 0.41884 -0.11900
N 	N 	0.48860 0.59530 0.31459 -0.26900
N 	N 	0.92140 0.34020 0.19820 -0.33700
H 	H 	0.91410 0.36890 0.13160 0.08000
H 	H 	0.99810 0.36070 0.21640 0.07000
C 	C 	0.57200 0.37130 0.09540 0.07800
H 	H 	0.63170 0.40860 0.04890 -0.02300
C 	C 	0.47050 0.31510 0.22650 0.07500
H 	H 	0.44080 0.30180 0.29100 -0.02600
C 	C 	0.33380 0.18610 0.17590 -0.09700
H 	H 	0.24530 0.23690 0.12970 0.05200
H 	H 	0.29900 0.16850 0.24230 0.05200
C 	C 	0.42030 0.04980 0.15970 0.04100
C 	C 	0.56890 0.97800 0.19400 -0.04400
H 	H 	0.61560 0.01380 0.22930 0.04400
C 	C 	0.64860 0.85480 0.17670 -0.10400
H 	H 	0.75010 0.80690 0.19950 0.03000
C 	C 	0.58120 0.80110 0.12640 0.06700
C 	C 	0.43320 0.87020 0.09330 -0.08800
H 	H 	0.38600 0.83280 0.05970 0.05600
C 	C 	0.35420 0.99470 0.10970 -0.04700
H 	H 	0.25300 0.04280 0.08620 0.04300
C 	C 	0.47640 0.62710 0.39770 0.08100
H 	H 	0.56010 0.61110 0.43710 -0.03300
C 	C 	0.34800 0.63480 0.28300 0.08100
H 	H 	0.31700 0.62720 0.22510 -0.02000
C 	C 	0.09460 0.74790 0.33670 -0.07900
H 	H 	0.05640 0.71620 0.40100 0.03200
H 	H 	0.05400 0.71640 0.29150 0.03300
C 	C 	0.04210 0.90440 0.30130 0.02400
C 	C 	0.06590 0.97480 0.35940 -0.04000
H 	H 	0.10950 0.92450 0.42340 0.03200
C 	C 	0.02700 0.11670 0.32540 -0.11000
H 	H 	0.04460 0.16330 0.36580 0.03100
C 	C 	0.96230 0.19180 0.23260 0.05800
C 	C 	0.93380 0.12330 0.17470 -0.09900
H 	H 	0.88650 0.17410 0.11180 0.04900
C 	C 	0.97500 0.97950 0.20950 -0.04700
H 	H 	0.95670 0.93270 0.16950 0.03600
Cd	Cd	0.30433 0.52510 0.74910 1.15200
N 	N 	0.57360 0.72890 0.83728 -0.09100
N 	N 	0.50910 0.69400 0.92228 -0.11000
N 	N 	0.43720 0.61940 0.81356 -0.26300
N 	N 	0.33460 0.32930 0.88861 -0.34300
H 	H 	0.24210 0.32890 0.90780 0.08100
H 	H 	0.38200 0.33750 0.93800 0.10500
N 	N 	0.74260 0.31370 0.65610 -0.09400
N 	N 	0.66150 0.31790 0.58116 -0.11900
N 	N 	0.51140 0.40470 0.68541 -0.26800
N 	N 	0.07860 0.65980 0.80180 -0.33700
H 	H 	0.08590 0.63110 0.86840 0.08000
H 	H 	0.00190 0.63930 0.78360 0.07000
C 	C 	0.42800 0.62870 0.90460 0.07800
H 	H 	0.36830 0.59140 0.95110 -0.02300
C 	C 	0.52950 0.68490 0.77350 0.07500
H 	H 	0.55920 0.69820 0.70900 -0.02600
C 	C 	0.66620 0.81390 0.82410 -0.09700
H 	H 	0.75470 0.76310 0.87030 0.05200
H 	H 	0.70100 0.83150 0.75770 0.05200
C 	C 	0.57970 0.95020 0.84030 0.04100
C 	C 	0.43110 0.02200 0.80600 -0.04400
H 	H 	0.38440 0.98620 0.77070 0.04400
C 	C 	0.35140 0.14520 0.82330 -0.10400
H 	H 	0.24990 0.19310 0.80050 0.03000
C 	C 	0.41880 0.19890 0.87360 0.06700
C 	C 	0.56680 0.12980 0.90670 -0.08800
H 	H 	0.61400 0.16720 0.94030 0.05600
C 	C 	0.64580 0.00530 0.89030 -0.04700
H 	H 	0.74700 0.95720 0.91380 0.04300
C 	C 	0.52360 0.37290 0.60230 0.08100
H 	H 	0.43990 0.38890 0.56290 -0.03300
C 	C 	0.65200 0.36520 0.71700 0.08100
H 	H 	0.68300 0.37280 0.77490 -0.02000
C 	C 	0.90540 0.25210 0.66330 -0.07900
H 	H 	0.94360 0.28380 0.59900 0.03200
H 	H 	0.94600 0.28360 0.70850 0.03300
C 	C 	0.95790 0.09560 0.69870 0.02400
C 	C 	0.93410 0.02520 0.64060 -0.04000
H 	H 	0.89050 0.07550 0.57660 0.03200
C 	C 	0.97300 0.88330 0.67460 -0.11000
H 	H 	0.95540 0.83670 0.63420 0.03100
C 	C 	0.03770 0.80820 0.76740 0.05800
C 	C 	0.06620 0.87670 0.82530 -0.09900
H 	H 	0.11350 0.82590 0.88820 0.04900
C 	C 	0.02500 0.02050 0.79050 -0.04700
H 	H 	0.04330 0.06730 0.83050 0.03600
