data_crystal

_cell_length_a 25.14330
_cell_length_b 25.14330
_cell_length_c 10.68790
_cell_angle_alpha 90.00000
_cell_angle_beta  90.00000
_cell_angle_gamma 90.00000

_symmetry_space_group_name_	'P 1'
_symmetry_space_group_name_H-M	'P 1'

loop_
_symmetry_equiv_pos_as_xyz
  x,y,z

loop_
_atom_site_label
_atom_site_type_symbol
_atom_site_fract_x
_atom_site_fract_y
_atom_site_fract_z
_atom_site_charge
O 	O 	0.37736 0.21775 0.00830 -0.37300
O 	O 	0.50123 0.22531 0.00390 -0.39900
O 	O 	0.55576 0.28852 0.93330 -0.30100
N 	N 	0.34855 0.14639 0.11960 -0.29700
H 	H 	0.32220 0.12520 0.13080 0.17400
C 	C 	0.54685 0.24338 0.98150 0.34400
C 	C 	0.34380 0.18290 0.03020 0.25900
C 	C 	0.29489 0.17998 0.95080 -0.06300
C 	C 	0.39327 0.13963 0.19750 0.26500
C 	C 	0.24427 0.17920 0.00390 -0.03000
H 	H 	0.24050 0.17780 0.09040 0.04600
C 	C 	0.40295 0.09574 0.27240 -0.42400
H 	H 	0.38220 0.06530 0.28070 0.18900
C 	C 	0.30028 0.18050 0.82180 -0.02400
H 	H 	0.33400 0.18170 0.78610 0.04400
C 	C 	0.63563 0.22540 0.08730 0.05100
C 	C 	0.59413 0.20905 0.00710 -0.11900
C 	C 	0.68051 0.19250 0.09420 -0.11300
H 	H 	0.70820 0.20200 0.14750 0.07900
C 	C 	0.64420 0.13160 0.94780 -0.11700
H 	H 	0.64710 0.10060 0.90080 0.06100
C 	C 	0.59860 0.16230 0.93980 0.03800
H 	H 	0.57080 0.15140 0.88870 0.01300
C 	C 	0.68490 0.14660 0.02450 0.03900
H 	H 	0.71550 0.12600 0.02970 0.02300
N 	N 	0.43137 0.17607 0.20890 -0.21400
N 	N 	0.46567 0.15516 0.29180 -0.24800
H 	H 	0.49430 0.17070 0.31640 0.15600
C 	C 	0.44982 0.10706 0.33150 0.41300
C 	C 	0.48100 0.07680 0.42780 -0.93800
H 	H 	0.51270 0.09610 0.44820 0.30400
H 	H 	0.49030 0.04250 0.39500 0.28100
H 	H 	0.45970 0.07230 0.50170 0.29700
O 	O 	0.12264 0.28225 0.50830 -0.37400
O 	O 	0.99877 0.27469 0.50390 -0.40100
O 	O 	0.94424 0.21148 0.43330 -0.30200
N 	N 	0.15145 0.35361 0.61960 -0.29800
H 	H 	0.17780 0.37480 0.63080 0.17400
C 	C 	0.95315 0.25662 0.48150 0.34600
C 	C 	0.15620 0.31710 0.53020 0.25800
C 	C 	0.20511 0.32002 0.45080 -0.06100
C 	C 	0.10673 0.36037 0.69750 0.26500
C 	C 	0.25573 0.32080 0.50390 -0.03200
H 	H 	0.25950 0.32220 0.59040 0.04600
C 	C 	0.09705 0.40426 0.77240 -0.42300
H 	H 	0.11780 0.43470 0.78070 0.18800
C 	C 	0.19972 0.31950 0.32180 -0.02500
H 	H 	0.16600 0.31830 0.28610 0.04500
C 	C 	0.86437 0.27460 0.58730 0.05200
C 	C 	0.90587 0.29095 0.50710 -0.12200
C 	C 	0.81949 0.30750 0.59420 -0.11300
H 	H 	0.79180 0.29800 0.64750 0.07900
C 	C 	0.85580 0.36840 0.44780 -0.11600
H 	H 	0.85290 0.39940 0.40080 0.06100
C 	C 	0.90140 0.33770 0.43980 0.04000
H 	H 	0.92920 0.34860 0.38870 0.01300
C 	C 	0.81510 0.35340 0.52450 0.03800
H 	H 	0.78450 0.37400 0.52970 0.02300
N 	N 	0.06863 0.32393 0.70890 -0.21400
N 	N 	0.03433 0.34484 0.79180 -0.24700
H 	H 	0.00570 0.32930 0.81640 0.15500
C 	C 	0.05018 0.39294 0.83150 0.41100
C 	C 	0.01900 0.42320 0.92780 -0.93100
H 	H 	0.98730 0.40390 0.94820 0.30200
H 	H 	0.00970 0.45750 0.89500 0.27900
H 	H 	0.04030 0.42770 0.00170 0.29400
O 	O 	0.12264 0.21775 0.74170 -0.37400
O 	O 	0.99877 0.22531 0.74610 -0.40100
O 	O 	0.94424 0.28852 0.81670 -0.30200
N 	N 	0.15145 0.14639 0.63040 -0.29800
H 	H 	0.17780 0.12520 0.61920 0.17400
C 	C 	0.95315 0.24338 0.76850 0.34600
C 	C 	0.15620 0.18290 0.71980 0.25800
C 	C 	0.20511 0.17998 0.79920 -0.06000
C 	C 	0.10673 0.13963 0.55250 0.26500
C 	C 	0.25573 0.17920 0.74610 -0.03300
H 	H 	0.25950 0.17780 0.65960 0.04700
C 	C 	0.09705 0.09574 0.47760 -0.42400
H 	H 	0.11780 0.06530 0.46930 0.18900
C 	C 	0.19972 0.18050 0.92820 -0.02700
H 	H 	0.16600 0.18170 0.96390 0.04600
C 	C 	0.86437 0.22540 0.66270 0.05200
C 	C 	0.90587 0.20905 0.74290 -0.12200
C 	C 	0.81949 0.19250 0.65580 -0.11300
H 	H 	0.79180 0.20200 0.60250 0.07900
C 	C 	0.85580 0.13160 0.80220 -0.11600
H 	H 	0.85290 0.10060 0.84920 0.06100
C 	C 	0.90140 0.16230 0.81020 0.04000
H 	H 	0.92920 0.15140 0.86130 0.01300
C 	C 	0.81510 0.14660 0.72550 0.03800
H 	H 	0.78450 0.12600 0.72030 0.02300
N 	N 	0.06863 0.17607 0.54110 -0.21400
N 	N 	0.03433 0.15516 0.45820 -0.24800
H 	H 	0.00570 0.17070 0.43360 0.15500
C 	C 	0.05018 0.10706 0.41850 0.41300
C 	C 	0.01900 0.07680 0.32220 -0.93800
H 	H 	0.98730 0.09610 0.30180 0.30400
H 	H 	0.00970 0.04250 0.35500 0.28100
H 	H 	0.04030 0.07230 0.24830 0.29700
O 	O 	0.37736 0.28225 0.24170 -0.37400
O 	O 	0.50123 0.27469 0.24610 -0.40100
O 	O 	0.55576 0.21148 0.31670 -0.30200
N 	N 	0.34855 0.35361 0.13040 -0.29800
H 	H 	0.32220 0.37480 0.11920 0.17400
C 	C 	0.54685 0.25662 0.26850 0.34600
C 	C 	0.34380 0.31710 0.21980 0.25800
C 	C 	0.29489 0.32002 0.29920 -0.06100
C 	C 	0.39327 0.36037 0.05250 0.26500
C 	C 	0.24427 0.32080 0.24610 -0.03200
H 	H 	0.24050 0.32220 0.15960 0.04600
C 	C 	0.40295 0.40426 0.97760 -0.42400
H 	H 	0.38220 0.43470 0.96930 0.18900
C 	C 	0.30028 0.31950 0.42820 -0.02500
H 	H 	0.33400 0.31830 0.46390 0.04500
C 	C 	0.63563 0.27460 0.16270 0.05200
C 	C 	0.59413 0.29095 0.24290 -0.12200
C 	C 	0.68051 0.30750 0.15580 -0.11400
H 	H 	0.70820 0.29800 0.10250 0.07900
C 	C 	0.64420 0.36840 0.30220 -0.11600
H 	H 	0.64710 0.39940 0.34920 0.06100
C 	C 	0.59860 0.33770 0.31020 0.04000
H 	H 	0.57080 0.34860 0.36130 0.01300
C 	C 	0.68490 0.35340 0.22550 0.03800
H 	H 	0.71550 0.37400 0.22030 0.02300
N 	N 	0.43137 0.32393 0.04110 -0.21400
N 	N 	0.46567 0.34484 0.95820 -0.24800
H 	H 	0.49430 0.32930 0.93360 0.15500
C 	C 	0.44982 0.39294 0.91850 0.41300
C 	C 	0.48100 0.42320 0.82220 -0.93800
H 	H 	0.51270 0.40390 0.80180 0.30400
H 	H 	0.49030 0.45750 0.85500 0.28100
H 	H 	0.45970 0.42770 0.74830 0.29700
Co	Co	0.43964 0.25000 0.12500 1.17800
Co	Co	0.06036 0.25000 0.62500 1.17800
O 	O 	0.87736 0.71775 0.50830 -0.37400
O 	O 	0.00123 0.72531 0.50390 -0.40100
O 	O 	0.05576 0.78852 0.43330 -0.30200
N 	N 	0.84855 0.64639 0.61960 -0.29800
H 	H 	0.82220 0.62520 0.63080 0.17400
C 	C 	0.04685 0.74338 0.48150 0.34600
C 	C 	0.84380 0.68290 0.53020 0.25800
C 	C 	0.79489 0.67998 0.45080 -0.06100
C 	C 	0.89327 0.63963 0.69750 0.26500
C 	C 	0.74427 0.67920 0.50390 -0.03200
H 	H 	0.74050 0.67780 0.59040 0.04600
C 	C 	0.90295 0.59574 0.77240 -0.42300
H 	H 	0.88220 0.56530 0.78070 0.18800
C 	C 	0.80028 0.68050 0.32180 -0.02500
H 	H 	0.83400 0.68170 0.28610 0.04500
C 	C 	0.13563 0.72540 0.58730 0.05200
C 	C 	0.09413 0.70905 0.50710 -0.12200
C 	C 	0.18051 0.69250 0.59420 -0.11300
H 	H 	0.20820 0.70200 0.64750 0.07900
C 	C 	0.14420 0.63160 0.44780 -0.11600
H 	H 	0.14710 0.60060 0.40080 0.06100
C 	C 	0.09860 0.66230 0.43980 0.04000
H 	H 	0.07080 0.65140 0.38870 0.01300
C 	C 	0.18490 0.64660 0.52450 0.03800
H 	H 	0.21550 0.62600 0.52970 0.02300
N 	N 	0.93137 0.67607 0.70890 -0.21400
N 	N 	0.96567 0.65516 0.79180 -0.24700
H 	H 	0.99430 0.67070 0.81640 0.15500
C 	C 	0.94982 0.60706 0.83150 0.41100
C 	C 	0.98100 0.57680 0.92780 -0.93100
H 	H 	0.01270 0.59610 0.94820 0.30200
H 	H 	0.99030 0.54250 0.89500 0.27900
H 	H 	0.95970 0.57230 0.00170 0.29400
O 	O 	0.62264 0.78225 0.00830 -0.37400
O 	O 	0.49877 0.77469 0.00390 -0.40000
O 	O 	0.44424 0.71148 0.93330 -0.30200
N 	N 	0.65145 0.85361 0.11960 -0.29800
H 	H 	0.67780 0.87480 0.13080 0.17400
C 	C 	0.45315 0.75662 0.98150 0.34400
C 	C 	0.65620 0.81710 0.03020 0.25900
C 	C 	0.70511 0.82002 0.95080 -0.06300
C 	C 	0.60673 0.86037 0.19750 0.26500
C 	C 	0.75573 0.82080 0.00390 -0.03000
H 	H 	0.75950 0.82220 0.09040 0.04600
C 	C 	0.59705 0.90426 0.27240 -0.42400
H 	H 	0.61780 0.93470 0.28070 0.18900
C 	C 	0.69972 0.81950 0.82180 -0.02400
H 	H 	0.66600 0.81830 0.78610 0.04400
C 	C 	0.36437 0.77460 0.08730 0.05100
C 	C 	0.40587 0.79095 0.00710 -0.11900
C 	C 	0.31949 0.80750 0.09420 -0.11300
H 	H 	0.29180 0.79800 0.14750 0.07900
C 	C 	0.35580 0.86840 0.94780 -0.11700
H 	H 	0.35290 0.89940 0.90080 0.06100
C 	C 	0.40140 0.83770 0.93980 0.03800
H 	H 	0.42920 0.84860 0.88870 0.01300
C 	C 	0.31510 0.85340 0.02450 0.03900
H 	H 	0.28450 0.87400 0.02970 0.02300
N 	N 	0.56863 0.82393 0.20890 -0.21400
N 	N 	0.53433 0.84484 0.29180 -0.24800
H 	H 	0.50570 0.82930 0.31640 0.15600
C 	C 	0.55018 0.89294 0.33150 0.41300
C 	C 	0.51900 0.92320 0.42780 -0.93800
H 	H 	0.48730 0.90390 0.44820 0.30400
H 	H 	0.50970 0.95750 0.39500 0.28100
H 	H 	0.54030 0.92770 0.50170 0.29700
O 	O 	0.62264 0.71775 0.24170 -0.37400
O 	O 	0.49877 0.72531 0.24610 -0.40100
O 	O 	0.44424 0.78852 0.31670 -0.30200
N 	N 	0.65145 0.64639 0.13040 -0.29800
H 	H 	0.67780 0.62520 0.11920 0.17400
C 	C 	0.45315 0.74338 0.26850 0.34600
C 	C 	0.65620 0.68290 0.21980 0.25800
C 	C 	0.70511 0.67998 0.29920 -0.06100
C 	C 	0.60673 0.63963 0.05250 0.26500
C 	C 	0.75573 0.67920 0.24610 -0.03200
H 	H 	0.75950 0.67780 0.15960 0.04600
C 	C 	0.59705 0.59574 0.97760 -0.42400
H 	H 	0.61780 0.56530 0.96930 0.18900
C 	C 	0.69972 0.68050 0.42820 -0.02500
H 	H 	0.66600 0.68170 0.46390 0.04500
C 	C 	0.36437 0.72540 0.16270 0.05200
C 	C 	0.40587 0.70905 0.24290 -0.12200
C 	C 	0.31949 0.69250 0.15580 -0.11400
H 	H 	0.29180 0.70200 0.10250 0.07900
C 	C 	0.35580 0.63160 0.30220 -0.11600
H 	H 	0.35290 0.60060 0.34920 0.06100
C 	C 	0.40140 0.66230 0.31020 0.04000
H 	H 	0.42920 0.65140 0.36130 0.01300
C 	C 	0.31510 0.64660 0.22550 0.03800
H 	H 	0.28450 0.62600 0.22030 0.02300
N 	N 	0.56863 0.67607 0.04110 -0.21400
N 	N 	0.53433 0.65516 0.95820 -0.24800
H 	H 	0.50570 0.67070 0.93360 0.15500
C 	C 	0.55018 0.60706 0.91850 0.41300
C 	C 	0.51900 0.57680 0.82220 -0.93800
H 	H 	0.48730 0.59610 0.80180 0.30400
H 	H 	0.50970 0.54250 0.85500 0.28100
H 	H 	0.54030 0.57230 0.74830 0.29700
O 	O 	0.87736 0.78225 0.74170 -0.37400
O 	O 	0.00123 0.77469 0.74610 -0.40100
O 	O 	0.05576 0.71148 0.81670 -0.30200
N 	N 	0.84855 0.85361 0.63040 -0.29800
H 	H 	0.82220 0.87480 0.61920 0.17400
C 	C 	0.04685 0.75662 0.76850 0.34600
C 	C 	0.84380 0.81710 0.71980 0.25800
C 	C 	0.79489 0.82002 0.79920 -0.06000
C 	C 	0.89327 0.86037 0.55250 0.26500
C 	C 	0.74427 0.82080 0.74610 -0.03300
H 	H 	0.74050 0.82220 0.65960 0.04700
C 	C 	0.90295 0.90426 0.47760 -0.42400
H 	H 	0.88220 0.93470 0.46930 0.18900
C 	C 	0.80028 0.81950 0.92820 -0.02700
H 	H 	0.83400 0.81830 0.96390 0.04600
C 	C 	0.13563 0.77460 0.66270 0.05200
C 	C 	0.09413 0.79095 0.74290 -0.12200
C 	C 	0.18051 0.80750 0.65580 -0.11300
H 	H 	0.20820 0.79800 0.60250 0.07900
C 	C 	0.14420 0.86840 0.80220 -0.11600
H 	H 	0.14710 0.89940 0.84920 0.06100
C 	C 	0.09860 0.83770 0.81020 0.04000
H 	H 	0.07080 0.84860 0.86130 0.01300
C 	C 	0.18490 0.85340 0.72550 0.03800
H 	H 	0.21550 0.87400 0.72030 0.02300
N 	N 	0.93137 0.82393 0.54110 -0.21400
N 	N 	0.96567 0.84484 0.45820 -0.24800
H 	H 	0.99430 0.82930 0.43360 0.15500
C 	C 	0.94982 0.89294 0.41850 0.41300
C 	C 	0.98100 0.92320 0.32220 -0.93800
H 	H 	0.01270 0.90390 0.30180 0.30400
H 	H 	0.99030 0.95750 0.35500 0.28100
H 	H 	0.95970 0.92770 0.24830 0.29700
Co	Co	0.56036 0.75000 0.12500 1.17800
Co	Co	0.93964 0.75000 0.62500 1.17800
O 	O 	0.21775 0.62264 0.99170 -0.37400
O 	O 	0.22531 0.49877 0.99610 -0.40000
O 	O 	0.28852 0.44424 0.06670 -0.30200
N 	N 	0.14639 0.65145 0.88040 -0.29800
H 	H 	0.12520 0.67780 0.86920 0.17400
C 	C 	0.24338 0.45315 0.01850 0.34400
C 	C 	0.18290 0.65620 0.96980 0.25900
C 	C 	0.17998 0.70511 0.04920 -0.06300
C 	C 	0.13963 0.60673 0.80250 0.26500
C 	C 	0.17920 0.75573 0.99610 -0.03000
H 	H 	0.17780 0.75950 0.90960 0.04600
C 	C 	0.09574 0.59705 0.72760 -0.42400
H 	H 	0.06530 0.61780 0.71930 0.18900
C 	C 	0.18050 0.69972 0.17820 -0.02400
H 	H 	0.18170 0.66600 0.21390 0.04400
C 	C 	0.22540 0.36437 0.91270 0.05100
C 	C 	0.20905 0.40587 0.99290 -0.11900
C 	C 	0.19250 0.31949 0.90580 -0.11300
H 	H 	0.20200 0.29180 0.85250 0.07900
C 	C 	0.13160 0.35580 0.05220 -0.11700
H 	H 	0.10060 0.35290 0.09920 0.06100
C 	C 	0.16230 0.40140 0.06020 0.03800
H 	H 	0.15140 0.42920 0.11130 0.01300
C 	C 	0.14660 0.31510 0.97550 0.03900
H 	H 	0.12600 0.28450 0.97030 0.02300
N 	N 	0.17607 0.56863 0.79110 -0.21400
N 	N 	0.15516 0.53433 0.70820 -0.24800
H 	H 	0.17070 0.50570 0.68360 0.15600
C 	C 	0.10706 0.55018 0.66850 0.41300
C 	C 	0.07680 0.51900 0.57220 -0.93800
H 	H 	0.09610 0.48730 0.55180 0.30400
H 	H 	0.04250 0.50970 0.60500 0.28100
H 	H 	0.07230 0.54030 0.49830 0.29700
O 	O 	0.28225 0.87736 0.49170 -0.37400
O 	O 	0.27469 0.00123 0.49610 -0.40100
O 	O 	0.21148 0.05576 0.56670 -0.30200
N 	N 	0.35361 0.84855 0.38040 -0.29800
H 	H 	0.37480 0.82220 0.36920 0.17400
C 	C 	0.25662 0.04685 0.51850 0.34600
C 	C 	0.31710 0.84380 0.46980 0.25800
C 	C 	0.32002 0.79489 0.54920 -0.06100
C 	C 	0.36037 0.89327 0.30250 0.26500
C 	C 	0.32080 0.74427 0.49610 -0.03200
H 	H 	0.32220 0.74050 0.40960 0.04600
C 	C 	0.40426 0.90295 0.22760 -0.42300
H 	H 	0.43470 0.88220 0.21930 0.18800
C 	C 	0.31950 0.80028 0.67820 -0.02500
H 	H 	0.31830 0.83400 0.71390 0.04500
C 	C 	0.27460 0.13563 0.41270 0.05200
C 	C 	0.29095 0.09413 0.49290 -0.12200
C 	C 	0.30750 0.18051 0.40580 -0.11300
H 	H 	0.29800 0.20820 0.35250 0.07900
C 	C 	0.36840 0.14420 0.55220 -0.11600
H 	H 	0.39940 0.14710 0.59920 0.06100
C 	C 	0.33770 0.09860 0.56020 0.04000
H 	H 	0.34860 0.07080 0.61130 0.01300
C 	C 	0.35340 0.18490 0.47550 0.03800
H 	H 	0.37400 0.21550 0.47030 0.02300
N 	N 	0.32393 0.93137 0.29110 -0.21400
N 	N 	0.34484 0.96567 0.20820 -0.24700
H 	H 	0.32930 0.99430 0.18360 0.15500
C 	C 	0.39294 0.94982 0.16850 0.41100
C 	C 	0.42320 0.98100 0.07220 -0.93100
H 	H 	0.40390 0.01270 0.05180 0.30200
H 	H 	0.45750 0.99030 0.10500 0.27900
H 	H 	0.42770 0.95970 0.99830 0.29400
O 	O 	0.28225 0.62264 0.75830 -0.37400
O 	O 	0.27469 0.49877 0.75390 -0.40100
O 	O 	0.21148 0.44424 0.68330 -0.30200
N 	N 	0.35361 0.65145 0.86960 -0.29800
H 	H 	0.37480 0.67780 0.88080 0.17400
C 	C 	0.25662 0.45315 0.73150 0.34600
C 	C 	0.31710 0.65620 0.78020 0.25800
C 	C 	0.32002 0.70511 0.70080 -0.06100
C 	C 	0.36037 0.60673 0.94750 0.26500
C 	C 	0.32080 0.75573 0.75390 -0.03200
H 	H 	0.32220 0.75950 0.84040 0.04600
C 	C 	0.40426 0.59705 0.02240 -0.42400
H 	H 	0.43470 0.61780 0.03070 0.18900
C 	C 	0.31950 0.69972 0.57180 -0.02500
H 	H 	0.31830 0.66600 0.53610 0.04500
C 	C 	0.27460 0.36437 0.83730 0.05200
C 	C 	0.29095 0.40587 0.75710 -0.12200
C 	C 	0.30750 0.31949 0.84420 -0.11400
H 	H 	0.29800 0.29180 0.89750 0.07900
C 	C 	0.36840 0.35580 0.69780 -0.11600
H 	H 	0.39940 0.35290 0.65080 0.06100
C 	C 	0.33770 0.40140 0.68980 0.04000
H 	H 	0.34860 0.42920 0.63870 0.01300
C 	C 	0.35340 0.31510 0.77450 0.03800
H 	H 	0.37400 0.28450 0.77970 0.02300
N 	N 	0.32393 0.56863 0.95890 -0.21400
N 	N 	0.34484 0.53433 0.04180 -0.24800
H 	H 	0.32930 0.50570 0.06640 0.15500
C 	C 	0.39294 0.55018 0.08150 0.41300
C 	C 	0.42320 0.51900 0.17780 -0.93800
H 	H 	0.40390 0.48730 0.19820 0.30400
H 	H 	0.45750 0.50970 0.14500 0.28100
H 	H 	0.42770 0.54030 0.25170 0.29700
O 	O 	0.21775 0.87736 0.25830 -0.37400
O 	O 	0.22531 0.00123 0.25390 -0.40100
O 	O 	0.28852 0.05576 0.18330 -0.30200
N 	N 	0.14639 0.84855 0.36960 -0.29800
H 	H 	0.12520 0.82220 0.38080 0.17400
C 	C 	0.24338 0.04685 0.23150 0.34600
C 	C 	0.18290 0.84380 0.28020 0.25800
C 	C 	0.17998 0.79489 0.20080 -0.06000
C 	C 	0.13963 0.89327 0.44750 0.26500
C 	C 	0.17920 0.74427 0.25390 -0.03300
H 	H 	0.17780 0.74050 0.34040 0.04700
C 	C 	0.09574 0.90295 0.52240 -0.42400
H 	H 	0.06530 0.88220 0.53070 0.18900
C 	C 	0.18050 0.80028 0.07180 -0.02700
H 	H 	0.18170 0.83400 0.03610 0.04600
C 	C 	0.22540 0.13563 0.33730 0.05200
C 	C 	0.20905 0.09413 0.25710 -0.12200
C 	C 	0.19250 0.18051 0.34420 -0.11300
H 	H 	0.20200 0.20820 0.39750 0.07900
C 	C 	0.13160 0.14420 0.19780 -0.11600
H 	H 	0.10060 0.14710 0.15080 0.06100
C 	C 	0.16230 0.09860 0.18980 0.04000
H 	H 	0.15140 0.07080 0.13870 0.01300
C 	C 	0.14660 0.18490 0.27450 0.03800
H 	H 	0.12600 0.21550 0.27970 0.02300
N 	N 	0.17607 0.93137 0.45890 -0.21400
N 	N 	0.15516 0.96567 0.54180 -0.24800
H 	H 	0.17070 0.99430 0.56640 0.15500
C 	C 	0.10706 0.94982 0.58150 0.41300
C 	C 	0.07680 0.98100 0.67780 -0.93800
H 	H 	0.09610 0.01270 0.69820 0.30400
H 	H 	0.04250 0.99030 0.64500 0.28100
H 	H 	0.07230 0.95970 0.75170 0.29700
Co	Co	0.25000 0.56036 0.87500 1.17800
Co	Co	0.25000 0.93964 0.37500 1.17800
O 	O 	0.71775 0.12264 0.49170 -0.37400
O 	O 	0.72531 0.99877 0.49610 -0.40100
O 	O 	0.78852 0.94424 0.56670 -0.30200
N 	N 	0.64639 0.15145 0.38040 -0.29800
H 	H 	0.62520 0.17780 0.36920 0.17400
C 	C 	0.74338 0.95315 0.51850 0.34600
C 	C 	0.68290 0.15620 0.46980 0.25800
C 	C 	0.67998 0.20511 0.54920 -0.06100
C 	C 	0.63963 0.10673 0.30250 0.26500
C 	C 	0.67920 0.25573 0.49610 -0.03200
H 	H 	0.67780 0.25950 0.40960 0.04600
C 	C 	0.59574 0.09705 0.22760 -0.42300
H 	H 	0.56530 0.11780 0.21930 0.18800
C 	C 	0.68050 0.19972 0.67820 -0.02500
H 	H 	0.68170 0.16600 0.71390 0.04500
C 	C 	0.72540 0.86437 0.41270 0.05200
C 	C 	0.70905 0.90587 0.49290 -0.12200
C 	C 	0.69250 0.81949 0.40580 -0.11300
H 	H 	0.70200 0.79180 0.35250 0.07900
C 	C 	0.63160 0.85580 0.55220 -0.11600
H 	H 	0.60060 0.85290 0.59920 0.06100
C 	C 	0.66230 0.90140 0.56020 0.04000
H 	H 	0.65140 0.92920 0.61130 0.01300
C 	C 	0.64660 0.81510 0.47550 0.03800
H 	H 	0.62600 0.78450 0.47030 0.02300
N 	N 	0.67607 0.06863 0.29110 -0.21400
N 	N 	0.65516 0.03433 0.20820 -0.24700
H 	H 	0.67070 0.00570 0.18360 0.15500
C 	C 	0.60706 0.05018 0.16850 0.41100
C 	C 	0.57680 0.01900 0.07220 -0.93100
H 	H 	0.59610 0.98730 0.05180 0.30200
H 	H 	0.54250 0.00970 0.10500 0.27900
H 	H 	0.57230 0.04030 0.99830 0.29400
O 	O 	0.78225 0.37736 0.99170 -0.37400
O 	O 	0.77469 0.50123 0.99610 -0.40000
O 	O 	0.71148 0.55576 0.06670 -0.30200
N 	N 	0.85361 0.34855 0.88040 -0.29800
H 	H 	0.87480 0.32220 0.86920 0.17400
C 	C 	0.75662 0.54685 0.01850 0.34400
C 	C 	0.81710 0.34380 0.96980 0.25900
C 	C 	0.82002 0.29489 0.04920 -0.06300
C 	C 	0.86037 0.39327 0.80250 0.26500
C 	C 	0.82080 0.24427 0.99610 -0.03000
H 	H 	0.82220 0.24050 0.90960 0.04600
C 	C 	0.90426 0.40295 0.72760 -0.42400
H 	H 	0.93470 0.38220 0.71930 0.18900
C 	C 	0.81950 0.30028 0.17820 -0.02400
H 	H 	0.81830 0.33400 0.21390 0.04400
C 	C 	0.77460 0.63563 0.91270 0.05100
C 	C 	0.79095 0.59413 0.99290 -0.11900
C 	C 	0.80750 0.68051 0.90580 -0.11300
H 	H 	0.79800 0.70820 0.85250 0.07900
C 	C 	0.86840 0.64420 0.05220 -0.11700
H 	H 	0.89940 0.64710 0.09920 0.06100
C 	C 	0.83770 0.59860 0.06020 0.03800
H 	H 	0.84860 0.57080 0.11130 0.01300
C 	C 	0.85340 0.68490 0.97550 0.03900
H 	H 	0.87400 0.71550 0.97030 0.02300
N 	N 	0.82393 0.43137 0.79110 -0.21400
N 	N 	0.84484 0.46567 0.70820 -0.24800
H 	H 	0.82930 0.49430 0.68360 0.15600
C 	C 	0.89294 0.44982 0.66850 0.41300
C 	C 	0.92320 0.48100 0.57220 -0.93800
H 	H 	0.90390 0.51270 0.55180 0.30400
H 	H 	0.95750 0.49030 0.60500 0.28100
H 	H 	0.92770 0.45970 0.49830 0.29700
O 	O 	0.78225 0.12264 0.25830 -0.37400
O 	O 	0.77469 0.99877 0.25390 -0.40100
O 	O 	0.71148 0.94424 0.18330 -0.30200
N 	N 	0.85361 0.15145 0.36960 -0.29800
H 	H 	0.87480 0.17780 0.38080 0.17400
C 	C 	0.75662 0.95315 0.23150 0.34600
C 	C 	0.81710 0.15620 0.28020 0.25800
C 	C 	0.82002 0.20511 0.20080 -0.06000
C 	C 	0.86037 0.10673 0.44750 0.26500
C 	C 	0.82080 0.25573 0.25390 -0.03300
H 	H 	0.82220 0.25950 0.34040 0.04700
C 	C 	0.90426 0.09705 0.52240 -0.42400
H 	H 	0.93470 0.11780 0.53070 0.18900
C 	C 	0.81950 0.19972 0.07180 -0.02700
H 	H 	0.81830 0.16600 0.03610 0.04600
C 	C 	0.77460 0.86437 0.33730 0.05200
C 	C 	0.79095 0.90587 0.25710 -0.12200
C 	C 	0.80750 0.81949 0.34420 -0.11300
H 	H 	0.79800 0.79180 0.39750 0.07900
C 	C 	0.86840 0.85580 0.19780 -0.11600
H 	H 	0.89940 0.85290 0.15080 0.06100
C 	C 	0.83770 0.90140 0.18980 0.04000
H 	H 	0.84860 0.92920 0.13870 0.01300
C 	C 	0.85340 0.81510 0.27450 0.03800
H 	H 	0.87400 0.78450 0.27970 0.02300
N 	N 	0.82393 0.06863 0.45890 -0.21400
N 	N 	0.84484 0.03433 0.54180 -0.24800
H 	H 	0.82930 0.00570 0.56640 0.15500
C 	C 	0.89294 0.05018 0.58150 0.41300
C 	C 	0.92320 0.01900 0.67780 -0.93800
H 	H 	0.90390 0.98730 0.69820 0.30400
H 	H 	0.95750 0.00970 0.64500 0.28100
H 	H 	0.92770 0.04030 0.75170 0.29700
O 	O 	0.71775 0.37736 0.75830 -0.37400
O 	O 	0.72531 0.50123 0.75390 -0.40100
O 	O 	0.78852 0.55576 0.68330 -0.30200
N 	N 	0.64639 0.34855 0.86960 -0.29800
H 	H 	0.62520 0.32220 0.88080 0.17400
C 	C 	0.74338 0.54685 0.73150 0.34600
C 	C 	0.68290 0.34380 0.78020 0.25800
C 	C 	0.67998 0.29489 0.70080 -0.06100
C 	C 	0.63963 0.39327 0.94750 0.26500
C 	C 	0.67920 0.24427 0.75390 -0.03200
H 	H 	0.67780 0.24050 0.84040 0.04600
C 	C 	0.59574 0.40295 0.02240 -0.42400
H 	H 	0.56530 0.38220 0.03070 0.18900
C 	C 	0.68050 0.30028 0.57180 -0.02500
H 	H 	0.68170 0.33400 0.53610 0.04500
C 	C 	0.72540 0.63563 0.83730 0.05200
C 	C 	0.70905 0.59413 0.75710 -0.12200
C 	C 	0.69250 0.68051 0.84420 -0.11400
H 	H 	0.70200 0.70820 0.89750 0.07900
C 	C 	0.63160 0.64420 0.69780 -0.11600
H 	H 	0.60060 0.64710 0.65080 0.06100
C 	C 	0.66230 0.59860 0.68980 0.04000
H 	H 	0.65140 0.57080 0.63870 0.01300
C 	C 	0.64660 0.68490 0.77450 0.03800
H 	H 	0.62600 0.71550 0.77970 0.02300
N 	N 	0.67607 0.43137 0.95890 -0.21400
N 	N 	0.65516 0.46567 0.04180 -0.24800
H 	H 	0.67070 0.49430 0.06640 0.15500
C 	C 	0.60706 0.44982 0.08150 0.41300
C 	C 	0.57680 0.48100 0.17780 -0.93800
H 	H 	0.59610 0.51270 0.19820 0.30400
H 	H 	0.54250 0.49030 0.14500 0.28100
H 	H 	0.57230 0.45970 0.25170 0.29700
Co	Co	0.75000 0.06036 0.37500 1.17800
Co	Co	0.75000 0.43964 0.87500 1.17800
