data_crystal

_cell_length_a 11.55290
_cell_length_b 14.29500
_cell_length_c 14.71620
_cell_angle_alpha 80.18200
_cell_angle_beta  71.32700
_cell_angle_gamma 69.01200

_symmetry_space_group_name_	'P 1'
_symmetry_space_group_name_H-M	'P 1'

loop_
_symmetry_equiv_pos_as_xyz
  x,y,z

loop_
_atom_site_label
_atom_site_type_symbol
_atom_site_fract_x
_atom_site_fract_y
_atom_site_fract_z
_atom_site_charge
F 	F 	0.32980 0.52840 0.01480 -0.46600
O 	O 	0.12500 0.62780 0.74990 -0.42400
C 	C 	0.02810 0.64630 0.82630 0.20800
C 	C 	0.89860 0.68830 0.82650 -0.25200
H 	H 	0.87700 0.70830 0.76890 0.06100
C 	C 	0.80240 0.69980 0.91330 0.13000
H 	H 	0.71690 0.72650 0.91160 -0.03100
C 	C 	0.95200 0.63690 0.00450 0.08200
C 	C 	0.05390 0.62220 0.91840 -0.04300
C 	C 	0.18110 0.58340 0.92400 -0.18900
H 	H 	0.24940 0.56930 0.86820 0.10200
C 	C 	0.20450 0.56650 0.01090 0.30900
C 	C 	0.10590 0.58490 0.09810 -0.02300
C 	C 	0.98110 0.61700 0.09390 -0.09700
H 	H 	0.91410 0.62600 0.15060 0.04200
C 	C 	0.20540 0.63830 0.19270 -0.08500
H 	H 	0.26940 0.64510 0.13270 0.07800
H 	H 	0.14030 0.70370 0.20570 0.03300
C 	C 	0.26910 0.60280 0.27270 -0.00800
H 	H 	0.33930 0.54030 0.25720 0.02900
H 	H 	0.30460 0.65230 0.28000 -0.01800
C 	C 	0.10540 0.51980 0.35490 -0.03300
H 	H 	0.16750 0.45330 0.34160 0.02000
H 	H 	0.03980 0.51430 0.41440 -0.02700
C 	C 	0.04400 0.55970 0.27460 -0.05300
H 	H 	0.98120 0.62590 0.28810 -0.00500
H 	H 	0.99930 0.51600 0.26910 0.01000
C 	C 	0.71600 0.68590 0.09070 0.34000
H 	H 	0.71740 0.73580 0.12710 -0.11600
H 	H 	0.73180 0.62260 0.12880 -0.09700
C 	C 	0.58380 0.71440 0.07940 -0.83700
H 	H 	0.56470 0.77790 0.04320 0.25300
H 	H 	0.57960 0.66410 0.04610 0.30200
H 	H 	0.52180 0.71980 0.14160 0.23400
N 	N 	0.82540 0.67470 0.99950 -0.19100
N 	N 	0.14390 0.56570 0.18370 -0.07200
N 	N 	0.17100 0.58730 0.36530 -0.21900
H 	H 	0.11180 0.64700 0.38330 0.07300
H 	H 	0.21090 0.56090 0.41170 0.09000
F 	F 	0.67020 0.47160 0.98520 -0.46700
O 	O 	0.87500 0.37220 0.25010 -0.42500
C 	C 	0.97190 0.35370 0.17370 0.20700
C 	C 	0.10140 0.31170 0.17350 -0.25300
H 	H 	0.12300 0.29170 0.23110 0.06100
C 	C 	0.19760 0.30020 0.08670 0.13000
H 	H 	0.28310 0.27350 0.08840 -0.03100
C 	C 	0.04800 0.36310 0.99550 0.08200
C 	C 	0.94610 0.37780 0.08160 -0.04300
C 	C 	0.81890 0.41660 0.07600 -0.18900
H 	H 	0.75060 0.43070 0.13180 0.10200
C 	C 	0.79550 0.43350 0.98910 0.30900
C 	C 	0.89410 0.41510 0.90190 -0.02300
C 	C 	0.01890 0.38300 0.90610 -0.09700
H 	H 	0.08590 0.37400 0.84940 0.04200
C 	C 	0.79460 0.36170 0.80730 -0.08500
H 	H 	0.73060 0.35490 0.86730 0.07800
H 	H 	0.85970 0.29630 0.79430 0.03300
C 	C 	0.73090 0.39720 0.72730 -0.00800
H 	H 	0.66070 0.45970 0.74280 0.02900
H 	H 	0.69540 0.34770 0.72000 -0.01800
C 	C 	0.89460 0.48020 0.64510 -0.03300
H 	H 	0.83250 0.54670 0.65840 0.02000
H 	H 	0.96020 0.48570 0.58560 -0.02700
C 	C 	0.95600 0.44030 0.72540 -0.05300
H 	H 	0.01880 0.37410 0.71190 -0.00500
H 	H 	0.00070 0.48400 0.73090 0.01000
C 	C 	0.28400 0.31410 0.90930 0.34000
H 	H 	0.28260 0.26420 0.87290 -0.11600
H 	H 	0.26820 0.37740 0.87120 -0.09700
C 	C 	0.41620 0.28560 0.92060 -0.83700
H 	H 	0.43530 0.22210 0.95680 0.25300
H 	H 	0.42040 0.33590 0.95390 0.30200
H 	H 	0.47820 0.28020 0.85840 0.23400
N 	N 	0.17460 0.32530 0.00050 -0.19100
N 	N 	0.85610 0.43430 0.81630 -0.07200
N 	N 	0.82900 0.41270 0.63470 -0.21900
H 	H 	0.88820 0.35300 0.61670 0.07300
H 	H 	0.78910 0.43910 0.58830 0.09000
Mo	Mo	0.44801 0.54083 0.61551 1.14100
Mo	Mo	0.31838 0.38846 0.57673 1.04600
Mo	Mo	0.62094 0.25050 0.55032 1.03400
Mo	Mo	0.85248 0.32132 0.39593 1.05000
O 	O 	0.59900 0.55910 0.58690 -0.48000
O 	O 	0.34110 0.67580 0.60760 -0.54300
O 	O 	0.27980 0.52860 0.59300 -0.59700
O 	O 	0.50560 0.41340 0.55790 -0.59700
O 	O 	0.45610 0.26590 0.52930 -0.57400
O 	O 	0.76790 0.29560 0.52690 -0.58800
Mo	Mo	0.55199 0.45917 0.38449 1.14100
Mo	Mo	0.68162 0.61154 0.42327 1.04600
Mo	Mo	0.37906 0.74950 0.44968 1.03400
Mo	Mo	0.14752 0.67868 0.60407 1.05000
O 	O 	0.40100 0.44090 0.41310 -0.48000
O 	O 	0.65890 0.32420 0.39240 -0.54300
O 	O 	0.72020 0.47140 0.40700 -0.59700
O 	O 	0.49440 0.58660 0.44210 -0.59700
O 	O 	0.54390 0.73410 0.47070 -0.57400
O 	O 	0.23210 0.70440 0.47310 -0.58800
