data_crystal

_cell_length_a 11.78700
_cell_length_b 7.45900
_cell_length_c 11.55900
_cell_angle_alpha 90.00000
_cell_angle_beta  103.14000
_cell_angle_gamma 90.00000

_symmetry_space_group_name_	'P 1'
_symmetry_space_group_name_H-M	'P 1'

loop_
_symmetry_equiv_pos_as_xyz
  x,y,z

loop_
_atom_site_label
_atom_site_type_symbol
_atom_site_fract_x
_atom_site_fract_y
_atom_site_fract_z
_atom_site_charge
O 	O 	0.40220 0.27640 0.33480 -0.44100
N 	N 	0.13290 0.04160 0.24920 -0.14400
N 	N 	0.06780 0.01370 0.14110 -0.14800
Cu	Cu	0.08300 0.11440 0.88815 0.89000
O 	O 	0.36990 0.35110 0.07630 -0.41400
N 	N 	0.11450 0.09510 0.06120 -0.16600
C 	C 	0.27790 0.26700 0.03960 0.34400
C 	C 	0.21590 0.17310 0.11970 -0.05200
O 	O 	0.22910 0.25330 0.92750 -0.39600
C 	C 	0.22400 0.14190 0.23900 -0.01800
O 	O 	0.28670 0.17290 0.44490 -0.30300
C 	C 	0.31080 0.19790 0.34750 0.34900
O 	O 	0.59780 0.27640 0.16520 -0.44400
N 	N 	0.86710 0.04160 0.25080 -0.15900
N 	N 	0.93220 0.01370 0.35890 -0.18700
Cu	Cu	0.91700 0.11440 0.61185 0.85900
O 	O 	0.63010 0.35110 0.42370 -0.41500
N 	N 	0.88550 0.09510 0.43880 -0.18500
C 	C 	0.72210 0.26700 0.46040 0.33900
C 	C 	0.78410 0.17310 0.38030 -0.05800
O 	O 	0.77090 0.25330 0.57250 -0.40600
C 	C 	0.77600 0.14190 0.26100 -0.02600
O 	O 	0.71330 0.17290 0.05510 -0.31200
C 	C 	0.68920 0.19790 0.15250 0.34800
O 	O 	0.59780 0.72360 0.66520 -0.44400
N 	N 	0.86710 0.95840 0.75080 -0.16000
N 	N 	0.93220 0.98630 0.85890 -0.18500
Cu	Cu	0.91700 0.88560 0.11185 0.85500
O 	O 	0.63010 0.64890 0.92370 -0.41700
N 	N 	0.88550 0.90490 0.93880 -0.18100
C 	C 	0.72210 0.73300 0.96040 0.34900
C 	C 	0.78410 0.82690 0.88030 -0.05900
O 	O 	0.77090 0.74670 0.07250 -0.41400
C 	C 	0.77600 0.85810 0.76100 -0.02500
O 	O 	0.71330 0.82710 0.55510 -0.31200
C 	C 	0.68920 0.80210 0.65250 0.34800
O 	O 	0.40220 0.72360 0.83480 -0.44100
N 	N 	0.13290 0.95840 0.74920 -0.14400
N 	N 	0.06780 0.98630 0.64110 -0.14900
Cu	Cu	0.08300 0.88560 0.38815 0.89200
O 	O 	0.36990 0.64890 0.57630 -0.41300
N 	N 	0.11450 0.90490 0.56120 -0.16700
C 	C 	0.27790 0.73300 0.53960 0.34200
C 	C 	0.21590 0.82690 0.61970 -0.05200
O 	O 	0.22910 0.74670 0.42750 -0.39400
C 	C 	0.22400 0.85810 0.73900 -0.01800
O 	O 	0.28670 0.82710 0.94490 -0.30000
C 	C 	0.31080 0.80210 0.84750 0.35000
Dy	Dy	0.50000 0.48008 0.25000 1.46300
Dy	Dy	0.50000 0.51992 0.75000 1.46600
N 	N 	0.00000 0.28820 0.75000 -0.22500
N 	N 	-0.00000 0.44720 0.75000 -0.03500
N 	N 	-0.00000 0.59700 0.75000 -0.06300
N 	N 	0.00000 0.71180 0.25000 -0.22500
N 	N 	-0.00000 0.55280 0.25000 -0.03500
N 	N 	0.00000 0.40300 0.25000 -0.06200
