data_crystal

_cell_length_a 8.25860
_cell_length_b 15.86380
_cell_length_c 9.42090
_cell_angle_alpha 90.00000
_cell_angle_beta  113.19000
_cell_angle_gamma 90.00000

_symmetry_space_group_name_	'P 1'
_symmetry_space_group_name_H-M	'P 1'

loop_
_symmetry_equiv_pos_as_xyz
  x,y,z

loop_
_atom_site_label
_atom_site_type_symbol
_atom_site_fract_x
_atom_site_fract_y
_atom_site_fract_z
_atom_site_charge
Fe	Fe	0.52748 0.66997 0.95803 1.20900
O 	O 	0.24755 0.67737 0.83600 -0.31000
O 	O 	0.54540 0.76675 0.12135 -0.30700
O 	O 	0.50434 0.74902 0.77290 -0.32000
O 	O 	0.80398 0.68853 0.06562 -0.31300
O 	O 	0.51242 0.58416 0.12307 -0.31700
O 	O 	0.53490 0.55290 0.85179 -0.31600
C 	C 	0.20015 0.72080 0.71591 0.22400
C 	C 	0.49370 0.50878 0.07898 0.22600
C 	C 	0.34949 0.76423 0.68109 0.22700
Fe	Fe	0.97252 0.16997 0.54196 1.20900
O 	O 	0.25245 0.17737 0.66400 -0.31100
O 	O 	0.95460 0.26675 0.37865 -0.30900
O 	O 	0.99566 0.24902 0.72710 -0.32000
O 	O 	0.69602 0.18853 0.43438 -0.31400
O 	O 	0.98758 0.08416 0.37693 -0.31600
O 	O 	0.96510 0.05290 0.64821 -0.31500
C 	C 	0.29985 0.22080 0.78409 0.22400
C 	C 	0.00630 0.00878 0.42102 0.22300
C 	C 	0.15051 0.26423 0.81891 0.22800
Fe	Fe	0.47252 0.33003 0.04197 1.20800
O 	O 	0.75245 0.32263 0.16400 -0.31100
O 	O 	0.45460 0.23325 0.87865 -0.30800
O 	O 	0.49566 0.25098 0.22710 -0.32100
O 	O 	0.19602 0.31147 0.93438 -0.31300
O 	O 	0.48758 0.41584 0.87693 -0.31700
O 	O 	0.46510 0.44710 0.14821 -0.31600
C 	C 	0.79985 0.27920 0.28409 0.22400
C 	C 	0.50630 0.49122 0.92102 0.22600
C 	C 	0.65051 0.23577 0.31891 0.22700
Fe	Fe	0.02748 0.83003 0.45803 1.20900
O 	O 	0.74755 0.82263 0.33600 -0.31100
O 	O 	0.04540 0.73325 0.62135 -0.30900
O 	O 	0.00434 0.75098 0.27290 -0.32000
O 	O 	0.30398 0.81147 0.56562 -0.31400
O 	O 	0.01242 0.91584 0.62307 -0.31600
O 	O 	0.03490 0.94710 0.35179 -0.31500
C 	C 	0.70015 0.77920 0.21591 0.22400
C 	C 	0.99370 0.99122 0.57898 0.22300
C 	C 	0.84949 0.73577 0.18109 0.22800
