data_crystal

_cell_length_a 20.44700
_cell_length_b 20.44700
_cell_length_c 20.44700
_cell_angle_alpha 90.00000
_cell_angle_beta  90.00000
_cell_angle_gamma 90.00000

_symmetry_space_group_name_	'P 1'
_symmetry_space_group_name_H-M	'P 1'

loop_
_symmetry_equiv_pos_as_xyz
  x,y,z

loop_
_atom_site_label
_atom_site_type_symbol
_atom_site_fract_x
_atom_site_fract_y
_atom_site_fract_z
_atom_site_charge
O 	O 	0.69486 0.33408 0.41910 -0.45800
O 	O 	0.78645 0.27963 0.43750 -0.37300
C 	C 	0.73530 0.28810 0.40550 0.29500
C 	C 	0.71900 0.24450 0.34880 -0.04500
C 	C 	0.75850 0.19020 0.33500 0.00000
H 	H 	0.79380 0.18030 0.36180 0.07900
O 	O 	0.19486 0.83408 0.91910 -0.43900
O 	O 	0.28645 0.77963 0.93750 -0.35300
C 	C 	0.23530 0.78810 0.90550 0.29300
C 	C 	0.21900 0.74450 0.84880 -0.03500
C 	C 	0.25850 0.69020 0.83500 -0.00400
H 	H 	0.29380 0.68030 0.86180 0.08600
O 	O 	0.80514 0.66592 0.91910 -0.43300
O 	O 	0.71355 0.72037 0.93750 -0.35000
C 	C 	0.76470 0.71190 0.90550 0.29100
C 	C 	0.78100 0.75550 0.84880 -0.02300
C 	C 	0.74150 0.80980 0.83500 -0.01000
H 	H 	0.70620 0.81970 0.86180 0.09300
O 	O 	0.30514 0.16592 0.41910 -0.46300
O 	O 	0.21355 0.22037 0.43750 -0.38200
C 	C 	0.26470 0.21190 0.40550 0.29700
C 	C 	0.28100 0.25550 0.34880 -0.05000
C 	C 	0.24150 0.30980 0.33500 0.00200
H 	H 	0.20620 0.31970 0.36180 0.07400
O 	O 	0.30514 0.83408 0.08090 -0.46700
O 	O 	0.21355 0.77963 0.06250 -0.39300
C 	C 	0.26470 0.78810 0.09450 0.29800
C 	C 	0.28100 0.74450 0.15120 -0.05000
C 	C 	0.24150 0.69020 0.16500 0.00100
H 	H 	0.20620 0.68030 0.13820 0.07200
O 	O 	0.80514 0.33408 0.58090 -0.45300
O 	O 	0.71355 0.27963 0.56250 -0.37500
C 	C 	0.76470 0.28810 0.59450 0.29500
C 	C 	0.78100 0.24450 0.65120 -0.04000
C 	C 	0.74150 0.19020 0.66500 -0.00200
H 	H 	0.70620 0.18030 0.63820 0.07800
O 	O 	0.19486 0.16592 0.58090 -0.46600
O 	O 	0.28645 0.22037 0.56250 -0.37700
C 	C 	0.23530 0.21190 0.59450 0.29600
C 	C 	0.21900 0.25550 0.65120 -0.04800
C 	C 	0.25850 0.30980 0.66500 -0.00000
H 	H 	0.29380 0.31970 0.63820 0.07900
O 	O 	0.69486 0.66592 0.08090 -0.47000
O 	O 	0.78645 0.72037 0.06250 -0.38400
C 	C 	0.73530 0.71190 0.09450 0.29600
C 	C 	0.71900 0.75550 0.15120 -0.04300
C 	C 	0.75850 0.80980 0.16500 -0.00400
H 	H 	0.79380 0.81970 0.13820 0.08300
O 	O 	0.41910 0.69486 0.33408 -0.45800
O 	O 	0.43750 0.78645 0.27963 -0.37300
C 	C 	0.40550 0.73530 0.28810 0.29500
C 	C 	0.34880 0.71900 0.24450 -0.04500
C 	C 	0.33500 0.75850 0.19020 0.00000
H 	H 	0.36180 0.79380 0.18030 0.07900
O 	O 	0.91910 0.19486 0.83408 -0.43900
O 	O 	0.93750 0.28645 0.77963 -0.35300
C 	C 	0.90550 0.23530 0.78810 0.29300
C 	C 	0.84880 0.21900 0.74450 -0.03500
C 	C 	0.83500 0.25850 0.69020 -0.00400
H 	H 	0.86180 0.29380 0.68030 0.08600
O 	O 	0.91910 0.80514 0.66592 -0.43300
O 	O 	0.93750 0.71355 0.72037 -0.35000
C 	C 	0.90550 0.76470 0.71190 0.29100
C 	C 	0.84880 0.78100 0.75550 -0.02300
C 	C 	0.83500 0.74150 0.80980 -0.01000
H 	H 	0.86180 0.70620 0.81970 0.09300
O 	O 	0.41910 0.30514 0.16592 -0.46300
O 	O 	0.43750 0.21355 0.22037 -0.38200
C 	C 	0.40550 0.26470 0.21190 0.29700
C 	C 	0.34880 0.28100 0.25550 -0.05000
C 	C 	0.33500 0.24150 0.30980 0.00200
H 	H 	0.36180 0.20620 0.31970 0.07400
O 	O 	0.08090 0.30514 0.83408 -0.46700
O 	O 	0.06250 0.21355 0.77963 -0.39300
C 	C 	0.09450 0.26470 0.78810 0.29800
C 	C 	0.15120 0.28100 0.74450 -0.05000
C 	C 	0.16500 0.24150 0.69020 0.00100
H 	H 	0.13820 0.20620 0.68030 0.07200
O 	O 	0.58090 0.80514 0.33408 -0.45300
O 	O 	0.56250 0.71355 0.27963 -0.37500
C 	C 	0.59450 0.76470 0.28810 0.29500
C 	C 	0.65120 0.78100 0.24450 -0.04000
C 	C 	0.66500 0.74150 0.19020 -0.00200
H 	H 	0.63820 0.70620 0.18030 0.07800
O 	O 	0.58090 0.19486 0.16592 -0.46600
O 	O 	0.56250 0.28645 0.22037 -0.37700
C 	C 	0.59450 0.23530 0.21190 0.29600
C 	C 	0.65120 0.21900 0.25550 -0.04800
C 	C 	0.66500 0.25850 0.30980 -0.00000
H 	H 	0.63820 0.29380 0.31970 0.07900
O 	O 	0.08090 0.69486 0.66592 -0.47000
O 	O 	0.06250 0.78645 0.72037 -0.38400
C 	C 	0.09450 0.73530 0.71190 0.29600
C 	C 	0.15120 0.71900 0.75550 -0.04300
C 	C 	0.16500 0.75850 0.80980 -0.00400
H 	H 	0.13820 0.79380 0.81970 0.08300
O 	O 	0.33408 0.41910 0.69486 -0.45800
O 	O 	0.27963 0.43750 0.78645 -0.37300
C 	C 	0.28810 0.40550 0.73530 0.29500
C 	C 	0.24450 0.34880 0.71900 -0.04500
C 	C 	0.19020 0.33500 0.75850 0.00000
H 	H 	0.18030 0.36180 0.79380 0.07900
O 	O 	0.83408 0.91910 0.19486 -0.43900
O 	O 	0.77963 0.93750 0.28645 -0.35300
C 	C 	0.78810 0.90550 0.23530 0.29300
C 	C 	0.74450 0.84880 0.21900 -0.03500
C 	C 	0.69020 0.83500 0.25850 -0.00400
H 	H 	0.68030 0.86180 0.29380 0.08600
O 	O 	0.66592 0.91910 0.80514 -0.43300
O 	O 	0.72037 0.93750 0.71355 -0.35000
C 	C 	0.71190 0.90550 0.76470 0.29100
C 	C 	0.75550 0.84880 0.78100 -0.02300
C 	C 	0.80980 0.83500 0.74150 -0.01000
H 	H 	0.81970 0.86180 0.70620 0.09300
O 	O 	0.16592 0.41910 0.30514 -0.46300
O 	O 	0.22037 0.43750 0.21355 -0.38200
C 	C 	0.21190 0.40550 0.26470 0.29700
C 	C 	0.25550 0.34880 0.28100 -0.05000
C 	C 	0.30980 0.33500 0.24150 0.00200
H 	H 	0.31970 0.36180 0.20620 0.07400
O 	O 	0.83408 0.08090 0.30514 -0.46700
O 	O 	0.77963 0.06250 0.21355 -0.39300
C 	C 	0.78810 0.09450 0.26470 0.29800
C 	C 	0.74450 0.15120 0.28100 -0.05000
C 	C 	0.69020 0.16500 0.24150 0.00100
H 	H 	0.68030 0.13820 0.20620 0.07200
O 	O 	0.33408 0.58090 0.80514 -0.45300
O 	O 	0.27963 0.56250 0.71355 -0.37500
C 	C 	0.28810 0.59450 0.76470 0.29500
C 	C 	0.24450 0.65120 0.78100 -0.04000
C 	C 	0.19020 0.66500 0.74150 -0.00200
H 	H 	0.18030 0.63820 0.70620 0.07800
O 	O 	0.16592 0.58090 0.19486 -0.46600
O 	O 	0.22037 0.56250 0.28645 -0.37700
C 	C 	0.21190 0.59450 0.23530 0.29600
C 	C 	0.25550 0.65120 0.21900 -0.04800
C 	C 	0.30980 0.66500 0.25850 -0.00000
H 	H 	0.31970 0.63820 0.29380 0.07900
O 	O 	0.66592 0.08090 0.69486 -0.47000
O 	O 	0.72037 0.06250 0.78645 -0.38400
C 	C 	0.71190 0.09450 0.73530 0.29600
C 	C 	0.75550 0.15120 0.71900 -0.04300
C 	C 	0.80980 0.16500 0.75850 -0.00400
H 	H 	0.81970 0.13820 0.79380 0.08300
O 	O 	0.58408 0.94486 0.66910 -0.44900
O 	O 	0.52963 0.03645 0.68750 -0.41400
C 	C 	0.53810 0.98530 0.65550 0.31600
C 	C 	0.49450 0.96900 0.59880 0.08900
C 	C 	0.44020 0.00850 0.58500 -0.23000
H 	H 	0.43030 0.04380 0.61180 0.14700
O 	O 	0.08408 0.44486 0.16910 -0.45500
O 	O 	0.02963 0.53645 0.18750 -0.37800
C 	C 	0.03810 0.48530 0.15550 0.23000
C 	C 	0.99450 0.46900 0.09880 0.05600
C 	C 	0.94020 0.50850 0.08500 -0.01400
H 	H 	0.93030 0.54380 0.11180 0.09400
O 	O 	0.91592 0.05514 0.16910 -0.48100
O 	O 	0.97037 0.96355 0.18750 -0.34100
C 	C 	0.96190 0.01470 0.15550 0.37600
C 	C 	0.00550 0.03100 0.09880 -0.38700
C 	C 	0.05980 0.99150 0.08500 0.36000
H 	H 	0.06970 0.95620 0.11180 -0.04500
O 	O 	0.41592 0.55514 0.66910 -0.45700
O 	O 	0.47037 0.46355 0.68750 -0.37400
C 	C 	0.46190 0.51470 0.65550 0.29500
C 	C 	0.50550 0.53100 0.59880 -0.04100
C 	C 	0.55980 0.49150 0.58500 -0.00300
H 	H 	0.56970 0.45620 0.61180 0.08100
O 	O 	0.08408 0.55514 0.33090 -0.44200
O 	O 	0.02963 0.46355 0.31250 -0.36900
C 	C 	0.03810 0.51470 0.34450 0.19800
C 	C 	0.99450 0.53100 0.40120 0.15100
C 	C 	0.94020 0.49150 0.41500 -0.11100
H 	H 	0.93030 0.45620 0.38820 0.12800
O 	O 	0.58408 0.05514 0.83090 -0.45100
O 	O 	0.52963 0.96355 0.81250 -0.32200
C 	C 	0.53810 0.01470 0.84450 0.25200
C 	C 	0.49450 0.03100 0.90120 -0.10300
C 	C 	0.44020 0.99150 0.91500 0.15600
H 	H 	0.43030 0.95620 0.88820 0.04000
O 	O 	0.41592 0.44486 0.83090 -0.44800
O 	O 	0.47037 0.53645 0.81250 -0.36400
C 	C 	0.46190 0.48530 0.84450 0.27000
C 	C 	0.50550 0.46900 0.90120 0.03700
C 	C 	0.55980 0.50850 0.91500 -0.08800
H 	H 	0.56970 0.54380 0.88820 0.11200
O 	O 	0.91592 0.94486 0.33090 -0.46500
O 	O 	0.97037 0.03645 0.31250 -0.42300
C 	C 	0.96190 0.98530 0.34450 0.42200
C 	C 	0.00550 0.96900 0.40120 -0.12400
C 	C 	0.05980 0.00850 0.41500 -0.09800
H 	H 	0.06970 0.04380 0.38820 0.09200
O 	O 	0.94486 0.66910 0.58408 -0.44900
O 	O 	0.03645 0.68750 0.52963 -0.41400
C 	C 	0.98530 0.65550 0.53810 0.31600
C 	C 	0.96900 0.59880 0.49450 0.08900
C 	C 	0.00850 0.58500 0.44020 -0.23000
H 	H 	0.04380 0.61180 0.43030 0.14700
O 	O 	0.44486 0.16910 0.08408 -0.45500
O 	O 	0.53645 0.18750 0.02963 -0.37800
C 	C 	0.48530 0.15550 0.03810 0.23000
C 	C 	0.46900 0.09880 0.99450 0.05600
C 	C 	0.50850 0.08500 0.94020 -0.01400
H 	H 	0.54380 0.11180 0.93030 0.09400
O 	O 	0.05514 0.16910 0.91592 -0.48100
O 	O 	0.96355 0.18750 0.97037 -0.34100
C 	C 	0.01470 0.15550 0.96190 0.37600
C 	C 	0.03100 0.09880 0.00550 -0.38700
C 	C 	0.99150 0.08500 0.05980 0.36000
H 	H 	0.95620 0.11180 0.06970 -0.04500
O 	O 	0.55514 0.66910 0.41592 -0.45700
O 	O 	0.46355 0.68750 0.47037 -0.37400
C 	C 	0.51470 0.65550 0.46190 0.29500
C 	C 	0.53100 0.59880 0.50550 -0.04100
C 	C 	0.49150 0.58500 0.55980 -0.00300
H 	H 	0.45620 0.61180 0.56970 0.08100
O 	O 	0.55514 0.33090 0.08408 -0.44200
O 	O 	0.46355 0.31250 0.02963 -0.36900
C 	C 	0.51470 0.34450 0.03810 0.19800
C 	C 	0.53100 0.40120 0.99450 0.15100
C 	C 	0.49150 0.41500 0.94020 -0.11100
H 	H 	0.45620 0.38820 0.93030 0.12800
O 	O 	0.05514 0.83090 0.58408 -0.45100
O 	O 	0.96355 0.81250 0.52963 -0.32200
C 	C 	0.01470 0.84450 0.53810 0.25200
C 	C 	0.03100 0.90120 0.49450 -0.10300
C 	C 	0.99150 0.91500 0.44020 0.15600
H 	H 	0.95620 0.88820 0.43030 0.04000
O 	O 	0.44486 0.83090 0.41592 -0.44800
O 	O 	0.53645 0.81250 0.47037 -0.36400
C 	C 	0.48530 0.84450 0.46190 0.27000
C 	C 	0.46900 0.90120 0.50550 0.03700
C 	C 	0.50850 0.91500 0.55980 -0.08800
H 	H 	0.54380 0.88820 0.56970 0.11200
O 	O 	0.94486 0.33090 0.91592 -0.46500
O 	O 	0.03645 0.31250 0.97037 -0.42300
C 	C 	0.98530 0.34450 0.96190 0.42200
C 	C 	0.96900 0.40120 0.00550 -0.12400
C 	C 	0.00850 0.41500 0.05980 -0.09800
H 	H 	0.04380 0.38820 0.06970 0.09200
O 	O 	0.66910 0.58408 0.94486 -0.44900
O 	O 	0.68750 0.52963 0.03645 -0.41400
C 	C 	0.65550 0.53810 0.98530 0.31600
C 	C 	0.59880 0.49450 0.96900 0.08900
C 	C 	0.58500 0.44020 0.00850 -0.23000
H 	H 	0.61180 0.43030 0.04380 0.14700
O 	O 	0.16910 0.08408 0.44486 -0.45500
O 	O 	0.18750 0.02963 0.53645 -0.37800
C 	C 	0.15550 0.03810 0.48530 0.23000
C 	C 	0.09880 0.99450 0.46900 0.05600
C 	C 	0.08500 0.94020 0.50850 -0.01400
H 	H 	0.11180 0.93030 0.54380 0.09400
O 	O 	0.16910 0.91592 0.05514 -0.48100
O 	O 	0.18750 0.97037 0.96355 -0.34100
C 	C 	0.15550 0.96190 0.01470 0.37600
C 	C 	0.09880 0.00550 0.03100 -0.38700
C 	C 	0.08500 0.05980 0.99150 0.36000
H 	H 	0.11180 0.06970 0.95620 -0.04500
O 	O 	0.66910 0.41592 0.55514 -0.45700
O 	O 	0.68750 0.47037 0.46355 -0.37400
C 	C 	0.65550 0.46190 0.51470 0.29500
C 	C 	0.59880 0.50550 0.53100 -0.04100
C 	C 	0.58500 0.55980 0.49150 -0.00300
H 	H 	0.61180 0.56970 0.45620 0.08100
O 	O 	0.33090 0.08408 0.55514 -0.44200
O 	O 	0.31250 0.02963 0.46355 -0.36900
C 	C 	0.34450 0.03810 0.51470 0.19800
C 	C 	0.40120 0.99450 0.53100 0.15100
C 	C 	0.41500 0.94020 0.49150 -0.11100
H 	H 	0.38820 0.93030 0.45620 0.12800
O 	O 	0.83090 0.58408 0.05514 -0.45100
O 	O 	0.81250 0.52963 0.96355 -0.32200
C 	C 	0.84450 0.53810 0.01470 0.25200
C 	C 	0.90120 0.49450 0.03100 -0.10300
C 	C 	0.91500 0.44020 0.99150 0.15600
H 	H 	0.88820 0.43030 0.95620 0.04000
O 	O 	0.83090 0.41592 0.44486 -0.44800
O 	O 	0.81250 0.47037 0.53645 -0.36400
C 	C 	0.84450 0.46190 0.48530 0.27000
C 	C 	0.90120 0.50550 0.46900 0.03700
C 	C 	0.91500 0.55980 0.50850 -0.08800
H 	H 	0.88820 0.56970 0.54380 0.11200
O 	O 	0.33090 0.91592 0.94486 -0.46500
O 	O 	0.31250 0.97037 0.03645 -0.42300
C 	C 	0.34450 0.96190 0.98530 0.42200
C 	C 	0.40120 0.00550 0.96900 -0.12400
C 	C 	0.41500 0.05980 0.00850 -0.09800
H 	H 	0.38820 0.06970 0.04380 0.09200
In	In	0.75000 0.37500 0.50000 1.99600
In	In	0.75000 0.62500 -0.00000 1.98300
In	In	0.25000 0.87500 -0.00000 1.98300
In	In	0.25000 0.12500 0.50000 1.99500
In	In	0.50000 0.75000 0.37500 1.99600
In	In	0.00000 0.75000 0.62500 1.98300
In	In	-0.00000 0.25000 0.87500 1.98300
In	In	0.50000 0.25000 0.12500 1.99500
In	In	0.37500 0.50000 0.75000 1.99600
In	In	0.62500 0.00000 0.75000 1.98300
In	In	0.87500 0.00000 0.25000 1.98300
In	In	0.12500 0.50000 0.25000 1.99500
