data_crystal

_cell_length_a 14.16130
_cell_length_b 21.61120
_cell_length_c 15.38550
_cell_angle_alpha 90.00000
_cell_angle_beta  114.33900
_cell_angle_gamma 90.00000

_symmetry_space_group_name_	'P 1'
_symmetry_space_group_name_H-M	'P 1'

loop_
_symmetry_equiv_pos_as_xyz
  x,y,z

loop_
_atom_site_label
_atom_site_type_symbol
_atom_site_fract_x
_atom_site_fract_y
_atom_site_fract_z
_atom_site_charge
Fe	Fe	0.42461 0.26480 0.60308 1.17600
O 	O 	0.27670 0.34204 0.95670 -0.20900
O 	O 	0.50410 0.17642 0.32200 -0.20900
N 	N 	0.36235 0.23793 0.77260 -0.17100
H 	H 	0.36930 0.19790 0.77620 0.10400
N 	N 	0.37990 0.27334 0.70939 -0.20700
N 	N 	0.40041 0.35270 0.59997 -0.25300
N 	N 	0.45707 0.28944 0.49630 -0.21100
N 	N 	0.48587 0.26079 0.43342 -0.17500
H 	H 	0.49630 0.22110 0.43310 0.13000
N 	N 	0.64639 0.30726 0.73138 -0.15900
H 	H 	0.63550 0.34690 0.73080 0.10100
N 	N 	0.57285 0.26497 0.68834 -0.20700
N 	N 	0.45596 0.17765 0.60698 -0.25400
N 	N 	0.28810 0.23125 0.51786 -0.20600
N 	N 	0.19169 0.25247 0.47045 -0.15800
H 	H 	0.17410 0.29130 0.46520 0.10100
C 	C 	0.24900 0.38050 0.01880 -0.14000
H 	H 	0.22460 0.42020 0.98860 0.07300
H 	H 	0.30920 0.38660 0.07840 0.07200
H 	H 	0.19460 0.36050 0.03140 0.07400
C 	C 	0.28100 0.27990 0.96950 0.20800
C 	C 	0.25800 0.25090 0.03920 -0.21000
H 	H 	0.24090 0.27480 0.08180 0.10800
C 	C 	0.26020 0.18820 0.04610 0.10600
H 	H 	0.24460 0.16930 0.09360 -0.00400
C 	C 	0.28460 0.15200 0.98510 -0.15700
H 	H 	0.28470 0.10860 0.98940 0.07800
C 	C 	0.30950 0.18120 0.91640 0.06600
H 	H 	0.32810 0.15670 0.87550 0.00300
C 	C 	0.30790 0.24460 0.90610 -0.13300
C 	C 	0.33170 0.27335 0.83160 0.15300
C 	C 	0.33110 0.33372 0.80390 -0.15800
H 	H 	0.31460 0.36890 0.83080 0.09900
C 	C 	0.36000 0.33215 0.72700 0.05500
C 	C 	0.37180 0.37848 0.66460 0.04600
C 	C 	0.35600 0.44185 0.66490 -0.11000
H 	H 	0.33580 0.46010 0.71010 0.06200
C 	C 	0.37090 0.47776 0.59600 0.02600
H 	H 	0.36070 0.52080 0.59490 0.01300
C 	C 	0.40000 0.45133 0.53030 -0.11000
H 	H 	0.40880 0.47550 0.48340 0.06200
C 	C 	0.41630 0.38784 0.53450 0.04200
C 	C 	0.44890 0.34940 0.47357 0.06400
C 	C 	0.47360 0.35872 0.39510 -0.16600
H 	H 	0.47430 0.39660 0.36530 0.08200
C 	C 	0.49670 0.30108 0.37072 0.15400
C 	C 	0.52500 0.28064 0.29310 -0.13100
C 	C 	0.54960 0.32670 0.24110 0.05000
H 	H 	0.54810 0.36860 0.25690 0.00800
C 	C 	0.57600 0.31040 0.16620 -0.13500
H 	H 	0.59290 0.34120 0.13180 0.07600
C 	C 	0.57700 0.24870 0.14320 0.08800
H 	H 	0.59340 0.23750 0.09200 0.00300
C 	C 	0.55410 0.20330 0.19480 -0.19900
H 	H 	0.55620 0.16130 0.17960 0.10000
C 	C 	0.52820 0.21984 0.26860 0.20400
C 	C 	0.50080 0.11300 0.29410 -0.14300
H 	H 	0.47490 0.08770 0.33160 0.07400
H 	H 	0.56990 0.09940 0.30460 0.07600
H 	H 	0.45520 0.10890 0.22700 0.07000
C 	C 	0.73980 0.28000 0.77570 0.08500
H 	H 	0.80270 0.30040 0.81080 0.01000
C 	C 	0.72740 0.21850 0.76120 -0.12700
H 	H 	0.77900 0.18790 0.78370 0.07600
C 	C 	0.62110 0.20991 0.70524 0.04700
C 	C 	0.55410 0.15854 0.65810 0.04900
C 	C 	0.58120 0.09726 0.65750 -0.11400
H 	H 	0.64970 0.08400 0.69290 0.06100
C 	C 	0.50490 0.05557 0.60350 0.02900
H 	H 	0.52190 0.01360 0.60230 0.01100
C 	C 	0.40440 0.07521 0.55160 -0.11300
H 	H 	0.35280 0.04720 0.51440 0.06100
C 	C 	0.38140 0.13757 0.55577 0.05100
C 	C 	0.28240 0.16915 0.50810 0.04600
C 	C 	0.17970 0.15127 0.45440 -0.12200
H 	H 	0.15390 0.11090 0.43750 0.06800
C 	C 	0.12560 0.20510 0.43200 0.07800
H 	H 	0.05380 0.20880 0.39560 0.00900
Fe	Fe	0.07539 0.76480 0.89692 1.17700
O 	O 	0.22330 0.84204 0.54330 -0.20800
O 	O 	0.99590 0.67642 0.17800 -0.20700
N 	N 	0.13765 0.73793 0.72740 -0.17000
H 	H 	0.13070 0.69790 0.72380 0.10400
N 	N 	0.12010 0.77334 0.79061 -0.20600
N 	N 	0.09959 0.85270 0.90003 -0.25300
N 	N 	0.04293 0.78944 0.00370 -0.21100
N 	N 	0.01413 0.76079 0.06658 -0.17500
H 	H 	0.00370 0.72110 0.06690 0.13000
N 	N 	0.85361 0.80726 0.76862 -0.15900
H 	H 	0.86450 0.84690 0.76920 0.10200
N 	N 	0.92715 0.76497 0.81166 -0.20700
N 	N 	0.04404 0.67765 0.89302 -0.25500
N 	N 	0.21190 0.73125 0.98214 -0.20700
N 	N 	0.30831 0.75247 0.02955 -0.15800
H 	H 	0.32590 0.79130 0.03480 0.10100
C 	C 	0.25100 0.88050 0.48120 -0.14200
H 	H 	0.27540 0.92020 0.51140 0.07300
H 	H 	0.19080 0.88660 0.42160 0.07200
H 	H 	0.30540 0.86050 0.46860 0.07500
C 	C 	0.21900 0.77990 0.53050 0.20800
C 	C 	0.24200 0.75090 0.46080 -0.21000
H 	H 	0.25910 0.77480 0.41820 0.10800
C 	C 	0.23980 0.68820 0.45390 0.10600
H 	H 	0.25540 0.66930 0.40640 -0.00400
C 	C 	0.21540 0.65200 0.51490 -0.15700
H 	H 	0.21530 0.60860 0.51060 0.07800
C 	C 	0.19050 0.68120 0.58360 0.06600
H 	H 	0.17190 0.65670 0.62450 0.00200
C 	C 	0.19210 0.74460 0.59390 -0.13400
C 	C 	0.16830 0.77335 0.66840 0.15300
C 	C 	0.16890 0.83372 0.69610 -0.15800
H 	H 	0.18540 0.86890 0.66920 0.09900
C 	C 	0.14000 0.83215 0.77300 0.05500
C 	C 	0.12820 0.87848 0.83540 0.04600
C 	C 	0.14400 0.94185 0.83510 -0.10900
H 	H 	0.16420 0.96010 0.78990 0.06200
C 	C 	0.12910 0.97776 0.90400 0.02400
H 	H 	0.13930 0.02080 0.90510 0.01500
C 	C 	0.10000 0.95133 0.96970 -0.11100
H 	H 	0.09120 0.97550 0.01660 0.06300
C 	C 	0.08370 0.88784 0.96550 0.04100
C 	C 	0.05110 0.84940 0.02643 0.06500
C 	C 	0.02640 0.85872 0.10490 -0.16700
H 	H 	0.02570 0.89660 0.13470 0.08300
C 	C 	0.00330 0.80108 0.12928 0.15400
C 	C 	0.97500 0.78064 0.20690 -0.13100
C 	C 	0.95040 0.82670 0.25890 0.05000
H 	H 	0.95190 0.86860 0.24310 0.00900
C 	C 	0.92400 0.81040 0.33380 -0.13500
H 	H 	0.90710 0.84120 0.36820 0.07700
C 	C 	0.92300 0.74870 0.35680 0.08800
H 	H 	0.90660 0.73750 0.40800 0.00300
C 	C 	0.94590 0.70330 0.30520 -0.19900
H 	H 	0.94380 0.66130 0.32040 0.10000
C 	C 	0.97180 0.71984 0.23140 0.20400
C 	C 	0.99920 0.61300 0.20590 -0.14500
H 	H 	0.02510 0.58770 0.16840 0.07500
H 	H 	0.93010 0.59940 0.19540 0.07600
H 	H 	0.04480 0.60890 0.27300 0.07100
C 	C 	0.76020 0.78000 0.72430 0.08500
H 	H 	0.69730 0.80040 0.68920 0.01000
C 	C 	0.77260 0.71850 0.73880 -0.12700
H 	H 	0.72100 0.68790 0.71630 0.07500
C 	C 	0.87890 0.70991 0.79476 0.04600
C 	C 	0.94590 0.65854 0.84190 0.05000
C 	C 	0.91880 0.59726 0.84250 -0.11600
H 	H 	0.85030 0.58400 0.80710 0.06200
C 	C 	0.99510 0.55557 0.89650 0.03100
H 	H 	0.97810 0.51360 0.89770 0.01000
C 	C 	0.09560 0.57521 0.94840 -0.11500
H 	H 	0.14720 0.54720 0.98560 0.06200
C 	C 	0.11860 0.63757 0.94423 0.05200
C 	C 	0.21760 0.66915 0.99190 0.04500
C 	C 	0.32030 0.65127 0.04560 -0.12100
H 	H 	0.34610 0.61090 0.06250 0.06700
C 	C 	0.37440 0.70510 0.06800 0.07800
H 	H 	0.44620 0.70880 0.10440 0.00900
Fe	Fe	0.57539 0.73520 0.39692 1.17700
O 	O 	0.72330 0.65796 0.04330 -0.20800
O 	O 	0.49590 0.82358 0.67800 -0.20800
N 	N 	0.63765 0.76207 0.22740 -0.17000
H 	H 	0.63070 0.80210 0.22380 0.10500
N 	N 	0.62010 0.72666 0.29061 -0.20600
N 	N 	0.59959 0.64730 0.40003 -0.25300
N 	N 	0.54293 0.71056 0.50370 -0.21100
N 	N 	0.51413 0.73921 0.56658 -0.17500
H 	H 	0.50370 0.77890 0.56690 0.13000
N 	N 	0.35361 0.69274 0.26862 -0.15900
H 	H 	0.36450 0.65310 0.26920 0.10100
N 	N 	0.42715 0.73503 0.31166 -0.20700
N 	N 	0.54404 0.82235 0.39302 -0.25400
N 	N 	0.71190 0.76875 0.48214 -0.20600
N 	N 	0.80831 0.74753 0.52955 -0.15800
H 	H 	0.82590 0.70870 0.53480 0.10100
C 	C 	0.75100 0.61950 0.98120 -0.14000
H 	H 	0.77540 0.57980 0.01140 0.07300
H 	H 	0.69080 0.61340 0.92160 0.07200
H 	H 	0.80540 0.63950 0.96860 0.07400
C 	C 	0.71900 0.72010 0.03050 0.20800
C 	C 	0.74200 0.74910 0.96080 -0.21000
H 	H 	0.75910 0.72520 0.91820 0.10800
C 	C 	0.73980 0.81180 0.95390 0.10600
H 	H 	0.75540 0.83070 0.90640 -0.00400
C 	C 	0.71540 0.84800 0.01490 -0.15700
H 	H 	0.71530 0.89140 0.01060 0.07800
C 	C 	0.69050 0.81880 0.08360 0.06600
H 	H 	0.67190 0.84330 0.12450 0.00300
C 	C 	0.69210 0.75540 0.09390 -0.13300
C 	C 	0.66830 0.72665 0.16840 0.15300
C 	C 	0.66890 0.66628 0.19610 -0.15800
H 	H 	0.68540 0.63110 0.16920 0.09900
C 	C 	0.64000 0.66785 0.27300 0.05500
C 	C 	0.62820 0.62152 0.33540 0.04600
C 	C 	0.64400 0.55815 0.33510 -0.11000
H 	H 	0.66420 0.53990 0.28990 0.06200
C 	C 	0.62910 0.52224 0.40400 0.02600
H 	H 	0.63930 0.47920 0.40510 0.01300
C 	C 	0.60000 0.54867 0.46970 -0.11000
H 	H 	0.59120 0.52450 0.51660 0.06200
C 	C 	0.58370 0.61216 0.46550 0.04200
C 	C 	0.55110 0.65060 0.52643 0.06400
C 	C 	0.52640 0.64128 0.60490 -0.16600
H 	H 	0.52570 0.60340 0.63470 0.08200
C 	C 	0.50330 0.69892 0.62928 0.15400
C 	C 	0.47500 0.71936 0.70690 -0.13100
C 	C 	0.45040 0.67330 0.75890 0.05000
H 	H 	0.45190 0.63140 0.74310 0.00800
C 	C 	0.42400 0.68960 0.83380 -0.13500
H 	H 	0.40710 0.65880 0.86820 0.07600
C 	C 	0.42300 0.75130 0.85680 0.08800
H 	H 	0.40660 0.76250 0.90800 0.00300
C 	C 	0.44590 0.79670 0.80520 -0.19900
H 	H 	0.44380 0.83870 0.82040 0.10000
C 	C 	0.47180 0.78016 0.73140 0.20400
C 	C 	0.49920 0.88700 0.70590 -0.14300
H 	H 	0.52510 0.91230 0.66840 0.07400
H 	H 	0.43010 0.90060 0.69540 0.07600
H 	H 	0.54480 0.89110 0.77300 0.07000
C 	C 	0.26020 0.72000 0.22430 0.08500
H 	H 	0.19730 0.69960 0.18920 0.01000
C 	C 	0.27260 0.78150 0.23880 -0.12700
H 	H 	0.22100 0.81210 0.21630 0.07600
C 	C 	0.37890 0.79009 0.29476 0.04700
C 	C 	0.44590 0.84146 0.34190 0.04900
C 	C 	0.41880 0.90274 0.34250 -0.11400
H 	H 	0.35030 0.91600 0.30710 0.06100
C 	C 	0.49510 0.94443 0.39650 0.02900
H 	H 	0.47810 0.98640 0.39770 0.01100
C 	C 	0.59560 0.92479 0.44840 -0.11300
H 	H 	0.64720 0.95280 0.48560 0.06100
C 	C 	0.61860 0.86243 0.44423 0.05100
C 	C 	0.71760 0.83085 0.49190 0.04600
C 	C 	0.82030 0.84873 0.54560 -0.12200
H 	H 	0.84610 0.88910 0.56250 0.06800
C 	C 	0.87440 0.79490 0.56800 0.07800
H 	H 	0.94620 0.79120 0.60440 0.00900
Fe	Fe	0.92461 0.23520 0.10308 1.17700
O 	O 	0.77670 0.15796 0.45670 -0.20800
O 	O 	0.00410 0.32358 0.82200 -0.20700
N 	N 	0.86235 0.26207 0.27260 -0.17000
H 	H 	0.86930 0.30210 0.27620 0.10400
N 	N 	0.87990 0.22666 0.20939 -0.20600
N 	N 	0.90041 0.14730 0.09997 -0.25300
N 	N 	0.95707 0.21056 0.99630 -0.21100
N 	N 	0.98587 0.23921 0.93342 -0.17500
H 	H 	0.99630 0.27890 0.93310 0.13000
N 	N 	0.14639 0.19274 0.23138 -0.15900
H 	H 	0.13550 0.15310 0.23080 0.10200
N 	N 	0.07285 0.23503 0.18834 -0.20700
N 	N 	0.95596 0.32235 0.10698 -0.25500
N 	N 	0.78810 0.26875 0.01786 -0.20700
N 	N 	0.69169 0.24753 0.97045 -0.15800
H 	H 	0.67410 0.20870 0.96520 0.10100
C 	C 	0.74900 0.11950 0.51880 -0.14200
H 	H 	0.72460 0.07980 0.48860 0.07300
H 	H 	0.80920 0.11340 0.57840 0.07200
H 	H 	0.69460 0.13950 0.53140 0.07500
C 	C 	0.78100 0.22010 0.46950 0.20800
C 	C 	0.75800 0.24910 0.53920 -0.21000
H 	H 	0.74090 0.22520 0.58180 0.10800
C 	C 	0.76020 0.31180 0.54610 0.10600
H 	H 	0.74460 0.33070 0.59360 -0.00400
C 	C 	0.78460 0.34800 0.48510 -0.15700
H 	H 	0.78470 0.39140 0.48940 0.07800
C 	C 	0.80950 0.31880 0.41640 0.06600
H 	H 	0.82810 0.34330 0.37550 0.00200
C 	C 	0.80790 0.25540 0.40610 -0.13400
C 	C 	0.83170 0.22665 0.33160 0.15300
C 	C 	0.83110 0.16628 0.30390 -0.15800
H 	H 	0.81460 0.13110 0.33080 0.09900
C 	C 	0.86000 0.16785 0.22700 0.05500
C 	C 	0.87180 0.12152 0.16460 0.04600
C 	C 	0.85600 0.05815 0.16490 -0.10900
H 	H 	0.83580 0.03990 0.21010 0.06200
C 	C 	0.87090 0.02224 0.09600 0.02400
H 	H 	0.86070 0.97920 0.09490 0.01500
C 	C 	0.90000 0.04867 0.03030 -0.11100
H 	H 	0.90880 0.02450 0.98340 0.06300
C 	C 	0.91630 0.11216 0.03450 0.04100
C 	C 	0.94890 0.15060 0.97357 0.06500
C 	C 	0.97360 0.14128 0.89510 -0.16700
H 	H 	0.97430 0.10340 0.86530 0.08300
C 	C 	0.99670 0.19892 0.87072 0.15400
C 	C 	0.02500 0.21936 0.79310 -0.13100
C 	C 	0.04960 0.17330 0.74110 0.05000
H 	H 	0.04810 0.13140 0.75690 0.00900
C 	C 	0.07600 0.18960 0.66620 -0.13500
H 	H 	0.09290 0.15880 0.63180 0.07700
C 	C 	0.07700 0.25130 0.64320 0.08800
H 	H 	0.09340 0.26250 0.59200 0.00300
C 	C 	0.05410 0.29670 0.69480 -0.19900
H 	H 	0.05620 0.33870 0.67960 0.10000
C 	C 	0.02820 0.28016 0.76860 0.20400
C 	C 	0.00080 0.38700 0.79410 -0.14500
H 	H 	0.97490 0.41230 0.83160 0.07500
H 	H 	0.06990 0.40060 0.80460 0.07600
H 	H 	0.95520 0.39110 0.72700 0.07100
C 	C 	0.23980 0.22000 0.27570 0.08500
H 	H 	0.30270 0.19960 0.31080 0.01000
C 	C 	0.22740 0.28150 0.26120 -0.12700
H 	H 	0.27900 0.31210 0.28370 0.07500
C 	C 	0.12110 0.29009 0.20524 0.04600
C 	C 	0.05410 0.34146 0.15810 0.05000
C 	C 	0.08120 0.40274 0.15750 -0.11600
H 	H 	0.14970 0.41600 0.19290 0.06200
C 	C 	0.00490 0.44443 0.10350 0.03100
H 	H 	0.02190 0.48640 0.10230 0.01000
C 	C 	0.90440 0.42479 0.05160 -0.11500
H 	H 	0.85280 0.45280 0.01440 0.06200
C 	C 	0.88140 0.36243 0.05577 0.05200
C 	C 	0.78240 0.33085 0.00810 0.04500
C 	C 	0.67970 0.34873 0.95440 -0.12100
H 	H 	0.65390 0.38910 0.93750 0.06700
C 	C 	0.62560 0.29490 0.93200 0.07800
H 	H 	0.55380 0.29120 0.89560 0.00900
