data_crystal

_cell_length_a 13.59300
_cell_length_b 17.19400
_cell_length_c 18.45000
_cell_angle_alpha 99.31900
_cell_angle_beta  100.07600
_cell_angle_gamma 107.84200

_symmetry_space_group_name_	'P 1'
_symmetry_space_group_name_H-M	'P 1'

loop_
_symmetry_equiv_pos_as_xyz
  x,y,z

loop_
_atom_site_label
_atom_site_type_symbol
_atom_site_fract_x
_atom_site_fract_y
_atom_site_fract_z
_atom_site_charge
N 	N 	0.90000 0.88090 0.00230 -0.26300
C 	C 	0.82770 0.82080 0.99770 0.13100
N 	N 	0.89790 0.05600 0.05580 -0.24400
N 	N 	0.10960 0.44520 0.44450 -0.16000
S 	S 	0.71710 0.74740 0.98980 -0.04300
N 	N 	0.89050 0.99250 0.88960 -0.21900
C 	C 	0.87300 0.12390 0.03640 0.06400
H 	H 	0.89810 0.14600 0.99640 0.02300
C 	C 	0.81710 0.15730 0.07120 -0.18500
H 	H 	0.81110 0.20850 0.06180 0.09200
C 	C 	0.85610 0.03070 0.10760 0.11000
H 	H 	0.87220 0.98600 0.12510 0.00100
C 	C 	0.79120 0.06180 0.13970 -0.21300
H 	H 	0.76230 0.03800 0.17760 0.10000
C 	C 	0.76730 0.12310 0.12010 0.15500
C 	C 	0.70090 0.16410 0.15940 -0.07100
C 	C 	0.64260 0.18890 0.18550 0.00800
C 	C 	0.57440 0.22360 0.22190 0.01800
C 	C 	0.57170 0.21910 0.29620 -0.05700
H 	H 	0.61580 0.19470 0.32310 0.05300
C 	C 	0.50440 0.25040 0.33090 -0.04700
H 	H 	0.50260 0.24740 0.38160 0.04800
C 	C 	0.43990 0.28620 0.29140 0.00700
C 	C 	0.44260 0.29070 0.21720 -0.04800
H 	H 	0.39840 0.31520 0.19020 0.04700
C 	C 	0.50980 0.25940 0.18250 -0.05800
H 	H 	0.51170 0.26240 0.13170 0.05000
C 	C 	0.37400 0.32310 0.32910 0.02300
C 	C 	0.32170 0.34420 0.35310 -0.08000
C 	C 	0.23840 0.37880 0.38450 0.14900
C 	C 	0.19220 0.34260 0.44190 -0.16100
H 	H 	0.21240 0.30010 0.46080 0.08100
C 	C 	0.11730 0.37200 0.46860 0.07300
H 	H 	0.07530 0.34580 0.49980 0.00100
C 	C 	0.15510 0.47550 0.39970 0.16600
H 	H 	0.14420 0.52320 0.38500 -0.02700
C 	C 	0.22090 0.44200 0.37040 -0.24300
H 	H 	0.25650 0.46870 0.33630 0.10800
C 	C 	0.79780 0.93950 0.86680 0.15300
H 	H 	0.77680 0.89880 0.89550 -0.02400
C 	C 	0.72570 0.93620 0.80450 -0.21400
H 	H 	0.65430 0.89900 0.79420 0.11200
C 	C 	0.75570 0.98540 0.75790 0.15900
C 	C 	0.85780 0.04780 0.78130 -0.18100
H 	H 	0.87840 0.08680 0.75100 0.09600
C 	C 	0.92650 0.05330 0.84550 0.06400
H 	H 	0.99540 0.09510 0.86120 0.01700
C 	C 	0.68430 0.98650 0.69150 -0.05400
C 	C 	0.62730 0.99860 0.64190 -0.00600
C 	C 	0.56160 0.99620 0.56800 0.08600
C 	C 	0.47390 0.93190 0.53480 -0.10900
H 	H 	0.45220 0.88530 0.55710 0.06700
C 	C 	0.41050 0.93410 0.46250 0.01200
H 	H 	0.34940 0.88690 0.43630 0.02900
N 	N 	0.10000 0.11910 0.99770 -0.24000
C 	C 	0.17230 0.17920 0.00230 0.05100
N 	N 	0.10210 0.94400 0.94420 -0.30200
N 	N 	0.89040 0.55480 0.55550 -0.14400
S 	S 	0.28290 0.25260 0.01020 -0.08100
N 	N 	0.10950 0.00750 0.11040 -0.26100
C 	C 	0.12700 0.87610 0.96360 0.25900
H 	H 	0.10190 0.85400 0.00360 -0.09000
C 	C 	0.18290 0.84270 0.92880 -0.36800
H 	H 	0.18890 0.79150 0.93820 0.15700
C 	C 	0.14390 0.96930 0.89240 0.28300
H 	H 	0.12780 0.01400 0.87490 -0.09800
C 	C 	0.20880 0.93820 0.86030 -0.38200
H 	H 	0.23770 0.96200 0.82240 0.16300
C 	C 	0.23270 0.87690 0.87990 0.30600
C 	C 	0.29910 0.83590 0.84060 -0.13300
C 	C 	0.35740 0.81110 0.81450 0.05200
C 	C 	0.42560 0.77640 0.77810 -0.00800
C 	C 	0.42830 0.78090 0.70380 -0.04000
H 	H 	0.38420 0.80530 0.67690 0.04300
C 	C 	0.49560 0.74960 0.66910 -0.06200
H 	H 	0.49740 0.75260 0.61840 0.05300
C 	C 	0.56010 0.71380 0.70860 0.02000
C 	C 	0.55740 0.70930 0.78280 -0.06200
H 	H 	0.60160 0.68480 0.80980 0.05700
C 	C 	0.49020 0.74060 0.81750 -0.03900
H 	H 	0.48830 0.73760 0.86830 0.05000
C 	C 	0.62600 0.67690 0.67090 0.01800
C 	C 	0.67830 0.65580 0.64690 -0.06700
C 	C 	0.76160 0.62120 0.61550 0.15400
C 	C 	0.80780 0.65740 0.55810 -0.15400
H 	H 	0.78760 0.69990 0.53920 0.09000
C 	C 	0.88270 0.62800 0.53140 0.08400
H 	H 	0.92470 0.65420 0.50020 0.02200
C 	C 	0.84490 0.52450 0.60030 0.17200
H 	H 	0.85580 0.47680 0.61500 -0.01200
C 	C 	0.77910 0.55800 0.62960 -0.23700
H 	H 	0.74350 0.53130 0.66370 0.11400
C 	C 	0.20220 0.06050 0.13320 0.12400
H 	H 	0.22320 0.10120 0.10450 -0.03200
C 	C 	0.27430 0.06380 0.19550 -0.19600
H 	H 	0.34570 0.10100 0.20580 0.10000
C 	C 	0.24430 0.01460 0.24210 0.10100
C 	C 	0.14220 0.95220 0.21870 -0.12800
H 	H 	0.12160 0.91320 0.24900 0.07200
C 	C 	0.07350 0.94670 0.15450 0.06800
H 	H 	0.00460 0.90490 0.13880 -0.01800
C 	C 	0.31570 0.01350 0.30850 -0.07300
C 	C 	0.37270 0.00140 0.35810 0.00900
C 	C 	0.43840 0.00380 0.43200 -0.03800
C 	C 	0.52610 0.06810 0.46520 -0.00900
H 	H 	0.54780 0.11470 0.44290 0.03400
C 	C 	0.58950 0.06590 0.53750 -0.12300
H 	H 	0.65060 0.11310 0.56370 0.07200
Co	Co	-0.00000 0.00000 -0.00000 1.07300
