data_crystal

_cell_length_a 8.51700
_cell_length_b 10.33410
_cell_length_c 18.23920
_cell_angle_alpha 104.78200
_cell_angle_beta  91.18700
_cell_angle_gamma 110.47900

_symmetry_space_group_name_	'P 1'
_symmetry_space_group_name_H-M	'P 1'

loop_
_symmetry_equiv_pos_as_xyz
  x,y,z

loop_
_atom_site_label
_atom_site_type_symbol
_atom_site_fract_x
_atom_site_fract_y
_atom_site_fract_z
_atom_site_charge
Zn	Zn	0.67065 0.81002 0.21816 1.23200
Zn	Zn	0.96237 0.13835 0.30935 1.23000
O 	O 	0.52460 0.60787 0.17217 -0.40600
O 	O 	0.09590 0.34770 0.35855 -0.41000
O 	O 	0.85910 0.42920 0.42017 -0.46200
H 	H 	0.94870 0.41950 0.40640 0.29400
O 	O 	0.64500 0.86010 0.32596 -0.48200
O 	O 	0.74350 0.14270 0.26767 -0.46700
O 	O 	0.74060 0.60590 0.24138 -0.30700
O 	O 	0.86570 0.85420 0.16052 -0.47900
O 	O 	0.23940 0.20713 0.35696 -0.34000
O 	O 	0.56660 0.93720 0.18729 -0.45300
O 	O 	0.86530 0.05430 0.39052 -0.47100
O 	O 	0.03140 0.08560 0.20708 -0.46400
O 	O 	0.99050 0.65330 0.41258 -0.25500
C 	C 	0.60300 0.54180 0.20051 0.29400
C 	C 	0.52070 0.38080 0.18078 -0.05200
C 	C 	0.23600 0.33000 0.37129 0.29500
C 	C 	0.52800 0.72020 0.44790 0.01900
C 	C 	0.71810 0.96320 0.38374 0.40300
C 	C 	0.52840 0.15400 0.18954 -0.08400
C 	C 	0.59950 0.30350 0.20978 0.01600
H 	H 	0.70190 0.35300 0.24340 0.06000
C 	C 	0.86270 0.55730 0.41848 0.36500
C 	C 	0.51340 0.86350 0.47338 0.05000
C 	C 	0.37680 0.08160 0.14129 -0.00700
H 	H 	0.32800 0.97950 0.12790 0.05800
C 	C 	0.14010 0.07930 0.05699 0.04700
C 	C 	0.14550 0.09340 0.98293 -0.03400
H 	H 	0.24530 0.15800 0.97090 0.05400
C 	C 	0.38240 0.59700 0.42513 -0.03300
H 	H 	0.27490 0.60560 0.42640 0.08100
C 	C 	0.61970 0.07150 0.21734 0.39000
C 	C 	0.54840 0.44690 0.40019 0.01200
H 	H 	0.55540 0.35420 0.38500 0.06500
C 	C 	0.96220 0.97330 0.15374 0.39100
C 	C 	0.36930 0.30780 0.13237 -0.02700
H 	H 	0.31560 0.36060 0.11270 0.06700
C 	C 	0.61410 0.98100 0.44853 -0.08200
C 	C 	0.68500 0.70590 0.44576 -0.01900
H 	H 	0.78560 0.78910 0.46030 0.06800
C 	C 	0.39210 0.46100 0.40043 -0.04900
C 	C 	0.99120 0.98440 0.07395 -0.09100
C 	C 	0.29610 0.15800 0.11255 0.00800
C 	C 	0.69470 0.56990 0.42237 -0.06700
C 	C 	0.39910 0.88470 0.52445 -0.03000
H 	H 	0.32900 0.80620 0.54110 0.07200
Zn	Zn	0.32935 0.18998 0.78184 1.23200
Zn	Zn	0.03763 0.86165 0.69065 1.23000
O 	O 	0.47540 0.39213 0.82783 -0.40600
O 	O 	0.90410 0.65230 0.64145 -0.41000
O 	O 	0.14090 0.57080 0.57983 -0.46200
H 	H 	0.05130 0.58050 0.59360 0.29400
O 	O 	0.35500 0.13990 0.67404 -0.48200
O 	O 	0.25650 0.85730 0.73233 -0.46700
O 	O 	0.25940 0.39410 0.75862 -0.30700
O 	O 	0.13430 0.14580 0.83948 -0.47900
O 	O 	0.76060 0.79287 0.64304 -0.34000
O 	O 	0.43340 0.06280 0.81271 -0.45300
O 	O 	0.13470 0.94570 0.60948 -0.47100
O 	O 	0.96860 0.91440 0.79292 -0.46400
O 	O 	0.00950 0.34670 0.58742 -0.25500
C 	C 	0.39700 0.45820 0.79949 0.29400
C 	C 	0.47930 0.61920 0.81922 -0.05200
C 	C 	0.76400 0.67000 0.62871 0.29500
C 	C 	0.47200 0.27980 0.55210 0.01900
C 	C 	0.28190 0.03680 0.61626 0.40300
C 	C 	0.47160 0.84600 0.81046 -0.08400
C 	C 	0.40050 0.69650 0.79022 0.01600
H 	H 	0.29810 0.64700 0.75660 0.06000
C 	C 	0.13730 0.44270 0.58152 0.36500
C 	C 	0.48660 0.13650 0.52662 0.05000
C 	C 	0.62320 0.91840 0.85871 -0.00700
H 	H 	0.67200 0.02050 0.87210 0.05800
C 	C 	0.85990 0.92070 0.94301 0.04700
C 	C 	0.85450 0.90660 0.01707 -0.03400
H 	H 	0.75470 0.84200 0.02910 0.05400
C 	C 	0.61760 0.40300 0.57487 -0.03300
H 	H 	0.72510 0.39440 0.57360 0.08100
C 	C 	0.38030 0.92850 0.78266 0.39000
C 	C 	0.45160 0.55310 0.59981 0.01200
H 	H 	0.44460 0.64580 0.61500 0.06500
C 	C 	0.03780 0.02670 0.84626 0.39100
C 	C 	0.63070 0.69220 0.86763 -0.02700
H 	H 	0.68440 0.63940 0.88730 0.06700
C 	C 	0.38590 0.01900 0.55147 -0.08200
C 	C 	0.31500 0.29410 0.55424 -0.01900
H 	H 	0.21440 0.21090 0.53970 0.06800
C 	C 	0.60790 0.53900 0.59957 -0.04900
C 	C 	0.00880 0.01560 0.92605 -0.09100
C 	C 	0.70390 0.84200 0.88745 0.00800
C 	C 	0.30530 0.43010 0.57763 -0.06700
C 	C 	0.60090 0.11530 0.47555 -0.03000
H 	H 	0.67100 0.19380 0.45890 0.07200
