data_crystal

_cell_length_a 11.66920
_cell_length_b 12.23650
_cell_length_c 13.65860
_cell_angle_alpha 65.22900
_cell_angle_beta  67.51800
_cell_angle_gamma 88.43500

_symmetry_space_group_name_	'P 1'
_symmetry_space_group_name_H-M	'P 1'

loop_
_symmetry_equiv_pos_as_xyz
  x,y,z

loop_
_atom_site_label
_atom_site_type_symbol
_atom_site_fract_x
_atom_site_fract_y
_atom_site_fract_z
_atom_site_charge
Eu	Eu	0.43318 0.33010 0.32575 1.98200
O 	O 	0.47680 0.53120 0.30920 -0.61000
O 	O 	0.53740 0.68900 0.32030 -0.45600
O 	O 	0.43450 0.65590 0.55690 -0.59200
O 	O 	0.48260 0.83150 0.55100 -0.43600
O 	O 	0.49730 0.80020 0.77910 -0.40400
O 	O 	0.55500 0.62900 0.87160 -0.41000
O 	O 	0.14200 0.16570 0.31910 -0.29900
O 	O 	0.26550 0.17310 0.40490 -0.45600
O 	O 	0.26680 0.44230 0.29420 -0.48700
O 	O 	0.08270 0.36710 0.31290 -0.53700
H 	H 	0.12250 0.31530 0.29860 0.33500
O 	O 	0.71660 0.54840 0.42300 -0.52300
O 	O 	0.71070 0.69180 0.48160 -0.48700
C 	C 	0.50910 0.64360 0.26450 0.43000
C 	C 	0.50750 0.72650 0.14730 -0.13500
C 	C 	0.50390 0.85200 0.11840 -0.00200
H 	H 	0.50160 0.87900 0.17330 0.04900
C 	C 	0.50350 0.93530 0.01280 -0.00000
C 	C 	0.50960 0.89130 0.93240 -0.02100
H 	H 	0.51220 0.94560 0.85910 0.05800
C 	C 	0.51190 0.76780 0.95790 -0.08300
C 	C 	0.52070 0.72910 0.86550 0.31400
C 	C 	0.51050 0.68500 0.06630 0.05900
H 	H 	0.51150 0.60300 0.08410 0.00700
C 	C 	0.42400 0.76880 0.52810 0.41100
C 	C 	0.33560 0.82190 0.47080 -0.12200
C 	C 	0.31800 0.94180 0.44290 0.05800
H 	H 	0.36470 0.99100 0.45550 0.04300
C 	C 	0.23080 0.98870 0.39620 -0.10400
C 	C 	0.21130 0.11900 0.37120 0.39700
C 	C 	0.16190 0.91660 0.37660 -0.00600
H 	H 	0.10260 0.94850 0.34680 0.05600
C 	C 	0.17970 0.79750 0.40060 0.00100
C 	C 	0.26570 0.75000 0.45010 0.01500
H 	H 	0.27640 0.66910 0.46950 0.02700
C 	C 	0.10600 0.71670 0.38180 -0.01500
C 	C 	0.97770 0.71800 0.40670 0.01700
H 	H 	0.93750 0.77470 0.43080 0.04900
C 	C 	0.91040 0.63560 0.39590 -0.13900
C 	C 	0.76880 0.62690 0.43590 0.45700
C 	C 	0.96830 0.55010 0.35940 0.08100
H 	H 	0.92260 0.49600 0.35100 0.03800
C 	C 	0.09430 0.54600 0.33580 -0.14900
C 	C 	0.15590 0.44610 0.31100 0.48800
C 	C 	0.16380 0.62970 0.34540 0.02300
H 	H 	0.24890 0.62790 0.32750 0.02900
Eu	Eu	0.56682 0.66990 0.67425 1.98300
O 	O 	0.52320 0.46880 0.69080 -0.60900
O 	O 	0.46260 0.31100 0.67970 -0.45500
O 	O 	0.56550 0.34410 0.44310 -0.59100
O 	O 	0.51740 0.16850 0.44900 -0.43500
O 	O 	0.50270 0.19980 0.22090 -0.40400
O 	O 	0.44500 0.37100 0.12840 -0.41000
O 	O 	0.85800 0.83430 0.68090 -0.29900
O 	O 	0.73450 0.82690 0.59510 -0.45600
O 	O 	0.73320 0.55770 0.70580 -0.48700
O 	O 	0.91730 0.63290 0.68710 -0.53700
H 	H 	0.87750 0.68470 0.70140 0.33500
O 	O 	0.28340 0.45160 0.57700 -0.52300
O 	O 	0.28930 0.30820 0.51840 -0.48700
C 	C 	0.49090 0.35640 0.73550 0.43000
C 	C 	0.49250 0.27350 0.85270 -0.13500
C 	C 	0.49610 0.14800 0.88160 -0.00200
H 	H 	0.49840 0.12100 0.82670 0.04900
C 	C 	0.49650 0.06470 0.98720 -0.00000
C 	C 	0.49040 0.10870 0.06760 -0.02100
H 	H 	0.48780 0.05440 0.14090 0.05800
C 	C 	0.48810 0.23220 0.04210 -0.08300
C 	C 	0.47930 0.27090 0.13450 0.31400
C 	C 	0.48950 0.31500 0.93370 0.05900
H 	H 	0.48850 0.39700 0.91590 0.00700
C 	C 	0.57600 0.23120 0.47190 0.41100
C 	C 	0.66440 0.17810 0.52920 -0.12200
C 	C 	0.68200 0.05820 0.55710 0.05800
H 	H 	0.63530 0.00900 0.54450 0.04300
C 	C 	0.76920 0.01130 0.60380 -0.10400
C 	C 	0.78870 0.88100 0.62880 0.39700
C 	C 	0.83810 0.08340 0.62340 -0.00600
H 	H 	0.89740 0.05150 0.65320 0.05600
C 	C 	0.82030 0.20250 0.59940 0.00100
C 	C 	0.73430 0.25000 0.54990 0.01500
H 	H 	0.72360 0.33090 0.53050 0.02700
C 	C 	0.89400 0.28330 0.61820 -0.01500
C 	C 	0.02230 0.28200 0.59330 0.01700
H 	H 	0.06250 0.22530 0.56920 0.04900
C 	C 	0.08960 0.36440 0.60410 -0.13900
C 	C 	0.23120 0.37310 0.56410 0.45700
C 	C 	0.03170 0.44990 0.64060 0.08100
H 	H 	0.07740 0.50400 0.64900 0.03800
C 	C 	0.90570 0.45400 0.66420 -0.14900
C 	C 	0.84410 0.55390 0.68900 0.48800
C 	C 	0.83620 0.37030 0.65460 0.02300
H 	H 	0.75110 0.37210 0.67250 0.02900
Eu	Eu	0.50000 0.50000 0.50000 2.09300
