data_crystal

_cell_length_a 16.13600
_cell_length_b 13.12600
_cell_length_c 34.23800
_cell_angle_alpha 90.00000
_cell_angle_beta  90.19000
_cell_angle_gamma 90.00000

_symmetry_space_group_name_	'P 1'
_symmetry_space_group_name_H-M	'P 1'

loop_
_symmetry_equiv_pos_as_xyz
  x,y,z

loop_
_atom_site_label
_atom_site_type_symbol
_atom_site_fract_x
_atom_site_fract_y
_atom_site_fract_z
_atom_site_charge
Cl	Cl	0.56601 0.70631 0.31944 -0.49900
N 	N 	0.40889 0.83880 0.26718 -0.23000
N 	N 	0.36330 0.98280 0.29551 -0.17100
H 	H 	0.36150 0.03700 0.30960 0.11500
N 	N 	0.30410 0.94510 0.27090 -0.11000
N 	N 	0.70880 0.49510 0.22232 -0.16200
C 	C 	0.65730 0.54160 0.24817 0.09000
H 	H 	0.66290 0.54000 0.27520 -0.01900
N 	N 	0.61650 0.57060 0.19111 -0.17400
H 	H 	0.58710 0.59290 0.17190 0.12300
C 	C 	0.42450 0.91540 0.29242 0.11500
H 	H 	0.47370 0.92060 0.30640 0.00300
C 	C 	0.33290 0.86030 0.25383 0.09700
H 	H 	0.30410 0.82200 0.23540 -0.00100
C 	C 	0.22570 0.99430 0.26714 0.11400
C 	C 	0.20050 0.06570 0.29450 -0.11000
H 	H 	0.23380 0.08020 0.31600 0.07400
C 	C 	0.12630 0.11470 0.28960 -0.02000
H 	H 	0.10870 0.16030 0.30860 0.04800
C 	C 	0.07730 0.09830 0.25747 0.00300
C 	C 	0.10220 0.02490 0.23015 -0.01600
H 	H 	0.06840 0.01060 0.20880 0.04500
C 	C 	0.17610 0.97360 0.23461 -0.12600
H 	H 	0.19280 0.92570 0.21620 0.09500
C 	C 	0.92290 0.32260 0.24454 -0.00500
C 	C 	0.85360 0.31210 0.26883 -0.03000
H 	H 	0.85560 0.26740 0.28990 0.04200
C 	C 	0.78250 0.36770 0.26169 -0.13000
H 	H 	0.73640 0.35950 0.27760 0.07000
C 	C 	0.77990 0.43650 0.23049 0.10100
C 	C 	0.85030 0.45300 0.20767 -0.13100
H 	H 	0.84970 0.50090 0.18770 0.06400
C 	C 	0.92130 0.39640 0.21549 -0.02700
H 	H 	0.96890 0.40830 0.20090 0.02000
C 	C 	0.68460 0.51440 0.18599 0.11300
H 	H 	0.70890 0.49390 0.16270 -0.01000
N 	N 	0.59760 0.58950 0.22870 -0.18800
Cl	Cl	0.43399 0.70631 0.18056 -0.49800
N 	N 	0.59111 0.83880 0.23282 -0.22900
N 	N 	0.63670 0.98280 0.20449 -0.17000
H 	H 	0.63850 0.03700 0.19040 0.11600
N 	N 	0.69590 0.94510 0.22910 -0.10900
N 	N 	0.29120 0.49510 0.27768 -0.16200
C 	C 	0.34270 0.54160 0.25183 0.09000
H 	H 	0.33710 0.54000 0.22480 -0.01900
N 	N 	0.38350 0.57060 0.30889 -0.17400
H 	H 	0.41290 0.59290 0.32810 0.12300
C 	C 	0.57550 0.91540 0.20758 0.11500
H 	H 	0.52630 0.92060 0.19360 0.00300
C 	C 	0.66710 0.86030 0.24617 0.09700
H 	H 	0.69590 0.82200 0.26460 -0.00100
C 	C 	0.77430 0.99430 0.23286 0.11400
C 	C 	0.79950 0.06570 0.20550 -0.11100
H 	H 	0.76620 0.08020 0.18400 0.07500
C 	C 	0.87370 0.11470 0.21040 -0.02000
H 	H 	0.89130 0.16030 0.19140 0.04700
C 	C 	0.92270 0.09830 0.24253 0.00200
C 	C 	0.89780 0.02490 0.26985 -0.01500
H 	H 	0.93160 0.01060 0.29120 0.04400
C 	C 	0.82390 0.97360 0.26539 -0.12700
H 	H 	0.80720 0.92570 0.28380 0.09500
C 	C 	0.07710 0.32260 0.25546 -0.00400
C 	C 	0.14640 0.31210 0.23117 -0.03000
H 	H 	0.14440 0.26740 0.21010 0.04200
C 	C 	0.21750 0.36770 0.23831 -0.12900
H 	H 	0.26360 0.35950 0.22240 0.07000
C 	C 	0.22010 0.43650 0.26951 0.10100
C 	C 	0.14970 0.45300 0.29233 -0.13100
H 	H 	0.15030 0.50090 0.31230 0.06400
C 	C 	0.07870 0.39640 0.28451 -0.02800
H 	H 	0.03110 0.40830 0.29910 0.02100
C 	C 	0.31540 0.51440 0.31401 0.11300
H 	H 	0.29110 0.49390 0.33730 -0.01000
N 	N 	0.40240 0.58950 0.27130 -0.18800
Cd	Cd	0.50000 0.70675 0.25000 1.21900
C 	C 	0.00000 0.15760 0.25000 -0.01200
C 	C 	0.00000 0.26210 0.25000 -0.01600
Cl	Cl	0.43399 0.29369 0.68056 -0.49800
N 	N 	0.59111 0.16120 0.73282 -0.22900
N 	N 	0.63670 0.01720 0.70449 -0.17000
H 	H 	0.63850 0.96300 0.69040 0.11600
N 	N 	0.69590 0.05490 0.72910 -0.10900
N 	N 	0.29120 0.50490 0.77768 -0.16200
C 	C 	0.34270 0.45840 0.75183 0.09000
H 	H 	0.33710 0.46000 0.72480 -0.01900
N 	N 	0.38350 0.42940 0.80889 -0.17400
H 	H 	0.41290 0.40710 0.82810 0.12300
C 	C 	0.57550 0.08460 0.70758 0.11500
H 	H 	0.52630 0.07940 0.69360 0.00300
C 	C 	0.66710 0.13970 0.74617 0.09700
H 	H 	0.69590 0.17800 0.76460 -0.00100
C 	C 	0.77430 0.00570 0.73286 0.11400
C 	C 	0.79950 0.93430 0.70550 -0.11100
H 	H 	0.76620 0.91980 0.68400 0.07500
C 	C 	0.87370 0.88530 0.71040 -0.02000
H 	H 	0.89130 0.83970 0.69140 0.04800
C 	C 	0.92270 0.90170 0.74253 0.00200
C 	C 	0.89780 0.97510 0.76985 -0.01500
H 	H 	0.93160 0.98940 0.79120 0.04400
C 	C 	0.82390 0.02640 0.76539 -0.12700
H 	H 	0.80720 0.07430 0.78380 0.09500
C 	C 	0.07710 0.67740 0.75546 -0.00400
C 	C 	0.14640 0.68790 0.73117 -0.03000
H 	H 	0.14440 0.73260 0.71010 0.04200
C 	C 	0.21750 0.63230 0.73831 -0.12900
H 	H 	0.26360 0.64050 0.72240 0.07000
C 	C 	0.22010 0.56350 0.76951 0.10100
C 	C 	0.14970 0.54700 0.79233 -0.13100
H 	H 	0.15030 0.49910 0.81230 0.06400
C 	C 	0.07870 0.60360 0.78451 -0.02800
H 	H 	0.03110 0.59170 0.79910 0.02100
C 	C 	0.31540 0.48560 0.81401 0.11300
H 	H 	0.29110 0.50610 0.83730 -0.01000
N 	N 	0.40240 0.41050 0.77130 -0.18800
Cl	Cl	0.56601 0.29369 0.81944 -0.49800
N 	N 	0.40889 0.16120 0.76718 -0.22900
N 	N 	0.36330 0.01720 0.79551 -0.17000
H 	H 	0.36150 0.96300 0.80960 0.11600
N 	N 	0.30410 0.05490 0.77090 -0.10900
N 	N 	0.70880 0.50490 0.72232 -0.16200
C 	C 	0.65730 0.45840 0.74817 0.09000
H 	H 	0.66290 0.46000 0.77520 -0.01900
N 	N 	0.61650 0.42940 0.69111 -0.17400
H 	H 	0.58710 0.40710 0.67190 0.12300
C 	C 	0.42450 0.08460 0.79242 0.11500
H 	H 	0.47370 0.07940 0.80640 0.00300
C 	C 	0.33290 0.13970 0.75383 0.09700
H 	H 	0.30410 0.17800 0.73540 -0.00100
C 	C 	0.22570 0.00570 0.76714 0.11400
C 	C 	0.20050 0.93430 0.79450 -0.11000
H 	H 	0.23380 0.91980 0.81600 0.07500
C 	C 	0.12630 0.88530 0.78960 -0.02000
H 	H 	0.10870 0.83970 0.80860 0.04800
C 	C 	0.07730 0.90170 0.75747 0.00300
C 	C 	0.10220 0.97510 0.73015 -0.01600
H 	H 	0.06840 0.98940 0.70880 0.04500
C 	C 	0.17610 0.02640 0.73461 -0.12600
H 	H 	0.19280 0.07430 0.71620 0.09500
C 	C 	0.92290 0.67740 0.74454 -0.00500
C 	C 	0.85360 0.68790 0.76883 -0.03000
H 	H 	0.85560 0.73260 0.78990 0.04200
C 	C 	0.78250 0.63230 0.76169 -0.13000
H 	H 	0.73640 0.64050 0.77760 0.07000
C 	C 	0.77990 0.56350 0.73049 0.10100
C 	C 	0.85030 0.54700 0.70767 -0.13100
H 	H 	0.84970 0.49910 0.68770 0.06400
C 	C 	0.92130 0.60360 0.71549 -0.02700
H 	H 	0.96890 0.59170 0.70090 0.02000
C 	C 	0.68460 0.48560 0.68599 0.11300
H 	H 	0.70890 0.50610 0.66270 -0.01000
N 	N 	0.59760 0.41050 0.72870 -0.18800
Cd	Cd	0.50000 0.29325 0.75000 1.21900
C 	C 	0.00000 0.84240 0.75000 -0.01200
C 	C 	0.00000 0.73790 0.75000 -0.01600
Cd	Cd	0.80364 0.87867 0.41567 1.21800
K 	K 	0.84368 0.63116 0.32286 0.64000
Cl	Cl	0.77878 0.96078 0.48491 -0.46600
Cl	Cl	0.81870 0.79657 0.34713 -0.64200
N 	N 	0.68590 0.96740 0.39242 -0.22000
N 	N 	0.57180 0.99160 0.35713 -0.08900
N 	N 	0.57400 0.06020 0.38747 -0.11300
N 	N 	0.01830 0.67680 0.44862 -0.11500
N 	N 	0.98600 0.68740 0.48502 -0.09000
N 	N 	0.91580 0.78360 0.44104 -0.22900
N 	N 	0.88930 0.01410 0.39658 -0.23600
N 	N 	0.93030 0.15430 0.36669 -0.10100
N 	N 	0.99080 0.12120 0.39146 -0.11900
N 	N 	0.60660 0.64680 0.44283 -0.11100
N 	N 	0.63680 0.66250 0.47940 -0.09500
N 	N 	0.71150 0.74910 0.43610 -0.22600
C 	C 	0.63970 0.94030 0.36126 0.09500
H 	H 	0.65540 0.88890 0.34410 0.02700
C 	C 	0.64220 0.04470 0.40839 0.09700
H 	H 	0.65750 0.08110 0.43060 0.00900
C 	C 	0.50710 0.12910 0.39333 0.11800
C 	C 	0.44500 0.13840 0.36507 -0.10500
H 	H 	0.44850 0.10210 0.34180 0.07600
C 	C 	0.37840 0.20160 0.37183 -0.02600
H 	H 	0.33570 0.20430 0.35360 0.04100
C 	C 	0.37340 0.26200 0.40554 0.01000
C 	C 	0.43640 0.25290 0.43281 -0.02400
H 	H 	0.43410 0.29150 0.45550 0.05200
C 	C 	0.50330 0.18710 0.42715 -0.10900
H 	H 	0.54500 0.18230 0.44590 0.07900
C 	C 	0.29970 0.32900 0.41150 -0.01800
C 	C 	0.30430 0.42850 0.42166 -0.01200
C 	C 	0.22910 0.49270 0.42963 0.00100
C 	C 	0.21200 0.57830 0.40658 -0.02000
H 	H 	0.24910 0.59580 0.38690 0.03900
C 	C 	0.14300 0.63720 0.41179 -0.11700
H 	H 	0.13170 0.69180 0.39530 0.07100
C 	C 	0.08990 0.61290 0.44263 0.11600
C 	C 	0.10400 0.53000 0.46559 -0.11600
H 	H 	0.06710 0.51350 0.48540 0.08400
C 	C 	0.17420 0.46960 0.45939 -0.01700
H 	H 	0.18410 0.41360 0.47540 0.04300
C 	C 	0.97530 0.73300 0.42290 0.09300
H 	H 	0.98570 0.73600 0.39620 -0.02200
C 	C 	0.92550 0.75300 0.47966 0.07900
H 	H 	0.89220 0.77670 0.49980 0.01400
C 	C 	0.87040 0.08980 0.37222 0.10500
H 	H 	0.81890 0.09590 0.36020 -0.00600
C 	C 	0.96350 0.03640 0.40846 0.11300
H 	H 	0.99360 0.99830 0.42650 -0.00900
C 	C 	0.06770 0.17360 0.39614 0.12200
C 	C 	0.07920 0.26610 0.37860 -0.11500
H 	H 	0.03700 0.29470 0.36360 0.07600
C 	C 	0.15390 0.31740 0.38316 -0.02200
H 	H 	0.16140 0.38030 0.37120 0.04000
C 	C 	0.21800 0.27500 0.40563 0.00700
C 	C 	0.20500 0.18040 0.42260 -0.02300
H 	H 	0.24700 0.15040 0.43730 0.06600
C 	C 	0.13030 0.13050 0.41794 -0.11400
H 	H 	0.12220 0.06730 0.42960 0.09200
C 	C 	0.38320 0.48510 0.42644 0.00000
C 	C 	0.44820 0.48130 0.39800 -0.01300
H 	H 	0.44110 0.44210 0.37560 0.04000
C 	C 	0.52080 0.53450 0.40322 -0.12100
H 	H 	0.56230 0.53210 0.38450 0.08600
C 	C 	0.53100 0.59130 0.43650 0.12700
C 	C 	0.46940 0.59540 0.46446 -0.11500
H 	H 	0.47710 0.63390 0.48700 0.08500
C 	C 	0.39690 0.54280 0.45899 -0.01200
H 	H 	0.35590 0.54650 0.47800 0.04600
C 	C 	0.65250 0.69860 0.41705 0.08600
H 	H 	0.64440 0.69920 0.39010 0.02200
C 	C 	0.69990 0.72240 0.47373 0.09500
H 	H 	0.73410 0.74490 0.49390 0.00600
Cd	Cd	0.19636 0.87867 0.08433 1.21900
K 	K 	0.15632 0.63116 0.17714 0.64000
Cl	Cl	0.22122 0.96078 0.01509 -0.46600
Cl	Cl	0.18130 0.79657 0.15287 -0.64200
N 	N 	0.31410 0.96740 0.10758 -0.22000
N 	N 	0.42820 0.99160 0.14287 -0.08900
N 	N 	0.42600 0.06020 0.11253 -0.11300
N 	N 	0.98170 0.67680 0.05138 -0.11700
N 	N 	0.01400 0.68740 0.01498 -0.08900
N 	N 	0.08420 0.78360 0.05896 -0.22900
N 	N 	0.11070 0.01410 0.10342 -0.23600
N 	N 	0.06970 0.15430 0.13331 -0.10000
N 	N 	0.00920 0.12120 0.10854 -0.11700
N 	N 	0.39340 0.64680 0.05717 -0.11100
N 	N 	0.36320 0.66250 0.02060 -0.09500
N 	N 	0.28850 0.74910 0.06390 -0.22600
C 	C 	0.36030 0.94030 0.13874 0.09500
H 	H 	0.34460 0.88890 0.15590 0.02700
C 	C 	0.35780 0.04470 0.09161 0.09700
H 	H 	0.34250 0.08110 0.06940 0.00900
C 	C 	0.49290 0.12910 0.10667 0.11800
C 	C 	0.55500 0.13840 0.13493 -0.10500
H 	H 	0.55150 0.10210 0.15820 0.07600
C 	C 	0.62160 0.20160 0.12817 -0.02600
H 	H 	0.66430 0.20430 0.14640 0.04100
C 	C 	0.62660 0.26200 0.09446 0.01000
C 	C 	0.56360 0.25290 0.06719 -0.02400
H 	H 	0.56590 0.29150 0.04450 0.05200
C 	C 	0.49670 0.18710 0.07285 -0.10900
H 	H 	0.45500 0.18230 0.05410 0.07900
C 	C 	0.70030 0.32900 0.08850 -0.01900
C 	C 	0.69570 0.42850 0.07834 -0.01200
C 	C 	0.77090 0.49270 0.07037 0.00100
C 	C 	0.78800 0.57830 0.09342 -0.02000
H 	H 	0.75090 0.59580 0.11310 0.03900
C 	C 	0.85700 0.63720 0.08821 -0.11700
H 	H 	0.86830 0.69180 0.10470 0.07000
C 	C 	0.91010 0.61290 0.05737 0.11500
C 	C 	0.89600 0.53000 0.03441 -0.11600
H 	H 	0.93290 0.51350 0.01460 0.08300
C 	C 	0.82580 0.46960 0.04061 -0.01800
H 	H 	0.81590 0.41360 0.02460 0.04300
C 	C 	0.02470 0.73300 0.07710 0.09500
H 	H 	0.01430 0.73600 0.10380 -0.02300
C 	C 	0.07450 0.75300 0.02034 0.07900
H 	H 	0.10780 0.77670 0.00020 0.01500
C 	C 	0.12960 0.08980 0.12778 0.10500
H 	H 	0.18110 0.09590 0.13980 -0.00600
C 	C 	0.03650 0.03640 0.09154 0.11300
H 	H 	0.00640 0.99830 0.07350 -0.00800
C 	C 	0.93230 0.17360 0.10386 0.12000
C 	C 	0.92080 0.26610 0.12140 -0.11300
H 	H 	0.96300 0.29470 0.13640 0.07500
C 	C 	0.84610 0.31740 0.11684 -0.02300
H 	H 	0.83860 0.38030 0.12880 0.04100
C 	C 	0.78200 0.27500 0.09437 0.00800
C 	C 	0.79500 0.18040 0.07740 -0.02500
H 	H 	0.75300 0.15040 0.06270 0.06600
C 	C 	0.86970 0.13050 0.08206 -0.11200
H 	H 	0.87780 0.06730 0.07040 0.09100
C 	C 	0.61680 0.48510 0.07356 0.00000
C 	C 	0.55180 0.48130 0.10200 -0.01300
H 	H 	0.55890 0.44210 0.12440 0.04000
C 	C 	0.47920 0.53450 0.09678 -0.12100
H 	H 	0.43770 0.53210 0.11550 0.08600
C 	C 	0.46900 0.59130 0.06350 0.12700
C 	C 	0.53060 0.59540 0.03554 -0.11500
H 	H 	0.52290 0.63390 0.01300 0.08500
C 	C 	0.60310 0.54280 0.04101 -0.01200
H 	H 	0.64410 0.54650 0.02200 0.04600
C 	C 	0.34750 0.69860 0.08295 0.08600
H 	H 	0.35560 0.69920 0.10990 0.02200
C 	C 	0.30010 0.72240 0.02627 0.09500
H 	H 	0.26590 0.74490 0.00610 0.00600
Cd	Cd	0.19636 0.12133 0.58433 1.21900
K 	K 	0.15632 0.36884 0.67714 0.64000
Cl	Cl	0.22122 0.03922 0.51509 -0.46600
Cl	Cl	0.18130 0.20343 0.65287 -0.64200
N 	N 	0.31410 0.03260 0.60758 -0.22000
N 	N 	0.42820 0.00840 0.64287 -0.08900
N 	N 	0.42600 0.93980 0.61253 -0.11300
N 	N 	0.98170 0.32320 0.55138 -0.11700
N 	N 	0.01400 0.31260 0.51498 -0.08900
N 	N 	0.08420 0.21640 0.55896 -0.22900
N 	N 	0.11070 0.98590 0.60342 -0.23600
N 	N 	0.06970 0.84570 0.63331 -0.10000
N 	N 	0.00920 0.87880 0.60854 -0.11700
N 	N 	0.39340 0.35320 0.55717 -0.11100
N 	N 	0.36320 0.33750 0.52060 -0.09500
N 	N 	0.28850 0.25090 0.56390 -0.22600
C 	C 	0.36030 0.05970 0.63874 0.09500
H 	H 	0.34460 0.11110 0.65590 0.02700
C 	C 	0.35780 0.95530 0.59161 0.09700
H 	H 	0.34250 0.91890 0.56940 0.00900
C 	C 	0.49290 0.87090 0.60667 0.11800
C 	C 	0.55500 0.86160 0.63493 -0.10500
H 	H 	0.55150 0.89790 0.65820 0.07600
C 	C 	0.62160 0.79840 0.62817 -0.02600
H 	H 	0.66430 0.79570 0.64640 0.04100
C 	C 	0.62660 0.73800 0.59446 0.01000
C 	C 	0.56360 0.74710 0.56719 -0.02400
H 	H 	0.56590 0.70850 0.54450 0.05200
C 	C 	0.49670 0.81290 0.57285 -0.10900
H 	H 	0.45500 0.81770 0.55410 0.07900
C 	C 	0.70030 0.67100 0.58850 -0.01900
C 	C 	0.69570 0.57150 0.57834 -0.01200
C 	C 	0.77090 0.50730 0.57037 0.00100
C 	C 	0.78800 0.42170 0.59342 -0.02000
H 	H 	0.75090 0.40420 0.61310 0.03900
C 	C 	0.85700 0.36280 0.58821 -0.11700
H 	H 	0.86830 0.30820 0.60470 0.07000
C 	C 	0.91010 0.38710 0.55737 0.11500
C 	C 	0.89600 0.47000 0.53441 -0.11600
H 	H 	0.93290 0.48650 0.51460 0.08300
C 	C 	0.82580 0.53040 0.54061 -0.01800
H 	H 	0.81590 0.58640 0.52460 0.04300
C 	C 	0.02470 0.26700 0.57710 0.09500
H 	H 	0.01430 0.26400 0.60380 -0.02300
C 	C 	0.07450 0.24700 0.52034 0.07900
H 	H 	0.10780 0.22330 0.50020 0.01500
C 	C 	0.12960 0.91020 0.62778 0.10500
H 	H 	0.18110 0.90410 0.63980 -0.00600
C 	C 	0.03650 0.96360 0.59154 0.11300
H 	H 	0.00640 0.00170 0.57350 -0.00900
C 	C 	0.93230 0.82640 0.60386 0.12000
C 	C 	0.92080 0.73390 0.62140 -0.11300
H 	H 	0.96300 0.70530 0.63640 0.07500
C 	C 	0.84610 0.68260 0.61684 -0.02300
H 	H 	0.83860 0.61970 0.62880 0.04100
C 	C 	0.78200 0.72500 0.59437 0.00800
C 	C 	0.79500 0.81960 0.57740 -0.02500
H 	H 	0.75300 0.84960 0.56270 0.06600
C 	C 	0.86970 0.86950 0.58206 -0.11300
H 	H 	0.87780 0.93270 0.57040 0.09100
C 	C 	0.61680 0.51490 0.57356 0.00000
C 	C 	0.55180 0.51870 0.60200 -0.01300
H 	H 	0.55890 0.55790 0.62440 0.04000
C 	C 	0.47920 0.46550 0.59678 -0.12100
H 	H 	0.43770 0.46790 0.61550 0.08600
C 	C 	0.46900 0.40870 0.56350 0.12700
C 	C 	0.53060 0.40460 0.53554 -0.11500
H 	H 	0.52290 0.36610 0.51300 0.08500
C 	C 	0.60310 0.45720 0.54101 -0.01200
H 	H 	0.64410 0.45350 0.52200 0.04600
C 	C 	0.34750 0.30140 0.58295 0.08600
H 	H 	0.35560 0.30080 0.60990 0.02200
C 	C 	0.30010 0.27760 0.52627 0.09500
H 	H 	0.26590 0.25510 0.50610 0.00600
Cd	Cd	0.80364 0.12133 0.91567 1.21900
K 	K 	0.84368 0.36884 0.82286 0.64000
Cl	Cl	0.77878 0.03922 0.98491 -0.46600
Cl	Cl	0.81870 0.20343 0.84713 -0.64200
N 	N 	0.68590 0.03260 0.89242 -0.22000
N 	N 	0.57180 0.00840 0.85713 -0.08900
N 	N 	0.57400 0.93980 0.88747 -0.11300
N 	N 	0.01830 0.32320 0.94862 -0.11500
N 	N 	0.98600 0.31260 0.98502 -0.09000
N 	N 	0.91580 0.21640 0.94104 -0.22900
N 	N 	0.88930 0.98590 0.89658 -0.23600
N 	N 	0.93030 0.84570 0.86669 -0.10100
N 	N 	0.99080 0.87880 0.89146 -0.11900
N 	N 	0.60660 0.35320 0.94283 -0.11100
N 	N 	0.63680 0.33750 0.97940 -0.09500
N 	N 	0.71150 0.25090 0.93610 -0.22600
C 	C 	0.63970 0.05970 0.86126 0.09500
H 	H 	0.65540 0.11110 0.84410 0.02700
C 	C 	0.64220 0.95530 0.90839 0.09700
H 	H 	0.65750 0.91890 0.93060 0.00900
C 	C 	0.50710 0.87090 0.89333 0.11800
C 	C 	0.44500 0.86160 0.86507 -0.10500
H 	H 	0.44850 0.89790 0.84180 0.07600
C 	C 	0.37840 0.79840 0.87183 -0.02600
H 	H 	0.33570 0.79570 0.85360 0.04100
C 	C 	0.37340 0.73800 0.90554 0.01000
C 	C 	0.43640 0.74710 0.93281 -0.02400
H 	H 	0.43410 0.70850 0.95550 0.05200
C 	C 	0.50330 0.81290 0.92715 -0.10900
H 	H 	0.54500 0.81770 0.94590 0.07900
C 	C 	0.29970 0.67100 0.91150 -0.01800
C 	C 	0.30430 0.57150 0.92166 -0.01200
C 	C 	0.22910 0.50730 0.92963 0.00100
C 	C 	0.21200 0.42170 0.90658 -0.02000
H 	H 	0.24910 0.40420 0.88690 0.03900
C 	C 	0.14300 0.36280 0.91179 -0.11700
H 	H 	0.13170 0.30820 0.89530 0.07100
C 	C 	0.08990 0.38710 0.94263 0.11600
C 	C 	0.10400 0.47000 0.96559 -0.11600
H 	H 	0.06710 0.48650 0.98540 0.08400
C 	C 	0.17420 0.53040 0.95939 -0.01700
H 	H 	0.18410 0.58640 0.97540 0.04300
C 	C 	0.97530 0.26700 0.92290 0.09300
H 	H 	0.98570 0.26400 0.89620 -0.02200
C 	C 	0.92550 0.24700 0.97966 0.07900
H 	H 	0.89220 0.22330 0.99980 0.01400
C 	C 	0.87040 0.91020 0.87222 0.10500
H 	H 	0.81890 0.90410 0.86020 -0.00600
C 	C 	0.96350 0.96360 0.90846 0.11300
H 	H 	0.99360 0.00170 0.92650 -0.00900
C 	C 	0.06770 0.82640 0.89614 0.12200
C 	C 	0.07920 0.73390 0.87860 -0.11500
H 	H 	0.03700 0.70530 0.86360 0.07600
C 	C 	0.15390 0.68260 0.88316 -0.02200
H 	H 	0.16140 0.61970 0.87120 0.04000
C 	C 	0.21800 0.72500 0.90563 0.00700
C 	C 	0.20500 0.81960 0.92260 -0.02300
H 	H 	0.24700 0.84960 0.93730 0.06600
C 	C 	0.13030 0.86950 0.91794 -0.11400
H 	H 	0.12220 0.93270 0.92960 0.09200
C 	C 	0.38320 0.51490 0.92644 0.00000
C 	C 	0.44820 0.51870 0.89800 -0.01300
H 	H 	0.44110 0.55790 0.87560 0.04000
C 	C 	0.52080 0.46550 0.90322 -0.12100
H 	H 	0.56230 0.46790 0.88450 0.08600
C 	C 	0.53100 0.40870 0.93650 0.12700
C 	C 	0.46940 0.40460 0.96446 -0.11500
H 	H 	0.47710 0.36610 0.98700 0.08500
C 	C 	0.39690 0.45720 0.95899 -0.01200
H 	H 	0.35590 0.45350 0.97800 0.04600
C 	C 	0.65250 0.30140 0.91705 0.08600
H 	H 	0.64440 0.30080 0.89010 0.02200
C 	C 	0.69990 0.27760 0.97373 0.09500
H 	H 	0.73410 0.25510 0.99390 0.00600
