data_crystal

_cell_length_a 20.06340
_cell_length_b 17.31590
_cell_length_c 15.64200
_cell_angle_alpha 90.00000
_cell_angle_beta  124.21100
_cell_angle_gamma 90.00000

_symmetry_space_group_name_	'P 1'
_symmetry_space_group_name_H-M	'P 1'

loop_
_symmetry_equiv_pos_as_xyz
  x,y,z

loop_
_atom_site_label
_atom_site_type_symbol
_atom_site_fract_x
_atom_site_fract_y
_atom_site_fract_z
_atom_site_charge
C 	C 	0.26070 0.63120 0.67530 0.09400
H 	H 	0.20540 0.62420 0.64900 -0.00700
C 	C 	0.28190 0.69180 0.63740 -0.14800
H 	H 	0.24120 0.72320 0.58330 0.07900
C 	C 	0.36090 0.70680 0.67730 0.06600
C 	C 	0.41410 0.65470 0.74520 -0.15500
H 	H 	0.46980 0.65880 0.77190 0.07500
C 	C 	0.38580 0.59540 0.77480 0.10300
H 	H 	0.42450 0.55920 0.82260 -0.02900
C 	C 	0.37200 0.90210 0.58710 0.10600
H 	H 	0.33980 0.94740 0.56430 0.00200
C 	C 	0.34600 0.84110 0.61700 -0.14900
H 	H 	0.29860 0.84590 0.61630 0.08500
C 	C 	0.38770 0.77390 0.64670 0.06400
C 	C 	0.44980 0.77240 0.63570 -0.14600
H 	H 	0.47880 0.72570 0.64800 0.07200
C 	C 	0.47170 0.83800 0.60670 0.09600
H 	H 	0.51610 0.83460 0.60070 -0.01700
C 	C 	0.31290 0.59830 0.97290 0.11500
H 	H 	0.35560 0.56260 0.01190 -0.03300
C 	C 	0.31060 0.66450 0.02430 -0.16200
H 	H 	0.35200 0.67280 0.09520 0.07700
C 	C 	0.25170 0.71440 0.97450 0.08100
C 	C 	0.19490 0.69830 0.87640 -0.15000
H 	H 	0.14890 0.73060 0.83730 0.07700
C 	C 	0.20410 0.63280 0.83170 0.09500
H 	H 	0.16460 0.62360 0.76040 -0.00000
N 	N 	0.31230 0.58400 0.74420 -0.24200
N 	N 	0.43560 0.90350 0.58750 -0.23500
N 	N 	0.26230 0.58410 0.88010 -0.24400
C 	C 	0.76070 0.13120 0.67530 0.09100
H 	H 	0.70540 0.12420 0.64900 -0.00700
C 	C 	0.78190 0.19180 0.63740 -0.14900
H 	H 	0.74120 0.22320 0.58330 0.07800
C 	C 	0.86090 0.20680 0.67730 0.06300
C 	C 	0.91410 0.15470 0.74520 -0.16000
H 	H 	0.96980 0.15880 0.77190 0.07100
C 	C 	0.88580 0.09540 0.77480 0.10100
H 	H 	0.92450 0.05920 0.82260 -0.04800
C 	C 	0.87200 0.40210 0.58710 0.10700
H 	H 	0.83980 0.44740 0.56430 -0.02500
C 	C 	0.84600 0.34110 0.61700 -0.15700
H 	H 	0.79860 0.34590 0.61630 0.08000
C 	C 	0.88770 0.27390 0.64670 0.06200
C 	C 	0.94980 0.27240 0.63570 -0.14900
H 	H 	0.97880 0.22570 0.64800 0.06700
C 	C 	0.97170 0.33800 0.60670 0.09300
H 	H 	0.01610 0.33460 0.60070 -0.02700
C 	C 	0.81290 0.09830 0.97290 0.10200
H 	H 	0.85560 0.06260 0.01190 -0.04700
C 	C 	0.81060 0.16450 0.02430 -0.15500
H 	H 	0.85200 0.17280 0.09520 0.06900
C 	C 	0.75170 0.21440 0.97450 0.06500
C 	C 	0.69490 0.19830 0.87640 -0.14500
H 	H 	0.64890 0.23060 0.83730 0.07000
C 	C 	0.70410 0.13280 0.83170 0.08500
H 	H 	0.66460 0.12360 0.76040 -0.00000
N 	N 	0.81230 0.08400 0.74420 -0.25000
N 	N 	0.93560 0.40350 0.58750 -0.25600
N 	N 	0.76230 0.08410 0.88010 -0.24900
C 	C 	0.73930 0.63120 0.32470 0.09500
H 	H 	0.79460 0.62420 0.35100 -0.00600
C 	C 	0.71810 0.69180 0.36260 -0.14700
H 	H 	0.75880 0.72320 0.41670 0.08000
C 	C 	0.63910 0.70680 0.32270 0.06700
C 	C 	0.58590 0.65470 0.25480 -0.15400
H 	H 	0.53020 0.65880 0.22810 0.07600
C 	C 	0.61420 0.59540 0.22520 0.10400
H 	H 	0.57550 0.55920 0.17740 -0.02900
C 	C 	0.62800 0.90210 0.41290 0.10600
H 	H 	0.66020 0.94740 0.43570 0.00200
C 	C 	0.65400 0.84110 0.38300 -0.14900
H 	H 	0.70140 0.84590 0.38370 0.08500
C 	C 	0.61230 0.77390 0.35330 0.06400
C 	C 	0.55020 0.77240 0.36430 -0.14600
H 	H 	0.52120 0.72570 0.35200 0.07200
C 	C 	0.52830 0.83800 0.39330 0.09600
H 	H 	0.48390 0.83460 0.39930 -0.01700
C 	C 	0.68710 0.59830 0.02710 0.11500
H 	H 	0.64440 0.56260 0.98810 -0.03300
C 	C 	0.68940 0.66450 0.97570 -0.16200
H 	H 	0.64800 0.67280 0.90480 0.07700
C 	C 	0.74830 0.71440 0.02550 0.08100
C 	C 	0.80510 0.69830 0.12360 -0.15000
H 	H 	0.85110 0.73060 0.16270 0.07700
C 	C 	0.79590 0.63280 0.16830 0.09500
H 	H 	0.83540 0.62360 0.23960 -0.00000
N 	N 	0.68770 0.58400 0.25580 -0.24200
N 	N 	0.56440 0.90350 0.41250 -0.23500
N 	N 	0.73770 0.58410 0.11990 -0.24400
C 	C 	0.23930 0.13120 0.32470 0.09100
H 	H 	0.29460 0.12420 0.35100 -0.00700
C 	C 	0.21810 0.19180 0.36260 -0.14900
H 	H 	0.25880 0.22320 0.41670 0.07800
C 	C 	0.13910 0.20680 0.32270 0.06300
C 	C 	0.08590 0.15470 0.25480 -0.16000
H 	H 	0.03020 0.15880 0.22810 0.07100
C 	C 	0.11420 0.09540 0.22520 0.10100
H 	H 	0.07550 0.05920 0.17740 -0.04800
C 	C 	0.12800 0.40210 0.41290 0.10700
H 	H 	0.16020 0.44740 0.43570 -0.02500
C 	C 	0.15400 0.34110 0.38300 -0.15700
H 	H 	0.20140 0.34590 0.38370 0.08000
C 	C 	0.11230 0.27390 0.35330 0.06200
C 	C 	0.05020 0.27240 0.36430 -0.14900
H 	H 	0.02120 0.22570 0.35200 0.06700
C 	C 	0.02830 0.33800 0.39330 0.09300
H 	H 	0.98390 0.33460 0.39930 -0.02700
C 	C 	0.18710 0.09830 0.02710 0.10200
H 	H 	0.14440 0.06260 0.98810 -0.04700
C 	C 	0.18940 0.16450 0.97570 -0.15500
H 	H 	0.14800 0.17280 0.90480 0.06900
C 	C 	0.24830 0.21440 0.02550 0.06500
C 	C 	0.30510 0.19830 0.12360 -0.14500
H 	H 	0.35110 0.23060 0.16270 0.07000
C 	C 	0.29590 0.13280 0.16830 0.08500
H 	H 	0.33540 0.12360 0.23960 -0.00000
N 	N 	0.18770 0.08400 0.25580 -0.25000
N 	N 	0.06440 0.40350 0.41250 -0.25600
N 	N 	0.23770 0.08410 0.11990 -0.24900
C 	C 	0.73930 0.36880 0.32470 0.09100
H 	H 	0.79460 0.37580 0.35100 -0.00600
C 	C 	0.71810 0.30820 0.36260 -0.14500
H 	H 	0.75880 0.27680 0.41670 0.07500
C 	C 	0.63910 0.29320 0.32270 0.05900
C 	C 	0.58590 0.34530 0.25480 -0.15200
H 	H 	0.53020 0.34120 0.22810 0.07300
C 	C 	0.61420 0.40460 0.22520 0.10100
H 	H 	0.57550 0.44080 0.17740 -0.02900
C 	C 	0.62800 0.09790 0.41290 0.10900
H 	H 	0.66020 0.05260 0.43570 -0.04700
C 	C 	0.65400 0.15890 0.38300 -0.16600
H 	H 	0.70140 0.15410 0.38370 0.07500
C 	C 	0.61230 0.22610 0.35330 0.06700
C 	C 	0.55020 0.22760 0.36430 -0.15500
H 	H 	0.52120 0.27430 0.35200 0.07400
C 	C 	0.52830 0.16200 0.39330 0.09500
H 	H 	0.48390 0.16540 0.39930 -0.02700
C 	C 	0.68710 0.40170 0.02710 0.11200
H 	H 	0.64440 0.43740 0.98810 -0.03300
C 	C 	0.68940 0.33550 0.97570 -0.16100
H 	H 	0.64800 0.32720 0.90480 0.07500
C 	C 	0.74830 0.28560 0.02550 0.07500
C 	C 	0.80510 0.30170 0.12360 -0.15000
H 	H 	0.85110 0.26940 0.16270 0.07200
C 	C 	0.79590 0.36720 0.16830 0.09200
H 	H 	0.83540 0.37640 0.23960 -0.00000
N 	N 	0.68770 0.41600 0.25580 -0.24200
N 	N 	0.56440 0.09650 0.41250 -0.26300
N 	N 	0.73770 0.41590 0.11990 -0.24400
C 	C 	0.23930 0.86880 0.32470 0.09100
H 	H 	0.29460 0.87580 0.35100 0.00800
C 	C 	0.21810 0.80820 0.36260 -0.13800
H 	H 	0.25880 0.77680 0.41670 0.07600
C 	C 	0.13910 0.79320 0.32270 0.05800
C 	C 	0.08590 0.84530 0.25480 -0.14200
H 	H 	0.03020 0.84120 0.22810 0.07600
C 	C 	0.11420 0.90460 0.22520 0.10100
H 	H 	0.07550 0.94080 0.17740 -0.00700
C 	C 	0.12800 0.59790 0.41290 0.11000
H 	H 	0.16020 0.55260 0.43570 -0.02600
C 	C 	0.15400 0.65890 0.38300 -0.16200
H 	H 	0.20140 0.65410 0.38370 0.08100
C 	C 	0.11230 0.72610 0.35330 0.07100
C 	C 	0.05020 0.72760 0.36430 -0.15500
H 	H 	0.02120 0.77430 0.35200 0.07900
C 	C 	0.02830 0.66200 0.39330 0.09800
H 	H 	0.98390 0.66540 0.39930 -0.02600
C 	C 	0.18710 0.90170 0.02710 0.10500
H 	H 	0.14440 0.93740 0.98810 -0.00900
C 	C 	0.18940 0.83550 0.97570 -0.14200
H 	H 	0.14800 0.82720 0.90480 0.07500
C 	C 	0.24830 0.78560 0.02550 0.06400
C 	C 	0.30510 0.80170 0.12360 -0.13400
H 	H 	0.35110 0.76940 0.16270 0.07100
C 	C 	0.29590 0.86720 0.16830 0.08900
H 	H 	0.33540 0.87640 0.23960 0.01600
N 	N 	0.18770 0.91600 0.25580 -0.22200
N 	N 	0.06440 0.59650 0.41250 -0.25800
N 	N 	0.23770 0.91590 0.11990 -0.22100
C 	C 	0.26070 0.36880 0.67530 0.09100
H 	H 	0.20540 0.37580 0.64900 -0.00600
C 	C 	0.28190 0.30820 0.63740 -0.14500
H 	H 	0.24120 0.27680 0.58330 0.07500
C 	C 	0.36090 0.29320 0.67730 0.05900
C 	C 	0.41410 0.34530 0.74520 -0.15200
H 	H 	0.46980 0.34120 0.77190 0.07300
C 	C 	0.38580 0.40460 0.77480 0.10100
H 	H 	0.42450 0.44080 0.82260 -0.02900
C 	C 	0.37200 0.09790 0.58710 0.10900
H 	H 	0.33980 0.05260 0.56430 -0.04700
C 	C 	0.34600 0.15890 0.61700 -0.16600
H 	H 	0.29860 0.15410 0.61630 0.07500
C 	C 	0.38770 0.22610 0.64670 0.06700
C 	C 	0.44980 0.22760 0.63570 -0.15500
H 	H 	0.47880 0.27430 0.64800 0.07400
C 	C 	0.47170 0.16200 0.60670 0.09500
H 	H 	0.51610 0.16540 0.60070 -0.02700
C 	C 	0.31290 0.40170 0.97290 0.11200
H 	H 	0.35560 0.43740 0.01190 -0.03300
C 	C 	0.31060 0.33550 0.02430 -0.16100
H 	H 	0.35200 0.32720 0.09520 0.07500
C 	C 	0.25170 0.28560 0.97450 0.07500
C 	C 	0.19490 0.30170 0.87640 -0.15000
H 	H 	0.14890 0.26940 0.83730 0.07200
C 	C 	0.20410 0.36720 0.83170 0.09200
H 	H 	0.16460 0.37640 0.76040 -0.00000
N 	N 	0.31230 0.41600 0.74420 -0.24200
N 	N 	0.43560 0.09650 0.58750 -0.26300
N 	N 	0.26230 0.41590 0.88010 -0.24400
C 	C 	0.76070 0.86880 0.67530 0.09100
H 	H 	0.70540 0.87580 0.64900 0.00800
C 	C 	0.78190 0.80820 0.63740 -0.13800
H 	H 	0.74120 0.77680 0.58330 0.07600
C 	C 	0.86090 0.79320 0.67730 0.05800
C 	C 	0.91410 0.84530 0.74520 -0.14200
H 	H 	0.96980 0.84120 0.77190 0.07600
C 	C 	0.88580 0.90460 0.77480 0.10100
H 	H 	0.92450 0.94080 0.82260 -0.00700
C 	C 	0.87200 0.59790 0.58710 0.11000
H 	H 	0.83980 0.55260 0.56430 -0.02600
C 	C 	0.84600 0.65890 0.61700 -0.16200
H 	H 	0.79860 0.65410 0.61630 0.08100
C 	C 	0.88770 0.72610 0.64670 0.07100
C 	C 	0.94980 0.72760 0.63570 -0.15500
H 	H 	0.97880 0.77430 0.64800 0.07900
C 	C 	0.97170 0.66200 0.60670 0.09800
H 	H 	0.01610 0.66540 0.60070 -0.02600
C 	C 	0.81290 0.90170 0.97290 0.10500
H 	H 	0.85560 0.93740 0.01190 -0.00900
C 	C 	0.81060 0.83550 0.02430 -0.14200
H 	H 	0.85200 0.82720 0.09520 0.07500
C 	C 	0.75170 0.78560 0.97450 0.06400
C 	C 	0.69490 0.80170 0.87640 -0.13400
H 	H 	0.64890 0.76940 0.83730 0.07100
C 	C 	0.70410 0.86720 0.83170 0.08900
H 	H 	0.66460 0.87640 0.76040 0.01600
N 	N 	0.81230 0.91600 0.74420 -0.22200
N 	N 	0.93560 0.59650 0.58750 -0.25800
N 	N 	0.76230 0.91590 0.88010 -0.22100
Cu	Cu	0.27654 0.50000 0.80102 0.88300
Cu	Cu	0.77654 0.00000 0.80102 0.85700
Cu	Cu	0.72346 0.50000 0.19898 0.88300
Cu	Cu	0.22346 0.00000 0.19898 0.85700
Cu	Cu	0.47161 0.00000 0.55227 0.80600
Cl	Cl	0.62260 0.00000 0.64760 -0.71100
Cu	Cu	0.97161 0.50000 0.55227 0.82500
Cl	Cl	0.12260 0.50000 0.64760 -0.66600
Cu	Cu	0.52839 -0.00000 0.44773 0.80600
Cl	Cl	0.37740 0.00000 0.35240 -0.71100
Cu	Cu	0.02839 0.50000 0.44773 0.82500
Cl	Cl	0.87740 0.50000 0.35240 -0.66600
