data_crystal

_cell_length_a 27.31600
_cell_length_b 27.31600
_cell_length_c 15.08910
_cell_angle_alpha 90.00000
_cell_angle_beta  90.00000
_cell_angle_gamma 120.00000

_symmetry_space_group_name_	'P 1'
_symmetry_space_group_name_H-M	'P 1'

loop_
_symmetry_equiv_pos_as_xyz
  x,y,z

loop_
_atom_site_label
_atom_site_type_symbol
_atom_site_fract_x
_atom_site_fract_y
_atom_site_fract_z
_atom_site_charge
S 	S 	0.28777 0.22910 0.05245 -0.47200
O 	O 	0.37124 0.31847 0.19226 -0.51300
O 	O 	0.33810 0.27943 0.32524 -0.54700
C 	C 	0.33953 0.21811 0.19745 -0.13800
C 	C 	0.31639 0.19715 0.11383 0.09000
C 	C 	0.35780 0.18761 0.24514 -0.05300
C 	C 	0.34435 0.26815 0.23467 0.31500
H 	H 	0.37321 0.20306 0.30851 0.02400
S 	S 	0.95444 0.56243 0.38578 -0.44200
O 	O 	0.03791 0.65180 0.52559 -0.53900
O 	O 	0.00477 0.61276 0.65857 -0.57600
C 	C 	0.00620 0.55144 0.53078 -0.25900
C 	C 	0.98306 0.53048 0.44716 0.20600
C 	C 	0.02447 0.52094 0.57847 0.02300
C 	C 	0.01102 0.60148 0.56800 0.34000
H 	H 	0.03988 0.53639 0.64184 -0.00300
S 	S 	0.62110 0.89577 0.71912 -0.43600
O 	O 	0.70457 0.98514 0.85893 -0.46900
O 	O 	0.67143 0.94610 0.99191 -0.52600
C 	C 	0.67286 0.88478 0.86412 -0.12700
C 	C 	0.64972 0.86382 0.78050 0.09000
C 	C 	0.69113 0.85428 0.91181 -0.05000
C 	C 	0.67768 0.93482 0.90134 0.31700
H 	H 	0.70654 0.86973 0.97518 0.03200
S 	S 	0.77090 0.05867 0.05245 -0.49300
O 	O 	0.68153 0.05277 0.19226 -0.53100
O 	O 	0.72057 0.05867 0.32524 -0.55900
C 	C 	0.78189 0.12142 0.19745 -0.14500
C 	C 	0.80285 0.11924 0.11383 0.10200
C 	C 	0.81239 0.17019 0.24514 -0.04400
C 	C 	0.73185 0.07620 0.23467 0.31600
H 	H 	0.79694 0.17015 0.30851 0.02300
S 	S 	0.43757 0.39200 0.38578 -0.45900
O 	O 	0.34820 0.38610 0.52559 -0.51300
O 	O 	0.38724 0.39200 0.65857 -0.54500
C 	C 	0.44856 0.45475 0.53078 -0.13700
C 	C 	0.46952 0.45257 0.44716 0.09200
C 	C 	0.47906 0.50352 0.57847 -0.05100
C 	C 	0.39852 0.40953 0.56800 0.31700
H 	H 	0.46361 0.50348 0.64184 0.02500
S 	S 	0.10423 0.72534 0.71912 -0.47300
O 	O 	0.01486 0.71944 0.85893 -0.54600
O 	O 	0.05390 0.72534 0.99191 -0.56100
C 	C 	0.11522 0.78809 0.86412 -0.14600
C 	C 	0.13618 0.78591 0.78050 0.09600
C 	C 	0.14572 0.83686 0.91181 -0.04300
C 	C 	0.06518 0.74287 0.90134 0.31900
H 	H 	0.13027 0.83682 0.97518 0.02100
S 	S 	0.94133 0.71223 0.05245 -0.41100
O 	O 	0.94723 0.62876 0.19226 -0.48500
O 	O 	0.94133 0.66190 0.32524 -0.52700
C 	C 	0.87858 0.66047 0.19745 -0.12600
C 	C 	0.88076 0.68361 0.11383 0.08300
C 	C 	0.82981 0.64220 0.24514 -0.05300
C 	C 	0.92380 0.65565 0.23467 0.31800
H 	H 	0.82985 0.62679 0.30851 0.02700
S 	S 	0.60800 0.04556 0.38578 -0.46400
O 	O 	0.61390 0.96209 0.52559 -0.48500
O 	O 	0.60800 0.99523 0.65857 -0.50000
C 	C 	0.54525 0.99380 0.53078 -0.01300
C 	C 	0.54743 0.01694 0.44716 -0.02400
C 	C 	0.49648 0.97553 0.57847 -0.12300
C 	C 	0.59047 0.98898 0.56800 0.29100
H 	H 	0.49652 0.96012 0.64184 0.05500
S 	S 	0.27466 0.37890 0.71912 -0.46000
O 	O 	0.28056 0.29543 0.85893 -0.51600
O 	O 	0.27466 0.32857 0.99191 -0.54600
C 	C 	0.21191 0.32714 0.86412 -0.13600
C 	C 	0.21409 0.35028 0.78050 0.08700
C 	C 	0.16314 0.30887 0.91181 -0.05900
C 	C 	0.25713 0.32232 0.90134 0.31500
H 	H 	0.16318 0.29346 0.97518 0.02200
S 	S 	0.22910 0.28777 0.44755 -0.47100
O 	O 	0.31847 0.37124 0.30774 -0.51200
O 	O 	0.27943 0.33810 0.17476 -0.54700
C 	C 	0.21811 0.33953 0.30255 -0.13800
C 	C 	0.19715 0.31639 0.38617 0.09000
C 	C 	0.18761 0.35780 0.25486 -0.05300
C 	C 	0.26815 0.34435 0.26533 0.31500
H 	H 	0.20306 0.37321 0.19149 0.02400
S 	S 	0.89577 0.62110 0.78088 -0.43700
O 	O 	0.98514 0.70457 0.64107 -0.47100
O 	O 	0.94610 0.67143 0.50809 -0.52600
C 	C 	0.88478 0.67286 0.63588 -0.12700
C 	C 	0.86382 0.64972 0.71950 0.09000
C 	C 	0.85428 0.69113 0.58819 -0.04900
C 	C 	0.93482 0.67768 0.59866 0.31700
H 	H 	0.86973 0.70654 0.52482 0.03200
S 	S 	0.56243 0.95444 0.11422 -0.44300
O 	O 	0.65180 0.03791 0.97441 -0.54000
O 	O 	0.61276 0.00477 0.84143 -0.57700
C 	C 	0.55144 0.00620 0.96922 -0.25800
C 	C 	0.53048 0.98306 0.05284 0.20400
C 	C 	0.52094 0.02447 0.92153 0.02200
C 	C 	0.60148 0.01102 0.93200 0.33900
H 	H 	0.53639 0.03988 0.85816 -0.00300
S 	S 	0.05867 0.77090 0.44755 -0.49700
O 	O 	0.05277 0.68153 0.30774 -0.53300
O 	O 	0.05867 0.72057 0.17476 -0.56000
C 	C 	0.12142 0.78189 0.30255 -0.14600
C 	C 	0.11924 0.80285 0.38617 0.10200
C 	C 	0.17019 0.81239 0.25486 -0.04400
C 	C 	0.07620 0.73185 0.26533 0.31600
H 	H 	0.17015 0.79694 0.19149 0.02200
S 	S 	0.72534 0.10423 0.78088 -0.47500
O 	O 	0.71944 0.01486 0.64107 -0.54800
O 	O 	0.72534 0.05390 0.50809 -0.56300
C 	C 	0.78809 0.11522 0.63588 -0.14600
C 	C 	0.78591 0.13618 0.71950 0.09600
C 	C 	0.83686 0.14572 0.58819 -0.04300
C 	C 	0.74287 0.06518 0.59866 0.31900
H 	H 	0.83682 0.13027 0.52482 0.02100
S 	S 	0.39200 0.43757 0.11422 -0.46000
O 	O 	0.38610 0.34820 0.97441 -0.51300
O 	O 	0.39200 0.38724 0.84143 -0.54500
C 	C 	0.45475 0.44856 0.96922 -0.13700
C 	C 	0.45257 0.46952 0.05284 0.09200
C 	C 	0.50352 0.47906 0.92153 -0.05100
C 	C 	0.40953 0.39852 0.93200 0.31700
H 	H 	0.50348 0.46361 0.85816 0.02500
S 	S 	0.71223 0.94133 0.44755 -0.41100
O 	O 	0.62876 0.94723 0.30774 -0.48600
O 	O 	0.66190 0.94133 0.17476 -0.52800
C 	C 	0.66047 0.87858 0.30255 -0.12600
C 	C 	0.68361 0.88076 0.38617 0.08300
C 	C 	0.64220 0.82981 0.25486 -0.05300
C 	C 	0.65565 0.92380 0.26533 0.31800
H 	H 	0.62679 0.82985 0.19149 0.02700
S 	S 	0.37890 0.27466 0.78088 -0.46100
O 	O 	0.29543 0.28056 0.64107 -0.51600
O 	O 	0.32857 0.27466 0.50809 -0.54600
C 	C 	0.32714 0.21191 0.63588 -0.13600
C 	C 	0.35028 0.21409 0.71950 0.08700
C 	C 	0.30887 0.16314 0.58819 -0.06000
C 	C 	0.32232 0.25713 0.59866 0.31500
H 	H 	0.29346 0.16318 0.52482 0.02200
S 	S 	0.04556 0.60800 0.11422 -0.46600
O 	O 	0.96209 0.61390 0.97441 -0.48700
O 	O 	0.99523 0.60800 0.84143 -0.50200
C 	C 	0.99380 0.54525 0.96922 -0.01500
C 	C 	0.01694 0.54743 0.05284 -0.02300
C 	C 	0.97553 0.49648 0.92153 -0.12200
C 	C 	0.98898 0.59047 0.93200 0.29100
H 	H 	0.96012 0.49652 0.85816 0.05400
S 	S 	0.71223 0.77090 0.94755 -0.44900
O 	O 	0.62876 0.68153 0.80774 -0.51300
O 	O 	0.66190 0.72057 0.67476 -0.54300
C 	C 	0.66047 0.78189 0.80255 -0.13600
C 	C 	0.68361 0.80285 0.88617 0.09400
C 	C 	0.64220 0.81239 0.75486 -0.04700
C 	C 	0.65565 0.73185 0.76533 0.31900
H 	H 	0.62679 0.79694 0.69149 0.02500
S 	S 	0.37890 0.10423 0.28088 -0.47400
O 	O 	0.29543 0.01486 0.14107 -0.54900
O 	O 	0.32857 0.05390 0.00809 -0.56300
C 	C 	0.32714 0.11522 0.13588 -0.14500
C 	C 	0.35028 0.13618 0.21950 0.09200
C 	C 	0.30887 0.14572 0.08819 -0.05200
C 	C 	0.32232 0.06518 0.09866 0.31600
H 	H 	0.29346 0.13027 0.02482 0.01800
S 	S 	0.04556 0.43757 0.61422 -0.46400
O 	O 	0.96209 0.34820 0.47441 -0.48500
O 	O 	0.99523 0.38724 0.34143 -0.50000
C 	C 	0.99380 0.44856 0.46922 -0.01200
C 	C 	0.01694 0.46952 0.55284 -0.02400
C 	C 	0.97553 0.47906 0.42153 -0.12400
C 	C 	0.98898 0.39852 0.43200 0.29100
H 	H 	0.96012 0.46361 0.35816 0.05500
S 	S 	0.22910 0.94133 0.94755 -0.41900
O 	O 	0.31847 0.94723 0.80774 -0.48400
O 	O 	0.27943 0.94133 0.67476 -0.52900
C 	C 	0.21811 0.87858 0.80255 -0.12700
C 	C 	0.19715 0.88076 0.88617 0.08100
C 	C 	0.18761 0.82981 0.75486 -0.05600
C 	C 	0.26815 0.92380 0.76533 0.31700
H 	H 	0.20306 0.82985 0.69149 0.02700
S 	S 	0.89577 0.27466 0.28088 -0.43600
O 	O 	0.98514 0.28056 0.14107 -0.47100
O 	O 	0.94610 0.27466 0.00809 -0.52500
C 	C 	0.88478 0.21191 0.13588 -0.12500
C 	C 	0.86382 0.21409 0.21950 0.08600
C 	C 	0.85428 0.16314 0.08819 -0.05800
C 	C 	0.93482 0.25713 0.09866 0.31500
H 	H 	0.86973 0.16318 0.02482 0.03000
S 	S 	0.56243 0.60800 0.61422 -0.46000
O 	O 	0.65180 0.61390 0.47441 -0.51300
O 	O 	0.61276 0.60800 0.34143 -0.54500
C 	C 	0.55144 0.54525 0.46922 -0.13700
C 	C 	0.53048 0.54743 0.55284 0.09200
C 	C 	0.52094 0.49648 0.42153 -0.05000
C 	C 	0.60148 0.59047 0.43200 0.31700
H 	H 	0.53639 0.49652 0.35816 0.02500
S 	S 	0.05867 0.28777 0.94755 -0.50600
O 	O 	0.05277 0.37124 0.80774 -0.53100
O 	O 	0.05867 0.33810 0.67476 -0.56100
C 	C 	0.12142 0.33953 0.80255 -0.14600
C 	C 	0.11924 0.31639 0.88617 0.10000
C 	C 	0.17019 0.35780 0.75486 -0.04800
C 	C 	0.07620 0.34435 0.76533 0.31400
H 	H 	0.17015 0.37321 0.69149 0.02300
S 	S 	0.72534 0.62110 0.28088 -0.45900
O 	O 	0.71944 0.70457 0.14107 -0.51000
O 	O 	0.72534 0.67143 0.00809 -0.54400
C 	C 	0.78809 0.67286 0.13588 -0.13800
C 	C 	0.78591 0.64972 0.21950 0.09600
C 	C 	0.83686 0.69113 0.08819 -0.04100
C 	C 	0.74287 0.67768 0.09866 0.31900
H 	H 	0.83682 0.70654 0.02482 0.02700
S 	S 	0.39200 0.95444 0.61422 -0.44200
O 	O 	0.38610 0.03791 0.47441 -0.53900
O 	O 	0.39200 0.00477 0.34143 -0.57500
C 	C 	0.45475 0.00620 0.46922 -0.25900
C 	C 	0.45257 0.98306 0.55284 0.20600
C 	C 	0.50352 0.02447 0.42153 0.02300
C 	C 	0.40953 0.01102 0.43200 0.34000
H 	H 	0.50348 0.03988 0.35816 -0.00300
S 	S 	0.77090 0.71223 0.55245 -0.44800
O 	O 	0.68153 0.62876 0.69226 -0.51300
O 	O 	0.72057 0.66190 0.82524 -0.54300
C 	C 	0.78189 0.66047 0.69745 -0.13600
C 	C 	0.80285 0.68361 0.61383 0.09400
C 	C 	0.81239 0.64220 0.74514 -0.04700
C 	C 	0.73185 0.65565 0.73467 0.31800
H 	H 	0.79694 0.62679 0.80851 0.02500
S 	S 	0.43757 0.04556 0.88578 -0.46500
O 	O 	0.34820 0.96209 0.02559 -0.48700
O 	O 	0.38724 0.99523 0.15857 -0.50200
C 	C 	0.44856 0.99380 0.03078 -0.01600
C 	C 	0.46952 0.01694 0.94716 -0.02200
C 	C 	0.47906 0.97553 0.07847 -0.12200
C 	C 	0.39852 0.98898 0.06800 0.29200
H 	H 	0.46361 0.96012 0.14184 0.05400
S 	S 	0.10423 0.37890 0.21912 -0.47500
O 	O 	0.01486 0.29543 0.35893 -0.55100
O 	O 	0.05390 0.32857 0.49191 -0.56500
C 	C 	0.11522 0.32714 0.36412 -0.14500
C 	C 	0.13618 0.35028 0.28050 0.09200
C 	C 	0.14572 0.30887 0.41181 -0.05200
C 	C 	0.06518 0.32232 0.40134 0.31700
H 	H 	0.13027 0.29346 0.47518 0.01800
S 	S 	0.94133 0.22910 0.55245 -0.42200
O 	O 	0.94723 0.31847 0.69226 -0.48500
O 	O 	0.94133 0.27943 0.82524 -0.53100
C 	C 	0.87858 0.21811 0.69745 -0.12800
C 	C 	0.88076 0.19715 0.61383 0.08100
C 	C 	0.82981 0.18761 0.74514 -0.05600
C 	C 	0.92380 0.26815 0.73467 0.31700
H 	H 	0.82985 0.20306 0.80851 0.02600
S 	S 	0.60800 0.56243 0.88578 -0.46000
O 	O 	0.61390 0.65180 0.02559 -0.51300
O 	O 	0.60800 0.61276 0.15857 -0.54500
C 	C 	0.54525 0.55144 0.03078 -0.13700
C 	C 	0.54743 0.53048 0.94716 0.09200
C 	C 	0.49648 0.52094 0.07847 -0.05000
C 	C 	0.59047 0.60148 0.06800 0.31700
H 	H 	0.49652 0.53639 0.14184 0.02500
S 	S 	0.27466 0.89577 0.21912 -0.43800
O 	O 	0.28056 0.98514 0.35893 -0.47300
O 	O 	0.27466 0.94610 0.49191 -0.52700
C 	C 	0.21191 0.88478 0.36412 -0.12600
C 	C 	0.21409 0.86382 0.28050 0.08500
C 	C 	0.16314 0.85428 0.41181 -0.05900
C 	C 	0.25713 0.93482 0.40134 0.31500
H 	H 	0.16318 0.86973 0.47518 0.02900
S 	S 	0.28777 0.05867 0.55245 -0.50800
O 	O 	0.37124 0.05277 0.69226 -0.53300
O 	O 	0.33810 0.05867 0.82524 -0.56100
C 	C 	0.33953 0.12142 0.69745 -0.14700
C 	C 	0.31639 0.11924 0.61383 0.10000
C 	C 	0.35780 0.17019 0.74514 -0.04800
C 	C 	0.34435 0.07620 0.73467 0.31400
H 	H 	0.37321 0.17015 0.80851 0.02200
S 	S 	0.95444 0.39200 0.88578 -0.44400
O 	O 	0.03791 0.38610 0.02559 -0.53900
O 	O 	0.00477 0.39200 0.15857 -0.57600
C 	C 	0.00620 0.45475 0.03078 -0.25700
C 	C 	0.98306 0.45257 0.94716 0.20400
C 	C 	0.02447 0.50352 0.07847 0.02200
C 	C 	0.01102 0.40953 0.06800 0.33900
H 	H 	0.03988 0.50348 0.14184 -0.00300
S 	S 	0.62110 0.72534 0.21912 -0.45900
O 	O 	0.70457 0.71944 0.35893 -0.50900
O 	O 	0.67143 0.72534 0.49191 -0.54400
C 	C 	0.67286 0.78809 0.36412 -0.13800
C 	C 	0.64972 0.78591 0.28050 0.09600
C 	C 	0.69113 0.83686 0.41181 -0.04100
C 	C 	0.67768 0.74287 0.40134 0.31900
H 	H 	0.70654 0.83682 0.47518 0.02700
Mn	Mn	0.31254 0.33333 0.08333 1.32100
Mn	Mn	0.66667 0.97920 0.08333 1.33900
Mn	Mn	0.33333 0.31254 0.41667 1.32100
Mn	Mn	0.02080 0.68746 0.08333 1.30100
Mn	Mn	0.35413 0.35413 0.75000 1.32100
Mn	Mn	0.00000 0.64587 0.75000 1.29700
Mn	Mn	0.97920 0.66667 0.41667 1.34000
Mn	Mn	0.64587 0.00000 0.75000 1.29500
Mn	Mn	0.68746 0.02080 0.41667 1.30300
Mn	Mn	0.68746 0.66667 0.91667 1.32100
Mn	Mn	0.35413 0.00000 0.25000 1.29600
Mn	Mn	0.02080 0.33333 0.58333 1.30200
Mn	Mn	0.33333 0.02080 0.91667 1.30200
Mn	Mn	0.00000 0.35413 0.25000 1.29500
Mn	Mn	0.97920 0.31254 0.91667 1.33900
Mn	Mn	0.64587 0.64587 0.25000 1.32100
Mn	Mn	0.66667 0.68746 0.58333 1.32100
Mn	Mn	0.31254 0.97920 0.58333 1.34000
Mn	Mn	0.40265 0.40265 0.25000 1.22200
Mn	Mn	0.06932 0.73598 0.58333 1.21400
Mn	Mn	0.73598 0.06932 0.91667 1.21200
Mn	Mn	0.59735 0.00000 0.25000 1.19800
Mn	Mn	0.26402 0.33333 0.58333 1.22000
Mn	Mn	0.93068 0.66667 0.91667 1.23000
Mn	Mn	0.00000 0.59735 0.25000 1.19700
Mn	Mn	0.66667 0.93068 0.58333 1.23100
Mn	Mn	0.33333 0.26402 0.91667 1.22000
Mn	Mn	0.59735 0.59735 0.75000 1.22200
Mn	Mn	0.26402 0.93068 0.08333 1.22900
Mn	Mn	0.93068 0.26402 0.41667 1.23000
Mn	Mn	0.40265 0.00000 0.75000 1.19700
Mn	Mn	0.06932 0.33333 0.08333 1.21200
Mn	Mn	0.73598 0.66667 0.41667 1.22300
Mn	Mn	0.00000 0.40265 0.75000 1.19800
Mn	Mn	0.66667 0.73598 0.08333 1.22200
Mn	Mn	0.33333 0.06932 0.41667 1.21200
