data_crystal

_cell_length_a 27.32380
_cell_length_b 27.32380
_cell_length_c 15.10360
_cell_angle_alpha 90.00000
_cell_angle_beta  90.00000
_cell_angle_gamma 120.00000

_symmetry_space_group_name_	'P 1'
_symmetry_space_group_name_H-M	'P 1'

loop_
_symmetry_equiv_pos_as_xyz
  x,y,z

loop_
_atom_site_label
_atom_site_type_symbol
_atom_site_fract_x
_atom_site_fract_y
_atom_site_fract_z
_atom_site_charge
S 	S 	0.28290 0.23630 0.09150 -0.40800
O 	O 	0.36870 0.31790 0.19150 -0.55200
O 	O 	0.33680 0.27270 0.32540 -0.55900
C 	C 	0.34001 0.22198 0.20192 -0.13600
C 	C 	0.31580 0.19726 0.12048 0.04700
C 	C 	0.35731 0.18714 0.23807 -0.04200
C 	C 	0.34506 0.27219 0.23844 0.38600
S 	S 	0.94957 0.56963 0.42483 -0.36800
O 	O 	0.03537 0.65123 0.52483 -0.58000
O 	O 	0.00347 0.60603 0.65873 -0.58900
C 	C 	0.00668 0.55531 0.53525 -0.23600
C 	C 	0.98247 0.53059 0.45381 0.14100
C 	C 	0.02397 0.52047 0.57140 -0.00400
C 	C 	0.01173 0.60552 0.57177 0.40600
S 	S 	0.61623 0.90297 0.75817 -0.36600
O 	O 	0.70203 0.98457 0.85817 -0.51000
O 	O 	0.67013 0.93937 0.99207 -0.54000
C 	C 	0.67335 0.88864 0.86858 -0.12800
C 	C 	0.64913 0.86393 0.78714 0.04400
C 	C 	0.69064 0.85381 0.90474 -0.03000
C 	C 	0.67839 0.93886 0.90511 0.38600
S 	S 	0.76370 0.04660 0.09150 -0.43200
O 	O 	0.68210 0.05080 0.19150 -0.57000
O 	O 	0.72730 0.06410 0.32540 -0.57000
C 	C 	0.77802 0.11804 0.20192 -0.14100
C 	C 	0.80274 0.11854 0.12048 0.05600
C 	C 	0.81286 0.17017 0.23807 -0.03400
C 	C 	0.72781 0.07287 0.23844 0.38600
S 	S 	0.43037 0.37993 0.42483 -0.39400
O 	O 	0.34877 0.38413 0.52483 -0.55200
O 	O 	0.39397 0.39743 0.65873 -0.55700
C 	C 	0.44469 0.45137 0.53525 -0.13500
C 	C 	0.46941 0.45187 0.45381 0.04700
C 	C 	0.47953 0.50350 0.57140 -0.03900
C 	C 	0.39448 0.40620 0.57177 0.38600
S 	S 	0.09703 0.71327 0.75817 -0.41000
O 	O 	0.01543 0.71747 0.85817 -0.58400
O 	O 	0.06063 0.73077 0.99207 -0.57000
C 	C 	0.11136 0.78470 0.86858 -0.14200
C 	C 	0.13607 0.78521 0.78714 0.05000
C 	C 	0.14619 0.83684 0.90474 -0.03400
C 	C 	0.06114 0.73954 0.90511 0.38800
S 	S 	0.95340 0.71710 0.09150 -0.34100
O 	O 	0.94920 0.63130 0.19150 -0.52400
O 	O 	0.93590 0.66320 0.32540 -0.54000
C 	C 	0.88196 0.65999 0.20192 -0.12600
C 	C 	0.88146 0.68420 0.12048 0.03700
C 	C 	0.82983 0.64269 0.23807 -0.03800
C 	C 	0.92713 0.65494 0.23844 0.38500
S 	S 	0.62007 0.05043 0.42483 -0.41200
O 	O 	0.61587 0.96463 0.52483 -0.52200
O 	O 	0.60257 0.99653 0.65873 -0.51200
C 	C 	0.54863 0.99332 0.53525 -0.03300
C 	C 	0.54813 0.01753 0.45381 -0.04700
C 	C 	0.49650 0.97603 0.57140 -0.07000
C 	C 	0.59380 0.98827 0.57177 0.36300
S 	S 	0.28673 0.38377 0.75817 -0.39500
O 	O 	0.28253 0.29797 0.85817 -0.55500
O 	O 	0.26923 0.32987 0.99207 -0.55800
C 	C 	0.21530 0.32665 0.86858 -0.13300
C 	C 	0.21479 0.35087 0.78714 0.04300
C 	C 	0.16316 0.30936 0.90474 -0.05100
C 	C 	0.26046 0.32161 0.90511 0.38400
S 	S 	0.23630 0.28290 0.40850 -0.40700
O 	O 	0.31790 0.36870 0.30850 -0.55200
O 	O 	0.27270 0.33680 0.17460 -0.55900
C 	C 	0.22198 0.34001 0.29808 -0.13600
C 	C 	0.19726 0.31580 0.37952 0.04700
C 	C 	0.18714 0.35731 0.26193 -0.04200
C 	C 	0.27219 0.34506 0.26156 0.38500
S 	S 	0.90297 0.61623 0.74183 -0.36700
O 	O 	0.98457 0.70203 0.64183 -0.51100
O 	O 	0.93937 0.67013 0.50793 -0.54000
C 	C 	0.88864 0.67335 0.63142 -0.12800
C 	C 	0.86393 0.64913 0.71286 0.04400
C 	C 	0.85381 0.69064 0.59526 -0.02900
C 	C 	0.93886 0.67839 0.59489 0.38600
S 	S 	0.56963 0.94957 0.07517 -0.37000
O 	O 	0.65123 0.03537 0.97517 -0.58100
O 	O 	0.60603 0.00347 0.84127 -0.59000
C 	C 	0.55531 0.00668 0.96475 -0.23500
C 	C 	0.53059 0.98247 0.04619 0.13900
C 	C 	0.52047 0.02397 0.92860 -0.00600
C 	C 	0.60552 0.01173 0.92823 0.40600
S 	S 	0.04660 0.76370 0.40850 -0.43500
O 	O 	0.05080 0.68210 0.30850 -0.57200
O 	O 	0.06410 0.72730 0.17460 -0.57100
C 	C 	0.11804 0.77802 0.29808 -0.14100
C 	C 	0.11854 0.80274 0.37952 0.05600
C 	C 	0.17017 0.81286 0.26193 -0.03500
C 	C 	0.07287 0.72781 0.26156 0.38600
S 	S 	0.71327 0.09703 0.74183 -0.41200
O 	O 	0.71747 0.01543 0.64183 -0.58600
O 	O 	0.73077 0.06063 0.50793 -0.57300
C 	C 	0.78470 0.11136 0.63142 -0.14200
C 	C 	0.78521 0.13607 0.71286 0.05000
C 	C 	0.83684 0.14619 0.59526 -0.03500
C 	C 	0.73954 0.06114 0.59489 0.38800
S 	S 	0.37993 0.43037 0.07517 -0.39500
O 	O 	0.38413 0.34877 0.97517 -0.55200
O 	O 	0.39743 0.39397 0.84127 -0.55700
C 	C 	0.45137 0.44469 0.96475 -0.13500
C 	C 	0.45187 0.46941 0.04619 0.04700
C 	C 	0.50350 0.47953 0.92860 -0.03900
C 	C 	0.40620 0.39448 0.92823 0.38600
S 	S 	0.71710 0.95340 0.40850 -0.34100
O 	O 	0.63130 0.94920 0.30850 -0.52600
O 	O 	0.66320 0.93590 0.17460 -0.54100
C 	C 	0.65999 0.88196 0.29808 -0.12700
C 	C 	0.68420 0.88146 0.37952 0.03700
C 	C 	0.64269 0.82983 0.26193 -0.03800
C 	C 	0.65494 0.92713 0.26156 0.38500
S 	S 	0.38377 0.28673 0.74183 -0.39500
O 	O 	0.29797 0.28253 0.64183 -0.55500
O 	O 	0.32987 0.26923 0.50793 -0.55900
C 	C 	0.32665 0.21530 0.63142 -0.13300
C 	C 	0.35087 0.21479 0.71286 0.04300
C 	C 	0.30936 0.16316 0.59526 -0.05200
C 	C 	0.32161 0.26046 0.59489 0.38400
S 	S 	0.05043 0.62007 0.07517 -0.41300
O 	O 	0.96463 0.61587 0.97517 -0.52400
O 	O 	0.99653 0.60257 0.84127 -0.51400
C 	C 	0.99332 0.54863 0.96475 -0.03500
C 	C 	0.01753 0.54813 0.04619 -0.04500
C 	C 	0.97603 0.49650 0.92860 -0.07000
C 	C 	0.98827 0.59380 0.92823 0.36300
S 	S 	0.71710 0.76370 0.90850 -0.38200
O 	O 	0.63130 0.68210 0.80850 -0.55200
O 	O 	0.66320 0.72730 0.67460 -0.55500
C 	C 	0.65999 0.77802 0.79808 -0.13400
C 	C 	0.68420 0.80274 0.87952 0.04700
C 	C 	0.64269 0.81286 0.76193 -0.03400
C 	C 	0.65494 0.72781 0.76156 0.38700
S 	S 	0.38377 0.09703 0.24183 -0.41100
O 	O 	0.29797 0.01543 0.14183 -0.58700
O 	O 	0.32987 0.06063 0.00793 -0.57300
C 	C 	0.32665 0.11136 0.13142 -0.13900
C 	C 	0.35087 0.13607 0.21286 0.04600
C 	C 	0.30936 0.14619 0.09526 -0.04800
C 	C 	0.32161 0.06114 0.09489 0.38500
S 	S 	0.05043 0.43037 0.57517 -0.41200
O 	O 	0.96463 0.34877 0.47517 -0.52200
O 	O 	0.99653 0.39397 0.34127 -0.51200
C 	C 	0.99332 0.44469 0.46475 -0.03300
C 	C 	0.01753 0.46941 0.54619 -0.04700
C 	C 	0.97603 0.47953 0.42860 -0.07000
C 	C 	0.98827 0.39448 0.42823 0.36300
S 	S 	0.23630 0.95340 0.90850 -0.35000
O 	O 	0.31790 0.94920 0.80850 -0.52300
O 	O 	0.27270 0.93590 0.67460 -0.54200
C 	C 	0.22198 0.88196 0.79808 -0.12800
C 	C 	0.19726 0.88146 0.87952 0.03700
C 	C 	0.18714 0.82983 0.76193 -0.04100
C 	C 	0.27219 0.92713 0.76156 0.38500
S 	S 	0.90297 0.28673 0.24183 -0.36600
O 	O 	0.98457 0.28253 0.14183 -0.51200
O 	O 	0.93937 0.26923 0.00793 -0.53900
C 	C 	0.88864 0.21530 0.13142 -0.12600
C 	C 	0.86393 0.21479 0.21286 0.04000
C 	C 	0.85381 0.16316 0.09526 -0.04100
C 	C 	0.93886 0.26046 0.09489 0.38300
S 	S 	0.56963 0.62007 0.57517 -0.39400
O 	O 	0.65123 0.61587 0.47517 -0.55200
O 	O 	0.60603 0.60257 0.34127 -0.55700
C 	C 	0.55531 0.54863 0.46475 -0.13500
C 	C 	0.53059 0.54813 0.54619 0.04700
C 	C 	0.52047 0.49650 0.42860 -0.03900
C 	C 	0.60552 0.59380 0.42823 0.38600
S 	S 	0.04660 0.28290 0.90850 -0.44600
O 	O 	0.05080 0.36870 0.80850 -0.57000
O 	O 	0.06410 0.33680 0.67460 -0.57200
C 	C 	0.11804 0.34001 0.79808 -0.14200
C 	C 	0.11854 0.31580 0.87952 0.05600
C 	C 	0.17017 0.35731 0.76193 -0.03900
C 	C 	0.07287 0.34506 0.76156 0.38600
S 	S 	0.71327 0.61623 0.24183 -0.39300
O 	O 	0.71747 0.70203 0.14183 -0.54900
O 	O 	0.73077 0.67013 0.00793 -0.55600
C 	C 	0.78470 0.67335 0.13142 -0.13700
C 	C 	0.78521 0.64913 0.21286 0.05000
C 	C 	0.83684 0.69064 0.09526 -0.02600
C 	C 	0.73954 0.67839 0.09489 0.38900
S 	S 	0.37993 0.94957 0.57517 -0.36800
O 	O 	0.38413 0.03537 0.47517 -0.58000
O 	O 	0.39743 0.00347 0.34127 -0.58800
C 	C 	0.45137 0.00668 0.46475 -0.23600
C 	C 	0.45187 0.98247 0.54619 0.14100
C 	C 	0.50350 0.02397 0.42860 -0.00400
C 	C 	0.40620 0.01173 0.42823 0.40600
S 	S 	0.76370 0.71710 0.59150 -0.38200
O 	O 	0.68210 0.63130 0.69150 -0.55200
O 	O 	0.72730 0.66320 0.82540 -0.55500
C 	C 	0.77802 0.65999 0.70192 -0.13400
C 	C 	0.80274 0.68420 0.62048 0.04600
C 	C 	0.81286 0.64269 0.73807 -0.03400
C 	C 	0.72781 0.65494 0.73844 0.38700
S 	S 	0.43037 0.05043 0.92483 -0.41200
O 	O 	0.34877 0.96463 0.02483 -0.52400
O 	O 	0.39397 0.99653 0.15873 -0.51300
C 	C 	0.44469 0.99332 0.03525 -0.03500
C 	C 	0.46941 0.01753 0.95381 -0.04500
C 	C 	0.47953 0.97603 0.07140 -0.07000
C 	C 	0.39448 0.98827 0.07177 0.36300
S 	S 	0.09703 0.38377 0.25817 -0.41200
O 	O 	0.01543 0.29797 0.35817 -0.58900
O 	O 	0.06063 0.32987 0.49207 -0.57400
C 	C 	0.11136 0.32665 0.36858 -0.14000
C 	C 	0.13607 0.35087 0.28714 0.04700
C 	C 	0.14619 0.30936 0.40474 -0.04800
C 	C 	0.06114 0.32161 0.40511 0.38500
S 	S 	0.95340 0.23630 0.59150 -0.35300
O 	O 	0.94920 0.31790 0.69150 -0.52500
O 	O 	0.93590 0.27270 0.82540 -0.54300
C 	C 	0.88196 0.22198 0.70192 -0.12800
C 	C 	0.88146 0.19726 0.62048 0.03700
C 	C 	0.82983 0.18714 0.73807 -0.04200
C 	C 	0.92713 0.27219 0.73844 0.38500
S 	S 	0.62007 0.56963 0.92483 -0.39500
O 	O 	0.61587 0.65123 0.02483 -0.55200
O 	O 	0.60257 0.60603 0.15873 -0.55700
C 	C 	0.54863 0.55531 0.03525 -0.13500
C 	C 	0.54813 0.53059 0.95381 0.04700
C 	C 	0.49650 0.52047 0.07140 -0.03900
C 	C 	0.59380 0.60552 0.07177 0.38600
S 	S 	0.28673 0.90297 0.25817 -0.36800
O 	O 	0.28253 0.98457 0.35817 -0.51400
O 	O 	0.26923 0.93937 0.49207 -0.54100
C 	C 	0.21530 0.88864 0.36858 -0.12600
C 	C 	0.21479 0.86393 0.28714 0.04000
C 	C 	0.16316 0.85381 0.40474 -0.04200
C 	C 	0.26046 0.93886 0.40511 0.38300
S 	S 	0.28290 0.04660 0.59150 -0.44800
O 	O 	0.36870 0.05080 0.69150 -0.57100
O 	O 	0.33680 0.06410 0.82540 -0.57300
C 	C 	0.34001 0.11804 0.70192 -0.14200
C 	C 	0.31580 0.11854 0.62048 0.05600
C 	C 	0.35731 0.17017 0.73807 -0.03900
C 	C 	0.34506 0.07287 0.73844 0.38600
S 	S 	0.94957 0.37993 0.92483 -0.37100
O 	O 	0.03537 0.38413 0.02483 -0.58000
O 	O 	0.00347 0.39743 0.15873 -0.58900
C 	C 	0.00668 0.45137 0.03525 -0.23400
C 	C 	0.98247 0.45187 0.95381 0.13900
C 	C 	0.02397 0.50350 0.07140 -0.00600
C 	C 	0.01173 0.40620 0.07177 0.40600
S 	S 	0.61623 0.71327 0.25817 -0.39400
O 	O 	0.70203 0.71747 0.35817 -0.54900
O 	O 	0.67013 0.73077 0.49207 -0.55600
C 	C 	0.67335 0.78470 0.36858 -0.13700
C 	C 	0.64913 0.78521 0.28714 0.05000
C 	C 	0.69064 0.83684 0.40474 -0.02500
C 	C 	0.67839 0.73954 0.40511 0.38900
Mn	Mn	0.30980 0.33333 0.08333 1.31700
Mn	Mn	0.66667 0.97647 0.08333 1.33500
Mn	Mn	0.33333 0.30980 0.41667 1.31700
Mn	Mn	0.02353 0.69020 0.08333 1.29700
Mn	Mn	0.35687 0.35687 0.75000 1.31700
Mn	Mn	-0.00000 0.64313 0.75000 1.29300
Mn	Mn	0.97647 0.66667 0.41667 1.33700
Mn	Mn	0.64313 0.00000 0.75000 1.29200
Mn	Mn	0.69020 0.02353 0.41667 1.29800
Mn	Mn	0.69020 0.66667 0.91667 1.31700
Mn	Mn	0.35687 0.00000 0.25000 1.29300
Mn	Mn	0.02353 0.33333 0.58333 1.29800
Mn	Mn	0.33333 0.02353 0.91667 1.29800
Mn	Mn	0.00000 0.35687 0.25000 1.29100
Mn	Mn	0.97647 0.30980 0.91667 1.33500
Mn	Mn	0.64313 0.64313 0.25000 1.31700
Mn	Mn	0.66667 0.69020 0.58333 1.31700
Mn	Mn	0.30980 0.97647 0.58333 1.33700
Mn	Mn	0.40650 0.40650 0.25000 1.17100
Mn	Mn	0.07317 0.73983 0.58333 1.16300
Mn	Mn	0.73983 0.07317 0.91667 1.16100
Mn	Mn	0.59350 0.00000 0.25000 1.14900
Mn	Mn	0.26017 0.33333 0.58333 1.16900
Mn	Mn	0.92683 0.66667 0.91667 1.18100
Mn	Mn	-0.00000 0.59350 0.25000 1.14800
Mn	Mn	0.66667 0.92683 0.58333 1.18200
Mn	Mn	0.33333 0.26017 0.91667 1.16900
Mn	Mn	0.59350 0.59350 0.75000 1.17100
Mn	Mn	0.26017 0.92683 0.08333 1.17900
Mn	Mn	0.92683 0.26017 0.41667 1.18000
Mn	Mn	0.40650 0.00000 0.75000 1.14800
Mn	Mn	0.07317 0.33333 0.08333 1.16000
Mn	Mn	0.73983 0.66667 0.41667 1.17300
Mn	Mn	-0.00000 0.40650 0.75000 1.14900
Mn	Mn	0.66667 0.73983 0.08333 1.17200
Mn	Mn	0.33333 0.07317 0.41667 1.16100
