data_crystal

_cell_length_a 17.11680
_cell_length_b 17.11680
_cell_length_c 17.11680
_cell_angle_alpha 90.00000
_cell_angle_beta  90.00000
_cell_angle_gamma 90.00000

_symmetry_space_group_name_	'P 1'
_symmetry_space_group_name_H-M	'P 1'

loop_
_symmetry_equiv_pos_as_xyz
  x,y,z

loop_
_atom_site_label
_atom_site_type_symbol
_atom_site_fract_x
_atom_site_fract_y
_atom_site_fract_z
_atom_site_charge
N 	N 	0.01540 0.40710 0.31760 -0.48000
N 	N 	0.08200 0.36530 0.31300 -0.11400
H 	H 	0.88190 0.37010 0.44480 0.36700
H 	H 	0.89860 0.45490 0.41450 0.36900
H 	H 	0.86220 0.39250 0.35820 0.37900
N 	N 	0.51540 0.90710 0.81760 -0.38700
N 	N 	0.58200 0.86530 0.81300 -0.10500
H 	H 	0.38190 0.87010 0.94480 0.36900
H 	H 	0.39860 0.95490 0.91450 0.38800
H 	H 	0.36220 0.89250 0.85820 0.37400
N 	N 	0.98460 0.59290 0.31760 -0.26500
N 	N 	0.91800 0.63470 0.31300 -0.11300
H 	H 	0.11810 0.62990 0.44480 0.17400
H 	H 	0.10140 0.54510 0.41450 0.17200
H 	H 	0.13780 0.60750 0.35820 0.18900
N 	N 	0.48460 0.09290 0.81760 -0.39000
N 	N 	0.41800 0.13470 0.81300 -0.12300
H 	H 	0.61810 0.12990 0.94480 0.28400
H 	H 	0.60140 0.04510 0.91450 0.26700
H 	H 	0.63780 0.10750 0.85820 0.28700
N 	N 	0.98460 0.40710 0.68240 -0.26600
N 	N 	0.91800 0.36530 0.68700 -0.11700
H 	H 	0.11810 0.37010 0.55520 0.17500
H 	H 	0.10140 0.45490 0.58550 0.17200
H 	H 	0.13780 0.39250 0.64180 0.18800
N 	N 	0.48460 0.90710 0.18240 -0.36000
N 	N 	0.41800 0.86530 0.18700 -0.11200
H 	H 	0.61810 0.87010 0.05520 0.26600
H 	H 	0.60140 0.95490 0.08550 0.28300
H 	H 	0.63780 0.89250 0.14180 0.29000
N 	N 	0.01540 0.59290 0.68240 -0.48000
N 	N 	0.08200 0.63470 0.68700 -0.11800
H 	H 	0.88190 0.62990 0.55520 0.36200
H 	H 	0.89860 0.54510 0.58550 0.36500
H 	H 	0.86220 0.60750 0.64180 0.37400
N 	N 	0.51540 0.09290 0.18240 -0.35500
N 	N 	0.58200 0.13470 0.18700 -0.12500
H 	H 	0.38190 0.12990 0.05520 0.16000
H 	H 	0.39860 0.04510 0.08550 0.14300
H 	H 	0.36220 0.10750 0.14180 0.18200
N 	N 	0.31760 0.01540 0.40710 -0.48100
N 	N 	0.31300 0.08200 0.36530 -0.11500
H 	H 	0.44480 0.88190 0.37010 0.36600
H 	H 	0.41450 0.89860 0.45490 0.36800
H 	H 	0.35820 0.86220 0.39250 0.37800
N 	N 	0.81760 0.51540 0.90710 -0.38800
N 	N 	0.81300 0.58200 0.86530 -0.10600
H 	H 	0.94480 0.38190 0.87010 0.36800
H 	H 	0.91450 0.39860 0.95490 0.38700
H 	H 	0.85820 0.36220 0.89250 0.37300
N 	N 	0.31760 0.98460 0.59290 -0.26600
N 	N 	0.31300 0.91800 0.63470 -0.11400
H 	H 	0.44480 0.11810 0.62990 0.17400
H 	H 	0.41450 0.10140 0.54510 0.17200
H 	H 	0.35820 0.13780 0.60750 0.18900
N 	N 	0.81760 0.48460 0.09290 -0.39000
N 	N 	0.81300 0.41800 0.13470 -0.12300
H 	H 	0.94480 0.61810 0.12990 0.28400
H 	H 	0.91450 0.60140 0.04510 0.26700
H 	H 	0.85820 0.63780 0.10750 0.28700
N 	N 	0.68240 0.98460 0.40710 -0.26600
N 	N 	0.68700 0.91800 0.36530 -0.11700
H 	H 	0.55520 0.11810 0.37010 0.17500
H 	H 	0.58550 0.10140 0.45490 0.17200
H 	H 	0.64180 0.13780 0.39250 0.18800
N 	N 	0.18240 0.48460 0.90710 -0.36000
N 	N 	0.18700 0.41800 0.86530 -0.11200
H 	H 	0.05520 0.61810 0.87010 0.26600
H 	H 	0.08550 0.60140 0.95490 0.28300
H 	H 	0.14180 0.63780 0.89250 0.29000
N 	N 	0.68240 0.01540 0.59290 -0.48000
N 	N 	0.68700 0.08200 0.63470 -0.11800
H 	H 	0.55520 0.88190 0.62990 0.36200
H 	H 	0.58550 0.89860 0.54510 0.36500
H 	H 	0.64180 0.86220 0.60750 0.37400
N 	N 	0.18240 0.51540 0.09290 -0.35500
N 	N 	0.18700 0.58200 0.13470 -0.12500
H 	H 	0.05520 0.38190 0.12990 0.16000
H 	H 	0.08550 0.39860 0.04510 0.14300
H 	H 	0.14180 0.36220 0.10750 0.18200
N 	N 	0.40710 0.31760 0.01540 -0.48100
N 	N 	0.36530 0.31300 0.08200 -0.11500
H 	H 	0.37010 0.44480 0.88190 0.36600
H 	H 	0.45490 0.41450 0.89860 0.36800
H 	H 	0.39250 0.35820 0.86220 0.37800
N 	N 	0.90710 0.81760 0.51540 -0.38800
N 	N 	0.86530 0.81300 0.58200 -0.10600
H 	H 	0.87010 0.94480 0.38190 0.36800
H 	H 	0.95490 0.91450 0.39860 0.38700
H 	H 	0.89250 0.85820 0.36220 0.37300
N 	N 	0.59290 0.31760 0.98460 -0.26600
N 	N 	0.63470 0.31300 0.91800 -0.11400
H 	H 	0.62990 0.44480 0.11810 0.17400
H 	H 	0.54510 0.41450 0.10140 0.17200
H 	H 	0.60750 0.35820 0.13780 0.18900
N 	N 	0.09290 0.81760 0.48460 -0.39000
N 	N 	0.13470 0.81300 0.41800 -0.12300
H 	H 	0.12990 0.94480 0.61810 0.28400
H 	H 	0.04510 0.91450 0.60140 0.26700
H 	H 	0.10750 0.85820 0.63780 0.28700
N 	N 	0.40710 0.68240 0.98460 -0.26600
N 	N 	0.36530 0.68700 0.91800 -0.11700
H 	H 	0.37010 0.55520 0.11810 0.17500
H 	H 	0.45490 0.58550 0.10140 0.17200
H 	H 	0.39250 0.64180 0.13780 0.18800
N 	N 	0.90710 0.18240 0.48460 -0.36000
N 	N 	0.86530 0.18700 0.41800 -0.11200
H 	H 	0.87010 0.05520 0.61810 0.26600
H 	H 	0.95490 0.08550 0.60140 0.28300
H 	H 	0.89250 0.14180 0.63780 0.29000
N 	N 	0.59290 0.68240 0.01540 -0.48000
N 	N 	0.63470 0.68700 0.08200 -0.11800
H 	H 	0.62990 0.55520 0.88190 0.36200
H 	H 	0.54510 0.58550 0.89860 0.36500
H 	H 	0.60750 0.64180 0.86220 0.37400
N 	N 	0.09290 0.18240 0.51540 -0.35500
N 	N 	0.13470 0.18700 0.58200 -0.12500
H 	H 	0.12990 0.05520 0.38190 0.16000
H 	H 	0.04510 0.08550 0.39860 0.14300
H 	H 	0.10750 0.14180 0.36220 0.18200
N 	N 	0.40710 0.01540 0.31760 -0.48100
N 	N 	0.36530 0.08200 0.31300 -0.11500
H 	H 	0.37010 0.88190 0.44480 0.36600
H 	H 	0.45490 0.89860 0.41450 0.36800
H 	H 	0.39250 0.86220 0.35820 0.37800
N 	N 	0.90710 0.51540 0.81760 -0.38800
N 	N 	0.86530 0.58200 0.81300 -0.10600
H 	H 	0.87010 0.38190 0.94480 0.36800
H 	H 	0.95490 0.39860 0.91450 0.38700
H 	H 	0.89250 0.36220 0.85820 0.37300
N 	N 	0.59290 0.98460 0.31760 -0.26600
N 	N 	0.63470 0.91800 0.31300 -0.11400
H 	H 	0.62990 0.11810 0.44480 0.17400
H 	H 	0.54510 0.10140 0.41450 0.17200
H 	H 	0.60750 0.13780 0.35820 0.18900
N 	N 	0.09290 0.48460 0.81760 -0.39000
N 	N 	0.13470 0.41800 0.81300 -0.12300
H 	H 	0.12990 0.61810 0.94480 0.28400
H 	H 	0.04510 0.60140 0.91450 0.26700
H 	H 	0.10750 0.63780 0.85820 0.28700
N 	N 	0.40710 0.98460 0.68240 -0.26600
N 	N 	0.36530 0.91800 0.68700 -0.11700
H 	H 	0.37010 0.11810 0.55520 0.17500
H 	H 	0.45490 0.10140 0.58550 0.17200
H 	H 	0.39250 0.13780 0.64180 0.18800
N 	N 	0.90710 0.48460 0.18240 -0.36000
N 	N 	0.86530 0.41800 0.18700 -0.11200
H 	H 	0.87010 0.61810 0.05520 0.26600
H 	H 	0.95490 0.60140 0.08550 0.28300
H 	H 	0.89250 0.63780 0.14180 0.29000
N 	N 	0.59290 0.01540 0.68240 -0.48000
N 	N 	0.63470 0.08200 0.68700 -0.11800
H 	H 	0.62990 0.88190 0.55520 0.36200
H 	H 	0.54510 0.89860 0.58550 0.36500
H 	H 	0.60750 0.86220 0.64180 0.37400
N 	N 	0.09290 0.51540 0.18240 -0.35500
N 	N 	0.13470 0.58200 0.18700 -0.12500
H 	H 	0.12990 0.38190 0.05520 0.16000
H 	H 	0.04510 0.39860 0.08550 0.14300
H 	H 	0.10750 0.36220 0.14180 0.18200
N 	N 	0.01540 0.31760 0.40710 -0.48100
N 	N 	0.08200 0.31300 0.36530 -0.11500
H 	H 	0.88190 0.44480 0.37010 0.36600
H 	H 	0.89860 0.41450 0.45490 0.36800
H 	H 	0.86220 0.35820 0.39250 0.37800
N 	N 	0.51540 0.81760 0.90710 -0.38800
N 	N 	0.58200 0.81300 0.86530 -0.10600
H 	H 	0.38190 0.94480 0.87010 0.36800
H 	H 	0.39860 0.91450 0.95490 0.38700
H 	H 	0.36220 0.85820 0.89250 0.37300
N 	N 	0.98460 0.31760 0.59290 -0.26600
N 	N 	0.91800 0.31300 0.63470 -0.11400
H 	H 	0.11810 0.44480 0.62990 0.17400
H 	H 	0.10140 0.41450 0.54510 0.17200
H 	H 	0.13780 0.35820 0.60750 0.18900
N 	N 	0.48460 0.81760 0.09290 -0.39000
N 	N 	0.41800 0.81300 0.13470 -0.12300
H 	H 	0.61810 0.94480 0.12990 0.28400
H 	H 	0.60140 0.91450 0.04510 0.26700
H 	H 	0.63780 0.85820 0.10750 0.28700
N 	N 	0.98460 0.68240 0.40710 -0.26600
N 	N 	0.91800 0.68700 0.36530 -0.11700
H 	H 	0.11810 0.55520 0.37010 0.17500
H 	H 	0.10140 0.58550 0.45490 0.17200
H 	H 	0.13780 0.64180 0.39250 0.18800
N 	N 	0.48460 0.18240 0.90710 -0.36000
N 	N 	0.41800 0.18700 0.86530 -0.11200
H 	H 	0.61810 0.05520 0.87010 0.26600
H 	H 	0.60140 0.08550 0.95490 0.28300
H 	H 	0.63780 0.14180 0.89250 0.29000
N 	N 	0.01540 0.68240 0.59290 -0.48000
N 	N 	0.08200 0.68700 0.63470 -0.11800
H 	H 	0.88190 0.55520 0.62990 0.36200
H 	H 	0.89860 0.58550 0.54510 0.36500
H 	H 	0.86220 0.64180 0.60750 0.37400
N 	N 	0.51540 0.18240 0.09290 -0.35500
N 	N 	0.58200 0.18700 0.13470 -0.12500
H 	H 	0.38190 0.05520 0.12990 0.16000
H 	H 	0.39860 0.08550 0.04510 0.14300
H 	H 	0.36220 0.14180 0.10750 0.18200
N 	N 	0.31760 0.40710 0.01540 -0.48100
N 	N 	0.31300 0.36530 0.08200 -0.11500
H 	H 	0.44480 0.37010 0.88190 0.36600
H 	H 	0.41450 0.45490 0.89860 0.36800
H 	H 	0.35820 0.39250 0.86220 0.37800
N 	N 	0.81760 0.90710 0.51540 -0.38800
N 	N 	0.81300 0.86530 0.58200 -0.10600
H 	H 	0.94480 0.87010 0.38190 0.36800
H 	H 	0.91450 0.95490 0.39860 0.38700
H 	H 	0.85820 0.89250 0.36220 0.37300
N 	N 	0.31760 0.59290 0.98460 -0.26600
N 	N 	0.31300 0.63470 0.91800 -0.11400
H 	H 	0.44480 0.62990 0.11810 0.17400
H 	H 	0.41450 0.54510 0.10140 0.17200
H 	H 	0.35820 0.60750 0.13780 0.18900
N 	N 	0.81760 0.09290 0.48460 -0.39000
N 	N 	0.81300 0.13470 0.41800 -0.12300
H 	H 	0.94480 0.12990 0.61810 0.28400
H 	H 	0.91450 0.04510 0.60140 0.26700
H 	H 	0.85820 0.10750 0.63780 0.28700
N 	N 	0.68240 0.40710 0.98460 -0.26600
N 	N 	0.68700 0.36530 0.91800 -0.11700
H 	H 	0.55520 0.37010 0.11810 0.17500
H 	H 	0.58550 0.45490 0.10140 0.17200
H 	H 	0.64180 0.39250 0.13780 0.18800
N 	N 	0.18240 0.90710 0.48460 -0.36000
N 	N 	0.18700 0.86530 0.41800 -0.11200
H 	H 	0.05520 0.87010 0.61810 0.26600
H 	H 	0.08550 0.95490 0.60140 0.28300
H 	H 	0.14180 0.89250 0.63780 0.29000
N 	N 	0.68240 0.59290 0.01540 -0.48000
N 	N 	0.68700 0.63470 0.08200 -0.11800
H 	H 	0.55520 0.62990 0.88190 0.36200
H 	H 	0.58550 0.54510 0.89860 0.36500
H 	H 	0.64180 0.60750 0.86220 0.37400
N 	N 	0.18240 0.09290 0.51540 -0.35500
N 	N 	0.18700 0.13470 0.58200 -0.12500
H 	H 	0.05520 0.12990 0.38190 0.16000
H 	H 	0.08550 0.04510 0.39860 0.14300
H 	H 	0.14180 0.10750 0.36220 0.18200
Zn	Zn	-0.00000 0.50000 0.25000 1.13800
Zn	Zn	-0.00000 0.50000 0.75000 1.13900
Zn	Zn	0.25000 -0.00000 0.50000 1.13800
Zn	Zn	0.75000 -0.00000 0.50000 1.13900
Zn	Zn	0.50000 0.25000 -0.00000 1.13800
Zn	Zn	0.50000 0.75000 -0.00000 1.13900
Zn	Zn	0.50000 -0.00000 0.25000 1.13800
Zn	Zn	0.50000 -0.00000 0.75000 1.13900
Zn	Zn	-0.00000 0.25000 0.50000 1.13800
Zn	Zn	-0.00000 0.75000 0.50000 1.13900
Zn	Zn	0.25000 0.50000 -0.00000 1.13800
Zn	Zn	0.75000 0.50000 -0.00000 1.13900
C 	C 	0.97850 0.37590 0.37590 0.82600
C 	C 	0.89810 0.40060 0.40060 -2.32200
C 	C 	0.47850 0.87590 0.87590 0.67500
C 	C 	0.39810 0.90060 0.90060 -2.27200
C 	C 	0.02150 0.62410 0.37590 0.22000
C 	C 	0.10190 0.59940 0.40060 -1.19700
C 	C 	0.52150 0.12410 0.87590 0.53000
C 	C 	0.60190 0.09940 0.90060 -1.78500
C 	C 	0.02150 0.37590 0.62410 0.22000
C 	C 	0.10190 0.40060 0.59940 -1.19700
C 	C 	0.52150 0.87590 0.12410 0.53000
C 	C 	0.60190 0.90060 0.09940 -1.78500
C 	C 	0.97850 0.62410 0.62410 0.82500
C 	C 	0.89810 0.59940 0.59940 -2.30500
C 	C 	0.47850 0.12410 0.12410 0.35700
C 	C 	0.39810 0.09940 0.09940 -1.19200
C 	C 	0.37590 0.97850 0.37590 0.82600
C 	C 	0.40060 0.89810 0.40060 -2.32200
C 	C 	0.87590 0.47850 0.87590 0.67500
C 	C 	0.90060 0.39810 0.90060 -2.27200
C 	C 	0.37590 0.02150 0.62410 0.22000
C 	C 	0.40060 0.10190 0.59940 -1.19700
C 	C 	0.87590 0.52150 0.12410 0.53000
C 	C 	0.90060 0.60190 0.09940 -1.78500
C 	C 	0.62410 0.02150 0.37590 0.22000
C 	C 	0.59940 0.10190 0.40060 -1.19700
C 	C 	0.12410 0.52150 0.87590 0.53000
C 	C 	0.09940 0.60190 0.90060 -1.78500
C 	C 	0.62410 0.97850 0.62410 0.82500
C 	C 	0.59940 0.89810 0.59940 -2.30500
C 	C 	0.12410 0.47850 0.12410 0.35700
C 	C 	0.09940 0.39810 0.09940 -1.19200
C 	C 	0.37590 0.37590 0.97850 0.82600
C 	C 	0.40060 0.40060 0.89810 -2.32200
C 	C 	0.87590 0.87590 0.47850 0.67500
C 	C 	0.90060 0.90060 0.39810 -2.27200
C 	C 	0.62410 0.37590 0.02150 0.22000
C 	C 	0.59940 0.40060 0.10190 -1.19700
C 	C 	0.12410 0.87590 0.52150 0.53000
C 	C 	0.09940 0.90060 0.60190 -1.78500
C 	C 	0.37590 0.62410 0.02150 0.22000
C 	C 	0.40060 0.59940 0.10190 -1.19700
C 	C 	0.87590 0.12410 0.52150 0.53000
C 	C 	0.90060 0.09940 0.60190 -1.78500
C 	C 	0.62410 0.62410 0.97850 0.82500
C 	C 	0.59940 0.59940 0.89810 -2.30500
C 	C 	0.12410 0.12410 0.47850 0.35700
C 	C 	0.09940 0.09940 0.39810 -1.19200
