data_crystal

_cell_length_a 13.39620
_cell_length_b 19.36370
_cell_length_c 22.58700
_cell_angle_alpha 90.00000
_cell_angle_beta  90.00000
_cell_angle_gamma 90.00000

_symmetry_space_group_name_	'P 1'
_symmetry_space_group_name_H-M	'P 1'

loop_
_symmetry_equiv_pos_as_xyz
  x,y,z

loop_
_atom_site_label
_atom_site_type_symbol
_atom_site_fract_x
_atom_site_fract_y
_atom_site_fract_z
_atom_site_charge
Au	Au	0.01106 0.75785 0.20754 0.27500
Au	Au	0.83874 0.58193 0.35282 0.29600
N 	N 	0.82270 0.55200 0.21810 -0.11200
N 	N 	0.79620 0.70450 0.18170 -0.11100
C 	C 	0.66830 0.61989 0.15220 -0.02500
C 	C 	0.69632 0.68136 0.17928 0.07000
C 	C 	0.62503 0.72212 0.20716 -0.08700
H 	H 	0.64420 0.76410 0.22570 0.06700
C 	C 	0.52570 0.70140 0.20797 -0.04900
H 	H 	0.47700 0.72930 0.22700 0.04400
C 	C 	0.49766 0.63994 0.18090 0.02200
C 	C 	0.56895 0.59917 0.15300 0.01300
C 	C 	0.54092 0.53771 0.12592 -0.06300
H 	H 	0.58960 0.50990 0.10690 0.05800
C 	C 	0.44160 0.51699 0.12672 -0.03400
H 	H 	0.42240 0.47500 0.10820 0.03900
C 	C 	0.37028 0.55780 0.15461 -0.02800
H 	H 	0.30240 0.54360 0.15520 0.03000
C 	C 	0.39831 0.61922 0.18170 -0.07300
H 	H 	0.34960 0.64710 0.20080 0.05000
C 	C 	0.90510 0.50340 0.06951 -0.05400
H 	H 	0.95770 0.47740 0.05220 0.03900
C 	C 	0.89570 0.50652 0.13073 -0.09200
H 	H 	0.94180 0.48270 0.15530 0.05400
C 	C 	0.81877 0.54456 0.15608 0.06800
C 	C 	0.75124 0.57946 0.12021 -0.02800
C 	C 	0.76060 0.57633 0.05897 0.01300
C 	C 	0.83760 0.53831 0.03363 0.02100
C 	C 	0.84690 0.53518 0.97239 -0.07200
H 	H 	0.89950 0.50920 0.95510 0.05100
C 	C 	0.77940 0.57009 0.93651 -0.03300
H 	H 	0.78580 0.56800 0.89470 0.03000
C 	C 	0.70250 0.60811 0.96186 -0.03200
H 	H 	0.65630 0.63200 0.93730 0.03100
C 	C 	0.69310 0.61124 0.02310 -0.06400
H 	H 	0.64050 0.63720 0.04040 0.05700
C 	C 	0.85580 0.60192 0.44164 -0.09900
C 	C 	0.95130 0.60107 0.46562 -0.02100
H 	H 	0.00690 0.58940 0.44140 0.03000
C 	C 	0.96560 0.61731 0.52496 -0.05600
H 	H 	0.03090 0.61670 0.54140 0.04500
C 	C 	0.88440 0.63440 0.56032 -0.02500
H 	H 	0.89410 0.64550 0.60090 0.03200
C 	C 	0.78880 0.63520 0.53634 -0.05700
H 	H 	0.73330 0.64690 0.56050 0.04400
C 	C 	0.77450 0.61901 0.47700 -0.01600
H 	H 	0.70920 0.61960 0.46060 0.02100
C 	C 	0.14820 0.80288 0.22981 -0.10700
C 	C 	0.22900 0.79596 0.19168 -0.00800
H 	H 	0.22300 0.76870 0.15690 0.00500
C 	C 	0.31860 0.82896 0.20442 -0.07200
H 	H 	0.37380 0.82420 0.17840 0.04700
C 	C 	0.32730 0.86893 0.25527 -0.01400
H 	H 	0.38860 0.89150 0.26400 0.03100
C 	C 	0.24650 0.87586 0.29340 -0.07100
H 	H 	0.25250 0.90320 0.32820 0.05300
C 	C 	0.15690 0.84285 0.28067 -0.00500
H 	H 	0.10170 0.84760 0.30670 0.00800
C 	C 	0.87580 0.72450 0.18790 -0.06700
C 	C 	0.82660 0.56350 0.26820 -0.05400
Au	Au	0.92720 0.73155 0.33532 0.27900
Au	Au	0.09156 0.63540 0.13578 0.28800
N 	N 	0.13910 0.66560 0.34640 -0.11100
N 	N 	0.11810 0.55190 0.25140 -0.11300
C 	C 	0.25960 0.57340 0.34550 -0.02500
C 	C 	0.17530 0.51980 0.35020 -0.02800
C 	C 	0.53582 0.58300 0.33221 -0.07000
H 	H 	0.58690 0.61690 0.32940 0.04400
C 	C 	0.56032 0.51330 0.33209 -0.02900
H 	H 	0.62820 0.49950 0.32920 0.02800
C 	C 	0.48551 0.46376 0.33617 -0.03400
H 	H 	0.50230 0.41610 0.33610 0.03700
C 	C 	0.38621 0.48400 0.34036 -0.06300
H 	H 	0.33510 0.45020 0.34320 0.05500
C 	C 	0.36173 0.55375 0.34047 0.01200
C 	C 	0.43652 0.60328 0.33639 0.02000
C 	C 	0.41204 0.67303 0.33651 -0.04700
H 	H 	0.46320 0.70690 0.33370 0.04100
C 	C 	0.31275 0.69327 0.34070 -0.08700
H 	H 	0.29600 0.74090 0.34080 0.06300
C 	C 	0.23794 0.64375 0.34477 0.07200
C 	C 	0.07220 0.39036 0.45537 -0.06500
H 	H 	0.02020 0.35710 0.45710 0.04800
C 	C 	0.13570 0.39909 0.50346 -0.03500
H 	H 	0.12710 0.37170 0.53800 0.03800
C 	C 	0.21180 0.44783 0.50101 -0.02800
H 	H 	0.25520 0.45380 0.53390 0.02700
C 	C 	0.22440 0.48782 0.45044 -0.06800
H 	H 	0.27640 0.52110 0.44880 0.05500
C 	C 	0.16090 0.47909 0.40235 0.01400
C 	C 	0.08480 0.43035 0.40482 0.01200
C 	C 	0.02130 0.42161 0.35673 -0.05100
H 	H 	0.96930 0.38830 0.35840 0.02700
C 	C 	0.03387 0.46161 0.30617 -0.09900
H 	H 	0.99050 0.45560 0.27330 0.05700
C 	C 	0.10994 0.51035 0.30371 0.06600
C 	C 	0.79620 0.78500 0.32704 -0.11100
C 	C 	0.71090 0.76541 0.35781 -0.00500
H 	H 	0.71210 0.72570 0.38250 0.00900
C 	C 	0.62380 0.80395 0.35248 -0.07200
H 	H 	0.56550 0.79060 0.37350 0.04700
C 	C 	0.62200 0.86208 0.31641 -0.01500
H 	H 	0.56250 0.88840 0.31280 0.03100
C 	C 	0.70730 0.88168 0.28563 -0.07300
H 	H 	0.70600 0.92140 0.26100 0.05600
C 	C 	0.79440 0.84314 0.29095 -0.00300
H 	H 	0.85260 0.85650 0.26990 0.01000
C 	C 	0.06020 0.67959 0.05360 -0.09700
C 	C 	0.13550 0.69102 0.01240 -0.01700
H 	H 	0.20310 0.68230 0.02270 0.02200
C 	C 	0.11190 0.71518 0.95617 -0.05800
H 	H 	0.16330 0.72300 0.92800 0.05200
C 	C 	0.01290 0.72790 0.94114 -0.02500
H 	H 	0.99680 0.74440 0.90270 0.03700
C 	C 	0.93770 0.71648 0.98232 -0.05400
H 	H 	0.87000 0.72520 0.97200 0.04500
C 	C 	0.96130 0.69231 0.03856 -0.02100
H 	H 	0.90980 0.68450 0.06670 0.03000
C 	C 	0.11710 0.58370 0.20930 -0.05500
C 	C 	0.05890 0.68880 0.34610 -0.07100
Au	Au	0.48894 0.24215 0.70754 0.27400
Au	Au	0.66126 0.41807 0.85282 0.29500
N 	N 	0.67730 0.44800 0.71810 -0.11300
N 	N 	0.70380 0.29550 0.68170 -0.11200
C 	C 	0.83170 0.38011 0.65220 -0.02500
C 	C 	0.80368 0.31864 0.67928 0.06800
C 	C 	0.87497 0.27788 0.70716 -0.08700
H 	H 	0.85580 0.23590 0.72570 0.06500
C 	C 	0.97430 0.29860 0.70797 -0.05200
H 	H 	0.02300 0.27070 0.72700 0.04500
C 	C 	0.00234 0.36006 0.68090 0.02300
C 	C 	0.93105 0.40083 0.65300 0.01200
C 	C 	0.95908 0.46229 0.62592 -0.06200
H 	H 	0.91040 0.49010 0.60690 0.05800
C 	C 	0.05840 0.48301 0.62672 -0.03400
H 	H 	0.07760 0.52500 0.60820 0.03900
C 	C 	0.12972 0.44220 0.65461 -0.02800
H 	H 	0.19760 0.45640 0.65520 0.03000
C 	C 	0.10169 0.38078 0.68170 -0.07400
H 	H 	0.15040 0.35290 0.70080 0.05100
C 	C 	0.59490 0.49660 0.56951 -0.05300
H 	H 	0.54230 0.52260 0.55220 0.03900
C 	C 	0.60430 0.49348 0.63073 -0.09300
H 	H 	0.55820 0.51730 0.65530 0.05400
C 	C 	0.68123 0.45544 0.65608 0.06800
C 	C 	0.74876 0.42054 0.62021 -0.02900
C 	C 	0.73940 0.42367 0.55897 0.01400
C 	C 	0.66240 0.46169 0.53363 0.02000
C 	C 	0.65310 0.46482 0.47239 -0.07000
H 	H 	0.60050 0.49080 0.45510 0.05100
C 	C 	0.72060 0.42991 0.43651 -0.03500
H 	H 	0.71420 0.43200 0.39470 0.03100
C 	C 	0.79750 0.39189 0.46186 -0.03100
H 	H 	0.84370 0.36800 0.43730 0.03100
C 	C 	0.80690 0.38876 0.52310 -0.06600
H 	H 	0.85950 0.36280 0.54040 0.05700
C 	C 	0.64420 0.39808 0.94164 -0.09800
C 	C 	0.54870 0.39893 0.96562 -0.02200
H 	H 	0.49310 0.41060 0.94140 0.03000
C 	C 	0.53440 0.38269 0.02496 -0.05600
H 	H 	0.46910 0.38330 0.04140 0.04500
C 	C 	0.61560 0.36560 0.06032 -0.02600
H 	H 	0.60590 0.35450 0.10090 0.03200
C 	C 	0.71120 0.36480 0.03634 -0.05600
H 	H 	0.76670 0.35310 0.06050 0.04400
C 	C 	0.72550 0.38099 0.97700 -0.01700
H 	H 	0.79080 0.38040 0.96060 0.02100
C 	C 	0.35180 0.19712 0.72981 -0.10700
C 	C 	0.27100 0.20404 0.69168 -0.00800
H 	H 	0.27700 0.23130 0.65690 0.00500
C 	C 	0.18140 0.17104 0.70442 -0.07200
H 	H 	0.12620 0.17580 0.67840 0.04700
C 	C 	0.17270 0.13107 0.75527 -0.01400
H 	H 	0.11140 0.10850 0.76400 0.03100
C 	C 	0.25350 0.12414 0.79340 -0.07100
H 	H 	0.24750 0.09680 0.82820 0.05300
C 	C 	0.34310 0.15715 0.78067 -0.00500
H 	H 	0.39830 0.15240 0.80670 0.00800
C 	C 	0.62420 0.27550 0.68790 -0.06800
C 	C 	0.67340 0.43650 0.76820 -0.05400
Au	Au	0.57280 0.26845 0.83532 0.27800
Au	Au	0.40844 0.36460 0.63578 0.28800
N 	N 	0.36090 0.33440 0.84640 -0.11100
N 	N 	0.38190 0.44810 0.75140 -0.11300
C 	C 	0.24040 0.42660 0.84550 -0.02500
C 	C 	0.32470 0.48020 0.85020 -0.02800
C 	C 	0.96418 0.41700 0.83221 -0.07000
H 	H 	0.91310 0.38310 0.82940 0.04400
C 	C 	0.93968 0.48670 0.83209 -0.03000
H 	H 	0.87180 0.50050 0.82920 0.02900
C 	C 	0.01449 0.53624 0.83617 -0.03300
H 	H 	0.99770 0.58390 0.83610 0.03700
C 	C 	0.11379 0.51600 0.84036 -0.06400
H 	H 	0.16490 0.54980 0.84320 0.05500
C 	C 	0.13827 0.44625 0.84047 0.01200
C 	C 	0.06348 0.39672 0.83639 0.02100
C 	C 	0.08796 0.32697 0.83651 -0.04700
H 	H 	0.03680 0.29310 0.83370 0.04200
C 	C 	0.18725 0.30673 0.84070 -0.08700
H 	H 	0.20400 0.25910 0.84080 0.06300
C 	C 	0.26206 0.35625 0.84477 0.07200
C 	C 	0.42780 0.60964 0.95537 -0.06500
H 	H 	0.47980 0.64290 0.95710 0.04800
C 	C 	0.36430 0.60091 0.00346 -0.03500
H 	H 	0.37290 0.62830 0.03800 0.03800
C 	C 	0.28820 0.55217 0.00101 -0.02800
H 	H 	0.24480 0.54620 0.03390 0.02700
C 	C 	0.27560 0.51218 0.95044 -0.06700
H 	H 	0.22360 0.47890 0.94880 0.05500
C 	C 	0.33910 0.52091 0.90235 0.01400
C 	C 	0.41520 0.56965 0.90482 0.01200
C 	C 	0.47870 0.57839 0.85673 -0.05100
H 	H 	0.53070 0.61170 0.85840 0.02700
C 	C 	0.46613 0.53839 0.80617 -0.09900
H 	H 	0.50950 0.54440 0.77330 0.05700
C 	C 	0.39006 0.48965 0.80371 0.06500
C 	C 	0.70380 0.21500 0.82704 -0.11100
C 	C 	0.78910 0.23459 0.85781 -0.00500
H 	H 	0.78790 0.27430 0.88250 0.00900
C 	C 	0.87620 0.19605 0.85248 -0.07200
H 	H 	0.93450 0.20940 0.87350 0.04600
C 	C 	0.87800 0.13792 0.81641 -0.01500
H 	H 	0.93750 0.11160 0.81280 0.03100
C 	C 	0.79270 0.11832 0.78563 -0.07300
H 	H 	0.79400 0.07860 0.76100 0.05600
C 	C 	0.70560 0.15686 0.79095 -0.00300
H 	H 	0.64740 0.14350 0.76990 0.01000
C 	C 	0.43980 0.32041 0.55360 -0.09500
C 	C 	0.36450 0.30898 0.51240 -0.01800
H 	H 	0.29690 0.31770 0.52270 0.02300
C 	C 	0.38810 0.28482 0.45617 -0.05700
H 	H 	0.33670 0.27700 0.42800 0.05100
C 	C 	0.48710 0.27210 0.44114 -0.02800
H 	H 	0.50320 0.25560 0.40270 0.03800
C 	C 	0.56230 0.28352 0.48232 -0.05200
H 	H 	0.63000 0.27480 0.47200 0.04400
C 	C 	0.53870 0.30769 0.53856 -0.02400
H 	H 	0.59020 0.31550 0.56670 0.03100
C 	C 	0.38290 0.41630 0.70930 -0.05500
C 	C 	0.44110 0.31120 0.84610 -0.07100
Au	Au	0.98894 0.25785 0.29246 0.27400
Au	Au	0.16126 0.08193 0.14718 0.29500
N 	N 	0.17730 0.05200 0.28190 -0.11300
N 	N 	0.20380 0.20450 0.31830 -0.11200
C 	C 	0.33170 0.11989 0.34780 -0.02500
C 	C 	0.30368 0.18136 0.32072 0.06900
C 	C 	0.37497 0.22212 0.29284 -0.08800
H 	H 	0.35580 0.26410 0.27430 0.06600
C 	C 	0.47430 0.20140 0.29203 -0.05000
H 	H 	0.52300 0.22930 0.27300 0.04400
C 	C 	0.50234 0.13994 0.31910 0.02200
C 	C 	0.43105 0.09917 0.34700 0.01300
C 	C 	0.45908 0.03771 0.37408 -0.06300
H 	H 	0.41040 0.00990 0.39310 0.05800
C 	C 	0.55840 0.01699 0.37328 -0.03400
H 	H 	0.57760 0.97500 0.39180 0.03900
C 	C 	0.62972 0.05780 0.34539 -0.02800
H 	H 	0.69760 0.04360 0.34480 0.03000
C 	C 	0.60169 0.11922 0.31830 -0.07300
H 	H 	0.65040 0.14710 0.29920 0.05000
C 	C 	0.09490 0.00340 0.43049 -0.05300
H 	H 	0.04230 0.97740 0.44780 0.03800
C 	C 	0.10430 0.00652 0.36927 -0.09200
H 	H 	0.05820 0.98270 0.34470 0.05400
C 	C 	0.18123 0.04456 0.34392 0.06800
C 	C 	0.24876 0.07946 0.37979 -0.02800
C 	C 	0.23940 0.07633 0.44103 0.01400
C 	C 	0.16240 0.03831 0.46637 0.02000
C 	C 	0.15310 0.03518 0.52761 -0.07000
H 	H 	0.10050 0.00920 0.54490 0.05100
C 	C 	0.22060 0.07009 0.56349 -0.03500
H 	H 	0.21420 0.06800 0.60530 0.03100
C 	C 	0.29750 0.10811 0.53814 -0.03100
H 	H 	0.34370 0.13200 0.56270 0.03100
C 	C 	0.30690 0.11124 0.47690 -0.06600
H 	H 	0.35950 0.13720 0.45960 0.05700
C 	C 	0.14420 0.10192 0.05836 -0.09700
C 	C 	0.04870 0.10107 0.03438 -0.02400
H 	H 	0.99310 0.08940 0.05860 0.03100
C 	C 	0.03440 0.11731 0.97504 -0.05300
H 	H 	0.96910 0.11670 0.95860 0.04400
C 	C 	0.11560 0.13440 0.93968 -0.02700
H 	H 	0.10590 0.14550 0.89910 0.03300
C 	C 	0.21120 0.13520 0.96366 -0.05500
H 	H 	0.26670 0.14690 0.93950 0.04400
C 	C 	0.22550 0.11901 0.02300 -0.01700
H 	H 	0.29080 0.11960 0.03940 0.02100
C 	C 	0.85180 0.30288 0.27019 -0.10700
C 	C 	0.77100 0.29596 0.30832 -0.00800
H 	H 	0.77700 0.26870 0.34310 0.00500
C 	C 	0.68140 0.32896 0.29558 -0.07200
H 	H 	0.62620 0.32420 0.32160 0.04700
C 	C 	0.67270 0.36893 0.24473 -0.01400
H 	H 	0.61140 0.39150 0.23600 0.03100
C 	C 	0.75350 0.37586 0.20660 -0.07100
H 	H 	0.74750 0.40320 0.17180 0.05300
C 	C 	0.84310 0.34285 0.21933 -0.00500
H 	H 	0.89830 0.34760 0.19330 0.00800
C 	C 	0.12420 0.22450 0.31210 -0.06800
C 	C 	0.17340 0.06350 0.23180 -0.05400
Au	Au	0.07280 0.23155 0.16468 0.27800
Au	Au	0.90844 0.13540 0.36422 0.28800
N 	N 	0.86090 0.16560 0.15360 -0.11100
N 	N 	0.88190 0.05190 0.24860 -0.11300
C 	C 	0.74040 0.07340 0.15450 -0.02500
C 	C 	0.82470 0.01980 0.14980 -0.02800
C 	C 	0.46418 0.08300 0.16779 -0.07000
H 	H 	0.41310 0.11690 0.17060 0.04500
C 	C 	0.43968 0.01330 0.16791 -0.02800
H 	H 	0.37180 0.99950 0.17080 0.02800
C 	C 	0.51449 0.96376 0.16383 -0.03500
H 	H 	0.49770 0.91610 0.16390 0.03800
C 	C 	0.61379 0.98400 0.15964 -0.06300
H 	H 	0.66490 0.95020 0.15680 0.05500
C 	C 	0.63827 0.05375 0.15953 0.01200
C 	C 	0.56348 0.10328 0.16361 0.02100
C 	C 	0.58796 0.17303 0.16349 -0.04700
H 	H 	0.53680 0.20690 0.16630 0.04200
C 	C 	0.68725 0.19327 0.15930 -0.08700
H 	H 	0.70400 0.24090 0.15920 0.06300
C 	C 	0.76206 0.14375 0.15523 0.07200
C 	C 	0.92780 0.89036 0.04463 -0.06400
H 	H 	0.97980 0.85710 0.04290 0.04800
C 	C 	0.86430 0.89909 0.99654 -0.03600
H 	H 	0.87290 0.87170 0.96200 0.03800
C 	C 	0.78820 0.94783 0.99899 -0.02800
H 	H 	0.74480 0.95380 0.96610 0.02700
C 	C 	0.77560 0.98782 0.04956 -0.06800
H 	H 	0.72360 0.02110 0.05120 0.05500
C 	C 	0.83910 0.97909 0.09765 0.01400
C 	C 	0.91520 0.93035 0.09518 0.01200
C 	C 	0.97870 0.92161 0.14327 -0.05000
H 	H 	0.03070 0.88830 0.14160 0.02600
C 	C 	0.96613 0.96161 0.19383 -0.09800
H 	H 	0.00950 0.95560 0.22670 0.05600
C 	C 	0.89006 0.01035 0.19629 0.06500
C 	C 	0.20380 0.28500 0.17296 -0.11100
C 	C 	0.28910 0.26541 0.14219 -0.00500
H 	H 	0.28790 0.22570 0.11750 0.00900
C 	C 	0.37620 0.30395 0.14752 -0.07200
H 	H 	0.43450 0.29060 0.12650 0.04700
C 	C 	0.37800 0.36208 0.18359 -0.01500
H 	H 	0.43750 0.38840 0.18720 0.03100
C 	C 	0.29270 0.38168 0.21437 -0.07300
H 	H 	0.29400 0.42140 0.23900 0.05600
C 	C 	0.20560 0.34314 0.20905 -0.00300
H 	H 	0.14740 0.35650 0.23010 0.01000
C 	C 	0.93980 0.17959 0.44640 -0.09500
C 	C 	0.86450 0.19102 0.48760 -0.01800
H 	H 	0.79690 0.18230 0.47730 0.02300
C 	C 	0.88810 0.21518 0.54383 -0.05600
H 	H 	0.83670 0.22300 0.57200 0.05100
C 	C 	0.98710 0.22790 0.55886 -0.02800
H 	H 	0.00320 0.24440 0.59730 0.03800
C 	C 	0.06230 0.21648 0.51768 -0.05100
H 	H 	0.13000 0.22520 0.52800 0.04400
C 	C 	0.03870 0.19231 0.46144 -0.02400
H 	H 	0.09020 0.18450 0.43330 0.03100
C 	C 	0.88290 0.08370 0.29070 -0.05500
C 	C 	0.94110 0.18880 0.15390 -0.07100
Au	Au	0.51106 0.74215 0.79246 0.27400
Au	Au	0.33874 0.91807 0.64718 0.29500
N 	N 	0.32270 0.94800 0.78190 -0.11300
N 	N 	0.29620 0.79550 0.81830 -0.11200
C 	C 	0.16830 0.88011 0.84780 -0.02600
C 	C 	0.19632 0.81864 0.82072 0.06900
C 	C 	0.12503 0.77788 0.79284 -0.08800
H 	H 	0.14420 0.73590 0.77430 0.06600
C 	C 	0.02570 0.79860 0.79203 -0.05000
H 	H 	0.97700 0.77070 0.77300 0.04400
C 	C 	0.99766 0.86006 0.81910 0.02100
C 	C 	0.06895 0.90083 0.84700 0.01400
C 	C 	0.04092 0.96229 0.87408 -0.06400
H 	H 	0.08960 0.99010 0.89310 0.05800
C 	C 	0.94160 0.98301 0.87328 -0.03300
H 	H 	0.92240 0.02500 0.89180 0.03800
C 	C 	0.87028 0.94220 0.84539 -0.02900
H 	H 	0.80240 0.95640 0.84480 0.03000
C 	C 	0.89831 0.88078 0.81830 -0.07200
H 	H 	0.84960 0.85290 0.79920 0.05000
C 	C 	0.40510 0.99660 0.93049 -0.05400
H 	H 	0.45770 0.02260 0.94780 0.03900
C 	C 	0.39570 0.99348 0.86927 -0.09300
H 	H 	0.44180 0.01730 0.84470 0.05400
C 	C 	0.31877 0.95544 0.84392 0.06800
C 	C 	0.25124 0.92054 0.87979 -0.02800
C 	C 	0.26060 0.92367 0.94103 0.01300
C 	C 	0.33760 0.96169 0.96637 0.02100
C 	C 	0.34690 0.96482 0.02761 -0.07100
H 	H 	0.39950 0.99080 0.04490 0.05100
C 	C 	0.27940 0.92991 0.06349 -0.03400
H 	H 	0.28580 0.93200 0.10530 0.03000
C 	C 	0.20250 0.89189 0.03814 -0.03200
H 	H 	0.15630 0.86800 0.06270 0.03100
C 	C 	0.19310 0.88876 0.97690 -0.06500
H 	H 	0.14050 0.86280 0.95960 0.05700
C 	C 	0.35580 0.89808 0.55836 -0.09900
C 	C 	0.45130 0.89893 0.53438 -0.02100
H 	H 	0.50690 0.91060 0.55860 0.03000
C 	C 	0.46560 0.88269 0.47504 -0.05600
H 	H 	0.53090 0.88330 0.45860 0.04500
C 	C 	0.38440 0.86560 0.43968 -0.02500
H 	H 	0.39410 0.85450 0.39910 0.03200
C 	C 	0.28880 0.86480 0.46366 -0.05700
H 	H 	0.23330 0.85310 0.43950 0.04400
C 	C 	0.27450 0.88099 0.52300 -0.01600
H 	H 	0.20920 0.88040 0.53940 0.02100
C 	C 	0.64820 0.69712 0.77019 -0.10700
C 	C 	0.72900 0.70404 0.80832 -0.00800
H 	H 	0.72300 0.73130 0.84310 0.00500
C 	C 	0.81860 0.67104 0.79558 -0.07200
H 	H 	0.87380 0.67580 0.82160 0.04700
C 	C 	0.82730 0.63107 0.74473 -0.01400
H 	H 	0.88860 0.60850 0.73600 0.03100
C 	C 	0.74650 0.62414 0.70660 -0.07100
H 	H 	0.75250 0.59680 0.67180 0.05300
C 	C 	0.65690 0.65715 0.71933 -0.00500
H 	H 	0.60170 0.65240 0.69330 0.00800
C 	C 	0.37580 0.77550 0.81210 -0.06800
C 	C 	0.32660 0.93650 0.73180 -0.05400
Au	Au	0.42720 0.76845 0.66468 0.27800
Au	Au	0.59156 0.86460 0.86422 0.28800
N 	N 	0.63910 0.83440 0.65360 -0.11100
N 	N 	0.61810 0.94810 0.74860 -0.11300
C 	C 	0.75960 0.92660 0.65450 -0.02500
C 	C 	0.67530 0.98020 0.64980 -0.02800
C 	C 	0.03582 0.91700 0.66779 -0.07000
H 	H 	0.08690 0.88310 0.67060 0.04400
C 	C 	0.06032 0.98670 0.66791 -0.02900
H 	H 	0.12820 0.00050 0.67080 0.02900
C 	C 	0.98551 0.03624 0.66383 -0.03500
H 	H 	0.00230 0.08390 0.66390 0.03800
C 	C 	0.88621 0.01600 0.65964 -0.06300
H 	H 	0.83510 0.04980 0.65680 0.05500
C 	C 	0.86173 0.94625 0.65953 0.01200
C 	C 	0.93652 0.89672 0.66361 0.02100
C 	C 	0.91204 0.82697 0.66349 -0.04700
H 	H 	0.96320 0.79310 0.66630 0.04200
C 	C 	0.81275 0.80673 0.65930 -0.08700
H 	H 	0.79600 0.75910 0.65920 0.06300
C 	C 	0.73794 0.85625 0.65523 0.07200
C 	C 	0.57220 0.10964 0.54463 -0.06500
H 	H 	0.52020 0.14290 0.54290 0.04800
C 	C 	0.63570 0.10091 0.49654 -0.03500
H 	H 	0.62710 0.12830 0.46200 0.03800
C 	C 	0.71180 0.05217 0.49899 -0.02700
H 	H 	0.75520 0.04620 0.46610 0.02700
C 	C 	0.72440 0.01218 0.54956 -0.06800
H 	H 	0.77640 0.97890 0.55120 0.05600
C 	C 	0.66090 0.02091 0.59765 0.01400
C 	C 	0.58480 0.06965 0.59518 0.01200
C 	C 	0.52130 0.07839 0.64327 -0.05100
H 	H 	0.46930 0.11170 0.64160 0.02700
C 	C 	0.53387 0.03839 0.69383 -0.09900
H 	H 	0.49050 0.04440 0.72670 0.05700
C 	C 	0.60994 0.98965 0.69629 0.06500
C 	C 	0.29620 0.71500 0.67296 -0.11100
C 	C 	0.21090 0.73459 0.64219 -0.00500
H 	H 	0.21210 0.77430 0.61750 0.00900
C 	C 	0.12380 0.69605 0.64752 -0.07200
H 	H 	0.06550 0.70940 0.62650 0.04700
C 	C 	0.12200 0.63792 0.68359 -0.01500
H 	H 	0.06250 0.61160 0.68720 0.03100
C 	C 	0.20730 0.61832 0.71437 -0.07300
H 	H 	0.20600 0.57860 0.73900 0.05600
C 	C 	0.29440 0.65686 0.70905 -0.00300
H 	H 	0.35260 0.64350 0.73010 0.01000
C 	C 	0.56020 0.82041 0.94640 -0.09500
C 	C 	0.63550 0.80898 0.98760 -0.01800
H 	H 	0.70310 0.81770 0.97730 0.02300
C 	C 	0.61190 0.78482 0.04383 -0.05700
H 	H 	0.66330 0.77700 0.07200 0.05100
C 	C 	0.51290 0.77210 0.05886 -0.02800
H 	H 	0.49680 0.75560 0.09730 0.03800
C 	C 	0.43770 0.78352 0.01768 -0.05200
H 	H 	0.37000 0.77480 0.02800 0.04400
C 	C 	0.46130 0.80769 0.96144 -0.02400
H 	H 	0.40980 0.81550 0.93330 0.03100
C 	C 	0.61710 0.91630 0.79070 -0.05500
C 	C 	0.55890 0.81120 0.65390 -0.07100
