data_crystal

_cell_length_a 15.97880
_cell_length_b 16.36690
_cell_length_c 29.54910
_cell_angle_alpha 78.97600
_cell_angle_beta  80.62800
_cell_angle_gamma 61.75500

_symmetry_space_group_name_	'P 1'
_symmetry_space_group_name_H-M	'P 1'

loop_
_symmetry_equiv_pos_as_xyz
  x,y,z

loop_
_atom_site_label
_atom_site_type_symbol
_atom_site_fract_x
_atom_site_fract_y
_atom_site_fract_z
_atom_site_charge
Au	Au	0.55911 0.07718 0.51892 0.19900
Au	Au	0.38174 0.12528 0.47616 0.19700
Au	Au	0.57046 0.00346 0.43321 0.19700
Ag	Ag	0.39853 0.04276 0.39423 0.47100
P 	P 	0.62760 0.15140 0.54345 -0.00400
P 	P 	0.26110 0.25610 0.44389 0.00400
P 	P 	0.63890 0.01250 0.36000 0.00000
O 	O 	0.49190 0.66460 0.26910 -0.24400
O 	O 	0.47240 0.58860 0.34310 -0.42900
H 	H 	0.48200 0.54510 0.32860 0.25000
O 	O 	0.89750 0.28830 0.36420 -0.45100
H 	H 	0.83800 0.32100 0.36610 0.26000
O 	O 	0.89020 0.37460 0.41510 -0.30400
O 	O 	0.46660 0.33880 0.19290 -0.49000
H 	H 	0.48480 0.34220 0.16460 0.31600
O 	O 	0.61490 0.26820 0.20770 -0.31200
C 	C 	0.80280 0.00810 0.51460 -0.05900
H 	H 	0.76780 0.00040 0.49410 0.01500
C 	C 	0.75730 0.07970 0.54220 -0.01500
C 	C 	0.80850 0.09090 0.57230 -0.07000
H 	H 	0.77740 0.13980 0.59110 0.05500
C 	C 	0.90520 0.03060 0.57470 -0.00100
H 	H 	0.94020 0.03820 0.59520 0.02900
C 	C 	0.95070 0.95900 0.54710 -0.07700
H 	H 	0.01670 0.91780 0.54870 0.06200
C 	C 	0.89950 0.94780 0.51700 -0.02200
H 	H 	0.93050 0.89890 0.49820 0.03200
C 	C 	0.59800 0.26220 0.51290 -0.00700
C 	C 	0.50400 0.32250 0.50320 -0.07400
H 	H 	0.45420 0.30800 0.51760 0.03500
C 	C 	0.48320 0.40400 0.47250 -0.01400
H 	H 	0.41920 0.44520 0.46590 0.03800
C 	C 	0.55600 0.42530 0.45140 -0.06100
H 	H 	0.54200 0.48100 0.43030 0.06500
C 	C 	0.65000 0.36500 0.46100 -0.01700
H 	H 	0.69980 0.37950 0.44660 0.04400
C 	C 	0.67080 0.28350 0.49180 -0.06700
H 	H 	0.73480 0.24230 0.49840 0.05500
C 	C 	0.40860 0.83440 0.39640 0.04100
N 	N 	0.41790 0.90380 0.37110 -0.18500
C 	C 	0.43140 0.75100 0.38240 -0.08200
H 	H 	0.42790 0.70040 0.40300 0.07600
C 	C 	0.46150 0.74540 0.33340 -0.01400
C 	C 	0.46530 0.82150 0.30610 -0.06800
H 	H 	0.48180 0.81990 0.27380 0.07400
C 	C 	0.44630 0.89800 0.32420 0.02700
H 	H 	0.45230 0.94880 0.30490 0.02100
C 	C 	0.47800 0.65850 0.31330 0.29300
C 	C 	0.18670 0.33880 0.48150 -0.00800
C 	C 	0.17440 0.42970 0.47790 -0.06500
H 	H 	0.20480 0.45340 0.45240 0.05400
C 	C 	0.11780 0.48580 0.51180 -0.01600
H 	H 	0.10940 0.54790 0.50930 0.05000
C 	C 	0.07340 0.45100 0.54910 -0.04900
H 	H 	0.03470 0.48940 0.57220 0.05600
C 	C 	0.08570 0.36020 0.55270 -0.02100
H 	H 	0.05530 0.33640 0.57820 0.03500
C 	C 	0.14230 0.30410 0.51880 -0.07000
H 	H 	0.15070 0.24200 0.52120 0.03500
C 	C 	0.37620 0.41860 0.32800 -0.04600
H 	H 	0.39980 0.45200 0.30410 0.05400
C 	C 	0.28340 0.43180 0.32910 -0.02200
H 	H 	0.24350 0.47430 0.30580 0.04300
C 	C 	0.24890 0.38280 0.36410 -0.05700
H 	H 	0.18550 0.39190 0.36480 0.05200
C 	C 	0.30730 0.32070 0.39810 -0.02000
C 	C 	0.40020 0.30750 0.39710 -0.05700
H 	H 	0.44010 0.26500 0.42040 0.01300
C 	C 	0.43460 0.35640 0.36200 -0.02600
H 	H 	0.49810 0.34740 0.36130 0.03800
N 	N 	0.23780 0.14800 0.39530 -0.17600
C 	C 	0.18580 0.22800 0.41780 0.00800
C 	C 	0.08440 0.28040 0.41780 -0.03200
H 	H 	0.05090 0.33080 0.43570 0.05300
C 	C 	0.03560 0.25890 0.39240 -0.07800
C 	C 	0.08580 0.17730 0.36970 -0.03100
H 	H 	0.05400 0.15790 0.35280 0.06000
C 	C 	0.18780 0.12530 0.37350 0.02700
H 	H 	0.22140 0.07010 0.35900 0.01200
C 	C 	0.93560 0.31300 0.39340 0.37300
C 	C 	0.73580 0.04260 0.35720 0.02200
C 	C 	0.71860 0.11940 0.37760 -0.10000
H 	H 	0.65690 0.15600 0.39160 0.04200
C 	C 	0.79160 0.14280 0.37770 0.01900
H 	H 	0.77980 0.19540 0.39170 0.02600
C 	C 	0.88180 0.08940 0.35740 -0.10200
H 	H 	0.93170 0.10540 0.35740 0.07300
C 	C 	0.89910 0.01250 0.33690 0.04300
H 	H 	0.96080 0.97590 0.32300 0.00700
C 	C 	0.82610 0.98910 0.33680 -0.12300
H 	H 	0.83790 0.93660 0.32290 0.07000
C 	C 	0.68410 0.90760 0.33510 -0.02300
C 	C 	0.72390 0.82410 0.36460 -0.06100
H 	H 	0.72830 0.82500 0.39620 0.01900
C 	C 	0.75740 0.73920 0.34790 -0.02800
H 	H 	0.78470 0.68220 0.36800 0.04100
C 	C 	0.75100 0.73790 0.30170 -0.04800
H 	H 	0.77390 0.67990 0.29030 0.05400
C 	C 	0.71110 0.82130 0.27230 -0.01900
H 	H 	0.70670 0.82040 0.24070 0.04900
C 	C 	0.67770 0.90620 0.28900 -0.05600
H 	H 	0.65040 0.96320 0.26880 0.05900
N 	N 	0.46170 0.11730 0.32990 -0.18000
C 	C 	0.55300 0.10680 0.31970 0.03100
C 	C 	0.57660 0.15760 0.28610 -0.06100
H 	H 	0.63970 0.15080 0.28160 0.06100
C 	C 	0.50800 0.22220 0.25670 -0.04300
C 	C 	0.41440 0.23620 0.26730 -0.06000
H 	H 	0.36400 0.28410 0.25010 0.08000
C 	C 	0.39850 0.17950 0.30250 0.05500
H 	H 	0.33590 0.18500 0.30800 0.00400
C 	C 	0.53540 0.28130 0.21540 0.41900
Au	Au	0.44089 0.92282 0.48108 0.19400
Au	Au	0.61826 0.87472 0.52384 0.19300
Au	Au	0.42954 0.99654 0.56679 0.19100
Ag	Ag	0.60147 0.95724 0.60577 0.46600
P 	P 	0.37240 0.84860 0.45655 -0.00500
P 	P 	0.73890 0.74390 0.55611 0.00400
P 	P 	0.36110 0.98750 0.64000 -0.00200
O 	O 	0.50810 0.33540 0.73090 -0.24400
O 	O 	0.52760 0.41140 0.65690 -0.42900
H 	H 	0.51800 0.45490 0.67140 0.25000
O 	O 	0.10250 0.71170 0.63580 -0.45100
H 	H 	0.16200 0.67900 0.63390 0.26000
O 	O 	0.10980 0.62540 0.58490 -0.30600
O 	O 	0.53340 0.66120 0.80710 -0.49100
H 	H 	0.51520 0.65780 0.83540 0.31600
O 	O 	0.38510 0.73180 0.79230 -0.31200
C 	C 	0.19720 0.99190 0.48540 -0.06700
H 	H 	0.23220 0.99960 0.50590 0.01300
C 	C 	0.24270 0.92030 0.45780 -0.02200
C 	C 	0.19150 0.90910 0.42770 -0.05300
H 	H 	0.22260 0.86020 0.40890 0.04900
C 	C 	0.09480 0.96940 0.42530 -0.04400
H 	H 	0.05980 0.96180 0.40480 0.04100
C 	C 	0.04930 0.04100 0.45290 -0.02700
H 	H 	0.98330 0.08220 0.45130 0.04200
C 	C 	0.10050 0.05220 0.48300 -0.02400
H 	H 	0.06950 0.10110 0.50180 0.03800
C 	C 	0.40200 0.73780 0.48710 -0.00700
C 	C 	0.49600 0.67750 0.49680 -0.07400
H 	H 	0.54580 0.69200 0.48240 0.03500
C 	C 	0.51680 0.59600 0.52750 -0.01400
H 	H 	0.58080 0.55480 0.53410 0.03800
C 	C 	0.44400 0.57470 0.54860 -0.06100
H 	H 	0.45800 0.51900 0.56970 0.06500
C 	C 	0.35000 0.63500 0.53900 -0.01800
H 	H 	0.30020 0.62050 0.55340 0.04400
C 	C 	0.32920 0.71650 0.50820 -0.06700
H 	H 	0.26520 0.75770 0.50160 0.05500
C 	C 	0.59140 0.16560 0.60360 0.04200
N 	N 	0.58210 0.09620 0.62890 -0.18200
C 	C 	0.56860 0.24900 0.61760 -0.08200
H 	H 	0.57210 0.29960 0.59700 0.07600
C 	C 	0.53850 0.25460 0.66660 -0.01300
C 	C 	0.53470 0.17850 0.69390 -0.06800
H 	H 	0.51820 0.18010 0.72620 0.07400
C 	C 	0.55370 0.10200 0.67580 0.02800
H 	H 	0.54770 0.05120 0.69510 0.02400
C 	C 	0.52200 0.34150 0.68670 0.29300
C 	C 	0.81330 0.66120 0.51850 -0.00900
C 	C 	0.82560 0.57030 0.52210 -0.06600
H 	H 	0.79520 0.54660 0.54760 0.05400
C 	C 	0.88220 0.51420 0.48820 -0.01800
H 	H 	0.89060 0.45210 0.49070 0.04900
C 	C 	0.92660 0.54900 0.45090 -0.05000
H 	H 	0.96530 0.51060 0.42780 0.05300
C 	C 	0.91430 0.63980 0.44730 -0.02300
H 	H 	0.94470 0.66360 0.42180 0.03300
C 	C 	0.85770 0.69590 0.48120 -0.07000
H 	H 	0.84930 0.75800 0.47880 0.03300
C 	C 	0.62380 0.58140 0.67200 -0.04600
H 	H 	0.60020 0.54800 0.69590 0.05400
C 	C 	0.71660 0.56820 0.67090 -0.02200
H 	H 	0.75650 0.52570 0.69420 0.04200
C 	C 	0.75110 0.61720 0.63590 -0.05700
H 	H 	0.81450 0.60810 0.63520 0.05100
C 	C 	0.69270 0.67930 0.60190 -0.02000
C 	C 	0.59980 0.69250 0.60290 -0.05700
H 	H 	0.55990 0.73500 0.57960 0.01300
C 	C 	0.56540 0.64360 0.63800 -0.02600
H 	H 	0.50190 0.65260 0.63870 0.03900
N 	N 	0.76220 0.85200 0.60470 -0.17700
C 	C 	0.81420 0.77200 0.58220 0.00400
C 	C 	0.91560 0.71960 0.58220 -0.02600
H 	H 	0.94910 0.66920 0.56430 0.04700
C 	C 	0.96440 0.74110 0.60760 -0.09300
C 	C 	0.91420 0.82270 0.63030 -0.02600
H 	H 	0.94600 0.84210 0.64720 0.05500
C 	C 	0.81220 0.87470 0.62650 0.02300
H 	H 	0.77860 0.92990 0.64100 0.00800
C 	C 	0.06440 0.68700 0.60660 0.38600
C 	C 	0.26420 0.95740 0.64280 -0.03500
C 	C 	0.28140 0.88060 0.62240 -0.04900
H 	H 	0.34310 0.84400 0.60840 0.02500
C 	C 	0.20840 0.85720 0.62230 -0.04000
H 	H 	0.22020 0.80460 0.60830 0.04500
C 	C 	0.11820 0.91060 0.64260 -0.02800
H 	H 	0.06830 0.89460 0.64260 0.04800
C 	C 	0.10090 0.98750 0.66310 -0.06900
H 	H 	0.03920 0.02410 0.67700 0.05700
C 	C 	0.17390 0.01090 0.66320 -0.02000
H 	H 	0.16210 0.06340 0.67710 0.04000
C 	C 	0.31590 0.09240 0.66490 -0.00700
C 	C 	0.27610 0.17590 0.63540 -0.06800
H 	H 	0.27170 0.17500 0.60380 0.02500
C 	C 	0.24260 0.26080 0.65210 -0.02100
H 	H 	0.21530 0.31780 0.63200 0.04000
C 	C 	0.24900 0.26210 0.69830 -0.05400
H 	H 	0.22610 0.32010 0.70970 0.05700
C 	C 	0.28890 0.17870 0.72770 -0.01100
H 	H 	0.29330 0.17960 0.75930 0.04600
C 	C 	0.32230 0.09380 0.71100 -0.06400
H 	H 	0.34960 0.03680 0.73120 0.06600
N 	N 	0.53830 0.88270 0.67010 -0.18200
C 	C 	0.44700 0.89320 0.68030 0.02800
C 	C 	0.42340 0.84240 0.71390 -0.06000
H 	H 	0.36030 0.84920 0.71840 0.06000
C 	C 	0.49200 0.77780 0.74330 -0.04400
C 	C 	0.58560 0.76380 0.73270 -0.05900
H 	H 	0.63600 0.71590 0.74990 0.07900
C 	C 	0.60150 0.82050 0.69750 0.05300
H 	H 	0.66410 0.81500 0.69200 0.00300
C 	C 	0.46460 0.71870 0.78460 0.42000
C 	C 	0.50000 0.00000 0.50000 -0.42200
Au	Au	0.93371 0.97942 0.06612 0.18800
Au	Au	0.86413 0.08810 0.97523 0.19200
Au	Au	0.99590 0.88548 0.97977 0.18700
Ag	Ag	0.80714 0.17887 0.05748 0.46900
P 	P 	0.85690 0.97540 0.13777 -0.01400
P 	P 	0.71330 0.18380 0.95482 -0.00100
P 	P 	0.98500 0.77130 0.95211 0.00100
O 	O 	0.51530 0.99030 0.21680 -0.30200
O 	O 	0.40430 0.13110 0.18940 -0.45700
H 	H 	0.36720 0.11750 0.20920 0.25900
O 	O 	0.56800 0.62880 0.92190 -0.26400
O 	O 	0.53780 0.54790 0.87750 -0.46600
H 	H 	0.51630 0.50880 0.88470 0.25000
O 	O 	0.82290 0.43580 0.22600 -0.26200
O 	O 	0.96890 0.40360 0.19040 -0.46200
H 	H 	0.97000 0.43380 0.21010 0.26100
C 	C 	0.87370 0.86220 0.16460 -0.00100
C 	C 	0.84420 0.81110 0.14430 -0.08600
H 	H 	0.81410 0.83700 0.11620 0.04100
C 	C 	0.85810 0.72680 0.16400 0.00500
H 	H 	0.83070 0.69570 0.15210 0.02900
C 	C 	0.91080 0.68340 0.20090 -0.07900
H 	H 	0.92920 0.61900 0.21100 0.05600
C 	C 	0.93720 0.73000 0.22290 0.00500
H 	H 	0.96520 0.70230 0.25150 0.02600
C 	C 	0.92390 0.81610 0.20460 -0.08200
H 	H 	0.94860 0.84680 0.21870 0.05400
C 	C 	0.88880 0.02950 0.17470 -0.00000
C 	C 	0.97630 0.02530 0.16940 -0.08500
H 	H 	0.02060 0.99400 0.14530 0.02100
C 	C 	0.00260 0.06390 0.19700 0.01500
H 	H 	0.06620 0.05540 0.19380 0.02800
C 	C 	0.93980 0.11420 0.22880 -0.07900
H 	H 	0.95900 0.14280 0.24730 0.06400
C 	C 	0.84690 0.12590 0.23560 0.00500
H 	H 	0.80280 0.15970 0.25910 0.04300
C 	C 	0.82220 0.08540 0.20610 -0.07500
H 	H 	0.75790 0.09640 0.20770 0.07000
N 	N 	0.70310 0.12920 0.10590 -0.17800
C 	C 	0.72780 0.05020 0.13380 0.03100
C 	C 	0.66250 0.02400 0.16210 -0.05000
H 	H 	0.68300 0.96650 0.18210 0.05100
C 	C 	0.56410 0.08760 0.15910 -0.04100
C 	C 	0.54070 0.16610 0.13060 -0.05000
H 	H 	0.47510 0.20880 0.12820 0.08300
C 	C 	0.60940 0.18830 0.10390 0.03100
H 	H 	0.58990 0.24600 0.08400 0.02900
C 	C 	0.49120 0.06300 0.19200 0.36500
C 	C 	0.69380 0.19440 0.89600 -0.01900
C 	C 	0.61040 0.22260 0.87760 -0.04700
H 	H 	0.55390 0.24600 0.89780 0.04700
C 	C 	0.59970 0.22070 0.83270 -0.03000
H 	H 	0.53970 0.23510 0.82310 0.05600
C 	C 	0.68150 0.19640 0.80170 -0.03700
H 	H 	0.67630 0.19850 0.76980 0.05400
C 	C 	0.76750 0.17010 0.81630 -0.03300
H 	H 	0.82320 0.15100 0.79540 0.03900
C 	C 	0.77260 0.17150 0.86170 -0.05000
H 	H 	0.83290 0.15630 0.87120 0.01900
C 	C 	0.62650 0.14970 0.98710 -0.00200
C 	C 	0.65880 0.05260 0.00370 -0.08900
H 	H 	0.72410 0.00850 -0.00000 0.03000
C 	C 	0.59040 0.02580 0.02560 0.03600
H 	H 	0.60940 0.96110 0.03530 0.01100
C 	C 	0.49920 0.08640 0.03370 -0.10700
H 	H 	0.45590 0.06460 0.05030 0.07100
C 	C 	0.46840 0.17570 0.01910 0.03600
H 	H 	0.40220 0.21680 0.02340 0.02300
C 	C 	0.52890 0.21130 0.99770 -0.09200
H 	H 	0.50580 0.27700 0.98990 0.06600
N 	N 	0.69630 0.30730 0.00770 -0.17400
C 	C 	0.67320 0.30380 0.96680 0.02300
C 	C 	0.63200 0.38250 0.93590 -0.06600
H 	H 	0.62030 0.37810 0.90620 0.05200
C 	C 	0.60820 0.46680 0.94830 -0.04400
C 	C 	0.63200 0.47380 0.98940 -0.06500
H 	H 	0.62010 0.53230 0.99700 0.05900
C 	C 	0.67460 0.39060 0.01960 0.03200
H 	H 	0.68850 0.39340 0.04920 0.00800
C 	C 	0.56460 0.55810 0.91280 0.33800
C 	C 	0.99400 0.67390 0.99370 -0.02200
C 	C 	0.08210 0.58940 0.99130 -0.06900
H 	H 	0.13120 0.58390 0.96730 0.05100
C 	C 	0.09140 0.51570 0.02640 -0.00700
H 	H 	0.15000 0.45970 0.02690 0.03500
C 	C 	0.02300 0.52020 0.05860 -0.05200
H 	H 	0.03360 0.46880 0.08220 0.05700
C 	C 	0.93330 0.60130 0.05860 -0.02600
H 	H 	0.88270 0.60180 0.08060 0.04000
C 	C 	0.91910 0.68010 0.02660 -0.06100
H 	H 	0.86040 0.73580 0.02710 0.03800
C 	C 	0.82550 0.76740 0.92570 -0.04600
H 	H 	0.85020 0.70460 0.94040 0.04600
C 	C 	0.87260 0.81990 0.92660 -0.02700
C 	C 	0.83650 0.91180 0.90520 -0.04000
H 	H 	0.86870 0.94770 0.90580 0.00400
C 	C 	0.75320 0.95130 0.88280 -0.06000
H 	H 	0.72850 0.01420 0.86820 0.05700
C 	C 	0.70600 0.89890 0.88200 -0.03100
H 	H 	0.64910 0.92590 0.86670 0.05100
C 	C 	0.74220 0.80690 0.90340 -0.03700
H 	H 	0.71000 0.77110 0.90280 0.05500
C 	C 	0.92740 0.27420 0.09690 0.01900
N 	N 	0.84850 0.25840 0.10130 -0.17400
C 	C 	0.93920 0.31890 0.12620 -0.04900
H 	H 	0.99410 0.32890 0.12160 0.06500
C 	C 	0.87440 0.35090 0.16270 -0.04700
C 	C 	0.79060 0.33850 0.16830 -0.04300
H 	H 	0.74280 0.36320 0.19260 0.07300
C 	C 	0.78020 0.29050 0.13810 0.01600
H 	H 	0.72620 0.27900 0.14240 0.03500
C 	C 	0.88980 0.39960 0.19640 0.34900
Au	Au	0.06629 0.02058 0.93388 0.19800
Au	Au	0.13587 0.91190 0.02477 0.19300
Au	Au	0.00410 0.11452 0.02023 0.20000
Ag	Ag	0.19286 0.82113 0.94252 0.46700
P 	P 	0.14310 0.02460 0.86223 0.00700
P 	P 	0.28670 0.81620 0.04518 0.00200
P 	P 	0.01500 0.22870 0.04789 0.00200
O 	O 	0.48470 0.00970 0.78320 -0.28200
O 	O 	0.59570 0.86890 0.81060 -0.44900
H 	H 	0.63280 0.88250 0.79080 0.25300
O 	O 	0.43200 0.37120 0.07810 -0.26300
O 	O 	0.46220 0.45210 0.12250 -0.46600
H 	H 	0.48370 0.49120 0.11530 0.25000
O 	O 	0.17710 0.56420 0.77400 -0.26200
O 	O 	0.03110 0.59640 0.80960 -0.46000
H 	H 	0.03000 0.56620 0.78990 0.26200
C 	C 	0.12630 0.13780 0.83540 -0.00200
C 	C 	0.15580 0.18890 0.85570 -0.08400
H 	H 	0.18590 0.16300 0.88380 0.04200
C 	C 	0.14190 0.27320 0.83600 0.00400
H 	H 	0.16930 0.30430 0.84790 0.03000
C 	C 	0.08920 0.31660 0.79910 -0.07700
H 	H 	0.07080 0.38100 0.78900 0.05700
C 	C 	0.06280 0.27000 0.77710 0.00500
H 	H 	0.03480 0.29770 0.74850 0.02900
C 	C 	0.07610 0.18390 0.79540 -0.07900
H 	H 	0.05140 0.15320 0.78130 0.05700
C 	C 	0.11120 0.97050 0.82530 -0.04000
C 	C 	0.02370 0.97470 0.83060 -0.03800
H 	H 	0.97940 0.00600 0.85470 0.01000
C 	C 	0.99740 0.93610 0.80300 -0.05800
H 	H 	0.93380 0.94460 0.80620 0.04600
C 	C 	0.06020 0.88580 0.77120 -0.02000
H 	H 	0.04100 0.85720 0.75270 0.04500
C 	C 	0.15310 0.87410 0.76440 -0.04000
H 	H 	0.19720 0.84030 0.74090 0.05700
C 	C 	0.17780 0.91460 0.79390 -0.03900
H 	H 	0.24210 0.90360 0.79230 0.05600
N 	N 	0.29690 0.87080 0.89410 -0.18100
C 	C 	0.27220 0.94980 0.86620 0.02900
C 	C 	0.33750 0.97600 0.83790 -0.08300
H 	H 	0.31700 0.03350 0.81790 0.07100
C 	C 	0.43590 0.91240 0.84090 -0.02400
C 	C 	0.45930 0.83390 0.86940 -0.06200
H 	H 	0.52490 0.79120 0.87180 0.08600
C 	C 	0.39060 0.81170 0.89610 0.03700
H 	H 	0.41010 0.75400 0.91600 0.02600
C 	C 	0.50880 0.93700 0.80800 0.33700
C 	C 	0.30620 0.80560 0.10400 -0.02000
C 	C 	0.38960 0.77740 0.12240 -0.04700
H 	H 	0.44610 0.75400 0.10220 0.04700
C 	C 	0.40030 0.77930 0.16730 -0.03100
H 	H 	0.46030 0.76490 0.17690 0.05500
C 	C 	0.31850 0.80360 0.19830 -0.03700
H 	H 	0.32370 0.80150 0.23020 0.05400
C 	C 	0.23250 0.82990 0.18370 -0.03400
H 	H 	0.17680 0.84900 0.20460 0.03800
C 	C 	0.22740 0.82850 0.13830 -0.05000
H 	H 	0.16710 0.84370 0.12880 0.01900
C 	C 	0.37350 0.85030 0.01290 -0.01700
C 	C 	0.34120 0.94740 0.99630 -0.06500
H 	H 	0.27590 0.99150 -0.00000 0.01700
C 	C 	0.40960 0.97420 0.97440 -0.03700
H 	H 	0.39060 0.03890 0.96470 0.04300
C 	C 	0.50080 0.91360 0.96630 -0.04200
H 	H 	0.54410 0.93540 0.94970 0.04400
C 	C 	0.53160 0.82430 0.98090 -0.02700
H 	H 	0.59780 0.78320 0.97660 0.04100
C 	C 	0.47110 0.78870 0.00230 -0.04800
H 	H 	0.49420 0.72300 0.01010 0.05300
N 	N 	0.30370 0.69270 0.99230 -0.17600
C 	C 	0.32680 0.69620 0.03320 0.02900
C 	C 	0.36800 0.61750 0.06410 -0.06400
H 	H 	0.37970 0.62190 0.09380 0.05200
C 	C 	0.39180 0.53320 0.05170 -0.04700
C 	C 	0.36800 0.52620 0.01060 -0.05000
H 	H 	0.37990 0.46770 0.00300 0.05700
C 	C 	0.32540 0.60940 0.98040 0.01900
H 	H 	0.31150 0.60660 0.95080 0.01200
C 	C 	0.43540 0.44190 0.08720 0.34000
C 	C 	0.00600 0.32610 0.00630 0.00700
C 	C 	0.91790 0.41060 0.00870 -0.08900
H 	H 	0.86880 0.41610 0.03270 0.05800
C 	C 	0.90860 0.48430 0.97360 0.00900
H 	H 	0.85000 0.54030 0.97310 0.02700
C 	C 	0.97700 0.47980 0.94140 -0.08600
H 	H 	0.96640 0.53120 0.91780 0.06500
C 	C 	0.06670 0.39870 0.94140 0.00800
H 	H 	0.11730 0.39820 0.91940 0.02900
C 	C 	0.08090 0.31990 0.97340 -0.09400
H 	H 	0.13960 0.26420 0.97290 0.04800
C 	C 	0.17450 0.23260 0.07430 -0.06400
H 	H 	0.14980 0.29540 0.05960 0.05400
C 	C 	0.12740 0.18010 0.07340 -0.00800
C 	C 	0.16350 0.08820 0.09480 -0.06800
H 	H 	0.13130 0.05230 0.09420 0.02000
C 	C 	0.24680 0.04870 0.11720 -0.00500
H 	H 	0.27150 0.98580 0.13180 0.02900
C 	C 	0.29400 0.10110 0.11800 -0.06300
H 	H 	0.35090 0.07410 0.13330 0.06600
C 	C 	0.25780 0.19310 0.09660 -0.01200
H 	H 	0.29000 0.22890 0.09720 0.04800
C 	C 	0.07260 0.72580 0.90310 0.02600
N 	N 	0.15150 0.74160 0.89870 -0.17400
C 	C 	0.06080 0.68110 0.87380 -0.05200
H 	H 	0.00590 0.67110 0.87840 0.06900
C 	C 	0.12560 0.64910 0.83730 -0.04400
C 	C 	0.20940 0.66150 0.83170 -0.04400
H 	H 	0.25720 0.63680 0.80740 0.07400
C 	C 	0.21980 0.70950 0.86190 0.01700
H 	H 	0.27380 0.72100 0.85760 0.03500
C 	C 	0.11020 0.60040 0.80360 0.34800
C 	C 	-0.00000 0.00000 -0.00000 -0.41400
