data_crystal

_cell_length_a 27.31800
_cell_length_b 27.31800
_cell_length_c 15.10200
_cell_angle_alpha 90.00000
_cell_angle_beta  90.00000
_cell_angle_gamma 120.00000

_symmetry_space_group_name_	'P 1'
_symmetry_space_group_name_H-M	'P 1'

loop_
_symmetry_equiv_pos_as_xyz
  x,y,z

loop_
_atom_site_label
_atom_site_type_symbol
_atom_site_fract_x
_atom_site_fract_y
_atom_site_fract_z
_atom_site_charge
S 	S 	0.28780 0.22910 0.05200 -0.47100
O 	O 	0.37120 0.31850 0.19230 -0.51000
O 	O 	0.33810 0.27940 0.32520 -0.54500
C 	C 	0.33950 0.21810 0.19750 -0.13700
C 	C 	0.31640 0.19720 0.11380 0.09100
C 	C 	0.35780 0.18760 0.24510 -0.05200
C 	C 	0.34430 0.26810 0.23470 0.31500
H 	H 	0.37320 0.20310 0.30850 0.02500
S 	S 	0.95447 0.56243 0.38533 -0.44100
O 	O 	0.03787 0.65183 0.52563 -0.53800
O 	O 	0.00477 0.61273 0.65853 -0.57500
C 	C 	0.00617 0.55143 0.53083 -0.25800
C 	C 	0.98307 0.53053 0.44713 0.20500
C 	C 	0.02447 0.52093 0.57843 0.02300
C 	C 	0.01097 0.60143 0.56803 0.33900
H 	H 	0.03987 0.53643 0.64183 -0.00300
S 	S 	0.62113 0.89577 0.71867 -0.43600
O 	O 	0.70453 0.98517 0.85897 -0.46800
O 	O 	0.67143 0.94607 0.99187 -0.52500
C 	C 	0.67283 0.88477 0.86417 -0.12700
C 	C 	0.64973 0.86387 0.78047 0.08900
C 	C 	0.69113 0.85427 0.91177 -0.04900
C 	C 	0.67763 0.93477 0.90137 0.31600
H 	H 	0.70653 0.86977 0.97517 0.03200
S 	S 	0.77090 0.05870 0.05200 -0.49400
O 	O 	0.68150 0.05270 0.19230 -0.53100
O 	O 	0.72060 0.05870 0.32520 -0.55800
C 	C 	0.78190 0.12140 0.19750 -0.14500
C 	C 	0.80280 0.11920 0.11380 0.10100
C 	C 	0.81240 0.17020 0.24510 -0.04400
C 	C 	0.73190 0.07620 0.23470 0.31500
H 	H 	0.79690 0.17010 0.30850 0.02300
S 	S 	0.43757 0.39203 0.38533 -0.46000
O 	O 	0.34817 0.38603 0.52563 -0.51200
O 	O 	0.38727 0.39203 0.65853 -0.54400
C 	C 	0.44857 0.45473 0.53083 -0.13700
C 	C 	0.46947 0.45253 0.44713 0.09100
C 	C 	0.47907 0.50353 0.57843 -0.05000
C 	C 	0.39857 0.40953 0.56803 0.31600
H 	H 	0.46357 0.50343 0.64183 0.02500
S 	S 	0.10423 0.72537 0.71867 -0.47400
O 	O 	0.01483 0.71937 0.85897 -0.54500
O 	O 	0.05393 0.72537 0.99187 -0.56000
C 	C 	0.11523 0.78807 0.86417 -0.14500
C 	C 	0.13613 0.78587 0.78047 0.09500
C 	C 	0.14573 0.83687 0.91177 -0.04200
C 	C 	0.06523 0.74287 0.90137 0.31700
H 	H 	0.13023 0.83677 0.97517 0.02100
S 	S 	0.94130 0.71220 0.05200 -0.41200
O 	O 	0.94730 0.62880 0.19230 -0.48400
O 	O 	0.94130 0.66190 0.32520 -0.52700
C 	C 	0.87860 0.66050 0.19750 -0.12600
C 	C 	0.88080 0.68360 0.11380 0.08200
C 	C 	0.82980 0.64220 0.24510 -0.05300
C 	C 	0.92380 0.65570 0.23470 0.31700
H 	H 	0.82990 0.62680 0.30850 0.02700
S 	S 	0.60797 0.04553 0.38533 -0.46500
O 	O 	0.61397 0.96213 0.52563 -0.48400
O 	O 	0.60797 0.99523 0.65853 -0.50000
C 	C 	0.54527 0.99383 0.53083 -0.01300
C 	C 	0.54747 0.01693 0.44713 -0.02400
C 	C 	0.49647 0.97553 0.57843 -0.12200
C 	C 	0.59047 0.98903 0.56803 0.29000
H 	H 	0.49657 0.96013 0.64183 0.05400
S 	S 	0.27463 0.37887 0.71867 -0.46100
O 	O 	0.28063 0.29547 0.85897 -0.51500
O 	O 	0.27463 0.32857 0.99187 -0.54600
C 	C 	0.21193 0.32717 0.86417 -0.13600
C 	C 	0.21413 0.35027 0.78047 0.08700
C 	C 	0.16313 0.30887 0.91177 -0.05900
C 	C 	0.25713 0.32237 0.90137 0.31400
H 	H 	0.16323 0.29347 0.97517 0.02200
S 	S 	0.22910 0.28780 0.44800 -0.47200
O 	O 	0.31850 0.37120 0.30770 -0.51100
O 	O 	0.27940 0.33810 0.17480 -0.54600
C 	C 	0.21810 0.33950 0.30250 -0.13800
C 	C 	0.19720 0.31640 0.38620 0.08900
C 	C 	0.18760 0.35780 0.25490 -0.05300
C 	C 	0.26810 0.34430 0.26530 0.31400
H 	H 	0.20310 0.37320 0.19150 0.02400
S 	S 	0.89577 0.62113 0.78133 -0.43800
O 	O 	0.98517 0.70453 0.64103 -0.47000
O 	O 	0.94607 0.67143 0.50813 -0.52500
C 	C 	0.88477 0.67283 0.63583 -0.12700
C 	C 	0.86387 0.64973 0.71953 0.08900
C 	C 	0.85427 0.69113 0.58823 -0.04900
C 	C 	0.93477 0.67763 0.59863 0.31600
H 	H 	0.86977 0.70653 0.52483 0.03200
S 	S 	0.56243 0.95447 0.11467 -0.44400
O 	O 	0.65183 0.03787 0.97437 -0.53900
O 	O 	0.61273 0.00477 0.84147 -0.57600
C 	C 	0.55143 0.00617 0.96917 -0.25700
C 	C 	0.53053 0.98307 0.05287 0.20300
C 	C 	0.52093 0.02447 0.92157 0.02200
C 	C 	0.60143 0.01097 0.93197 0.33800
H 	H 	0.53643 0.03987 0.85817 -0.00300
S 	S 	0.05870 0.77090 0.44800 -0.49700
O 	O 	0.05270 0.68150 0.30770 -0.53200
O 	O 	0.05870 0.72060 0.17480 -0.55900
C 	C 	0.12140 0.78190 0.30250 -0.14600
C 	C 	0.11920 0.80280 0.38620 0.10200
C 	C 	0.17020 0.81240 0.25490 -0.04400
C 	C 	0.07620 0.73190 0.26530 0.31500
H 	H 	0.17010 0.79690 0.19150 0.02200
S 	S 	0.72537 0.10423 0.78133 -0.47500
O 	O 	0.71937 0.01483 0.64103 -0.54700
O 	O 	0.72537 0.05393 0.50813 -0.56200
C 	C 	0.78807 0.11523 0.63583 -0.14600
C 	C 	0.78587 0.13613 0.71953 0.09500
C 	C 	0.83687 0.14573 0.58823 -0.04300
C 	C 	0.74287 0.06523 0.59863 0.31700
H 	H 	0.83677 0.13023 0.52483 0.02100
S 	S 	0.39203 0.43757 0.11467 -0.46000
O 	O 	0.38603 0.34817 0.97437 -0.51200
O 	O 	0.39203 0.38727 0.84147 -0.54400
C 	C 	0.45473 0.44857 0.96917 -0.13700
C 	C 	0.45253 0.46947 0.05287 0.09100
C 	C 	0.50353 0.47907 0.92157 -0.05000
C 	C 	0.40953 0.39857 0.93197 0.31600
H 	H 	0.50343 0.46357 0.85817 0.02500
S 	S 	0.71220 0.94130 0.44800 -0.41200
O 	O 	0.62880 0.94730 0.30770 -0.48500
O 	O 	0.66190 0.94130 0.17480 -0.52800
C 	C 	0.66050 0.87860 0.30250 -0.12600
C 	C 	0.68360 0.88080 0.38620 0.08200
C 	C 	0.64220 0.82980 0.25490 -0.05300
C 	C 	0.65570 0.92380 0.26530 0.31700
H 	H 	0.62680 0.82990 0.19150 0.02700
S 	S 	0.37887 0.27463 0.78133 -0.46100
O 	O 	0.29547 0.28063 0.64103 -0.51500
O 	O 	0.32857 0.27463 0.50813 -0.54600
C 	C 	0.32717 0.21193 0.63583 -0.13600
C 	C 	0.35027 0.21413 0.71953 0.08700
C 	C 	0.30887 0.16313 0.58823 -0.05900
C 	C 	0.32237 0.25713 0.59863 0.31400
H 	H 	0.29347 0.16323 0.52483 0.02200
S 	S 	0.04553 0.60797 0.11467 -0.46700
O 	O 	0.96213 0.61397 0.97437 -0.48600
O 	O 	0.99523 0.60797 0.84147 -0.50100
C 	C 	0.99383 0.54527 0.96917 -0.01600
C 	C 	0.01693 0.54747 0.05287 -0.02300
C 	C 	0.97553 0.49647 0.92157 -0.12100
C 	C 	0.98903 0.59047 0.93197 0.29100
H 	H 	0.96013 0.49657 0.85817 0.05300
S 	S 	0.71220 0.77090 0.94800 -0.44900
O 	O 	0.62880 0.68150 0.80770 -0.51200
O 	O 	0.66190 0.72060 0.67480 -0.54200
C 	C 	0.66050 0.78190 0.80250 -0.13600
C 	C 	0.68360 0.80280 0.88620 0.09300
C 	C 	0.64220 0.81240 0.75490 -0.04600
C 	C 	0.65570 0.73190 0.76530 0.31800
H 	H 	0.62680 0.79690 0.69150 0.02500
S 	S 	0.37887 0.10423 0.28133 -0.47500
O 	O 	0.29547 0.01483 0.14103 -0.54800
O 	O 	0.32857 0.05393 0.00813 -0.56200
C 	C 	0.32717 0.11523 0.13583 -0.14400
C 	C 	0.35027 0.13613 0.21953 0.09100
C 	C 	0.30887 0.14573 0.08823 -0.05200
C 	C 	0.32237 0.06523 0.09863 0.31500
H 	H 	0.29347 0.13023 0.02483 0.01800
S 	S 	0.04553 0.43757 0.61467 -0.46500
O 	O 	0.96213 0.34817 0.47437 -0.48400
O 	O 	0.99523 0.38727 0.34147 -0.49900
C 	C 	0.99383 0.44857 0.46917 -0.01300
C 	C 	0.01693 0.46947 0.55287 -0.02400
C 	C 	0.97553 0.47907 0.42157 -0.12200
C 	C 	0.98903 0.39857 0.43197 0.29000
H 	H 	0.96013 0.46357 0.35817 0.05400
S 	S 	0.22910 0.94130 0.94800 -0.42000
O 	O 	0.31850 0.94730 0.80770 -0.48300
O 	O 	0.27940 0.94130 0.67480 -0.52800
C 	C 	0.21810 0.87860 0.80250 -0.12700
C 	C 	0.19720 0.88080 0.88620 0.08000
C 	C 	0.18760 0.82980 0.75490 -0.05500
C 	C 	0.26810 0.92380 0.76530 0.31600
H 	H 	0.20310 0.82990 0.69150 0.02700
S 	S 	0.89577 0.27463 0.28133 -0.43700
O 	O 	0.98517 0.28063 0.14103 -0.47100
O 	O 	0.94607 0.27463 0.00813 -0.52400
C 	C 	0.88477 0.21193 0.13583 -0.12500
C 	C 	0.86387 0.21413 0.21953 0.08500
C 	C 	0.85427 0.16313 0.08823 -0.05800
C 	C 	0.93477 0.25713 0.09863 0.31400
H 	H 	0.86977 0.16323 0.02483 0.03000
S 	S 	0.56243 0.60797 0.61467 -0.46000
O 	O 	0.65183 0.61397 0.47437 -0.51200
O 	O 	0.61273 0.60797 0.34147 -0.54500
C 	C 	0.55143 0.54527 0.46917 -0.13700
C 	C 	0.53053 0.54747 0.55287 0.09100
C 	C 	0.52093 0.49647 0.42157 -0.05000
C 	C 	0.60143 0.59047 0.43197 0.31600
H 	H 	0.53643 0.49657 0.35817 0.02500
S 	S 	0.05870 0.28780 0.94800 -0.50700
O 	O 	0.05270 0.37120 0.80770 -0.53000
O 	O 	0.05870 0.33810 0.67480 -0.56000
C 	C 	0.12140 0.33950 0.80250 -0.14600
C 	C 	0.11920 0.31640 0.88620 0.09900
C 	C 	0.17020 0.35780 0.75490 -0.04800
C 	C 	0.07620 0.34430 0.76530 0.31300
H 	H 	0.17010 0.37320 0.69150 0.02300
S 	S 	0.72537 0.62113 0.28133 -0.45900
O 	O 	0.71937 0.70453 0.14103 -0.50900
O 	O 	0.72537 0.67143 0.00813 -0.54300
C 	C 	0.78807 0.67283 0.13583 -0.13800
C 	C 	0.78587 0.64973 0.21953 0.09500
C 	C 	0.83687 0.69113 0.08823 -0.04100
C 	C 	0.74287 0.67763 0.09863 0.31800
H 	H 	0.83677 0.70653 0.02483 0.02700
S 	S 	0.39203 0.95447 0.61467 -0.44200
O 	O 	0.38603 0.03787 0.47437 -0.53800
O 	O 	0.39203 0.00477 0.34147 -0.57500
C 	C 	0.45473 0.00617 0.46917 -0.25800
C 	C 	0.45253 0.98307 0.55287 0.20500
C 	C 	0.50353 0.02447 0.42157 0.02300
C 	C 	0.40953 0.01097 0.43197 0.33900
H 	H 	0.50343 0.03987 0.35817 -0.00300
S 	S 	0.77090 0.71220 0.55200 -0.44900
O 	O 	0.68150 0.62880 0.69230 -0.51200
O 	O 	0.72060 0.66190 0.82520 -0.54300
C 	C 	0.78190 0.66050 0.69750 -0.13600
C 	C 	0.80280 0.68360 0.61380 0.09300
C 	C 	0.81240 0.64220 0.74510 -0.04600
C 	C 	0.73190 0.65570 0.73470 0.31700
H 	H 	0.79690 0.62680 0.80850 0.02400
S 	S 	0.43757 0.04553 0.88533 -0.46600
O 	O 	0.34817 0.96213 0.02563 -0.48600
O 	O 	0.38727 0.99523 0.15853 -0.50100
C 	C 	0.44857 0.99383 0.03083 -0.01600
C 	C 	0.46947 0.01693 0.94713 -0.02200
C 	C 	0.47907 0.97553 0.07843 -0.12100
C 	C 	0.39857 0.98903 0.06803 0.29100
H 	H 	0.46357 0.96013 0.14183 0.05300
S 	S 	0.10423 0.37887 0.21867 -0.47600
O 	O 	0.01483 0.29547 0.35897 -0.55000
O 	O 	0.05393 0.32857 0.49187 -0.56400
C 	C 	0.11523 0.32717 0.36417 -0.14500
C 	C 	0.13613 0.35027 0.28047 0.09100
C 	C 	0.14573 0.30887 0.41177 -0.05200
C 	C 	0.06523 0.32237 0.40137 0.31500
H 	H 	0.13023 0.29347 0.47517 0.01800
S 	S 	0.94130 0.22910 0.55200 -0.42300
O 	O 	0.94730 0.31850 0.69230 -0.48500
O 	O 	0.94130 0.27940 0.82520 -0.53000
C 	C 	0.87860 0.21810 0.69750 -0.12800
C 	C 	0.88080 0.19720 0.61380 0.08000
C 	C 	0.82980 0.18760 0.74510 -0.05600
C 	C 	0.92380 0.26810 0.73470 0.31600
H 	H 	0.82990 0.20310 0.80850 0.02600
S 	S 	0.60797 0.56243 0.88533 -0.46100
O 	O 	0.61397 0.65183 0.02563 -0.51200
O 	O 	0.60797 0.61273 0.15853 -0.54500
C 	C 	0.54527 0.55143 0.03083 -0.13700
C 	C 	0.54747 0.53053 0.94713 0.09100
C 	C 	0.49647 0.52093 0.07843 -0.05000
C 	C 	0.59047 0.60143 0.06803 0.31600
H 	H 	0.49657 0.53643 0.14183 0.02500
S 	S 	0.27463 0.89577 0.21867 -0.43900
O 	O 	0.28063 0.98517 0.35897 -0.47200
O 	O 	0.27463 0.94607 0.49187 -0.52600
C 	C 	0.21193 0.88477 0.36417 -0.12600
C 	C 	0.21413 0.86387 0.28047 0.08500
C 	C 	0.16313 0.85427 0.41177 -0.05800
C 	C 	0.25713 0.93477 0.40137 0.31400
H 	H 	0.16323 0.86977 0.47517 0.02900
S 	S 	0.28780 0.05870 0.55200 -0.50900
O 	O 	0.37120 0.05270 0.69230 -0.53200
O 	O 	0.33810 0.05870 0.82520 -0.56100
C 	C 	0.33950 0.12140 0.69750 -0.14600
C 	C 	0.31640 0.11920 0.61380 0.10000
C 	C 	0.35780 0.17020 0.74510 -0.04800
C 	C 	0.34430 0.07620 0.73470 0.31300
H 	H 	0.37320 0.17010 0.80850 0.02200
S 	S 	0.95447 0.39203 0.88533 -0.44400
O 	O 	0.03787 0.38603 0.02563 -0.53800
O 	O 	0.00477 0.39203 0.15853 -0.57600
C 	C 	0.00617 0.45473 0.03083 -0.25600
C 	C 	0.98307 0.45253 0.94713 0.20300
C 	C 	0.02447 0.50353 0.07843 0.02200
C 	C 	0.01097 0.40953 0.06803 0.33800
H 	H 	0.03987 0.50343 0.14183 -0.00300
S 	S 	0.62113 0.72537 0.21867 -0.46000
O 	O 	0.70453 0.71937 0.35897 -0.50900
O 	O 	0.67143 0.72537 0.49187 -0.54300
C 	C 	0.67283 0.78807 0.36417 -0.13800
C 	C 	0.64973 0.78587 0.28047 0.09500
C 	C 	0.69113 0.83687 0.41177 -0.04100
C 	C 	0.67763 0.74287 0.40137 0.31800
H 	H 	0.70653 0.83677 0.47517 0.02700
Mn	Mn	0.31250 0.33333 0.08333 1.32000
Mn	Mn	0.66667 0.97917 0.08333 1.33900
Mn	Mn	0.33333 0.31250 0.41667 1.32100
Mn	Mn	0.02083 0.68750 0.08333 1.30100
Mn	Mn	0.35417 0.35417 0.75000 1.32100
Mn	Mn	-0.00000 0.64583 0.75000 1.29600
Mn	Mn	0.97917 0.66667 0.41667 1.34000
Mn	Mn	0.64583 0.00000 0.75000 1.29500
Mn	Mn	0.68750 0.02083 0.41667 1.30200
Mn	Mn	0.68750 0.66667 0.91667 1.32100
Mn	Mn	0.35417 0.00000 0.25000 1.29600
Mn	Mn	0.02083 0.33333 0.58333 1.30200
Mn	Mn	0.33333 0.02083 0.91667 1.30100
Mn	Mn	-0.00000 0.35417 0.25000 1.29500
Mn	Mn	0.97917 0.31250 0.91667 1.33800
Mn	Mn	0.64583 0.64583 0.25000 1.32100
Mn	Mn	0.66667 0.68750 0.58333 1.32100
Mn	Mn	0.31250 0.97917 0.58333 1.34000
Mn	Mn	0.40270 0.40270 0.25000 1.22200
Mn	Mn	0.06937 0.73603 0.58333 1.21400
Mn	Mn	0.73603 0.06937 0.91667 1.21300
Mn	Mn	0.59730 0.00000 0.25000 1.19900
Mn	Mn	0.26397 0.33333 0.58333 1.22100
Mn	Mn	0.93063 0.66667 0.91667 1.23100
Mn	Mn	-0.00000 0.59730 0.25000 1.19800
Mn	Mn	0.66667 0.93063 0.58333 1.23200
Mn	Mn	0.33333 0.26397 0.91667 1.22100
Mn	Mn	0.59730 0.59730 0.75000 1.22200
Mn	Mn	0.26397 0.93063 0.08333 1.22900
Mn	Mn	0.93063 0.26397 0.41667 1.23100
Mn	Mn	0.40270 0.00000 0.75000 1.19800
Mn	Mn	0.06937 0.33333 0.08333 1.21200
Mn	Mn	0.73603 0.66667 0.41667 1.22300
Mn	Mn	-0.00000 0.40270 0.75000 1.19900
Mn	Mn	0.66667 0.73603 0.08333 1.22300
Mn	Mn	0.33333 0.06937 0.41667 1.21300
