data_crystal

_cell_length_a 27.28000
_cell_length_b 27.28000
_cell_length_c 15.12100
_cell_angle_alpha 90.00000
_cell_angle_beta  90.00000
_cell_angle_gamma 120.00000

_symmetry_space_group_name_	'P 1'
_symmetry_space_group_name_H-M	'P 1'

loop_
_symmetry_equiv_pos_as_xyz
  x,y,z

loop_
_atom_site_label
_atom_site_type_symbol
_atom_site_fract_x
_atom_site_fract_y
_atom_site_fract_z
_atom_site_charge
S 	S 	0.28010 0.22700 0.05000 -0.46300
O 	O 	0.37990 0.31930 0.19430 -0.58700
O 	O 	0.33600 0.26610 0.31600 -0.45900
C 	C 	0.33820 0.21800 0.19290 -0.11500
C 	C 	0.31510 0.19600 0.10840 0.04900
C 	C 	0.35430 0.18780 0.24400 -0.03400
C 	C 	0.34800 0.27190 0.23400 0.33100
H 	H 	0.37284 0.20710 0.30699 0.03700
S 	S 	0.94677 0.56033 0.38333 -0.43300
O 	O 	0.04657 0.65263 0.52763 -0.61000
O 	O 	0.00267 0.59943 0.64933 -0.48700
C 	C 	0.00487 0.55133 0.52623 -0.22200
C 	C 	0.98177 0.52933 0.44173 0.15400
C 	C 	0.02097 0.52113 0.57733 0.02900
C 	C 	0.01467 0.60523 0.56733 0.35400
H 	H 	0.03951 0.54044 0.64032 0.01600
S 	S 	0.61343 0.89367 0.71667 -0.42700
O 	O 	0.71323 0.98597 0.86097 -0.54400
O 	O 	0.66933 0.93277 0.98267 -0.44000
C 	C 	0.67153 0.88467 0.85957 -0.10300
C 	C 	0.64843 0.86267 0.77507 0.05100
C 	C 	0.68763 0.85447 0.91067 -0.03000
C 	C 	0.68133 0.93857 0.90067 0.33200
H 	H 	0.70618 0.87377 0.97365 0.04500
S 	S 	0.77300 0.05310 0.05000 -0.48400
O 	O 	0.68070 0.06060 0.19430 -0.60200
O 	O 	0.73390 0.06990 0.31600 -0.46700
C 	C 	0.78200 0.12020 0.19290 -0.12000
C 	C 	0.80400 0.11910 0.10840 0.06000
C 	C 	0.81220 0.16650 0.24400 -0.02500
C 	C 	0.72810 0.07610 0.23400 0.33100
H 	H 	0.79290 0.16574 0.30699 0.03600
S 	S 	0.43967 0.38643 0.38333 -0.45000
O 	O 	0.34737 0.39393 0.52763 -0.58600
O 	O 	0.40057 0.40323 0.64933 -0.45600
C 	C 	0.44867 0.45353 0.52623 -0.11300
C 	C 	0.47067 0.45243 0.44173 0.05200
C 	C 	0.47887 0.49983 0.57733 -0.03000
C 	C 	0.39477 0.40943 0.56733 0.33300
H 	H 	0.45956 0.49907 0.64032 0.03800
S 	S 	0.10633 0.71977 0.71667 -0.46200
O 	O 	0.01403 0.72727 0.86097 -0.61700
O 	O 	0.06723 0.73657 0.98267 -0.46900
C 	C 	0.11533 0.78687 0.85957 -0.12000
C 	C 	0.13733 0.78577 0.77507 0.05500
C 	C 	0.14553 0.83317 0.91067 -0.02400
C 	C 	0.06143 0.74277 0.90067 0.33400
H 	H 	0.12623 0.83241 0.97365 0.03500
S 	S 	0.94690 0.71990 0.05000 -0.40000
O 	O 	0.93940 0.62010 0.19430 -0.56100
O 	O 	0.93010 0.66400 0.31600 -0.44000
C 	C 	0.87980 0.66180 0.19290 -0.10300
C 	C 	0.88090 0.68490 0.10840 0.04500
C 	C 	0.83350 0.64570 0.24400 -0.03200
C 	C 	0.92390 0.65200 0.23400 0.33400
H 	H 	0.83426 0.62716 0.30699 0.04000
S 	S 	0.61357 0.05323 0.38333 -0.45600
O 	O 	0.60607 0.95343 0.52763 -0.56200
O 	O 	0.59677 0.99733 0.64933 -0.41700
C 	C 	0.54647 0.99513 0.52623 -0.00300
C 	C 	0.54757 0.01823 0.44173 -0.05000
C 	C 	0.50017 0.97903 0.57733 -0.08900
C 	C 	0.59057 0.98533 0.56733 0.30900
H 	H 	0.50093 0.96049 0.64032 0.06100
S 	S 	0.28023 0.38657 0.71667 -0.45000
O 	O 	0.27273 0.28677 0.86097 -0.59000
O 	O 	0.26343 0.33067 0.98267 -0.45700
C 	C 	0.21313 0.32847 0.85957 -0.11300
C 	C 	0.21423 0.35157 0.77507 0.04800
C 	C 	0.16683 0.31237 0.91067 -0.03700
C 	C 	0.25723 0.31867 0.90067 0.33200
H 	H 	0.16759 0.29382 0.97365 0.03500
S 	S 	0.22700 0.28010 0.45000 -0.46200
O 	O 	0.31930 0.37990 0.30570 -0.58600
O 	O 	0.26610 0.33600 0.18400 -0.45900
C 	C 	0.21800 0.33820 0.30710 -0.11400
C 	C 	0.19600 0.31510 0.39160 0.04900
C 	C 	0.18780 0.35430 0.25600 -0.03300
C 	C 	0.27190 0.34800 0.26600 0.33200
H 	H 	0.20710 0.37284 0.19301 0.03700
S 	S 	0.89367 0.61343 0.78333 -0.42800
O 	O 	0.98597 0.71323 0.63903 -0.54500
O 	O 	0.93277 0.66933 0.51733 -0.44000
C 	C 	0.88467 0.67153 0.64043 -0.10300
C 	C 	0.86267 0.64843 0.72493 0.05100
C 	C 	0.85447 0.68763 0.58933 -0.03000
C 	C 	0.93857 0.68133 0.59933 0.33200
H 	H 	0.87377 0.70618 0.52635 0.04500
S 	S 	0.56033 0.94677 0.11667 -0.43400
O 	O 	0.65263 0.04657 0.97237 -0.61000
O 	O 	0.59943 0.00267 0.85067 -0.48700
C 	C 	0.55133 0.00487 0.97377 -0.22100
C 	C 	0.52933 0.98177 0.05827 0.15200
C 	C 	0.52113 0.02097 0.92267 0.02800
C 	C 	0.60523 0.01467 0.93267 0.35400
H 	H 	0.54044 0.03951 0.85968 0.01600
S 	S 	0.05310 0.77300 0.45000 -0.48800
O 	O 	0.06060 0.68070 0.30570 -0.60300
O 	O 	0.06990 0.73390 0.18400 -0.46800
C 	C 	0.12020 0.78200 0.30710 -0.12100
C 	C 	0.11910 0.80400 0.39160 0.06000
C 	C 	0.16650 0.81220 0.25600 -0.02500
C 	C 	0.07610 0.72810 0.26600 0.33100
H 	H 	0.16574 0.79289 0.19301 0.03600
S 	S 	0.71977 0.10633 0.78333 -0.46400
O 	O 	0.72727 0.01403 0.63903 -0.61900
O 	O 	0.73657 0.06723 0.51733 -0.47100
C 	C 	0.78687 0.11533 0.64043 -0.12100
C 	C 	0.78577 0.13733 0.72493 0.05400
C 	C 	0.83317 0.14553 0.58933 -0.02400
C 	C 	0.74277 0.06143 0.59933 0.33400
H 	H 	0.83241 0.12623 0.52635 0.03400
S 	S 	0.38643 0.43967 0.11667 -0.45000
O 	O 	0.39393 0.34737 0.97237 -0.58700
O 	O 	0.40323 0.40057 0.85067 -0.45600
C 	C 	0.45353 0.44867 0.97377 -0.11300
C 	C 	0.45243 0.47067 0.05827 0.05200
C 	C 	0.49983 0.47887 0.92267 -0.03000
C 	C 	0.40943 0.39477 0.93267 0.33300
H 	H 	0.49907 0.45956 0.85968 0.03800
S 	S 	0.71990 0.94690 0.45000 -0.40000
O 	O 	0.62010 0.93940 0.30570 -0.56200
O 	O 	0.66400 0.93010 0.18400 -0.44100
C 	C 	0.66180 0.87980 0.30710 -0.10400
C 	C 	0.68490 0.88090 0.39160 0.04500
C 	C 	0.64570 0.83350 0.25600 -0.03200
C 	C 	0.65200 0.92390 0.26600 0.33400
H 	H 	0.62716 0.83426 0.19301 0.03900
S 	S 	0.38657 0.28023 0.78333 -0.45100
O 	O 	0.28677 0.27273 0.63903 -0.59000
O 	O 	0.33067 0.26343 0.51733 -0.45700
C 	C 	0.32847 0.21313 0.64043 -0.11300
C 	C 	0.35157 0.21423 0.72493 0.04800
C 	C 	0.31237 0.16683 0.58933 -0.03700
C 	C 	0.31867 0.25723 0.59933 0.33200
H 	H 	0.29382 0.16759 0.52635 0.03500
S 	S 	0.05323 0.61357 0.11667 -0.45800
O 	O 	0.95343 0.60607 0.97237 -0.56400
O 	O 	0.99733 0.59677 0.85067 -0.41800
C 	C 	0.99513 0.54647 0.97377 -0.00500
C 	C 	0.01823 0.54757 0.05827 -0.04900
C 	C 	0.97903 0.50017 0.92267 -0.08800
C 	C 	0.98533 0.59057 0.93267 0.30900
H 	H 	0.96049 0.50093 0.85968 0.06000
S 	S 	0.71990 0.77300 0.95000 -0.43800
O 	O 	0.62010 0.68070 0.80570 -0.58700
O 	O 	0.66400 0.73390 0.68400 -0.45400
C 	C 	0.66180 0.78200 0.80710 -0.11200
C 	C 	0.68490 0.80400 0.89160 0.05400
C 	C 	0.64570 0.81220 0.75600 -0.02700
C 	C 	0.65200 0.72810 0.76600 0.33300
H 	H 	0.62716 0.79290 0.69301 0.03800
S 	S 	0.38657 0.10633 0.28333 -0.46300
O 	O 	0.28677 0.01403 0.13903 -0.62200
O 	O 	0.33067 0.06723 0.01733 -0.47100
C 	C 	0.32847 0.11533 0.14043 -0.12000
C 	C 	0.35157 0.13733 0.22493 0.05100
C 	C 	0.31237 0.14553 0.08933 -0.03100
C 	C 	0.31867 0.06143 0.09933 0.33300
H 	H 	0.29382 0.12623 0.02635 0.03100
S 	S 	0.05323 0.43967 0.61667 -0.45600
O 	O 	0.95343 0.34737 0.47237 -0.56200
O 	O 	0.99733 0.40057 0.35067 -0.41600
C 	C 	0.99513 0.44867 0.47377 -0.00200
C 	C 	0.01823 0.47067 0.55827 -0.05000
C 	C 	0.97903 0.47887 0.42267 -0.08900
C 	C 	0.98533 0.39477 0.43267 0.30900
H 	H 	0.96049 0.45956 0.35968 0.06100
S 	S 	0.22700 0.94690 0.95000 -0.40800
O 	O 	0.31930 0.93940 0.80570 -0.56000
O 	O 	0.26610 0.93010 0.68400 -0.44200
C 	C 	0.21800 0.87980 0.80710 -0.10400
C 	C 	0.19600 0.88090 0.89160 0.04300
C 	C 	0.18780 0.83350 0.75600 -0.03500
C 	C 	0.27190 0.92390 0.76600 0.33300
H 	H 	0.20710 0.83426 0.69301 0.03900
S 	S 	0.89367 0.28023 0.28333 -0.42700
O 	O 	0.98597 0.27273 0.13903 -0.54700
O 	O 	0.93277 0.26343 0.01733 -0.44000
C 	C 	0.88467 0.21313 0.14043 -0.10300
C 	C 	0.86267 0.21423 0.22493 0.04800
C 	C 	0.85447 0.16683 0.08933 -0.03700
C 	C 	0.93857 0.25723 0.09933 0.33100
H 	H 	0.87377 0.16759 0.02635 0.04300
S 	S 	0.56033 0.61357 0.61667 -0.45000
O 	O 	0.65263 0.60607 0.47237 -0.58700
O 	O 	0.59943 0.59677 0.35067 -0.45600
C 	C 	0.55133 0.54647 0.47377 -0.11300
C 	C 	0.52933 0.54757 0.55827 0.05200
C 	C 	0.52113 0.50017 0.42267 -0.03000
C 	C 	0.60523 0.59057 0.43267 0.33300
H 	H 	0.54044 0.50093 0.35968 0.03800
S 	S 	0.05310 0.28010 0.95000 -0.49800
O 	O 	0.06060 0.37990 0.80570 -0.60200
O 	O 	0.06990 0.33600 0.68400 -0.47000
C 	C 	0.12020 0.33820 0.80710 -0.12100
C 	C 	0.11910 0.31510 0.89160 0.05800
C 	C 	0.16650 0.35430 0.75600 -0.02900
C 	C 	0.07610 0.34800 0.76600 0.33000
H 	H 	0.16574 0.37284 0.69301 0.03600
S 	S 	0.71977 0.61343 0.28333 -0.44900
O 	O 	0.72727 0.71323 0.13903 -0.58300
O 	O 	0.73657 0.66933 0.01733 -0.45500
C 	C 	0.78687 0.67153 0.14043 -0.11300
C 	C 	0.78577 0.64843 0.22493 0.05500
C 	C 	0.83317 0.68763 0.08933 -0.02300
C 	C 	0.74277 0.68133 0.09933 0.33400
H 	H 	0.83241 0.70618 0.02635 0.04100
S 	S 	0.38643 0.94677 0.61667 -0.43200
O 	O 	0.39393 0.04657 0.47237 -0.60900
O 	O 	0.40323 0.00267 0.35067 -0.48600
C 	C 	0.45353 0.00487 0.47377 -0.22200
C 	C 	0.45243 0.98177 0.55827 0.15400
C 	C 	0.49983 0.02097 0.42267 0.02900
C 	C 	0.40943 0.01467 0.43267 0.35400
H 	H 	0.49907 0.03951 0.35968 0.01600
S 	S 	0.77300 0.71990 0.55000 -0.43800
O 	O 	0.68070 0.62010 0.69430 -0.58700
O 	O 	0.73390 0.66400 0.81600 -0.45400
C 	C 	0.78200 0.66180 0.69290 -0.11200
C 	C 	0.80400 0.68490 0.60840 0.05400
C 	C 	0.81220 0.64570 0.74400 -0.02700
C 	C 	0.72810 0.65200 0.73400 0.33300
H 	H 	0.79290 0.62716 0.80699 0.03800
S 	S 	0.43967 0.05323 0.88333 -0.45700
O 	O 	0.34737 0.95343 0.02763 -0.56400
O 	O 	0.40057 0.99733 0.14933 -0.41800
C 	C 	0.44867 0.99513 0.02623 -0.00500
C 	C 	0.47067 0.01823 0.94173 -0.04800
C 	C 	0.47887 0.97903 0.07733 -0.08800
C 	C 	0.39477 0.98533 0.06733 0.31000
H 	H 	0.45956 0.96049 0.14032 0.06000
S 	S 	0.10633 0.38657 0.21667 -0.46400
O 	O 	0.01403 0.28677 0.36097 -0.62300
O 	O 	0.06723 0.33067 0.48267 -0.47200
C 	C 	0.11533 0.32847 0.35957 -0.12100
C 	C 	0.13733 0.35157 0.27507 0.05100
C 	C 	0.14553 0.31237 0.41067 -0.03100
C 	C 	0.06143 0.31867 0.40067 0.33300
H 	H 	0.12623 0.29382 0.47365 0.03100
S 	S 	0.94690 0.22700 0.55000 -0.41100
O 	O 	0.93940 0.31930 0.69430 -0.56200
O 	O 	0.93010 0.26610 0.81600 -0.44400
C 	C 	0.87980 0.21800 0.69290 -0.10500
C 	C 	0.88090 0.19600 0.60840 0.04300
C 	C 	0.83350 0.18780 0.74400 -0.03500
C 	C 	0.92390 0.27190 0.73400 0.33300
H 	H 	0.83426 0.20710 0.80699 0.03900
S 	S 	0.61357 0.56033 0.88333 -0.45000
O 	O 	0.60607 0.65263 0.02763 -0.58700
O 	O 	0.59677 0.59943 0.14933 -0.45600
C 	C 	0.54647 0.55133 0.02623 -0.11300
C 	C 	0.54757 0.52933 0.94173 0.05200
C 	C 	0.50017 0.52113 0.07733 -0.03000
C 	C 	0.59057 0.60523 0.06733 0.33300
H 	H 	0.50093 0.54044 0.14032 0.03800
S 	S 	0.28023 0.89367 0.21667 -0.42900
O 	O 	0.27273 0.98597 0.36097 -0.54800
O 	O 	0.26343 0.93277 0.48267 -0.44100
C 	C 	0.21313 0.88467 0.35957 -0.10300
C 	C 	0.21423 0.86267 0.27507 0.04800
C 	C 	0.16683 0.85447 0.41067 -0.03700
C 	C 	0.25723 0.93857 0.40067 0.33100
H 	H 	0.16759 0.87377 0.47365 0.04200
S 	S 	0.28010 0.05310 0.55000 -0.50000
O 	O 	0.37990 0.06060 0.69430 -0.60300
O 	O 	0.33600 0.06990 0.81600 -0.47000
C 	C 	0.33820 0.12020 0.69290 -0.12100
C 	C 	0.31510 0.11910 0.60840 0.05800
C 	C 	0.35430 0.16650 0.74400 -0.02900
C 	C 	0.34800 0.07610 0.73400 0.33000
H 	H 	0.37284 0.16574 0.80699 0.03600
S 	S 	0.94677 0.38643 0.88333 -0.43400
O 	O 	0.04657 0.39393 0.02763 -0.60900
O 	O 	0.00267 0.40323 0.14933 -0.48700
C 	C 	0.00487 0.45353 0.02623 -0.22100
C 	C 	0.98177 0.45243 0.94173 0.15100
C 	C 	0.02097 0.49983 0.07733 0.02800
C 	C 	0.01467 0.40943 0.06733 0.35400
H 	H 	0.03951 0.49907 0.14032 0.01600
S 	S 	0.61343 0.71977 0.21667 -0.44900
O 	O 	0.71323 0.72727 0.36097 -0.58200
O 	O 	0.66933 0.73657 0.48267 -0.45500
C 	C 	0.67153 0.78687 0.35957 -0.11300
C 	C 	0.64843 0.78577 0.27507 0.05500
C 	C 	0.68763 0.83317 0.41067 -0.02300
C 	C 	0.68133 0.74277 0.40067 0.33400
H 	H 	0.70618 0.83241 0.47365 0.04100
Mn	Mn	0.32310 0.33333 0.08333 1.22200
Mn	Mn	0.66667 0.98976 0.08333 1.24400
Mn	Mn	0.33333 0.32310 0.41667 1.22200
Mn	Mn	0.01024 0.67690 0.08333 1.19900
Mn	Mn	0.34357 0.34357 0.75000 1.22200
Mn	Mn	-0.00000 0.65643 0.75000 1.19900
Mn	Mn	0.98976 0.66667 0.41667 1.24500
Mn	Mn	0.65643 0.00000 0.75000 1.19800
Mn	Mn	0.67690 0.01024 0.41667 1.20000
Mn	Mn	0.67690 0.66667 0.91667 1.22200
Mn	Mn	0.34357 0.00000 0.25000 1.19900
Mn	Mn	0.01024 0.33333 0.58333 1.19900
Mn	Mn	0.33333 0.01024 0.91667 1.19900
Mn	Mn	0.00000 0.34357 0.25000 1.19800
Mn	Mn	0.98976 0.32310 0.91667 1.24400
Mn	Mn	0.65643 0.65643 0.25000 1.22200
Mn	Mn	0.66667 0.67690 0.58333 1.22200
Mn	Mn	0.32310 0.98976 0.58333 1.24500
Mn	Mn	0.39767 0.39767 0.25000 1.20500
Mn	Mn	0.06433 0.73100 0.58333 1.19600
Mn	Mn	0.73100 0.06433 0.91667 1.19400
Mn	Mn	0.60233 0.00000 0.25000 1.18200
Mn	Mn	0.26900 0.33333 0.58333 1.20400
Mn	Mn	0.93567 0.66667 0.91667 1.21500
Mn	Mn	0.00000 0.60233 0.25000 1.18100
Mn	Mn	0.66667 0.93567 0.58333 1.21500
Mn	Mn	0.33333 0.26900 0.91667 1.20400
Mn	Mn	0.60233 0.60233 0.75000 1.20500
Mn	Mn	0.26900 0.93567 0.08333 1.21300
Mn	Mn	0.93567 0.26900 0.41667 1.21500
Mn	Mn	0.39767 0.00000 0.75000 1.18100
Mn	Mn	0.06433 0.33333 0.08333 1.19400
Mn	Mn	0.73100 0.66667 0.41667 1.20500
Mn	Mn	0.00000 0.39767 0.75000 1.18200
Mn	Mn	0.66667 0.73100 0.08333 1.20500
Mn	Mn	0.33333 0.06433 0.41667 1.19500
