data_crystal

_cell_length_a 8.89320
_cell_length_b 11.83690
_cell_length_c 15.19420
_cell_angle_alpha 72.92600
_cell_angle_beta  88.75400
_cell_angle_gamma 88.69600

_symmetry_space_group_name_	'P 1'
_symmetry_space_group_name_H-M	'P 1'

loop_
_symmetry_equiv_pos_as_xyz
  x,y,z

loop_
_atom_site_label
_atom_site_type_symbol
_atom_site_fract_x
_atom_site_fract_y
_atom_site_fract_z
_atom_site_charge
C 	C 	0.51850 0.71130 0.07620 0.08400
H 	H 	0.61790 0.72670 0.05710 -0.01700
C 	C 	0.47630 0.59730 0.10860 -0.17900
H 	H 	0.54750 0.53760 0.11140 0.08400
C 	C 	0.33170 0.56730 0.13740 0.10600
C 	C 	0.23330 0.66350 0.13390 -0.17700
H 	H 	0.13410 0.65070 0.15450 0.09600
C 	C 	0.28520 0.77510 0.09990 0.09000
H 	H 	0.21720 0.83680 0.09740 0.00100
C 	C 	0.28020 0.44450 0.16850 -0.06000
C 	C 	0.34960 0.36020 0.13600 0.00200
H 	H 	0.43400 0.38000 0.09780 0.01200
C 	C 	0.29780 0.24740 0.15850 -0.11400
H 	H 	0.34580 0.19330 0.13320 0.06500
C 	C 	0.17710 0.21110 0.21710 0.06800
C 	C 	0.11220 0.29240 0.25300 -0.11600
H 	H 	0.03210 0.27020 0.29450 0.06500
C 	C 	0.16120 0.40790 0.22990 0.00200
H 	H 	0.11360 0.46150 0.25590 0.02700
C 	C 	0.12340 0.08850 0.24060 -0.03400
C 	C 	0.12670 0.99480 0.31920 0.06600
C 	C 	0.01920 0.93310 0.21830 0.10800
H 	H 	0.97110 0.88520 0.18940 0.03300
C 	C 	0.02160 0.11190 0.08050 -0.22900
H 	H 	0.99410 0.19250 0.07820 0.10100
H 	H 	0.93550 0.07740 0.06060 0.08200
C 	C 	0.15160 0.11500 0.01260 0.28600
C 	C 	0.18660 0.98830 0.41020 0.07900
C 	C 	0.15390 0.89880 0.48500 -0.09000
H 	H 	0.09530 0.83780 0.47850 0.07000
C 	C 	0.20420 0.89390 0.57190 -0.01200
H 	H 	0.18060 0.82860 0.62140 0.03100
C 	C 	0.28660 0.98090 0.58720 0.00200
C 	C 	0.32450 0.06820 0.51110 -0.05300
H 	H 	0.38370 0.12870 0.51820 0.04100
C 	C 	0.28030 0.07340 0.42270 -0.12700
H 	H 	0.31380 0.13380 0.37230 0.07400
C 	C 	0.33480 0.97890 0.67940 0.12100
C 	C 	0.30880 0.88820 0.75730 -0.15700
H 	H 	0.26130 0.82080 0.75310 0.08600
C 	C 	0.35260 0.89490 0.84340 0.10000
H 	H 	0.33210 0.83110 0.89470 -0.00300
C 	C 	0.38800 0.08300 0.78850 0.01000
H 	H 	0.39290 0.15500 0.80190 0.01500
C 	C 	0.34800 0.08750 0.69980 -0.06700
H 	H 	0.33120 0.15930 0.65520 0.05100
C 	C 	0.48000 0.06270 0.77900 0.01500
H 	H 	0.54540 0.11980 0.78610 0.01000
C 	C 	0.45000 0.06040 0.69090 -0.11400
H 	H 	0.50040 0.10920 0.64020 0.06400
N 	N 	0.42430 0.80370 0.07020 -0.24100
N 	N 	0.42050 0.98550 0.85630 -0.19400
N 	N 	0.05340 0.04520 0.17640 -0.10200
N 	N 	0.05990 0.89780 0.30350 -0.12900
O 	O 	0.26690 0.04940 0.04480 -0.42800
O 	O 	0.13250 0.17640 0.93340 -0.24100
C 	C 	0.48150 0.28870 0.92380 0.09500
H 	H 	0.38210 0.27330 0.94290 0.01200
C 	C 	0.52370 0.40270 0.89140 -0.16100
H 	H 	0.45250 0.46240 0.88860 0.09500
C 	C 	0.66830 0.43270 0.86260 0.10600
C 	C 	0.76670 0.33650 0.86610 -0.16300
H 	H 	0.86590 0.34930 0.84550 0.10300
C 	C 	0.71480 0.22490 0.90010 0.10600
H 	H 	0.78280 0.16320 0.90260 0.00200
C 	C 	0.71980 0.55550 0.83150 -0.02500
C 	C 	0.65040 0.63980 0.86400 -0.02400
H 	H 	0.56600 0.62000 0.90220 0.05000
C 	C 	0.70220 0.75260 0.84150 -0.06400
H 	H 	0.65420 0.80670 0.86680 0.06700
C 	C 	0.82290 0.78890 0.78290 0.02500
C 	C 	0.88780 0.70760 0.74700 -0.07100
H 	H 	0.96790 0.72980 0.70550 0.05900
C 	C 	0.83880 0.59210 0.77010 -0.02400
H 	H 	0.88640 0.53850 0.74410 0.04100
C 	C 	0.87660 0.91150 0.75940 0.06100
C 	C 	0.87330 0.00520 0.68080 -0.01900
C 	C 	0.98080 0.06690 0.78170 0.04300
H 	H 	0.02890 0.11480 0.81060 0.03400
C 	C 	0.97840 0.88810 0.91950 -0.27200
H 	H 	0.00590 0.80750 0.92180 0.12800
H 	H 	0.06450 0.92260 0.93940 0.14200
C 	C 	0.84840 0.88500 0.98740 0.47700
C 	C 	0.81340 0.01170 0.58980 0.02000
C 	C 	0.84610 0.10120 0.51500 -0.09800
H 	H 	0.90470 0.16220 0.52150 0.07300
C 	C 	0.79580 0.10610 0.42810 0.00300
H 	H 	0.81940 0.17140 0.37860 0.02500
C 	C 	0.71340 0.01910 0.41280 -0.08500
C 	C 	0.67550 0.93180 0.48890 0.04600
H 	H 	0.61630 0.87130 0.48180 0.01900
C 	C 	0.71970 0.92660 0.57730 -0.06300
H 	H 	0.68620 0.86620 0.62770 0.06400
C 	C 	0.66520 0.02110 0.32060 0.05400
C 	C 	0.69120 0.11180 0.24270 -0.15100
H 	H 	0.73870 0.17920 0.24690 0.08100
C 	C 	0.64740 0.10510 0.15660 0.08200
H 	H 	0.66790 0.16890 0.10530 -0.03000
C 	C 	0.61200 0.91700 0.21150 0.04200
H 	H 	0.60710 0.84500 0.19810 0.00600
C 	C 	0.65200 0.91250 0.30020 -0.03100
H 	H 	0.66880 0.84070 0.34480 0.04700
C 	C 	0.52000 0.93730 0.22100 0.04600
H 	H 	0.45460 0.88020 0.21390 0.00800
C 	C 	0.55000 0.93960 0.30910 -0.06900
H 	H 	0.49960 0.89080 0.35980 0.06100
N 	N 	0.57570 0.19630 0.92980 -0.22700
N 	N 	0.57950 0.01450 0.14370 -0.26100
N 	N 	0.94660 0.95480 0.82360 -0.06200
N 	N 	0.94010 0.10220 0.69650 -0.11200
O 	O 	0.73310 0.95060 0.95520 -0.39300
O 	O 	0.86750 0.82360 0.06660 -0.36000
Cd	Cd	0.50000 0.00000 -0.00000 1.17900
