data_crystal

_cell_length_a 6.60580
_cell_length_b 24.88600
_cell_length_c 14.62720
_cell_angle_alpha 90.00000
_cell_angle_beta  102.22400
_cell_angle_gamma 90.00000

_symmetry_space_group_name_	'P 1'
_symmetry_space_group_name_H-M	'P 1'

loop_
_symmetry_equiv_pos_as_xyz
  x,y,z

loop_
_atom_site_label
_atom_site_type_symbol
_atom_site_fract_x
_atom_site_fract_y
_atom_site_fract_z
_atom_site_charge
O 	O 	0.82150 0.17010 0.42850 -0.23500
C 	C 	0.72960 0.19441 0.34220 0.17400
H 	H 	0.83110 0.19320 0.30030 -0.00300
C 	C 	0.53220 0.16532 0.29360 0.01900
H 	H 	0.46220 0.18580 0.23680 0.04900
C 	C 	0.38510 0.15842 0.36030 0.10100
H 	H 	0.33820 0.19470 0.37670 0.02000
C 	C 	0.49930 0.13115 0.44870 0.07800
H 	H 	0.55190 0.09570 0.43150 0.03200
C 	C 	0.68470 0.16595 0.49330 0.01700
H 	H 	0.63550 0.20260 0.50650 0.05100
C 	C 	0.81640 0.14260 0.58220 0.03800
H 	H 	0.94090 0.16520 0.60290 0.04600
H 	H 	0.73630 0.14280 0.63230 0.03000
O 	O 	0.67540 0.24895 0.35330 -0.24800
O 	O 	0.20740 0.12729 0.31860 -0.40500
H 	H 	0.15870 0.13880 0.26440 0.27200
O 	O 	0.36270 0.12193 0.51050 -0.39800
H 	H 	0.40410 0.09530 0.54460 0.24900
O 	O 	0.87830 0.08902 0.56760 -0.35000
H 	H 	0.77720 0.06820 0.56520 0.17800
C 	C 	0.83720 0.28580 0.36590 0.17000
C 	C 	0.78150 0.33940 0.35370 -0.09400
H 	H 	0.63940 0.34930 0.33970 0.08500
C 	C 	0.93490 0.37895 0.36190 -0.09600
H 	H 	0.89720 0.41570 0.35290 0.08200
C 	C 	0.14040 0.36440 0.38300 0.16800
C 	C 	0.19610 0.31090 0.39770 -0.08800
H 	H 	0.33810 0.30100 0.41300 0.08200
C 	C 	0.04370 0.27180 0.38990 -0.10000
H 	H 	0.08170 0.23520 0.40120 0.08500
O 	O 	0.20030 0.46648 0.48190 -0.18900
C 	C 	0.26780 0.45512 0.39900 0.14600
H 	H 	0.15830 0.46670 0.34430 0.00800
C 	C 	0.47000 0.48461 0.39560 0.06500
H 	H 	0.52000 0.47120 0.33980 0.03800
C 	C 	0.63450 0.47015 0.48360 0.00300
H 	H 	0.67780 0.43190 0.47890 0.05000
C 	C 	0.55310 0.47718 0.57280 0.09900
H 	H 	0.54370 0.51640 0.58650 0.02900
C 	C 	0.34210 0.45120 0.56660 -0.00400
H 	H 	0.35910 0.41120 0.56710 0.05800
C 	C 	0.24200 0.46720 0.64620 0.10300
H 	H 	0.10930 0.44760 0.64020 0.02000
H 	H 	0.33320 0.45620 0.70600 0.01700
O 	O 	0.30780 0.39933 0.39010 -0.24100
O 	O 	0.43670 0.53992 0.38460 -0.35800
H 	H 	0.32990 0.54850 0.40370 0.17100
O 	O 	0.81100 0.50415 0.48970 -0.18700
O 	O 	0.69800 0.45224 0.64690 -0.35100
H 	H 	0.79770 0.44000 0.62600 0.22500
O 	O 	0.20330 0.52352 0.64860 -0.41200
H 	H 	0.30570 0.53880 0.68250 0.25400
Na	Na	0.03700 0.08495 0.43247 0.60000
O 	O 	0.58800 0.11317 0.26760 -0.35400
H 	H 	0.63820 0.11540 0.21960 0.24700
O 	O 	0.17850 0.67010 0.57150 -0.23400
C 	C 	0.27040 0.69441 0.65780 0.17500
H 	H 	0.16890 0.69320 0.69970 -0.00100
C 	C 	0.46780 0.66532 0.70640 0.02000
H 	H 	0.53780 0.68580 0.76320 0.05000
C 	C 	0.61490 0.65842 0.63970 0.10100
H 	H 	0.66180 0.69470 0.62330 0.02000
C 	C 	0.50070 0.63115 0.55130 0.07800
H 	H 	0.44810 0.59570 0.56850 0.03100
C 	C 	0.31530 0.66595 0.50670 0.01700
H 	H 	0.36450 0.70260 0.49350 0.05100
C 	C 	0.18360 0.64260 0.41780 0.03800
H 	H 	0.05910 0.66520 0.39710 0.04500
H 	H 	0.26370 0.64280 0.36770 0.03000
O 	O 	0.32460 0.74895 0.64670 -0.24900
O 	O 	0.79260 0.62729 0.68140 -0.40600
H 	H 	0.84130 0.63880 0.73560 0.27200
O 	O 	0.63730 0.62193 0.48950 -0.39800
H 	H 	0.59590 0.59530 0.45540 0.24900
O 	O 	0.12170 0.58902 0.43240 -0.35100
H 	H 	0.22280 0.56820 0.43480 0.17600
C 	C 	0.16280 0.78580 0.63410 0.17100
C 	C 	0.21850 0.83940 0.64630 -0.09500
H 	H 	0.36060 0.84930 0.66030 0.08500
C 	C 	0.06510 0.87895 0.63810 -0.09500
H 	H 	0.10280 0.91570 0.64710 0.08000
C 	C 	0.85960 0.86440 0.61700 0.16800
C 	C 	0.80390 0.81090 0.60230 -0.08800
H 	H 	0.66190 0.80100 0.58700 0.08200
C 	C 	0.95630 0.77180 0.61010 -0.10000
H 	H 	0.91830 0.73520 0.59880 0.08500
O 	O 	0.79970 0.96648 0.51810 -0.19800
C 	C 	0.73220 0.95512 0.60100 0.15200
H 	H 	0.84170 0.96670 0.65570 0.00200
C 	C 	0.53000 0.98461 0.60440 0.04900
H 	H 	0.48000 0.97120 0.66020 0.03800
C 	C 	0.36550 0.97015 0.51640 0.00000
H 	H 	0.32220 0.93190 0.52110 0.05000
C 	C 	0.44690 0.97718 0.42720 0.07500
H 	H 	0.45630 0.01640 0.41350 0.04500
C 	C 	0.65790 0.95120 0.43340 0.00900
H 	H 	0.64090 0.91120 0.43290 0.05500
C 	C 	0.75800 0.96720 0.35380 0.07900
H 	H 	0.89070 0.94760 0.35980 0.02400
H 	H 	0.66680 0.95620 0.29400 0.02100
O 	O 	0.69220 0.89933 0.60990 -0.24200
O 	O 	0.56330 0.03992 0.61540 -0.34600
H 	H 	0.67010 0.04850 0.59630 0.17000
O 	O 	0.18900 0.00415 0.51030 -0.17600
O 	O 	0.30200 0.95224 0.35310 -0.34900
H 	H 	0.20230 0.94000 0.37400 0.22200
O 	O 	0.79670 0.02352 0.35140 -0.39700
H 	H 	0.69430 0.03880 0.31750 0.25200
Na	Na	0.96300 0.58495 0.56753 0.60000
O 	O 	0.41200 0.61317 0.73240 -0.35500
H 	H 	0.36180 0.61540 0.78040 0.24700
O 	O 	0.72560 0.22434 0.02300 -0.22000
C 	C 	0.85740 0.24020 0.10820 0.16100
H 	H 	0.78860 0.23130 0.16100 0.00600
C 	C 	0.06840 0.21196 0.12480 0.06000
H 	H 	0.16080 0.22850 0.18070 0.03600
C 	C 	0.16270 0.22210 0.03920 0.05700
H 	H 	0.19530 0.26120 0.03660 0.03400
C 	C 	0.01820 0.20640 0.94890 0.06900
H 	H 	0.99940 0.16650 0.94870 0.03100
C 	C 	0.80830 0.23250 0.93960 0.01400
H 	H 	0.82230 0.27200 0.92940 0.05600
C 	C 	0.64230 0.20950 0.85900 0.09700
H 	H 	0.51400 0.23110 0.85210 0.01400
H 	H 	0.69170 0.21220 0.79980 0.01800
O 	O 	0.59760 0.15491 0.87550 -0.43300
H 	H 	0.64510 0.13510 0.83860 0.27000
O 	O 	0.89720 0.29630 0.10920 -0.24400
O 	O 	0.04230 0.15746 0.14370 -0.40900
H 	H 	0.08460 0.13860 0.10390 0.25800
O 	O 	0.35210 0.19230 0.05190 -0.40100
H 	H 	0.44120 0.21050 0.03220 0.24000
O 	O 	0.10200 0.22085 0.86990 -0.34500
H 	H 	0.21840 0.20630 0.87430 0.21400
C 	C 	0.73220 0.33080 0.10890 0.16500
C 	C 	0.54740 0.31690 0.13230 -0.09000
H 	H 	0.52300 0.28070 0.14730 0.07600
C 	C 	0.39630 0.35580 0.13400 -0.10300
H 	H 	0.27020 0.34600 0.15090 0.09000
C 	C 	0.42910 0.40810 0.11120 0.17900
C 	C 	0.61440 0.42190 0.08720 -0.10400
H 	H 	0.63710 0.45790 0.07040 0.08700
C 	C 	0.76650 0.38370 0.08720 -0.08600
H 	H 	0.89450 0.39380 0.07230 0.08300
O 	O 	0.35690 0.52322 0.04140 -0.23200
C 	C 	0.33230 0.49904 0.12630 0.17800
H 	H 	0.46800 0.50070 0.17210 0.00400
C 	C 	0.16660 0.52708 0.17000 0.02100
H 	H 	0.12790 0.50230 0.21740 0.03900
C 	C 	0.97240 0.53990 0.09700 0.11100
H 	H 	0.89700 0.50540 0.07830 0.01700
C 	C 	0.02420 0.56496 0.01030 0.01300
H 	H 	0.09960 0.59950 0.02860 0.04900
C 	C 	0.16720 0.52719 0.97170 0.03500
H 	H 	0.10150 0.49090 0.96030 0.04700
C 	C 	0.21900 0.54820 0.88190 0.05300
H 	H 	0.32480 0.52470 0.86360 0.03700
H 	H 	0.09330 0.54710 0.83120 0.03500
O 	O 	0.27250 0.44434 0.11270 -0.25000
O 	O 	0.25490 0.57428 0.21690 -0.37500
H 	H 	0.30700 0.56700 0.27300 0.24500
O 	O 	0.83600 0.57529 0.13010 -0.42700
H 	H 	0.88690 0.58370 0.18590 0.25400
O 	O 	0.83760 0.57665 0.94420 -0.21500
O 	O 	0.29580 0.60224 0.89290 -0.43000
H 	H 	0.19620 0.62360 0.89010 0.26600
Na	Na	0.57020 0.61069 0.02162 0.60000
O 	O 	0.27440 0.72434 0.97700 -0.22000
C 	C 	0.14260 0.74020 0.89180 0.16100
H 	H 	0.21140 0.73130 0.83900 0.00600
C 	C 	0.93160 0.71196 0.87520 0.06000
H 	H 	0.83920 0.72850 0.81930 0.03600
C 	C 	0.83730 0.72210 0.96080 0.05700
H 	H 	0.80470 0.76120 0.96340 0.03400
C 	C 	0.98180 0.70640 0.05110 0.06800
H 	H 	0.00060 0.66650 0.05130 0.03100
C 	C 	0.19170 0.73250 0.06040 0.01400
H 	H 	0.17770 0.77200 0.07060 0.05500
C 	C 	0.35770 0.70950 0.14100 0.09700
H 	H 	0.48600 0.73110 0.14790 0.01400
H 	H 	0.30830 0.71220 0.20020 0.01800
O 	O 	0.40240 0.65491 0.12450 -0.43300
H 	H 	0.35490 0.63510 0.16140 0.27000
O 	O 	0.10280 0.79630 0.89080 -0.24400
O 	O 	0.95770 0.65746 0.85630 -0.40900
H 	H 	0.91540 0.63860 0.89610 0.25800
O 	O 	0.64790 0.69230 0.94810 -0.40100
H 	H 	0.55880 0.71050 0.96780 0.24000
O 	O 	0.89800 0.72085 0.13010 -0.34500
H 	H 	0.78160 0.70630 0.12570 0.21400
C 	C 	0.26780 0.83080 0.89110 0.16700
C 	C 	0.45260 0.81690 0.86770 -0.09300
H 	H 	0.47700 0.78070 0.85270 0.07700
C 	C 	0.60370 0.85580 0.86600 -0.09900
H 	H 	0.72980 0.84600 0.84910 0.08800
C 	C 	0.57090 0.90810 0.88880 0.17200
C 	C 	0.38560 0.92190 0.91280 -0.10000
H 	H 	0.36290 0.95790 0.92960 0.08100
C 	C 	0.23350 0.88370 0.91280 -0.09000
H 	H 	0.10550 0.89380 0.92770 0.08300
O 	O 	0.64310 0.02322 0.95860 -0.22000
C 	C 	0.66770 0.99904 0.87370 0.13100
H 	H 	0.53200 0.00070 0.82790 0.02700
C 	C 	0.83340 0.02708 0.83000 0.04400
H 	H 	0.87210 0.00230 0.78260 0.03800
C 	C 	0.02760 0.03990 0.90300 0.10400
H 	H 	0.10300 0.00540 0.92170 0.02400
C 	C 	0.97580 0.06496 0.98970 0.01200
H 	H 	0.90040 0.09950 0.97140 0.04900
C 	C 	0.83280 0.02719 0.02830 0.05500
H 	H 	0.89850 0.99090 0.03970 0.03000
C 	C 	0.78100 0.04820 0.11810 0.04200
H 	H 	0.67520 0.02470 0.13640 0.04400
H 	H 	0.90670 0.04710 0.16880 0.04100
O 	O 	0.72750 0.94434 0.88730 -0.24300
O 	O 	0.74510 0.07428 0.78310 -0.38100
H 	H 	0.69300 0.06700 0.72700 0.24700
O 	O 	0.16400 0.07529 0.86990 -0.42500
H 	H 	0.11310 0.08370 0.81410 0.25400
O 	O 	0.16240 0.07665 0.05580 -0.21300
O 	O 	0.70420 0.10224 0.10710 -0.42700
H 	H 	0.80380 0.12360 0.10990 0.26500
Na	Na	0.42980 0.11069 0.97838 0.60000
