data_crystal

_cell_length_a 10.26700
_cell_length_b 32.08600
_cell_length_c 6.95500
_cell_angle_alpha 90.00000
_cell_angle_beta  90.00000
_cell_angle_gamma 90.00000

_symmetry_space_group_name_	'P 1'
_symmetry_space_group_name_H-M	'P 1'

loop_
_symmetry_equiv_pos_as_xyz
  x,y,z

loop_
_atom_site_label
_atom_site_type_symbol
_atom_site_fract_x
_atom_site_fract_y
_atom_site_fract_z
_atom_site_charge
C 	C 	0.06830 0.23030 0.11130 -0.10300
H 	H 	0.11650 0.24500 0.01470 0.02900
C 	C 	0.06640 0.18639 0.11130 -0.03700
H 	H 	0.11270 0.17130 0.01360 0.01100
C 	C 	0.56830 0.73030 0.11130 -0.06800
H 	H 	0.61650 0.74500 0.01470 0.02900
C 	C 	0.56640 0.68639 0.11130 -0.01100
H 	H 	0.61270 0.67130 0.01360 0.01200
C 	C 	0.93170 0.76970 0.61130 0.00900
H 	H 	0.88350 0.75500 0.51470 0.03700
C 	C 	0.93360 0.81361 0.61130 0.09400
H 	H 	0.88730 0.82870 0.51360 0.02100
C 	C 	0.43170 0.26970 0.61130 -0.05900
H 	H 	0.38350 0.25500 0.51470 0.04300
C 	C 	0.43360 0.31361 0.61130 -0.02000
H 	H 	0.38730 0.32870 0.51360 0.03800
C 	C 	0.93170 0.23030 0.38870 -0.00100
H 	H 	0.88350 0.24500 0.48530 0.05200
C 	C 	0.93360 0.18639 0.38870 0.10400
H 	H 	0.88730 0.17130 0.48640 0.01900
C 	C 	0.43170 0.73030 0.38870 -0.07000
H 	H 	0.38350 0.74500 0.48530 0.05800
C 	C 	0.43360 0.68639 0.38870 -0.01300
H 	H 	0.38730 0.67130 0.48640 0.03600
C 	C 	0.06830 0.76970 0.88870 -0.08600
H 	H 	0.11650 0.75500 0.98530 0.07300
C 	C 	0.06640 0.81361 0.88870 -0.03900
H 	H 	0.11270 0.82870 0.98640 0.06600
C 	C 	0.56830 0.26970 0.88870 -0.05400
H 	H 	0.61650 0.25500 0.98530 0.07100
C 	C 	0.56640 0.31361 0.88870 -0.01400
H 	H 	0.61270 0.32870 0.98640 0.06700
C 	C 	0.93170 0.76970 0.88870 0.01000
H 	H 	0.88350 0.75500 0.98530 0.06500
C 	C 	0.93360 0.81361 0.88870 0.09400
H 	H 	0.88730 0.82870 0.98640 0.04700
C 	C 	0.43170 0.26970 0.88870 -0.05700
H 	H 	0.38350 0.25500 0.98530 0.07200
C 	C 	0.43360 0.31361 0.88870 -0.01800
H 	H 	0.38730 0.32870 0.98640 0.06400
C 	C 	0.06830 0.23030 0.38870 -0.10000
H 	H 	0.11650 0.24500 0.48530 0.05800
C 	C 	0.06640 0.18639 0.38870 -0.03500
H 	H 	0.11270 0.17130 0.48640 0.03700
C 	C 	0.56830 0.73030 0.38870 -0.06600
H 	H 	0.61650 0.74500 0.48530 0.05800
C 	C 	0.56640 0.68639 0.38870 -0.00900
H 	H 	0.61270 0.67130 0.48640 0.03900
C 	C 	0.06830 0.76970 0.61130 -0.08900
H 	H 	0.11650 0.75500 0.51470 0.04400
C 	C 	0.06640 0.81361 0.61130 -0.04200
H 	H 	0.11270 0.82870 0.51360 0.04000
C 	C 	0.56830 0.26970 0.61130 -0.05600
H 	H 	0.61650 0.25500 0.51470 0.04300
C 	C 	0.56640 0.31361 0.61130 -0.01600
H 	H 	0.61270 0.32870 0.51360 0.04100
C 	C 	0.93170 0.23030 0.11130 -0.00300
H 	H 	0.88350 0.24500 0.01470 0.02300
C 	C 	0.93360 0.18639 0.11130 0.10200
H 	H 	0.88730 0.17130 0.01360 -0.00700
C 	C 	0.43170 0.73030 0.11130 -0.07200
H 	H 	0.38350 0.74500 0.01470 0.02800
C 	C 	0.43360 0.68639 0.11130 -0.01500
H 	H 	0.38730 0.67130 0.01360 0.00900
Zn	Zn	0.50000 0.50000 0.50000 1.17400
Zn	Zn	0.00000 0.00000 0.50000 1.14600
Zn	Zn	0.50000 0.50000 -0.00000 1.15000
Zn	Zn	-0.00000 0.00000 -0.00000 1.12200
Zn	Zn	0.50000 0.40393 0.25000 1.21000
Zn	Zn	-0.00000 0.90393 0.25000 1.19100
Zn	Zn	0.50000 0.59607 0.75000 1.22500
Zn	Zn	-0.00000 0.09607 0.75000 1.20500
O 	O 	0.23530 0.42730 0.25000 -0.36800
O 	O 	0.45470 0.46568 0.25000 -0.42600
O 	O 	0.33960 0.36950 0.25000 -0.49800
C 	C 	0.23600 0.38850 0.25000 0.37500
C 	C 	0.11440 0.36461 0.25000 -0.12700
C 	C 	0.11600 0.32058 0.25000 0.02200
H 	H 	0.19490 0.30640 0.25000 0.02300
O 	O 	0.73530 0.92730 0.25000 -0.33800
O 	O 	0.95470 0.96568 0.25000 -0.26300
O 	O 	0.83960 0.86950 0.25000 -0.46200
C 	C 	0.73600 0.88850 0.25000 0.38300
C 	C 	0.61440 0.86461 0.25000 -0.14600
C 	C 	0.61600 0.82058 0.25000 0.02900
H 	H 	0.69490 0.80640 0.25000 0.02300
O 	O 	0.76470 0.57270 0.75000 -0.30800
O 	O 	0.54530 0.53432 0.75000 -0.39300
O 	O 	0.66040 0.63050 0.75000 -0.44800
C 	C 	0.76400 0.61150 0.75000 0.35600
C 	C 	0.88560 0.63539 0.75000 -0.02800
C 	C 	0.88400 0.67942 0.75000 0.06900
H 	H 	0.80510 0.69360 0.75000 0.03400
O 	O 	0.26470 0.07270 0.75000 -0.33400
O 	O 	0.04530 0.03432 0.75000 -0.51600
O 	O 	0.16040 0.13050 0.75000 -0.46600
C 	C 	0.26400 0.11150 0.75000 0.38400
C 	C 	0.38560 0.13539 0.75000 -0.12100
C 	C 	0.38400 0.17942 0.75000 0.01500
H 	H 	0.30510 0.19360 0.75000 0.04400
O 	O 	0.76470 0.42730 0.25000 -0.33700
O 	O 	0.54530 0.46568 0.25000 -0.41600
O 	O 	0.66040 0.36950 0.25000 -0.49200
C 	C 	0.76400 0.38850 0.25000 0.36800
C 	C 	0.88560 0.36461 0.25000 -0.06700
C 	C 	0.88400 0.32058 0.25000 0.09500
H 	H 	0.80510 0.30640 0.25000 0.00500
O 	O 	0.26470 0.92730 0.25000 -0.34900
O 	O 	0.04530 0.96568 0.25000 -0.52300
O 	O 	0.16040 0.86950 0.25000 -0.50800
C 	C 	0.26400 0.88850 0.25000 0.39200
C 	C 	0.38560 0.86461 0.25000 -0.15300
C 	C 	0.38400 0.82058 0.25000 0.03400
H 	H 	0.30510 0.80640 0.25000 0.01600
O 	O 	0.23530 0.57270 0.75000 -0.33800
O 	O 	0.45470 0.53432 0.75000 -0.40300
O 	O 	0.33960 0.63050 0.75000 -0.45300
C 	C 	0.23600 0.61150 0.75000 0.36300
C 	C 	0.11440 0.63539 0.75000 -0.08700
C 	C 	0.11600 0.67942 0.75000 -0.00100
H 	H 	0.19490 0.69360 0.75000 0.05200
O 	O 	0.73530 0.07270 0.75000 -0.32400
O 	O 	0.95470 0.03432 0.75000 -0.25700
O 	O 	0.83960 0.13050 0.75000 -0.42200
C 	C 	0.73600 0.11150 0.75000 0.37500
C 	C 	0.61440 0.13539 0.75000 -0.11500
C 	C 	0.61600 0.17942 0.75000 0.01000
H 	H 	0.69490 0.19360 0.75000 0.04900
N 	N 	-0.00000 0.05633 0.34300 -0.22200
N 	N 	-0.00000 0.09541 0.40720 -0.20300
N 	N 	0.50000 0.55633 0.34300 -0.20400
N 	N 	0.50000 0.59541 0.40720 -0.18200
N 	N 	0.00000 0.94367 0.84300 -0.18600
N 	N 	0.00000 0.90459 0.90720 -0.17700
N 	N 	0.50000 0.44367 0.84300 -0.18000
N 	N 	0.50000 0.40459 0.90720 -0.15800
N 	N 	0.00000 0.05633 0.15700 -0.23400
N 	N 	-0.00000 0.09541 0.09280 -0.22200
N 	N 	0.50000 0.55633 0.15700 -0.21500
N 	N 	0.50000 0.59541 0.09280 -0.20200
N 	N 	0.00000 0.94367 0.65700 -0.20300
N 	N 	0.00000 0.90459 0.59280 -0.19700
N 	N 	0.50000 0.44367 0.65700 -0.19700
N 	N 	0.50000 0.40459 0.59280 -0.17800
C 	C 	0.00000 0.38550 0.25000 -0.03900
H 	H 	0.00000 0.41450 0.25000 0.03600
C 	C 	0.00000 0.29864 0.25000 -0.12800
C 	C 	-0.00000 0.25196 0.25000 0.00400
C 	C 	-0.00000 0.16507 0.25000 -0.19100
C 	C 	-0.00000 0.11868 0.25000 0.14200
C 	C 	0.50000 0.88550 0.25000 0.08200
H 	H 	0.50000 0.91450 0.25000 0.02600
C 	C 	0.50000 0.79864 0.25000 -0.06900
C 	C 	0.50000 0.75196 0.25000 0.08400
C 	C 	0.50000 0.66507 0.25000 -0.05200
C 	C 	0.50000 0.61868 0.25000 0.12500
C 	C 	0.00000 0.61450 0.75000 -0.06600
H 	H 	0.00000 0.58550 0.75000 0.05800
C 	C 	-0.00000 0.70136 0.75000 -0.09300
C 	C 	-0.00000 0.74804 0.75000 -0.01200
C 	C 	-0.00000 0.83493 0.75000 -0.16600
C 	C 	-0.00000 0.88132 0.75000 0.15300
C 	C 	0.50000 0.11450 0.75000 0.06100
H 	H 	0.50000 0.08550 0.75000 0.03700
C 	C 	0.50000 0.20136 0.75000 -0.04000
C 	C 	0.50000 0.24804 0.75000 0.06900
C 	C 	0.50000 0.33493 0.75000 -0.03100
C 	C 	0.50000 0.38132 0.75000 0.13500
