data_crystal

_cell_length_a 11.47900
_cell_length_b 8.35600
_cell_length_c 12.07900
_cell_angle_alpha 90.00000
_cell_angle_beta  104.03900
_cell_angle_gamma 90.00000

_symmetry_space_group_name_	'P 1'
_symmetry_space_group_name_H-M	'P 1'

loop_
_symmetry_equiv_pos_as_xyz
  x,y,z

loop_
_atom_site_label
_atom_site_type_symbol
_atom_site_fract_x
_atom_site_fract_y
_atom_site_fract_z
_atom_site_charge
Co	Co	0.14837 0.51734 0.35107 0.98300
C 	C 	0.53850 0.42070 0.71030 -0.01200
H 	H 	0.55530 0.53090 0.72570 0.02700
C 	C 	0.42700 0.36200 0.71570 -0.06400
H 	H 	0.37090 0.43270 0.73620 0.02800
C 	C 	0.62580 0.32580 0.68340 -0.10900
H 	H 	0.70210 0.36760 0.68100 0.01500
C 	C 	0.59700 0.16660 0.66020 0.04300
C 	C 	0.39500 0.20410 0.69220 -0.06600
H 	H 	0.31810 0.16410 0.69450 0.00800
C 	C 	0.48340 0.10640 0.66460 -0.00100
C 	C 	0.59260 0.91140 0.62000 0.11300
H 	H 	0.61530 0.80790 0.60020 -0.04600
C 	C 	0.26030 0.71930 0.89490 0.09900
C 	C 	0.16280 0.41160 0.00150 0.07900
C 	C 	0.38320 0.79810 0.76550 0.09700
C 	C 	0.26950 0.75720 0.78390 -0.16100
H 	H 	0.20040 0.75540 0.72190 0.02700
C 	C 	0.13300 0.68620 0.90910 -0.11600
H 	H 	0.09640 0.78780 0.92590 0.05600
H 	H 	0.08290 0.64330 0.83660 0.02900
C 	C 	0.15990 0.35750 0.11070 0.00000
C 	C 	0.18470 0.19630 0.13990 -0.02300
H 	H 	0.18330 0.15820 0.21360 -0.02200
C 	C 	0.21080 0.15370 0.94960 0.03200
H 	H 	0.22810 0.08190 0.89470 -0.01400
C 	C 	0.21130 0.09400 0.05950 -0.15300
H 	H 	0.22980 0.98480 0.07770 0.09900
C 	C 	0.35780 0.72260 0.98290 -0.14200
H 	H 	0.35020 0.69440 0.05700 0.08500
C 	C 	0.48030 0.80310 0.85580 -0.13300
H 	H 	0.55630 0.83150 0.84330 0.08700
C 	C 	0.11760 0.61020 0.10540 0.06900
H 	H 	0.09890 0.71480 0.12670 -0.03500
C 	C 	0.18640 0.31030 0.91880 -0.14100
H 	H 	0.18580 0.34760 0.84430 0.04500
C 	C 	0.47160 0.76730 0.96740 0.05100
H 	H 	0.53980 0.77300 0.03010 0.02100
C 	C 	0.38850 0.83070 0.64450 -0.10800
H 	H 	0.40260 0.72890 0.60780 0.03700
H 	H 	0.31030 0.87410 0.60160 0.02600
N 	N 	0.13050 0.48430 0.17340 -0.27000
N 	N 	0.13430 0.57120 0.00150 -0.12300
N 	N 	0.48490 0.94590 0.63830 -0.10400
N 	N 	0.66480 0.03980 0.63270 -0.30600
Co	Co	0.85163 0.01734 0.64893 0.96600
C 	C 	0.46150 0.92070 0.28970 0.11300
H 	H 	0.44470 0.03090 0.27430 -0.04300
C 	C 	0.57300 0.86200 0.28430 -0.12800
H 	H 	0.62910 0.93270 0.26380 0.06500
C 	C 	0.37420 0.82580 0.31660 -0.17300
H 	H 	0.29790 0.86760 0.31900 0.04700
C 	C 	0.40300 0.66660 0.33980 0.06900
C 	C 	0.60500 0.70410 0.30780 -0.03400
H 	H 	0.68190 0.66410 0.30550 0.00900
C 	C 	0.51660 0.60640 0.33540 0.01600
C 	C 	0.40740 0.41140 0.38000 0.06800
H 	H 	0.38470 0.30790 0.39980 -0.03900
C 	C 	0.73970 0.21930 0.10510 0.07800
C 	C 	0.83720 0.91160 0.99850 0.09900
C 	C 	0.61680 0.29810 0.23450 0.08000
C 	C 	0.73050 0.25720 0.21610 -0.15900
H 	H 	0.79960 0.25540 0.27810 0.01700
C 	C 	0.86700 0.18620 0.09090 -0.10300
H 	H 	0.90360 0.28780 0.07410 0.04800
H 	H 	0.91710 0.14330 0.16340 0.01600
C 	C 	0.84010 0.85750 0.88930 0.02100
C 	C 	0.81530 0.69630 0.86010 -0.07300
H 	H 	0.81670 0.65820 0.78640 0.00700
C 	C 	0.78920 0.65370 0.05040 -0.01100
H 	H 	0.77190 0.58190 0.10530 0.01500
C 	C 	0.78870 0.59400 0.94050 -0.05200
H 	H 	0.77020 0.48480 0.92230 0.03900
C 	C 	0.64220 0.22260 0.01710 -0.13100
H 	H 	0.64980 0.19440 0.94300 0.07100
C 	C 	0.51970 0.30310 0.14420 -0.13200
H 	H 	0.44370 0.33150 0.15670 0.08000
C 	C 	0.88240 0.11020 0.89460 0.02200
H 	H 	0.90110 0.21480 0.87330 -0.02600
C 	C 	0.81360 0.81030 0.08120 -0.11700
H 	H 	0.81420 0.84760 0.15570 0.04900
C 	C 	0.52840 0.26730 0.03260 0.03900
H 	H 	0.46020 0.27300 0.96990 0.01500
C 	C 	0.61150 0.33070 0.35550 -0.10100
H 	H 	0.59740 0.22890 0.39220 0.02900
H 	H 	0.68970 0.37410 0.39840 0.01400
N 	N 	0.86950 0.98430 0.82660 -0.23700
N 	N 	0.86570 0.07120 0.99850 -0.14100
N 	N 	0.51510 0.44590 0.36170 -0.11800
N 	N 	0.33520 0.53980 0.36730 -0.28100
