data_crystal

_cell_length_a 15.78860
_cell_length_b 15.94250
_cell_length_c 16.32860
_cell_angle_alpha 90.00000
_cell_angle_beta  90.00000
_cell_angle_gamma 90.00000

_symmetry_space_group_name_	'P 1'
_symmetry_space_group_name_H-M	'P 1'

loop_
_symmetry_equiv_pos_as_xyz
  x,y,z

loop_
_atom_site_label
_atom_site_type_symbol
_atom_site_fract_x
_atom_site_fract_y
_atom_site_fract_z
_atom_site_charge
Zn	Zn	0.29782 0.18239 0.16349 1.13100
Zn	Zn	0.35625 0.84386 0.32429 1.13400
N 	N 	0.35690 0.95080 0.26370 -0.32000
N 	N 	0.33860 0.07490 0.21410 -0.32100
N 	N 	0.20170 0.14190 0.93120 -0.32300
C 	C 	0.30180 0.01400 0.24910 0.27600
N 	N 	0.59950 0.75310 0.35240 -0.32100
N 	N 	0.47580 0.81010 0.34990 -0.31600
N 	N 	0.25290 0.15080 0.05370 -0.31400
C 	C 	0.53380 0.77200 0.30570 0.29000
C 	C 	0.22180 0.19290 0.99030 0.27700
N 	N 	0.42360 0.05370 0.20660 -0.09600
N 	N 	0.43470 0.98140 0.23800 -0.10400
N 	N 	0.50360 0.81250 0.42840 -0.09800
N 	N 	0.57910 0.77690 0.43060 -0.10300
C 	C 	0.20990 0.00720 0.26110 -0.75700
H 	H 	0.19720 0.95570 0.28900 0.18700
H 	H 	0.19040 0.05370 0.29330 0.18300
H 	H 	0.18210 0.00770 0.20880 0.19100
C 	C 	0.53000 0.75880 0.21910 -0.79700
H 	H 	0.57990 0.72960 0.20140 0.19200
H 	H 	0.48080 0.72600 0.20600 0.19400
H 	H 	0.52670 0.81200 0.19170 0.20700
N 	N 	0.22220 0.06230 0.95910 -0.10100
C 	C 	0.20930 0.28330 0.98930 -0.76600
H 	H 	0.22920 0.30680 0.03990 0.18100
H 	H 	0.24040 0.30720 0.94450 0.18900
H 	H 	0.15010 0.29550 0.98280 0.19700
N 	N 	0.25020 0.06980 0.03410 -0.09700
Zn	Zn	0.20218 0.81761 0.66349 1.13200
Zn	Zn	0.14375 0.15614 0.82429 1.13500
N 	N 	0.14310 0.04920 0.76370 -0.31900
N 	N 	0.16140 0.92510 0.71410 -0.32000
N 	N 	0.29830 0.85810 0.43120 -0.32300
C 	C 	0.19820 0.98600 0.74910 0.27600
N 	N 	0.90050 0.24690 0.85240 -0.32100
N 	N 	0.02420 0.18990 0.84990 -0.31600
N 	N 	0.24710 0.84920 0.55370 -0.31400
C 	C 	0.96620 0.22800 0.80570 0.29000
C 	C 	0.27820 0.80710 0.49030 0.27800
N 	N 	0.07640 0.94630 0.70660 -0.09600
N 	N 	0.06530 0.01860 0.73800 -0.10500
N 	N 	0.99640 0.18750 0.92840 -0.09800
N 	N 	0.92090 0.22310 0.93060 -0.10300
C 	C 	0.29010 0.99280 0.76110 -0.75300
H 	H 	0.30280 0.04430 0.78900 0.18500
H 	H 	0.30960 0.94630 0.79330 0.18200
H 	H 	0.31790 0.99230 0.70880 0.19000
C 	C 	0.97000 0.24120 0.71910 -0.79600
H 	H 	0.92010 0.27040 0.70140 0.19200
H 	H 	0.01920 0.27400 0.70600 0.19400
H 	H 	0.97330 0.18800 0.69170 0.20700
N 	N 	0.27780 0.93770 0.45910 -0.10100
C 	C 	0.29070 0.71670 0.48930 -0.76600
H 	H 	0.27080 0.69320 0.53990 0.18100
H 	H 	0.25960 0.69280 0.44450 0.18900
H 	H 	0.34990 0.70450 0.48280 0.19800
N 	N 	0.24980 0.93020 0.53410 -0.09700
Zn	Zn	0.70218 0.68239 0.33651 1.13200
Zn	Zn	0.64375 0.34386 0.17571 1.13500
N 	N 	0.64310 0.45080 0.23630 -0.31900
N 	N 	0.66140 0.57490 0.28590 -0.32000
N 	N 	0.79830 0.64190 0.56880 -0.32300
C 	C 	0.69820 0.51400 0.25090 0.27600
N 	N 	0.40050 0.25310 0.14760 -0.32100
N 	N 	0.52420 0.31010 0.15010 -0.31600
N 	N 	0.74710 0.65080 0.44630 -0.31400
C 	C 	0.46620 0.27200 0.19430 0.29100
C 	C 	0.77820 0.69290 0.50970 0.27800
N 	N 	0.57640 0.55370 0.29340 -0.09600
N 	N 	0.56530 0.48140 0.26200 -0.10400
N 	N 	0.49640 0.31250 0.07160 -0.09800
N 	N 	0.42090 0.27690 0.06940 -0.10300
C 	C 	0.79010 0.50720 0.23890 -0.75600
H 	H 	0.80280 0.45570 0.21100 0.18600
H 	H 	0.80960 0.55370 0.20670 0.18300
H 	H 	0.81790 0.50770 0.29120 0.19100
C 	C 	0.47000 0.25880 0.28090 -0.79800
H 	H 	0.42010 0.22960 0.29860 0.19200
H 	H 	0.51920 0.22600 0.29400 0.19500
H 	H 	0.47330 0.31200 0.30830 0.20700
N 	N 	0.77780 0.56230 0.54090 -0.10100
C 	C 	0.79070 0.78330 0.51070 -0.76600
H 	H 	0.77080 0.80680 0.46010 0.18100
H 	H 	0.75960 0.80720 0.55550 0.18900
H 	H 	0.84990 0.79550 0.51720 0.19800
N 	N 	0.74980 0.56980 0.46590 -0.09700
Zn	Zn	0.79782 0.31761 0.83651 1.13200
Zn	Zn	0.85625 0.65614 0.67571 1.13500
N 	N 	0.85690 0.54920 0.73630 -0.31900
N 	N 	0.83860 0.42510 0.78590 -0.32000
N 	N 	0.70170 0.35810 0.06880 -0.32300
C 	C 	0.80180 0.48600 0.75090 0.27600
N 	N 	0.09950 0.74690 0.64760 -0.32100
N 	N 	0.97580 0.68990 0.65010 -0.31600
N 	N 	0.75290 0.34920 0.94630 -0.31400
C 	C 	0.03380 0.72800 0.69430 0.29000
C 	C 	0.72180 0.30710 0.00970 0.27700
N 	N 	0.92360 0.44630 0.79340 -0.09600
N 	N 	0.93470 0.51860 0.76200 -0.10400
N 	N 	0.00360 0.68750 0.57160 -0.09800
N 	N 	0.07910 0.72310 0.56940 -0.10300
C 	C 	0.70990 0.49280 0.73890 -0.75600
H 	H 	0.69720 0.54430 0.71100 0.18600
H 	H 	0.69040 0.44630 0.70670 0.18300
H 	H 	0.68210 0.49230 0.79120 0.19100
C 	C 	0.03000 0.74120 0.78090 -0.79500
H 	H 	0.07990 0.77040 0.79860 0.19200
H 	H 	0.98080 0.77400 0.79400 0.19300
H 	H 	0.02670 0.68800 0.80830 0.20600
N 	N 	0.72220 0.43770 0.04090 -0.10000
C 	C 	0.70930 0.21670 0.01070 -0.76300
H 	H 	0.72920 0.19320 0.96010 0.18000
H 	H 	0.74040 0.19280 0.05550 0.18900
H 	H 	0.65010 0.20450 0.01720 0.19700
N 	N 	0.75020 0.43020 0.96590 -0.09700
