data_crystal

_cell_length_a 17.34200
_cell_length_b 15.87730
_cell_length_c 18.85500
_cell_angle_alpha 90.00000
_cell_angle_beta  90.00000
_cell_angle_gamma 90.00000

_symmetry_space_group_name_	'P 1'
_symmetry_space_group_name_H-M	'P 1'

loop_
_symmetry_equiv_pos_as_xyz
  x,y,z

loop_
_atom_site_label
_atom_site_type_symbol
_atom_site_fract_x
_atom_site_fract_y
_atom_site_fract_z
_atom_site_charge
Zn	Zn	0.24225 0.01105 0.03270 1.21300
O 	O 	0.19938 0.89620 0.02116 -0.44600
N 	N 	0.26991 0.12310 0.83323 -0.16200
N 	N 	0.26185 0.05070 0.93049 -0.22200
O 	O 	0.60257 0.52019 0.00032 -0.33600
N 	N 	0.35167 0.96679 0.05481 -0.21800
C 	C 	0.37716 0.89340 0.03356 0.10900
H 	H 	0.35010 0.85630 0.00460 -0.00400
O 	O 	0.23063 0.13234 0.06728 -0.43100
C 	C 	0.50490 0.65820 0.03028 0.08300
H 	H 	0.48240 0.60500 0.02940 0.03400
N 	N 	0.44782 0.87953 0.05964 -0.16400
O 	O 	0.22450 0.04015 0.15257 -0.37400
N 	N 	0.31000 0.00723 0.88504 -0.10600
C 	C 	0.57193 0.81760 0.03030 -0.18100
H 	H 	0.59380 0.87110 0.02970 0.10100
C 	C 	0.23879 0.11940 0.89865 0.11500
H 	H 	0.20600 0.15950 0.91810 -0.00500
C 	C 	0.49475 0.80674 0.04633 0.17100
C 	C 	0.63066 0.59118 0.99669 0.34700
C 	C 	0.61584 0.74730 0.01490 0.08300
H 	H 	0.66800 0.75340 0.00490 0.02400
C 	C 	0.23990 0.31540 0.68446 -0.13500
C 	C 	0.58313 0.66755 0.01443 -0.12900
C 	C 	0.31410 0.05180 0.82721 0.10100
H 	H 	0.34290 0.03730 0.78740 0.01500
C 	C 	0.24490 0.23290 0.66170 0.08800
H 	H 	0.24160 0.22050 0.61360 0.02400
C 	C 	0.46098 0.72775 0.04730 -0.18600
H 	H 	0.40930 0.72170 0.05930 0.11200
C 	C 	0.26067 0.18820 0.78182 0.17500
N 	N 	0.40610 0.00190 0.09790 -0.10000
C 	C 	0.25790 0.27150 0.80530 -0.18600
H 	H 	0.26350 0.28440 0.85320 0.10700
C 	C 	0.25510 0.16780 0.71105 -0.19000
H 	H 	0.25800 0.11200 0.69630 0.11500
C 	C 	0.23034 0.11340 0.13210 0.33700
C 	C 	0.24670 0.33460 0.75530 0.09000
H 	H 	0.24380 0.39050 0.77000 0.02100
C 	C 	0.46320 0.94840 0.09910 0.10800
H 	H 	0.50880 0.95680 0.12410 0.00800
Zn	Zn	0.74225 0.48895 0.96730 1.21300
O 	O 	0.69938 0.60380 0.97884 -0.44800
N 	N 	0.76991 0.37690 0.16677 -0.16200
N 	N 	0.76185 0.44930 0.06951 -0.22300
O 	O 	0.10257 0.97981 0.99968 -0.33600
N 	N 	0.85167 0.53321 0.94519 -0.21900
C 	C 	0.87716 0.60660 0.96644 0.10800
H 	H 	0.85010 0.64370 0.99540 -0.00500
O 	O 	0.73063 0.36766 0.93272 -0.43000
C 	C 	0.00490 0.84180 0.96972 0.10200
H 	H 	0.98240 0.89500 0.97060 0.02400
N 	N 	0.94782 0.62047 0.94036 -0.16300
O 	O 	0.72450 0.45985 0.84743 -0.37300
N 	N 	0.81000 0.49277 0.11496 -0.10600
C 	C 	0.07193 0.68240 0.96970 -0.18100
H 	H 	0.09380 0.62890 0.97030 0.10100
C 	C 	0.73879 0.38060 0.10135 0.11500
H 	H 	0.70600 0.34050 0.08190 -0.00600
C 	C 	0.99475 0.69326 0.95367 0.17100
C 	C 	0.13066 0.90882 0.00331 0.35100
C 	C 	0.11584 0.75270 0.98510 0.08700
H 	H 	0.16800 0.74660 0.99510 0.02200
C 	C 	0.73990 0.18460 0.31554 -0.13600
C 	C 	0.08313 0.83245 0.98557 -0.13800
C 	C 	0.81410 0.44820 0.17279 0.10100
H 	H 	0.84290 0.46270 0.21260 0.01500
C 	C 	0.74490 0.26710 0.33830 0.08800
H 	H 	0.74160 0.27950 0.38640 0.02400
C 	C 	0.96098 0.77225 0.95270 -0.20000
H 	H 	0.90930 0.77830 0.94070 0.11600
C 	C 	0.76067 0.31180 0.21818 0.17500
N 	N 	0.90610 0.49810 0.90210 -0.09700
C 	C 	0.75790 0.22850 0.19470 -0.18600
H 	H 	0.76350 0.21560 0.14680 0.10600
C 	C 	0.75510 0.33220 0.28895 -0.19000
H 	H 	0.75800 0.38800 0.30370 0.11500
C 	C 	0.73034 0.38660 0.86790 0.33700
C 	C 	0.74670 0.16540 0.24470 0.09000
H 	H 	0.74380 0.10950 0.23000 0.02100
C 	C 	0.96320 0.55160 0.90090 0.10100
H 	H 	0.00880 0.54320 0.87590 0.01300
Zn	Zn	0.74225 0.01105 0.46730 1.21400
O 	O 	0.69938 0.89620 0.47884 -0.44800
N 	N 	0.76991 0.12310 0.66677 -0.16200
N 	N 	0.76185 0.05070 0.56951 -0.22300
O 	O 	0.10257 0.52019 0.49968 -0.33800
N 	N 	0.85167 0.96679 0.44519 -0.21900
C 	C 	0.87716 0.89340 0.46644 0.10800
H 	H 	0.85010 0.85630 0.49540 -0.00400
O 	O 	0.73063 0.13234 0.43272 -0.43000
C 	C 	0.00490 0.65820 0.46972 0.08400
H 	H 	0.98240 0.60500 0.47060 0.03300
N 	N 	0.94782 0.87953 0.44036 -0.16300
O 	O 	0.72450 0.04015 0.34743 -0.37300
N 	N 	0.81000 0.00723 0.61496 -0.10600
C 	C 	0.07193 0.81760 0.46970 -0.18200
H 	H 	0.09380 0.87110 0.47030 0.10000
C 	C 	0.73879 0.11940 0.60135 0.11500
H 	H 	0.70600 0.15950 0.58190 -0.00600
C 	C 	0.99475 0.80674 0.45367 0.17100
C 	C 	0.13066 0.59118 0.50331 0.35000
C 	C 	0.11584 0.74730 0.48510 0.08400
H 	H 	0.16800 0.75340 0.49510 0.02300
C 	C 	0.73990 0.31540 0.81554 -0.13600
C 	C 	0.08313 0.66755 0.48557 -0.13200
C 	C 	0.81410 0.05180 0.67279 0.10100
H 	H 	0.84290 0.03730 0.71260 0.01600
C 	C 	0.74490 0.23290 0.83830 0.08800
H 	H 	0.74160 0.22050 0.88640 0.02400
C 	C 	0.96098 0.72775 0.45270 -0.18700
H 	H 	0.90930 0.72170 0.44070 0.11200
C 	C 	0.76067 0.18820 0.71818 0.17500
N 	N 	0.90610 0.00190 0.40210 -0.09800
C 	C 	0.75790 0.27150 0.69470 -0.18600
H 	H 	0.76350 0.28440 0.64680 0.10600
C 	C 	0.75510 0.16780 0.78895 -0.19000
H 	H 	0.75800 0.11200 0.80370 0.11600
C 	C 	0.73034 0.11340 0.36790 0.33700
C 	C 	0.74670 0.33460 0.74470 0.09000
H 	H 	0.74380 0.39050 0.73000 0.02100
C 	C 	0.96320 0.94840 0.40090 0.10600
H 	H 	0.00880 0.95680 0.37590 0.00900
Zn	Zn	0.24225 0.48895 0.53270 1.21400
O 	O 	0.19938 0.60380 0.52116 -0.44800
N 	N 	0.26991 0.37690 0.33323 -0.16200
N 	N 	0.26185 0.44930 0.43049 -0.22400
O 	O 	0.60257 0.97981 0.50032 -0.33800
N 	N 	0.35167 0.53321 0.55481 -0.21900
C 	C 	0.37716 0.60660 0.53356 0.10900
H 	H 	0.35010 0.64370 0.50460 -0.00400
O 	O 	0.23063 0.36766 0.56728 -0.43000
C 	C 	0.50490 0.84180 0.53028 0.08500
H 	H 	0.48240 0.89500 0.52940 0.03300
N 	N 	0.44782 0.62047 0.55964 -0.16400
O 	O 	0.22450 0.45985 0.65257 -0.37300
N 	N 	0.31000 0.49277 0.38504 -0.10600
C 	C 	0.57193 0.68240 0.53030 -0.18300
H 	H 	0.59380 0.62890 0.52970 0.10000
C 	C 	0.23879 0.38060 0.39865 0.11500
H 	H 	0.20600 0.34050 0.41810 -0.00600
C 	C 	0.49475 0.69326 0.54633 0.17100
C 	C 	0.63066 0.90882 0.49669 0.35000
C 	C 	0.61584 0.75270 0.51490 0.08400
H 	H 	0.66800 0.74660 0.50490 0.02300
C 	C 	0.23990 0.18460 0.18446 -0.13600
C 	C 	0.58313 0.83245 0.51443 -0.13200
C 	C 	0.31410 0.44820 0.32721 0.10100
H 	H 	0.34290 0.46270 0.28740 0.01500
C 	C 	0.24490 0.26710 0.16170 0.08900
H 	H 	0.24160 0.27950 0.11360 0.02300
C 	C 	0.46098 0.77225 0.54730 -0.18700
H 	H 	0.40930 0.77830 0.55930 0.11300
C 	C 	0.26067 0.31180 0.28182 0.17500
N 	N 	0.40610 0.49810 0.59790 -0.09800
C 	C 	0.25790 0.22850 0.30530 -0.18600
H 	H 	0.26350 0.21560 0.35320 0.10600
C 	C 	0.25510 0.33220 0.21105 -0.19000
H 	H 	0.25800 0.38800 0.19630 0.11500
C 	C 	0.23034 0.38660 0.63210 0.33700
C 	C 	0.24670 0.16540 0.25530 0.09000
H 	H 	0.24380 0.10950 0.27000 0.02100
C 	C 	0.46320 0.55160 0.59910 0.10600
H 	H 	0.50880 0.54320 0.62410 0.00900
Zn	Zn	0.25775 0.98895 0.53270 1.21400
O 	O 	0.30062 0.10380 0.52116 -0.44800
N 	N 	0.23009 0.87690 0.33323 -0.16200
N 	N 	0.23815 0.94930 0.43049 -0.22300
O 	O 	0.89743 0.47981 0.50032 -0.33800
N 	N 	0.14833 0.03321 0.55481 -0.21900
C 	C 	0.12284 0.10660 0.53356 0.10800
H 	H 	0.14990 0.14370 0.50460 -0.00400
O 	O 	0.26937 0.86766 0.56728 -0.43000
C 	C 	0.99510 0.34180 0.53028 0.08400
H 	H 	0.01760 0.39500 0.52940 0.03300
N 	N 	0.05218 0.12047 0.55964 -0.16300
O 	O 	0.27550 0.95985 0.65257 -0.37300
N 	N 	0.19000 0.99277 0.38504 -0.10600
C 	C 	0.92807 0.18240 0.53030 -0.18200
H 	H 	0.90620 0.12890 0.52970 0.10000
C 	C 	0.26121 0.88060 0.39865 0.11500
H 	H 	0.29400 0.84050 0.41810 -0.00600
C 	C 	0.00525 0.19326 0.54633 0.17100
C 	C 	0.86934 0.40882 0.49669 0.35000
C 	C 	0.88416 0.25270 0.51490 0.08400
H 	H 	0.83200 0.24660 0.50490 0.02300
C 	C 	0.26010 0.68460 0.18446 -0.13600
C 	C 	0.91687 0.33245 0.51443 -0.13200
C 	C 	0.18590 0.94820 0.32721 0.10100
H 	H 	0.15710 0.96270 0.28740 0.01600
C 	C 	0.25510 0.76710 0.16170 0.08800
H 	H 	0.25840 0.77950 0.11360 0.02400
C 	C 	0.03902 0.27225 0.54730 -0.18700
H 	H 	0.09070 0.27830 0.55930 0.11200
C 	C 	0.23933 0.81180 0.28182 0.17500
N 	N 	0.09390 0.99810 0.59790 -0.09800
C 	C 	0.24210 0.72850 0.30530 -0.18600
H 	H 	0.23650 0.71560 0.35320 0.10600
C 	C 	0.24490 0.83220 0.21105 -0.19000
H 	H 	0.24200 0.88800 0.19630 0.11600
C 	C 	0.26966 0.88660 0.63210 0.33700
C 	C 	0.25330 0.66540 0.25530 0.09000
H 	H 	0.25620 0.60950 0.27000 0.02100
C 	C 	0.03680 0.05160 0.59910 0.10600
H 	H 	0.99120 0.04320 0.62410 0.00900
Zn	Zn	0.75775 0.51105 0.46730 1.21400
O 	O 	0.80062 0.39620 0.47884 -0.44800
N 	N 	0.73009 0.62310 0.66677 -0.16200
N 	N 	0.73815 0.55070 0.56951 -0.22400
O 	O 	0.39743 0.02019 0.49968 -0.33800
N 	N 	0.64833 0.46679 0.44519 -0.21900
C 	C 	0.62284 0.39340 0.46644 0.10900
H 	H 	0.64990 0.35630 0.49540 -0.00400
O 	O 	0.76937 0.63234 0.43272 -0.43000
C 	C 	0.49510 0.15820 0.46972 0.08500
H 	H 	0.51760 0.10500 0.47060 0.03300
N 	N 	0.55218 0.37953 0.44036 -0.16400
O 	O 	0.77550 0.54015 0.34743 -0.37300
N 	N 	0.69000 0.50723 0.61496 -0.10600
C 	C 	0.42807 0.31760 0.46970 -0.18300
H 	H 	0.40620 0.37110 0.47030 0.10000
C 	C 	0.76121 0.61940 0.60135 0.11500
H 	H 	0.79400 0.65950 0.58190 -0.00600
C 	C 	0.50525 0.30674 0.45367 0.17100
C 	C 	0.36934 0.09118 0.50331 0.35000
C 	C 	0.38416 0.24730 0.48510 0.08400
H 	H 	0.33200 0.25340 0.49510 0.02300
C 	C 	0.76010 0.81540 0.81554 -0.13600
C 	C 	0.41687 0.16755 0.48557 -0.13200
C 	C 	0.68590 0.55180 0.67279 0.10100
H 	H 	0.65710 0.53730 0.71260 0.01500
C 	C 	0.75510 0.73290 0.83830 0.08900
H 	H 	0.75840 0.72050 0.88640 0.02300
C 	C 	0.53902 0.22775 0.45270 -0.18700
H 	H 	0.59070 0.22170 0.44070 0.11300
C 	C 	0.73933 0.68820 0.71818 0.17500
N 	N 	0.59390 0.50190 0.40210 -0.09800
C 	C 	0.74210 0.77150 0.69470 -0.18600
H 	H 	0.73650 0.78440 0.64680 0.10600
C 	C 	0.74490 0.66780 0.78895 -0.19000
H 	H 	0.74200 0.61200 0.80370 0.11500
C 	C 	0.76966 0.61340 0.36790 0.33700
C 	C 	0.75330 0.83460 0.74470 0.09000
H 	H 	0.75620 0.89050 0.73000 0.02100
C 	C 	0.53680 0.44840 0.40090 0.10600
H 	H 	0.49120 0.45680 0.37590 0.00900
Zn	Zn	0.75775 0.98895 0.96730 1.21200
O 	O 	0.80062 0.10380 0.97884 -0.44700
N 	N 	0.73009 0.87690 0.16677 -0.16200
N 	N 	0.73815 0.94930 0.06951 -0.22200
O 	O 	0.39743 0.47981 0.99968 -0.33600
N 	N 	0.64833 0.03321 0.94519 -0.21800
C 	C 	0.62284 0.10660 0.96644 0.10900
H 	H 	0.64990 0.14370 0.99540 -0.00400
O 	O 	0.76937 0.86766 0.93272 -0.43100
C 	C 	0.49510 0.34180 0.96972 0.08300
H 	H 	0.51760 0.39500 0.97060 0.03400
N 	N 	0.55218 0.12047 0.94036 -0.16400
O 	O 	0.77550 0.95985 0.84743 -0.37400
N 	N 	0.69000 0.99277 0.11496 -0.10600
C 	C 	0.42807 0.18240 0.96970 -0.18100
H 	H 	0.40620 0.12890 0.97030 0.10100
C 	C 	0.76121 0.88060 0.10135 0.11500
H 	H 	0.79400 0.84050 0.08190 -0.00500
C 	C 	0.50525 0.19326 0.95367 0.17100
C 	C 	0.36934 0.40882 0.00331 0.34700
C 	C 	0.38416 0.25270 0.98510 0.08300
H 	H 	0.33200 0.24660 0.99510 0.02400
C 	C 	0.76010 0.68460 0.31554 -0.13500
C 	C 	0.41687 0.33245 0.98557 -0.12900
C 	C 	0.68590 0.94820 0.17279 0.10100
H 	H 	0.65710 0.96270 0.21260 0.01500
C 	C 	0.75510 0.76710 0.33830 0.08800
H 	H 	0.75840 0.77950 0.38640 0.02400
C 	C 	0.53902 0.27225 0.95270 -0.18600
H 	H 	0.59070 0.27830 0.94070 0.11200
C 	C 	0.73933 0.81180 0.21818 0.17500
N 	N 	0.59390 0.99810 0.90210 -0.10000
C 	C 	0.74210 0.72850 0.19470 -0.18600
H 	H 	0.73650 0.71560 0.14680 0.10700
C 	C 	0.74490 0.83220 0.28895 -0.19000
H 	H 	0.74200 0.88800 0.30370 0.11500
C 	C 	0.76966 0.88660 0.86790 0.33700
C 	C 	0.75330 0.66540 0.24470 0.09000
H 	H 	0.75620 0.60950 0.23000 0.02100
C 	C 	0.53680 0.05160 0.90090 0.10800
H 	H 	0.49120 0.04320 0.87590 0.00800
Zn	Zn	0.25775 0.51105 0.03270 1.21300
O 	O 	0.30062 0.39620 0.02116 -0.44800
N 	N 	0.23009 0.62310 0.83323 -0.16200
N 	N 	0.23815 0.55070 0.93049 -0.22300
O 	O 	0.89743 0.02019 0.00032 -0.33600
N 	N 	0.14833 0.46679 0.05481 -0.21900
C 	C 	0.12284 0.39340 0.03356 0.10800
H 	H 	0.14990 0.35630 0.00460 -0.00500
O 	O 	0.26937 0.63234 0.06728 -0.43000
C 	C 	0.99510 0.15820 0.03028 0.10200
H 	H 	0.01760 0.10500 0.02940 0.02400
N 	N 	0.05218 0.37953 0.05964 -0.16300
O 	O 	0.27550 0.54015 0.15257 -0.37300
N 	N 	0.19000 0.50723 0.88504 -0.10600
C 	C 	0.92807 0.31760 0.03030 -0.18100
H 	H 	0.90620 0.37110 0.02970 0.10100
C 	C 	0.26121 0.61940 0.89865 0.11500
H 	H 	0.29400 0.65950 0.91810 -0.00600
C 	C 	0.00525 0.30674 0.04633 0.17100
C 	C 	0.86934 0.09118 0.99669 0.35100
C 	C 	0.88416 0.24730 0.01490 0.08700
H 	H 	0.83200 0.25340 0.00490 0.02200
C 	C 	0.26010 0.81540 0.68446 -0.13600
C 	C 	0.91687 0.16755 0.01443 -0.13800
C 	C 	0.18590 0.55180 0.82721 0.10100
H 	H 	0.15710 0.53730 0.78740 0.01500
C 	C 	0.25510 0.73290 0.66170 0.08800
H 	H 	0.25840 0.72050 0.61360 0.02400
C 	C 	0.03902 0.22775 0.04730 -0.20000
H 	H 	0.09070 0.22170 0.05930 0.11600
C 	C 	0.23933 0.68820 0.78182 0.17500
N 	N 	0.09390 0.50190 0.09790 -0.09700
C 	C 	0.24210 0.77150 0.80530 -0.18600
H 	H 	0.23650 0.78440 0.85320 0.10600
C 	C 	0.24490 0.66780 0.71105 -0.19000
H 	H 	0.24200 0.61200 0.69630 0.11500
C 	C 	0.26966 0.61340 0.13210 0.33700
C 	C 	0.25330 0.83460 0.75530 0.09000
H 	H 	0.25620 0.89050 0.77000 0.02100
C 	C 	0.03680 0.44840 0.09910 0.10100
H 	H 	0.99120 0.45680 0.12410 0.01300
