data_crystal

_cell_length_a 24.90040
_cell_length_b 7.96960
_cell_length_c 27.61300
_cell_angle_alpha 90.00000
_cell_angle_beta  90.00000
_cell_angle_gamma 90.00000

_symmetry_space_group_name_	'P 1'
_symmetry_space_group_name_H-M	'P 1'

loop_
_symmetry_equiv_pos_as_xyz
  x,y,z

loop_
_atom_site_label
_atom_site_type_symbol
_atom_site_fract_x
_atom_site_fract_y
_atom_site_fract_z
_atom_site_charge
O 	O 	0.47161 0.32350 0.54980 -0.43800
O 	O 	0.54656 0.26340 0.59029 -0.31600
C 	C 	0.46283 0.19000 0.62550 -0.14700
C 	C 	0.40081 0.05720 0.70105 0.09700
N 	N 	0.39492 0.10460 0.83680 -0.22000
H 	H 	0.40990 0.15230 0.86130 0.15400
C 	C 	0.36617 0.98850 0.74256 -0.02600
H 	H 	0.33910 0.91370 0.72850 0.05800
C 	C 	0.49674 0.26380 0.58568 0.35600
C 	C 	0.39900 0.88720 0.77881 -0.04800
C 	C 	0.41439 0.72220 0.76413 0.08900
C 	C 	0.44198 0.16940 0.71066 -0.15100
H 	H 	0.44840 0.20310 0.74240 0.09300
C 	C 	0.42081 0.08160 0.61554 0.09600
H 	H 	0.41270 0.05430 0.58360 -0.00300
C 	C 	0.47365 0.23220 0.67352 0.07300
H 	H 	0.50230 0.30280 0.68070 0.01700
N 	N 	0.29711 0.61270 0.89259 -0.12700
C 	C 	0.33239 0.33490 0.83908 0.06100
C 	C 	0.32814 0.32860 0.88951 -0.12400
H 	H 	0.33670 0.23100 0.90630 0.07900
N 	N 	0.25078 0.23830 0.72885 -0.13100
C 	C 	0.31728 0.48250 0.81620 -0.12800
H 	H 	0.31870 0.49160 0.78260 0.09000
C 	C 	0.39060 0.01310 0.65337 -0.20400
H 	H 	0.36330 0.93700 0.64650 0.12000
C 	C 	0.30001 0.61560 0.84422 0.07500
H 	H 	0.28970 0.71360 0.82840 0.02300
C 	C 	0.31113 0.46960 0.91393 0.07600
H 	H 	0.30930 0.46440 0.94750 0.01300
N 	N 	0.42648 0.59310 0.74996 -0.12600
C 	C 	0.28938 0.19290 0.74727 0.08600
C 	C 	0.41205 0.94830 0.82309 0.07800
C 	C 	0.35443 0.18800 0.81266 0.06000
C 	C 	0.33691 0.12780 0.76914 -0.06300
C 	C 	0.43894 0.85190 0.86249 0.06800
C 	C 	0.48425 0.75520 0.85662 -0.13300
H 	H 	0.50140 0.74960 0.82670 0.09200
C 	C 	0.41529 0.85640 0.90867 -0.12400
H 	H 	0.38520 0.92260 0.91440 0.09100
C 	C 	0.50403 0.66630 0.89599 0.08700
H 	H 	0.53520 0.60360 0.89190 -0.00100
C 	C 	0.43713 0.76220 0.94522 0.07800
H 	H 	0.42080 0.76550 0.97550 0.00600
N 	N 	0.48043 0.66630 0.93977 -0.23100
O 	O 	0.52839 0.32350 0.95020 -0.41800
O 	O 	0.45344 0.26340 0.90971 -0.30900
C 	C 	0.53717 0.19000 0.87450 -0.14000
C 	C 	0.59919 0.05720 0.79895 0.09600
N 	N 	0.60508 0.10460 0.66320 -0.22000
H 	H 	0.59010 0.15230 0.63870 0.15400
C 	C 	0.63383 0.98850 0.75744 -0.02600
H 	H 	0.66090 0.91370 0.77150 0.05800
C 	C 	0.50326 0.26380 0.91432 0.35200
C 	C 	0.60100 0.88720 0.72119 -0.04800
C 	C 	0.58561 0.72220 0.73587 0.08900
C 	C 	0.55802 0.16940 0.78934 -0.14800
H 	H 	0.55160 0.20310 0.75760 0.09200
C 	C 	0.57919 0.08160 0.88446 0.09200
H 	H 	0.58730 0.05430 0.91640 0.00600
C 	C 	0.52635 0.23220 0.82648 0.06900
H 	H 	0.49770 0.30280 0.81930 0.01800
N 	N 	0.70289 0.61270 0.60741 -0.12900
C 	C 	0.66761 0.33490 0.66092 0.06200
C 	C 	0.67186 0.32860 0.61049 -0.12600
H 	H 	0.66330 0.23100 0.59370 0.07700
N 	N 	0.74922 0.23830 0.77115 -0.13000
C 	C 	0.68272 0.48250 0.68380 -0.12900
H 	H 	0.68130 0.49160 0.71740 0.09000
C 	C 	0.60940 0.01310 0.84663 -0.19800
H 	H 	0.63670 0.93700 0.85350 0.12100
C 	C 	0.69999 0.61560 0.65578 0.07500
H 	H 	0.71030 0.71360 0.67160 0.02300
C 	C 	0.68887 0.46960 0.58607 0.07600
H 	H 	0.69070 0.46440 0.55250 0.00700
N 	N 	0.57352 0.59310 0.75004 -0.12600
C 	C 	0.71062 0.19290 0.75273 0.08700
C 	C 	0.58795 0.94830 0.67691 0.07700
C 	C 	0.64557 0.18800 0.68734 0.05900
C 	C 	0.66309 0.12780 0.73086 -0.06200
C 	C 	0.56106 0.85190 0.63751 0.06900
C 	C 	0.51575 0.75520 0.64338 -0.13500
H 	H 	0.49860 0.74960 0.67330 0.09200
C 	C 	0.58471 0.85640 0.59133 -0.12700
H 	H 	0.61480 0.92260 0.58560 0.08900
C 	C 	0.49597 0.66630 0.60401 0.08700
H 	H 	0.46480 0.60360 0.60810 -0.00500
C 	C 	0.56287 0.76220 0.55478 0.07800
H 	H 	0.57920 0.76550 0.52450 -0.00600
N 	N 	0.51957 0.66630 0.56023 -0.23900
O 	O 	0.52839 0.67650 0.45020 -0.43200
O 	O 	0.45344 0.73660 0.40971 -0.30400
C 	C 	0.53717 0.81000 0.37450 -0.12000
C 	C 	0.59919 0.94280 0.29895 0.12300
N 	N 	0.60508 0.89540 0.16320 -0.18600
H 	H 	0.59010 0.84770 0.13870 0.15400
C 	C 	0.63383 0.01150 0.25744 -0.12300
H 	H 	0.66090 0.08630 0.27150 0.07400
C 	C 	0.50326 0.73620 0.41432 0.35100
C 	C 	0.60100 0.11280 0.22119 -0.01900
C 	C 	0.58561 0.27780 0.23587 0.07200
C 	C 	0.55802 0.83060 0.28934 -0.15100
H 	H 	0.55160 0.79690 0.25760 0.10000
C 	C 	0.57919 0.91840 0.38446 0.04900
H 	H 	0.58730 0.94570 0.41640 0.02600
C 	C 	0.52635 0.76780 0.32648 0.06600
H 	H 	0.49770 0.69720 0.31930 0.02000
N 	N 	0.70289 0.38730 0.10741 -0.13600
C 	C 	0.66761 0.66510 0.16092 0.07700
C 	C 	0.67186 0.67140 0.11049 -0.13700
H 	H 	0.66330 0.76900 0.09370 0.08800
N 	N 	0.74922 0.76170 0.27115 -0.12000
C 	C 	0.68272 0.51750 0.18380 -0.13900
H 	H 	0.68130 0.50840 0.21740 0.09300
C 	C 	0.60940 0.98690 0.34663 -0.10500
H 	H 	0.63670 0.06300 0.35350 0.05300
C 	C 	0.69999 0.38440 0.15578 0.08200
H 	H 	0.71030 0.28640 0.17160 0.01600
C 	C 	0.68887 0.53040 0.08607 0.08400
H 	H 	0.69070 0.53560 0.05250 0.00100
N 	N 	0.57352 0.40690 0.25004 -0.12300
C 	C 	0.71062 0.80710 0.25273 0.07800
C 	C 	0.58795 0.05170 0.17691 0.02000
C 	C 	0.64557 0.81200 0.18734 0.04000
C 	C 	0.66309 0.87220 0.23086 0.00300
C 	C 	0.56106 0.14810 0.13751 0.07800
C 	C 	0.51575 0.24480 0.14338 -0.15000
H 	H 	0.49860 0.25040 0.17330 0.09100
C 	C 	0.58471 0.14360 0.09133 -0.14200
H 	H 	0.61480 0.07740 0.08560 0.07900
C 	C 	0.49597 0.33370 0.10401 0.08600
H 	H 	0.46480 0.39640 0.10810 -0.01100
C 	C 	0.56287 0.23780 0.05478 0.07700
H 	H 	0.57920 0.23450 0.02450 -0.02000
N 	N 	0.51957 0.33370 0.06023 -0.24700
O 	O 	0.47161 0.67650 0.04980 -0.44400
O 	O 	0.54656 0.73660 0.09029 -0.30800
C 	C 	0.46283 0.81000 0.12550 -0.12500
C 	C 	0.40081 0.94280 0.20105 0.12400
N 	N 	0.39492 0.89540 0.33680 -0.18600
H 	H 	0.40990 0.84770 0.36130 0.15400
C 	C 	0.36617 0.01150 0.24256 -0.12400
H 	H 	0.33910 0.08630 0.22850 0.07300
C 	C 	0.49674 0.73620 0.08568 0.35300
C 	C 	0.39900 0.11280 0.27881 -0.01800
C 	C 	0.41439 0.27780 0.26413 0.07200
C 	C 	0.44198 0.83060 0.21066 -0.15300
H 	H 	0.44840 0.79690 0.24240 0.10000
C 	C 	0.42081 0.91840 0.11554 0.05100
H 	H 	0.41270 0.94570 0.08360 0.01900
C 	C 	0.47365 0.76780 0.17352 0.06900
H 	H 	0.50230 0.69720 0.18070 0.01900
N 	N 	0.29711 0.38730 0.39259 -0.13400
C 	C 	0.33239 0.66510 0.33908 0.07700
C 	C 	0.32814 0.67140 0.38951 -0.13600
H 	H 	0.33670 0.76900 0.40630 0.09100
N 	N 	0.25078 0.76170 0.22885 -0.12100
C 	C 	0.31728 0.51750 0.31620 -0.13800
H 	H 	0.31870 0.50840 0.28260 0.09300
C 	C 	0.39060 0.98690 0.15337 -0.10700
H 	H 	0.36330 0.06300 0.14650 0.05100
C 	C 	0.30001 0.38440 0.34422 0.08200
H 	H 	0.28970 0.28640 0.32840 0.01600
C 	C 	0.31113 0.53040 0.41393 0.08300
H 	H 	0.30930 0.53560 0.44750 0.00600
N 	N 	0.42648 0.40690 0.24996 -0.12300
C 	C 	0.28938 0.80710 0.24727 0.07800
C 	C 	0.41205 0.05170 0.32309 0.02000
C 	C 	0.35443 0.81200 0.31266 0.04000
C 	C 	0.33691 0.87220 0.26914 0.00400
C 	C 	0.43894 0.14810 0.36249 0.07800
C 	C 	0.48425 0.24480 0.35662 -0.14900
H 	H 	0.50140 0.25040 0.32670 0.09100
C 	C 	0.41529 0.14360 0.40867 -0.14000
H 	H 	0.38520 0.07740 0.41440 0.08000
C 	C 	0.50403 0.33370 0.39599 0.08700
H 	H 	0.53520 0.39640 0.39190 -0.00800
C 	C 	0.43713 0.23780 0.44522 0.07700
H 	H 	0.42080 0.23450 0.47550 -0.01000
N 	N 	0.48043 0.33370 0.43977 -0.24300
Co	Co	0.50000 0.50000 0.50000 1.11300
Co	Co	0.50000 0.50000 -0.00000 1.09800
O 	O 	0.02839 0.17650 0.04980 -0.44800
O 	O 	0.95344 0.23660 0.09029 -0.29500
C 	C 	0.03717 0.31000 0.12550 -0.10800
C 	C 	0.09919 0.44280 0.20105 0.08800
N 	N 	0.10508 0.39540 0.33680 -0.19900
H 	H 	0.09010 0.34770 0.36130 0.15100
C 	C 	0.13383 0.51150 0.24256 -0.06800
H 	H 	0.16090 0.58630 0.22850 0.06500
C 	C 	0.00326 0.23620 0.08568 0.31700
C 	C 	0.10100 0.61280 0.27881 -0.02700
C 	C 	0.08561 0.77780 0.26413 0.08000
C 	C 	0.05802 0.33060 0.21066 -0.11700
H 	H 	0.05160 0.29690 0.24240 0.07800
C 	C 	0.07919 0.41840 0.11554 0.04700
H 	H 	0.08730 0.44570 0.08360 0.01200
C 	C 	0.02635 0.26780 0.17352 0.00200
H 	H 	0.99770 0.19720 0.18070 0.04900
N 	N 	0.20289 0.88730 0.39259 -0.12300
C 	C 	0.16761 0.16510 0.33908 0.08200
C 	C 	0.17186 0.17140 0.38951 -0.13200
H 	H 	0.16330 0.26900 0.40630 0.08300
N 	N 	0.24922 0.26170 0.22885 -0.13000
C 	C 	0.18272 0.01750 0.31620 -0.18700
H 	H 	0.18130 0.00840 0.28260 0.10000
C 	C 	0.10940 0.48690 0.15337 -0.13900
H 	H 	0.13670 0.56300 0.14650 0.07900
C 	C 	0.19999 0.88440 0.34422 0.13000
H 	H 	0.21030 0.78640 0.32840 0.00500
C 	C 	0.18887 0.03040 0.41393 0.05300
H 	H 	0.19070 0.03560 0.44750 0.00800
N 	N 	0.07352 0.90690 0.24996 -0.11600
C 	C 	0.21062 0.30710 0.24727 0.07800
C 	C 	0.08795 0.55170 0.32309 0.03200
C 	C 	0.14557 0.31200 0.31266 0.04300
C 	C 	0.16309 0.37220 0.26914 -0.03000
C 	C 	0.06106 0.64810 0.36249 0.11900
C 	C 	0.01575 0.74480 0.35662 -0.24500
H 	H 	0.99860 0.75040 0.32670 0.14300
C 	C 	0.08471 0.64360 0.40867 -0.16600
H 	H 	0.11480 0.57740 0.41440 0.09700
C 	C 	0.99597 0.83370 0.39599 0.17600
H 	H 	0.96480 0.89640 0.39190 -0.02600
C 	C 	0.06287 0.73780 0.44522 0.09900
H 	H 	0.07920 0.73450 0.47550 -0.01300
N 	N 	0.01957 0.83370 0.43977 -0.26100
O 	O 	0.97161 0.17650 0.45020 -0.44300
O 	O 	0.04656 0.23660 0.40971 -0.33600
C 	C 	0.96283 0.31000 0.37450 -0.17300
C 	C 	0.90081 0.44280 0.29895 0.13400
N 	N 	0.89492 0.39540 0.16320 -0.20600
H 	H 	0.90990 0.34770 0.13870 0.15400
C 	C 	0.86617 0.51150 0.25744 -0.08100
H 	H 	0.83910 0.58630 0.27150 0.06900
C 	C 	0.99674 0.23620 0.41432 0.39000
C 	C 	0.89900 0.61280 0.22119 -0.03600
C 	C 	0.91439 0.77780 0.23587 0.08900
C 	C 	0.94198 0.33060 0.28934 -0.19500
H 	H 	0.94840 0.29690 0.25760 0.11200
C 	C 	0.92081 0.41840 0.38446 0.10500
H 	H 	0.91270 0.44570 0.41640 0.00200
C 	C 	0.97365 0.26780 0.32648 0.14000
H 	H 	0.00230 0.19720 0.31930 -0.02500
N 	N 	0.79711 0.88730 0.10741 -0.12500
C 	C 	0.83239 0.16510 0.16092 0.08300
C 	C 	0.82814 0.17140 0.11049 -0.13400
H 	H 	0.83670 0.26900 0.09370 0.08200
N 	N 	0.75078 0.26170 0.27115 -0.12900
C 	C 	0.81728 0.01750 0.18380 -0.18600
H 	H 	0.81870 0.00840 0.21740 0.10000
C 	C 	0.89060 0.48690 0.34663 -0.18300
H 	H 	0.86330 0.56300 0.35350 0.09800
C 	C 	0.80001 0.88440 0.15578 0.12900
H 	H 	0.78970 0.78640 0.17160 0.00500
C 	C 	0.81113 0.03040 0.08607 0.05400
H 	H 	0.80930 0.03560 0.05250 0.00300
N 	N 	0.92648 0.90690 0.25004 -0.11400
C 	C 	0.78938 0.30710 0.25273 0.07800
C 	C 	0.91205 0.55170 0.17691 0.06900
C 	C 	0.85443 0.31200 0.18734 0.04200
C 	C 	0.83691 0.37220 0.23086 -0.02700
C 	C 	0.93894 0.64810 0.13751 0.02900
C 	C 	0.98425 0.74480 0.14338 -0.03200
H 	H 	0.00140 0.75040 0.17330 0.04300
C 	C 	0.91529 0.64360 0.09133 -0.09900
H 	H 	0.88520 0.57740 0.08560 0.07200
C 	C 	0.00403 0.83370 0.10401 0.00100
H 	H 	0.03520 0.89640 0.10810 0.02700
C 	C 	0.93713 0.73780 0.05478 0.06000
H 	H 	0.92080 0.73450 0.02450 -0.00600
N 	N 	0.98043 0.83370 0.06023 -0.20900
O 	O 	0.97161 0.82350 0.95020 -0.40800
O 	O 	0.04656 0.76340 0.90971 -0.31700
C 	C 	0.96283 0.69000 0.87450 -0.15300
C 	C 	0.90081 0.55720 0.79895 0.12600
N 	N 	0.89492 0.60460 0.66320 -0.20800
H 	H 	0.90990 0.65230 0.63870 0.15800
C 	C 	0.86617 0.48850 0.75744 -0.07400
H 	H 	0.83910 0.41370 0.77150 0.06500
C 	C 	0.99674 0.76380 0.91432 0.38300
C 	C 	0.89900 0.38720 0.72119 -0.04200
C 	C 	0.91439 0.22220 0.73587 0.08300
C 	C 	0.94198 0.66940 0.78934 -0.17800
H 	H 	0.94840 0.70310 0.75760 0.11200
C 	C 	0.92081 0.58160 0.88446 0.09400
H 	H 	0.91270 0.55430 0.91640 0.01300
C 	C 	0.97365 0.73220 0.82648 0.12700
H 	H 	0.00230 0.80280 0.81930 -0.00800
N 	N 	0.79711 0.11270 0.60741 -0.13900
C 	C 	0.83239 0.83490 0.66092 0.05700
C 	C 	0.82814 0.82860 0.61049 -0.12900
H 	H 	0.83670 0.73100 0.59370 0.08400
N 	N 	0.75078 0.73830 0.77115 -0.12200
C 	C 	0.81728 0.98250 0.68380 -0.08500
H 	H 	0.81870 0.99160 0.71740 0.08400
C 	C 	0.89060 0.51310 0.84663 -0.16900
H 	H 	0.86330 0.43700 0.85350 0.09500
C 	C 	0.80001 0.11560 0.65578 0.03300
H 	H 	0.78970 0.21360 0.67160 0.03200
C 	C 	0.81113 0.96960 0.58607 0.10400
H 	H 	0.80930 0.96440 0.55250 0.00600
N 	N 	0.92648 0.09310 0.75004 -0.13100
C 	C 	0.78938 0.69290 0.75273 0.08600
C 	C 	0.91205 0.44830 0.67691 0.07000
C 	C 	0.85443 0.68800 0.68734 0.05700
C 	C 	0.83691 0.62780 0.73086 -0.03300
C 	C 	0.93894 0.35190 0.63751 0.02500
C 	C 	0.98425 0.25520 0.64338 -0.03500
H 	H 	0.00140 0.24960 0.67330 0.03900
C 	C 	0.91529 0.35640 0.59133 -0.09900
H 	H 	0.88520 0.42260 0.58560 0.07300
C 	C 	0.00403 0.16630 0.60401 -0.00500
H 	H 	0.03520 0.10360 0.60810 0.01500
C 	C 	0.93713 0.26220 0.55478 0.05600
H 	H 	0.92080 0.26550 0.52450 -0.00100
N 	N 	0.98043 0.16630 0.56023 -0.21500
O 	O 	0.02839 0.82350 0.54980 -0.41800
O 	O 	0.95344 0.76340 0.59029 -0.28300
C 	C 	0.03717 0.69000 0.62550 -0.09600
C 	C 	0.09919 0.55720 0.70105 0.08500
N 	N 	0.10508 0.60460 0.83680 -0.20200
H 	H 	0.09010 0.65230 0.86130 0.15400
C 	C 	0.13383 0.48850 0.74256 -0.06300
H 	H 	0.16090 0.41370 0.72850 0.06100
C 	C 	0.00326 0.76380 0.58568 0.31900
C 	C 	0.10100 0.38720 0.77881 -0.03200
C 	C 	0.08561 0.22220 0.76413 0.07300
C 	C 	0.05802 0.66940 0.71066 -0.10900
H 	H 	0.05160 0.70310 0.74240 0.08100
C 	C 	0.07919 0.58160 0.61554 0.04300
H 	H 	0.08730 0.55430 0.58360 0.02100
C 	C 	0.02635 0.73220 0.67352 0.00400
H 	H 	0.99770 0.80280 0.68070 0.05900
N 	N 	0.20289 0.11270 0.89259 -0.13700
C 	C 	0.16761 0.83490 0.83908 0.05600
C 	C 	0.17186 0.82860 0.88951 -0.12700
H 	H 	0.16330 0.73100 0.90630 0.08600
N 	N 	0.24922 0.73830 0.72885 -0.12300
C 	C 	0.18272 0.98250 0.81620 -0.08300
H 	H 	0.18130 0.99160 0.78260 0.08300
C 	C 	0.10940 0.51310 0.65337 -0.13000
H 	H 	0.13670 0.43700 0.64650 0.07700
C 	C 	0.19999 0.11560 0.84422 0.03100
H 	H 	0.21030 0.21360 0.82840 0.03300
C 	C 	0.18887 0.96960 0.91393 0.10400
H 	H 	0.19070 0.96440 0.94750 0.01200
N 	N 	0.07352 0.09310 0.74996 -0.13400
C 	C 	0.21062 0.69290 0.74727 0.08600
C 	C 	0.08795 0.44830 0.82309 0.03300
C 	C 	0.14557 0.68800 0.81266 0.05700
C 	C 	0.16309 0.62780 0.76914 -0.03500
C 	C 	0.06106 0.35190 0.86249 0.11600
C 	C 	0.01575 0.25520 0.85662 -0.24800
H 	H 	0.99860 0.24960 0.82670 0.13900
C 	C 	0.08471 0.35640 0.90867 -0.16500
H 	H 	0.11480 0.42260 0.91440 0.09800
C 	C 	0.99597 0.16630 0.89599 0.17100
H 	H 	0.96480 0.10360 0.89190 -0.03600
C 	C 	0.06287 0.26220 0.94522 0.09500
H 	H 	0.07920 0.26550 0.97550 -0.00600
N 	N 	0.01957 0.16630 0.93977 -0.26300
Co	Co	-0.00000 0.00000 -0.00000 1.07900
Co	Co	0.00000 0.00000 0.50000 1.09400
