data_crystal

_cell_length_a 19.58620
_cell_length_b 18.17690
_cell_length_c 26.75930
_cell_angle_alpha 106.74400
_cell_angle_beta  82.40280
_cell_angle_gamma 117.12300

_symmetry_space_group_name_	'P 1'
_symmetry_space_group_name_H-M	'P 1'

loop_
_symmetry_equiv_pos_as_xyz
  x,y,z

loop_
_atom_site_label
_atom_site_type_symbol
_atom_site_fract_x
_atom_site_fract_y
_atom_site_fract_z
_atom_site_charge
C 	C 	0.74744 0.01269 0.69603 -0.02500
H 	H 	0.74617 0.06878 0.72337 0.05000
C 	C 	0.81960 0.02803 0.66863 -0.06600
H 	H 	0.86492 0.09264 0.67770 0.04600
C 	C 	0.23585 0.25521 0.33719 0.00300
C 	C 	0.24152 0.18193 0.34161 -0.03600
H 	H 	0.27270 0.15516 0.31178 0.03700
C 	C 	0.20847 0.13964 0.38339 -0.04300
H 	H 	0.21711 0.08444 0.38199 0.04100
C 	C 	0.16566 0.16529 0.42594 0.01600
C 	C 	0.15983 0.23832 0.42174 -0.04300
H 	H 	0.12844 0.26439 0.45192 0.04300
C 	C 	0.19285 0.28067 0.37999 -0.03500
H 	H 	0.18371 0.33568 0.38195 0.03900
C 	C 	0.67984 0.93274 0.69044 -0.01800
C 	C 	0.83541 0.96519 0.63106 0.03500
C 	C 	0.76846 0.88423 0.62449 -0.04700
H 	H 	0.77247 0.82988 0.59664 0.04700
C 	C 	0.69502 0.86852 0.65236 -0.01300
H 	H 	0.64967 0.80393 0.64359 0.04200
C 	C 	0.81317 0.76387 0.32424 0.00500
C 	C 	0.84532 0.85260 0.34740 -0.03300
H 	H 	0.83155 0.89284 0.33190 0.04000
C 	C 	0.89711 0.89337 0.39020 -0.04500
H 	H 	0.91940 0.96193 0.40549 0.04900
C 	C 	0.92077 0.84884 0.41336 0.02800
C 	C 	0.88906 0.76056 0.39054 -0.04600
H 	H 	0.90445 0.72170 0.40633 0.04500
C 	C 	0.83739 0.71963 0.34768 -0.03300
H 	H 	0.81533 0.65106 0.33346 0.03800
C 	C 	0.06110 0.00928 0.54303 -0.01800
C 	C 	0.91730 0.98561 0.60160 0.00300
C 	C 	0.98511 0.00661 0.57920 -0.02500
C 	C 	0.02228 0.92889 0.49758 0.02400
C 	C 	0.97641 0.89278 0.45954 -0.02800
C 	C 	0.12931 0.11867 0.47198 -0.02200
C 	C 	0.09977 0.08072 0.50947 -0.00400
O 	O 	0.57195 0.96522 0.85595 -0.33000
O 	O 	0.46302 0.83661 0.82969 -0.34800
C 	C 	0.52223 0.88149 0.86248 0.22500
O 	O 	0.49155 0.06122 0.87117 -0.36400
O 	O 	0.38682 0.93383 0.83101 -0.33700
C 	C 	0.41796 0.01598 0.86639 0.23100
Cu	Cu	0.55129 0.02711 0.81366 0.88300
Cu	Cu	0.44582 0.88408 0.77809 0.89000
O 	O 	0.50481 0.05900 0.76626 -0.34300
O 	O 	0.41543 0.92133 0.72675 -0.33400
O 	O 	0.62260 0.00697 0.75956 -0.37800
O 	O 	0.52828 0.86673 0.73150 -0.34500
C 	C 	0.43913 0.00428 0.73299 0.20000
C 	C 	0.60440 0.93050 0.72731 0.25100
C 	C 	0.27315 0.30304 0.29001 0.00400
C 	C 	0.34332 0.39305 0.20130 0.01800
C 	C 	0.34926 0.32009 0.20550 -0.04200
H 	H 	0.38077 0.29414 0.17535 0.04200
C 	C 	0.31625 0.27769 0.24724 -0.03600
H 	H 	0.32546 0.22273 0.24529 0.03700
C 	C 	0.74092 0.63688 0.24418 -0.03500
H 	H 	0.77056 0.60302 0.25084 0.03800
C 	C 	0.68917 0.59615 0.20137 -0.04400
H 	H 	0.68127 0.53339 0.17809 0.04400
C 	C 	0.38340 0.07495 0.90234 -0.04500
C 	C 	0.38299 0.14049 0.88424 -0.00200
H 	H 	0.37799 0.12922 0.84265 0.03700
C 	C 	0.39806 0.22458 0.91629 -0.05500
H 	H 	0.39889 0.27064 0.89785 0.04900
C 	C 	0.41689 0.25227 0.96962 0.03200
C 	C 	0.41574 0.18700 0.98838 -0.05500
H 	H 	0.43089 0.20222 0.02874 0.04600
C 	C 	0.40081 0.10323 0.95612 0.00100
H 	H 	0.41004 0.06132 0.97316 0.03700
C 	C 	0.26738 0.37627 0.28559 -0.03500
H 	H 	0.23611 0.40295 0.31539 0.03900
C 	C 	0.30042 0.41859 0.24383 -0.04200
H 	H 	0.29171 0.47375 0.24524 0.04400
C 	C 	0.75589 0.71867 0.27688 0.00600
C 	C 	0.64817 0.63370 0.18784 0.02300
C 	C 	0.66266 0.71501 0.22021 -0.04300
H 	H 	0.63295 0.74808 0.21236 0.04600
C 	C 	0.71446 0.75597 0.26299 -0.03400
H 	H 	0.72070 0.81814 0.28600 0.04000
C 	C 	0.47023 0.50986 0.07238 -0.00900
C 	C 	0.59246 0.58978 0.14171 -0.02000
C 	C 	0.54659 0.55374 0.10367 0.00100
C 	C 	0.43992 0.34562 0.00358 -0.02300
C 	C 	0.46025 0.42241 0.03144 0.00200
C 	C 	0.37967 0.43975 0.15530 -0.01800
C 	C 	0.40923 0.47783 0.11787 -0.00000
