data_crystal

_cell_length_a 7.20550
_cell_length_b 10.52920
_cell_length_c 13.37050
_cell_angle_alpha 79.61500
_cell_angle_beta  75.18000
_cell_angle_gamma 75.85300

_symmetry_space_group_name_	'P 1'
_symmetry_space_group_name_H-M	'P 1'

loop_
_symmetry_equiv_pos_as_xyz
  x,y,z

loop_
_atom_site_label
_atom_site_type_symbol
_atom_site_fract_x
_atom_site_fract_y
_atom_site_fract_z
_atom_site_charge
Zn	Zn	0.65812 0.51568 0.61024 1.18400
O 	O 	0.38976 0.51379 0.68238 -0.48400
O 	O 	0.11818 0.44037 0.75776 -0.28200
O 	O 	0.44760 0.39382 0.89739 -0.48300
O 	O 	0.34640 0.22199 0.00473 -0.39400
O 	O 	0.32726 0.38573 0.52671 -0.48800
O 	O 	0.51990 0.20965 0.45581 -0.31900
O 	O 	0.86220 0.19180 0.88741 -0.24500
N 	N 	0.83850 0.33927 0.58856 -0.24900
N 	N 	0.04340 0.05934 0.76484 -0.24700
H 	H 	0.12330 0.98470 0.75630 0.12900
C 	C 	0.40390 0.27683 0.72537 -0.05700
C 	C 	0.45610 0.20507 0.63964 -0.05500
C 	C 	0.53660 0.07004 0.65191 -0.01900
H 	H 	0.57140 0.02330 0.59480 0.05400
C 	C 	0.56530 0.00486 0.74809 -0.04600
H 	H 	0.61800 0.91470 0.75580 0.03900
C 	C 	0.51500 0.07501 0.83291 -0.00800
H 	H 	0.53380 0.03130 0.89760 0.07000
C 	C 	0.43690 0.20987 0.82229 -0.06800
C 	C 	0.29800 0.42115 0.71966 0.35600
C 	C 	0.40550 0.28128 0.91536 0.43100
C 	C 	0.43400 0.26937 0.53192 0.31200
C 	C 	0.88030 0.26459 0.67596 -0.04500
H 	H 	0.82620 0.29740 0.73950 0.03900
C 	C 	0.00170 0.14008 0.67426 0.12500
C 	C 	0.08570 0.09455 0.57779 -0.11300
H 	H 	0.17010 0.01240 0.57350 0.08300
C 	C 	0.04220 0.17284 0.48850 -0.03400
H 	H 	0.09730 0.14360 0.42360 0.03400
C 	C 	0.91650 0.29459 0.49614 0.01100
H 	H 	0.88570 0.34630 0.43610 0.00700
C 	C 	0.97080 0.08673 0.86449 0.26600
C 	C 	0.02830 0.97688 0.94669 -0.13600
H 	H 	0.16900 0.94350 0.92880 0.09200
H 	H 	0.96430 0.90520 0.94860 0.10500
Zn	Zn	0.34188 0.48432 0.38976 1.18300
O 	O 	0.61024 0.48621 0.31762 -0.49100
O 	O 	0.88182 0.55963 0.24224 -0.29500
O 	O 	0.55240 0.60618 0.10261 -0.48100
O 	O 	0.65360 0.77801 0.99527 -0.21800
O 	O 	0.67274 0.61427 0.47329 -0.48500
O 	O 	0.48010 0.79035 0.54419 -0.31700
O 	O 	0.13780 0.80820 0.11259 -0.29800
N 	N 	0.16150 0.66073 0.41144 -0.24200
N 	N 	0.95660 0.94066 0.23516 -0.25300
H 	H 	0.87670 0.01530 0.24370 0.13400
C 	C 	0.59610 0.72317 0.27463 -0.07700
C 	C 	0.54390 0.79493 0.36036 -0.04700
C 	C 	0.46340 0.92996 0.34809 -0.02600
H 	H 	0.42860 0.97670 0.40520 0.05300
C 	C 	0.43470 0.99514 0.25191 -0.04800
H 	H 	0.38200 0.08530 0.24420 0.03600
C 	C 	0.48500 0.92499 0.16709 -0.03500
H 	H 	0.46620 0.96870 0.10240 0.04200
C 	C 	0.56310 0.79013 0.17771 -0.02800
C 	C 	0.70200 0.57885 0.28034 0.36400
C 	C 	0.59450 0.71872 0.08464 0.24000
C 	C 	0.56600 0.73063 0.46808 0.30900
C 	C 	0.11970 0.73541 0.32404 -0.07000
H 	H 	0.17380 0.70260 0.26050 0.04200
C 	C 	0.99830 0.85992 0.32574 0.15100
C 	C 	0.91430 0.90545 0.42221 -0.13800
H 	H 	0.82990 0.98760 0.42650 0.09000
C 	C 	0.95780 0.82716 0.51150 0.00400
H 	H 	0.90270 0.85640 0.57640 0.02500
C 	C 	0.08350 0.70541 0.50386 -0.02000
H 	H 	0.11430 0.65370 0.56390 0.01600
C 	C 	0.02920 0.91327 0.13551 0.26700
C 	C 	0.97170 0.02312 0.05331 -0.26400
H 	H 	0.83100 0.05650 0.07120 0.09400
H 	H 	0.03570 0.09480 0.05140 0.09700
Zn	Zn	0.50000 0.50000 -0.00000 1.12100
