data_crystal

_cell_length_a 18.36010
_cell_length_b 18.35860
_cell_length_c 18.36010
_cell_angle_alpha 89.98130
_cell_angle_beta  59.98710
_cell_angle_gamma 59.99500

_symmetry_space_group_name_	'P 1'
_symmetry_space_group_name_H-M	'P 1'

loop_
_symmetry_equiv_pos_as_xyz
  x,y,z

loop_
_atom_site_label
_atom_site_type_symbol
_atom_site_fract_x
_atom_site_fract_y
_atom_site_fract_z
_atom_site_charge
O 	O 	0.36432 0.61438 0.62755 -0.39500
O 	O 	0.48600 0.49142 0.62782 -0.41700
C 	C 	0.40450 0.56750 0.66293 0.37900
O 	O 	0.36346 0.50950 0.52178 -0.40200
O 	O 	0.48514 0.38654 0.52205 -0.42400
C 	C 	0.40340 0.43367 0.52796 0.38200
Cu	Cu	0.42796 0.57280 0.49984 0.91500
Cu	Cu	0.57204 0.42720 0.50016 0.90100
O 	O 	0.51400 0.50858 0.37218 -0.41000
O 	O 	0.63568 0.38562 0.37245 -0.43200
O 	O 	0.51486 0.61346 0.47795 -0.40200
O 	O 	0.63654 0.49050 0.47822 -0.42500
C 	C 	0.59550 0.43250 0.33707 0.39100
C 	C 	0.59660 0.56633 0.47204 0.38500
C 	C 	0.34366 0.04706 0.76156 -0.13700
C 	C 	0.21472 0.04745 0.89320 -0.12100
C 	C 	0.34639 0.04719 0.89027 -0.13400
C 	C 	0.25787 0.04601 0.80622 0.06200
H 	H 	0.22887 0.04422 0.77735 0.03700
C 	C 	0.26058 0.04614 0.93425 0.06100
H 	H 	0.23341 0.04445 0.99217 0.03100
C 	C 	0.38884 0.04575 0.80330 0.06700
H 	H 	0.44863 0.04379 0.77245 0.02400
C 	C 	0.78141 0.95760 0.10933 -0.10800
C 	C 	0.65253 0.95722 0.10730 -0.10000
C 	C 	0.65052 0.95733 0.23839 -0.09800
C 	C 	0.73974 0.95616 0.06499 0.06800
H 	H 	0.77083 0.95439 0.00591 0.05700
C 	C 	0.60954 0.95590 0.19337 0.06600
H 	H 	0.55236 0.95394 0.22132 0.06500
C 	C 	0.73773 0.95628 0.19539 0.06900
H 	H 	0.76746 0.95458 0.22471 0.05400
C 	C 	0.34730 0.26281 0.10701 -0.14100
C 	C 	0.34421 0.39444 0.10985 -0.13000
C 	C 	0.21567 0.39144 0.23852 -0.11500
C 	C 	0.38780 0.30833 0.06511 0.08500
H 	H 	0.44508 0.28069 0.00602 0.03400
C 	C 	0.25688 0.43628 0.19592 0.07500
H 	H 	0.22539 0.49538 0.22551 0.05700
C 	C 	0.25995 0.30535 0.19309 0.07900
H 	H 	0.23055 0.27569 0.22077 0.04200
C 	C 	0.64949 0.61192 0.89299 -0.12500
C 	C 	0.65317 0.74015 0.88954 -0.11100
C 	C 	0.78138 0.60840 0.76117 -0.13700
C 	C 	0.60929 0.69792 0.93459 0.06700
H 	H 	0.55204 0.72772 0.99368 0.05000
C 	C 	0.74048 0.69441 0.80348 0.07100
H 	H 	0.77216 0.72184 0.77368 0.04300
C 	C 	0.73681 0.56686 0.80691 0.07700
H 	H 	0.76601 0.50782 0.77943 0.02700
O 	O 	0.36542 0.12897 0.11117 -0.44400
O 	O 	0.48771 0.12934 0.98890 -0.46900
C 	C 	0.40585 0.16440 0.06470 0.40800
O 	O 	0.51522 0.97936 0.11096 -0.33700
O 	O 	0.63751 0.97972 0.98869 -0.35700
C 	C 	0.59700 0.97349 0.06443 0.38800
Cu	Cu	0.42921 0.00126 0.06929 0.84600
Cu	Cu	0.57402 0.00169 0.92450 0.83400
O 	O 	0.51553 0.87361 0.00489 -0.33000
O 	O 	0.63781 0.87397 0.88261 -0.34800
O 	O 	0.36572 0.02322 0.00510 -0.42700
O 	O 	0.48801 0.02359 0.88282 -0.45400
C 	C 	0.59738 0.83855 0.92908 0.35600
C 	C 	0.40624 0.02946 0.92935 0.36000
C 	C 	0.65022 0.39395 0.10941 -0.15600
C 	C 	0.78138 0.26315 0.10766 -0.17500
C 	C 	0.65193 0.39234 0.23864 -0.15300
C 	C 	0.73771 0.30794 0.06520 0.10200
H 	H 	0.76762 0.27987 0.00610 0.01700
C 	C 	0.73940 0.30634 0.19375 0.09600
H 	H 	0.77047 0.27718 0.22180 0.01300
C 	C 	0.60895 0.43644 0.19549 0.09200
H 	H 	0.55157 0.49549 0.22473 0.04000
C 	C 	0.34503 0.26329 0.54540 -0.12700
C 	C 	0.34451 0.39365 0.54569 -0.11900
C 	C 	0.21468 0.39328 0.54551 -0.10600
C 	C 	0.38851 0.30667 0.54428 0.07000
H 	H 	0.44820 0.27694 0.54249 0.03200
C 	C 	0.25887 0.43598 0.54440 0.06500
H 	H 	0.23066 0.49391 0.54268 0.05900
C 	C 	0.25938 0.30631 0.54411 0.06400
H 	H 	0.23152 0.27632 0.54219 0.04600
C 	C 	0.65315 0.60867 0.45432 -0.12700
C 	C 	0.65147 0.73961 0.45403 -0.11400
C 	C 	0.78239 0.61049 0.45421 -0.13700
C 	C 	0.60857 0.69556 0.45544 0.07100
H 	H 	0.54888 0.72478 0.45724 0.05500
C 	C 	0.73712 0.69736 0.45533 0.07500
H 	H 	0.76458 0.72781 0.45704 0.04400
C 	C 	0.73878 0.56712 0.45561 0.07600
H 	H 	0.76738 0.50927 0.45753 0.02900
C 	C 	0.21468 0.73999 0.89062 -0.07000
C 	C 	0.34566 0.60861 0.76184 -0.09900
C 	C 	0.34346 0.61096 0.89302 -0.09500
C 	C 	0.26015 0.69561 0.80378 0.04800
H 	H 	0.23290 0.72468 0.77315 0.07200
C 	C 	0.38824 0.56727 0.80616 0.05500
H 	H 	0.44784 0.50934 0.77714 0.04400
C 	C 	0.25797 0.69794 0.93426 0.04200
H 	H 	0.22924 0.72860 0.99209 0.06800
O 	O 	0.89269 0.12946 0.11419 -0.48100
O 	O 	0.89282 0.12951 0.99169 -0.49000
C 	C 	0.86356 0.16473 0.06754 0.40800
O 	O 	0.10426 0.02368 0.00852 -0.37700
O 	O 	0.10439 0.02373 0.88601 -0.39900
C 	C 	0.13352 0.02975 0.93269 0.34700
Cu	Cu	0.99846 0.00177 0.07259 0.79200
Cu	Cu	0.99861 0.00183 0.92752 0.79200
O 	O 	0.10425 0.87408 0.00842 -0.28000
O 	O 	0.10438 0.87414 0.88591 -0.29100
O 	O 	0.89268 0.97986 0.11410 -0.36300
O 	O 	0.89281 0.97992 0.99159 -0.37500
C 	C 	0.13351 0.83887 0.93257 0.33900
C 	C 	0.86355 0.97385 0.06741 0.38800
O 	O 	0.50893 0.61861 0.01118 -0.38700
O 	O 	0.63164 0.49629 0.88863 -0.42200
C 	C 	0.59086 0.57211 0.93537 0.36900
O 	O 	0.50911 0.51260 0.11677 -0.41300
O 	O 	0.63182 0.39029 0.99422 -0.44700
C 	C 	0.59109 0.43686 0.07011 0.40800
Cu	Cu	0.42308 0.57673 0.07511 0.91700
Cu	Cu	0.56838 0.43188 0.92999 0.90000
O 	O 	0.35982 0.51232 0.11648 -0.40500
O 	O 	0.48252 0.39000 0.99392 -0.44200
O 	O 	0.35964 0.61832 0.01089 -0.37800
O 	O 	0.48234 0.49601 0.88833 -0.41400
C 	C 	0.40059 0.43650 0.06973 0.40500
C 	C 	0.40036 0.57175 0.93500 0.36000
O 	O 	0.36046 0.02395 0.62750 -0.44700
O 	O 	0.48360 0.02271 0.62731 -0.45800
C 	C 	0.40138 0.02937 0.66265 0.38200
O 	O 	0.50920 0.87439 0.47790 -0.34100
O 	O 	0.63235 0.87315 0.47771 -0.35000
C 	C 	0.59117 0.83853 0.47176 0.37200
Cu	Cu	0.42394 0.00220 0.49983 0.84200
Cu	Cu	0.56977 0.00072 0.49961 0.83600
O 	O 	0.51011 0.98021 0.37213 -0.33300
O 	O 	0.63326 0.97896 0.37194 -0.34200
O 	O 	0.36136 0.12977 0.52173 -0.44000
O 	O 	0.48451 0.12853 0.52154 -0.45100
C 	C 	0.59233 0.97355 0.33679 0.37200
C 	C 	0.40254 0.16439 0.52768 0.38300
O 	O 	0.89313 0.61441 0.62775 -0.43200
O 	O 	0.89233 0.49236 0.62733 -0.44500
C 	C 	0.86353 0.56793 0.66279 0.38700
O 	O 	0.89314 0.61545 0.47816 -0.43100
O 	O 	0.89234 0.49340 0.47775 -0.44500
C 	C 	0.86355 0.56926 0.47191 0.38700
Cu	Cu	0.99899 0.57294 0.50010 0.86300
Cu	Cu	0.99805 0.42841 0.49961 0.85500
O 	O 	0.10470 0.50899 0.37238 -0.35800
O 	O 	0.10391 0.38694 0.37196 -0.36900
O 	O 	0.10469 0.50795 0.52197 -0.35800
O 	O 	0.10390 0.38590 0.52155 -0.36900
C 	C 	0.13350 0.43342 0.33693 0.37700
C 	C 	0.13349 0.43209 0.52780 0.37200
