data_crystal

_cell_length_a 9.95230
_cell_length_b 9.95230
_cell_length_c 36.79800
_cell_angle_alpha 90.00000
_cell_angle_beta  90.00000
_cell_angle_gamma 90.00000

_symmetry_space_group_name_	'P 1'
_symmetry_space_group_name_H-M	'P 1'

loop_
_symmetry_equiv_pos_as_xyz
  x,y,z

loop_
_atom_site_label
_atom_site_type_symbol
_atom_site_fract_x
_atom_site_fract_y
_atom_site_fract_z
_atom_site_charge
C 	C 	0.06670 0.37850 0.01860 -0.00600
C 	C 	0.08630 0.26410 0.03890 -0.05900
H 	H 	0.07680 0.26190 0.06410 0.04000
C 	C 	0.12000 0.15600 0.01910 -0.03800
H 	H 	0.14520 0.07730 0.03110 0.01800
C 	C 	0.93330 0.62150 0.01860 0.05800
C 	C 	0.91370 0.73590 0.03890 -0.05600
H 	H 	0.92320 0.73810 0.06410 0.07800
C 	C 	0.88000 0.84400 0.01910 -0.01500
H 	H 	0.85480 0.92270 0.03110 0.05800
C 	C 	0.62150 0.06670 0.51860 -0.00300
C 	C 	0.73590 0.08630 0.53890 -0.05200
H 	H 	0.73810 0.07680 0.56410 0.04800
C 	C 	0.84400 0.12000 0.51910 -0.03400
H 	H 	0.92270 0.14520 0.53110 0.05700
C 	C 	0.37850 0.93330 0.51860 0.05900
C 	C 	0.26410 0.91370 0.53890 -0.05900
H 	H 	0.26190 0.92320 0.56410 0.07300
C 	C 	0.15600 0.88000 0.51910 -0.01700
H 	H 	0.07730 0.85480 0.53110 0.02500
C 	C 	0.93330 0.37850 0.98140 0.05900
C 	C 	0.91370 0.26410 0.96110 -0.05900
H 	H 	0.92320 0.26190 0.93590 0.07300
C 	C 	0.88000 0.15600 0.98090 -0.01700
H 	H 	0.85480 0.07730 0.96890 0.02500
C 	C 	0.06670 0.62150 0.98140 -0.00300
C 	C 	0.08630 0.73590 0.96110 -0.05200
H 	H 	0.07680 0.73810 0.93590 0.04800
C 	C 	0.12000 0.84400 0.98090 -0.03400
H 	H 	0.14520 0.92270 0.96890 0.05700
C 	C 	0.37850 0.06670 0.48140 -0.00500
C 	C 	0.26410 0.08630 0.46110 -0.05800
H 	H 	0.26190 0.07680 0.43590 0.04000
C 	C 	0.15600 0.12000 0.48090 -0.03800
H 	H 	0.07730 0.14520 0.46890 0.01800
C 	C 	0.62150 0.93330 0.48140 0.05800
C 	C 	0.73590 0.91370 0.46110 -0.05600
H 	H 	0.73810 0.92320 0.43590 0.07800
C 	C 	0.84400 0.88000 0.48090 -0.01500
H 	H 	0.92270 0.85480 0.46890 0.05800
C 	C 	0.93330 0.62150 0.98140 0.05800
C 	C 	0.91370 0.73590 0.96110 -0.05600
H 	H 	0.92320 0.73810 0.93590 0.07800
C 	C 	0.88000 0.84400 0.98090 -0.01500
H 	H 	0.85480 0.92270 0.96890 0.05800
C 	C 	0.06670 0.37850 0.98140 -0.00500
C 	C 	0.08630 0.26410 0.96110 -0.05800
H 	H 	0.07680 0.26190 0.93590 0.04000
C 	C 	0.12000 0.15600 0.98090 -0.03800
H 	H 	0.14520 0.07730 0.96890 0.01800
C 	C 	0.37850 0.93330 0.48140 0.05900
C 	C 	0.26410 0.91370 0.46110 -0.05900
H 	H 	0.26190 0.92320 0.43590 0.07300
C 	C 	0.15600 0.88000 0.48090 -0.01700
H 	H 	0.07730 0.85480 0.46890 0.02500
C 	C 	0.62150 0.06670 0.48140 -0.00300
C 	C 	0.73590 0.08630 0.46110 -0.05200
H 	H 	0.73810 0.07680 0.43590 0.04800
C 	C 	0.84400 0.12000 0.48090 -0.03400
H 	H 	0.92270 0.14520 0.46890 0.05700
C 	C 	0.06670 0.62150 0.01860 -0.00300
C 	C 	0.08630 0.73590 0.03890 -0.05200
H 	H 	0.07680 0.73810 0.06410 0.04800
C 	C 	0.12000 0.84400 0.01910 -0.03400
H 	H 	0.14520 0.92270 0.03110 0.05700
C 	C 	0.93330 0.37850 0.01860 0.05900
C 	C 	0.91370 0.26410 0.03890 -0.05900
H 	H 	0.92320 0.26190 0.06410 0.07300
C 	C 	0.88000 0.15600 0.01910 -0.01700
H 	H 	0.85480 0.07730 0.03110 0.02500
C 	C 	0.62150 0.93330 0.51860 0.05800
C 	C 	0.73590 0.91370 0.53890 -0.05600
H 	H 	0.73810 0.92320 0.56410 0.07800
C 	C 	0.84400 0.88000 0.51910 -0.01500
H 	H 	0.92270 0.85480 0.53110 0.05800
C 	C 	0.37850 0.06670 0.51860 -0.00500
C 	C 	0.26410 0.08630 0.53890 -0.05800
H 	H 	0.26190 0.07680 0.56410 0.04000
C 	C 	0.15600 0.12000 0.51910 -0.03800
H 	H 	0.07730 0.14520 0.53110 0.01800
In	In	-0.00000 0.00000 0.25000 1.98300
In	In	0.00000 0.00000 0.75000 1.98300
O 	O 	-0.00000 0.14310 0.20526 -0.50200
O 	O 	0.00000 0.24440 0.25683 -0.42500
C 	C 	0.00000 0.24570 0.22408 0.34100
C 	C 	-0.00000 0.38170 0.20457 -0.04000
C 	C 	0.00000 0.38260 0.16726 -0.06800
H 	H 	0.00000 0.30170 0.15460 0.07200
O 	O 	0.00000 0.85690 0.20526 -0.45900
O 	O 	0.00000 0.75560 0.25683 -0.40000
C 	C 	-0.00000 0.75430 0.22408 0.33200
C 	C 	-0.00000 0.61830 0.20457 -0.03000
C 	C 	0.00000 0.61740 0.16726 -0.07100
H 	H 	-0.00000 0.69830 0.15460 0.08300
O 	O 	0.85690 0.00000 0.70526 -0.45900
O 	O 	0.75560 0.00000 0.75683 -0.40000
C 	C 	0.75430 0.00000 0.72408 0.33200
C 	C 	0.61830 0.00000 0.70457 -0.03000
C 	C 	0.61740 0.00000 0.66726 -0.07100
H 	H 	0.69830 0.00000 0.65460 0.08300
O 	O 	0.14310 0.00000 0.70526 -0.50200
O 	O 	0.24440 0.00000 0.75683 -0.42500
C 	C 	0.24570 0.00000 0.72408 0.34100
C 	C 	0.38170 0.00000 0.70457 -0.04000
C 	C 	0.38260 0.00000 0.66726 -0.06800
H 	H 	0.30170 0.00000 0.65460 0.07200
O 	O 	-0.00000 0.14310 0.79474 -0.50200
O 	O 	0.00000 0.24440 0.74317 -0.42500
C 	C 	0.00000 0.24570 0.77592 0.34100
C 	C 	-0.00000 0.38170 0.79543 -0.04000
C 	C 	0.00000 0.38260 0.83274 -0.06800
H 	H 	0.00000 0.30170 0.84540 0.07200
O 	O 	0.00000 0.85690 0.79474 -0.45900
O 	O 	0.00000 0.75560 0.74317 -0.40000
C 	C 	0.00000 0.75430 0.77592 0.33200
C 	C 	0.00000 0.61830 0.79543 -0.03000
C 	C 	0.00000 0.61740 0.83274 -0.07100
H 	H 	0.00000 0.69830 0.84540 0.08300
O 	O 	0.14310 -0.00000 0.29474 -0.50200
O 	O 	0.24440 0.00000 0.24317 -0.42500
C 	C 	0.24570 0.00000 0.27592 0.34100
C 	C 	0.38170 0.00000 0.29543 -0.04000
C 	C 	0.38260 0.00000 0.33274 -0.06800
H 	H 	0.30170 0.00000 0.34540 0.07200
O 	O 	0.85690 -0.00000 0.29474 -0.45900
O 	O 	0.75560 0.00000 0.24317 -0.40000
C 	C 	0.75430 0.00000 0.27592 0.33200
C 	C 	0.61830 0.00000 0.29543 -0.03000
C 	C 	0.61740 0.00000 0.33274 -0.07100
H 	H 	0.69830 0.00000 0.34540 0.08300
C 	C 	0.00000 0.50000 0.22350 -0.01700
H 	H 	-0.00000 0.50000 0.24880 0.07400
C 	C 	-0.00000 0.50000 0.14880 0.05500
C 	C 	0.00000 0.50000 0.10770 -0.05300
C 	C 	0.00000 0.50000 0.07660 0.01300
C 	C 	-0.00000 0.50000 0.03780 -0.07300
C 	C 	0.50000 0.00000 0.72350 -0.01700
H 	H 	0.50000 0.00000 0.74880 0.07400
C 	C 	0.50000 0.00000 0.64880 0.05500
C 	C 	0.50000 0.00000 0.60770 -0.05300
C 	C 	0.50000 0.00000 0.57660 0.01300
C 	C 	0.50000 0.00000 0.53780 -0.07300
C 	C 	-0.00000 0.50000 0.77650 -0.01700
H 	H 	0.00000 0.50000 0.75120 0.07400
C 	C 	0.00000 0.50000 0.85120 0.05500
C 	C 	-0.00000 0.50000 0.89230 -0.05300
C 	C 	0.00000 0.50000 0.92340 0.01300
C 	C 	0.00000 0.50000 0.96220 -0.07300
C 	C 	0.50000 0.00000 0.27650 -0.01700
H 	H 	0.50000 0.00000 0.25120 0.07400
C 	C 	0.50000 0.00000 0.35120 0.05500
C 	C 	0.50000 0.00000 0.39230 -0.05300
C 	C 	0.50000 0.00000 0.42340 0.01300
C 	C 	0.50000 0.00000 0.46220 -0.07300
