data_crystal

_cell_length_a 12.33420
_cell_length_b 12.37310
_cell_length_c 8.87090
_cell_angle_alpha 75.47780
_cell_angle_beta  78.95790
_cell_angle_gamma 63.38790

_symmetry_space_group_name_	'P 1'
_symmetry_space_group_name_H-M	'P 1'

loop_
_symmetry_equiv_pos_as_xyz
  x,y,z

loop_
_atom_site_label
_atom_site_type_symbol
_atom_site_fract_x
_atom_site_fract_y
_atom_site_fract_z
_atom_site_charge
C 	C 	0.97498 0.38904 0.39648 -0.01100
C 	C 	0.01109 0.56772 0.30254 0.02100
C 	C 	0.86204 0.54411 0.19693 0.01500
C 	C 	0.04002 0.45413 0.39728 -0.03700
H 	H 	0.11846 0.41311 0.46366 0.05400
C 	C 	0.92313 0.61282 0.20017 -0.06400
H 	H 	0.90067 0.70232 0.12563 0.04800
C 	C 	0.88298 0.43672 0.30213 -0.05500
H 	H 	0.83202 0.38447 0.30503 0.08100
C 	C 	0.13948 0.68915 0.29613 -0.10600
C 	C 	0.07997 0.63401 0.30113 0.05000
C 	C 	0.65010 0.64433 0.09637 -0.11100
C 	C 	0.75459 0.59666 0.12006 0.04800
C 	C 	0.08784 0.15471 0.42316 -0.12500
C 	C 	0.03153 0.25998 0.43262 0.09200
O 	O 	0.24749 0.95908 0.46253 -0.44400
O 	O 	0.17249 0.04302 0.22336 -0.37000
C 	C 	0.16478 0.04312 0.37314 0.41000
O 	O 	0.48237 0.90692 0.33274 -0.35400
O 	O 	0.40033 0.01915 0.10298 -0.29000
C 	C 	0.47563 0.99202 0.20651 0.17400
Cu	Cu	0.37634 0.81896 0.38958 0.90600
Cu	Cu	0.30621 0.92857 0.10832 0.88600
O 	O 	0.49303 0.69260 0.28205 -0.39200
O 	O 	0.45860 0.80340 0.03534 -0.39100
O 	O 	0.26283 0.74696 0.40287 -0.38100
O 	O 	0.22458 0.82174 0.14617 -0.39700
C 	C 	0.52377 0.70549 0.13155 0.33600
C 	C 	0.21079 0.75523 0.28217 0.32900
C 	C 	0.80625 0.26610 0.15493 0.08900
C 	C 	0.80291 0.26576 0.88381 0.07700
C 	C 	0.69849 0.16868 0.08674 0.08000
C 	C 	0.84084 0.29941 0.99677 -0.10200
H 	H 	0.89585 0.35083 0.96224 0.06700
C 	C 	0.73195 0.20071 0.93099 -0.09900
H 	H 	0.70177 0.17523 0.84413 0.07400
C 	C 	0.73573 0.20127 0.19704 -0.10200
H 	H 	0.70838 0.17664 0.31927 0.07700
C 	C 	0.84460 0.30681 0.57420 0.01900
C 	C 	0.83199 0.29436 0.71603 -0.03500
C 	C 	0.55613 0.05181 0.17288 0.02400
C 	C 	0.62198 0.10423 0.13507 -0.01100
C 	C 	0.84650 0.30785 0.41211 -0.02000
C 	C 	0.83616 0.29540 0.28489 -0.06000
