data_crystal

_cell_length_a 22.41050
_cell_length_b 22.51560
_cell_length_c 22.27400
_cell_angle_alpha 100.14100
_cell_angle_beta  64.26520
_cell_angle_gamma 66.75320

_symmetry_space_group_name_	'P 1'
_symmetry_space_group_name_H-M	'P 1'

loop_
_symmetry_equiv_pos_as_xyz
  x,y,z

loop_
_atom_site_label
_atom_site_type_symbol
_atom_site_fract_x
_atom_site_fract_y
_atom_site_fract_z
_atom_site_charge
O 	O 	0.40923 0.59722 0.60587 -0.38100
O 	O 	0.49774 0.50147 0.60770 -0.38600
C 	C 	0.43637 0.56613 0.64069 0.30800
O 	O 	0.39241 0.50198 0.52952 -0.38600
O 	O 	0.48981 0.40533 0.52150 -0.38200
C 	C 	0.41985 0.44082 0.53392 0.30800
Cu	Cu	0.45058 0.54897 0.50247 0.90200
Cu	Cu	0.55887 0.44196 0.50259 0.90100
O 	O 	0.51044 0.48818 0.39788 -0.38500
O 	O 	0.60208 0.39408 0.39860 -0.38100
O 	O 	0.52037 0.58486 0.48129 -0.38000
O 	O 	0.61572 0.49044 0.47784 -0.38500
C 	C 	0.57312 0.42398 0.36449 0.30900
C 	C 	0.58915 0.55065 0.47096 0.30900
H 	H 	0.48533 0.84522 0.91844 0.03600
C 	C 	0.55116 0.89320 0.87726 -0.10000
C 	C 	0.56455 0.93121 0.83590 0.03200
H 	H 	0.60705 0.94579 0.82798 0.03500
C 	C 	0.52148 0.95293 0.80616 -0.08000
H 	H 	0.53157 0.98328 0.77452 0.05100
C 	C 	0.46471 0.93715 0.81841 0.05000
C 	C 	0.45346 0.89743 0.85798 -0.08200
H 	H 	0.41253 0.88098 0.86498 0.06000
C 	C 	0.49604 0.87592 0.88746 0.03400
C 	C 	0.34497 0.97313 0.82283 -0.00100
H 	H 	0.31526 0.99006 0.88152 0.04500
C 	C 	0.31160 0.95958 0.78703 -0.06500
C 	C 	0.35134 0.94062 0.71100 0.02600
H 	H 	0.32711 0.92886 0.68125 0.04300
C 	C 	0.42541 0.93244 0.67322 -0.07900
C 	C 	0.46004 0.93710 0.71092 0.00300
H 	H 	0.52035 0.92200 0.68284 0.04700
C 	C 	0.42104 0.95480 0.78450 -0.02400
H 	H 	0.04455 0.77663 0.94405 0.04400
C 	C 	0.99766 0.87226 0.03296 -0.06000
C 	C 	0.94131 0.91493 0.11217 0.00700
H 	H 	0.93716 0.96265 0.13907 0.04200
C 	C 	0.88701 0.89876 0.15155 -0.06300
H 	H 	0.83958 0.93528 0.20787 0.04900
C 	C 	0.88901 0.83996 0.11698 0.03300
C 	C 	0.94905 0.79475 0.04379 -0.05500
H 	H 	0.95093 0.74857 0.01670 0.04900
C 	C 	0.00174 0.81113 0.00185 -0.00600
C 	C 	0.77574 0.84084 0.21837 0.00300
H 	H 	0.79710 0.84394 0.25325 0.04400
C 	C 	0.70609 0.84150 0.24337 -0.08300
C 	C 	0.67882 0.84052 0.19801 0.03800
H 	H 	0.62386 0.84376 0.21715 0.04700
C 	C 	0.71999 0.83921 0.12951 -0.09000
C 	C 	0.78925 0.83584 0.10518 0.00700
H 	H 	0.82026 0.83638 0.05252 0.04700
C 	C 	0.81809 0.83649 0.14809 -0.02300
H 	H 	0.38618 0.06445 0.17029 0.03500
C 	C 	0.48902 0.07003 0.12255 -0.09900
C 	C 	0.51764 0.11404 0.11351 0.03500
H 	H 	0.57970 0.09311 0.08282 0.03700
C 	C 	0.46728 0.18594 0.14356 -0.08200
H 	H 	0.49142 0.21929 0.13735 0.05900
C 	C 	0.38767 0.21479 0.18222 0.05200
C 	C 	0.35850 0.17116 0.19365 -0.08100
H 	H 	0.29617 0.19327 0.22455 0.05200
C 	C 	0.40933 0.09853 0.16356 0.03200
C 	C 	0.27963 0.32709 0.28854 0.00700
H 	H 	0.26607 0.29538 0.31679 0.04600
C 	C 	0.24601 0.39935 0.32563 -0.08400
C 	C 	0.27593 0.43515 0.28778 0.03400
H 	H 	0.25676 0.48947 0.31717 0.04100
C 	C 	0.33452 0.39813 0.21219 -0.08000
C 	C 	0.35806 0.32870 0.17676 0.00700
H 	H 	0.40086 0.29907 0.11826 0.04400
C 	C 	0.33676 0.29195 0.21538 -0.02900
H 	H 	0.67038 0.43040 0.86280 0.03800
C 	C 	0.66096 0.47206 0.96292 -0.07300
C 	C 	0.69179 0.49817 0.99399 0.02100
H 	H 	0.66913 0.51226 0.05159 0.03800
C 	C 	0.75059 0.50821 0.95219 -0.07200
H 	H 	0.77060 0.53277 0.97880 0.05400
C 	C 	0.77743 0.49506 0.87946 0.04400
C 	C 	0.75035 0.46435 0.84695 -0.07100
H 	H 	0.76852 0.45584 0.79102 0.05100
C 	C 	0.69334 0.45166 0.88828 0.01800
C 	C 	0.76837 0.60628 0.89072 0.01100
H 	H 	0.71455 0.62777 0.94285 0.04700
C 	C 	0.78975 0.65086 0.86671 -0.09400
C 	C 	0.85755 0.62340 0.79863 0.04200
H 	H 	0.87380 0.65892 0.77963 0.04700
C 	C 	0.90232 0.55095 0.75362 -0.08700
C 	C 	0.87804 0.50653 0.77843 0.00800
H 	H 	0.91038 0.45032 0.74395 0.04500
C 	C 	0.81142 0.53471 0.84816 -0.02800
O 	O 	0.52116 0.95017 0.09813 -0.38100
O 	O 	0.61391 0.97262 0.02698 -0.38400
C 	C 	0.54422 0.99371 0.08186 0.31300
O 	O 	0.62862 0.84240 0.09970 -0.38000
O 	O 	0.72407 0.86127 0.02788 -0.38700
C 	C 	0.69068 0.84559 0.08230 0.31000
Cu	Cu	0.58658 0.84735 0.03889 0.90200
Cu	Cu	0.69420 0.87335 0.95857 0.90300
O 	O 	0.66871 0.74797 0.97212 -0.38800
O 	O 	0.75798 0.77107 0.89707 -0.38600
O 	O 	0.55509 0.86124 0.97098 -0.38900
O 	O 	0.64552 0.88733 0.90357 -0.38100
C 	C 	0.73658 0.72703 0.91400 0.31200
C 	C 	0.58871 0.87633 0.91644 0.31400
H 	H 	0.90678 0.07688 0.96872 0.04500
C 	C 	0.95660 0.11071 0.02084 -0.08900
C 	C 	0.93931 0.16337 0.07961 0.02500
H 	H 	0.98443 0.15964 0.08801 0.03800
C 	C 	0.86369 0.22205 0.12826 -0.07400
H 	H 	0.85197 0.26355 0.17240 0.05200
C 	C 	0.80442 0.22819 0.11923 0.04600
C 	C 	0.82195 0.17446 0.06156 -0.07400
H 	H 	0.77691 0.17566 0.05435 0.05100
C 	C 	0.89700 0.11715 0.01246 0.02300
C 	C 	0.68286 0.31610 0.13660 0.00900
H 	H 	0.71083 0.29191 0.07796 0.04300
C 	C 	0.60677 0.37310 0.17969 -0.08800
C 	C 	0.57198 0.40773 0.25379 0.04200
H 	H 	0.51230 0.45242 0.28752 0.04900
C 	C 	0.61230 0.38471 0.28548 -0.09100
C 	C 	0.68843 0.32598 0.24240 0.01100
H 	H 	0.71972 0.30707 0.26732 0.04100
C 	C 	0.72413 0.29137 0.16736 -0.02800
H 	H 	0.35168 0.11224 0.57810 0.03400
C 	C 	0.46662 0.08768 0.50269 -0.10300
C 	C 	0.51254 0.11440 0.47336 0.03600
H 	H 	0.57488 0.07882 0.43383 0.03300
C 	C 	0.47882 0.18613 0.49112 -0.08100
H 	H 	0.51576 0.20453 0.46278 0.05500
C 	C 	0.39904 0.23230 0.54158 0.05200
C 	C 	0.35397 0.20515 0.57385 -0.08100
H 	H 	0.29209 0.23966 0.61555 0.05400
C 	C 	0.38741 0.13294 0.55302 0.03500
C 	C 	0.28970 0.34234 0.56552 0.01200
H 	H 	0.26069 0.31390 0.56583 0.04400
C 	C 	0.25732 0.41014 0.56882 -0.09300
C 	C 	0.29849 0.44384 0.56095 0.04400
H 	H 	0.27528 0.49532 0.55953 0.04600
C 	C 	0.37154 0.40941 0.55023 -0.09200
C 	C 	0.40175 0.34248 0.54957 0.01100
H 	H 	0.45787 0.31628 0.54246 0.04200
C 	C 	0.36186 0.30791 0.55531 -0.03100
H 	H 	0.85608 0.49366 0.56504 0.03300
C 	C 	0.91729 0.53086 0.49440 -0.10300
C 	C 	0.92245 0.55895 0.44364 0.03500
H 	H 	0.96901 0.56855 0.41764 0.03400
C 	C 	0.87003 0.57215 0.42366 -0.08100
H 	H 	0.87715 0.59174 0.38166 0.05400
C 	C 	0.80963 0.56069 0.45719 0.05200
C 	C 	0.80524 0.53227 0.50815 -0.08100
H 	H 	0.75770 0.52488 0.53760 0.05400
C 	C 	0.86014 0.51572 0.52507 0.03600
C 	C 	0.70520 0.55163 0.45180 0.01100
H 	H 	0.72434 0.50291 0.45900 0.04200
C 	C 	0.63747 0.58208 0.45316 -0.09100
C 	C 	0.61370 0.64410 0.44233 0.04300
H 	H 	0.55983 0.66933 0.44506 0.04600
C 	C 	0.65701 0.67593 0.43204 -0.09200
C 	C 	0.72279 0.64605 0.43375 0.01200
H 	H 	0.75294 0.67363 0.43171 0.04500
C 	C 	0.74675 0.58465 0.44441 -0.03000
H 	H 	0.51112 0.43081 0.88184 0.03400
C 	C 	0.40065 0.51315 0.97868 -0.08000
C 	C 	0.33231 0.57624 0.00694 0.01900
H 	H 	0.28883 0.60372 0.06546 0.03400
C 	C 	0.31941 0.60512 0.96091 -0.07000
H 	H 	0.26382 0.65332 0.98511 0.05100
C 	C 	0.37719 0.57382 0.88634 0.04400
C 	C 	0.44525 0.50955 0.85837 -0.07200
H 	H 	0.49306 0.48398 0.80143 0.05000
C 	C 	0.45596 0.47889 0.90409 0.02300
C 	C 	0.40598 0.57132 0.76362 0.01000
H 	H 	0.44106 0.51392 0.73898 0.04100
C 	C 	0.39662 0.60580 0.71977 -0.09100
C 	C 	0.34737 0.67841 0.75089 0.04200
H 	H 	0.33977 0.70470 0.71639 0.05100
C 	C 	0.30901 0.71736 0.82502 -0.08700
C 	C 	0.32077 0.68360 0.86834 0.00800
H 	H 	0.29246 0.71565 0.92560 0.04200
C 	C 	0.36780 0.60992 0.83860 -0.02600
O 	O 	0.08974 0.03644 0.98541 -0.35700
O 	O 	0.04050 0.00201 0.91955 -0.37000
C 	C 	0.03064 0.04922 0.97299 0.27100
O 	O 	0.24704 0.93421 0.88911 -0.36200
O 	O 	0.19558 0.95132 0.81570 -0.36200
C 	C 	0.24721 0.94937 0.83100 0.25700
Cu	Cu	0.15668 0.93730 0.96396 0.89500
Cu	Cu	0.13657 0.90806 0.85797 0.89700
O 	O 	0.21931 0.83370 0.92667 -0.37800
O 	O 	0.23491 0.81839 0.81358 -0.37900
O 	O 	0.06320 0.93527 0.02227 -0.38000
O 	O 	0.08165 0.86909 0.91613 -0.37500
C 	C 	0.25230 0.79364 0.85686 0.29500
C 	C 	0.04991 0.89308 0.98812 0.28000
O 	O 	0.54457 0.50774 0.08352 -0.35800
O 	O 	0.59248 0.41183 0.97644 -0.36800
C 	C 	0.59661 0.46354 0.00829 0.26000
O 	O 	0.49506 0.45868 0.18805 -0.37800
O 	O 	0.59407 0.35829 0.07773 -0.37900
C 	C 	0.56331 0.39783 0.14683 0.29700
Cu	Cu	0.44954 0.50725 0.14069 0.89800
Cu	Cu	0.53068 0.37904 0.03685 0.89800
O 	O 	0.36688 0.48679 0.18265 -0.37200
O 	O 	0.45716 0.36578 0.11263 -0.38100
O 	O 	0.41722 0.53565 0.07675 -0.37600
O 	O 	0.45518 0.42017 0.01151 -0.37500
C 	C 	0.38724 0.41950 0.16805 0.29300
C 	C 	0.42160 0.48902 0.02714 0.28900
O 	O 	0.45006 0.90441 0.55018 -0.37500
O 	O 	0.54396 0.90343 0.56824 -0.38500
C 	C 	0.47466 0.91227 0.59330 0.30100
O 	O 	0.56733 0.77751 0.42852 -0.38300
O 	O 	0.66167 0.78025 0.44339 -0.38300
C 	C 	0.62831 0.74712 0.43235 0.31100
Cu	Cu	0.51401 0.87721 0.44458 0.90200
Cu	Cu	0.61969 0.88142 0.46737 0.90200
O 	O 	0.58898 0.85685 0.34373 -0.38000
O 	O 	0.68359 0.85358 0.36186 -0.37800
O 	O 	0.47043 0.97896 0.47038 -0.38500
O 	O 	0.56692 0.98071 0.48274 -0.39200
C 	C 	0.65783 0.84968 0.31945 0.30100
C 	C 	0.50305 0.01200 0.48405 0.32200
O 	O 	0.98856 0.56690 0.65391 -0.37900
O 	O 	0.00912 0.45490 0.63594 -0.38500
C 	C 	0.97082 0.52284 0.67807 0.31000
O 	O 	0.99489 0.55826 0.52633 -0.37900
O 	O 	0.00434 0.45035 0.51418 -0.39400
C 	C 	0.97501 0.51253 0.51254 0.32200
Cu	Cu	0.07033 0.54030 0.55338 0.89900
Cu	Cu	0.08780 0.41279 0.53064 0.90200
O 	O 	0.14992 0.49809 0.44803 -0.37700
O 	O 	0.16784 0.38700 0.43003 -0.38700
O 	O 	0.15333 0.50294 0.57078 -0.38500
O 	O 	0.16461 0.39450 0.55574 -0.38400
C 	C 	0.18499 0.43061 0.40510 0.30300
C 	C 	0.18679 0.43855 0.56750 0.31100
