data_crystal

_cell_length_a 19.91320
_cell_length_b 19.91320
_cell_length_c 37.71370
_cell_angle_alpha 78.03370
_cell_angle_beta  101.83500
_cell_angle_gamma 89.29320

_symmetry_space_group_name_	'P 1'
_symmetry_space_group_name_H-M	'P 1'

loop_
_symmetry_equiv_pos_as_xyz
  x,y,z

loop_
_atom_site_label
_atom_site_type_symbol
_atom_site_fract_x
_atom_site_fract_y
_atom_site_fract_z
_atom_site_charge
O 	O 	0.46295 0.08744 0.27448 -0.32500
O 	O 	0.47245 0.97427 0.29398 -0.31500
C 	C 	0.43903 0.03406 0.30041 0.18700
O 	O 	0.44253 0.07258 0.20041 -0.34800
O 	O 	0.45211 0.95834 0.22009 -0.33900
C 	C 	0.41357 0.01207 0.19463 0.22400
Cu	Cu	0.52335 0.09037 0.23742 0.88400
Cu	Cu	0.53450 0.95732 0.26033 0.88700
O 	O 	0.58541 0.07342 0.20378 -0.32600
O 	O 	0.59490 0.96025 0.22328 -0.31600
O 	O 	0.60573 0.08936 0.27767 -0.34800
O 	O 	0.61531 0.97511 0.29734 -0.33800
C 	C 	0.61884 0.01363 0.19735 0.18700
C 	C 	0.64428 0.03563 0.30313 0.22400
O 	O 	0.07767 0.43749 0.79729 -0.34800
O 	O 	0.96345 0.44702 0.77783 -0.34000
C 	C 	0.01722 0.40848 0.80321 0.22600
O 	O 	0.07847 0.58040 0.79386 -0.32500
O 	O 	0.96534 0.58984 0.77459 -0.31700
C 	C 	0.01873 0.61376 0.80043 0.18800
Cu	Cu	0.09532 0.51844 0.76019 0.88400
Cu	Cu	0.96231 0.52954 0.73753 0.88700
O 	O 	0.09418 0.60096 0.71989 -0.34800
O 	O 	0.97996 0.61049 0.70043 -0.34000
O 	O 	0.09230 0.45817 0.72312 -0.32600
O 	O 	0.97917 0.46760 0.70385 -0.31700
C 	C 	0.04041 0.63949 0.69451 0.22700
C 	C 	0.03890 0.43426 0.69728 0.18800
C 	C 	0.04594 0.37079 0.66133 -0.01800
C 	C 	0.05922 0.25099 0.59368 -0.01500
C 	C 	0.99988 0.29011 0.60388 -0.02800
H 	H 	0.95004 0.28169 0.58817 0.04000
C 	C 	0.99432 0.34054 0.63237 -0.02400
H 	H 	0.94170 0.35712 0.63079 0.04200
C 	C 	0.10525 0.33164 0.65110 -0.03500
H 	H 	0.15510 0.34001 0.66683 0.04200
C 	C 	0.11086 0.28122 0.62263 -0.03800
H 	H 	0.16348 0.26462 0.62422 0.03900
C 	C 	0.99377 0.75926 0.63133 0.00100
H 	H 	0.94189 0.74416 0.63161 0.03900
C 	C 	0.00001 0.82313 0.60185 -0.06500
H 	H 	0.95189 0.84635 0.58444 0.05500
C 	C 	0.04788 0.71516 0.65945 -0.03600
C 	C 	0.06185 0.85779 0.59364 0.00800
C 	C 	0.11600 0.81369 0.62172 -0.04400
H 	H 	0.16788 0.82876 0.62144 0.04300
C 	C 	0.10973 0.74981 0.65119 -0.02000
H 	H 	0.15787 0.72656 0.66858 0.04100
C 	C 	0.71990 0.04321 0.33813 -0.03200
C 	C 	0.75435 0.10514 0.34638 -0.02400
H 	H 	0.73101 0.15330 0.32900 0.04200
C 	C 	0.81815 0.11148 0.37581 -0.04100
H 	H 	0.83304 0.16342 0.37607 0.04200
C 	C 	0.86242 0.05735 0.40387 -0.00600
C 	C 	0.82801 0.99543 0.39563 -0.03000
H 	H 	0.85141 0.94728 0.41298 0.04300
C 	C 	0.76422 0.98912 0.36619 -0.01300
H 	H 	0.74938 0.93717 0.36591 0.04200
C 	C 	0.37546 0.04118 0.33631 -0.01900
C 	C 	0.34581 0.98964 0.36565 -0.02200
H 	H 	0.36301 0.93705 0.36760 0.04200
C 	C 	0.29531 0.99528 0.39411 -0.02600
H 	H 	0.28746 0.94550 0.41020 0.04000
C 	C 	0.25553 0.05464 0.40387 -0.01600
C 	C 	0.28513 0.10619 0.37453 -0.03900
H 	H 	0.26786 0.15877 0.37254 0.03900
C 	C 	0.33564 0.10051 0.34609 -0.03500
H 	H 	0.34343 0.15027 0.32996 0.04200
C 	C 	0.68242 0.00651 0.16146 -0.02000
C 	C 	0.80234 0.99311 0.09389 0.01000
C 	C 	0.77277 0.94153 0.12324 -0.03700
H 	H 	0.79009 0.88896 0.12524 0.04300
C 	C 	0.72226 0.94720 0.15168 -0.01900
H 	H 	0.71451 0.89742 0.16781 0.04200
C 	C 	0.71207 0.05807 0.13213 -0.03100
H 	H 	0.69487 0.11065 0.13019 0.04200
C 	C 	0.76256 0.05245 0.10366 -0.04900
H 	H 	0.77042 0.10223 0.08759 0.04200
C 	C 	0.30350 0.94258 0.15133 -0.01000
H 	H 	0.32686 0.89440 0.16867 0.04000
C 	C 	0.23970 0.93628 0.12189 -0.04500
H 	H 	0.22482 0.88434 0.12160 0.04200
C 	C 	0.33794 0.00450 0.15962 -0.03600
C 	C 	0.19541 0.99043 0.09387 0.01400
C 	C 	0.22981 0.05234 0.10214 -0.05600
H 	H 	0.20639 0.10050 0.08482 0.04100
C 	C 	0.29362 0.05862 0.13158 -0.02100
H 	H 	0.30844 0.11056 0.13189 0.04000
C 	C 	0.01171 0.67725 0.83636 -0.01800
C 	C 	0.95241 0.71640 0.84659 -0.02100
H 	H 	0.90256 0.70805 0.83086 0.04200
C 	C 	0.94681 0.76682 0.87506 -0.03600
H 	H 	0.89420 0.78344 0.87348 0.04300
C 	C 	0.99847 0.79703 0.90401 0.00900
C 	C 	0.05780 0.75794 0.89379 -0.04700
H 	H 	0.10765 0.76639 0.90948 0.04200
C 	C 	0.06335 0.70752 0.86531 -0.03100
H 	H 	0.11597 0.69097 0.86686 0.04200
C 	C 	0.00977 0.33280 0.83828 -0.03400
C 	C 	0.06390 0.28872 0.86641 -0.02100
H 	H 	0.11577 0.30384 0.86615 0.04000
C 	C 	0.05768 0.22485 0.89589 -0.05400
H 	H 	0.10581 0.20165 0.91332 0.04100
C 	C 	0.99586 0.19014 0.90411 0.01200
C 	C 	0.94170 0.23421 0.87602 -0.04400
H 	H 	0.88983 0.21909 0.87629 0.04200
C 	C 	0.94794 0.29810 0.84654 -0.01200
H 	H 	0.89979 0.32130 0.82915 0.04000
