data_crystal

_cell_length_a 10.25360
_cell_length_b 19.87740
_cell_length_c 14.87630
_cell_angle_alpha 90.00000
_cell_angle_beta  90.00000
_cell_angle_gamma 90.00000

_symmetry_space_group_name_	'P 1'
_symmetry_space_group_name_H-M	'P 1'

loop_
_symmetry_equiv_pos_as_xyz
  x,y,z

loop_
_atom_site_label
_atom_site_type_symbol
_atom_site_fract_x
_atom_site_fract_y
_atom_site_fract_z
_atom_site_charge
O 	O 	0.77327 0.82123 0.67123 -0.39400
O 	O 	0.97466 0.85410 0.63369 -0.28700
N 	N 	0.63980 0.17974 0.34854 -0.17600
N 	N 	0.55867 0.19038 0.41961 -0.08100
C 	C 	0.70220 0.12233 0.36691 0.03900
H 	H 	0.76650 0.10250 0.32930 0.02600
C 	C 	0.67890 0.94659 0.60605 0.04800
H 	H 	0.62880 0.92680 0.65280 0.03000
C 	C 	0.79730 0.91759 0.58048 -0.11300
C 	C 	0.66010 0.09524 0.44922 -0.04700
C 	C 	0.56800 0.14108 0.48090 0.02800
H 	H 	0.52060 0.13800 0.53560 0.02800
C 	C 	0.70460 0.03310 0.49308 0.08400
C 	C 	0.63460 0.00407 0.56337 -0.12700
H 	H 	0.55500 0.02410 0.58230 0.07700
C 	C 	0.85410 0.85966 0.63224 0.34300
C 	C 	0.82010 0.00201 0.46500 -0.12700
H 	H 	0.86730 0.01970 0.41530 0.08300
C 	C 	0.86570 0.94549 0.50950 0.04800
H 	H 	0.94540 0.92550 0.49090 0.02900
O 	O 	0.72673 0.17877 0.17123 -0.39400
O 	O 	0.52534 0.14590 0.13369 -0.28700
N 	N 	0.86020 0.82026 0.84854 -0.17600
N 	N 	0.94133 0.80962 0.91961 -0.08100
C 	C 	0.79780 0.87767 0.86691 0.04000
H 	H 	0.73350 0.89750 0.82930 0.02600
C 	C 	0.82110 0.05341 0.10605 0.04700
H 	H 	0.87120 0.07320 0.15280 0.03000
C 	C 	0.70270 0.08241 0.08048 -0.11200
C 	C 	0.83990 0.90476 0.94922 -0.04800
C 	C 	0.93200 0.85892 0.98090 0.03000
H 	H 	0.97940 0.86200 0.03560 0.02700
C 	C 	0.79540 0.96690 0.99308 0.08400
C 	C 	0.86540 0.99593 0.06337 -0.12700
H 	H 	0.94500 0.97590 0.08230 0.07700
C 	C 	0.64590 0.14034 0.13224 0.34300
C 	C 	0.67990 0.99799 0.96500 -0.12600
H 	H 	0.63270 0.98030 0.91530 0.08300
C 	C 	0.63430 0.05451 0.00950 0.04700
H 	H 	0.55460 0.07450 0.99090 0.02900
O 	O 	0.77327 0.67877 0.67123 -0.39400
O 	O 	0.97466 0.64590 0.63369 -0.28700
N 	N 	0.63980 0.32026 0.34854 -0.17600
N 	N 	0.55867 0.30962 0.41961 -0.08100
C 	C 	0.70220 0.37767 0.36691 0.03900
H 	H 	0.76650 0.39750 0.32930 0.02600
C 	C 	0.67890 0.55341 0.60605 0.04700
H 	H 	0.62880 0.57320 0.65280 0.03100
C 	C 	0.79730 0.58241 0.58048 -0.11200
C 	C 	0.66010 0.40476 0.44922 -0.04700
C 	C 	0.56800 0.35892 0.48090 0.02800
H 	H 	0.52060 0.36200 0.53560 0.02800
C 	C 	0.70460 0.46690 0.49308 0.08300
C 	C 	0.63460 0.49593 0.56337 -0.12600
H 	H 	0.55500 0.47590 0.58230 0.07700
C 	C 	0.85410 0.64034 0.63224 0.34300
C 	C 	0.82010 0.49799 0.46500 -0.12600
H 	H 	0.86730 0.48030 0.41530 0.08300
C 	C 	0.86570 0.55451 0.50950 0.04700
H 	H 	0.94540 0.57450 0.49090 0.02900
O 	O 	0.72673 0.32123 0.17123 -0.39400
O 	O 	0.52534 0.35410 0.13369 -0.28700
N 	N 	0.86020 0.67974 0.84854 -0.17600
N 	N 	0.94133 0.69038 0.91961 -0.08100
C 	C 	0.79780 0.62233 0.86691 0.04000
H 	H 	0.73350 0.60250 0.82930 0.02600
C 	C 	0.82110 0.44659 0.10605 0.04700
H 	H 	0.87120 0.42680 0.15280 0.03000
C 	C 	0.70270 0.41759 0.08048 -0.11300
C 	C 	0.83990 0.59524 0.94922 -0.04800
C 	C 	0.93200 0.64108 0.98090 0.03000
H 	H 	0.97940 0.63800 0.03560 0.02700
C 	C 	0.79540 0.53310 0.99308 0.08500
C 	C 	0.86540 0.50407 0.06337 -0.12700
H 	H 	0.94500 0.52410 0.08230 0.07700
C 	C 	0.64590 0.35966 0.13224 0.34300
C 	C 	0.67990 0.50201 0.96500 -0.12600
H 	H 	0.63270 0.51970 0.91530 0.08300
C 	C 	0.63430 0.44549 0.00950 0.04700
H 	H 	0.55460 0.42550 0.99090 0.02900
Cu	Cu	0.68572 0.25000 0.25668 0.90300
C 	C 	0.47700 0.25000 0.42030 -0.03700
H 	H 	0.41950 0.25000 0.36680 0.05100
H 	H 	0.42140 0.25000 0.47470 0.06000
Cu	Cu	0.81428 0.75000 0.75668 0.90300
C 	C 	0.02300 0.75000 0.92030 -0.03800
H 	H 	0.08050 0.75000 0.86680 0.05100
H 	H 	0.07860 0.75000 0.97470 0.06000
O 	O 	0.22673 0.32123 0.32877 -0.39400
O 	O 	0.02534 0.35410 0.36631 -0.28700
N 	N 	0.36020 0.67974 0.65146 -0.17600
N 	N 	0.44133 0.69038 0.58039 -0.08100
C 	C 	0.29780 0.62233 0.63309 0.03900
H 	H 	0.23350 0.60250 0.67070 0.02600
C 	C 	0.32110 0.44659 0.39395 0.04700
H 	H 	0.37120 0.42680 0.34720 0.03100
C 	C 	0.20270 0.41759 0.41952 -0.11200
C 	C 	0.33990 0.59524 0.55078 -0.04700
C 	C 	0.43200 0.64108 0.51910 0.02800
H 	H 	0.47940 0.63800 0.46440 0.02800
C 	C 	0.29540 0.53310 0.50692 0.08300
C 	C 	0.36540 0.50407 0.43663 -0.12600
H 	H 	0.44500 0.52410 0.41770 0.07700
C 	C 	0.14590 0.35966 0.36776 0.34300
C 	C 	0.17990 0.50201 0.53500 -0.12600
H 	H 	0.13270 0.51970 0.58470 0.08300
C 	C 	0.13430 0.44549 0.49050 0.04700
H 	H 	0.05460 0.42550 0.50910 0.02900
O 	O 	0.27327 0.67877 0.82877 -0.39400
O 	O 	0.47466 0.64590 0.86631 -0.28700
N 	N 	0.13980 0.32026 0.15146 -0.17600
N 	N 	0.05867 0.30962 0.08039 -0.08100
C 	C 	0.20220 0.37767 0.13309 0.04000
H 	H 	0.26650 0.39750 0.17070 0.02600
C 	C 	0.17890 0.55341 0.89395 0.04700
H 	H 	0.12880 0.57320 0.84720 0.03000
C 	C 	0.29730 0.58241 0.91952 -0.11300
C 	C 	0.16010 0.40476 0.05078 -0.04800
C 	C 	0.06800 0.35892 0.01910 0.03000
H 	H 	0.02060 0.36200 0.96440 0.02700
C 	C 	0.20460 0.46690 0.00692 0.08500
C 	C 	0.13460 0.49593 0.93663 -0.12700
H 	H 	0.05500 0.47590 0.91770 0.07700
C 	C 	0.35410 0.64034 0.86776 0.34300
C 	C 	0.32010 0.49799 0.03500 -0.12600
H 	H 	0.36730 0.48030 0.08470 0.08300
C 	C 	0.36570 0.55451 0.99050 0.04700
H 	H 	0.44540 0.57450 0.00910 0.02900
O 	O 	0.22673 0.17877 0.32877 -0.39400
O 	O 	0.02534 0.14590 0.36631 -0.28700
N 	N 	0.36020 0.82026 0.65146 -0.17600
N 	N 	0.44133 0.80962 0.58039 -0.08100
C 	C 	0.29780 0.87767 0.63309 0.03900
H 	H 	0.23350 0.89750 0.67070 0.02600
C 	C 	0.32110 0.05341 0.39395 0.04800
H 	H 	0.37120 0.07320 0.34720 0.03000
C 	C 	0.20270 0.08241 0.41952 -0.11300
C 	C 	0.33990 0.90476 0.55078 -0.04700
C 	C 	0.43200 0.85892 0.51910 0.02800
H 	H 	0.47940 0.86200 0.46440 0.02800
C 	C 	0.29540 0.96690 0.50692 0.08400
C 	C 	0.36540 0.99593 0.43663 -0.12700
H 	H 	0.44500 0.97590 0.41770 0.07700
C 	C 	0.14590 0.14034 0.36776 0.34300
C 	C 	0.17990 0.99799 0.53500 -0.12700
H 	H 	0.13270 0.98030 0.58470 0.08300
C 	C 	0.13430 0.05451 0.49050 0.04800
H 	H 	0.05460 0.07450 0.50910 0.02900
O 	O 	0.27327 0.82123 0.82877 -0.39400
O 	O 	0.47466 0.85410 0.86631 -0.28700
N 	N 	0.13980 0.17974 0.15146 -0.17600
N 	N 	0.05867 0.19038 0.08039 -0.08100
C 	C 	0.20220 0.12233 0.13309 0.04000
H 	H 	0.26650 0.10250 0.17070 0.02600
C 	C 	0.17890 0.94659 0.89395 0.04700
H 	H 	0.12880 0.92680 0.84720 0.03000
C 	C 	0.29730 0.91759 0.91952 -0.11200
C 	C 	0.16010 0.09524 0.05078 -0.04800
C 	C 	0.06800 0.14108 0.01910 0.03000
H 	H 	0.02060 0.13800 0.96440 0.02700
C 	C 	0.20460 0.03310 0.00692 0.08400
C 	C 	0.13460 0.00407 0.93663 -0.12700
H 	H 	0.05500 0.02410 0.91770 0.07700
C 	C 	0.35410 0.85966 0.86776 0.34300
C 	C 	0.32010 0.00201 0.03500 -0.12600
H 	H 	0.36730 0.01970 0.08470 0.08300
C 	C 	0.36570 0.94549 0.99050 0.04700
H 	H 	0.44540 0.92550 0.00910 0.02900
Cu	Cu	0.31428 0.75000 0.74332 0.90300
C 	C 	0.52300 0.75000 0.57970 -0.03700
H 	H 	0.58050 0.75000 0.63320 0.05100
H 	H 	0.57860 0.75000 0.52530 0.06000
Cu	Cu	0.18572 0.25000 0.24332 0.90300
C 	C 	0.97700 0.25000 0.07970 -0.03800
H 	H 	0.91950 0.25000 0.13320 0.05100
H 	H 	0.92140 0.25000 0.02530 0.06000
