data_crystal

_cell_length_a 27.50900
_cell_length_b 7.63040
_cell_length_c 16.22940
_cell_angle_alpha 90.00000
_cell_angle_beta  119.06100
_cell_angle_gamma 90.00000

_symmetry_space_group_name_	'P 1'
_symmetry_space_group_name_H-M	'P 1'

loop_
_symmetry_equiv_pos_as_xyz
  x,y,z

loop_
_atom_site_label
_atom_site_type_symbol
_atom_site_fract_x
_atom_site_fract_y
_atom_site_fract_z
_atom_site_charge
Zn	Zn	0.16446 0.23195 0.15999 1.20500
N 	N 	0.10038 0.08330 0.07337 -0.26700
C 	C 	0.07597 0.08170 0.98088 0.13100
H 	H 	0.07920 0.17060 0.94460 -0.01100
N 	N 	0.04619 0.93690 0.94581 -0.21600
H 	H 	0.02700 0.91110 0.88700 0.12600
C 	C 	0.05110 0.83510 0.01956 0.06900
C 	C 	0.08486 0.92900 0.09823 -0.02700
H 	H 	0.09580 0.89410 0.15970 0.03900
C 	C 	0.02483 0.66440 0.00826 0.00100
C 	C 	0.98870 0.59550 0.92110 -0.05400
H 	H 	0.98070 0.65880 0.86700 0.04300
C 	C 	0.03590 0.56660 0.08720 -0.06000
H 	H 	0.06020 0.61030 0.14680 0.05400
O 	O 	0.16701 0.21840 0.28147 -0.46000
C 	C 	0.18295 0.08660 0.33605 0.32800
O 	O 	0.19325 0.94070 0.31560 -0.30800
C 	C 	0.18837 0.11840 0.43220 -0.02800
C 	C 	0.17456 0.27980 0.45341 -0.03400
H 	H 	0.16080 0.36730 0.40780 0.07300
C 	C 	0.18111 0.31220 0.54278 -0.01900
C 	C 	0.20122 0.17950 0.61008 -0.11900
H 	H 	0.20500 0.19920 0.66950 0.07100
C 	C 	0.21562 0.01830 0.58912 0.10100
C 	C 	0.20902 0.98690 0.50033 -0.10500
H 	H 	0.21840 0.87820 0.48610 0.08600
O 	O 	0.17634 0.51470 0.65040 -0.43300
C 	C 	0.16823 0.48940 0.56633 0.28700
O 	O 	0.15155 0.60780 0.50678 -0.32500
N 	N 	0.23402 0.88220 0.65933 -0.34900
H 	H 	0.24110 0.77920 0.64640 0.12200
H 	H 	0.23790 0.90390 0.71420 0.08100
Zn	Zn	0.83554 0.23195 0.34001 1.20500
N 	N 	0.89962 0.08330 0.42663 -0.26600
C 	C 	0.92403 0.08170 0.51912 0.12800
H 	H 	0.92080 0.17060 0.55540 -0.01100
N 	N 	0.95381 0.93690 0.55419 -0.21400
H 	H 	0.97300 0.91110 0.61300 0.12600
C 	C 	0.94890 0.83510 0.48044 0.06900
C 	C 	0.91514 0.92900 0.40177 -0.02800
H 	H 	0.90420 0.89410 0.34030 0.03900
C 	C 	0.97517 0.66440 0.49174 0.00100
C 	C 	0.01130 0.59550 0.57890 -0.05300
H 	H 	0.01930 0.65880 0.63300 0.04300
C 	C 	0.96410 0.56660 0.41280 -0.06000
H 	H 	0.93980 0.61030 0.35320 0.05400
O 	O 	0.83299 0.21840 0.21853 -0.46000
C 	C 	0.81705 0.08660 0.16395 0.32600
O 	O 	0.80675 0.94070 0.18440 -0.30700
C 	C 	0.81163 0.11840 0.06780 -0.02500
C 	C 	0.82544 0.27980 0.04659 -0.03800
H 	H 	0.83920 0.36730 0.09220 0.07500
C 	C 	0.81889 0.31220 0.95722 -0.01600
C 	C 	0.79878 0.17950 0.88992 -0.12300
H 	H 	0.79500 0.19920 0.83050 0.07200
C 	C 	0.78438 0.01830 0.91088 0.10500
C 	C 	0.79098 0.98690 0.99967 -0.11200
H 	H 	0.78160 0.87820 0.01390 0.09000
O 	O 	0.82366 0.51470 0.84960 -0.43300
C 	C 	0.83177 0.48940 0.93367 0.28600
O 	O 	0.84845 0.60780 0.99322 -0.32500
N 	N 	0.76598 0.88220 0.84067 -0.35000
H 	H 	0.75890 0.77920 0.85360 0.12200
H 	H 	0.76210 0.90390 0.78580 0.08100
Zn	Zn	0.83554 0.76805 0.84001 1.20400
N 	N 	0.89962 0.91670 0.92663 -0.26800
C 	C 	0.92403 0.91830 0.01912 0.13100
H 	H 	0.92080 0.82940 0.05540 -0.01100
N 	N 	0.95381 0.06310 0.05419 -0.21600
H 	H 	0.97300 0.08890 0.11300 0.12600
C 	C 	0.94890 0.16490 0.98044 0.06900
C 	C 	0.91514 0.07100 0.90177 -0.02700
H 	H 	0.90420 0.10590 0.84030 0.03900
C 	C 	0.97517 0.33560 0.99174 0.00100
C 	C 	0.01130 0.40450 0.07890 -0.05400
H 	H 	0.01930 0.34120 0.13300 0.04300
C 	C 	0.96410 0.43340 0.91280 -0.06000
H 	H 	0.93980 0.38970 0.85320 0.05400
O 	O 	0.83299 0.78160 0.71853 -0.46000
C 	C 	0.81705 0.91340 0.66395 0.32800
O 	O 	0.80675 0.05930 0.68440 -0.30800
C 	C 	0.81163 0.88160 0.56780 -0.02800
C 	C 	0.82544 0.72020 0.54659 -0.03400
H 	H 	0.83920 0.63270 0.59220 0.07300
C 	C 	0.81889 0.68780 0.45722 -0.01900
C 	C 	0.79878 0.82050 0.38992 -0.11900
H 	H 	0.79500 0.80080 0.33050 0.07100
C 	C 	0.78438 0.98170 0.41088 0.10100
C 	C 	0.79098 0.01310 0.49967 -0.10500
H 	H 	0.78160 0.12180 0.51390 0.08600
O 	O 	0.82366 0.48530 0.34960 -0.43300
C 	C 	0.83177 0.51060 0.43367 0.28700
O 	O 	0.84845 0.39220 0.49322 -0.32500
N 	N 	0.76598 0.11780 0.34067 -0.34900
H 	H 	0.75890 0.22080 0.35360 0.12200
H 	H 	0.76210 0.09610 0.28580 0.08100
Zn	Zn	0.16446 0.76805 0.65999 1.20500
N 	N 	0.10038 0.91670 0.57337 -0.26600
C 	C 	0.07597 0.91830 0.48088 0.12800
H 	H 	0.07920 0.82940 0.44460 -0.01100
N 	N 	0.04619 0.06310 0.44581 -0.21400
H 	H 	0.02700 0.08890 0.38700 0.12600
C 	C 	0.05110 0.16490 0.51956 0.06900
C 	C 	0.08486 0.07100 0.59823 -0.02800
H 	H 	0.09580 0.10590 0.65970 0.03900
C 	C 	0.02483 0.33560 0.50826 0.00100
C 	C 	0.98870 0.40450 0.42110 -0.05300
H 	H 	0.98070 0.34120 0.36700 0.04300
C 	C 	0.03590 0.43340 0.58720 -0.06000
H 	H 	0.06020 0.38970 0.64680 0.05400
O 	O 	0.16701 0.78160 0.78147 -0.46000
C 	C 	0.18295 0.91340 0.83605 0.32600
O 	O 	0.19325 0.05930 0.81560 -0.30700
C 	C 	0.18837 0.88160 0.93220 -0.02500
C 	C 	0.17456 0.72020 0.95341 -0.03800
H 	H 	0.16080 0.63270 0.90780 0.07500
C 	C 	0.18111 0.68780 0.04278 -0.01600
C 	C 	0.20122 0.82050 0.11008 -0.12300
H 	H 	0.20500 0.80080 0.16950 0.07200
C 	C 	0.21562 0.98170 0.08912 0.10500
C 	C 	0.20902 0.01310 0.00033 -0.11200
H 	H 	0.21840 0.12180 0.98610 0.09000
O 	O 	0.17634 0.48530 0.15040 -0.43300
C 	C 	0.16823 0.51060 0.06633 0.28600
O 	O 	0.15155 0.39220 0.00678 -0.32500
N 	N 	0.23402 0.11780 0.15933 -0.35000
H 	H 	0.24110 0.22080 0.14640 0.12200
H 	H 	0.23790 0.09610 0.21420 0.08100
Zn	Zn	0.66446 0.73195 0.15999 1.20500
N 	N 	0.60038 0.58330 0.07337 -0.26600
C 	C 	0.57597 0.58170 0.98088 0.12800
H 	H 	0.57920 0.67060 0.94460 -0.01100
N 	N 	0.54619 0.43690 0.94581 -0.21400
H 	H 	0.52700 0.41110 0.88700 0.12600
C 	C 	0.55110 0.33510 0.01956 0.06900
C 	C 	0.58486 0.42900 0.09823 -0.02900
H 	H 	0.59580 0.39410 0.15970 0.03900
C 	C 	0.52483 0.16440 0.00826 -0.00100
C 	C 	0.48870 0.09550 0.92110 -0.05000
H 	H 	0.48070 0.15880 0.86700 0.04200
C 	C 	0.53590 0.06660 0.08720 -0.06200
H 	H 	0.56020 0.11030 0.14680 0.05400
O 	O 	0.66701 0.71840 0.28147 -0.46100
C 	C 	0.68295 0.58660 0.33605 0.32900
O 	O 	0.69325 0.44070 0.31560 -0.30900
C 	C 	0.68837 0.61840 0.43220 -0.02800
C 	C 	0.67456 0.77980 0.45341 -0.03500
H 	H 	0.66080 0.86730 0.40780 0.07400
C 	C 	0.68111 0.81220 0.54278 -0.01800
C 	C 	0.70122 0.67950 0.61008 -0.12000
H 	H 	0.70500 0.69920 0.66950 0.07100
C 	C 	0.71562 0.51830 0.58912 0.10100
C 	C 	0.70902 0.48690 0.50033 -0.10600
H 	H 	0.71840 0.37820 0.48610 0.08700
O 	O 	0.67634 0.01470 0.65040 -0.43200
C 	C 	0.66823 0.98940 0.56633 0.28500
O 	O 	0.65155 0.10780 0.50678 -0.32400
N 	N 	0.73402 0.38220 0.65933 -0.34900
H 	H 	0.74110 0.27920 0.64640 0.12200
H 	H 	0.73790 0.40390 0.71420 0.08100
Zn	Zn	0.33554 0.73195 0.34001 1.20500
N 	N 	0.39962 0.58330 0.42663 -0.26600
C 	C 	0.42403 0.58170 0.51912 0.12800
H 	H 	0.42080 0.67060 0.55540 -0.01100
N 	N 	0.45381 0.43690 0.55419 -0.21400
H 	H 	0.47300 0.41110 0.61300 0.12600
C 	C 	0.44890 0.33510 0.48044 0.06900
C 	C 	0.41514 0.42900 0.40177 -0.02800
H 	H 	0.40420 0.39410 0.34030 0.03900
C 	C 	0.47517 0.16440 0.49174 0.00100
C 	C 	0.51130 0.09550 0.57890 -0.05300
H 	H 	0.51930 0.15880 0.63300 0.04300
C 	C 	0.46410 0.06660 0.41280 -0.06000
H 	H 	0.43980 0.11030 0.35320 0.05400
O 	O 	0.33299 0.71840 0.21853 -0.46100
C 	C 	0.31705 0.58660 0.16395 0.32900
O 	O 	0.30675 0.44070 0.18440 -0.30900
C 	C 	0.31163 0.61840 0.06780 -0.02800
C 	C 	0.32544 0.77980 0.04659 -0.03400
H 	H 	0.33920 0.86730 0.09220 0.07300
C 	C 	0.31889 0.81220 0.95722 -0.01900
C 	C 	0.29878 0.67950 0.88992 -0.12000
H 	H 	0.29500 0.69920 0.83050 0.07100
C 	C 	0.28438 0.51830 0.91088 0.10100
C 	C 	0.29098 0.48690 0.99967 -0.10500
H 	H 	0.28160 0.37820 0.01390 0.08600
O 	O 	0.32366 0.01470 0.84960 -0.43100
C 	C 	0.33177 0.98940 0.93367 0.28300
O 	O 	0.34845 0.10780 0.99322 -0.32300
N 	N 	0.26598 0.38220 0.84067 -0.34900
H 	H 	0.25890 0.27920 0.85360 0.12200
H 	H 	0.26210 0.40390 0.78580 0.08100
Zn	Zn	0.33554 0.26805 0.84001 1.20500
N 	N 	0.39962 0.41670 0.92663 -0.26600
C 	C 	0.42403 0.41830 0.01912 0.12800
H 	H 	0.42080 0.32940 0.05540 -0.01100
N 	N 	0.45381 0.56310 0.05419 -0.21400
H 	H 	0.47300 0.58890 0.11300 0.12600
C 	C 	0.44890 0.66490 0.98044 0.06900
C 	C 	0.41514 0.57100 0.90177 -0.02900
H 	H 	0.40420 0.60590 0.84030 0.03900
C 	C 	0.47517 0.83560 0.99174 -0.00100
C 	C 	0.51130 0.90450 0.07890 -0.05000
H 	H 	0.51930 0.84120 0.13300 0.04200
C 	C 	0.46410 0.93340 0.91280 -0.06200
H 	H 	0.43980 0.88970 0.85320 0.05400
O 	O 	0.33299 0.28160 0.71853 -0.46100
C 	C 	0.31705 0.41340 0.66395 0.32900
O 	O 	0.30675 0.55930 0.68440 -0.30900
C 	C 	0.31163 0.38160 0.56780 -0.02800
C 	C 	0.32544 0.22020 0.54659 -0.03500
H 	H 	0.33920 0.13270 0.59220 0.07400
C 	C 	0.31889 0.18780 0.45722 -0.01800
C 	C 	0.29878 0.32050 0.38992 -0.12000
H 	H 	0.29500 0.30080 0.33050 0.07100
C 	C 	0.28438 0.48170 0.41088 0.10100
C 	C 	0.29098 0.51310 0.49967 -0.10600
H 	H 	0.28160 0.62180 0.51390 0.08700
O 	O 	0.32366 0.98530 0.34960 -0.43200
C 	C 	0.33177 0.01060 0.43367 0.28500
O 	O 	0.34845 0.89220 0.49322 -0.32400
N 	N 	0.26598 0.61780 0.34067 -0.34900
H 	H 	0.25890 0.72080 0.35360 0.12200
H 	H 	0.26210 0.59610 0.28580 0.08100
Zn	Zn	0.66446 0.26805 0.65999 1.20500
N 	N 	0.60038 0.41670 0.57337 -0.26600
C 	C 	0.57597 0.41830 0.48088 0.12800
H 	H 	0.57920 0.32940 0.44460 -0.01100
N 	N 	0.54619 0.56310 0.44581 -0.21400
H 	H 	0.52700 0.58890 0.38700 0.12600
C 	C 	0.55110 0.66490 0.51956 0.06900
C 	C 	0.58486 0.57100 0.59823 -0.02800
H 	H 	0.59580 0.60590 0.65970 0.03900
C 	C 	0.52483 0.83560 0.50826 0.00100
C 	C 	0.48870 0.90450 0.42110 -0.05300
H 	H 	0.48070 0.84120 0.36700 0.04300
C 	C 	0.53590 0.93340 0.58720 -0.06000
H 	H 	0.56020 0.88970 0.64680 0.05400
O 	O 	0.66701 0.28160 0.78147 -0.46100
C 	C 	0.68295 0.41340 0.83605 0.32900
O 	O 	0.69325 0.55930 0.81560 -0.30900
C 	C 	0.68837 0.38160 0.93220 -0.02800
C 	C 	0.67456 0.22020 0.95341 -0.03400
H 	H 	0.66080 0.13270 0.90780 0.07300
C 	C 	0.68111 0.18780 0.04278 -0.01900
C 	C 	0.70122 0.32050 0.11008 -0.12000
H 	H 	0.70500 0.30080 0.16950 0.07100
C 	C 	0.71562 0.48170 0.08912 0.10100
C 	C 	0.70902 0.51310 0.00033 -0.10500
H 	H 	0.71840 0.62180 0.98610 0.08600
O 	O 	0.67634 0.98530 0.15040 -0.43100
C 	C 	0.66823 0.01060 0.06633 0.28300
O 	O 	0.65155 0.89220 0.00678 -0.32300
N 	N 	0.73402 0.61780 0.15933 -0.34900
H 	H 	0.74110 0.72080 0.14640 0.12200
H 	H 	0.73790 0.59610 0.21420 0.08100
