data_crystal

_cell_length_a 14.89030
_cell_length_b 13.16780
_cell_length_c 12.98520
_cell_angle_alpha 90.00000
_cell_angle_beta  105.66400
_cell_angle_gamma 90.00000

_symmetry_space_group_name_	'P 1'
_symmetry_space_group_name_H-M	'P 1'

loop_
_symmetry_equiv_pos_as_xyz
  x,y,z

loop_
_atom_site_label
_atom_site_type_symbol
_atom_site_fract_x
_atom_site_fract_y
_atom_site_fract_z
_atom_site_charge
Y 	Y 	0.27100 0.43509 0.19229 2.39400
Y 	Y 	0.72899 0.56492 0.80771 2.39400
Y 	Y 	0.74160 0.43142 0.31202 2.39600
Y 	Y 	0.25840 0.56858 0.68799 2.39600
Y 	Y 	0.75840 0.93143 0.18799 2.39500
Y 	Y 	0.24160 0.06858 0.81202 2.39500
Y 	Y 	0.22900 0.93509 0.30771 2.39400
Y 	Y 	0.77100 0.06492 0.69229 2.39400
O 	O 	0.12099 0.46055 0.23428 -0.40700
O 	O 	0.87901 0.53946 0.76573 -0.40700
O 	O 	0.88877 0.44224 0.26836 -0.41700
O 	O 	0.11123 0.55776 0.73164 -0.41700
O 	O 	0.61122 0.94224 0.23164 -0.41300
O 	O 	0.38878 0.05776 0.76837 -0.41300
O 	O 	0.37901 0.96055 0.26573 -0.41100
O 	O 	0.62099 0.03945 0.73428 -0.41100
O 	O 	0.12023 0.44705 0.06262 -0.43700
O 	O 	0.87977 0.55295 0.93738 -0.43700
O 	O 	0.88639 0.50344 0.42781 -0.40400
O 	O 	0.11361 0.49656 0.57219 -0.40400
O 	O 	0.61361 0.00344 0.07219 -0.38900
O 	O 	0.38639 0.99656 0.92781 -0.38900
O 	O 	0.37977 0.94706 0.43738 -0.43700
O 	O 	0.62023 0.05294 0.56263 -0.43700
O 	O 	0.29456 0.30958 0.07329 -0.51200
O 	O 	0.70544 0.69042 0.92672 -0.51200
O 	O 	0.20544 0.80958 0.42672 -0.51800
O 	O 	0.79456 0.19042 0.57329 -0.51800
O 	O 	0.27960 0.18028 0.95728 -0.52300
O 	O 	0.72040 0.81972 0.04272 -0.52300
O 	O 	0.22040 0.68028 0.54273 -0.51900
O 	O 	0.77960 0.31972 0.45728 -0.51900
O 	O 	0.31694 0.44956 0.38273 -0.45900
O 	O 	0.68306 0.55044 0.61727 -0.45900
O 	O 	0.68445 0.44300 0.12062 -0.44800
O 	O 	0.31555 0.55700 0.87938 -0.44800
O 	O 	0.81555 0.94300 0.37938 -0.44900
O 	O 	0.18445 0.05700 0.62062 -0.44900
O 	O 	0.18306 0.94956 0.11727 -0.45400
O 	O 	0.81694 0.05044 0.88273 -0.45400
O 	O 	0.31640 0.48123 0.55239 -0.43000
O 	O 	0.68360 0.51877 0.44761 -0.43000
O 	O 	0.68191 0.47576 0.95012 -0.43000
O 	O 	0.31809 0.52424 0.04988 -0.43000
O 	O 	0.81809 0.97576 0.54988 -0.42600
O 	O 	0.18191 0.02424 0.45012 -0.42600
O 	O 	0.18360 0.98123 0.94761 -0.41200
O 	O 	0.81640 0.01877 0.05239 -0.41200
O 	O 	0.24752 0.27594 0.26063 -0.50700
O 	O 	0.75248 0.72406 0.73938 -0.50800
O 	O 	0.75626 0.27067 0.24135 -0.50000
O 	O 	0.24374 0.72934 0.75866 -0.50000
O 	O 	0.74373 0.77067 0.25865 -0.50200
O 	O 	0.25627 0.22933 0.74135 -0.50200
O 	O 	0.25248 0.77594 0.23938 -0.50900
O 	O 	0.74752 0.22406 0.76063 -0.50900
O 	O 	0.23264 0.10877 0.28219 -0.51300
O 	O 	0.76736 0.89123 0.71782 -0.51300
O 	O 	0.76770 0.10203 0.22903 -0.51700
O 	O 	0.23230 0.89797 0.77097 -0.51600
O 	O 	0.73230 0.60203 0.27097 -0.51900
O 	O 	0.26770 0.39797 0.72903 -0.51900
O 	O 	0.26736 0.60877 0.21781 -0.51600
O 	O 	0.73265 0.39123 0.78219 -0.51600
O 	O 	0.43505 0.43394 0.24291 -0.50000
O 	O 	0.56495 0.56606 0.75709 -0.50000
O 	O 	0.58575 0.38689 0.27784 -0.52600
O 	O 	0.41425 0.61311 0.72217 -0.52600
O 	O 	0.91425 0.88689 0.22216 -0.52900
O 	O 	0.08575 0.11311 0.77784 -0.52900
O 	O 	0.06496 0.93394 0.25709 -0.50200
O 	O 	0.93504 0.06606 0.74291 -0.50200
C 	C 	0.07891 0.46587 0.13544 0.25600
C 	C 	0.92109 0.53413 0.86456 0.25600
C 	C 	0.92892 0.48627 0.35691 0.25800
C 	C 	0.07108 0.51373 0.64309 0.25800
C 	C 	0.57107 0.98627 0.14309 0.23100
C 	C 	0.42893 0.01373 0.85692 0.23100
C 	C 	0.42110 0.96587 0.36456 0.25700
C 	C 	0.57890 0.03413 0.63544 0.25700
C 	C 	0.24902 0.25813 0.99409 0.44100
C 	C 	0.75097 0.74187 0.00591 0.44100
C 	C 	0.74903 0.24187 0.49409 0.44800
C 	C 	0.25097 0.75813 0.50591 0.44800
C 	C 	0.27896 0.48488 0.45137 0.39100
C 	C 	0.72104 0.51512 0.54863 0.39100
C 	C 	0.71997 0.48007 0.05091 0.39300
C 	C 	0.28004 0.51993 0.94910 0.39400
C 	C 	0.78004 0.98007 0.44909 0.39000
C 	C 	0.21997 0.01993 0.55091 0.38900
C 	C 	0.22104 0.98488 0.04863 0.36000
C 	C 	0.77896 0.01512 0.95137 0.36100
C 	C 	0.27668 0.18526 0.26250 0.45900
C 	C 	0.72332 0.81474 0.73750 0.45900
C 	C 	0.72275 0.18205 0.23616 0.46300
C 	C 	0.27725 0.81795 0.76384 0.46300
C 	C 	0.77724 0.68205 0.26384 0.46400
C 	C 	0.22276 0.31795 0.73617 0.46400
C 	C 	0.22332 0.68526 0.23750 0.45800
C 	C 	0.77668 0.31474 0.76251 0.45900
C 	C 	0.49929 0.36860 0.25202 0.47500
C 	C 	0.50071 0.63140 0.74798 0.47500
C 	C 	0.00071 0.86860 0.24798 0.47600
C 	C 	0.99929 0.13140 0.75202 0.47600
H 	H 	0.00406 0.48821 0.11056 0.02000
H 	H 	0.99594 0.51179 0.88945 0.02000
H 	H 	0.00308 0.50955 0.37176 0.02600
H 	H 	0.99692 0.49045 0.62824 0.02600
H 	H 	0.49692 0.00955 0.12824 0.03800
H 	H 	0.50308 0.99045 0.87176 0.03800
H 	H 	0.49594 0.98821 0.38944 0.01900
H 	H 	0.50406 0.01179 0.61056 0.01900
H 	H 	0.17654 0.28368 0.95381 -0.08600
H 	H 	0.82346 0.71632 0.04619 -0.08600
H 	H 	0.32346 0.78368 0.54619 -0.08600
H 	H 	0.67654 0.21632 0.45381 -0.08600
H 	H 	0.20954 0.52120 0.42368 -0.05800
H 	H 	0.79046 0.47881 0.57632 -0.05800
H 	H 	0.78890 0.51803 0.07763 -0.07200
H 	H 	0.21110 0.48197 0.92237 -0.07200
H 	H 	0.71110 0.01803 0.42237 -0.06900
H 	H 	0.28890 0.98197 0.57763 -0.06900
H 	H 	0.29046 0.02119 0.07632 -0.04500
H 	H 	0.70954 0.97881 0.92368 -0.04500
H 	H 	0.34541 0.17161 0.24635 -0.07300
H 	H 	0.65459 0.82839 0.75365 -0.07300
H 	H 	0.64862 0.17364 0.23792 -0.07800
H 	H 	0.35138 0.82636 0.76208 -0.07800
H 	H 	0.85138 0.67364 0.26208 -0.07900
H 	H 	0.14862 0.32636 0.73792 -0.07900
H 	H 	0.15459 0.67161 0.25365 -0.07500
H 	H 	0.84541 0.32839 0.74635 -0.07500
H 	H 	0.47749 0.28779 0.23577 -0.07300
H 	H 	0.52251 0.71221 0.76424 -0.07300
H 	H 	0.02251 0.78779 0.26423 -0.07400
H 	H 	0.97750 0.21221 0.73577 -0.07400
