data_crystal

_cell_length_a 17.82040
_cell_length_b 9.97530
_cell_length_c 15.64870
_cell_angle_alpha 90.00000
_cell_angle_beta  90.00000
_cell_angle_gamma 90.00000

_symmetry_space_group_name_	'P 1'
_symmetry_space_group_name_H-M	'P 1'

loop_
_symmetry_equiv_pos_as_xyz
  x,y,z

loop_
_atom_site_label
_atom_site_type_symbol
_atom_site_fract_x
_atom_site_fract_y
_atom_site_fract_z
_atom_site_charge
Mg	Mg	0.89155 0.32544 0.14500 1.45400
Mg	Mg	0.61029 0.32836 0.64168 1.45300
O 	O 	0.81842 0.20934 0.21257 -0.54300
O 	O 	0.75883 0.35323 0.30015 -0.33100
C 	C 	0.76228 0.24990 0.25513 0.39200
C 	C 	0.69243 0.16260 0.24721 -0.28000
H 	H 	0.67360 0.16550 0.18770 0.11700
H 	H 	0.70520 0.06850 0.26110 0.13600
O 	O 	0.60710 0.20900 0.53568 -0.54100
O 	O 	0.57347 0.35482 0.43319 -0.33800
C 	C 	0.60382 0.24950 0.45962 0.39800
C 	C 	0.64233 0.15880 0.39512 -0.28300
H 	H 	0.69640 0.15240 0.40890 0.12100
H 	H 	0.62060 0.06760 0.39860 0.14100
O 	O 	0.47607 0.30606 0.17318 -0.55300
O 	O 	0.58678 0.39565 0.20346 -0.31400
C 	C 	0.53873 0.30760 0.21077 0.41800
C 	C 	0.55538 0.19200 0.27208 -0.30300
H 	H 	0.51840 0.19130 0.31930 0.11300
H 	H 	0.55210 0.10530 0.24150 0.11200
N 	N 	0.63297 0.21180 0.30672 -0.05700
H 	H 	0.63900 0.30100 0.30600 0.12800
O 	O 	0.53871 0.19422 0.69850 -0.54600
O 	O 	0.42305 0.11161 0.71315 -0.31100
C 	C 	0.47171 0.19820 0.72570 0.40100
C 	C 	0.45049 0.31830 0.78056 -0.29400
H 	H 	0.48310 0.32270 0.83170 0.11500
H 	H 	0.45680 0.40230 0.74760 0.10500
O 	O 	0.19727 0.28767 0.68736 -0.53800
O 	O 	0.24558 0.16330 0.79350 -0.33200
C 	C 	0.24719 0.25850 0.74132 0.40300
C 	C 	0.31599 0.34800 0.74014 -0.28000
H 	H 	0.34000 0.34440 0.68310 0.12200
H 	H 	0.30110 0.44200 0.75160 0.13900
O 	O 	0.37208 0.29129 0.03755 -0.51500
O 	O 	0.41227 0.15137 0.93455 -0.33500
C 	C 	0.38190 0.25690 0.96056 0.37500
C 	C 	0.35294 0.35450 0.89359 -0.27200
H 	H 	0.29810 0.36610 0.90010 0.11900
H 	H 	0.37710 0.44300 0.90140 0.13200
N 	N 	0.37010 0.30170 0.80682 -0.06400
H 	H 	0.36700 0.21400 0.81100 0.13700
Mg	Mg	0.39155 0.17456 0.14500 1.45300
Mg	Mg	0.11029 0.17164 0.64168 1.45300
O 	O 	0.31842 0.29066 0.21257 -0.54300
O 	O 	0.25883 0.14677 0.30015 -0.33100
C 	C 	0.26228 0.25010 0.25513 0.39200
C 	C 	0.19243 0.33740 0.24721 -0.28000
H 	H 	0.17360 0.33450 0.18770 0.11700
H 	H 	0.20520 0.43150 0.26110 0.13600
O 	O 	0.10710 0.29100 0.53568 -0.54100
O 	O 	0.07347 0.14518 0.43319 -0.33800
C 	C 	0.10382 0.25050 0.45962 0.39800
C 	C 	0.14233 0.34120 0.39512 -0.28300
H 	H 	0.19640 0.34760 0.40890 0.12100
H 	H 	0.12060 0.43240 0.39860 0.14000
O 	O 	0.97607 0.19394 0.17318 -0.55200
O 	O 	0.08678 0.10435 0.20346 -0.31500
C 	C 	0.03873 0.19240 0.21077 0.41600
C 	C 	0.05538 0.30800 0.27208 -0.30200
H 	H 	0.01840 0.30870 0.31930 0.11300
H 	H 	0.05210 0.39470 0.24150 0.11200
N 	N 	0.13297 0.28820 0.30672 -0.05800
H 	H 	0.13900 0.19900 0.30600 0.12800
O 	O 	0.03871 0.30578 0.69850 -0.54700
O 	O 	0.92305 0.38839 0.71315 -0.31100
C 	C 	0.97171 0.30180 0.72570 0.40200
C 	C 	0.95049 0.18170 0.78056 -0.29500
H 	H 	0.98310 0.17730 0.83170 0.11500
H 	H 	0.95680 0.09770 0.74760 0.10500
O 	O 	0.69727 0.21233 0.68736 -0.53700
O 	O 	0.74558 0.33670 0.79350 -0.33200
C 	C 	0.74719 0.24150 0.74132 0.40300
C 	C 	0.81599 0.15200 0.74014 -0.28000
H 	H 	0.84000 0.15560 0.68310 0.12200
H 	H 	0.80110 0.05800 0.75160 0.13900
O 	O 	0.87208 0.20871 0.03755 -0.51400
O 	O 	0.91227 0.34863 0.93455 -0.33400
C 	C 	0.88190 0.24310 0.96056 0.37400
C 	C 	0.85294 0.14550 0.89359 -0.27200
H 	H 	0.79810 0.13390 0.90010 0.11900
H 	H 	0.87710 0.05700 0.90140 0.13300
N 	N 	0.87010 0.19830 0.80682 -0.06400
H 	H 	0.86700 0.28600 0.81100 0.13700
Mg	Mg	0.10845 0.67456 0.64500 1.45300
Mg	Mg	0.38971 0.67164 0.14168 1.45300
O 	O 	0.18158 0.79066 0.71257 -0.54400
O 	O 	0.24117 0.64677 0.80015 -0.33300
C 	C 	0.23772 0.75010 0.75513 0.39100
C 	C 	0.30757 0.83740 0.74721 -0.27900
H 	H 	0.32640 0.83450 0.68770 0.11500
H 	H 	0.29480 0.93150 0.76110 0.13500
O 	O 	0.39290 0.79100 0.03568 -0.52200
O 	O 	0.42653 0.64518 0.93319 -0.33600
C 	C 	0.39618 0.75050 0.95962 0.37500
C 	C 	0.35767 0.84120 0.89512 -0.27200
H 	H 	0.30360 0.84760 0.90890 0.11500
H 	H 	0.37940 0.93240 0.89860 0.13500
O 	O 	0.52393 0.69394 0.67318 -0.55600
O 	O 	0.41322 0.60435 0.70346 -0.31600
C 	C 	0.46127 0.69240 0.71077 0.41700
C 	C 	0.44462 0.80800 0.77208 -0.30200
H 	H 	0.48160 0.80870 0.81930 0.11200
H 	H 	0.44790 0.89470 0.74150 0.11100
N 	N 	0.36703 0.78820 0.80672 -0.05900
H 	H 	0.36100 0.69900 0.80600 0.12900
O 	O 	0.46129 0.80578 0.19850 -0.54500
O 	O 	0.57695 0.88839 0.21315 -0.31000
C 	C 	0.52829 0.80180 0.22570 0.40300
C 	C 	0.54951 0.68170 0.28056 -0.29600
H 	H 	0.51690 0.67730 0.33170 0.11700
H 	H 	0.54320 0.59770 0.24760 0.10600
O 	O 	0.80273 0.71233 0.18736 -0.53500
O 	O 	0.75442 0.83670 0.29350 -0.33000
C 	C 	0.75281 0.74150 0.24132 0.40400
C 	C 	0.68401 0.65200 0.24014 -0.28100
H 	H 	0.66000 0.65560 0.18310 0.12400
H 	H 	0.69890 0.55800 0.25160 0.14000
O 	O 	0.62792 0.70871 0.53755 -0.53400
O 	O 	0.58773 0.84863 0.43455 -0.33600
C 	C 	0.61810 0.74310 0.46056 0.39800
C 	C 	0.64706 0.64550 0.39359 -0.28200
H 	H 	0.70190 0.63390 0.40010 0.12500
H 	H 	0.62290 0.55700 0.40140 0.13800
N 	N 	0.62990 0.69830 0.30682 -0.06300
H 	H 	0.63300 0.78600 0.31100 0.13700
Mg	Mg	0.60845 0.82544 0.64500 1.45300
Mg	Mg	0.88971 0.82836 0.14168 1.45300
O 	O 	0.68158 0.70934 0.71257 -0.54500
O 	O 	0.74117 0.85323 0.80015 -0.33300
C 	C 	0.73772 0.74990 0.75513 0.39100
C 	C 	0.80757 0.66260 0.74721 -0.27800
H 	H 	0.82640 0.66550 0.68770 0.11500
H 	H 	0.79480 0.56850 0.76110 0.13400
O 	O 	0.89290 0.70900 0.03568 -0.52200
O 	O 	0.92653 0.85482 0.93319 -0.33600
C 	C 	0.89618 0.74950 0.95962 0.37400
C 	C 	0.85767 0.65880 0.89512 -0.27100
H 	H 	0.80360 0.65240 0.90890 0.11400
H 	H 	0.87940 0.56760 0.89860 0.13500
O 	O 	0.02393 0.80606 0.67318 -0.55500
O 	O 	0.91322 0.89565 0.70346 -0.31600
C 	C 	0.96127 0.80760 0.71077 0.41600
C 	C 	0.94462 0.69200 0.77208 -0.30200
H 	H 	0.98160 0.69130 0.81930 0.11100
H 	H 	0.94790 0.60530 0.74150 0.11100
N 	N 	0.86703 0.71180 0.80672 -0.05900
H 	H 	0.86100 0.80100 0.80600 0.12800
O 	O 	0.96129 0.69422 0.19850 -0.54400
O 	O 	0.07695 0.61161 0.21315 -0.30900
C 	C 	0.02829 0.69820 0.22570 0.40200
C 	C 	0.04951 0.81830 0.28056 -0.29600
H 	H 	0.01690 0.82270 0.33170 0.11700
H 	H 	0.04320 0.90230 0.24760 0.10600
O 	O 	0.30273 0.78767 0.18736 -0.53500
O 	O 	0.25442 0.66330 0.29350 -0.33000
C 	C 	0.25281 0.75850 0.24132 0.40400
C 	C 	0.18401 0.84800 0.24014 -0.28100
H 	H 	0.16000 0.84440 0.18310 0.12400
H 	H 	0.19890 0.94200 0.25160 0.14000
O 	O 	0.12792 0.79129 0.53755 -0.53400
O 	O 	0.08773 0.65137 0.43455 -0.33600
C 	C 	0.11810 0.75690 0.46056 0.39800
C 	C 	0.14706 0.85450 0.39359 -0.28300
H 	H 	0.20190 0.86610 0.40010 0.12500
H 	H 	0.12290 0.94300 0.40140 0.13800
N 	N 	0.12990 0.80170 0.30682 -0.06300
H 	H 	0.13300 0.71400 0.31100 0.13700
