data_crystal

_cell_length_a 24.22600
_cell_length_b 20.49500
_cell_length_c 12.76860
_cell_angle_alpha 90.00000
_cell_angle_beta  90.00000
_cell_angle_gamma 90.00000

_symmetry_space_group_name_	'P 1'
_symmetry_space_group_name_H-M	'P 1'

loop_
_symmetry_equiv_pos_as_xyz
  x,y,z

loop_
_atom_site_label
_atom_site_type_symbol
_atom_site_fract_x
_atom_site_fract_y
_atom_site_fract_z
_atom_site_charge
O 	O 	0.20426 0.05630 0.10357 -0.38200
O 	O 	0.18925 0.11587 0.24124 -0.38900
N 	N 	0.19663 0.97498 0.32041 -0.24900
N 	N 	0.12672 0.90783 0.35680 -0.08400
N 	N 	0.16793 0.89981 0.42927 -0.07500
C 	C 	0.14560 0.95498 0.28970 0.08600
H 	H 	0.12650 0.97090 0.23190 0.00800
C 	C 	0.20849 0.94065 0.40357 0.08400
H 	H 	0.24140 0.94430 0.44050 0.01300
C 	C 	0.16826 0.85352 0.51625 -0.14900
H 	H 	0.13210 0.83340 0.52140 0.10300
H 	H 	0.17480 0.87720 0.58080 0.09200
C 	C 	0.21106 0.80055 0.50611 0.08000
C 	C 	0.23354 0.78172 0.41062 -0.06400
H 	H 	0.22280 0.80320 0.34970 0.06300
C 	C 	0.22851 0.76831 0.59501 -0.08300
H 	H 	0.21440 0.78050 0.65990 0.07400
C 	C 	0.17963 0.10162 0.14747 0.31800
C 	C 	0.13727 0.14164 0.08974 -0.08600
C 	C 	0.12349 0.12655 0.98772 0.01800
H 	H 	0.14150 0.09300 0.95250 0.04200
C 	C 	0.08189 0.16255 0.93800 -0.07600
H 	H 	0.07150 0.15270 0.86970 0.07500
C 	C 	0.05670 0.21235 0.99120 0.01000
C 	C 	0.07105 0.22826 0.09150 -0.07900
H 	H 	0.05370 0.26260 0.12600 0.08600
C 	C 	0.11183 0.19234 0.14060 0.02400
H 	H 	0.12210 0.20270 0.20880 0.04500
O 	O 	0.79574 0.44370 0.60357 -0.38000
O 	O 	0.81075 0.38413 0.74124 -0.38800
N 	N 	0.80337 0.52502 0.82041 -0.24800
N 	N 	0.87328 0.59217 0.85680 -0.08500
N 	N 	0.83207 0.60019 0.92927 -0.07500
C 	C 	0.85440 0.54502 0.78970 0.08600
H 	H 	0.87350 0.52910 0.73190 0.00500
C 	C 	0.79151 0.55935 0.90357 0.08400
H 	H 	0.75860 0.55570 0.94050 0.01300
C 	C 	0.83174 0.64648 0.01625 -0.14900
H 	H 	0.86790 0.66660 0.02140 0.10100
H 	H 	0.82520 0.62280 0.08080 0.09100
C 	C 	0.78894 0.69945 0.00611 0.08100
C 	C 	0.76646 0.71828 0.91062 -0.06500
H 	H 	0.77720 0.69680 0.84970 0.06400
C 	C 	0.77149 0.73169 0.09501 -0.08400
H 	H 	0.78560 0.71950 0.15990 0.07400
C 	C 	0.82037 0.39838 0.64747 0.31500
C 	C 	0.86273 0.35836 0.58974 -0.07800
C 	C 	0.87651 0.37345 0.48772 0.00600
H 	H 	0.85850 0.40700 0.45250 0.04400
C 	C 	0.91811 0.33745 0.43800 -0.06500
H 	H 	0.92850 0.34730 0.36970 0.06700
C 	C 	0.94330 0.28765 0.49120 -0.00900
C 	C 	0.92895 0.27174 0.59150 -0.06800
H 	H 	0.94630 0.23740 0.62600 0.07600
C 	C 	0.88817 0.30766 0.64060 0.01300
H 	H 	0.87790 0.29730 0.70880 0.04700
O 	O 	0.29574 0.05630 0.39643 -0.38000
O 	O 	0.31075 0.11587 0.25876 -0.38800
N 	N 	0.30337 0.97498 0.17959 -0.24800
N 	N 	0.37328 0.90783 0.14320 -0.08400
N 	N 	0.33207 0.89981 0.07073 -0.07400
C 	C 	0.35440 0.95498 0.21030 0.08700
H 	H 	0.37350 0.97090 0.26810 0.00700
C 	C 	0.29151 0.94065 0.09643 0.08400
H 	H 	0.25860 0.94430 0.05950 0.01300
C 	C 	0.33174 0.85352 0.98375 -0.14900
H 	H 	0.36790 0.83340 0.97860 0.10200
H 	H 	0.32520 0.87720 0.91920 0.09200
C 	C 	0.28894 0.80055 0.99389 0.07700
C 	C 	0.26646 0.78172 0.08938 -0.06100
H 	H 	0.27720 0.80320 0.15030 0.06200
C 	C 	0.27149 0.76831 0.90499 -0.08100
H 	H 	0.28560 0.78050 0.84010 0.07300
C 	C 	0.32037 0.10162 0.35253 0.31800
C 	C 	0.36273 0.14164 0.41026 -0.08400
C 	C 	0.37651 0.12655 0.51228 0.01500
H 	H 	0.35850 0.09300 0.54750 0.04200
C 	C 	0.41811 0.16255 0.56200 -0.07600
H 	H 	0.42850 0.15270 0.63030 0.07400
C 	C 	0.44330 0.21235 0.50880 0.00900
C 	C 	0.42895 0.22826 0.40850 -0.07800
H 	H 	0.44630 0.26260 0.37400 0.08400
C 	C 	0.38817 0.19234 0.35940 0.02200
H 	H 	0.37790 0.20270 0.29120 0.04500
O 	O 	0.70426 0.44370 0.89643 -0.38000
O 	O 	0.68925 0.38413 0.75876 -0.38800
N 	N 	0.69663 0.52502 0.67959 -0.24800
N 	N 	0.62672 0.59217 0.64320 -0.08400
N 	N 	0.66793 0.60019 0.57073 -0.07400
C 	C 	0.64560 0.54502 0.71030 0.08700
H 	H 	0.62650 0.52910 0.76810 0.00700
C 	C 	0.70849 0.55935 0.59643 0.08400
H 	H 	0.74140 0.55570 0.55950 0.01300
C 	C 	0.66826 0.64648 0.48375 -0.14900
H 	H 	0.63210 0.66660 0.47860 0.10200
H 	H 	0.67480 0.62280 0.41920 0.09200
C 	C 	0.71106 0.69945 0.49389 0.08000
C 	C 	0.73354 0.71828 0.58938 -0.06400
H 	H 	0.72280 0.69680 0.65030 0.06300
C 	C 	0.72851 0.73169 0.40499 -0.08300
H 	H 	0.71440 0.71950 0.34010 0.07400
C 	C 	0.67963 0.39838 0.85253 0.31700
C 	C 	0.63727 0.35836 0.91026 -0.08200
C 	C 	0.62349 0.37345 0.01228 0.01300
H 	H 	0.64150 0.40700 0.04750 0.04200
C 	C 	0.58189 0.33745 0.06200 -0.07400
H 	H 	0.57150 0.34730 0.13030 0.07300
C 	C 	0.55670 0.28765 0.00880 0.00700
C 	C 	0.57105 0.27174 0.90850 -0.07600
H 	H 	0.55370 0.23740 0.87400 0.08300
C 	C 	0.61183 0.30766 0.85940 0.02100
H 	H 	0.62210 0.29730 0.79120 0.04600
O 	O 	0.29574 0.44370 0.89643 -0.38000
O 	O 	0.31075 0.38413 0.75876 -0.38800
N 	N 	0.30337 0.52502 0.67959 -0.24800
N 	N 	0.37328 0.59217 0.64320 -0.08400
N 	N 	0.33207 0.60019 0.57073 -0.07400
C 	C 	0.35440 0.54502 0.71030 0.08700
H 	H 	0.37350 0.52910 0.76810 0.00700
C 	C 	0.29151 0.55935 0.59643 0.08400
H 	H 	0.25860 0.55570 0.55950 0.01300
C 	C 	0.33174 0.64648 0.48375 -0.14900
H 	H 	0.36790 0.66660 0.47860 0.10200
H 	H 	0.32520 0.62280 0.41920 0.09200
C 	C 	0.28894 0.69945 0.49389 0.08000
C 	C 	0.26646 0.71828 0.58938 -0.06400
H 	H 	0.27720 0.69680 0.65030 0.06300
C 	C 	0.27149 0.73169 0.40499 -0.08300
H 	H 	0.28560 0.71950 0.34010 0.07400
C 	C 	0.32037 0.39838 0.85253 0.31700
C 	C 	0.36273 0.35836 0.91026 -0.08200
C 	C 	0.37651 0.37345 0.01228 0.01300
H 	H 	0.35850 0.40700 0.04750 0.04200
C 	C 	0.41811 0.33745 0.06200 -0.07400
H 	H 	0.42850 0.34730 0.13030 0.07300
C 	C 	0.44330 0.28765 0.00880 0.00700
C 	C 	0.42895 0.27174 0.90850 -0.07600
H 	H 	0.44630 0.23740 0.87400 0.08300
C 	C 	0.38817 0.30766 0.85940 0.02100
H 	H 	0.37790 0.29730 0.79120 0.04600
O 	O 	0.70426 0.05630 0.39643 -0.38000
O 	O 	0.68925 0.11587 0.25876 -0.38800
N 	N 	0.69663 0.97498 0.17959 -0.24800
N 	N 	0.62672 0.90783 0.14320 -0.08400
N 	N 	0.66793 0.89981 0.07073 -0.07400
C 	C 	0.64560 0.95498 0.21030 0.08700
H 	H 	0.62650 0.97090 0.26810 0.00700
C 	C 	0.70849 0.94065 0.09643 0.08400
H 	H 	0.74140 0.94430 0.05950 0.01300
C 	C 	0.66826 0.85352 0.98375 -0.14900
H 	H 	0.63210 0.83340 0.97860 0.10200
H 	H 	0.67480 0.87720 0.91920 0.09200
C 	C 	0.71106 0.80055 0.99389 0.07800
C 	C 	0.73354 0.78172 0.08938 -0.06200
H 	H 	0.72280 0.80320 0.15030 0.06200
C 	C 	0.72851 0.76831 0.90499 -0.08100
H 	H 	0.71440 0.78050 0.84010 0.07300
C 	C 	0.67963 0.10162 0.35253 0.31800
C 	C 	0.63727 0.14164 0.41026 -0.08400
C 	C 	0.62349 0.12655 0.51228 0.01500
H 	H 	0.64150 0.09300 0.54750 0.04200
C 	C 	0.58189 0.16255 0.56200 -0.07600
H 	H 	0.57150 0.15270 0.63030 0.07400
C 	C 	0.55670 0.21235 0.50880 0.00900
C 	C 	0.57105 0.22826 0.40850 -0.07800
H 	H 	0.55370 0.26260 0.37400 0.08400
C 	C 	0.61183 0.19234 0.35940 0.02200
H 	H 	0.62210 0.20270 0.29120 0.04500
O 	O 	0.20426 0.44370 0.60357 -0.38000
O 	O 	0.18925 0.38413 0.74124 -0.38800
N 	N 	0.19663 0.52502 0.82041 -0.24800
N 	N 	0.12672 0.59217 0.85680 -0.08300
N 	N 	0.16793 0.60019 0.92927 -0.07400
C 	C 	0.14560 0.54502 0.78970 0.08700
H 	H 	0.12650 0.52910 0.73190 0.00700
C 	C 	0.20849 0.55935 0.90357 0.08400
H 	H 	0.24140 0.55570 0.94050 0.01300
C 	C 	0.16826 0.64648 0.01625 -0.15000
H 	H 	0.13210 0.66660 0.02140 0.10300
H 	H 	0.17480 0.62280 0.08080 0.09300
C 	C 	0.21106 0.69945 0.00611 0.08100
C 	C 	0.23354 0.71828 0.91062 -0.06600
H 	H 	0.22280 0.69680 0.84970 0.06400
C 	C 	0.22851 0.73169 0.09501 -0.08500
H 	H 	0.21440 0.71950 0.15990 0.07400
C 	C 	0.17963 0.39838 0.64747 0.31700
C 	C 	0.13727 0.35836 0.58974 -0.08300
C 	C 	0.12349 0.37345 0.48772 0.01400
H 	H 	0.14150 0.40700 0.45250 0.04300
C 	C 	0.08189 0.33745 0.43800 -0.07300
H 	H 	0.07150 0.34730 0.36970 0.07400
C 	C 	0.05670 0.28765 0.49120 0.00700
C 	C 	0.07105 0.27174 0.59150 -0.07600
H 	H 	0.05370 0.23740 0.62600 0.08500
C 	C 	0.11183 0.30766 0.64060 0.02200
H 	H 	0.12210 0.29730 0.70880 0.04600
O 	O 	0.79574 0.05630 0.10357 -0.38100
O 	O 	0.81075 0.11587 0.24124 -0.38800
N 	N 	0.80337 0.97498 0.32041 -0.24800
N 	N 	0.87328 0.90783 0.35680 -0.08500
N 	N 	0.83207 0.89981 0.42927 -0.07500
C 	C 	0.85440 0.95498 0.28970 0.08700
H 	H 	0.87350 0.97090 0.23190 0.00600
C 	C 	0.79151 0.94065 0.40357 0.08400
H 	H 	0.75860 0.94430 0.44050 0.01300
C 	C 	0.83174 0.85352 0.51625 -0.14800
H 	H 	0.86790 0.83340 0.52140 0.10100
H 	H 	0.82520 0.87720 0.58080 0.09100
C 	C 	0.78894 0.80055 0.50611 0.07900
C 	C 	0.76646 0.78172 0.41062 -0.06300
H 	H 	0.77720 0.80320 0.34970 0.06300
C 	C 	0.77149 0.76831 0.59501 -0.08200
H 	H 	0.78560 0.78050 0.65990 0.07300
C 	C 	0.82037 0.10162 0.14747 0.31600
C 	C 	0.86273 0.14164 0.08974 -0.08100
C 	C 	0.87651 0.12655 0.98772 0.01000
H 	H 	0.85850 0.09300 0.95250 0.04300
C 	C 	0.91811 0.16255 0.93800 -0.06800
H 	H 	0.92850 0.15270 0.86970 0.06800
C 	C 	0.94330 0.21235 0.99120 -0.00600
C 	C 	0.92895 0.22826 0.09150 -0.07100
H 	H 	0.94630 0.26260 0.12600 0.07700
C 	C 	0.88817 0.19234 0.14060 0.01600
H 	H 	0.87790 0.20270 0.20880 0.04600
Co	Co	0.25000 0.03941 0.25000 1.15500
Co	Co	0.75000 0.46059 0.75000 1.15500
Co	Co	0.25000 0.46059 0.75000 1.15500
Co	Co	0.75000 0.03941 0.25000 1.15500
S 	S 	-0.00000 0.25400 0.93394 0.27400
O 	O 	-0.00000 0.32059 0.97370 -0.19900
O 	O 	-0.00000 0.24280 0.82340 -0.21500
S 	S 	-0.00000 0.24600 0.43394 0.27600
O 	O 	-0.00000 0.17941 0.47370 -0.19900
O 	O 	0.00000 0.25720 0.32340 -0.21600
S 	S 	0.50000 0.25400 0.56606 0.26100
O 	O 	0.50000 0.32059 0.52630 -0.20200
O 	O 	0.50000 0.24280 0.67660 -0.21800
S 	S 	0.50000 0.24600 0.06606 0.26200
O 	O 	0.50000 0.17941 0.02630 -0.20200
O 	O 	0.50000 0.25720 0.17660 -0.21800
O 	O 	0.70426 0.55630 0.10357 -0.38000
O 	O 	0.68925 0.61587 0.24124 -0.38800
N 	N 	0.69663 0.47498 0.32041 -0.24800
N 	N 	0.62672 0.40783 0.35680 -0.08400
N 	N 	0.66793 0.39981 0.42927 -0.07400
C 	C 	0.64560 0.45498 0.28970 0.08700
H 	H 	0.62650 0.47090 0.23190 0.00700
C 	C 	0.70849 0.44065 0.40357 0.08400
H 	H 	0.74140 0.44430 0.44050 0.01300
C 	C 	0.66826 0.35352 0.51625 -0.14900
H 	H 	0.63210 0.33340 0.52140 0.10200
H 	H 	0.67480 0.37720 0.58080 0.09200
C 	C 	0.71106 0.30055 0.50611 0.08000
C 	C 	0.73354 0.28172 0.41062 -0.06400
H 	H 	0.72280 0.30320 0.34970 0.06300
C 	C 	0.72851 0.26831 0.59501 -0.08300
H 	H 	0.71440 0.28050 0.65990 0.07400
C 	C 	0.67963 0.60162 0.14747 0.31700
C 	C 	0.63727 0.64164 0.08974 -0.08200
C 	C 	0.62349 0.62655 0.98772 0.01300
H 	H 	0.64150 0.59300 0.95250 0.04200
C 	C 	0.58189 0.66255 0.93800 -0.07400
H 	H 	0.57150 0.65270 0.86970 0.07300
C 	C 	0.55670 0.71235 0.99120 0.00700
C 	C 	0.57105 0.72826 0.09150 -0.07600
H 	H 	0.55370 0.76260 0.12600 0.08300
C 	C 	0.61183 0.69234 0.14060 0.02100
H 	H 	0.62210 0.70270 0.20880 0.04600
O 	O 	0.29574 0.94370 0.60357 -0.38000
O 	O 	0.31075 0.88413 0.74124 -0.38800
N 	N 	0.30337 0.02502 0.82041 -0.24800
N 	N 	0.37328 0.09217 0.85680 -0.08400
N 	N 	0.33207 0.10019 0.92927 -0.07400
C 	C 	0.35440 0.04502 0.78970 0.08700
H 	H 	0.37350 0.02910 0.73190 0.00700
C 	C 	0.29151 0.05935 0.90357 0.08400
H 	H 	0.25860 0.05570 0.94050 0.01300
C 	C 	0.33174 0.14648 0.01625 -0.14900
H 	H 	0.36790 0.16660 0.02140 0.10200
H 	H 	0.32520 0.12280 0.08080 0.09200
C 	C 	0.28894 0.19945 0.00611 0.07700
C 	C 	0.26646 0.21828 0.91062 -0.06100
H 	H 	0.27720 0.19680 0.84970 0.06200
C 	C 	0.27149 0.23169 0.09501 -0.08100
H 	H 	0.28560 0.21950 0.15990 0.07300
C 	C 	0.32037 0.89838 0.64747 0.31800
C 	C 	0.36273 0.85836 0.58974 -0.08400
C 	C 	0.37651 0.87345 0.48772 0.01500
H 	H 	0.35850 0.90700 0.45250 0.04200
C 	C 	0.41811 0.83745 0.43800 -0.07600
H 	H 	0.42850 0.84730 0.36970 0.07400
C 	C 	0.44330 0.78765 0.49120 0.00900
C 	C 	0.42895 0.77174 0.59150 -0.07800
H 	H 	0.44630 0.73740 0.62600 0.08400
C 	C 	0.38817 0.80766 0.64060 0.02200
H 	H 	0.37790 0.79730 0.70880 0.04500
O 	O 	0.79574 0.55630 0.39643 -0.38000
O 	O 	0.81075 0.61587 0.25876 -0.38800
N 	N 	0.80337 0.47498 0.17959 -0.24800
N 	N 	0.87328 0.40783 0.14320 -0.08500
N 	N 	0.83207 0.39981 0.07073 -0.07500
C 	C 	0.85440 0.45498 0.21030 0.08600
H 	H 	0.87350 0.47090 0.26810 0.00500
C 	C 	0.79151 0.44065 0.09643 0.08400
H 	H 	0.75860 0.44430 0.05950 0.01300
C 	C 	0.83174 0.35352 0.98375 -0.14900
H 	H 	0.86790 0.33340 0.97860 0.10100
H 	H 	0.82520 0.37720 0.91920 0.09100
C 	C 	0.78894 0.30055 0.99389 0.08100
C 	C 	0.76646 0.28172 0.08938 -0.06500
H 	H 	0.77720 0.30320 0.15030 0.06400
C 	C 	0.77149 0.26831 0.90499 -0.08400
H 	H 	0.78560 0.28050 0.84010 0.07400
C 	C 	0.82037 0.60162 0.35253 0.31500
C 	C 	0.86273 0.64164 0.41026 -0.07800
C 	C 	0.87651 0.62655 0.51228 0.00600
H 	H 	0.85850 0.59300 0.54750 0.04400
C 	C 	0.91811 0.66255 0.56200 -0.06500
H 	H 	0.92850 0.65270 0.63030 0.06700
C 	C 	0.94330 0.71235 0.50880 -0.00900
C 	C 	0.92895 0.72826 0.40850 -0.06800
H 	H 	0.94630 0.76260 0.37400 0.07600
C 	C 	0.88817 0.69234 0.35940 0.01300
H 	H 	0.87790 0.70270 0.29120 0.04700
O 	O 	0.20426 0.94370 0.89643 -0.38100
O 	O 	0.18925 0.88413 0.75876 -0.38800
N 	N 	0.19663 0.02502 0.67959 -0.24800
N 	N 	0.12672 0.09217 0.64320 -0.08300
N 	N 	0.16793 0.10019 0.57073 -0.07400
C 	C 	0.14560 0.04502 0.71030 0.08700
H 	H 	0.12650 0.02910 0.76810 0.00800
C 	C 	0.20849 0.05935 0.59643 0.08400
H 	H 	0.24140 0.05570 0.55950 0.01300
C 	C 	0.16826 0.14648 0.48375 -0.14900
H 	H 	0.13210 0.16660 0.47860 0.10300
H 	H 	0.17480 0.12280 0.41920 0.09200
C 	C 	0.21106 0.19945 0.49389 0.08000
C 	C 	0.23354 0.21828 0.58938 -0.06400
H 	H 	0.22280 0.19680 0.65030 0.06300
C 	C 	0.22851 0.23169 0.40499 -0.08300
H 	H 	0.21440 0.21950 0.34010 0.07400
C 	C 	0.17963 0.89838 0.85253 0.31800
C 	C 	0.13727 0.85836 0.91026 -0.08600
C 	C 	0.12349 0.87345 0.01228 0.01800
H 	H 	0.14150 0.90700 0.04750 0.04200
C 	C 	0.08189 0.83745 0.06200 -0.07600
H 	H 	0.07150 0.84730 0.13030 0.07500
C 	C 	0.05670 0.78765 0.00880 0.01000
C 	C 	0.07105 0.77174 0.90850 -0.07900
H 	H 	0.05370 0.73740 0.87400 0.08600
C 	C 	0.11183 0.80766 0.85940 0.02400
H 	H 	0.12210 0.79730 0.79120 0.04500
O 	O 	0.79574 0.94370 0.89643 -0.38100
O 	O 	0.81075 0.88413 0.75876 -0.38800
N 	N 	0.80337 0.02502 0.67959 -0.24800
N 	N 	0.87328 0.09217 0.64320 -0.08500
N 	N 	0.83207 0.10019 0.57073 -0.07500
C 	C 	0.85440 0.04502 0.71030 0.08700
H 	H 	0.87350 0.02910 0.76810 0.00600
C 	C 	0.79151 0.05935 0.59643 0.08400
H 	H 	0.75860 0.05570 0.55950 0.01300
C 	C 	0.83174 0.14648 0.48375 -0.14800
H 	H 	0.86790 0.16660 0.47860 0.10100
H 	H 	0.82520 0.12280 0.41920 0.09100
C 	C 	0.78894 0.19945 0.49389 0.07900
C 	C 	0.76646 0.21828 0.58938 -0.06300
H 	H 	0.77720 0.19680 0.65030 0.06300
C 	C 	0.77149 0.23169 0.40499 -0.08200
H 	H 	0.78560 0.21950 0.34010 0.07300
C 	C 	0.82037 0.89838 0.85253 0.31600
C 	C 	0.86273 0.85836 0.91026 -0.08100
C 	C 	0.87651 0.87345 0.01228 0.01000
H 	H 	0.85850 0.90700 0.04750 0.04300
C 	C 	0.91811 0.83745 0.06200 -0.06800
H 	H 	0.92850 0.84730 0.13030 0.06800
C 	C 	0.94330 0.78765 0.00880 -0.00600
C 	C 	0.92895 0.77174 0.90850 -0.07100
H 	H 	0.94630 0.73740 0.87400 0.07700
C 	C 	0.88817 0.80766 0.85940 0.01600
H 	H 	0.87790 0.79730 0.79120 0.04600
O 	O 	0.20426 0.55630 0.39643 -0.38000
O 	O 	0.18925 0.61587 0.25876 -0.38800
N 	N 	0.19663 0.47498 0.17959 -0.24800
N 	N 	0.12672 0.40783 0.14320 -0.08300
N 	N 	0.16793 0.39981 0.07073 -0.07400
C 	C 	0.14560 0.45498 0.21030 0.08700
H 	H 	0.12650 0.47090 0.26810 0.00700
C 	C 	0.20849 0.44065 0.09643 0.08400
H 	H 	0.24140 0.44430 0.05950 0.01300
C 	C 	0.16826 0.35352 0.98375 -0.15000
H 	H 	0.13210 0.33340 0.97860 0.10300
H 	H 	0.17480 0.37720 0.91920 0.09300
C 	C 	0.21106 0.30055 0.99389 0.08100
C 	C 	0.23354 0.28172 0.08938 -0.06600
H 	H 	0.22280 0.30320 0.15030 0.06400
C 	C 	0.22851 0.26831 0.90499 -0.08500
H 	H 	0.21440 0.28050 0.84010 0.07400
C 	C 	0.17963 0.60162 0.35253 0.31700
C 	C 	0.13727 0.64164 0.41026 -0.08300
C 	C 	0.12349 0.62655 0.51228 0.01400
H 	H 	0.14150 0.59300 0.54750 0.04300
C 	C 	0.08189 0.66255 0.56200 -0.07300
H 	H 	0.07150 0.65270 0.63030 0.07400
C 	C 	0.05670 0.71235 0.50880 0.00700
C 	C 	0.07105 0.72826 0.40850 -0.07600
H 	H 	0.05370 0.76260 0.37400 0.08500
C 	C 	0.11183 0.69234 0.35940 0.02200
H 	H 	0.12210 0.70270 0.29120 0.04600
O 	O 	0.70426 0.94370 0.60357 -0.38000
O 	O 	0.68925 0.88413 0.74124 -0.38800
N 	N 	0.69663 0.02502 0.82041 -0.24800
N 	N 	0.62672 0.09217 0.85680 -0.08400
N 	N 	0.66793 0.10019 0.92927 -0.07400
C 	C 	0.64560 0.04502 0.78970 0.08700
H 	H 	0.62650 0.02910 0.73190 0.00700
C 	C 	0.70849 0.05935 0.90357 0.08400
H 	H 	0.74140 0.05570 0.94050 0.01300
C 	C 	0.66826 0.14648 0.01625 -0.14900
H 	H 	0.63210 0.16660 0.02140 0.10200
H 	H 	0.67480 0.12280 0.08080 0.09200
C 	C 	0.71106 0.19945 0.00611 0.07800
C 	C 	0.73354 0.21828 0.91062 -0.06200
H 	H 	0.72280 0.19680 0.84970 0.06200
C 	C 	0.72851 0.23169 0.09501 -0.08100
H 	H 	0.71440 0.21950 0.15990 0.07300
C 	C 	0.67963 0.89838 0.64747 0.31800
C 	C 	0.63727 0.85836 0.58974 -0.08400
C 	C 	0.62349 0.87345 0.48772 0.01500
H 	H 	0.64150 0.90700 0.45250 0.04200
C 	C 	0.58189 0.83745 0.43800 -0.07600
H 	H 	0.57150 0.84730 0.36970 0.07400
C 	C 	0.55670 0.78765 0.49120 0.00900
C 	C 	0.57105 0.77174 0.59150 -0.07800
H 	H 	0.55370 0.73740 0.62600 0.08400
C 	C 	0.61183 0.80766 0.64060 0.02200
H 	H 	0.62210 0.79730 0.70880 0.04500
O 	O 	0.29574 0.55630 0.10357 -0.38000
O 	O 	0.31075 0.61587 0.24124 -0.38800
N 	N 	0.30337 0.47498 0.32041 -0.24800
N 	N 	0.37328 0.40783 0.35680 -0.08400
N 	N 	0.33207 0.39981 0.42927 -0.07400
C 	C 	0.35440 0.45498 0.28970 0.08700
H 	H 	0.37350 0.47090 0.23190 0.00700
C 	C 	0.29151 0.44065 0.40357 0.08400
H 	H 	0.25860 0.44430 0.44050 0.01300
C 	C 	0.33174 0.35352 0.51625 -0.14900
H 	H 	0.36790 0.33340 0.52140 0.10200
H 	H 	0.32520 0.37720 0.58080 0.09200
C 	C 	0.28894 0.30055 0.50611 0.08000
C 	C 	0.26646 0.28172 0.41062 -0.06400
H 	H 	0.27720 0.30320 0.34970 0.06300
C 	C 	0.27149 0.26831 0.59501 -0.08300
H 	H 	0.28560 0.28050 0.65990 0.07400
C 	C 	0.32037 0.60162 0.14747 0.31700
C 	C 	0.36273 0.64164 0.08974 -0.08200
C 	C 	0.37651 0.62655 0.98772 0.01300
H 	H 	0.35850 0.59300 0.95250 0.04200
C 	C 	0.41811 0.66255 0.93800 -0.07400
H 	H 	0.42850 0.65270 0.86970 0.07300
C 	C 	0.44330 0.71235 0.99120 0.00700
C 	C 	0.42895 0.72826 0.09150 -0.07600
H 	H 	0.44630 0.76260 0.12600 0.08300
C 	C 	0.38817 0.69234 0.14060 0.02100
H 	H 	0.37790 0.70270 0.20880 0.04600
Co	Co	0.75000 0.53941 0.25000 1.15500
Co	Co	0.25000 0.96059 0.75000 1.15500
Co	Co	0.75000 0.96059 0.75000 1.15500
Co	Co	0.25000 0.53941 0.25000 1.15500
S 	S 	0.50000 0.75400 0.93394 0.26200
O 	O 	0.50000 0.82059 0.97370 -0.20200
O 	O 	0.50000 0.74280 0.82340 -0.21800
S 	S 	0.50000 0.74600 0.43394 0.26100
O 	O 	0.50000 0.67941 0.47370 -0.20200
O 	O 	0.50000 0.75720 0.32340 -0.21800
S 	S 	-0.00000 0.75400 0.56606 0.27600
O 	O 	-0.00000 0.82059 0.52630 -0.19900
O 	O 	0.00000 0.74280 0.67660 -0.21600
S 	S 	0.00000 0.74600 0.06606 0.27400
O 	O 	-0.00000 0.67941 0.02630 -0.19900
O 	O 	0.00000 0.75720 0.17660 -0.21500
