data_crystal

_cell_length_a 20.14130
_cell_length_b 34.89200
_cell_length_c 11.19390
_cell_angle_alpha 90.00000
_cell_angle_beta  90.00000
_cell_angle_gamma 90.00000

_symmetry_space_group_name_	'P 1'
_symmetry_space_group_name_H-M	'P 1'

loop_
_symmetry_equiv_pos_as_xyz
  x,y,z

loop_
_atom_site_label
_atom_site_type_symbol
_atom_site_fract_x
_atom_site_fract_y
_atom_site_fract_z
_atom_site_charge
O 	O 	0.43453 0.39402 0.10200 -0.61500
O 	O 	0.89790 0.94241 0.21950 -0.75500
C 	C 	0.78482 0.78013 0.43739 -0.00600
C 	C 	0.81008 0.81300 0.36910 0.02200
C 	C 	0.86721 0.80783 0.30077 -0.03600
C 	C 	0.89524 0.83869 0.24128 0.09100
C 	C 	0.78021 0.84935 0.37477 -0.03200
C 	C 	0.90065 0.90685 0.18700 0.51700
C 	C 	0.86708 0.87536 0.24931 -0.16800
C 	C 	0.80892 0.88063 0.31572 0.03700
O 	O 	0.93453 0.89402 0.10200 -0.60600
O 	O 	0.39790 0.44241 0.21950 -0.78400
C 	C 	0.28482 0.28013 0.43739 -0.00800
C 	C 	0.31008 0.31300 0.36910 0.02200
C 	C 	0.36721 0.30783 0.30077 -0.04200
C 	C 	0.39524 0.33869 0.24128 0.08500
C 	C 	0.28021 0.34935 0.37477 -0.03900
C 	C 	0.40065 0.40685 0.18700 0.51800
C 	C 	0.36708 0.37536 0.24931 -0.17100
C 	C 	0.30892 0.38063 0.31572 0.02300
O 	O 	0.56547 0.60598 0.10200 -0.61500
O 	O 	0.10210 0.05759 0.21950 -0.80300
C 	C 	0.21518 0.21987 0.43739 -0.00800
C 	C 	0.18992 0.18700 0.36910 0.02200
C 	C 	0.13279 0.19217 0.30077 -0.04300
C 	C 	0.10476 0.16131 0.24128 0.08100
C 	C 	0.21979 0.15065 0.37477 -0.04200
C 	C 	0.09935 0.09315 0.18700 0.51900
C 	C 	0.13292 0.12464 0.24931 -0.17300
C 	C 	0.19108 0.11937 0.31572 0.01300
O 	O 	0.06547 0.10598 0.10200 -0.62100
O 	O 	0.60210 0.55759 0.21950 -0.78300
C 	C 	0.71518 0.71987 0.43739 -0.00600
C 	C 	0.68992 0.68700 0.36910 0.02200
C 	C 	0.63279 0.69217 0.30077 -0.03800
C 	C 	0.60476 0.66131 0.24128 0.08600
C 	C 	0.71979 0.65065 0.37477 -0.03600
C 	C 	0.59935 0.59315 0.18700 0.51800
C 	C 	0.63292 0.62464 0.24931 -0.17000
C 	C 	0.69108 0.61937 0.31572 0.02600
O 	O 	0.56547 0.39402 0.89800 -0.58600
O 	O 	0.10210 0.94241 0.78050 -0.75100
C 	C 	0.21518 0.78013 0.56261 -0.00800
C 	C 	0.18992 0.81300 0.63090 0.02400
C 	C 	0.13279 0.80783 0.69923 -0.03400
C 	C 	0.10476 0.83869 0.75872 0.09400
C 	C 	0.21979 0.84935 0.62523 -0.02900
C 	C 	0.09935 0.90685 0.81300 0.51500
C 	C 	0.13292 0.87536 0.75069 -0.16500
C 	C 	0.19108 0.88063 0.68428 0.04300
O 	O 	0.06547 0.89402 0.89800 -0.58600
O 	O 	0.60210 0.44241 0.78050 -0.77300
C 	C 	0.71518 0.28013 0.56261 -0.00800
C 	C 	0.68992 0.31300 0.63090 0.02400
C 	C 	0.63279 0.30783 0.69923 -0.03400
C 	C 	0.60476 0.33869 0.75872 0.09600
C 	C 	0.71979 0.34935 0.62523 -0.03300
C 	C 	0.59935 0.40685 0.81300 0.51700
C 	C 	0.63292 0.37536 0.75069 -0.16700
C 	C 	0.69108 0.38063 0.68428 0.03200
O 	O 	0.43453 0.60598 0.89800 -0.58600
O 	O 	0.89790 0.05759 0.78050 -0.78900
C 	C 	0.78482 0.21987 0.56261 -0.00800
C 	C 	0.81008 0.18700 0.63090 0.02400
C 	C 	0.86721 0.19217 0.69923 -0.03100
C 	C 	0.89524 0.16131 0.75872 0.09800
C 	C 	0.78021 0.15065 0.62523 -0.03800
C 	C 	0.90065 0.09315 0.81300 0.51800
C 	C 	0.86708 0.12464 0.75069 -0.16800
C 	C 	0.80892 0.11937 0.68428 0.02100
O 	O 	0.93453 0.10598 0.89800 -0.58400
O 	O 	0.39790 0.55759 0.78050 -0.77400
C 	C 	0.28482 0.71987 0.56261 -0.00800
C 	C 	0.31008 0.68700 0.63090 0.02400
C 	C 	0.36721 0.69217 0.69923 -0.03000
C 	C 	0.39524 0.66131 0.75872 0.09600
C 	C 	0.28021 0.65065 0.62523 -0.03500
C 	C 	0.40065 0.59315 0.81300 0.51700
C 	C 	0.36708 0.62464 0.75069 -0.16700
C 	C 	0.30892 0.61937 0.68428 0.03100
O 	O 	0.56547 0.60598 0.89800 -0.58600
O 	O 	0.10210 0.05759 0.78050 -0.79200
C 	C 	0.21518 0.21987 0.56261 -0.00900
C 	C 	0.18992 0.18700 0.63090 0.02400
C 	C 	0.13279 0.19217 0.69923 -0.03400
C 	C 	0.10476 0.16131 0.75872 0.09300
C 	C 	0.21979 0.15065 0.62523 -0.03800
C 	C 	0.09935 0.09315 0.81300 0.51800
C 	C 	0.13292 0.12464 0.75069 -0.16800
C 	C 	0.19108 0.11937 0.68428 0.02100
O 	O 	0.06547 0.10598 0.89800 -0.58800
O 	O 	0.60210 0.55759 0.78050 -0.77300
C 	C 	0.71518 0.71987 0.56261 -0.00700
C 	C 	0.68992 0.68700 0.63090 0.02400
C 	C 	0.63279 0.69217 0.69923 -0.03000
C 	C 	0.60476 0.66131 0.75872 0.09600
C 	C 	0.71979 0.65065 0.62523 -0.03300
C 	C 	0.59935 0.59315 0.81300 0.51700
C 	C 	0.63292 0.62464 0.75069 -0.16700
C 	C 	0.69108 0.61937 0.68428 0.03200
O 	O 	0.43453 0.39402 0.89800 -0.58600
O 	O 	0.89790 0.94241 0.78050 -0.74800
C 	C 	0.78482 0.78013 0.56261 -0.00600
C 	C 	0.81008 0.81300 0.63090 0.02400
C 	C 	0.86721 0.80783 0.69923 -0.03000
C 	C 	0.89524 0.83869 0.75872 0.09900
C 	C 	0.78021 0.84935 0.62523 -0.02900
C 	C 	0.90065 0.90685 0.81300 0.51600
C 	C 	0.86708 0.87536 0.75069 -0.16400
C 	C 	0.80892 0.88063 0.68428 0.04400
O 	O 	0.93453 0.89402 0.89800 -0.58200
O 	O 	0.39790 0.44241 0.78050 -0.77400
C 	C 	0.28482 0.28013 0.56261 -0.00900
C 	C 	0.31008 0.31300 0.63090 0.02500
C 	C 	0.36721 0.30783 0.69923 -0.03400
C 	C 	0.39524 0.33869 0.75872 0.09600
C 	C 	0.28021 0.34935 0.62523 -0.03500
C 	C 	0.40065 0.40685 0.81300 0.51700
C 	C 	0.36708 0.37536 0.75069 -0.16700
C 	C 	0.30892 0.38063 0.68428 0.03100
O 	O 	0.43453 0.60598 0.10200 -0.61500
O 	O 	0.89790 0.05759 0.21950 -0.79600
C 	C 	0.78482 0.21987 0.43739 -0.00700
C 	C 	0.81008 0.18700 0.36910 0.02200
C 	C 	0.86721 0.19217 0.30077 -0.03700
C 	C 	0.89524 0.16131 0.24128 0.09000
C 	C 	0.78021 0.15065 0.37477 -0.04100
C 	C 	0.90065 0.09315 0.18700 0.51900
C 	C 	0.86708 0.12464 0.24931 -0.17100
C 	C 	0.80892 0.11937 0.31572 0.01400
O 	O 	0.93453 0.10598 0.10200 -0.60800
O 	O 	0.39790 0.55759 0.21950 -0.78400
C 	C 	0.28482 0.71987 0.43739 -0.00700
C 	C 	0.31008 0.68700 0.36910 0.02200
C 	C 	0.36721 0.69217 0.30077 -0.03800
C 	C 	0.39524 0.66131 0.24128 0.08600
C 	C 	0.28021 0.65065 0.37477 -0.03900
C 	C 	0.40065 0.59315 0.18700 0.51800
C 	C 	0.36708 0.62464 0.24931 -0.17100
C 	C 	0.30892 0.61937 0.31572 0.02300
O 	O 	0.56547 0.39402 0.10200 -0.61500
O 	O 	0.10210 0.94241 0.21950 -0.76200
C 	C 	0.21518 0.78013 0.43739 -0.00700
C 	C 	0.18992 0.81300 0.36910 0.02200
C 	C 	0.13279 0.80783 0.30077 -0.04200
C 	C 	0.10476 0.83869 0.24128 0.08200
C 	C 	0.21979 0.84935 0.37477 -0.03300
C 	C 	0.09935 0.90685 0.18700 0.51600
C 	C 	0.13292 0.87536 0.24931 -0.16900
C 	C 	0.19108 0.88063 0.31572 0.03600
O 	O 	0.06547 0.89402 0.10200 -0.61900
O 	O 	0.60210 0.44241 0.21950 -0.78300
C 	C 	0.71518 0.28013 0.43739 -0.00700
C 	C 	0.68992 0.31300 0.36910 0.02200
C 	C 	0.63279 0.30783 0.30077 -0.04100
C 	C 	0.60476 0.33869 0.24128 0.08600
C 	C 	0.71979 0.34935 0.37477 -0.03600
C 	C 	0.59935 0.40685 0.18700 0.51900
C 	C 	0.63292 0.37536 0.24931 -0.17000
C 	C 	0.69108 0.38063 0.31572 0.02600
Zr	Zr	0.08113 -0.00000 0.15350 3.13100
Zr	Zr	0.58113 0.50000 0.15350 3.14200
Zr	Zr	0.91887 -0.00000 0.15350 3.13300
Zr	Zr	0.41887 0.50000 0.15350 3.14200
Zr	Zr	0.91887 0.00000 0.84650 3.13500
Zr	Zr	0.41887 0.50000 0.84650 3.14600
Zr	Zr	0.08113 0.00000 0.84650 3.13500
Zr	Zr	0.58113 0.50000 0.84650 3.14600
Zr	Zr	0.50000 0.56568 -0.00000 3.15800
Zr	Zr	0.00000 0.06568 -0.00000 3.15500
Zr	Zr	0.50000 0.43432 -0.00000 3.15800
Zr	Zr	0.00000 0.93432 -0.00000 3.15600
O 	O 	0.00000 0.96034 0.17930 -1.39000
O 	O 	0.50000 0.46034 0.17930 -1.41200
O 	O 	0.00000 0.03966 0.17930 -1.44300
O 	O 	0.50000 0.53966 0.17930 -1.41200
O 	O 	0.00000 0.96034 0.82070 -1.37500
O 	O 	0.50000 0.46034 0.82070 -1.39900
O 	O 	-0.00000 0.03966 0.82070 -1.42700
O 	O 	0.50000 0.53966 0.82070 -1.39900
O 	O 	0.10320 0.96286 -0.00000 -1.35100
O 	O 	0.60320 0.46286 -0.00000 -1.38300
O 	O 	0.89680 0.03714 -0.00000 -1.40500
O 	O 	0.39680 0.53714 -0.00000 -1.38500
O 	O 	0.89680 0.96286 -0.00000 -1.34300
O 	O 	0.39680 0.46286 -0.00000 -1.38500
O 	O 	0.10320 0.03714 -0.00000 -1.41300
O 	O 	0.60320 0.53714 -0.00000 -1.38300
C 	C 	0.75000 0.25000 0.37690 -0.00600
C 	C 	0.25000 0.75000 0.37690 -0.00600
C 	C 	0.25000 0.25000 0.62310 0.00200
C 	C 	0.75000 0.75000 0.62310 0.00600
C 	C 	0.25000 0.75000 0.62310 0.00500
C 	C 	0.75000 0.25000 0.62310 0.00300
C 	C 	0.75000 0.75000 0.37690 -0.00400
C 	C 	0.25000 0.25000 0.37690 -0.00900
