data_crystal

_cell_length_a 7.80400
_cell_length_b 22.16000
_cell_length_c 27.06000
_cell_angle_alpha 90.00000
_cell_angle_beta  90.00000
_cell_angle_gamma 90.00000

_symmetry_space_group_name_	'P 1'
_symmetry_space_group_name_H-M	'P 1'

loop_
_symmetry_equiv_pos_as_xyz
  x,y,z

loop_
_atom_site_label
_atom_site_type_symbol
_atom_site_fract_x
_atom_site_fract_y
_atom_site_fract_z
_atom_site_charge
Cd	Cd	0.48106 0.96485 0.24510 1.21000
N 	N 	0.18750 0.14700 0.98600 -0.12300
O 	O 	0.22420 0.03130 0.25260 -0.47900
O 	O 	0.38770 0.03180 0.18670 -0.38900
O 	O 	0.25470 0.10250 0.75710 -0.48300
O 	O 	0.43970 0.09900 0.81810 -0.39100
C 	C 	0.11400 0.19560 0.96450 0.07800
C 	C 	0.04100 0.24080 0.99400 -0.10600
H 	H 	0.99620 0.27570 0.97990 0.07300
C 	C 	0.03800 0.23210 0.04410 -0.00100
H 	H 	0.98470 0.26070 0.06400 0.03700
C 	C 	0.11100 0.18230 0.06580 -0.03700
C 	C 	0.18200 0.14090 0.03590 0.02400
H 	H 	0.22930 0.10650 0.05010 0.02900
C 	C 	0.26890 0.05360 0.21190 0.28400
C 	C 	0.17200 0.10860 0.19080 -0.04500
C 	C 	0.19110 0.12210 0.14180 -0.07600
H 	H 	0.26490 0.09910 0.12250 0.06800
C 	C 	0.10140 0.17010 0.12020 0.04600
C 	C 	0.99800 0.20540 0.15120 -0.09400
H 	H 	0.93750 0.23780 0.13810 0.07200
C 	C 	0.98500 0.19250 0.20100 0.00100
H 	H 	0.92020 0.21760 0.22140 0.03300
C 	C 	0.06730 0.14190 0.22120 -0.06100
H 	H 	0.05170 0.13120 0.25410 0.05800
C 	C 	0.30560 0.11890 0.79940 0.31100
C 	C 	0.19960 0.16160 0.82970 -0.08900
C 	C 	0.21150 0.16210 0.88070 -0.03000
H 	H 	0.28860 0.13630 0.89620 0.05800
C 	C 	0.11100 0.20020 0.90920 -0.00600
C 	C 	0.00400 0.24030 0.88480 -0.05300
H 	H 	0.93800 0.26710 0.90300 0.05300
C 	C 	0.99480 0.24100 0.83420 -0.03800
H 	H 	0.92310 0.26850 0.81850 0.04800
C 	C 	0.08990 0.20150 0.80640 -0.02300
H 	H 	0.08070 0.20160 0.77210 0.04100
Cd	Cd	0.01894 0.03515 0.74510 1.21000
N 	N 	0.31250 0.85300 0.48600 -0.12200
O 	O 	0.27580 0.96870 0.75260 -0.47800
O 	O 	0.11230 0.96820 0.68670 -0.38900
O 	O 	0.24530 0.89750 0.25710 -0.48200
O 	O 	0.06030 0.90100 0.31810 -0.39000
C 	C 	0.38600 0.80440 0.46450 0.07900
C 	C 	0.45900 0.75920 0.49400 -0.10500
H 	H 	0.50380 0.72430 0.47990 0.07300
C 	C 	0.46200 0.76790 0.54410 0.00100
H 	H 	0.51530 0.73930 0.56400 0.03500
C 	C 	0.38900 0.81770 0.56580 -0.03800
C 	C 	0.31800 0.85910 0.53590 0.02300
H 	H 	0.27070 0.89350 0.55010 0.02900
C 	C 	0.23110 0.94640 0.71190 0.28400
C 	C 	0.32800 0.89140 0.69080 -0.04500
C 	C 	0.30890 0.87790 0.64180 -0.07600
H 	H 	0.23510 0.90090 0.62250 0.06800
C 	C 	0.39860 0.82990 0.62020 0.04800
C 	C 	0.50200 0.79460 0.65120 -0.09500
H 	H 	0.56250 0.76220 0.63810 0.07200
C 	C 	0.51500 0.80750 0.70100 0.00000
H 	H 	0.57980 0.78240 0.72140 0.03200
C 	C 	0.43270 0.85810 0.72120 -0.06000
H 	H 	0.44830 0.86880 0.75410 0.05800
C 	C 	0.19440 0.88110 0.29940 0.31200
C 	C 	0.30040 0.83840 0.32970 -0.09200
C 	C 	0.28850 0.83790 0.38070 -0.02700
H 	H 	0.21140 0.86370 0.39620 0.05700
C 	C 	0.38900 0.79980 0.40920 -0.00900
C 	C 	0.49600 0.75970 0.38480 -0.04600
H 	H 	0.56200 0.73290 0.40300 0.05000
C 	C 	0.50520 0.75900 0.33420 -0.04500
H 	H 	0.57690 0.73150 0.31850 0.05000
C 	C 	0.41010 0.79850 0.30640 -0.01800
H 	H 	0.41930 0.79840 0.27210 0.03900
Cd	Cd	0.51894 0.03515 0.75490 1.21000
N 	N 	0.81250 0.85300 0.01400 -0.12300
O 	O 	0.77580 0.96870 0.74740 -0.47900
O 	O 	0.61230 0.96820 0.81330 -0.38900
O 	O 	0.74530 0.89750 0.24290 -0.48300
O 	O 	0.56030 0.90100 0.18190 -0.39100
C 	C 	0.88600 0.80440 0.03550 0.07800
C 	C 	0.95900 0.75920 0.00600 -0.10600
H 	H 	0.00380 0.72430 0.02010 0.07300
C 	C 	0.96200 0.76790 0.95590 -0.00100
H 	H 	0.01530 0.73930 0.93600 0.03700
C 	C 	0.88900 0.81770 0.93420 -0.03700
C 	C 	0.81800 0.85910 0.96410 0.02400
H 	H 	0.77070 0.89350 0.94990 0.02900
C 	C 	0.73110 0.94640 0.78810 0.28400
C 	C 	0.82800 0.89140 0.80920 -0.04500
C 	C 	0.80890 0.87790 0.85820 -0.07600
H 	H 	0.73510 0.90090 0.87750 0.06800
C 	C 	0.89860 0.82990 0.87980 0.04600
C 	C 	0.00200 0.79460 0.84880 -0.09400
H 	H 	0.06250 0.76220 0.86190 0.07200
C 	C 	0.01500 0.80750 0.79900 0.00100
H 	H 	0.07980 0.78240 0.77860 0.03300
C 	C 	0.93270 0.85810 0.77880 -0.06100
H 	H 	0.94830 0.86880 0.74590 0.05800
C 	C 	0.69440 0.88110 0.20060 0.31100
C 	C 	0.80040 0.83840 0.17030 -0.08900
C 	C 	0.78850 0.83790 0.11930 -0.03000
H 	H 	0.71140 0.86370 0.10380 0.05800
C 	C 	0.88900 0.79980 0.09080 -0.00600
C 	C 	0.99600 0.75970 0.11520 -0.05300
H 	H 	0.06200 0.73290 0.09700 0.05300
C 	C 	0.00520 0.75900 0.16580 -0.03800
H 	H 	0.07690 0.73150 0.18150 0.04800
C 	C 	0.91010 0.79850 0.19360 -0.02300
H 	H 	0.91930 0.79840 0.22790 0.04100
Cd	Cd	0.98106 0.96485 0.25490 1.21000
N 	N 	0.68750 0.14700 0.51400 -0.12200
O 	O 	0.72420 0.03130 0.24740 -0.47800
O 	O 	0.88770 0.03180 0.31330 -0.38900
O 	O 	0.75470 0.10250 0.74290 -0.48200
O 	O 	0.93970 0.09900 0.68190 -0.39000
C 	C 	0.61400 0.19560 0.53550 0.07900
C 	C 	0.54100 0.24080 0.50600 -0.10500
H 	H 	0.49620 0.27570 0.52010 0.07300
C 	C 	0.53800 0.23210 0.45590 0.00100
H 	H 	0.48470 0.26070 0.43600 0.03500
C 	C 	0.61100 0.18230 0.43420 -0.03800
C 	C 	0.68200 0.14090 0.46410 0.02300
H 	H 	0.72930 0.10650 0.44990 0.02900
C 	C 	0.76890 0.05360 0.28810 0.28400
C 	C 	0.67200 0.10860 0.30920 -0.04500
C 	C 	0.69110 0.12210 0.35820 -0.07600
H 	H 	0.76490 0.09910 0.37750 0.06800
C 	C 	0.60140 0.17010 0.37980 0.04800
C 	C 	0.49800 0.20540 0.34880 -0.09500
H 	H 	0.43750 0.23780 0.36190 0.07200
C 	C 	0.48500 0.19250 0.29900 0.00000
H 	H 	0.42020 0.21760 0.27860 0.03200
C 	C 	0.56730 0.14190 0.27880 -0.06000
H 	H 	0.55170 0.13120 0.24590 0.05800
C 	C 	0.80560 0.11890 0.70060 0.31200
C 	C 	0.69960 0.16160 0.67030 -0.09200
C 	C 	0.71150 0.16210 0.61930 -0.02700
H 	H 	0.78860 0.13630 0.60380 0.05700
C 	C 	0.61100 0.20020 0.59080 -0.00900
C 	C 	0.50400 0.24030 0.61520 -0.04600
H 	H 	0.43800 0.26710 0.59700 0.05000
C 	C 	0.49480 0.24100 0.66580 -0.04500
H 	H 	0.42310 0.26850 0.68150 0.05000
C 	C 	0.58990 0.20150 0.69360 -0.01800
H 	H 	0.58070 0.20160 0.72790 0.03900
Cd	Cd	0.51894 0.46485 0.25490 1.21100
N 	N 	0.81250 0.64700 0.51400 -0.12200
O 	O 	0.77580 0.53130 0.24740 -0.47900
O 	O 	0.61230 0.53180 0.31330 -0.38900
O 	O 	0.74530 0.60250 0.74290 -0.48200
O 	O 	0.56030 0.59900 0.68190 -0.39100
C 	C 	0.88600 0.69560 0.53550 0.07700
C 	C 	0.95900 0.74080 0.50600 -0.10500
H 	H 	0.00380 0.77570 0.52010 0.07300
C 	C 	0.96200 0.73210 0.45590 -0.00200
H 	H 	0.01530 0.76070 0.43600 0.03700
C 	C 	0.88900 0.68230 0.43420 -0.03700
C 	C 	0.81800 0.64090 0.46410 0.02300
H 	H 	0.77070 0.60650 0.44990 0.02900
C 	C 	0.73110 0.55360 0.28810 0.28400
C 	C 	0.82800 0.60860 0.30920 -0.04600
C 	C 	0.80890 0.62210 0.35820 -0.07500
H 	H 	0.73510 0.59910 0.37750 0.06800
C 	C 	0.89860 0.67010 0.37980 0.04600
C 	C 	0.00200 0.70540 0.34880 -0.09400
H 	H 	0.06250 0.73780 0.36190 0.07200
C 	C 	0.01500 0.69250 0.29900 -0.00100
H 	H 	0.07980 0.71760 0.27860 0.03300
C 	C 	0.93270 0.64190 0.27880 -0.06000
H 	H 	0.94830 0.63120 0.24590 0.05800
C 	C 	0.69440 0.61890 0.70060 0.31000
C 	C 	0.80040 0.66160 0.67030 -0.08900
C 	C 	0.78850 0.66210 0.61930 -0.03100
H 	H 	0.71140 0.63630 0.60380 0.05800
C 	C 	0.88900 0.70020 0.59080 -0.00500
C 	C 	0.99600 0.74030 0.61520 -0.05500
H 	H 	0.06200 0.76710 0.59700 0.05400
C 	C 	0.00520 0.74100 0.66580 -0.03600
H 	H 	0.07690 0.76850 0.68150 0.04800
C 	C 	0.91010 0.70150 0.69360 -0.02400
H 	H 	0.91930 0.70160 0.72790 0.04100
Cd	Cd	0.98106 0.53515 0.75490 1.21000
N 	N 	0.68750 0.35300 0.01400 -0.12200
O 	O 	0.72420 0.46870 0.74740 -0.47900
O 	O 	0.88770 0.46820 0.81330 -0.39000
O 	O 	0.75470 0.39750 0.24290 -0.48200
O 	O 	0.93970 0.40100 0.18190 -0.39000
C 	C 	0.61400 0.30440 0.03550 0.07800
C 	C 	0.54100 0.25920 0.00600 -0.10300
H 	H 	0.49620 0.22430 0.02010 0.07300
C 	C 	0.53800 0.26790 0.95590 -0.00200
H 	H 	0.48470 0.23930 0.93600 0.03600
C 	C 	0.61100 0.31770 0.93420 -0.03700
C 	C 	0.68200 0.35910 0.96410 0.02200
H 	H 	0.72930 0.39350 0.94990 0.02900
C 	C 	0.76890 0.44640 0.78810 0.28400
C 	C 	0.67200 0.39140 0.80920 -0.04600
C 	C 	0.69110 0.37790 0.85820 -0.07600
H 	H 	0.76490 0.40090 0.87750 0.06800
C 	C 	0.60140 0.32990 0.87980 0.04700
C 	C 	0.49800 0.29460 0.84880 -0.09500
H 	H 	0.43750 0.26220 0.86190 0.07200
C 	C 	0.48500 0.30750 0.79900 -0.00000
H 	H 	0.42020 0.28240 0.77860 0.03300
C 	C 	0.56730 0.35810 0.77880 -0.06000
H 	H 	0.55170 0.36880 0.74590 0.05800
C 	C 	0.80560 0.38110 0.20060 0.31200
C 	C 	0.69960 0.33840 0.17030 -0.09200
C 	C 	0.71150 0.33790 0.11930 -0.02700
H 	H 	0.78860 0.36370 0.10380 0.05700
C 	C 	0.61100 0.29980 0.09080 -0.00900
C 	C 	0.50400 0.25970 0.11520 -0.04700
H 	H 	0.43800 0.23290 0.09700 0.05000
C 	C 	0.49480 0.25900 0.16580 -0.04500
H 	H 	0.42310 0.23150 0.18150 0.05000
C 	C 	0.58990 0.29850 0.19360 -0.01800
H 	H 	0.58070 0.29840 0.22790 0.03900
Cd	Cd	0.48106 0.53515 0.74510 1.21100
N 	N 	0.18750 0.35300 0.48600 -0.12200
O 	O 	0.22420 0.46870 0.75260 -0.47900
O 	O 	0.38770 0.46820 0.68670 -0.38900
O 	O 	0.25470 0.39750 0.25710 -0.48200
O 	O 	0.43970 0.40100 0.31810 -0.39100
C 	C 	0.11400 0.30440 0.46450 0.07700
C 	C 	0.04100 0.25920 0.49400 -0.10500
H 	H 	0.99620 0.22430 0.47990 0.07300
C 	C 	0.03800 0.26790 0.54410 -0.00200
H 	H 	0.98470 0.23930 0.56400 0.03700
C 	C 	0.11100 0.31770 0.56580 -0.03700
C 	C 	0.18200 0.35910 0.53590 0.02300
H 	H 	0.22930 0.39350 0.55010 0.02900
C 	C 	0.26890 0.44640 0.71190 0.28400
C 	C 	0.17200 0.39140 0.69080 -0.04600
C 	C 	0.19110 0.37790 0.64180 -0.07500
H 	H 	0.26490 0.40090 0.62250 0.06800
C 	C 	0.10140 0.32990 0.62020 0.04600
C 	C 	0.99800 0.29460 0.65120 -0.09400
H 	H 	0.93750 0.26220 0.63810 0.07200
C 	C 	0.98500 0.30750 0.70100 -0.00100
H 	H 	0.92020 0.28240 0.72140 0.03300
C 	C 	0.06730 0.35810 0.72120 -0.06000
H 	H 	0.05170 0.36880 0.75410 0.05800
C 	C 	0.30560 0.38110 0.29940 0.31000
C 	C 	0.19960 0.33840 0.32970 -0.08900
C 	C 	0.21150 0.33790 0.38070 -0.03100
H 	H 	0.28860 0.36370 0.39620 0.05800
C 	C 	0.11100 0.29980 0.40920 -0.00500
C 	C 	0.00400 0.25970 0.38480 -0.05500
H 	H 	0.93800 0.23290 0.40300 0.05400
C 	C 	0.99480 0.25900 0.33420 -0.03600
H 	H 	0.92310 0.23150 0.31850 0.04800
C 	C 	0.08990 0.29850 0.30640 -0.02400
H 	H 	0.08070 0.29840 0.27210 0.04100
Cd	Cd	0.01894 0.46485 0.24510 1.21000
N 	N 	0.31250 0.64700 0.98600 -0.12200
O 	O 	0.27580 0.53130 0.25260 -0.47900
O 	O 	0.11230 0.53180 0.18670 -0.39000
O 	O 	0.24530 0.60250 0.75710 -0.48200
O 	O 	0.06030 0.59900 0.81810 -0.39000
C 	C 	0.38600 0.69560 0.96450 0.07800
C 	C 	0.45900 0.74080 0.99400 -0.10300
H 	H 	0.50380 0.77570 0.97990 0.07300
C 	C 	0.46200 0.73210 0.04410 -0.00200
H 	H 	0.51530 0.76070 0.06400 0.03600
C 	C 	0.38900 0.68230 0.06580 -0.03700
C 	C 	0.31800 0.64090 0.03590 0.02200
H 	H 	0.27070 0.60650 0.05010 0.02900
C 	C 	0.23110 0.55360 0.21190 0.28400
C 	C 	0.32800 0.60860 0.19080 -0.04600
C 	C 	0.30890 0.62210 0.14180 -0.07600
H 	H 	0.23510 0.59910 0.12250 0.06800
C 	C 	0.39860 0.67010 0.12020 0.04700
C 	C 	0.50200 0.70540 0.15120 -0.09500
H 	H 	0.56250 0.73780 0.13810 0.07200
C 	C 	0.51500 0.69250 0.20100 -0.00000
H 	H 	0.57980 0.71760 0.22140 0.03300
C 	C 	0.43270 0.64190 0.22120 -0.06000
H 	H 	0.44830 0.63120 0.25410 0.05800
C 	C 	0.19440 0.61890 0.79940 0.31200
C 	C 	0.30040 0.66160 0.82970 -0.09200
C 	C 	0.28850 0.66210 0.88070 -0.02700
H 	H 	0.21140 0.63630 0.89620 0.05700
C 	C 	0.38900 0.70020 0.90920 -0.00900
C 	C 	0.49600 0.74030 0.88480 -0.04700
H 	H 	0.56200 0.76710 0.90300 0.05000
C 	C 	0.50520 0.74100 0.83420 -0.04500
H 	H 	0.57690 0.76850 0.81850 0.05000
C 	C 	0.41010 0.70150 0.80640 -0.01800
H 	H 	0.41930 0.70160 0.77210 0.03900
