data_crystal

_cell_length_a 9.33940
_cell_length_b 12.92500
_cell_length_c 14.06400
_cell_angle_alpha 103.44000
_cell_angle_beta  102.03000
_cell_angle_gamma 101.85000

_symmetry_space_group_name_	'P 1'
_symmetry_space_group_name_H-M	'P 1'

loop_
_symmetry_equiv_pos_as_xyz
  x,y,z

loop_
_atom_site_label
_atom_site_type_symbol
_atom_site_fract_x
_atom_site_fract_y
_atom_site_fract_z
_atom_site_charge
Gd	Gd	0.01227 0.29289 0.23267 1.41300
Cl	Cl	0.92197 0.47225 0.28834 -0.49300
Cl	Cl	0.06694 0.09725 0.18145 -0.49300
Cl	Cl	0.24879 0.40720 0.18579 -0.46700
N 	N 	0.93160 0.22720 0.37910 -0.21500
N 	N 	0.90980 0.27410 0.04550 -0.21500
C 	C 	0.85620 0.28660 0.43150 0.10700
H 	H 	0.80200 0.32940 0.39940 -0.00500
C 	C 	0.85330 0.28870 0.52950 -0.18000
H 	H 	0.79970 0.33320 0.56360 0.10100
C 	C 	0.92850 0.22590 0.57820 0.15500
C 	C 	0.00070 0.15970 0.52260 -0.19100
H 	H 	0.05060 0.11290 0.55180 0.09400
C 	C 	0.99920 0.16240 0.42450 0.11300
H 	H 	0.04830 0.11620 0.38760 -0.00400
C 	C 	0.93920 0.23130 0.68760 -0.17100
H 	H 	0.03510 0.28610 0.72990 0.10600
H 	H 	0.94610 0.15860 0.69660 0.08400
C 	C 	0.81000 0.26100 0.72810 -0.16200
H 	H 	0.80190 0.33400 0.72070 0.09300
H 	H 	0.71320 0.20580 0.68800 0.07700
C 	C 	0.83600 0.26420 0.83860 0.15900
C 	C 	0.85200 0.35970 0.91310 -0.20400
H 	H 	0.83790 0.42400 0.89500 0.12600
C 	C 	0.88870 0.36170 0.01450 0.13200
H 	H 	0.89940 0.42850 0.06450 -0.00200
C 	C 	0.89090 0.18050 0.97300 0.11500
H 	H 	0.90400 0.11700 0.99300 0.00900
C 	C 	0.85290 0.17210 0.87020 -0.19400
H 	H 	0.83860 0.10350 0.82150 0.11900
N 	N 	0.23230 0.35220 0.39500 -0.20300
C 	C 	0.23490 0.41850 0.48460 0.09200
H 	H 	0.15380 0.45180 0.48820 0.00900
C 	C 	0.35060 0.44060 0.57190 -0.13000
H 	H 	0.34810 0.48790 0.63400 0.10500
C 	C 	0.46960 0.39310 0.56770 0.05600
H 	H 	0.55130 0.40780 0.62620 0.02900
C 	C 	0.46630 0.32400 0.47620 -0.12900
H 	H 	0.54490 0.28820 0.47110 0.07300
C 	C 	0.34840 0.30680 0.39190 0.08700
H 	H 	0.34960 0.26070 0.32880 0.00900
N 	N 	0.72580 0.19340 0.17610 -0.20700
C 	C 	0.61820 0.24540 0.15470 0.08600
H 	H 	0.64950 0.32130 0.15820 0.01500
C 	C 	0.46500 0.19510 0.12800 -0.13100
H 	H 	0.39300 0.23570 0.11450 0.10400
C 	C 	0.41810 0.08540 0.12120 0.05200
H 	H 	0.31300 0.04840 0.10250 0.03800
C 	C 	0.52640 0.02980 0.14200 -0.12500
H 	H 	0.49730 0.95340 0.13690 0.07600
C 	C 	0.67750 0.08670 0.17020 0.08100
H 	H 	0.75120 0.04820 0.18630 0.00800
Gd	Gd	0.98773 0.70711 0.76733 1.41200
Cl	Cl	0.07803 0.52775 0.71166 -0.49400
Cl	Cl	0.93306 0.90275 0.81855 -0.49400
Cl	Cl	0.75121 0.59280 0.81421 -0.46800
N 	N 	0.06840 0.77280 0.62090 -0.21500
N 	N 	0.09020 0.72590 0.95450 -0.21500
C 	C 	0.14380 0.71340 0.56850 0.10700
H 	H 	0.19800 0.67060 0.60060 -0.00500
C 	C 	0.14670 0.71130 0.47050 -0.18000
H 	H 	0.20030 0.66680 0.43640 0.10100
C 	C 	0.07150 0.77410 0.42180 0.15500
C 	C 	0.99930 0.84030 0.47740 -0.19100
H 	H 	0.94940 0.88710 0.44820 0.09400
C 	C 	0.00080 0.83760 0.57550 0.11300
H 	H 	0.95170 0.88380 0.61240 -0.00400
C 	C 	0.06080 0.76870 0.31240 -0.17100
H 	H 	0.96490 0.71390 0.27010 0.10600
H 	H 	0.05390 0.84140 0.30340 0.08400
C 	C 	0.19000 0.73900 0.27190 -0.16200
H 	H 	0.19810 0.66600 0.27930 0.09300
H 	H 	0.28680 0.79420 0.31200 0.07700
C 	C 	0.16400 0.73580 0.16140 0.15900
C 	C 	0.14800 0.64030 0.08690 -0.20400
H 	H 	0.16210 0.57600 0.10500 0.12600
C 	C 	0.11130 0.63830 0.98550 0.13200
H 	H 	0.10060 0.57150 0.93550 -0.00200
C 	C 	0.10910 0.81950 0.02700 0.11500
H 	H 	0.09600 0.88300 0.00700 0.00900
C 	C 	0.14710 0.82790 0.12980 -0.19400
H 	H 	0.16140 0.89650 0.17850 0.11900
N 	N 	0.76770 0.64780 0.60500 -0.20300
C 	C 	0.76510 0.58150 0.51540 0.09200
H 	H 	0.84620 0.54820 0.51180 0.00900
C 	C 	0.64940 0.55940 0.42810 -0.13000
H 	H 	0.65190 0.51210 0.36600 0.10500
C 	C 	0.53040 0.60690 0.43230 0.05600
H 	H 	0.44870 0.59220 0.37380 0.02900
C 	C 	0.53370 0.67600 0.52380 -0.12900
H 	H 	0.45510 0.71180 0.52890 0.07300
C 	C 	0.65160 0.69320 0.60810 0.08700
H 	H 	0.65040 0.73930 0.67120 0.00900
N 	N 	0.27420 0.80660 0.82390 -0.20700
C 	C 	0.38180 0.75460 0.84530 0.08600
H 	H 	0.35050 0.67870 0.84180 0.01500
C 	C 	0.53500 0.80490 0.87200 -0.13100
H 	H 	0.60700 0.76430 0.88550 0.10400
C 	C 	0.58190 0.91460 0.87880 0.05200
H 	H 	0.68700 0.95160 0.89750 0.03800
C 	C 	0.47360 0.97020 0.85800 -0.12500
H 	H 	0.50270 0.04660 0.86310 0.07600
C 	C 	0.32250 0.91330 0.82980 0.08100
H 	H 	0.24880 0.95180 0.81370 0.00800
