data_crystal

_cell_length_a 11.30800
_cell_length_b 26.71720
_cell_length_c 14.00450
_cell_angle_alpha 90.00000
_cell_angle_beta  99.47700
_cell_angle_gamma 90.00000

_symmetry_space_group_name_	'P 1'
_symmetry_space_group_name_H-M	'P 1'

loop_
_symmetry_equiv_pos_as_xyz
  x,y,z

loop_
_atom_site_label
_atom_site_type_symbol
_atom_site_fract_x
_atom_site_fract_y
_atom_site_fract_z
_atom_site_charge
N 	N 	0.54634 0.31985 0.61741 -0.23800
N 	N 	0.38595 0.26958 0.69162 -0.21500
N 	N 	0.63007 0.37946 0.78649 -0.22800
N 	N 	0.74125 0.44872 0.74845 -0.13300
N 	N 	0.63726 0.39957 0.62371 -0.17100
C 	C 	0.50899 0.27685 0.56821 0.06400
C 	C 	0.61786 0.35209 0.58022 0.15900
C 	C 	0.41571 0.24942 0.60929 0.04600
C 	C 	0.29359 0.24962 0.72839 0.07100
H 	H 	0.27150 0.26420 0.78320 -0.00700
C 	C 	0.67002 0.40812 0.72342 0.16700
C 	C 	0.55010 0.26343 0.48420 -0.14600
H 	H 	0.52460 0.23400 0.45170 0.07600
C 	C 	0.81050 0.47597 0.68566 -0.00300
H 	H 	0.89490 0.47470 0.71350 0.03800
H 	H 	0.78600 0.51080 0.68230 0.03000
C 	C 	0.23030 0.20828 0.68782 -0.13400
H 	H 	0.16690 0.19540 0.71480 0.06300
C 	C 	0.67990 0.38872 0.88840 0.00700
H 	H 	0.76120 0.37600 0.90240 0.02900
H 	H 	0.63230 0.37140 0.92970 0.01700
C 	C 	0.26340 0.18651 0.60617 0.03700
H 	H 	0.22420 0.15800 0.57900 0.00600
C 	C 	0.35560 0.20766 0.56551 -0.11400
H 	H 	0.37710 0.19410 0.50960 0.06400
C 	C 	0.76040 0.46879 0.84735 -0.00200
H 	H 	0.74560 0.50460 0.84490 0.02600
H 	H 	0.84330 0.46350 0.87680 0.03300
C 	C 	0.66100 0.44122 0.56014 0.00700
H 	H 	0.61250 0.47000 0.57050 0.02500
H 	H 	0.64110 0.43130 0.49280 0.02100
C 	C 	0.79330 0.45436 0.58444 -0.16600
H 	H 	0.84250 0.42470 0.58250 0.08500
H 	H 	0.81490 0.47870 0.53890 0.07200
C 	C 	0.66400 0.33965 0.49661 -0.18800
H 	H 	0.71680 0.36120 0.47280 0.09500
C 	C 	0.67950 0.44438 0.90881 -0.16600
H 	H 	0.59880 0.45760 0.89270 0.07900
H 	H 	0.70860 0.45070 0.97680 0.07000
C 	C 	0.63070 0.29515 0.44975 0.08000
H 	H 	0.66240 0.28640 0.39490 -0.00200
N 	N 	0.45366 0.31985 0.88259 -0.23800
N 	N 	0.61405 0.26958 0.80838 -0.21600
N 	N 	0.36993 0.37946 0.71351 -0.23100
N 	N 	0.25875 0.44872 0.75155 -0.13900
N 	N 	0.36274 0.39957 0.87629 -0.17000
C 	C 	0.49101 0.27685 0.93179 0.06100
C 	C 	0.38214 0.35209 0.91978 0.15300
C 	C 	0.58429 0.24942 0.89071 0.04800
C 	C 	0.70641 0.24962 0.77161 0.07600
H 	H 	0.72850 0.26420 0.71680 -0.00200
C 	C 	0.32998 0.40812 0.77658 0.16300
C 	C 	0.44990 0.26343 0.01580 -0.14200
H 	H 	0.47540 0.23400 0.04830 0.07500
C 	C 	0.18950 0.47597 0.81434 0.00400
H 	H 	0.10510 0.47470 0.78650 0.01000
H 	H 	0.21400 0.51080 0.81770 0.02000
C 	C 	0.76970 0.20828 0.81218 -0.13100
H 	H 	0.83310 0.19540 0.78520 0.08100
C 	C 	0.32010 0.38872 0.61160 0.01800
H 	H 	0.23880 0.37600 0.59760 0.01700
H 	H 	0.36770 0.37140 0.57030 0.01200
C 	C 	0.73660 0.18651 0.89383 0.04500
H 	H 	0.77580 0.15800 0.92100 0.01400
C 	C 	0.64440 0.20766 0.93449 -0.11500
H 	H 	0.62290 0.19410 0.99040 0.06500
C 	C 	0.23960 0.46879 0.65265 0.01500
H 	H 	0.25440 0.50460 0.65510 0.01600
H 	H 	0.15670 0.46350 0.62320 0.01100
C 	C 	0.33900 0.44122 0.93986 0.00100
H 	H 	0.38750 0.47000 0.92950 0.02700
H 	H 	0.35890 0.43130 0.00720 0.02300
C 	C 	0.20670 0.45436 0.91556 -0.16100
H 	H 	0.15750 0.42470 0.91750 0.06700
H 	H 	0.18510 0.47870 0.96110 0.05800
C 	C 	0.33600 0.33965 0.00339 -0.18300
H 	H 	0.28320 0.36120 0.02720 0.08700
C 	C 	0.32050 0.44438 0.59119 -0.18200
H 	H 	0.40120 0.45760 0.60730 0.08400
H 	H 	0.29140 0.45070 0.52320 0.07100
C 	C 	0.36930 0.29515 0.05025 0.07500
H 	H 	0.33760 0.28640 0.10510 -0.00200
Ru	Ru	0.50000 0.32554 0.75000 0.95900
N 	N 	0.04634 0.81985 0.61741 -0.23400
N 	N 	0.88595 0.76958 0.69162 -0.21500
N 	N 	0.13007 0.87946 0.78649 -0.23300
N 	N 	0.24125 0.94872 0.74845 -0.13700
N 	N 	0.13726 0.89957 0.62371 -0.17400
C 	C 	0.00899 0.77685 0.56821 -0.00500
C 	C 	0.11786 0.85209 0.58022 0.14300
C 	C 	0.91571 0.74942 0.60929 0.11500
C 	C 	0.79359 0.74962 0.72839 0.08800
H 	H 	0.77150 0.76420 0.78320 -0.00800
C 	C 	0.17002 0.90812 0.72342 0.16000
C 	C 	0.05010 0.76343 0.48420 -0.10900
H 	H 	0.02460 0.73400 0.45170 0.04700
C 	C 	0.31050 0.97597 0.68566 0.00500
H 	H 	0.39490 0.97470 0.71350 0.02300
H 	H 	0.28600 0.01080 0.68230 0.02100
C 	C 	0.73030 0.70828 0.68782 -0.15000
H 	H 	0.66690 0.69540 0.71480 0.07900
C 	C 	0.17990 0.88872 0.88840 0.00900
H 	H 	0.26120 0.87600 0.90240 0.02400
H 	H 	0.13230 0.87140 0.92970 0.00500
C 	C 	0.76340 0.68651 0.60617 0.07100
H 	H 	0.72420 0.65800 0.57900 0.00200
C 	C 	0.85560 0.70766 0.56551 -0.15100
H 	H 	0.87710 0.69410 0.50960 0.09100
C 	C 	0.26040 0.96879 0.84735 0.00100
H 	H 	0.24560 0.00460 0.84490 0.01900
H 	H 	0.34330 0.96350 0.87680 0.02400
C 	C 	0.16100 0.94122 0.56014 0.01400
H 	H 	0.11250 0.97000 0.57050 0.01200
H 	H 	0.14110 0.93130 0.49280 0.01200
C 	C 	0.29330 0.95436 0.58444 -0.17100
H 	H 	0.34250 0.92470 0.58250 0.07800
H 	H 	0.31490 0.97870 0.53890 0.06700
C 	C 	0.16400 0.83965 0.49661 -0.17100
H 	H 	0.21680 0.86120 0.47280 0.08400
C 	C 	0.17950 0.94438 0.90881 -0.16600
H 	H 	0.09880 0.95760 0.89270 0.06700
H 	H 	0.20860 0.95070 0.97680 0.06400
C 	C 	0.13070 0.79515 0.44975 0.04600
H 	H 	0.16240 0.78640 0.39490 0.00400
N 	N 	0.95366 0.81985 0.88259 -0.23500
N 	N 	0.11405 0.76958 0.80838 -0.20900
N 	N 	0.86993 0.87946 0.71351 -0.21800
N 	N 	0.75875 0.94872 0.75155 -0.13500
N 	N 	0.86274 0.89957 0.87629 -0.16500
C 	C 	0.99101 0.77685 0.93179 0.13100
C 	C 	0.88214 0.85209 0.91978 0.16900
C 	C 	0.08429 0.74942 0.89071 -0.01900
C 	C 	0.20641 0.74962 0.77161 0.05800
H 	H 	0.22850 0.76420 0.71680 -0.00000
C 	C 	0.82998 0.90812 0.77658 0.17100
C 	C 	0.94990 0.76343 0.01580 -0.18000
H 	H 	0.97540 0.73400 0.04830 0.10500
C 	C 	0.68950 0.97597 0.81434 -0.00300
H 	H 	0.60510 0.97470 0.78650 0.02500
H 	H 	0.71400 0.01080 0.81770 0.02800
C 	C 	0.26970 0.70828 0.81218 -0.11400
H 	H 	0.33310 0.69540 0.78520 0.06400
C 	C 	0.82010 0.88872 0.61160 0.01600
H 	H 	0.73880 0.87600 0.59760 0.02300
H 	H 	0.86770 0.87140 0.57030 0.02600
C 	C 	0.23660 0.68651 0.89383 0.01100
H 	H 	0.27580 0.65800 0.92100 0.01800
C 	C 	0.14440 0.70766 0.93449 -0.07800
H 	H 	0.12290 0.69410 0.99040 0.03900
C 	C 	0.73960 0.96879 0.65265 0.01200
H 	H 	0.75440 0.00460 0.65510 0.02300
H 	H 	0.65670 0.96350 0.62320 0.02100
C 	C 	0.83900 0.94122 0.93986 -0.00600
H 	H 	0.88750 0.97000 0.92950 0.04000
H 	H 	0.85890 0.93130 0.00720 0.03200
C 	C 	0.70670 0.95436 0.91556 -0.15500
H 	H 	0.65750 0.92470 0.91750 0.07300
H 	H 	0.68510 0.97870 0.96110 0.06300
C 	C 	0.83600 0.83965 0.00339 -0.20100
H 	H 	0.78320 0.86120 0.02720 0.09800
C 	C 	0.82050 0.94438 0.59119 -0.18200
H 	H 	0.90120 0.95760 0.60730 0.09700
H 	H 	0.79140 0.95070 0.52320 0.07700
C 	C 	0.86930 0.79515 0.05025 0.11000
H 	H 	0.83760 0.78640 0.10510 -0.00900
Ru	Ru	0.00000 0.82554 0.75000 0.92700
N 	N 	0.45366 0.68015 0.38259 -0.23800
N 	N 	0.61405 0.73042 0.30838 -0.21600
N 	N 	0.36993 0.62054 0.21351 -0.23100
N 	N 	0.25875 0.55128 0.25155 -0.13900
N 	N 	0.36274 0.60043 0.37629 -0.17000
C 	C 	0.49101 0.72315 0.43179 0.06300
C 	C 	0.38214 0.64791 0.41978 0.15500
C 	C 	0.58429 0.75058 0.39071 0.04800
C 	C 	0.70641 0.75038 0.27161 0.07600
H 	H 	0.72850 0.73580 0.21680 -0.00200
C 	C 	0.32998 0.59188 0.27658 0.16400
C 	C 	0.44990 0.73657 0.51580 -0.14500
H 	H 	0.47540 0.76600 0.54830 0.07600
C 	C 	0.18950 0.52403 0.31434 0.00500
H 	H 	0.10510 0.52530 0.28650 0.01000
H 	H 	0.21400 0.48920 0.31770 0.01900
C 	C 	0.76970 0.79172 0.31218 -0.13000
H 	H 	0.83310 0.80460 0.28520 0.08100
C 	C 	0.32010 0.61128 0.11160 0.01800
H 	H 	0.23880 0.62400 0.09760 0.01700
H 	H 	0.36770 0.62860 0.07030 0.01200
C 	C 	0.73660 0.81349 0.39383 0.04500
H 	H 	0.77580 0.84200 0.42100 0.01500
C 	C 	0.64440 0.79234 0.43449 -0.11400
H 	H 	0.62290 0.80590 0.49040 0.06500
C 	C 	0.23960 0.53121 0.15265 0.01500
H 	H 	0.25440 0.49540 0.15510 0.01600
H 	H 	0.15670 0.53650 0.12320 0.01100
C 	C 	0.33900 0.55878 0.43986 0.00400
H 	H 	0.38750 0.53000 0.42950 0.02600
H 	H 	0.35890 0.56870 0.50720 0.02100
C 	C 	0.20670 0.54564 0.41556 -0.16200
H 	H 	0.15750 0.57530 0.41750 0.06700
H 	H 	0.18510 0.52130 0.46110 0.05900
C 	C 	0.33600 0.66035 0.50339 -0.18600
H 	H 	0.28320 0.63880 0.52720 0.08800
C 	C 	0.32050 0.55562 0.09119 -0.18200
H 	H 	0.40120 0.54240 0.10730 0.08400
H 	H 	0.29140 0.54930 0.02320 0.07100
C 	C 	0.36930 0.70485 0.55025 0.07700
H 	H 	0.33760 0.71360 0.60510 -0.00300
N 	N 	0.54634 0.68015 0.11741 -0.23900
N 	N 	0.38595 0.73042 0.19162 -0.21600
N 	N 	0.63007 0.62054 0.28649 -0.22800
N 	N 	0.74125 0.55128 0.24845 -0.13300
N 	N 	0.63726 0.60043 0.12371 -0.17100
C 	C 	0.50899 0.72315 0.06821 0.06600
C 	C 	0.61786 0.64791 0.08022 0.16000
C 	C 	0.41571 0.75058 0.10929 0.04600
C 	C 	0.29359 0.75038 0.22839 0.07000
H 	H 	0.27150 0.73580 0.28320 -0.00700
C 	C 	0.67002 0.59188 0.22342 0.16700
C 	C 	0.55010 0.73657 0.98420 -0.14900
H 	H 	0.52460 0.76600 0.95170 0.07700
C 	C 	0.81050 0.52403 0.18566 -0.00200
H 	H 	0.89490 0.52530 0.21350 0.03800
H 	H 	0.78600 0.48920 0.18230 0.03000
C 	C 	0.23030 0.79172 0.18782 -0.13300
H 	H 	0.16690 0.80460 0.21480 0.06300
C 	C 	0.67990 0.61128 0.38840 0.00700
H 	H 	0.76120 0.62400 0.40240 0.03000
H 	H 	0.63230 0.62860 0.42970 0.01700
C 	C 	0.26340 0.81349 0.10617 0.03700
H 	H 	0.22420 0.84200 0.07900 0.00600
C 	C 	0.35560 0.79234 0.06551 -0.11300
H 	H 	0.37710 0.80590 0.00960 0.06500
C 	C 	0.76040 0.53121 0.34735 -0.00300
H 	H 	0.74560 0.49540 0.34490 0.02700
H 	H 	0.84330 0.53650 0.37680 0.03400
C 	C 	0.66100 0.55878 0.06014 0.01000
H 	H 	0.61250 0.53000 0.07050 0.02400
H 	H 	0.64110 0.56870 0.99280 0.01900
C 	C 	0.79330 0.54564 0.08444 -0.16700
H 	H 	0.84250 0.57530 0.08250 0.08500
H 	H 	0.81490 0.52130 0.03890 0.07200
C 	C 	0.66400 0.66035 0.99661 -0.19100
H 	H 	0.71680 0.63880 0.97280 0.09500
C 	C 	0.67950 0.55562 0.40881 -0.16600
H 	H 	0.59880 0.54240 0.39270 0.07900
H 	H 	0.70860 0.54930 0.47680 0.07000
C 	C 	0.63070 0.70485 0.94975 0.08300
H 	H 	0.66240 0.71360 0.89490 -0.00300
Ru	Ru	0.50000 0.67446 0.25000 0.95900
N 	N 	0.95366 0.18015 0.38259 -0.23500
N 	N 	0.11405 0.23042 0.30838 -0.20900
N 	N 	0.86993 0.12054 0.21351 -0.21800
N 	N 	0.75875 0.05128 0.25155 -0.13600
N 	N 	0.86274 0.10043 0.37629 -0.16500
C 	C 	0.99101 0.22315 0.43179 0.13400
C 	C 	0.88214 0.14791 0.41978 0.17100
C 	C 	0.08429 0.25058 0.39071 -0.02000
C 	C 	0.20641 0.25038 0.27161 0.05800
H 	H 	0.22850 0.23580 0.21680 -0.00000
C 	C 	0.82998 0.09188 0.27658 0.17200
C 	C 	0.94990 0.23657 0.51580 -0.18300
H 	H 	0.97540 0.26600 0.54830 0.10600
C 	C 	0.68950 0.02403 0.31434 -0.00200
H 	H 	0.60510 0.02530 0.28650 0.02500
H 	H 	0.71400 0.98920 0.31770 0.02800
C 	C 	0.26970 0.29172 0.31218 -0.11400
H 	H 	0.33310 0.30460 0.28520 0.06400
C 	C 	0.82010 0.11128 0.11160 0.01600
H 	H 	0.73880 0.12400 0.09760 0.02300
H 	H 	0.86770 0.12860 0.07030 0.02600
C 	C 	0.23660 0.31349 0.39383 0.01000
H 	H 	0.27580 0.34200 0.42100 0.01900
C 	C 	0.14440 0.29234 0.43449 -0.07700
H 	H 	0.12290 0.30590 0.49040 0.03900
C 	C 	0.73960 0.03121 0.15265 0.01200
H 	H 	0.75440 0.99540 0.15510 0.02300
H 	H 	0.65670 0.03650 0.12320 0.02100
C 	C 	0.83900 0.05878 0.43986 -0.00400
H 	H 	0.88750 0.03000 0.42950 0.03900
H 	H 	0.85890 0.06870 0.50720 0.03100
C 	C 	0.70670 0.04564 0.41556 -0.15700
H 	H 	0.65750 0.07530 0.41750 0.07300
H 	H 	0.68510 0.02130 0.46110 0.06300
C 	C 	0.83600 0.16035 0.50339 -0.20300
H 	H 	0.78320 0.13880 0.52720 0.09900
C 	C 	0.82050 0.05562 0.09119 -0.18200
H 	H 	0.90120 0.04240 0.10730 0.09700
H 	H 	0.79140 0.04930 0.02320 0.07700
C 	C 	0.86930 0.20485 0.55025 0.11200
H 	H 	0.83760 0.21360 0.60510 -0.01000
N 	N 	0.04634 0.18015 0.11741 -0.23500
N 	N 	0.88595 0.23042 0.19162 -0.21500
N 	N 	0.13007 0.12054 0.28649 -0.23300
N 	N 	0.24125 0.05128 0.24845 -0.13700
N 	N 	0.13726 0.10043 0.12371 -0.17500
C 	C 	0.00899 0.22315 0.06821 -0.00300
C 	C 	0.11786 0.14791 0.08022 0.14500
C 	C 	0.91571 0.25058 0.10929 0.11400
C 	C 	0.79359 0.25038 0.22839 0.08800
H 	H 	0.77150 0.23580 0.28320 -0.00800
C 	C 	0.17002 0.09188 0.22342 0.16000
C 	C 	0.05010 0.23657 0.98420 -0.11200
H 	H 	0.02460 0.26600 0.95170 0.04800
C 	C 	0.31050 0.02403 0.18566 0.00500
H 	H 	0.39490 0.02530 0.21350 0.02300
H 	H 	0.28600 0.98920 0.18230 0.02100
C 	C 	0.73030 0.29172 0.18782 -0.14900
H 	H 	0.66690 0.30460 0.21480 0.07900
C 	C 	0.17990 0.11128 0.38840 0.00800
H 	H 	0.26120 0.12400 0.40240 0.02400
H 	H 	0.13230 0.12860 0.42970 0.00500
C 	C 	0.76340 0.31349 0.10617 0.07100
H 	H 	0.72420 0.34200 0.07900 0.00200
C 	C 	0.85560 0.29234 0.06551 -0.15000
H 	H 	0.87710 0.30590 0.00960 0.09000
C 	C 	0.26040 0.03121 0.34735 0.00000
H 	H 	0.24560 0.99540 0.34490 0.02000
H 	H 	0.34330 0.03650 0.37680 0.02400
C 	C 	0.16100 0.05878 0.06014 0.01700
H 	H 	0.11250 0.03000 0.07050 0.01100
H 	H 	0.14110 0.06870 0.99280 0.01000
C 	C 	0.29330 0.04564 0.08444 -0.17300
H 	H 	0.34250 0.07530 0.08250 0.07900
H 	H 	0.31490 0.02130 0.03890 0.06800
C 	C 	0.16400 0.16035 0.99661 -0.17400
H 	H 	0.21680 0.13880 0.97280 0.08400
C 	C 	0.17950 0.05562 0.40881 -0.16600
H 	H 	0.09880 0.04240 0.39270 0.06700
H 	H 	0.20860 0.04930 0.47680 0.06500
C 	C 	0.13070 0.20485 0.94975 0.04800
H 	H 	0.16240 0.21360 0.89490 0.00300
Ru	Ru	0.00000 0.17446 0.25000 0.92600
