data_crystal

_cell_length_a 9.97200
_cell_length_b 18.55680
_cell_length_c 13.97930
_cell_angle_alpha 90.00000
_cell_angle_beta  103.82600
_cell_angle_gamma 90.00000

_symmetry_space_group_name_	'P 1'
_symmetry_space_group_name_H-M	'P 1'

loop_
_symmetry_equiv_pos_as_xyz
  x,y,z

loop_
_atom_site_label
_atom_site_type_symbol
_atom_site_fract_x
_atom_site_fract_y
_atom_site_fract_z
_atom_site_charge
Cd	Cd	0.85866 0.11079 0.67020 1.13300
N 	N 	0.70350 0.08209 0.52662 -0.27200
N 	N 	0.62460 0.02707 0.38463 -0.10100
N 	N 	0.60640 0.23039 0.05077 -0.09500
N 	N 	0.50980 0.32546 0.10063 -0.26400
N 	N 	0.11260 0.07305 0.97414 -0.10000
N 	N 	0.98650 0.11494 0.83354 -0.26600
C 	C 	0.56450 0.09671 0.49280 0.00200
C 	C 	0.51520 0.06314 0.40580 -0.02800
C 	C 	0.73570 0.03994 0.46010 0.06200
C 	C 	0.62440 0.98072 0.29900 -0.20200
C 	C 	0.55430 0.01760 0.20390 0.20100
C 	C 	0.62350 0.06602 0.15760 -0.27500
C 	C 	0.55630 0.10144 0.07190 0.20800
C 	C 	0.41670 0.08745 0.03240 -0.28000
C 	C 	0.34620 0.03976 0.07930 0.19500
C 	C 	0.41550 0.00447 0.16390 -0.27900
C 	C 	0.63130 0.15550 0.02370 -0.21000
C 	C 	0.50570 0.25478 0.09120 0.06400
C 	C 	0.61880 0.34705 0.06330 0.01200
C 	C 	0.67840 0.28940 0.03190 -0.04800
C 	C 	0.19450 0.02214 0.04350 -0.18200
C 	C 	0.06940 0.06314 0.87640 0.06100
C 	C 	0.97660 0.16106 0.90880 -0.00700
C 	C 	0.05420 0.13606 0.99520 -0.02900
H 	H 	0.51500 0.12840 0.52600 -0.01200
H 	H 	0.43000 0.06090 0.36900 0.01800
H 	H 	0.82200 0.01950 0.46000 -0.04400
H 	H 	0.57600 0.93810 0.30500 0.07200
H 	H 	0.72300 0.96890 0.30500 0.06800
H 	H 	0.71500 0.07760 0.18200 0.11600
H 	H 	0.37100 0.11110 0.97800 0.13300
H 	H 	0.37100 0.97320 0.19400 0.08300
H 	H 	0.60400 0.15160 0.95000 0.07100
H 	H 	0.72600 0.14820 0.04000 0.08800
H 	H 	0.44500 0.22410 0.11300 -0.02600
H 	H 	0.63500 0.39440 0.05600 -0.01600
H 	H 	0.75000 0.28570 0.00500 0.03200
H 	H 	0.18500 0.97640 0.01300 0.07700
H 	H 	0.14700 0.02020 0.10000 0.05600
H 	H 	0.10100 0.02210 0.84500 -0.03100
H 	H 	0.92600 0.20370 0.89700 -0.01200
H 	H 	0.07100 0.15250 0.05800 0.02100
Cd	Cd	0.35866 0.38921 0.17020 1.13400
N 	N 	0.20350 0.41791 0.02662 -0.27100
N 	N 	0.12460 0.47293 0.88463 -0.10000
N 	N 	0.10640 0.26961 0.55077 -0.09400
N 	N 	0.00980 0.17454 0.60063 -0.26300
N 	N 	0.61260 0.42695 0.47414 -0.09600
N 	N 	0.48650 0.38506 0.33354 -0.26400
C 	C 	0.06450 0.40329 0.99280 0.00300
C 	C 	0.01520 0.43686 0.90580 -0.02500
C 	C 	0.23570 0.46006 0.96010 0.06300
C 	C 	0.12440 0.51928 0.79900 -0.20500
C 	C 	0.05430 0.48240 0.70390 0.20800
C 	C 	0.12350 0.43398 0.65760 -0.28300
C 	C 	0.05630 0.39856 0.57190 0.21700
C 	C 	0.91670 0.41255 0.53240 -0.29300
C 	C 	0.84620 0.46024 0.57930 0.20700
C 	C 	0.91550 0.49553 0.66390 -0.29300
C 	C 	0.13130 0.34450 0.52370 -0.21800
C 	C 	0.00570 0.24522 0.59120 0.06600
C 	C 	0.11880 0.15295 0.56330 0.01200
C 	C 	0.17840 0.21060 0.53190 -0.04800
C 	C 	0.69450 0.47786 0.54350 -0.19600
C 	C 	0.56940 0.43686 0.37640 0.05700
C 	C 	0.47660 0.33894 0.40880 -0.00200
C 	C 	0.55420 0.36394 0.49520 -0.03400
H 	H 	0.01500 0.37160 0.02600 -0.01300
H 	H 	0.93000 0.43910 0.86900 0.01500
H 	H 	0.32200 0.48050 0.96000 -0.04400
H 	H 	0.07600 0.56190 0.80500 0.07300
H 	H 	0.22300 0.53110 0.80500 0.06800
H 	H 	0.21500 0.42240 0.68200 0.11800
H 	H 	0.87100 0.38890 0.47800 0.13900
H 	H 	0.87100 0.52680 0.69400 0.08900
H 	H 	0.10400 0.34840 0.45000 0.07400
H 	H 	0.22600 0.35180 0.54000 0.09000
H 	H 	0.94500 0.27590 0.61300 -0.02700
H 	H 	0.13500 0.10560 0.55600 -0.01600
H 	H 	0.25000 0.21430 0.50500 0.03200
H 	H 	0.68500 0.52360 0.51300 0.08500
H 	H 	0.64700 0.47980 0.60000 0.05900
H 	H 	0.60100 0.47790 0.34500 -0.03100
H 	H 	0.42600 0.29630 0.39700 -0.01300
H 	H 	0.57100 0.34750 0.55800 0.02200
Cd	Cd	0.64134 0.61079 0.82980 1.13400
N 	N 	0.79650 0.58209 0.97338 -0.27100
N 	N 	0.87540 0.52707 0.11537 -0.10000
N 	N 	0.89360 0.73039 0.44923 -0.09400
N 	N 	0.99020 0.82546 0.39937 -0.26300
N 	N 	0.38740 0.57305 0.52586 -0.09600
N 	N 	0.51350 0.61494 0.66646 -0.26400
C 	C 	0.93550 0.59671 0.00720 0.00300
C 	C 	0.98480 0.56314 0.09420 -0.02500
C 	C 	0.76430 0.53994 0.03990 0.06300
C 	C 	0.87560 0.48072 0.20100 -0.20500
C 	C 	0.94570 0.51760 0.29610 0.20800
C 	C 	0.87650 0.56602 0.34240 -0.28300
C 	C 	0.94370 0.60144 0.42810 0.21700
C 	C 	0.08330 0.58745 0.46760 -0.29300
C 	C 	0.15380 0.53976 0.42070 0.20700
C 	C 	0.08450 0.50447 0.33610 -0.29300
C 	C 	0.86870 0.65550 0.47630 -0.21800
C 	C 	0.99430 0.75478 0.40880 0.06600
C 	C 	0.88120 0.84705 0.43670 0.01200
C 	C 	0.82160 0.78940 0.46810 -0.04800
C 	C 	0.30550 0.52214 0.45650 -0.19600
C 	C 	0.43060 0.56314 0.62360 0.05700
C 	C 	0.52340 0.66106 0.59120 -0.00200
C 	C 	0.44580 0.63606 0.50480 -0.03400
H 	H 	0.98500 0.62840 0.97400 -0.01300
H 	H 	0.07000 0.56090 0.13100 0.01500
H 	H 	0.67800 0.51950 0.04000 -0.04400
H 	H 	0.92400 0.43810 0.19500 0.07300
H 	H 	0.77700 0.46890 0.19500 0.06800
H 	H 	0.78500 0.57760 0.31800 0.11800
H 	H 	0.12900 0.61110 0.52200 0.13900
H 	H 	0.12900 0.47320 0.30600 0.08900
H 	H 	0.89600 0.65160 0.55000 0.07400
H 	H 	0.77400 0.64820 0.46000 0.09000
H 	H 	0.05500 0.72410 0.38700 -0.02700
H 	H 	0.86500 0.89440 0.44400 -0.01600
H 	H 	0.75000 0.78570 0.49500 0.03200
H 	H 	0.31500 0.47640 0.48700 0.08500
H 	H 	0.35300 0.52020 0.40000 0.05900
H 	H 	0.39900 0.52210 0.65500 -0.03100
H 	H 	0.57400 0.70370 0.60300 -0.01300
H 	H 	0.42900 0.65250 0.44200 0.02200
Cd	Cd	0.14134 0.88921 0.32980 1.13400
N 	N 	0.29650 0.91791 0.47338 -0.27100
N 	N 	0.37540 0.97293 0.61537 -0.10000
N 	N 	0.39360 0.76961 0.94923 -0.09400
N 	N 	0.49020 0.67454 0.89937 -0.26300
N 	N 	0.88740 0.92695 0.02586 -0.09900
N 	N 	0.01350 0.88506 0.16646 -0.26500
C 	C 	0.43550 0.90329 0.50720 0.00300
C 	C 	0.48480 0.93686 0.59420 -0.02800
C 	C 	0.26430 0.96006 0.53990 0.06200
C 	C 	0.37560 0.01928 0.70100 -0.20200
C 	C 	0.44570 0.98240 0.79610 0.20100
C 	C 	0.37650 0.93398 0.84240 -0.27500
C 	C 	0.44370 0.89856 0.92810 0.20800
C 	C 	0.58330 0.91255 0.96760 -0.28000
C 	C 	0.65380 0.96024 0.92070 0.19500
C 	C 	0.58450 0.99553 0.83610 -0.27900
C 	C 	0.36870 0.84450 0.97630 -0.21000
C 	C 	0.49430 0.74522 0.90880 0.06400
C 	C 	0.38120 0.65295 0.93670 0.01200
C 	C 	0.32160 0.71060 0.96810 -0.04800
C 	C 	0.80550 0.97786 0.95650 -0.18200
C 	C 	0.93060 0.93686 0.12360 0.06100
C 	C 	0.02340 0.83894 0.09120 -0.00700
C 	C 	0.94580 0.86394 0.00480 -0.02900
H 	H 	0.48500 0.87160 0.47400 -0.01200
H 	H 	0.57000 0.93910 0.63100 0.01800
H 	H 	0.17800 0.98050 0.54000 -0.04400
H 	H 	0.42400 0.06190 0.69500 0.07200
H 	H 	0.27700 0.03110 0.69500 0.06800
H 	H 	0.28500 0.92240 0.81800 0.11600
H 	H 	0.62900 0.88890 0.02200 0.13300
H 	H 	0.62900 0.02680 0.80600 0.08300
H 	H 	0.39600 0.84840 0.05000 0.07100
H 	H 	0.27400 0.85180 0.96000 0.08800
H 	H 	0.55500 0.77590 0.88700 -0.02600
H 	H 	0.36500 0.60560 0.94400 -0.01600
H 	H 	0.25000 0.71430 0.99500 0.03200
H 	H 	0.81500 0.02360 0.98700 0.07700
H 	H 	0.85300 0.97980 0.90000 0.05600
H 	H 	0.89900 0.97790 0.15500 -0.03100
H 	H 	0.07400 0.79630 0.10300 -0.01200
H 	H 	0.92900 0.84750 0.94200 0.02100
