data_crystal

_cell_length_a 13.22880
_cell_length_b 23.01900
_cell_length_c 25.38600
_cell_angle_alpha 87.37500
_cell_angle_beta  80.11500
_cell_angle_gamma 85.16100

_symmetry_space_group_name_	'P 1'
_symmetry_space_group_name_H-M	'P 1'

loop_
_symmetry_equiv_pos_as_xyz
  x,y,z

loop_
_atom_site_label
_atom_site_type_symbol
_atom_site_fract_x
_atom_site_fract_y
_atom_site_fract_z
_atom_site_charge
W 	W 	0.13755 0.30546 0.28018 1.04500
W 	W 	0.89433 0.24290 0.11330 1.03100
W 	W 	0.15165 0.17025 0.08142 1.04500
W 	W 	0.93972 0.09123 0.15541 0.98400
W 	W 	0.79476 0.27245 0.23900 1.03900
W 	W 	0.24638 0.27029 0.14365 1.01000
W 	W 	0.28466 0.13020 0.17896 1.04300
W 	W 	0.83607 0.11952 0.28023 1.02000
W 	W 	0.07315 0.05221 0.25203 1.02200
W 	W 	0.98770 0.34519 0.17446 1.02700
W 	W 	0.94335 0.23228 0.34494 1.04900
W 	W 	0.17880 0.16568 0.31683 1.04300
B 	B 	0.03890 0.19980 0.21260 1.69600
O 	O 	0.03060 0.21870 0.07950 -0.48300
O 	O 	0.12460 0.31770 0.14110 -0.47000
O 	O 	0.87810 0.16270 0.13120 -0.46700
O 	O 	0.78220 0.19270 0.25260 -0.47800
O 	O 	0.04700 0.34350 0.23790 -0.48100
O 	O 	0.85960 0.27260 0.29960 -0.48700
O 	O 	0.02020 0.03150 0.19150 -0.44800
O 	O 	0.85340 0.34450 0.21460 -0.46300
O 	O 	0.13870 0.19450 0.17070 -0.69000
O 	O 	0.99180 0.14130 0.21870 -0.70100
O 	O 	0.23110 0.23590 0.07850 -0.46000
O 	O 	0.19030 0.07350 0.20310 -0.47800
O 	O 	0.33540 0.20300 0.15610 -0.45800
O 	O 	0.06520 0.11000 0.10930 -0.46700
O 	O 	0.06600 0.21780 0.26460 -0.70700
O 	O 	0.96180 0.24530 0.19240 -0.70100
O 	O 	0.93610 0.32040 0.11340 -0.45500
O 	O 	0.77630 0.26500 0.16610 -0.45200
O 	O 	0.26080 0.12270 0.10650 -0.44400
O 	O 	0.82730 0.08740 0.21410 -0.45300
O 	O 	0.26630 0.15440 0.25090 -0.48700
O 	O 	0.88810 0.16470 0.32940 -0.49000
O 	O 	0.02680 0.29680 0.33860 -0.46300
O 	O 	0.11380 0.09990 0.30280 -0.48400
O 	O 	0.93330 0.05770 0.29170 -0.46100
O 	O 	0.21260 0.24390 0.31540 -0.46300
O 	O 	0.05660 0.18690 0.36700 -0.46200
O 	O 	0.22980 0.28800 0.21630 -0.47900
W 	W 	0.86245 0.69454 0.71982 1.04400
W 	W 	0.10567 0.75710 0.88670 1.03000
W 	W 	0.84835 0.82975 0.91858 1.04400
W 	W 	0.06028 0.90877 0.84459 0.98300
W 	W 	0.20524 0.72755 0.76100 1.03800
W 	W 	0.75362 0.72971 0.85635 1.00900
W 	W 	0.71534 0.86980 0.82104 1.04300
W 	W 	0.16393 0.88048 0.71977 1.02000
W 	W 	0.92685 0.94779 0.74797 1.02200
W 	W 	0.01230 0.65481 0.82554 1.02700
W 	W 	0.05665 0.76772 0.65506 1.04900
W 	W 	0.82120 0.83432 0.68317 1.04300
B 	B 	0.96110 0.80020 0.78740 1.69600
O 	O 	0.96940 0.78130 0.92050 -0.48300
O 	O 	0.87540 0.68230 0.85890 -0.47000
O 	O 	0.12190 0.83730 0.86880 -0.46700
O 	O 	0.21780 0.80730 0.74740 -0.47800
O 	O 	0.95300 0.65650 0.76210 -0.48100
O 	O 	0.14040 0.72740 0.70040 -0.48700
O 	O 	0.97980 0.96850 0.80850 -0.44800
O 	O 	0.14660 0.65550 0.78540 -0.46300
O 	O 	0.86130 0.80550 0.82930 -0.69000
O 	O 	0.00820 0.85870 0.78130 -0.70100
O 	O 	0.76890 0.76410 0.92150 -0.46000
O 	O 	0.80970 0.92650 0.79690 -0.47800
O 	O 	0.66460 0.79700 0.84390 -0.45800
O 	O 	0.93480 0.89000 0.89070 -0.46700
O 	O 	0.93400 0.78220 0.73540 -0.70700
O 	O 	0.03820 0.75470 0.80760 -0.70100
O 	O 	0.06390 0.67960 0.88660 -0.45500
O 	O 	0.22370 0.73500 0.83390 -0.45200
O 	O 	0.73920 0.87730 0.89350 -0.44400
O 	O 	0.17270 0.91260 0.78590 -0.45300
O 	O 	0.73370 0.84560 0.74910 -0.48700
O 	O 	0.11190 0.83530 0.67060 -0.49000
O 	O 	0.97320 0.70320 0.66140 -0.46300
O 	O 	0.88620 0.90010 0.69720 -0.48400
O 	O 	0.06670 0.94230 0.70830 -0.46100
O 	O 	0.78740 0.75610 0.68460 -0.46300
O 	O 	0.94340 0.81310 0.63300 -0.46200
O 	O 	0.77020 0.71200 0.78370 -0.47900
Co	Co	0.83446 0.96232 0.10852 1.08800
O 	O 	0.78520 0.00310 0.03630 -0.41100
O 	O 	0.67950 0.00240 0.13970 -0.40400
C 	C 	0.13510 0.85820 0.17400 -0.01600
H 	H 	0.19330 0.84100 0.18620 0.01100
C 	C 	0.05100 0.87770 0.20900 -0.07800
H 	H 	0.04910 0.87320 0.24580 0.02700
C 	C 	0.96800 0.90460 0.18840 0.00100
C 	C 	0.87110 0.92620 0.22400 0.12900
C 	C 	0.65010 0.99940 0.18970 0.30600
C 	C 	0.85500 0.92300 0.28570 -0.55000
H 	H 	0.91570 0.90460 0.29720 0.16900
H 	H 	0.84170 0.96170 0.29910 0.17900
H 	H 	0.79740 0.90060 0.29910 0.16900
C 	C 	0.10340 0.87320 0.99970 -0.53300
H 	H 	0.15510 0.84840 0.01380 0.16800
H 	H 	0.06610 0.85030 0.98010 0.16200
H 	H 	0.13560 0.90280 0.97640 0.17700
C 	C 	0.83470 0.98480 0.99300 0.29500
C 	C 	0.02700 0.90270 0.04710 0.12800
C 	C 	0.04720 0.89060 0.10240 0.00900
C 	C 	0.13200 0.86470 0.11790 -0.08400
H 	H 	0.18780 0.85120 0.09280 0.03500
N 	N 	0.80650 0.99880 0.94500 -0.35700
H 	H 	0.75190 0.02140 0.94320 0.16000
H 	H 	0.84300 0.98500 0.91630 0.16500
N 	N 	0.92510 0.95220 0.99250 -0.22400
H 	H 	0.96320 0.94170 0.96290 0.10200
N 	N 	0.95310 0.93670 0.04070 -0.22400
N 	N 	0.96590 0.91180 0.13560 -0.22600
N 	N 	0.80000 0.94940 0.19640 -0.21000
N 	N 	0.70800 0.97200 0.22300 -0.22400
H 	H 	0.68930 0.96900 0.25710 0.10500
N 	N 	0.56000 0.02260 0.21210 -0.35400
H 	H 	0.51910 0.04030 0.19260 0.13900
H 	H 	0.54160 0.02000 0.24620 0.12500
Co	Co	0.49051 0.34115 0.11782 1.09400
O 	O 	0.45680 0.42190 0.07000 -0.40900
O 	O 	0.42340 0.40410 0.17700 -0.41800
C 	C 	0.44770 0.41410 0.02470 0.29800
C 	C 	0.55930 0.27100 0.01550 0.19300
C 	C 	0.58030 0.22970 0.06130 -0.02600
C 	C 	0.63080 0.17530 0.05120 -0.06400
H 	H 	0.65320 0.16190 0.01680 0.02800
C 	C 	0.64510 0.14170 0.09760 -0.02700
H 	H 	0.67820 0.10450 0.09400 0.03800
C 	C 	0.61130 0.16280 0.14840 -0.05800
H 	H 	0.61910 0.13980 0.17880 0.04000
C 	C 	0.56610 0.21830 0.15220 0.00200
C 	C 	0.52480 0.24520 0.20290 0.16100
C 	C 	0.42050 0.38820 0.22510 0.30900
C 	C 	0.51190 0.20990 0.25480 -0.58300
H 	H 	0.54170 0.17080 0.24850 0.18000
H 	H 	0.54580 0.22740 0.27990 0.17000
H 	H 	0.44000 0.20900 0.26910 0.19500
C 	C 	0.57600 0.25310 0.95980 -0.67600
H 	H 	0.60880 0.21420 0.95750 0.21000
H 	H 	0.51120 0.25400 0.94760 0.21300
H 	H 	0.61950 0.27930 0.93780 0.21000
N 	N 	0.39790 0.45550 0.99370 -0.34400
H 	H 	0.37220 0.48820 0.00710 0.15300
H 	H 	0.39310 0.44820 0.96140 0.14000
N 	N 	0.48420 0.36310 0.99990 -0.22400
H 	H 	0.48580 0.35850 0.96630 0.10900
N 	N 	0.51790 0.31990 0.03330 -0.23500
N 	N 	0.55330 0.25200 0.10970 -0.22200
N 	N 	0.49320 0.29980 0.19730 -0.21900
N 	N 	0.45290 0.33550 0.23910 -0.23700
H 	H 	0.44920 0.32390 0.27200 0.10800
N 	N 	0.38630 0.42600 0.26350 -0.35800
H 	H 	0.36630 0.46130 0.25530 0.14700
H 	H 	0.38430 0.41520 0.29650 0.12900
Co	Co	0.16554 0.03768 0.89148 1.08800
O 	O 	0.21480 0.99690 0.96370 -0.41100
O 	O 	0.32050 0.99760 0.86030 -0.40400
C 	C 	0.86490 0.14180 0.82600 -0.01600
H 	H 	0.80670 0.15900 0.81380 0.01100
C 	C 	0.94900 0.12230 0.79100 -0.07800
H 	H 	0.95090 0.12680 0.75420 0.02700
C 	C 	0.03200 0.09540 0.81160 0.00100
C 	C 	0.12890 0.07380 0.77600 0.12900
C 	C 	0.34990 0.00060 0.81030 0.30600
C 	C 	0.14500 0.07700 0.71430 -0.55000
H 	H 	0.08430 0.09540 0.70280 0.16900
H 	H 	0.15830 0.03830 0.70090 0.17900
H 	H 	0.20260 0.09940 0.70090 0.16900
C 	C 	0.89660 0.12680 0.00030 -0.53300
H 	H 	0.84490 0.15160 0.98620 0.16800
H 	H 	0.93390 0.14970 0.01990 0.16200
H 	H 	0.86440 0.09720 0.02360 0.17700
C 	C 	0.16530 0.01520 0.00700 0.29500
C 	C 	0.97300 0.09730 0.95290 0.12800
C 	C 	0.95280 0.10940 0.89760 0.00900
C 	C 	0.86800 0.13530 0.88210 -0.08400
H 	H 	0.81220 0.14880 0.90720 0.03500
N 	N 	0.19350 0.00120 0.05500 -0.35700
H 	H 	0.24810 0.97860 0.05680 0.16000
H 	H 	0.15700 0.01500 0.08370 0.16500
N 	N 	0.07490 0.04780 0.00750 -0.22400
H 	H 	0.03680 0.05830 0.03710 0.10200
N 	N 	0.04690 0.06330 0.95930 -0.22400
N 	N 	0.03410 0.08820 0.86440 -0.22600
N 	N 	0.20000 0.05060 0.80360 -0.21000
N 	N 	0.29200 0.02800 0.77700 -0.22400
H 	H 	0.31070 0.03100 0.74290 0.10500
N 	N 	0.44000 0.97740 0.78790 -0.35400
H 	H 	0.48090 0.95970 0.80740 0.13900
H 	H 	0.45840 0.98000 0.75380 0.12500
Co	Co	0.50949 0.65885 0.88218 1.09400
O 	O 	0.54320 0.57810 0.93000 -0.40900
O 	O 	0.57660 0.59590 0.82300 -0.41800
C 	C 	0.55230 0.58590 0.97530 0.29800
C 	C 	0.44070 0.72900 0.98450 0.19300
C 	C 	0.41970 0.77030 0.93870 -0.02600
C 	C 	0.36920 0.82470 0.94880 -0.06400
H 	H 	0.34680 0.83810 0.98320 0.02800
C 	C 	0.35490 0.85830 0.90240 -0.02700
H 	H 	0.32180 0.89550 0.90600 0.03800
C 	C 	0.38870 0.83720 0.85160 -0.05800
H 	H 	0.38090 0.86020 0.82120 0.04000
C 	C 	0.43390 0.78170 0.84780 0.00200
C 	C 	0.47520 0.75480 0.79710 0.16100
C 	C 	0.57950 0.61180 0.77490 0.30900
C 	C 	0.48810 0.79010 0.74520 -0.58300
H 	H 	0.45830 0.82920 0.75150 0.18000
H 	H 	0.45420 0.77260 0.72010 0.17000
H 	H 	0.56000 0.79100 0.73090 0.19500
C 	C 	0.42400 0.74690 0.04020 -0.67600
H 	H 	0.39120 0.78580 0.04250 0.21000
H 	H 	0.48880 0.74600 0.05240 0.21300
H 	H 	0.38050 0.72070 0.06220 0.21000
N 	N 	0.60210 0.54450 0.00630 -0.34400
H 	H 	0.62780 0.51180 0.99290 0.15300
H 	H 	0.60690 0.55180 0.03860 0.14000
N 	N 	0.51580 0.63690 0.00010 -0.22400
H 	H 	0.51420 0.64150 0.03370 0.10900
N 	N 	0.48210 0.68010 0.96670 -0.23500
N 	N 	0.44670 0.74800 0.89030 -0.22200
N 	N 	0.50680 0.70020 0.80270 -0.21900
N 	N 	0.54710 0.66450 0.76090 -0.23700
H 	H 	0.55080 0.67610 0.72800 0.10800
N 	N 	0.61370 0.57400 0.73650 -0.35800
H 	H 	0.63370 0.53870 0.74470 0.14700
H 	H 	0.61570 0.58480 0.70350 0.12900
