data_crystal

_cell_length_a 12.96400
_cell_length_b 25.18800
_cell_length_c 19.28200
_cell_angle_alpha 90.00000
_cell_angle_beta  93.20900
_cell_angle_gamma 90.00000

_symmetry_space_group_name_	'P 1'
_symmetry_space_group_name_H-M	'P 1'

loop_
_symmetry_equiv_pos_as_xyz
  x,y,z

loop_
_atom_site_label
_atom_site_type_symbol
_atom_site_fract_x
_atom_site_fract_y
_atom_site_fract_z
_atom_site_charge
Mo	Mo	0.33949 0.94243 0.37995 1.16600
Mo	Mo	0.95880 0.91435 0.17895 1.16800
Mo	Mo	0.40815 0.81078 0.35624 1.16800
Mo	Mo	0.03620 0.77861 0.14862 1.17000
Mo	Mo	0.94010 0.81439 0.31875 1.17100
Mo	Mo	0.25287 0.72714 0.23896 1.16400
Mo	Mo	0.10615 0.99487 0.29220 1.16400
Mo	Mo	0.27730 0.81867 0.10458 1.16200
Mo	Mo	0.20172 0.95711 0.13387 1.16500
Mo	Mo	0.43532 0.90377 0.22376 1.16300
Mo	Mo	0.08690 0.89379 0.43063 1.16500
P 	P 	0.18230 0.86107 0.26736 0.53700
Zn	Zn	0.15462 0.76955 0.40051 1.23700
O 	O 	0.38760 0.85210 0.15750 -0.51200
O 	O 	0.18270 0.81700 0.21570 -0.44100
O 	O 	0.13390 0.91050 0.23370 -0.43000
O 	O 	0.30750 0.78870 0.40550 -0.55800
O 	O 	0.98750 0.84970 0.13450 -0.50900
O 	O 	0.17010 0.00650 0.20600 -0.49600
O 	O 	0.97000 0.78020 0.23430 -0.51700
O 	O 	0.24550 0.98840 0.33190 -0.51500
O 	O 	0.12210 0.72430 0.18190 -0.51000
O 	O 	0.91980 0.87880 0.25510 -0.50700
O 	O 	0.13770 0.79510 0.08550 -0.51100
O 	O 	0.05670 0.94750 0.12000 -0.50100
O 	O 	0.37320 0.76210 0.28080 -0.50500
O 	O 	0.98310 0.97820 0.23630 -0.49500
O 	O 	0.06390 0.95500 0.36280 -0.52000
O 	O 	0.18800 0.72610 0.31630 -0.55300
O 	O 	0.48120 0.84970 0.28280 -0.50200
O 	O 	0.95710 0.86870 0.39000 -0.50000
O 	O 	0.42470 0.94950 0.30380 -0.50400
O 	O 	0.22750 0.91840 0.42890 -0.52900
O 	O 	0.29070 0.87240 0.29630 -0.44000
O 	O 	0.00010 0.76580 0.36950 -0.55100
O 	O 	0.22050 0.88980 0.09480 -0.51300
O 	O 	0.41480 0.87880 0.40140 -0.51300
O 	O 	0.33320 0.94980 0.18010 -0.51400
O 	O 	0.11390 0.84450 0.32760 -0.47400
O 	O 	0.12060 0.83200 0.46490 -0.55100
O 	O 	0.30640 0.75470 0.15050 -0.50000
C 	C 	0.24750 0.68530 0.48410 0.07800
H 	H 	0.30770 0.69980 0.46810 -0.03800
C 	C 	0.25340 0.63840 0.52240 -0.18300
H 	H 	0.31160 0.61680 0.52330 0.05100
C 	C 	0.16870 0.62570 0.55850 0.07100
H 	H 	0.17460 0.60010 0.59320 -0.04900
C 	C 	0.07640 0.64980 0.54440 -0.17700
H 	H 	0.01650 0.63700 0.56300 0.04800
C 	C 	0.07410 0.69450 0.50110 0.07800
H 	H 	0.01300 0.71360 0.49390 -0.03600
N 	N 	0.15860 0.70990 0.47010 -0.26600
Mo	Mo	0.16051 0.44243 0.12005 1.16500
Mo	Mo	0.54120 0.41435 0.32105 1.16600
Mo	Mo	0.09185 0.31078 0.14376 1.16700
Mo	Mo	0.46380 0.27861 0.35138 1.17000
Mo	Mo	0.55990 0.31439 0.18125 1.17000
Mo	Mo	0.24713 0.22714 0.26104 1.16300
Mo	Mo	0.39385 0.49487 0.20780 1.16400
Mo	Mo	0.22270 0.31867 0.39542 1.16100
Mo	Mo	0.29828 0.45711 0.36613 1.16500
Mo	Mo	0.06468 0.40377 0.27624 1.16300
Mo	Mo	0.41310 0.39379 0.06937 1.16500
P 	P 	0.31770 0.36107 0.23264 0.53700
Zn	Zn	0.34538 0.26955 0.09949 1.23700
O 	O 	0.11240 0.35210 0.34250 -0.51200
O 	O 	0.31730 0.31700 0.28430 -0.44100
O 	O 	0.36610 0.41050 0.26630 -0.43000
O 	O 	0.19250 0.28870 0.09450 -0.55800
O 	O 	0.51250 0.34970 0.36550 -0.51000
O 	O 	0.32990 0.50650 0.29400 -0.49800
O 	O 	0.53000 0.28020 0.26570 -0.51800
O 	O 	0.25450 0.48840 0.16810 -0.51500
O 	O 	0.37790 0.22430 0.31810 -0.51000
O 	O 	0.58020 0.37880 0.24490 -0.50700
O 	O 	0.36230 0.29510 0.41450 -0.51000
O 	O 	0.44330 0.44750 0.38000 -0.50000
O 	O 	0.12680 0.26210 0.21920 -0.50500
O 	O 	0.51690 0.47820 0.26370 -0.49600
O 	O 	0.43610 0.45500 0.13720 -0.52000
O 	O 	0.31200 0.22610 0.18370 -0.55300
O 	O 	0.01880 0.34970 0.21720 -0.50200
O 	O 	0.54290 0.36870 0.11000 -0.50100
O 	O 	0.07530 0.44950 0.19620 -0.50400
O 	O 	0.27250 0.41840 0.07110 -0.52900
O 	O 	0.20930 0.37240 0.20370 -0.44000
O 	O 	0.49990 0.26580 0.13050 -0.55000
O 	O 	0.27950 0.38980 0.40520 -0.51300
O 	O 	0.08520 0.37880 0.09860 -0.51300
O 	O 	0.16680 0.44980 0.31990 -0.51400
O 	O 	0.38610 0.34450 0.17240 -0.47300
O 	O 	0.37940 0.33200 0.03510 -0.55100
O 	O 	0.19360 0.25470 0.34950 -0.49900
C 	C 	0.25250 0.18530 0.01590 0.07800
H 	H 	0.19230 0.19980 0.03190 -0.03800
C 	C 	0.24660 0.13840 0.97760 -0.18300
H 	H 	0.18840 0.11680 0.97670 0.05100
C 	C 	0.33130 0.12570 0.94150 0.07000
H 	H 	0.32540 0.10010 0.90680 -0.04900
C 	C 	0.42360 0.14980 0.95560 -0.17600
H 	H 	0.48350 0.13700 0.93700 0.04800
C 	C 	0.42590 0.19450 0.99890 0.07600
H 	H 	0.48700 0.21360 0.00610 -0.03500
N 	N 	0.34140 0.20990 0.02990 -0.26500
Mo	Mo	0.66051 0.05757 0.62005 1.16500
Mo	Mo	0.04120 0.08565 0.82105 1.16700
Mo	Mo	0.59185 0.18922 0.64376 1.16700
Mo	Mo	0.96380 0.22139 0.85138 1.16900
Mo	Mo	0.05990 0.18561 0.68125 1.17000
Mo	Mo	0.74713 0.27286 0.76104 1.16300
Mo	Mo	0.89385 0.00513 0.70780 1.16300
Mo	Mo	0.72270 0.18133 0.89542 1.16100
Mo	Mo	0.79828 0.04289 0.86613 1.16500
Mo	Mo	0.56468 0.09623 0.77624 1.16300
Mo	Mo	0.91310 0.10621 0.56937 1.16500
P 	P 	0.81770 0.13893 0.73264 0.53700
Zn	Zn	0.84538 0.23045 0.59949 1.23700
O 	O 	0.61240 0.14790 0.84250 -0.51200
O 	O 	0.81730 0.18300 0.78430 -0.44100
O 	O 	0.86610 0.08950 0.76630 -0.43000
O 	O 	0.69250 0.21130 0.59450 -0.55800
O 	O 	0.01250 0.15030 0.86550 -0.50900
O 	O 	0.82990 0.99350 0.79400 -0.49600
O 	O 	0.03000 0.21980 0.76570 -0.51700
O 	O 	0.75450 0.01160 0.66810 -0.51500
O 	O 	0.87790 0.27570 0.81810 -0.51000
O 	O 	0.08020 0.12120 0.74490 -0.50700
O 	O 	0.86230 0.20490 0.91450 -0.51100
O 	O 	0.94330 0.05250 0.88000 -0.50100
O 	O 	0.62680 0.23790 0.71920 -0.50500
O 	O 	0.01690 0.02180 0.76370 -0.49500
O 	O 	0.93610 0.04500 0.63720 -0.52000
O 	O 	0.81200 0.27390 0.68370 -0.55300
O 	O 	0.51880 0.15030 0.71720 -0.50200
O 	O 	0.04290 0.13130 0.61000 -0.50000
O 	O 	0.57530 0.05050 0.69620 -0.50400
O 	O 	0.77250 0.08160 0.57110 -0.52900
O 	O 	0.70930 0.12760 0.70370 -0.44000
O 	O 	0.99990 0.23420 0.63050 -0.55100
O 	O 	0.77950 0.11020 0.90520 -0.51300
O 	O 	0.58520 0.12120 0.59860 -0.51300
O 	O 	0.66680 0.05020 0.81990 -0.51400
O 	O 	0.88610 0.15550 0.67240 -0.47400
O 	O 	0.87940 0.16800 0.53510 -0.55100
O 	O 	0.69360 0.24530 0.84950 -0.50000
C 	C 	0.75250 0.31470 0.51590 0.07800
H 	H 	0.69230 0.30020 0.53190 -0.03800
C 	C 	0.74660 0.36160 0.47760 -0.18300
H 	H 	0.68840 0.38320 0.47670 0.05100
C 	C 	0.83130 0.37430 0.44150 0.07100
H 	H 	0.82540 0.39990 0.40680 -0.04900
C 	C 	0.92360 0.35020 0.45560 -0.17700
H 	H 	0.98350 0.36300 0.43700 0.04800
C 	C 	0.92590 0.30550 0.49890 0.07800
H 	H 	0.98700 0.28640 0.50610 -0.03600
N 	N 	0.84140 0.29010 0.52990 -0.26600
Mo	Mo	0.83949 0.55757 0.87995 1.16500
Mo	Mo	0.45880 0.58565 0.67895 1.16600
Mo	Mo	0.90815 0.68922 0.85624 1.16700
Mo	Mo	0.53620 0.72139 0.64862 1.17000
Mo	Mo	0.44010 0.68561 0.81875 1.17000
Mo	Mo	0.75287 0.77286 0.73896 1.16300
Mo	Mo	0.60615 0.50513 0.79220 1.16400
Mo	Mo	0.77730 0.68133 0.60458 1.16100
Mo	Mo	0.70172 0.54289 0.63387 1.16500
Mo	Mo	0.93532 0.59623 0.72376 1.16300
Mo	Mo	0.58690 0.60621 0.93063 1.16500
P 	P 	0.68230 0.63893 0.76736 0.53700
Zn	Zn	0.65462 0.73045 0.90051 1.23700
O 	O 	0.88760 0.64790 0.65750 -0.51200
O 	O 	0.68270 0.68300 0.71570 -0.44100
O 	O 	0.63390 0.58950 0.73370 -0.43000
O 	O 	0.80750 0.71130 0.90550 -0.55800
O 	O 	0.48750 0.65030 0.63450 -0.51000
O 	O 	0.67010 0.49350 0.70600 -0.49800
O 	O 	0.47000 0.71980 0.73430 -0.51800
O 	O 	0.74550 0.51160 0.83190 -0.51500
O 	O 	0.62210 0.77570 0.68190 -0.51000
O 	O 	0.41980 0.62120 0.75510 -0.50700
O 	O 	0.63770 0.70490 0.58550 -0.51000
O 	O 	0.55670 0.55250 0.62000 -0.50000
O 	O 	0.87320 0.73790 0.78080 -0.50500
O 	O 	0.48310 0.52180 0.73630 -0.49600
O 	O 	0.56390 0.54500 0.86280 -0.52000
O 	O 	0.68800 0.77390 0.81630 -0.55300
O 	O 	0.98120 0.65030 0.78280 -0.50200
O 	O 	0.45710 0.63130 0.89000 -0.50100
O 	O 	0.92470 0.55050 0.80380 -0.50400
O 	O 	0.72750 0.58160 0.92890 -0.52900
O 	O 	0.79070 0.62760 0.79630 -0.44000
O 	O 	0.50010 0.73420 0.86950 -0.55000
O 	O 	0.72050 0.61020 0.59480 -0.51300
O 	O 	0.91480 0.62120 0.90140 -0.51300
O 	O 	0.83320 0.55020 0.68010 -0.51400
O 	O 	0.61390 0.65550 0.82760 -0.47300
O 	O 	0.62060 0.66800 0.96490 -0.55100
O 	O 	0.80640 0.74530 0.65050 -0.49900
C 	C 	0.74750 0.81470 0.98410 0.07800
H 	H 	0.80770 0.80020 0.96810 -0.03800
C 	C 	0.75340 0.86160 0.02240 -0.18300
H 	H 	0.81160 0.88320 0.02330 0.05100
C 	C 	0.66870 0.87430 0.05850 0.07000
H 	H 	0.67460 0.89990 0.09320 -0.04900
C 	C 	0.57640 0.85020 0.04440 -0.17600
H 	H 	0.51650 0.86300 0.06300 0.04800
C 	C 	0.57410 0.80550 0.00110 0.07600
H 	H 	0.51300 0.78640 0.99390 -0.03500
N 	N 	0.65860 0.79010 0.97010 -0.26500
