data_crystal

_cell_length_a 18.04770
_cell_length_b 10.38010
_cell_length_c 23.42270
_cell_angle_alpha 90.00000
_cell_angle_beta  96.74300
_cell_angle_gamma 90.00000

_symmetry_space_group_name_	'P 1'
_symmetry_space_group_name_H-M	'P 1'

loop_
_symmetry_equiv_pos_as_xyz
  x,y,z

loop_
_atom_site_label
_atom_site_type_symbol
_atom_site_fract_x
_atom_site_fract_y
_atom_site_fract_z
_atom_site_charge
C 	C 	0.16557 0.58380 0.23465 -0.02100
C 	C 	0.09842 0.51550 0.22971 0.01400
H 	H 	0.08010 0.48450 0.26360 0.02400
C 	C 	0.05775 0.49180 0.17691 -0.16200
H 	H 	0.01260 0.44410 0.17490 0.08500
C 	C 	0.08256 0.53730 0.12695 0.19200
C 	C 	0.15191 0.60100 0.13043 -0.14900
C 	C 	0.19191 0.62260 0.18415 0.01600
H 	H 	0.23870 0.66530 0.18620 0.03900
C 	C 	0.20621 0.61260 0.29244 -0.01900
C 	C 	0.20500 0.52580 0.33750 0.01500
H 	H 	0.17940 0.44630 0.33060 0.03600
C 	C 	0.24006 0.55140 0.39250 -0.14900
C 	C 	0.27602 0.67040 0.40359 0.19800
C 	C 	0.27792 0.75700 0.35845 -0.16000
H 	H 	0.30240 0.83750 0.36520 0.09400
C 	C 	0.24465 0.72720 0.30396 0.01700
H 	H 	0.24820 0.78670 0.27360 0.03000
C 	C 	0.18594 0.64670 0.07874 0.37700
C 	C 	0.97360 0.45540 0.07101 -0.18500
H 	H 	0.95110 0.45110 0.03090 0.11300
H 	H 	0.94060 0.50360 0.09370 0.09900
H 	H 	0.98060 0.36800 0.08650 0.08500
C 	C 	0.24040 0.44590 0.43626 0.38100
C 	C 	0.33525 0.82020 0.47083 -0.17900
H 	H 	0.34890 0.82920 0.51240 0.10500
H 	H 	0.29730 0.88450 0.45760 0.10400
H 	H 	0.37950 0.83340 0.45100 0.09900
O 	O 	0.25567 0.63396 0.08085 -0.41300
O 	O 	0.14412 0.69773 0.03824 -0.40300
O 	O 	0.04471 0.51929 0.07392 -0.18700
O 	O 	0.18496 0.37146 0.43091 -0.42400
O 	O 	0.29621 0.43638 0.47347 -0.40200
O 	O 	0.30608 0.69405 0.45841 -0.17400
Cu	Cu	0.18508 0.21262 0.47519 0.90200
C 	C 	0.33443 0.08380 0.26535 -0.02000
C 	C 	0.40158 0.01550 0.27029 0.01400
H 	H 	0.41990 0.98450 0.23640 0.02500
C 	C 	0.44225 0.99180 0.32309 -0.16100
H 	H 	0.48740 0.94410 0.32510 0.08500
C 	C 	0.41744 0.03730 0.37305 0.19200
C 	C 	0.34809 0.10100 0.36957 -0.14900
C 	C 	0.30809 0.12260 0.31585 0.01500
H 	H 	0.26130 0.16530 0.31380 0.03900
C 	C 	0.29379 0.11260 0.20756 -0.01900
C 	C 	0.29500 0.02580 0.16250 0.01500
H 	H 	0.32060 0.94630 0.16940 0.03700
C 	C 	0.25994 0.05140 0.10750 -0.15000
C 	C 	0.22398 0.17040 0.09641 0.19800
C 	C 	0.22208 0.25700 0.14155 -0.16000
H 	H 	0.19760 0.33750 0.13480 0.09400
C 	C 	0.25535 0.22720 0.19604 0.01700
H 	H 	0.25180 0.28670 0.22640 0.03000
C 	C 	0.31406 0.14670 0.42126 0.37700
C 	C 	0.52640 0.95540 0.42899 -0.18400
H 	H 	0.54890 0.95110 0.46910 0.11300
H 	H 	0.55940 0.00360 0.40630 0.09900
H 	H 	0.51940 0.86800 0.41350 0.08400
C 	C 	0.25960 0.94590 0.06374 0.38200
C 	C 	0.16475 0.32020 0.02917 -0.17600
H 	H 	0.15110 0.32920 0.98760 0.10400
H 	H 	0.20270 0.38450 0.04240 0.10300
H 	H 	0.12050 0.33340 0.04900 0.09900
O 	O 	0.24433 0.13396 0.41915 -0.41400
O 	O 	0.35588 0.19773 0.46176 -0.40400
O 	O 	0.45529 0.01929 0.42608 -0.18800
O 	O 	0.31504 0.87146 0.06909 -0.42400
O 	O 	0.20379 0.93638 0.02653 -0.40100
O 	O 	0.19392 0.19405 0.04159 -0.17400
Cu	Cu	0.31492 0.71262 0.02481 0.90300
C 	C 	0.33443 0.91620 0.76535 -0.02000
C 	C 	0.40158 0.98450 0.77029 0.01300
H 	H 	0.41990 0.01550 0.73640 0.02500
C 	C 	0.44225 0.00820 0.82309 -0.16000
H 	H 	0.48740 0.05590 0.82510 0.08500
C 	C 	0.41744 0.96270 0.87305 0.19200
C 	C 	0.34809 0.89900 0.86957 -0.14900
C 	C 	0.30809 0.87740 0.81585 0.01500
H 	H 	0.26130 0.83470 0.81380 0.03900
C 	C 	0.29379 0.88740 0.70756 -0.01900
C 	C 	0.29500 0.97420 0.66250 0.01500
H 	H 	0.32060 0.05370 0.66940 0.03700
C 	C 	0.25994 0.94860 0.60750 -0.14900
C 	C 	0.22398 0.82960 0.59641 0.19800
C 	C 	0.22208 0.74300 0.64155 -0.16000
H 	H 	0.19760 0.66250 0.63480 0.09400
C 	C 	0.25535 0.77280 0.69604 0.01700
H 	H 	0.25180 0.71330 0.72640 0.03000
C 	C 	0.31406 0.85330 0.92126 0.37700
C 	C 	0.52640 0.04460 0.92899 -0.18300
H 	H 	0.54890 0.04890 0.96910 0.11300
H 	H 	0.55940 0.99640 0.90630 0.09800
H 	H 	0.51940 0.13200 0.91350 0.08400
C 	C 	0.25960 0.05410 0.56374 0.38100
C 	C 	0.16475 0.67980 0.52917 -0.17900
H 	H 	0.15110 0.67080 0.48760 0.10500
H 	H 	0.20270 0.61550 0.54240 0.10400
H 	H 	0.12050 0.66660 0.54900 0.09900
O 	O 	0.24433 0.86604 0.91915 -0.41400
O 	O 	0.35588 0.80227 0.96176 -0.40400
O 	O 	0.45529 0.98071 0.92608 -0.18800
O 	O 	0.31504 0.12854 0.56909 -0.42400
O 	O 	0.20379 0.06362 0.52653 -0.40200
O 	O 	0.19392 0.80595 0.54159 -0.17400
Cu	Cu	0.31492 0.28738 0.52481 0.90200
C 	C 	0.16557 0.41620 0.73465 -0.02000
C 	C 	0.09842 0.48450 0.72971 0.01500
H 	H 	0.08010 0.51550 0.76360 0.02400
C 	C 	0.05775 0.50820 0.67691 -0.16100
H 	H 	0.01260 0.55590 0.67490 0.08500
C 	C 	0.08256 0.46270 0.62695 0.19300
C 	C 	0.15191 0.39900 0.63043 -0.14900
C 	C 	0.19191 0.37740 0.68415 0.01600
H 	H 	0.23870 0.33470 0.68620 0.03900
C 	C 	0.20621 0.38740 0.79244 -0.01900
C 	C 	0.20500 0.47420 0.83750 0.01500
H 	H 	0.17940 0.55370 0.83060 0.03600
C 	C 	0.24006 0.44860 0.89250 -0.14900
C 	C 	0.27602 0.32960 0.90359 0.19800
C 	C 	0.27792 0.24300 0.85845 -0.16000
H 	H 	0.30240 0.16250 0.86520 0.09400
C 	C 	0.24465 0.27280 0.80396 0.01700
H 	H 	0.24820 0.21330 0.77360 0.03000
C 	C 	0.18594 0.35330 0.57874 0.37700
C 	C 	0.97360 0.54460 0.57101 -0.18400
H 	H 	0.95110 0.54890 0.53090 0.11300
H 	H 	0.94060 0.49640 0.59370 0.09900
H 	H 	0.98060 0.63200 0.58650 0.08500
C 	C 	0.24040 0.55410 0.93626 0.38100
C 	C 	0.33525 0.17980 0.97083 -0.18000
H 	H 	0.34890 0.17080 0.01240 0.10600
H 	H 	0.29730 0.11550 0.95760 0.10400
H 	H 	0.37950 0.16660 0.95100 0.10000
O 	O 	0.25567 0.36604 0.58085 -0.41400
O 	O 	0.14412 0.30227 0.53824 -0.40400
O 	O 	0.04471 0.48071 0.57392 -0.18800
O 	O 	0.18496 0.62854 0.93091 -0.42400
O 	O 	0.29621 0.56362 0.97347 -0.40200
O 	O 	0.30608 0.30595 0.95841 -0.17400
Cu	Cu	0.18508 0.78738 0.97519 0.90200
C 	C 	0.66557 0.08380 0.23465 -0.02000
C 	C 	0.59842 0.01550 0.22971 0.01300
H 	H 	0.58010 0.98450 0.26360 0.02500
C 	C 	0.55775 0.99180 0.17691 -0.16000
H 	H 	0.51260 0.94410 0.17490 0.08500
C 	C 	0.58256 0.03730 0.12695 0.19200
C 	C 	0.65191 0.10100 0.13043 -0.14900
C 	C 	0.69191 0.12260 0.18415 0.01500
H 	H 	0.73870 0.16530 0.18620 0.03900
C 	C 	0.70621 0.11260 0.29244 -0.01900
C 	C 	0.70500 0.02580 0.33750 0.01500
H 	H 	0.67940 0.94630 0.33060 0.03700
C 	C 	0.74006 0.05140 0.39250 -0.14900
C 	C 	0.77602 0.17040 0.40359 0.19800
C 	C 	0.77792 0.25700 0.35845 -0.16000
H 	H 	0.80240 0.33750 0.36520 0.09400
C 	C 	0.74465 0.22720 0.30396 0.01700
H 	H 	0.74820 0.28670 0.27360 0.03000
C 	C 	0.68594 0.14670 0.07874 0.37700
C 	C 	0.47360 0.95540 0.07101 -0.18300
H 	H 	0.45110 0.95110 0.03090 0.11300
H 	H 	0.44060 0.00360 0.09370 0.09800
H 	H 	0.48060 0.86800 0.08650 0.08400
C 	C 	0.74040 0.94590 0.43626 0.38100
C 	C 	0.83525 0.32020 0.47083 -0.17900
H 	H 	0.84890 0.32920 0.51240 0.10500
H 	H 	0.79730 0.38450 0.45760 0.10400
H 	H 	0.87950 0.33340 0.45100 0.09900
O 	O 	0.75567 0.13396 0.08085 -0.41400
O 	O 	0.64412 0.19773 0.03824 -0.40400
O 	O 	0.54471 0.01929 0.07392 -0.18800
O 	O 	0.68496 0.87146 0.43091 -0.42400
O 	O 	0.79621 0.93638 0.47347 -0.40200
O 	O 	0.80608 0.19405 0.45841 -0.17400
Cu	Cu	0.68508 0.71262 0.47519 0.90200
C 	C 	0.83443 0.58380 0.26535 -0.02000
C 	C 	0.90158 0.51550 0.27029 0.01500
H 	H 	0.91990 0.48450 0.23640 0.02400
C 	C 	0.94225 0.49180 0.32309 -0.16100
H 	H 	0.98740 0.44410 0.32510 0.08500
C 	C 	0.91744 0.53730 0.37305 0.19300
C 	C 	0.84809 0.60100 0.36957 -0.14900
C 	C 	0.80809 0.62260 0.31585 0.01600
H 	H 	0.76130 0.66530 0.31380 0.03900
C 	C 	0.79379 0.61260 0.20756 -0.01900
C 	C 	0.79500 0.52580 0.16250 0.01500
H 	H 	0.82060 0.44630 0.16940 0.03600
C 	C 	0.75994 0.55140 0.10750 -0.14900
C 	C 	0.72398 0.67040 0.09641 0.19800
C 	C 	0.72208 0.75700 0.14155 -0.16000
H 	H 	0.69760 0.83750 0.13480 0.09400
C 	C 	0.75535 0.72720 0.19604 0.01700
H 	H 	0.75180 0.78670 0.22640 0.03000
C 	C 	0.81406 0.64670 0.42126 0.37700
C 	C 	0.02640 0.45540 0.42899 -0.18400
H 	H 	0.04890 0.45110 0.46910 0.11300
H 	H 	0.05940 0.50360 0.40630 0.09900
H 	H 	0.01940 0.36800 0.41350 0.08500
C 	C 	0.75960 0.44590 0.06374 0.38100
C 	C 	0.66475 0.82020 0.02917 -0.18000
H 	H 	0.65110 0.82920 0.98760 0.10600
H 	H 	0.70270 0.88450 0.04240 0.10400
H 	H 	0.62050 0.83340 0.04900 0.10000
O 	O 	0.74433 0.63396 0.41915 -0.41400
O 	O 	0.85588 0.69773 0.46176 -0.40400
O 	O 	0.95529 0.51929 0.42608 -0.18800
O 	O 	0.81504 0.37146 0.06909 -0.42400
O 	O 	0.70379 0.43638 0.02653 -0.40200
O 	O 	0.69392 0.69405 0.04159 -0.17400
Cu	Cu	0.81492 0.21262 0.02481 0.90200
C 	C 	0.83443 0.41620 0.76535 -0.02000
C 	C 	0.90158 0.48450 0.77029 0.01500
H 	H 	0.91990 0.51550 0.73640 0.02500
C 	C 	0.94225 0.50820 0.82309 -0.16100
H 	H 	0.98740 0.55590 0.82510 0.08500
C 	C 	0.91744 0.46270 0.87305 0.19200
C 	C 	0.84809 0.39900 0.86957 -0.14900
C 	C 	0.80809 0.37740 0.81585 0.01600
H 	H 	0.76130 0.33470 0.81380 0.03900
C 	C 	0.79379 0.38740 0.70756 -0.01900
C 	C 	0.79500 0.47420 0.66250 0.01500
H 	H 	0.82060 0.55370 0.66940 0.03600
C 	C 	0.75994 0.44860 0.60750 -0.14900
C 	C 	0.72398 0.32960 0.59641 0.19800
C 	C 	0.72208 0.24300 0.64155 -0.16000
H 	H 	0.69760 0.16250 0.63480 0.09400
C 	C 	0.75535 0.27280 0.69604 0.01700
H 	H 	0.75180 0.21330 0.72640 0.03000
C 	C 	0.81406 0.35330 0.92126 0.37700
C 	C 	0.02640 0.54460 0.92899 -0.18500
H 	H 	0.04890 0.54890 0.96910 0.11300
H 	H 	0.05940 0.49640 0.90630 0.09900
H 	H 	0.01940 0.63200 0.91350 0.08500
C 	C 	0.75960 0.55410 0.56374 0.38100
C 	C 	0.66475 0.17980 0.52917 -0.17900
H 	H 	0.65110 0.17080 0.48760 0.10500
H 	H 	0.70270 0.11550 0.54240 0.10400
H 	H 	0.62050 0.16660 0.54900 0.09900
O 	O 	0.74433 0.36604 0.91915 -0.41300
O 	O 	0.85588 0.30227 0.96176 -0.40300
O 	O 	0.95529 0.48071 0.92608 -0.18700
O 	O 	0.81504 0.62854 0.56909 -0.42400
O 	O 	0.70379 0.56362 0.52653 -0.40200
O 	O 	0.69392 0.30595 0.54159 -0.17400
Cu	Cu	0.81492 0.78738 0.52481 0.90200
C 	C 	0.66557 0.91620 0.73465 -0.02000
C 	C 	0.59842 0.98450 0.72971 0.01400
H 	H 	0.58010 0.01550 0.76360 0.02500
C 	C 	0.55775 0.00820 0.67691 -0.16100
H 	H 	0.51260 0.05590 0.67490 0.08500
C 	C 	0.58256 0.96270 0.62695 0.19200
C 	C 	0.65191 0.89900 0.63043 -0.14900
C 	C 	0.69191 0.87740 0.68415 0.01500
H 	H 	0.73870 0.83470 0.68620 0.03900
C 	C 	0.70621 0.88740 0.79244 -0.01900
C 	C 	0.70500 0.97420 0.83750 0.01500
H 	H 	0.67940 0.05370 0.83060 0.03700
C 	C 	0.74006 0.94860 0.89250 -0.15000
C 	C 	0.77602 0.82960 0.90359 0.19800
C 	C 	0.77792 0.74300 0.85845 -0.16000
H 	H 	0.80240 0.66250 0.86520 0.09400
C 	C 	0.74465 0.77280 0.80396 0.01700
H 	H 	0.74820 0.71330 0.77360 0.03000
C 	C 	0.68594 0.85330 0.57874 0.37700
C 	C 	0.47360 0.04460 0.57101 -0.18400
H 	H 	0.45110 0.04890 0.53090 0.11300
H 	H 	0.44060 0.99640 0.59370 0.09900
H 	H 	0.48060 0.13200 0.58650 0.08400
C 	C 	0.74040 0.05410 0.93626 0.38200
C 	C 	0.83525 0.67980 0.97083 -0.17600
H 	H 	0.84890 0.67080 0.01240 0.10400
H 	H 	0.79730 0.61550 0.95760 0.10300
H 	H 	0.87950 0.66660 0.95100 0.09900
O 	O 	0.75567 0.86604 0.58085 -0.41400
O 	O 	0.64412 0.80227 0.53824 -0.40400
O 	O 	0.54471 0.98071 0.57392 -0.18800
O 	O 	0.68496 0.12854 0.93091 -0.42400
O 	O 	0.79621 0.06362 0.97347 -0.40100
O 	O 	0.80608 0.80595 0.95841 -0.17400
Cu	Cu	0.68508 0.28738 0.97519 0.90300
