data_crystal

_cell_length_a 18.49780
_cell_length_b 18.49780
_cell_length_c 6.77460
_cell_angle_alpha 90.00000
_cell_angle_beta  90.00000
_cell_angle_gamma 120.00000

_symmetry_space_group_name_	'P 1'
_symmetry_space_group_name_H-M	'P 1'

loop_
_symmetry_equiv_pos_as_xyz
  x,y,z

loop_
_atom_site_label
_atom_site_type_symbol
_atom_site_fract_x
_atom_site_fract_y
_atom_site_fract_z
_atom_site_charge
O 	O 	0.58836 0.02920 0.24360 -0.40500
O 	O 	0.62870 0.10890 0.51140 -0.40800
C 	C 	0.64040 0.09080 0.34080 0.33800
C 	C 	0.72230 0.14840 0.24390 -0.02600
C 	C 	0.74050 0.12990 0.05770 -0.13400
H 	H 	0.70260 0.08090 0.99400 0.09600
C 	C 	0.79430 0.09400 0.69630 0.06200
H 	H 	0.81300 0.10130 0.56020 0.02200
H 	H 	0.73490 0.07470 0.69540 0.03000
C 	C 	0.80700 0.03330 0.78300 -0.00700
C 	C 	0.82040 0.98170 0.85600 -0.05500
H 	H 	0.83060 0.94180 0.91230 0.04500
O 	O 	0.97080 0.55916 0.24360 -0.40300
O 	O 	0.89110 0.51980 0.51140 -0.40600
C 	C 	0.90920 0.54960 0.34080 0.33500
C 	C 	0.85160 0.57390 0.24390 -0.01600
C 	C 	0.87010 0.61060 0.05770 -0.15000
H 	H 	0.91910 0.62170 0.99400 0.10400
C 	C 	0.90600 0.70030 0.69630 0.06700
H 	H 	0.89870 0.71170 0.56020 0.02000
H 	H 	0.92530 0.66020 0.69540 0.02800
C 	C 	0.96670 0.77370 0.78300 -0.00800
C 	C 	0.01830 0.83870 0.85600 -0.05200
H 	H 	0.05820 0.88880 0.91230 0.04600
O 	O 	0.44084 0.41164 0.24360 -0.40400
O 	O 	0.48020 0.37130 0.51140 -0.40600
C 	C 	0.45040 0.35960 0.34080 0.33500
C 	C 	0.42610 0.27770 0.24390 -0.01600
C 	C 	0.38940 0.25950 0.05770 -0.15300
H 	H 	0.37830 0.29740 0.99400 0.10600
C 	C 	0.29970 0.20570 0.69630 0.06200
H 	H 	0.28830 0.18700 0.56020 0.02200
H 	H 	0.33980 0.26510 0.69540 0.03000
C 	C 	0.22630 0.19300 0.78300 -0.00200
C 	C 	0.16130 0.17960 0.85600 -0.06000
H 	H 	0.11120 0.16940 0.91230 0.04800
O 	O 	0.02920 0.58836 0.75640 -0.40400
O 	O 	0.10890 0.62870 0.48860 -0.40700
C 	C 	0.09080 0.64040 0.65920 0.33900
C 	C 	0.14840 0.72230 0.75610 -0.02500
C 	C 	0.12990 0.74050 0.94230 -0.13300
H 	H 	0.08090 0.70260 0.00600 0.09700
C 	C 	0.09400 0.79430 0.30370 0.06200
H 	H 	0.10130 0.81300 0.43980 0.02200
H 	H 	0.07470 0.73490 0.30460 0.03000
C 	C 	0.03330 0.80700 0.21700 -0.00700
C 	C 	0.98170 0.82040 0.14400 -0.05500
H 	H 	0.94180 0.83060 0.08770 0.04500
O 	O 	0.55916 0.97080 0.75640 -0.40300
O 	O 	0.51980 0.89110 0.48860 -0.40600
C 	C 	0.54960 0.90920 0.65920 0.33500
C 	C 	0.57390 0.85160 0.75610 -0.01600
C 	C 	0.61060 0.87010 0.94230 -0.15000
H 	H 	0.62170 0.91910 0.00600 0.10400
C 	C 	0.70030 0.90600 0.30370 0.06700
H 	H 	0.71170 0.89870 0.43980 0.02000
H 	H 	0.66020 0.92530 0.30460 0.02800
C 	C 	0.77370 0.96670 0.21700 -0.00800
C 	C 	0.83870 0.01830 0.14400 -0.05200
H 	H 	0.88880 0.05820 0.08770 0.04600
O 	O 	0.41164 0.44084 0.75640 -0.40400
O 	O 	0.37130 0.48020 0.48860 -0.40600
C 	C 	0.35960 0.45040 0.65920 0.33500
C 	C 	0.27770 0.42610 0.75610 -0.01600
C 	C 	0.25950 0.38940 0.94230 -0.15300
H 	H 	0.29740 0.37830 0.00600 0.10600
C 	C 	0.20570 0.29970 0.30370 0.06200
H 	H 	0.18700 0.28830 0.43980 0.02200
H 	H 	0.26510 0.33980 0.30460 0.03000
C 	C 	0.19300 0.22630 0.21700 -0.00200
C 	C 	0.17960 0.16130 0.14400 -0.06000
H 	H 	0.16940 0.11120 0.08770 0.04800
O 	O 	0.41164 0.97080 0.75640 -0.40400
O 	O 	0.37130 0.89110 0.48860 -0.40700
C 	C 	0.35960 0.90920 0.65920 0.33900
C 	C 	0.27770 0.85160 0.75610 -0.02500
C 	C 	0.25950 0.87010 0.94230 -0.13300
H 	H 	0.29740 0.91910 0.00600 0.09700
C 	C 	0.20570 0.90600 0.30370 0.06200
H 	H 	0.18700 0.89870 0.43980 0.02200
H 	H 	0.26510 0.92530 0.30460 0.03000
C 	C 	0.19300 0.96670 0.21700 -0.00700
C 	C 	0.17960 0.01830 0.14400 -0.05500
H 	H 	0.16940 0.05820 0.08770 0.04500
O 	O 	0.02920 0.44084 0.75640 -0.40300
O 	O 	0.10890 0.48020 0.48860 -0.40600
C 	C 	0.09080 0.45040 0.65920 0.33500
C 	C 	0.14840 0.42610 0.75610 -0.01600
C 	C 	0.12990 0.38940 0.94230 -0.15000
H 	H 	0.08090 0.37830 0.00600 0.10400
C 	C 	0.09400 0.29970 0.30370 0.06700
H 	H 	0.10130 0.28830 0.43980 0.02000
H 	H 	0.07470 0.33980 0.30460 0.02800
C 	C 	0.03330 0.22630 0.21700 -0.00800
C 	C 	0.98170 0.16130 0.14400 -0.05200
H 	H 	0.94180 0.11120 0.08770 0.04600
O 	O 	0.55916 0.58836 0.75640 -0.40400
O 	O 	0.51980 0.62870 0.48860 -0.40600
C 	C 	0.54960 0.64040 0.65920 0.33500
C 	C 	0.57390 0.72230 0.75610 -0.01600
C 	C 	0.61060 0.74050 0.94230 -0.15300
H 	H 	0.62170 0.70260 0.00600 0.10600
C 	C 	0.70030 0.79430 0.30370 0.06200
H 	H 	0.71170 0.81300 0.43980 0.02200
H 	H 	0.66020 0.73490 0.30460 0.03000
C 	C 	0.77370 0.80700 0.21700 -0.00200
C 	C 	0.83870 0.82040 0.14400 -0.06000
H 	H 	0.88880 0.83060 0.08770 0.04800
O 	O 	0.97080 0.41164 0.24360 -0.40400
O 	O 	0.89110 0.37130 0.51140 -0.40700
C 	C 	0.90920 0.35960 0.34080 0.33900
C 	C 	0.85160 0.27770 0.24390 -0.02500
C 	C 	0.87010 0.25950 0.05770 -0.13300
H 	H 	0.91910 0.29740 0.99400 0.09700
C 	C 	0.90600 0.20570 0.69630 0.06200
H 	H 	0.89870 0.18700 0.56020 0.02200
H 	H 	0.92530 0.26510 0.69540 0.03000
C 	C 	0.96670 0.19300 0.78300 -0.00700
C 	C 	0.01830 0.17960 0.85600 -0.05500
H 	H 	0.05820 0.16940 0.91230 0.04500
O 	O 	0.44084 0.02920 0.24360 -0.40300
O 	O 	0.48020 0.10890 0.51140 -0.40600
C 	C 	0.45040 0.09080 0.34080 0.33500
C 	C 	0.42610 0.14840 0.24390 -0.01600
C 	C 	0.38940 0.12990 0.05770 -0.15000
H 	H 	0.37830 0.08090 0.99400 0.10400
C 	C 	0.29970 0.09400 0.69630 0.06700
H 	H 	0.28830 0.10130 0.56020 0.02000
H 	H 	0.33980 0.07470 0.69540 0.02800
C 	C 	0.22630 0.03330 0.78300 -0.00800
C 	C 	0.16130 0.98170 0.85600 -0.05200
H 	H 	0.11120 0.94180 0.91230 0.04600
O 	O 	0.58836 0.55916 0.24360 -0.40400
O 	O 	0.62870 0.51980 0.51140 -0.40600
C 	C 	0.64040 0.54960 0.34080 0.33500
C 	C 	0.72230 0.57390 0.24390 -0.01600
C 	C 	0.74050 0.61060 0.05770 -0.15300
H 	H 	0.70260 0.62170 0.99400 0.10600
C 	C 	0.79430 0.70030 0.69630 0.06200
H 	H 	0.81300 0.71170 0.56020 0.02200
H 	H 	0.73490 0.66020 0.69540 0.03000
C 	C 	0.80700 0.77370 0.78300 -0.00200
C 	C 	0.82040 0.83870 0.85600 -0.06000
H 	H 	0.83060 0.88880 0.91230 0.04800
Cu	Cu	0.52387 0.04773 0.65496 0.90500
Cu	Cu	0.95227 0.47614 0.65496 0.90500
Cu	Cu	0.52387 0.47613 0.65496 0.90500
Cu	Cu	0.04773 0.52387 0.34504 0.90500
Cu	Cu	0.47613 0.95227 0.34504 0.90500
Cu	Cu	0.47613 0.52387 0.34504 0.90500
C 	C 	0.77810 0.22190 0.33820 -0.03700
H 	H 	0.76640 0.23360 0.46380 0.07500
C 	C 	0.81520 0.18480 0.96790 0.19900
O 	O 	0.83340 0.16660 0.78640 -0.27300
C 	C 	0.77810 0.55620 0.33820 -0.04600
H 	H 	0.76640 0.53280 0.46380 0.07800
C 	C 	0.81520 0.63040 0.96790 0.21600
O 	O 	0.83340 0.66680 0.78640 -0.27700
C 	C 	0.44380 0.22190 0.33820 -0.04600
H 	H 	0.46720 0.23360 0.46380 0.07800
C 	C 	0.36960 0.18480 0.96790 0.21600
O 	O 	0.33320 0.16660 0.78640 -0.27700
C 	C 	0.22190 0.77810 0.66180 -0.03700
H 	H 	0.23360 0.76640 0.53620 0.07500
C 	C 	0.18480 0.81520 0.03210 0.19900
O 	O 	0.16660 0.83340 0.21360 -0.27300
C 	C 	0.55620 0.77810 0.66180 -0.04600
H 	H 	0.53280 0.76640 0.53620 0.07800
C 	C 	0.63040 0.81520 0.03210 0.21600
O 	O 	0.66680 0.83340 0.21360 -0.27700
C 	C 	0.22190 0.44380 0.66180 -0.04600
H 	H 	0.23360 0.46720 0.53620 0.07800
C 	C 	0.18480 0.36960 0.03210 0.21600
O 	O 	0.16660 0.33320 0.21360 -0.27700
