data_crystal

_cell_length_a 8.70970
_cell_length_b 14.21440
_cell_length_c 15.72010
_cell_angle_alpha 88.60800
_cell_angle_beta  88.27300
_cell_angle_gamma 86.68200

_symmetry_space_group_name_	'P 1'
_symmetry_space_group_name_H-M	'P 1'

loop_
_symmetry_equiv_pos_as_xyz
  x,y,z

loop_
_atom_site_label
_atom_site_type_symbol
_atom_site_fract_x
_atom_site_fract_y
_atom_site_fract_z
_atom_site_charge
Co	Co	0.44483 0.22827 0.28653 1.10900
Co	Co	0.28372 0.05435 0.37222 1.10000
Co	Co	0.59729 0.09743 0.48137 1.09900
C 	C 	0.32760 0.07980 0.17990 0.36400
C 	C 	0.35890 0.79470 0.99810 0.27500
C 	C 	0.65140 0.50190 0.28080 0.34200
C 	C 	0.51870 0.69340 0.54080 0.37000
C 	C 	0.59590 0.59800 0.41100 -0.00200
H 	H 	0.54270 0.64240 0.37690 0.07200
C 	C 	0.60030 0.61160 0.49750 -0.05800
C 	C 	0.68070 0.54520 0.54790 -0.07000
H 	H 	0.68150 0.55160 0.60660 0.07600
C 	C 	0.75960 0.46940 0.50960 0.10400
C 	C 	0.75550 0.45490 0.42370 -0.08300
H 	H 	0.80890 0.40330 0.39920 0.08600
C 	C 	0.66890 0.51970 0.37410 -0.03900
C 	C 	0.91800 0.43870 0.63180 0.08700
H 	H 	0.92230 0.50350 0.63650 0.01900
C 	C 	0.98750 0.37840 0.69220 -0.12700
H 	H 	0.03850 0.40270 0.73720 0.09900
C 	C 	0.98000 0.28150 0.68480 0.07300
C 	C 	0.90720 0.24740 0.61550 -0.12300
H 	H 	0.90400 0.18280 0.60820 0.08100
C 	C 	0.84020 0.30950 0.55780 0.09600
H 	H 	0.79080 0.28650 0.51160 0.01100
C 	C 	0.04540 0.21880 0.75160 0.07000
C 	C 	0.18030 0.24030 0.79120 -0.12100
H 	H 	0.23110 0.29370 0.77410 0.10700
C 	C 	0.23770 0.18230 0.85570 0.08800
H 	H 	0.32770 0.19660 0.88180 0.03900
C 	C 	0.03760 0.08180 0.84250 0.09200
H 	H 	0.98920 0.02790 0.86060 0.01700
C 	C 	0.97860 0.13540 0.77780 -0.12600
H 	H 	0.89280 0.11650 0.75040 0.09200
C 	C 	0.22620 0.04710 0.95250 0.11600
C 	C 	0.25350 0.09240 0.02670 -0.09200
H 	H 	0.23500 0.15720 0.03140 0.08900
C 	C 	0.31000 0.03670 0.09410 -0.03800
C 	C 	0.34300 0.94090 0.08500 -0.03000
H 	H 	0.38220 0.90500 0.13040 0.07300
C 	C 	0.31770 0.89780 0.00800 -0.00900
C 	C 	0.25370 0.95200 0.94120 -0.10400
H 	H 	0.23030 0.92450 0.89050 0.08900
N 	N 	0.16510 0.10530 0.88130 -0.14600
N 	N 	0.84430 0.40310 0.56650 -0.14500
N 	N 	0.23730 0.20100 0.35380 -0.30400
N 	N 	0.14650 0.25840 0.37920 -0.03400
N 	N 	0.06180 0.31720 0.40290 -0.07700
N 	N 	0.52900 0.09820 0.35150 -0.37700
N 	N 	0.60880 0.04560 0.30450 -0.07200
N 	N 	0.68120 0.99840 0.26120 -0.06800
N 	N 	0.05040 0.03320 0.39780 -0.19600
N 	N 	0.93710 0.07550 0.42050 -0.02600
N 	N 	0.82510 0.12000 0.44220 -0.20200
N 	N 	0.35820 0.05660 0.50310 -0.38500
N 	N 	0.28310 0.10960 0.55100 -0.05600
N 	N 	0.21900 0.16070 0.59370 -0.06600
N 	N 	0.63930 0.08730 0.61270 -0.30400
N 	N 	0.60450 0.14320 0.66630 -0.02700
N 	N 	0.57160 0.19640 0.71870 -0.05700
O 	O 	0.39070 0.15690 0.18050 -0.44700
O 	O 	0.27630 0.03400 0.24260 -0.44100
O 	O 	0.45820 0.75870 0.04680 -0.20900
O 	O 	0.29170 0.75160 0.94270 -0.21800
O 	O 	0.74480 0.44760 0.24320 -0.23700
O 	O 	0.50500 0.52240 0.25600 -0.15200
O 	O 	0.61500 0.56970 0.23390 -0.16800
O 	O 	0.47480 0.76350 0.49600 -0.43600
O 	O 	0.49720 0.68610 0.62020 -0.46400
Co	Co	0.55517 0.77173 0.71347 1.11000
Co	Co	0.71628 0.94565 0.62778 1.10100
Co	Co	0.40271 0.90257 0.51863 1.09900
C 	C 	0.67240 0.92020 0.82010 0.36400
C 	C 	0.64110 0.20530 0.00190 0.27500
C 	C 	0.34860 0.49810 0.71920 0.34200
C 	C 	0.48130 0.30660 0.45920 0.37000
C 	C 	0.40410 0.40200 0.58900 -0.00200
H 	H 	0.45730 0.35760 0.62310 0.07200
C 	C 	0.39970 0.38840 0.50250 -0.05800
C 	C 	0.31930 0.45480 0.45210 -0.07000
H 	H 	0.31850 0.44840 0.39340 0.07600
C 	C 	0.24040 0.53060 0.49040 0.10400
C 	C 	0.24450 0.54510 0.57630 -0.08300
H 	H 	0.19110 0.59670 0.60080 0.08600
C 	C 	0.33110 0.48030 0.62590 -0.03900
C 	C 	0.08200 0.56130 0.36820 0.08700
H 	H 	0.07770 0.49650 0.36350 0.01900
C 	C 	0.01250 0.62160 0.30780 -0.12700
H 	H 	0.96150 0.59730 0.26280 0.09900
C 	C 	0.02000 0.71850 0.31520 0.07300
C 	C 	0.09280 0.75260 0.38450 -0.12300
H 	H 	0.09600 0.81720 0.39180 0.08100
C 	C 	0.15980 0.69050 0.44220 0.09600
H 	H 	0.20920 0.71350 0.48840 0.01100
C 	C 	0.95460 0.78120 0.24840 0.07000
C 	C 	0.81970 0.75970 0.20880 -0.12100
H 	H 	0.76890 0.70630 0.22590 0.10700
C 	C 	0.76230 0.81770 0.14430 0.08800
H 	H 	0.67230 0.80340 0.11820 0.03900
C 	C 	0.96240 0.91820 0.15750 0.09200
H 	H 	0.01080 0.97210 0.13940 0.01700
C 	C 	0.02140 0.86460 0.22220 -0.12600
H 	H 	0.10720 0.88350 0.24960 0.09200
C 	C 	0.77380 0.95290 0.04750 0.11600
C 	C 	0.74650 0.90760 0.97330 -0.09200
H 	H 	0.76500 0.84280 0.96860 0.08900
C 	C 	0.69000 0.96330 0.90590 -0.03800
C 	C 	0.65700 0.05910 0.91500 -0.03000
H 	H 	0.61780 0.09500 0.86960 0.07300
C 	C 	0.68230 0.10220 0.99200 -0.00900
C 	C 	0.74630 0.04800 0.05880 -0.10400
H 	H 	0.76970 0.07550 0.10950 0.08900
N 	N 	0.83490 0.89470 0.11870 -0.14600
N 	N 	0.15570 0.59690 0.43350 -0.14500
N 	N 	0.76270 0.79900 0.64620 -0.30400
N 	N 	0.85350 0.74160 0.62080 -0.03400
N 	N 	0.93820 0.68280 0.59710 -0.07700
N 	N 	0.47100 0.90180 0.64850 -0.37700
N 	N 	0.39120 0.95440 0.69550 -0.07200
N 	N 	0.31880 0.00160 0.73880 -0.06800
N 	N 	0.94960 0.96680 0.60220 -0.19600
N 	N 	0.06290 0.92450 0.57950 -0.02600
N 	N 	0.17490 0.88000 0.55780 -0.20200
N 	N 	0.64180 0.94340 0.49690 -0.38500
N 	N 	0.71690 0.89040 0.44900 -0.05600
N 	N 	0.78100 0.83930 0.40630 -0.06600
N 	N 	0.36070 0.91270 0.38730 -0.30400
N 	N 	0.39550 0.85680 0.33370 -0.02700
N 	N 	0.42840 0.80360 0.28130 -0.05700
O 	O 	0.60930 0.84310 0.81950 -0.44700
O 	O 	0.72370 0.96600 0.75740 -0.44100
O 	O 	0.54180 0.24130 0.95320 -0.20900
O 	O 	0.70830 0.24840 0.05730 -0.21800
O 	O 	0.25520 0.55240 0.75680 -0.23700
O 	O 	0.49500 0.47760 0.74400 -0.15200
O 	O 	0.38500 0.43030 0.76610 -0.16800
O 	O 	0.52520 0.23650 0.50400 -0.43600
O 	O 	0.50280 0.31390 0.37980 -0.46400
