data_crystal

_cell_length_a 11.02650
_cell_length_b 13.46100
_cell_length_c 25.80710
_cell_angle_alpha 90.00000
_cell_angle_beta  98.09300
_cell_angle_gamma 90.00000

_symmetry_space_group_name_	'P 1'
_symmetry_space_group_name_H-M	'P 1'

loop_
_symmetry_equiv_pos_as_xyz
  x,y,z

loop_
_atom_site_label
_atom_site_type_symbol
_atom_site_fract_x
_atom_site_fract_y
_atom_site_fract_z
_atom_site_charge
C 	C 	0.76730 0.18190 0.58506 0.40600
C 	C 	0.81090 0.26020 0.62478 -0.17300
C 	C 	0.72990 0.33700 0.63219 0.11300
H 	H 	0.65300 0.33950 0.61210 0.00400
C 	C 	0.76360 0.40830 0.66897 -0.20600
H 	H 	0.70940 0.45930 0.67380 0.10200
C 	C 	0.88000 0.40540 0.69984 0.16800
C 	C 	0.95910 0.32870 0.69222 -0.20500
H 	H 	0.03550 0.32540 0.71270 0.10300
C 	C 	0.92560 0.25610 0.65410 0.11200
H 	H 	0.98000 0.20570 0.64860 0.00500
C 	C 	0.92120 0.48620 0.74068 -0.23900
H 	H 	0.01090 0.48390 0.74760 0.10000
C 	C 	0.87300 0.03210 0.29358 0.17800
C 	C 	0.76040 0.07440 0.29811 -0.21400
H 	H 	0.71210 0.09910 0.26840 0.10600
C 	C 	0.71830 0.08060 0.34651 0.11400
H 	H 	0.64140 0.10700 0.34890 0.00200
C 	C 	0.79250 0.04700 0.39127 -0.18000
C 	C 	0.90530 0.00440 0.38645 0.12400
H 	H 	0.95440 0.98030 0.41600 -0.00100
C 	C 	0.94580 0.99770 0.33766 -0.21800
H 	H 	0.02180 0.96990 0.33500 0.11600
C 	C 	0.74830 0.04740 0.44286 0.40200
C 	C 	0.88540 0.58800 0.71691 0.15700
C 	C 	0.78430 0.64110 0.72754 -0.19200
H 	H 	0.73920 0.61900 0.75320 0.09600
C 	C 	0.74990 0.72810 0.69969 0.08100
H 	H 	0.68040 0.76270 0.70590 0.01100
C 	C 	0.81990 0.76290 0.66262 -0.14200
C 	C 	0.92340 0.70990 0.65275 0.08600
H 	H 	0.96920 0.73270 0.62750 0.01900
C 	C 	0.95790 0.62400 0.68022 -0.18500
H 	H 	0.02850 0.59030 0.67450 0.09500
C 	C 	0.77680 0.85070 0.62934 0.35000
C 	C 	0.49140 0.28850 0.42742 0.05600
H 	H 	0.53810 0.25250 0.40670 0.01600
C 	C 	0.44390 0.38110 0.41089 -0.10300
H 	H 	0.45900 0.40640 0.37890 0.06500
C 	C 	0.37480 0.43580 0.44137 0.02700
H 	H 	0.34110 0.49640 0.42950 0.02500
C 	C 	0.35650 0.39910 0.48974 -0.09500
H 	H 	0.31360 0.43670 0.51130 0.06500
C 	C 	0.40210 0.30560 0.50636 0.04200
C 	C 	0.39070 0.26500 0.55661 0.04500
C 	C 	0.33800 0.31470 0.59390 -0.10200
H 	H 	0.30650 0.37820 0.58700 0.06400
C 	C 	0.33160 0.26990 0.64285 0.02600
H 	H 	0.29760 0.30430 0.66850 0.01900
C 	C 	0.37640 0.17410 0.65254 -0.10900
H 	H 	0.37150 0.14360 0.68450 0.06600
C 	C 	0.42810 0.12500 0.61435 0.05800
H 	H 	0.45890 0.06130 0.62100 -0.00700
N 	N 	0.46860 0.25080 0.47453 -0.22400
N 	N 	0.43540 0.16830 0.56622 -0.23200
O 	O 	0.67840 0.19560 0.55236 -0.47200
O 	O 	0.83050 0.09915 0.58933 -0.46900
O 	O 	0.65100 0.09450 0.44727 -0.46200
O 	O 	0.81120 0.99806 0.47928 -0.48600
O 	O 	0.68900 0.90023 0.63977 -0.33100
O 	O 	0.82770 0.86577 0.58847 -0.45400
O 	O 	0.58840 0.97719 0.54068 -0.86800
H 	H 	0.56770 0.97700 0.57120 0.29900
Zn	Zn	0.76795 0.98230 0.54893 1.23200
Zn	Zn	0.53743 0.11372 0.50700 1.21600
C 	C 	0.23270 0.68190 0.91494 0.40600
C 	C 	0.18910 0.76020 0.87522 -0.17500
C 	C 	0.27010 0.83700 0.86781 0.11300
H 	H 	0.34700 0.83950 0.88790 0.00200
C 	C 	0.23640 0.90830 0.83103 -0.20700
H 	H 	0.29060 0.95930 0.82620 0.10200
C 	C 	0.12000 0.90540 0.80016 0.16900
C 	C 	0.04090 0.82870 0.80778 -0.20700
H 	H 	0.96450 0.82540 0.78730 0.10400
C 	C 	0.07440 0.75610 0.84590 0.11300
H 	H 	0.02000 0.70570 0.85140 0.00400
C 	C 	0.07880 0.98620 0.75932 -0.24100
H 	H 	0.98910 0.98390 0.75240 0.10100
C 	C 	0.12700 0.53210 0.20642 0.17800
C 	C 	0.23960 0.57440 0.20189 -0.21400
H 	H 	0.28790 0.59910 0.23160 0.10600
C 	C 	0.28170 0.58060 0.15349 0.11400
H 	H 	0.35860 0.60700 0.15110 0.00100
C 	C 	0.20750 0.54700 0.10873 -0.18000
C 	C 	0.09470 0.50440 0.11355 0.12500
H 	H 	0.04560 0.48030 0.08400 -0.00200
C 	C 	0.05420 0.49770 0.16234 -0.21800
H 	H 	0.97820 0.46990 0.16500 0.11600
C 	C 	0.25170 0.54740 0.05714 0.40200
C 	C 	0.11460 0.08800 0.78309 0.15900
C 	C 	0.21570 0.14110 0.77246 -0.19400
H 	H 	0.26080 0.11900 0.74680 0.09700
C 	C 	0.25010 0.22810 0.80031 0.08200
H 	H 	0.31960 0.26270 0.79410 0.01100
C 	C 	0.18010 0.26290 0.83738 -0.14200
C 	C 	0.07660 0.20990 0.84725 0.08800
H 	H 	0.03080 0.23270 0.87250 0.01800
C 	C 	0.04210 0.12400 0.81978 -0.18700
H 	H 	0.97150 0.09030 0.82550 0.09700
C 	C 	0.22320 0.35070 0.87066 0.35100
C 	C 	0.50860 0.78850 0.07258 0.05500
H 	H 	0.46190 0.75250 0.09330 0.01600
C 	C 	0.55610 0.88110 0.08911 -0.10100
H 	H 	0.54100 0.90640 0.12110 0.06500
C 	C 	0.62520 0.93580 0.05863 0.02500
H 	H 	0.65890 0.99640 0.07050 0.02600
C 	C 	0.64350 0.89910 0.01026 -0.09100
H 	H 	0.68640 0.93670 0.98870 0.06300
C 	C 	0.59790 0.80560 0.99364 0.04000
C 	C 	0.60930 0.76500 0.94339 0.04600
C 	C 	0.66200 0.81470 0.90610 -0.10300
H 	H 	0.69350 0.87820 0.91300 0.06500
C 	C 	0.66840 0.76990 0.85715 0.02700
H 	H 	0.70240 0.80430 0.83150 0.01900
C 	C 	0.62360 0.67410 0.84746 -0.10900
H 	H 	0.62850 0.64360 0.81550 0.06600
C 	C 	0.57190 0.62500 0.88565 0.05800
H 	H 	0.54110 0.56130 0.87900 -0.00800
N 	N 	0.53140 0.75080 0.02547 -0.22300
N 	N 	0.56460 0.66830 0.93378 -0.23300
O 	O 	0.32160 0.69560 0.94764 -0.47200
O 	O 	0.16950 0.59915 0.91067 -0.46900
O 	O 	0.34900 0.59450 0.05273 -0.46200
O 	O 	0.18880 0.49806 0.02072 -0.48600
O 	O 	0.31100 0.40023 0.86023 -0.33100
O 	O 	0.17230 0.36577 0.91153 -0.45400
O 	O 	0.41160 0.47719 0.95932 -0.86800
H 	H 	0.43230 0.47700 0.92880 0.29900
Zn	Zn	0.23205 0.48230 0.95107 1.23200
Zn	Zn	0.46257 0.61372 0.99300 1.21600
C 	C 	0.23270 0.81810 0.41494 0.40500
C 	C 	0.18910 0.73980 0.37522 -0.17400
C 	C 	0.27010 0.66300 0.36781 0.11200
H 	H 	0.34700 0.66050 0.38790 0.00300
C 	C 	0.23640 0.59170 0.33103 -0.20600
H 	H 	0.29060 0.54070 0.32620 0.10200
C 	C 	0.12000 0.59460 0.30016 0.16800
C 	C 	0.04090 0.67130 0.30778 -0.20500
H 	H 	0.96450 0.67460 0.28730 0.10300
C 	C 	0.07440 0.74390 0.34590 0.11200
H 	H 	0.02000 0.79430 0.35140 0.00500
C 	C 	0.07880 0.51380 0.25932 -0.23900
H 	H 	0.98910 0.51610 0.25240 0.10000
C 	C 	0.12700 0.96790 0.70642 0.17800
C 	C 	0.23960 0.92560 0.70189 -0.21400
H 	H 	0.28790 0.90090 0.73160 0.10600
C 	C 	0.28170 0.91940 0.65349 0.11400
H 	H 	0.35860 0.89300 0.65110 0.00200
C 	C 	0.20750 0.95300 0.60873 -0.18000
C 	C 	0.09470 0.99560 0.61355 0.12400
H 	H 	0.04560 0.01970 0.58400 -0.00100
C 	C 	0.05420 0.00230 0.66234 -0.21800
H 	H 	0.97820 0.03010 0.66500 0.11600
C 	C 	0.25170 0.95260 0.55714 0.40200
C 	C 	0.11460 0.41200 0.28309 0.15700
C 	C 	0.21570 0.35890 0.27246 -0.19200
H 	H 	0.26080 0.38100 0.24680 0.09600
C 	C 	0.25010 0.27190 0.30031 0.08100
H 	H 	0.31960 0.23730 0.29410 0.01100
C 	C 	0.18010 0.23710 0.33738 -0.14200
C 	C 	0.07660 0.29010 0.34725 0.08600
H 	H 	0.03080 0.26730 0.37250 0.01900
C 	C 	0.04210 0.37600 0.31978 -0.18500
H 	H 	0.97150 0.40970 0.32550 0.09500
C 	C 	0.22320 0.14930 0.37066 0.35000
C 	C 	0.50860 0.71150 0.57258 0.05600
H 	H 	0.46190 0.74750 0.59330 0.01600
C 	C 	0.55610 0.61890 0.58911 -0.10300
H 	H 	0.54100 0.59360 0.62110 0.06500
C 	C 	0.62520 0.56420 0.55863 0.02700
H 	H 	0.65890 0.50360 0.57050 0.02500
C 	C 	0.64350 0.60090 0.51026 -0.09500
H 	H 	0.68640 0.56330 0.48870 0.06500
C 	C 	0.59790 0.69440 0.49364 0.04200
C 	C 	0.60930 0.73500 0.44339 0.04500
C 	C 	0.66200 0.68530 0.40610 -0.10200
H 	H 	0.69350 0.62180 0.41300 0.06400
C 	C 	0.66840 0.73010 0.35715 0.02600
H 	H 	0.70240 0.69570 0.33150 0.01900
C 	C 	0.62360 0.82590 0.34746 -0.10900
H 	H 	0.62850 0.85640 0.31550 0.06600
C 	C 	0.57190 0.87500 0.38565 0.05800
H 	H 	0.54110 0.93870 0.37900 -0.00700
N 	N 	0.53140 0.74920 0.52547 -0.22400
N 	N 	0.56460 0.83170 0.43378 -0.23200
O 	O 	0.32160 0.80440 0.44764 -0.47200
O 	O 	0.16950 0.90085 0.41067 -0.46900
O 	O 	0.34900 0.90550 0.55273 -0.46200
O 	O 	0.18880 0.00194 0.52072 -0.48600
O 	O 	0.31100 0.09977 0.36023 -0.33100
O 	O 	0.17230 0.13423 0.41153 -0.45400
O 	O 	0.41160 0.02281 0.45932 -0.86800
H 	H 	0.43230 0.02300 0.42880 0.29900
Zn	Zn	0.23205 0.01770 0.45107 1.23200
Zn	Zn	0.46257 0.88628 0.49300 1.21600
C 	C 	0.76730 0.31810 0.08506 0.40600
C 	C 	0.81090 0.23980 0.12478 -0.17500
C 	C 	0.72990 0.16300 0.13219 0.11300
H 	H 	0.65300 0.16050 0.11210 0.00200
C 	C 	0.76360 0.09170 0.16897 -0.20700
H 	H 	0.70940 0.04070 0.17380 0.10200
C 	C 	0.88000 0.09460 0.19984 0.16900
C 	C 	0.95910 0.17130 0.19222 -0.20700
H 	H 	0.03550 0.17460 0.21270 0.10400
C 	C 	0.92560 0.24390 0.15410 0.11300
H 	H 	0.98000 0.29430 0.14860 0.00400
C 	C 	0.92120 0.01380 0.24068 -0.24100
H 	H 	0.01090 0.01610 0.24760 0.10100
C 	C 	0.87300 0.46790 0.79358 0.17800
C 	C 	0.76040 0.42560 0.79811 -0.21400
H 	H 	0.71210 0.40090 0.76840 0.10600
C 	C 	0.71830 0.41940 0.84651 0.11400
H 	H 	0.64140 0.39300 0.84890 0.00100
C 	C 	0.79250 0.45300 0.89127 -0.18000
C 	C 	0.90530 0.49560 0.88645 0.12500
H 	H 	0.95440 0.51970 0.91600 -0.00200
C 	C 	0.94580 0.50230 0.83766 -0.21800
H 	H 	0.02180 0.53010 0.83500 0.11600
C 	C 	0.74830 0.45260 0.94286 0.40200
C 	C 	0.88540 0.91200 0.21691 0.15900
C 	C 	0.78430 0.85890 0.22754 -0.19400
H 	H 	0.73920 0.88100 0.25320 0.09700
C 	C 	0.74990 0.77190 0.19969 0.08200
H 	H 	0.68040 0.73730 0.20590 0.01100
C 	C 	0.81990 0.73710 0.16262 -0.14200
C 	C 	0.92340 0.79010 0.15275 0.08800
H 	H 	0.96920 0.76730 0.12750 0.01800
C 	C 	0.95790 0.87600 0.18022 -0.18700
H 	H 	0.02850 0.90970 0.17450 0.09700
C 	C 	0.77680 0.64930 0.12934 0.35100
C 	C 	0.49140 0.21150 0.92742 0.05500
H 	H 	0.53810 0.24750 0.90670 0.01600
C 	C 	0.44390 0.11890 0.91089 -0.10100
H 	H 	0.45900 0.09360 0.87890 0.06500
C 	C 	0.37480 0.06420 0.94137 0.02500
H 	H 	0.34110 0.00360 0.92950 0.02600
C 	C 	0.35650 0.10090 0.98974 -0.09100
H 	H 	0.31360 0.06330 0.01130 0.06300
C 	C 	0.40210 0.19440 0.00636 0.04000
C 	C 	0.39070 0.23500 0.05661 0.04600
C 	C 	0.33800 0.18530 0.09390 -0.10300
H 	H 	0.30650 0.12180 0.08700 0.06500
C 	C 	0.33160 0.23010 0.14285 0.02700
H 	H 	0.29760 0.19570 0.16850 0.01900
C 	C 	0.37640 0.32590 0.15254 -0.10900
H 	H 	0.37150 0.35640 0.18450 0.06600
C 	C 	0.42810 0.37500 0.11435 0.05800
H 	H 	0.45890 0.43870 0.12100 -0.00800
N 	N 	0.46860 0.24920 0.97453 -0.22300
N 	N 	0.43540 0.33170 0.06622 -0.23300
O 	O 	0.67840 0.30440 0.05236 -0.47200
O 	O 	0.83050 0.40085 0.08933 -0.46900
O 	O 	0.65100 0.40550 0.94727 -0.46200
O 	O 	0.81120 0.50194 0.97928 -0.48600
O 	O 	0.68900 0.59977 0.13977 -0.33100
O 	O 	0.82770 0.63423 0.08847 -0.45400
O 	O 	0.58840 0.52281 0.04068 -0.86800
H 	H 	0.56770 0.52300 0.07120 0.29900
Zn	Zn	0.76795 0.51770 0.04893 1.23200
Zn	Zn	0.53743 0.38628 0.00700 1.21600
