data_crystal

_cell_length_a 15.23890
_cell_length_b 15.99700
_cell_length_c 17.47130
_cell_angle_alpha 64.42800
_cell_angle_beta  82.62400
_cell_angle_gamma 68.48600

_symmetry_space_group_name_	'P 1'
_symmetry_space_group_name_H-M	'P 1'

loop_
_symmetry_equiv_pos_as_xyz
  x,y,z

loop_
_atom_site_label
_atom_site_type_symbol
_atom_site_fract_x
_atom_site_fract_y
_atom_site_fract_z
_atom_site_charge
Mn	Mn	0.65902 0.93780 0.34196 1.27900
Mn	Mn	0.84071 0.70329 0.46418 1.23700
Si	Si	0.06334 0.16609 0.12529 0.57700
Si	Si	0.53779 0.58352 0.13484 0.85800
O 	O 	0.94010 0.75380 0.36120 -0.44600
O 	O 	0.51410 0.99250 0.29660 -0.62800
O 	O 	0.81340 0.86790 0.37750 -0.57400
C 	C 	0.59260 0.14070 0.34940 0.34000
O 	O 	0.54020 0.12280 0.41080 -0.39900
C 	C 	0.58100 0.24810 0.29640 0.01300
O 	O 	0.78160 0.66610 0.38460 -0.48400
C 	C 	0.93170 0.92220 0.28660 -0.31800
O 	O 	0.72720 0.73230 0.54260 -0.54800
C 	C 	0.55710 0.44850 0.19690 -0.32400
O 	O 	0.65480 0.07740 0.32980 -0.36800
C 	C 	0.87620 0.02060 0.25750 0.25800
H 	H 	0.81320 0.03920 0.27180 0.00100
C 	C 	0.26440 0.11150 0.29600 0.14500
H 	H 	0.26360 0.12540 0.34270 -0.00900
O 	O 	0.66290 0.80680 0.33810 -0.51500
C 	C 	0.17800 0.12490 0.18200 -0.06300
C 	C 	0.63190 0.37360 0.18670 0.14000
H 	H 	0.67510 0.39010 0.14540 -0.02900
C 	C 	0.34760 0.05550 0.27540 -0.30400
C 	C 	0.64520 0.27420 0.23580 -0.14200
H 	H 	0.69720 0.22560 0.22780 0.09500
C 	C 	0.66530 0.68730 0.29370 -0.05600
C 	C 	0.50610 0.32180 0.30730 -0.13900
H 	H 	0.46250 0.30520 0.34810 0.09300
O 	O 	0.42320 0.01420 0.40120 -0.47000
C 	C 	0.58480 0.62490 0.20080 -0.29600
C 	C 	0.02530 0.89630 0.26410 0.14100
H 	H 	0.06290 0.83000 0.28230 -0.02700
C 	C 	0.43600 0.01760 0.32790 0.62500
C 	C 	0.49410 0.41970 0.25890 0.13300
H 	H 	0.44250 0.46800 0.26780 -0.03200
C 	C 	0.26220 0.06640 0.16340 -0.22200
H 	H 	0.26260 0.04900 0.11890 0.12500
C 	C 	0.18170 0.14810 0.24960 -0.11800
H 	H 	0.12730 0.18900 0.26370 0.05400
C 	C 	0.66310 0.56170 0.25600 0.09300
H 	H 	0.68940 0.49650 0.26250 -0.01600
C 	C 	0.70320 0.59190 0.30150 -0.09200
H 	H 	0.75570 0.54750 0.33730 0.06000
C 	C 	0.60120 0.60640 0.03250 -0.33700
C 	C 	0.08860 0.17700 0.01430 -0.14300
C 	C 	0.54740 0.72210 0.19490 0.09700
H 	H 	0.49460 0.76690 0.15970 -0.01900
C 	C 	0.91520 0.09160 0.20680 -0.13800
H 	H 	0.87650 0.15780 0.18610 0.07400
C 	C 	0.98110 0.28710 0.12410 -0.24100
C 	C 	0.34570 0.03270 0.20770 0.37700
H 	H 	0.40100 0.99450 0.19210 -0.18800
C 	C 	0.35000 0.68380 0.17060 0.19800
H 	H 	0.37550 0.66910 0.22240 -0.05700
C 	C 	0.06030 0.12730 0.97970 -0.04000
H 	H 	0.02640 0.08670 0.01240 0.06400
C 	C 	0.58740 0.75230 0.24030 -0.09400
H 	H 	0.56160 0.81720 0.23480 0.05700
C 	C 	0.40850 0.65380 0.11290 -0.37100
C 	C 	0.64210 0.58100 0.90360 -0.24200
H 	H 	0.64220 0.54720 0.87160 0.11000
C 	C 	0.08130 0.13640 0.89780 -0.04200
H 	H 	0.06250 0.10100 0.87670 0.06500
C 	C 	0.94570 0.29540 0.20030 0.09300
H 	H 	0.96140 0.23930 0.25130 -0.00900
C 	C 	0.95030 0.37090 0.04880 0.12600
H 	H 	0.96970 0.36770 0.99720 -0.03100
C 	C 	0.13930 0.23720 0.96220 0.00200
H 	H 	0.16000 0.27100 0.98380 0.00500
C 	C 	0.60330 0.55750 0.98190 0.14900
H 	H 	0.57770 0.50760 0.00220 -0.02500
C 	C 	0.15950 0.24800 0.88020 -0.07300
H 	H 	0.19280 0.28890 0.84680 0.05500
C 	C 	0.12940 0.19700 0.84760 -0.01600
H 	H 	0.14200 0.20410 0.79200 0.06200
C 	C 	0.88860 0.38460 0.20070 -0.15700
H 	H 	0.86860 0.38980 0.25160 0.07700
C 	C 	0.68430 0.69990 0.92070 -0.27800
H 	H 	0.71310 0.74730 0.90000 0.12500
C 	C 	0.36650 0.67790 0.03540 0.21300
H 	H 	0.40440 0.65930 0.99520 -0.07100
C 	C 	0.64590 0.67710 0.00060 0.21000
H 	H 	0.64990 0.70880 0.03310 -0.05000
O 	O 	0.62880 0.88810 0.47750 -0.63200
C 	C 	0.66360 0.80710 0.54240 0.53900
H 	H 	0.63860 0.80430 0.59460 -0.15800
C 	C 	0.70700 0.72310 0.34150 0.39200
C 	C 	0.89310 0.84330 0.34400 0.38300
C 	C 	0.68030 0.65340 0.87230 0.17000
H 	H 	0.70370 0.67120 0.81790 -0.03300
C 	C 	0.00900 0.06880 0.18550 0.00900
C 	C 	0.06310 0.96850 0.21480 -0.27300
H 	H 	0.12620 0.94980 0.20090 0.07100
C 	C 	0.89050 0.45990 0.05050 -0.14700
H 	H 	0.87060 0.51530 0.99940 0.07100
C 	C 	0.86080 0.46840 0.12220 0.07100
H 	H 	0.82180 0.52930 0.12100 0.00100
C 	C 	0.21550 0.75340 0.07700 0.14600
H 	H 	0.15050 0.78330 0.06680 -0.03400
C 	C 	0.27130 0.72800 0.01700 -0.24700
H 	H 	0.24540 0.74420 0.96490 0.09400
C 	C 	0.25380 0.73560 0.15260 -0.25700
H 	H 	0.21570 0.75790 0.19090 0.10400
O 	O 	0.69410 0.00040 0.20630 -1.54800
O 	O 	0.69960 0.96880 0.20850 1.39000
N 	N 	0.64290 0.02920 0.07430 -0.08600
C 	C 	0.63790 0.01940 0.15400 -1.08900
H 	H 	0.57680 0.02960 0.17360 0.39900
N 	N 	0.60180 0.06890 0.09800 0.41300
C 	C 	0.55770 0.09010 0.02240 -1.26800
H 	H 	0.51120 0.05890 0.03580 0.73000
H 	H 	0.60410 0.06570 0.98730 0.46000
H 	H 	0.52760 0.16030 0.99250 0.38700
C 	C 	0.56850 0.14410 0.13190 -0.53600
H 	H 	0.58740 0.19940 0.09590 0.21200
H 	H 	0.59540 0.11650 0.18810 0.31100
H 	H 	0.50100 0.16570 0.13410 0.18600
C 	C 	0.58890 0.99230 0.04270 0.21100
H 	H 	0.61320 0.92140 0.06840 -0.04100
H 	H 	0.59370 0.01560 0.98220 -0.11300
H 	H 	0.52400 0.01540 0.05650 -0.38600
C 	C 	0.70920 0.06590 0.01690 -0.34500
H 	H 	0.72930 0.10450 0.03560 0.18400
H 	H 	0.68000 0.10640 0.96110 0.10400
H 	H 	0.76280 0.01140 0.01530 0.18500
C 	C 	0.66470 0.97990 0.14450 0.78100
H 	H 	0.68110 0.92820 0.12810 -0.28500
Mn	Mn	0.34098 0.06220 0.65804 1.33800
Mn	Mn	0.15929 0.29671 0.53582 1.23800
Si	Si	0.93666 0.83391 0.87471 1.12900
Si	Si	0.46221 0.41648 0.86516 0.86300
O 	O 	0.05990 0.24620 0.63880 -0.40200
O 	O 	0.48590 0.00750 0.70340 -0.26400
O 	O 	0.18660 0.13210 0.62250 -0.45900
C 	C 	0.40740 0.85930 0.65060 0.37800
O 	O 	0.45980 0.87720 0.58920 -0.47300
C 	C 	0.41900 0.75190 0.70360 -0.03100
O 	O 	0.21840 0.33390 0.61540 -0.47900
C 	C 	0.06830 0.07780 0.71340 0.29900
O 	O 	0.27280 0.26770 0.45740 -0.54000
C 	C 	0.44290 0.55150 0.80310 -0.31400
O 	O 	0.34520 0.92260 0.67020 -0.52100
C 	C 	0.12380 0.97940 0.74250 -0.51500
H 	H 	0.18680 0.96080 0.72820 0.17400
C 	C 	0.73560 0.88850 0.70400 -0.36100
H 	H 	0.73640 0.87460 0.65730 0.14900
O 	O 	0.33710 0.19320 0.66190 -0.43600
C 	C 	0.82200 0.87510 0.81800 -0.56000
C 	C 	0.36810 0.62640 0.81330 0.11900
H 	H 	0.32490 0.60990 0.85460 -0.02400
C 	C 	0.65240 0.94450 0.72460 0.24800
C 	C 	0.35480 0.72580 0.76420 -0.11600
H 	H 	0.30280 0.77440 0.77220 0.06500
C 	C 	0.33470 0.31270 0.70630 -0.02300
C 	C 	0.49390 0.67820 0.69270 -0.11300
H 	H 	0.53750 0.69480 0.65190 0.08000
O 	O 	0.57680 0.98580 0.59880 -0.43700
C 	C 	0.41520 0.37510 0.79920 -0.31400
C 	C 	0.97470 0.10370 0.73590 -0.39900
H 	H 	0.93710 0.17000 0.71770 0.17800
C 	C 	0.56400 0.98240 0.67210 0.13000
C 	C 	0.50590 0.58030 0.74110 0.11200
H 	H 	0.55750 0.53200 0.73220 -0.02500
C 	C 	0.73780 0.93360 0.83660 0.44600
H 	H 	0.73740 0.95100 0.88110 -0.17700
C 	C 	0.81830 0.85190 0.75040 0.33200
H 	H 	0.87270 0.81100 0.73630 -0.10900
C 	C 	0.33690 0.43830 0.74400 0.11400
H 	H 	0.31060 0.50350 0.73750 -0.02700
C 	C 	0.29680 0.40810 0.69850 -0.11400
H 	H 	0.24430 0.45250 0.66270 0.06300
C 	C 	0.39880 0.39360 0.96750 -0.42100
C 	C 	0.91140 0.82300 0.98570 -0.56900
C 	C 	0.45260 0.27790 0.80510 0.11600
H 	H 	0.50540 0.23310 0.84030 -0.03900
C 	C 	0.08480 0.90840 0.79320 0.40100
H 	H 	0.12350 0.84220 0.81390 -0.13200
C 	C 	0.01890 0.71290 0.87590 -0.49900
C 	C 	0.65430 0.96730 0.79230 -0.59500
H 	H 	0.59900 0.00550 0.80790 0.31900
C 	C 	0.65000 0.31620 0.82940 0.21500
H 	H 	0.62450 0.33090 0.77760 -0.05700
C 	C 	0.93970 0.87270 0.02030 0.40400
H 	H 	0.97360 0.91330 0.98760 -0.15500
C 	C 	0.41260 0.24770 0.75970 -0.11900
H 	H 	0.43840 0.18280 0.76520 0.08900
C 	C 	0.59150 0.34620 0.88710 -0.38400
C 	C 	0.35790 0.41900 0.09640 -0.34200
H 	H 	0.35780 0.45280 0.12840 0.14700
C 	C 	0.91870 0.86360 0.10220 -0.46100
H 	H 	0.93750 0.89900 0.12330 0.17100
C 	C 	0.05430 0.70460 0.79970 0.31200
H 	H 	0.03860 0.76070 0.74870 -0.10700
C 	C 	0.04970 0.62910 0.95120 0.31000
H 	H 	0.03030 0.63230 0.00280 -0.08800
C 	C 	0.86070 0.76280 0.03780 0.38000
H 	H 	0.84000 0.72900 0.01620 -0.11500
C 	C 	0.39670 0.44250 0.01810 0.31200
H 	H 	0.42230 0.49240 0.99780 -0.10600
C 	C 	0.84050 0.75200 0.11980 -0.42600
H 	H 	0.80720 0.71110 0.15320 0.17800
C 	C 	0.87060 0.80300 0.15240 0.33200
H 	H 	0.85800 0.79590 0.20800 -0.11200
C 	C 	0.11140 0.61540 0.79930 -0.36700
H 	H 	0.13140 0.61020 0.74840 0.14200
C 	C 	0.31570 0.30010 0.07930 -0.28700
H 	H 	0.28690 0.25270 0.10000 0.12800
C 	C 	0.63350 0.32210 0.96460 0.19000
H 	H 	0.59560 0.34070 0.00480 -0.04500
C 	C 	0.35410 0.32290 0.99940 0.20100
H 	H 	0.35010 0.29120 0.96690 -0.06900
O 	O 	0.37120 0.11190 0.52250 -0.56500
C 	C 	0.33640 0.19290 0.45760 0.52700
H 	H 	0.36140 0.19570 0.40540 -0.14400
C 	C 	0.29300 0.27690 0.65850 0.38600
C 	C 	0.10690 0.15670 0.65600 0.20600
C 	C 	0.31970 0.34660 0.12770 0.22600
H 	H 	0.29630 0.32880 0.18210 -0.05400
C 	C 	0.99100 0.93120 0.81450 -0.64100
C 	C 	0.93690 0.03150 0.78520 0.51100
H 	H 	0.87380 0.05020 0.79910 -0.13200
C 	C 	0.10950 0.54010 0.94950 -0.41500
H 	H 	0.12940 0.48470 0.00060 0.18100
C 	C 	0.13920 0.53160 0.87780 0.29700
H 	H 	0.17820 0.47070 0.87900 -0.08500
C 	C 	0.78450 0.24660 0.92300 0.19000
H 	H 	0.84950 0.21670 0.93320 -0.04000
C 	C 	0.72870 0.27200 0.98300 -0.31200
H 	H 	0.75460 0.25580 0.03510 0.14900
C 	C 	0.74620 0.26440 0.84740 -0.27600
H 	H 	0.78430 0.24210 0.80910 0.12400
O 	O 	0.30590 0.99960 0.79370 0.80200
O 	O 	0.30040 0.03120 0.79150 -1.29700
N 	N 	0.35710 0.97080 0.92570 -0.06200
C 	C 	0.36210 0.98060 0.84600 0.84100
H 	H 	0.42320 0.97040 0.82640 -0.22300
N 	N 	0.39820 0.93110 0.90200 -0.38200
C 	C 	0.44230 0.90990 0.97760 0.71300
H 	H 	0.48880 0.94110 0.96420 -0.43400
H 	H 	0.39590 0.93430 0.01270 -0.18300
H 	H 	0.47240 0.83970 0.00750 -0.18800
C 	C 	0.43150 0.85590 0.86810 -0.36500
H 	H 	0.41260 0.80060 0.90410 0.13400
H 	H 	0.40460 0.88350 0.81190 0.05600
H 	H 	0.49900 0.83430 0.86590 0.15300
C 	C 	0.41110 0.00770 0.95730 -0.39000
H 	H 	0.38680 0.07860 0.93160 0.14500
H 	H 	0.40630 0.98440 0.01780 0.11900
H 	H 	0.47600 0.98460 0.94350 0.33300
C 	C 	0.29080 0.93410 0.98310 -0.38800
H 	H 	0.27070 0.89550 0.96440 0.13200
H 	H 	0.32000 0.89360 0.03890 0.14900
H 	H 	0.23720 0.98860 0.98470 0.10600
C 	C 	0.33530 0.02010 0.85550 -0.22800
H 	H 	0.31890 0.07180 0.87190 0.17500
Mn	Mn	0.50000 0.00000 0.50000 1.36400
