data_crystal

_cell_length_a 15.32710
_cell_length_b 17.51540
_cell_length_c 11.62160
_cell_angle_alpha 90.00000
_cell_angle_beta  101.14500
_cell_angle_gamma 90.00000

_symmetry_space_group_name_	'P 1'
_symmetry_space_group_name_H-M	'P 1'

loop_
_symmetry_equiv_pos_as_xyz
  x,y,z

loop_
_atom_site_label
_atom_site_type_symbol
_atom_site_fract_x
_atom_site_fract_y
_atom_site_fract_z
_atom_site_charge
C 	C 	0.01580 0.26980 0.66440 0.36300
C 	C 	0.92020 0.28040 0.60260 -0.20200
C 	C 	0.88950 0.25200 0.49150 0.15300
H 	H 	0.92860 0.22770 0.45140 -0.00700
C 	C 	0.80030 0.25950 0.43900 -0.29500
H 	H 	0.77920 0.23970 0.36460 0.13900
C 	C 	0.74360 0.29650 0.49870 0.30300
C 	C 	0.77220 0.32590 0.60870 -0.30500
H 	H 	0.73290 0.35080 0.64770 0.13800
C 	C 	0.86120 0.31770 0.66090 0.15600
H 	H 	0.88170 0.33740 0.73560 -0.01700
C 	C 	0.58600 0.28140 0.48700 0.31800
C 	C 	0.50450 0.31380 0.44110 -0.30200
H 	H 	0.50040 0.35240 0.38530 0.15600
C 	C 	0.42950 0.28860 0.47830 0.17500
H 	H 	0.37450 0.30970 0.44640 -0.02700
C 	C 	0.43520 0.23180 0.56350 -0.20400
C 	C 	0.51790 0.20130 0.60970 0.17300
H 	H 	0.52290 0.16410 0.66780 -0.01600
C 	C 	0.59350 0.22510 0.57070 -0.30800
H 	H 	0.64850 0.20330 0.60070 0.13800
C 	C 	0.35340 0.20700 0.60550 0.33700
C 	C 	0.25410 0.05460 0.88090 0.14400
H 	H 	0.29300 0.04140 0.83200 -0.03500
C 	C 	0.25570 0.01280 0.98100 -0.27300
H 	H 	0.29600 0.97290 0.99940 0.13000
C 	C 	0.19770 0.02960 0.05440 0.25400
C 	C 	0.14160 0.09130 0.02400 -0.27300
H 	H 	0.10220 0.10520 0.07200 0.12800
C 	C 	0.14360 0.13240 0.92400 0.14000
H 	H 	0.10580 0.17410 0.90660 -0.03200
C 	C 	0.19560 0.98540 0.16460 -0.39300
H 	H 	0.20850 0.01990 0.23100 0.14700
H 	H 	0.24220 0.94710 0.17460 0.15000
C 	C 	0.10700 0.94610 0.16510 0.16900
H 	H 	0.09680 0.90780 0.10360 -0.01800
H 	H 	0.05960 0.98350 0.14770 -0.02100
C 	C 	0.10310 0.90750 0.28360 -0.38200
H 	H 	0.04510 0.88440 0.27920 0.13800
H 	H 	0.14720 0.86720 0.29810 0.14300
C 	C 	0.20990 0.01570 0.55660 0.14300
H 	H 	0.26100 0.01170 0.61430 -0.03300
C 	C 	0.19290 0.95800 0.47400 -0.26700
H 	H 	0.23050 0.91600 0.47890 0.12000
C 	C 	0.11990 0.96330 0.38440 0.23800
C 	C 	0.06580 0.02670 0.38820 -0.25800
H 	H 	0.01480 0.03270 0.33080 0.12600
C 	C 	0.08600 0.07990 0.47380 0.14100
H 	H 	0.04760 0.12110 0.47310 -0.01000
Cd	Cd	0.19890 0.18348 0.68257 1.20600
N 	N 	0.19820 0.11460 0.84980 -0.27200
N 	N 	0.15830 0.07630 0.55930 -0.25500
O 	O 	0.06370 0.22890 0.61150 -0.43600
O 	O 	0.04070 0.30070 0.76090 -0.31200
O 	O 	0.65606 0.30840 0.43920 -0.32600
O 	O 	0.27862 0.23240 0.55210 -0.41100
O 	O 	0.35886 0.16280 0.69190 -0.38100
C 	C 	0.98420 0.76980 0.83560 0.36200
C 	C 	0.07980 0.78040 0.89740 -0.19800
C 	C 	0.11050 0.75200 0.00850 0.15200
H 	H 	0.07140 0.72770 0.04860 -0.00500
C 	C 	0.19970 0.75950 0.06100 -0.29300
H 	H 	0.22080 0.73970 0.13540 0.13800
C 	C 	0.25640 0.79650 0.00130 0.30200
C 	C 	0.22780 0.82590 0.89130 -0.30300
H 	H 	0.26710 0.85080 0.85230 0.13800
C 	C 	0.13880 0.81770 0.83910 0.15400
H 	H 	0.11830 0.83740 0.76440 -0.01600
C 	C 	0.41400 0.78140 0.01300 0.31800
C 	C 	0.49550 0.81380 0.05890 -0.30300
H 	H 	0.49960 0.85240 0.11470 0.15600
C 	C 	0.57050 0.78860 0.02170 0.17500
H 	H 	0.62550 0.80970 0.05360 -0.02800
C 	C 	0.56480 0.73180 0.93650 -0.20500
C 	C 	0.48210 0.70130 0.89030 0.17300
H 	H 	0.47710 0.66410 0.83220 -0.01600
C 	C 	0.40650 0.72510 0.92930 -0.30900
H 	H 	0.35150 0.70330 0.89930 0.13800
C 	C 	0.64660 0.70700 0.89450 0.33700
C 	C 	0.74590 0.55460 0.61910 0.14600
H 	H 	0.70700 0.54140 0.66800 -0.03500
C 	C 	0.74430 0.51280 0.51900 -0.27700
H 	H 	0.70400 0.47290 0.50060 0.13200
C 	C 	0.80230 0.52960 0.44560 0.25800
C 	C 	0.85840 0.59130 0.47600 -0.27400
H 	H 	0.89780 0.60520 0.42800 0.12900
C 	C 	0.85640 0.63240 0.57600 0.14000
H 	H 	0.89420 0.67410 0.59340 -0.03200
C 	C 	0.80440 0.48540 0.33540 -0.39800
H 	H 	0.79150 0.51990 0.26900 0.14900
H 	H 	0.75780 0.44710 0.32540 0.15100
C 	C 	0.89300 0.44610 0.33490 0.17200
H 	H 	0.90320 0.40780 0.39640 -0.01900
H 	H 	0.94040 0.48350 0.35230 -0.02200
C 	C 	0.89690 0.40750 0.21640 -0.38300
H 	H 	0.95490 0.38440 0.22080 0.13900
H 	H 	0.85280 0.36720 0.20190 0.14300
C 	C 	0.79010 0.51570 0.94340 0.14300
H 	H 	0.73900 0.51170 0.88570 -0.03200
C 	C 	0.80710 0.45800 0.02600 -0.26600
H 	H 	0.76950 0.41600 0.02110 0.12000
C 	C 	0.88010 0.46330 0.11560 0.23800
C 	C 	0.93420 0.52670 0.11180 -0.25700
H 	H 	0.98520 0.53270 0.16920 0.12700
C 	C 	0.91400 0.57990 0.02620 0.14100
H 	H 	0.95240 0.62110 0.02690 -0.01000
Cd	Cd	0.80110 0.68348 0.81743 1.20600
N 	N 	0.80180 0.61460 0.65020 -0.27200
N 	N 	0.84170 0.57630 0.94070 -0.25500
O 	O 	0.93630 0.72890 0.88850 -0.43600
O 	O 	0.95930 0.80070 0.73910 -0.31200
O 	O 	0.34394 0.80840 0.06080 -0.32500
O 	O 	0.72138 0.73240 0.94790 -0.41200
O 	O 	0.64114 0.66280 0.80810 -0.38100
C 	C 	0.98420 0.73020 0.33560 0.36400
C 	C 	0.07980 0.71960 0.39740 -0.20100
C 	C 	0.11050 0.74800 0.50850 0.15400
H 	H 	0.07140 0.77230 0.54860 -0.00600
C 	C 	0.19970 0.74050 0.56100 -0.29500
H 	H 	0.22080 0.76030 0.63540 0.13900
C 	C 	0.25640 0.70350 0.50130 0.30300
C 	C 	0.22780 0.67410 0.39130 -0.30500
H 	H 	0.26710 0.64920 0.35230 0.13800
C 	C 	0.13880 0.68230 0.33910 0.15600
H 	H 	0.11830 0.66260 0.26440 -0.01700
C 	C 	0.41400 0.71860 0.51300 0.31800
C 	C 	0.49550 0.68620 0.55890 -0.30200
H 	H 	0.49960 0.64760 0.61470 0.15600
C 	C 	0.57050 0.71140 0.52170 0.17500
H 	H 	0.62550 0.69030 0.55360 -0.02700
C 	C 	0.56480 0.76820 0.43650 -0.20400
C 	C 	0.48210 0.79870 0.39030 0.17300
H 	H 	0.47710 0.83590 0.33220 -0.01600
C 	C 	0.40650 0.77490 0.42930 -0.30800
H 	H 	0.35150 0.79670 0.39930 0.13800
C 	C 	0.64660 0.79300 0.39450 0.33700
C 	C 	0.74590 0.94540 0.11910 0.14400
H 	H 	0.70700 0.95860 0.16800 -0.03500
C 	C 	0.74430 0.98720 0.01900 -0.27300
H 	H 	0.70400 0.02710 0.00060 0.13000
C 	C 	0.80230 0.97040 0.94560 0.25400
C 	C 	0.85840 0.90870 0.97600 -0.27300
H 	H 	0.89780 0.89480 0.92800 0.12800
C 	C 	0.85640 0.86760 0.07600 0.14000
H 	H 	0.89420 0.82590 0.09340 -0.03200
C 	C 	0.80440 0.01460 0.83540 -0.39300
H 	H 	0.79150 0.98010 0.76900 0.14700
H 	H 	0.75780 0.05290 0.82540 0.15000
C 	C 	0.89300 0.05390 0.83490 0.16900
H 	H 	0.90320 0.09220 0.89640 -0.01800
H 	H 	0.94040 0.01650 0.85230 -0.02100
C 	C 	0.89690 0.09250 0.71640 -0.38200
H 	H 	0.95490 0.11560 0.72080 0.13800
H 	H 	0.85280 0.13280 0.70190 0.14300
C 	C 	0.79010 0.98430 0.44340 0.14300
H 	H 	0.73900 0.98830 0.38570 -0.03300
C 	C 	0.80710 0.04200 0.52600 -0.26700
H 	H 	0.76950 0.08400 0.52110 0.12000
C 	C 	0.88010 0.03670 0.61560 0.23800
C 	C 	0.93420 0.97330 0.61180 -0.25800
H 	H 	0.98520 0.96730 0.66920 0.12600
C 	C 	0.91400 0.92010 0.52620 0.14100
H 	H 	0.95240 0.87890 0.52690 -0.01000
Cd	Cd	0.80110 0.81652 0.31743 1.20600
N 	N 	0.80180 0.88540 0.15020 -0.27200
N 	N 	0.84170 0.92370 0.44070 -0.25500
O 	O 	0.93630 0.77110 0.38850 -0.43600
O 	O 	0.95930 0.69930 0.23910 -0.31200
O 	O 	0.34394 0.69160 0.56080 -0.32600
O 	O 	0.72138 0.76760 0.44790 -0.41100
O 	O 	0.64114 0.83720 0.30810 -0.38100
C 	C 	0.01580 0.23020 0.16440 0.36200
C 	C 	0.92020 0.21960 0.10260 -0.19800
C 	C 	0.88950 0.24800 0.99150 0.15200
H 	H 	0.92860 0.27230 0.95140 -0.00500
C 	C 	0.80030 0.24050 0.93900 -0.29300
H 	H 	0.77920 0.26030 0.86460 0.13800
C 	C 	0.74360 0.20350 0.99870 0.30200
C 	C 	0.77220 0.17410 0.10870 -0.30300
H 	H 	0.73290 0.14920 0.14770 0.13800
C 	C 	0.86120 0.18230 0.16090 0.15400
H 	H 	0.88170 0.16260 0.23560 -0.01600
C 	C 	0.58600 0.21860 0.98700 0.31800
C 	C 	0.50450 0.18620 0.94110 -0.30300
H 	H 	0.50040 0.14760 0.88530 0.15600
C 	C 	0.42950 0.21140 0.97830 0.17500
H 	H 	0.37450 0.19030 0.94640 -0.02800
C 	C 	0.43520 0.26820 0.06350 -0.20500
C 	C 	0.51790 0.29870 0.10970 0.17300
H 	H 	0.52290 0.33590 0.16780 -0.01600
C 	C 	0.59350 0.27490 0.07070 -0.30900
H 	H 	0.64850 0.29670 0.10070 0.13800
C 	C 	0.35340 0.29300 0.10550 0.33700
C 	C 	0.25410 0.44540 0.38090 0.14600
H 	H 	0.29300 0.45860 0.33200 -0.03500
C 	C 	0.25570 0.48720 0.48100 -0.27700
H 	H 	0.29600 0.52710 0.49940 0.13200
C 	C 	0.19770 0.47040 0.55440 0.25800
C 	C 	0.14160 0.40870 0.52400 -0.27400
H 	H 	0.10220 0.39480 0.57200 0.12900
C 	C 	0.14360 0.36760 0.42400 0.14000
H 	H 	0.10580 0.32590 0.40660 -0.03200
C 	C 	0.19560 0.51460 0.66460 -0.39800
H 	H 	0.20850 0.48010 0.73100 0.14900
H 	H 	0.24220 0.55290 0.67460 0.15100
C 	C 	0.10700 0.55390 0.66510 0.17200
H 	H 	0.09680 0.59220 0.60360 -0.01900
H 	H 	0.05960 0.51650 0.64770 -0.02200
C 	C 	0.10310 0.59250 0.78360 -0.38300
H 	H 	0.04510 0.61560 0.77920 0.13900
H 	H 	0.14720 0.63280 0.79810 0.14300
C 	C 	0.20990 0.48430 0.05660 0.14300
H 	H 	0.26100 0.48830 0.11430 -0.03200
C 	C 	0.19290 0.54200 0.97400 -0.26600
H 	H 	0.23050 0.58400 0.97890 0.12000
C 	C 	0.11990 0.53670 0.88440 0.23800
C 	C 	0.06580 0.47330 0.88820 -0.25700
H 	H 	0.01480 0.46730 0.83080 0.12700
C 	C 	0.08600 0.42010 0.97380 0.14100
H 	H 	0.04760 0.37890 0.97310 -0.01000
Cd	Cd	0.19890 0.31652 0.18257 1.20600
N 	N 	0.19820 0.38540 0.34980 -0.27200
N 	N 	0.15830 0.42370 0.05930 -0.25500
O 	O 	0.06370 0.27110 0.11150 -0.43600
O 	O 	0.04070 0.19930 0.26090 -0.31200
O 	O 	0.65606 0.19160 0.93920 -0.32500
O 	O 	0.27862 0.26760 0.05210 -0.41200
O 	O 	0.35886 0.33720 0.19190 -0.38100
