data_crystal

_cell_length_a 7.00810
_cell_length_b 13.81980
_cell_length_c 14.28970
_cell_angle_alpha 90.00000
_cell_angle_beta  99.28200
_cell_angle_gamma 90.00000

_symmetry_space_group_name_	'P 1'
_symmetry_space_group_name_H-M	'P 1'

loop_
_symmetry_equiv_pos_as_xyz
  x,y,z

loop_
_atom_site_label
_atom_site_type_symbol
_atom_site_fract_x
_atom_site_fract_y
_atom_site_fract_z
_atom_site_charge
N 	N 	0.92303 0.43982 0.15978 -0.24500
C 	C 	0.95831 0.35214 0.20117 0.12300
C 	C 	0.91601 0.26451 0.15311 -0.07400
C 	C 	0.83250 0.27090 0.05694 0.00900
C 	C 	0.79560 0.35913 0.01553 -0.10300
C 	C 	0.84280 0.44304 0.06912 0.04500
C 	C 	0.95960 0.17606 0.20395 0.12200
H 	H 	0.80160 0.21350 0.02210 0.00500
H 	H 	0.73930 0.36590 0.95050 0.00900
H 	H 	0.81680 0.50590 0.04180 -0.02400
H 	H 	0.92890 0.11610 0.17050 -0.02100
N 	N 	0.07697 0.43982 0.34022 -0.23100
C 	C 	0.04169 0.35214 0.29883 -0.09600
C 	C 	0.08399 0.26451 0.34689 0.09600
C 	C 	0.16750 0.27090 0.44306 -0.11900
C 	C 	0.20440 0.35913 0.48447 -0.04300
C 	C 	0.15720 0.44304 0.43088 -0.00800
C 	C 	0.04040 0.17606 0.29605 -0.22700
H 	H 	0.19840 0.21350 0.47790 0.03100
H 	H 	0.26070 0.36590 0.54950 -0.02200
H 	H 	0.18320 0.50590 0.45820 -0.03100
H 	H 	0.07110 0.11610 0.32950 0.05900
Cu	Cu	0.00000 0.54937 0.25000 0.73900
N 	N 	0.42303 0.93982 0.65978 -0.24300
C 	C 	0.45831 0.85214 0.70117 0.01200
C 	C 	0.41601 0.76451 0.65311 0.00400
C 	C 	0.33250 0.77090 0.55694 -0.05800
C 	C 	0.29560 0.85913 0.51553 -0.08300
C 	C 	0.34280 0.94304 0.56912 0.01600
C 	C 	0.45960 0.67606 0.70395 -0.05300
H 	H 	0.30160 0.71350 0.52210 0.00900
H 	H 	0.23930 0.86590 0.45050 -0.01400
H 	H 	0.31680 0.00590 0.54180 -0.03500
H 	H 	0.42890 0.61610 0.67050 0.01400
N 	N 	0.57697 0.93982 0.84022 -0.24100
C 	C 	0.54169 0.85214 0.79883 0.01600
C 	C 	0.58399 0.76451 0.84689 0.01500
C 	C 	0.66750 0.77090 0.94306 -0.04600
C 	C 	0.70440 0.85913 0.98447 -0.07400
C 	C 	0.65720 0.94304 0.93088 0.03300
C 	C 	0.54040 0.67606 0.79605 -0.05200
H 	H 	0.69840 0.71350 0.97790 0.02400
H 	H 	0.76070 0.86590 0.04950 0.00400
H 	H 	0.68320 0.00590 0.95820 -0.03000
H 	H 	0.57110 0.61610 0.82950 0.02300
Cu	Cu	0.50000 0.04937 0.75000 0.76200
N 	N 	0.07697 0.56018 0.84022 -0.23100
C 	C 	0.04169 0.64786 0.79883 -0.09500
C 	C 	0.08399 0.73549 0.84689 0.09500
C 	C 	0.16750 0.72910 0.94306 -0.11800
C 	C 	0.20440 0.64087 0.98447 -0.04500
C 	C 	0.15720 0.55696 0.93088 -0.00800
C 	C 	0.04040 0.82394 0.79605 -0.22700
H 	H 	0.19840 0.78650 0.97790 0.03100
H 	H 	0.26070 0.63410 0.04950 -0.02100
H 	H 	0.18320 0.49410 0.95820 -0.03200
H 	H 	0.07110 0.88390 0.82950 0.05900
N 	N 	0.92303 0.56018 0.65978 -0.24500
C 	C 	0.95831 0.64786 0.70117 0.12500
C 	C 	0.91601 0.73549 0.65311 -0.07600
C 	C 	0.83250 0.72910 0.55694 0.01400
C 	C 	0.79560 0.64087 0.51553 -0.11100
C 	C 	0.84280 0.55696 0.56912 0.04900
C 	C 	0.95960 0.82394 0.70395 0.12200
H 	H 	0.80160 0.78650 0.52210 0.00200
H 	H 	0.73930 0.63410 0.45050 0.01400
H 	H 	0.81680 0.49410 0.54180 -0.02600
H 	H 	0.92890 0.88390 0.67050 -0.02200
Cu	Cu	0.00000 0.45063 0.75000 0.73900
N 	N 	0.57697 0.06018 0.34022 -0.24000
C 	C 	0.54169 0.14786 0.29883 0.01600
C 	C 	0.58399 0.23549 0.34689 0.01500
C 	C 	0.66750 0.22910 0.44306 -0.04700
C 	C 	0.70440 0.14087 0.48447 -0.07300
C 	C 	0.65720 0.05696 0.43088 0.02700
C 	C 	0.54040 0.32394 0.29605 -0.05100
H 	H 	0.69840 0.28650 0.47790 0.02500
H 	H 	0.76070 0.13410 0.54950 0.00500
H 	H 	0.68320 0.99410 0.45820 -0.02500
H 	H 	0.57110 0.38390 0.32950 0.02400
N 	N 	0.42303 0.06018 0.15978 -0.24200
C 	C 	0.45831 0.14786 0.20117 0.01200
C 	C 	0.41601 0.23549 0.15311 0.00600
C 	C 	0.33250 0.22910 0.05694 -0.06300
C 	C 	0.29560 0.14087 0.01553 -0.07300
C 	C 	0.34280 0.05696 0.06912 0.01900
C 	C 	0.45960 0.32394 0.20395 -0.05400
H 	H 	0.30160 0.28650 0.02210 0.01200
H 	H 	0.23930 0.13410 0.95050 -0.02100
H 	H 	0.31680 0.99410 0.04180 -0.03900
H 	H 	0.42890 0.38390 0.17050 0.01500
Cu	Cu	0.50000 0.95063 0.25000 0.76200
