data_crystal

_cell_length_a 10.16760
_cell_length_b 17.30000
_cell_length_c 17.48500
_cell_angle_alpha 90.00000
_cell_angle_beta  91.70800
_cell_angle_gamma 90.00000

_symmetry_space_group_name_	'P 1'
_symmetry_space_group_name_H-M	'P 1'

loop_
_symmetry_equiv_pos_as_xyz
  x,y,z

loop_
_atom_site_label
_atom_site_type_symbol
_atom_site_fract_x
_atom_site_fract_y
_atom_site_fract_z
_atom_site_charge
Cd	Cd	0.82736 0.36320 0.01990 1.20400
N 	N 	0.81070 0.39705 0.89178 -0.23900
N 	N 	0.86190 0.51903 0.63499 -0.13500
N 	N 	0.09920 0.73816 0.51087 -0.22800
C 	C 	0.71210 0.37120 0.84620 0.06500
H 	H 	0.64810 0.33810 0.86730 0.00100
C 	C 	0.69930 0.39050 0.76970 -0.11900
H 	H 	0.62720 0.37120 0.73960 0.07000
C 	C 	0.79120 0.43800 0.73680 0.04700
C 	C 	0.89220 0.46550 0.78470 -0.11800
H 	H 	0.95680 0.49930 0.76520 0.07800
C 	C 	0.89890 0.44390 0.86050 0.07000
H 	H 	0.96930 0.46320 0.89190 -0.01400
C 	C 	0.78450 0.46040 0.65469 0.08100
C 	C 	0.70030 0.42200 0.60234 -0.15100
H 	H 	0.64830 0.37980 0.61850 0.08200
C 	C 	0.69380 0.44670 0.52580 0.11100
C 	C 	0.77420 0.50820 0.50640 -0.14800
H 	H 	0.77320 0.52670 0.45520 0.08100
C 	C 	0.85650 0.54270 0.56170 0.08500
C 	C 	0.08080 0.71480 0.58170 0.07600
H 	H 	0.12210 0.74330 0.62220 -0.00500
C 	C 	0.00530 0.65170 0.60050 -0.11900
H 	H 	0.99630 0.63750 0.65260 0.08300
C 	C 	0.94240 0.60900 0.54270 0.05300
C 	C 	0.96750 0.63130 0.46830 -0.11600
H 	H 	0.93070 0.60290 0.42640 0.07300
C 	C 	0.04540 0.69440 0.45520 0.07100
H 	H 	0.06210 0.70770 0.40360 0.00700
C 	C 	0.60320 0.40950 0.46866 -0.09600
C 	C 	0.55590 0.33520 0.47910 0.07200
H 	H 	0.58350 0.30680 0.52320 0.00700
C 	C 	0.46920 0.30160 0.42630 -0.21500
H 	H 	0.43700 0.25080 0.43430 0.12400
C 	C 	0.43020 0.34280 0.36200 0.25200
C 	C 	0.47740 0.41650 0.34974 -0.21800
H 	H 	0.45150 0.44410 0.30480 0.11200
C 	C 	0.56230 0.44960 0.40300 0.07800
H 	H 	0.59360 0.50060 0.39490 0.00500
C 	C 	0.34170 0.32600 0.23580 0.21000
C 	C 	0.22150 0.34150 0.19860 -0.14400
H 	H 	0.14280 0.34170 0.22650 0.10500
C 	C 	0.21690 0.35650 0.12051 -0.00400
C 	C 	0.33300 0.35590 0.08030 -0.05900
H 	H 	0.33060 0.36630 0.02690 0.06800
C 	C 	0.45290 0.34020 0.11790 0.00400
C 	C 	0.45560 0.32440 0.19590 -0.16300
H 	H 	0.53660 0.31240 0.22160 0.10400
C 	C 	0.08660 0.37090 0.08060 0.27800
C 	C 	0.58000 0.34070 0.07620 0.26200
O 	O 	0.08100 0.39176 0.01190 -0.35100
O 	O 	0.98460 0.35884 0.11806 -0.38400
O 	O 	0.58040 0.36262 0.00762 -0.35600
O 	O 	0.68340 0.31975 0.11185 -0.37400
O 	O 	0.33870 0.30758 0.31304 -0.27700
Cd	Cd	0.17264 0.86320 0.48010 1.20600
N 	N 	0.18930 0.89705 0.60822 -0.23900
N 	N 	0.13810 0.01903 0.86501 -0.13300
N 	N 	0.90080 0.23816 0.98913 -0.22100
C 	C 	0.28790 0.87120 0.65380 0.06700
H 	H 	0.35190 0.83810 0.63270 0.00100
C 	C 	0.30070 0.89050 0.73030 -0.11900
H 	H 	0.37280 0.87120 0.76040 0.07200
C 	C 	0.20880 0.93800 0.76320 0.04900
C 	C 	0.10780 0.96550 0.71530 -0.11800
H 	H 	0.04320 0.99930 0.73480 0.07900
C 	C 	0.10110 0.94390 0.63950 0.07100
H 	H 	0.03070 0.96320 0.60810 -0.01400
C 	C 	0.21550 0.96040 0.84531 0.07900
C 	C 	0.29970 0.92200 0.89766 -0.14700
H 	H 	0.35170 0.87980 0.88150 0.08200
C 	C 	0.30620 0.94670 0.97420 0.10600
C 	C 	0.22580 0.00820 0.99360 -0.14200
H 	H 	0.22680 0.02670 0.04480 0.08000
C 	C 	0.14350 0.04270 0.93830 0.08700
C 	C 	0.91920 0.21480 0.91830 0.06900
H 	H 	0.87790 0.24330 0.87780 -0.00200
C 	C 	0.99470 0.15170 0.89950 -0.10200
H 	H 	0.00370 0.13750 0.84740 0.07500
C 	C 	0.05760 0.10900 0.95730 0.04000
C 	C 	0.03250 0.13130 0.03170 -0.10100
H 	H 	0.06930 0.10290 0.07360 0.06900
C 	C 	0.95460 0.19440 0.04480 0.05600
H 	H 	0.93790 0.20770 0.09640 0.01100
C 	C 	0.39680 0.90950 0.03134 -0.09400
C 	C 	0.44410 0.83520 0.02090 0.07600
H 	H 	0.41650 0.80680 0.97680 0.00500
C 	C 	0.53080 0.80160 0.07370 -0.21700
H 	H 	0.56300 0.75080 0.06570 0.12500
C 	C 	0.56980 0.84280 0.13800 0.25400
C 	C 	0.52260 0.91650 0.15026 -0.22000
H 	H 	0.54850 0.94410 0.19520 0.11400
C 	C 	0.43770 0.94960 0.09700 0.08200
H 	H 	0.40640 0.00060 0.10510 0.00300
C 	C 	0.65830 0.82600 0.26420 0.21000
C 	C 	0.77850 0.84150 0.30140 -0.14500
H 	H 	0.85720 0.84170 0.27350 0.10500
C 	C 	0.78310 0.85650 0.37949 -0.00300
C 	C 	0.66700 0.85590 0.41970 -0.06000
H 	H 	0.66940 0.86630 0.47310 0.06800
C 	C 	0.54710 0.84020 0.38210 0.00400
C 	C 	0.54440 0.82440 0.30410 -0.16400
H 	H 	0.46340 0.81240 0.27840 0.10400
C 	C 	0.91340 0.87090 0.41940 0.27500
C 	C 	0.42000 0.84070 0.42380 0.26100
O 	O 	0.91900 0.89176 0.48810 -0.35100
O 	O 	0.01540 0.85884 0.38194 -0.38100
O 	O 	0.41960 0.86262 0.49238 -0.35600
O 	O 	0.31660 0.81975 0.38815 -0.37300
O 	O 	0.66130 0.80758 0.18696 -0.27800
Cd	Cd	0.17264 0.63680 0.98010 1.20500
N 	N 	0.18930 0.60295 0.10822 -0.23800
N 	N 	0.13810 0.48097 0.36501 -0.13400
N 	N 	0.90080 0.26184 0.48913 -0.22700
C 	C 	0.28790 0.62880 0.15380 0.06600
H 	H 	0.35190 0.66190 0.13270 0.00200
C 	C 	0.30070 0.60950 0.23030 -0.11800
H 	H 	0.37280 0.62880 0.26040 0.07100
C 	C 	0.20880 0.56200 0.26320 0.04800
C 	C 	0.10780 0.53450 0.21530 -0.11700
H 	H 	0.04320 0.50070 0.23480 0.07900
C 	C 	0.10110 0.55610 0.13950 0.07100
H 	H 	0.03070 0.53680 0.10810 -0.01300
C 	C 	0.21550 0.53960 0.34531 0.08200
C 	C 	0.29970 0.57800 0.39766 -0.15000
H 	H 	0.35170 0.62020 0.38150 0.08300
C 	C 	0.30620 0.55330 0.47420 0.11200
C 	C 	0.22580 0.49180 0.49360 -0.14700
H 	H 	0.22680 0.47330 0.54480 0.08100
C 	C 	0.14350 0.45730 0.43830 0.08500
C 	C 	0.91920 0.28520 0.41830 0.07600
H 	H 	0.87790 0.25670 0.37780 -0.00500
C 	C 	0.99470 0.34830 0.39950 -0.11900
H 	H 	0.00370 0.36250 0.34740 0.08300
C 	C 	0.05760 0.39100 0.45730 0.05300
C 	C 	0.03250 0.36870 0.53170 -0.11600
H 	H 	0.06930 0.39710 0.57360 0.07300
C 	C 	0.95460 0.30560 0.54480 0.07100
H 	H 	0.93790 0.29230 0.59640 0.00700
C 	C 	0.39680 0.59050 0.53134 -0.09600
C 	C 	0.44410 0.66480 0.52090 0.07200
H 	H 	0.41650 0.69320 0.47680 0.00700
C 	C 	0.53080 0.69840 0.57370 -0.21500
H 	H 	0.56300 0.74920 0.56570 0.12400
C 	C 	0.56980 0.65720 0.63800 0.25200
C 	C 	0.52260 0.58350 0.65026 -0.21800
H 	H 	0.54850 0.55590 0.69520 0.11200
C 	C 	0.43770 0.55040 0.59700 0.07800
H 	H 	0.40640 0.49940 0.60510 0.00500
C 	C 	0.65830 0.67400 0.76420 0.21000
C 	C 	0.77850 0.65850 0.80140 -0.14400
H 	H 	0.85720 0.65830 0.77350 0.10500
C 	C 	0.78310 0.64350 0.87949 -0.00400
C 	C 	0.66700 0.64410 0.91970 -0.05900
H 	H 	0.66940 0.63370 0.97310 0.06800
C 	C 	0.54710 0.65980 0.88210 0.00400
C 	C 	0.54440 0.67560 0.80410 -0.16300
H 	H 	0.46340 0.68760 0.77840 0.10400
C 	C 	0.91340 0.62910 0.91940 0.27800
C 	C 	0.42000 0.65930 0.92380 0.26200
O 	O 	0.91900 0.60824 0.98810 -0.35100
O 	O 	0.01540 0.64116 0.88194 -0.38400
O 	O 	0.41960 0.63738 0.99238 -0.35600
O 	O 	0.31660 0.68025 0.88815 -0.37400
O 	O 	0.66130 0.69242 0.68696 -0.27700
Cd	Cd	0.82736 0.13680 0.51990 1.20600
N 	N 	0.81070 0.10295 0.39178 -0.23900
N 	N 	0.86190 0.98097 0.13499 -0.13300
N 	N 	0.09920 0.76184 0.01087 -0.22100
C 	C 	0.71210 0.12880 0.34620 0.06700
H 	H 	0.64810 0.16190 0.36730 0.00100
C 	C 	0.69930 0.10950 0.26970 -0.11900
H 	H 	0.62720 0.12880 0.23960 0.07200
C 	C 	0.79120 0.06200 0.23680 0.04900
C 	C 	0.89220 0.03450 0.28470 -0.11800
H 	H 	0.95680 0.00070 0.26520 0.07900
C 	C 	0.89890 0.05610 0.36050 0.07100
H 	H 	0.96930 0.03680 0.39190 -0.01400
C 	C 	0.78450 0.03960 0.15469 0.07900
C 	C 	0.70030 0.07800 0.10234 -0.14700
H 	H 	0.64830 0.12020 0.11850 0.08200
C 	C 	0.69380 0.05330 0.02580 0.10600
C 	C 	0.77420 0.99180 0.00640 -0.14200
H 	H 	0.77320 0.97330 0.95520 0.08000
C 	C 	0.85650 0.95730 0.06170 0.08700
C 	C 	0.08080 0.78520 0.08170 0.06900
H 	H 	0.12210 0.75670 0.12220 -0.00200
C 	C 	0.00530 0.84830 0.10050 -0.10200
H 	H 	0.99630 0.86250 0.15260 0.07500
C 	C 	0.94240 0.89100 0.04270 0.04000
C 	C 	0.96750 0.86870 0.96830 -0.10100
H 	H 	0.93070 0.89710 0.92640 0.06900
C 	C 	0.04540 0.80560 0.95520 0.05600
H 	H 	0.06210 0.79230 0.90360 0.01100
C 	C 	0.60320 0.09050 0.96866 -0.09400
C 	C 	0.55590 0.16480 0.97910 0.07600
H 	H 	0.58350 0.19320 0.02320 0.00500
C 	C 	0.46920 0.19840 0.92630 -0.21700
H 	H 	0.43700 0.24920 0.93430 0.12500
C 	C 	0.43020 0.15720 0.86200 0.25400
C 	C 	0.47740 0.08350 0.84974 -0.22000
H 	H 	0.45150 0.05590 0.80480 0.11400
C 	C 	0.56230 0.05040 0.90300 0.08200
H 	H 	0.59360 0.99940 0.89490 0.00300
C 	C 	0.34170 0.17400 0.73580 0.21000
C 	C 	0.22150 0.15850 0.69860 -0.14500
H 	H 	0.14280 0.15830 0.72650 0.10500
C 	C 	0.21690 0.14350 0.62051 -0.00300
C 	C 	0.33300 0.14410 0.58030 -0.06000
H 	H 	0.33060 0.13370 0.52690 0.06800
C 	C 	0.45290 0.15980 0.61790 0.00400
C 	C 	0.45560 0.17560 0.69590 -0.16400
H 	H 	0.53660 0.18760 0.72160 0.10400
C 	C 	0.08660 0.12910 0.58060 0.27500
C 	C 	0.58000 0.15930 0.57620 0.26100
O 	O 	0.08100 0.10824 0.51190 -0.35100
O 	O 	0.98460 0.14116 0.61806 -0.38100
O 	O 	0.58040 0.13738 0.50762 -0.35600
O 	O 	0.68340 0.18025 0.61185 -0.37300
O 	O 	0.33870 0.19242 0.81304 -0.27800
