data_crystal

_cell_length_a 17.34050
_cell_length_b 13.68210
_cell_length_c 25.21300
_cell_angle_alpha 90.00000
_cell_angle_beta  109.98200
_cell_angle_gamma 90.00000

_symmetry_space_group_name_	'P 1'
_symmetry_space_group_name_H-M	'P 1'

loop_
_symmetry_equiv_pos_as_xyz
  x,y,z

loop_
_atom_site_label
_atom_site_type_symbol
_atom_site_fract_x
_atom_site_fract_y
_atom_site_fract_z
_atom_site_charge
Cd	Cd	0.45139 0.27461 0.82118 1.22000
N 	N 	0.44470 0.59930 0.84017 -0.17100
N 	N 	0.43120 0.44250 0.81917 -0.22900
N 	N 	0.57590 0.77440 0.01338 -0.17000
C 	C 	0.65040 0.80960 0.09900 -0.00300
H 	H 	0.69180 0.83600 0.12970 0.03200
N 	N 	0.46420 0.10580 0.81715 -0.25700
N 	N 	0.48170 0.94960 0.83639 -0.21200
O 	O 	0.30000 0.25230 0.75825 -0.34900
O 	O 	0.39740 0.27090 0.72336 -0.39300
O 	O 	0.58940 0.29820 0.89750 -0.37300
O 	O 	0.58170 0.28720 0.81008 -0.41200
C 	C 	0.47300 0.50890 0.85400 0.11300
H 	H 	0.51840 0.49470 0.88560 -0.01700
C 	C 	0.37120 0.49140 0.78050 -0.00600
H 	H 	0.33100 0.46360 0.74960 0.02200
C 	C 	0.37840 0.58810 0.79350 0.01100
H 	H 	0.34370 0.63760 0.77370 0.02600
C 	C 	0.64090 0.82660 0.04440 0.01500
H 	H 	0.67330 0.86690 0.03090 0.02000
N 	N 	0.59120 0.74850 0.10251 -0.22900
C 	C 	0.54810 0.72980 0.05010 0.10800
H 	H 	0.50230 0.68920 0.03940 -0.01000
C 	C 	0.47900 0.03890 0.85520 0.11800
H 	H 	0.48700 0.05250 0.89280 -0.01800
C 	C 	0.49100 0.96370 0.78710 0.63200
H 	H 	0.50310 0.91610 0.76480 -0.16000
C 	C 	0.47900 0.05900 0.77490 0.64200
H 	H 	0.48170 0.08840 0.74220 -0.16000
C 	C 	0.47480 0.68880 0.86860 0.26400
C 	C 	0.51090 0.68730 0.92550 -0.31900
H 	H 	0.51650 0.62890 0.94530 0.14400
C 	C 	0.53960 0.77410 0.95383 0.24800
C 	C 	0.53090 0.86120 0.92427 -0.31600
H 	H 	0.55020 0.91940 0.94320 0.14300
C 	C 	0.49330 0.86030 0.86650 0.27300
C 	C 	0.46620 0.77390 0.83849 -0.32300
H 	H 	0.44230 0.77320 0.79940 0.16400
C 	C 	0.32520 0.25370 0.71760 0.31900
C 	C 	0.26700 0.21200 0.66200 -0.02500
C 	C 	0.19010 0.18700 0.65240 0.00100
H 	H 	0.17100 0.18610 0.68270 0.03800
C 	C 	0.13700 0.16200 0.60030 -0.07400
H 	H 	0.08220 0.14990 0.59540 0.05300
C 	C 	0.16300 0.15450 0.55610 0.02700
C 	C 	0.24350 0.17950 0.56470 -0.07100
H 	H 	0.26240 0.17780 0.53440 0.05000
C 	C 	0.29700 0.20700 0.61800 0.02700
H 	H 	0.35170 0.22180 0.62300 0.03600
C 	C 	0.62070 0.29670 0.85980 0.33800
C 	C 	0.71170 0.33080 0.87940 -0.01000
C 	C 	0.76140 0.34430 0.93280 -0.04200
H 	H 	0.73780 0.34370 0.96080 0.04800
C 	C 	0.84380 0.35890 0.94910 -0.04600
H 	H 	0.87420 0.36420 0.98740 0.04400
C 	C 	0.88040 0.36540 0.91320 0.01600
C 	C 	0.83080 0.34940 0.85670 -0.07800
H 	H 	0.85520 0.34760 0.82910 0.05700
C 	C 	0.75110 0.33700 0.84160 0.05200
H 	H 	0.72060 0.33230 0.80340 0.01200
C 	C 	0.10770 0.11960 0.49930 0.04200
C 	C 	0.02500 0.14040 0.48270 -0.09000
H 	H 	0.00520 0.17560 0.50690 0.05100
C 	C 	0.97090 0.11030 0.43120 0.04500
C 	C 	0.00060 0.05730 0.39550 -0.10400
H 	H 	0.96510 0.03530 0.36080 0.06500
C 	C 	0.08400 0.03750 0.41210 0.02300
H 	H 	0.10400 0.00320 0.38760 0.02000
C 	C 	0.13830 0.06710 0.46380 -0.10500
H 	H 	0.19390 0.05210 0.47450 0.06600
C 	C 	0.44800 0.95600 0.77440 -0.63600
H 	H 	0.43680 0.90470 0.74840 0.25800
C 	C 	0.43600 0.05300 0.76410 -0.64300
H 	H 	0.41370 0.08180 0.72860 0.24800
C 	C 	0.26800 0.25900 0.65800 -0.05300
C 	C 	0.18720 0.28450 0.64590 -0.01100
H 	H 	0.16710 0.29700 0.67500 0.03800
C 	C 	0.13460 0.29170 0.58950 -0.05300
H 	H 	0.07940 0.30570 0.58230 0.04400
C 	C 	0.16100 0.27900 0.54520 -0.00100
C 	C 	0.24490 0.26240 0.55740 -0.02600
H 	H 	0.26640 0.25700 0.52840 0.02900
C 	C 	0.29500 0.25400 0.61300 -0.02000
H 	H 	0.35090 0.24430 0.62030 0.00500
C 	C 	0.71000 0.27100 0.87350 -0.08500
C 	C 	0.75880 0.24850 0.92920 0.04000
H 	H 	0.73540 0.24810 0.95730 0.01900
C 	C 	0.84140 0.22710 0.94260 -0.09400
H 	H 	0.87220 0.20680 0.97890 0.05800
C 	C 	0.87790 0.23600 0.90180 0.03000
C 	C 	0.83170 0.24570 0.84850 -0.05400
H 	H 	0.85510 0.23920 0.82060 0.04000
C 	C 	0.74870 0.26500 0.83340 -0.03300
H 	H 	0.71790 0.27500 0.79560 0.04000
C 	C 	0.10330 0.29210 0.48540 0.05000
C 	C 	0.02040 0.27580 0.47050 -0.09200
H 	H 	0.99890 0.25550 0.49780 0.05000
C 	C 	0.96840 0.28920 0.41530 0.03900
C 	C 	0.99960 0.31970 0.37440 -0.10300
H 	H 	0.96480 0.32910 0.33750 0.06300
C 	C 	0.08280 0.33630 0.38880 0.02300
H 	H 	0.10440 0.35680 0.36160 0.02100
C 	C 	0.13400 0.32200 0.44410 -0.10500
H 	H 	0.19010 0.33280 0.45360 0.06500
Cd	Cd	0.54861 0.77461 0.67882 1.21900
N 	N 	0.55530 0.09930 0.65983 -0.17200
N 	N 	0.56880 0.94250 0.68083 -0.23000
N 	N 	0.42410 0.27440 0.48662 -0.17100
C 	C 	0.34960 0.30960 0.40100 -0.00300
H 	H 	0.30820 0.33600 0.37030 0.03200
N 	N 	0.53580 0.60580 0.68285 -0.25700
N 	N 	0.51830 0.44960 0.66361 -0.21200
O 	O 	0.70000 0.75230 0.74175 -0.34900
O 	O 	0.60260 0.77090 0.77664 -0.39300
O 	O 	0.41060 0.79820 0.60250 -0.37300
O 	O 	0.41830 0.78720 0.68992 -0.41200
C 	C 	0.52700 0.00890 0.64600 0.11300
H 	H 	0.48160 0.99470 0.61440 -0.01700
C 	C 	0.62880 0.99140 0.71950 -0.00500
H 	H 	0.66900 0.96360 0.75040 0.02200
C 	C 	0.62160 0.08810 0.70650 0.01000
H 	H 	0.65630 0.13760 0.72630 0.02600
C 	C 	0.35910 0.32660 0.45560 0.01500
H 	H 	0.32670 0.36690 0.46910 0.02000
N 	N 	0.40880 0.24850 0.39749 -0.22900
C 	C 	0.45190 0.22980 0.44990 0.10800
H 	H 	0.49770 0.18920 0.46060 -0.00900
C 	C 	0.52100 0.53890 0.64480 0.11800
H 	H 	0.51300 0.55250 0.60720 -0.01800
C 	C 	0.50900 0.46370 0.71290 0.63300
H 	H 	0.49690 0.41610 0.73520 -0.16000
C 	C 	0.52100 0.55900 0.72510 0.64200
H 	H 	0.51830 0.58840 0.75780 -0.16000
C 	C 	0.52520 0.18880 0.63140 0.26400
C 	C 	0.48910 0.18730 0.57450 -0.31900
H 	H 	0.48350 0.12890 0.55470 0.14400
C 	C 	0.46040 0.27410 0.54617 0.24800
C 	C 	0.46910 0.36120 0.57573 -0.31600
H 	H 	0.44980 0.41940 0.55680 0.14300
C 	C 	0.50670 0.36030 0.63350 0.27300
C 	C 	0.53380 0.27390 0.66151 -0.32300
H 	H 	0.55770 0.27320 0.70060 0.16400
C 	C 	0.67480 0.75370 0.78240 0.31900
C 	C 	0.73300 0.71200 0.83800 -0.02500
C 	C 	0.80990 0.68700 0.84760 0.00100
H 	H 	0.82900 0.68610 0.81730 0.03700
C 	C 	0.86300 0.66200 0.89970 -0.07400
H 	H 	0.91780 0.64990 0.90460 0.05200
C 	C 	0.83700 0.65450 0.94390 0.02700
C 	C 	0.75650 0.67950 0.93530 -0.07100
H 	H 	0.73760 0.67780 0.96560 0.05000
C 	C 	0.70300 0.70700 0.88200 0.02700
H 	H 	0.64830 0.72180 0.87700 0.03600
C 	C 	0.37930 0.79670 0.64020 0.33800
C 	C 	0.28830 0.83080 0.62060 -0.01000
C 	C 	0.23860 0.84430 0.56720 -0.04200
H 	H 	0.26220 0.84370 0.53920 0.04800
C 	C 	0.15620 0.85890 0.55090 -0.04600
H 	H 	0.12580 0.86420 0.51260 0.04300
C 	C 	0.11960 0.86540 0.58680 0.01500
C 	C 	0.16920 0.84940 0.64330 -0.07800
H 	H 	0.14480 0.84760 0.67090 0.05700
C 	C 	0.24890 0.83700 0.65840 0.05200
H 	H 	0.27940 0.83230 0.69660 0.01200
C 	C 	0.89230 0.61960 0.00070 0.04200
C 	C 	0.97500 0.64040 0.01730 -0.08800
H 	H 	0.99480 0.67560 0.99310 0.05000
C 	C 	0.02910 0.61030 0.06880 0.04300
C 	C 	0.99940 0.55730 0.10450 -0.10300
H 	H 	0.03490 0.53530 0.13920 0.06500
C 	C 	0.91600 0.53750 0.08790 0.02200
H 	H 	0.89600 0.50320 0.11240 0.02000
C 	C 	0.86170 0.56710 0.03620 -0.10400
H 	H 	0.80610 0.55210 0.02550 0.06600
C 	C 	0.55200 0.45600 0.72560 -0.63700
H 	H 	0.56320 0.40470 0.75160 0.25800
C 	C 	0.56400 0.55300 0.73590 -0.64300
H 	H 	0.58630 0.58180 0.77140 0.24800
C 	C 	0.73200 0.75900 0.84200 -0.05300
C 	C 	0.81280 0.78450 0.85410 -0.01200
H 	H 	0.83290 0.79700 0.82500 0.03800
C 	C 	0.86540 0.79170 0.91050 -0.05300
H 	H 	0.92060 0.80570 0.91770 0.04400
C 	C 	0.83900 0.77900 0.95480 -0.00200
C 	C 	0.75510 0.76240 0.94260 -0.02500
H 	H 	0.73360 0.75700 0.97160 0.02900
C 	C 	0.70500 0.75400 0.88700 -0.02000
H 	H 	0.64910 0.74430 0.87970 0.00500
C 	C 	0.29000 0.77100 0.62650 -0.08400
C 	C 	0.24120 0.74850 0.57080 0.04000
H 	H 	0.26460 0.74810 0.54270 0.01900
C 	C 	0.15860 0.72710 0.55740 -0.09400
H 	H 	0.12780 0.70680 0.52110 0.05800
C 	C 	0.12210 0.73600 0.59820 0.03000
C 	C 	0.16830 0.74570 0.65150 -0.05400
H 	H 	0.14490 0.73920 0.67940 0.04000
C 	C 	0.25130 0.76500 0.66660 -0.03300
H 	H 	0.28210 0.77500 0.70440 0.04100
C 	C 	0.89670 0.79210 0.01460 0.05000
C 	C 	0.97960 0.77580 0.02950 -0.09000
H 	H 	0.00110 0.75550 0.00220 0.04900
C 	C 	0.03160 0.78920 0.08470 0.03800
C 	C 	0.00040 0.81970 0.12560 -0.10500
H 	H 	0.03520 0.82910 0.16250 0.06300
C 	C 	0.91720 0.83630 0.11120 0.02500
H 	H 	0.89560 0.85680 0.13840 0.02100
C 	C 	0.86600 0.82200 0.05590 -0.10600
H 	H 	0.80990 0.83280 0.04640 0.06600
Cd	Cd	0.54861 0.72539 0.17882 1.21900
N 	N 	0.55530 0.40070 0.15983 -0.17200
N 	N 	0.56880 0.55750 0.18083 -0.23000
N 	N 	0.42410 0.22560 0.98662 -0.17100
C 	C 	0.34960 0.19040 0.90100 -0.00300
H 	H 	0.30820 0.16400 0.87030 0.03200
N 	N 	0.53580 0.89420 0.18285 -0.25700
N 	N 	0.51830 0.05040 0.16361 -0.21200
O 	O 	0.70000 0.74770 0.24175 -0.34900
O 	O 	0.60260 0.72910 0.27664 -0.39300
O 	O 	0.41060 0.70180 0.10250 -0.37300
O 	O 	0.41830 0.71280 0.18992 -0.41200
C 	C 	0.52700 0.49110 0.14600 0.11300
H 	H 	0.48160 0.50530 0.11440 -0.01700
C 	C 	0.62880 0.50860 0.21950 -0.00600
H 	H 	0.66900 0.53640 0.25040 0.02200
C 	C 	0.62160 0.41190 0.20650 0.01100
H 	H 	0.65630 0.36240 0.22630 0.02600
C 	C 	0.35910 0.17340 0.95560 0.01500
H 	H 	0.32670 0.13310 0.96910 0.02000
N 	N 	0.40880 0.25150 0.89749 -0.22900
C 	C 	0.45190 0.27020 0.94990 0.10800
H 	H 	0.49770 0.31080 0.96060 -0.01000
C 	C 	0.52100 0.96110 0.14480 0.11800
H 	H 	0.51300 0.94750 0.10720 -0.01800
C 	C 	0.50900 0.03630 0.21290 0.63200
H 	H 	0.49690 0.08390 0.23520 -0.16000
C 	C 	0.52100 0.94100 0.22510 0.64200
H 	H 	0.51830 0.91160 0.25780 -0.16000
C 	C 	0.52520 0.31120 0.13140 0.26400
C 	C 	0.48910 0.31270 0.07450 -0.31900
H 	H 	0.48350 0.37110 0.05470 0.14400
C 	C 	0.46040 0.22590 0.04617 0.24800
C 	C 	0.46910 0.13880 0.07573 -0.31600
H 	H 	0.44980 0.08060 0.05680 0.14300
C 	C 	0.50670 0.13970 0.13350 0.27300
C 	C 	0.53380 0.22610 0.16151 -0.32300
H 	H 	0.55770 0.22680 0.20060 0.16400
C 	C 	0.67480 0.74630 0.28240 0.31900
C 	C 	0.73300 0.78800 0.33800 -0.02500
C 	C 	0.80990 0.81300 0.34760 0.00100
H 	H 	0.82900 0.81390 0.31730 0.03800
C 	C 	0.86300 0.83800 0.39970 -0.07400
H 	H 	0.91780 0.85010 0.40460 0.05300
C 	C 	0.83700 0.84550 0.44390 0.02700
C 	C 	0.75650 0.82050 0.43530 -0.07100
H 	H 	0.73760 0.82220 0.46560 0.05000
C 	C 	0.70300 0.79300 0.38200 0.02700
H 	H 	0.64830 0.77820 0.37700 0.03600
C 	C 	0.37930 0.70330 0.14020 0.33800
C 	C 	0.28830 0.66920 0.12060 -0.01000
C 	C 	0.23860 0.65570 0.06720 -0.04200
H 	H 	0.26220 0.65630 0.03920 0.04800
C 	C 	0.15620 0.64110 0.05090 -0.04600
H 	H 	0.12580 0.63580 0.01260 0.04400
C 	C 	0.11960 0.63460 0.08680 0.01600
C 	C 	0.16920 0.65060 0.14330 -0.07800
H 	H 	0.14480 0.65240 0.17090 0.05700
C 	C 	0.24890 0.66300 0.15840 0.05200
H 	H 	0.27940 0.66770 0.19660 0.01200
C 	C 	0.89230 0.88040 0.50070 0.04200
C 	C 	0.97500 0.85960 0.51730 -0.09000
H 	H 	0.99480 0.82440 0.49310 0.05100
C 	C 	0.02910 0.88970 0.56880 0.04500
C 	C 	0.99940 0.94270 0.60450 -0.10400
H 	H 	0.03490 0.96470 0.63920 0.06500
C 	C 	0.91600 0.96250 0.58790 0.02300
H 	H 	0.89600 0.99680 0.61240 0.02000
C 	C 	0.86170 0.93290 0.53620 -0.10500
H 	H 	0.80610 0.94790 0.52550 0.06600
C 	C 	0.55200 0.04400 0.22560 -0.63600
H 	H 	0.56320 0.09530 0.25160 0.25800
C 	C 	0.56400 0.94700 0.23590 -0.64300
H 	H 	0.58630 0.91820 0.27140 0.24800
C 	C 	0.73200 0.74100 0.34200 -0.05300
C 	C 	0.81280 0.71550 0.35410 -0.01100
H 	H 	0.83290 0.70300 0.32500 0.03800
C 	C 	0.86540 0.70830 0.41050 -0.05300
H 	H 	0.92060 0.69430 0.41770 0.04400
C 	C 	0.83900 0.72100 0.45480 -0.00100
C 	C 	0.75510 0.73760 0.44260 -0.02600
H 	H 	0.73360 0.74300 0.47160 0.02900
C 	C 	0.70500 0.74600 0.38700 -0.02000
H 	H 	0.64910 0.75570 0.37970 0.00500
C 	C 	0.29000 0.72900 0.12650 -0.08500
C 	C 	0.24120 0.75150 0.07080 0.04000
H 	H 	0.26460 0.75190 0.04270 0.01900
C 	C 	0.15860 0.77290 0.05740 -0.09400
H 	H 	0.12780 0.79320 0.02110 0.05800
C 	C 	0.12210 0.76400 0.09820 0.03000
C 	C 	0.16830 0.75430 0.15150 -0.05400
H 	H 	0.14490 0.76080 0.17940 0.04000
C 	C 	0.25130 0.73500 0.16660 -0.03300
H 	H 	0.28210 0.72500 0.20440 0.04000
C 	C 	0.89670 0.70790 0.51460 0.05000
C 	C 	0.97960 0.72420 0.52950 -0.09200
H 	H 	0.00110 0.74450 0.50220 0.05000
C 	C 	0.03160 0.71080 0.58470 0.03900
C 	C 	0.00040 0.68030 0.62560 -0.10300
H 	H 	0.03520 0.67090 0.66250 0.06300
C 	C 	0.91720 0.66370 0.61120 0.02300
H 	H 	0.89560 0.64320 0.63840 0.02100
C 	C 	0.86600 0.67800 0.55590 -0.10500
H 	H 	0.80990 0.66720 0.54640 0.06500
Cd	Cd	0.45139 0.22539 0.32118 1.21900
N 	N 	0.44470 0.90070 0.34017 -0.17200
N 	N 	0.43120 0.05750 0.31917 -0.23000
N 	N 	0.57590 0.72560 0.51338 -0.17100
C 	C 	0.65040 0.69040 0.59900 -0.00300
H 	H 	0.69180 0.66400 0.62970 0.03200
N 	N 	0.46420 0.39420 0.31715 -0.25700
N 	N 	0.48170 0.55040 0.33639 -0.21200
O 	O 	0.30000 0.24770 0.25825 -0.34900
O 	O 	0.39740 0.22910 0.22336 -0.39300
O 	O 	0.58940 0.20180 0.39750 -0.37300
O 	O 	0.58170 0.21280 0.31008 -0.41200
C 	C 	0.47300 0.99110 0.35400 0.11300
H 	H 	0.51840 0.00530 0.38560 -0.01700
C 	C 	0.37120 0.00860 0.28050 -0.00500
H 	H 	0.33100 0.03640 0.24960 0.02200
C 	C 	0.37840 0.91190 0.29350 0.01000
H 	H 	0.34370 0.86240 0.27370 0.02600
C 	C 	0.64090 0.67340 0.54440 0.01500
H 	H 	0.67330 0.63310 0.53090 0.02000
N 	N 	0.59120 0.75150 0.60251 -0.22900
C 	C 	0.54810 0.77020 0.55010 0.10800
H 	H 	0.50230 0.81080 0.53940 -0.00900
C 	C 	0.47900 0.46110 0.35520 0.11800
H 	H 	0.48700 0.44750 0.39280 -0.01800
C 	C 	0.49100 0.53630 0.28710 0.63300
H 	H 	0.50310 0.58390 0.26480 -0.16000
C 	C 	0.47900 0.44100 0.27490 0.64200
H 	H 	0.48170 0.41160 0.24220 -0.16000
C 	C 	0.47480 0.81120 0.36860 0.26400
C 	C 	0.51090 0.81270 0.42550 -0.31900
H 	H 	0.51650 0.87110 0.44530 0.14400
C 	C 	0.53960 0.72590 0.45383 0.24800
C 	C 	0.53090 0.63880 0.42427 -0.31600
H 	H 	0.55020 0.58060 0.44320 0.14300
C 	C 	0.49330 0.63970 0.36650 0.27300
C 	C 	0.46620 0.72610 0.33849 -0.32300
H 	H 	0.44230 0.72680 0.29940 0.16400
C 	C 	0.32520 0.24630 0.21760 0.31900
C 	C 	0.26700 0.28800 0.16200 -0.02500
C 	C 	0.19010 0.31300 0.15240 0.00100
H 	H 	0.17100 0.31390 0.18270 0.03700
C 	C 	0.13700 0.33800 0.10030 -0.07400
H 	H 	0.08220 0.35010 0.09540 0.05200
C 	C 	0.16300 0.34550 0.05610 0.02700
C 	C 	0.24350 0.32050 0.06470 -0.07100
H 	H 	0.26240 0.32220 0.03440 0.05000
C 	C 	0.29700 0.29300 0.11800 0.02700
H 	H 	0.35170 0.27820 0.12300 0.03600
C 	C 	0.62070 0.20330 0.35980 0.33800
C 	C 	0.71170 0.16920 0.37940 -0.01000
C 	C 	0.76140 0.15570 0.43280 -0.04200
H 	H 	0.73780 0.15630 0.46080 0.04800
C 	C 	0.84380 0.14110 0.44910 -0.04600
H 	H 	0.87420 0.13580 0.48740 0.04300
C 	C 	0.88040 0.13460 0.41320 0.01500
C 	C 	0.83080 0.15060 0.35670 -0.07800
H 	H 	0.85520 0.15240 0.32910 0.05700
C 	C 	0.75110 0.16300 0.34160 0.05200
H 	H 	0.72060 0.16770 0.30340 0.01200
C 	C 	0.10770 0.38040 0.99930 0.04200
C 	C 	0.02500 0.35960 0.98270 -0.08800
H 	H 	0.00520 0.32440 0.00690 0.05000
C 	C 	0.97090 0.38970 0.93120 0.04300
C 	C 	0.00060 0.44270 0.89550 -0.10300
H 	H 	0.96510 0.46470 0.86080 0.06500
C 	C 	0.08400 0.46250 0.91210 0.02200
H 	H 	0.10400 0.49680 0.88760 0.02000
C 	C 	0.13830 0.43290 0.96380 -0.10400
H 	H 	0.19390 0.44790 0.97450 0.06600
C 	C 	0.44800 0.54400 0.27440 -0.63700
H 	H 	0.43680 0.59530 0.24840 0.25800
C 	C 	0.43600 0.44700 0.26410 -0.64300
H 	H 	0.41370 0.41820 0.22860 0.24800
C 	C 	0.26800 0.24100 0.15800 -0.05300
C 	C 	0.18720 0.21550 0.14590 -0.01200
H 	H 	0.16710 0.20300 0.17500 0.03800
C 	C 	0.13460 0.20830 0.08950 -0.05300
H 	H 	0.07940 0.19430 0.08230 0.04400
C 	C 	0.16100 0.22100 0.04520 -0.00200
C 	C 	0.24490 0.23760 0.05740 -0.02500
H 	H 	0.26640 0.24300 0.02840 0.02900
C 	C 	0.29500 0.24600 0.11300 -0.02000
H 	H 	0.35090 0.25570 0.12030 0.00500
C 	C 	0.71000 0.22900 0.37350 -0.08400
C 	C 	0.75880 0.25150 0.42920 0.04000
H 	H 	0.73540 0.25190 0.45730 0.01900
C 	C 	0.84140 0.27290 0.44260 -0.09400
H 	H 	0.87220 0.29320 0.47890 0.05800
C 	C 	0.87790 0.26400 0.40180 0.03000
C 	C 	0.83170 0.25430 0.34850 -0.05400
H 	H 	0.85510 0.26080 0.32060 0.04000
C 	C 	0.74870 0.23500 0.33340 -0.03300
H 	H 	0.71790 0.22500 0.29560 0.04100
C 	C 	0.10330 0.20790 0.98540 0.05000
C 	C 	0.02040 0.22420 0.97050 -0.09000
H 	H 	0.99890 0.24450 0.99780 0.04900
C 	C 	0.96840 0.21080 0.91530 0.03800
C 	C 	0.99960 0.18030 0.87440 -0.10500
H 	H 	0.96480 0.17090 0.83750 0.06300
C 	C 	0.08280 0.16370 0.88880 0.02500
H 	H 	0.10440 0.14320 0.86160 0.02100
C 	C 	0.13400 0.17800 0.94410 -0.10600
H 	H 	0.19010 0.16720 0.95360 0.06600
