data_crystal

_cell_length_a 9.13500
_cell_length_b 11.07890
_cell_length_c 11.98040
_cell_angle_alpha 92.07100
_cell_angle_beta  94.00900
_cell_angle_gamma 112.74700

_symmetry_space_group_name_	'P 1'
_symmetry_space_group_name_H-M	'P 1'

loop_
_symmetry_equiv_pos_as_xyz
  x,y,z

loop_
_atom_site_label
_atom_site_type_symbol
_atom_site_fract_x
_atom_site_fract_y
_atom_site_fract_z
_atom_site_charge
Cu	Cu	0.31919 0.29834 0.36197 0.88200
S 	S 	0.39886 0.86394 0.16852 -0.03300
S 	S 	0.62584 0.95404 0.12817 -0.02300
O 	O 	0.19520 0.72950 0.64440 -0.24300
O 	O 	0.01890 0.79808 0.71341 -0.28500
C 	C 	0.12700 0.80680 0.65292 0.30300
C 	C 	0.18130 0.92440 0.58044 -0.03400
C 	C 	0.15480 0.03680 0.60879 -0.02800
H 	H 	0.10610 0.04260 0.67330 0.05900
C 	C 	0.20200 0.13964 0.53954 -0.02300
N 	N 	0.26850 0.13420 0.44387 -0.20300
N 	N 	0.34960 0.47150 0.29977 -0.23100
C 	C 	0.48830 0.55090 0.26600 0.09400
H 	H 	0.57250 0.52330 0.26970 -0.00300
C 	C 	0.51350 0.67200 0.22560 -0.16300
H 	H 	0.61190 0.72420 0.20240 0.10100
C 	C 	0.38910 0.71360 0.22064 0.10100
C 	C 	0.37350 0.11700 0.00620 0.09700
C 	C 	0.50470 0.21240 0.06608 -0.15600
H 	H 	0.60350 0.24410 0.03730 0.09800
C 	C 	0.48470 0.25960 0.17049 0.09300
H 	H 	0.57280 0.32350 0.21110 -0.00300
N 	N 	0.34550 0.21794 0.21549 -0.23600
C 	C 	0.29530 0.02680 0.41730 0.04400
H 	H 	0.34290 0.02290 0.35200 0.01500
C 	C 	0.25450 0.92100 0.48390 -0.06000
H 	H 	0.27620 0.84820 0.46380 0.06900
O 	O 	0.24640 0.35655 0.49691 -0.36900
C 	C 	0.18530 0.26850 0.56471 0.28900
O 	O 	0.11950 0.28213 0.64761 -0.24000
C 	C 	0.22960 0.51250 0.29470 0.09600
H 	H 	0.13230 0.45810 0.31810 0.01800
C 	C 	0.24430 0.63240 0.25600 -0.16100
H 	H 	0.15860 0.65810 0.25380 0.10700
C 	C 	0.21990 0.12390 0.15740 0.08800
H 	H 	0.12250 0.09340 0.18830 0.00200
C 	C 	0.22930 0.07050 0.05319 -0.15500
H 	H 	0.14030 0.00460 0.01540 0.09100
Cu	Cu	0.68081 0.70166 0.63803 0.88300
S 	S 	0.60114 0.13606 0.83148 -0.03200
S 	S 	0.37416 0.04596 0.87183 -0.02200
O 	O 	0.80480 0.27050 0.35560 -0.24200
O 	O 	0.98110 0.20192 0.28659 -0.28500
C 	C 	0.87300 0.19320 0.34708 0.30300
C 	C 	0.81870 0.07560 0.41956 -0.03400
C 	C 	0.84520 0.96320 0.39121 -0.02800
H 	H 	0.89390 0.95740 0.32670 0.05900
C 	C 	0.79800 0.86036 0.46046 -0.02300
N 	N 	0.73150 0.86580 0.55613 -0.20300
N 	N 	0.65040 0.52850 0.70023 -0.23100
C 	C 	0.51170 0.44910 0.73400 0.09400
H 	H 	0.42750 0.47670 0.73030 -0.00300
C 	C 	0.48650 0.32800 0.77440 -0.16300
H 	H 	0.38810 0.27580 0.79760 0.10100
C 	C 	0.61090 0.28640 0.77936 0.10100
C 	C 	0.62650 0.88300 0.99380 0.09700
C 	C 	0.49530 0.78760 0.93392 -0.15600
H 	H 	0.39650 0.75590 0.96270 0.09800
C 	C 	0.51530 0.74040 0.82951 0.09300
H 	H 	0.42720 0.67650 0.78890 -0.00300
N 	N 	0.65450 0.78206 0.78451 -0.23600
C 	C 	0.70470 0.97320 0.58270 0.04400
H 	H 	0.65710 0.97710 0.64800 0.01500
C 	C 	0.74550 0.07900 0.51610 -0.06000
H 	H 	0.72380 0.15180 0.53620 0.06900
O 	O 	0.75360 0.64345 0.50309 -0.36900
C 	C 	0.81470 0.73150 0.43529 0.28900
O 	O 	0.88050 0.71787 0.35239 -0.24000
C 	C 	0.77040 0.48750 0.70530 0.09600
H 	H 	0.86770 0.54190 0.68190 0.01800
C 	C 	0.75570 0.36760 0.74400 -0.16100
H 	H 	0.84140 0.34190 0.74620 0.10700
C 	C 	0.78010 0.87610 0.84260 0.08800
H 	H 	0.87750 0.90660 0.81170 0.00200
C 	C 	0.77070 0.92950 0.94681 -0.15500
H 	H 	0.85970 0.99540 0.98460 0.09100
