data_crystal

_cell_length_a 10.88770
_cell_length_b 11.92960
_cell_length_c 11.97760
_cell_angle_alpha 70.52100
_cell_angle_beta  64.32200
_cell_angle_gamma 64.67900

_symmetry_space_group_name_	'P 1'
_symmetry_space_group_name_H-M	'P 1'

loop_
_symmetry_equiv_pos_as_xyz
  x,y,z

loop_
_atom_site_label
_atom_site_type_symbol
_atom_site_fract_x
_atom_site_fract_y
_atom_site_fract_z
_atom_site_charge
Cd	Cd	0.11933 0.54094 0.01791 1.20200
Cd	Cd	0.35841 0.55541 0.40856 1.23100
Cd	Cd	0.96450 0.55495 0.63744 1.22800
Cd	Cd	0.27141 0.38361 0.72895 1.21600
C 	C 	0.16400 0.84880 0.52170 0.15400
C 	C 	0.96950 0.83130 0.51810 0.11200
C 	C 	0.15940 0.82670 0.34330 0.11100
C 	C 	0.16760 0.77170 0.16160 -0.35700
H 	H 	0.22880 0.76710 0.07440 0.13400
H 	H 	0.07350 0.83300 0.16240 0.15300
C 	C 	0.15150 0.64520 0.22850 0.43800
C 	C 	0.36420 0.84120 0.15080 -0.31100
H 	H 	0.34580 0.92870 0.14930 0.14800
H 	H 	0.39560 0.83130 0.06440 0.12900
C 	C 	0.48760 0.75810 0.20270 0.39200
C 	C 	0.75180 0.82970 0.50900 -0.37100
H 	H 	0.75440 0.90530 0.44520 0.15800
H 	H 	0.65190 0.84270 0.56350 0.14300
C 	C 	0.80230 0.71990 0.44380 0.47800
C 	C 	0.75810 0.84940 0.70980 -0.35900
H 	H 	0.65640 0.86450 0.73060 0.13700
H 	H 	0.76710 0.92880 0.70420 0.16000
C 	C 	0.80360 0.75760 0.81790 0.42800
C 	C 	0.16580 0.86460 0.71890 -0.28000
H 	H 	0.06620 0.91980 0.73440 0.14000
H 	H 	0.21420 0.90210 0.74050 0.12300
C 	C 	0.16780 0.73750 0.80570 0.39300
C 	C 	0.39110 0.83570 0.53040 -0.29800
H 	H 	0.41560 0.88150 0.56670 0.12100
H 	H 	0.41820 0.86660 0.44030 0.13500
C 	C 	0.47600 0.69440 0.55610 0.40800
N 	N 	0.83610 0.81450 0.58430 -0.07300
N 	N 	0.02580 0.82430 0.39730 -0.15800
N 	N 	0.23120 0.81490 0.22010 -0.05200
N 	N 	0.23650 0.83770 0.39910 -0.17600
N 	N 	0.23450 0.85910 0.58460 -0.05400
N 	N 	0.02920 0.84860 0.58540 -0.14800
O 	O 	0.87680 0.59400 0.08110 -0.87200
H 	H 	0.85520 0.57760 0.02950 0.10900
H 	H 	0.83740 0.67230 0.08360 0.26800
O 	O 	0.07010 0.61400 0.20060 -0.55700
O 	O 	0.21240 0.57190 0.30620 -0.50900
O 	O 	0.50850 0.63820 0.23680 -0.52400
O 	O 	0.18820 0.55410 0.59660 -0.58300
O 	O 	0.48960 0.62470 0.48710 -0.54200
O 	O 	0.88920 0.61550 0.47480 -0.58400
O 	O 	0.56910 0.80370 0.20150 -0.41600
O 	O 	0.53660 0.65270 0.63480 -0.42100
O 	O 	0.22040 0.63960 0.76180 -0.40200
O 	O 	0.11370 0.74030 0.92240 -0.42900
O 	O 	0.87170 0.63990 0.80740 -0.56100
O 	O 	0.76810 0.79830 0.91160 -0.34400
O 	O 	0.74310 0.74370 0.36590 -0.47200
Cd	Cd	0.88067 0.45906 0.98209 1.20300
Cd	Cd	0.64159 0.44459 0.59144 1.23200
Cd	Cd	0.03550 0.44505 0.36256 1.22900
Cd	Cd	0.72859 0.61639 0.27105 1.21700
C 	C 	0.83600 0.15120 0.47830 0.15500
C 	C 	0.03050 0.16870 0.48190 0.11300
C 	C 	0.84060 0.17330 0.65670 0.11200
C 	C 	0.83240 0.22830 0.83840 -0.35600
H 	H 	0.77120 0.23290 0.92560 0.13400
H 	H 	0.92650 0.16700 0.83760 0.15300
C 	C 	0.84850 0.35480 0.77150 0.43800
C 	C 	0.63580 0.15880 0.84920 -0.31100
H 	H 	0.65420 0.07130 0.85070 0.14800
H 	H 	0.60440 0.16870 0.93560 0.12900
C 	C 	0.51240 0.24190 0.79730 0.39200
C 	C 	0.24820 0.17030 0.49100 -0.37100
H 	H 	0.24560 0.09470 0.55480 0.15800
H 	H 	0.34810 0.15730 0.43650 0.14300
C 	C 	0.19770 0.28010 0.55620 0.47800
C 	C 	0.24190 0.15060 0.29020 -0.35900
H 	H 	0.34360 0.13550 0.26940 0.13700
H 	H 	0.23290 0.07120 0.29580 0.16000
C 	C 	0.19640 0.24240 0.18210 0.42800
C 	C 	0.83420 0.13540 0.28110 -0.28000
H 	H 	0.93380 0.08020 0.26560 0.14000
H 	H 	0.78580 0.09790 0.25950 0.12300
C 	C 	0.83220 0.26250 0.19430 0.39300
C 	C 	0.60890 0.16430 0.46960 -0.29800
H 	H 	0.58440 0.11850 0.43330 0.12100
H 	H 	0.58180 0.13340 0.55970 0.13500
C 	C 	0.52400 0.30560 0.44390 0.40800
N 	N 	0.16390 0.18550 0.41570 -0.07300
N 	N 	0.97420 0.17570 0.60270 -0.15800
N 	N 	0.76880 0.18510 0.77990 -0.05200
N 	N 	0.76350 0.16230 0.60090 -0.17600
N 	N 	0.76550 0.14090 0.41540 -0.05400
N 	N 	0.97080 0.15140 0.41460 -0.14800
O 	O 	0.12320 0.40600 0.91890 -0.87200
H 	H 	0.14480 0.42240 0.97050 0.10900
H 	H 	0.16260 0.32770 0.91640 0.26800
O 	O 	0.92990 0.38600 0.79940 -0.55700
O 	O 	0.78760 0.42810 0.69380 -0.50900
O 	O 	0.49150 0.36180 0.76320 -0.52400
O 	O 	0.81180 0.44590 0.40340 -0.58300
O 	O 	0.51040 0.37530 0.51290 -0.54200
O 	O 	0.11080 0.38450 0.52520 -0.58400
O 	O 	0.43090 0.19630 0.79850 -0.41600
O 	O 	0.46340 0.34730 0.36520 -0.42100
O 	O 	0.77960 0.36040 0.23820 -0.40200
O 	O 	0.88630 0.25970 0.07760 -0.42900
O 	O 	0.12830 0.36010 0.19260 -0.56100
O 	O 	0.23190 0.20170 0.08840 -0.34400
O 	O 	0.25690 0.25630 0.63410 -0.47200
