data_crystal

_cell_length_a 10.17500
_cell_length_b 21.48100
_cell_length_c 10.49300
_cell_angle_alpha 90.00000
_cell_angle_beta  93.14400
_cell_angle_gamma 90.00000

_symmetry_space_group_name_	'P 1'
_symmetry_space_group_name_H-M	'P 1'

loop_
_symmetry_equiv_pos_as_xyz
  x,y,z

loop_
_atom_site_label
_atom_site_type_symbol
_atom_site_fract_x
_atom_site_fract_y
_atom_site_fract_z
_atom_site_charge
Zn	Zn	0.48930 0.42656 0.32090 1.18900
Zn	Zn	0.52820 0.65311 0.48500 1.18900
Zn	Zn	0.97600 0.47007 0.01560 1.18100
Zn	Zn	0.01450 0.69784 0.18350 1.19800
O 	O 	0.52730 0.55300 0.42020 -0.47700
O 	O 	0.47060 0.46000 0.49560 -0.47700
O 	O 	0.98220 0.57070 0.08550 -0.45400
O 	O 	0.03480 0.66340 0.01900 -0.49100
N 	N 	0.84550 0.45180 0.14690 -0.27900
N 	N 	0.85970 0.39990 0.22360 -0.08900
N 	N 	0.75140 0.38850 0.29140 -0.08700
N 	N 	0.67090 0.43350 0.25540 -0.27100
N 	N 	0.45660 0.33690 0.35920 -0.30400
N 	N 	0.37220 0.30510 0.28150 -0.08100
N 	N 	0.37330 0.24820 0.32700 -0.08500
N 	N 	0.45470 0.24320 0.43280 -0.29000
N 	N 	0.35570 0.45040 0.18750 -0.30000
N 	N 	0.36810 0.43830 0.06390 -0.08400
N 	N 	0.25480 0.45060 0.99750 -0.10000
N 	N 	0.16530 0.46160 0.08690 -0.29900
N 	N 	0.95230 0.28850 0.85070 -0.27900
N 	N 	0.86300 0.32270 0.78010 -0.08100
N 	N 	0.86090 0.37930 0.82230 -0.08500
N 	N 	0.95060 0.38400 0.92240 -0.26700
N 	N 	0.84070 0.68600 0.25270 -0.33400
N 	N 	0.73830 0.72990 0.22360 -0.08500
N 	N 	0.64070 0.71990 0.28200 -0.08700
N 	N 	0.66820 0.67100 0.35930 -0.32100
N 	N 	0.15410 0.66990 0.31320 -0.31000
N 	N 	0.13140 0.68030 0.43980 -0.08900
N 	N 	0.24160 0.67930 0.50240 -0.08500
N 	N 	0.33840 0.65820 0.42510 -0.28600
N 	N 	0.55400 0.60600 0.64320 -0.38600
H 	H 	0.63870 0.59690 0.65660 0.09100
H 	H 	0.52960 0.62920 0.70810 0.09900
N 	N 	0.94900 0.52390 0.84900 -0.35600
H 	H 	0.98770 0.50470 0.78570 0.09900
H 	H 	0.86380 0.52650 0.82770 0.08600
C 	C 	0.72300 0.47390 0.16900 0.24500
C 	C 	0.65600 0.53130 0.11400 -0.75800
H 	H 	0.57000 0.53500 0.14650 0.22100
H 	H 	0.70730 0.56740 0.13740 0.23500
H 	H 	0.64790 0.52790 0.02250 0.21900
C 	C 	0.50300 0.29860 0.44700 0.38300
C 	C 	0.59700 0.31780 0.55140 -0.96500
H 	H 	0.61910 0.36090 0.54140 0.29200
H 	H 	0.55800 0.31190 0.63170 0.30200
H 	H 	0.67570 0.29310 0.54930 0.30600
C 	C 	0.22490 0.46670 0.19390 0.32200
C 	C 	0.15900 0.48370 0.31200 -0.87700
H 	H 	0.22330 0.48490 0.38300 0.25700
H 	H 	0.11880 0.52390 0.30190 0.26500
H 	H 	0.09310 0.45330 0.32880 0.26700
C 	C 	0.00600 0.32730 0.94100 0.29700
C 	C 	0.10900 0.30920 0.04000 -0.87200
H 	H 	0.12940 0.26590 0.03060 0.26600
H 	H 	0.18630 0.33380 0.02980 0.28300
H 	H 	0.07670 0.31640 0.12290 0.27600
C 	C 	0.78490 0.65260 0.33760 0.43100
C 	C 	0.85200 0.60240 0.40300 -1.05600
H 	H 	0.93760 0.59730 0.37070 0.31300
H 	H 	0.86060 0.61150 0.49280 0.31100
H 	H 	0.80220 0.56470 0.38990 0.32000
C 	C 	0.27400 0.65920 0.30400 0.31300
C 	C 	0.33700 0.64290 0.18400 -0.86300
H 	H 	0.42970 0.63690 0.20100 0.25500
H 	H 	0.29860 0.60520 0.14930 0.26400
H 	H 	0.32290 0.67600 0.12310 0.25700
C 	C 	0.49900 0.51850 0.50500 0.29100
C 	C 	0.47300 0.54520 0.63830 0.00700
H 	H 	0.37940 0.55630 0.63900 0.00200
C 	C 	0.50300 0.50010 0.74660 -0.45300
H 	H 	0.44870 0.46390 0.73560 0.16200
H 	H 	0.59430 0.48800 0.74670 0.14100
H 	H 	0.48690 0.51980 0.82630 0.14400
C 	C 	0.01000 0.60770 0.99600 0.28200
C 	C 	0.00200 0.58520 0.86200 0.00600
H 	H 	0.95100 0.61430 0.80670 0.01600
C 	C 	0.14000 0.57670 0.81400 -0.49300
H 	H 	0.18560 0.61580 0.81860 0.16500
H 	H 	0.18700 0.54680 0.86700 0.15000
H 	H 	0.13360 0.56230 0.72770 0.15900
Zn	Zn	0.51070 0.92656 0.67910 1.18900
Zn	Zn	0.47180 0.15311 0.51500 1.19000
Zn	Zn	0.02400 0.97007 0.98440 1.17500
Zn	Zn	0.98550 0.19784 0.81650 1.19800
O 	O 	0.47270 0.05300 0.57980 -0.48600
O 	O 	0.52940 0.96000 0.50440 -0.50100
O 	O 	0.01780 0.07070 0.91450 -0.44500
O 	O 	0.96520 0.16340 0.98100 -0.48900
N 	N 	0.15450 0.95180 0.85310 -0.27900
N 	N 	0.14030 0.89990 0.77640 -0.09100
N 	N 	0.24860 0.88850 0.70860 -0.08900
N 	N 	0.32910 0.93350 0.74460 -0.27000
N 	N 	0.54340 0.83690 0.64080 -0.30400
N 	N 	0.62780 0.80510 0.71850 -0.08100
N 	N 	0.62670 0.74820 0.67300 -0.08600
N 	N 	0.54530 0.74320 0.56720 -0.29000
N 	N 	0.64430 0.95040 0.81250 -0.30600
N 	N 	0.63190 0.93830 0.93610 -0.08600
N 	N 	0.74520 0.95060 0.00250 -0.10100
N 	N 	0.83470 0.96160 0.91310 -0.30700
N 	N 	0.04770 0.78850 0.14930 -0.28000
N 	N 	0.13700 0.82270 0.21990 -0.08100
N 	N 	0.13910 0.87930 0.17770 -0.08700
N 	N 	0.04940 0.88400 0.07760 -0.27000
N 	N 	0.15930 0.18600 0.74730 -0.33500
N 	N 	0.26170 0.22990 0.77640 -0.08500
N 	N 	0.35930 0.21990 0.71800 -0.08700
N 	N 	0.33180 0.17100 0.64070 -0.32200
N 	N 	0.84590 0.16990 0.68680 -0.31000
N 	N 	0.86860 0.18030 0.56020 -0.08900
N 	N 	0.75840 0.17930 0.49760 -0.08500
N 	N 	0.66160 0.15820 0.57490 -0.28600
N 	N 	0.44600 0.10600 0.35680 -0.37500
H 	H 	0.36130 0.09690 0.34340 0.09100
H 	H 	0.47040 0.12920 0.29190 0.09800
N 	N 	0.05100 0.02390 0.15100 -0.35500
H 	H 	0.01230 0.00470 0.21430 0.10600
H 	H 	0.13620 0.02650 0.17230 0.09300
C 	C 	0.27700 0.97390 0.83100 0.21400
C 	C 	0.34400 0.03130 0.88600 -0.70600
H 	H 	0.43000 0.03500 0.85350 0.21200
H 	H 	0.29270 0.06740 0.86260 0.22200
H 	H 	0.35210 0.02790 0.97750 0.21300
C 	C 	0.49700 0.79860 0.55300 0.38300
C 	C 	0.40300 0.81780 0.44860 -0.96400
H 	H 	0.38090 0.86090 0.45860 0.29100
H 	H 	0.44200 0.81190 0.36830 0.30300
H 	H 	0.32430 0.79310 0.45070 0.30500
C 	C 	0.77510 0.96670 0.80610 0.33900
C 	C 	0.84100 0.98370 0.68800 -0.96100
H 	H 	0.77670 0.98490 0.61700 0.27600
H 	H 	0.88120 0.02390 0.69810 0.30100
H 	H 	0.90690 0.95330 0.67120 0.28900
C 	C 	0.99400 0.82730 0.05900 0.30000
C 	C 	0.89100 0.80920 0.96000 -0.87600
H 	H 	0.87060 0.76590 0.96940 0.26700
H 	H 	0.81370 0.83380 0.97020 0.28400
H 	H 	0.92330 0.81640 0.87710 0.27700
C 	C 	0.21510 0.15260 0.66240 0.43700
C 	C 	0.14800 0.10240 0.59700 -1.07000
H 	H 	0.06240 0.09730 0.62930 0.31900
H 	H 	0.13940 0.11150 0.50720 0.31700
H 	H 	0.19780 0.06470 0.61010 0.33000
C 	C 	0.72600 0.15920 0.69600 0.31600
C 	C 	0.66300 0.14290 0.81600 -0.87100
H 	H 	0.57030 0.13690 0.79900 0.25900
H 	H 	0.70140 0.10520 0.85070 0.26900
H 	H 	0.67710 0.17600 0.87690 0.26000
C 	C 	0.50100 0.01850 0.49500 0.34100
C 	C 	0.52700 0.04520 0.36170 -0.07200
H 	H 	0.62060 0.05630 0.36100 0.02800
C 	C 	0.49700 0.00010 0.25340 -0.22500
H 	H 	0.55130 0.96390 0.26440 0.08200
H 	H 	0.40570 0.98800 0.25330 0.06000
H 	H 	0.51310 0.01980 0.17370 0.08100
C 	C 	0.99000 0.10770 0.00400 0.27700
C 	C 	0.99800 0.08520 0.13800 0.00900
H 	H 	0.04900 0.11430 0.19330 0.01600
C 	C 	0.86000 0.07670 0.18600 -0.50400
H 	H 	0.81440 0.11580 0.18140 0.16900
H 	H 	0.81300 0.04680 0.13300 0.15700
H 	H 	0.86640 0.06230 0.27230 0.16300
