data_crystal

_cell_length_a 14.56490
_cell_length_b 14.12560
_cell_length_c 15.16590
_cell_angle_alpha 90.00000
_cell_angle_beta  103.32800
_cell_angle_gamma 90.00000

_symmetry_space_group_name_	'P 1'
_symmetry_space_group_name_H-M	'P 1'

loop_
_symmetry_equiv_pos_as_xyz
  x,y,z

loop_
_atom_site_label
_atom_site_type_symbol
_atom_site_fract_x
_atom_site_fract_y
_atom_site_fract_z
_atom_site_charge
Co	Co	0.75372 0.51117 0.51786 1.20600
O 	O 	0.66014 0.60585 0.53034 -0.40200
O 	O 	0.74190 0.74068 0.54361 -0.24100
O 	O 	0.33349 0.59450 0.49447 -0.40400
O 	O 	0.24627 0.71524 0.52272 -0.24300
O 	O 	0.56854 0.02658 0.60621 -0.09000
O 	O 	0.42878 0.01181 0.63029 -0.08100
O 	O 	0.82411 0.44985 0.73343 -0.24600
O 	O 	0.86833 0.50535 0.61304 -0.42000
O 	O 	0.17983 0.47321 0.57906 -0.41000
O 	O 	0.30236 0.45311 0.69541 -0.25700
O 	O 	0.23085 0.48046 0.99917 -0.08400
O 	O 	0.09155 0.43708 0.01229 -0.08500
C 	C 	0.57979 0.74476 0.54788 -0.00400
C 	C 	0.49535 0.69537 0.53136 -0.02900
H 	H 	0.49510 0.63180 0.51520 0.08800
C 	C 	0.41091 0.73749 0.53803 -0.00500
C 	C 	0.41140 0.83207 0.56343 -0.09400
H 	H 	0.35620 0.86210 0.56900 0.12000
C 	C 	0.49627 0.88014 0.58014 0.14200
C 	C 	0.57921 0.83907 0.57086 -0.08900
H 	H 	0.63430 0.87460 0.58000 0.11100
C 	C 	0.66949 0.69510 0.54006 0.32400
C 	C 	0.32144 0.67976 0.51691 0.32400
C 	C 	0.98742 0.46731 0.73825 -0.00100
C 	C 	0.05340 0.46911 0.68508 -0.03800
H 	H 	0.03270 0.47380 0.62250 0.08900
C 	C 	0.14861 0.46415 0.72298 -0.00000
C 	C 	0.18035 0.46201 0.81560 -0.09800
H 	H 	0.24460 0.46140 0.84240 0.11100
C 	C 	0.11401 0.46084 0.86802 0.13900
C 	C 	0.01782 0.46224 0.83140 -0.10300
H 	H 	0.97500 0.45980 0.86830 0.12300
C 	C 	0.88218 0.47461 0.69143 0.34400
C 	C 	0.21963 0.46267 0.66144 0.33400
N 	N 	0.49729 0.97974 0.60748 -0.01300
N 	N 	0.14845 0.45982 0.96728 -0.01500
Co	Co	0.24628 0.48883 0.48214 1.20500
O 	O 	0.33986 0.39415 0.46966 -0.40300
O 	O 	0.25810 0.25932 0.45639 -0.24200
O 	O 	0.66651 0.40550 0.50553 -0.40500
O 	O 	0.75373 0.28476 0.47728 -0.24400
O 	O 	0.43146 0.97342 0.39379 -0.09100
O 	O 	0.57122 0.98819 0.36971 -0.08100
O 	O 	0.17589 0.55015 0.26657 -0.24600
O 	O 	0.13167 0.49465 0.38696 -0.42000
O 	O 	0.82017 0.52679 0.42094 -0.41000
O 	O 	0.69764 0.54689 0.30459 -0.25700
O 	O 	0.76915 0.51954 0.00083 -0.08400
O 	O 	0.90845 0.56292 0.98771 -0.08500
C 	C 	0.42021 0.25524 0.45212 -0.00400
C 	C 	0.50465 0.30463 0.46864 -0.02900
H 	H 	0.50490 0.36820 0.48480 0.08800
C 	C 	0.58909 0.26251 0.46197 -0.00500
C 	C 	0.58860 0.16793 0.43657 -0.09400
H 	H 	0.64380 0.13790 0.43100 0.12000
C 	C 	0.50373 0.11986 0.41986 0.14200
C 	C 	0.42079 0.16093 0.42914 -0.08900
H 	H 	0.36570 0.12540 0.42000 0.11100
C 	C 	0.33051 0.30490 0.45994 0.32400
C 	C 	0.67856 0.32024 0.48309 0.32400
C 	C 	0.01258 0.53269 0.26175 -0.00100
C 	C 	0.94660 0.53089 0.31492 -0.03800
H 	H 	0.96730 0.52620 0.37750 0.08900
C 	C 	0.85139 0.53585 0.27702 -0.00000
C 	C 	0.81965 0.53799 0.18440 -0.09800
H 	H 	0.75540 0.53860 0.15760 0.11100
C 	C 	0.88599 0.53916 0.13198 0.13900
C 	C 	0.98218 0.53776 0.16860 -0.10300
H 	H 	0.02500 0.54020 0.13170 0.12300
C 	C 	0.11782 0.52539 0.30857 0.34400
C 	C 	0.78037 0.53733 0.33856 0.33400
N 	N 	0.50271 0.02026 0.39252 -0.01300
N 	N 	0.85155 0.54018 0.03272 -0.01500
Co	Co	0.24628 0.01117 0.98214 1.20300
O 	O 	0.33986 0.10585 0.96966 -0.40500
O 	O 	0.25810 0.24068 0.95639 -0.24300
O 	O 	0.66651 0.09450 0.00553 -0.39900
O 	O 	0.75373 0.21524 0.97728 -0.24400
O 	O 	0.43146 0.52658 0.89379 -0.09000
O 	O 	0.57122 0.51181 0.86971 -0.07900
O 	O 	0.17589 0.94985 0.76657 -0.24700
O 	O 	0.13167 0.00535 0.88696 -0.42600
O 	O 	0.82017 0.97321 0.92094 -0.40600
O 	O 	0.69764 0.95311 0.80459 -0.25600
O 	O 	0.76915 0.98046 0.50083 -0.08400
O 	O 	0.90845 0.93708 0.48771 -0.08700
C 	C 	0.42021 0.24476 0.95212 -0.00500
C 	C 	0.50465 0.19537 0.96864 -0.03000
H 	H 	0.50490 0.13180 0.98480 0.08800
C 	C 	0.58909 0.23749 0.96197 -0.00400
C 	C 	0.58860 0.33207 0.93657 -0.09500
H 	H 	0.64380 0.36210 0.93100 0.12000
C 	C 	0.50373 0.38014 0.91986 0.14200
C 	C 	0.42079 0.33907 0.92914 -0.08900
H 	H 	0.36570 0.37460 0.92000 0.11000
C 	C 	0.33051 0.19510 0.95994 0.32400
C 	C 	0.67856 0.17976 0.98309 0.31900
C 	C 	0.01258 0.96731 0.76175 -0.01000
C 	C 	0.94660 0.96911 0.81492 -0.03000
H 	H 	0.96730 0.97380 0.87750 0.08800
C 	C 	0.85139 0.96415 0.77702 -0.00300
C 	C 	0.81965 0.96201 0.68440 -0.09300
H 	H 	0.75540 0.96140 0.65760 0.11000
C 	C 	0.88599 0.96084 0.63198 0.13500
C 	C 	0.98218 0.96224 0.66860 -0.09200
H 	H 	0.02500 0.95980 0.63170 0.11900
C 	C 	0.11782 0.97461 0.80857 0.35200
C 	C 	0.78037 0.96267 0.83856 0.33500
N 	N 	0.50271 0.47974 0.89252 -0.01500
N 	N 	0.85155 0.95982 0.53272 -0.01300
Co	Co	0.75372 0.98883 0.01786 1.20300
O 	O 	0.66014 0.89415 0.03034 -0.40500
O 	O 	0.74190 0.75932 0.04361 -0.24300
O 	O 	0.33349 0.90550 0.99447 -0.39900
O 	O 	0.24627 0.78476 0.02272 -0.24400
O 	O 	0.56854 0.47342 0.10621 -0.09000
O 	O 	0.42878 0.48819 0.13029 -0.07900
O 	O 	0.82411 0.05015 0.23343 -0.24700
O 	O 	0.86833 0.99465 0.11304 -0.42600
O 	O 	0.17983 0.02679 0.07906 -0.40600
O 	O 	0.30236 0.04689 0.19541 -0.25600
O 	O 	0.23085 0.01954 0.49917 -0.08400
O 	O 	0.09155 0.06292 0.51229 -0.08700
C 	C 	0.57979 0.75524 0.04788 -0.00500
C 	C 	0.49535 0.80463 0.03136 -0.03000
H 	H 	0.49510 0.86820 0.01520 0.08800
C 	C 	0.41091 0.76251 0.03803 -0.00400
C 	C 	0.41140 0.66793 0.06343 -0.09500
H 	H 	0.35620 0.63790 0.06900 0.12000
C 	C 	0.49627 0.61986 0.08014 0.14200
C 	C 	0.57921 0.66093 0.07086 -0.08900
H 	H 	0.63430 0.62540 0.08000 0.11000
C 	C 	0.66949 0.80490 0.04006 0.32400
C 	C 	0.32144 0.82024 0.01691 0.31900
C 	C 	0.98742 0.03269 0.23825 -0.01000
C 	C 	0.05340 0.03089 0.18508 -0.03000
H 	H 	0.03270 0.02620 0.12250 0.08800
C 	C 	0.14861 0.03585 0.22298 -0.00300
C 	C 	0.18035 0.03799 0.31560 -0.09300
H 	H 	0.24460 0.03860 0.34240 0.11000
C 	C 	0.11401 0.03916 0.36802 0.13500
C 	C 	0.01782 0.03776 0.33140 -0.09200
H 	H 	0.97500 0.04020 0.36830 0.11900
C 	C 	0.88218 0.02539 0.19143 0.35200
C 	C 	0.21963 0.03733 0.16144 0.33500
N 	N 	0.49729 0.52026 0.10748 -0.01500
N 	N 	0.14845 0.04018 0.46728 -0.01300
