data_crystal

_cell_length_a 10.85900
_cell_length_b 15.71900
_cell_length_c 17.29400
_cell_angle_alpha 90.00000
_cell_angle_beta  100.95700
_cell_angle_gamma 90.00000

_symmetry_space_group_name_	'P 1'
_symmetry_space_group_name_H-M	'P 1'

loop_
_symmetry_equiv_pos_as_xyz
  x,y,z

loop_
_atom_site_label
_atom_site_type_symbol
_atom_site_fract_x
_atom_site_fract_y
_atom_site_fract_z
_atom_site_charge
Co	Co	0.48826 0.25426 0.17444 1.18700
N 	N 	0.59058 0.31702 0.11536 -0.23500
N 	N 	0.68540 0.28172 0.08536 -0.03600
N 	N 	0.73555 0.34154 0.04974 -0.02400
N 	N 	0.67540 0.41666 0.05392 -0.10300
N 	N 	0.26454 0.46198 0.11262 -0.09300
N 	N 	0.18147 0.40336 0.12882 -0.01500
N 	N 	0.23908 0.33192 0.15159 -0.03000
N 	N 	0.36250 0.34258 0.15089 -0.23100
N 	N 	0.56498 0.30938 0.27171 -0.23600
N 	N 	0.63357 0.38148 0.27530 -0.04800
N 	N 	0.68240 0.39542 0.34972 -0.03200
N 	N 	0.64694 0.33414 0.39593 -0.09800
N 	N 	0.31897 0.12348 0.32984 -0.10100
N 	N 	0.24177 0.10818 0.26055 -0.02100
N 	N 	0.28156 0.14686 0.20288 -0.03700
N 	N 	0.38822 0.18880 0.23410 -0.23600
N 	N 	0.41589 0.19659 0.07934 -0.23600
N 	N 	0.34660 0.23546 0.01602 -0.04200
N 	N 	0.31190 0.17701 0.96254 -0.02500
N 	N 	0.35760 0.09952 0.98892 -0.10300
N 	N 	0.71570 0.04813 0.18612 -0.09300
N 	N 	0.79150 0.10570 0.23050 -0.01600
N 	N 	0.73136 0.17676 0.23503 -0.03300
N 	N 	0.61332 0.16624 0.19423 -0.23700
C 	C 	0.58620 0.39930 0.09489 0.22400
C 	C 	0.49540 0.46215 0.11538 -0.39000
H 	H 	0.47740 0.50530 0.07300 0.15900
H 	H 	0.53400 0.49180 0.16460 0.16000
C 	C 	0.37500 0.42245 0.12636 0.22100
C 	C 	0.57550 0.28213 0.34597 0.23400
C 	C 	0.52030 0.20184 0.37006 -0.39900
H 	H 	0.49520 0.21080 0.42160 0.17400
H 	H 	0.58490 0.15670 0.37680 0.16400
C 	C 	0.40890 0.17274 0.31174 0.21900
C 	C 	0.42190 0.11420 0.06108 0.23300
C 	C 	0.49270 0.04942 0.11489 -0.40900
H 	H 	0.43770 0.02580 0.14920 0.17200
H 	H 	0.51780 0.00220 0.08340 0.17800
C 	C 	0.60640 0.08705 0.16458 0.22700
Co	Co	0.51174 0.75426 0.32556 1.18800
N 	N 	0.40942 0.81702 0.38464 -0.23400
N 	N 	0.31460 0.78172 0.41464 -0.03500
N 	N 	0.26445 0.84154 0.45026 -0.02300
N 	N 	0.32460 0.91666 0.44608 -0.10100
N 	N 	0.73546 0.96198 0.38738 -0.09200
N 	N 	0.81853 0.90336 0.37118 -0.01400
N 	N 	0.76092 0.83192 0.34841 -0.02800
N 	N 	0.63750 0.84258 0.34911 -0.23100
N 	N 	0.43502 0.80938 0.22829 -0.23600
N 	N 	0.36643 0.88148 0.22470 -0.04800
N 	N 	0.31760 0.89542 0.15028 -0.03200
N 	N 	0.35306 0.83414 0.10407 -0.09800
N 	N 	0.68103 0.62348 0.17016 -0.10100
N 	N 	0.75823 0.60818 0.23945 -0.02100
N 	N 	0.71844 0.64686 0.29712 -0.03700
N 	N 	0.61178 0.68880 0.26590 -0.23600
N 	N 	0.58411 0.69659 0.42066 -0.23600
N 	N 	0.65340 0.73546 0.48398 -0.04100
N 	N 	0.68810 0.67701 0.53746 -0.02600
N 	N 	0.64240 0.59952 0.51108 -0.10400
N 	N 	0.28430 0.54813 0.31388 -0.09300
N 	N 	0.20850 0.60570 0.26950 -0.01600
N 	N 	0.26864 0.67676 0.26497 -0.03300
N 	N 	0.38668 0.66624 0.30577 -0.23700
C 	C 	0.41380 0.89930 0.40511 0.22400
C 	C 	0.50460 0.96215 0.38462 -0.39000
H 	H 	0.52260 0.00530 0.42700 0.15800
H 	H 	0.46600 0.99180 0.33540 0.16000
C 	C 	0.62500 0.92245 0.37364 0.22100
C 	C 	0.42450 0.78213 0.15403 0.23400
C 	C 	0.47970 0.70184 0.12994 -0.39900
H 	H 	0.50480 0.71080 0.07840 0.17400
H 	H 	0.41510 0.65670 0.12320 0.16400
C 	C 	0.59110 0.67274 0.18826 0.21900
C 	C 	0.57810 0.61420 0.43892 0.23400
C 	C 	0.50730 0.54942 0.38511 -0.40900
H 	H 	0.56230 0.52580 0.35080 0.17200
H 	H 	0.48220 0.50220 0.41660 0.17800
C 	C 	0.39360 0.58705 0.33542 0.22800
Co	Co	0.51174 0.74574 0.82556 1.18800
N 	N 	0.40942 0.68298 0.88464 -0.23400
N 	N 	0.31460 0.71828 0.91464 -0.03500
N 	N 	0.26445 0.65846 0.95026 -0.02300
N 	N 	0.32460 0.58334 0.94608 -0.10200
N 	N 	0.73546 0.53802 0.88738 -0.09200
N 	N 	0.81853 0.59664 0.87118 -0.01400
N 	N 	0.76092 0.66808 0.84841 -0.02900
N 	N 	0.63750 0.65742 0.84911 -0.23100
N 	N 	0.43502 0.69062 0.72829 -0.23600
N 	N 	0.36643 0.61852 0.72470 -0.04800
N 	N 	0.31760 0.60458 0.65028 -0.03200
N 	N 	0.35306 0.66586 0.60407 -0.09800
N 	N 	0.68103 0.87652 0.67016 -0.10100
N 	N 	0.75823 0.89182 0.73945 -0.02100
N 	N 	0.71844 0.85314 0.79712 -0.03700
N 	N 	0.61178 0.81120 0.76590 -0.23600
N 	N 	0.58411 0.80341 0.92066 -0.23600
N 	N 	0.65340 0.76454 0.98398 -0.04200
N 	N 	0.68810 0.82299 0.03746 -0.02500
N 	N 	0.64240 0.90048 0.01108 -0.10300
N 	N 	0.28430 0.95187 0.81388 -0.09300
N 	N 	0.20850 0.89430 0.76950 -0.01600
N 	N 	0.26864 0.82324 0.76497 -0.03300
N 	N 	0.38668 0.83376 0.80577 -0.23700
C 	C 	0.41380 0.60070 0.90511 0.22400
C 	C 	0.50460 0.53785 0.88462 -0.39000
H 	H 	0.52260 0.49470 0.92700 0.15900
H 	H 	0.46600 0.50820 0.83540 0.16000
C 	C 	0.62500 0.57755 0.87364 0.22100
C 	C 	0.42450 0.71787 0.65403 0.23400
C 	C 	0.47970 0.79816 0.62994 -0.39900
H 	H 	0.50480 0.78920 0.57840 0.17400
H 	H 	0.41510 0.84330 0.62320 0.16400
C 	C 	0.59110 0.82726 0.68826 0.21900
C 	C 	0.57810 0.88580 0.93892 0.23300
C 	C 	0.50730 0.95058 0.88511 -0.40900
H 	H 	0.56230 0.97420 0.85080 0.17200
H 	H 	0.48220 0.99780 0.91660 0.17800
C 	C 	0.39360 0.91295 0.83542 0.22700
Co	Co	0.48826 0.24574 0.67444 1.18800
N 	N 	0.59058 0.18298 0.61536 -0.23400
N 	N 	0.68540 0.21828 0.58536 -0.03500
N 	N 	0.73555 0.15846 0.54974 -0.02300
N 	N 	0.67540 0.08334 0.55392 -0.10100
N 	N 	0.26454 0.03802 0.61262 -0.09200
N 	N 	0.18147 0.09664 0.62882 -0.01400
N 	N 	0.23908 0.16808 0.65159 -0.02800
N 	N 	0.36250 0.15742 0.65089 -0.23100
N 	N 	0.56498 0.19062 0.77171 -0.23600
N 	N 	0.63357 0.11852 0.77530 -0.04800
N 	N 	0.68240 0.10458 0.84972 -0.03200
N 	N 	0.64694 0.16586 0.89593 -0.09800
N 	N 	0.31897 0.37652 0.82984 -0.10100
N 	N 	0.24177 0.39182 0.76055 -0.02100
N 	N 	0.28156 0.35314 0.70288 -0.03700
N 	N 	0.38822 0.31120 0.73410 -0.23600
N 	N 	0.41589 0.30341 0.57934 -0.23600
N 	N 	0.34660 0.26454 0.51602 -0.04100
N 	N 	0.31190 0.32299 0.46254 -0.02600
N 	N 	0.35760 0.40048 0.48892 -0.10400
N 	N 	0.71570 0.45187 0.68612 -0.09300
N 	N 	0.79150 0.39430 0.73050 -0.01600
N 	N 	0.73136 0.32324 0.73503 -0.03300
N 	N 	0.61332 0.33376 0.69423 -0.23700
C 	C 	0.58620 0.10070 0.59489 0.22400
C 	C 	0.49540 0.03785 0.61538 -0.39000
H 	H 	0.47740 0.99470 0.57300 0.15800
H 	H 	0.53400 0.00820 0.66460 0.16000
C 	C 	0.37500 0.07755 0.62636 0.22100
C 	C 	0.57550 0.21787 0.84597 0.23400
C 	C 	0.52030 0.29816 0.87006 -0.39900
H 	H 	0.49520 0.28920 0.92160 0.17400
H 	H 	0.58490 0.34330 0.87680 0.16400
C 	C 	0.40890 0.32726 0.81174 0.21900
C 	C 	0.42190 0.38580 0.56108 0.23400
C 	C 	0.49270 0.45058 0.61489 -0.40900
H 	H 	0.43770 0.47420 0.64920 0.17200
H 	H 	0.51780 0.49780 0.58340 0.17800
C 	C 	0.60640 0.41295 0.66458 0.22800
