data_crystal

_cell_length_a 22.27700
_cell_length_b 13.12000
_cell_length_c 52.44000
_cell_angle_alpha 90.00000
_cell_angle_beta  90.00000
_cell_angle_gamma 90.00000

_symmetry_space_group_name_	'P 1'
_symmetry_space_group_name_H-M	'P 1'

loop_
_symmetry_equiv_pos_as_xyz
  x,y,z

loop_
_atom_site_label
_atom_site_type_symbol
_atom_site_fract_x
_atom_site_fract_y
_atom_site_fract_z
_atom_site_charge
W 	W 	0.44509 0.59560 0.75921 0.98900
W 	W 	0.32805 0.26160 0.75654 0.99100
W 	W 	0.31540 0.73527 0.75740 0.97600
W 	W 	0.44710 0.59063 0.68747 1.04900
W 	W 	0.39480 0.73797 0.48017 1.02300
W 	W 	0.27978 0.41267 0.48538 1.00600
W 	W 	0.33238 0.26402 0.69015 1.01900
W 	W 	0.28025 0.40058 0.41370 0.96500
W 	W 	0.45288 0.34935 0.72554 1.01200
W 	W 	0.18677 0.41329 0.75466 0.97100
W 	W 	0.19353 0.41192 0.68824 1.04400
W 	W 	0.40793 0.27375 0.48750 1.03900
W 	W 	0.39774 0.73414 0.41369 0.98700
W 	W 	0.53364 0.59050 0.48235 1.05700
W 	W 	0.27353 0.65006 0.44581 0.98600
W 	W 	0.54172 0.36034 0.45038 0.98100
W 	W 	0.18439 0.63884 0.72176 1.00000
W 	W 	0.41005 0.26104 0.41576 0.95000
W 	W 	0.31888 0.72928 0.68568 1.06600
W 	W 	0.53831 0.58196 0.41584 1.00700
W 	W 	0.40512 0.48283 0.38100 1.01300
W 	W 	0.31927 0.50998 0.79068 0.98900
Dy	Dy	0.32579 0.49686 0.64114 2.01700
Dy	Dy	0.40249 0.50971 0.53047 2.08000
P 	P 	0.32190 0.50230 0.72240 0.56500
P 	P 	0.40470 0.49600 0.44910 0.56300
C 	C 	0.26600 0.64800 0.59980 0.34600
C 	C 	0.33100 0.67500 0.59480 -0.04600
H 	H 	0.33880 0.73910 0.60370 0.05700
C 	C 	0.33700 0.69600 0.56660 0.02500
H 	H 	0.31440 0.75510 0.56080 0.04000
C 	C 	0.40400 0.70700 0.56300 0.29800
C 	C 	0.31800 0.29800 0.60860 0.38400
C 	C 	0.38600 0.31000 0.60470 -0.04300
H 	H 	0.40730 0.25000 0.61110 0.05500
C 	C 	0.39800 0.32600 0.57600 -0.01100
H 	H 	0.38940 0.26390 0.56620 0.04100
C 	C 	0.46340 0.36200 0.57100 0.34900
O 	O 	0.29800 0.20800 0.60080 -0.24900
O 	O 	0.37940 0.60480 0.44820 -0.37000
O 	O 	0.45760 0.45620 0.75060 -0.45200
O 	O 	0.34650 0.56300 0.70000 -0.38800
O 	O 	0.34720 0.39220 0.72280 -0.37000
O 	O 	0.32020 0.27810 0.48860 -0.42700
O 	O 	0.25310 0.49770 0.72190 -0.37200
O 	O 	0.26600 0.54780 0.47250 -0.43800
O 	O 	0.38220 0.44260 0.47340 -0.39000
O 	O 	0.45960 0.45200 0.70110 -0.45400
O 	O 	0.24790 0.31000 0.75500 -0.45500
O 	O 	0.32390 0.27800 0.40760 -0.43000
O 	O 	0.27110 0.37630 0.44810 -0.45000
O 	O 	0.30950 0.46300 0.51470 -0.51200
O 	O 	0.47670 0.69700 0.47670 -0.46200
O 	O 	0.39920 0.72300 0.76450 -0.43700
O 	O 	0.31160 0.72800 0.41930 -0.43700
O 	O 	0.39470 0.24280 0.45010 -0.44400
O 	O 	0.32010 0.20040 0.72420 -0.44300
O 	O 	0.15880 0.37160 0.72260 -0.43800
O 	O 	0.47260 0.50320 0.44930 -0.37400
O 	O 	0.41870 0.54700 0.65870 -0.52200
O 	O 	0.34060 0.55800 0.74700 -0.36500
O 	O 	0.38430 0.43870 0.42450 -0.36800
O 	O 	0.40390 0.71500 0.68510 -0.45900
O 	O 	0.26760 0.54800 0.42110 -0.44300
O 	O 	0.34940 0.36200 0.66810 -0.52500
O 	O 	0.48770 0.30600 0.47480 -0.45200
O 	O 	0.31050 0.73900 0.47030 -0.43500
O 	O 	0.40670 0.80060 0.44350 -0.44400
O 	O 	0.33940 0.37400 0.77970 -0.44100
O 	O 	0.33180 0.75940 0.72330 -0.44300
O 	O 	0.31060 0.66700 0.65670 -0.52500
O 	O 	0.41900 0.26140 0.70110 -0.42900
O 	O 	0.24010 0.69300 0.69710 -0.45900
O 	O 	0.41840 0.34200 0.51530 -0.53800
O 	O 	0.48990 0.53400 0.50570 -0.53500
O 	O 	0.38100 0.64100 0.50310 -0.53500
O 	O 	0.24780 0.30500 0.69290 -0.45900
O 	O 	0.24020 0.47180 0.66550 -0.53400
O 	O 	0.41180 0.26900 0.75090 -0.45100
O 	O 	0.45250 0.62610 0.72610 -0.45200
O 	O 	0.23620 0.69400 0.74740 -0.45100
O 	O 	0.47940 0.68570 0.41490 -0.45700
O 	O 	0.48970 0.30300 0.42500 -0.44300
O 	O 	0.38420 0.61700 0.39160 -0.44800
O 	O 	0.32340 0.44400 0.38290 -0.43800
O 	O 	0.30300 0.65300 0.78840 -0.43600
O 	O 	0.24150 0.48100 0.77790 -0.44500
O 	O 	0.15520 0.54400 0.69830 -0.43800
O 	O 	0.40190 0.54200 0.78860 -0.44700
O 	O 	0.42020 0.34400 0.38370 -0.43600
O 	O 	0.48310 0.51100 0.39380 -0.45400
O 	O 	0.42300 0.79400 0.57200 -0.23000
O 	O 	0.56390 0.62500 0.44680 -0.45800
O 	O 	0.57160 0.44900 0.42360 -0.43600
O 	O 	0.32610 0.61100 0.55290 -0.30400
O 	O 	0.22700 0.71000 0.59190 -0.24300
O 	O 	0.57260 0.46000 0.47410 -0.42900
O 	O 	0.40340 0.40000 0.61810 -0.28400
O 	O 	0.15500 0.54700 0.74740 -0.43900
O 	O 	0.28710 0.35400 0.61830 -0.46700
O 	O 	0.25340 0.57000 0.61150 -0.40000
O 	O 	0.47540 0.43600 0.55920 -0.41100
O 	O 	0.44070 0.64600 0.55320 -0.42700
O 	O 	0.36370 0.41300 0.56630 -0.31000
O 	O 	0.37010 0.60000 0.60530 -0.27600
O 	O 	0.50800 0.30500 0.57820 -0.22900
W 	W 	0.55491 0.40440 0.25921 0.99000
W 	W 	0.67195 0.73840 0.25654 0.99200
W 	W 	0.68460 0.26473 0.25740 0.97700
W 	W 	0.55290 0.40937 0.18747 1.05000
W 	W 	0.60520 0.26203 0.98017 1.02100
W 	W 	0.72022 0.58733 0.98538 1.00500
W 	W 	0.66762 0.73598 0.19015 1.01900
W 	W 	0.71975 0.59942 0.91370 0.96500
W 	W 	0.54712 0.65065 0.22554 1.01200
W 	W 	0.81323 0.58671 0.25466 0.97100
W 	W 	0.80647 0.58808 0.18824 1.04400
W 	W 	0.59207 0.72625 0.98750 1.03800
W 	W 	0.60226 0.26586 0.91369 0.98700
W 	W 	0.46636 0.40950 0.98235 1.05500
W 	W 	0.72647 0.34994 0.94581 0.98600
W 	W 	0.45828 0.63966 0.95038 0.98100
W 	W 	0.81561 0.36116 0.22176 1.00000
W 	W 	0.58995 0.73896 0.91576 0.95000
W 	W 	0.68112 0.27072 0.18568 1.06600
W 	W 	0.46169 0.41804 0.91584 1.00700
W 	W 	0.59488 0.51717 0.88100 1.01300
W 	W 	0.68073 0.49002 0.29068 0.98900
Dy	Dy	0.67421 0.50314 0.14114 2.01700
Dy	Dy	0.59751 0.49029 0.03047 2.08000
P 	P 	0.67810 0.49770 0.22240 0.56500
P 	P 	0.59530 0.50400 0.94910 0.56300
C 	C 	0.73400 0.35200 0.09980 0.34600
C 	C 	0.66900 0.32500 0.09480 -0.04600
H 	H 	0.66120 0.26090 0.10370 0.05700
C 	C 	0.66300 0.30400 0.06660 0.02500
H 	H 	0.68560 0.24490 0.06080 0.04000
C 	C 	0.59600 0.29300 0.06300 0.29800
C 	C 	0.68200 0.70200 0.10860 0.38400
C 	C 	0.61400 0.69000 0.10470 -0.04300
H 	H 	0.59270 0.75000 0.11110 0.05500
C 	C 	0.60200 0.67400 0.07600 -0.01100
H 	H 	0.61060 0.73610 0.06620 0.04100
C 	C 	0.53660 0.63800 0.07100 0.34900
O 	O 	0.70200 0.79200 0.10080 -0.24900
O 	O 	0.62060 0.39520 0.94820 -0.37000
O 	O 	0.54240 0.54380 0.25060 -0.45200
O 	O 	0.65350 0.43700 0.20000 -0.38800
O 	O 	0.65280 0.60780 0.22280 -0.37000
O 	O 	0.67980 0.72190 0.98860 -0.42800
O 	O 	0.74690 0.50230 0.22190 -0.37200
O 	O 	0.73400 0.45220 0.97250 -0.43900
O 	O 	0.61780 0.55740 0.97340 -0.39000
O 	O 	0.54040 0.54800 0.20110 -0.45400
O 	O 	0.75210 0.69000 0.25500 -0.45500
O 	O 	0.67610 0.72200 0.90760 -0.43000
O 	O 	0.72890 0.62370 0.94810 -0.45000
O 	O 	0.69050 0.53700 0.01470 -0.51100
O 	O 	0.52330 0.30300 0.97670 -0.46200
O 	O 	0.60080 0.27700 0.26450 -0.43700
O 	O 	0.68840 0.27200 0.91930 -0.43700
O 	O 	0.60530 0.75720 0.95010 -0.44400
O 	O 	0.67990 0.79960 0.22420 -0.44300
O 	O 	0.84120 0.62840 0.22260 -0.43800
O 	O 	0.52740 0.49680 0.94930 -0.37400
O 	O 	0.58130 0.45300 0.15870 -0.52200
O 	O 	0.65940 0.44200 0.24700 -0.36500
O 	O 	0.61570 0.56130 0.92450 -0.36800
O 	O 	0.59610 0.28500 0.18510 -0.45900
O 	O 	0.73240 0.45200 0.92110 -0.44300
O 	O 	0.65060 0.63800 0.16810 -0.52500
O 	O 	0.51230 0.69400 0.97480 -0.45200
O 	O 	0.68950 0.26100 0.97030 -0.43600
O 	O 	0.59330 0.19940 0.94350 -0.44400
O 	O 	0.66060 0.62600 0.27970 -0.44100
O 	O 	0.66820 0.24060 0.22330 -0.44300
O 	O 	0.68940 0.33300 0.15670 -0.52500
O 	O 	0.58100 0.73860 0.20110 -0.42900
O 	O 	0.75990 0.30700 0.19710 -0.45900
O 	O 	0.58160 0.65800 0.01530 -0.53700
O 	O 	0.51010 0.46600 0.00570 -0.53300
O 	O 	0.61900 0.35900 0.00310 -0.53300
O 	O 	0.75220 0.69500 0.19290 -0.45900
O 	O 	0.75980 0.52820 0.16550 -0.53400
O 	O 	0.58820 0.73100 0.25090 -0.45100
O 	O 	0.54750 0.37390 0.22610 -0.45200
O 	O 	0.76380 0.30600 0.24740 -0.45100
O 	O 	0.52060 0.31430 0.91490 -0.45700
O 	O 	0.51030 0.69700 0.92500 -0.44300
O 	O 	0.61580 0.38300 0.89160 -0.44800
O 	O 	0.67660 0.55600 0.88290 -0.43800
O 	O 	0.69700 0.34700 0.28840 -0.43600
O 	O 	0.75850 0.51900 0.27790 -0.44500
O 	O 	0.84480 0.45600 0.19830 -0.43800
O 	O 	0.59810 0.45800 0.28860 -0.44700
O 	O 	0.57980 0.65600 0.88370 -0.43600
O 	O 	0.51690 0.48900 0.89380 -0.45300
O 	O 	0.57700 0.20600 0.07200 -0.23000
O 	O 	0.43610 0.37500 0.94680 -0.45700
O 	O 	0.42840 0.55100 0.92360 -0.43600
O 	O 	0.67390 0.38900 0.05290 -0.30400
O 	O 	0.77300 0.29000 0.09190 -0.24200
O 	O 	0.42740 0.54000 0.97410 -0.42900
O 	O 	0.59660 0.60000 0.11810 -0.28400
O 	O 	0.84500 0.45300 0.24740 -0.43900
O 	O 	0.71290 0.64600 0.11830 -0.46700
O 	O 	0.74660 0.43000 0.11150 -0.40000
O 	O 	0.52460 0.56400 0.05920 -0.41100
O 	O 	0.55930 0.35400 0.05320 -0.42700
O 	O 	0.63630 0.58700 0.06630 -0.31000
O 	O 	0.62990 0.40000 0.10530 -0.27600
O 	O 	0.49200 0.69500 0.07820 -0.22900
W 	W 	0.94509 0.90440 0.75921 0.98600
W 	W 	0.82805 0.23840 0.75654 0.99000
W 	W 	0.81540 0.76473 0.75740 0.97800
W 	W 	0.94710 0.90937 0.68747 1.04800
W 	W 	0.89480 0.76203 0.48017 1.02200
W 	W 	0.77978 0.08733 0.48538 1.00300
W 	W 	0.83238 0.23598 0.69015 1.01800
W 	W 	0.78025 0.09942 0.41370 0.96000
W 	W 	0.95288 0.15065 0.72554 1.01100
W 	W 	0.68677 0.08671 0.75466 0.97400
W 	W 	0.69353 0.08808 0.68824 1.04700
W 	W 	0.90793 0.22625 0.48750 1.04000
W 	W 	0.89774 0.76586 0.41369 0.98600
W 	W 	0.03364 0.90950 0.48235 1.05000
W 	W 	0.77353 0.84994 0.44581 0.98700
W 	W 	0.04172 0.13966 0.45038 0.97600
W 	W 	0.68439 0.86116 0.72176 1.00000
W 	W 	0.91005 0.23896 0.41576 0.95100
W 	W 	0.81888 0.77072 0.68568 1.06700
W 	W 	0.03831 0.91804 0.41584 1.00200
W 	W 	0.90512 0.01717 0.38100 0.99900
W 	W 	0.81927 0.99002 0.79068 0.98000
Dy	Dy	0.82579 0.00314 0.64114 2.02100
Dy	Dy	0.90249 0.99029 0.53047 2.08800
P 	P 	0.82190 0.99770 0.72240 0.55800
P 	P 	0.90470 0.00400 0.44910 0.55300
C 	C 	0.76600 0.85200 0.59980 0.34600
C 	C 	0.83100 0.82500 0.59480 -0.04600
H 	H 	0.83880 0.76090 0.60370 0.05700
C 	C 	0.83700 0.80400 0.56660 0.02500
H 	H 	0.81440 0.74490 0.56080 0.04000
C 	C 	0.90400 0.79300 0.56300 0.29800
C 	C 	0.81800 0.20200 0.60860 0.38400
C 	C 	0.88600 0.19000 0.60470 -0.04300
H 	H 	0.90730 0.25000 0.61110 0.05500
C 	C 	0.89800 0.17400 0.57600 -0.01100
H 	H 	0.88940 0.23610 0.56620 0.04100
C 	C 	0.96340 0.13800 0.57100 0.35100
O 	O 	0.79800 0.29200 0.60080 -0.24900
O 	O 	0.87940 0.89520 0.44820 -0.36500
O 	O 	0.95760 0.04380 0.75060 -0.44900
O 	O 	0.84650 0.93700 0.70000 -0.38800
O 	O 	0.84720 0.10780 0.72280 -0.36700
O 	O 	0.82020 0.22190 0.48860 -0.42700
O 	O 	0.75310 0.00230 0.72190 -0.36800
O 	O 	0.76600 0.95220 0.47250 -0.43500
O 	O 	0.88220 0.05740 0.47340 -0.39100
O 	O 	0.95960 0.04800 0.70110 -0.45200
O 	O 	0.74790 0.19000 0.75500 -0.45600
O 	O 	0.82390 0.22200 0.40760 -0.42900
O 	O 	0.77110 0.12370 0.44810 -0.45000
O 	O 	0.80950 0.03700 0.51470 -0.51400
O 	O 	0.97670 0.80300 0.47670 -0.45900
O 	O 	0.89920 0.77700 0.76450 -0.43700
O 	O 	0.81160 0.77200 0.41930 -0.43700
O 	O 	0.89470 0.25720 0.45010 -0.44300
O 	O 	0.82010 0.29960 0.72420 -0.44400
O 	O 	0.65880 0.12840 0.72260 -0.43800
O 	O 	0.97260 0.99680 0.44930 -0.36500
O 	O 	0.91870 0.95300 0.65870 -0.52300
O 	O 	0.84060 0.94200 0.74700 -0.36500
O 	O 	0.88430 0.06130 0.42450 -0.36800
O 	O 	0.90390 0.78500 0.68510 -0.45800
O 	O 	0.76760 0.95200 0.42110 -0.43800
O 	O 	0.84940 0.13800 0.66810 -0.52500
O 	O 	0.98770 0.19400 0.47480 -0.45100
O 	O 	0.81050 0.76100 0.47030 -0.43600
O 	O 	0.90670 0.69940 0.44350 -0.44400
O 	O 	0.83940 0.12600 0.77970 -0.43800
O 	O 	0.83180 0.74060 0.72330 -0.44300
O 	O 	0.81060 0.83300 0.65670 -0.52600
O 	O 	0.91900 0.23860 0.70110 -0.42900
O 	O 	0.74010 0.80700 0.69710 -0.45900
O 	O 	0.91840 0.15800 0.51530 -0.53900
O 	O 	0.98990 0.96600 0.50570 -0.53000
O 	O 	0.88100 0.85900 0.50310 -0.53400
O 	O 	0.74780 0.19500 0.69290 -0.46000
O 	O 	0.74020 0.02820 0.66550 -0.53300
O 	O 	0.91180 0.23100 0.75090 -0.45200
O 	O 	0.95250 0.87390 0.72610 -0.45200
O 	O 	0.73620 0.80600 0.74740 -0.45200
O 	O 	0.97940 0.81430 0.41490 -0.45500
O 	O 	0.98970 0.19700 0.42500 -0.44200
O 	O 	0.88420 0.88300 0.39160 -0.44200
O 	O 	0.82340 0.05600 0.38290 -0.43700
O 	O 	0.80300 0.84700 0.78840 -0.43600
O 	O 	0.74150 0.01900 0.77790 -0.44000
O 	O 	0.65520 0.95600 0.69830 -0.44000
O 	O 	0.90190 0.95800 0.78860 -0.44800
O 	O 	0.92020 0.15600 0.38370 -0.43500
O 	O 	0.98310 0.98900 0.39380 -0.44400
O 	O 	0.92300 0.70600 0.57200 -0.23000
O 	O 	0.06390 0.87500 0.44680 -0.45700
O 	O 	0.07160 0.05100 0.42360 -0.43800
O 	O 	0.82610 0.88900 0.55290 -0.30400
O 	O 	0.72700 0.79000 0.59190 -0.24200
O 	O 	0.07260 0.04000 0.47410 -0.43000
O 	O 	0.90340 0.10000 0.61810 -0.28500
O 	O 	0.65500 0.95300 0.74740 -0.44200
O 	O 	0.78710 0.14600 0.61830 -0.46700
O 	O 	0.75340 0.93000 0.61150 -0.40100
O 	O 	0.97540 0.06400 0.55920 -0.41300
O 	O 	0.94070 0.85400 0.55320 -0.42800
O 	O 	0.86370 0.08700 0.56630 -0.31100
O 	O 	0.87010 0.90000 0.60530 -0.27700
O 	O 	0.00800 0.19500 0.57820 -0.23000
W 	W 	0.05491 0.09560 0.25921 0.98600
W 	W 	0.17195 0.76160 0.25654 0.99000
W 	W 	0.18460 0.23527 0.25740 0.97800
W 	W 	0.05290 0.09063 0.18747 1.04800
W 	W 	0.10520 0.23797 0.98017 1.02100
W 	W 	0.22022 0.91267 0.98538 1.00100
W 	W 	0.16762 0.76402 0.19015 1.01800
W 	W 	0.21975 0.90058 0.91370 0.96000
W 	W 	0.04712 0.84935 0.22554 1.01100
W 	W 	0.31323 0.91329 0.25466 0.97400
W 	W 	0.30647 0.91192 0.18824 1.04700
W 	W 	0.09207 0.77375 0.98750 1.03800
W 	W 	0.10226 0.23414 0.91369 0.98600
W 	W 	0.96636 0.09050 0.98235 1.04800
W 	W 	0.22647 0.15006 0.94581 0.98700
W 	W 	0.95828 0.86034 0.95038 0.97600
W 	W 	0.31561 0.13884 0.22176 1.00000
W 	W 	0.08995 0.76104 0.91576 0.95100
W 	W 	0.18112 0.22928 0.18568 1.06700
W 	W 	0.96169 0.08196 0.91584 1.00200
W 	W 	0.09488 0.98283 0.88100 1.00000
W 	W 	0.18073 0.00998 0.29068 0.97900
Dy	Dy	0.17421 0.99686 0.14114 2.02100
Dy	Dy	0.09751 0.00971 0.03047 2.08800
P 	P 	0.17810 0.00230 0.22240 0.55800
P 	P 	0.09530 0.99600 0.94910 0.55300
C 	C 	0.23400 0.14800 0.09980 0.34600
C 	C 	0.16900 0.17500 0.09480 -0.04600
H 	H 	0.16120 0.23910 0.10370 0.05700
C 	C 	0.16300 0.19600 0.06660 0.02500
H 	H 	0.18560 0.25510 0.06080 0.04000
C 	C 	0.09600 0.20700 0.06300 0.29800
C 	C 	0.18200 0.79800 0.10860 0.38400
C 	C 	0.11400 0.81000 0.10470 -0.04300
H 	H 	0.09270 0.75000 0.11110 0.05500
C 	C 	0.10200 0.82600 0.07600 -0.01100
H 	H 	0.11060 0.76390 0.06620 0.04100
C 	C 	0.03660 0.86200 0.07100 0.35100
O 	O 	0.20200 0.70800 0.10080 -0.24900
O 	O 	0.12060 0.10480 0.94820 -0.36500
O 	O 	0.04240 0.95620 0.25060 -0.44900
O 	O 	0.15350 0.06300 0.20000 -0.38800
O 	O 	0.15280 0.89220 0.22280 -0.36700
O 	O 	0.17980 0.77810 0.98860 -0.42700
O 	O 	0.24690 0.99770 0.22190 -0.36700
O 	O 	0.23400 0.04780 0.97250 -0.43500
O 	O 	0.11780 0.94260 0.97340 -0.39100
O 	O 	0.04040 0.95200 0.20110 -0.45200
O 	O 	0.25210 0.81000 0.25500 -0.45600
O 	O 	0.17610 0.77800 0.90760 -0.42900
O 	O 	0.22890 0.87630 0.94810 -0.45000
O 	O 	0.19050 0.96300 0.01470 -0.51300
O 	O 	0.02330 0.19700 0.97670 -0.45900
O 	O 	0.10080 0.22300 0.26450 -0.43700
O 	O 	0.18840 0.22800 0.91930 -0.43700
O 	O 	0.10530 0.74280 0.95010 -0.44300
O 	O 	0.17990 0.70040 0.22420 -0.44400
O 	O 	0.34120 0.87160 0.22260 -0.43800
O 	O 	0.02740 0.00320 0.94930 -0.36500
O 	O 	0.08130 0.04700 0.15870 -0.52300
O 	O 	0.15940 0.05800 0.24700 -0.36500
O 	O 	0.11570 0.93870 0.92450 -0.36800
O 	O 	0.09610 0.21500 0.18510 -0.45800
O 	O 	0.23240 0.04800 0.92110 -0.43800
O 	O 	0.15060 0.86200 0.16810 -0.52500
O 	O 	0.01230 0.80600 0.97480 -0.45200
O 	O 	0.18950 0.23900 0.97030 -0.43600
O 	O 	0.09330 0.30060 0.94350 -0.44400
O 	O 	0.16060 0.87400 0.27970 -0.43800
O 	O 	0.16820 0.25940 0.22330 -0.44300
O 	O 	0.18940 0.16700 0.15670 -0.52600
O 	O 	0.08100 0.76140 0.20110 -0.42900
O 	O 	0.25990 0.19300 0.19710 -0.45900
O 	O 	0.08160 0.84200 0.01530 -0.53800
O 	O 	0.01010 0.03400 0.00570 -0.52900
O 	O 	0.11900 0.14100 0.00310 -0.53300
O 	O 	0.25220 0.80500 0.19290 -0.46000
O 	O 	0.25980 0.97180 0.16550 -0.53300
O 	O 	0.08820 0.76900 0.25090 -0.45200
O 	O 	0.04750 0.12610 0.22610 -0.45200
O 	O 	0.26380 0.19400 0.24740 -0.45200
O 	O 	0.02060 0.18570 0.91490 -0.45500
O 	O 	0.01030 0.80300 0.92500 -0.44200
O 	O 	0.11580 0.11700 0.89160 -0.44200
O 	O 	0.17660 0.94400 0.88290 -0.43700
O 	O 	0.19700 0.15300 0.28840 -0.43600
O 	O 	0.25850 0.98100 0.27790 -0.44000
O 	O 	0.34480 0.04400 0.19830 -0.44000
O 	O 	0.09810 0.04200 0.28860 -0.44800
O 	O 	0.07980 0.84400 0.88370 -0.43500
O 	O 	0.01690 0.01100 0.89380 -0.44400
O 	O 	0.07700 0.29400 0.07200 -0.22900
O 	O 	0.93610 0.12500 0.94680 -0.45700
O 	O 	0.92840 0.94900 0.92360 -0.43800
O 	O 	0.17390 0.11100 0.05290 -0.30300
O 	O 	0.27300 0.21000 0.09190 -0.24200
O 	O 	0.92740 0.96000 0.97410 -0.43000
O 	O 	0.09660 0.90000 0.11810 -0.28500
O 	O 	0.34500 0.04700 0.24740 -0.44200
O 	O 	0.21290 0.85400 0.11830 -0.46700
O 	O 	0.24660 0.07000 0.11150 -0.40100
O 	O 	0.02460 0.93600 0.05920 -0.41300
O 	O 	0.05930 0.14600 0.05320 -0.42700
O 	O 	0.13630 0.91300 0.06630 -0.31100
O 	O 	0.12990 0.10000 0.10530 -0.27700
O 	O 	0.99200 0.80500 0.07820 -0.23000
