data_crystal

_cell_length_a 6.78830
_cell_length_b 14.48400
_cell_length_c 28.91670
_cell_angle_alpha 90.00000
_cell_angle_beta  93.29500
_cell_angle_gamma 90.00000

_symmetry_space_group_name_	'P 1'
_symmetry_space_group_name_H-M	'P 1'

loop_
_symmetry_equiv_pos_as_xyz
  x,y,z

loop_
_atom_site_label
_atom_site_type_symbol
_atom_site_fract_x
_atom_site_fract_y
_atom_site_fract_z
_atom_site_charge
Ni	Ni	0.99864 0.77426 0.25358 1.05700
Ni	Ni	0.50360 0.52446 0.24623 1.05400
N 	N 	0.80260 0.37310 0.26627 -0.17500
N 	N 	0.86020 0.72700 0.68631 -0.24000
N 	N 	0.79880 0.67430 0.27261 -0.17500
N 	N 	0.13790 0.77300 0.32082 -0.24100
C 	C 	0.68730 0.43200 0.26188 -0.23300
N 	N 	0.19120 0.67190 0.23576 -0.17600
N 	N 	0.19400 0.37710 0.22871 -0.17800
C 	C 	0.33450 0.77450 0.32818 0.06200
H 	H 	0.41360 0.77900 0.30220 -0.01100
C 	C 	0.66370 0.72450 0.67867 0.05800
H 	H 	0.58400 0.71970 0.70450 -0.01000
C 	C 	0.31720 0.79030 0.49668 -0.04700
H 	H 	0.19110 0.81850 0.49230 0.04000
C 	C 	0.40950 0.75600 0.45837 -0.01400
C 	C 	0.68270 0.70750 0.51037 -0.04700
H 	H 	0.80820 0.67880 0.51470 0.04100
C 	C 	0.59200 0.74190 0.54845 -0.01300
C 	C 	0.31490 0.76200 0.41103 0.07300
C 	C 	0.57210 0.72880 0.63483 -0.14200
H 	H 	0.43220 0.72710 0.63100 0.07000
C 	C 	0.68520 0.73550 0.59596 0.07000
C 	C 	0.03100 0.76660 0.35795 0.07900
H 	H 	0.89140 0.76590 0.35320 -0.01900
C 	C 	0.42700 0.76980 0.37193 -0.14200
H 	H 	0.56690 0.77180 0.37550 0.07000
C 	C 	0.96810 0.73300 0.64918 0.06900
H 	H 	0.10770 0.73460 0.65410 -0.01400
C 	C 	0.40540 0.78390 0.54072 -0.04600
H 	H 	0.33980 0.80820 0.56620 0.03700
C 	C 	0.59480 0.71390 0.46605 -0.04700
H 	H 	0.66060 0.68960 0.44060 0.03900
C 	C 	0.88910 0.73680 0.60434 -0.14200
H 	H 	0.97320 0.74020 0.57920 0.07100
C 	C 	0.11100 0.76090 0.40270 -0.14600
H 	H 	0.02720 0.75630 0.42780 0.07400
C 	C 	0.31040 0.61500 0.23815 -0.23400
C 	C 	0.68390 0.61590 0.26577 -0.23300
C 	C 	0.31170 0.43410 0.23398 -0.23300
Ni	Ni	0.00136 0.27426 0.24642 1.05600
Ni	Ni	0.49640 0.02446 0.25377 1.05300
N 	N 	0.19740 0.87310 0.23373 -0.17600
N 	N 	0.13980 0.22700 0.81369 -0.24100
N 	N 	0.20120 0.17430 0.22739 -0.17600
N 	N 	0.86210 0.27300 0.17918 -0.24200
C 	C 	0.31270 0.93200 0.23812 -0.23200
N 	N 	0.80880 0.17190 0.26424 -0.17700
N 	N 	0.80600 0.87710 0.27129 -0.17800
C 	C 	0.66550 0.27450 0.17182 0.06200
H 	H 	0.58640 0.27900 0.19780 -0.01100
C 	C 	0.33630 0.22450 0.82133 0.05900
H 	H 	0.41600 0.21970 0.79550 -0.01000
C 	C 	0.68280 0.29030 0.00332 -0.04800
H 	H 	0.80890 0.31850 0.00770 0.04000
C 	C 	0.59050 0.25600 0.04163 -0.01300
C 	C 	0.31730 0.20750 0.98963 -0.04600
H 	H 	0.19180 0.17880 0.98530 0.04000
C 	C 	0.40800 0.24190 0.95155 -0.01400
C 	C 	0.68510 0.26200 0.08897 0.07200
C 	C 	0.42790 0.22880 0.86517 -0.14200
H 	H 	0.56780 0.22710 0.86900 0.07000
C 	C 	0.31480 0.23550 0.90404 0.07000
C 	C 	0.96900 0.26660 0.14205 0.07800
H 	H 	0.10860 0.26590 0.14680 -0.01900
C 	C 	0.57300 0.26980 0.12807 -0.14200
H 	H 	0.43310 0.27180 0.12450 0.07000
C 	C 	0.03190 0.23300 0.85082 0.06900
H 	H 	0.89230 0.23460 0.84590 -0.01300
C 	C 	0.59460 0.28390 0.95928 -0.04500
H 	H 	0.66020 0.30820 0.93380 0.03700
C 	C 	0.40520 0.21390 0.03395 -0.04800
H 	H 	0.33940 0.18960 0.05940 0.03900
C 	C 	0.11090 0.23680 0.89566 -0.14200
H 	H 	0.02680 0.24020 0.92080 0.07100
C 	C 	0.88900 0.26090 0.09730 -0.14600
H 	H 	0.97280 0.25630 0.07220 0.07400
C 	C 	0.68960 0.11500 0.26185 -0.23400
C 	C 	0.31610 0.11590 0.23423 -0.23400
C 	C 	0.68830 0.93410 0.26602 -0.23300
Ni	Ni	0.00136 0.22574 0.74642 1.05600
Ni	Ni	0.49640 0.47554 0.75377 1.05300
N 	N 	0.19740 0.62690 0.73373 -0.17600
N 	N 	0.13980 0.27300 0.31369 -0.24100
N 	N 	0.20120 0.32570 0.72739 -0.17600
N 	N 	0.86210 0.22700 0.67918 -0.24200
C 	C 	0.31270 0.56800 0.73812 -0.23400
N 	N 	0.80880 0.32810 0.76424 -0.17700
N 	N 	0.80600 0.62290 0.77129 -0.17800
C 	C 	0.66550 0.22550 0.67182 0.06200
H 	H 	0.58640 0.22100 0.69780 -0.01100
C 	C 	0.33630 0.27550 0.32133 0.05800
H 	H 	0.41600 0.28030 0.29550 -0.01000
C 	C 	0.68280 0.20970 0.50332 -0.04700
H 	H 	0.80890 0.18150 0.50770 0.04000
C 	C 	0.59050 0.24400 0.54163 -0.01400
C 	C 	0.31730 0.29250 0.48963 -0.04700
H 	H 	0.19180 0.32120 0.48530 0.04100
C 	C 	0.40800 0.25810 0.45155 -0.01300
C 	C 	0.68510 0.23800 0.58897 0.07300
C 	C 	0.42790 0.27120 0.36517 -0.14200
H 	H 	0.56780 0.27290 0.36900 0.07000
C 	C 	0.31480 0.26450 0.40404 0.07000
C 	C 	0.96900 0.23340 0.64205 0.07900
H 	H 	0.10860 0.23410 0.64680 -0.01900
C 	C 	0.57300 0.23020 0.62807 -0.14200
H 	H 	0.43310 0.22820 0.62450 0.07000
C 	C 	0.03190 0.26700 0.35082 0.06900
H 	H 	0.89230 0.26540 0.34590 -0.01400
C 	C 	0.59460 0.21610 0.45928 -0.04600
H 	H 	0.66020 0.19180 0.43380 0.03700
C 	C 	0.40520 0.28610 0.53395 -0.04700
H 	H 	0.33940 0.31040 0.55940 0.03900
C 	C 	0.11090 0.26320 0.39566 -0.14200
H 	H 	0.02680 0.25980 0.42080 0.07100
C 	C 	0.88900 0.23910 0.59730 -0.14600
H 	H 	0.97280 0.24370 0.57220 0.07400
C 	C 	0.68960 0.38500 0.76185 -0.23400
C 	C 	0.31610 0.38410 0.73423 -0.23300
C 	C 	0.68830 0.56590 0.76602 -0.23300
Ni	Ni	0.99864 0.72574 0.75358 1.05600
Ni	Ni	0.50360 0.97554 0.74623 1.05300
N 	N 	0.80260 0.12690 0.76627 -0.17600
N 	N 	0.86020 0.77300 0.18631 -0.24100
N 	N 	0.79880 0.82570 0.77261 -0.17600
N 	N 	0.13790 0.72700 0.82082 -0.24200
C 	C 	0.68730 0.06800 0.76188 -0.23200
N 	N 	0.19120 0.82810 0.73576 -0.17700
N 	N 	0.19400 0.12290 0.72871 -0.17800
C 	C 	0.33450 0.72550 0.82818 0.06200
H 	H 	0.41360 0.72100 0.80220 -0.01100
C 	C 	0.66370 0.77550 0.17867 0.05900
H 	H 	0.58400 0.78030 0.20450 -0.01000
C 	C 	0.31720 0.70970 0.99668 -0.04800
H 	H 	0.19110 0.68150 0.99230 0.04000
C 	C 	0.40950 0.74400 0.95837 -0.01300
C 	C 	0.68270 0.79250 0.01037 -0.04600
H 	H 	0.80820 0.82120 0.01470 0.04000
C 	C 	0.59200 0.75810 0.04845 -0.01400
C 	C 	0.31490 0.73800 0.91103 0.07200
C 	C 	0.57210 0.77120 0.13483 -0.14200
H 	H 	0.43220 0.77290 0.13100 0.07000
C 	C 	0.68520 0.76450 0.09596 0.07000
C 	C 	0.03100 0.73340 0.85795 0.07800
H 	H 	0.89140 0.73410 0.85320 -0.01900
C 	C 	0.42700 0.73020 0.87193 -0.14200
H 	H 	0.56690 0.72820 0.87550 0.07000
C 	C 	0.96810 0.76700 0.14918 0.06900
H 	H 	0.10770 0.76540 0.15410 -0.01300
C 	C 	0.40540 0.71610 0.04072 -0.04500
H 	H 	0.33980 0.69180 0.06620 0.03700
C 	C 	0.59480 0.78610 0.96605 -0.04800
H 	H 	0.66060 0.81040 0.94060 0.03900
C 	C 	0.88910 0.76320 0.10434 -0.14200
H 	H 	0.97320 0.75980 0.07920 0.07100
C 	C 	0.11100 0.73910 0.90270 -0.14600
H 	H 	0.02720 0.74370 0.92780 0.07400
C 	C 	0.31040 0.88500 0.73815 -0.23400
C 	C 	0.68390 0.88410 0.76577 -0.23400
C 	C 	0.31170 0.06590 0.73398 -0.23300
