data_crystal

_cell_length_a 7.40830
_cell_length_b 10.89000
_cell_length_c 13.63200
_cell_angle_alpha 66.67000
_cell_angle_beta  78.17000
_cell_angle_gamma 71.78000

_symmetry_space_group_name_	'P 1'
_symmetry_space_group_name_H-M	'P 1'

loop_
_symmetry_equiv_pos_as_xyz
  x,y,z

loop_
_atom_site_label
_atom_site_type_symbol
_atom_site_fract_x
_atom_site_fract_y
_atom_site_fract_z
_atom_site_charge
O 	O 	0.83510 0.70163 0.95828 -0.30300
N 	N 	0.68910 0.47920 0.01587 -0.28200
N 	N 	0.97560 0.48660 0.16161 -0.23500
C 	C 	0.65930 0.72760 0.95287 0.31100
C 	C 	0.61390 0.37090 0.04385 0.04100
C 	C 	0.57640 0.60710 0.97337 0.13500
C 	C 	0.96360 0.37060 0.24480 0.06700
C 	C 	0.98660 0.59490 0.18300 0.05800
O 	O 	0.54020 0.84233 0.93736 -0.30900
C 	C 	0.74670 0.22820 0.09390 0.26200
H 	H 	0.95410 0.29380 0.23130 0.02500
C 	C 	0.96430 0.35780 0.35020 -0.09100
C 	C 	0.99080 0.59070 0.28510 -0.08600
H 	H 	0.99180 0.67870 0.12450 0.00100
O 	O 	0.85960 0.18140 0.02686 -0.30600
O 	O 	0.73600 0.17640 0.19354 -0.26400
H 	H 	0.95260 0.27390 0.40700 0.06800
C 	C 	0.98210 0.46740 0.37330 0.02500
H 	H 	0.99950 0.66960 0.29590 0.09400
N 	N 	0.50090 0.85360 0.16128 -0.24800
C 	C 	0.98940 0.45260 0.48400 0.15700
C 	C 	0.44090 0.73840 0.18920 0.07800
C 	C 	0.56000 0.87470 0.23870 0.08000
H 	H 	0.97780 0.36690 0.53830 0.01100
H 	H 	0.39570 0.72360 0.13550 -0.05500
C 	C 	0.44160 0.64040 0.29210 -0.16600
C 	C 	0.56000 0.78370 0.34420 -0.14800
H 	H 	0.60350 0.95500 0.22040 0.05600
H 	H 	0.40120 0.55950 0.30750 0.06800
C 	C 	0.50260 0.66200 0.37320 0.11600
H 	H 	0.59900 0.80400 0.39710 0.11000
C 	C 	0.50720 0.56560 0.48390 -0.09600
H 	H 	0.52140 0.59710 0.53700 0.07800
O 	O 	0.16490 0.29837 0.04172 -0.56000
N 	N 	0.31090 0.52080 0.98413 -0.05700
N 	N 	0.02440 0.51340 0.83839 -0.23300
C 	C 	0.34070 0.27240 0.04713 0.38500
C 	C 	0.38610 0.62910 0.95615 0.00700
C 	C 	0.42360 0.39290 0.02663 -0.24300
C 	C 	0.03640 0.62940 0.75520 0.09900
C 	C 	0.01340 0.40510 0.81700 0.09000
O 	O 	0.45980 0.15767 0.06264 -0.52200
C 	C 	0.25330 0.77180 0.90610 0.26700
H 	H 	0.04590 0.70620 0.76870 0.00300
C 	C 	0.03570 0.64220 0.64980 -0.19900
C 	C 	0.00920 0.40930 0.71490 -0.19700
H 	H 	0.00820 0.32130 0.87550 0.02600
O 	O 	0.14040 0.81860 0.97314 -0.18900
O 	O 	0.26400 0.82360 0.80646 -0.19800
H 	H 	0.04740 0.72610 0.59300 0.10100
C 	C 	0.01790 0.53260 0.62670 0.17700
H 	H 	0.00050 0.33040 0.70410 0.07000
N 	N 	0.49910 0.14640 0.83872 -0.22800
C 	C 	0.01060 0.54740 0.51600 -0.31900
C 	C 	0.55910 0.26160 0.81080 0.07900
C 	C 	0.44000 0.12530 0.76130 0.07200
H 	H 	0.02220 0.63310 0.46170 0.10600
H 	H 	0.60430 0.27640 0.86450 0.05900
C 	C 	0.55840 0.35960 0.70790 -0.13200
C 	C 	0.44000 0.21630 0.65580 -0.14300
H 	H 	0.39650 0.04500 0.77960 -0.02200
H 	H 	0.59880 0.44050 0.69250 0.10300
C 	C 	0.49740 0.33800 0.62680 0.09600
H 	H 	0.40100 0.19600 0.60290 0.05800
C 	C 	0.49280 0.43440 0.51610 -0.06700
H 	H 	0.47860 0.40290 0.46300 0.04400
Zn	Zn	-0.00000 0.50000 -0.00000 1.11900
Zn	Zn	0.50000 0.00000 -0.00000 1.09600
