data_crystal

_cell_length_a 11.91090
_cell_length_b 14.35780
_cell_length_c 22.28300
_cell_angle_alpha 90.00000
_cell_angle_beta  113.73300
_cell_angle_gamma 90.00000

_symmetry_space_group_name_	'P 1'
_symmetry_space_group_name_H-M	'P 1'

loop_
_symmetry_equiv_pos_as_xyz
  x,y,z

loop_
_atom_site_label
_atom_site_type_symbol
_atom_site_fract_x
_atom_site_fract_y
_atom_site_fract_z
_atom_site_charge
Co	Co	0.01772 0.78927 0.77255 1.20300
Co	Co	0.81761 0.66455 0.80310 1.18900
Co	Co	0.18628 0.92465 0.72939 1.20900
O 	O 	0.88640 0.87519 0.77436 -0.47800
O 	O 	0.75350 0.79477 0.80194 -0.43100
O 	O 	0.74330 0.28836 0.77143 -0.52800
O 	O 	0.86160 0.20007 0.73751 -0.46700
O 	O 	0.37150 0.96968 0.77531 -0.42100
O 	O 	0.36290 0.12307 0.75445 -0.43200
O 	O 	0.18760 0.39501 0.11693 -0.44600
O 	O 	0.18940 0.54947 0.13532 -0.53000
O 	O 	0.99840 0.36112 0.81700 -0.59000
O 	O 	0.15970 0.28690 0.89380 0.38900
O 	O 	0.00880 0.71008 0.85124 -0.53300
O 	O 	0.13070 0.76320 0.94740 -0.20700
O 	O 	0.13440 0.05123 0.84514 -1.49100
O 	O 	0.15030 0.89220 0.81261 -1.17300
O 	O 	0.11920 0.93310 0.91050 -1.09600
H 	H 	0.11320 0.87650 0.91300 0.50500
O 	O 	0.12510 0.05714 0.73555 -1.18500
O 	O 	0.12740 0.19344 0.79118 -0.94300
B 	B 	0.14070 0.95470 0.85520 2.30600
B 	B 	0.12800 0.09640 0.79050 2.27500
C 	C 	0.79350 0.86810 0.78698 0.42500
C 	C 	0.77900 0.21190 0.75871 0.45300
C 	C 	0.41630 0.04630 0.76740 0.39700
C 	C 	0.72560 0.95810 0.78261 -0.16700
C 	C 	0.77840 0.04050 0.77418 0.14000
H 	H 	0.85560 0.03920 0.77300 -0.01700
C 	C 	0.71790 0.12460 0.76749 -0.17900
C 	C 	0.60230 0.12630 0.76711 0.11500
H 	H 	0.56110 0.18270 0.76220 0.02800
C 	C 	0.54640 0.04470 0.77395 -0.15300
C 	C 	0.60900 0.95970 0.78225 0.10500
H 	H 	0.57250 0.90480 0.78750 0.03300
C 	C 	0.17980 0.47900 0.09978 0.44000
C 	C 	0.08310 0.35480 0.87477 0.47900
C 	C 	0.08780 0.69680 0.90913 0.39900
C 	C 	0.15600 0.49630 0.02898 -0.17400
C 	C 	0.13990 0.58620 0.00332 0.11600
H 	H 	0.15180 0.63710 0.03110 0.03100
C 	C 	0.10610 0.60070 0.93664 -0.17900
C 	C 	0.08830 0.52440 0.89545 0.11600
H 	H 	0.06510 0.53370 0.85070 -0.01900
C 	C 	0.10480 0.43450 0.92035 -0.22300
C 	C 	0.14050 0.42090 0.98699 0.13500
H 	H 	0.15440 0.36070 0.00390 0.02600
O 	O 	0.11500 0.27790 0.89550 -0.64700
O 	O 	0.17730 0.75110 0.94110 -0.11600
O 	O 	0.17300 0.93220 0.91680 -0.04600
H 	H 	0.19170 0.87690 0.92200 -0.03400
In	In	0.81372 0.42465 0.77061 2.02300
Co	Co	0.98228 0.28927 0.72745 1.19700
Co	Co	0.18239 0.16455 0.69690 1.19000
O 	O 	0.11360 0.37519 0.72564 -0.48500
O 	O 	0.24650 0.29477 0.69806 -0.43400
O 	O 	0.25670 0.78836 0.72857 -0.39000
O 	O 	0.13840 0.70007 0.76249 -0.44300
O 	O 	0.62850 0.46968 0.72469 -0.55900
O 	O 	0.63710 0.62307 0.74555 -0.45500
O 	O 	0.81240 0.89501 0.38307 -0.42200
O 	O 	0.81060 0.04947 0.36468 -0.39400
O 	O 	0.00160 0.86112 0.68300 -0.46800
O 	O 	0.84030 0.78690 0.60620 0.30700
O 	O 	0.99120 0.21008 0.64876 -0.53100
O 	O 	0.86930 0.26320 0.55260 -0.20400
O 	O 	0.86560 0.55123 0.65486 -1.53700
O 	O 	0.84970 0.39220 0.68739 -1.31400
O 	O 	0.88080 0.43310 0.58950 -1.12200
H 	H 	0.88680 0.37650 0.58700 0.51700
O 	O 	0.87490 0.55714 0.76445 -1.33700
O 	O 	0.87260 0.69344 0.70882 -0.95300
B 	B 	0.85930 0.45470 0.64480 2.35800
B 	B 	0.87200 0.59640 0.70950 2.31800
C 	C 	0.20650 0.36810 0.71302 0.42700
C 	C 	0.22100 0.71190 0.74129 0.41600
C 	C 	0.58370 0.54630 0.73260 0.42700
C 	C 	0.27440 0.45810 0.71739 -0.17300
C 	C 	0.22160 0.54050 0.72582 0.13900
H 	H 	0.14440 0.53920 0.72700 -0.01700
C 	C 	0.28210 0.62460 0.73251 -0.16900
C 	C 	0.39770 0.62630 0.73289 0.11500
H 	H 	0.43890 0.68270 0.73780 0.02900
C 	C 	0.45360 0.54470 0.72605 -0.16600
C 	C 	0.39100 0.45970 0.71775 0.11300
H 	H 	0.42750 0.40480 0.71250 0.02800
C 	C 	0.82020 0.97900 0.40022 0.39500
C 	C 	0.91690 0.85480 0.62523 0.42600
C 	C 	0.91220 0.19680 0.59087 0.39000
C 	C 	0.84400 0.99630 0.47102 -0.13100
C 	C 	0.86010 0.08620 0.49668 0.08000
H 	H 	0.84820 0.13710 0.46890 0.04400
C 	C 	0.89390 0.10070 0.56336 -0.15400
C 	C 	0.91170 0.02440 0.60455 0.08300
H 	H 	0.93490 0.03370 0.64930 0.00400
C 	C 	0.89520 0.93450 0.57965 -0.16400
C 	C 	0.85950 0.92090 0.51301 0.09000
H 	H 	0.84560 0.86070 0.49610 0.04200
O 	O 	0.88500 0.77790 0.60450 -0.54800
O 	O 	0.82270 0.25110 0.55890 -0.11700
O 	O 	0.82700 0.43220 0.58320 -0.03700
H 	H 	0.80830 0.37690 0.57800 -0.04100
Co	Co	0.98228 0.21073 0.22745 1.20200
Co	Co	0.18239 0.33545 0.19690 1.18800
Co	Co	0.81372 0.07535 0.27061 1.20800
O 	O 	0.11360 0.12481 0.22564 -0.47900
O 	O 	0.24650 0.20523 0.19806 -0.43100
O 	O 	0.25670 0.71164 0.22857 -0.52800
O 	O 	0.13840 0.79993 0.26249 -0.46700
O 	O 	0.62850 0.03032 0.22469 -0.42100
O 	O 	0.63710 0.87693 0.24555 -0.43200
O 	O 	0.81240 0.60499 0.88307 -0.44600
O 	O 	0.81060 0.45053 0.86468 -0.53000
O 	O 	0.00160 0.63888 0.18300 -0.59000
O 	O 	0.84030 0.71310 0.10620 0.38900
O 	O 	0.99120 0.28992 0.14876 -0.53300
O 	O 	0.86930 0.23680 0.05260 -0.20700
O 	O 	0.86560 0.94877 0.15486 -1.49100
O 	O 	0.84970 0.10780 0.18739 -1.17300
O 	O 	0.88080 0.06690 0.08950 -1.09600
H 	H 	0.88680 0.12350 0.08700 0.50500
O 	O 	0.87490 0.94286 0.26445 -1.18500
O 	O 	0.87260 0.80656 0.20882 -0.94300
B 	B 	0.85930 0.04530 0.14480 2.30600
B 	B 	0.87200 0.90360 0.20950 2.27500
C 	C 	0.20650 0.13190 0.21302 0.42500
C 	C 	0.22100 0.78810 0.24129 0.45300
C 	C 	0.58370 0.95370 0.23260 0.39700
C 	C 	0.27440 0.04190 0.21739 -0.16700
C 	C 	0.22160 0.95950 0.22582 0.14000
H 	H 	0.14440 0.96080 0.22700 -0.01700
C 	C 	0.28210 0.87540 0.23251 -0.17900
C 	C 	0.39770 0.87370 0.23289 0.11500
H 	H 	0.43890 0.81730 0.23780 0.02800
C 	C 	0.45360 0.95530 0.22605 -0.15300
C 	C 	0.39100 0.04030 0.21775 0.10500
H 	H 	0.42750 0.09520 0.21250 0.03300
C 	C 	0.82020 0.52100 0.90022 0.44000
C 	C 	0.91690 0.64520 0.12523 0.47900
C 	C 	0.91220 0.30320 0.09087 0.39900
C 	C 	0.84400 0.50370 0.97102 -0.17400
C 	C 	0.86010 0.41380 0.99668 0.11600
H 	H 	0.84820 0.36290 0.96890 0.03100
C 	C 	0.89390 0.39930 0.06336 -0.17900
C 	C 	0.91170 0.47560 0.10455 0.11600
H 	H 	0.93490 0.46630 0.14930 -0.01900
C 	C 	0.89520 0.56550 0.07965 -0.22300
C 	C 	0.85950 0.57910 0.01301 0.13500
H 	H 	0.84560 0.63930 0.99610 0.02600
O 	O 	0.88500 0.72210 0.10450 -0.64700
O 	O 	0.82270 0.24890 0.05890 -0.11600
O 	O 	0.82700 0.06780 0.08320 -0.04600
H 	H 	0.80830 0.12310 0.07800 -0.03400
In	In	0.18628 0.57535 0.22939 2.02300
Co	Co	0.01772 0.71073 0.27255 1.19700
Co	Co	0.81761 0.83545 0.30310 1.19000
O 	O 	0.88640 0.62481 0.27436 -0.48500
O 	O 	0.75350 0.70523 0.30194 -0.43400
O 	O 	0.74330 0.21164 0.27143 -0.39000
O 	O 	0.86160 0.29993 0.23751 -0.44300
O 	O 	0.37150 0.53032 0.27531 -0.55900
O 	O 	0.36290 0.37693 0.25445 -0.45500
O 	O 	0.18760 0.10499 0.61693 -0.42200
O 	O 	0.18940 0.95053 0.63532 -0.39400
O 	O 	0.99840 0.13888 0.31700 -0.46800
O 	O 	0.15970 0.21310 0.39380 0.30700
O 	O 	0.00880 0.78992 0.35124 -0.53100
O 	O 	0.13070 0.73680 0.44740 -0.20400
O 	O 	0.13440 0.44877 0.34514 -1.53700
O 	O 	0.15030 0.60780 0.31261 -1.31400
O 	O 	0.11920 0.56690 0.41050 -1.12200
H 	H 	0.11320 0.62350 0.41300 0.51700
O 	O 	0.12510 0.44286 0.23555 -1.33700
O 	O 	0.12740 0.30656 0.29118 -0.95300
B 	B 	0.14070 0.54530 0.35520 2.35800
B 	B 	0.12800 0.40360 0.29050 2.31800
C 	C 	0.79350 0.63190 0.28698 0.42700
C 	C 	0.77900 0.28810 0.25871 0.41600
C 	C 	0.41630 0.45370 0.26740 0.42700
C 	C 	0.72560 0.54190 0.28261 -0.17300
C 	C 	0.77840 0.45950 0.27418 0.13900
H 	H 	0.85560 0.46080 0.27300 -0.01700
C 	C 	0.71790 0.37540 0.26749 -0.16900
C 	C 	0.60230 0.37370 0.26711 0.11500
H 	H 	0.56110 0.31730 0.26220 0.02900
C 	C 	0.54640 0.45530 0.27395 -0.16600
C 	C 	0.60900 0.54030 0.28225 0.11300
H 	H 	0.57250 0.59520 0.28750 0.02800
C 	C 	0.17980 0.02100 0.59978 0.39500
C 	C 	0.08310 0.14520 0.37477 0.42600
C 	C 	0.08780 0.80320 0.40913 0.39000
C 	C 	0.15600 0.00370 0.52898 -0.13100
C 	C 	0.13990 0.91380 0.50332 0.08000
H 	H 	0.15180 0.86290 0.53110 0.04400
C 	C 	0.10610 0.89930 0.43664 -0.15400
C 	C 	0.08830 0.97560 0.39545 0.08300
H 	H 	0.06510 0.96630 0.35070 0.00400
C 	C 	0.10480 0.06550 0.42035 -0.16400
C 	C 	0.14050 0.07910 0.48699 0.09000
H 	H 	0.15440 0.13930 0.50390 0.04200
O 	O 	0.11500 0.22210 0.39550 -0.54800
O 	O 	0.17730 0.74890 0.44110 -0.11700
O 	O 	0.17300 0.56780 0.41680 -0.03700
H 	H 	0.19170 0.62310 0.42200 -0.04100
