data_crystal

_cell_length_a 10.28300
_cell_length_b 12.09600
_cell_length_c 16.91100
_cell_angle_alpha 76.07000
_cell_angle_beta  72.38000
_cell_angle_gamma 65.20000

_symmetry_space_group_name_	'P 1'
_symmetry_space_group_name_H-M	'P 1'

loop_
_symmetry_equiv_pos_as_xyz
  x,y,z

loop_
_atom_site_label
_atom_site_type_symbol
_atom_site_fract_x
_atom_site_fract_y
_atom_site_fract_z
_atom_site_charge
Ga	Ga	0.27335 0.49810 0.76132 2.09000
Ga	Ga	0.53427 0.00087 0.74472 2.08900
Ga	Ga	0.85725 0.59352 0.89893 2.08300
Ga	Ga	0.34526 0.90775 0.60375 2.08100
Ga	Ga	0.85072 0.73977 0.69607 2.09300
Ga	Ga	0.28706 0.75935 0.80608 2.09300
P 	P 	0.11510 0.59935 0.93639 0.64200
P 	P 	0.00100 0.45861 0.73743 0.62300
P 	P 	0.19700 0.04184 0.76537 0.59300
P 	P 	0.65060 0.90897 0.56652 0.64600
P 	P 	0.57180 0.75124 0.84528 0.59600
P 	P 	0.17010 0.74404 0.65691 0.59700
P 	P 	0.56020 0.25554 0.73445 0.59200
O 	O 	0.66870 0.71270 0.75990 -0.61100
O 	O 	0.14270 0.78490 0.74120 -0.60700
O 	O 	0.15910 0.70920 0.90400 -0.52700
O 	O 	0.52070 0.89190 0.84160 -0.58300
O 	O 	0.25530 0.60290 0.66100 -0.57400
O 	O 	0.54460 0.86800 0.54280 -0.56900
O 	O 	0.26040 0.80780 0.58690 -0.53300
O 	O 	0.94490 0.64300 0.96200 -0.55800
O 	O 	0.77040 0.79580 0.59860 -0.52800
O 	O 	0.19780 0.92750 0.82680 -0.53800
O 	O 	0.32240 0.08100 0.76210 -0.54100
O 	O 	0.72230 0.97460 0.48920 -0.50700
O 	O 	0.95010 0.56970 0.67420 -0.51900
O 	O 	0.15830 0.51570 0.86950 -0.68000
O 	O 	0.43960 0.71250 0.86720 -0.46900
O 	O 	0.17940 0.52840 0.01160 -0.51700
O 	O 	0.02350 0.78070 0.63360 -0.46700
O 	O 	0.55260 0.13070 0.77320 -0.53800
O 	O 	0.20490 0.02580 0.67550 -0.55700
O 	O 	0.42360 0.35110 0.78170 -0.53600
O 	O 	0.16230 0.41750 0.73930 -0.54400
O 	O 	0.55330 0.99630 0.63310 -0.66500
O 	O 	0.98490 0.35300 0.70850 -0.39700
H 	H 	0.01450 0.28910 0.73970 0.33200
O 	O 	0.90250 0.47570 0.82660 -0.55200
F 	F 	0.75270 0.91480 0.72120 -0.80300
F 	F 	0.38310 0.58390 0.78180 -0.80900
O 	O 	0.91170 0.70030 0.80120 -0.99300
H 	H 	0.93830 0.75700 0.81180 0.34100
O 	O 	0.41260 0.80010 0.70070 -0.93300
H 	H 	0.51660 0.75700 0.69790 0.28000
O 	O 	0.65500 0.68750 0.91550 -0.53100
O 	O 	0.69850 0.25780 0.74890 -0.15400
O 	O 	0.05330 0.14630 0.79470 -0.19400
O 	O 	0.56430 0.28050 0.64110 -0.23600
Ga	Ga	0.72665 0.50190 0.23868 2.08900
Ga	Ga	0.46573 0.99913 0.25528 2.08800
Ga	Ga	0.14275 0.40648 0.10107 2.08300
Ga	Ga	0.65474 0.09225 0.39625 2.08100
Ga	Ga	0.14928 0.26023 0.30393 2.09300
Ga	Ga	0.71294 0.24065 0.19392 2.09300
P 	P 	0.88490 0.40065 0.06361 0.64200
P 	P 	0.99900 0.54139 0.26257 0.62300
P 	P 	0.80300 0.95816 0.23463 0.59300
P 	P 	0.34940 0.09103 0.43348 0.64600
P 	P 	0.42820 0.24876 0.15472 0.59600
P 	P 	0.82990 0.25596 0.34309 0.59700
P 	P 	0.43980 0.74446 0.26555 0.59200
O 	O 	0.33130 0.28730 0.24010 -0.61100
O 	O 	0.85730 0.21510 0.25880 -0.60700
O 	O 	0.84090 0.29080 0.09600 -0.52700
O 	O 	0.47930 0.10810 0.15840 -0.58300
O 	O 	0.74470 0.39710 0.33900 -0.57400
O 	O 	0.45540 0.13200 0.45720 -0.56900
O 	O 	0.73960 0.19220 0.41310 -0.53300
O 	O 	0.05510 0.35700 0.03800 -0.55800
O 	O 	0.22960 0.20420 0.40140 -0.52800
O 	O 	0.80220 0.07250 0.17320 -0.53800
O 	O 	0.67760 0.91900 0.23790 -0.54100
O 	O 	0.27770 0.02540 0.51080 -0.50700
O 	O 	0.04990 0.43030 0.32580 -0.51900
O 	O 	0.84170 0.48430 0.13050 -0.68000
O 	O 	0.56040 0.28750 0.13280 -0.46900
O 	O 	0.82060 0.47160 0.98840 -0.51700
O 	O 	0.97650 0.21930 0.36640 -0.46700
O 	O 	0.44740 0.86930 0.22680 -0.53800
O 	O 	0.79510 0.97420 0.32450 -0.55700
O 	O 	0.57640 0.64890 0.21830 -0.53600
O 	O 	0.83770 0.58250 0.26070 -0.54400
O 	O 	0.44670 0.00370 0.36690 -0.66500
O 	O 	0.01510 0.64700 0.29150 -0.39700
H 	H 	0.98550 0.71090 0.26030 0.33200
O 	O 	0.09750 0.52430 0.17340 -0.55200
F 	F 	0.24730 0.08520 0.27880 -0.80300
F 	F 	0.61690 0.41610 0.21820 -0.80900
O 	O 	0.08830 0.29970 0.19880 -0.99300
H 	H 	0.06170 0.24300 0.18820 0.34100
O 	O 	0.58740 0.19990 0.29930 -0.93300
H 	H 	0.48340 0.24300 0.30210 0.28000
O 	O 	0.34500 0.31250 0.08450 -0.53100
O 	O 	0.30150 0.74220 0.25110 -0.15400
O 	O 	0.94670 0.85370 0.20530 -0.19400
O 	O 	0.43570 0.71950 0.35890 -0.23600
