data_crystal

_cell_length_a 10.40600
_cell_length_b 11.06200
_cell_length_c 12.40700
_cell_angle_alpha 103.58000
_cell_angle_beta  106.34000
_cell_angle_gamma 98.73000

_symmetry_space_group_name_	'P 1'
_symmetry_space_group_name_H-M	'P 1'

loop_
_symmetry_equiv_pos_as_xyz
  x,y,z

loop_
_atom_site_label
_atom_site_type_symbol
_atom_site_fract_x
_atom_site_fract_y
_atom_site_fract_z
_atom_site_charge
Pr	Pr	0.09415 0.54426 0.68266 2.03700
Pr	Pr	0.90585 0.45574 0.31734 2.03700
H 	H 	0.27410 0.39430 0.24960 0.28400
H 	H 	0.07560 0.88180 0.71070 0.28300
H 	H 	0.00090 0.14760 0.66630 0.07700
H 	H 	0.56550 0.82630 0.89930 0.11200
H 	H 	0.38930 0.55760 0.63470 0.05500
H 	H 	0.17660 0.93960 0.94680 0.27200
H 	H 	0.72590 0.60570 0.75040 0.28300
H 	H 	0.92440 0.11820 0.28930 0.28200
H 	H 	0.99910 0.85240 0.33370 0.07700
H 	H 	0.43450 0.17370 0.10070 0.11200
H 	H 	0.61070 0.44240 0.36530 0.05500
H 	H 	0.82340 0.06040 0.05320 0.27200
C 	C 	0.00080 0.08810 0.59940 -0.08800
C 	C 	0.29420 0.77120 0.85270 0.32400
C 	C 	0.35770 0.48150 0.46200 -0.17600
C 	C 	0.05570 0.75340 0.50870 0.42300
C 	C 	0.53980 0.89560 0.93940 -0.10100
C 	C 	0.20490 0.46030 0.42570 0.41700
C 	C 	0.40030 0.89030 0.92870 -0.12200
C 	C 	0.43400 0.53410 0.58070 -0.08400
C 	C 	0.02980 0.97230 0.60750 0.23700
C 	C 	0.36180 0.99400 0.98910 0.22200
C 	C 	0.42470 0.44820 0.38090 0.24400
C 	C 	0.02880 0.88190 0.50660 -0.16700
C 	C 	0.99920 0.91190 0.40060 -0.08800
C 	C 	0.70580 0.22880 0.14730 0.32400
C 	C 	0.64230 0.51850 0.53800 -0.17600
C 	C 	0.94430 0.24660 0.49130 0.42300
C 	C 	0.46020 0.10440 0.06060 -0.10100
C 	C 	0.79510 0.53970 0.57430 0.41700
C 	C 	0.59970 0.10970 0.07130 -0.12200
C 	C 	0.56600 0.46590 0.41930 -0.08400
C 	C 	0.97020 0.02770 0.39250 0.23700
C 	C 	0.63820 0.00600 0.01090 0.22200
C 	C 	0.57530 0.55180 0.61910 0.24400
C 	C 	0.97120 0.11810 0.49340 -0.16700
O 	O 	0.17070 0.75910 0.85050 -0.43800
O 	O 	0.35660 0.39750 0.26300 -0.43300
O 	O 	0.05780 0.95210 0.71510 -0.42600
O 	O 	0.13640 0.42260 0.31610 -0.49200
O 	O 	0.14480 0.48060 0.50070 -0.59900
O 	O 	0.09300 0.73310 0.60790 -0.48500
O 	O 	0.33070 0.68220 0.79140 -0.45100
O 	O 	0.03990 0.67320 0.41170 -0.52500
O 	O 	0.23250 0.00740 0.98540 -0.39900
O 	O 	0.82930 0.24090 0.14950 -0.43800
O 	O 	0.64340 0.60250 0.73700 -0.43300
O 	O 	0.94220 0.04790 0.28490 -0.42600
O 	O 	0.86360 0.57740 0.68390 -0.49200
O 	O 	0.85520 0.51940 0.49930 -0.59900
O 	O 	0.90700 0.26690 0.39210 -0.48500
O 	O 	0.66930 0.31780 0.20860 -0.45100
O 	O 	0.96010 0.32680 0.58830 -0.52500
O 	O 	0.76750 0.99260 0.01460 -0.39900
