data_crystal

_cell_length_a 10.44500
_cell_length_b 11.11900
_cell_length_c 12.43000
_cell_angle_alpha 103.72600
_cell_angle_beta  106.48700
_cell_angle_gamma 98.39500

_symmetry_space_group_name_	'P 1'
_symmetry_space_group_name_H-M	'P 1'

loop_
_symmetry_equiv_pos_as_xyz
  x,y,z

loop_
_atom_site_label
_atom_site_type_symbol
_atom_site_fract_x
_atom_site_fract_y
_atom_site_fract_z
_atom_site_charge
Ce	Ce	0.09465 0.04501 0.68386 2.10000
Ce	Ce	0.90535 0.95499 0.31614 2.10000
H 	H 	0.00730 0.65200 0.66870 0.07100
H 	H 	0.39060 0.05800 0.63650 0.03900
H 	H 	0.92690 0.61960 0.28860 0.26300
H 	H 	0.17910 0.43400 0.95640 0.26000
H 	H 	0.99270 0.34800 0.33130 0.07100
H 	H 	0.60940 0.94200 0.36350 0.03900
H 	H 	0.07310 0.38040 0.71140 0.26300
H 	H 	0.82090 0.56600 0.04360 0.26000
C 	C 	0.20550 0.96000 0.42520 0.40500
C 	C 	0.94490 0.74630 0.49180 0.42700
C 	C 	0.00420 0.58970 0.60020 -0.07700
C 	C 	0.42420 0.94770 0.38080 0.17300
C 	C 	0.53950 0.39710 0.93910 0.02600
C 	C 	0.36210 0.49380 0.98910 0.19400
C 	C 	0.35700 0.98110 0.46250 -0.13700
C 	C 	0.96780 0.52700 0.39150 0.23000
C 	C 	0.40010 0.39040 0.92820 -0.15000
C 	C 	0.97160 0.61670 0.49340 -0.16600
C 	C 	0.29520 0.27150 0.85340 0.33300
C 	C 	0.43550 0.03390 0.58080 -0.06600
C 	C 	0.79450 0.04000 0.57480 0.40500
C 	C 	0.05510 0.25370 0.50820 0.42700
C 	C 	0.99580 0.41030 0.39980 -0.07700
C 	C 	0.57580 0.05230 0.61920 0.17300
C 	C 	0.46050 0.60290 0.06090 0.02600
C 	C 	0.63790 0.50620 0.01090 0.19400
C 	C 	0.64300 0.01890 0.53750 -0.13700
C 	C 	0.03220 0.47300 0.60850 0.23000
C 	C 	0.59990 0.60960 0.07180 -0.15000
C 	C 	0.02840 0.38330 0.50660 -0.16600
C 	C 	0.70480 0.72850 0.14660 0.33300
C 	C 	0.56450 0.96610 0.41920 -0.06600
O 	O 	0.96120 0.82600 0.58760 -0.53900
O 	O 	0.90770 0.76660 0.39230 -0.49200
O 	O 	0.17150 0.26090 0.85090 -0.44400
O 	O 	0.33270 0.18370 0.79250 -0.45500
O 	O 	0.14550 0.98050 0.50040 -0.59800
O 	O 	0.13770 0.92070 0.31590 -0.44900
O 	O 	0.35620 0.89710 0.26320 -0.17700
O 	O 	0.93790 0.54530 0.28350 -0.39700
O 	O 	0.23340 0.50590 0.98630 -0.37400
O 	O 	0.03880 0.17400 0.41240 -0.53900
O 	O 	0.09230 0.23340 0.60770 -0.49200
O 	O 	0.82850 0.73910 0.14910 -0.44400
O 	O 	0.66730 0.81630 0.20750 -0.45500
O 	O 	0.85450 0.01950 0.49960 -0.59800
O 	O 	0.86230 0.07930 0.68410 -0.44900
O 	O 	0.64380 0.10290 0.73680 -0.17700
O 	O 	0.06210 0.45470 0.71650 -0.39700
O 	O 	0.76660 0.49410 0.01370 -0.37400
