data_crystal

_cell_length_a 19.96100
_cell_length_b 6.08100
_cell_length_c 21.69300
_cell_angle_alpha 90.00000
_cell_angle_beta  92.69400
_cell_angle_gamma 90.00000

_symmetry_space_group_name_	'P 1'
_symmetry_space_group_name_H-M	'P 1'

loop_
_symmetry_equiv_pos_as_xyz
  x,y,z

loop_
_atom_site_label
_atom_site_type_symbol
_atom_site_fract_x
_atom_site_fract_y
_atom_site_fract_z
_atom_site_charge
C 	C 	0.18490 0.94270 0.38450 0.05000
H 	H 	0.15680 0.06370 0.38790 0.00900
C 	C 	0.17430 0.80340 0.33470 -0.06600
H 	H 	0.14040 0.83300 0.30500 0.04300
C 	C 	0.21420 0.62030 0.32949 -0.04600
C 	C 	0.26480 0.58690 0.37540 -0.07100
H 	H 	0.29300 0.46560 0.37370 0.05100
C 	C 	0.27230 0.73480 0.42285 0.03700
H 	H 	0.30600 0.71080 0.45320 0.01300
C 	C 	0.20660 0.46480 0.27690 0.25600
C 	C 	0.15040 0.48630 0.23030 -0.77700
H 	H 	0.12150 0.60420 0.24180 0.25600
H 	H 	0.12540 0.35150 0.22820 0.26400
H 	H 	0.16780 0.51730 0.19070 0.27100
C 	C 	0.12195 0.24840 0.51520 0.36500
C 	C 	0.05898 0.37750 0.50785 -0.13100
C 	C 	0.05761 0.56930 0.47340 -0.11500
H 	H 	0.09650 0.61690 0.45560 0.10300
C 	C 	0.99930 0.69180 0.46510 0.25400
N 	N 	0.23323 0.91200 0.42750 -0.25200
N 	N 	0.25370 0.32290 0.27510 -0.14100
O 	O 	0.17342 0.31950 0.49049 -0.46600
O 	O 	0.12201 0.07430 0.54450 -0.35500
O 	O 	0.00070 0.87740 0.43010 -0.44600
H 	H 	0.96350 0.93490 0.42860 0.29100
C 	C 	0.68490 0.44270 0.88450 0.05000
H 	H 	0.65680 0.56370 0.88790 0.01500
C 	C 	0.67430 0.30340 0.83470 -0.06300
H 	H 	0.64040 0.33300 0.80500 0.04300
C 	C 	0.71420 0.12030 0.82949 -0.04600
C 	C 	0.76480 0.08690 0.87540 -0.06900
H 	H 	0.79300 0.96560 0.87370 0.05400
C 	C 	0.77230 0.23480 0.92285 0.03900
H 	H 	0.80600 0.21080 0.95320 0.02900
C 	C 	0.70660 0.96480 0.77690 0.25600
C 	C 	0.65040 0.98630 0.73030 -0.76400
H 	H 	0.62150 0.10420 0.74180 0.25300
H 	H 	0.62540 0.85150 0.72820 0.26200
H 	H 	0.66780 0.01730 0.69070 0.26700
C 	C 	0.62195 0.74840 0.01520 0.32900
C 	C 	0.55898 0.87750 0.00785 -0.23700
C 	C 	0.55761 0.06930 0.97340 0.02400
H 	H 	0.59650 0.11690 0.95560 0.06700
C 	C 	0.49930 0.19180 0.96510 0.18200
N 	N 	0.73323 0.41200 0.92750 -0.24000
N 	N 	0.75370 0.82290 0.77510 -0.14000
O 	O 	0.67342 0.81950 0.99049 -0.40500
O 	O 	0.62201 0.57430 0.04450 -0.36100
O 	O 	0.50070 0.37740 0.93010 -0.40700
H 	H 	0.46350 0.43490 0.92860 0.28000
C 	C 	0.31510 0.94270 0.61550 0.05000
H 	H 	0.34320 0.06370 0.61210 0.00900
C 	C 	0.32570 0.80340 0.66530 -0.06500
H 	H 	0.35960 0.83300 0.69500 0.04400
C 	C 	0.28580 0.62030 0.67051 -0.04600
C 	C 	0.23520 0.58690 0.62460 -0.07100
H 	H 	0.20700 0.46560 0.62630 0.05100
C 	C 	0.22770 0.73480 0.57715 0.03700
H 	H 	0.19400 0.71080 0.54680 0.01300
C 	C 	0.29340 0.46480 0.72310 0.25900
C 	C 	0.34960 0.48630 0.76970 -0.78400
H 	H 	0.37850 0.60420 0.75820 0.26000
H 	H 	0.37460 0.35150 0.77180 0.26800
H 	H 	0.33220 0.51730 0.80930 0.27500
C 	C 	0.37805 0.24840 0.48480 0.36800
C 	C 	0.44102 0.37750 0.49215 -0.14000
C 	C 	0.44239 0.56930 0.52660 -0.10300
H 	H 	0.40350 0.61690 0.54440 0.09900
C 	C 	0.50070 0.69180 0.53490 0.24200
N 	N 	0.26677 0.91200 0.57250 -0.25200
N 	N 	0.24630 0.32290 0.72490 -0.14200
O 	O 	0.32658 0.31950 0.50951 -0.46700
O 	O 	0.37799 0.07430 0.45550 -0.35600
O 	O 	0.49930 0.87740 0.56990 -0.43700
H 	H 	0.53650 0.93490 0.57140 0.28700
C 	C 	0.81510 0.44270 0.11550 0.04800
H 	H 	0.84320 0.56370 0.11210 0.00600
C 	C 	0.82570 0.30340 0.16530 -0.06900
H 	H 	0.85960 0.33300 0.19500 0.04400
C 	C 	0.78580 0.12030 0.17051 -0.04400
C 	C 	0.73520 0.08690 0.12460 -0.08000
H 	H 	0.70700 0.96560 0.12630 0.05200
C 	C 	0.72770 0.23480 0.07715 0.03900
H 	H 	0.69400 0.21080 0.04680 -0.00300
C 	C 	0.79340 0.96480 0.22310 0.25500
C 	C 	0.84960 0.98630 0.26970 -0.77000
H 	H 	0.87850 0.10420 0.25820 0.25500
H 	H 	0.87460 0.85150 0.27180 0.26400
H 	H 	0.83220 0.01730 0.30930 0.26900
C 	C 	0.87805 0.74840 0.98480 0.40700
C 	C 	0.94102 0.87750 0.99215 -0.05000
C 	C 	0.94239 0.06930 0.02660 -0.21200
H 	H 	0.90350 0.11690 0.04440 0.12500
C 	C 	0.00070 0.19180 0.03490 0.28300
N 	N 	0.76677 0.41200 0.07250 -0.26000
N 	N 	0.74630 0.82290 0.22490 -0.14100
O 	O 	0.82658 0.81950 0.00951 -0.51900
O 	O 	0.87799 0.57430 0.95550 -0.35000
O 	O 	0.99930 0.37740 0.06990 -0.45100
H 	H 	0.03650 0.43490 0.07140 0.28400
C 	C 	0.81510 0.05730 0.61550 0.04900
H 	H 	0.84320 0.93630 0.61210 0.00900
C 	C 	0.82570 0.19660 0.66530 -0.06500
H 	H 	0.85960 0.16700 0.69500 0.04400
C 	C 	0.78580 0.37970 0.67051 -0.04600
C 	C 	0.73520 0.41310 0.62460 -0.07000
H 	H 	0.70700 0.53440 0.62630 0.05100
C 	C 	0.72770 0.26520 0.57715 0.03700
H 	H 	0.69400 0.28920 0.54680 0.01300
C 	C 	0.79340 0.53520 0.72310 0.25900
C 	C 	0.84960 0.51370 0.76970 -0.78400
H 	H 	0.87850 0.39580 0.75820 0.26000
H 	H 	0.87460 0.64850 0.77180 0.26800
H 	H 	0.83220 0.48270 0.80930 0.27500
C 	C 	0.87805 0.75160 0.48480 0.37100
C 	C 	0.94102 0.62250 0.49215 -0.14800
C 	C 	0.94239 0.43070 0.52660 -0.09100
H 	H 	0.90350 0.38310 0.54440 0.09500
C 	C 	0.00070 0.30820 0.53490 0.22900
N 	N 	0.76677 0.08800 0.57250 -0.25200
N 	N 	0.74630 0.67710 0.72490 -0.14200
O 	O 	0.82658 0.68050 0.50951 -0.46700
O 	O 	0.87799 0.92570 0.45550 -0.35700
O 	O 	0.99930 0.12260 0.56990 -0.42800
H 	H 	0.03650 0.06510 0.57140 0.28100
C 	C 	0.31510 0.55730 0.11550 0.04800
H 	H 	0.34320 0.43630 0.11210 0.00500
C 	C 	0.32570 0.69660 0.16530 -0.06900
H 	H 	0.35960 0.66700 0.19500 0.04400
C 	C 	0.28580 0.87970 0.17051 -0.04400
C 	C 	0.23520 0.91310 0.12460 -0.07900
H 	H 	0.20700 0.03440 0.12630 0.05100
C 	C 	0.22770 0.76520 0.07715 0.03800
H 	H 	0.19400 0.78920 0.04680 -0.00300
C 	C 	0.29340 0.03520 0.22310 0.25400
C 	C 	0.34960 0.01370 0.26970 -0.76900
H 	H 	0.37850 0.89580 0.25820 0.25400
H 	H 	0.37460 0.14850 0.27180 0.26300
H 	H 	0.33220 0.98270 0.30930 0.26900
C 	C 	0.37805 0.25160 0.98480 0.40700
C 	C 	0.44102 0.12250 0.99215 -0.04000
C 	C 	0.44239 0.93070 0.02660 -0.23300
H 	H 	0.40350 0.88310 0.04440 0.13100
C 	C 	0.50070 0.80820 0.03490 0.30200
N 	N 	0.26677 0.58800 0.07250 -0.26100
N 	N 	0.24630 0.17710 0.22490 -0.14100
O 	O 	0.32658 0.18050 0.00951 -0.52100
O 	O 	0.37799 0.42570 0.95550 -0.34900
O 	O 	0.49930 0.62260 0.06990 -0.46700
H 	H 	0.53650 0.56510 0.07140 0.29200
C 	C 	0.68490 0.05730 0.38450 0.04800
H 	H 	0.65680 0.93630 0.38790 0.01000
C 	C 	0.67430 0.19660 0.33470 -0.06500
H 	H 	0.64040 0.16700 0.30500 0.04300
C 	C 	0.71420 0.37970 0.32949 -0.04600
C 	C 	0.76480 0.41310 0.37540 -0.07100
H 	H 	0.79300 0.53440 0.37370 0.05100
C 	C 	0.77230 0.26520 0.42285 0.03700
H 	H 	0.80600 0.28920 0.45320 0.01300
C 	C 	0.70660 0.53520 0.27690 0.25700
C 	C 	0.65040 0.51370 0.23030 -0.77900
H 	H 	0.62150 0.39580 0.24180 0.25800
H 	H 	0.62540 0.64850 0.22820 0.26600
H 	H 	0.66780 0.48270 0.19070 0.27200
C 	C 	0.62195 0.75160 0.51520 0.36800
C 	C 	0.55898 0.62250 0.50785 -0.13900
C 	C 	0.55761 0.43070 0.47340 -0.10300
H 	H 	0.59650 0.38310 0.45560 0.09900
C 	C 	0.49930 0.30820 0.46510 0.24200
N 	N 	0.73323 0.08800 0.42750 -0.25200
N 	N 	0.75370 0.67710 0.27510 -0.14100
O 	O 	0.67342 0.68050 0.49049 -0.46600
O 	O 	0.62201 0.92570 0.54450 -0.35600
O 	O 	0.50070 0.12260 0.43010 -0.43700
H 	H 	0.46350 0.06510 0.42860 0.28700
C 	C 	0.18490 0.55730 0.88450 0.05000
H 	H 	0.15680 0.43630 0.88790 0.01500
C 	C 	0.17430 0.69660 0.83470 -0.06300
H 	H 	0.14040 0.66700 0.80500 0.04300
C 	C 	0.21420 0.87970 0.82949 -0.04700
C 	C 	0.26480 0.91310 0.87540 -0.06700
H 	H 	0.29300 0.03440 0.87370 0.05300
C 	C 	0.27230 0.76520 0.92285 0.03800
H 	H 	0.30600 0.78920 0.95320 0.03000
C 	C 	0.20660 0.03520 0.77690 0.25600
C 	C 	0.15040 0.01370 0.73030 -0.76900
H 	H 	0.12150 0.89580 0.74180 0.25400
H 	H 	0.12540 0.14850 0.72820 0.26300
H 	H 	0.16780 0.98270 0.69070 0.26900
C 	C 	0.12195 0.25160 0.01520 0.32400
C 	C 	0.05898 0.12250 0.00785 -0.23100
C 	C 	0.05761 0.93070 0.97340 0.02000
H 	H 	0.09650 0.88310 0.95560 0.06900
C 	C 	0.99930 0.80820 0.96510 0.18700
N 	N 	0.23323 0.58800 0.92750 -0.23900
N 	N 	0.25370 0.17710 0.77510 -0.14100
O 	O 	0.17342 0.18050 0.99049 -0.40200
O 	O 	0.12201 0.42570 0.04450 -0.35900
O 	O 	0.00070 0.62260 0.93010 -0.41000
H 	H 	0.96350 0.56510 0.92860 0.28200
Zn	Zn	0.25000 0.12138 0.50000 1.21100
Zn	Zn	0.75000 0.62138 -0.00000 1.19400
Zn	Zn	0.75000 0.87862 0.50000 1.21100
Zn	Zn	0.25000 0.37862 -0.00000 1.19400
