data_crystal

_cell_length_a 17.35000
_cell_length_b 17.35000
_cell_length_c 17.35000
_cell_angle_alpha 90.00000
_cell_angle_beta  90.00000
_cell_angle_gamma 90.00000

_symmetry_space_group_name_	'P 1'
_symmetry_space_group_name_H-M	'P 1'

loop_
_symmetry_equiv_pos_as_xyz
  x,y,z

loop_
_atom_site_label
_atom_site_type_symbol
_atom_site_fract_x
_atom_site_fract_y
_atom_site_fract_z
_atom_site_charge
C 	C 	0.63200 0.10790 0.77980 0.06900
C 	C 	0.67960 0.04350 0.77920 -0.13300
H 	H 	0.71460 0.03640 0.73920 0.05600
C 	C 	0.67490 0.98970 0.83830 0.02700
H 	H 	0.70680 0.94660 0.83800 0.00500
C 	C 	0.62260 0.00020 0.89810 -0.10500
H 	H 	0.61940 0.96420 0.93760 0.05500
C 	C 	0.57490 0.06460 0.89860 0.02800
H 	H 	0.53990 0.07170 0.93860 0.01700
C 	C 	0.57960 0.11850 0.83950 -0.12400
H 	H 	0.54770 0.16150 0.83980 0.07400
S 	S 	0.63529 0.17992 0.70924 -0.12600
H 	H 	0.67170 0.09040 0.61620 0.03300
C 	C 	0.86800 0.89210 0.27980 0.07200
C 	C 	0.82040 0.95650 0.27920 -0.13500
H 	H 	0.78540 0.96360 0.23920 0.05800
C 	C 	0.82510 0.01030 0.33830 0.03200
H 	H 	0.79320 0.05340 0.33800 0.00400
C 	C 	0.87740 0.99980 0.39810 -0.11000
H 	H 	0.88060 0.03580 0.43760 0.05700
C 	C 	0.92510 0.93540 0.39860 0.03100
H 	H 	0.96010 0.92830 0.43860 0.01500
C 	C 	0.92040 0.88150 0.33950 -0.12600
H 	H 	0.95230 0.83850 0.33980 0.07500
S 	S 	0.86471 0.82008 0.20924 -0.12600
H 	H 	0.82830 0.90960 0.11620 0.03300
C 	C 	0.36800 0.60790 0.72020 0.07200
C 	C 	0.32040 0.54350 0.72080 -0.13500
H 	H 	0.28540 0.53640 0.76080 0.05800
C 	C 	0.32510 0.48970 0.66170 0.03300
H 	H 	0.29320 0.44660 0.66200 0.00400
C 	C 	0.37740 0.50020 0.60190 -0.11100
H 	H 	0.38060 0.46420 0.56240 0.05700
C 	C 	0.42510 0.56460 0.60140 0.03200
H 	H 	0.46010 0.57170 0.56140 0.01500
C 	C 	0.42040 0.61850 0.66050 -0.12600
H 	H 	0.45230 0.66150 0.66020 0.07500
S 	S 	0.36471 0.67992 0.79076 -0.12700
H 	H 	0.32830 0.59040 0.88380 0.03300
C 	C 	0.13200 0.39210 0.22020 0.07200
C 	C 	0.17960 0.45650 0.22080 -0.13500
H 	H 	0.21460 0.46360 0.26080 0.05800
C 	C 	0.17490 0.51030 0.16170 0.03300
H 	H 	0.20680 0.55340 0.16200 0.00400
C 	C 	0.12260 0.49980 0.10190 -0.11100
H 	H 	0.11940 0.53580 0.06240 0.05700
C 	C 	0.07490 0.43540 0.10140 0.03100
H 	H 	0.03990 0.42830 0.06140 0.01400
C 	C 	0.07960 0.38150 0.16050 -0.12700
H 	H 	0.04770 0.33850 0.16020 0.07500
S 	S 	0.13529 0.32008 0.29076 -0.12700
H 	H 	0.17170 0.40960 0.38380 0.03200
C 	C 	0.77980 0.63200 0.10790 0.07000
C 	C 	0.77920 0.67960 0.04350 -0.13200
H 	H 	0.73920 0.71460 0.03640 0.05700
C 	C 	0.83830 0.67490 0.98970 0.02800
H 	H 	0.83800 0.70680 0.94660 0.00500
C 	C 	0.89810 0.62260 0.00020 -0.10500
H 	H 	0.93760 0.61940 0.96420 0.05500
C 	C 	0.89860 0.57490 0.06460 0.02800
H 	H 	0.93860 0.53990 0.07170 0.01700
C 	C 	0.83950 0.57960 0.11850 -0.12400
H 	H 	0.83980 0.54770 0.16150 0.07400
S 	S 	0.70924 0.63529 0.17992 -0.12600
H 	H 	0.61620 0.67170 0.09040 0.03300
C 	C 	0.27980 0.86800 0.89210 0.07200
C 	C 	0.27920 0.82040 0.95650 -0.13500
H 	H 	0.23920 0.78540 0.96360 0.05800
C 	C 	0.33830 0.82510 0.01030 0.03200
H 	H 	0.33800 0.79320 0.05340 0.00400
C 	C 	0.39810 0.87740 0.99980 -0.11000
H 	H 	0.43760 0.88060 0.03580 0.05700
C 	C 	0.39860 0.92510 0.93540 0.03100
H 	H 	0.43860 0.96010 0.92830 0.01500
C 	C 	0.33950 0.92040 0.88150 -0.12600
H 	H 	0.33980 0.95230 0.83850 0.07500
S 	S 	0.20924 0.86471 0.82008 -0.12600
H 	H 	0.11620 0.82830 0.90960 0.03300
C 	C 	0.72020 0.36800 0.60790 0.07200
C 	C 	0.72080 0.32040 0.54350 -0.13500
H 	H 	0.76080 0.28540 0.53640 0.05800
C 	C 	0.66170 0.32510 0.48970 0.03300
H 	H 	0.66200 0.29320 0.44660 0.00400
C 	C 	0.60190 0.37740 0.50020 -0.11100
H 	H 	0.56240 0.38060 0.46420 0.05700
C 	C 	0.60140 0.42510 0.56460 0.03200
H 	H 	0.56140 0.46010 0.57170 0.01500
C 	C 	0.66050 0.42040 0.61850 -0.12600
H 	H 	0.66020 0.45230 0.66150 0.07500
S 	S 	0.79076 0.36471 0.67992 -0.12700
H 	H 	0.88380 0.32830 0.59040 0.03300
C 	C 	0.22020 0.13200 0.39210 0.07200
C 	C 	0.22080 0.17960 0.45650 -0.13500
H 	H 	0.26080 0.21460 0.46360 0.05800
C 	C 	0.16170 0.17490 0.51030 0.03300
H 	H 	0.16200 0.20680 0.55340 0.00400
C 	C 	0.10190 0.12260 0.49980 -0.11100
H 	H 	0.06240 0.11940 0.53580 0.05700
C 	C 	0.10140 0.07490 0.43540 0.03100
H 	H 	0.06140 0.03990 0.42830 0.01400
C 	C 	0.16050 0.07960 0.38150 -0.12700
H 	H 	0.16020 0.04770 0.33850 0.07500
S 	S 	0.29076 0.13529 0.32008 -0.12700
H 	H 	0.38380 0.17170 0.40960 0.03200
C 	C 	0.10790 0.77980 0.63200 0.07000
C 	C 	0.04350 0.77920 0.67960 -0.13200
H 	H 	0.03640 0.73920 0.71460 0.05700
C 	C 	0.98970 0.83830 0.67490 0.02800
H 	H 	0.94660 0.83800 0.70680 0.00500
C 	C 	0.00020 0.89810 0.62260 -0.10500
H 	H 	0.96420 0.93760 0.61940 0.05500
C 	C 	0.06460 0.89860 0.57490 0.02800
H 	H 	0.07170 0.93860 0.53990 0.01700
C 	C 	0.11850 0.83950 0.57960 -0.12400
H 	H 	0.16150 0.83980 0.54770 0.07400
S 	S 	0.17992 0.70924 0.63529 -0.12600
H 	H 	0.09040 0.61620 0.67170 0.03300
C 	C 	0.89210 0.27980 0.86800 0.07200
C 	C 	0.95650 0.27920 0.82040 -0.13500
H 	H 	0.96360 0.23920 0.78540 0.05800
C 	C 	0.01030 0.33830 0.82510 0.03200
H 	H 	0.05340 0.33800 0.79320 0.00400
C 	C 	0.99980 0.39810 0.87740 -0.11000
H 	H 	0.03580 0.43760 0.88060 0.05700
C 	C 	0.93540 0.39860 0.92510 0.03100
H 	H 	0.92830 0.43860 0.96010 0.01500
C 	C 	0.88150 0.33950 0.92040 -0.12600
H 	H 	0.83850 0.33980 0.95230 0.07500
S 	S 	0.82008 0.20924 0.86471 -0.12600
H 	H 	0.90960 0.11620 0.82830 0.03300
C 	C 	0.60790 0.72020 0.36800 0.07200
C 	C 	0.54350 0.72080 0.32040 -0.13500
H 	H 	0.53640 0.76080 0.28540 0.05800
C 	C 	0.48970 0.66170 0.32510 0.03300
H 	H 	0.44660 0.66200 0.29320 0.00400
C 	C 	0.50020 0.60190 0.37740 -0.11100
H 	H 	0.46420 0.56240 0.38060 0.05700
C 	C 	0.56460 0.60140 0.42510 0.03200
H 	H 	0.57170 0.56140 0.46010 0.01500
C 	C 	0.61850 0.66050 0.42040 -0.12600
H 	H 	0.66150 0.66020 0.45230 0.07500
S 	S 	0.67992 0.79076 0.36471 -0.12700
H 	H 	0.59040 0.88380 0.32830 0.03300
C 	C 	0.39210 0.22020 0.13200 0.07200
C 	C 	0.45650 0.22080 0.17960 -0.13500
H 	H 	0.46360 0.26080 0.21460 0.05800
C 	C 	0.51030 0.16170 0.17490 0.03300
H 	H 	0.55340 0.16200 0.20680 0.00400
C 	C 	0.49980 0.10190 0.12260 -0.11100
H 	H 	0.53580 0.06240 0.11940 0.05700
C 	C 	0.43540 0.10140 0.07490 0.03100
H 	H 	0.42830 0.06140 0.03990 0.01400
C 	C 	0.38150 0.16050 0.07960 -0.12700
H 	H 	0.33850 0.16020 0.04770 0.07500
S 	S 	0.32008 0.29076 0.13529 -0.12700
H 	H 	0.40960 0.38380 0.17170 0.03200
C 	C 	0.35790 0.38200 0.97020 0.07200
C 	C 	0.29350 0.42960 0.97080 -0.13200
H 	H 	0.28640 0.46460 0.01080 0.05700
C 	C 	0.23970 0.42490 0.91170 0.03100
H 	H 	0.19660 0.45680 0.91200 0.00500
C 	C 	0.25020 0.37260 0.85190 -0.10900
H 	H 	0.21420 0.36940 0.81240 0.05700
C 	C 	0.31460 0.32490 0.85140 0.03100
H 	H 	0.32170 0.28990 0.81140 0.01500
C 	C 	0.36850 0.32960 0.91050 -0.12600
H 	H 	0.41150 0.29770 0.91020 0.07500
S 	S 	0.42992 0.38529 0.04076 -0.12700
H 	H 	0.34040 0.42170 0.13380 0.03200
C 	C 	0.14210 0.61800 0.47020 0.07200
C 	C 	0.20650 0.57040 0.47080 -0.13500
H 	H 	0.21360 0.53540 0.51080 0.05800
C 	C 	0.26030 0.57510 0.41170 0.03300
H 	H 	0.30340 0.54320 0.41200 0.00400
C 	C 	0.24980 0.62740 0.35190 -0.11100
H 	H 	0.28580 0.63060 0.31240 0.05700
C 	C 	0.18540 0.67510 0.35140 0.03100
H 	H 	0.17830 0.71010 0.31140 0.01500
C 	C 	0.13150 0.67040 0.41050 -0.12600
H 	H 	0.08850 0.70230 0.41020 0.07500
S 	S 	0.07008 0.61471 0.54076 -0.12700
H 	H 	0.15960 0.57830 0.63380 0.03200
C 	C 	0.85790 0.11800 0.02980 0.07300
C 	C 	0.79350 0.07040 0.02920 -0.13800
H 	H 	0.78640 0.03540 0.98920 0.06000
C 	C 	0.73970 0.07510 0.08830 0.03500
H 	H 	0.69660 0.04320 0.08800 0.00300
C 	C 	0.75020 0.12740 0.14810 -0.11200
H 	H 	0.71420 0.13060 0.18760 0.05800
C 	C 	0.81460 0.17510 0.14860 0.03300
H 	H 	0.82170 0.21010 0.18860 0.01500
C 	C 	0.86850 0.17040 0.08950 -0.12700
H 	H 	0.91150 0.20230 0.08980 0.07600
S 	S 	0.92992 0.11471 0.95924 -0.12600
H 	H 	0.84040 0.07830 0.86620 0.03300
C 	C 	0.64210 0.88200 0.52980 0.07200
C 	C 	0.70650 0.92960 0.52920 -0.13500
H 	H 	0.71360 0.96460 0.48920 0.05800
C 	C 	0.76030 0.92490 0.58830 0.03300
H 	H 	0.80340 0.95680 0.58800 0.00400
C 	C 	0.74980 0.87260 0.64810 -0.11100
H 	H 	0.78580 0.86940 0.68760 0.05700
C 	C 	0.68540 0.82490 0.64860 0.03100
H 	H 	0.67830 0.78990 0.68860 0.01500
C 	C 	0.63150 0.82960 0.58950 -0.12600
H 	H 	0.58850 0.79770 0.58980 0.07500
S 	S 	0.57008 0.88529 0.45924 -0.12600
H 	H 	0.65960 0.92170 0.36620 0.03300
C 	C 	0.88200 0.52980 0.64210 0.07200
C 	C 	0.92960 0.52920 0.70650 -0.13500
H 	H 	0.96460 0.48920 0.71360 0.05800
C 	C 	0.92490 0.58830 0.76030 0.03300
H 	H 	0.95680 0.58800 0.80340 0.00400
C 	C 	0.87260 0.64810 0.74980 -0.11100
H 	H 	0.86940 0.68760 0.78580 0.05700
C 	C 	0.82490 0.64860 0.68540 0.03100
H 	H 	0.78990 0.68860 0.67830 0.01500
C 	C 	0.82960 0.58950 0.63150 -0.12600
H 	H 	0.79770 0.58980 0.58850 0.07500
S 	S 	0.88529 0.45924 0.57008 -0.12600
H 	H 	0.92170 0.36620 0.65960 0.03300
C 	C 	0.11800 0.02980 0.85790 0.07300
C 	C 	0.07040 0.02920 0.79350 -0.13800
H 	H 	0.03540 0.98920 0.78640 0.06000
C 	C 	0.07510 0.08830 0.73970 0.03500
H 	H 	0.04320 0.08800 0.69660 0.00300
C 	C 	0.12740 0.14810 0.75020 -0.11200
H 	H 	0.13060 0.18760 0.71420 0.05800
C 	C 	0.17510 0.14860 0.81460 0.03300
H 	H 	0.21010 0.18860 0.82170 0.01500
C 	C 	0.17040 0.08950 0.86850 -0.12700
H 	H 	0.20230 0.08980 0.91150 0.07600
S 	S 	0.11471 0.95924 0.92992 -0.12600
H 	H 	0.07830 0.86620 0.84040 0.03300
C 	C 	0.61800 0.47020 0.14210 0.07200
C 	C 	0.57040 0.47080 0.20650 -0.13500
H 	H 	0.53540 0.51080 0.21360 0.05800
C 	C 	0.57510 0.41170 0.26030 0.03300
H 	H 	0.54320 0.41200 0.30340 0.00400
C 	C 	0.62740 0.35190 0.24980 -0.11100
H 	H 	0.63060 0.31240 0.28580 0.05700
C 	C 	0.67510 0.35140 0.18540 0.03100
H 	H 	0.71010 0.31140 0.17830 0.01500
C 	C 	0.67040 0.41050 0.13150 -0.12600
H 	H 	0.70230 0.41020 0.08850 0.07500
S 	S 	0.61471 0.54076 0.07008 -0.12700
H 	H 	0.57830 0.63380 0.15960 0.03200
C 	C 	0.38200 0.97020 0.35790 0.07200
C 	C 	0.42960 0.97080 0.29350 -0.13200
H 	H 	0.46460 0.01080 0.28640 0.05700
C 	C 	0.42490 0.91170 0.23970 0.03100
H 	H 	0.45680 0.91200 0.19660 0.00500
C 	C 	0.37260 0.85190 0.25020 -0.10900
H 	H 	0.36940 0.81240 0.21420 0.05700
C 	C 	0.32490 0.85140 0.31460 0.03100
H 	H 	0.28990 0.81140 0.32170 0.01500
C 	C 	0.32960 0.91050 0.36850 -0.12600
H 	H 	0.29770 0.91020 0.41150 0.07500
S 	S 	0.38529 0.04076 0.42992 -0.12700
H 	H 	0.42170 0.13380 0.34040 0.03200
C 	C 	0.02980 0.85790 0.11800 0.07300
C 	C 	0.02920 0.79350 0.07040 -0.13800
H 	H 	0.98920 0.78640 0.03540 0.06000
C 	C 	0.08830 0.73970 0.07510 0.03500
H 	H 	0.08800 0.69660 0.04320 0.00300
C 	C 	0.14810 0.75020 0.12740 -0.11200
H 	H 	0.18760 0.71420 0.13060 0.05800
C 	C 	0.14860 0.81460 0.17510 0.03300
H 	H 	0.18860 0.82170 0.21010 0.01500
C 	C 	0.08950 0.86850 0.17040 -0.12700
H 	H 	0.08980 0.91150 0.20230 0.07600
S 	S 	0.95924 0.92992 0.11471 -0.12600
H 	H 	0.86620 0.84040 0.07830 0.03300
C 	C 	0.52980 0.64210 0.88200 0.07200
C 	C 	0.52920 0.70650 0.92960 -0.13500
H 	H 	0.48920 0.71360 0.96460 0.05800
C 	C 	0.58830 0.76030 0.92490 0.03300
H 	H 	0.58800 0.80340 0.95680 0.00400
C 	C 	0.64810 0.74980 0.87260 -0.11100
H 	H 	0.68760 0.78580 0.86940 0.05700
C 	C 	0.64860 0.68540 0.82490 0.03100
H 	H 	0.68860 0.67830 0.78990 0.01500
C 	C 	0.58950 0.63150 0.82960 -0.12600
H 	H 	0.58980 0.58850 0.79770 0.07500
S 	S 	0.45924 0.57008 0.88529 -0.12600
H 	H 	0.36620 0.65960 0.92170 0.03300
C 	C 	0.97020 0.35790 0.38200 0.07200
C 	C 	0.97080 0.29350 0.42960 -0.13200
H 	H 	0.01080 0.28640 0.46460 0.05700
C 	C 	0.91170 0.23970 0.42490 0.03100
H 	H 	0.91200 0.19660 0.45680 0.00500
C 	C 	0.85190 0.25020 0.37260 -0.10900
H 	H 	0.81240 0.21420 0.36940 0.05700
C 	C 	0.85140 0.31460 0.32490 0.03100
H 	H 	0.81140 0.32170 0.28990 0.01500
C 	C 	0.91050 0.36850 0.32960 -0.12600
H 	H 	0.91020 0.41150 0.29770 0.07500
S 	S 	0.04076 0.42992 0.38529 -0.12700
H 	H 	0.13380 0.34040 0.42170 0.03200
C 	C 	0.47020 0.14210 0.61800 0.07200
C 	C 	0.47080 0.20650 0.57040 -0.13500
H 	H 	0.51080 0.21360 0.53540 0.05800
C 	C 	0.41170 0.26030 0.57510 0.03300
H 	H 	0.41200 0.30340 0.54320 0.00400
C 	C 	0.35190 0.24980 0.62740 -0.11100
H 	H 	0.31240 0.28580 0.63060 0.05700
C 	C 	0.35140 0.18540 0.67510 0.03100
H 	H 	0.31140 0.17830 0.71010 0.01500
C 	C 	0.41050 0.13150 0.67040 -0.12600
H 	H 	0.41020 0.08850 0.70230 0.07500
S 	S 	0.54076 0.07008 0.61471 -0.12700
H 	H 	0.63380 0.15960 0.57830 0.03200
Ag	Ag	0.77358 0.22642 0.72642 0.49300
Ag	Ag	0.72642 0.77358 0.22642 0.49300
Ag	Ag	0.22642 0.72642 0.77358 0.49300
Ag	Ag	0.27358 0.27358 0.27358 0.49300
Ag	Ag	0.47642 0.52358 0.02358 0.49300
Ag	Ag	0.02358 0.47642 0.52358 0.49300
Ag	Ag	0.97642 0.97642 0.97642 0.49200
Ag	Ag	0.52358 0.02358 0.47642 0.49300
C 	C 	0.62860 0.12500 0.62140 -0.08800
C 	C 	0.87140 0.87500 0.12140 -0.08800
C 	C 	0.37140 0.62500 0.87860 -0.08800
C 	C 	0.12860 0.37500 0.37860 -0.08700
C 	C 	0.62140 0.62860 0.12500 -0.08800
C 	C 	0.12140 0.87140 0.87500 -0.08800
C 	C 	0.87860 0.37140 0.62500 -0.08800
C 	C 	0.37860 0.12860 0.37500 -0.08700
C 	C 	0.12500 0.62140 0.62860 -0.08800
C 	C 	0.87500 0.12140 0.87140 -0.08800
C 	C 	0.62500 0.87860 0.37140 -0.08800
C 	C 	0.37500 0.37860 0.12860 -0.08700
