data_crystal

_cell_length_a 14.06520
_cell_length_b 5.86010
_cell_length_c 21.26800
_cell_angle_alpha 90.00000
_cell_angle_beta  95.21300
_cell_angle_gamma 90.00000

_symmetry_space_group_name_	'P 1'
_symmetry_space_group_name_H-M	'P 1'

loop_
_symmetry_equiv_pos_as_xyz
  x,y,z

loop_
_atom_site_label
_atom_site_type_symbol
_atom_site_fract_x
_atom_site_fract_y
_atom_site_fract_z
_atom_site_charge
Ba	Ba	0.12166 0.23277 0.75397 2.02200
S 	S 	0.58164 0.96610 0.87830 0.32000
O 	O 	0.97700 0.51160 0.77900 -0.50500
O 	O 	0.70630 0.93710 0.19030 -0.65600
O 	O 	0.51030 0.80410 0.85370 -0.37500
O 	O 	0.02420 0.87660 0.78700 -0.55600
O 	O 	0.69060 0.56490 0.17150 -0.58900
O 	O 	0.56650 0.20600 0.86990 -0.26600
C 	C 	0.96400 0.71810 0.78960 0.46300
C 	C 	0.86710 0.78120 0.81010 -0.18200
C 	C 	0.85140 0.99660 0.83380 0.05700
H 	H 	0.90060 0.10310 0.83610 -0.01600
C 	C 	0.76470 0.05710 0.85400 -0.10200
H 	H 	0.75460 0.20100 0.87060 0.06300
C 	C 	0.79360 0.62610 0.80480 0.06100
H 	H 	0.80390 0.48210 0.78840 0.01800
C 	C 	0.70690 0.67840 0.82300 -0.10100
H 	H 	0.65730 0.57300 0.81850 0.06700
C 	C 	0.69270 0.89340 0.84860 -0.00800
C 	C 	0.68280 0.76590 0.15490 0.42700
C 	C 	0.65220 0.82190 0.08600 -0.19300
C 	C 	0.66470 0.03910 0.06240 0.07300
H 	H 	0.68900 0.15470 0.08920 -0.03000
C 	C 	0.64130 0.08400 -0.00000 -0.09800
H 	H 	0.65040 0.22940 0.98400 0.05800
C 	C 	0.60400 0.91110 0.96020 0.00100
C 	C 	0.59000 0.69360 0.98260 -0.12600
H 	H 	0.56550 0.57830 0.95580 0.08400
C 	C 	0.61400 0.65250 0.04670 0.08200
H 	H 	0.60400 0.50830 0.06310 -0.00100
Ba	Ba	0.37834 0.73277 0.74603 2.02700
S 	S 	0.91836 0.46610 0.62170 0.31200
O 	O 	0.52300 0.01160 0.72100 -0.50700
O 	O 	0.79370 0.43710 0.30970 -0.65800
O 	O 	0.98970 0.30410 0.64630 -0.37100
O 	O 	0.47580 0.37660 0.71300 -0.55900
O 	O 	0.80940 0.06490 0.32850 -0.58900
O 	O 	0.93350 0.70600 0.63010 -0.26700
C 	C 	0.53600 0.21810 0.71040 0.47300
C 	C 	0.63290 0.28120 0.68990 -0.20300
C 	C 	0.64860 0.49660 0.66620 0.09100
H 	H 	0.59940 0.60310 0.66390 -0.03000
C 	C 	0.73530 0.55710 0.64600 -0.13300
H 	H 	0.74540 0.70100 0.62940 0.07400
C 	C 	0.70640 0.12610 0.69520 0.08800
H 	H 	0.69610 0.98210 0.71160 0.00600
C 	C 	0.79310 0.17840 0.67700 -0.12400
H 	H 	0.84270 0.07300 0.68150 0.07600
C 	C 	0.80730 0.39340 0.65140 0.01300
C 	C 	0.81720 0.26590 0.34510 0.42900
C 	C 	0.84780 0.32190 0.41400 -0.20000
C 	C 	0.83530 0.53910 0.43760 0.09200
H 	H 	0.81100 0.65470 0.41080 -0.03800
C 	C 	0.85870 0.58400 0.50000 -0.13400
H 	H 	0.84960 0.72940 0.51600 0.07400
C 	C 	0.89600 0.41110 0.53980 0.02000
C 	C 	0.91000 0.19360 0.51740 -0.12600
H 	H 	0.93450 0.07830 0.54420 0.08600
C 	C 	0.88600 0.15250 0.45330 0.07900
H 	H 	0.89600 0.00830 0.43690 -0.00000
Ba	Ba	0.87834 0.76723 0.24603 2.02500
S 	S 	0.41836 0.03390 0.12170 0.32200
O 	O 	0.02300 0.48840 0.22100 -0.50500
O 	O 	0.29370 0.06290 0.80970 -0.65600
O 	O 	0.48970 0.19590 0.14630 -0.37500
O 	O 	0.97580 0.12340 0.21300 -0.55500
O 	O 	0.30940 0.43510 0.82850 -0.58800
O 	O 	0.43350 0.79400 0.13010 -0.26500
C 	C 	0.03600 0.28190 0.21040 0.46200
C 	C 	0.13290 0.21880 0.18990 -0.17900
C 	C 	0.14860 0.00340 0.16620 0.05400
H 	H 	0.09940 0.89690 0.16390 -0.01400
C 	C 	0.23530 0.94290 0.14600 -0.09800
H 	H 	0.24540 0.79900 0.12940 0.06300
C 	C 	0.20640 0.37390 0.19520 0.05900
H 	H 	0.19610 0.51790 0.21160 0.01800
C 	C 	0.29310 0.32160 0.17700 -0.09800
H 	H 	0.34270 0.42700 0.18150 0.06600
C 	C 	0.30730 0.10660 0.15140 -0.01000
C 	C 	0.31720 0.23410 0.84510 0.42100
C 	C 	0.34780 0.17810 0.91400 -0.17700
C 	C 	0.33530 0.96090 0.93760 0.05500
H 	H 	0.31100 0.84530 0.91080 -0.02600
C 	C 	0.35870 0.91600 -0.00000 -0.09400
H 	H 	0.34960 0.77060 0.01600 0.06400
C 	C 	0.39600 0.08890 0.03980 -0.00400
C 	C 	0.41000 0.30640 0.01740 -0.09100
H 	H 	0.43450 0.42170 0.04420 0.07500
C 	C 	0.38600 0.34750 0.95330 0.04500
H 	H 	0.39600 0.49170 0.93690 0.00900
Ba	Ba	0.62166 0.26723 0.25397 2.02800
S 	S 	0.08164 0.53390 0.37830 0.31200
O 	O 	0.47700 0.98840 0.27900 -0.50700
O 	O 	0.20630 0.56290 0.69030 -0.65700
O 	O 	0.01030 0.69590 0.35370 -0.37200
O 	O 	0.52420 0.62340 0.28700 -0.55900
O 	O 	0.19060 0.93510 0.67150 -0.58900
O 	O 	0.06650 0.29400 0.36990 -0.26700
C 	C 	0.46400 0.78190 0.28960 0.47300
C 	C 	0.36710 0.71880 0.31010 -0.20300
C 	C 	0.35140 0.50340 0.33380 0.09200
H 	H 	0.40060 0.39690 0.33610 -0.03000
C 	C 	0.26470 0.44290 0.35400 -0.13300
H 	H 	0.25460 0.29900 0.37060 0.07400
C 	C 	0.29360 0.87390 0.30480 0.09000
H 	H 	0.30390 0.01790 0.28840 0.00500
C 	C 	0.20690 0.82160 0.32300 -0.12500
H 	H 	0.15730 0.92700 0.31850 0.07600
C 	C 	0.19270 0.60660 0.34860 0.01300
C 	C 	0.18280 0.73410 0.65490 0.42900
C 	C 	0.15220 0.67810 0.58600 -0.19900
C 	C 	0.16470 0.46090 0.56240 0.09100
H 	H 	0.18900 0.34530 0.58920 -0.03700
C 	C 	0.14130 0.41600 0.50000 -0.13400
H 	H 	0.15040 0.27060 0.48400 0.07400
C 	C 	0.10400 0.58890 0.46020 0.02000
C 	C 	0.09000 0.80640 0.48260 -0.12600
H 	H 	0.06550 0.92170 0.45580 0.08600
C 	C 	0.11400 0.84750 0.54670 0.07900
H 	H 	0.10400 0.99170 0.56310 -0.00000
