data_crystal

_cell_length_a 7.02750
_cell_length_b 18.13900
_cell_length_c 24.70400
_cell_angle_alpha 90.00000
_cell_angle_beta  90.00000
_cell_angle_gamma 99.86000

_symmetry_space_group_name_	'P 1'
_symmetry_space_group_name_H-M	'P 1'

loop_
_symmetry_equiv_pos_as_xyz
  x,y,z

loop_
_atom_site_label
_atom_site_type_symbol
_atom_site_fract_x
_atom_site_fract_y
_atom_site_fract_z
_atom_site_charge
Nd	Nd	0.27833 0.48400 0.59913 1.94400
Nd	Nd	0.72167 0.51600 0.09913 1.95100
Nd	Nd	0.72167 0.51600 0.40087 1.94900
Nd	Nd	0.27833 0.48400 0.90087 1.94300
Cu	Cu	0.12083 0.95596 0.50757 0.75800
Cu	Cu	0.67291 0.93955 0.58061 0.78400
Cu	Cu	0.74959 0.05335 0.68422 0.78300
Cu	Cu	0.87917 0.04404 0.00757 0.79100
Cu	Cu	0.32709 0.06045 0.08061 0.80800
Cu	Cu	0.25041 0.94665 0.18422 0.75900
Cu	Cu	0.87917 0.04404 0.49243 0.78900
Cu	Cu	0.32709 0.06045 0.41939 0.80800
Cu	Cu	0.25041 0.94665 0.31578 0.75900
Cu	Cu	0.12083 0.95596 0.99243 0.75300
Cu	Cu	0.67291 0.93955 0.91939 0.78100
Cu	Cu	0.74959 0.05335 0.81578 0.78300
Cu	Cu	0.72838 0.93434 0.75000 0.74600
Cu	Cu	0.27162 0.06566 0.25000 0.76500
H 	H 	0.08480 0.85820 0.60470 -0.01100
H 	H 	0.10110 0.73620 0.62840 0.07300
H 	H 	0.20220 0.69510 0.47220 0.05400
H 	H 	0.17790 0.81700 0.45230 -0.00700
H 	H 	0.60530 0.79250 0.63740 0.01000
H 	H 	0.59450 0.66760 0.62110 0.01300
H 	H 	0.69450 0.71800 0.46420 0.03300
H 	H 	0.69280 0.84130 0.48460 -0.00700
H 	H 	0.39280 0.10520 0.65330 0.03500
H 	H 	0.27340 0.21360 0.63840 0.05900
H 	H 	0.80630 0.32960 0.66180 0.02900
H 	H 	0.90590 0.21810 0.67960 0.00300
H 	H 	0.91520 0.14180 0.10470 -0.00000
H 	H 	0.89890 0.26380 0.12840 0.07600
H 	H 	0.79780 0.30490 0.97220 0.05800
H 	H 	0.82210 0.18300 0.95230 -0.00400
H 	H 	0.39470 0.20750 0.13740 0.00600
H 	H 	0.40550 0.33240 0.12110 0.01800
H 	H 	0.30550 0.28200 0.96420 0.04800
H 	H 	0.30720 0.15870 0.98460 -0.02500
H 	H 	0.60720 0.89480 0.15330 0.02100
H 	H 	0.72660 0.78640 0.13840 0.06200
H 	H 	0.19370 0.67040 0.16180 0.02800
H 	H 	0.09410 0.78190 0.17960 0.00100
H 	H 	0.91520 0.14180 0.39530 0.00100
H 	H 	0.89890 0.26380 0.37160 0.07300
H 	H 	0.79780 0.30490 0.52780 0.05500
H 	H 	0.82210 0.18300 0.54770 -0.00400
H 	H 	0.39470 0.20750 0.36260 0.01000
H 	H 	0.40550 0.33240 0.37890 0.01300
H 	H 	0.30550 0.28200 0.53580 0.03200
H 	H 	0.30720 0.15870 0.51540 -0.00300
H 	H 	0.60720 0.89480 0.34670 0.02100
H 	H 	0.72660 0.78640 0.36160 0.06200
H 	H 	0.19370 0.67040 0.33820 0.02800
H 	H 	0.09410 0.78190 0.32040 0.00100
H 	H 	0.08480 0.85820 0.89530 -0.00900
H 	H 	0.10110 0.73620 0.87160 0.07100
H 	H 	0.20220 0.69510 0.02780 0.05000
H 	H 	0.17790 0.81700 0.04770 -0.00800
H 	H 	0.60530 0.79250 0.86260 0.01500
H 	H 	0.59450 0.66760 0.87890 0.00600
H 	H 	0.69450 0.71800 0.03580 0.01200
H 	H 	0.69280 0.84130 0.01540 0.02100
H 	H 	0.39280 0.10520 0.84670 0.03500
H 	H 	0.27340 0.21360 0.86160 0.05900
H 	H 	0.80630 0.32960 0.83820 0.02800
H 	H 	0.90590 0.21810 0.82040 0.00300
H 	H 	0.11680 0.89420 0.75000 0.01900
H 	H 	0.27020 0.79170 0.75000 0.06800
H 	H 	0.75030 0.66000 0.75000 0.05900
H 	H 	0.61420 0.76570 0.75000 0.01000
H 	H 	0.88320 0.10580 0.25000 0.03000
H 	H 	0.72980 0.20830 0.25000 0.06900
H 	H 	0.24970 0.34000 0.25000 0.06300
H 	H 	0.38580 0.23430 0.25000 0.00700
C 	C 	0.10660 0.82460 0.57786 0.03400
C 	C 	0.11760 0.75160 0.59257 -0.07300
C 	C 	0.15370 0.70220 0.55264 -0.02200
C 	C 	0.17700 0.72730 0.49954 -0.06600
C 	C 	0.16240 0.80030 0.48790 0.03000
C 	C 	0.17110 0.62330 0.56770 0.29100
C 	C 	0.62200 0.77690 0.60213 -0.00100
C 	C 	0.61680 0.70190 0.59285 0.01100
C 	C 	0.64540 0.67830 0.54031 -0.13600
C 	C 	0.67480 0.73190 0.49975 0.00600
C 	C 	0.67480 0.80610 0.51234 -0.00600
C 	C 	0.64290 0.59670 0.52766 0.49300
C 	C 	0.47630 0.15080 0.65560 0.00700
C 	C 	0.40370 0.21590 0.64634 -0.04300
C 	C 	0.52480 0.28450 0.64888 -0.05500
C 	C 	0.71860 0.28500 0.66060 -0.04900
C 	C 	0.77720 0.21720 0.67040 0.02100
C 	C 	0.44760 0.35560 0.63809 0.31100
C 	C 	0.89340 0.17540 0.07786 0.03900
C 	C 	0.88240 0.24840 0.09257 -0.07800
C 	C 	0.84630 0.29780 0.05264 -0.00700
C 	C 	0.82300 0.27270 0.99954 -0.08100
C 	C 	0.83760 0.19970 0.98790 0.02800
C 	C 	0.82890 0.37670 0.06770 0.28700
C 	C 	0.37800 0.22310 0.10213 0.01100
C 	C 	0.38320 0.29810 0.09285 -0.00700
C 	C 	0.35460 0.32170 0.04031 -0.11100
C 	C 	0.32520 0.26810 0.99975 -0.04300
C 	C 	0.32520 0.19390 0.01234 0.04000
C 	C 	0.35710 0.40330 0.02766 0.49500
C 	C 	0.52370 0.84920 0.15560 0.00900
C 	C 	0.59630 0.78410 0.14634 -0.04700
C 	C 	0.47520 0.71550 0.14888 -0.05300
C 	C 	0.28140 0.71500 0.16060 -0.05200
C 	C 	0.22280 0.78280 0.17040 0.02200
C 	C 	0.55240 0.64440 0.13809 0.31000
C 	C 	0.89340 0.17540 0.42214 0.03400
C 	C 	0.88240 0.24840 0.40743 -0.07000
C 	C 	0.84630 0.29780 0.44736 -0.02200
C 	C 	0.82300 0.27270 0.50046 -0.06400
C 	C 	0.83760 0.19970 0.51210 0.03100
C 	C 	0.82890 0.37670 0.43230 0.29200
C 	C 	0.37800 0.22310 0.39787 -0.00100
C 	C 	0.38320 0.29810 0.40715 0.01000
C 	C 	0.35460 0.32170 0.45969 -0.13700
C 	C 	0.32520 0.26810 0.50025 0.00600
C 	C 	0.32520 0.19390 0.48766 -0.00700
C 	C 	0.35710 0.40330 0.47234 0.49200
C 	C 	0.52370 0.84920 0.34440 0.00900
C 	C 	0.59630 0.78410 0.35366 -0.04700
C 	C 	0.47520 0.71550 0.35112 -0.05400
C 	C 	0.28140 0.71500 0.33940 -0.05100
C 	C 	0.22280 0.78280 0.32960 0.02200
C 	C 	0.55240 0.64440 0.36191 0.31000
C 	C 	0.10660 0.82460 0.92214 0.03000
C 	C 	0.11760 0.75160 0.90743 -0.06600
C 	C 	0.15370 0.70220 0.94736 -0.03800
C 	C 	0.17700 0.72730 0.00046 -0.04900
C 	C 	0.16240 0.80030 0.01210 0.03500
C 	C 	0.17110 0.62330 0.93230 0.29600
C 	C 	0.62200 0.77690 0.89787 -0.01600
C 	C 	0.61680 0.70190 0.90715 0.03300
C 	C 	0.64540 0.67830 0.95969 -0.17100
C 	C 	0.67480 0.73190 0.00025 0.07100
C 	C 	0.67480 0.80610 0.98766 -0.06800
C 	C 	0.64290 0.59670 0.97234 0.49100
C 	C 	0.47630 0.15080 0.84440 0.00700
C 	C 	0.40370 0.21590 0.85366 -0.04300
C 	C 	0.52480 0.28450 0.85112 -0.05600
C 	C 	0.71860 0.28500 0.83940 -0.04900
C 	C 	0.77720 0.21720 0.82960 0.02100
C 	C 	0.44760 0.35560 0.86191 0.31000
C 	C 	0.04220 0.84660 0.75000 0.02200
C 	C 	0.13600 0.78480 0.75000 -0.06200
C 	C 	0.02900 0.71300 0.75000 -0.02500
C 	C 	0.82870 0.70680 0.75000 -0.07300
C 	C 	0.74820 0.77110 0.75000 0.03200
C 	C 	0.13040 0.64530 0.75000 0.29000
C 	C 	0.95780 0.15340 0.25000 0.03500
C 	C 	0.86400 0.21520 0.25000 -0.07100
C 	C 	0.97100 0.28700 0.25000 -0.01100
C 	C 	0.17130 0.29320 0.25000 -0.09100
C 	C 	0.25180 0.22890 0.25000 0.03900
C 	C 	0.86960 0.35470 0.25000 0.28600
I 	I 	0.01026 0.02946 0.58993 -0.68600
I 	I 	0.47629 0.94268 0.67020 -0.67100
I 	I 	0.98974 0.97054 0.08993 -0.76000
I 	I 	0.52371 0.05732 0.17020 -0.59700
I 	I 	0.98974 0.97054 0.41007 -0.76500
I 	I 	0.52371 0.05732 0.32980 -0.59700
I 	I 	0.01026 0.02946 0.91007 -0.68800
I 	I 	0.47629 0.94268 0.82980 -0.67300
I 	I 	0.50000 -0.00000 0.50000 -0.71500
I 	I 	0.50000 0.00000 -0.00000 -0.70600
I 	I 	0.03092 0.05825 0.75000 -0.55700
I 	I 	0.96908 0.94175 0.25000 -0.60900
N 	N 	0.12610 0.84864 0.52681 -0.23800
N 	N 	0.65000 0.82927 0.56288 -0.22300
N 	N 	0.66230 0.15070 0.66770 -0.23000
N 	N 	0.87390 0.15136 0.02681 -0.22800
N 	N 	0.35000 0.17073 0.06288 -0.22900
N 	N 	0.33770 0.84930 0.16770 -0.23600
N 	N 	0.87390 0.15136 0.47319 -0.23100
N 	N 	0.35000 0.17073 0.43712 -0.22000
N 	N 	0.33770 0.84930 0.33230 -0.23600
N 	N 	0.12610 0.84864 0.97319 -0.24300
N 	N 	0.65000 0.82927 0.93712 -0.21100
N 	N 	0.66230 0.15070 0.83230 -0.23000
N 	N 	0.85030 0.84060 0.75000 -0.23800
N 	N 	0.14970 0.15940 0.25000 -0.24000
O 	O 	0.19950 0.57836 0.53035 -0.41800
O 	O 	0.16650 0.60512 0.61676 -0.44800
O 	O 	0.57850 0.54937 0.56285 -0.51600
O 	O 	0.71030 0.58309 0.48226 -0.52800
O 	O 	0.56300 0.41606 0.63099 -0.41600
O 	O 	0.26890 0.35246 0.63596 -0.45000
O 	O 	0.80050 0.42164 0.03035 -0.41200
O 	O 	0.83350 0.39488 0.11676 -0.44600
O 	O 	0.42150 0.45063 0.06285 -0.51700
O 	O 	0.28970 0.41691 0.98226 -0.53600
O 	O 	0.43700 0.58394 0.13099 -0.41700
O 	O 	0.73110 0.64754 0.13596 -0.44700
O 	O 	0.80050 0.42164 0.46965 -0.41700
O 	O 	0.83350 0.39488 0.38324 -0.44700
O 	O 	0.42150 0.45063 0.43715 -0.51800
O 	O 	0.28970 0.41691 0.51774 -0.52900
O 	O 	0.43700 0.58394 0.36901 -0.41800
O 	O 	0.73110 0.64754 0.36404 -0.44800
O 	O 	0.19950 0.57836 0.96965 -0.42300
O 	O 	0.16650 0.60512 0.88324 -0.44900
O 	O 	0.57850 0.54937 0.93715 -0.51700
O 	O 	0.71030 0.58309 0.01774 -0.52000
O 	O 	0.56300 0.41606 0.86901 -0.41700
O 	O 	0.26890 0.35246 0.86404 -0.45000
O 	O 	0.31040 0.65620 0.75000 -0.27900
O 	O 	0.02260 0.58170 0.75000 -0.29300
O 	O 	0.68960 0.34380 0.25000 -0.27900
O 	O 	0.97740 0.41830 0.25000 -0.28900
