data_crystal

_cell_length_a 10.18830
_cell_length_b 12.01580
_cell_length_c 19.20590
_cell_angle_alpha 92.79000
_cell_angle_beta  90.00000
_cell_angle_gamma 90.00000

_symmetry_space_group_name_	'P 1'
_symmetry_space_group_name_H-M	'P 1'

loop_
_symmetry_equiv_pos_as_xyz
  x,y,z

loop_
_atom_site_label
_atom_site_type_symbol
_atom_site_fract_x
_atom_site_fract_y
_atom_site_fract_z
_atom_site_charge
Ag	Ag	0.57895 0.24434 0.60221 0.55600
Ag	Ag	0.29613 0.48760 0.86368 0.55500
Ag	Ag	0.42432 0.73043 0.59049 0.54900
Ag	Ag	0.07895 0.25566 0.89779 0.55400
Ag	Ag	0.79613 0.01240 0.63632 0.55500
Ag	Ag	0.92432 0.76957 0.90951 0.55000
Ag	Ag	0.42105 0.75566 0.39779 0.55500
Ag	Ag	0.70387 0.51240 0.13632 0.55400
Ag	Ag	0.57568 0.26957 0.40951 0.54900
Ag	Ag	0.92105 0.74434 0.10221 0.55400
Ag	Ag	0.20387 0.98760 0.36368 0.55500
Ag	Ag	0.07568 0.23043 0.09049 0.55000
P 	P 	0.32581 0.15102 0.49567 0.74700
P 	P 	0.46460 0.00429 0.68154 0.76300
P 	P 	0.82581 0.34898 0.00433 0.74000
P 	P 	0.96460 0.49571 0.81846 0.76600
P 	P 	0.67419 0.84898 0.50433 0.74700
P 	P 	0.53540 0.99571 0.31846 0.76300
P 	P 	0.17419 0.65102 0.99567 0.74000
P 	P 	0.03540 0.50429 0.18154 0.76600
H 	H 	0.73270 0.46880 0.55720 0.14700
H 	H 	0.81360 0.54360 0.61350 0.19400
H 	H 	0.71270 0.60110 0.56250 0.17400
H 	H 	0.48140 0.27910 0.82750 0.20900
H 	H 	0.63570 0.29720 0.81770 0.27700
H 	H 	0.55560 0.22050 0.76210 0.23500
H 	H 	0.56750 0.73820 0.83180 0.19400
H 	H 	0.41330 0.71980 0.84230 0.19600
H 	H 	0.46480 0.79420 0.78110 0.22300
H 	H 	0.14350 0.46400 0.65520 0.22800
H 	H 	0.21940 0.40770 0.58960 0.21600
H 	H 	0.19660 0.53970 0.59490 0.17200
H 	H 	0.23270 0.03120 0.94280 0.14800
H 	H 	0.31360 0.95640 0.88650 0.19400
H 	H 	0.21270 0.89890 0.93750 0.17300
H 	H 	0.98140 0.22090 0.67250 0.21100
H 	H 	0.13570 0.20280 0.68230 0.27800
H 	H 	0.05560 0.27950 0.73790 0.23500
H 	H 	0.06750 0.76180 0.66820 0.19200
H 	H 	0.91330 0.78020 0.65770 0.19500
H 	H 	0.96480 0.70580 0.71890 0.22200
H 	H 	0.64350 0.03600 0.84480 0.22800
H 	H 	0.71940 0.09230 0.91040 0.21600
H 	H 	0.69660 0.96030 0.90510 0.17200
H 	H 	0.26730 0.53120 0.44280 0.14700
H 	H 	0.18640 0.45640 0.38650 0.19400
H 	H 	0.28730 0.39890 0.43750 0.17400
H 	H 	0.51860 0.72090 0.17250 0.20900
H 	H 	0.36430 0.70280 0.18230 0.27700
H 	H 	0.44440 0.77950 0.23790 0.23500
H 	H 	0.43250 0.26180 0.16820 0.19400
H 	H 	0.58670 0.28020 0.15770 0.19600
H 	H 	0.53520 0.20580 0.21890 0.22300
H 	H 	0.85650 0.53600 0.34480 0.22800
H 	H 	0.78060 0.59230 0.41040 0.21600
H 	H 	0.80340 0.46030 0.40510 0.17200
H 	H 	0.76730 0.96880 0.05720 0.14800
H 	H 	0.68640 0.04360 0.11350 0.19400
H 	H 	0.78730 0.10110 0.06250 0.17300
H 	H 	0.01860 0.77910 0.32750 0.21100
H 	H 	0.86430 0.79720 0.31770 0.27800
H 	H 	0.94440 0.72050 0.26210 0.23500
H 	H 	0.93250 0.23820 0.33180 0.19200
H 	H 	0.08670 0.21980 0.34230 0.19500
H 	H 	0.03520 0.29420 0.28110 0.22200
H 	H 	0.35650 0.96400 0.15520 0.22800
H 	H 	0.28060 0.90770 0.08960 0.21600
H 	H 	0.30340 0.03970 0.09490 0.17200
C 	C 	0.72950 0.53500 0.58910 -0.49600
C 	C 	0.61950 0.52180 0.64230 0.12600
C 	C 	0.55170 0.28730 0.79330 -0.60500
C 	C 	0.52410 0.38930 0.75070 0.15000
C 	C 	0.48300 0.72860 0.80780 -0.54700
C 	C 	0.48840 0.62450 0.75830 0.13400
C 	C 	0.21430 0.47370 0.62150 -0.56100
C 	C 	0.34470 0.48890 0.66030 0.14600
C 	C 	0.22950 0.96500 0.91090 -0.49800
C 	C 	0.11950 0.97820 0.85770 0.12200
C 	C 	0.05170 0.21270 0.70670 -0.60800
C 	C 	0.02410 0.11070 0.74930 0.15100
C 	C 	0.98300 0.77140 0.69220 -0.54300
C 	C 	0.98840 0.87550 0.74170 0.13700
C 	C 	0.71430 0.02630 0.87850 -0.56000
C 	C 	0.84470 0.01110 0.83970 0.14500
C 	C 	0.27050 0.46500 0.41090 -0.49600
C 	C 	0.38050 0.47820 0.35770 0.12600
C 	C 	0.44830 0.71270 0.20670 -0.60500
C 	C 	0.47590 0.61070 0.24930 0.15000
C 	C 	0.51700 0.27140 0.19220 -0.54700
C 	C 	0.51160 0.37550 0.24170 0.13400
C 	C 	0.78570 0.52630 0.37850 -0.56100
C 	C 	0.65530 0.51110 0.33970 0.14600
C 	C 	0.77050 0.03500 0.08910 -0.49800
C 	C 	0.88050 0.02180 0.14230 0.12200
C 	C 	0.94830 0.78730 0.29330 -0.60800
C 	C 	0.97590 0.88930 0.25070 0.15100
C 	C 	0.01700 0.22860 0.30780 -0.54300
C 	C 	0.01160 0.12450 0.25830 0.13700
C 	C 	0.28570 0.97370 0.12150 -0.56000
C 	C 	0.15530 0.98890 0.16030 0.14500
S 	S 	0.62184 0.64779 0.69838 -0.07400
S 	S 	0.46797 0.50610 0.59251 -0.19000
S 	S 	0.32797 0.61382 0.71689 -0.14500
S 	S 	0.65944 0.39771 0.68886 -0.10000
S 	S 	0.52248 0.50853 0.81329 -0.10000
S 	S 	0.36864 0.36373 0.70766 -0.10500
S 	S 	0.12184 0.85221 0.80162 -0.07700
S 	S 	0.96797 0.99390 0.90749 -0.18600
S 	S 	0.82797 0.88618 0.78311 -0.14400
S 	S 	0.15944 0.10229 0.81114 -0.09900
S 	S 	0.02248 0.99147 0.68671 -0.10400
S 	S 	0.86864 0.13627 0.79234 -0.10300
S 	S 	0.37816 0.35221 0.30162 -0.07400
S 	S 	0.53203 0.49390 0.40749 -0.19000
S 	S 	0.67203 0.38618 0.28311 -0.14500
S 	S 	0.34056 0.60229 0.31114 -0.10000
S 	S 	0.47752 0.49147 0.18671 -0.10000
S 	S 	0.63136 0.63627 0.29234 -0.10500
S 	S 	0.87816 0.14779 0.19838 -0.07700
S 	S 	0.03203 0.00610 0.09251 -0.18600
S 	S 	0.17203 0.11382 0.21689 -0.14400
S 	S 	0.84056 0.89771 0.18886 -0.09900
S 	S 	0.97752 0.00853 0.31329 -0.10400
S 	S 	0.13136 0.86373 0.20766 -0.10300
O 	O 	0.44450 0.21940 0.50814 -0.37700
O 	O 	0.25800 0.15110 0.42838 -0.34800
O 	O 	0.44080 0.88920 0.66020 -0.33000
O 	O 	0.57770 0.06820 0.65744 -0.37400
O 	O 	0.94450 0.28060 0.99186 -0.37300
O 	O 	0.75800 0.34890 0.07162 -0.34800
O 	O 	0.94080 0.61080 0.83980 -0.32900
O 	O 	0.07770 0.43180 0.84256 -0.37600
O 	O 	0.55550 0.78060 0.49186 -0.37700
O 	O 	0.74200 0.84890 0.57162 -0.34800
O 	O 	0.55920 0.11080 0.33980 -0.33000
O 	O 	0.42230 0.93180 0.34256 -0.37400
O 	O 	0.05550 0.71940 0.00814 -0.37300
O 	O 	0.24200 0.65110 0.92838 -0.34800
O 	O 	0.05920 0.38920 0.16020 -0.32900
O 	O 	0.92230 0.56820 0.15744 -0.37600
F 	F 	0.35510 0.03120 0.51531 -0.45400
F 	F 	0.22750 0.18250 0.55446 -0.46000
F 	F 	0.46490 0.01390 0.76253 -0.49200
F 	F 	0.34150 0.07490 0.66986 -0.43300
F 	F 	0.85510 0.46880 0.98469 -0.45200
F 	F 	0.72750 0.31750 0.94554 -0.45800
F 	F 	0.96490 0.48610 0.73747 -0.49200
F 	F 	0.84150 0.42510 0.83014 -0.43300
F 	F 	0.64490 0.96880 0.48469 -0.45400
F 	F 	0.77250 0.81750 0.44554 -0.46000
F 	F 	0.53510 0.98610 0.23747 -0.49200
F 	F 	0.65850 0.92510 0.33014 -0.43300
F 	F 	0.14490 0.53120 0.01531 -0.45200
F 	F 	0.27250 0.68250 0.05446 -0.45800
F 	F 	0.03510 0.51390 0.26253 -0.49200
F 	F 	0.15850 0.57490 0.16986 -0.43300
