data_crystal

_cell_length_a 10.29090
_cell_length_b 10.65500
_cell_length_c 11.42210
_cell_angle_alpha 79.59400
_cell_angle_beta  75.33400
_cell_angle_gamma 61.90600

_symmetry_space_group_name_	'P 1'
_symmetry_space_group_name_H-M	'P 1'

loop_
_symmetry_equiv_pos_as_xyz
  x,y,z

loop_
_atom_site_label
_atom_site_type_symbol
_atom_site_fract_x
_atom_site_fract_y
_atom_site_fract_z
_atom_site_charge
Mn	Mn	0.55889 0.35795 0.19134 1.27500
N 	N 	0.35330 0.33290 0.27490 -0.23100
N 	N 	0.98950 0.13590 0.49870 -0.12400
O 	O 	0.51740 0.34890 0.01690 -0.45900
O 	O 	0.54690 0.41880 0.82150 -0.47400
O 	O 	0.19260 0.73030 0.86520 -0.39300
O 	O 	0.28870 0.87870 0.78640 -0.38900
O 	O 	0.84600 0.36240 0.43280 -0.23500
C 	C 	0.49710 0.10080 0.90570 -0.04800
H 	H 	0.49450 0.16870 0.84130 0.05300
C 	C 	0.62230 0.03260 0.96090 -0.00300
C 	C 	0.62180 0.93100 0.05500 -0.05100
H 	H 	0.70450 0.88300 0.09260 0.05300
C 	C 	0.58810 0.33310 0.91030 0.41600
C 	C 	0.17690 0.85480 0.83260 0.28000
C 	C 	0.73730 0.20360 0.88570 -0.15500
C 	C 	0.75370 0.06510 0.91590 0.06700
C 	C 	0.89870 0.95330 0.89840 -0.08700
H 	H 	0.91170 0.86030 0.91960 0.07200
C 	C 	0.02340 0.97680 0.85030 -0.01500
C 	C 	0.00530 0.11520 0.81740 -0.07800
H 	H 	0.08820 0.13250 0.78430 0.06900
C 	C 	0.86210 0.22680 0.83450 0.04500
H 	H 	0.84920 0.31960 0.81110 0.01600
C 	C 	0.26400 0.39300 0.38000 0.07600
H 	H 	0.28460 0.45410 0.41270 -0.00600
C 	C 	0.14600 0.36700 0.43910 0.00400
H 	H 	0.09090 0.40420 0.51360 0.02900
C 	C 	0.10660 0.28100 0.38290 0.00300
C 	C 	0.20290 0.21800 0.28390 0.01100
H 	H 	0.18790 0.15410 0.24960 0.02900
C 	C 	0.32290 0.24600 0.23200 0.01500
H 	H 	0.38630 0.20000 0.16280 0.01800
C 	C 	0.97120 0.26070 0.44060 0.17300
C 	C 	0.86170 0.10700 0.55810 -0.05200
H 	H 	0.76860 0.19290 0.55310 0.05400
H 	H 	0.86570 0.07740 0.64300 0.06000
C 	C 	0.13330 0.00710 0.50260 -0.05400
H 	H 	0.14370 0.97500 0.58620 0.05700
H 	H 	0.21590 0.02900 0.46210 0.04600
C 	C 	0.30100 0.33200 0.39000 -0.04400
H 	H 	0.34270 0.35620 0.44000 0.00800
C 	C 	0.18200 0.29700 0.44200 -0.08900
H 	H 	0.15870 0.28430 0.52650 0.05400
C 	C 	0.13900 0.30800 0.25050 -0.10500
H 	H 	0.07760 0.31170 0.20170 0.07200
C 	C 	0.26400 0.32800 0.20250 0.01000
H 	H 	0.29160 0.33970 0.11860 0.02600
Mn	Mn	0.44111 0.64205 0.80866 1.27600
N 	N 	0.64670 0.66710 0.72510 -0.23000
N 	N 	0.01050 0.86410 0.50130 -0.12400
O 	O 	0.48260 0.65110 0.98310 -0.45900
O 	O 	0.45310 0.58120 0.17850 -0.47400
O 	O 	0.80740 0.26970 0.13480 -0.39300
O 	O 	0.71130 0.12130 0.21360 -0.38900
O 	O 	0.15400 0.63760 0.56720 -0.23500
C 	C 	0.50290 0.89920 0.09430 -0.04800
H 	H 	0.50550 0.83130 0.15870 0.05300
C 	C 	0.37770 0.96740 0.03910 -0.00300
C 	C 	0.37820 0.06900 0.94500 -0.05100
H 	H 	0.29550 0.11700 0.90740 0.05300
C 	C 	0.41190 0.66690 0.08970 0.41600
C 	C 	0.82310 0.14520 0.16740 0.28000
C 	C 	0.26270 0.79640 0.11430 -0.15500
C 	C 	0.24630 0.93490 0.08410 0.06700
C 	C 	0.10130 0.04670 0.10160 -0.08700
H 	H 	0.08830 0.13970 0.08040 0.07200
C 	C 	0.97660 0.02320 0.14970 -0.01500
C 	C 	0.99470 0.88480 0.18260 -0.07800
H 	H 	0.91180 0.86750 0.21570 0.06900
C 	C 	0.13790 0.77320 0.16550 0.04500
H 	H 	0.15080 0.68040 0.18890 0.01600
C 	C 	0.73600 0.60700 0.62000 0.07600
H 	H 	0.71540 0.54590 0.58730 -0.00600
C 	C 	0.85400 0.63300 0.56090 0.00400
H 	H 	0.90910 0.59580 0.48640 0.02900
C 	C 	0.89340 0.71900 0.61710 0.00300
C 	C 	0.79710 0.78200 0.71610 0.01100
H 	H 	0.81210 0.84590 0.75040 0.02900
C 	C 	0.67710 0.75400 0.76800 0.01500
H 	H 	0.61370 0.80000 0.83720 0.01800
C 	C 	0.02880 0.73930 0.55940 0.17300
C 	C 	0.13830 0.89300 0.44190 -0.05200
H 	H 	0.23140 0.80710 0.44690 0.05400
H 	H 	0.13430 0.92260 0.35700 0.06000
C 	C 	0.86670 0.99290 0.49740 -0.05400
H 	H 	0.85630 0.02500 0.41380 0.05700
H 	H 	0.78410 0.97100 0.53790 0.04600
C 	C 	0.69900 0.66800 0.61000 -0.04400
H 	H 	0.65730 0.64380 0.56000 0.00800
C 	C 	0.81800 0.70300 0.55800 -0.08900
H 	H 	0.84130 0.71570 0.47350 0.05400
C 	C 	0.86100 0.69200 0.74950 -0.10500
H 	H 	0.92240 0.68830 0.79830 0.07200
C 	C 	0.73600 0.67200 0.79750 0.01000
H 	H 	0.70840 0.66030 0.88140 0.02600
