data_crystal

_cell_length_a 8.70100
_cell_length_b 9.21000
_cell_length_c 12.38500
_cell_angle_alpha 111.11000
_cell_angle_beta  101.42000
_cell_angle_gamma 102.08000

_symmetry_space_group_name_	'P 1'
_symmetry_space_group_name_H-M	'P 1'

loop_
_symmetry_equiv_pos_as_xyz
  x,y,z

loop_
_atom_site_label
_atom_site_type_symbol
_atom_site_fract_x
_atom_site_fract_y
_atom_site_fract_z
_atom_site_charge
Al	Al	0.69850 0.20960 0.62410 2.39800
Al	Al	0.64940 0.78230 0.14430 2.39900
Al	Al	0.98020 0.66940 0.94280 2.39700
Al	Al	0.50510 0.20670 0.14620 2.39700
P 	P 	0.59900 0.48400 0.80110 0.81500
P 	P 	0.55710 0.05490 0.34330 0.81100
P 	P 	0.77940 0.05170 0.06780 0.73700
P 	P 	0.03630 0.34320 0.81930 0.79500
O 	O 	0.67320 0.15990 0.47230 -0.76000
O 	O 	0.51640 0.16430 0.28350 -0.64100
O 	O 	0.90940 0.25940 0.69350 -0.73900
O 	O 	0.51160 0.74810 0.99840 -0.88700
O 	O 	0.63670 0.93480 0.27680 -0.75400
O 	O 	0.50850 0.59500 0.77000 -0.68900
O 	O 	0.51210 0.38620 0.85780 -0.69600
O 	O 	0.39470 0.96010 0.35400 -0.77900
O 	O 	0.62340 0.37120 0.68400 -0.78300
O 	O 	0.07150 0.52840 0.86780 -0.78900
O 	O 	0.76950 0.59180 0.89030 -0.85600
O 	O 	0.19450 0.30430 0.81300 -0.69400
O 	O 	0.69280 0.16520 0.13470 -0.76200
O 	O 	0.95040 0.15570 0.07870 -0.70100
O 	O 	0.80950 0.93440 0.12420 -0.65100
O 	O 	0.68360 0.95820 0.93290 -0.75500
O 	O 	0.95800 0.28310 0.90260 -0.81200
Al	Al	0.30150 0.79040 0.37590 2.39700
Al	Al	0.35060 0.21770 0.85570 2.39800
Al	Al	0.01980 0.33060 0.05720 2.39700
Al	Al	0.49490 0.79330 0.85380 2.39700
P 	P 	0.40100 0.51600 0.19890 0.81500
P 	P 	0.44290 0.94510 0.65670 0.81100
P 	P 	0.22060 0.94830 0.93220 0.73700
P 	P 	0.96370 0.65680 0.18070 0.79500
O 	O 	0.32680 0.84010 0.52770 -0.76000
O 	O 	0.48360 0.83570 0.71650 -0.64100
O 	O 	0.09060 0.74060 0.30650 -0.73900
O 	O 	0.48840 0.25190 0.00160 -0.88700
O 	O 	0.36330 0.06520 0.72320 -0.75400
O 	O 	0.49150 0.40500 0.23000 -0.68900
O 	O 	0.48790 0.61380 0.14220 -0.69600
O 	O 	0.60530 0.03990 0.64600 -0.77900
O 	O 	0.37660 0.62880 0.31600 -0.78300
O 	O 	0.92850 0.47160 0.13220 -0.78900
O 	O 	0.23050 0.40820 0.10970 -0.85600
O 	O 	0.80550 0.69570 0.18700 -0.69400
O 	O 	0.30720 0.83480 0.86530 -0.76200
O 	O 	0.04960 0.84430 0.92130 -0.70100
O 	O 	0.19050 0.06560 0.87580 -0.65100
O 	O 	0.31640 0.04180 0.06710 -0.75500
O 	O 	0.04200 0.71690 0.09740 -0.81200
