data_crystal

_cell_length_a 9.64480
_cell_length_b 8.87700
_cell_length_c 14.81300
_cell_angle_alpha 90.00000
_cell_angle_beta  91.93600
_cell_angle_gamma 90.00000

_symmetry_space_group_name_	'P 1'
_symmetry_space_group_name_H-M	'P 1'

loop_
_symmetry_equiv_pos_as_xyz
  x,y,z

loop_
_atom_site_label
_atom_site_type_symbol
_atom_site_fract_x
_atom_site_fract_y
_atom_site_fract_z
_atom_site_charge
V 	V 	0.93550 0.99790 0.15130 1.72200
V 	V 	0.16850 0.49980 0.89320 1.74700
P 	P 	0.00800 0.74730 0.00470 0.54400
O 	O 	0.04690 0.83830 0.08820 -0.50800
O 	O 	0.13570 0.64960 0.98330 -0.53700
O 	O 	0.96510 0.84270 0.92220 -0.49600
O 	O 	0.88180 0.84550 0.24370 -0.52000
O 	O 	0.88030 0.16070 0.23830 -0.50700
O 	O 	0.72900 0.65020 0.16540 -0.55700
O 	O 	0.72030 0.35520 0.16620 -0.54300
O 	O 	0.88140 0.64390 0.01980 -0.55800
O 	O 	0.12140 0.01100 0.24010 -0.38100
O 	O 	0.25940 0.21140 0.16590 -0.21400
V 	V 	0.56450 0.99790 0.34870 1.73000
V 	V 	0.33150 0.49980 0.60680 1.74800
P 	P 	0.49200 0.74730 0.49530 0.54100
O 	O 	0.45310 0.83830 0.41180 -0.51000
O 	O 	0.36430 0.64960 0.51670 -0.53700
O 	O 	0.53490 0.84270 0.57780 -0.49900
O 	O 	0.61820 0.84550 0.25630 -0.51800
O 	O 	0.61970 0.16070 0.26170 -0.50900
O 	O 	0.77100 0.65020 0.33460 -0.55700
O 	O 	0.77970 0.35520 0.33380 -0.54300
O 	O 	0.61860 0.64390 0.48020 -0.55100
O 	O 	0.37860 0.01100 0.25990 -0.38000
O 	O 	0.24060 0.21140 0.33410 -0.21700
V 	V 	0.06450 0.00210 0.84870 1.72300
V 	V 	0.83150 0.50020 0.10680 1.74800
P 	P 	0.99200 0.25270 0.99530 0.54400
O 	O 	0.95310 0.16170 0.91180 -0.50800
O 	O 	0.86430 0.35040 0.01670 -0.53700
O 	O 	0.03490 0.15730 0.07780 -0.49600
O 	O 	0.11820 0.15450 0.75630 -0.52000
O 	O 	0.11970 0.83930 0.76170 -0.50700
O 	O 	0.27100 0.34980 0.83460 -0.55700
O 	O 	0.27970 0.64480 0.83380 -0.54300
O 	O 	0.11860 0.35610 0.98020 -0.55800
O 	O 	0.87860 0.98900 0.75990 -0.38100
O 	O 	0.74060 0.78860 0.83410 -0.21400
V 	V 	0.43550 0.00210 0.65130 1.73000
V 	V 	0.66850 0.50020 0.39320 1.74800
P 	P 	0.50800 0.25270 0.50470 0.54100
O 	O 	0.54690 0.16170 0.58820 -0.51000
O 	O 	0.63570 0.35040 0.48330 -0.53700
O 	O 	0.46510 0.15730 0.42220 -0.49900
O 	O 	0.38180 0.15450 0.74370 -0.51800
O 	O 	0.38030 0.83930 0.73830 -0.50900
O 	O 	0.22900 0.34980 0.66540 -0.55700
O 	O 	0.22030 0.64480 0.66620 -0.54300
O 	O 	0.38140 0.35610 0.51980 -0.55100
O 	O 	0.62140 0.98900 0.74010 -0.38000
O 	O 	0.75940 0.78860 0.66590 -0.21700
P 	P 	0.75000 0.25310 0.25000 0.54200
P 	P 	0.75000 0.75230 0.25000 0.54100
P 	P 	0.25000 0.74690 0.75000 0.54200
P 	P 	0.25000 0.24770 0.75000 0.54100
P 	P 	0.25000 0.10460 0.25000 0.52600
P 	P 	0.75000 0.89540 0.75000 0.52600
