data_crystal

_cell_length_a 7.32920
_cell_length_b 7.32920
_cell_length_c 8.31590
_cell_angle_alpha 90.00000
_cell_angle_beta  90.00000
_cell_angle_gamma 120.00000

_symmetry_space_group_name_	'P 1'
_symmetry_space_group_name_H-M	'P 1'

loop_
_symmetry_equiv_pos_as_xyz
  x,y,z

loop_
_atom_site_label
_atom_site_type_symbol
_atom_site_fract_x
_atom_site_fract_y
_atom_site_fract_z
_atom_site_charge
O 	O 	0.30590 0.89210 0.89560 -0.24200
O 	O 	0.10790 0.41380 0.89560 -0.27300
O 	O 	0.58620 0.69410 0.89560 -0.26600
O 	O 	0.69410 0.10790 0.39560 -0.36200
O 	O 	0.89210 0.58620 0.39560 -0.30500
O 	O 	0.41380 0.30590 0.39560 -0.39800
O 	O 	0.89210 0.30590 0.10440 -0.29100
O 	O 	0.41380 0.10790 0.10440 -0.35700
O 	O 	0.69410 0.58620 0.10440 -0.34000
O 	O 	0.10790 0.69410 0.60440 -0.35500
O 	O 	0.58620 0.89210 0.60440 -0.31700
O 	O 	0.30590 0.41380 0.60440 -0.39200
Fe	Fe	0.33333 0.66667 0.75000 1.22300
Fe	Fe	0.66667 0.33333 0.25000 1.21800
C 	C 	0.43520 0.00000 -0.00000 0.24600
H 	H 	0.56210 0.00000 -0.00000 -0.07100
C 	C 	-0.00000 0.43520 -0.00000 0.20800
H 	H 	0.00000 0.56210 -0.00000 -0.06600
C 	C 	0.56480 0.56480 -0.00000 0.31800
H 	H 	0.43790 0.43790 -0.00000 -0.09000
C 	C 	0.56480 0.00000 0.50000 0.38500
H 	H 	0.43790 0.00000 0.50000 -0.09800
C 	C 	0.00000 0.56480 0.50000 0.35200
H 	H 	0.00000 0.43790 0.50000 -0.09200
C 	C 	0.43520 0.43520 0.50000 0.46600
H 	H 	0.56210 0.56210 0.50000 -0.10100
