data_crystal

_cell_length_a 7.33370
_cell_length_b 7.33370
_cell_length_c 8.31900
_cell_angle_alpha 90.00000
_cell_angle_beta  90.00000
_cell_angle_gamma 120.00000

_symmetry_space_group_name_	'P 1'
_symmetry_space_group_name_H-M	'P 1'

loop_
_symmetry_equiv_pos_as_xyz
  x,y,z

loop_
_atom_site_label
_atom_site_type_symbol
_atom_site_fract_x
_atom_site_fract_y
_atom_site_fract_z
_atom_site_charge
O 	O 	0.30580 0.89250 0.89560 -0.24500
O 	O 	0.10750 0.41330 0.89560 -0.27400
O 	O 	0.58670 0.69420 0.89560 -0.26700
O 	O 	0.69420 0.10750 0.39560 -0.36400
O 	O 	0.89250 0.58670 0.39560 -0.30600
O 	O 	0.41330 0.30580 0.39560 -0.40000
O 	O 	0.89250 0.30580 0.10440 -0.29100
O 	O 	0.41330 0.10750 0.10440 -0.35800
O 	O 	0.69420 0.58670 0.10440 -0.34100
O 	O 	0.10750 0.69420 0.60440 -0.35600
O 	O 	0.58670 0.89250 0.60440 -0.31800
O 	O 	0.30580 0.41330 0.60440 -0.39400
Fe	Fe	0.33333 0.66667 0.75000 1.22300
Fe	Fe	0.66667 0.33333 0.25000 1.21800
C 	C 	0.43420 0.00000 -0.00000 0.24900
H 	H 	0.56110 0.00000 -0.00000 -0.07200
C 	C 	-0.00000 0.43420 -0.00000 0.21000
H 	H 	0.00000 0.56110 -0.00000 -0.06700
C 	C 	0.56580 0.56580 -0.00000 0.32100
H 	H 	0.43890 0.43890 -0.00000 -0.09100
C 	C 	0.56580 -0.00000 0.50000 0.39000
H 	H 	0.43890 -0.00000 0.50000 -0.09900
C 	C 	0.00000 0.56580 0.50000 0.35700
H 	H 	0.00000 0.43890 0.50000 -0.09400
C 	C 	0.43420 0.43420 0.50000 0.47200
H 	H 	0.56110 0.56110 0.50000 -0.10300
