data_crystal

_cell_length_a 9.03560
_cell_length_b 16.66440
_cell_length_c 17.24190
_cell_angle_alpha 117.19400
_cell_angle_beta  98.94800
_cell_angle_gamma 93.94700

_symmetry_space_group_name_	'P 1'
_symmetry_space_group_name_H-M	'P 1'

loop_
_symmetry_equiv_pos_as_xyz
  x,y,z

loop_
_atom_site_label
_atom_site_type_symbol
_atom_site_fract_x
_atom_site_fract_y
_atom_site_fract_z
_atom_site_charge
Cd	Cd	0.86865 0.01431 0.30462 1.19400
Cd	Cd	0.30956 0.67030 0.68215 1.19300
Cd	Cd	0.94560 0.28648 0.93772 1.19000
C 	C 	0.60670 0.85210 0.27250 0.09100
H 	H 	0.56160 0.84570 0.21720 -0.00200
C 	C 	0.75370 0.88920 0.39340 0.09300
H 	H 	0.83720 0.91710 0.44070 0.00800
C 	C 	0.40760 0.75060 0.28550 0.00500
H 	H 	0.34280 0.75310 0.23650 0.03600
H 	H 	0.35500 0.76860 0.33440 0.04500
C 	C 	0.50990 0.53520 0.17610 0.08500
C 	C 	0.57920 0.47010 0.10640 0.05100
C 	C 	0.57490 0.38100 0.08950 -0.12300
H 	H 	0.51960 0.35890 0.11890 0.07400
C 	C 	0.65240 0.32480 0.02910 0.06400
H 	H 	0.64780 0.26450 0.01820 0.01300
C 	C 	0.73340 0.43860 0.99970 0.06400
H 	H 	0.78580 0.45860 0.96780 -0.00900
C 	C 	0.65880 0.49920 0.05950 -0.12100
H 	H 	0.66220 0.55870 0.06820 0.07200
C 	C 	0.42410 0.60150 0.29320 0.08300
C 	C 	0.37720 0.62470 0.37870 0.06700
C 	C 	0.45330 0.70050 0.45610 -0.14300
H 	H 	0.52520 0.74220 0.45460 0.09500
C 	C 	0.41990 0.71270 0.53530 0.07400
H 	H 	0.47270 0.76320 0.58750 -0.00900
C 	C 	0.24080 0.58520 0.46660 0.07500
H 	H 	0.16640 0.54590 0.46940 -0.00600
C 	C 	0.26900 0.56770 0.38430 -0.13900
H 	H 	0.21410 0.51710 0.33290 0.07700
C 	C 	0.79400 0.98310 0.13220 0.32200
C 	C 	0.47520 0.82770 0.82290 0.31500
C 	C 	0.81670 0.12670 0.93490 0.31200
C 	C 	0.74240 0.98160 0.04410 -0.09200
C 	C 	0.63350 0.90940 0.97680 0.02700
H 	H 	0.59340 0.86260 0.98640 0.04100
C 	C 	0.58590 0.90830 0.89520 -0.10000
C 	C 	0.64570 0.97810 0.88160 0.03600
H 	H 	0.61390 0.97700 0.82710 0.03400
C 	C 	0.75320 0.05010 0.94850 -0.09500
C 	C 	0.79960 0.05100 0.02910 0.03100
H 	H 	0.87060 0.09930 0.07410 0.04600
C 	C 	0.97180 0.16240 0.47320 0.31000
C 	C 	0.98170 0.32890 0.80090 0.32400
C 	C 	0.18390 0.49620 0.64950 0.32400
C 	C 	0.01270 0.24920 0.56070 -0.10200
C 	C 	0.98230 0.25020 0.63740 0.04200
H 	H 	0.93840 0.19660 0.63460 0.03300
C 	C 	0.01610 0.33010 0.71830 -0.10500
C 	C 	0.08180 0.40980 0.72250 0.04500
H 	H 	0.10330 0.46370 0.77650 0.03500
C 	C 	0.11630 0.41010 0.64630 -0.10700
C 	C 	0.08000 0.32940 0.56620 0.04300
H 	H 	0.10130 0.32910 0.51500 0.03400
N 	N 	0.73920 0.90270 0.32080 -0.25100
N 	N 	0.64250 0.83450 0.39180 -0.09500
N 	N 	0.54810 0.81230 0.31350 -0.09300
N 	N 	0.43860 0.65850 0.25740 -0.08900
N 	N 	0.49510 0.61600 0.18230 -0.09200
N 	N 	0.46520 0.52270 0.24240 -0.13900
N 	N 	0.73480 0.35270 0.98480 -0.23200
N 	N 	0.31710 0.65690 0.54220 -0.24600
O 	O 	0.74960 0.91740 0.14280 -0.39000
O 	O 	0.87830 0.05360 0.19440 -0.41400
O 	O 	0.90410 0.19390 0.99980 -0.41300
O 	O 	0.77900 0.12560 0.86050 -0.35400
O 	O 	0.45650 0.81680 0.74390 -0.40600
O 	O 	0.40990 0.77140 0.83910 -0.38600
O 	O 	0.99110 0.16570 0.40330 -0.40000
O 	O 	0.92060 0.09060 0.47130 -0.37900
O 	O 	0.95230 0.25160 0.79690 -0.43200
O 	O 	0.98210 0.40120 0.86930 -0.36700
O 	O 	0.20010 0.57060 0.72040 -0.41300
O 	O 	0.22380 0.49240 0.58220 -0.36200
Cd	Cd	0.13135 0.98569 0.69538 1.19500
Cd	Cd	0.69044 0.32970 0.31785 1.19400
Cd	Cd	0.05440 0.71352 0.06228 1.19100
C 	C 	0.39330 0.14790 0.72750 0.09200
H 	H 	0.43840 0.15430 0.78280 -0.00100
C 	C 	0.24630 0.11080 0.60660 0.09400
H 	H 	0.16280 0.08290 0.55930 0.00800
C 	C 	0.59240 0.24940 0.71450 0.00500
H 	H 	0.65720 0.24690 0.76350 0.03600
H 	H 	0.64500 0.23140 0.66560 0.04500
C 	C 	0.49010 0.46480 0.82390 0.08500
C 	C 	0.42080 0.52990 0.89360 0.05100
C 	C 	0.42510 0.61900 0.91050 -0.12300
H 	H 	0.48040 0.64110 0.88110 0.07400
C 	C 	0.34760 0.67520 0.97090 0.06400
H 	H 	0.35220 0.73550 0.98180 0.01300
C 	C 	0.26660 0.56140 0.00030 0.06400
H 	H 	0.21420 0.54140 0.03220 -0.00900
C 	C 	0.34120 0.50080 0.94050 -0.12100
H 	H 	0.33780 0.44130 0.93180 0.07200
C 	C 	0.57590 0.39850 0.70680 0.08300
C 	C 	0.62280 0.37530 0.62130 0.06700
C 	C 	0.54670 0.29950 0.54390 -0.14300
H 	H 	0.47480 0.25780 0.54540 0.09500
C 	C 	0.58010 0.28730 0.46470 0.07400
H 	H 	0.52730 0.23680 0.41250 -0.00900
C 	C 	0.75920 0.41480 0.53340 0.07500
H 	H 	0.83360 0.45410 0.53060 -0.00600
C 	C 	0.73100 0.43230 0.61570 -0.13900
H 	H 	0.78590 0.48290 0.66710 0.07700
C 	C 	0.20600 0.01690 0.86780 0.32200
C 	C 	0.52480 0.17230 0.17710 0.31500
C 	C 	0.18330 0.87330 0.06510 0.31200
C 	C 	0.25760 0.01840 0.95590 -0.09200
C 	C 	0.36650 0.09060 0.02320 0.02700
H 	H 	0.40660 0.13740 0.01360 0.04100
C 	C 	0.41410 0.09170 0.10480 -0.10000
C 	C 	0.35430 0.02190 0.11840 0.03600
H 	H 	0.38610 0.02300 0.17290 0.03400
C 	C 	0.24680 0.94990 0.05150 -0.09500
C 	C 	0.20040 0.94900 0.97090 0.03100
H 	H 	0.12940 0.90070 0.92590 0.04600
C 	C 	0.02820 0.83760 0.52680 0.31000
C 	C 	0.01830 0.67110 0.19910 0.32400
C 	C 	0.81610 0.50380 0.35050 0.32400
C 	C 	0.98730 0.75080 0.43930 -0.10200
C 	C 	0.01770 0.74980 0.36260 0.04200
H 	H 	0.06160 0.80340 0.36540 0.03300
C 	C 	0.98390 0.66990 0.28170 -0.10500
C 	C 	0.91820 0.59020 0.27750 0.04500
H 	H 	0.89670 0.53630 0.22350 0.03500
C 	C 	0.88370 0.58990 0.35370 -0.10700
C 	C 	0.92000 0.67060 0.43380 0.04300
H 	H 	0.89870 0.67090 0.48500 0.03400
N 	N 	0.26080 0.09730 0.67920 -0.25100
N 	N 	0.35750 0.16550 0.60820 -0.09500
N 	N 	0.45190 0.18770 0.68650 -0.09300
N 	N 	0.56140 0.34150 0.74260 -0.08900
N 	N 	0.50490 0.38400 0.81770 -0.09200
N 	N 	0.53480 0.47730 0.75760 -0.13900
N 	N 	0.26520 0.64730 0.01520 -0.23200
N 	N 	0.68290 0.34310 0.45780 -0.24600
O 	O 	0.25040 0.08260 0.85720 -0.39000
O 	O 	0.12170 0.94640 0.80560 -0.41400
O 	O 	0.09590 0.80610 0.00020 -0.41300
O 	O 	0.22100 0.87440 0.13950 -0.35400
O 	O 	0.54350 0.18320 0.25610 -0.40600
O 	O 	0.59010 0.22860 0.16090 -0.38600
O 	O 	0.00890 0.83430 0.59670 -0.40000
O 	O 	0.07940 0.90940 0.52870 -0.37900
O 	O 	0.04770 0.74840 0.20310 -0.43200
O 	O 	0.01790 0.59880 0.13070 -0.36700
O 	O 	0.79990 0.42940 0.27960 -0.41300
O 	O 	0.77620 0.50760 0.41780 -0.36200
