data_crystal

_cell_length_a 18.34890
_cell_length_b 18.34900
_cell_length_c 19.86640
_cell_angle_alpha 64.52750
_cell_angle_beta  64.52770
_cell_angle_gamma 93.93990

_symmetry_space_group_name_	'P 1'
_symmetry_space_group_name_H-M	'P 1'

loop_
_symmetry_equiv_pos_as_xyz
  x,y,z

loop_
_atom_site_label
_atom_site_type_symbol
_atom_site_fract_x
_atom_site_fract_y
_atom_site_fract_z
_atom_site_charge
Cu	Cu	0.43476 0.00302 0.56222 0.91100
Cu	Cu	0.00302 0.43476 0.56222 0.91100
Cu	Cu	0.99698 0.56524 0.43778 0.91000
Cu	Cu	0.56524 0.99698 0.43778 0.91000
Cu	Cu	0.99107 0.99107 0.44056 0.91600
Cu	Cu	0.56837 0.56837 0.44056 0.91600
Cu	Cu	0.00893 0.00893 0.55944 0.91600
Cu	Cu	0.43163 0.43163 0.55944 0.91600
H 	H 	0.75020 0.98240 0.72960 0.10700
H 	H 	0.53900 0.99080 0.72300 0.10000
H 	H 	0.73290 0.97930 0.53180 0.07300
H 	H 	0.48840 0.96380 0.85320 0.03400
H 	H 	0.53900 0.06380 0.79800 0.04400
H 	H 	0.52020 0.28800 0.72960 0.10600
H 	H 	0.73800 0.28620 0.72300 0.10000
H 	H 	0.73530 0.48890 0.53180 0.07300
H 	H 	0.65840 0.18300 0.85320 0.03300
H 	H 	0.66300 0.13820 0.79800 0.04400
H 	H 	0.01760 0.24980 0.27040 0.10700
H 	H 	0.00920 0.46100 0.27700 0.10000
H 	H 	0.02070 0.26710 0.46820 0.07300
H 	H 	0.03620 0.51160 0.14680 0.03400
H 	H 	0.93620 0.46100 0.20200 0.04400
H 	H 	0.71200 0.47980 0.27040 0.10600
H 	H 	0.71380 0.26200 0.27700 0.10000
H 	H 	0.51110 0.26470 0.46820 0.07300
H 	H 	0.81700 0.34160 0.14680 0.03300
H 	H 	0.86180 0.33700 0.20200 0.04400
H 	H 	0.24980 0.01760 0.27040 0.10700
H 	H 	0.46100 0.00920 0.27700 0.10000
H 	H 	0.26710 0.02070 0.46820 0.07300
H 	H 	0.51160 0.03620 0.14680 0.03500
H 	H 	0.46100 0.93620 0.20200 0.04500
H 	H 	0.47980 0.71200 0.27040 0.10600
H 	H 	0.26200 0.71380 0.27700 0.10000
H 	H 	0.26470 0.51110 0.46820 0.07300
H 	H 	0.34160 0.81700 0.14680 0.03200
H 	H 	0.33700 0.86180 0.20200 0.04300
H 	H 	0.98240 0.75020 0.72960 0.10700
H 	H 	0.99080 0.53900 0.72300 0.10000
H 	H 	0.97930 0.73290 0.53180 0.07300
H 	H 	0.96380 0.48840 0.85320 0.03500
H 	H 	0.06380 0.53900 0.79800 0.04500
H 	H 	0.28800 0.52020 0.72960 0.10600
H 	H 	0.28620 0.73800 0.72300 0.10000
H 	H 	0.48890 0.73530 0.53180 0.07300
H 	H 	0.18300 0.65840 0.85320 0.03200
H 	H 	0.13820 0.66300 0.79800 0.04300
H 	H 	0.43620 0.88660 1.00000 0.06600
H 	H 	0.56380 0.11340 1.00000 0.06900
H 	H 	0.11340 0.56380 -0.00000 0.06600
H 	H 	0.88660 0.43620 -0.00000 0.06900
C 	C 	0.84870 0.98310 0.58040 0.33100
C 	C 	0.75722 0.98022 0.62196 -0.01600
C 	C 	0.71920 0.98340 0.70140 -0.13300
C 	C 	0.63906 0.98766 0.73448 0.20700
C 	C 	0.59509 0.98789 0.69762 -0.15100
C 	C 	0.62832 0.98392 0.62096 -0.01500
C 	C 	0.70935 0.98095 0.58390 -0.03000
C 	C 	0.53490 0.00730 0.84060 0.01200
C 	C 	0.51952 0.00492 0.92196 0.02400
C 	C 	0.57740 0.98720 0.57840 0.34500
C 	C 	0.57090 0.43650 0.58040 0.33100
C 	C 	0.62082 0.39782 0.62196 -0.01600
C 	C 	0.57940 0.31520 0.70140 -0.13400
C 	C 	0.62646 0.27786 0.73448 0.20700
C 	C 	0.70729 0.31449 0.69762 -0.15200
C 	C 	0.75072 0.39512 0.62096 -0.01500
C 	C 	0.70675 0.43515 0.58390 -0.03000
C 	C 	0.62450 0.15210 0.84060 0.01200
C 	C 	0.55852 0.07312 0.92196 0.03000
C 	C 	0.84420 0.43440 0.57840 0.34500
C 	C 	0.01690 0.15130 0.41960 0.33100
C 	C 	0.01978 0.24278 0.37804 -0.01600
C 	C 	0.01660 0.28080 0.29860 -0.13300
C 	C 	0.01234 0.36094 0.26552 0.20700
C 	C 	0.01211 0.40491 0.30238 -0.15100
C 	C 	0.01608 0.37168 0.37904 -0.01500
C 	C 	0.01905 0.29065 0.41610 -0.03000
C 	C 	0.99270 0.46510 0.15940 0.01200
C 	C 	0.99508 0.48048 0.07804 0.02400
C 	C 	0.01280 0.42260 0.42160 0.34500
C 	C 	0.56350 0.42910 0.41960 0.33100
C 	C 	0.60218 0.37918 0.37804 -0.01600
C 	C 	0.68480 0.42060 0.29860 -0.13400
C 	C 	0.72214 0.37354 0.26552 0.20700
C 	C 	0.68551 0.29271 0.30238 -0.15200
C 	C 	0.60488 0.24928 0.37904 -0.01500
C 	C 	0.56485 0.29325 0.41610 -0.03000
C 	C 	0.84790 0.37550 0.15940 0.01200
C 	C 	0.92688 0.44148 0.07804 0.03000
C 	C 	0.56560 0.15580 0.42160 0.34500
C 	C 	0.15130 0.01690 0.41960 0.33100
C 	C 	0.24278 0.01978 0.37804 -0.01600
C 	C 	0.28080 0.01660 0.29860 -0.13300
C 	C 	0.36094 0.01234 0.26552 0.20700
C 	C 	0.40491 0.01211 0.30238 -0.15100
C 	C 	0.37168 0.01608 0.37904 -0.01500
C 	C 	0.29065 0.01905 0.41610 -0.03000
C 	C 	0.46510 0.99270 0.15940 0.00800
C 	C 	0.48048 0.99508 0.07804 0.03100
C 	C 	0.42260 0.01280 0.42160 0.34500
C 	C 	0.42910 0.56350 0.41960 0.33100
C 	C 	0.37918 0.60218 0.37804 -0.01600
C 	C 	0.42060 0.68480 0.29860 -0.13400
C 	C 	0.37354 0.72214 0.26552 0.20800
C 	C 	0.29271 0.68551 0.30238 -0.15200
C 	C 	0.24928 0.60488 0.37904 -0.01500
C 	C 	0.29325 0.56485 0.41610 -0.03100
C 	C 	0.37550 0.84790 0.15940 0.01600
C 	C 	0.44148 0.92688 0.07804 0.02300
C 	C 	0.15580 0.56560 0.42160 0.34500
C 	C 	0.98310 0.84870 0.58040 0.33100
C 	C 	0.98022 0.75722 0.62196 -0.01600
C 	C 	0.98340 0.71920 0.70140 -0.13300
C 	C 	0.98766 0.63906 0.73448 0.20700
C 	C 	0.98789 0.59509 0.69762 -0.15100
C 	C 	0.98392 0.62832 0.62096 -0.01500
C 	C 	0.98095 0.70935 0.58390 -0.03000
C 	C 	0.00730 0.53490 0.84060 0.00800
C 	C 	0.00492 0.51952 0.92196 0.03100
C 	C 	0.98720 0.57740 0.57840 0.34500
C 	C 	0.43650 0.57090 0.58040 0.33100
C 	C 	0.39782 0.62082 0.62196 -0.01600
C 	C 	0.31520 0.57940 0.70140 -0.13400
C 	C 	0.27786 0.62646 0.73448 0.20800
C 	C 	0.31449 0.70729 0.69762 -0.15200
C 	C 	0.39512 0.75072 0.62096 -0.01500
C 	C 	0.43515 0.70675 0.58390 -0.03100
C 	C 	0.15210 0.62450 0.84060 0.01600
C 	C 	0.07312 0.55852 0.92196 0.02300
C 	C 	0.43440 0.84420 0.57840 0.34500
C 	C 	0.46220 0.93320 1.00000 -0.07400
C 	C 	0.53780 0.06680 1.00000 -0.08300
C 	C 	0.06680 0.53780 -0.00000 -0.07400
C 	C 	0.93320 0.46220 -0.00000 -0.08300
O 	O 	0.87410 0.97468 0.51372 -0.39800
O 	O 	0.50447 0.98995 0.61418 -0.41100
O 	O 	0.88876 0.98880 0.61552 -0.40500
O 	O 	0.61517 0.98519 0.50924 -0.40300
O 	O 	0.61044 0.99038 0.81008 -0.22300
O 	O 	0.61218 0.51160 0.51372 -0.39900
O 	O 	0.88135 0.39587 0.61418 -0.41100
O 	O 	0.49572 0.39568 0.61552 -0.40500
O 	O 	0.87559 0.50557 0.50924 -0.40300
O 	O 	0.57948 0.19954 0.81008 -0.22400
O 	O 	0.02532 0.12590 0.48628 -0.39800
O 	O 	0.01005 0.49553 0.38582 -0.41100
O 	O 	0.01120 0.11124 0.38448 -0.40500
O 	O 	0.01481 0.38483 0.49076 -0.40300
O 	O 	0.00962 0.38956 0.18992 -0.22300
O 	O 	0.48840 0.38782 0.48628 -0.39900
O 	O 	0.60413 0.11865 0.38582 -0.41100
O 	O 	0.60432 0.50428 0.38448 -0.40500
O 	O 	0.49443 0.12441 0.49076 -0.40300
O 	O 	0.80046 0.42052 0.18992 -0.22400
O 	O 	0.12590 0.02532 0.48628 -0.39900
O 	O 	0.49553 0.01005 0.38582 -0.41100
O 	O 	0.11124 0.01120 0.38448 -0.40500
O 	O 	0.38483 0.01481 0.49076 -0.40300
O 	O 	0.38956 0.00962 0.18992 -0.22100
O 	O 	0.38782 0.48840 0.48628 -0.39900
O 	O 	0.11865 0.60413 0.38582 -0.41100
O 	O 	0.50428 0.60432 0.38448 -0.40500
O 	O 	0.12441 0.49443 0.49076 -0.40300
O 	O 	0.42052 0.80046 0.18992 -0.22400
O 	O 	0.97468 0.87410 0.51372 -0.39900
O 	O 	0.98995 0.50447 0.61418 -0.41100
O 	O 	0.98880 0.88876 0.61552 -0.40500
O 	O 	0.98519 0.61517 0.50924 -0.40300
O 	O 	0.99038 0.61044 0.81008 -0.22100
O 	O 	0.51160 0.61218 0.51372 -0.39900
O 	O 	0.39587 0.88135 0.61418 -0.41100
O 	O 	0.39568 0.49572 0.61552 -0.40500
O 	O 	0.50557 0.87559 0.50924 -0.40300
O 	O 	0.19954 0.57948 0.81008 -0.22400
