data_crystal

_cell_length_a 23.11850
_cell_length_b 23.11850
_cell_length_c 9.94400
_cell_angle_alpha 101.77870
_cell_angle_beta  101.77870
_cell_angle_gamma 24.31620

_symmetry_space_group_name_	'P 1'
_symmetry_space_group_name_H-M	'P 1'

loop_
_symmetry_equiv_pos_as_xyz
  x,y,z

loop_
_atom_site_label
_atom_site_type_symbol
_atom_site_fract_x
_atom_site_fract_y
_atom_site_fract_z
_atom_site_charge
O 	O 	0.09734 0.73903 0.63798 -0.46800
O 	O 	0.07427 0.81920 0.50198 -0.55500
C 	C 	0.31601 0.59009 0.61832 -0.09200
C 	C 	0.35058 0.61882 0.65478 0.00400
H 	H 	0.26680 0.72670 0.65394 0.01100
C 	C 	0.42183 0.67999 0.78463 -0.03700
H 	H 	0.31890 0.76004 0.80813 0.04700
C 	C 	0.45175 0.71332 0.81115 -0.03000
H 	H 	0.37137 0.81727 0.85254 0.06100
C 	C 	0.51880 0.77724 0.77605 -0.03600
H 	H 	0.41876 0.85276 0.72614 0.06200
C 	C 	0.55001 0.80933 0.80073 -0.03000
H 	H 	0.47121 0.91090 0.77293 0.04800
C 	C 	0.79742 0.69527 0.00918 -0.03900
H 	H 	0.83396 0.63571 0.08203 0.04300
C 	C 	0.83276 0.72285 0.03666 -0.04600
H 	H 	0.89831 0.67981 0.12788 0.03900
C 	C 	0.70142 0.85479 0.83095 -0.04200
H 	H 	0.66056 0.91917 0.76178 0.04300
C 	C 	0.66720 0.82550 0.80238 -0.03700
H 	H 	0.60452 0.86468 0.70981 0.04400
C 	C 	0.16265 0.71409 0.58779 0.31700
O 	O 	0.30817 0.86394 0.46010 -0.49300
O 	O 	0.16987 0.92593 0.34533 -0.55800
C 	C 	0.43213 0.66153 0.36650 -0.09800
C 	C 	0.40544 0.62552 0.31696 0.00300
H 	H 	0.29826 0.70946 0.28693 0.03100
C 	C 	0.34431 0.55264 0.29062 -0.03800
H 	H 	0.26251 0.65660 0.33319 0.05300
C 	C 	0.31422 0.51964 0.26289 -0.02800
H 	H 	0.21084 0.59930 0.28402 0.05400
C 	C 	0.25543 0.44625 0.12616 -0.03700
H 	H 	0.17799 0.54644 0.09518 0.05800
C 	C 	0.22400 0.41467 0.10216 -0.03100
H 	H 	0.12243 0.49263 0.05508 0.04600
C 	C 	0.30609 0.81631 0.39238 0.33900
O 	O 	0.90543 0.25762 0.36289 -0.47300
O 	O 	0.92853 0.17754 0.49922 -0.56300
C 	C 	0.68673 0.40665 0.38279 -0.09500
C 	C 	0.65213 0.37797 0.34616 0.00600
H 	H 	0.73590 0.27006 0.34677 0.01400
C 	C 	0.58058 0.31710 0.21598 -0.04200
H 	H 	0.68337 0.23723 0.19220 0.06600
C 	C 	0.55067 0.28375 0.18942 -0.02400
H 	H 	0.63097 0.17990 0.14765 0.06300
C 	C 	0.48383 0.21961 0.22443 -0.03600
H 	H 	0.58407 0.14386 0.27400 0.06200
C 	C 	0.45251 0.18763 0.19986 -0.03000
H 	H 	0.53146 0.08589 0.22724 0.04700
C 	C 	0.20440 0.30244 0.99222 -0.04000
H 	H 	0.16745 0.36240 0.91958 0.04300
C 	C 	0.16912 0.27479 0.96472 -0.04900
H 	H 	0.10331 0.31810 0.87366 0.04100
C 	C 	0.30130 0.14201 0.16992 -0.04400
H 	H 	0.34256 0.07724 0.23885 0.04300
C 	C 	0.33547 0.17135 0.19853 -0.03600
H 	H 	0.39846 0.13185 0.29092 0.04300
C 	C 	0.84013 0.28262 0.41328 0.31700
O 	O 	0.69460 0.13283 0.54090 -0.49200
O 	O 	0.83287 0.07082 0.65586 -0.54000
C 	C 	0.57058 0.33527 0.63469 -0.09200
C 	C 	0.59717 0.37139 0.68439 -0.00100
H 	H 	0.70426 0.28754 0.71477 0.04600
C 	C 	0.65832 0.44425 0.71063 -0.03800
H 	H 	0.74020 0.34018 0.66832 0.05500
C 	C 	0.68842 0.47722 0.73836 -0.03000
H 	H 	0.79191 0.39746 0.71753 0.05300
C 	C 	0.74678 0.55107 0.87531 -0.03700
H 	H 	0.82405 0.45106 0.90674 0.05500
C 	C 	0.77810 0.58276 0.89945 -0.03200
H 	H 	0.87944 0.50506 0.94702 0.04400
C 	C 	0.69665 0.18047 0.60877 0.33700
In	In	0.90584 0.92395 0.54528 2.02900
In	In	0.09696 0.07278 0.45577 2.03000
O 	O 	0.88318 0.86853 0.40919 -0.52200
O 	O 	0.89878 0.93574 0.35013 -0.56500
O 	O 	0.90582 0.94444 0.86091 -0.29300
O 	O 	0.87611 0.89507 0.67749 -0.45600
C 	C 	0.42754 0.44653 0.60550 0.04500
H 	H 	0.40357 0.42186 0.56943 0.04600
C 	C 	0.48978 0.51165 0.69131 -0.01400
C 	C 	0.52383 0.54545 0.73061 0.01900
C 	C 	0.58491 0.61270 0.78705 0.01300
C 	C 	0.61680 0.64789 0.81343 0.01700
C 	C 	0.68047 0.71219 0.86264 0.00800
C 	C 	0.71479 0.74534 0.89146 0.00900
C 	C 	0.78476 0.80387 0.94889 0.01400
C 	C 	0.81822 0.83808 -0.01496 -0.02300
C 	C 	0.83285 0.85272 0.12471 0.00300
H 	H 	0.81267 0.84695 0.20438 0.04000
C 	C 	0.86954 0.87887 0.16393 -0.11800
C 	C 	0.88781 0.89532 0.06285 0.02900
H 	H 	0.91491 0.91702 0.09445 0.05100
C 	C 	0.86922 0.88671 0.92227 -0.08200
C 	C 	0.83604 0.85608 0.88368 -0.00500
H 	H 	0.82544 0.84523 0.77567 0.04700
C 	C 	0.88444 0.89405 0.31056 0.35200
C 	C 	0.88456 0.91096 0.81963 0.29400
O 	O 	0.11955 0.12833 0.59179 -0.52100
O 	O 	0.10403 0.06106 0.65086 -0.57600
O 	O 	0.09770 0.05152 0.14015 -0.30700
O 	O 	0.12652 0.10180 0.32348 -0.45700
C 	C 	0.57520 0.55024 0.39562 0.04800
H 	H 	0.59913 0.57495 0.43153 0.04500
C 	C 	0.51285 0.48523 0.30974 -0.01700
C 	C 	0.47873 0.45150 0.27037 0.02300
C 	C 	0.41762 0.38427 0.21390 0.01100
C 	C 	0.38569 0.34913 0.18750 0.01800
C 	C 	0.32181 0.28504 0.13848 0.00800
C 	C 	0.28743 0.25194 0.10970 0.01100
C 	C 	0.21759 0.19330 0.05221 0.02100
C 	C 	0.18426 0.15895 1.01601 -0.03000
C 	C 	0.16951 0.14447 0.87632 0.00800
H 	H 	0.18933 0.15062 0.79661 0.03800
C 	C 	0.13320 0.11794 0.83707 -0.12500
C 	C 	0.11537 0.10101 0.93814 0.03500
H 	H 	0.08875 0.07881 0.90655 0.03200
C 	C 	0.13382 0.10973 0.07872 -0.08800
C 	C 	0.16672 0.14064 0.11732 0.00100
H 	H 	0.17733 0.15145 0.22535 0.04600
C 	C 	0.11832 0.10279 0.69044 0.35600
C 	C 	0.11855 0.08540 0.18138 0.29900
Li	Li	0.96656 0.98128 0.56346 0.53300
O 	O 	-0.00343 0.03492 0.77822 -0.54800
Li	Li	0.03618 0.01551 0.43773 0.53000
O 	O 	0.97322 0.98009 0.20367 -0.46000
H 	H 	-0.05246 0.11526 0.82555 0.18600
H 	H 	0.05547 -0.00456 0.71177 0.12200
H 	H 	0.06441 -0.03636 0.84877 0.17300
H 	H 	0.97461 0.98108 0.30422 0.08300
H 	H 	0.97790 1.01748 0.19347 0.12800
H 	H 	1.06585 0.87916 0.17544 0.15700
