data_crystal

_cell_length_a 21.86300
_cell_length_b 10.03500
_cell_length_c 13.85400
_cell_angle_alpha 90.00000
_cell_angle_beta  91.53000
_cell_angle_gamma 90.00000

_symmetry_space_group_name_	'P 1'
_symmetry_space_group_name_H-M	'P 1'

loop_
_symmetry_equiv_pos_as_xyz
  x,y,z

loop_
_atom_site_label
_atom_site_type_symbol
_atom_site_fract_x
_atom_site_fract_y
_atom_site_fract_z
_atom_site_charge
Gd	Gd	0.25952 0.56098 0.26962 1.58900
O 	O 	0.36389 0.49610 0.21557 -0.43400
O 	O 	0.32390 0.66590 0.13739 -0.55400
O 	O 	0.21451 0.76380 0.20536 -0.52900
O 	O 	0.21829 0.52560 0.10940 -0.53500
C 	C 	0.36713 0.58110 0.14980 0.48500
Gd	Gd	0.24855 0.74949 0.02903 1.69600
C 	C 	0.18268 0.86770 0.18580 0.47500
C 	C 	0.16531 0.53620 0.06860 0.48300
C 	C 	0.41892 0.58440 0.08050 -0.49900
O 	O 	0.18790 0.92270 0.10572 -0.44000
O 	O 	0.31454 0.92800 0.03714 -0.51100
O 	O 	0.15263 0.63610 0.01746 -0.45700
O 	O 	0.30934 0.76200 0.86111 -0.50100
O 	O 	0.28024 0.57230 0.92266 -0.44900
O 	O 	0.19643 0.86390 0.90427 -0.56900
C 	C 	0.13907 0.92410 0.25760 -0.47800
C 	C 	0.11916 0.42630 0.08100 -0.49500
H 	H 	0.42130 0.67360 0.05380 0.17700
H 	H 	0.40910 0.52430 0.02750 0.17500
C 	C 	0.48124 0.54760 0.12180 0.18100
C 	C 	0.32928 0.02530 0.98580 0.56300
C 	C 	0.30655 0.63590 0.85670 0.46600
C 	C 	0.14709 0.92170 0.87300 0.51600
H 	H 	0.15810 0.99950 0.29020 0.16700
H 	H 	0.13060 0.85690 0.30580 0.17400
C 	C 	0.07930 0.96860 0.20950 0.15300
H 	H 	0.11570 0.40690 0.14920 0.18300
H 	H 	0.13360 0.34640 0.04950 0.17000
C 	C 	0.05685 0.46240 0.03950 0.17600
C 	C 	0.52591 0.64340 0.13490 -0.13200
C 	C 	0.49581 0.41580 0.14450 -0.11700
C 	C 	0.37850 0.11590 0.02720 -0.53600
O 	O 	0.30644 0.05080 0.90384 -0.49500
O 	O 	0.14938 0.98290 0.79620 -0.46200
C 	C 	0.33658 0.56040 0.77720 -0.47700
C 	C 	0.09019 0.91010 0.93180 -0.53300
C 	C 	0.06776 0.10070 0.18930 -0.09400
C 	C 	0.03589 0.87450 0.18000 -0.10100
C 	C 	0.04313 0.44130 0.94220 -0.10500
C 	C 	0.01341 0.52120 0.09680 -0.12000
H 	H 	0.51680 0.73200 0.12110 0.07700
C 	C 	0.58453 0.60910 0.16850 -0.10600
C 	C 	0.55403 0.38260 0.17840 -0.10600
H 	H 	0.46630 0.34970 0.13680 0.07500
H 	H 	0.37220 0.12920 0.09550 0.18700
H 	H 	0.37610 0.20200 0.99550 0.19100
C 	C 	0.44152 0.05500 0.01280 0.17500
C 	C 	0.40096 0.52180 0.80970 0.15200
H 	H 	0.31310 0.48100 0.76150 0.16700
H 	H 	0.33800 0.61550 0.71970 0.17700
C 	C 	0.03141 0.95320 0.88130 0.19300
H 	H 	0.09590 0.96320 0.98990 0.19800
H 	H 	0.08580 0.81800 0.95170 0.19900
H 	H 	0.09700 0.16450 0.20580 0.05400
C 	C 	0.01310 0.14000 0.14450 -0.13800
C 	C 	0.98116 0.91420 0.13580 -0.12500
H 	H 	0.04360 0.78430 0.19000 0.06700
H 	H 	0.07190 0.40200 0.90300 0.06200
H 	H 	0.02220 0.53560 0.16200 0.07900
H 	H 	0.61420 0.67500 0.17630 0.06200
H 	H 	0.56300 0.29430 0.19340 0.07100
C 	C 	0.48451 0.04750 0.08880 -0.11600
C 	C 	0.45815 0.00540 0.92390 -0.11800
H 	H 	0.00620 0.22980 0.13170 0.07700
H 	H 	0.95240 0.85010 0.11740 0.07500
H 	H 	0.47420 0.07900 0.14940 0.07300
H 	H 	0.43020 0.00800 0.87210 0.08600
Gd	Gd	0.74048 0.06098 0.23038 1.58900
O 	O 	0.63611 0.99610 0.28443 -0.43100
O 	O 	0.67610 0.16590 0.36261 -0.55200
O 	O 	0.78549 0.26380 0.29464 -0.52800
O 	O 	0.78171 0.02560 0.39060 -0.53400
C 	C 	0.63287 0.08110 0.35020 0.48400
Gd	Gd	0.75145 0.24949 0.47097 1.69600
C 	C 	0.81732 0.36770 0.31420 0.47600
C 	C 	0.83469 0.03620 0.43140 0.48300
C 	C 	0.58108 0.08440 0.41950 -0.49700
O 	O 	0.81210 0.42270 0.39428 -0.43900
O 	O 	0.68546 0.42800 0.46286 -0.50900
O 	O 	0.84737 0.13610 0.48254 -0.45700
O 	O 	0.69066 0.26200 0.63889 -0.50100
O 	O 	0.71976 0.07230 0.57734 -0.45000
O 	O 	0.80357 0.36390 0.59573 -0.56900
C 	C 	0.86093 0.42410 0.24240 -0.47700
C 	C 	0.88084 0.92630 0.41900 -0.49500
H 	H 	0.57870 0.17360 0.44620 0.17600
H 	H 	0.59090 0.02430 0.47250 0.17400
C 	C 	0.51876 0.04760 0.37820 0.17900
C 	C 	0.67072 0.52530 0.51420 0.56000
C 	C 	0.69345 0.13590 0.64330 0.46700
C 	C 	0.85291 0.42170 0.62700 0.51700
H 	H 	0.84190 0.49950 0.20980 0.16700
H 	H 	0.86940 0.35690 0.19420 0.17400
C 	C 	0.92070 0.46860 0.29050 0.15100
H 	H 	0.88430 0.90690 0.35080 0.18300
H 	H 	0.86640 0.84640 0.45050 0.17000
C 	C 	0.94315 0.96240 0.46050 0.17800
C 	C 	0.47409 0.14340 0.36510 -0.13100
C 	C 	0.50419 0.91580 0.35550 -0.11600
C 	C 	0.62150 0.61590 0.47280 -0.53300
O 	O 	0.69356 0.55080 0.59616 -0.49500
O 	O 	0.85062 0.48290 0.70380 -0.46100
C 	C 	0.66342 0.06040 0.72280 -0.47800
C 	C 	0.90981 0.41010 0.56820 -0.53600
C 	C 	0.93224 0.60070 0.31070 -0.09200
C 	C 	0.96411 0.37450 0.32000 -0.09600
C 	C 	0.95687 0.94130 0.55780 -0.10400
C 	C 	0.98659 0.02120 0.40320 -0.12200
H 	H 	0.48320 0.23200 0.37890 0.07700
C 	C 	0.41547 0.10910 0.33150 -0.10700
C 	C 	0.44597 0.88260 0.32160 -0.10700
H 	H 	0.53370 0.84970 0.36320 0.07500
H 	H 	0.62780 0.62920 0.40450 0.18700
H 	H 	0.62390 0.70200 0.50450 0.18900
C 	C 	0.55848 0.55500 0.48720 0.17400
C 	C 	0.59904 0.02180 0.69030 0.15200
H 	H 	0.68690 0.98100 0.73850 0.16700
H 	H 	0.66200 0.11550 0.78030 0.17800
C 	C 	0.96859 0.45320 0.61870 0.19900
H 	H 	0.90410 0.46320 0.51010 0.19900
H 	H 	0.91420 0.31800 0.54830 0.20000
H 	H 	0.90300 0.66450 0.29420 0.05300
C 	C 	0.98690 0.64000 0.35550 -0.14200
C 	C 	0.01884 0.41420 0.36420 -0.13300
H 	H 	0.95640 0.28430 0.31000 0.06500
H 	H 	0.92810 0.90200 0.59700 0.06200
H 	H 	0.97780 0.03560 0.33800 0.07900
H 	H 	0.38580 0.17500 0.32370 0.06200
H 	H 	0.43700 0.79430 0.30660 0.07100
C 	C 	0.51549 0.54750 0.41120 -0.11400
C 	C 	0.54185 0.50540 0.57610 -0.12000
H 	H 	0.99380 0.72980 0.36830 0.07800
H 	H 	0.04760 0.35010 0.38260 0.07700
H 	H 	0.52580 0.57900 0.35060 0.07200
H 	H 	0.56980 0.50800 0.62790 0.08600
Gd	Gd	0.74048 0.43902 0.73038 1.59000
O 	O 	0.63611 0.50390 0.78443 -0.43300
O 	O 	0.67610 0.33410 0.86261 -0.55300
O 	O 	0.78549 0.23620 0.79464 -0.52800
O 	O 	0.78171 0.47440 0.89060 -0.53400
C 	C 	0.63287 0.41890 0.85020 0.48600
Gd	Gd	0.75145 0.25051 0.97097 1.69700
C 	C 	0.81732 0.13230 0.81420 0.47600
C 	C 	0.83469 0.46380 0.93140 0.48400
C 	C 	0.58108 0.41560 0.91950 -0.49800
O 	O 	0.81210 0.07730 0.89428 -0.43900
O 	O 	0.68546 0.07200 0.96286 -0.51000
O 	O 	0.84737 0.36390 0.98254 -0.45700
O 	O 	0.69066 0.23800 0.13889 -0.50100
O 	O 	0.71976 0.42770 0.07734 -0.44900
O 	O 	0.80357 0.13610 0.09573 -0.56900
C 	C 	0.86093 0.07590 0.74240 -0.47800
C 	C 	0.88084 0.57370 0.91900 -0.49500
H 	H 	0.57870 0.32640 0.94620 0.17700
H 	H 	0.59090 0.47570 0.97250 0.17500
C 	C 	0.51876 0.45240 0.87820 0.18100
C 	C 	0.67072 0.97470 0.01420 0.56300
C 	C 	0.69345 0.36410 0.14330 0.46600
C 	C 	0.85291 0.07830 0.12700 0.51600
H 	H 	0.84190 0.00050 0.70980 0.16700
H 	H 	0.86940 0.14310 0.69420 0.17400
C 	C 	0.92070 0.03140 0.79050 0.15300
H 	H 	0.88430 0.59310 0.85080 0.18300
H 	H 	0.86640 0.65360 0.95050 0.17000
C 	C 	0.94315 0.53760 0.96050 0.17600
C 	C 	0.47409 0.35660 0.86510 -0.13200
C 	C 	0.50419 0.58420 0.85550 -0.11700
C 	C 	0.62150 0.88410 0.97280 -0.53600
O 	O 	0.69356 0.94920 0.09616 -0.49500
O 	O 	0.85062 0.01710 0.20380 -0.46200
C 	C 	0.66342 0.43960 0.22280 -0.47700
C 	C 	0.90981 0.08990 0.06820 -0.53300
C 	C 	0.93224 0.89930 0.81070 -0.09400
C 	C 	0.96411 0.12550 0.82000 -0.10100
C 	C 	0.95687 0.55870 0.05780 -0.10500
C 	C 	0.98659 0.47880 0.90320 -0.12000
H 	H 	0.48320 0.26800 0.87890 0.07700
C 	C 	0.41547 0.39090 0.83150 -0.10600
C 	C 	0.44597 0.61740 0.82160 -0.10600
H 	H 	0.53370 0.65030 0.86320 0.07500
H 	H 	0.62780 0.87080 0.90450 0.18700
H 	H 	0.62390 0.79800 0.00450 0.19100
C 	C 	0.55848 0.94500 0.98720 0.17500
C 	C 	0.59904 0.47820 0.19030 0.15200
H 	H 	0.68690 0.51900 0.23850 0.16700
H 	H 	0.66200 0.38450 0.28030 0.17700
C 	C 	0.96859 0.04680 0.11870 0.19300
H 	H 	0.90410 0.03680 0.01010 0.19800
H 	H 	0.91420 0.18200 0.04830 0.19900
H 	H 	0.90300 0.83550 0.79420 0.05400
C 	C 	0.98690 0.86000 0.85550 -0.13800
C 	C 	0.01884 0.08580 0.86420 -0.12500
H 	H 	0.95640 0.21570 0.81000 0.06700
H 	H 	0.92810 0.59800 0.09700 0.06200
H 	H 	0.97780 0.46440 0.83800 0.07900
H 	H 	0.38580 0.32500 0.82370 0.06200
H 	H 	0.43700 0.70570 0.80660 0.07100
C 	C 	0.51549 0.95250 0.91120 -0.11600
C 	C 	0.54185 0.99460 0.07610 -0.11800
H 	H 	0.99380 0.77020 0.86830 0.07700
H 	H 	0.04760 0.14990 0.88260 0.07500
H 	H 	0.52580 0.92100 0.85060 0.07300
H 	H 	0.56980 0.99200 0.12790 0.08600
Gd	Gd	0.25952 0.93902 0.76962 1.58900
O 	O 	0.36389 0.00390 0.71557 -0.43100
O 	O 	0.32390 0.83410 0.63739 -0.55200
O 	O 	0.21451 0.73620 0.70536 -0.52800
O 	O 	0.21829 0.97440 0.60940 -0.53400
C 	C 	0.36713 0.91890 0.64980 0.48400
Gd	Gd	0.24855 0.75051 0.52903 1.69600
C 	C 	0.18268 0.63230 0.68580 0.47600
C 	C 	0.16531 0.96380 0.56860 0.48300
C 	C 	0.41892 0.91560 0.58050 -0.49700
O 	O 	0.18790 0.57730 0.60572 -0.43900
O 	O 	0.31454 0.57200 0.53714 -0.50900
O 	O 	0.15263 0.86390 0.51746 -0.45700
O 	O 	0.30934 0.73800 0.36111 -0.50100
O 	O 	0.28024 0.92770 0.42266 -0.45000
O 	O 	0.19643 0.63610 0.40427 -0.56900
C 	C 	0.13907 0.57590 0.75760 -0.47700
C 	C 	0.11916 0.07370 0.58100 -0.49500
H 	H 	0.42130 0.82640 0.55380 0.17600
H 	H 	0.40910 0.97570 0.52750 0.17400
C 	C 	0.48124 0.95240 0.62180 0.17900
C 	C 	0.32928 0.47470 0.48580 0.56000
C 	C 	0.30655 0.86410 0.35670 0.46700
C 	C 	0.14709 0.57830 0.37300 0.51700
H 	H 	0.15810 0.50050 0.79020 0.16700
H 	H 	0.13060 0.64310 0.80580 0.17400
C 	C 	0.07930 0.53140 0.70950 0.15100
H 	H 	0.11570 0.09310 0.64920 0.18300
H 	H 	0.13360 0.15360 0.54950 0.17000
C 	C 	0.05685 0.03760 0.53950 0.17800
C 	C 	0.52591 0.85660 0.63490 -0.13100
C 	C 	0.49581 0.08420 0.64450 -0.11600
C 	C 	0.37850 0.38410 0.52720 -0.53300
O 	O 	0.30644 0.44920 0.40384 -0.49500
O 	O 	0.14938 0.51710 0.29620 -0.46100
C 	C 	0.33658 0.93960 0.27720 -0.47800
C 	C 	0.09019 0.58990 0.43180 -0.53600
C 	C 	0.06776 0.39930 0.68930 -0.09200
C 	C 	0.03589 0.62550 0.68000 -0.09600
C 	C 	0.04313 0.05870 0.44220 -0.10400
C 	C 	0.01341 0.97880 0.59680 -0.12200
H 	H 	0.51680 0.76800 0.62110 0.07700
C 	C 	0.58453 0.89090 0.66850 -0.10700
C 	C 	0.55403 0.11740 0.67840 -0.10700
H 	H 	0.46630 0.15030 0.63680 0.07500
H 	H 	0.37220 0.37080 0.59550 0.18700
H 	H 	0.37610 0.29800 0.49550 0.18900
C 	C 	0.44152 0.44500 0.51280 0.17400
C 	C 	0.40096 0.97820 0.30970 0.15200
H 	H 	0.31310 0.01900 0.26150 0.16700
H 	H 	0.33800 0.88450 0.21970 0.17800
C 	C 	0.03141 0.54680 0.38130 0.19900
H 	H 	0.09590 0.53680 0.48990 0.19900
H 	H 	0.08580 0.68200 0.45170 0.20000
H 	H 	0.09700 0.33550 0.70580 0.05300
C 	C 	0.01310 0.36000 0.64450 -0.14200
C 	C 	0.98116 0.58580 0.63580 -0.13300
H 	H 	0.04360 0.71570 0.69000 0.06500
H 	H 	0.07190 0.09800 0.40300 0.06200
H 	H 	0.02220 0.96440 0.66200 0.07900
H 	H 	0.61420 0.82500 0.67630 0.06200
H 	H 	0.56300 0.20570 0.69340 0.07100
C 	C 	0.48451 0.45250 0.58880 -0.11400
C 	C 	0.45815 0.49460 0.42390 -0.12000
H 	H 	0.00620 0.27020 0.63170 0.07800
H 	H 	0.95240 0.64990 0.61740 0.07700
H 	H 	0.47420 0.42100 0.64940 0.07200
H 	H 	0.43020 0.49200 0.37210 0.08600
