data_crystal

_cell_length_a 10.08200
_cell_length_b 21.78700
_cell_length_c 13.97700
_cell_angle_alpha 91.59000
_cell_angle_beta  90.00000
_cell_angle_gamma 90.00000

_symmetry_space_group_name_	'P 1'
_symmetry_space_group_name_H-M	'P 1'

loop_
_symmetry_equiv_pos_as_xyz
  x,y,z

loop_
_atom_site_label
_atom_site_type_symbol
_atom_site_fract_x
_atom_site_fract_y
_atom_site_fract_z
_atom_site_charge
Tb	Tb	0.93600 0.24034 0.23054 1.88900
Tb	Tb	0.24922 0.74873 0.02738 2.03400
Tb	Tb	0.43600 0.75966 0.26946 1.88900
Tb	Tb	0.74922 0.25127 0.47262 2.03400
Tb	Tb	0.06400 0.75966 0.76946 1.88800
Tb	Tb	0.75078 0.25127 0.97262 2.03300
Tb	Tb	0.56400 0.24034 0.73054 1.88800
Tb	Tb	0.25078 0.74873 0.52738 2.03300
H 	H 	0.59890 0.57170 0.90450 0.06200
H 	H 	0.86980 0.87140 0.09050 0.18900
H 	H 	0.80070 0.87610 0.99040 0.19200
H 	H 	0.58420 0.61610 0.14970 0.18700
H 	H 	0.65030 0.63400 0.05290 0.17300
H 	H 	0.91700 0.97220 0.14630 0.07300
H 	H 	0.21170 0.54340 0.19040 0.06400
H 	H 	0.00040 0.65860 0.28850 0.17200
H 	H 	0.13990 0.62900 0.30580 0.18000
H 	H 	0.83460 0.59610 0.20830 0.05200
H 	H 	0.99960 0.93080 0.87190 0.08500
H 	H 	0.64240 0.96460 0.13630 0.08400
H 	H 	0.31790 0.92250 0.05720 0.18500
H 	H 	0.46490 0.90920 0.02800 0.18400
H 	H 	0.70210 0.06110 0.19010 0.06100
H 	H 	0.32260 0.11440 0.18000 0.05100
H 	H 	0.26470 0.01650 0.12600 0.08400
H 	H 	0.76960 0.50530 0.13290 0.07900
H 	H 	0.14680 0.45230 0.11770 0.07800
H 	H 	0.95990 0.40370 0.01140 0.20200
H 	H 	0.81610 0.41370 0.05070 0.20200
H 	H 	0.61510 0.16090 0.27770 0.17000
H 	H 	0.48280 0.18720 0.23600 0.16000
H 	H 	0.45950 0.52280 0.15930 0.07900
H 	H 	0.09890 0.42830 0.59550 0.06200
H 	H 	0.36980 0.12860 0.40950 0.18900
H 	H 	0.30070 0.12390 0.50960 0.19300
H 	H 	0.08420 0.38390 0.35030 0.18700
H 	H 	0.15030 0.36600 0.44710 0.17300
H 	H 	0.41700 0.02780 0.35370 0.07300
H 	H 	0.71170 0.45660 0.30960 0.06500
H 	H 	0.50040 0.34140 0.21150 0.17300
H 	H 	0.63990 0.37100 0.19420 0.18000
H 	H 	0.33460 0.40390 0.29170 0.05300
H 	H 	0.49960 0.06920 0.62810 0.08500
H 	H 	0.14240 0.03540 0.36370 0.08400
H 	H 	0.81790 0.07750 0.44280 0.18500
H 	H 	0.96490 0.09080 0.47200 0.18300
H 	H 	0.20210 0.93890 0.30990 0.06100
H 	H 	0.82260 0.88560 0.32000 0.05100
H 	H 	0.76470 0.98350 0.37400 0.08400
H 	H 	0.26960 0.49470 0.36710 0.07800
H 	H 	0.64680 0.54770 0.38230 0.07700
H 	H 	0.45990 0.59630 0.48860 0.20100
H 	H 	0.31610 0.58630 0.44930 0.20100
H 	H 	0.11510 0.83910 0.22230 0.17000
H 	H 	0.98280 0.81280 0.26400 0.16100
H 	H 	0.95950 0.47720 0.34070 0.07900
H 	H 	0.40110 0.42830 0.09550 0.06200
H 	H 	0.13020 0.12860 0.90950 0.18900
H 	H 	0.19930 0.12390 0.00960 0.19200
H 	H 	0.41580 0.38390 0.85030 0.18700
H 	H 	0.34970 0.36600 0.94710 0.17300
H 	H 	0.08300 0.02780 0.85370 0.07300
H 	H 	0.78830 0.45660 0.80960 0.06400
H 	H 	0.99960 0.34140 0.71150 0.17200
H 	H 	0.86010 0.37100 0.69420 0.18000
H 	H 	0.16540 0.40390 0.79170 0.05200
H 	H 	0.00040 0.06920 0.12810 0.08500
H 	H 	0.35760 0.03540 0.86370 0.08400
H 	H 	0.68210 0.07750 0.94280 0.18500
H 	H 	0.53510 0.09080 0.97200 0.18400
H 	H 	0.29790 0.93890 0.80990 0.06100
H 	H 	0.67740 0.88560 0.82000 0.05100
H 	H 	0.73530 0.98350 0.87400 0.08400
H 	H 	0.23040 0.49470 0.86710 0.07900
H 	H 	0.85320 0.54770 0.88230 0.07800
H 	H 	0.04010 0.59630 0.98860 0.20200
H 	H 	0.18390 0.58630 0.94930 0.20200
H 	H 	0.38490 0.83910 0.72230 0.17000
H 	H 	0.51720 0.81280 0.76400 0.16000
H 	H 	0.54050 0.47720 0.84070 0.07900
H 	H 	0.90110 0.57170 0.40450 0.06200
H 	H 	0.63020 0.87140 0.59050 0.18900
H 	H 	0.69930 0.87610 0.49040 0.19300
H 	H 	0.91580 0.61610 0.64970 0.18700
H 	H 	0.84970 0.63400 0.55290 0.17300
H 	H 	0.58300 0.97220 0.64630 0.07300
H 	H 	0.28830 0.54340 0.69040 0.06500
H 	H 	0.49960 0.65860 0.78850 0.17300
H 	H 	0.36010 0.62900 0.80580 0.18000
H 	H 	0.66540 0.59610 0.70830 0.05300
H 	H 	0.50040 0.93080 0.37190 0.08500
H 	H 	0.85760 0.96460 0.63630 0.08400
H 	H 	0.18210 0.92250 0.55720 0.18500
H 	H 	0.03510 0.90920 0.52800 0.18300
H 	H 	0.79790 0.06110 0.69010 0.06100
H 	H 	0.17740 0.11440 0.68000 0.05100
H 	H 	0.23530 0.01650 0.62600 0.08400
H 	H 	0.73040 0.50530 0.63290 0.07800
H 	H 	0.35320 0.45230 0.61770 0.07700
H 	H 	0.54010 0.40370 0.51140 0.20100
H 	H 	0.68390 0.41370 0.55070 0.20100
H 	H 	0.88490 0.16090 0.77770 0.17000
H 	H 	0.01720 0.18720 0.73600 0.16100
H 	H 	0.04050 0.52280 0.65930 0.07900
C 	C 	0.55910 0.54290 0.94320 -0.10800
C 	C 	0.97610 0.82800 0.98280 0.61300
C 	C 	0.13650 0.68210 0.18820 0.54100
C 	C 	0.46120 0.66610 0.06640 0.53200
C 	C 	0.88550 0.87810 0.02310 -0.55400
C 	C 	0.53560 0.55730 0.03940 0.18600
C 	C 	0.56880 0.61960 0.08160 -0.52300
C 	C 	0.94670 0.94100 0.01110 0.18200
C 	C 	0.94990 0.98330 0.08710 -0.12000
C 	C 	0.02910 0.57960 0.20720 0.16000
C 	C 	0.12210 0.53590 0.17950 -0.09800
C 	C 	0.07540 0.63870 0.25700 -0.51300
C 	C 	0.41100 0.86620 0.14870 0.55400
C 	C 	0.89850 0.56730 0.18990 -0.09600
C 	C 	0.99910 0.95860 0.92360 -0.12200
C 	C 	0.44800 0.98090 0.12290 0.21200
C 	C 	0.57780 0.99470 0.14400 -0.14800
C 	C 	0.40750 0.91910 0.08190 -0.54400
C 	C 	0.51940 0.09890 0.18870 0.13600
C 	C 	0.61360 0.05270 0.17630 -0.08400
C 	C 	0.38790 0.08470 0.17050 -0.08800
C 	C 	0.35330 0.02570 0.13790 -0.15600
C 	C 	0.85900 0.51240 0.14500 -0.14900
C 	C 	0.08290 0.48110 0.13580 -0.13900
C 	C 	0.95150 0.46850 0.11850 0.21000
C 	C 	0.90820 0.40940 0.06950 -0.55800
C 	C 	0.92080 0.35220 0.12700 0.55300
C 	C 	0.56070 0.16280 0.22060 -0.47300
C 	C 	0.63810 0.19240 0.14180 0.49600
C 	C 	0.47610 0.51380 0.09500 -0.12400
C 	C 	0.05910 0.45710 0.55680 -0.10800
C 	C 	0.47610 0.17200 0.51720 0.61300
C 	C 	0.63650 0.31790 0.31180 0.54200
C 	C 	0.96120 0.33390 0.43360 0.53200
C 	C 	0.38550 0.12190 0.47690 -0.55500
C 	C 	0.03560 0.44270 0.46060 0.18500
C 	C 	0.06880 0.38040 0.41840 -0.52200
C 	C 	0.44670 0.05900 0.48890 0.18100
C 	C 	0.44990 0.01670 0.41290 -0.12100
C 	C 	0.52910 0.42040 0.29280 0.16300
C 	C 	0.62210 0.46410 0.32050 -0.10100
C 	C 	0.57540 0.36130 0.24300 -0.51500
C 	C 	0.91100 0.13380 0.35130 0.55300
C 	C 	0.39850 0.43270 0.31010 -0.09900
C 	C 	0.49910 0.04140 0.57640 -0.12100
C 	C 	0.94800 0.01910 0.37710 0.21100
C 	C 	0.07780 0.00530 0.35600 -0.14600
C 	C 	0.90750 0.08090 0.41810 -0.54300
C 	C 	0.01940 0.90110 0.31130 0.13600
C 	C 	0.11360 0.94730 0.32370 -0.08600
C 	C 	0.88790 0.91530 0.32950 -0.08800
C 	C 	0.85330 0.97430 0.36210 -0.15600
C 	C 	0.35900 0.48760 0.35500 -0.14600
C 	C 	0.58290 0.51890 0.36420 -0.13600
C 	C 	0.45150 0.53150 0.38150 0.20700
C 	C 	0.40820 0.59060 0.43050 -0.55500
C 	C 	0.42080 0.64780 0.37300 0.55300
C 	C 	0.06070 0.83720 0.27940 -0.47500
C 	C 	0.13810 0.80760 0.35820 0.49600
C 	C 	0.97610 0.48620 0.40500 -0.12400
C 	C 	0.44090 0.45710 0.05680 -0.10800
C 	C 	0.02390 0.17200 0.01720 0.61300
C 	C 	0.86350 0.31790 0.81180 0.54100
C 	C 	0.53880 0.33390 0.93360 0.53200
C 	C 	0.11450 0.12190 0.97690 -0.55400
C 	C 	0.46440 0.44270 0.96060 0.18600
C 	C 	0.43120 0.38040 0.91840 -0.52300
C 	C 	0.05330 0.05900 0.98890 0.18200
C 	C 	0.05010 0.01670 0.91290 -0.12000
C 	C 	0.97090 0.42040 0.79280 0.16000
C 	C 	0.87790 0.46410 0.82050 -0.09800
C 	C 	0.92460 0.36130 0.74300 -0.51300
C 	C 	0.58900 0.13380 0.85130 0.55400
C 	C 	0.10150 0.43270 0.81010 -0.09600
C 	C 	0.00090 0.04140 0.07640 -0.12200
C 	C 	0.55200 0.01910 0.87710 0.21200
C 	C 	0.42220 0.00530 0.85600 -0.14800
C 	C 	0.59250 0.08090 0.91810 -0.54400
C 	C 	0.48060 0.90110 0.81130 0.13600
C 	C 	0.38640 0.94730 0.82370 -0.08400
C 	C 	0.61210 0.91530 0.82950 -0.08800
C 	C 	0.64670 0.97430 0.86210 -0.15600
C 	C 	0.14100 0.48760 0.85500 -0.14900
C 	C 	0.91710 0.51890 0.86420 -0.13900
C 	C 	0.04850 0.53150 0.88150 0.21000
C 	C 	0.09180 0.59060 0.93050 -0.55800
C 	C 	0.07920 0.64780 0.87300 0.55300
C 	C 	0.43930 0.83720 0.77940 -0.47300
C 	C 	0.36190 0.80760 0.85820 0.49600
C 	C 	0.52390 0.48620 0.90500 -0.12400
C 	C 	0.94090 0.54290 0.44320 -0.10800
C 	C 	0.52390 0.82800 0.48280 0.61300
C 	C 	0.36350 0.68210 0.68820 0.54200
C 	C 	0.03880 0.66610 0.56640 0.53200
C 	C 	0.61450 0.87810 0.52310 -0.55500
C 	C 	0.96440 0.55730 0.53940 0.18500
C 	C 	0.93120 0.61960 0.58160 -0.52200
C 	C 	0.55330 0.94100 0.51110 0.18100
C 	C 	0.55010 0.98330 0.58710 -0.12100
C 	C 	0.47090 0.57960 0.70720 0.16300
C 	C 	0.37790 0.53590 0.67950 -0.10100
C 	C 	0.42460 0.63870 0.75700 -0.51500
C 	C 	0.08900 0.86620 0.64870 0.55300
C 	C 	0.60150 0.56730 0.68990 -0.09900
C 	C 	0.50090 0.95860 0.42360 -0.12100
C 	C 	0.05200 0.98090 0.62290 0.21100
C 	C 	0.92220 0.99470 0.64400 -0.14600
C 	C 	0.09250 0.91910 0.58190 -0.54300
C 	C 	0.98060 0.09890 0.68870 0.13600
C 	C 	0.88640 0.05270 0.67630 -0.08600
C 	C 	0.11210 0.08470 0.67050 -0.08800
C 	C 	0.14670 0.02570 0.63790 -0.15600
C 	C 	0.64100 0.51240 0.64500 -0.14600
C 	C 	0.41710 0.48110 0.63580 -0.13600
C 	C 	0.54850 0.46850 0.61850 0.20700
C 	C 	0.59180 0.40940 0.56950 -0.55500
C 	C 	0.57920 0.35220 0.62700 0.55300
C 	C 	0.93930 0.16280 0.72060 -0.47500
C 	C 	0.86190 0.19240 0.64180 0.49600
C 	C 	0.02390 0.51380 0.59500 -0.12400
O 	O 	0.32890 0.82333 0.13470 -0.64200
O 	O 	0.06840 0.81148 0.03540 -0.58000
O 	O 	0.08710 0.68740 0.10730 -0.50400
O 	O 	0.23530 0.71445 0.21010 -0.60100
O 	O 	0.46930 0.71787 0.11110 -0.61100
O 	O 	0.36660 0.65476 0.01300 -0.52300
O 	O 	0.49140 0.86340 0.21520 -0.49500
O 	O 	0.04550 0.19292 0.09990 -0.56100
O 	O 	0.98100 0.35080 0.20330 -0.50500
O 	O 	0.86630 0.30255 0.09500 -0.65400
O 	O 	0.76240 0.18999 0.13900 -0.56600
O 	O 	0.57600 0.21760 0.07530 -0.50500
O 	O 	0.82890 0.17667 0.36530 -0.64200
O 	O 	0.56840 0.18852 0.46460 -0.57900
O 	O 	0.58710 0.31260 0.39270 -0.50400
O 	O 	0.73530 0.28555 0.28990 -0.60100
O 	O 	0.96930 0.28213 0.38890 -0.61100
O 	O 	0.86660 0.34524 0.48700 -0.52300
O 	O 	0.99140 0.13660 0.28480 -0.49500
O 	O 	0.54550 0.80708 0.40010 -0.56100
O 	O 	0.48100 0.64920 0.29670 -0.50400
O 	O 	0.36630 0.69745 0.40500 -0.65400
O 	O 	0.26240 0.81001 0.36100 -0.56700
O 	O 	0.07600 0.78240 0.42470 -0.50500
O 	O 	0.67110 0.17667 0.86530 -0.64200
O 	O 	0.93160 0.18852 0.96460 -0.58000
O 	O 	0.91290 0.31260 0.89270 -0.50400
O 	O 	0.76470 0.28555 0.78990 -0.60100
O 	O 	0.53070 0.28213 0.88890 -0.61100
O 	O 	0.63340 0.34524 0.98700 -0.52300
O 	O 	0.50860 0.13660 0.78480 -0.49500
O 	O 	0.95450 0.80708 0.90010 -0.56100
O 	O 	0.01900 0.64920 0.79670 -0.50500
O 	O 	0.13370 0.69745 0.90500 -0.65400
O 	O 	0.23760 0.81001 0.86100 -0.56600
O 	O 	0.42400 0.78240 0.92470 -0.50500
O 	O 	0.17110 0.82333 0.63470 -0.64200
O 	O 	0.43160 0.81148 0.53540 -0.57900
O 	O 	0.41290 0.68740 0.60730 -0.50400
O 	O 	0.26470 0.71445 0.71010 -0.60100
O 	O 	0.03070 0.71787 0.61110 -0.61100
O 	O 	0.13340 0.65476 0.51300 -0.52300
O 	O 	0.00860 0.86340 0.71520 -0.49500
O 	O 	0.45450 0.19292 0.59990 -0.56100
O 	O 	0.51900 0.35080 0.70330 -0.50400
O 	O 	0.63370 0.30255 0.59500 -0.65400
O 	O 	0.73760 0.18999 0.63900 -0.56700
O 	O 	0.92400 0.21760 0.57530 -0.50500
