data_crystal

_cell_length_a 7.98090
_cell_length_b 9.74650
_cell_length_c 15.92650
_cell_angle_alpha 90.00000
_cell_angle_beta  90.00000
_cell_angle_gamma 96.21590

_symmetry_space_group_name_	'P 1'
_symmetry_space_group_name_H-M	'P 1'

loop_
_symmetry_equiv_pos_as_xyz
  x,y,z

loop_
_atom_site_label
_atom_site_type_symbol
_atom_site_fract_x
_atom_site_fract_y
_atom_site_fract_z
_atom_site_charge
Sm	Sm	0.91981 0.13510 0.32673 1.79900
Sm	Sm	0.58019 0.36490 0.82673 1.82400
Sm	Sm	0.08019 0.86490 0.67327 1.80000
Sm	Sm	0.41981 0.63510 0.17327 1.82500
H 	H 	0.96860 0.68496 0.38791 0.05500
H 	H 	0.61737 0.34707 0.25147 -0.04200
H 	H 	0.53140 0.81504 0.88791 0.05200
H 	H 	0.88263 0.15293 0.75147 -0.04200
H 	H 	0.03140 0.31504 0.61209 0.05500
H 	H 	0.38263 0.65293 0.74853 -0.04200
H 	H 	0.46860 0.18496 0.11209 0.05200
H 	H 	0.11737 0.84707 0.24853 -0.04200
C 	C 	0.91350 0.47630 0.36830 -0.01800
C 	C 	0.74270 0.79630 0.28510 0.40600
C 	C 	0.89510 0.61560 0.35910 -0.02100
C 	C 	0.76830 0.64880 0.30680 -0.05800
C 	C 	0.05670 0.42530 0.41830 0.32900
C 	C 	0.68890 0.42050 0.28120 0.12100
C 	C 	0.91060 0.00920 0.51590 0.26300
C 	C 	0.58650 0.02370 0.86830 -0.02200
C 	C 	0.75730 0.70370 0.78510 0.40700
C 	C 	0.60490 0.88440 0.85910 -0.01500
C 	C 	0.73170 0.85120 0.80680 -0.06000
C 	C 	0.44330 0.07470 0.91830 0.33500
C 	C 	0.81110 0.07950 0.78120 0.11200
C 	C 	0.58940 0.49080 0.01590 0.27500
C 	C 	0.08650 0.52370 0.63170 -0.01800
C 	C 	0.25730 0.20370 0.71490 0.40600
C 	C 	0.10490 0.38440 0.64090 -0.02100
C 	C 	0.23170 0.35120 0.69320 -0.05800
C 	C 	0.94330 0.57470 0.58170 0.32900
C 	C 	0.31110 0.57950 0.71880 0.12100
C 	C 	0.08940 0.99080 0.48410 0.26300
C 	C 	0.41350 0.97630 0.13170 -0.02200
C 	C 	0.24270 0.29630 0.21490 0.40700
C 	C 	0.39510 0.11560 0.14090 -0.01500
C 	C 	0.26830 0.14880 0.19320 -0.06000
C 	C 	0.55670 0.92530 0.08170 0.33500
C 	C 	0.18890 0.92050 0.21880 0.11200
C 	C 	0.41060 0.50920 0.98410 0.27500
N 	N 	0.81050 0.37900 0.32940 -0.22600
N 	N 	0.66250 0.55150 0.26840 -0.20600
N 	N 	0.68950 0.12100 0.82940 -0.22500
N 	N 	0.83750 0.94850 0.76840 -0.19900
N 	N 	0.18950 0.62100 0.67060 -0.22600
N 	N 	0.33750 0.44850 0.73160 -0.20600
N 	N 	0.31050 0.87900 0.17060 -0.22500
N 	N 	0.16250 0.05150 0.23160 -0.19900
O 	O 	0.04910 0.29640 0.42855 -0.40300
O 	O 	0.85000 0.88890 0.31136 -0.47600
O 	O 	0.81220 0.05650 0.46447 -0.40100
O 	O 	0.61760 0.81340 0.24057 -0.48100
O 	O 	0.87520 0.97530 0.59008 -0.37600
O 	O 	0.17110 0.51280 0.44246 -0.27000
O 	O 	0.45090 0.20360 0.92855 -0.41000
O 	O 	0.65000 0.61110 0.81136 -0.48200
O 	O 	0.68780 0.44350 0.96447 -0.40300
O 	O 	0.88240 0.68660 0.74057 -0.47800
O 	O 	0.62480 0.52470 0.09008 -0.39000
O 	O 	0.32890 0.98720 0.94246 -0.27500
O 	O 	0.95090 0.70360 0.57145 -0.40300
O 	O 	0.15000 0.11110 0.68864 -0.47600
O 	O 	0.18780 0.94350 0.53553 -0.40100
O 	O 	0.38240 0.18660 0.75943 -0.48100
O 	O 	0.12480 0.02470 0.40992 -0.37600
O 	O 	0.82890 0.48720 0.55754 -0.27000
O 	O 	0.54910 0.79640 0.07145 -0.41000
O 	O 	0.35000 0.38890 0.18864 -0.48200
O 	O 	0.31220 0.55650 0.03553 -0.40300
O 	O 	0.11760 0.31340 0.25943 -0.47800
O 	O 	0.37520 0.47530 0.90992 -0.39000
O 	O 	0.67110 0.01280 0.05754 -0.27500
