data_crystal

_cell_length_a 7.92300
_cell_length_b 9.59260
_cell_length_c 15.79380
_cell_angle_alpha 90.00000
_cell_angle_beta  90.00000
_cell_angle_gamma 96.75900

_symmetry_space_group_name_	'P 1'
_symmetry_space_group_name_H-M	'P 1'

loop_
_symmetry_equiv_pos_as_xyz
  x,y,z

loop_
_atom_site_label
_atom_site_type_symbol
_atom_site_fract_x
_atom_site_fract_y
_atom_site_fract_z
_atom_site_charge
Er	Er	0.92817 0.13278 0.32740 1.52000
Er	Er	0.57183 0.36722 0.82740 1.54100
Er	Er	0.07183 0.86722 0.67260 1.52100
Er	Er	0.42817 0.63278 0.17260 1.54200
H 	H 	0.96860 0.68496 0.38791 0.06800
H 	H 	0.61737 0.34707 0.25147 -0.02800
H 	H 	0.53140 0.81504 0.88791 0.06500
H 	H 	0.88263 0.15293 0.75147 -0.02700
H 	H 	0.03140 0.31504 0.61209 0.06800
H 	H 	0.38263 0.65293 0.74853 -0.02800
H 	H 	0.46860 0.18496 0.11209 0.06500
H 	H 	0.11737 0.84707 0.24853 -0.02700
C 	C 	0.91870 0.47260 0.36780 -0.00100
C 	C 	0.74940 0.79630 0.28260 0.39300
C 	C 	0.89990 0.61420 0.35910 -0.03400
C 	C 	0.77440 0.64690 0.30490 -0.04000
C 	C 	0.06010 0.42200 0.41930 0.31900
C 	C 	0.69700 0.41500 0.27740 0.13000
C 	C 	0.90880 0.00990 0.51490 0.26500
C 	C 	0.58130 0.02740 0.86780 -0.00500
C 	C 	0.75060 0.70370 0.78260 0.39400
C 	C 	0.60010 0.88580 0.85910 -0.02800
C 	C 	0.72560 0.85310 0.80490 -0.04200
C 	C 	0.43990 0.07800 0.91930 0.32400
C 	C 	0.80300 0.08500 0.77740 0.12100
C 	C 	0.59120 0.49010 0.01490 0.27500
C 	C 	0.08130 0.52740 0.63220 -0.00100
C 	C 	0.25060 0.20370 0.71740 0.39300
C 	C 	0.10010 0.38580 0.64090 -0.03400
C 	C 	0.22560 0.35310 0.69510 -0.04000
C 	C 	0.93990 0.57800 0.58070 0.31900
C 	C 	0.30300 0.58500 0.72260 0.13000
C 	C 	0.09120 0.99010 0.48510 0.26500
C 	C 	0.41870 0.97260 0.13220 -0.00500
C 	C 	0.24940 0.29630 0.21740 0.39400
C 	C 	0.39990 0.11420 0.14090 -0.02800
C 	C 	0.27440 0.14690 0.19510 -0.04200
C 	C 	0.56010 0.92200 0.08070 0.32400
C 	C 	0.19700 0.91500 0.22260 0.12100
C 	C 	0.40880 0.50990 0.98510 0.27500
N 	N 	0.81730 0.37360 0.32670 -0.20800
N 	N 	0.66960 0.54790 0.26450 -0.18700
N 	N 	0.68270 0.12640 0.82670 -0.20700
N 	N 	0.83040 0.95210 0.76450 -0.18100
N 	N 	0.18270 0.62640 0.67330 -0.20800
N 	N 	0.33040 0.45210 0.73550 -0.18700
N 	N 	0.31730 0.87360 0.17330 -0.20700
N 	N 	0.16960 0.04790 0.23550 -0.18100
O 	O 	0.05270 0.29010 0.42950 -0.36600
O 	O 	0.85510 0.89120 0.31040 -0.44100
O 	O 	0.81330 0.05650 0.46230 -0.36500
O 	O 	0.62420 0.81280 0.23670 -0.43500
O 	O 	0.87220 0.97760 0.59010 -0.34100
O 	O 	0.17530 0.51080 0.44450 -0.25300
O 	O 	0.44730 0.20990 0.92950 -0.37300
O 	O 	0.64490 0.60880 0.81040 -0.44600
O 	O 	0.68670 0.44350 0.96230 -0.36600
O 	O 	0.87580 0.68720 0.73670 -0.43200
O 	O 	0.62780 0.52240 0.09010 -0.35300
O 	O 	0.32470 0.98920 0.94450 -0.25700
O 	O 	0.94730 0.70990 0.57050 -0.36600
O 	O 	0.14490 0.10880 0.68960 -0.44100
O 	O 	0.18670 0.94350 0.53770 -0.36500
O 	O 	0.37580 0.18720 0.76330 -0.43500
O 	O 	0.12780 0.02240 0.40990 -0.34100
O 	O 	0.82470 0.48920 0.55550 -0.25300
O 	O 	0.55270 0.79010 0.07050 -0.37300
O 	O 	0.35510 0.39120 0.18960 -0.44600
O 	O 	0.31330 0.55650 0.03770 -0.36600
O 	O 	0.12420 0.31280 0.26330 -0.43200
O 	O 	0.37220 0.47760 0.90990 -0.35300
O 	O 	0.67530 0.01080 0.05550 -0.25700
