data_crystal

_cell_length_a 7.95500
_cell_length_b 9.65000
_cell_length_c 15.84500
_cell_angle_alpha 90.00000
_cell_angle_beta  90.00000
_cell_angle_gamma 96.55500

_symmetry_space_group_name_	'P 1'
_symmetry_space_group_name_H-M	'P 1'

loop_
_symmetry_equiv_pos_as_xyz
  x,y,z

loop_
_atom_site_label
_atom_site_type_symbol
_atom_site_fract_x
_atom_site_fract_y
_atom_site_fract_z
_atom_site_charge
Dy	Dy	0.92438 0.13310 0.32710 1.58900
Dy	Dy	0.57562 0.36690 0.82710 1.61000
Dy	Dy	0.07562 0.86690 0.67290 1.59000
Dy	Dy	0.42438 0.63310 0.17290 1.61100
H 	H 	0.96860 0.68496 0.38791 0.06400
H 	H 	0.61737 0.34707 0.25147 -0.03200
H 	H 	0.53140 0.81504 0.88791 0.06100
H 	H 	0.88263 0.15293 0.75147 -0.03200
H 	H 	0.03140 0.31504 0.61209 0.06400
H 	H 	0.38263 0.65293 0.74853 -0.03200
H 	H 	0.46860 0.18496 0.11209 0.06100
H 	H 	0.11737 0.84707 0.24853 -0.03200
C 	C 	0.91610 0.47330 0.36810 -0.00600
C 	C 	0.74610 0.79520 0.28340 0.38900
C 	C 	0.89770 0.61420 0.35890 -0.02900
C 	C 	0.77180 0.64700 0.30540 -0.04500
C 	C 	0.05840 0.42310 0.41880 0.31900
C 	C 	0.69260 0.41680 0.27900 0.12800
C 	C 	0.91020 0.00960 0.51510 0.25700
C 	C 	0.58390 0.02670 0.86810 -0.01000
C 	C 	0.75390 0.70480 0.78340 0.39000
C 	C 	0.60230 0.88580 0.85890 -0.02300
C 	C 	0.72820 0.85300 0.80540 -0.04600
C 	C 	0.44160 0.07690 0.91880 0.32400
C 	C 	0.80740 0.08320 0.77900 0.12000
C 	C 	0.58980 0.49040 0.01510 0.26800
C 	C 	0.08390 0.52670 0.63190 -0.00600
C 	C 	0.25390 0.20480 0.71660 0.38900
C 	C 	0.10230 0.38580 0.64110 -0.02900
C 	C 	0.22820 0.35300 0.69460 -0.04500
C 	C 	0.94160 0.57690 0.58120 0.31900
C 	C 	0.30740 0.58320 0.72100 0.12800
C 	C 	0.08980 0.99040 0.48490 0.25700
C 	C 	0.41610 0.97330 0.13190 -0.01000
C 	C 	0.24610 0.29520 0.21660 0.39000
C 	C 	0.39770 0.11420 0.14110 -0.02300
C 	C 	0.27180 0.14700 0.19460 -0.04600
C 	C 	0.55840 0.92310 0.08120 0.32400
C 	C 	0.19260 0.91680 0.22100 0.12000
C 	C 	0.41020 0.50960 0.98490 0.26800
N 	N 	0.81380 0.37500 0.32780 -0.21200
N 	N 	0.66650 0.54830 0.26590 -0.19200
N 	N 	0.68620 0.12500 0.82780 -0.21100
N 	N 	0.83350 0.95170 0.76590 -0.18500
N 	N 	0.18620 0.62500 0.67220 -0.21200
N 	N 	0.33350 0.45170 0.73410 -0.19200
N 	N 	0.31380 0.87500 0.17220 -0.21100
N 	N 	0.16650 0.04830 0.23410 -0.18500
O 	O 	0.05050 0.29180 0.42940 -0.37200
O 	O 	0.85270 0.89040 0.31050 -0.44500
O 	O 	0.81260 0.05670 0.46310 -0.37000
O 	O 	0.62070 0.81240 0.23830 -0.44400
O 	O 	0.87390 0.97710 0.59040 -0.34600
O 	O 	0.17340 0.51080 0.44350 -0.25700
O 	O 	0.44950 0.20820 0.92940 -0.37900
O 	O 	0.64730 0.60960 0.81050 -0.45100
O 	O 	0.68740 0.44330 0.96310 -0.37100
O 	O 	0.87930 0.68760 0.73830 -0.44100
O 	O 	0.62610 0.52290 0.09040 -0.35900
O 	O 	0.32660 0.98920 0.94350 -0.26200
O 	O 	0.94950 0.70820 0.57060 -0.37200
O 	O 	0.14730 0.10960 0.68950 -0.44500
O 	O 	0.18740 0.94330 0.53690 -0.37000
O 	O 	0.37930 0.18760 0.76170 -0.44400
O 	O 	0.12610 0.02290 0.40960 -0.34600
O 	O 	0.82660 0.48920 0.55650 -0.25700
O 	O 	0.55050 0.79180 0.07060 -0.37900
O 	O 	0.35270 0.39040 0.18950 -0.45100
O 	O 	0.31260 0.55670 0.03690 -0.37100
O 	O 	0.12070 0.31240 0.26170 -0.44100
O 	O 	0.37390 0.47710 0.90960 -0.35900
O 	O 	0.67340 0.01080 0.05650 -0.26200
