data_crystal

_cell_length_a 7.93750
_cell_length_b 9.62190
_cell_length_c 15.82160
_cell_angle_alpha 90.00000
_cell_angle_beta  90.00000
_cell_angle_gamma 96.62500

_symmetry_space_group_name_	'P 1'
_symmetry_space_group_name_H-M	'P 1'

loop_
_symmetry_equiv_pos_as_xyz
  x,y,z

loop_
_atom_site_label
_atom_site_type_symbol
_atom_site_fract_x
_atom_site_fract_y
_atom_site_fract_z
_atom_site_charge
Ho	Ho	0.92724 0.13308 0.32723 1.55800
Ho	Ho	0.57276 0.36692 0.82723 1.57900
Ho	Ho	0.07276 0.86692 0.67277 1.55700
Ho	Ho	0.42724 0.63308 0.17277 1.57800
H 	H 	0.96860 0.68496 0.38791 0.06500
H 	H 	0.61737 0.34707 0.25147 -0.02900
H 	H 	0.53140 0.81504 0.88791 0.06200
H 	H 	0.88263 0.15293 0.75147 -0.02800
H 	H 	0.03140 0.31504 0.61209 0.06500
H 	H 	0.38263 0.65293 0.74853 -0.02900
H 	H 	0.46860 0.18496 0.11209 0.06200
H 	H 	0.11737 0.84707 0.24853 -0.02800
C 	C 	0.91810 0.47290 0.36790 -0.00300
C 	C 	0.74870 0.79580 0.28290 0.38900
C 	C 	0.89950 0.61380 0.35860 -0.03100
C 	C 	0.77470 0.64730 0.30500 -0.04400
C 	C 	0.06040 0.42260 0.41890 0.32000
C 	C 	0.69660 0.41550 0.27800 0.12700
C 	C 	0.90880 0.00990 0.51500 0.26600
C 	C 	0.58190 0.02710 0.86790 -0.00700
C 	C 	0.75130 0.70420 0.78290 0.39100
C 	C 	0.60050 0.88620 0.85860 -0.02500
C 	C 	0.72530 0.85270 0.80500 -0.04500
C 	C 	0.43960 0.07740 0.91890 0.32600
C 	C 	0.80340 0.08450 0.77800 0.11900
C 	C 	0.59120 0.49010 0.01500 0.27700
C 	C 	0.08190 0.52710 0.63210 -0.00300
C 	C 	0.25130 0.20420 0.71710 0.38900
C 	C 	0.10050 0.38620 0.64140 -0.03100
C 	C 	0.22530 0.35270 0.69500 -0.04400
C 	C 	0.93960 0.57740 0.58110 0.32000
C 	C 	0.30340 0.58450 0.72200 0.12700
C 	C 	0.09120 0.99010 0.48500 0.26600
C 	C 	0.41810 0.97290 0.13210 -0.00700
C 	C 	0.24870 0.29580 0.21710 0.39100
C 	C 	0.39950 0.11380 0.14140 -0.02500
C 	C 	0.27470 0.14730 0.19500 -0.04500
C 	C 	0.56040 0.92260 0.08110 0.32600
C 	C 	0.19660 0.91550 0.22200 0.11900
C 	C 	0.40880 0.50990 0.98500 0.27700
N 	N 	0.81720 0.37430 0.32724 -0.21000
N 	N 	0.66880 0.54780 0.26502 -0.18900
N 	N 	0.68280 0.12570 0.82724 -0.20900
N 	N 	0.83120 0.95220 0.76502 -0.18200
N 	N 	0.18280 0.62570 0.67276 -0.21000
N 	N 	0.33120 0.45220 0.73498 -0.18900
N 	N 	0.31720 0.87430 0.17276 -0.20900
N 	N 	0.16880 0.04780 0.23498 -0.18200
O 	O 	0.05150 0.29160 0.42931 -0.37200
O 	O 	0.85610 0.89090 0.31012 -0.44100
O 	O 	0.81300 0.05640 0.46227 -0.37000
O 	O 	0.62360 0.81260 0.23746 -0.44000
O 	O 	0.87270 0.97740 0.58974 -0.34700
O 	O 	0.17520 0.51140 0.44439 -0.25500
O 	O 	0.44850 0.20840 0.92931 -0.37800
O 	O 	0.64390 0.60910 0.81012 -0.44700
O 	O 	0.68700 0.44360 0.96227 -0.37100
O 	O 	0.87640 0.68740 0.73746 -0.43700
O 	O 	0.62730 0.52260 0.08974 -0.35900
O 	O 	0.32480 0.98860 0.94439 -0.25900
O 	O 	0.94850 0.70840 0.57069 -0.37200
O 	O 	0.14390 0.10910 0.68988 -0.44100
O 	O 	0.18700 0.94360 0.53773 -0.37000
O 	O 	0.37640 0.18740 0.76254 -0.44000
O 	O 	0.12730 0.02260 0.41026 -0.34700
O 	O 	0.82480 0.48860 0.55561 -0.25500
O 	O 	0.55150 0.79160 0.07069 -0.37800
O 	O 	0.35610 0.39090 0.18988 -0.44700
O 	O 	0.31300 0.55640 0.03773 -0.37100
O 	O 	0.12360 0.31260 0.26254 -0.43700
O 	O 	0.37270 0.47740 0.91026 -0.35900
O 	O 	0.67520 0.01140 0.05561 -0.25900
