data_crystal

_cell_length_a 15.42810
_cell_length_b 15.42810
_cell_length_c 16.97460
_cell_angle_alpha 90.00000
_cell_angle_beta  90.00000
_cell_angle_gamma 120.00000

_symmetry_space_group_name_	'P 1'
_symmetry_space_group_name_H-M	'P 1'

loop_
_symmetry_equiv_pos_as_xyz
  x,y,z

loop_
_atom_site_label
_atom_site_type_symbol
_atom_site_fract_x
_atom_site_fract_y
_atom_site_fract_z
_atom_site_charge
W 	W 	0.17882 0.46974 0.85138 1.02800
S 	S 	0.42710 0.80140 0.07580 0.08700
O 	O 	0.27330 0.42510 0.83210 -0.43900
O 	O 	0.24920 0.55340 0.92630 -0.47000
O 	O 	0.45070 0.78790 0.15750 -0.27400
C 	C 	0.53800 0.88100 0.02740 -0.43400
H 	H 	0.56360 0.94990 0.04680 0.13700
H 	H 	0.52280 0.88090 0.97000 0.14400
H 	H 	0.58580 0.86000 0.03450 0.14500
O 	O 	0.10910 0.53830 0.82950 -0.46800
C 	C 	0.36900 0.87900 0.08300 -0.45700
H 	H 	0.31030 0.84520 0.11610 0.15300
H 	H 	0.34710 0.88430 0.02840 0.12100
H 	H 	0.41660 0.94350 0.10190 0.16300
W 	W 	0.53026 0.70908 0.85138 1.02700
S 	S 	0.19860 0.62570 0.07580 0.08700
O 	O 	0.57490 0.84820 0.83210 -0.44000
O 	O 	0.44660 0.69580 0.92630 -0.47100
O 	O 	0.21210 0.66280 0.15750 -0.27500
C 	C 	0.11900 0.65700 0.02740 -0.43600
H 	H 	0.05010 0.61370 0.04680 0.13600
H 	H 	0.11910 0.64190 0.97000 0.14300
H 	H 	0.14000 0.72580 0.03450 0.14400
O 	O 	0.46170 0.57080 0.82950 -0.46900
C 	C 	0.12100 0.49000 0.08300 -0.45800
H 	H 	0.15480 0.46510 0.11610 0.15300
H 	H 	0.11570 0.46280 0.02840 0.12200
H 	H 	0.05650 0.47310 0.10190 0.16300
W 	W 	0.29092 0.82118 0.85138 1.02700
S 	S 	0.37430 0.57290 0.07580 0.08600
O 	O 	0.15180 0.72670 0.83210 -0.44000
O 	O 	0.30420 0.75080 0.92630 -0.47100
O 	O 	0.33720 0.54930 0.15750 -0.27500
C 	C 	0.34300 0.46200 0.02740 -0.43400
H 	H 	0.38630 0.43640 0.04680 0.13600
H 	H 	0.35810 0.47720 0.97000 0.14300
H 	H 	0.27420 0.41420 0.03450 0.14400
O 	O 	0.42920 0.89090 0.82950 -0.46900
C 	C 	0.51000 0.63100 0.08300 -0.45800
H 	H 	0.53490 0.68970 0.11610 0.15300
H 	H 	0.53720 0.65290 0.02840 0.12200
H 	H 	0.52690 0.58340 0.10190 0.16400
W 	W 	0.17882 0.46974 0.64862 1.02700
S 	S 	0.42710 0.80140 0.42420 0.08600
O 	O 	0.27330 0.42510 0.66790 -0.44000
O 	O 	0.24920 0.55340 0.57370 -0.47100
O 	O 	0.45070 0.78790 0.34250 -0.27500
C 	C 	0.53800 0.88100 0.47260 -0.43400
H 	H 	0.56360 0.94990 0.45320 0.13500
H 	H 	0.52280 0.88090 0.53000 0.14200
H 	H 	0.58580 0.86000 0.46550 0.14400
O 	O 	0.10910 0.53830 0.67050 -0.46900
C 	C 	0.36900 0.87900 0.41700 -0.45700
H 	H 	0.31030 0.84520 0.38390 0.15300
H 	H 	0.34710 0.88430 0.47160 0.12200
H 	H 	0.41660 0.94350 0.39810 0.16300
W 	W 	0.53026 0.70908 0.64862 1.02700
S 	S 	0.19860 0.62570 0.42420 0.08600
O 	O 	0.57490 0.84820 0.66790 -0.44000
O 	O 	0.44660 0.69580 0.57370 -0.47100
O 	O 	0.21210 0.66280 0.34250 -0.27500
C 	C 	0.11900 0.65700 0.47260 -0.43400
H 	H 	0.05010 0.61370 0.45320 0.13500
H 	H 	0.11910 0.64190 0.53000 0.14200
H 	H 	0.14000 0.72580 0.46550 0.14400
O 	O 	0.46170 0.57080 0.67050 -0.46900
C 	C 	0.12100 0.49000 0.41700 -0.45700
H 	H 	0.15480 0.46510 0.38390 0.15300
H 	H 	0.11570 0.46280 0.47160 0.12200
H 	H 	0.05650 0.47310 0.39810 0.16300
W 	W 	0.29092 0.82118 0.64862 1.02700
S 	S 	0.37430 0.57290 0.42420 0.08600
O 	O 	0.15180 0.72670 0.66790 -0.44000
O 	O 	0.30420 0.75080 0.57370 -0.47100
O 	O 	0.33720 0.54930 0.34250 -0.27500
C 	C 	0.34300 0.46200 0.47260 -0.43400
H 	H 	0.38630 0.43640 0.45320 0.13600
H 	H 	0.35810 0.47720 0.53000 0.14200
H 	H 	0.27420 0.41420 0.46550 0.14400
O 	O 	0.42920 0.89090 0.67050 -0.46900
C 	C 	0.51000 0.63100 0.41700 -0.45800
H 	H 	0.53490 0.68970 0.38390 0.15300
H 	H 	0.53720 0.65290 0.47160 0.12200
H 	H 	0.52690 0.58340 0.39810 0.16300
W 	W 	0.37572 0.48475 0.75000 1.01400
O 	O 	0.26990 0.54280 0.75000 -0.35700
O 	O 	0.10910 0.38790 0.75000 -0.37700
W 	W 	0.51525 0.89097 0.75000 1.01400
O 	O 	0.45720 0.72710 0.75000 -0.35700
O 	O 	0.61210 0.72120 0.75000 -0.37700
W 	W 	0.10903 0.62428 0.75000 1.01400
O 	O 	0.27290 0.73010 0.75000 -0.35700
O 	O 	0.27880 0.89090 0.75000 -0.37700
Ru	Ru	0.33333 0.66667 0.00285 0.95900
Ru	Ru	0.33333 0.66667 0.49715 0.96000
K 	K 	0.33333 0.66667 0.25000 0.67800
W 	W 	0.82118 0.53026 0.35138 1.02700
S 	S 	0.57290 0.19860 0.57580 0.08600
O 	O 	0.72670 0.57490 0.33210 -0.44000
O 	O 	0.75080 0.44660 0.42630 -0.47100
O 	O 	0.54930 0.21210 0.65750 -0.27500
C 	C 	0.46200 0.11900 0.52740 -0.43400
H 	H 	0.43640 0.05010 0.54680 0.13500
H 	H 	0.47720 0.11910 0.47000 0.14200
H 	H 	0.41420 0.14000 0.53450 0.14400
O 	O 	0.89090 0.46170 0.32950 -0.46900
C 	C 	0.63100 0.12100 0.58300 -0.45700
H 	H 	0.68970 0.15480 0.61610 0.15300
H 	H 	0.65290 0.11570 0.52840 0.12200
H 	H 	0.58340 0.05650 0.60190 0.16300
W 	W 	0.46974 0.29092 0.35138 1.02700
S 	S 	0.80140 0.37430 0.57580 0.08600
O 	O 	0.42510 0.15180 0.33210 -0.44000
O 	O 	0.55340 0.30420 0.42630 -0.47100
O 	O 	0.78790 0.33720 0.65750 -0.27500
C 	C 	0.88100 0.34300 0.52740 -0.43400
H 	H 	0.94990 0.38630 0.54680 0.13500
H 	H 	0.88090 0.35810 0.47000 0.14200
H 	H 	0.86000 0.27420 0.53450 0.14400
O 	O 	0.53830 0.42920 0.32950 -0.46900
C 	C 	0.87900 0.51000 0.58300 -0.45700
H 	H 	0.84520 0.53490 0.61610 0.15300
H 	H 	0.88430 0.53720 0.52840 0.12200
H 	H 	0.94350 0.52690 0.60190 0.16300
W 	W 	0.70908 0.17882 0.35138 1.02700
S 	S 	0.62570 0.42710 0.57580 0.08600
O 	O 	0.84820 0.27330 0.33210 -0.44000
O 	O 	0.69580 0.24920 0.42630 -0.47100
O 	O 	0.66280 0.45070 0.65750 -0.27500
C 	C 	0.65700 0.53800 0.52740 -0.43400
H 	H 	0.61370 0.56360 0.54680 0.13600
H 	H 	0.64190 0.52280 0.47000 0.14200
H 	H 	0.72580 0.58580 0.53450 0.14400
O 	O 	0.57080 0.10910 0.32950 -0.46900
C 	C 	0.49000 0.36900 0.58300 -0.45800
H 	H 	0.46510 0.31030 0.61610 0.15300
H 	H 	0.46280 0.34710 0.52840 0.12200
H 	H 	0.47310 0.41660 0.60190 0.16300
W 	W 	0.82118 0.53026 0.14862 1.02700
S 	S 	0.57290 0.19860 0.92420 0.08600
O 	O 	0.72670 0.57490 0.16790 -0.44000
O 	O 	0.75080 0.44660 0.07370 -0.47100
O 	O 	0.54930 0.21210 0.84250 -0.27500
C 	C 	0.46200 0.11900 0.97260 -0.43500
H 	H 	0.43640 0.05010 0.95320 0.13600
H 	H 	0.47720 0.11910 0.03000 0.14300
H 	H 	0.41420 0.14000 0.96550 0.14400
O 	O 	0.89090 0.46170 0.17050 -0.46900
C 	C 	0.63100 0.12100 0.91700 -0.45700
H 	H 	0.68970 0.15480 0.88390 0.15300
H 	H 	0.65290 0.11570 0.97160 0.12100
H 	H 	0.58340 0.05650 0.89810 0.16300
W 	W 	0.46974 0.29092 0.14862 1.02700
S 	S 	0.80140 0.37430 0.92420 0.08700
O 	O 	0.42510 0.15180 0.16790 -0.44000
O 	O 	0.55340 0.30420 0.07370 -0.47100
O 	O 	0.78790 0.33720 0.84250 -0.27500
C 	C 	0.88100 0.34300 0.97260 -0.43600
H 	H 	0.94990 0.38630 0.95320 0.13600
H 	H 	0.88090 0.35810 0.03000 0.14300
H 	H 	0.86000 0.27420 0.96550 0.14400
O 	O 	0.53830 0.42920 0.17050 -0.46900
C 	C 	0.87900 0.51000 0.91700 -0.45800
H 	H 	0.84520 0.53490 0.88390 0.15300
H 	H 	0.88430 0.53720 0.97160 0.12200
H 	H 	0.94350 0.52690 0.89810 0.16300
W 	W 	0.70908 0.17882 0.14862 1.02700
S 	S 	0.62570 0.42710 0.92420 0.08600
O 	O 	0.84820 0.27330 0.16790 -0.44000
O 	O 	0.69580 0.24920 0.07370 -0.47100
O 	O 	0.66280 0.45070 0.84250 -0.27500
C 	C 	0.65700 0.53800 0.97260 -0.43400
H 	H 	0.61370 0.56360 0.95320 0.13600
H 	H 	0.64190 0.52280 0.03000 0.14300
H 	H 	0.72580 0.58580 0.96550 0.14400
O 	O 	0.57080 0.10910 0.17050 -0.46900
C 	C 	0.49000 0.36900 0.91700 -0.45800
H 	H 	0.46510 0.31030 0.88390 0.15300
H 	H 	0.46280 0.34710 0.97160 0.12200
H 	H 	0.47310 0.41660 0.89810 0.16400
W 	W 	0.62428 0.51525 0.25000 1.01400
O 	O 	0.73010 0.45720 0.25000 -0.35700
O 	O 	0.89090 0.61210 0.25000 -0.37700
W 	W 	0.48475 0.10903 0.25000 1.01400
O 	O 	0.54280 0.27290 0.25000 -0.35700
O 	O 	0.38790 0.27880 0.25000 -0.37700
W 	W 	0.89097 0.37572 0.25000 1.01400
O 	O 	0.72710 0.26990 0.25000 -0.35700
O 	O 	0.72120 0.10910 0.25000 -0.37700
Ru	Ru	0.66667 0.33333 0.50285 0.96000
Ru	Ru	0.66667 0.33333 0.99715 0.95900
K 	K 	0.66667 0.33333 0.75000 0.67800
