data_crystal

_cell_length_a 35.19600
_cell_length_b 11.64720
_cell_length_c 17.24040
_cell_angle_alpha 90.00000
_cell_angle_beta  99.00300
_cell_angle_gamma 90.00000

_symmetry_space_group_name_	'P 1'
_symmetry_space_group_name_H-M	'P 1'

loop_
_symmetry_equiv_pos_as_xyz
  x,y,z

loop_
_atom_site_label
_atom_site_type_symbol
_atom_site_fract_x
_atom_site_fract_y
_atom_site_fract_z
_atom_site_charge
Y 	Y 	0.57615 0.06327 0.07810 2.38500
O 	O 	0.54968 0.05090 0.94980 -0.59100
O 	O 	0.63320 0.15020 0.05190 -0.58200
O 	O 	0.51297 0.08000 0.09180 -0.59900
O 	O 	0.58400 0.15970 0.20110 -0.54000
O 	O 	0.62930 0.02900 0.21180 -0.65900
O 	O 	0.61480 0.91870 0.04080 -0.66400
O 	O 	0.56010 0.89780 0.13910 -0.57700
C 	C 	0.52160 0.09590 0.90330 0.48200
C 	C 	0.66760 0.11730 0.06330 0.46000
Y 	Y 	0.66837 0.88167 0.17583 2.38700
C 	C 	0.53180 0.17420 0.84140 -0.16500
O 	O 	0.68300 0.03820 0.10840 -0.58000
C 	C 	0.69560 0.17810 0.02010 -0.12000
O 	O 	0.72980 0.85400 0.15480 -0.61100
O 	O 	0.65720 0.77880 0.05510 -0.55200
O 	O 	0.61050 0.80060 0.19950 -0.60300
O 	O 	0.69760 0.90540 0.29930 -0.63400
S 	S 	0.57844 0.19710 0.83008 0.06100
C 	C 	0.50650 0.23950 0.78820 -0.00000
S 	S 	0.68058 0.27150 0.94379 0.06700
C 	C 	0.73510 0.16080 0.03090 -0.01200
C 	C 	0.56480 0.29240 0.75410 -0.13500
H 	H 	0.47930 0.24000 0.78570 0.03500
C 	C 	0.52660 0.30440 0.73890 0.00600
C 	C 	0.72770 0.28900 0.92670 -0.17100
C 	C 	0.75260 0.22260 0.97570 0.02000
H 	H 	0.74870 0.11320 0.07070 0.04900
C 	C 	0.59500 0.34610 0.71450 0.46800
H 	H 	0.51410 0.35260 0.69830 0.04200
C 	C 	0.73570 0.35780 0.85960 0.50800
H 	H 	0.77930 0.21820 0.97290 0.03300
O 	O 	0.58370 0.41780 0.65960 -0.61400
O 	O 	0.62940 0.32150 0.73860 -0.57900
O 	O 	0.70900 0.40780 0.81780 -0.60500
Y 	Y 	0.57710 0.55108 0.56236 2.38900
Y 	Y 	0.67939 0.41306 0.69098 2.38800
O 	O 	0.60030 0.39160 0.50870 -0.58000
O 	O 	0.60240 0.65660 0.67110 -0.61100
O 	O 	0.54490 0.53230 0.43950 -0.59500
O 	O 	0.62960 0.62550 0.51760 -0.61400
O 	O 	0.51790 0.54780 0.59820 -0.62200
O 	O 	0.65430 0.32100 0.57490 -0.62500
O 	O 	0.65110 0.56600 0.74680 -0.58000
O 	O 	0.67810 0.55900 0.60420 -0.61800
O 	O 	0.73850 0.41010 0.65620 -0.60800
C 	C 	0.62890 0.32400 0.51760 0.51700
C 	C 	0.62580 0.64070 0.73330 0.49400
C 	C 	0.51570 0.57230 0.39530 0.49100
C 	C 	0.66420 0.61990 0.54620 0.50100
C 	C 	0.63180 0.24310 0.45180 -0.16600
C 	C 	0.62270 0.72360 0.79930 -0.14300
C 	C 	0.52250 0.64440 0.32730 -0.17000
C 	C 	0.69180 0.68770 0.50760 -0.13800
S 	S 	0.60038 0.25330 0.36401 0.09000
C 	C 	0.65750 0.16130 0.44890 0.04200
S 	S 	0.64822 0.70000 0.89081 0.08600
C 	C 	0.59710 0.81220 0.79960 0.01600
S 	S 	0.56784 0.68350 0.31365 0.05000
C 	C 	0.49420 0.68680 0.26900 0.00600
S 	S 	0.67497 0.76580 0.42433 0.04800
C 	C 	0.73150 0.69840 0.52640 -0.00600
C 	C 	0.62430 0.14350 0.32450 -0.12600
H 	H 	0.67680 0.14390 0.49240 0.01500
C 	C 	0.65450 0.10100 0.37670 -0.03300
C 	C 	0.62420 0.81150 0.92920 -0.13400
H 	H 	0.58010 0.83640 0.75420 0.02300
C 	C 	0.59830 0.86310 0.87280 -0.01300
C 	C 	0.54910 0.75960 0.23050 -0.13300
H 	H 	0.46760 0.66940 0.26520 0.02200
C 	C 	0.50990 0.75950 0.21550 -0.00100
C 	C 	0.72100 0.80920 0.41430 -0.18000
H 	H 	0.74610 0.66580 0.57210 0.03900
C 	C 	0.74750 0.76100 0.47240 0.01800
C 	C 	0.61250 0.10950 0.24120 0.42900
H 	H 	0.67090 0.04020 0.36610 0.05600
C 	C 	0.63280 0.83680 0.01430 0.45400
H 	H 	0.58290 0.92680 0.88250 0.04800
C 	C 	0.57580 0.82440 0.18650 0.49500
H 	H 	0.49500 0.80240 0.17480 0.04200
C 	C 	0.72660 0.87890 0.34650 0.50000
H 	H 	0.77450 0.76960 0.47480 0.01800
Y 	Y 	0.07615 0.56327 0.07810 2.38600
O 	O 	0.04968 0.55090 0.94980 -0.59200
O 	O 	0.13320 0.65020 0.05190 -0.58200
O 	O 	0.01297 0.58000 0.09180 -0.60000
O 	O 	0.08400 0.65970 0.20110 -0.53900
O 	O 	0.12930 0.52900 0.21180 -0.65900
O 	O 	0.11480 0.41870 0.04080 -0.66100
O 	O 	0.06010 0.39780 0.13910 -0.57500
C 	C 	0.02160 0.59590 0.90330 0.48200
C 	C 	0.16760 0.61730 0.06330 0.46000
Y 	Y 	0.16837 0.38167 0.17583 2.38800
C 	C 	0.03180 0.67420 0.84140 -0.16500
O 	O 	0.18300 0.53820 0.10840 -0.58100
C 	C 	0.19560 0.67810 0.02010 -0.12000
O 	O 	0.22980 0.35400 0.15480 -0.61000
O 	O 	0.15720 0.27880 0.05510 -0.55100
O 	O 	0.11050 0.30060 0.19950 -0.60200
O 	O 	0.19760 0.40540 0.29930 -0.63200
S 	S 	0.07844 0.69710 0.83008 0.06000
C 	C 	0.00650 0.73950 0.78820 -0.00100
S 	S 	0.18058 0.77150 0.94379 0.06700
C 	C 	0.23510 0.66080 0.03090 -0.01200
C 	C 	0.06480 0.79240 0.75410 -0.13500
H 	H 	0.97930 0.74000 0.78570 0.03500
C 	C 	0.02660 0.80440 0.73890 0.00500
C 	C 	0.22770 0.78900 0.92670 -0.17200
C 	C 	0.25260 0.72260 0.97570 0.02000
H 	H 	0.24870 0.61320 0.07070 0.04800
C 	C 	0.09500 0.84610 0.71450 0.46800
H 	H 	0.01410 0.85260 0.69830 0.04200
C 	C 	0.23570 0.85780 0.85960 0.50800
H 	H 	0.27930 0.71820 0.97290 0.03300
O 	O 	0.08370 0.91780 0.65960 -0.61500
O 	O 	0.12940 0.82150 0.73860 -0.58000
O 	O 	0.20900 0.90780 0.81780 -0.60600
Y 	Y 	0.07710 0.05108 0.56236 2.38900
Y 	Y 	0.17939 0.91306 0.69098 2.38800
O 	O 	0.10030 0.89160 0.50870 -0.58100
O 	O 	0.10240 0.15660 0.67110 -0.61100
O 	O 	0.04490 0.03230 0.43950 -0.59300
O 	O 	0.12960 0.12550 0.51760 -0.61300
O 	O 	0.01790 0.04780 0.59820 -0.62100
O 	O 	0.15430 0.82100 0.57490 -0.62600
O 	O 	0.15110 0.06600 0.74680 -0.57800
O 	O 	0.17810 0.05900 0.60420 -0.61600
O 	O 	0.23850 0.91010 0.65620 -0.60900
C 	C 	0.12890 0.82400 0.51760 0.51700
C 	C 	0.12580 0.14070 0.73330 0.49400
C 	C 	0.01570 0.07230 0.39530 0.49100
C 	C 	0.16420 0.11990 0.54620 0.50100
C 	C 	0.13180 0.74310 0.45180 -0.16600
C 	C 	0.12270 0.22360 0.79930 -0.14300
C 	C 	0.02250 0.14440 0.32730 -0.17000
C 	C 	0.19180 0.18770 0.50760 -0.13700
S 	S 	0.10038 0.75330 0.36401 0.08900
C 	C 	0.15750 0.66130 0.44890 0.04200
S 	S 	0.14822 0.20000 0.89081 0.08700
C 	C 	0.09710 0.31220 0.79960 0.01600
S 	S 	0.06784 0.18350 0.31365 0.05100
C 	C 	0.99420 0.18680 0.26900 0.00700
S 	S 	0.17497 0.26580 0.42433 0.04900
C 	C 	0.23150 0.19840 0.52640 -0.00600
C 	C 	0.12430 0.64350 0.32450 -0.12600
H 	H 	0.17680 0.64390 0.49240 0.01500
C 	C 	0.15450 0.60100 0.37670 -0.03300
C 	C 	0.12420 0.31150 0.92920 -0.13300
H 	H 	0.08010 0.33640 0.75420 0.02400
C 	C 	0.09830 0.36310 0.87280 -0.01300
C 	C 	0.04910 0.25960 0.23050 -0.13300
H 	H 	0.96760 0.16940 0.26520 0.02300
C 	C 	0.00990 0.25950 0.21550 -0.00100
C 	C 	0.22100 0.30920 0.41430 -0.18000
H 	H 	0.24610 0.16580 0.57210 0.03900
C 	C 	0.24750 0.26100 0.47240 0.01800
C 	C 	0.11250 0.60950 0.24120 0.42900
H 	H 	0.17090 0.54020 0.36610 0.05500
C 	C 	0.13280 0.33680 0.01430 0.45400
H 	H 	0.08290 0.42680 0.88250 0.04900
C 	C 	0.07580 0.32440 0.18650 0.49500
H 	H 	0.99500 0.30240 0.17480 0.04200
C 	C 	0.22660 0.37890 0.34650 0.50000
H 	H 	0.27450 0.26960 0.47480 0.01800
Y 	Y 	0.42385 0.06327 0.92190 2.38600
O 	O 	0.45032 0.05090 0.05020 -0.59000
O 	O 	0.36680 0.15020 0.94810 -0.58100
O 	O 	0.48703 0.08000 0.90820 -0.59800
O 	O 	0.41600 0.15970 0.79890 -0.53900
O 	O 	0.37070 0.02900 0.78820 -0.65800
O 	O 	0.38520 0.91870 0.95920 -0.66300
O 	O 	0.43990 0.89780 0.86090 -0.57600
C 	C 	0.47840 0.09590 0.09670 0.48200
C 	C 	0.33240 0.11730 0.93670 0.46000
Y 	Y 	0.33163 0.88167 0.82417 2.38700
C 	C 	0.46820 0.17420 0.15860 -0.16500
O 	O 	0.31700 0.03820 0.89160 -0.58000
C 	C 	0.30440 0.17810 0.97990 -0.12000
O 	O 	0.27020 0.85400 0.84520 -0.61100
O 	O 	0.34280 0.77880 0.94490 -0.55200
O 	O 	0.38950 0.80060 0.80050 -0.60300
O 	O 	0.30240 0.90540 0.70070 -0.63400
S 	S 	0.42156 0.19710 0.16992 0.06100
C 	C 	0.49350 0.23950 0.21180 -0.00000
S 	S 	0.31942 0.27150 0.05621 0.06700
C 	C 	0.26490 0.16080 0.96910 -0.01200
C 	C 	0.43520 0.29240 0.24590 -0.13500
H 	H 	0.52070 0.24000 0.21430 0.03500
C 	C 	0.47340 0.30440 0.26110 0.00600
C 	C 	0.27230 0.28900 0.07330 -0.17100
C 	C 	0.24740 0.22260 0.02430 0.02000
H 	H 	0.25130 0.11320 0.92930 0.04900
C 	C 	0.40500 0.34610 0.28550 0.46800
H 	H 	0.48590 0.35260 0.30170 0.04200
C 	C 	0.26430 0.35780 0.14040 0.50800
H 	H 	0.22070 0.21820 0.02710 0.03300
O 	O 	0.41630 0.41780 0.34040 -0.61400
O 	O 	0.37060 0.32150 0.26140 -0.57900
O 	O 	0.29100 0.40780 0.18220 -0.60500
Y 	Y 	0.42290 0.55108 0.43764 2.38900
Y 	Y 	0.32061 0.41306 0.30902 2.38800
O 	O 	0.39970 0.39160 0.49130 -0.58000
O 	O 	0.39760 0.65660 0.32890 -0.61100
O 	O 	0.45510 0.53230 0.56050 -0.59500
O 	O 	0.37040 0.62550 0.48240 -0.61400
O 	O 	0.48210 0.54780 0.40180 -0.62200
O 	O 	0.34570 0.32100 0.42510 -0.62500
O 	O 	0.34890 0.56600 0.25320 -0.58000
O 	O 	0.32190 0.55900 0.39580 -0.61800
O 	O 	0.26150 0.41010 0.34380 -0.60800
C 	C 	0.37110 0.32400 0.48240 0.51700
C 	C 	0.37420 0.64070 0.26670 0.49400
C 	C 	0.48430 0.57230 0.60470 0.49100
C 	C 	0.33580 0.61990 0.45380 0.50100
C 	C 	0.36820 0.24310 0.54820 -0.16600
C 	C 	0.37730 0.72360 0.20070 -0.14300
C 	C 	0.47750 0.64440 0.67270 -0.17000
C 	C 	0.30820 0.68770 0.49240 -0.13800
S 	S 	0.39962 0.25330 0.63599 0.09000
C 	C 	0.34250 0.16130 0.55110 0.04200
S 	S 	0.35178 0.70000 0.10919 0.08600
C 	C 	0.40290 0.81220 0.20040 0.01600
S 	S 	0.43216 0.68350 0.68635 0.05000
C 	C 	0.50580 0.68680 0.73100 0.00600
S 	S 	0.32503 0.76580 0.57567 0.04800
C 	C 	0.26850 0.69840 0.47360 -0.00600
C 	C 	0.37570 0.14350 0.67550 -0.12600
H 	H 	0.32320 0.14390 0.50760 0.01500
C 	C 	0.34550 0.10100 0.62330 -0.03300
C 	C 	0.37580 0.81150 0.07080 -0.13400
H 	H 	0.41990 0.83640 0.24580 0.02300
C 	C 	0.40170 0.86310 0.12720 -0.01300
C 	C 	0.45090 0.75960 0.76950 -0.13300
H 	H 	0.53240 0.66940 0.73480 0.02200
C 	C 	0.49010 0.75950 0.78450 -0.00100
C 	C 	0.27900 0.80920 0.58570 -0.18000
H 	H 	0.25390 0.66580 0.42790 0.03900
C 	C 	0.25250 0.76100 0.52760 0.01800
C 	C 	0.38750 0.10950 0.75880 0.42900
H 	H 	0.32910 0.04020 0.63390 0.05600
C 	C 	0.36720 0.83680 0.98570 0.45400
H 	H 	0.41710 0.92680 0.11750 0.04800
C 	C 	0.42420 0.82440 0.81350 0.49500
H 	H 	0.50500 0.80240 0.82520 0.04200
C 	C 	0.27340 0.87890 0.65350 0.50000
H 	H 	0.22550 0.76960 0.52520 0.01800
Y 	Y 	0.92385 0.56327 0.92190 2.38600
O 	O 	0.95032 0.55090 0.05020 -0.59200
O 	O 	0.86680 0.65020 0.94810 -0.58200
O 	O 	0.98703 0.58000 0.90820 -0.60000
O 	O 	0.91600 0.65970 0.79890 -0.53900
O 	O 	0.87070 0.52900 0.78820 -0.65900
O 	O 	0.88520 0.41870 0.95920 -0.66100
O 	O 	0.93990 0.39780 0.86090 -0.57500
C 	C 	0.97840 0.59590 0.09670 0.48200
C 	C 	0.83240 0.61730 0.93670 0.46000
Y 	Y 	0.83163 0.38167 0.82417 2.38800
C 	C 	0.96820 0.67420 0.15860 -0.16500
O 	O 	0.81700 0.53820 0.89160 -0.58100
C 	C 	0.80440 0.67810 0.97990 -0.12000
O 	O 	0.77020 0.35400 0.84520 -0.61000
O 	O 	0.84280 0.27880 0.94490 -0.55100
O 	O 	0.88950 0.30060 0.80050 -0.60200
O 	O 	0.80240 0.40540 0.70070 -0.63200
S 	S 	0.92156 0.69710 0.16992 0.06000
C 	C 	0.99350 0.73950 0.21180 -0.00100
S 	S 	0.81942 0.77150 0.05621 0.06700
C 	C 	0.76490 0.66080 0.96910 -0.01200
C 	C 	0.93520 0.79240 0.24590 -0.13500
H 	H 	0.02070 0.74000 0.21430 0.03500
C 	C 	0.97340 0.80440 0.26110 0.00500
C 	C 	0.77230 0.78900 0.07330 -0.17200
C 	C 	0.74740 0.72260 0.02430 0.02000
H 	H 	0.75130 0.61320 0.92930 0.04800
C 	C 	0.90500 0.84610 0.28550 0.46800
H 	H 	0.98590 0.85260 0.30170 0.04200
C 	C 	0.76430 0.85780 0.14040 0.50800
H 	H 	0.72070 0.71820 0.02710 0.03300
O 	O 	0.91630 0.91780 0.34040 -0.61500
O 	O 	0.87060 0.82150 0.26140 -0.58000
O 	O 	0.79100 0.90780 0.18220 -0.60600
Y 	Y 	0.92290 0.05108 0.43764 2.38900
Y 	Y 	0.82061 0.91306 0.30902 2.38800
O 	O 	0.89970 0.89160 0.49130 -0.58100
O 	O 	0.89760 0.15660 0.32890 -0.61100
O 	O 	0.95510 0.03230 0.56050 -0.59300
O 	O 	0.87040 0.12550 0.48240 -0.61300
O 	O 	0.98210 0.04780 0.40180 -0.62100
O 	O 	0.84570 0.82100 0.42510 -0.62600
O 	O 	0.84890 0.06600 0.25320 -0.57800
O 	O 	0.82190 0.05900 0.39580 -0.61600
O 	O 	0.76150 0.91010 0.34380 -0.60900
C 	C 	0.87110 0.82400 0.48240 0.51700
C 	C 	0.87420 0.14070 0.26670 0.49400
C 	C 	0.98430 0.07230 0.60470 0.49100
C 	C 	0.83580 0.11990 0.45380 0.50100
C 	C 	0.86820 0.74310 0.54820 -0.16600
C 	C 	0.87730 0.22360 0.20070 -0.14300
C 	C 	0.97750 0.14440 0.67270 -0.17000
C 	C 	0.80820 0.18770 0.49240 -0.13700
S 	S 	0.89962 0.75330 0.63599 0.08900
C 	C 	0.84250 0.66130 0.55110 0.04200
S 	S 	0.85178 0.20000 0.10919 0.08700
C 	C 	0.90290 0.31220 0.20040 0.01600
S 	S 	0.93216 0.18350 0.68635 0.05100
C 	C 	0.00580 0.18680 0.73100 0.00700
S 	S 	0.82503 0.26580 0.57567 0.04900
C 	C 	0.76850 0.19840 0.47360 -0.00600
C 	C 	0.87570 0.64350 0.67550 -0.12600
H 	H 	0.82320 0.64390 0.50760 0.01500
C 	C 	0.84550 0.60100 0.62330 -0.03300
C 	C 	0.87580 0.31150 0.07080 -0.13300
H 	H 	0.91990 0.33640 0.24580 0.02400
C 	C 	0.90170 0.36310 0.12720 -0.01300
C 	C 	0.95090 0.25960 0.76950 -0.13300
H 	H 	0.03240 0.16940 0.73480 0.02300
C 	C 	0.99010 0.25950 0.78450 -0.00100
C 	C 	0.77900 0.30920 0.58570 -0.18000
H 	H 	0.75390 0.16580 0.42790 0.03900
C 	C 	0.75250 0.26100 0.52760 0.01800
C 	C 	0.88750 0.60950 0.75880 0.42900
H 	H 	0.82910 0.54020 0.63390 0.05500
C 	C 	0.86720 0.33680 0.98570 0.45400
H 	H 	0.91710 0.42680 0.11750 0.04900
C 	C 	0.92420 0.32440 0.81350 0.49500
H 	H 	0.00500 0.30240 0.82520 0.04200
C 	C 	0.77340 0.37890 0.65350 0.50000
H 	H 	0.72550 0.26960 0.52520 0.01800
