data_crystal

_cell_length_a 12.72390
_cell_length_b 14.49920
_cell_length_c 23.34530
_cell_angle_alpha 99.73350
_cell_angle_beta  92.68900
_cell_angle_gamma 97.47560

_symmetry_space_group_name_	'P 1'
_symmetry_space_group_name_H-M	'P 1'

loop_
_symmetry_equiv_pos_as_xyz
  x,y,z

loop_
_atom_site_label
_atom_site_type_symbol
_atom_site_fract_x
_atom_site_fract_y
_atom_site_fract_z
_atom_site_charge
Co	Co	0.49547 0.69604 0.60705 1.17200
Co	Co	0.94238 0.31543 0.07450 1.13300
Co	Co	0.50453 0.30396 0.39295 1.17200
Co	Co	0.05762 0.68457 0.92550 1.11800
Co	Co	0.50000 0.50000 0.50000 1.19800
Co	Co	-0.00000 0.50000 -0.00000 1.18000
Si	Si	0.97454 0.77957 0.36607 0.84000
Si	Si	0.60163 0.75575 0.18730 0.79900
Si	Si	0.02546 0.22043 0.63393 0.68300
Si	Si	0.39837 0.24425 0.81270 0.78900
H 	H 	0.86860 0.62230 0.41310 -0.00300
H 	H 	0.73090 0.59570 0.47220 0.08200
H 	H 	0.66860 0.86370 0.47500 0.08000
H 	H 	0.80500 0.88920 0.41360 -0.00900
H 	H 	0.83130 0.61450 0.30490 -0.00700
H 	H 	0.83150 0.50890 0.21820 0.07200
H 	H 	0.06590 0.68260 0.16590 0.07400
H 	H 	0.07470 0.78380 0.25540 -0.01600
H 	H 	0.16190 0.68110 0.33910 -0.02100
H 	H 	0.28700 0.62130 0.39250 0.07700
H 	H 	0.16420 0.72890 0.54170 0.09700
H 	H 	0.03360 0.78020 0.48890 -0.01500
H 	H 	0.94000 0.90650 0.28270 -0.02400
H 	H 	0.97480 0.06930 0.28370 0.07700
H 	H 	0.11720 0.10740 0.44650 0.08000
H 	H 	0.08240 0.94460 0.44560 -0.02100
H 	H 	0.54230 0.77060 0.30800 -0.00800
H 	H 	0.51870 0.67210 0.37540 0.07500
H 	H 	0.60910 0.46060 0.26140 0.07300
H 	H 	0.63030 0.55910 0.19340 -0.01500
H 	H 	0.66320 0.60370 0.10340 -0.02000
H 	H 	0.79190 0.58580 0.03720 0.07600
H 	H 	0.92250 0.85740 0.09400 0.07700
H 	H 	0.79820 0.87270 0.16300 -0.02000
H 	H 	0.39250 0.63700 0.18110 -0.01300
H 	H 	0.24920 0.59170 0.11370 0.06800
H 	H 	0.38490 0.76350 0.01140 0.06100
H 	H 	0.53090 0.80550 0.07750 -0.02000
H 	H 	0.74050 0.86760 0.28260 -0.02500
H 	H 	0.74800 0.01190 0.34350 0.08800
H 	H 	0.50520 0.07310 0.24610 0.07400
H 	H 	0.49420 0.92550 0.18670 -0.02100
H 	H 	0.13140 0.37770 0.58690 0.00000
H 	H 	0.26910 0.40430 0.52780 0.07400
H 	H 	0.33140 0.13630 0.52500 0.07400
H 	H 	0.19500 0.11080 0.58640 -0.00300
H 	H 	0.16870 0.38550 0.69510 0.00300
H 	H 	0.16850 0.49110 0.78180 0.05900
H 	H 	0.93410 0.31740 0.83410 0.06400
H 	H 	0.92530 0.21620 0.74460 -0.00500
H 	H 	0.83810 0.31890 0.66090 0.00500
H 	H 	0.71300 0.37870 0.60750 0.06700
H 	H 	0.83580 0.27110 0.45830 0.09000
H 	H 	0.96640 0.21980 0.51110 0.02000
H 	H 	0.06000 0.09350 0.71730 -0.00400
H 	H 	0.02520 0.93070 0.71630 0.07400
H 	H 	0.88280 0.89260 0.55350 0.08100
H 	H 	0.91760 0.05540 0.55440 0.00200
H 	H 	0.45770 0.22940 0.69200 -0.00600
H 	H 	0.48130 0.32790 0.62460 0.07400
H 	H 	0.39090 0.53940 0.73860 0.07300
H 	H 	0.36970 0.44090 0.80660 -0.01200
H 	H 	0.33680 0.39630 0.89660 -0.00700
H 	H 	0.20810 0.41420 0.96280 0.07900
H 	H 	0.07750 0.14260 0.90600 0.06400
H 	H 	0.20180 0.12730 0.83700 -0.01200
H 	H 	0.60750 0.36300 0.81890 -0.00800
H 	H 	0.75080 0.40830 0.88630 0.07100
H 	H 	0.61510 0.23650 0.98860 0.07300
H 	H 	0.46910 0.19450 0.92250 -0.01100
H 	H 	0.25950 0.13240 0.71740 -0.02100
H 	H 	0.25200 0.98810 0.65650 0.07700
H 	H 	0.49480 0.92690 0.75390 0.07700
H 	H 	0.50580 0.07450 0.81330 -0.01500
C 	C 	0.85340 0.75929 0.40779 -0.28300
C 	C 	0.82830 0.67171 0.42579 0.10100
C 	C 	0.74710 0.65573 0.46112 -0.08800
C 	C 	0.68820 0.72886 0.48067 -0.01300
C 	C 	0.70970 0.81480 0.46254 -0.09900
C 	C 	0.79130 0.83000 0.42614 0.09700
C 	C 	0.60840 0.71460 0.52370 0.30800
C 	C 	0.95730 0.70840 0.29094 -0.27400
C 	C 	0.88210 0.62740 0.27778 0.09300
C 	C 	0.88090 0.56530 0.22552 -0.09700
C 	C 	0.95020 0.58430 0.18419 -0.00200
C 	C 	0.02030 0.66700 0.19493 -0.12200
C 	C 	0.02460 0.72780 0.24821 0.07800
C 	C 	0.95130 0.51440 0.12850 0.35300
C 	C 	0.08340 0.73703 0.40782 -0.30600
C 	C 	0.16090 0.68980 0.38037 0.11200
C 	C 	0.23640 0.65520 0.41226 -0.10800
C 	C 	0.23950 0.66916 0.47252 -0.00000
C 	C 	0.16290 0.71770 0.50035 -0.10700
C 	C 	0.08620 0.74930 0.46901 0.11200
C 	C 	0.32290 0.63421 0.50677 0.32700
C 	C 	0.00790 0.91026 0.36407 -0.32800
C 	C 	0.97600 0.94729 0.31598 0.13000
C 	C 	0.99660 0.04398 0.31654 -0.09200
C 	C 	0.04920 0.10363 0.36519 -0.01400
C 	C 	0.08120 0.06660 0.41328 -0.11300
C 	C 	0.06050 0.96990 0.41272 0.10900
C 	C 	0.07120 0.20610 0.36480 0.25900
C 	C 	0.59085 0.67671 0.24315 -0.28300
C 	C 	0.55660 0.70740 0.29817 0.09000
C 	C 	0.54280 0.64900 0.33849 -0.09200
C 	C 	0.56380 0.55690 0.32585 -0.03100
C 	C 	0.59590 0.52420 0.27111 -0.09600
C 	C 	0.60870 0.58310 0.23080 0.09300
C 	C 	0.54880 0.49322 0.36943 0.35700
C 	C 	0.71600 0.74104 0.14062 -0.29400
C 	C 	0.71650 0.65551 0.10193 0.11000
C 	C 	0.79200 0.64493 0.06202 -0.12300
C 	C 	0.86790 0.72016 0.05805 0.00800
C 	C 	0.86980 0.80550 0.09614 -0.12100
C 	C 	0.79520 0.81450 0.13681 0.11300
C 	C 	0.94320 0.71120 0.01100 0.23900
C 	C 	0.47910 0.72642 0.13683 -0.28900
C 	C 	0.39220 0.66260 0.14623 0.09300
C 	C 	0.30650 0.63590 0.10623 -0.10100
C 	C 	0.30230 0.67221 0.05569 -0.02400
C 	C 	0.38680 0.73670 0.04577 -0.10200
C 	C 	0.47320 0.76210 0.08547 0.09700
C 	C 	0.20820 0.64190 0.01229 0.33000
C 	C 	0.61470 0.87985 0.22830 -0.29700
C 	C 	0.69090 0.90870 0.27550 0.11200
C 	C 	0.69590 0.99410 0.31166 -0.12500
C 	C 	0.62450 0.05394 0.30143 0.00300
C 	C 	0.55170 0.03000 0.25427 -0.11600
C 	C 	0.54630 0.94250 0.21858 0.10900
C 	C 	0.62040 0.14370 0.34271 0.30900
C 	C 	0.14660 0.24071 0.59221 -0.24300
C 	C 	0.17170 0.32829 0.57421 0.07100
C 	C 	0.25290 0.34427 0.53888 -0.07200
C 	C 	0.31180 0.27114 0.51933 -0.02700
C 	C 	0.29030 0.18520 0.53746 -0.08100
C 	C 	0.20870 0.17000 0.57386 0.06700
C 	C 	0.39160 0.28540 0.47630 0.31300
C 	C 	0.04270 0.29160 0.70906 -0.26800
C 	C 	0.11790 0.37260 0.72222 0.06000
C 	C 	0.11910 0.43470 0.77448 -0.06300
C 	C 	0.04980 0.41570 0.81581 -0.07500
C 	C 	0.97970 0.33300 0.80507 -0.04200
C 	C 	0.97540 0.27220 0.75179 0.08800
C 	C 	0.04870 0.48560 0.87150 0.37300
C 	C 	0.91660 0.26297 0.59218 -0.21600
C 	C 	0.83910 0.31020 0.61963 0.06300
C 	C 	0.76360 0.34480 0.58774 -0.07000
C 	C 	0.76050 0.33084 0.52748 -0.02400
C 	C 	0.83710 0.28230 0.49965 -0.06600
C 	C 	0.91380 0.25070 0.53099 0.06200
C 	C 	0.67710 0.36579 0.49323 0.33800
C 	C 	0.99210 0.08974 0.63593 -0.20700
C 	C 	0.02400 0.05271 0.68402 0.04900
C 	C 	0.00340 0.95602 0.68346 -0.12400
C 	C 	0.95080 0.89637 0.63481 0.02800
C 	C 	0.91880 0.93340 0.58672 -0.10000
C 	C 	0.93950 0.03010 0.58728 0.07100
C 	C 	0.92880 0.79390 0.63520 0.25100
C 	C 	0.40915 0.32329 0.75685 -0.27900
C 	C 	0.44340 0.29260 0.70183 0.08700
C 	C 	0.45720 0.35100 0.66151 -0.08900
C 	C 	0.43620 0.44310 0.67415 -0.03200
C 	C 	0.40410 0.47580 0.72889 -0.09300
C 	C 	0.39130 0.41690 0.76920 0.09100
C 	C 	0.45120 0.50678 0.63057 0.35800
C 	C 	0.28400 0.25896 0.85938 -0.27500
C 	C 	0.28350 0.34449 0.89807 0.08700
C 	C 	0.20800 0.35507 0.93798 -0.08300
C 	C 	0.13210 0.27984 0.94195 -0.04600
C 	C 	0.13020 0.19450 0.90386 -0.08200
C 	C 	0.20480 0.18550 0.86319 0.08600
C 	C 	0.05680 0.28880 0.98900 0.37800
C 	C 	0.52090 0.27358 0.86317 -0.27800
C 	C 	0.60780 0.33740 0.85377 0.08700
C 	C 	0.69350 0.36410 0.89377 -0.08400
C 	C 	0.69770 0.32779 0.94431 -0.03500
C 	C 	0.61320 0.26330 0.95423 -0.08300
C 	C 	0.52680 0.23790 0.91453 0.09100
C 	C 	0.79180 0.35810 0.98771 0.39900
C 	C 	0.38530 0.12015 0.77170 -0.29000
C 	C 	0.30910 0.09130 0.72450 0.10100
C 	C 	0.30410 0.00590 0.68834 -0.10700
C 	C 	0.37550 0.94606 0.69857 -0.00700
C 	C 	0.44830 0.97000 0.74573 -0.11300
C 	C 	0.45370 0.05750 0.78142 0.10800
C 	C 	0.37960 0.85630 0.65729 0.31100
O 	O 	0.58312 0.63328 0.53724 -0.49900
O 	O 	0.56922 0.78335 0.55031 -0.37200
O 	O 	0.91005 0.43101 0.12852 -0.46000
O 	O 	0.99576 0.54464 0.08774 -0.42200
O 	O 	0.35705 0.55947 0.48612 -0.38800
O 	O 	0.35575 0.68514 0.55612 -0.37800
O 	O 	0.04620 0.23730 0.31985 -0.24400
O 	O 	0.11600 0.25930 0.41112 -0.22700
O 	O 	0.52626 0.52820 0.41948 -0.43500
O 	O 	0.55860 0.40791 0.35267 -0.44400
O 	O 	0.95422 0.62963 0.98368 -0.45900
O 	O 	0.99070 0.78229 0.99493 -0.33400
O 	O 	0.15702 0.56248 0.01278 -0.43100
O 	O 	0.18938 0.69847 0.97946 -0.42300
O 	O 	0.68820 0.15914 0.38808 -0.23100
O 	O 	0.55696 0.19677 0.33467 -0.40000
O 	O 	0.41688 0.36672 0.46276 -0.50100
O 	O 	0.43078 0.21665 0.44969 -0.37400
O 	O 	0.08995 0.56899 0.87148 -0.46900
O 	O 	0.00424 0.45536 0.91226 -0.44000
O 	O 	0.64295 0.44053 0.51388 -0.38900
O 	O 	0.64425 0.31486 0.44388 -0.37900
O 	O 	0.95380 0.76270 0.68015 -0.21900
O 	O 	0.88400 0.74070 0.58888 -0.21400
O 	O 	0.47374 0.47180 0.58052 -0.43400
O 	O 	0.44140 0.59209 0.64733 -0.44400
O 	O 	0.04578 0.37037 0.01632 -0.55600
O 	O 	0.00930 0.21771 0.00507 -0.43400
O 	O 	0.84298 0.43752 0.98722 -0.41300
O 	O 	0.81062 0.30153 0.02054 -0.47100
O 	O 	0.31180 0.84086 0.61192 -0.23600
O 	O 	0.44304 0.80323 0.66533 -0.40000
