data_crystal

_cell_length_a 12.72790
_cell_length_b 14.53310
_cell_length_c 23.28120
_cell_angle_alpha 99.81500
_cell_angle_beta  92.60100
_cell_angle_gamma 97.07100

_symmetry_space_group_name_	'P 1'
_symmetry_space_group_name_H-M	'P 1'

loop_
_symmetry_equiv_pos_as_xyz
  x,y,z

loop_
_atom_site_label
_atom_site_type_symbol
_atom_site_fract_x
_atom_site_fract_y
_atom_site_fract_z
_atom_site_charge
Mg	Mg	0.49549 0.69808 0.60862 1.46900
Mg	Mg	0.94134 0.31208 0.07448 1.45800
Mg	Mg	0.50451 0.30192 0.39138 1.46900
Mg	Mg	0.05866 0.68792 0.92552 1.45500
Mg	Mg	0.50000 0.50000 0.50000 1.47800
Mg	Mg	-0.00000 0.50000 -0.00000 1.47500
Si	Si	0.97304 0.77608 0.36669 0.88500
Si	Si	0.60107 0.75480 0.18747 0.80400
Si	Si	0.02696 0.22392 0.63331 0.67600
Si	Si	0.39893 0.24520 0.81253 0.79300
H 	H 	0.86670 0.62200 0.41200 -0.01200
H 	H 	0.72930 0.59360 0.47390 0.08200
H 	H 	0.66630 0.86210 0.47600 0.08400
H 	H 	0.80300 0.88620 0.41530 -0.01300
H 	H 	0.83520 0.60830 0.30620 -0.01000
H 	H 	0.83060 0.50430 0.22040 0.06700
H 	H 	0.06020 0.67860 0.16460 0.06800
H 	H 	0.07050 0.78010 0.25450 -0.01400
H 	H 	0.16140 0.67900 0.34020 -0.02400
H 	H 	0.28760 0.62020 0.39290 0.07000
H 	H 	0.16630 0.73080 0.54250 0.09100
H 	H 	0.03200 0.77720 0.48940 -0.01800
H 	H 	0.93500 0.90090 0.28250 -0.03200
H 	H 	0.97330 0.06240 0.28200 0.07600
H 	H 	0.12170 0.10020 0.44360 0.08200
H 	H 	0.08330 0.93870 0.44410 -0.02700
H 	H 	0.53520 0.76720 0.30700 -0.00900
H 	H 	0.51850 0.67140 0.37560 0.07200
H 	H 	0.61050 0.46230 0.26220 0.06800
H 	H 	0.63060 0.55810 0.19370 -0.01700
H 	H 	0.66230 0.60490 0.10460 -0.02400
H 	H 	0.79190 0.58530 0.03700 0.07300
H 	H 	0.92220 0.85520 0.09240 0.07500
H 	H 	0.79550 0.87210 0.16340 -0.02200
H 	H 	0.39170 0.64100 0.18310 -0.01300
H 	H 	0.25050 0.59320 0.11360 0.06100
H 	H 	0.37860 0.76380 0.01320 0.05200
H 	H 	0.52850 0.80380 0.07740 -0.02200
H 	H 	0.73840 0.86530 0.28440 -0.02600
H 	H 	0.74850 0.00820 0.34360 0.09000
H 	H 	0.50320 0.07100 0.24910 0.07000
H 	H 	0.49260 0.92740 0.18790 -0.02200
H 	H 	0.13330 0.37800 0.58800 -0.00700
H 	H 	0.27070 0.40640 0.52610 0.07200
H 	H 	0.33370 0.13790 0.52400 0.07600
H 	H 	0.19700 0.11380 0.58470 -0.00400
H 	H 	0.16480 0.39170 0.69380 0.00500
H 	H 	0.16940 0.49570 0.77960 0.05000
H 	H 	0.93980 0.32140 0.83540 0.05700
H 	H 	0.92950 0.21990 0.74550 0.00000
H 	H 	0.83860 0.32100 0.65980 0.01000
H 	H 	0.71240 0.37980 0.60710 0.05700
H 	H 	0.83370 0.26920 0.45750 0.08100
H 	H 	0.96800 0.22280 0.51060 0.02600
H 	H 	0.06500 0.09910 0.71750 -0.00500
H 	H 	0.02670 0.93760 0.71800 0.07100
H 	H 	0.87830 0.89980 0.55640 0.08200
H 	H 	0.91670 0.06130 0.55590 0.00300
H 	H 	0.46480 0.23280 0.69300 -0.00700
H 	H 	0.48150 0.32860 0.62440 0.07200
H 	H 	0.38950 0.53770 0.73780 0.06900
H 	H 	0.36940 0.44190 0.80630 -0.01300
H 	H 	0.33770 0.39510 0.89540 -0.00900
H 	H 	0.20810 0.41470 0.96300 0.07800
H 	H 	0.07780 0.14480 0.90760 0.06100
H 	H 	0.20450 0.12790 0.83660 -0.01400
H 	H 	0.60830 0.35900 0.81690 -0.00600
H 	H 	0.74950 0.40680 0.88640 0.06500
H 	H 	0.62140 0.23620 0.98680 0.06700
H 	H 	0.47150 0.19620 0.92260 -0.01000
H 	H 	0.26160 0.13470 0.71560 -0.02100
H 	H 	0.25150 0.99180 0.65640 0.07500
H 	H 	0.49680 0.92900 0.75090 0.07300
H 	H 	0.50740 0.07260 0.81210 -0.01500
C 	C 	0.85240 0.75640 0.40930 -0.30400
C 	C 	0.82700 0.67150 0.42590 0.12400
C 	C 	0.74520 0.65330 0.46250 -0.09900
C 	C 	0.68720 0.72970 0.48180 -0.00800
C 	C 	0.70780 0.81310 0.46390 -0.10800
C 	C 	0.78930 0.82720 0.42780 0.11000
C 	C 	0.60500 0.71410 0.52570 0.34200
C 	C 	0.95610 0.70350 0.29200 -0.27900
C 	C 	0.88430 0.62190 0.27820 0.09900
C 	C 	0.88010 0.56020 0.22680 -0.09000
C 	C 	0.94660 0.57810 0.18410 -0.02600
C 	C 	0.01630 0.66280 0.19430 -0.11200
C 	C 	0.02160 0.72380 0.24790 0.06500
C 	C 	0.94930 0.50990 0.12950 0.40100
C 	C 	0.08210 0.73550 0.40820 -0.32600
C 	C 	0.16030 0.68810 0.38150 0.11500
C 	C 	0.23670 0.65370 0.41300 -0.09600
C 	C 	0.24000 0.66750 0.47450 -0.03200
C 	C 	0.16410 0.71710 0.50110 -0.09200
C 	C 	0.08550 0.74730 0.46930 0.11200
C 	C 	0.32440 0.63490 0.50790 0.39900
C 	C 	0.00550 0.90460 0.36330 -0.36100
C 	C 	0.97290 0.94140 0.31520 0.15200
C 	C 	0.99570 0.03730 0.31490 -0.09700
C 	C 	0.05110 0.09650 0.36270 -0.01500
C 	C 	0.08380 0.05970 0.41090 -0.12100
C 	C 	0.06100 0.96380 0.41120 0.12200
C 	C 	0.07720 0.19780 0.36040 0.25300
C 	C 	0.58950 0.67610 0.24220 -0.29200
C 	C 	0.55290 0.70510 0.29760 0.09000
C 	C 	0.54180 0.64820 0.33830 -0.08700
C 	C 	0.56410 0.55720 0.32550 -0.04600
C 	C 	0.59620 0.52550 0.27170 -0.09200
C 	C 	0.60840 0.58290 0.23100 0.09600
C 	C 	0.54650 0.49290 0.36830 0.39400
C 	C 	0.71460 0.74150 0.14040 -0.30200
C 	C 	0.71520 0.65630 0.10250 0.11400
C 	C 	0.79140 0.64450 0.06170 -0.12800
C 	C 	0.86730 0.72090 0.05760 0.01600
C 	C 	0.86940 0.80390 0.09470 -0.12200
C 	C 	0.79270 0.81410 0.13700 0.11400
C 	C 	0.94270 0.70670 0.00860 0.22900
C 	C 	0.47750 0.72590 0.13640 -0.28400
C 	C 	0.39210 0.66460 0.14750 0.08500
C 	C 	0.30710 0.63780 0.10630 -0.08900
C 	C 	0.30150 0.67290 0.05580 -0.03900
C 	C 	0.38210 0.73570 0.04710 -0.09100
C 	C 	0.47120 0.76110 0.08610 0.09200
C 	C 	0.20600 0.64120 0.01280 0.36700
C 	C 	0.61440 0.87860 0.22880 -0.29600
C 	C 	0.68960 0.90710 0.27690 0.11600
C 	C 	0.69500 0.99050 0.31250 -0.13300
C 	C 	0.62400 0.04910 0.30370 0.00200
C 	C 	0.54980 0.02730 0.25620 -0.11600
C 	C 	0.54450 0.94300 0.21990 0.10300
C 	C 	0.62180 0.13940 0.34610 0.32500
C 	C 	0.14760 0.24360 0.59070 -0.24900
C 	C 	0.17300 0.32850 0.57410 0.08200
C 	C 	0.25480 0.34670 0.53750 -0.07700
C 	C 	0.31280 0.27030 0.51820 -0.02700
C 	C 	0.29220 0.18690 0.53610 -0.08200
C 	C 	0.21070 0.17280 0.57220 0.07000
C 	C 	0.39500 0.28590 0.47430 0.34800
C 	C 	0.04390 0.29650 0.70800 -0.26700
C 	C 	0.11570 0.37810 0.72180 0.05300
C 	C 	0.11990 0.43980 0.77320 -0.04300
C 	C 	0.05340 0.42190 0.81590 -0.11600
C 	C 	0.98370 0.33720 0.80570 -0.01500
C 	C 	0.97840 0.27620 0.75210 0.07700
C 	C 	0.05070 0.49010 0.87050 0.42700
C 	C 	0.91790 0.26450 0.59180 -0.20700
C 	C 	0.83970 0.31190 0.61850 0.05000
C 	C 	0.76330 0.34630 0.58700 -0.04600
C 	C 	0.76000 0.33250 0.52550 -0.06400
C 	C 	0.83590 0.28290 0.49890 -0.03800
C 	C 	0.91450 0.25270 0.53070 0.04600
C 	C 	0.67560 0.36510 0.49210 0.41400
C 	C 	0.99450 0.09540 0.63670 -0.20200
C 	C 	0.02710 0.05860 0.68480 0.04700
C 	C 	0.00430 0.96270 0.68510 -0.13400
C 	C 	0.94890 0.90350 0.63730 0.03600
C 	C 	0.91620 0.94030 0.58910 -0.10200
C 	C 	0.93900 0.03620 0.58880 0.07200
C 	C 	0.92280 0.80220 0.63960 0.24500
C 	C 	0.41050 0.32390 0.75780 -0.28700
C 	C 	0.44710 0.29490 0.70240 0.08700
C 	C 	0.45820 0.35180 0.66170 -0.08300
C 	C 	0.43590 0.44280 0.67450 -0.04800
C 	C 	0.40380 0.47450 0.72830 -0.08800
C 	C 	0.39160 0.41710 0.76900 0.09300
C 	C 	0.45350 0.50710 0.63170 0.39600
C 	C 	0.28540 0.25850 0.85960 -0.28200
C 	C 	0.28480 0.34370 0.89750 0.09100
C 	C 	0.20860 0.35550 0.93830 -0.08700
C 	C 	0.13270 0.27910 0.94240 -0.04300
C 	C 	0.13060 0.19610 0.90530 -0.07900
C 	C 	0.20730 0.18590 0.86300 0.08500
C 	C 	0.05730 0.29330 0.99140 0.39700
C 	C 	0.52250 0.27410 0.86360 -0.27100
C 	C 	0.60790 0.33540 0.85250 0.07700
C 	C 	0.69290 0.36220 0.89370 -0.06800
C 	C 	0.69850 0.32710 0.94420 -0.05500
C 	C 	0.61790 0.26430 0.95290 -0.06700
C 	C 	0.52880 0.23890 0.91390 0.08400
C 	C 	0.79400 0.35880 0.98720 0.45400
C 	C 	0.38560 0.12140 0.77120 -0.28700
C 	C 	0.31040 0.09290 0.72310 0.10100
C 	C 	0.30500 0.00950 0.68750 -0.10800
C 	C 	0.37600 0.95090 0.69630 -0.01300
C 	C 	0.45020 0.97270 0.74380 -0.11200
C 	C 	0.45550 0.05700 0.78010 0.10200
C 	C 	0.37820 0.86060 0.65390 0.32900
O 	O 	0.57710 0.63380 0.53749 -0.61100
O 	O 	0.57000 0.78450 0.55282 -0.43100
O 	O 	0.91150 0.42580 0.12879 -0.55800
O 	O 	0.99130 0.54050 0.08702 -0.48900
O 	O 	0.35700 0.56030 0.48828 -0.46200
O 	O 	0.35720 0.68670 0.55603 -0.45400
O 	O 	0.05470 0.22950 0.31690 -0.25900
O 	O 	0.13150 0.25100 0.40740 -0.22400
O 	O 	0.52680 0.52770 0.42012 -0.50200
O 	O 	0.55440 0.40660 0.35212 -0.52900
O 	O 	0.95700 0.62610 0.98359 -0.55800
O 	O 	0.98700 0.78180 0.99300 -0.38600
O 	O 	0.15430 0.56250 0.01456 -0.50300
O 	O 	0.18850 0.69770 0.97963 -0.51000
O 	O 	0.68870 0.15590 0.39229 -0.23500
O 	O 	0.55960 0.19460 0.33766 -0.47100
O 	O 	0.42290 0.36620 0.46251 -0.61400
O 	O 	0.43000 0.21550 0.44718 -0.43400
O 	O 	0.08850 0.57420 0.87121 -0.57300
O 	O 	0.00870 0.45950 0.91298 -0.51200
O 	O 	0.64300 0.43970 0.51172 -0.46300
O 	O 	0.64280 0.31330 0.44397 -0.45600
O 	O 	0.94530 0.77050 0.68310 -0.22900
O 	O 	0.86850 0.74900 0.59260 -0.21000
O 	O 	0.47320 0.47230 0.57988 -0.50100
O 	O 	0.44560 0.59340 0.64788 -0.52900
O 	O 	0.04300 0.37390 0.01641 -0.68000
O 	O 	0.01300 0.21820 0.00700 -0.50400
O 	O 	0.84570 0.43750 0.98544 -0.47900
O 	O 	0.81150 0.30230 0.02037 -0.56800
O 	O 	0.31130 0.84410 0.60771 -0.24200
O 	O 	0.44040 0.80540 0.66234 -0.47100
