data_crystal

_cell_length_a 13.87200
_cell_length_b 13.87200
_cell_length_c 9.43500
_cell_angle_alpha 90.00000
_cell_angle_beta  90.00000
_cell_angle_gamma 120.00000

_symmetry_space_group_name_	'P 1'
_symmetry_space_group_name_H-M	'P 1'

loop_
_symmetry_equiv_pos_as_xyz
  x,y,z

loop_
_atom_site_label
_atom_site_type_symbol
_atom_site_fract_x
_atom_site_fract_y
_atom_site_fract_z
_atom_site_charge
Sc	Sc	0.56150 0.85530 0.40794 2.34500
O 	O 	0.70020 0.89090 0.28620 -0.55800
P 	P 	0.81621 0.98484 0.24528 0.85900
O 	O 	0.86110 0.94340 0.12840 -0.49600
O 	O 	0.89280 0.03060 0.37570 -0.68500
O 	O 	0.80580 0.08380 0.17700 -0.35300
O 	O 	0.57630 0.00650 0.35530 -0.72100
P 	P 	0.63175 0.12651 0.39669 0.61700
O 	O 	0.69880 0.19530 0.26250 -0.21900
O 	O 	0.45060 0.83530 0.56820 -0.53100
O 	O 	0.56450 0.71630 0.48400 -0.61200
O 	O 	0.44480 0.76550 0.26050 -0.58100
Sc	Sc	0.14470 0.70620 0.40794 2.32100
O 	O 	0.10910 0.80930 0.28620 -0.57900
P 	P 	0.01516 0.83137 0.24528 0.34300
O 	O 	0.05660 0.91770 0.12840 -0.53900
O 	O 	0.96940 0.86220 0.37570 -0.37500
O 	O 	0.91620 0.72200 0.17700 -0.11800
O 	O 	0.99350 0.56980 0.35530 -0.48300
P 	P 	0.87349 0.50524 0.39669 0.62300
O 	O 	0.80470 0.50350 0.26250 -0.20200
O 	O 	0.16470 0.61530 0.56820 -0.61300
O 	O 	0.28370 0.84820 0.48400 -0.60200
O 	O 	0.23450 0.67930 0.26050 -0.64400
Sc	Sc	0.29380 0.43850 0.40794 2.33300
O 	O 	0.19070 0.29980 0.28620 -0.61100
P 	P 	0.16863 0.18379 0.24528 0.60100
O 	O 	0.08230 0.13890 0.12840 -0.72500
O 	O 	0.13780 0.10720 0.37570 -0.71100
O 	O 	0.27800 0.19420 0.17700 -0.29300
O 	O 	0.43020 0.42370 0.35530 -0.60300
P 	P 	0.49476 0.36825 0.39669 0.62300
O 	O 	0.49650 0.30120 0.26250 -0.23300
O 	O 	0.38470 0.54940 0.56820 -0.57300
O 	O 	0.15180 0.43550 0.48400 -0.66600
O 	O 	0.32070 0.55520 0.26050 -0.62800
Sc	Sc	0.43850 0.14470 0.59206 2.32100
O 	O 	0.29980 0.10910 0.71380 -0.57400
P 	P 	0.18379 0.01516 0.75472 0.31400
O 	O 	0.13890 0.05660 0.87160 -0.56600
O 	O 	0.10720 0.96940 0.62430 -0.46300
O 	O 	0.19420 0.91620 0.82300 -0.05700
O 	O 	0.42370 0.99350 0.64470 -0.45600
P 	P 	0.36825 0.87349 0.60331 0.62200
O 	O 	0.30120 0.80470 0.73750 -0.14900
O 	O 	0.54940 0.16470 0.43180 -0.63000
O 	O 	0.43550 0.28370 0.51600 -0.63600
O 	O 	0.55520 0.23450 0.73950 -0.61600
Sc	Sc	0.85530 0.29380 0.59206 2.34600
O 	O 	0.89090 0.19070 0.71380 -0.55100
P 	P 	0.98484 0.16863 0.75472 0.86900
O 	O 	0.94340 0.08230 0.87160 -0.51500
O 	O 	0.03060 0.13780 0.62430 -0.81200
O 	O 	0.08380 0.27800 0.82300 -0.31200
O 	O 	0.00650 0.43020 0.64470 -0.69600
P 	P 	0.12651 0.49476 0.60331 0.61600
O 	O 	0.19530 0.49650 0.73750 -0.16600
O 	O 	0.83530 0.38470 0.43180 -0.54500
O 	O 	0.71630 0.15180 0.51600 -0.64200
O 	O 	0.76550 0.32070 0.73950 -0.55500
Sc	Sc	0.70620 0.56150 0.59206 2.33400
O 	O 	0.80930 0.70020 0.71380 -0.52400
P 	P 	0.83137 0.81621 0.75472 0.59400
O 	O 	0.91770 0.86110 0.87160 -0.35600
O 	O 	0.86220 0.89280 0.62430 -0.47300
O 	O 	0.72200 0.80580 0.82300 -0.13800
O 	O 	0.56980 0.57630 0.64470 -0.57700
P 	P 	0.50524 0.63175 0.60331 0.61600
O 	O 	0.50350 0.69880 0.73750 -0.13900
O 	O 	0.61530 0.45060 0.43180 -0.58700
O 	O 	0.84820 0.56450 0.51600 -0.58400
O 	O 	0.67930 0.44480 0.73950 -0.57100
Sc	Sc	-0.00000 0.00000 -0.00000 2.27400
Sc	Sc	-0.00000 -0.00000 0.50000 2.28700
P 	P 	0.33333 0.66667 0.21570 0.64500
O 	O 	0.33333 0.66667 0.04690 -0.22500
P 	P 	0.66667 0.33333 0.78430 0.64700
O 	O 	0.66667 0.33333 0.95310 -0.08100
