data_crystal

_cell_length_a 10.46800
_cell_length_b 11.32600
_cell_length_c 12.72590
_cell_angle_alpha 100.84500
_cell_angle_beta  109.92900
_cell_angle_gamma 99.76900

_symmetry_space_group_name_	'P 1'
_symmetry_space_group_name_H-M	'P 1'

loop_
_symmetry_equiv_pos_as_xyz
  x,y,z

loop_
_atom_site_label
_atom_site_type_symbol
_atom_site_fract_x
_atom_site_fract_y
_atom_site_fract_z
_atom_site_charge
Nd	Nd	0.89242 0.95109 0.82393 1.99800
O 	O 	0.85010 0.99720 0.99910 -0.60400
O 	O 	0.87790 0.06780 0.18040 -0.49900
O 	O 	0.92680 0.77600 0.90500 -0.49300
O 	O 	0.00360 0.82500 0.09790 -0.52200
O 	O 	0.65950 0.79140 0.73180 -0.46500
O 	O 	0.81520 0.76150 0.65720 -0.46400
N 	N 	0.66570 0.13120 0.22550 -0.29900
H 	H 	0.62470 0.16310 0.26990 0.11800
H 	H 	0.75760 0.14320 0.25310 0.15000
N 	N 	0.97690 0.57840 0.79600 -0.28800
H 	H 	0.98460 0.52820 0.73790 0.12300
H 	H 	0.96550 0.65280 0.79140 0.15300
N 	N 	0.78200 0.53340 0.53000 -0.27400
H 	H 	0.84850 0.58690 0.59150 0.14200
H 	H 	0.80390 0.48180 0.48190 0.11200
C 	C 	0.79900 0.02790 0.07420 0.43700
C 	C 	0.64490 0.01440 0.03750 -0.16600
C 	C 	0.58720 0.06360 0.11460 0.13300
C 	C 	0.55690 0.95240 0.92430 -0.05500
H 	H 	0.59640 0.91980 0.87180 0.02300
C 	C 	0.97010 0.75040 0.00040 0.43900
C 	C 	0.98340 0.61960 0.99870 -0.13400
C 	C 	0.98300 0.53890 0.89870 0.12400
C 	C 	0.00120 0.42060 0.90300 -0.07300
H 	H 	0.00290 0.36660 0.83690 0.04200
C 	C 	0.69570 0.72720 0.66130 0.35500
C 	C 	0.59540 0.60860 0.57920 -0.15300
C 	C 	0.63830 0.53030 0.50760 0.08000
C 	C 	0.45710 0.57930 0.57030 0.08000
N 	N 	0.39800 0.65600 0.63300 -0.27400
H 	H 	0.44980 0.72800 0.68190 0.14100
H 	H 	0.30900 0.63140 0.62310 0.11300
Nd	Nd	0.10758 0.04891 0.17607 1.99800
O 	O 	0.14990 0.00280 0.00090 -0.60400
O 	O 	0.12210 0.93220 0.81960 -0.49900
O 	O 	0.07320 0.22400 0.09500 -0.49300
O 	O 	0.99640 0.17500 0.90210 -0.52200
O 	O 	0.34050 0.20860 0.26820 -0.46500
O 	O 	0.18480 0.23850 0.34280 -0.46400
N 	N 	0.33430 0.86880 0.77450 -0.29900
H 	H 	0.37530 0.83690 0.73010 0.11800
H 	H 	0.24240 0.85680 0.74690 0.15000
N 	N 	0.02310 0.42160 0.20400 -0.28800
H 	H 	0.01540 0.47180 0.26210 0.12300
H 	H 	0.03450 0.34720 0.20860 0.15300
N 	N 	0.21800 0.46660 0.47000 -0.27400
H 	H 	0.15150 0.41310 0.40850 0.14200
H 	H 	0.19610 0.51820 0.51810 0.11200
C 	C 	0.20100 0.97210 0.92580 0.43700
C 	C 	0.35510 0.98560 0.96250 -0.16600
C 	C 	0.41280 0.93640 0.88540 0.13300
C 	C 	0.44310 0.04760 0.07570 -0.05500
H 	H 	0.40360 0.08020 0.12820 0.02300
C 	C 	0.02990 0.24960 0.99960 0.43900
C 	C 	0.01660 0.38040 0.00130 -0.13400
C 	C 	0.01700 0.46110 0.10130 0.12400
C 	C 	0.99880 0.57940 0.09700 -0.07300
H 	H 	0.99710 0.63340 0.16310 0.04200
C 	C 	0.30430 0.27280 0.33870 0.35500
C 	C 	0.40460 0.39140 0.42080 -0.15300
C 	C 	0.36170 0.46970 0.49240 0.08000
C 	C 	0.54290 0.42070 0.42970 0.08000
N 	N 	0.60200 0.34400 0.36700 -0.27400
H 	H 	0.55020 0.27200 0.31810 0.14100
H 	H 	0.69100 0.36860 0.37690 0.11300
