data_crystal

_cell_length_a 7.21040
_cell_length_b 13.63700
_cell_length_c 17.37900
_cell_angle_alpha 90.00000
_cell_angle_beta  100.65700
_cell_angle_gamma 90.00000

_symmetry_space_group_name_	'P 1'
_symmetry_space_group_name_H-M	'P 1'

loop_
_symmetry_equiv_pos_as_xyz
  x,y,z

loop_
_atom_site_label
_atom_site_type_symbol
_atom_site_fract_x
_atom_site_fract_y
_atom_site_fract_z
_atom_site_charge
In	In	0.46697 0.09877 0.44673 1.97700
O 	O 	0.57410 0.15840 0.56190 -0.53300
O 	O 	0.68090 0.01970 0.62580 -0.59700
O 	O 	0.98620 0.12000 0.57380 -0.45500
O 	O 	0.25450 0.11130 0.66240 -0.24900
O 	O 	0.23220 0.30630 0.91310 -0.48100
O 	O 	0.97620 0.40480 0.90030 -0.44200
O 	O 	0.66390 0.28080 0.92190 -0.39200
O 	O 	0.53230 0.37600 0.82560 -0.40900
O 	O 	0.69130 0.98770 0.47130 -0.69400
C 	C 	0.77960 0.17020 0.68440 -0.15000
C 	C 	0.97620 0.17760 0.69960 0.17000
C 	C 	0.06910 0.22460 0.76590 -0.25000
H 	H 	0.20310 0.22670 0.77710 0.13700
C 	C 	0.96510 0.26870 0.81600 0.13700
C 	C 	0.76640 0.26310 0.79990 -0.09800
C 	C 	0.67530 0.21410 0.73430 0.09700
H 	H 	0.54150 0.21040 0.72340 0.03600
C 	C 	0.67180 0.11180 0.61750 0.45700
C 	C 	0.08560 0.13290 0.64150 0.19600
C 	C 	0.06400 0.33180 0.88260 0.27800
C 	C 	0.65020 0.31050 0.85250 0.30900
In	In	0.53303 0.59877 0.05327 1.98000
O 	O 	0.42590 0.65840 0.93810 -0.43600
O 	O 	0.31910 0.51970 0.87420 -0.50500
O 	O 	0.01380 0.62000 0.92620 -0.53100
O 	O 	0.74550 0.61130 0.83760 -0.28400
O 	O 	0.76780 0.80630 0.58690 -0.54600
O 	O 	0.02380 0.90480 0.59970 -0.55000
O 	O 	0.33610 0.78080 0.57810 -0.39600
O 	O 	0.46770 0.87600 0.67440 -0.33600
O 	O 	0.30870 0.48770 0.02870 -0.84200
C 	C 	0.22040 0.67020 0.81560 0.06900
C 	C 	0.02380 0.67760 0.80040 -0.22000
C 	C 	0.93090 0.72460 0.73410 0.26400
H 	H 	0.79690 0.72670 0.72290 -0.01100
C 	C 	0.03490 0.76870 0.68400 -0.24600
C 	C 	0.23360 0.76310 0.70010 0.10500
C 	C 	0.32470 0.71410 0.76570 -0.09500
H 	H 	0.45850 0.71040 0.77660 0.11800
C 	C 	0.32820 0.61180 0.88250 0.37000
C 	C 	0.91440 0.63290 0.85850 0.49200
C 	C 	0.93600 0.83180 0.61740 0.56200
C 	C 	0.34980 0.81050 0.64750 0.24300
In	In	0.53303 0.90123 0.55327 2.01500
O 	O 	0.42590 0.84160 0.43810 -0.48500
O 	O 	0.31910 0.98030 0.37420 -0.44900
O 	O 	0.01380 0.88000 0.42620 -0.55100
O 	O 	0.74550 0.88870 0.33760 -0.27200
O 	O 	0.76780 0.69370 0.08690 -0.58500
O 	O 	0.02380 0.59520 0.09970 -0.63600
O 	O 	0.33610 0.71920 0.07810 -0.43200
O 	O 	0.46770 0.62400 0.17440 -0.39200
O 	O 	0.30870 0.01230 0.52870 -0.85900
C 	C 	0.22040 0.82980 0.31560 0.06600
C 	C 	0.02380 0.82240 0.30040 -0.22400
C 	C 	0.93090 0.77540 0.23410 0.26700
H 	H 	0.79690 0.77330 0.22290 -0.01600
C 	C 	0.03490 0.73130 0.18400 -0.26500
C 	C 	0.23360 0.73690 0.20010 0.09400
C 	C 	0.32470 0.78590 0.26570 -0.09600
H 	H 	0.45850 0.78960 0.27660 0.11300
C 	C 	0.32820 0.88820 0.38250 0.36800
C 	C 	0.91440 0.86710 0.35850 0.49300
C 	C 	0.93600 0.66820 0.11740 0.57700
C 	C 	0.34980 0.68950 0.14750 0.25400
In	In	0.46697 0.40123 0.94673 2.01200
O 	O 	0.57410 0.34160 0.06190 -0.58200
O 	O 	0.68090 0.48030 0.12580 -0.54600
O 	O 	0.98620 0.38000 0.07380 -0.48100
O 	O 	0.25450 0.38870 0.16240 -0.23600
O 	O 	0.23220 0.19370 0.41310 -0.51600
O 	O 	0.97620 0.09520 0.40030 -0.50700
O 	O 	0.66390 0.21920 0.42190 -0.42900
O 	O 	0.53230 0.12400 0.32560 -0.46700
O 	O 	0.69130 0.51230 0.97130 -0.70600
C 	C 	0.77960 0.32980 0.18440 -0.15600
C 	C 	0.97620 0.32240 0.19960 0.17000
C 	C 	0.06910 0.27540 0.26590 -0.26200
H 	H 	0.20310 0.27330 0.27710 0.13700
C 	C 	0.96510 0.23130 0.31600 0.14100
C 	C 	0.76640 0.23690 0.29990 -0.11800
C 	C 	0.67530 0.28590 0.23430 0.10300
H 	H 	0.54150 0.28960 0.22340 0.02800
C 	C 	0.67180 0.38820 0.11750 0.45700
C 	C 	0.08560 0.36710 0.14150 0.20300
C 	C 	0.06400 0.16820 0.38260 0.26300
C 	C 	0.65020 0.18950 0.35250 0.32500
In	In	-0.00000 0.00000 0.50000 1.96400
In	In	0.00000 0.50000 -0.00000 1.96900
