data_crystal

_cell_length_a 15.26900
_cell_length_b 15.26900
_cell_length_c 10.33600
_cell_angle_alpha 90.00000
_cell_angle_beta  90.00000
_cell_angle_gamma 120.00000

_symmetry_space_group_name_	'P 1'
_symmetry_space_group_name_H-M	'P 1'

loop_
_symmetry_equiv_pos_as_xyz
  x,y,z

loop_
_atom_site_label
_atom_site_type_symbol
_atom_site_fract_x
_atom_site_fract_y
_atom_site_fract_z
_atom_site_charge
O 	O 	0.15562 0.47295 0.06114 -0.15500
P 	P 	0.10779 0.52766 0.68915 0.24500
O 	O 	0.52705 0.68267 0.06114 -0.15700
P 	P 	0.47234 0.58013 0.68915 0.25100
O 	O 	0.31733 0.84438 0.06114 -0.15200
P 	P 	0.41987 0.89221 0.68915 0.25800
O 	O 	0.84438 0.52705 0.56114 -0.47200
P 	P 	0.89221 0.47234 0.18915 0.27100
O 	O 	0.47295 0.31733 0.56114 -0.46900
P 	P 	0.52766 0.41987 0.18915 0.26400
O 	O 	0.68267 0.15562 0.56114 -0.47400
P 	P 	0.58013 0.10779 0.18915 0.25600
O 	O 	0.52705 0.84438 0.06114 -0.15400
P 	P 	0.47234 0.89221 0.68915 0.24600
O 	O 	0.31733 0.47295 0.06114 -0.15700
P 	P 	0.41987 0.52766 0.68915 0.25100
O 	O 	0.15562 0.68267 0.06114 -0.15200
P 	P 	0.10779 0.58013 0.68915 0.25800
O 	O 	0.47295 0.15562 0.56114 -0.47200
P 	P 	0.52766 0.10779 0.18915 0.27100
O 	O 	0.68267 0.52705 0.56114 -0.46900
P 	P 	0.58013 0.47234 0.18915 0.26400
O 	O 	0.84438 0.31733 0.56114 -0.47400
P 	P 	0.89221 0.41987 0.18915 0.25600
Zn	Zn	0.08602 0.54301 0.99905 1.11800
O 	O 	0.05766 0.52883 0.81528 -0.54000
O 	O 	0.04752 0.52376 0.57061 -0.42600
O 	O 	0.21700 0.60850 0.67146 -0.59000
Zn	Zn	0.45699 0.54301 0.99905 1.11400
O 	O 	0.47117 0.52883 0.81528 -0.54800
O 	O 	0.47624 0.52376 0.57061 -0.43700
O 	O 	0.39150 0.60850 0.67146 -0.59100
Zn	Zn	0.45699 0.91398 0.99905 1.11800
O 	O 	0.47117 0.94234 0.81528 -0.54000
O 	O 	0.47624 0.95248 0.57061 -0.42600
O 	O 	0.39150 0.78300 0.67146 -0.59000
Zn	Zn	0.91398 0.45699 0.49905 1.23100
O 	O 	0.94234 0.47117 0.31528 -0.46400
O 	O 	0.95248 0.47624 0.07061 -0.32600
O 	O 	0.78300 0.39150 0.17146 -0.54500
Zn	Zn	0.54301 0.45699 0.49905 1.23500
O 	O 	0.52883 0.47117 0.31528 -0.45600
O 	O 	0.52376 0.47624 0.07061 -0.31300
O 	O 	0.60850 0.39150 0.17146 -0.54400
Zn	Zn	0.54301 0.08602 0.49905 1.23100
O 	O 	0.52883 0.05766 0.31528 -0.46400
O 	O 	0.52376 0.04752 0.07061 -0.32600
O 	O 	0.60850 0.21700 0.17146 -0.54500
Al	Al	0.33333 0.66667 0.77877 2.39400
Al	Al	0.66667 0.33333 0.27877 2.39700
P 	P 	0.23546 0.47092 0.98042 0.04300
O 	O 	0.27444 0.54888 0.87825 -0.68800
P 	P 	0.52908 0.76454 0.98042 0.04300
O 	O 	0.45112 0.72556 0.87825 -0.68800
P 	P 	0.23546 0.76454 0.98042 0.04600
O 	O 	0.27444 0.72556 0.87825 -0.68700
P 	P 	0.76454 0.52908 0.48042 0.50800
O 	O 	0.72556 0.45112 0.37825 -0.69700
P 	P 	0.47092 0.23546 0.48042 0.50800
O 	O 	0.54888 0.27444 0.37825 -0.69700
P 	P 	0.76454 0.23546 0.48042 0.50500
O 	O 	0.72556 0.27444 0.37825 -0.69700
