data_crystal

_cell_length_a 9.20900
_cell_length_b 14.71200
_cell_length_c 12.51780
_cell_angle_alpha 90.00000
_cell_angle_beta  109.01000
_cell_angle_gamma 90.00000

_symmetry_space_group_name_	'P 1'
_symmetry_space_group_name_H-M	'P 1'

loop_
_symmetry_equiv_pos_as_xyz
  x,y,z

loop_
_atom_site_label
_atom_site_type_symbol
_atom_site_fract_x
_atom_site_fract_y
_atom_site_fract_z
_atom_site_charge
Fe	Fe	0.95290 0.04238 0.33270 1.19100
Fe	Fe	0.83163 0.20033 0.10783 1.21400
Cl	Cl	0.00501 0.93755 0.22280 -0.30600
Cl	Cl	0.98431 0.30327 0.23520 -0.47800
O 	O 	0.80500 0.11300 0.20980 -0.62200
H 	H 	0.70050 0.10020 0.20060 0.24500
O 	O 	0.95230 0.13910 0.45330 -0.41400
O 	O 	0.15770 0.10890 0.36100 -0.26000
O 	O 	0.11330 0.24440 0.56840 -0.30000
O 	O 	0.32050 0.21300 0.47550 -0.27900
O 	O 	0.71290 0.89130 0.47410 -0.30800
O 	O 	0.01950 0.86070 0.58800 -0.12700
O 	O 	0.07500 0.96080 0.47760 -0.11400
O 	O 	0.76660 0.98400 0.35490 -0.34200
C 	C 	0.07570 0.18470 0.49130 0.38500
C 	C 	0.19510 0.16800 0.43800 0.20400
C 	C 	0.80410 0.93260 0.43900 0.30200
C 	C 	0.98190 0.91750 0.50730 -0.06500
Fe	Fe	0.45290 0.54238 0.33270 1.25000
Fe	Fe	0.33163 0.70033 0.10783 1.23800
Cl	Cl	0.50501 0.43755 0.22280 -0.40500
Cl	Cl	0.48431 0.80327 0.23520 -0.38700
O 	O 	0.30500 0.61300 0.20980 -0.59600
H 	H 	0.20050 0.60020 0.20060 0.26100
O 	O 	0.45230 0.63910 0.45330 -0.28500
O 	O 	0.65770 0.60890 0.36100 -0.31700
O 	O 	0.61330 0.74440 0.56840 -0.28800
O 	O 	0.82050 0.71300 0.47550 -0.32100
O 	O 	0.21290 0.39130 0.47410 -0.25300
O 	O 	0.51950 0.36070 0.58800 -0.31200
O 	O 	0.57500 0.46080 0.47760 -0.28700
O 	O 	0.26660 0.48400 0.35490 -0.28800
C 	C 	0.57570 0.68470 0.49130 0.23700
C 	C 	0.69510 0.66800 0.43800 0.24000
C 	C 	0.30410 0.43260 0.43900 0.23900
C 	C 	0.48190 0.41750 0.50730 0.23200
Fe	Fe	0.95290 0.95762 0.83270 1.19300
Fe	Fe	0.83163 0.79967 0.60783 1.22900
Cl	Cl	0.00501 0.06245 0.72280 -0.29000
Cl	Cl	0.98431 0.69673 0.73520 -0.45900
O 	O 	0.80500 0.88700 0.70980 -0.61700
H 	H 	0.70050 0.89980 0.70060 0.25300
O 	O 	0.95230 0.86090 0.95330 -0.41200
O 	O 	0.15770 0.89110 0.86100 -0.25200
O 	O 	0.11330 0.75560 0.06840 -0.34700
O 	O 	0.32050 0.78700 0.97550 -0.25200
O 	O 	0.71290 0.10870 0.97410 -0.29700
O 	O 	0.01950 0.13930 0.08800 -0.11600
O 	O 	0.07500 0.03920 0.97760 -0.05200
O 	O 	0.76660 0.01600 0.85490 -0.35000
C 	C 	0.07570 0.81530 0.99130 0.43500
C 	C 	0.19510 0.83200 0.93800 0.19000
C 	C 	0.80410 0.06740 0.93900 0.35900
C 	C 	0.98190 0.08250 0.00730 -0.17300
Fe	Fe	0.45290 0.45762 0.83270 1.25100
Fe	Fe	0.33163 0.29967 0.60783 1.25200
Cl	Cl	0.50501 0.56245 0.72280 -0.38500
Cl	Cl	0.48431 0.19673 0.73520 -0.37100
O 	O 	0.30500 0.38700 0.70980 -0.59200
H 	H 	0.20050 0.39980 0.70060 0.26800
O 	O 	0.45230 0.36090 0.95330 -0.28900
O 	O 	0.65770 0.39110 0.86100 -0.30800
O 	O 	0.61330 0.25560 0.06840 -0.34300
O 	O 	0.82050 0.28700 0.97550 -0.28900
O 	O 	0.21290 0.60870 0.97410 -0.24400
O 	O 	0.51950 0.63930 0.08800 -0.30200
O 	O 	0.57500 0.53920 0.97760 -0.22600
O 	O 	0.26660 0.51600 0.85490 -0.29400
C 	C 	0.57570 0.31530 0.99130 0.30100
C 	C 	0.69510 0.33200 0.93800 0.22300
C 	C 	0.30410 0.56740 0.93900 0.29200
C 	C 	0.48190 0.58250 0.00730 0.13000
