data_crystal

_cell_length_a 27.44900
_cell_length_b 27.44900
_cell_length_c 27.44900
_cell_angle_alpha 90.00000
_cell_angle_beta  90.00000
_cell_angle_gamma 90.00000

_symmetry_space_group_name_	'P 1'
_symmetry_space_group_name_H-M	'P 1'

loop_
_symmetry_equiv_pos_as_xyz
  x,y,z

loop_
_atom_site_label
_atom_site_type_symbol
_atom_site_fract_x
_atom_site_fract_y
_atom_site_fract_z
_atom_site_charge
Cu	Cu	-0.00000 0.50000 0.70112 0.94600
Cu	Cu	-0.00000 0.50000 0.29888 0.94600
Cu	Cu	0.70112 0.00000 0.50000 0.94500
Cu	Cu	0.29888 0.00000 0.50000 0.94500
Cu	Cu	0.50000 0.70113 -0.00000 0.94500
Cu	Cu	0.50000 0.29887 -0.00000 0.94500
Cu	Cu	-0.00000 0.50000 0.79888 0.94500
Cu	Cu	-0.00000 0.50000 0.20112 0.94500
Cu	Cu	0.50000 0.20112 -0.00000 0.94500
Cu	Cu	0.50000 0.79888 -0.00000 0.94500
Cu	Cu	0.20113 0.00000 0.50000 0.94500
Cu	Cu	0.79887 0.00000 0.50000 0.94500
H 	H 	0.10278 0.38863 0.82844 0.03500
H 	H 	0.16516 0.32531 0.82837 0.04700
H 	H 	0.89722 0.61137 0.82844 0.04000
H 	H 	0.83484 0.67469 0.82837 0.05100
H 	H 	0.89722 0.38863 0.17156 0.03700
H 	H 	0.83484 0.32531 0.17163 0.04600
H 	H 	0.10278 0.61137 0.17156 0.03300
H 	H 	0.16516 0.67469 0.17163 0.04400
H 	H 	0.82957 0.10334 0.38848 0.03700
H 	H 	0.82900 0.16542 0.32486 0.04700
H 	H 	0.82957 0.89666 0.61152 0.04300
H 	H 	0.82900 0.83458 0.67514 0.05100
H 	H 	0.17043 0.89666 0.38848 0.03800
H 	H 	0.17100 0.83458 0.32486 0.04600
H 	H 	0.17043 0.10334 0.61152 0.03400
H 	H 	0.17100 0.16542 0.67514 0.04400
H 	H 	0.38879 0.82731 0.10256 0.03500
H 	H 	0.32574 0.82775 0.16519 0.04700
H 	H 	0.57414 0.62455 0.02107 0.02400
H 	H 	0.57536 0.53524 0.02307 0.04200
H 	H 	0.61121 0.82731 0.89744 0.04100
H 	H 	0.67426 0.82775 0.83481 0.05100
H 	H 	0.42586 0.62455 0.97893 0.02800
H 	H 	0.42464 0.53524 0.97693 0.05000
H 	H 	0.38879 0.17269 0.89744 0.03700
H 	H 	0.32574 0.17225 0.83481 0.04600
H 	H 	0.57414 0.37545 0.97893 0.02900
H 	H 	0.57536 0.46476 0.97693 0.05000
H 	H 	0.61121 0.17269 0.10256 0.03300
H 	H 	0.67426 0.17225 0.16519 0.04400
H 	H 	0.42586 0.37545 0.02107 0.02300
H 	H 	0.42464 0.46476 0.02307 0.04200
H 	H 	0.88863 0.60278 0.67156 0.03800
H 	H 	0.82531 0.66516 0.67163 0.04800
H 	H 	0.11137 0.39722 0.67156 0.03500
H 	H 	0.17469 0.33484 0.67163 0.04600
H 	H 	0.88863 0.39722 0.32844 0.03800
H 	H 	0.82531 0.33484 0.32837 0.04800
H 	H 	0.11137 0.60278 0.32844 0.03500
H 	H 	0.17469 0.66516 0.32837 0.04600
H 	H 	0.60334 0.32957 0.11152 0.03500
H 	H 	0.66542 0.32900 0.17514 0.04600
H 	H 	0.39666 0.32957 0.88848 0.04100
H 	H 	0.33458 0.32900 0.82486 0.04800
H 	H 	0.39666 0.67043 0.11152 0.03500
H 	H 	0.33458 0.67100 0.17514 0.04600
H 	H 	0.60334 0.67043 0.88848 0.04100
H 	H 	0.66542 0.67100 0.82486 0.04800
H 	H 	0.32731 0.88879 0.39744 0.03800
H 	H 	0.32775 0.82574 0.33481 0.04800
H 	H 	0.12455 0.07414 0.47893 0.02600
H 	H 	0.03524 0.07536 0.47693 0.03500
H 	H 	0.32731 0.11121 0.60256 0.03500
H 	H 	0.32775 0.17426 0.66519 0.04600
H 	H 	0.12455 0.92586 0.52107 0.02500
H 	H 	0.03524 0.92464 0.52307 0.03600
H 	H 	0.67269 0.88879 0.60256 0.03800
H 	H 	0.67225 0.82574 0.66519 0.04800
H 	H 	0.87545 0.07414 0.52107 0.02700
H 	H 	0.96476 0.07536 0.52307 0.05600
H 	H 	0.67269 0.11121 0.39744 0.03500
H 	H 	0.67225 0.17426 0.33481 0.04600
H 	H 	0.87545 0.92586 0.47893 0.02500
H 	H 	0.96476 0.92464 0.47693 0.05600
H 	H 	0.89687 0.61125 0.17155 0.03900
H 	H 	0.83454 0.67461 0.17161 0.04700
H 	H 	0.97993 0.42557 0.37547 0.02900
H 	H 	0.97768 0.42439 0.46468 0.05000
H 	H 	0.10313 0.38875 0.17155 0.03400
H 	H 	0.16546 0.32539 0.17161 0.04300
H 	H 	0.02007 0.57443 0.37547 0.02400
H 	H 	0.02232 0.57561 0.46468 0.04200
H 	H 	0.10313 0.61125 0.82845 0.03800
H 	H 	0.16546 0.67461 0.82839 0.04800
H 	H 	0.02007 0.42557 0.62453 0.02400
H 	H 	0.02232 0.42439 0.53532 0.04100
H 	H 	0.89687 0.38875 0.82845 0.04200
H 	H 	0.83454 0.32539 0.82839 0.05000
H 	H 	0.97993 0.57443 0.62453 0.02900
H 	H 	0.97768 0.57561 0.53532 0.05000
H 	H 	0.17268 0.89746 0.61111 0.03700
H 	H 	0.17225 0.83484 0.67416 0.04700
H 	H 	0.37545 0.97893 0.42586 0.02800
H 	H 	0.46476 0.97693 0.42464 0.05000
H 	H 	0.17268 0.10254 0.38889 0.03200
H 	H 	0.17225 0.16516 0.32584 0.04300
H 	H 	0.37545 0.02107 0.57414 0.02300
H 	H 	0.46476 0.02307 0.57536 0.04200
H 	H 	0.82732 0.10254 0.61111 0.03600
H 	H 	0.82775 0.16516 0.67416 0.04800
H 	H 	0.62455 0.02107 0.42586 0.02300
H 	H 	0.53524 0.02307 0.42464 0.04200
H 	H 	0.82732 0.89746 0.38889 0.04000
H 	H 	0.82775 0.83484 0.32584 0.05000
H 	H 	0.62455 0.97893 0.57414 0.02900
H 	H 	0.53524 0.97693 0.57536 0.05000
H 	H 	0.61140 0.17042 0.89667 0.03900
H 	H 	0.67502 0.17098 0.83459 0.04700
H 	H 	0.38860 0.17042 0.10333 0.03300
H 	H 	0.32498 0.17098 0.16541 0.04300
H 	H 	0.61140 0.82958 0.10333 0.03800
H 	H 	0.67502 0.82902 0.16541 0.04900
H 	H 	0.38860 0.82958 0.89667 0.04200
H 	H 	0.32498 0.82902 0.83459 0.05000
H 	H 	0.11125 0.39687 0.32845 0.03500
H 	H 	0.17461 0.33454 0.32839 0.04600
H 	H 	0.92557 0.47993 0.12453 0.02500
H 	H 	0.92439 0.47768 0.03532 0.03500
H 	H 	0.88875 0.60313 0.32845 0.04100
H 	H 	0.82539 0.66546 0.32839 0.04800
H 	H 	0.07443 0.52007 0.12453 0.02700
H 	H 	0.07561 0.52232 0.03532 0.03600
H 	H 	0.11125 0.60313 0.67155 0.03600
H 	H 	0.17461 0.66546 0.67161 0.04600
H 	H 	0.92557 0.52007 0.87547 0.02600
H 	H 	0.92439 0.52232 0.96468 0.05600
H 	H 	0.88875 0.39687 0.67155 0.04100
H 	H 	0.82539 0.33454 0.67161 0.04800
H 	H 	0.07443 0.47993 0.87547 0.02700
H 	H 	0.07561 0.47768 0.96468 0.05600
H 	H 	0.39746 0.67268 0.88889 0.03800
H 	H 	0.33484 0.67225 0.82584 0.04800
H 	H 	0.47893 0.87545 0.07414 0.02700
H 	H 	0.47693 0.96476 0.07536 0.05600
H 	H 	0.60254 0.67268 0.11111 0.03500
H 	H 	0.66516 0.67225 0.17416 0.04600
H 	H 	0.52107 0.87545 0.92586 0.02500
H 	H 	0.52307 0.96476 0.92464 0.05700
H 	H 	0.60254 0.32732 0.88889 0.03800
H 	H 	0.66516 0.32775 0.82584 0.04800
H 	H 	0.52107 0.12455 0.07414 0.02700
H 	H 	0.52307 0.03524 0.07536 0.03600
H 	H 	0.39746 0.32732 0.11111 0.03500
H 	H 	0.33484 0.32775 0.17416 0.04600
H 	H 	0.47893 0.12455 0.92586 0.02500
H 	H 	0.47693 0.03524 0.92464 0.03600
H 	H 	0.67042 0.11140 0.60333 0.03500
H 	H 	0.67098 0.17502 0.66541 0.04600
H 	H 	0.67042 0.88860 0.39667 0.04100
H 	H 	0.67098 0.82498 0.33459 0.04800
H 	H 	0.32958 0.11140 0.39667 0.03500
H 	H 	0.32902 0.17502 0.33459 0.04600
H 	H 	0.32958 0.88860 0.60333 0.04100
H 	H 	0.32902 0.82498 0.66541 0.04800
H 	H 	0.25006 0.31430 0.81369 0.04700
H 	H 	0.74994 0.68570 0.81369 0.04800
H 	H 	0.74994 0.31430 0.18631 0.04500
H 	H 	0.25006 0.68570 0.18631 0.04500
H 	H 	0.81430 0.24994 0.31369 0.04700
H 	H 	0.81430 0.75006 0.68631 0.04800
H 	H 	0.18570 0.75006 0.31369 0.04500
H 	H 	0.18570 0.24994 0.68631 0.04500
H 	H 	0.31382 0.81382 0.25000 0.04700
H 	H 	0.68618 0.81382 0.75000 0.04800
H 	H 	0.31382 0.18618 0.75000 0.04500
H 	H 	0.68618 0.18618 0.25000 0.04500
H 	H 	0.75004 0.68644 0.18582 0.04600
H 	H 	0.24996 0.31356 0.18582 0.04400
H 	H 	0.24996 0.68644 0.81418 0.04800
H 	H 	0.75004 0.31356 0.81418 0.04800
H 	H 	0.18644 0.74996 0.68582 0.04600
H 	H 	0.18644 0.25004 0.31418 0.04400
H 	H 	0.81356 0.25004 0.68582 0.04800
H 	H 	0.81356 0.74996 0.31418 0.04800
H 	H 	0.68593 0.18593 0.75000 0.04600
H 	H 	0.31407 0.18593 0.25000 0.04400
H 	H 	0.68593 0.81407 0.25000 0.04800
H 	H 	0.31407 0.81407 0.75000 0.04800
C 	C 	0.11815 0.37719 0.79395 0.02500
C 	C 	0.15415 0.34109 0.79394 -0.06800
C 	C 	0.88185 0.62281 0.79395 0.02700
C 	C 	0.84585 0.65891 0.79394 -0.06500
C 	C 	0.88185 0.37719 0.20605 0.02500
C 	C 	0.84585 0.34109 0.20606 -0.06700
C 	C 	0.11815 0.62281 0.20605 0.02400
C 	C 	0.15415 0.65891 0.20606 -0.06900
C 	C 	0.79497 0.11851 0.37708 0.02400
C 	C 	0.79466 0.15433 0.34078 -0.06700
C 	C 	0.79497 0.88149 0.62292 0.02600
C 	C 	0.79466 0.84567 0.65922 -0.06400
C 	C 	0.20503 0.88149 0.37708 0.02400
C 	C 	0.20534 0.84567 0.34078 -0.06600
C 	C 	0.20503 0.11851 0.62292 0.02300
C 	C 	0.20534 0.15433 0.65922 -0.06800
C 	C 	0.37725 0.79291 0.11806 0.02400
C 	C 	0.34130 0.79320 0.15424 -0.06800
C 	C 	0.54146 0.60458 0.01184 0.03900
C 	C 	0.54217 0.55363 0.01239 -0.07100
C 	C 	0.62275 0.79291 0.88194 0.02500
C 	C 	0.65870 0.79320 0.84576 -0.06400
C 	C 	0.45854 0.60458 0.98816 0.06200
C 	C 	0.45783 0.55363 0.98761 -0.04700
C 	C 	0.37725 0.20709 0.88194 0.02400
C 	C 	0.34130 0.20680 0.84576 -0.06600
C 	C 	0.54146 0.39542 0.98816 0.06200
C 	C 	0.54217 0.44637 0.98761 -0.04700
C 	C 	0.62275 0.20709 0.11806 0.02400
C 	C 	0.65870 0.20680 0.15424 -0.06800
C 	C 	0.45854 0.39542 0.01184 0.03900
C 	C 	0.45783 0.44637 0.01239 -0.07100
C 	C 	0.87719 0.61815 0.70605 0.02600
C 	C 	0.84109 0.65415 0.70606 -0.06600
C 	C 	0.12281 0.38185 0.70605 0.02500
C 	C 	0.15891 0.34585 0.70606 -0.06800
C 	C 	0.87719 0.38185 0.29395 0.02500
C 	C 	0.84109 0.34585 0.29394 -0.06600
C 	C 	0.12281 0.61815 0.29395 0.02500
C 	C 	0.15891 0.65415 0.29394 -0.06800
C 	C 	0.61851 0.29497 0.12292 0.02400
C 	C 	0.65433 0.29466 0.15922 -0.06800
C 	C 	0.38149 0.29497 0.87708 0.02400
C 	C 	0.34567 0.29466 0.84078 -0.06500
C 	C 	0.38149 0.70503 0.12292 0.02400
C 	C 	0.34567 0.70534 0.15922 -0.06800
C 	C 	0.61851 0.70503 0.87708 0.02500
C 	C 	0.65433 0.70534 0.84078 -0.06400
C 	C 	0.29291 0.87725 0.38194 0.02400
C 	C 	0.29320 0.84130 0.34576 -0.06600
C 	C 	0.10458 0.04146 0.48816 0.03300
C 	C 	0.05363 0.04217 0.48761 -0.06000
C 	C 	0.29291 0.12275 0.61806 0.02400
C 	C 	0.29320 0.15870 0.65424 -0.06800
C 	C 	0.10458 0.95854 0.51184 0.05500
C 	C 	0.05363 0.95783 0.51239 -0.03900
C 	C 	0.70709 0.87725 0.61806 0.02500
C 	C 	0.70680 0.84130 0.65424 -0.06500
C 	C 	0.89542 0.04146 0.51184 0.04700
C 	C 	0.94637 0.04217 0.51239 -0.07800
C 	C 	0.70709 0.12275 0.38194 0.02400
C 	C 	0.70680 0.15870 0.34576 -0.06800
C 	C 	0.89542 0.95854 0.48816 0.06800
C 	C 	0.94637 0.95783 0.48761 -0.05800
C 	C 	0.88160 0.62278 0.20605 0.02300
C 	C 	0.84560 0.65892 0.20606 -0.06500
C 	C 	0.98870 0.45839 0.39542 0.06200
C 	C 	0.98806 0.45770 0.44634 -0.04700
C 	C 	0.11840 0.37722 0.20605 0.02200
C 	C 	0.15440 0.34108 0.20606 -0.06800
C 	C 	0.01130 0.54161 0.39541 0.03900
C 	C 	0.01194 0.54230 0.44634 -0.07100
C 	C 	0.11840 0.62278 0.79395 0.02400
C 	C 	0.15440 0.65892 0.79394 -0.06600
C 	C 	0.01130 0.45839 0.60458 0.03900
C 	C 	0.01194 0.45770 0.55366 -0.07100
C 	C 	0.88160 0.37722 0.79395 0.02400
C 	C 	0.84560 0.34108 0.79394 -0.06400
C 	C 	0.98870 0.54161 0.60459 0.06200
C 	C 	0.98806 0.54230 0.55366 -0.04700
C 	C 	0.20709 0.88199 0.62267 0.02400
C 	C 	0.20680 0.84582 0.65861 -0.06500
C 	C 	0.39542 0.98816 0.45854 0.06200
C 	C 	0.44637 0.98760 0.45783 -0.04700
C 	C 	0.20709 0.11801 0.37733 0.02300
C 	C 	0.20680 0.15418 0.34139 -0.06900
C 	C 	0.39542 0.01184 0.54146 0.03900
C 	C 	0.44637 0.01240 0.54217 -0.07100
C 	C 	0.79291 0.11801 0.62267 0.02500
C 	C 	0.79320 0.15418 0.65861 -0.06700
C 	C 	0.60458 0.01184 0.45854 0.03900
C 	C 	0.55363 0.01240 0.45783 -0.07100
C 	C 	0.79291 0.88199 0.37733 0.02500
C 	C 	0.79320 0.84582 0.34139 -0.06500
C 	C 	0.60458 0.98816 0.54146 0.06200
C 	C 	0.55363 0.98760 0.54217 -0.04700
C 	C 	0.62282 0.20501 0.88153 0.02400
C 	C 	0.65912 0.20532 0.84571 -0.06500
C 	C 	0.37718 0.20501 0.11847 0.02300
C 	C 	0.34088 0.20532 0.15429 -0.06900
C 	C 	0.62282 0.79499 0.11847 0.02500
C 	C 	0.65912 0.79468 0.15429 -0.06700
C 	C 	0.37718 0.79499 0.88153 0.02500
C 	C 	0.34088 0.79468 0.84571 -0.06500
C 	C 	0.12278 0.38160 0.29395 0.02300
C 	C 	0.15892 0.34560 0.29394 -0.06800
C 	C 	0.95839 0.48870 0.10458 0.05400
C 	C 	0.95770 0.48806 0.05366 -0.03900
C 	C 	0.87722 0.61840 0.29395 0.02400
C 	C 	0.84108 0.65440 0.29394 -0.06400
C 	C 	0.04161 0.51130 0.10459 0.03300
C 	C 	0.04230 0.51194 0.05366 -0.06000
C 	C 	0.12278 0.61840 0.70605 0.02400
C 	C 	0.15892 0.65440 0.70606 -0.06700
C 	C 	0.95839 0.51130 0.89541 0.06800
C 	C 	0.95770 0.51194 0.94634 -0.05800
C 	C 	0.87722 0.38160 0.70605 0.02400
C 	C 	0.84108 0.34560 0.70606 -0.06400
C 	C 	0.04161 0.48870 0.89542 0.04600
C 	C 	0.04230 0.48806 0.94634 -0.07900
C 	C 	0.38199 0.70709 0.87733 0.02500
C 	C 	0.34582 0.70680 0.84139 -0.06500
C 	C 	0.48816 0.89542 0.04146 0.04700
C 	C 	0.48760 0.94637 0.04217 -0.07900
C 	C 	0.61801 0.70709 0.12267 0.02400
C 	C 	0.65418 0.70680 0.15861 -0.06700
C 	C 	0.51184 0.89542 0.95854 0.06800
C 	C 	0.51240 0.94637 0.95783 -0.05800
C 	C 	0.61801 0.29291 0.87733 0.02500
C 	C 	0.65418 0.29320 0.84139 -0.06500
C 	C 	0.51184 0.10458 0.04146 0.03300
C 	C 	0.51240 0.05363 0.04217 -0.06000
C 	C 	0.38199 0.29291 0.12267 0.02400
C 	C 	0.34582 0.29320 0.15861 -0.06800
C 	C 	0.48816 0.10458 0.95854 0.05400
C 	C 	0.48760 0.05363 0.95783 -0.03900
C 	C 	0.70501 0.12282 0.61847 0.02400
C 	C 	0.70532 0.15912 0.65429 -0.06800
C 	C 	0.70501 0.87718 0.38153 0.02500
C 	C 	0.70532 0.84088 0.34571 -0.06500
C 	C 	0.29499 0.12282 0.38153 0.02400
C 	C 	0.29468 0.15912 0.34571 -0.06800
C 	C 	0.29499 0.87718 0.61847 0.02500
C 	C 	0.29468 0.84088 0.65429 -0.06500
C 	C 	-0.00000 0.50000 0.52725 0.00600
C 	C 	0.00000 0.50000 0.47275 0.00600
C 	C 	0.52724 0.00000 0.50000 0.00600
C 	C 	0.47276 0.00000 0.50000 0.00600
C 	C 	0.50000 0.52724 -0.00000 0.00600
C 	C 	0.50000 0.47276 -0.00000 0.00600
C 	C 	-0.00000 0.50000 0.97275 0.04000
C 	C 	-0.00000 0.50000 0.02725 -0.02700
C 	C 	0.50000 0.02724 -0.00000 -0.02700
C 	C 	0.50000 0.97276 -0.00000 0.04000
C 	C 	0.02724 0.00000 0.50000 -0.02700
C 	C 	0.97276 0.00000 0.50000 0.04000
C 	C 	0.06377 0.43623 0.75000 0.36500
C 	C 	0.10201 0.39799 0.75000 -0.10800
C 	C 	0.17503 0.32497 0.75000 0.02400
C 	C 	0.21345 0.28655 0.75000 0.01800
C 	C 	0.93623 0.56377 0.75000 0.36400
C 	C 	0.89799 0.60201 0.75000 -0.10300
C 	C 	0.82497 0.67503 0.75000 0.02500
C 	C 	0.78655 0.71345 0.75000 0.02000
C 	C 	0.93623 0.43623 0.25000 0.36400
C 	C 	0.89799 0.39799 0.25000 -0.10400
C 	C 	0.82497 0.32497 0.25000 0.02400
C 	C 	0.78655 0.28655 0.25000 0.01800
C 	C 	0.06377 0.56377 0.25000 0.36500
C 	C 	0.10201 0.60201 0.25000 -0.10900
C 	C 	0.17503 0.67503 0.25000 0.02300
C 	C 	0.21345 0.71345 0.25000 0.01700
C 	C 	0.75140 0.06406 0.43646 0.36200
C 	C 	0.75119 0.10226 0.39811 -0.10600
C 	C 	0.75058 0.17498 0.32468 0.02300
C 	C 	0.75031 0.21351 0.28630 0.01800
C 	C 	0.75140 0.93594 0.56354 0.36100
C 	C 	0.75119 0.89774 0.60189 -0.10100
C 	C 	0.75058 0.82502 0.67532 0.02500
C 	C 	0.75031 0.78649 0.71370 0.02000
C 	C 	0.24860 0.93594 0.43646 0.36100
C 	C 	0.24881 0.89774 0.39811 -0.10200
C 	C 	0.24942 0.82502 0.32468 0.02300
C 	C 	0.24969 0.78649 0.28630 0.01800
C 	C 	0.24860 0.06406 0.56354 0.36200
C 	C 	0.24881 0.10226 0.60189 -0.10700
C 	C 	0.24942 0.17498 0.67532 0.02300
C 	C 	0.24969 0.21351 0.71370 0.01800
C 	C 	0.43594 0.74860 0.06354 0.36300
C 	C 	0.39774 0.74881 0.10189 -0.10700
C 	C 	0.32502 0.74942 0.17532 0.02300
C 	C 	0.28649 0.74969 0.21370 0.01800
C 	C 	0.56406 0.74860 0.93646 0.36100
C 	C 	0.60226 0.74881 0.89811 -0.10000
C 	C 	0.67498 0.74942 0.82468 0.02400
C 	C 	0.71351 0.74969 0.78630 0.02000
C 	C 	0.43594 0.25140 0.93646 0.36000
C 	C 	0.39774 0.25119 0.89811 -0.10100
C 	C 	0.32502 0.25058 0.82468 0.02300
C 	C 	0.28649 0.25031 0.78630 0.01800
C 	C 	0.56406 0.25140 0.06354 0.36300
C 	C 	0.60226 0.25119 0.10189 -0.10700
C 	C 	0.67498 0.25058 0.17532 0.02300
C 	C 	0.71351 0.25031 0.21370 0.01700
C 	C 	0.93619 0.56381 0.25000 0.35900
C 	C 	0.89790 0.60210 0.25000 -0.09900
C 	C 	0.82480 0.67520 0.25000 0.02300
C 	C 	0.78633 0.71367 0.25000 0.01900
C 	C 	0.06381 0.43619 0.25000 0.36100
C 	C 	0.10210 0.39790 0.25000 -0.10600
C 	C 	0.17520 0.32480 0.25000 0.02200
C 	C 	0.21367 0.28633 0.25000 0.01700
C 	C 	0.06381 0.56381 0.75000 0.36100
C 	C 	0.10210 0.60210 0.75000 -0.10500
C 	C 	0.17520 0.67520 0.75000 0.02400
C 	C 	0.21367 0.71367 0.75000 0.01900
C 	C 	0.93619 0.43619 0.75000 0.35900
C 	C 	0.89790 0.39790 0.75000 -0.09900
C 	C 	0.82480 0.32480 0.75000 0.02400
C 	C 	0.78633 0.28633 0.75000 0.02000
C 	C 	0.25141 0.93649 0.56403 0.36100
C 	C 	0.25119 0.89816 0.60221 -0.10100
C 	C 	0.25059 0.82477 0.67490 0.02400
C 	C 	0.25032 0.78642 0.71340 0.01900
C 	C 	0.25141 0.06351 0.43597 0.36300
C 	C 	0.25119 0.10184 0.39779 -0.10800
C 	C 	0.25059 0.17523 0.32510 0.02300
C 	C 	0.25032 0.21358 0.28660 0.01700
C 	C 	0.74859 0.06351 0.56403 0.36300
C 	C 	0.74881 0.10184 0.60221 -0.10700
C 	C 	0.74941 0.17523 0.67490 0.02400
C 	C 	0.74968 0.21358 0.71340 0.01900
C 	C 	0.74859 0.93649 0.43597 0.36100
C 	C 	0.74881 0.89816 0.39779 -0.10100
C 	C 	0.74941 0.82477 0.32510 0.02400
C 	C 	0.74968 0.78642 0.28660 0.02000
C 	C 	0.56351 0.24859 0.93597 0.36200
C 	C 	0.60184 0.24881 0.89779 -0.10200
C 	C 	0.67523 0.24941 0.82510 0.02400
C 	C 	0.71358 0.24968 0.78660 0.01900
C 	C 	0.43649 0.24859 0.06403 0.36300
C 	C 	0.39816 0.24881 0.10221 -0.10700
C 	C 	0.32477 0.24941 0.17490 0.02300
C 	C 	0.28642 0.24968 0.21340 0.01700
C 	C 	0.56351 0.75141 0.06403 0.36300
C 	C 	0.60184 0.75119 0.10221 -0.10600
C 	C 	0.67523 0.75059 0.17490 0.02400
C 	C 	0.71358 0.75032 0.21340 0.01900
C 	C 	0.43649 0.75141 0.93597 0.36200
C 	C 	0.39816 0.75119 0.89779 -0.10100
C 	C 	0.32477 0.75059 0.82510 0.02400
C 	C 	0.28642 0.75032 0.78660 0.02000
C 	C 	0.25001 0.28631 0.78590 -0.06300
C 	C 	0.74999 0.71369 0.78590 -0.06200
C 	C 	0.74999 0.28631 0.21410 -0.06300
C 	C 	0.25001 0.71369 0.21410 -0.06300
C 	C 	0.78631 0.24999 0.28590 -0.06300
C 	C 	0.78631 0.75001 0.71410 -0.06200
C 	C 	0.21369 0.75001 0.28590 -0.06300
C 	C 	0.21369 0.24999 0.71410 -0.06300
C 	C 	0.28594 0.78594 0.25000 -0.06300
C 	C 	0.71406 0.78594 0.75000 -0.06200
C 	C 	0.28594 0.21406 0.75000 -0.06300
C 	C 	0.71406 0.21406 0.25000 -0.06300
C 	C 	0.75000 0.71422 0.21381 -0.06300
C 	C 	0.25000 0.28578 0.21381 -0.06300
C 	C 	0.25000 0.71422 0.78619 -0.06300
C 	C 	0.75000 0.28578 0.78619 -0.06300
C 	C 	0.21422 0.75000 0.71381 -0.06300
C 	C 	0.21422 0.25000 0.28619 -0.06300
C 	C 	0.78578 0.25000 0.71381 -0.06300
C 	C 	0.78578 0.75000 0.28619 -0.06300
C 	C 	0.71382 0.21382 0.75000 -0.06300
C 	C 	0.28618 0.21382 0.25000 -0.06300
C 	C 	0.71382 0.78618 0.25000 -0.06300
C 	C 	0.28618 0.78618 0.75000 -0.06300
N 	N 	-0.00000 0.50000 0.62908 -0.20200
N 	N 	-0.00000 0.50000 0.37092 -0.20200
N 	N 	0.62907 0.00000 0.50000 -0.20200
N 	N 	0.37093 0.00000 0.50000 -0.20200
N 	N 	0.50000 0.62907 -0.00000 -0.20200
N 	N 	0.50000 0.37093 -0.00000 -0.20200
N 	N 	-0.00000 0.50000 0.87092 -0.20400
N 	N 	0.00000 0.50000 0.12908 -0.20000
N 	N 	0.50000 0.12907 -0.00000 -0.20000
N 	N 	0.50000 0.87093 -0.00000 -0.20300
N 	N 	0.12907 0.00000 0.50000 -0.20000
N 	N 	0.87093 0.00000 0.50000 -0.20300
O 	O 	0.04804 0.45306 0.70989 -0.41200
O 	O 	0.95196 0.54694 0.70989 -0.39800
O 	O 	0.95196 0.45306 0.29011 -0.39800
O 	O 	0.04804 0.54694 0.29011 -0.41200
O 	O 	0.71125 0.04783 0.45287 -0.41100
O 	O 	0.71125 0.95217 0.54713 -0.39700
O 	O 	0.28875 0.95217 0.45287 -0.39700
O 	O 	0.28875 0.04783 0.54713 -0.41100
O 	O 	0.45231 0.70841 0.04740 -0.41100
O 	O 	0.54769 0.70841 0.95260 -0.39200
O 	O 	0.45231 0.29159 0.95260 -0.39200
O 	O 	0.54769 0.29159 0.04740 -0.41100
O 	O 	0.95306 0.54804 0.79011 -0.39700
O 	O 	0.04694 0.45196 0.79011 -0.41200
O 	O 	0.95306 0.45196 0.20989 -0.39800
O 	O 	0.04694 0.54804 0.20989 -0.41300
O 	O 	0.54783 0.21125 0.04713 -0.41300
O 	O 	0.45217 0.21125 0.95287 -0.39700
O 	O 	0.45217 0.78875 0.04713 -0.41200
O 	O 	0.54783 0.78875 0.95287 -0.39600
O 	O 	0.20841 0.95231 0.45260 -0.39400
O 	O 	0.20841 0.04769 0.54740 -0.41000
O 	O 	0.79159 0.95231 0.54740 -0.39300
O 	O 	0.79159 0.04769 0.45260 -0.40900
O 	O 	0.95280 0.54785 0.29020 -0.39200
O 	O 	0.04720 0.45215 0.29020 -0.41100
O 	O 	0.04720 0.54785 0.70980 -0.41100
O 	O 	0.95280 0.45215 0.70980 -0.39200
O 	O 	0.29159 0.95263 0.54768 -0.39300
O 	O 	0.29159 0.04737 0.45232 -0.41100
O 	O 	0.70841 0.04737 0.54768 -0.41100
O 	O 	0.70841 0.95263 0.45232 -0.39300
O 	O 	0.54711 0.28874 0.95220 -0.39700
O 	O 	0.45289 0.28874 0.04780 -0.41200
O 	O 	0.54711 0.71126 0.04780 -0.41200
O 	O 	0.45289 0.71126 0.95220 -0.39700
O 	O 	0.04785 0.45280 0.20980 -0.41000
O 	O 	0.95215 0.54720 0.20980 -0.39400
O 	O 	0.04785 0.54720 0.79020 -0.40900
O 	O 	0.95215 0.45280 0.79020 -0.39300
O 	O 	0.45263 0.79159 0.95232 -0.39300
O 	O 	0.54737 0.79159 0.04768 -0.40900
O 	O 	0.54737 0.20841 0.95232 -0.39500
O 	O 	0.45263 0.20841 0.04768 -0.41100
O 	O 	0.78874 0.04711 0.54780 -0.41200
O 	O 	0.78874 0.95289 0.45220 -0.39600
O 	O 	0.21126 0.04711 0.45220 -0.41300
O 	O 	0.21126 0.95289 0.54780 -0.39700
