data_crystal

_cell_length_a 27.65230
_cell_length_b 27.65230
_cell_length_c 27.65230
_cell_angle_alpha 90.00000
_cell_angle_beta  90.00000
_cell_angle_gamma 90.00000

_symmetry_space_group_name_	'P 1'
_symmetry_space_group_name_H-M	'P 1'

loop_
_symmetry_equiv_pos_as_xyz
  x,y,z

loop_
_atom_site_label
_atom_site_type_symbol
_atom_site_fract_x
_atom_site_fract_y
_atom_site_fract_z
_atom_site_charge
Co	Co	0.99998 0.49997 0.70728 1.19100
Co	Co	0.00002 0.50003 0.29271 1.19100
Co	Co	0.70729 0.00000 0.49997 1.17900
Co	Co	0.29271 0.00000 0.50003 1.17900
Co	Co	0.50000 0.70729 0.99998 1.19100
Co	Co	0.50000 0.29271 0.00002 1.19100
Co	Co	0.99997 0.49998 0.79271 1.19100
Co	Co	0.00003 0.50002 0.20729 1.19100
Co	Co	0.50000 0.20729 0.00003 1.19100
Co	Co	0.50000 0.79271 0.99997 1.19100
Co	Co	0.20729 0.00000 0.50002 1.18000
Co	Co	0.79271 0.00000 0.49998 1.18000
H 	H 	0.10603 0.39196 0.82796 0.04000
H 	H 	0.16800 0.32901 0.82783 0.04500
H 	H 	0.89387 0.60800 0.82792 0.04000
H 	H 	0.83188 0.67093 0.82775 0.04700
H 	H 	0.89395 0.39200 0.17206 0.04000
H 	H 	0.83197 0.32905 0.17221 0.04600
H 	H 	0.00823 0.57602 0.37274 0.02900
H 	H 	0.00947 0.57746 0.46114 0.04600
H 	H 	0.10613 0.60802 0.17206 0.04000
H 	H 	0.16811 0.67096 0.17220 0.04700
H 	H 	0.99180 0.42403 0.37271 0.02800
H 	H 	0.99054 0.42256 0.46111 0.04600
H 	H 	0.82795 0.10611 0.39200 0.03800
H 	H 	0.82781 0.16810 0.32906 0.04500
H 	H 	0.82793 0.89388 0.60797 0.04300
H 	H 	0.82777 0.83188 0.67091 0.04800
H 	H 	0.17207 0.89397 0.39195 0.04300
H 	H 	0.17223 0.83198 0.32901 0.04800
H 	H 	0.17205 0.10603 0.60808 0.03800
H 	H 	0.17218 0.16800 0.67103 0.04500
H 	H 	0.39201 0.82795 0.10608 0.04200
H 	H 	0.32907 0.82781 0.16807 0.04900
H 	H 	0.60798 0.82793 0.89384 0.04200
H 	H 	0.67091 0.82777 0.83184 0.04900
H 	H 	0.39193 0.17205 0.89401 0.03800
H 	H 	0.32898 0.17218 0.83203 0.04400
H 	H 	0.60806 0.17207 0.10608 0.03800
H 	H 	0.67100 0.17222 0.16806 0.04400
H 	H 	0.89089 0.60457 0.67199 0.04000
H 	H 	0.82798 0.66655 0.67178 0.04600
H 	H 	0.10906 0.39533 0.67203 0.03900
H 	H 	0.17196 0.33333 0.67186 0.04600
H 	H 	0.89094 0.39541 0.32799 0.03900
H 	H 	0.82804 0.33342 0.32818 0.04600
H 	H 	0.07597 0.49136 0.12725 0.02800
H 	H 	0.07740 0.49007 0.03885 0.04600
H 	H 	0.10908 0.60467 0.32799 0.03900
H 	H 	0.17199 0.66666 0.32818 0.04600
H 	H 	0.92407 0.50867 0.12728 0.02800
H 	H 	0.92262 0.50994 0.03888 0.04600
H 	H 	0.60466 0.32800 0.10906 0.03900
H 	H 	0.66665 0.32820 0.17196 0.04600
H 	H 	0.39533 0.32798 0.89098 0.03900
H 	H 	0.33333 0.32816 0.82808 0.04600
H 	H 	0.39541 0.67202 0.10909 0.03900
H 	H 	0.33343 0.67183 0.17200 0.04600
H 	H 	0.49143 0.87274 0.92402 0.02900
H 	H 	0.49016 0.96113 0.92259 0.05800
H 	H 	0.60458 0.67200 0.89088 0.03900
H 	H 	0.66656 0.67179 0.82796 0.04600
H 	H 	0.50857 0.87272 0.07594 0.02900
H 	H 	0.50984 0.96110 0.07740 0.05800
H 	H 	0.32800 0.89095 0.39538 0.04200
H 	H 	0.32820 0.82805 0.33339 0.04700
H 	H 	0.32798 0.10903 0.60471 0.03800
H 	H 	0.32816 0.17193 0.66671 0.04500
H 	H 	0.67200 0.89088 0.60454 0.04200
H 	H 	0.67179 0.82797 0.66652 0.04700
H 	H 	0.87273 0.07596 0.50856 0.02900
H 	H 	0.96112 0.07741 0.50984 0.04400
H 	H 	0.67202 0.10910 0.39537 0.03800
H 	H 	0.67183 0.17201 0.33339 0.04500
H 	H 	0.87273 0.92404 0.49141 0.02700
H 	H 	0.96112 0.92259 0.49015 0.04400
H 	H 	0.89543 0.60910 0.17199 0.04000
H 	H 	0.83345 0.67201 0.17178 0.04700
H 	H 	0.10466 0.39094 0.17204 0.03900
H 	H 	0.16666 0.32804 0.17187 0.04500
H 	H 	0.10458 0.60906 0.82798 0.04000
H 	H 	0.16658 0.67196 0.82818 0.04700
H 	H 	0.00862 0.42402 0.62725 0.02800
H 	H 	0.00991 0.42260 0.53885 0.04600
H 	H 	0.89533 0.39092 0.82798 0.03900
H 	H 	0.83334 0.32801 0.82818 0.04500
H 	H 	0.99135 0.57593 0.62727 0.02900
H 	H 	0.99008 0.57739 0.53888 0.04600
H 	H 	0.17200 0.89532 0.60904 0.04300
H 	H 	0.17181 0.83333 0.67195 0.04800
H 	H 	0.37271 0.99174 0.42403 0.03200
H 	H 	0.46111 0.99049 0.42256 0.05000
H 	H 	0.17203 0.10468 0.39099 0.03700
H 	H 	0.17185 0.16668 0.32809 0.04500
H 	H 	0.37274 0.00826 0.57602 0.02400
H 	H 	0.46113 0.00951 0.57746 0.03800
H 	H 	0.82797 0.10459 0.60910 0.03700
H 	H 	0.82816 0.16657 0.67201 0.04500
H 	H 	0.62726 0.00840 0.42400 0.02400
H 	H 	0.53887 0.00966 0.42256 0.03800
H 	H 	0.82800 0.89542 0.39087 0.04300
H 	H 	0.82820 0.83344 0.32796 0.04800
H 	H 	0.62729 0.99161 0.57596 0.03200
H 	H 	0.53889 0.99035 0.57742 0.05000
H 	H 	0.60903 0.17201 0.89537 0.03700
H 	H 	0.67194 0.17181 0.83338 0.04400
H 	H 	0.42401 0.37272 0.99176 0.02800
H 	H 	0.42255 0.46112 0.99050 0.04600
H 	H 	0.39098 0.17203 0.10472 0.03700
H 	H 	0.32808 0.17185 0.16672 0.04400
H 	H 	0.57599 0.37273 0.00827 0.02800
H 	H 	0.57745 0.46112 0.00951 0.04600
H 	H 	0.60912 0.82800 0.10454 0.04200
H 	H 	0.67203 0.82820 0.16652 0.04900
H 	H 	0.42402 0.62728 0.00838 0.02900
H 	H 	0.42257 0.53888 0.00965 0.04600
H 	H 	0.39089 0.82798 0.89538 0.04100
H 	H 	0.32798 0.82816 0.83339 0.04900
H 	H 	0.57598 0.62727 0.99159 0.02800
H 	H 	0.57743 0.53888 0.99035 0.04600
H 	H 	0.10805 0.39397 0.32797 0.04000
H 	H 	0.17100 0.33200 0.32784 0.04600
H 	H 	0.89199 0.60612 0.32792 0.04000
H 	H 	0.82906 0.66812 0.32775 0.04600
H 	H 	0.10801 0.60604 0.67205 0.04000
H 	H 	0.17095 0.66802 0.67220 0.04600
H 	H 	0.92398 0.49176 0.87273 0.02800
H 	H 	0.92254 0.49052 0.96114 0.04600
H 	H 	0.89197 0.39387 0.67205 0.04000
H 	H 	0.82903 0.33189 0.67220 0.04600
H 	H 	0.07597 0.50821 0.87271 0.02800
H 	H 	0.07744 0.50947 0.96111 0.04600
H 	H 	0.39389 0.67205 0.89200 0.04000
H 	H 	0.33190 0.67218 0.82906 0.04600
H 	H 	0.60612 0.67207 0.10797 0.04000
H 	H 	0.66811 0.67223 0.17091 0.04600
H 	H 	0.60604 0.32793 0.89196 0.04000
H 	H 	0.66802 0.32778 0.82902 0.04600
H 	H 	0.49208 0.12728 0.07605 0.02800
H 	H 	0.49085 0.03888 0.07750 0.03400
H 	H 	0.39396 0.32796 0.10807 0.04000
H 	H 	0.33199 0.32782 0.17102 0.04600
H 	H 	0.50793 0.12730 0.92400 0.02800
H 	H 	0.50916 0.03891 0.92252 0.03400
H 	H 	0.67205 0.10799 0.60607 0.03600
H 	H 	0.67219 0.17093 0.66805 0.04500
H 	H 	0.67207 0.89202 0.39384 0.04400
H 	H 	0.67223 0.82908 0.33185 0.04700
H 	H 	0.32796 0.10806 0.39401 0.03600
H 	H 	0.32782 0.17101 0.33204 0.04500
H 	H 	0.12729 0.92397 0.50794 0.02700
H 	H 	0.03889 0.92251 0.50916 0.04300
H 	H 	0.32793 0.89195 0.60608 0.04400
H 	H 	0.32778 0.82901 0.66807 0.04700
H 	H 	0.12729 0.07603 0.49209 0.02900
H 	H 	0.03889 0.07749 0.49085 0.04400
H 	H 	0.25063 0.31384 0.81323 0.04600
H 	H 	0.74926 0.68609 0.81311 0.04600
H 	H 	0.74935 0.31390 0.18682 0.04600
H 	H 	0.25072 0.68614 0.18683 0.04600
H 	H 	0.81319 0.25071 0.31388 0.04600
H 	H 	0.81314 0.74926 0.68606 0.04700
H 	H 	0.18684 0.74935 0.31387 0.04600
H 	H 	0.18679 0.25063 0.68618 0.04600
H 	H 	0.31391 0.81319 0.25069 0.04800
H 	H 	0.68607 0.81312 0.74923 0.04800
H 	H 	0.31384 0.18679 0.74940 0.04400
H 	H 	0.68614 0.18686 0.25069 0.04400
H 	H 	0.75074 0.68686 0.18606 0.04600
H 	H 	0.24937 0.31321 0.18618 0.04600
H 	H 	0.24928 0.68680 0.81388 0.04600
H 	H 	0.75064 0.31316 0.81387 0.04600
H 	H 	0.18611 0.75064 0.68682 0.04700
H 	H 	0.18616 0.24937 0.31324 0.04600
H 	H 	0.81386 0.24928 0.68684 0.04600
H 	H 	0.81391 0.75074 0.31311 0.04700
H 	H 	0.68679 0.18611 0.75067 0.04400
H 	H 	0.31322 0.18618 0.24942 0.04400
H 	H 	0.68686 0.81391 0.24924 0.04800
H 	H 	0.31315 0.81384 0.75068 0.04800
C 	C 	0.12005 0.37950 0.79358 0.01900
C 	C 	0.15600 0.34346 0.79350 -0.06300
C 	C 	0.87986 0.62044 0.79353 0.01900
C 	C 	0.84390 0.65647 0.79342 -0.06300
C 	C 	0.87993 0.37955 0.20644 0.01900
C 	C 	0.84398 0.34351 0.20654 -0.06300
C 	C 	0.00459 0.54214 0.39195 0.04300
C 	C 	0.00489 0.54286 0.44363 -0.06700
C 	C 	0.12013 0.62048 0.20644 0.01900
C 	C 	0.15609 0.65652 0.20654 -0.06300
C 	C 	0.99544 0.45790 0.39193 0.04400
C 	C 	0.99513 0.45716 0.44362 -0.06600
C 	C 	0.79357 0.12013 0.37954 0.01800
C 	C 	0.79348 0.15608 0.34351 -0.06400
C 	C 	0.79355 0.87986 0.62042 0.01900
C 	C 	0.79344 0.84390 0.65644 -0.06100
C 	C 	0.20645 0.87995 0.37951 0.01900
C 	C 	0.20656 0.84399 0.34347 -0.06100
C 	C 	0.20643 0.12004 0.62054 0.01800
C 	C 	0.20652 0.15599 0.65658 -0.06400
C 	C 	0.37956 0.79357 0.12010 0.02000
C 	C 	0.34353 0.79348 0.15605 -0.06200
C 	C 	0.62043 0.79355 0.87983 0.02000
C 	C 	0.65646 0.79344 0.84386 -0.06200
C 	C 	0.37948 0.20643 0.87999 0.01800
C 	C 	0.34344 0.20652 0.84404 -0.06400
C 	C 	0.62051 0.20645 0.12009 0.01800
C 	C 	0.65654 0.20655 0.15605 -0.06400
C 	C 	0.87832 0.61865 0.70630 0.01900
C 	C 	0.84232 0.65462 0.70619 -0.06300
C 	C 	0.12161 0.38126 0.70635 0.01900
C 	C 	0.15761 0.34528 0.70626 -0.06300
C 	C 	0.87838 0.38133 0.29367 0.01900
C 	C 	0.84238 0.34536 0.29377 -0.06300
C 	C 	0.04211 0.49519 0.10805 0.04300
C 	C 	0.04283 0.49487 0.05636 -0.06700
C 	C 	0.12165 0.61873 0.29367 0.01900
C 	C 	0.15766 0.65471 0.29377 -0.06300
C 	C 	0.95793 0.50483 0.10806 0.04400
C 	C 	0.95719 0.50514 0.05637 -0.06600
C 	C 	0.61874 0.29368 0.12162 0.01900
C 	C 	0.65471 0.29379 0.15763 -0.06300
C 	C 	0.38125 0.29366 0.87843 0.01900
C 	C 	0.34527 0.29375 0.84243 -0.06300
C 	C 	0.38133 0.70634 0.12165 0.01900
C 	C 	0.34536 0.70624 0.15766 -0.06300
C 	C 	0.49523 0.89195 0.95788 0.05000
C 	C 	0.49491 0.94364 0.95717 -0.07600
C 	C 	0.61866 0.70632 0.87830 0.01900
C 	C 	0.65462 0.70620 0.84230 -0.06300
C 	C 	0.50478 0.89194 0.04208 0.05000
C 	C 	0.50509 0.94362 0.04281 -0.07500
C 	C 	0.29368 0.87839 0.38130 0.01900
C 	C 	0.29379 0.84239 0.34532 -0.06100
C 	C 	0.29366 0.12159 0.61879 0.01800
C 	C 	0.29375 0.15759 0.65476 -0.06400
C 	C 	0.70632 0.87832 0.61862 0.01900
C 	C 	0.70620 0.84231 0.65459 -0.06100
C 	C 	0.89194 0.04210 0.50476 0.03600
C 	C 	0.94363 0.04282 0.50508 -0.06400
C 	C 	0.70634 0.12167 0.38130 0.01800
C 	C 	0.70624 0.15767 0.34533 -0.06400
C 	C 	0.89194 0.95790 0.49521 0.06200
C 	C 	0.94363 0.95718 0.49491 -0.03800
C 	C 	0.88135 0.62167 0.20631 0.01900
C 	C 	0.84538 0.65768 0.20619 -0.06300
C 	C 	0.11874 0.37838 0.20636 0.01900
C 	C 	0.15472 0.34239 0.20627 -0.06300
C 	C 	0.11867 0.62162 0.79367 0.01900
C 	C 	0.15464 0.65762 0.79377 -0.06300
C 	C 	0.00480 0.45788 0.60804 0.04200
C 	C 	0.00512 0.45717 0.55636 -0.06700
C 	C 	0.88126 0.37835 0.79367 0.01900
C 	C 	0.84529 0.34234 0.79377 -0.06300
C 	C 	0.99518 0.54207 0.60806 0.04300
C 	C 	0.99487 0.54281 0.55637 -0.06600
C 	C 	0.20632 0.88125 0.62162 0.01900
C 	C 	0.20621 0.84528 0.65762 -0.06100
C 	C 	0.39193 0.99540 0.45790 0.06400
C 	C 	0.44362 0.99510 0.45717 -0.03500
C 	C 	0.20635 0.11876 0.37843 0.01800
C 	C 	0.20625 0.15474 0.34244 -0.06500
C 	C 	0.39195 0.00460 0.54214 0.03400
C 	C 	0.44364 0.00491 0.54286 -0.06600
C 	C 	0.79366 0.11866 0.62166 0.01800
C 	C 	0.79375 0.15464 0.65766 -0.06500
C 	C 	0.60805 0.00468 0.45787 0.03400
C 	C 	0.55637 0.00499 0.45716 -0.06600
C 	C 	0.79368 0.88134 0.37830 0.01900
C 	C 	0.79379 0.84537 0.34229 -0.06100
C 	C 	0.60807 0.99533 0.54209 0.06400
C 	C 	0.55638 0.99502 0.54282 -0.03500
C 	C 	0.62160 0.20632 0.88129 0.01800
C 	C 	0.65760 0.20621 0.84531 -0.06400
C 	C 	0.45788 0.39194 0.99542 0.04300
C 	C 	0.45715 0.44363 0.99511 -0.06700
C 	C 	0.37841 0.20635 0.11879 0.01800
C 	C 	0.34241 0.20625 0.15477 -0.06400
C 	C 	0.54212 0.39194 0.00461 0.04300
C 	C 	0.54284 0.44363 0.00491 -0.06700
C 	C 	0.62168 0.79368 0.11862 0.02000
C 	C 	0.65769 0.79379 0.15459 -0.06200
C 	C 	0.45789 0.60806 0.00466 0.04400
C 	C 	0.45716 0.55637 0.00498 -0.06700
C 	C 	0.37833 0.79366 0.88130 0.02000
C 	C 	0.34232 0.79375 0.84533 -0.06200
C 	C 	0.54211 0.60806 0.99531 0.04300
C 	C 	0.54283 0.55637 0.99501 -0.06700
C 	C 	0.12050 0.37995 0.29359 0.01900
C 	C 	0.15654 0.34400 0.29350 -0.06300
C 	C 	0.87955 0.62014 0.29354 0.01900
C 	C 	0.84352 0.65610 0.29342 -0.06300
C 	C 	0.12045 0.62006 0.70644 0.01900
C 	C 	0.15649 0.65601 0.70654 -0.06300
C 	C 	0.95786 0.49541 0.89194 0.04300
C 	C 	0.95714 0.49511 0.94363 -0.06700
C 	C 	0.87951 0.37987 0.70643 0.01900
C 	C 	0.84348 0.34391 0.70653 -0.06300
C 	C 	0.04210 0.50457 0.89193 0.04300
C 	C 	0.04284 0.50488 0.94362 -0.06700
C 	C 	0.37987 0.70643 0.87954 0.01900
C 	C 	0.34392 0.70652 0.84351 -0.06300
C 	C 	0.62014 0.70645 0.12042 0.01900
C 	C 	0.65610 0.70656 0.15644 -0.06300
C 	C 	0.62005 0.29355 0.87951 0.01900
C 	C 	0.65601 0.29345 0.84348 -0.06300
C 	C 	0.49559 0.10806 0.04216 0.03600
C 	C 	0.49529 0.05637 0.04288 -0.05800
C 	C 	0.37995 0.29358 0.12054 0.01900
C 	C 	0.34400 0.29349 0.15658 -0.06300
C 	C 	0.50442 0.10808 0.95788 0.03700
C 	C 	0.50471 0.05639 0.95715 -0.05800
C 	C 	0.70643 0.12044 0.62009 0.01800
C 	C 	0.70652 0.15648 0.65605 -0.06500
C 	C 	0.70645 0.87957 0.37983 0.01900
C 	C 	0.70656 0.84354 0.34387 -0.06100
C 	C 	0.29358 0.12052 0.37999 0.01800
C 	C 	0.29349 0.15656 0.34404 -0.06500
C 	C 	0.10807 0.95786 0.50443 0.06200
C 	C 	0.05638 0.95713 0.50472 -0.03800
C 	C 	0.29355 0.87949 0.62009 0.01900
C 	C 	0.29345 0.84346 0.65605 -0.06100
C 	C 	0.10807 0.04214 0.49560 0.03600
C 	C 	0.05638 0.04287 0.49530 -0.06400
C 	C 	0.00000 0.49999 0.52837 0.02400
C 	C 	0.00000 0.50001 0.47162 0.02400
C 	C 	0.52838 0.00000 0.50000 -0.00300
C 	C 	0.47162 0.00000 0.50001 -0.00300
C 	C 	0.50000 0.52838 -0.00000 0.02500
C 	C 	0.50000 0.47162 0.00001 0.02500
C 	C 	-0.00000 0.50000 0.97162 0.02500
C 	C 	0.00001 0.50000 0.02837 0.02300
C 	C 	0.50000 0.02838 0.00001 -0.01100
C 	C 	0.50000 0.97163 0.99999 0.06100
C 	C 	0.02838 0.00000 0.50001 -0.00300
C 	C 	0.97163 0.00000 0.50000 -0.00100
C 	C 	0.06368 0.43726 0.75006 0.34900
C 	C 	0.10223 0.39897 0.75001 -0.09400
C 	C 	0.17547 0.32565 0.74983 0.02100
C 	C 	0.21403 0.28694 0.74972 0.01800
C 	C 	0.93626 0.56268 0.75004 0.34900
C 	C 	0.89770 0.60096 0.74997 -0.09400
C 	C 	0.82445 0.67426 0.74974 0.02100
C 	C 	0.78588 0.71297 0.74961 0.01900
C 	C 	0.93631 0.43732 0.24994 0.34900
C 	C 	0.89776 0.39903 0.25001 -0.09400
C 	C 	0.82452 0.32572 0.25021 0.02100
C 	C 	0.78595 0.28701 0.25034 0.01800
C 	C 	0.06374 0.56273 0.24994 0.34900
C 	C 	0.10229 0.60102 0.25000 -0.09400
C 	C 	0.17553 0.67433 0.25021 0.02100
C 	C 	0.21410 0.71304 0.25034 0.01900
C 	C 	0.75006 0.06373 0.43729 0.34700
C 	C 	0.75000 0.10229 0.39901 -0.09600
C 	C 	0.74981 0.17554 0.32571 0.02100
C 	C 	0.74968 0.21410 0.28699 0.01700
C 	C 	0.75005 0.93626 0.56266 0.34700
C 	C 	0.74998 0.89770 0.60093 -0.09000
C 	C 	0.74976 0.82444 0.67423 0.02200
C 	C 	0.74962 0.78588 0.71294 0.01900
C 	C 	0.24995 0.93632 0.43729 0.34700
C 	C 	0.25002 0.89778 0.39899 -0.09000
C 	C 	0.25023 0.82453 0.32569 0.02200
C 	C 	0.25036 0.78596 0.28698 0.01900
C 	C 	0.24994 0.06368 0.56277 0.34700
C 	C 	0.25000 0.10221 0.60107 -0.09600
C 	C 	0.25019 0.17546 0.67438 0.02000
C 	C 	0.25030 0.21402 0.71309 0.01700
C 	C 	0.43731 0.75006 0.06371 0.34900
C 	C 	0.39904 0.75000 0.10226 -0.09300
C 	C 	0.32573 0.74980 0.17552 0.02200
C 	C 	0.28702 0.74968 0.21408 0.01900
C 	C 	0.56269 0.75005 0.93624 0.34900
C 	C 	0.60095 0.74999 0.89768 -0.09300
C 	C 	0.67425 0.74976 0.82442 0.02200
C 	C 	0.71296 0.74962 0.78585 0.01900
C 	C 	0.43726 0.24994 0.93635 0.34900
C 	C 	0.39896 0.25000 0.89781 -0.09400
C 	C 	0.32564 0.25019 0.82457 0.02100
C 	C 	0.28694 0.25030 0.78600 0.01800
C 	C 	0.56274 0.24995 0.06371 0.34900
C 	C 	0.60103 0.25002 0.10225 -0.09400
C 	C 	0.67434 0.25023 0.17550 0.02100
C 	C 	0.71304 0.25036 0.21407 0.01800
C 	C 	0.93732 0.56374 0.25005 0.34900
C 	C 	0.89904 0.60229 0.24998 -0.09300
C 	C 	0.82574 0.67555 0.24974 0.02200
C 	C 	0.78703 0.71411 0.24961 0.01900
C 	C 	0.06273 0.43631 0.25007 0.34900
C 	C 	0.10102 0.39777 0.25002 -0.09400
C 	C 	0.17435 0.32453 0.24984 0.02100
C 	C 	0.21306 0.28597 0.24973 0.01800
C 	C 	0.06268 0.56369 0.74994 0.34900
C 	C 	0.10097 0.60223 0.75000 -0.09400
C 	C 	0.17428 0.67548 0.75021 0.02100
C 	C 	0.21299 0.71404 0.75033 0.01900
C 	C 	0.93726 0.43626 0.74994 0.34800
C 	C 	0.89898 0.39771 0.75000 -0.09400
C 	C 	0.82567 0.32447 0.75021 0.02100
C 	C 	0.78696 0.28590 0.75033 0.01800
C 	C 	0.25005 0.93726 0.56371 0.34600
C 	C 	0.24999 0.89897 0.60225 -0.08900
C 	C 	0.24978 0.82565 0.67550 0.02100
C 	C 	0.24965 0.78695 0.71406 0.02000
C 	C 	0.25006 0.06274 0.43635 0.34800
C 	C 	0.25001 0.10104 0.39782 -0.09700
C 	C 	0.24982 0.17436 0.32458 0.02100
C 	C 	0.24971 0.21307 0.28601 0.01700
C 	C 	0.74994 0.06269 0.56371 0.34800
C 	C 	0.74999 0.10096 0.60226 -0.09700
C 	C 	0.75019 0.17427 0.67551 0.02100
C 	C 	0.75031 0.21299 0.71407 0.01700
C 	C 	0.74995 0.93731 0.43624 0.34600
C 	C 	0.75001 0.89904 0.39768 -0.08900
C 	C 	0.75024 0.82574 0.32442 0.02100
C 	C 	0.75037 0.78703 0.28586 0.02000
C 	C 	0.56368 0.25005 0.93729 0.34800
C 	C 	0.60222 0.24999 0.89899 -0.09400
C 	C 	0.67547 0.24978 0.82568 0.02100
C 	C 	0.71403 0.24965 0.78698 0.01800
C 	C 	0.43632 0.25006 0.06277 0.34800
C 	C 	0.39779 0.25001 0.10107 -0.09400
C 	C 	0.32455 0.24982 0.17439 0.02100
C 	C 	0.28598 0.24971 0.21309 0.01800
C 	C 	0.56374 0.74995 0.06266 0.34900
C 	C 	0.60230 0.75001 0.10093 -0.09300
C 	C 	0.67556 0.75024 0.17423 0.02200
C 	C 	0.71412 0.75037 0.21294 0.01900
C 	C 	0.43627 0.74994 0.93729 0.34900
C 	C 	0.39771 0.74999 0.89901 -0.09300
C 	C 	0.32446 0.75019 0.82570 0.02200
C 	C 	0.28590 0.75031 0.78699 0.01900
C 	C 	0.25054 0.28622 0.78552 -0.06200
C 	C 	0.74936 0.71370 0.78539 -0.06200
C 	C 	0.74944 0.28628 0.21454 -0.06200
C 	C 	0.25062 0.71376 0.21455 -0.06200
C 	C 	0.78548 0.25062 0.28626 -0.06200
C 	C 	0.78542 0.74936 0.71368 -0.06200
C 	C 	0.21456 0.74944 0.28625 -0.06200
C 	C 	0.21451 0.25054 0.71381 -0.06200
C 	C 	0.28629 0.78548 0.25059 -0.06200
C 	C 	0.71369 0.78541 0.74933 -0.06200
C 	C 	0.28622 0.21450 0.74949 -0.06300
C 	C 	0.71376 0.21457 0.25059 -0.06300
C 	C 	0.75064 0.71458 0.21368 -0.06200
C 	C 	0.24946 0.28550 0.21381 -0.06200
C 	C 	0.24938 0.71452 0.78626 -0.06200
C 	C 	0.75055 0.28544 0.78625 -0.06200
C 	C 	0.21372 0.75055 0.71454 -0.06200
C 	C 	0.21378 0.24947 0.28553 -0.06200
C 	C 	0.78623 0.24938 0.71455 -0.06200
C 	C 	0.78629 0.75064 0.28539 -0.06200
C 	C 	0.71451 0.21372 0.75058 -0.06200
C 	C 	0.28551 0.21379 0.24950 -0.06300
C 	C 	0.71458 0.78630 0.24934 -0.06200
C 	C 	0.28544 0.78622 0.75058 -0.06200
N 	N 	0.99998 0.49998 0.63394 -0.19800
N 	N 	0.00002 0.50002 0.36605 -0.19900
N 	N 	0.63395 0.00000 0.49998 -0.21500
N 	N 	0.36605 0.00000 0.50003 -0.21500
N 	N 	0.50000 0.63395 0.99999 -0.19900
N 	N 	0.50000 0.36605 0.00002 -0.19900
N 	N 	0.99998 0.49999 0.86605 -0.19800
N 	N 	0.00002 0.50002 0.13394 -0.19900
N 	N 	0.50000 0.13395 0.00002 -0.19700
N 	N 	0.50000 0.86605 0.99998 -0.20000
N 	N 	0.13395 0.00000 0.50002 -0.21500
N 	N 	0.86605 0.00000 0.49999 -0.21500
O 	O 	0.04723 0.45367 0.70967 -0.46200
O 	O 	0.95272 0.54627 0.70966 -0.46100
O 	O 	0.95277 0.45372 0.29033 -0.46100
O 	O 	0.04727 0.54634 0.29033 -0.46200
O 	O 	0.70967 0.04727 0.45368 -0.46600
O 	O 	0.70966 0.95273 0.54626 -0.44800
O 	O 	0.29034 0.95277 0.45370 -0.44800
O 	O 	0.29034 0.04723 0.54636 -0.46600
O 	O 	0.45371 0.70967 0.04725 -0.46100
O 	O 	0.54629 0.70966 0.95271 -0.46100
O 	O 	0.45367 0.29033 0.95279 -0.46200
O 	O 	0.54633 0.29034 0.04725 -0.46100
O 	O 	0.95283 0.54641 0.79045 -0.46000
O 	O 	0.04710 0.45354 0.79046 -0.46100
O 	O 	0.95289 0.45359 0.20954 -0.46000
O 	O 	0.04717 0.54645 0.20954 -0.46000
O 	O 	0.54646 0.20955 0.04714 -0.46100
O 	O 	0.45354 0.20954 0.95292 -0.46100
O 	O 	0.45358 0.79047 0.04713 -0.45900
O 	O 	0.54641 0.79046 0.95282 -0.46000
O 	O 	0.20955 0.95289 0.45356 -0.44600
O 	O 	0.20954 0.04711 0.54649 -0.46600
O 	O 	0.79046 0.95284 0.54639 -0.44600
O 	O 	0.79047 0.04715 0.45356 -0.46600
O 	O 	0.95358 0.54716 0.29046 -0.46000
O 	O 	0.04646 0.45289 0.29047 -0.46100
O 	O 	0.04641 0.54711 0.70953 -0.46100
O 	O 	0.95355 0.45283 0.70953 -0.46000
O 	O 	0.29046 0.95354 0.54715 -0.44400
O 	O 	0.29047 0.04645 0.45292 -0.46800
O 	O 	0.70953 0.04642 0.54712 -0.46800
O 	O 	0.70954 0.95358 0.45282 -0.44400
O 	O 	0.54711 0.29046 0.95357 -0.46000
O 	O 	0.45288 0.29047 0.04648 -0.46000
O 	O 	0.54715 0.70954 0.04640 -0.46000
O 	O 	0.45285 0.70953 0.95356 -0.46000
O 	O 	0.04633 0.45276 0.20967 -0.46200
O 	O 	0.95373 0.54728 0.20966 -0.46100
O 	O 	0.04628 0.54723 0.79033 -0.46100
O 	O 	0.95366 0.45273 0.79033 -0.46100
O 	O 	0.45273 0.79033 0.95369 -0.46100
O 	O 	0.54727 0.79034 0.04626 -0.46000
O 	O 	0.54722 0.20966 0.95370 -0.46200
O 	O 	0.45277 0.20967 0.04636 -0.46200
O 	O 	0.79033 0.04629 0.54725 -0.46700
O 	O 	0.79034 0.95371 0.45271 -0.44700
O 	O 	0.20967 0.04633 0.45280 -0.46700
O 	O 	0.20966 0.95367 0.54725 -0.44700
