data_crystal

_cell_length_a 27.68210
_cell_length_b 27.68210
_cell_length_c 27.68210
_cell_angle_alpha 90.00000
_cell_angle_beta  90.00000
_cell_angle_gamma 90.00000

_symmetry_space_group_name_	'P 1'
_symmetry_space_group_name_H-M	'P 1'

loop_
_symmetry_equiv_pos_as_xyz
  x,y,z

loop_
_atom_site_label
_atom_site_type_symbol
_atom_site_fract_x
_atom_site_fract_y
_atom_site_fract_z
_atom_site_charge
Zn	Zn	-0.00000 0.49997 0.69390 1.26500
Zn	Zn	-0.00000 0.50003 0.30610 1.26500
Zn	Zn	0.69390 0.00000 0.50000 1.26500
Zn	Zn	0.30609 0.00000 0.50000 1.26500
Zn	Zn	0.50000 0.69391 0.99998 1.27400
Zn	Zn	0.50000 0.30609 0.00002 1.27200
Zn	Zn	0.00000 0.49998 0.80609 1.26400
Zn	Zn	-0.00000 0.50002 0.19391 1.26400
Zn	Zn	0.50000 0.19390 0.00003 1.27200
Zn	Zn	0.50000 0.80610 0.99997 1.27300
Zn	Zn	0.19391 0.00000 0.50000 1.26400
Zn	Zn	0.80610 0.00000 0.50000 1.26400
H 	H 	0.10567 0.39367 0.82712 0.03000
H 	H 	0.16785 0.33095 0.82754 0.04400
H 	H 	0.02389 0.57255 0.62278 0.01200
H 	H 	0.02567 0.57385 0.53404 0.04000
H 	H 	0.89432 0.60628 0.82711 0.03600
H 	H 	0.83215 0.66901 0.82752 0.04900
H 	H 	0.97612 0.42740 0.62276 0.01700
H 	H 	0.97433 0.42614 0.53402 0.05000
H 	H 	0.89432 0.39372 0.17289 0.03500
H 	H 	0.83215 0.33099 0.17248 0.04700
H 	H 	0.97612 0.57260 0.37724 0.01800
H 	H 	0.97433 0.57386 0.46598 0.05000
H 	H 	0.10567 0.60633 0.17288 0.03100
H 	H 	0.16785 0.66905 0.17246 0.04600
H 	H 	0.02389 0.42745 0.37722 0.01100
H 	H 	0.02567 0.42615 0.46596 0.04000
H 	H 	0.82854 0.10634 0.39343 0.03400
H 	H 	0.82827 0.16821 0.33044 0.04800
H 	H 	0.82854 0.89366 0.60657 0.04000
H 	H 	0.82827 0.83179 0.66956 0.05100
H 	H 	0.17149 0.89368 0.39341 0.03600
H 	H 	0.17175 0.83182 0.33042 0.04600
H 	H 	0.17149 0.10632 0.60659 0.03000
H 	H 	0.17175 0.16818 0.66958 0.04200
H 	H 	0.39365 0.82712 0.10579 0.03500
H 	H 	0.33093 0.82754 0.16797 0.04800
H 	H 	0.57258 0.62277 0.02386 0.01500
H 	H 	0.57386 0.53403 0.02566 0.04700
H 	H 	0.60635 0.82711 0.89416 0.03600
H 	H 	0.66908 0.82752 0.83199 0.05000
H 	H 	0.42743 0.62277 0.97610 0.01500
H 	H 	0.42615 0.53402 0.97433 0.04700
H 	H 	0.39365 0.17288 0.89421 0.03100
H 	H 	0.33093 0.17246 0.83203 0.04300
H 	H 	0.57258 0.37723 0.97614 0.01500
H 	H 	0.57386 0.46597 0.97434 0.04800
H 	H 	0.60635 0.17289 0.10584 0.03100
H 	H 	0.66908 0.17248 0.16801 0.04500
H 	H 	0.42743 0.37723 0.02390 0.01500
H 	H 	0.42615 0.46598 0.02567 0.04700
H 	H 	0.89363 0.60643 0.67140 0.03900
H 	H 	0.83067 0.66834 0.67168 0.04800
H 	H 	0.10638 0.39352 0.67142 0.03100
H 	H 	0.16935 0.33162 0.67170 0.04500
H 	H 	0.89363 0.39357 0.32860 0.03900
H 	H 	0.83067 0.33166 0.32832 0.04800
H 	H 	0.10638 0.60648 0.32858 0.03100
H 	H 	0.16935 0.66838 0.32830 0.04600
H 	H 	0.60659 0.32859 0.10644 0.03500
H 	H 	0.66850 0.32832 0.16940 0.04700
H 	H 	0.39341 0.32858 0.89360 0.03400
H 	H 	0.33150 0.32830 0.83063 0.04600
H 	H 	0.39341 0.67142 0.10640 0.03400
H 	H 	0.33150 0.67170 0.16937 0.04600
H 	H 	0.60659 0.67141 0.89356 0.03500
H 	H 	0.66850 0.67168 0.83060 0.04700
H 	H 	0.32719 0.89386 0.39405 0.03500
H 	H 	0.32759 0.83116 0.33183 0.04700
H 	H 	0.32719 0.10614 0.60595 0.03100
H 	H 	0.32759 0.16884 0.66817 0.04500
H 	H 	0.67284 0.89382 0.60591 0.03600
H 	H 	0.67243 0.83112 0.66812 0.04800
H 	H 	0.87725 0.07246 0.52423 0.01500
H 	H 	0.96598 0.07373 0.52604 0.05700
H 	H 	0.67284 0.10618 0.39409 0.03100
H 	H 	0.67243 0.16888 0.33188 0.04500
H 	H 	0.87725 0.92754 0.47577 0.01400
H 	H 	0.96598 0.92627 0.47396 0.05800
H 	H 	0.89340 0.60643 0.17141 0.03800
H 	H 	0.83149 0.66940 0.17168 0.04900
H 	H 	0.10659 0.39360 0.17142 0.03100
H 	H 	0.16850 0.33063 0.17170 0.04400
H 	H 	0.10659 0.60640 0.82858 0.03200
H 	H 	0.16850 0.66937 0.82830 0.04600
H 	H 	0.89340 0.39357 0.82859 0.03700
H 	H 	0.83149 0.33060 0.82832 0.04700
H 	H 	0.17281 0.89404 0.60614 0.03400
H 	H 	0.17241 0.83182 0.66883 0.04600
H 	H 	0.37722 0.97654 0.42729 0.01800
H 	H 	0.46596 0.97476 0.42600 0.05000
H 	H 	0.17281 0.10596 0.39386 0.02900
H 	H 	0.17241 0.16818 0.33117 0.04200
H 	H 	0.37722 0.02346 0.57271 0.01100
H 	H 	0.46596 0.02524 0.57400 0.04000
H 	H 	0.82716 0.10590 0.60619 0.03300
H 	H 	0.82756 0.16811 0.66889 0.04700
H 	H 	0.62275 0.02422 0.42754 0.01200
H 	H 	0.53402 0.02603 0.42627 0.04000
H 	H 	0.82716 0.89410 0.39381 0.03800
H 	H 	0.82756 0.83189 0.33111 0.05000
H 	H 	0.62275 0.97578 0.57246 0.01800
H 	H 	0.53402 0.97397 0.57373 0.05000
H 	H 	0.60637 0.17141 0.89357 0.03300
H 	H 	0.66933 0.17168 0.83166 0.04500
H 	H 	0.39362 0.17141 0.10648 0.03200
H 	H 	0.33065 0.17170 0.16838 0.04300
H 	H 	0.60637 0.82859 0.10643 0.03700
H 	H 	0.66933 0.82832 0.16834 0.05000
H 	H 	0.39362 0.82859 0.89352 0.03700
H 	H 	0.33065 0.82830 0.83162 0.04900
H 	H 	0.10635 0.39421 0.32712 0.03100
H 	H 	0.16907 0.33204 0.32754 0.04500
H 	H 	0.92742 0.47614 0.12277 0.00900
H 	H 	0.92614 0.47434 0.03403 0.05300
H 	H 	0.89365 0.60585 0.32711 0.03600
H 	H 	0.83093 0.66802 0.32752 0.04800
H 	H 	0.07257 0.52390 0.12276 0.01100
H 	H 	0.07385 0.52568 0.03402 0.05300
H 	H 	0.10635 0.60579 0.67288 0.03100
H 	H 	0.16907 0.66796 0.67246 0.04600
H 	H 	0.92742 0.52386 0.87723 0.00900
H 	H 	0.92614 0.52566 0.96597 0.05400
H 	H 	0.89365 0.39415 0.67289 0.03500
H 	H 	0.83093 0.33198 0.67248 0.04700
H 	H 	0.07257 0.47610 0.87724 0.01100
H 	H 	0.07385 0.47432 0.96598 0.05300
H 	H 	0.39433 0.67288 0.89368 0.03300
H 	H 	0.33215 0.67246 0.83096 0.04600
H 	H 	0.47612 0.87722 0.07255 0.01500
H 	H 	0.47434 0.96596 0.07385 0.06100
H 	H 	0.60568 0.67289 0.10629 0.03300
H 	H 	0.66784 0.67248 0.16901 0.04700
H 	H 	0.52389 0.87724 0.92741 0.01500
H 	H 	0.52568 0.96598 0.92614 0.06100
H 	H 	0.60568 0.32711 0.89371 0.03300
H 	H 	0.66784 0.32752 0.83099 0.04700
H 	H 	0.52389 0.12276 0.07259 0.01500
H 	H 	0.52568 0.03402 0.07386 0.03400
H 	H 	0.39433 0.32712 0.10632 0.03300
H 	H 	0.33215 0.32754 0.16904 0.04600
H 	H 	0.47612 0.12278 0.92745 0.01500
H 	H 	0.47434 0.03404 0.92615 0.03400
H 	H 	0.67145 0.10659 0.60632 0.03100
H 	H 	0.67172 0.16957 0.66819 0.04500
H 	H 	0.67145 0.89341 0.39368 0.03900
H 	H 	0.67172 0.83043 0.33181 0.04800
H 	H 	0.32851 0.10658 0.39368 0.03100
H 	H 	0.32825 0.16957 0.33182 0.04500
H 	H 	0.12278 0.92730 0.52348 0.01400
H 	H 	0.03404 0.92601 0.52527 0.03200
H 	H 	0.32851 0.89342 0.60632 0.03900
H 	H 	0.32825 0.83043 0.66818 0.04800
H 	H 	0.12278 0.07270 0.47652 0.01500
H 	H 	0.03404 0.07399 0.47473 0.03200
H 	H 	0.24983 0.31371 0.81329 0.04400
H 	H 	0.75018 0.68626 0.81326 0.04600
H 	H 	0.75018 0.31374 0.18674 0.04500
H 	H 	0.24983 0.68629 0.18671 0.04500
H 	H 	0.81362 0.24991 0.31355 0.04600
H 	H 	0.81362 0.75009 0.68645 0.04700
H 	H 	0.18640 0.75013 0.31352 0.04400
H 	H 	0.18640 0.24987 0.68648 0.04300
H 	H 	0.31339 0.81348 0.24987 0.04600
H 	H 	0.68662 0.81345 0.75009 0.04700
H 	H 	0.31339 0.18652 0.75013 0.04300
H 	H 	0.68662 0.18655 0.24991 0.04300
H 	H 	0.74982 0.68674 0.18626 0.04600
H 	H 	0.25017 0.31329 0.18628 0.04400
H 	H 	0.25017 0.68671 0.81372 0.04500
H 	H 	0.74982 0.31326 0.81374 0.04500
H 	H 	0.18661 0.74986 0.68652 0.04400
H 	H 	0.18661 0.25014 0.31348 0.04300
H 	H 	0.81337 0.25009 0.68655 0.04600
H 	H 	0.81337 0.74991 0.31345 0.04700
H 	H 	0.68637 0.18645 0.74990 0.04400
H 	H 	0.31361 0.18648 0.25013 0.04300
H 	H 	0.68637 0.81355 0.25010 0.04700
H 	H 	0.31361 0.81352 0.74987 0.04600
C 	C 	0.11915 0.38048 0.79285 0.02600
C 	C 	0.15533 0.34448 0.79307 -0.07000
C 	C 	0.01343 0.54069 0.60275 0.03400
C 	C 	0.01395 0.54142 0.55248 -0.07100
C 	C 	0.88085 0.61947 0.79284 0.02800
C 	C 	0.84467 0.65548 0.79304 -0.06600
C 	C 	0.98658 0.45928 0.60274 0.06200
C 	C 	0.98606 0.45857 0.55246 -0.04100
C 	C 	0.88085 0.38053 0.20716 0.02700
C 	C 	0.84467 0.34452 0.20696 -0.06600
C 	C 	0.98658 0.54072 0.39726 0.06200
C 	C 	0.98606 0.54143 0.44754 -0.04100
C 	C 	0.11915 0.61952 0.20715 0.02700
C 	C 	0.15533 0.65552 0.20693 -0.06900
C 	C 	0.01343 0.45931 0.39725 0.03400
C 	C 	0.01395 0.45858 0.44752 -0.07100
C 	C 	0.79413 0.11958 0.38037 0.02700
C 	C 	0.79393 0.15558 0.34420 -0.06800
C 	C 	0.79413 0.88042 0.61963 0.02800
C 	C 	0.79393 0.84442 0.65580 -0.06500
C 	C 	0.20590 0.88045 0.38035 0.02700
C 	C 	0.20609 0.84445 0.34417 -0.06700
C 	C 	0.20590 0.11955 0.61965 0.02500
C 	C 	0.20609 0.15555 0.65583 -0.07000
C 	C 	0.38044 0.79285 0.11924 0.02800
C 	C 	0.34443 0.79306 0.15543 -0.06700
C 	C 	0.54071 0.60275 0.01341 0.04100
C 	C 	0.54143 0.55247 0.01393 -0.07200
C 	C 	0.61956 0.79283 0.88071 0.02800
C 	C 	0.65558 0.79304 0.84452 -0.06700
C 	C 	0.45930 0.60274 0.98656 0.04200
C 	C 	0.45858 0.55247 0.98605 -0.07100
C 	C 	0.38044 0.20715 0.88076 0.02600
C 	C 	0.34443 0.20694 0.84457 -0.06900
C 	C 	0.54071 0.39725 0.98659 0.04300
C 	C 	0.54143 0.44753 0.98607 -0.07200
C 	C 	0.61956 0.20717 0.11929 0.02700
C 	C 	0.65558 0.20696 0.15548 -0.06800
C 	C 	0.45930 0.39726 0.01344 0.04200
C 	C 	0.45858 0.44753 0.01395 -0.07300
C 	C 	0.88059 0.61968 0.70582 0.02800
C 	C 	0.84443 0.65570 0.70601 -0.06600
C 	C 	0.11942 0.38027 0.70583 0.02600
C 	C 	0.15558 0.34426 0.70603 -0.07000
C 	C 	0.88059 0.38032 0.29418 0.02700
C 	C 	0.84443 0.34430 0.29399 -0.06600
C 	C 	0.11942 0.61973 0.29417 0.02700
C 	C 	0.15558 0.65574 0.29397 -0.06900
C 	C 	0.61982 0.29417 0.11950 0.02700
C 	C 	0.65585 0.29398 0.15566 -0.06800
C 	C 	0.38018 0.29416 0.88054 0.02700
C 	C 	0.34415 0.29396 0.84437 -0.06800
C 	C 	0.38018 0.70584 0.11946 0.02700
C 	C 	0.34415 0.70604 0.15563 -0.06800
C 	C 	0.61982 0.70583 0.88050 0.02700
C 	C 	0.65585 0.70602 0.84434 -0.06700
C 	C 	0.29292 0.88067 0.38058 0.02700
C 	C 	0.29312 0.84468 0.34437 -0.06600
C 	C 	0.29292 0.11933 0.61942 0.02600
C 	C 	0.29312 0.15532 0.65563 -0.06900
C 	C 	0.70711 0.88064 0.61938 0.02800
C 	C 	0.70690 0.84464 0.65558 -0.06600
C 	C 	0.89726 0.04064 0.51362 0.04300
C 	C 	0.94754 0.04136 0.51415 -0.08100
C 	C 	0.70711 0.11936 0.38062 0.02600
C 	C 	0.70690 0.15536 0.34442 -0.06900
C 	C 	0.89726 0.95936 0.48638 0.07000
C 	C 	0.94754 0.95864 0.48585 -0.05500
C 	C 	0.88018 0.61950 0.20583 0.02800
C 	C 	0.84414 0.65566 0.20602 -0.06600
C 	C 	0.11982 0.38054 0.20584 0.02600
C 	C 	0.15585 0.34437 0.20604 -0.06900
C 	C 	0.11982 0.61946 0.79416 0.02600
C 	C 	0.15585 0.65563 0.79396 -0.06900
C 	C 	0.88018 0.38050 0.79417 0.02700
C 	C 	0.84414 0.34434 0.79398 -0.06600
C 	C 	0.20708 0.88057 0.61933 0.02700
C 	C 	0.20688 0.84437 0.65532 -0.06700
C 	C 	0.39724 0.98681 0.45922 0.06300
C 	C 	0.44752 0.98630 0.45849 -0.04000
C 	C 	0.20708 0.11943 0.38067 0.02600
C 	C 	0.20688 0.15563 0.34468 -0.07000
C 	C 	0.39724 0.01319 0.54078 0.03300
C 	C 	0.44752 0.01370 0.54151 -0.07100
C 	C 	0.79288 0.11938 0.61937 0.02700
C 	C 	0.79309 0.15558 0.65536 -0.06900
C 	C 	0.60273 0.01362 0.45936 0.03300
C 	C 	0.55246 0.01414 0.45864 -0.07100
C 	C 	0.79288 0.88062 0.38063 0.02800
C 	C 	0.79309 0.84442 0.34464 -0.06500
C 	C 	0.60273 0.98638 0.54064 0.06300
C 	C 	0.55246 0.98586 0.54136 -0.04000
C 	C 	0.61941 0.20582 0.88032 0.02700
C 	C 	0.65556 0.20602 0.84430 -0.06800
C 	C 	0.38058 0.20583 0.11972 0.02600
C 	C 	0.34442 0.20603 0.15574 -0.06900
C 	C 	0.61941 0.79418 0.11968 0.02800
C 	C 	0.65556 0.79398 0.15570 -0.06700
C 	C 	0.38058 0.79417 0.88028 0.02800
C 	C 	0.34442 0.79397 0.84426 -0.06700
C 	C 	0.11956 0.38076 0.29285 0.02600
C 	C 	0.15557 0.34457 0.29306 -0.06900
C 	C 	0.95929 0.48659 0.10275 0.07700
C 	C 	0.95857 0.48607 0.05247 -0.08800
C 	C 	0.88044 0.61929 0.29284 0.02800
C 	C 	0.84443 0.65548 0.29305 -0.06600
C 	C 	0.04070 0.51344 0.10274 0.05100
C 	C 	0.04142 0.51395 0.05247 -0.11300
C 	C 	0.11956 0.61924 0.70715 0.02600
C 	C 	0.15557 0.65543 0.70694 -0.06900
C 	C 	0.95929 0.51341 0.89725 0.07800
C 	C 	0.95857 0.51393 0.94753 -0.08900
C 	C 	0.88044 0.38071 0.70716 0.02700
C 	C 	0.84443 0.34452 0.70695 -0.06600
C 	C 	0.04070 0.48656 0.89726 0.05200
C 	C 	0.04142 0.48605 0.94753 -0.11400
C 	C 	0.38085 0.70715 0.88049 0.02800
C 	C 	0.34467 0.70693 0.84449 -0.06800
C 	C 	0.48658 0.89725 0.04069 0.05000
C 	C 	0.48606 0.94753 0.04142 -0.08600
C 	C 	0.61915 0.70716 0.11948 0.02800
C 	C 	0.65532 0.70695 0.15548 -0.06800
C 	C 	0.51343 0.89726 0.95928 0.05100
C 	C 	0.51395 0.94754 0.95857 -0.08500
C 	C 	0.61915 0.29284 0.88052 0.02700
C 	C 	0.65532 0.29305 0.84452 -0.06800
C 	C 	0.51343 0.10274 0.04072 0.03300
C 	C 	0.51395 0.05246 0.04143 -0.05900
C 	C 	0.38085 0.29285 0.11951 0.02700
C 	C 	0.34467 0.29307 0.15551 -0.06800
C 	C 	0.48658 0.10275 0.95931 0.03400
C 	C 	0.48606 0.05247 0.95858 -0.05800
C 	C 	0.70587 0.11964 0.61956 0.02700
C 	C 	0.70606 0.15581 0.65557 -0.06900
C 	C 	0.70587 0.88036 0.38044 0.02800
C 	C 	0.70606 0.84419 0.34443 -0.06500
C 	C 	0.29410 0.11965 0.38045 0.02600
C 	C 	0.29391 0.15582 0.34445 -0.07000
C 	C 	0.10275 0.95922 0.51320 0.05300
C 	C 	0.05248 0.95850 0.51372 -0.03100
C 	C 	0.29410 0.88035 0.61955 0.02700
C 	C 	0.29391 0.84418 0.65555 -0.06600
C 	C 	0.10275 0.04078 0.48680 0.02600
C 	C 	0.05248 0.04150 0.48628 -0.05600
C 	C 	-0.00000 0.50000 0.52671 0.00100
C 	C 	-0.00000 0.50000 0.47329 0.00100
C 	C 	0.52670 0.00000 0.50000 -0.00000
C 	C 	0.47328 0.00000 0.50000 -0.00000
C 	C 	0.50000 0.52671 -0.00000 0.02700
C 	C 	0.50000 0.47329 -0.00000 0.02700
C 	C 	0.99999 0.49999 0.97329 0.06400
C 	C 	0.99999 0.50001 0.02671 0.06100
C 	C 	0.50001 0.02671 -0.00000 -0.01800
C 	C 	0.50001 0.97329 -0.00000 0.07300
C 	C 	0.02671 0.00000 0.50000 -0.04200
C 	C 	0.97330 0.00000 0.50000 0.04300
C 	C 	0.06178 0.43778 0.74902 0.40600
C 	C 	0.10047 0.39910 0.74923 -0.11700
C 	C 	0.17436 0.32553 0.74966 0.02300
C 	C 	0.21328 0.28664 0.74985 0.01400
C 	C 	0.93822 0.56218 0.74901 0.40400
C 	C 	0.89953 0.60085 0.74922 -0.10900
C 	C 	0.82565 0.67442 0.74963 0.02500
C 	C 	0.78673 0.71333 0.74982 0.01700
C 	C 	0.93822 0.43782 0.25099 0.40400
C 	C 	0.89953 0.39915 0.25078 -0.10900
C 	C 	0.82565 0.32558 0.25037 0.02400
C 	C 	0.78673 0.28667 0.25018 0.01600
C 	C 	0.06178 0.56222 0.25098 0.40600
C 	C 	0.10047 0.60090 0.25077 -0.11700
C 	C 	0.17436 0.67447 0.25034 0.02400
C 	C 	0.21328 0.71336 0.25015 0.01500
C 	C 	0.75095 0.06213 0.43810 0.40500
C 	C 	0.75073 0.10076 0.39934 -0.11600
C 	C 	0.75032 0.17433 0.32541 0.02400
C 	C 	0.75016 0.21333 0.28656 0.01500
C 	C 	0.75095 0.93787 0.56190 0.40400
C 	C 	0.75073 0.89924 0.60066 -0.10900
C 	C 	0.75032 0.82567 0.67459 0.02500
C 	C 	0.75016 0.78667 0.71344 0.01700
C 	C 	0.24908 0.93789 0.43808 0.40400
C 	C 	0.24930 0.89927 0.39931 -0.11000
C 	C 	0.24971 0.82571 0.32537 0.02400
C 	C 	0.24985 0.78670 0.28652 0.01600
C 	C 	0.24908 0.06211 0.56192 0.40500
C 	C 	0.24930 0.10073 0.60069 -0.11700
C 	C 	0.24971 0.17429 0.67463 0.02300
C 	C 	0.24985 0.21330 0.71348 0.01400
C 	C 	0.43775 0.74902 0.06181 0.40600
C 	C 	0.39905 0.74923 0.10052 -0.11300
C 	C 	0.32544 0.74966 0.17445 0.02400
C 	C 	0.28651 0.74985 0.21341 0.01600
C 	C 	0.56225 0.74902 0.93815 0.40600
C 	C 	0.60095 0.74922 0.89943 -0.11300
C 	C 	0.67457 0.74963 0.82551 0.02500
C 	C 	0.71350 0.74982 0.78656 0.01700
C 	C 	0.43775 0.25098 0.93819 0.40500
C 	C 	0.39905 0.25077 0.89948 -0.11400
C 	C 	0.32544 0.25034 0.82555 0.02300
C 	C 	0.28651 0.25015 0.78659 0.01400
C 	C 	0.56225 0.25098 0.06185 0.40500
C 	C 	0.60095 0.25078 0.10057 -0.11400
C 	C 	0.67457 0.25037 0.17449 0.02400
C 	C 	0.71350 0.25018 0.21344 0.01500
C 	C 	0.93775 0.56185 0.24902 0.40300
C 	C 	0.89905 0.60057 0.24923 -0.10900
C 	C 	0.82543 0.67449 0.24964 0.02500
C 	C 	0.78650 0.71344 0.24982 0.01700
C 	C 	0.06225 0.43819 0.24902 0.40400
C 	C 	0.10095 0.39948 0.24923 -0.11600
C 	C 	0.17456 0.32555 0.24965 0.02300
C 	C 	0.21349 0.28659 0.24985 0.01400
C 	C 	0.06225 0.56181 0.75098 0.40500
C 	C 	0.10095 0.60052 0.75077 -0.11600
C 	C 	0.17456 0.67445 0.75035 0.02400
C 	C 	0.21349 0.71341 0.75015 0.01500
C 	C 	0.93775 0.43815 0.75098 0.40300
C 	C 	0.89905 0.39943 0.75077 -0.10900
C 	C 	0.82543 0.32551 0.75036 0.02400
C 	C 	0.78650 0.28656 0.75018 0.01600
C 	C 	0.25091 0.93808 0.56211 0.40300
C 	C 	0.25070 0.89931 0.60073 -0.10900
C 	C 	0.25030 0.82537 0.67429 0.02400
C 	C 	0.25015 0.78652 0.71329 0.01600
C 	C 	0.25091 0.06192 0.43789 0.40500
C 	C 	0.25070 0.10069 0.39927 -0.11700
C 	C 	0.25030 0.17463 0.32571 0.02300
C 	C 	0.25015 0.21348 0.28671 0.01400
C 	C 	0.74905 0.06190 0.56213 0.40600
C 	C 	0.74927 0.10066 0.60076 -0.11600
C 	C 	0.74968 0.17460 0.67432 0.02400
C 	C 	0.74983 0.21344 0.71333 0.01500
C 	C 	0.74905 0.93810 0.43787 0.40400
C 	C 	0.74927 0.89934 0.39924 -0.10800
C 	C 	0.74968 0.82540 0.32568 0.02500
C 	C 	0.74983 0.78656 0.28667 0.01700
C 	C 	0.56178 0.24901 0.93782 0.40600
C 	C 	0.60047 0.24922 0.89914 -0.11400
C 	C 	0.67434 0.24964 0.82557 0.02400
C 	C 	0.71327 0.24982 0.78667 0.01500
C 	C 	0.43822 0.24902 0.06222 0.40600
C 	C 	0.39953 0.24923 0.10090 -0.11500
C 	C 	0.32564 0.24966 0.17446 0.02300
C 	C 	0.28672 0.24985 0.21336 0.01400
C 	C 	0.56178 0.75099 0.06218 0.40700
C 	C 	0.60047 0.75078 0.10086 -0.11300
C 	C 	0.67434 0.75036 0.17443 0.02500
C 	C 	0.71327 0.75018 0.21333 0.01700
C 	C 	0.43822 0.75098 0.93778 0.40600
C 	C 	0.39953 0.75077 0.89910 -0.11300
C 	C 	0.32564 0.75034 0.82554 0.02400
C 	C 	0.28672 0.75015 0.78664 0.01600
C 	C 	0.24987 0.28601 0.78574 -0.06100
C 	C 	0.75014 0.71396 0.78571 -0.06000
C 	C 	0.75014 0.28604 0.21429 -0.06000
C 	C 	0.24987 0.71399 0.21426 -0.06000
C 	C 	0.78600 0.24997 0.28593 -0.06000
C 	C 	0.78600 0.75003 0.71407 -0.06000
C 	C 	0.21402 0.75007 0.28589 -0.06000
C 	C 	0.21402 0.24993 0.71411 -0.06100
C 	C 	0.28576 0.78585 0.24992 -0.06000
C 	C 	0.71425 0.78582 0.75003 -0.05900
C 	C 	0.28576 0.21415 0.75008 -0.06100
C 	C 	0.71425 0.21418 0.24997 -0.06000
C 	C 	0.74986 0.71429 0.21397 -0.06000
C 	C 	0.25013 0.28574 0.21399 -0.06100
C 	C 	0.25013 0.71426 0.78601 -0.06000
C 	C 	0.74986 0.28571 0.78603 -0.06000
C 	C 	0.21424 0.74992 0.71415 -0.06000
C 	C 	0.21424 0.25008 0.28585 -0.06100
C 	C 	0.78575 0.25004 0.71417 -0.06000
C 	C 	0.78575 0.74996 0.28583 -0.06000
C 	C 	0.71400 0.21408 0.74996 -0.06000
C 	C 	0.28598 0.21411 0.25007 -0.06100
C 	C 	0.71400 0.78592 0.25004 -0.05900
C 	C 	0.28598 0.78589 0.74993 -0.06000
N 	N 	-0.00000 0.49998 0.62662 -0.27100
N 	N 	0.00000 0.50002 0.37338 -0.27100
N 	N 	0.62661 0.00000 0.50000 -0.27100
N 	N 	0.37337 0.00000 0.50000 -0.27200
N 	N 	0.50000 0.62662 0.99998 -0.25400
N 	N 	0.50000 0.37338 0.00002 -0.25500
N 	N 	0.00000 0.49998 0.87338 -0.27800
N 	N 	0.00000 0.50002 0.12662 -0.27800
N 	N 	0.50000 0.12662 0.00002 -0.25300
N 	N 	0.50000 0.87338 0.99998 -0.25600
N 	N 	0.12663 0.00000 0.50000 -0.26900
N 	N 	0.87339 0.00000 0.50000 -0.27400
O 	O 	0.04557 0.45409 0.70913 -0.48400
O 	O 	0.95443 0.54586 0.70913 -0.46100
O 	O 	0.95443 0.45414 0.29087 -0.46100
O 	O 	0.04557 0.54591 0.29087 -0.48400
O 	O 	0.71119 0.04571 0.45457 -0.48200
O 	O 	0.71119 0.95429 0.54543 -0.46300
O 	O 	0.28884 0.95430 0.45456 -0.46400
O 	O 	0.28884 0.04570 0.54544 -0.48300
O 	O 	0.45408 0.70913 0.04559 -0.47500
O 	O 	0.54593 0.70913 0.95437 -0.47400
O 	O 	0.45408 0.29087 0.95441 -0.47400
O 	O 	0.54593 0.29087 0.04563 -0.47500
O 	O 	0.95466 0.54574 0.78877 -0.46300
O 	O 	0.04534 0.45421 0.78878 -0.48400
O 	O 	0.95466 0.45426 0.21123 -0.46400
O 	O 	0.04534 0.54579 0.21122 -0.48300
O 	O 	0.54580 0.21122 0.04540 -0.47700
O 	O 	0.45420 0.21122 0.95465 -0.47600
O 	O 	0.45420 0.78878 0.04535 -0.47500
O 	O 	0.54580 0.78878 0.95460 -0.47500
O 	O 	0.20920 0.95418 0.45432 -0.46200
O 	O 	0.20920 0.04582 0.54568 -0.48300
O 	O 	0.79084 0.95416 0.54566 -0.46000
O 	O 	0.79084 0.04584 0.45434 -0.48100
O 	O 	0.95420 0.54540 0.28878 -0.46300
O 	O 	0.04580 0.45465 0.28878 -0.48200
O 	O 	0.04580 0.54535 0.71122 -0.48200
O 	O 	0.95420 0.45460 0.71122 -0.46400
O 	O 	0.29080 0.95432 0.54582 -0.46000
O 	O 	0.29080 0.04568 0.45418 -0.48400
O 	O 	0.70916 0.04566 0.54583 -0.48400
O 	O 	0.70916 0.95434 0.45417 -0.46000
O 	O 	0.54534 0.28877 0.95426 -0.47600
O 	O 	0.45467 0.28878 0.04578 -0.47700
O 	O 	0.54534 0.71123 0.04574 -0.47700
O 	O 	0.45467 0.71122 0.95422 -0.47600
O 	O 	0.04592 0.45441 0.20913 -0.48200
O 	O 	0.95407 0.54563 0.20913 -0.46100
O 	O 	0.04592 0.54559 0.79087 -0.48200
O 	O 	0.95407 0.45437 0.79087 -0.46200
O 	O 	0.45443 0.79087 0.95409 -0.47500
O 	O 	0.54557 0.79087 0.04586 -0.47500
O 	O 	0.54557 0.20913 0.95414 -0.47600
O 	O 	0.45443 0.20913 0.04591 -0.47700
O 	O 	0.78880 0.04543 0.54571 -0.48300
O 	O 	0.78880 0.95457 0.45429 -0.46200
O 	O 	0.21116 0.04544 0.45430 -0.48400
O 	O 	0.21116 0.95456 0.54570 -0.46300
