data_crystal

_cell_length_a 13.34440
_cell_length_b 18.78200
_cell_length_c 5.84900
_cell_angle_alpha 90.00000
_cell_angle_beta  97.71100
_cell_angle_gamma 90.00000

_symmetry_space_group_name_	'P 1'
_symmetry_space_group_name_H-M	'P 1'

loop_
_symmetry_equiv_pos_as_xyz
  x,y,z

loop_
_atom_site_label
_atom_site_type_symbol
_atom_site_fract_x
_atom_site_fract_y
_atom_site_fract_z
_atom_site_charge
La	La	0.62890 0.25000 0.33510 1.65200
P 	P 	0.43990 0.08530 0.14400 0.38500
P 	P 	0.73310 0.13360 0.86300 0.40800
O 	O 	0.42300 0.07430 0.88100 -0.18500
O 	O 	0.46300 0.16360 0.20600 -0.31300
O 	O 	0.52490 0.03660 0.25800 -0.18600
O 	O 	0.84260 0.13800 0.80700 -0.21700
O 	O 	0.66100 0.17580 0.68400 -0.39100
O 	O 	0.72900 0.16130 0.10900 -0.34700
C 	C 	0.32480 0.06240 0.26100 0.02100
C 	C 	0.69400 0.04170 0.84500 0.00600
N 	N 	0.26740 0.99270 0.24900 -0.08500
C 	C 	0.16430 0.00550 0.31800 0.04400
C 	C 	0.15500 0.98130 0.55800 0.01600
C 	C 	0.04700 0.97850 0.60400 0.01200
P 	P 	0.54240 0.90450 0.78000 0.40600
P 	P 	0.28030 0.86510 0.10630 0.40900
O 	O 	0.56300 0.90910 0.04500 -0.18300
O 	O 	0.50330 0.83040 0.70000 -0.37600
O 	O 	0.46620 0.96240 0.68400 -0.16600
O 	O 	0.17310 0.83260 0.08000 -0.23700
O 	O 	0.33080 0.86280 0.35800 -0.29700
O 	O 	0.34740 0.82840 0.94800 -0.40700
C 	C 	0.65970 0.92070 0.66400 0.02200
C 	C 	0.26600 0.95710 0.01800 0.01400
N 	N 	0.71830 0.98970 0.66300 -0.08900
C 	C 	0.82960 0.98170 0.64900 0.06000
C 	C 	0.86260 0.98080 0.41500 0.01400
C 	C 	0.96970 0.95870 0.40400 0.01200
La	La	0.37110 0.75000 0.66490 1.65100
P 	P 	0.56010 0.58530 0.85600 0.38400
P 	P 	0.26690 0.63360 0.13700 0.40800
O 	O 	0.57700 0.57430 0.11900 -0.18300
O 	O 	0.53700 0.66360 0.79400 -0.31300
O 	O 	0.47510 0.53660 0.74200 -0.18300
O 	O 	0.15740 0.63800 0.19300 -0.21500
O 	O 	0.33900 0.67580 0.31600 -0.39100
O 	O 	0.27100 0.66130 0.89100 -0.34600
C 	C 	0.67520 0.56240 0.73900 0.02600
C 	C 	0.30600 0.54170 0.15500 0.01100
N 	N 	0.73260 0.49270 0.75100 -0.09000
C 	C 	0.83570 0.50550 0.68200 0.05500
C 	C 	0.84500 0.48130 0.44200 0.00900
C 	C 	0.95300 0.47850 0.39600 0.01100
P 	P 	0.45760 0.40450 0.22000 0.40600
P 	P 	0.71970 0.36510 0.89370 0.40900
O 	O 	0.43700 0.40910 0.95500 -0.18500
O 	O 	0.49670 0.33040 0.30000 -0.37600
O 	O 	0.53380 0.46240 0.31600 -0.16900
O 	O 	0.82690 0.33260 0.92000 -0.23700
O 	O 	0.66920 0.36280 0.64200 -0.29700
O 	O 	0.65260 0.32840 0.05200 -0.40800
C 	C 	0.34030 0.42070 0.33600 0.02000
C 	C 	0.73400 0.45710 0.98200 0.01200
N 	N 	0.28170 0.48970 0.33700 -0.09200
C 	C 	0.17040 0.48170 0.35100 0.05800
C 	C 	0.13740 0.48080 0.58500 0.01200
C 	C 	0.03030 0.45870 0.59600 0.01100
