data_crystal

_cell_length_a 12.50350
_cell_length_b 18.18740
_cell_length_c 5.82000
_cell_angle_alpha 90.00000
_cell_angle_beta  101.92300
_cell_angle_gamma 90.00000

_symmetry_space_group_name_	'P 1'
_symmetry_space_group_name_H-M	'P 1'

loop_
_symmetry_equiv_pos_as_xyz
  x,y,z

loop_
_atom_site_label
_atom_site_type_symbol
_atom_site_fract_x
_atom_site_fract_y
_atom_site_fract_z
_atom_site_charge
La	La	0.66950 0.25000 0.37630 1.59700
P 	P 	0.46520 0.08890 0.18000 0.39600
P 	P 	0.74790 0.11260 0.91400 0.40100
O 	O 	0.42990 0.08920 0.91400 -0.18800
O 	O 	0.49960 0.16820 0.25900 -0.33600
O 	O 	0.54930 0.03010 0.27800 -0.18100
O 	O 	0.87300 0.10660 0.93100 -0.22400
O 	O 	0.69510 0.16300 0.71000 -0.38100
O 	O 	0.71850 0.13410 0.15100 -0.34000
C 	C 	0.34840 0.07320 0.31900 0.03100
C 	C 	0.69090 0.02290 0.83300 0.03100
N 	N 	0.24290 0.03200 0.28700 -0.09300
C 	C 	0.15290 0.08780 0.27400 0.05800
C 	C 	0.12370 0.09920 0.51000 0.01000
C 	C 	0.01660 0.06520 0.52400 0.01300
P 	P 	0.55320 0.89860 0.79700 0.38200
P 	P 	0.20680 0.88040 0.07300 0.40400
O 	O 	0.56740 0.86590 0.04500 -0.21300
O 	O 	0.48310 0.84860 0.60200 -0.31000
O 	O 	0.50780 0.97590 0.76700 -0.17500
O 	O 	0.08200 0.86800 0.04100 -0.21700
O 	O 	0.26800 0.84680 0.30600 -0.35100
O 	O 	0.24840 0.84870 0.86000 -0.35500
C 	C 	0.68850 0.89430 0.72100 0.02100
C 	C 	0.23120 0.97830 0.08700 0.01000
N 	N 	0.69970 0.97150 0.63600 -0.08900
C 	C 	0.79070 0.98630 0.51000 0.06700
C 	C 	0.90300 0.96270 0.64300 0.01200
C 	C 	0.99900 0.98490 0.54100 0.01900
La	La	0.33050 0.75000 0.62370 1.59600
P 	P 	0.53480 0.58890 0.82000 0.39600
P 	P 	0.25210 0.61260 0.08600 0.40100
O 	O 	0.57010 0.58920 0.08600 -0.18800
O 	O 	0.50040 0.66820 0.74100 -0.33600
O 	O 	0.45070 0.53010 0.72200 -0.18200
O 	O 	0.12700 0.60660 0.06900 -0.22500
O 	O 	0.30490 0.66300 0.29000 -0.38100
O 	O 	0.28150 0.63410 0.84900 -0.34000
C 	C 	0.65160 0.57320 0.68100 0.03000
C 	C 	0.30910 0.52290 0.16700 0.02900
N 	N 	0.75710 0.53200 0.71300 -0.09300
C 	C 	0.84710 0.58780 0.72600 0.05800
C 	C 	0.87630 0.59920 0.49000 0.01000
C 	C 	0.98340 0.56520 0.47600 0.01200
P 	P 	0.44680 0.39860 0.20300 0.38200
P 	P 	0.79320 0.38040 0.92700 0.40400
O 	O 	0.43260 0.36590 0.95500 -0.21300
O 	O 	0.51690 0.34860 0.39800 -0.31000
O 	O 	0.49220 0.47590 0.23300 -0.17400
O 	O 	0.91800 0.36800 0.95900 -0.21600
O 	O 	0.73200 0.34680 0.69400 -0.35100
O 	O 	0.75160 0.34870 0.14000 -0.35500
C 	C 	0.31150 0.39430 0.27900 0.02200
C 	C 	0.76880 0.47830 0.91300 0.01200
N 	N 	0.30030 0.47150 0.36400 -0.08800
C 	C 	0.20930 0.48630 0.49000 0.06800
C 	C 	0.09700 0.46270 0.35700 0.01200
C 	C 	0.00100 0.48490 0.45900 0.02100
