data_crystal

_cell_length_a 13.90770
_cell_length_b 16.43550
_cell_length_c 16.43550
_cell_angle_alpha 90.00000
_cell_angle_beta  90.00000
_cell_angle_gamma 90.00000

_symmetry_space_group_name_	'P 1'
_symmetry_space_group_name_H-M	'P 1'

loop_
_symmetry_equiv_pos_as_xyz
  x,y,z

loop_
_atom_site_label
_atom_site_type_symbol
_atom_site_fract_x
_atom_site_fract_y
_atom_site_fract_z
_atom_site_charge
Cu	Cu	0.50000 0.81739 0.81739 0.85100
Cu	Cu	0.00000 0.18261 0.18261 0.84500
Cu	Cu	0.25000 0.68261 0.31739 0.85100
Cu	Cu	0.75000 0.31739 0.68261 0.85100
H 	H 	0.61660 0.96790 0.78130 -0.02200
H 	H 	0.75110 0.00420 0.70990 0.07900
H 	H 	0.77430 0.77420 0.63500 0.09200
H 	H 	0.64240 0.74260 0.71080 -0.02200
H 	H 	0.22920 0.86000 0.37060 -0.01000
H 	H 	0.13050 0.93840 0.45020 0.09400
H 	H 	0.97540 0.73930 0.49650 0.10500
H 	H 	0.07910 0.66580 0.41860 -0.02600
H 	H 	0.11660 0.03210 0.21870 -0.02400
H 	H 	0.25110 0.99580 0.29010 0.07700
H 	H 	0.27430 0.22580 0.36500 0.09100
H 	H 	0.14240 0.25740 0.28920 -0.02300
H 	H 	0.72920 0.14000 0.62940 -0.00900
H 	H 	0.63050 0.06160 0.54980 0.09500
H 	H 	0.47540 0.26070 0.50350 0.08900
H 	H 	0.57910 0.33420 0.58140 -0.02000
H 	H 	0.36660 0.71870 0.46790 -0.02200
H 	H 	0.50110 0.79010 0.50420 0.07800
H 	H 	0.52430 0.86500 0.27420 0.09100
H 	H 	0.39240 0.78920 0.24260 -0.02200
H 	H 	0.97920 0.12940 0.36000 -0.00400
H 	H 	0.88050 0.04980 0.43840 0.09600
H 	H 	0.72540 0.00350 0.23930 0.09000
H 	H 	0.82910 0.08140 0.16580 -0.01900
H 	H 	0.86660 0.28130 0.53210 -0.00500
H 	H 	0.00110 0.20990 0.49580 0.04000
H 	H 	0.02430 0.13500 0.72580 0.05400
H 	H 	0.89240 0.21080 0.75740 -0.00500
H 	H 	0.47920 0.87060 0.64000 -0.00900
H 	H 	0.38050 0.95020 0.56160 0.09500
H 	H 	0.22540 0.99650 0.76070 0.08900
H 	H 	0.32910 0.91860 0.83420 -0.02000
H 	H 	0.13340 0.53210 0.28130 -0.03800
H 	H 	0.99890 0.49580 0.20990 0.11600
H 	H 	0.97570 0.72580 0.13500 0.12800
H 	H 	0.10760 0.75740 0.21080 -0.03900
H 	H 	0.52080 0.64000 0.87060 -0.00900
H 	H 	0.61950 0.56160 0.95020 0.09500
H 	H 	0.77460 0.76070 0.99650 0.09000
H 	H 	0.67090 0.83420 0.91860 -0.02000
H 	H 	0.63340 0.46790 0.71870 -0.02100
H 	H 	0.49890 0.50420 0.79010 0.07700
H 	H 	0.47570 0.27420 0.86500 0.09100
H 	H 	0.60760 0.24260 0.78920 -0.02200
H 	H 	0.02080 0.36000 0.12940 -0.01400
H 	H 	0.11950 0.43840 0.04980 0.09400
H 	H 	0.27460 0.23930 0.00350 0.08900
H 	H 	0.17090 0.16580 0.08140 -0.02100
H 	H 	0.38340 0.78130 0.96790 -0.02100
H 	H 	0.24890 0.70990 0.00420 0.07600
H 	H 	0.22570 0.63500 0.77420 0.09000
H 	H 	0.35760 0.71080 0.74260 -0.02200
H 	H 	0.77080 0.37060 0.86000 -0.00900
H 	H 	0.86950 0.45020 0.93840 0.09600
H 	H 	0.02460 0.49650 0.73930 0.07400
H 	H 	0.92090 0.41860 0.66580 -0.01400
H 	H 	0.88340 0.21870 0.03210 -0.01800
H 	H 	0.74890 0.29010 0.99580 0.07600
H 	H 	0.72570 0.36500 0.22580 0.09100
H 	H 	0.85760 0.28920 0.25740 -0.02000
H 	H 	0.27080 0.62940 0.14000 -0.01000
H 	H 	0.36950 0.54980 0.06160 0.09500
H 	H 	0.52460 0.50350 0.26070 0.09000
H 	H 	0.42090 0.58140 0.33420 -0.02000
C 	C 	0.64984 0.92824 0.75239 0.08100
C 	C 	0.72963 0.95062 0.70907 -0.13200
C 	C 	0.77765 0.89270 0.66421 0.05400
C 	C 	0.74368 0.81448 0.66516 -0.12800
C 	C 	0.66459 0.79598 0.71063 0.08300
C 	C 	0.86237 0.91365 0.61570 0.15900
C 	C 	0.97886 0.89365 0.53617 0.15900
C 	C 	0.17775 0.83533 0.39693 0.08300
C 	C 	0.11896 0.88298 0.44458 -0.13600
C 	C 	0.04187 0.84641 0.48418 0.04800
C 	C 	0.02753 0.76505 0.47220 -0.15200
C 	C 	0.08950 0.72137 0.42470 0.08500
C 	C 	0.14984 0.07176 0.24761 0.07900
C 	C 	0.22963 0.04938 0.29093 -0.13100
C 	C 	0.27765 0.10730 0.33579 0.05200
C 	C 	0.24368 0.18552 0.33484 -0.12800
C 	C 	0.16459 0.20402 0.28937 0.08200
C 	C 	0.36237 0.08635 0.38430 0.15900
C 	C 	0.47886 0.10635 0.46383 0.15100
C 	C 	0.67775 0.16467 0.60307 0.08200
C 	C 	0.61896 0.11702 0.55542 -0.13400
C 	C 	0.54187 0.15359 0.51582 0.05000
C 	C 	0.52753 0.23495 0.52780 -0.12800
C 	C 	0.58950 0.27863 0.57530 0.07500
C 	C 	0.39984 0.74761 0.42824 0.08000
C 	C 	0.47963 0.79093 0.45062 -0.13000
C 	C 	0.52765 0.83579 0.39270 0.05200
C 	C 	0.49368 0.83484 0.31448 -0.12700
C 	C 	0.41459 0.78937 0.29598 0.08300
C 	C 	0.61237 0.88430 0.41365 0.15900
C 	C 	0.72886 0.96383 0.39365 0.15000
C 	C 	0.92775 0.10307 0.33533 0.08200
C 	C 	0.86896 0.05542 0.38298 -0.13300
C 	C 	0.79187 0.01582 0.34641 0.05100
C 	C 	0.77753 0.02780 0.26505 -0.12800
C 	C 	0.83950 0.07530 0.22137 0.07600
C 	C 	0.89984 0.25239 0.57176 0.03600
C 	C 	0.97963 0.20907 0.54938 -0.04400
C 	C 	0.02765 0.16421 0.60730 -0.02500
C 	C 	0.99368 0.16516 0.68552 -0.04100
C 	C 	0.91459 0.21063 0.70402 0.03800
C 	C 	0.11237 0.11570 0.58635 0.18300
C 	C 	0.22886 0.03617 0.60635 0.15000
C 	C 	0.42775 0.89693 0.66467 0.08200
C 	C 	0.36896 0.94458 0.61702 -0.13500
C 	C 	0.29187 0.98418 0.65359 0.05000
C 	C 	0.27753 0.97220 0.73495 -0.12900
C 	C 	0.33950 0.92470 0.77863 0.07500
C 	C 	0.10016 0.57176 0.25239 0.12400
C 	C 	0.02037 0.54938 0.20907 -0.21600
C 	C 	0.97235 0.60730 0.16421 0.12900
C 	C 	0.00632 0.68552 0.16516 -0.21300
C 	C 	0.08541 0.70402 0.21063 0.12700
C 	C 	0.88763 0.58635 0.11570 0.13600
C 	C 	0.77114 0.60635 0.03617 0.15100
C 	C 	0.57225 0.66467 0.89693 0.08200
C 	C 	0.63104 0.61702 0.94458 -0.13400
C 	C 	0.70813 0.65359 0.98418 0.05000
C 	C 	0.72247 0.73495 0.97220 -0.12800
C 	C 	0.66050 0.77863 0.92470 0.07500
C 	C 	0.60016 0.42824 0.74761 0.08000
C 	C 	0.52037 0.45062 0.79093 -0.13000
C 	C 	0.47235 0.39270 0.83579 0.05200
C 	C 	0.50632 0.31448 0.83484 -0.12700
C 	C 	0.58541 0.29598 0.78937 0.08200
C 	C 	0.38763 0.41365 0.88430 0.15900
C 	C 	0.27114 0.39365 0.96383 0.15100
C 	C 	0.07225 0.33533 0.10307 0.08200
C 	C 	0.13104 0.38298 0.05542 -0.13600
C 	C 	0.20813 0.34641 0.01582 0.05000
C 	C 	0.22247 0.26505 0.02780 -0.12900
C 	C 	0.16050 0.22137 0.07530 0.07400
C 	C 	0.35016 0.75239 0.92824 0.07800
C 	C 	0.27037 0.70907 0.95062 -0.12800
C 	C 	0.22235 0.66421 0.89270 0.05000
C 	C 	0.25632 0.66516 0.81448 -0.12700
C 	C 	0.33541 0.71063 0.79598 0.08200
C 	C 	0.13763 0.61570 0.91365 0.15900
C 	C 	0.02114 0.53617 0.89365 0.14300
C 	C 	0.82225 0.39693 0.83533 0.08100
C 	C 	0.88104 0.44458 0.88298 -0.13300
C 	C 	0.95813 0.48418 0.84641 0.05200
C 	C 	0.97247 0.47220 0.76505 -0.10400
C 	C 	0.91050 0.42470 0.72137 0.06400
C 	C 	0.85016 0.24761 0.07176 0.07900
C 	C 	0.77037 0.29093 0.04938 -0.12700
C 	C 	0.72235 0.33579 0.10730 0.05100
C 	C 	0.75632 0.33484 0.18552 -0.12600
C 	C 	0.83541 0.28937 0.20402 0.08200
C 	C 	0.63763 0.38430 0.08635 0.16000
C 	C 	0.52114 0.46383 0.10635 0.15100
C 	C 	0.32225 0.60307 0.16467 0.08200
C 	C 	0.38104 0.55542 0.11702 -0.13500
C 	C 	0.45813 0.51582 0.15359 0.05000
C 	C 	0.47247 0.52780 0.23495 -0.12900
C 	C 	0.41050 0.57530 0.27863 0.07500
N 	N 	0.61770 0.85134 0.75481 -0.24100
N 	N 	0.90454 0.98259 0.60882 -0.10200
N 	N 	0.98208 0.96985 0.55522 -0.09600
N 	N 	0.16479 0.75546 0.38654 -0.24100
N 	N 	0.11770 0.14866 0.24519 -0.24300
N 	N 	0.40454 0.01741 0.39118 -0.10300
N 	N 	0.48208 0.03015 0.44478 -0.09800
N 	N 	0.66479 0.24454 0.61346 -0.23800
N 	N 	0.36770 0.74519 0.35134 -0.24100
N 	N 	0.65454 0.89118 0.48259 -0.10300
N 	N 	0.73208 0.94478 0.46985 -0.09800
N 	N 	0.91479 0.11346 0.25546 -0.23500
N 	N 	0.86770 0.25481 0.64866 -0.22400
N 	N 	0.15454 0.10882 0.51741 -0.10900
N 	N 	0.23208 0.05522 0.53015 -0.09800
N 	N 	0.41479 0.88654 0.74454 -0.23800
N 	N 	0.13230 0.64866 0.25481 -0.25700
N 	N 	0.84546 0.51741 0.10882 -0.09700
N 	N 	0.76792 0.53015 0.05522 -0.09800
N 	N 	0.58521 0.74454 0.88654 -0.23800
N 	N 	0.63230 0.35134 0.74519 -0.24100
N 	N 	0.34546 0.48259 0.89118 -0.10300
N 	N 	0.26792 0.46985 0.94478 -0.09800
N 	N 	0.08521 0.25546 0.11346 -0.24000
N 	N 	0.38230 0.75481 0.85134 -0.24100
N 	N 	0.09546 0.60882 0.98259 -0.10400
N 	N 	0.01792 0.55522 0.96985 -0.10000
N 	N 	0.83521 0.38654 0.75546 -0.23600
N 	N 	0.88230 0.24519 0.14866 -0.23800
N 	N 	0.59546 0.39118 0.01741 -0.10300
N 	N 	0.51792 0.44478 0.03015 -0.09800
N 	N 	0.33521 0.61346 0.24454 -0.23900
O 	O 	0.90366 0.85382 0.57143 -0.23600
O 	O 	0.40366 0.14618 0.42857 -0.23600
O 	O 	0.65366 0.92857 0.35382 -0.23600
O 	O 	0.15366 0.07143 0.64618 -0.24300
O 	O 	0.84634 0.64618 0.07143 -0.23000
O 	O 	0.34634 0.35382 0.92857 -0.23700
O 	O 	0.09634 0.57143 0.85382 -0.23700
O 	O 	0.59634 0.42857 0.14618 -0.23600
