data_crystal

_cell_length_a 9.46300
_cell_length_b 16.75340
_cell_length_c 22.38360
_cell_angle_alpha 90.00000
_cell_angle_beta  90.00000
_cell_angle_gamma 91.89900

_symmetry_space_group_name_	'P 1'
_symmetry_space_group_name_H-M	'P 1'

loop_
_symmetry_equiv_pos_as_xyz
  x,y,z

loop_
_atom_site_label
_atom_site_type_symbol
_atom_site_fract_x
_atom_site_fract_y
_atom_site_fract_z
_atom_site_charge
U 	U 	0.54298 0.13558 0.25189 0.15500
U 	U 	0.90573 0.26493 0.25392 0.13400
U 	U 	0.45702 0.36442 0.75189 0.15600
U 	U 	0.09427 0.23507 0.75392 0.13700
U 	U 	0.45702 0.86442 0.74811 0.15600
U 	U 	0.09427 0.73507 0.74608 0.13500
U 	U 	0.54298 0.63558 0.24811 0.15600
U 	U 	0.90573 0.76493 0.24608 0.13700
Zn	Zn	0.84113 0.00546 0.25405 1.30100
Zn	Zn	0.22604 0.94958 0.24631 1.26800
Zn	Zn	0.15887 0.49454 0.75405 1.30200
Zn	Zn	0.77396 0.55042 0.74631 1.26900
Zn	Zn	0.15887 0.99454 0.74595 1.30100
Zn	Zn	0.77396 0.05042 0.75369 1.26800
Zn	Zn	0.84113 0.50546 0.24595 1.30200
Zn	Zn	0.22604 0.44958 0.25369 1.26900
H 	H 	0.97450 0.09030 0.15030 0.04700
H 	H 	0.95290 0.10480 0.04900 0.08800
H 	H 	0.66440 0.93090 0.15340 0.05600
H 	H 	0.63090 0.94280 0.05290 0.09200
H 	H 	0.86020 0.14420 0.96430 0.08500
H 	H 	0.85440 0.15030 0.86260 0.05700
H 	H 	0.69020 0.92290 0.95470 0.08700
H 	H 	0.69510 0.93360 0.85320 0.07200
H 	H 	0.95200 0.11060 0.35430 0.05700
H 	H 	0.92720 0.13020 0.45490 0.08900
H 	H 	0.69660 0.92360 0.35890 0.05900
H 	H 	0.66650 0.93660 0.45970 0.08800
H 	H 	0.97510 0.09760 0.54870 0.08600
H 	H 	0.96030 0.10410 0.65070 0.04800
H 	H 	0.58490 0.99680 0.54710 0.08600
H 	H 	0.57970 0.00840 0.64860 0.05600
H 	H 	0.02550 0.40970 0.65030 0.04900
H 	H 	0.04710 0.39520 0.54900 0.08900
H 	H 	0.33560 0.56910 0.65340 0.05600
H 	H 	0.36910 0.55720 0.55290 0.09200
H 	H 	0.13980 0.35580 0.46430 0.08700
H 	H 	0.14560 0.34970 0.36260 0.05700
H 	H 	0.30980 0.57710 0.45470 0.08800
H 	H 	0.30490 0.56640 0.35320 0.07200
H 	H 	0.04800 0.38940 0.85430 0.05700
H 	H 	0.07280 0.36980 0.95490 0.09000
H 	H 	0.30340 0.57640 0.85890 0.05900
H 	H 	0.33350 0.56340 0.95970 0.08900
H 	H 	0.02490 0.40240 0.04870 0.08700
H 	H 	0.03970 0.39590 0.15070 0.04900
H 	H 	0.41510 0.50320 0.04710 0.08300
H 	H 	0.42030 0.49160 0.14860 0.05700
H 	H 	0.02550 0.90970 0.84970 0.04700
H 	H 	0.04710 0.89520 0.95100 0.08800
H 	H 	0.33560 0.06910 0.84660 0.05600
H 	H 	0.36910 0.05720 0.94710 0.09200
H 	H 	0.13980 0.85580 0.03570 0.08500
H 	H 	0.14560 0.84970 0.13740 0.05700
H 	H 	0.30980 0.07710 0.04530 0.08700
H 	H 	0.30490 0.06640 0.14680 0.07200
H 	H 	0.04800 0.88940 0.64570 0.05700
H 	H 	0.07280 0.86980 0.54510 0.08900
H 	H 	0.30340 0.07640 0.64110 0.05900
H 	H 	0.33350 0.06340 0.54030 0.08800
H 	H 	0.02490 0.90240 0.45130 0.08600
H 	H 	0.03970 0.89590 0.34930 0.04800
H 	H 	0.41510 0.00320 0.45290 0.08600
H 	H 	0.42030 0.99160 0.35140 0.05600
H 	H 	0.97450 0.59030 0.34970 0.04900
H 	H 	0.95290 0.60480 0.45100 0.08900
H 	H 	0.66440 0.43090 0.34660 0.05600
H 	H 	0.63090 0.44280 0.44710 0.09200
H 	H 	0.86020 0.64420 0.53570 0.08700
H 	H 	0.85440 0.65030 0.63740 0.05700
H 	H 	0.69020 0.42290 0.54530 0.08800
H 	H 	0.69510 0.43360 0.64680 0.07200
H 	H 	0.95200 0.61060 0.14570 0.05700
H 	H 	0.92720 0.63020 0.04510 0.09000
H 	H 	0.69660 0.42360 0.14110 0.05900
H 	H 	0.66650 0.43660 0.04030 0.08900
H 	H 	0.97510 0.59760 0.95130 0.08700
H 	H 	0.96030 0.60410 0.84930 0.04900
H 	H 	0.58490 0.49680 0.95290 0.08300
H 	H 	0.57970 0.50840 0.85140 0.05700
C 	C 	0.90540 0.06005 0.13020 0.09500
C 	C 	0.89300 0.06906 0.06937 -0.12100
C 	C 	0.72250 0.96650 0.13198 0.10700
C 	C 	0.70250 0.97278 0.07165 -0.12500
C 	C 	0.79010 0.02435 0.03843 0.06800
C 	C 	0.77900 0.03201 0.97239 0.04800
C 	C 	0.82610 0.10028 0.94264 -0.10900
C 	C 	0.82290 0.10354 0.88143 0.07200
C 	C 	0.72660 0.96945 0.93698 -0.10800
C 	C 	0.72860 0.97664 0.87599 0.07500
C 	C 	0.89360 0.07532 0.37587 0.09400
C 	C 	0.87970 0.08745 0.43638 -0.11700
C 	C 	0.74400 0.96539 0.37863 0.09200
C 	C 	0.72500 0.97294 0.43921 -0.12200
C 	C 	0.79360 0.03506 0.46968 0.05900
C 	C 	0.78240 0.04456 0.53543 0.06200
C 	C 	0.89420 0.07798 0.56809 -0.11900
C 	C 	0.88420 0.08189 0.62942 0.09000
C 	C 	0.66300 0.01865 0.56719 -0.11600
C 	C 	0.66090 0.02541 0.62818 0.09000
C 	C 	0.09460 0.43995 0.63020 0.09500
C 	C 	0.10700 0.43094 0.56937 -0.12000
C 	C 	0.27750 0.53350 0.63198 0.10400
C 	C 	0.29750 0.52722 0.57165 -0.12500
C 	C 	0.20990 0.47565 0.53843 0.06700
C 	C 	0.22100 0.46799 0.47239 0.05300
C 	C 	0.17390 0.39972 0.44264 -0.11100
C 	C 	0.17710 0.39646 0.38143 0.07300
C 	C 	0.27340 0.53055 0.43698 -0.11400
C 	C 	0.27140 0.52336 0.37599 0.07300
C 	C 	0.10640 0.42468 0.87587 0.09500
C 	C 	0.12030 0.41255 0.93638 -0.11800
C 	C 	0.25600 0.53461 0.87863 0.09000
C 	C 	0.27500 0.52706 0.93921 -0.12600
C 	C 	0.20640 0.46494 0.96968 0.06200
C 	C 	0.21760 0.45544 0.03543 0.06100
C 	C 	0.10580 0.42202 0.06809 -0.11800
C 	C 	0.11580 0.41811 0.12942 0.09100
C 	C 	0.33700 0.48135 0.06719 -0.11300
C 	C 	0.33910 0.47459 0.12818 0.08900
C 	C 	0.09460 0.93995 0.86980 0.09500
C 	C 	0.10700 0.93094 0.93063 -0.12100
C 	C 	0.27750 0.03350 0.86802 0.10700
C 	C 	0.29750 0.02722 0.92835 -0.12500
C 	C 	0.20990 0.97565 0.96157 0.06800
C 	C 	0.22100 0.96799 0.02761 0.04800
C 	C 	0.17390 0.89972 0.05736 -0.10900
C 	C 	0.17710 0.89646 0.11857 0.07200
C 	C 	0.27340 0.03055 0.06302 -0.10800
C 	C 	0.27140 0.02336 0.12401 0.07500
C 	C 	0.10640 0.92468 0.62413 0.09400
C 	C 	0.12030 0.91255 0.56362 -0.11700
C 	C 	0.25600 0.03461 0.62137 0.09200
C 	C 	0.27500 0.02706 0.56079 -0.12200
C 	C 	0.20640 0.96494 0.53032 0.05900
C 	C 	0.21760 0.95544 0.46457 0.06200
C 	C 	0.10580 0.92202 0.43191 -0.11900
C 	C 	0.11580 0.91811 0.37058 0.09000
C 	C 	0.33700 0.98135 0.43281 -0.11600
C 	C 	0.33910 0.97459 0.37182 0.09000
C 	C 	0.90540 0.56005 0.36980 0.09500
C 	C 	0.89300 0.56906 0.43063 -0.12000
C 	C 	0.72250 0.46650 0.36802 0.10400
C 	C 	0.70250 0.47278 0.42835 -0.12500
C 	C 	0.79010 0.52435 0.46157 0.06700
C 	C 	0.77900 0.53201 0.52761 0.05300
C 	C 	0.82610 0.60028 0.55736 -0.11100
C 	C 	0.82290 0.60354 0.61857 0.07300
C 	C 	0.72660 0.46945 0.56302 -0.11400
C 	C 	0.72860 0.47664 0.62401 0.07300
C 	C 	0.89360 0.57532 0.12413 0.09500
C 	C 	0.87970 0.58745 0.06362 -0.11800
C 	C 	0.74400 0.46539 0.12137 0.09000
C 	C 	0.72500 0.47294 0.06079 -0.12600
C 	C 	0.79360 0.53506 0.03032 0.06200
C 	C 	0.78240 0.54456 0.96457 0.06100
C 	C 	0.89420 0.57798 0.93191 -0.11800
C 	C 	0.88420 0.58189 0.87058 0.09100
C 	C 	0.66300 0.51865 0.93281 -0.11300
C 	C 	0.66090 0.52541 0.87182 0.08900
N 	N 	0.82200 0.00943 0.16172 -0.19500
N 	N 	0.77630 0.04236 0.84763 -0.20600
N 	N 	0.82750 0.01542 0.34654 -0.19200
N 	N 	0.77080 0.05542 0.65988 -0.20000
N 	N 	0.17800 0.49057 0.66172 -0.19400
N 	N 	0.22370 0.45764 0.34763 -0.20500
N 	N 	0.17250 0.48458 0.84654 -0.19100
N 	N 	0.22920 0.44458 0.15988 -0.19900
N 	N 	0.17800 0.99057 0.83828 -0.19500
N 	N 	0.22370 0.95764 0.15237 -0.20600
N 	N 	0.17250 0.98458 0.65346 -0.19200
N 	N 	0.22920 0.94458 0.34012 -0.20000
N 	N 	0.82200 0.50943 0.33828 -0.19400
N 	N 	0.77630 0.54236 0.65237 -0.20500
N 	N 	0.82750 0.51542 0.15346 -0.19100
N 	N 	0.77080 0.55542 0.84012 -0.19900
F 	F 	0.66016 0.25826 0.24943 -0.24000
F 	F 	0.34523 0.05660 0.25125 -0.42200
F 	F 	0.61807 0.00711 0.25616 -0.43000
F 	F 	0.80602 0.13317 0.25452 -0.39400
F 	F 	0.37049 0.22418 0.24765 -0.26300
F 	F 	0.10487 0.34305 0.25561 -0.45000
F 	F 	0.82802 0.38775 0.24166 -0.44500
F 	F 	0.05136 0.02158 0.25234 -0.59300
F 	F 	0.33984 0.24174 0.74943 -0.24000
F 	F 	0.65477 0.44340 0.75125 -0.42300
F 	F 	0.38193 0.49289 0.75616 -0.43000
F 	F 	0.19398 0.36683 0.75452 -0.39300
F 	F 	0.62951 0.27582 0.74765 -0.26400
F 	F 	0.89513 0.15695 0.75561 -0.45200
F 	F 	0.17198 0.11225 0.74166 -0.44300
F 	F 	0.94864 0.47842 0.75234 -0.59600
F 	F 	0.33984 0.74174 0.75057 -0.24000
F 	F 	0.65477 0.94340 0.74875 -0.42200
F 	F 	0.38193 0.99289 0.74384 -0.43000
F 	F 	0.19398 0.86683 0.74548 -0.39400
F 	F 	0.62951 0.77582 0.75235 -0.26300
F 	F 	0.89513 0.65695 0.74439 -0.45000
F 	F 	0.17198 0.61225 0.75834 -0.44500
F 	F 	0.94864 0.97842 0.74766 -0.59300
F 	F 	0.66016 0.75826 0.25057 -0.24000
F 	F 	0.34523 0.55660 0.24875 -0.42300
F 	F 	0.61807 0.50711 0.24384 -0.43000
F 	F 	0.80602 0.63317 0.24548 -0.39300
F 	F 	0.37049 0.72418 0.25235 -0.26400
F 	F 	0.10487 0.84305 0.24439 -0.45200
F 	F 	0.82802 0.88775 0.25834 -0.44300
F 	F 	0.05136 0.52158 0.24766 -0.59600
