data_crystal

_cell_length_a 11.98870
_cell_length_b 18.63650
_cell_length_c 17.98070
_cell_angle_alpha 90.00000
_cell_angle_beta  90.00000
_cell_angle_gamma 90.00000

_symmetry_space_group_name_	'P 1'
_symmetry_space_group_name_H-M	'P 1'

loop_
_symmetry_equiv_pos_as_xyz
  x,y,z

loop_
_atom_site_label
_atom_site_type_symbol
_atom_site_fract_x
_atom_site_fract_y
_atom_site_fract_z
_atom_site_charge
Zn	Zn	0.61039 0.99103 0.69758 1.20700
H 	H 	0.12600 0.20730 0.24330 0.10300
H 	H 	0.44950 0.07740 0.51030 0.01500
H 	H 	0.11660 0.76460 0.32960 0.00200
H 	H 	0.35090 0.13840 0.42030 0.09300
H 	H 	0.11390 0.64150 0.33070 0.09200
H 	H 	0.14530 0.40990 0.30380 0.09400
H 	H 	0.10350 0.17360 0.56510 0.09500
H 	H 	0.20420 0.11530 0.65520 0.00000
H 	H 	0.20970 0.14310 0.33700 0.00100
H 	H 	0.14190 0.53240 0.30550 0.00500
H 	H 	0.99140 0.33910 0.39360 0.10900
H 	H 	0.07450 0.27380 0.48850 0.00800
C 	C 	0.40150 0.05240 0.65070 0.43700
C 	C 	0.33730 0.09000 0.59230 -0.18000
C 	C 	0.11630 0.22140 0.29250 -0.18500
C 	C 	0.05190 0.28040 0.30850 0.16200
C 	C 	0.38030 0.09710 0.52170 0.10500
C 	C 	0.06910 0.74010 0.29750 0.10600
C 	C 	0.32050 0.13360 0.46760 -0.18900
C 	C 	0.21640 0.16330 0.48230 0.13000
C 	C 	0.15500 0.20220 0.42330 -0.09400
C 	C 	0.06790 0.66590 0.29770 -0.18200
C 	C 	0.08580 0.43410 0.28210 -0.17800
C 	C 	0.17340 0.15500 0.55370 -0.18400
C 	C 	0.23370 0.11960 0.60750 0.11400
C 	C 	0.16670 0.18300 0.34900 0.05600
C 	C 	0.08380 0.50790 0.28240 0.05800
C 	C 	0.03600 0.29980 0.38210 -0.19500
C 	C 	0.08660 0.26070 0.43920 0.05700
O 	O 	0.49480 0.02658 0.63231 -0.48800
O 	O 	0.07770 0.88950 0.28368 -0.52800
O 	O 	0.35980 0.04900 0.71458 -0.51200
H 	H 	0.25000 -0.00000 0.90882 0.19700
Zn	Zn	0.88961 0.00897 0.69758 1.24500
H 	H 	0.37400 0.79270 0.24330 0.10300
H 	H 	0.05050 0.92260 0.51030 -0.01100
H 	H 	0.38340 0.23540 0.32960 0.00300
H 	H 	0.14910 0.86160 0.42030 0.09300
H 	H 	0.38610 0.35850 0.33070 0.09200
H 	H 	0.35470 0.59010 0.30380 0.09500
H 	H 	0.39650 0.82640 0.56510 0.10000
H 	H 	0.29580 0.88470 0.65520 -0.01300
H 	H 	0.29030 0.85690 0.33700 -0.00600
H 	H 	0.35810 0.46760 0.30550 0.00500
H 	H 	0.50860 0.66090 0.39360 0.09400
H 	H 	0.42550 0.72620 0.48850 0.01300
C 	C 	0.09850 0.94760 0.65070 0.44600
C 	C 	0.16270 0.91000 0.59230 -0.21100
C 	C 	0.38370 0.77860 0.29250 -0.18300
C 	C 	0.44810 0.71960 0.30850 0.15700
C 	C 	0.11970 0.90290 0.52170 0.11600
C 	C 	0.43090 0.25990 0.29750 0.10500
C 	C 	0.17950 0.86640 0.46760 -0.21200
C 	C 	0.28360 0.83670 0.48230 0.13600
C 	C 	0.34500 0.79780 0.42330 -0.09500
C 	C 	0.43210 0.33410 0.29770 -0.18100
C 	C 	0.41420 0.56590 0.28210 -0.18100
C 	C 	0.32660 0.84500 0.55370 -0.20200
C 	C 	0.26630 0.88040 0.60750 0.12300
C 	C 	0.33330 0.81700 0.34900 0.05700
C 	C 	0.41620 0.49210 0.28240 0.06000
C 	C 	0.46400 0.70020 0.38210 -0.17200
C 	C 	0.41340 0.73930 0.43920 0.04900
O 	O 	0.00520 0.97342 0.63231 -0.54600
O 	O 	0.42230 0.11050 0.28368 -0.50800
O 	O 	0.14020 0.95100 0.71458 -0.55700
Zn	Zn	0.38961 0.99103 0.80242 1.20700
H 	H 	0.87400 0.20730 0.25670 0.10000
H 	H 	0.55050 0.07740 0.98970 0.01600
H 	H 	0.88340 0.76460 0.17040 0.00100
H 	H 	0.64910 0.13840 0.07970 0.09100
H 	H 	0.88610 0.64150 0.16930 0.09200
H 	H 	0.85470 0.40990 0.19620 0.09300
H 	H 	0.89650 0.17360 0.93490 0.09700
H 	H 	0.79580 0.11530 0.84480 0.00300
H 	H 	0.79030 0.14310 0.16300 0.00700
H 	H 	0.85810 0.53240 0.19450 0.00400
H 	H 	0.00860 0.33910 0.10640 0.07800
H 	H 	0.92550 0.27380 0.01150 0.02200
C 	C 	0.59850 0.05240 0.84930 0.43600
C 	C 	0.66270 0.09000 0.90770 -0.17700
C 	C 	0.88370 0.22140 0.20750 -0.17000
C 	C 	0.94810 0.28040 0.19150 0.15100
C 	C 	0.61970 0.09710 0.97830 0.10100
C 	C 	0.93090 0.74010 0.20250 0.11500
C 	C 	0.67950 0.13360 0.03240 -0.18400
C 	C 	0.78360 0.16330 0.01770 0.12200
C 	C 	0.84500 0.20220 0.07670 -0.07600
C 	C 	0.93210 0.66590 0.20230 -0.17300
C 	C 	0.91420 0.43410 0.21790 -0.16900
C 	C 	0.82660 0.15500 0.94630 -0.17700
C 	C 	0.76630 0.11960 0.89250 0.11100
C 	C 	0.83330 0.18300 0.15100 0.04300
C 	C 	0.91620 0.50790 0.21760 0.06600
C 	C 	0.96400 0.29980 0.11790 -0.14400
C 	C 	0.91340 0.26070 0.06080 0.02900
O 	O 	0.50520 0.02658 0.86769 -0.48800
O 	O 	0.92230 0.88950 0.21632 -0.52000
O 	O 	0.64020 0.04900 0.78542 -0.51200
H 	H 	0.75000 0.00000 0.59118 0.19800
Zn	Zn	0.11039 0.00897 0.80242 1.24200
H 	H 	0.62600 0.79270 0.25670 0.10300
H 	H 	0.94950 0.92260 0.98970 -0.00400
H 	H 	0.61660 0.23540 0.17040 0.00300
H 	H 	0.85090 0.86160 0.07970 0.09400
H 	H 	0.61390 0.35850 0.16930 0.09300
H 	H 	0.64530 0.59010 0.19620 0.09600
H 	H 	0.60350 0.82640 0.93490 0.09900
H 	H 	0.70420 0.88470 0.84480 -0.01200
H 	H 	0.70970 0.85690 0.16300 -0.00500
H 	H 	0.64190 0.46760 0.19450 0.00500
H 	H 	0.49140 0.66090 0.10640 0.09400
H 	H 	0.57450 0.72620 0.01150 0.01400
C 	C 	0.90150 0.94760 0.84930 0.44500
C 	C 	0.83730 0.91000 0.90770 -0.20600
C 	C 	0.61630 0.77860 0.20750 -0.18200
C 	C 	0.55190 0.71960 0.19150 0.15700
C 	C 	0.88030 0.90290 0.97830 0.11500
C 	C 	0.56910 0.25990 0.20250 0.10500
C 	C 	0.82050 0.86640 0.03240 -0.20800
C 	C 	0.71640 0.83670 0.01770 0.13500
C 	C 	0.65500 0.79780 0.07670 -0.09400
C 	C 	0.56790 0.33410 0.20230 -0.18100
C 	C 	0.58580 0.56590 0.21790 -0.18100
C 	C 	0.67340 0.84500 0.94630 -0.19900
C 	C 	0.73370 0.88040 0.89250 0.12100
C 	C 	0.66670 0.81700 0.15100 0.05700
C 	C 	0.58380 0.49210 0.21760 0.06000
C 	C 	0.53600 0.70020 0.11790 -0.17100
C 	C 	0.58660 0.73930 0.06080 0.04800
O 	O 	0.99480 0.97342 0.86769 -0.53400
O 	O 	0.57770 0.11050 0.21632 -0.50800
O 	O 	0.85980 0.95100 0.78542 -0.55300
Zn	Zn	0.38961 0.00897 0.30242 1.24400
H 	H 	0.87400 0.79270 0.75670 0.10300
H 	H 	0.55050 0.92260 0.48970 -0.00700
H 	H 	0.88340 0.23540 0.67040 0.00200
H 	H 	0.64910 0.86160 0.57970 0.09200
H 	H 	0.88610 0.35850 0.66930 0.09100
H 	H 	0.85470 0.59010 0.69620 0.09300
H 	H 	0.89650 0.82640 0.43490 0.10100
H 	H 	0.79580 0.88470 0.34480 -0.01100
H 	H 	0.79030 0.85690 0.66300 -0.00400
H 	H 	0.85810 0.46760 0.69450 0.00400
H 	H 	0.00860 0.66090 0.60640 0.07900
H 	H 	0.92550 0.72620 0.51150 0.02000
C 	C 	0.59850 0.94760 0.34930 0.44500
C 	C 	0.66270 0.91000 0.40770 -0.20800
C 	C 	0.88370 0.77860 0.70750 -0.17700
C 	C 	0.94810 0.71960 0.69150 0.15500
C 	C 	0.61970 0.90290 0.47830 0.11400
C 	C 	0.93090 0.25990 0.70250 0.11300
C 	C 	0.67950 0.86640 0.53240 -0.20700
C 	C 	0.78360 0.83670 0.51770 0.13300
C 	C 	0.84500 0.79780 0.57670 -0.08700
C 	C 	0.93210 0.33410 0.70230 -0.17100
C 	C 	0.91420 0.56590 0.71790 -0.16900
C 	C 	0.82660 0.84500 0.44630 -0.19800
C 	C 	0.76630 0.88040 0.39250 0.12100
C 	C 	0.83330 0.81700 0.65100 0.05200
C 	C 	0.91620 0.49210 0.71760 0.06700
C 	C 	0.96400 0.70020 0.61790 -0.14800
C 	C 	0.91340 0.73930 0.56080 0.03600
O 	O 	0.50520 0.97342 0.36769 -0.54000
O 	O 	0.92230 0.11050 0.71632 -0.49900
O 	O 	0.64020 0.95100 0.28542 -0.55500
H 	H 	0.75000 -0.00000 0.09118 0.19800
Zn	Zn	0.11039 0.99103 0.30242 1.20500
H 	H 	0.62600 0.20730 0.75670 0.10000
H 	H 	0.94950 0.07740 0.48970 0.01900
H 	H 	0.61660 0.76460 0.67040 0.00200
H 	H 	0.85090 0.13840 0.57970 0.09300
H 	H 	0.61390 0.64150 0.66930 0.09300
H 	H 	0.64530 0.40990 0.69620 0.09600
H 	H 	0.60350 0.17360 0.43490 0.09600
H 	H 	0.70420 0.11530 0.34480 0.00200
H 	H 	0.70970 0.14310 0.66300 0.00500
H 	H 	0.64190 0.53240 0.69450 0.00500
H 	H 	0.49140 0.33910 0.60640 0.09200
H 	H 	0.57450 0.27380 0.51150 0.01600
C 	C 	0.90150 0.05240 0.34930 0.43600
C 	C 	0.83730 0.09000 0.40770 -0.17600
C 	C 	0.61630 0.22140 0.70750 -0.17400
C 	C 	0.55190 0.28040 0.69150 0.15200
C 	C 	0.88030 0.09710 0.47830 0.10200
C 	C 	0.56910 0.74010 0.70250 0.10700
C 	C 	0.82050 0.13360 0.53240 -0.18400
C 	C 	0.71640 0.16330 0.51770 0.12500
C 	C 	0.65500 0.20220 0.57670 -0.08300
C 	C 	0.56790 0.66590 0.70230 -0.18200
C 	C 	0.58580 0.43410 0.71790 -0.18100
C 	C 	0.67340 0.15500 0.44630 -0.17900
C 	C 	0.73370 0.11960 0.39250 0.11100
C 	C 	0.66670 0.18300 0.65100 0.04700
C 	C 	0.58380 0.50790 0.71760 0.06000
C 	C 	0.53600 0.29980 0.61790 -0.16600
C 	C 	0.58660 0.26070 0.56080 0.04000
O 	O 	0.99480 0.02658 0.36769 -0.48300
O 	O 	0.57770 0.88950 0.71632 -0.52900
O 	O 	0.85980 0.04900 0.28542 -0.51100
Zn	Zn	0.61039 0.00897 0.19758 1.24400
H 	H 	0.12600 0.79270 0.74330 0.10500
H 	H 	0.44950 0.92260 0.01030 -0.00800
H 	H 	0.11660 0.23540 0.82960 0.00300
H 	H 	0.35090 0.86160 0.92030 0.09500
H 	H 	0.11390 0.35850 0.83070 0.09100
H 	H 	0.14530 0.59010 0.80380 0.09400
H 	H 	0.10350 0.82640 0.06510 0.09900
H 	H 	0.20420 0.88470 0.15520 -0.01300
H 	H 	0.20970 0.85690 0.83700 -0.00900
H 	H 	0.14190 0.46760 0.80550 0.00500
H 	H 	0.99140 0.66090 0.89360 0.11200
H 	H 	0.07450 0.72620 0.98850 0.00500
C 	C 	0.40150 0.94760 0.15070 0.44600
C 	C 	0.33730 0.91000 0.09230 -0.21000
C 	C 	0.11630 0.77860 0.79250 -0.19300
C 	C 	0.05190 0.71960 0.80850 0.16700
C 	C 	0.38030 0.90290 0.02170 0.11800
C 	C 	0.06910 0.25990 0.79750 0.10400
C 	C 	0.32050 0.86640 0.96760 -0.21300
C 	C 	0.21640 0.83670 0.98230 0.13900
C 	C 	0.15500 0.79780 0.92330 -0.10500
C 	C 	0.06790 0.33410 0.79770 -0.18000
C 	C 	0.08580 0.56590 0.78210 -0.17800
C 	C 	0.17340 0.84500 0.05370 -0.20400
C 	C 	0.23370 0.88040 0.10750 0.12300
C 	C 	0.16670 0.81700 0.84900 0.06600
C 	C 	0.08380 0.49210 0.78240 0.05800
C 	C 	0.03600 0.70020 0.88210 -0.20200
C 	C 	0.08660 0.73930 0.93920 0.06500
O 	O 	0.49480 0.97342 0.13231 -0.54000
O 	O 	0.07770 0.11050 0.78368 -0.50700
O 	O 	0.35980 0.95100 0.21458 -0.55500
H 	H 	0.25000 0.00000 0.40882 0.19700
Zn	Zn	0.88961 0.99103 0.19758 1.20800
H 	H 	0.37400 0.20730 0.74330 0.10000
H 	H 	0.05050 0.07740 0.01030 0.01200
H 	H 	0.38340 0.76460 0.82960 0.00200
H 	H 	0.14910 0.13840 0.92030 0.09200
H 	H 	0.38610 0.64150 0.83070 0.09300
H 	H 	0.35470 0.40990 0.80380 0.09500
H 	H 	0.39650 0.17360 0.06510 0.09600
H 	H 	0.29580 0.11530 0.15520 0.00100
H 	H 	0.29030 0.14310 0.83700 0.00500
H 	H 	0.35810 0.53240 0.80550 0.00500
H 	H 	0.50860 0.33910 0.89360 0.09200
H 	H 	0.42550 0.27380 0.98850 0.01500
C 	C 	0.09850 0.05240 0.15070 0.43700
C 	C 	0.16270 0.09000 0.09230 -0.18100
C 	C 	0.38370 0.22140 0.79250 -0.17500
C 	C 	0.44810 0.28040 0.80850 0.15200
C 	C 	0.11970 0.09710 0.02170 0.10500
C 	C 	0.43090 0.74010 0.79750 0.10700
C 	C 	0.17950 0.13360 0.96760 -0.18900
C 	C 	0.28360 0.16330 0.98230 0.12600
C 	C 	0.34500 0.20220 0.92330 -0.08400
C 	C 	0.43210 0.66590 0.79770 -0.18200
C 	C 	0.41420 0.43410 0.78210 -0.18100
C 	C 	0.32660 0.15500 0.05370 -0.18200
C 	C 	0.26630 0.11960 0.10750 0.11400
C 	C 	0.33330 0.18300 0.84900 0.04800
C 	C 	0.41620 0.50790 0.78240 0.06000
C 	C 	0.46400 0.29980 0.88210 -0.16700
C 	C 	0.41340 0.26070 0.93920 0.04100
O 	O 	0.00520 0.02658 0.13231 -0.49400
O 	O 	0.42230 0.88950 0.78368 -0.52900
O 	O 	0.14020 0.04900 0.21458 -0.51400
C 	C 	0.00000 0.39580 0.25000 0.14800
C 	C 	-0.00000 0.62680 0.25000 0.12100
C 	C 	0.00000 0.85870 0.25000 0.43300
C 	C 	0.00000 0.54710 0.25000 -0.10300
C 	C 	0.00000 0.77820 0.25000 -0.19300
N 	N 	0.00000 0.31960 0.25000 -0.18700
C 	C 	0.50000 0.60420 0.25000 0.16000
C 	C 	0.50000 0.37320 0.25000 0.12800
C 	C 	0.50000 0.14130 0.25000 0.43900
C 	C 	0.50000 0.45290 0.25000 -0.09600
C 	C 	0.50000 0.22180 0.25000 -0.18200
N 	N 	0.50000 0.68040 0.25000 -0.18500
C 	C 	0.00000 0.60420 0.75000 0.14800
C 	C 	0.00000 0.37320 0.75000 0.11900
C 	C 	0.00000 0.14130 0.75000 0.42900
C 	C 	0.00000 0.45290 0.75000 -0.10300
C 	C 	0.00000 0.22180 0.75000 -0.19100
N 	N 	0.00000 0.68040 0.75000 -0.18800
C 	C 	0.50000 0.39580 0.75000 0.16000
C 	C 	0.50000 0.62680 0.75000 0.12900
C 	C 	0.50000 0.85870 0.75000 0.44200
C 	C 	0.50000 0.54710 0.75000 -0.09600
C 	C 	0.50000 0.77820 0.75000 -0.18600
N 	N 	0.50000 0.31960 0.75000 -0.18300
O 	O 	0.75000 -0.00000 0.64680 -0.63300
O 	O 	0.25000 0.00000 0.85320 -0.63400
O 	O 	0.25000 -0.00000 0.35320 -0.63400
O 	O 	0.75000 0.00000 0.14680 -0.63300
