data_crystal

_cell_length_a 13.55360
_cell_length_b 19.04630
_cell_length_c 25.82560
_cell_angle_alpha 90.00000
_cell_angle_beta  96.64110
_cell_angle_gamma 90.00000

_symmetry_space_group_name_	'P 1'
_symmetry_space_group_name_H-M	'P 1'

loop_
_symmetry_equiv_pos_as_xyz
  x,y,z

loop_
_atom_site_label
_atom_site_type_symbol
_atom_site_fract_x
_atom_site_fract_y
_atom_site_fract_z
_atom_site_charge
V 	V 	0.84681 0.76456 0.02995 1.72600
V 	V 	0.87083 0.65092 0.12856 1.73500
V 	V 	0.69375 0.51760 0.12549 1.73900
V 	V 	0.28299 0.62323 0.94194 1.82900
V 	V 	0.45519 0.71366 0.89729 1.73800
V 	V 	0.63894 0.82989 0.95420 1.63700
V 	V 	0.65319 0.26456 0.47005 1.72700
V 	V 	0.62917 0.15092 0.37144 1.73600
V 	V 	0.80625 0.01760 0.37451 1.74000
V 	V 	0.21701 0.12323 0.55806 1.82900
V 	V 	0.04481 0.21366 0.60271 1.73600
V 	V 	0.86106 0.32989 0.54580 1.63600
V 	V 	0.15319 0.23544 0.97005 1.72500
V 	V 	0.12917 0.34908 0.87144 1.73400
V 	V 	0.30625 0.48240 0.87451 1.73800
V 	V 	0.71701 0.37677 0.05806 1.82800
V 	V 	0.54481 0.28634 0.10271 1.73700
V 	V 	0.36106 0.17011 0.04580 1.63600
V 	V 	0.34681 0.73544 0.52995 1.72600
V 	V 	0.37083 0.84908 0.62856 1.73500
V 	V 	0.19375 0.98240 0.62549 1.73900
V 	V 	0.78299 0.87677 0.44194 1.82800
V 	V 	0.95519 0.78634 0.39729 1.73600
V 	V 	0.13894 0.67011 0.45420 1.63600
Ni	Ni	0.03910 0.67444 0.97860 1.02700
Ni	Ni	0.53665 0.44251 0.95723 1.11700
Ni	Ni	0.10570 0.28598 0.73580 1.09900
Ni	Ni	0.46090 0.17444 0.52140 1.02800
Ni	Ni	0.96335 0.94251 0.54277 1.11600
Ni	Ni	0.39430 0.78598 0.76420 1.10000
Ni	Ni	0.96090 0.32556 0.02140 1.02700
Ni	Ni	0.46335 0.55749 0.04277 1.11700
Ni	Ni	0.89430 0.71402 0.26420 1.09900
Ni	Ni	0.53910 0.82556 0.47860 1.02800
Ni	Ni	0.03665 0.05749 0.45723 1.11600
Ni	Ni	0.60570 0.21402 0.23580 1.10000
H 	H 	0.19640 0.77720 0.96060 -0.02400
H 	H 	0.21810 0.88740 0.92810 0.04700
H 	H 	0.92090 0.90280 0.89170 0.02500
H 	H 	0.90670 0.79020 0.92500 -0.07100
H 	H 	0.01860 0.99540 0.86560 0.01800
H 	H 	0.11090 0.01220 0.90590 -0.01400
H 	H 	0.12680 0.94370 0.81080 0.09200
H 	H 	0.21710 0.96860 0.85030 0.08800
H 	H 	0.21520 0.21130 0.82790 -0.02500
H 	H 	0.23180 0.10350 0.86700 0.05500
H 	H 	0.04980 0.02540 0.74700 0.07000
H 	H 	0.03810 0.13600 0.71120 -0.08700
H 	H 	0.25550 0.21650 0.67390 -0.05300
H 	H 	0.42340 0.21550 0.66560 0.10000
H 	H 	0.46490 0.35150 0.78340 0.09000
H 	H 	0.29660 0.35330 0.78620 -0.08300
H 	H 	0.59030 0.33880 0.71100 0.07300
H 	H 	0.58440 0.26450 0.68490 0.07800
H 	H 	0.62780 0.28550 0.79350 0.07200
H 	H 	0.62510 0.21170 0.76650 0.07000
H 	H 	0.96870 0.24570 0.81800 -0.08700
H 	H 	0.80360 0.23570 0.82840 0.06800
H 	H 	0.73800 0.29990 0.68050 0.05900
H 	H 	0.90500 0.30780 0.67430 -0.09600
H 	H 	0.08230 0.56840 0.89710 -0.04900
H 	H 	0.01560 0.51900 0.82040 0.04500
H 	H 	0.77110 0.63480 0.82820 0.07500
H 	H 	0.84320 0.68050 0.90510 -0.04500
H 	H 	0.77840 0.56400 0.75120 0.06700
H 	H 	0.88370 0.54070 0.73800 0.06600
H 	H 	0.87110 0.43350 0.78180 0.04600
H 	H 	0.77620 0.44140 0.74110 0.05300
H 	H 	0.51970 0.47630 0.84250 -0.08400
H 	H 	0.61470 0.47880 0.77440 0.08000
H 	H 	0.85290 0.43000 0.87450 0.02900
H 	H 	0.75280 0.43130 0.94040 -0.04400
H 	H 	0.66260 0.31440 0.94600 -0.03800
H 	H 	0.64880 0.19770 0.92290 0.04900
H 	H 	0.35330 0.21950 0.90820 0.05400
H 	H 	0.37420 0.33460 0.93170 -0.05000
H 	H 	0.42910 0.09900 0.91620 -0.02000
H 	H 	0.54390 0.09150 0.91470 -0.00500
H 	H 	0.41450 0.13510 0.82760 0.10200
H 	H 	0.52760 0.11880 0.82720 0.09300
H 	H 	0.46890 0.86840 0.86430 -0.09400
H 	H 	0.50390 0.98050 0.89230 0.03400
H 	H 	0.36620 0.05100 0.75710 0.09100
H 	H 	0.34300 0.93700 0.73080 -0.09200
H 	H 	0.53110 0.57800 0.94810 0.09300
H 	H 	0.61200 0.57400 0.98400 0.17900
H 	H 	0.30360 0.27720 0.53940 -0.02400
H 	H 	0.28190 0.38740 0.57190 0.04700
H 	H 	0.57910 0.40280 0.60830 0.02600
H 	H 	0.59330 0.29020 0.57500 -0.07100
H 	H 	0.48140 0.49540 0.63440 0.02000
H 	H 	0.38910 0.51220 0.59410 -0.00900
H 	H 	0.37320 0.44370 0.68920 0.09100
H 	H 	0.28290 0.46860 0.64970 0.08700
H 	H 	0.28480 0.71130 0.67210 -0.02500
H 	H 	0.26820 0.60350 0.63300 0.05500
H 	H 	0.45020 0.52540 0.75300 0.07200
H 	H 	0.46190 0.63600 0.78880 -0.08700
H 	H 	0.24450 0.71650 0.82610 -0.05300
H 	H 	0.07660 0.71550 0.83440 0.09900
H 	H 	0.03510 0.85150 0.71660 0.09000
H 	H 	0.20340 0.85330 0.71380 -0.08300
H 	H 	0.90970 0.83880 0.78900 0.07200
H 	H 	0.91560 0.76450 0.81510 0.07700
H 	H 	0.87220 0.78550 0.70650 0.07200
H 	H 	0.87490 0.71170 0.73350 0.07000
H 	H 	0.53130 0.74570 0.68200 -0.08900
H 	H 	0.69640 0.73570 0.67160 0.06800
H 	H 	0.76200 0.79990 0.81950 0.05900
H 	H 	0.59500 0.80780 0.82570 -0.09700
H 	H 	0.41770 0.06840 0.60290 -0.05300
H 	H 	0.48440 0.01900 0.67960 0.05300
H 	H 	0.72890 0.13480 0.67180 0.07700
H 	H 	0.65680 0.18050 0.59490 -0.04700
H 	H 	0.72160 0.06400 0.74880 0.07000
H 	H 	0.61630 0.04070 0.76200 0.06800
H 	H 	0.62890 0.93350 0.71820 0.04400
H 	H 	0.72380 0.94140 0.75890 0.05200
H 	H 	0.98030 0.97630 0.65750 -0.08400
H 	H 	0.88530 0.97880 0.72560 0.07900
H 	H 	0.64710 0.93000 0.62550 0.02800
H 	H 	0.74720 0.93130 0.55960 -0.04500
H 	H 	0.83740 0.81440 0.55400 -0.03800
H 	H 	0.85120 0.69770 0.57710 0.04800
H 	H 	0.14670 0.71950 0.59180 0.05500
H 	H 	0.12580 0.83460 0.56830 -0.05000
H 	H 	0.07090 0.59900 0.58380 -0.02000
H 	H 	0.95610 0.59150 0.58530 -0.00500
H 	H 	0.08550 0.63510 0.67240 0.10300
H 	H 	0.97240 0.61880 0.67280 0.09400
H 	H 	0.03110 0.36840 0.63570 -0.09500
H 	H 	0.99610 0.48050 0.60770 0.03700
H 	H 	0.13380 0.55100 0.74290 0.09100
H 	H 	0.15700 0.43700 0.76920 -0.09200
H 	H 	0.96890 0.07800 0.55190 0.09400
H 	H 	0.88800 0.07400 0.51600 0.17900
H 	H 	0.80360 0.22280 0.03940 -0.02400
H 	H 	0.78190 0.11260 0.07190 0.04700
H 	H 	0.07910 0.09720 0.10830 0.02500
H 	H 	0.09330 0.20980 0.07500 -0.07100
H 	H 	0.98140 0.00460 0.13440 0.01800
H 	H 	0.88910 0.98780 0.09410 -0.01400
H 	H 	0.87320 0.05630 0.18920 0.09200
H 	H 	0.78290 0.03140 0.14970 0.08800
H 	H 	0.78480 0.78870 0.17210 -0.02500
H 	H 	0.76820 0.89650 0.13300 0.05500
H 	H 	0.95020 0.97460 0.25300 0.07000
H 	H 	0.96190 0.86400 0.28880 -0.08700
H 	H 	0.74450 0.78350 0.32610 -0.05300
H 	H 	0.57660 0.78450 0.33440 0.10000
H 	H 	0.53510 0.64850 0.21660 0.09000
H 	H 	0.70340 0.64670 0.21380 -0.08300
H 	H 	0.40970 0.66120 0.28900 0.07300
H 	H 	0.41560 0.73550 0.31510 0.07800
H 	H 	0.37220 0.71450 0.20650 0.07200
H 	H 	0.37490 0.78830 0.23350 0.07000
H 	H 	0.03130 0.75430 0.18200 -0.08700
H 	H 	0.19640 0.76430 0.17160 0.06800
H 	H 	0.26200 0.70010 0.31950 0.05900
H 	H 	0.09500 0.69220 0.32570 -0.09600
H 	H 	0.91770 0.43160 0.10290 -0.04900
H 	H 	0.98440 0.48100 0.17960 0.04500
H 	H 	0.22890 0.36520 0.17180 0.07500
H 	H 	0.15680 0.31950 0.09490 -0.04500
H 	H 	0.22160 0.43600 0.24880 0.06700
H 	H 	0.11630 0.45930 0.26200 0.06600
H 	H 	0.12890 0.56650 0.21820 0.04600
H 	H 	0.22380 0.55860 0.25890 0.05300
H 	H 	0.48030 0.52370 0.15750 -0.08400
H 	H 	0.38530 0.52120 0.22560 0.08000
H 	H 	0.14710 0.57000 0.12550 0.02900
H 	H 	0.24720 0.56870 0.05960 -0.04400
H 	H 	0.33740 0.68560 0.05400 -0.03800
H 	H 	0.35120 0.80230 0.07710 0.04900
H 	H 	0.64670 0.78050 0.09180 0.05400
H 	H 	0.62580 0.66540 0.06830 -0.05000
H 	H 	0.57090 0.90100 0.08380 -0.02000
H 	H 	0.45610 0.90850 0.08530 -0.00500
H 	H 	0.58550 0.86490 0.17240 0.10200
H 	H 	0.47240 0.88120 0.17280 0.09300
H 	H 	0.53110 0.13160 0.13570 -0.09400
H 	H 	0.49610 0.01950 0.10770 0.03400
H 	H 	0.63380 0.94900 0.24290 0.09100
H 	H 	0.65700 0.06300 0.26920 -0.09200
H 	H 	0.46890 0.42200 0.05190 0.09300
H 	H 	0.38800 0.42600 0.01600 0.17900
H 	H 	0.69640 0.72280 0.46060 -0.02400
H 	H 	0.71810 0.61260 0.42810 0.04700
H 	H 	0.42090 0.59720 0.39170 0.02600
H 	H 	0.40670 0.70980 0.42500 -0.07100
H 	H 	0.51860 0.50460 0.36560 0.02000
H 	H 	0.61090 0.48780 0.40590 -0.00900
H 	H 	0.62680 0.55630 0.31080 0.09100
H 	H 	0.71710 0.53140 0.35030 0.08700
H 	H 	0.71520 0.28870 0.32790 -0.02500
H 	H 	0.73180 0.39650 0.36700 0.05500
H 	H 	0.54980 0.47460 0.24700 0.07200
H 	H 	0.53810 0.36400 0.21120 -0.08700
H 	H 	0.75550 0.28350 0.17390 -0.05300
H 	H 	0.92340 0.28450 0.16560 0.09900
H 	H 	0.96490 0.14850 0.28340 0.09000
H 	H 	0.79660 0.14670 0.28620 -0.08300
H 	H 	0.09030 0.16120 0.21100 0.07200
H 	H 	0.08440 0.23550 0.18490 0.07700
H 	H 	0.12780 0.21450 0.29350 0.07200
H 	H 	0.12510 0.28830 0.26650 0.07000
H 	H 	0.46870 0.25430 0.31800 -0.08900
H 	H 	0.30360 0.26430 0.32840 0.06800
H 	H 	0.23800 0.20010 0.18050 0.05900
H 	H 	0.40500 0.19220 0.17430 -0.09700
H 	H 	0.58230 0.93160 0.39710 -0.05300
H 	H 	0.51560 0.98100 0.32040 0.05300
H 	H 	0.27110 0.86520 0.32820 0.07700
H 	H 	0.34320 0.81950 0.40510 -0.04700
H 	H 	0.27840 0.93600 0.25120 0.07000
H 	H 	0.38370 0.95930 0.23800 0.06800
H 	H 	0.37110 0.06650 0.28180 0.04400
H 	H 	0.27620 0.05860 0.24110 0.05200
H 	H 	0.01970 0.02370 0.34250 -0.08400
H 	H 	0.11470 0.02120 0.27440 0.07900
H 	H 	0.35290 0.07000 0.37450 0.02800
H 	H 	0.25280 0.06870 0.44040 -0.04500
H 	H 	0.16260 0.18560 0.44600 -0.03800
H 	H 	0.14880 0.30230 0.42290 0.04800
H 	H 	0.85330 0.28050 0.40820 0.05500
H 	H 	0.87420 0.16540 0.43170 -0.05000
H 	H 	0.92910 0.40100 0.41620 -0.02000
H 	H 	0.04390 0.40850 0.41470 -0.00500
H 	H 	0.91450 0.36490 0.32760 0.10300
H 	H 	0.02760 0.38120 0.32720 0.09400
H 	H 	0.96890 0.63160 0.36430 -0.09500
H 	H 	0.00390 0.51950 0.39230 0.03700
H 	H 	0.86620 0.44900 0.25710 0.09100
H 	H 	0.84300 0.56300 0.23080 -0.09200
H 	H 	0.03110 0.92200 0.44810 0.09400
H 	H 	0.11200 0.92600 0.48400 0.17900
C 	C 	0.14110 0.80260 0.94650 0.03500
C 	C 	0.15450 0.86880 0.92700 -0.14000
C 	C 	0.07290 0.90800 0.90550 0.04300
C 	C 	0.97720 0.87810 0.90510 -0.15200
C 	C 	0.96930 0.81040 0.92550 0.01800
C 	C 	0.08410 0.97890 0.87950 -0.05500
C 	C 	0.14910 0.97920 0.83650 -0.23900
C 	C 	0.18139 0.17330 0.81159 0.07300
C 	C 	0.19225 0.10850 0.83535 -0.21000
C 	C 	0.14362 0.05070 0.81162 0.14500
C 	C 	0.08435 0.06240 0.76415 -0.23900
C 	C 	0.07722 0.12925 0.74282 0.10800
C 	C 	0.29788 0.24520 0.69548 0.12200
C 	C 	0.39925 0.24410 0.69045 -0.22000
C 	C 	0.46394 0.28590 0.72284 0.16900
C 	C 	0.42376 0.32490 0.75966 -0.24100
C 	C 	0.32221 0.32490 0.76171 0.13400
C 	C 	0.57292 0.29010 0.71612 -0.18500
C 	C 	0.64079 0.26090 0.76209 -0.16600
C 	C 	0.92157 0.25690 0.79007 0.09700
C 	C 	0.82224 0.25090 0.79674 -0.22000
C 	C 	0.75036 0.26750 0.75586 0.13900
C 	C 	0.78343 0.28890 0.70913 -0.21900
C 	C 	0.88425 0.29340 0.70575 0.09900
C 	C 	0.01901 0.58210 0.88291 0.05700
C 	C 	0.97939 0.55230 0.83659 -0.18000
C 	C 	0.88492 0.57180 0.81372 0.13000
C 	C 	0.83474 0.62070 0.84124 -0.19700
C 	C 	0.87871 0.64810 0.88761 0.09200
C 	C 	0.83797 0.53830 0.76417 -0.18000
C 	C 	0.81080 0.46060 0.77300 -0.14800
C 	C 	0.58745 0.46740 0.84905 0.09500
C 	C 	0.64443 0.46860 0.80783 -0.20100
C 	C 	0.74608 0.45450 0.81618 0.12000
C 	C 	0.78569 0.44000 0.86699 -0.17700
C 	C 	0.72457 0.44050 0.90657 0.07500
C 	C 	0.59959 0.29500 0.93839 0.05500
C 	C 	0.59186 0.22450 0.92466 -0.15500
C 	C 	0.49875 0.19430 0.91365 0.04800
C 	C 	0.41712 0.23740 0.91602 -0.18300
C 	C 	0.43026 0.30685 0.92996 0.06100
C 	C 	0.48529 0.11720 0.90029 -0.05200
C 	C 	0.46833 0.10500 0.84233 -0.25700
C 	C 	0.45148 0.90550 0.84168 0.10400
C 	C 	0.47147 0.97300 0.85897 -0.23600
C 	C 	0.44340 0.03010 0.82690 0.17200
C 	C 	0.39129 0.01490 0.77899 -0.25100
C 	C 	0.37658 0.94579 0.76368 0.12800
C 	C 	0.35890 0.30260 0.55350 0.03600
C 	C 	0.34550 0.36880 0.57300 -0.14300
C 	C 	0.42710 0.40800 0.59450 0.04700
C 	C 	0.52280 0.37810 0.59490 -0.15500
C 	C 	0.53070 0.31040 0.57450 0.01700
C 	C 	0.41590 0.47890 0.62050 -0.06300
C 	C 	0.35090 0.47920 0.66350 -0.23900
C 	C 	0.31861 0.67330 0.68841 0.07400
C 	C 	0.30775 0.60850 0.66465 -0.21100
C 	C 	0.35638 0.55070 0.68838 0.14700
C 	C 	0.41565 0.56240 0.73585 -0.24000
C 	C 	0.42278 0.62925 0.75718 0.10900
C 	C 	0.20212 0.74520 0.80452 0.12200
C 	C 	0.10075 0.74410 0.80955 -0.21900
C 	C 	0.03606 0.78590 0.77716 0.16700
C 	C 	0.07624 0.82490 0.74034 -0.24000
C 	C 	0.17779 0.82490 0.73829 0.13400
C 	C 	0.92708 0.79010 0.78388 -0.18200
C 	C 	0.85921 0.76090 0.73791 -0.16700
C 	C 	0.57843 0.75690 0.70993 0.09700
C 	C 	0.67776 0.75090 0.70326 -0.22100
C 	C 	0.74964 0.76750 0.74414 0.13900
C 	C 	0.71657 0.78890 0.79087 -0.22000
C 	C 	0.61575 0.79340 0.79425 0.09900
C 	C 	0.48099 0.08210 0.61709 0.07200
C 	C 	0.52061 0.05230 0.66341 -0.19900
C 	C 	0.61508 0.07180 0.68628 0.13900
C 	C 	0.66526 0.12070 0.65876 -0.20300
C 	C 	0.62129 0.14810 0.61239 0.09600
C 	C 	0.66203 0.03830 0.73583 -0.18600
C 	C 	0.68920 0.96060 0.72700 -0.14400
C 	C 	0.91255 0.96740 0.65095 0.09500
C 	C 	0.85557 0.96860 0.69217 -0.20000
C 	C 	0.75392 0.95450 0.68382 0.11900
C 	C 	0.71431 0.94000 0.63301 -0.17600
C 	C 	0.77543 0.94050 0.59343 0.07400
C 	C 	0.90041 0.79500 0.56161 0.05500
C 	C 	0.90814 0.72450 0.57534 -0.15500
C 	C 	0.00125 0.69430 0.58635 0.04800
C 	C 	0.08288 0.73740 0.58398 -0.18400
C 	C 	0.06974 0.80685 0.57004 0.06300
C 	C 	0.01471 0.61720 0.59971 -0.05100
C 	C 	0.03167 0.60500 0.65767 -0.26000
C 	C 	0.04852 0.40550 0.65832 0.10600
C 	C 	0.02853 0.47300 0.64103 -0.24200
C 	C 	0.05660 0.53010 0.67310 0.17500
C 	C 	0.10871 0.51490 0.72101 -0.25100
C 	C 	0.12342 0.44579 0.73632 0.12700
C 	C 	0.85890 0.19740 0.05350 0.03500
C 	C 	0.84550 0.13120 0.07300 -0.14000
C 	C 	0.92710 0.09200 0.09450 0.04300
C 	C 	0.02280 0.12190 0.09490 -0.15200
C 	C 	0.03070 0.18960 0.07450 0.01800
C 	C 	0.91590 0.02110 0.12050 -0.05500
C 	C 	0.85090 0.02080 0.16350 -0.23900
C 	C 	0.81861 0.82670 0.18841 0.07300
C 	C 	0.80775 0.89150 0.16465 -0.21000
C 	C 	0.85638 0.94930 0.18838 0.14500
C 	C 	0.91565 0.93760 0.23585 -0.23900
C 	C 	0.92278 0.87075 0.25718 0.10800
C 	C 	0.70212 0.75480 0.30452 0.12200
C 	C 	0.60075 0.75590 0.30955 -0.22000
C 	C 	0.53606 0.71410 0.27716 0.16900
C 	C 	0.57624 0.67510 0.24034 -0.24100
C 	C 	0.67779 0.67510 0.23829 0.13400
C 	C 	0.42708 0.70990 0.28388 -0.18500
C 	C 	0.35921 0.73910 0.23791 -0.16600
C 	C 	0.07843 0.74310 0.20993 0.09700
C 	C 	0.17776 0.74910 0.20326 -0.22000
C 	C 	0.24964 0.73250 0.24414 0.13900
C 	C 	0.21657 0.71110 0.29087 -0.21900
C 	C 	0.11575 0.70660 0.29425 0.09900
C 	C 	0.98099 0.41790 0.11709 0.05700
C 	C 	0.02061 0.44770 0.16341 -0.18000
C 	C 	0.11508 0.42820 0.18628 0.13000
C 	C 	0.16526 0.37930 0.15876 -0.19700
C 	C 	0.12129 0.35190 0.11239 0.09200
C 	C 	0.16203 0.46170 0.23583 -0.18000
C 	C 	0.18920 0.53940 0.22700 -0.14800
C 	C 	0.41255 0.53260 0.15095 0.09500
C 	C 	0.35557 0.53140 0.19217 -0.20100
C 	C 	0.25392 0.54550 0.18382 0.12000
C 	C 	0.21431 0.56000 0.13301 -0.17700
C 	C 	0.27543 0.55950 0.09343 0.07500
C 	C 	0.40041 0.70500 0.06161 0.05500
C 	C 	0.40814 0.77550 0.07534 -0.15500
C 	C 	0.50125 0.80570 0.08635 0.04800
C 	C 	0.58288 0.76260 0.08398 -0.18300
C 	C 	0.56974 0.69315 0.07004 0.06100
C 	C 	0.51471 0.88280 0.09971 -0.05200
C 	C 	0.53167 0.89500 0.15767 -0.25700
C 	C 	0.54852 0.09450 0.15832 0.10400
C 	C 	0.52853 0.02700 0.14103 -0.23600
C 	C 	0.55660 0.96990 0.17310 0.17200
C 	C 	0.60871 0.98510 0.22101 -0.25100
C 	C 	0.62342 0.05421 0.23632 0.12800
C 	C 	0.64110 0.69740 0.44650 0.03600
C 	C 	0.65450 0.63120 0.42700 -0.14300
C 	C 	0.57290 0.59200 0.40550 0.04700
C 	C 	0.47720 0.62190 0.40510 -0.15500
C 	C 	0.46930 0.68960 0.42550 0.01700
C 	C 	0.58410 0.52110 0.37950 -0.06300
C 	C 	0.64910 0.52080 0.33650 -0.23900
C 	C 	0.68139 0.32670 0.31159 0.07400
C 	C 	0.69225 0.39150 0.33535 -0.21100
C 	C 	0.64362 0.44930 0.31162 0.14700
C 	C 	0.58435 0.43760 0.26415 -0.24000
C 	C 	0.57722 0.37075 0.24282 0.10900
C 	C 	0.79788 0.25480 0.19548 0.12200
C 	C 	0.89925 0.25590 0.19045 -0.21900
C 	C 	0.96394 0.21410 0.22284 0.16700
C 	C 	0.92376 0.17510 0.25966 -0.24000
C 	C 	0.82221 0.17510 0.26171 0.13400
C 	C 	0.07292 0.20990 0.21612 -0.18200
C 	C 	0.14079 0.23910 0.26209 -0.16700
C 	C 	0.42157 0.24310 0.29007 0.09700
C 	C 	0.32224 0.24910 0.29674 -0.22100
C 	C 	0.25036 0.23250 0.25586 0.13900
C 	C 	0.28343 0.21110 0.20913 -0.22000
C 	C 	0.38425 0.20660 0.20575 0.09900
C 	C 	0.51901 0.91790 0.38291 0.07200
C 	C 	0.47939 0.94770 0.33659 -0.19900
C 	C 	0.38492 0.92820 0.31372 0.13900
C 	C 	0.33474 0.87930 0.34124 -0.20300
C 	C 	0.37871 0.85190 0.38761 0.09600
C 	C 	0.33797 0.96170 0.26417 -0.18600
C 	C 	0.31080 0.03940 0.27300 -0.14400
C 	C 	0.08745 0.03260 0.34905 0.09500
C 	C 	0.14443 0.03140 0.30783 -0.20000
C 	C 	0.24608 0.04550 0.31618 0.11900
C 	C 	0.28569 0.06000 0.36699 -0.17600
C 	C 	0.22457 0.05950 0.40657 0.07400
C 	C 	0.09959 0.20500 0.43839 0.05500
C 	C 	0.09186 0.27550 0.42466 -0.15500
C 	C 	0.99875 0.30570 0.41365 0.04800
C 	C 	0.91712 0.26260 0.41602 -0.18400
C 	C 	0.93026 0.19315 0.42996 0.06300
C 	C 	0.98529 0.38280 0.40029 -0.05100
C 	C 	0.96833 0.39500 0.34233 -0.26000
C 	C 	0.95148 0.59450 0.34168 0.10600
C 	C 	0.97147 0.52700 0.35897 -0.24200
C 	C 	0.94340 0.46990 0.32690 0.17500
C 	C 	0.89129 0.48510 0.27899 -0.25100
C 	C 	0.87658 0.55421 0.26368 0.12700
N 	N 	0.05050 0.77340 0.94580 -0.25700
N 	N 	0.12453 0.18443 0.76603 -0.24900
N 	N 	0.25943 0.28592 0.73003 -0.25200
N 	N 	0.95348 0.27816 0.74528 -0.25500
N 	N 	0.97044 0.63012 0.90874 -0.24700
N 	N 	0.62694 0.45366 0.89834 -0.25100
N 	N 	0.52005 0.33633 0.94115 -0.25100
N 	N 	0.40779 0.89089 0.79339 -0.25100
N 	N 	0.44950 0.27340 0.55420 -0.25600
N 	N 	0.37547 0.68443 0.73397 -0.24900
N 	N 	0.24057 0.78592 0.76997 -0.25200
N 	N 	0.54652 0.77816 0.75472 -0.25700
N 	N 	0.52956 0.13012 0.59126 -0.25200
N 	N 	0.87306 0.95366 0.60166 -0.25100
N 	N 	0.97995 0.83633 0.55885 -0.25200
N 	N 	0.09221 0.39089 0.70661 -0.25200
N 	N 	0.94950 0.22660 0.05420 -0.25700
N 	N 	0.87547 0.81557 0.23397 -0.24900
N 	N 	0.74057 0.71408 0.26997 -0.25200
N 	N 	0.04652 0.72184 0.25472 -0.25500
N 	N 	0.02956 0.36988 0.09126 -0.24700
N 	N 	0.37306 0.54634 0.10166 -0.25100
N 	N 	0.47995 0.66367 0.05885 -0.25100
N 	N 	0.59221 0.10911 0.20661 -0.25100
N 	N 	0.55050 0.72660 0.44580 -0.25600
N 	N 	0.62453 0.31557 0.26603 -0.24900
N 	N 	0.75943 0.21408 0.23003 -0.25200
N 	N 	0.45348 0.22184 0.24528 -0.25700
N 	N 	0.47044 0.86988 0.40874 -0.25200
N 	N 	0.12694 0.04634 0.39834 -0.25100
N 	N 	0.02005 0.16367 0.44115 -0.25200
N 	N 	0.90779 0.60911 0.29339 -0.25200
O 	O 	0.42464 0.74609 0.83824 -0.74000
O 	O 	0.86961 0.67212 0.19033 -0.74500
O 	O 	0.53722 0.77201 0.93442 -0.92300
O 	O 	0.79028 0.57789 0.11008 -0.88100
O 	O 	0.73719 0.42916 0.11529 -0.87100
O 	O 	0.34972 0.57922 0.98842 -0.75500
O 	O 	0.59039 0.53453 0.08709 -0.77000
O 	O 	0.34269 0.70353 0.92819 -0.83600
O 	O 	0.17471 0.64213 0.96121 -0.73700
O 	O 	0.90297 0.70357 0.99727 -0.81000
O 	O 	0.73030 0.78240 0.99660 -0.94900
O 	O 	0.82649 0.72665 0.09189 -0.88200
O 	O 	0.55220 0.55184 0.97770 -0.64600
O 	O 	0.07536 0.24609 0.66176 -0.74100
O 	O 	0.63039 0.17212 0.30967 -0.74400
O 	O 	0.96278 0.27201 0.56558 -0.92200
O 	O 	0.70972 0.07789 0.38992 -0.88000
O 	O 	0.76281 0.92916 0.38471 -0.87100
O 	O 	0.15028 0.07922 0.51158 -0.75500
O 	O 	0.90961 0.03453 0.41291 -0.76900
O 	O 	0.15731 0.20353 0.57181 -0.83600
O 	O 	0.32529 0.14213 0.53879 -0.73600
O 	O 	0.59703 0.20357 0.50273 -0.81200
O 	O 	0.76970 0.28240 0.50340 -0.95100
O 	O 	0.67351 0.22665 0.40811 -0.88100
O 	O 	0.94780 0.05184 0.52230 -0.64500
O 	O 	0.57536 0.25391 0.16176 -0.74000
O 	O 	0.13039 0.32788 0.80967 -0.74500
O 	O 	0.46278 0.22799 0.06558 -0.92300
O 	O 	0.20972 0.42211 0.88992 -0.88100
O 	O 	0.26281 0.57084 0.88471 -0.87100
O 	O 	0.65028 0.42078 0.01158 -0.75500
O 	O 	0.40961 0.46547 0.91291 -0.77000
O 	O 	0.65731 0.29647 0.07181 -0.83600
O 	O 	0.82529 0.35787 0.03879 -0.73700
O 	O 	0.09703 0.29643 0.00273 -0.81000
O 	O 	0.26970 0.21760 0.00340 -0.94900
O 	O 	0.17351 0.27335 0.90811 -0.88200
O 	O 	0.44780 0.44816 0.02230 -0.64600
O 	O 	0.92464 0.75391 0.33824 -0.74100
O 	O 	0.36961 0.82788 0.69033 -0.74400
O 	O 	0.03722 0.72799 0.43442 -0.92200
O 	O 	0.29028 0.92211 0.61008 -0.88000
O 	O 	0.23719 0.07084 0.61529 -0.87100
O 	O 	0.84972 0.92078 0.48842 -0.75500
O 	O 	0.09039 0.96547 0.58709 -0.76900
O 	O 	0.84269 0.79647 0.42819 -0.83600
O 	O 	0.67471 0.85787 0.46121 -0.73600
O 	O 	0.40297 0.79643 0.49727 -0.81200
O 	O 	0.23030 0.71760 0.49660 -0.95100
O 	O 	0.32649 0.77335 0.59189 -0.88100
O 	O 	0.05220 0.94816 0.47770 -0.64500
