data_crystal

_cell_length_a 19.05180
_cell_length_b 19.05180
_cell_length_c 19.05180
_cell_angle_alpha 75.03690
_cell_angle_beta  75.03690
_cell_angle_gamma 75.03690

_symmetry_space_group_name_	'P 1'
_symmetry_space_group_name_H-M	'P 1'

loop_
_symmetry_equiv_pos_as_xyz
  x,y,z

loop_
_atom_site_label
_atom_site_type_symbol
_atom_site_fract_x
_atom_site_fract_y
_atom_site_fract_z
_atom_site_charge
Al	Al	0.23540 0.69610 0.53190 2.38900
Al	Al	0.33730 0.78030 0.43010 2.38700
Al	Al	0.53190 0.23540 0.69610 2.38900
Al	Al	0.43010 0.33730 0.78030 2.38600
Al	Al	0.69610 0.53190 0.23540 2.38800
Al	Al	0.78030 0.43010 0.33730 2.38600
Al	Al	0.76460 0.30390 0.46810 2.38800
Al	Al	0.66270 0.21970 0.56990 2.38600
Al	Al	0.46810 0.76460 0.30390 2.38800
Al	Al	0.56990 0.66270 0.21970 2.38600
Al	Al	0.30390 0.46810 0.76460 2.38800
Al	Al	0.21970 0.56990 0.66270 2.38600
C 	C 	0.13370 0.60070 0.55470 0.51800
C 	C 	0.08020 0.57410 0.53010 -0.13600
C 	C 	0.05510 0.61600 0.46500 0.03800
C 	C 	0.00900 0.58940 0.43570 -0.06000
C 	C 	0.98930 0.52170 0.47000 0.01200
C 	C 	0.05830 0.50670 0.56600 0.02300
C 	C 	0.99500 0.96100 0.52000 0.00500
C 	C 	0.12300 0.91700 0.47200 -0.14100
C 	C 	0.13660 0.98260 0.43060 0.02200
C 	C 	0.05320 0.90720 0.51920 0.01800
C 	C 	0.07370 0.04770 0.43470 -0.10100
C 	C 	0.18700 0.85000 0.47200 0.55600
C 	C 	0.31760 0.64860 0.40660 0.07600
C 	C 	0.21720 0.72020 0.67420 0.04400
C 	C 	0.29300 0.54660 0.52180 0.01300
C 	C 	0.36650 0.70550 0.56450 0.10700
C 	C 	0.55470 0.13370 0.60070 0.51800
C 	C 	0.53010 0.08020 0.57410 -0.13600
C 	C 	0.46500 0.05510 0.61600 0.03700
C 	C 	0.43570 0.00900 0.58940 -0.05700
C 	C 	0.47000 0.98930 0.52170 0.00800
C 	C 	0.56600 0.05830 0.50670 0.02200
C 	C 	0.52000 0.99500 0.96100 0.00800
C 	C 	0.47200 0.12300 0.91700 -0.14400
C 	C 	0.43060 0.13660 0.98260 0.04300
C 	C 	0.51920 0.05320 0.90720 0.01900
C 	C 	0.43470 0.07370 0.04770 -0.05600
C 	C 	0.47200 0.18700 0.85000 0.56000
C 	C 	0.40660 0.31760 0.64860 0.08900
C 	C 	0.67420 0.21720 0.72020 0.04400
C 	C 	0.52180 0.29300 0.54660 0.01400
C 	C 	0.56450 0.36650 0.70550 0.08000
C 	C 	0.60070 0.55470 0.13370 0.51800
C 	C 	0.57410 0.53010 0.08020 -0.13600
C 	C 	0.61600 0.46500 0.05510 0.03700
C 	C 	0.58940 0.43570 0.00900 -0.05700
C 	C 	0.52170 0.47000 0.98930 0.00900
C 	C 	0.50670 0.56600 0.05830 0.02200
C 	C 	0.96100 0.52000 0.99500 0.00800
C 	C 	0.91700 0.47200 0.12300 -0.14400
C 	C 	0.98260 0.43060 0.13660 0.04400
C 	C 	0.90720 0.51920 0.05320 0.02000
C 	C 	0.04770 0.43470 0.07370 -0.05700
C 	C 	0.85000 0.47200 0.18700 0.56000
C 	C 	0.64860 0.40660 0.31760 0.06700
C 	C 	0.72020 0.67420 0.21720 0.04400
C 	C 	0.54660 0.52180 0.29300 0.01300
C 	C 	0.70550 0.56450 0.36650 0.10800
C 	C 	0.86630 0.39930 0.44530 0.51600
C 	C 	0.91980 0.42590 0.46990 -0.13500
C 	C 	0.94490 0.38400 0.53500 0.03500
C 	C 	0.99100 0.41060 0.56430 -0.05400
C 	C 	0.01070 0.47830 0.53000 0.00500
C 	C 	0.94170 0.49330 0.43400 0.02000
C 	C 	0.00500 0.03900 0.48000 0.01700
C 	C 	0.87700 0.08300 0.52800 -0.14100
C 	C 	0.86340 0.01740 0.56940 0.04100
C 	C 	0.94680 0.09280 0.48080 0.01200
C 	C 	0.92630 0.95230 0.56530 -0.05400
C 	C 	0.81300 0.15000 0.52800 0.55900
C 	C 	0.68240 0.35140 0.59340 0.07700
C 	C 	0.78280 0.27980 0.32580 0.07300
C 	C 	0.70700 0.45340 0.47820 0.04500
C 	C 	0.63350 0.29450 0.43550 0.07500
C 	C 	0.44530 0.86630 0.39930 0.51600
C 	C 	0.46990 0.91980 0.42590 -0.13500
C 	C 	0.53500 0.94490 0.38400 0.03700
C 	C 	0.56430 0.99100 0.41060 -0.05700
C 	C 	0.53000 0.01070 0.47830 0.00800
C 	C 	0.43400 0.94170 0.49330 0.02200
C 	C 	0.48000 0.00500 0.03900 0.00900
C 	C 	0.52800 0.87700 0.08300 -0.14400
C 	C 	0.56940 0.86340 0.01740 0.04300
C 	C 	0.48080 0.94680 0.09280 0.01900
C 	C 	0.56530 0.92630 0.95230 -0.05600
C 	C 	0.52800 0.81300 0.15000 0.56000
C 	C 	0.59340 0.68240 0.35140 0.05000
C 	C 	0.32580 0.78280 0.27980 0.06600
C 	C 	0.47820 0.70700 0.45340 0.04500
C 	C 	0.43550 0.63350 0.29450 0.10500
C 	C 	0.39930 0.44530 0.86630 0.51600
C 	C 	0.42590 0.46990 0.91980 -0.13500
C 	C 	0.38400 0.53500 0.94490 0.03600
C 	C 	0.41060 0.56430 0.99100 -0.05700
C 	C 	0.47830 0.53000 0.01070 0.00800
C 	C 	0.49330 0.43400 0.94170 0.02100
C 	C 	0.03900 0.48000 0.00500 0.00900
C 	C 	0.08300 0.52800 0.87700 -0.14400
C 	C 	0.01740 0.56940 0.86340 0.04200
C 	C 	0.09280 0.48080 0.94680 0.01800
C 	C 	0.95230 0.56530 0.92630 -0.05500
C 	C 	0.15000 0.52800 0.81300 0.55900
C 	C 	0.35140 0.59340 0.68240 0.06100
C 	C 	0.27980 0.32580 0.78280 0.06200
C 	C 	0.45340 0.47820 0.70700 0.03200
C 	C 	0.29450 0.43550 0.63350 0.08800
O 	O 	0.16260 0.65400 0.51630 -0.70200
O 	O 	0.30830 0.75030 0.53530 -0.87500
O 	O 	0.17200 0.78850 0.51220 -0.69500
O 	O 	0.24950 0.85490 0.43640 -0.70600
O 	O 	0.27560 0.71360 0.42860 -0.87100
O 	O 	0.15020 0.55740 0.61360 -0.68800
O 	O 	0.29510 0.59450 0.56630 -0.79600
O 	O 	0.18870 0.68170 0.63770 -0.79500
O 	O 	0.51630 0.16260 0.65400 -0.70400
O 	O 	0.53530 0.30830 0.75030 -0.86800
O 	O 	0.51220 0.17200 0.78850 -0.69500
O 	O 	0.43640 0.24950 0.85490 -0.70700
O 	O 	0.42860 0.27560 0.71360 -0.87400
O 	O 	0.61360 0.15020 0.55740 -0.68900
O 	O 	0.56630 0.29510 0.59450 -0.79400
O 	O 	0.63770 0.18870 0.68170 -0.79500
O 	O 	0.65400 0.51630 0.16260 -0.70300
O 	O 	0.75030 0.53530 0.30830 -0.87400
O 	O 	0.78850 0.51220 0.17200 -0.69500
O 	O 	0.85490 0.43640 0.24950 -0.70600
O 	O 	0.71360 0.42860 0.27560 -0.86900
O 	O 	0.55740 0.61360 0.15020 -0.69000
O 	O 	0.59450 0.56630 0.29510 -0.79400
O 	O 	0.68170 0.63770 0.18870 -0.79500
O 	O 	0.83740 0.34600 0.48370 -0.70300
O 	O 	0.69170 0.24970 0.46470 -0.86700
O 	O 	0.82800 0.21150 0.48780 -0.69500
O 	O 	0.75050 0.14510 0.56360 -0.70700
O 	O 	0.72440 0.28640 0.57140 -0.87300
O 	O 	0.84980 0.44260 0.38640 -0.68800
O 	O 	0.70490 0.40550 0.43370 -0.80000
O 	O 	0.81130 0.31830 0.36230 -0.79900
O 	O 	0.48370 0.83740 0.34600 -0.70200
O 	O 	0.46470 0.69170 0.24970 -0.87500
O 	O 	0.48780 0.82800 0.21150 -0.69500
O 	O 	0.56360 0.75050 0.14510 -0.70700
O 	O 	0.57140 0.72440 0.28640 -0.86700
O 	O 	0.38640 0.84980 0.44260 -0.68800
O 	O 	0.43370 0.70490 0.40550 -0.80100
O 	O 	0.36230 0.81130 0.31830 -0.79700
O 	O 	0.34600 0.48370 0.83740 -0.70300
O 	O 	0.24970 0.46470 0.69170 -0.87000
O 	O 	0.21150 0.48780 0.82800 -0.69600
O 	O 	0.14510 0.56360 0.75050 -0.70700
O 	O 	0.28640 0.57140 0.72440 -0.87000
O 	O 	0.44260 0.38640 0.84980 -0.68700
O 	O 	0.40550 0.43370 0.70490 -0.79700
O 	O 	0.31830 0.36230 0.81130 -0.79700
H 	H 	0.07234 0.67119 0.43652 0.04500
H 	H 	0.98787 0.62347 0.38382 0.04600
H 	H 	0.07591 0.47481 0.62025 0.05300
H 	H 	0.15637 0.97680 0.37018 0.03800
H 	H 	0.18292 0.99727 0.44828 0.03900
H 	H 	0.04745 0.85118 0.55744 0.05000
H 	H 	0.06451 0.07318 0.37586 0.05100
H 	H 	0.08953 0.09123 0.45563 0.05200
H 	H 	0.31191 0.64969 0.34819 0.02700
H 	H 	0.29695 0.59884 0.44664 -0.04300
H 	H 	0.25464 0.75597 0.63152 0.01100
H 	H 	0.25066 0.67868 0.71448 0.01900
H 	H 	0.32211 0.48782 0.54428 0.01800
H 	H 	0.32240 0.56622 0.46231 0.03900
H 	H 	0.41604 0.69333 0.51767 -0.04500
H 	H 	0.35016 0.65121 0.59827 -0.04300
H 	H 	0.43652 0.07234 0.67119 0.04500
H 	H 	0.38382 0.98787 0.62347 0.04500
H 	H 	0.62025 0.07591 0.47481 0.05400
H 	H 	0.39472 0.19407 0.98631 0.04300
H 	H 	0.55744 0.04745 0.85118 0.05000
H 	H 	0.40071 0.08167 0.10488 0.04600
H 	H 	0.38176 0.28293 0.62455 0.02200
H 	H 	0.45677 0.33537 0.60665 -0.04600
H 	H 	0.71512 0.24992 0.67870 0.02200
H 	H 	0.70545 0.16943 0.75780 0.04200
H 	H 	0.51706 0.23324 0.55239 -0.02200
H 	H 	0.54823 0.31568 0.48682 0.01000
H 	H 	0.56376 0.36856 0.64535 -0.02500
H 	H 	0.62413 0.35928 0.71141 0.02400
H 	H 	0.67119 0.43652 0.07234 0.04600
H 	H 	0.62347 0.38382 0.98787 0.04600
H 	H 	0.47481 0.62025 0.07591 0.05300
H 	H 	0.98631 0.39472 0.19407 0.04300
H 	H 	0.85118 0.55744 0.04745 0.05000
H 	H 	0.10488 0.40071 0.08167 0.04600
H 	H 	0.66228 0.34631 0.34779 -0.01600
H 	H 	0.60927 0.41211 0.27952 0.01500
H 	H 	0.75776 0.70549 0.16943 0.04200
H 	H 	0.75533 0.63160 0.25529 0.01200
H 	H 	0.56508 0.46274 0.32407 0.01500
H 	H 	0.54852 0.52128 0.23283 -0.02300
H 	H 	0.68113 0.51892 0.41028 -0.04200
H 	H 	0.65861 0.60979 0.34625 -0.04400
H 	H 	0.92766 0.32881 0.56348 0.04500
H 	H 	0.01213 0.37653 0.61618 0.04400
H 	H 	0.92409 0.52519 0.37975 0.05300
H 	H 	0.80593 0.01369 0.60528 0.04300
H 	H 	0.95255 0.14882 0.44256 0.05100
H 	H 	0.91833 0.89512 0.59929 0.04500
H 	H 	0.63879 0.33717 0.64546 -0.03100
H 	H 	0.65375 0.38802 0.54702 -0.02800
H 	H 	0.82224 0.23983 0.29070 0.03200
H 	H 	0.72027 0.28858 0.33133 0.00400
H 	H 	0.73753 0.49883 0.44269 -0.03000
H 	H 	0.73724 0.42043 0.52466 -0.02300
H 	H 	0.58466 0.26523 0.45296 -0.00200
H 	H 	0.65054 0.30735 0.37236 0.01700
H 	H 	0.56348 0.92766 0.32881 0.04600
H 	H 	0.61618 0.01213 0.37653 0.04500
H 	H 	0.37970 0.92519 0.52676 0.05100
H 	H 	0.60528 0.80593 0.01369 0.04300
H 	H 	0.44318 0.95083 0.14945 0.05200
H 	H 	0.59936 0.91814 0.89519 0.04500
H 	H 	0.65559 0.67721 0.34499 0.02700
H 	H 	0.58059 0.62477 0.36289 -0.01100
H 	H 	0.35920 0.74330 0.24152 0.01500
H 	H 	0.26283 0.79922 0.28689 0.02800
H 	H 	0.52861 0.73081 0.41943 -0.02500
H 	H 	0.49744 0.64837 0.48500 0.03200
H 	H 	0.47882 0.59378 0.32543 -0.05600
H 	H 	0.41845 0.60306 0.25937 0.01400
H 	H 	0.32881 0.56348 0.92766 0.04500
H 	H 	0.37653 0.61618 0.01213 0.04500
H 	H 	0.52519 0.37975 0.92409 0.05400
H 	H 	0.01369 0.60528 0.80593 0.04300
H 	H 	0.14945 0.44318 0.95083 0.05200
H 	H 	0.89512 0.59929 0.91833 0.04500
H 	H 	0.34760 0.61094 0.62136 -0.00600
H 	H 	0.40062 0.54514 0.68963 -0.02500
H 	H 	0.29414 0.26348 0.80550 0.03100
H 	H 	0.29657 0.33738 0.71964 -0.00600
H 	H 	0.48113 0.50166 0.64796 0.03300
H 	H 	0.49770 0.44312 0.73920 -0.02500
H 	H 	0.27262 0.46448 0.58075 -0.02200
H 	H 	0.29514 0.37361 0.64478 0.02100
H 	H 	0.37838 0.64397 0.40693 -0.01700
H 	H 	0.16939 0.75713 0.70617 0.04100
H 	H 	0.23279 0.54705 0.52284 -0.01800
H 	H 	0.38205 0.73442 0.60203 0.02000
H 	H 	0.36323 0.36894 0.66129 -0.04100
H 	H 	0.63160 0.25534 0.75529 0.01200
H 	H 	0.46414 0.32838 0.56188 0.03700
H 	H 	0.53007 0.42041 0.72220 -0.01000
H 	H 	0.62095 0.44334 0.35994 -0.02500
H 	H 	0.67870 0.71508 0.24997 0.02100
H 	H 	0.48748 0.54541 0.32041 0.03200
H 	H 	0.73924 0.58925 0.39173 0.02000
H 	H 	0.72022 0.38230 0.60576 0.02400
H 	H 	0.64792 0.47966 0.50322 0.03400
H 	H 	0.61655 0.34844 0.45672 -0.03100
H 	H 	0.56206 0.71078 0.39962 0.00900
H 	H 	0.44452 0.74351 0.49449 -0.02500
H 	H 	0.38477 0.65491 0.33622 -0.03700
H 	H 	0.35928 0.64216 0.70177 0.02900
H 	H 	0.21751 0.34697 0.80018 0.02600
H 	H 	0.42009 0.52579 0.73554 -0.00900
H 	H 	0.35326 0.44394 0.62623 -0.02800
