data_crystal

_cell_length_a 21.10510
_cell_length_b 21.10510
_cell_length_c 34.88840
_cell_angle_alpha 90.00000
_cell_angle_beta  90.00000
_cell_angle_gamma 120.00000

_symmetry_space_group_name_	'P 1'
_symmetry_space_group_name_H-M	'P 1'

loop_
_symmetry_equiv_pos_as_xyz
  x,y,z

loop_
_atom_site_label
_atom_site_type_symbol
_atom_site_fract_x
_atom_site_fract_y
_atom_site_fract_z
_atom_site_charge
Al	Al	0.28272 0.07419 0.51538 2.39300
O 	O 	0.31486 0.10464 0.56846 -0.65600
C 	C 	0.32761 0.10613 0.64679 0.04300
O 	O 	0.36792 0.05859 0.51170 -0.62000
C 	C 	0.43749 0.94091 0.48589 0.05200
O 	O 	0.24815 0.02100 0.46882 -0.93100
C 	C 	0.27020 0.06010 0.43210 0.11600
Al	Al	0.94939 0.40752 0.84871 2.39300
O 	O 	0.98153 0.43797 0.90179 -0.65200
C 	C 	0.99428 0.43946 0.98012 0.05700
O 	O 	0.03459 0.39192 0.84503 -0.62200
C 	C 	0.10416 0.27424 0.81922 0.04100
O 	O 	0.91482 0.35433 0.80215 -0.92600
C 	C 	0.93687 0.39343 0.76543 0.12200
Al	Al	0.61605 0.74086 0.18205 2.39300
O 	O 	0.64819 0.77131 0.23513 -0.65400
C 	C 	0.66094 0.77280 0.31346 0.04400
O 	O 	0.70125 0.72526 0.17837 -0.62200
C 	C 	0.77082 0.60758 0.15256 0.04500
O 	O 	0.58148 0.68767 0.13549 -0.92800
C 	C 	0.60353 0.72677 0.09877 0.11900
Al	Al	0.92581 0.20853 0.51538 2.39200
O 	O 	0.89536 0.21022 0.56846 -0.65300
C 	C 	0.89387 0.22148 0.64679 0.04500
O 	O 	0.94141 0.30933 0.51170 -0.61500
C 	C 	0.05909 0.49658 0.48589 0.04500
O 	O 	0.97900 0.22715 0.46882 -0.92400
C 	C 	0.93990 0.21010 0.43210 0.12100
Al	Al	0.59248 0.54186 0.84871 2.39200
O 	O 	0.56203 0.54355 0.90179 -0.65500
C 	C 	0.56054 0.55481 0.98012 0.04400
O 	O 	0.60808 0.64266 0.84503 -0.62200
C 	C 	0.72576 0.82991 0.81922 0.04500
O 	O 	0.64567 0.56048 0.80215 -0.92800
C 	C 	0.60657 0.54343 0.76543 0.11900
Al	Al	0.25914 0.87520 0.18205 2.39200
O 	O 	0.22869 0.87689 0.23513 -0.65500
C 	C 	0.22720 0.88815 0.31346 0.04500
O 	O 	0.27474 0.97600 0.17837 -0.61500
C 	C 	0.39242 0.16325 0.15256 0.04300
O 	O 	0.31233 0.89382 0.13549 -0.92700
C 	C 	0.27323 0.87677 0.09877 0.11900
Al	Al	0.79147 0.71728 0.51538 2.39200
O 	O 	0.78978 0.68514 0.56846 -0.65500
C 	C 	0.77852 0.67239 0.64679 0.04400
O 	O 	0.69067 0.63208 0.51170 -0.62200
C 	C 	0.50342 0.56251 0.48589 0.04500
O 	O 	0.77285 0.75185 0.46882 -0.92800
C 	C 	0.78990 0.72980 0.43210 0.12000
Al	Al	0.45814 0.05061 0.84871 2.39100
O 	O 	0.45645 0.01847 0.90179 -0.65800
C 	C 	0.44519 0.00572 0.98012 0.03100
O 	O 	0.35734 0.96541 0.84503 -0.62200
C 	C 	0.17009 0.89584 0.81922 0.04900
O 	O 	0.43952 0.08518 0.80215 -0.92900
C 	C 	0.45657 0.06313 0.76543 0.11500
Al	Al	0.12480 0.38395 0.18205 2.39200
O 	O 	0.12311 0.35181 0.23513 -0.65600
C 	C 	0.11185 0.33906 0.31346 0.04200
O 	O 	0.02400 0.29875 0.17837 -0.63200
C 	C 	0.83675 0.22918 0.15256 0.04700
O 	O 	0.10618 0.41852 0.13549 -0.92900
C 	C 	0.12323 0.39647 0.09877 0.11700
Al	Al	0.07419 0.28272 0.48462 2.39200
O 	O 	0.10464 0.31486 0.43154 -0.65700
C 	C 	0.10613 0.32761 0.35321 0.04200
O 	O 	0.05859 0.36792 0.48830 -0.62100
C 	C 	0.94091 0.43749 0.51411 0.05100
O 	O 	0.02100 0.24815 0.53118 -0.93200
C 	C 	0.06010 0.27020 0.56790 0.11500
Al	Al	0.74086 0.61605 0.81795 2.39200
O 	O 	0.77131 0.64819 0.76487 -0.65500
C 	C 	0.77280 0.66094 0.68654 0.04400
O 	O 	0.72526 0.70125 0.82163 -0.62200
C 	C 	0.60758 0.77082 0.84744 0.04500
O 	O 	0.68767 0.58148 0.86451 -0.92800
C 	C 	0.72677 0.60353 0.90123 0.11900
Al	Al	0.40752 0.94939 0.15129 2.39200
O 	O 	0.43797 0.98153 0.09821 -0.65300
C 	C 	0.43946 0.99428 0.01988 0.05600
O 	O 	0.39192 0.03459 0.15497 -0.62300
C 	C 	0.27424 0.10416 0.18078 0.04000
O 	O 	0.35433 0.91482 0.19785 -0.92700
C 	C 	0.39343 0.93687 0.23457 0.12100
Al	Al	0.20853 0.92581 0.48462 2.39200
O 	O 	0.21022 0.89536 0.43154 -0.65300
C 	C 	0.22148 0.89387 0.35321 0.04500
O 	O 	0.30933 0.94141 0.48830 -0.61500
C 	C 	0.49658 0.05909 0.51411 0.04500
O 	O 	0.22715 0.97900 0.53118 -0.92400
C 	C 	0.21010 0.93990 0.56790 0.12100
Al	Al	0.87520 0.25914 0.81795 2.39200
O 	O 	0.87689 0.22869 0.76487 -0.65500
C 	C 	0.88815 0.22720 0.68654 0.04500
O 	O 	0.97600 0.27474 0.82163 -0.61500
C 	C 	0.16325 0.39242 0.84744 0.04300
O 	O 	0.89382 0.31233 0.86451 -0.92700
C 	C 	0.87677 0.27323 0.90123 0.11900
Al	Al	0.54186 0.59248 0.15129 2.39200
O 	O 	0.54355 0.56203 0.09821 -0.65500
C 	C 	0.55481 0.56054 0.01988 0.04400
O 	O 	0.64266 0.60808 0.15497 -0.62200
C 	C 	0.82991 0.72576 0.18078 0.04500
O 	O 	0.56048 0.64567 0.19785 -0.92800
C 	C 	0.54343 0.60657 0.23457 0.11900
Al	Al	0.71728 0.79147 0.48462 2.39200
O 	O 	0.68514 0.78978 0.43154 -0.65500
C 	C 	0.67239 0.77852 0.35321 0.04400
O 	O 	0.63208 0.69067 0.48830 -0.62200
C 	C 	0.56251 0.50342 0.51411 0.04500
O 	O 	0.75185 0.77285 0.53118 -0.92800
C 	C 	0.72980 0.78990 0.56790 0.12000
Al	Al	0.38395 0.12480 0.81795 2.39200
O 	O 	0.35181 0.12311 0.76487 -0.65600
C 	C 	0.33906 0.11185 0.68654 0.04200
O 	O 	0.29875 0.02400 0.82163 -0.63200
C 	C 	0.22918 0.83675 0.84744 0.04700
O 	O 	0.41852 0.10618 0.86451 -0.92900
C 	C 	0.39647 0.12323 0.90123 0.11700
Al	Al	0.05061 0.45814 0.15129 2.39100
O 	O 	0.01847 0.45645 0.09821 -0.65800
C 	C 	0.00572 0.44519 0.01988 0.03100
O 	O 	0.96541 0.35734 0.15497 -0.62200
C 	C 	0.89584 0.17009 0.18078 0.04900
O 	O 	0.08518 0.43952 0.19785 -0.92900
C 	C 	0.06313 0.45657 0.23457 0.11500
Al	Al	0.71728 0.92581 0.48462 2.39200
O 	O 	0.68514 0.89536 0.43154 -0.65300
C 	C 	0.67239 0.89387 0.35321 0.04600
O 	O 	0.63208 0.94141 0.48830 -0.61500
C 	C 	0.56251 0.05909 0.51411 0.04500
O 	O 	0.75185 0.97900 0.53118 -0.92300
C 	C 	0.72980 0.93990 0.56790 0.12200
Al	Al	0.38395 0.25914 0.81795 2.39200
O 	O 	0.35181 0.22869 0.76487 -0.65500
C 	C 	0.33906 0.22720 0.68654 0.04300
O 	O 	0.29875 0.27474 0.82163 -0.62300
C 	C 	0.22918 0.39242 0.84744 0.04500
O 	O 	0.41852 0.31233 0.86451 -0.92800
C 	C 	0.39647 0.27323 0.90123 0.11800
Al	Al	0.05061 0.59248 0.15129 2.39100
O 	O 	0.01847 0.56203 0.09821 -0.65800
C 	C 	0.00572 0.56054 0.01988 0.03100
O 	O 	0.96541 0.60808 0.15497 -0.62200
C 	C 	0.89584 0.72576 0.18078 0.05000
O 	O 	0.08518 0.64567 0.19785 -0.92900
C 	C 	0.06313 0.60657 0.23457 0.11500
Al	Al	0.07419 0.79147 0.48462 2.39200
O 	O 	0.10464 0.78978 0.43154 -0.65700
C 	C 	0.10613 0.77852 0.35321 0.04200
O 	O 	0.05859 0.69067 0.48830 -0.62100
C 	C 	0.94091 0.50342 0.51411 0.05200
O 	O 	0.02100 0.77285 0.53118 -0.93200
C 	C 	0.06010 0.78990 0.56790 0.11600
Al	Al	0.74086 0.12480 0.81795 2.39200
O 	O 	0.77131 0.12311 0.76487 -0.65600
C 	C 	0.77280 0.11185 0.68654 0.04300
O 	O 	0.72526 0.02400 0.82163 -0.63200
C 	C 	0.60758 0.83675 0.84744 0.04700
O 	O 	0.68767 0.10618 0.86451 -0.92900
C 	C 	0.72677 0.12323 0.90123 0.11700
Al	Al	0.40752 0.45814 0.15129 2.39200
O 	O 	0.43797 0.45645 0.09821 -0.65500
C 	C 	0.43946 0.44519 0.01988 0.04300
O 	O 	0.39192 0.35734 0.15497 -0.62300
C 	C 	0.27424 0.17009 0.18078 0.04400
O 	O 	0.35433 0.43952 0.19785 -0.92800
C 	C 	0.39343 0.45657 0.23457 0.11800
Al	Al	0.20853 0.28272 0.48462 2.39200
O 	O 	0.21022 0.31486 0.43154 -0.65500
C 	C 	0.22148 0.32761 0.35321 0.04300
O 	O 	0.30933 0.36792 0.48830 -0.62200
C 	C 	0.49658 0.43749 0.51411 0.04500
O 	O 	0.22715 0.24815 0.53118 -0.92800
C 	C 	0.21010 0.27020 0.56790 0.11700
Al	Al	0.87520 0.61605 0.81795 2.39200
O 	O 	0.87689 0.64819 0.76487 -0.65400
C 	C 	0.88815 0.66094 0.68654 0.04500
O 	O 	0.97600 0.70125 0.82163 -0.61400
C 	C 	0.16325 0.77082 0.84744 0.04300
O 	O 	0.89382 0.58148 0.86451 -0.92700
C 	C 	0.87677 0.60353 0.90123 0.12000
Al	Al	0.54186 0.94939 0.15129 2.39200
O 	O 	0.54355 0.98153 0.09821 -0.65300
C 	C 	0.55481 0.99428 0.01988 0.05600
O 	O 	0.64266 0.03459 0.15497 -0.62300
C 	C 	0.82991 0.10416 0.18078 0.04100
O 	O 	0.56048 0.91482 0.19785 -0.92700
C 	C 	0.54343 0.93687 0.23457 0.12100
Al	Al	0.92581 0.71728 0.51538 2.39200
O 	O 	0.89536 0.68514 0.56846 -0.65300
C 	C 	0.89387 0.67239 0.64679 0.04600
O 	O 	0.94141 0.63208 0.51170 -0.61500
C 	C 	0.05909 0.56251 0.48589 0.04500
O 	O 	0.97900 0.75185 0.46882 -0.92300
C 	C 	0.93990 0.72980 0.43210 0.12200
Al	Al	0.59248 0.05061 0.84871 2.39100
O 	O 	0.56203 0.01847 0.90179 -0.65800
C 	C 	0.56054 0.00572 0.98012 0.03100
O 	O 	0.60808 0.96541 0.84503 -0.62200
C 	C 	0.72576 0.89584 0.81922 0.05000
O 	O 	0.64567 0.08518 0.80215 -0.92900
C 	C 	0.60657 0.06313 0.76543 0.11500
Al	Al	0.25914 0.38395 0.18205 2.39200
O 	O 	0.22869 0.35181 0.23513 -0.65500
C 	C 	0.22720 0.33906 0.31346 0.04300
O 	O 	0.27474 0.29875 0.17837 -0.62300
C 	C 	0.39242 0.22918 0.15256 0.04500
O 	O 	0.31233 0.41852 0.13549 -0.92800
C 	C 	0.27323 0.39647 0.09877 0.11800
Al	Al	0.79147 0.07419 0.51538 2.39200
O 	O 	0.78978 0.10464 0.56846 -0.65700
C 	C 	0.77852 0.10613 0.64679 0.04200
O 	O 	0.69067 0.05859 0.51170 -0.62100
C 	C 	0.50342 0.94091 0.48589 0.05200
O 	O 	0.77285 0.02100 0.46882 -0.93200
C 	C 	0.78990 0.06010 0.43210 0.11600
Al	Al	0.45814 0.40752 0.84871 2.39200
O 	O 	0.45645 0.43797 0.90179 -0.65500
C 	C 	0.44519 0.43946 0.98012 0.04300
O 	O 	0.35734 0.39192 0.84503 -0.62300
C 	C 	0.17009 0.27424 0.81922 0.04400
O 	O 	0.43952 0.35433 0.80215 -0.92800
C 	C 	0.45657 0.39343 0.76543 0.11800
Al	Al	0.12480 0.74086 0.18205 2.39200
O 	O 	0.12311 0.77131 0.23513 -0.65600
C 	C 	0.11185 0.77280 0.31346 0.04300
O 	O 	0.02400 0.72526 0.17837 -0.63200
C 	C 	0.83675 0.60758 0.15256 0.04700
O 	O 	0.10618 0.68767 0.13549 -0.92900
C 	C 	0.12323 0.72677 0.09877 0.11700
Al	Al	0.28272 0.20853 0.51538 2.39200
O 	O 	0.31486 0.21022 0.56846 -0.65500
C 	C 	0.32761 0.22148 0.64679 0.04300
O 	O 	0.36792 0.30933 0.51170 -0.62200
C 	C 	0.43749 0.49658 0.48589 0.04500
O 	O 	0.24815 0.22715 0.46882 -0.92800
C 	C 	0.27020 0.21010 0.43210 0.11700
Al	Al	0.94939 0.54186 0.84871 2.39200
O 	O 	0.98153 0.54355 0.90179 -0.65300
C 	C 	0.99428 0.55481 0.98012 0.05600
O 	O 	0.03459 0.64266 0.84503 -0.62300
C 	C 	0.10416 0.82991 0.81922 0.04100
O 	O 	0.91482 0.56048 0.80215 -0.92700
C 	C 	0.93687 0.54343 0.76543 0.12100
Al	Al	0.61605 0.87520 0.18205 2.39200
O 	O 	0.64819 0.87689 0.23513 -0.65400
C 	C 	0.66094 0.88815 0.31346 0.04500
O 	O 	0.70125 0.97600 0.17837 -0.61400
C 	C 	0.77082 0.16325 0.15256 0.04300
O 	O 	0.58148 0.89382 0.13549 -0.92700
C 	C 	0.60353 0.87677 0.09877 0.12000
C 	C 	0.31580 0.15790 0.58317 0.51700
C 	C 	0.32542 0.16271 0.62703 -0.12200
O 	O 	0.34370 0.17185 0.49654 -0.88900
C 	C 	0.42110 0.21055 0.48467 0.15400
O 	O 	0.21490 0.10745 0.52161 -0.91700
C 	C 	0.14000 0.07000 0.54032 0.08900
C 	C 	0.98247 0.49123 0.91650 0.51900
C 	C 	0.99209 0.49604 0.96036 -0.12800
O 	O 	0.01037 0.50518 0.82987 -0.89300
C 	C 	0.08777 0.54388 0.81800 0.15300
O 	O 	0.88157 0.44078 0.85494 -0.91600
C 	C 	0.80667 0.40333 0.87365 0.09500
C 	C 	0.64913 0.82457 0.24984 0.51700
C 	C 	0.65875 0.82938 0.29370 -0.12200
O 	O 	0.67703 0.83852 0.16321 -0.88800
C 	C 	0.75443 0.87722 0.15134 0.15800
O 	O 	0.54823 0.77412 0.18828 -0.91700
C 	C 	0.47333 0.73667 0.20699 0.09500
C 	C 	0.84210 0.15790 0.58317 0.51700
C 	C 	0.83729 0.16271 0.62703 -0.12200
O 	O 	0.82815 0.17185 0.49654 -0.88800
C 	C 	0.78945 0.21055 0.48467 0.15500
O 	O 	0.89255 0.10745 0.52161 -0.91700
C 	C 	0.93000 0.07000 0.54032 0.09500
C 	C 	0.50877 0.49123 0.91650 0.51700
C 	C 	0.50396 0.49604 0.96036 -0.12200
O 	O 	0.49482 0.50518 0.82987 -0.88800
C 	C 	0.45612 0.54388 0.81800 0.15500
O 	O 	0.55922 0.44078 0.85494 -0.91700
C 	C 	0.59667 0.40333 0.87365 0.09500
C 	C 	0.17543 0.82457 0.24984 0.51700
C 	C 	0.17062 0.82938 0.29370 -0.12200
O 	O 	0.16148 0.83852 0.16321 -0.88800
C 	C 	0.12278 0.87722 0.15134 0.15400
O 	O 	0.22588 0.77412 0.18828 -0.91700
C 	C 	0.26333 0.73667 0.20699 0.09500
C 	C 	0.84210 0.68420 0.58317 0.51700
C 	C 	0.83729 0.67458 0.62703 -0.12200
O 	O 	0.82815 0.65630 0.49654 -0.88800
C 	C 	0.78945 0.57890 0.48467 0.15500
O 	O 	0.89255 0.78510 0.52161 -0.91600
C 	C 	0.93000 0.86000 0.54032 0.10100
C 	C 	0.50877 0.01753 0.91650 0.51500
C 	C 	0.50396 0.00791 0.96036 -0.11700
O 	O 	0.49482 0.98963 0.82987 -0.88300
C 	C 	0.45612 0.91223 0.81800 0.15700
O 	O 	0.55922 0.11843 0.85494 -0.91800
C 	C 	0.59667 0.19333 0.87365 0.09600
C 	C 	0.17543 0.35087 0.24984 0.51600
C 	C 	0.17062 0.34125 0.29370 -0.12300
O 	O 	0.16148 0.32297 0.16321 -0.88800
C 	C 	0.12278 0.24557 0.15134 0.15100
O 	O 	0.22588 0.45177 0.18828 -0.91700
C 	C 	0.26333 0.52667 0.20699 0.09500
C 	C 	0.15790 0.31580 0.41683 0.51700
C 	C 	0.16271 0.32542 0.37297 -0.12200
O 	O 	0.17185 0.34370 0.50346 -0.88900
C 	C 	0.21055 0.42110 0.51533 0.15400
O 	O 	0.10745 0.21490 0.47839 -0.91700
C 	C 	0.07000 0.14000 0.45968 0.08900
C 	C 	0.82457 0.64913 0.75016 0.51700
C 	C 	0.82938 0.65875 0.70630 -0.12200
O 	O 	0.83852 0.67703 0.83679 -0.88800
C 	C 	0.87722 0.75443 0.84866 0.15800
O 	O 	0.77412 0.54823 0.81172 -0.91700
C 	C 	0.73667 0.47333 0.79301 0.09500
C 	C 	0.49123 0.98247 0.08350 0.51900
C 	C 	0.49604 0.99209 0.03964 -0.12800
O 	O 	0.50518 0.01037 0.17013 -0.89300
C 	C 	0.54388 0.08777 0.18200 0.15300
O 	O 	0.44078 0.88157 0.14506 -0.91600
C 	C 	0.40333 0.80667 0.12635 0.09500
C 	C 	0.15790 0.84210 0.41683 0.51700
C 	C 	0.16271 0.83729 0.37297 -0.12200
O 	O 	0.17185 0.82815 0.50346 -0.88800
C 	C 	0.21055 0.78945 0.51533 0.15500
O 	O 	0.10745 0.89255 0.47839 -0.91700
C 	C 	0.07000 0.93000 0.45968 0.09500
C 	C 	0.82457 0.17543 0.75016 0.51700
C 	C 	0.82938 0.17062 0.70630 -0.12200
O 	O 	0.83852 0.16148 0.83679 -0.88800
C 	C 	0.87722 0.12278 0.84866 0.15400
O 	O 	0.77412 0.22588 0.81172 -0.91700
C 	C 	0.73667 0.26333 0.79301 0.09500
C 	C 	0.49123 0.50877 0.08350 0.51700
C 	C 	0.49604 0.50396 0.03964 -0.12200
O 	O 	0.50518 0.49482 0.17013 -0.88800
C 	C 	0.54388 0.45612 0.18200 0.15500
O 	O 	0.44078 0.55922 0.14506 -0.91700
C 	C 	0.40333 0.59667 0.12635 0.09500
C 	C 	0.68420 0.84210 0.41683 0.51700
C 	C 	0.67458 0.83729 0.37297 -0.12200
O 	O 	0.65630 0.82815 0.50346 -0.88800
C 	C 	0.57890 0.78945 0.51533 0.15500
O 	O 	0.78510 0.89255 0.47839 -0.91600
C 	C 	0.86000 0.93000 0.45968 0.10100
C 	C 	0.35087 0.17543 0.75016 0.51600
C 	C 	0.34125 0.17062 0.70630 -0.12300
O 	O 	0.32297 0.16148 0.83679 -0.88800
C 	C 	0.24557 0.12278 0.84866 0.15100
O 	O 	0.45177 0.22588 0.81172 -0.91700
C 	C 	0.52667 0.26333 0.79301 0.09500
C 	C 	0.01753 0.50877 0.08350 0.51500
C 	C 	0.00791 0.50396 0.03964 -0.11700
O 	O 	0.98963 0.49482 0.17013 -0.88300
C 	C 	0.91223 0.45612 0.18200 0.15700
O 	O 	0.11843 0.55922 0.14506 -0.91800
C 	C 	0.19333 0.59667 0.12635 0.09600
C 	C 	0.36092 0.00000 0.50000 0.47500
C 	C 	0.43397 0.00000 0.50000 -0.11800
C 	C 	0.02759 0.33333 0.83333 0.47400
C 	C 	0.10064 0.33333 0.83333 -0.10900
C 	C 	0.69425 0.66667 0.16667 0.48500
C 	C 	0.76730 0.66667 0.16667 -0.11000
C 	C 	-0.00000 0.36092 0.50000 0.47500
C 	C 	0.00000 0.43397 0.50000 -0.11800
C 	C 	0.66667 0.69425 0.83333 0.48500
C 	C 	0.66667 0.76730 0.83333 -0.11000
C 	C 	0.33333 0.02759 0.16667 0.47400
C 	C 	0.33333 0.10064 0.16667 -0.10900
C 	C 	0.63908 0.63908 0.50000 0.48400
C 	C 	0.56603 0.56603 0.50000 -0.11100
C 	C 	0.30575 0.97241 0.83333 0.49700
C 	C 	0.23270 0.89936 0.83333 -0.11400
C 	C 	0.97241 0.30575 0.16667 0.49700
C 	C 	0.89936 0.23270 0.16667 -0.11400
C 	C 	0.63908 0.00000 0.50000 0.47500
C 	C 	0.56603 0.00000 0.50000 -0.11800
C 	C 	0.30575 0.33333 0.83333 0.48400
C 	C 	0.23270 0.33333 0.83333 -0.11200
C 	C 	0.97241 0.66667 0.16667 0.49700
C 	C 	0.89936 0.66667 0.16667 -0.11400
C 	C 	-0.00000 0.63908 0.50000 0.47500
C 	C 	-0.00000 0.56603 0.50000 -0.11800
C 	C 	0.66667 0.97241 0.83333 0.49700
C 	C 	0.66667 0.89936 0.83333 -0.11400
C 	C 	0.33333 0.30575 0.16667 0.48400
C 	C 	0.33333 0.23270 0.16667 -0.11200
C 	C 	0.36092 0.36092 0.50000 0.48400
C 	C 	0.43397 0.43397 0.50000 -0.11100
C 	C 	0.02759 0.69425 0.83333 0.47400
C 	C 	0.10064 0.76730 0.83333 -0.10800
C 	C 	0.69425 0.02759 0.16667 0.47400
C 	C 	0.76730 0.10064 0.16667 -0.10800
