data_crystal

_cell_length_a 16.06710
_cell_length_b 16.31280
_cell_length_c 20.86260
_cell_angle_alpha 72.91900
_cell_angle_beta  72.72900
_cell_angle_gamma 80.88300

_symmetry_space_group_name_	'P 1'
_symmetry_space_group_name_H-M	'P 1'

loop_
_symmetry_equiv_pos_as_xyz
  x,y,z

loop_
_atom_site_label
_atom_site_type_symbol
_atom_site_fract_x
_atom_site_fract_y
_atom_site_fract_z
_atom_site_charge
Rb	Rb	0.04199 0.05409 0.83968 0.67900
Rb	Rb	0.08346 0.34223 0.47741 0.67100
Rb	Rb	0.00405 0.57492 0.85804 0.67200
Rb	Rb	0.66548 0.92274 0.94139 0.67200
Rb	Rb	0.42612 0.99661 0.38727 0.67200
Rb	Rb	0.95801 0.94591 0.16032 0.67900
Rb	Rb	0.91654 0.65777 0.52259 0.67000
Rb	Rb	0.99595 0.42508 0.14196 0.67100
Rb	Rb	0.33452 0.07726 0.05861 0.67100
Rb	Rb	0.57388 0.00339 0.61273 0.67100
Na	Na	0.24830 0.25200 0.75018 0.57800
Na	Na	0.75170 0.74800 0.24982 0.57800
Mo	Mo	0.21298 0.47176 0.74559 1.07300
Mo	Mo	0.30287 0.57782 0.55922 1.06500
Mo	Mo	0.16720 0.56061 0.47999 1.21600
Mo	Mo	0.52721 0.78126 0.32860 1.06900
Mo	Mo	0.43147 0.69641 0.22260 1.07400
Mo	Mo	0.44864 0.83662 0.07722 1.21800
Mo	Mo	0.12000 0.20078 0.65391 1.15800
Mo	Mo	0.16788 0.96481 0.68552 1.15000
Mo	Mo	0.36197 0.93258 0.59600 1.22100
Mo	Mo	0.81184 0.88151 0.07096 1.16200
Mo	Mo	0.94792 0.16859 0.98417 1.21800
Mo	Mo	0.91829 0.36065 0.99938 1.21100
Mo	Mo	0.78702 0.52824 0.25441 1.07300
Mo	Mo	0.69713 0.42218 0.44078 1.06500
Mo	Mo	0.83280 0.43939 0.52001 1.21600
Mo	Mo	0.47279 0.21874 0.67140 1.06900
Mo	Mo	0.56853 0.30359 0.77740 1.07400
Mo	Mo	0.55136 0.16338 0.92278 1.21800
Mo	Mo	0.88000 0.79922 0.34609 1.15800
Mo	Mo	0.83212 0.03519 0.31448 1.15000
Mo	Mo	0.63803 0.06742 0.40400 1.22100
Mo	Mo	0.18816 0.11849 0.92904 1.16200
Mo	Mo	0.05208 0.83141 0.01583 1.21800
Mo	Mo	0.08171 0.63935 0.00062 1.21100
P 	P 	0.16833 0.40301 0.62050 0.41600
P 	P 	0.07681 0.57112 0.64180 0.40600
P 	P 	0.56904 0.08108 0.79259 0.41400
P 	P 	0.60477 0.83302 0.15077 0.42800
P 	P 	0.25804 0.11313 0.52804 0.41100
P 	P 	0.33007 0.11224 0.64463 0.40600
P 	P 	0.10192 0.32763 0.88299 0.39600
P 	P 	0.90056 0.74576 0.96723 0.39600
P 	P 	0.83167 0.59699 0.37950 0.41600
P 	P 	0.92319 0.42888 0.35820 0.40600
P 	P 	0.43096 0.91892 0.20741 0.41400
P 	P 	0.39523 0.16698 0.84923 0.42800
P 	P 	0.74196 0.88687 0.47196 0.41100
P 	P 	0.66993 0.88776 0.35537 0.40600
P 	P 	0.89808 0.67237 0.11701 0.39600
P 	P 	0.09944 0.25424 0.03277 0.39600
H 	H 	0.93380 0.47190 0.64510 0.03500
H 	H 	0.98150 0.38160 0.64060 0.01800
H 	H 	0.95310 0.45180 0.75590 0.08800
H 	H 	0.01050 0.36540 0.75100 0.11600
H 	H 	0.89240 0.29780 0.75910 -0.00400
H 	H 	0.83390 0.38460 0.75000 -0.00100
H 	H 	0.89040 0.30010 0.85930 0.12600
H 	H 	0.85420 0.38850 0.85080 0.11500
H 	H 	0.76480 0.27460 0.92270 0.13600
H 	H 	0.72340 0.35840 0.87990 0.11400
H 	H 	0.74950 0.27640 0.85150 0.11300
H 	H 	0.62540 0.01710 0.08240 0.02900
H 	H 	0.53440 0.06390 0.10880 0.04400
H 	H 	0.63780 0.98000 0.19940 0.10500
H 	H 	0.55560 0.04510 0.21460 0.07400
H 	H 	0.72640 0.09250 0.11960 0.02900
H 	H 	0.64430 0.15710 0.11140 0.02100
H 	H 	0.70260 0.10030 0.21860 0.13000
H 	H 	0.62240 0.15420 0.21550 0.10900
H 	H 	0.78430 0.21030 0.14160 0.14600
H 	H 	0.72900 0.23540 0.20970 0.12200
H 	H 	0.69670 0.26850 0.14190 0.12100
H 	H 	0.43150 0.18600 0.45710 0.05100
H 	H 	0.46480 0.19070 0.51910 0.01300
H 	H 	0.31920 0.29060 0.48100 0.07900
H 	H 	0.35060 0.29440 0.54450 0.05400
H 	H 	0.46250 0.33660 0.40340 0.00900
H 	H 	0.48750 0.34720 0.46750 -0.04000
H 	H 	0.34910 0.43430 0.42960 0.11200
H 	H 	0.39290 0.45150 0.47510 0.06100
H 	H 	0.42570 0.50490 0.34070 0.01500
H 	H 	0.43560 0.55160 0.39360 0.00300
H 	H 	0.50780 0.48140 0.37060 0.00500
H 	H 	0.17740 0.42730 0.99180 0.06200
H 	H 	0.18540 0.45600 0.91170 0.02700
H 	H 	0.28730 0.33460 0.89630 0.04700
H 	H 	0.27880 0.30520 0.97640 0.06300
H 	H 	0.40760 0.37570 0.92300 0.03900
H 	H 	0.34150 0.43530 0.96560 0.04900
H 	H 	0.30120 0.49870 0.85690 0.05600
H 	H 	0.38500 0.45990 0.82380 0.03900
H 	H 	0.43380 0.53440 0.89430 0.11200
H 	H 	0.43810 0.57510 0.81550 0.09600
H 	H 	0.35710 0.59850 0.87280 0.11200
H 	H 	0.06620 0.52810 0.35490 0.03500
H 	H 	0.01850 0.61840 0.35940 0.01800
H 	H 	0.04690 0.54820 0.24410 0.08800
H 	H 	0.98950 0.63460 0.24900 0.11600
H 	H 	0.10760 0.70220 0.24090 -0.00400
H 	H 	0.16610 0.61540 0.25000 -0.00100
H 	H 	0.10960 0.69990 0.14070 0.12600
H 	H 	0.14580 0.61150 0.14920 0.11500
H 	H 	0.23520 0.72540 0.07730 0.13600
H 	H 	0.27660 0.64160 0.12010 0.11400
H 	H 	0.25050 0.72360 0.14850 0.11300
H 	H 	0.37460 0.98290 0.91760 0.02900
H 	H 	0.46560 0.93610 0.89120 0.04400
H 	H 	0.36220 0.02000 0.80060 0.10500
H 	H 	0.44440 0.95490 0.78540 0.07400
H 	H 	0.27360 0.90750 0.88040 0.02900
H 	H 	0.35570 0.84290 0.88860 0.02100
H 	H 	0.29740 0.89970 0.78140 0.13000
H 	H 	0.37760 0.84580 0.78450 0.10900
H 	H 	0.21570 0.78970 0.85840 0.14600
H 	H 	0.27100 0.76460 0.79030 0.12200
H 	H 	0.30330 0.73150 0.85810 0.12100
H 	H 	0.56850 0.81400 0.54290 0.05100
H 	H 	0.53520 0.80930 0.48090 0.01300
H 	H 	0.68080 0.70940 0.51900 0.07900
H 	H 	0.64940 0.70560 0.45550 0.05400
H 	H 	0.53750 0.66340 0.59660 0.00900
H 	H 	0.51250 0.65280 0.53250 -0.04000
H 	H 	0.65090 0.56570 0.57040 0.11200
H 	H 	0.60710 0.54850 0.52490 0.06100
H 	H 	0.57430 0.49510 0.65930 0.01500
H 	H 	0.56440 0.44840 0.60640 0.00300
H 	H 	0.49220 0.51860 0.62940 0.00500
H 	H 	0.82260 0.57270 0.00820 0.06200
H 	H 	0.81460 0.54400 0.08830 0.02700
H 	H 	0.71270 0.66540 0.10370 0.04700
H 	H 	0.72120 0.69480 0.02360 0.06300
H 	H 	0.59240 0.62430 0.07700 0.03900
H 	H 	0.65850 0.56470 0.03440 0.04900
H 	H 	0.69880 0.50130 0.14310 0.05600
H 	H 	0.61500 0.54010 0.17620 0.03900
H 	H 	0.56620 0.46560 0.10570 0.11200
H 	H 	0.56190 0.42490 0.18450 0.09600
H 	H 	0.64290 0.40150 0.12720 0.11200
C 	C 	0.06660 0.47260 0.61960 -0.05200
C 	C 	0.98110 0.43120 0.65740 -0.03300
C 	C 	0.96100 0.40170 0.73800 -0.21700
C 	C 	0.88030 0.35290 0.77030 0.05500
C 	C 	0.76500 0.30960 0.87680 -0.30400
C 	C 	0.53130 0.93220 0.13870 -0.05800
C 	C 	0.57530 0.01600 0.12240 -0.03900
C 	C 	0.60550 0.03140 0.17860 -0.18400
C 	C 	0.66920 0.11240 0.14440 0.03600
C 	C 	0.72620 0.22130 0.16890 -0.32300
C 	C 	0.35650 0.12270 0.55150 -0.05900
C 	C 	0.41280 0.19490 0.50340 -0.05100
C 	C 	0.36990 0.28390 0.49880 -0.17300
C 	C 	0.43930 0.35140 0.44750 0.01900
C 	C 	0.44620 0.49810 0.38090 -0.11700
C 	C 	0.11030 0.35170 0.96250 -0.04000
C 	C 	0.18620 0.40640 0.95100 -0.09200
C 	C 	0.27790 0.35500 0.93730 -0.11100
C 	C 	0.35250 0.41060 0.92660 -0.06600
C 	C 	0.40010 0.55360 0.86080 -0.31400
C 	C 	0.93340 0.52740 0.38040 -0.05200
C 	C 	0.01890 0.56880 0.34260 -0.03300
C 	C 	0.03900 0.59830 0.26200 -0.21700
C 	C 	0.11970 0.64710 0.22970 0.05500
C 	C 	0.23500 0.69040 0.12320 -0.30400
C 	C 	0.46870 0.06780 0.86130 -0.05800
C 	C 	0.42470 0.98400 0.87760 -0.03900
C 	C 	0.39450 0.96860 0.82140 -0.18400
C 	C 	0.33080 0.88760 0.85560 0.03600
C 	C 	0.27380 0.77870 0.83110 -0.32300
C 	C 	0.64350 0.87730 0.44850 -0.05900
C 	C 	0.58720 0.80510 0.49660 -0.05100
C 	C 	0.63010 0.71610 0.50120 -0.17300
C 	C 	0.56070 0.64860 0.55250 0.01900
C 	C 	0.55380 0.50190 0.61910 -0.11700
C 	C 	0.88970 0.64830 0.03750 -0.04000
C 	C 	0.81380 0.59360 0.04900 -0.09200
C 	C 	0.72210 0.64500 0.06270 -0.11100
C 	C 	0.64750 0.58940 0.07340 -0.06600
C 	C 	0.59990 0.44640 0.13920 -0.31400
N 	N 	0.85180 0.33900 0.84080 -0.21500
N 	N 	0.67660 0.14210 0.19020 -0.21400
N 	N 	0.40200 0.43500 0.43590 -0.22400
N 	N 	0.35580 0.48050 0.86060 -0.16500
N 	N 	0.14820 0.66100 0.15920 -0.21500
N 	N 	0.32340 0.85790 0.80980 -0.21400
N 	N 	0.59800 0.56500 0.56410 -0.22400
N 	N 	0.64420 0.51950 0.13940 -0.16500
O 	O 	0.18670 0.38270 0.69130 -0.42600
O 	O 	0.62150 0.81170 0.22170 -0.42800
O 	O 	0.23460 0.45830 0.55950 -0.41600
O 	O 	0.02980 0.40520 0.98160 -0.36800
O 	O 	0.30270 0.01870 0.67540 -0.37800
O 	O 	0.55160 0.76940 0.14190 -0.41600
O 	O 	0.00610 0.30470 0.90670 -0.37500
O 	O 	0.11180 0.41110 0.82310 -0.43200
O 	O 	0.27760 0.52890 0.65590 -0.58900
O 	O 	0.41310 0.12000 0.66270 -0.43800
O 	O 	0.06880 0.50210 0.54600 -0.37000
O 	O 	0.10190 0.54600 0.71080 -0.40300
O 	O 	0.50670 0.93250 0.07650 -0.36600
O 	O 	0.68850 0.84500 0.09220 -0.42000
O 	O 	0.16800 0.25470 0.86620 -0.39800
O 	O 	0.15880 0.32220 0.60220 -0.42000
O 	O 	0.25690 0.17850 0.66470 -0.40100
O 	O 	0.18760 0.17930 0.55320 -0.40900
O 	O 	0.83310 0.81660 0.99040 -0.40500
O 	O 	0.27740 0.12030 0.45200 -0.30500
O 	O 	0.99690 0.76330 0.95900 -0.40900
O 	O 	0.06420 0.12350 0.95350 -0.53300
O 	O 	0.27480 0.60090 0.46980 -0.52900
O 	O 	0.15280 0.60880 0.57990 -0.42000
O 	O 	0.20790 0.09140 0.85240 -0.44100
O 	O 	0.23780 0.01970 0.57190 -0.42600
O 	O 	0.89360 0.72510 0.90400 -0.31000
O 	O 	0.09380 0.90940 0.94440 -0.44300
O 	O 	0.09050 0.22010 0.73390 -0.45700
O 	O 	0.60460 0.15590 0.80630 -0.41700
O 	O 	0.41340 0.72690 0.12870 -0.51000
O 	O 	0.12300 0.07930 0.68380 -0.56100
O 	O 	0.99390 0.62870 0.64070 -0.31400
O 	O 	0.86310 0.26540 0.00180 -0.45600
O 	O 	0.87200 0.44170 0.94350 -0.42500
O 	O 	0.41000 0.04100 0.54470 -0.36300
O 	O 	0.63030 0.00230 0.80230 -0.31800
O 	O 	0.90840 0.15500 0.92010 -0.44000
O 	O 	0.88730 0.34900 0.55940 -0.44700
O 	O 	0.47350 0.72190 0.28920 -0.59000
O 	O 	0.13090 0.62210 0.92090 -0.44300
O 	O 	0.64470 0.10980 0.94280 -0.43700
O 	O 	0.14780 0.92670 0.77340 -0.44700
O 	O 	0.51380 0.81530 0.00240 -0.42900
O 	O 	0.55780 0.11730 0.36420 -0.43200
O 	O 	0.37570 0.88600 0.53050 -0.46000
O 	O 	0.54670 0.10720 0.72350 -0.40500
O 	O 	0.19460 0.49640 0.42390 -0.43500
O 	O 	0.26440 0.88160 0.66060 -0.49900
O 	O 	0.81330 0.61730 0.30870 -0.42600
O 	O 	0.37850 0.18830 0.77830 -0.42800
O 	O 	0.76540 0.54170 0.44050 -0.41600
O 	O 	0.97020 0.59480 0.01840 -0.36800
O 	O 	0.69730 0.98130 0.32460 -0.37800
O 	O 	0.44840 0.23060 0.85810 -0.41600
O 	O 	0.99390 0.69530 0.09330 -0.37500
O 	O 	0.88820 0.58890 0.17690 -0.43200
O 	O 	0.72240 0.47110 0.34410 -0.58900
O 	O 	0.58690 0.88000 0.33730 -0.43800
O 	O 	0.93120 0.49790 0.45400 -0.37000
O 	O 	0.89810 0.45400 0.28920 -0.40300
O 	O 	0.49330 0.06750 0.92350 -0.36600
O 	O 	0.31150 0.15500 0.90780 -0.42000
O 	O 	0.83200 0.74530 0.13380 -0.39800
O 	O 	0.84120 0.67780 0.39780 -0.42000
O 	O 	0.74310 0.82150 0.33530 -0.40100
O 	O 	0.81240 0.82070 0.44680 -0.40900
O 	O 	0.16690 0.18340 0.00960 -0.40500
O 	O 	0.72260 0.87970 0.54800 -0.30500
O 	O 	0.00310 0.23670 0.04100 -0.40900
O 	O 	0.93580 0.87650 0.04650 -0.53300
O 	O 	0.72520 0.39910 0.53020 -0.52900
O 	O 	0.84720 0.39120 0.42010 -0.42000
O 	O 	0.79210 0.90860 0.14760 -0.44100
O 	O 	0.76220 0.98030 0.42810 -0.42600
O 	O 	0.10640 0.27490 0.09600 -0.31000
O 	O 	0.90620 0.09060 0.05560 -0.44300
O 	O 	0.90950 0.77990 0.26610 -0.45700
O 	O 	0.39540 0.84410 0.19370 -0.41700
O 	O 	0.58660 0.27310 0.87130 -0.51000
O 	O 	0.87700 0.92070 0.31620 -0.56100
O 	O 	0.00610 0.37130 0.35930 -0.31400
O 	O 	0.13690 0.73460 0.99820 -0.45600
O 	O 	0.12800 0.55830 0.05650 -0.42500
O 	O 	0.59000 0.95900 0.45530 -0.36300
O 	O 	0.36970 0.99770 0.19770 -0.31800
O 	O 	0.09160 0.84500 0.07990 -0.44000
O 	O 	0.11270 0.65100 0.44060 -0.44700
O 	O 	0.52650 0.27810 0.71080 -0.59000
O 	O 	0.86910 0.37790 0.07910 -0.44300
O 	O 	0.35530 0.89020 0.05720 -0.43700
O 	O 	0.85220 0.07330 0.22660 -0.44700
O 	O 	0.48620 0.18470 0.99760 -0.42900
O 	O 	0.44220 0.88270 0.63580 -0.43200
O 	O 	0.62430 0.11400 0.46950 -0.46000
O 	O 	0.45330 0.89280 0.27650 -0.40500
O 	O 	0.80540 0.50360 0.57610 -0.43500
O 	O 	0.73560 0.11840 0.33940 -0.49900
