data_crystal

_cell_length_a 7.90250
_cell_length_b 12.35500
_cell_length_c 12.35500
_cell_angle_alpha 90.00000
_cell_angle_beta  90.00000
_cell_angle_gamma 90.00000

_symmetry_space_group_name_	'P 1'
_symmetry_space_group_name_H-M	'P 1'

loop_
_symmetry_equiv_pos_as_xyz
  x,y,z

loop_
_atom_site_label
_atom_site_type_symbol
_atom_site_fract_x
_atom_site_fract_y
_atom_site_fract_z
_atom_site_charge
Cu	Cu	0.96648 0.32318 0.01525 0.87900
Cu	Cu	0.46648 0.67682 0.98475 0.89100
Cu	Cu	0.21648 0.98475 0.32318 0.89400
Cu	Cu	0.71648 0.01525 0.67682 0.89100
H 	H 	0.81810 0.09810 0.10670 0.15500
H 	H 	0.85280 0.05540 0.22400 0.15700
H 	H 	0.79840 0.22810 0.29400 -0.03400
H 	H 	0.64040 0.18460 0.23020 -0.03600
H 	H 	0.53410 0.36530 0.15840 -0.01600
H 	H 	0.64500 0.39120 0.26080 -0.02700
H 	H 	0.81070 0.50950 0.15880 0.14300
H 	H 	0.62110 0.54650 0.15700 0.13600
H 	H 	0.31810 0.90190 0.89330 0.14500
H 	H 	0.35280 0.94460 0.77600 0.15000
H 	H 	0.29840 0.77190 0.70600 -0.01700
H 	H 	0.14040 0.81540 0.76980 -0.02200
H 	H 	0.03410 0.63470 0.84160 -0.00800
H 	H 	0.14500 0.60880 0.73920 -0.02000
H 	H 	0.31070 0.49050 0.84120 0.15100
H 	H 	0.12110 0.45350 0.84300 0.14200
H 	H 	0.06810 0.89330 0.09810 0.16500
H 	H 	0.10280 0.77600 0.05540 0.16800
H 	H 	0.04840 0.70600 0.22810 -0.03400
H 	H 	0.89040 0.76980 0.18460 -0.06700
H 	H 	0.78410 0.84160 0.36530 -0.01800
H 	H 	0.89500 0.73920 0.39120 -0.03400
H 	H 	0.06070 0.84120 0.50950 0.18000
H 	H 	0.87110 0.84300 0.54650 0.14800
H 	H 	0.56810 0.10670 0.90190 0.14400
H 	H 	0.60280 0.22400 0.94460 0.14900
H 	H 	0.54840 0.29400 0.77190 -0.01900
H 	H 	0.39040 0.23020 0.81540 -0.02600
H 	H 	0.28410 0.15840 0.63470 -0.01200
H 	H 	0.39500 0.26080 0.60880 -0.02300
H 	H 	0.56070 0.15880 0.49050 0.15000
H 	H 	0.37110 0.15700 0.45350 0.13800
C 	C 	0.04590 0.14580 0.16500 0.25100
C 	C 	0.86280 0.11800 0.17710 -0.45600
C 	C 	0.75680 0.20830 0.22290 0.23600
C 	C 	0.64700 0.38450 0.18250 0.21000
C 	C 	0.69870 0.49070 0.13280 -0.39900
C 	C 	0.70090 0.48930 0.01230 0.20200
C 	C 	0.54590 0.85420 0.83500 0.21100
C 	C 	0.36280 0.88200 0.82290 -0.39700
C 	C 	0.25680 0.79170 0.77710 0.20400
C 	C 	0.14700 0.61550 0.81750 0.20400
C 	C 	0.19870 0.50930 0.86720 -0.40000
C 	C 	0.20090 0.51070 0.98770 0.20700
C 	C 	0.29590 0.83500 0.14580 0.22500
C 	C 	0.11280 0.82290 0.11800 -0.44400
C 	C 	0.00680 0.77710 0.20830 0.28400
C 	C 	0.89700 0.81750 0.38450 0.21000
C 	C 	0.94870 0.86720 0.49070 -0.45100
C 	C 	0.95090 0.98770 0.48930 0.20000
C 	C 	0.79590 0.16500 0.85420 0.20900
C 	C 	0.61280 0.17710 0.88200 -0.39900
C 	C 	0.50680 0.22290 0.79170 0.20800
C 	C 	0.39700 0.18250 0.61550 0.20700
C 	C 	0.44870 0.13280 0.50930 -0.40100
C 	C 	0.45090 0.01230 0.51070 0.20800
N 	N 	0.10370 0.22540 0.10070 -0.20700
N 	N 	0.27510 0.22500 0.10810 -0.05200
N 	N 	0.32020 0.14600 0.17260 -0.06500
N 	N 	0.17750 0.09520 0.21040 -0.22200
N 	N 	0.79740 0.42220 0.95430 -0.21600
N 	N 	0.76660 0.44400 0.84910 -0.06000
N 	N 	0.65780 0.52240 0.84320 -0.05600
N 	N 	0.61400 0.55180 0.94650 -0.21500
N 	N 	0.60370 0.77460 0.89930 -0.21100
N 	N 	0.77510 0.77500 0.89190 -0.05900
N 	N 	0.82020 0.85400 0.82740 -0.07100
N 	N 	0.67750 0.90480 0.78960 -0.21800
N 	N 	0.29740 0.57780 0.04570 -0.21300
N 	N 	0.26660 0.55600 0.15090 -0.05500
N 	N 	0.15780 0.47760 0.15680 -0.04800
N 	N 	0.11400 0.44820 0.05350 -0.20500
N 	N 	0.35370 0.89930 0.22540 -0.21300
N 	N 	0.52510 0.89190 0.22500 -0.05400
N 	N 	0.57020 0.82740 0.14600 -0.06700
N 	N 	0.42750 0.78960 0.09520 -0.22000
N 	N 	0.04740 0.04570 0.42220 -0.20200
N 	N 	0.01660 0.15090 0.44400 -0.04000
N 	N 	0.90780 0.15680 0.52240 -0.06900
N 	N 	0.86400 0.05350 0.55180 -0.22000
N 	N 	0.85370 0.10070 0.77460 -0.22100
N 	N 	0.02510 0.10810 0.77500 -0.04100
N 	N 	0.07020 0.17260 0.85400 -0.05600
N 	N 	0.92750 0.21040 0.90480 -0.22900
N 	N 	0.54740 0.95430 0.57780 -0.21400
N 	N 	0.51660 0.84910 0.55600 -0.05700
N 	N 	0.40780 0.84320 0.47760 -0.05300
N 	N 	0.36400 0.94650 0.44820 -0.21400
O 	O 	0.76500 0.30100 0.15130 -0.34600
O 	O 	0.26500 0.69900 0.84870 -0.33400
O 	O 	0.01500 0.84870 0.30100 -0.33400
O 	O 	0.51500 0.15130 0.69900 -0.33500
