data_crystal

_cell_length_a 12.39190
_cell_length_b 12.39190
_cell_length_c 7.90430
_cell_angle_alpha 90.00000
_cell_angle_beta  90.00000
_cell_angle_gamma 90.00000

_symmetry_space_group_name_	'P 1'
_symmetry_space_group_name_H-M	'P 1'

loop_
_symmetry_equiv_pos_as_xyz
  x,y,z

loop_
_atom_site_label
_atom_site_type_symbol
_atom_site_fract_x
_atom_site_fract_y
_atom_site_fract_z
_atom_site_charge
Cu	Cu	0.51429 0.82313 0.80505 0.89100
C 	C 	0.66370 0.64510 0.72270 0.20600
C 	C 	0.67520 0.61850 0.90880 -0.35000
H 	H 	0.71940 0.55430 0.91980 0.13600
H 	H 	0.60440 0.60170 0.95400 0.13300
C 	C 	0.72510 0.70820 0.01550 0.14300
H 	H 	0.73360 0.68480 0.13190 -0.01000
H 	H 	0.79550 0.72800 0.97140 0.00700
C 	C 	0.68080 0.88390 0.12700 0.20000
H 	H 	0.75880 0.88910 0.13390 -0.02400
H 	H 	0.65360 0.86520 0.23830 -0.01300
C 	C 	0.63480 0.99020 0.07310 -0.40800
H 	H 	0.65890 0.04580 0.15090 0.13600
H 	H 	0.66210 0.00810 0.96160 0.15800
C 	C 	0.51530 0.98970 0.06850 0.19300
N 	N 	0.60010 0.72410 0.66690 -0.20700
N 	N 	0.60730 0.72370 0.49650 -0.05400
N 	N 	0.67370 0.64610 0.45260 -0.06600
N 	N 	0.70830 0.59820 0.59460 -0.21500
N 	N 	0.45480 0.92110 0.97680 -0.20400
N 	N 	0.35000 0.94540 0.00570 -0.06100
N 	N 	0.34220 0.02310 0.11340 -0.05800
N 	N 	0.44720 0.05240 0.15850 -0.21300
O 	O 	0.65100 0.80000 0.00610 -0.32400
Cu	Cu	0.48571 0.17687 0.30505 0.88900
C 	C 	0.33630 0.35490 0.22270 0.21100
C 	C 	0.32480 0.38150 0.40880 -0.37600
H 	H 	0.28060 0.44570 0.41980 0.14100
H 	H 	0.39560 0.39830 0.45400 0.13700
C 	C 	0.27490 0.29180 0.51550 0.18000
H 	H 	0.26640 0.31520 0.63190 -0.01900
H 	H 	0.20450 0.27200 0.47140 -0.01100
C 	C 	0.31920 0.11610 0.62700 0.19800
H 	H 	0.24120 0.11090 0.63390 -0.02100
H 	H 	0.34640 0.13480 0.73830 -0.01100
C 	C 	0.36520 0.00980 0.57310 -0.39900
H 	H 	0.34110 0.95420 0.65090 0.13800
H 	H 	0.33790 0.99190 0.46160 0.15100
C 	C 	0.48470 0.01030 0.56850 0.19700
N 	N 	0.39990 0.27590 0.16690 -0.21300
N 	N 	0.39270 0.27630 0.99650 -0.04900
N 	N 	0.32630 0.35390 0.95260 -0.06100
N 	N 	0.29170 0.40180 0.09460 -0.22100
N 	N 	0.54520 0.07890 0.47680 -0.21200
N 	N 	0.65000 0.05460 0.50570 -0.05700
N 	N 	0.65780 0.97690 0.61340 -0.05400
N 	N 	0.55280 0.94760 0.65850 -0.21000
O 	O 	0.34900 0.20000 0.50610 -0.32500
Cu	Cu	0.17687 0.51429 0.05505 0.88600
C 	C 	0.35490 0.66370 0.97270 0.22500
C 	C 	0.38150 0.67520 0.15880 -0.39200
H 	H 	0.44570 0.71940 0.16980 0.14400
H 	H 	0.39830 0.60440 0.20400 0.14100
C 	C 	0.29180 0.72510 0.26550 0.18800
H 	H 	0.31520 0.73360 0.38190 -0.02200
H 	H 	0.27200 0.79550 0.22140 -0.01400
C 	C 	0.11610 0.68080 0.37700 0.19600
H 	H 	0.11090 0.75880 0.38390 -0.02200
H 	H 	0.13480 0.65360 0.48830 -0.01200
C 	C 	0.00980 0.63480 0.32310 -0.39300
H 	H 	0.95420 0.65890 0.40090 0.13400
H 	H 	0.99190 0.66210 0.21160 0.14600
C 	C 	0.01030 0.51530 0.31850 0.19500
N 	N 	0.27590 0.60010 0.91690 -0.20800
N 	N 	0.27630 0.60730 0.74650 -0.05400
N 	N 	0.35390 0.67370 0.70260 -0.06500
N 	N 	0.40180 0.70830 0.84460 -0.21800
N 	N 	0.07890 0.45480 0.22680 -0.21300
N 	N 	0.05460 0.35000 0.25570 -0.05800
N 	N 	0.97690 0.34220 0.36340 -0.05600
N 	N 	0.94760 0.44720 0.40850 -0.21100
O 	O 	0.20000 0.65100 0.25610 -0.32700
Cu	Cu	0.82313 0.48571 0.55505 0.89000
C 	C 	0.64510 0.33630 0.47270 0.21200
C 	C 	0.61850 0.32480 0.65880 -0.37500
H 	H 	0.55430 0.28060 0.66980 0.14200
H 	H 	0.60170 0.39560 0.70400 0.13800
C 	C 	0.70820 0.27490 0.76550 0.17900
H 	H 	0.68480 0.26640 0.88190 -0.01700
H 	H 	0.72800 0.20450 0.72140 -0.01000
C 	C 	0.88390 0.31920 0.87700 0.19500
H 	H 	0.88910 0.24120 0.88390 -0.02000
H 	H 	0.86520 0.34640 0.98830 -0.00900
C 	C 	0.99020 0.36520 0.82310 -0.39600
H 	H 	0.04580 0.34110 0.90090 0.13800
H 	H 	0.00810 0.33790 0.71160 0.15000
C 	C 	0.98970 0.48470 0.81850 0.19700
N 	N 	0.72410 0.39990 0.41690 -0.21000
N 	N 	0.72370 0.39270 0.24650 -0.05600
N 	N 	0.64610 0.32630 0.20260 -0.06800
N 	N 	0.59820 0.29170 0.34460 -0.21700
N 	N 	0.92110 0.54520 0.72680 -0.21200
N 	N 	0.94540 0.65000 0.75570 -0.05600
N 	N 	0.02310 0.65780 0.86340 -0.05300
N 	N 	0.05240 0.55280 0.90850 -0.20800
O 	O 	0.80000 0.34900 0.75610 -0.32300
