data_crystal

_cell_length_a 8.80600
_cell_length_b 15.60310
_cell_length_c 19.23820
_cell_angle_alpha 67.85200
_cell_angle_beta  76.76960
_cell_angle_gamma 73.60920

_symmetry_space_group_name_	'P 1'
_symmetry_space_group_name_H-M	'P 1'

loop_
_symmetry_equiv_pos_as_xyz
  x,y,z

loop_
_atom_site_label
_atom_site_type_symbol
_atom_site_fract_x
_atom_site_fract_y
_atom_site_fract_z
_atom_site_charge
Gd	Gd	0.90772 0.72371 0.78112 1.62400
Gd	Gd	0.41255 0.77629 0.71888 1.63100
Gd	Gd	0.09228 0.27629 0.21888 1.62400
Gd	Gd	0.58745 0.22371 0.28112 1.63100
H 	H 	0.93380 0.43820 0.73940 0.02200
H 	H 	0.95610 0.34930 0.66230 0.06400
H 	H 	0.60100 0.54590 0.55310 0.07100
H 	H 	0.59130 0.64030 0.62410 -0.01500
H 	H 	0.03810 0.37740 0.51300 0.07300
H 	H 	0.06190 0.30590 0.42370 0.00800
H 	H 	0.59290 0.30060 0.47660 0.00500
H 	H 	0.56640 0.37440 0.56560 0.07300
H 	H 	0.55560 0.44010 0.81270 0.02300
H 	H 	0.63660 0.28920 0.80240 0.07100
H 	H 	0.24790 0.33920 0.70280 0.06600
H 	H 	0.16390 0.48910 0.71530 0.02200
H 	H 	0.11140 0.06180 0.76060 0.02600
H 	H 	0.96770 0.15070 0.83770 0.06100
H 	H 	0.70000 0.95410 0.94690 0.06900
H 	H 	0.85570 0.85970 0.87590 -0.01100
H 	H 	0.92850 0.12260 0.98700 0.07500
H 	H 	0.79150 0.19410 0.07630 0.01100
H 	H 	0.37010 0.19940 0.02340 0.00400
H 	H 	0.50640 0.12560 0.93440 0.07400
H 	H 	0.80840 0.05990 0.68730 0.02400
H 	H 	0.72820 0.21080 0.69760 0.07100
H 	H 	0.28990 0.16080 0.79720 0.06500
H 	H 	0.36830 0.01090 0.78470 0.02100
H 	H 	0.06620 0.56180 0.26060 0.02200
H 	H 	0.04390 0.65070 0.33770 0.06400
H 	H 	0.39900 0.45410 0.44690 0.07100
H 	H 	0.40870 0.35970 0.37590 -0.01500
H 	H 	0.96190 0.62260 0.48700 0.07300
H 	H 	0.93810 0.69410 0.57630 0.00800
H 	H 	0.40710 0.69940 0.52340 0.00500
H 	H 	0.43360 0.62560 0.43440 0.07300
H 	H 	0.44440 0.55990 0.18730 0.02300
H 	H 	0.36340 0.71080 0.19760 0.07100
H 	H 	0.75210 0.66080 0.29720 0.06600
H 	H 	0.83610 0.51090 0.28470 0.02200
H 	H 	0.88860 0.93820 0.23940 0.02600
H 	H 	0.03230 0.84930 0.16230 0.06100
H 	H 	0.30000 0.04590 0.05310 0.06900
H 	H 	0.14430 0.14030 0.12410 -0.01100
H 	H 	0.07150 0.87740 0.01300 0.07500
H 	H 	0.20850 0.80590 0.92370 0.01100
H 	H 	0.62990 0.80060 0.97660 0.00400
H 	H 	0.49360 0.87440 0.06560 0.07400
H 	H 	0.19160 0.94010 0.31270 0.02400
H 	H 	0.27180 0.78920 0.30240 0.07100
H 	H 	0.71010 0.83920 0.20280 0.06500
H 	H 	0.63170 0.98910 0.21530 0.02100
C 	C 	0.76654 0.61142 0.73110 0.38500
C 	C 	0.76417 0.54969 0.68757 -0.14700
C 	C 	0.86932 0.46166 0.69990 0.05100
C 	C 	0.88068 0.40790 0.65494 -0.11600
C 	C 	0.78217 0.43934 0.59912 0.04500
C 	C 	0.67212 0.52506 0.58950 -0.12500
C 	C 	0.66467 0.58081 0.63245 0.07300
C 	C 	0.79838 0.38601 0.54683 0.05100
C 	C 	0.94664 0.36333 0.50499 -0.13000
C 	C 	0.96070 0.32051 0.45209 0.08000
C 	C 	0.82937 0.29848 0.43978 -0.17200
C 	C 	0.68285 0.31752 0.48318 0.07300
C 	C 	0.66718 0.36133 0.53631 -0.13000
C 	C 	0.84560 0.25764 0.37856 0.45100
C 	C 	0.29634 0.57595 0.77297 0.43900
C 	C 	0.35133 0.47904 0.76570 -0.15200
C 	C 	0.49201 0.41940 0.79098 0.06000
C 	C 	0.54028 0.32973 0.78471 -0.11400
C 	C 	0.44874 0.29832 0.75260 0.04400
C 	C 	0.30975 0.35910 0.72600 -0.11600
C 	C 	0.26022 0.44866 0.73290 0.05800
C 	C 	0.10906 0.88858 0.76890 0.38000
C 	C 	0.00143 0.95031 0.81243 -0.13100
C 	C 	0.03088 0.03834 0.80010 0.03700
C 	C 	0.94352 0.09210 0.84506 -0.10700
C 	C 	0.82063 0.06066 0.90088 0.04200
C 	C 	0.78668 0.97494 0.91050 -0.12200
C 	C 	0.87793 0.91919 0.86755 0.05800
C 	C 	0.73122 0.11399 0.95317 0.05300
C 	C 	0.81496 0.13667 0.99501 -0.13100
C 	C 	0.73330 0.17949 0.04791 0.07800
C 	C 	0.56763 0.20152 0.06022 -0.17100
C 	C 	0.48355 0.18248 0.01682 0.07200
C 	C 	0.56482 0.13867 0.96369 -0.13000
C 	C 	0.48180 0.24236 0.12144 0.45100
C 	C 	0.64526 0.92405 0.72703 0.43800
C 	C 	0.59607 0.02096 0.73430 -0.15100
C 	C 	0.70239 0.08060 0.70902 0.06000
C 	C 	0.65472 0.17027 0.71529 -0.11400
C 	C 	0.49966 0.20168 0.74740 0.04300
C 	C 	0.39485 0.14090 0.77400 -0.11600
C 	C 	0.44178 0.05134 0.76710 0.05800
C 	C 	0.23346 0.38858 0.26890 0.38500
C 	C 	0.23583 0.45031 0.31243 -0.14700
C 	C 	0.13068 0.53834 0.30010 0.05100
C 	C 	0.11932 0.59210 0.34506 -0.11600
C 	C 	0.21783 0.56066 0.40088 0.04500
C 	C 	0.32788 0.47494 0.41050 -0.12500
C 	C 	0.33533 0.41919 0.36755 0.07300
C 	C 	0.20162 0.61399 0.45317 0.05100
C 	C 	0.05336 0.63667 0.49501 -0.13000
C 	C 	0.03930 0.67949 0.54791 0.08000
C 	C 	0.17063 0.70152 0.56022 -0.17200
C 	C 	0.31715 0.68248 0.51682 0.07300
C 	C 	0.33282 0.63867 0.46369 -0.13000
C 	C 	0.15440 0.74236 0.62144 0.45100
C 	C 	0.70366 0.42405 0.22703 0.43900
C 	C 	0.64867 0.52096 0.23430 -0.15200
C 	C 	0.50799 0.58060 0.20902 0.06000
C 	C 	0.45972 0.67027 0.21529 -0.11400
C 	C 	0.55126 0.70168 0.24740 0.04400
C 	C 	0.69025 0.64090 0.27400 -0.11600
C 	C 	0.73978 0.55134 0.26710 0.05800
C 	C 	0.89094 0.11142 0.23110 0.38000
C 	C 	0.99857 0.04969 0.18757 -0.13100
C 	C 	0.96912 0.96166 0.19990 0.03700
C 	C 	0.05648 0.90790 0.15494 -0.10700
C 	C 	0.17937 0.93934 0.09912 0.04200
C 	C 	0.21332 0.02506 0.08950 -0.12200
C 	C 	0.12207 0.08081 0.13245 0.05800
C 	C 	0.26878 0.88601 0.04683 0.05300
C 	C 	0.18504 0.86333 0.00499 -0.13100
C 	C 	0.26670 0.82051 0.95209 0.07800
C 	C 	0.43237 0.79848 0.93978 -0.17100
C 	C 	0.51645 0.81752 0.98318 0.07200
C 	C 	0.43518 0.86133 0.03631 -0.13000
C 	C 	0.51820 0.75764 0.87856 0.45100
C 	C 	0.35474 0.07595 0.27297 0.43800
C 	C 	0.40393 0.97904 0.26570 -0.15100
C 	C 	0.29761 0.91940 0.29098 0.06000
C 	C 	0.34528 0.82973 0.28471 -0.11400
C 	C 	0.50034 0.79832 0.25260 0.04300
C 	C 	0.60515 0.85910 0.22600 -0.11600
C 	C 	0.55822 0.94866 0.23290 0.05800
O 	O 	0.85635 0.57886 0.78140 -0.41000
O 	O 	0.68867 0.69685 0.71289 -0.48700
O 	O 	0.98471 0.23773 0.34483 -0.44900
O 	O 	0.72096 0.24712 0.36384 -0.47200
O 	O 	0.14882 0.61028 0.77768 -0.45600
O 	O 	0.40117 0.61650 0.77332 -0.44300
O 	O 	0.21661 0.92114 0.71860 -0.40800
O 	O 	0.09841 0.80315 0.78711 -0.48400
O 	O 	0.56727 0.26227 0.15517 -0.45100
O 	O 	0.33192 0.25288 0.13616 -0.47200
O 	O 	0.53678 0.88972 0.72232 -0.45700
O 	O 	0.79099 0.88350 0.72668 -0.44400
O 	O 	0.14365 0.42114 0.21860 -0.41000
O 	O 	0.31133 0.30315 0.28711 -0.48700
O 	O 	0.01529 0.76227 0.65517 -0.44900
O 	O 	0.27904 0.75288 0.63616 -0.47200
O 	O 	0.85118 0.38972 0.22232 -0.45600
O 	O 	0.59883 0.38350 0.22668 -0.44300
O 	O 	0.78339 0.07886 0.28140 -0.40800
O 	O 	0.90159 0.19685 0.21289 -0.48400
O 	O 	0.43273 0.73773 0.84483 -0.45100
O 	O 	0.66808 0.74712 0.86384 -0.47200
O 	O 	0.46322 0.11028 0.27768 -0.45700
O 	O 	0.20901 0.11650 0.27332 -0.44400
