data_crystal

_cell_length_a 19.02890
_cell_length_b 19.02890
_cell_length_c 21.91070
_cell_angle_alpha 90.00000
_cell_angle_beta  90.00000
_cell_angle_gamma 90.00000

_symmetry_space_group_name_	'P 1'
_symmetry_space_group_name_H-M	'P 1'

loop_
_symmetry_equiv_pos_as_xyz
  x,y,z

loop_
_atom_site_label
_atom_site_type_symbol
_atom_site_fract_x
_atom_site_fract_y
_atom_site_fract_z
_atom_site_charge
Cu	Cu	0.78601 0.77732 0.58260 0.90500
Cu	Cu	0.27773 0.28672 0.67501 0.90200
Cu	Cu	0.21399 0.22268 0.58260 0.90500
Cu	Cu	0.72227 0.71328 0.67501 0.90200
Cu	Cu	0.22268 0.78601 0.58260 0.90500
Cu	Cu	0.71328 0.27773 0.67501 0.90200
Cu	Cu	0.77732 0.21399 0.58260 0.90500
Cu	Cu	0.28672 0.72227 0.67501 0.90200
H 	H 	0.10980 0.69240 0.79040 0.06900
H 	H 	0.00370 0.75100 0.64020 0.06000
H 	H 	0.89860 0.69020 0.79030 0.06800
H 	H 	0.25740 0.50450 0.61270 0.06200
H 	H 	0.18790 0.40200 0.46410 0.07000
H 	H 	0.19260 0.61310 0.46580 0.07100
H 	H 	0.89020 0.30760 0.79040 0.07000
H 	H 	0.99630 0.24900 0.64020 0.06100
H 	H 	0.10140 0.30980 0.79030 0.06900
H 	H 	0.74260 0.49550 0.61270 0.06300
H 	H 	0.81210 0.59800 0.46410 0.07000
H 	H 	0.80740 0.38690 0.46580 0.07100
H 	H 	0.30760 0.10980 0.79040 0.07000
H 	H 	0.24900 0.00370 0.64020 0.06100
H 	H 	0.30980 0.89860 0.79030 0.06800
H 	H 	0.49550 0.25740 0.61270 0.06300
H 	H 	0.59800 0.18790 0.46410 0.07000
H 	H 	0.38690 0.19260 0.46580 0.07100
H 	H 	0.69240 0.89020 0.79040 0.07000
H 	H 	0.75100 0.99630 0.64020 0.06100
H 	H 	0.69020 0.10140 0.79030 0.06900
H 	H 	0.50450 0.74260 0.61270 0.06300
H 	H 	0.40200 0.81210 0.46410 0.07000
H 	H 	0.61310 0.80740 0.46580 0.07100
C 	C 	0.03720 0.55970 0.95210 -0.00800
C 	C 	0.05530 0.58400 0.00980 0.00600
C 	C 	0.06210 0.53700 0.05800 -0.00400
C 	C 	0.05060 0.46570 0.04850 0.01700
C 	C 	0.96760 0.55860 0.99080 -0.01100
C 	C 	0.02570 0.48840 0.94260 0.00400
C 	C 	0.23040 0.36970 0.57750 0.37600
C 	C 	0.12570 0.49010 0.27650 0.01500
C 	C 	0.17290 0.47470 0.23000 -0.03400
C 	C 	0.14830 0.45140 0.17370 0.11600
C 	C 	0.07660 0.44360 0.16400 -0.01700
C 	C 	0.02940 0.45900 0.21050 0.01000
C 	C 	0.05390 0.48230 0.26680 -0.00500
C 	C 	0.00430 0.68740 0.80030 0.03400
C 	C 	0.06740 0.69990 0.77030 -0.04500
C 	C 	0.06719 0.72380 0.71040 -0.05900
C 	C 	0.00380 0.73510 0.68040 0.00800
C 	C 	0.94068 0.72250 0.71030 -0.06200
C 	C 	0.94090 0.69860 0.77030 -0.04100
C 	C 	0.23940 0.50530 0.57320 -0.00200
C 	C 	0.22460 0.44260 0.54320 -0.05000
C 	C 	0.19780 0.44390 0.48420 -0.04900
C 	C 	0.18580 0.50770 0.45520 0.03800
C 	C 	0.20060 0.57040 0.48520 -0.04900
C 	C 	0.22740 0.56910 0.54420 -0.05200
C 	C 	0.13670 0.73450 0.68170 0.32800
C 	C 	0.87360 0.73240 0.67750 0.34000
C 	C 	0.24040 0.63970 0.57870 0.37500
C 	C 	0.16820 0.49700 0.39040 -0.02000
C 	C 	0.97930 0.63290 0.98360 0.00800
C 	C 	0.95850 0.45200 0.19870 -0.00200
C 	C 	0.15770 0.49750 0.33650 0.00600
C 	C 	0.06910 0.50780 0.30090 -0.00700
C 	C 	0.09300 0.53780 0.24570 -0.00100
C 	C 	0.00890 0.64940 0.85870 -0.02000
C 	C 	0.02020 0.60920 0.90180 0.00700
C 	C 	0.06190 0.42090 0.09830 -0.01500
C 	C 	0.97060 0.68000 0.03100 -0.02300
C 	C 	0.05000 0.34930 0.08880 0.11900
C 	C 	0.97970 0.27770 0.19800 -0.02100
C 	C 	0.01760 0.29700 0.25000 0.01900
C 	C 	0.98300 0.32300 0.30070 -0.00800
C 	C 	0.91000 0.32930 0.30020 0.00100
C 	C 	0.87220 0.31000 0.24900 -0.00200
C 	C 	0.90700 0.28400 0.19750 0.00800
C 	C 	0.02000 0.25040 0.14300 0.08400
C 	C 	0.24250 0.55130 0.12200 -0.01800
C 	C 	0.27960 0.60880 0.14420 0.00500
C 	C 	0.25250 0.67610 0.13730 0.00500
C 	C 	0.18840 0.68600 0.10820 0.00600
C 	C 	0.15120 0.62900 0.08610 -0.00800
C 	C 	0.17830 0.56110 0.09300 0.02300
C 	C 	0.26360 0.47020 0.12540 0.08400
C 	C 	0.96280 0.44030 0.95210 -0.00800
C 	C 	0.94470 0.41600 0.00980 0.00600
C 	C 	0.93790 0.46300 0.05800 -0.00400
C 	C 	0.94940 0.53430 0.04850 0.01700
C 	C 	0.03240 0.44140 0.99080 -0.01100
C 	C 	0.97430 0.51160 0.94260 0.00500
C 	C 	0.76960 0.63030 0.57750 0.37600
C 	C 	0.87430 0.50990 0.27650 0.01500
C 	C 	0.82710 0.52530 0.23000 -0.03400
C 	C 	0.85170 0.54860 0.17370 0.11600
C 	C 	0.92340 0.55640 0.16400 -0.01700
C 	C 	0.97060 0.54100 0.21050 0.01000
C 	C 	0.94610 0.51770 0.26680 -0.00500
C 	C 	0.99570 0.31260 0.80030 0.03500
C 	C 	0.93260 0.30010 0.77030 -0.04500
C 	C 	0.93281 0.27620 0.71040 -0.05900
C 	C 	0.99620 0.26490 0.68040 0.00800
C 	C 	0.05932 0.27750 0.71030 -0.06200
C 	C 	0.05910 0.30140 0.77030 -0.04100
C 	C 	0.76060 0.49470 0.57320 -0.00200
C 	C 	0.77540 0.55740 0.54320 -0.05000
C 	C 	0.80220 0.55610 0.48420 -0.04900
C 	C 	0.81420 0.49230 0.45520 0.03800
C 	C 	0.79940 0.42960 0.48520 -0.04900
C 	C 	0.77260 0.43090 0.54420 -0.05200
C 	C 	0.86330 0.26550 0.68170 0.32800
C 	C 	0.12640 0.26760 0.67750 0.34000
C 	C 	0.75960 0.36030 0.57870 0.37500
C 	C 	0.83180 0.50300 0.39040 -0.02000
C 	C 	0.02070 0.36710 0.98360 0.00800
C 	C 	0.04150 0.54800 0.19870 -0.00200
C 	C 	0.84230 0.50250 0.33650 0.00600
C 	C 	0.93090 0.49220 0.30090 -0.00700
C 	C 	0.90700 0.46220 0.24570 -0.00100
C 	C 	0.99110 0.35060 0.85870 -0.02000
C 	C 	0.97980 0.39080 0.90180 0.00800
C 	C 	0.93810 0.57910 0.09830 -0.01500
C 	C 	0.02940 0.32000 0.03100 -0.02300
C 	C 	0.95000 0.65070 0.08880 0.11900
C 	C 	0.02030 0.72230 0.19800 -0.02100
C 	C 	0.98240 0.70300 0.25000 0.02000
C 	C 	0.01700 0.67700 0.30070 -0.00800
C 	C 	0.09000 0.67070 0.30020 0.00100
C 	C 	0.12780 0.69000 0.24900 -0.00200
C 	C 	0.09300 0.71600 0.19750 0.00800
C 	C 	0.98000 0.74960 0.14300 0.08500
C 	C 	0.75750 0.44870 0.12200 -0.01800
C 	C 	0.72040 0.39120 0.14420 0.00500
C 	C 	0.74750 0.32390 0.13730 0.00500
C 	C 	0.81160 0.31400 0.10820 0.00600
C 	C 	0.84880 0.37100 0.08610 -0.00800
C 	C 	0.82170 0.43890 0.09300 0.02300
C 	C 	0.73640 0.52980 0.12540 0.08400
C 	C 	0.44030 0.03720 0.95210 -0.00800
C 	C 	0.41600 0.05530 0.00980 0.00600
C 	C 	0.46300 0.06210 0.05800 -0.00400
C 	C 	0.53430 0.05060 0.04850 0.01700
C 	C 	0.44140 0.96760 0.99080 -0.01100
C 	C 	0.51160 0.02570 0.94260 0.00400
C 	C 	0.63030 0.23040 0.57750 0.37600
C 	C 	0.50990 0.12570 0.27650 0.01500
C 	C 	0.52530 0.17290 0.23000 -0.03400
C 	C 	0.54860 0.14830 0.17370 0.11600
C 	C 	0.55640 0.07660 0.16400 -0.01700
C 	C 	0.54100 0.02940 0.21050 0.01000
C 	C 	0.51770 0.05390 0.26680 -0.00500
C 	C 	0.31260 0.00430 0.80030 0.03400
C 	C 	0.30010 0.06740 0.77030 -0.04500
C 	C 	0.27620 0.06719 0.71040 -0.05900
C 	C 	0.26490 0.00380 0.68040 0.00800
C 	C 	0.27750 0.94068 0.71030 -0.06200
C 	C 	0.30140 0.94090 0.77030 -0.04100
C 	C 	0.49470 0.23940 0.57320 -0.00200
C 	C 	0.55740 0.22460 0.54320 -0.05000
C 	C 	0.55610 0.19780 0.48420 -0.04900
C 	C 	0.49230 0.18580 0.45520 0.03800
C 	C 	0.42960 0.20060 0.48520 -0.04900
C 	C 	0.43090 0.22740 0.54420 -0.05200
C 	C 	0.26550 0.13670 0.68170 0.32800
C 	C 	0.26760 0.87360 0.67750 0.34000
C 	C 	0.36030 0.24040 0.57870 0.37500
C 	C 	0.50300 0.16820 0.39040 -0.02000
C 	C 	0.36710 0.97930 0.98360 0.00800
C 	C 	0.54800 0.95850 0.19870 -0.00200
C 	C 	0.50250 0.15770 0.33650 0.00600
C 	C 	0.49220 0.06910 0.30090 -0.00700
C 	C 	0.46220 0.09300 0.24570 -0.00100
C 	C 	0.35060 0.00890 0.85870 -0.02000
C 	C 	0.39080 0.02020 0.90180 0.00700
C 	C 	0.57910 0.06190 0.09830 -0.01500
C 	C 	0.32000 0.97060 0.03100 -0.02300
C 	C 	0.65070 0.05000 0.08880 0.11900
C 	C 	0.72230 0.97970 0.19800 -0.02100
C 	C 	0.70300 0.01760 0.25000 0.02000
C 	C 	0.67700 0.98300 0.30070 -0.00800
C 	C 	0.67070 0.91000 0.30020 0.00100
C 	C 	0.69000 0.87220 0.24900 -0.00200
C 	C 	0.71600 0.90700 0.19750 0.00800
C 	C 	0.74960 0.02000 0.14300 0.08400
C 	C 	0.44870 0.24250 0.12200 -0.01800
C 	C 	0.39120 0.27960 0.14420 0.00500
C 	C 	0.32390 0.25250 0.13730 0.00500
C 	C 	0.31400 0.18840 0.10820 0.00600
C 	C 	0.37100 0.15120 0.08610 -0.00800
C 	C 	0.43890 0.17830 0.09300 0.02300
C 	C 	0.52980 0.26360 0.12540 0.08400
C 	C 	0.55970 0.96280 0.95210 -0.00800
C 	C 	0.58400 0.94470 0.00980 0.00600
C 	C 	0.53700 0.93790 0.05800 -0.00400
C 	C 	0.46570 0.94940 0.04850 0.01700
C 	C 	0.55860 0.03240 0.99080 -0.01100
C 	C 	0.48840 0.97430 0.94260 0.00500
C 	C 	0.36970 0.76960 0.57750 0.37600
C 	C 	0.49010 0.87430 0.27650 0.01500
C 	C 	0.47470 0.82710 0.23000 -0.03400
C 	C 	0.45140 0.85170 0.17370 0.11600
C 	C 	0.44360 0.92340 0.16400 -0.01700
C 	C 	0.45900 0.97060 0.21050 0.01000
C 	C 	0.48230 0.94610 0.26680 -0.00500
C 	C 	0.68740 0.99570 0.80030 0.03500
C 	C 	0.69990 0.93260 0.77030 -0.04500
C 	C 	0.72380 0.93281 0.71040 -0.05900
C 	C 	0.73510 0.99620 0.68040 0.00800
C 	C 	0.72250 0.05932 0.71030 -0.06200
C 	C 	0.69860 0.05910 0.77030 -0.04100
C 	C 	0.50530 0.76060 0.57320 -0.00200
C 	C 	0.44260 0.77540 0.54320 -0.05000
C 	C 	0.44390 0.80220 0.48420 -0.04900
C 	C 	0.50770 0.81420 0.45520 0.03800
C 	C 	0.57040 0.79940 0.48520 -0.04900
C 	C 	0.56910 0.77260 0.54420 -0.05200
C 	C 	0.73450 0.86330 0.68170 0.32800
C 	C 	0.73240 0.12640 0.67750 0.34000
C 	C 	0.63970 0.75960 0.57870 0.37500
C 	C 	0.49700 0.83180 0.39040 -0.02000
C 	C 	0.63290 0.02070 0.98360 0.00800
C 	C 	0.45200 0.04150 0.19870 -0.00200
C 	C 	0.49750 0.84230 0.33650 0.00600
C 	C 	0.50780 0.93090 0.30090 -0.00700
C 	C 	0.53780 0.90700 0.24570 -0.00100
C 	C 	0.64940 0.99110 0.85870 -0.02000
C 	C 	0.60920 0.97980 0.90180 0.00800
C 	C 	0.42090 0.93810 0.09830 -0.01500
C 	C 	0.68000 0.02940 0.03100 -0.02300
C 	C 	0.34930 0.95000 0.08880 0.11900
C 	C 	0.27770 0.02030 0.19800 -0.02100
C 	C 	0.29700 0.98240 0.25000 0.02000
C 	C 	0.32300 0.01700 0.30070 -0.00800
C 	C 	0.32930 0.09000 0.30020 0.00100
C 	C 	0.31000 0.12780 0.24900 -0.00200
C 	C 	0.28400 0.09300 0.19750 0.00800
C 	C 	0.25040 0.98000 0.14300 0.08500
C 	C 	0.55130 0.75750 0.12200 -0.01800
C 	C 	0.60880 0.72040 0.14420 0.00500
C 	C 	0.67610 0.74750 0.13730 0.00500
C 	C 	0.68600 0.81160 0.10820 0.00600
C 	C 	0.62900 0.84880 0.08610 -0.00800
C 	C 	0.56110 0.82170 0.09300 0.02300
C 	C 	0.47020 0.73640 0.12540 0.08400
C 	C 	-0.00000 0.50000 0.31320 0.00700
C 	C 	0.50000 -0.00000 0.31320 0.00700
O 	O 	0.26390 0.37280 0.62760 -0.40600
O 	O 	0.87480 0.76410 0.62740 -0.39400
O 	O 	0.13400 0.76760 0.62830 -0.37300
O 	O 	0.26830 0.63680 0.62700 -0.42500
O 	O 	0.81960 0.70910 0.70570 -0.39800
O 	O 	0.20660 0.31950 0.55280 -0.42800
O 	O 	0.21890 0.69320 0.54880 -0.41400
O 	O 	0.19010 0.71490 0.70800 -0.40100
O 	O 	0.07540 0.30210 0.12980 -0.19500
O 	O 	0.19310 0.43830 0.12330 -0.19100
O 	O 	0.73610 0.62720 0.62760 -0.40600
O 	O 	0.12520 0.23590 0.62740 -0.39400
O 	O 	0.86600 0.23240 0.62830 -0.37300
O 	O 	0.73170 0.36320 0.62700 -0.42500
O 	O 	0.18040 0.29090 0.70570 -0.39800
O 	O 	0.79340 0.68050 0.55280 -0.42800
O 	O 	0.78110 0.30680 0.54880 -0.41400
O 	O 	0.80990 0.28510 0.70800 -0.40100
O 	O 	0.92460 0.69790 0.12980 -0.19500
O 	O 	0.80690 0.56170 0.12330 -0.19100
O 	O 	0.62720 0.26390 0.62760 -0.40600
O 	O 	0.23590 0.87480 0.62740 -0.39400
O 	O 	0.23240 0.13400 0.62830 -0.37300
O 	O 	0.36320 0.26830 0.62700 -0.42500
O 	O 	0.29090 0.81960 0.70570 -0.39800
O 	O 	0.68050 0.20660 0.55280 -0.42800
O 	O 	0.30680 0.21890 0.54880 -0.41400
O 	O 	0.28510 0.19010 0.70800 -0.40100
O 	O 	0.69790 0.07540 0.12980 -0.19500
O 	O 	0.56170 0.19310 0.12330 -0.19100
O 	O 	0.37280 0.73610 0.62760 -0.40600
O 	O 	0.76410 0.12520 0.62740 -0.39400
O 	O 	0.76760 0.86600 0.62830 -0.37300
O 	O 	0.63680 0.73170 0.62700 -0.42500
O 	O 	0.70910 0.18040 0.70570 -0.39800
O 	O 	0.31950 0.79340 0.55280 -0.42800
O 	O 	0.69320 0.78110 0.54880 -0.41400
O 	O 	0.71490 0.80990 0.70800 -0.40100
O 	O 	0.30210 0.92460 0.12980 -0.19500
O 	O 	0.43830 0.80690 0.12330 -0.19100
