data_crystal

_cell_length_a 19.23470
_cell_length_b 13.25630
_cell_length_c 16.75590
_cell_angle_alpha 90.00000
_cell_angle_beta  123.90900
_cell_angle_gamma 90.00000

_symmetry_space_group_name_	'P 1'
_symmetry_space_group_name_H-M	'P 1'

loop_
_symmetry_equiv_pos_as_xyz
  x,y,z

loop_
_atom_site_label
_atom_site_type_symbol
_atom_site_fract_x
_atom_site_fract_y
_atom_site_fract_z
_atom_site_charge
Ce	Ce	0.22168 0.42268 0.26802 2.04000
O 	O 	0.26909 0.25668 0.23560 -0.52400
O 	O 	0.24354 0.09614 0.18890 -0.59700
O 	O 	0.86840 0.11740 0.93041 -0.50100
O 	O 	0.86056 0.27500 0.97210 -0.55100
H 	H 	0.81010 0.26570 0.93430 0.31800
O 	O 	0.20838 0.27050 0.36040 -0.48400
O 	O 	0.18045 0.11580 0.38470 -0.31900
N 	N 	0.10629 0.29930 0.13710 -0.22200
N 	N 	0.02321 0.29980 0.08120 -0.13200
H 	H 	0.99280 0.35190 0.07160 0.07100
N 	N 	0.04200 0.32380 0.27700 -0.12200
H 	H 	0.07360 0.37630 0.29710 0.00800
C 	C 	0.12920 0.20520 0.13220 -0.11800
C 	C 	0.05990 0.14450 0.07290 0.02100
H 	H 	0.05920 0.07680 0.05800 0.01200
C 	C 	0.99220 0.20830 0.04100 -0.06400
C 	C 	0.22070 0.18360 0.19020 0.41200
C 	C 	0.90120 0.19470 0.97550 0.42500
C 	C 	0.15820 0.20190 0.35110 0.35700
C 	C 	0.06840 0.22780 0.29410 -0.06100
Ce	Ce	0.72168 0.92268 0.26802 2.04000
O 	O 	0.76909 0.75668 0.23560 -0.52400
O 	O 	0.74354 0.59614 0.18890 -0.59900
O 	O 	0.36840 0.61740 0.93041 -0.50000
O 	O 	0.36056 0.77500 0.97210 -0.54900
H 	H 	0.31010 0.76570 0.93430 0.31900
O 	O 	0.70838 0.77050 0.36040 -0.48300
O 	O 	0.68045 0.61580 0.38470 -0.31800
N 	N 	0.60629 0.79930 0.13710 -0.22100
N 	N 	0.52321 0.79980 0.08120 -0.12700
H 	H 	0.49280 0.85190 0.07160 0.06800
N 	N 	0.54200 0.82380 0.27700 -0.12100
H 	H 	0.57360 0.87630 0.29710 0.00900
C 	C 	0.62920 0.70520 0.13220 -0.12100
C 	C 	0.55990 0.64450 0.07290 0.02900
H 	H 	0.55920 0.57680 0.05800 0.00800
C 	C 	0.49220 0.70830 0.04100 -0.07600
C 	C 	0.72070 0.68360 0.19020 0.41400
C 	C 	0.40120 0.69470 0.97550 0.43300
C 	C 	0.65820 0.70190 0.35110 0.35800
C 	C 	0.56840 0.72780 0.29410 -0.06300
Ce	Ce	0.77832 0.42268 0.23198 2.04100
O 	O 	0.73091 0.25668 0.26440 -0.52300
O 	O 	0.75646 0.09614 0.31110 -0.59700
O 	O 	0.13160 0.11740 0.56959 -0.50100
O 	O 	0.13944 0.27500 0.52790 -0.55200
H 	H 	0.18990 0.26570 0.56570 0.31900
O 	O 	0.79162 0.27050 0.13960 -0.48200
O 	O 	0.81955 0.11580 0.11530 -0.31600
N 	N 	0.89371 0.29930 0.36290 -0.22000
N 	N 	0.97679 0.29980 0.41880 -0.12300
H 	H 	0.00720 0.35190 0.42840 0.06600
N 	N 	0.95800 0.32380 0.22300 -0.12100
H 	H 	0.92640 0.37630 0.20290 0.00900
C 	C 	0.87080 0.20520 0.36780 -0.12200
C 	C 	0.94010 0.14450 0.42710 0.03300
H 	H 	0.94080 0.07680 0.44200 0.00800
C 	C 	0.00780 0.20830 0.45900 -0.07900
C 	C 	0.77930 0.18360 0.30980 0.41400
C 	C 	0.09880 0.19470 0.52450 0.43300
C 	C 	0.84180 0.20190 0.14890 0.35600
C 	C 	0.93160 0.22780 0.20590 -0.05800
Ce	Ce	0.27832 0.92268 0.23198 2.04000
O 	O 	0.23091 0.75668 0.26440 -0.52400
O 	O 	0.25646 0.59614 0.31110 -0.59900
O 	O 	0.63160 0.61740 0.56959 -0.50000
O 	O 	0.63944 0.77500 0.52790 -0.55000
H 	H 	0.68990 0.76570 0.56570 0.31900
O 	O 	0.29162 0.77050 0.13960 -0.48400
O 	O 	0.31955 0.61580 0.11530 -0.31900
N 	N 	0.39371 0.79930 0.36290 -0.22000
N 	N 	0.47679 0.79980 0.41880 -0.12700
H 	H 	0.50720 0.85190 0.42840 0.07000
N 	N 	0.45800 0.82380 0.22300 -0.12100
H 	H 	0.42640 0.87630 0.20290 0.00800
C 	C 	0.37080 0.70520 0.36780 -0.12000
C 	C 	0.44010 0.64450 0.42710 0.02800
H 	H 	0.44080 0.57680 0.44200 0.00900
C 	C 	0.50780 0.70830 0.45900 -0.07200
C 	C 	0.27930 0.68360 0.30980 0.41400
C 	C 	0.59880 0.69470 0.52450 0.43000
C 	C 	0.34180 0.70190 0.14890 0.35700
C 	C 	0.43160 0.72780 0.20590 -0.06300
Ce	Ce	0.77832 0.57732 0.73198 2.04100
O 	O 	0.73091 0.74332 0.76440 -0.52300
O 	O 	0.75646 0.90386 0.81110 -0.59700
O 	O 	0.13160 0.88260 0.06959 -0.50100
O 	O 	0.13944 0.72500 0.02790 -0.55100
H 	H 	0.18990 0.73430 0.06570 0.31900
O 	O 	0.79162 0.72950 0.63960 -0.48300
O 	O 	0.81955 0.88420 0.61530 -0.31700
N 	N 	0.89371 0.70070 0.86290 -0.22000
N 	N 	0.97679 0.70020 0.91880 -0.12500
H 	H 	0.00720 0.64810 0.92840 0.06700
N 	N 	0.95800 0.67620 0.72300 -0.12100
H 	H 	0.92640 0.62370 0.70290 0.00900
C 	C 	0.87080 0.79480 0.86780 -0.12000
C 	C 	0.94010 0.85550 0.92710 0.03000
H 	H 	0.94080 0.92320 0.94200 0.01000
C 	C 	0.00780 0.79170 0.95900 -0.07400
C 	C 	0.77930 0.81640 0.80980 0.41300
C 	C 	0.09880 0.80530 0.02450 0.42800
C 	C 	0.84180 0.79810 0.64890 0.35700
C 	C 	0.93160 0.77220 0.70590 -0.06000
Ce	Ce	0.27832 0.07732 0.73198 2.04000
O 	O 	0.23091 0.24332 0.76440 -0.52500
O 	O 	0.25646 0.40386 0.81110 -0.59900
O 	O 	0.63160 0.38260 0.06959 -0.50000
O 	O 	0.63944 0.22500 0.02790 -0.54900
H 	H 	0.68990 0.23430 0.06570 0.31900
O 	O 	0.29162 0.22950 0.63960 -0.48300
O 	O 	0.31955 0.38420 0.61530 -0.31800
N 	N 	0.39371 0.20070 0.86290 -0.22100
N 	N 	0.47679 0.20020 0.91880 -0.12700
H 	H 	0.50720 0.14810 0.92840 0.06800
N 	N 	0.45800 0.17620 0.72300 -0.12100
H 	H 	0.42640 0.12370 0.70290 0.00900
C 	C 	0.37080 0.29480 0.86780 -0.12100
C 	C 	0.44010 0.35550 0.92710 0.02900
H 	H 	0.44080 0.42320 0.94200 0.00800
C 	C 	0.50780 0.29170 0.95900 -0.07600
C 	C 	0.27930 0.31640 0.80980 0.41400
C 	C 	0.59880 0.30530 0.02450 0.43300
C 	C 	0.34180 0.29810 0.64890 0.35800
C 	C 	0.43160 0.27220 0.70590 -0.06300
Ce	Ce	0.22168 0.57732 0.76802 2.04100
O 	O 	0.26909 0.74332 0.73560 -0.52300
O 	O 	0.24354 0.90386 0.68890 -0.59700
O 	O 	0.86840 0.88260 0.43041 -0.50000
O 	O 	0.86056 0.72500 0.47210 -0.55000
H 	H 	0.81010 0.73430 0.43430 0.31900
O 	O 	0.20838 0.72950 0.86040 -0.48300
O 	O 	0.18045 0.88420 0.88470 -0.31600
N 	N 	0.10629 0.70070 0.63710 -0.22100
N 	N 	0.02321 0.70020 0.58120 -0.13000
H 	H 	0.99280 0.64810 0.57160 0.07100
N 	N 	0.04200 0.67620 0.77700 -0.12200
H 	H 	0.07360 0.62370 0.79710 0.00800
C 	C 	0.12920 0.79480 0.63220 -0.11900
C 	C 	0.05990 0.85550 0.57290 0.02500
H 	H 	0.05920 0.92320 0.55800 0.01000
C 	C 	0.99220 0.79170 0.54100 -0.07000
C 	C 	0.22070 0.81640 0.69020 0.41300
C 	C 	0.90120 0.80530 0.47550 0.43000
C 	C 	0.15820 0.79810 0.85110 0.35700
C 	C 	0.06840 0.77220 0.79410 -0.06100
Ce	Ce	0.72168 0.07732 0.76802 2.04000
O 	O 	0.76909 0.24332 0.73560 -0.52400
O 	O 	0.74354 0.40386 0.68890 -0.59900
O 	O 	0.36840 0.38260 0.43041 -0.50000
O 	O 	0.36056 0.22500 0.47210 -0.55000
H 	H 	0.31010 0.23430 0.43430 0.31900
O 	O 	0.70838 0.22950 0.86040 -0.48400
O 	O 	0.68045 0.38420 0.88470 -0.31900
N 	N 	0.60629 0.20070 0.63710 -0.22000
N 	N 	0.52321 0.20020 0.58120 -0.12700
H 	H 	0.49280 0.14810 0.57160 0.07000
N 	N 	0.54200 0.17620 0.77700 -0.12100
H 	H 	0.57360 0.12370 0.79710 0.00800
C 	C 	0.62920 0.29480 0.63220 -0.12000
C 	C 	0.55990 0.35550 0.57290 0.02800
H 	H 	0.55920 0.42320 0.55800 0.00900
C 	C 	0.49220 0.29170 0.54100 -0.07200
C 	C 	0.72070 0.31640 0.69020 0.41400
C 	C 	0.40120 0.30530 0.47550 0.43000
C 	C 	0.65820 0.29810 0.85110 0.35700
C 	C 	0.56840 0.27220 0.79410 -0.06300
C 	C 	0.00000 0.16460 0.25000 0.02300
H 	H 	0.00000 0.09440 0.25000 0.02000
C 	C 	0.50000 0.66460 0.25000 0.02800
H 	H 	0.50000 0.59440 0.25000 0.01800
C 	C 	-0.00000 0.83540 0.75000 0.02400
H 	H 	-0.00000 0.90560 0.75000 0.02000
C 	C 	0.50000 0.33540 0.75000 0.02800
H 	H 	0.50000 0.40560 0.75000 0.01800
