data_crystal

_cell_length_a 18.84230
_cell_length_b 18.84230
_cell_length_c 21.92100
_cell_angle_alpha 90.00000
_cell_angle_beta  90.00000
_cell_angle_gamma 90.00000

_symmetry_space_group_name_	'P 1'
_symmetry_space_group_name_H-M	'P 1'

loop_
_symmetry_equiv_pos_as_xyz
  x,y,z

loop_
_atom_site_label
_atom_site_type_symbol
_atom_site_fract_x
_atom_site_fract_y
_atom_site_fract_z
_atom_site_charge
C 	C 	0.95850 0.44650 0.05050 -0.01100
C 	C 	0.57970 0.93470 0.99480 0.00800
C 	C 	0.53420 0.92660 0.94540 -0.00400
C 	C 	0.46250 0.94220 0.95160 0.02100
C 	C 	0.43630 0.96610 0.00720 -0.01600
C 	C 	0.48180 0.97420 0.05670 0.00600
C 	C 	0.36820 0.77430 0.42120 0.46100
C 	C 	0.47710 0.87420 0.72450 0.01300
C 	C 	0.45600 0.82770 0.77020 -0.02300
C 	C 	0.43570 0.85400 0.82690 0.11700
C 	C 	0.43650 0.92660 0.83770 -0.01600
C 	C 	0.45760 0.97310 0.79200 0.01000
C 	C 	0.94690 0.52210 0.73530 -0.00200
Cu	Cu	0.79061 0.77478 0.41644 0.93400
C 	C 	0.01180 0.68510 0.19730 0.02400
C 	C 	0.07360 0.69990 0.22940 -0.02400
H 	H 	0.11850 0.69350 0.21050 0.06400
C 	C 	0.06980 0.72420 0.28920 -0.08700
C 	C 	0.00410 0.73360 0.31690 0.01500
H 	H 	0.00150 0.75020 0.35780 0.06000
C 	C 	0.94230 0.71880 0.28480 -0.05300
C 	C 	0.94610 0.69460 0.22500 -0.03300
H 	H 	0.90380 0.68450 0.20310 0.06500
Cu	Cu	0.29065 0.72307 0.32572 0.89400
C 	C 	0.51260 0.76170 0.42790 0.02100
H 	H 	0.51290 0.74280 0.38780 0.05500
C 	C 	0.44880 0.78050 0.45530 -0.06600
C 	C 	0.44840 0.80820 0.51400 -0.03800
H 	H 	0.40470 0.82110 0.53270 0.06300
C 	C 	0.51180 0.81710 0.54550 0.03100
C 	C 	0.57570 0.79830 0.51810 -0.03800
H 	H 	0.61900 0.80440 0.53960 0.06400
C 	C 	0.57610 0.77060 0.45940 -0.07000
C 	C 	0.13790 0.74240 0.31570 0.39400
O 	O 	0.37220 0.74280 0.37220 -0.45700
C 	C 	0.88400 0.72700 0.32290 0.25000
O 	O 	0.87960 0.76410 0.37430 -0.35600
O 	O 	0.13760 0.76840 0.36800 -0.40100
O 	O 	0.63530 0.73110 0.38110 -0.36700
O 	O 	0.82300 0.70300 0.29080 -0.33500
O 	O 	0.31640 0.79780 0.44010 -0.50000
O 	O 	0.70540 0.78470 0.45130 -0.43300
O 	O 	0.18870 0.71890 0.28860 -0.41100
C 	C 	0.64740 0.76100 0.43460 0.34200
C 	C 	0.49550 0.82900 0.60850 -0.01700
C 	C 	0.36580 0.98960 0.01090 0.01200
C 	C 	0.48500 0.77900 0.90200 0.08800
C 	C 	0.45730 0.04400 0.80570 0.00200
C 	C 	0.49260 0.83970 0.66350 0.00700
C 	C 	0.49900 0.92940 0.70550 -0.00600
C 	C 	0.09300 0.52100 0.76230 -0.00300
C 	C 	0.01350 0.64950 0.13670 -0.01700
O 	O 	0.42100 0.80150 0.87070 -0.19100
C 	C 	0.51700 0.83200 0.94900 -0.01200
C 	C 	0.02510 0.60310 0.09810 0.00600
C 	C 	0.41410 0.93880 0.90300 -0.02300
C 	C 	0.31900 0.98310 0.96340 -0.03300
C 	C 	0.34280 0.95690 0.90620 0.12500
O 	O 	0.29950 0.94550 0.85660 -0.19900
C 	C 	0.22830 0.97160 0.86370 0.09000
C 	C 	0.21700 0.03200 0.81600 -0.00300
C 	C 	0.04150 0.55350 0.05050 -0.01000
C 	C 	0.42030 0.06530 0.99480 0.00700
C 	C 	0.46580 0.07340 0.94540 -0.00400
C 	C 	0.53750 0.05780 0.95160 0.02100
C 	C 	0.56370 0.03390 0.00720 -0.01500
C 	C 	0.51820 0.02580 0.05670 0.00600
C 	C 	0.63180 0.22570 0.42120 0.46100
C 	C 	0.52290 0.12580 0.72450 0.01300
C 	C 	0.54400 0.17230 0.77020 -0.02300
C 	C 	0.56430 0.14600 0.82690 0.11700
C 	C 	0.56350 0.07340 0.83770 -0.01600
C 	C 	0.54240 0.02690 0.79200 0.01000
C 	C 	0.05310 0.47790 0.73530 -0.00100
Cu	Cu	0.20939 0.22522 0.41644 0.93400
C 	C 	0.98820 0.31490 0.19730 0.02400
C 	C 	0.92640 0.30010 0.22940 -0.02400
H 	H 	0.88150 0.30650 0.21050 0.06400
C 	C 	0.93020 0.27580 0.28920 -0.08700
C 	C 	0.99590 0.26640 0.31690 0.01500
H 	H 	0.99850 0.24980 0.35780 0.06000
C 	C 	0.05770 0.28120 0.28480 -0.05300
C 	C 	0.05390 0.30540 0.22500 -0.03300
H 	H 	0.09620 0.31550 0.20310 0.06500
Cu	Cu	0.70935 0.27693 0.32572 0.89400
C 	C 	0.48740 0.23830 0.42790 0.02100
H 	H 	0.48710 0.25720 0.38780 0.05500
C 	C 	0.55120 0.21950 0.45530 -0.06600
C 	C 	0.55160 0.19180 0.51400 -0.03800
H 	H 	0.59530 0.17890 0.53270 0.06300
C 	C 	0.48820 0.18290 0.54550 0.03100
C 	C 	0.42430 0.20170 0.51810 -0.03800
H 	H 	0.38100 0.19560 0.53960 0.06400
C 	C 	0.42390 0.22940 0.45940 -0.07000
C 	C 	0.86210 0.25760 0.31570 0.39400
O 	O 	0.62780 0.25720 0.37220 -0.45700
C 	C 	0.11600 0.27300 0.32290 0.25000
O 	O 	0.12040 0.23590 0.37430 -0.35600
O 	O 	0.86240 0.23160 0.36800 -0.40100
O 	O 	0.36470 0.26890 0.38110 -0.36700
O 	O 	0.17700 0.29700 0.29080 -0.33600
O 	O 	0.68360 0.20220 0.44010 -0.50000
O 	O 	0.29460 0.21530 0.45130 -0.43300
O 	O 	0.81130 0.28110 0.28860 -0.41100
C 	C 	0.35260 0.23900 0.43460 0.34200
C 	C 	0.50450 0.17100 0.60850 -0.01700
C 	C 	0.63420 0.01040 0.01090 0.01200
C 	C 	0.51500 0.22100 0.90200 0.08800
C 	C 	0.54270 0.95600 0.80570 0.00200
C 	C 	0.50740 0.16030 0.66350 0.00700
C 	C 	0.50100 0.07060 0.70550 -0.00700
C 	C 	0.90700 0.47900 0.76230 -0.00300
C 	C 	0.98650 0.35050 0.13670 -0.01700
O 	O 	0.57900 0.19850 0.87070 -0.19100
C 	C 	0.48300 0.16800 0.94900 -0.01200
C 	C 	0.97490 0.39690 0.09810 0.00600
C 	C 	0.58590 0.06120 0.90300 -0.02300
C 	C 	0.68100 0.01690 0.96340 -0.03300
C 	C 	0.65720 0.04310 0.90620 0.12500
O 	O 	0.70050 0.05450 0.85660 -0.19900
C 	C 	0.77170 0.02840 0.86370 0.08900
C 	C 	0.78300 0.96800 0.81600 -0.00300
C 	C 	0.55350 0.95850 0.05050 -0.01000
C 	C 	0.06530 0.57970 0.99480 0.00700
C 	C 	0.07340 0.53420 0.94540 -0.00400
C 	C 	0.05780 0.46250 0.95160 0.02100
C 	C 	0.03390 0.43630 0.00720 -0.01500
C 	C 	0.02580 0.48180 0.05670 0.00600
C 	C 	0.22570 0.36820 0.42120 0.46100
C 	C 	0.12580 0.47710 0.72450 0.01300
C 	C 	0.17230 0.45600 0.77020 -0.02300
C 	C 	0.14600 0.43570 0.82690 0.11700
C 	C 	0.07340 0.43650 0.83770 -0.01600
C 	C 	0.02690 0.45760 0.79200 0.01000
C 	C 	0.47790 0.94690 0.73530 -0.00200
Cu	Cu	0.22522 0.79061 0.41644 0.93400
C 	C 	0.31490 0.01180 0.19730 0.02400
C 	C 	0.30010 0.07360 0.22940 -0.02400
H 	H 	0.30650 0.11850 0.21050 0.06400
C 	C 	0.27580 0.06980 0.28920 -0.08700
C 	C 	0.26640 0.00410 0.31690 0.01500
H 	H 	0.24980 0.00150 0.35780 0.06000
C 	C 	0.28120 0.94230 0.28480 -0.05300
C 	C 	0.30540 0.94610 0.22500 -0.03300
H 	H 	0.31550 0.90380 0.20310 0.06500
Cu	Cu	0.27693 0.29065 0.32572 0.89400
C 	C 	0.23830 0.51260 0.42790 0.02100
H 	H 	0.25720 0.51290 0.38780 0.05500
C 	C 	0.21950 0.44880 0.45530 -0.06600
C 	C 	0.19180 0.44840 0.51400 -0.03800
H 	H 	0.17890 0.40470 0.53270 0.06300
C 	C 	0.18290 0.51180 0.54550 0.03100
C 	C 	0.20170 0.57570 0.51810 -0.03800
H 	H 	0.19560 0.61900 0.53960 0.06400
C 	C 	0.22940 0.57610 0.45940 -0.07000
C 	C 	0.25760 0.13790 0.31570 0.39400
O 	O 	0.25720 0.37220 0.37220 -0.45700
C 	C 	0.27300 0.88400 0.32290 0.25000
O 	O 	0.23590 0.87960 0.37430 -0.35600
O 	O 	0.23160 0.13760 0.36800 -0.40100
O 	O 	0.26890 0.63530 0.38110 -0.36700
O 	O 	0.29700 0.82300 0.29080 -0.33600
O 	O 	0.20220 0.31640 0.44010 -0.50000
O 	O 	0.21530 0.70540 0.45130 -0.43300
O 	O 	0.28110 0.18870 0.28860 -0.41100
C 	C 	0.23900 0.64740 0.43460 0.34200
C 	C 	0.17100 0.49550 0.60850 -0.01700
C 	C 	0.01040 0.36580 0.01090 0.01200
C 	C 	0.22100 0.48500 0.90200 0.08800
C 	C 	0.95600 0.45730 0.80570 0.00200
C 	C 	0.16030 0.49260 0.66350 0.00700
C 	C 	0.07060 0.49900 0.70550 -0.00700
C 	C 	0.47900 0.09300 0.76230 -0.00300
C 	C 	0.35050 0.01350 0.13670 -0.01700
O 	O 	0.19850 0.42100 0.87070 -0.19100
C 	C 	0.16800 0.51700 0.94900 -0.01200
C 	C 	0.39690 0.02510 0.09810 0.00600
C 	C 	0.06120 0.41410 0.90300 -0.02300
C 	C 	0.01690 0.31900 0.96340 -0.03300
C 	C 	0.04310 0.34280 0.90620 0.12500
O 	O 	0.05450 0.29950 0.85660 -0.19900
C 	C 	0.02840 0.22830 0.86370 0.08900
C 	C 	0.96800 0.21700 0.81600 -0.00300
C 	C 	0.44650 0.04150 0.05050 -0.01000
C 	C 	0.93470 0.42030 0.99480 0.00800
C 	C 	0.92660 0.46580 0.94540 -0.00400
C 	C 	0.94220 0.53750 0.95160 0.02100
C 	C 	0.96610 0.56370 0.00720 -0.01600
C 	C 	0.97420 0.51820 0.05670 0.00600
C 	C 	0.77430 0.63180 0.42120 0.46100
C 	C 	0.87420 0.52290 0.72450 0.01300
C 	C 	0.82770 0.54400 0.77020 -0.02300
C 	C 	0.85400 0.56430 0.82690 0.11700
C 	C 	0.92660 0.56350 0.83770 -0.01600
C 	C 	0.97310 0.54240 0.79200 0.01000
C 	C 	0.52210 0.05310 0.73530 -0.00100
Cu	Cu	0.77478 0.20939 0.41644 0.93400
C 	C 	0.68510 0.98820 0.19730 0.02400
C 	C 	0.69990 0.92640 0.22940 -0.02400
H 	H 	0.69350 0.88150 0.21050 0.06400
C 	C 	0.72420 0.93020 0.28920 -0.08700
C 	C 	0.73360 0.99590 0.31690 0.01500
H 	H 	0.75020 0.99850 0.35780 0.06000
C 	C 	0.71880 0.05770 0.28480 -0.05300
C 	C 	0.69460 0.05390 0.22500 -0.03300
H 	H 	0.68450 0.09620 0.20310 0.06500
Cu	Cu	0.72307 0.70935 0.32572 0.89400
C 	C 	0.76170 0.48740 0.42790 0.02100
H 	H 	0.74280 0.48710 0.38780 0.05500
C 	C 	0.78050 0.55120 0.45530 -0.06600
C 	C 	0.80820 0.55160 0.51400 -0.03800
H 	H 	0.82110 0.59530 0.53270 0.06300
C 	C 	0.81710 0.48820 0.54550 0.03100
C 	C 	0.79830 0.42430 0.51810 -0.03800
H 	H 	0.80440 0.38100 0.53960 0.06400
C 	C 	0.77060 0.42390 0.45940 -0.07000
C 	C 	0.74240 0.86210 0.31570 0.39400
O 	O 	0.74280 0.62780 0.37220 -0.45700
C 	C 	0.72700 0.11600 0.32290 0.25000
O 	O 	0.76410 0.12040 0.37430 -0.35600
O 	O 	0.76840 0.86240 0.36800 -0.40100
O 	O 	0.73110 0.36470 0.38110 -0.36700
O 	O 	0.70300 0.17700 0.29080 -0.33600
O 	O 	0.79780 0.68360 0.44010 -0.50000
O 	O 	0.78470 0.29460 0.45130 -0.43300
O 	O 	0.71890 0.81130 0.28860 -0.41100
C 	C 	0.76100 0.35260 0.43460 0.34200
C 	C 	0.82900 0.50450 0.60850 -0.01700
C 	C 	0.98960 0.63420 0.01090 0.01200
C 	C 	0.77900 0.51500 0.90200 0.08800
C 	C 	0.04400 0.54270 0.80570 0.00200
C 	C 	0.83970 0.50740 0.66350 0.00700
C 	C 	0.92940 0.50100 0.70550 -0.00600
C 	C 	0.52100 0.90700 0.76230 -0.00300
C 	C 	0.64950 0.98650 0.13670 -0.01700
O 	O 	0.80150 0.57900 0.87070 -0.19100
C 	C 	0.83200 0.48300 0.94900 -0.01200
C 	C 	0.60310 0.97490 0.09810 0.00600
C 	C 	0.93880 0.58590 0.90300 -0.02300
C 	C 	0.98310 0.68100 0.96340 -0.03300
C 	C 	0.95690 0.65720 0.90620 0.12500
O 	O 	0.94550 0.70050 0.85660 -0.19900
C 	C 	0.97160 0.77170 0.86370 0.09000
C 	C 	0.03200 0.78300 0.81600 -0.00300
C 	C 	0.50000 0.00000 0.69170 0.00700
C 	C 	-0.00000 0.50000 0.69170 0.00700
