data_crystal

_cell_length_a 24.49500
_cell_length_b 27.92900
_cell_length_c 22.13000
_cell_angle_alpha 90.00000
_cell_angle_beta  90.00000
_cell_angle_gamma 90.00000

_symmetry_space_group_name_	'P 1'
_symmetry_space_group_name_H-M	'P 1'

loop_
_symmetry_equiv_pos_as_xyz
  x,y,z

loop_
_atom_site_label
_atom_site_type_symbol
_atom_site_fract_x
_atom_site_fract_y
_atom_site_fract_z
_atom_site_charge
Cu	Cu	0.74360 0.53125 0.54606 0.90800
Cu	Cu	0.46169 0.24470 0.54127 0.92000
C 	C 	0.40340 0.50940 0.96780 -0.01300
C 	C 	0.37080 0.54950 0.95820 0.12400
C 	C 	0.37140 0.57250 0.90250 -0.01800
C 	C 	0.40470 0.55540 0.85640 0.01500
C 	C 	0.43730 0.51540 0.86590 -0.00800
C 	C 	0.43660 0.49240 0.92160 0.01400
C 	C 	0.46800 0.45110 0.93260 0.00600
C 	C 	0.50020 0.43150 0.88720 0.00600
C 	C 	0.50340 0.45530 0.83290 -0.00500
C 	C 	0.47130 0.49560 0.82130 0.00400
C 	C 	0.93910 0.48350 0.97260 -0.01900
C 	C 	0.90500 0.44440 0.96380 0.11600
C 	C 	0.90200 0.42280 0.90730 -0.00400
C 	C 	0.93310 0.44040 0.85960 -0.06500
C 	C 	0.96710 0.47960 0.86850 -0.08600
C 	C 	0.97010 0.50110 0.92500 0.06200
C 	C 	0.99260 0.46240 0.93720 -0.04300
C 	C 	0.95950 0.44360 0.89200 0.07500
C 	C 	0.96430 0.46300 0.83390 0.07800
C 	C 	0.57710 0.41140 0.67120 0.03200
C 	C 	0.61790 0.43500 0.63950 -0.03900
H 	H 	0.63350 0.46350 0.65530 0.06800
C 	C 	0.63610 0.41690 0.58450 -0.06200
C 	C 	0.61330 0.37520 0.56130 0.01300
H 	H 	0.62570 0.36280 0.52370 0.05600
C 	C 	0.57250 0.35150 0.59310 -0.06400
C 	C 	0.55430 0.36960 0.64810 -0.03700
H 	H 	0.52640 0.35350 0.66980 0.06600
C 	C 	0.54620 0.30900 0.56630 0.32000
C 	C 	0.67660 0.44630 0.55250 0.31200
C 	C 	0.82070 0.45390 0.55670 0.33400
C 	C 	0.94970 0.31890 0.55260 0.35300
C 	C 	0.90720 0.40020 0.67870 0.02400
C 	C 	0.87030 0.43020 0.64980 -0.02400
H 	H 	0.85330 0.45550 0.67150 0.06100
C 	C 	0.85820 0.42330 0.58910 -0.07800
C 	C 	0.88300 0.38630 0.55730 0.02700
H 	H 	0.87480 0.38150 0.51580 0.05600
C 	C 	0.92000 0.35630 0.58620 -0.07900
C 	C 	0.93200 0.36320 0.64700 -0.02400
H 	H 	0.95730 0.34270 0.66680 0.06400
C 	C 	0.53470 0.43770 0.78290 0.00700
C 	C 	0.55840 0.42960 0.72770 -0.01700
C 	C 	0.92240 0.42420 0.79940 0.01600
C 	C 	0.91980 0.40770 0.74140 -0.01600
O 	O 	0.50530 0.28930 0.59190 -0.37500
O 	O 	0.56740 0.29310 0.51680 -0.39100
O 	O 	0.69740 0.48380 0.57890 -0.40100
O 	O 	0.68720 0.43610 0.49600 -0.39100
O 	O 	0.80800 0.49510 0.57760 -0.37400
O 	O 	0.80250 0.43800 0.50620 -0.37400
O 	O 	0.99260 0.30080 0.57520 -0.40400
O 	O 	0.93280 0.30510 0.50000 -0.41200
O 	O 	0.34350 0.56700 0.00650 -0.15600
O 	O 	0.87500 0.42800 0.01100 -0.15300
Cu	Cu	0.24360 0.03125 0.54606 0.90700
Cu	Cu	0.96169 0.74470 0.54127 0.91900
C 	C 	0.90340 0.00940 0.96780 -0.01400
C 	C 	0.87080 0.04950 0.95820 0.12300
C 	C 	0.87140 0.07250 0.90250 -0.01900
C 	C 	0.90470 0.05540 0.85640 0.01500
C 	C 	0.93730 0.01540 0.86590 -0.00900
C 	C 	0.93660 0.99240 0.92160 0.01400
C 	C 	0.96800 0.95110 0.93260 0.00500
C 	C 	0.00020 0.93150 0.88720 0.00700
C 	C 	0.00340 0.95530 0.83290 -0.00500
C 	C 	0.97130 0.99560 0.82130 0.00400
C 	C 	0.43910 0.98350 0.97260 -0.01900
C 	C 	0.40500 0.94440 0.96380 0.11600
C 	C 	0.40200 0.92280 0.90730 -0.00400
C 	C 	0.43310 0.94040 0.85960 -0.06600
C 	C 	0.46710 0.97960 0.86850 -0.08800
C 	C 	0.47010 0.00110 0.92500 0.06300
C 	C 	0.49260 0.96240 0.93720 -0.04300
C 	C 	0.45950 0.94360 0.89200 0.07700
C 	C 	0.46430 0.96300 0.83390 0.08000
C 	C 	0.07710 0.91140 0.67120 0.03200
C 	C 	0.11790 0.93500 0.63950 -0.03900
H 	H 	0.13350 0.96350 0.65530 0.06800
C 	C 	0.13610 0.91690 0.58450 -0.06200
C 	C 	0.11330 0.87520 0.56130 0.01300
H 	H 	0.12570 0.86280 0.52370 0.05600
C 	C 	0.07250 0.85150 0.59310 -0.06400
C 	C 	0.05430 0.86960 0.64810 -0.03700
H 	H 	0.02640 0.85350 0.66980 0.06600
C 	C 	0.04620 0.80900 0.56630 0.32000
C 	C 	0.17660 0.94630 0.55250 0.31200
C 	C 	0.32070 0.95390 0.55670 0.33400
C 	C 	0.44970 0.81890 0.55260 0.35300
C 	C 	0.40720 0.90020 0.67870 0.02400
C 	C 	0.37030 0.93020 0.64980 -0.02400
H 	H 	0.35330 0.95550 0.67150 0.06100
C 	C 	0.35820 0.92330 0.58910 -0.07800
C 	C 	0.38300 0.88630 0.55730 0.02700
H 	H 	0.37480 0.88150 0.51580 0.05600
C 	C 	0.42000 0.85630 0.58620 -0.07900
C 	C 	0.43200 0.86320 0.64700 -0.02400
H 	H 	0.45730 0.84270 0.66680 0.06400
C 	C 	0.03470 0.93770 0.78290 0.00700
C 	C 	0.05840 0.92960 0.72770 -0.01700
C 	C 	0.42240 0.92420 0.79940 0.01600
C 	C 	0.41980 0.90770 0.74140 -0.01600
O 	O 	0.00530 0.78930 0.59190 -0.37500
O 	O 	0.06740 0.79310 0.51680 -0.39100
O 	O 	0.19740 0.98380 0.57890 -0.40100
O 	O 	0.18720 0.93610 0.49600 -0.39100
O 	O 	0.30800 0.99510 0.57760 -0.37400
O 	O 	0.30250 0.93800 0.50620 -0.37400
O 	O 	0.49260 0.80080 0.57520 -0.40400
O 	O 	0.43280 0.80510 0.50000 -0.41200
O 	O 	0.84350 0.06700 0.00650 -0.15600
O 	O 	0.37500 0.92800 0.01100 -0.15300
Cu	Cu	0.25640 0.46875 0.54606 0.90700
Cu	Cu	0.53831 0.75530 0.54127 0.91900
C 	C 	0.59660 0.49060 0.96780 -0.01400
C 	C 	0.62920 0.45050 0.95820 0.12300
C 	C 	0.62860 0.42750 0.90250 -0.01900
C 	C 	0.59530 0.44460 0.85640 0.01400
C 	C 	0.56270 0.48460 0.86590 -0.00900
C 	C 	0.56340 0.50760 0.92160 0.01400
C 	C 	0.53200 0.54890 0.93260 0.00600
C 	C 	0.49980 0.56850 0.88720 0.00600
C 	C 	0.49660 0.54470 0.83290 -0.00500
C 	C 	0.52870 0.50440 0.82130 0.00400
C 	C 	0.06090 0.51650 0.97260 -0.01900
C 	C 	0.09500 0.55560 0.96380 0.11600
C 	C 	0.09800 0.57720 0.90730 -0.00400
C 	C 	0.06690 0.55960 0.85960 -0.06400
C 	C 	0.03290 0.52040 0.86850 -0.08500
C 	C 	0.02990 0.49890 0.92500 0.06200
C 	C 	0.00740 0.53760 0.93720 -0.04300
C 	C 	0.04050 0.55640 0.89200 0.07500
C 	C 	0.03570 0.53700 0.83390 0.07700
C 	C 	0.42290 0.58860 0.67120 0.03200
C 	C 	0.38210 0.56500 0.63950 -0.03900
H 	H 	0.36650 0.53650 0.65530 0.06800
C 	C 	0.36390 0.58310 0.58450 -0.06200
C 	C 	0.38670 0.62480 0.56130 0.01300
H 	H 	0.37430 0.63720 0.52370 0.05600
C 	C 	0.42750 0.64850 0.59310 -0.06400
C 	C 	0.44570 0.63040 0.64810 -0.03700
H 	H 	0.47360 0.64650 0.66980 0.06600
C 	C 	0.45380 0.69100 0.56630 0.32000
C 	C 	0.32340 0.55370 0.55250 0.31200
C 	C 	0.17930 0.54610 0.55670 0.33400
C 	C 	0.05030 0.68110 0.55260 0.35300
C 	C 	0.09280 0.59980 0.67870 0.02400
C 	C 	0.12970 0.56980 0.64980 -0.02400
H 	H 	0.14670 0.54450 0.67150 0.06100
C 	C 	0.14180 0.57670 0.58910 -0.07800
C 	C 	0.11700 0.61370 0.55730 0.02700
H 	H 	0.12520 0.61850 0.51580 0.05600
C 	C 	0.08000 0.64370 0.58620 -0.07900
C 	C 	0.06800 0.63680 0.64700 -0.02400
H 	H 	0.04270 0.65730 0.66680 0.06400
C 	C 	0.46530 0.56230 0.78290 0.00700
C 	C 	0.44160 0.57040 0.72770 -0.01700
C 	C 	0.07760 0.57580 0.79940 0.01600
C 	C 	0.08020 0.59230 0.74140 -0.01600
O 	O 	0.49470 0.71070 0.59190 -0.37500
O 	O 	0.43260 0.70690 0.51680 -0.39100
O 	O 	0.30260 0.51620 0.57890 -0.40100
O 	O 	0.31280 0.56390 0.49600 -0.39100
O 	O 	0.19200 0.50490 0.57760 -0.37400
O 	O 	0.19750 0.56200 0.50620 -0.37400
O 	O 	0.00740 0.69920 0.57520 -0.40400
O 	O 	0.06720 0.69490 0.50000 -0.41200
O 	O 	0.65650 0.43300 0.00650 -0.15600
O 	O 	0.12500 0.57200 0.01100 -0.15300
Cu	Cu	0.75640 0.96875 0.54606 0.90700
Cu	Cu	0.03831 0.25530 0.54127 0.91900
C 	C 	0.09660 0.99060 0.96780 -0.01300
C 	C 	0.12920 0.95050 0.95820 0.12300
C 	C 	0.12860 0.92750 0.90250 -0.01900
C 	C 	0.09530 0.94460 0.85640 0.01400
C 	C 	0.06270 0.98460 0.86590 -0.00900
C 	C 	0.06340 0.00760 0.92160 0.01400
C 	C 	0.03200 0.04890 0.93260 0.00600
C 	C 	0.99980 0.06850 0.88720 0.00600
C 	C 	0.99660 0.04470 0.83290 -0.00500
C 	C 	0.02870 0.00440 0.82130 0.00400
C 	C 	0.56090 0.01650 0.97260 -0.01900
C 	C 	0.59500 0.05560 0.96380 0.11700
C 	C 	0.59800 0.07720 0.90730 -0.00400
C 	C 	0.56690 0.05960 0.85960 -0.06200
C 	C 	0.53290 0.02040 0.86850 -0.08300
C 	C 	0.52990 0.99890 0.92500 0.06100
C 	C 	0.50740 0.03760 0.93720 -0.04200
C 	C 	0.54050 0.05640 0.89200 0.07300
C 	C 	0.53570 0.03700 0.83390 0.07500
C 	C 	0.92290 0.08860 0.67120 0.03200
C 	C 	0.88210 0.06500 0.63950 -0.03900
H 	H 	0.86650 0.03650 0.65530 0.06800
C 	C 	0.86390 0.08310 0.58450 -0.06200
C 	C 	0.88670 0.12480 0.56130 0.01300
H 	H 	0.87430 0.13720 0.52370 0.05600
C 	C 	0.92750 0.14850 0.59310 -0.06400
C 	C 	0.94570 0.13040 0.64810 -0.03700
H 	H 	0.97360 0.14650 0.66980 0.06600
C 	C 	0.95380 0.19100 0.56630 0.32000
C 	C 	0.82340 0.05370 0.55250 0.31200
C 	C 	0.67930 0.04610 0.55670 0.33400
C 	C 	0.55030 0.18110 0.55260 0.35300
C 	C 	0.59280 0.09980 0.67870 0.02400
C 	C 	0.62970 0.06980 0.64980 -0.02400
H 	H 	0.64670 0.04450 0.67150 0.06100
C 	C 	0.64180 0.07670 0.58910 -0.07800
C 	C 	0.61700 0.11370 0.55730 0.02700
H 	H 	0.62520 0.11850 0.51580 0.05600
C 	C 	0.58000 0.14370 0.58620 -0.07900
C 	C 	0.56800 0.13680 0.64700 -0.02400
H 	H 	0.54270 0.15730 0.66680 0.06400
C 	C 	0.96530 0.06230 0.78290 0.00700
C 	C 	0.94160 0.07040 0.72770 -0.01700
C 	C 	0.57760 0.07580 0.79940 0.01600
C 	C 	0.58020 0.09230 0.74140 -0.01600
O 	O 	0.99470 0.21070 0.59190 -0.37500
O 	O 	0.93260 0.20690 0.51680 -0.39100
O 	O 	0.80260 0.01620 0.57890 -0.40100
O 	O 	0.81280 0.06390 0.49600 -0.39100
O 	O 	0.69200 0.00490 0.57760 -0.37400
O 	O 	0.69750 0.06200 0.50620 -0.37400
O 	O 	0.50740 0.19920 0.57520 -0.40400
O 	O 	0.56720 0.19490 0.50000 -0.41200
O 	O 	0.15650 0.93300 0.00650 -0.15600
O 	O 	0.62500 0.07200 0.01100 -0.15300
Cu	Cu	0.25640 0.53125 0.45394 0.90700
Cu	Cu	0.53831 0.24470 0.45873 0.91900
C 	C 	0.59660 0.50940 0.03220 -0.01400
C 	C 	0.62920 0.54950 0.04180 0.12300
C 	C 	0.62860 0.57250 0.09750 -0.01900
C 	C 	0.59530 0.55540 0.14360 0.01400
C 	C 	0.56270 0.51540 0.13410 -0.00900
C 	C 	0.56340 0.49240 0.07840 0.01400
C 	C 	0.53200 0.45110 0.06740 0.00600
C 	C 	0.49980 0.43150 0.11280 0.00600
C 	C 	0.49660 0.45530 0.16710 -0.00500
C 	C 	0.52870 0.49560 0.17870 0.00400
C 	C 	0.06090 0.48350 0.02740 -0.01900
C 	C 	0.09500 0.44440 0.03620 0.11600
C 	C 	0.09800 0.42280 0.09270 -0.00400
C 	C 	0.06690 0.44040 0.14040 -0.06400
C 	C 	0.03290 0.47960 0.13150 -0.08500
C 	C 	0.02990 0.50110 0.07500 0.06200
C 	C 	0.00740 0.46240 0.06280 -0.04300
C 	C 	0.04050 0.44360 0.10800 0.07500
C 	C 	0.03570 0.46300 0.16610 0.07700
C 	C 	0.42290 0.41140 0.32880 0.03200
C 	C 	0.38210 0.43500 0.36050 -0.03900
H 	H 	0.36650 0.46350 0.34470 0.06800
C 	C 	0.36390 0.41690 0.41550 -0.06200
C 	C 	0.38670 0.37520 0.43870 0.01300
H 	H 	0.37430 0.36280 0.47630 0.05600
C 	C 	0.42750 0.35150 0.40690 -0.06400
C 	C 	0.44570 0.36960 0.35190 -0.03700
H 	H 	0.47360 0.35350 0.33020 0.06600
C 	C 	0.45380 0.30900 0.43370 0.32000
C 	C 	0.32340 0.44630 0.44750 0.31200
C 	C 	0.17930 0.45390 0.44330 0.33400
C 	C 	0.05030 0.31890 0.44740 0.35300
C 	C 	0.09280 0.40020 0.32130 0.02400
C 	C 	0.12970 0.43020 0.35020 -0.02400
H 	H 	0.14670 0.45550 0.32850 0.06100
C 	C 	0.14180 0.42330 0.41090 -0.07800
C 	C 	0.11700 0.38630 0.44270 0.02700
H 	H 	0.12520 0.38150 0.48420 0.05600
C 	C 	0.08000 0.35630 0.41380 -0.07900
C 	C 	0.06800 0.36320 0.35300 -0.02400
H 	H 	0.04270 0.34270 0.33320 0.06400
C 	C 	0.46530 0.43770 0.21710 0.00700
C 	C 	0.44160 0.42960 0.27230 -0.01700
C 	C 	0.07760 0.42420 0.20060 0.01600
C 	C 	0.08020 0.40770 0.25860 -0.01600
O 	O 	0.49470 0.28930 0.40810 -0.37500
O 	O 	0.43260 0.29310 0.48320 -0.39100
O 	O 	0.30260 0.48380 0.42110 -0.40100
O 	O 	0.31280 0.43610 0.50400 -0.39100
O 	O 	0.19200 0.49510 0.42240 -0.37400
O 	O 	0.19750 0.43800 0.49380 -0.37400
O 	O 	0.00740 0.30080 0.42480 -0.40400
O 	O 	0.06720 0.30510 0.50000 -0.41200
O 	O 	0.65650 0.56700 0.99350 -0.15600
O 	O 	0.12500 0.42800 0.98900 -0.15300
Cu	Cu	0.75640 0.03125 0.45394 0.90700
Cu	Cu	0.03831 0.74470 0.45873 0.91900
C 	C 	0.09660 0.00940 0.03220 -0.01400
C 	C 	0.12920 0.04950 0.04180 0.12300
C 	C 	0.12860 0.07250 0.09750 -0.01900
C 	C 	0.09530 0.05540 0.14360 0.01500
C 	C 	0.06270 0.01540 0.13410 -0.00900
C 	C 	0.06340 0.99240 0.07840 0.01400
C 	C 	0.03200 0.95110 0.06740 0.00600
C 	C 	0.99980 0.93150 0.11280 0.00600
C 	C 	0.99660 0.95530 0.16710 -0.00500
C 	C 	0.02870 0.99560 0.17870 0.00500
C 	C 	0.56090 0.98350 0.02740 -0.01900
C 	C 	0.59500 0.94440 0.03620 0.11600
C 	C 	0.59800 0.92280 0.09270 -0.00400
C 	C 	0.56690 0.94040 0.14040 -0.06600
C 	C 	0.53290 0.97960 0.13150 -0.08800
C 	C 	0.52990 0.00110 0.07500 0.06300
C 	C 	0.50740 0.96240 0.06280 -0.04300
C 	C 	0.54050 0.94360 0.10800 0.07700
C 	C 	0.53570 0.96300 0.16610 0.08000
C 	C 	0.92290 0.91140 0.32880 0.03200
C 	C 	0.88210 0.93500 0.36050 -0.03900
H 	H 	0.86650 0.96350 0.34470 0.06800
C 	C 	0.86390 0.91690 0.41550 -0.06200
C 	C 	0.88670 0.87520 0.43870 0.01300
H 	H 	0.87430 0.86280 0.47630 0.05600
C 	C 	0.92750 0.85150 0.40690 -0.06400
C 	C 	0.94570 0.86960 0.35190 -0.03700
H 	H 	0.97360 0.85350 0.33020 0.06600
C 	C 	0.95380 0.80900 0.43370 0.32000
C 	C 	0.82340 0.94630 0.44750 0.31200
C 	C 	0.67930 0.95390 0.44330 0.33400
C 	C 	0.55030 0.81890 0.44740 0.35300
C 	C 	0.59280 0.90020 0.32130 0.02400
C 	C 	0.62970 0.93020 0.35020 -0.02400
H 	H 	0.64670 0.95550 0.32850 0.06100
C 	C 	0.64180 0.92330 0.41090 -0.07800
C 	C 	0.61700 0.88630 0.44270 0.02700
H 	H 	0.62520 0.88150 0.48420 0.05600
C 	C 	0.58000 0.85630 0.41380 -0.07900
C 	C 	0.56800 0.86320 0.35300 -0.02400
H 	H 	0.54270 0.84270 0.33320 0.06400
C 	C 	0.96530 0.93770 0.21710 0.00700
C 	C 	0.94160 0.92960 0.27230 -0.01700
C 	C 	0.57760 0.92420 0.20060 0.01600
C 	C 	0.58020 0.90770 0.25860 -0.01600
O 	O 	0.99470 0.78930 0.40810 -0.37500
O 	O 	0.93260 0.79310 0.48320 -0.39100
O 	O 	0.80260 0.98380 0.42110 -0.40100
O 	O 	0.81280 0.93610 0.50400 -0.39100
O 	O 	0.69200 0.99510 0.42240 -0.37400
O 	O 	0.69750 0.93800 0.49380 -0.37400
O 	O 	0.50740 0.80080 0.42480 -0.40400
O 	O 	0.56720 0.80510 0.50000 -0.41200
O 	O 	0.15650 0.06700 0.99350 -0.15600
O 	O 	0.62500 0.92800 0.98900 -0.15300
Cu	Cu	0.74360 0.46875 0.45394 0.90700
Cu	Cu	0.46169 0.75530 0.45873 0.91900
C 	C 	0.40340 0.49060 0.03220 -0.01400
C 	C 	0.37080 0.45050 0.04180 0.12300
C 	C 	0.37140 0.42750 0.09750 -0.01900
C 	C 	0.40470 0.44460 0.14360 0.01400
C 	C 	0.43730 0.48460 0.13410 -0.00900
C 	C 	0.43660 0.50760 0.07840 0.01400
C 	C 	0.46800 0.54890 0.06740 0.00600
C 	C 	0.50020 0.56850 0.11280 0.00600
C 	C 	0.50340 0.54470 0.16710 -0.00500
C 	C 	0.47130 0.50440 0.17870 0.00400
C 	C 	0.93910 0.51650 0.02740 -0.01900
C 	C 	0.90500 0.55560 0.03620 0.11600
C 	C 	0.90200 0.57720 0.09270 -0.00400
C 	C 	0.93310 0.55960 0.14040 -0.06500
C 	C 	0.96710 0.52040 0.13150 -0.08600
C 	C 	0.97010 0.49890 0.07500 0.06200
C 	C 	0.99260 0.53760 0.06280 -0.04300
C 	C 	0.95950 0.55640 0.10800 0.07500
C 	C 	0.96430 0.53700 0.16610 0.07800
C 	C 	0.57710 0.58860 0.32880 0.03200
C 	C 	0.61790 0.56500 0.36050 -0.03900
H 	H 	0.63350 0.53650 0.34470 0.06800
C 	C 	0.63610 0.58310 0.41550 -0.06200
C 	C 	0.61330 0.62480 0.43870 0.01300
H 	H 	0.62570 0.63720 0.47630 0.05600
C 	C 	0.57250 0.64850 0.40690 -0.06400
C 	C 	0.55430 0.63040 0.35190 -0.03700
H 	H 	0.52640 0.64650 0.33020 0.06600
C 	C 	0.54620 0.69100 0.43370 0.32000
C 	C 	0.67660 0.55370 0.44750 0.31200
C 	C 	0.82070 0.54610 0.44330 0.33400
C 	C 	0.94970 0.68110 0.44740 0.35300
C 	C 	0.90720 0.59980 0.32130 0.02400
C 	C 	0.87030 0.56980 0.35020 -0.02400
H 	H 	0.85330 0.54450 0.32850 0.06100
C 	C 	0.85820 0.57670 0.41090 -0.07800
C 	C 	0.88300 0.61370 0.44270 0.02700
H 	H 	0.87480 0.61850 0.48420 0.05600
C 	C 	0.92000 0.64370 0.41380 -0.07900
C 	C 	0.93200 0.63680 0.35300 -0.02400
H 	H 	0.95730 0.65730 0.33320 0.06400
C 	C 	0.53470 0.56230 0.21710 0.00700
C 	C 	0.55840 0.57040 0.27230 -0.01700
C 	C 	0.92240 0.57580 0.20060 0.01600
C 	C 	0.91980 0.59230 0.25860 -0.01600
O 	O 	0.50530 0.71070 0.40810 -0.37500
O 	O 	0.56740 0.70690 0.48320 -0.39100
O 	O 	0.69740 0.51620 0.42110 -0.40100
O 	O 	0.68720 0.56390 0.50400 -0.39100
O 	O 	0.80800 0.50490 0.42240 -0.37400
O 	O 	0.80250 0.56200 0.49380 -0.37400
O 	O 	0.99260 0.69920 0.42480 -0.40400
O 	O 	0.93280 0.69490 0.50000 -0.41200
O 	O 	0.34350 0.43300 0.99350 -0.15600
O 	O 	0.87500 0.57200 0.98900 -0.15300
Cu	Cu	0.24360 0.96875 0.45394 0.90700
Cu	Cu	0.96169 0.25530 0.45873 0.91900
C 	C 	0.90340 0.99060 0.03220 -0.01300
C 	C 	0.87080 0.95050 0.04180 0.12300
C 	C 	0.87140 0.92750 0.09750 -0.01900
C 	C 	0.90470 0.94460 0.14360 0.01400
C 	C 	0.93730 0.98460 0.13410 -0.00900
C 	C 	0.93660 0.00760 0.07840 0.01400
C 	C 	0.96800 0.04890 0.06740 0.00600
C 	C 	0.00020 0.06850 0.11280 0.00600
C 	C 	0.00340 0.04470 0.16710 -0.00500
C 	C 	0.97130 0.00440 0.17870 0.00400
C 	C 	0.43910 0.01650 0.02740 -0.01900
C 	C 	0.40500 0.05560 0.03620 0.11700
C 	C 	0.40200 0.07720 0.09270 -0.00400
C 	C 	0.43310 0.05960 0.14040 -0.06200
C 	C 	0.46710 0.02040 0.13150 -0.08300
C 	C 	0.47010 0.99890 0.07500 0.06100
C 	C 	0.49260 0.03760 0.06280 -0.04200
C 	C 	0.45950 0.05640 0.10800 0.07300
C 	C 	0.46430 0.03700 0.16610 0.07500
C 	C 	0.07710 0.08860 0.32880 0.03200
C 	C 	0.11790 0.06500 0.36050 -0.03900
H 	H 	0.13350 0.03650 0.34470 0.06800
C 	C 	0.13610 0.08310 0.41550 -0.06200
C 	C 	0.11330 0.12480 0.43870 0.01300
H 	H 	0.12570 0.13720 0.47630 0.05600
C 	C 	0.07250 0.14850 0.40690 -0.06400
C 	C 	0.05430 0.13040 0.35190 -0.03700
H 	H 	0.02640 0.14650 0.33020 0.06600
C 	C 	0.04620 0.19100 0.43370 0.32000
C 	C 	0.17660 0.05370 0.44750 0.31200
C 	C 	0.32070 0.04610 0.44330 0.33400
C 	C 	0.44970 0.18110 0.44740 0.35300
C 	C 	0.40720 0.09980 0.32130 0.02400
C 	C 	0.37030 0.06980 0.35020 -0.02400
H 	H 	0.35330 0.04450 0.32850 0.06100
C 	C 	0.35820 0.07670 0.41090 -0.07800
C 	C 	0.38300 0.11370 0.44270 0.02700
H 	H 	0.37480 0.11850 0.48420 0.05600
C 	C 	0.42000 0.14370 0.41380 -0.07900
C 	C 	0.43200 0.13680 0.35300 -0.02400
H 	H 	0.45730 0.15730 0.33320 0.06400
C 	C 	0.03470 0.06230 0.21710 0.00700
C 	C 	0.05840 0.07040 0.27230 -0.01700
C 	C 	0.42240 0.07580 0.20060 0.01600
C 	C 	0.41980 0.09230 0.25860 -0.01600
O 	O 	0.00530 0.21070 0.40810 -0.37500
O 	O 	0.06740 0.20690 0.48320 -0.39100
O 	O 	0.19740 0.01620 0.42110 -0.40100
O 	O 	0.18720 0.06390 0.50400 -0.39100
O 	O 	0.30800 0.00490 0.42240 -0.37400
O 	O 	0.30250 0.06200 0.49380 -0.37400
O 	O 	0.49260 0.19920 0.42480 -0.40400
O 	O 	0.43280 0.19490 0.50000 -0.41200
O 	O 	0.84350 0.93300 0.99350 -0.15600
O 	O 	0.37500 0.07200 0.98900 -0.15300
C 	C 	-0.00000 0.50000 0.82280 -0.00100
C 	C 	0.50000 0.00000 0.82280 -0.00200
C 	C 	0.00000 0.50000 0.17720 -0.00100
C 	C 	0.50000 0.00000 0.17720 -0.00200
