data_crystal

_cell_length_a 14.75400
_cell_length_b 23.59600
_cell_length_c 9.27300
_cell_angle_alpha 90.00000
_cell_angle_beta  90.00000
_cell_angle_gamma 90.00000

_symmetry_space_group_name_	'P 1'
_symmetry_space_group_name_H-M	'P 1'

loop_
_symmetry_equiv_pos_as_xyz
  x,y,z

loop_
_atom_site_label
_atom_site_type_symbol
_atom_site_fract_x
_atom_site_fract_y
_atom_site_fract_z
_atom_site_charge
Fe	Fe	0.17543 0.80449 0.66387 1.24900
Cl	Cl	0.06554 0.74528 0.56670 -0.34300
O 	O 	0.33680 0.87569 0.35850 -0.26000
O 	O 	0.36680 0.92808 0.61010 -0.28600
O 	O 	0.98240 0.93045 0.71570 -0.33000
O 	O 	0.26830 0.86978 0.71750 -0.27700
C 	C 	0.04320 0.89090 0.71750 0.24500
C 	C 	0.31040 0.88760 0.60940 0.23400
Fe	Fe	0.17543 0.30449 0.16387 1.25300
Cl	Cl	0.06554 0.24528 0.06670 -0.33100
O 	O 	0.33680 0.37569 0.85850 -0.25600
O 	O 	0.36680 0.42808 0.11010 -0.27000
O 	O 	0.98240 0.43045 0.21570 -0.31700
O 	O 	0.26830 0.36978 0.21750 -0.27400
C 	C 	0.04320 0.39090 0.21750 0.24400
C 	C 	0.31040 0.38760 0.10940 0.24600
Fe	Fe	0.67543 0.80449 0.16387 1.25300
Cl	Cl	0.56554 0.74528 0.06670 -0.34700
O 	O 	0.83680 0.87569 0.85850 -0.26500
O 	O 	0.86680 0.92808 0.11010 -0.28700
O 	O 	0.48240 0.93045 0.21570 -0.29400
O 	O 	0.76830 0.86978 0.21750 -0.27900
C 	C 	0.54320 0.89090 0.21750 0.21000
C 	C 	0.81040 0.88760 0.10940 0.24800
Fe	Fe	0.67543 0.30449 0.66387 1.25000
Cl	Cl	0.56554 0.24528 0.56670 -0.35800
O 	O 	0.83680 0.37569 0.35850 -0.26000
O 	O 	0.86680 0.42808 0.61010 -0.28500
O 	O 	0.48240 0.43045 0.71570 -0.28700
O 	O 	0.76830 0.36978 0.71750 -0.27700
C 	C 	0.54320 0.39090 0.71750 0.20900
C 	C 	0.81040 0.38760 0.60940 0.23400
Fe	Fe	0.82457 0.19551 0.66387 1.25000
Cl	Cl	0.93446 0.25472 0.56670 -0.37500
O 	O 	0.66320 0.12431 0.35850 -0.25300
O 	O 	0.63320 0.07192 0.61010 -0.27100
O 	O 	0.01760 0.06955 0.71570 -0.24900
O 	O 	0.73170 0.13022 0.71750 -0.27300
C 	C 	0.95680 0.10910 0.71750 0.17200
C 	C 	0.68960 0.11240 0.60940 0.23300
Fe	Fe	0.82457 0.69551 0.16387 1.25300
Cl	Cl	0.93446 0.75472 0.06670 -0.36400
O 	O 	0.66320 0.62431 0.85850 -0.25800
O 	O 	0.63320 0.57192 0.11010 -0.27100
O 	O 	0.01760 0.56955 0.21570 -0.25500
O 	O 	0.73170 0.63022 0.21750 -0.27400
C 	C 	0.95680 0.60910 0.21750 0.17300
C 	C 	0.68960 0.61240 0.10940 0.24600
Fe	Fe	0.32457 0.19551 0.16387 1.25300
Cl	Cl	0.43446 0.25472 0.06670 -0.34700
O 	O 	0.16320 0.12431 0.85850 -0.24900
O 	O 	0.13320 0.07192 0.11010 -0.26000
O 	O 	0.51760 0.06955 0.21570 -0.27700
O 	O 	0.23170 0.13022 0.21750 -0.27000
C 	C 	0.45680 0.10910 0.21750 0.20800
C 	C 	0.18960 0.11240 0.10940 0.24700
Fe	Fe	0.32457 0.69551 0.66387 1.25000
Cl	Cl	0.43446 0.75472 0.56670 -0.35900
O 	O 	0.16320 0.62431 0.35850 -0.25100
O 	O 	0.13320 0.57192 0.61010 -0.27100
O 	O 	0.51760 0.56955 0.71570 -0.28700
O 	O 	0.23170 0.63022 0.71750 -0.27200
C 	C 	0.45680 0.60910 0.71750 0.20900
C 	C 	0.18960 0.61240 0.60940 0.23400
Fe	Fe	0.42543 0.44551 0.91387 1.24800
Cl	Cl	0.31554 0.50472 0.81670 -0.36000
O 	O 	0.58680 0.37431 0.60850 -0.25700
O 	O 	0.61680 0.32192 0.86010 -0.27900
O 	O 	0.23240 0.31955 0.96570 -0.29000
O 	O 	0.51830 0.38022 0.96750 -0.27800
C 	C 	0.29320 0.35910 0.96750 0.19600
C 	C 	0.56040 0.36240 0.85940 0.23400
Fe	Fe	0.42543 0.94551 0.41387 1.23900
Cl	Cl	0.31554 0.00472 0.31670 -0.33100
O 	O 	0.58680 0.87431 0.10850 -0.25600
O 	O 	0.61680 0.82192 0.36010 -0.27700
O 	O 	0.23240 0.81955 0.46570 -0.28500
O 	O 	0.51830 0.88022 0.46750 -0.27700
C 	C 	0.29320 0.85910 0.46750 0.20800
C 	C 	0.56040 0.86240 0.35940 0.23300
Fe	Fe	0.92543 0.44551 0.41387 1.23900
Cl	Cl	0.81554 0.50472 0.31670 -0.36000
O 	O 	0.08680 0.37431 0.10850 -0.25600
O 	O 	0.11680 0.32192 0.36010 -0.26900
O 	O 	0.73240 0.31955 0.46570 -0.28700
O 	O 	0.01830 0.38022 0.46750 -0.25500
C 	C 	0.79320 0.35910 0.46750 0.20800
C 	C 	0.06040 0.36240 0.35940 0.22500
Fe	Fe	0.92543 0.94551 0.91387 1.22500
Cl	Cl	0.81554 0.00472 0.81670 -0.34400
O 	O 	0.08680 0.87431 0.60850 -0.26400
O 	O 	0.11680 0.82192 0.86010 -0.27300
O 	O 	0.73240 0.81955 0.96570 -0.29400
O 	O 	0.01830 0.88022 0.96750 -0.26300
C 	C 	0.79320 0.85910 0.96750 0.19200
C 	C 	0.06040 0.86240 0.85940 0.22400
Fe	Fe	0.07457 0.05449 0.91387 1.25800
Cl	Cl	0.18446 0.99528 0.81670 -0.38500
O 	O 	0.91320 0.12569 0.60850 -0.25100
O 	O 	0.88320 0.17808 0.86010 -0.28600
O 	O 	0.26760 0.18045 0.96570 -0.29100
O 	O 	0.98170 0.11978 0.96750 -0.29800
C 	C 	0.20680 0.14090 0.96750 0.19800
C 	C 	0.93960 0.13760 0.85940 0.24300
Fe	Fe	0.07457 0.55449 0.41387 1.25500
Cl	Cl	0.18446 0.49528 0.31670 -0.35300
O 	O 	0.91320 0.62569 0.10850 -0.25000
O 	O 	0.88320 0.67808 0.36010 -0.28300
O 	O 	0.26760 0.68045 0.46570 -0.28500
O 	O 	0.98170 0.61978 0.46750 -0.29400
C 	C 	0.20680 0.64090 0.46750 0.21000
C 	C 	0.93960 0.63760 0.35940 0.24300
Fe	Fe	0.57457 0.05449 0.41387 1.25600
Cl	Cl	0.68446 0.99528 0.31670 -0.38400
O 	O 	0.41320 0.12569 0.10850 -0.25000
O 	O 	0.38320 0.17808 0.36010 -0.27400
O 	O 	0.76760 0.18045 0.46570 -0.28700
O 	O 	0.48170 0.11978 0.46750 -0.27200
C 	C 	0.70680 0.14090 0.46750 0.21000
C 	C 	0.43960 0.13760 0.35940 0.23400
Fe	Fe	0.57457 0.55449 0.91387 1.24800
Cl	Cl	0.68446 0.49528 0.81670 -0.36400
O 	O 	0.41320 0.62569 0.60850 -0.25700
O 	O 	0.38320 0.67808 0.86010 -0.27900
O 	O 	0.76760 0.68045 0.96570 -0.29500
O 	O 	0.48170 0.61978 0.96750 -0.27800
C 	C 	0.70680 0.64090 0.96750 0.19500
C 	C 	0.43960 0.63760 0.85940 0.23400
O 	O 	0.25000 0.75000 0.73760 -0.48500
O 	O 	0.25000 0.25000 0.23760 -0.48200
O 	O 	0.75000 0.25000 0.73760 -0.48700
O 	O 	0.75000 0.75000 0.23760 -0.48400
O 	O 	0.50000 0.50000 0.98760 -0.48900
O 	O 	0.50000 0.00000 0.48760 -0.46800
O 	O 	0.00000 -0.00000 0.98760 -0.45500
O 	O 	-0.00000 0.50000 0.48760 -0.46800
