data_crystal

_cell_length_a 9.34100
_cell_length_b 19.16990
_cell_length_c 19.16990
_cell_angle_alpha 62.58530
_cell_angle_beta  80.65240
_cell_angle_gamma 99.34760

_symmetry_space_group_name_	'P 1'
_symmetry_space_group_name_H-M	'P 1'

loop_
_symmetry_equiv_pos_as_xyz
  x,y,z

loop_
_atom_site_label
_atom_site_type_symbol
_atom_site_fract_x
_atom_site_fract_y
_atom_site_fract_z
_atom_site_charge
Mn	Mn	-0.00000 0.50000 -0.00000 1.25700
Mn	Mn	0.00000 0.00000 0.50000 1.25700
Mn	Mn	0.50000 0.50000 0.50000 1.28100
H 	H 	0.74640 0.64720 0.78010 0.05600
H 	H 	0.58140 0.50680 0.85720 0.07200
H 	H 	0.41340 0.76400 0.88520 0.08100
H 	H 	0.24330 0.80400 0.79800 0.05100
H 	H 	0.61630 0.59280 0.98460 0.06500
H 	H 	0.82420 0.66880 0.98920 0.05900
H 	H 	0.59640 0.78620 0.05560 0.00600
H 	H 	0.38120 0.71650 0.05400 0.08600
H 	H 	0.16150 0.74220 0.68340 0.08200
H 	H 	0.83350 0.14180 0.43150 -0.03300
H 	H 	0.12780 0.09110 0.30970 -0.03900
H 	H 	0.85020 0.79180 0.80950 0.09200
H 	H 	0.52650 0.78010 0.57270 0.06200
H 	H 	0.43860 0.85720 0.63600 0.06700
H 	H 	0.29860 0.88520 0.35080 0.06200
H 	H 	0.04130 0.79800 0.39800 0.07800
H 	H 	0.60090 0.98460 0.42260 0.06800
H 	H 	0.81340 0.98920 0.34200 0.05300
H 	H 	0.65200 0.05560 0.15820 -0.00100
H 	H 	0.43520 0.05400 0.22950 0.08500
H 	H 	0.84490 0.68340 0.57440 0.11600
H 	H 	0.26500 0.43150 0.42670 -0.02200
H 	H 	0.43750 0.30970 0.59920 -0.02600
H 	H 	0.65970 0.80950 0.39870 0.12000
H 	H 	0.09920 0.57270 0.64720 0.05200
H 	H 	0.07460 0.63600 0.50680 0.06300
H 	H 	0.64940 0.35080 0.76400 0.06400
H 	H 	0.43930 0.39800 0.80400 0.06700
H 	H 	0.02350 0.42260 0.59280 0.01900
H 	H 	0.15540 0.34200 0.66880 0.03900
H 	H 	0.81020 0.15820 0.78620 0.00900
H 	H 	0.66470 0.22950 0.71650 0.08400
H 	H 	0.41930 0.57440 0.74220 0.10000
H 	H 	0.69170 0.42670 0.14180 -0.02600
H 	H 	0.03670 0.59920 0.09110 -0.08200
H 	H 	0.05840 0.39870 0.79180 0.08900
H 	H 	0.25360 0.35280 0.21990 0.06700
H 	H 	0.41860 0.49320 0.14280 0.05800
H 	H 	0.58660 0.23600 0.11480 0.04800
H 	H 	0.75670 0.19600 0.20200 0.08400
H 	H 	0.38370 0.40720 0.01540 0.16200
H 	H 	0.17580 0.33120 0.01080 -0.09500
H 	H 	0.40360 0.21380 0.94440 -0.02500
H 	H 	0.61880 0.28350 0.94600 0.13900
H 	H 	0.83850 0.25780 0.31660 0.13200
H 	H 	0.16650 0.85820 0.56850 -0.00900
H 	H 	0.87220 0.90890 0.69030 -0.01600
H 	H 	0.14980 0.20820 0.19050 0.13500
H 	H 	0.47350 0.21990 0.42730 0.05900
H 	H 	0.56140 0.14280 0.36400 0.06400
H 	H 	0.70140 0.11480 0.64920 0.06900
H 	H 	0.95870 0.20200 0.60200 0.05300
H 	H 	0.39910 0.01540 0.57740 0.16200
H 	H 	0.18660 0.01080 0.65800 -0.09200
H 	H 	0.34800 0.94440 0.84180 -0.01900
H 	H 	0.56480 0.94600 0.77050 0.14000
H 	H 	0.15510 0.31660 0.42560 0.09300
H 	H 	0.73500 0.56850 0.57330 -0.01900
H 	H 	0.56250 0.69030 0.40080 -0.02900
H 	H 	0.34030 0.19050 0.60130 0.10300
H 	H 	0.90080 0.42730 0.35280 0.07000
H 	H 	0.92540 0.36400 0.49320 0.06800
H 	H 	0.35060 0.64920 0.23600 0.06500
H 	H 	0.56070 0.60200 0.19600 0.06600
H 	H 	0.97650 0.57740 0.40720 0.20400
H 	H 	0.84460 0.65800 0.33120 -0.07100
H 	H 	0.18980 0.84180 0.21380 -0.02700
H 	H 	0.33530 0.77050 0.28350 0.13900
H 	H 	0.58070 0.42560 0.25780 0.11100
H 	H 	0.30830 0.57330 0.85820 -0.01400
H 	H 	0.96330 0.40080 0.90890 0.02600
H 	H 	0.94160 0.60130 0.20820 0.13700
C 	C 	0.12540 0.39330 0.13550 0.13700
C 	C 	0.75830 0.60400 0.82600 -0.05700
C 	C 	0.66740 0.52680 0.86820 -0.10700
C 	C 	0.73000 0.48210 0.93300 0.13000
C 	C 	0.67250 0.39930 0.98850 -0.16700
C 	C 	0.73920 0.35490 0.04820 0.08800
C 	C 	0.32400 0.73040 0.89030 -0.11500
C 	C 	0.23190 0.75250 0.84190 -0.04000
C 	C 	0.11070 0.67930 0.87250 0.04300
C 	C 	0.00530 0.32410 0.16320 -0.27000
C 	C 	0.47040 0.64610 0.01720 0.08800
C 	C 	0.60780 0.63240 0.99900 -0.07400
C 	C 	0.73210 0.67850 0.00220 -0.01200
C 	C 	0.60020 0.74650 0.04080 0.09000
C 	C 	0.47100 0.70520 0.03970 -0.17300
C 	C 	0.99710 0.24770 0.23950 0.29000
C 	C 	0.90060 0.22560 0.31310 -0.27900
C 	C 	0.89670 0.15490 0.38190 0.15300
C 	C 	0.06880 0.12530 0.31150 0.13300
C 	C 	0.91680 0.80390 0.76130 -0.13900
C 	C 	0.26090 0.13550 0.47120 0.09100
C 	C 	0.58430 0.82600 0.57000 -0.08700
C 	C 	0.53560 0.86820 0.60500 -0.09600
C 	C 	0.66300 0.93300 0.58490 0.12700
C 	C 	0.66100 0.98850 0.61220 -0.17500
C 	C 	0.78740 0.04820 0.59690 0.11000
C 	C 	0.21430 0.89030 0.37930 -0.06900
C 	C 	0.07380 0.84190 0.40560 -0.13700
C 	C 	0.98320 0.87250 0.44820 0.16900
C 	C 	0.16850 0.16320 0.51270 -0.13800
C 	C 	0.48760 0.01720 0.33670 0.09100
C 	C 	0.60680 0.99900 0.36860 -0.08300
C 	C 	0.73430 0.00220 0.31930 -0.00200
C 	C 	0.64100 0.04080 0.21270 0.09200
C 	C 	0.51070 0.03970 0.25510 -0.17600
C 	C 	0.23660 0.23950 0.51280 0.15100
C 	C 	0.21370 0.31310 0.46130 -0.20700
C 	C 	0.27860 0.38190 0.46320 0.10400
C 	C 	0.38030 0.31150 0.56320 0.12300
C 	C 	0.67810 0.76130 0.43480 -0.23000
C 	C 	0.73210 0.47120 0.39330 0.11200
C 	C 	0.15430 0.57000 0.60400 -0.07700
C 	C 	0.14060 0.60500 0.52680 -0.11000
C 	C 	0.24790 0.58490 0.48210 0.13400
C 	C 	0.27320 0.61220 0.39930 -0.21100
C 	C 	0.38430 0.59690 0.35490 0.13200
C 	C 	0.59360 0.37930 0.73040 -0.08000
C 	C 	0.47940 0.40560 0.75250 -0.08200
C 	C 	0.43140 0.44820 0.67930 0.10200
C 	C 	0.68120 0.51270 0.32410 -0.17000
C 	C 	0.82430 0.33670 0.64610 0.08200
C 	C 	0.97540 0.36860 0.63240 -0.02600
C 	C 	0.05360 0.31930 0.67850 -0.03500
C 	C 	0.85370 0.21270 0.74650 0.08800
C 	C 	0.76580 0.25510 0.70520 -0.15600
C 	C 	0.74940 0.51280 0.24770 0.19500
C 	C 	0.67500 0.46130 0.22560 -0.23400
C 	C 	0.74180 0.46320 0.15490 0.12500
C 	C 	0.94350 0.56320 0.12530 0.21400
C 	C 	0.11290 0.43480 0.80390 -0.17700
C 	C 	0.87460 0.60670 0.86450 0.07700
C 	C 	0.24170 0.39600 0.17400 -0.11400
C 	C 	0.33260 0.47320 0.13180 -0.08300
C 	C 	0.27000 0.51790 0.06700 0.10700
C 	C 	0.32750 0.60070 0.01150 -0.17600
C 	C 	0.26080 0.64510 0.95180 0.15000
C 	C 	0.67600 0.26960 0.10970 -0.06100
C 	C 	0.76810 0.24750 0.15810 -0.12300
C 	C 	0.88930 0.32070 0.12750 0.17600
C 	C 	0.99470 0.67590 0.83680 -0.06500
C 	C 	0.52960 0.35390 0.98280 0.27000
C 	C 	0.39220 0.36760 0.00100 -0.40100
C 	C 	0.26790 0.32150 0.99780 0.29800
C 	C 	0.39980 0.25350 0.95920 0.18200
C 	C 	0.52900 0.29480 0.96030 -0.29500
C 	C 	0.00290 0.75230 0.76050 0.06600
C 	C 	0.09940 0.77440 0.68690 -0.16000
C 	C 	0.10330 0.84510 0.61810 0.07800
C 	C 	0.93120 0.87470 0.68850 0.13200
C 	C 	0.08320 0.19610 0.23870 -0.31200
C 	C 	0.73910 0.86450 0.52880 0.11700
C 	C 	0.41570 0.17400 0.43000 -0.08000
C 	C 	0.46440 0.13180 0.39500 -0.09800
C 	C 	0.33700 0.06700 0.41510 0.11200
C 	C 	0.33900 0.01150 0.38780 -0.17300
C 	C 	0.21260 0.95180 0.40310 0.13200
C 	C 	0.78570 0.10970 0.62070 -0.11500
C 	C 	0.92620 0.15810 0.59440 -0.01300
C 	C 	0.01680 0.12750 0.55180 0.03400
C 	C 	0.83150 0.83680 0.48730 -0.18200
C 	C 	0.51240 0.98280 0.66330 0.27000
C 	C 	0.39320 0.00100 0.63140 -0.39700
C 	C 	0.26570 0.99780 0.68070 0.29400
C 	C 	0.35900 0.95920 0.78730 0.18200
C 	C 	0.48930 0.96030 0.74490 -0.29500
C 	C 	0.76340 0.76050 0.48720 0.18800
C 	C 	0.78630 0.68690 0.53870 -0.22300
C 	C 	0.72140 0.61810 0.53680 0.12200
C 	C 	0.61970 0.68850 0.43680 0.14100
C 	C 	0.32190 0.23870 0.56520 -0.20900
C 	C 	0.26790 0.52880 0.60670 0.09900
C 	C 	0.84570 0.43000 0.39600 -0.09200
C 	C 	0.85940 0.39500 0.47320 -0.08200
C 	C 	0.75210 0.41510 0.51790 0.10300
C 	C 	0.72680 0.38780 0.60070 -0.13100
C 	C 	0.61570 0.40310 0.64510 0.10400
C 	C 	0.40640 0.62070 0.26960 -0.09800
C 	C 	0.52060 0.59440 0.24750 -0.07800
C 	C 	0.56860 0.55180 0.32070 0.10900
C 	C 	0.31880 0.48730 0.67590 -0.15500
C 	C 	0.17570 0.66330 0.35390 0.27000
C 	C 	0.02460 0.63140 0.36760 -0.43900
C 	C 	0.94640 0.68070 0.32150 0.30900
C 	C 	0.14630 0.78730 0.25350 0.18200
C 	C 	0.23420 0.74490 0.29480 -0.30700
C 	C 	0.25060 0.48720 0.75230 0.14800
C 	C 	0.32500 0.53870 0.77440 -0.19800
C 	C 	0.25820 0.53680 0.84510 0.10200
C 	C 	0.05650 0.43680 0.87470 0.05500
C 	C 	0.88710 0.56520 0.19610 -0.26600
N 	N 	0.14467 0.46894 0.06813 -0.30400
N 	N 	0.87107 0.38614 0.05883 -0.29300
N 	N 	0.73190 0.73400 0.02230 -0.12200
N 	N 	0.97920 0.10360 0.38130 -0.24700
N 	N 	0.21280 0.06813 0.46293 -0.29400
N 	N 	0.92990 0.05883 0.55503 -0.26700
N 	N 	0.75420 0.02230 0.24370 -0.12600
N 	N 	0.36050 0.38130 0.51510 -0.25300
N 	N 	0.67573 0.46293 0.46894 -0.28800
N 	N 	0.48493 0.55503 0.38614 -0.29400
N 	N 	0.99790 0.24370 0.73400 -0.09900
N 	N 	0.87560 0.51510 0.10360 -0.26800
N 	N 	0.85533 0.53106 0.93187 -0.27200
N 	N 	0.12893 0.61386 0.94117 -0.28500
N 	N 	0.26810 0.26600 0.97770 -0.19800
N 	N 	0.02080 0.89640 0.61870 -0.25500
N 	N 	0.78720 0.93187 0.53707 -0.28200
N 	N 	0.07010 0.94117 0.44497 -0.30800
N 	N 	0.24580 0.97770 0.75630 -0.19500
N 	N 	0.63950 0.61870 0.48490 -0.25600
N 	N 	0.32427 0.53707 0.53106 -0.29200
N 	N 	0.51507 0.44497 0.61386 -0.29000
N 	N 	0.00210 0.75630 0.26600 -0.21800
N 	N 	0.12440 0.48490 0.89640 -0.23600
