data_crystal

_cell_length_a 9.33070
_cell_length_b 19.48140
_cell_length_c 19.48140
_cell_angle_alpha 62.49880
_cell_angle_beta  80.81330
_cell_angle_gamma 99.18670

_symmetry_space_group_name_	'P 1'
_symmetry_space_group_name_H-M	'P 1'

loop_
_symmetry_equiv_pos_as_xyz
  x,y,z

loop_
_atom_site_label
_atom_site_type_symbol
_atom_site_fract_x
_atom_site_fract_y
_atom_site_fract_z
_atom_site_charge
Mn	Mn	-0.00000 -0.00000 0.50000 1.22800
H 	H 	0.52430 0.77680 0.57940 0.06600
H 	H 	0.43590 0.85230 0.64170 0.05800
H 	H 	0.30350 0.88330 0.35320 0.06800
H 	H 	0.04410 0.79700 0.40310 0.07900
H 	H 	0.60920 0.99110 0.41930 0.15700
H 	H 	0.82260 0.99620 0.34070 0.03000
H 	H 	0.65180 0.05110 0.16190 -0.01100
H 	H 	0.42540 0.04530 0.23500 0.09900
H 	H 	0.83730 0.68770 0.57640 0.11300
H 	H 	0.73450 0.57390 0.57450 -0.01900
H 	H 	0.55820 0.69360 0.40380 -0.02400
H 	H 	0.65480 0.81100 0.40060 0.11900
H 	H 	0.47570 0.22320 0.42060 0.05500
H 	H 	0.56410 0.14770 0.35830 0.06600
H 	H 	0.69650 0.11670 0.64680 0.06000
H 	H 	0.95590 0.20300 0.59690 0.05400
H 	H 	0.39080 0.00890 0.58070 0.05600
H 	H 	0.17740 0.00380 0.65930 -0.06100
H 	H 	0.34820 0.94890 0.83810 0.01200
H 	H 	0.57460 0.95470 0.76500 0.10700
H 	H 	0.16270 0.31230 0.42360 0.08800
H 	H 	0.26550 0.42610 0.42550 -0.02300
H 	H 	0.44180 0.30640 0.59620 -0.02100
H 	H 	0.34520 0.18900 0.59940 0.09700
C 	C 	0.26645 0.13483 0.47168 0.08000
C 	C 	0.58020 0.82380 0.57420 -0.09400
C 	C 	0.53130 0.86520 0.60870 -0.07000
C 	C 	0.65554 0.93349 0.58447 0.09000
C 	C 	0.65698 0.98975 0.61151 -0.10100
C 	C 	0.78323 0.04939 0.59780 0.06600
C 	C 	0.21960 0.88920 0.38070 -0.07600
C 	C 	0.07640 0.84150 0.40830 -0.14400
C 	C 	0.98398 0.87298 0.44704 0.17800
C 	C 	0.17117 0.16070 0.51309 -0.13200
C 	C 	0.48923 0.01658 0.33759 0.19100
C 	C 	0.61310 0.00290 0.36690 -0.28400
C 	C 	0.74170 0.00680 0.31890 0.09200
C 	C 	0.64200 0.03830 0.21510 0.11700
C 	C 	0.50460 0.03520 0.25850 -0.22900
C 	C 	0.24032 0.23620 0.51194 0.13800
C 	C 	0.21900 0.30930 0.45970 -0.19700
C 	C 	0.28150 0.37790 0.46110 0.09900
C 	C 	0.61560 0.69250 0.43900 0.12600
C 	C 	0.67360 0.76380 0.43650 -0.21900
C 	C 	0.73355 0.86517 0.52832 0.11600
C 	C 	0.41980 0.17620 0.42580 -0.06900
C 	C 	0.46870 0.13480 0.39130 -0.10300
C 	C 	0.34446 0.06651 0.41553 0.11700
C 	C 	0.34302 0.01025 0.38849 -0.21700
C 	C 	0.21677 0.95061 0.40220 0.15200
C 	C 	0.78040 0.11080 0.61930 -0.09600
C 	C 	0.92360 0.15850 0.59170 -0.01200
C 	C 	0.01602 0.12702 0.55296 0.01800
C 	C 	0.82883 0.83930 0.48691 -0.17900
C 	C 	0.51077 0.98342 0.66241 0.13100
C 	C 	0.38690 0.99710 0.63310 -0.15400
C 	C 	0.25830 0.99320 0.68110 0.16500
C 	C 	0.35800 0.96170 0.78490 0.10400
C 	C 	0.49540 0.96480 0.74150 -0.18300
C 	C 	0.75968 0.76380 0.48806 0.18000
C 	C 	0.78100 0.69070 0.54030 -0.21400
C 	C 	0.71850 0.62210 0.53890 0.11800
C 	C 	0.38440 0.30750 0.56100 0.10700
C 	C 	0.32640 0.23620 0.56350 -0.19600
N 	N 	0.22436 0.06720 0.46552 -0.28500
N 	N 	0.92760 0.05994 0.55894 -0.24400
N 	N 	0.75830 0.02450 0.24390 -0.15000
N 	N 	0.36327 0.37752 0.51151 -0.24000
N 	N 	0.77564 0.93280 0.53448 -0.26200
N 	N 	0.07240 0.94006 0.44106 -0.30100
N 	N 	0.24170 0.97550 0.75610 -0.15100
N 	N 	0.63673 0.62248 0.48849 -0.24400
Mn	Mn	0.50000 0.50000 0.50000 1.25700
H 	H 	0.10370 0.57940 0.64380 0.05000
H 	H 	0.07760 0.64170 0.50600 0.05700
H 	H 	0.65670 0.35320 0.76350 0.06400
H 	H 	0.44720 0.40310 0.79990 0.06700
H 	H 	0.02850 0.41930 0.58960 0.01200
H 	H 	0.16330 0.34070 0.66310 0.03000
H 	H 	0.81370 0.16190 0.78700 -0.00100
H 	H 	0.66040 0.23500 0.71970 0.08900
H 	H 	0.41370 0.57640 0.73590 0.09500
H 	H 	0.30900 0.57450 0.85160 -0.01300
H 	H 	0.96200 0.40380 0.90260 0.04300
H 	H 	0.05540 0.40060 0.78840 0.08000
H 	H 	0.89630 0.42060 0.35620 0.07000
H 	H 	0.92240 0.35830 0.49400 0.06600
H 	H 	0.34330 0.64680 0.23650 0.06100
H 	H 	0.55280 0.59690 0.20010 0.06700
H 	H 	0.97150 0.58070 0.41040 0.19900
H 	H 	0.83670 0.65930 0.33690 -0.05800
H 	H 	0.18630 0.83810 0.21300 -0.00000
H 	H 	0.33960 0.76500 0.28030 0.11700
H 	H 	0.58630 0.42360 0.26410 0.10800
H 	H 	0.69100 0.42550 0.14840 -0.02800
H 	H 	0.03800 0.59620 0.09740 -0.09100
H 	H 	0.94460 0.59940 0.21160 0.13800
C 	C 	0.73813 0.47168 0.39349 0.10600
C 	C 	0.15440 0.57420 0.60200 -0.07700
C 	C 	0.14000 0.60870 0.52610 -0.09800
C 	C 	0.24001 0.58447 0.48204 0.11200
C 	C 	0.26849 0.61151 0.39874 -0.19000
C 	C 	0.38103 0.59780 0.35281 0.11600
C 	C 	0.60030 0.38070 0.73010 -0.07700
C 	C 	0.48470 0.40830 0.75020 -0.08300
C 	C 	0.43102 0.44704 0.67998 0.09900
C 	C 	0.68426 0.51309 0.32621 -0.16700
C 	C 	0.82682 0.33759 0.64583 0.08700
C 	C 	0.98000 0.36690 0.63020 -0.02100
C 	C 	0.06060 0.31890 0.67430 -0.01300
C 	C 	0.85710 0.21510 0.74660 0.12500
C 	C 	0.76310 0.25850 0.70630 -0.16900
C 	C 	0.75226 0.51194 0.25186 0.19000
C 	C 	0.67870 0.45970 0.23100 -0.22800
C 	C 	0.74260 0.46110 0.16100 0.12400
C 	C 	0.05460 0.43900 0.86850 0.02400
C 	C 	0.11010 0.43650 0.79970 -0.15400
C 	C 	0.26187 0.52832 0.60651 0.09200
C 	C 	0.84560 0.42580 0.39800 -0.08800
C 	C 	0.86000 0.39130 0.47390 -0.07400
C 	C 	0.75999 0.41553 0.51796 0.09200
C 	C 	0.73151 0.38849 0.60126 -0.12500
C 	C 	0.61897 0.40220 0.64719 0.09700
C 	C 	0.39970 0.61930 0.26990 -0.08900
C 	C 	0.51530 0.59170 0.24980 -0.08300
C 	C 	0.56898 0.55296 0.32002 0.10600
C 	C 	0.31574 0.48691 0.67379 -0.14900
C 	C 	0.17318 0.66241 0.35417 0.23400
C 	C 	0.02000 0.63310 0.36980 -0.41300
C 	C 	0.93940 0.68110 0.32570 0.26100
C 	C 	0.14290 0.78490 0.25340 0.09700
C 	C 	0.23690 0.74150 0.29370 -0.24200
C 	C 	0.24774 0.48806 0.74814 0.13300
C 	C 	0.32130 0.54030 0.76900 -0.18600
C 	C 	0.25740 0.53890 0.83900 0.09500
C 	C 	0.94540 0.56100 0.13150 0.21800
C 	C 	0.88990 0.56350 0.20030 -0.26600
N 	N 	0.68988 0.46552 0.46728 -0.27500
N 	N 	0.48654 0.55894 0.38112 -0.27900
N 	N 	0.00220 0.24390 0.73160 -0.14900
N 	N 	0.87478 0.51151 0.11097 -0.25900
N 	N 	0.31012 0.53448 0.53272 -0.27700
N 	N 	0.51346 0.44106 0.61888 -0.27600
N 	N 	0.99780 0.75610 0.26840 -0.15300
N 	N 	0.12522 0.48849 0.88903 -0.22100
Mn	Mn	-0.00000 0.50000 -0.00000 1.22700
H 	H 	0.74750 0.64380 0.77680 0.06400
H 	H 	0.58360 0.50600 0.85230 0.05900
H 	H 	0.42020 0.76350 0.88330 0.08600
H 	H 	0.24710 0.79990 0.79700 0.05200
H 	H 	0.61810 0.58960 0.99110 0.15900
H 	H 	0.82640 0.66310 0.99620 0.03200
H 	H 	0.60070 0.78700 0.05110 -0.00400
H 	H 	0.38010 0.71970 0.04530 0.10300
H 	H 	0.14960 0.73590 0.68770 0.12200
H 	H 	0.16060 0.85160 0.57390 -0.03100
H 	H 	0.86460 0.90260 0.69360 -0.03200
H 	H 	0.84380 0.78840 0.81100 0.13500
H 	H 	0.25250 0.35620 0.22320 0.05600
H 	H 	0.41640 0.49400 0.14770 0.06400
H 	H 	0.57980 0.23650 0.11670 0.03900
H 	H 	0.75290 0.20010 0.20300 0.08400
H 	H 	0.38190 0.41040 0.00890 0.05300
H 	H 	0.17360 0.33690 0.00380 -0.06400
H 	H 	0.39930 0.21300 0.94890 0.00300
H 	H 	0.61990 0.28030 0.95470 0.10300
H 	H 	0.85040 0.26410 0.31230 0.07700
H 	H 	0.83940 0.14840 0.42610 -0.00700
H 	H 	0.13540 0.09740 0.30640 -0.01000
H 	H 	0.15620 0.21160 0.18900 0.07800
C 	C 	0.13162 0.39349 0.13483 0.09700
C 	C 	0.75640 0.60200 0.82380 -0.08300
C 	C 	0.66610 0.52610 0.86520 -0.07100
C 	C 	0.72205 0.48204 0.93349 0.08800
C 	C 	0.66723 0.39874 0.98975 -0.09000
C 	C 	0.73384 0.35281 0.04939 0.04500
C 	C 	0.33040 0.73010 0.88920 -0.12100
C 	C 	0.23490 0.75020 0.84150 -0.05000
C 	C 	0.11100 0.67998 0.87298 0.06100
C 	C 	0.01047 0.32621 0.16070 -0.18800
C 	C 	0.47265 0.64583 0.01658 0.19500
C 	C 	0.61020 0.63020 0.00290 -0.28900
C 	C 	0.73490 0.67430 0.00680 0.08900
C 	C 	0.60370 0.74660 0.03830 0.11900
C 	C 	0.46940 0.70630 0.03520 -0.23100
C 	C 	0.00412 0.25186 0.23620 0.08400
C 	C 	0.90970 0.23100 0.30930 -0.11500
C 	C 	0.90360 0.16100 0.37790 0.07300
C 	C 	0.92310 0.86850 0.69250 0.18800
C 	C 	0.90980 0.79970 0.76380 -0.25500
C 	C 	0.86838 0.60651 0.86517 0.10200
C 	C 	0.24360 0.39800 0.17620 -0.08100
C 	C 	0.33390 0.47390 0.13480 -0.10200
C 	C 	0.27795 0.51796 0.06651 0.11700
C 	C 	0.33277 0.60126 0.01025 -0.22500
C 	C 	0.26616 0.64719 0.95061 0.17200
C 	C 	0.66960 0.26990 0.11080 -0.04600
C 	C 	0.76510 0.24980 0.15850 -0.11700
C 	C 	0.88900 0.32002 0.12702 0.15100
C 	C 	0.98953 0.67379 0.83930 -0.12900
C 	C 	0.52735 0.35417 0.98342 0.12700
C 	C 	0.38980 0.36980 0.99710 -0.14700
C 	C 	0.26510 0.32570 0.99320 0.16700
C 	C 	0.39630 0.25340 0.96170 0.10300
C 	C 	0.53060 0.29370 0.96480 -0.18100
C 	C 	0.99588 0.74814 0.76380 0.22600
C 	C 	0.09030 0.76900 0.69070 -0.28500
C 	C 	0.09640 0.83900 0.62210 0.14100
C 	C 	0.07690 0.13150 0.30750 0.03500
C 	C 	0.09020 0.20030 0.23620 -0.15300
N 	N 	0.15716 0.46728 0.06720 -0.29100
N 	N 	0.86766 0.38112 0.05994 -0.27200
N 	N 	0.73380 0.73160 0.02450 -0.14700
N 	N 	0.98575 0.11097 0.37752 -0.20200
N 	N 	0.84284 0.53272 0.93280 -0.25500
N 	N 	0.13234 0.61888 0.94006 -0.27600
N 	N 	0.26620 0.26840 0.97550 -0.15400
N 	N 	0.01425 0.88903 0.62248 -0.27000
