data_crystal

_cell_length_a 9.58790
_cell_length_b 21.84440
_cell_length_c 21.84530
_cell_angle_alpha 90.00000
_cell_angle_beta  98.78500
_cell_angle_gamma 90.00000

_symmetry_space_group_name_	'P 1'
_symmetry_space_group_name_H-M	'P 1'

loop_
_symmetry_equiv_pos_as_xyz
  x,y,z

loop_
_atom_site_label
_atom_site_type_symbol
_atom_site_fract_x
_atom_site_fract_y
_atom_site_fract_z
_atom_site_charge
Cu	Cu	0.94621 0.68985 0.85159 0.83900
Cu	Cu	0.45376 0.67182 0.67162 0.90900
Cu	Cu	0.49684 0.76040 0.25211 0.85400
Cu	Cu	0.55379 0.18985 0.14841 0.83900
Cu	Cu	0.04624 0.17182 0.32838 0.90900
Cu	Cu	0.00316 0.26040 0.74789 0.85300
Cu	Cu	0.05379 0.31015 0.14841 0.83900
Cu	Cu	0.54624 0.32818 0.32838 0.90900
Cu	Cu	0.50316 0.23960 0.74789 0.85400
Cu	Cu	0.44621 0.81015 0.85159 0.83900
Cu	Cu	0.95376 0.82818 0.67162 0.90900
Cu	Cu	0.99684 0.73960 0.25211 0.85300
Mo	Mo	0.88018 0.67308 0.64934 1.04700
Mo	Mo	0.54439 0.66313 0.84041 1.02100
Mo	Mo	0.68828 0.75092 0.73971 1.12400
Mo	Mo	0.61982 0.17308 0.35066 1.04700
Mo	Mo	0.95561 0.16313 0.15959 1.02200
Mo	Mo	0.81172 0.25092 0.26029 1.12400
Mo	Mo	0.11982 0.32692 0.35066 1.04700
Mo	Mo	0.45561 0.33687 0.15959 1.02100
Mo	Mo	0.31172 0.24908 0.26029 1.12400
Mo	Mo	0.38018 0.82692 0.64934 1.04700
Mo	Mo	0.04439 0.83687 0.84041 1.02200
Mo	Mo	0.18828 0.74908 0.73971 1.12400
H 	H 	0.90680 0.65640 0.98110 -0.06400
H 	H 	0.23760 0.70020 0.90840 -0.06500
H 	H 	0.02800 0.67590 0.07930 0.10800
H 	H 	0.36590 0.72320 0.00350 0.09200
H 	H 	0.71540 0.07290 0.17890 -0.08700
H 	H 	0.31700 0.10880 0.16210 -0.07800
H 	H 	0.26250 0.00660 0.18360 0.09500
H 	H 	0.66630 0.96990 0.20160 0.11200
H 	H 	0.56610 0.82910 0.49410 0.07600
H 	H 	0.68010 0.83680 0.59810 -0.04500
H 	H 	0.04950 0.81500 0.55130 -0.03300
H 	H 	0.95280 0.80590 0.44500 0.09800
H 	H 	0.76990 0.42150 0.32280 -0.03300
H 	H 	0.35310 0.43080 0.32380 -0.04400
H 	H 	0.77750 0.52970 0.30820 0.09400
H 	H 	0.35840 0.53570 0.30220 0.09200
H 	H 	0.17150 0.82780 0.05420 0.03900
H 	H 	0.26910 0.92450 0.10360 0.05300
H 	H 	0.57670 0.98250 0.31820 0.03500
H 	H 	0.67130 0.92660 0.41090 0.04600
H 	H 	0.78970 0.69250 0.45640 0.03500
H 	H 	0.71930 0.59560 0.40270 0.05500
H 	H 	0.45060 0.53960 0.18020 0.03800
H 	H 	0.31330 0.59500 0.09560 0.05100
H 	H 	0.59320 0.15640 0.01890 -0.06500
H 	H 	0.26240 0.20020 0.09160 -0.06500
H 	H 	0.47200 0.17590 0.92070 0.10900
H 	H 	0.13410 0.22320 0.99650 0.09200
H 	H 	0.78460 0.57290 0.82110 -0.08700
H 	H 	0.18300 0.60880 0.83790 -0.07700
H 	H 	0.23750 0.50660 0.81640 0.09500
H 	H 	0.83370 0.46990 0.79840 0.11200
H 	H 	0.93390 0.32910 0.50590 0.07700
H 	H 	0.81990 0.33680 0.40190 -0.04500
H 	H 	0.45050 0.31500 0.44870 -0.03600
H 	H 	0.54720 0.30590 0.55500 0.09900
H 	H 	0.73010 0.92150 0.67720 -0.03300
H 	H 	0.14690 0.93080 0.67620 -0.04500
H 	H 	0.72250 0.02970 0.69180 0.09400
H 	H 	0.14160 0.03570 0.69780 0.09300
H 	H 	0.32850 0.32780 0.94580 0.03800
H 	H 	0.23090 0.42450 0.89640 0.05300
H 	H 	0.92330 0.48250 0.68180 0.03600
H 	H 	0.82870 0.42660 0.58910 0.04700
H 	H 	0.71030 0.19250 0.54360 0.03600
H 	H 	0.78070 0.09560 0.59730 0.05500
H 	H 	0.04940 0.03960 0.81980 0.03700
H 	H 	0.18670 0.09500 0.90440 0.05100
H 	H 	0.09320 0.34360 0.01890 -0.06400
H 	H 	0.76240 0.29980 0.09160 -0.06500
H 	H 	0.97200 0.32410 0.92070 0.10800
H 	H 	0.63410 0.27680 0.99650 0.09200
H 	H 	0.28460 0.92710 0.82110 -0.08700
H 	H 	0.68300 0.89120 0.83790 -0.07800
H 	H 	0.73750 0.99340 0.81640 0.09500
H 	H 	0.33370 0.03010 0.79840 0.11200
H 	H 	0.43390 0.17090 0.50590 0.07600
H 	H 	0.31990 0.16320 0.40190 -0.04500
H 	H 	0.95050 0.18500 0.44870 -0.03300
H 	H 	0.04720 0.19410 0.55500 0.09800
H 	H 	0.23010 0.57850 0.67720 -0.03300
H 	H 	0.64690 0.56920 0.67620 -0.04400
H 	H 	0.22250 0.47030 0.69180 0.09400
H 	H 	0.64160 0.46430 0.69780 0.09200
H 	H 	0.82850 0.17220 0.94580 0.03900
H 	H 	0.73090 0.07550 0.89640 0.05300
H 	H 	0.42330 0.01750 0.68180 0.03500
H 	H 	0.32870 0.07340 0.58910 0.04600
H 	H 	0.21030 0.30750 0.54360 0.03500
H 	H 	0.28070 0.40440 0.59730 0.05500
H 	H 	0.54940 0.46040 0.81980 0.03800
H 	H 	0.68670 0.40500 0.90440 0.05100
H 	H 	0.40680 0.84360 0.98110 -0.06500
H 	H 	0.73760 0.79980 0.90840 -0.06500
H 	H 	0.52800 0.82410 0.07930 0.10900
H 	H 	0.86590 0.77680 0.00350 0.09200
H 	H 	0.21540 0.42710 0.17890 -0.08700
H 	H 	0.81700 0.39120 0.16210 -0.07700
H 	H 	0.76250 0.49340 0.18360 0.09500
H 	H 	0.16630 0.53010 0.20160 0.11200
H 	H 	0.06610 0.67090 0.49410 0.07700
H 	H 	0.18010 0.66320 0.59810 -0.04500
H 	H 	0.54950 0.68500 0.55130 -0.03600
H 	H 	0.45280 0.69410 0.44500 0.09900
H 	H 	0.26990 0.07850 0.32280 -0.03300
H 	H 	0.85310 0.06920 0.32380 -0.04500
H 	H 	0.27750 0.97030 0.30820 0.09400
H 	H 	0.85840 0.96430 0.30220 0.09300
H 	H 	0.67150 0.67220 0.05420 0.03800
H 	H 	0.76910 0.57550 0.10360 0.05300
H 	H 	0.07670 0.51750 0.31820 0.03600
H 	H 	0.17130 0.57340 0.41090 0.04700
H 	H 	0.28970 0.80750 0.45640 0.03600
H 	H 	0.21930 0.90440 0.40270 0.05500
H 	H 	0.95060 0.96040 0.18020 0.03700
H 	H 	0.81330 0.90500 0.09560 0.05100
C 	C 	0.99850 0.67150 0.98590 0.13300
C 	C 	0.19480 0.69780 0.94380 0.08400
C 	C 	0.07240 0.68320 0.04510 -0.23100
C 	C 	0.27230 0.71070 0.00030 -0.21000
C 	C 	0.20560 0.70460 0.05410 0.15400
C 	C 	0.62270 0.06090 0.17980 0.11300
C 	C 	0.39090 0.08100 0.17010 0.11000
C 	C 	0.35530 0.01890 0.18350 -0.24000
C 	C 	0.59190 0.99760 0.19400 -0.25800
C 	C 	0.46770 0.97860 0.19650 0.19300
C 	C 	0.66320 0.82440 0.50460 -0.19800
C 	C 	0.73350 0.82940 0.56670 0.08300
C 	C 	0.75120 0.81180 0.46040 0.14000
C 	C 	0.95220 0.81650 0.53940 0.09100
C 	C 	0.89490 0.81050 0.47520 -0.20600
C 	C 	0.68790 0.44480 0.31930 0.09000
C 	C 	0.43670 0.45040 0.31890 0.07000
C 	C 	0.56340 0.54140 0.29990 0.14000
C 	C 	0.69240 0.50950 0.30890 -0.19700
C 	C 	0.44140 0.51300 0.30630 -0.19700
C 	C 	0.29370 0.72230 0.11530 -0.15700
C 	C 	0.30480 0.78270 0.13130 0.08600
C 	C 	0.23570 0.83200 0.09040 -0.07600
C 	C 	0.28840 0.88510 0.11850 -0.10000
C 	C 	0.37890 0.86920 0.17520 0.10600
C 	C 	0.45200 0.91270 0.21610 -0.16300
C 	C 	0.52260 0.89750 0.27550 0.09900
C 	C 	0.57880 0.94010 0.32240 -0.09100
C 	C 	0.63410 0.91000 0.37270 -0.08200
C 	C 	0.62420 0.84350 0.35520 0.09300
C 	C 	0.68040 0.79750 0.39440 -0.14600
C 	C 	0.67910 0.73660 0.37600 0.08400
C 	C 	0.73700 0.68800 0.41730 -0.07900
C 	C 	0.69930 0.63490 0.38750 -0.09700
C 	C 	0.62100 0.65100 0.32690 0.10200
C 	C 	0.56650 0.60970 0.28260 -0.15100
C 	C 	0.48240 0.62420 0.22650 0.10400
C 	C 	0.43360 0.58150 0.17880 -0.08600
C 	C 	0.36010 0.61160 0.13230 -0.09200
C 	C 	0.36670 0.67460 0.14940 0.09600
C 	C 	0.50150 0.17150 0.01410 0.13600
C 	C 	0.30520 0.19780 0.05620 0.08500
C 	C 	0.42760 0.18320 0.95490 -0.23400
C 	C 	0.22770 0.21070 0.99970 -0.21100
C 	C 	0.29440 0.20460 0.94590 0.15600
C 	C 	0.87730 0.56090 0.82020 0.11400
C 	C 	0.10910 0.58100 0.82990 0.11000
C 	C 	0.14470 0.51890 0.81650 -0.23900
C 	C 	0.90810 0.49760 0.80600 -0.25700
C 	C 	0.03230 0.47860 0.80350 0.19100
C 	C 	0.83680 0.32440 0.49540 -0.19900
C 	C 	0.76650 0.32940 0.43330 0.08400
C 	C 	0.74880 0.31180 0.53960 0.14100
C 	C 	0.54780 0.31650 0.46060 0.09500
C 	C 	0.60510 0.31050 0.52480 -0.20800
C 	C 	0.81210 0.94480 0.68070 0.08900
C 	C 	0.06330 0.95040 0.68110 0.07300
C 	C 	0.93660 0.04140 0.70010 0.14300
C 	C 	0.80760 0.00950 0.69110 -0.19700
C 	C 	0.05860 0.01300 0.69370 -0.20100
C 	C 	0.20630 0.22230 0.88470 -0.15800
C 	C 	0.19520 0.28270 0.86870 0.08600
C 	C 	0.26430 0.33200 0.90960 -0.07700
C 	C 	0.21160 0.38510 0.88150 -0.10000
C 	C 	0.12110 0.36920 0.82480 0.10600
C 	C 	0.04800 0.41270 0.78390 -0.16400
C 	C 	0.97740 0.39750 0.72450 0.10000
C 	C 	0.92120 0.44010 0.67760 -0.09100
C 	C 	0.86590 0.41000 0.62730 -0.08100
C 	C 	0.87580 0.34350 0.64480 0.09400
C 	C 	0.81960 0.29750 0.60560 -0.14600
C 	C 	0.82090 0.23660 0.62400 0.08400
C 	C 	0.76300 0.18800 0.58270 -0.07900
C 	C 	0.80070 0.13490 0.61250 -0.09600
C 	C 	0.87900 0.15100 0.67310 0.10200
C 	C 	0.93350 0.10970 0.71740 -0.14900
C 	C 	0.01760 0.12420 0.77350 0.10100
C 	C 	0.06640 0.08150 0.82120 -0.08500
C 	C 	0.13990 0.11160 0.86770 -0.09300
C 	C 	0.13330 0.17460 0.85060 0.09600
C 	C 	0.00150 0.32850 0.01410 0.13300
C 	C 	0.80520 0.30220 0.05620 0.08400
C 	C 	0.92760 0.31680 0.95490 -0.23100
C 	C 	0.72770 0.28930 0.99970 -0.21000
C 	C 	0.79440 0.29540 0.94590 0.15400
C 	C 	0.37730 0.93910 0.82020 0.11300
C 	C 	0.60910 0.91900 0.82990 0.11000
C 	C 	0.64470 0.98110 0.81650 -0.24000
C 	C 	0.40810 0.00240 0.80600 -0.25800
C 	C 	0.53230 0.02140 0.80350 0.19300
C 	C 	0.33680 0.17560 0.49540 -0.19800
C 	C 	0.26650 0.17060 0.43330 0.08300
C 	C 	0.24880 0.18820 0.53960 0.14000
C 	C 	0.04780 0.18350 0.46060 0.09100
C 	C 	0.10510 0.18950 0.52480 -0.20600
C 	C 	0.31210 0.55520 0.68070 0.09000
C 	C 	0.56330 0.54960 0.68110 0.07000
C 	C 	0.43660 0.45860 0.70010 0.14000
C 	C 	0.30760 0.49050 0.69110 -0.19700
C 	C 	0.55860 0.48700 0.69370 -0.19700
C 	C 	0.70630 0.27770 0.88470 -0.15700
C 	C 	0.69520 0.21730 0.86870 0.08600
C 	C 	0.76430 0.16800 0.90960 -0.07600
C 	C 	0.71160 0.11490 0.88150 -0.10000
C 	C 	0.62110 0.13080 0.82480 0.10600
C 	C 	0.54800 0.08730 0.78390 -0.16300
C 	C 	0.47740 0.10250 0.72450 0.09900
C 	C 	0.42120 0.05990 0.67760 -0.09100
C 	C 	0.36590 0.09000 0.62730 -0.08200
C 	C 	0.37580 0.15650 0.64480 0.09300
C 	C 	0.31960 0.20250 0.60560 -0.14600
C 	C 	0.32090 0.26340 0.62400 0.08400
C 	C 	0.26300 0.31200 0.58270 -0.07900
C 	C 	0.30070 0.36510 0.61250 -0.09700
C 	C 	0.37900 0.34900 0.67310 0.10200
C 	C 	0.43350 0.39030 0.71740 -0.15100
C 	C 	0.51760 0.37580 0.77350 0.10400
C 	C 	0.56640 0.41850 0.82120 -0.08600
C 	C 	0.63990 0.38840 0.86770 -0.09200
C 	C 	0.63330 0.32540 0.85060 0.09600
C 	C 	0.49850 0.82850 0.98590 0.13600
C 	C 	0.69480 0.80220 0.94380 0.08500
C 	C 	0.57240 0.81680 0.04510 -0.23400
C 	C 	0.77230 0.78930 0.00030 -0.21100
C 	C 	0.70560 0.79540 0.05410 0.15600
C 	C 	0.12270 0.43910 0.17980 0.11400
C 	C 	0.89090 0.41900 0.17010 0.11000
C 	C 	0.85530 0.48110 0.18350 -0.23900
C 	C 	0.09190 0.50240 0.19400 -0.25700
C 	C 	0.96770 0.52140 0.19650 0.19100
C 	C 	0.16320 0.67560 0.50460 -0.19900
C 	C 	0.23350 0.67060 0.56670 0.08400
C 	C 	0.25120 0.68820 0.46040 0.14100
C 	C 	0.45220 0.68350 0.53940 0.09500
C 	C 	0.39490 0.68950 0.47520 -0.20800
C 	C 	0.18790 0.05520 0.31930 0.08900
C 	C 	0.93670 0.04960 0.31890 0.07300
C 	C 	0.06340 0.95860 0.29990 0.14300
C 	C 	0.19240 0.99050 0.30890 -0.19700
C 	C 	0.94140 0.98700 0.30630 -0.20100
C 	C 	0.79370 0.77770 0.11530 -0.15800
C 	C 	0.80480 0.71730 0.13130 0.08600
C 	C 	0.73570 0.66800 0.09040 -0.07700
C 	C 	0.78840 0.61490 0.11850 -0.10000
C 	C 	0.87890 0.63080 0.17520 0.10600
C 	C 	0.95200 0.58730 0.21610 -0.16400
C 	C 	0.02260 0.60250 0.27550 0.10000
C 	C 	0.07880 0.55990 0.32240 -0.09100
C 	C 	0.13410 0.59000 0.37270 -0.08100
C 	C 	0.12420 0.65650 0.35520 0.09400
C 	C 	0.18040 0.70250 0.39440 -0.14600
C 	C 	0.17910 0.76340 0.37600 0.08400
C 	C 	0.23700 0.81200 0.41730 -0.07900
C 	C 	0.19930 0.86510 0.38750 -0.09600
C 	C 	0.12100 0.84900 0.32690 0.10200
C 	C 	0.06650 0.89030 0.28260 -0.14900
C 	C 	0.98240 0.87580 0.22650 0.10100
C 	C 	0.93360 0.91850 0.17880 -0.08500
C 	C 	0.86010 0.88840 0.13230 -0.09300
C 	C 	0.86670 0.82540 0.14940 0.09600
N 	N 	0.05820 0.68180 0.93840 -0.26400
N 	N 	0.51870 0.10150 0.16810 -0.28000
N 	N 	0.87170 0.82390 0.58130 -0.24800
N 	N 	0.56640 0.41880 0.32360 -0.23400
N 	N 	0.54800 0.83840 0.29740 -0.24900
N 	N 	0.60630 0.71340 0.32160 -0.25300
N 	N 	0.44090 0.68130 0.20870 -0.25200
N 	N 	0.38630 0.80710 0.18360 -0.25400
N 	N 	0.44180 0.18180 0.06160 -0.26600
N 	N 	0.98130 0.60150 0.83190 -0.28000
N 	N 	0.62830 0.32390 0.41870 -0.24900
N 	N 	0.93360 0.91880 0.67640 -0.23500
N 	N 	0.95200 0.33840 0.70260 -0.24900
N 	N 	0.89370 0.21340 0.67840 -0.25300
N 	N 	0.05910 0.18130 0.79130 -0.25200
N 	N 	0.11370 0.30710 0.81640 -0.25400
N 	N 	0.94180 0.31820 0.06160 -0.26400
N 	N 	0.48130 0.89850 0.83190 -0.28000
N 	N 	0.12830 0.17610 0.41870 -0.24800
N 	N 	0.43360 0.58120 0.67640 -0.23400
N 	N 	0.45200 0.16160 0.70260 -0.24900
N 	N 	0.39370 0.28660 0.67840 -0.25300
N 	N 	0.55910 0.31870 0.79130 -0.25200
N 	N 	0.61370 0.19290 0.81640 -0.25400
N 	N 	0.55820 0.81820 0.93840 -0.26600
N 	N 	0.01870 0.39850 0.16810 -0.28000
N 	N 	0.37170 0.67610 0.58130 -0.24900
N 	N 	0.06640 0.08120 0.32360 -0.23500
N 	N 	0.04800 0.66160 0.29740 -0.24900
N 	N 	0.10630 0.78660 0.32160 -0.25300
N 	N 	0.94090 0.81870 0.20870 -0.25200
N 	N 	0.88630 0.69290 0.18360 -0.25400
O 	O 	0.69560 0.68790 0.65800 -0.53600
O 	O 	0.75480 0.81260 0.70370 -0.53900
O 	O 	0.83650 0.70590 0.77140 -0.63000
O 	O 	0.93790 0.77860 0.86990 -0.59300
O 	O 	0.00010 0.73870 0.67730 -0.61300
O 	O 	0.55360 0.67230 0.75760 -0.63600
O 	O 	0.80440 0.18790 0.34200 -0.53500
O 	O 	0.74520 0.31260 0.29630 -0.53900
O 	O 	0.66350 0.20590 0.22860 -0.63000
O 	O 	0.56210 0.27860 0.13010 -0.59200
O 	O 	0.49990 0.23870 0.32270 -0.61400
O 	O 	0.94640 0.17230 0.24240 -0.63500
O 	O 	0.30440 0.31210 0.34200 -0.53600
O 	O 	0.24520 0.18740 0.29630 -0.53900
O 	O 	0.16350 0.29410 0.22860 -0.63000
O 	O 	0.06210 0.22140 0.13010 -0.59300
O 	O 	0.99990 0.26130 0.32270 -0.61300
O 	O 	0.44640 0.32770 0.24240 -0.63600
O 	O 	0.19560 0.81210 0.65800 -0.53500
O 	O 	0.25480 0.68740 0.70370 -0.53900
O 	O 	0.33650 0.79410 0.77140 -0.63000
O 	O 	0.43790 0.72140 0.86990 -0.59200
O 	O 	0.50010 0.76130 0.67730 -0.61400
O 	O 	0.05360 0.82770 0.75760 -0.63500
