data_crystal

_cell_length_a 19.66600
_cell_length_b 19.66600
_cell_length_c 19.66600
_cell_angle_alpha 90.00000
_cell_angle_beta  90.00000
_cell_angle_gamma 90.00000

_symmetry_space_group_name_	'P 1'
_symmetry_space_group_name_H-M	'P 1'

loop_
_symmetry_equiv_pos_as_xyz
  x,y,z

loop_
_atom_site_label
_atom_site_type_symbol
_atom_site_fract_x
_atom_site_fract_y
_atom_site_fract_z
_atom_site_charge
N 	N 	0.24980 0.67960 0.32240 -0.26600
C 	C 	0.19390 0.74410 0.60970 0.14000
H 	H 	0.15270 0.74080 0.63280 -0.03100
C 	C 	0.19270 0.74240 0.53910 -0.24200
H 	H 	0.15150 0.73590 0.51670 0.11400
C 	C 	0.24840 0.68780 0.39250 0.11400
C 	C 	0.24760 0.62280 0.42610 -0.08500
H 	H 	0.24680 0.61530 0.47280 0.06100
C 	C 	0.24840 0.57550 0.37760 -0.09000
H 	H 	0.24740 0.52870 0.38440 0.06300
C 	C 	0.25110 0.60970 0.31260 0.12000
C 	C 	0.30680 0.46670 0.24570 -0.27700
H 	H 	0.34810 0.48940 0.24110 0.12600
C 	C 	0.30640 0.39690 0.24790 0.15600
H 	H 	0.34790 0.37430 0.24790 -0.03800
N 	N 	0.25020 0.82040 0.32240 -0.26600
C 	C 	0.30610 0.75590 0.60970 0.14000
H 	H 	0.34730 0.75920 0.63280 -0.03100
C 	C 	0.30730 0.75760 0.53910 -0.24200
H 	H 	0.34850 0.76410 0.51670 0.11400
C 	C 	0.25160 0.81220 0.39250 0.11400
C 	C 	0.25240 0.87720 0.42610 -0.08500
H 	H 	0.25320 0.88470 0.47280 0.06100
C 	C 	0.25160 0.92450 0.37760 -0.08900
H 	H 	0.25260 0.97130 0.38440 0.06300
C 	C 	0.24890 0.89030 0.31260 0.12000
C 	C 	0.19320 0.03330 0.24570 -0.27400
H 	H 	0.15190 0.01060 0.24110 0.12500
C 	C 	0.19360 0.10310 0.24790 0.15400
H 	H 	0.15210 0.12570 0.24790 -0.03700
N 	N 	0.25020 0.67960 0.17760 -0.26600
C 	C 	0.30610 0.74410 0.89030 0.14000
H 	H 	0.34730 0.74080 0.86720 -0.03100
C 	C 	0.30730 0.74240 0.96090 -0.24200
H 	H 	0.34850 0.73590 0.98330 0.11400
C 	C 	0.25160 0.68780 0.10750 0.11400
C 	C 	0.25240 0.62280 0.07390 -0.08500
H 	H 	0.25320 0.61530 0.02720 0.06100
C 	C 	0.25160 0.57550 0.12240 -0.09000
H 	H 	0.25260 0.52870 0.11560 0.06300
C 	C 	0.24890 0.60970 0.18740 0.12000
C 	C 	0.19320 0.46670 0.25430 -0.27700
H 	H 	0.15190 0.48940 0.25890 0.12600
C 	C 	0.19360 0.39690 0.25210 0.15600
H 	H 	0.15210 0.37430 0.25210 -0.03800
N 	N 	0.24980 0.82040 0.17760 -0.26600
C 	C 	0.19390 0.75590 0.89030 0.14000
H 	H 	0.15270 0.75920 0.86720 -0.03100
C 	C 	0.19270 0.75760 0.96090 -0.24200
H 	H 	0.15150 0.76410 0.98330 0.11400
C 	C 	0.24840 0.81220 0.10750 0.11400
C 	C 	0.24760 0.87720 0.07390 -0.08500
H 	H 	0.24680 0.88470 0.02720 0.06100
C 	C 	0.24840 0.92450 0.12240 -0.08900
H 	H 	0.24740 0.97130 0.11560 0.06200
C 	C 	0.25110 0.89030 0.18740 0.11900
C 	C 	0.30680 0.03330 0.25430 -0.27500
H 	H 	0.34810 0.01060 0.25890 0.12400
C 	C 	0.30640 0.10310 0.25210 0.15300
H 	H 	0.34790 0.12570 0.25210 -0.03900
N 	N 	0.32240 0.24980 0.67960 -0.26700
C 	C 	0.60970 0.19390 0.74410 0.13900
H 	H 	0.63280 0.15270 0.74080 -0.03200
C 	C 	0.53910 0.19270 0.74240 -0.24300
H 	H 	0.51670 0.15150 0.73590 0.11300
C 	C 	0.39250 0.24840 0.68780 0.11300
C 	C 	0.42610 0.24760 0.62280 -0.08600
H 	H 	0.47280 0.24680 0.61530 0.06000
C 	C 	0.37760 0.24840 0.57550 -0.09100
H 	H 	0.38440 0.24740 0.52870 0.06200
C 	C 	0.31260 0.25110 0.60970 0.11900
C 	C 	0.24570 0.30680 0.46670 -0.27800
H 	H 	0.24110 0.34810 0.48940 0.12500
C 	C 	0.24790 0.30640 0.39690 0.15500
H 	H 	0.24790 0.34790 0.37430 -0.03900
N 	N 	0.32240 0.25020 0.82040 -0.26700
C 	C 	0.60970 0.30610 0.75590 0.13900
H 	H 	0.63280 0.34730 0.75920 -0.03200
C 	C 	0.53910 0.30730 0.75760 -0.24300
H 	H 	0.51670 0.34850 0.76410 0.11300
C 	C 	0.39250 0.25160 0.81220 0.11300
C 	C 	0.42610 0.25240 0.87720 -0.08600
H 	H 	0.47280 0.25320 0.88470 0.06000
C 	C 	0.37760 0.25160 0.92450 -0.09000
H 	H 	0.38440 0.25260 0.97130 0.06200
C 	C 	0.31260 0.24890 0.89030 0.11900
C 	C 	0.24570 0.19320 0.03330 -0.27500
H 	H 	0.24110 0.15190 0.01060 0.12400
C 	C 	0.24790 0.19360 0.10310 0.15300
H 	H 	0.24790 0.15210 0.12570 -0.03800
N 	N 	0.17760 0.25020 0.67960 -0.26700
C 	C 	0.89030 0.30610 0.74410 0.13900
H 	H 	0.86720 0.34730 0.74080 -0.03200
C 	C 	0.96090 0.30730 0.74240 -0.24300
H 	H 	0.98330 0.34850 0.73590 0.11300
C 	C 	0.10750 0.25160 0.68780 0.11300
C 	C 	0.07390 0.25240 0.62280 -0.08600
H 	H 	0.02720 0.25320 0.61530 0.06000
C 	C 	0.12240 0.25160 0.57550 -0.09100
H 	H 	0.11560 0.25260 0.52870 0.06200
C 	C 	0.18740 0.24890 0.60970 0.11900
C 	C 	0.25430 0.19320 0.46670 -0.27800
H 	H 	0.25890 0.15190 0.48940 0.12500
C 	C 	0.25210 0.19360 0.39690 0.15500
H 	H 	0.25210 0.15210 0.37430 -0.03900
N 	N 	0.17760 0.24980 0.82040 -0.26700
C 	C 	0.89030 0.19390 0.75590 0.13900
H 	H 	0.86720 0.15270 0.75920 -0.03200
C 	C 	0.96090 0.19270 0.75760 -0.24300
H 	H 	0.98330 0.15150 0.76410 0.11300
C 	C 	0.10750 0.24840 0.81220 0.11300
C 	C 	0.07390 0.24760 0.87720 -0.08600
H 	H 	0.02720 0.24680 0.88470 0.06000
C 	C 	0.12240 0.24840 0.92450 -0.09000
H 	H 	0.11560 0.24740 0.97130 0.06200
C 	C 	0.18740 0.25110 0.89030 0.11900
C 	C 	0.25430 0.30680 0.03330 -0.27500
H 	H 	0.25890 0.34810 0.01060 0.12400
C 	C 	0.25210 0.30640 0.10310 0.15300
H 	H 	0.25210 0.34790 0.12570 -0.03900
N 	N 	0.67960 0.32240 0.24980 -0.26700
C 	C 	0.74410 0.60970 0.19390 0.13900
H 	H 	0.74080 0.63280 0.15270 -0.03200
C 	C 	0.74240 0.53910 0.19270 -0.24300
H 	H 	0.73590 0.51670 0.15150 0.11300
C 	C 	0.68780 0.39250 0.24840 0.11300
C 	C 	0.62280 0.42610 0.24760 -0.08600
H 	H 	0.61530 0.47280 0.24680 0.06000
C 	C 	0.57550 0.37760 0.24840 -0.09100
H 	H 	0.52870 0.38440 0.24740 0.06200
C 	C 	0.60970 0.31260 0.25110 0.11900
C 	C 	0.46670 0.24570 0.30680 -0.27800
H 	H 	0.48940 0.24110 0.34810 0.12500
C 	C 	0.39690 0.24790 0.30640 0.15500
H 	H 	0.37430 0.24790 0.34790 -0.03900
N 	N 	0.82040 0.32240 0.25020 -0.26700
C 	C 	0.75590 0.60970 0.30610 0.13900
H 	H 	0.75920 0.63280 0.34730 -0.03200
C 	C 	0.75760 0.53910 0.30730 -0.24300
H 	H 	0.76410 0.51670 0.34850 0.11300
C 	C 	0.81220 0.39250 0.25160 0.11300
C 	C 	0.87720 0.42610 0.25240 -0.08600
H 	H 	0.88470 0.47280 0.25320 0.06000
C 	C 	0.92450 0.37760 0.25160 -0.09000
H 	H 	0.97130 0.38440 0.25260 0.06200
C 	C 	0.89030 0.31260 0.24890 0.11900
C 	C 	0.03330 0.24570 0.19320 -0.27500
H 	H 	0.01060 0.24110 0.15190 0.12400
C 	C 	0.10310 0.24790 0.19360 0.15300
H 	H 	0.12570 0.24790 0.15210 -0.03800
N 	N 	0.67960 0.17760 0.25020 -0.26700
C 	C 	0.74410 0.89030 0.30610 0.13900
H 	H 	0.74080 0.86720 0.34730 -0.03200
C 	C 	0.74240 0.96090 0.30730 -0.24300
H 	H 	0.73590 0.98330 0.34850 0.11300
C 	C 	0.68780 0.10750 0.25160 0.11300
C 	C 	0.62280 0.07390 0.25240 -0.08600
H 	H 	0.61530 0.02720 0.25320 0.06000
C 	C 	0.57550 0.12240 0.25160 -0.09100
H 	H 	0.52870 0.11560 0.25260 0.06200
C 	C 	0.60970 0.18740 0.24890 0.11900
C 	C 	0.46670 0.25430 0.19320 -0.27800
H 	H 	0.48940 0.25890 0.15190 0.12500
C 	C 	0.39690 0.25210 0.19360 0.15500
H 	H 	0.37430 0.25210 0.15210 -0.03900
N 	N 	0.82040 0.17760 0.24980 -0.26700
C 	C 	0.75590 0.89030 0.19390 0.13900
H 	H 	0.75920 0.86720 0.15270 -0.03200
C 	C 	0.75760 0.96090 0.19270 -0.24300
H 	H 	0.76410 0.98330 0.15150 0.11300
C 	C 	0.81220 0.10750 0.24840 0.11300
C 	C 	0.87720 0.07390 0.24760 -0.08600
H 	H 	0.88470 0.02720 0.24680 0.06000
C 	C 	0.92450 0.12240 0.24840 -0.09000
H 	H 	0.97130 0.11560 0.24740 0.06200
C 	C 	0.89030 0.18740 0.25110 0.11900
C 	C 	0.03330 0.25430 0.30680 -0.27500
H 	H 	0.01060 0.25890 0.34810 0.12400
C 	C 	0.10310 0.25210 0.30640 0.15300
H 	H 	0.12570 0.25210 0.34790 -0.03900
N 	N 	0.75020 0.32040 0.67760 -0.26700
C 	C 	0.80610 0.25590 0.39030 0.13900
H 	H 	0.84730 0.25920 0.36720 -0.03200
C 	C 	0.80730 0.25760 0.46090 -0.24300
H 	H 	0.84850 0.26410 0.48330 0.11300
C 	C 	0.75160 0.31220 0.60750 0.11300
C 	C 	0.75240 0.37720 0.57390 -0.08600
H 	H 	0.75320 0.38470 0.52720 0.06000
C 	C 	0.75160 0.42450 0.62240 -0.09100
H 	H 	0.75260 0.47130 0.61560 0.06200
C 	C 	0.74890 0.39030 0.68740 0.11900
C 	C 	0.69320 0.53330 0.75430 -0.27800
H 	H 	0.65190 0.51060 0.75890 0.12500
C 	C 	0.69360 0.60310 0.75210 0.15500
H 	H 	0.65210 0.62570 0.75210 -0.03900
N 	N 	0.74980 0.17960 0.67760 -0.26700
C 	C 	0.69390 0.24410 0.39030 0.13900
H 	H 	0.65270 0.24080 0.36720 -0.03200
C 	C 	0.69270 0.24240 0.46090 -0.24300
H 	H 	0.65150 0.23590 0.48330 0.11300
C 	C 	0.74840 0.18780 0.60750 0.11300
C 	C 	0.74760 0.12280 0.57390 -0.08600
H 	H 	0.74680 0.11530 0.52720 0.06000
C 	C 	0.74840 0.07550 0.62240 -0.09000
H 	H 	0.74740 0.02870 0.61560 0.06200
C 	C 	0.75110 0.10970 0.68740 0.11900
C 	C 	0.80680 0.96670 0.75430 -0.27500
H 	H 	0.84810 0.98940 0.75890 0.12400
C 	C 	0.80640 0.89690 0.75210 0.15300
H 	H 	0.84790 0.87430 0.75210 -0.03800
N 	N 	0.74980 0.32040 0.82240 -0.26700
C 	C 	0.69390 0.25590 0.10970 0.13900
H 	H 	0.65270 0.25920 0.13280 -0.03200
C 	C 	0.69270 0.25760 0.03910 -0.24300
H 	H 	0.65150 0.26410 0.01670 0.11300
C 	C 	0.74840 0.31220 0.89250 0.11300
C 	C 	0.74760 0.37720 0.92610 -0.08600
H 	H 	0.74680 0.38470 0.97280 0.06000
C 	C 	0.74840 0.42450 0.87760 -0.09100
H 	H 	0.74740 0.47130 0.88440 0.06200
C 	C 	0.75110 0.39030 0.81260 0.11900
C 	C 	0.80680 0.53330 0.74570 -0.27800
H 	H 	0.84810 0.51060 0.74110 0.12500
C 	C 	0.80640 0.60310 0.74790 0.15500
H 	H 	0.84790 0.62570 0.74790 -0.03900
N 	N 	0.75020 0.17960 0.82240 -0.26700
C 	C 	0.80610 0.24410 0.10970 0.13900
H 	H 	0.84730 0.24080 0.13280 -0.03200
C 	C 	0.80730 0.24240 0.03910 -0.24300
H 	H 	0.84850 0.23590 0.01670 0.11300
C 	C 	0.75160 0.18780 0.89250 0.11300
C 	C 	0.75240 0.12280 0.92610 -0.08600
H 	H 	0.75320 0.11530 0.97280 0.06000
C 	C 	0.75160 0.07550 0.87760 -0.09000
H 	H 	0.75260 0.02870 0.88440 0.06200
C 	C 	0.74890 0.10970 0.81260 0.11900
C 	C 	0.69320 0.96670 0.74570 -0.27500
H 	H 	0.65190 0.98940 0.74110 0.12400
C 	C 	0.69360 0.89690 0.74790 0.15300
H 	H 	0.65210 0.87430 0.74790 -0.03900
N 	N 	0.67760 0.75020 0.32040 -0.26700
C 	C 	0.39030 0.80610 0.25590 0.13900
H 	H 	0.36720 0.84730 0.25920 -0.03200
C 	C 	0.46090 0.80730 0.25760 -0.24300
H 	H 	0.48330 0.84850 0.26410 0.11300
C 	C 	0.60750 0.75160 0.31220 0.11300
C 	C 	0.57390 0.75240 0.37720 -0.08600
H 	H 	0.52720 0.75320 0.38470 0.06000
C 	C 	0.62240 0.75160 0.42450 -0.09100
H 	H 	0.61560 0.75260 0.47130 0.06200
C 	C 	0.68740 0.74890 0.39030 0.11900
C 	C 	0.75430 0.69320 0.53330 -0.27800
H 	H 	0.75890 0.65190 0.51060 0.12500
C 	C 	0.75210 0.69360 0.60310 0.15500
H 	H 	0.75210 0.65210 0.62570 -0.03900
N 	N 	0.67760 0.74980 0.17960 -0.26700
C 	C 	0.39030 0.69390 0.24410 0.13900
H 	H 	0.36720 0.65270 0.24080 -0.03200
C 	C 	0.46090 0.69270 0.24240 -0.24300
H 	H 	0.48330 0.65150 0.23590 0.11300
C 	C 	0.60750 0.74840 0.18780 0.11300
C 	C 	0.57390 0.74760 0.12280 -0.08600
H 	H 	0.52720 0.74680 0.11530 0.06000
C 	C 	0.62240 0.74840 0.07550 -0.09000
H 	H 	0.61560 0.74740 0.02870 0.06200
C 	C 	0.68740 0.75110 0.10970 0.11900
C 	C 	0.75430 0.80680 0.96670 -0.27500
H 	H 	0.75890 0.84810 0.98940 0.12400
C 	C 	0.75210 0.80640 0.89690 0.15300
H 	H 	0.75210 0.84790 0.87430 -0.03800
N 	N 	0.82240 0.74980 0.32040 -0.26700
C 	C 	0.10970 0.69390 0.25590 0.13900
H 	H 	0.13280 0.65270 0.25920 -0.03200
C 	C 	0.03910 0.69270 0.25760 -0.24300
H 	H 	0.01670 0.65150 0.26410 0.11300
C 	C 	0.89250 0.74840 0.31220 0.11300
C 	C 	0.92610 0.74760 0.37720 -0.08600
H 	H 	0.97280 0.74680 0.38470 0.06000
C 	C 	0.87760 0.74840 0.42450 -0.09100
H 	H 	0.88440 0.74740 0.47130 0.06200
C 	C 	0.81260 0.75110 0.39030 0.11900
C 	C 	0.74570 0.80680 0.53330 -0.27800
H 	H 	0.74110 0.84810 0.51060 0.12500
C 	C 	0.74790 0.80640 0.60310 0.15500
H 	H 	0.74790 0.84790 0.62570 -0.03900
N 	N 	0.82240 0.75020 0.17960 -0.26700
C 	C 	0.10970 0.80610 0.24410 0.13900
H 	H 	0.13280 0.84730 0.24080 -0.03200
C 	C 	0.03910 0.80730 0.24240 -0.24300
H 	H 	0.01670 0.84850 0.23590 0.11300
C 	C 	0.89250 0.75160 0.18780 0.11300
C 	C 	0.92610 0.75240 0.12280 -0.08600
H 	H 	0.97280 0.75320 0.11530 0.06000
C 	C 	0.87760 0.75160 0.07550 -0.09000
H 	H 	0.88440 0.75260 0.02870 0.06200
C 	C 	0.81260 0.74890 0.10970 0.11900
C 	C 	0.74570 0.69320 0.96670 -0.27500
H 	H 	0.74110 0.65190 0.98940 0.12400
C 	C 	0.74790 0.69360 0.89690 0.15300
H 	H 	0.74790 0.65210 0.87430 -0.03900
N 	N 	0.32040 0.67760 0.75020 -0.26700
C 	C 	0.25590 0.39030 0.80610 0.13900
H 	H 	0.25920 0.36720 0.84730 -0.03200
C 	C 	0.25760 0.46090 0.80730 -0.24300
H 	H 	0.26410 0.48330 0.84850 0.11300
C 	C 	0.31220 0.60750 0.75160 0.11300
C 	C 	0.37720 0.57390 0.75240 -0.08600
H 	H 	0.38470 0.52720 0.75320 0.06000
C 	C 	0.42450 0.62240 0.75160 -0.09100
H 	H 	0.47130 0.61560 0.75260 0.06200
C 	C 	0.39030 0.68740 0.74890 0.11900
C 	C 	0.53330 0.75430 0.69320 -0.27800
H 	H 	0.51060 0.75890 0.65190 0.12500
C 	C 	0.60310 0.75210 0.69360 0.15500
H 	H 	0.62570 0.75210 0.65210 -0.03900
N 	N 	0.17960 0.67760 0.74980 -0.26700
C 	C 	0.24410 0.39030 0.69390 0.13900
H 	H 	0.24080 0.36720 0.65270 -0.03200
C 	C 	0.24240 0.46090 0.69270 -0.24300
H 	H 	0.23590 0.48330 0.65150 0.11300
C 	C 	0.18780 0.60750 0.74840 0.11300
C 	C 	0.12280 0.57390 0.74760 -0.08600
H 	H 	0.11530 0.52720 0.74680 0.06000
C 	C 	0.07550 0.62240 0.74840 -0.09000
H 	H 	0.02870 0.61560 0.74740 0.06200
C 	C 	0.10970 0.68740 0.75110 0.11900
C 	C 	0.96670 0.75430 0.80680 -0.27500
H 	H 	0.98940 0.75890 0.84810 0.12400
C 	C 	0.89690 0.75210 0.80640 0.15300
H 	H 	0.87430 0.75210 0.84790 -0.03800
N 	N 	0.32040 0.82240 0.74980 -0.26700
C 	C 	0.25590 0.10970 0.69390 0.13900
H 	H 	0.25920 0.13280 0.65270 -0.03200
C 	C 	0.25760 0.03910 0.69270 -0.24300
H 	H 	0.26410 0.01670 0.65150 0.11300
C 	C 	0.31220 0.89250 0.74840 0.11300
C 	C 	0.37720 0.92610 0.74760 -0.08600
H 	H 	0.38470 0.97280 0.74680 0.06000
C 	C 	0.42450 0.87760 0.74840 -0.09100
H 	H 	0.47130 0.88440 0.74740 0.06200
C 	C 	0.39030 0.81260 0.75110 0.11900
C 	C 	0.53330 0.74570 0.80680 -0.27800
H 	H 	0.51060 0.74110 0.84810 0.12500
C 	C 	0.60310 0.74790 0.80640 0.15500
H 	H 	0.62570 0.74790 0.84790 -0.03900
N 	N 	0.17960 0.82240 0.75020 -0.26700
C 	C 	0.24410 0.10970 0.80610 0.13900
H 	H 	0.24080 0.13280 0.84730 -0.03200
C 	C 	0.24240 0.03910 0.80730 -0.24300
H 	H 	0.23590 0.01670 0.84850 0.11300
C 	C 	0.18780 0.89250 0.75160 0.11300
C 	C 	0.12280 0.92610 0.75240 -0.08600
H 	H 	0.11530 0.97280 0.75320 0.06000
C 	C 	0.07550 0.87760 0.75160 -0.09000
H 	H 	0.02870 0.88440 0.75260 0.06200
C 	C 	0.10970 0.81260 0.74890 0.11900
C 	C 	0.96670 0.74570 0.69320 -0.27500
H 	H 	0.98940 0.74110 0.65190 0.12400
C 	C 	0.89690 0.74790 0.69360 0.15300
H 	H 	0.87430 0.74790 0.65210 -0.03900
Fe	Fe	0.25000 0.75000 0.25000 1.17200
Fe	Fe	0.25000 0.25000 0.75000 1.17200
Fe	Fe	0.75000 0.25000 0.25000 1.17200
Fe	Fe	0.75000 0.25000 0.75000 1.17200
Fe	Fe	0.75000 0.75000 0.25000 1.17200
Fe	Fe	0.25000 0.75000 0.75000 1.17200
Fe	Fe	0.25000 0.25000 0.25000 1.12500
Fe	Fe	0.75000 0.75000 0.75000 1.12500
N 	N 	0.25000 0.75000 0.64580 -0.27400
C 	C 	0.25000 0.75000 0.50250 0.19600
C 	C 	0.25000 0.75000 0.42650 -0.17000
N 	N 	0.25000 0.75000 0.85420 -0.27400
C 	C 	0.25000 0.75000 0.99750 0.19600
C 	C 	0.25000 0.75000 0.07350 -0.17000
N 	N 	0.64580 0.25000 0.75000 -0.27400
C 	C 	0.50250 0.25000 0.75000 0.19600
C 	C 	0.42650 0.25000 0.75000 -0.17000
N 	N 	0.85420 0.25000 0.75000 -0.27400
C 	C 	0.99750 0.25000 0.75000 0.19600
C 	C 	0.07350 0.25000 0.75000 -0.17000
N 	N 	0.75000 0.64580 0.25000 -0.27400
C 	C 	0.75000 0.50250 0.25000 0.19600
C 	C 	0.75000 0.42650 0.25000 -0.17000
N 	N 	0.75000 0.85420 0.25000 -0.27400
C 	C 	0.75000 0.99750 0.25000 0.19600
C 	C 	0.75000 0.07350 0.25000 -0.17000
N 	N 	0.75000 0.25000 0.35420 -0.27400
C 	C 	0.75000 0.25000 0.49750 0.19600
C 	C 	0.75000 0.25000 0.57350 -0.17000
N 	N 	0.75000 0.25000 0.14580 -0.27400
C 	C 	0.75000 0.25000 0.00250 0.19600
C 	C 	0.75000 0.25000 0.92650 -0.17000
N 	N 	0.35420 0.75000 0.25000 -0.27400
C 	C 	0.49750 0.75000 0.25000 0.19600
C 	C 	0.57350 0.75000 0.25000 -0.17000
N 	N 	0.14580 0.75000 0.25000 -0.27400
C 	C 	0.00250 0.75000 0.25000 0.19600
C 	C 	0.92650 0.75000 0.25000 -0.17000
N 	N 	0.25000 0.35420 0.75000 -0.27400
C 	C 	0.25000 0.49750 0.75000 0.19600
C 	C 	0.25000 0.57350 0.75000 -0.17000
N 	N 	0.25000 0.14580 0.75000 -0.27400
C 	C 	0.25000 0.00250 0.75000 0.19600
C 	C 	0.25000 0.92650 0.75000 -0.17000
N 	N 	0.25000 0.36010 0.25000 -0.27500
C 	C 	0.25000 0.57750 0.25000 -0.19300
C 	C 	0.25000 0.50250 0.25000 0.23700
N 	N 	0.25000 0.13990 0.25000 -0.27400
C 	C 	0.25000 0.92250 0.25000 -0.19100
C 	C 	0.25000 0.99750 0.25000 0.23300
N 	N 	0.25000 0.25000 0.36010 -0.27500
C 	C 	0.25000 0.25000 0.57750 -0.19300
C 	C 	0.25000 0.25000 0.50250 0.23700
N 	N 	0.25000 0.25000 0.13990 -0.27400
C 	C 	0.25000 0.25000 0.92250 -0.19100
C 	C 	0.25000 0.25000 0.99750 0.23300
N 	N 	0.36010 0.25000 0.25000 -0.27500
C 	C 	0.57750 0.25000 0.25000 -0.19300
C 	C 	0.50250 0.25000 0.25000 0.23700
N 	N 	0.13990 0.25000 0.25000 -0.27400
C 	C 	0.92250 0.25000 0.25000 -0.19100
C 	C 	0.99750 0.25000 0.25000 0.23300
N 	N 	0.75000 0.63990 0.75000 -0.27500
C 	C 	0.75000 0.42250 0.75000 -0.19300
C 	C 	0.75000 0.49750 0.75000 0.23700
N 	N 	0.75000 0.86010 0.75000 -0.27400
C 	C 	0.75000 0.07750 0.75000 -0.19100
C 	C 	0.75000 0.00250 0.75000 0.23300
N 	N 	0.75000 0.75000 0.63990 -0.27500
C 	C 	0.75000 0.75000 0.42250 -0.19300
C 	C 	0.75000 0.75000 0.49750 0.23700
N 	N 	0.75000 0.75000 0.86010 -0.27400
C 	C 	0.75000 0.75000 0.07750 -0.19100
C 	C 	0.75000 0.75000 0.00250 0.23300
N 	N 	0.63990 0.75000 0.75000 -0.27500
C 	C 	0.42250 0.75000 0.75000 -0.19300
C 	C 	0.49750 0.75000 0.75000 0.23700
N 	N 	0.86010 0.75000 0.75000 -0.27400
C 	C 	0.07750 0.75000 0.75000 -0.19100
C 	C 	0.00250 0.75000 0.75000 0.23300
