data_crystal

_cell_length_a 7.25560
_cell_length_b 10.76390
_cell_length_c 11.57470
_cell_angle_alpha 90.00000
_cell_angle_beta  90.00000
_cell_angle_gamma 90.00000

_symmetry_space_group_name_	'P 1'
_symmetry_space_group_name_H-M	'P 1'

loop_
_symmetry_equiv_pos_as_xyz
  x,y,z

loop_
_atom_site_label
_atom_site_type_symbol
_atom_site_fract_x
_atom_site_fract_y
_atom_site_fract_z
_atom_site_charge
Cd	Cd	0.36060 0.68364 0.20906 1.20900
Cd	Cd	0.86060 0.31636 0.29094 1.21000
Cd	Cd	0.13940 0.18364 0.79094 1.21000
Cd	Cd	0.63940 0.81636 0.70906 1.21000
H 	H 	0.39400 0.47700 0.47900 0.09200
H 	H 	0.12100 0.50300 0.56800 -0.00300
H 	H 	0.24400 0.61700 0.59200 -0.00800
H 	H 	0.97700 0.63500 0.41600 0.11700
H 	H 	0.09700 0.74900 0.44100 0.11000
H 	H 	0.53900 0.60700 0.38900 0.17100
H 	H 	0.45900 0.68900 0.44300 0.12200
H 	H 	0.89400 0.52300 0.02100 0.09000
H 	H 	0.62100 0.49700 0.93200 -0.00200
H 	H 	0.74400 0.38300 0.90800 -0.00700
H 	H 	0.47700 0.36500 0.08400 0.11800
H 	H 	0.59700 0.25100 0.05900 0.11000
H 	H 	0.03900 0.39300 0.11100 0.17500
H 	H 	0.95900 0.31100 0.05700 0.12300
H 	H 	0.10600 0.97700 0.52100 0.09000
H 	H 	0.37900 0.00300 0.43200 -0.00200
H 	H 	0.25600 0.11700 0.40800 -0.00800
H 	H 	0.52300 0.13500 0.58400 0.11900
H 	H 	0.40300 0.24900 0.55900 0.11100
H 	H 	0.96100 0.10700 0.61100 0.17100
H 	H 	0.04100 0.18900 0.55700 0.12300
H 	H 	0.60600 0.02300 0.97900 0.08900
H 	H 	0.87900 0.99700 0.06800 -0.00200
H 	H 	0.75600 0.88300 0.09200 -0.00600
H 	H 	0.02300 0.86500 0.91600 0.11500
H 	H 	0.90300 0.75100 0.94100 0.10900
H 	H 	0.46100 0.89300 0.88900 0.17100
H 	H 	0.54100 0.81100 0.94300 0.12200
C 	C 	0.21440 0.46210 0.35010 0.36000
C 	C 	0.32120 0.53270 0.44320 -0.18600
C 	C 	0.18580 0.58560 0.53190 0.08500
C 	C 	0.04640 0.67480 0.48030 -0.33600
C 	C 	0.91280 0.72780 0.56890 0.37200
C 	C 	0.71440 0.53790 0.14990 0.35900
C 	C 	0.82120 0.46730 0.05680 -0.18400
C 	C 	0.68580 0.41440 0.96810 0.08200
C 	C 	0.54640 0.32520 0.01970 -0.33500
C 	C 	0.41280 0.27220 0.93110 0.37100
C 	C 	0.28560 0.96210 0.64990 0.35900
C 	C 	0.17880 0.03270 0.55680 -0.18400
C 	C 	0.31420 0.08560 0.46810 0.08500
C 	C 	0.45360 0.17480 0.51970 -0.33900
C 	C 	0.58720 0.22780 0.43110 0.37300
C 	C 	0.78560 0.03790 0.85010 0.35800
C 	C 	0.67880 0.96730 0.94320 -0.18100
C 	C 	0.81420 0.91440 0.03190 0.07600
C 	C 	0.95360 0.82520 0.98030 -0.33100
C 	C 	0.08720 0.77220 0.06890 0.37200
N 	N 	0.43950 0.63000 0.39400 -0.38500
N 	N 	0.93950 0.37000 0.10600 -0.38900
N 	N 	0.06050 0.13000 0.60600 -0.38600
N 	N 	0.56050 0.87000 0.89400 -0.38600
O 	O 	0.22220 0.49760 0.24660 -0.44600
O 	O 	0.11920 0.37250 0.38530 -0.43700
O 	O 	0.77560 0.78850 0.53120 -0.42900
O 	O 	0.93500 0.71280 0.67490 -0.40700
O 	O 	0.72220 0.50240 0.25340 -0.44700
O 	O 	0.61920 0.62750 0.11470 -0.43800
O 	O 	0.27560 0.21150 0.96880 -0.43000
O 	O 	0.43500 0.28720 0.82510 -0.40800
O 	O 	0.27780 0.99760 0.75340 -0.44700
O 	O 	0.38080 0.87250 0.61470 -0.43700
O 	O 	0.72440 0.28850 0.46880 -0.42900
O 	O 	0.56500 0.21280 0.32510 -0.40700
O 	O 	0.77780 0.00240 0.74660 -0.44600
O 	O 	0.88080 0.12750 0.88530 -0.43600
O 	O 	0.22440 0.71150 0.03120 -0.42800
O 	O 	0.06500 0.78720 0.17490 -0.40700
