data_crystal

_cell_length_a 7.26600
_cell_length_b 10.77680
_cell_length_c 11.58570
_cell_angle_alpha 90.00000
_cell_angle_beta  90.00000
_cell_angle_gamma 90.00000

_symmetry_space_group_name_	'P 1'
_symmetry_space_group_name_H-M	'P 1'

loop_
_symmetry_equiv_pos_as_xyz
  x,y,z

loop_
_atom_site_label
_atom_site_type_symbol
_atom_site_fract_x
_atom_site_fract_y
_atom_site_fract_z
_atom_site_charge
Cd	Cd	0.11049 0.06645 0.95915 1.20500
Cd	Cd	0.38951 0.93355 0.45915 1.21000
Cd	Cd	0.88951 0.56645 0.54085 1.21000
Cd	Cd	0.61049 0.43355 0.04085 1.21000
H 	H 	0.14930 0.27680 0.23330 0.08000
H 	H 	0.87110 0.23220 0.31840 -0.00900
H 	H 	0.00550 0.12120 0.34100 -0.01000
H 	H 	0.86040 0.00700 0.19480 0.13500
H 	H 	0.72600 0.11790 0.17230 0.14600
H 	H 	0.30630 0.14700 0.14440 0.11500
H 	H 	0.18310 0.05200 0.18880 0.09400
H 	H 	0.35070 0.72320 0.73330 0.08100
H 	H 	0.62890 0.76780 0.81840 -0.00700
H 	H 	0.49450 0.87880 0.84100 -0.00800
H 	H 	0.63960 0.99300 0.69480 0.13300
H 	H 	0.77400 0.88210 0.67230 0.14300
H 	H 	0.19370 0.85300 0.64440 0.11400
H 	H 	0.31690 0.94800 0.68880 0.09400
H 	H 	0.85070 0.77680 0.26670 0.08400
H 	H 	0.12890 0.73220 0.18160 -0.01500
H 	H 	0.99450 0.62120 0.15900 -0.02000
H 	H 	0.13960 0.50700 0.30520 0.13800
H 	H 	0.27400 0.61790 0.32770 0.14900
H 	H 	0.69370 0.64700 0.35560 0.11300
H 	H 	0.81690 0.55200 0.31120 0.09300
H 	H 	0.64930 0.22320 0.76670 0.08100
H 	H 	0.37110 0.26780 0.68160 -0.00900
H 	H 	0.50550 0.37880 0.65900 -0.00900
H 	H 	0.36040 0.49300 0.80520 0.13400
H 	H 	0.22600 0.38210 0.82770 0.14300
H 	H 	0.80630 0.35300 0.85560 0.11500
H 	H 	0.68310 0.44800 0.81120 0.09400
C 	C 	0.96300 0.28800 0.09950 0.35100
C 	C 	0.07000 0.21710 0.19334 -0.17700
C 	C 	0.93590 0.16410 0.28170 0.10100
C 	C 	0.79560 0.07500 0.23157 -0.40200
C 	C 	0.66300 0.02240 0.31890 0.39800
C 	C 	0.53700 0.71200 0.59950 0.35900
C 	C 	0.43000 0.78290 0.69334 -0.18000
C 	C 	0.56410 0.83590 0.78170 0.09800
C 	C 	0.70440 0.92500 0.73157 -0.39600
C 	C 	0.83700 0.97760 0.81890 0.39000
C 	C 	0.03700 0.78800 0.40050 0.36600
C 	C 	0.93000 0.71710 0.30666 -0.19600
C 	C 	0.06410 0.66410 0.21830 0.12500
C 	C 	0.20440 0.57500 0.26843 -0.41300
C 	C 	0.33700 0.52240 0.18110 0.40000
C 	C 	0.46300 0.21200 0.90050 0.35800
C 	C 	0.57000 0.28290 0.80666 -0.18100
C 	C 	0.43590 0.33590 0.71830 0.10000
C 	C 	0.29560 0.42500 0.76843 -0.40000
C 	C 	0.16300 0.47760 0.68110 0.39500
N 	N 	0.18910 0.11999 0.14387 -0.31100
N 	N 	0.31090 0.88001 0.64387 -0.31100
N 	N 	0.81090 0.61999 0.35613 -0.30900
N 	N 	0.68910 0.38001 0.85613 -0.31100
O 	O 	0.97130 0.25266 0.99656 -0.43700
O 	O 	0.86850 0.37727 0.13511 -0.43500
O 	O 	0.52610 0.96154 0.28100 -0.43100
O 	O 	0.68420 0.03756 0.42501 -0.41300
O 	O 	0.52870 0.74734 0.49656 -0.44500
O 	O 	0.63150 0.62273 0.63511 -0.43600
O 	O 	0.97390 0.03846 0.78100 -0.42300
O 	O 	0.81580 0.96244 0.92501 -0.41000
O 	O 	0.02870 0.75266 0.50344 -0.44700
O 	O 	0.13150 0.87727 0.36489 -0.43700
O 	O 	0.47390 0.46154 0.21900 -0.43000
O 	O 	0.31580 0.53756 0.07499 -0.41300
O 	O 	0.47130 0.24734 0.00344 -0.44300
O 	O 	0.36850 0.12273 0.86489 -0.43800
O 	O 	0.02610 0.53846 0.71900 -0.43000
O 	O 	0.18420 0.46244 0.57499 -0.41300
