data_crystal

_cell_length_a 7.24700
_cell_length_b 10.71800
_cell_length_c 11.54500
_cell_angle_alpha 90.00000
_cell_angle_beta  90.00000
_cell_angle_gamma 90.00000

_symmetry_space_group_name_	'P 1'
_symmetry_space_group_name_H-M	'P 1'

loop_
_symmetry_equiv_pos_as_xyz
  x,y,z

loop_
_atom_site_label
_atom_site_type_symbol
_atom_site_fract_x
_atom_site_fract_y
_atom_site_fract_z
_atom_site_charge
Cd	Cd	0.61120 0.43390 0.46010 1.21800
C 	C 	0.97000 0.28600 0.39900 0.30600
C 	C 	0.07100 0.21800 0.30500 -0.11900
C 	C 	0.93400 0.16800 0.21100 0.01700
C 	C 	0.80000 0.06500 0.26800 -0.19800
C 	C 	0.66200 0.02400 0.17800 0.33000
N 	N 	0.18800 0.12700 0.35700 -0.19700
O 	O 	0.96900 0.25100 0.50300 -0.41700
O 	O 	0.86600 0.38200 0.36300 -0.39100
O 	O 	0.52100 0.95800 0.21400 -0.39000
O 	O 	0.68100 0.03800 0.07400 -0.38300
Cd	Cd	0.88880 0.56610 0.96010 1.24100
C 	C 	0.53000 0.71400 0.89900 0.29900
C 	C 	0.42900 0.78200 0.80500 -0.10500
C 	C 	0.56600 0.83200 0.71100 0.00200
C 	C 	0.70000 0.93500 0.76800 -0.18500
C 	C 	0.83800 0.97600 0.67800 0.33500
N 	N 	0.31200 0.87300 0.85700 -0.14400
O 	O 	0.53100 0.74900 0.00300 -0.40400
O 	O 	0.63400 0.61800 0.86300 -0.38800
O 	O 	0.97900 0.04200 0.71400 -0.39900
O 	O 	0.81900 0.96200 0.57400 -0.39500
Cd	Cd	0.38880 0.93390 0.03990 1.24300
C 	C 	0.03000 0.78600 0.10100 0.28600
C 	C 	0.92900 0.71800 0.19500 -0.09400
C 	C 	0.06600 0.66800 0.28900 -0.00800
C 	C 	0.20000 0.56500 0.23200 -0.19100
C 	C 	0.33800 0.52400 0.32200 0.33100
N 	N 	0.81200 0.62700 0.14300 -0.14600
O 	O 	0.03100 0.75100 0.99700 -0.39700
O 	O 	0.13400 0.88200 0.13700 -0.38700
O 	O 	0.47900 0.45800 0.28600 -0.39300
O 	O 	0.31900 0.53800 0.42600 -0.39600
Cd	Cd	0.11120 0.06610 0.53990 1.21400
C 	C 	0.47000 0.21400 0.60100 0.29000
C 	C 	0.57100 0.28200 0.69500 -0.09900
C 	C 	0.43400 0.33200 0.78900 -0.00500
C 	C 	0.30000 0.43500 0.73200 -0.19200
C 	C 	0.16200 0.47600 0.82200 0.33200
N 	N 	0.68800 0.37300 0.64300 -0.20500
O 	O 	0.46900 0.24900 0.49700 -0.40500
O 	O 	0.36600 0.11800 0.63700 -0.38900
O 	O 	0.02100 0.54200 0.78600 -0.39300
O 	O 	0.18100 0.46200 0.92600 -0.38600
H 	H 	0.16445 0.28888 0.26050 0.06300
H 	H 	0.84773 0.24861 0.17611 0.02800
H 	H 	0.72441 0.10737 0.34515 0.07000
H 	H 	0.33555 0.71112 0.76050 0.05400
H 	H 	0.48468 0.87612 0.63706 0.02400
H 	H 	0.65227 0.75139 0.67611 0.02200
H 	H 	0.77559 0.89263 0.84515 0.07100
H 	H 	0.83555 0.78888 0.23950 0.05200
H 	H 	0.15227 0.74861 0.32389 0.02200
H 	H 	0.27559 0.60737 0.15485 0.07100
H 	H 	0.11460 0.48170 0.20205 0.07100
H 	H 	0.66445 0.21112 0.73950 0.05600
H 	H 	0.51532 0.37612 0.86294 0.02700
H 	H 	0.34773 0.25139 0.82389 0.02800
H 	H 	0.22441 0.39263 0.65485 0.06800
H 	H 	0.38540 0.51830 0.70205 0.06300
H 	H 	0.61460 0.01830 0.79795 0.06700
H 	H 	0.01532 0.12388 0.13706 0.01400
H 	H 	0.98468 0.62388 0.36294 0.02600
H 	H 	0.88540 0.98170 0.29795 0.06300
H 	H 	0.19398 0.03103 0.32106 0.02700
H 	H 	0.27316 0.15209 0.43345 -0.02300
H 	H 	0.16088 0.87004 0.84160 0.06700
H 	H 	0.37199 0.94685 0.91291 -0.18100
H 	H 	0.87199 0.55315 0.08709 -0.18100
H 	H 	0.66088 0.62996 0.15840 0.06500
H 	H 	0.82151 0.34438 0.60409 0.05000
H 	H 	0.64562 0.47251 0.64141 -0.02700
