data_crystal

_cell_length_a 7.28600
_cell_length_b 10.79000
_cell_length_c 11.61000
_cell_angle_alpha 90.00000
_cell_angle_beta  90.00000
_cell_angle_gamma 90.00000

_symmetry_space_group_name_	'P 1'
_symmetry_space_group_name_H-M	'P 1'

loop_
_symmetry_equiv_pos_as_xyz
  x,y,z

loop_
_atom_site_label
_atom_site_type_symbol
_atom_site_fract_x
_atom_site_fract_y
_atom_site_fract_z
_atom_site_charge
Cd	Cd	0.63800 0.81730 0.70930 1.21000
Cd	Cd	0.13800 0.18270 0.79070 1.20900
Cd	Cd	0.86200 0.31730 0.29070 1.21000
Cd	Cd	0.36200 0.68270 0.20930 1.21000
H 	H 	0.04600 0.20000 0.54900 0.07400
H 	H 	0.94100 0.09500 0.62500 0.08900
H 	H 	0.09700 0.96200 0.51100 0.05900
H 	H 	0.39000 0.00500 0.43200 0.01700
H 	H 	0.23500 0.13800 0.40300 0.01500
H 	H 	0.38800 0.24700 0.55900 0.07400
H 	H 	0.53800 0.12500 0.58700 0.07600
H 	H 	0.54600 0.80000 0.95100 0.07300
H 	H 	0.44100 0.90500 0.87500 0.08700
H 	H 	0.59700 0.03800 0.98900 0.05700
H 	H 	0.89000 0.99500 0.06800 0.01600
H 	H 	0.73500 0.86200 0.09700 0.01500
H 	H 	0.88800 0.75300 0.94100 0.07300
H 	H 	0.03800 0.87500 0.91300 0.07400
H 	H 	0.45400 0.70000 0.45100 0.07300
H 	H 	0.55900 0.59500 0.37500 0.08700
H 	H 	0.40300 0.46200 0.48900 0.05800
H 	H 	0.11000 0.50500 0.56800 0.01700
H 	H 	0.26500 0.63800 0.59700 0.01500
H 	H 	0.11200 0.74700 0.44100 0.07400
H 	H 	0.96200 0.62500 0.41300 0.07500
H 	H 	0.95400 0.30000 0.04900 0.07300
H 	H 	0.05900 0.40500 0.12500 0.08900
H 	H 	0.90300 0.53800 0.01100 0.05700
H 	H 	0.61000 0.49500 0.93200 0.01700
H 	H 	0.76500 0.36200 0.90300 0.01500
H 	H 	0.61200 0.25300 0.05900 0.07400
H 	H 	0.46200 0.37500 0.08700 0.07600
C 	C 	0.17860 0.03230 0.55680 -0.13400
C 	C 	0.28740 0.96330 0.65020 0.35500
C 	C 	0.31330 0.08650 0.46820 0.01600
C 	C 	0.45800 0.17480 0.51910 -0.23300
C 	C 	0.58700 0.22870 0.43140 0.34000
C 	C 	0.67860 0.96770 0.94320 -0.13200
C 	C 	0.78740 0.03670 0.84980 0.35500
C 	C 	0.81330 0.91350 0.03180 0.01200
C 	C 	0.95800 0.82520 0.98090 -0.22900
C 	C 	0.08700 0.77130 0.06860 0.34100
C 	C 	0.32140 0.53230 0.44320 -0.13300
C 	C 	0.21260 0.46330 0.34980 0.35500
C 	C 	0.18670 0.58650 0.53180 0.01600
C 	C 	0.04200 0.67480 0.48090 -0.23100
C 	C 	0.91300 0.72870 0.56860 0.33900
C 	C 	0.82140 0.46770 0.05680 -0.13300
C 	C 	0.71260 0.53670 0.15020 0.35500
C 	C 	0.68670 0.41350 0.96820 0.01600
C 	C 	0.54200 0.32520 0.01910 -0.23100
C 	C 	0.41300 0.27130 0.93140 0.33900
N 	N 	0.05900 0.13050 0.60670 -0.27800
N 	N 	0.55900 0.86950 0.89330 -0.27700
N 	N 	0.44100 0.63050 0.39330 -0.27700
N 	N 	0.94100 0.36950 0.10670 -0.27900
O 	O 	0.27620 0.99600 0.75290 -0.44400
O 	O 	0.38240 0.87530 0.61450 -0.43600
O 	O 	0.72540 0.28700 0.46940 -0.40700
O 	O 	0.56520 0.21210 0.32500 -0.39100
O 	O 	0.77620 0.00400 0.74710 -0.44400
O 	O 	0.88240 0.12470 0.88550 -0.43400
O 	O 	0.22540 0.71300 0.03060 -0.40700
O 	O 	0.06520 0.78790 0.17500 -0.39000
O 	O 	0.22380 0.49600 0.24710 -0.44400
O 	O 	0.11760 0.37530 0.38550 -0.43500
O 	O 	0.77460 0.78700 0.53060 -0.40700
O 	O 	0.93480 0.71210 0.67500 -0.39100
O 	O 	0.72380 0.50400 0.25290 -0.44400
O 	O 	0.61760 0.62470 0.11450 -0.43600
O 	O 	0.27460 0.21300 0.96940 -0.40900
O 	O 	0.43480 0.28790 0.82500 -0.39100
