data_crystal

_cell_length_a 12.67700
_cell_length_b 18.93300
_cell_length_c 26.98300
_cell_angle_alpha 90.00000
_cell_angle_beta  90.13800
_cell_angle_gamma 90.00000

_symmetry_space_group_name_	'P 1'
_symmetry_space_group_name_H-M	'P 1'

loop_
_symmetry_equiv_pos_as_xyz
  x,y,z

loop_
_atom_site_label
_atom_site_type_symbol
_atom_site_fract_x
_atom_site_fract_y
_atom_site_fract_z
_atom_site_charge
C 	C 	0.30060 0.96740 0.10330 0.18000
H 	H 	0.23680 0.94470 0.10910 -0.02400
C 	C 	0.37950 0.95660 0.13620 -0.24300
H 	H 	0.36950 0.92770 0.16360 0.11500
C 	C 	0.47130 0.98800 0.12850 0.14700
H 	H 	0.52700 0.98100 0.15040 -0.03400
C 	C 	0.48390 0.03160 0.08740 -0.18900
H 	H 	0.54740 0.05460 0.08130 0.10900
C 	C 	0.39980 0.03930 0.05660 0.07900
C 	C 	0.40200 0.08130 0.01030 0.03500
C 	C 	0.48760 0.11820 0.99250 -0.12300
H 	H 	0.55120 0.11690 0.00970 0.08200
C 	C 	0.47990 0.15550 0.95110 0.05300
H 	H 	0.53820 0.18090 0.94030 0.02000
C 	C 	0.38530 0.15770 0.92280 -0.14900
H 	H 	0.37880 0.18210 0.89310 0.06900
C 	C 	0.30210 0.11890 0.94460 0.09300
H 	H 	0.23630 0.11970 0.92930 -0.03000
C 	C 	0.99860 0.97400 0.02270 0.22000
C 	C 	0.70900 0.47540 0.88380 0.12100
H 	H 	0.77530 0.45700 0.87680 -0.00500
C 	C 	0.63110 0.46860 0.84910 -0.19700
H 	H 	0.64340 0.44420 0.81980 0.10100
C 	C 	0.53680 0.49730 0.85810 0.11900
H 	H 	0.48220 0.49280 0.83530 -0.01700
C 	C 	0.52230 0.53220 0.89970 -0.17000
H 	H 	0.45700 0.55310 0.90530 0.10100
C 	C 	0.59880 0.53900 0.93490 0.06100
C 	C 	0.59310 0.57370 0.98340 0.04200
C 	C 	0.50540 0.60750 0.00210 -0.14600
H 	H 	0.44300 0.60850 0.98390 0.06400
C 	C 	0.51010 0.63810 0.04550 0.08000
H 	H 	0.45100 0.66200 0.05710 0.00000
C 	C 	0.59770 0.63640 0.07410 -0.16400
H 	H 	0.59980 0.65920 0.10460 0.07900
C 	C 	0.68270 0.60020 0.05680 0.09200
H 	H 	0.74250 0.59640 0.07660 -0.01900
C 	C 	0.00460 0.47910 0.97620 0.22100
N 	N 	0.30680 0.00560 0.06550 -0.26300
N 	N 	0.31290 0.08330 0.98370 -0.23200
N 	N 	0.69470 0.50640 0.92570 -0.25000
N 	N 	0.68250 0.56940 0.01130 -0.23400
O 	O 	0.74600 0.14160 0.98220 -0.35900
O 	O 	0.86900 0.08340 0.30810 -0.34200
O 	O 	0.86940 0.37410 0.32580 -0.34600
O 	O 	0.82190 0.52110 0.17790 -0.34900
O 	O 	0.95830 0.06670 0.11710 -0.39100
O 	O 	0.76930 0.07340 0.07310 -0.41200
O 	O 	0.93010 0.14560 0.03590 -0.41200
O 	O 	0.06300 0.17430 0.16080 -0.45200
O 	O 	0.86960 0.08910 0.20360 -0.41700
O 	O 	0.68340 0.09510 0.16230 -0.44100
O 	O 	0.65110 0.19060 0.06880 -0.42200
O 	O 	0.80890 0.26290 0.03170 -0.39600
O 	O 	0.03000 0.25470 0.08150 -0.42800
O 	O 	0.01360 0.16230 0.25830 -0.45600
O 	O 	0.71490 0.15460 0.25000 -0.44200
O 	O 	0.52130 0.18020 0.14690 -0.43700
O 	O 	0.65610 0.32880 0.07700 -0.43700
O 	O 	0.93710 0.37370 0.04960 -0.40400
O 	O 	0.06740 0.31520 0.16840 -0.45700
O 	O 	0.01410 0.30480 0.26700 -0.44500
O 	O 	0.85360 0.22820 0.30350 -0.42500
O 	O 	0.55180 0.24140 0.23500 -0.43700
O 	O 	0.52230 0.32150 0.15510 -0.43700
O 	O 	0.77700 0.43970 0.09550 -0.40400
O 	O 	0.96860 0.43350 0.13800 -0.39600
O 	O 	0.71610 0.32160 0.25970 -0.43900
O 	O 	0.68880 0.40110 0.18140 -0.42000
O 	O 	0.87600 0.39160 0.22320 -0.39900
O 	O 	0.85000 0.18220 0.11970 -0.47800
Cu	Cu	0.19496 0.03021 0.01743 0.87800
Cu	Cu	0.80368 0.52331 0.97804 0.87200
Cu	Cu	0.06161 0.23861 0.21581 0.90100
Rb	Rb	0.95030 0.17787 0.92317 0.69000
Rb	Rb	0.03420 0.12297 0.37466 0.68700
O 	O 	0.85200 0.32340 0.12930 -0.48100
O 	O 	0.08420 0.96960 0.04630 -0.39300
O 	O 	0.08460 0.05620 0.96780 -0.40600
O 	O 	0.92580 0.47140 0.94980 -0.40400
O 	O 	0.90330 0.54650 0.03080 -0.39500
O 	O 	0.83320 0.30890 0.91260 -0.23300
O 	O 	0.06300 0.28400 0.96840 -0.25700
Si	Si	0.81860 0.24770 0.15612 0.55800
W 	W 	0.02165 0.15657 0.09572 0.88700
Cu	Cu	0.81694 0.06253 0.13988 0.93900
Cu	Cu	0.78471 0.16397 0.04053 0.98500
Cu	Cu	0.86713 0.14689 0.26206 0.95100
Cu	Cu	0.60092 0.15544 0.20531 0.90800
Cu	Cu	0.56588 0.25618 0.10407 0.90900
Cu	Cu	0.79062 0.35894 0.05294 0.93500
W 	W 	0.02634 0.34892 0.10721 0.91300
Cu	Cu	0.86897 0.32168 0.27355 0.95200
Cu	Cu	0.60562 0.33356 0.21477 0.91000
Cu	Cu	0.82841 0.43421 0.16197 0.98700
C 	C 	0.69940 0.46740 0.39670 0.16600
H 	H 	0.76320 0.44470 0.39090 -0.02100
C 	C 	0.62050 0.45660 0.36380 -0.23000
H 	H 	0.63050 0.42770 0.33640 0.10900
C 	C 	0.52870 0.48800 0.37150 0.13000
H 	H 	0.47300 0.48100 0.34960 -0.03000
C 	C 	0.51610 0.53160 0.41260 -0.17500
H 	H 	0.45260 0.55460 0.41870 0.10400
C 	C 	0.60020 0.53930 0.44340 0.07100
C 	C 	0.59800 0.58130 0.48970 0.04700
C 	C 	0.51240 0.61820 0.50750 -0.13900
H 	H 	0.44880 0.61690 0.49030 0.08900
C 	C 	0.52010 0.65550 0.54890 0.06300
H 	H 	0.46180 0.68090 0.55970 0.01600
C 	C 	0.61470 0.65770 0.57720 -0.15600
H 	H 	0.62120 0.68210 0.60690 0.07100
C 	C 	0.69790 0.61890 0.55540 0.09700
H 	H 	0.76370 0.61970 0.57070 -0.03200
C 	C 	0.00140 0.47400 0.47730 0.22300
C 	C 	0.29100 0.97540 0.61620 0.12300
H 	H 	0.22470 0.95700 0.62320 -0.00500
C 	C 	0.36890 0.96860 0.65090 -0.19800
H 	H 	0.35660 0.94420 0.68020 0.10100
C 	C 	0.46320 0.99730 0.64190 0.11900
H 	H 	0.51780 0.99280 0.66470 -0.01700
C 	C 	0.47770 0.03220 0.60030 -0.17000
H 	H 	0.54300 0.05310 0.59470 0.10100
C 	C 	0.40120 0.03900 0.56510 0.06000
C 	C 	0.40690 0.07370 0.51660 0.04500
C 	C 	0.49460 0.10750 0.49790 -0.15100
H 	H 	0.55700 0.10850 0.51610 0.06600
C 	C 	0.48990 0.13810 0.45450 0.08300
H 	H 	0.54900 0.16200 0.44290 -0.00100
C 	C 	0.40230 0.13640 0.42590 -0.16700
H 	H 	0.40020 0.15920 0.39540 0.08000
C 	C 	0.31730 0.10020 0.44320 0.09300
H 	H 	0.25750 0.09640 0.42340 -0.02000
C 	C 	0.99540 0.97910 0.52380 0.21300
N 	N 	0.69320 0.50560 0.43450 -0.25600
N 	N 	0.68710 0.58330 0.51630 -0.23600
N 	N 	0.30530 0.00640 0.57430 -0.25100
N 	N 	0.31750 0.06940 0.48870 -0.23500
O 	O 	0.25400 0.64160 0.51780 -0.36000
O 	O 	0.13100 0.58340 0.19190 -0.34400
O 	O 	0.13060 0.87410 0.17420 -0.34600
O 	O 	0.17810 0.02110 0.32210 -0.35300
O 	O 	0.04170 0.56670 0.38290 -0.39400
O 	O 	0.23070 0.57340 0.42690 -0.41200
O 	O 	0.06990 0.64560 0.46410 -0.41400
O 	O 	0.93700 0.67430 0.33920 -0.45100
O 	O 	0.13040 0.58910 0.29640 -0.41900
O 	O 	0.31660 0.59510 0.33770 -0.44100
O 	O 	0.34890 0.69060 0.43120 -0.42200
O 	O 	0.19110 0.76290 0.46830 -0.39600
O 	O 	0.97000 0.75470 0.41850 -0.42800
O 	O 	0.98640 0.66230 0.24170 -0.45300
O 	O 	0.28510 0.65460 0.25000 -0.44200
O 	O 	0.47870 0.68020 0.35310 -0.43700
O 	O 	0.34390 0.82880 0.42300 -0.43700
O 	O 	0.06290 0.87370 0.45040 -0.40300
O 	O 	0.93260 0.81520 0.33160 -0.45700
O 	O 	0.98590 0.80480 0.23300 -0.44500
O 	O 	0.14640 0.72820 0.19650 -0.42600
O 	O 	0.44820 0.74140 0.26500 -0.43700
O 	O 	0.47770 0.82150 0.34490 -0.43700
O 	O 	0.22300 0.93970 0.40450 -0.40300
O 	O 	0.03140 0.93350 0.36200 -0.39500
O 	O 	0.28390 0.82160 0.24030 -0.43900
O 	O 	0.31120 0.90110 0.31860 -0.42000
O 	O 	0.12400 0.89160 0.27680 -0.39800
O 	O 	0.15000 0.68220 0.38030 -0.47900
Cu	Cu	0.80504 0.53021 0.48257 0.88000
Cu	Cu	0.19632 0.02331 0.52196 0.87100
Cu	Cu	0.93839 0.73861 0.28419 0.90100
Rb	Rb	0.04970 0.67787 0.57683 0.69000
Rb	Rb	0.96580 0.62297 0.12534 0.68800
O 	O 	0.14800 0.82340 0.37070 -0.48200
O 	O 	0.91580 0.46960 0.45370 -0.39600
O 	O 	0.91540 0.55620 0.53220 -0.40700
O 	O 	0.07420 0.97140 0.55020 -0.39700
O 	O 	0.09670 0.04650 0.46920 -0.39500
O 	O 	0.16680 0.80890 0.58740 -0.23200
O 	O 	0.93700 0.78400 0.53160 -0.25900
Si	Si	0.18140 0.74770 0.34388 0.55700
W 	W 	0.97835 0.65657 0.40428 0.89500
Cu	Cu	0.18306 0.56253 0.36012 0.93900
Cu	Cu	0.21529 0.66397 0.45947 0.98500
Cu	Cu	0.13287 0.64689 0.23794 0.95000
Cu	Cu	0.39908 0.65544 0.29469 0.90900
Cu	Cu	0.43412 0.75618 0.39593 0.90900
Cu	Cu	0.20938 0.85894 0.44706 0.93500
W 	W 	0.97366 0.84892 0.39279 0.91300
Cu	Cu	0.13103 0.82168 0.22645 0.95200
Cu	Cu	0.39438 0.83356 0.28523 0.91000
Cu	Cu	0.17159 0.93421 0.33803 0.98800
C 	C 	0.69940 0.03260 0.89670 0.17900
H 	H 	0.76320 0.05530 0.89090 -0.02500
C 	C 	0.62050 0.04340 0.86380 -0.24400
H 	H 	0.63050 0.07230 0.83640 0.11400
C 	C 	0.52870 0.01200 0.87150 0.14600
H 	H 	0.47300 0.01900 0.84960 -0.03500
C 	C 	0.51610 0.96840 0.91260 -0.18900
H 	H 	0.45260 0.94540 0.91870 0.10900
C 	C 	0.60020 0.96070 0.94340 0.07900
C 	C 	0.59800 0.91870 0.98970 0.03500
C 	C 	0.51240 0.88180 0.00750 -0.12300
H 	H 	0.44880 0.88310 0.99030 0.08200
C 	C 	0.52010 0.84450 0.04890 0.05300
H 	H 	0.46180 0.81910 0.05970 0.02000
C 	C 	0.61470 0.84230 0.07720 -0.14900
H 	H 	0.62120 0.81790 0.10690 0.06900
C 	C 	0.69790 0.88110 0.05540 0.09300
H 	H 	0.76370 0.88030 0.07070 -0.03000
C 	C 	0.00140 0.02600 0.97730 0.22000
C 	C 	0.29100 0.52460 0.11620 0.12100
H 	H 	0.22470 0.54300 0.12320 -0.00500
C 	C 	0.36890 0.53140 0.15090 -0.19700
H 	H 	0.35660 0.55580 0.18020 0.10100
C 	C 	0.46320 0.50270 0.14190 0.11900
H 	H 	0.51780 0.50720 0.16470 -0.01700
C 	C 	0.47770 0.46780 0.10030 -0.17000
H 	H 	0.54300 0.44690 0.09470 0.10100
C 	C 	0.40120 0.46100 0.06510 0.06100
C 	C 	0.40690 0.42630 0.01660 0.04200
C 	C 	0.49460 0.39250 0.99790 -0.14600
H 	H 	0.55700 0.39150 0.01610 0.06400
C 	C 	0.48990 0.36190 0.95450 0.08000
H 	H 	0.54900 0.33800 0.94290 0.00000
C 	C 	0.40230 0.36360 0.92590 -0.16400
H 	H 	0.40020 0.34080 0.89540 0.07900
C 	C 	0.31730 0.39980 0.94320 0.09200
H 	H 	0.25750 0.40360 0.92340 -0.01900
C 	C 	0.99540 0.52090 0.02380 0.22100
N 	N 	0.69320 0.99440 0.93450 -0.26300
N 	N 	0.68710 0.91670 0.01630 -0.23200
N 	N 	0.30530 0.49360 0.07430 -0.25000
N 	N 	0.31750 0.43060 0.98870 -0.23400
O 	O 	0.25400 0.85840 0.01780 -0.35900
O 	O 	0.13100 0.91660 0.69190 -0.34200
O 	O 	0.13060 0.62590 0.67420 -0.34600
O 	O 	0.17810 0.47890 0.82210 -0.34900
O 	O 	0.04170 0.93330 0.88290 -0.39100
O 	O 	0.23070 0.92660 0.92690 -0.41200
O 	O 	0.06990 0.85440 0.96410 -0.41200
O 	O 	0.93700 0.82570 0.83920 -0.45200
O 	O 	0.13040 0.91090 0.79640 -0.41700
O 	O 	0.31660 0.90490 0.83770 -0.44100
O 	O 	0.34890 0.80940 0.93120 -0.42200
O 	O 	0.19110 0.73710 0.96830 -0.39600
O 	O 	0.97000 0.74530 0.91850 -0.42800
O 	O 	0.98640 0.83770 0.74170 -0.45600
O 	O 	0.28510 0.84540 0.75000 -0.44200
O 	O 	0.47870 0.81980 0.85310 -0.43700
O 	O 	0.34390 0.67120 0.92300 -0.43700
O 	O 	0.06290 0.62630 0.95040 -0.40400
O 	O 	0.93260 0.68480 0.83160 -0.45700
O 	O 	0.98590 0.69520 0.73300 -0.44500
O 	O 	0.14640 0.77180 0.69650 -0.42500
O 	O 	0.44820 0.75860 0.76500 -0.43700
O 	O 	0.47770 0.67850 0.84490 -0.43700
O 	O 	0.22300 0.56030 0.90450 -0.40400
O 	O 	0.03140 0.56650 0.86200 -0.39600
O 	O 	0.28390 0.67840 0.74030 -0.43900
O 	O 	0.31120 0.59890 0.81860 -0.42000
O 	O 	0.12400 0.60840 0.77680 -0.39900
O 	O 	0.15000 0.81780 0.88030 -0.47800
Cu	Cu	0.80504 0.96979 0.98257 0.87800
Cu	Cu	0.19632 0.47669 0.02196 0.87200
Cu	Cu	0.93839 0.76139 0.78419 0.90100
Rb	Rb	0.04970 0.82213 0.07683 0.69000
Rb	Rb	0.96580 0.87703 0.62534 0.68700
O 	O 	0.14800 0.67660 0.87070 -0.48100
O 	O 	0.91580 0.03040 0.95370 -0.39300
O 	O 	0.91540 0.94380 0.03220 -0.40600
O 	O 	0.07420 0.52860 0.05020 -0.40400
O 	O 	0.09670 0.45350 0.96920 -0.39500
O 	O 	0.16680 0.69110 0.08740 -0.23300
O 	O 	0.93700 0.71600 0.03160 -0.25700
Si	Si	0.18140 0.75230 0.84388 0.55800
W 	W 	0.97835 0.84343 0.90428 0.88700
Cu	Cu	0.18306 0.93747 0.86012 0.93900
Cu	Cu	0.21529 0.83603 0.95947 0.98500
Cu	Cu	0.13287 0.85311 0.73794 0.95100
Cu	Cu	0.39908 0.84456 0.79469 0.90800
Cu	Cu	0.43412 0.74382 0.89593 0.90900
Cu	Cu	0.20938 0.64106 0.94706 0.93500
W 	W 	0.97366 0.65108 0.89279 0.91300
Cu	Cu	0.13103 0.67832 0.72645 0.95200
Cu	Cu	0.39438 0.66644 0.78523 0.91000
Cu	Cu	0.17159 0.56579 0.83803 0.98700
C 	C 	0.30060 0.53260 0.60330 0.16600
H 	H 	0.23680 0.55530 0.60910 -0.02100
C 	C 	0.37950 0.54340 0.63620 -0.23000
H 	H 	0.36950 0.57230 0.66360 0.10900
C 	C 	0.47130 0.51200 0.62850 0.13000
H 	H 	0.52700 0.51900 0.65040 -0.03000
C 	C 	0.48390 0.46840 0.58740 -0.17500
H 	H 	0.54740 0.44540 0.58130 0.10400
C 	C 	0.39980 0.46070 0.55660 0.07100
C 	C 	0.40200 0.41870 0.51030 0.04700
C 	C 	0.48760 0.38180 0.49250 -0.13900
H 	H 	0.55120 0.38310 0.50970 0.08900
C 	C 	0.47990 0.34450 0.45110 0.06300
H 	H 	0.53820 0.31910 0.44030 0.01600
C 	C 	0.38530 0.34230 0.42280 -0.15600
H 	H 	0.37880 0.31790 0.39310 0.07100
C 	C 	0.30210 0.38110 0.44460 0.09700
H 	H 	0.23630 0.38030 0.42930 -0.03200
C 	C 	0.99860 0.52600 0.52270 0.22300
C 	C 	0.70900 0.02460 0.38380 0.12300
H 	H 	0.77530 0.04300 0.37680 -0.00500
C 	C 	0.63110 0.03140 0.34910 -0.19800
H 	H 	0.64340 0.05580 0.31980 0.10100
C 	C 	0.53680 0.00270 0.35810 0.11900
H 	H 	0.48220 0.00720 0.33530 -0.01700
C 	C 	0.52230 0.96780 0.39970 -0.17000
H 	H 	0.45700 0.94690 0.40530 0.10100
C 	C 	0.59880 0.96100 0.43490 0.06000
C 	C 	0.59310 0.92630 0.48340 0.04500
C 	C 	0.50540 0.89250 0.50210 -0.15100
H 	H 	0.44300 0.89150 0.48390 0.06600
C 	C 	0.51010 0.86190 0.54550 0.08300
H 	H 	0.45100 0.83800 0.55710 -0.00100
C 	C 	0.59770 0.86360 0.57410 -0.16700
H 	H 	0.59980 0.84080 0.60460 0.08000
C 	C 	0.68270 0.89980 0.55680 0.09300
H 	H 	0.74250 0.90360 0.57660 -0.02000
C 	C 	0.00460 0.02090 0.47620 0.21300
N 	N 	0.30680 0.49440 0.56550 -0.25600
N 	N 	0.31290 0.41670 0.48370 -0.23600
N 	N 	0.69470 0.99360 0.42570 -0.25100
N 	N 	0.68250 0.93060 0.51130 -0.23500
O 	O 	0.74600 0.35840 0.48220 -0.36000
O 	O 	0.86900 0.41660 0.80810 -0.34400
O 	O 	0.86940 0.12590 0.82580 -0.34600
O 	O 	0.82190 0.97890 0.67790 -0.35300
O 	O 	0.95830 0.43330 0.61710 -0.39400
O 	O 	0.76930 0.42660 0.57310 -0.41200
O 	O 	0.93010 0.35440 0.53590 -0.41400
O 	O 	0.06300 0.32570 0.66080 -0.45100
O 	O 	0.86960 0.41090 0.70360 -0.41900
O 	O 	0.68340 0.40490 0.66230 -0.44100
O 	O 	0.65110 0.30940 0.56880 -0.42200
O 	O 	0.80890 0.23710 0.53170 -0.39600
O 	O 	0.03000 0.24530 0.58150 -0.42800
O 	O 	0.01360 0.33770 0.75830 -0.45300
O 	O 	0.71490 0.34540 0.75000 -0.44200
O 	O 	0.52130 0.31980 0.64690 -0.43700
O 	O 	0.65610 0.17120 0.57700 -0.43700
O 	O 	0.93710 0.12630 0.54960 -0.40300
O 	O 	0.06740 0.18480 0.66840 -0.45700
O 	O 	0.01410 0.19520 0.76700 -0.44500
O 	O 	0.85360 0.27180 0.80350 -0.42600
O 	O 	0.55180 0.25860 0.73500 -0.43700
O 	O 	0.52230 0.17850 0.65510 -0.43700
O 	O 	0.77700 0.06030 0.59550 -0.40300
O 	O 	0.96860 0.06650 0.63800 -0.39500
O 	O 	0.71610 0.17840 0.75970 -0.43900
O 	O 	0.68880 0.09890 0.68140 -0.42000
O 	O 	0.87600 0.10840 0.72320 -0.39800
O 	O 	0.85000 0.31780 0.61970 -0.47900
Cu	Cu	0.19496 0.46979 0.51743 0.88000
Cu	Cu	0.80368 0.97669 0.47804 0.87100
Cu	Cu	0.06161 0.26139 0.71581 0.90100
Rb	Rb	0.95030 0.32213 0.42317 0.69000
Rb	Rb	0.03420 0.37703 0.87466 0.68800
O 	O 	0.85200 0.17660 0.62930 -0.48200
O 	O 	0.08420 0.53040 0.54630 -0.39600
O 	O 	0.08460 0.44380 0.46780 -0.40700
O 	O 	0.92580 0.02860 0.44980 -0.39700
O 	O 	0.90330 0.95350 0.53080 -0.39500
O 	O 	0.83320 0.19110 0.41260 -0.23200
O 	O 	0.06300 0.21600 0.46840 -0.25900
Si	Si	0.81860 0.25230 0.65612 0.55700
W 	W 	0.02165 0.34343 0.59572 0.89500
Cu	Cu	0.81694 0.43747 0.63988 0.93900
Cu	Cu	0.78471 0.33603 0.54053 0.98500
Cu	Cu	0.86713 0.35311 0.76206 0.95000
Cu	Cu	0.60092 0.34456 0.70531 0.90900
Cu	Cu	0.56588 0.24382 0.60407 0.90900
Cu	Cu	0.79062 0.14106 0.55294 0.93500
W 	W 	0.02634 0.15108 0.60721 0.91300
Cu	Cu	0.86897 0.17832 0.77355 0.95200
Cu	Cu	0.60562 0.16644 0.71477 0.91000
Cu	Cu	0.82841 0.06579 0.66197 0.98800
