data_crystal

_cell_length_a 6.75400
_cell_length_b 11.93700
_cell_length_c 13.45600
_cell_angle_alpha 90.00000
_cell_angle_beta  100.38100
_cell_angle_gamma 90.00000

_symmetry_space_group_name_	'P 1'
_symmetry_space_group_name_H-M	'P 1'

loop_
_symmetry_equiv_pos_as_xyz
  x,y,z

loop_
_atom_site_label
_atom_site_type_symbol
_atom_site_fract_x
_atom_site_fract_y
_atom_site_fract_z
_atom_site_charge
Pr	Pr	0.05196 0.83113 0.75493 2.05100
Pr	Pr	0.94804 0.33113 0.74507 2.05400
Pr	Pr	0.94804 0.16887 0.24507 2.05200
Pr	Pr	0.05196 0.66887 0.25493 2.05500
H 	H 	0.80030 0.93850 0.95890 0.02900
H 	H 	0.45900 0.80400 0.14510 0.00300
H 	H 	0.19970 0.43850 0.54110 0.02700
H 	H 	0.54100 0.30400 0.35490 0.00500
H 	H 	0.19970 0.06150 0.04110 0.02900
H 	H 	0.54100 0.19600 0.85490 0.00300
H 	H 	0.80030 0.56150 0.45890 0.02700
H 	H 	0.45900 0.69600 0.64510 0.00500
C 	C 	0.54200 0.89770 0.78070 0.39000
C 	C 	0.52720 0.88000 0.89020 -0.09400
C 	C 	0.68210 0.90480 0.97010 0.06100
C 	C 	0.65490 0.87770 0.06680 -0.13500
C 	C 	0.81930 0.90070 0.15710 0.39600
C 	C 	0.47630 0.82720 0.08130 0.05800
C 	C 	0.32490 0.81270 0.99760 -0.09600
C 	C 	0.11750 0.76700 0.00400 0.38800
C 	C 	0.45800 0.39770 0.71930 0.39000
C 	C 	0.47280 0.38000 0.60980 -0.09400
C 	C 	0.31790 0.40480 0.52990 0.06400
C 	C 	0.34510 0.37770 0.43320 -0.13700
C 	C 	0.18070 0.40070 0.34290 0.39700
C 	C 	0.52370 0.32720 0.41870 0.05500
C 	C 	0.67510 0.31270 0.50240 -0.09000
C 	C 	0.88250 0.26700 0.49600 0.38600
C 	C 	0.45800 0.10230 0.21930 0.39000
C 	C 	0.47280 0.12000 0.10980 -0.09400
C 	C 	0.31790 0.09520 0.02990 0.06100
C 	C 	0.34510 0.12230 0.93320 -0.13500
C 	C 	0.18070 0.09930 0.84290 0.39600
C 	C 	0.52370 0.17280 0.91870 0.05800
C 	C 	0.67510 0.18730 0.00240 -0.09600
C 	C 	0.88250 0.23300 0.99600 0.38800
C 	C 	0.54200 0.60230 0.28070 0.39000
C 	C 	0.52720 0.62000 0.39020 -0.09400
C 	C 	0.68210 0.59520 0.47010 0.06400
C 	C 	0.65490 0.62230 0.56680 -0.13700
C 	C 	0.81930 0.59930 0.65710 0.39700
C 	C 	0.47630 0.67280 0.58130 0.05500
C 	C 	0.32490 0.68730 0.49760 -0.09000
C 	C 	0.11750 0.73300 0.50400 0.38600
N 	N 	0.34960 0.83850 0.90430 -0.19100
N 	N 	0.65040 0.33850 0.59570 -0.19100
N 	N 	0.65040 0.16150 0.09570 -0.19100
N 	N 	0.34960 0.66150 0.40430 -0.19100
O 	O 	0.37680 0.90110 0.71920 -0.48200
O 	O 	0.71230 0.90720 0.75810 -0.47200
O 	O 	0.83390 0.83210 0.22910 -0.48700
O 	O 	0.92590 0.98590 0.15470 -0.46700
O 	O 	0.07720 0.74270 0.08840 -0.49900
O 	O 	0.99760 0.75720 0.92050 -0.45400
O 	O 	0.62320 0.40110 0.78080 -0.47900
O 	O 	0.28770 0.40720 0.74190 -0.47400
O 	O 	0.16610 0.33210 0.27090 -0.48800
O 	O 	0.07410 0.48590 0.34530 -0.47300
O 	O 	0.92280 0.24270 0.41160 -0.49900
O 	O 	0.00240 0.25720 0.57950 -0.45300
O 	O 	0.62320 0.09890 0.28080 -0.48200
O 	O 	0.28770 0.09280 0.24190 -0.47200
O 	O 	0.16610 0.16790 0.77090 -0.48700
O 	O 	0.07410 0.01410 0.84530 -0.46700
O 	O 	0.92280 0.25730 0.91160 -0.49900
O 	O 	0.00240 0.24280 0.07950 -0.45400
O 	O 	0.37680 0.59890 0.21920 -0.47900
O 	O 	0.71230 0.59280 0.25810 -0.47400
O 	O 	0.83390 0.66790 0.72910 -0.48800
O 	O 	0.92590 0.51410 0.65470 -0.47300
O 	O 	0.07720 0.75730 0.58840 -0.49900
O 	O 	0.99760 0.74280 0.42050 -0.45300
