data_crystal

_cell_length_a 22.38690
_cell_length_b 22.38690
_cell_length_c 22.38690
_cell_angle_alpha 90.00000
_cell_angle_beta  90.00000
_cell_angle_gamma 90.00000

_symmetry_space_group_name_	'P 1'
_symmetry_space_group_name_H-M	'P 1'

loop_
_symmetry_equiv_pos_as_xyz
  x,y,z

loop_
_atom_site_label
_atom_site_type_symbol
_atom_site_fract_x
_atom_site_fract_y
_atom_site_fract_z
_atom_site_charge
Cu	Cu	0.33754 0.08262 0.74408 0.87200
Cu	Cu	0.33001 0.95919 0.70532 0.84900
Cu	Cu	0.16246 0.91738 0.24408 0.87100
Cu	Cu	0.16999 0.04081 0.20532 0.84900
Cu	Cu	0.66246 0.58262 0.75592 0.87100
Cu	Cu	0.66999 0.45919 0.79468 0.84900
Cu	Cu	0.83754 0.41738 0.25592 0.87100
Cu	Cu	0.83001 0.54081 0.29468 0.84900
Cu	Cu	0.74408 0.33754 0.08262 0.87100
Cu	Cu	0.70532 0.33001 0.95919 0.84900
Cu	Cu	0.24408 0.16246 0.91738 0.87100
Cu	Cu	0.20532 0.16999 0.04081 0.84900
Cu	Cu	0.75592 0.66246 0.58262 0.87100
Cu	Cu	0.79468 0.66999 0.45919 0.84900
Cu	Cu	0.25592 0.83754 0.41738 0.87100
Cu	Cu	0.29468 0.83001 0.54081 0.84900
Cu	Cu	0.08262 0.74408 0.33754 0.87100
Cu	Cu	0.95919 0.70532 0.33001 0.84900
Cu	Cu	0.91738 0.24408 0.16246 0.87100
Cu	Cu	0.04081 0.20532 0.16999 0.84900
Cu	Cu	0.58262 0.75592 0.66246 0.87100
Cu	Cu	0.45919 0.79468 0.66999 0.84900
Cu	Cu	0.41738 0.25592 0.83754 0.87100
Cu	Cu	0.54081 0.29468 0.83001 0.84900
H 	H 	0.62480 0.06800 0.58920 0.22800
H 	H 	0.46970 0.18670 0.73900 0.01600
H 	H 	0.44570 0.98910 0.60990 0.05800
H 	H 	0.54110 0.01010 0.57450 0.08000
H 	H 	0.54510 0.15910 0.67300 0.09000
H 	H 	0.09180 0.07930 0.53900 0.21800
H 	H 	0.23680 0.94590 0.56570 -0.01500
H 	H 	0.20680 0.11470 0.73020 0.05700
H 	H 	0.13020 0.14900 0.66900 0.08400
H 	H 	0.16050 0.01290 0.55360 0.06200
H 	H 	0.87520 0.93200 0.08920 0.22800
H 	H 	0.03030 0.81330 0.23900 0.01600
H 	H 	0.05430 0.01090 0.10990 0.05600
H 	H 	0.95890 0.98990 0.07450 0.08100
H 	H 	0.95490 0.84090 0.17300 0.09000
H 	H 	0.40820 0.92070 0.03900 0.21900
H 	H 	0.26320 0.05410 0.06570 -0.01500
H 	H 	0.29320 0.88530 0.23020 0.05700
H 	H 	0.36980 0.85100 0.16900 0.08400
H 	H 	0.33950 0.98710 0.05360 0.06300
H 	H 	0.37520 0.56800 0.91080 0.22800
H 	H 	0.53030 0.68670 0.76100 0.01600
H 	H 	0.55430 0.48910 0.89010 0.05800
H 	H 	0.45890 0.51010 0.92550 0.08000
H 	H 	0.45490 0.65910 0.82700 0.09000
H 	H 	0.90820 0.57930 0.96100 0.21800
H 	H 	0.76320 0.44590 0.93430 -0.01500
H 	H 	0.79320 0.61470 0.76980 0.05700
H 	H 	0.86980 0.64900 0.83100 0.08400
H 	H 	0.83950 0.51290 0.94640 0.06200
H 	H 	0.12480 0.43200 0.41080 0.22800
H 	H 	0.96970 0.31330 0.26100 0.01600
H 	H 	0.94570 0.51090 0.39010 0.05800
H 	H 	0.04110 0.48990 0.42550 0.08000
H 	H 	0.04510 0.34090 0.32700 0.09000
H 	H 	0.59180 0.42070 0.46100 0.21900
H 	H 	0.73680 0.55410 0.43430 -0.01500
H 	H 	0.70680 0.38530 0.26980 0.05700
H 	H 	0.63020 0.35100 0.33100 0.08400
H 	H 	0.66050 0.48710 0.44640 0.06200
H 	H 	0.58920 0.62480 0.06800 0.22800
H 	H 	0.73900 0.46970 0.18670 0.01600
H 	H 	0.60990 0.44570 0.98910 0.05800
H 	H 	0.57450 0.54110 0.01010 0.08000
H 	H 	0.67300 0.54510 0.15910 0.09000
H 	H 	0.53900 0.09180 0.07930 0.21800
H 	H 	0.56570 0.23680 0.94590 -0.01500
H 	H 	0.73020 0.20680 0.11470 0.05700
H 	H 	0.66900 0.13020 0.14900 0.08400
H 	H 	0.55360 0.16050 0.01290 0.06200
H 	H 	0.08920 0.87520 0.93200 0.22800
H 	H 	0.23900 0.03030 0.81330 0.01600
H 	H 	0.10990 0.05430 0.01090 0.05600
H 	H 	0.07450 0.95890 0.98990 0.08100
H 	H 	0.17300 0.95490 0.84090 0.09000
H 	H 	0.03900 0.40820 0.92070 0.21900
H 	H 	0.06570 0.26320 0.05410 -0.01500
H 	H 	0.23020 0.29320 0.88530 0.05700
H 	H 	0.16900 0.36980 0.85100 0.08400
H 	H 	0.05360 0.33950 0.98710 0.06300
H 	H 	0.91080 0.37520 0.56800 0.22800
H 	H 	0.76100 0.53030 0.68670 0.01600
H 	H 	0.89010 0.55430 0.48910 0.05800
H 	H 	0.92550 0.45890 0.51010 0.08000
H 	H 	0.82700 0.45490 0.65910 0.09000
H 	H 	0.96100 0.90820 0.57930 0.21800
H 	H 	0.93430 0.76320 0.44590 -0.01500
H 	H 	0.76980 0.79320 0.61470 0.05700
H 	H 	0.83100 0.86980 0.64900 0.08400
H 	H 	0.94640 0.83950 0.51290 0.06200
H 	H 	0.41080 0.12480 0.43200 0.22800
H 	H 	0.26100 0.96970 0.31330 0.01600
H 	H 	0.39010 0.94570 0.51090 0.05800
H 	H 	0.42550 0.04110 0.48990 0.08000
H 	H 	0.32700 0.04510 0.34090 0.09000
H 	H 	0.46100 0.59180 0.42070 0.21900
H 	H 	0.43430 0.73680 0.55410 -0.01500
H 	H 	0.26980 0.70680 0.38530 0.05700
H 	H 	0.33100 0.63020 0.35100 0.08400
H 	H 	0.44640 0.66050 0.48710 0.06200
H 	H 	0.06800 0.58920 0.62480 0.22800
H 	H 	0.18670 0.73900 0.46970 0.01600
H 	H 	0.98910 0.60990 0.44570 0.05800
H 	H 	0.01010 0.57450 0.54110 0.08000
H 	H 	0.15910 0.67300 0.54510 0.09000
H 	H 	0.07930 0.53900 0.09180 0.21800
H 	H 	0.94590 0.56570 0.23680 -0.01500
H 	H 	0.11470 0.73020 0.20680 0.05700
H 	H 	0.14900 0.66900 0.13020 0.08400
H 	H 	0.01290 0.55360 0.16050 0.06200
H 	H 	0.93200 0.08920 0.87520 0.22800
H 	H 	0.81330 0.23900 0.03030 0.01600
H 	H 	0.01090 0.10990 0.05430 0.05600
H 	H 	0.98990 0.07450 0.95890 0.08100
H 	H 	0.84090 0.17300 0.95490 0.09000
H 	H 	0.92070 0.03900 0.40820 0.21900
H 	H 	0.05410 0.06570 0.26320 -0.01500
H 	H 	0.88530 0.23020 0.29320 0.05700
H 	H 	0.85100 0.16900 0.36980 0.08400
H 	H 	0.98710 0.05360 0.33950 0.06300
H 	H 	0.56800 0.91080 0.37520 0.22800
H 	H 	0.68670 0.76100 0.53030 0.01600
H 	H 	0.48910 0.89010 0.55430 0.05800
H 	H 	0.51010 0.92550 0.45890 0.08000
H 	H 	0.65910 0.82700 0.45490 0.09000
H 	H 	0.57930 0.96100 0.90820 0.21800
H 	H 	0.44590 0.93430 0.76320 -0.01500
H 	H 	0.61470 0.76980 0.79320 0.05700
H 	H 	0.64900 0.83100 0.86980 0.08400
H 	H 	0.51290 0.94640 0.83950 0.06200
H 	H 	0.43200 0.41080 0.12480 0.22800
H 	H 	0.31330 0.26100 0.96970 0.01600
H 	H 	0.51090 0.39010 0.94570 0.05800
H 	H 	0.48990 0.42550 0.04110 0.08000
H 	H 	0.34090 0.32700 0.04510 0.09000
H 	H 	0.42070 0.46100 0.59180 0.21900
H 	H 	0.55410 0.43430 0.73680 -0.01500
H 	H 	0.38530 0.26980 0.70680 0.05700
H 	H 	0.35100 0.33100 0.63020 0.08400
H 	H 	0.48710 0.44640 0.66050 0.06200
C 	C 	0.44600 0.15300 0.72910 -0.01500
C 	C 	0.46780 0.11310 0.68480 -0.03200
C 	C 	0.43760 0.05960 0.66570 0.15900
C 	C 	0.46580 0.02370 0.62400 -0.08600
C 	C 	0.52230 0.03630 0.60210 -0.14200
C 	C 	0.55090 0.08780 0.62120 0.22800
C 	C 	0.52440 0.12410 0.66070 -0.16800
C 	C 	0.24960 0.96200 0.60280 0.02100
C 	C 	0.21910 0.01380 0.62510 -0.05900
C 	C 	0.23210 0.04280 0.67980 0.18200
C 	C 	0.19810 0.09380 0.69430 -0.11400
C 	C 	0.15220 0.11450 0.65790 -0.11700
C 	C 	0.13860 0.08460 0.60520 0.21900
C 	C 	0.17080 0.03410 0.58890 -0.14800
C 	C 	0.05400 0.84700 0.22910 -0.01600
C 	C 	0.03220 0.88690 0.18480 -0.03000
C 	C 	0.06240 0.94040 0.16570 0.15700
C 	C 	0.03420 0.97630 0.12400 -0.08300
C 	C 	0.97770 0.96370 0.10210 -0.14500
C 	C 	0.94910 0.91220 0.12120 0.22900
C 	C 	0.97560 0.87590 0.16070 -0.17000
C 	C 	0.25040 0.03800 0.10280 0.02000
C 	C 	0.28090 0.98620 0.12510 -0.05800
C 	C 	0.26790 0.95720 0.17980 0.18100
C 	C 	0.30190 0.90620 0.19430 -0.11400
C 	C 	0.34780 0.88550 0.15790 -0.11700
C 	C 	0.36140 0.91540 0.10520 0.22000
C 	C 	0.32920 0.96590 0.08890 -0.14900
C 	C 	0.55400 0.65300 0.77090 -0.01500
C 	C 	0.53220 0.61310 0.81520 -0.03200
C 	C 	0.56240 0.55960 0.83430 0.15900
C 	C 	0.53420 0.52370 0.87600 -0.08700
C 	C 	0.47770 0.53630 0.89790 -0.14200
C 	C 	0.44910 0.58780 0.87880 0.22700
C 	C 	0.47560 0.62410 0.83930 -0.16800
C 	C 	0.75040 0.46200 0.89720 0.02100
C 	C 	0.78090 0.51380 0.87490 -0.05900
C 	C 	0.76790 0.54280 0.82020 0.18200
C 	C 	0.80190 0.59380 0.80570 -0.11400
C 	C 	0.84780 0.61450 0.84210 -0.11700
C 	C 	0.86140 0.58460 0.89480 0.21900
C 	C 	0.82920 0.53410 0.91110 -0.14800
C 	C 	0.94600 0.34700 0.27090 -0.01500
C 	C 	0.96780 0.38690 0.31520 -0.03200
C 	C 	0.93760 0.44040 0.33430 0.15900
C 	C 	0.96580 0.47630 0.37600 -0.08700
C 	C 	0.02230 0.46370 0.39790 -0.14200
C 	C 	0.05090 0.41220 0.37880 0.22800
C 	C 	0.02440 0.37590 0.33930 -0.16800
C 	C 	0.74960 0.53800 0.39720 0.02100
C 	C 	0.71910 0.48620 0.37490 -0.05900
C 	C 	0.73210 0.45720 0.32020 0.18200
C 	C 	0.69810 0.40620 0.30570 -0.11400
C 	C 	0.65220 0.38550 0.34210 -0.11700
C 	C 	0.63860 0.41540 0.39480 0.21900
C 	C 	0.67080 0.46590 0.41110 -0.14800
C 	C 	0.72910 0.44600 0.15300 -0.01500
C 	C 	0.68480 0.46780 0.11310 -0.03200
C 	C 	0.66570 0.43760 0.05960 0.15900
C 	C 	0.62400 0.46580 0.02370 -0.08600
C 	C 	0.60210 0.52230 0.03630 -0.14200
C 	C 	0.62120 0.55090 0.08780 0.22800
C 	C 	0.66070 0.52440 0.12410 -0.16800
C 	C 	0.60280 0.24960 0.96200 0.02100
C 	C 	0.62510 0.21910 0.01380 -0.05900
C 	C 	0.67980 0.23210 0.04280 0.18200
C 	C 	0.69430 0.19810 0.09380 -0.11400
C 	C 	0.65790 0.15220 0.11450 -0.11700
C 	C 	0.60520 0.13860 0.08460 0.21900
C 	C 	0.58890 0.17080 0.03410 -0.14800
C 	C 	0.22910 0.05400 0.84700 -0.01600
C 	C 	0.18480 0.03220 0.88690 -0.03000
C 	C 	0.16570 0.06240 0.94040 0.15700
C 	C 	0.12400 0.03420 0.97630 -0.08300
C 	C 	0.10210 0.97770 0.96370 -0.14500
C 	C 	0.12120 0.94910 0.91220 0.22900
C 	C 	0.16070 0.97560 0.87590 -0.17000
C 	C 	0.10280 0.25040 0.03800 0.02000
C 	C 	0.12510 0.28090 0.98620 -0.05800
C 	C 	0.17980 0.26790 0.95720 0.18100
C 	C 	0.19430 0.30190 0.90620 -0.11400
C 	C 	0.15790 0.34780 0.88550 -0.11700
C 	C 	0.10520 0.36140 0.91540 0.22000
C 	C 	0.08890 0.32920 0.96590 -0.14900
C 	C 	0.77090 0.55400 0.65300 -0.01500
C 	C 	0.81520 0.53220 0.61310 -0.03200
C 	C 	0.83430 0.56240 0.55960 0.15900
C 	C 	0.87600 0.53420 0.52370 -0.08700
C 	C 	0.89790 0.47770 0.53630 -0.14200
C 	C 	0.87880 0.44910 0.58780 0.22700
C 	C 	0.83930 0.47560 0.62410 -0.16800
C 	C 	0.89720 0.75040 0.46200 0.02100
C 	C 	0.87490 0.78090 0.51380 -0.05900
C 	C 	0.82020 0.76790 0.54280 0.18200
C 	C 	0.80570 0.80190 0.59380 -0.11400
C 	C 	0.84210 0.84780 0.61450 -0.11700
C 	C 	0.89480 0.86140 0.58460 0.21900
C 	C 	0.91110 0.82920 0.53410 -0.14800
C 	C 	0.27090 0.94600 0.34700 -0.01500
C 	C 	0.31520 0.96780 0.38690 -0.03200
C 	C 	0.33430 0.93760 0.44040 0.15900
C 	C 	0.37600 0.96580 0.47630 -0.08700
C 	C 	0.39790 0.02230 0.46370 -0.14200
C 	C 	0.37880 0.05090 0.41220 0.22800
C 	C 	0.33930 0.02440 0.37590 -0.16800
C 	C 	0.39720 0.74960 0.53800 0.02100
C 	C 	0.37490 0.71910 0.48620 -0.05900
C 	C 	0.32020 0.73210 0.45720 0.18200
C 	C 	0.30570 0.69810 0.40620 -0.11400
C 	C 	0.34210 0.65220 0.38550 -0.11700
C 	C 	0.39480 0.63860 0.41540 0.21900
C 	C 	0.41110 0.67080 0.46590 -0.14800
C 	C 	0.15300 0.72910 0.44600 -0.01500
C 	C 	0.11310 0.68480 0.46780 -0.03200
C 	C 	0.05960 0.66570 0.43760 0.15900
C 	C 	0.02370 0.62400 0.46580 -0.08600
C 	C 	0.03630 0.60210 0.52230 -0.14200
C 	C 	0.08780 0.62120 0.55090 0.22800
C 	C 	0.12410 0.66070 0.52440 -0.16800
C 	C 	0.96200 0.60280 0.24960 0.02100
C 	C 	0.01380 0.62510 0.21910 -0.05900
C 	C 	0.04280 0.67980 0.23210 0.18200
C 	C 	0.09380 0.69430 0.19810 -0.11400
C 	C 	0.11450 0.65790 0.15220 -0.11700
C 	C 	0.08460 0.60520 0.13860 0.21900
C 	C 	0.03410 0.58890 0.17080 -0.14800
C 	C 	0.84700 0.22910 0.05400 -0.01600
C 	C 	0.88690 0.18480 0.03220 -0.03000
C 	C 	0.94040 0.16570 0.06240 0.15700
C 	C 	0.97630 0.12400 0.03420 -0.08300
C 	C 	0.96370 0.10210 0.97770 -0.14500
C 	C 	0.91220 0.12120 0.94910 0.22900
C 	C 	0.87590 0.16070 0.97560 -0.17000
C 	C 	0.03800 0.10280 0.25040 0.02000
C 	C 	0.98620 0.12510 0.28090 -0.05800
C 	C 	0.95720 0.17980 0.26790 0.18100
C 	C 	0.90620 0.19430 0.30190 -0.11400
C 	C 	0.88550 0.15790 0.34780 -0.11700
C 	C 	0.91540 0.10520 0.36140 0.22000
C 	C 	0.96590 0.08890 0.32920 -0.14900
C 	C 	0.65300 0.77090 0.55400 -0.01500
C 	C 	0.61310 0.81520 0.53220 -0.03200
C 	C 	0.55960 0.83430 0.56240 0.15900
C 	C 	0.52370 0.87600 0.53420 -0.08700
C 	C 	0.53630 0.89790 0.47770 -0.14200
C 	C 	0.58780 0.87880 0.44910 0.22700
C 	C 	0.62410 0.83930 0.47560 -0.16800
C 	C 	0.46200 0.89720 0.75040 0.02100
C 	C 	0.51380 0.87490 0.78090 -0.05900
C 	C 	0.54280 0.82020 0.76790 0.18200
C 	C 	0.59380 0.80570 0.80190 -0.11400
C 	C 	0.61450 0.84210 0.84780 -0.11700
C 	C 	0.58460 0.89480 0.86140 0.21900
C 	C 	0.53410 0.91110 0.82920 -0.14800
C 	C 	0.34700 0.27090 0.94600 -0.01500
C 	C 	0.38690 0.31520 0.96780 -0.03200
C 	C 	0.44040 0.33430 0.93760 0.15900
C 	C 	0.47630 0.37600 0.96580 -0.08700
C 	C 	0.46370 0.39790 0.02230 -0.14200
C 	C 	0.41220 0.37880 0.05090 0.22800
C 	C 	0.37590 0.33930 0.02440 -0.16800
C 	C 	0.53800 0.39720 0.74960 0.02100
C 	C 	0.48620 0.37490 0.71910 -0.05900
C 	C 	0.45720 0.32020 0.73210 0.18200
C 	C 	0.40620 0.30570 0.69810 -0.11400
C 	C 	0.38550 0.34210 0.65220 -0.11700
C 	C 	0.41540 0.39480 0.63860 0.21900
C 	C 	0.46590 0.41110 0.67080 -0.14800
C 	C 	0.32970 0.17030 0.82970 0.09700
C 	C 	0.17030 0.82970 0.32970 0.09700
C 	C 	0.67030 0.67030 0.67030 0.09700
C 	C 	0.82970 0.32970 0.17030 0.09700
C 	C 	0.36630 0.86630 0.63370 0.10300
C 	C 	0.13370 0.13370 0.13370 0.10300
C 	C 	0.63370 0.36630 0.86630 0.10300
C 	C 	0.86630 0.63370 0.36630 0.10300
N 	N 	0.37900 0.18700 0.80080 -0.22600
N 	N 	0.39450 0.14590 0.75730 -0.19800
N 	N 	0.31860 0.88550 0.60370 -0.22800
N 	N 	0.29330 0.93590 0.63000 -0.19900
N 	N 	0.12100 0.81300 0.30080 -0.22600
N 	N 	0.10550 0.85410 0.25730 -0.19800
N 	N 	0.18140 0.11450 0.10370 -0.22800
N 	N 	0.20670 0.06410 0.13000 -0.19900
N 	N 	0.62100 0.68700 0.69920 -0.22600
N 	N 	0.60550 0.64590 0.74270 -0.19800
N 	N 	0.68140 0.38550 0.89630 -0.22800
N 	N 	0.70670 0.43590 0.87000 -0.19900
N 	N 	0.87900 0.31300 0.19920 -0.22600
N 	N 	0.89450 0.35410 0.24270 -0.19800
N 	N 	0.81860 0.61450 0.39630 -0.22800
N 	N 	0.79330 0.56410 0.37000 -0.19900
N 	N 	0.80080 0.37900 0.18700 -0.22600
N 	N 	0.75730 0.39450 0.14590 -0.19800
N 	N 	0.60370 0.31860 0.88550 -0.22800
N 	N 	0.63000 0.29330 0.93590 -0.19900
N 	N 	0.30080 0.12100 0.81300 -0.22600
N 	N 	0.25730 0.10550 0.85410 -0.19800
N 	N 	0.10370 0.18140 0.11450 -0.22800
N 	N 	0.13000 0.20670 0.06410 -0.19900
N 	N 	0.69920 0.62100 0.68700 -0.22600
N 	N 	0.74270 0.60550 0.64590 -0.19800
N 	N 	0.89630 0.68140 0.38550 -0.22800
N 	N 	0.87000 0.70670 0.43590 -0.19900
N 	N 	0.19920 0.87900 0.31300 -0.22600
N 	N 	0.24270 0.89450 0.35410 -0.19800
N 	N 	0.39630 0.81860 0.61450 -0.22800
N 	N 	0.37000 0.79330 0.56410 -0.19900
N 	N 	0.18700 0.80080 0.37900 -0.22600
N 	N 	0.14590 0.75730 0.39450 -0.19800
N 	N 	0.88550 0.60370 0.31860 -0.22800
N 	N 	0.93590 0.63000 0.29330 -0.19900
N 	N 	0.81300 0.30080 0.12100 -0.22600
N 	N 	0.85410 0.25730 0.10550 -0.19800
N 	N 	0.11450 0.10370 0.18140 -0.22800
N 	N 	0.06410 0.13000 0.20670 -0.19900
N 	N 	0.68700 0.69920 0.62100 -0.22600
N 	N 	0.64590 0.74270 0.60550 -0.19800
N 	N 	0.38550 0.89630 0.68140 -0.22800
N 	N 	0.43590 0.87000 0.70670 -0.19900
N 	N 	0.31300 0.19920 0.87900 -0.22600
N 	N 	0.35410 0.24270 0.89450 -0.19800
N 	N 	0.61450 0.39630 0.81860 -0.22800
N 	N 	0.56410 0.37000 0.79330 -0.19900
O 	O 	0.38300 0.04580 0.68330 -0.45400
O 	O 	0.60700 0.10020 0.59660 -0.39400
O 	O 	0.27450 0.02550 0.71610 -0.49900
O 	O 	0.09690 0.10470 0.56610 -0.39400
O 	O 	0.11700 0.95420 0.18330 -0.45300
O 	O 	0.89300 0.89980 0.09660 -0.39400
O 	O 	0.22550 0.97450 0.21610 -0.49900
O 	O 	0.40310 0.89530 0.06610 -0.39400
O 	O 	0.61700 0.54580 0.81670 -0.45400
O 	O 	0.39300 0.60020 0.90340 -0.39400
O 	O 	0.72550 0.52550 0.78390 -0.49900
O 	O 	0.90310 0.60470 0.93390 -0.39400
O 	O 	0.88300 0.45420 0.31670 -0.45400
O 	O 	0.10700 0.39980 0.40340 -0.39400
O 	O 	0.77450 0.47450 0.28390 -0.49900
O 	O 	0.59690 0.39530 0.43390 -0.39400
O 	O 	0.68330 0.38300 0.04580 -0.45400
O 	O 	0.59660 0.60700 0.10020 -0.39400
O 	O 	0.71610 0.27450 0.02550 -0.49900
O 	O 	0.56610 0.09690 0.10470 -0.39400
O 	O 	0.18330 0.11700 0.95420 -0.45300
O 	O 	0.09660 0.89300 0.89980 -0.39400
O 	O 	0.21610 0.22550 0.97450 -0.49900
O 	O 	0.06610 0.40310 0.89530 -0.39400
O 	O 	0.81670 0.61700 0.54580 -0.45400
O 	O 	0.90340 0.39300 0.60020 -0.39400
O 	O 	0.78390 0.72550 0.52550 -0.49900
O 	O 	0.93390 0.90310 0.60470 -0.39400
O 	O 	0.31670 0.88300 0.45420 -0.45400
O 	O 	0.40340 0.10700 0.39980 -0.39400
O 	O 	0.28390 0.77450 0.47450 -0.49900
O 	O 	0.43390 0.59690 0.39530 -0.39400
O 	O 	0.04580 0.68330 0.38300 -0.45400
O 	O 	0.10020 0.59660 0.60700 -0.39400
O 	O 	0.02550 0.71610 0.27450 -0.49900
O 	O 	0.10470 0.56610 0.09690 -0.39400
O 	O 	0.95420 0.18330 0.11700 -0.45300
O 	O 	0.89980 0.09660 0.89300 -0.39400
O 	O 	0.97450 0.21610 0.22550 -0.49900
O 	O 	0.89530 0.06610 0.40310 -0.39400
O 	O 	0.54580 0.81670 0.61700 -0.45400
O 	O 	0.60020 0.90340 0.39300 -0.39400
O 	O 	0.52550 0.78390 0.72550 -0.49900
O 	O 	0.60470 0.93390 0.90310 -0.39400
O 	O 	0.45420 0.31670 0.88300 -0.45400
O 	O 	0.39980 0.40340 0.10700 -0.39400
O 	O 	0.47450 0.28390 0.77450 -0.49900
O 	O 	0.39530 0.43390 0.59690 -0.39400
