data_crystal

_cell_length_a 6.75100
_cell_length_b 11.91600
_cell_length_c 13.45700
_cell_angle_alpha 90.00000
_cell_angle_beta  100.42700
_cell_angle_gamma 90.00000

_symmetry_space_group_name_	'P 1'
_symmetry_space_group_name_H-M	'P 1'

loop_
_symmetry_equiv_pos_as_xyz
  x,y,z

loop_
_atom_site_label
_atom_site_type_symbol
_atom_site_fract_x
_atom_site_fract_y
_atom_site_fract_z
_atom_site_charge
Nd	Nd	0.94749 0.83054 0.74493 2.14600
Nd	Nd	0.05251 0.33054 0.75507 2.16000
Nd	Nd	0.05251 0.16946 0.25507 2.14500
Nd	Nd	0.94749 0.66946 0.24493 2.15900
H 	H 	0.21100 0.94100 0.54300 -0.00300
H 	H 	0.54600 0.80800 0.35900 -0.03000
H 	H 	0.78900 0.44100 0.95700 -0.00500
H 	H 	0.45400 0.30800 0.14100 -0.02900
H 	H 	0.78900 0.05900 0.45700 -0.00300
H 	H 	0.45400 0.19200 0.64100 -0.03000
H 	H 	0.21100 0.55900 0.04300 -0.00500
H 	H 	0.54600 0.69200 0.85900 -0.02900
C 	C 	0.45750 0.89630 0.71910 0.43900
C 	C 	0.47310 0.87950 0.61010 -0.12300
C 	C 	0.31720 0.90390 0.52970 0.11200
C 	C 	0.34510 0.87760 0.43390 -0.19200
C 	C 	0.18180 0.90050 0.34280 0.45500
C 	C 	0.52320 0.82650 0.41880 0.10600
C 	C 	0.67430 0.81170 0.50190 -0.12400
C 	C 	0.88180 0.76640 0.49620 0.43800
C 	C 	0.54250 0.39630 0.78090 0.44000
C 	C 	0.52690 0.37950 0.88990 -0.12300
C 	C 	0.68280 0.40390 0.97030 0.11500
C 	C 	0.65490 0.37760 0.06610 -0.19400
C 	C 	0.81820 0.40050 0.15720 0.45700
C 	C 	0.47680 0.32650 0.08120 0.10600
C 	C 	0.32570 0.31170 0.99810 -0.12300
C 	C 	0.11820 0.26640 0.00380 0.43700
C 	C 	0.54250 0.10370 0.28090 0.43900
C 	C 	0.52690 0.12050 0.38990 -0.12300
C 	C 	0.68280 0.09610 0.47030 0.11200
C 	C 	0.65490 0.12240 0.56610 -0.19200
C 	C 	0.81820 0.09950 0.65720 0.45500
C 	C 	0.47680 0.17350 0.58120 0.10600
C 	C 	0.32570 0.18830 0.49810 -0.12400
C 	C 	0.11820 0.23360 0.50380 0.43800
C 	C 	0.45750 0.60370 0.21910 0.44000
C 	C 	0.47310 0.62050 0.11010 -0.12300
C 	C 	0.31720 0.59610 0.02970 0.11500
C 	C 	0.34510 0.62240 0.93390 -0.19400
C 	C 	0.18180 0.59950 0.84280 0.45700
C 	C 	0.52320 0.67350 0.91880 0.10600
C 	C 	0.67430 0.68830 0.00190 -0.12300
C 	C 	0.88180 0.73360 0.99620 0.43700
N 	N 	0.65010 0.83780 0.59580 -0.18700
N 	N 	0.34990 0.33780 0.90420 -0.18700
N 	N 	0.34990 0.16220 0.40420 -0.18700
N 	N 	0.65010 0.66220 0.09580 -0.18700
O 	O 	0.62250 0.90100 0.78110 -0.51000
O 	O 	0.28800 0.90650 0.74210 -0.50000
O 	O 	0.16550 0.83210 0.27080 -0.52300
O 	O 	0.07490 0.98660 0.34550 -0.49200
O 	O 	0.92280 0.74310 0.41150 -0.53300
O 	O 	0.00150 0.75660 0.57910 -0.48300
O 	O 	0.37750 0.40100 0.71890 -0.50900
O 	O 	0.71200 0.40650 0.75790 -0.50300
O 	O 	0.83450 0.33210 0.22920 -0.52300
O 	O 	0.92510 0.48660 0.15450 -0.50000
O 	O 	0.07720 0.24310 0.08850 -0.53100
O 	O 	0.99850 0.25660 0.92090 -0.48300
O 	O 	0.37750 0.09900 0.21890 -0.51000
O 	O 	0.71200 0.09350 0.25790 -0.50000
O 	O 	0.83450 0.16790 0.72920 -0.52300
O 	O 	0.92510 0.01340 0.65450 -0.49200
O 	O 	0.07720 0.25690 0.58850 -0.53300
O 	O 	0.99850 0.24340 0.42090 -0.48300
O 	O 	0.62250 0.59900 0.28110 -0.50900
O 	O 	0.28800 0.59350 0.24210 -0.50300
O 	O 	0.16550 0.66790 0.77080 -0.52300
O 	O 	0.07490 0.51340 0.84550 -0.50000
O 	O 	0.92280 0.75690 0.91150 -0.53100
O 	O 	0.00150 0.74340 0.07910 -0.48300
