data_crystal

_cell_length_a 14.32390
_cell_length_b 15.31670
_cell_length_c 25.46800
_cell_angle_alpha 87.99400
_cell_angle_beta  85.15100
_cell_angle_gamma 63.41900

_symmetry_space_group_name_	'P 1'
_symmetry_space_group_name_H-M	'P 1'

loop_
_symmetry_equiv_pos_as_xyz
  x,y,z

loop_
_atom_site_label
_atom_site_type_symbol
_atom_site_fract_x
_atom_site_fract_y
_atom_site_fract_z
_atom_site_charge
Gd	Gd	0.46018 0.24288 0.32299 1.44200
Gd	Gd	0.54482 0.14896 0.15259 1.48200
Gd	Gd	0.17023 0.45465 0.98270 1.50300
Gd	Gd	0.15342 0.92870 0.47523 1.58000
O 	O 	0.26350 0.01060 0.49220 -0.38800
O 	O 	0.37470 0.27270 0.17940 -0.46200
O 	O 	0.48610 0.06160 0.21087 -0.44500
C 	C 	0.63620 0.43360 0.16080 0.01300
H 	H 	0.64540 0.39530 0.13050 0.05600
O 	O 	0.86590 0.21790 0.50211 -0.40200
O 	O 	0.26080 0.82950 0.39080 -0.33000
O 	O 	0.53870 0.31000 0.25758 -0.44100
O 	O 	0.32210 0.13470 0.41990 -0.25600
O 	O 	0.62110 0.11530 0.29537 -0.46400
O 	O 	0.21120 0.98760 0.39733 -0.36000
O 	O 	0.05300 0.85100 0.17430 -0.05900
O 	O 	0.66140 0.98450 0.11162 -0.35200
O 	O 	0.08380 0.43700 0.05924 -0.48400
O 	O 	0.41850 0.12290 0.29070 -0.42500
O 	O 	0.83640 0.54450 0.46710 -0.10400
O 	O 	0.67990 0.07640 0.21163 -0.41300
O 	O 	0.39780 0.69760 0.20760 -0.09800
O 	O 	0.97160 0.56410 0.43960 -0.09500
O 	O 	0.59800 0.68180 0.28740 -0.09400
O 	O 	0.08500 0.00410 0.05190 -0.06300
O 	O 	0.33390 0.32260 0.26343 -0.43300
O 	O 	0.46980 0.76860 0.15630 -0.11100
O 	O 	0.58890 0.57000 0.33760 -0.10800
O 	O 	0.84850 0.52820 0.28130 -0.09300
O 	O 	0.58140 0.28000 0.17047 -0.42300
O 	O 	0.70990 0.61430 0.09908 -0.34500
O 	O 	0.89470 0.65460 0.03910 -0.43900
O 	O 	0.71530 0.09870 0.10131 -0.34700
O 	O 	0.05870 0.61780 0.00747 -0.43200
O 	O 	0.92200 0.47580 0.09300 -0.40700
O 	O 	0.03690 0.93210 0.41243 -0.41600
O 	O 	0.72630 0.47620 0.06691 -0.37400
O 	O 	0.30210 0.27210 0.37755 -0.39600
O 	O 	0.86780 0.03400 0.43305 -0.44500
N 	N 	0.94060 0.48870 0.28950 -0.01000
N 	N 	0.59940 0.60240 0.29410 -0.00600
O 	O 	0.01410 0.08880 0.47889 -0.47300
C 	C 	0.81920 0.01940 0.32990 0.05500
H 	H 	0.76310 0.05860 0.35430 0.01600
C 	C 	0.70050 0.53690 0.10380 0.30500
C 	C 	0.65960 0.51270 0.15620 -0.03300
C 	C 	0.94380 0.97890 0.40220 0.42800
C 	C 	0.05540 0.43120 0.15130 -0.13000
C 	C 	0.15360 0.26760 0.42360 -0.04800
C 	C 	0.12370 0.40600 0.25210 -0.01400
H 	H 	0.14640 0.39910 0.28670 0.07100
C 	C 	0.01790 0.89080 0.05250 0.10000
N 	N 	0.06590 0.84260 0.22160 -0.01200
C 	C 	0.95850 0.18020 0.48220 0.37700
C 	C 	0.95320 0.77460 0.04220 -0.09100
C 	C 	0.85450 0.84450 0.06120 0.01800
H 	H 	0.79730 0.82860 0.06410 0.04700
C 	C 	0.58910 0.46480 0.25320 -0.03800
H 	H 	0.56570 0.44910 0.28650 0.06100
C 	C 	0.03640 0.79840 0.03750 -0.03300
H 	H 	0.10420 0.75230 0.02430 0.07600
C 	C 	0.34990 0.98100 0.31200 0.00600
H 	H 	0.33260 0.03050 0.33770 0.06700
C 	C 	0.42760 0.91230 0.22620 -0.04000
H 	H 	0.46370 0.91390 0.19340 0.07600
C 	C 	0.57100 0.32610 0.21280 0.41200
C 	C 	0.01860 0.45200 0.24390 0.06800
N 	N 	0.10540 0.91720 0.04810 -0.00600
N 	N 	0.92930 0.51230 0.45100 -0.00600
C 	C 	0.99080 0.40650 0.44700 0.10800
C 	C 	0.83830 0.93710 0.07610 -0.03600
C 	C 	0.43780 0.06310 0.25480 0.43000
C 	C 	0.10680 0.20760 0.44000 0.01300
H 	H 	0.14590 0.13890 0.43630 0.06300
C 	C 	0.69100 0.07340 0.25970 0.44700
C 	C 	0.16180 0.38390 0.15820 0.07500
H 	H 	0.21110 0.36140 0.12840 -0.00500
C 	C 	0.98230 0.46570 0.19430 -0.01500
H 	H 	0.90940 0.49780 0.18980 0.07500
C 	C 	0.79990 0.01380 0.27740 -0.11600
C 	C 	0.31110 0.31760 0.21750 0.43900
C 	C 	0.00110 0.90910 0.31090 -0.02600
H 	H 	0.07010 0.87280 0.32160 0.07900
C 	C 	0.31980 0.90690 0.32170 -0.03000
C 	C 	0.92050 0.96100 0.07120 -0.05100
H 	H 	0.91060 0.02420 0.08050 0.09400
C 	C 	0.40560 0.98240 0.26450 -0.08400
C 	C 	0.94540 0.34730 0.46550 -0.04800
H 	H 	0.87520 0.37500 0.48040 0.08700
C 	C 	0.26050 0.90630 0.37390 0.30100
C 	C 	0.09460 0.36790 0.42670 -0.04800
H 	H 	0.12470 0.40990 0.41500 0.08800
C 	C 	0.61300 0.54240 0.24780 0.10000
C 	C 	0.73130 0.01140 0.09750 0.29400
C 	C 	0.01770 0.44890 0.09720 0.44500
C 	C 	0.34410 0.83440 0.28470 -0.06000
H 	H 	0.32590 0.78240 0.29180 0.09900
C 	C 	0.97980 0.90430 0.25950 0.07400
C 	C 	0.97010 0.67400 0.02830 0.42900
C 	C 	0.59990 0.40960 0.20850 -0.08600
C 	C 	0.91990 0.96800 0.34690 -0.10500
N 	N 	0.42110 0.76380 0.19740 -0.00800
C 	C 	0.19610 0.36960 0.20850 -0.12700
C 	C 	0.88100 0.95630 0.24180 -0.01600
H 	H 	0.86920 0.95260 0.20590 0.07400
C 	C 	0.64810 0.56800 0.20010 -0.05600
H 	H 	0.66370 0.62210 0.19760 0.10000
C 	C 	0.39590 0.83960 0.23680 0.10300
C 	C 	0.00430 0.24650 0.46180 -0.07000
C 	C 	0.26880 0.22060 0.40500 0.34000
O 	O 	0.96610 0.46360 0.33310 -0.03100
O 	O 	0.14810 0.78530 0.24050 -0.02500
O 	O 	0.19410 0.84920 0.04140 -0.03700
H 	H 	0.27770 0.02440 0.52480 0.19300
O 	O 	0.97650 0.49400 0.33320 -0.06600
O 	O 	0.09220 0.98810 0.07490 -0.04500
O 	O 	0.18440 0.86530 0.01980 -0.07300
O 	O 	0.95900 0.16400 0.82260 -0.03400
O 	O 	0.84350 0.18980 0.76630 -0.07000
Gd	Gd	0.53982 0.75712 0.67700 1.44300
Gd	Gd	0.45518 0.85104 0.84741 1.48300
Gd	Gd	0.82977 0.54535 0.01730 1.50400
Gd	Gd	0.84658 0.07130 0.52476 1.58100
O 	O 	0.73650 0.98940 0.50780 -0.38700
O 	O 	0.62530 0.72730 0.82060 -0.46100
O 	O 	0.51390 0.93840 0.78913 -0.44500
C 	C 	0.36380 0.56640 0.83920 0.01300
H 	H 	0.35460 0.60470 0.86950 0.05600
O 	O 	0.13410 0.78210 0.49789 -0.40200
O 	O 	0.73920 0.17050 0.60920 -0.33000
O 	O 	0.46130 0.69000 0.74242 -0.44100
O 	O 	0.67790 0.86530 0.58010 -0.25600
O 	O 	0.37890 0.88470 0.70463 -0.46400
O 	O 	0.78880 0.01240 0.60267 -0.36000
O 	O 	0.94700 0.14900 0.82570 -0.05900
O 	O 	0.33860 0.01550 0.88838 -0.35200
O 	O 	0.91620 0.56300 0.94076 -0.48400
O 	O 	0.58150 0.87710 0.70930 -0.42500
O 	O 	0.16360 0.45550 0.53290 -0.10400
O 	O 	0.32010 0.92360 0.78837 -0.41300
O 	O 	0.60220 0.30240 0.79240 -0.09800
O 	O 	0.02840 0.43590 0.56040 -0.09500
O 	O 	0.40200 0.31820 0.71260 -0.09400
O 	O 	0.91500 0.99590 0.94810 -0.06300
O 	O 	0.66610 0.67740 0.73657 -0.43300
O 	O 	0.53020 0.23140 0.84370 -0.11100
O 	O 	0.41110 0.43000 0.66240 -0.10800
O 	O 	0.15150 0.47180 0.71870 -0.09300
O 	O 	0.41860 0.72000 0.82953 -0.42300
O 	O 	0.29010 0.38570 0.90092 -0.34500
O 	O 	0.10530 0.34540 0.96090 -0.43900
O 	O 	0.28470 0.90130 0.89869 -0.34700
O 	O 	0.94130 0.38220 0.99253 -0.43200
O 	O 	0.07800 0.52420 0.90700 -0.40700
O 	O 	0.96310 0.06790 0.58757 -0.41600
O 	O 	0.27370 0.52380 0.93309 -0.37400
O 	O 	0.69790 0.72790 0.62245 -0.39600
O 	O 	0.13220 0.96600 0.56695 -0.44500
N 	N 	0.05940 0.51130 0.71050 -0.01000
N 	N 	0.40060 0.39760 0.70590 -0.00600
O 	O 	0.98590 0.91120 0.52111 -0.47300
C 	C 	0.18080 0.98060 0.67010 0.05500
H 	H 	0.23690 0.94140 0.64570 0.01600
C 	C 	0.29950 0.46310 0.89620 0.30500
C 	C 	0.34040 0.48730 0.84380 -0.03300
C 	C 	0.05620 0.02110 0.59780 0.42800
C 	C 	0.94460 0.56880 0.84870 -0.13000
C 	C 	0.84640 0.73240 0.57640 -0.04800
C 	C 	0.87630 0.59400 0.74790 -0.01400
H 	H 	0.85360 0.60090 0.71330 0.07100
C 	C 	0.98210 0.10920 0.94750 0.10000
N 	N 	0.93410 0.15740 0.77840 -0.01200
C 	C 	0.04150 0.81980 0.51780 0.37700
C 	C 	0.04680 0.22540 0.95780 -0.09100
C 	C 	0.14550 0.15550 0.93880 0.01800
H 	H 	0.20270 0.17140 0.93590 0.04700
C 	C 	0.41090 0.53520 0.74680 -0.03800
H 	H 	0.43430 0.55090 0.71350 0.06100
C 	C 	0.96360 0.20160 0.96250 -0.03300
H 	H 	0.89580 0.24770 0.97570 0.07600
C 	C 	0.65010 0.01900 0.68800 0.00600
H 	H 	0.66740 0.96950 0.66230 0.06700
C 	C 	0.57240 0.08770 0.77380 -0.04000
H 	H 	0.53630 0.08610 0.80660 0.07600
C 	C 	0.42900 0.67390 0.78720 0.41200
C 	C 	0.98140 0.54800 0.75610 0.06800
N 	N 	0.89460 0.08280 0.95190 -0.00600
N 	N 	0.07070 0.48770 0.54900 -0.00600
C 	C 	0.00920 0.59350 0.55300 0.10800
C 	C 	0.16170 0.06290 0.92390 -0.03600
C 	C 	0.56220 0.93690 0.74520 0.43000
C 	C 	0.89320 0.79240 0.56000 0.01300
H 	H 	0.85410 0.86110 0.56370 0.06300
C 	C 	0.30900 0.92660 0.74030 0.44700
C 	C 	0.83820 0.61610 0.84180 0.07500
H 	H 	0.78890 0.63860 0.87160 -0.00500
C 	C 	0.01770 0.53430 0.80570 -0.01500
H 	H 	0.09060 0.50220 0.81020 0.07500
C 	C 	0.20010 0.98620 0.72260 -0.11600
C 	C 	0.68890 0.68240 0.78250 0.43900
C 	C 	0.99890 0.09090 0.68910 -0.02600
H 	H 	0.92990 0.12720 0.67840 0.07900
C 	C 	0.68020 0.09310 0.67830 -0.03000
C 	C 	0.07950 0.03900 0.92880 -0.05100
H 	H 	0.08940 0.97580 0.91950 0.09400
C 	C 	0.59440 0.01760 0.73550 -0.08400
C 	C 	0.05460 0.65270 0.53450 -0.04800
H 	H 	0.12480 0.62500 0.51960 0.08700
C 	C 	0.73950 0.09370 0.62610 0.30100
C 	C 	0.90540 0.63210 0.57330 -0.04800
H 	H 	0.87530 0.59010 0.58500 0.08800
C 	C 	0.38700 0.45760 0.75220 0.10000
C 	C 	0.26870 0.98860 0.90250 0.29400
C 	C 	0.98230 0.55110 0.90280 0.44500
C 	C 	0.65590 0.16560 0.71530 -0.06000
H 	H 	0.67410 0.21760 0.70820 0.09900
C 	C 	0.02020 0.09570 0.74050 0.07400
C 	C 	0.02990 0.32600 0.97170 0.42900
C 	C 	0.40010 0.59040 0.79150 -0.08600
C 	C 	0.08010 0.03200 0.65310 -0.10500
N 	N 	0.57890 0.23620 0.80260 -0.00800
C 	C 	0.80390 0.63040 0.79150 -0.12700
C 	C 	0.11900 0.04370 0.75820 -0.01600
H 	H 	0.13080 0.04740 0.79410 0.07400
C 	C 	0.35190 0.43200 0.79990 -0.05600
H 	H 	0.33630 0.37790 0.80240 0.10000
C 	C 	0.60410 0.16040 0.76320 0.10300
C 	C 	0.99570 0.75350 0.53820 -0.07000
C 	C 	0.73120 0.77940 0.59500 0.34000
O 	O 	0.03390 0.53640 0.66690 -0.03100
O 	O 	0.85190 0.21470 0.75950 -0.02500
O 	O 	0.80590 0.15080 0.95860 -0.03700
H 	H 	0.72230 0.97560 0.47520 0.19300
O 	O 	0.02350 0.50600 0.66680 -0.06600
O 	O 	0.90780 0.01190 0.92510 -0.04500
O 	O 	0.81560 0.13470 0.98020 -0.07300
O 	O 	0.04100 0.83600 0.17740 -0.03400
O 	O 	0.15650 0.81020 0.23370 -0.07000
