data_crystal

_cell_length_a 13.69080
_cell_length_b 13.69080
_cell_length_c 16.31700
_cell_angle_alpha 67.02190
_cell_angle_beta  67.02190
_cell_angle_gamma 75.69340

_symmetry_space_group_name_	'P 1'
_symmetry_space_group_name_H-M	'P 1'

loop_
_symmetry_equiv_pos_as_xyz
  x,y,z

loop_
_atom_site_label
_atom_site_type_symbol
_atom_site_fract_x
_atom_site_fract_y
_atom_site_fract_z
_atom_site_charge
Gd	Gd	0.16769 0.45449 0.99786 1.47500
Gd	Gd	0.54551 0.83231 0.50214 1.49300
Gd	Gd	0.83231 0.54551 0.00214 1.47400
Gd	Gd	0.45449 0.16769 0.49786 1.49200
H 	H 	0.08190 0.34550 0.56440 0.10400
H 	H 	0.08240 0.12780 0.15110 0.07100
H 	H 	0.22520 0.33840 0.74320 0.05800
H 	H 	0.91180 0.45400 0.78550 0.06600
H 	H 	0.65450 0.91810 0.93560 0.10400
H 	H 	0.87220 0.91760 0.34890 0.07400
H 	H 	0.66160 0.77480 0.75680 0.05800
H 	H 	0.54600 0.08820 0.71450 0.06600
H 	H 	0.91810 0.65450 0.43560 0.10400
H 	H 	0.91760 0.87220 0.84890 0.07100
H 	H 	0.77480 0.66160 0.25680 0.05800
H 	H 	0.08820 0.54600 0.21450 0.06600
H 	H 	0.34550 0.08190 0.06440 0.10400
H 	H 	0.12780 0.08240 0.65110 0.07400
H 	H 	0.33840 0.22520 0.24320 0.05800
H 	H 	0.45400 0.91180 0.28550 0.06600
H 	H 	0.76780 0.23220 0.25000 0.02000
H 	H 	0.23220 0.76780 0.75000 0.02000
C 	C 	0.92762 0.19686 0.18939 -0.12000
C 	C 	0.07903 0.35825 0.61855 -0.06500
C 	C 	0.95114 0.30816 0.12228 0.41100
C 	C 	0.06380 0.42832 0.85883 0.40000
C 	C 	0.01119 0.11433 0.19035 0.00200
C 	C 	0.16380 0.35536 0.72447 0.00600
C 	C 	0.06868 0.40204 0.77577 -0.08700
C 	C 	0.16905 0.33349 0.64610 -0.03300
C 	C 	0.27012 0.28154 0.59076 0.28700
C 	C 	0.97745 0.42425 0.75021 -0.03400
C 	C 	0.98526 0.40180 0.67195 0.10300
C 	C 	0.80314 0.07238 0.31061 -0.11400
C 	C 	0.64175 0.92097 0.88145 -0.06000
C 	C 	0.69184 0.04886 0.37772 0.42200
C 	C 	0.57168 0.93620 0.64117 0.41100
C 	C 	0.88567 0.98881 0.30965 -0.01300
C 	C 	0.64464 0.83620 0.77553 0.00600
C 	C 	0.59796 0.93132 0.72423 -0.08300
C 	C 	0.66651 0.83095 0.85390 -0.03200
C 	C 	0.71846 0.72988 0.90924 0.28700
C 	C 	0.57575 0.02255 0.74979 -0.04100
C 	C 	0.59820 0.01474 0.82805 0.10100
C 	C 	0.07238 0.80314 0.81061 -0.12000
C 	C 	0.92097 0.64175 0.38145 -0.06500
C 	C 	0.04886 0.69184 0.87772 0.41100
C 	C 	0.93620 0.57168 0.14117 0.40000
C 	C 	0.98881 0.88567 0.80965 0.00200
C 	C 	0.83620 0.64464 0.27553 0.00600
C 	C 	0.93132 0.59796 0.22423 -0.08700
C 	C 	0.83095 0.66651 0.35390 -0.03300
C 	C 	0.72988 0.71846 0.40924 0.28700
C 	C 	0.02255 0.57575 0.24979 -0.03400
C 	C 	0.01474 0.59820 0.32805 0.10300
C 	C 	0.19686 0.92762 0.68939 -0.11400
C 	C 	0.35825 0.07903 0.11855 -0.06000
C 	C 	0.30816 0.95114 0.62228 0.42200
C 	C 	0.42832 0.06380 0.35883 0.41100
C 	C 	0.11433 0.01119 0.69035 -0.01300
C 	C 	0.35536 0.16380 0.22447 0.00600
C 	C 	0.40204 0.06868 0.27577 -0.08300
C 	C 	0.33349 0.16905 0.14610 -0.03200
C 	C 	0.28154 0.27012 0.09076 0.28700
C 	C 	0.42425 0.97745 0.25021 -0.04100
C 	C 	0.40180 0.98526 0.17195 0.10100
C 	C 	0.82436 0.17564 0.25000 0.05700
C 	C 	0.98776 0.01224 0.25000 0.05100
C 	C 	0.17564 0.82436 0.75000 0.05700
C 	C 	0.01224 0.98776 0.75000 0.05100
N 	N 	0.88924 0.42354 0.64454 -0.00700
N 	N 	0.57646 0.11076 0.85546 -0.00700
N 	N 	0.11076 0.57646 0.35546 -0.00700
N 	N 	0.42354 0.88924 0.14454 -0.00700
N 	N 	0.07533 0.92467 0.25000 -0.00500
N 	N 	0.92467 0.07533 0.75000 -0.00500
O 	O 	0.87291 0.37549 0.10891 -0.44400
O 	O 	0.04817 0.32403 0.08513 -0.40200
O 	O 	0.14851 0.40833 0.87855 -0.41000
O 	O 	0.97533 0.46925 0.90255 -0.44000
O 	O 	0.27344 0.27362 0.51537 -0.33500
O 	O 	0.34816 0.24574 0.62219 -0.36900
O 	O 	0.16774 0.94744 0.20974 -0.09800
O 	O 	0.90142 0.42216 0.56637 -0.09900
O 	O 	0.80224 0.44234 0.70093 -0.10800
O 	O 	0.62451 0.12709 0.39109 -0.44600
O 	O 	0.67597 0.95183 0.41487 -0.41400
O 	O 	0.59167 0.85149 0.62145 -0.41300
O 	O 	0.53075 0.02467 0.59745 -0.45300
O 	O 	0.72638 0.72656 0.98463 -0.33000
O 	O 	0.75426 0.65184 0.87781 -0.36600
O 	O 	0.05256 0.83226 0.29026 -0.09700
O 	O 	0.57784 0.09858 0.93363 -0.09900
O 	O 	0.55766 0.19776 0.79907 -0.10800
O 	O 	0.12709 0.62451 0.89109 -0.44400
O 	O 	0.95183 0.67597 0.91487 -0.40200
O 	O 	0.85149 0.59167 0.12145 -0.41000
O 	O 	0.02467 0.53075 0.09745 -0.44000
O 	O 	0.72656 0.72638 0.48463 -0.33500
O 	O 	0.65184 0.75426 0.37781 -0.36900
O 	O 	0.83226 0.05256 0.79026 -0.09800
O 	O 	0.09858 0.57784 0.43363 -0.09900
O 	O 	0.19776 0.55766 0.29907 -0.10800
O 	O 	0.37549 0.87291 0.60891 -0.44600
O 	O 	0.32403 0.04817 0.58513 -0.41400
O 	O 	0.40833 0.14851 0.37855 -0.41300
O 	O 	0.46925 0.97533 0.40255 -0.45300
O 	O 	0.27362 0.27344 0.01537 -0.33000
O 	O 	0.24574 0.34816 0.12219 -0.36600
O 	O 	0.94744 0.16774 0.70974 -0.09700
O 	O 	0.42216 0.90142 0.06637 -0.09900
O 	O 	0.44234 0.80224 0.20093 -0.10800
