data_crystal

_cell_length_a 24.94270
_cell_length_b 16.94110
_cell_length_c 25.28890
_cell_angle_alpha 90.00000
_cell_angle_beta  105.20800
_cell_angle_gamma 90.00000

_symmetry_space_group_name_	'P 1'
_symmetry_space_group_name_H-M	'P 1'

loop_
_symmetry_equiv_pos_as_xyz
  x,y,z

loop_
_atom_site_label
_atom_site_type_symbol
_atom_site_fract_x
_atom_site_fract_y
_atom_site_fract_z
_atom_site_charge
Gd	Gd	0.21815 0.81764 0.05243 1.48600
Gd	Gd	0.40874 0.89948 0.73810 1.53500
O 	O 	0.12362 0.87620 0.04171 -0.32700
O 	O 	0.15039 0.77540 0.09801 -0.38200
O 	O 	0.33782 0.98250 0.76081 -0.38200
O 	O 	0.21363 0.91370 0.98139 -0.38500
O 	O 	0.25176 0.81279 0.94939 -0.47000
O 	O 	0.15152 0.75220 0.98077 -0.40500
O 	O 	0.02815 0.67870 0.20631 -0.47300
O 	O 	0.93665 0.68800 0.17329 -0.42700
O 	O 	0.04795 0.48780 0.80633 -0.46800
O 	O 	0.36959 0.88450 0.81797 -0.35600
O 	O 	0.95884 0.49070 0.80647 -0.40900
C 	C 	0.23784 0.88400 0.94798 0.38400
C 	C 	0.14579 0.69440 0.94862 0.41500
C 	C 	0.11400 0.82460 0.07382 0.28900
N 	N 	0.91930 0.91290 0.03420 -0.01300
C 	C 	0.33840 0.94300 0.80330 0.29900
N 	N 	0.94243 0.71380 0.93270 -0.01000
N 	N 	0.23400 0.15080 0.86750 -0.01100
C 	C 	0.00790 0.51420 0.82176 0.44400
C 	C 	0.98550 0.70520 0.17340 0.43800
C 	C 	0.07501 0.60650 0.88527 0.05500
H 	H 	0.10440 0.58220 0.87380 0.02200
C 	C 	0.05740 0.82160 0.08420 -0.03200
C 	C 	0.02076 0.58050 0.86333 -0.11300
C 	C 	0.08733 0.66770 0.92389 -0.10600
C 	C 	0.97722 0.61470 0.87972 -0.02400
H 	H 	0.94010 0.59670 0.86570 0.07600
C 	C 	0.25198 0.93880 0.90645 -0.06800
C 	C 	0.95220 0.81140 0.10240 -0.04900
H 	H 	0.91600 0.80780 0.10780 0.08900
C 	C 	0.99500 0.76280 0.13125 -0.08500
C 	C 	0.30050 0.96780 0.83780 -0.03700
C 	C 	0.04310 0.70350 0.93980 -0.02500
H 	H 	0.04960 0.74550 0.96560 0.07900
C 	C 	0.98950 0.67580 0.91700 0.07300
C 	C 	0.23220 0.01570 0.90260 -0.06400
H 	H 	0.20770 0.03260 0.92350 0.10100
C 	C 	0.28690 0.91490 0.87457 0.00000
H 	H 	0.30140 0.86270 0.87780 0.04600
C 	C 	0.24880 0.06680 0.86780 0.10200
C 	C 	0.28120 0.04400 0.83380 -0.07100
H 	H 	0.28990 0.08000 0.80840 0.08800
C 	C 	0.01590 0.87170 0.05640 -0.07000
H 	H 	0.02280 0.90980 0.03140 0.10500
C 	C 	0.96390 0.86480 0.06590 0.11000
C 	C 	0.04704 0.76690 0.12154 0.00800
H 	H 	0.07580 0.73240 0.14040 0.05800
O 	O 	0.18388 0.65770 0.93514 -0.43900
O 	O 	0.92800 0.95570 0.99770 -0.09200
O 	O 	0.87370 0.90810 0.04350 -0.09700
O 	O 	0.25390 0.19740 0.84160 -0.11900
O 	O 	0.89530 0.68780 0.91360 -0.09600
O 	O 	0.95270 0.78000 0.95770 -0.06500
O 	O 	0.20100 0.17020 0.89350 -0.10700
O 	O 	0.54890 0.74470 0.02730 -0.03500
Gd	Gd	0.71815 0.31764 0.05243 1.49000
Gd	Gd	0.90874 0.39948 0.73810 1.53600
O 	O 	0.62362 0.37620 0.04171 -0.32600
O 	O 	0.65039 0.27540 0.09801 -0.38100
O 	O 	0.83782 0.48250 0.76081 -0.38300
O 	O 	0.71363 0.41370 0.98139 -0.38700
O 	O 	0.75176 0.31279 0.94939 -0.47000
O 	O 	0.65152 0.25220 0.98077 -0.40600
O 	O 	0.52815 0.17870 0.20631 -0.47300
O 	O 	0.43665 0.18800 0.17329 -0.42700
O 	O 	0.54795 0.98780 0.80633 -0.46600
O 	O 	0.86959 0.38450 0.81797 -0.35700
O 	O 	0.45884 0.99070 0.80647 -0.40700
C 	C 	0.73784 0.38400 0.94798 0.38500
C 	C 	0.64579 0.19440 0.94862 0.41500
C 	C 	0.61400 0.32460 0.07382 0.28900
N 	N 	0.41930 0.41290 0.03420 -0.01200
C 	C 	0.83840 0.44300 0.80330 0.30000
N 	N 	0.44243 0.21380 0.93270 -0.01000
N 	N 	0.73400 0.65080 0.86750 -0.01000
C 	C 	0.50790 0.01420 0.82176 0.44100
C 	C 	0.48550 0.20520 0.17340 0.43800
C 	C 	0.57501 0.10650 0.88527 0.05500
H 	H 	0.60440 0.08220 0.87380 0.02200
C 	C 	0.55740 0.32160 0.08420 -0.03100
C 	C 	0.52076 0.08050 0.86333 -0.11200
C 	C 	0.58733 0.16770 0.92389 -0.10700
C 	C 	0.47722 0.11470 0.87972 -0.02400
H 	H 	0.44010 0.09670 0.86570 0.07600
C 	C 	0.75198 0.43880 0.90645 -0.07200
C 	C 	0.45220 0.31140 0.10240 -0.04900
H 	H 	0.41600 0.30780 0.10780 0.08900
C 	C 	0.49500 0.26280 0.13125 -0.08400
C 	C 	0.80050 0.46780 0.83780 -0.04000
C 	C 	0.54310 0.20350 0.93980 -0.02500
H 	H 	0.54960 0.24550 0.96560 0.07800
C 	C 	0.48950 0.17580 0.91700 0.07200
C 	C 	0.73220 0.51570 0.90260 -0.05900
H 	H 	0.70770 0.53260 0.92350 0.10000
C 	C 	0.78690 0.41490 0.87457 0.00300
H 	H 	0.80140 0.36270 0.87780 0.04500
C 	C 	0.74880 0.56680 0.86780 0.10000
C 	C 	0.78120 0.54400 0.83380 -0.06700
H 	H 	0.78990 0.58000 0.80840 0.08700
C 	C 	0.51590 0.37170 0.05640 -0.07000
H 	H 	0.52280 0.40980 0.03140 0.10600
C 	C 	0.46390 0.36480 0.06590 0.11100
C 	C 	0.54704 0.26690 0.12154 0.00700
H 	H 	0.57580 0.23240 0.14040 0.05900
O 	O 	0.68388 0.15770 0.93514 -0.43900
O 	O 	0.42800 0.45570 0.99770 -0.09400
O 	O 	0.37370 0.40810 0.04350 -0.09600
O 	O 	0.75390 0.69740 0.84160 -0.11800
O 	O 	0.39530 0.18780 0.91360 -0.09700
O 	O 	0.45270 0.28000 0.95770 -0.06300
O 	O 	0.70100 0.67020 0.89350 -0.10700
O 	O 	0.04890 0.24470 0.02730 -0.03200
Gd	Gd	0.78185 0.81764 0.44757 1.48900
Gd	Gd	0.59126 0.89948 0.76190 1.53600
O 	O 	0.87638 0.87620 0.45829 -0.32600
O 	O 	0.84961 0.77540 0.40199 -0.38100
O 	O 	0.66218 0.98250 0.73919 -0.38200
O 	O 	0.78637 0.91370 0.51861 -0.38600
O 	O 	0.74824 0.81279 0.55061 -0.47000
O 	O 	0.84848 0.75220 0.51923 -0.40500
O 	O 	0.97185 0.67870 0.29369 -0.47300
O 	O 	0.06335 0.68800 0.32671 -0.42700
O 	O 	0.95205 0.48780 0.69367 -0.46800
O 	O 	0.63041 0.88450 0.68203 -0.35700
O 	O 	0.04116 0.49070 0.69353 -0.40900
C 	C 	0.76216 0.88400 0.55202 0.38500
C 	C 	0.85421 0.69440 0.55138 0.41500
C 	C 	0.88600 0.82460 0.42618 0.28900
N 	N 	0.08070 0.91290 0.46580 -0.01200
C 	C 	0.66160 0.94300 0.69670 0.29900
N 	N 	0.05757 0.71380 0.56730 -0.01000
N 	N 	0.76600 0.15080 0.63250 -0.01000
C 	C 	0.99210 0.51420 0.67824 0.44400
C 	C 	0.01450 0.70520 0.32660 0.43800
C 	C 	0.92499 0.60650 0.61473 0.05500
H 	H 	0.89560 0.58220 0.62620 0.02200
C 	C 	0.94260 0.82160 0.41580 -0.03100
C 	C 	0.97924 0.58050 0.63667 -0.11300
C 	C 	0.91267 0.66770 0.57611 -0.10700
C 	C 	0.02278 0.61470 0.62028 -0.02400
H 	H 	0.05990 0.59670 0.63430 0.07600
C 	C 	0.74802 0.93880 0.59355 -0.07100
C 	C 	0.04780 0.81140 0.39760 -0.04900
H 	H 	0.08400 0.80780 0.39220 0.08900
C 	C 	0.00500 0.76280 0.36875 -0.08400
C 	C 	0.69950 0.96780 0.66220 -0.03900
C 	C 	0.95690 0.70350 0.56020 -0.02500
H 	H 	0.95040 0.74550 0.53440 0.07800
C 	C 	0.01050 0.67580 0.58300 0.07200
C 	C 	0.76780 0.01570 0.59740 -0.06000
H 	H 	0.79230 0.03260 0.57650 0.10100
C 	C 	0.71310 0.91490 0.62543 0.00200
H 	H 	0.69860 0.86270 0.62220 0.04600
C 	C 	0.75120 0.06680 0.63220 0.10100
C 	C 	0.71880 0.04400 0.66620 -0.06800
H 	H 	0.71010 0.08000 0.69160 0.08700
C 	C 	0.98410 0.87170 0.44360 -0.07100
H 	H 	0.97720 0.90980 0.46860 0.10600
C 	C 	0.03610 0.86480 0.43410 0.11100
C 	C 	0.95296 0.76690 0.37846 0.00700
H 	H 	0.92420 0.73240 0.35960 0.05900
O 	O 	0.81612 0.65770 0.56486 -0.43900
O 	O 	0.07200 0.95570 0.50230 -0.09300
O 	O 	0.12630 0.90810 0.45650 -0.09600
O 	O 	0.74610 0.19740 0.65840 -0.11900
O 	O 	0.10470 0.68780 0.58640 -0.09600
O 	O 	0.04730 0.78000 0.54230 -0.06500
O 	O 	0.79900 0.17020 0.60650 -0.10700
O 	O 	0.45110 0.74470 0.47270 -0.03200
Gd	Gd	0.28185 0.31764 0.44757 1.48900
Gd	Gd	0.09126 0.39948 0.76190 1.53600
O 	O 	0.37638 0.37620 0.45829 -0.32600
O 	O 	0.34961 0.27540 0.40199 -0.38100
O 	O 	0.16218 0.48250 0.73919 -0.38300
O 	O 	0.28637 0.41370 0.51861 -0.38600
O 	O 	0.24824 0.31279 0.55061 -0.47000
O 	O 	0.34848 0.25220 0.51923 -0.40500
O 	O 	0.47185 0.17870 0.29369 -0.47300
O 	O 	0.56335 0.18800 0.32671 -0.42700
O 	O 	0.45205 0.98780 0.69367 -0.46700
O 	O 	0.13041 0.38450 0.68203 -0.35700
O 	O 	0.54116 0.99070 0.69353 -0.40800
C 	C 	0.26216 0.38400 0.55202 0.38500
C 	C 	0.35421 0.19440 0.55138 0.41500
C 	C 	0.38600 0.32460 0.42618 0.28900
N 	N 	0.58070 0.41290 0.46580 -0.01200
C 	C 	0.16160 0.44300 0.69670 0.30000
N 	N 	0.55757 0.21380 0.56730 -0.01000
N 	N 	0.26600 0.65080 0.63250 -0.01000
C 	C 	0.49210 0.01420 0.67824 0.44200
C 	C 	0.51450 0.20520 0.32660 0.43800
C 	C 	0.42499 0.10650 0.61473 0.05500
H 	H 	0.39560 0.08220 0.62620 0.02200
C 	C 	0.44260 0.32160 0.41580 -0.03100
C 	C 	0.47924 0.08050 0.63667 -0.11200
C 	C 	0.41267 0.16770 0.57611 -0.10700
C 	C 	0.52278 0.11470 0.62028 -0.02400
H 	H 	0.55990 0.09670 0.63430 0.07600
C 	C 	0.24802 0.43880 0.59355 -0.07200
C 	C 	0.54780 0.31140 0.39760 -0.04900
H 	H 	0.58400 0.30780 0.39220 0.08900
C 	C 	0.50500 0.26280 0.36875 -0.08400
C 	C 	0.19950 0.46780 0.66220 -0.04000
C 	C 	0.45690 0.20350 0.56020 -0.02500
H 	H 	0.45040 0.24550 0.53440 0.07800
C 	C 	0.51050 0.17580 0.58300 0.07300
C 	C 	0.26780 0.51570 0.59740 -0.05900
H 	H 	0.29230 0.53260 0.57650 0.10000
C 	C 	0.21310 0.41490 0.62543 0.00300
H 	H 	0.19860 0.36270 0.62220 0.04500
C 	C 	0.25120 0.56680 0.63220 0.10000
C 	C 	0.21880 0.54400 0.66620 -0.06600
H 	H 	0.21010 0.58000 0.69160 0.08700
C 	C 	0.48410 0.37170 0.44360 -0.07100
H 	H 	0.47720 0.40980 0.46860 0.10600
C 	C 	0.53610 0.36480 0.43410 0.11100
C 	C 	0.45296 0.26690 0.37846 0.00700
H 	H 	0.42420 0.23240 0.35960 0.05900
O 	O 	0.31612 0.15770 0.56486 -0.43900
O 	O 	0.57200 0.45570 0.50230 -0.09300
O 	O 	0.62630 0.40810 0.45650 -0.09600
O 	O 	0.24610 0.69740 0.65840 -0.11800
O 	O 	0.60470 0.18780 0.58640 -0.09600
O 	O 	0.54730 0.28000 0.54230 -0.06500
O 	O 	0.29900 0.67020 0.60650 -0.10700
O 	O 	0.95110 0.24470 0.47270 -0.03200
Gd	Gd	0.78185 0.18236 0.94757 1.48700
Gd	Gd	0.59126 0.10052 0.26190 1.53600
O 	O 	0.87638 0.12380 0.95829 -0.32700
O 	O 	0.84961 0.22460 0.90199 -0.38200
O 	O 	0.66218 0.01750 0.23919 -0.38200
O 	O 	0.78637 0.08630 0.01861 -0.38500
O 	O 	0.74824 0.18721 0.05061 -0.47000
O 	O 	0.84848 0.24780 0.01923 -0.40500
O 	O 	0.97185 0.32130 0.79369 -0.47300
O 	O 	0.06335 0.31200 0.82671 -0.42700
O 	O 	0.95205 0.51220 0.19367 -0.46800
O 	O 	0.63041 0.11550 0.18203 -0.35600
O 	O 	0.04116 0.50930 0.19353 -0.40900
C 	C 	0.76216 0.11600 0.05202 0.38400
C 	C 	0.85421 0.30560 0.05138 0.41500
C 	C 	0.88600 0.17540 0.92618 0.28900
N 	N 	0.08070 0.08710 0.96580 -0.01300
C 	C 	0.66160 0.05700 0.19670 0.29900
N 	N 	0.05757 0.28620 0.06730 -0.01000
N 	N 	0.76600 0.84920 0.13250 -0.01100
C 	C 	0.99210 0.48580 0.17824 0.44400
C 	C 	0.01450 0.29480 0.82660 0.43800
C 	C 	0.92499 0.39350 0.11473 0.05500
H 	H 	0.89560 0.41780 0.12620 0.02200
C 	C 	0.94260 0.17840 0.91580 -0.03200
C 	C 	0.97924 0.41950 0.13667 -0.11300
C 	C 	0.91267 0.33230 0.07611 -0.10600
C 	C 	0.02278 0.38530 0.12028 -0.02400
H 	H 	0.05990 0.40330 0.13430 0.07600
C 	C 	0.74802 0.06120 0.09355 -0.06800
C 	C 	0.04780 0.18860 0.89760 -0.04900
H 	H 	0.08400 0.19220 0.89220 0.08900
C 	C 	0.00500 0.23720 0.86875 -0.08500
C 	C 	0.69950 0.03220 0.16220 -0.03700
C 	C 	0.95690 0.29650 0.06020 -0.02500
H 	H 	0.95040 0.25450 0.03440 0.07900
C 	C 	0.01050 0.32420 0.08300 0.07300
C 	C 	0.76780 0.98430 0.09740 -0.06400
H 	H 	0.79230 0.96740 0.07650 0.10100
C 	C 	0.71310 0.08510 0.12543 0.00000
H 	H 	0.69860 0.13730 0.12220 0.04600
C 	C 	0.75120 0.93320 0.13220 0.10200
C 	C 	0.71880 0.95600 0.16620 -0.07100
H 	H 	0.71010 0.92000 0.19160 0.08800
C 	C 	0.98410 0.12830 0.94360 -0.07000
H 	H 	0.97720 0.09020 0.96860 0.10500
C 	C 	0.03610 0.13520 0.93410 0.11000
C 	C 	0.95296 0.23310 0.87846 0.00800
H 	H 	0.92420 0.26760 0.85960 0.05800
O 	O 	0.81612 0.34230 0.06486 -0.43900
O 	O 	0.07200 0.04430 0.00230 -0.09200
O 	O 	0.12630 0.09190 0.95650 -0.09700
O 	O 	0.74610 0.80260 0.15840 -0.11900
O 	O 	0.10470 0.31220 0.08640 -0.09600
O 	O 	0.04730 0.22000 0.04230 -0.06500
O 	O 	0.79900 0.82980 0.10650 -0.10700
O 	O 	0.45110 0.25530 0.97270 -0.03500
Gd	Gd	0.28185 0.68236 0.94757 1.49000
Gd	Gd	0.09126 0.60052 0.26190 1.53600
O 	O 	0.37638 0.62380 0.95829 -0.32600
O 	O 	0.34961 0.72460 0.90199 -0.38100
O 	O 	0.16218 0.51750 0.23919 -0.38300
O 	O 	0.28637 0.58630 0.01861 -0.38700
O 	O 	0.24824 0.68721 0.05061 -0.47000
O 	O 	0.34848 0.74780 0.01923 -0.40600
O 	O 	0.47185 0.82130 0.79369 -0.47300
O 	O 	0.56335 0.81200 0.82671 -0.42700
O 	O 	0.45205 0.01220 0.19367 -0.46600
O 	O 	0.13041 0.61550 0.18203 -0.35700
O 	O 	0.54116 0.00930 0.19353 -0.40700
C 	C 	0.26216 0.61600 0.05202 0.38500
C 	C 	0.35421 0.80560 0.05138 0.41500
C 	C 	0.38600 0.67540 0.92618 0.28900
N 	N 	0.58070 0.58710 0.96580 -0.01200
C 	C 	0.16160 0.55700 0.19670 0.30000
N 	N 	0.55757 0.78620 0.06730 -0.01000
N 	N 	0.26600 0.34920 0.13250 -0.01000
C 	C 	0.49210 0.98580 0.17824 0.44100
C 	C 	0.51450 0.79480 0.82660 0.43800
C 	C 	0.42499 0.89350 0.11473 0.05500
H 	H 	0.39560 0.91780 0.12620 0.02200
C 	C 	0.44260 0.67840 0.91580 -0.03100
C 	C 	0.47924 0.91950 0.13667 -0.11200
C 	C 	0.41267 0.83230 0.07611 -0.10700
C 	C 	0.52278 0.88530 0.12028 -0.02400
H 	H 	0.55990 0.90330 0.13430 0.07600
C 	C 	0.24802 0.56120 0.09355 -0.07200
C 	C 	0.54780 0.68860 0.89760 -0.04900
H 	H 	0.58400 0.69220 0.89220 0.08900
C 	C 	0.50500 0.73720 0.86875 -0.08400
C 	C 	0.19950 0.53220 0.16220 -0.04000
C 	C 	0.45690 0.79650 0.06020 -0.02500
H 	H 	0.45040 0.75450 0.03440 0.07800
C 	C 	0.51050 0.82420 0.08300 0.07200
C 	C 	0.26780 0.48430 0.09740 -0.05900
H 	H 	0.29230 0.46740 0.07650 0.10000
C 	C 	0.21310 0.58510 0.12543 0.00300
H 	H 	0.19860 0.63730 0.12220 0.04500
C 	C 	0.25120 0.43320 0.13220 0.10000
C 	C 	0.21880 0.45600 0.16620 -0.06700
H 	H 	0.21010 0.42000 0.19160 0.08700
C 	C 	0.48410 0.62830 0.94360 -0.07000
H 	H 	0.47720 0.59020 0.96860 0.10600
C 	C 	0.53610 0.63520 0.93410 0.11100
C 	C 	0.45296 0.73310 0.87846 0.00700
H 	H 	0.42420 0.76760 0.85960 0.05900
O 	O 	0.31612 0.84230 0.06486 -0.43900
O 	O 	0.57200 0.54430 0.00230 -0.09400
O 	O 	0.62630 0.59190 0.95650 -0.09600
O 	O 	0.24610 0.30260 0.15840 -0.11800
O 	O 	0.60470 0.81220 0.08640 -0.09700
O 	O 	0.54730 0.72000 0.04230 -0.06300
O 	O 	0.29900 0.32980 0.10650 -0.10700
O 	O 	0.95110 0.75530 0.97270 -0.03200
Gd	Gd	0.21815 0.18236 0.55243 1.48900
Gd	Gd	0.40874 0.10052 0.23810 1.53600
O 	O 	0.12362 0.12380 0.54171 -0.32600
O 	O 	0.15039 0.22460 0.59801 -0.38100
O 	O 	0.33782 0.01750 0.26081 -0.38200
O 	O 	0.21363 0.08630 0.48139 -0.38600
O 	O 	0.25176 0.18721 0.44939 -0.47000
O 	O 	0.15152 0.24780 0.48077 -0.40500
O 	O 	0.02815 0.32130 0.70631 -0.47300
O 	O 	0.93665 0.31200 0.67329 -0.42700
O 	O 	0.04795 0.51220 0.30633 -0.46800
O 	O 	0.36959 0.11550 0.31797 -0.35700
O 	O 	0.95884 0.50930 0.30647 -0.40900
C 	C 	0.23784 0.11600 0.44798 0.38500
C 	C 	0.14579 0.30560 0.44862 0.41500
C 	C 	0.11400 0.17540 0.57382 0.28900
N 	N 	0.91930 0.08710 0.53420 -0.01200
C 	C 	0.33840 0.05700 0.30330 0.29900
N 	N 	0.94243 0.28620 0.43270 -0.01000
N 	N 	0.23400 0.84920 0.36750 -0.01000
C 	C 	0.00790 0.48580 0.32176 0.44400
C 	C 	0.98550 0.29480 0.67340 0.43800
C 	C 	0.07501 0.39350 0.38527 0.05500
H 	H 	0.10440 0.41780 0.37380 0.02200
C 	C 	0.05740 0.17840 0.58420 -0.03100
C 	C 	0.02076 0.41950 0.36333 -0.11300
C 	C 	0.08733 0.33230 0.42389 -0.10700
C 	C 	0.97722 0.38530 0.37972 -0.02400
H 	H 	0.94010 0.40330 0.36570 0.07600
C 	C 	0.25198 0.06120 0.40645 -0.07100
C 	C 	0.95220 0.18860 0.60240 -0.04900
H 	H 	0.91600 0.19220 0.60780 0.08900
C 	C 	0.99500 0.23720 0.63125 -0.08400
C 	C 	0.30050 0.03220 0.33780 -0.03900
C 	C 	0.04310 0.29650 0.43980 -0.02500
H 	H 	0.04960 0.25450 0.46560 0.07800
C 	C 	0.98950 0.32420 0.41700 0.07200
C 	C 	0.23220 0.98430 0.40260 -0.06000
H 	H 	0.20770 0.96740 0.42350 0.10100
C 	C 	0.28690 0.08510 0.37457 0.00200
H 	H 	0.30140 0.13730 0.37780 0.04600
C 	C 	0.24880 0.93320 0.36780 0.10100
C 	C 	0.28120 0.95600 0.33380 -0.06800
H 	H 	0.28990 0.92000 0.30840 0.08700
C 	C 	0.01590 0.12830 0.55640 -0.07100
H 	H 	0.02280 0.09020 0.53140 0.10600
C 	C 	0.96390 0.13520 0.56590 0.11100
C 	C 	0.04704 0.23310 0.62154 0.00700
H 	H 	0.07580 0.26760 0.64040 0.05900
O 	O 	0.18388 0.34230 0.43514 -0.43900
O 	O 	0.92800 0.04430 0.49770 -0.09300
O 	O 	0.87370 0.09190 0.54350 -0.09600
O 	O 	0.25390 0.80260 0.34160 -0.11900
O 	O 	0.89530 0.31220 0.41360 -0.09600
O 	O 	0.95270 0.22000 0.45770 -0.06500
O 	O 	0.20100 0.82980 0.39350 -0.10700
O 	O 	0.54890 0.25530 0.52730 -0.03200
Gd	Gd	0.71815 0.68236 0.55243 1.48900
Gd	Gd	0.90874 0.60052 0.23810 1.53600
O 	O 	0.62362 0.62380 0.54171 -0.32600
O 	O 	0.65039 0.72460 0.59801 -0.38100
O 	O 	0.83782 0.51750 0.26081 -0.38300
O 	O 	0.71363 0.58630 0.48139 -0.38600
O 	O 	0.75176 0.68721 0.44939 -0.47000
O 	O 	0.65152 0.74780 0.48077 -0.40500
O 	O 	0.52815 0.82130 0.70631 -0.47300
O 	O 	0.43665 0.81200 0.67329 -0.42700
O 	O 	0.54795 0.01220 0.30633 -0.46700
O 	O 	0.86959 0.61550 0.31797 -0.35700
O 	O 	0.45884 0.00930 0.30647 -0.40800
C 	C 	0.73784 0.61600 0.44798 0.38500
C 	C 	0.64579 0.80560 0.44862 0.41500
C 	C 	0.61400 0.67540 0.57382 0.28900
N 	N 	0.41930 0.58710 0.53420 -0.01200
C 	C 	0.83840 0.55700 0.30330 0.30000
N 	N 	0.44243 0.78620 0.43270 -0.01000
N 	N 	0.73400 0.34920 0.36750 -0.01000
C 	C 	0.50790 0.98580 0.32176 0.44200
C 	C 	0.48550 0.79480 0.67340 0.43800
C 	C 	0.57501 0.89350 0.38527 0.05500
H 	H 	0.60440 0.91780 0.37380 0.02200
C 	C 	0.55740 0.67840 0.58420 -0.03100
C 	C 	0.52076 0.91950 0.36333 -0.11200
C 	C 	0.58733 0.83230 0.42389 -0.10700
C 	C 	0.47722 0.88530 0.37972 -0.02400
H 	H 	0.44010 0.90330 0.36570 0.07600
C 	C 	0.75198 0.56120 0.40645 -0.07200
C 	C 	0.45220 0.68860 0.60240 -0.04900
H 	H 	0.41600 0.69220 0.60780 0.08900
C 	C 	0.49500 0.73720 0.63125 -0.08400
C 	C 	0.80050 0.53220 0.33780 -0.04000
C 	C 	0.54310 0.79650 0.43980 -0.02500
H 	H 	0.54960 0.75450 0.46560 0.07800
C 	C 	0.48950 0.82420 0.41700 0.07300
C 	C 	0.73220 0.48430 0.40260 -0.05900
H 	H 	0.70770 0.46740 0.42350 0.10000
C 	C 	0.78690 0.58510 0.37457 0.00300
H 	H 	0.80140 0.63730 0.37780 0.04500
C 	C 	0.74880 0.43320 0.36780 0.10000
C 	C 	0.78120 0.45600 0.33380 -0.06600
H 	H 	0.78990 0.42000 0.30840 0.08700
C 	C 	0.51590 0.62830 0.55640 -0.07100
H 	H 	0.52280 0.59020 0.53140 0.10600
C 	C 	0.46390 0.63520 0.56590 0.11100
C 	C 	0.54704 0.73310 0.62154 0.00700
H 	H 	0.57580 0.76760 0.64040 0.05900
O 	O 	0.68388 0.84230 0.43514 -0.43900
O 	O 	0.42800 0.54430 0.49770 -0.09300
O 	O 	0.37370 0.59190 0.54350 -0.09600
O 	O 	0.75390 0.30260 0.34160 -0.11800
O 	O 	0.39530 0.81220 0.41360 -0.09600
O 	O 	0.45270 0.72000 0.45770 -0.06500
O 	O 	0.70100 0.32980 0.39350 -0.10700
O 	O 	0.04890 0.75530 0.52730 -0.03200
