data_crystal

_cell_length_a 14.11530
_cell_length_b 8.85050
_cell_length_c 13.57040
_cell_angle_alpha 90.00000
_cell_angle_beta  111.76100
_cell_angle_gamma 90.00000

_symmetry_space_group_name_	'P 1'
_symmetry_space_group_name_H-M	'P 1'

loop_
_symmetry_equiv_pos_as_xyz
  x,y,z

loop_
_atom_site_label
_atom_site_type_symbol
_atom_site_fract_x
_atom_site_fract_y
_atom_site_fract_z
_atom_site_charge
O 	O 	0.41853 0.64860 0.64040 -0.39300
O 	O 	0.31430 0.45350 0.58780 -0.27200
O 	O 	0.34800 0.46570 0.36480 -0.29000
O 	O 	0.44049 0.64250 0.32532 -0.41400
C 	C 	0.33690 0.58460 0.57440 0.28500
C 	C 	0.37420 0.59700 0.36450 0.40000
C 	C 	0.27000 0.67940 0.48010 -0.02200
H 	H 	0.21110 0.61800 0.43780 0.06200
C 	C 	0.32860 0.72470 0.40900 -0.33500
H 	H 	0.28270 0.78230 0.34960 0.15500
H 	H 	0.38360 0.79180 0.44940 0.16600
O 	O 	0.91853 0.14860 0.64040 -0.31400
O 	O 	0.81430 0.95350 0.58780 -0.22900
O 	O 	0.84800 0.96570 0.36480 -0.24900
O 	O 	0.94049 0.14250 0.32532 -0.33200
C 	C 	0.83690 0.08460 0.57440 0.27700
C 	C 	0.87420 0.09700 0.36450 0.40700
C 	C 	0.77000 0.17940 0.48010 -0.01200
H 	H 	0.71110 0.11800 0.43780 0.07500
C 	C 	0.82860 0.22470 0.40900 -0.34200
H 	H 	0.78270 0.28230 0.34960 0.16900
H 	H 	0.88360 0.29180 0.44940 0.19600
O 	O 	0.58147 0.64860 0.85960 -0.39100
O 	O 	0.68570 0.45350 0.91220 -0.25200
O 	O 	0.65200 0.46570 0.13520 -0.27300
O 	O 	0.55951 0.64250 0.17468 -0.41200
C 	C 	0.66310 0.58460 0.92560 0.27600
C 	C 	0.62580 0.59700 0.13550 0.40500
C 	C 	0.73000 0.67940 0.01990 -0.01400
H 	H 	0.78890 0.61800 0.06220 0.09200
C 	C 	0.67140 0.72470 0.09100 -0.33500
H 	H 	0.71730 0.78230 0.15040 0.16600
H 	H 	0.61640 0.79180 0.05060 0.16800
O 	O 	0.08147 0.14860 0.85960 -0.44800
O 	O 	0.18570 0.95350 0.91220 -0.28100
O 	O 	0.15200 0.96570 0.13520 -0.31300
O 	O 	0.05951 0.14250 0.17468 -0.47500
C 	C 	0.16310 0.08460 0.92560 0.27400
C 	C 	0.12580 0.09700 0.13550 0.40400
C 	C 	0.23000 0.17940 0.01990 -0.00900
H 	H 	0.28890 0.11800 0.06220 0.07700
C 	C 	0.17140 0.22470 0.09100 -0.33600
H 	H 	0.21730 0.28230 0.15040 0.15400
H 	H 	0.11640 0.29180 0.05060 0.14200
O 	O 	0.58147 0.35140 0.35960 -0.39100
O 	O 	0.68570 0.54650 0.41220 -0.25100
O 	O 	0.65200 0.53430 0.63520 -0.27500
O 	O 	0.55951 0.35750 0.67468 -0.41300
C 	C 	0.66310 0.41540 0.42560 0.29200
C 	C 	0.62580 0.40300 0.63550 0.39900
C 	C 	0.73000 0.32060 0.51990 -0.04400
H 	H 	0.78890 0.38200 0.56220 0.09800
C 	C 	0.67140 0.27530 0.59100 -0.32100
H 	H 	0.71730 0.21770 0.65040 0.16100
H 	H 	0.61640 0.20820 0.55060 0.16200
O 	O 	0.08147 0.85140 0.35960 -0.45000
O 	O 	0.18570 0.04650 0.41220 -0.28500
O 	O 	0.15200 0.03430 0.63520 -0.31200
O 	O 	0.05951 0.85750 0.67468 -0.47500
C 	C 	0.16310 0.91540 0.42560 0.29800
C 	C 	0.12580 0.90300 0.63550 0.39200
C 	C 	0.23000 0.82060 0.51990 -0.05200
H 	H 	0.28890 0.88200 0.56220 0.08500
C 	C 	0.17140 0.77530 0.59100 -0.31400
H 	H 	0.21730 0.71770 0.65040 0.14700
H 	H 	0.11640 0.70820 0.55060 0.13200
O 	O 	0.41853 0.35140 0.14040 -0.39300
O 	O 	0.31430 0.54650 0.08780 -0.27300
O 	O 	0.34800 0.53430 0.86480 -0.29000
O 	O 	0.44049 0.35750 0.82532 -0.41500
C 	C 	0.33690 0.41540 0.07440 0.30600
C 	C 	0.37420 0.40300 0.86450 0.39200
C 	C 	0.27000 0.32060 0.98010 -0.06400
H 	H 	0.21110 0.38200 0.93780 0.07100
C 	C 	0.32860 0.27530 0.90900 -0.31500
H 	H 	0.28270 0.21770 0.84960 0.14800
H 	H 	0.38360 0.20820 0.94940 0.15600
O 	O 	0.91853 0.85140 0.14040 -0.31400
O 	O 	0.81430 0.04650 0.08780 -0.22600
O 	O 	0.84800 0.03430 0.86480 -0.25100
O 	O 	0.94049 0.85750 0.82532 -0.33300
C 	C 	0.83690 0.91540 0.07440 0.28700
C 	C 	0.87420 0.90300 0.86450 0.40000
C 	C 	0.77000 0.82060 0.98010 -0.04200
H 	H 	0.71110 0.88200 0.93780 0.08000
C 	C 	0.82860 0.77530 0.90900 -0.32700
H 	H 	0.78270 0.71770 0.84960 0.16300
H 	H 	0.88360 0.70820 0.94940 0.18800
Zn	Zn	0.50000 0.50029 0.75000 1.24100
Zn	Zn	0.00000 0.00029 0.75000 1.19000
Zn	Zn	0.50000 0.49971 0.25000 1.24100
Zn	Zn	-0.00000 0.99971 0.25000 1.19000
