data_crystal

_cell_length_a 15.27700
_cell_length_b 15.27700
_cell_length_c 15.77600
_cell_angle_alpha 90.00000
_cell_angle_beta  90.00000
_cell_angle_gamma 120.00000

_symmetry_space_group_name_	'P 1'
_symmetry_space_group_name_H-M	'P 1'

loop_
_symmetry_equiv_pos_as_xyz
  x,y,z

loop_
_atom_site_label
_atom_site_type_symbol
_atom_site_fract_x
_atom_site_fract_y
_atom_site_fract_z
_atom_site_charge
Dy	Dy	0.33333 0.66666 0.75000 1.79700
Dy	Dy	0.66667 0.33334 0.75000 1.79700
Dy	Dy	0.66667 0.33334 0.25000 1.77900
Dy	Dy	0.33333 0.66666 0.25000 1.77900
Mn	Mn	0.50000 0.00000 -0.00000 1.18900
Mn	Mn	0.50000 0.50000 -0.00000 1.22500
Mn	Mn	-0.00000 0.50000 -0.00000 1.19000
Mn	Mn	0.50000 0.00000 0.50000 1.25500
Mn	Mn	0.00000 0.50000 0.50000 1.25500
Mn	Mn	0.50000 0.50000 0.50000 1.29200
H 	H 	0.71080 0.94380 0.84440 0.09600
H 	H 	0.23300 0.28920 0.84440 0.06100
H 	H 	0.05620 0.76700 0.84440 0.05400
H 	H 	0.28920 0.05620 0.84440 0.04500
H 	H 	0.76700 0.71080 0.84440 0.08000
H 	H 	0.94380 0.23300 0.84440 0.08700
H 	H 	0.76700 0.05620 0.65560 0.03100
H 	H 	0.94380 0.71080 0.65560 0.07400
H 	H 	0.28920 0.23300 0.65560 0.03800
H 	H 	0.23300 0.94380 0.65560 0.06500
H 	H 	0.05620 0.28920 0.65560 0.02200
H 	H 	0.71080 0.76700 0.65560 0.05800
H 	H 	0.28920 0.05620 0.15560 -0.00300
H 	H 	0.76700 0.71080 0.15560 0.03300
H 	H 	0.94380 0.23300 0.15560 0.04200
H 	H 	0.71080 0.94380 0.15560 0.05100
H 	H 	0.23300 0.28920 0.15560 0.01400
H 	H 	0.05620 0.76700 0.15560 0.00700
H 	H 	0.23300 0.94380 0.34440 0.06200
H 	H 	0.05620 0.28920 0.34440 0.01800
H 	H 	0.71080 0.76700 0.34440 0.05400
H 	H 	0.76700 0.05620 0.34440 0.02800
H 	H 	0.94380 0.71080 0.34440 0.07100
H 	H 	0.28920 0.23300 0.34440 0.03500
H 	H 	0.79990 0.89995 0.75000 0.07300
H 	H 	0.10005 0.20010 0.75000 0.01600
H 	H 	0.10005 0.89995 0.75000 0.04400
H 	H 	0.20010 0.10005 0.75000 0.01600
H 	H 	0.89995 0.79990 0.75000 0.07300
H 	H 	0.89995 0.10005 0.75000 0.04400
H 	H 	0.20010 0.10005 0.25000 0.00900
H 	H 	0.89995 0.79990 0.25000 0.06700
H 	H 	0.89995 0.10005 0.25000 0.03800
H 	H 	0.79990 0.89995 0.25000 0.06700
H 	H 	0.10005 0.20010 0.25000 0.00900
H 	H 	0.10005 0.89995 0.25000 0.03800
C 	C 	0.50577 0.86245 0.85897 0.38000
C 	C 	0.57177 0.83865 0.80277 -0.00600
C 	C 	0.67670 0.89153 0.80576 -0.02200
C 	C 	0.35668 0.49423 0.85897 0.38200
C 	C 	0.26688 0.42823 0.80277 -0.02600
C 	C 	0.21483 0.32330 0.80576 -0.03400
C 	C 	0.13755 0.64332 0.85897 0.38400
C 	C 	0.16135 0.73312 0.80277 -0.02800
C 	C 	0.10847 0.78517 0.80576 -0.02900
C 	C 	0.49423 0.13755 0.85897 0.38300
C 	C 	0.42823 0.16135 0.80277 -0.03400
C 	C 	0.32330 0.10847 0.80576 -0.03400
C 	C 	0.64332 0.50577 0.85897 0.38400
C 	C 	0.73312 0.57177 0.80277 -0.01400
C 	C 	0.78517 0.67670 0.80576 -0.02200
C 	C 	0.86245 0.35668 0.85897 0.37900
C 	C 	0.83865 0.26688 0.80277 -0.01200
C 	C 	0.89153 0.21483 0.80576 -0.02800
C 	C 	0.64332 0.13755 0.64103 0.39400
C 	C 	0.73312 0.16135 0.69723 -0.04400
C 	C 	0.78517 0.10847 0.69424 -0.02600
C 	C 	0.86245 0.50577 0.64103 0.38900
C 	C 	0.83865 0.57177 0.69723 -0.02100
C 	C 	0.89153 0.67670 0.69424 -0.02000
C 	C 	0.49423 0.35668 0.64103 0.39200
C 	C 	0.42823 0.26688 0.69723 -0.04300
C 	C 	0.32330 0.21483 0.69424 -0.03100
C 	C 	0.35668 0.86245 0.64103 0.38800
C 	C 	0.26688 0.83865 0.69723 -0.02700
C 	C 	0.21483 0.89153 0.69424 -0.02600
C 	C 	0.13755 0.49423 0.64103 0.39300
C 	C 	0.16135 0.42823 0.69723 -0.05000
C 	C 	0.10847 0.32330 0.69424 -0.03200
C 	C 	0.50577 0.64332 0.64103 0.39300
C 	C 	0.57177 0.73312 0.69723 -0.03000
C 	C 	0.67670 0.78517 0.69424 -0.02000
C 	C 	0.49423 0.13755 0.14103 0.39700
C 	C 	0.42823 0.16135 0.19723 -0.07200
C 	C 	0.32330 0.10847 0.19424 -0.02300
C 	C 	0.64332 0.50577 0.14103 0.39800
C 	C 	0.73312 0.57177 0.19723 -0.05100
C 	C 	0.78517 0.67670 0.19424 -0.01000
C 	C 	0.86245 0.35668 0.14103 0.39200
C 	C 	0.83865 0.26688 0.19723 -0.04800
C 	C 	0.89153 0.21483 0.19424 -0.01600
C 	C 	0.50577 0.86245 0.14103 0.39300
C 	C 	0.57177 0.83865 0.19723 -0.04200
C 	C 	0.67670 0.89153 0.19424 -0.01000
C 	C 	0.35668 0.49423 0.14103 0.39600
C 	C 	0.26688 0.42823 0.19723 -0.06400
C 	C 	0.21483 0.32330 0.19424 -0.02200
C 	C 	0.13755 0.64332 0.14103 0.39800
C 	C 	0.16135 0.73312 0.19723 -0.06500
C 	C 	0.10847 0.78517 0.19424 -0.01700
C 	C 	0.35668 0.86245 0.35897 0.38900
C 	C 	0.26688 0.83865 0.30277 -0.03500
C 	C 	0.21483 0.89153 0.30576 -0.01700
C 	C 	0.13755 0.49423 0.35897 0.39400
C 	C 	0.16135 0.42823 0.30277 -0.05900
C 	C 	0.10847 0.32330 0.30576 -0.02400
C 	C 	0.50577 0.64332 0.35897 0.39500
C 	C 	0.57177 0.73312 0.30277 -0.03800
C 	C 	0.67670 0.78517 0.30576 -0.01100
C 	C 	0.64332 0.13755 0.35897 0.39500
C 	C 	0.73312 0.16135 0.30277 -0.05200
C 	C 	0.78517 0.10847 0.30576 -0.01800
C 	C 	0.86245 0.50577 0.35897 0.39000
C 	C 	0.83865 0.57177 0.30277 -0.02900
C 	C 	0.89153 0.67670 0.30576 -0.01100
C 	C 	0.49423 0.35668 0.35897 0.39300
C 	C 	0.42823 0.26688 0.30277 -0.05100
C 	C 	0.32330 0.21483 0.30576 -0.02300
C 	C 	0.72956 0.86478 0.75000 -0.02400
C 	C 	0.13522 0.27044 0.75000 -0.04800
C 	C 	0.13522 0.86479 0.75000 -0.03600
C 	C 	0.27043 0.13521 0.75000 -0.04800
C 	C 	0.86478 0.72956 0.75000 -0.02400
C 	C 	0.86478 0.13522 0.75000 -0.03600
C 	C 	0.27043 0.13521 0.25000 -0.07200
C 	C 	0.86478 0.72956 0.25000 -0.04800
C 	C 	0.86478 0.13522 0.25000 -0.05900
C 	C 	0.72956 0.86478 0.25000 -0.04800
C 	C 	0.13522 0.27044 0.25000 -0.07200
C 	C 	0.13522 0.86479 0.25000 -0.05900
N 	N 	0.51997 0.75999 0.75000 -0.18000
N 	N 	0.24002 0.48004 0.75000 -0.18100
N 	N 	0.24002 0.75999 0.75000 -0.18000
N 	N 	0.48003 0.24001 0.75000 -0.18000
N 	N 	0.75998 0.51996 0.75000 -0.18000
N 	N 	0.75998 0.24001 0.75000 -0.18000
N 	N 	0.48003 0.24001 0.25000 -0.17600
N 	N 	0.75998 0.51996 0.25000 -0.17600
N 	N 	0.75998 0.24001 0.25000 -0.17600
N 	N 	0.51997 0.75999 0.25000 -0.17600
N 	N 	0.24002 0.48004 0.25000 -0.17600
N 	N 	0.24002 0.75999 0.25000 -0.17600
O 	O 	0.54973 0.93568 0.90625 -0.34600
O 	O 	0.41351 0.80139 0.85452 -0.40000
O 	O 	0.38595 0.45027 0.90625 -0.39100
O 	O 	0.38788 0.58649 0.85452 -0.41500
O 	O 	0.06432 0.61405 0.90625 -0.41500
O 	O 	0.19861 0.61212 0.85452 -0.42300
O 	O 	0.45027 0.06432 0.90625 -0.41800
O 	O 	0.58649 0.19861 0.85452 -0.42400
O 	O 	0.61405 0.54973 0.90625 -0.38400
O 	O 	0.61212 0.41351 0.85452 -0.41300
O 	O 	0.93568 0.38595 0.90625 -0.34900
O 	O 	0.80139 0.38788 0.85452 -0.40100
O 	O 	0.61405 0.06432 0.59375 -0.48500
O 	O 	0.61212 0.19861 0.64548 -0.45700
O 	O 	0.93568 0.54973 0.59375 -0.41400
O 	O 	0.80139 0.41351 0.64548 -0.43400
O 	O 	0.45027 0.38595 0.59375 -0.46200
O 	O 	0.58649 0.38788 0.64548 -0.44800
O 	O 	0.38595 0.93568 0.59375 -0.41700
O 	O 	0.38788 0.80139 0.64548 -0.43500
O 	O 	0.06432 0.45027 0.59375 -0.48800
O 	O 	0.19861 0.58649 0.64548 -0.45800
O 	O 	0.54973 0.61405 0.59375 -0.45400
O 	O 	0.41351 0.61212 0.64548 -0.44600
O 	O 	0.45027 0.06432 0.09375 -0.53200
O 	O 	0.58649 0.19861 0.14548 -0.48200
O 	O 	0.61405 0.54973 0.09375 -0.49800
O 	O 	0.61212 0.41351 0.14548 -0.47100
O 	O 	0.93568 0.38595 0.09375 -0.46000
O 	O 	0.80139 0.38788 0.14548 -0.45800
O 	O 	0.54973 0.93568 0.09375 -0.45600
O 	O 	0.41351 0.80139 0.14548 -0.45700
O 	O 	0.38595 0.45027 0.09375 -0.50600
O 	O 	0.38788 0.58649 0.14548 -0.47300
O 	O 	0.06432 0.61405 0.09375 -0.52800
O 	O 	0.19861 0.61212 0.14548 -0.48100
O 	O 	0.38595 0.93568 0.40625 -0.41700
O 	O 	0.38788 0.80139 0.35452 -0.43300
O 	O 	0.06432 0.45027 0.40625 -0.48900
O 	O 	0.19861 0.58649 0.35452 -0.45600
O 	O 	0.54973 0.61405 0.40625 -0.45400
O 	O 	0.41351 0.61212 0.35452 -0.44500
O 	O 	0.61405 0.06432 0.40625 -0.48500
O 	O 	0.61212 0.19861 0.35452 -0.45500
O 	O 	0.93568 0.54973 0.40625 -0.41400
O 	O 	0.80139 0.41351 0.35452 -0.43200
O 	O 	0.45027 0.38595 0.40625 -0.46200
O 	O 	0.58649 0.38788 0.35452 -0.44700
