data_crystal

_cell_length_a 10.43070
_cell_length_b 19.62280
_cell_length_c 12.78670
_cell_angle_alpha 90.00000
_cell_angle_beta  90.00000
_cell_angle_gamma 90.00000

_symmetry_space_group_name_	'P 1'
_symmetry_space_group_name_H-M	'P 1'

loop_
_symmetry_equiv_pos_as_xyz
  x,y,z

loop_
_atom_site_label
_atom_site_type_symbol
_atom_site_fract_x
_atom_site_fract_y
_atom_site_fract_z
_atom_site_charge
Ag	Ag	0.14245 0.46479 0.67302 0.47200
Ag	Ag	0.85755 0.03521 0.67302 0.48000
Ag	Ag	0.64245 0.03521 0.82698 0.47500
Ag	Ag	0.35755 0.46479 0.82698 0.47700
Ag	Ag	0.25000 0.33366 0.25000 0.46900
Ag	Ag	0.75000 0.16634 0.25000 0.47600
Ag	Ag	0.00000 0.75000 0.82958 0.45300
Ag	Ag	0.50000 0.75000 0.67042 0.46700
H 	H 	0.21720 0.30020 0.64780 -0.00800
H 	H 	0.24960 0.24490 0.47630 -0.01100
H 	H 	0.19130 0.46130 0.33420 0.11900
H 	H 	0.25270 0.49720 0.43470 0.13500
H 	H 	0.10090 0.48660 0.42750 0.10200
H 	H 	0.98850 0.61260 0.97860 0.04200
H 	H 	0.04110 0.49690 0.91580 -0.01500
H 	H 	0.10300 0.68670 0.64530 0.11600
H 	H 	0.06090 0.61680 0.59080 0.13200
H 	H 	0.20540 0.62680 0.63010 0.14500
H 	H 	0.78280 0.19980 0.64780 -0.00300
H 	H 	0.75040 0.25510 0.47630 -0.01000
H 	H 	0.80870 0.03870 0.33420 0.13600
H 	H 	0.74730 0.00280 0.43470 0.14500
H 	H 	0.89910 0.01340 0.42750 0.12600
H 	H 	0.01150 0.88740 0.97860 -0.03400
H 	H 	0.95890 0.00310 0.91580 0.00900
H 	H 	0.89700 0.81330 0.64530 0.13700
H 	H 	0.93910 0.88320 0.59080 0.15800
H 	H 	0.79460 0.87320 0.63010 0.15600
H 	H 	0.71720 0.19980 0.85220 -0.00300
H 	H 	0.74960 0.25510 0.02370 -0.00900
H 	H 	0.69130 0.03870 0.16580 0.13100
H 	H 	0.75270 0.00280 0.06530 0.14500
H 	H 	0.60090 0.01340 0.07250 0.11600
H 	H 	0.48850 0.88740 0.52140 0.00500
H 	H 	0.54110 0.00310 0.58420 -0.00300
H 	H 	0.60300 0.81330 0.85470 0.12600
H 	H 	0.56090 0.88320 0.90920 0.14500
H 	H 	0.70540 0.87320 0.86990 0.15100
H 	H 	0.28280 0.30020 0.85220 -0.00700
H 	H 	0.25040 0.24490 0.02370 -0.01200
H 	H 	0.30870 0.46130 0.16580 0.12400
H 	H 	0.24730 0.49720 0.06530 0.13500
H 	H 	0.39910 0.48660 0.07250 0.11300
H 	H 	0.51150 0.61260 0.52140 0.00300
H 	H 	0.45890 0.49690 0.58420 0.00100
H 	H 	0.39700 0.68670 0.85470 0.12500
H 	H 	0.43910 0.61680 0.90920 0.14400
H 	H 	0.29460 0.62680 0.86990 0.15000
C 	C 	0.19770 0.39925 0.46180 0.17900
C 	C 	0.21460 0.32227 0.58170 -0.02000
C 	C 	0.23260 0.29186 0.48740 -0.03300
C 	C 	0.18450 0.46685 0.41010 -0.49900
C 	C 	0.07970 0.60866 0.74923 0.17100
C 	C 	0.01830 0.60121 0.91060 -0.08400
C 	C 	0.04680 0.53768 0.87590 -0.01400
C 	C 	0.11530 0.63716 0.64490 -0.52200
C 	C 	0.80230 0.10075 0.46180 0.19700
C 	C 	0.78540 0.17773 0.58170 -0.01600
C 	C 	0.76740 0.20814 0.48740 -0.02800
C 	C 	0.81550 0.03315 0.41010 -0.52700
C 	C 	0.92030 0.89134 0.74923 0.19000
C 	C 	0.98170 0.89879 0.91060 0.03500
C 	C 	0.95320 0.96232 0.87590 -0.05000
C 	C 	0.88470 0.86284 0.64490 -0.55200
C 	C 	0.69770 0.10075 0.03820 0.19300
C 	C 	0.71460 0.17773 0.91830 -0.01900
C 	C 	0.73260 0.20814 0.01260 -0.02700
C 	C 	0.68450 0.03315 0.08990 -0.51900
C 	C 	0.57970 0.89134 0.75077 0.18000
C 	C 	0.51830 0.89879 0.58940 -0.02600
C 	C 	0.54680 0.96232 0.62410 -0.03100
C 	C 	0.61530 0.86284 0.85510 -0.53700
C 	C 	0.30230 0.39925 0.03820 0.18600
C 	C 	0.28540 0.32227 0.91830 -0.02000
C 	C 	0.26740 0.29186 0.01260 -0.03100
C 	C 	0.31550 0.46685 0.08990 -0.50900
C 	C 	0.42030 0.60866 0.75077 0.18000
C 	C 	0.48170 0.60121 0.58940 -0.02300
C 	C 	0.45320 0.53768 0.62410 -0.03800
C 	C 	0.38470 0.63716 0.85510 -0.53600
N 	N 	0.22190 0.34073 0.41080 -0.23400
N 	N 	0.19200 0.39046 0.56543 -0.23400
N 	N 	0.08560 0.54228 0.77320 -0.24200
N 	N 	0.03990 0.64661 0.82979 -0.23500
N 	N 	0.77810 0.15927 0.41080 -0.23200
N 	N 	0.80800 0.10954 0.56543 -0.23300
N 	N 	0.91440 0.95772 0.77320 -0.23200
N 	N 	0.96010 0.85339 0.82979 -0.24300
N 	N 	0.72190 0.15927 0.08920 -0.23200
N 	N 	0.69200 0.10954 0.93457 -0.23500
N 	N 	0.58560 0.95772 0.72680 -0.23600
N 	N 	0.53990 0.85339 0.67021 -0.24100
N 	N 	0.27810 0.34073 0.08920 -0.23400
N 	N 	0.30800 0.39046 0.93457 -0.23400
N 	N 	0.41440 0.54228 0.72680 -0.23600
N 	N 	0.46010 0.64661 0.67021 -0.24200
Ag	Ag	0.85755 0.53521 0.32698 0.48100
Ag	Ag	0.14245 0.96479 0.32698 0.47100
Ag	Ag	0.35755 0.96479 0.17302 0.47600
Ag	Ag	0.64245 0.53521 0.17302 0.47600
Ag	Ag	0.75000 0.66634 0.75000 0.47600
Ag	Ag	0.25000 0.83366 0.75000 0.46800
Ag	Ag	-0.00000 0.25000 0.17042 0.45400
Ag	Ag	0.50000 0.25000 0.32958 0.46700
H 	H 	0.78280 0.69980 0.35220 -0.00300
H 	H 	0.75040 0.75510 0.52370 -0.00900
H 	H 	0.80870 0.53870 0.66580 0.13700
H 	H 	0.74730 0.50280 0.56530 0.14600
H 	H 	0.89910 0.51340 0.57250 0.12800
H 	H 	0.01150 0.38740 0.02140 -0.03400
H 	H 	0.95890 0.50310 0.08420 0.01700
H 	H 	0.89700 0.31330 0.35470 0.13600
H 	H 	0.93910 0.38320 0.40920 0.15600
H 	H 	0.79460 0.37320 0.36990 0.15500
H 	H 	0.21720 0.80020 0.35220 -0.00800
H 	H 	0.24960 0.74490 0.52370 -0.01100
H 	H 	0.19130 0.96130 0.66580 0.11900
H 	H 	0.25270 0.99720 0.56530 0.13600
H 	H 	0.10090 0.98660 0.57250 0.10200
H 	H 	0.98850 0.11260 0.02140 0.04000
H 	H 	0.04110 0.99690 0.08420 -0.01600
H 	H 	0.10300 0.18670 0.35470 0.11700
H 	H 	0.06090 0.11680 0.40920 0.13300
H 	H 	0.20540 0.12680 0.36990 0.14500
H 	H 	0.28280 0.80020 0.14780 -0.00700
H 	H 	0.25040 0.74490 0.97630 -0.01300
H 	H 	0.30870 0.96130 0.83420 0.12600
H 	H 	0.24730 0.99720 0.93470 0.13700
H 	H 	0.39910 0.98660 0.92750 0.11500
H 	H 	0.51150 0.11260 0.47860 0.00200
H 	H 	0.45890 0.99690 0.41580 0.00400
H 	H 	0.39700 0.18670 0.14530 0.12500
H 	H 	0.43910 0.11680 0.09080 0.14300
H 	H 	0.29460 0.12680 0.13010 0.15000
H 	H 	0.71720 0.69980 0.14780 -0.00300
H 	H 	0.74960 0.75510 0.97630 -0.00800
H 	H 	0.69130 0.53870 0.83420 0.13200
H 	H 	0.75270 0.50280 0.93470 0.14600
H 	H 	0.60090 0.51340 0.92750 0.11600
H 	H 	0.48850 0.38740 0.47860 0.00300
H 	H 	0.54110 0.50310 0.41580 0.00100
H 	H 	0.60300 0.31330 0.14530 0.12600
H 	H 	0.56090 0.38320 0.09080 0.14500
H 	H 	0.70540 0.37320 0.13010 0.15100
C 	C 	0.80230 0.60075 0.53820 0.19800
C 	C 	0.78540 0.67773 0.41830 -0.01600
C 	C 	0.76740 0.70814 0.51260 -0.02800
C 	C 	0.81550 0.53315 0.58990 -0.53000
C 	C 	0.92030 0.39134 0.25077 0.18900
C 	C 	0.98170 0.39879 0.08940 0.03700
C 	C 	0.95320 0.46232 0.12410 -0.06100
C 	C 	0.88470 0.36284 0.35510 -0.55000
C 	C 	0.19770 0.89925 0.53820 0.17900
C 	C 	0.21460 0.82227 0.41830 -0.02000
C 	C 	0.23260 0.79186 0.51260 -0.03300
C 	C 	0.18450 0.96685 0.58990 -0.50000
C 	C 	0.07970 0.10866 0.25077 0.17100
C 	C 	0.01830 0.10121 0.08940 -0.08100
C 	C 	0.04680 0.03768 0.12410 -0.01300
C 	C 	0.11530 0.13716 0.35510 -0.52300
C 	C 	0.30230 0.89925 0.96180 0.18700
C 	C 	0.28540 0.82227 0.08170 -0.02100
C 	C 	0.26740 0.79186 0.98740 -0.03100
C 	C 	0.31550 0.96685 0.91010 -0.51200
C 	C 	0.42030 0.10866 0.24923 0.18000
C 	C 	0.48170 0.10121 0.41060 -0.02100
C 	C 	0.45320 0.03768 0.37590 -0.04200
C 	C 	0.38470 0.13716 0.14490 -0.53600
C 	C 	0.69770 0.60075 0.96180 0.19200
C 	C 	0.71460 0.67773 0.08170 -0.01800
C 	C 	0.73260 0.70814 0.98740 -0.02800
C 	C 	0.68450 0.53315 0.91010 -0.52000
C 	C 	0.57970 0.39134 0.24923 0.18000
C 	C 	0.51830 0.39879 0.41060 -0.02300
C 	C 	0.54680 0.46232 0.37590 -0.03800
C 	C 	0.61530 0.36284 0.14490 -0.53700
N 	N 	0.77810 0.65927 0.58920 -0.23200
N 	N 	0.80800 0.60954 0.43457 -0.23300
N 	N 	0.91440 0.45772 0.22680 -0.23100
N 	N 	0.96010 0.35339 0.17021 -0.24400
N 	N 	0.22190 0.84073 0.58920 -0.23400
N 	N 	0.19200 0.89046 0.43457 -0.23400
N 	N 	0.08560 0.04228 0.22680 -0.24200
N 	N 	0.03990 0.14661 0.17021 -0.23600
N 	N 	0.27810 0.84073 0.91080 -0.23500
N 	N 	0.30800 0.89046 0.06543 -0.23400
N 	N 	0.41440 0.04228 0.27320 -0.23600
N 	N 	0.46010 0.14661 0.32979 -0.24200
N 	N 	0.72190 0.65927 0.91080 -0.23200
N 	N 	0.69200 0.60954 0.06543 -0.23400
N 	N 	0.58560 0.45772 0.27320 -0.23700
N 	N 	0.53990 0.35339 0.32979 -0.24200
