data_crystal

_cell_length_a 11.11370
_cell_length_b 12.68360
_cell_length_c 19.72600
_cell_angle_alpha 90.00000
_cell_angle_beta  90.00000
_cell_angle_gamma 101.83500

_symmetry_space_group_name_	'P 1'
_symmetry_space_group_name_H-M	'P 1'

loop_
_symmetry_equiv_pos_as_xyz
  x,y,z

loop_
_atom_site_label
_atom_site_type_symbol
_atom_site_fract_x
_atom_site_fract_y
_atom_site_fract_z
_atom_site_charge
Ag	Ag	0.64230 0.65442 0.04760 0.47000
Ag	Ag	0.76515 0.24512 0.16705 0.47100
Ag	Ag	0.85890 0.84004 0.02988 0.47100
Ag	Ag	0.48587 0.76418 0.76511 0.46700
Ag	Ag	0.85770 0.34558 0.54760 0.47000
Ag	Ag	0.73485 0.75488 0.66705 0.47100
Ag	Ag	0.64110 0.15996 0.52988 0.47200
Ag	Ag	0.01413 0.23582 0.26511 0.46700
Ag	Ag	0.35770 0.34558 0.95240 0.47100
Ag	Ag	0.23485 0.75488 0.83295 0.47200
Ag	Ag	0.14110 0.15996 0.97012 0.47200
Ag	Ag	0.51413 0.23582 0.23489 0.46800
Ag	Ag	0.14230 0.65442 0.45240 0.47100
Ag	Ag	0.26515 0.24512 0.33295 0.47200
Ag	Ag	0.35890 0.84004 0.47012 0.47300
Ag	Ag	0.98587 0.76418 0.73489 0.46800
H 	H 	0.68370 0.62410 0.21350 -0.00300
H 	H 	0.73200 0.45910 0.26290 -0.00100
H 	H 	0.70950 0.45980 0.00320 0.13100
H 	H 	0.80860 0.39410 0.02990 0.14900
H 	H 	0.66500 0.34150 0.03400 0.14600
H 	H 	0.80050 0.02450 0.25570 -0.01400
H 	H 	0.84430 0.86210 0.20040 -0.00200
H 	H 	0.77010 0.15770 0.03760 0.13300
H 	H 	0.86680 0.09230 0.00760 0.12200
H 	H 	0.72290 0.04050 0.00580 0.14300
H 	H 	0.44930 0.61550 0.52410 -0.00700
H 	H 	0.48790 0.58360 0.64540 0.00000
H 	H 	0.34920 0.93650 0.59420 0.12900
H 	H 	0.44130 0.94960 0.65740 0.14400
H 	H 	0.30100 0.88930 0.66680 0.13700
H 	H 	0.53850 0.88010 0.01460 -0.00300
H 	H 	0.48380 0.92840 0.89840 -0.00100
H 	H 	0.60020 0.61390 0.82850 0.12800
H 	H 	0.55930 0.55420 0.89880 0.12900
H 	H 	0.69800 0.61780 0.88850 0.14700
H 	H 	0.81630 0.37590 0.71350 -0.00300
H 	H 	0.76800 0.54090 0.76290 -0.00100
H 	H 	0.79050 0.54020 0.50320 0.13100
H 	H 	0.69140 0.60590 0.52990 0.14900
H 	H 	0.83500 0.65850 0.53400 0.14600
H 	H 	0.69950 0.97550 0.75570 -0.01300
H 	H 	0.65570 0.13790 0.70040 -0.00300
H 	H 	0.72990 0.84230 0.53760 0.13200
H 	H 	0.63320 0.90770 0.50760 0.12000
H 	H 	0.77710 0.95950 0.50580 0.14100
H 	H 	0.05070 0.38450 0.02410 -0.00700
H 	H 	0.01210 0.41640 0.14540 0.00100
H 	H 	0.15080 0.06350 0.09420 0.12900
H 	H 	0.05870 0.05040 0.15740 0.14400
H 	H 	0.19900 0.11070 0.16680 0.13700
H 	H 	0.96150 0.11990 0.51460 0.00000
H 	H 	0.01620 0.07160 0.39840 -0.00400
H 	H 	0.89980 0.38610 0.32850 0.12800
H 	H 	0.94070 0.44580 0.39880 0.12900
H 	H 	0.80200 0.38220 0.38850 0.14700
H 	H 	0.31630 0.37590 0.78650 -0.00300
H 	H 	0.26800 0.54090 0.73710 -0.00100
H 	H 	0.29050 0.54020 0.99680 0.13100
H 	H 	0.19140 0.60590 0.97010 0.14900
H 	H 	0.33500 0.65850 0.96600 0.14600
H 	H 	0.19950 0.97550 0.74430 -0.01400
H 	H 	0.15570 0.13790 0.79960 -0.00200
H 	H 	0.22990 0.84230 0.96240 0.13300
H 	H 	0.13320 0.90770 0.99240 0.12200
H 	H 	0.27710 0.95950 0.99420 0.14300
H 	H 	0.55070 0.38450 0.47590 -0.00700
H 	H 	0.51210 0.41640 0.35460 0.00000
H 	H 	0.65080 0.06350 0.40580 0.12900
H 	H 	0.55870 0.05040 0.34260 0.14400
H 	H 	0.69900 0.11070 0.33320 0.13700
H 	H 	0.46150 0.11990 0.98540 -0.00300
H 	H 	0.51620 0.07160 0.10160 -0.00100
H 	H 	0.39980 0.38610 0.17150 0.12800
H 	H 	0.44070 0.44580 0.10120 0.12900
H 	H 	0.30200 0.38220 0.11150 0.14700
H 	H 	0.18370 0.62410 0.28650 -0.00300
H 	H 	0.23200 0.45910 0.23710 -0.00100
H 	H 	0.20950 0.45980 0.49680 0.13100
H 	H 	0.30860 0.39410 0.47010 0.14900
H 	H 	0.16500 0.34150 0.46600 0.14600
H 	H 	0.30050 0.02450 0.24430 -0.01300
H 	H 	0.34430 0.86210 0.29960 -0.00300
H 	H 	0.27010 0.15770 0.46240 0.13200
H 	H 	0.36680 0.09230 0.49240 0.12000
H 	H 	0.22290 0.04050 0.49420 0.14100
H 	H 	0.94930 0.61550 0.97590 -0.00700
H 	H 	0.98790 0.58360 0.85460 0.00100
H 	H 	0.84920 0.93650 0.90580 0.12900
H 	H 	0.94130 0.94960 0.84260 0.14400
H 	H 	0.80100 0.88930 0.83320 0.13700
H 	H 	0.03850 0.88010 0.48540 0.00000
H 	H 	0.98380 0.92840 0.60160 -0.00400
H 	H 	0.10020 0.61390 0.67150 0.12800
H 	H 	0.05930 0.55420 0.60120 0.12900
H 	H 	0.19800 0.61780 0.61150 0.14700
C 	C 	0.72060 0.45620 0.10650 0.19200
C 	C 	0.69800 0.56350 0.18870 -0.01800
C 	C 	0.72490 0.47300 0.21590 -0.03700
C 	C 	0.72640 0.40880 0.03740 -0.54100
C 	C 	0.79850 0.03670 0.09980 0.18900
C 	C 	0.80370 0.01320 0.20820 -0.03000
C 	C 	0.82750 0.92370 0.17780 -0.03000
C 	C 	0.78880 0.08600 0.03190 -0.51700
C 	C 	0.40520 0.79730 0.61810 0.18900
C 	C 	0.44060 0.66220 0.56060 -0.02800
C 	C 	0.46190 0.64470 0.62730 -0.04400
C 	C 	0.37130 0.90220 0.63560 -0.52500
C 	C 	0.57810 0.71740 0.90460 0.18400
C 	C 	0.54440 0.83980 0.97460 -0.03300
C 	C 	0.51450 0.86630 0.91050 -0.02800
C 	C 	0.61180 0.61720 0.87780 -0.52300
C 	C 	0.77940 0.54380 0.60650 0.19200
C 	C 	0.80200 0.43650 0.68870 -0.01800
C 	C 	0.77510 0.52700 0.71590 -0.03700
C 	C 	0.77360 0.59120 0.53740 -0.54000
C 	C 	0.70150 0.96330 0.59980 0.18600
C 	C 	0.69630 0.98680 0.70820 -0.03400
C 	C 	0.67250 0.07630 0.67780 -0.02600
C 	C 	0.71120 0.91400 0.53190 -0.51400
C 	C 	0.09480 0.20270 0.11810 0.18900
C 	C 	0.05940 0.33780 0.06060 -0.02800
C 	C 	0.03810 0.35530 0.12730 -0.04400
C 	C 	0.12870 0.09780 0.13560 -0.52500
C 	C 	0.92190 0.28260 0.40460 0.18400
C 	C 	0.95560 0.16020 0.47460 -0.03700
C 	C 	0.98550 0.13370 0.41050 -0.02400
C 	C 	0.88820 0.38280 0.37780 -0.52300
C 	C 	0.27940 0.54380 0.89350 0.19200
C 	C 	0.30200 0.43650 0.81130 -0.01800
C 	C 	0.27510 0.52700 0.78410 -0.03700
C 	C 	0.27360 0.59120 0.96260 -0.54100
C 	C 	0.20150 0.96330 0.90020 0.18900
C 	C 	0.19630 0.98680 0.79180 -0.03000
C 	C 	0.17250 0.07630 0.82220 -0.03000
C 	C 	0.21120 0.91400 0.96810 -0.51700
C 	C 	0.59480 0.20270 0.38190 0.18900
C 	C 	0.55940 0.33780 0.43940 -0.02800
C 	C 	0.53810 0.35530 0.37270 -0.04400
C 	C 	0.62870 0.09780 0.36440 -0.52500
C 	C 	0.42190 0.28260 0.09540 0.18400
C 	C 	0.45560 0.16020 0.02540 -0.03300
C 	C 	0.48550 0.13370 0.08950 -0.02800
C 	C 	0.38820 0.38280 0.12220 -0.52300
C 	C 	0.22060 0.45620 0.39350 0.19200
C 	C 	0.19800 0.56350 0.31130 -0.01800
C 	C 	0.22490 0.47300 0.28410 -0.03700
C 	C 	0.22640 0.40880 0.46260 -0.54000
C 	C 	0.29850 0.03670 0.40020 0.18600
C 	C 	0.30370 0.01320 0.29180 -0.03400
C 	C 	0.32750 0.92370 0.32220 -0.02600
C 	C 	0.28880 0.08600 0.46810 -0.51400
C 	C 	0.90520 0.79730 0.88190 0.18900
C 	C 	0.94060 0.66220 0.93940 -0.02800
C 	C 	0.96190 0.64470 0.87270 -0.04400
C 	C 	0.87130 0.90220 0.86440 -0.52500
C 	C 	0.07810 0.71740 0.59540 0.18400
C 	C 	0.04440 0.83980 0.52540 -0.03700
C 	C 	0.01450 0.86630 0.58950 -0.02400
C 	C 	0.11180 0.61720 0.62220 -0.52300
N 	N 	0.69470 0.55290 0.11890 -0.23600
N 	N 	0.74030 0.40430 0.16370 -0.23400
N 	N 	0.78500 0.08540 0.15870 -0.23400
N 	N 	0.82320 0.93750 0.10820 -0.23500
N 	N 	0.40440 0.75910 0.55540 -0.23600
N 	N 	0.43910 0.73110 0.66400 -0.23800
N 	N 	0.53580 0.78910 0.86700 -0.23700
N 	N 	0.58470 0.74450 0.97080 -0.23800
N 	N 	0.80530 0.44710 0.61890 -0.23600
N 	N 	0.75970 0.59570 0.66370 -0.23400
N 	N 	0.71500 0.91460 0.65870 -0.23300
N 	N 	0.67680 0.06250 0.60820 -0.23400
N 	N 	0.09560 0.24090 0.05540 -0.23600
N 	N 	0.06090 0.26890 0.16400 -0.23800
N 	N 	0.96420 0.21090 0.36700 -0.23700
N 	N 	0.91530 0.25550 0.47080 -0.23800
N 	N 	0.30530 0.44710 0.88110 -0.23600
N 	N 	0.25970 0.59570 0.83630 -0.23400
N 	N 	0.21500 0.91460 0.84130 -0.23400
N 	N 	0.17680 0.06250 0.89180 -0.23500
N 	N 	0.59560 0.24090 0.44460 -0.23600
N 	N 	0.56090 0.26890 0.33600 -0.23800
N 	N 	0.46420 0.21090 0.13300 -0.23700
N 	N 	0.41530 0.25550 0.02920 -0.23800
N 	N 	0.19470 0.55290 0.38110 -0.23600
N 	N 	0.24030 0.40430 0.33630 -0.23400
N 	N 	0.28500 0.08540 0.34130 -0.23300
N 	N 	0.32320 0.93750 0.39180 -0.23400
N 	N 	0.90440 0.75910 0.94460 -0.23600
N 	N 	0.93910 0.73110 0.83600 -0.23800
N 	N 	0.03580 0.78910 0.63300 -0.23700
N 	N 	0.08470 0.74450 0.52920 -0.23800
