data_crystal

_cell_length_a 9.71530
_cell_length_b 9.71530
_cell_length_c 8.20240
_cell_angle_alpha 90.00000
_cell_angle_beta  90.00000
_cell_angle_gamma 90.00000

_symmetry_space_group_name_	'P 1'
_symmetry_space_group_name_H-M	'P 1'

loop_
_symmetry_equiv_pos_as_xyz
  x,y,z

loop_
_atom_site_label
_atom_site_type_symbol
_atom_site_fract_x
_atom_site_fract_y
_atom_site_fract_z
_atom_site_charge
C 	C 	0.58490 0.51640 0.62650 0.00100
H 	H 	0.64240 0.52520 0.71650 -0.00200
C 	C 	0.91510 0.98360 0.62650 0.00100
H 	H 	0.85760 0.97480 0.71650 -0.00200
C 	C 	0.98360 0.58490 0.62650 0.00100
H 	H 	0.97480 0.64240 0.71650 -0.00200
C 	C 	0.51640 0.91510 0.62650 0.00100
H 	H 	0.52520 0.85760 0.71650 -0.00200
C 	C 	0.91510 0.51640 0.37350 0.00200
H 	H 	0.85760 0.52520 0.28350 -0.00100
C 	C 	0.58490 0.98360 0.37350 0.00200
H 	H 	0.64240 0.97480 0.28350 -0.00100
C 	C 	0.51640 0.58490 0.37350 0.00200
H 	H 	0.52520 0.64240 0.28350 -0.00100
C 	C 	0.98360 0.91510 0.37350 0.00200
H 	H 	0.97480 0.85760 0.28350 -0.00100
C 	C 	0.41510 0.48360 0.37350 0.00200
H 	H 	0.35760 0.47480 0.28350 -0.00100
C 	C 	0.08490 0.01640 0.37350 0.00200
H 	H 	0.14240 0.02520 0.28350 -0.00100
C 	C 	0.01640 0.41510 0.37350 0.00200
H 	H 	0.02520 0.35760 0.28350 -0.00100
C 	C 	0.48360 0.08490 0.37350 0.00200
H 	H 	0.47480 0.14240 0.28350 -0.00100
C 	C 	0.08490 0.48360 0.62650 0.00200
H 	H 	0.14240 0.47480 0.71650 -0.00100
C 	C 	0.41510 0.01640 0.62650 0.00200
H 	H 	0.35760 0.02520 0.71650 -0.00100
C 	C 	0.48360 0.41510 0.62650 0.00200
H 	H 	0.47480 0.35760 0.71650 -0.00100
C 	C 	0.01640 0.08490 0.62650 0.00200
H 	H 	0.02520 0.14240 0.71650 -0.00100
Cu	Cu	0.75000 0.75000 0.50000 0.84400
Cu	Cu	0.25000 0.25000 0.50000 0.84400
N 	N 	0.60113 0.60113 0.50000 -0.21200
N 	N 	0.89887 0.89887 0.50000 -0.21200
N 	N 	0.89887 0.60113 0.50000 -0.21200
N 	N 	0.60113 0.89887 0.50000 -0.21200
N 	N 	0.39887 0.39887 0.50000 -0.21200
N 	N 	0.10113 0.10113 0.50000 -0.21200
N 	N 	0.10113 0.39887 0.50000 -0.21200
N 	N 	0.39887 0.10113 0.50000 -0.21200
