data_crystal

_cell_length_a 9.71960
_cell_length_b 9.71960
_cell_length_c 16.57610
_cell_angle_alpha 90.00000
_cell_angle_beta  90.00000
_cell_angle_gamma 90.00000

_symmetry_space_group_name_	'P 1'
_symmetry_space_group_name_H-M	'P 1'

loop_
_symmetry_equiv_pos_as_xyz
  x,y,z

loop_
_atom_site_label
_atom_site_type_symbol
_atom_site_fract_x
_atom_site_fract_y
_atom_site_fract_z
_atom_site_charge
C 	C 	0.16399 0.23491 0.18746 -0.01200
H 	H 	0.10570 0.22670 0.14320 -0.03500
C 	C 	0.83601 0.76509 0.18746 0.01300
H 	H 	0.89430 0.77330 0.14320 0.04000
C 	C 	0.76509 0.16399 0.18746 -0.00000
H 	H 	0.77330 0.10570 0.14320 -0.01000
C 	C 	0.23491 0.83601 0.18746 0.00200
H 	H 	0.22670 0.89430 0.14320 0.01700
C 	C 	0.83601 0.23491 0.31254 0.00200
H 	H 	0.89430 0.22670 0.35680 0.01700
C 	C 	0.16399 0.76509 0.31254 -0.00000
H 	H 	0.10570 0.77330 0.35680 -0.01000
C 	C 	0.23491 0.16399 0.31254 -0.01200
H 	H 	0.22670 0.10570 0.35680 -0.03500
C 	C 	0.76509 0.83601 0.31254 0.01300
H 	H 	0.77330 0.89430 0.35680 0.04000
C 	C 	0.33601 0.26509 0.31254 -0.01300
H 	H 	0.39430 0.27330 0.35680 -0.00800
C 	C 	0.66399 0.73491 0.31254 0.01700
H 	H 	0.60570 0.72670 0.35680 0.00700
C 	C 	0.73491 0.33601 0.31254 0.00400
H 	H 	0.72670 0.39430 0.35680 0.00500
C 	C 	0.26509 0.66399 0.31254 0.00000
H 	H 	0.27330 0.60570 0.35680 -0.00700
C 	C 	0.66399 0.26509 0.18746 0.00000
H 	H 	0.60570 0.27330 0.14320 -0.00700
C 	C 	0.33601 0.73491 0.18746 0.00400
H 	H 	0.39430 0.72670 0.14320 0.00500
C 	C 	0.26509 0.33601 0.18746 -0.01300
H 	H 	0.27330 0.39430 0.14320 -0.00800
C 	C 	0.73491 0.66399 0.18746 0.01700
H 	H 	0.72670 0.60570 0.14320 0.00600
Cu	Cu	0.00000 0.00000 0.25000 0.75300
Cu	Cu	0.50000 0.50000 0.25000 0.84400
N 	N 	0.14916 0.14916 0.25000 -0.23900
N 	N 	0.85084 0.85084 0.25000 -0.15900
N 	N 	0.85084 0.14916 0.25000 -0.19700
N 	N 	0.14916 0.85084 0.25000 -0.19700
N 	N 	0.35084 0.35084 0.25000 -0.21200
N 	N 	0.64916 0.64916 0.25000 -0.21000
N 	N 	0.64916 0.35084 0.25000 -0.21100
N 	N 	0.35084 0.64916 0.25000 -0.21100
C 	C 	0.66399 0.73491 0.68746 0.01700
H 	H 	0.60570 0.72670 0.64320 0.00700
C 	C 	0.33601 0.26509 0.68746 -0.01300
H 	H 	0.39430 0.27330 0.64320 -0.00800
C 	C 	0.26509 0.66399 0.68746 0.00000
H 	H 	0.27330 0.60570 0.64320 -0.00700
C 	C 	0.73491 0.33601 0.68746 0.00400
H 	H 	0.72670 0.39430 0.64320 0.00500
C 	C 	0.33601 0.73491 0.81254 0.00400
H 	H 	0.39430 0.72670 0.85680 0.00500
C 	C 	0.66399 0.26509 0.81254 0.00000
H 	H 	0.60570 0.27330 0.85680 -0.00700
C 	C 	0.73491 0.66399 0.81254 0.01700
H 	H 	0.72670 0.60570 0.85680 0.00600
C 	C 	0.26509 0.33601 0.81254 -0.01300
H 	H 	0.27330 0.39430 0.85680 -0.00800
C 	C 	0.83601 0.76509 0.81254 0.01300
H 	H 	0.89430 0.77330 0.85680 0.04000
C 	C 	0.16399 0.23491 0.81254 -0.01200
H 	H 	0.10570 0.22670 0.85680 -0.03500
C 	C 	0.23491 0.83601 0.81254 0.00200
H 	H 	0.22670 0.89430 0.85680 0.01700
C 	C 	0.76509 0.16399 0.81254 -0.00000
H 	H 	0.77330 0.10570 0.85680 -0.01000
C 	C 	0.16399 0.76509 0.68746 -0.00000
H 	H 	0.10570 0.77330 0.64320 -0.01000
C 	C 	0.83601 0.23491 0.68746 0.00200
H 	H 	0.89430 0.22670 0.64320 0.01700
C 	C 	0.76509 0.83601 0.68746 0.01300
H 	H 	0.77330 0.89430 0.64320 0.04000
C 	C 	0.23491 0.16399 0.68746 -0.01200
H 	H 	0.22670 0.10570 0.64320 -0.03500
Cu	Cu	0.50000 0.50000 0.75000 0.84400
Cu	Cu	0.00000 0.00000 0.75000 0.75300
N 	N 	0.64916 0.64916 0.75000 -0.21000
N 	N 	0.35084 0.35084 0.75000 -0.21200
N 	N 	0.35084 0.64916 0.75000 -0.21100
N 	N 	0.64916 0.35084 0.75000 -0.21100
N 	N 	0.85084 0.85084 0.75000 -0.15900
N 	N 	0.14916 0.14916 0.75000 -0.23900
N 	N 	0.14916 0.85084 0.75000 -0.19700
N 	N 	0.85084 0.14916 0.75000 -0.19700
