data_crystal

_cell_length_a 11.43030
_cell_length_b 8.85460
_cell_length_c 15.60000
_cell_angle_alpha 90.00000
_cell_angle_beta  114.81000
_cell_angle_gamma 90.00000

_symmetry_space_group_name_	'P 1'
_symmetry_space_group_name_H-M	'P 1'

loop_
_symmetry_equiv_pos_as_xyz
  x,y,z

loop_
_atom_site_label
_atom_site_type_symbol
_atom_site_fract_x
_atom_site_fract_y
_atom_site_fract_z
_atom_site_charge
Ag	Ag	0.29400 0.00744 0.06683 0.41700
Ag	Ag	0.20123 0.53805 0.87973 0.46800
N 	N 	0.24260 0.21570 0.99480 -0.19500
N 	N 	0.40750 0.81350 0.05406 -0.16700
N 	N 	0.28370 0.54030 0.70890 -0.18200
N 	N 	0.09170 0.71300 0.91940 -0.18300
C 	C 	0.21440 0.32830 0.96130 -0.13800
C 	C 	0.44170 0.70430 0.03550 -0.19100
C 	C 	0.25680 0.54170 0.76400 -0.14500
C 	C 	0.05930 0.81420 0.94900 -0.12800
Ag	Ag	0.70600 0.50744 0.43317 0.48200
Ag	Ag	0.79877 0.03805 0.62027 0.45500
N 	N 	0.75740 0.71570 0.50520 -0.20400
N 	N 	0.59250 0.31350 0.44594 -0.17600
N 	N 	0.71630 0.04030 0.79110 -0.18600
N 	N 	0.90830 0.21300 0.58060 -0.17900
C 	C 	0.78560 0.82830 0.53870 -0.08400
C 	C 	0.55830 0.20430 0.46450 -0.18800
C 	C 	0.74320 0.04170 0.73600 -0.14400
C 	C 	0.94070 0.31420 0.55100 -0.13700
Ag	Ag	0.70600 0.99256 0.93317 0.53500
Ag	Ag	0.79877 0.46195 0.12027 0.46300
N 	N 	0.75740 0.78430 0.00520 -0.20600
N 	N 	0.59250 0.18650 0.94594 -0.18500
N 	N 	0.71630 0.45970 0.29110 -0.18100
N 	N 	0.90830 0.28700 0.08060 -0.17900
C 	C 	0.78560 0.67170 0.03870 -0.13100
C 	C 	0.55830 0.29570 0.96450 -0.13900
C 	C 	0.74320 0.45830 0.23600 -0.14100
C 	C 	0.94070 0.18580 0.05100 -0.17300
Ag	Ag	0.29400 0.49256 0.56683 0.47100
Ag	Ag	0.20123 0.96195 0.37973 0.47700
N 	N 	0.24260 0.28430 0.49480 -0.20300
N 	N 	0.40750 0.68650 0.55406 -0.17900
N 	N 	0.28370 0.95970 0.20890 -0.17200
N 	N 	0.09170 0.78700 0.41940 -0.17600
C 	C 	0.21440 0.17170 0.46130 -0.19100
C 	C 	0.44170 0.79570 0.53550 -0.14200
C 	C 	0.25680 0.95830 0.26400 -0.13700
C 	C 	0.05930 0.68580 0.44900 -0.19900
Ag	Ag	-0.00000 0.00000 -0.00000 0.35400
Ag	Ag	0.00000 0.50000 0.50000 0.41100
Ag	Ag	0.50000 0.50000 -0.00000 0.41500
Ag	Ag	0.50000 -0.00000 0.50000 0.41300
