data_crystal

_cell_length_a 7.86510
_cell_length_b 10.54500
_cell_length_c 11.20000
_cell_angle_alpha 90.00000
_cell_angle_beta  90.00000
_cell_angle_gamma 90.00000

_symmetry_space_group_name_	'P 1'
_symmetry_space_group_name_H-M	'P 1'

loop_
_symmetry_equiv_pos_as_xyz
  x,y,z

loop_
_atom_site_label
_atom_site_type_symbol
_atom_site_fract_x
_atom_site_fract_y
_atom_site_fract_z
_atom_site_charge
Ni	Ni	0.74308 0.21545 0.32108 1.09500
Ni	Ni	0.24308 0.78455 0.67892 1.09300
Ni	Ni	0.74308 0.71545 0.17892 1.09600
Ni	Ni	0.24308 0.28455 0.82108 1.09300
H 	H 	0.96390 0.03770 0.14440 0.03100
H 	H 	0.99590 0.42810 0.98210 0.03100
H 	H 	0.12550 0.07230 0.97950 0.06800
H 	H 	0.46390 0.96230 0.85560 0.04800
H 	H 	0.49590 0.57190 0.01790 0.02500
H 	H 	0.62550 0.92770 0.02050 0.04800
H 	H 	0.96390 0.53770 0.35560 0.03200
H 	H 	0.99590 0.92810 0.51790 0.02700
H 	H 	0.12550 0.57230 0.52050 0.06300
H 	H 	0.46390 0.46230 0.64440 0.04800
H 	H 	0.49590 0.07190 0.48210 0.02700
H 	H 	0.62550 0.42770 0.47950 0.05000
C 	C 	0.78860 0.42890 0.17300 0.35700
C 	C 	0.96920 0.11900 0.11240 0.09200
C 	C 	0.89090 0.32580 0.11220 -0.05300
C 	C 	0.99150 0.34700 0.01460 0.09100
C 	C 	0.06770 0.14020 0.01350 -0.05200
C 	C 	0.28860 0.57110 0.82700 0.35500
C 	C 	0.46920 0.88100 0.88760 0.02500
C 	C 	0.39090 0.67420 0.88780 -0.05700
C 	C 	0.49150 0.65300 0.98540 0.06800
C 	C 	0.56770 0.85980 0.98650 0.02300
C 	C 	0.78860 0.92890 0.32700 0.35700
C 	C 	0.96920 0.61900 0.38760 0.08800
C 	C 	0.89090 0.82580 0.38780 -0.05500
C 	C 	0.99150 0.84700 0.48540 0.09800
C 	C 	0.06770 0.64020 0.48650 -0.04300
C 	C 	0.28860 0.07110 0.67300 0.35600
C 	C 	0.46920 0.38100 0.61240 0.02600
C 	C 	0.39090 0.17420 0.61220 -0.05600
C 	C 	0.49150 0.15300 0.51460 0.06400
C 	C 	0.56770 0.35980 0.51350 0.02100
N 	N 	0.88200 0.21070 0.16320 -0.19400
N 	N 	0.08370 0.25460 0.96440 -0.21300
N 	N 	0.38200 0.78930 0.83680 -0.18600
N 	N 	0.58370 0.74540 0.03560 -0.21000
N 	N 	0.88200 0.71070 0.33680 -0.19300
N 	N 	0.08370 0.75460 0.53560 -0.21800
N 	N 	0.38200 0.28930 0.66320 -0.18600
N 	N 	0.58370 0.24540 0.46440 -0.20800
Cl	Cl	0.99210 0.28146 0.43893 -0.41000
Cl	Cl	0.49210 0.71854 0.56107 -0.43100
Cl	Cl	0.99210 0.78146 0.06107 -0.41200
Cl	Cl	0.49210 0.21854 0.93893 -0.42900
O 	O 	0.71420 0.40040 0.26740 -0.41600
O 	O 	0.79270 0.53530 0.12420 -0.40000
O 	O 	0.21420 0.59960 0.73260 -0.42200
O 	O 	0.29270 0.46470 0.87580 -0.40700
O 	O 	0.71420 0.90040 0.23260 -0.41600
O 	O 	0.79270 0.03530 0.37580 -0.39900
O 	O 	0.21420 0.09960 0.76740 -0.42200
O 	O 	0.29270 0.96470 0.62420 -0.40800
