data_crystal

_cell_length_a 7.18970
_cell_length_b 10.63000
_cell_length_c 11.54300
_cell_angle_alpha 90.00000
_cell_angle_beta  90.00000
_cell_angle_gamma 90.00000

_symmetry_space_group_name_	'P 1'
_symmetry_space_group_name_H-M	'P 1'

loop_
_symmetry_equiv_pos_as_xyz
  x,y,z

loop_
_atom_site_label
_atom_site_type_symbol
_atom_site_fract_x
_atom_site_fract_y
_atom_site_fract_z
_atom_site_charge
Ni	Ni	0.73902 0.21483 0.30995 1.10100
Ni	Ni	0.23902 0.78517 0.69005 1.09400
Ni	Ni	0.73902 0.71483 0.19005 1.10000
Ni	Ni	0.23902 0.28517 0.80995 1.09400
H 	H 	0.98830 0.42810 0.97460 0.03400
H 	H 	0.13300 0.07380 0.96800 0.05500
H 	H 	0.97670 0.04260 0.13680 0.02100
H 	H 	0.48830 0.57190 0.02540 0.02900
H 	H 	0.63300 0.92620 0.03200 0.04600
H 	H 	0.47670 0.95740 0.86320 0.03100
H 	H 	0.98830 0.92810 0.52540 0.03000
H 	H 	0.13300 0.57380 0.53200 0.06200
H 	H 	0.97670 0.54260 0.36320 0.01700
H 	H 	0.48830 0.07190 0.47460 0.03100
H 	H 	0.63300 0.42620 0.46800 0.05100
H 	H 	0.47670 0.45740 0.63680 0.03000
C 	C 	0.79350 0.43180 0.17550 0.36000
C 	C 	0.89790 0.32880 0.11010 -0.05800
C 	C 	0.98960 0.34840 0.00800 0.09100
C 	C 	0.07380 0.14130 0.00370 -0.02800
C 	C 	0.98040 0.12300 0.10510 0.08700
C 	C 	0.29350 0.56820 0.82450 0.35600
C 	C 	0.39790 0.67120 0.88990 -0.06200
C 	C 	0.48960 0.65160 0.99200 0.06800
C 	C 	0.57380 0.85870 0.99630 0.02300
C 	C 	0.48040 0.87700 0.89490 0.03400
C 	C 	0.79350 0.93180 0.32450 0.35700
C 	C 	0.89790 0.82880 0.38990 -0.05900
C 	C 	0.98960 0.84840 0.49200 0.09700
C 	C 	0.07380 0.64130 0.49630 -0.04300
C 	C 	0.98040 0.62300 0.39490 0.09600
C 	C 	0.29350 0.06820 0.67550 0.35700
C 	C 	0.39790 0.17120 0.61010 -0.06100
C 	C 	0.48960 0.15160 0.50800 0.06600
C 	C 	0.57380 0.35870 0.50370 0.01600
C 	C 	0.48040 0.37700 0.60510 0.03700
N 	N 	0.89420 0.21630 0.16040 -0.19400
N 	N 	0.08110 0.25500 0.95540 -0.21600
N 	N 	0.39420 0.78370 0.83960 -0.19100
N 	N 	0.58110 0.74500 0.04460 -0.20500
N 	N 	0.89420 0.71630 0.33960 -0.19600
N 	N 	0.08110 0.75500 0.54460 -0.21400
N 	N 	0.39420 0.28370 0.66040 -0.19200
N 	N 	0.58110 0.24500 0.45540 -0.20300
Cl	Cl	0.46900 0.16520 0.19045 -0.43400
Cl	Cl	0.96900 0.83480 0.80955 -0.40000
Cl	Cl	0.46900 0.66520 0.30955 -0.43500
Cl	Cl	0.96900 0.33480 0.69045 -0.40000
O 	O 	0.71560 0.40070 0.26680 -0.40400
O 	O 	0.80240 0.53930 0.13160 -0.40700
O 	O 	0.21560 0.59930 0.73320 -0.41400
O 	O 	0.30240 0.46070 0.86840 -0.41600
O 	O 	0.71560 0.90070 0.23320 -0.40400
O 	O 	0.80240 0.03930 0.36840 -0.40400
O 	O 	0.21560 0.09930 0.76680 -0.41400
O 	O 	0.30240 0.96070 0.63160 -0.41700
