data_crystal

_cell_length_a 11.15560
_cell_length_b 13.04300
_cell_length_c 14.13500
_cell_angle_alpha 89.75900
_cell_angle_beta  87.18200
_cell_angle_gamma 85.00600

_symmetry_space_group_name_	'P 1'
_symmetry_space_group_name_H-M	'P 1'

loop_
_symmetry_equiv_pos_as_xyz
  x,y,z

loop_
_atom_site_label
_atom_site_type_symbol
_atom_site_fract_x
_atom_site_fract_y
_atom_site_fract_z
_atom_site_charge
Cu	Cu	0.59444 0.93211 0.99934 0.93300
Cu	Cu	0.59847 0.54972 0.49893 0.90900
C 	C 	0.65820 0.14970 0.78380 -0.06800
C 	C 	0.59360 0.22770 0.73480 0.00400
C 	C 	0.65820 0.28560 0.66900 -0.07300
C 	C 	0.77990 0.26370 0.65050 0.01500
H 	H 	0.82030 0.30300 0.60640 0.04400
C 	C 	0.84290 0.18390 0.69650 -0.07500
H 	H 	0.92540 0.16970 0.68450 0.06500
C 	C 	0.77910 0.12470 0.76210 0.00600
H 	H 	0.81900 0.06820 0.79100 0.05300
C 	C 	0.59850 0.08950 0.86280 0.36100
C 	C 	0.46170 0.24770 0.75050 0.28600
C 	C 	0.59500 0.36980 0.61220 0.35800
O 	O 	0.65550 0.01100 0.89330 -0.38800
O 	O 	0.49890 0.12830 0.89640 -0.38300
O 	O 	0.41630 0.32620 0.79390 -0.23400
O 	O 	0.39700 0.18390 0.71220 -0.19500
O 	O 	0.65470 0.44370 0.58960 -0.40100
O 	O 	0.48800 0.36080 0.59240 -0.38500
C 	C 	0.34000 0.82420 0.81900 -0.08700
C 	C 	0.40410 0.75040 0.75830 0.01600
C 	C 	0.33900 0.69110 0.70060 -0.08600
C 	C 	0.21670 0.70190 0.70480 0.02600
H 	H 	0.17580 0.66010 0.66680 0.04000
C 	C 	0.15090 0.77280 0.76340 -0.08500
H 	H 	0.06710 0.77960 0.76460 0.06800
C 	C 	0.21400 0.83420 0.82100 0.02700
H 	H 	0.17160 0.88230 0.86120 0.04600
C 	C 	0.40110 0.88740 0.88500 0.37200
C 	C 	0.54020 0.74510 0.75240 0.29000
C 	C 	0.40200 0.61510 0.62990 0.37700
O 	O 	0.50300 0.85540 0.91140 -0.38900
O 	O 	0.34500 0.97000 0.91120 -0.38900
O 	O 	0.58860 0.81470 0.70920 -0.20600
O 	O 	0.59610 0.66800 0.79040 -0.23500
O 	O 	0.50360 0.62910 0.60070 -0.40200
O 	O 	0.34100 0.54360 0.60440 -0.40200
N 	N 	0.32780 0.56080 0.00210 -0.27300
C 	C 	0.29320 0.64070 0.05720 0.08000
H 	H 	0.34990 0.66590 0.09510 -0.01100
C 	C 	0.17760 0.68890 0.06170 -0.13900
H 	H 	0.15770 0.74440 0.10230 0.08400
C 	C 	0.09230 0.65390 0.00540 0.04100
C 	C 	0.12990 0.57010 0.94900 -0.12300
H 	H 	0.07660 0.54270 0.90960 0.08500
C 	C 	0.24670 0.52750 0.95150 0.13200
H 	H 	0.26880 0.47010 0.91360 -0.01400
N 	N 	0.75070 0.82520 0.00370 -0.20900
C 	C 	0.80590 0.80970 0.08330 0.07200
H 	H 	0.76980 0.83920 0.13850 0.03100
C 	C 	0.91580 0.75120 0.08870 -0.11700
H 	H 	0.95120 0.74170 0.14660 0.07800
C 	C 	0.97180 0.70750 0.00780 0.02500
C 	C 	0.90710 0.71770 0.92640 -0.09300
H 	H 	0.93680 0.68440 0.87090 0.07200
C 	C 	0.79680 0.77840 0.92780 0.09600
H 	H 	0.75530 0.78550 0.87240 0.02400
Cu	Cu	0.40556 0.06789 0.00066 0.90200
Cu	Cu	0.40153 0.45028 0.50107 0.90800
C 	C 	0.34180 0.85030 0.21620 -0.07300
C 	C 	0.40640 0.77230 0.26520 0.00500
C 	C 	0.34180 0.71440 0.33100 -0.07500
C 	C 	0.22010 0.73630 0.34950 0.01600
H 	H 	0.17970 0.69700 0.39360 0.04300
C 	C 	0.15710 0.81610 0.30350 -0.07800
H 	H 	0.07460 0.83030 0.31550 0.06500
C 	C 	0.22090 0.87530 0.23790 0.00900
H 	H 	0.18100 0.93180 0.20900 0.04700
C 	C 	0.40150 0.91050 0.13720 0.36400
C 	C 	0.53830 0.75230 0.24950 0.28600
C 	C 	0.40500 0.63020 0.38780 0.35800
O 	O 	0.34450 0.98900 0.10670 -0.40400
O 	O 	0.50110 0.87170 0.10360 -0.40400
O 	O 	0.58370 0.67380 0.20610 -0.24000
O 	O 	0.60300 0.81610 0.28780 -0.19600
O 	O 	0.34530 0.55630 0.41040 -0.40200
O 	O 	0.51200 0.63920 0.40760 -0.38500
C 	C 	0.66000 0.17580 0.18100 -0.09600
C 	C 	0.59590 0.24960 0.24170 0.01600
C 	C 	0.66100 0.30890 0.29940 -0.08900
C 	C 	0.78330 0.29810 0.29520 0.02900
H 	H 	0.82420 0.33990 0.33320 0.03900
C 	C 	0.84910 0.22720 0.23660 -0.09300
H 	H 	0.93290 0.22040 0.23540 0.06800
C 	C 	0.78600 0.16580 0.17900 0.02900
H 	H 	0.82840 0.11770 0.13880 0.03600
C 	C 	0.59890 0.11260 0.11500 0.37300
C 	C 	0.45980 0.25490 0.24760 0.29000
C 	C 	0.59800 0.38490 0.37010 0.37700
O 	O 	0.49700 0.14460 0.08860 -0.40700
O 	O 	0.65500 0.03000 0.08880 -0.40900
O 	O 	0.41140 0.18530 0.29080 -0.20700
O 	O 	0.40390 0.33200 0.20960 -0.24300
O 	O 	0.49640 0.37090 0.39930 -0.40300
O 	O 	0.65900 0.45640 0.39560 -0.40200
N 	N 	0.67220 0.43920 0.99790 -0.23500
C 	C 	0.70680 0.35930 0.94280 0.10500
H 	H 	0.65010 0.33410 0.90490 -0.01200
C 	C 	0.82240 0.31110 0.93830 -0.15600
H 	H 	0.84230 0.25560 0.89770 0.09400
C 	C 	0.90770 0.34610 0.99460 0.10700
C 	C 	0.87010 0.42990 0.05100 -0.19400
H 	H 	0.92340 0.45730 0.09040 0.09800
C 	C 	0.75330 0.47250 0.04850 0.08700
H 	H 	0.73120 0.52990 0.08640 -0.00900
N 	N 	0.24930 0.17480 0.99630 -0.16700
C 	C 	0.19410 0.19030 0.91670 0.08900
H 	H 	0.23020 0.16080 0.86150 0.02900
C 	C 	0.08420 0.24880 0.91130 -0.12800
H 	H 	0.04880 0.25830 0.85340 0.08200
C 	C 	0.02820 0.29250 0.99220 0.07600
C 	C 	0.09290 0.28230 0.07360 -0.15600
H 	H 	0.06320 0.31560 0.12910 0.08400
C 	C 	0.20320 0.22160 0.07220 0.04800
H 	H 	0.24470 0.21450 0.12760 0.03400
Cu	Cu	0.50000 0.50000 -0.00000 0.81600
