data_crystal

_cell_length_a 16.67300
_cell_length_b 9.58610
_cell_length_c 22.51800
_cell_angle_alpha 90.00000
_cell_angle_beta  103.95600
_cell_angle_gamma 90.00000

_symmetry_space_group_name_	'P 1'
_symmetry_space_group_name_H-M	'P 1'

loop_
_symmetry_equiv_pos_as_xyz
  x,y,z

loop_
_atom_site_label
_atom_site_type_symbol
_atom_site_fract_x
_atom_site_fract_y
_atom_site_fract_z
_atom_site_charge
Ce	Ce	0.07400 0.27212 0.18224 2.16100
Ce	Ce	0.23681 0.76501 0.04563 2.16900
Ce	Ce	0.33226 0.20132 0.12975 2.13700
Ce	Ce	0.46739 0.24150 0.41552 2.15400
S 	S 	0.15950 0.03367 0.10531 0.64900
S 	S 	0.41057 0.83510 0.17018 0.73300
S 	S 	0.01109 0.03416 0.25951 0.62400
S 	S 	0.18159 0.50797 0.11420 0.72300
S 	S 	0.37232 0.47437 0.01547 0.97800
S 	S 	0.37821 0.98881 0.99786 0.93500
S 	S 	0.91322 0.25056 0.07294 0.64100
S 	S 	0.29804 0.29115 0.28031 0.78000
O 	O 	0.05910 0.01840 0.21277 -0.38400
O 	O 	0.98540 0.33930 0.07647 -0.38300
O 	O 	0.14120 0.56400 0.05371 -0.41300
O 	O 	0.40550 0.75600 0.22376 -0.30900
O 	O 	0.92840 0.17030 0.13047 -0.36300
O 	O 	0.49610 0.87880 0.17227 -0.50000
O 	O 	0.38560 0.74920 0.11384 -0.61100
O 	O 	0.21110 0.06250 0.06072 -0.50300
O 	O 	0.83640 0.33380 0.06471 -0.34200
O 	O 	0.16220 0.88160 0.11515 -0.41400
O 	O 	0.00850 0.18710 0.26966 -0.37000
O 	O 	0.37690 0.41560 0.95619 -0.52100
O 	O 	0.29860 0.91440 0.98314 -0.52500
O 	O 	0.89790 0.15600 0.01964 -0.39100
O 	O 	0.30670 0.57750 0.00494 -0.53300
O 	O 	0.35520 0.95450 0.16380 -0.52900
O 	O 	0.33700 0.20410 0.24053 -0.52400
O 	O 	0.32880 0.24160 0.34341 -0.45700
O 	O 	0.19940 0.10780 0.16220 -0.51900
O 	O 	0.25230 0.60170 0.13895 -0.43700
O 	O 	0.07580 0.08500 0.08541 -0.34300
O 	O 	0.20750 0.27600 0.26304 -0.45500
O 	O 	0.04930 0.95980 0.31593 -0.34000
O 	O 	0.38570 0.06940 0.94533 -0.51400
O 	O 	0.12480 0.50470 0.15427 -0.43200
O 	O 	0.92770 0.97450 0.23753 -0.35400
O 	O 	0.20880 0.36410 0.10850 -0.53100
O 	O 	0.44990 0.53570 0.04590 -0.61500
O 	O 	0.32180 0.43520 0.27470 -0.31500
O 	O 	0.38740 0.06940 0.05180 -0.60900
O 	O 	0.44260 0.87790 0.00640 -0.56600
O 	O 	0.34950 0.36380 0.05200 -0.59400
Ce	Ce	0.92600 0.77212 0.31776 2.16200
Ce	Ce	0.76319 0.26501 0.45437 2.17000
Ce	Ce	0.66774 0.70132 0.37025 2.13900
Ce	Ce	0.53261 0.74150 0.08448 2.15500
S 	S 	0.84050 0.53367 0.39469 0.65600
S 	S 	0.58943 0.33510 0.32982 0.73400
S 	S 	0.98891 0.53416 0.24049 0.64100
S 	S 	0.81841 0.00797 0.38580 0.72800
S 	S 	0.62768 0.97437 0.48453 0.97600
S 	S 	0.62179 0.48881 0.50214 0.93200
S 	S 	0.08678 0.75056 0.42706 0.64200
S 	S 	0.70196 0.79115 0.21969 0.78100
O 	O 	0.94090 0.51840 0.28723 -0.38300
O 	O 	0.01460 0.83930 0.42353 -0.38500
O 	O 	0.85880 0.06400 0.44629 -0.41200
O 	O 	0.59450 0.25600 0.27624 -0.30900
O 	O 	0.07160 0.67030 0.36953 -0.36700
O 	O 	0.50390 0.37880 0.32773 -0.50000
O 	O 	0.61440 0.24920 0.38616 -0.61100
O 	O 	0.78890 0.56250 0.43928 -0.50100
O 	O 	0.16360 0.83380 0.43529 -0.34300
O 	O 	0.83780 0.38160 0.38485 -0.41800
O 	O 	0.99150 0.68710 0.23034 -0.37100
O 	O 	0.62310 0.91560 0.54381 -0.52200
O 	O 	0.70140 0.41440 0.51686 -0.52600
O 	O 	0.10210 0.65600 0.48036 -0.39500
O 	O 	0.69330 0.07750 0.49506 -0.53100
O 	O 	0.64480 0.45450 0.33620 -0.53000
O 	O 	0.66300 0.70410 0.25947 -0.52300
O 	O 	0.67120 0.74160 0.15659 -0.45700
O 	O 	0.80060 0.60780 0.33780 -0.51900
O 	O 	0.74770 0.10170 0.36105 -0.43700
O 	O 	0.92420 0.58500 0.41459 -0.34100
O 	O 	0.79250 0.77600 0.23696 -0.45500
O 	O 	0.95070 0.45980 0.18407 -0.34600
O 	O 	0.61430 0.56940 0.55467 -0.51300
O 	O 	0.87520 0.00470 0.34573 -0.43000
O 	O 	0.07230 0.47450 0.26247 -0.35800
O 	O 	0.79120 0.86410 0.39150 -0.53300
O 	O 	0.55010 0.03570 0.45410 -0.61400
O 	O 	0.67820 0.93520 0.22530 -0.31500
O 	O 	0.61260 0.56940 0.44820 -0.60700
O 	O 	0.55740 0.37790 0.49360 -0.56500
O 	O 	0.65050 0.86380 0.44800 -0.59300
Ce	Ce	0.92600 0.72788 0.81776 2.16200
Ce	Ce	0.76319 0.23499 0.95437 2.17000
Ce	Ce	0.66774 0.79868 0.87025 2.13800
Ce	Ce	0.53261 0.75850 0.58448 2.15500
S 	S 	0.84050 0.96633 0.89469 0.65000
S 	S 	0.58943 0.16490 0.82982 0.73400
S 	S 	0.98891 0.96584 0.74049 0.62500
S 	S 	0.81841 0.49203 0.88580 0.72400
S 	S 	0.62768 0.52563 0.98453 0.97900
S 	S 	0.62179 0.01119 0.00214 0.93600
S 	S 	0.08678 0.74944 0.92706 0.64200
S 	S 	0.70196 0.70885 0.71969 0.78100
O 	O 	0.94090 0.98160 0.78723 -0.38400
O 	O 	0.01460 0.66070 0.92353 -0.38300
O 	O 	0.85880 0.43600 0.94629 -0.41300
O 	O 	0.59450 0.24400 0.77624 -0.30900
O 	O 	0.07160 0.82970 0.86953 -0.36300
O 	O 	0.50390 0.12120 0.82773 -0.50000
O 	O 	0.61440 0.25080 0.88616 -0.61100
O 	O 	0.78890 0.93750 0.93928 -0.50300
O 	O 	0.16360 0.66620 0.93529 -0.34200
O 	O 	0.83780 0.11840 0.88485 -0.41400
O 	O 	0.99150 0.81290 0.73034 -0.37000
O 	O 	0.62310 0.58440 0.04381 -0.52100
O 	O 	0.70140 0.08560 0.01686 -0.52500
O 	O 	0.10210 0.84400 0.98036 -0.39100
O 	O 	0.69330 0.42250 0.99506 -0.53300
O 	O 	0.64480 0.04550 0.83620 -0.52900
O 	O 	0.66300 0.79590 0.75947 -0.52400
O 	O 	0.67120 0.75840 0.65659 -0.45700
O 	O 	0.80060 0.89220 0.83780 -0.51900
O 	O 	0.74770 0.39830 0.86105 -0.43700
O 	O 	0.92420 0.91500 0.91459 -0.34300
O 	O 	0.79250 0.72400 0.73696 -0.45500
O 	O 	0.95070 0.04020 0.68407 -0.34000
O 	O 	0.61430 0.93060 0.05467 -0.51400
O 	O 	0.87520 0.49530 0.84573 -0.43200
O 	O 	0.07230 0.02550 0.76247 -0.35400
O 	O 	0.79120 0.63590 0.89150 -0.53100
O 	O 	0.55010 0.46430 0.95410 -0.61500
O 	O 	0.67820 0.56480 0.72530 -0.31500
O 	O 	0.61260 0.93060 0.94820 -0.60900
O 	O 	0.55740 0.12210 0.99360 -0.56600
O 	O 	0.65050 0.63620 0.94800 -0.59400
Ce	Ce	0.07400 0.22788 0.68224 2.16200
Ce	Ce	0.23681 0.73499 0.54563 2.17000
Ce	Ce	0.33226 0.29868 0.62975 2.13900
Ce	Ce	0.46739 0.25850 0.91552 2.15500
S 	S 	0.15950 0.46633 0.60531 0.65600
S 	S 	0.41057 0.66490 0.67018 0.73400
S 	S 	0.01109 0.46584 0.75951 0.64100
S 	S 	0.18159 0.99203 0.61420 0.72800
S 	S 	0.37232 0.02563 0.51547 0.97600
S 	S 	0.37821 0.51119 0.49786 0.93200
S 	S 	0.91322 0.24944 0.57294 0.64200
S 	S 	0.29804 0.20885 0.78031 0.78100
O 	O 	0.05910 0.48160 0.71277 -0.38300
O 	O 	0.98540 0.16070 0.57647 -0.38500
O 	O 	0.14120 0.93600 0.55371 -0.41200
O 	O 	0.40550 0.74400 0.72376 -0.30900
O 	O 	0.92840 0.32970 0.63047 -0.36700
O 	O 	0.49610 0.62120 0.67227 -0.50000
O 	O 	0.38560 0.75080 0.61384 -0.61100
O 	O 	0.21110 0.43750 0.56072 -0.50100
O 	O 	0.83640 0.16620 0.56471 -0.34300
O 	O 	0.16220 0.61840 0.61515 -0.41800
O 	O 	0.00850 0.31290 0.76966 -0.37100
O 	O 	0.37690 0.08440 0.45619 -0.52200
O 	O 	0.29860 0.58560 0.48314 -0.52600
O 	O 	0.89790 0.34400 0.51964 -0.39500
O 	O 	0.30670 0.92250 0.50494 -0.53100
O 	O 	0.35520 0.54550 0.66380 -0.53000
O 	O 	0.33700 0.29590 0.74053 -0.52300
O 	O 	0.32880 0.25840 0.84341 -0.45700
O 	O 	0.19940 0.39220 0.66220 -0.51900
O 	O 	0.25230 0.89830 0.63895 -0.43700
O 	O 	0.07580 0.41500 0.58541 -0.34100
O 	O 	0.20750 0.22400 0.76304 -0.45500
O 	O 	0.04930 0.54020 0.81593 -0.34600
O 	O 	0.38570 0.43060 0.44533 -0.51300
O 	O 	0.12480 0.99530 0.65427 -0.43000
O 	O 	0.92770 0.52550 0.73753 -0.35800
O 	O 	0.20880 0.13590 0.60850 -0.53300
O 	O 	0.44990 0.96430 0.54590 -0.61400
O 	O 	0.32180 0.06480 0.77470 -0.31500
O 	O 	0.38740 0.43060 0.55180 -0.60700
O 	O 	0.44260 0.62210 0.50640 -0.56500
O 	O 	0.34950 0.13620 0.55200 -0.59300
