data_crystal

_cell_length_a 16.29480
_cell_length_b 16.29480
_cell_length_c 19.36710
_cell_angle_alpha 90.00000
_cell_angle_beta  90.00000
_cell_angle_gamma 120.00000

_symmetry_space_group_name_	'P 1'
_symmetry_space_group_name_H-M	'P 1'

loop_
_symmetry_equiv_pos_as_xyz
  x,y,z

loop_
_atom_site_label
_atom_site_type_symbol
_atom_site_fract_x
_atom_site_fract_y
_atom_site_fract_z
_atom_site_charge
Mn	Mn	0.50065 0.78404 0.38441 1.30600
O 	O 	0.44909 0.82162 0.45757 -0.41900
O 	O 	0.62195 0.88088 0.41056 -0.41800
N 	N 	0.36758 0.68875 0.35500 -0.21300
N 	N 	0.55854 0.74930 0.30471 -0.21000
N 	N 	0.49293 0.89456 0.30768 -0.15800
N 	N 	0.33598 0.84091 0.11339 -0.16100
N 	N 	0.59574 0.85805 0.12105 -0.06000
C 	C 	0.37484 0.83401 0.45056 0.14900
C 	C 	0.36728 0.89984 0.49327 -0.08500
H 	H 	0.41560 0.93520 0.52610 0.06900
C 	C 	0.29073 0.91358 0.48794 -0.12200
H 	H 	0.28660 0.95850 0.51680 0.11200
C 	C 	0.21961 0.86173 0.44034 0.19800
C 	C 	0.22316 0.79533 0.39901 -0.13300
H 	H 	0.17300 0.75890 0.36770 0.09800
C 	C 	0.30166 0.78134 0.40322 -0.05400
C 	C 	0.29870 0.70521 0.36305 -0.00700
H 	H 	0.24070 0.66350 0.34050 0.03300
C 	C 	0.34631 0.59937 0.32082 -0.31900
H 	H 	0.27860 0.56480 0.30740 0.12300
H 	H 	0.35670 0.55940 0.35410 0.11100
C 	C 	0.40689 0.61404 0.25647 0.45100
C 	C 	0.51132 0.65235 0.27555 -0.31800
H 	H 	0.51520 0.60910 0.30960 0.11600
H 	H 	0.54610 0.65220 0.23370 0.13000
C 	C 	0.63844 0.80960 0.27766 0.02600
H 	H 	0.65750 0.78990 0.23750 0.05200
C 	C 	0.70185 0.90432 0.30241 -0.06800
C 	C 	0.78237 0.96270 0.26239 -0.05800
H 	H 	0.79150 0.94070 0.21920 0.11800
C 	C 	0.84746 0.05093 0.28542 0.16100
C 	C 	0.83507 0.08497 0.34818 -0.04300
H 	H 	0.87990 0.14720 0.36290 0.09300
C 	C 	0.75752 0.02818 0.38889 -0.15000
H 	H 	0.74940 0.05150 0.43170 0.10500
C 	C 	0.69036 0.93598 0.36743 0.23000
C 	C 	0.39524 0.67854 0.20544 -0.79100
H 	H 	0.32810 0.65090 0.19330 0.26200
H 	H 	0.43200 0.68530 0.16360 0.25900
H 	H 	0.41810 0.74100 0.22640 0.25400
C 	C 	0.37270 0.51572 0.22489 -0.77900
H 	H 	0.30520 0.48630 0.21340 0.25500
H 	H 	0.38210 0.47590 0.25820 0.25100
H 	H 	0.40890 0.52220 0.18280 0.25200
C 	C 	0.40639 0.90251 0.13404 -0.17200
C 	C 	0.57365 0.91231 0.13713 -0.19800
C 	C 	0.50598 0.93670 0.25679 -0.17800
Cl	Cl	0.12431 0.88233 0.43255 -0.29400
Cl	Cl	0.94738 0.12270 0.23530 -0.29600
Mn	Mn	0.21596 0.71661 0.05108 1.30500
O 	O 	0.17838 0.62747 0.12424 -0.42500
O 	O 	0.11912 0.74107 0.07723 -0.40100
N 	N 	0.31125 0.67883 0.02167 -0.21200
N 	N 	0.25070 0.80924 0.97138 -0.19900
N 	N 	0.10544 0.59837 0.97435 -0.15800
N 	N 	0.15909 0.49507 0.78006 -0.15800
N 	N 	0.14195 0.73769 0.78772 -0.05600
C 	C 	0.16599 0.54083 0.11723 0.14500
C 	C 	0.10016 0.46744 0.15994 -0.09100
H 	H 	0.06480 0.48040 0.19277 0.05600
C 	C 	0.08642 0.37715 0.15461 -0.12700
H 	H 	0.04150 0.32810 0.18347 0.09600
C 	C 	0.13827 0.35788 0.10701 0.19500
C 	C 	0.20467 0.42783 0.06568 -0.13600
H 	H 	0.24110 0.41410 0.03437 0.10000
C 	C 	0.21866 0.52032 0.06989 -0.05500
C 	C 	0.29479 0.59349 0.02972 -0.00800
H 	H 	0.33650 0.57720 0.00717 0.03500
C 	C 	0.40063 0.74694 0.98749 -0.32400
H 	H 	0.43520 0.71380 0.97407 0.12500
H 	H 	0.44060 0.79730 0.02077 0.11300
C 	C 	0.38596 0.79285 0.92314 0.46300
C 	C 	0.34765 0.85897 0.94222 -0.32900
H 	H 	0.39090 0.90610 0.97627 0.12500
H 	H 	0.34780 0.89390 0.90037 0.13800
C 	C 	0.19040 0.82884 0.94433 -0.01300
H 	H 	0.21010 0.86760 0.90417 0.06700
C 	C 	0.09568 0.79753 0.96908 0.01300
C 	C 	0.03730 0.81967 0.92906 -0.20200
H 	H 	0.05930 0.85080 0.88587 0.15400
C 	C 	0.94907 0.79653 0.95209 0.28300
C 	C 	0.91503 0.75010 0.01485 -0.14700
H 	H 	0.85280 0.73270 0.02957 0.12400
C 	C 	0.97182 0.72934 0.05556 0.00000
H 	H 	0.94850 0.69790 0.09837 0.06600
C 	C 	0.06402 0.75438 0.03410 0.10900
C 	C 	0.32146 0.71670 0.87211 -0.80200
H 	H 	0.34910 0.67720 0.85997 0.26500
H 	H 	0.31470 0.74670 0.83027 0.26400
H 	H 	0.25900 0.67710 0.89307 0.25800
C 	C 	0.48428 0.85698 0.89156 -0.79800
H 	H 	0.51370 0.81890 0.88007 0.26200
H 	H 	0.52410 0.90620 0.92487 0.26200
H 	H 	0.47780 0.88670 0.84947 0.26300
C 	C 	0.09749 0.50388 0.80071 -0.19600
C 	C 	0.08769 0.66134 0.80380 -0.22400
C 	C 	0.06330 0.56928 0.92346 -0.20800
Cl	Cl	0.11767 0.24198 0.09922 -0.31600
Cl	Cl	0.87730 0.82468 0.90197 -0.31400
Mn	Mn	0.28339 0.49935 0.71774 1.30500
O 	O 	0.37253 0.55091 0.79090 -0.42200
O 	O 	0.25893 0.37805 0.74389 -0.41300
N 	N 	0.32117 0.63242 0.68833 -0.21200
N 	N 	0.19076 0.44146 0.63804 -0.20700
N 	N 	0.40163 0.50707 0.64101 -0.15700
N 	N 	0.50493 0.66402 0.44672 -0.15700
N 	N 	0.26231 0.40426 0.45438 -0.05800
C 	C 	0.45917 0.62516 0.78389 0.14700
C 	C 	0.53256 0.63272 0.82660 -0.08900
H 	H 	0.51960 0.58440 0.85943 0.06200
C 	C 	0.62285 0.70927 0.82127 -0.12300
H 	H 	0.67190 0.71340 0.85013 0.10400
C 	C 	0.64212 0.78039 0.77367 0.19600
C 	C 	0.57217 0.77684 0.73234 -0.13300
H 	H 	0.58590 0.82700 0.70103 0.10500
C 	C 	0.47968 0.69834 0.73655 -0.05300
C 	C 	0.40651 0.70130 0.69638 -0.00700
H 	H 	0.42280 0.75930 0.67383 0.03700
C 	C 	0.25306 0.65369 0.65415 -0.31600
H 	H 	0.28620 0.72140 0.64073 0.12400
H 	H 	0.20270 0.64330 0.68743 0.11000
C 	C 	0.20715 0.59311 0.58980 0.44400
C 	C 	0.14103 0.48868 0.60888 -0.31100
H 	H 	0.09390 0.48480 0.64293 0.10800
H 	H 	0.10610 0.45390 0.56703 0.12200
C 	C 	0.17116 0.36156 0.61099 0.00500
H 	H 	0.13240 0.34250 0.57083 0.05300
C 	C 	0.20247 0.29815 0.63574 -0.03200
C 	C 	0.18033 0.21763 0.59572 -0.13400
H 	H 	0.14920 0.20850 0.55253 0.13300
C 	C 	0.20347 0.15254 0.61875 0.22000
C 	C 	0.24990 0.16493 0.68151 -0.09900
H 	H 	0.26730 0.12010 0.69623 0.10100
C 	C 	0.27066 0.24248 0.72222 -0.07900
H 	H 	0.30210 0.25060 0.76503 0.08400
C 	C 	0.24562 0.30964 0.70076 0.16900
C 	C 	0.28330 0.60476 0.53877 -0.78400
H 	H 	0.32280 0.67190 0.52663 0.26000
H 	H 	0.25330 0.56800 0.49693 0.25600
H 	H 	0.32290 0.58190 0.55973 0.25200
C 	C 	0.14302 0.62730 0.55822 -0.76500
H 	H 	0.18110 0.69480 0.54673 0.25000
H 	H 	0.09380 0.61790 0.59153 0.24200
H 	H 	0.11330 0.59110 0.51613 0.24300
C 	C 	0.49612 0.59361 0.46737 -0.18500
C 	C 	0.33866 0.42635 0.47046 -0.21400
C 	C 	0.43072 0.49402 0.59012 -0.19500
Cl	Cl	0.75802 0.87569 0.76588 -0.28100
Cl	Cl	0.17532 0.05262 0.56863 -0.33800
Mn	Mn	0.78404 0.50065 0.61559 1.30700
O 	O 	0.82162 0.44909 0.54243 -0.41800
O 	O 	0.88088 0.62195 0.58944 -0.41700
N 	N 	0.68875 0.36758 0.64500 -0.21200
N 	N 	0.74930 0.55854 0.69529 -0.20900
N 	N 	0.89456 0.49293 0.69232 -0.15700
N 	N 	0.84091 0.33598 0.88661 -0.16000
N 	N 	0.85805 0.59574 0.87895 -0.05900
C 	C 	0.83401 0.37484 0.54944 0.14900
C 	C 	0.89984 0.36728 0.50673 -0.08500
H 	H 	0.93520 0.41560 0.47390 0.06900
C 	C 	0.91358 0.29073 0.51206 -0.12200
H 	H 	0.95850 0.28660 0.48320 0.11200
C 	C 	0.86173 0.21961 0.55966 0.19800
C 	C 	0.79533 0.22316 0.60099 -0.13300
H 	H 	0.75890 0.17300 0.63230 0.09800
C 	C 	0.78134 0.30166 0.59678 -0.05400
C 	C 	0.70521 0.29870 0.63695 -0.00700
H 	H 	0.66350 0.24070 0.65950 0.03300
C 	C 	0.59937 0.34631 0.67918 -0.31900
H 	H 	0.56480 0.27860 0.69260 0.12300
H 	H 	0.55940 0.35670 0.64590 0.11100
C 	C 	0.61404 0.40689 0.74353 0.45100
C 	C 	0.65235 0.51132 0.72445 -0.31800
H 	H 	0.60910 0.51520 0.69040 0.11600
H 	H 	0.65220 0.54610 0.76630 0.13000
C 	C 	0.80960 0.63844 0.72234 0.02600
H 	H 	0.78990 0.65750 0.76250 0.05200
C 	C 	0.90432 0.70185 0.69759 -0.06800
C 	C 	0.96270 0.78237 0.73761 -0.05800
H 	H 	0.94070 0.79150 0.78080 0.11800
C 	C 	0.05093 0.84746 0.71458 0.16100
C 	C 	0.08497 0.83507 0.65182 -0.04300
H 	H 	0.14720 0.87990 0.63710 0.09300
C 	C 	0.02818 0.75752 0.61111 -0.15000
H 	H 	0.05150 0.74940 0.56830 0.10500
C 	C 	0.93598 0.69036 0.63257 0.23000
C 	C 	0.67854 0.39524 0.79456 -0.79100
H 	H 	0.65090 0.32810 0.80670 0.26200
H 	H 	0.68530 0.43200 0.83640 0.25900
H 	H 	0.74100 0.41810 0.77360 0.25400
C 	C 	0.51572 0.37270 0.77511 -0.77900
H 	H 	0.48630 0.30520 0.78660 0.25500
H 	H 	0.47590 0.38210 0.74180 0.25100
H 	H 	0.52220 0.40890 0.81720 0.25200
C 	C 	0.90251 0.40639 0.86596 -0.17200
C 	C 	0.91231 0.57365 0.86287 -0.19800
C 	C 	0.93670 0.50598 0.74321 -0.17800
Cl	Cl	0.88233 0.12431 0.56745 -0.29400
Cl	Cl	0.12270 0.94738 0.76470 -0.29600
Mn	Mn	0.71661 0.21596 0.94892 1.30500
O 	O 	0.62747 0.17838 0.87576 -0.42500
O 	O 	0.74107 0.11912 0.92277 -0.40100
N 	N 	0.67883 0.31125 0.97833 -0.21200
N 	N 	0.80924 0.25070 0.02862 -0.19900
N 	N 	0.59837 0.10544 0.02565 -0.15800
N 	N 	0.49507 0.15909 0.21994 -0.15800
N 	N 	0.73769 0.14195 0.21228 -0.05600
C 	C 	0.54083 0.16599 0.88277 0.14500
C 	C 	0.46744 0.10016 0.84006 -0.09100
H 	H 	0.48040 0.06480 0.80723 0.05600
C 	C 	0.37715 0.08642 0.84539 -0.12700
H 	H 	0.32810 0.04150 0.81653 0.09600
C 	C 	0.35788 0.13827 0.89299 0.19500
C 	C 	0.42783 0.20467 0.93432 -0.13600
H 	H 	0.41410 0.24110 0.96563 0.10000
C 	C 	0.52032 0.21866 0.93011 -0.05500
C 	C 	0.59349 0.29479 0.97028 -0.00800
H 	H 	0.57720 0.33650 0.99283 0.03500
C 	C 	0.74694 0.40063 0.01251 -0.32400
H 	H 	0.71380 0.43520 0.02593 0.12500
H 	H 	0.79730 0.44060 0.97923 0.11300
C 	C 	0.79285 0.38596 0.07686 0.46300
C 	C 	0.85897 0.34765 0.05778 -0.32900
H 	H 	0.90610 0.39090 0.02373 0.12500
H 	H 	0.89390 0.34780 0.09963 0.13800
C 	C 	0.82884 0.19040 0.05567 -0.01300
H 	H 	0.86760 0.21010 0.09583 0.06700
C 	C 	0.79753 0.09568 0.03092 0.01300
C 	C 	0.81967 0.03730 0.07094 -0.20200
H 	H 	0.85080 0.05930 0.11413 0.15400
C 	C 	0.79653 0.94907 0.04791 0.28300
C 	C 	0.75010 0.91503 0.98515 -0.14700
H 	H 	0.73270 0.85280 0.97043 0.12400
C 	C 	0.72934 0.97182 0.94444 0.00000
H 	H 	0.69790 0.94850 0.90163 0.06600
C 	C 	0.75438 0.06402 0.96590 0.10900
C 	C 	0.71670 0.32146 0.12789 -0.80200
H 	H 	0.67720 0.34910 0.14003 0.26500
H 	H 	0.74670 0.31470 0.16973 0.26400
H 	H 	0.67710 0.25900 0.10693 0.25800
C 	C 	0.85698 0.48428 0.10844 -0.79800
H 	H 	0.81890 0.51370 0.11993 0.26200
H 	H 	0.90620 0.52410 0.07513 0.26200
H 	H 	0.88670 0.47780 0.15053 0.26300
C 	C 	0.50388 0.09749 0.19929 -0.19600
C 	C 	0.66134 0.08769 0.19620 -0.22400
C 	C 	0.56928 0.06330 0.07654 -0.20800
Cl	Cl	0.24198 0.11767 0.90078 -0.31600
Cl	Cl	0.82468 0.87730 0.09803 -0.31400
Mn	Mn	0.49935 0.28339 0.28226 1.30500
O 	O 	0.55091 0.37253 0.20910 -0.42200
O 	O 	0.37805 0.25893 0.25611 -0.41300
N 	N 	0.63242 0.32117 0.31167 -0.21200
N 	N 	0.44146 0.19076 0.36196 -0.20700
N 	N 	0.50707 0.40163 0.35899 -0.15700
N 	N 	0.66402 0.50493 0.55328 -0.15700
N 	N 	0.40426 0.26231 0.54562 -0.05800
C 	C 	0.62516 0.45917 0.21611 0.14700
C 	C 	0.63272 0.53256 0.17340 -0.08900
H 	H 	0.58440 0.51960 0.14057 0.06200
C 	C 	0.70927 0.62285 0.17873 -0.12300
H 	H 	0.71340 0.67190 0.14987 0.10400
C 	C 	0.78039 0.64212 0.22633 0.19600
C 	C 	0.77684 0.57217 0.26766 -0.13300
H 	H 	0.82700 0.58590 0.29897 0.10500
C 	C 	0.69834 0.47968 0.26345 -0.05300
C 	C 	0.70130 0.40651 0.30362 -0.00700
H 	H 	0.75930 0.42280 0.32617 0.03700
C 	C 	0.65369 0.25306 0.34585 -0.31600
H 	H 	0.72140 0.28620 0.35927 0.12400
H 	H 	0.64330 0.20270 0.31257 0.11000
C 	C 	0.59311 0.20715 0.41020 0.44400
C 	C 	0.48868 0.14103 0.39112 -0.31100
H 	H 	0.48480 0.09390 0.35707 0.10800
H 	H 	0.45390 0.10610 0.43297 0.12200
C 	C 	0.36156 0.17116 0.38901 0.00500
H 	H 	0.34250 0.13240 0.42917 0.05300
C 	C 	0.29815 0.20247 0.36426 -0.03200
C 	C 	0.21763 0.18033 0.40428 -0.13400
H 	H 	0.20850 0.14920 0.44747 0.13300
C 	C 	0.15254 0.20347 0.38125 0.22000
C 	C 	0.16493 0.24990 0.31849 -0.09900
H 	H 	0.12010 0.26730 0.30377 0.10100
C 	C 	0.24248 0.27066 0.27778 -0.07900
H 	H 	0.25060 0.30210 0.23497 0.08400
C 	C 	0.30964 0.24562 0.29924 0.16900
C 	C 	0.60476 0.28330 0.46123 -0.78400
H 	H 	0.67190 0.32280 0.47337 0.26000
H 	H 	0.56800 0.25330 0.50307 0.25600
H 	H 	0.58190 0.32290 0.44027 0.25200
C 	C 	0.62730 0.14302 0.44178 -0.76500
H 	H 	0.69480 0.18110 0.45327 0.25000
H 	H 	0.61790 0.09380 0.40847 0.24200
H 	H 	0.59110 0.11330 0.48387 0.24300
C 	C 	0.59361 0.49612 0.53263 -0.18500
C 	C 	0.42635 0.33866 0.52954 -0.21400
C 	C 	0.49402 0.43072 0.40988 -0.19500
Cl	Cl	0.87569 0.75802 0.23412 -0.28100
Cl	Cl	0.05262 0.17532 0.43137 -0.33800
Fe	Fe	0.53315 0.00000 0.16667 1.14900
Fe	Fe	-0.00000 0.53315 0.83333 1.14900
Fe	Fe	0.46685 0.46685 0.50000 1.16400
