data_crystal

_cell_length_a 8.57500
_cell_length_b 8.57500
_cell_length_c 52.52000
_cell_angle_alpha 90.00000
_cell_angle_beta  90.00000
_cell_angle_gamma 90.00000

_symmetry_space_group_name_	'P 1'
_symmetry_space_group_name_H-M	'P 1'

loop_
_symmetry_equiv_pos_as_xyz
  x,y,z

loop_
_atom_site_label
_atom_site_type_symbol
_atom_site_fract_x
_atom_site_fract_y
_atom_site_fract_z
_atom_site_charge
Cu	Cu	0.09043 0.44568 0.73745 0.92400
Cu	Cu	0.36530 0.66125 0.98453 0.92100
Cu	Cu	0.40957 0.55432 0.23745 0.92400
Cu	Cu	0.13470 0.33875 0.48453 0.91800
Cu	Cu	0.90957 0.94568 0.76255 0.92400
Cu	Cu	0.63470 0.16125 0.51547 0.92000
Cu	Cu	0.59043 0.05432 0.26255 0.92500
Cu	Cu	0.86530 0.83875 0.01547 0.91500
H 	H 	0.61180 0.75770 0.76310 0.23000
H 	H 	0.58990 0.77650 0.71090 0.22800
H 	H 	0.24590 0.24670 0.70060 0.01100
H 	H 	0.26240 0.19850 0.65820 0.07700
H 	H 	0.93010 0.52670 0.64710 0.07300
H 	H 	0.91380 0.55850 0.69130 0.01500
H 	H 	0.95790 0.32800 0.78590 0.00500
H 	H 	0.99310 0.35700 0.82930 0.07400
H 	H 	0.29770 0.70370 0.81460 0.09100
H 	H 	0.25880 0.66480 0.77200 0.02100
H 	H 	0.09500 0.49370 0.86470 0.06100
H 	H 	0.32520 0.71340 0.85620 0.05900
H 	H 	0.11940 0.49830 0.90420 0.08600
H 	H 	0.16360 0.50650 0.94770 0.02500
H 	H 	0.47440 0.84090 0.93800 0.01000
H 	H 	0.44420 0.83390 0.89490 0.08600
H 	H 	0.25740 0.19510 0.53040 -0.01200
H 	H 	0.23270 0.21420 0.57420 0.09800
H 	H 	0.90020 0.53410 0.56510 0.09200
H 	H 	0.92690 0.50690 0.52130 0.01700
H 	H 	0.95730 0.46400 0.60700 0.09100
H 	H 	0.19630 0.25930 0.61430 0.04100
H 	H 	0.59440 0.45870 0.75510 0.07200
H 	H 	0.58070 0.46940 0.71220 0.05500
H 	H 	0.37650 0.15530 0.00400 0.06400
H 	H 	0.39160 0.16260 0.96070 0.05900
H 	H 	0.68360 0.17060 0.00810 0.23100
H 	H 	0.69660 0.16520 0.95950 0.22100
H 	H 	0.88820 0.24230 0.26310 0.23000
H 	H 	0.91010 0.22350 0.21090 0.22700
H 	H 	0.25410 0.75330 0.20060 0.00800
H 	H 	0.23760 0.80150 0.15820 0.08700
H 	H 	0.56990 0.47330 0.14710 0.08000
H 	H 	0.58620 0.44150 0.19130 0.01200
H 	H 	0.54210 0.67200 0.28590 0.00700
H 	H 	0.50690 0.64300 0.32930 0.09000
H 	H 	0.20230 0.29630 0.31460 0.09200
H 	H 	0.24120 0.33520 0.27200 0.02000
H 	H 	0.40500 0.50630 0.36470 0.06000
H 	H 	0.17480 0.28660 0.35620 0.05600
H 	H 	0.38060 0.50170 0.40420 0.08100
H 	H 	0.33640 0.49350 0.44770 0.02200
H 	H 	0.02560 0.15910 0.43800 0.00400
H 	H 	0.05580 0.16610 0.39490 0.08100
H 	H 	0.24260 0.80490 0.03040 -0.00900
H 	H 	0.26730 0.78580 0.07420 0.10100
H 	H 	0.59980 0.46590 0.06510 0.09400
H 	H 	0.57310 0.49310 0.02130 0.01800
H 	H 	0.54270 0.53600 0.10700 0.06400
H 	H 	0.30370 0.74070 0.11430 0.05500
H 	H 	0.90560 0.54130 0.25510 0.07200
H 	H 	0.91930 0.53060 0.21220 0.05400
H 	H 	0.12350 0.84470 0.50400 0.06400
H 	H 	0.10840 0.83740 0.46070 0.06100
H 	H 	0.81640 0.82940 0.50810 0.22800
H 	H 	0.80340 0.83480 0.45950 0.22000
H 	H 	0.38820 0.25770 0.73690 0.23000
H 	H 	0.41010 0.27650 0.78910 0.22700
H 	H 	0.75410 0.74670 0.79940 0.01200
H 	H 	0.73760 0.69850 0.84180 0.07800
H 	H 	0.06990 0.02670 0.85290 0.07200
H 	H 	0.08620 0.05850 0.80870 0.01000
H 	H 	0.04210 0.82800 0.71410 0.00800
H 	H 	0.00690 0.85700 0.67070 0.07200
H 	H 	0.70230 0.20370 0.68540 0.08900
H 	H 	0.74120 0.16480 0.72800 0.02400
H 	H 	0.90500 0.99370 0.63530 0.06900
H 	H 	0.67480 0.21340 0.64380 0.06000
H 	H 	0.88060 0.99830 0.59580 0.09900
H 	H 	0.83640 0.00650 0.55230 0.01800
H 	H 	0.52560 0.34090 0.56200 0.01000
H 	H 	0.55580 0.33390 0.60510 0.08800
H 	H 	0.74260 0.69510 0.96960 -0.01000
H 	H 	0.76730 0.71420 0.92580 0.09900
H 	H 	0.09980 0.03410 0.93490 0.09600
H 	H 	0.07310 0.00690 0.97870 0.02500
H 	H 	0.04270 0.96400 0.89300 0.09100
H 	H 	0.80370 0.75930 0.88570 0.04100
H 	H 	0.40560 0.95870 0.74490 0.07700
H 	H 	0.41930 0.96940 0.78780 0.05800
H 	H 	0.62350 0.65530 0.49600 0.06600
H 	H 	0.60840 0.66260 0.53930 0.05700
H 	H 	0.31640 0.67060 0.49190 0.22900
H 	H 	0.30340 0.66520 0.54050 0.22100
H 	H 	0.11180 0.74230 0.23690 0.23000
H 	H 	0.08990 0.72350 0.28910 0.22500
H 	H 	0.74590 0.25330 0.29940 0.00900
H 	H 	0.76240 0.30150 0.34180 0.08900
H 	H 	0.43010 0.97330 0.35290 0.07900
H 	H 	0.41380 0.94150 0.30870 0.00700
H 	H 	0.45790 0.17200 0.21410 0.01100
H 	H 	0.49310 0.14300 0.17070 0.08600
H 	H 	0.79770 0.79630 0.18540 0.08800
H 	H 	0.75880 0.83520 0.22800 0.02300
H 	H 	0.59500 0.00630 0.13530 0.07000
H 	H 	0.82520 0.78660 0.14380 0.05600
H 	H 	0.61940 0.00170 0.09580 0.09900
H 	H 	0.66360 0.99350 0.05230 0.01400
H 	H 	0.97440 0.65910 0.06200 0.00400
H 	H 	0.94420 0.66610 0.10510 0.08300
H 	H 	0.75740 0.30490 0.46960 -0.00700
H 	H 	0.73270 0.28580 0.42580 0.10200
H 	H 	0.40020 0.96590 0.43490 0.09700
H 	H 	0.42690 0.99310 0.47870 0.02600
H 	H 	0.45730 0.03600 0.39300 0.06300
H 	H 	0.69630 0.24070 0.38570 0.05600
H 	H 	0.09440 0.04130 0.24490 0.07800
H 	H 	0.08070 0.03060 0.28780 0.05700
H 	H 	0.87650 0.34470 0.99600 0.06500
H 	H 	0.89160 0.33740 0.03930 0.06000
H 	H 	0.18360 0.32940 0.99190 0.22600
H 	H 	0.19660 0.33480 0.04050 0.22000
C 	C 	0.17950 0.30300 0.68940 0.07900
C 	C 	0.19220 0.27600 0.66410 -0.13600
C 	C 	0.10490 0.35910 0.64700 0.06600
C 	C 	0.99620 0.46740 0.65790 -0.10900
C 	C 	0.98660 0.48660 0.68440 0.08300
C 	C 	0.02920 0.40430 0.79198 0.09300
C 	C 	0.04710 0.42330 0.81778 -0.13400
C 	C 	0.14340 0.53820 0.82687 0.11300
C 	C 	0.22610 0.62630 0.80910 -0.14900
C 	C 	0.20410 0.60090 0.78373 0.09700
C 	C 	0.16110 0.55580 0.85430 -0.07600
C 	C 	0.25990 0.64940 0.86640 -0.08000
C 	C 	0.27720 0.66300 0.89409 0.10900
C 	C 	0.19490 0.56860 0.91070 -0.13900
C 	C 	0.22040 0.57430 0.93685 0.07600
C 	C 	0.40230 0.76830 0.93109 0.09700
C 	C 	0.38420 0.76590 0.90530 -0.15900
C 	C 	0.18440 0.26680 0.53734 0.12600
C 	C 	0.16850 0.27720 0.56360 -0.18200
C 	C 	0.06350 0.37500 0.57460 0.12800
C 	C 	0.97450 0.46290 0.55840 -0.14200
C 	C 	0.99240 0.44860 0.53234 0.11100
C 	C 	0.03940 0.39650 0.60190 -0.14300
C 	C 	0.11930 0.33220 0.61950 -0.03500
C 	C 	0.79890 0.57760 0.74699 0.34200
C 	C 	0.62130 0.56310 0.74782 -0.01300
C 	C 	0.37830 0.58750 0.72232 0.32500
C 	C 	0.55720 0.57110 0.72073 0.01400
C 	C 	0.48180 0.12820 0.99710 -0.00100
C 	C 	0.49810 0.37120 0.97030 0.31000
C 	C 	0.49150 0.19140 0.96936 0.01200
C 	C 	0.49460 0.95020 0.99627 0.33700
C 	C 	0.32050 0.69700 0.18940 0.09300
C 	C 	0.30780 0.72400 0.16410 -0.15500
C 	C 	0.39510 0.64090 0.14700 0.10400
C 	C 	0.50380 0.53260 0.15790 -0.13900
C 	C 	0.51340 0.51340 0.18440 0.08700
C 	C 	0.47080 0.59570 0.29198 0.09600
C 	C 	0.45290 0.57670 0.31778 -0.15800
C 	C 	0.35660 0.46180 0.32687 0.12200
C 	C 	0.27390 0.37370 0.30910 -0.15600
C 	C 	0.29590 0.39910 0.28373 0.10000
C 	C 	0.33890 0.44420 0.35430 -0.08500
C 	C 	0.24010 0.35060 0.36640 -0.07700
C 	C 	0.22280 0.33700 0.39409 0.10300
C 	C 	0.30510 0.43140 0.41070 -0.13900
C 	C 	0.27960 0.42570 0.43685 0.07200
C 	C 	0.09770 0.23170 0.43109 0.09300
C 	C 	0.11580 0.23410 0.40530 -0.15900
C 	C 	0.31560 0.73320 0.03734 0.13100
C 	C 	0.33150 0.72280 0.06360 -0.17700
C 	C 	0.43650 0.62500 0.07460 0.13700
C 	C 	0.52550 0.53710 0.05840 -0.15900
C 	C 	0.50760 0.55140 0.03234 0.09100
C 	C 	0.46060 0.60350 0.10190 -0.09200
C 	C 	0.38070 0.66780 0.11950 -0.06800
C 	C 	0.70110 0.42240 0.24699 0.34300
C 	C 	0.87870 0.43690 0.24782 -0.01200
C 	C 	0.12170 0.41250 0.22232 0.32900
C 	C 	0.94280 0.42890 0.22073 0.01000
C 	C 	0.01820 0.87180 0.49710 -0.01300
C 	C 	0.00190 0.62880 0.47030 0.28100
C 	C 	0.00850 0.80860 0.46936 -0.00300
C 	C 	0.00540 0.04980 0.49627 0.30600
C 	C 	0.82050 0.80300 0.81060 0.08000
C 	C 	0.80780 0.77600 0.83590 -0.13600
C 	C 	0.89510 0.85910 0.85300 0.06600
C 	C 	0.00380 0.96740 0.84210 -0.11100
C 	C 	0.01340 0.98660 0.81560 0.09000
C 	C 	0.97080 0.90430 0.70802 0.08800
C 	C 	0.95290 0.92330 0.68222 -0.12100
C 	C 	0.85660 0.03820 0.67313 0.10300
C 	C 	0.77390 0.12630 0.69090 -0.14200
C 	C 	0.79590 0.10090 0.71627 0.08700
C 	C 	0.83890 0.05580 0.64570 -0.08600
C 	C 	0.74010 0.14940 0.63360 -0.08100
C 	C 	0.72280 0.16300 0.60591 0.11600
C 	C 	0.80510 0.06860 0.58930 -0.16000
C 	C 	0.77960 0.07430 0.56315 0.08400
C 	C 	0.59770 0.26830 0.56891 0.09900
C 	C 	0.61580 0.26590 0.59470 -0.16400
C 	C 	0.81560 0.76680 0.96266 0.12600
C 	C 	0.83150 0.77720 0.93640 -0.18200
C 	C 	0.93650 0.87500 0.92540 0.12900
C 	C 	0.02550 0.96290 0.94160 -0.14600
C 	C 	0.00760 0.94860 0.96766 0.10000
C 	C 	0.96060 0.89650 0.89810 -0.14500
C 	C 	0.88070 0.83220 0.88050 -0.03400
C 	C 	0.20110 0.07760 0.75301 0.33700
C 	C 	0.37870 0.06310 0.75218 -0.01900
C 	C 	0.62170 0.08750 0.77768 0.32100
C 	C 	0.44280 0.07110 0.77927 0.01100
C 	C 	0.51820 0.62820 0.50290 -0.01100
C 	C 	0.50190 0.87120 0.52970 0.30900
C 	C 	0.50850 0.69140 0.53064 0.01500
C 	C 	0.50540 0.45020 0.50373 0.34700
C 	C 	0.67950 0.19700 0.31060 0.09500
C 	C 	0.69220 0.22400 0.33590 -0.15600
C 	C 	0.60490 0.14090 0.35300 0.10500
C 	C 	0.49620 0.03260 0.34210 -0.14100
C 	C 	0.48660 0.01340 0.31560 0.09400
C 	C 	0.52920 0.09570 0.20802 0.08900
C 	C 	0.54710 0.07670 0.18222 -0.13900
C 	C 	0.64340 0.96180 0.17313 0.10700
C 	C 	0.72610 0.87370 0.19090 -0.14600
C 	C 	0.70410 0.89910 0.21627 0.08500
C 	C 	0.66110 0.94420 0.14570 -0.09600
C 	C 	0.75990 0.85060 0.13360 -0.07900
C 	C 	0.77720 0.83700 0.10591 0.11200
C 	C 	0.69490 0.93140 0.08930 -0.16700
C 	C 	0.72040 0.92570 0.06315 0.08300
C 	C 	0.90230 0.73170 0.06891 0.09600
C 	C 	0.88420 0.73410 0.09470 -0.16500
C 	C 	0.68440 0.23320 0.46266 0.13000
C 	C 	0.66850 0.22280 0.43640 -0.17600
C 	C 	0.56350 0.12500 0.42540 0.13800
C 	C 	0.47450 0.03710 0.44160 -0.16200
C 	C 	0.49240 0.05140 0.46766 0.08000
C 	C 	0.53940 0.10350 0.39810 -0.09200
C 	C 	0.61930 0.16780 0.38050 -0.06800
C 	C 	0.29890 0.92240 0.25301 0.33700
C 	C 	0.12130 0.93690 0.25218 -0.01900
C 	C 	0.87830 0.91250 0.27768 0.32100
C 	C 	0.05720 0.92890 0.27927 0.00900
C 	C 	0.98180 0.37180 0.00290 -0.02200
C 	C 	0.99810 0.12880 0.02970 0.28100
C 	C 	0.99150 0.30860 0.03064 -0.00100
C 	C 	0.99460 0.54980 0.00373 0.31500
N 	N 	0.07720 0.40620 0.69968 -0.21400
N 	N 	0.11050 0.49170 0.77469 -0.21400
N 	N 	0.32610 0.67630 0.94714 -0.21300
N 	N 	0.10300 0.35180 0.52219 -0.23600
N 	N 	0.42280 0.59380 0.19968 -0.21300
N 	N 	0.38950 0.50830 0.27469 -0.21500
N 	N 	0.17390 0.32370 0.44714 -0.21400
N 	N 	0.39700 0.64820 0.02219 -0.22300
N 	N 	0.92280 0.90620 0.80032 -0.21500
N 	N 	0.88950 0.99170 0.72531 -0.20800
N 	N 	0.67390 0.17630 0.55286 -0.21500
N 	N 	0.89700 0.85180 0.97781 -0.23600
N 	N 	0.57720 0.09380 0.30032 -0.21400
N 	N 	0.61050 0.00830 0.22531 -0.20700
N 	N 	0.82610 0.82370 0.05286 -0.21800
N 	N 	0.60300 0.14820 0.47781 -0.22200
O 	O 	0.86470 0.44910 0.73847 -0.37800
O 	O 	0.31590 0.46860 0.73412 -0.38700
O 	O 	0.55520 0.67770 0.76330 -0.33100
O 	O 	0.62410 0.68960 0.70603 -0.33000
O 	O 	0.38640 0.43070 0.98131 -0.38800
O 	O 	0.37830 0.88610 0.98496 -0.39100
O 	O 	0.60460 0.88510 0.00603 -0.36600
O 	O 	0.86920 0.69020 0.75362 -0.38300
O 	O 	0.61460 0.43660 0.96035 -0.27100
O 	O 	0.31200 0.69360 0.71348 -0.28700
O 	O 	0.59410 0.19750 0.01290 -0.32800
O 	O 	0.61140 0.12390 0.95544 -0.32700
O 	O 	0.63530 0.55090 0.23847 -0.37900
O 	O 	0.18410 0.53140 0.23412 -0.38700
O 	O 	0.94480 0.32230 0.26330 -0.32900
O 	O 	0.87590 0.31040 0.20603 -0.33000
O 	O 	0.11360 0.56930 0.48131 -0.38600
O 	O 	0.12170 0.11390 0.48496 -0.38600
O 	O 	0.89540 0.11490 0.50603 -0.33900
O 	O 	0.63080 0.30980 0.25362 -0.38300
O 	O 	0.88540 0.56340 0.46035 -0.24600
O 	O 	0.18800 0.30640 0.21348 -0.28600
O 	O 	0.90590 0.80250 0.51290 -0.31000
O 	O 	0.88860 0.87610 0.45544 -0.30500
O 	O 	0.13530 0.94910 0.76153 -0.37300
O 	O 	0.68410 0.96860 0.76588 -0.38300
O 	O 	0.44480 0.17770 0.73670 -0.33100
O 	O 	0.37590 0.18960 0.79397 -0.33000
O 	O 	0.61360 0.93070 0.51869 -0.38400
O 	O 	0.62170 0.38610 0.51504 -0.39000
O 	O 	0.39540 0.38510 0.49397 -0.36600
O 	O 	0.13080 0.19020 0.74638 -0.38300
O 	O 	0.38540 0.93660 0.53965 -0.26700
O 	O 	0.68800 0.19360 0.78652 -0.28800
O 	O 	0.40590 0.69750 0.48710 -0.32700
O 	O 	0.38860 0.62390 0.54456 -0.33000
O 	O 	0.36470 0.05090 0.26153 -0.37400
O 	O 	0.81590 0.03140 0.26588 -0.38100
O 	O 	0.05520 0.82230 0.23670 -0.32900
O 	O 	0.12410 0.81040 0.29397 -0.33100
O 	O 	0.88640 0.06930 0.01869 -0.38100
O 	O 	0.87830 0.61390 0.01504 -0.38600
O 	O 	0.10460 0.61490 0.99397 -0.34000
O 	O 	0.36920 0.80980 0.24638 -0.38300
O 	O 	0.11460 0.06340 0.03965 -0.24100
O 	O 	0.81200 0.80640 0.28652 -0.28500
O 	O 	0.09410 0.30250 0.98710 -0.30800
O 	O 	0.11140 0.37610 0.04456 -0.30600
