data_crystal

_cell_length_a 21.36090
_cell_length_b 21.36090
_cell_length_c 10.56980
_cell_angle_alpha 90.00000
_cell_angle_beta  90.00000
_cell_angle_gamma 90.00000

_symmetry_space_group_name_	'P 1'
_symmetry_space_group_name_H-M	'P 1'

loop_
_symmetry_equiv_pos_as_xyz
  x,y,z

loop_
_atom_site_label
_atom_site_type_symbol
_atom_site_fract_x
_atom_site_fract_y
_atom_site_fract_z
_atom_site_charge
Al	Al	0.25939 0.81675 0.92903 2.40200
C 	C 	0.95564 0.79670 0.82563 -0.12100
C 	C 	0.07891 0.82129 0.74978 -0.02500
C 	C 	0.88883 0.79073 0.87083 0.52800
C 	C 	0.99317 0.85935 0.45590 -0.02100
C 	C 	0.96742 0.81730 0.70623 -0.00400
C 	C 	0.00496 0.78673 0.91810 0.06800
C 	C 	0.12538 0.79456 0.95004 0.48000
C 	C 	0.06251 0.80016 0.87326 -0.10500
C 	C 	0.03019 0.82772 0.66462 0.09500
O 	O 	0.84548 0.81393 0.80593 -0.70600
O 	O 	0.17513 0.82042 0.91102 -0.71800
O 	O 	0.11705 0.76078 0.04740 -0.59200
O 	O 	0.88523 0.74866 0.95359 -0.63500
O 	O 	0.24924 0.76209 0.06101 -0.95400
O 	O 	0.04264 0.85631 0.54486 -0.18700
H 	H 	0.18965 0.47373 0.68906 0.05300
H 	H 	0.12072 0.51148 0.61295 0.05700
H 	H 	0.10913 0.45446 0.74407 0.05400
H 	H 	0.12988 0.83185 0.72594 0.06200
H 	H 	0.99282 0.76922 0.01699 0.05100
H 	H 	0.92700 0.82642 0.63826 0.05300
H 	H 	0.22464 0.21331 0.43899 0.18300
Al	Al	0.75939 0.31675 0.42903 2.40100
C 	C 	0.45564 0.29670 0.32563 -0.12200
C 	C 	0.57891 0.32129 0.24978 -0.02600
C 	C 	0.38883 0.29073 0.37083 0.52700
C 	C 	0.49317 0.35935 0.95590 -0.02200
C 	C 	0.46742 0.31730 0.20623 -0.00500
C 	C 	0.50496 0.28673 0.41810 0.06700
C 	C 	0.62538 0.29456 0.45004 0.47900
C 	C 	0.56251 0.30016 0.37326 -0.10600
C 	C 	0.53019 0.32772 0.16462 0.09400
O 	O 	0.34548 0.31393 0.30593 -0.70700
O 	O 	0.67513 0.32042 0.41102 -0.71900
O 	O 	0.61705 0.26078 0.54740 -0.59300
O 	O 	0.38523 0.24866 0.45359 -0.63600
O 	O 	0.74924 0.26209 0.56101 -0.95500
O 	O 	0.54264 0.35631 0.04486 -0.18800
H 	H 	0.68965 0.97373 0.18906 0.05200
H 	H 	0.62072 0.01148 0.11295 0.05600
H 	H 	0.60913 0.95446 0.24407 0.05300
H 	H 	0.62988 0.33185 0.22594 0.06100
H 	H 	0.49282 0.26922 0.51699 0.05200
H 	H 	0.42700 0.32642 0.13826 0.05300
H 	H 	0.72464 0.71331 0.93899 0.18300
Al	Al	0.24061 0.68325 0.42903 2.40100
C 	C 	0.54436 0.70330 0.32563 -0.12200
C 	C 	0.42109 0.67871 0.24978 -0.02600
C 	C 	0.61117 0.70927 0.37083 0.52700
C 	C 	0.50683 0.64065 0.95590 -0.02200
C 	C 	0.53258 0.68270 0.20623 -0.00500
C 	C 	0.49504 0.71327 0.41810 0.06700
C 	C 	0.37462 0.70544 0.45004 0.47900
C 	C 	0.43749 0.69984 0.37326 -0.10600
C 	C 	0.46981 0.67228 0.16462 0.09400
O 	O 	0.65452 0.68607 0.30593 -0.70700
O 	O 	0.32487 0.67958 0.41102 -0.71900
O 	O 	0.38295 0.73922 0.54740 -0.59300
O 	O 	0.61477 0.75134 0.45359 -0.63600
O 	O 	0.25076 0.73791 0.56101 -0.95500
O 	O 	0.45736 0.64369 0.04486 -0.18800
H 	H 	0.31035 0.02627 0.18906 0.05200
H 	H 	0.37928 0.98852 0.11295 0.05600
H 	H 	0.39087 0.04554 0.24407 0.05300
H 	H 	0.37012 0.66815 0.22594 0.06100
H 	H 	0.50718 0.73078 0.51699 0.05200
H 	H 	0.57300 0.67358 0.13826 0.05300
H 	H 	0.27536 0.28669 0.93899 0.18300
Al	Al	0.74061 0.18325 0.92903 2.40100
C 	C 	0.04436 0.20330 0.82563 -0.12200
C 	C 	0.92109 0.17871 0.74978 -0.02600
C 	C 	0.11117 0.20927 0.87083 0.52700
C 	C 	0.00683 0.14065 0.45590 -0.02200
C 	C 	0.03258 0.18270 0.70623 -0.00500
C 	C 	0.99504 0.21327 0.91810 0.06700
C 	C 	0.87462 0.20544 0.95004 0.47900
C 	C 	0.93749 0.19984 0.87326 -0.10600
C 	C 	0.96981 0.17228 0.66462 0.09400
O 	O 	0.15452 0.18607 0.80593 -0.70700
O 	O 	0.82487 0.17958 0.91102 -0.71900
O 	O 	0.88295 0.23922 0.04740 -0.59300
O 	O 	0.11477 0.25134 0.95359 -0.63600
O 	O 	0.75076 0.23791 0.06101 -0.95500
O 	O 	0.95736 0.14369 0.54486 -0.18800
H 	H 	0.81035 0.52627 0.68906 0.05200
H 	H 	0.87928 0.48852 0.61295 0.05600
H 	H 	0.89087 0.54554 0.74407 0.05300
H 	H 	0.87012 0.16815 0.72594 0.06100
H 	H 	0.00718 0.23078 0.01699 0.05100
H 	H 	0.07300 0.17358 0.63826 0.05300
H 	H 	0.77536 0.78669 0.43899 0.18300
Al	Al	0.18325 0.75939 0.17903 2.40100
C 	C 	0.20330 0.45564 0.07563 -0.12200
C 	C 	0.17871 0.57891 0.99978 -0.02600
C 	C 	0.20927 0.38883 0.12083 0.52700
C 	C 	0.14065 0.49317 0.70590 -0.02200
C 	C 	0.18270 0.46742 0.95623 -0.00500
C 	C 	0.21327 0.50496 0.16810 0.06700
C 	C 	0.20544 0.62538 0.20004 0.47900
C 	C 	0.19984 0.56251 0.12326 -0.10600
C 	C 	0.17228 0.53019 0.91462 0.09400
O 	O 	0.18607 0.34548 0.05593 -0.70700
O 	O 	0.17958 0.67513 0.16102 -0.71900
O 	O 	0.23922 0.61705 0.29740 -0.59300
O 	O 	0.25134 0.38523 0.20359 -0.63600
O 	O 	0.23791 0.74924 0.31101 -0.95500
O 	O 	0.14369 0.54264 0.79486 -0.18800
H 	H 	0.52627 0.68965 0.93906 0.05200
H 	H 	0.48852 0.62072 0.86295 0.05600
H 	H 	0.54554 0.60913 0.99407 0.05300
H 	H 	0.16815 0.62988 0.97594 0.06100
H 	H 	0.23078 0.49282 0.26699 0.05200
H 	H 	0.17358 0.42700 0.88826 0.05300
H 	H 	0.78669 0.72464 0.68899 0.18300
Al	Al	0.68325 0.25939 0.67903 2.40100
C 	C 	0.70330 0.95564 0.57563 -0.12200
C 	C 	0.67871 0.07891 0.49978 -0.02600
C 	C 	0.70927 0.88883 0.62083 0.52700
C 	C 	0.64065 0.99317 0.20590 -0.02200
C 	C 	0.68270 0.96742 0.45623 -0.00500
C 	C 	0.71327 0.00496 0.66810 0.06700
C 	C 	0.70544 0.12538 0.70004 0.47900
C 	C 	0.69984 0.06251 0.62326 -0.10600
C 	C 	0.67228 0.03019 0.41462 0.09400
O 	O 	0.68607 0.84548 0.55593 -0.70700
O 	O 	0.67958 0.17513 0.66102 -0.71900
O 	O 	0.73922 0.11705 0.79740 -0.59300
O 	O 	0.75134 0.88523 0.70359 -0.63600
O 	O 	0.73791 0.24924 0.81101 -0.95500
O 	O 	0.64369 0.04264 0.29486 -0.18800
H 	H 	0.02627 0.18965 0.43906 0.05200
H 	H 	0.98852 0.12072 0.36295 0.05600
H 	H 	0.04554 0.10913 0.49407 0.05300
H 	H 	0.66815 0.12988 0.47594 0.06100
H 	H 	0.73078 0.99282 0.76699 0.05200
H 	H 	0.67358 0.92700 0.38826 0.05300
H 	H 	0.28669 0.22464 0.18899 0.18300
Al	Al	0.31675 0.74061 0.67903 2.40100
C 	C 	0.29670 0.04436 0.57563 -0.12200
C 	C 	0.32129 0.92109 0.49978 -0.02600
C 	C 	0.29073 0.11117 0.62083 0.52700
C 	C 	0.35935 0.00683 0.20590 -0.02200
C 	C 	0.31730 0.03258 0.45623 -0.00500
C 	C 	0.28673 0.99504 0.66810 0.06700
C 	C 	0.29456 0.87462 0.70004 0.47900
C 	C 	0.30016 0.93749 0.62326 -0.10600
C 	C 	0.32772 0.96981 0.41462 0.09400
O 	O 	0.31393 0.15452 0.55593 -0.70700
O 	O 	0.32042 0.82487 0.66102 -0.71900
O 	O 	0.26078 0.88295 0.79740 -0.59300
O 	O 	0.24866 0.11477 0.70359 -0.63600
O 	O 	0.26209 0.75076 0.81101 -0.95500
O 	O 	0.35631 0.95736 0.29486 -0.18800
H 	H 	0.97373 0.81035 0.43906 0.05200
H 	H 	0.01148 0.87928 0.36295 0.05600
H 	H 	0.95446 0.89087 0.49407 0.05300
H 	H 	0.33185 0.87012 0.47594 0.06100
H 	H 	0.26922 0.00718 0.76699 0.05200
H 	H 	0.32642 0.07300 0.38826 0.05300
H 	H 	0.71331 0.77536 0.18899 0.18300
Al	Al	0.81675 0.24061 0.17903 2.40100
C 	C 	0.79670 0.54436 0.07563 -0.12200
C 	C 	0.82129 0.42109 0.99978 -0.02600
C 	C 	0.79073 0.61117 0.12083 0.52700
C 	C 	0.85935 0.50683 0.70590 -0.02200
C 	C 	0.81730 0.53258 0.95623 -0.00500
C 	C 	0.78673 0.49504 0.16810 0.06700
C 	C 	0.79456 0.37462 0.20004 0.47900
C 	C 	0.80016 0.43749 0.12326 -0.10600
C 	C 	0.82772 0.46981 0.91462 0.09400
O 	O 	0.81393 0.65452 0.05593 -0.70700
O 	O 	0.82042 0.32487 0.16102 -0.71900
O 	O 	0.76078 0.38295 0.29740 -0.59300
O 	O 	0.74866 0.61477 0.20359 -0.63600
O 	O 	0.76209 0.25076 0.31101 -0.95500
O 	O 	0.85631 0.45736 0.79486 -0.18800
H 	H 	0.47373 0.31035 0.93906 0.05200
H 	H 	0.51148 0.37928 0.86295 0.05600
H 	H 	0.45446 0.39087 0.99407 0.05300
H 	H 	0.83185 0.37012 0.97594 0.06100
H 	H 	0.76922 0.50718 0.26699 0.05200
H 	H 	0.82642 0.57300 0.88826 0.05300
H 	H 	0.21331 0.27536 0.68899 0.18300
Al	Al	0.74061 0.68325 0.32097 2.40100
C 	C 	0.04436 0.70330 0.42437 -0.12200
C 	C 	0.92109 0.67871 0.50022 -0.02600
C 	C 	0.11117 0.70927 0.37917 0.52700
C 	C 	0.00683 0.64065 0.79410 -0.02200
C 	C 	0.03258 0.68270 0.54377 -0.00500
C 	C 	0.99504 0.71327 0.33190 0.06700
C 	C 	0.87462 0.70544 0.29996 0.47900
C 	C 	0.93749 0.69984 0.37674 -0.10600
C 	C 	0.96981 0.67228 0.58538 0.09400
O 	O 	0.15452 0.68607 0.44407 -0.70700
O 	O 	0.82487 0.67958 0.33898 -0.71900
O 	O 	0.88295 0.73922 0.20260 -0.59300
O 	O 	0.11477 0.75134 0.29641 -0.63600
O 	O 	0.75076 0.73791 0.18899 -0.95500
O 	O 	0.95736 0.64369 0.70514 -0.18800
H 	H 	0.81035 0.02627 0.56094 0.05200
H 	H 	0.87928 0.98852 0.63705 0.05600
H 	H 	0.89087 0.04554 0.50593 0.05300
H 	H 	0.87012 0.66815 0.52406 0.06100
H 	H 	0.00718 0.73078 0.23301 0.05200
H 	H 	0.07300 0.67358 0.61174 0.05300
H 	H 	0.77536 0.28669 0.81101 0.18300
Al	Al	0.24061 0.18325 0.82097 2.40100
C 	C 	0.54436 0.20330 0.92437 -0.12200
C 	C 	0.42109 0.17871 0.00022 -0.02600
C 	C 	0.61117 0.20927 0.87917 0.52700
C 	C 	0.50683 0.14065 0.29410 -0.02200
C 	C 	0.53258 0.18270 0.04377 -0.00500
C 	C 	0.49504 0.21327 0.83190 0.06700
C 	C 	0.37462 0.20544 0.79996 0.47900
C 	C 	0.43749 0.19984 0.87674 -0.10600
C 	C 	0.46981 0.17228 0.08538 0.09400
O 	O 	0.65452 0.18607 0.94407 -0.70700
O 	O 	0.32487 0.17958 0.83898 -0.71900
O 	O 	0.38295 0.23922 0.70260 -0.59300
O 	O 	0.61477 0.25134 0.79641 -0.63600
O 	O 	0.25076 0.23791 0.68899 -0.95500
O 	O 	0.45736 0.14369 0.20514 -0.18800
H 	H 	0.31035 0.52627 0.06094 0.05200
H 	H 	0.37928 0.48852 0.13705 0.05600
H 	H 	0.39087 0.54554 0.00593 0.05300
H 	H 	0.37012 0.16815 0.02406 0.06100
H 	H 	0.50718 0.23078 0.73301 0.05200
H 	H 	0.57300 0.17358 0.11174 0.05300
H 	H 	0.27536 0.78669 0.31101 0.18300
Al	Al	0.75939 0.81675 0.82097 2.40100
C 	C 	0.45564 0.79670 0.92437 -0.12200
C 	C 	0.57891 0.82129 0.00022 -0.02600
C 	C 	0.38883 0.79073 0.87917 0.52700
C 	C 	0.49317 0.85935 0.29410 -0.02200
C 	C 	0.46742 0.81730 0.04377 -0.00500
C 	C 	0.50496 0.78673 0.83190 0.06700
C 	C 	0.62538 0.79456 0.79996 0.47900
C 	C 	0.56251 0.80016 0.87674 -0.10600
C 	C 	0.53019 0.82772 0.08538 0.09400
O 	O 	0.34548 0.81393 0.94407 -0.70700
O 	O 	0.67513 0.82042 0.83898 -0.71900
O 	O 	0.61705 0.76078 0.70260 -0.59300
O 	O 	0.38523 0.74866 0.79641 -0.63600
O 	O 	0.74924 0.76209 0.68899 -0.95500
O 	O 	0.54264 0.85631 0.20514 -0.18800
H 	H 	0.68965 0.47373 0.06094 0.05200
H 	H 	0.62072 0.51148 0.13705 0.05600
H 	H 	0.60913 0.45446 0.00593 0.05300
H 	H 	0.62988 0.83185 0.02406 0.06100
H 	H 	0.49282 0.76922 0.73301 0.05200
H 	H 	0.42700 0.82642 0.11174 0.05300
H 	H 	0.72464 0.21331 0.31101 0.18300
Al	Al	0.25939 0.31675 0.32097 2.40100
C 	C 	0.95564 0.29670 0.42437 -0.12200
C 	C 	0.07891 0.32129 0.50022 -0.02600
C 	C 	0.88883 0.29073 0.37917 0.52700
C 	C 	0.99317 0.35935 0.79410 -0.02200
C 	C 	0.96742 0.31730 0.54377 -0.00500
C 	C 	0.00496 0.28673 0.33190 0.06700
C 	C 	0.12538 0.29456 0.29996 0.47900
C 	C 	0.06251 0.30016 0.37674 -0.10600
C 	C 	0.03019 0.32772 0.58538 0.09400
O 	O 	0.84548 0.31393 0.44407 -0.70700
O 	O 	0.17513 0.32042 0.33898 -0.71900
O 	O 	0.11705 0.26078 0.20260 -0.59300
O 	O 	0.88523 0.24866 0.29641 -0.63600
O 	O 	0.24924 0.26209 0.18899 -0.95500
O 	O 	0.04264 0.35631 0.70514 -0.18800
H 	H 	0.18965 0.97373 0.56094 0.05200
H 	H 	0.12072 0.01148 0.63705 0.05600
H 	H 	0.10913 0.95446 0.50593 0.05300
H 	H 	0.12988 0.33185 0.52406 0.06100
H 	H 	0.99282 0.26922 0.23301 0.05200
H 	H 	0.92700 0.32642 0.61174 0.05300
H 	H 	0.22464 0.71331 0.81101 0.18300
Al	Al	0.81675 0.74061 0.07097 2.40100
C 	C 	0.79670 0.04436 0.17437 -0.12200
C 	C 	0.82129 0.92109 0.25022 -0.02600
C 	C 	0.79073 0.11117 0.12917 0.52700
C 	C 	0.85935 0.00683 0.54410 -0.02200
C 	C 	0.81730 0.03258 0.29377 -0.00500
C 	C 	0.78673 0.99504 0.08190 0.06700
C 	C 	0.79456 0.87462 0.04996 0.47900
C 	C 	0.80016 0.93749 0.12674 -0.10600
C 	C 	0.82772 0.96981 0.33538 0.09400
O 	O 	0.81393 0.15452 0.19407 -0.70700
O 	O 	0.82042 0.82487 0.08898 -0.71900
O 	O 	0.76078 0.88295 0.95260 -0.59300
O 	O 	0.74866 0.11477 0.04641 -0.63600
O 	O 	0.76209 0.75076 0.93899 -0.95500
O 	O 	0.85631 0.95736 0.45514 -0.18800
H 	H 	0.47373 0.81035 0.31094 0.05200
H 	H 	0.51148 0.87928 0.38705 0.05600
H 	H 	0.45446 0.89087 0.25593 0.05300
H 	H 	0.83185 0.87012 0.27406 0.06100
H 	H 	0.76922 0.00718 0.98301 0.05100
H 	H 	0.82642 0.07300 0.36174 0.05300
H 	H 	0.21331 0.77536 0.56101 0.18300
Al	Al	0.31675 0.24061 0.57097 2.40100
C 	C 	0.29670 0.54436 0.67437 -0.12200
C 	C 	0.32129 0.42109 0.75022 -0.02600
C 	C 	0.29073 0.61117 0.62917 0.52700
C 	C 	0.35935 0.50683 0.04410 -0.02200
C 	C 	0.31730 0.53258 0.79377 -0.00500
C 	C 	0.28673 0.49504 0.58190 0.06700
C 	C 	0.29456 0.37462 0.54996 0.47900
C 	C 	0.30016 0.43749 0.62674 -0.10600
C 	C 	0.32772 0.46981 0.83538 0.09400
O 	O 	0.31393 0.65452 0.69407 -0.70700
O 	O 	0.32042 0.32487 0.58898 -0.71900
O 	O 	0.26078 0.38295 0.45260 -0.59300
O 	O 	0.24866 0.61477 0.54641 -0.63600
O 	O 	0.26209 0.25076 0.43899 -0.95500
O 	O 	0.35631 0.45736 0.95514 -0.18800
H 	H 	0.97373 0.31035 0.81094 0.05200
H 	H 	0.01148 0.37928 0.88705 0.05600
H 	H 	0.95446 0.39087 0.75593 0.05300
H 	H 	0.33185 0.37012 0.77406 0.06100
H 	H 	0.26922 0.50718 0.48301 0.05200
H 	H 	0.32642 0.57300 0.86174 0.05300
H 	H 	0.71331 0.27536 0.06101 0.18300
Al	Al	0.68325 0.75939 0.57097 2.40100
C 	C 	0.70330 0.45564 0.67437 -0.12200
C 	C 	0.67871 0.57891 0.75022 -0.02600
C 	C 	0.70927 0.38883 0.62917 0.52700
C 	C 	0.64065 0.49317 0.04410 -0.02200
C 	C 	0.68270 0.46742 0.79377 -0.00500
C 	C 	0.71327 0.50496 0.58190 0.06700
C 	C 	0.70544 0.62538 0.54996 0.47900
C 	C 	0.69984 0.56251 0.62674 -0.10600
C 	C 	0.67228 0.53019 0.83538 0.09400
O 	O 	0.68607 0.34548 0.69407 -0.70700
O 	O 	0.67958 0.67513 0.58898 -0.71900
O 	O 	0.73922 0.61705 0.45260 -0.59300
O 	O 	0.75134 0.38523 0.54641 -0.63600
O 	O 	0.73791 0.74924 0.43899 -0.95500
O 	O 	0.64369 0.54264 0.95514 -0.18800
H 	H 	0.02627 0.68965 0.81094 0.05200
H 	H 	0.98852 0.62072 0.88705 0.05600
H 	H 	0.04554 0.60913 0.75593 0.05300
H 	H 	0.66815 0.62988 0.77406 0.06100
H 	H 	0.73078 0.49282 0.48301 0.05200
H 	H 	0.67358 0.42700 0.86174 0.05300
H 	H 	0.28669 0.72464 0.06101 0.18300
Al	Al	0.18325 0.25939 0.07097 2.40100
C 	C 	0.20330 0.95564 0.17437 -0.12200
C 	C 	0.17871 0.07891 0.25022 -0.02600
C 	C 	0.20927 0.88883 0.12917 0.52700
C 	C 	0.14065 0.99317 0.54410 -0.02200
C 	C 	0.18270 0.96742 0.29377 -0.00500
C 	C 	0.21327 0.00496 0.08190 0.06700
C 	C 	0.20544 0.12538 0.04996 0.47900
C 	C 	0.19984 0.06251 0.12674 -0.10600
C 	C 	0.17228 0.03019 0.33538 0.09400
O 	O 	0.18607 0.84548 0.19407 -0.70700
O 	O 	0.17958 0.17513 0.08898 -0.71900
O 	O 	0.23922 0.11705 0.95260 -0.59300
O 	O 	0.25134 0.88523 0.04641 -0.63600
O 	O 	0.23791 0.24924 0.93899 -0.95500
O 	O 	0.14369 0.04264 0.45514 -0.18800
H 	H 	0.52627 0.18965 0.31094 0.05200
H 	H 	0.48852 0.12072 0.38705 0.05600
H 	H 	0.54554 0.10913 0.25593 0.05300
H 	H 	0.16815 0.12988 0.27406 0.06100
H 	H 	0.23078 0.99282 0.98301 0.05100
H 	H 	0.17358 0.92700 0.36174 0.05300
H 	H 	0.78669 0.22464 0.56101 0.18300
