data_crystal

_cell_length_a 9.00230
_cell_length_b 10.61140
_cell_length_c 11.69410
_cell_angle_alpha 116.98200
_cell_angle_beta  109.22600
_cell_angle_gamma 90.00000

_symmetry_space_group_name_	'P 1'
_symmetry_space_group_name_H-M	'P 1'

loop_
_symmetry_equiv_pos_as_xyz
  x,y,z

loop_
_atom_site_label
_atom_site_type_symbol
_atom_site_fract_x
_atom_site_fract_y
_atom_site_fract_z
_atom_site_charge
Mo	Mo	0.76367 0.41345 0.53004 1.04300
Mo	Mo	0.73633 0.88341 0.46996 1.04300
Mo	Mo	0.23633 0.58655 0.46996 1.04300
Mo	Mo	0.26367 0.11659 0.53004 1.04300
P 	P 	0.53892 0.09557 0.38148 0.45200
P 	P 	0.96108 0.71409 0.61852 0.45000
P 	P 	0.46108 0.90443 0.61852 0.45200
P 	P 	0.03892 0.28591 0.38148 0.45000
H 	H 	0.35540 0.17490 0.25060 0.10200
H 	H 	0.29760 0.00940 0.19900 0.11500
H 	H 	0.45010 0.23140 0.11280 0.02300
H 	H 	0.53660 0.16760 0.93020 0.04500
H 	H 	0.14460 0.92430 0.74940 0.10200
H 	H 	0.20240 0.81040 0.80100 0.11600
H 	H 	0.04990 0.11860 0.88720 0.02300
H 	H 	0.96340 0.23740 0.06980 0.04500
H 	H 	0.64460 0.82510 0.74940 0.10200
H 	H 	0.70240 0.99060 0.80100 0.11500
H 	H 	0.54990 0.76860 0.88720 0.02300
H 	H 	0.46340 0.83240 0.06980 0.04500
H 	H 	0.85540 0.07570 0.25060 0.10200
H 	H 	0.79760 0.18960 0.19900 0.11600
H 	H 	0.95010 0.88140 0.11280 0.02300
H 	H 	0.03660 0.76260 0.93020 0.04500
C 	C 	0.39120 0.08126 0.22852 -0.33500
C 	C 	0.44700 0.03860 0.10920 0.11000
C 	C 	0.47010 0.13677 0.06694 -0.10000
C 	C 	0.52200 0.09906 0.95852 -0.09300
C 	C 	0.10880 0.85274 0.77148 -0.33600
C 	C 	0.05300 0.92940 0.89080 0.11300
C 	C 	0.02990 0.06983 0.93306 -0.09900
C 	C 	0.97800 0.14054 0.04148 -0.09600
C 	C 	0.60880 0.91874 0.77148 -0.33500
C 	C 	0.55300 0.96140 0.89080 0.11000
C 	C 	0.52990 0.86323 0.93306 -0.10000
C 	C 	0.47800 0.90094 0.04148 -0.09300
C 	C 	0.89120 0.14726 0.22852 -0.33600
C 	C 	0.94700 0.07060 0.10920 0.11300
C 	C 	0.97010 0.93017 0.06694 -0.09900
C 	C 	0.02200 0.85946 0.95852 -0.09600
O 	O 	0.68839 0.20132 0.42424 -0.47200
O 	O 	0.47346 0.14629 0.49520 -0.44300
O 	O 	0.58672 0.94653 0.34360 -0.44600
O 	O 	0.81161 0.77708 0.57576 -0.47200
O 	O 	0.02654 0.65109 0.50480 -0.44300
O 	O 	0.91328 0.60293 0.65640 -0.44700
O 	O 	0.31161 0.79868 0.57576 -0.47200
O 	O 	0.52654 0.85371 0.50480 -0.44300
O 	O 	0.41328 0.05347 0.65640 -0.44600
O 	O 	0.18839 0.22292 0.42424 -0.47200
O 	O 	0.97346 0.34891 0.49520 -0.44300
O 	O 	0.08672 0.39707 0.34360 -0.44700
