data_crystal

_cell_length_a 18.56700
_cell_length_b 9.93400
_cell_length_c 30.76400
_cell_angle_alpha 90.00000
_cell_angle_beta  90.00000
_cell_angle_gamma 90.00000

_symmetry_space_group_name_	'P 1'
_symmetry_space_group_name_H-M	'P 1'

loop_
_symmetry_equiv_pos_as_xyz
  x,y,z

loop_
_atom_site_label
_atom_site_type_symbol
_atom_site_fract_x
_atom_site_fract_y
_atom_site_fract_z
_atom_site_charge
N 	N 	0.92100 0.67490 0.20413 -0.22200
O 	O 	0.72780 0.54230 0.09917 -0.24600
N 	N 	0.76300 0.85360 0.91640 -0.16700
N 	N 	0.73560 0.76530 0.08641 -0.22400
H 	H 	0.75300 0.84140 0.09460 0.15100
O 	O 	0.77370 0.66490 0.89890 -0.13900
C 	C 	0.68930 0.79660 0.85760 0.22100
C 	C 	0.68820 0.70760 0.82230 -0.10500
H 	H 	0.72050 0.63760 0.81750 0.05400
C 	C 	0.63700 0.88900 0.86150 -0.43200
H 	H 	0.63670 0.93870 0.88700 0.10600
C 	C 	0.74430 0.77320 0.89320 0.08400
O 	O 	0.74180 0.03850 0.90790 -0.17100
C 	C 	0.68070 0.89450 0.86250 0.08100
C 	C 	0.68700 0.78240 0.83340 -0.19500
H 	H 	0.72750 0.72840 0.83670 0.08700
C 	C 	0.62020 0.97140 0.85760 0.25000
H 	H 	0.61110 0.04930 0.87340 -0.06200
C 	C 	0.73240 0.92300 0.89760 0.15900
N 	N 	0.57860 0.82910 0.79684 -0.23300
C 	C 	0.63280 0.74080 0.79660 0.14400
H 	H 	0.63170 0.68750 0.77180 -0.04200
C 	C 	0.57600 0.92240 0.82760 0.03300
H 	H 	0.54400 0.99440 0.82890 -0.01200
C 	C 	0.81200 0.66620 0.14186 0.01600
C 	C 	0.86060 0.76920 0.14353 -0.11600
H 	H 	0.85720 0.83980 0.12380 0.08100
C 	C 	0.91450 0.76940 0.17392 0.07800
H 	H 	0.94800 0.83900 0.17340 -0.00300
C 	C 	0.87120 0.57380 0.20320 0.06400
H 	H 	0.87370 0.50710 0.22440 -0.00700
C 	C 	0.81820 0.56610 0.17296 -0.10700
H 	H 	0.78620 0.49410 0.17310 0.07600
C 	C 	0.75420 0.65390 0.10748 0.19800
C 	C 	0.81260 0.85850 0.95300 -0.00900
H 	H 	0.82180 0.95160 0.96070 0.05300
H 	H 	0.85810 0.81780 0.94460 0.05200
C 	C 	0.78180 0.78340 0.99290 -0.10400
H 	H 	0.76960 0.69220 0.98440 0.08100
H 	H 	0.81890 0.77800 0.01510 0.06900
C 	C 	0.71550 0.85000 0.01230 -0.12300
H 	H 	0.67900 0.86120 0.99010 0.07400
H 	H 	0.72790 0.93820 0.02350 0.07900
C 	C 	0.68600 0.76040 0.04950 -0.00200
H 	H 	0.63890 0.79230 0.05830 0.03500
H 	H 	0.68110 0.66840 0.03940 0.04600
N 	N 	0.57900 0.82510 0.70413 -0.23500
O 	O 	0.77220 0.95770 0.59917 -0.24400
N 	N 	0.73700 0.64640 0.41640 -0.16700
N 	N 	0.76440 0.73470 0.58641 -0.22300
H 	H 	0.74700 0.65860 0.59460 0.15100
O 	O 	0.72630 0.83510 0.39890 -0.14100
C 	C 	0.81070 0.70340 0.35760 0.21500
C 	C 	0.81180 0.79240 0.32230 -0.10300
H 	H 	0.77950 0.86240 0.31750 0.05400
C 	C 	0.86300 0.61100 0.36150 -0.45200
H 	H 	0.86330 0.56130 0.38700 0.11200
C 	C 	0.75570 0.72680 0.39320 0.08700
O 	O 	0.75820 0.46150 0.40790 -0.17100
C 	C 	0.81930 0.60550 0.36250 0.09800
C 	C 	0.81300 0.71760 0.33340 -0.19000
H 	H 	0.77250 0.77160 0.33670 0.08400
C 	C 	0.87980 0.52860 0.35760 0.26000
H 	H 	0.88890 0.45070 0.37340 -0.06000
C 	C 	0.76760 0.57700 0.39760 0.15300
N 	N 	0.92140 0.67090 0.29684 -0.22200
C 	C 	0.86720 0.75920 0.29660 0.14600
H 	H 	0.86830 0.81250 0.27180 -0.03700
C 	C 	0.92400 0.57760 0.32760 0.04100
H 	H 	0.95600 0.50560 0.32890 -0.00100
C 	C 	0.68800 0.83380 0.64186 0.01700
C 	C 	0.63940 0.73080 0.64353 -0.12100
H 	H 	0.64280 0.66020 0.62380 0.07800
C 	C 	0.58550 0.73060 0.67392 0.07600
H 	H 	0.55200 0.66100 0.67340 -0.01600
C 	C 	0.62880 0.92620 0.70320 0.06100
H 	H 	0.62630 0.99290 0.72440 -0.01300
C 	C 	0.68180 0.93390 0.67296 -0.11000
H 	H 	0.71380 0.00590 0.67310 0.07600
C 	C 	0.74580 0.84610 0.60748 0.19700
C 	C 	0.68740 0.64150 0.45300 -0.00500
H 	H 	0.67820 0.54840 0.46070 0.04900
H 	H 	0.64190 0.68220 0.44460 0.04400
C 	C 	0.71820 0.71660 0.49290 -0.10400
H 	H 	0.73040 0.80780 0.48440 0.08100
H 	H 	0.68110 0.72200 0.51510 0.06400
C 	C 	0.78450 0.65000 0.51230 -0.12300
H 	H 	0.82100 0.63880 0.49010 0.07800
H 	H 	0.77210 0.56180 0.52350 0.08000
C 	C 	0.81400 0.73960 0.54950 -0.00600
H 	H 	0.86110 0.70770 0.55830 0.04400
H 	H 	0.81890 0.83160 0.53940 0.05000
N 	N 	0.07900 0.67490 0.29587 -0.24100
O 	O 	0.27220 0.54230 0.40083 -0.24700
N 	N 	0.23700 0.85360 0.58360 -0.16900
N 	N 	0.26440 0.76530 0.41359 -0.22400
H 	H 	0.24700 0.84140 0.40540 0.14900
O 	O 	0.22630 0.66490 0.60110 -0.14100
C 	C 	0.31070 0.79660 0.64240 0.22000
C 	C 	0.31180 0.70760 0.67770 -0.10800
H 	H 	0.27950 0.63760 0.68250 0.05400
C 	C 	0.36300 0.88900 0.63850 -0.43600
H 	H 	0.36330 0.93870 0.61300 0.10700
C 	C 	0.25570 0.77320 0.60680 0.08300
O 	O 	0.25820 0.03850 0.59210 -0.17500
C 	C 	0.31930 0.89450 0.63750 0.08100
C 	C 	0.31300 0.78240 0.66660 -0.19200
H 	H 	0.27250 0.72840 0.66330 0.08500
C 	C 	0.37980 0.97140 0.64240 0.25500
H 	H 	0.38890 0.04930 0.62660 -0.06400
C 	C 	0.26760 0.92300 0.60240 0.15900
N 	N 	0.42140 0.82910 0.70316 -0.23300
C 	C 	0.36720 0.74080 0.70340 0.14400
H 	H 	0.36830 0.68750 0.72820 -0.04300
C 	C 	0.42400 0.92240 0.67240 0.03100
H 	H 	0.45600 0.99440 0.67110 -0.01200
C 	C 	0.18800 0.66620 0.35814 0.01400
C 	C 	0.13940 0.76920 0.35647 -0.12400
H 	H 	0.14280 0.83980 0.37620 0.07500
C 	C 	0.08550 0.76940 0.32608 0.07200
H 	H 	0.05200 0.83900 0.32660 -0.02700
C 	C 	0.12880 0.57380 0.29680 0.05800
H 	H 	0.12630 0.50710 0.27560 -0.01600
C 	C 	0.18180 0.56610 0.32704 -0.11100
H 	H 	0.21380 0.49410 0.32690 0.07400
C 	C 	0.24580 0.65390 0.39252 0.19500
C 	C 	0.18740 0.85850 0.54700 -0.00200
H 	H 	0.17820 0.95160 0.53930 0.04400
H 	H 	0.14190 0.81780 0.55540 0.03600
C 	C 	0.21820 0.78340 0.50710 -0.10500
H 	H 	0.23040 0.69220 0.51560 0.07900
H 	H 	0.18110 0.77800 0.48490 0.06100
C 	C 	0.28450 0.85000 0.48770 -0.12300
H 	H 	0.32100 0.86120 0.50990 0.07400
H 	H 	0.27210 0.93820 0.47650 0.07800
C 	C 	0.31400 0.76040 0.45050 -0.00300
H 	H 	0.36110 0.79230 0.44170 0.03600
H 	H 	0.31890 0.66840 0.46060 0.04600
N 	N 	0.42100 0.82510 0.79587 -0.23500
O 	O 	0.22780 0.95770 0.90083 -0.24900
N 	N 	0.26300 0.64640 0.08360 -0.17000
N 	N 	0.23560 0.73470 0.91359 -0.22500
H 	H 	0.25300 0.65860 0.90540 0.14900
O 	O 	0.27370 0.83510 0.10110 -0.14000
C 	C 	0.18930 0.70340 0.14240 0.22700
C 	C 	0.18820 0.79240 0.17770 -0.11100
H 	H 	0.22050 0.86240 0.18250 0.05300
C 	C 	0.13700 0.61100 0.13850 -0.41500
H 	H 	0.13670 0.56130 0.11300 0.10100
C 	C 	0.24430 0.72680 0.10680 0.08000
O 	O 	0.24180 0.46150 0.09210 -0.17600
C 	C 	0.18070 0.60550 0.13750 0.06200
C 	C 	0.18700 0.71760 0.16660 -0.19600
H 	H 	0.22750 0.77160 0.16330 0.08700
C 	C 	0.12020 0.52860 0.14240 0.24600
H 	H 	0.11110 0.45070 0.12660 -0.06600
C 	C 	0.23240 0.57700 0.10240 0.16600
N 	N 	0.07860 0.67090 0.20316 -0.23900
C 	C 	0.13280 0.75920 0.20340 0.14300
H 	H 	0.13170 0.81250 0.22820 -0.04600
C 	C 	0.07600 0.57760 0.17240 0.02200
H 	H 	0.04400 0.50560 0.17110 -0.02100
C 	C 	0.31200 0.83380 0.85814 0.01500
C 	C 	0.36060 0.73080 0.85647 -0.12000
H 	H 	0.35720 0.66020 0.87620 0.07800
C 	C 	0.41450 0.73060 0.82608 0.07500
H 	H 	0.44800 0.66100 0.82660 -0.01600
C 	C 	0.37120 0.92620 0.79680 0.06100
H 	H 	0.37370 0.99290 0.77560 -0.01300
C 	C 	0.31820 0.93390 0.82704 -0.11000
H 	H 	0.28620 0.00590 0.82690 0.07500
C 	C 	0.25420 0.84610 0.89252 0.19600
C 	C 	0.31260 0.64150 0.04700 -0.00500
H 	H 	0.32180 0.54840 0.03930 0.04800
H 	H 	0.35810 0.68220 0.05540 0.04400
C 	C 	0.28180 0.71660 0.00710 -0.10400
H 	H 	0.26960 0.80780 0.01560 0.07900
H 	H 	0.31890 0.72200 0.98490 0.06400
C 	C 	0.21550 0.65000 0.98770 -0.12400
H 	H 	0.17900 0.63880 0.00990 0.07000
H 	H 	0.22790 0.56180 0.97650 0.07700
C 	C 	0.18600 0.73960 0.95050 0.00100
H 	H 	0.13890 0.70770 0.94170 0.02700
H 	H 	0.18110 0.83160 0.96060 0.04100
N 	N 	0.07900 0.32510 0.79587 -0.24100
O 	O 	0.27220 0.45770 0.90083 -0.24700
N 	N 	0.23700 0.14640 0.08360 -0.16900
N 	N 	0.26440 0.23470 0.91359 -0.22400
H 	H 	0.24700 0.15860 0.90540 0.14900
O 	O 	0.22630 0.33510 0.10110 -0.14100
C 	C 	0.31070 0.20340 0.14240 0.22000
C 	C 	0.31180 0.29240 0.17770 -0.10800
H 	H 	0.27950 0.36240 0.18250 0.05400
C 	C 	0.36300 0.11100 0.13850 -0.43700
H 	H 	0.36330 0.06130 0.11300 0.10700
C 	C 	0.25570 0.22680 0.10680 0.08300
O 	O 	0.25820 0.96150 0.09210 -0.17500
C 	C 	0.31930 0.10550 0.13750 0.08100
C 	C 	0.31300 0.21760 0.16660 -0.19200
H 	H 	0.27250 0.27160 0.16330 0.08500
C 	C 	0.37980 0.02860 0.14240 0.25500
H 	H 	0.38890 0.95070 0.12660 -0.06400
C 	C 	0.26760 0.07700 0.10240 0.15900
N 	N 	0.42140 0.17090 0.20316 -0.23300
C 	C 	0.36720 0.25920 0.20340 0.14400
H 	H 	0.36830 0.31250 0.22820 -0.04300
C 	C 	0.42400 0.07760 0.17240 0.03100
H 	H 	0.45600 0.00560 0.17110 -0.01200
C 	C 	0.18800 0.33380 0.85814 0.01400
C 	C 	0.13940 0.23080 0.85647 -0.12400
H 	H 	0.14280 0.16020 0.87620 0.07500
C 	C 	0.08550 0.23060 0.82608 0.07200
H 	H 	0.05200 0.16100 0.82660 -0.02700
C 	C 	0.12880 0.42620 0.79680 0.05800
H 	H 	0.12630 0.49290 0.77560 -0.01600
C 	C 	0.18180 0.43390 0.82704 -0.11100
H 	H 	0.21380 0.50590 0.82690 0.07400
C 	C 	0.24580 0.34610 0.89252 0.19500
C 	C 	0.18740 0.14150 0.04700 -0.00200
H 	H 	0.17820 0.04840 0.03930 0.04400
H 	H 	0.14190 0.18220 0.05540 0.03600
C 	C 	0.21820 0.21660 0.00710 -0.10500
H 	H 	0.23040 0.30780 0.01560 0.07900
H 	H 	0.18110 0.22200 0.98490 0.06100
C 	C 	0.28450 0.15000 0.98770 -0.12300
H 	H 	0.32100 0.13880 0.00990 0.07400
H 	H 	0.27210 0.06180 0.97650 0.07800
C 	C 	0.31400 0.23960 0.95050 -0.00300
H 	H 	0.36110 0.20770 0.94170 0.03600
H 	H 	0.31890 0.33160 0.96060 0.04600
N 	N 	0.42100 0.17490 0.29587 -0.23500
O 	O 	0.22780 0.04230 0.40083 -0.24900
N 	N 	0.26300 0.35360 0.58360 -0.17000
N 	N 	0.23560 0.26530 0.41359 -0.22500
H 	H 	0.25300 0.34140 0.40540 0.14900
O 	O 	0.27370 0.16490 0.60110 -0.14000
C 	C 	0.18930 0.29660 0.64240 0.22700
C 	C 	0.18820 0.20760 0.67770 -0.11100
H 	H 	0.22050 0.13760 0.68250 0.05300
C 	C 	0.13700 0.38900 0.63850 -0.41500
H 	H 	0.13670 0.43870 0.61300 0.10100
C 	C 	0.24430 0.27320 0.60680 0.08000
O 	O 	0.24180 0.53850 0.59210 -0.17600
C 	C 	0.18070 0.39450 0.63750 0.06200
C 	C 	0.18700 0.28240 0.66660 -0.19600
H 	H 	0.22750 0.22840 0.66330 0.08700
C 	C 	0.12020 0.47140 0.64240 0.24600
H 	H 	0.11110 0.54930 0.62660 -0.06600
C 	C 	0.23240 0.42300 0.60240 0.16600
N 	N 	0.07860 0.32910 0.70316 -0.23900
C 	C 	0.13280 0.24080 0.70340 0.14300
H 	H 	0.13170 0.18750 0.72820 -0.04600
C 	C 	0.07600 0.42240 0.67240 0.02200
H 	H 	0.04400 0.49440 0.67110 -0.02100
C 	C 	0.31200 0.16620 0.35814 0.01500
C 	C 	0.36060 0.26920 0.35647 -0.12000
H 	H 	0.35720 0.33980 0.37620 0.07800
C 	C 	0.41450 0.26940 0.32608 0.07500
H 	H 	0.44800 0.33900 0.32660 -0.01600
C 	C 	0.37120 0.07380 0.29680 0.06100
H 	H 	0.37370 0.00710 0.27560 -0.01300
C 	C 	0.31820 0.06610 0.32704 -0.11000
H 	H 	0.28620 0.99410 0.32690 0.07500
C 	C 	0.25420 0.15390 0.39252 0.19600
C 	C 	0.31260 0.35850 0.54700 -0.00500
H 	H 	0.32180 0.45160 0.53930 0.04800
H 	H 	0.35810 0.31780 0.55540 0.04400
C 	C 	0.28180 0.28340 0.50710 -0.10400
H 	H 	0.26960 0.19220 0.51560 0.07900
H 	H 	0.31890 0.27800 0.48490 0.06500
C 	C 	0.21550 0.35000 0.48770 -0.12400
H 	H 	0.17900 0.36120 0.50990 0.07000
H 	H 	0.22790 0.43820 0.47650 0.07700
C 	C 	0.18600 0.26040 0.45050 0.00100
H 	H 	0.13890 0.29230 0.44170 0.02700
H 	H 	0.18110 0.16840 0.46060 0.04100
N 	N 	0.92100 0.32510 0.70413 -0.22300
O 	O 	0.72780 0.45770 0.59917 -0.24600
N 	N 	0.76300 0.14640 0.41640 -0.16700
N 	N 	0.73560 0.23470 0.58641 -0.22400
H 	H 	0.75300 0.15860 0.59460 0.15100
O 	O 	0.77370 0.33510 0.39890 -0.13900
C 	C 	0.68930 0.20340 0.35760 0.22100
C 	C 	0.68820 0.29240 0.32230 -0.10500
H 	H 	0.72050 0.36240 0.31750 0.05400
C 	C 	0.63700 0.11100 0.36150 -0.43200
H 	H 	0.63670 0.06130 0.38700 0.10600
C 	C 	0.74430 0.22680 0.39320 0.08400
O 	O 	0.74180 0.96150 0.40790 -0.17100
C 	C 	0.68070 0.10550 0.36250 0.08100
C 	C 	0.68700 0.21760 0.33340 -0.19500
H 	H 	0.72750 0.27160 0.33670 0.08700
C 	C 	0.62020 0.02860 0.35760 0.25000
H 	H 	0.61110 0.95070 0.37340 -0.06200
C 	C 	0.73240 0.07700 0.39760 0.15900
N 	N 	0.57860 0.17090 0.29684 -0.23300
C 	C 	0.63280 0.25920 0.29660 0.14500
H 	H 	0.63170 0.31250 0.27180 -0.04200
C 	C 	0.57600 0.07760 0.32760 0.03300
H 	H 	0.54400 0.00560 0.32890 -0.01200
C 	C 	0.81200 0.33380 0.64186 0.01600
C 	C 	0.86060 0.23080 0.64353 -0.11600
H 	H 	0.85720 0.16020 0.62380 0.08100
C 	C 	0.91450 0.23060 0.67392 0.07800
H 	H 	0.94800 0.16100 0.67340 -0.00300
C 	C 	0.87120 0.42620 0.70320 0.06400
H 	H 	0.87370 0.49290 0.72440 -0.00700
C 	C 	0.81820 0.43390 0.67296 -0.10700
H 	H 	0.78620 0.50590 0.67310 0.07600
C 	C 	0.75420 0.34610 0.60748 0.19800
C 	C 	0.81260 0.14150 0.45300 -0.00900
H 	H 	0.82180 0.04840 0.46070 0.05300
H 	H 	0.85810 0.18220 0.44460 0.05200
C 	C 	0.78180 0.21660 0.49290 -0.10300
H 	H 	0.76960 0.30780 0.48440 0.08100
H 	H 	0.81890 0.22200 0.51510 0.06800
C 	C 	0.71550 0.15000 0.51230 -0.12400
H 	H 	0.67900 0.13880 0.49010 0.07400
H 	H 	0.72790 0.06180 0.52350 0.07900
C 	C 	0.68600 0.23960 0.54950 -0.00200
H 	H 	0.63890 0.20770 0.55830 0.03500
H 	H 	0.68110 0.33160 0.53940 0.04600
N 	N 	0.57900 0.17490 0.20413 -0.23500
O 	O 	0.77220 0.04230 0.09917 -0.24400
N 	N 	0.73700 0.35360 0.91640 -0.16700
N 	N 	0.76440 0.26530 0.08641 -0.22300
H 	H 	0.74700 0.34140 0.09460 0.15100
O 	O 	0.72630 0.16490 0.89890 -0.14100
C 	C 	0.81070 0.29660 0.85760 0.21500
C 	C 	0.81180 0.20760 0.82230 -0.10300
H 	H 	0.77950 0.13760 0.81750 0.05400
C 	C 	0.86300 0.38900 0.86150 -0.45200
H 	H 	0.86330 0.43870 0.88700 0.11200
C 	C 	0.75570 0.27320 0.89320 0.08700
O 	O 	0.75820 0.53850 0.90790 -0.17100
C 	C 	0.81930 0.39450 0.86250 0.09800
C 	C 	0.81300 0.28240 0.83340 -0.19000
H 	H 	0.77250 0.22840 0.83670 0.08400
C 	C 	0.87980 0.47140 0.85760 0.26000
H 	H 	0.88890 0.54930 0.87340 -0.06000
C 	C 	0.76760 0.42300 0.89760 0.15300
N 	N 	0.92140 0.32910 0.79684 -0.22200
C 	C 	0.86720 0.24080 0.79660 0.14600
H 	H 	0.86830 0.18750 0.77180 -0.03700
C 	C 	0.92400 0.42240 0.82760 0.04100
H 	H 	0.95600 0.49440 0.82890 -0.00100
C 	C 	0.68800 0.16620 0.14186 0.01700
C 	C 	0.63940 0.26920 0.14353 -0.12100
H 	H 	0.64280 0.33980 0.12380 0.07800
C 	C 	0.58550 0.26940 0.17392 0.07600
H 	H 	0.55200 0.33900 0.17340 -0.01600
C 	C 	0.62880 0.07380 0.20320 0.06200
H 	H 	0.62630 0.00710 0.22440 -0.01300
C 	C 	0.68180 0.06610 0.17296 -0.11000
H 	H 	0.71380 0.99410 0.17310 0.07600
C 	C 	0.74580 0.15390 0.10748 0.19700
C 	C 	0.68740 0.35850 0.95300 -0.00500
H 	H 	0.67820 0.45160 0.96070 0.04900
H 	H 	0.64190 0.31780 0.94460 0.04400
C 	C 	0.71820 0.28340 0.99290 -0.10400
H 	H 	0.73040 0.19220 0.98440 0.08100
H 	H 	0.68110 0.27800 0.01510 0.06400
C 	C 	0.78450 0.35000 0.01230 -0.12300
H 	H 	0.82100 0.36120 0.99010 0.07800
H 	H 	0.77210 0.43820 0.02350 0.08000
C 	C 	0.81400 0.26040 0.04950 -0.00600
H 	H 	0.86110 0.29230 0.05830 0.04400
H 	H 	0.81890 0.16840 0.03940 0.05000
Cu	Cu	-0.00000 0.67876 0.25000 0.82900
Cu	Cu	0.50000 0.82124 0.75000 0.84800
Cu	Cu	-0.00000 0.32124 0.75000 0.82900
Cu	Cu	0.50000 0.17876 0.25000 0.84800
