data_crystal

_cell_length_a 7.14070
_cell_length_b 7.14070
_cell_length_c 20.48900
_cell_angle_alpha 90.00000
_cell_angle_beta  90.00000
_cell_angle_gamma 90.00000

_symmetry_space_group_name_	'P 1'
_symmetry_space_group_name_H-M	'P 1'

loop_
_symmetry_equiv_pos_as_xyz
  x,y,z

loop_
_atom_site_label
_atom_site_type_symbol
_atom_site_fract_x
_atom_site_fract_y
_atom_site_fract_z
_atom_site_charge
Pt	Pt	0.00000 0.00000 0.50000 0.26500
Fe	Fe	0.50000 0.50000 0.50000 1.18700
N 	N 	0.50000 0.50000 0.59690 -0.24800
C 	C 	0.50000 0.50000 0.73290 0.03800
C 	C 	0.50000 0.50000 0.93100 -0.00500
C 	C 	0.50000 0.50000 0.86400 0.00700
C 	C 	0.50000 0.50000 0.80480 -0.01700
N 	N 	0.50000 0.50000 0.40310 -0.24900
C 	C 	0.50000 0.50000 0.26710 0.03800
C 	C 	0.50000 0.50000 0.06900 -0.00500
C 	C 	0.50000 0.50000 0.13600 0.00700
C 	C 	0.50000 0.50000 0.19520 -0.01700
N 	N 	0.69000 0.69000 0.50000 -0.24800
C 	C 	0.80800 0.80800 0.50000 0.01300
N 	N 	0.31000 0.31000 0.50000 -0.24600
C 	C 	0.19200 0.19200 0.50000 -0.03000
N 	N 	0.31000 0.69000 0.50000 -0.24700
C 	C 	0.19200 0.80800 0.50000 -0.00800
N 	N 	0.69000 0.31000 0.50000 -0.24700
C 	C 	0.80800 0.19200 0.50000 -0.00800
C 	C 	0.65800 0.50000 0.63080 0.03000
C 	C 	0.66700 0.50000 0.69960 -0.01900
C 	C 	0.63600 0.50000 0.96500 0.00400
C 	C 	0.34200 0.50000 0.63080 0.02300
C 	C 	0.33300 0.50000 0.69960 -0.02900
C 	C 	0.36400 0.50000 0.96500 -0.00400
C 	C 	0.50000 0.65800 0.63080 0.03000
C 	C 	0.50000 0.66700 0.69960 -0.01900
C 	C 	0.50000 0.63600 0.96500 0.00400
C 	C 	0.50000 0.34200 0.63080 0.02300
C 	C 	0.50000 0.33300 0.69960 -0.02900
C 	C 	0.50000 0.36400 0.96500 -0.00400
C 	C 	0.34200 0.50000 0.36920 0.02300
C 	C 	0.33300 0.50000 0.30040 -0.02900
C 	C 	0.36400 0.50000 0.03500 -0.00400
C 	C 	0.65800 0.50000 0.36920 0.03000
C 	C 	0.66700 0.50000 0.30040 -0.01900
C 	C 	0.63600 0.50000 0.03500 0.00400
C 	C 	0.50000 0.65800 0.36920 0.03000
C 	C 	0.50000 0.66700 0.30040 -0.01900
C 	C 	0.50000 0.63600 0.03500 0.00400
C 	C 	0.50000 0.34200 0.36920 0.02300
C 	C 	0.50000 0.33300 0.30040 -0.02900
C 	C 	0.50000 0.36400 0.03500 -0.00400
