data_crystal

_cell_length_a 16.81280
_cell_length_b 16.81280
_cell_length_c 16.81280
_cell_angle_alpha 105.66400
_cell_angle_beta  105.66400
_cell_angle_gamma 105.66400

_symmetry_space_group_name_	'P 1'
_symmetry_space_group_name_H-M	'P 1'

loop_
_symmetry_equiv_pos_as_xyz
  x,y,z

loop_
_atom_site_label
_atom_site_type_symbol
_atom_site_fract_x
_atom_site_fract_y
_atom_site_fract_z
_atom_site_charge
Cu	Cu	0.43470 0.84992 0.61390 0.87700
Cu	Cu	0.37132 0.76705 0.39007 0.87000
Cu	Cu	0.28776 0.91194 0.48591 0.88000
Cu	Cu	0.61390 0.43470 0.84992 0.87700
Cu	Cu	0.39007 0.37132 0.76705 0.87000
Cu	Cu	0.48591 0.28776 0.91194 0.88000
Cu	Cu	0.84992 0.61390 0.43470 0.87800
Cu	Cu	0.76705 0.39007 0.37132 0.87100
Cu	Cu	0.91194 0.48591 0.28776 0.88100
Cu	Cu	0.56530 0.15008 0.38610 0.87800
Cu	Cu	0.62868 0.23295 0.60993 0.87100
Cu	Cu	0.71224 0.08806 0.51409 0.88100
Cu	Cu	0.38610 0.56530 0.15008 0.87800
Cu	Cu	0.60993 0.62868 0.23295 0.87100
Cu	Cu	0.51409 0.71224 0.08806 0.88100
Cu	Cu	0.15008 0.38610 0.56530 0.87800
Cu	Cu	0.23295 0.60993 0.62868 0.87100
Cu	Cu	0.08806 0.51409 0.71224 0.88100
H 	H 	0.57760 0.75590 0.65040 -0.00100
H 	H 	0.59250 0.64620 0.52560 0.07100
H 	H 	0.48360 0.63880 0.38480 -0.00400
H 	H 	0.25840 0.73780 0.18940 -0.00000
H 	H 	0.15330 0.81440 0.15520 0.06900
H 	H 	0.16240 0.91090 0.30460 0.00200
H 	H 	0.23440 0.01250 0.64400 0.00200
H 	H 	0.30560 0.02400 0.79860 0.07000
H 	H 	0.41630 0.95140 0.79650 0.00300
H 	H 	0.41420 0.65130 0.76180 0.06800
H 	H 	0.37880 0.71850 0.81520 0.07200
H 	H 	0.55660 0.74550 0.83750 0.09800
H 	H 	0.52660 0.82330 0.88240 0.10800
H 	H 	0.43520 0.91380 0.50290 0.09700
H 	H 	0.65040 0.57760 0.75590 -0.00100
H 	H 	0.52560 0.59250 0.64620 0.07100
H 	H 	0.38480 0.48360 0.63880 -0.00400
H 	H 	0.18940 0.25840 0.73780 -0.00000
H 	H 	0.15520 0.15330 0.81440 0.06900
H 	H 	0.30460 0.16240 0.91090 0.00200
H 	H 	0.64400 0.23440 0.01250 0.00200
H 	H 	0.79860 0.30560 0.02400 0.07000
H 	H 	0.79650 0.41630 0.95140 0.00300
H 	H 	0.76180 0.41420 0.65130 0.06800
H 	H 	0.81520 0.37880 0.71850 0.07200
H 	H 	0.83750 0.55660 0.74550 0.09800
H 	H 	0.88240 0.52660 0.82330 0.10800
H 	H 	0.50290 0.43520 0.91380 0.09700
H 	H 	0.75590 0.65040 0.57760 -0.00100
H 	H 	0.64620 0.52560 0.59250 0.07100
H 	H 	0.63880 0.38480 0.48360 -0.00400
H 	H 	0.73780 0.18940 0.25840 -0.00000
H 	H 	0.81440 0.15520 0.15330 0.06900
H 	H 	0.91090 0.30460 0.16240 0.00200
H 	H 	0.01250 0.64400 0.23440 0.00200
H 	H 	0.02400 0.79860 0.30560 0.07000
H 	H 	0.95140 0.79650 0.41630 0.00300
H 	H 	0.65130 0.76180 0.41420 0.06800
H 	H 	0.71850 0.81520 0.37880 0.07200
H 	H 	0.74550 0.83750 0.55660 0.09800
H 	H 	0.82330 0.88240 0.52660 0.10800
H 	H 	0.91380 0.50290 0.43520 0.09700
H 	H 	0.42240 0.24410 0.34960 -0.00100
H 	H 	0.40750 0.35380 0.47440 0.07100
H 	H 	0.51640 0.36120 0.61520 -0.00400
H 	H 	0.74160 0.26220 0.81060 -0.00000
H 	H 	0.84670 0.18560 0.84480 0.06900
H 	H 	0.83760 0.08910 0.69540 0.00200
H 	H 	0.76560 0.98750 0.35600 0.00200
H 	H 	0.69440 0.97600 0.20140 0.07000
H 	H 	0.58370 0.04860 0.20350 0.00300
H 	H 	0.58580 0.34870 0.23820 0.06800
H 	H 	0.62120 0.28150 0.18480 0.07200
H 	H 	0.44340 0.25450 0.16250 0.09800
H 	H 	0.47340 0.17670 0.11760 0.10800
H 	H 	0.56480 0.08620 0.49710 0.09700
H 	H 	0.34960 0.42240 0.24410 -0.00100
H 	H 	0.47440 0.40750 0.35380 0.07100
H 	H 	0.61520 0.51640 0.36120 -0.00400
H 	H 	0.81060 0.74160 0.26220 -0.00000
H 	H 	0.84480 0.84670 0.18560 0.06900
H 	H 	0.69540 0.83760 0.08910 0.00200
H 	H 	0.35600 0.76560 0.98750 0.00200
H 	H 	0.20140 0.69440 0.97600 0.07000
H 	H 	0.20350 0.58370 0.04860 0.00300
H 	H 	0.23820 0.58580 0.34870 0.06800
H 	H 	0.18480 0.62120 0.28150 0.07200
H 	H 	0.16250 0.44340 0.25450 0.09800
H 	H 	0.11760 0.47340 0.17670 0.10800
H 	H 	0.49710 0.56480 0.08620 0.09700
H 	H 	0.24410 0.34960 0.42240 -0.00100
H 	H 	0.35380 0.47440 0.40750 0.07100
H 	H 	0.36120 0.61520 0.51640 -0.00400
H 	H 	0.26220 0.81060 0.74160 -0.00000
H 	H 	0.18560 0.84480 0.84670 0.06900
H 	H 	0.08910 0.69540 0.83760 0.00200
H 	H 	0.98750 0.35600 0.76560 0.00200
H 	H 	0.97600 0.20140 0.69440 0.07000
H 	H 	0.04860 0.20350 0.58370 0.00300
H 	H 	0.34870 0.23820 0.58580 0.06800
H 	H 	0.28150 0.18480 0.62120 0.07200
H 	H 	0.25450 0.16250 0.44340 0.09800
H 	H 	0.17670 0.11760 0.47340 0.10800
H 	H 	0.08620 0.49710 0.56480 0.09700
C 	C 	0.54530 0.73930 0.58890 0.06800
C 	C 	0.55410 0.67840 0.52070 -0.13000
C 	C 	0.49390 0.67510 0.44350 0.06100
C 	C 	0.24610 0.77760 0.23210 0.06000
C 	C 	0.18860 0.81960 0.21220 -0.13400
C 	C 	0.19370 0.87200 0.29540 0.06600
C 	C 	0.27870 0.98960 0.66340 0.06100
C 	C 	0.31770 0.99650 0.74830 -0.13700
C 	C 	0.37780 0.95610 0.74660 0.05700
C 	C 	0.40930 0.75140 0.71550 0.35900
C 	C 	0.42440 0.71510 0.78890 -0.21100
C 	C 	0.51130 0.75820 0.86080 -0.21600
C 	C 	0.51450 0.72810 0.93660 0.34700
C 	C 	0.58890 0.54530 0.73930 0.06800
C 	C 	0.52070 0.55410 0.67840 -0.13000
C 	C 	0.44350 0.49390 0.67510 0.06100
C 	C 	0.23210 0.24610 0.77760 0.06000
C 	C 	0.21220 0.18860 0.81960 -0.13400
C 	C 	0.29540 0.19370 0.87200 0.06600
C 	C 	0.66340 0.27870 0.98960 0.06100
C 	C 	0.74830 0.31770 0.99650 -0.13700
C 	C 	0.74660 0.37780 0.95610 0.05700
C 	C 	0.71550 0.40930 0.75140 0.35900
C 	C 	0.78890 0.42440 0.71510 -0.21100
C 	C 	0.86080 0.51130 0.75820 -0.21600
C 	C 	0.93660 0.51450 0.72810 0.34700
C 	C 	0.73930 0.58890 0.54530 0.06800
C 	C 	0.67840 0.52070 0.55410 -0.13000
C 	C 	0.67510 0.44350 0.49390 0.06100
C 	C 	0.77760 0.23210 0.24610 0.06000
C 	C 	0.81960 0.21220 0.18860 -0.13400
C 	C 	0.87200 0.29540 0.19370 0.06600
C 	C 	0.98960 0.66340 0.27870 0.06100
C 	C 	0.99650 0.74830 0.31770 -0.13700
C 	C 	0.95610 0.74660 0.37780 0.05700
C 	C 	0.75140 0.71550 0.40930 0.35900
C 	C 	0.71510 0.78890 0.42440 -0.21100
C 	C 	0.75820 0.86080 0.51130 -0.21600
C 	C 	0.72810 0.93660 0.51450 0.34700
C 	C 	0.45470 0.26070 0.41110 0.06800
C 	C 	0.44590 0.32160 0.47930 -0.13000
C 	C 	0.50610 0.32490 0.55650 0.06100
C 	C 	0.75390 0.22240 0.76790 0.06000
C 	C 	0.81140 0.18040 0.78780 -0.13400
C 	C 	0.80630 0.12800 0.70460 0.06600
C 	C 	0.72130 0.01040 0.33660 0.06100
C 	C 	0.68230 0.00350 0.25170 -0.13700
C 	C 	0.62220 0.04390 0.25340 0.05700
C 	C 	0.59070 0.24860 0.28450 0.35900
C 	C 	0.57560 0.28490 0.21110 -0.21100
C 	C 	0.48870 0.24180 0.13920 -0.21600
C 	C 	0.48550 0.27190 0.06340 0.34700
C 	C 	0.41110 0.45470 0.26070 0.06800
C 	C 	0.47930 0.44590 0.32160 -0.13000
C 	C 	0.55650 0.50610 0.32490 0.06100
C 	C 	0.76790 0.75390 0.22240 0.06000
C 	C 	0.78780 0.81140 0.18040 -0.13400
C 	C 	0.70460 0.80630 0.12800 0.06600
C 	C 	0.33660 0.72130 0.01040 0.06100
C 	C 	0.25170 0.68230 0.00350 -0.13700
C 	C 	0.25340 0.62220 0.04390 0.05700
C 	C 	0.28450 0.59070 0.24860 0.35900
C 	C 	0.21110 0.57560 0.28490 -0.21100
C 	C 	0.13920 0.48870 0.24180 -0.21600
C 	C 	0.06340 0.48550 0.27190 0.34700
C 	C 	0.26070 0.41110 0.45470 0.06800
C 	C 	0.32160 0.47930 0.44590 -0.13000
C 	C 	0.32490 0.55650 0.50610 0.06100
C 	C 	0.22240 0.76790 0.75390 0.06000
C 	C 	0.18040 0.78780 0.81140 -0.13400
C 	C 	0.12800 0.70460 0.80630 0.06600
C 	C 	0.01040 0.33660 0.72130 0.06100
C 	C 	0.00350 0.25170 0.68230 -0.13700
C 	C 	0.04390 0.25340 0.62220 0.05700
C 	C 	0.24860 0.28450 0.59070 0.35900
C 	C 	0.28490 0.21110 0.57560 -0.21100
C 	C 	0.24180 0.13920 0.48870 -0.21600
C 	C 	0.27190 0.06340 0.48550 0.34700
N 	N 	0.48470 0.77150 0.55550 -0.20500
N 	N 	0.45260 0.73150 0.46530 -0.20900
N 	N 	0.28290 0.80060 0.32080 -0.21600
N 	N 	0.24860 0.85900 0.35880 -0.21200
N 	N 	0.31290 0.94500 0.61110 -0.21100
N 	N 	0.37330 0.92410 0.66190 -0.20500
N 	N 	0.55550 0.48470 0.77150 -0.20500
N 	N 	0.46530 0.45260 0.73150 -0.20900
N 	N 	0.32080 0.28290 0.80060 -0.21600
N 	N 	0.35880 0.24860 0.85900 -0.21200
N 	N 	0.61110 0.31290 0.94500 -0.21100
N 	N 	0.66190 0.37330 0.92410 -0.20500
N 	N 	0.77150 0.55550 0.48470 -0.20500
N 	N 	0.73150 0.46530 0.45260 -0.20900
N 	N 	0.80060 0.32080 0.28290 -0.21600
N 	N 	0.85900 0.35880 0.24860 -0.21200
N 	N 	0.94500 0.61110 0.31290 -0.21100
N 	N 	0.92410 0.66190 0.37330 -0.20500
N 	N 	0.51530 0.22850 0.44450 -0.20500
N 	N 	0.54740 0.26850 0.53470 -0.20900
N 	N 	0.71710 0.19940 0.67920 -0.21600
N 	N 	0.75140 0.14100 0.64120 -0.21200
N 	N 	0.68710 0.05500 0.38890 -0.21100
N 	N 	0.62670 0.07590 0.33810 -0.20500
N 	N 	0.44450 0.51530 0.22850 -0.20500
N 	N 	0.53470 0.54740 0.26850 -0.20900
N 	N 	0.67920 0.71710 0.19940 -0.21600
N 	N 	0.64120 0.75140 0.14100 -0.21200
N 	N 	0.38890 0.68710 0.05500 -0.21100
N 	N 	0.33810 0.62670 0.07590 -0.20500
N 	N 	0.22850 0.44450 0.51530 -0.20500
N 	N 	0.26850 0.53470 0.54740 -0.20900
N 	N 	0.19940 0.67920 0.71710 -0.21600
N 	N 	0.14100 0.64120 0.75140 -0.21200
N 	N 	0.05500 0.38890 0.68710 -0.21100
N 	N 	0.07590 0.33810 0.62670 -0.20500
O 	O 	0.46970 0.81920 0.72200 -0.40800
O 	O 	0.33600 0.71470 0.64970 -0.47200
O 	O 	0.52630 0.78490 0.01170 -0.39900
O 	O 	0.50370 0.65000 0.92560 -0.36300
O 	O 	0.38410 0.86330 0.49830 -0.63500
O 	O 	0.72200 0.46970 0.81920 -0.40800
O 	O 	0.64970 0.33600 0.71470 -0.47200
O 	O 	0.01170 0.52630 0.78490 -0.39900
O 	O 	0.92560 0.50370 0.65000 -0.36300
O 	O 	0.49830 0.38410 0.86330 -0.63500
O 	O 	0.81920 0.72200 0.46970 -0.40800
O 	O 	0.71470 0.64970 0.33600 -0.47200
O 	O 	0.78490 0.01170 0.52630 -0.39900
O 	O 	0.65000 0.92560 0.50370 -0.36300
O 	O 	0.86330 0.49830 0.38410 -0.63500
O 	O 	0.53030 0.18080 0.27800 -0.40800
O 	O 	0.66400 0.28530 0.35030 -0.47200
O 	O 	0.47370 0.21510 0.98830 -0.39900
O 	O 	0.49630 0.35000 0.07440 -0.36300
O 	O 	0.61590 0.13670 0.50170 -0.63500
O 	O 	0.27800 0.53030 0.18080 -0.40800
O 	O 	0.35030 0.66400 0.28530 -0.47200
O 	O 	0.98830 0.47370 0.21510 -0.39900
O 	O 	0.07440 0.49630 0.35000 -0.36300
O 	O 	0.50170 0.61590 0.13670 -0.63500
O 	O 	0.18080 0.27800 0.53030 -0.40800
O 	O 	0.28530 0.35030 0.66400 -0.47200
O 	O 	0.21510 0.98830 0.47370 -0.39900
O 	O 	0.35000 0.07440 0.49630 -0.36300
O 	O 	0.13670 0.50170 0.61590 -0.63500
