data_crystal

_cell_length_a 16.75850
_cell_length_b 16.75850
_cell_length_c 16.75850
_cell_angle_alpha 105.19200
_cell_angle_beta  105.19200
_cell_angle_gamma 105.19200

_symmetry_space_group_name_	'P 1'
_symmetry_space_group_name_H-M	'P 1'

loop_
_symmetry_equiv_pos_as_xyz
  x,y,z

loop_
_atom_site_label
_atom_site_type_symbol
_atom_site_fract_x
_atom_site_fract_y
_atom_site_fract_z
_atom_site_charge
Cu	Cu	0.43289 0.84748 0.60885 0.88100
Cu	Cu	0.36806 0.76421 0.38783 0.87100
Cu	Cu	0.28478 0.90829 0.48468 0.88700
Cu	Cu	0.60885 0.43289 0.84748 0.88100
Cu	Cu	0.38783 0.36806 0.76421 0.87100
Cu	Cu	0.48468 0.28478 0.90829 0.88700
Cu	Cu	0.84748 0.60885 0.43289 0.88200
Cu	Cu	0.76421 0.38783 0.36806 0.87200
Cu	Cu	0.90829 0.48468 0.28478 0.88800
Cu	Cu	0.56711 0.15252 0.39115 0.88200
Cu	Cu	0.63194 0.23579 0.61217 0.87200
Cu	Cu	0.71522 0.09171 0.51532 0.88800
Cu	Cu	0.39115 0.56711 0.15252 0.88200
Cu	Cu	0.61217 0.63194 0.23579 0.87200
Cu	Cu	0.51532 0.71522 0.09171 0.88800
Cu	Cu	0.15252 0.39115 0.56711 0.88200
Cu	Cu	0.23579 0.61217 0.63194 0.87200
Cu	Cu	0.09171 0.51532 0.71522 0.88800
H 	H 	0.57650 0.75790 0.64350 -0.00900
H 	H 	0.59080 0.64610 0.52110 0.08000
H 	H 	0.48230 0.63790 0.38340 -0.01100
H 	H 	0.26250 0.73940 0.18730 0.00500
H 	H 	0.17070 0.83420 0.15700 0.06700
H 	H 	0.16970 0.91730 0.30380 0.00600
H 	H 	0.24730 0.02350 0.64590 -0.00400
H 	H 	0.33070 0.03840 0.79990 0.07900
H 	H 	0.42890 0.95470 0.79410 -0.00900
H 	H 	0.41340 0.66060 0.77100 0.05500
H 	H 	0.38540 0.73430 0.82160 0.06600
H 	H 	0.55440 0.74580 0.83790 0.12200
H 	H 	0.52880 0.82370 0.88550 0.13000
H 	H 	0.42380 0.90290 0.49580 0.24900
H 	H 	0.64350 0.57650 0.75790 -0.00900
H 	H 	0.52110 0.59080 0.64610 0.08000
H 	H 	0.38340 0.48230 0.63790 -0.01100
H 	H 	0.18730 0.26250 0.73940 0.00500
H 	H 	0.15700 0.17070 0.83420 0.06700
H 	H 	0.30380 0.16970 0.91730 0.00600
H 	H 	0.64590 0.24730 0.02350 -0.00400
H 	H 	0.79990 0.33070 0.03840 0.07900
H 	H 	0.79410 0.42890 0.95470 -0.00900
H 	H 	0.77100 0.41340 0.66060 0.05500
H 	H 	0.82160 0.38540 0.73430 0.06600
H 	H 	0.83790 0.55440 0.74580 0.12200
H 	H 	0.88550 0.52880 0.82370 0.13000
H 	H 	0.49580 0.42380 0.90290 0.24900
H 	H 	0.75790 0.64350 0.57650 -0.00900
H 	H 	0.64610 0.52110 0.59080 0.08000
H 	H 	0.63790 0.38340 0.48230 -0.01100
H 	H 	0.73940 0.18730 0.26250 0.00500
H 	H 	0.83420 0.15700 0.17070 0.06700
H 	H 	0.91730 0.30380 0.16970 0.00600
H 	H 	0.02350 0.64590 0.24730 -0.00400
H 	H 	0.03840 0.79990 0.33070 0.07900
H 	H 	0.95470 0.79410 0.42890 -0.00900
H 	H 	0.66060 0.77100 0.41340 0.05500
H 	H 	0.73430 0.82160 0.38540 0.06600
H 	H 	0.74580 0.83790 0.55440 0.12200
H 	H 	0.82370 0.88550 0.52880 0.13000
H 	H 	0.90290 0.49580 0.42380 0.24900
H 	H 	0.42350 0.24210 0.35650 -0.00900
H 	H 	0.40920 0.35390 0.47890 0.08000
H 	H 	0.51770 0.36210 0.61660 -0.01100
H 	H 	0.73750 0.26060 0.81270 0.00500
H 	H 	0.82930 0.16580 0.84300 0.06700
H 	H 	0.83030 0.08270 0.69620 0.00600
H 	H 	0.75270 0.97650 0.35410 -0.00400
H 	H 	0.66930 0.96160 0.20010 0.07900
H 	H 	0.57110 0.04530 0.20590 -0.00900
H 	H 	0.58660 0.33940 0.22900 0.05500
H 	H 	0.61460 0.26570 0.17840 0.06600
H 	H 	0.44560 0.25420 0.16210 0.12200
H 	H 	0.47120 0.17630 0.11450 0.13000
H 	H 	0.57620 0.09710 0.50420 0.24900
H 	H 	0.35650 0.42350 0.24210 -0.00900
H 	H 	0.47890 0.40920 0.35390 0.08000
H 	H 	0.61660 0.51770 0.36210 -0.01100
H 	H 	0.81270 0.73750 0.26060 0.00500
H 	H 	0.84300 0.82930 0.16580 0.06700
H 	H 	0.69620 0.83030 0.08270 0.00600
H 	H 	0.35410 0.75270 0.97650 -0.00400
H 	H 	0.20010 0.66930 0.96160 0.07900
H 	H 	0.20590 0.57110 0.04530 -0.00900
H 	H 	0.22900 0.58660 0.33940 0.05500
H 	H 	0.17840 0.61460 0.26570 0.06600
H 	H 	0.16210 0.44560 0.25420 0.12200
H 	H 	0.11450 0.47120 0.17630 0.13000
H 	H 	0.50420 0.57620 0.09710 0.24900
H 	H 	0.24210 0.35650 0.42350 -0.00900
H 	H 	0.35390 0.47890 0.40920 0.08000
H 	H 	0.36210 0.61660 0.51770 -0.01100
H 	H 	0.26060 0.81270 0.73750 0.00500
H 	H 	0.16580 0.84300 0.82930 0.06700
H 	H 	0.08270 0.69620 0.83030 0.00600
H 	H 	0.97650 0.35410 0.75270 -0.00400
H 	H 	0.96160 0.20010 0.66930 0.07900
H 	H 	0.04530 0.20590 0.57110 -0.00900
H 	H 	0.33940 0.22900 0.58660 0.05500
H 	H 	0.26570 0.17840 0.61460 0.06600
H 	H 	0.25420 0.16210 0.44560 0.12200
H 	H 	0.17630 0.11450 0.47120 0.13000
H 	H 	0.09710 0.50420 0.57620 0.24900
C 	C 	0.54370 0.74010 0.58370 0.08800
C 	C 	0.55280 0.67760 0.51590 -0.15300
C 	C 	0.49310 0.67360 0.44070 0.07100
C 	C 	0.25230 0.78050 0.22900 0.04200
C 	C 	0.19980 0.83220 0.21150 -0.12200
C 	C 	0.20140 0.87970 0.29500 0.05400
C 	C 	0.28940 0.99840 0.66220 0.07400
C 	C 	0.33680 0.00630 0.74880 -0.16400
C 	C 	0.39130 0.96120 0.74630 0.09000
C 	C 	0.41200 0.75500 0.71520 0.35200
C 	C 	0.42800 0.72410 0.79430 -0.16900
C 	C 	0.51130 0.75980 0.86250 -0.28600
C 	C 	0.51360 0.72670 0.93680 0.40500
C 	C 	0.58370 0.54370 0.74010 0.08800
C 	C 	0.51590 0.55280 0.67760 -0.15300
C 	C 	0.44070 0.49310 0.67360 0.07100
C 	C 	0.22900 0.25230 0.78050 0.04200
C 	C 	0.21150 0.19980 0.83220 -0.12200
C 	C 	0.29500 0.20140 0.87970 0.05400
C 	C 	0.66220 0.28940 0.99840 0.07400
C 	C 	0.74880 0.33680 0.00630 -0.16400
C 	C 	0.74630 0.39130 0.96120 0.09000
C 	C 	0.71520 0.41200 0.75500 0.35200
C 	C 	0.79430 0.42800 0.72410 -0.16900
C 	C 	0.86250 0.51130 0.75980 -0.28600
C 	C 	0.93680 0.51360 0.72670 0.40500
C 	C 	0.74010 0.58370 0.54370 0.08800
C 	C 	0.67760 0.51590 0.55280 -0.15300
C 	C 	0.67360 0.44070 0.49310 0.07100
C 	C 	0.78050 0.22900 0.25230 0.04200
C 	C 	0.83220 0.21150 0.19980 -0.12200
C 	C 	0.87970 0.29500 0.20140 0.05400
C 	C 	0.99840 0.66220 0.28940 0.07400
C 	C 	0.00630 0.74880 0.33680 -0.16400
C 	C 	0.96120 0.74630 0.39130 0.09000
C 	C 	0.75500 0.71520 0.41200 0.35200
C 	C 	0.72410 0.79430 0.42800 -0.16900
C 	C 	0.75980 0.86250 0.51130 -0.28600
C 	C 	0.72670 0.93680 0.51360 0.40500
C 	C 	0.45630 0.25990 0.41630 0.08800
C 	C 	0.44720 0.32240 0.48410 -0.15300
C 	C 	0.50690 0.32640 0.55930 0.07100
C 	C 	0.74770 0.21950 0.77100 0.04200
C 	C 	0.80020 0.16780 0.78850 -0.12200
C 	C 	0.79860 0.12030 0.70500 0.05400
C 	C 	0.71060 0.00160 0.33780 0.07400
C 	C 	0.66320 0.99370 0.25120 -0.16400
C 	C 	0.60870 0.03880 0.25370 0.09000
C 	C 	0.58800 0.24500 0.28480 0.35200
C 	C 	0.57200 0.27590 0.20570 -0.16900
C 	C 	0.48870 0.24020 0.13750 -0.28600
C 	C 	0.48640 0.27330 0.06320 0.40500
C 	C 	0.41630 0.45630 0.25990 0.08800
C 	C 	0.48410 0.44720 0.32240 -0.15300
C 	C 	0.55930 0.50690 0.32640 0.07100
C 	C 	0.77100 0.74770 0.21950 0.04200
C 	C 	0.78850 0.80020 0.16780 -0.12200
C 	C 	0.70500 0.79860 0.12030 0.05400
C 	C 	0.33780 0.71060 0.00160 0.07400
C 	C 	0.25120 0.66320 0.99370 -0.16400
C 	C 	0.25370 0.60870 0.03880 0.09000
C 	C 	0.28480 0.58800 0.24500 0.35200
C 	C 	0.20570 0.57200 0.27590 -0.16900
C 	C 	0.13750 0.48870 0.24020 -0.28600
C 	C 	0.06320 0.48640 0.27330 0.40500
C 	C 	0.25990 0.41630 0.45630 0.08800
C 	C 	0.32240 0.48410 0.44720 -0.15300
C 	C 	0.32640 0.55930 0.50690 0.07100
C 	C 	0.21950 0.77100 0.74770 0.04200
C 	C 	0.16780 0.78850 0.80020 -0.12200
C 	C 	0.12030 0.70500 0.79860 0.05400
C 	C 	0.00160 0.33780 0.71060 0.07400
C 	C 	0.99370 0.25120 0.66320 -0.16400
C 	C 	0.03880 0.25370 0.60870 0.09000
C 	C 	0.24500 0.28480 0.58800 0.35200
C 	C 	0.27590 0.20570 0.57200 -0.16900
C 	C 	0.24020 0.13750 0.48870 -0.28600
C 	C 	0.27330 0.06320 0.48640 0.40500
N 	N 	0.48310 0.77000 0.55140 -0.21100
N 	N 	0.45250 0.73060 0.46420 -0.20800
N 	N 	0.28470 0.80250 0.31800 -0.21000
N 	N 	0.25520 0.86420 0.36230 -0.21700
N 	N 	0.31680 0.94770 0.60870 -0.22200
N 	N 	0.38130 0.92820 0.66360 -0.21600
N 	N 	0.55140 0.48310 0.77000 -0.21100
N 	N 	0.46420 0.45250 0.73060 -0.20800
N 	N 	0.31800 0.28470 0.80250 -0.21000
N 	N 	0.36230 0.25520 0.86420 -0.21700
N 	N 	0.60870 0.31680 0.94770 -0.22200
N 	N 	0.66360 0.38130 0.92820 -0.21600
N 	N 	0.77000 0.55140 0.48310 -0.21100
N 	N 	0.73060 0.46420 0.45250 -0.20800
N 	N 	0.80250 0.31800 0.28470 -0.21000
N 	N 	0.86420 0.36230 0.25520 -0.21700
N 	N 	0.94770 0.60870 0.31680 -0.22200
N 	N 	0.92820 0.66360 0.38130 -0.21600
N 	N 	0.51690 0.23000 0.44860 -0.21100
N 	N 	0.54750 0.26940 0.53580 -0.20800
N 	N 	0.71530 0.19750 0.68200 -0.21000
N 	N 	0.74480 0.13580 0.63770 -0.21700
N 	N 	0.68320 0.05230 0.39130 -0.22200
N 	N 	0.61870 0.07180 0.33640 -0.21600
N 	N 	0.44860 0.51690 0.23000 -0.21100
N 	N 	0.53580 0.54750 0.26940 -0.20800
N 	N 	0.68200 0.71530 0.19750 -0.21000
N 	N 	0.63770 0.74480 0.13580 -0.21700
N 	N 	0.39130 0.68320 0.05230 -0.22200
N 	N 	0.33640 0.61870 0.07180 -0.21600
N 	N 	0.23000 0.44860 0.51690 -0.21100
N 	N 	0.26940 0.53580 0.54750 -0.20800
N 	N 	0.19750 0.68200 0.71530 -0.21000
N 	N 	0.13580 0.63770 0.74480 -0.21700
N 	N 	0.05230 0.39130 0.68320 -0.22200
N 	N 	0.07180 0.33640 0.61870 -0.21600
O 	O 	0.47240 0.82150 0.71850 -0.40600
O 	O 	0.33950 0.71890 0.65370 -0.47500
O 	O 	0.52350 0.78120 0.01040 -0.42400
O 	O 	0.51040 0.65210 0.92640 -0.38200
O 	O 	0.38330 0.86180 0.49310 -0.77800
O 	O 	0.71850 0.47240 0.82150 -0.40600
O 	O 	0.65370 0.33950 0.71890 -0.47500
O 	O 	0.01040 0.52350 0.78120 -0.42400
O 	O 	0.92640 0.51040 0.65210 -0.38200
O 	O 	0.49310 0.38330 0.86180 -0.77800
O 	O 	0.82150 0.71850 0.47240 -0.40600
O 	O 	0.71890 0.65370 0.33950 -0.47500
O 	O 	0.78120 0.01040 0.52350 -0.42400
O 	O 	0.65210 0.92640 0.51040 -0.38200
O 	O 	0.86180 0.49310 0.38330 -0.77800
O 	O 	0.52760 0.17850 0.28150 -0.40600
O 	O 	0.66050 0.28110 0.34630 -0.47500
O 	O 	0.47650 0.21880 0.98960 -0.42400
O 	O 	0.48960 0.34790 0.07360 -0.38200
O 	O 	0.61670 0.13820 0.50690 -0.77800
O 	O 	0.28150 0.52760 0.17850 -0.40600
O 	O 	0.34630 0.66050 0.28110 -0.47500
O 	O 	0.98960 0.47650 0.21880 -0.42400
O 	O 	0.07360 0.48960 0.34790 -0.38200
O 	O 	0.50690 0.61670 0.13820 -0.77800
O 	O 	0.17850 0.28150 0.52760 -0.40600
O 	O 	0.28110 0.34630 0.66050 -0.47500
O 	O 	0.21880 0.98960 0.47650 -0.42400
O 	O 	0.34790 0.07360 0.48960 -0.38200
O 	O 	0.13820 0.50690 0.61670 -0.77800
