data_crystal

_cell_length_a 8.43190
_cell_length_b 12.82510
_cell_length_c 20.92400
_cell_angle_alpha 73.46200
_cell_angle_beta  84.69200
_cell_angle_gamma 78.30700

_symmetry_space_group_name_	'P 1'
_symmetry_space_group_name_H-M	'P 1'

loop_
_symmetry_equiv_pos_as_xyz
  x,y,z

loop_
_atom_site_label
_atom_site_type_symbol
_atom_site_fract_x
_atom_site_fract_y
_atom_site_fract_z
_atom_site_charge
Mg	Mg	0.43397 0.82994 0.00053 1.46000
Mg	Mg	0.56603 0.17006 0.99947 1.47200
Mg	Mg	-0.00000 0.00000 -0.00000 1.44500
H 	H 	0.58430 0.04700 0.18770 -0.09000
H 	H 	0.35490 0.74630 0.30510 0.11600
H 	H 	0.35110 0.80150 0.19070 -0.02100
H 	H 	0.16000 0.70600 0.74200 0.10800
H 	H 	0.93080 0.52870 0.75010 0.05800
H 	H 	0.60700 0.98410 0.30080 0.15000
H 	H 	0.01540 0.79280 0.62900 -0.02000
H 	H 	0.65070 0.80330 0.76770 0.02300
H 	H 	0.13400 0.16020 0.85370 0.01900
H 	H 	0.48850 0.74820 0.70500 0.09400
H 	H 	0.44860 0.41480 0.77140 0.03300
H 	H 	0.30830 0.72570 0.82440 0.00400
H 	H 	0.95160 0.96900 0.85860 0.00200
H 	H 	0.62170 0.52140 0.70500 0.08000
H 	H 	0.09970 0.55510 0.63810 0.02500
H 	H 	0.30070 0.26580 0.78110 0.06600
H 	H 	0.27090 0.66570 0.57290 0.07700
H 	H 	0.57430 0.57730 0.50490 0.08900
H 	H 	0.79850 0.94620 0.77890 0.12800
H 	H 	0.76670 0.42460 0.82580 0.04100
H 	H 	0.52850 0.88700 0.52330 0.09900
H 	H 	0.85560 0.73380 0.56680 0.10800
H 	H 	0.49610 0.95780 0.40970 0.02700
H 	H 	0.53380 0.64870 0.39280 0.01700
H 	H 	0.41570 0.95300 0.81230 0.10600
H 	H 	0.64510 0.25370 0.69490 0.06700
H 	H 	0.64890 0.19850 0.80930 0.03600
H 	H 	0.84000 0.29400 0.25800 0.04200
H 	H 	0.06920 0.47130 0.24990 0.10800
H 	H 	0.39300 0.01590 0.69920 0.03000
H 	H 	0.98460 0.20720 0.37100 0.09500
H 	H 	0.34930 0.19670 0.23230 0.04700
H 	H 	0.86600 0.83980 0.14630 -0.02000
H 	H 	0.51150 0.25180 0.29500 0.06100
H 	H 	0.55140 0.58520 0.22860 0.01500
H 	H 	0.69170 0.27430 0.17560 0.05100
H 	H 	0.04840 0.03100 0.14140 0.02400
H 	H 	0.37830 0.47860 0.29500 0.08500
H 	H 	0.90030 0.44490 0.36190 0.02900
H 	H 	0.69930 0.73420 0.21890 0.11500
H 	H 	0.72910 0.33430 0.42710 0.08700
H 	H 	0.42570 0.42270 0.49510 0.07400
H 	H 	0.20150 0.05380 0.22110 0.03700
H 	H 	0.23330 0.57540 0.17420 -0.01600
H 	H 	0.47150 0.11300 0.47670 0.06400
H 	H 	0.14440 0.26620 0.43320 0.04300
H 	H 	0.50390 0.04220 0.59030 0.01800
H 	H 	0.46620 0.35130 0.60720 0.03600
C 	C 	0.54250 0.98450 0.21120 0.28600
C 	C 	0.46790 0.92990 0.17650 -0.28400
C 	C 	0.40630 0.80410 0.28130 -0.24100
C 	C 	0.40050 0.83900 0.21290 0.18000
C 	C 	0.83560 0.21380 0.90360 0.37800
C 	C 	0.48930 0.85490 0.31570 0.18100
C 	C 	0.11670 0.75640 0.76620 -0.22600
C 	C 	0.96060 0.82120 0.75270 0.17200
C 	C 	0.25060 0.47520 0.71370 -0.02500
C 	C 	0.97220 0.45550 0.77200 -0.05200
C 	C 	0.93490 0.28210 0.85030 -0.07600
C 	C 	0.23420 0.84630 0.91070 0.36400
C 	C 	0.85430 0.79880 0.70740 -0.10100
C 	C 	0.46530 0.96680 0.10200 0.55800
C 	C 	0.14020 0.84390 0.85300 -0.19300
C 	C 	0.46320 0.60940 0.63330 0.11900
C 	C 	0.55490 0.94760 0.27890 -0.28300
C 	C 	0.91220 0.78100 0.64510 0.10600
C 	C 	0.69270 0.78760 0.72810 0.05200
C 	C 	0.13680 0.40910 0.75840 0.01000
C 	C 	0.09500 0.23480 0.83420 -0.03000
C 	C 	0.59510 0.75390 0.69090 -0.16300
C 	C 	0.41180 0.46580 0.73180 -0.00800
C 	C 	0.20530 0.76810 0.81580 0.11800
C 	C 	0.99010 0.91430 0.83690 0.14100
C 	C 	0.55320 0.72490 0.52660 0.14200
C 	C 	0.51590 0.53050 0.69230 -0.13100
C 	C 	0.20270 0.54980 0.65270 -0.01100
C 	C 	0.65920 0.72840 0.63140 0.15100
C 	C 	0.19470 0.29780 0.78990 -0.08500
C 	C 	0.30620 0.61620 0.61310 -0.13100
C 	C 	0.55660 0.65350 0.48610 -0.15900
C 	C 	0.89990 0.90170 0.78840 -0.19700
C 	C 	0.87320 0.39320 0.81730 0.00300
C 	C 	0.51040 0.81100 0.38860 -0.09200
C 	C 	0.53020 0.83920 0.49700 -0.15700
C 	C 	0.81600 0.74580 0.60760 -0.18500
C 	C 	0.51000 0.88170 0.42880 0.04600
C 	C 	0.53380 0.69650 0.41890 0.04400
C 	C 	0.45750 0.01550 0.78880 -0.10600
C 	C 	0.53210 0.07010 0.82350 -0.08900
C 	C 	0.59370 0.19590 0.71870 -0.09900
C 	C 	0.59950 0.16100 0.78710 0.00800
C 	C 	0.16440 0.78620 0.09640 0.41900
C 	C 	0.51070 0.14510 0.68430 0.03000
C 	C 	0.88330 0.24360 0.23380 -0.01500
C 	C 	0.03940 0.17880 0.24730 -0.04700
C 	C 	0.74940 0.52480 0.28630 -0.08300
C 	C 	0.02780 0.54450 0.22800 -0.24800
C 	C 	0.06510 0.71790 0.14970 -0.23700
C 	C 	0.76580 0.15370 0.08930 0.32600
C 	C 	0.14570 0.20120 0.29260 0.03400
C 	C 	0.53470 0.03320 0.89800 0.35200
C 	C 	0.85980 0.15610 0.14700 -0.04700
C 	C 	0.53680 0.39060 0.36670 0.13200
C 	C 	0.44510 0.05240 0.72110 -0.05000
C 	C 	0.08780 0.21900 0.35490 -0.13300
C 	C 	0.30730 0.21240 0.27190 -0.06200
C 	C 	0.86320 0.59090 0.24160 0.16900
C 	C 	0.90500 0.76520 0.16580 0.15900
C 	C 	0.40490 0.24610 0.30910 -0.09200
C 	C 	0.58820 0.53420 0.26820 0.03100
C 	C 	0.79470 0.23190 0.18420 -0.03800
C 	C 	0.00990 0.08570 0.16310 -0.08000
C 	C 	0.44680 0.27510 0.47340 0.11300
C 	C 	0.48410 0.46950 0.30770 -0.15400
C 	C 	0.79730 0.45020 0.34730 0.03200
C 	C 	0.34080 0.27160 0.36860 0.07600
C 	C 	0.80530 0.70220 0.21010 -0.22300
C 	C 	0.69380 0.38380 0.38690 -0.15200
C 	C 	0.44340 0.34650 0.51390 -0.12600
C 	C 	0.10010 0.09830 0.21160 -0.04400
C 	C 	0.12680 0.60680 0.18270 0.13600
C 	C 	0.48960 0.18900 0.61140 -0.02700
C 	C 	0.46980 0.16080 0.50300 -0.12700
C 	C 	0.18400 0.25420 0.39240 -0.06200
C 	C 	0.49000 0.11830 0.57120 -0.01000
C 	C 	0.46620 0.30350 0.58110 -0.00800
N 	N 	0.56630 0.68230 0.59646 -0.17400
N 	N 	0.43370 0.31770 0.40354 -0.16300
O 	O 	0.35940 0.77130 0.92675 -0.44500
O 	O 	0.18910 0.92210 0.94120 -0.54700
O 	O 	0.70690 0.26220 0.92687 -0.47100
O 	O 	0.89080 0.10890 0.92081 -0.54400
O 	O 	0.44180 0.07000 0.07450 -0.61200
O 	O 	0.48530 0.89160 0.07234 -0.60000
O 	O 	0.64060 0.22870 0.07325 -0.48200
O 	O 	0.81090 0.07790 0.05880 -0.60300
O 	O 	0.29310 0.73780 0.07313 -0.52400
O 	O 	0.10920 0.89110 0.07919 -0.57900
O 	O 	0.55820 0.93000 0.92550 -0.45200
O 	O 	0.51470 0.10840 0.92766 -0.52700
