data_crystal

_cell_length_a 9.40030
_cell_length_b 9.40030
_cell_length_c 17.35000
_cell_angle_alpha 90.00000
_cell_angle_beta  90.00000
_cell_angle_gamma 120.00000

_symmetry_space_group_name_	'P 1'
_symmetry_space_group_name_H-M	'P 1'

loop_
_symmetry_equiv_pos_as_xyz
  x,y,z

loop_
_atom_site_label
_atom_site_type_symbol
_atom_site_fract_x
_atom_site_fract_y
_atom_site_fract_z
_atom_site_charge
Pr	Pr	0.33333 0.66666 0.75000 2.05800
Pr	Pr	0.66667 0.33334 0.25000 2.05900
Pr	Pr	-0.00000 0.00000 -0.00000 1.96600
Pr	Pr	-0.00000 0.00000 0.50000 1.98200
H 	H 	0.50150 0.67180 0.97410 0.12400
H 	H 	0.57540 0.59550 0.91720 0.12200
H 	H 	0.17030 0.49850 0.97410 0.07800
H 	H 	0.02010 0.42460 0.91720 0.03800
H 	H 	0.32820 0.82970 0.97410 0.08200
H 	H 	0.40450 0.97990 0.91720 0.11500
H 	H 	0.50150 0.67180 0.52590 0.12800
H 	H 	0.57540 0.59550 0.58280 0.13300
H 	H 	0.17030 0.49850 0.52590 0.08300
H 	H 	0.02010 0.42460 0.58280 0.05000
H 	H 	0.32820 0.82970 0.52590 0.08600
H 	H 	0.40450 0.97990 0.58280 0.12700
H 	H 	0.82970 0.32820 0.02590 0.06200
H 	H 	0.97990 0.40450 0.08280 0.10800
H 	H 	0.67180 0.50150 0.02590 0.10900
H 	H 	0.59550 0.57540 0.08280 0.11400
H 	H 	0.49850 0.17030 0.02590 0.06800
H 	H 	0.42460 0.02010 0.08280 0.03900
H 	H 	0.82970 0.32820 0.47410 0.08400
H 	H 	0.97990 0.40450 0.41720 0.12500
H 	H 	0.67180 0.50150 0.47410 0.13000
H 	H 	0.59550 0.57540 0.41720 0.13000
H 	H 	0.49850 0.17030 0.47410 0.08900
H 	H 	0.42460 0.02010 0.41720 0.05500
C 	C 	0.65160 0.83410 0.89390 0.43700
C 	C 	0.60000 0.69290 0.94660 -0.22900
C 	C 	0.18250 0.34840 0.89390 0.40300
C 	C 	0.09290 0.40000 0.94660 -0.15000
C 	C 	0.16590 0.81750 0.89390 0.41100
C 	C 	0.30710 0.90710 0.94660 -0.04900
C 	C 	0.65160 0.83410 0.60610 0.45500
C 	C 	0.60000 0.69290 0.55340 -0.30500
C 	C 	0.18250 0.34840 0.60610 0.42300
C 	C 	0.09290 0.40000 0.55340 -0.23500
C 	C 	0.16590 0.81750 0.60610 0.42900
C 	C 	0.30710 0.90710 0.55340 -0.12700
C 	C 	0.81750 0.16590 0.10610 0.41100
C 	C 	0.90710 0.30710 0.05340 -0.07200
C 	C 	0.83410 0.65160 0.10610 0.44200
C 	C 	0.69290 0.60000 0.05340 -0.27500
C 	C 	0.34840 0.18250 0.10610 0.41400
C 	C 	0.40000 0.09290 0.05340 -0.21400
C 	C 	0.81750 0.16590 0.39390 0.42400
C 	C 	0.90710 0.30710 0.44660 -0.10500
C 	C 	0.83410 0.65160 0.39390 0.45500
C 	C 	0.69290 0.60000 0.44660 -0.30500
C 	C 	0.34840 0.18250 0.39390 0.42700
C 	C 	0.40000 0.09290 0.44660 -0.24400
O 	O 	0.78920 0.96140 0.90350 -0.29300
O 	O 	0.55270 0.82310 0.84280 -0.47000
O 	O 	0.17220 0.21080 0.90350 -0.48300
O 	O 	0.27040 0.44730 0.84280 -0.51500
O 	O 	0.03860 0.82780 0.90350 -0.44100
O 	O 	0.17690 0.72960 0.84280 -0.51100
O 	O 	0.78920 0.96140 0.59650 -0.31800
O 	O 	0.55270 0.82310 0.65720 -0.47700
O 	O 	0.17220 0.21080 0.59650 -0.51300
O 	O 	0.27040 0.44730 0.65720 -0.52400
O 	O 	0.03860 0.82780 0.59650 -0.46900
O 	O 	0.17690 0.72960 0.65720 -0.51900
O 	O 	0.82780 0.03860 0.09650 -0.45900
O 	O 	0.72960 0.17690 0.15720 -0.51400
O 	O 	0.96140 0.78920 0.09650 -0.31900
O 	O 	0.82310 0.55270 0.15720 -0.47500
O 	O 	0.21080 0.17220 0.09650 -0.52100
O 	O 	0.44730 0.27040 0.15720 -0.52500
O 	O 	0.82780 0.03860 0.40350 -0.45800
O 	O 	0.72960 0.17690 0.34280 -0.51700
O 	O 	0.96140 0.78920 0.40350 -0.31800
O 	O 	0.82310 0.55270 0.34280 -0.47800
O 	O 	0.21080 0.17220 0.40350 -0.51800
O 	O 	0.44730 0.27040 0.34280 -0.52700
O 	O 	0.72850 0.72850 -0.00000 -0.21100
O 	O 	-0.00000 0.27150 -0.00000 -0.44700
O 	O 	0.27150 0.00000 -0.00000 -0.43000
O 	O 	0.72850 0.72850 0.50000 -0.15500
O 	O 	-0.00000 0.27150 0.50000 -0.38700
O 	O 	0.27150 0.00000 0.50000 -0.37300
