data_crystal

_cell_length_a 18.62970
_cell_length_b 18.62970
_cell_length_c 38.49200
_cell_angle_alpha 90.00000
_cell_angle_beta  90.00000
_cell_angle_gamma 120.00000

_symmetry_space_group_name_	'P 1'
_symmetry_space_group_name_H-M	'P 1'

loop_
_symmetry_equiv_pos_as_xyz
  x,y,z

loop_
_atom_site_label
_atom_site_type_symbol
_atom_site_fract_x
_atom_site_fract_y
_atom_site_fract_z
_atom_site_charge
C 	C 	0.38800 0.24520 0.15541 -0.04200
H 	H 	0.42460 0.30010 0.14760 0.04300
C 	C 	0.36440 0.23180 0.18953 -0.04600
H 	H 	0.38760 0.27710 0.20530 0.04500
C 	C 	0.40270 0.13698 0.07782 -0.00400
H 	H 	0.39290 0.08780 0.08930 0.04400
C 	C 	0.43196 0.15158 0.04373 -0.09500
C 	C 	0.45303 0.09281 0.02660 0.36000
O 	O 	0.44231 0.03113 0.04390 -0.41200
O 	O 	0.48237 0.11076 0.99621 -0.40700
C 	C 	0.05467 0.57853 0.48874 -0.04200
H 	H 	0.09127 0.63343 0.48093 0.04300
C 	C 	0.03107 0.56513 0.52286 -0.04600
H 	H 	0.05427 0.61043 0.53863 0.04500
C 	C 	0.06937 0.47031 0.41115 -0.00400
H 	H 	0.05957 0.42113 0.42263 0.04400
C 	C 	0.09863 0.48491 0.37706 -0.09500
C 	C 	0.11970 0.42614 0.35993 0.36000
O 	O 	0.10898 0.36446 0.37723 -0.41200
O 	O 	0.14904 0.44409 0.32954 -0.40700
C 	C 	0.72133 0.91187 0.82208 -0.04200
H 	H 	0.75793 0.96677 0.81427 0.04300
C 	C 	0.69773 0.89847 0.85620 -0.04700
H 	H 	0.72093 0.94377 0.87197 0.04500
C 	C 	0.73603 0.80365 0.74449 -0.00400
H 	H 	0.72623 0.75447 0.75597 0.04400
C 	C 	0.76529 0.81825 0.71040 -0.09500
C 	C 	0.78636 0.75948 0.69327 0.36000
O 	O 	0.77564 0.69780 0.71057 -0.41200
O 	O 	0.81570 0.77743 0.66288 -0.40700
C 	C 	0.75480 0.14280 0.15541 -0.04200
H 	H 	0.69990 0.12450 0.14760 0.04300
C 	C 	0.76820 0.13260 0.18953 -0.04600
H 	H 	0.72290 0.11050 0.20530 0.04500
C 	C 	0.86302 0.26572 0.07782 -0.00400
H 	H 	0.91220 0.30510 0.08930 0.04400
C 	C 	0.84842 0.28038 0.04373 -0.09500
C 	C 	0.90719 0.36022 0.02660 0.36000
O 	O 	0.96887 0.41118 0.04390 -0.41200
O 	O 	0.88924 0.37161 0.99621 -0.40700
C 	C 	0.42147 0.47613 0.48874 -0.04200
H 	H 	0.36657 0.45783 0.48093 0.04300
C 	C 	0.43487 0.46593 0.52286 -0.04600
H 	H 	0.38957 0.44383 0.53863 0.04500
C 	C 	0.52969 0.59905 0.41115 -0.00300
H 	H 	0.57887 0.63843 0.42263 0.04500
C 	C 	0.51509 0.61371 0.37706 -0.09400
C 	C 	0.57386 0.69355 0.35993 0.36100
O 	O 	0.63554 0.74451 0.37723 -0.41100
O 	O 	0.55591 0.70494 0.32954 -0.40600
C 	C 	0.08813 0.80947 0.82208 -0.04100
H 	H 	0.03323 0.79117 0.81427 0.04400
C 	C 	0.10153 0.79927 0.85620 -0.04500
H 	H 	0.05623 0.77717 0.87197 0.04600
C 	C 	0.19635 0.93239 0.74449 -0.00300
H 	H 	0.24553 0.97177 0.75597 0.04500
C 	C 	0.18175 0.94705 0.71040 -0.09400
C 	C 	0.24052 0.02689 0.69327 0.36100
O 	O 	0.30220 0.07785 0.71057 -0.41100
O 	O 	0.22257 0.03828 0.66288 -0.40600
C 	C 	0.85720 0.61200 0.15541 -0.04100
H 	H 	0.87550 0.57540 0.14760 0.04400
C 	C 	0.86740 0.63560 0.18953 -0.04500
H 	H 	0.88950 0.61240 0.20530 0.04600
C 	C 	0.73428 0.59730 0.07782 -0.00300
H 	H 	0.69490 0.60710 0.08930 0.04500
C 	C 	0.71962 0.56804 0.04373 -0.09400
C 	C 	0.63978 0.54697 0.02660 0.36100
O 	O 	0.58882 0.55769 0.04390 -0.41100
O 	O 	0.62839 0.51763 0.99621 -0.40600
C 	C 	0.52387 0.94533 0.48874 -0.04100
H 	H 	0.54217 0.90873 0.48093 0.04400
C 	C 	0.53407 0.96893 0.52286 -0.04500
H 	H 	0.55617 0.94573 0.53863 0.04600
C 	C 	0.40095 0.93063 0.41115 -0.00300
H 	H 	0.36157 0.94043 0.42263 0.04500
C 	C 	0.38629 0.90137 0.37706 -0.09400
C 	C 	0.30645 0.88030 0.35993 0.36100
O 	O 	0.25549 0.89102 0.37723 -0.41100
O 	O 	0.29506 0.85096 0.32954 -0.40600
C 	C 	0.19053 0.27867 0.82208 -0.04100
H 	H 	0.20883 0.24207 0.81427 0.04400
C 	C 	0.20073 0.30227 0.85620 -0.04600
H 	H 	0.22283 0.27907 0.87197 0.04600
C 	C 	0.06761 0.26397 0.74449 -0.00300
H 	H 	0.02823 0.27377 0.75597 0.04500
C 	C 	0.05295 0.23471 0.71040 -0.09400
C 	C 	0.97311 0.21364 0.69327 0.36100
O 	O 	0.92215 0.22436 0.71057 -0.41100
O 	O 	0.96172 0.18430 0.66288 -0.40600
C 	C 	0.24520 0.38800 0.84459 -0.04100
H 	H 	0.30010 0.42460 0.85240 0.04400
C 	C 	0.23180 0.36440 0.81047 -0.04500
H 	H 	0.27710 0.38760 0.79470 0.04600
C 	C 	0.13698 0.40270 0.92218 -0.00300
H 	H 	0.08780 0.39290 0.91070 0.04500
C 	C 	0.15158 0.43196 0.95627 -0.09400
C 	C 	0.09281 0.45303 0.97340 0.36100
O 	O 	0.03113 0.44231 0.95610 -0.41100
O 	O 	0.11076 0.48237 0.00379 -0.40600
C 	C 	0.91187 0.72133 0.17792 -0.04100
H 	H 	0.96677 0.75793 0.18573 0.04400
C 	C 	0.89847 0.69773 0.14380 -0.04600
H 	H 	0.94377 0.72093 0.12803 0.04600
C 	C 	0.80365 0.73603 0.25551 -0.00300
H 	H 	0.75447 0.72623 0.24403 0.04500
C 	C 	0.81825 0.76529 0.28960 -0.09400
C 	C 	0.75948 0.78636 0.30673 0.36100
O 	O 	0.69780 0.77564 0.28943 -0.41100
O 	O 	0.77743 0.81570 0.33712 -0.40600
C 	C 	0.57853 0.05467 0.51126 -0.04100
H 	H 	0.63343 0.09127 0.51907 0.04400
C 	C 	0.56513 0.03107 0.47714 -0.04500
H 	H 	0.61043 0.05427 0.46137 0.04600
C 	C 	0.47031 0.06937 0.58885 -0.00300
H 	H 	0.42113 0.05957 0.57737 0.04500
C 	C 	0.48491 0.09863 0.62294 -0.09400
C 	C 	0.42614 0.11970 0.64007 0.36100
O 	O 	0.36446 0.10898 0.62277 -0.41100
O 	O 	0.44409 0.14904 0.67046 -0.40600
C 	C 	0.14280 0.75480 0.84459 -0.04100
H 	H 	0.12450 0.69990 0.85240 0.04400
C 	C 	0.13260 0.76820 0.81047 -0.04500
H 	H 	0.11050 0.72290 0.79470 0.04600
C 	C 	0.26572 0.86302 0.92218 -0.00300
H 	H 	0.30510 0.91220 0.91070 0.04500
C 	C 	0.28038 0.84842 0.95627 -0.09400
C 	C 	0.36022 0.90719 0.97340 0.36100
O 	O 	0.41118 0.96887 0.95610 -0.41100
O 	O 	0.37161 0.88924 0.00379 -0.40600
C 	C 	0.80947 0.08813 0.17792 -0.04100
H 	H 	0.79117 0.03323 0.18573 0.04400
C 	C 	0.79927 0.10153 0.14380 -0.04500
H 	H 	0.77717 0.05623 0.12803 0.04600
C 	C 	0.93239 0.19635 0.25551 -0.00300
H 	H 	0.97177 0.24553 0.24403 0.04500
C 	C 	0.94705 0.18175 0.28960 -0.09400
C 	C 	0.02689 0.24052 0.30673 0.36100
O 	O 	0.07785 0.30220 0.28943 -0.41100
O 	O 	0.03828 0.22257 0.33712 -0.40600
C 	C 	0.47613 0.42147 0.51126 -0.04100
H 	H 	0.45783 0.36657 0.51907 0.04400
C 	C 	0.46593 0.43487 0.47714 -0.04500
H 	H 	0.44383 0.38957 0.46137 0.04600
C 	C 	0.59905 0.52969 0.58885 -0.00300
H 	H 	0.63843 0.57887 0.57737 0.04500
C 	C 	0.61371 0.51509 0.62294 -0.09400
C 	C 	0.69355 0.57386 0.64007 0.36100
O 	O 	0.74451 0.63554 0.62277 -0.41100
O 	O 	0.70494 0.55591 0.67046 -0.40600
C 	C 	0.61200 0.85720 0.84459 -0.04100
H 	H 	0.57540 0.87550 0.85240 0.04400
C 	C 	0.63560 0.86740 0.81047 -0.04500
H 	H 	0.61240 0.88950 0.79470 0.04600
C 	C 	0.59730 0.73428 0.92218 -0.00300
H 	H 	0.60710 0.69490 0.91070 0.04500
C 	C 	0.56804 0.71962 0.95627 -0.09400
C 	C 	0.54697 0.63978 0.97340 0.36100
O 	O 	0.55769 0.58882 0.95610 -0.41100
O 	O 	0.51763 0.62839 0.00379 -0.40600
C 	C 	0.27867 0.19053 0.17792 -0.04100
H 	H 	0.24207 0.20883 0.18573 0.04400
C 	C 	0.30227 0.20073 0.14380 -0.04600
H 	H 	0.27907 0.22283 0.12803 0.04600
C 	C 	0.26397 0.06761 0.25551 -0.00300
H 	H 	0.27377 0.02823 0.24403 0.04500
C 	C 	0.23471 0.05295 0.28960 -0.09400
C 	C 	0.21364 0.97311 0.30673 0.36100
O 	O 	0.22436 0.92215 0.28943 -0.41100
O 	O 	0.18430 0.96172 0.33712 -0.40600
C 	C 	0.94533 0.52387 0.51126 -0.04100
H 	H 	0.90873 0.54217 0.51907 0.04400
C 	C 	0.96893 0.53407 0.47714 -0.04500
H 	H 	0.94573 0.55617 0.46137 0.04600
C 	C 	0.93063 0.40095 0.58885 -0.00300
H 	H 	0.94043 0.36157 0.57737 0.04500
C 	C 	0.90137 0.38629 0.62294 -0.09400
C 	C 	0.88030 0.30645 0.64007 0.36100
O 	O 	0.89102 0.25549 0.62277 -0.41100
O 	O 	0.85096 0.29506 0.67046 -0.40600
C 	C 	0.61200 0.75480 0.84459 -0.04100
H 	H 	0.57540 0.69990 0.85240 0.04400
C 	C 	0.63560 0.76820 0.81047 -0.04500
H 	H 	0.61240 0.72290 0.79470 0.04600
C 	C 	0.59730 0.86302 0.92218 -0.00300
H 	H 	0.60710 0.91220 0.91070 0.04500
C 	C 	0.56804 0.84842 0.95627 -0.09400
C 	C 	0.54697 0.90719 0.97340 0.36100
O 	O 	0.55769 0.96887 0.95610 -0.41100
O 	O 	0.51763 0.88924 0.00379 -0.40600
C 	C 	0.27867 0.08813 0.17792 -0.04100
H 	H 	0.24207 0.03323 0.18573 0.04400
C 	C 	0.30227 0.10153 0.14380 -0.04600
H 	H 	0.27907 0.05623 0.12803 0.04600
C 	C 	0.26397 0.19635 0.25551 -0.00300
H 	H 	0.27377 0.24553 0.24403 0.04500
C 	C 	0.23471 0.18175 0.28960 -0.09400
C 	C 	0.21364 0.24052 0.30673 0.36100
O 	O 	0.22436 0.30220 0.28943 -0.41100
O 	O 	0.18430 0.22257 0.33712 -0.40600
C 	C 	0.94533 0.42147 0.51126 -0.04100
H 	H 	0.90873 0.36657 0.51907 0.04400
C 	C 	0.96893 0.43487 0.47714 -0.04500
H 	H 	0.94573 0.38957 0.46137 0.04600
C 	C 	0.93063 0.52969 0.58885 -0.00300
H 	H 	0.94043 0.57887 0.57737 0.04500
C 	C 	0.90137 0.51509 0.62294 -0.09400
C 	C 	0.88030 0.57386 0.64007 0.36100
O 	O 	0.89102 0.63554 0.62277 -0.41100
O 	O 	0.85096 0.55591 0.67046 -0.40600
C 	C 	0.24520 0.85720 0.84459 -0.04100
H 	H 	0.30010 0.87550 0.85240 0.04400
C 	C 	0.23180 0.86740 0.81047 -0.04500
H 	H 	0.27710 0.88950 0.79470 0.04600
C 	C 	0.13698 0.73428 0.92218 -0.00300
H 	H 	0.08780 0.69490 0.91070 0.04500
C 	C 	0.15158 0.71962 0.95627 -0.09400
C 	C 	0.09281 0.63978 0.97340 0.36100
O 	O 	0.03113 0.58882 0.95610 -0.41100
O 	O 	0.11076 0.62839 0.00379 -0.40600
C 	C 	0.91187 0.19053 0.17792 -0.04100
H 	H 	0.96677 0.20883 0.18573 0.04400
C 	C 	0.89847 0.20073 0.14380 -0.04600
H 	H 	0.94377 0.22283 0.12803 0.04600
C 	C 	0.80365 0.06761 0.25551 -0.00300
H 	H 	0.75447 0.02823 0.24403 0.04500
C 	C 	0.81825 0.05295 0.28960 -0.09400
C 	C 	0.75948 0.97311 0.30673 0.36100
O 	O 	0.69780 0.92215 0.28943 -0.41100
O 	O 	0.77743 0.96172 0.33712 -0.40600
C 	C 	0.57853 0.52387 0.51126 -0.04100
H 	H 	0.63343 0.54217 0.51907 0.04400
C 	C 	0.56513 0.53407 0.47714 -0.04500
H 	H 	0.61043 0.55617 0.46137 0.04600
C 	C 	0.47031 0.40095 0.58885 -0.00300
H 	H 	0.42113 0.36157 0.57737 0.04500
C 	C 	0.48491 0.38629 0.62294 -0.09400
C 	C 	0.42614 0.30645 0.64007 0.36100
O 	O 	0.36446 0.25549 0.62277 -0.41100
O 	O 	0.44409 0.29506 0.67046 -0.40600
C 	C 	0.14280 0.38800 0.84459 -0.04100
H 	H 	0.12450 0.42460 0.85240 0.04400
C 	C 	0.13260 0.36440 0.81047 -0.04500
H 	H 	0.11050 0.38760 0.79470 0.04600
C 	C 	0.26572 0.40270 0.92218 -0.00300
H 	H 	0.30510 0.39290 0.91070 0.04500
C 	C 	0.28038 0.43196 0.95627 -0.09400
C 	C 	0.36022 0.45303 0.97340 0.36100
O 	O 	0.41118 0.44231 0.95610 -0.41100
O 	O 	0.37161 0.48237 0.00379 -0.40600
C 	C 	0.80947 0.72133 0.17792 -0.04100
H 	H 	0.79117 0.75793 0.18573 0.04400
C 	C 	0.79927 0.69773 0.14380 -0.04600
H 	H 	0.77717 0.72093 0.12803 0.04600
C 	C 	0.93239 0.73603 0.25551 -0.00300
H 	H 	0.97177 0.72623 0.24403 0.04500
C 	C 	0.94705 0.76529 0.28960 -0.09400
C 	C 	0.02689 0.78636 0.30673 0.36100
O 	O 	0.07785 0.77564 0.28943 -0.41100
O 	O 	0.03828 0.81570 0.33712 -0.40600
C 	C 	0.47613 0.05467 0.51126 -0.04100
H 	H 	0.45783 0.09127 0.51907 0.04400
C 	C 	0.46593 0.03107 0.47714 -0.04500
H 	H 	0.44383 0.05427 0.46137 0.04600
C 	C 	0.59905 0.06937 0.58885 -0.00300
H 	H 	0.63843 0.05957 0.57737 0.04500
C 	C 	0.61371 0.09863 0.62294 -0.09400
C 	C 	0.69355 0.11970 0.64007 0.36100
O 	O 	0.74451 0.10898 0.62277 -0.41100
O 	O 	0.70494 0.14904 0.67046 -0.40600
C 	C 	0.75480 0.61200 0.15541 -0.04100
H 	H 	0.69990 0.57540 0.14760 0.04400
C 	C 	0.76820 0.63560 0.18953 -0.04500
H 	H 	0.72290 0.61240 0.20530 0.04600
C 	C 	0.86302 0.59730 0.07782 -0.00300
H 	H 	0.91220 0.60710 0.08930 0.04500
C 	C 	0.84842 0.56804 0.04373 -0.09400
C 	C 	0.90719 0.54697 0.02660 0.36100
O 	O 	0.96887 0.55769 0.04390 -0.41100
O 	O 	0.88924 0.51763 0.99621 -0.40600
C 	C 	0.42147 0.94533 0.48874 -0.04100
H 	H 	0.36657 0.90873 0.48093 0.04400
C 	C 	0.43487 0.96893 0.52286 -0.04500
H 	H 	0.38957 0.94573 0.53863 0.04600
C 	C 	0.52969 0.93063 0.41115 -0.00300
H 	H 	0.57887 0.94043 0.42263 0.04500
C 	C 	0.51509 0.90137 0.37706 -0.09400
C 	C 	0.57386 0.88030 0.35993 0.36100
O 	O 	0.63554 0.89102 0.37723 -0.41100
O 	O 	0.55591 0.85096 0.32954 -0.40600
C 	C 	0.08813 0.27867 0.82208 -0.04100
H 	H 	0.03323 0.24207 0.81427 0.04400
C 	C 	0.10153 0.30227 0.85620 -0.04600
H 	H 	0.05623 0.27907 0.87197 0.04600
C 	C 	0.19635 0.26397 0.74449 -0.00300
H 	H 	0.24553 0.27377 0.75597 0.04500
C 	C 	0.18175 0.23471 0.71040 -0.09400
C 	C 	0.24052 0.21364 0.69327 0.36100
O 	O 	0.30220 0.22436 0.71057 -0.41100
O 	O 	0.22257 0.18430 0.66288 -0.40600
C 	C 	0.85720 0.24520 0.15541 -0.04100
H 	H 	0.87550 0.30010 0.14760 0.04400
C 	C 	0.86740 0.23180 0.18953 -0.04500
H 	H 	0.88950 0.27710 0.20530 0.04600
C 	C 	0.73428 0.13698 0.07782 -0.00300
H 	H 	0.69490 0.08780 0.08930 0.04500
C 	C 	0.71962 0.15158 0.04373 -0.09400
C 	C 	0.63978 0.09281 0.02660 0.36100
O 	O 	0.58882 0.03113 0.04390 -0.41100
O 	O 	0.62839 0.11076 0.99621 -0.40600
C 	C 	0.52387 0.57853 0.48874 -0.04100
H 	H 	0.54217 0.63343 0.48093 0.04400
C 	C 	0.53407 0.56513 0.52286 -0.04500
H 	H 	0.55617 0.61043 0.53863 0.04600
C 	C 	0.40095 0.47031 0.41115 -0.00300
H 	H 	0.36157 0.42113 0.42263 0.04500
C 	C 	0.38629 0.48491 0.37706 -0.09400
C 	C 	0.30645 0.42614 0.35993 0.36100
O 	O 	0.25549 0.36446 0.37723 -0.41100
O 	O 	0.29506 0.44409 0.32954 -0.40600
C 	C 	0.19053 0.91187 0.82208 -0.04100
H 	H 	0.20883 0.96677 0.81427 0.04400
C 	C 	0.20073 0.89847 0.85620 -0.04600
H 	H 	0.22283 0.94377 0.87197 0.04600
C 	C 	0.06761 0.80365 0.74449 -0.00300
H 	H 	0.02823 0.75447 0.75597 0.04500
C 	C 	0.05295 0.81825 0.71040 -0.09400
C 	C 	0.97311 0.75948 0.69327 0.36100
O 	O 	0.92215 0.69780 0.71057 -0.41100
O 	O 	0.96172 0.77743 0.66288 -0.40600
C 	C 	0.38800 0.14280 0.15541 -0.04100
H 	H 	0.42460 0.12450 0.14760 0.04400
C 	C 	0.36440 0.13260 0.18953 -0.04500
H 	H 	0.38760 0.11050 0.20530 0.04600
C 	C 	0.40270 0.26572 0.07782 -0.00300
H 	H 	0.39290 0.30510 0.08930 0.04500
C 	C 	0.43196 0.28038 0.04373 -0.09400
C 	C 	0.45303 0.36022 0.02660 0.36100
O 	O 	0.44231 0.41118 0.04390 -0.41100
O 	O 	0.48237 0.37161 0.99621 -0.40600
C 	C 	0.05467 0.47613 0.48874 -0.04100
H 	H 	0.09127 0.45783 0.48093 0.04400
C 	C 	0.03107 0.46593 0.52286 -0.04500
H 	H 	0.05427 0.44383 0.53863 0.04600
C 	C 	0.06937 0.59905 0.41115 -0.00300
H 	H 	0.05957 0.63843 0.42263 0.04500
C 	C 	0.09863 0.61371 0.37706 -0.09400
C 	C 	0.11970 0.69355 0.35993 0.36100
O 	O 	0.10898 0.74451 0.37723 -0.41100
O 	O 	0.14904 0.70494 0.32954 -0.40600
C 	C 	0.72133 0.80947 0.82208 -0.04100
H 	H 	0.75793 0.79117 0.81427 0.04400
C 	C 	0.69773 0.79927 0.85620 -0.04600
H 	H 	0.72093 0.77717 0.87197 0.04600
C 	C 	0.73603 0.93239 0.74449 -0.00300
H 	H 	0.72623 0.97177 0.75597 0.04500
C 	C 	0.76529 0.94705 0.71040 -0.09400
C 	C 	0.78636 0.02689 0.69327 0.36100
O 	O 	0.77564 0.07785 0.71057 -0.41100
O 	O 	0.81570 0.03828 0.66288 -0.40600
Cu	Cu	0.47646 0.95292 0.02835 0.90700
Cu	Cu	0.14313 0.28626 0.36169 0.90700
Cu	Cu	0.80980 0.61959 0.69502 0.90700
Cu	Cu	0.04708 0.52354 0.02835 0.90700
Cu	Cu	0.71374 0.85687 0.36169 0.90700
Cu	Cu	0.38041 0.19020 0.69502 0.90700
Cu	Cu	0.47646 0.52354 0.02835 0.90700
Cu	Cu	0.14313 0.85687 0.36169 0.90700
Cu	Cu	0.80980 0.19020 0.69502 0.90700
Cu	Cu	0.95292 0.47646 0.97165 0.90700
Cu	Cu	0.61959 0.80980 0.30498 0.90700
Cu	Cu	0.28626 0.14313 0.63831 0.90700
Cu	Cu	0.52354 0.04708 0.97165 0.90700
Cu	Cu	0.19020 0.38041 0.30498 0.90700
Cu	Cu	0.85687 0.71374 0.63831 0.90700
Cu	Cu	0.52354 0.47646 0.97165 0.90700
Cu	Cu	0.19020 0.80980 0.30498 0.90700
Cu	Cu	0.85687 0.14313 0.63831 0.90700
C 	C 	0.35895 0.17947 0.13182 0.04400
C 	C 	0.38770 0.19385 0.09522 -0.02600
C 	C 	0.44683 0.22341 0.02669 0.03700
H 	H 	0.46710 0.23355 0.00350 0.04900
C 	C 	0.02562 0.51281 0.46515 0.04400
C 	C 	0.05437 0.52718 0.42855 -0.02600
C 	C 	0.11350 0.55675 0.36002 0.03700
H 	H 	0.13377 0.56688 0.33683 0.04900
C 	C 	0.69228 0.84614 0.79849 0.04400
C 	C 	0.72103 0.86052 0.76189 -0.02600
C 	C 	0.78016 0.89008 0.69336 0.03700
H 	H 	0.80043 0.90022 0.67017 0.04900
C 	C 	0.82053 0.17948 0.13182 0.04400
C 	C 	0.80615 0.19385 0.09522 -0.02600
C 	C 	0.77659 0.22341 0.02669 0.03700
H 	H 	0.76645 0.23355 0.00350 0.04900
C 	C 	0.48719 0.51281 0.46515 0.04400
C 	C 	0.47282 0.52718 0.42855 -0.02600
C 	C 	0.44325 0.55675 0.36002 0.03700
H 	H 	0.43312 0.56688 0.33683 0.04900
C 	C 	0.15386 0.84614 0.79849 0.04400
C 	C 	0.13948 0.86052 0.76189 -0.02600
C 	C 	0.10992 0.89008 0.69336 0.03700
H 	H 	0.09978 0.90022 0.67017 0.04900
C 	C 	0.82052 0.64105 0.13182 0.04400
C 	C 	0.80615 0.61230 0.09522 -0.02600
C 	C 	0.77659 0.55317 0.02669 0.03700
H 	H 	0.76645 0.53290 0.00350 0.04900
C 	C 	0.48719 0.97438 0.46515 0.04400
C 	C 	0.47282 0.94563 0.42855 -0.02600
C 	C 	0.44325 0.88650 0.36002 0.03700
H 	H 	0.43312 0.86623 0.33683 0.04900
C 	C 	0.15386 0.30772 0.79849 0.04400
C 	C 	0.13948 0.27897 0.76189 -0.02600
C 	C 	0.10992 0.21984 0.69336 0.03700
H 	H 	0.09978 0.19957 0.67017 0.04900
C 	C 	0.17947 0.35895 0.86818 0.04400
C 	C 	0.19385 0.38770 0.90478 -0.02600
C 	C 	0.22341 0.44683 0.97331 0.03700
H 	H 	0.23355 0.46710 0.99650 0.04900
C 	C 	0.84614 0.69228 0.20151 0.04400
C 	C 	0.86052 0.72103 0.23811 -0.02600
C 	C 	0.89008 0.78016 0.30664 0.03700
H 	H 	0.90022 0.80043 0.32983 0.04900
C 	C 	0.51281 0.02562 0.53485 0.04400
C 	C 	0.52718 0.05437 0.57145 -0.02600
C 	C 	0.55675 0.11350 0.63998 0.03700
H 	H 	0.56688 0.13377 0.66317 0.04900
C 	C 	0.17948 0.82053 0.86818 0.04400
C 	C 	0.19385 0.80615 0.90478 -0.02600
C 	C 	0.22341 0.77659 0.97331 0.03700
H 	H 	0.23355 0.76645 0.99650 0.04900
C 	C 	0.84614 0.15386 0.20151 0.04400
C 	C 	0.86052 0.13948 0.23811 -0.02600
C 	C 	0.89008 0.10992 0.30664 0.03700
H 	H 	0.90022 0.09978 0.32983 0.04900
C 	C 	0.51281 0.48719 0.53485 0.04400
C 	C 	0.52718 0.47282 0.57145 -0.02600
C 	C 	0.55675 0.44325 0.63998 0.03700
H 	H 	0.56688 0.43312 0.66317 0.04900
C 	C 	0.64105 0.82052 0.86818 0.04400
C 	C 	0.61230 0.80615 0.90478 -0.02600
C 	C 	0.55317 0.77659 0.97331 0.03700
H 	H 	0.53290 0.76645 0.99650 0.04900
C 	C 	0.30772 0.15386 0.20151 0.04400
C 	C 	0.27897 0.13948 0.23811 -0.02600
C 	C 	0.21984 0.10992 0.30664 0.03700
H 	H 	0.19957 0.09978 0.32983 0.04900
C 	C 	0.97438 0.48719 0.53485 0.04400
C 	C 	0.94563 0.47282 0.57145 -0.02600
C 	C 	0.88650 0.44325 0.63998 0.03700
H 	H 	0.86623 0.43312 0.66317 0.04900
