data_crystal

_cell_length_a 3.69340
_cell_length_b 12.17830
_cell_length_c 15.23900
_cell_angle_alpha 90.00000
_cell_angle_beta  90.10000
_cell_angle_gamma 90.00000

_symmetry_space_group_name_	'P 1'
_symmetry_space_group_name_H-M	'P 1'

loop_
_symmetry_equiv_pos_as_xyz
  x,y,z

loop_
_atom_site_label
_atom_site_type_symbol
_atom_site_fract_x
_atom_site_fract_y
_atom_site_fract_z
_atom_site_charge
Ag	Ag	0.60960 0.57542 0.42476 0.53800
Ag	Ag	0.39040 0.07542 0.07524 0.53500
Ag	Ag	0.39040 0.42458 0.57524 0.53700
Ag	Ag	0.60960 0.92458 0.92476 0.53400
H 	H 	0.42720 0.55060 0.22210 0.00800
H 	H 	0.18630 0.63910 0.10350 0.06900
H 	H 	0.06240 0.90410 0.25350 0.05600
H 	H 	0.29470 0.80640 0.36930 0.01700
H 	H 	0.57280 0.05060 0.27790 0.00800
H 	H 	0.81370 0.13910 0.39650 0.06900
H 	H 	0.93760 0.40410 0.24650 0.05600
H 	H 	0.70530 0.30640 0.13070 0.01600
H 	H 	0.57280 0.44940 0.77790 0.00800
H 	H 	0.81370 0.36090 0.89650 0.06900
H 	H 	0.93760 0.09590 0.74650 0.05600
H 	H 	0.70530 0.19360 0.63070 0.01700
H 	H 	0.42720 0.94940 0.72210 0.00800
H 	H 	0.18630 0.86090 0.60350 0.06900
H 	H 	0.06240 0.59590 0.75350 0.05600
H 	H 	0.29470 0.69360 0.86930 0.01600
C 	C 	0.35100 0.62290 0.22880 0.04600
C 	C 	0.20710 0.67540 0.15700 -0.07000
C 	C 	0.09400 0.78250 0.16540 -0.03200
C 	C 	0.13300 0.83140 0.24560 -0.06600
C 	C 	0.27600 0.77230 0.31490 0.03500
C 	C 	0.92700 0.84270 0.09000 0.29800
C 	C 	0.64900 0.12290 0.27120 0.04600
C 	C 	0.79290 0.17540 0.34300 -0.07100
C 	C 	0.90600 0.28250 0.33460 -0.03200
C 	C 	0.86700 0.33140 0.25440 -0.06700
C 	C 	0.72400 0.27230 0.18510 0.03500
C 	C 	0.07300 0.34270 0.41000 0.29700
C 	C 	0.64900 0.37710 0.77120 0.04600
C 	C 	0.79290 0.32460 0.84300 -0.07000
C 	C 	0.90600 0.21750 0.83460 -0.03200
C 	C 	0.86700 0.16860 0.75440 -0.06600
C 	C 	0.72400 0.22770 0.68510 0.03500
C 	C 	0.07300 0.15730 0.91000 0.29800
C 	C 	0.35100 0.87710 0.72880 0.04600
C 	C 	0.20710 0.82460 0.65700 -0.07100
C 	C 	0.09400 0.71750 0.66540 -0.03200
C 	C 	0.13300 0.66860 0.74560 -0.06700
C 	C 	0.27600 0.72770 0.81490 0.03500
C 	C 	0.92700 0.65730 0.59000 0.29700
N 	N 	0.38880 0.66910 0.30730 -0.17300
N 	N 	0.61120 0.16910 0.19270 -0.17400
N 	N 	0.61120 0.33090 0.69270 -0.17300
N 	N 	0.38880 0.83090 0.80730 -0.17400
O 	O 	0.87920 0.94490 0.10090 -0.39000
O 	O 	0.84700 0.79040 0.02300 -0.32900
O 	O 	0.12080 0.44490 0.39910 -0.39300
O 	O 	0.15300 0.29040 0.47700 -0.33100
O 	O 	0.12080 0.05510 0.89910 -0.39000
O 	O 	0.15300 0.20960 0.97700 -0.32900
O 	O 	0.87920 0.55510 0.60090 -0.39300
O 	O 	0.84700 0.70960 0.52300 -0.33100
