data_crystal

_cell_length_a 3.65190
_cell_length_b 12.15120
_cell_length_c 15.07000
_cell_angle_alpha 90.00000
_cell_angle_beta  90.98200
_cell_angle_gamma 90.00000

_symmetry_space_group_name_	'P 1'
_symmetry_space_group_name_H-M	'P 1'

loop_
_symmetry_equiv_pos_as_xyz
  x,y,z

loop_
_atom_site_label
_atom_site_type_symbol
_atom_site_fract_x
_atom_site_fract_y
_atom_site_fract_z
_atom_site_charge
Ag	Ag	0.39560 0.42607 0.92452 0.53600
Ag	Ag	0.60440 0.92607 0.57548 0.53600
Ag	Ag	0.60440 0.57393 0.07548 0.53600
Ag	Ag	0.39560 0.07393 0.42452 0.53600
H 	H 	0.07020 0.59360 0.74450 0.05400
H 	H 	0.30500 0.69270 0.62920 0.01600
H 	H 	0.41020 0.95440 0.77820 0.01000
H 	H 	0.17310 0.86400 0.89840 0.06600
H 	H 	0.92980 0.09360 0.75550 0.05400
H 	H 	0.69500 0.19270 0.87080 0.01600
H 	H 	0.58980 0.45440 0.72180 0.01000
H 	H 	0.82690 0.36400 0.60160 0.06600
H 	H 	0.92980 0.40640 0.25550 0.05400
H 	H 	0.69500 0.30730 0.37080 0.01600
H 	H 	0.58980 0.04560 0.22180 0.01000
H 	H 	0.82690 0.13600 0.10160 0.06600
H 	H 	0.07020 0.90640 0.24450 0.05400
H 	H 	0.30500 0.80730 0.12920 0.01600
H 	H 	0.41020 0.54560 0.27820 0.01000
H 	H 	0.17310 0.63600 0.39840 0.06600
C 	C 	0.93100 0.65910 0.91140 0.27900
C 	C 	0.09500 0.71760 0.83540 -0.03000
C 	C 	0.13900 0.66830 0.75320 -0.06600
C 	C 	0.28000 0.72760 0.68520 0.04000
C 	C 	0.34000 0.87950 0.77190 0.04100
C 	C 	0.19900 0.82650 0.84360 -0.06400
C 	C 	0.06900 0.15910 0.58860 0.27800
C 	C 	0.90500 0.21760 0.66460 -0.02900
C 	C 	0.86100 0.16830 0.74680 -0.06600
C 	C 	0.72000 0.22760 0.81480 0.04100
C 	C 	0.66000 0.37950 0.72810 0.04100
C 	C 	0.80100 0.32650 0.65640 -0.06400
C 	C 	0.06900 0.34090 0.08860 0.27900
C 	C 	0.90500 0.28240 0.16460 -0.03000
C 	C 	0.86100 0.33170 0.24680 -0.06600
C 	C 	0.72000 0.27240 0.31480 0.04000
C 	C 	0.66000 0.12050 0.22810 0.04100
C 	C 	0.80100 0.17350 0.15640 -0.06400
C 	C 	0.93100 0.84090 0.41140 0.27800
C 	C 	0.09500 0.78240 0.33540 -0.02900
C 	C 	0.13900 0.83170 0.25320 -0.06600
C 	C 	0.28000 0.77240 0.18520 0.04100
C 	C 	0.34000 0.62050 0.27190 0.04100
C 	C 	0.19900 0.67350 0.34360 -0.06400
N 	N 	0.38300 0.83070 0.69310 -0.17300
N 	N 	0.61700 0.33070 0.80690 -0.17300
N 	N 	0.61700 0.16930 0.30690 -0.17300
N 	N 	0.38300 0.66930 0.19310 -0.17300
O 	O 	0.88400 0.55380 0.89850 -0.38500
O 	O 	0.83100 0.71110 0.97740 -0.32400
O 	O 	0.11600 0.05380 0.60150 -0.38500
O 	O 	0.16900 0.21110 0.52260 -0.32500
O 	O 	0.11600 0.44620 0.10150 -0.38500
O 	O 	0.16900 0.28890 0.02260 -0.32400
O 	O 	0.88400 0.94620 0.39850 -0.38500
O 	O 	0.83100 0.78890 0.47740 -0.32500
