data_crystal

_cell_length_a 7.74470
_cell_length_b 10.19350
_cell_length_c 12.14640
_cell_angle_alpha 80.75100
_cell_angle_beta  80.28700
_cell_angle_gamma 82.81800

_symmetry_space_group_name_	'P 1'
_symmetry_space_group_name_H-M	'P 1'

loop_
_symmetry_equiv_pos_as_xyz
  x,y,z

loop_
_atom_site_label
_atom_site_type_symbol
_atom_site_fract_x
_atom_site_fract_y
_atom_site_fract_z
_atom_site_charge
Pr	Pr	0.73908 0.00999 0.55898 2.06100
Pr	Pr	0.26092 0.99001 0.44102 2.06100
H 	H 	0.13560 0.58510 0.45530 0.08900
H 	H 	0.07910 0.48280 0.38770 0.07700
H 	H 	0.80870 0.77660 0.23860 0.16900
H 	H 	0.99870 0.70870 0.24990 0.17100
H 	H 	0.95630 0.84180 0.88400 0.07800
H 	H 	0.15710 0.81600 0.89400 0.06600
H 	H 	0.89080 0.68990 0.04650 0.07200
H 	H 	0.09140 0.65760 0.05550 0.07300
H 	H 	0.90760 0.91230 0.07900 -0.02000
H 	H 	0.10440 0.87230 0.09620 -0.01100
H 	H 	0.46040 0.44880 0.42370 0.18900
H 	H 	0.37480 0.35800 0.35930 0.18400
H 	H 	0.24520 0.41450 0.58160 -0.02900
H 	H 	0.16860 0.30760 0.52940 -0.03200
H 	H 	0.15560 0.59300 0.86170 -0.01700
H 	H 	0.95740 0.62440 0.84570 -0.00100
H 	H 	0.16130 0.63000 0.67350 0.15900
H 	H 	0.22470 0.75870 0.70210 0.14700
H 	H 	0.86440 0.41490 0.54470 0.09000
H 	H 	0.92090 0.51720 0.61230 0.07800
H 	H 	0.19130 0.22340 0.76140 0.17000
H 	H 	0.00130 0.29130 0.75010 0.17200
H 	H 	0.04370 0.15820 0.11600 0.07800
H 	H 	0.84290 0.18400 0.10600 0.06600
H 	H 	0.10920 0.31010 0.95350 0.07200
H 	H 	0.90860 0.34240 0.94450 0.07300
H 	H 	0.09240 0.08770 0.92100 -0.02000
H 	H 	0.89560 0.12770 0.90380 -0.01100
H 	H 	0.53960 0.55120 0.57630 0.18900
H 	H 	0.62520 0.64200 0.64070 0.18400
H 	H 	0.75480 0.58550 0.41840 -0.02900
H 	H 	0.83140 0.69240 0.47060 -0.03200
H 	H 	0.84440 0.40700 0.13830 -0.01700
H 	H 	0.04260 0.37560 0.15430 -0.00100
H 	H 	0.83870 0.37000 0.32650 0.15900
H 	H 	0.77530 0.24130 0.29790 0.14700
C 	C 	0.50680 0.24990 0.48190 0.47900
C 	C 	0.95070 0.88850 0.30710 0.52200
C 	C 	0.09120 0.49880 0.46250 -0.18500
C 	C 	0.93150 0.79300 0.22840 -0.49500
C 	C 	0.04810 0.77440 0.90750 -0.14900
C 	C 	0.00260 0.72780 0.03260 -0.17600
C 	C 	0.99010 0.83910 0.10530 0.13400
C 	C 	0.39710 0.37040 0.43290 -0.51700
C 	C 	0.22160 0.39130 0.51160 0.15300
C 	C 	0.06850 0.66270 0.83550 0.10700
C 	C 	0.12380 0.70830 0.71080 -0.44500
C 	C 	0.98250 0.79360 0.65160 0.45000
C 	C 	0.49320 0.75010 0.51810 0.47900
C 	C 	0.04930 0.11150 0.69290 0.52200
C 	C 	0.90880 0.50120 0.53750 -0.18500
C 	C 	0.06850 0.20700 0.77160 -0.49500
C 	C 	0.95190 0.22560 0.09250 -0.14900
C 	C 	0.99740 0.27220 0.96740 -0.17600
C 	C 	0.00990 0.16090 0.89470 0.13400
C 	C 	0.60290 0.62960 0.56710 -0.51700
C 	C 	0.77840 0.60870 0.48840 0.15300
C 	C 	0.93150 0.33730 0.16450 0.10700
C 	C 	0.87620 0.29170 0.28920 -0.44500
C 	C 	0.01750 0.20640 0.34840 0.45000
O 	O 	0.81150 0.93760 0.36340 -0.52300
O 	O 	0.61280 0.26030 0.54520 -0.48200
O 	O 	0.48800 0.13510 0.45800 -0.65900
O 	O 	0.82370 0.79870 0.69560 -0.47100
O 	O 	0.10310 0.91360 0.31210 -0.54200
O 	O 	0.02910 0.85930 0.55440 -0.62800
O 	O 	0.18850 0.06240 0.63660 -0.52300
O 	O 	0.38720 0.73970 0.45480 -0.48200
O 	O 	0.51200 0.86490 0.54200 -0.65900
O 	O 	0.17630 0.20130 0.30440 -0.47100
O 	O 	0.89690 0.08640 0.68790 -0.54200
O 	O 	0.97090 0.14070 0.44560 -0.62800
