data_crystal

_cell_length_a 7.76800
_cell_length_b 14.34400
_cell_length_c 16.12500
_cell_angle_alpha 92.98000
_cell_angle_beta  95.60500
_cell_angle_gamma 99.59300

_symmetry_space_group_name_	'P 1'
_symmetry_space_group_name_H-M	'P 1'

loop_
_symmetry_equiv_pos_as_xyz
  x,y,z

loop_
_atom_site_label
_atom_site_type_symbol
_atom_site_fract_x
_atom_site_fract_y
_atom_site_fract_z
_atom_site_charge
Nd	Nd	0.77568 0.75675 0.72405 2.26500
Nd	Nd	0.72824 0.30122 0.21240 2.26000
Nd	Nd	0.22432 0.24325 0.27595 2.26500
Nd	Nd	0.27176 0.69878 0.78760 2.26000
H 	H 	0.28000 0.05300 0.08510 0.15400
H 	H 	0.20190 0.14040 0.05450 0.13900
H 	H 	0.29550 0.52660 0.58050 0.13500
H 	H 	0.23510 0.62490 0.57590 0.11700
H 	H 	0.83230 0.64710 0.01190 0.14700
H 	H 	0.74750 0.55170 0.96150 0.14100
H 	H 	0.09920 0.58790 0.03440 0.01100
H 	H 	0.94590 0.53040 0.07690 0.00500
H 	H 	0.32850 0.96870 0.60280 0.14600
H 	H 	0.29190 0.88490 0.53400 0.14800
H 	H 	0.61500 0.00400 0.57270 0.01000
H 	H 	0.57930 0.91970 0.50420 0.00600
H 	H 	0.16990 0.57240 0.30810 0.13800
H 	H 	0.27830 0.48980 0.31830 0.12100
H 	H 	0.31840 0.95480 0.83390 0.13000
H 	H 	0.20980 0.03310 0.80600 0.13000
H 	H 	0.07340 0.55150 0.43900 0.01400
H 	H 	0.16340 0.46230 0.44860 0.02200
H 	H 	0.43910 0.56000 0.45820 0.03200
H 	H 	0.34630 0.64890 0.45140 0.02000
H 	H 	0.07770 0.02260 0.93080 0.02600
H 	H 	0.19380 0.94810 0.95880 0.03300
H 	H 	0.33390 0.13780 0.93560 0.01000
H 	H 	0.44540 0.06300 0.96800 0.02300
H 	H 	0.72000 0.94700 0.91490 0.15400
H 	H 	0.79810 0.85960 0.94550 0.13900
H 	H 	0.70450 0.47340 0.41950 0.13500
H 	H 	0.76490 0.37510 0.42410 0.11700
H 	H 	0.16770 0.35290 0.98810 0.14700
H 	H 	0.25250 0.44830 0.03850 0.14100
H 	H 	0.90080 0.41210 0.96560 0.01100
H 	H 	0.05410 0.46960 0.92310 0.00500
H 	H 	0.67150 0.03130 0.39720 0.14600
H 	H 	0.70810 0.11510 0.46600 0.14800
H 	H 	0.38500 0.99600 0.42730 0.01000
H 	H 	0.42070 0.08030 0.49580 0.00600
H 	H 	0.83010 0.42760 0.69190 0.13800
H 	H 	0.72170 0.51020 0.68170 0.12100
H 	H 	0.68160 0.04520 0.16610 0.13000
H 	H 	0.79020 0.96690 0.19400 0.13000
H 	H 	0.92660 0.44850 0.56100 0.01400
H 	H 	0.83660 0.53770 0.55140 0.02200
H 	H 	0.56090 0.44000 0.54180 0.03200
H 	H 	0.65370 0.35110 0.54860 0.02000
H 	H 	0.92230 0.97740 0.06920 0.02600
H 	H 	0.80620 0.05190 0.04120 0.03300
H 	H 	0.66610 0.86220 0.06440 0.01000
H 	H 	0.55460 0.93700 0.03200 0.02300
C 	C 	0.45290 0.17540 0.10620 0.51200
C 	C 	0.49200 0.63620 0.61840 0.48600
C 	C 	0.91270 0.63640 0.89680 0.56100
C 	C 	0.42870 0.85360 0.63980 0.58400
C 	C 	0.30520 0.11050 0.05600 -0.42600
C 	C 	0.32850 0.59070 0.56400 -0.38200
C 	C 	0.85660 0.59610 0.97540 -0.45600
C 	C 	0.98700 0.54560 0.02350 0.03500
C 	C 	0.38100 0.92020 0.57550 -0.46100
C 	C 	0.52610 0.96780 0.53160 0.03700
C 	C 	0.05800 0.90250 0.80400 0.49500
C 	C 	0.17250 0.51200 0.33210 -0.39600
C 	C 	0.01480 0.44210 0.29620 0.47800
C 	C 	0.20870 0.97770 0.83810 -0.38800
C 	C 	0.17500 0.52440 0.42650 0.01000
C 	C 	0.33600 0.58560 0.47090 0.00000
C 	C 	0.19130 0.00380 0.92740 -0.01400
C 	C 	0.33200 0.08290 0.96830 0.03200
C 	C 	0.54710 0.82460 0.89380 0.51200
C 	C 	0.50800 0.36380 0.38160 0.48600
C 	C 	0.08730 0.36360 0.10320 0.56100
C 	C 	0.57130 0.14640 0.36020 0.58400
C 	C 	0.69480 0.88950 0.94400 -0.42600
C 	C 	0.67150 0.40930 0.43600 -0.38200
C 	C 	0.14340 0.40390 0.02460 -0.45600
C 	C 	0.01300 0.45440 0.97650 0.03500
C 	C 	0.61900 0.07980 0.42450 -0.46100
C 	C 	0.47390 0.03220 0.46840 0.03700
C 	C 	0.94200 0.09750 0.19600 0.49500
C 	C 	0.82750 0.48800 0.66790 -0.39600
C 	C 	0.98520 0.55790 0.70380 0.47800
C 	C 	0.79130 0.02230 0.16190 -0.38800
C 	C 	0.82500 0.47560 0.57350 0.01000
C 	C 	0.66400 0.41440 0.52910 0.00000
C 	C 	0.80870 0.99620 0.07260 -0.01400
C 	C 	0.66800 0.91710 0.03170 0.03200
O 	O 	0.59810 0.19620 0.08100 -0.50300
O 	O 	0.62890 0.66410 0.58790 -0.50000
O 	O 	0.07110 0.64980 0.88610 -0.58600
O 	O 	0.58640 0.85120 0.65680 -0.59500
O 	O 	0.79150 0.65840 0.84490 -0.56600
O 	O 	0.91000 0.92150 0.78510 -0.51200
O 	O 	0.30290 0.80570 0.67110 -0.57400
O 	O 	0.08160 0.81710 0.79710 -0.68300
O 	O 	0.42510 0.20690 0.17770 -0.70300
O 	O 	0.48200 0.64550 0.69640 -0.68300
O 	O 	0.01900 0.35370 0.30300 -0.67500
O 	O 	0.87920 0.46760 0.26510 -0.51000
O 	O 	0.40190 0.80380 0.91900 -0.50300
O 	O 	0.37110 0.33590 0.41210 -0.50000
O 	O 	0.92890 0.35020 0.11390 -0.58600
O 	O 	0.41360 0.14880 0.34320 -0.59500
O 	O 	0.20850 0.34160 0.15510 -0.56600
O 	O 	0.09000 0.07850 0.21490 -0.51200
O 	O 	0.69710 0.19430 0.32890 -0.57400
O 	O 	0.91840 0.18290 0.20290 -0.68300
O 	O 	0.57490 0.79310 0.82230 -0.70300
O 	O 	0.51800 0.35450 0.30360 -0.68300
O 	O 	0.98100 0.64630 0.69700 -0.67500
O 	O 	0.12080 0.53240 0.73490 -0.51000
