data_crystal

_cell_length_a 14.90700
_cell_length_b 25.53100
_cell_length_c 25.53100
_cell_angle_alpha 120.00000
_cell_angle_beta  90.00000
_cell_angle_gamma 90.00000

_symmetry_space_group_name_	'P 1'
_symmetry_space_group_name_H-M	'P 1'

loop_
_symmetry_equiv_pos_as_xyz
  x,y,z

loop_
_atom_site_label
_atom_site_type_symbol
_atom_site_fract_x
_atom_site_fract_y
_atom_site_fract_z
_atom_site_charge
Ni	Ni	0.11727 0.48358 0.55502 1.08600
Ni	Ni	0.78394 0.07144 0.51642 1.08700
Ni	Ni	0.45060 0.44498 0.92856 1.08300
Ni	Ni	0.88273 0.92856 0.44498 1.08300
Ni	Ni	0.21606 0.55502 0.48358 1.08600
Ni	Ni	0.54940 0.51642 0.07144 1.08700
H 	H 	0.12550 0.58890 0.57600 0.32200
H 	H 	0.96290 0.38300 0.41230 0.09400
H 	H 	0.37900 0.49850 0.68820 0.05800
H 	H 	0.13690 0.48520 0.75120 0.05900
H 	H 	0.30780 0.50270 0.61040 -0.01800
H 	H 	0.07220 0.48900 0.67130 -0.02800
H 	H 	0.43800 0.49690 0.76160 0.06300
H 	H 	0.04330 0.33970 0.29770 -0.00100
H 	H 	0.09950 0.37390 0.35950 0.01000
H 	H 	0.50300 0.47380 0.82980 -0.00300
H 	H 	0.74120 0.36550 0.35840 0.09700
H 	H 	0.79810 0.38390 0.41820 0.10600
H 	H 	0.19820 0.47130 0.81390 0.06500
H 	H 	0.03910 0.44500 0.32100 0.15200
H 	H 	0.99030 0.50910 0.35920 0.15400
H 	H 	0.93320 0.45040 0.31460 0.14100
H 	H 	0.88210 0.48530 0.46930 0.09000
H 	H 	0.87940 0.52540 0.43710 0.08300
H 	H 	0.74380 0.47010 0.41880 -0.01200
H 	H 	0.79430 0.45080 0.35650 -0.00900
H 	H 	0.91500 0.31520 0.25190 0.17100
H 	H 	0.86110 0.37760 0.27890 0.16800
H 	H 	0.80840 0.31600 0.25950 0.16600
H 	H 	0.07380 0.29960 0.38210 0.10400
H 	H 	0.09250 0.26260 0.31070 0.09300
H 	H 	0.26890 0.45280 0.88320 -0.02800
H 	H 	0.76070 0.26320 0.32970 0.01200
H 	H 	0.77450 0.16780 0.32090 0.02800
H 	H 	0.04470 0.18750 0.33430 0.05700
H 	H 	0.97500 0.10930 0.35040 -0.07200
H 	H 	0.01230 0.07640 0.24940 0.19500
H 	H 	0.91180 0.05290 0.22940 0.19400
H 	H 	0.97470 0.02200 0.25720 0.19100
H 	H 	0.82690 0.10950 0.37880 0.18800
H 	H 	0.85660 0.04150 0.33210 0.17200
H 	H 	0.79490 0.07790 0.30980 0.18500
H 	H 	0.79217 0.98710 0.41110 0.30100
H 	H 	0.62957 0.02930 0.61700 0.10600
H 	H 	0.04567 0.18970 0.50150 0.05700
H 	H 	0.80357 0.26600 0.51480 0.05800
H 	H 	0.97447 0.10770 0.49730 -0.01700
H 	H 	0.73887 0.18230 0.51100 -0.02700
H 	H 	0.10467 0.26470 0.50310 0.06400
H 	H 	0.70997 0.95800 0.66030 0.00100
H 	H 	0.76617 0.98560 0.62610 0.01100
H 	H 	0.16967 0.35600 0.52620 -0.00300
H 	H 	0.40787 0.99290 0.63450 0.10100
H 	H 	0.46477 0.03430 0.61610 0.12300
H 	H 	0.86487 0.34260 0.52870 0.06600
H 	H 	0.70577 0.87600 0.55500 0.15400
H 	H 	0.65697 0.85010 0.49090 0.15500
H 	H 	0.59987 0.86420 0.54960 0.14200
H 	H 	0.54877 0.98400 0.51470 0.08800
H 	H 	0.54607 0.91170 0.47460 0.08500
H 	H 	0.41047 0.94870 0.52990 -0.01900
H 	H 	0.46097 0.90570 0.54920 -0.01400
H 	H 	0.58167 0.93670 0.68480 0.16400
H 	H 	0.52777 0.90130 0.62240 0.16500
H 	H 	0.47507 0.94350 0.68400 0.16000
H 	H 	0.74047 0.08250 0.70040 0.09700
H 	H 	0.75917 0.04810 0.73740 0.08700
H 	H 	0.93557 0.43040 0.54720 -0.02600
H 	H 	0.42737 0.06650 0.73680 0.01700
H 	H 	0.44117 0.15310 0.83220 0.02600
H 	H 	0.71137 0.14680 0.81250 0.05400
H 	H 	0.64167 0.24110 0.89070 -0.06800
H 	H 	0.67897 0.17300 0.92360 0.18500
H 	H 	0.57847 0.17650 0.94710 0.18000
H 	H 	0.64137 0.23520 0.97800 0.17500
H 	H 	0.49357 0.26930 0.89050 0.17800
H 	H 	0.52327 0.29060 0.95850 0.15400
H 	H 	0.46157 0.23190 0.92210 0.17000
H 	H 	0.45883 0.42400 0.01290 0.31600
H 	H 	0.29623 0.58770 0.97070 0.08100
H 	H 	0.71233 0.31180 0.81030 0.05700
H 	H 	0.47023 0.24880 0.73400 0.05800
H 	H 	0.64113 0.38960 0.89230 -0.01900
H 	H 	0.40553 0.32870 0.81770 -0.02800
H 	H 	0.77133 0.23840 0.73530 0.06300
H 	H 	0.37663 0.70230 0.04200 -0.00600
H 	H 	0.43283 0.64050 0.01440 0.00800
H 	H 	0.83633 0.17020 0.64400 -0.00300
H 	H 	0.07453 0.64160 0.00710 0.09300
H 	H 	0.13143 0.58180 0.96570 0.08900
H 	H 	0.53153 0.18610 0.65740 0.06500
H 	H 	0.37243 0.67900 0.12400 0.15000
H 	H 	0.32363 0.64080 0.14990 0.15100
H 	H 	0.26653 0.68540 0.13580 0.13700
H 	H 	0.21543 0.53070 0.01600 0.09200
H 	H 	0.21273 0.56290 0.08830 0.08000
H 	H 	0.07713 0.58120 0.05130 -0.00400
H 	H 	0.12763 0.64350 0.09430 -0.00500
H 	H 	0.24833 0.74810 0.06330 0.17000
H 	H 	0.19443 0.72110 0.09870 0.16600
H 	H 	0.14173 0.74050 0.05650 0.16600
H 	H 	0.40713 0.61790 0.91750 0.11100
H 	H 	0.42583 0.68930 0.95190 0.09700
H 	H 	0.60223 0.11680 0.56960 -0.02500
H 	H 	0.09403 0.67030 0.93350 0.00500
H 	H 	0.10783 0.67910 0.84690 0.03000
H 	H 	0.37803 0.66570 0.85320 0.06100
H 	H 	0.30833 0.64960 0.75890 -0.06700
H 	H 	0.34563 0.75060 0.82700 0.18200
H 	H 	0.24513 0.77060 0.82350 0.18000
H 	H 	0.30803 0.74280 0.76480 0.17700
H 	H 	0.16023 0.62120 0.73070 0.17900
H 	H 	0.18993 0.66790 0.70940 0.15900
H 	H 	0.12823 0.69020 0.76810 0.17300
H 	H 	0.87450 0.01290 0.42400 0.31600
H 	H 	0.03710 0.97070 0.58770 0.08200
H 	H 	0.62100 0.81030 0.31180 0.05700
H 	H 	0.86310 0.73400 0.24880 0.05800
H 	H 	0.69220 0.89230 0.38960 -0.01900
H 	H 	0.92780 0.81770 0.32870 -0.02800
H 	H 	0.56200 0.73530 0.23840 0.06300
H 	H 	0.95670 0.04200 0.70230 -0.00600
H 	H 	0.90050 0.01440 0.64050 0.00700
H 	H 	0.49700 0.64400 0.17020 -0.00300
H 	H 	0.25880 0.00710 0.64160 0.09300
H 	H 	0.20190 0.96570 0.58180 0.08900
H 	H 	0.80180 0.65740 0.18610 0.06500
H 	H 	0.96090 0.12400 0.67900 0.15100
H 	H 	0.00970 0.14990 0.64080 0.15100
H 	H 	0.06680 0.13580 0.68540 0.13800
H 	H 	0.11790 0.01600 0.53070 0.09200
H 	H 	0.12060 0.08830 0.56290 0.08000
H 	H 	0.25620 0.05130 0.58120 -0.00400
H 	H 	0.20570 0.09430 0.64350 -0.00500
H 	H 	0.08500 0.06330 0.74810 0.17100
H 	H 	0.13890 0.09870 0.72110 0.16600
H 	H 	0.19160 0.05650 0.74050 0.16700
H 	H 	0.92620 0.91750 0.61790 0.11100
H 	H 	0.90750 0.95190 0.68930 0.09800
H 	H 	0.73110 0.56960 0.11680 -0.02500
H 	H 	0.23930 0.93350 0.67030 0.00500
H 	H 	0.22550 0.84690 0.67910 0.03000
H 	H 	0.95530 0.85320 0.66570 0.06100
H 	H 	0.02500 0.75890 0.64960 -0.06700
H 	H 	0.98770 0.82700 0.75060 0.18200
H 	H 	0.08820 0.82350 0.77060 0.17900
H 	H 	0.02530 0.76480 0.74280 0.17600
H 	H 	0.17310 0.73070 0.62120 0.17900
H 	H 	0.14340 0.70940 0.66790 0.15900
H 	H 	0.20510 0.76810 0.69020 0.17300
H 	H 	0.20783 0.57600 0.58890 0.32200
H 	H 	0.37043 0.41230 0.38300 0.09300
H 	H 	0.95433 0.68820 0.49850 0.05800
H 	H 	0.19643 0.75120 0.48520 0.05800
H 	H 	0.02553 0.61040 0.50270 -0.01800
H 	H 	0.26113 0.67130 0.48900 -0.02800
H 	H 	0.89533 0.76160 0.49690 0.06300
H 	H 	0.29003 0.29770 0.33970 -0.00100
H 	H 	0.23383 0.35950 0.37390 0.01000
H 	H 	0.83033 0.82980 0.47380 -0.00300
H 	H 	0.59213 0.35840 0.36550 0.09700
H 	H 	0.53523 0.41820 0.38390 0.10600
H 	H 	0.13513 0.81390 0.47130 0.06500
H 	H 	0.29423 0.32100 0.44500 0.15300
H 	H 	0.34303 0.35920 0.50910 0.15400
H 	H 	0.40013 0.31460 0.45040 0.14100
H 	H 	0.45123 0.46930 0.48530 0.09000
H 	H 	0.45393 0.43710 0.52540 0.08300
H 	H 	0.58953 0.41880 0.47010 -0.01200
H 	H 	0.53903 0.35650 0.45080 -0.00900
H 	H 	0.41833 0.25190 0.31520 0.17100
H 	H 	0.47223 0.27890 0.37760 0.16800
H 	H 	0.52493 0.25950 0.31600 0.16600
H 	H 	0.25953 0.38210 0.29960 0.10400
H 	H 	0.24083 0.31070 0.26260 0.09300
H 	H 	0.06443 0.88320 0.45280 -0.02800
H 	H 	0.57263 0.32970 0.26320 0.01300
H 	H 	0.55883 0.32090 0.16780 0.02800
H 	H 	0.28863 0.33430 0.18750 0.05700
H 	H 	0.35833 0.35040 0.10930 -0.07200
H 	H 	0.32103 0.24940 0.07640 0.19700
H 	H 	0.42153 0.22940 0.05290 0.19500
H 	H 	0.35863 0.25720 0.02200 0.19100
H 	H 	0.50643 0.37880 0.10950 0.18900
H 	H 	0.47673 0.33210 0.04150 0.17200
H 	H 	0.53843 0.30980 0.07790 0.18500
H 	H 	0.54117 0.41110 0.98710 0.30100
H 	H 	0.70377 0.61700 0.02930 0.10600
H 	H 	0.28767 0.50150 0.18970 0.05800
H 	H 	0.52977 0.51480 0.26600 0.05800
H 	H 	0.35887 0.49730 0.10770 -0.01700
H 	H 	0.59447 0.51100 0.18230 -0.02700
H 	H 	0.22867 0.50310 0.26470 0.06400
H 	H 	0.62337 0.66030 0.95800 0.00100
H 	H 	0.56717 0.62610 0.98560 0.01100
H 	H 	0.16367 0.52620 0.35600 -0.00300
H 	H 	0.92547 0.63450 0.99290 0.10100
H 	H 	0.86857 0.61610 0.03430 0.12300
H 	H 	0.46847 0.52870 0.34260 0.06500
H 	H 	0.62757 0.55500 0.87600 0.15400
H 	H 	0.67637 0.49090 0.85010 0.15500
H 	H 	0.73347 0.54960 0.86420 0.14300
H 	H 	0.78457 0.51470 0.98400 0.08800
H 	H 	0.78727 0.47460 0.91170 0.08500
H 	H 	0.92287 0.52990 0.94870 -0.01900
H 	H 	0.87237 0.54920 0.90570 -0.01400
H 	H 	0.75167 0.68480 0.93670 0.16400
H 	H 	0.80557 0.62240 0.90130 0.16500
H 	H 	0.85827 0.68400 0.94350 0.16000
H 	H 	0.59287 0.70040 0.08250 0.09700
H 	H 	0.57417 0.73740 0.04810 0.08700
H 	H 	0.39777 0.54720 0.43040 -0.02600
H 	H 	0.90597 0.73680 0.06650 0.01700
H 	H 	0.89217 0.83220 0.15310 0.02600
H 	H 	0.62197 0.81250 0.14680 0.05400
H 	H 	0.69167 0.89070 0.24110 -0.06800
H 	H 	0.65437 0.92360 0.17300 0.18500
H 	H 	0.75487 0.94710 0.17650 0.18000
H 	H 	0.69197 0.97800 0.23520 0.17500
H 	H 	0.83977 0.89050 0.26930 0.17800
H 	H 	0.81007 0.95850 0.29060 0.15400
H 	H 	0.87177 0.92210 0.23190 0.17100
C 	C 	0.96170 0.38400 0.37360 -0.17800
C 	C 	0.26770 0.49050 0.72890 0.03600
C 	C 	0.96790 0.45240 0.39470 0.10400
C 	C 	0.04690 0.47820 0.44050 0.30600
C 	C 	0.31540 0.49610 0.68570 -0.12300
C 	C 	0.17380 0.48830 0.72250 -0.11800
C 	C 	0.27260 0.49830 0.63890 0.06300
C 	C 	0.13570 0.49050 0.67470 0.05000
C 	C 	0.40080 0.48620 0.78500 -0.13800
C 	C 	0.87580 0.34840 0.34160 0.22300
C 	C 	0.04550 0.34900 0.34030 0.05300
C 	C 	0.43950 0.47300 0.82670 0.07600
C 	C 	0.79750 0.38490 0.38000 -0.29000
C 	C 	0.26180 0.47180 0.81570 -0.13800
C 	C 	0.98410 0.46540 0.34260 -0.44000
C 	C 	0.88140 0.48340 0.42960 -0.23000
C 	C 	0.79760 0.44950 0.39450 0.08100
C 	C 	0.86400 0.33840 0.27710 -0.53000
C 	C 	0.05080 0.29110 0.34230 -0.28000
C 	C 	0.30480 0.46040 0.85700 0.07700
C 	C 	0.31040 0.48380 0.77740 0.06100
C 	C 	0.97890 0.25950 0.33860 0.14700
C 	C 	0.89450 0.28200 0.33730 -0.11400
C 	C 	0.81830 0.24780 0.33060 -0.00400
C 	C 	0.82650 0.19110 0.32530 -0.06100
C 	C 	0.91090 0.16860 0.32670 -0.04100
C 	C 	0.98710 0.20280 0.33330 -0.13100
C 	C 	0.92680 0.10460 0.32110 0.30800
C 	C 	0.95920 0.06010 0.25890 -0.63500
C 	C 	0.84400 0.08130 0.33680 -0.61700
C 	C 	0.62837 0.98960 0.61600 -0.19200
C 	C 	0.93437 0.23840 0.50950 0.03500
C 	C 	0.63457 0.94230 0.54760 0.11400
C 	C 	0.71357 0.96230 0.52180 0.28700
C 	C 	0.98207 0.18960 0.50390 -0.12100
C 	C 	0.84047 0.23420 0.51170 -0.11700
C 	C 	0.93927 0.14060 0.50170 0.06200
C 	C 	0.80237 0.18420 0.50950 0.05000
C 	C 	0.06747 0.29880 0.51380 -0.14000
C 	C 	0.54247 0.99320 0.65160 0.21900
C 	C 	0.71217 0.99130 0.65100 0.03300
C 	C 	0.10617 0.35370 0.52700 0.07700
C 	C 	0.46417 0.99510 0.61510 -0.31900
C 	C 	0.92847 0.34390 0.52820 -0.13900
C 	C 	0.65077 0.87720 0.53460 -0.44800
C 	C 	0.54807 0.94620 0.51660 -0.24100
C 	C 	0.46427 0.94500 0.55050 0.09700
C 	C 	0.53067 0.93870 0.66160 -0.52200
C 	C 	0.71747 0.05120 0.70890 -0.24900
C 	C 	0.97147 0.39660 0.53960 0.07700
C 	C 	0.97707 0.29360 0.51620 0.06200
C 	C 	0.64557 0.07910 0.74050 0.13100
C 	C 	0.56117 0.05530 0.71800 -0.09800
C 	C 	0.48497 0.08280 0.75220 -0.01200
C 	C 	0.49317 0.13420 0.80890 -0.05700
C 	C 	0.57757 0.15810 0.83140 -0.04100
C 	C 	0.65377 0.13050 0.79720 -0.12400
C 	C 	0.59347 0.21650 0.89540 0.29000
C 	C 	0.62587 0.19880 0.93990 -0.60900
C 	C 	0.51067 0.25550 0.91870 -0.58900
C 	C 	0.29503 0.62640 0.01040 -0.16300
C 	C 	0.60103 0.27110 0.76160 0.03700
C 	C 	0.30123 0.60530 0.05770 0.09400
C 	C 	0.38023 0.55950 0.03770 0.32600
C 	C 	0.64873 0.31430 0.81040 -0.12300
C 	C 	0.50713 0.27750 0.76580 -0.11800
C 	C 	0.60593 0.36110 0.85940 0.06300
C 	C 	0.46903 0.32530 0.81580 0.05000
C 	C 	0.73413 0.21500 0.70120 -0.13800
C 	C 	0.20913 0.65840 0.00680 0.22500
C 	C 	0.37883 0.65970 0.00870 0.07300
C 	C 	0.77283 0.17330 0.64630 0.07700
C 	C 	0.13083 0.62000 0.00490 -0.26000
C 	C 	0.59513 0.18430 0.65610 -0.13700
C 	C 	0.31743 0.65740 0.12280 -0.43200
C 	C 	0.21473 0.57040 0.05380 -0.21800
C 	C 	0.13093 0.60550 0.05500 0.06400
C 	C 	0.19733 0.72290 0.06130 -0.52800
C 	C 	0.38413 0.65770 0.94880 -0.31100
C 	C 	0.63813 0.14300 0.60340 0.07600
C 	C 	0.64373 0.22260 0.70640 0.06000
C 	C 	0.31223 0.66140 0.92090 0.16400
C 	C 	0.22783 0.66270 0.94470 -0.13200
C 	C 	0.15163 0.66940 0.91720 0.00700
C 	C 	0.15983 0.67470 0.86580 -0.07400
C 	C 	0.24423 0.67330 0.84190 -0.02900
C 	C 	0.32043 0.66670 0.86950 -0.14800
C 	C 	0.26013 0.67890 0.78350 0.28600
C 	C 	0.29253 0.74110 0.80120 -0.60700
C 	C 	0.17733 0.66320 0.74450 -0.59100
C 	C 	0.03830 0.01040 0.62640 -0.16500
C 	C 	0.73230 0.76160 0.27110 0.03700
C 	C 	0.03210 0.05770 0.60530 0.09400
C 	C 	0.95310 0.03770 0.55950 0.32600
C 	C 	0.68460 0.81040 0.31430 -0.12300
C 	C 	0.82620 0.76580 0.27750 -0.11800
C 	C 	0.72740 0.85940 0.36110 0.06300
C 	C 	0.86430 0.81580 0.32530 0.05000
C 	C 	0.59920 0.70120 0.21500 -0.13800
C 	C 	0.12420 0.00680 0.65840 0.22500
C 	C 	0.95450 0.00870 0.65970 0.07600
C 	C 	0.56050 0.64630 0.17330 0.07700
C 	C 	0.20250 0.00490 0.62000 -0.26000
C 	C 	0.73820 0.65610 0.18430 -0.13700
C 	C 	0.01590 0.12280 0.65740 -0.43400
C 	C 	0.11860 0.05380 0.57040 -0.21800
C 	C 	0.20240 0.05500 0.60550 0.06400
C 	C 	0.13600 0.06130 0.72290 -0.52800
C 	C 	0.94920 0.94880 0.65770 -0.31300
C 	C 	0.69520 0.60340 0.14300 0.07600
C 	C 	0.68960 0.70640 0.22260 0.06000
C 	C 	0.02110 0.92090 0.66140 0.16600
C 	C 	0.10550 0.94470 0.66270 -0.13300
C 	C 	0.18170 0.91720 0.66940 0.00700
C 	C 	0.17350 0.86580 0.67470 -0.07400
C 	C 	0.08910 0.84190 0.67330 -0.02800
C 	C 	0.01290 0.86950 0.66670 -0.14800
C 	C 	0.07320 0.78350 0.67890 0.28600
C 	C 	0.04080 0.80120 0.74110 -0.60500
C 	C 	0.15600 0.74450 0.66320 -0.59000
C 	C 	0.37163 0.37360 0.38400 -0.17800
C 	C 	0.06563 0.72890 0.49050 0.03700
C 	C 	0.36543 0.39470 0.45240 0.10400
C 	C 	0.28643 0.44050 0.47820 0.30600
C 	C 	0.01793 0.68570 0.49610 -0.12300
C 	C 	0.15953 0.72250 0.48830 -0.11800
C 	C 	0.06073 0.63890 0.49830 0.06300
C 	C 	0.19763 0.67470 0.49050 0.05000
C 	C 	0.93253 0.78500 0.48620 -0.13800
C 	C 	0.45753 0.34160 0.34840 0.22300
C 	C 	0.28783 0.34030 0.34900 0.05300
C 	C 	0.89383 0.82670 0.47300 0.07600
C 	C 	0.53583 0.38000 0.38490 -0.29000
C 	C 	0.07153 0.81570 0.47180 -0.13800
C 	C 	0.34923 0.34260 0.46540 -0.44200
C 	C 	0.45193 0.42960 0.48340 -0.23000
C 	C 	0.53573 0.39450 0.44950 0.08100
C 	C 	0.46933 0.27710 0.33840 -0.52900
C 	C 	0.28253 0.34230 0.29110 -0.27900
C 	C 	0.02853 0.85700 0.46040 0.07700
C 	C 	0.02293 0.77740 0.48380 0.06100
C 	C 	0.35443 0.33860 0.25950 0.14700
C 	C 	0.43883 0.33730 0.28200 -0.11300
C 	C 	0.51503 0.33060 0.24780 -0.00400
C 	C 	0.50683 0.32530 0.19110 -0.06100
C 	C 	0.42243 0.32670 0.16860 -0.04100
C 	C 	0.34623 0.33330 0.20280 -0.13200
C 	C 	0.40653 0.32110 0.10460 0.31000
C 	C 	0.37413 0.25890 0.06010 -0.63800
C 	C 	0.48933 0.33680 0.08130 -0.61900
C 	C 	0.70497 0.61600 0.98960 -0.19300
C 	C 	0.39897 0.50950 0.23840 0.03600
C 	C 	0.69877 0.54760 0.94230 0.11400
C 	C 	0.61977 0.52180 0.96230 0.28700
C 	C 	0.35127 0.50390 0.18960 -0.12300
C 	C 	0.49287 0.51170 0.23420 -0.11800
C 	C 	0.39407 0.50170 0.14060 0.06300
C 	C 	0.53097 0.50950 0.18420 0.05000
C 	C 	0.26587 0.51380 0.29880 -0.13800
C 	C 	0.79087 0.65160 0.99320 0.21900
C 	C 	0.62117 0.65100 0.99130 0.03300
C 	C 	0.22717 0.52700 0.35370 0.07700
C 	C 	0.86917 0.61510 0.99510 -0.32000
C 	C 	0.40487 0.52820 0.34390 -0.13800
C 	C 	0.68257 0.53460 0.87720 -0.44800
C 	C 	0.78527 0.51660 0.94620 -0.24100
C 	C 	0.86907 0.55050 0.94500 0.09700
C 	C 	0.80267 0.66160 0.93870 -0.52200
C 	C 	0.61587 0.70890 0.05120 -0.24900
C 	C 	0.36187 0.53960 0.39660 0.07700
C 	C 	0.35627 0.51620 0.29360 0.06100
C 	C 	0.68777 0.74050 0.07910 0.13100
C 	C 	0.77217 0.71800 0.05530 -0.09800
C 	C 	0.84837 0.75220 0.08280 -0.01200
C 	C 	0.84017 0.80890 0.13420 -0.05700
C 	C 	0.75577 0.83140 0.15810 -0.04100
C 	C 	0.67957 0.79720 0.13050 -0.12400
C 	C 	0.73987 0.89540 0.21650 0.29000
C 	C 	0.70747 0.93990 0.19880 -0.60900
C 	C 	0.82267 0.91870 0.25550 -0.58900
N 	N 	0.18390 0.49460 0.63243 -0.24500
N 	N 	0.39270 0.45930 0.86200 -0.23700
N 	N 	0.85057 0.13783 0.50540 -0.24400
N 	N 	0.05937 0.40270 0.54070 -0.23700
N 	N 	0.51723 0.36757 0.86217 -0.24500
N 	N 	0.72603 0.13800 0.59730 -0.23600
N 	N 	0.81610 0.86217 0.36757 -0.24500
N 	N 	0.60730 0.59730 0.13800 -0.23600
N 	N 	0.14943 0.63243 0.49460 -0.24500
N 	N 	0.94063 0.86200 0.45930 -0.23700
N 	N 	0.48277 0.50540 0.13783 -0.24400
N 	N 	0.27397 0.54070 0.40270 -0.23600
O 	O 	0.04010 0.47035 0.48514 -0.43500
O 	O 	0.10950 0.50614 0.43195 -0.41100
O 	O 	0.70677 0.01479 0.52965 -0.42000
O 	O 	0.77617 0.92581 0.49386 -0.40800
O 	O 	0.37343 0.51486 0.98521 -0.45200
O 	O 	0.44283 0.56805 0.07419 -0.41400
O 	O 	0.95990 0.98521 0.51486 -0.45200
O 	O 	0.89050 0.07419 0.56805 -0.41400
O 	O 	0.29323 0.48514 0.47035 -0.43500
O 	O 	0.22383 0.43195 0.50614 -0.41100
O 	O 	0.62657 0.52965 0.01479 -0.42000
O 	O 	0.55717 0.49386 0.92581 -0.40800
O 	O 	0.16667 0.56299 0.56299 -0.97900
O 	O 	0.83333 0.00000 0.43701 -0.94900
O 	O 	0.50000 0.43701 -0.00000 -0.94900
