data_crystal

_cell_length_a 13.45100
_cell_length_b 13.45100
_cell_length_c 25.49800
_cell_angle_alpha 90.00000
_cell_angle_beta  90.00000
_cell_angle_gamma 90.00000

_symmetry_space_group_name_	'P 1'
_symmetry_space_group_name_H-M	'P 1'

loop_
_symmetry_equiv_pos_as_xyz
  x,y,z

loop_
_atom_site_label
_atom_site_type_symbol
_atom_site_fract_x
_atom_site_fract_y
_atom_site_fract_z
_atom_site_charge
Co	Co	0.25000 0.25000 0.88824 1.11700
Co	Co	0.75000 0.75000 0.38824 1.11700
C 	C 	0.12650 0.44700 0.89320 0.09500
C 	C 	0.40330 0.23040 0.79540 0.02200
C 	C 	0.48430 0.25380 0.76400 -0.02400
C 	C 	0.52660 0.34930 0.76950 -0.05300
C 	C 	0.48340 0.41780 0.80520 -0.02400
C 	C 	0.40270 0.38420 0.83470 0.03000
C 	C 	0.61130 0.38270 0.73730 0.30000
C 	C 	0.72550 0.34040 0.67200 0.11700
C 	C 	0.66050 0.22780 0.60420 0.11600
C 	C 	0.63480 0.06200 0.57000 0.30400
C 	C 	0.66060 0.99420 0.52760 -0.06000
C 	C 	0.72730 0.01560 0.48930 -0.01600
C 	C 	0.62230 0.89980 0.52650 -0.01700
C 	C 	0.74760 0.94780 0.44920 0.03000
C 	C 	0.64380 0.83400 0.48670 0.02800
C 	C 	0.37350 0.05300 0.89320 0.09500
C 	C 	0.09670 0.26960 0.79540 0.02300
C 	C 	0.01570 0.24620 0.76400 -0.02500
C 	C 	0.97340 0.15070 0.76950 -0.05100
C 	C 	0.01660 0.08220 0.80520 -0.02500
C 	C 	0.09730 0.11580 0.83470 0.03000
C 	C 	0.88870 0.11730 0.73730 0.30000
C 	C 	0.77450 0.15960 0.67200 0.11700
C 	C 	0.83950 0.27220 0.60420 0.11600
C 	C 	0.86520 0.43800 0.57000 0.30400
C 	C 	0.83940 0.50580 0.52760 -0.06000
C 	C 	0.77270 0.48440 0.48930 -0.01700
C 	C 	0.87770 0.60020 0.52650 -0.01700
C 	C 	0.75240 0.55220 0.44920 0.03000
C 	C 	0.85620 0.66600 0.48670 0.02800
C 	C 	0.55300 0.62650 0.39320 0.09600
C 	C 	0.76960 0.90330 0.29540 0.02300
C 	C 	0.74620 0.98430 0.26400 -0.02500
C 	C 	0.65070 0.02660 0.26950 -0.05100
C 	C 	0.58220 0.98340 0.30520 -0.02400
C 	C 	0.61580 0.90270 0.33470 0.03000
C 	C 	0.61730 0.11130 0.23730 0.30000
C 	C 	0.65960 0.22550 0.17200 0.11700
C 	C 	0.77220 0.16050 0.10420 0.11600
C 	C 	0.93800 0.13480 0.07000 0.30400
C 	C 	0.00580 0.16060 0.02760 -0.06000
C 	C 	0.98440 0.22730 0.98930 -0.01600
C 	C 	0.10020 0.12230 0.02650 -0.01700
C 	C 	0.05220 0.24760 0.94920 0.03000
C 	C 	0.16600 0.14380 0.98670 0.02800
C 	C 	0.94700 0.87350 0.39320 0.09500
C 	C 	0.73040 0.59670 0.29540 0.02300
C 	C 	0.75380 0.51570 0.26400 -0.02400
C 	C 	0.84930 0.47340 0.26950 -0.05300
C 	C 	0.91780 0.51660 0.30520 -0.02400
C 	C 	0.88420 0.59730 0.33470 0.03000
C 	C 	0.88270 0.38870 0.23730 0.30000
C 	C 	0.84040 0.27450 0.17200 0.11700
C 	C 	0.72780 0.33950 0.10420 0.11600
C 	C 	0.56200 0.36520 0.07000 0.30400
C 	C 	0.49420 0.33940 0.02760 -0.05900
C 	C 	0.51560 0.27270 0.98930 -0.01700
C 	C 	0.39980 0.37770 0.02650 -0.01700
C 	C 	0.44780 0.25240 0.94920 0.03000
C 	C 	0.33400 0.35620 0.98670 0.02800
C 	C 	0.75000 0.25000 0.63770 -0.07500
C 	C 	0.75000 0.25000 0.13770 -0.07500
S 	S 	0.03520 0.52070 0.89790 -0.03000
S 	S 	0.46480 0.97930 0.89790 -0.02900
S 	S 	0.47930 0.53520 0.39790 -0.03000
S 	S 	0.02070 0.96480 0.39790 -0.02900
N 	N 	0.19130 0.39270 0.88680 -0.25900
N 	N 	0.36330 0.29410 0.83038 -0.21800
N 	N 	0.70950 0.85830 0.45000 -0.21600
N 	N 	0.30870 0.10730 0.88680 -0.25900
N 	N 	0.13670 0.20590 0.83038 -0.21900
N 	N 	0.79050 0.64170 0.45000 -0.21600
N 	N 	0.60730 0.69130 0.38680 -0.25900
N 	N 	0.70590 0.86330 0.33038 -0.21900
N 	N 	0.14170 0.20950 0.95000 -0.21600
N 	N 	0.89270 0.80870 0.38680 -0.25900
N 	N 	0.79410 0.63670 0.33038 -0.21800
N 	N 	0.35830 0.29050 0.95000 -0.21600
O 	O 	0.65290 0.46000 0.74320 -0.23900
O 	O 	0.64250 0.31270 0.70488 -0.25700
O 	O 	0.68310 0.14720 0.56756 -0.26000
O 	O 	0.58020 0.04190 0.60560 -0.25800
O 	O 	0.84710 0.04000 0.74320 -0.23900
O 	O 	0.85750 0.18730 0.70488 -0.25700
O 	O 	0.81690 0.35280 0.56756 -0.26000
O 	O 	0.91980 0.45810 0.60560 -0.25800
O 	O 	0.54000 0.15290 0.24320 -0.23800
O 	O 	0.68730 0.14250 0.20488 -0.25700
O 	O 	0.85280 0.18310 0.06756 -0.26000
O 	O 	0.95810 0.08020 0.10560 -0.25800
O 	O 	0.96000 0.34710 0.24320 -0.23900
O 	O 	0.81270 0.35750 0.20488 -0.25700
O 	O 	0.64720 0.31690 0.06756 -0.26000
O 	O 	0.54190 0.41980 0.10560 -0.25800
Co	Co	0.75000 0.75000 0.11176 1.11800
Co	Co	0.25000 0.25000 0.61176 1.11800
C 	C 	0.87350 0.55300 0.10680 0.09600
C 	C 	0.59670 0.76960 0.20460 0.02300
C 	C 	0.51570 0.74620 0.23600 -0.02400
C 	C 	0.47340 0.65070 0.23050 -0.05300
C 	C 	0.51660 0.58220 0.19480 -0.02400
C 	C 	0.59730 0.61580 0.16530 0.03000
C 	C 	0.38870 0.61730 0.26270 0.30000
C 	C 	0.27450 0.65960 0.32800 0.11700
C 	C 	0.33950 0.77220 0.39580 0.11600
C 	C 	0.36520 0.93800 0.43000 0.30400
C 	C 	0.33940 0.00580 0.47240 -0.06000
C 	C 	0.27270 0.98440 0.51070 -0.01600
C 	C 	0.37770 0.10020 0.47350 -0.01700
C 	C 	0.25240 0.05220 0.55080 0.03000
C 	C 	0.35620 0.16600 0.51330 0.02800
C 	C 	0.62650 0.94700 0.10680 0.09500
C 	C 	0.90330 0.73040 0.20460 0.02300
C 	C 	0.98430 0.75380 0.23600 -0.02500
C 	C 	0.02660 0.84930 0.23050 -0.05100
C 	C 	0.98340 0.91780 0.19480 -0.02500
C 	C 	0.90270 0.88420 0.16530 0.03000
C 	C 	0.11130 0.88270 0.26270 0.30000
C 	C 	0.22550 0.84040 0.32800 0.11700
C 	C 	0.16050 0.72780 0.39580 0.11600
C 	C 	0.13480 0.56200 0.43000 0.30400
C 	C 	0.16060 0.49420 0.47240 -0.06000
C 	C 	0.22730 0.51560 0.51070 -0.01700
C 	C 	0.12230 0.39980 0.47350 -0.01700
C 	C 	0.24760 0.44780 0.55080 0.03000
C 	C 	0.14380 0.33400 0.51330 0.02800
C 	C 	0.44700 0.37350 0.60680 0.09600
C 	C 	0.23040 0.09670 0.70460 0.02300
C 	C 	0.25380 0.01570 0.73600 -0.02500
C 	C 	0.34930 0.97340 0.73050 -0.05100
C 	C 	0.41780 0.01660 0.69480 -0.02400
C 	C 	0.38420 0.09730 0.66530 0.03000
C 	C 	0.38270 0.88870 0.76270 0.30000
C 	C 	0.34040 0.77450 0.82800 0.11700
C 	C 	0.22780 0.83950 0.89580 0.11600
C 	C 	0.06200 0.86520 0.93000 0.30400
C 	C 	0.99420 0.83940 0.97240 -0.06000
C 	C 	0.01560 0.77270 0.01070 -0.01600
C 	C 	0.89980 0.87770 0.97350 -0.01700
C 	C 	0.94780 0.75240 0.05080 0.03000
C 	C 	0.83400 0.85620 0.01330 0.02800
C 	C 	0.05300 0.12650 0.60680 0.09500
C 	C 	0.26960 0.40330 0.70460 0.02300
C 	C 	0.24620 0.48430 0.73600 -0.02400
C 	C 	0.15070 0.52660 0.73050 -0.05300
C 	C 	0.08220 0.48340 0.69480 -0.02400
C 	C 	0.11580 0.40270 0.66530 0.03000
C 	C 	0.11730 0.61130 0.76270 0.30000
C 	C 	0.15960 0.72550 0.82800 0.11700
C 	C 	0.27220 0.66050 0.89580 0.11600
C 	C 	0.43800 0.63480 0.93000 0.30400
C 	C 	0.50580 0.66060 0.97240 -0.05900
C 	C 	0.48440 0.72730 0.01070 -0.01700
C 	C 	0.60020 0.62230 0.97350 -0.01700
C 	C 	0.55220 0.74760 0.05080 0.03000
C 	C 	0.66600 0.64380 0.01330 0.02800
C 	C 	0.25000 0.75000 0.36230 -0.07500
C 	C 	0.25000 0.75000 0.86230 -0.07500
S 	S 	0.96480 0.47930 0.10210 -0.03000
S 	S 	0.53520 0.02070 0.10210 -0.02900
S 	S 	0.52070 0.46480 0.60210 -0.03000
S 	S 	0.97930 0.03520 0.60210 -0.02900
N 	N 	0.80870 0.60730 0.11320 -0.25900
N 	N 	0.63670 0.70590 0.16962 -0.21800
N 	N 	0.29050 0.14170 0.55000 -0.21600
N 	N 	0.69130 0.89270 0.11320 -0.25900
N 	N 	0.86330 0.79410 0.16962 -0.21900
N 	N 	0.20950 0.35830 0.55000 -0.21600
N 	N 	0.39270 0.30870 0.61320 -0.25900
N 	N 	0.29410 0.13670 0.66962 -0.21900
N 	N 	0.85830 0.79050 0.05000 -0.21600
N 	N 	0.10730 0.19130 0.61320 -0.25900
N 	N 	0.20590 0.36330 0.66962 -0.21800
N 	N 	0.64170 0.70950 0.05000 -0.21600
O 	O 	0.34710 0.54000 0.25680 -0.23900
O 	O 	0.35750 0.68730 0.29512 -0.25700
O 	O 	0.31690 0.85280 0.43244 -0.26000
O 	O 	0.41980 0.95810 0.39440 -0.25800
O 	O 	0.15290 0.96000 0.25680 -0.23900
O 	O 	0.14250 0.81270 0.29512 -0.25700
O 	O 	0.18310 0.64720 0.43244 -0.26000
O 	O 	0.08020 0.54190 0.39440 -0.25800
O 	O 	0.46000 0.84710 0.75680 -0.23800
O 	O 	0.31270 0.85750 0.79512 -0.25700
O 	O 	0.14720 0.81690 0.93244 -0.26000
O 	O 	0.04190 0.91980 0.89440 -0.25800
O 	O 	0.04000 0.65290 0.75680 -0.23900
O 	O 	0.18730 0.64250 0.79512 -0.25700
O 	O 	0.35280 0.68310 0.93244 -0.26000
O 	O 	0.45810 0.58020 0.89440 -0.25800
H 	H 	0.36713 0.15397 0.79235 0.01600
H 	H 	0.51442 0.19672 0.73502 0.05400
H 	H 	0.51481 0.49623 0.80876 0.07000
H 	H 	0.36644 0.43534 0.86479 0.02600
H 	H 	0.77087 0.41158 0.66801 0.04200
H 	H 	0.58897 0.27198 0.60982 0.02500
H 	H 	0.76790 0.09000 0.48948 0.05300
H 	H 	0.57087 0.87356 0.55923 0.05300
H 	H 	0.79793 0.97018 0.41522 0.01200
H 	H 	0.60518 0.75861 0.48524 0.01400
H 	H 	0.13287 0.34603 0.79235 0.01600
H 	H 	0.98558 0.30328 0.73502 0.05500
H 	H 	0.98519 0.00377 0.80876 0.07100
H 	H 	0.13356 0.06466 0.86479 0.02600
H 	H 	0.72913 0.08842 0.66801 0.04200
H 	H 	0.91103 0.22802 0.60982 0.02500
H 	H 	0.73210 0.41000 0.48948 0.05400
H 	H 	0.92913 0.62644 0.55923 0.05300
H 	H 	0.70207 0.52982 0.41522 0.01200
H 	H 	0.89482 0.74139 0.48524 0.01400
H 	H 	0.84603 0.86713 0.29235 0.01600
H 	H 	0.80328 0.01442 0.23502 0.05500
H 	H 	0.50377 0.01481 0.30876 0.07000
H 	H 	0.56466 0.86644 0.36479 0.02600
H 	H 	0.58842 0.27087 0.16801 0.04200
H 	H 	0.72802 0.08897 0.10982 0.02500
H 	H 	0.91000 0.26790 0.98948 0.05300
H 	H 	0.12644 0.07087 0.05923 0.05300
H 	H 	0.02982 0.29793 0.91522 0.01200
H 	H 	0.24139 0.10518 0.98524 0.01400
H 	H 	0.65397 0.63287 0.29235 0.01600
H 	H 	0.69672 0.48558 0.23502 0.05400
H 	H 	0.99623 0.48519 0.30876 0.07000
H 	H 	0.93534 0.63356 0.36479 0.02600
H 	H 	0.91158 0.22913 0.16801 0.04200
H 	H 	0.77198 0.41103 0.10982 0.02500
H 	H 	0.59000 0.23210 0.98948 0.05400
H 	H 	0.37356 0.42913 0.05923 0.05300
H 	H 	0.47018 0.20207 0.91522 0.01200
H 	H 	0.25861 0.39482 0.98524 0.01400
H 	H 	0.63287 0.84603 0.20765 0.01600
H 	H 	0.48558 0.80328 0.26498 0.05400
H 	H 	0.48519 0.50377 0.19124 0.07000
H 	H 	0.63356 0.56466 0.13521 0.02600
H 	H 	0.22913 0.58842 0.33199 0.04200
H 	H 	0.41103 0.72802 0.39018 0.02500
H 	H 	0.23210 0.91000 0.51052 0.05300
H 	H 	0.42913 0.12644 0.44077 0.05300
H 	H 	0.20207 0.02982 0.58478 0.01200
H 	H 	0.39482 0.24139 0.51476 0.01400
H 	H 	0.86713 0.65397 0.20765 0.01600
H 	H 	0.01442 0.69672 0.26498 0.05500
H 	H 	0.01481 0.99623 0.19124 0.07100
H 	H 	0.86644 0.93534 0.13521 0.02600
H 	H 	0.27087 0.91158 0.33199 0.04200
H 	H 	0.08897 0.77198 0.39018 0.02500
H 	H 	0.26790 0.59000 0.51052 0.05400
H 	H 	0.07087 0.37356 0.44077 0.05300
H 	H 	0.29793 0.47018 0.58478 0.01200
H 	H 	0.10518 0.25861 0.51476 0.01400
H 	H 	0.15397 0.13287 0.70765 0.01600
H 	H 	0.19672 0.98558 0.76498 0.05500
H 	H 	0.49623 0.98519 0.69124 0.07000
H 	H 	0.43534 0.13356 0.63521 0.02600
H 	H 	0.41158 0.72913 0.83199 0.04200
H 	H 	0.27198 0.91103 0.89018 0.02500
H 	H 	0.09000 0.73210 0.01052 0.05300
H 	H 	0.87356 0.92913 0.94077 0.05300
H 	H 	0.97018 0.70207 0.08478 0.01200
H 	H 	0.75861 0.89482 0.01476 0.01400
H 	H 	0.34603 0.36713 0.70765 0.01600
H 	H 	0.30328 0.51442 0.76498 0.05400
H 	H 	0.00377 0.51481 0.69124 0.07000
H 	H 	0.06466 0.36644 0.63521 0.02600
H 	H 	0.08842 0.77087 0.83199 0.04200
H 	H 	0.22802 0.58897 0.89018 0.02500
H 	H 	0.41000 0.76790 0.01052 0.05400
H 	H 	0.62644 0.57087 0.94077 0.05300
H 	H 	0.52982 0.79793 0.08478 0.01200
H 	H 	0.74139 0.60518 0.01476 0.01400
