data_crystal

_cell_length_a 20.10770
_cell_length_b 20.10770
_cell_length_c 20.23400
_cell_angle_alpha 90.00000
_cell_angle_beta  90.00000
_cell_angle_gamma 120.00000

_symmetry_space_group_name_	'P 1'
_symmetry_space_group_name_H-M	'P 1'

loop_
_symmetry_equiv_pos_as_xyz
  x,y,z

loop_
_atom_site_label
_atom_site_type_symbol
_atom_site_fract_x
_atom_site_fract_y
_atom_site_fract_z
_atom_site_charge
N 	N 	0.28030 0.55563 0.09932 -0.21700
N 	N 	0.27300 0.55942 0.03213 -0.21300
N 	N 	0.23250 0.44030 0.05854 -0.16400
N 	N 	0.17950 0.32090 0.10817 -0.17200
N 	N 	0.12680 0.20540 0.16440 -0.17100
N 	N 	0.10700 0.18190 0.26980 -0.12000
N 	N 	0.06720 0.11350 0.23558 -0.23200
C 	C 	0.25560 0.48400 0.11440 0.10800
H 	H 	0.25400 0.46550 0.15690 -0.01100
C 	C 	0.24380 0.49010 0.00890 0.10700
H 	H 	0.23240 0.47670 0.96470 -0.02200
C 	C 	0.20480 0.35990 0.05280 0.18900
C 	C 	0.20620 0.32890 0.99220 -0.23200
H 	H 	0.22440 0.35920 0.95450 0.11300
C 	C 	0.17950 0.25100 0.99000 0.13500
H 	H 	0.17880 0.22750 0.95030 -0.02300
C 	C 	0.15350 0.20800 0.04770 -0.23400
H 	H 	0.13630 0.15560 0.04800 0.10100
C 	C 	0.15450 0.24620 0.10400 0.18500
C 	C 	0.08110 0.12930 0.17350 0.10500
H 	H 	0.06210 0.09310 0.13960 -0.04900
C 	C 	0.14080 0.23510 0.22540 0.10500
H 	H 	0.17080 0.28710 0.23480 0.00600
N 	N 	0.94697 0.88896 0.43265 -0.19300
N 	N 	0.93967 0.89275 0.36546 -0.19100
N 	N 	0.89917 0.77363 0.39187 -0.16200
N 	N 	0.84617 0.65423 0.44150 -0.17000
N 	N 	0.79347 0.53873 0.49773 -0.16900
N 	N 	0.77367 0.51523 0.60313 -0.11200
N 	N 	0.73387 0.44683 0.56891 -0.21600
C 	C 	0.92227 0.81733 0.44773 0.11700
H 	H 	0.92067 0.79883 0.49023 -0.00100
C 	C 	0.91047 0.82343 0.34223 0.11600
H 	H 	0.89907 0.81003 0.29803 -0.01200
C 	C 	0.87147 0.69323 0.38613 0.20200
C 	C 	0.87287 0.66223 0.32553 -0.23300
H 	H 	0.89107 0.69253 0.28783 0.12500
C 	C 	0.84617 0.58433 0.32333 0.15000
H 	H 	0.84547 0.56083 0.28363 -0.01700
C 	C 	0.82017 0.54133 0.38103 -0.23500
H 	H 	0.80297 0.48893 0.38133 0.11400
C 	C 	0.82117 0.57953 0.43733 0.19800
C 	C 	0.74777 0.46263 0.50683 0.11500
H 	H 	0.72877 0.42643 0.47293 -0.02800
C 	C 	0.80747 0.56843 0.55873 0.11300
H 	H 	0.83747 0.62043 0.56813 0.01300
N 	N 	0.61363 0.22230 0.76599 -0.21400
N 	N 	0.60633 0.22609 0.69880 -0.21100
N 	N 	0.56583 0.10697 0.72521 -0.13800
N 	N 	0.51283 0.98757 0.77484 -0.10100
N 	N 	0.46013 0.87207 0.83107 -0.16000
N 	N 	0.44033 0.84857 0.93647 -0.10900
N 	N 	0.40053 0.78017 0.90225 -0.21600
C 	C 	0.58893 0.15067 0.78107 0.09800
H 	H 	0.58733 0.13217 0.82357 -0.01400
C 	C 	0.57713 0.15677 0.67557 0.09600
H 	H 	0.56573 0.14337 0.63137 -0.01700
C 	C 	0.53813 0.02657 0.71947 0.01500
C 	C 	0.53953 0.99557 0.65887 0.06500
H 	H 	0.55773 0.02587 0.62117 -0.01900
C 	C 	0.51283 0.91767 0.65667 -0.03700
H 	H 	0.51213 0.89417 0.61697 0.05200
C 	C 	0.48683 0.87467 0.71437 -0.11900
H 	H 	0.46963 0.82227 0.71467 0.07300
C 	C 	0.48783 0.91287 0.77067 0.15200
C 	C 	0.41443 0.79597 0.84017 0.11300
H 	H 	0.39543 0.75977 0.80627 -0.02700
C 	C 	0.47413 0.90177 0.89207 0.11200
H 	H 	0.50413 0.95377 0.90147 0.02200
N 	N 	0.44437 0.72467 0.09932 -0.21500
N 	N 	0.44058 0.71358 0.03213 -0.21200
N 	N 	0.55970 0.79220 0.05854 -0.16300
N 	N 	0.67910 0.85860 0.10817 -0.17000
N 	N 	0.79460 0.92140 0.16440 -0.16800
N 	N 	0.81810 0.92510 0.26980 -0.10400
N 	N 	0.88650 0.95370 0.23558 -0.19500
C 	C 	0.51600 0.77160 0.11440 0.11300
H 	H 	0.53450 0.78850 0.15690 -0.00800
C 	C 	0.50990 0.75370 0.00890 0.11100
H 	H 	0.52330 0.75570 0.96470 -0.01900
C 	C 	0.64010 0.84490 0.05280 0.19900
C 	C 	0.67110 0.87730 0.99220 -0.23200
H 	H 	0.64080 0.86520 0.95450 0.12100
C 	C 	0.74900 0.92850 0.99000 0.15100
H 	H 	0.77250 0.95130 0.95030 -0.01100
C 	C 	0.79200 0.94550 0.04770 -0.23600
H 	H 	0.84440 0.98070 0.04800 0.12800
C 	C 	0.75380 0.90830 0.10400 0.20300
C 	C 	0.87070 0.95180 0.17350 0.12100
H 	H 	0.90690 0.96900 0.13960 -0.00700
C 	C 	0.76490 0.90570 0.22540 0.11900
H 	H 	0.71290 0.88370 0.23480 0.01200
N 	N 	0.11104 0.05800 0.43265 -0.23000
N 	N 	0.10725 0.04691 0.36546 -0.23000
N 	N 	0.22637 0.12553 0.39187 -0.16500
N 	N 	0.34577 0.19193 0.44150 -0.17300
N 	N 	0.46127 0.25473 0.49773 -0.17000
N 	N 	0.48477 0.25843 0.60313 -0.11500
N 	N 	0.55317 0.28703 0.56891 -0.21700
C 	C 	0.18267 0.10493 0.44773 0.10300
H 	H 	0.20117 0.12183 0.49023 -0.01600
C 	C 	0.17657 0.08703 0.34223 0.10200
H 	H 	0.18997 0.08903 0.29803 -0.02700
C 	C 	0.30677 0.17823 0.38613 0.18900
C 	C 	0.33777 0.21063 0.32553 -0.23100
H 	H 	0.30747 0.19853 0.28783 0.11400
C 	C 	0.41567 0.26183 0.32333 0.14000
H 	H 	0.43917 0.28463 0.28363 -0.02000
C 	C 	0.45867 0.27883 0.38103 -0.23400
H 	H 	0.51107 0.31403 0.38133 0.11100
C 	C 	0.42047 0.24163 0.43733 0.19200
C 	C 	0.53737 0.28513 0.50683 0.11300
H 	H 	0.57357 0.30233 0.47293 -0.02800
C 	C 	0.43157 0.23903 0.55873 0.11000
H 	H 	0.37957 0.21703 0.56813 0.00500
N 	N 	0.77770 0.39134 0.76599 -0.21600
N 	N 	0.77391 0.38025 0.69880 -0.21400
N 	N 	0.89303 0.45887 0.72521 -0.18800
N 	N 	0.01243 0.52527 0.77484 -0.24000
N 	N 	0.12793 0.58807 0.83107 -0.17900
N 	N 	0.15143 0.59177 0.93647 -0.11900
N 	N 	0.21983 0.62037 0.90225 -0.21700
C 	C 	0.84933 0.43827 0.78107 0.12300
H 	H 	0.86783 0.45517 0.82357 -0.00700
C 	C 	0.84323 0.42037 0.67557 0.12100
H 	H 	0.85663 0.42237 0.63137 -0.02200
C 	C 	0.97343 0.51157 0.71947 0.37500
C 	C 	0.00443 0.54397 0.65887 -0.53000
H 	H 	0.97413 0.53187 0.62117 0.25300
C 	C 	0.08233 0.59517 0.65667 0.32400
H 	H 	0.10583 0.61797 0.61697 -0.09200
C 	C 	0.12533 0.61217 0.71437 -0.35200
H 	H 	0.17773 0.64737 0.71467 0.15100
C 	C 	0.08713 0.57497 0.77067 0.23700
C 	C 	0.20403 0.61847 0.84017 0.11500
H 	H 	0.24023 0.63567 0.80627 -0.03000
C 	C 	0.09823 0.57237 0.89207 0.11200
H 	H 	0.04623 0.55037 0.90147 -0.00600
N 	N 	0.27533 0.71970 0.09932 -0.21500
N 	N 	0.28642 0.72700 0.03213 -0.21200
N 	N 	0.20780 0.76750 0.05854 -0.16300
N 	N 	0.14140 0.82050 0.10817 -0.16900
N 	N 	0.07860 0.87320 0.16440 -0.16900
N 	N 	0.07490 0.89300 0.26980 -0.11400
N 	N 	0.04630 0.93280 0.23558 -0.21100
C 	C 	0.22840 0.74440 0.11440 0.11100
H 	H 	0.21150 0.74600 0.15690 -0.01100
C 	C 	0.24630 0.75620 0.00890 0.11100
H 	H 	0.24430 0.76760 0.96470 -0.01800
C 	C 	0.15510 0.79520 0.05280 0.19600
C 	C 	0.12270 0.79380 0.99220 -0.23300
H 	H 	0.13480 0.77560 0.95450 0.11600
C 	C 	0.07150 0.82050 0.99000 0.14300
H 	H 	0.04870 0.82120 0.95030 -0.02500
C 	C 	0.05450 0.84650 0.04770 -0.23300
H 	H 	0.01930 0.86370 0.04800 0.10500
C 	C 	0.09170 0.84550 0.10400 0.19400
C 	C 	0.04820 0.91890 0.17350 0.11400
H 	H 	0.03100 0.93790 0.13960 -0.02600
C 	C 	0.09430 0.85920 0.22540 0.11100
H 	H 	0.11630 0.82920 0.23480 0.00600
N 	N 	0.94200 0.05303 0.43265 -0.20900
N 	N 	0.95309 0.06033 0.36546 -0.20500
N 	N 	0.87447 0.10083 0.39187 -0.16300
N 	N 	0.80807 0.15383 0.44150 -0.16900
N 	N 	0.74527 0.20653 0.49773 -0.17000
N 	N 	0.74157 0.22633 0.60313 -0.11300
N 	N 	0.71297 0.26613 0.56891 -0.21600
C 	C 	0.89507 0.07773 0.44773 0.11000
H 	H 	0.87817 0.07933 0.49023 -0.01200
C 	C 	0.91297 0.08953 0.34223 0.10800
H 	H 	0.91097 0.10093 0.29803 -0.01700
C 	C 	0.82177 0.12853 0.38613 0.19200
C 	C 	0.78937 0.12713 0.32553 -0.23200
H 	H 	0.80147 0.10893 0.28783 0.11100
C 	C 	0.73817 0.15383 0.32333 0.14000
H 	H 	0.71537 0.15453 0.28363 -0.02200
C 	C 	0.72117 0.17983 0.38103 -0.23500
H 	H 	0.68597 0.19703 0.38133 0.11000
C 	C 	0.75837 0.17883 0.43733 0.19200
C 	C 	0.71487 0.25223 0.50683 0.11400
H 	H 	0.69767 0.27123 0.47293 -0.02800
C 	C 	0.76097 0.19253 0.55873 0.11300
H 	H 	0.78297 0.16253 0.56813 0.00600
N 	N 	0.60866 0.38637 0.76599 -0.21500
N 	N 	0.61975 0.39367 0.69880 -0.21200
N 	N 	0.54113 0.43417 0.72521 -0.16300
N 	N 	0.47473 0.48717 0.77484 -0.17100
N 	N 	0.41193 0.53987 0.83107 -0.17000
N 	N 	0.40823 0.55967 0.93647 -0.11400
N 	N 	0.37963 0.59947 0.90225 -0.21700
C 	C 	0.56173 0.41107 0.78107 0.11000
H 	H 	0.54483 0.41267 0.82357 -0.01000
C 	C 	0.57963 0.42287 0.67557 0.10900
H 	H 	0.57763 0.43427 0.63137 -0.01900
C 	C 	0.48843 0.46187 0.71947 0.19400
C 	C 	0.45603 0.46047 0.65887 -0.23200
H 	H 	0.46813 0.44227 0.62117 0.11700
C 	C 	0.40483 0.48717 0.65667 0.14300
H 	H 	0.38203 0.48787 0.61697 -0.02000
C 	C 	0.38783 0.51317 0.71437 -0.23500
H 	H 	0.35263 0.53037 0.71467 0.11100
C 	C 	0.42503 0.51217 0.77067 0.19400
C 	C 	0.38153 0.58557 0.84017 0.11300
H 	H 	0.36433 0.60457 0.80627 -0.02800
C 	C 	0.42763 0.52587 0.89207 0.11100
H 	H 	0.44963 0.49587 0.90147 0.00800
N 	N 	0.71970 0.44437 0.90068 -0.21400
N 	N 	0.72700 0.44058 0.96787 -0.21200
N 	N 	0.76750 0.55970 0.94146 -0.16300
N 	N 	0.82050 0.67910 0.89183 -0.16900
N 	N 	0.87320 0.79460 0.83560 -0.16800
N 	N 	0.89300 0.81810 0.73020 -0.10600
N 	N 	0.93280 0.88650 0.76442 -0.19500
C 	C 	0.74440 0.51600 0.88560 0.11300
H 	H 	0.74600 0.53450 0.84310 -0.00900
C 	C 	0.75620 0.50990 0.99110 0.11200
H 	H 	0.76760 0.52330 0.03530 -0.01700
C 	C 	0.79520 0.64010 0.94720 0.20000
C 	C 	0.79380 0.67110 0.00780 -0.23300
H 	H 	0.77560 0.64080 0.04550 0.12000
C 	C 	0.82050 0.74900 0.01000 0.15100
H 	H 	0.82120 0.77250 0.04970 -0.01600
C 	C 	0.84650 0.79200 0.95230 -0.23500
H 	H 	0.86370 0.84440 0.95200 0.12100
C 	C 	0.84550 0.75380 0.89600 0.20300
C 	C 	0.91890 0.87070 0.82650 0.12200
H 	H 	0.93790 0.90690 0.86040 -0.00700
C 	C 	0.85920 0.76490 0.77460 0.11800
H 	H 	0.82920 0.71290 0.76520 0.01000
N 	N 	0.38637 0.77770 0.23401 -0.21600
N 	N 	0.39367 0.77391 0.30120 -0.21400
N 	N 	0.43417 0.89303 0.27479 -0.18900
N 	N 	0.48717 0.01243 0.22516 -0.24100
N 	N 	0.53987 0.12793 0.16893 -0.18000
N 	N 	0.55967 0.15143 0.06353 -0.11900
N 	N 	0.59947 0.21983 0.09775 -0.21700
C 	C 	0.41107 0.84933 0.21893 0.12300
H 	H 	0.41267 0.86783 0.17643 -0.00700
C 	C 	0.42287 0.84323 0.32443 0.12100
H 	H 	0.43427 0.85663 0.36863 -0.02200
C 	C 	0.46187 0.97343 0.28053 0.37700
C 	C 	0.46047 0.00443 0.34113 -0.53400
H 	H 	0.44227 0.97413 0.37883 0.25500
C 	C 	0.48717 0.08233 0.34333 0.32600
H 	H 	0.48787 0.10583 0.38303 -0.09200
C 	C 	0.51317 0.12533 0.28563 -0.35300
H 	H 	0.53037 0.17773 0.28533 0.15200
C 	C 	0.51217 0.08713 0.22933 0.23700
C 	C 	0.58557 0.20403 0.15983 0.11400
H 	H 	0.60457 0.24023 0.19373 -0.03000
C 	C 	0.52587 0.09823 0.10793 0.11200
H 	H 	0.49587 0.04623 0.09853 -0.00600
N 	N 	0.05303 0.11104 0.56735 -0.23000
N 	N 	0.06033 0.10725 0.63454 -0.22700
N 	N 	0.10083 0.22637 0.60813 -0.16500
N 	N 	0.15383 0.34577 0.55850 -0.17200
N 	N 	0.20653 0.46127 0.50227 -0.17000
N 	N 	0.22633 0.48477 0.39687 -0.11500
N 	N 	0.26613 0.55317 0.43109 -0.21700
C 	C 	0.07773 0.18267 0.55227 0.10300
H 	H 	0.07933 0.20117 0.50977 -0.01800
C 	C 	0.08953 0.17657 0.65777 0.10100
H 	H 	0.10093 0.18997 0.70197 -0.02600
C 	C 	0.12853 0.30677 0.61387 0.18600
C 	C 	0.12713 0.33777 0.67447 -0.23100
H 	H 	0.10893 0.30747 0.71217 0.10700
C 	C 	0.15383 0.41567 0.67667 0.13600
H 	H 	0.15453 0.43917 0.71637 -0.02200
C 	C 	0.17983 0.45867 0.61897 -0.23400
H 	H 	0.19703 0.51107 0.61867 0.10900
C 	C 	0.17883 0.42047 0.56267 0.19000
C 	C 	0.25223 0.53737 0.49317 0.11200
H 	H 	0.27123 0.57357 0.52707 -0.02800
C 	C 	0.19253 0.43157 0.44127 0.11000
H 	H 	0.16253 0.37957 0.43187 0.00300
N 	N 	0.55563 0.27533 0.90068 -0.21600
N 	N 	0.55942 0.28642 0.96787 -0.21300
N 	N 	0.44030 0.20780 0.94146 -0.16400
N 	N 	0.32090 0.14140 0.89183 -0.17100
N 	N 	0.20540 0.07860 0.83560 -0.17100
N 	N 	0.18190 0.07490 0.73020 -0.12200
N 	N 	0.11350 0.04630 0.76442 -0.23200
C 	C 	0.48400 0.22840 0.88560 0.10800
H 	H 	0.46550 0.21150 0.84310 -0.01300
C 	C 	0.49010 0.24630 0.99110 0.10800
H 	H 	0.47670 0.24430 0.03530 -0.02000
C 	C 	0.35990 0.15510 0.94720 0.18900
C 	C 	0.32890 0.12270 0.00780 -0.23200
H 	H 	0.35920 0.13480 0.04550 0.11200
C 	C 	0.25100 0.07150 0.01000 0.13400
H 	H 	0.22750 0.04870 0.04970 -0.03000
C 	C 	0.20800 0.05450 0.95230 -0.23300
H 	H 	0.15560 0.01930 0.95200 0.09400
C 	C 	0.24620 0.09170 0.89600 0.18400
C 	C 	0.12930 0.04820 0.82650 0.10500
H 	H 	0.09310 0.03100 0.86040 -0.04900
C 	C 	0.23510 0.09430 0.77460 0.10400
H 	H 	0.28710 0.11630 0.76520 0.00400
N 	N 	0.22230 0.60866 0.23401 -0.21400
N 	N 	0.22609 0.61975 0.30120 -0.21100
N 	N 	0.10697 0.54113 0.27479 -0.13800
N 	N 	0.98757 0.47473 0.22516 -0.10100
N 	N 	0.87207 0.41193 0.16893 -0.16000
N 	N 	0.84857 0.40823 0.06353 -0.10900
N 	N 	0.78017 0.37963 0.09775 -0.21600
C 	C 	0.15067 0.56173 0.21893 0.09800
H 	H 	0.13217 0.54483 0.17643 -0.01400
C 	C 	0.15677 0.57963 0.32443 0.09600
H 	H 	0.14337 0.57763 0.36863 -0.01700
C 	C 	0.02657 0.48843 0.28053 0.01200
C 	C 	0.99557 0.45603 0.34113 0.06900
H 	H 	0.02587 0.46813 0.37883 -0.02100
C 	C 	0.91767 0.40483 0.34333 -0.03900
H 	H 	0.89417 0.38203 0.38303 0.05300
C 	C 	0.87467 0.38783 0.28563 -0.11700
H 	H 	0.82227 0.35263 0.28533 0.07200
C 	C 	0.91287 0.42503 0.22933 0.15100
C 	C 	0.79597 0.38153 0.15983 0.11300
H 	H 	0.75977 0.36433 0.19373 -0.02600
C 	C 	0.90177 0.42763 0.10793 0.11100
H 	H 	0.95377 0.44963 0.09853 0.02200
N 	N 	0.88896 0.94200 0.56735 -0.19300
N 	N 	0.89275 0.95309 0.63454 -0.18900
N 	N 	0.77363 0.87447 0.60813 -0.16200
N 	N 	0.65423 0.80807 0.55850 -0.16900
N 	N 	0.53873 0.74527 0.50227 -0.16900
N 	N 	0.51523 0.74157 0.39687 -0.11200
N 	N 	0.44683 0.71297 0.43109 -0.21600
C 	C 	0.81733 0.89507 0.55227 0.11600
H 	H 	0.79883 0.87817 0.50977 -0.00400
C 	C 	0.82343 0.91297 0.65777 0.11500
H 	H 	0.81003 0.91097 0.70197 -0.01100
C 	C 	0.69323 0.82177 0.61387 0.19900
C 	C 	0.66223 0.78937 0.67447 -0.23300
H 	H 	0.69253 0.80147 0.71217 0.11900
C 	C 	0.58433 0.73817 0.67667 0.14600
H 	H 	0.56083 0.71537 0.71637 -0.01900
C 	C 	0.54133 0.72117 0.61897 -0.23600
H 	H 	0.48893 0.68597 0.61867 0.11200
C 	C 	0.57953 0.75837 0.56267 0.19600
C 	C 	0.46263 0.71487 0.49317 0.11500
H 	H 	0.42643 0.69767 0.52707 -0.02800
C 	C 	0.56843 0.76097 0.44127 0.11400
H 	H 	0.62043 0.78297 0.43187 0.01100
N 	N 	0.72467 0.28030 0.90068 -0.21500
N 	N 	0.71358 0.27300 0.96787 -0.21300
N 	N 	0.79220 0.23250 0.94146 -0.16400
N 	N 	0.85860 0.17950 0.89183 -0.17200
N 	N 	0.92140 0.12680 0.83560 -0.16900
N 	N 	0.92510 0.10700 0.73020 -0.11000
N 	N 	0.95370 0.06720 0.76442 -0.21100
C 	C 	0.77160 0.25560 0.88560 0.11000
H 	H 	0.78850 0.25400 0.84310 -0.00900
C 	C 	0.75370 0.24380 0.99110 0.10900
H 	H 	0.75570 0.23240 0.03530 -0.02100
C 	C 	0.84490 0.20480 0.94720 0.19400
C 	C 	0.87730 0.20620 0.00780 -0.23200
H 	H 	0.86520 0.22440 0.04550 0.11800
C 	C 	0.92850 0.17950 0.01000 0.14300
H 	H 	0.95130 0.17880 0.04970 -0.01200
C 	C 	0.94550 0.15350 0.95230 -0.23500
H 	H 	0.98070 0.13630 0.95200 0.12000
C 	C 	0.90830 0.15450 0.89600 0.19500
C 	C 	0.95180 0.08110 0.82650 0.11400
H 	H 	0.96900 0.06210 0.86040 -0.02600
C 	C 	0.90570 0.14080 0.77460 0.11400
H 	H 	0.88370 0.17080 0.76520 0.01000
N 	N 	0.39134 0.61363 0.23401 -0.21500
N 	N 	0.38025 0.60633 0.30120 -0.21300
N 	N 	0.45887 0.56583 0.27479 -0.16300
N 	N 	0.52527 0.51283 0.22516 -0.17100
N 	N 	0.58807 0.46013 0.16893 -0.17000
N 	N 	0.59177 0.44033 0.06353 -0.11400
N 	N 	0.62037 0.40053 0.09775 -0.21600
C 	C 	0.43827 0.58893 0.21893 0.11000
H 	H 	0.45517 0.58733 0.17643 -0.01000
C 	C 	0.42037 0.57713 0.32443 0.10900
H 	H 	0.42237 0.56573 0.36863 -0.01900
C 	C 	0.51157 0.53813 0.28053 0.19400
C 	C 	0.54397 0.53953 0.34113 -0.23200
H 	H 	0.53187 0.55773 0.37883 0.11700
C 	C 	0.59517 0.51283 0.34333 0.14300
H 	H 	0.61797 0.51213 0.38303 -0.02000
C 	C 	0.61217 0.48683 0.28563 -0.23500
H 	H 	0.64737 0.46963 0.28533 0.11200
C 	C 	0.57497 0.48783 0.22933 0.19400
C 	C 	0.61847 0.41443 0.15983 0.11400
H 	H 	0.63567 0.39543 0.19373 -0.02800
C 	C 	0.57237 0.47413 0.10793 0.11200
H 	H 	0.55037 0.50413 0.09853 0.00800
N 	N 	0.05800 0.94697 0.56735 -0.21000
N 	N 	0.04691 0.93967 0.63454 -0.20900
N 	N 	0.12553 0.89917 0.60813 -0.16300
N 	N 	0.19193 0.84617 0.55850 -0.17100
N 	N 	0.25473 0.79347 0.50227 -0.16900
N 	N 	0.25843 0.77367 0.39687 -0.11400
N 	N 	0.28703 0.73387 0.43109 -0.21700
C 	C 	0.10493 0.92227 0.55227 0.11200
H 	H 	0.12183 0.92067 0.50977 -0.00600
C 	C 	0.08703 0.91047 0.65777 0.11100
H 	H 	0.08903 0.89907 0.70197 -0.01800
C 	C 	0.17823 0.87147 0.61387 0.19800
C 	C 	0.21063 0.87287 0.67447 -0.23200
H 	H 	0.19853 0.89107 0.71217 0.12400
C 	C 	0.26183 0.84617 0.67667 0.14800
H 	H 	0.28463 0.84547 0.71637 -0.01700
C 	C 	0.27883 0.82017 0.61897 -0.23500
H 	H 	0.31403 0.80297 0.61867 0.11300
C 	C 	0.24163 0.82117 0.56267 0.19700
C 	C 	0.28513 0.74777 0.49317 0.11400
H 	H 	0.30233 0.72877 0.52707 -0.02800
C 	C 	0.23903 0.80747 0.44127 0.11100
H 	H 	0.21703 0.83747 0.43187 0.01000
Cd	Cd	0.33333 0.66667 0.16667 1.17900
Cd	Cd	-0.00000 0.00000 0.50000 1.14600
Cd	Cd	0.66667 0.33333 0.83333 1.17900
Cd	Cd	0.33333 0.66667 0.96184 1.19000
Cd	Cd	-0.00000 0.00000 0.29517 1.15700
Cd	Cd	0.66667 0.33333 0.62851 1.19000
Cd	Cd	0.66667 0.33333 0.03816 1.19000
Cd	Cd	0.33333 0.66667 0.37149 1.19000
Cd	Cd	-0.00000 0.00000 0.70483 1.15700
