data_crystal

_cell_length_a 9.69010
_cell_length_b 9.69010
_cell_length_c 6.61930
_cell_angle_alpha 90.00000
_cell_angle_beta  90.00000
_cell_angle_gamma 90.00000

_symmetry_space_group_name_	'P 1'
_symmetry_space_group_name_H-M	'P 1'

loop_
_symmetry_equiv_pos_as_xyz
  x,y,z

loop_
_atom_site_label
_atom_site_type_symbol
_atom_site_fract_x
_atom_site_fract_y
_atom_site_fract_z
_atom_site_charge
C 	C 	0.09300 0.49160 0.35220 0.00200
H 	H 	0.15640 0.48850 0.24690 -0.00100
C 	C 	0.40700 0.00840 0.35220 0.00200
H 	H 	0.34360 0.01150 0.24690 -0.00100
C 	C 	0.00840 0.09300 0.35220 0.00200
H 	H 	0.01150 0.15640 0.24690 -0.00100
C 	C 	0.49160 0.40700 0.35220 0.00200
H 	H 	0.48850 0.34360 0.24690 -0.00100
C 	C 	0.40700 0.49160 0.64780 0.00200
H 	H 	0.34360 0.48850 0.75310 -0.00100
C 	C 	0.09300 0.00840 0.64780 0.00200
H 	H 	0.15640 0.01150 0.75310 -0.00100
C 	C 	0.49160 0.09300 0.64780 0.00200
H 	H 	0.48850 0.15640 0.75310 -0.00100
C 	C 	0.00840 0.40700 0.64780 0.00200
H 	H 	0.01150 0.34360 0.75310 -0.00100
C 	C 	0.90700 0.50840 0.64780 0.00200
H 	H 	0.84360 0.51150 0.75310 -0.00100
C 	C 	0.59300 0.99160 0.64780 0.00200
H 	H 	0.65640 0.98850 0.75310 -0.00100
C 	C 	0.99160 0.90700 0.64780 0.00200
H 	H 	0.98850 0.84360 0.75310 -0.00100
C 	C 	0.50840 0.59300 0.64780 0.00200
H 	H 	0.51150 0.65640 0.75310 -0.00100
C 	C 	0.59300 0.50840 0.35220 0.00200
H 	H 	0.65640 0.51150 0.24690 -0.00100
C 	C 	0.90700 0.99160 0.35220 0.00200
H 	H 	0.84360 0.98850 0.24690 -0.00100
C 	C 	0.50840 0.90700 0.35220 0.00200
H 	H 	0.51150 0.84360 0.24690 -0.00100
C 	C 	0.99160 0.59300 0.35220 0.00200
H 	H 	0.98850 0.65640 0.24690 -0.00100
Cu	Cu	0.25000 0.25000 0.50000 0.84400
Cu	Cu	0.75000 0.75000 0.50000 0.84400
N 	N 	0.10120 0.39880 0.50000 -0.21300
N 	N 	0.39880 0.10120 0.50000 -0.21300
N 	N 	0.10120 0.10120 0.50000 -0.21300
N 	N 	0.39880 0.39880 0.50000 -0.21300
N 	N 	0.89880 0.60120 0.50000 -0.21300
N 	N 	0.60120 0.89880 0.50000 -0.21300
N 	N 	0.89880 0.89880 0.50000 -0.21300
N 	N 	0.60120 0.60120 0.50000 -0.21300
