data_crystal

_cell_length_a 9.68720
_cell_length_b 9.68720
_cell_length_c 6.59980
_cell_angle_alpha 90.00000
_cell_angle_beta  90.00000
_cell_angle_gamma 90.00000

_symmetry_space_group_name_	'P 1'
_symmetry_space_group_name_H-M	'P 1'

loop_
_symmetry_equiv_pos_as_xyz
  x,y,z

loop_
_atom_site_label
_atom_site_type_symbol
_atom_site_fract_x
_atom_site_fract_y
_atom_site_fract_z
_atom_site_charge
C 	C 	0.09400 0.49250 0.35230 0.00200
H 	H 	0.15940 0.48980 0.24520 -0.00100
C 	C 	0.40600 0.00750 0.35230 0.00200
H 	H 	0.34060 0.01020 0.24520 -0.00100
C 	C 	0.00750 0.09400 0.35230 0.00200
H 	H 	0.01020 0.15940 0.24520 -0.00100
C 	C 	0.49250 0.40600 0.35230 0.00200
H 	H 	0.48980 0.34060 0.24520 -0.00100
C 	C 	0.40600 0.49250 0.64770 0.00200
H 	H 	0.34060 0.48980 0.75480 -0.00100
C 	C 	0.09400 0.00750 0.64770 0.00200
H 	H 	0.15940 0.01020 0.75480 -0.00100
C 	C 	0.49250 0.09400 0.64770 0.00200
H 	H 	0.48980 0.15940 0.75480 -0.00100
C 	C 	0.00750 0.40600 0.64770 0.00200
H 	H 	0.01020 0.34060 0.75480 -0.00100
C 	C 	0.90600 0.50750 0.64770 0.00200
H 	H 	0.84060 0.51020 0.75480 -0.00100
C 	C 	0.59400 0.99250 0.64770 0.00200
H 	H 	0.65940 0.98980 0.75480 -0.00100
C 	C 	0.99250 0.90600 0.64770 0.00200
H 	H 	0.98980 0.84060 0.75480 -0.00100
C 	C 	0.50750 0.59400 0.64770 0.00200
H 	H 	0.51020 0.65940 0.75480 -0.00100
C 	C 	0.59400 0.50750 0.35230 0.00200
H 	H 	0.65940 0.51020 0.24520 -0.00100
C 	C 	0.90600 0.99250 0.35230 0.00200
H 	H 	0.84060 0.98980 0.24520 -0.00100
C 	C 	0.50750 0.90600 0.35230 0.00200
H 	H 	0.51020 0.84060 0.24520 -0.00100
C 	C 	0.99250 0.59400 0.35230 0.00200
H 	H 	0.98980 0.65940 0.24520 -0.00100
Cu	Cu	0.25000 0.25000 0.50000 0.84400
Cu	Cu	0.75000 0.75000 0.50000 0.84400
N 	N 	0.10100 0.39900 0.50000 -0.21300
N 	N 	0.39900 0.10100 0.50000 -0.21300
N 	N 	0.10100 0.10100 0.50000 -0.21300
N 	N 	0.39900 0.39900 0.50000 -0.21300
N 	N 	0.89900 0.60100 0.50000 -0.21300
N 	N 	0.60100 0.89900 0.50000 -0.21300
N 	N 	0.89900 0.89900 0.50000 -0.21300
N 	N 	0.60100 0.60100 0.50000 -0.21300
