data_crystal

_cell_length_a 11.75260
_cell_length_b 11.75260
_cell_length_c 11.83230
_cell_angle_alpha 91.78120
_cell_angle_beta  91.78120
_cell_angle_gamma 105.18700

_symmetry_space_group_name_	'P 1'
_symmetry_space_group_name_H-M	'P 1'

loop_
_symmetry_equiv_pos_as_xyz
  x,y,z

loop_
_atom_site_label
_atom_site_type_symbol
_atom_site_fract_x
_atom_site_fract_y
_atom_site_fract_z
_atom_site_charge
Cu	Cu	0.12945 0.73122 0.53017 0.90300
Cu	Cu	0.73122 0.12945 0.03017 0.87800
H 	H 	0.12560 0.56540 0.72510 0.01300
H 	H 	0.03150 0.52190 0.89320 0.09600
H 	H 	0.88980 0.79820 0.85030 0.12200
H 	H 	0.98680 0.83260 0.68280 0.02100
H 	H 	0.61700 0.63580 0.08860 0.09700
H 	H 	0.74310 0.69890 0.94240 0.03000
H 	H 	0.97440 0.53200 0.07500 0.03900
H 	H 	0.85070 0.47190 0.22410 0.07700
H 	H 	0.96090 0.21370 0.93200 0.05800
H 	H 	0.15790 0.30430 0.97220 0.13900
H 	H 	0.07710 0.35570 0.29730 0.11300
H 	H 	0.88170 0.26650 0.24640 -0.00600
H 	H 	0.46020 0.54880 0.35580 0.07900
H 	H 	0.25800 0.47940 0.31430 0.04900
H 	H 	0.32590 0.30310 0.03440 0.01600
H 	H 	0.52810 0.37250 0.07660 0.07400
H 	H 	0.79180 0.37200 0.93870 0.00900
H 	H 	0.78300 0.46180 0.76780 0.08700
H 	H 	0.70230 0.13750 0.61200 0.08500
H 	H 	0.71160 0.05700 0.78660 0.02100
H 	H 	0.53090 0.30270 0.34140 0.08000
H 	H 	0.57400 0.22600 0.51170 0.02500
H 	H 	0.85740 0.50680 0.57100 0.04200
H 	H 	0.81530 0.58550 0.39990 0.10300
H 	H 	0.56540 0.12560 0.22510 0.00400
H 	H 	0.52190 0.03150 0.39320 0.08200
H 	H 	0.79820 0.88980 0.35030 0.12000
H 	H 	0.83260 0.98680 0.18280 0.01000
H 	H 	0.63580 0.61700 0.58860 0.08400
H 	H 	0.69890 0.74310 0.44240 0.04400
H 	H 	0.53200 0.97440 0.57500 0.02700
H 	H 	0.47190 0.85070 0.72410 0.08300
H 	H 	0.21370 0.96090 0.43200 0.00700
H 	H 	0.30430 0.15790 0.47220 0.08500
H 	H 	0.35570 0.07710 0.79730 0.11400
H 	H 	0.26650 0.88170 0.74640 -0.00100
H 	H 	0.54880 0.46020 0.85580 0.08600
H 	H 	0.47940 0.25800 0.81430 0.05500
H 	H 	0.30310 0.32590 0.53440 0.03700
H 	H 	0.37250 0.52810 0.57660 0.08700
H 	H 	0.37200 0.79180 0.43870 -0.01200
H 	H 	0.46180 0.78300 0.26780 0.09500
H 	H 	0.13750 0.70230 0.11200 0.08400
H 	H 	0.05700 0.71160 0.28660 0.01400
H 	H 	0.30270 0.53090 0.84140 0.11600
H 	H 	0.22600 0.57400 0.01170 -0.07200
H 	H 	0.50680 0.85740 0.07100 0.03500
H 	H 	0.58550 0.81530 0.89990 0.10000
C 	C 	0.07558 0.61200 0.75016 0.08600
C 	C 	0.01947 0.58541 0.85092 -0.15800
C 	C 	0.94468 0.65210 0.89067 0.10900
C 	C 	0.93600 0.74754 0.82570 -0.15400
C 	C 	0.99481 0.76791 0.72560 0.09900
C 	C 	0.71880 0.54396 0.17021 0.13400
C 	C 	0.68918 0.61384 0.08580 -0.19900
C 	C 	0.76459 0.65121 0.99830 0.08000
C 	C 	0.87174 0.62014 0.99066 -0.01000
C 	C 	0.90165 0.55297 0.07713 -0.05200
C 	C 	0.82747 0.51607 0.16605 -0.12200
C 	C 	0.98496 0.24286 0.00712 0.02400
C 	C 	0.10335 0.29565 0.03094 -0.21400
C 	C 	0.14316 0.33648 0.14150 0.12500
C 	C 	0.05607 0.32631 0.22172 -0.17600
C 	C 	0.93892 0.27310 0.19032 0.10300
C 	C 	0.51351 0.46683 0.22054 0.11700
C 	C 	0.43267 0.49869 0.29067 -0.12400
C 	C 	0.31236 0.45766 0.26585 0.00700
C 	C 	0.27062 0.38402 0.16927 -0.06400
C 	C 	0.35285 0.35307 0.09978 0.01700
C 	C 	0.47339 0.39409 0.12480 -0.13400
C 	C 	0.77239 0.32389 0.87125 0.08500
C 	C 	0.76709 0.37837 0.76940 -0.14300
C 	C 	0.73811 0.30895 0.66931 0.10200
C 	C 	0.71951 0.18781 0.67817 -0.14200
C 	C 	0.72591 0.14015 0.78270 0.08800
C 	C 	0.66825 0.45253 0.35434 0.12600
C 	C 	0.59672 0.34458 0.38798 -0.13400
C 	C 	0.62256 0.29934 0.48946 0.01700
C 	C 	0.71870 0.35940 0.55989 -0.05100
C 	C 	0.79078 0.46584 0.52488 0.02100
C 	C 	0.76599 0.51283 0.42274 -0.13800
C 	C 	0.61200 0.07558 0.25016 0.08300
C 	C 	0.58541 0.01947 0.35092 -0.16200
C 	C 	0.65210 0.94468 0.39067 0.11000
C 	C 	0.74754 0.93600 0.32570 -0.16200
C 	C 	0.76791 0.99481 0.22560 0.09900
C 	C 	0.54396 0.71880 0.67021 0.12600
C 	C 	0.61384 0.68918 0.58580 -0.12400
C 	C 	0.65121 0.76459 0.49830 0.01500
C 	C 	0.62014 0.87174 0.49066 -0.05200
C 	C 	0.55297 0.90165 0.57713 0.01500
C 	C 	0.51607 0.82747 0.66605 -0.13300
C 	C 	0.24286 0.98496 0.50712 0.08900
C 	C 	0.29565 0.10335 0.53094 -0.15500
C 	C 	0.33648 0.14316 0.64150 0.10500
C 	C 	0.32631 0.05607 0.72172 -0.16500
C 	C 	0.27310 0.93892 0.69032 0.09900
C 	C 	0.46683 0.51351 0.72054 0.11900
C 	C 	0.49869 0.43267 0.79067 -0.11900
C 	C 	0.45766 0.31236 0.76585 0.00400
C 	C 	0.38402 0.27062 0.66927 -0.04700
C 	C 	0.35307 0.35285 0.59978 0.01500
C 	C 	0.39409 0.47339 0.62480 -0.12700
C 	C 	0.32389 0.77239 0.37125 0.09800
C 	C 	0.37837 0.76709 0.26940 -0.17200
C 	C 	0.30895 0.73811 0.16931 0.14200
C 	C 	0.18781 0.71951 0.17817 -0.16800
C 	C 	0.14015 0.72591 0.28270 0.09800
C 	C 	0.45253 0.66825 0.85434 0.15400
C 	C 	0.34458 0.59672 0.88798 -0.21900
C 	C 	0.29934 0.62256 0.98946 0.21400
C 	C 	0.35940 0.71870 0.05989 -0.15400
C 	C 	0.46584 0.79078 0.02488 0.00200
C 	C 	0.51283 0.76599 0.92274 -0.10600
N 	N 	0.06248 0.70104 0.68593 -0.22400
N 	N 	0.90203 0.23063 0.08524 -0.21900
N 	N 	0.75148 0.20684 0.87896 -0.20300
N 	N 	0.63676 0.50174 0.25357 -0.16900
N 	N 	0.70104 0.06248 0.18593 -0.23100
N 	N 	0.23063 0.90203 0.58524 -0.21900
N 	N 	0.20684 0.75148 0.37896 -0.21800
N 	N 	0.50174 0.63676 0.75357 -0.17100
Cl	Cl	0.11570 0.53382 0.49537 -0.46900
Cl	Cl	0.96471 0.80453 0.45594 -0.43400
Cl	Cl	0.53382 0.11570 0.99537 -0.42400
Cl	Cl	0.80453 0.96471 0.95594 -0.40000
