data_crystal

_cell_length_a 6.20810
_cell_length_b 12.68100
_cell_length_c 10.41400
_cell_angle_alpha 90.00000
_cell_angle_beta  91.21000
_cell_angle_gamma 90.00000

_symmetry_space_group_name_	'P 1'
_symmetry_space_group_name_H-M	'P 1'

loop_
_symmetry_equiv_pos_as_xyz
  x,y,z

loop_
_atom_site_label
_atom_site_type_symbol
_atom_site_fract_x
_atom_site_fract_y
_atom_site_fract_z
_atom_site_charge
Co	Co	0.16580 0.74660 0.27566 1.15000
O 	O 	0.90370 0.15320 0.84210 -0.37100
N 	N 	0.01800 0.85460 0.15110 -0.25700
O 	O 	0.59060 0.14280 0.93670 -0.35200
O 	O 	0.43640 0.36490 0.82190 -0.39000
C 	C 	0.86510 0.02370 0.00660 0.00400
N 	N 	0.31460 0.65740 0.13700 -0.23700
O 	O 	0.75370 0.38470 0.91330 -0.33300
C 	C 	0.60300 0.54410 0.07790 -0.11000
H 	H 	0.74320 0.52120 0.09380 0.09200
C 	C 	0.06470 0.98160 0.98440 -0.08200
H 	H 	0.14960 0.00900 0.91990 0.07600
C 	C 	0.27420 0.54130 0.95630 -0.05400
H 	H 	0.18760 0.51450 0.89000 0.06900
C 	C 	0.56420 0.41110 0.90080 0.28300
C 	C 	0.51150 0.62130 0.15380 0.06900
H 	H 	0.59480 0.64910 0.22090 0.01200
C 	C 	0.47840 0.50140 0.97600 0.00600
C 	C 	0.13960 0.89710 0.05960 0.02900
H 	H 	0.27630 0.86990 0.04590 0.00300
C 	C 	0.82350 0.89690 0.17470 0.09300
H 	H 	0.74130 0.86850 0.23980 0.01000
C 	C 	0.19570 0.62080 0.03360 0.01700
H 	H 	0.06080 0.64970 0.01530 -0.00300
C 	C 	0.74250 0.98180 0.10430 -0.09000
H 	H 	0.60820 0.01010 0.12230 0.07500
C 	C 	0.77800 0.11510 0.92660 0.29100
Co	Co	0.66580 0.25340 0.77566 1.16000
O 	O 	0.40370 0.84680 0.34210 -0.38800
N 	N 	0.51800 0.14540 0.65110 -0.23500
O 	O 	0.09060 0.85720 0.43670 -0.36800
O 	O 	0.93640 0.63510 0.32190 -0.32800
C 	C 	0.36510 0.97630 0.50660 0.00500
N 	N 	0.81460 0.34260 0.63700 -0.22700
O 	O 	0.25370 0.61530 0.41330 -0.32400
C 	C 	0.10300 0.45590 0.57790 -0.18100
H 	H 	0.24320 0.47880 0.59380 0.11200
C 	C 	0.56470 0.01840 0.48440 -0.09100
H 	H 	0.64960 0.99100 0.41990 0.09100
C 	C 	0.77420 0.45870 0.45630 -0.14100
H 	H 	0.68760 0.48550 0.39000 0.10400
C 	C 	0.06420 0.58890 0.40080 0.16900
C 	C 	0.01150 0.37870 0.65380 0.05900
H 	H 	0.09480 0.35090 0.72090 0.00600
C 	C 	0.97840 0.49860 0.47600 0.12100
C 	C 	0.63960 0.10290 0.55960 0.05800
H 	H 	0.77630 0.13010 0.54590 0.00500
C 	C 	0.32350 0.10310 0.67470 0.05200
H 	H 	0.24130 0.13150 0.73980 0.01000
C 	C 	0.69570 0.37920 0.53360 0.08600
H 	H 	0.56080 0.35030 0.51530 -0.01200
C 	C 	0.24250 0.01820 0.60430 -0.09500
H 	H 	0.10820 0.98990 0.62230 0.07400
C 	C 	0.27800 0.88490 0.42660 0.27800
