data_crystal

_cell_length_a 6.30700
_cell_length_b 10.49190
_cell_length_c 12.61100
_cell_angle_alpha 90.00000
_cell_angle_beta  90.00000
_cell_angle_gamma 91.22700

_symmetry_space_group_name_	'P 1'
_symmetry_space_group_name_H-M	'P 1'

loop_
_symmetry_equiv_pos_as_xyz
  x,y,z

loop_
_atom_site_label
_atom_site_type_symbol
_atom_site_fract_x
_atom_site_fract_y
_atom_site_fract_z
_atom_site_charge
Co	Co	0.37200 0.25995 0.24626 1.15900
Co	Co	0.87200 0.75995 0.75374 1.14700
H 	H 	0.76450 0.98680 0.62980 0.00700
H 	H 	0.88660 0.11360 0.49130 0.08700
H 	H 	0.42480 0.91660 0.49240 0.08800
H 	H 	0.29110 0.80020 0.63350 0.01000
H 	H 	0.94680 0.31950 0.15060 -0.07800
H 	H 	0.80340 0.44090 0.02180 0.15400
H 	H 	0.35330 0.64160 0.01330 0.11500
H 	H 	0.47780 0.51510 0.14360 -0.02600
H 	H 	0.26450 0.48680 0.37020 0.00400
H 	H 	0.38660 0.61360 0.50870 0.08500
H 	H 	0.92480 0.41660 0.50760 0.07200
H 	H 	0.79110 0.30020 0.36650 0.00700
H 	H 	0.44680 0.81950 0.84940 0.01000
H 	H 	0.30340 0.94090 0.97820 0.09500
H 	H 	0.85330 0.14160 0.98670 0.07200
H 	H 	0.97780 0.01510 0.85640 0.01400
C 	C 	0.20730 0.86220 0.60390 0.08100
C 	C 	0.97670 0.63470 0.91200 0.16200
C 	C 	0.89890 0.97350 0.60210 0.01100
C 	C 	0.97110 0.04990 0.51860 -0.11300
C 	C 	0.17240 0.02920 0.47670 0.05700
C 	C 	0.29110 0.93360 0.51930 -0.12200
C 	C 	0.25760 0.10950 0.38520 0.26200
C 	C 	0.03070 0.38420 0.12090 0.26400
C 	C 	0.94130 0.45740 0.04480 -0.31500
C 	C 	0.06370 0.55920 0.00160 0.15700
C 	C 	0.26700 0.57620 0.04010 -0.19200
C 	C 	0.34250 0.49850 0.11690 0.12300
C 	C 	0.70730 0.36220 0.39610 0.05900
C 	C 	0.47670 0.13470 0.08800 0.26200
C 	C 	0.39890 0.47350 0.39790 0.05400
C 	C 	0.47110 0.54990 0.48140 -0.08200
C 	C 	0.67240 0.52920 0.52330 -0.00300
C 	C 	0.79110 0.43360 0.48070 -0.09000
C 	C 	0.75760 0.60950 0.61480 0.27800
C 	C 	0.53070 0.88420 0.87910 0.07100
C 	C 	0.44130 0.95740 0.95520 -0.11100
C 	C 	0.56370 0.05920 0.99840 0.01600
C 	C 	0.76700 0.07620 0.95990 -0.06000
C 	C 	0.84250 0.99850 0.88310 0.01100
N 	N 	0.01770 0.88100 0.64380 -0.21100
N 	N 	0.22920 0.39760 0.15630 -0.28300
N 	N 	0.51770 0.38100 0.35620 -0.23700
N 	N 	0.72920 0.89760 0.84370 -0.23900
O 	O 	0.44080 0.09870 0.35680 -0.34800
O 	O 	0.13420 0.19520 0.34760 -0.36300
O 	O 	0.78860 0.62330 0.88470 -0.31900
O 	O 	0.10020 0.71550 0.86550 -0.32500
O 	O 	0.94080 0.59870 0.64320 -0.37000
O 	O 	0.63420 0.69520 0.65240 -0.38500
O 	O 	0.28860 0.12330 0.11530 -0.33800
O 	O 	0.60020 0.21550 0.13450 -0.38400
