data_crystal

_cell_length_a 9.91990
_cell_length_b 10.49050
_cell_length_c 13.43160
_cell_angle_alpha 105.68700
_cell_angle_beta  101.88000
_cell_angle_gamma 94.43600

_symmetry_space_group_name_	'P 1'
_symmetry_space_group_name_H-M	'P 1'

loop_
_symmetry_equiv_pos_as_xyz
  x,y,z

loop_
_atom_site_label
_atom_site_type_symbol
_atom_site_fract_x
_atom_site_fract_y
_atom_site_fract_z
_atom_site_charge
Tb	Tb	0.74376 0.49442 0.47550 1.82600
O 	O 	0.62870 0.66720 0.43800 -0.52400
O 	O 	0.42410 0.62050 0.47370 -0.52400
O 	O 	0.05370 0.35570 0.47080 -0.53500
O 	O 	0.82650 0.28950 0.42890 -0.51100
O 	O 	0.86810 0.47670 0.64680 -0.39800
O 	O 	0.72580 0.62850 0.65540 -0.38000
N 	N 	0.50020 0.98390 0.33260 -0.12500
C 	C 	0.50650 0.68640 0.43920 0.49000
C 	C 	0.45170 0.79790 0.40020 -0.17200
C 	C 	0.54150 0.88100 0.37000 0.09200
H 	H 	0.63550 0.86540 0.37570 0.01100
C 	C 	0.36400 0.00730 0.32780 0.02000
H 	H 	0.33280 0.07760 0.30100 0.03300
C 	C 	0.27130 0.93060 0.36130 -0.03700
C 	C 	0.31750 0.82490 0.39500 0.04600
H 	H 	0.25460 0.76930 0.41530 0.02800
C 	C 	0.12970 0.96330 0.35920 0.01500
C 	C 	0.01790 0.86430 0.32740 -0.04800
H 	H 	0.03300 0.77360 0.30580 0.04600
C 	C 	0.88490 0.89250 0.32570 -0.05800
H 	H 	0.80850 0.82260 0.30070 0.04200
C 	C 	0.86450 0.02090 0.36020 0.02600
H 	H 	0.77310 0.04060 0.36260 0.03500
C 	C 	0.97480 0.12560 0.39270 -0.14300
C 	C 	0.10970 0.09520 0.39310 -0.00300
H 	H 	0.18660 0.16460 0.41640 0.03900
C 	C 	0.95080 0.26660 0.43430 0.47200
C 	C 	0.81010 0.56610 0.69850 0.27500
C 	C 	0.86600 0.61100 0.81570 0.38100
C 	C 	0.83570 0.73110 0.87540 0.95000
H 	H 	0.78010 0.78380 0.84110 -0.35100
N 	N 	0.88680 0.77410 0.98520 -0.39400
C 	C 	0.96820 0.69700 0.03530 0.54700
H 	H 	0.00320 0.72640 0.11040 -0.15300
C 	C 	0.99860 0.57690 0.97570 -0.74000
C 	C 	0.94750 0.53390 0.86590 -0.24500
H 	H 	0.96820 0.45180 0.82510 -0.01100
C 	C 	0.08430 0.49010 0.03010 0.79200
C 	C 	0.15440 0.40030 0.97070 -0.88600
H 	H 	0.14890 0.39510 0.89820 0.32400
C 	C 	0.23270 0.31820 0.01720 0.86400
H 	H 	0.28060 0.25680 0.97660 -0.24900
C 	C 	0.24080 0.32570 0.12330 -1.17400
H 	H 	0.29420 0.26960 0.15510 0.44500
C 	C 	0.17060 0.41550 0.18280 -0.38600
C 	C 	0.09240 0.49770 0.13620 0.20800
H 	H 	0.04450 0.55900 0.17680 0.04100
Tb	Tb	0.25624 0.50558 0.52450 1.82500
O 	O 	0.37130 0.33280 0.56200 -0.52500
O 	O 	0.57590 0.37950 0.52630 -0.52400
O 	O 	0.94630 0.64430 0.52920 -0.53500
O 	O 	0.17350 0.71050 0.57110 -0.51100
O 	O 	0.13190 0.52330 0.35320 -0.39800
O 	O 	0.27420 0.37150 0.34460 -0.38000
N 	N 	0.49980 0.01610 0.66740 -0.12500
C 	C 	0.49350 0.31360 0.56080 0.49000
C 	C 	0.54830 0.20210 0.59980 -0.17200
C 	C 	0.45850 0.11900 0.63000 0.09200
H 	H 	0.36450 0.13460 0.62430 0.01100
C 	C 	0.63600 0.99270 0.67220 0.02000
H 	H 	0.66720 0.92240 0.69900 0.03300
C 	C 	0.72870 0.06940 0.63870 -0.03700
C 	C 	0.68250 0.17510 0.60500 0.04600
H 	H 	0.74540 0.23070 0.58470 0.02800
C 	C 	0.87030 0.03670 0.64080 0.01500
C 	C 	0.98210 0.13570 0.67260 -0.04800
H 	H 	0.96700 0.22640 0.69420 0.04600
C 	C 	0.11510 0.10750 0.67430 -0.05800
H 	H 	0.19150 0.17740 0.69930 0.04200
C 	C 	0.13550 0.97910 0.63980 0.02600
H 	H 	0.22690 0.95940 0.63740 0.03500
C 	C 	0.02520 0.87440 0.60730 -0.14300
C 	C 	0.89030 0.90480 0.60690 -0.00300
H 	H 	0.81340 0.83540 0.58360 0.03900
C 	C 	0.04920 0.73340 0.56570 0.47200
C 	C 	0.18990 0.43390 0.30150 0.27500
C 	C 	0.13400 0.38900 0.18430 0.38100
C 	C 	0.16430 0.26890 0.12460 0.95000
H 	H 	0.21990 0.21620 0.15890 -0.35100
N 	N 	0.11320 0.22590 0.01480 -0.39400
C 	C 	0.03180 0.30300 0.96470 0.54700
H 	H 	0.99680 0.27360 0.88960 -0.15300
C 	C 	0.00140 0.42310 0.02430 -0.74000
C 	C 	0.05250 0.46610 0.13410 -0.24500
H 	H 	0.03180 0.54820 0.17490 -0.01100
C 	C 	0.91570 0.50990 0.96990 0.79200
C 	C 	0.84560 0.59970 0.02930 -0.88600
H 	H 	0.85110 0.60490 0.10180 0.32400
C 	C 	0.76730 0.68180 0.98280 0.86400
H 	H 	0.71940 0.74320 0.02340 -0.24900
C 	C 	0.75920 0.67430 0.87670 -1.17400
H 	H 	0.70580 0.73040 0.84490 0.44500
C 	C 	0.82940 0.58450 0.81720 -0.38600
C 	C 	0.90760 0.50230 0.86380 0.20800
H 	H 	0.95550 0.44100 0.82320 0.04100
