data_crystal

_cell_length_a 20.33780
_cell_length_b 17.66450
_cell_length_c 8.35640
_cell_angle_alpha 90.00000
_cell_angle_beta  96.68500
_cell_angle_gamma 90.00000

_symmetry_space_group_name_	'P 1'
_symmetry_space_group_name_H-M	'P 1'

loop_
_symmetry_equiv_pos_as_xyz
  x,y,z

loop_
_atom_site_label
_atom_site_type_symbol
_atom_site_fract_x
_atom_site_fract_y
_atom_site_fract_z
_atom_site_charge
U 	U 	0.24428 0.18228 0.29323 0.03400
U 	U 	0.17398 0.23192 0.69502 -0.14400
O 	O 	0.24230 0.29250 0.73840 -0.09100
O 	O 	0.10640 0.17200 0.65980 -0.18600
O 	O 	0.33670 0.10500 0.38880 -0.11500
O 	O 	0.40000 0.05360 0.59390 -0.14800
O 	O 	0.22030 0.14210 0.88750 -0.18900
O 	O 	0.30210 0.13880 0.06990 -0.24300
O 	O 	0.25520 0.16180 0.57220 -0.16500
O 	O 	0.11020 0.34460 0.60480 -0.11200
O 	O 	0.05230 0.40670 0.40420 -0.14100
O 	O 	0.21020 0.26850 0.09290 -0.16800
O 	O 	0.12150 0.28530 0.91530 -0.17400
O 	O 	0.16720 0.25800 0.40900 -0.18900
C 	C 	0.34820 0.08730 0.53510 0.14300
C 	C 	0.29540 0.10500 0.64510 0.38000
C 	C 	0.33280 0.12830 0.80930 -0.54500
H 	H 	0.36250 0.08770 0.84880 0.23200
H 	H 	0.35950 0.17280 0.79460 0.23400
C 	C 	0.28600 0.14550 0.93410 0.45600
C 	C 	0.25540 0.03160 0.65900 -0.78900
H 	H 	0.22750 0.03710 0.74370 0.31700
H 	H 	0.28530 0.99000 0.68400 0.25500
H 	H 	0.22860 0.02190 0.55910 0.31600
C 	C 	0.09000 0.35390 0.45710 0.07700
C 	C 	0.11030 0.29700 0.33750 0.52400
C 	C 	0.12750 0.33970 0.18600 -0.69000
H 	H 	0.08870 0.36810 0.14190 0.26000
H 	H 	0.16210 0.37600 0.21960 0.25700
C 	C 	0.14940 0.29300 0.05590 0.59800
C 	C 	0.05310 0.24480 0.29170 -1.14200
H 	H 	0.05830 0.22100 0.19060 0.41200
H 	H 	0.01260 0.27320 0.28170 0.40700
H 	H 	0.05190 0.20680 0.37330 0.41600
U 	U 	0.19497 0.26539 0.69368 0.17300
O 	O 	0.24960 0.33860 0.68500 -0.02900
O 	O 	0.13950 0.18960 0.70700 0.14800
O 	O 	0.15690 0.21980 0.08500 -0.18400
O 	O 	0.15520 0.32280 0.92500 -0.16100
U 	U 	0.74428 0.68228 0.29323 0.03100
U 	U 	0.67398 0.73192 0.69502 -0.14700
O 	O 	0.74230 0.79250 0.73840 -0.09200
O 	O 	0.60640 0.67200 0.65980 -0.19200
O 	O 	0.83670 0.60500 0.38880 -0.11700
O 	O 	0.90000 0.55360 0.59390 -0.15600
O 	O 	0.72030 0.64210 0.88750 -0.19500
O 	O 	0.80210 0.63880 0.06990 -0.24900
O 	O 	0.75520 0.66180 0.57220 -0.17500
O 	O 	0.61020 0.84460 0.60480 -0.11700
O 	O 	0.55230 0.90670 0.40420 -0.15400
O 	O 	0.71020 0.76850 0.09290 -0.17000
O 	O 	0.62150 0.78530 0.91530 -0.17500
O 	O 	0.66720 0.75800 0.40900 -0.18900
C 	C 	0.84820 0.58730 0.53510 0.12700
C 	C 	0.79540 0.60500 0.64510 0.42100
C 	C 	0.83280 0.62830 0.80930 -0.56600
H 	H 	0.86250 0.58770 0.84880 0.23100
H 	H 	0.85950 0.67280 0.79460 0.23700
C 	C 	0.78600 0.64550 0.93410 0.46000
C 	C 	0.75540 0.53160 0.65900 -0.94300
H 	H 	0.72750 0.53710 0.74370 0.35500
H 	H 	0.78530 0.49000 0.68400 0.32600
H 	H 	0.72860 0.52190 0.55910 0.35300
C 	C 	0.59000 0.85390 0.45710 0.08000
C 	C 	0.61030 0.79700 0.33750 0.51900
C 	C 	0.62750 0.83970 0.18600 -0.68700
H 	H 	0.58870 0.86810 0.14190 0.25500
H 	H 	0.66210 0.87600 0.21960 0.25400
C 	C 	0.64940 0.79300 0.05590 0.59900
C 	C 	0.55310 0.74480 0.29170 -1.13300
H 	H 	0.55830 0.72100 0.19060 0.40800
H 	H 	0.51260 0.77320 0.28170 0.40300
H 	H 	0.55190 0.70680 0.37330 0.41200
U 	U 	0.69497 0.76539 0.69368 0.17300
O 	O 	0.74960 0.83860 0.68500 -0.03600
O 	O 	0.63950 0.68960 0.70700 0.15100
O 	O 	0.65690 0.71980 0.08500 -0.18600
O 	O 	0.65520 0.82280 0.92500 -0.16600
U 	U 	0.75572 0.18228 0.70677 0.03300
U 	U 	0.82602 0.23192 0.30498 -0.14500
O 	O 	0.75770 0.29250 0.26160 -0.09200
O 	O 	0.89360 0.17200 0.34020 -0.18600
O 	O 	0.66330 0.10500 0.61120 -0.11500
O 	O 	0.60000 0.05360 0.40610 -0.14800
O 	O 	0.77970 0.14210 0.11250 -0.18900
O 	O 	0.69790 0.13880 0.93010 -0.24300
O 	O 	0.74480 0.16180 0.42780 -0.16500
O 	O 	0.88980 0.34460 0.39520 -0.11200
O 	O 	0.94770 0.40670 0.59580 -0.14000
O 	O 	0.78980 0.26850 0.90710 -0.16800
O 	O 	0.87850 0.28530 0.08470 -0.17400
O 	O 	0.83280 0.25800 0.59100 -0.18900
C 	C 	0.65180 0.08730 0.46490 0.14300
C 	C 	0.70460 0.10500 0.35490 0.38000
C 	C 	0.66720 0.12830 0.19070 -0.54500
H 	H 	0.63750 0.08770 0.15120 0.23200
H 	H 	0.64050 0.17280 0.20540 0.23400
C 	C 	0.71400 0.14550 0.06590 0.45600
C 	C 	0.74460 0.03160 0.34100 -0.78900
H 	H 	0.77250 0.03710 0.25630 0.31700
H 	H 	0.71470 0.99000 0.31600 0.25500
H 	H 	0.77140 0.02190 0.44090 0.31600
C 	C 	0.91000 0.35390 0.54290 0.07700
C 	C 	0.88970 0.29700 0.66250 0.52400
C 	C 	0.87250 0.33970 0.81400 -0.69000
H 	H 	0.91130 0.36810 0.85810 0.26000
H 	H 	0.83790 0.37600 0.78040 0.25700
C 	C 	0.85060 0.29300 0.94410 0.59800
C 	C 	0.94690 0.24480 0.70830 -1.14300
H 	H 	0.94170 0.22100 0.80940 0.41200
H 	H 	0.98740 0.27320 0.71830 0.40700
H 	H 	0.94810 0.20680 0.62670 0.41700
U 	U 	0.80503 0.26539 0.30632 0.17200
O 	O 	0.75040 0.33860 0.31500 -0.02900
O 	O 	0.86050 0.18960 0.29300 0.14800
O 	O 	0.84310 0.21980 0.91500 -0.18400
O 	O 	0.84480 0.32280 0.07500 -0.16100
U 	U 	0.25572 0.68228 0.70677 0.03100
U 	U 	0.32602 0.73192 0.30498 -0.14700
O 	O 	0.25770 0.79250 0.26160 -0.09200
O 	O 	0.39360 0.67200 0.34020 -0.19200
O 	O 	0.16330 0.60500 0.61120 -0.11700
O 	O 	0.10000 0.55360 0.40610 -0.15600
O 	O 	0.27970 0.64210 0.11250 -0.19500
O 	O 	0.19790 0.63880 0.93010 -0.24900
O 	O 	0.24480 0.66180 0.42780 -0.17500
O 	O 	0.38980 0.84460 0.39520 -0.11700
O 	O 	0.44770 0.90670 0.59580 -0.15400
O 	O 	0.28980 0.76850 0.90710 -0.17000
O 	O 	0.37850 0.78530 0.08470 -0.17500
O 	O 	0.33280 0.75800 0.59100 -0.18900
C 	C 	0.15180 0.58730 0.46490 0.12700
C 	C 	0.20460 0.60500 0.35490 0.42100
C 	C 	0.16720 0.62830 0.19070 -0.56600
H 	H 	0.13750 0.58770 0.15120 0.23100
H 	H 	0.14050 0.67280 0.20540 0.23700
C 	C 	0.21400 0.64550 0.06590 0.46000
C 	C 	0.24460 0.53160 0.34100 -0.94200
H 	H 	0.27250 0.53710 0.25630 0.35500
H 	H 	0.21470 0.49000 0.31600 0.32600
H 	H 	0.27140 0.52190 0.44090 0.35300
C 	C 	0.41000 0.85390 0.54290 0.08000
C 	C 	0.38970 0.79700 0.66250 0.51900
C 	C 	0.37250 0.83970 0.81400 -0.68700
H 	H 	0.41130 0.86810 0.85810 0.25500
H 	H 	0.33790 0.87600 0.78040 0.25400
C 	C 	0.35060 0.79300 0.94410 0.59900
C 	C 	0.44690 0.74480 0.70830 -1.13300
H 	H 	0.44170 0.72100 0.80940 0.40800
H 	H 	0.48740 0.77320 0.71830 0.40300
H 	H 	0.44810 0.70680 0.62670 0.41200
U 	U 	0.30503 0.76539 0.30632 0.17300
O 	O 	0.25040 0.83860 0.31500 -0.03600
O 	O 	0.36050 0.68960 0.29300 0.15100
O 	O 	0.34310 0.71980 0.91500 -0.18600
O 	O 	0.34480 0.82280 0.07500 -0.16600
U 	U 	0.50000 0.01346 0.50000 0.02600
U 	U 	-0.00000 0.51346 0.50000 0.00800
