data_crystal

_cell_length_a 14.17440
_cell_length_b 25.91510
_cell_length_c 20.60420
_cell_angle_alpha 90.00000
_cell_angle_beta  90.00000
_cell_angle_gamma 90.00000

_symmetry_space_group_name_	'P 1'
_symmetry_space_group_name_H-M	'P 1'

loop_
_symmetry_equiv_pos_as_xyz
  x,y,z

loop_
_atom_site_label
_atom_site_type_symbol
_atom_site_fract_x
_atom_site_fract_y
_atom_site_fract_z
_atom_site_charge
Zn	Zn	0.75846 0.90040 0.62308 1.21500
Zn	Zn	0.74154 0.59960 0.12308 1.21500
Zn	Zn	0.24154 0.90040 0.12308 1.21500
Zn	Zn	0.25846 0.59960 0.62308 1.21500
H 	H 	0.56650 0.91880 0.56570 0.00700
H 	H 	0.45300 0.98310 0.56260 0.10300
H 	H 	0.61120 0.06580 0.68820 0.11200
H 	H 	0.72040 0.99960 0.68850 0.00500
H 	H 	0.40400 0.06850 0.58670 0.09700
H 	H 	0.40400 0.06810 0.66420 0.08900
H 	H 	0.52560 0.25080 0.50640 0.05900
H 	H 	0.50890 0.25680 0.73860 0.06000
H 	H 	0.62540 0.43910 0.57810 0.09600
H 	H 	0.62530 0.44030 0.65560 0.08500
H 	H 	0.56260 0.51920 0.69000 0.09900
H 	H 	0.44470 0.58150 0.68790 0.00500
H 	H 	0.32100 0.51300 0.54050 -0.01200
H 	H 	0.43290 0.44790 0.54020 0.11000
H 	H 	0.75990 0.77310 0.75000 0.07000
H 	H 	0.75680 0.68170 0.78550 0.07300
H 	H 	0.75990 0.62100 0.86850 0.04100
H 	H 	0.77580 0.73510 0.00340 0.06900
H 	H 	0.78350 0.82690 0.96740 0.06600
H 	H 	0.78340 0.88740 0.88370 0.04700
H 	H 	0.93350 0.58120 0.06570 0.00600
H 	H 	0.04700 0.51690 0.06260 0.10100
H 	H 	0.88880 0.43420 0.18820 0.11100
H 	H 	0.77960 0.50040 0.18850 0.00400
H 	H 	0.09600 0.43150 0.08670 0.09600
H 	H 	0.09600 0.43190 0.16420 0.08800
H 	H 	0.97440 0.24920 0.00640 0.05800
H 	H 	0.99110 0.24320 0.23860 0.05900
H 	H 	0.87460 0.06090 0.07810 0.09500
H 	H 	0.87470 0.05970 0.15560 0.08400
H 	H 	0.93740 0.98080 0.19000 0.09800
H 	H 	0.05530 0.91850 0.18790 0.00500
H 	H 	0.17900 0.98700 0.04050 -0.01300
H 	H 	0.06710 0.05210 0.04020 0.11000
H 	H 	0.74010 0.72690 0.25000 0.07000
H 	H 	0.74320 0.81830 0.28550 0.07300
H 	H 	0.74010 0.87900 0.36850 0.04100
H 	H 	0.72420 0.76490 0.50340 0.06800
H 	H 	0.71650 0.67310 0.46740 0.06600
H 	H 	0.71660 0.61260 0.38370 0.04700
H 	H 	0.43350 0.91880 0.06570 0.00600
H 	H 	0.54700 0.98310 0.06260 0.10200
H 	H 	0.38880 0.06580 0.18820 0.11100
H 	H 	0.27960 0.99960 0.18850 0.00400
H 	H 	0.59600 0.06850 0.08670 0.09600
H 	H 	0.59600 0.06810 0.16420 0.08800
H 	H 	0.47440 0.25080 0.00640 0.05800
H 	H 	0.49110 0.25680 0.23860 0.05900
H 	H 	0.37460 0.43910 0.07810 0.09500
H 	H 	0.37470 0.44030 0.15560 0.08400
H 	H 	0.43740 0.51920 0.19000 0.09900
H 	H 	0.55530 0.58150 0.18790 0.00500
H 	H 	0.67900 0.51300 0.04050 -0.01200
H 	H 	0.56710 0.44790 0.04020 0.11000
H 	H 	0.24010 0.77310 0.25000 0.07000
H 	H 	0.24320 0.68170 0.28550 0.07300
H 	H 	0.24010 0.62100 0.36850 0.04100
H 	H 	0.22420 0.73510 0.50340 0.06800
H 	H 	0.21650 0.82690 0.46740 0.06600
H 	H 	0.21660 0.88740 0.38370 0.04700
H 	H 	0.06650 0.58120 0.56570 0.00600
H 	H 	0.95300 0.51690 0.56260 0.10200
H 	H 	0.11120 0.43420 0.68820 0.11100
H 	H 	0.22040 0.50040 0.68850 0.00400
H 	H 	0.90400 0.43150 0.58670 0.09600
H 	H 	0.90400 0.43190 0.66420 0.08800
H 	H 	0.02560 0.24920 0.50640 0.05800
H 	H 	0.00890 0.24320 0.73860 0.05900
H 	H 	0.12540 0.06090 0.57810 0.09500
H 	H 	0.12530 0.05970 0.65560 0.08400
H 	H 	0.06260 0.98080 0.69000 0.09800
H 	H 	0.94470 0.91850 0.68790 0.00500
H 	H 	0.82100 0.98700 0.54050 -0.01200
H 	H 	0.93290 0.05210 0.54020 0.11000
H 	H 	0.25990 0.72690 0.75000 0.07000
H 	H 	0.25680 0.81830 0.78550 0.07300
H 	H 	0.25990 0.87900 0.86850 0.04100
H 	H 	0.27580 0.76490 0.00340 0.06700
H 	H 	0.28350 0.67310 0.96740 0.06600
H 	H 	0.28340 0.61260 0.88370 0.04700
C 	C 	0.57533 0.94901 0.59106 0.10300
C 	C 	0.50754 0.98728 0.58888 -0.17700
C 	C 	0.51926 0.03172 0.62513 0.15000
C 	C 	0.60046 0.03587 0.66273 -0.16800
C 	C 	0.66515 0.99626 0.66273 0.09500
C 	C 	0.44433 0.07289 0.62548 -0.14100
C 	C 	0.49778 0.15353 0.56933 0.20100
C 	C 	0.51014 0.20828 0.58999 -0.03200
C 	C 	0.52177 0.25200 0.55236 -0.02000
C 	C 	0.52739 0.29762 0.58699 -0.03300
C 	C 	0.54171 0.35127 0.56293 0.20000
C 	C 	0.53863 0.35402 0.67521 0.19900
C 	C 	0.52351 0.29925 0.65484 -0.02900
C 	C 	0.51159 0.25563 0.69256 -0.02200
C 	C 	0.50394 0.21011 0.65768 -0.02900
C 	C 	0.48446 0.15659 0.68116 0.19600
C 	C 	0.58509 0.43490 0.61695 -0.13800
C 	C 	0.50909 0.47587 0.61590 0.15300
C 	C 	0.51262 0.51672 0.65947 -0.17300
C 	C 	0.44226 0.55381 0.65779 0.10900
C 	C 	0.36988 0.51366 0.57200 0.10700
C 	C 	0.43672 0.47497 0.57124 -0.17900
C 	C 	0.77511 0.87397 0.75350 0.33000
C 	C 	0.77314 0.83502 0.80802 -0.05800
C 	C 	0.76544 0.78367 0.79400 -0.04200
C 	C 	0.76547 0.74553 0.84404 0.03300
C 	C 	0.76085 0.69263 0.82938 -0.08000
C 	C 	0.76222 0.65671 0.87852 0.00900
C 	C 	0.76716 0.67315 0.94479 -0.05600
C 	C 	0.77215 0.72450 0.95932 -0.04000
C 	C 	0.77198 0.76264 0.90896 0.02800
C 	C 	0.77895 0.81584 0.92354 -0.07400
C 	C 	0.77920 0.85163 0.87396 0.00200
C 	C 	0.76523 0.63275 0.99762 0.32700
C 	C 	0.92467 0.55099 0.09106 0.10200
C 	C 	0.99246 0.51272 0.08888 -0.17500
C 	C 	0.98074 0.46828 0.12513 0.15000
C 	C 	0.89954 0.46413 0.16273 -0.16800
C 	C 	0.83485 0.50374 0.16273 0.09400
C 	C 	0.05567 0.42711 0.12548 -0.14100
C 	C 	0.00222 0.34647 0.06933 0.19800
C 	C 	0.98986 0.29172 0.08999 -0.03000
C 	C 	0.97823 0.24800 0.05236 -0.02000
C 	C 	0.97261 0.20238 0.08699 -0.03200
C 	C 	0.95829 0.14873 0.06293 0.20000
C 	C 	0.96137 0.14598 0.17521 0.19900
C 	C 	0.97649 0.20075 0.15484 -0.02900
C 	C 	0.98841 0.24437 0.19256 -0.02200
C 	C 	0.99606 0.28989 0.15768 -0.02900
C 	C 	0.01554 0.34341 0.18116 0.19600
C 	C 	0.91491 0.06510 0.11695 -0.13800
C 	C 	0.99091 0.02413 0.11590 0.15500
C 	C 	0.98738 0.98328 0.15947 -0.17300
C 	C 	0.05774 0.94619 0.15779 0.10800
C 	C 	0.13012 0.98634 0.07200 0.10700
C 	C 	0.06328 0.02503 0.07124 -0.18100
C 	C 	0.72489 0.62603 0.25350 0.33000
C 	C 	0.72686 0.66498 0.30802 -0.05700
C 	C 	0.73456 0.71633 0.29400 -0.04300
C 	C 	0.73453 0.75447 0.34404 0.03300
C 	C 	0.73915 0.80737 0.32938 -0.08000
C 	C 	0.73778 0.84329 0.37852 0.00900
C 	C 	0.73284 0.82685 0.44479 -0.05700
C 	C 	0.72785 0.77550 0.45932 -0.03900
C 	C 	0.72802 0.73736 0.40896 0.02700
C 	C 	0.72105 0.68416 0.42354 -0.07400
C 	C 	0.72080 0.64837 0.37396 0.00200
C 	C 	0.73477 0.86725 0.49762 0.32800
C 	C 	0.42467 0.94901 0.09106 0.10300
C 	C 	0.49246 0.98728 0.08888 -0.17800
C 	C 	0.48074 0.03172 0.12513 0.15000
C 	C 	0.39954 0.03587 0.16273 -0.16800
C 	C 	0.33485 0.99626 0.16273 0.09400
C 	C 	0.55567 0.07289 0.12548 -0.14100
C 	C 	0.50222 0.15353 0.06933 0.20100
C 	C 	0.48986 0.20828 0.08999 -0.03200
C 	C 	0.47823 0.25200 0.05236 -0.02000
C 	C 	0.47261 0.29762 0.08699 -0.03300
C 	C 	0.45829 0.35127 0.06293 0.20000
C 	C 	0.46137 0.35402 0.17521 0.19900
C 	C 	0.47649 0.29925 0.15484 -0.02900
C 	C 	0.48841 0.25563 0.19256 -0.02200
C 	C 	0.49606 0.21011 0.15768 -0.02900
C 	C 	0.51554 0.15659 0.18116 0.19600
C 	C 	0.41491 0.43490 0.11695 -0.13800
C 	C 	0.49091 0.47587 0.11590 0.15300
C 	C 	0.48738 0.51672 0.15947 -0.17300
C 	C 	0.55774 0.55381 0.15779 0.10900
C 	C 	0.63012 0.51366 0.07200 0.10700
C 	C 	0.56328 0.47497 0.07124 -0.17900
C 	C 	0.22489 0.87397 0.25350 0.33000
C 	C 	0.22686 0.83502 0.30802 -0.05700
C 	C 	0.23456 0.78367 0.29400 -0.04300
C 	C 	0.23453 0.74553 0.34404 0.03300
C 	C 	0.23915 0.69263 0.32938 -0.08000
C 	C 	0.23778 0.65671 0.37852 0.00900
C 	C 	0.23284 0.67315 0.44479 -0.05700
C 	C 	0.22785 0.72450 0.45932 -0.03900
C 	C 	0.22802 0.76264 0.40896 0.02700
C 	C 	0.22105 0.81584 0.42354 -0.07400
C 	C 	0.22080 0.85163 0.37396 0.00200
C 	C 	0.23477 0.63275 0.49762 0.32800
C 	C 	0.07533 0.55099 0.59106 0.10300
C 	C 	0.00754 0.51272 0.58888 -0.17700
C 	C 	0.01926 0.46828 0.62513 0.15000
C 	C 	0.10046 0.46413 0.66273 -0.16800
C 	C 	0.16515 0.50374 0.66273 0.09400
C 	C 	0.94433 0.42711 0.62548 -0.14100
C 	C 	0.99778 0.34647 0.56933 0.20100
C 	C 	0.01014 0.29172 0.58999 -0.03200
C 	C 	0.02177 0.24800 0.55236 -0.02000
C 	C 	0.02739 0.20238 0.58699 -0.03300
C 	C 	0.04171 0.14873 0.56293 0.20000
C 	C 	0.03863 0.14598 0.67521 0.19900
C 	C 	0.02351 0.20075 0.65484 -0.02900
C 	C 	0.01159 0.24437 0.69256 -0.02200
C 	C 	0.00394 0.28989 0.65768 -0.02900
C 	C 	0.98446 0.34341 0.68116 0.19600
C 	C 	0.08509 0.06510 0.61695 -0.13800
C 	C 	0.00909 0.02413 0.61590 0.15300
C 	C 	0.01262 0.98328 0.65947 -0.17200
C 	C 	0.94226 0.94619 0.65779 0.10800
C 	C 	0.86988 0.98634 0.57200 0.10800
C 	C 	0.93672 0.02503 0.57124 -0.18000
C 	C 	0.27511 0.62603 0.75350 0.33000
C 	C 	0.27314 0.66498 0.80802 -0.05700
C 	C 	0.26544 0.71633 0.79400 -0.04300
C 	C 	0.26547 0.75447 0.84404 0.03400
C 	C 	0.26085 0.80737 0.82938 -0.08100
C 	C 	0.26222 0.84329 0.87852 0.01000
C 	C 	0.26716 0.82685 0.94479 -0.05800
C 	C 	0.27215 0.77550 0.95932 -0.03700
C 	C 	0.27198 0.73736 0.90896 0.02600
C 	C 	0.27895 0.68416 0.92354 -0.07300
C 	C 	0.27920 0.64837 0.87396 0.00200
C 	C 	0.26523 0.86725 0.99762 0.32900
N 	N 	0.65301 0.95306 0.62757 -0.27300
N 	N 	0.48184 0.12543 0.62592 -0.14300
N 	N 	0.54847 0.38233 0.61819 -0.14300
N 	N 	0.37130 0.55200 0.61537 -0.27300
N 	N 	0.84699 0.54694 0.12757 -0.27300
N 	N 	0.01816 0.37457 0.12592 -0.14200
N 	N 	0.95153 0.11767 0.11819 -0.14300
N 	N 	0.12870 0.94800 0.11537 -0.27300
N 	N 	0.34699 0.95306 0.12757 -0.27300
N 	N 	0.51816 0.12543 0.12592 -0.14300
N 	N 	0.45153 0.38233 0.11819 -0.14300
N 	N 	0.62870 0.55200 0.11537 -0.27300
N 	N 	0.15301 0.54694 0.62757 -0.27300
N 	N 	0.98184 0.37457 0.62592 -0.14300
N 	N 	0.04847 0.11767 0.61819 -0.14300
N 	N 	0.87130 0.94800 0.61537 -0.27300
O 	O 	0.50040 0.13568 0.51519 -0.22200
O 	O 	0.54698 0.36654 0.50764 -0.23200
O 	O 	0.54381 0.37136 0.72952 -0.22300
O 	O 	0.47159 0.14181 0.73581 -0.22400
O 	O 	0.77211 0.85458 0.69615 -0.44700
O 	O 	0.77985 0.91981 0.76597 -0.30500
O 	O 	0.76602 0.58691 0.98294 -0.31300
O 	O 	0.76207 0.65044 0.05611 -0.43800
O 	O 	0.99960 0.36432 0.01519 -0.22000
O 	O 	0.95302 0.13346 0.00764 -0.23200
O 	O 	0.95619 0.12864 0.22952 -0.22300
O 	O 	0.02841 0.35819 0.23581 -0.22400
O 	O 	0.72789 0.64542 0.19615 -0.44700
O 	O 	0.72015 0.58019 0.26597 -0.30500
O 	O 	0.73398 0.91309 0.48294 -0.31300
O 	O 	0.73793 0.84956 0.55611 -0.43800
O 	O 	0.49960 0.13568 0.01519 -0.22200
O 	O 	0.45302 0.36654 0.00764 -0.23200
O 	O 	0.45619 0.37136 0.22952 -0.22300
O 	O 	0.52841 0.14181 0.23581 -0.22400
O 	O 	0.22789 0.85458 0.19615 -0.44700
O 	O 	0.22015 0.91981 0.26597 -0.30500
O 	O 	0.23398 0.58691 0.48294 -0.31300
O 	O 	0.23793 0.65044 0.55611 -0.43800
O 	O 	0.00040 0.36432 0.51519 -0.22200
O 	O 	0.04698 0.13346 0.50764 -0.23200
O 	O 	0.04381 0.12864 0.72952 -0.22300
O 	O 	0.97159 0.35819 0.73581 -0.22400
O 	O 	0.27211 0.64542 0.69615 -0.44700
O 	O 	0.27985 0.58019 0.76597 -0.30500
O 	O 	0.26602 0.91309 0.98294 -0.31300
O 	O 	0.26207 0.84956 0.05611 -0.43900
Zn	Zn	0.75846 0.09960 0.87692 1.21400
Zn	Zn	0.74154 0.40040 0.37692 1.21400
Zn	Zn	0.24154 0.09960 0.37692 1.21400
Zn	Zn	0.25846 0.40040 0.87692 1.21400
H 	H 	0.56650 0.08120 0.93430 0.00600
H 	H 	0.45300 0.01690 0.93740 0.10200
H 	H 	0.61120 0.93420 0.81180 0.11100
H 	H 	0.72040 0.00040 0.81150 0.00400
H 	H 	0.40400 0.93150 0.91330 0.09600
H 	H 	0.40400 0.93190 0.83580 0.08800
H 	H 	0.52560 0.74920 0.99360 0.05800
H 	H 	0.50890 0.74320 0.76140 0.05900
H 	H 	0.62540 0.56090 0.92190 0.09500
H 	H 	0.62530 0.55970 0.84440 0.08400
H 	H 	0.56260 0.48080 0.81000 0.09900
H 	H 	0.44470 0.41850 0.81210 0.00500
H 	H 	0.32100 0.48700 0.95950 -0.01200
H 	H 	0.43290 0.55210 0.95980 0.11000
H 	H 	0.75990 0.22690 0.75000 0.07000
H 	H 	0.75680 0.31830 0.71450 0.07300
H 	H 	0.75990 0.37900 0.63150 0.04100
H 	H 	0.77580 0.26490 0.49660 0.06800
H 	H 	0.78350 0.17310 0.53260 0.06600
H 	H 	0.78340 0.11260 0.61630 0.04700
H 	H 	0.93350 0.41880 0.43430 0.00600
H 	H 	0.04700 0.48310 0.43740 0.10200
H 	H 	0.88880 0.56580 0.31180 0.11100
H 	H 	0.77960 0.49960 0.31150 0.00400
H 	H 	0.09600 0.56850 0.41330 0.09600
H 	H 	0.09600 0.56810 0.33580 0.08800
H 	H 	0.97440 0.75080 0.49360 0.05800
H 	H 	0.99110 0.75680 0.26140 0.05900
H 	H 	0.87460 0.93910 0.42190 0.09500
H 	H 	0.87470 0.94030 0.34440 0.08400
H 	H 	0.93740 0.01920 0.31000 0.09800
H 	H 	0.05530 0.08150 0.31210 0.00500
H 	H 	0.17900 0.01300 0.45950 -0.01200
H 	H 	0.06710 0.94790 0.45980 0.11000
H 	H 	0.74010 0.27310 0.25000 0.07000
H 	H 	0.74320 0.18170 0.21450 0.07300
H 	H 	0.74010 0.12100 0.13150 0.04100
H 	H 	0.72420 0.23510 0.99660 0.06700
H 	H 	0.71650 0.32690 0.03260 0.06600
H 	H 	0.71660 0.38740 0.11630 0.04700
H 	H 	0.43350 0.08120 0.43430 0.00600
H 	H 	0.54700 0.01690 0.43740 0.10200
H 	H 	0.38880 0.93420 0.31180 0.11100
H 	H 	0.27960 0.00040 0.31150 0.00400
H 	H 	0.59600 0.93150 0.41330 0.09600
H 	H 	0.59600 0.93190 0.33580 0.08800
H 	H 	0.47440 0.74920 0.49360 0.05800
H 	H 	0.49110 0.74320 0.26140 0.05900
H 	H 	0.37460 0.56090 0.42190 0.09500
H 	H 	0.37470 0.55970 0.34440 0.08400
H 	H 	0.43740 0.48080 0.31000 0.09900
H 	H 	0.55530 0.41850 0.31210 0.00500
H 	H 	0.67900 0.48700 0.45950 -0.01200
H 	H 	0.56710 0.55210 0.45980 0.11000
H 	H 	0.24010 0.22690 0.25000 0.07000
H 	H 	0.24320 0.31830 0.21450 0.07300
H 	H 	0.24010 0.37900 0.13150 0.04100
H 	H 	0.22420 0.26490 0.99660 0.06900
H 	H 	0.21650 0.17310 0.03260 0.06600
H 	H 	0.21660 0.11260 0.11630 0.04700
H 	H 	0.06650 0.41880 0.93430 0.00600
H 	H 	0.95300 0.48310 0.93740 0.10100
H 	H 	0.11120 0.56580 0.81180 0.11100
H 	H 	0.22040 0.49960 0.81150 0.00400
H 	H 	0.90400 0.56850 0.91330 0.09600
H 	H 	0.90400 0.56810 0.83580 0.08800
H 	H 	0.02560 0.75080 0.99360 0.05800
H 	H 	0.00890 0.75680 0.76140 0.05900
H 	H 	0.12540 0.93910 0.92190 0.09500
H 	H 	0.12530 0.94030 0.84440 0.08400
H 	H 	0.06260 0.01920 0.81000 0.09800
H 	H 	0.94470 0.08150 0.81210 0.00500
H 	H 	0.82100 0.01300 0.95950 -0.01300
H 	H 	0.93290 0.94790 0.95980 0.11000
H 	H 	0.25990 0.27310 0.75000 0.07000
H 	H 	0.25680 0.18170 0.71450 0.07300
H 	H 	0.25990 0.12100 0.63150 0.04100
H 	H 	0.27580 0.23510 0.49660 0.06800
H 	H 	0.28350 0.32690 0.53260 0.06600
H 	H 	0.28340 0.38740 0.61630 0.04700
C 	C 	0.57533 0.05099 0.90894 0.10300
C 	C 	0.50754 0.01272 0.91112 -0.17800
C 	C 	0.51926 0.96828 0.87487 0.15000
C 	C 	0.60046 0.96413 0.83727 -0.16800
C 	C 	0.66515 0.00374 0.83727 0.09400
C 	C 	0.44433 0.92711 0.87452 -0.14100
C 	C 	0.49778 0.84647 0.93067 0.20100
C 	C 	0.51014 0.79172 0.91001 -0.03200
C 	C 	0.52177 0.74800 0.94764 -0.02000
C 	C 	0.52739 0.70238 0.91301 -0.03300
C 	C 	0.54171 0.64873 0.93707 0.20000
C 	C 	0.53863 0.64598 0.82479 0.19900
C 	C 	0.52351 0.70075 0.84516 -0.02900
C 	C 	0.51159 0.74437 0.80744 -0.02200
C 	C 	0.50394 0.78989 0.84232 -0.02900
C 	C 	0.48446 0.84341 0.81884 0.19600
C 	C 	0.58509 0.56510 0.88305 -0.13800
C 	C 	0.50909 0.52413 0.88410 0.15300
C 	C 	0.51262 0.48328 0.84053 -0.17300
C 	C 	0.44226 0.44619 0.84221 0.10900
C 	C 	0.36988 0.48634 0.92800 0.10700
C 	C 	0.43672 0.52503 0.92876 -0.17900
C 	C 	0.77511 0.12603 0.74650 0.33000
C 	C 	0.77314 0.16498 0.69198 -0.05700
C 	C 	0.76544 0.21633 0.70600 -0.04300
C 	C 	0.76547 0.25447 0.65596 0.03300
C 	C 	0.76085 0.30737 0.67062 -0.08000
C 	C 	0.76222 0.34329 0.62148 0.00900
C 	C 	0.76716 0.32685 0.55521 -0.05700
C 	C 	0.77215 0.27550 0.54068 -0.03900
C 	C 	0.77198 0.23736 0.59104 0.02700
C 	C 	0.77895 0.18416 0.57646 -0.07400
C 	C 	0.77920 0.14837 0.62604 0.00200
C 	C 	0.76523 0.36725 0.50238 0.32800
C 	C 	0.92467 0.44901 0.40894 0.10300
C 	C 	0.99246 0.48728 0.41112 -0.17700
C 	C 	0.98074 0.53172 0.37487 0.15000
C 	C 	0.89954 0.53587 0.33727 -0.16800
C 	C 	0.83485 0.49626 0.33727 0.09400
C 	C 	0.05567 0.57289 0.37452 -0.14100
C 	C 	0.00222 0.65353 0.43067 0.20100
C 	C 	0.98986 0.70828 0.41001 -0.03200
C 	C 	0.97823 0.75200 0.44764 -0.02000
C 	C 	0.97261 0.79762 0.41301 -0.03300
C 	C 	0.95829 0.85127 0.43707 0.20000
C 	C 	0.96137 0.85402 0.32479 0.19900
C 	C 	0.97649 0.79925 0.34516 -0.02900
C 	C 	0.98841 0.75563 0.30744 -0.02200
C 	C 	0.99606 0.71011 0.34232 -0.02900
C 	C 	0.01554 0.65659 0.31884 0.19600
C 	C 	0.91491 0.93490 0.38305 -0.13800
C 	C 	0.99091 0.97587 0.38410 0.15300
C 	C 	0.98738 0.01672 0.34053 -0.17200
C 	C 	0.05774 0.05381 0.34221 0.10800
C 	C 	0.13012 0.01366 0.42800 0.10800
C 	C 	0.06328 0.97497 0.42876 -0.18000
C 	C 	0.72489 0.37397 0.24650 0.33000
C 	C 	0.72686 0.33502 0.19198 -0.05700
C 	C 	0.73456 0.28367 0.20600 -0.04300
C 	C 	0.73453 0.24553 0.15596 0.03400
C 	C 	0.73915 0.19263 0.17062 -0.08100
C 	C 	0.73778 0.15671 0.12148 0.01000
C 	C 	0.73284 0.17315 0.05521 -0.05800
C 	C 	0.72785 0.22450 0.04068 -0.03700
C 	C 	0.72802 0.26264 0.09104 0.02600
C 	C 	0.72105 0.31584 0.07646 -0.07300
C 	C 	0.72080 0.35163 0.12604 0.00200
C 	C 	0.73477 0.13275 0.00238 0.32900
C 	C 	0.42467 0.05099 0.40894 0.10300
C 	C 	0.49246 0.01272 0.41112 -0.17700
C 	C 	0.48074 0.96828 0.37487 0.15000
C 	C 	0.39954 0.96413 0.33727 -0.16800
C 	C 	0.33485 0.00374 0.33727 0.09500
C 	C 	0.55567 0.92711 0.37452 -0.14100
C 	C 	0.50222 0.84647 0.43067 0.20100
C 	C 	0.48986 0.79172 0.41001 -0.03200
C 	C 	0.47823 0.74800 0.44764 -0.02000
C 	C 	0.47261 0.70238 0.41301 -0.03300
C 	C 	0.45829 0.64873 0.43707 0.20000
C 	C 	0.46137 0.64598 0.32479 0.19900
C 	C 	0.47649 0.70075 0.34516 -0.02900
C 	C 	0.48841 0.74437 0.30744 -0.02200
C 	C 	0.49606 0.78989 0.34232 -0.02900
C 	C 	0.51554 0.84341 0.31884 0.19600
C 	C 	0.41491 0.56510 0.38305 -0.13800
C 	C 	0.49091 0.52413 0.38410 0.15300
C 	C 	0.48738 0.48328 0.34053 -0.17300
C 	C 	0.55774 0.44619 0.34221 0.10900
C 	C 	0.63012 0.48634 0.42800 0.10700
C 	C 	0.56328 0.52503 0.42876 -0.17900
C 	C 	0.22489 0.12603 0.24650 0.33000
C 	C 	0.22686 0.16498 0.19198 -0.05800
C 	C 	0.23456 0.21633 0.20600 -0.04200
C 	C 	0.23453 0.25447 0.15596 0.03300
C 	C 	0.23915 0.30737 0.17062 -0.08000
C 	C 	0.23778 0.34329 0.12148 0.00900
C 	C 	0.23284 0.32685 0.05521 -0.05600
C 	C 	0.22785 0.27550 0.04068 -0.04000
C 	C 	0.22802 0.23736 0.09104 0.02800
C 	C 	0.22105 0.18416 0.07646 -0.07400
C 	C 	0.22080 0.14837 0.12604 0.00200
C 	C 	0.23477 0.36725 0.00238 0.32700
C 	C 	0.07533 0.44901 0.90894 0.10200
C 	C 	0.00754 0.48728 0.91112 -0.17500
C 	C 	0.01926 0.53172 0.87487 0.15000
C 	C 	0.10046 0.53587 0.83727 -0.16800
C 	C 	0.16515 0.49626 0.83727 0.09400
C 	C 	0.94433 0.57289 0.87452 -0.14100
C 	C 	0.99778 0.65353 0.93067 0.19800
C 	C 	0.01014 0.70828 0.91001 -0.03000
C 	C 	0.02177 0.75200 0.94764 -0.02000
C 	C 	0.02739 0.79762 0.91301 -0.03200
C 	C 	0.04171 0.85127 0.93707 0.20000
C 	C 	0.03863 0.85402 0.82479 0.19900
C 	C 	0.02351 0.79925 0.84516 -0.02900
C 	C 	0.01159 0.75563 0.80744 -0.02200
C 	C 	0.00394 0.71011 0.84232 -0.02900
C 	C 	0.98446 0.65659 0.81884 0.19600
C 	C 	0.08509 0.93490 0.88305 -0.13800
C 	C 	0.00909 0.97587 0.88410 0.15500
C 	C 	0.01262 0.01672 0.84053 -0.17300
C 	C 	0.94226 0.05381 0.84221 0.10800
C 	C 	0.86988 0.01366 0.92800 0.10700
C 	C 	0.93672 0.97497 0.92876 -0.18100
C 	C 	0.27511 0.37397 0.74650 0.33000
C 	C 	0.27314 0.33502 0.69198 -0.05700
C 	C 	0.26544 0.28367 0.70600 -0.04300
C 	C 	0.26547 0.24553 0.65596 0.03300
C 	C 	0.26085 0.19263 0.67062 -0.08000
C 	C 	0.26222 0.15671 0.62148 0.00900
C 	C 	0.26716 0.17315 0.55521 -0.05700
C 	C 	0.27215 0.22450 0.54068 -0.03900
C 	C 	0.27198 0.26264 0.59104 0.02700
C 	C 	0.27895 0.31584 0.57646 -0.07400
C 	C 	0.27920 0.35163 0.62604 0.00200
C 	C 	0.26523 0.13275 0.50238 0.32800
N 	N 	0.65301 0.04694 0.87243 -0.27300
N 	N 	0.48184 0.87457 0.87408 -0.14300
N 	N 	0.54847 0.61767 0.88181 -0.14300
N 	N 	0.37130 0.44800 0.88463 -0.27300
N 	N 	0.84699 0.45306 0.37243 -0.27300
N 	N 	0.01816 0.62543 0.37408 -0.14300
N 	N 	0.95153 0.88233 0.38181 -0.14300
N 	N 	0.12870 0.05200 0.38463 -0.27300
N 	N 	0.34699 0.04694 0.37243 -0.27300
N 	N 	0.51816 0.87457 0.37408 -0.14300
N 	N 	0.45153 0.61767 0.38181 -0.14300
N 	N 	0.62870 0.44800 0.38463 -0.27300
N 	N 	0.15301 0.45306 0.87243 -0.27300
N 	N 	0.98184 0.62543 0.87408 -0.14200
N 	N 	0.04847 0.88233 0.88181 -0.14300
N 	N 	0.87130 0.05200 0.88463 -0.27300
O 	O 	0.50040 0.86432 0.98481 -0.22200
O 	O 	0.54698 0.63346 0.99236 -0.23200
O 	O 	0.54381 0.62864 0.77048 -0.22300
O 	O 	0.47159 0.85819 0.76419 -0.22400
O 	O 	0.77211 0.14542 0.80385 -0.44700
O 	O 	0.77985 0.08019 0.73403 -0.30500
O 	O 	0.76602 0.41309 0.51706 -0.31300
O 	O 	0.76207 0.34956 0.44389 -0.43800
O 	O 	0.99960 0.63568 0.48481 -0.22200
O 	O 	0.95302 0.86654 0.49236 -0.23200
O 	O 	0.95619 0.87136 0.27048 -0.22300
O 	O 	0.02841 0.64181 0.26419 -0.22400
O 	O 	0.72789 0.35458 0.30385 -0.44700
O 	O 	0.72015 0.41981 0.23403 -0.30500
O 	O 	0.73398 0.08691 0.01706 -0.31300
O 	O 	0.73793 0.15044 0.94389 -0.43900
O 	O 	0.49960 0.86432 0.48481 -0.22200
O 	O 	0.45302 0.63346 0.49236 -0.23200
O 	O 	0.45619 0.62864 0.27048 -0.22300
O 	O 	0.52841 0.85819 0.26419 -0.22400
O 	O 	0.22789 0.14542 0.30385 -0.44700
O 	O 	0.22015 0.08019 0.23403 -0.30500
O 	O 	0.23398 0.41309 0.01706 -0.31300
O 	O 	0.23793 0.34956 0.94389 -0.43800
O 	O 	0.00040 0.63568 0.98481 -0.22000
O 	O 	0.04698 0.86654 0.99236 -0.23200
O 	O 	0.04381 0.87136 0.77048 -0.22300
O 	O 	0.97159 0.64181 0.76419 -0.22400
O 	O 	0.27211 0.35458 0.80385 -0.44700
O 	O 	0.27985 0.41981 0.73403 -0.30500
O 	O 	0.26602 0.08691 0.51706 -0.31300
O 	O 	0.26207 0.15044 0.44389 -0.43800
