data_crystal

_cell_length_a 7.97140
_cell_length_b 9.74030
_cell_length_c 21.31200
_cell_angle_alpha 90.00000
_cell_angle_beta  90.00000
_cell_angle_gamma 114.15400

_symmetry_space_group_name_	'P 1'
_symmetry_space_group_name_H-M	'P 1'

loop_
_symmetry_equiv_pos_as_xyz
  x,y,z

loop_
_atom_site_label
_atom_site_type_symbol
_atom_site_fract_x
_atom_site_fract_y
_atom_site_fract_z
_atom_site_charge
Na	Na	0.88990 0.00000 0.50000 0.58000
Na	Na	0.11010 0.00000 -0.00000 0.57700
U 	U 	0.45905 0.85680 0.61808 0.03000
U 	U 	0.54095 0.14320 0.11808 -0.02000
U 	U 	0.39775 0.85680 0.88192 0.03300
U 	U 	0.60225 0.14320 0.38192 -0.01700
H 	H 	0.98450 0.66360 0.54300 0.07700
H 	H 	0.98290 0.39920 0.54690 0.06200
H 	H 	0.85510 0.44500 0.72000 0.07900
H 	H 	0.01550 0.33640 0.04300 0.06100
H 	H 	0.01710 0.60080 0.04690 0.06900
H 	H 	0.14490 0.55500 0.22000 0.09400
H 	H 	0.67910 0.66360 0.95700 0.08400
H 	H 	0.41630 0.39920 0.95310 0.07300
H 	H 	0.58990 0.44500 0.78000 0.08400
H 	H 	0.32090 0.33640 0.45700 0.06800
H 	H 	0.58370 0.60080 0.45310 0.07300
H 	H 	0.41010 0.55500 0.28000 0.09000
C 	C 	0.62820 0.65900 0.58630 0.26200
C 	C 	0.71990 0.55600 0.57460 0.05400
C 	C 	0.95340 0.67300 0.72230 0.06400
C 	C 	0.72410 0.33420 0.57780 0.04100
C 	C 	0.63550 0.17300 0.58900 0.26800
C 	C 	0.88820 0.57460 0.55530 -0.05200
C 	C 	0.88660 0.42520 0.55770 -0.02900
C 	C 	0.12300 0.74040 0.68710 0.24600
C 	C 	0.83890 0.52980 0.73310 -0.03400
C 	C 	0.37180 0.34100 0.08630 0.27000
C 	C 	0.28010 0.44400 0.07460 0.03900
C 	C 	0.04660 0.32700 0.22230 0.07900
C 	C 	0.27590 0.66580 0.07780 0.05800
C 	C 	0.36450 0.82700 0.08900 0.25200
C 	C 	0.11180 0.42540 0.05530 -0.04100
C 	C 	0.11340 0.57480 0.05770 -0.04500
C 	C 	0.87700 0.25960 0.18710 0.23200
C 	C 	0.16110 0.47020 0.23310 -0.04300
C 	C 	0.03080 0.65900 0.91370 0.27100
C 	C 	0.83610 0.55600 0.92540 0.05200
C 	C 	0.71960 0.67300 0.77770 0.07600
C 	C 	0.61010 0.33420 0.92220 0.04700
C 	C 	0.53750 0.17300 0.91100 0.26800
C 	C 	0.68640 0.57460 0.94470 -0.04400
C 	C 	0.53860 0.42520 0.94230 -0.02900
C 	C 	0.61740 0.74040 0.81290 0.23500
C 	C 	0.69090 0.52980 0.76690 -0.04500
C 	C 	0.96920 0.34100 0.41370 0.26200
C 	C 	0.16390 0.44400 0.42540 0.05400
C 	C 	0.28040 0.32700 0.27770 0.06900
C 	C 	0.38990 0.66580 0.42220 0.06100
C 	C 	0.46250 0.82700 0.41100 0.25400
C 	C 	0.31360 0.42540 0.44470 -0.04300
C 	C 	0.46140 0.57480 0.44230 -0.04000
C 	C 	0.38260 0.25960 0.31290 0.24100
C 	C 	0.30910 0.47020 0.26690 -0.03500
O 	O 	0.47790 0.61400 0.61090 -0.17100
O 	O 	0.71090 0.79980 0.57000 -0.22400
O 	O 	0.48020 0.11380 0.61670 -0.19000
O 	O 	0.19290 0.87880 0.67170 -0.12500
O 	O 	0.71620 0.08880 0.57450 -0.26500
O 	O 	0.20070 0.65560 0.66900 -0.15900
O 	O 	0.61420 0.40980 0.58980 -0.15900
O 	O 	0.52210 0.38600 0.11090 -0.17900
O 	O 	0.28910 0.20020 0.07000 -0.26800
O 	O 	0.51980 0.88620 0.11670 -0.12900
O 	O 	0.80710 0.12120 0.17170 -0.17600
O 	O 	0.28380 0.91120 0.07450 -0.20100
O 	O 	0.79930 0.34440 0.16900 -0.16300
O 	O 	0.38580 0.59020 0.08980 -0.15700
O 	O 	0.13610 0.61400 0.88910 -0.16900
O 	O 	0.08890 0.79980 0.93000 -0.21500
O 	O 	0.63360 0.11380 0.88330 -0.18800
O 	O 	0.68590 0.87880 0.82830 -0.12500
O 	O 	0.37260 0.08880 0.92550 -0.25500
O 	O 	0.45490 0.65560 0.83100 -0.15700
O 	O 	0.79560 0.40980 0.91020 -0.15800
O 	O 	0.86390 0.38600 0.38910 -0.17400
O 	O 	0.91110 0.20020 0.43000 -0.26100
O 	O 	0.36640 0.88620 0.38330 -0.12400
O 	O 	0.31410 0.12120 0.32830 -0.17300
O 	O 	0.62740 0.91120 0.42550 -0.19600
O 	O 	0.54510 0.34440 0.33100 -0.16200
O 	O 	0.20440 0.59020 0.41020 -0.15400
O 	O 	0.88390 0.76780 0.75000 -0.13900
O 	O 	0.11610 0.23220 0.25000 -0.15600
