data_crystal

_cell_length_a 8.45700
_cell_length_b 9.69000
_cell_length_c 17.22500
_cell_angle_alpha 90.00000
_cell_angle_beta  90.00000
_cell_angle_gamma 112.22000

_symmetry_space_group_name_	'P 1'
_symmetry_space_group_name_H-M	'P 1'

loop_
_symmetry_equiv_pos_as_xyz
  x,y,z

loop_
_atom_site_label
_atom_site_type_symbol
_atom_site_fract_x
_atom_site_fract_y
_atom_site_fract_z
_atom_site_charge
Er	Er	0.34421 0.02392 0.25741 1.84600
Er	Er	0.65579 0.47608 0.75741 1.85200
Er	Er	0.34421 0.52392 0.24259 1.85200
Er	Er	0.65579 0.97608 0.74259 1.84600
H 	H 	0.85200 0.15200 0.32100 0.10800
H 	H 	0.66070 0.83190 0.58960 0.16900
H 	H 	0.16000 0.09500 0.73600 0.21200
H 	H 	0.41800 0.07900 0.99200 0.18900
H 	H 	0.85200 0.65200 0.17900 0.10600
H 	H 	0.66070 0.33190 0.91040 0.17100
H 	H 	0.58200 0.92100 0.00800 0.18900
H 	H 	0.41800 0.57900 0.50800 0.18200
H 	H 	0.14800 0.34800 0.82100 0.10600
H 	H 	0.33930 0.16810 0.41040 0.17000
H 	H 	0.14800 0.84800 0.67900 0.10900
H 	H 	0.84000 0.40500 0.23600 0.21500
H 	H 	0.16000 0.59500 0.76400 0.21500
H 	H 	0.84000 0.90500 0.26400 0.21200
H 	H 	0.58200 0.42100 0.49200 0.18200
H 	H 	0.33930 0.66810 0.08960 0.17100
C 	C 	0.81350 0.96140 0.28320 -0.34800
C 	C 	0.18650 0.53860 0.78320 -0.35500
C 	C 	0.62900 0.86700 0.28620 0.54800
C 	C 	0.37100 0.13300 0.71380 0.54800
C 	C 	0.18650 0.03860 0.71680 -0.34800
C 	C 	0.40570 0.02580 0.09840 0.35800
C 	C 	0.44380 0.52810 0.48540 -0.21800
C 	C 	0.12400 0.89720 0.69940 -0.11300
C 	C 	0.06260 0.19860 0.28930 0.44800
C 	C 	0.55620 0.97190 0.98540 -0.22600
C 	C 	0.44380 0.02810 0.01460 -0.22600
C 	C 	0.55620 0.47190 0.51460 -0.21800
C 	C 	0.12400 0.39720 0.80060 -0.11000
C 	C 	0.87600 0.60280 0.19940 -0.11000
C 	C 	0.93740 0.30140 0.78930 0.44900
C 	C 	0.06260 0.69860 0.21070 0.44900
C 	C 	0.93740 0.80140 0.71070 0.44800
C 	C 	0.62900 0.36700 0.21380 0.55000
C 	C 	0.87600 0.10280 0.30060 -0.11300
C 	C 	0.59430 0.97420 0.90160 0.35800
C 	C 	0.59430 0.47420 0.59840 0.36000
C 	C 	0.37100 0.63300 0.78620 0.55000
C 	C 	0.81350 0.46140 0.21680 -0.35500
C 	C 	0.40570 0.52580 0.40160 0.36000
O 	O 	0.16560 0.63880 0.23000 -0.53900
O 	O 	0.58830 0.73200 0.26880 -0.49000
O 	O 	0.46410 0.95460 0.14530 -0.38700
O 	O 	0.10510 0.33620 0.29650 -0.47900
O 	O 	0.46410 0.45460 0.35470 -0.39100
O 	O 	0.42900 0.66250 0.12190 -0.39600
O 	O 	0.89490 0.66380 0.70350 -0.47900
O 	O 	0.89490 0.16380 0.79650 -0.47500
O 	O 	0.47490 0.07610 0.69470 -0.52200
O 	O 	0.31230 0.59160 0.37780 -0.38200
O 	O 	0.41170 0.76800 0.76880 -0.49000
O 	O 	0.47490 0.57610 0.80530 -0.52500
O 	O 	0.16560 0.13880 0.27000 -0.53900
O 	O 	0.57100 0.83750 0.62190 -0.39600
O 	O 	0.31230 0.09160 0.12220 -0.38300
O 	O 	0.83440 0.86120 0.73000 -0.53900
O 	O 	0.57100 0.33750 0.87810 -0.39600
O 	O 	0.58830 0.23200 0.23120 -0.49000
O 	O 	0.52510 0.42390 0.19470 -0.52500
O 	O 	0.42900 0.16250 0.37810 -0.39600
O 	O 	0.52510 0.92390 0.30530 -0.52200
O 	O 	0.68770 0.40840 0.62220 -0.38200
O 	O 	0.68770 0.90840 0.87780 -0.38300
O 	O 	0.10510 0.83620 0.20350 -0.47500
O 	O 	0.53590 0.54540 0.64530 -0.39100
O 	O 	0.83440 0.36120 0.77000 -0.53900
O 	O 	0.53590 0.04540 0.85470 -0.38700
O 	O 	0.41170 0.26800 0.73120 -0.49000
