data_crystal

_cell_length_a 10.74100
_cell_length_b 10.80400
_cell_length_c 14.05000
_cell_angle_alpha 88.03100
_cell_angle_beta  87.35700
_cell_angle_gamma 68.71600

_symmetry_space_group_name_	'P 1'
_symmetry_space_group_name_H-M	'P 1'

loop_
_symmetry_equiv_pos_as_xyz
  x,y,z

loop_
_atom_site_label
_atom_site_type_symbol
_atom_site_fract_x
_atom_site_fract_y
_atom_site_fract_z
_atom_site_charge
Cu	Cu	0.24522 0.24381 0.59470 0.91200
Cu	Cu	0.25127 0.25143 0.78033 0.90900
H 	H 	0.76630 0.43680 0.60640 0.05700
H 	H 	0.35720 0.81320 0.75540 0.07400
H 	H 	0.40290 0.59230 0.67680 0.04900
H 	H 	0.67750 0.19870 0.80880 0.05900
H 	H 	0.22110 0.66680 0.80930 0.06000
H 	H 	0.13020 0.68180 0.61990 0.08000
H 	H 	0.42520 0.09300 0.25950 0.07200
H 	H 	0.43530 0.13890 0.94730 0.07700
H 	H 	0.13090 0.89920 0.80830 0.05200
H 	H 	0.41150 0.08860 0.42340 0.02100
H 	H 	0.80980 0.35560 0.76260 0.07500
H 	H 	0.06780 0.71450 0.78100 0.04400
H 	H 	0.91200 0.09310 0.68540 0.05300
H 	H 	0.06300 0.37150 0.11660 0.03400
H 	H 	0.07980 0.41270 0.26090 0.07000
H 	H 	0.58700 0.36580 0.57560 0.04700
H 	H 	0.07520 0.39870 0.42760 0.02400
H 	H 	0.82180 0.28900 0.56610 0.06300
H 	H 	0.43900 0.13310 0.11600 0.10500
H 	H 	0.73390 0.05250 0.76530 0.04600
H 	H 	0.08090 0.36520 0.94830 0.01700
H 	H 	0.37570 0.06670 0.95030 -0.04600
H 	H 	0.35750 0.59240 0.56990 0.04500
H 	H 	0.68430 0.13760 0.61000 0.07800
H 	H 	0.12160 0.44430 0.11470 0.05600
H 	H 	0.26520 0.82690 0.56570 0.06200
H 	H 	0.58510 0.40100 0.68550 0.05000
H 	H 	0.91290 0.12560 0.79560 0.04900
H 	H 	0.08270 0.90390 0.70170 0.05000
H 	H 	0.13100 0.44190 0.94910 0.00800
H 	H 	0.41880 0.77900 0.59340 0.06100
H 	H 	0.37720 0.06070 0.11510 -0.02200
C 	C 	0.77480 0.34390 0.62100 -0.07200
C 	C 	0.35500 0.18800 0.98200 -0.18800
C 	C 	0.17500 0.36590 0.08250 -0.08900
C 	C 	0.28860 0.85930 0.70750 -0.12200
C 	C 	0.33330 0.63980 0.63100 -0.05800
C 	C 	0.18010 0.36320 0.98330 0.05400
C 	C 	0.14850 0.34430 0.29280 -0.11400
C 	C 	0.32910 0.78160 0.61560 -0.07400
C 	C 	0.63550 0.33790 0.63550 -0.06200
C 	C 	0.99890 0.29100 0.69810 0.34300
C 	C 	0.20930 0.49260 0.67820 0.35800
C 	C 	0.15740 0.71300 0.75950 -0.05800
C 	C 	0.24970 0.25150 0.13460 0.04900
C 	C 	0.14810 0.33710 0.39290 0.05400
C 	C 	0.72380 0.14630 0.75260 -0.06200
C 	C 	0.32360 0.14430 0.98400 0.21900
C 	C 	0.15370 0.85470 0.74610 -0.07000
C 	C 	0.64020 0.19820 0.66390 -0.12900
C 	C 	0.25120 0.25030 0.24130 0.04100
C 	C 	0.85570 0.29530 0.70900 -0.11900
C 	C 	0.86240 0.15460 0.73650 -0.07000
C 	C 	0.15800 0.31400 0.98200 0.00300
C 	C 	0.32490 0.14000 0.08280 0.15100
C 	C 	0.34380 0.15620 0.39020 0.06400
C 	C 	0.49770 0.20380 0.67560 0.34700
C 	C 	0.28170 0.00150 0.69870 0.34400
C 	C 	0.35130 0.15650 0.29200 -0.11900
C 	C 	0.19840 0.63640 0.66820 -0.13400
C 	C 	0.35900 0.18400 0.08500 -0.26100
C 	C 	0.14500 0.32000 0.08600 -0.02800
N 	N 	0.25170 0.25360 0.93370 -0.17800
N 	N 	0.24680 0.24560 0.44190 -0.18700
O 	O 	0.05490 0.26930 0.61670 -0.39800
O 	O 	0.26610 0.06430 0.77580 -0.40400
O 	O 	0.28770 0.05070 0.61710 -0.39700
O 	O 	0.23190 0.43840 0.75950 -0.40700
O 	O 	0.43540 0.21540 0.59940 -0.40500
O 	O 	0.44750 0.19820 0.75770 -0.40100
O 	O 	0.05380 0.30280 0.77270 -0.40300
O 	O 	0.20000 0.43840 0.60360 -0.41000
Cu	Cu	0.74873 0.74857 0.21967 0.91000
Cu	Cu	0.75478 0.75619 0.40530 0.91300
H 	H 	0.91730 0.09610 0.29830 0.05000
H 	H 	0.91910 0.63480 0.05170 0.01700
H 	H 	0.64250 0.40760 0.43010 0.04500
H 	H 	0.56100 0.86690 0.88400 0.10500
H 	H 	0.58120 0.22100 0.40660 0.06100
H 	H 	0.08710 0.87440 0.20440 0.04900
H 	H 	0.59710 0.40770 0.32320 0.04900
H 	H 	0.57480 0.90700 0.74050 0.07200
H 	H 	0.93220 0.28550 0.21900 0.04400
H 	H 	0.32250 0.80130 0.19120 0.05900
H 	H 	0.86900 0.55810 0.05090 0.00800
H 	H 	0.26610 0.94750 0.23470 0.04600
H 	H 	0.08800 0.90690 0.31460 0.05300
H 	H 	0.92480 0.60130 0.57240 0.02400
H 	H 	0.87840 0.55570 0.88530 0.05600
H 	H 	0.86980 0.31820 0.38010 0.08000
H 	H 	0.31570 0.86240 0.39000 0.07800
H 	H 	0.41490 0.59900 0.31450 0.05000
H 	H 	0.62430 0.93330 0.04970 -0.04600
H 	H 	0.17820 0.71100 0.43390 0.06300
H 	H 	0.19020 0.64440 0.23740 0.07500
H 	H 	0.92020 0.58730 0.73910 0.07000
H 	H 	0.23370 0.56320 0.39360 0.05700
H 	H 	0.56470 0.86110 0.05270 0.07700
H 	H 	0.77890 0.33320 0.19070 0.06000
H 	H 	0.58850 0.91140 0.57660 0.02100
H 	H 	0.64280 0.18680 0.24460 0.07400
H 	H 	0.73480 0.17310 0.43430 0.06200
H 	H 	0.93700 0.62850 0.88340 0.03400
H 	H 	0.62280 0.93930 0.88490 -0.02200
H 	H 	0.86910 0.10080 0.19170 0.05200
H 	H 	0.41300 0.63420 0.42440 0.04700
C 	C 	0.36450 0.66210 0.36450 -0.06200
C 	C 	0.85150 0.65570 0.70720 -0.11400
C 	C 	0.64500 0.81200 0.01800 -0.18800
C 	C 	0.85190 0.66290 0.60710 0.05400
C 	C 	0.00110 0.70900 0.30190 0.34300
C 	C 	0.64870 0.84350 0.70800 -0.11900
C 	C 	0.75030 0.74850 0.86540 0.04900
C 	C 	0.84260 0.28700 0.24050 -0.05800
C 	C 	0.80160 0.36360 0.33180 -0.13400
C 	C 	0.22520 0.65610 0.37900 -0.07200
C 	C 	0.85500 0.68000 0.91400 -0.02800
C 	C 	0.81990 0.63680 0.01670 0.05400
C 	C 	0.50230 0.79620 0.32440 0.34700
C 	C 	0.71830 0.99850 0.30130 0.34400
C 	C 	0.66670 0.36020 0.36900 -0.05800
C 	C 	0.27620 0.85370 0.24740 -0.06200
C 	C 	0.67640 0.85570 0.01600 0.21900
C 	C 	0.67090 0.21840 0.38440 -0.07400
C 	C 	0.84630 0.14530 0.25390 -0.07000
C 	C 	0.64100 0.81600 0.91500 -0.26100
C 	C 	0.79070 0.50740 0.32180 0.35800
C 	C 	0.14430 0.70470 0.29100 -0.11900
C 	C 	0.71140 0.14070 0.29250 -0.12200
C 	C 	0.84200 0.68600 0.01800 0.00300
C 	C 	0.65620 0.84380 0.60980 0.06400
C 	C 	0.74880 0.74970 0.75870 0.04100
C 	C 	0.35980 0.80180 0.33610 -0.12900
C 	C 	0.67510 0.86000 0.91720 0.15100
C 	C 	0.82500 0.63410 0.91750 -0.08900
C 	C 	0.13760 0.84540 0.26350 -0.07000
N 	N 	0.75320 0.75440 0.55810 -0.18700
N 	N 	0.74830 0.74640 0.06630 -0.17800
O 	O 	0.80000 0.56160 0.39640 -0.41000
O 	O 	0.56460 0.78460 0.40060 -0.40500
O 	O 	0.76810 0.56160 0.24050 -0.40700
O 	O 	0.94510 0.73070 0.38330 -0.39800
O 	O 	0.71230 0.94930 0.38290 -0.39700
O 	O 	0.73390 0.93570 0.22420 -0.40400
O 	O 	0.55250 0.80180 0.24230 -0.40100
O 	O 	0.94620 0.69720 0.22730 -0.40300
