data_crystal

_cell_length_a 14.38160
_cell_length_b 14.38160
_cell_length_c 14.38160
_cell_angle_alpha 60.00000
_cell_angle_beta  60.00000
_cell_angle_gamma 60.00000

_symmetry_space_group_name_	'P 1'
_symmetry_space_group_name_H-M	'P 1'

loop_
_symmetry_equiv_pos_as_xyz
  x,y,z

loop_
_atom_site_label
_atom_site_type_symbol
_atom_site_fract_x
_atom_site_fract_y
_atom_site_fract_z
_atom_site_charge
Cd	Cd	0.06800 0.64400 0.64400 1.21800
Cd	Cd	0.64400 0.64400 0.64400 1.28600
Cd	Cd	0.32663 0.32663 0.02011 1.16900
Cd	Cd	0.32663 0.02011 0.32663 1.16900
Cd	Cd	0.64400 0.64400 0.06800 1.21800
Cd	Cd	0.32663 0.32663 0.32663 1.22400
Cd	Cd	0.02011 0.32663 0.32663 1.16900
Cd	Cd	0.75000 0.75000 0.75000 1.34300
Cd	Cd	0.64400 0.06800 0.64400 1.21800
H 	H 	0.29340 0.48180 0.48180 -0.02600
H 	H 	0.48180 0.74300 0.29340 -0.02600
H 	H 	0.29340 0.74300 0.48180 -0.02600
H 	H 	0.48180 0.48180 0.74300 -0.01900
H 	H 	0.29340 0.48180 0.74300 -0.02600
H 	H 	0.48180 0.48180 0.29340 -0.02600
H 	H 	0.48180 0.29340 0.74300 -0.02600
H 	H 	0.74300 0.29340 0.48180 -0.02600
H 	H 	0.74300 0.48180 0.29340 -0.02700
H 	H 	0.48180 0.29340 0.48180 -0.02700
H 	H 	0.74300 0.48180 0.48180 -0.02000
H 	H 	0.48180 0.74300 0.48180 -0.02000
C 	C 	0.10630 0.42050 0.05270 -0.20400
C 	C 	0.53370 0.90250 0.53370 0.57500
C 	C 	0.08470 0.98110 0.46710 0.15900
C 	C 	0.90250 0.53370 0.03010 -0.06600
C 	C 	0.42050 0.42050 0.10630 -0.23100
C 	C 	0.90250 0.53370 0.53370 0.57500
C 	C 	0.98110 0.46710 0.46710 -0.22500
C 	C 	0.03010 0.90250 0.53370 -0.06600
C 	C 	0.53370 0.03010 0.90250 -0.06600
C 	C 	0.46710 0.08470 0.46710 0.04300
C 	C 	0.46710 0.46710 0.98110 -0.22500
C 	C 	0.48790 0.80090 0.48790 0.04200
C 	C 	0.98110 0.46710 0.08470 0.15900
C 	C 	0.58910 0.91090 0.91090 1.27200
C 	C 	0.91090 0.58910 0.91090 1.27200
C 	C 	0.58910 0.58910 0.91090 1.36100
C 	C 	0.22330 0.48790 0.80090 0.04400
C 	C 	0.53370 0.53370 0.90250 0.57500
C 	C 	0.03010 0.53370 0.53370 -0.17000
C 	C 	0.08470 0.46710 0.98110 0.15900
C 	C 	0.42050 0.05270 0.10630 -0.20400
C 	C 	0.53370 0.53370 0.03010 -0.17000
C 	C 	0.90250 0.03010 0.53370 -0.06600
C 	C 	0.48790 0.22330 0.80090 0.04400
C 	C 	0.80090 0.48790 0.22330 0.04400
C 	C 	0.46710 0.08470 0.98110 0.15900
C 	C 	0.91090 0.91090 0.58910 1.27200
C 	C 	0.58910 0.91090 0.58910 1.36100
C 	C 	0.10630 0.05270 0.42050 -0.20400
C 	C 	0.08470 0.46710 0.46710 0.04300
C 	C 	0.03010 0.53370 0.90250 -0.06600
C 	C 	0.80090 0.22330 0.48790 0.04400
C 	C 	0.42050 0.10630 0.42050 -0.23100
C 	C 	0.05270 0.42050 0.10630 -0.20400
C 	C 	0.48790 0.48790 0.22330 0.02200
C 	C 	0.05270 0.10630 0.42050 -0.20400
C 	C 	0.48790 0.48790 0.80090 0.04200
C 	C 	0.05270 0.42050 0.42050 0.22300
C 	C 	0.22330 0.48790 0.48790 0.02200
C 	C 	0.48790 0.22330 0.48790 0.02200
C 	C 	0.80090 0.48790 0.48790 0.04200
C 	C 	0.48790 0.80090 0.22330 0.04400
C 	C 	0.53370 0.03010 0.53370 -0.17000
C 	C 	0.46710 0.46710 0.08470 0.04300
C 	C 	0.42050 0.05270 0.42050 0.22300
C 	C 	0.46710 0.98110 0.46710 -0.22500
C 	C 	0.98110 0.08470 0.46710 0.15900
C 	C 	0.22330 0.80090 0.48790 0.04400
C 	C 	0.10630 0.42050 0.42050 -0.23100
C 	C 	0.46710 0.98110 0.08470 0.15900
C 	C 	0.53370 0.90250 0.03010 -0.06600
C 	C 	0.42050 0.42050 0.05270 0.22300
C 	C 	0.42050 0.10630 0.05270 -0.20400
C 	C 	0.91090 0.58910 0.58910 1.36100
N 	N 	0.19710 0.43710 0.92870 -0.36500
N 	N 	0.54430 0.79390 0.11750 -0.18000
N 	N 	0.54430 0.79390 0.54430 -0.17500
N 	N 	0.54430 0.11750 0.79390 -0.18000
N 	N 	0.54430 0.54430 0.79390 -0.17500
N 	N 	0.43710 0.92870 0.19710 -0.36500
N 	N 	0.43710 0.43710 0.19710 -0.36900
N 	N 	0.79390 0.11750 0.54430 -0.18000
N 	N 	0.43710 0.43710 0.92870 -0.29600
N 	N 	0.11750 0.79390 0.54430 -0.18000
N 	N 	0.92870 0.19710 0.43710 -0.36500
N 	N 	0.79390 0.54430 0.54430 -0.17500
N 	N 	0.19710 0.43710 0.43710 -0.36900
N 	N 	0.54430 0.54430 0.11750 -0.16500
N 	N 	0.79390 0.54430 0.11750 -0.18000
N 	N 	0.43710 0.19710 0.92870 -0.36500
N 	N 	0.19710 0.92870 0.43710 -0.36500
N 	N 	0.43710 0.19710 0.43710 -0.36900
N 	N 	0.92870 0.43710 0.43710 -0.29600
N 	N 	0.11750 0.54430 0.79390 -0.18000
N 	N 	0.54430 0.11750 0.54430 -0.16500
N 	N 	0.43710 0.92870 0.43710 -0.29600
N 	N 	0.92870 0.43710 0.19710 -0.36500
N 	N 	0.11750 0.54430 0.54430 -0.16500
O 	O 	0.89510 0.64530 0.81430 -0.34200
O 	O 	0.58180 0.84720 0.98920 -0.56700
O 	O 	0.36090 0.13910 0.36090 -0.49000
O 	O 	0.98920 0.58180 0.58180 -0.57500
O 	O 	0.58180 0.58180 0.98920 -0.57500
O 	O 	0.81430 0.89510 0.64530 -0.34200
O 	O 	0.84720 0.58180 0.58180 -1.05800
O 	O 	0.96260 0.43700 0.43700 0.15800
O 	O 	0.64530 0.64530 0.81430 -0.27500
O 	O 	0.96260 0.43700 0.16340 0.20700
O 	O 	0.64530 0.64530 0.89510 -0.39300
O 	O 	0.36090 0.36090 0.13910 -0.49000
O 	O 	0.16340 0.43700 0.96260 0.20700
O 	O 	0.81430 0.64530 0.64530 -0.27500
O 	O 	0.58180 0.98920 0.58180 -0.57500
O 	O 	0.43700 0.16340 0.43700 0.18900
O 	O 	0.84720 0.98920 0.58180 -0.56700
O 	O 	0.43700 0.16340 0.96260 0.20700
O 	O 	0.13910 0.36090 0.13910 -0.40800
O 	O 	0.89510 0.81430 0.64530 -0.34200
O 	O 	0.96260 0.16340 0.43700 0.20700
O 	O 	0.98920 0.58180 0.84720 -0.56700
O 	O 	0.98920 0.84720 0.58180 -0.56700
O 	O 	0.64530 0.81430 0.89510 -0.34200
O 	O 	0.64530 0.89510 0.81430 -0.34200
O 	O 	0.84720 0.58180 0.98920 -0.56700
O 	O 	0.13910 0.36090 0.36090 -0.49000
O 	O 	0.16340 0.43700 0.43700 0.18900
O 	O 	0.43700 0.96260 0.43700 0.15800
O 	O 	0.43700 0.96260 0.16340 0.20700
O 	O 	0.81430 0.64530 0.89510 -0.34200
O 	O 	0.43700 0.43700 0.96260 0.15800
O 	O 	0.58180 0.84720 0.58180 -1.05800
O 	O 	0.13910 0.13910 0.36090 -0.40800
O 	O 	0.89510 0.64530 0.64530 -0.39300
O 	O 	0.58180 0.58180 0.84720 -1.05800
O 	O 	0.36090 0.13910 0.13910 -0.40800
O 	O 	0.64530 0.81430 0.64530 -0.27500
O 	O 	0.64530 0.89510 0.64530 -0.39300
O 	O 	0.16340 0.96260 0.43700 0.20700
O 	O 	0.58180 0.98920 0.84720 -0.56700
O 	O 	0.43700 0.43700 0.16340 0.18900
