data_crystal

_cell_length_a 17.64390
_cell_length_b 17.64370
_cell_length_c 17.64370
_cell_angle_alpha 109.47100
_cell_angle_beta  109.47100
_cell_angle_gamma 109.47100

_symmetry_space_group_name_	'P 1'
_symmetry_space_group_name_H-M	'P 1'

loop_
_symmetry_equiv_pos_as_xyz
  x,y,z

loop_
_atom_site_label
_atom_site_type_symbol
_atom_site_fract_x
_atom_site_fract_y
_atom_site_fract_z
_atom_site_charge
In	In	0.37500 0.75000 0.12500 2.00100
In	In	0.12500 0.25000 0.37500 2.00100
In	In	0.62500 0.37500 0.25000 2.00300
In	In	0.75000 0.62500 0.87500 2.00200
In	In	0.25000 0.87500 0.62500 2.00200
In	In	0.87500 0.12500 0.75000 2.00200
H 	H 	0.95640 0.61260 0.43660 0.07200
H 	H 	0.93660 0.95640 0.11260 0.07100
H 	H 	0.45640 0.43660 0.61260 0.07300
H 	H 	0.65620 0.48020 0.54360 0.07300
H 	H 	0.11260 0.45640 0.93660 0.07200
H 	H 	0.15620 0.54360 0.48020 0.07200
H 	H 	0.38740 0.32400 0.34380 0.07200
H 	H 	0.34380 0.82400 0.38740 0.07200
H 	H 	0.67600 0.51980 0.06340 0.07300
H 	H 	0.06340 0.01980 0.67600 0.07400
H 	H 	0.61260 0.93660 0.45640 0.07300
H 	H 	0.17600 0.06340 0.51980 0.07300
H 	H 	0.43660 0.11260 0.95640 0.07200
H 	H 	0.54360 0.98020 0.65620 0.07300
H 	H 	0.98020 0.15620 0.04360 0.07100
H 	H 	0.01980 0.17600 0.56340 0.07300
H 	H 	0.88740 0.34380 0.32400 0.07200
H 	H 	0.04360 0.65620 0.98020 0.07200
H 	H 	0.82400 0.88740 0.84380 0.07100
H 	H 	0.51980 0.56340 0.17600 0.07300
H 	H 	0.32400 0.84380 0.88740 0.07200
H 	H 	0.48020 0.04360 0.15620 0.07200
H 	H 	0.56340 0.67600 0.01980 0.07300
H 	H 	0.84380 0.38740 0.82400 0.07200
C 	C 	0.54600 0.57210 0.13970 0.02200
C 	C 	0.80610 0.44570 0.33080 0.33000
C 	C 	0.12520 0.03230 0.59910 -0.06300
C 	C 	0.33080 0.94570 0.80610 0.32900
C 	C 	0.38510 0.86040 0.05430 0.32800
C 	C 	0.53230 0.62520 0.09910 -0.06600
C 	C 	0.57210 0.63970 0.04600 0.02200
C 	C 	0.56760 0.92790 0.47390 0.02200
C 	C 	0.52610 0.95400 0.59370 0.02200
C 	C 	0.93320 0.52610 0.90090 -0.06900
C 	C 	0.36040 0.88510 0.55430 0.32900
C 	C 	0.36030 0.90630 0.93240 0.02500
C 	C 	0.62520 0.59910 0.03230 -0.06600
C 	C 	0.59370 0.45400 0.52610 0.02200
C 	C 	0.43240 0.36030 0.40630 0.02200
C 	C 	0.09370 0.52610 0.45400 0.02400
C 	C 	0.97390 0.56760 0.42790 0.02500
C 	C 	0.86040 0.55430 0.88510 0.33000
C 	C 	0.13970 0.07210 0.54600 0.02000
C 	C 	0.90710 0.47390 0.37480 -0.06800
C 	C 	0.09290 0.56680 0.96770 -0.06600
C 	C 	0.47390 0.87480 0.40710 -0.06600
C 	C 	0.52470 0.19390 0.13960 0.33000
C 	C 	0.43320 0.90090 0.52610 -0.06600
C 	C 	0.56680 0.46770 0.59290 -0.06600
C 	C 	0.02610 0.43320 0.40090 -0.06900
C 	C 	0.97530 0.11490 0.66920 0.32700
C 	C 	0.42790 0.06760 0.97390 0.02500
C 	C 	0.94570 0.30610 0.83080 0.32700
C 	C 	0.61490 0.47530 0.16920 0.32900
C 	C 	0.04600 0.13970 0.57210 0.02000
C 	C 	0.93240 0.40630 0.36030 0.02500
C 	C 	0.06760 0.47390 0.92790 0.02400
C 	C 	0.97390 0.40710 0.87480 -0.06900
C 	C 	0.59910 0.53230 0.12520 -0.06600
C 	C 	0.69390 0.02470 0.63960 0.32900
C 	C 	0.59290 0.96770 0.56680 -0.06600
C 	C 	0.88510 0.05430 0.86040 0.33000
C 	C 	0.11490 0.16920 0.47530 0.32900
C 	C 	0.30610 0.33080 0.44570 0.32900
C 	C 	0.90090 0.02610 0.93320 -0.07300
C 	C 	0.45400 0.02610 0.09370 0.02500
C 	C 	0.02470 0.13960 0.19390 0.32900
C 	C 	0.52610 0.40090 0.43320 -0.06600
C 	C 	0.02610 0.59370 0.95400 0.02400
C 	C 	0.90630 0.43240 0.86030 0.02400
C 	C 	0.87480 0.90710 0.97390 -0.07100
C 	C 	0.16920 0.97530 0.61490 0.32700
C 	C 	0.63970 0.54600 0.07210 0.02200
C 	C 	0.47390 0.42790 0.56760 0.02200
C 	C 	0.55430 0.38510 0.36040 0.32900
C 	C 	0.83080 0.80610 0.94570 0.32900
C 	C 	0.96770 0.06680 0.09290 -0.07000
C 	C 	0.37480 0.97390 0.90710 -0.06800
C 	C 	0.44570 0.83080 0.30610 0.32900
C 	C 	0.92790 0.97390 0.06760 0.02900
C 	C 	0.19390 0.63960 0.02470 0.32700
C 	C 	0.06680 0.59290 0.46770 -0.06900
C 	C 	0.05430 0.36040 0.38510 0.32900
C 	C 	0.40090 0.93320 0.02610 -0.07000
C 	C 	0.86030 0.93240 0.90630 0.02800
C 	C 	0.47530 0.66920 0.11490 0.32900
C 	C 	0.46770 0.09290 0.06680 -0.06900
C 	C 	0.07210 0.04600 0.63970 0.02000
C 	C 	0.13960 0.69390 0.52470 0.33000
C 	C 	0.03230 0.09910 0.62520 -0.06300
C 	C 	0.09910 0.12520 0.53230 -0.06500
C 	C 	0.63960 0.52470 0.69390 0.32900
C 	C 	0.95400 0.09370 0.02610 0.02900
C 	C 	0.40630 0.86030 0.43240 0.02200
C 	C 	0.40710 0.37480 0.47390 -0.06600
C 	C 	0.66920 0.61490 0.97530 0.32900
O 	O 	0.36120 0.77800 0.24680 -0.47100
O 	O 	0.56780 0.21870 0.22330 -0.38800
O 	O 	0.13880 0.38560 0.41680 -0.47000
O 	O 	0.65090 0.65550 0.93220 -0.38800
O 	O 	0.93220 0.15550 0.65090 -0.38800
O 	O 	0.03120 0.11440 0.25320 -0.47100
O 	O 	0.27670 0.84450 0.49540 -0.38800
O 	O 	0.91680 0.13880 0.88560 -0.47100
O 	O 	0.86120 0.24680 0.77800 -0.47000
O 	O 	0.65550 0.43220 0.15090 -0.38700
O 	O 	0.46880 0.72200 0.08320 -0.47000
O 	O 	0.96880 0.08320 0.72200 -0.47100
O 	O 	0.06780 0.22330 0.21870 -0.38800
O 	O 	0.72330 0.56780 0.71870 -0.38800
O 	O 	0.72200 0.58320 0.96880 -0.47000
O 	O 	0.15550 0.15090 0.43220 -0.38700
O 	O 	0.00460 0.28130 0.84910 -0.38500
O 	O 	0.34910 0.00460 0.78130 -0.38700
O 	O 	0.77670 0.49540 0.84450 -0.38800
O 	O 	0.88560 0.63880 0.91680 -0.47100
O 	O 	0.78130 0.50460 0.34910 -0.38800
O 	O 	0.22330 0.71870 0.56780 -0.38800
O 	O 	0.74680 0.36120 0.27800 -0.47000
O 	O 	0.49540 0.34450 0.27670 -0.38800
O 	O 	0.28130 0.34910 0.50460 -0.38800
O 	O 	0.84910 0.78130 0.00460 -0.38600
O 	O 	0.34450 0.77670 0.99540 -0.38600
O 	O 	0.43220 0.65090 0.15550 -0.38800
O 	O 	0.08320 0.22200 0.46880 -0.47000
O 	O 	0.61440 0.53120 0.75320 -0.47000
O 	O 	0.77800 0.74680 0.86120 -0.47000
O 	O 	0.11440 0.75320 0.53120 -0.47100
O 	O 	0.38560 0.91680 0.63880 -0.47000
O 	O 	0.71870 0.06780 0.72330 -0.38800
O 	O 	0.15090 0.93220 0.65550 -0.38800
O 	O 	0.84450 0.99540 0.77670 -0.38700
O 	O 	0.99540 0.27670 0.34450 -0.38700
O 	O 	0.22200 0.96880 0.58320 -0.47000
O 	O 	0.24680 0.27800 0.36120 -0.47000
O 	O 	0.58320 0.46880 0.22200 -0.47000
O 	O 	0.21870 0.72330 0.06780 -0.38800
O 	O 	0.53120 0.25320 0.11440 -0.47100
O 	O 	0.25320 0.61440 0.03120 -0.47100
O 	O 	0.75320 0.03120 0.61440 -0.47000
O 	O 	0.41680 0.88560 0.13880 -0.47000
O 	O 	0.63880 0.41680 0.38560 -0.47000
O 	O 	0.27800 0.86120 0.74680 -0.47000
O 	O 	0.50460 0.84910 0.28130 -0.38800
