data_crystal

_cell_length_a 9.19070
_cell_length_b 9.19070
_cell_length_c 12.75900
_cell_angle_alpha 90.00000
_cell_angle_beta  90.00000
_cell_angle_gamma 120.00000

_symmetry_space_group_name_	'P 1'
_symmetry_space_group_name_H-M	'P 1'

loop_
_symmetry_equiv_pos_as_xyz
  x,y,z

loop_
_atom_site_label
_atom_site_type_symbol
_atom_site_fract_x
_atom_site_fract_y
_atom_site_fract_z
_atom_site_charge
Cd	Cd	0.63735 0.00000 -0.00000 1.20700
Cd	Cd	0.00000 0.63735 0.33333 1.23200
Cd	Cd	0.36265 0.36265 0.66667 1.25000
H 	H 	0.96380 0.79430 0.54947 0.11800
H 	H 	0.83050 0.03620 0.21613 0.00300
H 	H 	0.79430 0.96380 0.78387 0.12200
H 	H 	0.16950 0.20570 0.45053 0.02700
H 	H 	0.03620 0.83050 0.11720 -0.00800
H 	H 	0.20570 0.16950 0.88280 0.00200
C 	C 	0.07120 0.07120 0.66667 0.16100
C 	C 	0.88000 0.77970 0.59632 -0.07600
C 	C 	0.68030 0.48350 0.52295 0.34800
C 	C 	0.48350 0.68030 0.81039 0.34500
C 	C 	0.63100 0.72590 0.73581 0.02000
C 	C 	0.09490 0.36900 0.40247 -0.06500
C 	C 	0.90580 0.90580 0.66667 0.13600
C 	C 	0.12000 0.89970 0.07035 0.12200
C 	C 	0.22030 0.10030 0.92965 0.15100
C 	C 	0.51650 0.19680 0.85628 0.36300
C 	C 	0.72590 0.63100 0.59753 0.01400
C 	C 	0.00000 0.92880 0.33333 0.27900
C 	C 	0.92880 0.00000 -0.00000 0.19400
C 	C 	0.77970 0.88000 0.73702 -0.07500
C 	C 	0.80320 0.31970 0.18961 0.36400
C 	C 	0.89970 0.12000 0.26298 0.09900
C 	C 	0.90510 0.27410 0.26419 -0.02200
C 	C 	0.27410 0.90510 0.06914 -0.04500
C 	C 	0.36900 0.09490 0.93086 -0.01300
C 	C 	-0.00000 0.09420 0.33333 -0.16800
C 	C 	0.09420 0.00000 -0.00000 -0.25900
C 	C 	0.10030 0.22030 0.40368 0.04200
C 	C 	0.19680 0.51650 0.47705 0.36500
C 	C 	0.31970 0.80320 0.14372 0.36500
N 	N 	0.60760 0.60760 0.66667 -0.18300
N 	N 	0.00000 0.39240 0.33333 -0.19800
N 	N 	0.39240 0.00000 -0.00000 -0.24500
O 	O 	0.35610 0.53990 0.79814 -0.33500
O 	O 	0.64390 0.18380 0.86853 -0.32300
O 	O 	0.92439 0.11859 0.95657 -0.22500
O 	O 	0.88141 0.80580 0.28990 -0.27000
O 	O 	0.53990 0.35610 0.53520 -0.34700
O 	O 	0.19420 0.07561 0.62324 -0.33200
O 	O 	0.49920 0.78560 0.87572 -0.31500
O 	O 	0.07561 0.19420 0.71010 -0.33000
O 	O 	0.28640 0.50080 0.54238 -0.37200
O 	O 	0.78560 0.49920 0.45762 -0.34600
O 	O 	0.11859 0.92439 0.37676 -0.32700
O 	O 	0.80580 0.88141 0.04343 -0.27100
O 	O 	0.50080 0.28640 0.79095 -0.36400
O 	O 	0.81620 0.46010 0.20186 -0.33700
O 	O 	0.18380 0.64390 0.46480 -0.35400
O 	O 	0.21440 0.71360 0.20905 -0.38400
O 	O 	0.71360 0.21440 0.12428 -0.39800
O 	O 	0.46010 0.81620 0.13147 -0.34200
