data_crystal

_cell_length_a 9.18840
_cell_length_b 9.18840
_cell_length_c 12.74300
_cell_angle_alpha 90.00000
_cell_angle_beta  90.00000
_cell_angle_gamma 120.00000

_symmetry_space_group_name_	'P 1'
_symmetry_space_group_name_H-M	'P 1'

loop_
_symmetry_equiv_pos_as_xyz
  x,y,z

loop_
_atom_site_label
_atom_site_type_symbol
_atom_site_fract_x
_atom_site_fract_y
_atom_site_fract_z
_atom_site_charge
Cd	Cd	0.00000 0.63754 0.66667 1.23100
Cd	Cd	0.36246 0.36246 0.33333 1.25100
Cd	Cd	0.63754 0.00000 -0.00000 1.21400
H 	H 	0.82950 0.03600 0.78387 0.02500
H 	H 	0.17050 0.20650 0.54947 0.03500
H 	H 	0.20650 0.17050 0.11720 0.01900
H 	H 	0.03600 0.82950 0.88280 -0.01200
H 	H 	0.96400 0.79350 0.45053 0.11300
H 	H 	0.79350 0.96400 0.21613 0.10500
C 	C 	0.22090 0.10090 0.07049 0.05400
C 	C 	0.80300 0.31950 0.81047 0.35400
C 	C 	0.19700 0.51650 0.52287 0.36100
C 	C 	0.36930 0.09510 0.06927 -0.08000
C 	C 	0.90530 0.90530 0.33333 0.11400
C 	C 	0.00000 0.09470 0.66667 -0.13700
C 	C 	0.88000 0.77910 0.40382 -0.07000
C 	C 	0.68050 0.48350 0.47713 0.34600
C 	C 	0.51650 0.19700 0.14380 0.36200
C 	C 	0.48350 0.68050 0.18953 0.34700
C 	C 	0.07120 0.07120 0.33333 0.17100
C 	C 	0.31950 0.80300 0.85620 0.35900
C 	C 	0.63070 0.72580 0.26406 0.00000
C 	C 	0.09470 0.00000 -0.00000 -0.22300
C 	C 	0.12000 0.89910 0.92951 0.16200
C 	C 	0.09510 0.36930 0.59740 -0.05600
C 	C 	0.89910 0.12000 0.73716 0.09200
C 	C 	0.00000 0.92880 0.66667 0.24400
C 	C 	0.77910 0.88000 0.26284 -0.06900
C 	C 	0.90490 0.27420 0.73594 0.00600
C 	C 	0.92880 0.00000 -0.00000 0.21300
C 	C 	0.10090 0.22090 0.59618 0.02900
C 	C 	0.72580 0.63070 0.40260 0.00800
C 	C 	0.27420 0.90490 0.93073 0.01400
N 	N 	0.60740 0.60740 0.33333 -0.18100
N 	N 	0.39260 0.00000 -0.00000 -0.23000
N 	N 	-0.00000 0.39260 0.66667 -0.20500
O 	O 	0.50090 0.28680 0.20923 -0.37600
O 	O 	0.80560 0.88103 0.95646 -0.19800
O 	O 	0.35560 0.53940 0.20183 -0.35800
O 	O 	0.53940 0.35560 0.46483 -0.34300
O 	O 	0.19440 0.07543 0.37687 -0.33100
O 	O 	0.78590 0.49910 0.54256 -0.34300
O 	O 	0.18380 0.64440 0.53517 -0.35500
O 	O 	0.71320 0.21410 0.87590 -0.33400
O 	O 	0.28680 0.50090 0.45744 -0.37200
O 	O 	0.11897 0.92457 0.62313 -0.32300
O 	O 	0.88103 0.80560 0.71021 -0.25300
O 	O 	0.21410 0.71320 0.79077 -0.37200
O 	O 	0.46060 0.81620 0.86850 -0.30700
O 	O 	0.81620 0.46060 0.79817 -0.30600
O 	O 	0.92457 0.11897 0.04354 -0.32400
O 	O 	0.07543 0.19440 0.28979 -0.33700
O 	O 	0.49910 0.78590 0.12410 -0.37300
O 	O 	0.64440 0.18380 0.13150 -0.36100
