data_crystal

_cell_length_a 10.74480
_cell_length_b 19.20090
_cell_length_c 30.69140
_cell_angle_alpha 87.19260
_cell_angle_beta  79.91860
_cell_angle_gamma 73.75150

_symmetry_space_group_name_	'P 1'
_symmetry_space_group_name_H-M	'P 1'

loop_
_symmetry_equiv_pos_as_xyz
  x,y,z

loop_
_atom_site_label
_atom_site_type_symbol
_atom_site_fract_x
_atom_site_fract_y
_atom_site_fract_z
_atom_site_charge
Zn	Zn	0.51165 0.42417 0.48733 1.21400
Zn	Zn	0.07685 0.92417 0.98733 1.21400
Zn	Zn	0.48835 0.57583 0.51267 1.21400
Zn	Zn	0.43582 0.57583 0.98733 1.21400
Zn	Zn	0.56418 0.42417 0.01267 1.21400
Zn	Zn	0.92315 0.07583 0.01267 1.21400
Zn	Zn	0.50102 0.07583 0.48733 1.21500
Zn	Zn	0.49898 0.92417 0.51267 1.21500
H 	H 	0.04300 0.56700 0.03340 0.04300
H 	H 	0.59500 0.05560 0.09260 0.05800
H 	H 	0.75300 0.83000 0.39580 0.04000
H 	H 	0.52290 0.17280 0.54700 -0.06000
H 	H 	0.67040 0.17880 0.44280 -0.02200
H 	H 	0.33160 0.32220 0.51420 0.00000
H 	H 	0.81240 0.44440 0.09260 0.05800
H 	H 	0.27580 0.71480 0.33060 0.04200
H 	H 	0.07560 0.59240 0.71760 0.04300
H 	H 	0.25970 0.96640 0.85120 0.05100
H 	H 	0.19570 0.82720 0.04700 -0.05900
H 	H 	0.85080 0.82060 0.83220 0.05200
H 	H 	0.65550 0.27180 0.51640 0.00400
H 	H 	0.42270 0.46640 0.35120 0.05500
H 	H 	0.35120 0.67000 0.39580 0.04000
H 	H 	0.91990 0.20140 0.95820 0.06000
H 	H 	0.29870 0.71340 0.53500 0.07900
H 	H 	0.53290 0.26820 0.03680 -0.06400
H 	H 	0.57270 0.69960 0.45360 0.10300
H 	H 	0.67190 0.77180 0.48360 0.00400
H 	H 	0.11000 0.43300 0.53340 0.05100
H 	H 	0.18760 0.55560 0.90740 0.05800
H 	H 	0.60020 0.69360 0.74000 0.02300
H 	H 	0.34510 0.84680 0.99220 0.03800
H 	H 	0.34220 0.73780 0.65780 0.04600
H 	H 	0.46710 0.73180 0.96320 -0.06400
H 	H 	0.32960 0.82120 0.55720 -0.02200
H 	H 	0.65080 0.17880 0.05720 -0.02500
H 	H 	0.93030 0.23180 0.03680 -0.06400
H 	H 	0.66280 0.16220 0.05840 0.05600
H 	H 	0.84410 0.19780 0.07560 0.02400
H 	H 	0.35300 0.28200 0.28780 0.05800
H 	H 	0.67500 0.16220 0.44160 0.05700
H 	H 	0.57270 0.27180 0.98360 0.00200
H 	H 	0.30810 0.84680 0.50780 0.04000
H 	H 	0.34920 0.82120 0.94280 -0.02500
H 	H 	0.39830 0.05280 0.93740 0.04800
H 	H 	0.84620 0.32220 0.98580 0.00200
H 	H 	0.77410 0.19960 0.95360 0.10200
H 	H 	0.95700 0.43300 0.96660 0.04300
H 	H 	0.98870 0.86320 0.88560 0.05600
H 	H 	0.78240 0.86360 0.92520 0.05100
H 	H 	0.66800 0.17780 0.98580 0.00300
H 	H 	0.66840 0.67780 0.48580 0.00000
H 	H 	0.08300 0.17000 0.89580 0.03900
H 	H 	0.89360 0.78520 0.33060 0.04200
H 	H 	0.62570 0.63680 0.88560 0.05600
H 	H 	0.26630 0.85780 0.79220 0.04500
H 	H 	0.16800 0.40760 0.21760 0.04500
H 	H 	0.74270 0.32720 0.95300 -0.05900
H 	H 	0.14920 0.17940 0.16780 0.05200
H 	H 	0.44150 0.64220 0.79220 0.04600
H 	H 	0.24700 0.17000 0.60420 0.04000
H 	H 	0.99640 0.32060 0.33220 0.05500
H 	H 	0.94250 0.86280 0.27500 0.05300
H 	H 	0.52630 0.19960 0.54640 0.10200
H 	H 	0.46840 0.70180 0.58060 0.01400
H 	H 	0.79200 0.32120 0.05720 -0.02500
H 	H 	0.77230 0.30040 0.95360 0.10300
H 	H 	0.37810 0.70140 0.04180 0.06100
H 	H 	0.17880 0.21480 0.83060 0.04200
H 	H 	0.37870 0.20140 0.54180 0.06200
H 	H 	0.61320 0.67880 0.55720 -0.02200
H 	H 	0.38910 0.53360 0.85120 0.05200
H 	H 	0.22590 0.80040 0.04640 0.10200
H 	H 	0.69890 0.26820 0.46320 -0.06100
H 	H 	0.22770 0.69960 0.04640 0.10300
H 	H 	0.38680 0.32120 0.44280 -0.02200
H 	H 	0.64700 0.71800 0.71220 0.05800
H 	H 	0.58030 0.30220 0.07560 0.02500
H 	H 	0.76220 0.23780 0.15780 0.04000
H 	H 	0.89000 0.56700 0.46660 0.05100
H 	H 	0.39980 0.30640 0.26000 0.02300
H 	H 	0.70680 0.90760 0.71760 0.05200
H 	H 	0.42050 0.70140 0.45820 0.06200
H 	H 	0.62190 0.29860 0.95820 0.06100
H 	H 	0.64810 0.86320 0.61440 0.06300
H 	H 	0.20760 0.36360 0.07480 0.05100
H 	H 	0.16270 0.65320 0.99220 0.03800
H 	H 	0.98420 0.04400 0.16320 0.05000
H 	H 	0.64880 0.33000 0.60420 0.04000
H 	H 	0.41630 0.64220 0.70780 0.04400
H 	H 	0.20800 0.67880 0.94280 -0.02500
H 	H 	0.25730 0.67280 0.04700 -0.05900
H 	H 	0.47370 0.80040 0.45360 0.10200
H 	H 	0.65490 0.15320 0.00780 0.03800
H 	H 	0.58370 0.35780 0.29220 0.04400
H 	H 	0.17140 0.17940 0.33220 0.04500
H 	H 	0.61660 0.66220 0.55840 0.05700
H 	H 	0.10640 0.21480 0.66940 0.04200
H 	H 	0.88560 0.90760 0.78240 0.04400
H 	H 	0.20620 0.69360 0.76000 0.02900
H 	H 	0.33370 0.21340 0.46500 0.07900
H 	H 	0.82120 0.78520 0.16940 0.04200
H 	H 	0.94370 0.22820 0.98360 0.00400
H 	H 	0.32810 0.22820 0.51640 0.00400
H 	H 	0.42730 0.72820 0.01640 0.00200
H 	H 	0.83730 0.34680 0.00780 0.03800
H 	H 	0.83200 0.59240 0.78240 0.04500
H 	H 	0.56990 0.67280 0.45300 -0.06000
H 	H 	0.48790 0.71340 0.96500 0.08100
H 	H 	0.74920 0.20180 0.08060 0.01000
H 	H 	0.08010 0.79860 0.04180 0.06000
H 	H 	0.60170 0.94720 0.06260 0.04800
H 	H 	0.84020 0.19360 0.26000 0.02900
H 	H 	0.58000 0.26220 0.15780 0.03900
H 	H 	0.41970 0.69780 0.92440 0.02500
H 	H 	0.52120 0.33000 0.89580 0.03900
H 	H 	0.47880 0.67000 0.10420 0.03900
H 	H 	0.79240 0.63640 0.92520 0.05100
H 	H 	0.83570 0.55280 0.06260 0.04800
H 	H 	0.72610 0.03360 0.35120 0.05500
H 	H 	0.35190 0.13680 0.38560 0.06300
H 	H 	0.37430 0.36320 0.11440 0.05600
H 	H 	0.55850 0.35780 0.20780 0.04600
H 	H 	0.64740 0.54400 0.83680 0.04900
H 	H 	0.32980 0.70180 0.91940 0.01000
H 	H 	0.05630 0.77180 0.01640 0.00400
H 	H 	0.37590 0.85780 0.70780 0.06000
H 	H 	0.57950 0.29860 0.54180 0.06200
H 	H 	0.25080 0.79820 0.91940 0.01000
H 	H 	0.57730 0.53360 0.64880 0.05500
H 	H 	0.04710 0.78660 0.96500 0.08200
H 	H 	0.07120 0.63640 0.57480 0.04800
H 	H 	0.57640 0.06700 0.96660 0.04300
H 	H 	0.52820 0.95600 0.66320 0.04400
H 	H 	0.61090 0.46640 0.14880 0.05200
H 	H 	0.57720 0.78200 0.78780 0.04900
H 	H 	0.53160 0.29820 0.41940 0.01400
H 	H 	0.45100 0.79820 0.58060 0.01400
H 	H 	0.14080 0.78200 0.71220 0.04400
H 	H 	0.86500 0.28200 0.21220 0.04300
H 	H 	0.18300 0.32060 0.16780 0.05200
H 	H 	0.30530 0.13720 0.77500 0.05200
H 	H 	0.80430 0.17280 0.95300 -0.05900
H 	H 	0.33720 0.83780 0.94160 0.05600
H 	H 	0.69190 0.15320 0.49220 0.04000
H 	H 	0.30860 0.54400 0.66320 0.05000
H 	H 	0.22120 0.66220 0.94160 0.05600
H 	H 	0.14340 0.93300 0.46660 0.05100
H 	H 	0.42000 0.73780 0.84220 0.03900
H 	H 	0.00360 0.67940 0.66780 0.05500
H 	H 	0.61750 0.30220 0.42440 0.02300
H 	H 	0.85660 0.06700 0.53340 0.05100
H 	H 	0.15380 0.67780 0.01420 0.00200
H 	H 	0.42280 0.21800 0.21220 0.04900
H 	H 	0.72420 0.28520 0.66940 0.04200
H 	H 	0.71750 0.36280 0.72500 0.05200
H 	H 	0.38340 0.33780 0.44160 0.05700
H 	H 	0.65780 0.26220 0.34220 0.04600
H 	H 	0.43010 0.32720 0.54700 -0.06000
H 	H 	0.29320 0.09240 0.28240 0.05200
H 	H 	0.92440 0.40760 0.28240 0.04300
H 	H 	0.15980 0.80640 0.74000 0.02900
H 	H 	0.30110 0.73180 0.53680 -0.06100
H 	H 	0.23780 0.76220 0.84220 0.04000
H 	H 	0.85400 0.86360 0.57480 0.04800
H 	H 	0.54900 0.20180 0.41940 0.01400
H 	H 	0.40500 0.94440 0.90740 0.05800
H 	H 	0.74030 0.03360 0.14880 0.05100
H 	H 	0.28250 0.63720 0.27500 0.05200
H 	H 	0.05750 0.13720 0.72500 0.05300
H 	H 	0.70130 0.28660 0.46500 0.07900
H 	H 	0.01130 0.13680 0.11440 0.05600
H 	H 	0.81700 0.67940 0.83220 0.05200
H 	H 	0.33790 0.23180 0.46320 -0.06100
H 	H 	0.11440 0.09240 0.21760 0.04400
H 	H 	0.33200 0.82220 0.01420 0.00300
H 	H 	0.54190 0.80220 0.57560 0.02300
H 	H 	0.77880 0.33780 0.05840 0.05600
H 	H 	0.85920 0.21800 0.28780 0.04400
H 	H 	0.67020 0.29820 0.08060 0.01000
H 	H 	0.53380 0.80640 0.76000 0.01600
H 	H 	0.68410 0.65320 0.50780 0.03900
H 	H 	0.91700 0.83000 0.10420 0.03900
H 	H 	0.47180 0.04400 0.33680 0.04400
H 	H 	0.62410 0.14220 0.29220 0.06000
H 	H 	0.42730 0.30040 0.54640 0.10300
H 	H 	0.45810 0.19780 0.42440 0.02300
H 	H 	0.06970 0.76820 0.96320 -0.06400
H 	H 	0.14600 0.13640 0.42520 0.04800
H 	H 	0.69140 0.45600 0.33680 0.05000
H 	H 	0.35260 0.45600 0.16320 0.04900
H 	H 	0.01580 0.95600 0.83680 0.05000
H 	H 	0.66210 0.76820 0.53680 -0.06100
H 	H 	0.66630 0.78660 0.53500 0.07900
H 	H 	0.16430 0.44720 0.93740 0.04800
H 	H 	0.50940 0.71480 0.16940 0.04200
H 	H 	0.42360 0.93300 0.03340 0.04300
H 	H 	0.15590 0.80220 0.92440 0.02400
H 	H 	0.95290 0.21340 0.03500 0.08200
H 	H 	0.31590 0.34680 0.49220 0.03900
H 	H 	0.47710 0.82720 0.45300 -0.06000
H 	H 	0.79380 0.30640 0.24000 0.02900
H 	H 	0.21760 0.13640 0.07480 0.05100
H 	H 	0.38250 0.69780 0.57560 0.02300
H 	H 	0.13500 0.71800 0.78780 0.04300
H 	H 	0.41970 0.36280 0.77500 0.05200
H 	H 	0.34580 0.82220 0.48580 -0.00000
H 	H 	0.27390 0.96640 0.64880 0.05500
H 	H 	0.65420 0.17780 0.51420 -0.00000
H 	H 	0.46620 0.19360 0.24000 0.01600
H 	H 	0.62130 0.79860 0.45820 0.06200
H 	H 	0.73370 0.14220 0.20780 0.04500
H 	H 	0.32500 0.83780 0.55840 0.05700
H 	H 	0.82860 0.82060 0.66780 0.04500
H 	H 	0.69470 0.86280 0.22500 0.05200
H 	H 	0.76250 0.36320 0.38560 0.05600
H 	H 	0.92880 0.36360 0.42520 0.04800
H 	H 	0.49060 0.28520 0.83060 0.04200
H 	H 	0.58030 0.63720 0.22500 0.05200
H 	H 	0.23750 0.63680 0.61440 0.05600
H 	H 	0.34450 0.72820 0.48360 0.00400
H 	H 	0.51210 0.28660 0.03500 0.08100
C 	C 	0.94187 0.52276 0.45270 -0.01800
C 	C 	0.20130 0.68900 0.97460 -0.06900
C 	C 	0.37260 0.35280 0.14500 -0.05600
C 	C 	0.29643 0.09768 0.07146 -0.02400
C 	C 	0.36960 0.23300 0.29780 -0.09300
C 	C 	0.57770 0.69680 0.47980 0.05300
C 	C 	0.39171 0.45570 0.80748 0.02000
C 	C 	0.52394 0.98642 0.06410 -0.03500
C 	C 	0.28202 0.47404 0.03292 0.40300
C 	C 	0.41733 0.97724 0.04730 -0.00100
C 	C 	0.74646 0.39400 0.28228 0.03700
C 	C 	0.39749 0.17118 0.11044 -0.00800
C 	C 	0.60718 0.48258 0.65286 -0.02900
C 	C 	0.50440 0.70800 0.82980 -0.04500
C 	C 	0.65088 0.50740 0.72504 -0.01300
C 	C 	0.45780 0.20800 0.32980 0.01600
C 	C 	0.54250 0.78440 0.47260 -0.13800
C 	C 	0.74570 0.19680 0.97980 0.04900
C 	C 	0.63955 0.59200 0.82610 -0.03500
C 	C 	0.12408 0.99260 0.72504 -0.01300
C 	C 	0.91196 0.51358 0.06410 -0.03700
C 	C 	0.89740 0.23300 0.20220 -0.05500
C 	C 	0.10522 0.03304 0.92232 0.39000
C 	C 	0.54220 0.56300 0.12020 -0.08800
C 	C 	0.24262 0.01742 0.84714 -0.02600
C 	C 	0.38620 0.72440 0.54720 -0.04400
C 	C 	0.95830 0.87880 0.79480 -0.03800
C 	C 	0.33170 0.65020 0.70000 -0.04100
C 	C 	0.26030 0.32620 0.17640 -0.05700
C 	C 	0.02214 0.72230 0.86862 -0.04800
C 	C 	0.15489 0.04430 0.69252 0.02200
C 	C 	0.72873 0.88220 0.19794 -0.05800
C 	C 	0.88694 0.22230 0.36862 -0.05700
C 	C 	0.10260 0.76700 0.79780 -0.05500
C 	C 	0.66290 0.87880 0.70520 -0.06100
C 	C 	0.36490 0.81100 0.52540 -0.06900
C 	C 	0.83260 0.26700 0.29780 -0.05600
C 	C 	0.26845 0.59200 0.67390 -0.03900
C 	C 	0.28898 0.02596 0.46708 0.40300
C 	C 	0.60520 0.43700 0.62020 -0.08400
C 	C 	0.39282 0.51742 0.34714 -0.02900
C 	C 	0.73970 0.67380 0.82360 -0.05700
C 	C 	0.55765 0.90800 0.67390 -0.02000
C 	C 	0.04170 0.12120 0.20520 -0.03800
C 	C 	0.15780 0.77560 0.95280 -0.04800
C 	C 	0.47126 0.10600 0.28228 0.04600
C 	C 	0.10860 0.77080 0.98640 0.04600
C 	C 	0.65828 0.49260 0.22504 -0.01300
C 	C 	0.98240 0.14720 0.14500 -0.05300
C 	C 	0.76004 0.98258 0.34714 -0.02800
C 	C 	0.66830 0.34980 0.30000 -0.04100
C 	C 	0.59565 0.89356 0.91274 0.01300
C 	C 	0.39480 0.56300 0.37980 -0.08400
C 	C 	0.41010 0.79980 0.55400 0.01600
C 	C 	0.34741 0.54430 0.30748 0.02200
C 	C 	0.60924 0.77770 0.86862 -0.04900
C 	C 	0.49560 0.29200 0.17020 -0.04500
C 	C 	0.16240 0.06300 0.87980 -0.08900
C 	C 	0.73710 0.82620 0.67640 -0.03400
C 	C 	0.54220 0.79200 0.67020 0.01600
C 	C 	0.17310 0.78440 0.02740 -0.13100
C 	C 	0.61738 0.71908 0.84016 0.07000
C 	C 	0.42230 0.30320 0.52020 0.05300
C 	C 	0.73155 0.40800 0.32610 -0.03900
C 	C 	0.77555 0.86248 0.37342 -0.00400
C 	C 	0.74690 0.62120 0.79480 -0.04000
C 	C 	0.11306 0.77770 0.63138 -0.05700
C 	C 	0.63826 0.96696 0.42232 0.38900
C 	C 	0.52884 0.66380 0.16532 -0.04100
C 	C 	0.53590 0.70020 0.55400 0.01500
C 	C 	0.29950 0.71560 0.02740 -0.13500
C 	C 	0.56058 0.46696 0.57768 0.38900
C 	C 	0.93133 0.17118 0.38956 0.00800
C 	C 	0.86789 0.59768 0.92854 -0.02400
C 	C 	0.44235 0.09200 0.32610 -0.02000
C 	C 	0.38332 0.99260 0.77496 -0.01200
C 	C 	0.16580 0.79200 0.82980 -0.04800
C 	C 	0.13211 0.40232 0.07146 -0.02400
C 	C 	0.77450 0.30320 0.97980 0.05000
C 	C 	0.11870 0.81900 0.76960 -0.02600
C 	C 	0.16740 0.73300 0.70220 -0.05600
C 	C 	0.44250 0.80320 0.47980 0.05500
C 	C 	0.37040 0.14720 0.35500 -0.07400
C 	C 	0.06330 0.17380 0.17640 -0.05700
C 	C 	0.22550 0.69680 0.02020 0.05000
C 	C 	0.35954 0.39400 0.21772 0.03700
C 	C 	0.51510 0.28440 0.52740 -0.13700
C 	C 	0.34172 0.50740 0.77496 -0.01300
C 	C 	0.64046 0.60600 0.78228 0.03700
C 	C 	0.45750 0.21560 0.52740 -0.13800
C 	C 	0.20730 0.68100 0.73040 -0.02500
C 	C 	0.11494 0.53398 0.55094 -0.09100
C 	C 	0.89411 0.90232 0.57146 -0.01400
C 	C 	0.28760 0.70800 0.67020 -0.05400
C 	C 	0.58267 0.02276 0.95270 -0.00100
C 	C 	0.55750 0.19680 0.52020 0.05500
C 	C 	0.97786 0.27770 0.13138 -0.04800
C 	C 	0.67662 0.78092 0.65984 0.06000
C 	C 	0.83412 0.96602 0.55094 -0.09100
C 	C 	0.13803 0.13752 0.87342 -0.00300
C 	C 	0.63420 0.27080 0.48640 0.04600
C 	C 	0.60970 0.68900 0.52540 -0.06800
C 	C 	0.79270 0.31900 0.26960 -0.02500
C 	C 	0.89478 0.96696 0.07768 0.39000
C 	C 	0.23996 0.01742 0.65286 -0.02800
C 	C 	0.69113 0.38220 0.69794 -0.06000
C 	C 	0.30014 0.03398 0.05094 -0.09400
C 	C 	0.48190 0.34980 0.20000 -0.04900
C 	C 	0.33710 0.12120 0.29480 -0.06100
C 	C 	0.73610 0.29980 0.05400 0.02200
C 	C 	0.71102 0.97404 0.53292 0.40300
C 	C 	0.87592 0.00740 0.27496 -0.01300
C 	C 	0.43770 0.18100 0.26960 0.00700
C 	C 	0.59500 0.27080 0.01360 0.05200
C 	C 	0.63040 0.76700 0.70220 -0.09300
C 	C 	0.52874 0.89400 0.71772 0.04600
C 	C 	0.26290 0.17380 0.32360 -0.03400
C 	C 	0.39076 0.22230 0.13138 -0.04900
C 	C 	0.58976 0.51742 0.15286 -0.02900
C 	C 	0.09891 0.94894 0.75124 -0.03300
C 	C 	0.10213 0.54980 0.91734 -0.05800
C 	C 	0.93670 0.82620 0.82360 -0.05700
C 	C 	0.61380 0.27560 0.45280 -0.04400
C 	C 	0.16588 0.03398 0.44906 -0.09100
C 	C 	0.30887 0.61780 0.30206 -0.06000
C 	C 	0.72540 0.93700 0.37980 -0.08400
C 	C 	0.18506 0.02596 0.03292 0.40200
C 	C 	0.52754 0.53304 0.07768 0.38800
C 	C 	0.13190 0.62120 0.70520 -0.03400
C 	C 	0.67590 0.18900 0.02540 -0.07100
C 	C 	0.04246 0.78092 0.84016 0.06600
C 	C 	0.35015 0.44894 0.24876 -0.03200
C 	C 	0.84220 0.22440 0.04720 -0.04800
C 	C 	0.25354 0.60600 0.71772 0.03700
C 	C 	0.63510 0.18900 0.47460 -0.06900
C 	C 	0.56660 0.77560 0.54720 -0.04500
C 	C 	0.81810 0.15020 0.20000 -0.04500
C 	C 	0.96463 0.47724 0.95270 -0.00100
C 	C 	0.00793 0.67118 0.88956 -0.00900
C 	C 	0.25606 0.52596 0.53292 0.40300
C 	C 	0.11093 0.11780 0.69794 -0.06000
C 	C 	0.01760 0.85280 0.85500 -0.05300
C 	C 	0.51145 0.63752 0.12658 -0.00400
C 	C 	0.08650 0.67380 0.67640 -0.06300
C 	C 	0.48053 0.95020 0.91734 -0.05900
C 	C 	0.95754 0.21908 0.15984 0.06600
C 	C 	0.65259 0.45570 0.69252 0.02200
C 	C 	0.16354 0.71908 0.65984 0.07400
C 	C 	0.46830 0.84980 0.70000 -0.08600
C 	C 	0.69919 0.95570 0.19252 0.01900
C 	C 	0.85796 0.83620 0.33468 -0.04000
C 	C 	0.19416 0.16380 0.83468 -0.04200
C 	C 	0.36045 0.40800 0.17390 -0.03500
C 	C 	0.22445 0.13752 0.62658 -0.00400
C 	C 	0.89140 0.22920 0.01360 0.04600
C 	C 	0.83420 0.20800 0.17020 -0.04800
C 	C 	0.84511 0.95570 0.30748 0.02200
C 	C 	0.61060 0.27560 0.04720 -0.05100
C 	C 	0.38940 0.72440 0.95280 -0.05100
C 	C 	0.85108 0.53398 0.94906 -0.09300
C 	C 	0.37940 0.22920 0.48640 0.04700
C 	C 	0.60251 0.82882 0.88956 -0.00800
C 	C 	0.18190 0.84980 0.80000 -0.04500
C 	C 	0.47246 0.46696 0.92232 0.38800
C 	C 	0.88130 0.18100 0.23040 -0.02600
C 	C 	0.30736 0.66380 0.33468 -0.03900
C 	C 	0.25310 0.37880 0.20520 -0.04000
C 	C 	0.82089 0.67118 0.61044 0.00300
C 	C 	0.88907 0.88220 0.30206 -0.06000
C 	C 	0.48490 0.71560 0.47260 -0.13700
C 	C 	0.86197 0.86248 0.12658 -0.00300
C 	C 	0.98921 0.10644 0.41274 -0.01200
C 	C 	0.36174 0.03304 0.57768 0.38900
C 	C 	0.89787 0.45020 0.08266 -0.05800
C 	C 	0.26390 0.70020 0.94600 0.02200
C 	C 	0.69264 0.33620 0.66532 -0.03900
C 	C 	0.03537 0.52276 0.04730 -0.00100
C 	C 	0.24444 0.27770 0.36862 -0.04900
C 	C 	0.58990 0.20020 0.44600 0.01600
C 	C 	0.43942 0.53304 0.42232 0.38900
C 	C 	0.57333 0.61780 0.19794 -0.06000
C 	C 	0.99161 0.60644 0.91274 0.01400
C 	C 	0.25430 0.80320 0.02020 0.04900
C 	C 	0.38262 0.28092 0.15984 0.07000
C 	C 	0.41024 0.48258 0.84714 -0.02900
C 	C 	0.89457 0.02276 0.54730 -0.01800
C 	C 	0.77460 0.35280 0.35500 -0.05300
C 	C 	0.43340 0.22440 0.45280 -0.04500
C 	C 	0.74394 0.47404 0.46708 0.40300
C 	C 	0.00839 0.39356 0.08726 0.01400
C 	C 	0.32410 0.81100 0.97460 -0.07100
C 	C 	0.14204 0.16380 0.66532 -0.04000
C 	C 	0.47116 0.33620 0.83468 -0.04100
C 	C 	0.83760 0.93700 0.12020 -0.08900
C 	C 	0.38830 0.31900 0.23040 -0.01600
C 	C 	0.45780 0.43700 0.87980 -0.08800
C 	C 	0.62960 0.85280 0.64500 -0.07400
C 	C 	0.34912 0.49260 0.27496 -0.01300
C 	C 	0.03435 0.90800 0.82610 -0.04000
C 	C 	0.70050 0.28440 0.97260 -0.13500
C 	C 	0.79870 0.31100 0.02540 -0.06900
C 	C 	0.46410 0.29980 0.44600 0.01500
C 	C 	0.48855 0.36248 0.87342 -0.00400
C 	C 	0.42667 0.38220 0.80206 -0.06000
C 	C 	0.96557 0.40232 0.42854 -0.01500
C 	C 	0.01079 0.89356 0.58726 -0.01200
C 	C 	0.96565 0.09200 0.17390 -0.04000
C 	C 	0.90109 0.05106 0.24876 -0.03300
C 	C 	0.30081 0.04430 0.80748 0.01900
C 	C 	0.27127 0.11780 0.80206 -0.05800
C 	C 	0.88506 0.46602 0.44906 -0.09100
C 	C 	0.99207 0.32882 0.11044 -0.00900
C 	C 	0.51810 0.65020 0.80000 -0.04900
C 	C 	0.47606 0.01358 0.93590 -0.03500
C 	C 	0.71240 0.29200 0.32980 -0.05400
C 	C 	0.64985 0.55106 0.75124 -0.03200
C 	C 	0.56230 0.81900 0.73040 0.00700
C 	C 	0.70357 0.90232 0.92854 -0.02400
C 	C 	0.22540 0.64720 0.64500 -0.05300
C 	C 	0.83646 0.28092 0.34016 0.07400
C 	C 	0.61668 0.00740 0.22504 -0.01200
C 	C 	0.71798 0.52596 0.96708 0.40300
C 	C 	0.40435 0.10644 0.08726 0.01300
C 	C 	0.60829 0.54430 0.19252 0.02000
C 	C 	0.62060 0.77080 0.51360 0.04700
C 	C 	0.03443 0.59768 0.57146 -0.01500
C 	C 	0.61170 0.68100 0.76960 -0.01600
C 	C 	0.64897 0.36248 0.62658 -0.00400
C 	C 	0.62740 0.64720 0.85500 -0.05600
C 	C 	0.27460 0.06300 0.62020 -0.08400
C 	C 	0.29010 0.79980 0.94600 0.02400
C 	C 	0.70091 0.44894 0.25124 -0.03200
C 	C 	0.75556 0.72230 0.63138 -0.04900
C 	C 	0.45215 0.94894 0.74876 -0.03600
C 	C 	0.91350 0.32620 0.32360 -0.06300
C 	C 	0.29909 0.55106 0.74876 -0.03200
C 	C 	0.70990 0.20020 0.05400 0.02400
C 	C 	0.51947 0.04980 0.08266 -0.05900
C 	C 	0.07726 0.89400 0.78228 0.04000
C 	C 	0.05813 0.47724 0.54730 -0.01800
C 	C 	0.40040 0.26700 0.20220 -0.06500
C 	C 	0.82690 0.21560 0.97260 -0.13100
C 	C 	0.75738 0.98258 0.15286 -0.02600
C 	C 	0.59960 0.73300 0.79780 -0.06500
C 	C 	0.36580 0.72920 0.51360 0.04600
C 	C 	0.81494 0.97404 0.96708 0.40200
C 	C 	0.80584 0.83620 0.16532 -0.04200
C 	C 	0.90195 0.60644 0.58726 -0.01000
C 	C 	0.35103 0.63752 0.37342 -0.00400
C 	C 	0.10543 0.97724 0.45270 -0.01800
C 	C 	0.54785 0.05106 0.25124 -0.03600
C 	C 	0.08804 0.48642 0.93590 -0.03700
C 	C 	0.86810 0.37880 0.29480 -0.03400
C 	C 	0.09805 0.39356 0.41274 -0.01000
C 	C 	0.40500 0.72920 0.98640 0.05200
C 	C 	0.17911 0.32882 0.38956 0.00300
C 	C 	0.14892 0.46602 0.05094 -0.09300
C 	C 	0.10589 0.09768 0.42854 -0.01400
C 	C 	0.06867 0.82882 0.61044 0.00800
C 	C 	0.53170 0.15020 0.30000 -0.08600
C 	C 	0.69986 0.96602 0.94906 -0.09400
C 	C 	0.92274 0.10600 0.21772 0.04000
C 	C 	0.32338 0.21908 0.34016 0.06000
C 	C 	0.39030 0.31100 0.47460 -0.06800
N 	N 	0.32752 0.68328 0.98448 -0.20200
N 	N 	0.67248 0.31672 0.01552 -0.20200
N 	N 	0.51080 0.31672 0.48448 -0.20100
N 	N 	0.49528 0.81672 0.51552 -0.20200
N 	N 	0.81200 0.18328 0.01552 -0.20200
N 	N 	0.48920 0.68328 0.51552 -0.20100
N 	N 	0.18800 0.81672 0.98448 -0.20200
N 	N 	0.50472 0.18328 0.48448 -0.20200
O 	O 	0.29832 0.57954 0.53582 -0.47100
O 	O 	0.44129 0.57854 0.45028 -0.46900
O 	O 	0.37786 0.42046 0.03582 -0.47200
O 	O 	0.02989 0.07854 0.95028 -0.47000
O 	O 	0.32126 0.46682 0.51546 -0.48100
O 	O 	0.28808 0.53318 0.01546 -0.48200
O 	O 	0.33672 0.96682 0.48454 -0.48100
O 	O 	0.70168 0.42046 0.46418 -0.47100
O 	O 	0.62214 0.57954 0.96418 -0.47200
O 	O 	0.53588 0.53346 0.57178 -0.46000
O 	O 	0.85888 0.03346 0.07178 -0.46500
O 	O 	0.51983 0.42146 0.95028 -0.47000
O 	O 	0.33414 0.07954 0.46418 -0.47100
O 	O 	0.46412 0.46654 0.42822 -0.46000
O 	O 	0.67874 0.53318 0.48454 -0.48100
O 	O 	0.39157 0.07854 0.54972 -0.46900
O 	O 	0.60766 0.03346 0.42822 -0.46000
O 	O 	0.43066 0.53346 0.92822 -0.46400
O 	O 	0.19646 0.96682 0.01546 -0.48100
O 	O 	0.08632 0.07954 0.03582 -0.47100
O 	O 	0.71192 0.46682 0.98454 -0.48200
O 	O 	0.80354 0.03318 0.98454 -0.48100
O 	O 	0.56934 0.46654 0.07178 -0.46400
O 	O 	0.48017 0.57854 0.04972 -0.47000
O 	O 	0.66586 0.92046 0.53582 -0.47100
O 	O 	0.97011 0.92146 0.04972 -0.47000
O 	O 	0.55871 0.42146 0.54972 -0.46900
O 	O 	0.60843 0.92146 0.45028 -0.46900
O 	O 	0.91368 0.92046 0.96418 -0.47100
O 	O 	0.14112 0.96654 0.92822 -0.46500
O 	O 	0.66328 0.03318 0.51546 -0.48100
O 	O 	0.39234 0.96654 0.57178 -0.46000
