data_crystal

_cell_length_a 8.47700
_cell_length_b 8.79500
_cell_length_c 8.92900
_cell_angle_alpha 92.24800
_cell_angle_beta  95.82500
_cell_angle_gamma 98.07600

_symmetry_space_group_name_	'P 1'
_symmetry_space_group_name_H-M	'P 1'

loop_
_symmetry_equiv_pos_as_xyz
  x,y,z

loop_
_atom_site_label
_atom_site_type_symbol
_atom_site_fract_x
_atom_site_fract_y
_atom_site_fract_z
_atom_site_charge
Ga	Ga	0.01132 0.48296 0.25211 2.07100
Ga	Ga	0.98868 0.51704 0.74789 2.07700
P 	P 	0.23569 0.56332 0.53090 0.54300
P 	P 	0.99446 0.73159 0.01901 0.57700
P 	P 	0.76431 0.43668 0.46910 0.54300
P 	P 	0.00554 0.26841 0.98099 0.55200
H 	H 	-0.00000 0.00000 -0.00000 0.16900
H 	H 	0.50000 0.50000 0.50000 0.22900
O 	O 	0.41811 0.57650 0.56685 -0.23700
O 	O 	0.17730 0.71519 0.52304 -0.28600
O 	O 	0.08270 0.63926 0.13644 -0.62100
O 	O 	0.82270 0.28481 0.47696 -0.29200
O 	O 	0.18252 0.30270 0.98361 -0.26000
O 	O 	0.16074 0.47087 0.65759 -0.60000
O 	O 	0.93693 0.09956 0.93595 -0.21100
O 	O 	0.81748 0.69730 0.01639 -0.26900
O 	O 	0.94995 0.30463 0.13687 -0.58600
O 	O 	0.81094 0.53706 0.61908 -0.57600
O 	O 	0.91730 0.36074 0.86356 -0.59400
O 	O 	0.06307 0.90044 0.06405 -0.22700
O 	O 	0.05005 0.69537 0.86313 -0.57700
O 	O 	0.58189 0.42350 0.43315 -0.24400
O 	O 	0.18906 0.46294 0.38092 -0.59000
O 	O 	0.83926 0.52913 0.34241 -0.59100
