data_crystal

_cell_length_a 14.19720
_cell_length_b 14.19720
_cell_length_c 22.11850
_cell_angle_alpha 74.83040
_cell_angle_beta  74.17060
_cell_angle_gamma 99.63390

_symmetry_space_group_name_	'P 1'
_symmetry_space_group_name_H-M	'P 1'

loop_
_symmetry_equiv_pos_as_xyz
  x,y,z

loop_
_atom_site_label
_atom_site_type_symbol
_atom_site_fract_x
_atom_site_fract_y
_atom_site_fract_z
_atom_site_charge
Co	Co	0.47298 0.11807 0.43403 1.16300
Co	Co	0.94790 0.09299 0.93403 1.16400
Co	Co	0.52702 0.88193 0.56597 1.17000
Co	Co	0.50000 0.50000 0.50000 1.12000
Co	Co	0.05210 0.90701 0.06597 1.16300
Co	Co	0.50000 0.00000 -0.00000 1.10400
H 	H 	0.87270 0.23590 0.12620 0.08700
H 	H 	0.76820 0.28700 0.43540 0.05500
H 	H 	0.54460 0.79070 0.45450 -0.01500
H 	H 	0.93050 0.03840 0.81090 -0.02400
H 	H 	0.62210 0.36270 0.55960 -0.00200
H 	H 	0.97070 0.95950 0.83780 0.08600
H 	H 	0.37010 0.42180 0.37430 0.04700
H 	H 	0.77370 0.69980 0.49870 0.05100
H 	H 	0.96380 0.21880 0.02940 -0.00500
H 	H 	0.25180 0.00680 0.52940 -0.00500
H 	H 	0.62650 0.26220 0.65830 0.09800
H 	H 	0.03620 0.78120 0.97060 0.00500
H 	H 	0.24220 0.73950 0.78970 0.04900
H 	H 	0.55120 0.08170 0.20530 0.07500
H 	H 	0.57950 0.71520 0.15830 0.09800
H 	H 	0.70840 0.47350 0.68070 0.08100
H 	H 	0.34730 0.20570 0.64380 0.08400
H 	H 	0.34580 0.61090 0.18070 0.08100
H 	H 	0.29160 0.52650 0.31930 0.08100
H 	H 	0.82970 0.87600 0.14650 0.06000
H 	H 	0.65050 0.00890 0.14380 0.06700
H 	H 	0.44880 0.91830 0.79470 0.08400
H 	H 	0.27360 0.12160 0.75320 0.02600
H 	H 	0.07360 0.22010 0.49870 0.06900
H 	H 	0.22240 0.20360 0.06460 0.05600
H 	H 	0.45540 0.20930 0.54550 -0.01400
H 	H 	0.74820 0.99320 0.47060 0.00600
H 	H 	0.38500 0.43430 0.65150 0.00600
H 	H 	0.31100 0.94450 0.39710 0.07600
H 	H 	0.40920 0.86430 0.25230 0.09500
H 	H 	0.58580 0.03650 0.84850 0.00200
H 	H 	0.23180 0.71300 0.56460 0.05800
H 	H 	0.34950 0.99110 0.85620 0.10100
H 	H 	0.45900 0.09020 0.30420 0.00400
H 	H 	0.47750 0.02380 0.64650 0.03200
H 	H 	0.34930 0.74140 0.68910 0.01200
H 	H 	0.69850 0.27240 0.00130 0.02700
H 	H 	0.43610 0.31290 0.10140 0.08600
H 	H 	0.41420 0.96350 0.15150 0.01000
H 	H 	0.25480 0.00090 0.95450 -0.03600
H 	H 	0.62990 0.57820 0.62570 0.04800
H 	H 	0.38340 0.33850 0.75230 0.09400
H 	H 	0.29730 0.80850 0.66220 0.04600
H 	H 	0.06950 0.96160 0.18910 0.04200
H 	H 	0.17030 0.12400 0.85350 0.04500
H 	H 	0.12730 0.76410 0.87380 0.10000
H 	H 	0.54100 0.90980 0.69580 0.02200
H 	H 	0.72640 0.87840 0.24680 0.03100
H 	H 	0.59080 0.13570 0.74770 0.09200
H 	H 	0.42050 0.28480 0.84170 0.09900
H 	H 	0.37350 0.73780 0.34170 0.09900
H 	H 	0.86210 0.99890 0.37380 0.09900
H 	H 	0.70390 0.25560 0.87430 0.05000
H 	H 	0.29610 0.74440 0.12570 0.04300
H 	H 	0.61500 0.56570 0.34850 0.00600
H 	H 	0.77760 0.79640 0.93540 0.05900
H 	H 	0.56390 0.68710 0.89860 0.10600
H 	H 	0.02930 0.04050 0.16220 0.00000
H 	H 	0.62520 0.97320 0.25320 0.05100
H 	H 	0.57770 0.81830 0.05960 -0.00800
H 	H 	0.10560 0.23680 0.80420 0.01700
H 	H 	0.74520 0.99910 0.04550 0.01000
H 	H 	0.65420 0.38910 0.81930 0.08200
H 	H 	0.08570 0.46250 0.60140 0.09500
H 	H 	0.21880 0.57230 0.00130 0.02000
H 	H 	0.78120 0.42770 0.99870 0.11800
H 	H 	0.42230 0.18170 0.94040 0.00500
H 	H 	0.79920 0.18670 0.24150 0.07500
H 	H 	0.20080 0.81330 0.75850 0.08000
H 	H 	0.22630 0.30020 0.50130 0.05100
H 	H 	0.13790 0.00110 0.62620 0.09100
H 	H 	0.69450 0.63280 0.95450 0.08500
H 	H 	0.91270 0.35100 0.45450 0.09600
H 	H 	0.91430 0.53750 0.39860 0.09500
H 	H 	0.30150 0.72760 0.99870 0.07800
H 	H 	0.65070 0.25860 0.31090 0.01400
H 	H 	0.65270 0.79430 0.35620 0.08400
H 	H 	0.29270 0.21710 0.29100 0.09600
H 	H 	0.70270 0.19150 0.33780 0.04000
H 	H 	0.07180 0.95930 0.74150 0.12400
H 	H 	0.99190 0.41630 0.79100 0.09700
H 	H 	0.37790 0.63730 0.44040 -0.00200
H 	H 	0.37480 0.02680 0.74680 0.01100
H 	H 	0.70730 0.78290 0.70900 0.10100
H 	H 	0.02920 0.03190 0.71030 0.01600
H 	H 	0.92820 0.04070 0.25850 0.03200
H 	H 	0.15840 0.29190 0.89710 0.06900
H 	H 	0.92640 0.77990 0.50130 0.07300
H 	H 	0.00810 0.58370 0.20900 0.09700
H 	H 	0.68900 0.05550 0.60290 0.06600
H 	H 	0.89440 0.76320 0.19580 0.00500
H 	H 	0.84160 0.70810 0.10290 0.07500
H 	H 	0.97080 0.96810 0.28970 0.08500
H 	H 	0.78700 0.75650 0.29470 0.08000
H 	H 	0.21300 0.24350 0.70530 0.08200
H 	H 	0.52250 0.97620 0.35350 0.06900
H 	H 	0.75780 0.26050 0.21030 0.05500
H 	H 	0.30550 0.36720 0.04550 0.10700
H 	H 	0.08730 0.64900 0.54550 0.09500
H 	H 	0.61660 0.66150 0.24770 0.09400
C 	C 	0.28860 0.59510 0.98010 0.03700
C 	C 	0.33860 0.40110 0.34650 0.00300
C 	C 	0.28680 0.83600 0.48300 -0.09000
C 	C 	0.00770 0.63720 0.42070 0.07700
C 	C 	0.22590 0.25420 0.02690 0.02000
C 	C 	0.71640 0.57030 0.04030 -0.01600
C 	C 	0.42360 0.70320 0.34160 -0.14300
C 	C 	0.72930 0.16250 0.25420 -0.11800
C 	C 	0.71140 0.40490 0.01990 -0.13900
C 	C 	0.39090 0.16570 0.56220 0.09500
C 	C 	0.49410 0.66470 0.91900 -0.08600
C 	C 	0.14640 0.67740 0.16080 -0.04300
C 	C 	0.45520 0.23480 0.84160 -0.14200
C 	C 	0.83410 0.81680 0.26710 -0.12400
C 	C 	0.27150 0.04770 0.55280 0.09200
C 	C 	0.02380 0.01650 0.81250 -0.11000
C 	C 	0.61430 0.76230 0.62400 0.28300
C 	C 	0.79720 0.95660 0.38880 -0.14700
C 	C 	0.08330 0.01650 0.75420 -0.22700
C 	C 	0.24780 0.43820 0.26860 0.02700
C 	C 	0.88940 0.24330 0.54030 0.03500
C 	C 	0.17140 0.38890 0.55230 -0.04600
C 	C 	0.54480 0.76520 0.15840 -0.14500
C 	C 	0.20280 0.04340 0.61120 -0.15100
C 	C 	0.92360 0.40980 0.79620 -0.05800
C 	C 	0.49980 0.82310 0.94750 0.31700
C 	C 	0.73310 0.11590 0.57280 -0.03300
C 	C 	0.50530 0.22310 0.78260 0.06200
C 	C 	0.57640 0.29680 0.65840 -0.14400
C 	C 	0.13230 0.70870 0.51520 -0.08100
C 	C 	0.62600 0.03390 0.26190 -0.03700
C 	C 	0.14210 0.11160 0.82210 -0.02700
C 	C 	0.55540 0.14660 0.78620 -0.14200
C 	C 	0.89950 0.17570 0.05280 0.08300
C 	C 	0.11370 0.76170 0.12400 0.28400
C 	C 	0.49470 0.77690 0.21740 0.06400
C 	C 	0.00050 0.06180 0.79830 0.16400
C 	C 	0.60910 0.83430 0.43780 0.09700
C 	C 	0.85360 0.32260 0.83920 -0.03900
C 	C 	0.38570 0.23770 0.37600 0.28600
C 	C 	0.55790 0.42840 0.07930 0.05200
C 	C 	0.50020 0.17690 0.05250 0.33900
C 	C 	0.56530 0.60060 0.34730 0.08000
C 	C 	0.61910 0.11790 0.50500 0.38400
C 	C 	0.81860 0.15730 0.58370 0.05300
C 	C 	0.75240 0.31490 0.84650 0.00200
C 	C 	0.27730 0.60530 0.18740 -0.06500
C 	C 	0.70430 0.20390 0.23580 -0.00700
C 	C 	0.28540 0.94720 0.87860 -0.18000
C 	C 	0.24970 0.87790 0.85200 0.09600
C 	C 	0.70730 0.53530 0.68740 -0.06200
C 	C 	0.07520 0.26870 0.51990 -0.05100
C 	C 	0.44210 0.57160 0.92070 0.10500
C 	C 	0.71320 0.16400 0.51700 -0.09900
C 	C 	0.79320 0.48360 0.76860 0.02700
C 	C 	0.75030 0.12210 0.14800 0.05400
C 	C 	0.33860 0.53420 0.95120 -0.02900
C 	C 	0.70600 0.71980 0.70380 -0.06000
C 	C 	0.86770 0.29130 0.48480 -0.08700
C 	C 	0.72270 0.39470 0.81260 -0.06200
C 	C 	0.77210 0.04690 0.06220 0.04800
C 	C 	0.01460 0.71020 0.45120 0.01500
C 	C 	0.18140 0.84270 0.41630 0.06100
C 	C 	0.82860 0.61110 0.44770 -0.04700
C 	C 	0.99230 0.36280 0.57930 0.07700
C 	C 	0.37400 0.96610 0.73810 0.01900
C 	C 	0.83260 0.68340 0.47880 -0.00200
C 	C 	0.77410 0.74580 0.97310 0.03400
C 	C 	0.29570 0.79610 0.76420 0.01200
C 	C 	0.44790 0.91260 0.15270 0.08200
C 	C 	0.77010 0.89830 0.35200 0.07800
C 	C 	0.50570 0.28790 0.71740 0.06300
C 	C 	0.66220 0.31140 0.02120 0.04800
C 	C 	0.88630 0.23830 0.87600 0.28700
C 	C 	0.32900 0.83630 0.68750 -0.02600
C 	C 	0.87710 0.87590 0.00500 0.35300
C 	C 	0.55880 0.27630 0.05230 -0.07700
C 	C 	0.27610 0.35250 0.01520 -0.12900
C 	C 	0.81900 0.76980 0.01700 -0.10300
C 	C 	0.41610 0.89880 0.76710 -0.12500
C 	C 	0.36010 0.79880 0.70170 0.08500
C 	C 	0.27070 0.83750 0.74580 -0.12200
C 	C 	0.72940 0.55270 0.44750 0.33000
C 	C 	0.42690 0.64250 0.40120 0.08500
C 	C 	0.29270 0.46470 0.31260 -0.06400
C 	C 	0.11060 0.75670 0.45970 0.03200
C 	C 	0.56720 0.65840 0.28620 -0.14100
C 	C 	0.58390 0.10120 0.23290 -0.11800
C 	C 	0.07640 0.59020 0.20380 -0.05700
C 	C 	0.44120 0.72370 0.94770 -0.01200
C 	C 	0.47100 0.89530 0.70710 0.06700
C 	C 	0.81130 0.69410 0.07280 -0.04600
C 	C 	0.18100 0.23020 0.98300 -0.08200
C 	C 	0.84000 0.90220 0.28680 0.04600
C 	C 	0.22990 0.10170 0.64800 0.07400
C 	C 	0.26690 0.88410 0.42720 -0.03800
C 	C 	0.66140 0.46580 0.04880 0.05800
C 	C 	0.84540 0.18600 0.11120 -0.13800
C 	C 	0.43280 0.34160 0.71380 -0.14100
C 	C 	0.27060 0.44730 0.55250 0.32900
C 	C 	0.16590 0.18320 0.73290 -0.13100
C 	C 	0.20680 0.51640 0.23140 0.02700
C 	C 	0.10240 0.17810 0.79290 0.06800
C 	C 	0.57310 0.35750 0.59880 0.08500
C 	C 	0.55210 0.08740 0.84730 0.07800
C 	C 	0.68900 0.12680 0.21320 0.05600
C 	C 	0.22790 0.95310 0.93780 0.14200
C 	C 	0.24100 0.40230 0.91630 0.04400
C 	C 	0.72390 0.64750 0.98480 -0.03900
C 	C 	0.71460 0.05280 0.12140 -0.12500
C 	C 	0.31100 0.87320 0.78680 0.03100
C 	C 	0.25140 0.34550 0.26050 0.08500
C 	C 	0.75900 0.59770 0.08370 0.07200
C 	C 	0.38090 0.88210 0.49500 0.38200
C 	C 	0.97620 0.98350 0.18750 0.08100
C 	C 	0.33780 0.68860 0.97880 -0.05800
C 	C 	0.98540 0.28980 0.54880 0.01200
C 	C 	0.91670 0.98350 0.24580 -0.02900
C 	C 	0.16740 0.31660 0.52120 -0.00500
C 	C 	0.49430 0.71210 0.28260 0.06300
C 	C 	0.08370 0.41310 0.58100 -0.05800
C 	C 	0.78110 0.25280 0.47310 0.02900
C 	C 	0.56630 0.03580 0.32210 -0.06300
C 	C 	0.67100 0.16370 0.31250 -0.01500
C 	C 	0.72850 0.95230 0.44720 0.09600
C 	C 	0.28360 0.42970 0.95970 0.08300
C 	C 	0.79580 0.88790 0.23810 -0.00800
C 	C 	0.63990 0.20120 0.29830 0.07900
C 	C 	0.33820 0.30720 0.33920 -0.04200
C 	C 	0.93970 0.94010 0.26420 -0.08200
C 	C 	0.12290 0.12410 0.99500 0.41000
C 	C 	0.10600 0.51190 0.23950 0.08500
C 	C 	0.45630 0.17190 0.90120 0.08300
C 	C 	0.66180 0.69280 0.66080 -0.03700
C 	C 	0.85790 0.88840 0.17790 -0.06100
C 	C 	0.20420 0.11210 0.76190 0.00200
C 	C 	0.89400 0.48810 0.76050 0.08600
C 	C 	0.74860 0.65450 0.73950 0.08800
C 	C 	0.44460 0.85340 0.21380 -0.14000
C 	C 	0.99950 0.93820 0.20170 -0.00100
C 	C 	0.75220 0.56180 0.73140 0.02600
C 	C 	0.06030 0.05990 0.73580 0.10600
C 	C 	0.16000 0.09780 0.71320 0.04000
C 	C 	0.66140 0.59890 0.65350 0.00000
C 	C 	0.92480 0.73130 0.48010 -0.05400
C 	C 	0.89760 0.82190 0.20710 0.10500
C 	C 	0.29400 0.28020 0.29620 -0.05700
C 	C 	0.54370 0.82810 0.09880 0.08600
C 	C 	0.24760 0.68510 0.15350 0.00100
C 	C 	0.21890 0.74720 0.52690 0.02500
C 	C 	0.32580 0.16400 0.62140 -0.15400
C 	C 	0.50590 0.33530 0.08100 -0.03500
C 	C 	0.52900 0.10470 0.29290 0.09400
C 	C 	0.15460 0.81400 0.88880 -0.15900
C 	C 	0.67420 0.83600 0.37860 -0.15300
C 	C 	0.91630 0.58690 0.41900 -0.05700
C 	C 	0.43370 0.96420 0.67790 -0.01200
C 	C 	0.10050 0.82430 0.94720 0.10400
C 	C 	0.43470 0.39940 0.65270 0.08000
C 	C 	0.18870 0.30590 0.92720 -0.02600
N 	N 	0.36567 0.10774 0.52767 -0.23500
N 	N 	0.13541 0.89334 0.97233 -0.23300
N 	N 	0.24710 0.47950 0.85460 0.00400
N 	N 	0.90180 0.39430 0.60950 -0.00400
N 	N 	0.42898 0.87210 0.66332 -0.21700
N 	N 	0.03542 0.09230 0.83668 -0.22100
N 	N 	0.57102 0.12790 0.33668 -0.21900
N 	N 	0.63433 0.89226 0.47233 -0.23200
N 	N 	0.50343 0.40861 0.59518 -0.24000
N 	N 	0.50380 0.51130 0.89050 -0.00700
N 	N 	0.83410 0.10170 0.64540 0.00200
N 	N 	0.16590 0.89830 0.35460 0.00100
N 	N 	0.96458 0.90770 0.16332 -0.21400
N 	N 	0.49621 0.90139 0.09518 -0.23900
N 	N 	0.21140 0.31400 0.21180 0.01500
N 	N 	0.78860 0.68600 0.78820 0.01300
N 	N 	0.09820 0.60570 0.39050 -0.00300
N 	N 	0.97420 0.57680 0.71180 0.01300
N 	N 	0.49657 0.59139 0.40482 -0.24000
N 	N 	0.02580 0.42320 0.28820 0.01400
N 	N 	0.75290 0.52050 0.14540 -0.00100
N 	N 	0.49620 0.48870 0.10950 -0.00000
N 	N 	0.86459 0.10666 0.02767 -0.23300
N 	N 	0.50379 0.09861 0.90482 -0.23700
O 	O 	0.96904 0.25735 0.88711 -0.35100
O 	O 	0.75450 0.05240 0.69370 -0.12000
O 	O 	0.91280 0.48290 0.60630 -0.11200
O 	O 	0.84320 0.78240 0.76060 -0.07100
O 	O 	0.95600 0.64400 0.67960 -0.09500
O 	O 	0.24550 0.94760 0.30630 -0.10800
O 	O 	0.15680 0.21760 0.23940 -0.07700
O 	O 	0.17640 0.36440 0.17960 -0.09900
O 	O 	0.87631 0.94500 0.95653 -0.40400
O 	O 	0.43460 0.96575 0.45441 -0.45900
O 	O 	0.40153 0.83284 0.54347 -0.43400
O 	O 	0.41080 0.48090 0.10630 -0.11700
O 	O 	0.12369 0.05500 0.04347 -0.46400
O 	O 	0.35554 0.14385 0.38711 -0.35600
O 	O 	0.08840 0.88630 0.34690 -0.11200
O 	O 	0.53120 0.53980 0.13660 -0.11700
O 	O 	0.73282 0.48872 0.41810 -0.27200
O 	O 	0.46880 0.46020 0.86340 -0.11300
O 	O 	0.34927 0.42825 0.52194 -0.42900
O 	O 	0.65073 0.57175 0.47806 -0.42900
O 	O 	0.73320 0.43530 0.15310 -0.11400
O 	O 	0.82360 0.33220 0.63660 -0.11500
O 	O 	0.16710 0.85118 0.10468 -0.36400
O 	O 	0.95700 0.39620 0.26060 -0.07600
O 	O 	0.04400 0.35600 0.32040 -0.09700
O 	O 	0.75390 0.55180 0.19370 -0.11300
O 	O 	0.45586 0.27178 0.39532 -0.36300
O 	O 	0.24610 0.44820 0.80630 -0.11300
O 	O 	0.83290 0.14882 0.89532 -0.36200
O 	O 	0.26718 0.51128 0.58190 -0.27200
O 	O 	0.54981 0.12879 0.02194 -0.44100
O 	O 	0.08720 0.51710 0.39370 -0.11200
O 	O 	0.54414 0.72822 0.60468 -0.36100
O 	O 	0.75510 0.75040 0.80910 -0.08000
O 	O 	0.59847 0.16716 0.45653 -0.43900
O 	O 	0.04300 0.60380 0.73940 -0.07400
O 	O 	0.64446 0.85615 0.61289 -0.34700
O 	O 	0.94050 0.43580 0.30910 -0.08200
O 	O 	0.58920 0.51910 0.89370 -0.10600
O 	O 	0.24490 0.24960 0.19090 -0.08300
O 	O 	0.40682 0.15092 0.08190 -0.28100
O 	O 	0.59318 0.84908 0.91810 -0.25900
O 	O 	0.17640 0.66780 0.36340 -0.11500
O 	O 	0.82360 0.63560 0.82040 -0.09500
O 	O 	0.91160 0.11370 0.65310 -0.11900
O 	O 	0.92016 0.88901 0.04559 -0.46000
O 	O 	0.56540 0.03425 0.54559 -0.47600
O 	O 	0.05950 0.56420 0.69090 -0.08200
O 	O 	0.03096 0.74265 0.11289 -0.35700
O 	O 	0.26680 0.56470 0.84690 -0.11200
O 	O 	0.45019 0.87121 0.97806 -0.40800
O 	O 	0.07984 0.11099 0.95441 -0.47100
