data_crystal

_cell_length_a 21.27370
_cell_length_b 21.27370
_cell_length_c 30.08600
_cell_angle_alpha 90.00000
_cell_angle_beta  90.00000
_cell_angle_gamma 90.00000

_symmetry_space_group_name_	'P 1'
_symmetry_space_group_name_H-M	'P 1'

loop_
_symmetry_equiv_pos_as_xyz
  x,y,z

loop_
_atom_site_label
_atom_site_type_symbol
_atom_site_fract_x
_atom_site_fract_y
_atom_site_fract_z
_atom_site_charge
C 	C 	0.17520 0.81330 0.32140 0.09000
H 	H 	0.18870 0.85120 0.30930 -0.00500
C 	C 	0.13930 0.81280 0.35660 -0.16200
H 	H 	0.12900 0.85070 0.37010 0.09900
C 	C 	0.11450 0.75350 0.37580 0.12200
C 	C 	0.13530 0.69780 0.35690 -0.15800
H 	H 	0.12390 0.65950 0.36950 0.09100
C 	C 	0.17310 0.69870 0.31930 0.08000
H 	H 	0.18490 0.66120 0.30580 -0.00500
C 	C 	0.74960 0.07210 0.08620 -0.09600
C 	C 	0.69200 0.04510 0.06970 0.08600
H 	H 	0.65530 0.05230 0.08570 0.01800
C 	C 	0.68810 0.01120 0.03390 -0.20600
C 	C 	0.74350 0.99150 0.01290 0.15400
H 	H 	0.74180 0.96420 0.98880 0.04100
C 	C 	0.80060 0.01280 0.02830 -0.21100
C 	C 	0.80430 0.05240 0.06570 0.07400
H 	H 	0.84320 0.06530 0.07650 0.01600
C 	C 	0.62590 0.98630 0.01870 0.37900
C 	C 	0.86070 0.99340 0.00760 0.39700
C 	C 	0.00910 0.86240 0.00750 -0.04700
H 	H 	0.98680 0.86210 0.98090 0.09000
C 	C 	0.02540 0.80980 0.02540 -0.06900
H 	H 	0.01340 0.77260 0.01160 0.05300
C 	C 	0.06150 0.80640 0.06580 0.06100
C 	C 	0.07980 0.86840 0.08370 -0.12900
H 	H 	0.10430 0.87050 0.10930 0.08600
C 	C 	0.06250 0.91940 0.06440 0.07800
H 	H 	0.07610 0.95770 0.07580 0.00900
C 	C 	0.08150 0.74830 0.08630 -0.03700
C 	C 	0.05830 0.68970 0.07240 0.01900
H 	H 	0.02650 0.68920 0.05120 0.03900
C 	C 	0.07920 0.63470 0.08780 -0.11800
C 	C 	0.12080 0.63470 0.12430 0.05600
H 	H 	0.13340 0.59670 0.13670 0.04200
C 	C 	0.14300 0.69050 0.14200 -0.12700
C 	C 	0.12270 0.74670 0.12470 0.01800
H 	H 	0.13560 0.78420 0.13770 0.04500
C 	C 	0.06170 0.57590 0.06970 0.32800
C 	C 	0.17820 0.69200 0.18070 0.35500
N 	N 	0.19320 0.75550 0.30180 -0.22100
N 	N 	0.02410 0.91930 0.02710 -0.19800
O 	O 	0.57830 0.01440 0.03420 -0.39800
O 	O 	0.62510 0.93310 0.99920 -0.22200
O 	O 	0.85920 0.95410 0.97660 -0.24100
O 	O 	0.91310 0.01670 0.02030 -0.41700
O 	O 	0.02270 0.57280 0.03690 -0.36700
O 	O 	0.07600 0.52280 0.08560 -0.25900
O 	O 	0.19270 0.64390 0.20290 -0.28200
O 	O 	0.19540 0.74380 0.19740 -0.37900
C 	C 	0.32480 0.68670 0.32140 0.07700
H 	H 	0.31130 0.64880 0.30930 -0.00300
C 	C 	0.36070 0.68720 0.35660 -0.13600
H 	H 	0.37100 0.64930 0.37010 0.08700
C 	C 	0.38550 0.74650 0.37580 0.08100
C 	C 	0.36470 0.80220 0.35690 -0.13000
H 	H 	0.37610 0.84050 0.36950 0.08500
C 	C 	0.32690 0.80130 0.31930 0.06900
H 	H 	0.31510 0.83880 0.30580 0.00300
C 	C 	0.75040 0.42790 0.08620 0.01000
C 	C 	0.80800 0.45490 0.06970 -0.06100
H 	H 	0.84470 0.44770 0.08570 0.07500
C 	C 	0.81190 0.48880 0.03390 0.00100
C 	C 	0.75650 0.50850 0.01290 -0.08500
H 	H 	0.75820 0.53580 0.98880 0.11400
C 	C 	0.69940 0.48720 0.02830 -0.02200
C 	C 	0.69570 0.44760 0.06570 -0.05200
H 	H 	0.65680 0.43470 0.07650 0.06100
C 	C 	0.87410 0.51370 0.01870 0.24200
C 	C 	0.63930 0.50660 0.00760 0.27000
C 	C 	0.49090 0.63760 0.00750 0.03800
H 	H 	0.51320 0.63790 0.98090 0.03500
C 	C 	0.47460 0.69020 0.02540 -0.12400
H 	H 	0.48660 0.72740 0.01160 0.07900
C 	C 	0.43850 0.69360 0.06580 0.08600
C 	C 	0.42020 0.63160 0.08370 -0.14800
H 	H 	0.39570 0.62950 0.10930 0.09100
C 	C 	0.43750 0.58060 0.06440 0.09200
H 	H 	0.42390 0.54230 0.07580 -0.00400
C 	C 	0.41850 0.75170 0.08630 -0.04400
C 	C 	0.44170 0.81030 0.07240 0.02100
H 	H 	0.47350 0.81080 0.05120 0.04300
C 	C 	0.42080 0.86530 0.08780 -0.10900
C 	C 	0.37920 0.86530 0.12430 0.05500
H 	H 	0.36660 0.90330 0.13670 0.04900
C 	C 	0.35700 0.80950 0.14200 -0.12500
C 	C 	0.37730 0.75330 0.12470 0.02200
H 	H 	0.36440 0.71580 0.13770 0.04300
C 	C 	0.43830 0.92410 0.06970 0.32400
C 	C 	0.32180 0.80800 0.18070 0.35500
N 	N 	0.30680 0.74450 0.30180 -0.21600
N 	N 	0.47590 0.58070 0.02710 -0.21700
O 	O 	0.92170 0.48560 0.03420 -0.32900
O 	O 	0.87490 0.56690 0.99920 -0.19300
O 	O 	0.64080 0.54590 0.97660 -0.22800
O 	O 	0.58690 0.48330 0.02030 -0.37700
O 	O 	0.47730 0.92720 0.03690 -0.34300
O 	O 	0.42400 0.97720 0.08560 -0.23300
O 	O 	0.30730 0.85610 0.20290 -0.27400
O 	O 	0.30460 0.75620 0.19740 -0.37800
C 	C 	0.18670 0.67520 0.82140 0.08100
H 	H 	0.14880 0.68870 0.80930 -0.00500
C 	C 	0.18720 0.63930 0.85660 -0.14500
H 	H 	0.14930 0.62900 0.87010 0.08900
C 	C 	0.24650 0.61450 0.87580 0.09400
C 	C 	0.30220 0.63530 0.85690 -0.13900
H 	H 	0.34050 0.62390 0.86950 0.08700
C 	C 	0.30130 0.67310 0.81930 0.07200
H 	H 	0.33880 0.68490 0.80580 0.00000
C 	C 	0.92790 0.24960 0.58620 0.08100
C 	C 	0.95490 0.19200 0.56970 -0.15600
H 	H 	0.94770 0.15530 0.58570 0.10700
C 	C 	0.98880 0.18810 0.53390 0.13900
C 	C 	0.00850 0.24350 0.51290 -0.22000
H 	H 	0.03580 0.24180 0.48880 0.13200
C 	C 	0.98720 0.30060 0.52830 0.11300
C 	C 	0.94760 0.30430 0.56570 -0.13700
H 	H 	0.93470 0.34320 0.57650 0.09500
C 	C 	0.01370 0.12590 0.51870 0.16700
C 	C 	0.00660 0.36070 0.50760 0.19500
C 	C 	0.13760 0.50910 0.50750 0.11200
H 	H 	0.13790 0.48680 0.48090 -0.01300
C 	C 	0.19020 0.52540 0.52540 -0.17300
H 	H 	0.22740 0.51340 0.51160 0.10000
C 	C 	0.19360 0.56150 0.56580 0.10900
C 	C 	0.13160 0.57980 0.58370 -0.16700
H 	H 	0.12950 0.60430 0.60930 0.09500
C 	C 	0.08060 0.56250 0.56440 0.10500
H 	H 	0.04230 0.57610 0.57580 -0.01400
C 	C 	0.25170 0.58150 0.58630 -0.05800
C 	C 	0.31030 0.55830 0.57240 0.03200
H 	H 	0.31080 0.52650 0.55120 0.03900
C 	C 	0.36530 0.57920 0.58780 -0.11800
C 	C 	0.36530 0.62080 0.62430 0.06100
H 	H 	0.40330 0.63340 0.63670 0.04400
C 	C 	0.30950 0.64300 0.64200 -0.13200
C 	C 	0.25330 0.62270 0.62470 0.03000
H 	H 	0.21580 0.63560 0.63770 0.03900
C 	C 	0.42410 0.56170 0.56970 0.32900
C 	C 	0.30800 0.67820 0.68070 0.35700
N 	N 	0.24450 0.69320 0.80180 -0.21800
N 	N 	0.08070 0.52410 0.52710 -0.22900
O 	O 	0.98560 0.07830 0.53420 -0.29900
O 	O 	0.06690 0.12510 0.49920 -0.22800
O 	O 	0.04590 0.35920 0.47660 -0.24400
O 	O 	0.98330 0.41310 0.52030 -0.32400
O 	O 	0.42720 0.52270 0.53690 -0.35200
O 	O 	0.47720 0.57600 0.58560 -0.24700
O 	O 	0.35610 0.69270 0.70290 -0.27800
O 	O 	0.25620 0.69540 0.69740 -0.38000
C 	C 	0.31330 0.82480 0.82140 0.06500
H 	H 	0.35120 0.81130 0.80930 0.00600
C 	C 	0.31280 0.86070 0.85660 -0.11000
H 	H 	0.35070 0.87100 0.87010 0.08100
C 	C 	0.25350 0.88550 0.87580 0.04300
C 	C 	0.19780 0.86470 0.85690 -0.10400
H 	H 	0.15950 0.87610 0.86950 0.07200
C 	C 	0.19870 0.82690 0.81930 0.05700
H 	H 	0.16120 0.81510 0.80580 0.00500
C 	C 	0.57210 0.25040 0.58620 -0.02100
C 	C 	0.54510 0.30800 0.56970 -0.01800
H 	H 	0.55230 0.34470 0.58570 0.05800
C 	C 	0.51120 0.31190 0.53390 -0.05500
C 	C 	0.49150 0.25650 0.51290 0.00900
H 	H 	0.46420 0.25820 0.48880 0.06100
C 	C 	0.51280 0.19940 0.52830 -0.07400
C 	C 	0.55240 0.19570 0.56570 -0.01400
H 	H 	0.56530 0.15680 0.57650 0.04600
C 	C 	0.48630 0.37410 0.51870 0.29400
C 	C 	0.49340 0.13930 0.50760 0.32100
C 	C 	0.36240 0.99090 0.50750 0.22300
H 	H 	0.36210 0.01320 0.48090 -0.07800
C 	C 	0.30980 0.97460 0.52540 -0.24200
H 	H 	0.27260 0.98660 0.51160 0.13300
C 	C 	0.30640 0.93850 0.56580 0.14400
C 	C 	0.36840 0.92020 0.58370 -0.18700
H 	H 	0.37050 0.89570 0.60930 0.10800
C 	C 	0.41940 0.93750 0.56440 0.12600
H 	H 	0.45770 0.92390 0.57580 -0.00700
C 	C 	0.24830 0.91850 0.58630 -0.07000
C 	C 	0.18970 0.94170 0.57240 0.04200
H 	H 	0.18920 0.97350 0.55120 0.04100
C 	C 	0.13470 0.92080 0.58780 -0.12100
C 	C 	0.13470 0.87920 0.62430 0.06700
H 	H 	0.09670 0.86660 0.63670 0.04100
C 	C 	0.19050 0.85700 0.64200 -0.13700
C 	C 	0.24670 0.87730 0.62470 0.04100
H 	H 	0.28420 0.86440 0.63770 0.03800
C 	C 	0.07590 0.93830 0.56970 0.32900
C 	C 	0.19200 0.82180 0.68070 0.36100
N 	N 	0.25550 0.80680 0.80180 -0.21100
N 	N 	0.41930 0.97590 0.52710 -0.23600
O 	O 	0.51440 0.42170 0.53420 -0.34800
O 	O 	0.43310 0.37490 0.49920 -0.24100
O 	O 	0.45410 0.14080 0.47660 -0.26900
O 	O 	0.51670 0.08690 0.52030 -0.38800
O 	O 	0.07280 0.97730 0.53690 -0.34000
O 	O 	0.02280 0.92400 0.58560 -0.25100
O 	O 	0.14390 0.80730 0.70290 -0.28100
O 	O 	0.24380 0.80460 0.69740 -0.37800
C 	C 	0.82480 0.18670 0.67860 0.06100
H 	H 	0.81130 0.14880 0.69070 0.00200
C 	C 	0.86070 0.18720 0.64340 -0.10700
H 	H 	0.87100 0.14930 0.62990 0.07400
C 	C 	0.88550 0.24650 0.62420 0.03600
C 	C 	0.86470 0.30220 0.64310 -0.10100
H 	H 	0.87610 0.34050 0.63050 0.07200
C 	C 	0.82690 0.30130 0.68070 0.05400
H 	H 	0.81510 0.33880 0.69420 0.00700
C 	C 	0.25040 0.92790 0.91380 0.07300
C 	C 	0.30800 0.95490 0.93030 -0.14000
H 	H 	0.34470 0.94770 0.91430 0.10600
C 	C 	0.31190 0.98880 0.96610 0.12300
C 	C 	0.25650 0.00850 0.98710 -0.16800
H 	H 	0.25820 0.03580 0.01120 0.09700
C 	C 	0.19940 0.98720 0.97170 0.09800
C 	C 	0.19570 0.94760 0.93430 -0.12200
H 	H 	0.15680 0.93470 0.92350 0.09000
C 	C 	0.37410 0.01370 0.98130 0.19600
C 	C 	0.13930 0.00660 0.99240 0.22000
C 	C 	0.99090 0.13760 0.99250 0.28200
H 	H 	0.01320 0.13790 0.01910 -0.11400
C 	C 	0.97460 0.19020 0.97460 -0.28100
H 	H 	0.98660 0.22740 0.98840 0.15300
C 	C 	0.93850 0.19360 0.93420 0.16200
C 	C 	0.92020 0.13160 0.91630 -0.20200
H 	H 	0.89570 0.12950 0.89070 0.11000
C 	C 	0.93750 0.08060 0.93560 0.13700
H 	H 	0.92390 0.04230 0.92420 -0.01800
C 	C 	0.91850 0.25170 0.91370 -0.07600
C 	C 	0.94170 0.31030 0.92760 0.04400
H 	H 	0.97350 0.31080 0.94880 0.04300
C 	C 	0.92080 0.36530 0.91220 -0.11600
C 	C 	0.87920 0.36530 0.87570 0.06700
H 	H 	0.86660 0.40330 0.86330 0.04500
C 	C 	0.85700 0.30950 0.85800 -0.13600
C 	C 	0.87730 0.25330 0.87530 0.04400
H 	H 	0.86440 0.21580 0.86230 0.03500
C 	C 	0.93830 0.42410 0.93030 0.32800
C 	C 	0.82180 0.30800 0.81930 0.36100
N 	N 	0.80680 0.24450 0.69820 -0.21100
N 	N 	0.97590 0.08070 0.97290 -0.24400
O 	O 	0.42170 0.98560 0.96580 -0.28400
O 	O 	0.37490 0.06690 0.00080 -0.24700
O 	O 	0.14080 0.04590 0.02340 -0.27400
O 	O 	0.08690 0.98330 0.97970 -0.31900
O 	O 	0.97730 0.42720 0.96310 -0.32500
O 	O 	0.92400 0.47720 0.91440 -0.23400
O 	O 	0.80730 0.35610 0.79710 -0.27700
O 	O 	0.80460 0.25620 0.80260 -0.37900
C 	C 	0.67520 0.31330 0.67860 0.07600
H 	H 	0.68870 0.35120 0.69070 -0.00100
C 	C 	0.63930 0.31280 0.64340 -0.13700
H 	H 	0.62900 0.35070 0.62990 0.08700
C 	C 	0.61450 0.25350 0.62420 0.08000
C 	C 	0.63530 0.19780 0.64310 -0.13200
H 	H 	0.62390 0.15950 0.63050 0.07900
C 	C 	0.67310 0.19870 0.68070 0.06700
H 	H 	0.68490 0.16120 0.69420 -0.00200
C 	C 	0.24960 0.57210 0.91380 -0.04500
C 	C 	0.19200 0.54510 0.93030 0.02200
H 	H 	0.15530 0.55230 0.91430 0.04400
C 	C 	0.18810 0.51120 0.96610 -0.10500
C 	C 	0.24350 0.49150 0.98710 0.09900
H 	H 	0.24180 0.46420 0.01120 0.01500
C 	C 	0.30060 0.51280 0.97170 -0.11700
C 	C 	0.30430 0.55240 0.93430 0.02000
H 	H 	0.34320 0.56530 0.92350 0.03900
C 	C 	0.12590 0.48630 0.98130 0.34500
C 	C 	0.36070 0.49340 0.99240 0.36700
C 	C 	0.50910 0.36240 0.99250 0.18600
H 	H 	0.48680 0.36210 0.01910 -0.05400
C 	C 	0.52540 0.30980 0.97460 -0.21900
H 	H 	0.51340 0.27260 0.98840 0.12300
C 	C 	0.56150 0.30640 0.93420 0.13300
C 	C 	0.57980 0.36840 0.91630 -0.18100
H 	H 	0.60430 0.37050 0.89070 0.10400
C 	C 	0.56250 0.41940 0.93560 0.12100
H 	H 	0.57610 0.45770 0.92420 -0.00800
C 	C 	0.58150 0.24830 0.91370 -0.06800
C 	C 	0.55830 0.18970 0.92760 0.04100
H 	H 	0.52650 0.18920 0.94880 0.03900
C 	C 	0.57920 0.13470 0.91220 -0.12400
C 	C 	0.62080 0.13470 0.87570 0.06700
H 	H 	0.63340 0.09670 0.86330 0.03900
C 	C 	0.64300 0.19050 0.85800 -0.13800
C 	C 	0.62270 0.24670 0.87530 0.03900
H 	H 	0.63560 0.28420 0.86230 0.03800
C 	C 	0.56170 0.07590 0.93030 0.33200
C 	C 	0.67820 0.19200 0.81930 0.36000
N 	N 	0.69320 0.25550 0.69820 -0.21600
N 	N 	0.52410 0.41930 0.97290 -0.23200
O 	O 	0.07830 0.51440 0.96580 -0.35800
O 	O 	0.12510 0.43310 0.00080 -0.28100
O 	O 	0.35920 0.45410 0.02340 -0.29400
O 	O 	0.41310 0.51670 0.97970 -0.38000
O 	O 	0.52270 0.07280 0.96310 -0.34800
O 	O 	0.57600 0.02280 0.91440 -0.25900
O 	O 	0.69270 0.14390 0.79710 -0.28400
O 	O 	0.69540 0.24380 0.80260 -0.38000
C 	C 	0.81330 0.32480 0.17860 0.07200
H 	H 	0.85120 0.31130 0.19070 0.00200
C 	C 	0.81280 0.36070 0.14340 -0.12800
H 	H 	0.85070 0.37100 0.12990 0.08500
C 	C 	0.75350 0.38550 0.12420 0.06700
C 	C 	0.69780 0.36470 0.14310 -0.12200
H 	H 	0.65950 0.37610 0.13050 0.07700
C 	C 	0.69870 0.32690 0.18070 0.06400
H 	H 	0.66120 0.31510 0.19420 0.00100
C 	C 	0.07210 0.75040 0.41380 -0.10700
C 	C 	0.04510 0.80800 0.43030 0.10400
H 	H 	0.05230 0.84470 0.41430 0.01700
C 	C 	0.01120 0.81190 0.46610 -0.22300
C 	C 	0.99150 0.75650 0.48710 0.21300
H 	H 	0.96420 0.75820 0.51120 0.00400
C 	C 	0.01280 0.69940 0.47170 -0.23600
C 	C 	0.05240 0.69570 0.43430 0.09400
H 	H 	0.06530 0.65680 0.42350 0.00900
C 	C 	0.98630 0.87410 0.48130 0.40400
C 	C 	0.99340 0.63930 0.49240 0.43400
C 	C 	0.86240 0.49090 0.49250 0.11300
H 	H 	0.86210 0.51320 0.51910 -0.00600
C 	C 	0.80980 0.47460 0.47460 -0.17000
H 	H 	0.77260 0.48660 0.48840 0.10200
C 	C 	0.80640 0.43850 0.43420 0.11100
C 	C 	0.86840 0.42020 0.41630 -0.16200
H 	H 	0.87050 0.39570 0.39070 0.10000
C 	C 	0.91940 0.43750 0.43560 0.10800
H 	H 	0.95770 0.42390 0.42420 0.00300
C 	C 	0.74830 0.41850 0.41370 -0.05500
C 	C 	0.68970 0.44170 0.42760 0.03200
H 	H 	0.68920 0.47350 0.44880 0.04200
C 	C 	0.63470 0.42080 0.41220 -0.11700
C 	C 	0.63470 0.37920 0.37570 0.06200
H 	H 	0.59670 0.36660 0.36330 0.04300
C 	C 	0.69050 0.35700 0.35800 -0.13100
C 	C 	0.74670 0.37730 0.37530 0.03100
H 	H 	0.78420 0.36440 0.36230 0.04200
C 	C 	0.57590 0.43830 0.43030 0.33000
C 	C 	0.69200 0.32180 0.31930 0.35800
N 	N 	0.75550 0.30680 0.19820 -0.21500
N 	N 	0.91930 0.47590 0.47290 -0.21900
O 	O 	0.01440 0.92170 0.46580 -0.37900
O 	O 	0.93310 0.87490 0.50080 -0.24300
O 	O 	0.95410 0.64080 0.52340 -0.27500
O 	O 	0.01670 0.58690 0.47970 -0.42800
O 	O 	0.57280 0.47730 0.46310 -0.35000
O 	O 	0.52280 0.42400 0.41440 -0.24900
O 	O 	0.64390 0.30730 0.29710 -0.28100
O 	O 	0.74380 0.30460 0.30260 -0.37800
C 	C 	0.68670 0.17520 0.17860 0.08800
H 	H 	0.64880 0.18870 0.19070 -0.00900
C 	C 	0.68720 0.13930 0.14340 -0.15900
H 	H 	0.64930 0.12900 0.12990 0.09200
C 	C 	0.74650 0.11450 0.12420 0.11300
C 	C 	0.80220 0.13530 0.14310 -0.15400
H 	H 	0.84050 0.12390 0.13050 0.09100
C 	C 	0.80130 0.17310 0.18070 0.07800
H 	H 	0.83880 0.18490 0.19420 -0.00200
C 	C 	0.42790 0.74960 0.41380 -0.01500
C 	C 	0.45490 0.69200 0.43030 -0.02000
H 	H 	0.44770 0.65530 0.41430 0.06000
C 	C 	0.48880 0.68810 0.46610 -0.04900
C 	C 	0.50850 0.74350 0.48710 0.00500
H 	H 	0.53580 0.74180 0.51120 0.06800
C 	C 	0.48720 0.80060 0.47170 -0.06400
C 	C 	0.44760 0.80430 0.43430 -0.01800
H 	H 	0.43470 0.84320 0.42350 0.05400
C 	C 	0.51370 0.62590 0.48130 0.29300
C 	C 	0.50660 0.86070 0.49240 0.31600
C 	C 	0.63760 0.00910 0.49250 0.00700
H 	H 	0.63790 0.98680 0.51910 0.05600
C 	C 	0.69020 0.02540 0.47460 -0.10300
H 	H 	0.72740 0.01340 0.48840 0.07100
C 	C 	0.69360 0.06150 0.43420 0.07700
C 	C 	0.63160 0.07980 0.41630 -0.14300
H 	H 	0.62950 0.10430 0.39070 0.08700
C 	C 	0.58060 0.06250 0.43560 0.08800
H 	H 	0.54230 0.07610 0.42420 -0.00400
C 	C 	0.75170 0.08150 0.41370 -0.04200
C 	C 	0.81030 0.05830 0.42760 0.02000
H 	H 	0.81080 0.02650 0.44880 0.04200
C 	C 	0.86530 0.07920 0.41220 -0.11100
C 	C 	0.86530 0.12080 0.37570 0.05500
H 	H 	0.90330 0.13340 0.36330 0.04800
C 	C 	0.80950 0.14300 0.35800 -0.12500
C 	C 	0.75330 0.12270 0.37530 0.02000
H 	H 	0.71580 0.13560 0.36230 0.04300
C 	C 	0.92410 0.06170 0.43030 0.32600
C 	C 	0.80800 0.17820 0.31930 0.35500
N 	N 	0.74450 0.19320 0.19820 -0.22000
N 	N 	0.58070 0.02410 0.47290 -0.21200
O 	O 	0.48560 0.57830 0.46580 -0.34800
O 	O 	0.56690 0.62510 0.50080 -0.23500
O 	O 	0.54590 0.85920 0.52340 -0.25200
O 	O 	0.48330 0.91310 0.47970 -0.36600
O 	O 	0.92720 0.02270 0.46310 -0.34800
O 	O 	0.97720 0.07600 0.41440 -0.23900
O 	O 	0.85610 0.19270 0.29710 -0.27600
O 	O 	0.75620 0.19540 0.30260 -0.37900
Cu	Cu	0.25000 0.75000 0.24840 0.90800
Cu	Cu	0.25000 0.75000 0.74840 0.90800
Cu	Cu	0.75000 0.25000 0.75160 0.90800
Cu	Cu	0.75000 0.25000 0.25160 0.90800
Cu	Cu	-0.00000 0.00000 -0.00000 0.85900
Cu	Cu	0.50000 0.50000 -0.00000 0.88900
Cu	Cu	0.00000 0.50000 0.50000 0.88600
Cu	Cu	0.50000 0.00000 0.50000 0.88400
Cu	Cu	-0.00000 0.50000 -0.00000 0.91800
Cu	Cu	0.50000 0.00000 -0.00000 0.91600
Cu	Cu	0.50000 0.50000 0.50000 0.94300
Cu	Cu	0.00000 0.00000 0.50000 0.91100
