data_crystal

_cell_length_a 12.63580
_cell_length_b 15.28970
_cell_length_c 16.41830
_cell_angle_alpha 90.00000
_cell_angle_beta  90.00000
_cell_angle_gamma 90.00000

_symmetry_space_group_name_	'P 1'
_symmetry_space_group_name_H-M	'P 1'

loop_
_symmetry_equiv_pos_as_xyz
  x,y,z

loop_
_atom_site_label
_atom_site_type_symbol
_atom_site_fract_x
_atom_site_fract_y
_atom_site_fract_z
_atom_site_charge
Mn	Mn	0.99209 0.91074 0.60135 1.30600
Mn	Mn	0.00791 0.08926 0.39865 1.30600
Mn	Mn	0.50791 0.41074 0.60135 1.30800
Mn	Mn	0.50791 0.08926 0.10135 1.30800
Mn	Mn	0.49209 0.58926 0.39865 1.30800
Mn	Mn	0.00791 0.41074 0.89865 1.30800
Mn	Mn	0.99209 0.58926 0.10135 1.30700
Mn	Mn	0.49209 0.91074 0.89865 1.30700
H 	H 	0.74650 0.20140 0.55260 0.04100
H 	H 	0.52290 0.13990 0.72350 0.04900
H 	H 	0.24650 0.29860 0.44740 0.04200
H 	H 	0.74650 0.02810 0.16400 0.02600
H 	H 	0.75350 0.79860 0.05260 0.04200
H 	H 	0.74650 0.29860 0.05260 0.04200
H 	H 	0.02290 0.36010 0.27650 0.05000
H 	H 	0.25350 0.97190 0.83600 0.02600
H 	H 	0.97710 0.86010 0.22350 0.04700
H 	H 	0.74650 0.47190 0.66400 0.02400
H 	H 	0.25350 0.52810 0.33600 0.02400
H 	H 	0.25350 0.70140 0.94740 0.04200
H 	H 	0.02290 0.13990 0.77650 0.04700
H 	H 	0.47710 0.86010 0.27650 0.04900
H 	H 	0.24650 0.47190 0.83600 0.02400
H 	H 	0.25350 0.79860 0.44740 0.04100
H 	H 	0.52290 0.36010 0.22350 0.04900
H 	H 	0.97710 0.63990 0.72350 0.05000
H 	H 	0.24650 0.20140 0.94740 0.04200
H 	H 	0.47710 0.63990 0.77650 0.04900
H 	H 	0.24650 0.02810 0.33600 0.01600
H 	H 	0.75350 0.70140 0.55260 0.04200
H 	H 	0.75350 0.52810 0.16400 0.02400
H 	H 	0.75350 0.97190 0.66400 0.01600
C 	C 	0.36920 0.95210 0.29590 -0.11800
C 	C 	0.85810 0.06080 0.54160 0.46000
C 	C 	0.08450 0.37570 0.30620 0.06800
C 	C 	0.72090 0.02730 0.65630 0.10100
C 	C 	0.71910 0.16010 0.59030 0.09900
C 	C 	0.23560 0.58390 0.90160 -0.15800
C 	C 	0.41550 0.87570 0.30620 0.07100
C 	C 	0.14190 0.56080 0.95840 0.44900
C 	C 	0.73560 0.91610 0.09840 -0.15800
C 	C 	0.58450 0.37570 0.19380 0.06900
C 	C 	0.21910 0.16010 0.90970 0.09300
C 	C 	0.08450 0.12430 0.80620 0.06900
C 	C 	0.91740 0.76490 0.62860 0.31300
C 	C 	0.37020 0.81890 0.36260 -0.12000
C 	C 	0.64190 0.56080 0.54160 0.44900
C 	C 	0.26440 0.41610 0.40160 -0.15700
C 	C 	0.91590 0.00970 0.27070 0.35400
C 	C 	0.28090 0.66010 0.90970 0.09400
C 	C 	0.87020 0.68110 0.63740 -0.11500
C 	C 	0.27910 0.52730 0.84370 0.08900
C 	C 	0.08410 0.50970 0.22930 0.35300
C 	C 	0.78090 0.83990 0.09030 0.09300
C 	C 	0.41550 0.62430 0.80620 0.06900
C 	C 	0.58260 0.23510 0.12860 0.31900
C 	C 	0.28090 0.83990 0.40970 0.09900
C 	C 	0.08260 0.23510 0.37140 0.31300
C 	C 	0.91590 0.49030 0.77070 0.35300
C 	C 	0.77910 0.52730 0.65630 0.08800
C 	C 	0.58260 0.26490 0.62860 0.32000
C 	C 	0.41740 0.73510 0.37140 0.32000
C 	C 	0.58410 0.99030 0.77070 0.34800
C 	C 	0.78090 0.66010 0.59030 0.09300
C 	C 	0.64190 0.93920 0.04160 0.45000
C 	C 	0.87020 0.81890 0.13740 -0.11600
C 	C 	0.91740 0.73510 0.12860 0.31300
C 	C 	0.13080 0.45210 0.29590 -0.11700
C 	C 	0.58410 0.50970 0.27070 0.35300
C 	C 	0.76440 0.41610 0.09840 -0.15800
C 	C 	0.63080 0.45210 0.20410 -0.11700
C 	C 	0.12980 0.18110 0.86260 -0.11600
C 	C 	0.35810 0.43920 0.45840 0.44900
C 	C 	0.86920 0.54790 0.70410 -0.11700
C 	C 	0.23560 0.91610 0.40160 -0.16500
C 	C 	0.72090 0.47270 0.15630 0.08900
C 	C 	0.85810 0.43920 0.04160 0.44900
C 	C 	0.91550 0.87570 0.19380 0.06900
C 	C 	0.08410 0.99030 0.72930 0.35400
C 	C 	0.41740 0.76490 0.87140 0.31900
C 	C 	0.12980 0.31890 0.36260 -0.11500
C 	C 	0.27910 0.97270 0.34370 0.10100
C 	C 	0.22090 0.02730 0.84370 0.08600
C 	C 	0.13080 0.04790 0.79590 -0.12100
C 	C 	0.21910 0.33990 0.40970 0.09300
C 	C 	0.71910 0.33990 0.09030 0.09400
C 	C 	0.76440 0.08390 0.59840 -0.16500
C 	C 	0.37020 0.68110 0.86260 -0.11700
C 	C 	0.58450 0.12430 0.69380 0.07100
C 	C 	0.08260 0.26490 0.87140 0.31300
C 	C 	0.14190 0.93920 0.45840 0.46000
C 	C 	0.22090 0.47270 0.34370 0.08800
C 	C 	0.35810 0.06080 0.95840 0.45000
C 	C 	0.36920 0.54790 0.79590 -0.11700
C 	C 	0.86920 0.95210 0.20410 -0.12100
C 	C 	0.91550 0.62430 0.69380 0.06800
C 	C 	0.73560 0.58390 0.59840 -0.15700
C 	C 	0.41590 0.00970 0.22930 0.34800
C 	C 	0.62980 0.31890 0.13740 -0.11700
C 	C 	0.26440 0.08390 0.90160 -0.15800
C 	C 	0.41590 0.49030 0.72930 0.35300
C 	C 	0.62980 0.18110 0.63740 -0.12000
C 	C 	0.77910 0.97270 0.15630 0.08600
C 	C 	0.63080 0.04790 0.70410 -0.11800
O 	O 	0.13250 0.18130 0.41150 -0.38700
O 	O 	0.99070 0.49980 0.20520 -0.40100
O 	O 	0.86750 0.81870 0.58850 -0.38700
O 	O 	0.49070 0.49980 0.29480 -0.40000
O 	O 	0.11830 0.01320 0.46700 -0.49200
O 	O 	0.63960 0.93610 0.80360 -0.34500
O 	O 	0.49330 0.22070 0.16190 -0.35500
O 	O 	0.61830 0.01320 0.03300 -0.48500
O 	O 	0.13960 0.56390 0.19640 -0.34400
O 	O 	0.88170 0.98680 0.53300 -0.49200
O 	O 	0.13960 0.93610 0.69640 -0.34400
O 	O 	0.11830 0.48680 0.96700 -0.48400
O 	O 	0.38170 0.98680 0.96700 -0.48500
O 	O 	0.86750 0.68130 0.08850 -0.38600
O 	O 	0.90610 0.11880 0.50390 -0.43300
O 	O 	0.59390 0.88120 0.00390 -0.43200
O 	O 	0.13250 0.31870 0.91150 -0.38600
O 	O 	0.88170 0.51320 0.03300 -0.48400
O 	O 	0.09390 0.88120 0.49610 -0.43300
O 	O 	0.99330 0.22070 0.33810 -0.35000
O 	O 	0.63250 0.18130 0.08850 -0.38800
O 	O 	0.36040 0.06390 0.19640 -0.34500
O 	O 	0.50670 0.72070 0.33810 -0.35500
O 	O 	0.99330 0.27930 0.83810 -0.34800
O 	O 	0.00930 0.99980 0.29480 -0.39400
O 	O 	0.50670 0.77930 0.83810 -0.35500
O 	O 	0.49330 0.27930 0.66190 -0.35500
O 	O 	0.36750 0.81870 0.91150 -0.38800
O 	O 	0.09390 0.61880 0.99610 -0.43300
O 	O 	0.63250 0.31870 0.58850 -0.38800
O 	O 	0.40610 0.38120 0.49610 -0.43300
O 	O 	0.40610 0.11880 0.99610 -0.43200
O 	O 	0.38170 0.51320 0.46700 -0.48300
O 	O 	0.49070 0.00020 0.79480 -0.39800
O 	O 	0.59390 0.61880 0.50390 -0.43300
O 	O 	0.86040 0.06390 0.30360 -0.34400
O 	O 	0.50930 0.50020 0.70520 -0.40000
O 	O 	0.61830 0.48680 0.53300 -0.48300
O 	O 	0.36750 0.68130 0.41150 -0.38800
O 	O 	0.86040 0.43610 0.80360 -0.34400
O 	O 	0.00670 0.72070 0.16190 -0.34800
O 	O 	0.50930 0.99980 0.20520 -0.39800
O 	O 	0.99070 0.00020 0.70520 -0.39400
O 	O 	0.90610 0.38120 0.00390 -0.43300
O 	O 	0.00930 0.50020 0.79480 -0.40100
O 	O 	0.00670 0.77930 0.66190 -0.35000
O 	O 	0.36040 0.43610 0.69640 -0.34500
O 	O 	0.63960 0.56390 0.30360 -0.34500
