data_crystal

_cell_length_a 6.29850
_cell_length_b 14.35200
_cell_length_c 14.35200
_cell_angle_alpha 90.00000
_cell_angle_beta  90.00000
_cell_angle_gamma 90.00000

_symmetry_space_group_name_	'P 1'
_symmetry_space_group_name_H-M	'P 1'

loop_
_symmetry_equiv_pos_as_xyz
  x,y,z

loop_
_atom_site_label
_atom_site_type_symbol
_atom_site_fract_x
_atom_site_fract_y
_atom_site_fract_z
_atom_site_charge
Co	Co	0.50000 0.00000 -0.00000 1.05400
Co	Co	0.00000 0.50000 0.50000 1.08500
H 	H 	0.36690 0.34270 0.46630 0.02100
H 	H 	0.83470 0.30640 0.96380 0.15300
H 	H 	0.66200 0.79420 0.41560 0.12700
H 	H 	0.83470 0.69360 0.03620 0.10900
H 	H 	0.98780 0.71220 0.84810 0.08300
H 	H 	0.63310 0.46630 0.65730 0.02400
H 	H 	0.41940 0.04190 0.78630 -0.09900
H 	H 	0.28890 0.80030 0.38150 0.05400
H 	H 	0.07980 0.50530 0.28580 -0.04400
H 	H 	0.33800 0.41560 0.20580 0.10800
H 	H 	0.16530 0.96380 0.69360 0.12600
H 	H 	0.58060 0.21370 0.04190 -0.11300
H 	H 	0.36690 0.65730 0.53370 0.02300
H 	H 	0.80380 0.09020 0.33140 0.05400
H 	H 	0.16530 0.03620 0.30640 0.08100
H 	H 	0.52950 0.18350 0.38130 0.02400
H 	H 	0.19620 0.33140 0.90980 0.02100
H 	H 	0.47050 0.61870 0.18350 0.05400
H 	H 	0.71110 0.38150 0.19970 0.02600
H 	H 	0.19620 0.66860 0.09020 -0.00100
H 	H 	0.98780 0.28780 0.15190 0.06300
H 	H 	0.85900 0.06240 0.84980 0.03200
H 	H 	0.63310 0.53370 0.34270 0.02300
H 	H 	0.41940 0.95810 0.21370 0.05200
H 	H 	0.71110 0.61850 0.80030 0.03400
H 	H 	0.80380 0.90980 0.66860 0.07800
H 	H 	0.33800 0.58440 0.79420 0.12000
H 	H 	0.58060 0.78630 0.95810 0.04400
H 	H 	0.14100 0.84980 0.93760 0.02200
H 	H 	0.28890 0.19970 0.61850 0.04400
H 	H 	0.52950 0.81650 0.61870 0.03000
H 	H 	0.14100 0.15020 0.06240 -0.02300
H 	H 	0.85900 0.93760 0.15020 0.06200
H 	H 	0.01220 0.84810 0.28780 0.01800
H 	H 	0.92020 0.71420 0.50530 -0.01900
H 	H 	0.47050 0.38130 0.81650 0.06200
H 	H 	0.07980 0.49470 0.71420 -0.04100
H 	H 	0.66200 0.20580 0.58440 0.11600
H 	H 	0.92020 0.28580 0.49470 -0.02200
H 	H 	0.01220 0.15190 0.71220 -0.00000
C 	C 	0.37990 0.33470 0.79540 -0.09200
C 	C 	0.66820 0.80540 0.00670 0.00900
C 	C 	0.17840 0.88750 0.88750 -0.00800
C 	C 	0.82970 0.31210 0.53870 0.11700
C 	C 	0.78520 0.14860 0.30460 -0.10000
C 	C 	0.82160 0.88750 0.11250 -0.06900
C 	C 	0.67140 0.58930 0.37130 -0.02700
C 	C 	0.62010 0.79540 0.66530 -0.00800
C 	C 	0.90740 0.80170 0.11790 0.12600
C 	C 	0.21480 0.69540 0.14860 0.00200
C 	C 	0.89450 0.73360 0.80270 -0.09700
C 	C 	0.62010 0.20460 0.33470 -0.01600
C 	C 	0.58520 0.32640 0.64710 0.04500
C 	C 	0.32860 0.37130 0.41070 -0.04500
C 	C 	0.90740 0.19830 0.88210 0.13200
C 	C 	0.07670 0.76460 0.17760 -0.09400
C 	C 	0.78520 0.85140 0.69540 -0.10300
C 	C 	0.82160 0.11250 0.88750 -0.06400
C 	C 	0.41480 0.64710 0.67360 0.06500
C 	C 	0.27090 0.77360 0.32300 -0.09500
C 	C 	0.09260 0.88210 0.80170 0.00000
C 	C 	0.09260 0.11790 0.19830 -0.02300
C 	C 	0.17840 0.11250 0.11250 -0.01500
C 	C 	0.58900 0.29250 0.29550 -0.03400
C 	C 	0.07670 0.23540 0.82240 -0.09400
C 	C 	0.92330 0.17760 0.23540 0.06500
C 	C 	0.89450 0.26640 0.19730 -0.09500
C 	C 	0.33180 0.00670 0.19460 -0.01600
C 	C 	0.58900 0.70750 0.70450 -0.03700
C 	C 	0.32860 0.62870 0.58930 -0.04600
C 	C 	0.58520 0.67360 0.35290 0.04700
C 	C 	0.10550 0.80270 0.26640 0.00200
C 	C 	0.72910 0.67700 0.77360 -0.01000
C 	C 	0.37990 0.66530 0.20460 -0.09500
C 	C 	0.41480 0.35290 0.32640 0.06100
C 	C 	0.92330 0.82240 0.76460 0.07700
C 	C 	0.67140 0.41070 0.62870 -0.02600
C 	C 	0.21480 0.30460 0.85140 0.00200
C 	C 	0.10550 0.19730 0.73360 -0.00100
C 	C 	0.66820 0.19460 0.99330 0.24000
C 	C 	0.17030 0.53870 0.68790 0.10800
C 	C 	0.41100 0.29550 0.70750 0.02000
C 	C 	0.17030 0.46130 0.31210 0.10500
C 	C 	0.27090 0.22640 0.67700 -0.09800
C 	C 	0.41100 0.70450 0.29250 0.02100
C 	C 	0.33180 0.99330 0.80540 0.22100
C 	C 	0.72910 0.32300 0.22640 -0.01900
C 	C 	0.82970 0.68790 0.46130 0.12000
N 	N 	0.33050 0.04271 0.10948 -0.27200
N 	N 	0.19070 0.95060 0.75102 -0.22500
N 	N 	0.33050 0.95729 0.89052 -0.26200
N 	N 	0.82540 0.40141 0.56058 -0.25900
N 	N 	0.82540 0.59859 0.43942 -0.25900
N 	N 	0.31330 0.58833 0.73542 -0.21700
N 	N 	0.31330 0.41167 0.26458 -0.21400
N 	N 	0.68670 0.73542 0.41167 -0.21100
N 	N 	0.80930 0.75102 0.04940 -0.20500
N 	N 	0.17460 0.43942 0.40141 -0.27500
N 	N 	0.66950 0.89052 0.04271 -0.23900
N 	N 	0.68670 0.26458 0.58833 -0.20900
N 	N 	0.17460 0.56058 0.59859 -0.27500
N 	N 	0.66950 0.10948 0.95729 -0.27300
N 	N 	0.19070 0.04940 0.24898 -0.17800
N 	N 	0.80930 0.24898 0.95060 -0.25000
