data_crystal

_cell_length_a 12.69910
_cell_length_b 15.57110
_cell_length_c 16.33130
_cell_angle_alpha 90.00000
_cell_angle_beta  90.00000
_cell_angle_gamma 90.00000

_symmetry_space_group_name_	'P 1'
_symmetry_space_group_name_H-M	'P 1'

loop_
_symmetry_equiv_pos_as_xyz
  x,y,z

loop_
_atom_site_label
_atom_site_type_symbol
_atom_site_fract_x
_atom_site_fract_y
_atom_site_fract_z
_atom_site_charge
Mn	Mn	0.60045 0.49529 0.08879 1.28800
Mn	Mn	0.60045 0.00471 0.58879 1.28800
Mn	Mn	0.89955 0.99529 0.08879 1.28500
Mn	Mn	0.10045 0.00471 0.91121 1.28500
Mn	Mn	0.39955 0.50471 0.91121 1.28700
Mn	Mn	0.10045 0.49529 0.41121 1.28700
Mn	Mn	0.89955 0.50471 0.58879 1.28700
Mn	Mn	0.39955 0.99529 0.41121 1.28700
H 	H 	0.77760 0.96780 0.36690 0.09000
H 	H 	0.66860 0.25650 0.52500 0.07300
H 	H 	0.33140 0.75650 0.97500 0.07400
H 	H 	0.27760 0.53220 0.63310 0.09000
H 	H 	0.44850 0.75780 0.20150 0.07600
H 	H 	0.22240 0.46780 0.13310 0.09000
H 	H 	0.72240 0.03220 0.86690 0.09000
H 	H 	0.44850 0.74220 0.70150 0.07700
H 	H 	0.77760 0.53220 0.86690 0.09000
H 	H 	0.22240 0.03220 0.63310 0.09000
H 	H 	0.16860 0.25650 0.97500 0.06600
H 	H 	0.05150 0.24220 0.70150 0.07600
H 	H 	0.05150 0.25780 0.20150 0.07600
H 	H 	0.16860 0.24350 0.47500 0.07300
H 	H 	0.66860 0.24350 0.02500 0.07400
H 	H 	0.33140 0.74350 0.47500 0.07300
H 	H 	0.94850 0.74220 0.79850 0.07600
H 	H 	0.27760 0.96780 0.13310 0.09000
H 	H 	0.72240 0.46780 0.36690 0.09000
H 	H 	0.55150 0.25780 0.29850 0.07700
H 	H 	0.94850 0.75780 0.29850 0.07600
H 	H 	0.83140 0.74350 0.02500 0.06600
H 	H 	0.83140 0.75650 0.52500 0.07300
H 	H 	0.55150 0.24220 0.79850 0.07600
C 	C 	0.69340 0.08620 0.87590 -0.06300
C 	C 	0.95600 0.64890 0.43870 0.31800
C 	C 	0.72660 0.58430 0.01270 0.18400
C 	C 	0.77340 0.41570 0.51270 0.18800
C 	C 	0.20400 0.13380 0.54760 0.00700
C 	C 	0.12860 0.41980 0.26900 0.20900
C 	C 	0.87140 0.58020 0.73100 0.20900
C 	C 	0.86360 0.62960 0.81950 0.00900
C 	C 	0.09520 0.22980 0.08220 -0.06300
C 	C 	0.41000 0.71710 0.65940 -0.02100
C 	C 	0.70400 0.36620 0.45240 0.00700
C 	C 	0.54400 0.14890 0.43870 0.31800
C 	C 	0.84350 0.77880 0.47300 -0.01700
C 	C 	0.13640 0.12960 0.68050 0.01000
C 	C 	0.12860 0.08020 0.76900 0.20500
C 	C 	0.45600 0.64890 0.06130 0.31600
C 	C 	0.54400 0.35110 0.93870 0.31600
C 	C 	0.04400 0.35110 0.56130 0.31800
C 	C 	0.86360 0.87040 0.31950 0.01000
C 	C 	0.15650 0.22120 0.52700 -0.01700
C 	C 	0.70400 0.13380 0.95240 0.00500
C 	C 	0.30660 0.91380 0.12410 -0.06300
C 	C 	0.40480 0.72980 0.08220 -0.05700
C 	C 	0.15650 0.27880 0.02700 -0.00700
C 	C 	0.37140 0.91980 0.26900 0.20700
C 	C 	0.34350 0.77880 0.02700 -0.01900
C 	C 	0.59520 0.27020 0.91780 -0.05700
C 	C 	0.20400 0.36620 0.04760 0.00700
C 	C 	0.59000 0.21710 0.84060 -0.02100
C 	C 	0.69340 0.41380 0.37590 -0.06400
C 	C 	0.22660 0.91570 0.98730 0.19300
C 	C 	0.36360 0.87040 0.18050 0.01000
C 	C 	0.87140 0.91980 0.23100 0.20500
C 	C 	0.77340 0.08430 0.01270 0.19300
C 	C 	0.63640 0.12960 0.81950 0.01000
C 	C 	0.19340 0.41380 0.12410 -0.06300
C 	C 	0.91000 0.78290 0.34060 -0.02100
C 	C 	0.37140 0.58020 0.76900 0.20900
C 	C 	0.34350 0.72120 0.52700 -0.01700
C 	C 	0.19340 0.08620 0.62410 -0.06400
C 	C 	0.29600 0.63380 0.54760 0.00700
C 	C 	0.91000 0.71710 0.84060 -0.01900
C 	C 	0.84350 0.72120 0.97300 -0.00700
C 	C 	0.79600 0.86620 0.45240 0.00700
C 	C 	0.09520 0.27020 0.58220 -0.05800
C 	C 	0.65650 0.22120 0.97300 -0.01900
C 	C 	0.40480 0.77020 0.58220 -0.05800
C 	C 	0.36360 0.62960 0.68050 0.01000
C 	C 	0.13640 0.37040 0.18050 0.00900
C 	C 	0.29600 0.86620 0.04760 0.00500
C 	C 	0.80660 0.58620 0.87590 -0.06300
C 	C 	0.45600 0.85110 0.56130 0.31800
C 	C 	0.59520 0.22980 0.41780 -0.05800
C 	C 	0.41000 0.78290 0.15940 -0.02100
C 	C 	0.63640 0.37040 0.31950 0.01000
C 	C 	0.95600 0.85110 0.93870 0.32700
C 	C 	0.79600 0.63380 0.95240 0.00700
C 	C 	0.80660 0.91380 0.37590 -0.06400
C 	C 	0.09000 0.28290 0.15940 -0.01900
C 	C 	0.22660 0.58430 0.48730 0.18800
C 	C 	0.62860 0.41980 0.23100 0.20900
C 	C 	0.65650 0.27880 0.47300 -0.01700
C 	C 	0.04400 0.14890 0.06130 0.32700
C 	C 	0.62860 0.08020 0.73100 0.20700
C 	C 	0.27340 0.08430 0.48730 0.18800
C 	C 	0.72660 0.91570 0.51270 0.18800
C 	C 	0.59000 0.28290 0.34060 -0.02100
C 	C 	0.90480 0.72980 0.41780 -0.05800
C 	C 	0.90480 0.77020 0.91780 -0.06300
C 	C 	0.09000 0.21710 0.65940 -0.02100
C 	C 	0.30660 0.58620 0.62410 -0.06400
C 	C 	0.27340 0.41570 0.98730 0.18400
O 	O 	0.20190 0.99850 0.00130 -0.41000
O 	O 	0.50150 0.40090 0.88270 -0.39300
O 	O 	0.08660 0.37280 0.31730 -0.31900
O 	O 	0.79810 0.49850 0.49870 -0.40900
O 	O 	0.29810 0.49850 0.00130 -0.40700
O 	O 	0.20190 0.50150 0.50130 -0.40900
O 	O 	0.41340 0.87280 0.31730 -0.31900
O 	O 	0.34010 0.49410 0.77900 -0.31700
O 	O 	0.91340 0.87280 0.18270 -0.31900
O 	O 	0.84010 0.49410 0.72100 -0.31700
O 	O 	0.29970 0.35840 0.93460 -0.26500
O 	O 	0.00150 0.09910 0.11730 -0.39200
O 	O 	0.65990 0.99410 0.72100 -0.31500
O 	O 	0.96430 0.88270 0.01340 -0.40400
O 	O 	0.65990 0.50590 0.22100 -0.31700
O 	O 	0.41340 0.62720 0.81730 -0.31900
O 	O 	0.20030 0.64160 0.43460 -0.26400
O 	O 	0.00150 0.40090 0.61730 -0.39400
O 	O 	0.50150 0.09910 0.38270 -0.39200
O 	O 	0.49850 0.90090 0.61730 -0.39200
O 	O 	0.91340 0.62720 0.68270 -0.31900
O 	O 	0.53570 0.38270 0.01340 -0.39500
O 	O 	0.15990 0.50590 0.27900 -0.31700
O 	O 	0.99850 0.59910 0.38270 -0.39400
O 	O 	0.70190 0.99850 0.49870 -0.40900
O 	O 	0.58660 0.12720 0.68270 -0.31900
O 	O 	0.84010 0.00590 0.22100 -0.31200
O 	O 	0.46430 0.61730 0.98660 -0.39500
O 	O 	0.08660 0.12720 0.81730 -0.31900
O 	O 	0.20030 0.85840 0.93460 -0.26500
O 	O 	0.70030 0.85840 0.56540 -0.26500
O 	O 	0.96430 0.61730 0.51340 -0.39600
O 	O 	0.34010 0.00590 0.27900 -0.31500
O 	O 	0.58660 0.37280 0.18270 -0.31900
O 	O 	0.99850 0.90090 0.88270 -0.39200
O 	O 	0.29970 0.14160 0.43460 -0.26500
O 	O 	0.03570 0.11730 0.98660 -0.40400
O 	O 	0.29810 0.00150 0.50130 -0.40900
O 	O 	0.79970 0.35840 0.56540 -0.26400
O 	O 	0.15990 0.99410 0.77900 -0.31200
O 	O 	0.70030 0.64160 0.06540 -0.26500
O 	O 	0.53570 0.11730 0.51340 -0.39600
O 	O 	0.79810 0.00150 0.99870 -0.41000
O 	O 	0.70190 0.50150 0.99870 -0.40700
O 	O 	0.03570 0.38270 0.48660 -0.39600
O 	O 	0.49850 0.59910 0.11730 -0.39300
O 	O 	0.79970 0.14160 0.06540 -0.26500
O 	O 	0.46430 0.88270 0.48660 -0.39600
