data_crystal

_cell_length_a 7.86240
_cell_length_b 17.72440
_cell_length_c 19.47510
_cell_angle_alpha 90.00000
_cell_angle_beta  90.00000
_cell_angle_gamma 100.04700

_symmetry_space_group_name_	'P 1'
_symmetry_space_group_name_H-M	'P 1'

loop_
_symmetry_equiv_pos_as_xyz
  x,y,z

loop_
_atom_site_label
_atom_site_type_symbol
_atom_site_fract_x
_atom_site_fract_y
_atom_site_fract_z
_atom_site_charge
Nd	Nd	0.24534 0.98529 0.96834 1.80900
Nd	Nd	0.75466 0.01471 0.03166 1.80900
H 	H 	0.60350 0.22090 0.04330 0.12100
H 	H 	0.48640 0.31000 0.21100 0.02500
H 	H 	0.71620 0.04520 0.76510 0.00300
H 	H 	0.51360 0.69000 0.78900 0.02500
H 	H 	0.65830 0.42380 0.24530 0.02000
H 	H 	0.77400 0.51130 0.16390 0.00600
H 	H 	0.76550 0.02590 0.64950 0.02500
H 	H 	0.98120 0.78250 0.26790 0.01300
H 	H 	0.95610 0.82120 0.46810 0.00600
H 	H 	0.55320 0.37960 0.01750 0.02800
H 	H 	0.04390 0.17880 0.53190 0.00600
H 	H 	0.44680 0.62040 0.98250 0.02800
H 	H 	0.22600 0.48870 0.83610 0.00600
H 	H 	0.96110 0.88870 0.17830 0.12000
H 	H 	0.87900 0.74320 0.37530 0.01900
H 	H 	0.28380 0.95480 0.23490 0.00300
H 	H 	0.23450 0.97410 0.35050 0.02500
H 	H 	0.55160 0.18670 0.11590 0.11600
H 	H 	0.65970 0.73060 0.96020 0.01700
H 	H 	0.99210 0.02610 0.79700 0.12000
H 	H 	0.03890 0.11130 0.82170 0.12000
H 	H 	0.24320 0.87030 0.20740 0.00600
H 	H 	0.39650 0.77910 0.95670 0.12100
H 	H 	0.34170 0.57620 0.75470 0.02000
H 	H 	0.30270 0.24020 0.11530 0.01200
H 	H 	0.00790 0.97390 0.20300 0.12000
H 	H 	0.01880 0.21750 0.73210 0.01300
H 	H 	0.44840 0.81330 0.88410 0.11600
H 	H 	0.69730 0.75980 0.88470 0.01200
H 	H 	0.75680 0.12970 0.79260 0.00600
H 	H 	0.12100 0.25680 0.62470 0.01900
H 	H 	0.34030 0.26940 0.03980 0.01700
C 	C 	0.36380 0.58630 0.80110 -0.07900
C 	C 	0.70520 0.46570 0.15000 0.04100
C 	C 	0.29480 0.53430 0.85000 0.04100
C 	C 	0.05450 0.93210 0.18219 -0.41200
C 	C 	0.50000 0.66770 0.89010 -0.03000
C 	C 	0.01220 0.81370 0.30590 -0.01000
C 	C 	0.94550 0.06790 0.81781 -0.41200
C 	C 	0.88000 0.11630 0.70200 -0.04500
C 	C 	0.99820 0.83700 0.42490 0.04200
C 	C 	0.60620 0.74080 0.91710 0.03900
C 	C 	0.58410 0.87340 0.96094 0.47500
C 	C 	0.41590 0.12660 0.03906 0.47500
C 	C 	0.95130 0.79030 0.36960 -0.08900
C 	C 	0.88120 0.04420 0.88821 0.47700
C 	C 	0.63620 0.41370 0.19890 -0.07900
C 	C 	0.11880 0.95580 0.11179 0.47700
C 	C 	0.39380 0.25920 0.08290 0.03900
C 	C 	0.50620 0.19920 0.07190 -0.40800
C 	C 	0.57490 0.38790 0.06400 0.01900
C 	C 	0.53320 0.34610 0.17840 -0.02600
C 	C 	0.80710 0.08930 0.77120 0.05300
C 	C 	0.16180 0.92700 0.35530 0.02600
C 	C 	0.42510 0.61210 0.93600 0.01900
C 	C 	0.98780 0.18630 0.69410 -0.01000
C 	C 	0.46680 0.65390 0.82160 -0.02600
C 	C 	0.04870 0.20970 0.63040 -0.08900
C 	C 	0.12000 0.88370 0.29800 -0.04500
C 	C 	0.50000 0.33230 0.10990 -0.03000
C 	C 	0.00180 0.16300 0.57510 0.04200
C 	C 	0.19290 0.91070 0.22880 0.05300
C 	C 	0.49380 0.80080 0.92810 -0.40800
C 	C 	0.83820 0.07300 0.64470 0.02600
N 	N 	0.67730 0.45340 0.08319 -0.11300
N 	N 	0.10360 0.90540 0.41868 -0.11400
N 	N 	0.89640 0.09460 0.58132 -0.11400
N 	N 	0.32270 0.54660 0.91681 -0.11300
O 	O 	0.98290 0.01909 0.93062 -0.65500
O 	O 	0.73160 0.04918 0.90710 -0.49700
O 	O 	0.73690 0.88272 0.98034 -0.50000
O 	O 	0.26840 0.95082 0.09290 -0.49700
O 	O 	0.01710 0.98091 0.06938 -0.65500
O 	O 	0.26310 0.11728 0.01966 -0.50000
O 	O 	0.49560 0.92708 0.97094 -0.66000
O 	O 	0.50440 0.07292 0.02906 -0.66000
Nd	Nd	0.24534 0.48529 0.53166 1.83200
Nd	Nd	0.75466 0.51471 0.46834 1.83200
H 	H 	0.22600 0.98870 0.66390 0.00200
H 	H 	0.87900 0.24320 0.12470 0.02000
H 	H 	0.99210 0.52610 0.70300 0.12000
H 	H 	0.23450 0.47410 0.14950 0.02400
H 	H 	0.04390 0.67880 0.96810 0.00500
H 	H 	0.30270 0.74020 0.38470 0.01100
H 	H 	0.69730 0.25980 0.61530 0.01100
H 	H 	0.98120 0.28250 0.23210 0.00900
H 	H 	0.55160 0.68670 0.38410 0.11700
H 	H 	0.00790 0.47390 0.29700 0.12000
H 	H 	0.44680 0.12040 0.51750 0.02800
H 	H 	0.76550 0.52590 0.85050 0.02400
H 	H 	0.39650 0.27910 0.54330 0.12200
H 	H 	0.12100 0.75680 0.87530 0.02000
H 	H 	0.65830 0.92380 0.25470 0.02400
H 	H 	0.71620 0.54520 0.73490 0.00100
H 	H 	0.77400 0.01130 0.33610 0.00200
H 	H 	0.01880 0.71750 0.76790 0.00900
H 	H 	0.24320 0.37030 0.29260 0.00300
H 	H 	0.60350 0.72090 0.45670 0.12200
H 	H 	0.51360 0.19000 0.71100 0.02400
H 	H 	0.34030 0.76940 0.46020 0.01500
H 	H 	0.55320 0.87960 0.48250 0.02800
H 	H 	0.34170 0.07620 0.74530 0.02400
H 	H 	0.75680 0.62970 0.70740 0.00300
H 	H 	0.03890 0.61130 0.67830 0.12200
H 	H 	0.48640 0.81000 0.28900 0.02400
H 	H 	0.65970 0.23060 0.53980 0.01500
H 	H 	0.44840 0.31330 0.61590 0.11700
H 	H 	0.28380 0.45480 0.26510 0.00100
H 	H 	0.96110 0.38870 0.32170 0.12200
H 	H 	0.95610 0.32120 0.03190 0.00500
C 	C 	0.57490 0.88790 0.43600 0.02100
C 	C 	0.36380 0.08630 0.69890 -0.08400
C 	C 	0.41590 0.62660 0.46094 0.47700
C 	C 	0.50620 0.69920 0.42810 -0.41000
C 	C 	0.11880 0.45580 0.38821 0.48100
C 	C 	0.01220 0.31370 0.19410 -0.00200
C 	C 	0.63620 0.91370 0.30110 -0.08400
C 	C 	0.83820 0.57300 0.85530 0.03000
C 	C 	0.19290 0.41070 0.27120 0.05900
C 	C 	0.50000 0.16770 0.60990 -0.03200
C 	C 	0.50000 0.83230 0.39010 -0.03200
C 	C 	0.12000 0.38370 0.20200 -0.05100
C 	C 	0.49380 0.30080 0.57190 -0.41000
C 	C 	0.05450 0.43210 0.31781 -0.41900
C 	C 	0.60620 0.24080 0.58290 0.04200
C 	C 	0.58410 0.37340 0.53906 0.47700
C 	C 	0.04870 0.70970 0.86960 -0.09600
C 	C 	0.88120 0.54420 0.61179 0.48100
C 	C 	0.80710 0.58930 0.72880 0.05900
C 	C 	0.94550 0.56790 0.68219 -0.41900
C 	C 	0.70520 0.96570 0.35000 0.04900
C 	C 	0.39380 0.75920 0.41710 0.04200
C 	C 	0.95130 0.29030 0.13040 -0.09600
C 	C 	0.53320 0.84610 0.32160 -0.02300
C 	C 	0.42510 0.11210 0.56400 0.02100
C 	C 	0.00180 0.66300 0.92490 0.04100
C 	C 	0.98780 0.68630 0.80590 -0.00200
C 	C 	0.99820 0.33700 0.07510 0.04100
C 	C 	0.46680 0.15390 0.67840 -0.02300
C 	C 	0.88000 0.61630 0.79800 -0.05100
C 	C 	0.29480 0.03430 0.65000 0.04900
C 	C 	0.16180 0.42700 0.14470 0.03000
N 	N 	0.89640 0.59460 0.91868 -0.11200
N 	N 	0.32270 0.04660 0.58319 -0.11500
N 	N 	0.67730 0.95340 0.41681 -0.11500
N 	N 	0.10360 0.40540 0.08132 -0.11200
O 	O 	0.26310 0.61728 0.48034 -0.50200
O 	O 	0.73690 0.38272 0.51966 -0.50200
O 	O 	0.01710 0.48091 0.43062 -0.66500
O 	O 	0.98290 0.51909 0.56938 -0.66500
O 	O 	0.73160 0.54918 0.59290 -0.50500
O 	O 	0.50440 0.57292 0.47094 -0.66300
O 	O 	0.26840 0.45082 0.40710 -0.50500
O 	O 	0.49560 0.42708 0.52906 -0.66300
