data_crystal

_cell_length_a 12.43780
_cell_length_b 14.77170
_cell_length_c 16.60970
_cell_angle_alpha 90.00000
_cell_angle_beta  90.00000
_cell_angle_gamma 90.00000

_symmetry_space_group_name_	'P 1'
_symmetry_space_group_name_H-M	'P 1'

loop_
_symmetry_equiv_pos_as_xyz
  x,y,z

loop_
_atom_site_label
_atom_site_type_symbol
_atom_site_fract_x
_atom_site_fract_y
_atom_site_fract_z
_atom_site_charge
Mn	Mn	0.60456 0.01660 0.57985 1.29100
Mn	Mn	0.39544 0.51660 0.92015 1.29100
Mn	Mn	0.39544 0.98340 0.42015 1.29100
Mn	Mn	0.10456 0.01660 0.92015 1.28900
Mn	Mn	0.89544 0.51660 0.57985 1.29100
Mn	Mn	0.60456 0.48340 0.07985 1.29100
Mn	Mn	0.89544 0.98340 0.07985 1.28800
Mn	Mn	0.10456 0.48340 0.42015 1.29000
H 	H 	0.77540 0.96890 0.34960 0.08800
H 	H 	0.66080 0.24070 0.01430 0.07800
H 	H 	0.83920 0.74070 0.01430 0.06700
H 	H 	0.72460 0.46890 0.34960 0.08900
H 	H 	0.33920 0.74070 0.48570 0.07300
H 	H 	0.16080 0.25930 0.98570 0.06700
H 	H 	0.55910 0.23470 0.28560 0.07700
H 	H 	0.44090 0.76530 0.71440 0.07700
H 	H 	0.94090 0.76530 0.78560 0.07600
H 	H 	0.16080 0.24070 0.48570 0.07300
H 	H 	0.94090 0.73470 0.28560 0.07600
H 	H 	0.66080 0.25930 0.51430 0.07300
H 	H 	0.77540 0.53110 0.84960 0.08800
H 	H 	0.22460 0.03110 0.65040 0.08800
H 	H 	0.33920 0.75930 0.98570 0.07800
H 	H 	0.05910 0.23470 0.21440 0.07600
H 	H 	0.55910 0.26530 0.78560 0.07700
H 	H 	0.22460 0.46890 0.15040 0.08800
H 	H 	0.44090 0.73470 0.21440 0.07700
H 	H 	0.27540 0.96890 0.15040 0.08900
H 	H 	0.05910 0.26530 0.71440 0.07600
H 	H 	0.27540 0.53110 0.65040 0.08900
H 	H 	0.83920 0.75930 0.51430 0.07300
H 	H 	0.72460 0.03110 0.84960 0.08900
C 	C 	0.86270 0.90220 0.21980 0.18700
C 	C 	0.70340 0.36990 0.43930 0.01000
C 	C 	0.90620 0.76790 0.32720 -0.02000
C 	C 	0.70340 0.13010 0.93930 0.01400
C 	C 	0.65320 0.28090 0.46070 -0.02100
C 	C 	0.59380 0.26790 0.32720 -0.02100
C 	C 	0.90620 0.73210 0.82720 -0.01800
C 	C 	0.59550 0.22800 0.40550 -0.04100
C 	C 	0.85760 0.64150 0.80440 0.00300
C 	C 	0.29660 0.63010 0.56070 0.01000
C 	C 	0.80430 0.58910 0.86140 -0.05300
C 	C 	0.79660 0.63010 0.93930 0.00600
C 	C 	0.86270 0.59780 0.71980 0.18700
C 	C 	0.13730 0.09780 0.78020 0.18700
C 	C 	0.14240 0.14150 0.69560 0.00400
C 	C 	0.15320 0.28090 0.03930 -0.01000
C 	C 	0.40620 0.76790 0.17280 -0.02200
C 	C 	0.34680 0.78090 0.03930 -0.02900
C 	C 	0.59550 0.27200 0.90550 -0.03900
C 	C 	0.35760 0.64150 0.69560 0.00500
C 	C 	0.69570 0.41090 0.36140 -0.05500
C 	C 	0.26890 0.42210 0.00310 0.15700
C 	C 	0.20340 0.36990 0.06070 0.00600
C 	C 	0.40620 0.73210 0.67280 -0.02100
C 	C 	0.69570 0.08910 0.86140 -0.05800
C 	C 	0.09380 0.23210 0.67280 -0.02000
C 	C 	0.84680 0.78090 0.46070 -0.02100
C 	C 	0.73110 0.92210 0.49690 0.15300
C 	C 	0.13730 0.40220 0.28020 0.18700
C 	C 	0.35760 0.85850 0.19560 0.00600
C 	C 	0.23110 0.92210 0.00310 0.14200
C 	C 	0.76890 0.07790 0.99690 0.14200
C 	C 	0.09380 0.26790 0.17280 -0.01800
C 	C 	0.46120 0.63960 0.07100 0.31000
C 	C 	0.96120 0.86040 0.92900 0.32100
C 	C 	0.19570 0.41090 0.13860 -0.05300
C 	C 	0.40450 0.77200 0.59450 -0.04100
C 	C 	0.15320 0.21910 0.53930 -0.02100
C 	C 	0.53880 0.13960 0.42900 0.31300
C 	C 	0.19570 0.08910 0.63860 -0.05500
C 	C 	0.09550 0.22800 0.09450 -0.04600
C 	C 	0.76890 0.42210 0.49690 0.15300
C 	C 	0.29660 0.86990 0.06070 0.01400
C 	C 	0.80430 0.91090 0.36140 -0.05500
C 	C 	0.14240 0.35850 0.19560 0.00300
C 	C 	0.59380 0.23210 0.82720 -0.02200
C 	C 	0.65320 0.21910 0.96070 -0.02900
C 	C 	0.73110 0.57790 0.99690 0.15700
C 	C 	0.90450 0.77200 0.90550 -0.04600
C 	C 	0.85760 0.85850 0.30440 0.00400
C 	C 	0.40450 0.72800 0.09450 -0.03900
C 	C 	0.36270 0.59780 0.78020 0.18700
C 	C 	0.96120 0.63960 0.42900 0.31300
C 	C 	0.23110 0.57790 0.50310 0.15300
C 	C 	0.20340 0.13010 0.56070 0.01000
C 	C 	0.90450 0.72800 0.40550 -0.04200
C 	C 	0.30430 0.91090 0.13860 -0.05800
C 	C 	0.09550 0.27200 0.59450 -0.04200
C 	C 	0.03880 0.13960 0.07100 0.32100
C 	C 	0.03880 0.36040 0.57100 0.31300
C 	C 	0.30430 0.58910 0.63860 -0.05500
C 	C 	0.63730 0.40220 0.21980 0.18700
C 	C 	0.53880 0.36040 0.92900 0.31000
C 	C 	0.64240 0.35850 0.30440 0.00500
C 	C 	0.63730 0.09780 0.71980 0.18600
C 	C 	0.64240 0.14150 0.80440 0.00600
C 	C 	0.84680 0.71910 0.96070 -0.01000
C 	C 	0.36270 0.90220 0.28020 0.18600
C 	C 	0.26890 0.07790 0.50310 0.15300
C 	C 	0.79660 0.86990 0.43930 0.01000
C 	C 	0.46120 0.86040 0.57100 0.31300
C 	C 	0.34680 0.71910 0.53930 -0.02100
O 	O 	0.32800 0.99030 0.29570 -0.31800
O 	O 	0.69910 0.86720 0.55320 -0.26300
O 	O 	0.67200 0.49030 0.20430 -0.31800
O 	O 	0.49910 0.58290 0.12496 -0.39200
O 	O 	0.19910 0.63280 0.44680 -0.26300
O 	O 	0.40410 0.65210 0.83250 -0.29300
O 	O 	0.70770 0.48300 0.98570 -0.37100
O 	O 	0.32800 0.50970 0.79570 -0.31800
O 	O 	0.97470 0.61960 0.50383 -0.42200
O 	O 	0.59590 0.34790 0.16750 -0.29300
O 	O 	0.70770 0.01700 0.48570 -0.36900
O 	O 	0.49910 0.91710 0.62496 -0.39100
O 	O 	0.80090 0.13280 0.05320 -0.25700
O 	O 	0.40410 0.84790 0.33250 -0.29300
O 	O 	0.47470 0.88040 0.49617 -0.42200
O 	O 	0.17200 0.00970 0.79570 -0.32000
O 	O 	0.02530 0.38040 0.49617 -0.42200
O 	O 	0.69910 0.63280 0.05320 -0.26600
O 	O 	0.79230 0.98300 0.98570 -0.36100
O 	O 	0.80090 0.36720 0.55320 -0.26300
O 	O 	0.79230 0.51700 0.48570 -0.37000
O 	O 	0.52530 0.11960 0.50383 -0.42200
O 	O 	0.50090 0.41710 0.87504 -0.39200
O 	O 	0.17200 0.49030 0.29570 -0.31800
O 	O 	0.19910 0.86720 0.94680 -0.25700
O 	O 	0.30090 0.13280 0.44680 -0.26300
O 	O 	0.29230 0.98300 0.51430 -0.36900
O 	O 	0.02530 0.11960 0.99617 -0.43000
O 	O 	0.20770 0.01700 0.01430 -0.36100
O 	O 	0.90410 0.84790 0.16750 -0.29400
O 	O 	0.00090 0.08290 0.12496 -0.39100
O 	O 	0.90410 0.65210 0.66750 -0.29300
O 	O 	0.97470 0.88040 0.00383 -0.43000
O 	O 	0.67200 0.00970 0.70430 -0.31800
O 	O 	0.30090 0.36720 0.94680 -0.26600
O 	O 	0.99910 0.58290 0.37504 -0.39300
O 	O 	0.00090 0.41710 0.62496 -0.39300
O 	O 	0.82800 0.99030 0.20430 -0.32000
O 	O 	0.99910 0.91710 0.87504 -0.39100
O 	O 	0.82800 0.50970 0.70430 -0.31800
O 	O 	0.09590 0.15210 0.83250 -0.29400
O 	O 	0.09590 0.34790 0.33250 -0.29300
O 	O 	0.20770 0.48300 0.51430 -0.37000
O 	O 	0.52530 0.38040 0.00383 -0.42000
O 	O 	0.50090 0.08290 0.37504 -0.39100
O 	O 	0.29230 0.51700 0.01430 -0.37100
O 	O 	0.59590 0.15210 0.66750 -0.29300
O 	O 	0.47470 0.61960 0.99617 -0.42000
