data_crystal

_cell_length_a 25.29130
_cell_length_b 33.50900
_cell_length_c 18.68100
_cell_angle_alpha 90.00000
_cell_angle_beta  90.00000
_cell_angle_gamma 90.00000

_symmetry_space_group_name_	'P 1'
_symmetry_space_group_name_H-M	'P 1'

loop_
_symmetry_equiv_pos_as_xyz
  x,y,z

loop_
_atom_site_label
_atom_site_type_symbol
_atom_site_fract_x
_atom_site_fract_y
_atom_site_fract_z
_atom_site_charge
C 	C 	0.88156 0.60497 0.10593 -0.08100
C 	C 	0.86122 0.64185 0.08524 0.03200
H 	H 	0.87740 0.66530 0.10050 0.05700
C 	C 	0.81775 0.64353 0.04275 -0.08300
C 	C 	0.79311 0.60892 0.01929 -0.01000
H 	H 	0.76360 0.61040 0.98970 0.05200
C 	C 	0.81304 0.57174 0.04050 -0.00400
C 	C 	0.85727 0.57007 0.08446 -0.01500
H 	H 	0.87050 0.54550 0.09940 0.05700
C 	C 	0.92783 0.60366 0.15667 0.37500
C 	C 	0.79379 0.68296 0.02236 0.36200
C 	C 	0.78604 0.53401 0.01973 0.02700
C 	C 	0.73153 0.53356 0.01976 -0.00900
H 	H 	0.71300 0.55630 0.03340 0.04800
C 	C 	0.17347 0.23252 0.18565 -0.09000
C 	C 	0.12458 0.21365 0.18553 -0.01100
H 	H 	0.10810 0.20700 0.14270 0.05100
C 	C 	0.20142 0.24074 0.11566 0.38000
Cu	Cu	0.21121 0.23194 0.96484 0.90400
O 	O 	0.94497 0.57076 0.17648 -0.39500
O 	O 	0.94527 0.63645 0.17711 -0.39600
O 	O 	0.75195 0.68359 0.98768 -0.41100
O 	O 	0.81663 0.71399 0.04748 -0.39600
O 	O 	0.17892 0.22875 0.06085 -0.41500
O 	O 	0.24435 0.25858 0.11894 -0.41500
C 	C 	0.38156 0.10497 0.10593 -0.09000
C 	C 	0.36122 0.14185 0.08524 0.03400
H 	H 	0.37740 0.16530 0.10050 0.05100
C 	C 	0.31775 0.14353 0.04275 -0.08900
C 	C 	0.29311 0.10892 0.01929 -0.00800
H 	H 	0.26360 0.11040 0.98970 0.04800
C 	C 	0.31304 0.07174 0.04050 -0.00800
C 	C 	0.35727 0.07007 0.08446 -0.01200
H 	H 	0.37050 0.04550 0.09940 0.05300
C 	C 	0.42783 0.10366 0.15667 0.38000
C 	C 	0.29379 0.18296 0.02236 0.36300
C 	C 	0.28604 0.03401 0.01973 0.02600
C 	C 	0.23153 0.03356 0.01976 -0.00900
H 	H 	0.21300 0.05630 0.03340 0.04600
C 	C 	0.67347 0.73252 0.18565 -0.08200
C 	C 	0.62458 0.71365 0.18553 -0.02000
H 	H 	0.60810 0.70700 0.14270 0.05800
C 	C 	0.70142 0.74074 0.11566 0.37700
Cu	Cu	0.71121 0.73194 0.96484 0.90500
O 	O 	0.44497 0.07076 0.17648 -0.41200
O 	O 	0.44527 0.13645 0.17711 -0.41400
O 	O 	0.25195 0.18359 0.98768 -0.41400
O 	O 	0.31663 0.21399 0.04748 -0.39900
O 	O 	0.67892 0.72875 0.06085 -0.41200
O 	O 	0.74435 0.75858 0.11894 -0.41300
C 	C 	0.11844 0.39503 0.60593 -0.09400
C 	C 	0.13878 0.35815 0.58524 0.03300
H 	H 	0.12260 0.33470 0.60050 0.04800
C 	C 	0.18225 0.35647 0.54275 -0.08700
C 	C 	0.20689 0.39108 0.51929 -0.01700
H 	H 	0.23640 0.38960 0.48970 0.05400
C 	C 	0.18696 0.42826 0.54050 -0.00700
C 	C 	0.14273 0.42993 0.58446 -0.01200
H 	H 	0.12950 0.45450 0.59940 0.05000
C 	C 	0.07217 0.39634 0.65667 0.38000
C 	C 	0.20621 0.31704 0.52236 0.35700
C 	C 	0.21396 0.46599 0.51973 0.02700
C 	C 	0.26847 0.46644 0.51976 -0.01100
H 	H 	0.28700 0.44370 0.53340 0.04800
C 	C 	0.82653 0.76748 0.68565 -0.08500
C 	C 	0.87542 0.78635 0.68553 -0.01100
H 	H 	0.89190 0.79300 0.64270 0.06000
C 	C 	0.79858 0.75926 0.61566 0.37900
Cu	Cu	0.78879 0.76806 0.46484 0.90700
O 	O 	0.05503 0.42924 0.67648 -0.42200
O 	O 	0.05473 0.36355 0.67711 -0.42300
O 	O 	0.24805 0.31641 0.48768 -0.40900
O 	O 	0.18337 0.28601 0.54748 -0.40100
O 	O 	0.82108 0.77125 0.56085 -0.41100
O 	O 	0.75565 0.74142 0.61894 -0.41400
C 	C 	0.61844 0.89503 0.60593 -0.08800
C 	C 	0.63878 0.85815 0.58524 0.03000
H 	H 	0.62260 0.83470 0.60050 0.05300
C 	C 	0.68225 0.85647 0.54275 -0.08200
C 	C 	0.70689 0.89108 0.51929 -0.02000
H 	H 	0.73640 0.88960 0.48970 0.05700
C 	C 	0.68696 0.92826 0.54050 -0.00300
C 	C 	0.64273 0.92993 0.58446 -0.01500
H 	H 	0.62950 0.95450 0.59940 0.05400
C 	C 	0.57217 0.89634 0.65667 0.37900
C 	C 	0.70621 0.81704 0.52236 0.35600
C 	C 	0.71396 0.96599 0.51973 0.02400
C 	C 	0.76847 0.96644 0.51976 -0.01100
H 	H 	0.78700 0.94370 0.53340 0.05100
C 	C 	0.32653 0.26748 0.68565 -0.08500
C 	C 	0.37542 0.28635 0.68553 -0.01800
H 	H 	0.39190 0.29300 0.64270 0.05700
C 	C 	0.29858 0.25926 0.61566 0.37800
Cu	Cu	0.28879 0.26806 0.46484 0.90600
O 	O 	0.55503 0.92924 0.67648 -0.41300
O 	O 	0.55473 0.86355 0.67711 -0.41400
O 	O 	0.74805 0.81641 0.48768 -0.40600
O 	O 	0.68337 0.78601 0.54748 -0.39800
O 	O 	0.32108 0.27125 0.56085 -0.41400
O 	O 	0.25565 0.24142 0.61894 -0.41600
C 	C 	0.11844 0.60497 0.39407 -0.09400
C 	C 	0.13878 0.64185 0.41476 0.03300
H 	H 	0.12260 0.66530 0.39950 0.04900
C 	C 	0.18225 0.64353 0.45725 -0.08700
C 	C 	0.20689 0.60892 0.48071 -0.01700
H 	H 	0.23640 0.61040 0.51030 0.05400
C 	C 	0.18696 0.57174 0.45950 -0.00700
C 	C 	0.14273 0.57007 0.41554 -0.01200
H 	H 	0.12950 0.54550 0.40060 0.05000
C 	C 	0.07217 0.60366 0.34333 0.38000
C 	C 	0.20621 0.68296 0.47764 0.35700
C 	C 	0.21396 0.53401 0.48027 0.02700
C 	C 	0.26847 0.53356 0.48024 -0.01100
H 	H 	0.28700 0.55630 0.46660 0.04800
C 	C 	0.82653 0.23252 0.31435 -0.08500
C 	C 	0.87542 0.21365 0.31447 -0.01100
H 	H 	0.89190 0.20700 0.35730 0.06000
C 	C 	0.79858 0.24074 0.38434 0.37900
Cu	Cu	0.78879 0.23194 0.53516 0.90700
O 	O 	0.05503 0.57076 0.32352 -0.42100
O 	O 	0.05473 0.63645 0.32289 -0.42200
O 	O 	0.24805 0.68359 0.51232 -0.40900
O 	O 	0.18337 0.71399 0.45252 -0.40100
O 	O 	0.82108 0.22875 0.43915 -0.41100
O 	O 	0.75565 0.25858 0.38106 -0.41400
C 	C 	0.61844 0.10497 0.39407 -0.08700
C 	C 	0.63878 0.14185 0.41476 0.03000
H 	H 	0.62260 0.16530 0.39950 0.05300
C 	C 	0.68225 0.14353 0.45725 -0.08200
C 	C 	0.70689 0.10892 0.48071 -0.02000
H 	H 	0.73640 0.11040 0.51030 0.05700
C 	C 	0.68696 0.07174 0.45950 -0.00200
C 	C 	0.64273 0.07007 0.41554 -0.01500
H 	H 	0.62950 0.04550 0.40060 0.05500
C 	C 	0.57217 0.10366 0.34333 0.37900
C 	C 	0.70621 0.18296 0.47764 0.35600
C 	C 	0.71396 0.03401 0.48027 0.02600
C 	C 	0.76847 0.03356 0.48024 -0.00800
H 	H 	0.78700 0.05630 0.46660 0.05000
C 	C 	0.32653 0.73252 0.31435 -0.08500
C 	C 	0.37542 0.71365 0.31447 -0.01900
H 	H 	0.39190 0.70700 0.35730 0.05700
C 	C 	0.29858 0.74074 0.38434 0.37800
Cu	Cu	0.28879 0.73194 0.53516 0.90600
O 	O 	0.55503 0.07076 0.32352 -0.41200
O 	O 	0.55473 0.13645 0.32289 -0.41300
O 	O 	0.74805 0.18359 0.51232 -0.40600
O 	O 	0.68337 0.21399 0.45252 -0.39800
O 	O 	0.32108 0.72875 0.43915 -0.41400
O 	O 	0.25565 0.75858 0.38106 -0.41600
C 	C 	0.88156 0.39503 0.89407 -0.07700
C 	C 	0.86122 0.35815 0.91476 0.02200
H 	H 	0.87740 0.33470 0.89950 0.05900
C 	C 	0.81775 0.35647 0.95725 -0.07200
C 	C 	0.79311 0.39108 0.98071 -0.03200
H 	H 	0.76360 0.38960 0.01030 0.06400
C 	C 	0.81304 0.42826 0.95950 0.00500
C 	C 	0.85727 0.42993 0.91554 -0.02300
H 	H 	0.87050 0.45450 0.90060 0.05900
C 	C 	0.92783 0.39634 0.84333 0.37300
C 	C 	0.79379 0.31704 0.97764 0.34900
C 	C 	0.78604 0.46599 0.98027 0.02100
C 	C 	0.73153 0.46644 0.98024 -0.01100
H 	H 	0.71300 0.44370 0.96660 0.04700
C 	C 	0.17347 0.76748 0.81435 -0.09200
C 	C 	0.12458 0.78635 0.81447 -0.01000
H 	H 	0.10810 0.79300 0.85730 0.05000
C 	C 	0.20142 0.75926 0.88434 0.38000
Cu	Cu	0.21121 0.76806 0.03516 0.90600
O 	O 	0.94497 0.42924 0.82352 -0.39500
O 	O 	0.94527 0.36355 0.82289 -0.39600
O 	O 	0.75195 0.31641 0.01232 -0.40300
O 	O 	0.81663 0.28601 0.95252 -0.39500
O 	O 	0.17892 0.77125 0.93915 -0.41900
O 	O 	0.24435 0.74142 0.88106 -0.41600
C 	C 	0.38156 0.89503 0.89407 -0.08600
C 	C 	0.36122 0.85815 0.91476 0.02600
H 	H 	0.37740 0.83470 0.89950 0.05400
C 	C 	0.31775 0.85647 0.95725 -0.07800
C 	C 	0.29311 0.89108 0.98071 -0.03000
H 	H 	0.26360 0.88960 0.01030 0.06100
C 	C 	0.31304 0.92826 0.95950 0.00100
C 	C 	0.35727 0.92993 0.91554 -0.01900
H 	H 	0.37050 0.95450 0.90060 0.05400
C 	C 	0.42783 0.89634 0.84333 0.37800
C 	C 	0.29379 0.81704 0.97764 0.35100
C 	C 	0.28604 0.96599 0.98027 0.01700
C 	C 	0.23153 0.96644 0.98024 -0.01400
H 	H 	0.21300 0.94370 0.96660 0.04500
C 	C 	0.67347 0.26748 0.81435 -0.08300
C 	C 	0.62458 0.28635 0.81447 -0.01900
H 	H 	0.60810 0.29300 0.85730 0.05700
C 	C 	0.70142 0.25926 0.88434 0.37800
Cu	Cu	0.71121 0.26806 0.03516 0.90700
O 	O 	0.44497 0.92924 0.82352 -0.41300
O 	O 	0.44527 0.86355 0.82289 -0.41400
O 	O 	0.25195 0.81641 0.01232 -0.40500
O 	O 	0.31663 0.78601 0.95252 -0.39800
O 	O 	0.67892 0.27125 0.93915 -0.41500
O 	O 	0.74435 0.24142 0.88106 -0.41400
C 	C 	0.11844 0.39503 0.89407 -0.09100
C 	C 	0.13878 0.35815 0.91476 0.02800
H 	H 	0.12260 0.33470 0.89950 0.05000
C 	C 	0.18225 0.35647 0.95725 -0.08000
C 	C 	0.20689 0.39108 0.98071 -0.02900
H 	H 	0.23640 0.38960 0.01030 0.06100
C 	C 	0.18696 0.42826 0.95950 -0.00100
C 	C 	0.14273 0.42993 0.91554 -0.01700
H 	H 	0.12950 0.45450 0.90060 0.05100
C 	C 	0.07217 0.39634 0.84333 0.37900
C 	C 	0.20621 0.31704 0.97764 0.35100
C 	C 	0.21396 0.46599 0.98027 0.02100
C 	C 	0.26847 0.46644 0.98024 -0.01200
H 	H 	0.28700 0.44370 0.96660 0.04700
C 	C 	0.82653 0.76748 0.81435 -0.08600
C 	C 	0.87542 0.78635 0.81447 -0.01100
H 	H 	0.89190 0.79300 0.85730 0.05900
C 	C 	0.79858 0.75926 0.88434 0.37900
Cu	Cu	0.78879 0.76806 0.03516 0.90800
O 	O 	0.05503 0.42924 0.82352 -0.42200
O 	O 	0.05473 0.36355 0.82289 -0.42200
O 	O 	0.24805 0.31641 0.01232 -0.40400
O 	O 	0.18337 0.28601 0.95252 -0.40100
O 	O 	0.82108 0.77125 0.93915 -0.41300
O 	O 	0.75565 0.74142 0.88106 -0.41500
C 	C 	0.61844 0.89503 0.89407 -0.08500
C 	C 	0.63878 0.85815 0.91476 0.02500
H 	H 	0.62260 0.83470 0.89950 0.05400
C 	C 	0.68225 0.85647 0.95725 -0.07600
C 	C 	0.70689 0.89108 0.98071 -0.03100
H 	H 	0.73640 0.88960 0.01030 0.06400
C 	C 	0.68696 0.92826 0.95950 0.00300
C 	C 	0.64273 0.92993 0.91554 -0.02000
H 	H 	0.62950 0.95450 0.90060 0.05500
C 	C 	0.57217 0.89634 0.84333 0.37800
C 	C 	0.70621 0.81704 0.97764 0.35000
C 	C 	0.71396 0.96599 0.98027 0.01800
C 	C 	0.76847 0.96644 0.98024 -0.01200
H 	H 	0.78700 0.94370 0.96660 0.05000
C 	C 	0.32653 0.26748 0.81435 -0.08500
C 	C 	0.37542 0.28635 0.81447 -0.01800
H 	H 	0.39190 0.29300 0.85730 0.05700
C 	C 	0.29858 0.25926 0.88434 0.37900
Cu	Cu	0.28879 0.26806 0.03516 0.90700
O 	O 	0.55503 0.92924 0.82352 -0.41300
O 	O 	0.55473 0.86355 0.82289 -0.41300
O 	O 	0.74805 0.81641 0.01232 -0.40200
O 	O 	0.68337 0.78601 0.95252 -0.39800
O 	O 	0.32108 0.27125 0.93915 -0.41600
O 	O 	0.25565 0.24142 0.88106 -0.41600
C 	C 	0.88156 0.60497 0.39407 -0.08000
C 	C 	0.86122 0.64185 0.41476 0.02700
H 	H 	0.87740 0.66530 0.39950 0.05700
C 	C 	0.81775 0.64353 0.45725 -0.07900
C 	C 	0.79311 0.60892 0.48071 -0.02100
H 	H 	0.76360 0.61040 0.51030 0.05700
C 	C 	0.81304 0.57174 0.45950 -0.00100
C 	C 	0.85727 0.57007 0.41554 -0.01800
H 	H 	0.87050 0.54550 0.40060 0.05800
C 	C 	0.92783 0.60366 0.34333 0.37400
C 	C 	0.79379 0.68296 0.47764 0.35600
C 	C 	0.78604 0.53401 0.48027 0.02700
C 	C 	0.73153 0.53356 0.48024 -0.01000
H 	H 	0.71300 0.55630 0.46660 0.04800
C 	C 	0.17347 0.23252 0.31435 -0.09100
C 	C 	0.12458 0.21365 0.31447 -0.01100
H 	H 	0.10810 0.20700 0.35730 0.05100
C 	C 	0.20142 0.24074 0.38434 0.38000
Cu	Cu	0.21121 0.23194 0.53516 0.90500
O 	O 	0.94497 0.57076 0.32352 -0.39500
O 	O 	0.94527 0.63645 0.32289 -0.39600
O 	O 	0.75195 0.68359 0.51232 -0.40700
O 	O 	0.81663 0.71399 0.45252 -0.39500
O 	O 	0.17892 0.22875 0.43915 -0.41700
O 	O 	0.24435 0.25858 0.38106 -0.41600
C 	C 	0.38156 0.10497 0.39407 -0.08800
C 	C 	0.36122 0.14185 0.41476 0.03100
H 	H 	0.37740 0.16530 0.39950 0.05200
C 	C 	0.31775 0.14353 0.45725 -0.08400
C 	C 	0.29311 0.10892 0.48071 -0.01800
H 	H 	0.26360 0.11040 0.51030 0.05400
C 	C 	0.31304 0.07174 0.45950 -0.00400
C 	C 	0.35727 0.07007 0.41554 -0.01500
H 	H 	0.37050 0.04550 0.40060 0.05400
C 	C 	0.42783 0.10366 0.34333 0.37900
C 	C 	0.29379 0.18296 0.47764 0.35700
C 	C 	0.28604 0.03401 0.48027 0.02500
C 	C 	0.23153 0.03356 0.48024 -0.01000
H 	H 	0.21300 0.05630 0.46660 0.04600
C 	C 	0.67347 0.73252 0.31435 -0.08300
C 	C 	0.62458 0.71365 0.31447 -0.02000
H 	H 	0.60810 0.70700 0.35730 0.05800
C 	C 	0.70142 0.74074 0.38434 0.37700
Cu	Cu	0.71121 0.73194 0.53516 0.90600
O 	O 	0.44497 0.07076 0.32352 -0.41200
O 	O 	0.44527 0.13645 0.32289 -0.41400
O 	O 	0.25195 0.18359 0.51232 -0.40900
O 	O 	0.31663 0.21399 0.45252 -0.39900
O 	O 	0.67892 0.72875 0.43915 -0.41400
O 	O 	0.74435 0.75858 0.38106 -0.41300
C 	C 	0.88156 0.39503 0.60593 -0.08000
C 	C 	0.86122 0.35815 0.58524 0.02700
H 	H 	0.87740 0.33470 0.60050 0.05700
C 	C 	0.81775 0.35647 0.54275 -0.07800
C 	C 	0.79311 0.39108 0.51929 -0.02100
H 	H 	0.76360 0.38960 0.48970 0.05700
C 	C 	0.81304 0.42826 0.54050 -0.00100
C 	C 	0.85727 0.42993 0.58446 -0.01800
H 	H 	0.87050 0.45450 0.59940 0.05800
C 	C 	0.92783 0.39634 0.65667 0.37400
C 	C 	0.79379 0.31704 0.52236 0.35600
C 	C 	0.78604 0.46599 0.51973 0.02700
C 	C 	0.73153 0.46644 0.51976 -0.01000
H 	H 	0.71300 0.44370 0.53340 0.04800
C 	C 	0.17347 0.76748 0.68565 -0.09100
C 	C 	0.12458 0.78635 0.68553 -0.01100
H 	H 	0.10810 0.79300 0.64270 0.05100
C 	C 	0.20142 0.75926 0.61566 0.38000
Cu	Cu	0.21121 0.76806 0.46484 0.90500
O 	O 	0.94497 0.42924 0.67648 -0.39500
O 	O 	0.94527 0.36355 0.67711 -0.39600
O 	O 	0.75195 0.31641 0.48768 -0.40700
O 	O 	0.81663 0.28601 0.54748 -0.39500
O 	O 	0.17892 0.77125 0.56085 -0.41700
O 	O 	0.24435 0.74142 0.61894 -0.41600
C 	C 	0.38156 0.89503 0.60593 -0.08900
C 	C 	0.36122 0.85815 0.58524 0.03100
H 	H 	0.37740 0.83470 0.60050 0.05200
C 	C 	0.31775 0.85647 0.54275 -0.08400
C 	C 	0.29311 0.89108 0.51929 -0.01900
H 	H 	0.26360 0.88960 0.48970 0.05400
C 	C 	0.31304 0.92826 0.54050 -0.00500
C 	C 	0.35727 0.92993 0.58446 -0.01500
H 	H 	0.37050 0.95450 0.59940 0.05300
C 	C 	0.42783 0.89634 0.65667 0.37900
C 	C 	0.29379 0.81704 0.52236 0.35700
C 	C 	0.28604 0.96599 0.51973 0.02400
C 	C 	0.23153 0.96644 0.51976 -0.01300
H 	H 	0.21300 0.94370 0.53340 0.04600
C 	C 	0.67347 0.26748 0.68565 -0.08300
C 	C 	0.62458 0.28635 0.68553 -0.02000
H 	H 	0.60810 0.29300 0.64270 0.05800
C 	C 	0.70142 0.25926 0.61566 0.37700
Cu	Cu	0.71121 0.26806 0.46484 0.90600
O 	O 	0.44497 0.92924 0.67648 -0.41300
O 	O 	0.44527 0.86355 0.67711 -0.41400
O 	O 	0.25195 0.81641 0.48768 -0.40900
O 	O 	0.31663 0.78601 0.54748 -0.39900
O 	O 	0.67892 0.27125 0.56085 -0.41400
O 	O 	0.74435 0.24142 0.61894 -0.41300
C 	C 	0.11844 0.60497 0.10593 -0.09600
C 	C 	0.13878 0.64185 0.08524 0.03700
H 	H 	0.12260 0.66530 0.10050 0.04700
C 	C 	0.18225 0.64353 0.04275 -0.09200
C 	C 	0.20689 0.60892 0.01929 -0.00700
H 	H 	0.23640 0.61040 0.98970 0.04800
C 	C 	0.18696 0.57174 0.04050 -0.01100
C 	C 	0.14273 0.57007 0.08446 -0.01000
H 	H 	0.12950 0.54550 0.09940 0.05000
C 	C 	0.07217 0.60366 0.15667 0.38100
C 	C 	0.20621 0.68296 0.02236 0.36400
C 	C 	0.21396 0.53401 0.01973 0.02700
C 	C 	0.26847 0.53356 0.01976 -0.01000
H 	H 	0.28700 0.55630 0.03340 0.04900
C 	C 	0.82653 0.23252 0.18565 -0.08400
C 	C 	0.87542 0.21365 0.18553 -0.01100
H 	H 	0.89190 0.20700 0.14270 0.06100
C 	C 	0.79858 0.24074 0.11566 0.37900
Cu	Cu	0.78879 0.23194 0.96484 0.90600
O 	O 	0.05503 0.57076 0.17648 -0.42100
O 	O 	0.05473 0.63645 0.17711 -0.42200
O 	O 	0.24805 0.68359 0.98768 -0.41300
O 	O 	0.18337 0.71399 0.04748 -0.40200
O 	O 	0.82108 0.22875 0.06085 -0.40900
O 	O 	0.75565 0.25858 0.11894 -0.41300
C 	C 	0.61844 0.10497 0.10593 -0.08900
C 	C 	0.63878 0.14185 0.08524 0.03300
H 	H 	0.62260 0.16530 0.10050 0.05200
C 	C 	0.68225 0.14353 0.04275 -0.08700
C 	C 	0.70689 0.10892 0.01929 -0.01000
H 	H 	0.73640 0.11040 0.98970 0.05100
C 	C 	0.68696 0.07174 0.04050 -0.00600
C 	C 	0.64273 0.07007 0.08446 -0.01300
H 	H 	0.62950 0.04550 0.09940 0.05400
C 	C 	0.57217 0.10366 0.15667 0.38000
C 	C 	0.70621 0.18296 0.02236 0.36200
C 	C 	0.71396 0.03401 0.01973 0.02600
C 	C 	0.76847 0.03356 0.01976 -0.00700
H 	H 	0.78700 0.05630 0.03340 0.05100
C 	C 	0.32653 0.73252 0.18565 -0.08400
C 	C 	0.37542 0.71365 0.18553 -0.01900
H 	H 	0.39190 0.70700 0.14270 0.05800
C 	C 	0.29858 0.74074 0.11566 0.37800
Cu	Cu	0.28879 0.73194 0.96484 0.90500
O 	O 	0.55503 0.07076 0.17648 -0.41200
O 	O 	0.55473 0.13645 0.17711 -0.41300
O 	O 	0.74805 0.18359 0.98768 -0.41100
O 	O 	0.68337 0.21399 0.04748 -0.39900
O 	O 	0.32108 0.72875 0.06085 -0.41200
O 	O 	0.25565 0.75858 0.11894 -0.41500
C 	C 	0.81356 0.50000 -0.00000 -0.08300
H 	H 	0.85030 0.50000 -0.00000 0.07100
N 	N 	0.70437 0.50000 -0.00000 -0.09200
C 	C 	0.31356 0.00000 -0.00000 -0.08100
H 	H 	0.35030 0.00000 -0.00000 0.06800
N 	N 	0.20437 0.00000 -0.00000 -0.09300
C 	C 	0.18644 0.50000 0.50000 -0.09100
H 	H 	0.14970 0.50000 0.50000 0.06600
N 	N 	0.29563 0.50000 0.50000 -0.09400
C 	C 	0.68644 0.00000 0.50000 -0.08600
H 	H 	0.64970 0.00000 0.50000 0.06800
N 	N 	0.79563 0.00000 0.50000 -0.08900
C 	C 	0.18644 0.50000 -0.00000 -0.08500
H 	H 	0.14970 0.50000 -0.00000 0.06500
N 	N 	0.29563 0.50000 -0.00000 -0.09200
C 	C 	0.68644 0.00000 -0.00000 -0.08000
H 	H 	0.64970 0.00000 -0.00000 0.06800
N 	N 	0.79563 0.00000 -0.00000 -0.08800
C 	C 	0.81356 0.50000 0.50000 -0.08900
H 	H 	0.85030 0.50000 0.50000 0.07200
N 	N 	0.70437 0.50000 0.50000 -0.09400
C 	C 	0.31356 0.00000 0.50000 -0.08700
H 	H 	0.35030 0.00000 0.50000 0.06800
N 	N 	0.20437 0.00000 0.50000 -0.09500
C 	C 	0.19697 0.24233 0.25000 0.03300
H 	H 	0.22920 0.25580 0.25000 0.05100
C 	C 	0.10098 0.20501 0.25000 -0.01600
C 	C 	0.04940 0.18164 0.25000 0.04400
C 	C 	0.04955 0.14027 0.25000 -0.03600
H 	H 	0.08150 0.12650 0.25000 0.05500
C 	C 	0.69697 0.74233 0.25000 0.02700
H 	H 	0.72920 0.75580 0.25000 0.05400
C 	C 	0.60098 0.70501 0.25000 -0.00100
C 	C 	0.54940 0.68164 0.25000 0.02600
C 	C 	0.54955 0.64027 0.25000 -0.02000
H 	H 	0.58150 0.62650 0.25000 0.05300
C 	C 	0.80303 0.75767 0.75000 0.03200
H 	H 	0.77080 0.74420 0.75000 0.05200
C 	C 	0.89902 0.79499 0.75000 -0.01100
C 	C 	0.95060 0.81836 0.75000 0.06900
C 	C 	0.95045 0.85973 0.75000 -0.00000
H 	H 	0.91850 0.87350 0.75000 0.05200
C 	C 	0.30303 0.25767 0.75000 0.03000
H 	H 	0.27080 0.24420 0.75000 0.05100
C 	C 	0.39902 0.29499 0.75000 -0.00300
C 	C 	0.45060 0.31836 0.75000 0.02600
C 	C 	0.45045 0.35973 0.75000 -0.02000
H 	H 	0.41850 0.37350 0.75000 0.05300
C 	C 	0.80303 0.24233 0.25000 0.03100
H 	H 	0.77080 0.25580 0.25000 0.05200
C 	C 	0.89902 0.20501 0.25000 -0.01000
C 	C 	0.95060 0.18164 0.25000 0.07000
C 	C 	0.95045 0.14027 0.25000 0.00000
H 	H 	0.91850 0.12650 0.25000 0.05300
C 	C 	0.30303 0.74233 0.25000 0.02900
H 	H 	0.27080 0.75580 0.25000 0.05100
C 	C 	0.39902 0.70501 0.25000 -0.00200
C 	C 	0.45060 0.68164 0.25000 0.02600
C 	C 	0.45045 0.64027 0.25000 -0.02000
H 	H 	0.41850 0.62650 0.25000 0.05300
C 	C 	0.19697 0.75767 0.75000 0.03400
H 	H 	0.22920 0.74420 0.75000 0.05000
C 	C 	0.10098 0.79499 0.75000 -0.01700
C 	C 	0.04940 0.81836 0.75000 0.04400
C 	C 	0.04955 0.85973 0.75000 -0.03700
H 	H 	0.08150 0.87350 0.75000 0.05400
C 	C 	0.69697 0.25767 0.75000 0.02800
H 	H 	0.72920 0.24420 0.75000 0.05400
C 	C 	0.60098 0.29499 0.75000 -0.00200
C 	C 	0.54940 0.31836 0.75000 0.02600
C 	C 	0.54955 0.35973 0.75000 -0.02000
H 	H 	0.58150 0.37350 0.75000 0.05300
C 	C 	-0.00000 0.20116 0.25000 -0.14700
H 	H 	-0.00000 0.22890 0.25000 0.08000
N 	N 	-0.00000 0.11835 0.25000 -0.10700
Cu	Cu	-0.00000 0.56407 0.25000 0.89100
Cu	Cu	-0.00000 0.64320 0.25000 0.89300
C 	C 	0.50000 0.70116 0.25000 -0.08800
H 	H 	0.50000 0.72890 0.25000 0.07100
N 	N 	0.50000 0.61835 0.25000 -0.08900
Cu	Cu	0.50000 0.06407 0.25000 0.90600
Cu	Cu	0.50000 0.14320 0.25000 0.90900
C 	C 	-0.00000 0.79884 0.75000 -0.14800
H 	H 	-0.00000 0.77110 0.75000 0.07900
N 	N 	-0.00000 0.88165 0.75000 -0.10700
Cu	Cu	-0.00000 0.43593 0.75000 0.89000
Cu	Cu	-0.00000 0.35680 0.75000 0.89300
C 	C 	0.50000 0.29884 0.75000 -0.08800
H 	H 	0.50000 0.27110 0.75000 0.07100
N 	N 	0.50000 0.38165 0.75000 -0.08900
Cu	Cu	0.50000 0.93593 0.75000 0.90600
Cu	Cu	0.50000 0.85680 0.75000 0.90900
