data_crystal

_cell_length_a 12.43500
_cell_length_b 14.58400
_cell_length_c 26.04630
_cell_angle_alpha 90.00000
_cell_angle_beta  99.15540
_cell_angle_gamma 90.00000

_symmetry_space_group_name_	'P 1'
_symmetry_space_group_name_H-M	'P 1'

loop_
_symmetry_equiv_pos_as_xyz
  x,y,z

loop_
_atom_site_label
_atom_site_type_symbol
_atom_site_fract_x
_atom_site_fract_y
_atom_site_fract_z
_atom_site_charge
Cu	Cu	0.12963 0.47561 0.13673 0.95000
Cu	Cu	0.99282 0.66023 0.77682 0.88300
Cu	Cu	0.62963 0.02439 0.63673 0.95000
Cu	Cu	0.00718 0.33977 0.22318 0.88300
Cu	Cu	0.50718 0.16023 0.72318 0.88300
Cu	Cu	0.87038 0.52439 0.86328 0.95000
Cu	Cu	0.37038 0.97561 0.36328 0.95000
Cu	Cu	0.49282 0.83977 0.27682 0.88300
H 	H 	0.82420 0.50030 0.58880 0.05200
H 	H 	0.29570 0.87490 0.04020 0.05400
H 	H 	0.73470 0.75020 0.39610 0.03900
H 	H 	0.23470 0.74980 0.89610 0.03900
H 	H 	0.83880 0.23970 0.60940 0.04700
H 	H 	0.56120 0.24280 0.09960 0.07100
H 	H 	0.70430 0.12510 0.95980 0.05300
H 	H 	0.26530 0.24980 0.60390 0.03900
H 	H 	0.39200 0.06790 0.51660 0.04600
H 	H 	0.20430 0.37490 0.45980 0.05300
H 	H 	0.43880 0.75720 0.90040 0.07100
H 	H 	0.27570 0.17950 0.24800 0.02900
H 	H 	0.89200 0.43210 0.01660 0.04600
H 	H 	0.32420 0.99970 0.08880 0.05100
H 	H 	0.63370 0.28280 0.95600 0.04600
H 	H 	0.52200 0.96620 0.82500 0.03200
H 	H 	0.02200 0.53380 0.32500 0.03200
H 	H 	0.06120 0.25720 0.59960 0.07100
H 	H 	0.86630 0.78280 0.54400 0.04500
H 	H 	0.76530 0.25020 0.10390 0.03900
H 	H 	0.13370 0.21720 0.45600 0.04500
H 	H 	0.47800 0.03380 0.17500 0.03200
H 	H 	0.17580 0.49970 0.41120 0.05100
H 	H 	0.36630 0.71720 0.04400 0.04600
H 	H 	0.10800 0.56790 0.98340 0.04600
H 	H 	0.16120 0.76030 0.39060 0.04700
H 	H 	0.33880 0.26030 0.10940 0.04700
H 	H 	0.93880 0.74280 0.40040 0.07100
H 	H 	0.97800 0.46620 0.67500 0.03200
H 	H 	0.60800 0.93210 0.48340 0.04600
H 	H 	0.22430 0.67950 0.25200 0.02900
H 	H 	0.72430 0.82050 0.75200 0.02900
H 	H 	0.77570 0.32050 0.74800 0.02900
H 	H 	0.79570 0.62510 0.54020 0.05300
H 	H 	0.67580 0.00030 0.91120 0.05100
H 	H 	0.66120 0.73970 0.89060 0.04700
C 	C 	0.39284 0.81800 0.96194 0.02200
C 	C 	0.76248 0.36390 0.97718 -0.11200
C 	C 	0.59827 0.96840 0.73667 0.42300
C 	C 	0.76448 0.27850 0.07188 0.00500
C 	C 	0.20415 0.73190 0.32165 -0.13400
C 	C 	0.23752 0.63610 0.02282 -0.11200
C 	C 	0.81185 0.32940 0.71975 0.07100
C 	C 	0.92539 0.37250 0.11239 0.41400
C 	C 	0.52638 0.87100 0.91048 0.02500
C 	C 	0.28062 0.80840 0.32112 0.39700
C 	C 	0.34887 0.21860 0.13677 0.01300
C 	C 	0.18720 0.20230 0.48390 0.00000
C 	C 	0.59066 0.10400 0.00686 0.00000
C 	C 	0.95073 0.44670 0.55723 -0.00200
C 	C 	0.40934 0.89600 0.99314 0.00000
C 	C 	0.81280 0.79770 0.51610 0.00000
C 	C 	0.84088 0.34620 0.06698 -0.12100
C 	C 	0.31280 0.70230 0.01610 -0.00000
C 	C 	0.21938 0.30840 0.17888 0.39700
C 	C 	0.79585 0.26810 0.67835 -0.13400
C 	C 	0.23622 0.59220 0.07362 0.38200
C 	C 	0.26378 0.09220 0.42638 0.38200
C 	C 	0.48959 0.96090 0.98379 -0.00100
C 	C 	0.34964 0.91560 0.03394 -0.05200
C 	C 	0.41712 0.14420 0.13482 -0.02900
C 	C 	0.90934 0.60400 0.49314 0.00000
C 	C 	0.91712 0.35580 0.63482 -0.02900
C 	C 	0.98959 0.53910 0.48379 -0.00100
C 	C 	0.58288 0.85580 0.86518 -0.02900
C 	C 	0.45125 0.80880 0.92145 -0.09900
C 	C 	0.63257 0.01080 0.93667 -0.04900
C 	C 	0.10716 0.31800 0.53806 0.02200
C 	C 	0.95125 0.69120 0.42145 -0.09800
C 	C 	0.76378 0.40780 0.92638 0.38200
C 	C 	0.15912 0.65380 0.93302 -0.12100
C 	C 	0.12003 0.59820 0.28073 -0.13700
C 	C 	0.08288 0.64420 0.36518 -0.02900
C 	C 	0.73552 0.77850 0.42812 0.00500
C 	C 	0.84887 0.28140 0.63677 0.01300
C 	C 	0.86743 0.51080 0.56333 -0.04900
C 	C 	0.57461 0.87250 0.38761 0.41400
C 	C 	0.87997 0.40180 0.71927 -0.13700
C 	C 	0.15113 0.71860 0.36323 0.01300
C 	C 	0.84964 0.58440 0.53394 -0.05100
C 	C 	0.09827 0.53160 0.23667 0.42300
C 	C 	0.40173 0.03160 0.26333 0.42300
C 	C 	0.89284 0.68200 0.46194 0.02200
C 	C 	0.04927 0.55330 0.44277 -0.00200
C 	C 	0.15981 0.61250 0.97981 0.05500
C 	C 	0.18794 0.24750 0.53074 -0.02000
C 	C 	0.13257 0.48920 0.43667 -0.04900
C 	C 	0.34019 0.11250 0.52019 0.05400
C 	C 	0.65036 0.08440 0.96606 -0.05200
C 	C 	0.23552 0.72150 0.92812 0.00500
C 	C 	0.70415 0.76810 0.82165 -0.13400
C 	C 	0.56753 0.91590 0.82413 0.01000
C 	C 	0.29585 0.23190 0.17835 -0.13400
C 	C 	0.65912 0.84620 0.43302 -0.12100
C 	C 	0.42539 0.12750 0.61239 0.41400
C 	C 	0.09066 0.39600 0.50686 0.00000
C 	C 	0.81206 0.75250 0.46926 -0.02000
C 	C 	0.26248 0.13610 0.47718 -0.11100
C 	C 	0.62003 0.90180 0.78073 -0.13700
C 	C 	0.45073 0.05330 0.05723 -0.00200
C 	C 	0.54927 0.94670 0.94277 -0.00200
C 	C 	0.97362 0.37100 0.58952 0.02400
C 	C 	0.51041 0.03910 0.01621 -0.00100
C 	C 	0.26448 0.22150 0.57188 0.00500
C 	C 	0.37997 0.09820 0.21927 -0.13700
C 	C 	0.73622 0.90780 0.57362 0.38200
C 	C 	0.31185 0.17060 0.21975 0.07100
C 	C 	0.93247 0.41590 0.67587 0.01000
C 	C 	0.71938 0.19160 0.67888 0.39700
C 	C 	0.43247 0.08410 0.17587 0.01000
C 	C 	0.02638 0.62900 0.41048 0.02400
C 	C 	0.18815 0.67060 0.28025 0.07100
C 	C 	0.15036 0.41560 0.46606 -0.05100
C 	C 	0.68815 0.82940 0.78025 0.07100
C 	C 	0.01041 0.46090 0.51621 -0.00100
C 	C 	0.47362 0.12900 0.08952 0.02500
C 	C 	0.60716 0.18200 0.03806 0.02200
C 	C 	0.34088 0.15380 0.56698 -0.12100
C 	C 	0.06753 0.58410 0.32413 0.01000
C 	C 	0.84019 0.38750 0.02019 0.05500
C 	C 	0.36743 0.98920 0.06333 -0.04900
C 	C 	0.68794 0.25250 0.03074 -0.02000
C 	C 	0.54875 0.19120 0.07855 -0.09900
C 	C 	0.07461 0.62750 0.88761 0.41400
C 	C 	0.90173 0.46840 0.76333 0.42300
C 	C 	0.65981 0.88750 0.47981 0.05400
C 	C 	0.68720 0.29770 0.98390 -0.00000
C 	C 	0.78062 0.69160 0.82112 0.39700
C 	C 	0.73752 0.86390 0.52282 -0.11100
C 	C 	0.31206 0.74750 0.96926 -0.02000
C 	C 	0.04875 0.30880 0.57855 -0.09800
C 	C 	0.65113 0.78140 0.86323 0.01300
O 	O 	0.78145 0.63280 0.85695 -0.41100
O 	O 	0.96711 0.52940 0.76131 -0.46500
O 	O 	0.51699 0.93860 0.39339 -0.42600
O 	O 	0.84220 0.45920 0.92310 -0.39600
O 	O 	0.07054 0.67400 0.84734 -0.45000
O 	O 	0.57054 0.82600 0.34734 -0.45100
O 	O 	0.46711 0.97060 0.26131 -0.46500
O 	O 	0.42946 0.17400 0.65266 -0.45100
O 	O 	0.98301 0.43860 0.10661 -0.42600
O 	O 	0.69073 0.39340 0.89133 -0.29600
O 	O 	0.15780 0.54080 0.07690 -0.39600
O 	O 	0.34220 0.04080 0.42310 -0.39500
O 	O 	0.66062 0.18820 0.71272 -0.43900
O 	O 	0.01699 0.56140 0.89339 -0.42600
O 	O 	0.14560 0.54810 0.19870 -0.42600
O 	O 	0.35440 0.04810 0.30130 -0.42600
O 	O 	0.80927 0.89340 0.60867 -0.29600
O 	O 	0.21855 0.36720 0.14305 -0.41100
O 	O 	0.65780 0.95920 0.57690 -0.39500
O 	O 	0.33938 0.81180 0.28728 -0.43900
O 	O 	0.64560 0.95190 0.69870 -0.42600
O 	O 	0.83938 0.68820 0.78728 -0.43900
O 	O 	0.16062 0.31180 0.21272 -0.43900
O 	O 	0.28145 0.86720 0.35695 -0.41000
O 	O 	0.53289 0.02940 0.73869 -0.46500
O 	O 	0.92946 0.32600 0.15266 -0.45000
O 	O 	0.48301 0.06140 0.60661 -0.42600
O 	O 	0.03289 0.47060 0.23869 -0.46500
O 	O 	0.30927 0.60660 0.10867 -0.29600
O 	O 	0.85440 0.45190 0.80130 -0.42600
O 	O 	0.71855 0.13280 0.64305 -0.41000
O 	O 	0.19073 0.10660 0.39133 -0.29600
