data_crystal

_cell_length_a 18.50370
_cell_length_b 18.50370
_cell_length_c 18.50370
_cell_angle_alpha 101.73900
_cell_angle_beta  101.73900
_cell_angle_gamma 101.73900

_symmetry_space_group_name_	'P 1'
_symmetry_space_group_name_H-M	'P 1'

loop_
_symmetry_equiv_pos_as_xyz
  x,y,z

loop_
_atom_site_label
_atom_site_type_symbol
_atom_site_fract_x
_atom_site_fract_y
_atom_site_fract_z
_atom_site_charge
Zn	Zn	0.35421 0.14693 0.74919 1.25000
Zn	Zn	0.25081 0.64579 0.85307 1.25000
Zn	Zn	0.64579 0.85307 0.25081 1.25000
Zn	Zn	0.74919 0.35421 0.14693 1.25000
Zn	Zn	0.14693 0.74919 0.35421 1.25000
Zn	Zn	0.85307 0.25081 0.64579 1.25000
H 	H 	0.97400 0.15590 0.20880 0.10100
H 	H 	0.32070 0.87070 0.02340 0.11000
H 	H 	0.59020 0.09950 0.87050 0.05500
H 	H 	0.27820 0.65620 0.14420 0.05300
H 	H 	0.12090 0.77980 0.76810 0.04800
H 	H 	0.00770 0.14280 0.74270 0.04600
H 	H 	0.90620 0.29390 0.80170 0.02000
H 	H 	0.65620 0.14420 0.27820 0.05300
H 	H 	0.87910 0.22020 0.23190 0.04800
H 	H 	0.12950 0.40980 0.90050 0.05500
H 	H 	0.06410 0.83060 0.02430 0.09500
H 	H 	0.85580 0.72180 0.34380 0.05300
H 	H 	0.09380 0.70610 0.19830 0.02000
H 	H 	0.12930 0.97660 0.67930 0.11000
H 	H 	0.16940 0.97570 0.93590 0.09500
H 	H 	0.14000 0.08810 0.98220 0.05700
H 	H 	0.09950 0.87050 0.59020 0.05500
H 	H 	0.15590 0.20880 0.97400 0.10100
H 	H 	0.87070 0.02340 0.32070 0.11000
H 	H 	0.70610 0.19830 0.09380 0.02000
H 	H 	0.23190 0.87910 0.22020 0.04800
H 	H 	0.79120 0.02600 0.84410 0.10100
H 	H 	0.90050 0.12950 0.40980 0.05500
H 	H 	0.25730 0.99230 0.85720 0.04600
H 	H 	0.86000 0.91190 0.01780 0.05700
H 	H 	0.72180 0.34380 0.85580 0.05300
H 	H 	0.85720 0.25730 0.99230 0.04600
H 	H 	0.84410 0.79120 0.02600 0.10100
H 	H 	0.99230 0.85720 0.25730 0.04600
H 	H 	0.97570 0.93590 0.16940 0.09500
H 	H 	0.20880 0.97400 0.15590 0.10100
H 	H 	0.98220 0.14000 0.08810 0.05700
H 	H 	0.02430 0.06410 0.83060 0.09500
H 	H 	0.40980 0.90050 0.12950 0.05500
H 	H 	0.76810 0.12090 0.77980 0.04800
H 	H 	0.32140 0.42420 0.83610 0.07000
H 	H 	0.22020 0.23190 0.87910 0.04800
H 	H 	0.97660 0.67930 0.12930 0.11000
H 	H 	0.74270 0.00770 0.14280 0.04600
H 	H 	0.02600 0.84410 0.79120 0.10100
H 	H 	0.83610 0.32140 0.42420 0.07000
H 	H 	0.19830 0.09380 0.70610 0.02000
H 	H 	0.42420 0.83610 0.32140 0.07000
H 	H 	0.83060 0.02430 0.06410 0.09500
H 	H 	0.77980 0.76810 0.12090 0.04800
H 	H 	0.34380 0.85580 0.72180 0.05300
H 	H 	0.67930 0.12930 0.97660 0.11000
H 	H 	0.14420 0.27820 0.65620 0.05300
H 	H 	0.93590 0.16940 0.97570 0.09500
H 	H 	0.01780 0.86000 0.91190 0.05700
H 	H 	0.87050 0.59020 0.09950 0.05500
H 	H 	0.02340 0.32070 0.87070 0.11000
H 	H 	0.80170 0.90620 0.29390 0.02000
H 	H 	0.91190 0.01780 0.86000 0.05700
H 	H 	0.57580 0.16390 0.67860 0.07000
H 	H 	0.08810 0.98220 0.14000 0.05700
H 	H 	0.14280 0.74270 0.00770 0.04600
H 	H 	0.16390 0.67860 0.57580 0.07000
H 	H 	0.29390 0.80170 0.90620 0.02000
H 	H 	0.67860 0.57580 0.16390 0.07000
C 	C 	0.27166 0.91870 0.09959 0.12800
C 	C 	0.35850 0.75110 0.79830 0.35700
C 	C 	0.02942 0.28556 0.89943 -0.18700
C 	C 	0.16471 0.12486 0.70383 0.02200
C 	C 	0.28556 0.89943 0.02942 -0.18700
C 	C 	0.13940 0.77600 0.49180 0.34700
C 	C 	0.21830 0.69909 0.06803 -0.10200
C 	C 	0.24989 0.92061 0.96747 0.12800
C 	C 	0.95306 0.82033 0.01757 0.09900
C 	C 	0.61232 0.10981 0.83162 0.00600
C 	C 	0.11176 0.08074 0.01756 -0.06700
C 	C 	0.91926 0.98244 0.88824 -0.06700
C 	C 	0.81175 0.32443 0.81762 -0.12200
C 	C 	0.28203 0.87720 0.22192 0.00800
C 	C 	0.05186 0.15393 0.72599 0.02000
C 	C 	0.24890 0.20170 0.64150 0.35700
C 	C 	0.93197 0.78170 0.30091 -0.10200
C 	C 	0.09959 0.27166 0.91870 0.12800
C 	C 	0.02257 0.80450 0.03814 -0.17300
C 	C 	0.77600 0.49180 0.13940 0.34700
C 	C 	0.71797 0.12280 0.77808 0.00800
C 	C 	0.08074 0.01756 0.11176 -0.06700
C 	C 	0.75011 0.07939 0.03253 0.12800
C 	C 	0.60334 0.14876 0.71810 0.03200
C 	C 	0.38768 0.89019 0.16838 0.00600
C 	C 	0.86060 0.22400 0.50820 0.34700
C 	C 	0.92061 0.96747 0.24989 0.12800
C 	C 	0.87514 0.29617 0.83529 0.02200
C 	C 	0.66150 0.71470 0.17020 0.35300
C 	C 	0.89019 0.16838 0.38768 0.00600
C 	C 	0.96032 0.10837 0.21871 -0.17300
C 	C 	0.96747 0.24989 0.92061 0.12800
C 	C 	0.81762 0.81175 0.32443 -0.12200
C 	C 	0.01202 0.26628 0.69020 0.37300
C 	C 	0.72865 0.09997 0.10559 -0.05500
C 	C 	0.08130 0.90041 0.72834 0.12800
C 	C 	0.67416 0.13329 0.23485 0.05600
C 	C 	0.20170 0.64150 0.24890 0.35700
C 	C 	0.71968 0.67763 0.14489 -0.08300
C 	C 	0.68525 0.10310 0.83545 -0.04200
C 	C 	0.26628 0.69020 0.01202 0.37300
C 	C 	0.85124 0.28190 0.39666 0.03200
C 	C 	0.97268 0.94110 0.87631 0.00700
C 	C 	0.12280 0.77808 0.71797 0.00800
C 	C 	0.76515 0.32584 0.86671 0.05600
C 	C 	0.89690 0.16455 0.31475 -0.04200
C 	C 	0.10981 0.83162 0.61232 0.00600
C 	C 	0.05890 0.12369 0.02732 0.00700
C 	C 	0.64150 0.24890 0.20170 0.35700
C 	C 	0.10837 0.21871 0.96032 -0.17300
C 	C 	0.31475 0.89690 0.16455 -0.04200
C 	C 	0.77338 0.57039 0.13093 -0.07300
C 	C 	0.72599 0.05186 0.15393 0.02000
C 	C 	0.89163 0.78129 0.03968 -0.17300
C 	C 	0.33850 0.28530 0.82980 0.35300
C 	C 	0.19550 0.96186 0.97743 -0.17300
C 	C 	0.16838 0.38768 0.89019 0.00600
C 	C 	0.84607 0.27401 0.94814 0.02000
C 	C 	0.16455 0.31475 0.89690 -0.04200
C 	C 	0.22400 0.50820 0.86060 0.34700
C 	C 	0.12486 0.70383 0.16471 0.02200
C 	C 	0.15393 0.72599 0.05186 0.02000
C 	C 	0.67763 0.14489 0.71968 -0.08300
C 	C 	0.10559 0.72865 0.09997 -0.05500
C 	C 	0.14876 0.71810 0.60334 0.03200
C 	C 	0.83162 0.61232 0.10981 0.00600
C 	C 	0.50820 0.86060 0.22400 0.34700
C 	C 	0.30091 0.93197 0.78170 -0.10200
C 	C 	0.69909 0.06803 0.21830 -0.10200
C 	C 	0.02732 0.05890 0.12369 0.00700
C 	C 	0.98244 0.88824 0.91926 -0.06700
C 	C 	0.83529 0.87514 0.29617 0.02200
C 	C 	0.14489 0.71968 0.67763 -0.08300
C 	C 	0.04694 0.17967 0.98243 0.09900
C 	C 	0.86907 0.22662 0.42961 -0.07300
C 	C 	0.98243 0.04694 0.17967 0.09900
C 	C 	0.28530 0.82980 0.33850 0.35300
C 	C 	0.82033 0.01757 0.95306 0.09900
C 	C 	0.82980 0.33850 0.28530 0.35300
C 	C 	0.88824 0.91926 0.98244 -0.06700
C 	C 	0.13329 0.23485 0.67416 0.05600
C 	C 	0.22192 0.28203 0.87720 0.00800
C 	C 	0.97743 0.19550 0.96186 -0.17300
C 	C 	0.29617 0.83529 0.87514 0.02200
C 	C 	0.94110 0.87631 0.97268 0.00700
C 	C 	0.42961 0.86907 0.22662 -0.07300
C 	C 	0.49180 0.13940 0.77600 0.34700
C 	C 	0.10057 0.97058 0.71444 -0.18700
C 	C 	0.27135 0.90003 0.89441 -0.05500
C 	C 	0.89441 0.27135 0.90003 -0.05500
C 	C 	0.57039 0.13093 0.77338 -0.07300
C 	C 	0.71444 0.10057 0.97058 -0.18700
C 	C 	0.18238 0.18825 0.67557 -0.12200
C 	C 	0.98798 0.73372 0.30980 0.37300
C 	C 	0.83545 0.68525 0.10310 -0.04200
C 	C 	0.03814 0.02257 0.80450 -0.17300
C 	C 	0.71810 0.60334 0.14876 0.03200
C 	C 	0.06803 0.21830 0.69909 -0.10200
C 	C 	0.03253 0.75011 0.07939 0.12800
C 	C 	0.32584 0.86671 0.76515 0.05600
C 	C 	0.28032 0.32237 0.85511 -0.08300
C 	C 	0.18825 0.67557 0.18238 -0.12200
C 	C 	0.12369 0.02732 0.05890 0.00700
C 	C 	0.87631 0.97268 0.94110 0.00700
C 	C 	0.09997 0.10559 0.72865 -0.05500
C 	C 	0.39666 0.85124 0.28190 0.03200
C 	C 	0.87720 0.22192 0.28203 0.00800
C 	C 	0.32443 0.81762 0.81175 -0.12200
C 	C 	0.80450 0.03814 0.02257 -0.17300
C 	C 	0.17967 0.98243 0.04694 0.09900
C 	C 	0.10310 0.83545 0.68525 -0.04200
C 	C 	0.32237 0.85511 0.28032 -0.08300
C 	C 	0.94814 0.84607 0.27401 0.02000
C 	C 	0.21871 0.96032 0.10837 -0.17300
C 	C 	0.86671 0.76515 0.32584 0.05600
C 	C 	0.28190 0.39666 0.85124 0.03200
C 	C 	0.91870 0.09959 0.27166 0.12800
C 	C 	0.78129 0.03968 0.89163 -0.17300
C 	C 	0.78170 0.30091 0.93197 -0.10200
C 	C 	0.07939 0.03253 0.75011 0.12800
C 	C 	0.27401 0.94814 0.84607 0.02000
C 	C 	0.30980 0.98798 0.73372 0.37300
C 	C 	0.79830 0.35850 0.75110 0.35700
C 	C 	0.97058 0.71444 0.10057 -0.18700
C 	C 	0.75110 0.79830 0.35850 0.35700
C 	C 	0.01756 0.11176 0.08074 -0.06700
C 	C 	0.90003 0.89441 0.27135 -0.05500
C 	C 	0.85511 0.28032 0.32237 -0.08300
C 	C 	0.22662 0.42961 0.86907 -0.07300
C 	C 	0.89943 0.02942 0.28556 -0.18700
C 	C 	0.90041 0.72834 0.08130 0.12800
C 	C 	0.69020 0.01202 0.26628 0.37300
C 	C 	0.23485 0.67416 0.13329 0.05600
C 	C 	0.72834 0.08130 0.90041 0.12800
C 	C 	0.77808 0.71797 0.12280 0.00800
C 	C 	0.67557 0.18238 0.18825 -0.12200
C 	C 	0.71470 0.17020 0.66150 0.35300
C 	C 	0.96186 0.97743 0.19550 -0.17300
C 	C 	0.13093 0.77338 0.57039 -0.07300
C 	C 	0.70383 0.16471 0.12486 0.02200
C 	C 	0.03968 0.89163 0.78129 -0.17300
C 	C 	0.01757 0.95306 0.82033 0.09900
C 	C 	0.73372 0.30980 0.98798 0.37300
C 	C 	0.17020 0.66150 0.71470 0.35300
O 	O 	0.32220 0.81051 0.38989 -0.25900
O 	O 	0.16927 0.65672 0.30160 -0.41300
O 	O 	0.81051 0.38989 0.32220 -0.25900
O 	O 	0.76128 0.30074 0.05168 -0.45100
O 	O 	0.45171 0.15023 0.71877 -0.39900
O 	O 	0.34328 0.69840 0.83073 -0.41300
O 	O 	0.33025 0.97088 0.67517 -0.26700
O 	O 	0.97088 0.67517 0.33025 -0.26700
O 	O 	0.16970 0.66875 0.78370 -0.42900
O 	O 	0.86907 0.17005 0.53361 -0.33100
O 	O 	0.21630 0.83030 0.33125 -0.42900
O 	O 	0.65672 0.30160 0.16927 -0.41300
O 	O 	0.54829 0.84977 0.28123 -0.39900
O 	O 	0.33125 0.21630 0.83030 -0.42900
O 	O 	0.71877 0.45171 0.15023 -0.39900
O 	O 	0.67517 0.33025 0.97088 -0.26700
O 	O 	0.30074 0.05168 0.76128 -0.45100
O 	O 	0.59794 0.24908 0.24478 -0.21500
O 	O 	0.69926 0.94832 0.23872 -0.45100
O 	O 	0.75522 0.40206 0.75092 -0.21500
O 	O 	0.15023 0.71877 0.45171 -0.39900
O 	O 	0.66875 0.78370 0.16970 -0.42900
O 	O 	0.53361 0.86907 0.17005 -0.33100
O 	O 	0.02912 0.32483 0.66975 -0.26700
O 	O 	0.24908 0.24478 0.59794 -0.21500
O 	O 	0.82995 0.46639 0.13093 -0.33100
O 	O 	0.23872 0.69926 0.94832 -0.45100
O 	O 	0.05168 0.76128 0.30074 -0.45100
O 	O 	0.30160 0.16927 0.65672 -0.41300
O 	O 	0.94832 0.23872 0.69926 -0.45100
O 	O 	0.17005 0.53361 0.86907 -0.33100
O 	O 	0.24478 0.59794 0.24908 -0.21500
O 	O 	0.78370 0.16970 0.66875 -0.42900
O 	O 	0.28123 0.54829 0.84977 -0.39900
O 	O 	0.38989 0.32220 0.81051 -0.25900
O 	O 	0.61011 0.67780 0.18949 -0.25900
O 	O 	0.84977 0.28123 0.54829 -0.39900
O 	O 	0.83030 0.33125 0.21630 -0.42900
O 	O 	0.67780 0.18949 0.61011 -0.25900
O 	O 	0.18949 0.61011 0.67780 -0.25900
O 	O 	0.32483 0.66975 0.02912 -0.26700
O 	O 	0.75092 0.75522 0.40206 -0.21500
O 	O 	0.66975 0.02912 0.32483 -0.26700
O 	O 	0.46639 0.13093 0.82995 -0.33100
O 	O 	0.83073 0.34328 0.69840 -0.41300
O 	O 	0.40206 0.75092 0.75522 -0.21500
O 	O 	0.13093 0.82995 0.46639 -0.33100
O 	O 	0.69840 0.83073 0.34328 -0.41300
