data_crystal

_cell_length_a 14.23150
_cell_length_b 16.89070
_cell_length_c 32.99680
_cell_angle_alpha 91.34080
_cell_angle_beta  90.00000
_cell_angle_gamma 90.00000

_symmetry_space_group_name_	'P 1'
_symmetry_space_group_name_H-M	'P 1'

loop_
_symmetry_equiv_pos_as_xyz
  x,y,z

loop_
_atom_site_label
_atom_site_type_symbol
_atom_site_fract_x
_atom_site_fract_y
_atom_site_fract_z
_atom_site_charge
Mn	Mn	0.03493 0.62019 0.31121 1.30500
Mn	Mn	0.70704 0.12809 0.92174 1.28800
Mn	Mn	0.20704 0.87191 0.57826 1.28900
Mn	Mn	0.79296 0.12809 0.42174 1.28900
Mn	Mn	0.29296 0.87191 0.07826 1.28800
Mn	Mn	0.96507 0.37981 0.68879 1.30500
Mn	Mn	0.46507 0.62019 0.81121 1.30500
Mn	Mn	0.53493 0.37981 0.18879 1.30500
Cr	Cr	0.78105 0.37782 0.31710 1.56200
Cr	Cr	0.53388 0.12771 0.08095 1.56400
Cr	Cr	0.46612 0.87229 0.91905 1.56400
Cr	Cr	0.96612 0.12771 0.58095 1.56400
Cr	Cr	0.71895 0.37782 0.81710 1.56200
Cr	Cr	0.28105 0.62218 0.18290 1.56200
Cr	Cr	0.21895 0.62218 0.68290 1.56200
Cr	Cr	0.03388 0.87229 0.41905 1.56400
C 	C 	0.86280 0.52560 0.31879 0.22300
C 	C 	0.79740 0.38260 0.74057 0.22500
C 	C 	0.20800 0.77030 0.64982 0.22500
C 	C 	0.87480 0.96580 0.42337 0.22600
C 	C 	0.21750 0.71130 0.61360 0.22000
C 	C 	0.70260 0.38260 0.24057 0.22600
C 	C 	0.05560 0.53420 0.67918 0.22400
C 	C 	0.13720 0.47440 0.68121 0.22300
C 	C 	0.45780 0.97700 0.08277 0.22700
C 	C 	0.37480 0.03420 0.07663 0.22500
C 	C 	0.28250 0.71130 0.11360 0.22000
C 	C 	0.52110 0.22130 0.15023 0.22800
C 	C 	0.28220 0.86980 0.94315 0.20600
C 	C 	0.47890 0.77870 0.84977 0.22800
C 	C 	0.78250 0.28870 0.38640 0.22000
C 	C 	0.52960 0.27880 0.11480 0.22500
C 	C 	0.79200 0.22970 0.35018 0.22500
C 	C 	0.71780 0.13020 0.05685 0.20600
C 	C 	0.55560 0.46580 0.82082 0.22400
C 	C 	0.02110 0.77870 0.34977 0.22800
C 	C 	0.94440 0.46580 0.32082 0.22400
C 	C 	0.97890 0.22130 0.65023 0.22800
C 	C 	0.88030 0.37588 0.77014 0.22200
C 	C 	0.36280 0.47440 0.18121 0.22300
C 	C 	0.47040 0.72120 0.88520 0.22500
C 	C 	0.21780 0.86980 0.44315 0.20600
C 	C 	0.15840 0.87140 0.48228 0.29500
C 	C 	0.61970 0.37588 0.27014 0.22200
C 	C 	0.70800 0.22970 0.85018 0.22500
C 	C 	0.29740 0.61740 0.75943 0.22600
C 	C 	0.65840 0.12860 0.01772 0.29600
C 	C 	0.95780 0.02300 0.41723 0.22600
C 	C 	0.97040 0.27880 0.61480 0.22500
C 	C 	0.62520 0.96580 0.92337 0.22500
C 	C 	0.04220 0.97700 0.58277 0.22600
C 	C 	0.71750 0.28870 0.88640 0.22000
C 	C 	0.20260 0.61740 0.25943 0.22500
C 	C 	0.84160 0.12860 0.51772 0.29500
C 	C 	0.78220 0.13020 0.55685 0.20600
C 	C 	0.54220 0.02300 0.91723 0.22700
C 	C 	0.02960 0.72120 0.38520 0.22500
C 	C 	0.11970 0.62412 0.22986 0.22200
C 	C 	0.38030 0.62412 0.72986 0.22200
C 	C 	0.12520 0.03420 0.57663 0.22600
C 	C 	0.29200 0.77030 0.14982 0.22500
C 	C 	0.34160 0.87140 0.98228 0.29600
C 	C 	0.44440 0.53420 0.17918 0.22400
C 	C 	0.63720 0.52560 0.81879 0.22300
O 	O 	0.21898 0.50515 0.67769 -0.38100
O 	O 	0.68488 0.38549 0.20363 -0.33300
O 	O 	0.20263 0.84195 0.64279 -0.34700
O 	O 	0.41961 0.60670 0.17801 -0.37600
O 	O 	0.69665 0.12756 0.55547 -0.16400
O 	O 	0.06955 0.87809 0.47723 -0.41600
O 	O 	0.39705 0.10655 0.07274 -0.38200
O 	O 	0.02521 0.75444 0.42038 -0.37700
O 	O 	0.29374 0.73940 0.18471 -0.38200
O 	O 	0.80335 0.12756 0.05547 -0.16400
O 	O 	0.16879 0.86572 0.41053 -0.38400
O 	O 	0.01880 0.74967 0.31483 -0.33100
O 	O 	0.81512 0.38549 0.70363 -0.33300
O 	O 	0.05840 0.90545 0.58523 -0.32800
O 	O 	0.31512 0.61451 0.79637 -0.33300
O 	O 	0.11819 0.40343 0.68527 -0.32400
O 	O 	0.43045 0.87809 0.97723 -0.41500
O 	O 	0.64284 0.37254 0.30757 -0.38100
O 	O 	0.19970 0.86658 0.51496 -0.39600
O 	O 	0.27220 0.63928 0.12351 -0.38000
O 	O 	0.70596 0.99443 0.92363 -0.33400
O 	O 	0.28360 0.61589 0.24267 -0.38400
O 	O 	0.20596 0.00557 0.57637 -0.33400
O 	O 	0.35716 0.62746 0.69243 -0.38100
O 	O 	0.70263 0.15805 0.85721 -0.34700
O 	O 	0.85716 0.37254 0.80757 -0.38100
O 	O 	0.20626 0.73940 0.68471 -0.38200
O 	O 	0.47409 0.49222 0.82155 -0.32900
O 	O 	0.83121 0.13428 0.58947 -0.38400
O 	O 	0.47479 0.75444 0.92038 -0.37700
O 	O 	0.51571 0.14834 0.14008 -0.37800
O 	O 	0.48429 0.85166 0.85992 -0.37800
O 	O 	0.61819 0.59657 0.81473 -0.32400
O 	O 	0.79404 0.99443 0.42363 -0.33400
O 	O 	0.71640 0.38411 0.75733 -0.38400
O 	O 	0.46107 0.62485 0.74374 -0.32500
O 	O 	0.03801 0.64981 0.37712 -0.32600
O 	O 	0.38181 0.40343 0.18527 -0.32400
O 	O 	0.80030 0.13342 0.48504 -0.39600
O 	O 	0.78102 0.49485 0.32231 -0.38100
O 	O 	0.96202 0.01073 0.58594 -0.38000
O 	O 	0.79737 0.15805 0.35721 -0.34700
O 	O 	0.88181 0.59657 0.31473 -0.32400
O 	O 	0.71898 0.49485 0.82231 -0.38100
O 	O 	0.69970 0.13342 0.98504 -0.39600
O 	O 	0.78360 0.38411 0.25733 -0.38400
O 	O 	0.28720 0.73796 0.07911 -0.32900
O 	O 	0.21640 0.61589 0.74267 -0.38400
O 	O 	0.30335 0.87244 0.44453 -0.16400
O 	O 	0.29404 0.00557 0.07637 -0.33400
O 	O 	0.46199 0.64981 0.87712 -0.32600
O 	O 	0.77220 0.36072 0.37649 -0.38000
O 	O 	0.33121 0.86572 0.91053 -0.38400
O 	O 	0.79374 0.26060 0.31529 -0.38200
O 	O 	0.60295 0.89345 0.92726 -0.38200
O 	O 	0.18488 0.61451 0.29637 -0.33300
O 	O 	0.03893 0.62485 0.24374 -0.32500
O 	O 	0.71280 0.26204 0.92089 -0.32900
O 	O 	0.52521 0.24556 0.07962 -0.37700
O 	O 	0.10295 0.10655 0.57274 -0.38100
O 	O 	0.29737 0.84195 0.14279 -0.34700
O 	O 	0.98120 0.25033 0.68517 -0.33100
O 	O 	0.93045 0.12191 0.52277 -0.41600
O 	O 	0.14284 0.62746 0.19243 -0.38100
O 	O 	0.22780 0.63928 0.62351 -0.38000
O 	O 	0.55840 0.09455 0.91477 -0.32800
O 	O 	0.98429 0.14834 0.64008 -0.37900
O 	O 	0.30030 0.86658 0.01496 -0.39600
O 	O 	0.96199 0.35019 0.62288 -0.32600
O 	O 	0.96107 0.37515 0.75626 -0.32500
O 	O 	0.52591 0.50778 0.17845 -0.32900
O 	O 	0.53893 0.37515 0.25626 -0.32500
O 	O 	0.53798 0.01073 0.08594 -0.37900
O 	O 	0.72780 0.36072 0.87649 -0.38000
O 	O 	0.89705 0.89345 0.42726 -0.38100
O 	O 	0.58039 0.39330 0.82199 -0.37600
O 	O 	0.56955 0.12191 0.02277 -0.41500
O 	O 	0.51880 0.25033 0.18517 -0.33000
O 	O 	0.97409 0.50778 0.67845 -0.32900
O 	O 	0.19665 0.87244 0.94453 -0.16400
O 	O 	0.02591 0.49222 0.32155 -0.32900
O 	O 	0.48120 0.74967 0.81483 -0.33000
O 	O 	0.66879 0.13428 0.08947 -0.38400
O 	O 	0.94160 0.09455 0.41477 -0.32800
O 	O 	0.78720 0.26204 0.42089 -0.32900
O 	O 	0.21280 0.73796 0.57911 -0.32900
O 	O 	0.46202 0.98927 0.91406 -0.37900
O 	O 	0.91961 0.39330 0.32199 -0.37600
O 	O 	0.53801 0.35019 0.12288 -0.32600
O 	O 	0.70626 0.26060 0.81529 -0.38200
O 	O 	0.01571 0.85166 0.35992 -0.37900
O 	O 	0.08039 0.60670 0.67801 -0.37600
O 	O 	0.03798 0.98927 0.41406 -0.38000
O 	O 	0.97479 0.24556 0.57962 -0.37700
O 	O 	0.28102 0.50515 0.17769 -0.38100
O 	O 	0.44160 0.90545 0.08523 -0.32800
