data_crystal

_cell_length_a 12.41100
_cell_length_b 19.57090
_cell_length_c 15.66110
_cell_angle_alpha 90.00000
_cell_angle_beta  90.00000
_cell_angle_gamma 90.00000

_symmetry_space_group_name_	'P 1'
_symmetry_space_group_name_H-M	'P 1'

loop_
_symmetry_equiv_pos_as_xyz
  x,y,z

loop_
_atom_site_label
_atom_site_type_symbol
_atom_site_fract_x
_atom_site_fract_y
_atom_site_fract_z
_atom_site_charge
N 	N 	0.20970 0.13440 0.07120 -0.17800
N 	N 	0.29430 0.18070 0.83500 -0.22600
H 	H 	0.35440 0.15990 0.82660 0.14900
N 	N 	0.13580 0.22580 0.80970 -0.21200
O 	O 	0.42940 0.23670 0.14120 -0.38900
O 	O 	0.36080 0.14210 0.19630 -0.27000
O 	O 	0.11190 0.22360 0.12100 -0.24700
O 	O 	0.30410 0.04330 0.03140 -0.22000
C 	C 	0.36870 0.18480 0.14040 0.30100
C 	C 	0.30030 0.17940 0.05970 0.06200
C 	C 	0.11750 0.16340 0.10540 0.24500
C 	C 	0.22190 0.06520 0.06020 0.24600
C 	C 	0.13180 0.02040 0.08350 -0.10000
C 	C 	0.03570 0.04950 0.11310 0.06000
C 	C 	0.02510 0.11840 0.12420 -0.14300
C 	C 	0.93090 0.14670 0.15380 0.08800
H 	H 	0.92510 0.19380 0.16080 0.03000
C 	C 	0.84690 0.10570 0.17260 -0.10500
H 	H 	0.78380 0.12540 0.19310 0.09300
C 	C 	0.85080 0.03720 0.16290 -0.00000
H 	H 	0.79020 0.01110 0.17560 0.04900
C 	C 	0.94720 0.00380 0.13320 -0.00600
C 	C 	0.96070 0.93460 0.12340 0.04500
H 	H 	0.90300 0.90580 0.13530 0.02500
C 	C 	0.05340 0.90730 0.09750 -0.15400
H 	H 	0.06080 0.86010 0.09530 0.08100
C 	C 	0.13980 0.94910 0.07340 0.03900
H 	H 	0.20210 0.92980 0.05090 0.03800
C 	C 	0.32700 0.21350 0.98870 -0.13500
H 	H 	0.38850 0.24070 0.98830 0.09900
C 	C 	0.25960 0.20860 0.91030 0.13000
C 	C 	0.16100 0.23590 0.89310 -0.05700
H 	H 	0.11740 0.25810 0.93260 0.06100
C 	C 	0.21630 0.19220 0.77620 0.12300
H 	H 	0.21970 0.17800 0.71960 -0.00800
N 	N 	0.29030 0.36560 0.57120 -0.17100
N 	N 	0.20570 0.31930 0.33500 -0.22600
H 	H 	0.14560 0.34010 0.32660 0.14100
N 	N 	0.36420 0.27420 0.30970 -0.20900
O 	O 	0.07060 0.26330 0.64120 -0.40400
O 	O 	0.13920 0.35790 0.69630 -0.28000
O 	O 	0.38810 0.27640 0.62100 -0.22900
O 	O 	0.19590 0.45670 0.53140 -0.22300
C 	C 	0.13130 0.31520 0.64040 0.30400
C 	C 	0.19970 0.32060 0.55970 0.05500
C 	C 	0.38250 0.33660 0.60540 0.22100
C 	C 	0.27810 0.43480 0.56020 0.23200
C 	C 	0.36820 0.47960 0.58350 -0.06200
C 	C 	0.46430 0.45050 0.61310 0.03400
C 	C 	0.47490 0.38160 0.62420 -0.06000
C 	C 	0.56910 0.35330 0.65380 -0.02400
H 	H 	0.57490 0.30620 0.66080 0.06000
C 	C 	0.65310 0.39430 0.67260 -0.02200
H 	H 	0.71620 0.37460 0.69310 0.06500
C 	C 	0.64920 0.46280 0.66290 -0.07100
H 	H 	0.70980 0.48890 0.67560 0.07600
C 	C 	0.55280 0.49620 0.63320 0.03800
C 	C 	0.53930 0.56540 0.62340 -0.08200
H 	H 	0.59700 0.59420 0.63530 0.06400
C 	C 	0.44660 0.59270 0.59750 -0.02600
H 	H 	0.43920 0.63990 0.59530 0.04400
C 	C 	0.36020 0.55090 0.57340 -0.02600
H 	H 	0.29790 0.57020 0.55090 0.05900
C 	C 	0.17300 0.28650 0.48870 -0.12900
H 	H 	0.11150 0.25930 0.48830 0.09000
C 	C 	0.24040 0.29140 0.41030 0.12600
C 	C 	0.33900 0.26410 0.39310 -0.05200
H 	H 	0.38260 0.24190 0.43260 0.06900
C 	C 	0.28370 0.30780 0.27620 0.12400
H 	H 	0.28030 0.32200 0.21960 -0.00800
N 	N 	0.79030 0.13440 0.42880 -0.16400
N 	N 	0.70570 0.18070 0.66500 -0.22700
H 	H 	0.64560 0.15990 0.67340 0.14900
N 	N 	0.86420 0.22580 0.69030 -0.20000
O 	O 	0.57060 0.23670 0.35880 -0.39000
O 	O 	0.63920 0.14210 0.30370 -0.27300
O 	O 	0.88810 0.22360 0.37900 -0.21000
O 	O 	0.69590 0.04330 0.46860 -0.21100
C 	C 	0.63130 0.18480 0.35960 0.30300
C 	C 	0.69970 0.17940 0.44030 0.05900
C 	C 	0.88250 0.16340 0.39460 0.19600
C 	C 	0.77810 0.06520 0.43980 0.21600
C 	C 	0.86820 0.02040 0.41650 -0.01800
C 	C 	0.96430 0.04950 0.38690 0.00600
C 	C 	0.97490 0.11840 0.37580 0.02600
C 	C 	0.06910 0.14670 0.34620 -0.13900
H 	H 	0.07490 0.19380 0.33920 0.09000
C 	C 	0.15310 0.10570 0.32740 0.06300
H 	H 	0.21620 0.12540 0.30690 0.03300
C 	C 	0.14920 0.03720 0.33710 -0.14400
H 	H 	0.20980 0.01110 0.32440 0.09800
C 	C 	0.05280 0.00380 0.36680 0.08400
C 	C 	0.03930 0.93460 0.37660 -0.21300
H 	H 	0.09700 0.90580 0.36470 0.10400
C 	C 	0.94660 0.90730 0.40250 0.10800
H 	H 	0.93920 0.86010 0.40470 0.00700
C 	C 	0.86020 0.94910 0.42660 -0.09600
H 	H 	0.79790 0.92980 0.44910 0.08700
C 	C 	0.67300 0.21350 0.51130 -0.13100
H 	H 	0.61150 0.24070 0.51170 0.09900
C 	C 	0.74040 0.20860 0.58970 0.13300
C 	C 	0.83900 0.23590 0.60690 -0.05200
H 	H 	0.88260 0.25810 0.56740 0.07800
C 	C 	0.78370 0.19220 0.72380 0.12800
H 	H 	0.78030 0.17800 0.78040 -0.00600
N 	N 	0.70970 0.36560 0.92880 -0.17200
N 	N 	0.79430 0.31930 0.16500 -0.22900
H 	H 	0.85440 0.34010 0.17340 0.15600
N 	N 	0.63580 0.27420 0.19030 -0.20900
O 	O 	0.92940 0.26330 0.85880 -0.37100
O 	O 	0.86080 0.35790 0.80370 -0.26100
O 	O 	0.61190 0.27640 0.87900 -0.22900
O 	O 	0.80410 0.45670 0.96860 -0.20800
C 	C 	0.86870 0.31520 0.85960 0.29900
C 	C 	0.80030 0.32060 0.94030 0.06400
C 	C 	0.61750 0.33660 0.89460 0.22000
C 	C 	0.72190 0.43480 0.93980 0.22900
C 	C 	0.63180 0.47960 0.91650 -0.05700
C 	C 	0.53570 0.45050 0.88690 0.03200
C 	C 	0.52510 0.38160 0.87580 -0.05900
C 	C 	0.43090 0.35330 0.84620 -0.02500
H 	H 	0.42510 0.30620 0.83920 0.06000
C 	C 	0.34690 0.39430 0.82740 -0.02300
H 	H 	0.28380 0.37460 0.80690 0.06100
C 	C 	0.35080 0.46280 0.83710 -0.07200
H 	H 	0.29020 0.48890 0.82440 0.07000
C 	C 	0.44720 0.49620 0.86680 0.03800
C 	C 	0.46070 0.56540 0.87660 -0.08400
H 	H 	0.40300 0.59420 0.86470 0.06400
C 	C 	0.55340 0.59270 0.90250 -0.02300
H 	H 	0.56080 0.63990 0.90470 0.04400
C 	C 	0.63980 0.55090 0.92660 -0.02900
H 	H 	0.70210 0.57020 0.94910 0.06500
C 	C 	0.82700 0.28650 0.01130 -0.13400
H 	H 	0.88850 0.25930 0.01170 0.10700
C 	C 	0.75960 0.29140 0.08970 0.13600
C 	C 	0.66100 0.26410 0.10690 -0.05600
H 	H 	0.61740 0.24190 0.06740 0.07000
C 	C 	0.71630 0.30780 0.22380 0.12800
H 	H 	0.71970 0.32200 0.28040 -0.00600
Cu	Cu	0.50000 0.24927 0.25000 0.90900
Cu	Cu	-0.00000 0.25073 0.75000 0.89300
N 	N 	0.79030 0.86560 0.92880 -0.16400
N 	N 	0.70570 0.81930 0.16500 -0.22700
H 	H 	0.64560 0.84010 0.17340 0.14900
N 	N 	0.86420 0.77420 0.19030 -0.20000
O 	O 	0.57060 0.76330 0.85880 -0.39100
O 	O 	0.63920 0.85790 0.80370 -0.27300
O 	O 	0.88810 0.77640 0.87900 -0.21000
O 	O 	0.69590 0.95670 0.96860 -0.21100
C 	C 	0.63130 0.81520 0.85960 0.30300
C 	C 	0.69970 0.82060 0.94030 0.05900
C 	C 	0.88250 0.83660 0.89460 0.19500
C 	C 	0.77810 0.93480 0.93980 0.21500
C 	C 	0.86820 0.97960 0.91650 -0.01600
C 	C 	0.96430 0.95050 0.88690 0.00400
C 	C 	0.97490 0.88160 0.87580 0.02800
C 	C 	0.06910 0.85330 0.84620 -0.14100
H 	H 	0.07490 0.80620 0.83920 0.09100
C 	C 	0.15310 0.89430 0.82740 0.06500
H 	H 	0.21620 0.87460 0.80690 0.03200
C 	C 	0.14920 0.96280 0.83710 -0.14600
H 	H 	0.20980 0.98890 0.82440 0.09800
C 	C 	0.05280 0.99620 0.86680 0.08600
C 	C 	0.03930 0.06540 0.87660 -0.21600
H 	H 	0.09700 0.09420 0.86470 0.10400
C 	C 	0.94660 0.09270 0.90250 0.11100
H 	H 	0.93920 0.13990 0.90470 0.00600
C 	C 	0.86020 0.05090 0.92660 -0.09800
H 	H 	0.79790 0.07020 0.94910 0.08700
C 	C 	0.67300 0.78650 0.01130 -0.13000
H 	H 	0.61150 0.75930 0.01170 0.09900
C 	C 	0.74040 0.79140 0.08970 0.13300
C 	C 	0.83900 0.76410 0.10690 -0.05200
H 	H 	0.88260 0.74190 0.06740 0.07800
C 	C 	0.78370 0.80780 0.22380 0.12800
H 	H 	0.78030 0.82200 0.28040 -0.00600
N 	N 	0.70970 0.63440 0.42880 -0.17200
N 	N 	0.79430 0.68070 0.66500 -0.22900
H 	H 	0.85440 0.65990 0.67340 0.15600
N 	N 	0.63580 0.72580 0.69030 -0.20900
O 	O 	0.92940 0.73670 0.35880 -0.37100
O 	O 	0.86080 0.64210 0.30370 -0.26100
O 	O 	0.61190 0.72360 0.37900 -0.22900
O 	O 	0.80410 0.54330 0.46860 -0.20700
C 	C 	0.86870 0.68480 0.35960 0.29900
C 	C 	0.80030 0.67940 0.44030 0.06500
C 	C 	0.61750 0.66340 0.39460 0.22000
C 	C 	0.72190 0.56520 0.43980 0.22900
C 	C 	0.63180 0.52040 0.41650 -0.05700
C 	C 	0.53570 0.54950 0.38690 0.03200
C 	C 	0.52510 0.61840 0.37580 -0.05900
C 	C 	0.43090 0.64670 0.34620 -0.02500
H 	H 	0.42510 0.69380 0.33920 0.06000
C 	C 	0.34690 0.60570 0.32740 -0.02200
H 	H 	0.28380 0.62540 0.30690 0.06100
C 	C 	0.35080 0.53720 0.33710 -0.07200
H 	H 	0.29020 0.51110 0.32440 0.07000
C 	C 	0.44720 0.50380 0.36680 0.03900
C 	C 	0.46070 0.43460 0.37660 -0.08400
H 	H 	0.40300 0.40580 0.36470 0.06400
C 	C 	0.55340 0.40730 0.40250 -0.02300
H 	H 	0.56080 0.36010 0.40470 0.04400
C 	C 	0.63980 0.44910 0.42660 -0.02900
H 	H 	0.70210 0.42980 0.44910 0.06500
C 	C 	0.82700 0.71350 0.51130 -0.13500
H 	H 	0.88850 0.74070 0.51170 0.10800
C 	C 	0.75960 0.70860 0.58970 0.13600
C 	C 	0.66100 0.73590 0.60690 -0.05700
H 	H 	0.61740 0.75810 0.56740 0.07000
C 	C 	0.71630 0.69220 0.72380 0.12800
H 	H 	0.71970 0.67800 0.78040 -0.00600
N 	N 	0.20970 0.86560 0.57120 -0.17900
N 	N 	0.29430 0.81930 0.33500 -0.22700
H 	H 	0.35440 0.84010 0.32660 0.14800
N 	N 	0.13580 0.77420 0.30970 -0.21300
O 	O 	0.42940 0.76330 0.64120 -0.39100
O 	O 	0.36080 0.85790 0.69630 -0.27100
O 	O 	0.11190 0.77640 0.62100 -0.24800
O 	O 	0.30410 0.95670 0.53140 -0.22000
C 	C 	0.36870 0.81520 0.64040 0.30100
C 	C 	0.30030 0.82060 0.55970 0.06000
C 	C 	0.11750 0.83660 0.60540 0.24600
C 	C 	0.22190 0.93480 0.56020 0.24600
C 	C 	0.13180 0.97960 0.58350 -0.10100
C 	C 	0.03570 0.95050 0.61310 0.06000
C 	C 	0.02510 0.88160 0.62420 -0.14600
C 	C 	0.93090 0.85330 0.65380 0.09200
H 	H 	0.92510 0.80620 0.66080 0.03000
C 	C 	0.84690 0.89430 0.67260 -0.10800
H 	H 	0.78380 0.87460 0.69310 0.09300
C 	C 	0.85080 0.96280 0.66290 0.00200
H 	H 	0.79020 0.98890 0.67560 0.04800
C 	C 	0.94720 0.99620 0.63320 -0.00800
C 	C 	0.96070 0.06540 0.62340 0.04900
H 	H 	0.90300 0.09420 0.63530 0.02400
C 	C 	0.05340 0.09270 0.59750 -0.15800
H 	H 	0.06080 0.13990 0.59530 0.08200
C 	C 	0.13980 0.05090 0.57340 0.04100
H 	H 	0.20210 0.07020 0.55090 0.03700
C 	C 	0.32700 0.78650 0.48870 -0.13300
H 	H 	0.38850 0.75930 0.48830 0.09900
C 	C 	0.25960 0.79140 0.41030 0.13000
C 	C 	0.16100 0.76410 0.39310 -0.05600
H 	H 	0.11740 0.74190 0.43260 0.06100
C 	C 	0.21630 0.80780 0.27620 0.12300
H 	H 	0.21970 0.82200 0.21960 -0.00800
N 	N 	0.29030 0.63440 0.07120 -0.17200
N 	N 	0.20570 0.68070 0.83500 -0.22600
H 	H 	0.14560 0.65990 0.82660 0.14000
N 	N 	0.36420 0.72580 0.80970 -0.20900
O 	O 	0.07060 0.73670 0.14120 -0.40300
O 	O 	0.13920 0.64210 0.19630 -0.28000
O 	O 	0.38810 0.72360 0.12100 -0.22900
O 	O 	0.19590 0.54330 0.03140 -0.22200
C 	C 	0.13130 0.68480 0.14040 0.30300
C 	C 	0.19970 0.67940 0.05970 0.05700
C 	C 	0.38250 0.66340 0.10540 0.22100
C 	C 	0.27810 0.56520 0.06020 0.23200
C 	C 	0.36820 0.52040 0.08350 -0.06100
C 	C 	0.46430 0.54950 0.11310 0.03400
C 	C 	0.47490 0.61840 0.12420 -0.06000
C 	C 	0.56910 0.64670 0.15380 -0.02400
H 	H 	0.57490 0.69380 0.16080 0.06000
C 	C 	0.65310 0.60570 0.17260 -0.02100
H 	H 	0.71620 0.62540 0.19310 0.06500
C 	C 	0.64920 0.53720 0.16290 -0.07100
H 	H 	0.70980 0.51110 0.17560 0.07600
C 	C 	0.55280 0.50380 0.13320 0.03800
C 	C 	0.53930 0.43460 0.12340 -0.08200
H 	H 	0.59700 0.40580 0.13530 0.06400
C 	C 	0.44660 0.40730 0.09750 -0.02600
H 	H 	0.43920 0.36010 0.09530 0.04400
C 	C 	0.36020 0.44910 0.07340 -0.02600
H 	H 	0.29790 0.42980 0.05090 0.06000
C 	C 	0.17300 0.71350 0.98870 -0.13100
H 	H 	0.11150 0.74070 0.98830 0.09100
C 	C 	0.24040 0.70860 0.91030 0.12700
C 	C 	0.33900 0.73590 0.89310 -0.05200
H 	H 	0.38260 0.75810 0.93260 0.06800
C 	C 	0.28370 0.69220 0.77620 0.12400
H 	H 	0.28030 0.67800 0.71960 -0.00800
Cu	Cu	0.50000 0.75073 0.75000 0.90900
Cu	Cu	0.00000 0.74927 0.25000 0.89300
