data_crystal

_cell_length_a 22.83780
_cell_length_b 24.88340
_cell_length_c 24.38020
_cell_angle_alpha 105.49700
_cell_angle_beta  90.00000
_cell_angle_gamma 90.00000

_symmetry_space_group_name_	'P 1'
_symmetry_space_group_name_H-M	'P 1'

loop_
_symmetry_equiv_pos_as_xyz
  x,y,z

loop_
_atom_site_label
_atom_site_type_symbol
_atom_site_fract_x
_atom_site_fract_y
_atom_site_fract_z
_atom_site_charge
Mn	Mn	0.70278 0.91608 0.05965 1.31100
Mn	Mn	0.31544 0.24232 0.50284 1.30800
Mn	Mn	0.68456 0.75768 0.49716 1.31000
Mn	Mn	0.05789 0.50000 0.75000 1.30800
Mn	Mn	0.70298 0.57006 0.94591 1.30800
Mn	Mn	0.29702 0.57006 0.44591 1.30800
Mn	Mn	0.06284 0.00000 0.25000 1.28600
Mn	Mn	0.29722 0.08392 0.94035 1.30700
Mn	Mn	0.29722 0.91608 0.55965 1.31000
Mn	Mn	0.31544 0.75768 0.99716 1.30900
Mn	Mn	0.70278 0.08392 0.44035 1.30700
Mn	Mn	0.29702 0.42994 0.05409 1.30900
Mn	Mn	0.68456 0.24232 0.00284 1.31000
Mn	Mn	0.93716 0.00000 0.75000 1.28700
Mn	Mn	0.70298 0.42994 0.55409 1.30900
Mn	Mn	0.94211 0.50000 0.25000 1.30900
Cr	Cr	0.78806 0.95914 0.57158 1.58300
Cr	Cr	0.44812 0.25627 0.00019 1.56700
Cr	Cr	0.20554 0.44026 0.57064 1.56800
Cr	Cr	0.17892 0.50000 0.25000 1.56800
Cr	Cr	0.21194 0.95914 0.07158 1.58300
Cr	Cr	0.44812 0.74373 0.49981 1.56700
Cr	Cr	0.20554 0.55974 0.92936 1.56800
Cr	Cr	0.79446 0.44026 0.07064 1.56800
Cr	Cr	0.17299 0.00000 0.75000 1.54400
Cr	Cr	0.79446 0.55974 0.42936 1.56800
Cr	Cr	0.82701 0.00000 0.25000 1.54300
Cr	Cr	0.78806 0.04086 0.92842 1.55100
Cr	Cr	0.82108 0.50000 0.75000 1.56800
Cr	Cr	0.55188 0.74373 0.99981 1.56600
Cr	Cr	0.55188 0.25627 0.50019 1.56700
Cr	Cr	0.21194 0.04086 0.42842 1.55100
C 	C 	0.75140 0.14140 0.99460 0.23200
C 	C 	0.60300 0.84250 0.05300 0.23400
C 	C 	0.26850 0.13890 0.43260 0.22700
C 	C 	0.73770 0.65560 0.42870 0.22400
C 	C 	0.56120 0.23480 0.02540 0.23100
C 	C 	0.27990 0.50180 0.98060 0.22300
C 	C 	0.60220 0.64280 0.94980 0.21300
C 	C 	0.85080 0.49880 0.16640 0.22700
C 	C 	0.63800 0.18190 0.50150 0.21300
C 	C 	0.93640 0.47900 0.76830 0.22700
C 	C 	0.77860 0.92930 0.15600 0.20500
C 	C 	0.24070 0.33800 0.50870 0.24700
C 	C 	0.25080 0.01300 0.83730 0.16400
C 	C 	0.94180 0.01980 0.23020 0.17400
C 	C 	0.84660 0.00900 0.67020 0.17400
C 	C 	0.94180 0.98020 0.26980 0.28200
C 	C 	0.24860 0.85860 0.00540 0.24000
C 	C 	0.43510 0.73490 0.02230 0.23700
C 	C 	0.25540 0.49460 0.16270 0.23900
C 	C 	0.75140 0.85860 0.50540 0.23300
C 	C 	0.39780 0.64280 0.44980 0.21500
C 	C 	0.60300 0.15750 0.44700 0.23100
C 	C 	0.22020 0.03320 0.00780 0.24100
C 	C 	0.36500 0.33340 0.99390 0.23500
C 	C 	0.78340 0.48700 0.49440 0.23100
C 	C 	0.36200 0.18190 0.00150 0.21500
C 	C 	0.21660 0.48700 0.99440 0.22900
C 	C 	0.25080 0.98700 0.66270 0.31500
C 	C 	0.72010 0.49820 0.01940 0.22700
C 	C 	0.26850 0.86110 0.06740 0.22600
C 	C 	0.11100 0.44650 0.64130 0.23200
C 	C 	0.43510 0.26510 0.47770 0.23200
C 	C 	0.56490 0.73490 0.52230 0.23500
C 	C 	0.21660 0.51300 0.50560 0.23100
C 	C 	0.73150 0.86110 0.56740 0.22700
C 	C 	0.56120 0.76520 0.47460 0.23000
C 	C 	0.75930 0.66200 0.49130 0.24700
C 	C 	0.88900 0.55350 0.35870 0.23200
C 	C 	0.06360 0.47900 0.26830 0.22700
C 	C 	0.22140 0.92930 0.65600 0.20500
C 	C 	0.63800 0.81810 0.99850 0.21500
C 	C 	0.36200 0.81810 0.49850 0.21700
C 	C 	0.39780 0.35720 0.05020 0.21600
C 	C 	0.74920 0.98700 0.16270 0.31600
C 	C 	0.26230 0.65560 0.92870 0.22400
C 	C 	0.05820 0.98020 0.76980 0.28200
C 	C 	0.71670 0.01960 0.52210 0.14800
C 	C 	0.25540 0.50540 0.33730 0.24000
C 	C 	0.75930 0.33800 0.00870 0.25000
C 	C 	0.24070 0.66200 0.99130 0.24400
C 	C 	0.36500 0.66660 0.50610 0.23600
C 	C 	0.43880 0.76520 0.97460 0.22800
C 	C 	0.77980 0.03320 0.50780 0.23900
C 	C 	0.39700 0.84250 0.55300 0.23200
C 	C 	0.78340 0.51300 0.00560 0.23300
C 	C 	0.28330 0.01960 0.02210 0.15000
C 	C 	0.77980 0.96680 0.99220 0.20300
C 	C 	0.63500 0.66660 0.00610 0.23800
C 	C 	0.77510 0.43630 0.65080 0.22400
C 	C 	0.05820 0.01980 0.73020 0.17500
C 	C 	0.11740 0.95670 0.13940 0.28600
C 	C 	0.28330 0.98040 0.47790 0.30500
C 	C 	0.74460 0.50540 0.83730 0.24000
C 	C 	0.60220 0.35720 0.55020 0.21500
C 	C 	0.11100 0.55350 0.85870 0.23200
C 	C 	0.84660 0.99100 0.82980 0.28100
C 	C 	0.24860 0.14140 0.49460 0.23600
C 	C 	0.14920 0.50120 0.83360 0.22800
C 	C 	0.72010 0.50180 0.48060 0.22500
C 	C 	0.56490 0.26510 0.97770 0.23100
C 	C 	0.22140 0.07070 0.84400 0.23600
C 	C 	0.15340 0.99100 0.32980 0.28200
C 	C 	0.43880 0.23480 0.52540 0.22900
C 	C 	0.77860 0.07070 0.34400 0.23700
C 	C 	0.22020 0.96680 0.49220 0.20500
C 	C 	0.88900 0.44650 0.14130 0.23200
C 	C 	0.88260 0.95670 0.63940 0.28500
C 	C 	0.22490 0.56370 0.34920 0.22400
C 	C 	0.77510 0.56370 0.84920 0.22400
C 	C 	0.39700 0.15750 0.94700 0.23000
C 	C 	0.73770 0.34440 0.07130 0.22300
C 	C 	0.63500 0.33340 0.49390 0.23600
C 	C 	0.74460 0.49460 0.66270 0.23900
C 	C 	0.71670 0.98040 0.97790 0.30100
C 	C 	0.73150 0.13890 0.93260 0.22800
C 	C 	0.06360 0.52100 0.23170 0.22700
C 	C 	0.74920 0.01300 0.33730 0.16300
C 	C 	0.26230 0.34440 0.57130 0.22300
C 	C 	0.85080 0.50120 0.33360 0.22800
C 	C 	0.22490 0.43630 0.15080 0.22400
C 	C 	0.14920 0.49880 0.66640 0.22700
C 	C 	0.11740 0.04330 0.36060 0.17900
C 	C 	0.88260 0.04330 0.86060 0.18000
C 	C 	0.27990 0.49820 0.51940 0.22500
C 	C 	0.93640 0.52100 0.73170 0.22700
C 	C 	0.15340 0.00900 0.17020 0.17400
O 	O 	0.29710 0.17720 0.42460 -0.33100
O 	O 	0.38820 0.70960 0.53880 -0.38100
O 	O 	0.80370 0.50140 0.14050 -0.38200
O 	O 	0.86580 0.04010 0.71480 -0.32800
O 	O 	0.13420 0.95990 0.28520 -0.31400
O 	O 	0.18010 0.98950 0.46990 -0.34100
O 	O 	0.32200 0.51710 0.49950 -0.33100
O 	O 	0.25200 0.90530 0.10490 -0.36700
O 	O 	0.67490 0.96290 0.00110 -0.32700
O 	O 	0.67800 0.48290 0.50050 -0.33100
O 	O 	0.31580 0.15860 0.00880 -0.32700
O 	O 	0.23980 0.11120 0.88160 -0.33300
O 	O 	0.28290 0.46600 0.55270 -0.37900
O 	O 	0.71120 0.99110 0.12810 -0.33800
O 	O 	0.81930 0.92840 0.19080 -0.35100
O 	O 	0.61860 0.40200 0.58240 -0.31800
O 	O 	0.21000 0.37720 0.50230 -0.39300
O 	O 	0.18070 0.92840 0.69080 -0.35200
O 	O 	0.98370 0.53820 0.71940 -0.33200
O 	O 	0.10810 0.96940 0.78623 -0.36500
O 	O 	0.13460 0.06820 0.40972 -0.38200
O 	O 	0.21130 0.45420 0.02420 -0.31900
O 	O 	0.76130 0.47040 0.79240 -0.38400
O 	O 	0.12800 0.41710 0.59320 -0.37900
O 	O 	0.11430 0.53350 0.21650 -0.37400
O 	O 	0.11430 0.46650 0.28350 -0.37600
O 	O 	0.20010 0.98420 0.35520 -0.36000
O 	O 	0.38680 0.72770 0.04050 -0.33000
O 	O 	0.86540 0.06820 0.90972 -0.38300
O 	O 	0.76020 0.88880 0.11840 -0.31700
O 	O 	0.18460 0.56720 0.31410 -0.37700
O 	O 	0.82400 0.48980 0.02610 -0.38200
O 	O 	0.86950 0.46640 0.29040 -0.32300
O 	O 	0.67910 0.35790 0.48480 -0.33900
O 	O 	0.79000 0.62280 0.49770 -0.39100
O 	O 	0.17600 0.48980 0.52610 -0.38200
O 	O 	0.81990 0.01050 0.53010 -0.41200
O 	O 	0.28880 0.99110 0.62810 -0.33800
O 	O 	0.74550 0.29550 0.97240 -0.33600
O 	O 	0.87200 0.58290 0.40680 -0.37700
O 	O 	0.01050 0.96228 0.78160 -0.32100
O 	O 	0.25200 0.09470 0.39510 -0.38900
O 	O 	0.81540 0.56720 0.81410 -0.37700
O 	O 	0.70790 0.49840 0.87100 -0.33200
O 	O 	0.75870 0.60120 0.89050 -0.33300
O 	O 	0.24130 0.39880 0.10950 -0.33400
O 	O 	0.51550 0.72020 0.53760 -0.38300
O 	O 	0.87200 0.41710 0.09320 -0.37800
O 	O 	0.50910 0.77280 0.45900 -0.37900
O 	O 	0.44120 0.18510 0.94047 -0.38700
O 	O 	0.67800 0.51710 0.99950 -0.33300
O 	O 	0.60630 0.77850 0.45530 -0.32600
O 	O 	0.51550 0.27980 0.96240 -0.38600
O 	O 	0.74800 0.90530 0.60490 -0.36800
O 	O 	0.28290 0.53400 0.94730 -0.37900
O 	O 	0.61320 0.72770 0.54050 -0.33100
O 	O 	0.38140 0.40200 0.08240 -0.31800
O 	O 	0.44130 0.67130 0.44100 -0.37100
O 	O 	0.49090 0.22720 0.54100 -0.38800
O 	O 	0.67910 0.64210 0.01520 -0.33600
O 	O 	0.61180 0.29040 0.46120 -0.38400
O 	O 	0.93110 0.56310 0.33130 -0.32900
O 	O 	0.77990 0.09990 0.00030 -0.39700
O 	O 	0.23870 0.52960 0.20760 -0.38300
O 	O 	0.77990 0.90010 0.49970 -0.36900
O 	O 	0.81540 0.43280 0.68590 -0.37800
O 	O 	0.98370 0.46180 0.78060 -0.33400
O 	O 	0.18070 0.07160 0.80920 -0.39000
O 	O 	0.13460 0.93180 0.09028 -0.37500
O 	O 	0.23270 0.02490 0.70410 -0.45000
O 	O 	0.71710 0.53400 0.44730 -0.37900
O 	O 	0.29350 0.30730 0.58040 -0.32500
O 	O 	0.13420 0.04010 0.21480 -0.32800
O 	O 	0.73710 0.18270 0.03250 -0.33400
O 	O 	0.48450 0.72020 0.03760 -0.38300
O 	O 	0.13050 0.46640 0.79040 -0.32300
O 	O 	0.71210 0.99020 0.55680 -0.31100
O 	O 	0.38820 0.29040 0.96120 -0.38400
O 	O 	0.07480 0.05620 0.33520 -0.33100
O 	O 	0.75530 0.61200 0.39280 -0.37700
O 	O 	0.28880 0.00890 0.87190 -0.33800
O 	O 	0.78870 0.54580 0.97580 -0.32200
O 	O 	0.78730 0.93500 0.02270 -0.30000
O 	O 	0.29210 0.50160 0.12900 -0.33100
O 	O 	0.68420 0.84140 0.99120 -0.32300
O 	O 	0.74800 0.09470 0.89510 -0.39000
O 	O 	0.32510 0.03710 0.99890 -0.32500
O 	O 	0.73710 0.81730 0.46750 -0.32600
O 	O 	0.28790 0.00980 0.44320 -0.44900
O 	O 	0.79990 0.98420 0.85520 -0.36000
O 	O 	0.70290 0.82280 0.57540 -0.32200
O 	O 	0.17600 0.51020 0.97390 -0.38200
O 	O 	0.89190 0.96940 0.28623 -0.36400
O 	O 	0.19630 0.50140 0.64050 -0.38200
O 	O 	0.29350 0.69270 0.91960 -0.32200
O 	O 	0.26290 0.18270 0.53250 -0.33700
O 	O 	0.61940 0.88740 0.08540 -0.32200
O 	O 	0.92520 0.94380 0.66480 -0.31700
O 	O 	0.38140 0.59800 0.41760 -0.31800
O 	O 	0.82400 0.51020 0.47390 -0.38200
O 	O 	0.32510 0.96290 0.50110 -0.33100
O 	O 	0.78730 0.06500 0.47730 -0.32700
O 	O 	0.60630 0.22150 0.04470 -0.33500
O 	O 	0.79990 0.01580 0.64480 -0.39600
O 	O 	0.78870 0.45420 0.52420 -0.32100
O 	O 	0.88570 0.53350 0.71650 -0.37500
O 	O 	0.70650 0.69270 0.41960 -0.32200
O 	O 	0.74550 0.70450 0.52760 -0.33100
O 	O 	0.61940 0.11260 0.41460 -0.34000
O 	O 	0.13050 0.53360 0.70960 -0.32200
O 	O 	0.79000 0.37720 0.00230 -0.39300
O 	O 	0.71120 0.00890 0.37190 -0.33700
O 	O 	0.06890 0.43690 0.66870 -0.33100
O 	O 	0.61860 0.59800 0.91760 -0.31800
O 	O 	0.21130 0.54580 0.47580 -0.32100
O 	O 	0.81930 0.07160 0.30920 -0.39000
O 	O 	0.21270 0.93500 0.52270 -0.30200
O 	O 	0.61180 0.70960 0.03880 -0.38100
O 	O 	0.19630 0.49860 0.85950 -0.38300
O 	O 	0.21000 0.62280 0.99770 -0.39100
O 	O 	0.80370 0.49860 0.35950 -0.38300
O 	O 	0.31580 0.84140 0.49120 -0.32200
O 	O 	0.38310 0.22530 0.03586 -0.37700
O 	O 	0.24130 0.60120 0.39050 -0.33200
O 	O 	0.86580 0.95990 0.78520 -0.31400
O 	O 	0.38680 0.27230 0.45950 -0.33400
O 	O 	0.06890 0.56310 0.83130 -0.32900
O 	O 	0.55880 0.18510 0.44047 -0.38700
O 	O 	0.61320 0.27230 0.95950 -0.33400
O 	O 	0.93110 0.43690 0.16870 -0.33000
O 	O 	0.61690 0.77470 0.96414 -0.37400
O 	O 	0.76730 0.02490 0.20410 -0.45000
O 	O 	0.38060 0.88740 0.58540 -0.32200
O 	O 	0.22010 0.90010 0.99970 -0.37300
O 	O 	0.86540 0.93180 0.59028 -0.37500
O 	O 	0.88570 0.46650 0.78350 -0.37600
O 	O 	0.76130 0.52960 0.70760 -0.38300
O 	O 	0.48450 0.27980 0.46240 -0.38600
O 	O 	0.29210 0.49840 0.37100 -0.33200
O 	O 	0.75530 0.38800 0.10720 -0.37800
O 	O 	0.26290 0.81730 0.96750 -0.32900
O 	O 	0.18460 0.43280 0.18590 -0.37800
O 	O 	0.01050 0.03772 0.71840 -0.33800
O 	O 	0.71710 0.46600 0.05270 -0.37900
O 	O 	0.92520 0.05620 0.83520 -0.33100
O 	O 	0.32090 0.35790 0.98480 -0.33900
O 	O 	0.70650 0.30730 0.08040 -0.32400
O 	O 	0.55880 0.81490 0.05953 -0.37600
O 	O 	0.22010 0.09990 0.50030 -0.40100
O 	O 	0.29710 0.82280 0.07540 -0.32100
O 	O 	0.44120 0.81490 0.55953 -0.37700
O 	O 	0.71210 0.00980 0.94320 -0.44700
O 	O 	0.68420 0.15860 0.50880 -0.32700
O 	O 	0.76730 0.97510 0.29590 -0.31400
O 	O 	0.89190 0.03060 0.21377 -0.38500
O 	O 	0.10810 0.03060 0.71377 -0.38600
O 	O 	0.61690 0.22530 0.53586 -0.37800
O 	O 	0.76020 0.11120 0.38160 -0.33200
O 	O 	0.28790 0.99020 0.05680 -0.31100
O 	O 	0.25450 0.29550 0.47240 -0.33400
O 	O 	0.25450 0.70450 0.02760 -0.32900
O 	O 	0.20010 0.01580 0.14480 -0.39500
O 	O 	0.32090 0.64210 0.51520 -0.33700
O 	O 	0.39370 0.22150 0.54470 -0.33600
O 	O 	0.98950 0.03772 0.21840 -0.33800
O 	O 	0.44130 0.32870 0.05900 -0.37200
O 	O 	0.70790 0.50160 0.62900 -0.33100
O 	O 	0.55870 0.67130 0.94100 -0.37100
O 	O 	0.21270 0.06500 0.97730 -0.32800
O 	O 	0.38060 0.11260 0.91460 -0.34000
O 	O 	0.81990 0.98950 0.96990 -0.34100
O 	O 	0.24470 0.38800 0.60720 -0.37800
O 	O 	0.12800 0.58290 0.90680 -0.37700
O 	O 	0.67490 0.03710 0.49890 -0.32300
O 	O 	0.07480 0.94380 0.16480 -0.31700
O 	O 	0.18010 0.01050 0.03010 -0.41100
O 	O 	0.55870 0.32870 0.55900 -0.37300
O 	O 	0.23870 0.47040 0.29240 -0.38400
O 	O 	0.50910 0.22720 0.04100 -0.38700
O 	O 	0.98950 0.96228 0.28160 -0.32100
O 	O 	0.75870 0.39880 0.60950 -0.33400
O 	O 	0.70290 0.17720 0.92460 -0.33200
O 	O 	0.49090 0.77280 0.95900 -0.37900
O 	O 	0.86950 0.53360 0.20960 -0.32200
O 	O 	0.39370 0.77850 0.95530 -0.32600
O 	O 	0.32200 0.48290 0.00050 -0.32900
O 	O 	0.23270 0.97510 0.79590 -0.31500
O 	O 	0.38310 0.77470 0.46414 -0.37400
O 	O 	0.23980 0.88880 0.61840 -0.31700
O 	O 	0.01630 0.46180 0.28060 -0.33400
O 	O 	0.24470 0.61200 0.89280 -0.37700
O 	O 	0.01630 0.53820 0.21940 -0.33200
