data_crystal

_cell_length_a 9.55500
_cell_length_b 15.66440
_cell_length_c 10.02490
_cell_angle_alpha 100.69600
_cell_angle_beta  90.00000
_cell_angle_gamma 90.00000

_symmetry_space_group_name_	'P 1'
_symmetry_space_group_name_H-M	'P 1'

loop_
_symmetry_equiv_pos_as_xyz
  x,y,z

loop_
_atom_site_label
_atom_site_type_symbol
_atom_site_fract_x
_atom_site_fract_y
_atom_site_fract_z
_atom_site_charge
Co	Co	0.58117 0.08551 0.64298 1.11700
Co	Co	0.91883 0.08551 0.14298 1.11500
Co	Co	0.08117 0.91449 0.85702 1.11500
Co	Co	0.41883 0.91449 0.35702 1.11700
H 	H 	0.12610 0.41920 0.61760 0.05100
H 	H 	0.87390 0.58080 0.38240 0.05100
H 	H 	0.23310 0.07750 0.44200 0.12300
H 	H 	0.69800 0.12410 0.94390 -0.01600
H 	H 	0.27840 0.64170 0.37020 0.05700
H 	H 	0.38660 0.12140 0.88770 0.15500
H 	H 	0.77840 0.35830 0.12980 0.05700
H 	H 	0.19800 0.87590 0.55610 -0.01600
H 	H 	0.61340 0.87860 0.11230 0.15500
H 	H 	0.22160 0.64170 0.87020 0.05700
H 	H 	0.52050 0.64480 0.04650 0.05600
H 	H 	0.11340 0.12140 0.38770 0.15500
H 	H 	0.47950 0.35520 0.95350 0.05600
H 	H 	0.97950 0.64480 0.54650 0.05800
H 	H 	0.37390 0.41920 0.11760 0.05100
H 	H 	0.73310 0.92250 0.05800 0.12400
H 	H 	0.26690 0.07750 0.94200 0.12400
H 	H 	0.30200 0.87590 0.05610 -0.01500
H 	H 	0.72160 0.35830 0.62980 0.05700
H 	H 	0.24680 0.49230 0.80470 0.04300
H 	H 	0.75320 0.50770 0.19530 0.04300
H 	H 	0.74680 0.50770 0.69530 0.04400
H 	H 	0.76690 0.92250 0.55800 0.12400
H 	H 	0.80200 0.12410 0.44390 -0.01600
H 	H 	0.88660 0.87860 0.61230 0.15500
H 	H 	0.25320 0.49230 0.30470 0.04400
H 	H 	0.02050 0.35520 0.45350 0.05800
H 	H 	0.62610 0.58080 0.88240 0.05100
C 	C 	0.03940 0.52380 0.55890 0.01500
C 	C 	0.58640 0.24610 0.74920 0.30000
C 	C 	0.18690 0.02600 0.25780 0.17900
C 	C 	0.08640 0.75390 0.75080 0.30000
C 	C 	0.61970 0.52060 0.86000 -0.06400
C 	C 	0.17780 0.61250 0.79210 -0.03000
C 	C 	0.81310 0.97400 0.74220 0.17900
C 	C 	0.53190 0.38680 0.90140 -0.04800
C 	C 	0.41360 0.75390 0.25080 0.30000
C 	C 	0.03190 0.61320 0.59860 -0.05000
C 	C 	0.46810 0.61320 0.09860 -0.04800
C 	C 	0.96810 0.38680 0.40140 -0.05000
C 	C 	0.11970 0.47940 0.64000 -0.06500
C 	C 	0.38030 0.47940 0.14000 -0.06400
C 	C 	0.80920 0.47690 0.24580 -0.02900
C 	C 	0.24700 0.92340 0.60320 0.08900
C 	C 	0.32220 0.61250 0.29210 -0.02900
C 	C 	0.68690 0.97400 0.24220 0.18100
C 	C 	0.67780 0.38750 0.70790 -0.02900
C 	C 	0.88030 0.52060 0.36000 -0.06500
C 	C 	0.82220 0.38750 0.20790 -0.03000
C 	C 	0.96060 0.47620 0.44110 0.01500
C 	C 	0.09950 0.65730 0.71320 -0.05400
C 	C 	0.40050 0.65730 0.21320 -0.05400
C 	C 	0.46060 0.52380 0.05890 0.01400
C 	C 	0.75300 0.07660 0.39680 0.08900
C 	C 	0.30920 0.52310 0.25420 -0.02900
C 	C 	0.74700 0.07660 0.89680 0.09000
C 	C 	0.53940 0.47620 0.94110 0.01400
C 	C 	0.31310 0.02600 0.75780 0.18100
C 	C 	0.91360 0.24610 0.24920 0.30000
C 	C 	0.19080 0.52310 0.75420 -0.02900
C 	C 	0.59950 0.34270 0.78680 -0.05400
C 	C 	0.25300 0.92340 0.10320 0.09000
C 	C 	0.69080 0.47690 0.74580 -0.02900
C 	C 	0.90050 0.34270 0.28680 -0.05400
N 	N 	0.10390 0.02760 0.15140 -0.26900
N 	N 	0.35030 0.95960 0.55050 -0.24900
N 	N 	0.28290 0.96100 0.23290 -0.28700
N 	N 	0.60390 0.97240 0.34860 -0.26900
N 	N 	0.71710 0.03900 0.76710 -0.28700
N 	N 	0.17660 0.08170 0.37680 -0.34200
N 	N 	0.78290 0.03900 0.26710 -0.28900
N 	N 	0.85030 0.04040 0.94950 -0.24700
N 	N 	0.39610 0.02760 0.65140 -0.26900
N 	N 	0.82340 0.91830 0.62320 -0.34200
N 	N 	0.89610 0.97240 0.84860 -0.26900
N 	N 	0.32340 0.08170 0.87680 -0.34200
N 	N 	0.21710 0.96100 0.73290 -0.28900
N 	N 	0.67660 0.91830 0.12320 -0.34200
N 	N 	0.64970 0.04040 0.44950 -0.24900
N 	N 	0.14970 0.95960 0.05050 -0.24700
O 	O 	0.02910 0.79565 0.67230 -0.37000
O 	O 	0.36480 0.79210 0.36460 -0.42800
O 	O 	0.97090 0.20435 0.32770 -0.37000
O 	O 	0.63520 0.20790 0.63540 -0.42800
O 	O 	0.13520 0.79210 0.86460 -0.43000
O 	O 	0.86480 0.20790 0.13540 -0.43000
O 	O 	0.47090 0.79565 0.17230 -0.36900
O 	O 	0.52910 0.20435 0.82770 -0.36900
