data_crystal

_cell_length_a 16.13110
_cell_length_b 16.13110
_cell_length_c 18.95400
_cell_angle_alpha 66.73100
_cell_angle_beta  66.73100
_cell_angle_gamma 68.44700

_symmetry_space_group_name_	'P 1'
_symmetry_space_group_name_H-M	'P 1'

loop_
_symmetry_equiv_pos_as_xyz
  x,y,z

loop_
_atom_site_label
_atom_site_type_symbol
_atom_site_fract_x
_atom_site_fract_y
_atom_site_fract_z
_atom_site_charge
Co	Co	0.12249 0.87055 0.22218 1.09500
Co	Co	0.12945 0.87751 0.77782 1.09500
Cu	Cu	0.15982 0.44640 0.97520 0.91500
Cu	Cu	0.69733 0.91821 0.45014 0.91500
Cu	Cu	0.55360 0.84018 0.02480 0.91600
Cu	Cu	0.14194 0.45378 0.46088 0.92000
Cu	Cu	0.54622 0.85806 0.53912 0.92000
Cu	Cu	0.69735 0.91451 0.96621 0.91900
Cu	Cu	0.08179 0.30267 0.54986 0.91600
Cu	Cu	0.08549 0.30265 0.03379 0.91900
B 	B 	0.28300 0.77260 0.31130 1.41500
B 	B 	0.22740 0.71700 0.68870 1.41500
B 	B 	0.95540 0.96560 0.14340 1.44100
B 	B 	0.03440 0.04460 0.85660 1.44100
H 	H 	0.83680 0.04680 0.94760 -0.02900
H 	H 	0.92580 0.57800 0.97920 0.23800
H 	H 	0.54150 0.26710 0.43530 0.25100
H 	H 	0.27720 0.14220 0.89330 0.08300
H 	H 	0.28710 0.81270 0.87960 -0.00700
H 	H 	0.63800 0.60560 0.20690 0.12300
H 	H 	0.37820 0.07700 0.63570 0.09500
H 	H 	0.27190 0.59070 0.41500 -0.04500
H 	H 	0.42200 0.07420 0.02080 0.23800
H 	H 	0.72710 0.49110 0.14930 0.22000
H 	H 	0.34230 0.93210 0.66830 -0.02900
H 	H 	0.79570 0.70970 0.33780 -0.00900
H 	H 	0.13920 0.03340 0.95680 -0.04300
H 	H 	0.68280 0.60840 0.45940 0.14300
H 	H 	0.72530 0.54730 0.24130 0.10600
H 	H 	0.43810 0.08890 0.68040 0.09400
H 	H 	0.90160 0.39200 0.74510 0.05600
H 	H 	0.50890 0.27290 0.85070 0.22000
H 	H 	0.42560 0.13240 0.43110 0.26200
H 	H 	0.37510 0.23470 0.66100 -0.03100
H 	H 	0.92300 0.62180 0.36430 0.09500
H 	H 	0.83340 0.38420 0.48460 0.11300
H 	H 	0.40070 0.02710 0.87320 0.03100
H 	H 	0.61580 0.16660 0.51540 0.11300
H 	H 	0.85780 0.72280 0.10670 0.08300
H 	H 	0.71770 0.55490 0.06200 0.23300
H 	H 	0.45270 0.27470 0.75870 0.10600
H 	H 	0.14140 0.05880 0.59810 -0.02100
H 	H 	0.52910 0.14070 0.81220 0.12300
H 	H 	0.11940 0.74860 0.58020 -0.02400
H 	H 	0.66450 0.55650 0.57590 0.26200
H 	H 	0.97720 0.95280 0.66900 -0.02100
H 	H 	0.97290 0.59930 0.12680 0.03100
H 	H 	0.40930 0.72810 0.58500 -0.04500
H 	H 	0.60800 0.09840 0.25490 0.05600
H 	H 	0.58270 0.11410 0.60930 0.12000
H 	H 	0.91450 0.55970 0.21860 0.00800
H 	H 	0.91110 0.56190 0.31960 0.09400
H 	H 	0.90950 0.83210 0.87500 -0.02500
H 	H 	0.32800 0.20080 0.46300 0.27700
H 	H 	0.36580 0.10420 0.52350 0.27500
H 	H 	0.39160 0.31720 0.54060 0.14300
H 	H 	0.46600 0.75400 0.19490 -0.02300
H 	H 	0.85930 0.47090 0.18780 0.12300
H 	H 	0.98810 0.54090 0.68350 0.09300
H 	H 	0.04720 0.02280 0.33100 -0.02100
H 	H 	0.76530 0.62490 0.33900 -0.03100
H 	H 	0.32560 0.10720 0.00010 0.23800
H 	H 	0.86760 0.57440 0.56890 0.26200
H 	H 	0.44510 0.28230 0.93800 0.23300
H 	H 	0.95320 0.16320 0.05240 -0.02900
H 	H 	0.31190 0.88130 0.04950 -0.01300
H 	H 	0.11870 0.68810 0.95050 -0.01300
H 	H 	0.06790 0.65770 0.33170 -0.02900
H 	H 	0.33290 0.74470 0.33870 -0.50600
H 	H 	0.80290 0.46450 0.07110 0.23200
H 	H 	0.67320 0.65080 0.24800 0.12200
H 	H 	0.85270 0.50190 0.73520 0.03700
H 	H 	0.24600 0.53400 0.80510 -0.02300
H 	H 	0.44030 0.08550 0.78140 0.00800
H 	H 	0.45910 0.01190 0.31650 0.09300
H 	H 	0.18730 0.71290 0.12040 -0.00700
H 	H 	0.49810 0.14730 0.26480 0.03700
H 	H 	0.89280 0.67440 0.99990 0.23800
H 	H 	0.77920 0.99600 0.25970 -0.01800
H 	H 	0.29030 0.20430 0.66220 -0.00900
H 	H 	0.16790 0.09050 0.12500 -0.02500
H 	H 	0.00400 0.22080 0.74030 -0.01800
H 	H 	0.53350 0.22150 0.57490 0.10300
H 	H 	0.39440 0.36200 0.79310 0.12300
H 	H 	0.44350 0.33550 0.42410 0.26200
H 	H 	0.96660 0.86080 0.04320 -0.04300
H 	H 	0.80860 0.69240 0.20200 0.07500
H 	H 	0.25530 0.66710 0.66130 -0.50600
H 	H 	0.49700 0.25820 0.37740 0.25500
H 	H 	0.94120 0.85860 0.40190 -0.02100
H 	H 	0.79920 0.67200 0.53700 0.27700
H 	H 	0.30760 0.19140 0.79800 0.07500
H 	H 	0.88590 0.41730 0.39070 0.12000
H 	H 	0.34920 0.32680 0.75200 0.12200
H 	H 	0.82890 0.64970 0.96810 0.23200
H 	H 	0.53550 0.19710 0.92890 0.23200
H 	H 	0.77850 0.46650 0.42510 0.10300
H 	H 	0.35030 0.17110 0.03190 0.23200
H 	H 	0.25140 0.88060 0.41980 -0.02400
H 	H 	0.73290 0.45850 0.56470 0.25100
H 	H 	0.90280 0.99440 0.11900 -0.51100
H 	H 	0.89580 0.63420 0.47650 0.27500
H 	H 	0.00560 0.09720 0.88100 -0.51100
H 	H 	0.74180 0.50300 0.62260 0.25500
C 	C 	0.75120 0.91580 0.69750 -0.00800
C 	C 	0.70060 0.83620 0.73600 0.06000
C 	C 	0.61050 0.89590 0.74670 -0.01400
C 	C 	0.69050 0.81890 0.61090 0.35100
C 	C 	0.56590 0.08990 0.15450 0.01300
C 	C 	0.83470 0.67190 0.15300 -0.15600
C 	C 	0.39040 0.30720 0.78540 -0.31900
C 	C 	0.11590 0.34530 0.76680 -0.03600
C 	C 	0.75450 0.64630 0.13810 -0.05900
C 	C 	0.90520 0.44960 0.74970 -0.06400
C 	C 	0.16120 0.98720 0.92990 0.18000
C 	C 	0.97680 0.45940 0.08950 0.44000
C 	C 	0.21770 0.58570 0.82630 0.15300
C 	C 	0.48500 0.10980 0.86190 -0.31400
C 	C 	0.55040 0.09480 0.25030 -0.06400
C 	C 	0.36310 0.26670 0.55000 -0.39700
C 	C 	0.49500 0.13420 0.55090 -0.07000
C 	C 	0.56040 0.95680 0.37420 0.37700
C 	C 	0.13230 0.75930 0.11200 0.09200
C 	C 	0.32810 0.16530 0.84700 -0.15600
C 	C 	0.43360 0.20420 0.49650 0.47100
C 	C 	0.10410 0.38950 0.25330 -0.01400
C 	C 	0.68710 0.72870 0.46800 0.45100
C 	C 	0.26770 0.29850 0.91280 0.33700
C 	C 	0.48320 0.27200 0.42740 -0.80800
C 	C 	0.31630 0.30090 0.25800 0.00800
C 	C 	0.57300 0.95860 0.10140 0.39700
C 	C 	0.03620 0.16760 0.72140 0.16100
C 	C 	0.84390 0.61610 0.52320 -0.81500
C 	C 	0.86580 0.50500 0.44910 -0.07000
C 	C 	0.16380 0.29940 0.26400 0.06000
C 	C 	0.72090 0.76190 0.81420 -0.08300
C 	C 	0.02120 0.89660 0.66100 0.13300
C 	C 	0.56920 0.94040 0.24390 0.09100
C 	C 	0.99860 0.47180 0.70100 -0.18800
C 	C 	0.00100 0.47100 0.82840 -0.10700
C 	C 	0.27130 0.31290 0.53200 0.45100
C 	C 	0.56200 0.16120 0.56360 -0.30800
C 	C 	0.12330 0.65870 0.33760 0.15000
C 	C 	0.52900 0.99900 0.17160 -0.10700
C 	C 	0.91160 0.88660 0.88150 0.13800
C 	C 	0.04140 0.42700 0.89860 0.39700
C 	C 	0.70150 0.67350 0.83080 0.01200
C 	C 	0.05960 0.43080 0.75610 0.09100
C 	C 	0.87180 0.62400 0.00090 -0.68800
C 	C 	0.99980 0.12760 0.07890 0.15100
C 	C 	0.33080 0.84960 0.09690 0.12700
C 	C 	0.24280 0.16760 0.34330 0.01600
C 	C 	0.73060 0.77360 0.68200 -0.10100
C 	C 	0.23810 0.27910 0.18580 -0.08300
C 	C 	0.65470 0.88410 0.23320 -0.03600
C 	C 	0.73330 0.63690 0.45000 -0.39700
C 	C 	0.76160 0.51620 0.09330 -0.69000
C 	C 	0.22980 0.62180 0.38360 0.20100
C 	C 	0.91230 0.58570 0.16240 0.04200
C 	C 	0.89020 0.51500 0.13810 -0.31400
C 	C 	0.69280 0.60960 0.21460 -0.31900
C 	C 	0.87240 0.00020 0.92110 0.15100
C 	C 	0.10340 0.97880 0.33900 0.13300
C 	C 	0.95630 0.45190 0.47450 0.29700
C 	C 	0.32650 0.29850 0.16920 0.01200
C 	C 	0.88240 0.58700 0.36620 -0.22100
C 	C 	0.18110 0.30950 0.38910 0.35100
C 	C 	0.83240 0.75720 0.65670 0.01600
C 	C 	0.34130 0.87670 0.66240 0.15000
C 	C 	0.22640 0.26940 0.31800 -0.10100
C 	C 	0.68460 0.80340 0.88440 0.32000
C 	C 	0.04320 0.43960 0.62580 0.37700
C 	C 	0.11340 0.08840 0.11850 0.13800
C 	C 	0.37820 0.77020 0.61640 0.20100
C 	C 	0.19660 0.31540 0.11560 0.32000
C 	C 	0.98850 0.57610 0.79340 -0.00400
C 	C 	0.42390 0.01150 0.20660 -0.00400
C 	C 	0.38390 0.15610 0.47680 -0.81500
C 	C 	0.41430 0.78230 0.17370 0.15300
C 	C 	0.70150 0.73230 0.08720 0.33700
C 	C 	0.01280 0.83880 0.07010 0.18000
C 	C 	0.08420 0.24880 0.30250 -0.00800
C 	C 	0.83880 0.43800 0.43640 -0.30800
C 	C 	0.35370 0.24550 0.86190 -0.05900
C 	C 	0.83240 0.96380 0.27860 0.16100
C 	C 	0.37600 0.12820 0.99910 -0.68800
C 	C 	0.41430 0.08770 0.83760 0.04200
C 	C 	0.48380 0.23840 0.90670 -0.69000
C 	C 	0.72800 0.51680 0.57260 -0.80800
C 	C 	0.54810 0.04370 0.52550 0.29700
C 	C 	0.79250 0.64410 0.36680 0.16200
C 	C 	0.10970 0.07970 0.64460 0.12100
C 	C 	0.42410 0.17950 0.91070 0.36400
C 	C 	0.79580 0.56640 0.50350 0.47100
C 	C 	0.91010 0.43410 0.84550 0.01300
C 	C 	0.69910 0.68370 0.74200 0.00800
C 	C 	0.15040 0.66920 0.90310 0.12700
C 	C 	0.82050 0.57590 0.08930 0.36400
C 	C 	0.92030 0.89030 0.35540 0.12100
C 	C 	0.24070 0.86770 0.88800 0.09200
C 	C 	0.21130 0.90410 0.38690 0.15300
C 	C 	0.41300 0.11760 0.63380 -0.22100
C 	C 	0.54060 0.02320 0.91050 0.44000
C 	C 	0.52820 0.00140 0.29900 -0.18800
C 	C 	0.35590 0.20750 0.63320 0.16200
C 	C 	0.09590 0.78870 0.61310 0.15300
N 	N 	0.27180 0.84600 0.69750 -0.22100
N 	N 	0.08970 0.01110 0.14420 -0.22000
N 	N 	0.15400 0.72820 0.30250 -0.22100
N 	N 	0.41670 0.83050 0.61500 -0.23000
N 	N 	0.13630 0.78190 0.66800 -0.34800
N 	N 	0.06050 0.16310 0.08350 -0.21200
N 	N 	0.18930 0.57830 0.90660 -0.21100
N 	N 	0.91770 0.94110 0.23400 -0.37800
N 	N 	0.12040 0.98320 0.88170 -0.37600
N 	N 	0.14671 0.91331 0.30100 -0.22000
N 	N 	0.22620 0.70620 0.33560 -0.40100
N 	N 	0.05890 0.08230 0.76600 -0.37800
N 	N 	0.01330 0.03530 0.11670 -0.36600
N 	N 	0.08320 0.76300 0.06580 -0.15000
N 	N 	0.32630 0.79910 0.21790 -0.34900
N 	N 	0.98890 0.91030 0.85580 -0.22000
N 	N 	0.27080 0.84220 0.16680 -0.21800
N 	N 	0.10430 0.02210 0.71870 -0.22000
N 	N 	0.23700 0.91680 0.93420 -0.15000
N 	N 	0.83190 0.93250 0.35940 -0.20400
N 	N 	0.96470 0.98670 0.88330 -0.36600
N 	N 	0.15780 0.72920 0.83320 -0.21800
N 	N 	0.06750 0.16810 0.64060 -0.20400
N 	N 	0.16950 0.58330 0.38500 -0.23000
N 	N 	0.42170 0.81070 0.09340 -0.21100
N 	N 	0.16875 0.90875 0.85620 -0.20700
N 	N 	0.29380 0.77380 0.66440 -0.40100
N 	N 	0.08669 0.85329 0.69900 -0.22000
N 	N 	0.09125 0.83125 0.14380 -0.20700
N 	N 	0.01680 0.87960 0.11830 -0.37600
N 	N 	0.21810 0.86370 0.33200 -0.34800
N 	N 	0.02030 0.85830 0.61280 -0.15000
N 	N 	0.97790 0.89570 0.28130 -0.22000
N 	N 	0.14170 0.97970 0.38720 -0.15000
N 	N 	0.20090 0.67370 0.78210 -0.34900
N 	N 	0.83690 0.93950 0.91650 -0.21200
O 	O 	0.60230 0.74090 0.51150 -0.43000
O 	O 	0.03220 0.35820 0.63720 -0.39800
O 	O 	0.64180 0.96780 0.36280 -0.39800
O 	O 	0.21220 0.26920 0.55860 -0.44800
O 	O 	0.98080 0.37760 0.09940 -0.44000
O 	O 	0.21150 0.39470 0.06540 -0.37900
O 	O 	0.25910 0.39770 0.48850 -0.43000
O 	O 	0.73950 0.79950 0.04690 -0.40900
O 	O 	0.50630 0.97510 0.56040 -0.39200
O 	O 	0.62240 0.01920 0.90060 -0.44000
O 	O 	0.19640 0.38480 0.38010 -0.39800
O 	O 	0.02000 0.36220 0.95080 -0.42800
O 	O 	0.63780 0.98000 0.04920 -0.42800
O 	O 	0.62666 0.72846 0.08610 -0.40800
O 	O 	0.73400 0.86860 0.54750 -0.40800
O 	O 	0.09820 0.46900 0.89320 -0.41100
O 	O 	0.73080 0.78780 0.44140 -0.44800
O 	O 	0.53100 0.90180 0.10680 -0.41100
O 	O 	0.96260 0.37260 0.52480 -0.39400
O 	O 	0.51090 0.91950 0.43680 -0.42200
O 	O 	0.08050 0.48910 0.56320 -0.42200
O 	O 	0.50200 0.96060 0.95430 -0.43900
O 	O 	0.03940 0.49800 0.04570 -0.43900
O 	O 	0.61520 0.80360 0.61990 -0.39800
O 	O 	0.13140 0.26600 0.45250 -0.40800
O 	O 	0.27154 0.37334 0.91390 -0.40800
O 	O 	0.62740 0.03740 0.47520 -0.39400
O 	O 	0.15310 0.26770 0.11130 -0.40000
O 	O 	0.02490 0.49370 0.43960 -0.39200
O 	O 	0.60530 0.78850 0.93460 -0.37900
O 	O 	0.20050 0.26050 0.95310 -0.40900
O 	O 	0.73230 0.84690 0.88870 -0.40000
