data_crystal

_cell_length_a 14.05000
_cell_length_b 20.15600
_cell_length_c 20.37800
_cell_angle_alpha 90.00000
_cell_angle_beta  101.71700
_cell_angle_gamma 90.00000

_symmetry_space_group_name_	'P 1'
_symmetry_space_group_name_H-M	'P 1'

loop_
_symmetry_equiv_pos_as_xyz
  x,y,z

loop_
_atom_site_label
_atom_site_type_symbol
_atom_site_fract_x
_atom_site_fract_y
_atom_site_fract_z
_atom_site_charge
Cd	Cd	0.10294 0.04019 0.03415 1.24400
Cd	Cd	0.10294 0.45981 0.53415 1.24500
Cd	Cd	0.89706 0.54019 0.46585 1.24500
Cd	Cd	0.89706 0.95981 0.96585 1.24400
H 	H 	0.05060 0.20850 0.87870 0.03600
H 	H 	0.75530 0.43180 0.57860 0.06400
H 	H 	0.54320 0.99580 0.95190 -0.00300
H 	H 	0.80310 0.39070 0.31020 0.03100
H 	H 	0.00060 0.29110 0.79930 0.08200
H 	H 	0.45060 0.79750 0.85590 0.09200
H 	H 	0.45680 0.49580 0.54810 -0.00200
H 	H 	0.99940 0.70890 0.20070 0.08200
H 	H 	0.45680 0.00420 0.04810 -0.00300
H 	H 	0.75530 0.06820 0.07860 0.06400
H 	H 	0.45060 0.70250 0.35590 0.09200
H 	H 	0.05060 0.29150 0.37870 0.03300
H 	H 	0.38560 0.17640 0.11440 0.01700
H 	H 	0.54940 0.20250 0.14410 0.09100
H 	H 	0.24730 0.69050 0.76530 0.07700
H 	H 	0.02990 0.82460 0.81270 0.06200
H 	H 	0.94940 0.70850 0.62130 0.03200
H 	H 	0.80310 0.10930 0.81020 0.03100
H 	H 	0.54320 0.50420 0.45190 -0.00300
H 	H 	0.38480 0.52920 0.41810 0.11100
H 	H 	0.61440 0.82360 0.88560 0.01700
H 	H 	0.69560 0.20220 0.20840 0.05100
H 	H 	0.97010 0.32460 0.68730 0.06100
H 	H 	0.61440 0.67640 0.38560 0.01700
H 	H 	0.54940 0.29750 0.64410 0.09100
H 	H 	0.24470 0.56820 0.42140 0.06300
H 	H 	0.97010 0.17540 0.18730 0.06200
H 	H 	0.61520 0.47080 0.58190 0.11100
H 	H 	0.19690 0.60930 0.68980 0.03000
H 	H 	0.94940 0.79150 0.12130 0.03500
H 	H 	0.24470 0.93180 0.92140 0.06300
H 	H 	0.00060 0.20890 0.29930 0.07800
H 	H 	0.75270 0.19050 0.73470 0.07700
H 	H 	0.75270 0.30950 0.23470 0.07700
H 	H 	0.19690 0.89070 0.18980 0.03100
H 	H 	0.61520 0.02920 0.08190 0.11200
H 	H 	0.69560 0.29780 0.70840 0.05100
H 	H 	0.30440 0.70220 0.29160 0.05100
H 	H 	0.02990 0.67540 0.31270 0.06100
H 	H 	0.38560 0.32360 0.61440 0.01700
H 	H 	0.24730 0.80950 0.26530 0.07700
H 	H 	0.38480 0.97080 0.91810 0.11200
H 	H 	0.99940 0.79110 0.70070 0.07800
H 	H 	0.30440 0.79780 0.79160 0.05100
C 	C 	0.43230 0.14500 0.10970 0.09800
C 	C 	0.46880 0.66030 0.37220 -0.16500
C 	C 	0.83750 0.19880 0.20610 -0.00100
C 	C 	0.70180 0.93490 0.93590 0.43700
C 	C 	0.03930 0.75470 0.69850 -0.11900
C 	C 	0.56990 0.44040 0.59120 -0.20100
C 	C 	0.81330 0.30580 0.26310 -0.12400
C 	C 	0.22460 0.89860 0.88990 -0.02500
C 	C 	0.87090 0.24990 0.75730 0.06900
C 	C 	0.52690 0.95640 0.92850 0.14500
C 	C 	0.00910 0.79510 0.15080 0.04900
C 	C 	0.09570 0.66540 0.32480 -0.03200
C 	C 	0.53120 0.33970 0.62780 -0.16500
C 	C 	0.59610 0.91930 0.91610 -0.19300
C 	C 	0.25980 0.68110 0.31250 -0.05500
C 	C 	0.60330 0.38520 0.62230 0.12300
C 	C 	0.09570 0.83460 0.82480 -0.03100
C 	C 	0.93320 0.15120 0.85240 -0.11300
C 	C 	0.99090 0.20490 0.84920 0.04900
C 	C 	0.59610 0.58070 0.41610 -0.19200
C 	C 	0.06680 0.65120 0.64760 -0.11500
C 	C 	0.29820 0.06510 0.06410 0.43700
C 	C 	0.94310 0.41620 0.59040 0.35100
C 	C 	0.39670 0.61480 0.37770 0.12300
C 	C 	0.12910 0.74990 0.74270 0.06800
C 	C 	0.18670 0.80580 0.23690 -0.12400
C 	C 	0.90430 0.16540 0.17520 -0.03100
C 	C 	0.47310 0.04360 0.07150 0.14500
C 	C 	0.56990 0.05960 0.09120 -0.20200
C 	C 	0.18670 0.69420 0.73690 -0.12400
C 	C 	0.12730 0.61760 0.37340 -0.05800
C 	C 	0.29360 0.63330 0.36090 -0.02000
C 	C 	0.70640 0.36670 0.63910 -0.02000
C 	C 	0.60330 0.11480 0.12230 0.12400
C 	C 	0.56770 0.85500 0.89030 0.09800
C 	C 	0.40390 0.41930 0.58390 -0.19200
C 	C 	0.29820 0.43490 0.56410 0.43600
C 	C 	0.53120 0.16030 0.12780 -0.16600
C 	C 	0.96330 0.40360 0.40500 0.39200
C 	C 	0.96330 0.09640 0.90500 0.38900
C 	C 	0.39670 0.88520 0.87770 0.12400
C 	C 	0.05690 0.58380 0.40960 0.35100
C 	C 	0.43010 0.94040 0.90880 -0.20200
C 	C 	0.03670 0.90360 0.09500 0.38900
C 	C 	0.99090 0.29510 0.34920 0.05300
C 	C 	0.16250 0.69880 0.29390 -0.00200
C 	C 	0.06680 0.84880 0.14760 -0.11300
C 	C 	0.47310 0.45640 0.57150 0.14400
C 	C 	0.87090 0.25010 0.25730 0.06800
C 	C 	0.56770 0.64500 0.39030 0.09800
C 	C 	0.84260 0.35400 0.30820 0.05500
C 	C 	0.52690 0.54360 0.42850 0.14400
C 	C 	0.87270 0.38240 0.62660 -0.05800
C 	C 	0.25980 0.81890 0.81250 -0.05500
C 	C 	0.15740 0.85400 0.19180 0.05400
C 	C 	0.40390 0.08070 0.08390 -0.19300
C 	C 	0.81330 0.19420 0.76310 -0.12400
C 	C 	0.15740 0.64600 0.69180 0.05500
C 	C 	0.87270 0.11760 0.12660 -0.05900
C 	C 	0.05690 0.91620 0.90960 0.35400
C 	C 	0.43230 0.35500 0.60970 0.09800
C 	C 	0.22460 0.60140 0.38990 -0.02500
C 	C 	0.43010 0.55960 0.40880 -0.20100
C 	C 	0.74020 0.31890 0.68750 -0.05500
C 	C 	0.70180 0.56510 0.43590 0.43600
C 	C 	0.03670 0.59640 0.59500 0.39200
C 	C 	0.46880 0.83970 0.87220 -0.16600
C 	C 	0.03930 0.74530 0.19850 -0.12100
C 	C 	0.12910 0.75010 0.24270 0.06900
C 	C 	0.96070 0.25470 0.80150 -0.12100
C 	C 	0.77540 0.39860 0.61010 -0.02500
C 	C 	0.83750 0.30120 0.70610 -0.00200
C 	C 	0.00910 0.70490 0.65080 0.05300
C 	C 	0.12730 0.88240 0.87340 -0.05900
C 	C 	0.94310 0.08380 0.09040 0.35400
C 	C 	0.74020 0.18110 0.18750 -0.05500
C 	C 	0.77540 0.10140 0.11010 -0.02500
C 	C 	0.29360 0.86670 0.86090 -0.02100
C 	C 	0.16250 0.80120 0.79390 -0.00100
C 	C 	0.90430 0.33460 0.67520 -0.03200
C 	C 	0.96070 0.24530 0.30150 -0.11900
C 	C 	0.84260 0.14600 0.80820 0.05400
C 	C 	0.93320 0.34880 0.35240 -0.11500
C 	C 	0.70640 0.13330 0.13910 -0.02100
O 	O 	0.72800 0.51950 0.46920 -0.40300
O 	O 	0.09340 0.54970 0.59750 -0.43300
O 	O 	0.72800 0.98050 0.96920 -0.40400
O 	O 	0.04270 0.39450 0.44600 -0.41500
O 	O 	0.97000 0.89710 0.89740 -0.38400
O 	O 	0.23840 0.10290 0.07970 -0.39800
O 	O 	0.91100 0.03960 0.04900 -0.44100
O 	O 	0.76160 0.60290 0.42030 -0.39700
O 	O 	0.03000 0.39710 0.60260 -0.38100
O 	O 	0.23840 0.39710 0.57970 -0.39700
O 	O 	0.90660 0.45030 0.40250 -0.43300
O 	O 	0.27200 0.01950 0.03080 -0.40400
O 	O 	0.03000 0.10290 0.10260 -0.38400
O 	O 	0.08900 0.53960 0.45100 -0.44100
O 	O 	0.09340 0.95030 0.09750 -0.43100
O 	O 	0.27200 0.48050 0.53080 -0.40300
O 	O 	0.08900 0.96040 0.95100 -0.44100
O 	O 	0.76160 0.89710 0.92030 -0.39800
O 	O 	0.90660 0.04970 0.90250 -0.43100
O 	O 	0.97000 0.60290 0.39740 -0.38100
O 	O 	0.04270 0.10550 0.94600 -0.41100
O 	O 	0.95730 0.60550 0.55400 -0.41500
O 	O 	0.95730 0.89450 0.05400 -0.41100
O 	O 	0.91100 0.46040 0.54900 -0.44100
