data_crystal

_cell_length_a 10.08410
_cell_length_b 30.46430
_cell_length_c 30.46430
_cell_angle_alpha 120.00000
_cell_angle_beta  90.00000
_cell_angle_gamma 90.00000

_symmetry_space_group_name_	'P 1'
_symmetry_space_group_name_H-M	'P 1'

loop_
_symmetry_equiv_pos_as_xyz
  x,y,z

loop_
_atom_site_label
_atom_site_type_symbol
_atom_site_fract_x
_atom_site_fract_y
_atom_site_fract_z
_atom_site_charge
Cd	Cd	0.69465 0.27222 0.16468 1.12400
Cd	Cd	0.03870 0.20085 0.36535 0.84900
Cd	Cd	0.69465 0.89246 0.72778 1.12500
Cd	Cd	0.69489 0.30637 0.19996 1.09400
Cd	Cd	0.03870 0.63465 0.83550 0.85000
Cd	Cd	0.30511 0.10641 0.30637 1.09400
Cd	Cd	0.30535 0.10754 0.27222 1.12500
Cd	Cd	0.02480 0.63457 0.81320 0.86200
Cd	Cd	0.69489 0.80004 0.10641 1.09400
Cd	Cd	0.51250 0.33333 0.66666 0.86100
Cd	Cd	0.30511 0.69363 0.80004 1.09400
Cd	Cd	0.03870 0.16450 0.79915 0.85000
Cd	Cd	0.43300 0.33333 0.66666 0.86000
Cd	Cd	0.97520 0.36543 0.18680 0.86200
Cd	Cd	0.30535 0.72778 0.83532 1.12500
Cd	Cd	0.02480 0.17863 0.36543 0.86200
Cd	Cd	0.02480 0.18680 0.82137 0.86200
Cd	Cd	0.69465 0.83532 0.10754 1.12500
Cd	Cd	0.96130 0.83550 0.20085 0.85000
Cd	Cd	0.48750 0.66667 0.33334 0.86100
Cd	Cd	0.97520 0.82137 0.63457 0.86200
Cd	Cd	0.97520 0.81320 0.17863 0.86200
Cd	Cd	0.96130 0.79915 0.63465 0.85000
Cd	Cd	0.96130 0.36535 0.16450 0.85000
Cd	Cd	0.30511 0.19996 0.89359 1.09400
Cd	Cd	0.69489 0.89359 0.69363 1.09400
Cd	Cd	0.56700 0.66667 0.33334 0.86000
Cd	Cd	0.30535 0.16468 0.89246 1.12500
H 	H 	0.21250 0.80850 0.09990 0.01100
H 	H 	0.77420 0.10660 0.30740 0.04300
H 	H 	0.66260 0.50820 0.24140 -0.03500
H 	H 	0.72220 0.23190 0.72720 0.06900
H 	H 	0.00100 0.80020 0.77420 0.05400
H 	H 	0.22580 0.30740 0.20080 0.04200
H 	H 	0.22580 0.79920 0.10660 0.04300
H 	H 	0.66260 0.75860 0.26680 -0.03500
H 	H 	0.78750 0.09990 0.29140 0.00900
H 	H 	0.00740 0.01910 0.73050 0.08400
H 	H 	0.39100 0.74260 0.96740 0.10200
H 	H 	0.78750 0.19150 0.90010 0.01100
H 	H 	0.99900 0.19980 0.22580 0.05400
H 	H 	0.33740 0.24140 0.73320 -0.03500
H 	H 	0.66400 0.76700 0.50260 0.11700
H 	H 	0.33600 0.26440 0.76700 0.11600
H 	H 	0.72220 0.27280 0.50470 0.06900
H 	H 	0.55990 0.19850 0.82870 -0.11900
H 	H 	0.39990 0.03370 0.79730 -0.02400
H 	H 	0.27780 0.50470 0.23190 0.06900
H 	H 	0.55990 0.63020 0.80150 -0.11900
H 	H 	0.21250 0.29140 0.19150 0.01000
H 	H 	0.60900 0.25740 0.03260 0.10200
H 	H 	0.27780 0.72720 0.49530 0.06900
H 	H 	0.99260 0.73050 0.71140 0.08400
H 	H 	0.46280 0.80990 0.18250 0.20200
H 	H 	0.00740 0.26950 0.28860 0.08400
H 	H 	0.55990 0.17130 0.36980 -0.11900
H 	H 	0.60900 0.96740 0.22480 0.10200
H 	H 	0.33600 0.23300 0.49740 0.11700
H 	H 	0.66400 0.49740 0.26440 0.11700
H 	H 	0.27780 0.76810 0.27280 0.06900
H 	H 	0.53720 0.19010 0.81750 0.20200
H 	H 	0.77420 0.69260 0.79920 0.04200
H 	H 	0.60010 0.79730 0.76360 -0.02300
H 	H 	0.99900 0.02600 0.80020 0.05600
H 	H 	0.44010 0.80150 0.17130 -0.11900
H 	H 	0.72220 0.49530 0.76810 0.06900
H 	H 	0.39990 0.20270 0.23640 -0.02300
H 	H 	0.39100 0.22480 0.25740 0.10200
H 	H 	0.66400 0.73560 0.23300 0.11600
H 	H 	0.46280 0.37260 0.19010 0.20200
H 	H 	0.44010 0.82870 0.63020 -0.11900
H 	H 	0.00740 0.71140 0.98090 0.08400
H 	H 	0.00100 0.22580 0.02600 0.05400
H 	H 	0.46280 0.81750 0.62740 0.20200
H 	H 	0.77420 0.20080 0.89340 0.04300
H 	H 	0.60010 0.23640 0.03370 -0.02300
H 	H 	0.22580 0.89340 0.69260 0.04300
H 	H 	0.53720 0.18250 0.37260 0.20200
H 	H 	0.60900 0.77520 0.74260 0.10200
H 	H 	0.66260 0.73320 0.49180 -0.03500
H 	H 	0.78750 0.70860 0.80850 0.01000
H 	H 	0.33600 0.50260 0.73560 0.11700
H 	H 	0.00100 0.97400 0.19980 0.05600
H 	H 	0.44010 0.36980 0.19850 -0.11900
H 	H 	0.99260 0.98090 0.26950 0.08400
H 	H 	0.33740 0.26680 0.50820 -0.03500
H 	H 	0.60010 0.96630 0.20270 -0.02400
H 	H 	0.99260 0.28860 0.01910 0.08400
H 	H 	0.39100 0.03260 0.77520 0.10200
H 	H 	0.21250 0.90010 0.70860 0.00900
H 	H 	0.99900 0.77420 0.97400 0.05400
H 	H 	0.39990 0.76360 0.96630 -0.02300
H 	H 	0.33740 0.49180 0.75860 -0.03500
H 	H 	0.53720 0.62740 0.80990 0.20200
C 	C 	0.80250 0.75670 0.72250 0.01700
C 	C 	0.55160 0.59470 0.78800 -0.08500
C 	C 	0.97590 0.31210 0.23160 0.36500
C 	C 	0.80140 0.80440 0.76640 -0.13900
C 	C 	0.58140 0.77000 0.51890 -0.23900
C 	C 	0.67980 0.78570 0.77110 0.11000
C 	C 	0.44840 0.78800 0.19330 -0.08500
C 	C 	0.79110 0.20220 0.93530 -0.04100
C 	C 	0.97590 0.76840 0.08050 0.36500
C 	C 	0.91110 0.73140 0.72750 -0.00200
C 	C 	0.66020 0.22140 0.43350 -0.05500
C 	C 	0.47390 0.56780 0.27590 0.28400
C 	C 	0.69230 0.83410 0.60570 0.90100
C 	C 	0.47280 0.74870 0.25800 -0.06100
C 	C 	0.90060 0.24390 0.95150 -0.07300
C 	C 	0.21860 0.92920 0.70890 0.09100
C 	C 	0.95900 0.26030 0.18930 0.34000
C 	C 	0.67280 0.04050 0.26580 -0.07700
C 	C 	0.71200 0.80340 0.21300 -0.02200
C 	C 	0.64800 0.51450 0.76820 0.00900
C 	C 	0.35200 0.74630 0.51450 0.00900
C 	C 	0.80140 0.23360 0.03800 -0.13900
C 	C 	0.21240 0.80620 0.21440 0.29000
C 	C 	0.91270 0.20690 0.95870 -0.05900
C 	C 	0.64800 0.25370 0.48550 0.00900
C 	C 	0.52720 0.25130 0.74200 -0.06100
C 	C 	0.67460 0.21320 0.96320 0.04200
C 	C 	0.21240 0.78560 0.59180 0.29000
C 	C 	0.18480 0.09420 0.83850 0.43800
C 	C 	0.58140 0.77490 0.56470 0.30100
C 	C 	0.28800 0.21300 0.40960 -0.02200
C 	C 	0.08730 0.79310 0.04130 -0.05900
C 	C 	0.30770 0.60570 0.77160 0.90100
C 	C 	0.53900 0.20210 0.79410 0.10600
C 	C 	0.02410 0.68790 0.76840 0.36500
C 	C 	0.90060 0.70760 0.75610 -0.07300
C 	C 	0.30770 0.16590 0.39430 0.90100
C 	C 	0.08890 0.72750 0.99610 -0.00300
C 	C 	0.69230 0.39430 0.22840 0.90100
C 	C 	0.33980 0.77860 0.56650 -0.05500
C 	C 	0.19860 0.03800 0.80440 -0.13800
C 	C 	0.55160 0.19330 0.40530 -0.08500
C 	C 	0.18850 0.69140 0.91020 0.29700
C 	C 	0.21860 0.29110 0.22030 0.09200
C 	C 	0.08890 0.00390 0.73140 -0.00300
C 	C 	0.43080 0.57090 0.76850 -0.38100
C 	C 	0.78760 0.59180 0.80620 0.29000
C 	C 	0.78760 0.19380 0.78560 0.29000
C 	C 	0.91110 0.27250 0.00390 -0.00300
C 	C 	0.53900 0.59200 0.79790 0.10600
C 	C 	0.32720 0.26580 0.22530 -0.07700
C 	C 	0.91110 0.99610 0.26860 -0.00300
C 	C 	0.47280 0.74200 0.49070 -0.06100
C 	C 	0.41600 0.23610 0.74690 0.20300
C 	C 	0.71200 0.78700 0.59040 -0.02200
C 	C 	0.32020 0.01460 0.78570 0.11000
C 	C 	0.41860 0.23000 0.48110 -0.23900
C 	C 	0.67460 0.03680 0.25000 0.04300
C 	C 	0.35200 0.48550 0.23180 0.00900
C 	C 	0.08730 0.24820 0.20690 -0.06000
C 	C 	0.54270 0.06260 0.26450 0.25800
C 	C 	0.78140 0.70890 0.77970 0.09200
C 	C 	0.55160 0.21200 0.80670 -0.08500
C 	C 	0.08890 0.26860 0.27250 -0.00200
C 	C 	0.46100 0.79410 0.59200 0.10600
C 	C 	0.41600 0.51080 0.76390 0.20300
C 	C 	0.32540 0.78680 0.03680 0.04200
C 	C 	0.91270 0.75180 0.79310 -0.06000
C 	C 	0.66020 0.21210 0.77860 -0.05500
C 	C 	0.04100 0.73970 0.81070 0.34000
C 	C 	0.58400 0.76390 0.25310 0.20300
C 	C 	0.28800 0.59040 0.80340 -0.02200
C 	C 	0.81520 0.90580 0.16150 0.43800
C 	C 	0.52720 0.25800 0.50930 -0.06100
C 	C 	0.91790 0.22260 0.01000 0.04500
C 	C 	0.47390 0.72410 0.29190 0.28400
C 	C 	0.04100 0.07100 0.26030 0.34000
C 	C 	0.31670 0.74610 0.98810 -0.09700
C 	C 	0.02410 0.08050 0.31210 0.36500
C 	C 	0.80140 0.96200 0.19560 -0.13800
C 	C 	0.67280 0.22530 0.95950 -0.07700
C 	C 	0.53900 0.20590 0.40800 0.10600
C 	C 	0.91790 0.78740 0.77740 0.04600
C 	C 	0.45730 0.79810 0.06260 0.25800
C 	C 	0.46100 0.40800 0.20210 0.10600
C 	C 	0.80250 0.27750 0.03420 0.01700
C 	C 	0.46100 0.79790 0.20590 0.10600
C 	C 	0.41860 0.22510 0.43530 0.30100
C 	C 	0.41860 0.51890 0.74890 -0.23900
C 	C 	0.32720 0.77470 0.04050 -0.07700
C 	C 	0.54270 0.73550 0.79810 0.25800
C 	C 	0.69230 0.77160 0.16590 0.90100
C 	C 	0.64800 0.23180 0.74630 0.00900
C 	C 	0.58140 0.74890 0.23000 -0.23900
C 	C 	0.58140 0.43530 0.21020 0.30100
C 	C 	0.54270 0.20190 0.93740 0.25800
C 	C 	0.35200 0.76820 0.25370 0.00900
C 	C 	0.81150 0.91020 0.21880 0.29700
C 	C 	0.58140 0.78980 0.22510 0.30100
C 	C 	0.95900 0.92900 0.73970 0.34000
C 	C 	0.66020 0.56650 0.78790 -0.05500
C 	C 	0.78140 0.07080 0.29110 0.09100
C 	C 	0.67280 0.73420 0.77470 -0.07700
C 	C 	0.52610 0.29190 0.56780 0.28400
C 	C 	0.20890 0.26690 0.20220 -0.04100
C 	C 	0.19750 0.24330 0.27750 0.01700
C 	C 	0.09940 0.29240 0.24390 -0.07300
C 	C 	0.67980 0.98540 0.21430 0.11000
C 	C 	0.32540 0.96320 0.75000 0.04300
C 	C 	0.80250 0.96580 0.24330 0.01700
C 	C 	0.45730 0.26450 0.20190 0.25800
C 	C 	0.97590 0.91950 0.68790 0.36500
C 	C 	0.56920 0.42910 0.23150 -0.38100
C 	C 	0.71200 0.40960 0.19660 -0.02200
C 	C 	0.58400 0.48920 0.23610 0.20300
C 	C 	0.21240 0.40820 0.19380 0.29000
C 	C 	0.79110 0.73310 0.79780 -0.04100
C 	C 	0.52720 0.49070 0.74870 -0.06100
C 	C 	0.78140 0.22030 0.92920 0.09100
C 	C 	0.81150 0.78120 0.69140 0.29700
C 	C 	0.58400 0.74690 0.51080 0.20300
C 	C 	0.81520 0.83850 0.74430 0.43900
C 	C 	0.43080 0.23150 0.80240 -0.38100
C 	C 	0.41860 0.25110 0.77000 -0.23900
C 	C 	0.91790 0.99000 0.21260 0.04300
C 	C 	0.41860 0.21020 0.77490 0.30100
C 	C 	0.58140 0.48110 0.25110 -0.23900
C 	C 	0.47280 0.50930 0.25130 -0.06100
C 	C 	0.32020 0.21430 0.22890 0.11000
C 	C 	0.08210 0.77740 0.99000 0.04500
C 	C 	0.18850 0.21880 0.30860 0.29700
C 	C 	0.44840 0.40530 0.21200 -0.08500
C 	C 	0.43080 0.19760 0.42910 -0.38100
C 	C 	0.32720 0.95950 0.73420 -0.07700
C 	C 	0.31670 0.24200 0.25390 -0.09600
C 	C 	0.20890 0.79780 0.06470 -0.04100
C 	C 	0.52610 0.43220 0.72410 0.28400
C 	C 	0.67980 0.22890 0.01460 0.11000
C 	C 	0.08210 0.01000 0.78740 0.04300
C 	C 	0.68330 0.98810 0.24200 -0.09800
C 	C 	0.68330 0.25390 0.01190 -0.09700
C 	C 	0.19750 0.72250 0.96580 0.01700
C 	C 	0.95900 0.81070 0.07100 0.33900
C 	C 	0.41600 0.25310 0.48920 0.20300
C 	C 	0.18480 0.74430 0.90580 0.43800
C 	C 	0.20890 0.93530 0.73310 -0.04100
C 	C 	0.90060 0.04850 0.29240 -0.07300
C 	C 	0.56920 0.80240 0.57090 -0.38100
C 	C 	0.19750 0.03420 0.75670 0.01700
C 	C 	0.81520 0.25570 0.09420 0.43800
C 	C 	0.56920 0.76850 0.19760 -0.38100
C 	C 	0.19860 0.76640 0.96200 -0.13900
C 	C 	0.02410 0.23160 0.91950 0.36500
C 	C 	0.79110 0.06470 0.26690 -0.04100
C 	C 	0.33980 0.43350 0.21210 -0.05500
C 	C 	0.08210 0.21260 0.22260 0.04600
C 	C 	0.32540 0.25000 0.21320 0.04200
C 	C 	0.33980 0.78790 0.22140 -0.05500
C 	C 	0.47390 0.70810 0.43220 0.28400
C 	C 	0.44840 0.80670 0.59470 -0.08500
C 	C 	0.41860 0.56470 0.78980 0.30100
C 	C 	0.08730 0.95870 0.75180 -0.05900
C 	C 	0.68330 0.75800 0.74610 -0.09600
C 	C 	0.18850 0.08980 0.78120 0.29700
C 	C 	0.91270 0.04130 0.24820 -0.05900
C 	C 	0.04100 0.18930 0.92900 0.33900
C 	C 	0.28800 0.19660 0.78700 -0.02200
C 	C 	0.19860 0.19560 0.23360 -0.13900
C 	C 	0.18480 0.16150 0.25570 0.43900
C 	C 	0.52610 0.27590 0.70810 0.28400
C 	C 	0.32020 0.77110 0.98540 0.11000
C 	C 	0.30770 0.22840 0.83410 0.90100
C 	C 	0.67460 0.75000 0.78680 0.04200
C 	C 	0.78760 0.21440 0.40820 0.29000
C 	C 	0.45730 0.93740 0.73550 0.25800
C 	C 	0.21860 0.77970 0.07080 0.09100
C 	C 	0.09940 0.95150 0.70760 -0.07300
C 	C 	0.81150 0.30860 0.08980 0.29700
C 	C 	0.31670 0.01190 0.75800 -0.09800
C 	C 	0.09940 0.75610 0.04850 -0.07300
O 	O 	0.32100 0.60880 0.71730 -0.04000
O 	O 	0.68170 0.77010 0.12990 -0.88000
O 	O 	0.81430 0.77940 0.56870 0.03900
O 	O 	0.98690 0.35090 0.22930 -0.55500
O 	O 	0.93140 0.37030 0.09200 -0.12000
O 	O 	0.67900 0.89150 0.60880 -0.04000
O 	O 	0.71090 0.82890 0.19260 -0.36400
O 	O 	0.10810 0.79620 0.23240 -0.36300
O 	O 	0.37510 0.72440 0.31610 -0.37000
O 	O 	0.79570 0.63900 0.83160 -0.34600
O 	O 	0.19870 0.58560 0.77420 -0.54700
O 	O 	0.03870 0.16280 0.88330 -0.36800
O 	O 	0.55500 0.96590 0.75960 0.77800
O 	O 	0.07530 0.71940 0.88340 -0.31400
O 	O 	0.68170 0.87010 0.64020 -0.88000
O 	O 	0.53770 0.11050 0.27290 -0.21800
O 	O 	0.62490 0.40830 0.72440 -0.37000
O 	O 	0.56300 0.96390 0.74080 -1.14200
O 	O 	0.72020 0.88210 0.19160 -0.28700
O 	O 	0.72020 0.80840 0.69050 -0.28700
O 	O 	0.46230 0.88950 0.72710 -0.21800
O 	O 	0.44500 0.03410 0.24040 0.77800
O 	O 	0.01310 0.12160 0.35090 -0.55500
O 	O 	0.69000 0.91000 0.10800 -0.10000
O 	O 	0.32100 0.28270 0.89150 -0.04000
O 	O 	0.31000 0.09000 0.89200 -0.10000
O 	O 	0.71090 0.80740 0.63630 -0.36400
O 	O 	0.80130 0.41440 0.22580 -0.54700
O 	O 	0.92470 0.83600 0.71940 -0.31400
O 	O 	0.28910 0.17110 0.80740 -0.36400
O 	O 	0.93140 0.90800 0.27830 -0.12000
O 	O 	0.46250 0.89340 0.70020 -0.18000
O 	O 	0.46230 0.27290 0.16240 -0.21800
O 	O 	0.01800 0.73040 0.10550 0.00500
O 	O 	0.46250 0.80680 0.10660 -0.18000
O 	O 	0.55500 0.79370 0.03410 0.77800
O 	O 	0.72020 0.30950 0.11790 -0.28700
O 	O 	0.56300 0.25920 0.22310 -1.14200
O 	O 	0.69000 0.19800 0.09000 -0.10000
O 	O 	0.53770 0.72710 0.83760 -0.21800
O 	O 	0.12810 0.70830 0.76600 -0.35600
O 	O 	0.85710 0.95010 0.75520 -0.33500
O 	O 	0.44500 0.20630 0.96590 0.77800
O 	O 	0.89190 0.23240 0.43620 -0.36400
O 	O 	0.18570 0.56870 0.78930 0.03900
O 	O 	0.27980 0.69050 0.88210 -0.28700
O 	O 	0.06860 0.62970 0.90800 -0.12000
O 	O 	0.37510 0.68390 0.40830 -0.37000
O 	O 	0.01310 0.22930 0.87840 -0.55600
O 	O 	0.31830 0.12990 0.35980 -0.88000
O 	O 	0.71170 0.25420 0.11930 -0.79100
O 	O 	0.06860 0.09200 0.72170 -0.12000
O 	O 	0.27980 0.19160 0.30950 -0.28700
O 	O 	0.01800 0.89450 0.62490 0.00500
O 	O 	0.71090 0.36370 0.17110 -0.36400
O 	O 	0.62490 0.27560 0.68390 -0.37000
O 	O 	0.20430 0.36100 0.16840 -0.34600
O 	O 	0.07530 0.11660 0.83600 -0.31400
O 	O 	0.14290 0.19490 0.95010 -0.33600
O 	O 	0.08090 0.66670 0.89370 -0.45100
O 	O 	0.28830 0.74580 0.88070 -0.79100
O 	O 	0.08090 0.22700 0.33330 -0.45100
O 	O 	0.41640 0.29990 0.71180 -0.46700
O 	O 	0.79570 0.19260 0.36100 -0.34600
O 	O 	0.43700 0.03610 0.25920 -1.14200
O 	O 	0.87190 0.29170 0.23400 -0.35600
O 	O 	0.01800 0.37510 0.26960 0.00500
O 	O 	0.58360 0.58810 0.29990 -0.46700
O 	O 	0.14290 0.75520 0.80510 -0.33600
O 	O 	0.81430 0.43130 0.21070 0.03900
O 	O 	0.56300 0.77690 0.03610 -1.14200
O 	O 	0.20430 0.83160 0.19260 -0.34600
O 	O 	0.43700 0.74080 0.77690 -1.14200
O 	O 	0.03870 0.72050 0.83720 -0.36800
O 	O 	0.27980 0.11790 0.80840 -0.28700
O 	O 	0.89190 0.20380 0.76760 -0.36300
O 	O 	0.55500 0.24040 0.20630 0.77800
O 	O 	0.53750 0.19320 0.89340 -0.18000
O 	O 	0.06860 0.27830 0.37030 -0.12000
O 	O 	0.87190 0.76600 0.05770 -0.35600
O 	O 	0.80130 0.81140 0.58560 -0.54700
O 	O 	0.92470 0.28060 0.11660 -0.31400
O 	O 	0.85710 0.24480 0.19490 -0.33600
O 	O 	0.31000 0.10800 0.19800 -0.10000
O 	O 	0.58360 0.71180 0.41190 -0.46700
O 	O 	0.20430 0.80740 0.63900 -0.34600
O 	O 	0.71170 0.88070 0.13490 -0.79100
O 	O 	0.80130 0.77420 0.18860 -0.54700
O 	O 	0.98690 0.77070 0.12160 -0.55600
O 	O 	0.93140 0.72170 0.62970 -0.12000
O 	O 	0.10810 0.43620 0.20380 -0.36400
O 	O 	0.28830 0.13490 0.25420 -0.79100
O 	O 	0.14290 0.04990 0.24480 -0.33500
O 	O 	0.32100 0.10850 0.39120 -0.04000
O 	O 	0.87190 0.94230 0.70830 -0.35600
O 	O 	0.96130 0.83720 0.11670 -0.36800
O 	O 	0.98690 0.87840 0.64910 -0.55500
O 	O 	0.91910 0.77300 0.66670 -0.45100
O 	O 	0.91910 0.89370 0.22700 -0.45100
O 	O 	0.68170 0.35980 0.22990 -0.88000
O 	O 	0.91910 0.33330 0.10630 -0.45100
O 	O 	0.67900 0.71730 0.10850 -0.04000
O 	O 	0.46250 0.29980 0.19320 -0.18000
O 	O 	0.18570 0.22060 0.43130 0.03900
O 	O 	0.12810 0.23400 0.94230 -0.35600
O 	O 	0.18570 0.21070 0.77940 0.03900
O 	O 	0.98200 0.62490 0.73040 0.00500
O 	O 	0.41640 0.28820 0.58810 -0.46700
O 	O 	0.31830 0.22990 0.87010 -0.88000
O 	O 	0.67900 0.39120 0.28270 -0.04000
O 	O 	0.53770 0.16240 0.88950 -0.21800
O 	O 	0.81430 0.78930 0.22060 0.03900
O 	O 	0.79570 0.16840 0.80740 -0.34600
O 	O 	0.53750 0.10660 0.29980 -0.18000
O 	O 	0.98200 0.10550 0.37510 0.00500
O 	O 	0.89190 0.56380 0.79620 -0.36400
O 	O 	0.46230 0.83760 0.11050 -0.21800
O 	O 	0.58360 0.70010 0.28820 -0.46700
O 	O 	0.41640 0.41190 0.70010 -0.46700
O 	O 	0.03870 0.11670 0.27950 -0.36800
O 	O 	0.31000 0.80200 0.91000 -0.10000
O 	O 	0.43700 0.22310 0.96390 -1.14200
O 	O 	0.19870 0.18860 0.41440 -0.54700
O 	O 	0.12810 0.05770 0.29170 -0.35600
O 	O 	0.08090 0.10630 0.77300 -0.45100
O 	O 	0.10810 0.76760 0.56380 -0.36400
O 	O 	0.31830 0.64020 0.77010 -0.88000
O 	O 	0.19870 0.22580 0.81140 -0.54700
O 	O 	0.44500 0.75960 0.79370 0.77800
O 	O 	0.96130 0.88330 0.72050 -0.36800
O 	O 	0.98200 0.26960 0.89450 0.00500
O 	O 	0.69000 0.89200 0.80200 -0.10000
O 	O 	0.85710 0.80510 0.04990 -0.33600
O 	O 	0.53750 0.70020 0.80680 -0.18000
O 	O 	0.71170 0.86510 0.74580 -0.79100
O 	O 	0.28910 0.19260 0.36370 -0.36400
O 	O 	0.96130 0.27950 0.16280 -0.36800
O 	O 	0.37510 0.59170 0.27560 -0.37000
O 	O 	0.28910 0.63630 0.82890 -0.36400
O 	O 	0.92470 0.88340 0.16400 -0.31400
O 	O 	0.07530 0.16400 0.28060 -0.31400
O 	O 	0.28830 0.11930 0.86510 -0.79100
O 	O 	0.62490 0.31610 0.59170 -0.37000
O 	O 	0.01310 0.64910 0.77070 -0.55500
