data_crystal

_cell_length_a 9.65210
_cell_length_b 15.49460
_cell_length_c 15.49460
_cell_angle_alpha 64.19400
_cell_angle_beta  78.01560
_cell_angle_gamma 101.98400

_symmetry_space_group_name_	'P 1'
_symmetry_space_group_name_H-M	'P 1'

loop_
_symmetry_equiv_pos_as_xyz
  x,y,z

loop_
_atom_site_label
_atom_site_type_symbol
_atom_site_fract_x
_atom_site_fract_y
_atom_site_fract_z
_atom_site_charge
Fe	Fe	-0.00000 0.50000 -0.00000 1.12100
Fe	Fe	-0.00000 0.00000 0.50000 1.12200
Fe	Fe	0.50000 0.50000 0.50000 1.17300
Si	Si	0.50000 0.29676 0.29676 0.25300
Si	Si	0.20324 0.70324 0.59352 0.23100
Si	Si	0.79676 0.29676 0.40648 0.29500
Si	Si	0.79676 0.59352 0.70324 0.30200
Si	Si	0.20324 0.40648 0.29676 0.22000
Si	Si	0.50000 0.70324 0.70324 0.27300
H 	H 	0.39390 0.27890 0.57200 -0.02600
H 	H 	0.98250 0.27830 0.84670 0.12000
H 	H 	0.29580 0.27830 0.87500 0.08000
H 	H 	0.11500 0.72110 0.85090 -0.02700
H 	H 	0.70420 0.87500 0.27830 0.09500
H 	H 	0.60610 0.72110 0.42800 -0.02100
H 	H 	0.11500 0.14910 0.27890 -0.02400
H 	H 	0.01750 0.72170 0.15330 0.02400
H 	H 	0.29580 0.12500 0.72170 0.06800
H 	H 	0.17080 0.87500 0.84670 0.05700
H 	H 	0.96590 0.85090 0.42800 0.08000
H 	H 	0.39390 0.42800 0.72110 -0.02400
H 	H 	0.17080 0.15330 0.12500 0.05100
H 	H 	0.82920 0.84670 0.87500 0.09900
H 	H 	0.82920 0.12500 0.15330 0.09200
H 	H 	0.01750 0.84670 0.27830 0.02200
H 	H 	0.88500 0.85090 0.72110 -0.02100
H 	H 	0.03410 0.14910 0.57200 -0.13100
H 	H 	0.88500 0.27890 0.14910 -0.01600
H 	H 	0.60610 0.57200 0.27890 -0.02300
H 	H 	0.03410 0.42800 0.85090 -0.13200
H 	H 	0.70420 0.72170 0.12500 0.08400
H 	H 	0.96590 0.57200 0.14910 0.09400
H 	H 	0.98250 0.15330 0.72170 0.12600
C 	C 	0.90375 0.91211 0.72156 0.12300
C 	C 	0.00836 0.91211 0.36633 -0.06900
C 	C 	0.68434 0.81447 0.27675 -0.13500
C 	C 	0.70306 0.39878 0.42410 -0.04400
C 	C 	0.31566 0.18553 0.72325 -0.14000
C 	C 	0.10225 0.81575 -0.00000 -0.03900
C 	C 	0.09625 0.08789 0.27844 0.03100
C 	C 	0.29694 0.42410 0.39878 -0.05600
C 	C 	0.89775 0.18425 -0.00000 0.07600
C 	C 	0.31566 0.27675 0.81447 -0.14000
C 	C 	0.90375 0.27844 0.08789 0.09300
C 	C 	0.68434 0.72325 0.18553 -0.13500
C 	C 	0.22309 0.08584 0.91416 0.11600
C 	C 	0.70306 0.57590 0.60122 -0.04500
C 	C 	0.30428 0.17712 0.39878 -0.05800
C 	C 	0.89775 0.00000 0.81575 0.07500
C 	C 	0.87284 0.17712 0.42410 -0.03500
C 	C 	0.99164 0.08789 0.63367 0.23700
C 	C 	0.96109 0.09122 0.72325 -0.21600
C 	C 	0.03891 0.90878 0.27675 -0.01400
C 	C 	0.71350 0.81575 0.18425 0.06700
C 	C 	0.30428 0.60122 0.82288 -0.05100
C 	C 	0.69572 0.39878 0.17712 -0.05100
C 	C 	0.99164 0.36633 0.91211 0.25900
C 	C 	0.86275 0.08584 -0.00000 0.07500
C 	C 	0.12716 0.82288 0.57590 -0.06500
C 	C 	0.62531 0.63367 0.27844 0.08100
C 	C 	0.13013 0.81447 0.90878 -0.06200
C 	C 	0.86987 0.18553 0.09122 -0.15500
C 	C 	0.37469 0.27844 0.63367 0.06700
C 	C 	0.00836 0.63367 0.08789 -0.11400
C 	C 	0.87284 0.57590 0.82288 -0.02900
C 	C 	0.29694 0.60122 0.57590 -0.05600
C 	C 	0.77691 0.91416 0.08584 0.13200
C 	C 	0.96109 0.27675 0.90878 -0.18900
C 	C 	0.28650 0.18425 0.81575 0.04700
C 	C 	0.09625 0.72156 0.91211 0.06700
C 	C 	0.03891 0.72325 0.09122 -0.03200
C 	C 	0.10225 -0.00000 0.18425 -0.03000
C 	C 	0.86987 0.90878 0.81447 -0.12900
C 	C 	0.69572 0.82288 0.60122 -0.04400
C 	C 	0.13013 0.09122 0.18553 -0.10100
C 	C 	0.12716 0.42410 0.17712 -0.07400
C 	C 	0.13725 0.00000 0.08584 0.07700
C 	C 	0.13725 0.91416 -0.00000 0.11100
C 	C 	0.86275 -0.00000 0.91416 0.10700
C 	C 	0.37469 0.36633 0.72156 0.06900
C 	C 	0.62531 0.72156 0.36633 0.08300
N 	N 	0.63628 0.44246 0.45002 -0.24200
N 	N 	0.80408 -0.00000 0.09076 -0.15000
N 	N 	0.19382 0.55754 0.89248 -0.24000
N 	N 	0.89484 0.09076 0.90924 -0.11600
N 	N 	0.36372 0.55754 0.54998 -0.24800
N 	N 	0.63628 0.54998 0.55754 -0.24100
N 	N 	0.08630 0.45002 0.10752 -0.26300
N 	N 	0.10516 0.90924 0.09076 -0.13600
N 	N 	0.19592 0.00000 0.90924 -0.15400
N 	N 	0.40555 0.36823 0.63177 -0.25800
N 	N 	0.59445 0.63177 0.36823 -0.25700
N 	N 	0.36372 0.45002 0.44246 -0.24800
N 	N 	0.08630 0.89248 0.54998 -0.24700
N 	N 	0.80618 0.44246 0.10752 -0.22900
N 	N 	0.03732 0.00000 0.36823 -0.25500
N 	N 	0.80618 0.89248 0.55754 -0.21700
N 	N 	0.19382 0.10752 0.44246 -0.25600
N 	N 	0.03732 0.63177 -0.00000 -0.25400
N 	N 	0.91370 0.10752 0.45002 -0.22300
N 	N 	0.80408 0.90924 -0.00000 -0.14100
N 	N 	0.96268 0.36823 -0.00000 -0.28400
N 	N 	0.91370 0.54998 0.89248 -0.21000
N 	N 	0.19592 0.09076 -0.00000 -0.16800
N 	N 	0.96268 0.00000 0.63177 -0.28500
