data_crystal

_cell_length_a 9.57780
_cell_length_b 15.60620
_cell_length_c 15.60620
_cell_angle_alpha 64.07300
_cell_angle_beta  78.19560
_cell_angle_gamma 101.80400

_symmetry_space_group_name_	'P 1'
_symmetry_space_group_name_H-M	'P 1'

loop_
_symmetry_equiv_pos_as_xyz
  x,y,z

loop_
_atom_site_label
_atom_site_type_symbol
_atom_site_fract_x
_atom_site_fract_y
_atom_site_fract_z
_atom_site_charge
Fe	Fe	-0.00000 0.00000 0.50000 1.09900
Fe	Fe	0.50000 0.50000 0.50000 1.14600
Fe	Fe	-0.00000 0.50000 -0.00000 1.09800
Si	Si	0.79300 0.29300 0.41400 0.30700
Si	Si	0.79300 0.58600 0.70700 0.31500
Si	Si	0.20700 0.70700 0.58600 0.24800
Si	Si	0.50000 0.29300 0.29300 0.26800
Si	Si	0.20700 0.41400 0.29300 0.23700
Si	Si	0.50000 0.70700 0.70700 0.28800
H 	H 	0.12190 0.14810 0.27520 -0.02300
H 	H 	0.82820 0.84860 0.87570 0.09900
H 	H 	0.97380 0.57670 0.14810 0.09400
H 	H 	0.02620 0.14810 0.57670 -0.13200
H 	H 	0.97960 0.15140 0.72430 0.12600
H 	H 	0.29610 0.27570 0.87570 0.07900
H 	H 	0.70390 0.72430 0.12430 0.08300
H 	H 	0.17180 0.87570 0.84860 0.05500
H 	H 	0.39710 0.27520 0.57670 -0.02600
H 	H 	0.82820 0.12430 0.15140 0.09200
H 	H 	0.60290 0.57670 0.27520 -0.02300
H 	H 	0.17180 0.15140 0.12430 0.04900
H 	H 	0.87810 0.27520 0.14810 -0.01900
H 	H 	0.29610 0.12430 0.72430 0.06600
H 	H 	0.39710 0.42330 0.72480 -0.02500
H 	H 	0.02620 0.42330 0.85190 -0.13300
H 	H 	0.70390 0.87570 0.27570 0.09400
H 	H 	0.87810 0.85190 0.72480 -0.02300
H 	H 	0.02040 0.84860 0.27570 0.02000
H 	H 	0.60290 0.72480 0.42330 -0.02200
H 	H 	0.12190 0.72480 0.85190 -0.02600
H 	H 	0.97380 0.85190 0.42330 0.08000
H 	H 	0.97960 0.27570 0.84860 0.12000
H 	H 	0.02040 0.72430 0.15140 0.02200
C 	C 	0.31130 0.60590 0.82000 -0.06400
C 	C 	0.29460 0.60590 0.57410 -0.06900
C 	C 	0.04250 0.91030 0.27410 -0.00700
C 	C 	0.13130 0.42590 0.18000 -0.08400
C 	C 	0.37660 0.36260 0.72470 0.06700
C 	C 	0.86780 0.18440 0.08970 -0.15700
C 	C 	0.71380 0.81800 0.18200 0.06400
C 	C 	0.70540 0.39410 0.42590 -0.05800
C 	C 	0.89870 0.27530 0.08730 0.09400
C 	C 	0.77580 0.91430 0.08570 0.13400
C 	C 	0.68340 0.81560 0.27410 -0.13400
C 	C 	0.13220 0.81560 0.91030 -0.05600
C 	C 	0.98600 0.08730 0.63740 0.23700
C 	C 	0.31130 0.18000 0.39410 -0.07100
C 	C 	0.86150 0.08570 -0.00000 0.07700
C 	C 	0.01400 0.91270 0.36260 -0.07400
C 	C 	0.10420 0.81800 -0.00000 -0.04500
C 	C 	0.86870 0.18000 0.42590 -0.04900
C 	C 	0.31660 0.18440 0.72590 -0.13800
C 	C 	0.01400 0.63740 0.08730 -0.11800
C 	C 	0.89580 0.00000 0.81800 0.07600
C 	C 	0.13220 0.08970 0.18440 -0.09500
C 	C 	0.29460 0.42590 0.39410 -0.06800
C 	C 	0.10130 0.08730 0.27530 0.02700
C 	C 	0.70540 0.57410 0.60590 -0.05800
C 	C 	0.62340 0.72470 0.36260 0.08100
C 	C 	0.10130 0.72470 0.91270 0.06100
C 	C 	0.68870 0.39410 0.18000 -0.06300
C 	C 	0.86780 0.91030 0.81560 -0.13100
C 	C 	0.28620 0.18200 0.81800 0.04300
C 	C 	0.31660 0.27410 0.81560 -0.13800
C 	C 	0.13850 0.00000 0.08570 0.08400
C 	C 	0.62340 0.63740 0.27530 0.08000
C 	C 	0.95750 0.27410 0.91030 -0.19300
C 	C 	0.86870 0.57410 0.82000 -0.04400
C 	C 	0.37660 0.27530 0.63740 0.06500
C 	C 	0.13130 0.82000 0.57410 -0.07700
C 	C 	0.13850 0.91430 -0.00000 0.11800
C 	C 	0.10420 -0.00000 0.18200 -0.03600
C 	C 	0.04250 0.72590 0.08970 -0.02400
C 	C 	0.68340 0.72590 0.18440 -0.13400
C 	C 	0.89580 0.18200 -0.00000 0.07700
C 	C 	0.95750 0.08970 0.72590 -0.22000
C 	C 	0.86150 -0.00000 0.91430 0.10700
C 	C 	0.98600 0.36260 0.91270 0.25900
C 	C 	0.89870 0.91270 0.72470 0.12300
C 	C 	0.22420 0.08570 0.91430 0.12100
C 	C 	0.68870 0.82000 0.60590 -0.05800
N 	N 	0.89480 0.08860 0.91140 -0.11700
N 	N 	0.19380 -0.00000 0.91140 -0.15600
N 	N 	0.59310 0.63560 0.36440 -0.25100
N 	N 	0.90870 0.55400 0.88870 -0.20100
N 	N 	0.64530 0.44270 0.44600 -0.23000
N 	N 	0.79740 0.88870 0.55730 -0.20700
N 	N 	0.35470 0.44600 0.44270 -0.23800
N 	N 	0.09130 0.88870 0.55400 -0.23600
N 	N 	0.04250 0.63560 -0.00000 -0.24600
N 	N 	0.95750 0.00000 0.63560 -0.28100
N 	N 	0.90870 0.11130 0.44600 -0.21300
N 	N 	0.19380 0.08860 -0.00000 -0.17000
N 	N 	0.80620 0.91140 -0.00000 -0.14100
N 	N 	0.79740 0.44270 0.11130 -0.21900
N 	N 	0.95750 0.36440 -0.00000 -0.28000
N 	N 	0.80620 -0.00000 0.08860 -0.15000
N 	N 	0.09130 0.44600 0.11130 -0.25100
N 	N 	0.64530 0.55400 0.55730 -0.22900
N 	N 	0.35470 0.55730 0.55400 -0.23700
N 	N 	0.20260 0.11130 0.44270 -0.24500
N 	N 	0.04250 -0.00000 0.36440 -0.24700
N 	N 	0.10520 0.91140 0.08860 -0.13900
N 	N 	0.40690 0.36440 0.63560 -0.25200
N 	N 	0.20260 0.55730 0.88870 -0.22900
