data_crystal

_cell_length_a 12.90220
_cell_length_b 20.05870
_cell_length_c 20.05870
_cell_angle_alpha 101.70800
_cell_angle_beta  107.84900
_cell_angle_gamma 72.15100

_symmetry_space_group_name_	'P 1'
_symmetry_space_group_name_H-M	'P 1'

loop_
_symmetry_equiv_pos_as_xyz
  x,y,z

loop_
_atom_site_label
_atom_site_type_symbol
_atom_site_fract_x
_atom_site_fract_y
_atom_site_fract_z
_atom_site_charge
Co	Co	0.67120 0.70851 0.29149 1.14300
Co	Co	0.92700 0.72608 0.27392 1.20500
Co	Co	0.43563 0.30914 0.18268 1.17900
Co	Co	0.07300 0.27392 0.72608 1.19200
Co	Co	-0.00000 0.00000 -0.00000 1.11800
Co	Co	0.56437 0.69086 0.81732 1.17900
Co	Co	0.32880 0.29149 0.70851 1.14200
Co	Co	0.56437 0.18268 0.30914 1.17800
Co	Co	0.43563 0.81732 0.69086 1.17900
H 	H 	0.97280 0.84870 0.97250 0.03100
H 	H 	0.54470 0.51410 0.33690 0.03100
H 	H 	0.33570 0.83060 0.53340 0.00900
H 	H 	0.77870 0.06350 0.32270 0.03300
H 	H 	0.57350 0.65430 0.37410 0.02300
H 	H 	0.22130 0.93650 0.67730 -0.00500
H 	H 	0.56820 0.82320 0.39820 -0.03500
H 	H 	0.19950 0.56290 0.19930 0.06900
H 	H 	0.53380 0.67620 0.05920 0.07800
H 	H 	0.23160 0.75520 0.65800 0.02500
H 	H 	0.22770 0.79160 0.20840 0.05000
H 	H 	0.76960 0.11510 0.98550 0.06400
H 	H 	0.76960 0.01450 0.88490 -0.00400
H 	H 	0.77230 0.20840 0.79160 0.08300
H 	H 	0.16170 0.05780 0.68540 0.08200
H 	H 	0.35610 0.81980 0.95160 0.08100
H 	H 	0.15230 0.16870 0.83130 0.00900
H 	H 	0.46620 0.05920 0.67620 0.08200
H 	H 	0.66430 0.16940 0.46660 0.00900
H 	H 	0.02720 0.97250 0.84870 0.01700
H 	H 	0.45530 0.48590 0.66310 0.03000
H 	H 	0.90960 0.27420 0.43380 0.08100
H 	H 	0.51910 0.32870 0.06190 0.03900
H 	H 	0.64390 0.18020 0.04840 0.04800
H 	H 	0.16170 0.31460 0.94220 0.04400
H 	H 	0.97280 0.02750 0.15130 0.02400
H 	H 	0.84950 0.26240 0.73760 -0.00500
H 	H 	0.48090 0.06190 0.32870 0.03900
H 	H 	0.80050 0.43710 0.80070 0.07200
H 	H 	0.19950 0.80070 0.43710 0.07300
H 	H 	0.64390 0.95160 0.81980 0.08300
H 	H 	0.20530 0.34980 0.55980 -0.00500
H 	H 	0.23860 0.54830 0.65790 0.09900
H 	H 	0.43180 0.39820 0.82320 -0.03400
H 	H 	0.76140 0.65790 0.54830 0.10400
H 	H 	0.15080 0.91130 0.78150 0.06500
H 	H 	0.70900 0.80880 0.54960 -0.01500
H 	H 	0.33570 0.46660 0.16940 0.00700
H 	H 	0.48310 0.50070 0.83330 0.11400
H 	H 	0.15050 0.73760 0.26240 0.02500
H 	H 	0.29100 0.54960 0.80880 -0.01900
H 	H 	0.48090 0.67130 0.93810 0.00800
H 	H 	0.20530 0.44020 0.65020 -0.00600
H 	H 	0.66430 0.53340 0.83060 0.01100
H 	H 	0.48310 0.16670 0.49930 0.10900
H 	H 	0.54470 0.66310 0.48590 0.03000
H 	H 	0.22130 0.32270 0.06350 0.02800
H 	H 	0.42650 0.37410 0.65430 0.02300
H 	H 	0.51910 0.93810 0.67130 0.00600
H 	H 	0.84920 0.08870 0.21850 0.05600
H 	H 	0.09040 0.72580 0.56620 0.07400
H 	H 	0.08650 0.10920 0.89080 0.08300
H 	H 	0.57350 0.62590 0.34570 0.02200
H 	H 	0.25780 0.44470 0.79350 0.09200
H 	H 	0.51690 0.49930 0.16670 0.11000
H 	H 	0.56820 0.60180 0.17680 -0.03800
H 	H 	0.15080 0.21850 0.08870 0.05000
H 	H 	0.23860 0.34210 0.45170 0.09800
H 	H 	0.77870 0.67730 0.93650 0.00100
H 	H 	0.45530 0.33690 0.51410 0.03000
H 	H 	0.46620 0.32380 0.94080 0.04300
H 	H 	0.29100 0.19120 0.45040 -0.02300
H 	H 	0.79470 0.55980 0.34980 -0.00200
H 	H 	0.79470 0.65020 0.44020 -0.00300
H 	H 	0.74220 0.79350 0.44470 0.09600
H 	H 	0.25780 0.20650 0.55530 0.08900
H 	H 	0.35610 0.04840 0.18020 0.04300
H 	H 	0.76840 0.24480 0.34200 0.02900
H 	H 	0.76140 0.45170 0.34210 0.10300
H 	H 	0.23040 0.98550 0.11510 0.07200
H 	H 	0.83830 0.68540 0.05780 0.08600
H 	H 	0.84920 0.78150 0.91130 0.06900
H 	H 	0.42650 0.34570 0.62590 0.02200
H 	H 	0.23040 0.88490 0.01450 -0.00100
H 	H 	0.53380 0.94080 0.32380 0.04000
H 	H 	0.70900 0.45040 0.19120 -0.01800
H 	H 	0.09040 0.43380 0.27420 0.07200
H 	H 	0.43180 0.17680 0.60180 -0.03800
H 	H 	0.74220 0.55530 0.20650 0.09300
H 	H 	0.76840 0.65800 0.75520 0.02900
H 	H 	0.51690 0.83330 0.50070 0.11500
H 	H 	0.91350 0.89080 0.10920 0.04900
H 	H 	0.84770 0.83130 0.16870 0.02800
H 	H 	0.23160 0.34200 0.24480 0.02500
H 	H 	0.83830 0.94220 0.31460 0.04900
H 	H 	0.80050 0.19930 0.56290 0.06900
H 	H 	0.90960 0.56620 0.72580 0.08200
H 	H 	0.02720 0.15130 0.02750 0.00800
C 	C 	0.78580 0.10940 0.03280 -0.02600
C 	C 	0.72670 0.69570 0.15270 0.37900
C 	C 	0.42950 0.48830 0.79350 -0.20700
C 	C 	0.79580 0.48160 0.79120 -0.06900
C 	C 	0.71330 0.53950 0.80810 0.05000
C 	C 	0.55360 0.67440 0.96260 0.09300
C 	C 	0.44640 0.32560 0.03740 -0.01900
C 	C 	0.27190 0.96150 0.67830 0.10700
C 	C 	0.30100 0.45120 0.76660 -0.16400
C 	C 	0.90490 0.05770 0.13010 0.02200
C 	C 	0.72810 0.03850 0.32170 -0.02000
C 	C 	0.57050 0.51170 0.20650 -0.20700
C 	C 	0.41600 0.30820 0.52220 0.03500
C 	C 	0.96340 0.42910 0.74010 0.33400
C 	C 	0.27190 0.32170 0.03850 -0.01600
C 	C 	0.40300 0.42490 0.78550 0.16600
C 	C 	0.09510 0.94230 0.86990 0.03900
C 	C 	0.73200 0.68410 0.45030 0.13200
C 	C 	0.58400 0.52220 0.30820 0.03500
C 	C 	0.70950 0.92970 0.85130 -0.07900
C 	C 	0.39700 0.31500 0.58900 -0.07100
C 	C 	0.92510 0.82350 0.17650 0.02500
C 	C 	0.41600 0.47780 0.69180 0.03600
C 	C 	0.71330 0.19190 0.46050 0.04700
C 	C 	0.71400 0.68920 0.51640 -0.14900
C 	C 	0.64600 0.18210 0.18210 0.38300
C 	C 	0.92190 0.15130 0.84870 0.02800
C 	C 	0.22540 0.76420 0.61300 0.06400
C 	C 	0.28670 0.80810 0.53950 0.05300
C 	C 	0.40300 0.21450 0.57510 0.16300
C 	C 	0.26800 0.31590 0.54970 0.12900
C 	C 	0.40610 0.60010 0.74490 0.34000
C 	C 	0.03660 0.74010 0.42910 0.27300
C 	C 	0.69120 0.92760 0.31500 -0.09700
C 	C 	0.72810 0.67830 0.96150 0.09700
C 	C 	0.72670 0.84730 0.30430 0.41200
C 	C 	0.07810 0.84870 0.15130 -0.08800
C 	C 	0.35400 0.18210 0.18210 0.38300
C 	C 	0.30880 0.31500 0.92760 -0.09600
C 	C 	0.32000 0.51560 0.77540 0.16500
C 	C 	0.29050 0.85130 0.92970 -0.07700
C 	C 	0.40610 0.25510 0.39990 0.34000
C 	C 	0.86000 0.55790 0.74650 -0.06900
C 	C 	0.35400 0.81790 0.81790 0.37300
C 	C 	0.14000 0.74650 0.55790 -0.08200
C 	C 	0.83110 0.09490 0.17110 -0.03600
C 	C 	0.10200 0.76900 0.23100 0.01200
C 	C 	0.64600 0.81790 0.81790 0.37300
C 	C 	0.59700 0.57510 0.21450 0.16500
C 	C 	0.27330 0.15270 0.69570 0.37700
C 	C 	0.58420 0.96460 0.32180 0.02400
C 	C 	0.03570 0.14030 0.85970 -0.13500
C 	C 	0.32000 0.22460 0.48440 0.16400
C 	C 	0.21420 0.89060 0.96720 0.08400
C 	C 	0.68000 0.48440 0.22460 0.16500
C 	C 	0.69900 0.76660 0.45120 -0.16500
C 	C 	0.12630 0.88590 0.11410 0.35300
C 	C 	0.23530 0.31670 0.96530 0.01300
C 	C 	0.96340 0.25990 0.57090 0.33500
C 	C 	0.26900 0.85890 0.85870 -0.03700
C 	C 	0.73100 0.85870 0.85890 -0.03400
C 	C 	0.69120 0.68500 0.07240 -0.01300
C 	C 	0.26900 0.14130 0.14110 -0.07600
C 	C 	0.73100 0.14110 0.14130 -0.07000
C 	C 	0.85000 0.19890 0.80110 -0.12500
C 	C 	0.28600 0.31080 0.48360 -0.14800
C 	C 	0.87370 0.11410 0.88590 0.31800
C 	C 	0.12770 0.50910 0.24050 -0.00800
C 	C 	0.68000 0.77540 0.51560 0.16700
C 	C 	0.37530 0.25870 0.46630 -0.05500
C 	C 	0.60300 0.58900 0.31500 -0.07100
C 	C 	0.09510 0.13010 0.05770 0.01600
C 	C 	0.59700 0.78550 0.42490 0.16700
C 	C 	0.07490 0.17650 0.82350 0.07500
C 	C 	0.14000 0.44210 0.25350 -0.08300
C 	C 	0.58400 0.69180 0.47780 0.03600
C 	C 	0.30100 0.23340 0.54880 -0.16100
C 	C 	0.78580 0.96720 0.89060 0.09300
C 	C 	0.96430 0.85970 0.14030 -0.00800
C 	C 	0.22540 0.38700 0.23580 0.06200
C 	C 	0.20420 0.79120 0.48160 -0.08100
C 	C 	0.03660 0.57090 0.25990 0.27100
C 	C 	0.62470 0.74130 0.53370 -0.05200
C 	C 	0.20420 0.51840 0.20880 -0.08200
C 	C 	0.60300 0.68500 0.41100 -0.07300
C 	C 	0.44640 0.96260 0.67440 0.10300
C 	C 	0.41580 0.03540 0.67820 -0.12900
C 	C 	0.70950 0.14870 0.07030 -0.01800
C 	C 	0.86000 0.25350 0.44210 -0.06900
C 	C 	0.73200 0.54970 0.31590 0.13100
C 	C 	0.12770 0.75950 0.49090 -0.00600
C 	C 	0.23530 0.03470 0.68330 -0.13200
C 	C 	0.76470 0.68330 0.03470 -0.11800
C 	C 	0.59390 0.74490 0.60010 0.34000
C 	C 	0.16890 0.17110 0.09490 -0.03700
C 	C 	0.21420 0.03280 0.10940 -0.04400
C 	C 	0.77460 0.61300 0.76420 0.06200
C 	C 	0.62470 0.46630 0.25870 -0.05300
C 	C 	0.37530 0.53370 0.74130 -0.05300
C 	C 	0.87230 0.24050 0.50910 -0.02100
C 	C 	0.41580 0.32180 0.96460 0.01500
C 	C 	0.39700 0.41100 0.68500 -0.07300
C 	C 	0.26800 0.45030 0.68410 0.13100
C 	C 	0.77460 0.23580 0.38700 0.06000
C 	C 	0.87230 0.49090 0.75950 -0.01800
C 	C 	0.57050 0.79350 0.48830 -0.20900
C 	C 	0.42950 0.20650 0.51170 -0.20500
C 	C 	0.58420 0.67820 0.03540 -0.11700
C 	C 	0.71400 0.48360 0.31080 -0.14800
C 	C 	0.27330 0.30430 0.84730 0.41100
C 	C 	0.59390 0.39990 0.25510 0.34000
C 	C 	0.30880 0.07240 0.68500 -0.00900
C 	C 	0.55360 0.03740 0.32560 -0.02500
C 	C 	0.29050 0.07030 0.14870 -0.01200
C 	C 	0.89800 0.23100 0.76900 0.11900
C 	C 	0.28670 0.46050 0.19190 0.05000
C 	C 	0.69900 0.54880 0.23340 -0.16300
C 	C 	0.28600 0.51640 0.68920 -0.14900
C 	C 	0.83110 0.82890 0.90510 -0.05600
C 	C 	0.79580 0.20880 0.51840 -0.07000
C 	C 	0.15000 0.80110 0.19890 -0.03800
C 	C 	0.90490 0.86990 0.94230 0.04300
C 	C 	0.16890 0.90510 0.82890 -0.05800
C 	C 	0.76470 0.96530 0.31670 0.02100
N 	N 	0.33590 0.40030 0.72530 -0.21400
N 	N 	0.88210 0.93900 0.93620 -0.20500
N 	N 	0.29960 0.39520 0.20660 -0.21300
N 	N 	0.70040 0.20660 0.39520 -0.21100
N 	N 	0.29960 0.79340 0.60480 -0.21300
N 	N 	0.88210 0.06380 0.06100 -0.19900
N 	N 	0.66410 0.59970 0.27470 -0.21400
N 	N 	0.66410 0.72530 0.40030 -0.21400
N 	N 	0.37550 0.92590 0.67510 -0.22900
N 	N 	0.11790 0.06100 0.06380 -0.20700
N 	N 	0.62450 0.07410 0.32490 -0.19000
N 	N 	0.37550 0.32490 0.07410 -0.19200
N 	N 	0.00570 0.22150 0.77850 -0.23700
N 	N 	0.11790 0.93620 0.93900 -0.21200
N 	N 	0.33590 0.27470 0.59970 -0.21400
N 	N 	0.62450 0.67510 0.92590 -0.22600
N 	N 	0.70040 0.60480 0.79340 -0.21100
N 	N 	0.99430 0.77850 0.22150 -0.18200
O 	O 	0.59900 0.67690 0.61470 -0.04300
O 	O 	0.77110 0.12630 0.87370 -0.27100
O 	O 	0.22890 0.87370 0.12630 -0.28300
O 	O 	0.56510 0.84660 0.77300 -0.42300
O 	O 	0.95750 0.36880 0.74460 -0.37100
O 	O 	0.65730 0.69680 0.18400 -0.44700
O 	O 	0.15430 0.32400 0.67600 -0.38600
O 	O 	0.33090 0.24370 0.16510 -0.42800
O 	O 	0.04250 0.74460 0.36880 -0.37900
O 	O 	0.50000 0.70930 0.70930 -0.37400
O 	O 	0.96490 0.55770 0.28290 -0.22100
O 	O 	0.82270 0.70430 0.17830 -0.43700
O 	O 	0.66910 0.16510 0.24370 -0.42600
O 	O 	0.64300 0.69530 0.63630 -0.22500
O 	O 	0.46710 0.19920 0.38020 -0.40600
O 	O 	0.34270 0.30320 0.81600 -0.45500
O 	O 	0.17730 0.17830 0.70430 -0.44500
O 	O 	0.50000 0.29070 0.29070 -0.37400
O 	O 	0.34270 0.18400 0.69680 -0.44700
O 	O 	0.35700 0.30470 0.36370 -0.23000
O 	O 	0.43490 0.77300 0.84660 -0.42400
O 	O 	0.03510 0.28290 0.55770 -0.27500
O 	O 	0.65730 0.81600 0.30320 -0.45400
O 	O 	0.03510 0.44230 0.71710 -0.27300
O 	O 	0.84570 0.67600 0.32400 -0.37900
O 	O 	0.40100 0.61470 0.67690 -0.04200
O 	O 	0.64300 0.36370 0.30470 -0.22600
O 	O 	0.53290 0.38020 0.19920 -0.40500
O 	O 	0.40100 0.32310 0.38530 -0.04100
O 	O 	0.66910 0.75630 0.83490 -0.42000
O 	O 	0.35700 0.63630 0.69530 -0.22900
O 	O 	0.05340 0.92750 0.07250 -0.43000
O 	O 	0.46710 0.61980 0.80080 -0.40400
O 	O 	0.53290 0.80080 0.61980 -0.40300
O 	O 	0.33090 0.83490 0.75630 -0.42200
O 	O 	0.43490 0.15340 0.22700 -0.43100
O 	O 	0.17730 0.29570 0.82170 -0.45100
O 	O 	0.56510 0.22700 0.15340 -0.43000
O 	O 	0.59900 0.38530 0.32310 -0.04200
O 	O 	0.04250 0.63120 0.25540 -0.38000
O 	O 	0.94660 0.07250 0.92750 -0.39700
O 	O 	0.96490 0.71710 0.44230 -0.22100
O 	O 	0.82270 0.82170 0.29570 -0.44300
O 	O 	0.95750 0.25540 0.63120 -0.37300
