data_crystal

_cell_length_a 16.03800
_cell_length_b 14.49900
_cell_length_c 29.50800
_cell_angle_alpha 90.00000
_cell_angle_beta  90.00000
_cell_angle_gamma 90.00000

_symmetry_space_group_name_	'P 1'
_symmetry_space_group_name_H-M	'P 1'

loop_
_symmetry_equiv_pos_as_xyz
  x,y,z

loop_
_atom_site_label
_atom_site_type_symbol
_atom_site_fract_x
_atom_site_fract_y
_atom_site_fract_z
_atom_site_charge
O 	O 	0.07875 0.40020 0.10576 -0.21700
O 	O 	0.01092 0.53420 0.10053 -0.21100
O 	O 	0.49870 0.27420 0.10043 -0.22400
O 	O 	0.55546 0.23130 0.16524 -0.23400
O 	O 	0.43938 0.68700 0.11364 -0.22000
O 	O 	0.38461 0.74050 0.17613 -0.24400
O 	O 	0.51890 0.42340 0.30179 -0.55500
O 	O 	0.43400 0.54440 0.30032 -0.53000
C 	C 	0.29840 0.53910 0.14339 0.06000
C 	C 	0.22460 0.49270 0.13278 -0.08700
H 	H 	0.22070 0.42970 0.13840 0.08000
C 	C 	0.15700 0.53890 0.11403 -0.00400
C 	C 	0.16250 0.63180 0.10511 -0.06400
H 	H 	0.11730 0.66270 0.09250 0.07300
C 	C 	0.23560 0.67960 0.11490 0.01300
H 	H 	0.23910 0.74240 0.10880 0.04100
C 	C 	0.30370 0.63370 0.13380 -0.08700
C 	C 	0.07620 0.48580 0.10641 0.26600
C 	C 	0.38180 0.68950 0.14245 0.30400
C 	C 	0.36810 0.48780 0.16573 -0.02000
C 	C 	0.39230 0.51100 0.20964 0.01600
H 	H 	0.36820 0.56180 0.22380 0.03900
C 	C 	0.45200 0.45920 0.23267 -0.14100
C 	C 	0.49000 0.38640 0.20983 0.04900
H 	H 	0.53080 0.35210 0.22460 0.01600
C 	C 	0.46880 0.36380 0.16581 -0.07900
C 	C 	0.40710 0.41430 0.14424 -0.01100
H 	H 	0.39140 0.39860 0.11490 0.06000
C 	C 	0.51080 0.28610 0.14121 0.29500
C 	C 	0.46990 0.47720 0.28135 0.41800
Mn	Mn	0.50729 0.31778 0.35030 1.16300
N 	N 	0.40480 0.25560 0.30749 -0.25900
N 	N 	0.38730 0.33670 0.38816 -0.28500
C 	C 	0.38200 0.36820 0.43056 0.04300
H 	H 	0.43110 0.38420 0.44530 -0.06900
C 	C 	0.30680 0.37840 0.45407 -0.14700
H 	H 	0.30510 0.39900 0.48390 0.06800
C 	C 	0.23550 0.35610 0.43060 0.04900
H 	H 	0.18410 0.36230 0.44480 0.00300
C 	C 	0.23860 0.32520 0.38720 -0.12800
H 	H 	0.18980 0.31070 0.37170 0.06700
C 	C 	0.31560 0.31560 0.36624 0.03800
C 	C 	0.32620 0.27890 0.32019 0.03500
C 	C 	0.26110 0.26680 0.28970 -0.11600
H 	H 	0.20720 0.28360 0.29780 0.06500
C 	C 	0.27580 0.23020 0.24760 0.04600
H 	H 	0.23210 0.22350 0.22720 0.01700
C 	C 	0.35480 0.20350 0.23548 -0.13600
H 	H 	0.36560 0.17660 0.20750 0.08800
C 	C 	0.41800 0.21850 0.26693 0.07300
H 	H 	0.47210 0.20160 0.25920 -0.02900
Mn	Mn	0.41840 0.60430 0.36495 1.17300
N 	N 	0.35820 0.63170 0.43236 -0.28200
N 	N 	0.28170 0.56390 0.35942 -0.24700
C 	C 	0.24640 0.53330 0.32139 0.06400
H 	H 	0.28050 0.51970 0.29680 -0.00200
C 	C 	0.16130 0.52110 0.31700 -0.13300
H 	H 	0.13880 0.49810 0.29020 0.07500
C 	C 	0.11100 0.54310 0.35260 0.04100
H 	H 	0.05350 0.53730 0.35000 0.00400
C 	C 	0.14580 0.57400 0.39200 -0.11500
H 	H 	0.11200 0.58930 0.41650 0.05700
C 	C 	0.23360 0.58250 0.39551 0.03200
C 	C 	0.27630 0.61280 0.43702 0.04800
C 	C 	0.23620 0.62090 0.47810 -0.13500
H 	H 	0.17980 0.60720 0.48080 0.06600
C 	C 	0.28180 0.64980 0.51530 0.05100
H 	H 	0.25610 0.65460 0.54340 0.00100
C 	C 	0.36480 0.67160 0.51088 -0.16000
H 	H 	0.39590 0.69310 0.53530 0.06800
C 	C 	0.39930 0.65990 0.46875 0.07400
H 	H 	0.45580 0.67280 0.46550 -0.06800
