data_crystal

_cell_length_a 16.06330
_cell_length_b 24.25760
_cell_length_c 24.25760
_cell_angle_alpha 64.72800
_cell_angle_beta  77.24800
_cell_angle_gamma 102.75200

_symmetry_space_group_name_	'P 1'
_symmetry_space_group_name_H-M	'P 1'

loop_
_symmetry_equiv_pos_as_xyz
  x,y,z

loop_
_atom_site_label
_atom_site_type_symbol
_atom_site_fract_x
_atom_site_fract_y
_atom_site_fract_z
_atom_site_charge
Cu	Cu	0.53565 0.46045 0.03351 0.79800
Cu	Cu	0.92189 0.50654 0.02076 0.91600
Cu	Cu	0.41535 0.47270 0.50654 0.91700
Cu	Cu	0.58465 0.52730 0.49346 0.91700
Cu	Cu	0.46435 0.53955 0.96649 0.79800
Cu	Cu	0.43084 0.96649 0.49396 0.79800
Cu	Cu	0.05735 0.97924 0.52730 0.91600
Cu	Cu	0.94265 0.02076 0.47270 0.91600
Cu	Cu	0.07811 0.49346 0.97924 0.91600
Cu	Cu	0.92480 0.49396 0.53955 0.79800
Cu	Cu	0.56916 0.03351 0.50604 0.79800
Cu	Cu	0.07520 0.50604 0.46045 0.79800
H 	H 	0.77160 0.40900 0.93360 0.02000
H 	H 	0.01180 0.55760 0.24810 0.09200
H 	H 	0.81500 0.76610 0.42400 0.09400
H 	H 	0.40470 0.62900 0.00830 -0.01200
H 	H 	0.22430 0.63730 0.37100 -0.01200
H 	H 	0.92760 0.62680 0.51990 0.00400
H 	H 	0.58700 0.99170 0.63730 -0.01200
H 	H 	0.07650 0.52400 0.32910 0.00400
H 	H 	0.75570 0.49770 0.50480 -0.00600
H 	H 	0.54580 0.80570 0.44240 0.09100
H 	H 	0.21370 0.74150 0.68630 0.09300
H 	H 	0.36260 0.65740 0.40900 0.02000
H 	H 	0.45420 0.19430 0.55760 0.09100
H 	H 	0.96640 0.53910 0.17140 0.01800
H 	H 	0.76100 0.57600 0.19010 0.09400
H 	H 	0.59530 0.37100 0.99170 -0.01200
H 	H 	0.44750 0.51990 0.85330 0.00400
H 	H 	0.04950 0.21440 0.43350 0.02000
H 	H 	0.25800 0.99750 0.49770 -0.00600
H 	H 	0.65470 0.24350 0.61850 0.09400
H 	H 	0.22840 0.59100 0.06640 0.02000
H 	H 	0.72680 0.38150 0.86200 0.09500
H 	H 	0.30080 0.85330 0.62680 0.00400
H 	H 	0.92350 0.47600 0.67090 0.00400
H 	H 	0.25990 0.24810 0.19430 0.09100
H 	H 	0.78630 0.25850 0.31370 0.09300
H 	H 	0.74200 0.00250 0.50230 -0.00600
H 	H 	0.41300 0.00830 0.36270 -0.01200
H 	H 	0.47320 0.19150 0.12390 0.02400
H 	H 	0.05310 0.86260 0.65290 0.02100
H 	H 	0.73950 0.49520 0.00250 -0.00600
H 	H 	0.19050 0.48450 0.86260 0.02100
H 	H 	0.29480 0.06640 0.34260 0.02100
H 	H 	0.28170 0.68460 0.19150 0.02400
H 	H 	0.77570 0.36270 0.62900 -0.01200
H 	H 	0.07240 0.37320 0.48010 0.00400
H 	H 	0.00300 0.28520 0.13490 0.02400
H 	H 	0.52780 0.42780 0.25850 0.09400
H 	H 	0.13790 0.13490 0.57990 0.01900
H 	H 	0.99700 0.71480 0.86510 0.02400
H 	H 	0.94690 0.13740 0.34710 0.02100
H 	H 	0.59440 0.67090 0.85310 0.00400
H 	H 	0.03360 0.46090 0.82860 0.01800
H 	H 	0.29400 0.34710 0.51550 0.02100
H 	H 	0.42730 0.28950 0.53910 0.02000
H 	H 	0.51700 0.56650 0.64790 0.02000
H 	H 	0.55250 0.48010 0.14670 0.00400
H 	H 	0.86220 0.82860 0.71050 0.02100
H 	H 	0.47220 0.57220 0.74150 0.09400
H 	H 	0.23900 0.42400 0.80990 0.09400
H 	H 	0.69920 0.14670 0.37320 0.00400
H 	H 	0.95050 0.78560 0.56650 0.02000
H 	H 	0.86210 0.86510 0.42010 0.01900
H 	H 	0.28220 0.42010 0.71480 0.01900
H 	H 	0.71830 0.31540 0.80850 0.02400
H 	H 	0.41120 0.13800 0.24350 0.09400
H 	H 	0.57270 0.71050 0.46090 0.02000
H 	H 	0.34530 0.75650 0.38150 0.09400
H 	H 	0.26050 0.50480 0.99750 -0.00600
H 	H 	0.18500 0.23390 0.57600 0.09400
H 	H 	0.52680 0.80850 0.87610 0.02400
H 	H 	0.95110 0.19010 0.23390 0.09100
H 	H 	0.40290 0.87610 0.31540 0.02400
H 	H 	0.44750 0.85310 0.47600 0.00400
H 	H 	0.59710 0.12390 0.68460 0.02400
H 	H 	0.63740 0.34260 0.59100 0.02000
H 	H 	0.58880 0.86200 0.75650 0.09400
H 	H 	0.55250 0.14690 0.52400 0.00400
H 	H 	0.90000 0.68630 0.57220 0.09400
H 	H 	0.70600 0.65290 0.48450 0.02100
H 	H 	0.83510 0.35210 0.21440 0.02200
H 	H 	0.98820 0.44240 0.75190 0.09200
H 	H 	0.10000 0.31370 0.42780 0.09400
H 	H 	0.24430 0.50230 0.49520 -0.00600
H 	H 	0.48300 0.43350 0.35210 0.02000
H 	H 	0.13780 0.17140 0.28950 0.02100
H 	H 	0.40560 0.32910 0.14690 0.00400
H 	H 	0.71780 0.57990 0.28520 0.01900
H 	H 	0.80950 0.51550 0.13740 0.02100
H 	H 	0.16490 0.64790 0.78560 0.02200
H 	H 	0.04890 0.80990 0.76610 0.09100
H 	H 	0.70520 0.93360 0.65740 0.02100
H 	H 	0.74010 0.75190 0.80570 0.09100
H 	H 	0.27320 0.61850 0.13800 0.09500
C 	C 	0.14633 0.28358 0.50289 0.12100
C 	C 	0.52560 0.71891 0.44621 0.07700
C 	C 	0.56232 0.12209 0.56183 0.04500
C 	C 	0.05225 0.10000 0.51005 0.37600
C 	C 	0.85859 0.31946 0.21809 0.08000
C 	C 	0.51790 0.39040 0.54550 0.36400
C 	C 	0.55182 0.33974 0.03268 0.10800
C 	C 	0.70476 0.54722 0.22264 -0.16600
C 	C 	0.22724 0.46292 0.49560 0.09700
C 	C 	0.78792 0.37242 0.66026 0.10900
C 	C 	0.46087 0.53755 0.68054 0.08500
C 	C 	0.17694 0.34728 0.49966 -0.08000
C 	C 	0.35730 0.14590 0.25320 -0.15800
C 	C 	0.72284 0.49560 0.04148 0.09600
C 	C 	0.64270 0.85410 0.74680 -0.15800
C 	C 	0.23568 0.95852 0.53708 0.09600
C 	C 	0.28656 0.10222 0.31194 0.08200
C 	C 	0.48990 0.22341 0.56601 -0.15900
C 	C 	0.82894 0.26329 0.27757 -0.15900
C 	C 	0.95225 0.38995 0.10000 0.36900
C 	C 	0.48210 0.60960 0.45450 0.36400
C 	C 	0.58840 0.10827 0.65667 0.05300
C 	C 	0.94409 0.43399 0.78942 -0.16200
C 	C 	0.26150 0.87444 0.61284 0.04400
C 	C 	0.93660 0.45450 0.93590 0.36700
C 	C 	0.29524 0.45278 0.77736 -0.16600
C 	C 	0.92211 0.32834 0.16391 -0.13300
C 	C 	0.92332 0.78191 0.53755 0.08500
C 	C 	0.61294 0.48728 0.12556 0.04500
C 	C 	0.44355 0.79150 0.41005 0.11800
C 	C 	0.87122 0.82948 0.45012 0.08300
C 	C 	0.05591 0.56601 0.21058 -0.16200
C 	C 	0.87434 0.61284 0.51272 0.04500
C 	C 	0.32134 0.45012 0.72040 0.08200
C 	C 	0.12750 0.06410 0.39040 0.36400
C 	C 	0.04174 0.72040 0.82948 0.07300
C 	C 	0.43190 0.85400 0.39680 -0.07900
C 	C 	0.51987 0.76494 0.89173 0.05300
C 	C 	0.41550 0.96732 0.37242 0.10800
C 	C 	0.67866 0.54988 0.27960 0.08200
C 	C 	0.78860 0.39910 0.85410 -0.16100
C 	C 	0.61050 0.25320 0.60090 -0.15900
C 	C 	0.15754 0.23014 0.54722 -0.16600
C 	C 	0.59850 0.31194 0.58584 0.08200
C 	C 	0.56230 0.51005 0.38995 0.37400
C 	C 	0.12415 0.56183 0.31608 0.04500
C 	C 	0.84246 0.76986 0.45278 -0.16600
C 	C 	0.21140 0.60090 0.14590 -0.16100
C 	C 	0.38950 0.74680 0.39910 -0.15900
C 	C 	0.47030 0.67435 0.43645 -0.13100
C 	C 	0.71344 0.89778 0.68806 0.08200
C 	C 	0.07668 0.21809 0.46245 0.08500
C 	C 	0.24507 0.65667 0.23506 0.05300
C 	C 	0.43435 0.54086 0.73671 -0.16300
C 	C 	0.74371 0.62848 0.49185 0.05700
C 	C 	0.55977 0.68392 0.87791 0.04500
C 	C 	0.19331 0.16512 0.28109 0.07600
C 	C 	0.55645 0.20850 0.58995 0.11800
C 	C 	0.88477 0.12033 0.37152 0.05700
C 	C 	0.43768 0.87791 0.43817 0.04500
C 	C 	0.32340 0.50034 0.84694 -0.08000
C 	C 	0.10651 0.27757 0.45914 -0.16300
C 	C 	0.40623 0.49225 0.67166 -0.13800
C 	C 	0.90675 0.43645 0.88920 -0.13300
C 	C 	0.87250 0.93590 0.60960 0.36400
C 	C 	0.73351 0.78942 0.77659 -0.15900
C 	C 	0.13725 0.78647 0.71642 0.11700
C 	C 	0.12566 0.38716 0.48728 0.04500
C 	C 	0.59377 0.50775 0.32834 -0.13800
C 	C 	0.73850 0.12556 0.38716 0.04400
C 	C 	0.79595 0.88920 0.67435 -0.13000
C 	C 	0.97181 0.44621 0.83488 0.08100
C 	C 	0.07260 0.77736 0.76986 -0.16000
C 	C 	0.20405 0.11080 0.32565 -0.13000
C 	C 	0.41160 0.89173 0.34333 0.05300
C 	C 	0.95826 0.27960 0.17052 0.07300
C 	C 	0.89349 0.72243 0.54086 -0.16300
C 	C 	0.44818 0.66026 0.96732 0.10800
C 	C 	0.25629 0.37152 0.50815 0.05700
C 	C 	0.23556 0.49185 0.87967 0.05700
C 	C 	0.11523 0.87967 0.62848 0.05700
C 	C 	0.76432 0.04148 0.46292 0.09600
C 	C 	0.51010 0.77659 0.43399 -0.15900
C 	C 	0.52970 0.32565 0.56355 -0.13100
C 	C 	0.86275 0.21353 0.28358 0.11700
C 	C 	0.53913 0.46245 0.31946 0.08500
C 	C 	0.82966 0.15306 0.34728 -0.07900
C 	C 	0.09325 0.56355 0.11080 -0.13300
C 	C 	0.14640 0.58995 0.20155 0.12000
C 	C 	0.65205 0.79845 0.79150 0.11800
C 	C 	0.44023 0.31608 0.12209 0.04500
C 	C 	0.75493 0.34333 0.76494 0.05300
C 	C 	0.27716 0.50440 0.95852 0.09600
C 	C 	0.17130 0.60320 0.25080 -0.08000
C 	C 	0.21208 0.62758 0.33974 0.10900
C 	C 	0.26649 0.21058 0.22341 -0.15900
C 	C 	0.85367 0.71642 0.49711 0.12100
C 	C 	0.58450 0.03268 0.62758 0.10800
C 	C 	0.07789 0.67166 0.83609 -0.13300
C 	C 	0.14141 0.68054 0.78191 0.08000
C 	C 	0.85360 0.41005 0.79845 0.12000
C 	C 	0.38706 0.51272 0.87444 0.04500
C 	C 	0.34795 0.20155 0.20850 0.11800
C 	C 	0.80669 0.83488 0.71891 0.07600
C 	C 	0.08602 0.16391 0.50775 -0.13800
C 	C 	0.82870 0.39680 0.74920 -0.08000
C 	C 	0.43770 0.48995 0.61005 0.37400
C 	C 	0.81566 0.41416 0.89778 0.08400
C 	C 	0.56565 0.45914 0.26329 -0.16300
C 	C 	0.87585 0.43817 0.68392 0.04500
C 	C 	0.67660 0.49966 0.15306 -0.08000
C 	C 	0.06340 0.54550 0.06410 0.36700
C 	C 	0.76444 0.50815 0.12033 0.05700
C 	C 	0.35078 0.49711 0.78647 0.12100
C 	C 	0.47440 0.28109 0.55379 0.07700
C 	C 	0.77276 0.53708 0.50440 0.09700
C 	C 	0.12878 0.17052 0.54988 0.08300
C 	C 	0.04775 0.61005 0.90000 0.36900
C 	C 	0.56810 0.14600 0.60320 -0.07900
C 	C 	0.92740 0.22264 0.23014 -0.16000
C 	C 	0.40150 0.68806 0.41416 0.08200
C 	C 	0.48013 0.23506 0.10827 0.05300
C 	C 	0.94775 0.90000 0.48995 0.37600
C 	C 	0.57790 0.74920 0.85400 -0.07900
C 	C 	0.18434 0.58584 0.10222 0.08400
C 	C 	0.82306 0.65272 0.50034 -0.08000
C 	C 	0.64922 0.50289 0.21353 0.12100
C 	C 	0.42210 0.25080 0.14600 -0.07900
C 	C 	0.17106 0.73671 0.72243 -0.15900
C 	C 	0.91398 0.83609 0.49225 -0.13800
C 	C 	0.17034 0.84694 0.65272 -0.07900
C 	C 	0.02819 0.55379 0.16512 0.08100
I 	I 	0.48146 0.09392 0.43353 -0.43900
I 	I 	0.91499 0.43353 0.47255 -0.44000
I 	I 	0.61246 0.52745 0.90608 -0.44000
I 	I 	0.38754 0.47255 0.09392 -0.44000
I 	I 	0.51854 0.90608 0.56647 -0.43900
I 	I 	0.08501 0.56647 0.52745 -0.44000
N 	N 	0.59593 0.05092 0.66973 -0.13200
N 	N 	0.42999 0.93580 0.42673 -0.24000
N 	N 	0.40407 0.94908 0.33027 -0.13200
N 	N 	0.85672 0.42673 0.63747 -0.24000
N 	N 	0.73434 0.33027 0.72065 -0.13200
N 	N 	0.57001 0.06420 0.57327 -0.24000
N 	N 	0.26566 0.66973 0.27935 -0.13200
N 	N 	0.29594 0.93020 0.55508 -0.23400
N 	N 	0.14767 0.93504 0.57123 -0.18600
N 	N 	0.85233 0.06496 0.42877 -0.18600
N 	N 	0.28110 0.42877 0.50627 -0.18600
N 	N 	0.70406 0.06980 0.44492 -0.23400
N 	N 	0.45499 0.72065 0.94908 -0.13200
N 	N 	0.54501 0.27935 0.05092 -0.13200
N 	N 	0.63426 0.48528 0.06980 -0.23500
N 	N 	0.85102 0.55508 0.51472 -0.23400
N 	N 	0.78737 0.50627 0.06496 -0.18700
N 	N 	0.36574 0.51472 0.93020 -0.23500
N 	N 	0.71890 0.57123 0.49373 -0.18600
N 	N 	0.14328 0.57327 0.36253 -0.24000
N 	N 	0.50581 0.36253 0.06420 -0.24000
N 	N 	0.14898 0.44492 0.48528 -0.23400
N 	N 	0.21263 0.49373 0.93504 -0.18700
N 	N 	0.49419 0.63747 0.93580 -0.24000
O 	O 	0.00822 0.90651 0.51365 -0.41000
O 	O 	0.58512 0.43748 0.53282 -0.39800
O 	O 	0.95143 0.93512 0.60813 -0.40000
O 	O 	0.37753 0.46638 0.59239 -0.39700
O 	O 	0.62247 0.53362 0.40761 -0.39700
O 	O 	0.44044 0.39187 0.54325 -0.40100
O 	O 	0.11794 0.53282 0.02970 -0.39800
O 	O 	0.10171 0.57984 0.90651 -0.40700
O 	O 	0.14764 0.02970 0.43748 -0.39700
O 	O 	0.85236 0.97030 0.56252 -0.39700
O 	O 	0.04857 0.06488 0.39187 -0.40000
O 	O 	0.98369 0.54325 0.06488 -0.40300
O 	O 	0.55956 0.60813 0.45675 -0.40100
O 	O 	0.47813 0.48635 0.42016 -0.40800
O 	O 	0.89829 0.42016 0.09349 -0.40700
O 	O 	0.08885 0.05877 0.53362 -0.39600
O 	O 	0.96992 0.59239 0.94123 -0.39400
O 	O 	0.99178 0.09349 0.48635 -0.41000
O 	O 	0.88206 0.46718 0.97030 -0.39800
O 	O 	0.41488 0.56252 0.46718 -0.39800
O 	O 	0.91115 0.94123 0.46638 -0.39600
O 	O 	0.52187 0.51365 0.57984 -0.40800
O 	O 	0.01631 0.45675 0.93512 -0.40300
O 	O 	0.03008 0.40761 0.05877 -0.39400
