data_crystal

_cell_length_a 12.54600
_cell_length_b 15.73400
_cell_length_c 26.63300
_cell_angle_alpha 90.00000
_cell_angle_beta  90.00000
_cell_angle_gamma 97.86900

_symmetry_space_group_name_	'P 1'
_symmetry_space_group_name_H-M	'P 1'

loop_
_symmetry_equiv_pos_as_xyz
  x,y,z

loop_
_atom_site_label
_atom_site_type_symbol
_atom_site_fract_x
_atom_site_fract_y
_atom_site_fract_z
_atom_site_charge
Zn	Zn	0.30844 0.81744 0.74802 1.21900
Zn	Zn	0.85217 0.87769 0.25606 1.22000
Zn	Zn	0.14783 0.62231 0.75606 1.22000
Zn	Zn	0.69156 0.68256 0.24802 1.21900
H 	H 	0.11750 0.27760 0.28620 0.08200
H 	H 	0.92310 0.54760 0.73330 -0.01100
H 	H 	0.19270 0.87280 0.59570 -0.02600
H 	H 	0.19110 0.07770 0.23790 0.10800
H 	H 	0.49980 0.99710 0.42250 0.17400
H 	H 	0.04360 0.32380 0.81270 0.11800
H 	H 	0.57810 0.21420 0.78810 0.08200
H 	H 	0.64790 0.74200 0.89500 0.17200
H 	H 	0.47950 0.74170 0.33600 -0.04800
H 	H 	0.14500 0.45420 0.80690 -0.01400
H 	H 	0.19700 0.90910 0.51190 0.16900
H 	H 	0.63170 0.97470 0.36540 -0.04300
H 	H 	0.85500 0.04580 0.30690 -0.01300
H 	H 	0.94670 0.70090 0.85460 -0.06900
H 	H 	0.10530 0.93690 0.85230 -0.06500
H 	H 	0.00210 0.82410 0.08820 -0.02900
H 	H 	0.89470 0.56310 0.35230 -0.06500
H 	H 	0.70180 0.91810 0.01950 0.16800
H 	H 	0.35210 0.75800 0.39500 0.17300
H 	H 	0.80890 0.42230 0.73790 0.10900
H 	H 	0.50020 0.50290 0.92250 0.17500
H 	H 	0.54160 0.89020 0.73310 -0.00800
H 	H 	0.71680 0.90770 0.10460 -0.02600
H 	H 	0.30970 0.98390 0.80220 -0.00800
H 	H 	0.47900 0.82610 0.49660 0.16200
H 	H 	0.01700 0.66830 0.50210 0.16100
H 	H 	0.69030 0.51610 0.30220 -0.00800
H 	H 	0.07690 0.95240 0.23330 -0.00900
H 	H 	0.48050 0.79500 0.58200 -0.02400
H 	H 	0.80300 0.59090 0.01190 0.16900
H 	H 	0.42190 0.28580 0.28810 0.08300
H 	H 	0.51950 0.70500 0.08200 -0.02400
H 	H 	0.41310 0.11590 0.80890 0.11900
H 	H 	0.16350 0.75880 0.41650 0.20800
H 	H 	0.83650 0.74120 0.91650 0.20800
H 	H 	0.98720 0.97730 0.91150 0.20400
H 	H 	0.98300 0.83170 0.00210 0.16300
H 	H 	0.36830 0.52530 0.86540 -0.04300
H 	H 	0.52100 0.67390 0.99660 0.16100
H 	H 	0.64840 0.01750 0.73830 0.11200
H 	H 	0.29820 0.58190 0.51950 0.16700
H 	H 	0.45840 0.60980 0.23310 -0.00800
H 	H 	0.05330 0.79910 0.35460 -0.06800
H 	H 	0.58690 0.38410 0.30890 0.12000
H 	H 	0.95640 0.17620 0.31270 0.11900
H 	H 	0.80730 0.62720 0.09570 -0.02500
H 	H 	0.01280 0.52270 0.41150 0.20400
H 	H 	0.35160 0.48250 0.23830 0.11200
H 	H 	0.99790 0.67590 0.58820 -0.02700
H 	H 	0.52050 0.75830 0.83600 -0.04700
H 	H 	0.28320 0.59230 0.60460 -0.02600
H 	H 	0.88250 0.22240 0.78620 0.08200
C 	C 	0.40750 0.80220 0.38840 -0.36700
C 	C 	0.95050 0.60300 0.36410 0.31700
C 	C 	0.03650 0.81390 0.84589 -0.35100
C 	C 	0.59250 0.69780 0.88840 -0.36700
C 	C 	0.84350 0.87770 0.00336 0.36400
C 	C 	0.51610 0.70720 0.85390 0.26600
C 	C 	0.14820 0.23010 0.27570 -0.05800
C 	C 	0.08550 0.14420 0.27490 0.14500
C 	C 	0.37850 0.99150 0.78836 0.11300
C 	C 	0.39250 0.33300 0.27610 -0.06300
C 	C 	0.07700 0.44660 0.79232 0.12300
C 	C 	0.65050 0.84090 0.30670 0.50600
C 	C 	0.42220 0.81750 0.56822 0.20800
C 	C 	0.41400 0.88050 0.41410 0.35500
C 	C 	0.22850 0.60720 0.58416 0.21600
C 	C 	0.44050 0.07090 0.79300 -0.19900
C 	C 	0.49630 0.94520 0.40550 -0.36900
C 	C 	0.05910 0.65740 0.57471 0.21000
C 	C 	0.94660 0.50120 0.74956 0.11700
C 	C 	0.51480 0.93650 0.74779 0.11500
C 	C 	0.66210 0.66860 0.09847 -0.23300
C 	C 	0.57790 0.66350 0.01710 -0.35800
C 	C 	0.11070 0.78690 0.80748 0.51500
C 	C 	0.88930 0.71310 0.30748 0.51400
C 	C 	0.13870 0.63570 0.60646 -0.24100
C 	C 	0.54260 0.08230 0.77385 0.15300
C 	C 	0.77150 0.89280 0.08416 0.21800
C 	C 	0.57890 0.01210 0.75124 -0.19200
C 	C 	0.93030 0.84820 0.02311 -0.36200
C 	C 	0.34950 0.65910 0.80670 0.50600
C 	C 	0.74800 0.63550 0.07630 0.21400
C 	C 	0.60750 0.16700 0.77610 -0.06300
C 	C 	0.97950 0.92100 0.90000 -0.45400
C 	C 	0.12530 0.63780 0.66041 0.37100
C 	C 	0.95650 0.75730 0.86590 0.33700
C 	C 	0.23770 0.60070 0.53362 -0.34200
C 	C 	0.04350 0.74270 0.36590 0.33500
C 	C 	0.94090 0.84260 0.07471 0.21400
C 	C 	0.33790 0.83140 0.59847 -0.23300
C 	C 	0.04950 0.89700 0.86410 0.31600
C 	C 	0.02050 0.57900 0.40000 -0.45500
C 	C 	0.58600 0.61950 0.91410 0.35500
C 	C 	0.74640 0.61490 0.02623 -0.35300
C 	C 	0.12230 0.07350 0.25150 -0.18400
C 	C 	0.15650 0.62230 0.50336 0.36200
C 	C 	0.98310 0.13160 0.29615 -0.20200
C 	C 	0.43130 0.64310 0.84448 -0.30600
C 	C 	0.96350 0.68610 0.34589 -0.35000
C 	C 	0.57420 0.93180 0.37090 0.26100
C 	C 	0.42210 0.83650 0.51710 -0.35800
C 	C 	0.05340 0.99880 0.24956 0.11400
C 	C 	0.48390 0.79280 0.35390 0.26600
C 	C 	0.45740 0.41770 0.27385 0.15400
C 	C 	0.87770 0.42650 0.75150 -0.18600
C 	C 	0.92300 0.05340 0.29232 0.12200
C 	C 	0.55950 0.42910 0.29300 -0.19900
C 	C 	0.09890 0.63670 0.41800 0.45200
C 	C 	0.86130 0.86430 0.10646 -0.24300
C 	C 	0.33810 0.87020 0.49802 0.36400
C 	C 	0.66190 0.62980 0.99802 0.36300
C 	C 	0.48520 0.56350 0.24779 0.11600
C 	C 	0.91450 0.35580 0.77490 0.14500
C 	C 	0.88950 0.78140 0.90250 -0.46500
C 	C 	0.25200 0.86450 0.57630 0.21500
C 	C 	0.90110 0.86330 0.91800 0.45200
C 	C 	0.11050 0.71860 0.40250 -0.46500
C 	C 	0.62150 0.50850 0.28836 0.11300
C 	C 	0.85180 0.26990 0.77570 -0.05800
C 	C 	0.25360 0.88510 0.52623 -0.35300
C 	C 	0.42110 0.48790 0.25124 -0.19200
C 	C 	0.76230 0.89930 0.03362 -0.34400
C 	C 	0.65900 0.68530 0.15326 0.37300
C 	C 	0.50370 0.55480 0.90550 -0.36900
C 	C 	0.06970 0.65180 0.52311 -0.35900
C 	C 	0.56870 0.85690 0.34448 -0.30600
C 	C 	0.57780 0.68250 0.06822 0.20700
C 	C 	0.42580 0.56820 0.87090 0.26100
C 	C 	0.34100 0.81470 0.65326 0.37300
C 	C 	0.87470 0.86220 0.16041 0.37200
C 	C 	0.01690 0.36840 0.79615 -0.20100
N 	N 	0.95520 0.98720 0.26906 -0.27100
N 	N 	0.29450 0.32500 0.26130 -0.06700
N 	N 	0.41280 0.92580 0.76504 -0.26500
N 	N 	0.58720 0.57420 0.26504 -0.26600
N 	N 	0.70550 0.17500 0.76130 -0.06700
N 	N 	0.04480 0.51280 0.76906 -0.27300
N 	N 	0.24560 0.23730 0.26160 -0.06800
N 	N 	0.75440 0.26270 0.76160 -0.06800
O 	O 	0.95810 0.84310 0.18011 -0.35700
O 	O 	0.91430 0.78660 0.28996 -0.53300
O 	O 	0.58050 0.71010 0.17282 -0.35800
O 	O 	0.41950 0.78990 0.67282 -0.35800
O 	O 	0.25910 0.83010 0.67941 -0.46300
O 	O 	0.73310 0.89470 0.30245 -0.50700
O 	O 	0.08570 0.71340 0.78996 -0.53400
O 	O 	0.80900 0.66140 0.29472 -0.51300
O 	O 	0.79680 0.88130 0.18825 -0.47200
O 	O 	0.26690 0.60530 0.80245 -0.50700
O 	O 	0.17370 0.61160 0.45191 -0.35700
O 	O 	0.82630 0.88840 0.95191 -0.35700
O 	O 	0.66910 0.60530 0.94730 -0.33400
O 	O 	0.36890 0.72560 0.78169 -0.54400
O 	O 	0.20320 0.61870 0.68825 -0.47200
O 	O 	0.63110 0.77440 0.28169 -0.54400
O 	O 	0.33090 0.89470 0.44730 -0.33400
O 	O 	0.74090 0.66990 0.17941 -0.46300
O 	O 	0.04190 0.65690 0.68011 -0.35700
O 	O 	0.19100 0.83860 0.79472 -0.51400
Zn	Zn	0.14783 0.12231 0.74394 1.22100
Zn	Zn	0.30844 0.31744 0.75198 1.22000
Zn	Zn	0.69156 0.18256 0.25198 1.22000
Zn	Zn	0.85217 0.37769 0.24394 1.22100
H 	H 	0.36830 0.02530 0.63460 -0.04300
H 	H 	0.88250 0.72240 0.71380 0.08300
H 	H 	0.98720 0.47730 0.58850 0.20400
H 	H 	0.50020 0.00290 0.57750 0.17500
H 	H 	0.45840 0.10980 0.26690 -0.00800
H 	H 	0.80730 0.12720 0.40430 -0.02500
H 	H 	0.19700 0.40910 0.98810 0.16900
H 	H 	0.01280 0.02270 0.08850 0.20400
H 	H 	0.98300 0.33170 0.49790 0.16100
H 	H 	0.57810 0.71420 0.71190 0.08300
H 	H 	0.28320 0.09230 0.89540 -0.02600
H 	H 	0.10530 0.43690 0.64770 -0.06500
H 	H 	0.47900 0.32610 0.00340 0.16100
H 	H 	0.52050 0.25830 0.66400 -0.04700
H 	H 	0.80300 0.09090 0.48810 0.16900
H 	H 	0.49980 0.49710 0.07750 0.17500
H 	H 	0.52100 0.17390 0.50340 0.16200
H 	H 	0.51950 0.20500 0.41800 -0.02400
H 	H 	0.35160 0.98250 0.26170 0.11200
H 	H 	0.83650 0.24120 0.58350 0.20800
H 	H 	0.16350 0.25880 0.08350 0.20800
H 	H 	0.42190 0.78580 0.21190 0.08300
H 	H 	0.48050 0.29500 0.91800 -0.02400
H 	H 	0.19270 0.37280 0.90430 -0.02500
H 	H 	0.99790 0.17590 0.91180 -0.02900
H 	H 	0.58690 0.88410 0.19110 0.11900
H 	H 	0.30970 0.48390 0.69780 -0.00800
H 	H 	0.64790 0.24200 0.60500 0.17300
H 	H 	0.92310 0.04760 0.76670 -0.00900
H 	H 	0.07690 0.45240 0.26670 -0.01000
H 	H 	0.71680 0.40770 0.39540 -0.02600
H 	H 	0.70180 0.41810 0.48050 0.16700
H 	H 	0.94670 0.20090 0.64540 -0.06800
H 	H 	0.11750 0.77760 0.21380 0.08200
H 	H 	0.95640 0.67620 0.18730 0.11900
H 	H 	0.00210 0.32410 0.41180 -0.02700
H 	H 	0.89470 0.06310 0.14770 -0.06500
H 	H 	0.05330 0.29910 0.14540 -0.06900
H 	H 	0.01700 0.16830 0.99790 0.16300
H 	H 	0.04360 0.82380 0.68730 0.11900
H 	H 	0.80890 0.92230 0.76210 0.10900
H 	H 	0.85500 0.54580 0.19310 -0.01300
H 	H 	0.63170 0.47470 0.13460 -0.04300
H 	H 	0.69030 0.01610 0.19780 -0.00800
H 	H 	0.64840 0.51750 0.76170 0.11200
H 	H 	0.41310 0.61590 0.69110 0.12000
H 	H 	0.54160 0.39020 0.76690 -0.00800
H 	H 	0.29820 0.08190 0.98050 0.16800
H 	H 	0.47950 0.24170 0.16400 -0.04700
H 	H 	0.14500 0.95420 0.69310 -0.01300
H 	H 	0.19110 0.57770 0.26210 0.10900
H 	H 	0.35210 0.25800 0.10500 0.17300
C 	C 	0.11050 0.21860 0.09750 -0.46500
C 	C 	0.55950 0.92910 0.20700 -0.19900
C 	C 	0.06970 0.15180 0.97689 -0.36200
C 	C 	0.57420 0.43180 0.12910 0.26100
C 	C 	0.22850 0.10720 0.91584 0.21800
C 	C 	0.49630 0.44520 0.09450 -0.36900
C 	C 	0.74640 0.11490 0.47377 -0.35300
C 	C 	0.92300 0.55340 0.20768 0.12300
C 	C 	0.77150 0.39280 0.41584 0.21600
C 	C 	0.90110 0.36330 0.58200 0.45200
C 	C 	0.97950 0.42100 0.60000 -0.45500
C 	C 	0.13870 0.13570 0.89354 -0.24300
C 	C 	0.11070 0.28690 0.69252 0.51400
C 	C 	0.57890 0.51210 0.74876 -0.19200
C 	C 	0.15650 0.12230 0.99664 0.36400
C 	C 	0.02050 0.07900 0.10000 -0.45400
C 	C 	0.12530 0.13780 0.83959 0.37200
C 	C 	0.76230 0.39930 0.46638 -0.34200
C 	C 	0.62150 0.00850 0.21164 0.11300
C 	C 	0.84350 0.37770 0.49664 0.36200
C 	C 	0.23770 0.10070 0.96638 -0.34400
C 	C 	0.07700 0.94660 0.70768 0.12200
C 	C 	0.60750 0.66700 0.72390 -0.06300
C 	C 	0.34950 0.15910 0.69330 0.50600
C 	C 	0.98310 0.63160 0.20385 -0.20100
C 	C 	0.43130 0.14310 0.65552 -0.30600
C 	C 	0.25360 0.38510 0.97377 -0.35300
C 	C 	0.87770 0.92650 0.74850 -0.18400
C 	C 	0.51610 0.20720 0.64610 0.26600
C 	C 	0.66210 0.16860 0.40153 -0.23300
C 	C 	0.05910 0.15740 0.92529 0.21400
C 	C 	0.48520 0.06350 0.25221 0.11500
C 	C 	0.04350 0.24270 0.13410 0.33700
C 	C 	0.96350 0.18610 0.15411 -0.35100
C 	C 	0.65900 0.18530 0.34674 0.37300
C 	C 	0.85180 0.76990 0.72430 -0.05800
C 	C 	0.87470 0.36220 0.33959 0.37100
C 	C 	0.48390 0.29280 0.14610 0.26600
C 	C 	0.88950 0.28140 0.59750 -0.46500
C 	C 	0.08550 0.64420 0.22510 0.14500
C 	C 	0.41400 0.38050 0.08590 0.35500
C 	C 	0.54260 0.58230 0.72615 0.15400
C 	C 	0.59250 0.19780 0.61160 -0.36700
C 	C 	0.65050 0.34090 0.19330 0.50600
C 	C 	0.12230 0.57350 0.24850 -0.18600
C 	C 	0.94090 0.34260 0.42529 0.21000
C 	C 	0.74800 0.13550 0.42370 0.21500
C 	C 	0.95050 0.10300 0.13590 0.31600
C 	C 	0.57780 0.18250 0.43178 0.20800
C 	C 	0.95650 0.25730 0.63410 0.33500
C 	C 	0.58600 0.11950 0.58590 0.35500
C 	C 	0.44050 0.57090 0.70700 -0.19900
C 	C 	0.86130 0.36430 0.39354 -0.24100
C 	C 	0.88930 0.21310 0.19252 0.51500
C 	C 	0.94660 0.00120 0.75044 0.11400
C 	C 	0.42220 0.31750 0.93178 0.20700
C 	C 	0.91450 0.85580 0.72510 0.14500
C 	C 	0.14820 0.73010 0.22430 -0.05800
C 	C 	0.01690 0.86840 0.70385 -0.20200
C 	C 	0.45740 0.91770 0.22615 0.15300
C 	C 	0.03650 0.31390 0.65411 -0.35000
C 	C 	0.33810 0.37020 0.00198 0.36300
C 	C 	0.93030 0.34820 0.47689 -0.35900
C 	C 	0.42210 0.33650 0.98290 -0.35800
C 	C 	0.56870 0.35690 0.15552 -0.30600
C 	C 	0.50370 0.05480 0.59450 -0.36900
C 	C 	0.40750 0.30220 0.11160 -0.36700
C 	C 	0.37850 0.49150 0.71164 0.11300
C 	C 	0.42110 0.98790 0.24876 -0.19200
C 	C 	0.04950 0.39700 0.63590 0.31700
C 	C 	0.66190 0.12980 0.50198 0.36400
C 	C 	0.09890 0.13670 0.08200 0.45200
C 	C 	0.51480 0.43650 0.75221 0.11600
C 	C 	0.39250 0.83300 0.22390 -0.06300
C 	C 	0.05340 0.49880 0.25044 0.11700
C 	C 	0.57790 0.16350 0.48290 -0.35800
C 	C 	0.25200 0.36450 0.92370 0.21400
C 	C 	0.33790 0.33140 0.90153 -0.23300
C 	C 	0.42580 0.06820 0.62910 0.26100
C 	C 	0.34100 0.31470 0.84674 0.37300
N 	N 	0.58720 0.07420 0.23496 -0.26500
N 	N 	0.75440 0.76270 0.73840 -0.06800
N 	N 	0.41280 0.42580 0.73496 -0.26600
N 	N 	0.70550 0.67500 0.73870 -0.06700
N 	N 	0.24560 0.73730 0.23840 -0.06800
N 	N 	0.95520 0.48720 0.23094 -0.27300
N 	N 	0.04480 0.01280 0.73094 -0.27100
N 	N 	0.29450 0.82500 0.23870 -0.06700
O 	O 	0.25910 0.33010 0.82059 -0.46300
O 	O 	0.66910 0.10530 0.55270 -0.33400
O 	O 	0.79680 0.38130 0.31175 -0.47200
O 	O 	0.26690 0.10530 0.69755 -0.50700
O 	O 	0.91430 0.28660 0.21004 -0.53400
O 	O 	0.19100 0.33860 0.70528 -0.51300
O 	O 	0.63110 0.27440 0.21831 -0.54400
O 	O 	0.82630 0.38840 0.54809 -0.35700
O 	O 	0.36890 0.22560 0.71831 -0.54400
O 	O 	0.95810 0.34310 0.31989 -0.35700
O 	O 	0.33090 0.39470 0.05270 -0.33400
O 	O 	0.80900 0.16140 0.20528 -0.51400
O 	O 	0.41950 0.28990 0.82718 -0.35800
O 	O 	0.58050 0.21010 0.32718 -0.35800
O 	O 	0.04190 0.15690 0.81989 -0.35700
O 	O 	0.74090 0.16990 0.32059 -0.46300
O 	O 	0.08570 0.21340 0.71004 -0.53300
O 	O 	0.20320 0.11870 0.81175 -0.47200
O 	O 	0.73310 0.39470 0.19755 -0.50700
O 	O 	0.17370 0.11160 0.04809 -0.35700
