data_crystal

_cell_length_a 19.93560
_cell_length_b 19.93560
_cell_length_c 20.35830
_cell_angle_alpha 60.68450
_cell_angle_beta  60.68450
_cell_angle_gamma 60.00000

_symmetry_space_group_name_	'P 1'
_symmetry_space_group_name_H-M	'P 1'

loop_
_symmetry_equiv_pos_as_xyz
  x,y,z

loop_
_atom_site_label
_atom_site_type_symbol
_atom_site_fract_x
_atom_site_fract_y
_atom_site_fract_z
_atom_site_charge
Mn	Mn	0.26949 0.23051 0.75000 1.27500
Mn	Mn	0.23051 0.75000 0.75000 1.27500
Mn	Mn	0.73051 0.76949 0.25000 1.27400
Mn	Mn	0.76949 0.25000 0.25000 1.27400
Mn	Mn	0.75000 0.26949 0.75000 1.27400
Mn	Mn	0.25000 0.73051 0.25000 1.27400
H 	H 	0.05560 0.54220 0.95350 0.23600
H 	H 	0.40340 0.11580 0.83290 0.13500
H 	H 	0.18950 0.04180 0.88360 0.24500
H 	H 	0.55560 0.94870 0.45350 0.23900
H 	H 	0.96040 0.16350 0.02760 0.23500
H 	H 	0.01630 0.92230 0.27660 0.00900
H 	H 	0.98370 0.07770 0.72340 0.00900
H 	H 	0.66350 0.46040 0.52760 0.23500
H 	H 	0.24740 0.35180 0.49340 0.24600
H 	H 	0.74740 0.40740 0.99340 0.24400
H 	H 	0.38420 0.09660 0.66710 0.13500
H 	H 	0.33000 0.62380 0.40340 0.23900
H 	H 	0.83960 0.08050 0.77590 0.11400
H 	H 	0.92230 0.78480 0.27660 0.01100
H 	H 	0.34850 0.66350 0.52760 0.23500
H 	H 	0.12470 0.70570 0.44780 0.24900
H 	H 	0.67000 0.37620 0.59660 0.23900
H 	H 	0.18790 0.56340 0.66080 0.26700
H 	H 	0.19980 0.30150 0.57560 0.25600
H 	H 	0.87510 0.89910 0.93160 0.25800
H 	H 	0.33960 0.80400 0.27590 0.11400
H 	H 	0.19600 0.41950 0.72410 0.11400
H 	H 	0.91210 0.93660 0.83920 0.26700
H 	H 	0.22180 0.20570 0.94780 0.24400
H 	H 	0.69980 0.42310 0.07560 0.25500
H 	H 	0.07040 0.49080 0.52760 0.23800
H 	H 	0.09260 0.75260 0.50660 0.24600
H 	H 	0.59260 0.14820 0.00660 0.24300
H 	H 	0.16040 0.91950 0.22410 0.11400
H 	H 	0.04220 0.55560 0.45350 0.23900
H 	H 	0.03240 0.39630 0.04890 0.22400
H 	H 	0.46040 0.34850 0.52760 0.23500
H 	H 	0.41210 0.81210 0.33920 0.26700
H 	H 	0.08880 0.92960 0.47240 0.23800
H 	H 	0.68790 0.08790 0.16080 0.26500
H 	H 	0.90160 0.38190 0.87460 0.25600
H 	H 	0.94870 0.04220 0.45350 0.23900
H 	H 	0.55130 0.94440 0.04650 0.23400
H 	H 	0.71520 0.57770 0.22340 0.01100
H 	H 	0.61580 0.90340 0.33290 0.13500
H 	H 	0.79420 0.39910 0.43160 0.25900
H 	H 	0.84850 0.96040 0.02760 0.23700
H 	H 	0.31050 0.61490 0.61640 0.24400
H 	H 	0.64280 0.33000 0.40340 0.23900
H 	H 	0.77820 0.79430 0.05220 0.24400
H 	H 	0.64820 0.09260 0.50660 0.24600
H 	H 	0.65810 0.11810 0.62540 0.25500
H 	H 	0.43660 0.41210 0.33920 0.26700
H 	H 	0.45820 0.31050 0.61640 0.24400
H 	H 	0.81050 0.95820 0.11640 0.24500
H 	H 	0.35720 0.67000 0.59660 0.23900
H 	H 	0.11490 0.81050 0.11640 0.24300
H 	H 	0.10090 0.70580 0.06840 0.26000
H 	H 	0.56340 0.58790 0.66080 0.26700
H 	H 	0.34190 0.88190 0.37460 0.25500
H 	H 	0.64790 0.40340 0.83290 0.13500
H 	H 	0.44870 0.05560 0.95350 0.23400
H 	H 	0.06340 0.68790 0.16080 0.26800
H 	H 	0.14280 0.12380 0.90340 0.24100
H 	H 	0.79430 0.37530 0.05220 0.24800
H 	H 	0.30400 0.83960 0.77590 0.11400
H 	H 	0.90740 0.24740 0.49340 0.24600
H 	H 	0.02240 0.89630 0.54890 0.23000
H 	H 	0.12380 0.83000 0.90340 0.23900
H 	H 	0.72180 0.12470 0.44780 0.24900
H 	H 	0.62490 0.20580 0.56840 0.25900
H 	H 	0.58880 0.00920 0.97240 0.23300
H 	H 	0.54180 0.68950 0.38360 0.24400
H 	H 	0.08790 0.06340 0.16080 0.26700
H 	H 	0.88190 0.40160 0.37460 0.25500
H 	H 	0.99080 0.57040 0.02760 0.23500
H 	H 	0.60090 0.62490 0.56840 0.25900
H 	H 	0.11580 0.64790 0.83290 0.13500
H 	H 	0.68950 0.38510 0.38360 0.24400
H 	H 	0.38510 0.54180 0.38360 0.24400
H 	H 	0.80400 0.58050 0.27590 0.11400
H 	H 	0.37620 0.35720 0.59660 0.23900
H 	H 	0.89910 0.29420 0.93160 0.26000
H 	H 	0.61490 0.45820 0.61640 0.24400
H 	H 	0.60370 0.47760 0.95110 0.23000
H 	H 	0.90340 0.14790 0.33290 0.13500
H 	H 	0.44440 0.05130 0.54650 0.23900
H 	H 	0.85210 0.38420 0.66710 0.13500
H 	H 	0.07770 0.21520 0.72340 0.01100
H 	H 	0.75260 0.64820 0.50660 0.24600
H 	H 	0.57040 0.41120 0.02760 0.23800
H 	H 	0.87620 0.17000 0.09660 0.23900
H 	H 	0.45780 0.55130 0.04650 0.23900
H 	H 	0.92310 0.19980 0.57560 0.25600
H 	H 	0.30020 0.57690 0.92440 0.25500
H 	H 	0.07690 0.80020 0.42440 0.25600
H 	H 	0.04180 0.88510 0.88360 0.24400
H 	H 	0.96760 0.60370 0.95110 0.22400
H 	H 	0.69850 0.07690 0.42440 0.25600
H 	H 	0.85720 0.87620 0.09660 0.24100
H 	H 	0.20580 0.60090 0.56840 0.25900
H 	H 	0.81210 0.43660 0.33920 0.26700
H 	H 	0.92960 0.50920 0.47240 0.23800
H 	H 	0.65150 0.33650 0.47240 0.23500
H 	H 	0.89630 0.53240 0.54890 0.23000
H 	H 	0.85180 0.74740 0.99340 0.23700
H 	H 	0.88510 0.18950 0.88360 0.24300
H 	H 	0.30150 0.92310 0.57560 0.25600
H 	H 	0.15810 0.09840 0.12540 0.25500
H 	H 	0.42310 0.80150 0.07560 0.25400
H 	H 	0.25260 0.59260 0.00660 0.24400
H 	H 	0.09840 0.61810 0.12540 0.25600
H 	H 	0.88420 0.35210 0.16710 0.13500
H 	H 	0.33650 0.53960 0.47240 0.23500
H 	H 	0.28480 0.42230 0.77660 0.01100
H 	H 	0.11810 0.59840 0.62540 0.25500
H 	H 	0.91950 0.69600 0.22410 0.11400
H 	H 	0.69600 0.16040 0.22410 0.11400
H 	H 	0.41950 0.66040 0.72410 0.11400
H 	H 	0.35210 0.59660 0.16710 0.13500
H 	H 	0.42230 0.51630 0.77660 0.01100
H 	H 	0.38190 0.84190 0.87460 0.25400
H 	H 	0.95820 0.11490 0.11640 0.24400
H 	H 	0.05130 0.95780 0.54650 0.23900
H 	H 	0.66040 0.19600 0.72410 0.11400
H 	H 	0.48370 0.71520 0.22340 0.01100
H 	H 	0.29420 0.87510 0.93160 0.25700
H 	H 	0.80150 0.69980 0.07560 0.25000
H 	H 	0.37530 0.77820 0.05220 0.24700
H 	H 	0.51630 0.28480 0.77660 0.01100
H 	H 	0.14820 0.25260 0.00660 0.23700
H 	H 	0.84190 0.90160 0.87460 0.25500
H 	H 	0.83000 0.14280 0.90340 0.23900
H 	H 	0.70580 0.12490 0.06840 0.25700
H 	H 	0.53960 0.65150 0.47240 0.23500
H 	H 	0.58790 0.18790 0.66080 0.26700
H 	H 	0.95780 0.44440 0.54650 0.23900
H 	H 	0.53240 0.02240 0.54890 0.23000
H 	H 	0.21520 0.98370 0.72340 0.00900
H 	H 	0.03960 0.83650 0.97240 0.23500
H 	H 	0.20570 0.62470 0.94780 0.24800
H 	H 	0.80020 0.69850 0.42440 0.25600
H 	H 	0.19850 0.30020 0.92440 0.25000
H 	H 	0.12490 0.10090 0.06840 0.25800
H 	H 	0.31210 0.91210 0.83920 0.26500
H 	H 	0.47760 0.96760 0.95110 0.22200
H 	H 	0.54220 0.44870 0.95350 0.23900
H 	H 	0.00920 0.42960 0.97240 0.23500
H 	H 	0.17000 0.85720 0.09660 0.23900
H 	H 	0.35180 0.90740 0.49340 0.24600
H 	H 	0.09660 0.85210 0.66710 0.13500
H 	H 	0.40740 0.85180 0.99340 0.24300
H 	H 	0.49080 0.91120 0.52760 0.23800
H 	H 	0.15150 0.03960 0.97240 0.23700
H 	H 	0.14790 0.61580 0.33290 0.13500
H 	H 	0.58050 0.33960 0.27590 0.11400
H 	H 	0.91120 0.07040 0.52760 0.23800
H 	H 	0.87530 0.29430 0.55220 0.24900
H 	H 	0.78480 0.01630 0.27660 0.00900
H 	H 	0.62380 0.64280 0.40340 0.23900
H 	H 	0.39910 0.37510 0.43160 0.25900
H 	H 	0.10370 0.46760 0.45110 0.23000
H 	H 	0.37510 0.79420 0.43160 0.25900
H 	H 	0.29430 0.27820 0.55220 0.24900
H 	H 	0.41120 0.99080 0.02760 0.23300
H 	H 	0.57770 0.48370 0.22340 0.01100
H 	H 	0.40160 0.34190 0.37460 0.25500
H 	H 	0.83650 0.15150 0.97240 0.23500
H 	H 	0.39630 0.52240 0.04890 0.23000
H 	H 	0.27820 0.87530 0.55220 0.24900
H 	H 	0.94440 0.45780 0.04650 0.23600
H 	H 	0.59840 0.65810 0.62540 0.25500
H 	H 	0.57690 0.19850 0.92440 0.25400
H 	H 	0.46760 0.97760 0.45110 0.23000
H 	H 	0.50920 0.08880 0.47240 0.23800
H 	H 	0.59660 0.88420 0.16710 0.13500
H 	H 	0.97760 0.10370 0.45110 0.23000
H 	H 	0.62470 0.22180 0.94780 0.24700
H 	H 	0.93660 0.31210 0.83920 0.26800
H 	H 	0.42960 0.58880 0.97240 0.23800
H 	H 	0.16350 0.84850 0.02760 0.23500
H 	H 	0.52240 0.03240 0.04890 0.22200
H 	H 	0.08050 0.30400 0.77590 0.11400
H 	H 	0.70570 0.72180 0.44780 0.24900
H 	H 	0.61810 0.15810 0.12540 0.25400
C 	C 	0.97278 0.91648 0.27666 0.06200
C 	C 	0.93399 0.23589 0.08643 0.25000
C 	C 	0.20335 0.78585 0.52895 -0.16400
C 	C 	0.17726 0.25626 0.95152 -0.77000
C 	C 	0.33408 0.41648 0.77666 0.05900
C 	C 	0.66592 0.58352 0.22334 0.05900
C 	C 	0.27179 0.69388 0.91396 0.26100
C 	C 	0.53620 0.23210 0.44750 -0.17900
C 	C 	0.98744 0.69914 0.11388 0.28000
C 	C 	0.19914 0.48744 0.61388 0.27700
C 	C 	0.01763 0.15808 0.72331 -0.15300
C 	C 	0.56800 0.67800 0.41870 -0.76800
C 	C 	0.17557 0.57007 0.61739 -0.81300
C 	C 	0.66470 0.43200 0.58130 -0.76800
C 	C 	0.76411 0.25631 0.91357 0.25000
C 	C 	0.57007 0.63697 0.61739 -0.81300
C 	C 	0.89902 0.98237 0.27669 -0.15300
C 	C 	0.32274 0.88504 0.54848 -0.79100
C 	C 	0.11496 0.75626 0.45152 -0.79100
C 	C 	0.03899 0.65749 0.93793 0.26400
C 	C 	0.39902 0.34192 0.77669 -0.15300
C 	C 	0.75626 0.67726 0.45152 -0.79100
C 	C 	0.70335 0.98185 0.02895 -0.15900
C 	C 	0.10098 0.01763 0.72331 -0.15300
C 	C 	0.24369 0.73589 0.58643 0.25000
C 	C 	0.78420 0.53620 0.44750 -0.17900
C 	C 	0.12037 0.27179 0.91396 0.25700
C 	C 	0.63697 0.17557 0.61739 -0.81300
C 	C 	0.30612 0.87963 0.08604 0.26100
C 	C 	0.93877 0.22887 0.72049 0.34400
C 	C 	0.21580 0.46380 0.55250 -0.17900
C 	C 	0.71580 0.26790 0.05250 -0.17800
C 	C 	0.80612 0.22821 0.58604 0.26200
C 	C 	0.32443 0.86303 0.88261 -0.81000
C 	C 	0.06834 0.91284 0.52958 -0.75900
C 	C 	0.15808 0.10098 0.72331 -0.15400
C 	C 	0.28585 0.70335 0.02895 -0.16400
C 	C 	0.03620 0.28420 0.94750 -0.17600
C 	C 	0.51763 0.60098 0.22331 -0.15300
C 	C 	0.56123 0.38813 0.77951 0.34500
C 	C 	0.41284 0.56834 0.02958 -0.75900
C 	C 	0.92993 0.32443 0.88261 -0.81900
C 	C 	0.77113 0.88813 0.27951 0.34500
C 	C 	0.30086 0.80046 0.88612 0.27600
C 	C 	0.13697 0.07007 0.11739 -0.81800
C 	C 	0.02722 0.08352 0.72334 0.06200
C 	C 	0.58352 0.52722 0.22334 0.05900
C 	C 	0.01815 0.71415 0.97105 -0.16400
C 	C 	0.75631 0.26411 0.41357 0.25000
C 	C 	0.74374 0.38504 0.04848 -0.78600
C 	C 	0.65808 0.51763 0.22331 -0.15300
C 	C 	0.07007 0.67557 0.11739 -0.81900
C 	C 	0.83408 0.97278 0.27666 0.06200
C 	C 	0.72821 0.30612 0.08604 0.26100
C 	C 	0.22821 0.37963 0.58604 0.26200
C 	C 	0.87963 0.72821 0.08604 0.25700
C 	C 	0.98185 0.28585 0.02895 -0.16400
C 	C 	0.53899 0.86559 0.43793 0.26700
C 	C 	0.65749 0.36559 0.93793 0.26700
C 	C 	0.91284 0.48924 0.52958 -0.75900
C 	C 	0.52722 0.66592 0.22334 0.05900
C 	C 	0.80086 0.51256 0.38612 0.27700
C 	C 	0.88504 0.24374 0.54848 -0.79100
C 	C 	0.69954 0.19914 0.61388 0.27700
C 	C 	0.30046 0.80086 0.38612 0.27700
C 	C 	0.22887 0.11187 0.72049 0.34500
C 	C 	0.61496 0.17726 0.95152 -0.78400
C 	C 	0.23589 0.74369 0.08643 0.25000
C 	C 	0.93166 0.08716 0.47042 -0.75900
C 	C 	0.19388 0.77179 0.41396 0.26200
C 	C 	0.61187 0.72887 0.22049 0.34500
C 	C 	0.58716 0.43166 0.97042 -0.75900
C 	C 	0.25626 0.61496 0.95152 -0.78600
C 	C 	0.82443 0.42993 0.38261 -0.81300
C 	C 	0.91648 0.83408 0.27666 0.06000
C 	C 	0.82274 0.74374 0.04848 -0.77000
C 	C 	0.41648 0.47278 0.77666 0.05900
C 	C 	0.56601 0.75631 0.41357 0.25000
C 	C 	0.86303 0.92993 0.88261 -0.81800
C 	C 	0.73589 0.43399 0.58643 0.25000
C 	C 	0.48744 0.69954 0.61388 0.27700
C 	C 	0.51256 0.30046 0.38612 0.27700
C 	C 	0.38813 0.27113 0.77951 0.34500
C 	C 	0.36559 0.03899 0.93793 0.26100
C 	C 	0.71415 0.29665 0.97105 -0.16400
C 	C 	0.27113 0.56123 0.77951 0.34500
C 	C 	0.08716 0.51076 0.47042 -0.75900
C 	C 	0.34251 0.63441 0.06207 0.26700
C 	C 	0.74369 0.93399 0.08643 0.25000
C 	C 	0.96380 0.71580 0.05250 -0.17600
C 	C 	0.08352 0.16592 0.72334 0.06000
C 	C 	0.33530 0.56800 0.41870 -0.76800
C 	C 	0.43166 0.01076 0.97042 -0.73800
C 	C 	0.26411 0.56601 0.41357 0.25000
C 	C 	0.46380 0.76790 0.55250 -0.17900
C 	C 	0.69388 0.12037 0.91396 0.26100
C 	C 	0.26790 0.96380 0.05250 -0.18100
C 	C 	0.43200 0.32200 0.58130 -0.76800
C 	C 	0.82200 0.93200 0.08130 -0.77000
C 	C 	0.24374 0.32274 0.54848 -0.79100
C 	C 	0.84192 0.89902 0.27669 -0.15400
C 	C 	0.67557 0.13697 0.11739 -0.81000
C 	C 	0.77179 0.62037 0.41396 0.26200
C 	C 	0.15749 0.53899 0.43793 0.26600
C 	C 	0.78585 0.48185 0.52895 -0.16400
C 	C 	0.79665 0.21415 0.47105 -0.16400
C 	C 	0.17800 0.06800 0.91870 -0.77000
C 	C 	0.34192 0.48237 0.77669 -0.15300
C 	C 	0.62037 0.19388 0.41396 0.26200
C 	C 	0.28420 0.73210 0.94750 -0.17800
C 	C 	0.96101 0.34251 0.06207 0.26400
C 	C 	0.16470 0.82200 0.08130 -0.76700
C 	C 	0.42993 0.36303 0.38261 -0.81300
C 	C 	0.29665 0.01815 0.97105 -0.15900
C 	C 	0.76790 0.21580 0.55250 -0.17900
C 	C 	0.98237 0.84192 0.27669 -0.15300
C 	C 	0.21415 0.51815 0.47105 -0.16400
C 	C 	0.48924 0.06834 0.52958 -0.75900
C 	C 	0.01256 0.30086 0.88612 0.28000
C 	C 	0.01076 0.58716 0.97042 -0.74600
C 	C 	0.06800 0.83530 0.91870 -0.76800
C 	C 	0.25631 0.06601 0.91357 0.25000
C 	C 	0.83530 0.17800 0.91870 -0.76700
C 	C 	0.51815 0.79665 0.47105 -0.16400
C 	C 	0.56834 0.98924 0.02958 -0.73800
C 	C 	0.06601 0.76411 0.91357 0.25000
C 	C 	0.16592 0.02722 0.72334 0.06200
C 	C 	0.38504 0.82274 0.04848 -0.78400
C 	C 	0.72887 0.43877 0.22049 0.34500
C 	C 	0.32200 0.66470 0.58130 -0.76800
C 	C 	0.46101 0.13441 0.56207 0.26700
C 	C 	0.51076 0.93166 0.47042 -0.75900
C 	C 	0.48237 0.39902 0.77669 -0.15300
C 	C 	0.98924 0.41284 0.02958 -0.74600
C 	C 	0.37963 0.80612 0.58604 0.26200
C 	C 	0.73210 0.03620 0.94750 -0.18100
C 	C 	0.43877 0.61187 0.22049 0.34500
C 	C 	0.43399 0.24369 0.58643 0.25000
C 	C 	0.67726 0.11496 0.45152 -0.79100
C 	C 	0.67800 0.33530 0.41870 -0.76800
C 	C 	0.19954 0.98744 0.11388 0.28000
C 	C 	0.60098 0.65808 0.22331 -0.15300
C 	C 	0.86559 0.15749 0.43793 0.26700
C 	C 	0.80046 0.01256 0.88612 0.28000
C 	C 	0.06123 0.77113 0.27951 0.34400
C 	C 	0.13441 0.84251 0.56207 0.26700
C 	C 	0.84251 0.46101 0.56207 0.26600
C 	C 	0.69914 0.19954 0.11388 0.27600
C 	C 	0.93200 0.16470 0.08130 -0.76800
C 	C 	0.48185 0.20335 0.52895 -0.16400
C 	C 	0.63441 0.96101 0.06207 0.26100
C 	C 	0.47278 0.33408 0.77666 0.05900
C 	C 	0.11187 0.93877 0.72049 0.34400
C 	C 	0.36303 0.82443 0.38261 -0.81300
C 	C 	0.88813 0.06123 0.27951 0.34400
C 	C 	0.23210 0.78420 0.44750 -0.17900
N 	N 	0.20372 0.41994 0.67856 -0.22300
N 	N 	0.08006 0.29628 0.82144 -0.22400
N 	N 	0.76251 0.22207 0.66302 -0.23400
N 	N 	0.59460 0.86559 0.36509 -0.22800
N 	N 	0.63441 0.90540 0.13491 -0.22600
N 	N 	0.58006 0.30222 0.32144 -0.22300
N 	N 	0.27793 0.73749 0.83698 -0.23400
N 	N 	0.90540 0.32528 0.13491 -0.22700
N 	N 	0.29628 0.80222 0.82144 -0.22300
N 	N 	0.35240 0.76251 0.66302 -0.23400
N 	N 	0.36559 0.09460 0.86509 -0.22600
N 	N 	0.29852 0.11317 0.84868 -0.23400
N 	N 	0.91994 0.70372 0.17856 -0.22400
N 	N 	0.80222 0.08006 0.82144 -0.22400
N 	N 	0.11317 0.73963 0.84868 -0.23400
N 	N 	0.79628 0.58006 0.32144 -0.22300
N 	N 	0.70372 0.19778 0.17856 -0.22300
N 	N 	0.73963 0.29852 0.84868 -0.23400
N 	N 	0.17472 0.59460 0.36509 -0.22800
N 	N 	0.85240 0.72207 0.16302 -0.23300
N 	N 	0.73749 0.14760 0.83698 -0.23400
N 	N 	0.77793 0.64760 0.33698 -0.23400
N 	N 	0.82528 0.40540 0.63491 -0.22800
N 	N 	0.64760 0.23749 0.33698 -0.23400
N 	N 	0.13441 0.82528 0.63491 -0.22800
N 	N 	0.38683 0.20148 0.65132 -0.23400
N 	N 	0.26251 0.85240 0.16302 -0.23400
N 	N 	0.19778 0.91994 0.17856 -0.22400
N 	N 	0.14760 0.27793 0.83698 -0.23300
N 	N 	0.41994 0.69778 0.67856 -0.22300
N 	N 	0.40540 0.13441 0.63491 -0.22800
N 	N 	0.32528 0.63441 0.13491 -0.22800
N 	N 	0.26037 0.70148 0.15132 -0.23400
N 	N 	0.22207 0.35240 0.66302 -0.23400
N 	N 	0.23963 0.61317 0.34868 -0.23400
N 	N 	0.20148 0.76037 0.65132 -0.23400
N 	N 	0.67472 0.36559 0.86509 -0.22800
N 	N 	0.30222 0.79628 0.32144 -0.22300
N 	N 	0.88683 0.26037 0.15132 -0.23400
N 	N 	0.61317 0.79852 0.34868 -0.23400
N 	N 	0.86559 0.17472 0.36509 -0.22800
N 	N 	0.72207 0.26251 0.16302 -0.23400
N 	N 	0.79852 0.23963 0.34868 -0.23400
N 	N 	0.76037 0.38683 0.65132 -0.23400
N 	N 	0.09460 0.67472 0.86509 -0.22700
N 	N 	0.23749 0.77793 0.33698 -0.23400
N 	N 	0.70148 0.88683 0.15132 -0.23400
N 	N 	0.69778 0.20372 0.67856 -0.22300
O 	O 	0.21534 0.17980 0.72289 -0.44600
O 	O 	0.82020 0.11803 0.27711 -0.44600
O 	O 	0.55409 0.79674 0.21521 -0.32100
O 	O 	0.61803 0.32020 0.77711 -0.44600
O 	O 	0.20326 0.56604 0.78479 -0.32100
O 	O 	0.78466 0.82020 0.27711 -0.44600
O 	O 	0.44591 0.20326 0.78479 -0.32100
O 	O 	0.71534 0.38197 0.22289 -0.44600
O 	O 	0.93396 0.29674 0.71521 -0.32200
O 	O 	0.56604 0.44591 0.78479 -0.32200
O 	O 	0.32020 0.28466 0.77711 -0.44600
O 	O 	0.70326 0.94591 0.28479 -0.32100
O 	O 	0.43396 0.55409 0.21521 -0.32200
O 	O 	0.79674 0.43396 0.21521 -0.32100
O 	O 	0.38197 0.67980 0.22289 -0.44600
O 	O 	0.17980 0.88197 0.72289 -0.44600
O 	O 	0.11803 0.78466 0.27711 -0.44600
O 	O 	0.05409 0.93396 0.71521 -0.32100
O 	O 	0.67980 0.71534 0.22289 -0.44600
O 	O 	0.28466 0.61803 0.77711 -0.44600
O 	O 	0.29674 0.05409 0.71521 -0.32100
O 	O 	0.88197 0.21534 0.72289 -0.44600
O 	O 	0.94591 0.06604 0.28479 -0.32100
O 	O 	0.06604 0.70326 0.28479 -0.32200
