data_crystal

_cell_length_a 13.32950
_cell_length_b 16.21600
_cell_length_c 16.21600
_cell_angle_alpha 67.20800
_cell_angle_beta  74.09760
_cell_angle_gamma 105.90200

_symmetry_space_group_name_	'P 1'
_symmetry_space_group_name_H-M	'P 1'

loop_
_symmetry_equiv_pos_as_xyz
  x,y,z

loop_
_atom_site_label
_atom_site_type_symbol
_atom_site_fract_x
_atom_site_fract_y
_atom_site_fract_z
_atom_site_charge
Cd	Cd	-0.00000 0.50000 0.50000 1.15200
Cd	Cd	0.50000 0.50000 -0.00000 1.15000
Cd	Cd	0.50000 0.00000 0.50000 1.15300
H 	H 	0.63390 0.45460 0.29110 0.08500
H 	H 	0.12890 0.00000 0.37340 0.07800
H 	H 	0.43900 0.83340 0.72050 -0.02800
H 	H 	0.64680 0.47560 0.13960 -0.03800
H 	H 	0.63390 0.70890 0.54540 0.08400
H 	H 	0.49770 0.62660 0.37340 0.04700
H 	H 	0.43900 0.27950 0.16660 -0.04500
H 	H 	0.83750 0.45820 0.85740 0.06900
H 	H 	0.87110 -0.00000 0.62660 0.03600
H 	H 	0.82070 0.74570 0.54540 0.08500
H 	H 	0.62070 0.45820 0.68440 0.09400
H 	H 	0.62070 0.31560 0.54180 0.09400
H 	H 	0.12890 0.62660 -0.00000 0.08500
H 	H 	0.35320 0.52440 0.86040 -0.00400
H 	H 	0.37930 0.68440 0.45820 0.06600
H 	H 	0.16250 0.54180 0.14260 0.09700
H 	H 	0.21360 0.38480 0.13960 -0.02000
H 	H 	0.56100 0.72050 0.83340 -0.00700
H 	H 	0.82070 0.45460 0.25430 0.08400
H 	H 	0.30510 0.14260 0.31560 0.08600
H 	H 	0.84050 0.44610 0.72050 -0.02200
H 	H 	0.60560 0.16660 0.55390 -0.04400
H 	H 	0.21360 0.86040 0.61520 -0.00400
H 	H 	0.83750 0.14260 0.54180 0.05700
H 	H 	0.17120 0.52440 0.61520 -0.03100
H 	H 	0.92500 0.74570 0.70890 0.09700
H 	H 	0.78640 0.13960 0.38480 -0.03600
H 	H 	0.07500 0.70890 0.74570 0.06900
H 	H 	0.92500 0.29110 0.25430 0.09500
H 	H 	0.07500 0.25430 0.29110 0.06800
H 	H 	0.17930 0.54540 0.74570 0.08100
H 	H 	0.50230 0.37340 0.62660 0.05200
H 	H 	0.36610 0.29110 0.45460 0.08500
H 	H 	0.36610 0.54540 0.70890 0.08500
H 	H 	0.30510 0.68440 0.85740 0.10100
H 	H 	0.39440 0.83340 0.44610 -0.01100
H 	H 	0.56100 0.16660 0.27950 -0.02400
H 	H 	0.69490 0.31560 0.14260 0.06500
H 	H 	0.35320 0.13960 0.47560 -0.01900
H 	H 	0.64680 0.86040 0.52440 -0.02300
H 	H 	0.17930 0.25430 0.45460 0.08100
H 	H 	0.84050 0.27950 0.55390 -0.02400
H 	H 	0.60560 0.44610 0.83340 -0.03400
H 	H 	0.15950 0.72050 0.44610 -0.03500
H 	H 	0.17120 0.38480 0.47560 -0.03200
H 	H 	0.87110 0.37340 -0.00000 0.03000
H 	H 	0.69490 0.85740 0.68440 0.08000
H 	H 	0.39440 0.55390 0.16660 -0.02000
H 	H 	0.78640 0.61520 0.86040 -0.02000
H 	H 	0.82880 0.61520 0.52440 -0.01600
H 	H 	0.15950 0.55390 0.27950 -0.03600
H 	H 	0.82880 0.47560 0.38480 -0.01600
H 	H 	0.37930 0.54180 0.31560 0.06600
H 	H 	0.16250 0.85740 0.45820 0.10900
C 	C 	0.10351 0.33631 0.48768 0.07200
C 	C 	0.44395 0.80833 0.46558 0.07500
C 	C 	0.50084 0.42461 0.57539 -0.05600
C 	C 	0.49363 0.32133 0.49704 0.09600
C 	C 	0.85174 0.26681 0.25689 -0.17000
C 	C 	0.90953 0.46558 0.72609 0.10100
C 	C 	0.55605 0.46558 0.80833 0.09100
C 	C 	0.82770 0.81837 0.67867 0.09900
C 	C 	0.40881 0.17601 0.48768 0.08200
C 	C 	0.00933 0.50296 0.81837 0.05400
C 	C 	0.85174 0.74311 0.73319 -0.15800
C 	C 	0.99320 0.49333 0.09053 0.05200
C 	C 	0.28430 0.71807 0.80887 -0.14700
C 	C 	0.99067 0.81837 0.50296 0.11100
C 	C 	0.50637 0.49704 0.32133 0.08400
C 	C 	0.89137 0.74311 0.52370 -0.15700
C 	C 	0.59119 0.82399 0.51232 0.08200
C 	C 	0.09317 0.52694 0.19113 -0.20000
C 	C 	0.92377 0.42461 -0.00000 -0.05300
C 	C 	0.49363 0.50296 0.67867 0.09400
C 	C 	0.56623 0.47306 0.71807 -0.16900
C 	C 	0.07623 0.00000 0.42461 -0.19100
C 	C 	0.49916 0.57539 0.42461 -0.06200
C 	C 	0.50013 0.58386 0.50667 -0.01800
C 	C 	0.50013 0.49333 0.41614 -0.01900
C 	C 	0.82770 0.32133 0.18163 0.09800
C 	C 	0.91627 0.90947 0.58386 -0.01600
C 	C 	0.14826 0.73319 0.74311 -0.13300
C 	C 	0.07623 0.57539 -0.00000 -0.20800
C 	C 	0.99320 0.90947 0.50667 0.07700
C 	C 	0.71570 0.28193 0.19113 -0.16200
C 	C 	0.99067 0.49704 0.18163 0.10800
C 	C 	0.43377 0.52694 0.28193 -0.15200
C 	C 	0.41507 0.52370 0.73319 -0.15800
C 	C 	0.41507 0.26681 0.47630 -0.16300
C 	C 	0.17230 0.67867 0.81837 0.06300
C 	C 	0.58493 0.73319 0.52370 -0.15300
C 	C 	0.09047 0.72609 0.46558 0.06500
C 	C 	0.55605 0.19167 0.53442 0.09100
C 	C 	0.10863 0.25689 0.47630 -0.15200
C 	C 	0.08373 0.58386 0.90947 0.07100
C 	C 	0.58493 0.47630 0.26681 -0.15700
C 	C 	0.10351 0.51232 0.66369 0.07200
C 	C 	0.23280 0.82399 0.66369 0.07200
C 	C 	0.76720 0.17601 0.33631 0.08700
C 	C 	0.08373 0.09053 0.41614 0.02500
C 	C 	0.89137 0.47630 0.25689 -0.15800
C 	C 	0.36438 0.80833 0.72609 0.08500
C 	C 	0.23280 0.33631 0.17601 0.06800
C 	C 	0.00933 0.18163 0.49704 0.05600
C 	C 	0.89649 0.48768 0.33631 0.08900
C 	C 	0.89649 0.66369 0.51232 0.09000
C 	C 	0.49987 0.50667 0.58386 -0.02200
C 	C 	0.90953 0.27391 0.53442 0.10000
C 	C 	0.10863 0.52370 0.74311 -0.14700
C 	C 	0.43377 0.71807 0.47306 -0.14800
C 	C 	0.44395 0.53442 0.19167 0.07500
C 	C 	0.00680 0.09053 0.49333 -0.06900
C 	C 	0.76720 0.66369 0.82399 0.09100
C 	C 	0.91627 0.41614 0.09053 -0.05200
C 	C 	0.56623 0.28193 0.52694 -0.17300
C 	C 	0.36438 0.27391 0.19167 0.07900
C 	C 	0.90683 0.47306 0.80887 -0.11100
C 	C 	0.50637 0.67867 0.50296 0.08300
C 	C 	0.49987 0.41614 0.49333 -0.02300
C 	C 	0.90683 0.19113 0.52694 -0.11700
C 	C 	0.63562 0.72609 0.80833 0.08300
C 	C 	0.00680 0.50667 0.90947 -0.03300
C 	C 	0.92377 0.00000 0.57539 -0.04400
C 	C 	0.28430 0.19113 0.28193 -0.16000
C 	C 	0.17230 0.18163 0.32133 0.06500
C 	C 	0.71570 0.80887 0.71807 -0.15100
C 	C 	0.09047 0.53442 0.27391 0.06300
C 	C 	0.59119 0.48768 0.17601 0.08200
C 	C 	0.63562 0.19167 0.27391 0.07700
C 	C 	0.09317 0.80887 0.47306 -0.19900
C 	C 	0.40881 0.51232 0.82399 0.08200
C 	C 	0.14826 0.25689 0.26681 -0.14700
S 	S 	0.77930 0.41580 0.58420 -0.24200
S 	S 	0.36350 0.58420 -0.00000 -0.30000
S 	S 	0.36350 0.00000 0.41580 -0.29700
N 	N 	0.65931 0.13868 0.34605 -0.25100
N 	N 	0.00536 0.48473 0.65395 -0.26500
N 	N 	0.65931 0.65395 0.86132 -0.23300
N 	N 	0.47937 0.48473 0.86132 -0.23600
N 	N 	0.00536 0.34605 0.51527 -0.26500
N 	N 	0.52063 0.51527 0.13868 -0.24900
N 	N 	0.99464 0.51527 0.34605 -0.22500
N 	N 	0.34069 0.34605 0.13868 -0.25100
N 	N 	0.99464 0.65395 0.48473 -0.22500
N 	N 	0.34069 0.86132 0.65395 -0.23300
N 	N 	0.47937 0.13868 0.51527 -0.25200
N 	N 	0.52063 0.86132 0.48473 -0.23500
