data_crystal

_cell_length_a 12.69090
_cell_length_b 12.69090
_cell_length_c 14.67230
_cell_angle_alpha 115.62500
_cell_angle_beta  115.62500
_cell_angle_gamma 90.00070

_symmetry_space_group_name_	'P 1'
_symmetry_space_group_name_H-M	'P 1'

loop_
_symmetry_equiv_pos_as_xyz
  x,y,z

loop_
_atom_site_label
_atom_site_type_symbol
_atom_site_fract_x
_atom_site_fract_y
_atom_site_fract_z
_atom_site_charge
Cd	Cd	-0.00000 0.00000 -0.00000 1.16400
Cd	Cd	0.33815 0.33815 0.67630 1.19900
Cd	Cd	0.66185 0.66185 0.32370 1.20000
H 	H 	0.89810 0.08090 0.68180 0.05300
H 	H 	0.82500 0.71340 0.19880 0.00300
H 	H 	0.78370 0.60090 0.68180 0.01800
H 	H 	0.84150 0.49790 0.44180 0.00400
H 	H 	0.39910 0.10190 0.31820 0.00000
H 	H 	0.53000 0.73640 0.97200 0.05500
H 	H 	0.96130 0.82470 0.44640 0.01500
H 	H 	0.28660 0.62620 0.80120 0.00100
H 	H 	0.91910 0.21630 0.31820 -0.00600
H 	H 	0.26360 0.55800 0.02800 -0.02500
H 	H 	0.50210 0.39970 0.55820 0.00100
H 	H 	0.75720 0.59830 0.89700 0.01200
H 	H 	0.70130 0.24280 0.10300 0.01800
H 	H 	0.17530 0.51490 0.55360 0.00300
H 	H 	0.20090 0.99600 0.73780 0.10200
H 	H 	0.76440 0.47000 0.02800 -0.02000
H 	H 	0.40170 0.86020 0.10300 0.03100
H 	H 	0.81940 0.94270 0.10740 0.02900
H 	H 	0.37380 0.48540 0.19880 -0.00300
H 	H 	0.13980 0.29870 0.89700 0.00700
H 	H 	0.44200 0.23560 0.97200 0.05000
H 	H 	0.05730 0.71200 0.89260 -0.01300
H 	H 	0.28800 0.16470 0.10740 -0.00000
H 	H 	0.60030 0.94390 0.44180 0.01900
H 	H 	0.53690 0.74180 0.73780 0.02600
H 	H 	0.00400 0.46310 0.26220 -0.01500
H 	H 	0.37830 0.03870 0.55360 -0.01100
H 	H 	0.25820 0.79910 0.26220 0.02100
H 	H 	0.05610 0.15850 0.55820 -0.01100
H 	H 	0.48510 0.62170 0.44640 0.00500
H 	H 	0.83530 0.18060 0.89260 -0.01200
H 	H 	0.51460 0.17500 0.80120 -0.01000
C 	C 	0.14970 0.25390 0.93500 0.13000
C 	C 	0.74540 0.71500 0.15840 0.11000
C 	C 	0.41300 0.44340 0.15840 0.10500
C 	C 	0.28500 0.58700 0.84160 0.11000
C 	C 	0.38050 0.07560 0.51160 0.09100
C 	C 	0.56400 0.61950 0.48840 0.09900
C 	C 	0.88830 0.00980 0.61880 -0.03400
C 	C 	0.81870 0.87060 0.05080 0.08100
C 	C 	0.86410 0.50360 0.39140 0.10700
C 	C 	0.13110 0.43600 0.51160 0.09600
C 	C 	0.31890 0.85030 0.06500 0.07100
C 	C 	0.12940 0.76790 0.94920 0.13800
C 	C 	0.96450 0.86790 0.75580 0.15500
C 	C 	0.69330 0.41600 0.96500 0.15700
C 	C 	0.73050 0.60900 0.61880 0.09500
C 	C 	0.81980 0.18130 0.94920 0.13300
C 	C 	0.11220 0.13590 0.60860 0.10300
C 	C 	0.58400 0.72830 0.03500 0.05200
C 	C 	0.27170 0.54900 0.96500 0.16000
C 	C 	0.99020 0.26950 0.38120 0.14600
C 	C 	0.19140 0.04740 0.70640 -0.01000
C 	C 	0.51500 0.65900 0.70640 0.10900
C 	C 	0.79130 0.88790 0.75580 0.13800
C 	C 	0.95260 0.48500 0.29360 0.15300
C 	C 	0.52730 0.88780 0.39140 0.10900
C 	C 	0.23210 0.18020 0.05080 0.05900
C 	C 	0.13210 0.20870 0.24420 0.10000
C 	C 	0.34100 0.80860 0.29360 0.11100
C 	C 	0.11210 0.03550 0.24420 0.04100
C 	C 	0.45100 0.30670 0.03500 0.04000
C 	C 	0.39100 0.11170 0.38120 0.09000
C 	C 	0.55660 0.25460 0.84160 0.11100
C 	C 	0.74610 0.21470 0.06500 0.06400
C 	C 	0.92440 0.86890 0.48840 0.10700
C 	C 	0.49640 0.47270 0.60860 0.10700
C 	C 	0.78530 0.68110 0.93500 0.13000
N 	N 	0.11710 0.96160 0.29040 -0.07300
N 	N 	0.27630 0.12480 0.73120 -0.09000
N 	N 	0.11870 0.12950 0.98860 -0.18800
N 	N 	0.30290 0.48030 0.81900 -0.20300
N 	N 	0.60820 0.60170 0.58160 -0.10100
N 	N 	0.79480 0.92420 0.55260 -0.05600
N 	N 	0.81520 0.83510 0.46800 -0.19500
N 	N 	0.06510 0.17770 0.91540 -0.12100
N 	N 	0.09850 0.09850 0.19700 -0.26400
N 	N 	0.66130 0.69710 0.18100 -0.20400
N 	N 	0.67120 0.88290 0.70960 -0.10500
N 	N 	0.74140 0.23550 0.98040 -0.09500
N 	N 	0.95070 0.45800 0.37020 -0.11000
N 	N 	0.26230 0.93490 0.08460 -0.08600
N 	N 	0.02010 0.39180 0.41840 -0.12300
N 	N 	0.22510 0.18330 0.66900 -0.19900
N 	N 	0.36720 0.33370 0.06940 -0.10500
N 	N 	0.55670 0.70830 0.10100 -0.09700
N 	N 	0.90150 0.90150 0.80300 -0.25700
N 	N 	0.65280 0.63290 0.46800 -0.19800
N 	N 	0.23900 0.74490 0.98040 -0.09400
N 	N 	0.60730 0.44330 0.89900 -0.10800
N 	N 	0.39360 0.72370 0.26880 -0.10900
N 	N 	0.14090 0.88130 0.01140 -0.21200
N 	N 	0.70220 0.73570 0.06940 -0.10200
N 	N 	0.54200 0.58050 0.62980 -0.11100
N 	N 	0.66630 0.29780 0.93060 -0.11800
N 	N 	0.51610 0.33870 0.81900 -0.20400
N 	N 	0.76450 0.76100 0.01960 -0.11700
N 	N 	0.87520 0.54510 0.26880 -0.11400
N 	N 	0.16490 0.34720 0.53200 -0.19900
N 	N 	0.97340 0.97990 0.58160 -0.03400
N 	N 	0.25510 0.25860 0.01960 -0.12300
N 	N 	0.08780 0.04930 0.62980 -0.12600
N 	N 	0.82230 0.14970 0.08460 -0.11200
N 	N 	0.86990 0.85910 0.98860 -0.16400
N 	N 	0.29170 0.45570 0.89900 -0.10900
N 	N 	0.75780 0.62840 0.55260 -0.10500
N 	N 	0.45490 0.60640 0.73120 -0.10400
N 	N 	0.87050 0.13010 0.01140 -0.22600
N 	N 	0.41950 0.91220 0.37020 -0.08600
N 	N 	0.85030 0.73770 0.91540 -0.10400
N 	N 	0.17330 0.32880 0.29040 -0.12000
N 	N 	0.81670 0.55610 0.33100 -0.19700
N 	N 	0.51430 0.77490 0.33100 -0.19600
N 	N 	0.39830 0.02660 0.41840 -0.12900
N 	N 	0.37160 0.20520 0.44740 -0.10700
N 	N 	0.07580 0.24220 0.44740 -0.13000
N 	N 	0.26430 0.63280 0.93060 -0.11700
N 	N 	0.36710 0.18480 0.53200 -0.20000
N 	N 	0.51970 0.48390 0.18100 -0.20600
N 	N 	0.44390 0.48570 0.66900 -0.19700
N 	N 	0.54430 0.39270 0.10100 -0.09800
N 	N 	0.03840 0.82670 0.70960 -0.12600
