data_crystal

_cell_length_a 10.59000
_cell_length_b 22.78700
_cell_length_c 27.67500
_cell_angle_alpha 107.79000
_cell_angle_beta  90.00000
_cell_angle_gamma 90.00000

_symmetry_space_group_name_	'P 1'
_symmetry_space_group_name_H-M	'P 1'

loop_
_symmetry_equiv_pos_as_xyz
  x,y,z

loop_
_atom_site_label
_atom_site_type_symbol
_atom_site_fract_x
_atom_site_fract_y
_atom_site_fract_z
_atom_site_charge
Co	Co	0.80335 0.85206 0.14880 1.18500
Co	Co	0.19665 0.14794 0.85120 1.18500
Co	Co	0.40889 0.22256 0.93438 1.17100
Co	Co	0.66076 0.64747 0.26855 1.18000
Co	Co	0.58475 0.71125 0.83288 1.18500
Co	Co	0.59111 0.77744 0.06562 1.17100
Co	Co	0.69665 0.85206 0.64880 1.18500
Co	Co	0.69044 0.69886 0.14175 1.19100
Co	Co	0.29164 0.21948 0.24343 1.18000
Co	Co	0.20836 0.21948 0.74343 1.18000
Co	Co	0.79164 0.78052 0.25657 1.18000
Co	Co	0.91525 0.71125 0.33288 1.18500
Co	Co	0.83924 0.64747 0.76855 1.18100
Co	Co	0.19044 0.30114 0.35825 1.19200
Co	Co	0.33924 0.35253 0.73145 1.18100
Co	Co	0.90889 0.77744 0.56562 1.17200
Co	Co	0.80956 0.69886 0.64175 1.19200
Co	Co	0.09111 0.22256 0.43438 1.17200
Co	Co	0.30956 0.30114 0.85825 1.19200
Co	Co	0.41525 0.28875 0.16712 1.18600
Co	Co	0.30335 0.14794 0.35120 1.18600
Co	Co	0.70836 0.78052 0.75657 1.18100
Co	Co	0.08475 0.28875 0.66712 1.18600
Co	Co	0.16076 0.35253 0.23145 1.18100
H 	H 	0.83080 0.41040 0.39240 0.02400
H 	H 	0.61960 0.05870 0.92730 0.02800
H 	H 	0.57800 0.47000 0.17240 0.04800
H 	H 	0.93470 0.46730 0.04040 0.08100
H 	H 	0.53470 0.88790 0.38090 0.02900
H 	H 	0.50800 0.06860 0.46820 0.02200
H 	H 	0.23500 0.01800 0.08960 0.08000
H 	H 	0.93110 0.05710 0.04510 0.08100
H 	H 	0.70810 0.26530 0.72050 0.02800
H 	H 	0.92200 0.47000 0.67240 0.04800
H 	H 	0.46530 0.11210 0.61910 0.02900
H 	H 	0.00800 0.93140 0.03180 0.02300
H 	H 	0.78200 0.91590 0.83030 0.02700
H 	H 	0.88600 0.80200 0.65530 0.25700
H 	H 	0.88040 0.05870 0.42730 0.02900
H 	H 	0.33080 0.58960 0.10760 0.02400
H 	H 	0.38600 0.19800 0.84470 0.25700
H 	H 	0.95720 0.37270 0.52710 0.03600
H 	H 	0.43110 0.94290 0.45490 0.08200
H 	H 	0.07800 0.53000 0.32760 0.04800
H 	H 	0.26500 0.01800 0.58960 0.08000
H 	H 	0.43470 0.53270 0.45960 0.08200
H 	H 	0.54280 0.37270 0.02710 0.03600
H 	H 	0.56340 0.58500 0.52670 0.02400
H 	H 	0.98970 0.15350 0.27890 -0.00500
H 	H 	0.00460 0.00020 0.28370 0.04200
H 	H 	0.86500 0.67700 0.24130 0.27400
H 	H 	0.49540 0.00020 0.78370 0.04200
H 	H 	0.03470 0.11210 0.11910 0.03000
H 	H 	0.96530 0.88790 0.88090 0.03000
H 	H 	0.74320 0.80420 0.46160 0.02400
H 	H 	0.79190 0.26530 0.22050 0.02900
H 	H 	0.49200 0.93140 0.53180 0.02200
H 	H 	0.20810 0.73470 0.77950 0.02900
H 	H 	0.38040 0.94130 0.07270 0.02800
H 	H 	0.63500 0.67700 0.74130 0.27400
H 	H 	0.66920 0.41040 0.89240 0.02400
H 	H 	0.13500 0.32300 0.75870 0.27400
H 	H 	0.93660 0.58500 0.02670 0.02500
H 	H 	0.73790 0.66950 0.43770 0.02600
H 	H 	0.01030 0.84650 0.72110 -0.00500
H 	H 	0.99540 0.99980 0.71630 0.04200
H 	H 	0.56530 0.46730 0.54040 0.08200
H 	H 	0.54350 0.44940 0.61780 0.02700
H 	H 	0.16920 0.58960 0.60760 0.02400
H 	H 	0.36840 0.55640 0.62110 0.07900
H 	H 	0.86840 0.44360 0.87890 0.07900
H 	H 	0.62600 0.12280 0.24800 0.02200
H 	H 	0.53250 0.62470 0.64450 0.02200
H 	H 	0.30390 0.76040 0.63320 0.03600
H 	H 	0.43660 0.41500 0.47330 0.02400
H 	H 	0.82250 0.54580 0.56460 0.02700
H 	H 	0.61400 0.80200 0.15530 0.25700
H 	H 	0.76210 0.66950 0.93770 0.02600
H 	H 	0.61510 0.45560 0.00350 0.07200
H 	H 	0.13160 0.55640 0.12110 0.07900
H 	H 	0.31200 0.90220 0.22060 0.10300
H 	H 	0.67750 0.54580 0.06460 0.02700
H 	H 	0.17750 0.45420 0.43540 0.02700
H 	H 	0.63160 0.44360 0.37890 0.07900
H 	H 	0.88490 0.45560 0.50350 0.07200
H 	H 	0.42200 0.53000 0.82760 0.04800
H 	H 	0.32250 0.45420 0.93540 0.02700
H 	H 	0.51030 0.15350 0.77890 -0.00600
H 	H 	0.68800 0.09780 0.77940 0.10300
H 	H 	0.45650 0.55060 0.38220 0.02700
H 	H 	0.46750 0.37530 0.35550 0.02200
H 	H 	0.21800 0.08410 0.16970 0.02700
H 	H 	0.38490 0.54440 0.99650 0.07200
H 	H 	0.36500 0.32300 0.25870 0.27400
H 	H 	0.11400 0.19800 0.34470 0.25700
H 	H 	0.19610 0.76040 0.13320 0.03600
H 	H 	0.73500 0.98200 0.41040 0.08000
H 	H 	0.76500 0.98200 0.91040 0.08000
H 	H 	0.87400 0.12280 0.74800 0.02200
H 	H 	0.81200 0.09780 0.27940 0.10300
H 	H 	0.06530 0.53270 0.95960 0.08100
H 	H 	0.99200 0.06860 0.96820 0.02300
H 	H 	0.95650 0.44940 0.11780 0.02800
H 	H 	0.48970 0.84650 0.22110 -0.00600
H 	H 	0.12600 0.87720 0.25200 0.02200
H 	H 	0.11960 0.94130 0.57270 0.02900
H 	H 	0.56890 0.05710 0.54510 0.08200
H 	H 	0.29190 0.73470 0.27950 0.02800
H 	H 	0.45720 0.62730 0.97290 0.03600
H 	H 	0.23790 0.33050 0.06230 0.02600
H 	H 	0.03250 0.37530 0.85550 0.02200
H 	H 	0.75680 0.80420 0.96160 0.02500
H 	H 	0.37400 0.87720 0.75200 0.02200
H 	H 	0.50460 0.99980 0.21630 0.04200
H 	H 	0.04350 0.55060 0.88220 0.02800
H 	H 	0.69610 0.23960 0.36680 0.03600
H 	H 	0.96750 0.62470 0.14450 0.02200
H 	H 	0.80390 0.23960 0.86680 0.03600
H 	H 	0.06890 0.94290 0.95490 0.08100
H 	H 	0.18800 0.90220 0.72060 0.10300
H 	H 	0.28200 0.08410 0.66970 0.02800
H 	H 	0.11510 0.54440 0.49650 0.07200
H 	H 	0.25680 0.19580 0.53840 0.02400
H 	H 	0.71800 0.91590 0.33030 0.02800
H 	H 	0.06340 0.41500 0.97330 0.02500
H 	H 	0.26210 0.33050 0.56230 0.02600
H 	H 	0.04280 0.62730 0.47290 0.03600
H 	H 	0.24320 0.19580 0.03840 0.02500
C 	C 	0.20450 0.76860 0.76750 0.11400
C 	C 	0.16700 0.36940 0.01180 -0.13600
C 	C 	0.78520 0.32170 0.38220 -0.12800
C 	C 	0.42650 0.40910 0.50490 0.06600
C 	C 	0.44650 0.58890 0.89760 -0.11200
C 	C 	0.67810 0.64160 0.44200 0.08300
C 	C 	0.35500 0.48730 0.92630 0.03800
C 	C 	0.15810 0.14440 0.94710 0.39700
C 	C 	0.05750 0.11710 0.08820 0.05500
C 	C 	0.56610 0.30070 0.35820 -0.12600
C 	C 	0.92650 0.59090 0.99510 0.06300
C 	C 	0.54310 0.74450 0.65650 0.37000
C 	C 	0.93390 0.30070 0.85820 -0.12600
C 	C 	0.35530 0.59780 0.62440 -0.12100
C 	C 	0.44250 0.11710 0.58820 0.05800
C 	C 	0.16080 0.42450 0.33400 0.38700
C 	C 	0.65340 0.84270 0.41430 -0.12600
C 	C 	0.84660 0.84270 0.91430 -0.12500
C 	C 	0.58640 0.46660 0.13820 0.06000
C 	C 	0.12700 0.37200 0.14680 0.43800
C 	C 	0.30240 0.85330 0.75140 0.09600
C 	C 	0.00900 0.42930 0.09090 0.07000
C 	C 	0.56690 0.21570 0.21240 0.38900
C 	C 	0.87510 0.03110 0.39470 0.05700
C 	C 	0.69760 0.14670 0.24860 0.09600
C 	C 	0.85500 0.51270 0.57370 0.03800
C 	C 	0.40690 0.78240 0.24880 -0.17900
C 	C 	0.51800 0.74290 0.24520 0.40500
C 	C 	0.54660 0.36180 0.36210 0.05400
C 	C 	0.33920 0.42450 0.83400 0.38700
C 	C 	0.66410 0.90910 0.74580 0.34100
C 	C 	0.17810 0.35840 0.05800 0.08100
C 	C 	0.77070 0.80800 0.86730 0.38300
C 	C 	0.74610 0.66590 0.53330 0.40200
C 	C 	0.49100 0.42930 0.59090 0.07200
C 	C 	0.93310 0.21570 0.71240 0.39000
C 	C 	0.95690 0.74450 0.15650 0.37000
C 	C 	0.81720 0.83340 0.96040 0.07900
C 	C 	0.66700 0.63060 0.48820 -0.13700
C 	C 	0.94250 0.88290 0.91180 0.05500
C 	C 	0.75390 0.66590 0.03330 0.40100
C 	C 	0.12960 0.48430 0.37420 -0.12300
C 	C 	0.49590 0.91580 0.45610 -0.12900
C 	C 	0.50460 0.43990 0.54470 -0.13400
C 	C 	0.44690 0.09090 0.86980 0.37600
C 	C 	0.04660 0.63820 0.13790 0.05400
C 	C 	0.22140 0.05310 0.66300 0.05600
C 	C 	0.45690 0.25550 0.34350 0.37000
C 	C 	0.48200 0.25710 0.75480 0.40500
C 	C 	0.16410 0.09090 0.75420 0.34100
C 	C 	0.73570 0.38250 0.88470 0.05700
C 	C 	0.01800 0.25710 0.25480 0.40400
C 	C 	0.99540 0.43990 0.04470 -0.13200
C 	C 	0.80240 0.14670 0.74860 0.09700
C 	C 	0.05080 0.00290 0.69110 0.05300
C 	C 	0.72930 0.80800 0.36730 0.38400
C 	C 	0.00710 0.63990 0.37850 0.35300
C 	C 	0.71480 0.32170 0.88220 -0.12800
C 	C 	0.18280 0.16660 0.03960 0.07900
C 	C 	0.55350 0.41110 0.10240 -0.11200
C 	C 	0.10950 0.54110 0.46220 -0.10600
C 	C 	0.53120 0.90820 0.50200 0.07000
C 	C 	0.87040 0.51570 0.62580 -0.12300
C 	C 	0.87300 0.62800 0.85320 0.43800
C 	C 	0.83920 0.57550 0.66600 0.38700
C 	C 	0.68440 0.28070 0.36870 0.06800
C 	C 	0.76430 0.38250 0.38470 0.05700
C 	C 	0.05310 0.09090 0.36980 0.37500
C 	C 	0.34660 0.15730 0.58570 -0.12600
C 	C 	0.83590 0.90910 0.24580 0.34100
C 	C 	0.24610 0.33410 0.96670 0.40100
C 	C 	0.94650 0.41110 0.60240 -0.11200
C 	C 	0.55080 0.99710 0.80890 0.05400
C 	C 	0.80900 0.13150 0.26720 -0.16600
C 	C 	0.99290 0.36010 0.62150 0.35300
C 	C 	0.65810 0.85560 0.55290 0.39800
C 	C 	0.43310 0.78430 0.78760 0.38900
C 	C 	0.23570 0.61750 0.61530 0.05700
C 	C 	0.00460 0.56010 0.95530 -0.13200
C 	C 	0.44920 0.00290 0.19110 0.05400
C 	C 	0.37640 0.13330 0.49620 -0.14800
C 	C 	0.41350 0.83510 0.23230 0.10700
C 	C 	0.14470 0.59780 0.12440 -0.12100
C 	C 	0.99590 0.08420 0.04390 -0.12500
C 	C 	0.04310 0.25550 0.84350 0.37000
C 	C 	0.43480 0.59130 0.94780 0.04300
C 	C 	0.57350 0.59090 0.49510 0.06600
C 	C 	0.00410 0.91580 0.95610 -0.12500
C 	C 	0.69100 0.13150 0.76720 -0.16700
C 	C 	0.05350 0.58890 0.39760 -0.11200
C 	C 	0.08640 0.53340 0.36180 0.06000
C 	C 	0.62490 0.03110 0.89470 0.05700
C 	C 	0.64540 0.95110 0.79840 -0.11900
C 	C 	0.60950 0.45890 0.03780 -0.10600
C 	C 	0.07350 0.40910 0.00490 0.06300
C 	C 	0.85530 0.40220 0.87560 -0.12100
C 	C 	0.68280 0.83340 0.46040 0.08100
C 	C 	0.46880 0.09180 0.49800 0.07000
C 	C 	0.27070 0.19200 0.63270 0.38400
C 	C 	0.26430 0.61750 0.11530 0.05700
C 	C 	0.28800 0.01390 0.11520 -0.12000
C 	C 	0.29550 0.76860 0.26750 0.11500
C 	C 	0.19020 0.80270 0.26930 -0.15900
C 	C 	0.14500 0.48730 0.42630 0.03800
C 	C 	0.39890 0.38850 0.59750 -0.15000
C 	C 	0.27860 0.05310 0.16300 0.05600
C 	C 	0.50900 0.57070 0.40910 0.07200
C 	C 	0.99100 0.57070 0.90910 0.07000
C 	C 	0.70450 0.23140 0.73250 0.11500
C 	C 	0.87640 0.86670 0.00380 -0.14600
C 	C 	0.91350 0.16490 0.26770 0.10600
C 	C 	0.06690 0.78430 0.28760 0.39000
C 	C 	0.41360 0.53340 0.86180 0.06000
C 	C 	0.12360 0.13330 0.99620 -0.14600
C 	C 	0.03120 0.09180 0.99800 0.06700
C 	C 	0.37510 0.96890 0.10530 0.05700
C 	C 	0.09310 0.78240 0.74880 -0.17800
C 	C 	0.49540 0.56010 0.45530 -0.13400
C 	C 	0.37300 0.37200 0.64680 0.43800
C 	C 	0.59310 0.21760 0.75120 -0.17900
C 	C 	0.90690 0.21760 0.25120 -0.17800
C 	C 	0.06520 0.59130 0.44780 0.04300
C 	C 	0.30980 0.80270 0.76930 -0.15800
C 	C 	0.93480 0.40870 0.55220 0.04300
C 	C 	0.64470 0.40220 0.37560 -0.12100
C 	C 	0.95730 0.03750 0.35760 -0.11200
C 	C 	0.10110 0.38850 0.09750 -0.14800
C 	C 	0.58650 0.16490 0.76770 0.10700
C 	C 	0.55750 0.88290 0.41180 0.05800
C 	C 	0.33300 0.36940 0.51180 -0.13700
C 	C 	0.94920 0.99710 0.30890 0.05300
C 	C 	0.35460 0.04890 0.20160 -0.11900
C 	C 	0.22930 0.19200 0.13270 0.38300
C 	C 	0.06610 0.69930 0.14180 -0.12600
C 	C 	0.04270 0.96250 0.64240 -0.11200
C 	C 	0.37040 0.48430 0.87420 -0.12300
C 	C 	0.72140 0.94690 0.83700 0.05600
C 	C 	0.82190 0.64160 0.94200 0.08100
C 	C 	0.80980 0.19730 0.73070 -0.15900
C 	C 	0.45340 0.63820 0.63790 0.05400
C 	C 	0.18440 0.71930 0.13130 0.06800
C 	C 	0.25390 0.33410 0.46670 0.40200
C 	C 	0.94690 0.90910 0.63020 0.37500
C 	C 	0.21480 0.67830 0.61780 -0.12800
C 	C 	0.45730 0.96250 0.14240 -0.11300
C 	C 	0.21200 0.01390 0.61520 -0.12000
C 	C 	0.62700 0.62800 0.35320 0.43800
C 	C 	0.33590 0.09090 0.25420 0.34100
C 	C 	0.84190 0.85560 0.05290 0.39700
C 	C 	0.78800 0.98610 0.38480 -0.12000
C 	C 	0.98200 0.74290 0.74520 0.40400
C 	C 	0.30900 0.86850 0.23280 -0.16700
C 	C 	0.54270 0.03750 0.85760 -0.11300
C 	C 	0.39050 0.54110 0.96220 -0.10600
C 	C 	0.55310 0.90910 0.13020 0.37600
C 	C 	0.91360 0.46660 0.63820 0.06000
C 	C 	0.32190 0.35840 0.55800 0.08300
C 	C 	0.81560 0.28070 0.86870 0.06800
C 	C 	0.12490 0.96890 0.60530 0.05700
C 	C 	0.91550 0.30020 0.39090 0.38800
C 	C 	0.62360 0.86670 0.50380 -0.14800
C 	C 	0.08650 0.83510 0.73230 0.10600
C 	C 	0.50710 0.36010 0.12150 0.35300
C 	C 	0.14540 0.04890 0.70160 -0.11900
C 	C 	0.60110 0.61150 0.40250 -0.15000
C 	C 	0.50410 0.08420 0.54390 -0.12900
C 	C 	0.89050 0.45890 0.53780 -0.10600
C 	C 	0.89890 0.61150 0.90250 -0.14800
C 	C 	0.28520 0.67830 0.11780 -0.12800
C 	C 	0.15340 0.15730 0.08570 -0.12500
C 	C 	0.66080 0.57550 0.16600 0.38700
C 	C 	0.85460 0.95110 0.29840 -0.11900
C 	C 	0.34190 0.14440 0.44710 0.39800
C 	C 	0.19760 0.85330 0.25140 0.09700
C 	C 	0.58450 0.30020 0.89090 0.38800
C 	C 	0.56520 0.40870 0.05220 0.04300
C 	C 	0.41550 0.69980 0.10910 0.38800
C 	C 	0.79550 0.23140 0.23250 0.11400
C 	C 	0.31720 0.16660 0.53960 0.08100
C 	C 	0.69020 0.19730 0.23070 -0.15800
C 	C 	0.08450 0.69980 0.60910 0.38800
C 	C 	0.96880 0.90820 0.00200 0.06700
C 	C 	0.83300 0.63060 0.98820 -0.13600
C 	C 	0.77860 0.94690 0.33700 0.05600
C 	C 	0.95340 0.36180 0.86210 0.05400
C 	C 	0.19100 0.86850 0.73280 -0.16600
C 	C 	0.62960 0.51570 0.12580 -0.12300
C 	C 	0.64500 0.51270 0.07370 0.03800
C 	C 	0.71200 0.98610 0.88480 -0.12000
C 	C 	0.43390 0.69930 0.64180 -0.12600
C 	C 	0.31560 0.71930 0.63130 0.06800
C 	C 	0.49290 0.63990 0.87850 0.35300
O 	O 	0.69270 0.80960 0.32530 -0.43400
O 	O 	0.11050 0.07880 0.79130 -0.36300
O 	O 	0.13460 0.42540 0.28880 -0.44300
O 	O 	0.96010 0.79260 0.14310 -0.40200
O 	O 	0.19270 0.19040 0.17470 -0.43400
O 	O 	0.23140 0.13940 0.76310 -0.47100
O 	O 	0.50660 0.30680 0.09210 -0.33800
O 	O 	0.92540 0.25510 0.68920 -0.43200
O 	O 	0.76860 0.86060 0.23690 -0.47100
O 	O 	0.26860 0.13940 0.26310 -0.47100
O 	O 	0.85460 0.91500 0.65860 -0.40700
O 	O 	0.97740 0.86430 0.59230 -0.44500
O 	O 	0.49360 0.32530 0.87710 -0.44300
O 	O 	0.64540 0.91500 0.15860 -0.40800
O 	O 	0.03990 0.20740 0.85690 -0.40200
O 	O 	0.61760 0.75100 0.22160 -0.53600
O 	O 	0.11720 0.11220 0.90580 -0.39900
O 	O 	0.99340 0.30680 0.59210 -0.33800
O 	O 	0.47350 0.37210 0.16610 -0.42600
O 	O 	0.88280 0.88780 0.09420 -0.39900
O 	O 	0.38950 0.07880 0.29130 -0.36300
O 	O 	0.77210 0.81090 0.05060 -0.46100
O 	O 	0.88950 0.92120 0.20870 -0.36300
O 	O 	0.18040 0.30660 0.73260 -0.81300
O 	O 	0.66060 0.69400 0.02340 -0.44300
O 	O 	0.52650 0.62790 0.83390 -0.42600
O 	O 	0.73140 0.86060 0.73690 -0.47100
O 	O 	0.83940 0.69400 0.52340 -0.44400
O 	O 	0.96760 0.81050 0.27990 -0.45000
O 	O 	0.88240 0.75100 0.72160 -0.53600
O 	O 	0.97350 0.62790 0.33390 -0.42600
O 	O 	0.63460 0.57460 0.21120 -0.44200
O 	O 	0.67130 0.78200 0.87690 -0.45400
O 	O 	0.49340 0.69320 0.90790 -0.33800
O 	O 	0.92180 0.25960 0.41340 -0.41500
O 	O 	0.32870 0.21620 0.86560 -0.78300
O 	O 	0.00640 0.32530 0.37710 -0.44300
O 	O 	0.02650 0.37210 0.66610 -0.42600
O 	O 	0.11760 0.24900 0.27840 -0.53600
O 	O 	0.99360 0.67470 0.62290 -0.44300
O 	O 	0.71830 0.61800 0.15710 -0.46200
O 	O 	0.04310 0.40650 0.18320 -0.32000
O 	O 	0.72790 0.81090 0.55060 -0.46100
O 	O 	0.45690 0.40650 0.68320 -0.32000
O 	O 	0.50640 0.67470 0.12290 -0.44300
O 	O 	0.98670 0.70170 0.76710 -0.43600
O 	O 	0.46010 0.20740 0.35690 -0.40100
O 	O 	0.68040 0.69340 0.76740 -0.81300
O 	O 	0.53990 0.79260 0.64310 -0.40100
O 	O 	0.07460 0.74490 0.31080 -0.43200
O 	O 	0.28580 0.33670 0.42440 -0.43700
O 	O 	0.95690 0.59350 0.81680 -0.32000
O 	O 	0.82870 0.78200 0.37690 -0.45400
O 	O 	0.46760 0.18950 0.22010 -0.45000
O 	O 	0.21420 0.33670 0.92440 -0.43700
O 	O 	0.33940 0.30600 0.97660 -0.44300
O 	O 	0.57460 0.25510 0.18920 -0.43200
O 	O 	0.27210 0.18910 0.44940 -0.46100
O 	O 	0.48670 0.29830 0.73290 -0.43600
O 	O 	0.82870 0.78380 0.63440 -0.78300
O 	O 	0.17130 0.21800 0.62310 -0.45400
O 	O 	0.13350 0.27020 0.81880 -0.52400
O 	O 	0.35460 0.08500 0.84140 -0.40800
O 	O 	0.42540 0.74490 0.81080 -0.43200
O 	O 	0.22790 0.18910 0.94940 -0.46100
O 	O 	0.52260 0.86430 0.09230 -0.44500
O 	O 	0.42180 0.74040 0.08660 -0.41500
O 	O 	0.78580 0.66330 0.07560 -0.43700
O 	O 	0.61050 0.92120 0.70870 -0.36300
O 	O 	0.31960 0.30660 0.23260 -0.81300
O 	O 	0.63350 0.72980 0.68120 -0.52400
O 	O 	0.36540 0.42540 0.78880 -0.44200
O 	O 	0.47740 0.13570 0.90770 -0.44500
O 	O 	0.80730 0.80960 0.82530 -0.43400
O 	O 	0.07820 0.74040 0.58660 -0.41500
O 	O 	0.30730 0.19040 0.67470 -0.43400
O 	O 	0.36650 0.27020 0.31880 -0.52400
O 	O 	0.28170 0.38200 0.84290 -0.46200
O 	O 	0.00660 0.69320 0.40790 -0.33800
O 	O 	0.53240 0.81050 0.77990 -0.45000
O 	O 	0.54310 0.59350 0.31680 -0.32000
O 	O 	0.51330 0.70170 0.26710 -0.43600
O 	O 	0.32870 0.21800 0.12310 -0.45400
O 	O 	0.80990 0.65990 0.84490 -0.54300
O 	O 	0.86650 0.72980 0.18120 -0.52400
O 	O 	0.14540 0.08500 0.34140 -0.40700
O 	O 	0.78170 0.61800 0.65710 -0.46200
O 	O 	0.21830 0.38200 0.34290 -0.46200
O 	O 	0.16060 0.30600 0.47660 -0.44400
O 	O 	0.69010 0.65990 0.34490 -0.54300
O 	O 	0.81960 0.69340 0.26740 -0.81300
O 	O 	0.71420 0.66330 0.57560 -0.43700
O 	O 	0.67130 0.78380 0.13440 -0.78300
O 	O 	0.57820 0.25960 0.91340 -0.41500
O 	O 	0.30990 0.34010 0.65510 -0.54300
O 	O 	0.38240 0.24900 0.77840 -0.53600
O 	O 	0.02260 0.13570 0.40770 -0.44500
O 	O 	0.17130 0.21620 0.36560 -0.78300
O 	O 	0.03240 0.18950 0.72010 -0.45000
O 	O 	0.19010 0.34010 0.15510 -0.54300
O 	O 	0.86540 0.57460 0.71120 -0.44300
O 	O 	0.61720 0.88780 0.59420 -0.39900
O 	O 	0.38280 0.11220 0.40580 -0.39900
O 	O 	0.01330 0.29830 0.23290 -0.43600
