data_crystal

_cell_length_a 10.97090
_cell_length_b 10.97090
_cell_length_c 35.31400
_cell_angle_alpha 90.00000
_cell_angle_beta  90.00000
_cell_angle_gamma 120.00000

_symmetry_space_group_name_	'P 1'
_symmetry_space_group_name_H-M	'P 1'

loop_
_symmetry_equiv_pos_as_xyz
  x,y,z

loop_
_atom_site_label
_atom_site_type_symbol
_atom_site_fract_x
_atom_site_fract_y
_atom_site_fract_z
_atom_site_charge
N 	N 	0.95620 0.68520 0.07354 -0.07800
N 	N 	0.93170 0.81930 0.03390 -0.14600
N 	N 	0.82210 0.77080 0.05940 -0.09300
C 	C 	0.01010 0.76700 0.04264 0.05100
H 	H 	0.09070 0.78310 0.02970 0.02800
C 	C 	0.84130 0.69210 0.08277 0.10300
H 	H 	0.78330 0.64610 0.10330 0.02100
N 	N 	0.62287 0.01853 0.40687 -0.10900
N 	N 	0.59837 0.15263 0.36723 -0.17700
N 	N 	0.48877 0.10413 0.39273 -0.09200
C 	C 	0.67677 0.10033 0.37597 0.10300
H 	H 	0.75737 0.11643 0.36303 0.00900
C 	C 	0.50797 0.02543 0.41610 0.04600
H 	H 	0.44997 0.97943 0.43663 0.05500
N 	N 	0.28953 0.35187 0.74021 -0.10800
N 	N 	0.26503 0.48597 0.70057 -0.17700
N 	N 	0.15543 0.43747 0.72607 -0.10200
C 	C 	0.34343 0.43367 0.70931 0.10200
H 	H 	0.42403 0.44977 0.69637 0.01000
C 	C 	0.17463 0.35877 0.74944 0.09500
H 	H 	0.11663 0.31277 0.76997 0.00900
N 	N 	0.31480 0.27100 0.07354 -0.10700
N 	N 	0.18070 0.11240 0.03390 -0.18400
N 	N 	0.22920 0.05130 0.05940 -0.10700
C 	C 	0.23300 0.24310 0.04264 0.10000
H 	H 	0.21690 0.30760 0.02970 0.00400
C 	C 	0.30790 0.14920 0.08277 0.09600
H 	H 	0.35390 0.13720 0.10330 0.01200
N 	N 	0.98147 0.60433 0.40687 -0.10200
N 	N 	0.84737 0.44573 0.36723 -0.17500
N 	N 	0.89587 0.38463 0.39273 -0.10200
C 	C 	0.89967 0.57643 0.37597 0.10600
H 	H 	0.88357 0.64093 0.36303 0.01600
C 	C 	0.97457 0.48253 0.41610 0.15200
H 	H 	0.02057 0.47053 0.43663 -0.01800
N 	N 	0.64813 0.93767 0.74021 -0.09400
N 	N 	0.51403 0.77907 0.70057 -0.17500
N 	N 	0.56253 0.71797 0.72607 -0.09600
C 	C 	0.56633 0.90977 0.70931 0.10700
H 	H 	0.55023 0.97427 0.69637 0.01700
C 	C 	0.64123 0.81587 0.74944 0.10100
H 	H 	0.68723 0.80387 0.76997 0.02400
N 	N 	0.72900 0.04380 0.07354 -0.13200
N 	N 	0.88760 0.06830 0.03390 -0.19300
N 	N 	0.94870 0.17790 0.05940 -0.09000
C 	C 	0.75690 0.98990 0.04264 0.16000
H 	H 	0.69240 0.90930 0.02970 -0.00700
C 	C 	0.85080 0.15870 0.08277 0.09600
H 	H 	0.86280 0.21670 0.10330 0.02200
N 	N 	0.39567 0.37713 0.40687 -0.10700
N 	N 	0.55427 0.40163 0.36723 -0.17700
N 	N 	0.61537 0.51123 0.39273 -0.09600
C 	C 	0.42357 0.32323 0.37597 0.10400
H 	H 	0.35907 0.24263 0.36303 0.00400
C 	C 	0.51747 0.49203 0.41610 0.09900
H 	H 	0.52947 0.55003 0.43663 0.01900
N 	N 	0.06233 0.71047 0.74021 -0.11700
N 	N 	0.22093 0.73497 0.70057 -0.17700
N 	N 	0.28203 0.84457 0.72607 -0.09300
C 	C 	0.09023 0.65657 0.70931 0.10300
H 	H 	0.02573 0.57597 0.69637 0.00200
C 	C 	0.18413 0.82537 0.74944 0.09900
H 	H 	0.19613 0.88337 0.76997 0.02200
N 	N 	0.68520 0.95620 0.42646 -0.07900
N 	N 	0.81930 0.93170 0.46610 -0.14600
N 	N 	0.77080 0.82210 0.44060 -0.09300
C 	C 	0.76700 0.01010 0.45736 0.05100
H 	H 	0.78310 0.09070 0.47030 0.03000
C 	C 	0.69210 0.84130 0.41723 0.10400
H 	H 	0.64610 0.78330 0.39670 0.02100
N 	N 	0.35187 0.28953 0.75979 -0.10800
N 	N 	0.48597 0.26503 0.79943 -0.17700
N 	N 	0.43747 0.15543 0.77393 -0.10200
C 	C 	0.43367 0.34343 0.79069 0.10200
H 	H 	0.44977 0.42403 0.80363 0.01000
C 	C 	0.35877 0.17463 0.75056 0.09500
H 	H 	0.31277 0.11663 0.73003 0.00900
N 	N 	0.01853 0.62287 0.09313 -0.10900
N 	N 	0.15263 0.59837 0.13277 -0.17700
N 	N 	0.10413 0.48877 0.10727 -0.09200
C 	C 	0.10033 0.67677 0.12403 0.10300
H 	H 	0.11643 0.75737 0.13697 0.00900
C 	C 	0.02543 0.50797 0.08390 0.04500
H 	H 	0.97943 0.44997 0.06337 0.05400
N 	N 	0.27100 0.31480 0.42646 -0.10700
N 	N 	0.11240 0.18070 0.46610 -0.18300
N 	N 	0.05130 0.22920 0.44060 -0.10600
C 	C 	0.24310 0.23300 0.45736 0.10100
H 	H 	0.30760 0.21690 0.47030 0.00600
C 	C 	0.14920 0.30790 0.41723 0.09600
H 	H 	0.13720 0.35390 0.39670 0.01200
N 	N 	0.93767 0.64813 0.75979 -0.09400
N 	N 	0.77907 0.51403 0.79943 -0.17500
N 	N 	0.71797 0.56253 0.77393 -0.09600
C 	C 	0.90977 0.56633 0.79069 0.10700
H 	H 	0.97427 0.55023 0.80363 0.01700
C 	C 	0.81587 0.64123 0.75056 0.10100
H 	H 	0.80387 0.68723 0.73003 0.02400
N 	N 	0.60433 0.98147 0.09313 -0.10300
N 	N 	0.44573 0.84737 0.13277 -0.17500
N 	N 	0.38463 0.89587 0.10727 -0.10200
C 	C 	0.57643 0.89967 0.12403 0.10600
H 	H 	0.64093 0.88357 0.13697 0.01600
C 	C 	0.48253 0.97457 0.08390 0.15100
H 	H 	0.47053 0.02057 0.06337 -0.01900
N 	N 	0.04380 0.72900 0.42646 -0.13200
N 	N 	0.06830 0.88760 0.46610 -0.19200
N 	N 	0.17790 0.94870 0.44060 -0.08900
C 	C 	0.98990 0.75690 0.45736 0.16100
H 	H 	0.90930 0.69240 0.47030 -0.00500
C 	C 	0.15870 0.85080 0.41723 0.09600
H 	H 	0.21670 0.86280 0.39670 0.02200
N 	N 	0.71047 0.06233 0.75979 -0.11700
N 	N 	0.73497 0.22093 0.79943 -0.17700
N 	N 	0.84457 0.28203 0.77393 -0.09300
C 	C 	0.65657 0.09023 0.79069 0.10300
H 	H 	0.57597 0.02573 0.80363 0.00200
C 	C 	0.82537 0.18413 0.75056 0.09900
H 	H 	0.88337 0.19613 0.73003 0.02200
N 	N 	0.37713 0.39567 0.09313 -0.10700
N 	N 	0.40163 0.55427 0.13277 -0.17700
N 	N 	0.51123 0.61537 0.10727 -0.09600
C 	C 	0.32323 0.42357 0.12403 0.10400
H 	H 	0.24263 0.35907 0.13697 0.00400
C 	C 	0.49203 0.51747 0.08390 0.09800
H 	H 	0.55003 0.52947 0.06337 0.01800
N 	N 	0.04380 0.31480 0.92646 -0.13500
N 	N 	0.06830 0.18070 0.96610 -0.20100
N 	N 	0.17790 0.22920 0.94060 -0.09900
C 	C 	0.98990 0.23300 0.95736 0.16400
H 	H 	0.90930 0.21690 0.97030 -0.00900
C 	C 	0.15870 0.30790 0.91723 0.09400
H 	H 	0.21670 0.35390 0.89670 0.01600
N 	N 	0.71047 0.64813 0.25979 -0.10500
N 	N 	0.73497 0.51403 0.29943 -0.17600
N 	N 	0.84457 0.56253 0.27393 -0.09200
C 	C 	0.65657 0.56633 0.29069 0.10600
H 	H 	0.57597 0.55023 0.30363 0.00900
C 	C 	0.82537 0.64123 0.25056 0.10200
H 	H 	0.88337 0.68723 0.23003 0.02700
N 	N 	0.37713 0.98147 0.59313 -0.10200
N 	N 	0.40163 0.84737 0.63277 -0.17600
N 	N 	0.51123 0.89587 0.60727 -0.10100
C 	C 	0.32323 0.89967 0.62403 0.10600
H 	H 	0.24263 0.88357 0.63697 0.01100
C 	C 	0.49203 0.97457 0.58390 0.15100
H 	H 	0.55003 0.02057 0.56337 -0.01700
N 	N 	0.68520 0.72900 0.92646 -0.10500
N 	N 	0.81930 0.88760 0.96610 -0.16300
N 	N 	0.77080 0.94870 0.94060 -0.08700
C 	C 	0.76700 0.75690 0.95736 0.10800
H 	H 	0.78310 0.69240 0.97030 0.01600
C 	C 	0.69210 0.85080 0.91723 0.10100
H 	H 	0.64610 0.86280 0.89670 0.02500
N 	N 	0.35187 0.06233 0.25979 -0.11900
N 	N 	0.48597 0.22093 0.29943 -0.17700
N 	N 	0.43747 0.28203 0.27393 -0.09800
C 	C 	0.43367 0.09023 0.29069 0.10100
H 	H 	0.44977 0.02573 0.30363 0.00200
C 	C 	0.35877 0.18413 0.25056 0.09600
H 	H 	0.31277 0.19613 0.23003 0.01200
N 	N 	0.01853 0.39567 0.59313 -0.11100
N 	N 	0.15263 0.55427 0.63277 -0.17800
N 	N 	0.10413 0.61537 0.60727 -0.09100
C 	C 	0.10033 0.42357 0.62403 0.10300
H 	H 	0.11643 0.35907 0.63697 0.00300
C 	C 	0.02543 0.51747 0.58390 0.04700
H 	H 	0.97943 0.52947 0.56337 0.05500
N 	N 	0.27100 0.95620 0.92646 -0.07800
N 	N 	0.11240 0.93170 0.96610 -0.15000
N 	N 	0.05130 0.82210 0.94060 -0.10200
C 	C 	0.24310 0.01010 0.95736 0.04200
H 	H 	0.30760 0.09070 0.97030 0.02900
C 	C 	0.14920 0.84130 0.91723 0.10200
H 	H 	0.13720 0.78330 0.89670 0.01500
N 	N 	0.93767 0.28953 0.25979 -0.09500
N 	N 	0.77907 0.26503 0.29943 -0.17600
N 	N 	0.71797 0.15543 0.27393 -0.10000
C 	C 	0.90977 0.34343 0.29069 0.10500
H 	H 	0.97427 0.42403 0.30363 0.01800
C 	C 	0.81587 0.17463 0.25056 0.09800
H 	H 	0.80387 0.11663 0.23003 0.01600
N 	N 	0.60433 0.62287 0.59313 -0.10500
N 	N 	0.44573 0.59837 0.63277 -0.17600
N 	N 	0.38463 0.48877 0.60727 -0.09700
C 	C 	0.57643 0.67677 0.62403 0.10500
H 	H 	0.64093 0.75737 0.63697 0.01500
C 	C 	0.48253 0.50797 0.58390 0.09900
H 	H 	0.47053 0.44997 0.56337 0.01800
N 	N 	0.31480 0.04380 0.57354 -0.13500
N 	N 	0.18070 0.06830 0.53390 -0.20300
N 	N 	0.22920 0.17790 0.55940 -0.09900
C 	C 	0.23300 0.98990 0.54264 0.16400
H 	H 	0.21690 0.90930 0.52970 -0.01100
C 	C 	0.30790 0.15870 0.58277 0.09300
H 	H 	0.35390 0.21670 0.60330 0.01600
N 	N 	0.98147 0.37713 0.90687 -0.10200
N 	N 	0.84737 0.40163 0.86723 -0.17500
N 	N 	0.89587 0.51123 0.89273 -0.10100
C 	C 	0.89967 0.32323 0.87597 0.10600
H 	H 	0.88357 0.24263 0.86303 0.01100
C 	C 	0.97457 0.49203 0.91610 0.15000
H 	H 	0.02057 0.55003 0.93663 -0.01600
N 	N 	0.64813 0.71047 0.24021 -0.10500
N 	N 	0.51403 0.73497 0.20057 -0.17600
N 	N 	0.56253 0.84457 0.22607 -0.09200
C 	C 	0.56633 0.65657 0.20931 0.10600
H 	H 	0.55023 0.57597 0.19637 0.00900
C 	C 	0.64123 0.82537 0.24944 0.10200
H 	H 	0.68723 0.88337 0.26997 0.02700
N 	N 	0.72900 0.68520 0.57354 -0.10500
N 	N 	0.88760 0.81930 0.53390 -0.16500
N 	N 	0.94870 0.77080 0.55940 -0.08700
C 	C 	0.75690 0.76700 0.54264 0.10700
H 	H 	0.69240 0.78310 0.52970 0.01400
C 	C 	0.85080 0.69210 0.58277 0.10100
H 	H 	0.86280 0.64610 0.60330 0.02500
N 	N 	0.39567 0.01853 0.90687 -0.11000
N 	N 	0.55427 0.15263 0.86723 -0.17800
N 	N 	0.61537 0.10413 0.89273 -0.09100
C 	C 	0.42357 0.10033 0.87597 0.10300
H 	H 	0.35907 0.11643 0.86303 0.00300
C 	C 	0.51747 0.02543 0.91610 0.04700
H 	H 	0.52947 0.97943 0.93663 0.05600
N 	N 	0.06233 0.35187 0.24021 -0.11900
N 	N 	0.22093 0.48597 0.20057 -0.17700
N 	N 	0.28203 0.43747 0.22607 -0.09800
C 	C 	0.09023 0.43367 0.20931 0.10100
H 	H 	0.02573 0.44977 0.19637 0.00200
C 	C 	0.18413 0.35877 0.24944 0.09600
H 	H 	0.19613 0.31277 0.26997 0.01200
N 	N 	0.95620 0.27100 0.57354 -0.07800
N 	N 	0.93170 0.11240 0.53390 -0.15200
N 	N 	0.82210 0.05130 0.55940 -0.10200
C 	C 	0.01010 0.24310 0.54264 0.04200
H 	H 	0.09070 0.30760 0.52970 0.02700
C 	C 	0.84130 0.14920 0.58277 0.10200
H 	H 	0.78330 0.13720 0.60330 0.01500
N 	N 	0.62287 0.60433 0.90687 -0.10500
N 	N 	0.59837 0.44573 0.86723 -0.17600
N 	N 	0.48877 0.38463 0.89273 -0.09700
C 	C 	0.67677 0.57643 0.87597 0.10500
H 	H 	0.75737 0.64093 0.86303 0.01400
C 	C 	0.50797 0.48253 0.91610 0.09900
H 	H 	0.44997 0.47053 0.93663 0.01900
N 	N 	0.28953 0.93767 0.24021 -0.09500
N 	N 	0.26503 0.77907 0.20057 -0.17600
N 	N 	0.15543 0.71797 0.22607 -0.10000
C 	C 	0.34343 0.90977 0.20931 0.10500
H 	H 	0.42403 0.97427 0.19637 0.01700
C 	C 	0.17463 0.81587 0.24944 0.09800
H 	H 	0.11663 0.80387 0.26997 0.01600
Cu	Cu	-0.00000 0.00000 -0.00000 0.86200
Cu	Cu	0.66667 0.33333 0.33333 0.88900
Cu	Cu	0.33333 0.66667 0.66667 0.88900
Cu	Cu	-0.00000 0.00000 0.50000 0.86500
Cu	Cu	0.66667 0.33333 0.83333 0.88900
Cu	Cu	0.33333 0.66667 0.16667 0.88900
