data_crystal

_cell_length_a 13.06280
_cell_length_b 13.06280
_cell_length_c 13.52200
_cell_angle_alpha 90.00000
_cell_angle_beta  90.00000
_cell_angle_gamma 120.00000

_symmetry_space_group_name_	'P 1'
_symmetry_space_group_name_H-M	'P 1'

loop_
_symmetry_equiv_pos_as_xyz
  x,y,z

loop_
_atom_site_label
_atom_site_type_symbol
_atom_site_fract_x
_atom_site_fract_y
_atom_site_fract_z
_atom_site_charge
Cd	Cd	0.66667 0.33334 0.10095 1.10000
Cd	Cd	0.66667 0.33334 0.39905 1.14700
Cd	Cd	0.50000 0.50000 0.50000 1.17200
Cd	Cd	0.33333 0.66666 0.89905 1.19900
Cd	Cd	0.50000 0.50000 -0.00000 1.11600
Cd	Cd	0.00000 0.50000 0.50000 1.15200
Cd	Cd	0.50000 -0.00000 0.50000 1.15000
Cd	Cd	0.33333 0.66666 0.60095 1.15000
Cd	Cd	-0.00000 0.50000 -0.00000 1.10000
Cd	Cd	0.50000 0.00000 -0.00000 1.09200
H 	H 	0.96700 0.25800 0.13850 0.13500
H 	H 	0.20830 0.04350 0.66690 0.11300
H 	H 	0.83520 0.04350 0.83310 0.13700
H 	H 	0.95650 0.16480 0.66690 0.11200
H 	H 	0.74200 0.70900 0.36150 0.12000
H 	H 	0.41190 0.82380 0.19490 0.13100
H 	H 	0.20830 0.16480 0.66690 0.10500
H 	H 	0.79170 0.95650 0.16690 0.11200
H 	H 	0.70900 0.96700 0.86150 0.20400
H 	H 	0.29100 0.25800 0.13850 0.08000
H 	H 	0.58810 0.17620 0.80510 0.11800
H 	H 	0.70900 0.96700 0.63850 0.17900
H 	H 	0.95650 0.79170 0.83310 0.13700
H 	H 	0.29100 0.25800 0.36150 0.10700
H 	H 	0.25800 0.96700 0.86150 0.19600
H 	H 	0.79170 0.95650 0.33310 0.12400
H 	H 	0.41190 0.82380 0.30510 0.13200
H 	H 	0.95650 0.16480 0.83310 0.12400
H 	H 	0.74200 0.70900 0.13850 0.09300
H 	H 	0.25800 0.96700 0.63850 0.17300
H 	H 	0.04350 0.20830 0.33310 0.11000
H 	H 	0.96700 0.25800 0.36150 0.16500
H 	H 	0.70900 0.74200 0.63850 0.12300
H 	H 	0.04350 0.20830 0.16690 0.09800
H 	H 	0.03300 0.29100 0.63850 0.05800
H 	H 	0.16480 0.20830 0.16690 0.09100
H 	H 	0.58810 0.41190 0.80510 0.12600
H 	H 	0.41190 0.58810 0.30510 0.12100
H 	H 	0.82380 0.41190 0.80510 0.13600
H 	H 	0.03300 0.74200 0.86150 0.09000
H 	H 	0.96700 0.70900 0.36150 0.17100
H 	H 	0.70900 0.74200 0.86150 0.15200
H 	H 	0.29100 0.03300 0.36150 0.04700
H 	H 	0.25800 0.29100 0.86150 0.14100
H 	H 	0.03300 0.29100 0.86150 0.08600
H 	H 	0.16480 0.95650 0.33310 0.11100
H 	H 	0.83520 0.79170 0.66690 0.13400
H 	H 	0.17620 0.58810 0.30510 0.11300
H 	H 	0.41190 0.58810 0.19490 0.11900
H 	H 	0.20830 0.04350 0.83310 0.12300
H 	H 	0.58810 0.41190 0.69490 0.12100
H 	H 	0.04350 0.83520 0.16690 0.11400
H 	H 	0.79170 0.83520 0.16690 0.12000
H 	H 	0.03300 0.74200 0.63850 0.06400
H 	H 	0.74200 0.03300 0.13850 0.02200
H 	H 	0.25800 0.29100 0.63850 0.11100
H 	H 	0.74200 0.03300 0.36150 0.05300
H 	H 	0.79170 0.83520 0.33310 0.13200
H 	H 	0.04350 0.83520 0.33310 0.12500
H 	H 	0.82380 0.41190 0.69490 0.13100
H 	H 	0.20830 0.16480 0.83310 0.11700
H 	H 	0.83520 0.04350 0.66690 0.12600
H 	H 	0.58810 0.17620 0.69490 0.11200
H 	H 	0.16480 0.95650 0.16690 0.10000
H 	H 	0.29100 0.03300 0.13850 0.01600
H 	H 	0.96700 0.70900 0.13850 0.14200
H 	H 	0.83520 0.79170 0.83310 0.14500
H 	H 	0.17620 0.58810 0.19490 0.11100
H 	H 	0.16480 0.20830 0.33310 0.10300
H 	H 	0.95650 0.79170 0.66690 0.12600
C 	C 	0.22330 0.34990 0.08590 0.05100
C 	C 	0.65010 0.87340 0.41410 0.08600
C 	C 	0.50800 0.49200 0.75000 0.18700
C 	C 	0.49200 0.50800 0.25000 0.18600
C 	C 	0.77670 0.12660 0.91410 0.11100
C 	C 	0.12660 0.77670 0.41410 0.08400
C 	C 	0.65010 0.77670 0.08590 0.06200
C 	C 	0.65010 0.77670 0.41410 0.08700
C 	C 	0.34990 0.12660 0.58590 0.07800
C 	C 	0.98400 0.49200 0.75000 0.29000
C 	C 	0.87340 0.22330 0.91410 0.10900
C 	C 	0.01600 0.50800 0.25000 0.09200
C 	C 	0.12660 0.77670 0.08590 0.06000
C 	C 	0.65010 0.87340 0.08590 0.06000
C 	C 	0.22330 0.34990 0.41410 0.07700
C 	C 	0.77670 0.65010 0.58590 0.08700
C 	C 	0.12660 0.34990 0.41410 0.07900
C 	C 	0.77670 0.12660 0.58590 0.08300
C 	C 	0.22330 0.87340 0.41410 0.08100
C 	C 	0.87340 0.65010 0.91410 0.11200
C 	C 	0.34990 0.22330 0.58590 0.07700
C 	C 	0.49200 0.98400 0.25000 0.30500
C 	C 	0.87340 0.22330 0.58590 0.08100
C 	C 	0.87340 0.65010 0.58590 0.08600
C 	C 	0.34990 0.12660 0.91410 0.10600
C 	C 	0.34990 0.22330 0.91410 0.10500
C 	C 	0.12660 0.34990 0.08590 0.05300
C 	C 	0.22330 0.87340 0.08590 0.05700
C 	C 	0.77670 0.65010 0.91410 0.11400
C 	C 	0.50800 0.01600 0.75000 0.08500
N 	N 	0.44290 0.14050 0.96720 -0.19000
N 	N 	0.83740 0.41870 0.20540 -0.20400
N 	N 	0.58130 0.41870 0.20540 -0.20700
N 	N 	0.77300 0.73900 0.63700 -0.29700
N 	N 	0.30240 0.44290 0.46720 -0.22200
N 	N 	0.96600 0.73900 0.63700 -0.23700
N 	N 	0.43090 0.56910 0.25000 -0.31900
N 	N 	0.24860 0.75140 0.00080 -0.23400
N 	N 	0.47520 0.52480 0.66800 -0.24300
N 	N 	0.16260 0.58130 0.70540 -0.18800
N 	N 	0.56910 0.13820 0.75000 -0.30100
N 	N 	0.44290 0.30240 0.96720 -0.18300
N 	N 	0.73900 0.77300 0.13700 -0.29300
N 	N 	0.50280 0.75140 0.49920 -0.19200
N 	N 	0.52480 0.04960 0.16800 -0.31600
N 	N 	0.55710 0.69760 0.46720 -0.22300
N 	N 	0.49720 0.24860 0.50080 -0.19400
N 	N 	0.69760 0.14050 0.96720 -0.19000
N 	N 	0.73900 0.77300 0.36300 -0.29500
N 	N 	0.75140 0.24860 0.50080 -0.19300
N 	N 	0.26100 0.03400 0.86300 -0.34800
N 	N 	0.85950 0.55710 0.96720 -0.17100
N 	N 	0.24860 0.49720 0.00080 -0.23600
N 	N 	0.24860 0.75140 0.49920 -0.19200
N 	N 	0.77300 0.03400 0.63700 -0.35600
N 	N 	0.95040 0.47520 0.16800 -0.21700
N 	N 	0.44290 0.14050 0.53280 -0.23100
N 	N 	0.30240 0.44290 0.03280 -0.25100
N 	N 	0.22700 0.26100 0.36300 -0.28600
N 	N 	0.26100 0.22700 0.63700 -0.28800
N 	N 	0.04960 0.52480 0.66800 -0.28900
N 	N 	0.24860 0.49720 0.49920 -0.19300
N 	N 	0.69760 0.55710 0.96720 -0.18300
N 	N 	0.41870 0.83740 0.79460 -0.16500
N 	N 	0.43090 0.86180 0.25000 -0.34200
N 	N 	0.83740 0.41870 0.29460 -0.18700
N 	N 	0.47520 0.95040 0.66800 -0.19300
N 	N 	0.52480 0.04960 0.33200 -0.29700
N 	N 	0.41870 0.58130 0.70540 -0.18600
N 	N 	0.96600 0.73900 0.86300 -0.23800
N 	N 	0.14050 0.69760 0.03280 -0.25700
N 	N 	0.14050 0.44290 0.03280 -0.25800
N 	N 	0.03400 0.26100 0.13700 -0.33900
N 	N 	0.47520 0.52480 0.83200 -0.21400
N 	N 	0.03400 0.77300 0.36300 -0.34900
N 	N 	0.69760 0.14050 0.53280 -0.23200
N 	N 	0.73900 0.96600 0.13700 -0.22100
N 	N 	0.58130 0.16260 0.29460 -0.19100
N 	N 	0.77300 0.03400 0.86300 -0.35400
N 	N 	0.96600 0.22700 0.63700 -0.23300
N 	N 	0.95040 0.47520 0.33200 -0.19800
N 	N 	0.44290 0.30240 0.53280 -0.22300
N 	N 	0.56910 0.43090 0.75000 -0.32000
N 	N 	0.41870 0.83740 0.70540 -0.18400
N 	N 	0.03400 0.77300 0.13700 -0.34300
N 	N 	0.22700 0.96600 0.36300 -0.22300
N 	N 	0.55710 0.85950 0.46720 -0.20900
N 	N 	0.30240 0.85950 0.03280 -0.23500
N 	N 	0.75140 0.24860 0.99920 -0.14500
N 	N 	0.26100 0.22700 0.86300 -0.29100
N 	N 	0.85950 0.30240 0.53280 -0.21100
N 	N 	0.86180 0.43090 0.75000 -0.33900
N 	N 	0.77300 0.73900 0.86300 -0.30000
N 	N 	0.22700 0.26100 0.13700 -0.28400
N 	N 	0.41870 0.58130 0.79460 -0.16700
N 	N 	0.30240 0.85950 0.46720 -0.20900
N 	N 	0.55710 0.85950 0.03280 -0.23500
N 	N 	0.22700 0.96600 0.13700 -0.21600
N 	N 	0.75140 0.50280 0.50080 -0.19300
N 	N 	0.58130 0.41870 0.29460 -0.18900
N 	N 	0.85950 0.55710 0.53280 -0.21100
N 	N 	0.13820 0.56910 0.25000 -0.30200
N 	N 	0.52480 0.47520 0.16800 -0.26300
N 	N 	0.69760 0.55710 0.53280 -0.22300
N 	N 	0.52480 0.47520 0.33200 -0.24500
N 	N 	0.50280 0.75140 0.00080 -0.23400
N 	N 	0.85950 0.30240 0.96720 -0.17100
N 	N 	0.58130 0.16260 0.20540 -0.20900
N 	N 	0.73900 0.96600 0.36300 -0.22800
N 	N 	0.49720 0.24860 0.99920 -0.14600
N 	N 	0.04960 0.52480 0.83200 -0.26100
N 	N 	0.96600 0.22700 0.86300 -0.23400
N 	N 	0.55710 0.69760 0.03280 -0.25100
N 	N 	0.03400 0.26100 0.36300 -0.34400
N 	N 	0.14050 0.44290 0.46720 -0.23000
N 	N 	0.75140 0.50280 0.99920 -0.14600
N 	N 	0.16260 0.58130 0.79460 -0.16900
N 	N 	0.14050 0.69760 0.46720 -0.23100
N 	N 	0.26100 0.03400 0.63700 -0.35100
N 	N 	0.47520 0.95040 0.83200 -0.16600
