data_crystal

_cell_length_a 14.10080
_cell_length_b 14.10060
_cell_length_c 14.10060
_cell_angle_alpha 109.47100
_cell_angle_beta  109.47100
_cell_angle_gamma 109.47100

_symmetry_space_group_name_	'P 1'
_symmetry_space_group_name_H-M	'P 1'

loop_
_symmetry_equiv_pos_as_xyz
  x,y,z

loop_
_atom_site_label
_atom_site_type_symbol
_atom_site_fract_x
_atom_site_fract_y
_atom_site_fract_z
_atom_site_charge
Zn	Zn	0.99142 0.85379 0.39531 1.11200
Zn	Zn	0.13763 0.54152 0.14621 1.14700
Zn	Zn	0.45848 0.59611 0.60469 1.14200
Zn	Zn	0.85379 0.39531 0.99142 1.11100
Zn	Zn	0.40389 0.86237 0.00858 1.14200
Zn	Zn	0.59611 0.60469 0.45848 1.14200
Zn	Zn	0.14621 0.13763 0.54152 1.14700
Zn	Zn	0.86237 0.00858 0.40389 1.14200
Zn	Zn	0.54152 0.14621 0.13763 1.14700
Zn	Zn	0.60469 0.45848 0.59611 1.14200
Zn	Zn	0.39531 0.99142 0.85379 1.11100
Zn	Zn	0.00858 0.40389 0.86237 1.14200
H 	H 	0.20170 0.56440 0.47530 0.11000
H 	H 	0.08910 0.72640 0.52470 0.11500
H 	H 	0.79830 0.27360 0.36270 0.09600
H 	H 	0.65560 0.41990 0.80890 -0.07900
H 	H 	0.63730 0.91090 0.43560 0.08300
H 	H 	0.52470 0.08910 0.72640 0.11500
H 	H 	0.15330 0.76430 0.34440 -0.09400
H 	H 	0.42370 0.87260 0.23510 0.08600
H 	H 	0.43560 0.63730 0.91090 0.08300
H 	H 	0.34440 0.15330 0.76430 -0.09400
H 	H 	0.63750 0.18860 0.76490 0.09600
H 	H 	0.72640 0.52470 0.08910 0.11500
H 	H 	0.18860 0.76490 0.63750 0.09600
H 	H 	0.36250 0.12740 0.55110 0.10900
H 	H 	0.19110 0.61100 0.84670 -0.05000
H 	H 	0.81140 0.44890 0.57630 0.08700
H 	H 	0.23570 0.38900 0.58010 -0.06400
H 	H 	0.76490 0.63750 0.18860 0.09600
H 	H 	0.80890 0.65560 0.41990 -0.07900
H 	H 	0.36270 0.79830 0.27360 0.09600
H 	H 	0.58010 0.23570 0.38900 -0.06400
H 	H 	0.91090 0.43560 0.63730 0.08300
H 	H 	0.84670 0.19110 0.61100 -0.05000
H 	H 	0.87260 0.23510 0.42370 0.08600
H 	H 	0.27360 0.36270 0.79830 0.09600
H 	H 	0.56440 0.47530 0.20170 0.11000
H 	H 	0.41990 0.80890 0.65560 -0.07900
H 	H 	0.76430 0.34440 0.15330 -0.09400
H 	H 	0.61100 0.84670 0.19110 -0.05000
H 	H 	0.55110 0.36250 0.12740 0.10900
H 	H 	0.44890 0.57630 0.81140 0.08700
H 	H 	0.47530 0.20170 0.56440 0.11000
H 	H 	0.38900 0.58010 0.23570 -0.06400
H 	H 	0.57630 0.81140 0.44890 0.08700
H 	H 	0.12740 0.55110 0.36250 0.10900
H 	H 	0.23510 0.42370 0.87260 0.08600
C 	C 	0.07700 0.70820 0.28700 0.16000
C 	C 	0.79000 0.71300 0.42120 0.08900
C 	C 	0.70560 0.81390 0.43090 0.14900
C 	C 	0.18610 0.89170 0.61700 0.15600
C 	C 	0.57880 0.29180 0.36880 0.09700
C 	C 	0.43090 0.70560 0.81390 0.14900
C 	C 	0.29440 0.72530 0.10830 0.16800
C 	C 	0.72530 0.10830 0.29440 0.16800
C 	C 	0.36880 0.57880 0.29180 0.09700
C 	C 	0.21000 0.63120 0.92300 0.03100
C 	C 	0.38300 0.27470 0.56910 0.16800
C 	C 	0.61700 0.18610 0.89170 0.15600
C 	C 	0.42120 0.79000 0.71300 0.08900
C 	C 	0.10830 0.29440 0.72530 0.16800
C 	C 	0.28700 0.07700 0.70820 0.16000
C 	C 	0.70820 0.28700 0.07700 0.16000
C 	C 	0.81390 0.43090 0.70560 0.14900
C 	C 	0.27470 0.56910 0.38300 0.16800
C 	C 	0.92300 0.21000 0.63120 0.03100
C 	C 	0.89170 0.61700 0.18610 0.15600
C 	C 	0.63120 0.92300 0.21000 0.03100
C 	C 	0.29180 0.36880 0.57880 0.09700
C 	C 	0.56910 0.38300 0.27470 0.16800
C 	C 	0.71300 0.42120 0.79000 0.08900
S 	S 	0.00000 0.35308 -0.00000 -0.72900
S 	S 	0.35308 0.00000 -0.00000 -0.72900
S 	S 	0.64692 0.64692 0.64692 -0.88600
S 	S 	-0.00000 -0.00000 0.35308 -0.72900
N 	N 	0.71610 0.43490 0.70060 -0.33100
N 	N 	0.26570 0.56510 0.28120 -0.32700
N 	N 	0.59020 0.38890 0.43730 -0.29300
N 	N 	0.84710 0.79870 0.40980 -0.31100
N 	N 	0.20130 0.04840 0.61110 -0.27900
N 	N 	0.56510 0.28120 0.26570 -0.32700
N 	N 	0.04840 0.61110 0.20130 -0.27900
N 	N 	0.95160 0.15290 0.56270 -0.30600
N 	N 	0.41010 0.19140 0.56050 -0.32900
N 	N 	0.62300 0.07210 0.20670 -0.27700
N 	N 	0.73430 0.01550 0.29940 -0.29500
N 	N 	0.86540 0.41630 0.79330 -0.32200
N 	N 	0.58370 0.44910 0.37700 -0.30200
N 	N 	0.98450 0.71880 0.28390 -0.37400
N 	N 	0.44910 0.37700 0.58370 -0.30200
N 	N 	0.13460 0.92790 0.55090 -0.31700
N 	N 	0.80860 0.21870 0.36910 -0.32100
N 	N 	0.38890 0.43730 0.59020 -0.29300
N 	N 	0.28120 0.26570 0.56510 -0.32700
N 	N 	0.29940 0.73430 0.01550 -0.29500
N 	N 	0.78130 0.58990 0.15040 -0.32700
N 	N 	0.43950 0.63090 0.84960 -0.32000
N 	N 	0.37700 0.58370 0.44910 -0.30200
N 	N 	0.07210 0.20670 0.62300 -0.27700
N 	N 	0.84960 0.43950 0.63090 -0.32000
N 	N 	0.56050 0.41010 0.19140 -0.32900
N 	N 	0.70060 0.71610 0.43490 -0.33100
N 	N 	0.58990 0.15040 0.78130 -0.32700
N 	N 	0.41630 0.79330 0.86540 -0.32200
N 	N 	0.28390 0.98450 0.71880 -0.37400
N 	N 	0.61110 0.20130 0.04840 -0.27900
N 	N 	0.15040 0.78130 0.58990 -0.32700
N 	N 	0.20670 0.62300 0.07210 -0.27700
N 	N 	0.79870 0.40980 0.84710 -0.31100
N 	N 	0.21870 0.36910 0.80860 -0.32100
N 	N 	0.01550 0.29940 0.73430 -0.29500
N 	N 	0.56270 0.95160 0.15290 -0.30600
N 	N 	0.43490 0.70060 0.71610 -0.33100
N 	N 	0.19140 0.56050 0.41010 -0.32900
N 	N 	0.71880 0.28390 0.98450 -0.37400
N 	N 	0.43730 0.59020 0.38890 -0.29300
N 	N 	0.63090 0.84960 0.43950 -0.32000
N 	N 	0.15290 0.56270 0.95160 -0.30600
N 	N 	0.36910 0.80860 0.21870 -0.32100
N 	N 	0.79330 0.86540 0.41630 -0.32200
N 	N 	0.55090 0.13460 0.92790 -0.31700
N 	N 	0.92790 0.55090 0.13460 -0.31700
N 	N 	0.40980 0.84710 0.79870 -0.31100
