data_crystal

_cell_length_a 9.89300
_cell_length_b 12.12940
_cell_length_c 16.31970
_cell_angle_alpha 68.83340
_cell_angle_beta  72.35620
_cell_angle_gamma 65.93270

_symmetry_space_group_name_	'P 1'
_symmetry_space_group_name_H-M	'P 1'

loop_
_symmetry_equiv_pos_as_xyz
  x,y,z

loop_
_atom_site_label
_atom_site_type_symbol
_atom_site_fract_x
_atom_site_fract_y
_atom_site_fract_z
_atom_site_charge
Na	Na	0.89430 0.25000 0.75000 0.57800
Na	Na	0.10570 0.75000 0.25000 0.57800
Ce	Ce	0.05176 0.46482 0.20608 2.12100
Ce	Ce	0.27734 0.96482 0.70608 2.11900
Ce	Ce	0.94824 0.53518 0.79392 2.12200
Ce	Ce	0.72266 0.03518 0.29392 2.12000
H 	H 	0.41270 0.52110 0.88090 0.11800
H 	H 	0.09200 0.65700 0.84900 0.30400
H 	H 	0.94300 0.70700 0.83900 0.22700
H 	H 	0.81810 0.91180 0.55000 0.12500
H 	H 	0.93790 0.40040 0.54500 0.04600
H 	H 	0.75200 0.61970 0.49930 0.13600
H 	H 	0.72010 0.41180 0.05000 0.12700
H 	H 	0.27990 0.58820 0.95000 0.12700
H 	H 	0.05700 0.29300 0.16100 0.22700
H 	H 	0.12900 0.11970 0.99930 0.12900
H 	H 	0.45180 0.63150 0.99650 0.06100
H 	H 	0.59800 0.84300 0.65100 0.30600
H 	H 	0.17210 0.33150 0.45350 0.13400
H 	H 	0.18190 0.08820 0.45000 0.12500
H 	H 	0.90800 0.34300 0.15100 0.30400
H 	H 	0.07980 0.86850 0.50350 0.06100
H 	H 	0.48900 0.79300 0.66100 0.23200
H 	H 	0.88330 0.09960 0.95500 0.05300
H 	H 	0.11670 0.90040 0.04500 0.05300
H 	H 	0.87100 0.88030 0.00070 0.12900
H 	H 	0.81470 0.97890 0.61910 0.11600
H 	H 	0.51100 0.20700 0.33900 0.23200
H 	H 	0.18530 0.02110 0.38090 0.11600
H 	H 	0.82790 0.66850 0.54650 0.13400
H 	H 	0.06210 0.59960 0.45500 0.04600
H 	H 	0.24800 0.38030 0.50070 0.13600
H 	H 	0.95710 0.16850 0.04650 0.11500
H 	H 	0.40200 0.15700 0.34900 0.30600
H 	H 	0.54820 0.36850 0.00350 0.06100
H 	H 	0.58730 0.47890 0.11910 0.11800
H 	H 	0.04290 0.83150 0.95350 0.11500
H 	H 	0.92020 0.13150 0.49650 0.06100
C 	C 	0.63990 0.56540 0.90640 0.28200
C 	C 	0.90290 0.78430 0.66310 0.36700
C 	C 	0.11170 0.93460 0.59360 0.27200
C 	C 	0.20820 0.21810 0.57770 0.35800
C 	C 	0.87650 0.91030 0.59030 -0.28100
C 	C 	0.37710 0.58970 0.90970 -0.28900
C 	C 	0.62290 0.41030 0.09030 -0.28900
C 	C 	0.97600 0.84380 0.01080 -0.25700
C 	C 	0.08580 0.03570 0.87670 0.31100
C 	C 	0.99820 0.46430 0.62330 0.28600
C 	C 	0.91420 0.96430 0.12330 0.31100
C 	C 	0.02400 0.15620 0.98920 -0.25700
C 	C 	0.36010 0.43460 0.09360 0.28200
C 	C 	0.00400 0.28190 0.92230 0.35700
C 	C 	0.51020 0.43530 0.03510 -0.03900
C 	C 	0.00180 0.53570 0.37670 0.28600
C 	C 	0.01940 0.93530 0.53510 -0.04300
C 	C 	0.99600 0.71810 0.07770 0.35700
C 	C 	0.83060 0.65620 0.48920 -0.30200
C 	C 	0.48980 0.56470 0.96490 -0.03900
C 	C 	0.01620 0.43730 0.53730 -0.04200
C 	C 	0.98380 0.56270 0.46270 -0.04200
C 	C 	0.88830 0.06540 0.40640 0.27200
C 	C 	0.09710 0.21570 0.33690 0.36700
C 	C 	0.98060 0.06470 0.46490 -0.04300
C 	C 	0.64970 0.28430 0.16310 0.36800
C 	C 	0.16940 0.34380 0.51080 -0.30200
C 	C 	0.79180 0.78190 0.42230 0.35800
C 	C 	0.35030 0.71570 0.83690 0.36800
C 	C 	0.12350 0.08970 0.40970 -0.28100
C 	C 	0.99080 0.06270 0.96270 -0.07600
C 	C 	0.00920 0.93730 0.03730 -0.07600
O 	O 	0.71450 0.62640 0.91220 -0.37600
O 	O 	0.21090 0.25260 0.29720 -0.46400
O 	O 	0.78910 0.74740 0.70280 -0.46400
O 	O 	0.00760 0.29570 0.84070 -0.48900
O 	O 	0.87580 0.46380 0.68160 -0.44800
O 	O 	0.14400 0.20430 0.65930 -0.49100
O 	O 	0.02810 0.72320 0.68220 -0.45500
O 	O 	0.25310 0.87360 0.58780 -0.37300
O 	O 	0.22450 0.00870 0.86330 -0.41500
O 	O 	0.99340 0.37550 0.94670 -0.42400
O 	O 	0.74690 0.12640 0.41220 -0.37300
O 	O 	0.56650 0.22320 0.18220 -0.45700
O 	O 	0.68440 0.87550 0.44670 -0.41500
O 	O 	0.31560 0.12450 0.55330 -0.41500
O 	O 	0.43350 0.77680 0.81780 -0.45700
O 	O 	0.09650 0.49130 0.63670 -0.41100
O 	O 	0.12420 0.53620 0.31840 -0.44800
O 	O 	0.99240 0.70430 0.15930 -0.48900
O 	O 	0.02120 0.03620 0.81840 -0.44500
O 	O 	0.90350 0.50870 0.36330 -0.41100
O 	O 	0.00660 0.62450 0.05330 -0.42400
O 	O 	0.85600 0.79570 0.34070 -0.49100
O 	O 	0.30350 0.50340 0.14820 -0.42000
O 	O 	0.04490 0.00340 0.64820 -0.40700
O 	O 	0.23930 0.75260 0.79720 -0.46500
O 	O 	0.28550 0.37360 0.08780 -0.37600
O 	O 	0.46720 0.15600 0.37360 -0.71700
O 	O 	0.69650 0.49660 0.85180 -0.42000
O 	O 	0.95510 0.99660 0.35180 -0.40700
O 	O 	0.97880 0.96380 0.18160 -0.44500
O 	O 	0.53280 0.84400 0.62640 -0.71700
O 	O 	0.77550 0.99130 0.13670 -0.41500
O 	O 	0.97190 0.27680 0.31780 -0.45500
O 	O 	0.00320 0.65600 0.87360 -0.70900
O 	O 	0.99680 0.34400 0.12640 -0.70900
O 	O 	0.76070 0.24740 0.20280 -0.46500
