data_crystal

_cell_length_a 12.36340
_cell_length_b 12.36340
_cell_length_c 12.53900
_cell_angle_alpha 90.00000
_cell_angle_beta  90.00000
_cell_angle_gamma 120.00000

_symmetry_space_group_name_	'P 1'
_symmetry_space_group_name_H-M	'P 1'

loop_
_symmetry_equiv_pos_as_xyz
  x,y,z

loop_
_atom_site_label
_atom_site_type_symbol
_atom_site_fract_x
_atom_site_fract_y
_atom_site_fract_z
_atom_site_charge
Cu	Cu	0.33333 0.66666 0.10000 0.85000
Cu	Cu	0.33333 0.66666 0.40000 0.85900
Cu	Cu	0.00000 0.50000 0.50000 0.83200
Cu	Cu	0.50000 0.00000 -0.00000 0.79500
Cu	Cu	0.66667 0.33334 0.90000 0.87100
Cu	Cu	0.50000 0.50000 -0.00000 0.82200
Cu	Cu	0.50000 0.50000 0.50000 0.86600
Cu	Cu	0.00000 0.50000 -0.00000 0.78800
Cu	Cu	0.50000 0.00000 0.50000 0.83800
Cu	Cu	0.66667 0.33334 0.60000 0.86000
H 	H 	0.10670 0.55335 0.75000 0.03900
H 	H 	0.44665 0.55335 0.75000 -0.00600
H 	H 	0.55335 0.10670 0.25000 0.02400
H 	H 	0.29020 0.24040 0.36900 0.00800
H 	H 	0.70980 0.75960 0.63100 0.03500
H 	H 	0.89330 0.44665 0.25000 -0.05900
H 	H 	0.29020 0.24040 0.13100 -0.00100
H 	H 	0.24040 0.29020 0.86900 0.02200
H 	H 	0.24040 0.95020 0.63100 0.03600
H 	H 	0.24040 0.29020 0.63100 0.01200
H 	H 	0.24040 0.95020 0.86900 0.04500
H 	H 	0.55335 0.44665 0.25000 -0.01500
H 	H 	0.95020 0.70980 0.36900 0.04800
H 	H 	0.75960 0.04980 0.13100 0.00000
H 	H 	0.04980 0.75960 0.86900 0.01700
H 	H 	0.29020 0.04980 0.13100 -0.01200
H 	H 	0.70980 0.95020 0.86900 0.05800
H 	H 	0.44665 0.89330 0.75000 -0.04200
H 	H 	0.75960 0.70980 0.36900 0.03100
H 	H 	0.70980 0.95020 0.63100 0.04900
H 	H 	0.95020 0.24040 0.13100 0.02900
H 	H 	0.95020 0.24040 0.36900 0.03700
H 	H 	0.70980 0.75960 0.86900 0.04500
H 	H 	0.75960 0.70980 0.13100 0.02300
H 	H 	0.29020 0.04980 0.36900 -0.00400
H 	H 	0.75960 0.04980 0.36900 0.00800
H 	H 	0.04980 0.29020 0.86900 0.00800
H 	H 	0.04980 0.29020 0.63100 -0.00200
H 	H 	0.95020 0.70980 0.13100 0.04000
H 	H 	0.04980 0.75960 0.63100 0.00800
C 	C 	0.12310 0.77430 0.90560 0.01600
C 	C 	0.12310 0.34880 0.90560 0.01200
C 	C 	0.65120 0.87690 0.90560 0.02700
C 	C 	0.77430 0.12310 0.40560 0.00400
C 	C 	0.22570 0.87690 0.90560 0.02300
C 	C 	0.49100 0.98200 0.75000 0.23000
C 	C 	0.49100 0.50900 0.75000 0.10000
C 	C 	0.77430 0.12310 0.09440 -0.00900
C 	C 	0.65120 0.77430 0.59440 0.01200
C 	C 	0.01800 0.50900 0.75000 -0.05700
C 	C 	0.34880 0.22570 0.09440 -0.01200
C 	C 	0.77430 0.65120 0.09440 -0.00200
C 	C 	0.34880 0.12310 0.09440 -0.01500
C 	C 	0.12310 0.34880 0.59440 -0.00200
C 	C 	0.87690 0.22570 0.09440 -0.00300
C 	C 	0.87690 0.22570 0.40560 0.01000
C 	C 	0.22570 0.34880 0.59440 0.00200
C 	C 	0.22570 0.87690 0.59440 0.00900
C 	C 	0.87690 0.65120 0.40560 0.01500
C 	C 	0.77430 0.65120 0.40560 0.01200
C 	C 	0.65120 0.87690 0.59440 0.01400
C 	C 	0.12310 0.77430 0.59440 0.00300
C 	C 	0.50900 0.01800 0.25000 -0.03300
C 	C 	0.50900 0.49100 0.25000 0.10000
C 	C 	0.87690 0.65120 0.09440 0.00100
C 	C 	0.98200 0.49100 0.25000 0.26200
C 	C 	0.34880 0.22570 0.40560 0.00200
C 	C 	0.22570 0.34880 0.90560 0.01600
C 	C 	0.34880 0.12310 0.40560 -0.00100
C 	C 	0.65120 0.77430 0.90560 0.02500
N 	N 	0.17370 0.58685 0.30390 -0.15500
N 	N 	0.41315 0.82630 0.19610 -0.15200
N 	N 	0.13360 0.44560 0.53390 -0.18100
N 	N 	0.52730 0.05460 0.83500 -0.21500
N 	N 	0.58685 0.17370 0.80390 -0.14700
N 	N 	0.47270 0.52730 0.16500 -0.18800
N 	N 	0.25175 0.50350 0.49790 -0.15000
N 	N 	0.58685 0.41315 0.69610 -0.14900
N 	N 	0.13360 0.44560 0.96610 -0.11900
N 	N 	0.68800 0.13360 0.46610 -0.17800
N 	N 	0.86640 0.55440 0.46610 -0.15200
N 	N 	0.86640 0.31200 0.46610 -0.15300
N 	N 	0.58685 0.17370 0.69610 -0.15200
N 	N 	0.31200 0.44560 0.96610 -0.11000
N 	N 	0.68800 0.55440 0.03390 -0.22000
N 	N 	0.55440 0.68800 0.96610 -0.10700
N 	N 	0.86640 0.31200 0.03390 -0.20400
N 	N 	0.86640 0.55440 0.03390 -0.20200
N 	N 	0.68800 0.13360 0.03390 -0.22900
N 	N 	0.13360 0.68800 0.53390 -0.18000
N 	N 	0.94540 0.47270 0.66500 -0.10500
N 	N 	0.25175 0.50350 0.00210 -0.22900
N 	N 	0.74825 0.25175 0.99790 -0.06600
N 	N 	0.52730 0.05460 0.66500 -0.23300
N 	N 	0.05460 0.52730 0.33500 -0.24800
N 	N 	0.82630 0.41315 0.69610 -0.14500
N 	N 	0.41315 0.82630 0.30390 -0.14800
N 	N 	0.13360 0.68800 0.96610 -0.11800
N 	N 	0.31200 0.86640 0.53390 -0.15600
N 	N 	0.25175 0.74825 0.49790 -0.14700
N 	N 	0.44560 0.13360 0.03390 -0.23200
N 	N 	0.31200 0.86640 0.96610 -0.09500
N 	N 	0.55440 0.86640 0.53390 -0.15500
N 	N 	0.44560 0.31200 0.46610 -0.17300
N 	N 	0.31200 0.44560 0.53390 -0.17200
N 	N 	0.94540 0.47270 0.83500 -0.08800
N 	N 	0.47270 0.94540 0.16500 -0.12500
N 	N 	0.74825 0.49650 0.99790 -0.06400
N 	N 	0.55440 0.86640 0.96610 -0.09400
N 	N 	0.41315 0.58685 0.30390 -0.15200
N 	N 	0.50350 0.25175 0.50210 -0.14900
N 	N 	0.58685 0.41315 0.80390 -0.14400
N 	N 	0.49650 0.74825 0.49790 -0.14500
N 	N 	0.68800 0.55440 0.46610 -0.16900
N 	N 	0.41315 0.58685 0.19610 -0.15600
N 	N 	0.82630 0.41315 0.80390 -0.14000
N 	N 	0.05460 0.52730 0.16500 -0.25600
N 	N 	0.49650 0.74825 0.00210 -0.22300
N 	N 	0.74825 0.49650 0.50210 -0.14400
N 	N 	0.52730 0.47270 0.66500 -0.17900
N 	N 	0.47270 0.52730 0.33500 -0.18000
N 	N 	0.55440 0.68800 0.53390 -0.16900
N 	N 	0.47270 0.94540 0.33500 -0.11800
N 	N 	0.17370 0.58685 0.19610 -0.16000
N 	N 	0.44560 0.31200 0.03390 -0.22400
N 	N 	0.52730 0.47270 0.83500 -0.16100
N 	N 	0.74825 0.25175 0.50210 -0.14600
N 	N 	0.44560 0.13360 0.46610 -0.18000
N 	N 	0.50350 0.25175 0.99790 -0.06700
N 	N 	0.25175 0.74825 0.00210 -0.22500
