data_crystal

_cell_length_a 13.01400
_cell_length_b 13.01400
_cell_length_c 13.45700
_cell_angle_alpha 90.00000
_cell_angle_beta  90.00000
_cell_angle_gamma 120.00000

_symmetry_space_group_name_	'P 1'
_symmetry_space_group_name_H-M	'P 1'

loop_
_symmetry_equiv_pos_as_xyz
  x,y,z

loop_
_atom_site_label
_atom_site_type_symbol
_atom_site_fract_x
_atom_site_fract_y
_atom_site_fract_z
_atom_site_charge
Cd	Cd	0.66667 0.33334 0.39930 1.15200
Cd	Cd	0.33333 0.66666 0.89930 1.20200
Cd	Cd	0.50000 0.00000 -0.00000 1.09500
Cd	Cd	-0.00000 0.50000 0.50000 1.15300
Cd	Cd	0.66667 0.33334 0.10070 1.10300
Cd	Cd	0.33333 0.66666 0.60070 1.15300
Cd	Cd	-0.00000 0.50000 -0.00000 1.10100
Cd	Cd	0.50000 0.50000 -0.00000 1.11800
Cd	Cd	0.50000 0.00000 0.50000 1.15100
Cd	Cd	0.50000 0.50000 0.50000 1.17300
H 	H 	0.95820 0.16760 0.83620 0.12600
H 	H 	0.95820 0.79060 0.83620 0.13900
H 	H 	0.16760 0.95820 0.16380 0.10100
H 	H 	0.83240 0.04180 0.66380 0.12700
H 	H 	0.83240 0.04180 0.83620 0.13900
H 	H 	0.96270 0.25450 0.12970 0.13100
H 	H 	0.04180 0.20940 0.16380 0.09800
H 	H 	0.96270 0.70820 0.12970 0.13800
H 	H 	0.95820 0.16760 0.66380 0.11400
H 	H 	0.04180 0.83240 0.33620 0.12700
H 	H 	0.17740 0.58870 0.30530 0.11100
H 	H 	0.41130 0.58870 0.30530 0.11900
H 	H 	0.04180 0.83240 0.16380 0.11500
H 	H 	0.58870 0.17740 0.80530 0.11600
H 	H 	0.74550 0.03730 0.37030 0.05300
H 	H 	0.41130 0.58870 0.19470 0.11700
H 	H 	0.20940 0.04180 0.83620 0.12400
H 	H 	0.03730 0.74550 0.62970 0.06300
H 	H 	0.20940 0.04180 0.66380 0.11300
H 	H 	0.74550 0.03730 0.12970 0.01900
H 	H 	0.82260 0.41130 0.80530 0.13500
H 	H 	0.82260 0.41130 0.69470 0.12900
H 	H 	0.70820 0.74550 0.62970 0.12300
H 	H 	0.17740 0.58870 0.19470 0.10900
H 	H 	0.96270 0.70820 0.37030 0.17100
H 	H 	0.04180 0.20940 0.33620 0.11000
H 	H 	0.96270 0.25450 0.37030 0.16400
H 	H 	0.58870 0.41130 0.80530 0.12400
H 	H 	0.70820 0.74550 0.87030 0.15500
H 	H 	0.16760 0.95820 0.33620 0.11300
H 	H 	0.58870 0.41130 0.69470 0.11900
H 	H 	0.25450 0.96270 0.87030 0.19800
H 	H 	0.16760 0.20940 0.16380 0.09200
H 	H 	0.41130 0.82260 0.19470 0.12900
H 	H 	0.29180 0.03730 0.12970 0.01300
H 	H 	0.83240 0.79060 0.83620 0.14700
H 	H 	0.03730 0.29180 0.62970 0.05800
H 	H 	0.79060 0.83240 0.16380 0.12200
H 	H 	0.79060 0.95820 0.16380 0.11400
H 	H 	0.29180 0.25450 0.12970 0.07600
H 	H 	0.74550 0.70820 0.37030 0.12000
H 	H 	0.74550 0.70820 0.12970 0.08900
H 	H 	0.20940 0.16760 0.83620 0.11900
H 	H 	0.25450 0.29180 0.62970 0.11000
H 	H 	0.83240 0.79060 0.66380 0.13500
H 	H 	0.29180 0.25450 0.37030 0.10700
H 	H 	0.79060 0.95820 0.33620 0.12600
H 	H 	0.25450 0.96270 0.62970 0.17200
H 	H 	0.70820 0.96270 0.87030 0.20600
H 	H 	0.79060 0.83240 0.33620 0.13400
H 	H 	0.03730 0.74550 0.87030 0.09200
H 	H 	0.95820 0.79060 0.66380 0.12900
H 	H 	0.29180 0.03730 0.37030 0.04700
H 	H 	0.70820 0.96270 0.62970 0.17900
H 	H 	0.41130 0.82260 0.30530 0.13100
H 	H 	0.25450 0.29180 0.87030 0.14300
H 	H 	0.20940 0.16760 0.66380 0.10600
H 	H 	0.03730 0.29180 0.87030 0.08900
H 	H 	0.16760 0.20940 0.33620 0.10400
H 	H 	0.58870 0.17740 0.69470 0.11000
C 	C 	0.77230 0.12230 0.58600 0.10100
C 	C 	0.50950 0.49050 0.75000 0.18200
C 	C 	0.35000 0.12230 0.91400 0.12300
C 	C 	0.35000 0.22770 0.91400 0.12000
C 	C 	0.12230 0.77230 0.08600 0.07600
C 	C 	0.49050 0.50950 0.25000 0.18000
C 	C 	0.87770 0.22770 0.58600 0.09400
C 	C 	0.12230 0.77230 0.41400 0.10100
C 	C 	0.22770 0.87770 0.41400 0.09400
C 	C 	0.01900 0.50950 0.25000 0.08700
C 	C 	0.65000 0.77230 0.41400 0.10300
C 	C 	0.77230 0.65000 0.58600 0.10300
C 	C 	0.87770 0.65000 0.91400 0.12600
C 	C 	0.77230 0.65000 0.91400 0.13100
C 	C 	0.12230 0.35000 0.41400 0.09500
C 	C 	0.65000 0.77230 0.08600 0.07700
C 	C 	0.35000 0.12230 0.58600 0.09500
C 	C 	0.35000 0.22770 0.58600 0.09100
C 	C 	0.65000 0.87770 0.08600 0.07300
C 	C 	0.77230 0.12230 0.91400 0.12900
C 	C 	0.50950 0.01900 0.75000 0.08100
C 	C 	0.22770 0.35000 0.41400 0.09100
C 	C 	0.87770 0.65000 0.58600 0.10000
C 	C 	0.49050 0.98100 0.25000 0.29800
C 	C 	0.87770 0.22770 0.91400 0.12300
C 	C 	0.22770 0.35000 0.08600 0.06400
C 	C 	0.22770 0.87770 0.08600 0.06900
C 	C 	0.65000 0.87770 0.41400 0.10000
C 	C 	0.98100 0.49050 0.75000 0.28400
C 	C 	0.12230 0.35000 0.08600 0.06800
N 	N 	0.13810 0.44030 0.03290 -0.26600
N 	N 	0.75190 0.24810 0.50230 -0.19300
N 	N 	0.41805 0.58195 0.70210 -0.19400
N 	N 	0.58195 0.41805 0.29790 -0.19700
N 	N 	0.03200 0.26100 0.13200 -0.34400
N 	N 	0.26100 0.03200 0.86800 -0.35600
N 	N 	0.44030 0.13810 0.96710 -0.19700
N 	N 	0.26100 0.22900 0.86800 -0.29900
N 	N 	0.52525 0.05050 0.33150 -0.29000
N 	N 	0.69780 0.13810 0.96710 -0.19800
N 	N 	0.24810 0.75190 0.49770 -0.19200
N 	N 	0.75190 0.24810 0.99770 -0.14400
N 	N 	0.47475 0.52525 0.66850 -0.23700
N 	N 	0.96800 0.22900 0.63200 -0.23900
N 	N 	0.56950 0.43050 0.75000 -0.32100
N 	N 	0.86190 0.55970 0.53290 -0.21800
N 	N 	0.55970 0.69780 0.03290 -0.25900
N 	N 	0.44030 0.30220 0.53290 -0.23000
N 	N 	0.96800 0.73900 0.86800 -0.24500
N 	N 	0.22900 0.26100 0.13200 -0.28900
N 	N 	0.73900 0.96800 0.36800 -0.23500
N 	N 	0.41805 0.83610 0.70210 -0.19100
N 	N 	0.30220 0.44030 0.46710 -0.22900
N 	N 	0.94950 0.47475 0.16850 -0.21000
N 	N 	0.30220 0.86190 0.46710 -0.21600
N 	N 	0.16390 0.58195 0.70210 -0.19500
N 	N 	0.49620 0.24810 0.99770 -0.14500
N 	N 	0.43050 0.86100 0.25000 -0.34500
N 	N 	0.52525 0.47475 0.16850 -0.25500
N 	N 	0.77100 0.03200 0.86800 -0.36200
N 	N 	0.83610 0.41805 0.29790 -0.19500
N 	N 	0.73900 0.96800 0.13200 -0.22600
N 	N 	0.22900 0.26100 0.36800 -0.29300
N 	N 	0.69780 0.13810 0.53290 -0.24000
N 	N 	0.55970 0.69780 0.46710 -0.23100
N 	N 	0.26100 0.03200 0.63200 -0.35700
N 	N 	0.47475 0.94950 0.66850 -0.18700
N 	N 	0.52525 0.05050 0.16850 -0.30800
N 	N 	0.24810 0.75190 0.00230 -0.23300
N 	N 	0.52525 0.47475 0.33150 -0.23800
N 	N 	0.77100 0.03200 0.63200 -0.36300
N 	N 	0.03200 0.26100 0.36800 -0.35100
N 	N 	0.58195 0.41805 0.20210 -0.21400
N 	N 	0.69780 0.55970 0.96710 -0.19100
N 	N 	0.44030 0.13810 0.53290 -0.23900
N 	N 	0.77100 0.73900 0.63200 -0.30400
N 	N 	0.13810 0.44030 0.46710 -0.23800
N 	N 	0.22900 0.96800 0.13200 -0.22100
N 	N 	0.96800 0.73900 0.63200 -0.24400
N 	N 	0.13900 0.56950 0.25000 -0.30100
N 	N 	0.86190 0.55970 0.96710 -0.17800
N 	N 	0.24810 0.49620 0.00230 -0.23500
N 	N 	0.75190 0.50380 0.50230 -0.19300
N 	N 	0.49620 0.24810 0.50230 -0.19400
N 	N 	0.47475 0.52525 0.83150 -0.20800
N 	N 	0.13810 0.69780 0.46710 -0.23900
N 	N 	0.55970 0.86190 0.46710 -0.21600
N 	N 	0.58195 0.16390 0.29790 -0.19900
N 	N 	0.75190 0.50380 0.99770 -0.14500
N 	N 	0.56950 0.13900 0.75000 -0.30100
N 	N 	0.26100 0.22900 0.63200 -0.29500
N 	N 	0.94950 0.47475 0.33150 -0.19100
N 	N 	0.73900 0.77100 0.13200 -0.29900
N 	N 	0.44030 0.30220 0.96710 -0.18900
N 	N 	0.03200 0.77100 0.36800 -0.35600
N 	N 	0.86190 0.30220 0.96710 -0.17700
N 	N 	0.86190 0.30220 0.53290 -0.21700
N 	N 	0.16390 0.58195 0.79790 -0.17700
N 	N 	0.05050 0.52525 0.66850 -0.28200
N 	N 	0.30220 0.44030 0.03290 -0.25800
N 	N 	0.47475 0.94950 0.83150 -0.16000
N 	N 	0.50380 0.75190 0.49770 -0.19200
N 	N 	0.83610 0.41805 0.20210 -0.21200
N 	N 	0.30220 0.86190 0.03290 -0.24100
N 	N 	0.69780 0.55970 0.53290 -0.23100
N 	N 	0.58195 0.16390 0.20210 -0.21700
N 	N 	0.41805 0.58195 0.79790 -0.17500
N 	N 	0.43050 0.56950 0.25000 -0.32100
N 	N 	0.03200 0.77100 0.13200 -0.34900
N 	N 	0.77100 0.73900 0.86800 -0.30800
N 	N 	0.73900 0.77100 0.36800 -0.30300
N 	N 	0.05050 0.52525 0.83150 -0.25500
N 	N 	0.50380 0.75190 0.00230 -0.23400
N 	N 	0.55970 0.86190 0.03290 -0.24200
N 	N 	0.13810 0.69780 0.03290 -0.26500
N 	N 	0.86100 0.43050 0.75000 -0.34200
N 	N 	0.24810 0.49620 0.49770 -0.19300
N 	N 	0.41805 0.83610 0.79790 -0.17300
N 	N 	0.96800 0.22900 0.86800 -0.24200
N 	N 	0.22900 0.96800 0.36800 -0.23000
