data_crystal

_cell_length_a 18.07120
_cell_length_b 20.28910
_cell_length_c 21.32590
_cell_angle_alpha 90.00000
_cell_angle_beta  105.16500
_cell_angle_gamma 90.00000

_symmetry_space_group_name_	'P 1'
_symmetry_space_group_name_H-M	'P 1'

loop_
_symmetry_equiv_pos_as_xyz
  x,y,z

loop_
_atom_site_label
_atom_site_type_symbol
_atom_site_fract_x
_atom_site_fract_y
_atom_site_fract_z
_atom_site_charge
Ag	Ag	0.84933 0.55967 0.18279 0.35800
Ag	Ag	0.76571 0.67340 0.20705 0.37000
Ag	Ag	0.70887 0.54082 0.21017 0.39600
Ag	Ag	0.78948 0.43334 0.29694 0.38400
Ag	Ag	0.63000 0.40986 0.29851 0.36100
Ag	Ag	0.72273 0.30681 0.22917 0.37500
Ag	Ag	0.88539 0.33505 0.24412 0.34000
Ag	Ag	0.82404 0.20280 0.20004 0.36000
C 	C 	0.81387 0.58897 0.27102 -0.46600
C 	C 	0.85576 0.59000 0.32589 0.03300
C 	C 	0.91043 0.58886 0.38866 -0.07300
C 	C 	0.98883 0.58480 0.39130 -0.03400
H 	H 	0.00450 0.58450 0.35310 -0.03200
C 	C 	0.04269 0.58119 0.45062 -0.07300
H 	H 	0.09460 0.57840 0.45250 0.00800
C 	C 	0.01843 0.58174 0.50792 -0.01200
C 	C 	0.94072 0.58625 0.50587 -0.05800
H 	H 	0.92530 0.58680 0.54420 0.00400
C 	C 	0.88677 0.58987 0.44628 -0.03300
H 	H 	0.83490 0.59300 0.44450 -0.00800
C 	C 	0.07488 0.57698 0.56914 0.04000
N 	N 	0.12002 0.57243 0.61781 -0.25100
C 	C 	0.69430 0.42269 0.21712 -0.48000
C 	C 	0.64707 0.42207 0.16438 0.01200
C 	C 	0.59178 0.41951 0.10215 -0.07000
C 	C 	0.61665 0.41680 0.04511 -0.03800
H 	H 	0.66880 0.41620 0.04760 -0.01100
C 	C 	0.56365 0.41498 0.98515 -0.05600
H 	H 	0.57970 0.41310 0.94710 -0.00500
C 	C 	0.48580 0.41593 0.98269 -0.01300
C 	C 	0.46015 0.41794 0.03898 -0.07000
H 	H 	0.40790 0.41790 0.03630 0.00800
C 	C 	0.51328 0.42002 0.09883 -0.03300
H 	H 	0.49700 0.42170 0.13670 -0.03400
C 	C 	0.42909 0.41640 0.92106 0.03700
N 	N 	0.38286 0.41815 0.87285 -0.24600
C 	C 	0.82824 0.25499 0.29167 -0.48300
C 	C 	0.87790 0.25810 0.34309 0.01700
C 	C 	0.93432 0.25671 0.40541 -0.08000
C 	C 	0.01258 0.25470 0.40796 -0.02500
H 	H 	0.02820 0.25550 0.36980 -0.05200
C 	C 	0.06665 0.25155 0.46755 -0.08200
H 	H 	0.11860 0.25070 0.46940 0.01200
C 	C 	0.04276 0.24973 0.52457 -0.00400
C 	C 	0.96459 0.25210 0.52265 -0.06400
H 	H 	0.94910 0.25090 0.56090 0.00300
C 	C 	0.91088 0.25633 0.46311 -0.02700
H 	H 	0.85900 0.25890 0.46140 -0.01100
C 	C 	0.10043 0.24469 0.58531 0.03500
N 	N 	0.14818 0.23961 0.63251 -0.24200
Ag	Ag	0.65067 0.05967 0.31721 0.36000
Ag	Ag	0.73429 0.17340 0.29295 0.37100
Ag	Ag	0.79113 0.04082 0.28983 0.39700
Ag	Ag	0.71052 0.93334 0.20306 0.38500
Ag	Ag	0.87000 0.90986 0.20149 0.36200
Ag	Ag	0.77727 0.80681 0.27083 0.37600
Ag	Ag	0.61461 0.83505 0.25588 0.34200
Ag	Ag	0.67596 0.70280 0.29996 0.36100
C 	C 	0.68613 0.08897 0.22898 -0.46500
C 	C 	0.64424 0.09000 0.17411 0.03300
C 	C 	0.58957 0.08886 0.11134 -0.07300
C 	C 	0.51117 0.08480 0.10870 -0.03400
H 	H 	0.49550 0.08450 0.14690 -0.03200
C 	C 	0.45731 0.08119 0.04938 -0.07200
H 	H 	0.40540 0.07840 0.04750 0.00800
C 	C 	0.48157 0.08174 0.99208 -0.01300
C 	C 	0.55928 0.08625 0.99413 -0.05900
H 	H 	0.57470 0.08680 0.95580 0.00400
C 	C 	0.61323 0.08987 0.05372 -0.03100
H 	H 	0.66510 0.09300 0.05550 -0.00800
C 	C 	0.42512 0.07698 0.93086 0.04000
N 	N 	0.37998 0.07243 0.88219 -0.25100
C 	C 	0.80570 0.92269 0.28288 -0.48000
C 	C 	0.85293 0.92207 0.33562 0.01300
C 	C 	0.90822 0.91951 0.39785 -0.07100
C 	C 	0.88335 0.91680 0.45489 -0.03700
H 	H 	0.83120 0.91620 0.45240 -0.01000
C 	C 	0.93635 0.91498 0.51485 -0.05500
H 	H 	0.92030 0.91310 0.55290 -0.00500
C 	C 	0.01420 0.91593 0.51731 -0.01300
C 	C 	0.03985 0.91794 0.46102 -0.07200
H 	H 	0.09210 0.91790 0.46370 0.00900
C 	C 	0.98672 0.92002 0.40117 -0.03000
H 	H 	0.00300 0.92170 0.36330 -0.03600
C 	C 	0.07091 0.91640 0.57894 0.03600
N 	N 	0.11714 0.91815 0.62715 -0.24600
C 	C 	0.67176 0.75499 0.20833 -0.48200
C 	C 	0.62210 0.75810 0.15691 0.01600
C 	C 	0.56568 0.75671 0.09459 -0.07800
C 	C 	0.48742 0.75470 0.09204 -0.02600
H 	H 	0.47180 0.75550 0.13020 -0.05200
C 	C 	0.43335 0.75155 0.03245 -0.08100
H 	H 	0.38140 0.75070 0.03060 0.01100
C 	C 	0.45724 0.74973 0.97543 -0.00500
C 	C 	0.53541 0.75210 0.97735 -0.06200
H 	H 	0.55090 0.75090 0.93910 0.00200
C 	C 	0.58912 0.75633 0.03689 -0.02900
H 	H 	0.64100 0.75890 0.03860 -0.01100
C 	C 	0.39957 0.74469 0.91469 0.03500
N 	N 	0.35182 0.73961 0.86749 -0.24200
Ag	Ag	0.15067 0.44033 0.81721 0.35900
Ag	Ag	0.23429 0.32660 0.79295 0.37100
Ag	Ag	0.29113 0.45918 0.78983 0.39700
Ag	Ag	0.21052 0.56666 0.70306 0.38500
Ag	Ag	0.37000 0.59014 0.70149 0.36200
Ag	Ag	0.27727 0.69319 0.77083 0.37600
Ag	Ag	0.11461 0.66495 0.75588 0.34100
Ag	Ag	0.17596 0.79720 0.79996 0.36000
C 	C 	0.18613 0.41103 0.72898 -0.46500
C 	C 	0.14424 0.41000 0.67411 0.03300
C 	C 	0.08957 0.41114 0.61134 -0.07300
C 	C 	0.01117 0.41520 0.60870 -0.03400
H 	H 	0.99550 0.41550 0.64690 -0.03200
C 	C 	0.95731 0.41881 0.54938 -0.07300
H 	H 	0.90540 0.42160 0.54750 0.00800
C 	C 	0.98157 0.41826 0.49208 -0.01200
C 	C 	0.05928 0.41375 0.49413 -0.05800
H 	H 	0.07470 0.41320 0.45580 0.00400
C 	C 	0.11323 0.41013 0.55372 -0.03300
H 	H 	0.16510 0.40700 0.55550 -0.00800
C 	C 	0.92512 0.42302 0.43086 0.04000
N 	N 	0.87998 0.42757 0.38219 -0.25100
C 	C 	0.30570 0.57731 0.78288 -0.48000
C 	C 	0.35293 0.57793 0.83562 0.01200
C 	C 	0.40822 0.58049 0.89785 -0.07000
C 	C 	0.38335 0.58320 0.95489 -0.03800
H 	H 	0.33120 0.58380 0.95240 -0.01100
C 	C 	0.43635 0.58502 0.01485 -0.05600
H 	H 	0.42030 0.58690 0.05290 -0.00500
C 	C 	0.51420 0.58407 0.01731 -0.01300
C 	C 	0.53985 0.58206 0.96102 -0.07000
H 	H 	0.59210 0.58210 0.96370 0.00800
C 	C 	0.48672 0.57998 0.90117 -0.03300
H 	H 	0.50300 0.57830 0.86330 -0.03400
C 	C 	0.57091 0.58360 0.07894 0.03700
N 	N 	0.61714 0.58185 0.12715 -0.24600
C 	C 	0.17176 0.74501 0.70833 -0.48300
C 	C 	0.12210 0.74190 0.65691 0.01700
C 	C 	0.06568 0.74329 0.59459 -0.08000
C 	C 	0.98742 0.74530 0.59204 -0.02500
H 	H 	0.97180 0.74450 0.63020 -0.05200
C 	C 	0.93335 0.74845 0.53245 -0.08200
H 	H 	0.88140 0.74930 0.53060 0.01200
C 	C 	0.95724 0.75027 0.47543 -0.00400
C 	C 	0.03541 0.74790 0.47735 -0.06400
H 	H 	0.05090 0.74910 0.43910 0.00300
C 	C 	0.08912 0.74367 0.53689 -0.02700
H 	H 	0.14100 0.74110 0.53860 -0.01100
C 	C 	0.89957 0.75531 0.41469 0.03500
N 	N 	0.85182 0.76039 0.36749 -0.24200
Ag	Ag	0.34933 0.94033 0.68279 0.36000
Ag	Ag	0.26571 0.82660 0.70705 0.37100
Ag	Ag	0.20887 0.95918 0.71018 0.39700
Ag	Ag	0.28948 0.06666 0.79694 0.38500
Ag	Ag	0.13000 0.09014 0.79851 0.36200
Ag	Ag	0.22273 0.19319 0.72917 0.37600
Ag	Ag	0.38539 0.16495 0.74412 0.34200
Ag	Ag	0.32404 0.29720 0.70004 0.36100
C 	C 	0.31387 0.91103 0.77102 -0.46500
C 	C 	0.35576 0.91000 0.82589 0.03300
C 	C 	0.41043 0.91114 0.88866 -0.07300
C 	C 	0.48883 0.91520 0.89130 -0.03400
H 	H 	0.50450 0.91550 0.85310 -0.03200
C 	C 	0.54269 0.91881 0.95062 -0.07200
H 	H 	0.59460 0.92160 0.95250 0.00800
C 	C 	0.51843 0.91826 0.00792 -0.01300
C 	C 	0.44072 0.91375 0.00587 -0.05900
H 	H 	0.42530 0.91320 0.04420 0.00400
C 	C 	0.38677 0.91013 0.94628 -0.03100
H 	H 	0.33490 0.90700 0.94450 -0.00800
C 	C 	0.57488 0.92302 0.06914 0.04000
N 	N 	0.62002 0.92757 0.11781 -0.25100
C 	C 	0.19430 0.07731 0.71712 -0.48000
C 	C 	0.14707 0.07793 0.66438 0.01300
C 	C 	0.09178 0.08049 0.60215 -0.07100
C 	C 	0.11665 0.08320 0.54511 -0.03700
H 	H 	0.16880 0.08380 0.54760 -0.01000
C 	C 	0.06365 0.08502 0.48515 -0.05500
H 	H 	0.07970 0.08690 0.44710 -0.00500
C 	C 	0.98580 0.08407 0.48269 -0.01300
C 	C 	0.96015 0.08206 0.53898 -0.07200
H 	H 	0.90790 0.08210 0.53630 0.00900
C 	C 	0.01328 0.07998 0.59883 -0.03000
H 	H 	0.99700 0.07830 0.63670 -0.03600
C 	C 	0.92909 0.08360 0.42106 0.03600
N 	N 	0.88286 0.08185 0.37285 -0.24600
C 	C 	0.32824 0.24501 0.79167 -0.48200
C 	C 	0.37790 0.24190 0.84309 0.01600
C 	C 	0.43432 0.24329 0.90541 -0.07800
C 	C 	0.51258 0.24530 0.90796 -0.02600
H 	H 	0.52820 0.24450 0.86980 -0.05200
C 	C 	0.56665 0.24845 0.96755 -0.08100
H 	H 	0.61860 0.24930 0.96940 0.01100
C 	C 	0.54276 0.25027 0.02457 -0.00500
C 	C 	0.46459 0.24790 0.02265 -0.06200
H 	H 	0.44910 0.24910 0.06090 0.00200
C 	C 	0.41088 0.24367 0.96311 -0.02900
H 	H 	0.35900 0.24110 0.96140 -0.01100
C 	C 	0.60043 0.25531 0.08531 0.03500
N 	N 	0.64818 0.26039 0.13251 -0.24200
Ag	Ag	0.28323 0.49976 0.21552 0.36700
Ag	Ag	0.18459 0.48187 0.30204 0.35900
Ag	Ag	0.12202 0.34597 0.26434 0.34300
Ag	Ag	0.28573 0.36730 0.28483 0.38100
Ag	Ag	0.21687 0.24273 0.21148 0.38700
Ag	Ag	0.37192 0.26491 0.20135 0.36300
Ag	Ag	0.29032 0.12532 0.28393 0.39000
Ag	Ag	0.14704 0.12288 0.30934 0.35600
C 	C 	0.18633 0.42073 0.21685 -0.48400
C 	C 	0.13754 0.41724 0.16457 0.01000
C 	C 	0.08425 0.41636 0.10120 -0.07700
C 	C 	0.11127 0.41127 0.04535 -0.03300
H 	H 	0.16360 0.40800 0.04930 -0.01300
C 	C 	0.06011 0.41105 0.98437 -0.06200
H 	H 	0.07780 0.40830 0.94730 -0.00400
C 	C 	0.98163 0.41494 0.97924 -0.00900
C 	C 	0.95383 0.42012 0.03443 -0.07800
H 	H 	0.90140 0.42270 0.03030 0.01100
C 	C 	0.00510 0.42135 0.09518 -0.02700
H 	H 	0.98720 0.42550 0.13210 -0.04700
C 	C 	0.92748 0.41183 0.91655 0.03700
N 	N 	0.88319 0.40779 0.86751 -0.24400
C 	C 	0.31376 0.24971 0.28727 -0.47700
C 	C 	0.36026 0.25157 0.33974 0.02500
C 	C 	0.41590 0.25197 0.40165 -0.07200
C 	C 	0.39189 0.25339 0.45902 -0.03400
H 	H 	0.33990 0.25460 0.45700 -0.00800
C 	C 	0.44580 0.25300 0.51882 -0.05700
H 	H 	0.43060 0.25340 0.55730 -0.00100
C 	C 	0.52295 0.25207 0.51992 -0.01300
C 	C 	0.54816 0.25156 0.46310 -0.07100
H 	H 	0.60020 0.25140 0.46530 0.00900
C 	C 	0.49406 0.25135 0.40382 -0.03100
H 	H 	0.50950 0.25080 0.36550 -0.03400
C 	C 	0.58014 0.25268 0.58091 0.04100
N 	N 	0.62643 0.25348 0.62860 -0.25600
C 	C 	0.18145 0.08815 0.22088 -0.46900
C 	C 	0.13639 0.08489 0.16752 0.04000
C 	C 	0.07941 0.08301 0.10622 -0.08100
C 	C 	0.10009 0.08381 0.04715 -0.02200
H 	H 	0.15160 0.08400 0.04740 -0.01000
C 	C 	0.04416 0.08430 0.98845 -0.06600
H 	H 	0.05790 0.08520 0.94940 0.00700
C 	C 	0.96687 0.08345 0.98867 -0.00400
C 	C 	0.94561 0.08210 0.04727 -0.08400
H 	H 	0.89410 0.08150 0.04700 0.01200
C 	C 	0.00177 0.08168 0.10543 -0.02300
H 	H 	0.98780 0.08050 0.14440 -0.03800
C 	C 	0.90751 0.08552 0.92887 0.03500
N 	N 	0.85910 0.08838 0.88181 -0.24000
Ag	Ag	0.21677 0.99976 0.28448 0.36700
Ag	Ag	0.31541 0.98187 0.19796 0.35900
Ag	Ag	0.37798 0.84597 0.23566 0.34300
Ag	Ag	0.21427 0.86730 0.21517 0.38100
Ag	Ag	0.28313 0.74273 0.28852 0.38700
Ag	Ag	0.12808 0.76491 0.29865 0.36300
Ag	Ag	0.20968 0.62532 0.21607 0.39000
Ag	Ag	0.35296 0.62288 0.19066 0.35600
C 	C 	0.31367 0.92073 0.28315 -0.48300
C 	C 	0.36246 0.91724 0.33543 0.00900
C 	C 	0.41575 0.91636 0.39880 -0.07500
C 	C 	0.38873 0.91127 0.45465 -0.03600
H 	H 	0.33640 0.90800 0.45070 -0.01200
C 	C 	0.43989 0.91105 0.51563 -0.05800
H 	H 	0.42220 0.90830 0.55270 -0.00500
C 	C 	0.51837 0.91494 0.52076 -0.01100
C 	C 	0.54617 0.92012 0.46557 -0.07400
H 	H 	0.59860 0.92270 0.46970 0.01000
C 	C 	0.49490 0.92135 0.40482 -0.03100
H 	H 	0.51280 0.92550 0.36790 -0.04500
C 	C 	0.57252 0.91183 0.58345 0.03800
N 	N 	0.61681 0.90779 0.63249 -0.24500
C 	C 	0.18624 0.74971 0.21273 -0.47800
C 	C 	0.13974 0.75157 0.16026 0.02500
C 	C 	0.08410 0.75197 0.09835 -0.07300
C 	C 	0.10811 0.75339 0.04098 -0.03200
H 	H 	0.16010 0.75460 0.04300 -0.00900
C 	C 	0.05420 0.75300 0.98118 -0.06000
H 	H 	0.06940 0.75340 0.94270 -0.00000
C 	C 	0.97705 0.75207 0.98008 -0.01000
C 	C 	0.95184 0.75156 0.03690 -0.07400
H 	H 	0.89980 0.75140 0.03470 0.01000
C 	C 	0.00594 0.75135 0.09618 -0.03000
H 	H 	0.99050 0.75080 0.13450 -0.03500
C 	C 	0.91986 0.75268 0.91909 0.04000
N 	N 	0.87357 0.75348 0.87140 -0.25600
C 	C 	0.31855 0.58815 0.27912 -0.46900
C 	C 	0.36361 0.58489 0.33248 0.03800
C 	C 	0.42059 0.58301 0.39378 -0.07700
C 	C 	0.39991 0.58381 0.45285 -0.02700
H 	H 	0.34840 0.58400 0.45260 -0.00900
C 	C 	0.45584 0.58430 0.51155 -0.06100
H 	H 	0.44210 0.58520 0.55060 0.00600
C 	C 	0.53313 0.58345 0.51133 -0.00700
C 	C 	0.55439 0.58210 0.45273 -0.07900
H 	H 	0.60590 0.58150 0.45300 0.01100
C 	C 	0.49823 0.58168 0.39457 -0.02900
H 	H 	0.51220 0.58050 0.35560 -0.03500
C 	C 	0.59249 0.58552 0.57113 0.03700
N 	N 	0.64090 0.58838 0.61819 -0.24000
Ag	Ag	0.71677 0.50024 0.78448 0.36700
Ag	Ag	0.81541 0.51813 0.69796 0.35900
Ag	Ag	0.87798 0.65403 0.73566 0.34300
Ag	Ag	0.71427 0.63270 0.71517 0.38100
Ag	Ag	0.78313 0.75727 0.78852 0.38700
Ag	Ag	0.62808 0.73509 0.79865 0.36300
Ag	Ag	0.70968 0.87468 0.71607 0.39000
Ag	Ag	0.85296 0.87712 0.69066 0.35600
C 	C 	0.81367 0.57927 0.78315 -0.48400
C 	C 	0.86246 0.58276 0.83543 0.01000
C 	C 	0.91575 0.58364 0.89880 -0.07700
C 	C 	0.88873 0.58873 0.95465 -0.03300
H 	H 	0.83640 0.59200 0.95070 -0.01300
C 	C 	0.93989 0.58895 0.01563 -0.06200
H 	H 	0.92220 0.59170 0.05270 -0.00400
C 	C 	0.01837 0.58506 0.02076 -0.00900
C 	C 	0.04617 0.57988 0.96557 -0.07800
H 	H 	0.09860 0.57730 0.96970 0.01100
C 	C 	0.99490 0.57865 0.90482 -0.02700
H 	H 	0.01280 0.57450 0.86790 -0.04700
C 	C 	0.07252 0.58817 0.08345 0.03700
N 	N 	0.11681 0.59221 0.13249 -0.24400
C 	C 	0.68624 0.75029 0.71273 -0.47700
C 	C 	0.63974 0.74843 0.66026 0.02500
C 	C 	0.58410 0.74803 0.59835 -0.07200
C 	C 	0.60811 0.74661 0.54098 -0.03400
H 	H 	0.66010 0.74540 0.54300 -0.00800
C 	C 	0.55420 0.74700 0.48118 -0.05700
H 	H 	0.56940 0.74660 0.44270 -0.00100
C 	C 	0.47705 0.74793 0.48008 -0.01300
C 	C 	0.45184 0.74844 0.53690 -0.07100
H 	H 	0.39980 0.74860 0.53470 0.00900
C 	C 	0.50594 0.74865 0.59618 -0.03100
H 	H 	0.49050 0.74920 0.63450 -0.03400
C 	C 	0.41986 0.74732 0.41909 0.04100
N 	N 	0.37357 0.74652 0.37140 -0.25600
C 	C 	0.81855 0.91185 0.77912 -0.46900
C 	C 	0.86361 0.91511 0.83248 0.04000
C 	C 	0.92059 0.91699 0.89378 -0.08100
C 	C 	0.89991 0.91619 0.95285 -0.02200
H 	H 	0.84840 0.91600 0.95260 -0.01000
C 	C 	0.95584 0.91570 0.01155 -0.06600
H 	H 	0.94210 0.91480 0.05060 0.00700
C 	C 	0.03313 0.91655 0.01133 -0.00400
C 	C 	0.05439 0.91790 0.95273 -0.08400
H 	H 	0.10590 0.91850 0.95300 0.01200
C 	C 	0.99823 0.91832 0.89457 -0.02300
H 	H 	0.01220 0.91950 0.85560 -0.03800
C 	C 	0.09249 0.91448 0.07113 0.03500
N 	N 	0.14090 0.91162 0.11819 -0.24000
Ag	Ag	0.78323 0.00024 0.71552 0.36700
Ag	Ag	0.68459 0.01813 0.80204 0.35900
Ag	Ag	0.62202 0.15403 0.76434 0.34300
Ag	Ag	0.78573 0.13270 0.78483 0.38100
Ag	Ag	0.71687 0.25727 0.71148 0.38700
Ag	Ag	0.87192 0.23509 0.70135 0.36300
Ag	Ag	0.79032 0.37468 0.78393 0.39000
Ag	Ag	0.64704 0.37712 0.80934 0.35600
C 	C 	0.68633 0.07927 0.71685 -0.48300
C 	C 	0.63754 0.08276 0.66457 0.00900
C 	C 	0.58425 0.08364 0.60120 -0.07500
C 	C 	0.61127 0.08873 0.54535 -0.03600
H 	H 	0.66360 0.09200 0.54930 -0.01200
C 	C 	0.56011 0.08895 0.48437 -0.05800
H 	H 	0.57780 0.09170 0.44730 -0.00500
C 	C 	0.48163 0.08506 0.47924 -0.01100
C 	C 	0.45383 0.07988 0.53443 -0.07400
H 	H 	0.40140 0.07730 0.53030 0.01000
C 	C 	0.50510 0.07865 0.59518 -0.03100
H 	H 	0.48720 0.07450 0.63210 -0.04500
C 	C 	0.42748 0.08817 0.41655 0.03800
N 	N 	0.38319 0.09221 0.36751 -0.24500
C 	C 	0.81376 0.25029 0.78727 -0.47800
C 	C 	0.86026 0.24843 0.83974 0.02500
C 	C 	0.91590 0.24803 0.90165 -0.07300
C 	C 	0.89189 0.24661 0.95902 -0.03200
H 	H 	0.83990 0.24540 0.95700 -0.00900
C 	C 	0.94580 0.24700 0.01882 -0.06000
H 	H 	0.93060 0.24660 0.05730 -0.00000
C 	C 	0.02295 0.24793 0.01992 -0.01000
C 	C 	0.04816 0.24844 0.96310 -0.07400
H 	H 	0.10020 0.24860 0.96530 0.01000
C 	C 	0.99406 0.24865 0.90382 -0.03000
H 	H 	0.00950 0.24920 0.86550 -0.03500
C 	C 	0.08014 0.24732 0.08091 0.04000
N 	N 	0.12643 0.24652 0.12860 -0.25600
C 	C 	0.68145 0.41185 0.72088 -0.46900
C 	C 	0.63639 0.41511 0.66752 0.03800
C 	C 	0.57941 0.41699 0.60622 -0.07700
C 	C 	0.60009 0.41619 0.54715 -0.02700
H 	H 	0.65160 0.41600 0.54740 -0.00900
C 	C 	0.54416 0.41570 0.48845 -0.06100
H 	H 	0.55790 0.41480 0.44940 0.00600
C 	C 	0.46687 0.41655 0.48867 -0.00700
C 	C 	0.44561 0.41790 0.54727 -0.07900
H 	H 	0.39410 0.41850 0.54700 0.01100
C 	C 	0.50177 0.41832 0.60543 -0.02900
H 	H 	0.48780 0.41950 0.64440 -0.03500
C 	C 	0.40751 0.41448 0.42887 0.03700
N 	N 	0.35910 0.41162 0.38181 -0.24000
