data_crystal

_cell_length_a 10.93800
_cell_length_b 10.93800
_cell_length_c 34.55500
_cell_angle_alpha 90.00000
_cell_angle_beta  90.00000
_cell_angle_gamma 120.00000

_symmetry_space_group_name_	'P 1'
_symmetry_space_group_name_H-M	'P 1'

loop_
_symmetry_equiv_pos_as_xyz
  x,y,z

loop_
_atom_site_label
_atom_site_type_symbol
_atom_site_fract_x
_atom_site_fract_y
_atom_site_fract_z
_atom_site_charge
N 	N 	0.18620 0.08390 0.03549 -0.19800
N 	N 	0.21020 0.17570 0.06640 -0.10700
N 	N 	0.31420 0.05440 0.07730 -0.10900
N 	N 	0.37350 0.98830 0.09713 -0.06700
N 	N 	0.51490 0.91180 0.11350 -0.06700
N 	N 	0.38800 0.83740 0.13368 -0.21400
C 	C 	0.24930 0.01240 0.04260 0.01500
C 	C 	0.28660 0.15430 0.09110 0.08600
C 	C 	0.50190 0.00060 0.09140 0.00500
C 	C 	0.30650 0.88610 0.12380 0.10800
H 	H 	0.25500 0.94300 0.02800 0.05200
H 	H 	0.32600 0.20200 0.11500 0.01400
H 	H 	0.56600 0.06700 0.07600 0.04300
H 	H 	0.21200 0.85900 0.13200 0.01000
N 	N 	0.85287 0.41723 0.36882 -0.19800
N 	N 	0.87687 0.50903 0.39973 -0.09400
N 	N 	0.98087 0.38773 0.41063 -0.08600
N 	N 	0.04017 0.32163 0.43046 -0.14700
N 	N 	0.18157 0.24513 0.44683 -0.10400
N 	N 	0.05467 0.17073 0.46701 -0.25200
C 	C 	0.91597 0.34573 0.37593 0.09600
C 	C 	0.95327 0.48763 0.42443 0.09700
C 	C 	0.16857 0.33393 0.42473 0.08900
C 	C 	0.97317 0.21943 0.45713 0.18100
H 	H 	0.92167 0.27633 0.36133 0.01200
H 	H 	0.99267 0.53533 0.44833 0.03300
H 	H 	0.23267 0.40033 0.40933 0.01400
H 	H 	0.87867 0.19233 0.46533 -0.01600
N 	N 	0.51953 0.75057 0.70216 -0.19800
N 	N 	0.54353 0.84237 0.73307 -0.09300
N 	N 	0.64753 0.72107 0.74397 -0.10100
N 	N 	0.70683 0.65497 0.76380 -0.10400
N 	N 	0.84823 0.57847 0.78017 -0.09400
N 	N 	0.72133 0.50407 0.80035 -0.21400
C 	C 	0.58263 0.67907 0.70927 0.09700
C 	C 	0.61993 0.82097 0.75777 0.09800
C 	C 	0.83523 0.66727 0.75807 0.09900
C 	C 	0.63983 0.55277 0.79047 0.10600
H 	H 	0.58833 0.60967 0.69467 0.00800
H 	H 	0.65933 0.86867 0.78167 0.03000
H 	H 	0.89933 0.73367 0.74267 0.03100
H 	H 	0.54533 0.52567 0.79867 0.00900
N 	N 	0.91610 0.10230 0.03549 -0.20900
N 	N 	0.82430 0.03450 0.06640 -0.10800
N 	N 	0.94560 0.25980 0.07730 -0.09900
N 	N 	0.01170 0.38520 0.09713 -0.14600
N 	N 	0.08820 0.60310 0.11350 -0.13300
N 	N 	0.16260 0.55060 0.13368 -0.21700
C 	C 	0.98760 0.23690 0.04260 0.16500
C 	C 	0.84570 0.13230 0.09110 0.09300
C 	C 	0.99940 0.50130 0.09140 0.18100
C 	C 	0.11390 0.42040 0.12380 0.09900
H 	H 	0.05700 0.31200 0.02800 -0.04300
H 	H 	0.79800 0.12400 0.11500 0.01700
H 	H 	0.93300 0.49900 0.07600 -0.01000
H 	H 	0.14100 0.35300 0.13200 0.00200
N 	N 	0.58277 0.43563 0.36882 -0.20000
N 	N 	0.49097 0.36783 0.39973 -0.10100
N 	N 	0.61227 0.59313 0.41063 -0.10200
N 	N 	0.67837 0.71853 0.43046 -0.10500
N 	N 	0.75487 0.93643 0.44683 -0.08700
N 	N 	0.82927 0.88393 0.46701 -0.19800
C 	C 	0.65427 0.57023 0.37593 0.09300
C 	C 	0.51237 0.46563 0.42443 0.09300
C 	C 	0.66607 0.83463 0.42473 0.10100
C 	C 	0.78057 0.75373 0.45713 0.10900
H 	H 	0.72367 0.64533 0.36133 0.01400
H 	H 	0.46467 0.45733 0.44833 0.01900
H 	H 	0.59967 0.83233 0.40933 0.02500
H 	H 	0.80767 0.68633 0.46533 0.01600
N 	N 	0.24943 0.76897 0.70216 -0.20000
N 	N 	0.15763 0.70117 0.73307 -0.10500
N 	N 	0.27893 0.92647 0.74397 -0.08800
N 	N 	0.34503 0.05187 0.76380 -0.12400
N 	N 	0.42153 0.26977 0.78017 -0.10300
N 	N 	0.49593 0.21727 0.80035 -0.21600
C 	C 	0.32093 0.90357 0.70927 0.09300
C 	C 	0.17903 0.79897 0.75777 0.09100
C 	C 	0.33273 0.16797 0.75807 0.09200
C 	C 	0.44723 0.08707 0.79047 0.10000
H 	H 	0.39033 0.97867 0.69467 0.01900
H 	H 	0.13133 0.79067 0.78167 0.01600
H 	H 	0.26633 0.16567 0.74267 0.00600
H 	H 	0.47433 0.01967 0.79867 -0.00200
N 	N 	0.89770 0.81380 0.03549 -0.18500
N 	N 	0.96550 0.78980 0.06640 -0.08300
N 	N 	0.74020 0.68580 0.07730 -0.10300
N 	N 	0.61480 0.62650 0.09713 -0.10400
N 	N 	0.39690 0.48510 0.11350 -0.10200
N 	N 	0.44940 0.61200 0.13368 -0.21500
C 	C 	0.76310 0.75070 0.04260 0.09800
C 	C 	0.86770 0.71340 0.09110 0.09900
C 	C 	0.49870 0.49810 0.09140 0.09500
C 	C 	0.57960 0.69350 0.12380 0.10400
H 	H 	0.68800 0.74500 0.02800 0.00800
H 	H 	0.87600 0.67400 0.11500 0.02700
H 	H 	0.50100 0.43400 0.07600 0.01600
H 	H 	0.64700 0.78800 0.13200 0.01700
N 	N 	0.56437 0.14713 0.36882 -0.20200
N 	N 	0.63217 0.12313 0.39973 -0.10300
N 	N 	0.40687 0.01913 0.41063 -0.12200
N 	N 	0.28147 0.95983 0.43046 -0.06500
N 	N 	0.06357 0.81843 0.44683 -0.11000
N 	N 	0.11607 0.94533 0.46701 -0.18000
C 	C 	0.42977 0.08403 0.37593 0.09100
C 	C 	0.53437 0.04673 0.42443 0.09000
C 	C 	0.16537 0.83143 0.42473 0.09700
C 	C 	0.24627 0.02683 0.45713 0.02100
H 	H 	0.35467 0.07833 0.36133 -0.00400
H 	H 	0.54267 0.00733 0.44833 0.00700
H 	H 	0.16767 0.76733 0.40933 0.01300
H 	H 	0.31367 0.12133 0.46533 0.03200
N 	N 	0.23103 0.48047 0.70216 -0.20100
N 	N 	0.29883 0.45647 0.73307 -0.10000
N 	N 	0.07353 0.35247 0.74397 -0.12100
N 	N 	0.94813 0.29317 0.76380 -0.08900
N 	N 	0.73023 0.15177 0.78017 -0.10600
N 	N 	0.78273 0.27867 0.80035 -0.21400
C 	C 	0.09643 0.41737 0.70927 0.09000
C 	C 	0.20103 0.38007 0.75777 0.09000
C 	C 	0.83203 0.16477 0.75807 0.09500
C 	C 	0.91293 0.36017 0.79047 0.10600
H 	H 	0.02133 0.41167 0.69467 -0.00600
H 	H 	0.20933 0.34067 0.78167 0.01200
H 	H 	0.83433 0.10067 0.74267 0.01500
H 	H 	0.98033 0.45467 0.79867 0.02200
N 	N 	0.81380 0.91610 0.96451 -0.19200
N 	N 	0.78980 0.82430 0.93360 -0.09000
N 	N 	0.68580 0.94560 0.92270 -0.09800
N 	N 	0.62650 0.01170 0.90287 -0.14200
N 	N 	0.48510 0.08820 0.88650 -0.13300
N 	N 	0.61200 0.16260 0.86632 -0.21600
C 	C 	0.75070 0.98760 0.95740 0.16600
C 	C 	0.71340 0.84570 0.90890 0.10000
C 	C 	0.49810 0.99940 0.90860 0.18000
C 	C 	0.69350 0.11390 0.87620 0.10000
H 	H 	0.74500 0.05700 0.97200 -0.03100
H 	H 	0.67400 0.79800 0.88500 0.02400
H 	H 	0.43400 0.93300 0.92400 -0.00700
H 	H 	0.78800 0.14100 0.86800 0.01100
N 	N 	0.48047 0.24943 0.29784 -0.20100
N 	N 	0.45647 0.15763 0.26693 -0.10600
N 	N 	0.35247 0.27893 0.25603 -0.10600
N 	N 	0.29317 0.34503 0.23620 -0.10800
N 	N 	0.15177 0.42153 0.21983 -0.10800
N 	N 	0.27867 0.49593 0.19965 -0.21600
C 	C 	0.41737 0.32093 0.29073 0.09000
C 	C 	0.38007 0.17903 0.24223 0.08800
C 	C 	0.16477 0.33273 0.24193 0.09200
C 	C 	0.36017 0.44723 0.20953 0.10200
H 	H 	0.41167 0.39033 0.30533 0.00600
H 	H 	0.34067 0.13133 0.21833 0.00800
H 	H 	0.10067 0.26633 0.25733 0.00200
H 	H 	0.45467 0.47433 0.20133 0.01000
N 	N 	0.14713 0.58277 0.63118 -0.20200
N 	N 	0.12313 0.49097 0.60027 -0.10500
N 	N 	0.01913 0.61227 0.58937 -0.12000
N 	N 	0.95983 0.67837 0.56954 -0.06600
N 	N 	0.81843 0.75487 0.55317 -0.09700
N 	N 	0.94533 0.82927 0.53299 -0.17100
C 	C 	0.08403 0.65427 0.62407 0.09100
C 	C 	0.04673 0.51237 0.57557 0.09000
C 	C 	0.83143 0.66607 0.57527 0.10100
C 	C 	0.02683 0.78057 0.54287 0.03200
H 	H 	0.07833 0.72367 0.63867 0.00300
H 	H 	0.00733 0.46467 0.55167 0.00600
H 	H 	0.76733 0.59967 0.59067 0.02000
H 	H 	0.12133 0.80767 0.53467 0.03600
N 	N 	0.08390 0.89770 0.96451 -0.18000
N 	N 	0.17570 0.96550 0.93360 -0.08900
N 	N 	0.05440 0.74020 0.92270 -0.10800
N 	N 	0.98830 0.61480 0.90287 -0.06600
N 	N 	0.91180 0.39690 0.88650 -0.06800
N 	N 	0.83740 0.44940 0.86632 -0.21300
C 	C 	0.01240 0.76310 0.95740 0.02800
C 	C 	0.15430 0.86770 0.90890 0.09400
C 	C 	0.00060 0.49870 0.90860 0.00700
C 	C 	0.88610 0.57960 0.87620 0.10900
H 	H 	0.94300 0.68800 0.97200 0.05600
H 	H 	0.20200 0.87600 0.88500 0.02200
H 	H 	0.06700 0.50100 0.92400 0.04400
H 	H 	0.85900 0.64700 0.86800 0.01700
N 	N 	0.75057 0.23103 0.29784 -0.20000
N 	N 	0.84237 0.29883 0.26693 -0.09400
N 	N 	0.72107 0.07353 0.25603 -0.11800
N 	N 	0.65497 0.94813 0.23620 -0.08800
N 	N 	0.57847 0.73023 0.21983 -0.09900
N 	N 	0.50407 0.78273 0.19965 -0.21400
C 	C 	0.67907 0.09643 0.29073 0.09300
C 	C 	0.82097 0.20103 0.24223 0.09500
C 	C 	0.66727 0.83203 0.24193 0.09800
C 	C 	0.55277 0.91293 0.20953 0.10700
H 	H 	0.60967 0.02133 0.30533 -0.00400
H 	H 	0.86867 0.20933 0.21833 0.02300
H 	H 	0.73367 0.83433 0.25733 0.02700
H 	H 	0.52567 0.98033 0.20133 0.02200
N 	N 	0.41723 0.56437 0.63118 -0.20000
N 	N 	0.50903 0.63217 0.60027 -0.09800
N 	N 	0.38773 0.40687 0.58937 -0.10500
N 	N 	0.32163 0.28147 0.56954 -0.10700
N 	N 	0.24513 0.06357 0.55317 -0.11500
N 	N 	0.17073 0.11607 0.53299 -0.22300
C 	C 	0.34573 0.42977 0.62407 0.09300
C 	C 	0.48763 0.53437 0.57557 0.09400
C 	C 	0.33393 0.16537 0.57527 0.08900
C 	C 	0.21943 0.24627 0.54287 0.09900
H 	H 	0.27633 0.35467 0.63867 0.00100
H 	H 	0.53533 0.54267 0.55167 0.02000
H 	H 	0.40033 0.16767 0.59067 0.01000
H 	H 	0.19233 0.31367 0.53467 0.00400
N 	N 	0.10230 0.18620 0.96451 -0.20600
N 	N 	0.03450 0.21020 0.93360 -0.11500
N 	N 	0.25980 0.31420 0.92270 -0.10400
N 	N 	0.38520 0.37350 0.90287 -0.10700
N 	N 	0.60310 0.51490 0.88650 -0.10000
N 	N 	0.55060 0.38800 0.86632 -0.21500
C 	C 	0.23690 0.24930 0.95740 0.08900
C 	C 	0.13230 0.28660 0.90890 0.08700
C 	C 	0.50130 0.50190 0.90860 0.09600
C 	C 	0.42040 0.30650 0.87620 0.10400
H 	H 	0.31200 0.25500 0.97200 0.00800
H 	H 	0.12400 0.32600 0.88500 0.01100
H 	H 	0.49900 0.56600 0.92400 0.01800
H 	H 	0.35300 0.21200 0.86800 0.00200
N 	N 	0.76897 0.51953 0.29784 -0.19800
N 	N 	0.70117 0.54353 0.26693 -0.09800
N 	N 	0.92647 0.64753 0.25603 -0.08700
N 	N 	0.05187 0.70683 0.23620 -0.12000
N 	N 	0.26977 0.84823 0.21983 -0.09500
N 	N 	0.21727 0.72133 0.19965 -0.21600
C 	C 	0.90357 0.58263 0.29073 0.09700
C 	C 	0.79897 0.61993 0.24223 0.09700
C 	C 	0.16797 0.83523 0.24193 0.09600
C 	C 	0.08707 0.63983 0.20953 0.10300
H 	H 	0.97867 0.58833 0.30533 0.01900
H 	H 	0.79067 0.65933 0.21833 0.02600
H 	H 	0.16567 0.89933 0.25733 0.02200
H 	H 	0.01967 0.54533 0.20133 -0.00200
N 	N 	0.43563 0.85287 0.63118 -0.19800
N 	N 	0.36783 0.87687 0.60027 -0.09500
N 	N 	0.59313 0.98087 0.58937 -0.08600
N 	N 	0.71853 0.04017 0.56954 -0.14300
N 	N 	0.93643 0.18157 0.55317 -0.08900
N 	N 	0.88393 0.05467 0.53299 -0.23500
C 	C 	0.57023 0.91597 0.62407 0.09600
C 	C 	0.46563 0.95327 0.57557 0.09600
C 	C 	0.83463 0.16857 0.57527 0.09500
C 	C 	0.75373 0.97317 0.54287 0.17800
H 	H 	0.64533 0.92167 0.63867 0.01800
H 	H 	0.45733 0.99267 0.55167 0.03300
H 	H 	0.83233 0.23267 0.59067 0.02200
H 	H 	0.68633 0.87867 0.53467 -0.00900
Fe	Fe	-0.00000 0.00000 -0.00000 1.09400
Fe	Fe	0.66667 0.33333 0.33333 1.13700
Fe	Fe	0.33333 0.66667 0.66667 1.13700
Fe	Fe	0.66667 0.33333 0.83333 1.17400
Fe	Fe	0.33333 0.66667 0.16667 1.17400
Fe	Fe	-0.00000 0.00000 0.50000 1.13500
