data_crystal

_cell_length_a 10.97100
_cell_length_b 10.97100
_cell_length_c 35.51700
_cell_angle_alpha 90.00000
_cell_angle_beta  90.00000
_cell_angle_gamma 120.00000

_symmetry_space_group_name_	'P 1'
_symmetry_space_group_name_H-M	'P 1'

loop_
_symmetry_equiv_pos_as_xyz
  x,y,z

loop_
_atom_site_label
_atom_site_type_symbol
_atom_site_fract_x
_atom_site_fract_y
_atom_site_fract_z
_atom_site_charge
N 	N 	0.18670 0.08410 0.03465 -0.19900
N 	N 	0.20970 0.17520 0.06453 -0.10800
N 	N 	0.31370 0.05530 0.07556 -0.11000
N 	N 	0.37470 0.99180 0.09484 -0.06900
N 	N 	0.52010 0.92340 0.11170 -0.06900
N 	N 	0.39760 0.85220 0.13245 -0.19900
C 	C 	0.24890 0.01320 0.04190 0.02400
C 	C 	0.28490 0.15450 0.08870 0.08800
C 	C 	0.50320 0.00560 0.08910 0.01700
C 	C 	0.31290 0.89540 0.12200 0.10300
H 	H 	0.25200 0.94400 0.02600 0.04600
H 	H 	0.32000 0.20000 0.11200 0.01400
H 	H 	0.57000 0.06400 0.07000 0.03600
H 	H 	0.22100 0.86600 0.12800 0.00700
N 	N 	0.85337 0.41743 0.36798 -0.19800
N 	N 	0.87637 0.50853 0.39786 -0.09500
N 	N 	0.98037 0.38863 0.40889 -0.08700
N 	N 	0.04137 0.32513 0.42817 -0.14700
N 	N 	0.18677 0.25673 0.44503 -0.10400
N 	N 	0.06427 0.18553 0.46578 -0.23700
C 	C 	0.91557 0.34653 0.37523 0.09900
C 	C 	0.95157 0.48783 0.42203 0.09700
C 	C 	0.16987 0.33893 0.42243 0.08800
C 	C 	0.97957 0.22873 0.45533 0.18300
H 	H 	0.91867 0.27733 0.35933 0.00900
H 	H 	0.98667 0.53333 0.44533 0.03200
H 	H 	0.23667 0.39733 0.40333 0.01600
H 	H 	0.88767 0.19933 0.46133 -0.02300
N 	N 	0.52003 0.75077 0.70132 -0.19900
N 	N 	0.54303 0.84187 0.73120 -0.09400
N 	N 	0.64703 0.72197 0.74223 -0.10200
N 	N 	0.70803 0.65847 0.76151 -0.10400
N 	N 	0.85343 0.59007 0.77837 -0.09400
N 	N 	0.73093 0.51887 0.79912 -0.20000
C 	C 	0.58223 0.67987 0.70857 0.09900
C 	C 	0.61823 0.82117 0.75537 0.09900
C 	C 	0.83653 0.67227 0.75577 0.09900
C 	C 	0.64623 0.56207 0.78867 0.10100
H 	H 	0.58533 0.61067 0.69267 0.00600
H 	H 	0.65333 0.86667 0.77867 0.02900
H 	H 	0.90333 0.73067 0.73667 0.03300
H 	H 	0.55433 0.53267 0.79467 0.00600
N 	N 	0.91590 0.10260 0.03465 -0.20800
N 	N 	0.82480 0.03450 0.06453 -0.10900
N 	N 	0.94470 0.25840 0.07556 -0.10000
N 	N 	0.00820 0.38290 0.09484 -0.14300
N 	N 	0.07660 0.59670 0.11170 -0.13000
N 	N 	0.14780 0.54540 0.13245 -0.20300
C 	C 	0.98680 0.23570 0.04190 0.16200
C 	C 	0.84550 0.13040 0.08870 0.09400
C 	C 	0.99440 0.49760 0.08910 0.16700
C 	C 	0.10460 0.41750 0.12200 0.09500
H 	H 	0.05600 0.30800 0.02600 -0.04200
H 	H 	0.80000 0.12000 0.11200 0.01600
H 	H 	0.93600 0.50600 0.07000 0.00200
H 	H 	0.13400 0.35500 0.12800 -0.00100
N 	N 	0.58257 0.43593 0.36798 -0.20000
N 	N 	0.49147 0.36783 0.39786 -0.10200
N 	N 	0.61137 0.59173 0.40889 -0.10300
N 	N 	0.67487 0.71623 0.42817 -0.10400
N 	N 	0.74327 0.93003 0.44503 -0.08700
N 	N 	0.81447 0.87873 0.46578 -0.18500
C 	C 	0.65347 0.56903 0.37523 0.09700
C 	C 	0.51217 0.46373 0.42203 0.09400
C 	C 	0.66107 0.83093 0.42243 0.09900
C 	C 	0.77127 0.75083 0.45533 0.10300
H 	H 	0.72267 0.64133 0.35933 0.01100
H 	H 	0.46667 0.45333 0.44533 0.01900
H 	H 	0.60267 0.83933 0.40333 0.02800
H 	H 	0.80067 0.68833 0.46133 0.01300
N 	N 	0.24923 0.76927 0.70132 -0.20000
N 	N 	0.15813 0.70117 0.73120 -0.10600
N 	N 	0.27803 0.92507 0.74223 -0.09000
N 	N 	0.34153 0.04957 0.76151 -0.12200
N 	N 	0.40993 0.26337 0.77837 -0.10200
N 	N 	0.48113 0.21207 0.79912 -0.20300
C 	C 	0.32013 0.90237 0.70857 0.09700
C 	C 	0.17883 0.79707 0.75537 0.09200
C 	C 	0.32773 0.16427 0.75577 0.08800
C 	C 	0.43793 0.08417 0.78867 0.09600
H 	H 	0.38933 0.97467 0.69267 0.01500
H 	H 	0.13333 0.78667 0.77867 0.01600
H 	H 	0.26933 0.17267 0.73667 0.01000
H 	H 	0.46733 0.02167 0.79467 -0.00400
N 	N 	0.89740 0.81330 0.03465 -0.18500
N 	N 	0.96550 0.79030 0.06453 -0.08400
N 	N 	0.74160 0.68630 0.07556 -0.10400
N 	N 	0.61710 0.62530 0.09484 -0.10400
N 	N 	0.40330 0.47990 0.11170 -0.10200
N 	N 	0.45460 0.60240 0.13245 -0.20100
C 	C 	0.76430 0.75110 0.04190 0.10100
C 	C 	0.86960 0.71510 0.08870 0.09900
C 	C 	0.50240 0.49680 0.08910 0.09400
C 	C 	0.58250 0.68710 0.12200 0.09900
H 	H 	0.69200 0.74800 0.02600 0.00600
H 	H 	0.88000 0.68000 0.11200 0.02700
H 	H 	0.49400 0.43000 0.07000 0.01900
H 	H 	0.64500 0.77900 0.12800 0.01400
N 	N 	0.56407 0.14663 0.36798 -0.20200
N 	N 	0.63217 0.12363 0.39786 -0.10400
N 	N 	0.40827 0.01963 0.40889 -0.12300
N 	N 	0.28377 0.95863 0.42817 -0.06400
N 	N 	0.06997 0.81323 0.44503 -0.10900
N 	N 	0.12127 0.93573 0.46578 -0.16600
C 	C 	0.43097 0.08443 0.37523 0.09300
C 	C 	0.53627 0.04843 0.42203 0.09100
C 	C 	0.16907 0.83013 0.42243 0.09600
C 	C 	0.24917 0.02043 0.45533 0.01000
H 	H 	0.35867 0.08133 0.35933 -0.00600
H 	H 	0.54667 0.01333 0.44533 0.00800
H 	H 	0.16067 0.76333 0.40333 0.01600
H 	H 	0.31167 0.11233 0.46133 0.03300
N 	N 	0.23073 0.47997 0.70132 -0.20100
N 	N 	0.29883 0.45697 0.73120 -0.10100
N 	N 	0.07493 0.35297 0.74223 -0.12200
N 	N 	0.95043 0.29197 0.76151 -0.08900
N 	N 	0.73663 0.14657 0.77837 -0.10600
N 	N 	0.78793 0.26907 0.79912 -0.20000
C 	C 	0.09763 0.41777 0.70857 0.09200
C 	C 	0.20293 0.38177 0.75537 0.09100
C 	C 	0.83573 0.16347 0.75577 0.09500
C 	C 	0.91583 0.35377 0.78867 0.10000
H 	H 	0.02533 0.41467 0.69267 -0.00700
H 	H 	0.21333 0.34667 0.77867 0.01200
H 	H 	0.82733 0.09667 0.73667 0.01700
H 	H 	0.97833 0.44567 0.79467 0.01900
N 	N 	0.81330 0.91590 0.96535 -0.19200
N 	N 	0.79030 0.82480 0.93547 -0.09200
N 	N 	0.68630 0.94470 0.92444 -0.09800
N 	N 	0.62530 0.00820 0.90516 -0.13900
N 	N 	0.47990 0.07660 0.88830 -0.13100
N 	N 	0.60240 0.14780 0.86755 -0.20200
C 	C 	0.75110 0.98680 0.95810 0.16300
C 	C 	0.71510 0.84550 0.91130 0.10000
C 	C 	0.49680 0.99440 0.91090 0.16600
C 	C 	0.68710 0.10460 0.87800 0.09500
H 	H 	0.74800 0.05600 0.97400 -0.03000
H 	H 	0.68000 0.80000 0.88800 0.02400
H 	H 	0.43000 0.93600 0.93000 0.00500
H 	H 	0.77900 0.13400 0.87200 0.00800
N 	N 	0.47997 0.24923 0.29868 -0.20200
N 	N 	0.45697 0.15813 0.26880 -0.10700
N 	N 	0.35297 0.27803 0.25777 -0.10700
N 	N 	0.29197 0.34153 0.23849 -0.10700
N 	N 	0.14657 0.40993 0.22163 -0.10700
N 	N 	0.26907 0.48113 0.20088 -0.20200
C 	C 	0.41777 0.32013 0.29143 0.09300
C 	C 	0.38177 0.17883 0.24463 0.08900
C 	C 	0.16347 0.32773 0.24423 0.08800
C 	C 	0.35377 0.43793 0.21133 0.09600
H 	H 	0.41467 0.38933 0.30733 0.00400
H 	H 	0.34667 0.13333 0.22133 0.00800
H 	H 	0.09667 0.26933 0.26333 0.00600
H 	H 	0.44567 0.46733 0.20533 0.00700
N 	N 	0.14663 0.58257 0.63202 -0.20200
N 	N 	0.12363 0.49147 0.60214 -0.10600
N 	N 	0.01963 0.61137 0.59111 -0.12000
N 	N 	0.95863 0.67487 0.57183 -0.06500
N 	N 	0.81323 0.74327 0.55497 -0.09700
N 	N 	0.93573 0.81447 0.53422 -0.15800
C 	C 	0.08443 0.65347 0.62477 0.09400
C 	C 	0.04843 0.51217 0.57797 0.09100
C 	C 	0.83013 0.66107 0.57757 0.10000
C 	C 	0.02043 0.77127 0.54467 0.02100
H 	H 	0.08133 0.72267 0.64067 0.00100
H 	H 	0.01333 0.46667 0.55467 0.00600
H 	H 	0.76333 0.60267 0.59667 0.02400
H 	H 	0.11233 0.80067 0.53867 0.03700
N 	N 	0.08410 0.89740 0.96535 -0.18200
N 	N 	0.17520 0.96550 0.93547 -0.09000
N 	N 	0.05530 0.74160 0.92444 -0.10900
N 	N 	0.99180 0.61710 0.90516 -0.06800
N 	N 	0.92340 0.40330 0.88830 -0.06900
N 	N 	0.85220 0.45460 0.86755 -0.19900
C 	C 	0.01320 0.76430 0.95810 0.03500
C 	C 	0.15450 0.86960 0.91130 0.09400
C 	C 	0.00560 0.50240 0.91090 0.01900
C 	C 	0.89540 0.58250 0.87800 0.10300
H 	H 	0.94400 0.69200 0.97400 0.05000
H 	H 	0.20000 0.88000 0.88800 0.02200
H 	H 	0.06400 0.49400 0.93000 0.03800
H 	H 	0.86600 0.64500 0.87200 0.01400
N 	N 	0.75077 0.23073 0.29868 -0.20000
N 	N 	0.84187 0.29883 0.26880 -0.09500
N 	N 	0.72197 0.07493 0.25777 -0.11900
N 	N 	0.65847 0.95043 0.23849 -0.08800
N 	N 	0.59007 0.73663 0.22163 -0.09900
N 	N 	0.51887 0.78793 0.20088 -0.19900
C 	C 	0.67987 0.09763 0.29143 0.09500
C 	C 	0.82117 0.20293 0.24463 0.09600
C 	C 	0.67227 0.83573 0.24423 0.10000
C 	C 	0.56207 0.91583 0.21133 0.10200
H 	H 	0.61067 0.02533 0.30733 -0.00600
H 	H 	0.86667 0.21333 0.22133 0.02300
H 	H 	0.73067 0.82733 0.26333 0.02900
H 	H 	0.53267 0.97833 0.20533 0.01800
N 	N 	0.41743 0.56407 0.63202 -0.20000
N 	N 	0.50853 0.63217 0.60214 -0.09900
N 	N 	0.38863 0.40827 0.59111 -0.10600
N 	N 	0.32513 0.28377 0.57183 -0.10600
N 	N 	0.25673 0.06997 0.55497 -0.11400
N 	N 	0.18553 0.12127 0.53422 -0.20900
C 	C 	0.34653 0.43097 0.62477 0.09600
C 	C 	0.48783 0.53627 0.57797 0.09400
C 	C 	0.33893 0.16907 0.57757 0.08900
C 	C 	0.22873 0.24917 0.54467 0.09500
H 	H 	0.27733 0.35867 0.64067 -0.00100
H 	H 	0.53333 0.54667 0.55467 0.02000
H 	H 	0.39733 0.16067 0.59667 0.01200
H 	H 	0.19933 0.31167 0.53867 0.00100
N 	N 	0.10260 0.18670 0.96535 -0.20600
N 	N 	0.03450 0.20970 0.93547 -0.11600
N 	N 	0.25840 0.31370 0.92444 -0.10500
N 	N 	0.38290 0.37470 0.90516 -0.10700
N 	N 	0.59670 0.52010 0.88830 -0.09900
N 	N 	0.54540 0.39760 0.86755 -0.20100
C 	C 	0.23570 0.24890 0.95810 0.09200
C 	C 	0.13040 0.28490 0.91130 0.08900
C 	C 	0.49760 0.50320 0.91090 0.09400
C 	C 	0.41750 0.31290 0.87800 0.09900
H 	H 	0.30800 0.25200 0.97400 0.00500
H 	H 	0.12000 0.32000 0.88800 0.01100
H 	H 	0.50600 0.57000 0.93000 0.02100
H 	H 	0.35500 0.22100 0.87200 -0.00100
N 	N 	0.76927 0.52003 0.29868 -0.19900
N 	N 	0.70117 0.54303 0.26880 -0.10000
N 	N 	0.92507 0.64703 0.25777 -0.08800
N 	N 	0.04957 0.70803 0.23849 -0.12000
N 	N 	0.26337 0.85343 0.22163 -0.09500
N 	N 	0.21207 0.73093 0.20088 -0.20200
C 	C 	0.90237 0.58223 0.29143 0.10000
C 	C 	0.79707 0.61823 0.24463 0.09700
C 	C 	0.16427 0.83653 0.24423 0.09400
C 	C 	0.08417 0.64623 0.21133 0.09900
H 	H 	0.97467 0.58533 0.30733 0.01600
H 	H 	0.78667 0.65333 0.22133 0.02600
H 	H 	0.17267 0.90333 0.26333 0.02500
H 	H 	0.02167 0.55433 0.20533 -0.00500
N 	N 	0.43593 0.85337 0.63202 -0.19800
N 	N 	0.36783 0.87637 0.60214 -0.09700
N 	N 	0.59173 0.98037 0.59111 -0.08700
N 	N 	0.71623 0.04137 0.57183 -0.14300
N 	N 	0.93003 0.18677 0.55497 -0.09000
N 	N 	0.87873 0.06427 0.53422 -0.22200
C 	C 	0.56903 0.91557 0.62477 0.09900
C 	C 	0.46373 0.95157 0.57797 0.09700
C 	C 	0.83093 0.16987 0.57757 0.09300
C 	C 	0.75083 0.97957 0.54467 0.17900
H 	H 	0.64133 0.91867 0.64067 0.01500
H 	H 	0.45333 0.98667 0.55467 0.03200
H 	H 	0.83933 0.23667 0.59667 0.02500
H 	H 	0.68833 0.88767 0.53867 -0.01500
Fe	Fe	-0.00000 0.00000 -0.00000 1.09300
Fe	Fe	0.66667 0.33333 0.33333 1.13500
Fe	Fe	0.33333 0.66667 0.66667 1.13500
Fe	Fe	0.66667 0.33333 0.83333 1.13300
Fe	Fe	0.33333 0.66667 0.16667 1.13300
Fe	Fe	-0.00000 -0.00000 0.50000 1.09500
