data_crystal

_cell_length_a 11.03000
_cell_length_b 11.03000
_cell_length_c 33.00800
_cell_angle_alpha 90.00000
_cell_angle_beta  90.00000
_cell_angle_gamma 120.00000

_symmetry_space_group_name_	'P 1'
_symmetry_space_group_name_H-M	'P 1'

loop_
_symmetry_equiv_pos_as_xyz
  x,y,z

loop_
_atom_site_label
_atom_site_type_symbol
_atom_site_fract_x
_atom_site_fract_y
_atom_site_fract_z
_atom_site_charge
N 	N 	0.16920 0.05540 0.03400 -0.25800
N 	N 	0.24340 0.18080 0.05540 -0.10400
N 	N 	0.32030 0.04070 0.07150 -0.14800
N 	N 	0.38410 0.98020 0.09190 -0.08800
N 	N 	0.50300 0.87480 0.10220 -0.09400
N 	N 	0.40050 0.83530 0.13180 -0.21500
C 	C 	0.21750 0.97550 0.04380 0.18700
C 	C 	0.33250 0.16840 0.07790 0.08700
C 	C 	0.48810 0.95950 0.07840 0.10300
C 	C 	0.33170 0.89990 0.12540 0.10500
H 	H 	0.19200 0.88600 0.03000 -0.01900
H 	H 	0.39800 0.23800 0.09400 0.01500
H 	H 	0.53100 0.99500 0.05800 0.02300
H 	H 	0.26000 0.90200 0.13900 0.01000
N 	N 	0.83587 0.38873 0.36733 -0.21800
N 	N 	0.91007 0.51413 0.38873 -0.10800
N 	N 	0.98697 0.37403 0.40483 -0.10000
N 	N 	0.05077 0.31353 0.42523 -0.14800
N 	N 	0.16967 0.20813 0.43553 -0.10400
N 	N 	0.06717 0.16863 0.46513 -0.25500
C 	C 	0.88417 0.30883 0.37713 0.11000
C 	C 	0.99917 0.50173 0.41123 0.17300
C 	C 	0.15477 0.29283 0.41173 0.09500
C 	C 	0.99837 0.23323 0.45873 0.19000
H 	H 	0.85867 0.21933 0.36333 0.00900
H 	H 	0.06467 0.57133 0.42733 -0.03300
H 	H 	0.19767 0.32833 0.39133 0.00600
H 	H 	0.92667 0.23533 0.47233 -0.02300
N 	N 	0.50253 0.72207 0.70067 -0.21800
N 	N 	0.57673 0.84747 0.72207 -0.09400
N 	N 	0.65363 0.70737 0.73817 -0.10300
N 	N 	0.71743 0.64687 0.75857 -0.10300
N 	N 	0.83633 0.54147 0.76887 -0.09300
N 	N 	0.73383 0.50197 0.79847 -0.21600
C 	C 	0.55083 0.64217 0.71047 0.11100
C 	C 	0.66583 0.83507 0.74457 0.09900
C 	C 	0.82143 0.62617 0.74507 0.10600
C 	C 	0.66503 0.56657 0.79207 0.10700
H 	H 	0.52533 0.55267 0.69667 0.00800
H 	H 	0.73133 0.90467 0.76067 0.03300
H 	H 	0.86433 0.66167 0.72467 0.02200
H 	H 	0.59333 0.56867 0.80567 0.00600
N 	N 	0.94460 0.11380 0.03400 -0.18400
N 	N 	0.81920 0.06260 0.05540 -0.11100
N 	N 	0.95930 0.27960 0.07150 -0.06300
N 	N 	0.01980 0.40390 0.09190 -0.12700
N 	N 	0.12520 0.62820 0.10220 -0.10500
N 	N 	0.16470 0.56520 0.13180 -0.21800
C 	C 	0.02450 0.24200 0.04380 0.02300
C 	C 	0.83160 0.16410 0.07790 0.09600
C 	C 	0.04050 0.52860 0.07840 0.10400
C 	C 	0.10010 0.43180 0.12540 0.10300
H 	H 	0.11400 0.30600 0.03000 0.02600
H 	H 	0.76200 0.16000 0.09400 0.01200
H 	H 	0.00500 0.53600 0.05800 -0.00700
H 	H 	0.09800 0.35800 0.13900 -0.00500
N 	N 	0.61127 0.44713 0.36733 -0.21800
N 	N 	0.48587 0.39593 0.38873 -0.10100
N 	N 	0.62597 0.61293 0.40483 -0.10400
N 	N 	0.68647 0.73723 0.42523 -0.10500
N 	N 	0.79187 0.96153 0.43553 -0.08400
N 	N 	0.83137 0.89853 0.46513 -0.19900
C 	C 	0.69117 0.57533 0.37713 0.11000
C 	C 	0.49827 0.49743 0.41123 0.09500
C 	C 	0.70717 0.86193 0.41173 0.10500
C 	C 	0.76677 0.76513 0.45873 0.10900
H 	H 	0.78067 0.63933 0.36333 0.01600
H 	H 	0.42867 0.49333 0.42733 0.01700
H 	H 	0.67167 0.86933 0.39133 0.02000
H 	H 	0.76467 0.69133 0.47233 0.01000
N 	N 	0.27793 0.78047 0.70067 -0.21800
N 	N 	0.15253 0.72927 0.72207 -0.10600
N 	N 	0.29263 0.94627 0.73817 -0.08800
N 	N 	0.35313 0.07057 0.75857 -0.12600
N 	N 	0.45853 0.29487 0.76887 -0.10100
N 	N 	0.49803 0.23187 0.79847 -0.21800
C 	C 	0.35783 0.90867 0.71047 0.11200
C 	C 	0.16493 0.83077 0.74457 0.09600
C 	C 	0.37383 0.19527 0.74507 0.10200
C 	C 	0.43343 0.09847 0.79207 0.10100
H 	H 	0.44733 0.97267 0.69667 0.01900
H 	H 	0.09533 0.82667 0.76067 0.01300
H 	H 	0.33833 0.20267 0.72467 0.00200
H 	H 	0.43133 0.02467 0.80567 -0.00800
N 	N 	0.88620 0.83080 0.03400 -0.20200
N 	N 	0.93740 0.75660 0.05540 -0.08700
N 	N 	0.72040 0.67970 0.07150 -0.10500
N 	N 	0.59610 0.61590 0.09190 -0.10500
N 	N 	0.37180 0.49700 0.10220 -0.10100
N 	N 	0.43480 0.59950 0.13180 -0.21600
C 	C 	0.75800 0.78250 0.04380 0.11300
C 	C 	0.83590 0.66750 0.07790 0.09900
C 	C 	0.47140 0.51190 0.07840 0.10300
C 	C 	0.56820 0.66830 0.12540 0.10400
H 	H 	0.69400 0.80800 0.03000 0.01200
H 	H 	0.84000 0.60200 0.09400 0.02600
H 	H 	0.46400 0.46900 0.05800 0.00700
H 	H 	0.64200 0.74000 0.13900 0.01300
N 	N 	0.55287 0.16413 0.36733 -0.21900
N 	N 	0.60407 0.08993 0.38873 -0.09200
N 	N 	0.38707 0.01303 0.40483 -0.11200
N 	N 	0.26277 0.94923 0.42523 -0.06600
N 	N 	0.03847 0.83033 0.43553 -0.10900
N 	N 	0.10147 0.93283 0.46513 -0.18000
C 	C 	0.42467 0.11583 0.37713 0.10700
C 	C 	0.50257 0.00083 0.41123 0.01700
C 	C 	0.13807 0.84523 0.41173 0.11000
C 	C 	0.23487 0.00163 0.45873 0.01400
H 	H 	0.36067 0.14133 0.36333 0.00100
H 	H 	0.50667 0.93533 0.42733 0.06900
H 	H 	0.13067 0.80233 0.39133 0.00500
H 	H 	0.30867 0.07333 0.47233 0.03200
N 	N 	0.21953 0.49747 0.70067 -0.21900
N 	N 	0.27073 0.42327 0.72207 -0.10200
N 	N 	0.05373 0.34637 0.73817 -0.12400
N 	N 	0.92943 0.28257 0.75857 -0.09000
N 	N 	0.70513 0.16367 0.76887 -0.10500
N 	N 	0.76813 0.26617 0.79847 -0.21600
C 	C 	0.09133 0.44917 0.71047 0.10400
C 	C 	0.16923 0.33417 0.74457 0.09000
C 	C 	0.80473 0.17857 0.74507 0.10200
C 	C 	0.90153 0.33497 0.79207 0.10400
H 	H 	0.02733 0.47467 0.69667 -0.00200
H 	H 	0.17333 0.26867 0.76067 0.00700
H 	H 	0.79733 0.13567 0.72467 0.00700
H 	H 	0.97533 0.40667 0.80567 0.01800
N 	N 	0.83080 0.94460 0.96600 -0.16900
N 	N 	0.75660 0.81920 0.94460 -0.09500
N 	N 	0.67970 0.95930 0.92850 -0.06400
N 	N 	0.61590 0.01980 0.90810 -0.12400
N 	N 	0.49700 0.12520 0.89780 -0.10500
N 	N 	0.59950 0.16470 0.86820 -0.21800
C 	C 	0.78250 0.02450 0.95620 0.03800
C 	C 	0.66750 0.83160 0.92210 0.10300
C 	C 	0.51190 0.04050 0.92160 0.10300
C 	C 	0.66830 0.10010 0.87460 0.10300
H 	H 	0.80800 0.11400 0.97000 0.03600
H 	H 	0.60200 0.76200 0.90600 0.02100
H 	H 	0.46900 0.00500 0.94200 -0.00300
H 	H 	0.74000 0.09800 0.86100 0.00200
N 	N 	0.49747 0.27793 0.29933 -0.21900
N 	N 	0.42327 0.15253 0.27793 -0.10700
N 	N 	0.34637 0.29263 0.26183 -0.10800
N 	N 	0.28257 0.35313 0.24143 -0.10900
N 	N 	0.16367 0.45853 0.23113 -0.10700
N 	N 	0.26617 0.49803 0.20153 -0.21700
C 	C 	0.44917 0.35783 0.28953 0.10700
C 	C 	0.33417 0.16493 0.25543 0.09100
C 	C 	0.17857 0.37383 0.25493 0.10000
C 	C 	0.33497 0.43343 0.20793 0.10100
H 	H 	0.47467 0.44733 0.30333 0.00900
H 	H 	0.26867 0.09533 0.23933 0.00200
H 	H 	0.13567 0.33833 0.27533 -0.00200
H 	H 	0.40667 0.43133 0.19433 0.00500
N 	N 	0.16413 0.61127 0.63267 -0.21900
N 	N 	0.08993 0.48587 0.61127 -0.09300
N 	N 	0.01303 0.62597 0.59517 -0.10900
N 	N 	0.94923 0.68647 0.57477 -0.06800
N 	N 	0.83033 0.79187 0.56447 -0.09400
N 	N 	0.93283 0.83137 0.53487 -0.17100
C 	C 	0.11583 0.69117 0.62287 0.10800
C 	C 	0.00083 0.49827 0.58877 0.01600
C 	C 	0.84523 0.70717 0.58827 0.11100
C 	C 	0.00163 0.76677 0.54127 0.02700
H 	H 	0.14133 0.78067 0.63667 0.00900
H 	H 	0.93533 0.42867 0.57267 0.06900
H 	H 	0.80233 0.67167 0.60867 0.01400
H 	H 	0.07333 0.76467 0.52767 0.03300
N 	N 	0.05540 0.88620 0.96600 -0.23500
N 	N 	0.18080 0.93740 0.94460 -0.08700
N 	N 	0.04070 0.72040 0.92850 -0.14300
N 	N 	0.98020 0.59610 0.90810 -0.08700
N 	N 	0.87480 0.37180 0.89780 -0.09400
N 	N 	0.83530 0.43480 0.86820 -0.21500
C 	C 	0.97550 0.75800 0.95620 0.18500
C 	C 	0.16840 0.83590 0.92210 0.09400
C 	C 	0.95950 0.47140 0.92160 0.10300
C 	C 	0.89990 0.56820 0.87460 0.10500
H 	H 	0.88600 0.69400 0.97000 -0.00500
H 	H 	0.23800 0.84000 0.90600 0.02400
H 	H 	0.99500 0.46400 0.94200 0.02800
H 	H 	0.90200 0.64200 0.86100 0.01600
N 	N 	0.72207 0.21953 0.29933 -0.21900
N 	N 	0.84747 0.27073 0.27793 -0.09500
N 	N 	0.70737 0.05373 0.26183 -0.12100
N 	N 	0.64687 0.92943 0.24143 -0.08800
N 	N 	0.54147 0.70513 0.23113 -0.09800
N 	N 	0.50197 0.76813 0.20153 -0.21500
C 	C 	0.64217 0.09133 0.28953 0.10600
C 	C 	0.83507 0.16923 0.25543 0.09400
C 	C 	0.62617 0.80473 0.25493 0.10500
C 	C 	0.56657 0.90153 0.20793 0.10700
H 	H 	0.55267 0.02733 0.30333 -0.00200
H 	H 	0.90467 0.17333 0.23933 0.02400
H 	H 	0.66167 0.79733 0.27533 0.01800
H 	H 	0.56867 0.97533 0.19433 0.01800
N 	N 	0.38873 0.55287 0.63267 -0.21900
N 	N 	0.51413 0.60407 0.61127 -0.09900
N 	N 	0.37403 0.38707 0.59517 -0.10700
N 	N 	0.31353 0.26277 0.57477 -0.10800
N 	N 	0.20813 0.03847 0.56447 -0.11500
N 	N 	0.16863 0.10147 0.53487 -0.22400
C 	C 	0.30883 0.42467 0.62287 0.10800
C 	C 	0.50173 0.50257 0.58877 0.09500
C 	C 	0.29283 0.13807 0.58827 0.10100
C 	C 	0.23323 0.23487 0.54127 0.09800
H 	H 	0.21933 0.36067 0.63667 0.00100
H 	H 	0.57133 0.50667 0.57267 0.01900
H 	H 	0.32833 0.13067 0.60867 0.00000
H 	H 	0.23533 0.30867 0.52767 0.00200
N 	N 	0.11380 0.16920 0.96600 -0.22300
N 	N 	0.06260 0.24340 0.94460 -0.11300
N 	N 	0.27960 0.32030 0.92850 -0.10600
N 	N 	0.40390 0.38410 0.90810 -0.10700
N 	N 	0.62820 0.50300 0.89780 -0.09800
N 	N 	0.56520 0.40050 0.86820 -0.21700
C 	C 	0.24200 0.21750 0.95620 0.10400
C 	C 	0.16410 0.33250 0.92210 0.09100
C 	C 	0.52860 0.48810 0.92160 0.10300
C 	C 	0.43180 0.33170 0.87460 0.10400
H 	H 	0.30600 0.19200 0.97000 0.00700
H 	H 	0.16000 0.39800 0.90600 0.01000
H 	H 	0.53600 0.53100 0.94200 0.01300
H 	H 	0.35800 0.26000 0.86100 -0.00200
N 	N 	0.78047 0.50253 0.29933 -0.21700
N 	N 	0.72927 0.57673 0.27793 -0.09900
N 	N 	0.94627 0.65363 0.26183 -0.08700
N 	N 	0.07057 0.71743 0.24143 -0.12200
N 	N 	0.29487 0.83633 0.23113 -0.09400
N 	N 	0.23187 0.73383 0.20153 -0.21700
C 	C 	0.90867 0.55083 0.28953 0.11400
C 	C 	0.83077 0.66583 0.25543 0.09900
C 	C 	0.19527 0.82143 0.25493 0.10500
C 	C 	0.09847 0.66503 0.20793 0.10500
H 	H 	0.97267 0.52533 0.30333 0.01900
H 	H 	0.82667 0.73133 0.23933 0.02800
H 	H 	0.20267 0.86433 0.27533 0.01400
H 	H 	0.02467 0.59333 0.19433 -0.00700
N 	N 	0.44713 0.83587 0.63267 -0.21700
N 	N 	0.39593 0.91007 0.61127 -0.10800
N 	N 	0.61293 0.98697 0.59517 -0.10000
N 	N 	0.73723 0.05077 0.57477 -0.14300
N 	N 	0.96153 0.16967 0.56447 -0.08800
N 	N 	0.89853 0.06717 0.53487 -0.23800
C 	C 	0.57533 0.88417 0.62287 0.11100
C 	C 	0.49743 0.99917 0.58877 0.17400
C 	C 	0.86193 0.15477 0.58827 0.09800
C 	C 	0.76513 0.99837 0.54127 0.18600
H 	H 	0.63933 0.85867 0.63667 0.01600
H 	H 	0.49333 0.06467 0.57267 -0.03400
H 	H 	0.86933 0.19767 0.60867 0.01600
H 	H 	0.69133 0.92667 0.52767 -0.01600
Fe	Fe	-0.00000 0.00000 -0.00000 1.12900
Fe	Fe	0.66667 0.33333 0.33333 1.17800
Fe	Fe	0.33333 0.66667 0.66667 1.17800
Fe	Fe	0.66667 0.33333 0.83333 1.18000
Fe	Fe	0.33333 0.66667 0.16667 1.18000
Fe	Fe	-0.00000 0.00000 0.50000 1.13900
