data_crystal

_cell_length_a 13.87210
_cell_length_b 15.89910
_cell_length_c 17.67430
_cell_angle_alpha 63.27040
_cell_angle_beta  78.89420
_cell_angle_gamma 64.64310

_symmetry_space_group_name_	'P 1'
_symmetry_space_group_name_H-M	'P 1'

loop_
_symmetry_equiv_pos_as_xyz
  x,y,z

loop_
_atom_site_label
_atom_site_type_symbol
_atom_site_fract_x
_atom_site_fract_y
_atom_site_fract_z
_atom_site_charge
Cu	Cu	0.75670 0.48423 -0.00000 0.79800
Cu	Cu	0.24330 0.51577 -0.00000 0.79200
Cu	Cu	0.50000 0.50000 -0.00000 0.79300
Cu	Cu	-0.00000 0.50000 -0.00000 0.77600
C 	C 	0.68460 0.26185 0.19990 0.26400
C 	C 	0.70800 0.17479 0.28402 -0.18400
C 	C 	0.67220 0.09822 0.30716 0.33400
C 	C 	0.69510 0.01639 0.38582 0.23900
C 	C 	0.75250 0.01251 0.44458 -0.01400
C 	C 	0.78690 0.08390 0.42080 0.21700
C 	C 	0.76450 0.16800 0.34420 0.33800
C 	C 	0.81910 0.70799 0.79282 0.29300
C 	C 	0.80220 0.78145 0.70510 -0.14300
C 	C 	0.70170 0.84067 0.66706 0.31800
C 	C 	0.68630 0.90821 0.58498 0.23800
C 	C 	0.76970 0.92926 0.53228 0.03400
C 	C 	0.86870 0.87130 0.56880 0.25300
C 	C 	0.88470 0.80082 0.65176 0.34300
C 	C 	0.31540 0.53825 0.19990 0.26200
C 	C 	0.29200 0.54119 0.28402 -0.18600
C 	C 	0.32780 0.59462 0.30716 0.33100
C 	C 	0.30490 0.59779 0.38582 0.24600
C 	C 	0.24750 0.54291 0.44458 0.00000
C 	C 	0.21310 0.49530 0.42080 0.20900
C 	C 	0.23550 0.48780 0.34420 0.33600
C 	C 	0.18090 0.49919 0.79282 0.28500
C 	C 	0.19780 0.51345 0.70510 -0.14600
C 	C 	0.29830 0.49227 0.66706 0.31200
C 	C 	0.31370 0.50681 0.58498 0.24100
C 	C 	0.23030 0.53846 0.53228 0.01300
C 	C 	0.13130 0.55990 0.56880 0.25100
C 	C 	0.11530 0.54742 0.65176 0.33100
C 	C 	0.31540 0.73815 0.80010 0.28100
C 	C 	0.29200 0.82521 0.71598 -0.17500
C 	C 	0.32780 0.90178 0.69284 0.33500
C 	C 	0.30490 0.98361 0.61418 0.26300
C 	C 	0.24750 0.98749 0.55542 0.01400
C 	C 	0.21310 0.91610 0.57920 0.21000
C 	C 	0.23550 0.83200 0.65580 0.34000
C 	C 	0.18090 0.29201 0.20718 0.26600
C 	C 	0.19780 0.21855 0.29490 -0.15300
C 	C 	0.29830 0.15933 0.33294 0.30300
C 	C 	0.31370 0.09179 0.41502 0.24200
C 	C 	0.23030 0.07074 0.46772 -0.00400
C 	C 	0.13130 0.12870 0.43120 0.25400
C 	C 	0.11530 0.19918 0.34824 0.32500
C 	C 	0.68460 0.46175 0.80010 0.28300
C 	C 	0.70800 0.45881 0.71598 -0.17200
C 	C 	0.67220 0.40538 0.69284 0.33700
C 	C 	0.69510 0.40221 0.61418 0.25600
C 	C 	0.75250 0.45709 0.55542 0.00200
C 	C 	0.78690 0.50470 0.57920 0.21800
C 	C 	0.76450 0.51220 0.65580 0.34300
C 	C 	0.81910 0.50081 0.20718 0.27400
C 	C 	0.80220 0.48655 0.29490 -0.14800
C 	C 	0.70170 0.50773 0.33294 0.30800
C 	C 	0.68630 0.49319 0.41502 0.23900
C 	C 	0.76970 0.46154 0.46772 0.01700
C 	C 	0.86870 0.44010 0.43120 0.25600
C 	C 	0.88470 0.45258 0.34824 0.33700
N 	N 	0.60650 0.38641 0.09138 -0.16400
N 	N 	0.70550 0.37930 0.08880 -0.16700
N 	N 	0.75740 0.30282 0.15616 -0.07200
N 	N 	0.59110 0.31300 0.16040 -0.07300
N 	N 	0.80100 0.59257 0.90866 -0.09900
N 	N 	0.88990 0.60260 0.90920 -0.08800
N 	N 	0.90460 0.67365 0.83850 -0.04500
N 	N 	0.75300 0.66001 0.83518 -0.04600
N 	N 	0.39350 0.52221 0.09138 -0.16400
N 	N 	0.29450 0.53190 0.08880 -0.17000
N 	N 	0.24260 0.54102 0.15616 -0.07900
N 	N 	0.40890 0.52660 0.16040 -0.07300
N 	N 	0.19900 0.49877 0.90866 -0.10300
N 	N 	0.11010 0.48820 0.90920 -0.10300
N 	N 	0.09540 0.48785 0.83850 -0.06100
N 	N 	0.24700 0.50481 0.83518 -0.04800
N 	N 	0.39350 0.61359 0.90862 -0.09700
N 	N 	0.29450 0.62070 0.91120 -0.10000
N 	N 	0.24260 0.69718 0.84384 -0.05400
N 	N 	0.40890 0.68700 0.83960 -0.05300
N 	N 	0.19900 0.40743 0.09134 -0.17200
N 	N 	0.11010 0.39740 0.09080 -0.17200
N 	N 	0.09540 0.32635 0.16150 -0.08200
N 	N 	0.24700 0.33999 0.16482 -0.06500
N 	N 	0.60650 0.47779 0.90862 -0.09700
N 	N 	0.70550 0.46810 0.91120 -0.09800
N 	N 	0.75740 0.45898 0.84384 -0.04800
N 	N 	0.59110 0.47340 0.83960 -0.05300
N 	N 	0.80100 0.50123 0.09134 -0.16700
N 	N 	0.88990 0.51180 0.09080 -0.15500
N 	N 	0.90460 0.51215 0.16150 -0.06500
N 	N 	0.75300 0.49519 0.16482 -0.06400
F 	F 	0.62030 0.09705 0.25230 -0.36500
F 	F 	0.66090 0.94212 0.40396 -0.28800
F 	F 	0.83850 0.08971 0.47858 -0.27400
F 	F 	0.80120 0.24068 0.32524 -0.34400
F 	F 	0.61530 0.82785 0.71390 -0.32700
F 	F 	0.58490 0.96412 0.55576 -0.27600
F 	F 	0.95150 0.88564 0.52192 -0.28300
F 	F 	0.98250 0.75417 0.68246 -0.32600
F 	F 	0.37970 0.65065 0.25230 -0.36300
F 	F 	0.33910 0.65392 0.40396 -0.30100
F 	F 	0.16150 0.43171 0.47858 -0.28400
F 	F 	0.19880 0.43408 0.32524 -0.35700
F 	F 	0.38470 0.45825 0.71390 -0.32900
F 	F 	0.41510 0.48012 0.55576 -0.28200
F 	F 	0.04850 0.59244 0.52192 -0.31300
F 	F 	0.01750 0.56337 0.68246 -0.35700
F 	F 	0.37970 0.90295 0.74770 -0.32600
F 	F 	0.33910 0.05788 0.59604 -0.30300
F 	F 	0.16150 0.91029 0.52142 -0.28400
F 	F 	0.19880 0.75932 0.67476 -0.35100
F 	F 	0.38470 0.17215 0.28610 -0.34700
F 	F 	0.41510 0.03588 0.44424 -0.29300
F 	F 	0.04850 0.11436 0.47808 -0.31400
F 	F 	0.01750 0.24583 0.31754 -0.36500
F 	F 	0.62030 0.34935 0.74770 -0.32800
F 	F 	0.66090 0.34608 0.59604 -0.28900
F 	F 	0.83850 0.56829 0.52142 -0.27300
F 	F 	0.80120 0.56592 0.67476 -0.33900
F 	F 	0.61530 0.54175 0.28610 -0.34500
F 	F 	0.58490 0.51988 0.44424 -0.28500
F 	F 	0.95150 0.40756 0.47808 -0.28400
F 	F 	0.98250 0.43663 0.31754 -0.33300
