data_crystal

_cell_length_a 11.66710
_cell_length_b 11.66710
_cell_length_c 20.98690
_cell_angle_alpha 95.85660
_cell_angle_beta  95.85660
_cell_angle_gamma 104.27600

_symmetry_space_group_name_	'P 1'
_symmetry_space_group_name_H-M	'P 1'

loop_
_symmetry_equiv_pos_as_xyz
  x,y,z

loop_
_atom_site_label
_atom_site_type_symbol
_atom_site_fract_x
_atom_site_fract_y
_atom_site_fract_z
_atom_site_charge
Mn	Mn	0.52093 0.03203 0.81289 1.24000
Mn	Mn	0.96797 0.47907 0.68711 1.24000
Mn	Mn	0.47907 0.96797 0.18711 1.24000
Mn	Mn	0.03203 0.52093 0.31289 1.24000
Mn	Mn	0.75207 0.24793 0.75000 1.31500
Mn	Mn	0.24793 0.75207 0.25000 1.31500
H 	H 	0.64770 0.03730 0.60830 0.05600
H 	H 	0.30360 0.03620 0.60630 0.03300
H 	H 	0.27540 0.00620 0.49600 0.06800
H 	H 	0.73670 0.50150 0.91570 0.03900
H 	H 	0.72010 0.63050 0.00200 0.06000
H 	H 	0.40300 0.30600 0.91720 0.04300
H 	H 	0.99980 0.22440 0.52850 0.03600
H 	H 	0.88860 0.98020 0.64420 0.02900
H 	H 	0.92950 0.83670 0.57500 0.04900
H 	H 	0.96270 0.35230 0.89170 0.05600
H 	H 	0.96380 0.69640 0.89370 0.03400
H 	H 	0.99380 0.72460 0.00400 0.06600
H 	H 	0.49850 0.26330 0.58430 0.03800
H 	H 	0.36950 0.27990 0.49800 0.06100
H 	H 	0.69400 0.59700 0.58280 0.04300
H 	H 	0.77560 0.00020 0.97150 0.03600
H 	H 	0.01980 0.11140 0.85580 0.02700
H 	H 	0.16330 0.07050 0.92500 0.04900
H 	H 	0.35230 0.96270 0.39170 0.05600
H 	H 	0.69640 0.96380 0.39370 0.03300
H 	H 	0.72460 0.99380 0.50400 0.06800
H 	H 	0.26330 0.49850 0.08430 0.03900
H 	H 	0.27990 0.36950 0.99800 0.06000
H 	H 	0.59700 0.69400 0.08280 0.04300
H 	H 	0.00020 0.77560 0.47150 0.03600
H 	H 	0.11140 0.01980 0.35580 0.02900
H 	H 	0.07050 0.16330 0.42500 0.04900
H 	H 	0.03730 0.64770 0.10830 0.05600
H 	H 	0.03620 0.30360 0.10630 0.03400
H 	H 	0.00620 0.27540 0.99600 0.06600
H 	H 	0.50150 0.73670 0.41570 0.03800
H 	H 	0.63050 0.72010 0.50200 0.06100
H 	H 	0.30600 0.40300 0.41720 0.04300
H 	H 	0.22440 0.99980 0.02850 0.03600
H 	H 	0.98020 0.88860 0.14420 0.02700
H 	H 	0.83670 0.92950 0.07500 0.04900
C 	C 	0.49538 0.05170 0.69048 0.33700
C 	C 	0.48072 0.03866 0.61818 -0.08800
C 	C 	0.57278 0.02848 0.58549 -0.04400
C 	C 	0.55719 0.00475 0.51726 0.02600
C 	C 	0.36679 0.02921 0.58386 0.01200
C 	C 	0.34980 0.00984 0.51806 -0.10000
C 	C 	0.58540 0.30146 0.85438 0.39600
C 	C 	0.57048 0.38942 0.90863 -0.10400
C 	C 	0.66599 0.48861 0.93399 0.01700
C 	C 	0.65582 0.56618 0.98520 -0.09700
C 	C 	0.46598 0.37130 0.93438 -0.03400
C 	C 	0.45179 0.45053 0.98704 0.01600
C 	C 	0.91032 0.21166 0.63845 0.40100
C 	C 	0.94063 0.11827 0.59277 -0.10900
C 	C 	0.98536 0.14606 0.53741 -0.02600
C 	C 	0.01050 0.05882 0.49292 0.01500
C 	C 	0.91941 0.00005 0.60645 0.02000
C 	C 	0.94353 0.91435 0.56502 -0.09800
C 	C 	0.94830 0.50462 0.80952 0.33700
C 	C 	0.96134 0.51928 0.88182 -0.08700
C 	C 	0.97152 0.42722 0.91451 -0.04400
C 	C 	0.99525 0.44281 0.98274 0.02600
C 	C 	0.97079 0.63321 0.91614 0.01100
C 	C 	0.99016 0.65020 0.98194 -0.09700
C 	C 	0.69854 0.41460 0.64562 0.39700
C 	C 	0.61058 0.42952 0.59137 -0.10400
C 	C 	0.51139 0.33401 0.56601 0.01700
C 	C 	0.43382 0.34418 0.51480 -0.09800
C 	C 	0.62870 0.53402 0.56562 -0.03400
C 	C 	0.54947 0.54821 0.51296 0.01700
C 	C 	0.78834 0.08968 0.86155 0.40200
C 	C 	0.88173 0.05937 0.90723 -0.11100
C 	C 	0.85394 0.01464 0.96259 -0.02500
C 	C 	0.94118 0.98950 0.00708 0.01400
C 	C 	0.99995 0.08059 0.89355 0.02300
C 	C 	0.08565 0.05647 0.93498 -0.10000
C 	C 	0.50462 0.94830 0.30952 0.33700
C 	C 	0.51928 0.96134 0.38182 -0.08800
C 	C 	0.42722 0.97152 0.41451 -0.04400
C 	C 	0.44281 0.99525 0.48274 0.02600
C 	C 	0.63321 0.97079 0.41614 0.01200
C 	C 	0.65020 0.99016 0.48194 -0.10000
C 	C 	0.41460 0.69854 0.14562 0.39600
C 	C 	0.42952 0.61058 0.09137 -0.10400
C 	C 	0.33401 0.51139 0.06601 0.01700
C 	C 	0.34418 0.43382 0.01480 -0.09700
C 	C 	0.53402 0.62870 0.06562 -0.03400
C 	C 	0.54821 0.54947 0.01296 0.01600
C 	C 	0.08968 0.78834 0.36155 0.40100
C 	C 	0.05937 0.88173 0.40723 -0.10900
C 	C 	0.01464 0.85394 0.46259 -0.02600
C 	C 	0.98950 0.94118 0.50708 0.01500
C 	C 	0.08059 0.99995 0.39355 0.02000
C 	C 	0.05647 0.08565 0.43498 -0.09800
C 	C 	0.05170 0.49538 0.19048 0.33700
C 	C 	0.03866 0.48072 0.11818 -0.08700
C 	C 	0.02848 0.57278 0.08549 -0.04400
C 	C 	0.00475 0.55719 0.01726 0.02600
C 	C 	0.02921 0.36679 0.08386 0.01100
C 	C 	0.00984 0.34980 0.01806 -0.09700
C 	C 	0.30146 0.58540 0.35438 0.39700
C 	C 	0.38942 0.57048 0.40863 -0.10400
C 	C 	0.48861 0.66599 0.43399 0.01700
C 	C 	0.56618 0.65582 0.48520 -0.09800
C 	C 	0.37130 0.46598 0.43438 -0.03400
C 	C 	0.45053 0.45179 0.48704 0.01700
C 	C 	0.21166 0.91032 0.13845 0.40200
C 	C 	0.11827 0.94063 0.09277 -0.11100
C 	C 	0.14606 0.98536 0.03741 -0.02500
C 	C 	0.05882 0.01050 0.99292 0.01400
C 	C 	0.00005 0.91941 0.10645 0.02300
C 	C 	0.91435 0.94353 0.06502 -0.10000
O 	O 	0.60035 0.08687 0.72176 -0.52600
O 	O 	0.40607 0.02089 0.71835 -0.43600
O 	O 	0.67237 0.33121 0.82439 -0.44700
O 	O 	0.50760 0.20340 0.84405 -0.48600
O 	O 	0.85093 0.17607 0.68158 -0.45000
O 	O 	0.94784 0.31786 0.62836 -0.50600
O 	O 	0.91313 0.39965 0.77824 -0.52600
O 	O 	0.97911 0.59393 0.78165 -0.43600
O 	O 	0.66879 0.32763 0.67561 -0.44700
O 	O 	0.79660 0.49240 0.65595 -0.48600
O 	O 	0.82393 0.14907 0.81842 -0.45000
O 	O 	0.68214 0.05216 0.87164 -0.50600
O 	O 	0.39965 0.91313 0.27824 -0.52600
O 	O 	0.59393 0.97911 0.28165 -0.43600
O 	O 	0.32763 0.66879 0.17561 -0.44700
O 	O 	0.49240 0.79660 0.15595 -0.48600
O 	O 	0.14907 0.82393 0.31842 -0.45000
O 	O 	0.05216 0.68214 0.37164 -0.50600
O 	O 	0.08687 0.60035 0.22176 -0.52600
O 	O 	0.02089 0.40607 0.21835 -0.43600
O 	O 	0.33121 0.67237 0.32439 -0.44700
O 	O 	0.20340 0.50760 0.34405 -0.48600
O 	O 	0.17607 0.85093 0.18158 -0.45000
O 	O 	0.31786 0.94784 0.12836 -0.50600
