data_crystal

_cell_length_a 17.99300
_cell_length_b 7.24970
_cell_length_c 11.59790
_cell_angle_alpha 90.00000
_cell_angle_beta  90.00000
_cell_angle_gamma 90.00000

_symmetry_space_group_name_	'P 1'
_symmetry_space_group_name_H-M	'P 1'

loop_
_symmetry_equiv_pos_as_xyz
  x,y,z

loop_
_atom_site_label
_atom_site_type_symbol
_atom_site_fract_x
_atom_site_fract_y
_atom_site_fract_z
_atom_site_charge
O 	O 	0.58268 0.09580 0.39725 -0.70500
C 	C 	0.71653 0.08700 0.27910 3.44000
N 	N 	0.69010 0.91610 0.32310 6.72900
O 	O 	0.64610 0.84160 0.25580 -1.00900
O 	O 	0.71500 0.85070 0.41270 -1.45900
H 	H 	0.59390 0.65670 0.19280 1.12000
H 	H 	0.52720 0.72980 0.15420 0.31100
H 	H 	0.69390 0.97290 0.29900 -7.09400
O 	O 	0.08268 0.59580 0.89725 -0.68100
C 	C 	0.21653 0.58700 0.77910 3.54900
N 	N 	0.19010 0.41610 0.82310 6.79200
O 	O 	0.14610 0.34160 0.75580 -1.00000
O 	O 	0.21500 0.35070 0.91270 -1.39300
H 	H 	0.09390 0.15670 0.69280 1.19200
H 	H 	0.02720 0.22980 0.65420 0.30400
H 	H 	0.19390 0.47290 0.79900 -7.19700
O 	O 	0.41732 0.40420 0.39725 -0.70800
C 	C 	0.28347 0.41300 0.27910 3.39600
N 	N 	0.30990 0.58390 0.32310 6.59900
O 	O 	0.35390 0.65840 0.25580 -0.99200
O 	O 	0.28500 0.64930 0.41270 -1.42400
H 	H 	0.40610 0.84330 0.19280 1.13200
H 	H 	0.47280 0.77020 0.15420 0.30800
H 	H 	0.30610 0.52710 0.29900 -6.96600
O 	O 	0.91732 0.90420 0.89725 -0.68900
C 	C 	0.78347 0.91300 0.77910 3.97900
N 	N 	0.80990 0.08390 0.82310 7.92500
O 	O 	0.85390 0.15840 0.75580 -1.14300
O 	O 	0.78500 0.14930 0.91270 -1.65900
H 	H 	0.90610 0.34330 0.69280 1.19900
H 	H 	0.97280 0.27020 0.65420 0.35700
H 	H 	0.80610 0.02710 0.79900 -8.31400
O 	O 	0.41732 0.59580 0.60275 -0.73100
C 	C 	0.28347 0.58700 0.72090 3.53500
N 	N 	0.30990 0.41610 0.67690 6.79400
O 	O 	0.35390 0.34160 0.74420 -1.00500
O 	O 	0.28500 0.35070 0.58730 -1.44300
H 	H 	0.40610 0.15670 0.80720 1.24700
H 	H 	0.47280 0.22980 0.84580 0.34100
H 	H 	0.30610 0.47290 0.70100 -7.19400
O 	O 	0.91732 0.09580 0.10275 -0.71900
C 	C 	0.78347 0.08700 0.22090 3.44800
N 	N 	0.80990 0.91610 0.17690 6.76000
O 	O 	0.85390 0.84160 0.24420 -1.01300
O 	O 	0.78500 0.85070 0.08730 -1.49600
H 	H 	0.90610 0.65670 0.30720 1.17200
H 	H 	0.97280 0.72980 0.34580 0.34600
H 	H 	0.80610 0.97290 0.20100 -7.11800
O 	O 	0.58268 0.90420 0.60275 -0.74900
C 	C 	0.71653 0.91300 0.72090 3.94900
N 	N 	0.69010 0.08390 0.67690 7.88600
O 	O 	0.64610 0.15840 0.74420 -1.13800
O 	O 	0.71500 0.14930 0.58730 -1.70700
H 	H 	0.59390 0.34330 0.80720 1.20500
H 	H 	0.52720 0.27020 0.84580 0.34900
H 	H 	0.69390 0.02710 0.70100 -8.27500
O 	O 	0.08268 0.40420 0.10275 -0.74500
C 	C 	0.21653 0.41300 0.22090 3.38600
N 	N 	0.19010 0.58390 0.17690 6.59000
O 	O 	0.14610 0.65840 0.24420 -0.98800
O 	O 	0.21500 0.64930 0.08730 -1.46400
H 	H 	0.09390 0.84330 0.30720 1.13600
H 	H 	0.02720 0.77020 0.34580 0.29800
H 	H 	0.19390 0.52710 0.20100 -6.95600
O 	O 	0.41732 0.90420 0.60275 -0.74800
C 	C 	0.28347 0.91300 0.72090 3.93200
N 	N 	0.30990 0.08390 0.67690 7.84600
O 	O 	0.35390 0.15840 0.74420 -1.13300
O 	O 	0.28500 0.14930 0.58730 -1.70000
H 	H 	0.40610 0.34330 0.80720 1.20500
H 	H 	0.47280 0.27020 0.84580 0.34900
H 	H 	0.30610 0.02710 0.70100 -8.23500
O 	O 	0.91732 0.40420 0.10275 -0.71200
C 	C 	0.78347 0.41300 0.22090 3.37600
N 	N 	0.80990 0.58390 0.17690 6.57700
O 	O 	0.85390 0.65840 0.24420 -0.99100
O 	O 	0.78500 0.64930 0.08730 -1.46000
H 	H 	0.90610 0.84330 0.30720 1.17800
H 	H 	0.97280 0.77020 0.34580 0.34800
H 	H 	0.80610 0.52710 0.20100 -6.93800
O 	O 	0.58268 0.59580 0.60275 -0.73100
C 	C 	0.71653 0.58700 0.72090 3.53400
N 	N 	0.69010 0.41610 0.67690 6.78500
O 	O 	0.64610 0.34160 0.74420 -1.00400
O 	O 	0.71500 0.35070 0.58730 -1.43900
H 	H 	0.59390 0.15670 0.80720 1.24800
H 	H 	0.52720 0.22980 0.84580 0.34100
H 	H 	0.69390 0.47290 0.70100 -7.18700
O 	O 	0.08268 0.09580 0.10275 -0.75300
C 	C 	0.21653 0.08700 0.22090 3.48000
N 	N 	0.19010 0.91610 0.17690 6.83000
O 	O 	0.14610 0.84160 0.24420 -1.01600
O 	O 	0.21500 0.85070 0.08730 -1.51300
H 	H 	0.09390 0.65670 0.30720 1.12800
H 	H 	0.02720 0.72980 0.34580 0.29600
H 	H 	0.19390 0.97290 0.20100 -7.19100
O 	O 	0.58268 0.40420 0.39725 -0.70600
C 	C 	0.71653 0.41300 0.27910 3.38700
N 	N 	0.69010 0.58390 0.32310 6.58300
O 	O 	0.64610 0.65840 0.25580 -0.99100
O 	O 	0.71500 0.64930 0.41270 -1.42000
H 	H 	0.59390 0.84330 0.19280 1.12800
H 	H 	0.52720 0.77020 0.15420 0.30600
H 	H 	0.69390 0.52710 0.29900 -6.94800
O 	O 	0.08268 0.90420 0.89725 -0.70800
C 	C 	0.21653 0.91300 0.77910 3.96300
N 	N 	0.19010 0.08390 0.82310 7.88100
O 	O 	0.14610 0.15840 0.75580 -1.13300
O 	O 	0.21500 0.14930 0.91270 -1.64700
H 	H 	0.09390 0.34330 0.69280 1.15200
H 	H 	0.02720 0.27020 0.65420 0.30600
H 	H 	0.19390 0.02710 0.79900 -8.27200
O 	O 	0.41732 0.09580 0.39725 -0.70700
C 	C 	0.28347 0.08700 0.27910 3.47000
N 	N 	0.30990 0.91610 0.32310 6.79900
O 	O 	0.35390 0.84160 0.25580 -1.01700
O 	O 	0.28500 0.85070 0.41270 -1.47500
H 	H 	0.40610 0.65670 0.19280 1.12300
H 	H 	0.47280 0.72980 0.15420 0.31200
H 	H 	0.30610 0.97290 0.29900 -7.16500
O 	O 	0.91732 0.59580 0.89725 -0.66000
C 	C 	0.78347 0.58700 0.77910 3.54500
N 	N 	0.80990 0.41610 0.82310 6.78400
O 	O 	0.85390 0.34160 0.75580 -1.00400
O 	O 	0.78500 0.35070 0.91270 -1.39200
H 	H 	0.90610 0.15670 0.69280 1.24100
H 	H 	0.97280 0.22980 0.65420 0.35500
H 	H 	0.80610 0.47290 0.79900 -7.18800
Co	Co	0.50000 0.00000 0.50000 1.25200
Co	Co	-0.00000 0.50000 -0.00000 1.16400
Co	Co	0.50000 0.50000 0.50000 1.24400
Co	Co	-0.00000 0.00000 -0.00000 1.15400
C 	C 	0.60960 0.25000 0.37370 1.49000
C 	C 	0.68190 0.25000 0.30910 -2.69000
H 	H 	0.54460 0.25000 0.65930 0.33000
C 	C 	0.10960 0.75000 0.87370 1.59700
C 	C 	0.18190 0.75000 0.80910 -2.94200
H 	H 	0.04460 0.75000 0.15930 0.33200
C 	C 	0.39040 0.25000 0.37370 1.49700
C 	C 	0.31810 0.25000 0.30910 -2.70700
H 	H 	0.45540 0.25000 0.65930 0.33000
C 	C 	0.89040 0.75000 0.87370 1.59700
C 	C 	0.81810 0.75000 0.80910 -2.94400
H 	H 	0.95540 0.75000 0.15930 0.37100
C 	C 	0.39040 0.75000 0.62630 1.59900
C 	C 	0.31810 0.75000 0.69090 -2.93600
H 	H 	0.45540 0.75000 0.34070 0.32200
C 	C 	0.89040 0.25000 0.12630 1.47900
C 	C 	0.81810 0.25000 0.19090 -2.69900
H 	H 	0.95540 0.25000 0.84070 0.36400
C 	C 	0.60960 0.75000 0.62630 1.60100
C 	C 	0.68190 0.75000 0.69090 -2.94300
H 	H 	0.54460 0.75000 0.34070 0.32200
C 	C 	0.10960 0.25000 0.12630 1.48900
C 	C 	0.18190 0.25000 0.19090 -2.72200
H 	H 	0.04460 0.25000 0.84070 0.32900
O 	O 	0.50000 0.25000 0.60920 -0.66600
O 	O 	-0.00000 0.75000 0.10920 -0.74500
O 	O 	0.50000 0.75000 0.39080 -0.67000
O 	O 	-0.00000 0.25000 0.89080 -0.63200
O 	O 	0.56620 0.75000 0.19370 -2.15400
O 	O 	0.06620 0.25000 0.69370 -2.19600
O 	O 	0.43380 0.75000 0.19370 -2.15900
O 	O 	0.93380 0.25000 0.69370 -2.29800
O 	O 	0.43380 0.25000 0.80630 -2.28700
O 	O 	0.93380 0.75000 0.30630 -2.24100
O 	O 	0.56620 0.25000 0.80630 -2.28900
O 	O 	0.06620 0.75000 0.30630 -2.14700
