data_crystal

_cell_length_a 18.49000
_cell_length_b 27.50900
_cell_length_c 22.86000
_cell_angle_alpha 90.00000
_cell_angle_beta  123.23000
_cell_angle_gamma 90.00000

_symmetry_space_group_name_	'P 1'
_symmetry_space_group_name_H-M	'P 1'

loop_
_symmetry_equiv_pos_as_xyz
  x,y,z

loop_
_atom_site_label
_atom_site_type_symbol
_atom_site_fract_x
_atom_site_fract_y
_atom_site_fract_z
_atom_site_charge
O 	O 	0.34230 0.21030 0.55100 -0.43800
O 	O 	0.27370 0.22020 0.43540 -0.45600
C 	C 	0.29680 0.23380 0.49590 0.38800
O 	O 	0.53650 0.63820 0.19780 -0.41800
O 	O 	0.54350 0.57780 0.13910 -0.32500
C 	C 	0.50800 0.59890 0.16680 0.31200
C 	C 	0.43210 0.57550 0.16180 -0.09000
C 	C 	0.38590 0.59940 0.18290 0.02800
H 	H 	0.39980 0.63130 0.19840 0.04000
C 	C 	0.31780 0.57640 0.18150 -0.10000
H 	H 	0.28710 0.59300 0.19660 0.06800
C 	C 	0.29560 0.52910 0.15790 0.04100
C 	C 	0.22390 0.50320 0.15650 0.05100
C 	C 	0.14660 0.52570 0.13240 -0.11300
H 	H 	0.13870 0.55800 0.11790 0.07200
C 	C 	0.07780 0.49950 0.12960 0.04100
C 	C 	0.99200 0.52400 0.09700 0.04300
C 	C 	0.95750 0.54980 0.03450 -0.11700
H 	H 	0.98760 0.55080 0.01260 0.07500
C 	C 	0.88050 0.57370 0.00510 0.04800
H 	H 	0.85850 0.59030 0.96330 0.02700
C 	C 	0.83400 0.57340 0.03710 -0.13600
O 	O 	0.50910 0.64430 0.84120 -0.36800
O 	O 	0.52500 0.57790 0.89870 -0.33600
C 	C 	0.48710 0.60070 0.84200 0.30200
C 	C 	0.41650 0.57700 0.77680 -0.08300
C 	C 	0.37680 0.60170 0.71480 0.01700
H 	H 	0.39090 0.63410 0.71410 0.04500
C 	C 	0.31340 0.57790 0.65080 -0.09100
H 	H 	0.28740 0.59430 0.60830 0.06600
C 	C 	0.29190 0.53110 0.65320 0.03400
C 	C 	0.23380 0.50360 0.58630 0.05600
C 	C 	0.15880 0.52550 0.53050 -0.12100
H 	H 	0.14380 0.55680 0.53540 0.07500
C 	C 	0.10720 0.50070 0.46830 0.05000
C 	C 	0.02680 0.52400 0.41170 0.04000
C 	C 	0.97100 0.54810 0.42330 -0.10700
H 	H 	0.98540 0.54990 0.46910 0.07100
C 	C 	0.89540 0.56990 0.37240 0.03800
H 	H 	0.85920 0.58540 0.38290 0.03000
C 	C 	0.87540 0.56780 0.30390 -0.11400
C 	C 	0.25050 0.45610 0.57830 -0.12200
H 	H 	0.29880 0.44090 0.61560 0.07800
C 	C 	0.79420 0.59250 0.24710 0.35800
O 	O 	0.73800 0.60610 0.25900 -0.44900
C 	C 	0.25290 0.22870 0.27010 0.37900
C 	C 	0.15070 0.35390 0.22950 -0.12700
H 	H 	0.11480 0.37150 0.23840 0.07300
C 	C 	0.16980 0.30590 0.25070 0.06000
H 	H 	0.14470 0.29130 0.27220 0.01900
C 	C 	0.22480 0.27970 0.24070 -0.12900
C 	C 	0.25670 0.30080 0.20420 0.06100
H 	H 	0.29200 0.28300 0.19490 0.03000
C 	C 	0.23600 0.34830 0.18180 -0.13100
H 	H 	0.25740 0.36200 0.15710 0.09000
C 	C 	0.40680 0.52730 0.13480 0.02400
H 	H 	0.43530 0.51110 0.11730 0.05200
C 	C 	0.34070 0.50510 0.13480 -0.10100
H 	H 	0.32590 0.47320 0.11890 0.08300
C 	C 	0.23480 0.45510 0.17650 -0.11000
H 	H 	0.28710 0.44000 0.19120 0.07700
C 	C 	0.16960 0.42810 0.17550 0.03600
C 	C 	0.09060 0.45190 0.15130 -0.11000
H 	H 	0.04610 0.43510 0.15000 0.06800
C 	C 	0.86720 0.54820 0.09790 0.04200
H 	H 	0.83750 0.54820 0.12000 0.02700
C 	C 	0.94350 0.52280 0.12740 -0.11300
H 	H 	0.96310 0.50460 0.16770 0.06800
O 	O 	0.21640 0.20760 0.29480 -0.44900
O 	O 	0.31780 0.21160 0.26980 -0.44100
C 	C 	0.18430 0.37590 0.19520 0.06100
Co	Co	0.63885 0.64638 0.19276 1.18000
Co	Co	0.60981 0.64471 0.94525 1.19300
Co	Co	0.75401 0.65964 0.12383 1.16700
O 	O 	0.71150 0.60980 0.93950 -0.38700
O 	O 	0.71920 0.61260 0.03810 -0.51300
O 	O 	0.78940 0.60050 0.18950 -0.43400
O 	O 	0.62490 0.65290 0.09480 -0.61800
O 	O 	0.53510 0.66110 0.98270 -0.47300
C 	C 	0.75060 0.60030 0.00320 0.34600
C 	C 	0.92820 0.54270 0.28830 0.03800
H 	H 	0.91350 0.54010 0.24250 0.02400
C 	C 	0.00310 0.52170 0.34280 -0.10700
H 	H 	0.03910 0.50540 0.33280 0.06600
C 	C 	0.12860 0.45330 0.46270 -0.12200
H 	H 	0.09440 0.43680 0.42050 0.07200
C 	C 	0.19890 0.43010 0.51760 0.05500
C 	C 	0.33070 0.50680 0.71840 -0.09400
H 	H 	0.31430 0.47520 0.72060 0.07600
C 	C 	0.39180 0.53000 0.77760 0.02200
H 	H 	0.41780 0.51360 0.82010 0.05300
C 	C 	0.22270 0.37980 0.51140 0.03600
C 	C 	0.26340 0.34780 0.57080 -0.10400
H 	H 	0.27490 0.35880 0.61350 0.06900
C 	C 	0.28520 0.30190 0.56540 0.04200
H 	H 	0.31190 0.28170 0.60440 0.03500
C 	C 	0.26760 0.28460 0.50090 -0.11900
C 	C 	0.22920 0.31450 0.44440 0.04400
H 	H 	0.21870 0.30320 0.40210 0.02800
C 	C 	0.20560 0.36130 0.44860 -0.10700
H 	H 	0.17770 0.38070 0.40880 0.06700
C 	C 	0.55270 0.66130 0.04340 0.58300
H 	H 	0.50860 0.66820 0.05030 -0.16700
O 	O 	0.65770 0.71030 0.94900 -0.43800
O 	O 	0.72630 0.72020 0.06460 -0.45700
C 	C 	0.70320 0.73380 0.00410 0.38700
O 	O 	0.46350 0.13820 0.30220 -0.41800
O 	O 	0.45650 0.07780 0.36090 -0.32500
C 	C 	0.49200 0.09890 0.33320 0.31200
C 	C 	0.56790 0.07550 0.33820 -0.09000
C 	C 	0.61410 0.09940 0.31710 0.02800
H 	H 	0.60020 0.13130 0.30160 0.04000
C 	C 	0.68220 0.07640 0.31850 -0.10000
H 	H 	0.71290 0.09300 0.30340 0.06800
C 	C 	0.70440 0.02910 0.34210 0.04100
C 	C 	0.77610 0.00320 0.34350 0.05100
C 	C 	0.85340 0.02570 0.36760 -0.11200
H 	H 	0.86130 0.05800 0.38210 0.07100
C 	C 	0.92220 0.99950 0.37040 0.03900
C 	C 	0.00800 0.02400 0.40300 0.04600
C 	C 	0.04250 0.04980 0.46550 -0.11900
H 	H 	0.01240 0.05080 0.48740 0.07600
C 	C 	0.11950 0.07370 0.49490 0.05100
H 	H 	0.14150 0.09030 0.53670 0.02600
C 	C 	0.16600 0.07340 0.46290 -0.13800
O 	O 	0.49090 0.14430 0.65880 -0.36800
O 	O 	0.47500 0.07790 0.60130 -0.33600
C 	C 	0.51290 0.10070 0.65800 0.30200
C 	C 	0.58350 0.07700 0.72320 -0.08300
C 	C 	0.62320 0.10170 0.78520 0.01700
H 	H 	0.60910 0.13410 0.78590 0.04500
C 	C 	0.68660 0.07790 0.84920 -0.09100
H 	H 	0.71260 0.09430 0.89170 0.06600
C 	C 	0.70810 0.03110 0.84680 0.03400
C 	C 	0.76620 0.00360 0.91370 0.05700
C 	C 	0.84120 0.02550 0.96950 -0.12100
H 	H 	0.85620 0.05680 0.96460 0.07500
C 	C 	0.89280 0.00070 0.03170 0.05100
C 	C 	0.97320 0.02400 0.08830 0.03900
C 	C 	0.02900 0.04810 0.07670 -0.10600
H 	H 	0.01460 0.04990 0.03090 0.07100
C 	C 	0.10460 0.06990 0.12760 0.03800
H 	H 	0.14080 0.08540 0.11710 0.03000
C 	C 	0.12460 0.06780 0.19610 -0.11400
C 	C 	0.74950 0.95610 0.92170 -0.12300
H 	H 	0.70120 0.94090 0.88440 0.07800
C 	C 	0.20580 0.09250 0.25290 0.35800
O 	O 	0.26200 0.10610 0.24100 -0.44900
C 	C 	0.74710 0.72870 0.22990 0.38000
C 	C 	0.84930 0.85390 0.27050 -0.12700
H 	H 	0.88520 0.87150 0.26160 0.07300
C 	C 	0.83020 0.80590 0.24930 0.06000
H 	H 	0.85530 0.79130 0.22780 0.01800
C 	C 	0.77520 0.77970 0.25930 -0.12900
C 	C 	0.74330 0.80080 0.29580 0.06100
H 	H 	0.70800 0.78300 0.30510 0.03000
C 	C 	0.76400 0.84830 0.31820 -0.13100
H 	H 	0.74260 0.86200 0.34290 0.09000
C 	C 	0.59320 0.02730 0.36520 0.02400
H 	H 	0.56470 0.01110 0.38270 0.05200
C 	C 	0.65930 0.00510 0.36520 -0.10100
H 	H 	0.67410 0.97320 0.38110 0.08300
C 	C 	0.76520 0.95510 0.32350 -0.11000
H 	H 	0.71290 0.94000 0.30880 0.07700
C 	C 	0.83040 0.92810 0.32450 0.03600
C 	C 	0.90940 0.95190 0.34870 -0.10900
H 	H 	0.95390 0.93510 0.35000 0.06800
C 	C 	0.13280 0.04820 0.40210 0.04400
H 	H 	0.16250 0.04820 0.38000 0.02600
C 	C 	0.05650 0.02280 0.37260 -0.11500
H 	H 	0.03690 0.00460 0.33230 0.06900
O 	O 	0.78360 0.70760 0.20520 -0.44900
O 	O 	0.68220 0.71160 0.23020 -0.44100
C 	C 	0.81570 0.87590 0.30480 0.06100
Co	Co	0.36115 0.14638 0.30724 1.18000
Co	Co	0.39019 0.14471 0.55475 1.19300
Co	Co	0.24599 0.15964 0.37617 1.16700
O 	O 	0.28850 0.10980 0.56050 -0.38800
O 	O 	0.28080 0.11260 0.46190 -0.51300
O 	O 	0.21060 0.10050 0.31050 -0.43400
O 	O 	0.37510 0.15290 0.40520 -0.61800
O 	O 	0.46490 0.16110 0.51730 -0.47300
C 	C 	0.24940 0.10030 0.49680 0.34700
C 	C 	0.07180 0.04270 0.21170 0.03900
H 	H 	0.08650 0.04010 0.25750 0.02400
C 	C 	0.99690 0.02170 0.15720 -0.10700
H 	H 	0.96090 0.00540 0.16720 0.06600
C 	C 	0.87140 0.95330 0.03730 -0.12400
H 	H 	0.90560 0.93680 0.07950 0.07200
C 	C 	0.80110 0.93010 0.98240 0.05700
C 	C 	0.66930 0.00680 0.78160 -0.09400
H 	H 	0.68570 0.97520 0.77940 0.07600
C 	C 	0.60820 0.03000 0.72240 0.02200
H 	H 	0.58220 0.01360 0.67990 0.05300
C 	C 	0.77730 0.87980 0.98860 0.03500
C 	C 	0.73660 0.84780 0.92920 -0.10300
H 	H 	0.72510 0.85880 0.88650 0.06900
C 	C 	0.71480 0.80190 0.93460 0.04100
H 	H 	0.68810 0.78170 0.89560 0.03500
C 	C 	0.73240 0.78460 0.99910 -0.11700
C 	C 	0.77080 0.81450 0.05560 0.04300
H 	H 	0.78130 0.80320 0.09790 0.02800
C 	C 	0.79440 0.86130 0.05140 -0.10600
H 	H 	0.82230 0.88070 0.09120 0.06600
C 	C 	0.44730 0.16130 0.45660 0.58300
H 	H 	0.49140 0.16820 0.44970 -0.16700
O 	O 	0.65770 0.78970 0.44900 -0.43900
O 	O 	0.72630 0.77980 0.56460 -0.45700
C 	C 	0.70320 0.76620 0.50410 0.38800
O 	O 	0.46350 0.36180 0.80220 -0.41800
O 	O 	0.45650 0.42220 0.86090 -0.32500
C 	C 	0.49200 0.40110 0.83320 0.31200
C 	C 	0.56790 0.42450 0.83820 -0.09000
C 	C 	0.61410 0.40060 0.81710 0.02800
H 	H 	0.60020 0.36870 0.80160 0.04000
C 	C 	0.68220 0.42360 0.81850 -0.10000
H 	H 	0.71290 0.40700 0.80340 0.06800
C 	C 	0.70440 0.47090 0.84210 0.04100
C 	C 	0.77610 0.49680 0.84350 0.05100
C 	C 	0.85340 0.47430 0.86760 -0.11300
H 	H 	0.86130 0.44200 0.88210 0.07200
C 	C 	0.92220 0.50050 0.87040 0.04100
C 	C 	0.00800 0.47600 0.90300 0.04300
C 	C 	0.04250 0.45020 0.96550 -0.11700
H 	H 	0.01240 0.44920 0.98740 0.07500
C 	C 	0.11950 0.42630 0.99490 0.04800
H 	H 	0.14150 0.40970 0.03670 0.02700
C 	C 	0.16600 0.42660 0.96290 -0.13600
O 	O 	0.49090 0.35570 0.15880 -0.36800
O 	O 	0.47500 0.42210 0.10130 -0.33600
C 	C 	0.51290 0.39930 0.15800 0.30200
C 	C 	0.58350 0.42300 0.22320 -0.08300
C 	C 	0.62320 0.39830 0.28520 0.01700
H 	H 	0.60910 0.36590 0.28590 0.04500
C 	C 	0.68660 0.42210 0.34920 -0.09100
H 	H 	0.71260 0.40570 0.39170 0.06600
C 	C 	0.70810 0.46890 0.34680 0.03400
C 	C 	0.76620 0.49640 0.41370 0.05600
C 	C 	0.84120 0.47450 0.46950 -0.12100
H 	H 	0.85620 0.44320 0.46460 0.07500
C 	C 	0.89280 0.49930 0.53170 0.05000
C 	C 	0.97320 0.47600 0.58830 0.04000
C 	C 	0.02900 0.45190 0.57670 -0.10700
H 	H 	0.01460 0.45010 0.53090 0.07100
C 	C 	0.10460 0.43010 0.62760 0.03800
H 	H 	0.14080 0.41460 0.61710 0.03000
C 	C 	0.12460 0.43220 0.69610 -0.11400
C 	C 	0.74950 0.54390 0.42170 -0.12200
H 	H 	0.70120 0.55910 0.38440 0.07800
C 	C 	0.20580 0.40750 0.75290 0.35800
O 	O 	0.26200 0.39390 0.74100 -0.44900
C 	C 	0.74710 0.77130 0.72990 0.37900
C 	C 	0.84930 0.64610 0.77050 -0.12700
H 	H 	0.88520 0.62850 0.76160 0.07300
C 	C 	0.83020 0.69410 0.74930 0.06000
H 	H 	0.85530 0.70870 0.72780 0.01900
C 	C 	0.77520 0.72030 0.75930 -0.12900
C 	C 	0.74330 0.69920 0.79580 0.06100
H 	H 	0.70800 0.71700 0.80510 0.03000
C 	C 	0.76400 0.65170 0.81820 -0.13100
H 	H 	0.74260 0.63800 0.84290 0.09000
C 	C 	0.59320 0.47270 0.86520 0.02400
H 	H 	0.56470 0.48890 0.88270 0.05200
C 	C 	0.65930 0.49490 0.86520 -0.10100
H 	H 	0.67410 0.52680 0.88110 0.08300
C 	C 	0.76520 0.54490 0.82350 -0.11000
H 	H 	0.71290 0.56000 0.80880 0.07700
C 	C 	0.83040 0.57190 0.82450 0.03600
C 	C 	0.90940 0.54810 0.84870 -0.11000
H 	H 	0.95390 0.56490 0.85000 0.06800
C 	C 	0.13280 0.45180 0.90210 0.04200
H 	H 	0.16250 0.45180 0.88000 0.02700
C 	C 	0.05650 0.47720 0.87260 -0.11300
H 	H 	0.03690 0.49540 0.83230 0.06800
O 	O 	0.78360 0.79240 0.70520 -0.44900
O 	O 	0.68220 0.78840 0.73020 -0.44100
C 	C 	0.81570 0.62410 0.80480 0.06100
Co	Co	0.36115 0.35362 0.80724 1.18000
Co	Co	0.39019 0.35529 0.05475 1.19300
Co	Co	0.24599 0.34036 0.87617 1.16700
O 	O 	0.28850 0.39020 0.06050 -0.38700
O 	O 	0.28080 0.38740 0.96190 -0.51300
O 	O 	0.21060 0.39950 0.81050 -0.43400
O 	O 	0.37510 0.34710 0.90520 -0.61800
O 	O 	0.46490 0.33890 0.01730 -0.47300
C 	C 	0.24940 0.39970 0.99680 0.34600
C 	C 	0.07180 0.45730 0.71170 0.03800
H 	H 	0.08650 0.45990 0.75750 0.02400
C 	C 	0.99690 0.47830 0.65720 -0.10700
H 	H 	0.96090 0.49460 0.66720 0.06600
C 	C 	0.87140 0.54670 0.53730 -0.12200
H 	H 	0.90560 0.56320 0.57950 0.07200
C 	C 	0.80110 0.56990 0.48240 0.05500
C 	C 	0.66930 0.49320 0.28160 -0.09400
H 	H 	0.68570 0.52480 0.27940 0.07600
C 	C 	0.60820 0.47000 0.22240 0.02200
H 	H 	0.58220 0.48640 0.17990 0.05300
C 	C 	0.77730 0.62020 0.48860 0.03600
C 	C 	0.73660 0.65220 0.42920 -0.10400
H 	H 	0.72510 0.64120 0.38650 0.06900
C 	C 	0.71480 0.69810 0.43460 0.04200
H 	H 	0.68810 0.71830 0.39560 0.03500
C 	C 	0.73240 0.71540 0.49910 -0.11900
C 	C 	0.77080 0.68550 0.55560 0.04400
H 	H 	0.78130 0.69680 0.59790 0.02800
C 	C 	0.79440 0.63870 0.55140 -0.10700
H 	H 	0.82230 0.61930 0.59120 0.06700
C 	C 	0.44730 0.33870 0.95660 0.58300
H 	H 	0.49140 0.33180 0.94970 -0.16700
O 	O 	0.34230 0.28970 0.05100 -0.43800
O 	O 	0.27370 0.27980 0.93540 -0.45700
C 	C 	0.29680 0.26620 0.99590 0.38700
O 	O 	0.53650 0.86180 0.69780 -0.41800
O 	O 	0.54350 0.92220 0.63910 -0.32500
C 	C 	0.50800 0.90110 0.66680 0.31200
C 	C 	0.43210 0.92450 0.66180 -0.09000
C 	C 	0.38590 0.90060 0.68290 0.02800
H 	H 	0.39980 0.86870 0.69840 0.04000
C 	C 	0.31780 0.92360 0.68150 -0.10000
H 	H 	0.28710 0.90700 0.69660 0.06800
C 	C 	0.29560 0.97090 0.65790 0.04100
C 	C 	0.22390 0.99680 0.65650 0.05100
C 	C 	0.14660 0.97430 0.63240 -0.11200
H 	H 	0.13870 0.94200 0.61790 0.07100
C 	C 	0.07780 0.00050 0.62960 0.03900
C 	C 	0.99200 0.97600 0.59700 0.04600
C 	C 	0.95750 0.95020 0.53450 -0.11900
H 	H 	0.98760 0.94920 0.51260 0.07600
C 	C 	0.88050 0.92630 0.50510 0.05100
H 	H 	0.85850 0.90970 0.46330 0.02600
C 	C 	0.83400 0.92660 0.53710 -0.13800
O 	O 	0.50910 0.85570 0.34120 -0.36800
O 	O 	0.52500 0.92210 0.39870 -0.33600
C 	C 	0.48710 0.89930 0.34200 0.30200
C 	C 	0.41650 0.92300 0.27680 -0.08300
C 	C 	0.37680 0.89830 0.21480 0.01700
H 	H 	0.39090 0.86590 0.21410 0.04500
C 	C 	0.31340 0.92210 0.15080 -0.09100
H 	H 	0.28740 0.90570 0.10830 0.06600
C 	C 	0.29190 0.96890 0.15320 0.03400
C 	C 	0.23380 0.99640 0.08630 0.05700
C 	C 	0.15880 0.97450 0.03050 -0.12100
H 	H 	0.14380 0.94320 0.03540 0.07500
C 	C 	0.10720 0.99930 0.96830 0.05100
C 	C 	0.02680 0.97600 0.91170 0.03900
C 	C 	0.97100 0.95190 0.92330 -0.10600
H 	H 	0.98540 0.95010 0.96910 0.07100
C 	C 	0.89540 0.93010 0.87240 0.03800
H 	H 	0.85920 0.91460 0.88290 0.03000
C 	C 	0.87540 0.93220 0.80390 -0.11400
C 	C 	0.25050 0.04390 0.07830 -0.12300
H 	H 	0.29880 0.05910 0.11560 0.07800
C 	C 	0.79420 0.90750 0.74710 0.35800
O 	O 	0.73800 0.89390 0.75900 -0.44900
C 	C 	0.25290 0.27130 0.77010 0.38000
C 	C 	0.15070 0.14610 0.72950 -0.12700
H 	H 	0.11480 0.12850 0.73840 0.07300
C 	C 	0.16980 0.19410 0.75070 0.06000
H 	H 	0.14470 0.20870 0.77220 0.01800
C 	C 	0.22480 0.22030 0.74070 -0.12900
C 	C 	0.25670 0.19920 0.70420 0.06100
H 	H 	0.29200 0.21700 0.69490 0.03000
C 	C 	0.23600 0.15170 0.68180 -0.13100
H 	H 	0.25740 0.13800 0.65710 0.09000
C 	C 	0.40680 0.97270 0.63480 0.02400
H 	H 	0.43530 0.98890 0.61730 0.05200
C 	C 	0.34070 0.99490 0.63480 -0.10100
H 	H 	0.32590 0.02680 0.61890 0.08300
C 	C 	0.23480 0.04490 0.67650 -0.11000
H 	H 	0.28710 0.06000 0.69120 0.07700
C 	C 	0.16960 0.07190 0.67550 0.03600
C 	C 	0.09060 0.04810 0.65130 -0.10900
H 	H 	0.04610 0.06490 0.65000 0.06800
C 	C 	0.86720 0.95180 0.59790 0.04400
H 	H 	0.83750 0.95180 0.62000 0.02600
C 	C 	0.94350 0.97720 0.62740 -0.11500
H 	H 	0.96310 0.99540 0.66770 0.06900
O 	O 	0.21640 0.29240 0.79480 -0.44900
O 	O 	0.31780 0.28840 0.76980 -0.44100
C 	C 	0.18430 0.12410 0.69520 0.06100
Co	Co	0.63885 0.85362 0.69276 1.18000
Co	Co	0.60981 0.85529 0.44525 1.19300
Co	Co	0.75401 0.84036 0.62383 1.16700
O 	O 	0.71150 0.89020 0.43950 -0.38800
O 	O 	0.71920 0.88740 0.53810 -0.51300
O 	O 	0.78940 0.89950 0.68950 -0.43400
O 	O 	0.62490 0.84710 0.59480 -0.61800
O 	O 	0.53510 0.83890 0.48270 -0.47300
C 	C 	0.75060 0.89970 0.50320 0.34700
C 	C 	0.92820 0.95730 0.78830 0.03900
H 	H 	0.91350 0.95990 0.74250 0.02400
C 	C 	0.00310 0.97830 0.84280 -0.10700
H 	H 	0.03910 0.99460 0.83280 0.06600
C 	C 	0.12860 0.04670 0.96270 -0.12400
H 	H 	0.09440 0.06320 0.92050 0.07200
C 	C 	0.19890 0.06990 0.01760 0.05700
C 	C 	0.33070 0.99320 0.21840 -0.09400
H 	H 	0.31430 0.02480 0.22060 0.07600
C 	C 	0.39180 0.97000 0.27760 0.02200
H 	H 	0.41780 0.98640 0.32010 0.05300
C 	C 	0.22270 0.12020 0.01140 0.03500
C 	C 	0.26340 0.15220 0.07080 -0.10300
H 	H 	0.27490 0.14120 0.11350 0.06900
C 	C 	0.28520 0.19810 0.06540 0.04100
H 	H 	0.31190 0.21830 0.10440 0.03500
C 	C 	0.26760 0.21540 0.00090 -0.11700
C 	C 	0.22920 0.18550 0.94440 0.04300
H 	H 	0.21870 0.19680 0.90210 0.02800
C 	C 	0.20560 0.13870 0.94860 -0.10600
H 	H 	0.17770 0.11930 0.90880 0.06600
C 	C 	0.55270 0.83870 0.54340 0.58300
H 	H 	0.50860 0.83180 0.55030 -0.16700
