data_crystal

_cell_length_a 14.65180
_cell_length_b 14.65180
_cell_length_c 14.65180
_cell_angle_alpha 90.00000
_cell_angle_beta  90.00000
_cell_angle_gamma 90.00000

_symmetry_space_group_name_	'P 1'
_symmetry_space_group_name_H-M	'P 1'

loop_
_symmetry_equiv_pos_as_xyz
  x,y,z

loop_
_atom_site_label
_atom_site_type_symbol
_atom_site_fract_x
_atom_site_fract_y
_atom_site_fract_z
_atom_site_charge
Co	Co	0.95576 0.54424 0.45576 1.19800
Co	Co	0.81633 0.68367 0.31633 1.12700
Co	Co	0.54424 0.45576 0.95576 1.19900
Co	Co	0.68367 0.31633 0.81633 1.12700
Co	Co	0.04424 0.04424 0.04424 1.20100
Co	Co	0.18367 0.18367 0.18367 1.12700
Co	Co	0.45576 0.95576 0.54424 1.19900
Co	Co	0.31633 0.81633 0.68367 1.12700
H 	H 	0.75220 0.46990 0.16320 0.01500
H 	H 	0.74780 0.53010 0.66320 0.01500
H 	H 	0.24780 0.96990 0.33680 0.01500
H 	H 	0.25220 0.03010 0.83680 0.01500
H 	H 	0.16320 0.75220 0.46990 0.01500
H 	H 	0.66320 0.74780 0.53010 0.01500
H 	H 	0.33680 0.24780 0.96990 0.01500
H 	H 	0.83680 0.25220 0.03010 0.01500
H 	H 	0.46990 0.16320 0.75220 0.01500
H 	H 	0.53010 0.66320 0.74780 0.01500
H 	H 	0.96990 0.33680 0.24780 0.01500
H 	H 	0.03010 0.83680 0.25220 0.01500
C 	C 	0.86920 0.48600 0.29270 0.40300
C 	C 	0.79410 0.42270 0.15610 0.11300
C 	C 	0.86330 0.41510 0.21640 -0.17200
C 	C 	0.63080 0.51400 0.79270 0.40300
C 	C 	0.70590 0.57730 0.65610 0.11300
C 	C 	0.63670 0.58490 0.71640 -0.17300
C 	C 	0.13080 0.98600 0.20730 0.40200
C 	C 	0.20590 0.92270 0.34390 0.11200
C 	C 	0.13670 0.91510 0.28360 -0.17200
C 	C 	0.36920 0.01400 0.70730 0.40500
C 	C 	0.29410 0.07730 0.84390 0.11300
C 	C 	0.36330 0.08490 0.78360 -0.17200
C 	C 	0.29270 0.86920 0.48600 0.40300
C 	C 	0.15610 0.79410 0.42270 0.11300
C 	C 	0.21640 0.86330 0.41510 -0.17200
C 	C 	0.79270 0.63080 0.51400 0.40300
C 	C 	0.65610 0.70590 0.57730 0.11300
C 	C 	0.71640 0.63670 0.58490 -0.17300
C 	C 	0.20730 0.13080 0.98600 0.40200
C 	C 	0.34390 0.20590 0.92270 0.11200
C 	C 	0.28360 0.13670 0.91510 -0.17200
C 	C 	0.70730 0.36920 0.01400 0.40500
C 	C 	0.84390 0.29410 0.07730 0.11300
C 	C 	0.78360 0.36330 0.08490 -0.17200
C 	C 	0.48600 0.29270 0.86920 0.40300
C 	C 	0.42270 0.15610 0.79410 0.11300
C 	C 	0.41510 0.21640 0.86330 -0.17200
C 	C 	0.51400 0.79270 0.63080 0.40300
C 	C 	0.57730 0.65610 0.70590 0.11300
C 	C 	0.58490 0.71640 0.63670 -0.17300
C 	C 	0.98600 0.20730 0.13080 0.40200
C 	C 	0.92270 0.34390 0.20590 0.11200
C 	C 	0.91510 0.28360 0.13670 -0.17200
C 	C 	0.01400 0.70730 0.36920 0.40500
C 	C 	0.07730 0.84390 0.29410 0.11300
C 	C 	0.08490 0.78360 0.36330 -0.17200
Cl	Cl	0.03790 0.46210 0.53790 -0.51500
Cl	Cl	0.46210 0.53790 0.03790 -0.51500
Cl	Cl	0.96210 0.96210 0.96210 -0.52100
Cl	Cl	0.53790 0.03790 0.46210 -0.51500
O 	O 	0.81950 0.55250 0.29030 -0.51400
O 	O 	0.93700 0.46880 0.34890 -0.44800
O 	O 	0.68050 0.44750 0.79030 -0.51400
O 	O 	0.56300 0.53120 0.84890 -0.44800
O 	O 	0.18050 0.05250 0.20970 -0.51300
O 	O 	0.06300 0.96880 0.15110 -0.44700
O 	O 	0.31950 0.94750 0.70970 -0.51600
O 	O 	0.43700 0.03120 0.65110 -0.44800
O 	O 	0.29030 0.81950 0.55250 -0.51400
O 	O 	0.34890 0.93700 0.46880 -0.44800
O 	O 	0.79030 0.68050 0.44750 -0.51400
O 	O 	0.84890 0.56300 0.53120 -0.44800
O 	O 	0.20970 0.18050 0.05250 -0.51300
O 	O 	0.15110 0.06300 0.96880 -0.44700
O 	O 	0.70970 0.31950 0.94750 -0.51600
O 	O 	0.65110 0.43700 0.03120 -0.44800
O 	O 	0.55250 0.29030 0.81950 -0.51400
O 	O 	0.46880 0.34890 0.93700 -0.44800
O 	O 	0.44750 0.79030 0.68050 -0.51400
O 	O 	0.53120 0.84890 0.56300 -0.44800
O 	O 	0.05250 0.20970 0.18050 -0.51300
O 	O 	0.96880 0.15110 0.06300 -0.44700
O 	O 	0.94750 0.70970 0.31950 -0.51600
O 	O 	0.03120 0.65110 0.43700 -0.44800
