data_crystal

_cell_length_a 17.44300
_cell_length_b 25.09400
_cell_length_c 21.99100
_cell_angle_alpha 90.00000
_cell_angle_beta  90.00000
_cell_angle_gamma 90.00000

_symmetry_space_group_name_	'P 1'
_symmetry_space_group_name_H-M	'P 1'

loop_
_symmetry_equiv_pos_as_xyz
  x,y,z

loop_
_atom_site_label
_atom_site_type_symbol
_atom_site_fract_x
_atom_site_fract_y
_atom_site_fract_z
_atom_site_charge
O 	O 	0.88110 0.67980 0.56530 -0.42800
O 	O 	0.93070 0.60920 0.52900 -0.35000
O 	O 	0.50140 0.36248 0.15526 -0.42500
O 	O 	0.43600 0.30931 0.21956 -0.42600
C 	C 	0.43450 0.38930 0.30740 0.05600
H 	H 	0.40040 0.36110 0.31220 0.02400
C 	C 	0.53010 0.43340 0.25000 0.05300
H 	H 	0.56080 0.43610 0.21550 0.03000
C 	C 	0.53590 0.47110 0.29580 -0.12000
H 	H 	0.57160 0.49840 0.29170 0.07400
C 	C 	0.43960 0.42750 0.35180 -0.12500
H 	H 	0.40820 0.42500 0.38590 0.07600
C 	C 	0.47130 0.35130 0.20570 0.38500
C 	C 	0.47910 0.39200 0.25550 -0.12600
Co	Co	0.99852 0.67884 0.57610 1.16600
C 	C 	0.43100 0.53110 0.42150 -0.10400
H 	H 	0.38330 0.51830 0.40950 0.06800
C 	C 	0.23200 0.63900 0.54360 -0.14500
C 	C 	0.57350 0.56860 0.45820 0.04100
C 	C 	0.49580 0.51090 0.39480 0.03900
C 	C 	0.16220 0.66540 0.57130 0.40400
C 	C 	0.36410 0.59350 0.49420 0.06500
C 	C 	0.43490 0.57030 0.46580 0.03300
C 	C 	0.36390 0.61440 0.55130 -0.14100
H 	H 	0.40860 0.61320 0.57440 0.08200
C 	C 	0.56700 0.53030 0.41340 -0.10700
H 	H 	0.61120 0.51700 0.39520 0.06900
C 	C 	0.78340 0.56720 0.49800 0.04600
H 	H 	0.82380 0.54310 0.49650 0.03300
C 	C 	0.29970 0.63720 0.57560 0.07200
H 	H 	0.30170 0.65160 0.61450 0.01800
C 	C 	0.50770 0.58910 0.48330 -0.10300
H 	H 	0.51120 0.61590 0.51240 0.06500
C 	C 	0.79620 0.61790 0.51790 -0.11200
C 	C 	0.65060 0.58630 0.47910 0.04700
C 	C 	0.29620 0.59540 0.46160 -0.13500
H 	H 	0.29480 0.58230 0.42200 0.07800
C 	C 	0.73580 0.65240 0.51850 0.04000
H 	H 	0.74330 0.68690 0.53270 0.03200
C 	C 	0.23040 0.61670 0.48700 0.06900
H 	H 	0.18470 0.61570 0.46530 0.02100
C 	C 	0.71190 0.55130 0.48040 -0.11800
H 	H 	0.70420 0.51600 0.46890 0.07500
C 	C 	0.49060 0.46960 0.34710 0.05200
C 	C 	0.66420 0.63760 0.49870 -0.11500
H 	H 	0.62460 0.66240 0.49850 0.06900
C 	C 	0.87460 0.63900 0.53880 0.35700
O 	O 	0.17060 0.69256 0.61706 -0.46900
O 	O 	0.09890 0.65743 0.54320 -0.46700
O 	O 	0.61890 0.32020 0.06530 -0.42900
O 	O 	0.56930 0.39080 0.02900 -0.35100
O 	O 	0.99860 0.63752 0.65526 -0.42500
O 	O 	0.06400 0.69069 0.71956 -0.42600
C 	C 	0.06550 0.61070 0.80740 0.05600
H 	H 	0.09960 0.63890 0.81220 0.02400
C 	C 	0.96990 0.56660 0.75000 0.05300
H 	H 	0.93920 0.56390 0.71550 0.03000
C 	C 	0.96410 0.52890 0.79580 -0.12000
H 	H 	0.92840 0.50160 0.79170 0.07400
C 	C 	0.06040 0.57250 0.85180 -0.12600
H 	H 	0.09180 0.57500 0.88590 0.07600
C 	C 	0.02870 0.64870 0.70570 0.38600
C 	C 	0.02090 0.60800 0.75550 -0.12600
Co	Co	0.50148 0.32116 0.07610 1.16600
C 	C 	0.06900 0.46890 0.92150 -0.10200
H 	H 	0.11670 0.48170 0.90950 0.06700
C 	C 	0.26800 0.36100 0.04360 -0.14400
C 	C 	0.92650 0.43140 0.95820 0.03800
C 	C 	0.00420 0.48910 0.89480 0.03700
C 	C 	0.33780 0.33460 0.07130 0.40300
C 	C 	0.13590 0.40650 0.99420 0.06500
C 	C 	0.06510 0.42970 0.96580 0.03100
C 	C 	0.13610 0.38560 0.05130 -0.13900
H 	H 	0.09140 0.38680 0.07440 0.08100
C 	C 	0.93300 0.46970 0.91340 -0.10400
H 	H 	0.88880 0.48300 0.89520 0.06800
C 	C 	0.71660 0.43280 0.99800 0.04800
H 	H 	0.67620 0.45690 0.99650 0.03300
C 	C 	0.20030 0.36280 0.07560 0.07200
H 	H 	0.19830 0.34840 0.11450 0.01900
C 	C 	0.99230 0.41090 0.98330 -0.09900
H 	H 	0.98880 0.38410 0.01240 0.06300
C 	C 	0.70380 0.38210 0.01790 -0.11300
C 	C 	0.84940 0.41370 0.97910 0.04800
C 	C 	0.20380 0.40460 0.96160 -0.13500
H 	H 	0.20520 0.41770 0.92200 0.07800
C 	C 	0.76420 0.34760 0.01850 0.04000
H 	H 	0.75670 0.31310 0.03270 0.03100
C 	C 	0.26960 0.38330 0.98700 0.06700
H 	H 	0.31530 0.38430 0.96530 0.02100
C 	C 	0.78810 0.44870 0.98040 -0.11900
H 	H 	0.79580 0.48400 0.96890 0.07600
C 	C 	0.00940 0.53040 0.84710 0.05300
C 	C 	0.83580 0.36240 0.99870 -0.11600
H 	H 	0.87540 0.33760 0.99850 0.07000
C 	C 	0.62540 0.36100 0.03880 0.35800
O 	O 	0.32940 0.30744 0.11706 -0.46900
O 	O 	0.40110 0.34257 0.04320 -0.46700
O 	O 	0.88110 0.82020 0.56530 -0.42900
O 	O 	0.93070 0.89080 0.52900 -0.35100
O 	O 	0.50140 0.13752 0.15526 -0.42500
O 	O 	0.43600 0.19069 0.21956 -0.42600
C 	C 	0.43450 0.11070 0.30740 0.05600
H 	H 	0.40040 0.13890 0.31220 0.02400
C 	C 	0.53010 0.06660 0.25000 0.05300
H 	H 	0.56080 0.06390 0.21550 0.03000
C 	C 	0.53590 0.02890 0.29580 -0.12000
H 	H 	0.57160 0.00160 0.29170 0.07400
C 	C 	0.43960 0.07250 0.35180 -0.12600
H 	H 	0.40820 0.07500 0.38590 0.07600
C 	C 	0.47130 0.14870 0.20570 0.38500
C 	C 	0.47910 0.10800 0.25550 -0.12600
Co	Co	0.99852 0.82116 0.57610 1.16600
C 	C 	0.43100 0.96890 0.42150 -0.10400
H 	H 	0.38330 0.98170 0.40950 0.06800
C 	C 	0.23200 0.86100 0.54360 -0.14500
C 	C 	0.57350 0.93140 0.45820 0.04100
C 	C 	0.49580 0.98910 0.39480 0.03900
C 	C 	0.16220 0.83460 0.57130 0.40400
C 	C 	0.36410 0.90650 0.49420 0.06500
C 	C 	0.43490 0.92970 0.46580 0.03300
C 	C 	0.36390 0.88560 0.55130 -0.14000
H 	H 	0.40860 0.88680 0.57440 0.08200
C 	C 	0.56700 0.96970 0.41340 -0.10700
H 	H 	0.61120 0.98300 0.39520 0.06900
C 	C 	0.78340 0.93280 0.49800 0.04600
H 	H 	0.82380 0.95690 0.49650 0.03300
C 	C 	0.29970 0.86280 0.57560 0.07200
H 	H 	0.30170 0.84840 0.61450 0.01800
C 	C 	0.50770 0.91090 0.48330 -0.10300
H 	H 	0.51120 0.88410 0.51240 0.06500
C 	C 	0.79620 0.88210 0.51790 -0.11200
C 	C 	0.65060 0.91370 0.47910 0.04700
C 	C 	0.29620 0.90460 0.46160 -0.13500
H 	H 	0.29480 0.91770 0.42200 0.07800
C 	C 	0.73580 0.84760 0.51850 0.04000
H 	H 	0.74330 0.81310 0.53270 0.03200
C 	C 	0.23040 0.88330 0.48700 0.06900
H 	H 	0.18470 0.88430 0.46530 0.02100
C 	C 	0.71190 0.94870 0.48040 -0.11800
H 	H 	0.70420 0.98400 0.46890 0.07500
C 	C 	0.49060 0.03040 0.34710 0.05200
C 	C 	0.66420 0.86240 0.49870 -0.11500
H 	H 	0.62460 0.83760 0.49850 0.06900
C 	C 	0.87460 0.86100 0.53880 0.35700
O 	O 	0.17060 0.80744 0.61706 -0.46900
O 	O 	0.09890 0.84257 0.54320 -0.46700
O 	O 	0.61890 0.17980 0.06530 -0.42900
O 	O 	0.56930 0.10920 0.02900 -0.35100
O 	O 	0.99860 0.86248 0.65526 -0.42600
O 	O 	0.06400 0.80931 0.71956 -0.42600
C 	C 	0.06550 0.88930 0.80740 0.05900
H 	H 	0.09960 0.86110 0.81220 0.02300
C 	C 	0.96990 0.93340 0.75000 0.05500
H 	H 	0.93920 0.93610 0.71550 0.02900
C 	C 	0.96410 0.97110 0.79580 -0.12500
H 	H 	0.92840 0.99840 0.79170 0.07500
C 	C 	0.06040 0.92750 0.85180 -0.13000
H 	H 	0.09180 0.92500 0.88590 0.07800
C 	C 	0.02870 0.85130 0.70570 0.38700
C 	C 	0.02090 0.89200 0.75550 -0.12800
Co	Co	0.50148 0.17884 0.07610 1.16600
C 	C 	0.06900 0.03110 0.92150 -0.09700
H 	H 	0.11670 0.01830 0.90950 0.06500
C 	C 	0.26800 0.13900 0.04360 -0.14500
C 	C 	0.92650 0.06860 0.95820 0.03500
C 	C 	0.00420 0.01090 0.89480 0.03000
C 	C 	0.33780 0.16540 0.07130 0.40400
C 	C 	0.13590 0.09350 0.99420 0.06600
C 	C 	0.06510 0.07030 0.96580 0.02700
C 	C 	0.13610 0.11440 0.05130 -0.14000
H 	H 	0.09140 0.11320 0.07440 0.08200
C 	C 	0.93300 0.03030 0.91340 -0.09800
H 	H 	0.88880 0.01700 0.89520 0.06600
C 	C 	0.71660 0.06720 0.99800 0.04900
H 	H 	0.67620 0.04310 0.99650 0.03200
C 	C 	0.20030 0.13720 0.07560 0.07200
H 	H 	0.19830 0.15160 0.11450 0.01800
C 	C 	0.99230 0.08910 0.98330 -0.09500
H 	H 	0.98880 0.11590 0.01240 0.06200
C 	C 	0.70380 0.11790 0.01790 -0.11300
C 	C 	0.84940 0.08630 0.97910 0.05100
C 	C 	0.20380 0.09540 0.96160 -0.13600
H 	H 	0.20520 0.08230 0.92200 0.07800
C 	C 	0.76420 0.15240 0.01850 0.04200
H 	H 	0.75670 0.18690 0.03270 0.03100
C 	C 	0.26960 0.11670 0.98700 0.06800
H 	H 	0.31530 0.11570 0.96530 0.02100
C 	C 	0.78810 0.05130 0.98040 -0.12000
H 	H 	0.79580 0.01600 0.96890 0.07600
C 	C 	0.00940 0.96960 0.84710 0.05900
C 	C 	0.83580 0.13760 0.99870 -0.11800
H 	H 	0.87540 0.16240 0.99850 0.07100
C 	C 	0.62540 0.13900 0.03880 0.35800
O 	O 	0.32940 0.19256 0.11706 -0.46900
O 	O 	0.40110 0.15743 0.04320 -0.46700
Co	Co	0.11287 0.75000 0.66593 1.16700
O 	O 	0.00960 0.75000 0.61560 -0.61000
Co	Co	0.38713 0.25000 0.16593 1.16700
O 	O 	0.49040 0.25000 0.11560 -0.61100
O 	O 	0.11890 0.17980 0.43470 -0.42900
O 	O 	0.06930 0.10920 0.47100 -0.35100
O 	O 	0.49860 0.86248 0.84474 -0.42500
O 	O 	0.56400 0.80931 0.78044 -0.42600
C 	C 	0.56550 0.88930 0.69260 0.05600
H 	H 	0.59960 0.86110 0.68780 0.02400
C 	C 	0.46990 0.93340 0.75000 0.05300
H 	H 	0.43920 0.93610 0.78450 0.03000
C 	C 	0.46410 0.97110 0.70420 -0.12000
H 	H 	0.42840 0.99840 0.70830 0.07400
C 	C 	0.56040 0.92750 0.64820 -0.12600
H 	H 	0.59180 0.92500 0.61410 0.07600
C 	C 	0.52870 0.85130 0.79430 0.38500
C 	C 	0.52090 0.89200 0.74450 -0.12600
Co	Co	0.00148 0.17884 0.42390 1.16600
C 	C 	0.56900 0.03110 0.57850 -0.10400
H 	H 	0.61670 0.01830 0.59050 0.06800
C 	C 	0.76800 0.13900 0.45640 -0.14500
C 	C 	0.42650 0.06860 0.54180 0.04100
C 	C 	0.50420 0.01090 0.60520 0.03900
C 	C 	0.83780 0.16540 0.42870 0.40400
C 	C 	0.63590 0.09350 0.50580 0.06500
C 	C 	0.56510 0.07030 0.53420 0.03300
C 	C 	0.63610 0.11440 0.44870 -0.14000
H 	H 	0.59140 0.11320 0.42560 0.08200
C 	C 	0.43300 0.03030 0.58660 -0.10700
H 	H 	0.38880 0.01700 0.60480 0.06900
C 	C 	0.21660 0.06720 0.50200 0.04600
H 	H 	0.17620 0.04310 0.50350 0.03300
C 	C 	0.70030 0.13720 0.42440 0.07200
H 	H 	0.69830 0.15160 0.38550 0.01800
C 	C 	0.49230 0.08910 0.51670 -0.10300
H 	H 	0.48880 0.11590 0.48760 0.06500
C 	C 	0.20380 0.11790 0.48210 -0.11200
C 	C 	0.34940 0.08630 0.52090 0.04700
C 	C 	0.70380 0.09540 0.53840 -0.13500
H 	H 	0.70520 0.08230 0.57800 0.07800
C 	C 	0.26420 0.15240 0.48150 0.04000
H 	H 	0.25670 0.18690 0.46730 0.03200
C 	C 	0.76960 0.11670 0.51300 0.06900
H 	H 	0.81530 0.11570 0.53470 0.02100
C 	C 	0.28810 0.05130 0.51960 -0.11800
H 	H 	0.29580 0.01600 0.53110 0.07500
C 	C 	0.50940 0.96960 0.65290 0.05200
C 	C 	0.33580 0.13760 0.50130 -0.11500
H 	H 	0.37540 0.16240 0.50150 0.06900
C 	C 	0.12540 0.13900 0.46120 0.35700
O 	O 	0.82940 0.19256 0.38294 -0.46900
O 	O 	0.90110 0.15743 0.45680 -0.46700
O 	O 	0.38110 0.82020 0.93470 -0.42900
O 	O 	0.43070 0.89080 0.97100 -0.35100
O 	O 	0.00140 0.13752 0.34474 -0.42600
O 	O 	0.93600 0.19069 0.28044 -0.42600
C 	C 	0.93450 0.11070 0.19260 0.05900
H 	H 	0.90040 0.13890 0.18780 0.02300
C 	C 	0.03010 0.06660 0.25000 0.05500
H 	H 	0.06080 0.06390 0.28450 0.02900
C 	C 	0.03590 0.02890 0.20420 -0.12500
H 	H 	0.07160 0.00160 0.20830 0.07500
C 	C 	0.93960 0.07250 0.14820 -0.13000
H 	H 	0.90820 0.07500 0.11410 0.07800
C 	C 	0.97130 0.14870 0.29430 0.38700
C 	C 	0.97910 0.10800 0.24450 -0.12800
Co	Co	0.49852 0.82116 0.92390 1.16600
C 	C 	0.93100 0.96890 0.07850 -0.09700
H 	H 	0.88330 0.98170 0.09050 0.06500
C 	C 	0.73200 0.86100 0.95640 -0.14500
C 	C 	0.07350 0.93140 0.04180 0.03500
C 	C 	0.99580 0.98910 0.10520 0.03000
C 	C 	0.66220 0.83460 0.92870 0.40400
C 	C 	0.86410 0.90650 0.00580 0.06600
C 	C 	0.93490 0.92970 0.03420 0.02700
C 	C 	0.86390 0.88560 0.94870 -0.14000
H 	H 	0.90860 0.88680 0.92560 0.08200
C 	C 	0.06700 0.96970 0.08660 -0.09800
H 	H 	0.11120 0.98300 0.10480 0.06600
C 	C 	0.28340 0.93280 0.00200 0.04900
H 	H 	0.32380 0.95690 0.00350 0.03200
C 	C 	0.79970 0.86280 0.92440 0.07200
H 	H 	0.80170 0.84840 0.88550 0.01800
C 	C 	0.00770 0.91090 0.01670 -0.09500
H 	H 	0.01120 0.88410 0.98760 0.06200
C 	C 	0.29620 0.88210 0.98210 -0.11300
C 	C 	0.15060 0.91370 0.02090 0.05100
C 	C 	0.79620 0.90460 0.03840 -0.13600
H 	H 	0.79480 0.91770 0.07800 0.07800
C 	C 	0.23580 0.84760 0.98150 0.04200
H 	H 	0.24330 0.81310 0.96730 0.03100
C 	C 	0.73040 0.88330 0.01300 0.06800
H 	H 	0.68470 0.88430 0.03470 0.02100
C 	C 	0.21190 0.94870 0.01960 -0.12000
H 	H 	0.20420 0.98400 0.03110 0.07600
C 	C 	0.99060 0.03040 0.15290 0.05900
C 	C 	0.16420 0.86240 0.00130 -0.11800
H 	H 	0.12460 0.83760 0.00150 0.07100
C 	C 	0.37460 0.86100 0.96120 0.35800
O 	O 	0.67060 0.80744 0.88294 -0.46900
O 	O 	0.59890 0.84257 0.95680 -0.46700
O 	O 	0.11890 0.32020 0.43470 -0.42900
O 	O 	0.06930 0.39080 0.47100 -0.35100
O 	O 	0.49860 0.63752 0.84474 -0.42500
O 	O 	0.56400 0.69069 0.78044 -0.42600
C 	C 	0.56550 0.61070 0.69260 0.05600
H 	H 	0.59960 0.63890 0.68780 0.02400
C 	C 	0.46990 0.56660 0.75000 0.05300
H 	H 	0.43920 0.56390 0.78450 0.03000
C 	C 	0.46410 0.52890 0.70420 -0.12000
H 	H 	0.42840 0.50160 0.70830 0.07400
C 	C 	0.56040 0.57250 0.64820 -0.12500
H 	H 	0.59180 0.57500 0.61410 0.07600
C 	C 	0.52870 0.64870 0.79430 0.38500
C 	C 	0.52090 0.60800 0.74450 -0.12600
Co	Co	0.00148 0.32116 0.42390 1.16600
C 	C 	0.56900 0.46890 0.57850 -0.10400
H 	H 	0.61670 0.48170 0.59050 0.06800
C 	C 	0.76800 0.36100 0.45640 -0.14500
C 	C 	0.42650 0.43140 0.54180 0.04100
C 	C 	0.50420 0.48910 0.60520 0.03900
C 	C 	0.83780 0.33460 0.42870 0.40400
C 	C 	0.63590 0.40650 0.50580 0.06500
C 	C 	0.56510 0.42970 0.53420 0.03300
C 	C 	0.63610 0.38560 0.44870 -0.14100
H 	H 	0.59140 0.38680 0.42560 0.08200
C 	C 	0.43300 0.46970 0.58660 -0.10700
H 	H 	0.38880 0.48300 0.60480 0.06900
C 	C 	0.21660 0.43280 0.50200 0.04600
H 	H 	0.17620 0.45690 0.50350 0.03300
C 	C 	0.70030 0.36280 0.42440 0.07200
H 	H 	0.69830 0.34840 0.38550 0.01800
C 	C 	0.49230 0.41090 0.51670 -0.10300
H 	H 	0.48880 0.38410 0.48760 0.06500
C 	C 	0.20380 0.38210 0.48210 -0.11200
C 	C 	0.34940 0.41370 0.52090 0.04700
C 	C 	0.70380 0.40460 0.53840 -0.13500
H 	H 	0.70520 0.41770 0.57800 0.07800
C 	C 	0.26420 0.34760 0.48150 0.04000
H 	H 	0.25670 0.31310 0.46730 0.03200
C 	C 	0.76960 0.38330 0.51300 0.06900
H 	H 	0.81530 0.38430 0.53470 0.02100
C 	C 	0.28810 0.44870 0.51960 -0.11800
H 	H 	0.29580 0.48400 0.53110 0.07500
C 	C 	0.50940 0.53040 0.65290 0.05200
C 	C 	0.33580 0.36240 0.50130 -0.11500
H 	H 	0.37540 0.33760 0.50150 0.06900
C 	C 	0.12540 0.36100 0.46120 0.35700
O 	O 	0.82940 0.30744 0.38294 -0.46900
O 	O 	0.90110 0.34257 0.45680 -0.46700
O 	O 	0.38110 0.67980 0.93470 -0.42900
O 	O 	0.43070 0.60920 0.97100 -0.35100
O 	O 	0.00140 0.36248 0.34474 -0.42500
O 	O 	0.93600 0.30931 0.28044 -0.42600
C 	C 	0.93450 0.38930 0.19260 0.05600
H 	H 	0.90040 0.36110 0.18780 0.02400
C 	C 	0.03010 0.43340 0.25000 0.05300
H 	H 	0.06080 0.43610 0.28450 0.03000
C 	C 	0.03590 0.47110 0.20420 -0.12000
H 	H 	0.07160 0.49840 0.20830 0.07400
C 	C 	0.93960 0.42750 0.14820 -0.12600
H 	H 	0.90820 0.42500 0.11410 0.07600
C 	C 	0.97130 0.35130 0.29430 0.38600
C 	C 	0.97910 0.39200 0.24450 -0.12600
Co	Co	0.49852 0.67884 0.92390 1.16600
C 	C 	0.93100 0.53110 0.07850 -0.10200
H 	H 	0.88330 0.51830 0.09050 0.06700
C 	C 	0.73200 0.63900 0.95640 -0.14400
C 	C 	0.07350 0.56860 0.04180 0.03800
C 	C 	0.99580 0.51090 0.10520 0.03700
C 	C 	0.66220 0.66540 0.92870 0.40300
C 	C 	0.86410 0.59350 0.00580 0.06500
C 	C 	0.93490 0.57030 0.03420 0.03100
C 	C 	0.86390 0.61440 0.94870 -0.13900
H 	H 	0.90860 0.61320 0.92560 0.08100
C 	C 	0.06700 0.53030 0.08660 -0.10400
H 	H 	0.11120 0.51700 0.10480 0.06800
C 	C 	0.28340 0.56720 0.00200 0.04800
H 	H 	0.32380 0.54310 0.00350 0.03300
C 	C 	0.79970 0.63720 0.92440 0.07200
H 	H 	0.80170 0.65160 0.88550 0.01900
C 	C 	0.00770 0.58910 0.01670 -0.09900
H 	H 	0.01120 0.61590 0.98760 0.06300
C 	C 	0.29620 0.61790 0.98210 -0.11300
C 	C 	0.15060 0.58630 0.02090 0.04800
C 	C 	0.79620 0.59540 0.03840 -0.13500
H 	H 	0.79480 0.58230 0.07800 0.07800
C 	C 	0.23580 0.65240 0.98150 0.04000
H 	H 	0.24330 0.68690 0.96730 0.03100
C 	C 	0.73040 0.61670 0.01300 0.06700
H 	H 	0.68470 0.61570 0.03470 0.02100
C 	C 	0.21190 0.55130 0.01960 -0.11900
H 	H 	0.20420 0.51600 0.03110 0.07600
C 	C 	0.99060 0.46960 0.15290 0.05300
C 	C 	0.16420 0.63760 0.00130 -0.11600
H 	H 	0.12460 0.66240 0.00150 0.07000
C 	C 	0.37460 0.63900 0.96120 0.35800
O 	O 	0.67060 0.69256 0.88294 -0.46900
O 	O 	0.59890 0.65743 0.95680 -0.46700
Co	Co	0.88713 0.25000 0.33407 1.16700
O 	O 	0.99040 0.25000 0.38440 -0.61000
Co	Co	0.61287 0.75000 0.83407 1.16700
O 	O 	0.50960 0.75000 0.88440 -0.61100
