data_crystal

_cell_length_a 16.98810
_cell_length_b 16.98810
_cell_length_c 16.98810
_cell_angle_alpha 63.26730
_cell_angle_beta  77.16110
_cell_angle_gamma 109.14500

_symmetry_space_group_name_	'P 1'
_symmetry_space_group_name_H-M	'P 1'

loop_
_symmetry_equiv_pos_as_xyz
  x,y,z

loop_
_atom_site_label
_atom_site_type_symbol
_atom_site_fract_x
_atom_site_fract_y
_atom_site_fract_z
_atom_site_charge
Co	Co	0.14104 0.02741 0.56291 1.17500
Co	Co	0.18738 0.14192 0.33364 1.16600
Co	Co	0.13789 0.89665 0.44126 1.15500
Co	Co	0.85896 0.29605 0.11363 1.16400
Co	Co	0.81262 0.47898 0.04546 1.15900
Co	Co	0.86211 0.42085 0.24124 1.15700
Co	Co	0.59032 0.52741 0.61363 1.17100
Co	Co	0.47556 0.64192 0.54546 1.16700
Co	Co	0.33791 0.39665 0.74124 1.15800
Co	Co	0.40968 0.79605 0.06291 1.16500
Co	Co	0.52444 0.97898 0.83364 1.16300
Co	Co	0.66209 0.92085 0.94126 1.16500
H 	H 	0.97310 0.20070 0.38220 0.04100
H 	H 	0.85890 0.98820 0.67310 0.02100
H 	H 	0.71260 0.07900 0.25880 0.29600
H 	H 	0.71190 0.11370 0.55540 0.04700
H 	H 	0.96490 0.10070 0.27940 0.01700
H 	H 	0.85340 0.80990 0.48810 0.02500
H 	H 	0.69250 0.93080 0.40370 0.01900
H 	H 	0.14100 0.96700 0.50400 0.05900
H 	H 	0.02690 0.64470 0.77240 0.03800
H 	H 	0.14110 0.46800 0.87070 0.03600
H 	H 	0.28740 0.02860 0.63360 0.31700
H 	H 	0.28810 0.73270 0.59820 0.04100
H 	H 	0.03510 0.75570 0.86420 0.01900
H 	H 	0.14660 0.65850 0.04350 -0.02200
H 	H 	0.30750 0.90380 0.76170 0.00600
H 	H 	0.85900 0.35500 0.17400 0.07200
H 	H 	0.58290 0.70070 0.27240 0.03700
H 	H 	0.66130 0.48820 0.37070 0.03300
H 	H 	0.33780 0.57900 0.13360 0.29400
H 	H 	0.66910 0.61370 0.09820 0.03700
H 	H 	0.38010 0.60070 0.36420 0.01900
H 	H 	0.29800 0.30990 0.54350 0.02400
H 	H 	0.33450 0.43080 0.26170 0.01400
H 	H 	0.47100 0.46700 0.67400 0.07400
H 	H 	0.41710 0.14470 0.88220 0.03200
H 	H 	0.33870 0.96800 0.17310 0.01600
H 	H 	0.66220 0.52860 0.75880 0.29700
H 	H 	0.33090 0.23270 0.05540 0.04500
H 	H 	0.61990 0.25570 0.77940 0.02800
H 	H 	0.70200 0.15850 0.98810 0.04500
H 	H 	0.66550 0.40380 0.90370 0.03500
H 	H 	0.52900 0.85500 0.00400 0.03600
C 	C 	0.84230 0.25840 0.37610 0.28900
C 	C 	0.84410 0.17430 0.45700 -0.09300
C 	C 	0.92390 0.16150 0.44440 0.05500
C 	C 	0.77820 0.04570 0.63290 -0.12900
C 	C 	0.85430 0.03380 0.61990 0.09700
C 	C 	0.92860 0.09350 0.52150 -0.12400
C 	C 	0.01540 0.08160 0.50580 0.41100
C 	C 	0.76730 0.11270 0.54820 0.04500
C 	C 	0.82730 0.02650 0.32720 -0.15700
C 	C 	0.91260 0.03700 0.32280 0.12200
C 	C 	0.92270 0.95580 0.38070 -0.17700
C 	C 	0.84710 0.86360 0.44630 0.09200
C 	C 	0.75440 0.84720 0.45220 -0.15300
C 	C 	0.75030 0.93530 0.39480 0.08000
C 	C 	0.81190 0.11550 0.26440 0.43900
C 	C 	0.01600 0.96600 0.37860 0.41300
C 	C 	0.70270 0.99410 0.72780 0.38900
C 	C 	0.67420 0.74690 0.51830 0.39600
C 	C 	0.15770 0.78160 0.58390 0.29000
C 	C 	0.15590 0.69890 0.66980 -0.09600
C 	C 	0.07610 0.63170 0.76240 0.05700
C 	C 	0.22180 0.58890 0.73250 -0.14000
C 	C 	0.14570 0.52580 0.82050 0.07700
C 	C 	0.07140 0.54990 0.83510 -0.13200
C 	C 	0.98460 0.47880 0.93380 0.42000
C 	C 	0.23270 0.68450 0.65460 0.04800
C 	C 	0.17270 0.84550 0.80080 -0.18900
C 	C 	0.08740 0.76460 0.87560 0.12600
C 	C 	0.07730 0.69660 0.96690 -0.17900
C 	C 	0.15290 0.70660 0.98350 0.16700
C 	C 	0.24560 0.79340 0.90720 -0.19300
C 	C 	0.24970 0.85490 0.81500 0.12600
C 	C 	0.18810 0.92370 0.69640 0.45500
C 	C 	0.98400 0.60540 0.05000 0.41500
C 	C 	0.29730 0.56950 0.70860 0.40300
C 	C 	0.32580 0.80750 0.92730 0.44900
C 	C 	0.63450 0.75840 0.08390 0.29200
C 	C 	0.63130 0.67430 0.16980 -0.10100
C 	C 	0.60590 0.66150 0.26240 0.05700
C 	C 	0.67860 0.54570 0.23250 -0.14400
C 	C 	0.65370 0.53380 0.32050 0.07700
C 	C 	0.61500 0.59350 0.33510 -0.13100
C 	C 	0.58740 0.58160 0.43380 0.41600
C 	C 	0.66090 0.61270 0.15460 0.04900
C 	C 	0.35370 0.52650 0.30080 -0.17300
C 	C 	0.35980 0.53700 0.37560 0.11300
C 	C 	0.33650 0.45580 0.46690 -0.17100
C 	C 	0.30990 0.36360 0.48350 0.09500
C 	C 	0.29940 0.34720 0.40720 -0.15800
C 	C 	0.33010 0.43530 0.31500 0.10200
C 	C 	0.37990 0.61550 0.19640 0.44300
C 	C 	0.34460 0.46600 0.55000 0.42900
C 	C 	0.72190 0.49410 0.20860 0.40400
C 	C 	0.26520 0.24690 0.42730 0.39800
C 	C 	0.36550 0.28160 0.87610 0.28400
C 	C 	0.36870 0.19890 0.95700 -0.06700
C 	C 	0.39410 0.13170 0.94440 0.09500
C 	C 	0.32140 0.08890 0.13290 -0.15000
C 	C 	0.34630 0.02580 0.11990 0.10400
C 	C 	0.38500 0.04990 0.02150 -0.16200
C 	C 	0.41260 0.97880 0.00580 0.37800
C 	C 	0.33910 0.18450 0.04820 0.01000
C 	C 	0.64630 0.34550 0.82720 -0.15000
C 	C 	0.64020 0.26460 0.82280 0.09500
C 	C 	0.66350 0.19660 0.88070 -0.14600
C 	C 	0.69010 0.20660 0.94630 0.06900
C 	C 	0.70060 0.29340 0.95220 -0.10200
C 	C 	0.66990 0.35490 0.89480 0.07300
C 	C 	0.62010 0.42370 0.76440 0.43500
C 	C 	0.65540 0.10540 0.87860 0.42100
C 	C 	0.27810 0.06950 0.22780 0.41900
C 	C 	0.73480 0.30750 0.01830 0.35300
O 	O 	0.77190 0.26780 0.38710 -0.34700
O 	O 	0.91680 0.32270 0.29370 -0.39100
O 	O 	0.07870 0.14080 0.42150 -0.46900
O 	O 	0.01680 0.02110 0.57890 -0.45300
O 	O 	0.89170 0.19340 0.18910 -0.44300
O 	O 	0.73900 0.10960 0.27940 -0.60400
O 	O 	0.02000 0.89790 0.43970 -0.49200
O 	O 	0.08480 0.05490 0.31530 -0.44700
O 	O 	0.59740 0.74510 0.53590 -0.41800
O 	O 	0.61980 0.97600 0.73880 -0.42100
O 	O 	0.18310 0.02200 0.45130 -0.63100
O 	O 	0.72260 0.96610 0.79790 -0.44000
O 	O 	0.68670 0.67130 0.55040 -0.45100
O 	O 	0.22810 0.84100 0.50410 -0.35100
O 	O 	0.08320 0.78950 0.59410 -0.39100
O 	O 	0.92130 0.49980 0.93790 -0.45000
O 	O 	0.98320 0.40430 0.99570 -0.43900
O 	O 	0.10830 0.91920 0.69830 -0.44500
O 	O 	0.26100 0.98160 0.62940 -0.63400
O 	O 	0.98000 0.54030 0.12210 -0.49300
O 	O 	0.91520 0.59990 0.02990 -0.46200
O 	O 	0.40260 0.86670 0.85230 -0.42900
O 	O 	0.38020 0.64140 0.64380 -0.42000
O 	O 	0.81690 0.36560 0.16110 -0.65100
O 	O 	0.27740 0.47950 0.75650 -0.44200
O 	O 	0.31330 0.76290 0.01540 -0.48700
O 	O 	0.65490 0.76780 0.00410 -0.36500
O 	O 	0.61640 0.82270 0.09410 -0.40200
O 	O 	0.56230 0.64080 0.43790 -0.47000
O 	O 	0.60000 0.52110 0.49570 -0.46000
O 	O 	0.38250 0.69340 0.19830 -0.44000
O 	O 	0.38900 0.60960 0.12940 -0.61200
O 	O 	0.33760 0.39790 0.62210 -0.49000
O 	O 	0.37020 0.55490 0.52990 -0.45400
O 	O 	0.28100 0.24510 0.35230 -0.41900
O 	O 	0.71480 0.47600 0.14380 -0.42400
O 	O 	0.47330 0.52200 0.66110 -0.64800
O 	O 	0.76400 0.46610 0.25650 -0.44500
O 	O 	0.22170 0.17130 0.51540 -0.45000
O 	O 	0.34510 0.34100 0.88710 -0.33700
O 	O 	0.38360 0.28950 0.79370 -0.38600
O 	O 	0.43770 0.99980 0.92150 -0.44700
O 	O 	0.40000 0.90430 0.07890 -0.45800
O 	O 	0.61750 0.41920 0.68910 -0.43600
O 	O 	0.61100 0.48160 0.77940 -0.60100
O 	O 	0.66240 0.04030 0.93970 -0.46900
O 	O 	0.62980 0.09990 0.81530 -0.44200
O 	O 	0.71900 0.36670 0.03590 -0.41900
O 	O 	0.28520 0.14140 0.23880 -0.42600
O 	O 	0.52670 0.86560 0.95130 -0.60500
O 	O 	0.23600 0.97950 0.29790 -0.45900
O 	O 	0.77830 0.26290 0.05040 -0.45300
