data_crystal

_cell_length_a 12.79340
_cell_length_b 14.68220
_cell_length_c 19.07710
_cell_angle_alpha 107.11500
_cell_angle_beta  105.53600
_cell_angle_gamma 93.51800

_symmetry_space_group_name_	'P 1'
_symmetry_space_group_name_H-M	'P 1'

loop_
_symmetry_equiv_pos_as_xyz
  x,y,z

loop_
_atom_site_label
_atom_site_type_symbol
_atom_site_fract_x
_atom_site_fract_y
_atom_site_fract_z
_atom_site_charge
Dy	Dy	0.40287 0.62000 0.77988 1.81400
Dy	Dy	0.15723 0.88148 0.28002 1.81600
Dy	Dy	0.34805 0.12421 0.23681 1.98000
Dy	Dy	0.10991 0.38548 0.73609 1.97000
Dy	Dy	0.59713 0.38000 0.22012 1.81300
Dy	Dy	0.84277 0.11852 0.71998 1.81500
Dy	Dy	0.65195 0.87579 0.76319 1.97900
Dy	Dy	0.89009 0.61452 0.26391 1.96900
H 	H 	0.93990 0.38990 0.80380 0.29500
H 	H 	0.36720 0.53360 0.57000 0.01600
H 	H 	0.39530 0.45900 0.44450 0.04300
H 	H 	0.12160 0.54160 0.07160 0.05500
H 	H 	0.15010 0.47100 0.94660 0.03200
H 	H 	0.53470 0.11900 0.18730 0.29500
H 	H 	0.06840 0.64970 0.48030 0.02500
H 	H 	0.97710 0.85670 0.06890 0.03000
H 	H 	0.19520 0.64730 0.60130 0.03100
H 	H 	0.60650 0.03620 0.32000 0.03300
H 	H 	0.85820 0.85150 0.94580 0.02400
H 	H 	0.77040 0.95840 0.32180 0.04000
H 	H 	0.89770 0.96700 0.19730 0.01600
H 	H 	0.73100 0.03990 0.18650 0.05600
H 	H 	0.06010 0.61010 0.19620 0.29500
H 	H 	0.63280 0.46640 0.43000 0.01600
H 	H 	0.60470 0.54100 0.55550 0.04300
H 	H 	0.87840 0.45840 0.92840 0.05500
H 	H 	0.84990 0.52900 0.05340 0.03200
H 	H 	0.46530 0.88100 0.81270 0.29500
H 	H 	0.93160 0.35030 0.51970 0.02500
H 	H 	0.02290 0.14330 0.93110 0.03000
H 	H 	0.80480 0.35270 0.39870 0.03100
H 	H 	0.39350 0.96380 0.68000 0.03300
H 	H 	0.14180 0.14850 0.05420 0.02400
H 	H 	0.22960 0.04160 0.67820 0.04000
H 	H 	0.10230 0.03300 0.80270 0.01600
H 	H 	0.26900 0.96010 0.81350 0.05600
C 	C 	0.23370 0.59870 0.95770 -0.15300
C 	C 	0.33860 0.47040 0.53900 0.02300
C 	C 	0.35600 0.42680 0.46700 -0.03000
C 	C 	0.40230 0.92410 0.29510 0.48200
C 	C 	0.15730 0.57600 0.04860 -0.03700
C 	C 	0.27330 0.58090 0.88930 0.48400
C 	C 	0.17540 0.53490 0.97710 0.03200
C 	C 	0.19790 0.67190 0.08050 -0.09000
C 	C 	0.18860 0.74140 0.15100 0.33100
C 	C 	0.27490 0.40850 0.55760 -0.16300
C 	C 	0.86350 0.76240 0.07800 -0.16700
C 	C 	0.90930 0.74800 0.15220 0.51500
C 	C 	0.74270 0.75880 0.95430 -0.17000
C 	C 	0.14000 0.68220 0.50050 0.02400
C 	C 	0.31560 0.26460 0.36380 0.33900
C 	C 	0.09770 0.07760 0.21570 0.47600
C 	C 	0.31140 0.73510 0.58720 -0.16300
C 	C 	0.23550 0.42880 0.62560 0.48100
C 	C 	0.75470 0.75770 0.28790 0.34000
C 	C 	0.64580 0.74310 0.88580 0.53300
C 	C 	0.18430 0.73460 0.46630 -0.17600
C 	C 	0.30890 0.33290 0.43440 -0.09500
C 	C 	0.13610 0.74820 0.39080 0.54100
C 	C 	0.67930 0.82750 0.29650 -0.09700
C 	C 	0.98300 0.09480 0.20910 -0.16400
C 	C 	0.73900 0.23870 0.20480 0.33000
C 	C 	0.81640 0.16840 0.20090 -0.08700
C 	C 	0.40920 0.74980 0.65380 0.51100
C 	C 	0.90790 0.81950 0.04590 0.01400
C 	C 	0.21280 0.68100 0.57060 0.00600
C 	C 	0.51640 0.90620 0.29840 -0.14600
C 	C 	0.60690 0.97060 0.31190 0.02200
C 	C 	0.83950 0.81680 0.97550 0.02200
C 	C 	0.70090 0.92540 0.31210 -0.02500
C 	C 	0.89480 0.03090 0.19970 0.02700
C 	C 	0.79930 0.07330 0.19410 -0.04000
C 	C 	0.76630 0.40130 0.04230 -0.15300
C 	C 	0.66140 0.52960 0.46100 0.02300
C 	C 	0.64400 0.57320 0.53300 -0.03000
C 	C 	0.59770 0.07590 0.70490 0.48200
C 	C 	0.84270 0.42400 0.95140 -0.03700
C 	C 	0.72670 0.41910 0.11070 0.48400
C 	C 	0.82460 0.46510 0.02290 0.03200
C 	C 	0.80210 0.32810 0.91950 -0.09000
C 	C 	0.81140 0.25860 0.84900 0.33100
C 	C 	0.72510 0.59150 0.44240 -0.16300
C 	C 	0.13650 0.23760 0.92200 -0.16700
C 	C 	0.09070 0.25200 0.84780 0.51500
C 	C 	0.25730 0.24120 0.04570 -0.17000
C 	C 	0.86000 0.31780 0.49950 0.02400
C 	C 	0.68440 0.73540 0.63620 0.33900
C 	C 	0.90230 0.92240 0.78430 0.47600
C 	C 	0.68860 0.26490 0.41280 -0.16300
C 	C 	0.76450 0.57120 0.37440 0.48100
C 	C 	0.24530 0.24230 0.71210 0.34000
C 	C 	0.35420 0.25690 0.11420 0.53300
C 	C 	0.81570 0.26540 0.53370 -0.17600
C 	C 	0.69110 0.66710 0.56560 -0.09500
C 	C 	0.86390 0.25180 0.60920 0.54100
C 	C 	0.32070 0.17250 0.70350 -0.09700
C 	C 	0.01700 0.90520 0.79090 -0.16400
C 	C 	0.26100 0.76130 0.79520 0.33000
C 	C 	0.18360 0.83160 0.79910 -0.08700
C 	C 	0.59080 0.25020 0.34620 0.51100
C 	C 	0.09210 0.18050 0.95410 0.01400
C 	C 	0.78720 0.31900 0.42940 0.00600
C 	C 	0.48360 0.09380 0.70160 -0.14600
C 	C 	0.39310 0.02940 0.68810 0.02200
C 	C 	0.16050 0.18320 0.02450 0.02200
C 	C 	0.29910 0.07460 0.68790 -0.02500
C 	C 	0.10520 0.96910 0.80030 0.02700
C 	C 	0.20070 0.92670 0.80590 -0.04000
S 	S 	0.26345 0.71106 0.02477 0.08400
S 	S 	0.73515 0.70541 0.02070 0.10300
S 	S 	0.23839 0.29747 0.48914 0.07200
S 	S 	0.31584 0.78861 0.51969 0.09400
S 	S 	0.54544 0.79169 0.28579 0.07600
S 	S 	0.95067 0.20692 0.21474 0.07800
S 	S 	0.73655 0.28894 0.97523 0.08400
S 	S 	0.26485 0.29459 0.97930 0.10300
S 	S 	0.76161 0.70253 0.51086 0.07200
S 	S 	0.68416 0.21139 0.48031 0.09400
S 	S 	0.45456 0.20831 0.71421 0.07600
S 	S 	0.04933 0.79308 0.78526 0.07800
O 	O 	0.22520 0.51010 0.83170 -0.55900
O 	O 	0.37200 0.99690 0.27930 -0.56700
O 	O 	0.97340 0.43700 0.80020 -0.54000
O 	O 	0.34300 0.86420 0.30740 -0.47800
O 	O 	0.35260 0.63780 0.89290 -0.46800
O 	O 	0.18330 0.81110 0.37420 -0.54700
O 	O 	0.15950 0.13720 0.20390 -0.48700
O 	O 	0.28630 0.49900 0.68330 -0.56800
O 	O 	0.56390 0.68740 0.87720 -0.53500
O 	O 	0.04870 0.69310 0.34910 -0.57200
O 	O 	0.48380 0.81700 0.66770 -0.50200
O 	O 	0.15300 0.37450 0.62110 -0.48900
O 	O 	0.48770 0.07260 0.17750 -0.54100
O 	O 	0.77520 0.32680 0.23940 -0.40500
O 	O 	0.86550 0.67760 0.16320 -0.50600
O 	O 	0.29620 0.17510 0.35370 -0.42000
O 	O 	0.12780 0.00630 0.23400 -0.56700
O 	O 	0.65380 0.79040 0.84180 -0.57200
O 	O 	0.16830 0.71130 0.20250 -0.38600
O 	O 	0.98990 0.80770 0.19960 -0.54300
O 	O 	0.34270 0.29250 0.31420 -0.39500
O 	O 	0.19740 0.83000 0.15860 -0.40600
O 	O 	0.71400 0.66880 0.25500 -0.41800
O 	O 	0.41020 0.69470 0.69250 -0.54600
O 	O 	0.63660 0.21100 0.17390 -0.38500
O 	O 	0.85590 0.78340 0.31100 -0.40400
O 	O 	0.77480 0.48990 0.16830 -0.55900
O 	O 	0.62800 0.00310 0.72070 -0.56700
O 	O 	0.02660 0.56300 0.19980 -0.54000
O 	O 	0.65700 0.13580 0.69260 -0.47800
O 	O 	0.64740 0.36220 0.10710 -0.46800
O 	O 	0.81670 0.18890 0.62580 -0.54700
O 	O 	0.84050 0.86280 0.79610 -0.48700
O 	O 	0.71370 0.50100 0.31670 -0.56800
O 	O 	0.43610 0.31260 0.12280 -0.53500
O 	O 	0.95130 0.30690 0.65090 -0.57200
O 	O 	0.51620 0.18300 0.33230 -0.50200
O 	O 	0.84700 0.62550 0.37890 -0.48900
O 	O 	0.51230 0.92740 0.82250 -0.54100
O 	O 	0.22480 0.67320 0.76060 -0.40500
O 	O 	0.13450 0.32240 0.83680 -0.50600
O 	O 	0.70380 0.82490 0.64630 -0.42000
O 	O 	0.87220 0.99370 0.76600 -0.56700
O 	O 	0.34620 0.20960 0.15820 -0.57200
O 	O 	0.83170 0.28870 0.79750 -0.38600
O 	O 	0.01010 0.19230 0.80040 -0.54300
O 	O 	0.65730 0.70750 0.68580 -0.39500
O 	O 	0.80260 0.17000 0.84140 -0.40600
O 	O 	0.28600 0.33120 0.74500 -0.41800
O 	O 	0.58980 0.30530 0.30750 -0.54600
O 	O 	0.36340 0.78900 0.82610 -0.38500
O 	O 	0.14410 0.21660 0.68900 -0.40400
