data_crystal

_cell_length_a 10.72370
_cell_length_b 13.44810
_cell_length_c 13.44810
_cell_angle_alpha 90.00000
_cell_angle_beta  90.00000
_cell_angle_gamma 90.00000

_symmetry_space_group_name_	'P 1'
_symmetry_space_group_name_H-M	'P 1'

loop_
_symmetry_equiv_pos_as_xyz
  x,y,z

loop_
_atom_site_label
_atom_site_type_symbol
_atom_site_fract_x
_atom_site_fract_y
_atom_site_fract_z
_atom_site_charge
Cu	Cu	0.75711 0.34711 0.72878 0.80400
Cu	Cu	0.75711 0.15289 0.77122 0.80400
Cu	Cu	0.25711 0.27122 0.84711 0.80400
Cu	Cu	0.25711 0.22878 0.65289 0.80400
Cu	Cu	0.24289 0.65289 0.27122 0.80400
Cu	Cu	0.24289 0.84711 0.22878 0.80400
Cu	Cu	0.74289 0.72878 0.15289 0.80500
Cu	Cu	0.74289 0.77122 0.34711 0.80500
H 	H 	0.53060 0.48360 0.76940 0.04300
H 	H 	0.50520 0.67430 0.54400 0.09000
H 	H 	0.67490 0.59460 0.47330 0.00300
H 	H 	0.77410 0.47000 0.55600 0.01300
H 	H 	0.38440 0.75070 0.63970 0.05400
H 	H 	0.27870 0.67210 0.61930 0.05300
H 	H 	0.53060 0.01640 0.73060 0.04200
H 	H 	0.50520 0.82570 0.95600 0.09000
H 	H 	0.67490 0.90540 0.02670 0.00200
H 	H 	0.77410 0.03000 0.94400 0.01300
H 	H 	0.38440 0.74930 0.86030 0.05400
H 	H 	0.27870 0.82790 0.88070 0.05300
H 	H 	0.03060 0.23060 0.98360 0.04100
H 	H 	0.00520 0.45600 0.17430 0.08900
H 	H 	0.17490 0.52670 0.09460 0.00400
H 	H 	0.27410 0.44400 0.97000 0.01200
H 	H 	0.88440 0.36030 0.25070 0.05400
H 	H 	0.77870 0.38070 0.17210 0.05300
H 	H 	0.03060 0.26940 0.51640 0.04200
H 	H 	0.00520 0.04400 0.32570 0.08800
H 	H 	0.17490 0.97330 0.40540 0.00600
H 	H 	0.27410 0.05600 0.53000 0.01100
H 	H 	0.88440 0.13970 0.24930 0.05500
H 	H 	0.77870 0.11930 0.32790 0.05400
H 	H 	0.46940 0.51640 0.23060 0.04300
H 	H 	0.49480 0.32570 0.45600 0.09000
H 	H 	0.32510 0.40540 0.52670 0.00300
H 	H 	0.22590 0.53000 0.44400 0.01300
H 	H 	0.61560 0.24930 0.36030 0.05400
H 	H 	0.72130 0.32790 0.38070 0.05300
H 	H 	0.46940 0.98360 0.26940 0.04200
H 	H 	0.49480 0.17430 0.04400 0.09000
H 	H 	0.32510 0.09460 0.97330 0.00200
H 	H 	0.22590 0.97000 0.05600 0.01300
H 	H 	0.61560 0.25070 0.13970 0.05400
H 	H 	0.72130 0.17210 0.11930 0.05300
H 	H 	0.96940 0.76940 0.01640 0.04100
H 	H 	0.99480 0.54400 0.82570 0.08900
H 	H 	0.82510 0.47330 0.90540 0.00400
H 	H 	0.72590 0.55600 0.03000 0.01200
H 	H 	0.11560 0.63970 0.74930 0.05400
H 	H 	0.22130 0.61930 0.82790 0.05300
H 	H 	0.96940 0.73060 0.48360 0.04200
H 	H 	0.99480 0.95600 0.67430 0.08800
H 	H 	0.82510 0.02670 0.59460 0.00600
H 	H 	0.72590 0.94400 0.47000 0.01100
H 	H 	0.11560 0.86030 0.75070 0.05500
H 	H 	0.22130 0.88070 0.67210 0.05400
C 	C 	0.54210 0.28830 0.87540 0.08800
C 	C 	0.56180 0.50810 0.70970 -0.07700
C 	C 	0.50190 0.58790 0.66620 0.17800
C 	C 	0.54390 0.62150 0.57630 -0.16800
C 	C 	0.64540 0.57440 0.53520 0.01600
C 	C 	0.70340 0.49860 0.58410 -0.01200
C 	C 	0.33080 0.70150 0.67050 -0.01300
C 	C 	0.54210 0.21170 0.62460 0.08800
C 	C 	0.56180 0.99190 0.79030 -0.07700
C 	C 	0.50190 0.91210 0.83380 0.17900
C 	C 	0.54390 0.87850 0.92370 -0.17000
C 	C 	0.64540 0.92560 0.96480 0.02000
C 	C 	0.70340 0.00140 0.91590 -0.01400
C 	C 	0.33080 0.79850 0.82950 -0.01300
C 	C 	0.04210 0.12460 0.78830 0.08700
C 	C 	0.06180 0.29030 0.00810 -0.07500
C 	C 	0.00190 0.33380 0.08790 0.17700
C 	C 	0.04390 0.42370 0.12150 -0.16700
C 	C 	0.14540 0.46480 0.07440 0.01600
C 	C 	0.20340 0.41590 0.99860 -0.01100
C 	C 	0.83080 0.32950 0.20150 -0.01300
C 	C 	0.04210 0.37540 0.71170 0.08800
C 	C 	0.06180 0.20970 0.49190 -0.07600
C 	C 	0.00190 0.16620 0.41210 0.17600
C 	C 	0.04390 0.07630 0.37850 -0.16500
C 	C 	0.14540 0.03520 0.42560 0.01200
C 	C 	0.20340 0.08410 0.50140 -0.00900
C 	C 	0.83080 0.17050 0.29850 -0.01400
C 	C 	0.45790 0.71170 0.12460 0.08800
C 	C 	0.43820 0.49190 0.29030 -0.07700
C 	C 	0.49810 0.41210 0.33380 0.17800
C 	C 	0.45610 0.37850 0.42370 -0.16800
C 	C 	0.35460 0.42560 0.46480 0.01600
C 	C 	0.29660 0.50140 0.41590 -0.01200
C 	C 	0.66920 0.29850 0.32950 -0.01300
C 	C 	0.45790 0.78830 0.37540 0.08800
C 	C 	0.43820 0.00810 0.20970 -0.07700
C 	C 	0.49810 0.08790 0.16620 0.17900
C 	C 	0.45610 0.12150 0.07630 -0.17000
C 	C 	0.35460 0.07440 0.03520 0.02000
C 	C 	0.29660 0.99860 0.08410 -0.01400
C 	C 	0.66920 0.20150 0.17050 -0.01300
C 	C 	0.95790 0.87540 0.21170 0.08700
C 	C 	0.93820 0.70970 0.99190 -0.07500
C 	C 	0.99810 0.66620 0.91210 0.17700
C 	C 	0.95610 0.57630 0.87850 -0.16700
C 	C 	0.85460 0.53520 0.92560 0.01600
C 	C 	0.79660 0.58410 0.00140 -0.01100
C 	C 	0.16920 0.67050 0.79850 -0.01300
C 	C 	0.95790 0.62460 0.28830 0.08800
C 	C 	0.93820 0.79030 0.50810 -0.07600
C 	C 	0.99810 0.83380 0.58790 0.17600
C 	C 	0.95610 0.92370 0.62150 -0.16500
C 	C 	0.85460 0.96480 0.57440 0.01200
C 	C 	0.79660 0.91590 0.49860 -0.00900
C 	C 	0.16920 0.82950 0.70150 -0.01400
C 	C 	0.25000 0.75000 0.75000 0.03700
C 	C 	0.75000 0.25000 0.25000 0.03700
S 	S 	0.69656 0.29168 0.88706 -0.37400
S 	S 	0.69656 0.20832 0.61294 -0.37400
S 	S 	0.19656 0.11294 0.79168 -0.37400
S 	S 	0.19656 0.38706 0.70832 -0.37400
S 	S 	0.30344 0.70832 0.11294 -0.37400
S 	S 	0.30344 0.79168 0.38706 -0.37400
S 	S 	0.80344 0.88706 0.20832 -0.37400
S 	S 	0.80344 0.61294 0.29168 -0.37400
N 	N 	0.43560 0.28510 0.86930 -0.28500
N 	N 	0.66180 0.46450 0.67060 -0.20000
N 	N 	0.43560 0.21490 0.63070 -0.28500
N 	N 	0.66180 0.03550 0.82940 -0.20000
N 	N 	0.93560 0.13070 0.78510 -0.28400
N 	N 	0.16180 0.32940 0.96450 -0.20000
N 	N 	0.93560 0.36930 0.71490 -0.28500
N 	N 	0.16180 0.17060 0.53550 -0.20000
N 	N 	0.56440 0.71490 0.13070 -0.28500
N 	N 	0.33820 0.53550 0.32940 -0.20000
N 	N 	0.56440 0.78510 0.36930 -0.28500
N 	N 	0.33820 0.96450 0.17060 -0.20000
N 	N 	0.06440 0.86930 0.21490 -0.28400
N 	N 	0.83820 0.67060 0.03550 -0.20000
N 	N 	0.06440 0.63070 0.28510 -0.28500
N 	N 	0.83820 0.82940 0.46450 -0.20000
O 	O 	0.40430 0.62640 0.71750 -0.22300
O 	O 	0.40430 0.87360 0.78250 -0.22300
O 	O 	0.90430 0.28250 0.12640 -0.22200
O 	O 	0.90430 0.21750 0.37360 -0.22100
O 	O 	0.59570 0.37360 0.28250 -0.22300
O 	O 	0.59570 0.12640 0.21750 -0.22300
O 	O 	0.09570 0.71750 0.87360 -0.22200
O 	O 	0.09570 0.78250 0.62640 -0.22100
