data_crystal

_cell_length_a 10.17000
_cell_length_b 20.65900
_cell_length_c 7.67200
_cell_angle_alpha 90.00000
_cell_angle_beta  104.26000
_cell_angle_gamma 90.00000

_symmetry_space_group_name_	'P 1'
_symmetry_space_group_name_H-M	'P 1'

loop_
_symmetry_equiv_pos_as_xyz
  x,y,z

loop_
_atom_site_label
_atom_site_type_symbol
_atom_site_fract_x
_atom_site_fract_y
_atom_site_fract_z
_atom_site_charge
O 	O 	0.65867 0.56627 0.79600 -0.40700
O 	O 	0.74810 0.65886 0.74320 -0.34500
C 	C 	0.88380 0.28842 0.70760 0.12400
H 	H 	0.80230 0.26580 0.67920 -0.02000
C 	C 	0.88010 0.35496 0.70440 -0.03900
H 	H 	0.79710 0.37630 0.67170 0.04200
C 	C 	0.88480 0.49668 0.76270 0.05800
H 	H 	0.80750 0.47430 0.77210 0.03400
C 	C 	0.88380 0.56407 0.76140 0.01800
C 	C 	0.75580 0.59869 0.76930 0.28000
O 	O 	0.15867 0.06627 0.79600 -0.43700
O 	O 	0.24810 0.15886 0.74320 -0.37700
C 	C 	0.38380 0.78842 0.70760 0.07100
H 	H 	0.30230 0.76580 0.67920 -0.01700
C 	C 	0.38010 0.85496 0.70440 -0.14200
H 	H 	0.29710 0.87630 0.67170 0.06000
C 	C 	0.38480 0.99668 0.76270 -0.01100
H 	H 	0.30750 0.97430 0.77210 0.04000
C 	C 	0.38380 0.06407 0.76140 -0.07900
C 	C 	0.25580 0.09869 0.76930 0.30500
O 	O 	0.34133 0.56627 0.70400 -0.41100
O 	O 	0.25190 0.65886 0.75680 -0.37000
C 	C 	0.11620 0.28842 0.79240 0.03900
H 	H 	0.19770 0.26580 0.82080 -0.00600
C 	C 	0.11990 0.35496 0.79560 -0.11000
H 	H 	0.20290 0.37630 0.82830 0.05500
C 	C 	0.11520 0.49668 0.73730 -0.02300
H 	H 	0.19250 0.47430 0.72790 0.05000
C 	C 	0.11620 0.56407 0.73860 -0.04400
C 	C 	0.24420 0.59869 0.73070 0.28800
O 	O 	0.84133 0.06627 0.70400 -0.37800
O 	O 	0.75190 0.15886 0.75680 -0.34700
C 	C 	0.61620 0.78842 0.79240 0.07200
H 	H 	0.69770 0.76580 0.82080 -0.00600
C 	C 	0.61990 0.85496 0.79560 -0.14200
H 	H 	0.70290 0.87630 0.82830 0.07500
C 	C 	0.61520 0.99668 0.73730 -0.01600
H 	H 	0.69250 0.97430 0.72790 0.05400
C 	C 	0.61620 0.06407 0.73860 -0.06800
C 	C 	0.74420 0.09869 0.73070 0.29500
Cd	Cd	0.50000 0.64462 0.75000 1.19500
Cd	Cd	-0.00000 0.14462 0.75000 1.17100
N 	N 	-0.00000 0.25479 0.75000 -0.29700
C 	C 	-0.00000 0.39051 0.75000 -0.00500
C 	C 	0.00000 0.46234 0.75000 -0.08300
C 	C 	-0.00000 0.59732 0.75000 -0.11500
H 	H 	0.00000 0.64230 0.75000 0.06500
N 	N 	0.50000 0.75479 0.75000 -0.25300
C 	C 	0.50000 0.89051 0.75000 0.08800
C 	C 	0.50000 0.96234 0.75000 -0.02500
C 	C 	0.50000 0.09732 0.75000 0.01200
H 	H 	0.50000 0.14230 0.75000 0.04700
O 	O 	0.34133 0.43373 0.20400 -0.40800
O 	O 	0.25190 0.34114 0.25680 -0.36800
C 	C 	0.11620 0.71158 0.29240 0.04000
H 	H 	0.19770 0.73420 0.32080 -0.00400
C 	C 	0.11990 0.64504 0.29560 -0.10900
H 	H 	0.20290 0.62370 0.32830 0.05600
C 	C 	0.11520 0.50332 0.23730 -0.02300
H 	H 	0.19250 0.52570 0.22790 0.05100
C 	C 	0.11620 0.43593 0.23860 -0.04200
C 	C 	0.24420 0.40131 0.23070 0.28900
O 	O 	0.84133 0.93373 0.20400 -0.37600
O 	O 	0.75190 0.84114 0.25680 -0.34500
C 	C 	0.61620 0.21158 0.29240 0.07400
H 	H 	0.69770 0.23420 0.32080 -0.00400
C 	C 	0.61990 0.14504 0.29560 -0.14100
H 	H 	0.70290 0.12370 0.32830 0.07600
C 	C 	0.61520 0.00332 0.23730 -0.01500
H 	H 	0.69250 0.02570 0.22790 0.05500
C 	C 	0.61620 0.93593 0.23860 -0.06600
C 	C 	0.74420 0.90131 0.23070 0.29600
O 	O 	0.65867 0.43373 0.29600 -0.40400
O 	O 	0.74810 0.34114 0.24320 -0.34300
C 	C 	0.88380 0.71158 0.20760 0.12500
H 	H 	0.80230 0.73420 0.17920 -0.01900
C 	C 	0.88010 0.64504 0.20440 -0.03800
H 	H 	0.79710 0.62370 0.17170 0.04300
C 	C 	0.88480 0.50332 0.26270 0.05800
H 	H 	0.80750 0.52570 0.27210 0.03500
C 	C 	0.88380 0.43593 0.26140 0.02100
C 	C 	0.75580 0.40131 0.26930 0.28100
O 	O 	0.15867 0.93373 0.29600 -0.43500
O 	O 	0.24810 0.84114 0.24320 -0.37500
C 	C 	0.38380 0.21158 0.20760 0.07200
H 	H 	0.30230 0.23420 0.17920 -0.01600
C 	C 	0.38010 0.14504 0.20440 -0.14100
H 	H 	0.29710 0.12370 0.17170 0.06200
C 	C 	0.38480 0.00332 0.26270 -0.01000
H 	H 	0.30750 0.02570 0.27210 0.04100
C 	C 	0.38380 0.93593 0.26140 -0.07700
C 	C 	0.25580 0.90131 0.26930 0.30500
Cd	Cd	0.50000 0.35538 0.25000 1.19600
Cd	Cd	-0.00000 0.85538 0.25000 1.17200
N 	N 	0.00000 0.74521 0.25000 -0.29600
C 	C 	0.00000 0.60949 0.25000 -0.00300
C 	C 	0.00000 0.53766 0.25000 -0.08100
C 	C 	-0.00000 0.40268 0.25000 -0.11600
H 	H 	0.00000 0.35770 0.25000 0.06600
N 	N 	0.50000 0.24521 0.25000 -0.25200
C 	C 	0.50000 0.10949 0.25000 0.09000
C 	C 	0.50000 0.03766 0.25000 -0.02300
C 	C 	0.50000 0.90268 0.25000 0.01200
H 	H 	0.50000 0.85770 0.25000 0.04900
