data_crystal

_cell_length_a 20.56800
_cell_length_b 14.56800
_cell_length_c 22.92900
_cell_angle_alpha 90.00000
_cell_angle_beta  90.00000
_cell_angle_gamma 90.00000

_symmetry_space_group_name_	'P 1'
_symmetry_space_group_name_H-M	'P 1'

loop_
_symmetry_equiv_pos_as_xyz
  x,y,z

loop_
_atom_site_label
_atom_site_type_symbol
_atom_site_fract_x
_atom_site_fract_y
_atom_site_fract_z
_atom_site_charge
Co	Co	0.89469 0.01963 0.63990 1.10000
C 	C 	0.82800 0.05370 0.76080 0.00900
S 	S 	0.81000 0.07600 0.82880 -0.07500
S 	S 	0.79290 0.03180 0.82790 -0.08400
C 	C 	0.82050 0.03070 0.76190 0.03800
N 	N 	0.96655 0.11211 0.67280 -0.25200
N 	N 	0.02825 0.08190 0.68120 -0.20300
H 	H 	0.04585 0.03420 0.66188 0.07700
N 	N 	0.05020 0.40237 0.83098 -0.24800
N 	N 	0.04106 0.33390 0.87102 -0.20400
H 	H 	0.04326 0.34220 0.90987 0.07200
N 	N 	0.85119 0.12528 0.58917 -0.25200
N 	N 	0.88946 0.18457 0.55928 -0.20100
H 	H 	0.93121 0.17334 0.54994 0.06900
N 	N 	0.66855 0.42505 0.59731 -0.25000
N 	N 	0.67255 0.42631 0.53820 -0.20500
H 	H 	0.64841 0.46305 0.51525 0.07300
N 	N 	0.84081 0.03459 0.71401 -0.28200
C 	C 	0.06016 0.13130 0.72160 0.23900
C 	C 	0.01835 0.19840 0.74029 -0.15700
C 	C 	0.96035 0.18440 0.70870 0.24700
C 	C 	0.90057 0.24070 0.71150 -0.74500
H 	H 	0.86730 0.21500 0.68710 0.22100
H 	H 	0.91080 0.30210 0.69940 0.22600
H 	H 	0.88627 0.24340 0.75130 0.23100
C 	C 	0.12870 0.10960 0.73930 -0.71600
H 	H 	0.13670 0.04470 0.73840 0.22000
H 	H 	0.13550 0.13430 0.77760 0.21500
H 	H 	0.15730 0.14190 0.71330 0.21900
C 	C 	0.04267 0.36170 0.77909 0.25300
C 	C 	0.02969 0.26740 0.78618 -0.16300
C 	C 	0.02842 0.25290 0.84553 0.24300
C 	C 	0.01430 0.16860 0.87990 -0.69900
H 	H 	0.04260 0.11970 0.86780 0.21000
H 	H 	0.96970 0.15130 0.87410 0.21100
H 	H 	0.02040 0.18130 0.92060 0.20800
C 	C 	0.04690 0.41360 0.72347 -0.76100
H 	H 	0.03650 0.47700 0.73010 0.23400
H 	H 	0.01720 0.38780 0.69560 0.23300
H 	H 	0.09010 0.40840 0.70794 0.23500
C 	C 	0.85788 0.26219 0.54516 0.24000
C 	C 	0.79542 0.25409 0.56712 -0.15400
C 	C 	0.79339 0.16679 0.59369 0.23900
C 	C 	0.73706 0.12110 0.62257 -0.75000
H 	H 	0.69737 0.15070 0.61107 0.23400
H 	H 	0.74194 0.12470 0.66415 0.21800
H 	H 	0.73571 0.05750 0.61173 0.22500
C 	C 	0.88987 0.33750 0.51190 -0.70600
H 	H 	0.93632 0.33320 0.51500 0.21000
H 	H 	0.87469 0.39520 0.52680 0.21400
H 	H 	0.87652 0.33340 0.47180 0.21100
C 	C 	0.71202 0.36267 0.61460 0.24800
C 	C 	0.74381 0.32372 0.56598 -0.16500
C 	C 	0.71688 0.36660 0.51786 0.25900
C 	C 	0.72930 0.35670 0.45416 -0.75400
H 	H 	0.69107 0.37260 0.43236 0.23400
H 	H 	0.74184 0.29460 0.44582 0.23500
H 	H 	0.76471 0.39610 0.44336 0.23500
C 	C 	0.72347 0.34240 0.67763 -0.75100
H 	H 	0.75688 0.29680 0.68168 0.23100
H 	H 	0.68386 0.32080 0.69504 0.22700
H 	H 	0.73614 0.39780 0.69729 0.22400
Co	Co	0.10531 0.51963 0.86010 1.10200
C 	C 	0.17200 0.55370 0.73920 0.01100
S 	S 	0.19000 0.57600 0.67120 -0.06800
S 	S 	0.20710 0.53180 0.67210 -0.08700
C 	C 	0.17950 0.53070 0.73810 0.03800
N 	N 	0.03345 0.61211 0.82720 -0.25000
N 	N 	0.97175 0.58190 0.81880 -0.20400
H 	H 	0.95415 0.53420 0.83812 0.07700
N 	N 	0.94980 0.90237 0.66902 -0.24800
N 	N 	0.95894 0.83390 0.62898 -0.20400
H 	H 	0.95674 0.84220 0.59013 0.07200
N 	N 	0.14881 0.62528 0.91083 -0.25100
N 	N 	0.11054 0.68457 0.94072 -0.20000
H 	H 	0.06879 0.67334 0.95006 0.06900
N 	N 	0.33145 0.92505 0.90269 -0.25000
N 	N 	0.32745 0.92631 0.96180 -0.20600
H 	H 	0.35159 0.96305 0.98475 0.07400
N 	N 	0.15919 0.53459 0.78599 -0.28200
C 	C 	0.93984 0.63130 0.77840 0.23800
C 	C 	0.98165 0.69840 0.75971 -0.15800
C 	C 	0.03965 0.68440 0.79130 0.24800
C 	C 	0.09943 0.74070 0.78850 -0.74600
H 	H 	0.13270 0.71500 0.81290 0.22100
H 	H 	0.08920 0.80210 0.80060 0.22600
H 	H 	0.11373 0.74340 0.74870 0.23100
C 	C 	0.87130 0.60960 0.76070 -0.71600
H 	H 	0.86330 0.54470 0.76160 0.21900
H 	H 	0.86450 0.63430 0.72240 0.21500
H 	H 	0.84270 0.64190 0.78670 0.21900
C 	C 	0.95733 0.86170 0.72091 0.25500
C 	C 	0.97031 0.76740 0.71382 -0.16500
C 	C 	0.97158 0.75290 0.65447 0.24500
C 	C 	0.98570 0.66860 0.62010 -0.70800
H 	H 	0.95740 0.61970 0.63220 0.21200
H 	H 	0.03030 0.65130 0.62590 0.21500
H 	H 	0.97960 0.68130 0.57940 0.21000
C 	C 	0.95310 0.91360 0.77653 -0.76500
H 	H 	0.96350 0.97700 0.76990 0.23600
H 	H 	0.98280 0.88780 0.80440 0.23500
H 	H 	0.90990 0.90840 0.79206 0.23600
C 	C 	0.14212 0.76219 0.95484 0.23800
C 	C 	0.20458 0.75409 0.93288 -0.15200
C 	C 	0.20661 0.66679 0.90631 0.23900
C 	C 	0.26294 0.62110 0.87743 -0.75000
H 	H 	0.30263 0.65070 0.88893 0.23400
H 	H 	0.25806 0.62470 0.83585 0.21800
H 	H 	0.26429 0.55750 0.88827 0.22600
C 	C 	0.11013 0.83750 0.98810 -0.69800
H 	H 	0.06368 0.83320 0.98500 0.20800
H 	H 	0.12531 0.89520 0.97320 0.21200
H 	H 	0.12348 0.83340 0.02820 0.20800
C 	C 	0.28798 0.86267 0.88540 0.24800
C 	C 	0.25619 0.82372 0.93402 -0.16700
C 	C 	0.28312 0.86660 0.98214 0.26100
C 	C 	0.27070 0.85670 0.04584 -0.75900
H 	H 	0.30893 0.87260 0.06764 0.23500
H 	H 	0.25816 0.79460 0.05418 0.23600
H 	H 	0.23529 0.89610 0.05664 0.23600
C 	C 	0.27653 0.84240 0.82237 -0.75100
H 	H 	0.24312 0.79680 0.81832 0.23100
H 	H 	0.31614 0.82080 0.80496 0.22700
H 	H 	0.26386 0.89780 0.80271 0.22500
Co	Co	0.39469 0.01963 0.86010 1.10100
C 	C 	0.32800 0.05370 0.73920 0.01200
S 	S 	0.31000 0.07600 0.67120 -0.06400
S 	S 	0.29290 0.03180 0.67210 -0.09100
C 	C 	0.32050 0.03070 0.73810 0.03700
N 	N 	0.46655 0.11211 0.82720 -0.25000
N 	N 	0.52825 0.08190 0.81880 -0.20400
H 	H 	0.54585 0.03420 0.83812 0.07700
N 	N 	0.55020 0.40237 0.66902 -0.24800
N 	N 	0.54106 0.33390 0.62898 -0.20500
H 	H 	0.54326 0.34220 0.59013 0.07200
N 	N 	0.35119 0.12528 0.91083 -0.25100
N 	N 	0.38946 0.18457 0.94072 -0.20100
H 	H 	0.43121 0.17334 0.95006 0.06900
N 	N 	0.16855 0.42505 0.90269 -0.25000
N 	N 	0.17255 0.42631 0.96180 -0.20500
H 	H 	0.14841 0.46305 0.98475 0.07300
N 	N 	0.34081 0.03459 0.78599 -0.28200
C 	C 	0.56016 0.13130 0.77840 0.23900
C 	C 	0.51835 0.19840 0.75971 -0.15900
C 	C 	0.46035 0.18440 0.79130 0.25000
C 	C 	0.40057 0.24070 0.78850 -0.74800
H 	H 	0.36730 0.21500 0.81290 0.22200
H 	H 	0.41080 0.30210 0.80060 0.22700
H 	H 	0.38627 0.24340 0.74870 0.23200
C 	C 	0.62870 0.10960 0.76070 -0.71600
H 	H 	0.63670 0.04470 0.76160 0.21900
H 	H 	0.63550 0.13430 0.72240 0.21500
H 	H 	0.65730 0.14190 0.78670 0.21800
C 	C 	0.54267 0.36170 0.72091 0.25300
C 	C 	0.52969 0.26740 0.71382 -0.16400
C 	C 	0.52842 0.25290 0.65447 0.24600
C 	C 	0.51430 0.16860 0.62010 -0.71100
H 	H 	0.54260 0.11970 0.63220 0.21300
H 	H 	0.46970 0.15130 0.62590 0.21600
H 	H 	0.52040 0.18130 0.57940 0.21000
C 	C 	0.54690 0.41360 0.77653 -0.76100
H 	H 	0.53650 0.47700 0.76990 0.23400
H 	H 	0.51720 0.38780 0.80440 0.23300
H 	H 	0.59010 0.40840 0.79206 0.23400
C 	C 	0.35788 0.26219 0.95484 0.24100
C 	C 	0.29542 0.25409 0.93288 -0.15400
C 	C 	0.29339 0.16679 0.90631 0.24000
C 	C 	0.23706 0.12110 0.87743 -0.75100
H 	H 	0.19737 0.15070 0.88893 0.23400
H 	H 	0.24194 0.12470 0.83585 0.21900
H 	H 	0.23571 0.05750 0.88827 0.22700
C 	C 	0.38987 0.33750 0.98810 -0.70800
H 	H 	0.43632 0.33320 0.98500 0.21100
H 	H 	0.37469 0.39520 0.97320 0.21500
H 	H 	0.37652 0.33340 0.02820 0.21300
C 	C 	0.21202 0.36267 0.88540 0.24800
C 	C 	0.24381 0.32372 0.93402 -0.16500
C 	C 	0.21688 0.36660 0.98214 0.25900
C 	C 	0.22930 0.35670 0.04584 -0.75400
H 	H 	0.19107 0.37260 0.06764 0.23400
H 	H 	0.24184 0.29460 0.05418 0.23600
H 	H 	0.26471 0.39610 0.05664 0.23500
C 	C 	0.22347 0.34240 0.82237 -0.75000
H 	H 	0.25688 0.29680 0.81832 0.23100
H 	H 	0.18386 0.32080 0.80496 0.22600
H 	H 	0.23614 0.39780 0.80271 0.22400
Co	Co	0.60531 0.51963 0.63990 1.10200
C 	C 	0.67200 0.55370 0.76080 0.01100
S 	S 	0.69000 0.57600 0.82880 -0.07000
S 	S 	0.70710 0.53180 0.82790 -0.08600
C 	C 	0.67950 0.53070 0.76190 0.03900
N 	N 	0.53345 0.61211 0.67280 -0.25000
N 	N 	0.47175 0.58190 0.68120 -0.20400
H 	H 	0.45415 0.53420 0.66188 0.07700
N 	N 	0.44980 0.90237 0.83098 -0.24800
N 	N 	0.45894 0.83390 0.87102 -0.20500
H 	H 	0.45674 0.84220 0.90987 0.07200
N 	N 	0.64881 0.62528 0.58917 -0.25100
N 	N 	0.61054 0.68457 0.55928 -0.20100
H 	H 	0.56879 0.67334 0.54994 0.06900
N 	N 	0.83145 0.92505 0.59731 -0.24900
N 	N 	0.82745 0.92631 0.53820 -0.20500
H 	H 	0.85159 0.96305 0.51525 0.07400
N 	N 	0.65919 0.53459 0.71401 -0.28200
C 	C 	0.43984 0.63130 0.72160 0.23900
C 	C 	0.48165 0.69840 0.74029 -0.15900
C 	C 	0.53965 0.68440 0.70870 0.25000
C 	C 	0.59943 0.74070 0.71150 -0.74900
H 	H 	0.63270 0.71500 0.68710 0.22200
H 	H 	0.58920 0.80210 0.69940 0.22800
H 	H 	0.61373 0.74340 0.75130 0.23200
C 	C 	0.37130 0.60960 0.73930 -0.71600
H 	H 	0.36330 0.54470 0.73840 0.21900
H 	H 	0.36450 0.63430 0.77760 0.21500
H 	H 	0.34270 0.64190 0.71330 0.21900
C 	C 	0.45733 0.86170 0.77909 0.25400
C 	C 	0.47031 0.76740 0.78618 -0.16400
C 	C 	0.47158 0.75290 0.84553 0.24600
C 	C 	0.48570 0.66860 0.87990 -0.71100
H 	H 	0.45740 0.61970 0.86780 0.21300
H 	H 	0.53030 0.65130 0.87410 0.21600
H 	H 	0.47960 0.68130 0.92060 0.21100
C 	C 	0.45310 0.91360 0.72347 -0.76200
H 	H 	0.46350 0.97700 0.73010 0.23400
H 	H 	0.48280 0.88780 0.69560 0.23300
H 	H 	0.40990 0.90840 0.70794 0.23500
C 	C 	0.64212 0.76219 0.54516 0.24000
C 	C 	0.70458 0.75409 0.56712 -0.15400
C 	C 	0.70661 0.66679 0.59369 0.24000
C 	C 	0.76294 0.62110 0.62257 -0.75100
H 	H 	0.80263 0.65070 0.61107 0.23400
H 	H 	0.75806 0.62470 0.66415 0.21800
H 	H 	0.76429 0.55750 0.61173 0.22600
C 	C 	0.61013 0.83750 0.51190 -0.70700
H 	H 	0.56368 0.83320 0.51500 0.21100
H 	H 	0.62531 0.89520 0.52680 0.21500
H 	H 	0.62348 0.83340 0.47180 0.21200
C 	C 	0.78798 0.86267 0.61460 0.24800
C 	C 	0.75619 0.82372 0.56598 -0.16600
C 	C 	0.78312 0.86660 0.51786 0.25900
C 	C 	0.77070 0.85670 0.45416 -0.75500
H 	H 	0.80893 0.87260 0.43236 0.23400
H 	H 	0.75816 0.79460 0.44582 0.23500
H 	H 	0.73529 0.89610 0.44336 0.23500
C 	C 	0.77653 0.84240 0.67763 -0.75200
H 	H 	0.74312 0.79680 0.68168 0.23100
H 	H 	0.81614 0.82080 0.69504 0.22700
H 	H 	0.76386 0.89780 0.69729 0.22500
Co	Co	0.60531 0.98037 0.13990 1.10100
C 	C 	0.67200 0.94630 0.26080 0.01200
S 	S 	0.69000 0.92400 0.32880 -0.06400
S 	S 	0.70710 0.96820 0.32790 -0.09100
C 	C 	0.67950 0.96930 0.26190 0.03700
N 	N 	0.53345 0.88789 0.17280 -0.25000
N 	N 	0.47175 0.91810 0.18120 -0.20400
H 	H 	0.45415 0.96580 0.16188 0.07700
N 	N 	0.44980 0.59763 0.33098 -0.24800
N 	N 	0.45894 0.66610 0.37102 -0.20500
H 	H 	0.45674 0.65780 0.40987 0.07200
N 	N 	0.64881 0.87472 0.08917 -0.25100
N 	N 	0.61054 0.81543 0.05928 -0.20100
H 	H 	0.56879 0.82666 0.04994 0.06900
N 	N 	0.83145 0.57495 0.09731 -0.25000
N 	N 	0.82745 0.57369 0.03820 -0.20500
H 	H 	0.85159 0.53695 0.01525 0.07300
N 	N 	0.65919 0.96541 0.21401 -0.28200
C 	C 	0.43984 0.86870 0.22160 0.23900
C 	C 	0.48165 0.80160 0.24029 -0.15900
C 	C 	0.53965 0.81560 0.20870 0.25000
C 	C 	0.59943 0.75930 0.21150 -0.74800
H 	H 	0.63270 0.78500 0.18710 0.22200
H 	H 	0.58920 0.69790 0.19940 0.22700
H 	H 	0.61373 0.75660 0.25130 0.23200
C 	C 	0.37130 0.89040 0.23930 -0.71600
H 	H 	0.36330 0.95530 0.23840 0.21900
H 	H 	0.36450 0.86570 0.27760 0.21500
H 	H 	0.34270 0.85810 0.21330 0.21800
C 	C 	0.45733 0.63830 0.27909 0.25300
C 	C 	0.47031 0.73260 0.28618 -0.16400
C 	C 	0.47158 0.74710 0.34553 0.24600
C 	C 	0.48570 0.83140 0.37990 -0.71100
H 	H 	0.45740 0.88030 0.36780 0.21300
H 	H 	0.53030 0.84870 0.37410 0.21600
H 	H 	0.47960 0.81870 0.42060 0.21000
C 	C 	0.45310 0.58640 0.22347 -0.76100
H 	H 	0.46350 0.52300 0.23010 0.23400
H 	H 	0.48280 0.61220 0.19560 0.23300
H 	H 	0.40990 0.59160 0.20794 0.23400
C 	C 	0.64212 0.73781 0.04516 0.24100
C 	C 	0.70458 0.74591 0.06712 -0.15400
C 	C 	0.70661 0.83321 0.09369 0.24000
C 	C 	0.76294 0.87890 0.12257 -0.75100
H 	H 	0.80263 0.84930 0.11107 0.23400
H 	H 	0.75806 0.87530 0.16415 0.21900
H 	H 	0.76429 0.94250 0.11173 0.22700
C 	C 	0.61013 0.66250 0.01190 -0.70800
H 	H 	0.56368 0.66680 0.01500 0.21100
H 	H 	0.62531 0.60480 0.02680 0.21500
H 	H 	0.62348 0.66660 0.97180 0.21300
C 	C 	0.78798 0.63733 0.11460 0.24800
C 	C 	0.75619 0.67628 0.06598 -0.16500
C 	C 	0.78312 0.63340 0.01786 0.25900
C 	C 	0.77070 0.64330 0.95416 -0.75400
H 	H 	0.80893 0.62740 0.93236 0.23400
H 	H 	0.75816 0.70540 0.94582 0.23600
H 	H 	0.73529 0.60390 0.94336 0.23500
C 	C 	0.77653 0.65760 0.17763 -0.75000
H 	H 	0.74312 0.70320 0.18168 0.23100
H 	H 	0.81614 0.67920 0.19504 0.22600
H 	H 	0.76386 0.60220 0.19729 0.22400
Co	Co	0.39469 0.48037 0.36010 1.10200
C 	C 	0.32800 0.44630 0.23920 0.01100
S 	S 	0.31000 0.42400 0.17120 -0.07000
S 	S 	0.29290 0.46820 0.17210 -0.08600
C 	C 	0.32050 0.46930 0.23810 0.03900
N 	N 	0.46655 0.38789 0.32720 -0.25000
N 	N 	0.52825 0.41810 0.31880 -0.20400
H 	H 	0.54585 0.46580 0.33812 0.07700
N 	N 	0.55020 0.09763 0.16902 -0.24800
N 	N 	0.54106 0.16610 0.12898 -0.20500
H 	H 	0.54326 0.15780 0.09013 0.07200
N 	N 	0.35119 0.37472 0.41083 -0.25100
N 	N 	0.38946 0.31543 0.44072 -0.20100
H 	H 	0.43121 0.32666 0.45006 0.06900
N 	N 	0.16855 0.07495 0.40269 -0.24900
N 	N 	0.17255 0.07369 0.46180 -0.20500
H 	H 	0.14841 0.03695 0.48475 0.07400
N 	N 	0.34081 0.46541 0.28599 -0.28200
C 	C 	0.56016 0.36870 0.27840 0.23900
C 	C 	0.51835 0.30160 0.25971 -0.15900
C 	C 	0.46035 0.31560 0.29130 0.25000
C 	C 	0.40057 0.25930 0.28850 -0.74900
H 	H 	0.36730 0.28500 0.31290 0.22200
H 	H 	0.41080 0.19790 0.30060 0.22800
H 	H 	0.38627 0.25660 0.24870 0.23200
C 	C 	0.62870 0.39040 0.26070 -0.71600
H 	H 	0.63670 0.45530 0.26160 0.21900
H 	H 	0.63550 0.36570 0.22240 0.21500
H 	H 	0.65730 0.35810 0.28670 0.21900
C 	C 	0.54267 0.13830 0.22091 0.25400
C 	C 	0.52969 0.23260 0.21382 -0.16400
C 	C 	0.52842 0.24710 0.15447 0.24600
C 	C 	0.51430 0.33140 0.12010 -0.71100
H 	H 	0.54260 0.38030 0.13220 0.21300
H 	H 	0.46970 0.34870 0.12590 0.21600
H 	H 	0.52040 0.31870 0.07940 0.21100
C 	C 	0.54690 0.08640 0.27653 -0.76200
H 	H 	0.53650 0.02300 0.26990 0.23400
H 	H 	0.51720 0.11220 0.30440 0.23300
H 	H 	0.59010 0.09160 0.29206 0.23500
C 	C 	0.35788 0.23781 0.45484 0.24000
C 	C 	0.29542 0.24591 0.43288 -0.15400
C 	C 	0.29339 0.33321 0.40631 0.24000
C 	C 	0.23706 0.37890 0.37743 -0.75100
H 	H 	0.19737 0.34930 0.38893 0.23400
H 	H 	0.24194 0.37530 0.33585 0.21800
H 	H 	0.23571 0.44250 0.38827 0.22600
C 	C 	0.38987 0.16250 0.48810 -0.70700
H 	H 	0.43632 0.16680 0.48500 0.21100
H 	H 	0.37469 0.10480 0.47320 0.21500
H 	H 	0.37652 0.16660 0.52820 0.21200
C 	C 	0.21202 0.13733 0.38540 0.24800
C 	C 	0.24381 0.17628 0.43402 -0.16600
C 	C 	0.21688 0.13340 0.48214 0.25900
C 	C 	0.22930 0.14330 0.54584 -0.75500
H 	H 	0.19107 0.12740 0.56764 0.23400
H 	H 	0.24184 0.20540 0.55418 0.23500
H 	H 	0.26471 0.10390 0.55664 0.23500
C 	C 	0.22347 0.15760 0.32237 -0.75200
H 	H 	0.25688 0.20320 0.31832 0.23100
H 	H 	0.18386 0.17920 0.30496 0.22700
H 	H 	0.23614 0.10220 0.30271 0.22500
Co	Co	0.10531 0.98037 0.36010 1.10100
C 	C 	0.17200 0.94630 0.23920 0.01000
S 	S 	0.19000 0.92400 0.17120 -0.07400
S 	S 	0.20710 0.96820 0.17210 -0.08300
C 	C 	0.17950 0.96930 0.23810 0.03900
N 	N 	0.03345 0.88789 0.32720 -0.25100
N 	N 	0.97175 0.91810 0.31880 -0.20300
H 	H 	0.95415 0.96580 0.33812 0.07700
N 	N 	0.94980 0.59763 0.16902 -0.24800
N 	N 	0.95894 0.66610 0.12898 -0.20400
H 	H 	0.95674 0.65780 0.09013 0.07200
N 	N 	0.14881 0.87472 0.41083 -0.25200
N 	N 	0.11054 0.81543 0.44072 -0.20100
H 	H 	0.06879 0.82666 0.45006 0.06900
N 	N 	0.33145 0.57495 0.40269 -0.25000
N 	N 	0.32745 0.57369 0.46180 -0.20500
H 	H 	0.35159 0.53695 0.48475 0.07300
N 	N 	0.15919 0.96541 0.28599 -0.28200
C 	C 	0.93984 0.86870 0.27840 0.23900
C 	C 	0.98165 0.80160 0.25971 -0.15700
C 	C 	0.03965 0.81560 0.29130 0.24700
C 	C 	0.09943 0.75930 0.28850 -0.74500
H 	H 	0.13270 0.78500 0.31290 0.22100
H 	H 	0.08920 0.69790 0.30060 0.22600
H 	H 	0.11373 0.75660 0.24870 0.23100
C 	C 	0.87130 0.89040 0.26070 -0.71600
H 	H 	0.86330 0.95530 0.26160 0.22000
H 	H 	0.86450 0.86570 0.22240 0.21500
H 	H 	0.84270 0.85810 0.28670 0.21900
C 	C 	0.95733 0.63830 0.22091 0.25300
C 	C 	0.97031 0.73260 0.21382 -0.16300
C 	C 	0.97158 0.74710 0.15447 0.24300
C 	C 	0.98570 0.83140 0.12010 -0.69900
H 	H 	0.95740 0.88030 0.13220 0.21000
H 	H 	0.03030 0.84870 0.12590 0.21100
H 	H 	0.97960 0.81870 0.07940 0.20800
C 	C 	0.95310 0.58640 0.27653 -0.76100
H 	H 	0.96350 0.52300 0.26990 0.23400
H 	H 	0.98280 0.61220 0.30440 0.23300
H 	H 	0.90990 0.59160 0.29206 0.23500
C 	C 	0.14212 0.73781 0.45484 0.24000
C 	C 	0.20458 0.74591 0.43288 -0.15400
C 	C 	0.20661 0.83321 0.40631 0.23900
C 	C 	0.26294 0.87890 0.37743 -0.75000
H 	H 	0.30263 0.84930 0.38893 0.23400
H 	H 	0.25806 0.87530 0.33585 0.21800
H 	H 	0.26429 0.94250 0.38827 0.22500
C 	C 	0.11013 0.66250 0.48810 -0.70600
H 	H 	0.06368 0.66680 0.48500 0.21000
H 	H 	0.12531 0.60480 0.47320 0.21400
H 	H 	0.12348 0.66660 0.52820 0.21100
C 	C 	0.28798 0.63733 0.38540 0.24800
C 	C 	0.25619 0.67628 0.43402 -0.16500
C 	C 	0.28312 0.63340 0.48214 0.25900
C 	C 	0.27070 0.64330 0.54584 -0.75400
H 	H 	0.30893 0.62740 0.56764 0.23400
H 	H 	0.25816 0.70540 0.55418 0.23500
H 	H 	0.23529 0.60390 0.55664 0.23500
C 	C 	0.27653 0.65760 0.32237 -0.75100
H 	H 	0.24312 0.70320 0.31832 0.23100
H 	H 	0.31614 0.67920 0.30496 0.22700
H 	H 	0.26386 0.60220 0.30271 0.22400
Co	Co	0.89469 0.48037 0.13990 1.10200
C 	C 	0.82800 0.44630 0.26080 0.01100
S 	S 	0.81000 0.42400 0.32880 -0.06800
S 	S 	0.79290 0.46820 0.32790 -0.08700
C 	C 	0.82050 0.46930 0.26190 0.03800
N 	N 	0.96655 0.38789 0.17280 -0.25000
N 	N 	0.02825 0.41810 0.18120 -0.20400
H 	H 	0.04585 0.46580 0.16188 0.07700
N 	N 	0.05020 0.09763 0.33098 -0.24800
N 	N 	0.04106 0.16610 0.37102 -0.20400
H 	H 	0.04326 0.15780 0.40987 0.07200
N 	N 	0.85119 0.37472 0.08917 -0.25100
N 	N 	0.88946 0.31543 0.05928 -0.20000
H 	H 	0.93121 0.32666 0.04994 0.06900
N 	N 	0.66855 0.07495 0.09731 -0.25000
N 	N 	0.67255 0.07369 0.03820 -0.20600
H 	H 	0.64841 0.03695 0.01525 0.07400
N 	N 	0.84081 0.46541 0.21401 -0.28200
C 	C 	0.06016 0.36870 0.22160 0.23800
C 	C 	0.01835 0.30160 0.24029 -0.15800
C 	C 	0.96035 0.31560 0.20870 0.24800
C 	C 	0.90057 0.25930 0.21150 -0.74600
H 	H 	0.86730 0.28500 0.18710 0.22100
H 	H 	0.91080 0.19790 0.19940 0.22600
H 	H 	0.88627 0.25660 0.25130 0.23100
C 	C 	0.12870 0.39040 0.23930 -0.71600
H 	H 	0.13670 0.45530 0.23840 0.21900
H 	H 	0.13550 0.36570 0.27760 0.21500
H 	H 	0.15730 0.35810 0.21330 0.21900
C 	C 	0.04267 0.13830 0.27909 0.25500
C 	C 	0.02969 0.23260 0.28618 -0.16500
C 	C 	0.02842 0.24710 0.34553 0.24500
C 	C 	0.01430 0.33140 0.37990 -0.70800
H 	H 	0.04260 0.38030 0.36780 0.21200
H 	H 	0.96970 0.34870 0.37410 0.21500
H 	H 	0.02040 0.31870 0.42060 0.21000
C 	C 	0.04690 0.08640 0.22347 -0.76500
H 	H 	0.03650 0.02300 0.23010 0.23600
H 	H 	0.01720 0.11220 0.19560 0.23500
H 	H 	0.09010 0.09160 0.20794 0.23600
C 	C 	0.85788 0.23781 0.04516 0.23800
C 	C 	0.79542 0.24591 0.06712 -0.15200
C 	C 	0.79339 0.33321 0.09369 0.23900
C 	C 	0.73706 0.37890 0.12257 -0.75000
H 	H 	0.69737 0.34930 0.11107 0.23400
H 	H 	0.74194 0.37530 0.16415 0.21800
H 	H 	0.73571 0.44250 0.11173 0.22600
C 	C 	0.88987 0.16250 0.01190 -0.69800
H 	H 	0.93632 0.16680 0.01500 0.20800
H 	H 	0.87469 0.10480 0.02680 0.21200
H 	H 	0.87652 0.16660 0.97180 0.20800
C 	C 	0.71202 0.13733 0.11460 0.24800
C 	C 	0.74381 0.17628 0.06598 -0.16700
C 	C 	0.71688 0.13340 0.01786 0.26100
C 	C 	0.72930 0.14330 0.95416 -0.75900
H 	H 	0.69107 0.12740 0.93236 0.23500
H 	H 	0.74184 0.20540 0.94582 0.23600
H 	H 	0.76471 0.10390 0.94336 0.23600
C 	C 	0.72347 0.15760 0.17763 -0.75100
H 	H 	0.75688 0.20320 0.18168 0.23100
H 	H 	0.68386 0.17920 0.19504 0.22700
H 	H 	0.73614 0.10220 0.19729 0.22500
