data_crystal

_cell_length_a 9.27610
_cell_length_b 11.55060
_cell_length_c 17.26710
_cell_angle_alpha 104.82700
_cell_angle_beta  90.00000
_cell_angle_gamma 113.67500

_symmetry_space_group_name_	'P 1'
_symmetry_space_group_name_H-M	'P 1'

loop_
_symmetry_equiv_pos_as_xyz
  x,y,z

loop_
_atom_site_label
_atom_site_type_symbol
_atom_site_fract_x
_atom_site_fract_y
_atom_site_fract_z
_atom_site_charge
Nd	Nd	0.67054 0.97294 0.92694 2.33900
Nd	Nd	0.69760 0.02706 0.57306 2.36800
Nd	Nd	0.32946 0.02706 0.07306 2.33900
Nd	Nd	0.30240 0.97294 0.42694 2.36800
Cu	Cu	0.09411 0.32844 0.13452 0.84300
Cu	Cu	0.76567 0.67156 0.36548 0.84500
Cu	Cu	0.90589 0.67156 0.86548 0.84300
Cu	Cu	0.23433 0.32844 0.63452 0.84500
H 	H 	0.56210 0.19680 0.77930 0.04500
H 	H 	0.50320 0.29740 0.69260 -0.01500
H 	H 	0.08890 0.22720 0.76560 0.01000
H 	H 	0.13910 0.13160 0.85740 0.04300
H 	H 	0.18250 0.71860 0.05460 0.02200
H 	H 	0.08140 0.56300 0.12310 -0.00400
H 	H 	0.27950 0.35220 0.99630 0.01200
H 	H 	0.38990 0.50460 0.92560 0.04300
H 	H 	0.36530 0.80320 0.72070 0.04200
H 	H 	0.20580 0.70260 0.80740 -0.01300
H 	H 	0.86170 0.77280 0.73440 0.01800
H 	H 	0.00750 0.86840 0.64260 0.03700
H 	H 	0.46390 0.28140 0.44540 0.02100
H 	H 	0.51840 0.43700 0.37690 -0.00400
H 	H 	0.92730 0.64780 0.50370 0.00400
H 	H 	0.88530 0.49540 0.57440 0.04500
H 	H 	0.43790 0.80320 0.22070 0.04500
H 	H 	0.49680 0.70260 0.30740 -0.01500
H 	H 	0.91110 0.77280 0.23440 0.01000
H 	H 	0.86090 0.86840 0.14260 0.04300
H 	H 	0.81750 0.28140 0.94540 0.02200
H 	H 	0.91860 0.43700 0.87690 -0.00400
H 	H 	0.72050 0.64780 0.00370 0.01200
H 	H 	0.61010 0.49540 0.07440 0.04300
H 	H 	0.63470 0.19680 0.27930 0.04200
H 	H 	0.79420 0.29740 0.19260 -0.01300
H 	H 	0.13830 0.22720 0.26560 0.01800
H 	H 	0.99250 0.13160 0.35740 0.03700
H 	H 	0.53610 0.71860 0.55460 0.02100
H 	H 	0.48160 0.56300 0.62310 -0.00400
H 	H 	0.07270 0.35220 0.49630 0.00400
H 	H 	0.11470 0.50460 0.42560 0.04500
C 	C 	0.38944 0.08068 0.88290 0.48200
C 	C 	0.35464 0.14988 0.82688 -0.10800
C 	C 	0.46450 0.20160 0.77740 -0.02600
C 	C 	0.42760 0.26080 0.72500 0.02300
C 	C 	0.18530 0.22060 0.76820 0.01800
C 	C 	0.21400 0.16220 0.82320 -0.02200
C 	C 	0.39389 0.74438 0.94961 0.39500
C 	C 	0.30578 0.63336 0.98580 -0.10700
C 	C 	0.20780 0.64620 0.04300 -0.01800
C 	C 	0.14660 0.55180 0.08360 0.01200
C 	C 	0.26280 0.42880 0.00970 0.02200
C 	C 	0.32960 0.52000 0.96680 -0.03400
C 	C 	0.98031 0.92802 0.97648 0.25900
C 	C 	0.70660 0.92520 0.73212 0.25800
C 	C 	0.30876 0.91932 0.61710 0.48900
C 	C 	0.20476 0.85012 0.67312 -0.11800
C 	C 	0.26290 0.79840 0.72260 -0.01700
C 	C 	0.16680 0.73920 0.77500 0.01800
C 	C 	0.96470 0.77940 0.73180 -0.00600
C 	C 	0.05180 0.83780 0.67680 -0.00100
C 	C 	0.64951 0.25562 0.55039 0.39600
C 	C 	0.67242 0.36664 0.51420 -0.10500
C 	C 	0.56160 0.35380 0.45700 -0.01800
C 	C 	0.59480 0.44820 0.41640 0.01400
C 	C 	0.83400 0.57120 0.49030 0.03400
C 	C 	0.80960 0.48000 0.53320 -0.04300
C 	C 	0.05229 0.07198 0.52352 0.26600
C 	C 	0.78140 0.07480 0.76788 0.27000
C 	C 	0.61056 0.91932 0.11710 0.48200
C 	C 	0.64536 0.85012 0.17312 -0.10800
C 	C 	0.53550 0.79840 0.22260 -0.02600
C 	C 	0.57240 0.73920 0.27500 0.02300
C 	C 	0.81470 0.77940 0.23180 0.01800
C 	C 	0.78600 0.83780 0.17680 -0.02200
C 	C 	0.60611 0.25562 0.05039 0.39500
C 	C 	0.69422 0.36664 0.01420 -0.10700
C 	C 	0.79220 0.35380 0.95700 -0.01800
C 	C 	0.85340 0.44820 0.91640 0.01200
C 	C 	0.73720 0.57120 0.99030 0.02200
C 	C 	0.67040 0.48000 0.03320 -0.03400
C 	C 	0.01969 0.07198 0.02352 0.25900
C 	C 	0.29340 0.07480 0.26788 0.25800
C 	C 	0.69124 0.08068 0.38290 0.48900
C 	C 	0.79524 0.14988 0.32688 -0.11800
C 	C 	0.73710 0.20160 0.27740 -0.01700
C 	C 	0.83320 0.26080 0.22500 0.01800
C 	C 	0.03530 0.22060 0.26820 -0.00600
C 	C 	0.94820 0.16220 0.32320 -0.00100
C 	C 	0.35049 0.74438 0.44961 0.39600
C 	C 	0.32758 0.63336 0.48580 -0.10500
C 	C 	0.43840 0.64620 0.54300 -0.01800
C 	C 	0.40520 0.55180 0.58360 0.01400
C 	C 	0.16600 0.42880 0.50970 0.03400
C 	C 	0.19040 0.52000 0.46680 -0.04300
C 	C 	0.94771 0.92802 0.47648 0.26600
C 	C 	0.21860 0.92520 0.23212 0.27000
N 	N 	0.28848 0.26776 0.71880 -0.24400
N 	N 	0.17650 0.44520 0.06880 -0.24100
N 	N 	0.02072 0.73224 0.78120 -0.23500
N 	N 	0.73130 0.55480 0.43120 -0.24300
N 	N 	0.71152 0.73224 0.28120 -0.24400
N 	N 	0.82350 0.55480 0.93120 -0.24100
N 	N 	0.97928 0.26776 0.21880 -0.23500
N 	N 	0.26870 0.44520 0.56880 -0.24300
O 	O 	0.49051 0.03542 0.86444 -0.54300
O 	O 	0.31593 0.07726 0.94360 -0.52700
O 	O 	0.48982 0.73204 0.90114 -0.48000
O 	O 	0.37545 0.85010 0.97312 -0.60200
O 	O 	0.86335 0.87090 0.92316 -0.51200
O 	O 	0.06628 0.87736 0.99582 -0.48000
O 	O 	0.65502 0.85744 0.78060 -0.43800
O 	O 	0.70662 0.88324 0.65770 -0.43900
O 	O 	0.45509 0.96458 0.63556 -0.55100
O 	O 	0.23867 0.92274 0.55640 -0.53300
O 	O 	0.75778 0.26796 0.59886 -0.48200
O 	O 	0.52535 0.14990 0.52688 -0.60600
O 	O 	0.99245 0.12910 0.57684 -0.50800
O 	O 	0.18892 0.12264 0.50418 -0.49300
O 	O 	0.79758 0.14256 0.71940 -0.44100
O 	O 	0.82338 0.11676 0.84230 -0.43600
O 	O 	0.50949 0.96458 0.13556 -0.54300
O 	O 	0.68407 0.92274 0.05640 -0.52700
O 	O 	0.51018 0.26796 0.09886 -0.48000
O 	O 	0.62455 0.14990 0.02688 -0.60200
O 	O 	0.13665 0.12910 0.07684 -0.51200
O 	O 	0.93372 0.12264 0.00418 -0.48000
O 	O 	0.34498 0.14256 0.21940 -0.43800
O 	O 	0.29338 0.11676 0.34230 -0.43900
O 	O 	0.54491 0.03542 0.36444 -0.55100
O 	O 	0.76133 0.07726 0.44360 -0.53300
O 	O 	0.24222 0.73204 0.40114 -0.48200
O 	O 	0.47465 0.85010 0.47312 -0.60600
O 	O 	0.00755 0.87090 0.42316 -0.50800
O 	O 	0.81108 0.87736 0.49582 -0.49300
O 	O 	0.20242 0.85744 0.28060 -0.44100
O 	O 	0.17662 0.88324 0.15770 -0.43600
