data_crystal

_cell_length_a 15.42500
_cell_length_b 12.18420
_cell_length_c 16.05900
_cell_angle_alpha 90.00000
_cell_angle_beta  90.00000
_cell_angle_gamma 90.00000

_symmetry_space_group_name_	'P 1'
_symmetry_space_group_name_H-M	'P 1'

loop_
_symmetry_equiv_pos_as_xyz
  x,y,z

loop_
_atom_site_label
_atom_site_type_symbol
_atom_site_fract_x
_atom_site_fract_y
_atom_site_fract_z
_atom_site_charge
Li	Li	0.09035 0.48739 0.41352 0.56300
O 	O 	0.10620 0.38990 0.31810 -0.32500
C 	C 	0.14550 0.37930 0.17760 -0.07900
C 	C 	0.14440 0.43020 0.26530 0.35500
C 	C 	0.20250 0.36820 0.03830 -0.09800
C 	C 	0.14660 0.28170 0.02190 0.06300
H 	H 	0.14700 0.24950 0.96940 0.03700
C 	C 	0.09080 0.29090 0.16090 0.04900
H 	H 	0.05450 0.26400 0.20240 0.06300
O 	O 	0.18630 0.52270 0.26840 -0.21600
C 	C 	0.19980 0.41890 0.11640 0.04500
H 	H 	0.23490 0.47940 0.12710 0.05900
C 	C 	0.03030 0.15070 0.06180 0.35200
O 	O 	0.02200 0.12280 0.98670 -0.39900
O 	O 	0.98850 0.10590 0.12050 -0.29300
C 	C 	0.26670 0.41130 0.97490 0.39200
O 	O 	0.31370 0.48160 0.99010 -0.34500
O 	O 	0.29090 0.32940 0.92190 -0.15400
O 	O 	0.24290 0.38950 0.89340 -0.13000
C 	C 	0.09030 0.24230 0.08180 -0.10500
Co	Co	0.09035 0.01261 0.91352 1.19600
Li	Li	0.40965 0.51261 0.91352 0.56300
O 	O 	0.39380 0.61010 0.81810 -0.32400
C 	C 	0.35450 0.62070 0.67760 -0.07800
C 	C 	0.35560 0.56980 0.76530 0.35500
C 	C 	0.29750 0.63180 0.53830 -0.09600
C 	C 	0.35340 0.71830 0.52190 0.06100
H 	H 	0.35300 0.75050 0.46940 0.03900
C 	C 	0.40920 0.70910 0.66090 0.04900
H 	H 	0.44550 0.73600 0.70240 0.06400
O 	O 	0.31370 0.47730 0.76840 -0.21500
C 	C 	0.30020 0.58110 0.61640 0.04500
H 	H 	0.26510 0.52060 0.62710 0.06000
C 	C 	0.46970 0.84930 0.56180 0.35600
O 	O 	0.47800 0.87720 0.48670 -0.39600
O 	O 	0.51150 0.89410 0.62050 -0.29900
C 	C 	0.23330 0.58870 0.47490 0.39100
O 	O 	0.18630 0.51840 0.49010 -0.34500
O 	O 	0.20910 0.67060 0.42190 -0.15300
O 	O 	0.25710 0.61050 0.39340 -0.13000
C 	C 	0.40970 0.75770 0.58180 -0.10500
Co	Co	0.40965 0.98739 0.41352 1.20000
Li	Li	0.90965 0.98739 0.08648 0.56200
O 	O 	0.89380 0.88990 0.18190 -0.32400
C 	C 	0.85450 0.87930 0.32240 -0.07700
C 	C 	0.85560 0.93020 0.23470 0.34700
C 	C 	0.79750 0.86820 0.46170 -0.09600
C 	C 	0.85340 0.78170 0.47810 0.06000
H 	H 	0.85300 0.74950 0.53060 0.03900
C 	C 	0.90920 0.79090 0.33910 0.04800
H 	H 	0.94550 0.76400 0.29760 0.06400
O 	O 	0.81370 0.02270 0.23160 -0.20800
C 	C 	0.80020 0.91890 0.38360 0.04300
H 	H 	0.76510 0.97940 0.37290 0.05900
C 	C 	0.96970 0.65070 0.43820 0.35400
O 	O 	0.97800 0.62280 0.51330 -0.39700
O 	O 	0.01150 0.60590 0.37950 -0.29900
C 	C 	0.73330 0.91130 0.52510 0.39100
O 	O 	0.68630 0.98160 0.50990 -0.34600
O 	O 	0.70910 0.82940 0.57810 -0.15300
O 	O 	0.75710 0.88950 0.60660 -0.13000
C 	C 	0.90970 0.74230 0.41820 -0.10500
Co	Co	0.90965 0.51261 0.58648 1.20000
Li	Li	0.59035 0.01261 0.58648 0.56300
O 	O 	0.60620 0.11010 0.68190 -0.32400
C 	C 	0.64550 0.12070 0.82240 -0.07800
C 	C 	0.64440 0.06980 0.73470 0.35500
C 	C 	0.70250 0.13180 0.96170 -0.09900
C 	C 	0.64660 0.21830 0.97810 0.05500
H 	H 	0.64700 0.25050 0.03060 0.04300
C 	C 	0.59080 0.20910 0.83910 0.04800
H 	H 	0.55450 0.23600 0.79760 0.06400
O 	O 	0.68630 0.97730 0.73160 -0.21500
C 	C 	0.69980 0.08110 0.88360 0.04500
H 	H 	0.73490 0.02060 0.87290 0.05900
C 	C 	0.53030 0.34930 0.93820 0.35300
O 	O 	0.52200 0.37720 0.01330 -0.39500
O 	O 	0.48850 0.39410 0.87950 -0.29900
C 	C 	0.76670 0.08870 0.02510 0.39400
O 	O 	0.81370 0.01840 0.00990 -0.34000
O 	O 	0.79090 0.17060 0.07810 -0.15200
O 	O 	0.74290 0.11050 0.10660 -0.12900
C 	C 	0.59030 0.25770 0.91820 -0.10300
Co	Co	0.59035 0.48739 0.08648 1.20000
O 	O 	0.89380 0.61010 0.68190 -0.44700
C 	C 	0.85450 0.62070 0.82240 -0.09300
C 	C 	0.85560 0.56980 0.73470 0.38000
C 	C 	0.79750 0.63180 0.96170 -0.11000
C 	C 	0.85340 0.71830 0.97810 0.06600
H 	H 	0.85300 0.75050 0.03060 0.05500
C 	C 	0.90920 0.70910 0.83910 0.05300
H 	H 	0.94550 0.73600 0.79760 0.05900
O 	O 	0.81370 0.47730 0.73160 -0.26200
C 	C 	0.80020 0.58110 0.88360 0.05800
H 	H 	0.76510 0.52060 0.87290 0.05600
C 	C 	0.96970 0.84930 0.93820 0.34900
O 	O 	0.97800 0.87720 0.01330 -0.33500
O 	O 	0.01150 0.89410 0.87950 -0.39800
C 	C 	0.73330 0.58870 0.02510 0.42600
O 	O 	0.68630 0.51840 0.00990 -0.46500
O 	O 	0.70910 0.67060 0.07810 -0.18300
O 	O 	0.75710 0.61050 0.10660 -0.15100
C 	C 	0.90970 0.75770 0.91820 -0.10000
O 	O 	0.60620 0.38990 0.18190 -0.44600
C 	C 	0.64550 0.37930 0.32240 -0.09200
C 	C 	0.64440 0.43020 0.23470 0.38000
C 	C 	0.70250 0.36820 0.46170 -0.10800
C 	C 	0.64660 0.28170 0.47810 0.06300
H 	H 	0.64700 0.24950 0.53060 0.05800
C 	C 	0.59080 0.29090 0.33910 0.05300
H 	H 	0.55450 0.26400 0.29760 0.06000
O 	O 	0.68630 0.52270 0.23160 -0.26100
C 	C 	0.69980 0.41890 0.38360 0.05700
H 	H 	0.73490 0.47940 0.37290 0.05700
C 	C 	0.53030 0.15070 0.43820 0.35300
O 	O 	0.52200 0.12280 0.51330 -0.33200
O 	O 	0.48850 0.10590 0.37950 -0.40400
C 	C 	0.76670 0.41130 0.52510 0.42500
O 	O 	0.81370 0.48160 0.50990 -0.46500
O 	O 	0.79090 0.32940 0.57810 -0.18200
O 	O 	0.74290 0.38950 0.60660 -0.15100
C 	C 	0.59030 0.24230 0.41820 -0.09900
O 	O 	0.10620 0.11010 0.81810 -0.44500
C 	C 	0.14550 0.12070 0.67760 -0.09100
C 	C 	0.14440 0.06980 0.76530 0.37300
C 	C 	0.20250 0.13180 0.53830 -0.10800
C 	C 	0.14660 0.21830 0.52190 0.06200
H 	H 	0.14700 0.25050 0.46940 0.05800
C 	C 	0.09080 0.20910 0.66090 0.05200
H 	H 	0.05450 0.23600 0.70240 0.06000
O 	O 	0.18630 0.97730 0.76840 -0.25500
C 	C 	0.19980 0.08110 0.61640 0.05600
H 	H 	0.23490 0.02060 0.62710 0.05600
C 	C 	0.03030 0.34930 0.56180 0.35200
O 	O 	0.02200 0.37720 0.48670 -0.33200
O 	O 	0.98850 0.39410 0.62050 -0.40500
C 	C 	0.26670 0.08870 0.47490 0.42500
O 	O 	0.31370 0.01840 0.49010 -0.46500
O 	O 	0.29090 0.17060 0.42190 -0.18200
O 	O 	0.24290 0.11050 0.39340 -0.15100
C 	C 	0.09030 0.25770 0.58180 -0.09800
O 	O 	0.39380 0.88990 0.31810 -0.44600
C 	C 	0.35450 0.87930 0.17760 -0.09200
C 	C 	0.35560 0.93020 0.26530 0.37700
C 	C 	0.29750 0.86820 0.03830 -0.11200
C 	C 	0.35340 0.78170 0.02190 0.05600
H 	H 	0.35300 0.74950 0.96940 0.06200
C 	C 	0.40920 0.79090 0.16090 0.05100
H 	H 	0.44550 0.76400 0.20240 0.06000
O 	O 	0.31370 0.02270 0.26840 -0.25900
C 	C 	0.30020 0.91890 0.11640 0.05700
H 	H 	0.26510 0.97940 0.12710 0.05500
C 	C 	0.46970 0.65070 0.06180 0.34900
O 	O 	0.47800 0.62280 0.98670 -0.33000
O 	O 	0.51150 0.60590 0.12050 -0.40500
C 	C 	0.23330 0.91130 0.97490 0.42900
O 	O 	0.18630 0.98160 0.99010 -0.46000
O 	O 	0.20910 0.82940 0.92190 -0.18100
O 	O 	0.25710 0.88950 0.89340 -0.15000
C 	C 	0.40970 0.74230 0.08180 -0.09600
