data_crystal

_cell_length_a 11.40900
_cell_length_b 17.70610
_cell_length_c 17.70610
_cell_angle_alpha 84.04200
_cell_angle_beta  71.20530
_cell_angle_gamma 71.20530

_symmetry_space_group_name_	'P 1'
_symmetry_space_group_name_H-M	'P 1'

loop_
_symmetry_equiv_pos_as_xyz
  x,y,z

loop_
_atom_site_label
_atom_site_type_symbol
_atom_site_fract_x
_atom_site_fract_y
_atom_site_fract_z
_atom_site_charge
Co	Co	0.42692 0.77535 0.33083 1.19000
Co	Co	0.13340 0.83352 0.41138 1.18200
Co	Co	0.03310 0.72465 0.16917 1.17400
Co	Co	0.87830 0.66648 0.08862 1.19000
Co	Co	0.75775 0.66917 0.27535 1.19300
Co	Co	0.54478 0.58862 0.33352 1.18900
Co	Co	0.20227 0.83083 0.22465 1.19300
Co	Co	0.96692 0.91138 0.16648 1.21200
Co	Co	0.57308 0.22465 0.66917 1.19300
Co	Co	0.86660 0.16648 0.58862 1.19900
Co	Co	0.96690 0.27535 0.83083 1.21900
Co	Co	0.12170 0.33352 0.91138 1.18600
Co	Co	0.24225 0.33083 0.72465 1.19100
Co	Co	0.45522 0.41138 0.66648 1.18900
Co	Co	0.79773 0.16917 0.77535 1.19000
Co	Co	0.03308 0.08862 0.83352 1.15000
Co	Co	0.50000 0.50000 0.50000 1.19500
Co	Co	-0.00000 0.00000 -0.00000 1.13100
Co	Co	-0.00000 0.50000 -0.00000 1.15600
Co	Co	0.00000 -0.00000 0.50000 1.14500
H 	H 	0.57590 0.69350 0.40850 0.17600
H 	H 	0.38830 0.59930 0.13850 0.41700
H 	H 	0.53160 0.60270 0.10630 0.39700
H 	H 	0.48630 0.55790 0.18630 0.41000
H 	H 	0.14300 0.70440 0.56540 0.34300
H 	H 	0.24850 0.62990 0.58510 0.35500
H 	H 	0.26170 0.71560 0.58400 0.35400
H 	H 	0.91360 0.47250 0.44810 0.37500
H 	H 	0.81550 0.54110 0.50730 0.37700
H 	H 	0.77860 0.46440 0.50140 0.37700
H 	H 	0.44770 0.33030 0.35670 0.31800
H 	H 	0.38260 0.39300 0.30120 0.30900
H 	H 	0.53270 0.34910 0.27230 0.30400
H 	H 	0.17790 0.80650 0.09150 0.17000
H 	H 	0.62610 0.90070 0.36150 0.43600
H 	H 	0.74060 0.89730 0.39370 0.41200
H 	H 	0.73050 0.94210 0.31370 0.43000
H 	H 	0.91280 0.79560 0.93460 0.27700
H 	H 	0.96350 0.87010 0.91490 0.28700
H 	H 	0.06130 0.78440 0.91600 0.23300
H 	H 	0.33420 0.02750 0.05190 0.25600
H 	H 	0.36390 0.95890 0.99270 0.33800
H 	H 	0.24440 0.03560 0.99860 0.30400
H 	H 	0.63470 0.16970 0.14330 0.31400
H 	H 	0.57680 0.10700 0.19880 0.30500
H 	H 	0.65410 0.15090 0.22770 0.30000
H 	H 	0.98440 0.59150 0.19350 0.19100
H 	H 	0.52680 0.86150 0.09930 0.42000
H 	H 	0.63790 0.89370 0.10270 0.40600
H 	H 	0.67260 0.81370 0.05790 0.40300
H 	H 	0.70840 0.43460 0.20440 0.36500
H 	H 	0.83360 0.41490 0.12990 0.37000
H 	H 	0.84570 0.41600 0.21560 0.37100
H 	H 	0.36170 0.55190 0.97250 0.48900
H 	H 	0.32280 0.49270 0.04110 0.46700
H 	H 	0.28000 0.49860 0.96440 0.49900
H 	H 	0.80440 0.64330 0.83030 0.34300
H 	H 	0.68380 0.69880 0.89300 0.33300
H 	H 	0.80500 0.72770 0.84910 0.33000
H 	H 	0.26940 0.90850 0.30650 0.18200
H 	H 	0.98760 0.63850 0.40070 0.53400
H 	H 	0.13430 0.60630 0.39730 0.47200
H 	H 	0.04420 0.68630 0.44210 0.47400
H 	H 	0.84740 0.06540 0.29560 0.42400
H 	H 	0.87840 0.08510 0.37010 0.43500
H 	H 	0.97730 0.08400 0.28440 0.43900
H 	H 	0.38610 0.94810 0.52750 0.21000
H 	H 	0.35660 0.00730 0.45890 0.17700
H 	H 	0.24300 0.00140 0.53560 0.17700
H 	H 	0.77800 0.85670 0.66970 0.33900
H 	H 	0.77560 0.80120 0.60700 0.32600
H 	H 	0.88180 0.77230 0.65090 0.32900
H 	H 	0.42410 0.30650 0.59150 0.17600
H 	H 	0.61170 0.40070 0.86150 0.43000
H 	H 	0.46840 0.39730 0.89370 0.40800
H 	H 	0.51370 0.44210 0.81370 0.41700
H 	H 	0.85700 0.29560 0.43460 0.39100
H 	H 	0.75150 0.37010 0.41490 0.37900
H 	H 	0.73830 0.28440 0.41600 0.37500
H 	H 	0.08640 0.52750 0.55190 0.32100
H 	H 	0.18450 0.45890 0.49270 0.33800
H 	H 	0.22140 0.53560 0.49860 0.34100
H 	H 	0.55230 0.66970 0.64330 0.33100
H 	H 	0.61740 0.60700 0.69880 0.32700
H 	H 	0.46730 0.65090 0.72770 0.31500
H 	H 	0.82210 0.19350 0.90850 0.18600
H 	H 	0.37390 0.09930 0.63850 0.41400
H 	H 	0.25940 0.10270 0.60630 0.39300
H 	H 	0.26950 0.05790 0.68630 0.39700
H 	H 	0.08720 0.20440 0.06540 0.45100
H 	H 	0.03650 0.12990 0.08510 0.44300
H 	H 	0.93870 0.21560 0.08400 0.49600
H 	H 	0.66580 0.97250 0.94810 0.33300
H 	H 	0.63610 0.04110 0.00730 0.27400
H 	H 	0.75560 0.96440 0.00140 0.31000
H 	H 	0.36530 0.83030 0.85670 0.33300
H 	H 	0.42320 0.89300 0.80120 0.33000
H 	H 	0.34590 0.84910 0.77230 0.31900
H 	H 	0.01560 0.40850 0.80650 0.15800
H 	H 	0.47320 0.13850 0.90070 0.43300
H 	H 	0.36210 0.10630 0.89730 0.40800
H 	H 	0.32740 0.18630 0.94210 0.42800
H 	H 	0.29160 0.56540 0.79560 0.36000
H 	H 	0.16640 0.58510 0.87010 0.36000
H 	H 	0.15430 0.58400 0.78440 0.35100
H 	H 	0.63830 0.44810 0.02750 0.18300
H 	H 	0.67720 0.50730 0.95890 0.22900
H 	H 	0.72000 0.50140 0.03560 0.19700
H 	H 	0.19560 0.35670 0.16970 0.30400
H 	H 	0.31620 0.30120 0.10700 0.29900
H 	H 	0.19500 0.27230 0.15090 0.28600
H 	H 	0.73060 0.09150 0.69350 0.17500
H 	H 	0.01240 0.36150 0.59930 0.28900
H 	H 	0.86570 0.39370 0.60270 0.31700
H 	H 	0.95580 0.31370 0.55790 0.34000
H 	H 	0.15260 0.93460 0.70440 0.25800
H 	H 	0.12160 0.91490 0.62990 0.25500
H 	H 	0.02270 0.91600 0.71560 0.24200
H 	H 	0.61390 0.05190 0.47250 0.44600
H 	H 	0.64340 0.99270 0.54110 0.49000
H 	H 	0.75700 0.99860 0.46440 0.49100
H 	H 	0.22200 0.14330 0.33030 0.30800
H 	H 	0.22440 0.19880 0.39300 0.30800
H 	H 	0.11820 0.22770 0.34910 0.28700
C 	C 	0.42000 0.67810 0.19890 0.75100
C 	C 	0.46010 0.60280 0.15340 -1.31900
C 	C 	0.31120 0.67160 0.47140 0.70100
C 	C 	0.23400 0.68120 0.55960 -1.19100
C 	C 	0.76430 0.53990 0.40790 0.70100
C 	C 	0.82320 0.50100 0.47200 -1.24000
C 	C 	0.48280 0.43650 0.35330 0.64100
C 	C 	0.45930 0.37130 0.31770 -1.08400
C 	C 	0.79700 0.82190 0.30110 0.76500
C 	C 	0.71630 0.89720 0.34660 -1.35200
C 	C 	0.95420 0.82840 0.02860 0.58500
C 	C 	0.97480 0.81880 0.94040 -0.86500
C 	C 	0.21210 0.96010 0.09210 0.63700
C 	C 	0.29620 0.99900 0.02800 -1.03400
C 	C 	0.77260 0.06350 0.14670 0.63800
C 	C 	0.64830 0.12870 0.18230 -1.07900
C 	C 	0.61890 0.80110 0.17810 0.75200
C 	C 	0.61350 0.84660 0.10280 -1.32100
C 	C 	0.78260 0.52860 0.17160 0.71800
C 	C 	0.79360 0.44040 0.18120 -1.22000
C 	C 	0.17220 0.59210 0.03990 0.80000
C 	C 	0.29520 0.52800 0.00100 -1.59400
C 	C 	0.83610 0.64670 0.93650 0.65900
C 	C 	0.77700 0.68230 0.87130 -1.12300
C 	C 	0.09810 0.69890 0.32190 0.82500
C 	C 	0.06290 0.65340 0.39720 -1.58700
C 	C 	0.98280 0.97140 0.32840 0.88700
C 	C 	0.91520 0.05960 0.31880 -1.43400
C 	C 	0.30420 0.90790 0.46010 0.54400
C 	C 	0.32420 0.97200 0.49900 -0.69800
C 	C 	0.91930 0.85330 0.56350 0.65200
C 	C 	0.83060 0.81770 0.62870 -1.11600
C 	C 	0.58000 0.32190 0.80110 0.75900
C 	C 	0.53990 0.39720 0.84660 -1.33900
C 	C 	0.68880 0.32840 0.52860 0.72500
C 	C 	0.76600 0.31880 0.44040 -1.25200
C 	C 	0.23570 0.46010 0.59210 0.67100
C 	C 	0.17680 0.49900 0.52800 -1.15900
C 	C 	0.51720 0.56350 0.64670 0.65300
C 	C 	0.54070 0.62870 0.68230 -1.11200
C 	C 	0.20300 0.17810 0.69890 0.74500
C 	C 	0.28370 0.10280 0.65340 -1.31000
C 	C 	0.04580 0.17160 0.97140 0.83100
C 	C 	0.02520 0.18120 0.05960 -1.57400
C 	C 	0.78790 0.03990 0.90790 0.63900
C 	C 	0.70380 0.00100 0.97200 -1.04200
C 	C 	0.22740 0.93650 0.85330 0.65000
C 	C 	0.35170 0.87130 0.81770 -1.10800
C 	C 	0.38110 0.19890 0.82190 0.76100
C 	C 	0.38650 0.15340 0.89720 -1.34800
C 	C 	0.21740 0.47140 0.82840 0.70200
C 	C 	0.20640 0.55960 0.81880 -1.20800
C 	C 	0.82780 0.40790 0.96010 0.55200
C 	C 	0.70480 0.47200 0.99900 -0.74200
C 	C 	0.16390 0.35330 0.06350 0.62800
C 	C 	0.22300 0.31770 0.12870 -1.06400
C 	C 	0.90190 0.30110 0.67810 0.67100
C 	C 	0.93710 0.34660 0.60280 -1.01700
C 	C 	0.01720 0.02860 0.67160 0.40000
C 	C 	0.08480 0.94040 0.68120 -0.83500
C 	C 	0.69580 0.09210 0.53990 0.78600
C 	C 	0.67580 0.02800 0.50100 -1.55700
C 	C 	0.08070 0.14670 0.43650 0.63900
C 	C 	0.16940 0.18230 0.37130 -1.07600
O 	O 	0.43821 0.67486 0.26672 -0.64100
O 	O 	0.37150 0.74260 0.16800 -0.56100
O 	O 	0.28880 0.72960 0.42580 -0.63200
O 	O 	0.39630 0.60551 0.44669 -0.63500
O 	O 	0.65760 0.52711 0.40829 -0.62700
O 	O 	0.81850 0.58160 0.35780 -0.54900
O 	O 	0.50210 0.49450 0.30870 -0.57200
O 	O 	0.48000 0.42950 0.42510 -0.55000
O 	O 	0.57621 0.69054 0.35344 -0.68900
O 	O 	0.87979 0.82514 0.23328 -0.62600
O 	O 	0.78210 0.75740 0.33200 -0.55600
O 	O 	0.94420 0.77040 0.07420 -0.58500
O 	O 	0.94850 0.89449 0.05331 -0.58100
O 	O 	0.09300 0.97289 0.09171 -0.61100
O 	O 	0.25790 0.91840 0.14220 -0.53200
O 	O 	0.80530 0.00550 0.19130 -0.58600
O 	O 	0.83460 0.07050 0.07490 -0.54800
O 	O 	0.12019 0.80946 0.14656 -0.69900
O 	O 	0.70493 0.73328 0.17486 -0.64300
O 	O 	0.53950 0.83200 0.24260 -0.55500
O 	O 	0.71460 0.57420 0.22960 -0.63300
O 	O 	0.84299 0.55331 0.10551 -0.62700
O 	O 	0.06589 0.59171 0.02711 -0.69000
O 	O 	0.17630 0.64220 0.08160 -0.59900
O 	O 	0.81080 0.69130 0.99450 -0.54000
O 	O 	0.90510 0.57490 0.92950 -0.51100
O 	O 	0.92965 0.64656 0.19054 -0.67600
O 	O 	0.11307 0.76672 0.32514 -0.67000
O 	O 	0.11410 0.66800 0.25740 -0.59400
O 	O 	0.01840 0.92580 0.27040 -0.70700
O 	O 	0.00181 0.94669 0.39449 -0.70600
O 	O 	0.18471 0.90829 0.47289 -0.57200
O 	O 	0.40010 0.85780 0.41840 -0.50200
O 	O 	0.99660 0.80870 0.50550 -0.54300
O 	O 	0.90950 0.92510 0.57050 -0.51700
O 	O 	0.26675 0.85344 0.30946 -0.68800
O 	O 	0.56179 0.32514 0.73328 -0.64200
O 	O 	0.62850 0.25740 0.83200 -0.55700
O 	O 	0.71120 0.27040 0.57420 -0.63200
O 	O 	0.60370 0.39449 0.55331 -0.64000
O 	O 	0.34240 0.47289 0.59171 -0.62100
O 	O 	0.18150 0.41840 0.64220 -0.55000
O 	O 	0.49790 0.50550 0.69130 -0.57300
O 	O 	0.52000 0.57050 0.57490 -0.55200
O 	O 	0.42379 0.30946 0.64656 -0.68800
O 	O 	0.12021 0.17486 0.76672 -0.66600
O 	O 	0.21790 0.24260 0.66800 -0.56300
O 	O 	0.05580 0.22960 0.92580 -0.68600
O 	O 	0.05150 0.10551 0.94669 -0.68500
O 	O 	0.90700 0.02711 0.90829 -0.57000
O 	O 	0.74210 0.08160 0.85780 -0.53100
O 	O 	0.19470 0.99450 0.80870 -0.54400
O 	O 	0.16540 0.92950 0.92510 -0.53100
O 	O 	0.87981 0.19054 0.85344 -0.67000
O 	O 	0.29507 0.26672 0.82514 -0.64100
O 	O 	0.46050 0.16800 0.75740 -0.56200
O 	O 	0.28540 0.42580 0.77040 -0.63100
O 	O 	0.15701 0.44669 0.89449 -0.63900
O 	O 	0.93411 0.40829 0.97289 -0.53100
O 	O 	0.82370 0.35780 0.91840 -0.48800
O 	O 	0.18920 0.30870 0.00550 -0.60200
O 	O 	0.09490 0.42510 0.07050 -0.57400
O 	O 	0.07035 0.35344 0.80946 -0.70500
O 	O 	0.88693 0.23328 0.67486 -0.60600
O 	O 	0.88590 0.33200 0.74260 -0.51600
O 	O 	0.98160 0.07420 0.72960 -0.49500
O 	O 	0.99819 0.05331 0.60551 -0.49200
O 	O 	0.81529 0.09171 0.52711 -0.64300
O 	O 	0.59990 0.14220 0.58160 -0.58200
O 	O 	0.00340 0.19130 0.49450 -0.61200
O 	O 	0.09050 0.07490 0.42950 -0.58200
O 	O 	0.73325 0.14656 0.69054 -0.68900
