data_crystal

_cell_length_a 9.17940
_cell_length_b 9.46000
_cell_length_c 11.15380
_cell_angle_alpha 90.72600
_cell_angle_beta  100.25200
_cell_angle_gamma 105.26500

_symmetry_space_group_name_	'P 1'
_symmetry_space_group_name_H-M	'P 1'

loop_
_symmetry_equiv_pos_as_xyz
  x,y,z

loop_
_atom_site_label
_atom_site_type_symbol
_atom_site_fract_x
_atom_site_fract_y
_atom_site_fract_z
_atom_site_charge
C 	C 	0.07610 0.76430 0.30340 0.32700
C 	C 	0.13380 0.86250 0.41760 -0.04100
C 	C 	0.14790 0.80480 0.53010 -0.02000
H 	H 	0.12600 0.70360 0.53520 0.05900
C 	C 	0.19450 0.89610 0.63680 -0.03800
C 	C 	0.22860 0.04710 0.62880 -0.14400
H 	H 	0.25940 0.10920 0.69920 0.09000
C 	C 	0.21630 0.10460 0.51530 0.20500
C 	C 	0.16750 0.01430 0.40990 -0.13600
H 	H 	0.15720 0.05430 0.33410 0.09600
C 	C 	0.19930 0.83090 0.75940 0.35100
C 	C 	0.35370 0.35360 0.57910 0.30800
C 	C 	0.32600 0.48550 0.60330 -0.28800
H 	H 	0.23140 0.50170 0.57140 0.15000
C 	C 	0.44000 0.59440 0.67550 0.14100
H 	H 	0.42200 0.68460 0.69050 -0.00900
C 	C 	0.57940 0.57130 0.72530 -0.16700
C 	C 	0.60410 0.43720 0.69900 0.15700
H 	H 	0.69790 0.41980 0.73150 -0.06400
C 	C 	0.49190 0.32810 0.62520 -0.30400
H 	H 	0.51050 0.23880 0.60730 0.13500
C 	C 	0.69780 0.68690 0.80400 0.16100
Cd	Cd	0.16276 0.86615 0.03213 1.19000
Cd	Cd	0.99696 0.47709 0.15004 1.20600
N 	N 	0.67240 0.81150 0.84240 -0.12800
N 	N 	0.80670 0.88720 0.91120 -0.16500
N 	N 	0.90770 0.81170 0.91520 -0.16900
N 	N 	0.84240 0.68440 0.84730 -0.21200
O 	O 	0.04060 0.82050 0.20390 -0.44700
O 	O 	0.06260 0.62910 0.31400 -0.42700
O 	O 	0.15560 0.69390 0.75800 -0.45100
O 	O 	0.24640 0.91770 0.85350 -0.45000
O 	O 	0.23740 0.25360 0.50000 -0.29200
O 	O 	0.14160 0.62510 0.03130 -0.62400
C 	C 	0.92390 0.23570 0.69660 0.32700
C 	C 	0.86620 0.13750 0.58240 -0.04100
C 	C 	0.85210 0.19520 0.46990 -0.02000
H 	H 	0.87400 0.29640 0.46480 0.05900
C 	C 	0.80550 0.10390 0.36320 -0.03800
C 	C 	0.77140 0.95290 0.37120 -0.14400
H 	H 	0.74060 0.89080 0.30080 0.09000
C 	C 	0.78370 0.89540 0.48470 0.20500
C 	C 	0.83250 0.98570 0.59010 -0.13600
H 	H 	0.84280 0.94570 0.66590 0.09600
C 	C 	0.80070 0.16910 0.24060 0.35100
C 	C 	0.64630 0.64640 0.42090 0.30800
C 	C 	0.67400 0.51450 0.39670 -0.28800
H 	H 	0.76860 0.49830 0.42860 0.15000
C 	C 	0.56000 0.40560 0.32450 0.14100
H 	H 	0.57800 0.31540 0.30950 -0.00900
C 	C 	0.42060 0.42870 0.27470 -0.16700
C 	C 	0.39590 0.56280 0.30100 0.15700
H 	H 	0.30210 0.58020 0.26850 -0.06400
C 	C 	0.50810 0.67190 0.37480 -0.30400
H 	H 	0.48950 0.76120 0.39270 0.13500
C 	C 	0.30220 0.31310 0.19600 0.16100
Cd	Cd	0.83724 0.13385 0.96787 1.19000
Cd	Cd	0.00304 0.52291 0.84996 1.20600
N 	N 	0.32760 0.18850 0.15760 -0.12800
N 	N 	0.19330 0.11280 0.08880 -0.16500
N 	N 	0.09230 0.18830 0.08480 -0.16900
N 	N 	0.15760 0.31560 0.15270 -0.21200
O 	O 	0.95940 0.17950 0.79610 -0.44700
O 	O 	0.93740 0.37090 0.68600 -0.42700
O 	O 	0.84440 0.30610 0.24200 -0.45100
O 	O 	0.75360 0.08230 0.14650 -0.45000
O 	O 	0.76260 0.74640 0.50000 -0.29200
O 	O 	0.85840 0.37490 0.96870 -0.62400
