data_crystal

_cell_length_a 9.11700
_cell_length_b 9.45200
_cell_length_c 10.91400
_cell_angle_alpha 97.53000
_cell_angle_beta  92.11000
_cell_angle_gamma 103.25000

_symmetry_space_group_name_	'P 1'
_symmetry_space_group_name_H-M	'P 1'

loop_
_symmetry_equiv_pos_as_xyz
  x,y,z

loop_
_atom_site_label
_atom_site_type_symbol
_atom_site_fract_x
_atom_site_fract_y
_atom_site_fract_z
_atom_site_charge
C 	C 	0.69060 0.31610 0.23220 0.32900
C 	C 	0.61780 0.31170 0.35580 -0.02100
C 	C 	0.45800 0.26740 0.35540 -0.14400
H 	H 	0.39850 0.23350 0.28180 0.09600
C 	C 	0.39320 0.27650 0.46920 0.19900
C 	C 	0.47980 0.32680 0.58090 -0.14300
H 	H 	0.43320 0.33340 0.65520 0.10300
C 	C 	0.63820 0.36760 0.58050 -0.01600
C 	C 	0.70760 0.36270 0.46820 -0.03900
H 	H 	0.81210 0.39270 0.46760 0.07000
C 	C 	0.73050 0.42340 0.70310 0.30200
C 	C 	0.13970 0.12930 0.40470 0.25600
C 	C 	0.17840 0.99920 0.35780 -0.24400
H 	H 	0.27570 0.98790 0.37370 0.11600
C 	C 	0.07240 0.88750 0.28790 0.10700
H 	H 	0.09940 0.80120 0.25710 -0.02400
C 	C 	0.92510 0.90080 0.26230 -0.11900
C 	C 	0.88640 0.03040 0.31260 0.09100
H 	H 	0.78840 0.04080 0.29840 0.00800
C 	C 	0.99370 0.14510 0.38430 -0.22700
H 	H 	0.96700 0.23060 0.41770 0.13300
C 	C 	0.81060 0.78190 0.18430 0.14200
Co	Co	0.64360 0.36245 0.96621 1.12400
Co	Co	0.97779 0.49263 0.14119 1.13600
N 	N 	0.67500 0.80230 0.14720 -0.12000
N 	N 	0.60120 0.67260 0.07770 -0.15700
N 	N 	0.68800 0.57910 0.07300 -0.17400
N 	N 	0.82230 0.64350 0.14040 -0.20500
O 	O 	0.87550 0.38070 0.97150 -0.60600
O 	O 	0.83400 0.36520 0.24080 -0.43500
O 	O 	0.60790 0.27490 0.13200 -0.43400
O 	O 	0.87270 0.43580 0.70340 -0.40800
O 	O 	0.66220 0.45980 0.79880 -0.42400
O 	O 	0.23630 0.24880 0.47870 -0.27200
C 	C 	0.30940 0.68390 0.76780 0.32900
C 	C 	0.38220 0.68830 0.64420 -0.02100
C 	C 	0.54200 0.73260 0.64460 -0.14400
H 	H 	0.60150 0.76650 0.71820 0.09600
C 	C 	0.60680 0.72350 0.53080 0.19900
C 	C 	0.52020 0.67320 0.41910 -0.14300
H 	H 	0.56680 0.66660 0.34480 0.10300
C 	C 	0.36180 0.63240 0.41950 -0.01600
C 	C 	0.29240 0.63730 0.53180 -0.03900
H 	H 	0.18790 0.60730 0.53240 0.07000
C 	C 	0.26950 0.57660 0.29690 0.30200
C 	C 	0.86030 0.87070 0.59530 0.25600
C 	C 	0.82160 0.00080 0.64220 -0.24400
H 	H 	0.72430 0.01210 0.62630 0.11600
C 	C 	0.92760 0.11250 0.71210 0.10700
H 	H 	0.90060 0.19880 0.74290 -0.02400
C 	C 	0.07490 0.09920 0.73770 -0.11900
C 	C 	0.11360 0.96960 0.68740 0.09100
H 	H 	0.21160 0.95920 0.70160 0.00800
C 	C 	0.00630 0.85490 0.61570 -0.22700
H 	H 	0.03300 0.76940 0.58230 0.13300
C 	C 	0.18940 0.21810 0.81570 0.14200
Co	Co	0.35640 0.63755 0.03379 1.12400
Co	Co	0.02221 0.50737 0.85881 1.13600
N 	N 	0.32500 0.19770 0.85280 -0.12000
N 	N 	0.39880 0.32740 0.92230 -0.15700
N 	N 	0.31200 0.42090 0.92700 -0.17400
N 	N 	0.17770 0.35650 0.85960 -0.20500
O 	O 	0.12450 0.61930 0.02850 -0.60600
O 	O 	0.16600 0.63480 0.75920 -0.43500
O 	O 	0.39210 0.72510 0.86800 -0.43400
O 	O 	0.12730 0.56420 0.29660 -0.40800
O 	O 	0.33780 0.54020 0.20120 -0.42400
O 	O 	0.76370 0.75120 0.52130 -0.27200
