data_crystal

_cell_length_a 9.15300
_cell_length_b 9.48660
_cell_length_c 11.15310
_cell_angle_alpha 90.92900
_cell_angle_beta  99.74600
_cell_angle_gamma 105.17400

_symmetry_space_group_name_	'P 1'
_symmetry_space_group_name_H-M	'P 1'

loop_
_symmetry_equiv_pos_as_xyz
  x,y,z

loop_
_atom_site_label
_atom_site_type_symbol
_atom_site_fract_x
_atom_site_fract_y
_atom_site_fract_z
_atom_site_charge
Cd	Cd	0.33839 0.13384 0.46713 1.19200
Cd	Cd	0.49582 0.47679 0.64997 1.21500
C 	C 	0.57550 0.76450 0.80330 0.32600
C 	C 	0.63400 0.86250 0.91800 -0.04200
C 	C 	0.64810 0.80380 0.03130 -0.01600
H 	H 	0.62550 0.70280 0.03630 0.05800
C 	C 	0.69570 0.89490 0.13720 -0.04400
C 	C 	0.70110 0.82950 0.25950 0.35200
C 	C 	0.66820 0.01410 0.91070 -0.13300
H 	H 	0.65830 0.05430 0.83520 0.09400
C 	C 	0.73010 0.04630 0.13010 -0.13500
H 	H 	0.76140 0.10790 0.20070 0.08600
C 	C 	0.71700 0.10380 0.01650 0.19900
C 	C 	0.85520 0.35260 0.07950 0.28800
C 	C 	0.99180 0.32520 0.13020 -0.27400
H 	H 	0.00900 0.23460 0.11570 0.12000
C 	C 	0.10430 0.43490 0.20350 0.12500
H 	H 	0.19670 0.41670 0.23870 -0.06600
C 	C 	0.08070 0.57110 0.22480 -0.15400
C 	C 	0.94300 0.59640 0.17080 0.12000
H 	H 	0.92630 0.68780 0.18290 -0.00400
C 	C 	0.82930 0.48690 0.09870 -0.26800
H 	H 	0.73650 0.50430 0.06360 0.14200
C 	C 	0.19800 0.68740 0.30330 0.14600
H 	H 	0.28100 0.38300 0.46700 0.39000
N 	N 	0.34260 0.68420 0.34746 -0.21200
N 	N 	0.40710 0.81150 0.41474 -0.16900
N 	N 	0.30560 0.88660 0.41030 -0.16900
N 	N 	0.17160 0.81160 0.34070 -0.13100
O 	O 	0.53850 0.82070 0.70492 -0.44200
O 	O 	0.56170 0.62949 0.81386 -0.42600
O 	O 	0.65880 0.69300 0.25850 -0.45600
O 	O 	0.74800 0.91610 0.35397 -0.45600
O 	O 	0.73930 0.25259 0.00175 -0.28700
O 	O 	0.36010 0.37373 0.46863 -0.97000
Cd	Cd	0.66161 0.86616 0.53287 1.19300
Cd	Cd	0.50418 0.52321 0.35003 1.21600
C 	C 	0.42450 0.23550 0.19670 0.32600
C 	C 	0.36600 0.13750 0.08200 -0.04200
C 	C 	0.35190 0.19620 0.96870 -0.01600
H 	H 	0.37450 0.29720 0.96370 0.05800
C 	C 	0.30430 0.10510 0.86280 -0.04400
C 	C 	0.29890 0.17050 0.74050 0.35200
C 	C 	0.33180 0.98590 0.08930 -0.13300
H 	H 	0.34170 0.94570 0.16480 0.09400
C 	C 	0.26990 0.95370 0.86990 -0.13500
H 	H 	0.23860 0.89210 0.79930 0.08600
C 	C 	0.28300 0.89620 0.98350 0.19900
C 	C 	0.14480 0.64740 0.92050 0.28800
C 	C 	0.00820 0.67480 0.86980 -0.27400
H 	H 	0.99100 0.76540 0.88430 0.12000
C 	C 	0.89570 0.56510 0.79650 0.12500
H 	H 	0.80330 0.58330 0.76130 -0.06600
C 	C 	0.91930 0.42890 0.77520 -0.15400
C 	C 	0.05700 0.40360 0.82920 0.12000
H 	H 	0.07370 0.31220 0.81710 -0.00400
C 	C 	0.17070 0.51310 0.90130 -0.26800
H 	H 	0.26350 0.49570 0.93640 0.14200
C 	C 	0.80200 0.31260 0.69670 0.14600
H 	H 	0.71900 0.61700 0.53300 0.39000
N 	N 	0.65740 0.31580 0.65254 -0.21200
N 	N 	0.59290 0.18850 0.58526 -0.16900
N 	N 	0.69440 0.11340 0.58970 -0.16900
N 	N 	0.82840 0.18840 0.65930 -0.13100
O 	O 	0.46150 0.17930 0.29508 -0.44200
O 	O 	0.43830 0.37051 0.18614 -0.42600
O 	O 	0.34120 0.30700 0.74150 -0.45600
O 	O 	0.25200 0.08390 0.64603 -0.45600
O 	O 	0.26070 0.74741 0.99825 -0.28700
O 	O 	0.63990 0.62627 0.53137 -0.97000
