data_crystal

_cell_length_a 14.66900
_cell_length_b 16.66390
_cell_length_c 16.66390
_cell_angle_alpha 60.67240
_cell_angle_beta  63.88700
_cell_angle_gamma 63.88710

_symmetry_space_group_name_	'P 1'
_symmetry_space_group_name_H-M	'P 1'

loop_
_symmetry_equiv_pos_as_xyz
  x,y,z

loop_
_atom_site_label
_atom_site_type_symbol
_atom_site_fract_x
_atom_site_fract_y
_atom_site_fract_z
_atom_site_charge
Cu	Cu	0.42720 0.04758 0.95242 0.91900
Cu	Cu	0.57280 0.95242 0.04758 0.91900
Cu	Cu	0.07280 0.54758 0.45242 0.92200
Cu	Cu	0.92720 0.45242 0.54758 0.92200
Cu	Cu	0.25000 0.55600 0.94400 0.89800
Cu	Cu	0.25000 0.94400 0.55600 0.89800
Cu	Cu	0.75000 0.44400 0.05600 0.89800
Cu	Cu	0.75000 0.05600 0.44400 0.89800
H 	H 	0.57350 0.44250 0.17730 0.12200
H 	H 	0.61800 0.49510 0.19210 0.13600
H 	H 	0.59660 0.66360 0.10320 0.08300
H 	H 	0.45640 0.51760 0.08520 0.08100
H 	H 	0.37150 0.80700 0.96760 0.07000
H 	H 	0.80670 0.17730 0.44250 0.12200
H 	H 	0.69480 0.19210 0.49510 0.13600
H 	H 	0.63660 0.10320 0.66360 0.08400
H 	H 	0.94080 0.08520 0.51760 0.08200
H 	H 	0.85390 0.96760 0.80700 0.07300
H 	H 	0.92650 0.32270 0.05750 0.12300
H 	H 	0.88200 0.30790 0.00490 0.13700
H 	H 	0.90340 0.39680 0.83640 0.08100
H 	H 	0.04360 0.41480 0.98240 0.08000
H 	H 	0.12850 0.53240 0.69300 0.06400
H 	H 	0.69330 0.05750 0.32270 0.12300
H 	H 	0.80520 0.00490 0.30790 0.13700
H 	H 	0.86340 0.83640 0.39680 0.08100
H 	H 	0.55920 0.98240 0.41480 0.08000
H 	H 	0.64610 0.69300 0.53240 0.06400
H 	H 	0.42650 0.55750 0.82270 0.12200
H 	H 	0.38200 0.50490 0.80790 0.13600
H 	H 	0.40340 0.33640 0.89680 0.08300
H 	H 	0.54360 0.48240 0.91480 0.08100
H 	H 	0.62850 0.19300 0.03240 0.07000
H 	H 	0.19330 0.82270 0.55750 0.12200
H 	H 	0.30520 0.80790 0.50490 0.13600
H 	H 	0.36340 0.89680 0.33640 0.08400
H 	H 	0.05920 0.91480 0.48240 0.08200
H 	H 	0.14610 0.03240 0.19300 0.07300
H 	H 	0.07350 0.67730 0.94250 0.12300
H 	H 	0.11800 0.69210 0.99510 0.13700
H 	H 	0.09660 0.60320 0.16360 0.08100
H 	H 	0.95640 0.58520 0.01760 0.08000
H 	H 	0.87150 0.46760 0.30700 0.06400
H 	H 	0.30670 0.94250 0.67730 0.12300
H 	H 	0.19480 0.99510 0.69210 0.13700
H 	H 	0.13660 0.16360 0.60320 0.08100
H 	H 	0.44080 0.01760 0.58520 0.08000
H 	H 	0.35390 0.30700 0.46760 0.06400
H 	H 	0.21980 0.04340 0.95660 -0.00300
H 	H 	0.09520 0.12480 0.87520 0.10100
H 	H 	0.11890 0.26300 0.73700 -0.00600
H 	H 	0.25900 0.31100 0.68900 0.11200
H 	H 	0.38110 0.22300 0.77700 -0.00500
H 	H 	0.78020 0.95660 0.04340 -0.00300
H 	H 	0.90480 0.87520 0.12480 0.10100
H 	H 	0.88110 0.73700 0.26300 -0.00600
H 	H 	0.74100 0.68900 0.31100 0.11200
H 	H 	0.61890 0.77700 0.22300 -0.00500
H 	H 	0.28020 0.54340 0.45660 -0.00000
H 	H 	0.40480 0.62480 0.37520 0.10100
H 	H 	0.38110 0.76300 0.23700 -0.00500
H 	H 	0.24100 0.81100 0.18900 0.11100
H 	H 	0.11890 0.72300 0.27700 -0.00500
H 	H 	0.71980 0.45660 0.54340 -0.00000
H 	H 	0.59520 0.37520 0.62480 0.10100
H 	H 	0.61890 0.23700 0.76300 -0.00500
H 	H 	0.75900 0.18900 0.81100 0.11100
H 	H 	0.88110 0.27700 0.72300 -0.00500
C 	C 	0.32590 0.66160 0.98380 0.33200
C 	C 	0.48690 0.75010 0.03190 -0.03700
C 	C 	0.54810 0.66330 0.08170 -0.11100
C 	C 	0.53890 0.57700 0.10000 0.10500
C 	C 	0.46500 0.57580 0.07060 -0.10200
C 	C 	0.40340 0.66150 0.01950 -0.04100
C 	C 	0.41360 0.74950 0.00070 -0.03200
C 	C 	0.49470 0.84420 0.01520 0.34400
C 	C 	0.02870 0.98380 0.66160 0.33100
C 	C 	0.73110 0.03190 0.75010 -0.03500
C 	C 	0.70690 0.08170 0.66330 -0.11200
C 	C 	0.78410 0.10000 0.57700 0.10600
C 	C 	0.88860 0.07060 0.57580 -0.10300
C 	C 	0.91560 0.01950 0.66150 -0.03900
C 	C 	0.83620 0.00070 0.74950 -0.03600
C 	C 	0.64590 0.01520 0.84420 0.34200
C 	C 	0.17410 0.51620 0.83840 0.33200
C 	C 	0.01310 0.46810 0.74990 -0.04400
C 	C 	0.95190 0.41830 0.83670 -0.10600
C 	C 	0.96110 0.40000 0.92300 0.10400
C 	C 	0.03500 0.42940 0.92420 -0.10000
C 	C 	0.09660 0.48050 0.83850 -0.04400
C 	C 	0.08640 0.49930 0.75050 -0.02100
C 	C 	0.00530 0.48480 0.65580 0.35400
C 	C 	0.47130 0.83840 0.51620 0.33200
C 	C 	0.76890 0.74990 0.46810 -0.04400
C 	C 	0.79310 0.83670 0.41830 -0.10600
C 	C 	0.71590 0.92300 0.40000 0.10200
C 	C 	0.61140 0.92420 0.42940 -0.09800
C 	C 	0.58440 0.83850 0.48050 -0.04500
C 	C 	0.66380 0.75050 0.49930 -0.02100
C 	C 	0.85410 0.65580 0.48480 0.35400
C 	C 	0.67410 0.33840 0.01620 0.33200
C 	C 	0.51310 0.24990 0.96810 -0.03700
C 	C 	0.45190 0.33670 0.91830 -0.11100
C 	C 	0.46110 0.42300 0.90000 0.10500
C 	C 	0.53500 0.42420 0.92940 -0.10200
C 	C 	0.59660 0.33850 0.98050 -0.04100
C 	C 	0.58640 0.25050 0.99930 -0.03200
C 	C 	0.50530 0.15580 0.98480 0.34400
C 	C 	0.97130 0.01620 0.33840 0.33100
C 	C 	0.26890 0.96810 0.24990 -0.03500
C 	C 	0.29310 0.91830 0.33670 -0.11200
C 	C 	0.21590 0.90000 0.42300 0.10600
C 	C 	0.11140 0.92940 0.42420 -0.10300
C 	C 	0.08440 0.98050 0.33850 -0.03900
C 	C 	0.16380 0.99930 0.25050 -0.03600
C 	C 	0.35410 0.98480 0.15580 0.34200
C 	C 	0.82590 0.48380 0.16160 0.33200
C 	C 	0.98690 0.53190 0.25010 -0.04400
C 	C 	0.04810 0.58170 0.16330 -0.10600
C 	C 	0.03890 0.60000 0.07700 0.10400
C 	C 	0.96500 0.57060 0.07580 -0.10000
C 	C 	0.90340 0.51950 0.16150 -0.04400
C 	C 	0.91360 0.50070 0.24950 -0.02100
C 	C 	0.99470 0.51520 0.34420 0.35400
C 	C 	0.52870 0.16160 0.48380 0.33200
C 	C 	0.23110 0.25010 0.53190 -0.04400
C 	C 	0.20690 0.16330 0.58170 -0.10600
C 	C 	0.28410 0.07700 0.60000 0.10200
C 	C 	0.38860 0.07580 0.57060 -0.09800
C 	C 	0.41560 0.16150 0.51950 -0.04500
C 	C 	0.33620 0.24950 0.50070 -0.02100
C 	C 	0.14590 0.34420 0.51520 0.35400
C 	C 	0.22840 0.09810 0.90190 0.11500
C 	C 	0.15380 0.14590 0.85410 -0.18600
C 	C 	0.16850 0.22850 0.77150 0.13500
C 	C 	0.24880 0.25640 0.74360 -0.20300
C 	C 	0.32230 0.20230 0.79770 0.12800
C 	C 	0.77160 0.90190 0.09810 0.11500
C 	C 	0.84620 0.85410 0.14590 -0.18600
C 	C 	0.83150 0.77150 0.22850 0.13500
C 	C 	0.75120 0.74360 0.25640 -0.20300
C 	C 	0.67770 0.79770 0.20230 0.12800
C 	C 	0.27160 0.59810 0.40190 0.11500
C 	C 	0.34620 0.64590 0.35410 -0.18500
C 	C 	0.33150 0.72850 0.27150 0.13400
C 	C 	0.25120 0.75640 0.24360 -0.20200
C 	C 	0.17770 0.70230 0.29770 0.12800
C 	C 	0.72840 0.40190 0.59810 0.11500
C 	C 	0.65380 0.35410 0.64590 -0.18500
C 	C 	0.66850 0.27150 0.72850 0.13400
C 	C 	0.74880 0.24360 0.75640 -0.20200
C 	C 	0.82230 0.29770 0.70230 0.12800
N 	N 	0.60660 0.48850 0.14710 -0.34700
N 	N 	0.75780 0.14710 0.48850 -0.34700
N 	N 	0.89340 0.35290 0.01150 -0.34600
N 	N 	0.74220 0.01150 0.35290 -0.34600
N 	N 	0.39340 0.51150 0.85290 -0.34700
N 	N 	0.24220 0.85290 0.51150 -0.34700
N 	N 	0.10660 0.64710 0.98850 -0.34600
N 	N 	0.25780 0.98850 0.64710 -0.34600
N 	N 	0.31350 0.12610 0.87390 -0.21200
N 	N 	0.68650 0.87390 0.12610 -0.21200
N 	N 	0.18650 0.62610 0.37390 -0.21100
N 	N 	0.81350 0.37390 0.62610 -0.21100
O 	O 	0.32280 0.58270 0.99730 -0.41400
O 	O 	0.43780 0.91910 0.97130 -0.39900
O 	O 	0.55840 0.83950 0.04970 -0.39700
O 	O 	0.26800 0.73930 0.94270 -0.29200
O 	O 	0.09720 0.99730 0.58270 -0.41400
O 	O 	0.67180 0.97130 0.91910 -0.39800
O 	O 	0.55240 0.04970 0.83950 -0.39700
O 	O 	0.05000 0.94270 0.73930 -0.29300
O 	O 	0.17720 0.50270 0.91730 -0.41400
O 	O 	0.06220 0.52870 0.58090 -0.40700
O 	O 	0.94160 0.45030 0.66050 -0.39800
O 	O 	0.23200 0.55730 0.76070 -0.29300
O 	O 	0.40280 0.91730 0.50270 -0.41400
O 	O 	0.82820 0.58090 0.52870 -0.40700
O 	O 	0.94760 0.66050 0.45030 -0.39800
O 	O 	0.45000 0.76070 0.55730 -0.29300
O 	O 	0.67720 0.41730 0.00270 -0.41400
O 	O 	0.56220 0.08090 0.02870 -0.39900
O 	O 	0.44160 0.16050 0.95030 -0.39700
O 	O 	0.73200 0.26070 0.05730 -0.29200
O 	O 	0.90280 0.00270 0.41730 -0.41400
O 	O 	0.32820 0.02870 0.08090 -0.39800
O 	O 	0.44760 0.95030 0.16050 -0.39700
O 	O 	0.95000 0.05730 0.26070 -0.29300
O 	O 	0.82280 0.49730 0.08270 -0.41400
O 	O 	0.93780 0.47130 0.41910 -0.40700
O 	O 	0.05840 0.54970 0.33950 -0.39800
O 	O 	0.76800 0.44270 0.23930 -0.29300
O 	O 	0.59720 0.08270 0.49730 -0.41400
O 	O 	0.17180 0.41910 0.47130 -0.40700
O 	O 	0.05240 0.33950 0.54970 -0.39800
O 	O 	0.55000 0.23930 0.44270 -0.29300
