data_crystal

_cell_length_a 12.23420
_cell_length_b 13.95830
_cell_length_c 19.60640
_cell_angle_alpha 83.81790
_cell_angle_beta  75.77510
_cell_angle_gamma 64.00820

_symmetry_space_group_name_	'P 1'
_symmetry_space_group_name_H-M	'P 1'

loop_
_symmetry_equiv_pos_as_xyz
  x,y,z

loop_
_atom_site_label
_atom_site_type_symbol
_atom_site_fract_x
_atom_site_fract_y
_atom_site_fract_z
_atom_site_charge
Cu	Cu	0.69679 0.44396 0.96223 0.87800
Cu	Cu	0.85925 0.44396 0.53777 0.87800
Cu	Cu	0.30321 0.55604 0.03777 0.87900
Cu	Cu	0.14075 0.55604 0.46223 0.87900
H 	H 	0.62140 0.75660 0.87190 0.02700
H 	H 	0.54250 0.93160 0.83160 0.08400
H 	H 	0.19880 0.93980 0.86640 0.07500
H 	H 	0.27780 0.76420 0.90830 0.00400
H 	H 	0.97770 0.38340 0.76900 0.06600
H 	H 	0.85660 0.46960 0.68630 0.00600
H 	H 	0.09100 0.24660 0.54560 -0.00700
H 	H 	0.21260 0.15700 0.62510 0.09200
H 	H 	0.33100 0.41200 0.80840 0.08700
H 	H 	0.33590 0.52920 0.88230 0.00400
H 	H 	0.19340 0.40840 0.04890 -0.00900
H 	H 	0.18040 0.28920 0.98200 0.07800
H 	H 	0.62200 0.75660 0.62810 0.02600
H 	H 	0.52590 0.93160 0.66840 0.08400
H 	H 	0.86140 0.93980 0.63360 0.07500
H 	H 	0.95800 0.76420 0.59170 0.00400
H 	H 	0.63890 0.38340 0.73100 0.06800
H 	H 	0.67380 0.46960 0.81370 0.00500
H 	H 	0.66240 0.24660 0.95440 -0.00700
H 	H 	0.63040 0.15700 0.87490 0.09200
H 	H 	0.25700 0.41200 0.69160 0.08700
H 	H 	0.13490 0.52920 0.61770 0.00400
H 	H 	0.39820 0.40840 0.45110 -0.00800
H 	H 	0.53040 0.28920 0.51800 0.07700
H 	H 	0.37860 0.24340 0.12810 0.02700
H 	H 	0.45750 0.06840 0.16840 0.08400
H 	H 	0.80120 0.06020 0.13360 0.07500
H 	H 	0.72220 0.23580 0.09170 0.00400
H 	H 	0.02230 0.61660 0.23100 0.06600
H 	H 	0.14340 0.53040 0.31370 0.00600
H 	H 	0.90900 0.75340 0.45440 -0.00700
H 	H 	0.78740 0.84300 0.37490 0.09200
H 	H 	0.66900 0.58800 0.19160 0.08700
H 	H 	0.66410 0.47080 0.11770 0.00400
H 	H 	0.80660 0.59160 0.95110 -0.00900
H 	H 	0.81960 0.71080 0.01800 0.07800
H 	H 	0.37800 0.24340 0.37190 0.02600
H 	H 	0.47410 0.06840 0.33160 0.08400
H 	H 	0.13860 0.06020 0.36640 0.07500
H 	H 	0.04200 0.23580 0.40830 0.00400
H 	H 	0.36110 0.61660 0.26900 0.06800
H 	H 	0.32620 0.53040 0.18630 0.00500
H 	H 	0.33760 0.75340 0.04560 -0.00700
H 	H 	0.36960 0.84300 0.12510 0.09200
H 	H 	0.74300 0.58800 0.30840 0.08700
H 	H 	0.86510 0.47080 0.38230 0.00400
H 	H 	0.60180 0.59160 0.54890 -0.00800
H 	H 	0.46960 0.71080 0.48200 0.07700
C 	C 	0.50413 0.63034 0.92180 0.38700
C 	C 	0.45607 0.74306 0.89340 -0.13900
C 	C 	0.53550 0.79380 0.87100 0.06400
C 	C 	0.48820 0.89780 0.84760 -0.12300
C 	C 	0.36297 0.95366 0.84700 0.07200
C 	C 	0.28430 0.90320 0.86820 -0.12500
C 	C 	0.33200 0.79800 0.89240 0.06200
C 	C 	0.30910 0.06840 0.82610 0.00200
C 	C 	0.24270 0.10600 0.77340 -0.05300
C 	C 	0.18920 0.21480 0.75850 0.04400
C 	C 	0.25986 0.25228 0.84540 0.04000
C 	C 	0.31970 0.14380 0.86100 -0.05000
C 	C 	0.40950 0.11020 0.90490 0.09000
C 	C 	0.25310 0.02520 0.72800 0.08500
C 	C 	0.11128 0.26324 0.70430 0.06900
C 	C 	0.00290 0.35500 0.72290 -0.11900
C 	C 	0.93040 0.40580 0.67360 0.05800
C 	C 	0.06733 0.27534 0.59150 0.07900
C 	C 	0.14098 0.22224 0.63840 -0.13500
C 	C 	0.25890 0.33540 0.88730 0.07400
C 	C 	0.30320 0.40860 0.85790 -0.13700
C 	C 	0.30630 0.47780 0.90280 0.08500
C 	C 	0.22340 0.40780 0.99940 0.08200
C 	C 	0.21530 0.33660 0.96010 -0.13800
C 	C 	0.86553 0.63034 0.57820 0.38700
C 	C 	0.80087 0.74306 0.60660 -0.13900
C 	C 	0.67070 0.79380 0.62900 0.06500
C 	C 	0.61400 0.89780 0.65240 -0.12400
C 	C 	0.68337 0.95366 0.65300 0.07300
C 	C 	0.81250 0.90320 0.63180 -0.12600
C 	C 	0.87000 0.79800 0.60760 0.06200
C 	C 	0.62250 0.06840 0.67390 0.00100
C 	C 	0.65130 0.10600 0.72660 -0.05200
C 	C 	0.59600 0.21480 0.74150 0.04300
C 	C 	0.48786 0.25228 0.65460 0.04000
C 	C 	0.53650 0.14380 0.63900 -0.05000
C 	C 	0.48030 0.11020 0.59510 0.09000
C 	C 	0.72170 0.02520 0.77200 0.08300
C 	C 	0.62548 0.26324 0.79570 0.07000
C 	C 	0.64210 0.35500 0.77710 -0.12200
C 	C 	0.66380 0.40580 0.82640 0.06000
C 	C 	0.65733 0.27534 0.90850 0.07900
C 	C 	0.63678 0.22224 0.86160 -0.13600
C 	C 	0.40570 0.33540 0.61270 0.07400
C 	C 	0.28820 0.40860 0.64210 -0.13700
C 	C 	0.21590 0.47780 0.59720 0.08400
C 	C 	0.36880 0.40780 0.50060 0.08000
C 	C 	0.44810 0.33660 0.53990 -0.13700
C 	C 	0.49587 0.36966 0.07820 0.38700
C 	C 	0.54393 0.25694 0.10660 -0.13900
C 	C 	0.46450 0.20620 0.12900 0.06400
C 	C 	0.51180 0.10220 0.15240 -0.12300
C 	C 	0.63703 0.04634 0.15300 0.07200
C 	C 	0.71570 0.09680 0.13180 -0.12500
C 	C 	0.66800 0.20200 0.10760 0.06200
C 	C 	0.69090 0.93160 0.17390 0.00200
C 	C 	0.75730 0.89400 0.22660 -0.05300
C 	C 	0.81080 0.78520 0.24150 0.04400
C 	C 	0.74014 0.74772 0.15460 0.04000
C 	C 	0.68030 0.85620 0.13900 -0.05000
C 	C 	0.59050 0.88980 0.09510 0.09000
C 	C 	0.74690 0.97480 0.27200 0.08500
C 	C 	0.88872 0.73676 0.29570 0.06900
C 	C 	0.99710 0.64500 0.27710 -0.11900
C 	C 	0.06960 0.59420 0.32640 0.05800
C 	C 	0.93267 0.72466 0.40850 0.07900
C 	C 	0.85902 0.77776 0.36160 -0.13500
C 	C 	0.74110 0.66460 0.11270 0.07400
C 	C 	0.69680 0.59140 0.14210 -0.13700
C 	C 	0.69370 0.52220 0.09720 0.08500
C 	C 	0.77660 0.59220 0.00060 0.08200
C 	C 	0.78470 0.66340 0.03990 -0.13800
C 	C 	0.13447 0.36966 0.42180 0.38700
C 	C 	0.19913 0.25694 0.39340 -0.13900
C 	C 	0.32930 0.20620 0.37100 0.06500
C 	C 	0.38600 0.10220 0.34760 -0.12400
C 	C 	0.31663 0.04634 0.34700 0.07300
C 	C 	0.18750 0.09680 0.36820 -0.12600
C 	C 	0.13000 0.20200 0.39240 0.06200
C 	C 	0.37750 0.93160 0.32610 0.00100
C 	C 	0.34870 0.89400 0.27340 -0.05200
C 	C 	0.40400 0.78520 0.25850 0.04300
C 	C 	0.51214 0.74772 0.34540 0.04000
C 	C 	0.46350 0.85620 0.36100 -0.05000
C 	C 	0.51970 0.88980 0.40490 0.09000
C 	C 	0.27830 0.97480 0.22800 0.08300
C 	C 	0.37452 0.73676 0.20430 0.07000
C 	C 	0.35790 0.64500 0.22290 -0.12200
C 	C 	0.33620 0.59420 0.17360 0.06000
C 	C 	0.34267 0.72466 0.09150 0.07900
C 	C 	0.36322 0.77776 0.13840 -0.13600
C 	C 	0.59430 0.66460 0.38730 0.07400
C 	C 	0.71180 0.59140 0.35790 -0.13700
C 	C 	0.78410 0.52220 0.40280 0.08400
C 	C 	0.63120 0.59220 0.49940 0.08000
C 	C 	0.55190 0.66340 0.46010 -0.13700
N 	N 	0.19959 0.28622 0.79298 -0.12400
N 	N 	0.47050 0.09180 0.94430 -0.12000
N 	N 	0.25650 0.96340 0.69330 -0.12700
N 	N 	0.96369 0.36562 0.60773 -0.23000
N 	N 	0.27116 0.47648 0.97150 -0.23300
N 	N 	0.51419 0.28622 0.70702 -0.12400
N 	N 	0.43770 0.09180 0.55570 -0.12000
N 	N 	0.78010 0.96340 0.80670 -0.12600
N 	N 	0.67069 0.36562 0.89227 -0.23000
N 	N 	0.25236 0.47648 0.52850 -0.23300
N 	N 	0.80041 0.71378 0.20702 -0.12400
N 	N 	0.52950 0.90820 0.05570 -0.12000
N 	N 	0.74350 0.03660 0.30670 -0.12700
N 	N 	0.03631 0.63438 0.39227 -0.23000
N 	N 	0.72884 0.52352 0.02850 -0.23300
N 	N 	0.48581 0.71378 0.29298 -0.12400
N 	N 	0.56230 0.90820 0.44430 -0.12000
N 	N 	0.21990 0.03660 0.19330 -0.12600
N 	N 	0.32931 0.63438 0.10773 -0.23000
N 	N 	0.74764 0.52352 0.47150 -0.23300
O 	O 	0.62127 0.58206 0.91576 -0.41100
O 	O 	0.42951 0.59298 0.94915 -0.41200
O 	O 	0.79667 0.58206 0.58424 -0.41100
O 	O 	0.97751 0.59298 0.55085 -0.41200
O 	O 	0.37873 0.41794 0.08424 -0.41100
O 	O 	0.57049 0.40702 0.05085 -0.41200
O 	O 	0.20333 0.41794 0.41576 -0.41100
O 	O 	0.02249 0.40702 0.44915 -0.41200
