data_crystal

_cell_length_a 11.13890
_cell_length_b 11.26520
_cell_length_c 11.41390
_cell_angle_alpha 76.38000
_cell_angle_beta  66.36900
_cell_angle_gamma 78.96400

_symmetry_space_group_name_	'P 1'
_symmetry_space_group_name_H-M	'P 1'

loop_
_symmetry_equiv_pos_as_xyz
  x,y,z

loop_
_atom_site_label
_atom_site_type_symbol
_atom_site_fract_x
_atom_site_fract_y
_atom_site_fract_z
_atom_site_charge
Co	Co	0.47058 0.42902 0.28981 1.18000
Co	Co	0.60624 0.39083 0.49959 1.14700
Co	Co	0.49522 0.35896 0.00924 1.15600
Co	Co	0.52942 0.57098 0.71019 1.18000
Co	Co	0.39376 0.60917 0.50041 1.14700
Co	Co	0.50478 0.64104 0.99076 1.15600
H 	H 	0.04490 0.41710 0.13950 0.06900
H 	H 	0.07710 0.35860 0.49130 0.06100
H 	H 	0.85340 0.33890 0.58810 0.01200
H 	H 	0.32420 0.87010 0.58850 0.01600
H 	H 	0.36140 0.07290 0.49190 0.06200
H 	H 	0.52890 0.96490 0.14260 0.05800
H 	H 	0.95510 0.58290 0.86050 0.06900
H 	H 	0.92290 0.64140 0.50870 0.06100
H 	H 	0.14660 0.66110 0.41190 0.01200
H 	H 	0.67580 0.12990 0.41150 0.01600
H 	H 	0.63860 0.92710 0.50810 0.06200
H 	H 	0.47110 0.03510 0.85740 0.05800
C 	C 	0.78070 0.41410 0.22580 0.33800
C 	C 	0.87340 0.39470 0.29690 -0.04000
C 	C 	0.00740 0.40230 0.23170 -0.00600
C 	C 	0.08630 0.38770 0.30470 -0.05600
C 	C 	0.02660 0.36670 0.43910 -0.04600
C 	C 	0.89270 0.35770 0.49610 0.04000
C 	C 	0.23130 0.40070 0.23890 0.35000
C 	C 	0.36630 0.88980 0.49670 0.03500
C 	C 	0.38910 0.01080 0.44000 -0.03700
C 	C 	0.45280 0.03960 0.30680 -0.07200
C 	C 	0.48540 0.16990 0.24240 0.37800
C 	C 	0.48730 0.94720 0.23450 0.01200
C 	C 	0.46040 0.82710 0.29810 -0.05800
C 	C 	0.48950 0.72400 0.22640 0.35500
C 	C 	0.21930 0.58590 0.77420 0.33800
C 	C 	0.12660 0.60530 0.70310 -0.04000
C 	C 	0.99260 0.59770 0.76830 -0.00600
C 	C 	0.91370 0.61230 0.69530 -0.05600
C 	C 	0.97340 0.63330 0.56090 -0.04600
C 	C 	0.10730 0.64230 0.50390 0.04000
C 	C 	0.76870 0.59930 0.76110 0.35000
C 	C 	0.63370 0.11020 0.50330 0.03500
C 	C 	0.61090 0.98920 0.56000 -0.03700
C 	C 	0.54720 0.96040 0.69320 -0.07200
C 	C 	0.51460 0.83010 0.75760 0.37800
C 	C 	0.51270 0.05280 0.76550 0.01200
C 	C 	0.53960 0.17290 0.70190 -0.05800
C 	C 	0.51050 0.27600 0.77360 0.35500
N 	N 	0.81590 0.37410 0.42750 -0.20300
N 	N 	0.40130 0.80050 0.42740 -0.19900
N 	N 	0.18410 0.62590 0.57250 -0.20300
N 	N 	0.59870 0.19950 0.57260 -0.19900
O 	O 	0.65950 0.40510 0.30120 -0.52500
O 	O 	0.82150 0.43420 0.10750 -0.25900
O 	O 	0.29300 0.36060 0.13480 -0.39700
O 	O 	0.27680 0.45320 0.29590 -0.43000
O 	O 	0.52900 0.19210 0.12120 -0.42700
O 	O 	0.46320 0.24260 0.31750 -0.43600
O 	O 	0.54250 0.74240 0.10510 -0.39300
O 	O 	0.45450 0.62280 0.29860 -0.54800
O 	O 	0.41830 0.42490 0.48830 -0.55500
O 	O 	0.54940 0.47050 0.09470 -0.58200
O 	O 	0.34050 0.59490 0.69880 -0.52500
O 	O 	0.17850 0.56580 0.89250 -0.25900
O 	O 	0.70700 0.63940 0.86520 -0.39700
O 	O 	0.72320 0.54680 0.70410 -0.43000
O 	O 	0.47100 0.80790 0.87880 -0.42700
O 	O 	0.53680 0.75740 0.68250 -0.43600
O 	O 	0.45750 0.25760 0.89490 -0.39300
O 	O 	0.54550 0.37720 0.70140 -0.54800
O 	O 	0.58170 0.57510 0.51170 -0.55500
O 	O 	0.45060 0.52950 0.90530 -0.58200
