data_crystal

_cell_length_a 15.14100
_cell_length_b 15.14100
_cell_length_c 9.33130
_cell_angle_alpha 90.00000
_cell_angle_beta  90.00000
_cell_angle_gamma 120.00000

_symmetry_space_group_name_	'P 1'
_symmetry_space_group_name_H-M	'P 1'

loop_
_symmetry_equiv_pos_as_xyz
  x,y,z

loop_
_atom_site_label
_atom_site_type_symbol
_atom_site_fract_x
_atom_site_fract_y
_atom_site_fract_z
_atom_site_charge
Co	Co	0.47894 0.36502 0.29865 1.18800
P 	P 	0.49458 0.30724 0.62830 0.45600
H 	H 	0.43140 0.34400 0.62800 -0.04000
O 	O 	0.53540 0.32140 0.47520 -0.49800
O 	O 	0.57890 0.37150 0.73490 -0.52200
O 	O 	0.43210 0.19620 0.67280 -0.41900
O 	O 	0.31190 0.37980 0.92800 -0.25500
H 	H 	0.21060 0.22610 0.26110 2.88700
H 	H 	0.18470 0.23520 0.42110 -1.78600
H 	H 	0.24490 0.17890 0.38360 -0.95800
Co	Co	0.63498 0.11392 0.29865 1.17200
P 	P 	0.69276 0.18734 0.62830 0.45000
H 	H 	0.65600 0.08740 0.62800 -0.03100
O 	O 	0.67860 0.21400 0.47520 -0.50400
O 	O 	0.62850 0.20740 0.73490 -0.51800
O 	O 	0.80380 0.23590 0.67280 -0.36800
O 	O 	0.62020 0.93210 0.92800 -0.26300
H 	H 	0.77390 0.98450 0.26110 0.28500
H 	H 	0.76480 0.94950 0.42110 -0.54200
H 	H 	0.82110 0.06600 0.38360 0.39100
Co	Co	0.88608 0.52106 0.29865 1.17500
P 	P 	0.81266 0.50542 0.62830 0.44900
H 	H 	0.91260 0.56860 0.62800 -0.01600
O 	O 	0.78600 0.46460 0.47520 -0.50200
O 	O 	0.79260 0.42110 0.73490 -0.51800
O 	O 	0.76410 0.56790 0.67280 -0.33700
O 	O 	0.06790 0.68810 0.92800 -0.24000
H 	H 	0.01550 0.78940 0.26110 0.96300
H 	H 	0.05050 0.81530 0.42110 -1.64200
H 	H 	0.93400 0.75510 0.38360 0.87100
Co	Co	0.52106 0.63498 0.79865 1.16700
P 	P 	0.50542 0.69276 0.12830 0.42900
H 	H 	0.56860 0.65600 0.12800 -0.03700
O 	O 	0.46460 0.67860 0.97520 -0.48700
O 	O 	0.42110 0.62850 0.23490 -0.52000
O 	O 	0.56790 0.80380 0.17280 -0.38800
O 	O 	0.68810 0.62020 0.42800 -0.25000
H 	H 	0.78940 0.77390 0.76110 -1.00000
H 	H 	0.81530 0.76480 0.92110 0.29000
H 	H 	0.75510 0.82110 0.88360 0.84400
Co	Co	0.36502 0.88608 0.79865 1.17700
P 	P 	0.30724 0.81266 0.12830 0.43100
H 	H 	0.34400 0.91260 0.12800 -0.03400
O 	O 	0.32140 0.78600 0.97520 -0.48100
O 	O 	0.37150 0.79260 0.23490 -0.52200
O 	O 	0.19620 0.76410 0.17280 -0.41000
O 	O 	0.37980 0.06790 0.42800 -0.23100
H 	H 	0.22610 0.01550 0.76110 1.37300
H 	H 	0.23520 0.05050 0.92110 -1.77700
H 	H 	0.17890 0.93400 0.88360 0.55800
Co	Co	0.11392 0.47894 0.79865 1.17900
P 	P 	0.18734 0.49458 0.12830 0.43400
H 	H 	0.08740 0.43140 0.12800 -0.06200
O 	O 	0.21400 0.53540 0.97520 -0.48400
O 	O 	0.20740 0.57890 0.23490 -0.52300
O 	O 	0.23590 0.43210 0.17280 -0.46000
O 	O 	0.93210 0.31190 0.42800 -0.26700
H 	H 	0.98450 0.21060 0.76110 0.59900
H 	H 	0.94950 0.18470 0.92110 0.51400
H 	H 	0.06600 0.24490 0.88360 -1.00200
Co	Co	0.63498 0.52106 0.79865 1.17800
P 	P 	0.69276 0.50542 0.12830 0.43000
H 	H 	0.65600 0.56860 0.12800 -0.03500
O 	O 	0.67860 0.46460 0.97520 -0.48400
O 	O 	0.62850 0.42110 0.23490 -0.52000
O 	O 	0.80380 0.56790 0.17280 -0.36300
O 	O 	0.62020 0.68810 0.42800 -0.26300
H 	H 	0.77390 0.78940 0.76110 1.05500
H 	H 	0.76480 0.81530 0.92110 -0.83000
H 	H 	0.82110 0.75510 0.88360 -0.05100
Co	Co	0.88608 0.36502 0.79865 1.17400
P 	P 	0.81266 0.30724 0.12830 0.43200
H 	H 	0.91260 0.34400 0.12800 -0.05000
O 	O 	0.78600 0.32140 0.97520 -0.49000
O 	O 	0.79260 0.37150 0.23490 -0.52000
O 	O 	0.76410 0.19620 0.17280 -0.38200
O 	O 	0.06790 0.37980 0.42800 -0.29000
H 	H 	0.01550 0.22610 0.76110 -0.41300
H 	H 	0.05050 0.23520 0.92110 1.06700
H 	H 	0.93400 0.17890 0.88360 -0.54800
Co	Co	0.47894 0.11392 0.79865 1.16300
P 	P 	0.49458 0.18734 0.12830 0.42600
H 	H 	0.43140 0.08740 0.12800 -0.01500
O 	O 	0.53540 0.21400 0.97520 -0.49000
O 	O 	0.57890 0.20740 0.23490 -0.51700
O 	O 	0.43210 0.23590 0.17280 -0.29700
O 	O 	0.31190 0.93210 0.42800 -0.26200
H 	H 	0.21060 0.98450 0.76110 -1.42600
H 	H 	0.18470 0.94950 0.92110 -0.22700
H 	H 	0.24490 0.06600 0.88360 1.81900
Co	Co	0.36502 0.47894 0.29865 1.15600
P 	P 	0.30724 0.49458 0.62830 0.44600
H 	H 	0.34400 0.43140 0.62800 -0.03000
O 	O 	0.32140 0.53540 0.47520 -0.51100
O 	O 	0.37150 0.57890 0.73490 -0.51700
O 	O 	0.19620 0.43210 0.67280 -0.34400
O 	O 	0.37980 0.31190 0.92800 -0.26100
H 	H 	0.22610 0.21060 0.26110 -2.85500
H 	H 	0.23520 0.18470 0.42110 1.35300
H 	H 	0.17890 0.24490 0.38360 1.57800
Co	Co	0.11392 0.63498 0.29865 1.16300
P 	P 	0.18734 0.69276 0.62830 0.44800
H 	H 	0.08740 0.65600 0.62800 -0.01700
O 	O 	0.21400 0.67860 0.47520 -0.50700
O 	O 	0.20740 0.62850 0.73490 -0.51800
O 	O 	0.23590 0.80380 0.67280 -0.33900
O 	O 	0.93210 0.62020 0.92800 -0.23300
H 	H 	0.98450 0.77390 0.26110 -1.05000
H 	H 	0.94950 0.76480 0.42110 -0.59000
H 	H 	0.06600 0.82110 0.38360 1.71800
Co	Co	0.52106 0.88608 0.29865 1.16700
P 	P 	0.50542 0.81266 0.62830 0.45300
H 	H 	0.56860 0.91260 0.62800 -0.03600
O 	O 	0.46460 0.78600 0.47520 -0.50600
O 	O 	0.42110 0.79260 0.73490 -0.52100
O 	O 	0.56790 0.76410 0.67280 -0.39700
O 	O 	0.68810 0.06790 0.92800 -0.25200
H 	H 	0.78940 0.01550 0.26110 -0.29900
H 	H 	0.81530 0.05050 0.42110 -0.27400
H 	H 	0.75510 0.93400 0.38360 0.60400
Co	Co	0.66667 0.33333 0.37240 1.16500
Co	Co	0.33333 0.66667 0.87240 1.16700
Co	Co	0.66667 0.33333 0.87240 1.16700
Co	Co	0.33333 0.66667 0.37240 1.16500
P 	P 	0.41200 0.41200 0.97590 0.63800
O 	O 	0.42680 0.42680 0.13340 -0.53100
O 	O 	0.32730 0.32730 0.37110 -0.37800
O 	O 	0.49550 0.49550 0.88910 -0.52700
C 	C 	0.23440 0.23440 0.35820 -0.08800
P 	P 	0.58800 0.00000 0.97590 0.63100
O 	O 	0.57320 0.00000 0.13340 -0.52500
O 	O 	0.67270 0.00000 0.37110 -0.38500
O 	O 	0.50450 0.00000 0.88910 -0.52500
C 	C 	0.76560 0.00000 0.35820 -0.04300
P 	P 	0.00000 0.58800 0.97590 0.63300
O 	O 	-0.00000 0.57320 0.13340 -0.53900
O 	O 	1.00000 0.67270 0.37110 -0.36500
O 	O 	-0.00000 0.50450 0.88910 -0.52500
C 	C 	1.00000 0.76560 0.35820 -0.09800
P 	P 	0.58800 0.58800 0.47590 0.61400
O 	O 	0.57320 0.57320 0.63340 -0.51200
O 	O 	0.67270 0.67270 0.87110 -0.35900
O 	O 	0.50450 0.50450 0.38910 -0.52800
C 	C 	0.76560 0.76560 0.85820 -0.13700
P 	P 	0.41200 0.00000 0.47590 0.61300
O 	O 	0.42680 0.00000 0.63340 -0.51400
O 	O 	0.32730 -0.00000 0.87110 -0.35500
O 	O 	0.49550 0.00000 0.38910 -0.52400
C 	C 	0.23440 0.00000 0.85820 -0.13900
P 	P 	0.00000 0.41200 0.47590 0.62200
O 	O 	-0.00000 0.42680 0.63340 -0.51000
O 	O 	0.00000 0.32730 0.87110 -0.37600
O 	O 	0.00000 0.49550 0.38910 -0.53200
C 	C 	0.00000 0.23440 0.85820 -0.08800
