data_crystal

_cell_length_a 18.48980
_cell_length_b 18.48980
_cell_length_c 38.72660
_cell_angle_alpha 90.00000
_cell_angle_beta  90.00000
_cell_angle_gamma 120.00000

_symmetry_space_group_name_	'P 1'
_symmetry_space_group_name_H-M	'P 1'

loop_
_symmetry_equiv_pos_as_xyz
  x,y,z

loop_
_atom_site_label
_atom_site_type_symbol
_atom_site_fract_x
_atom_site_fract_y
_atom_site_fract_z
_atom_site_charge
O 	O 	0.44360 0.14800 0.16927 -0.39600
O 	O 	0.36250 0.10700 0.12210 -0.39400
C 	C 	0.42490 0.11890 0.13910 0.36200
C 	C 	0.48380 0.09670 0.12229 -0.07100
C 	C 	0.46850 0.06660 0.08830 -0.00100
H 	H 	0.42020 0.05740 0.07700 0.07100
C 	C 	0.57690 0.06390 0.01090 -0.04700
H 	H 	0.63200 0.11100 0.01300 0.06800
C 	C 	0.43850 0.96080 0.02390 -0.08600
N 	N 	0.36100 0.90050 0.04790 -0.09700
O 	O 	0.29480 0.88200 0.03910 -0.09100
O 	O 	0.38000 0.88380 0.07420 -0.04600
H 	H 	0.38170 0.92000 0.02910 0.18300
O 	O 	0.11027 0.48133 0.50260 -0.39600
O 	O 	0.02917 0.44033 0.45543 -0.39500
C 	C 	0.09157 0.45223 0.47243 0.36100
C 	C 	0.15047 0.43003 0.45562 -0.07200
C 	C 	0.13517 0.39993 0.42163 -0.00200
H 	H 	0.08687 0.39073 0.41033 0.07000
C 	C 	0.24357 0.39723 0.34423 -0.04700
H 	H 	0.29867 0.44433 0.34633 0.06700
C 	C 	0.10517 0.29413 0.35723 -0.08800
N 	N 	0.02767 0.23383 0.38123 -0.09800
O 	O 	0.96147 0.21533 0.37243 -0.09200
O 	O 	0.04667 0.21713 0.40753 -0.04700
H 	H 	0.04837 0.25333 0.36243 0.18200
O 	O 	0.77693 0.81467 0.83594 -0.39700
O 	O 	0.69583 0.77367 0.78877 -0.39500
C 	C 	0.75823 0.78557 0.80577 0.36100
C 	C 	0.81713 0.76337 0.78896 -0.07200
C 	C 	0.80183 0.73327 0.75497 -0.00200
H 	H 	0.75353 0.72407 0.74367 0.07000
C 	C 	0.91023 0.73057 0.67757 -0.04700
H 	H 	0.96533 0.77767 0.67967 0.06700
C 	C 	0.77183 0.62747 0.69057 -0.08800
N 	N 	0.69433 0.56717 0.71457 -0.09800
O 	O 	0.62813 0.54867 0.70577 -0.09200
O 	O 	0.71333 0.55047 0.74087 -0.04700
H 	H 	0.71503 0.58667 0.69577 0.18200
O 	O 	0.85200 0.29560 0.16927 -0.39700
O 	O 	0.89300 0.25550 0.12210 -0.39500
C 	C 	0.88110 0.30600 0.13910 0.36100
C 	C 	0.90330 0.38710 0.12229 -0.07200
C 	C 	0.93340 0.40190 0.08830 -0.00200
H 	H 	0.94260 0.36280 0.07700 0.07000
C 	C 	0.93610 0.51300 0.01090 -0.04800
H 	H 	0.88900 0.52100 0.01300 0.06700
C 	C 	0.03920 0.47770 0.02390 -0.08700
N 	N 	0.09950 0.46050 0.04790 -0.09800
O 	O 	0.11800 0.41280 0.03910 -0.09200
O 	O 	0.11620 0.49620 0.07420 -0.04700
H 	H 	0.08000 0.46170 0.02910 0.18200
O 	O 	0.51867 0.62893 0.50260 -0.39700
O 	O 	0.55967 0.58883 0.45543 -0.39500
C 	C 	0.54777 0.63933 0.47243 0.36100
C 	C 	0.56997 0.72043 0.45562 -0.07200
C 	C 	0.60007 0.73523 0.42163 -0.00200
H 	H 	0.60927 0.69613 0.41033 0.07000
C 	C 	0.60277 0.84633 0.34423 -0.04700
H 	H 	0.55567 0.85433 0.34633 0.06700
C 	C 	0.70587 0.81103 0.35723 -0.08800
N 	N 	0.76617 0.79383 0.38123 -0.09800
O 	O 	0.78467 0.74613 0.37243 -0.09200
O 	O 	0.78287 0.82953 0.40753 -0.04700
H 	H 	0.74667 0.79503 0.36243 0.18200
O 	O 	0.18533 0.96227 0.83594 -0.39700
O 	O 	0.22633 0.92217 0.78877 -0.39500
C 	C 	0.21443 0.97267 0.80577 0.36100
C 	C 	0.23663 0.05377 0.78896 -0.07100
C 	C 	0.26673 0.06857 0.75497 -0.00300
H 	H 	0.27593 0.02947 0.74367 0.07000
C 	C 	0.26943 0.17967 0.67757 -0.04700
H 	H 	0.22233 0.18767 0.67967 0.06700
C 	C 	0.37253 0.14437 0.69057 -0.08800
N 	N 	0.43283 0.12717 0.71457 -0.09800
O 	O 	0.45133 0.07947 0.70577 -0.09200
O 	O 	0.44953 0.16287 0.74087 -0.04700
H 	H 	0.41333 0.12837 0.69577 0.18200
O 	O 	0.70440 0.55640 0.16927 -0.39700
O 	O 	0.74450 0.63750 0.12210 -0.39500
C 	C 	0.69400 0.57510 0.13910 0.36100
C 	C 	0.61290 0.51620 0.12229 -0.07200
C 	C 	0.59810 0.53150 0.08830 -0.00200
H 	H 	0.63720 0.57980 0.07700 0.07000
C 	C 	0.48700 0.42310 0.01090 -0.04700
H 	H 	0.47900 0.36800 0.01300 0.06700
C 	C 	0.52230 0.56150 0.02390 -0.08800
N 	N 	0.53950 0.63900 0.04790 -0.09800
O 	O 	0.58720 0.70520 0.03910 -0.09200
O 	O 	0.50380 0.62000 0.07420 -0.04700
H 	H 	0.53830 0.61830 0.02910 0.18200
O 	O 	0.37107 0.88973 0.50260 -0.39700
O 	O 	0.41117 0.97083 0.45543 -0.39500
C 	C 	0.36067 0.90843 0.47243 0.36100
C 	C 	0.27957 0.84953 0.45562 -0.07200
C 	C 	0.26477 0.86483 0.42163 -0.00200
H 	H 	0.30387 0.91313 0.41033 0.07000
C 	C 	0.15367 0.75643 0.34423 -0.04700
H 	H 	0.14567 0.70133 0.34633 0.06700
C 	C 	0.18897 0.89483 0.35723 -0.08800
N 	N 	0.20617 0.97233 0.38123 -0.09800
O 	O 	0.25387 0.03853 0.37243 -0.09200
O 	O 	0.17047 0.95333 0.40753 -0.04700
H 	H 	0.20497 0.95163 0.36243 0.18200
O 	O 	0.03773 0.22307 0.83594 -0.39700
O 	O 	0.07783 0.30417 0.78877 -0.39500
C 	C 	0.02733 0.24177 0.80577 0.36100
C 	C 	0.94623 0.18287 0.78896 -0.07100
C 	C 	0.93143 0.19817 0.75497 -0.00300
H 	H 	0.97053 0.24647 0.74367 0.07000
C 	C 	0.82033 0.08977 0.67757 -0.04700
H 	H 	0.81233 0.03467 0.67967 0.06700
C 	C 	0.85563 0.22817 0.69057 -0.08800
N 	N 	0.87283 0.30567 0.71457 -0.09800
O 	O 	0.92053 0.37187 0.70577 -0.09200
O 	O 	0.83713 0.28667 0.74087 -0.04700
H 	H 	0.87163 0.28497 0.69577 0.18200
O 	O 	0.14800 0.44360 0.83073 -0.39700
O 	O 	0.10700 0.36250 0.87790 -0.39500
C 	C 	0.11890 0.42490 0.86090 0.36100
C 	C 	0.09670 0.48380 0.87771 -0.07200
C 	C 	0.06660 0.46850 0.91170 -0.00200
H 	H 	0.05740 0.42020 0.92300 0.07000
C 	C 	0.06390 0.57690 0.98910 -0.04800
H 	H 	0.11100 0.63200 0.98700 0.06700
C 	C 	0.96080 0.43850 0.97610 -0.08700
N 	N 	0.90050 0.36100 0.95210 -0.09800
O 	O 	0.88200 0.29480 0.96090 -0.09200
O 	O 	0.88380 0.38000 0.92580 -0.04700
H 	H 	0.92000 0.38170 0.97090 0.18200
O 	O 	0.81467 0.77693 0.16406 -0.39700
O 	O 	0.77367 0.69583 0.21123 -0.39500
C 	C 	0.78557 0.75823 0.19423 0.36100
C 	C 	0.76337 0.81713 0.21104 -0.07200
C 	C 	0.73327 0.80183 0.24503 -0.00200
H 	H 	0.72407 0.75353 0.25633 0.07000
C 	C 	0.73057 0.91023 0.32243 -0.04700
H 	H 	0.77767 0.96533 0.32033 0.06700
C 	C 	0.62747 0.77183 0.30943 -0.08800
N 	N 	0.56717 0.69433 0.28543 -0.09800
O 	O 	0.54867 0.62813 0.29423 -0.09200
O 	O 	0.55047 0.71333 0.25913 -0.04700
H 	H 	0.58667 0.71503 0.30423 0.18200
O 	O 	0.48133 0.11027 0.49740 -0.39700
O 	O 	0.44033 0.02917 0.54457 -0.39500
C 	C 	0.45223 0.09157 0.52757 0.36100
C 	C 	0.43003 0.15047 0.54438 -0.07200
C 	C 	0.39993 0.13517 0.57837 -0.00200
H 	H 	0.39073 0.08687 0.58967 0.07000
C 	C 	0.39723 0.24357 0.65577 -0.04700
H 	H 	0.44433 0.29867 0.65367 0.06700
C 	C 	0.29413 0.10517 0.64277 -0.08800
N 	N 	0.23383 0.02767 0.61877 -0.09800
O 	O 	0.21533 0.96147 0.62757 -0.09200
O 	O 	0.21713 0.04667 0.59247 -0.04700
H 	H 	0.25333 0.04837 0.63757 0.18200
O 	O 	0.29560 0.85200 0.83073 -0.39700
O 	O 	0.25550 0.89300 0.87790 -0.39500
C 	C 	0.30600 0.88110 0.86090 0.36100
C 	C 	0.38710 0.90330 0.87771 -0.07200
C 	C 	0.40190 0.93340 0.91170 -0.00200
H 	H 	0.36280 0.94260 0.92300 0.07000
C 	C 	0.51300 0.93610 0.98910 -0.04800
H 	H 	0.52100 0.88900 0.98700 0.06700
C 	C 	0.47770 0.03920 0.97610 -0.08700
N 	N 	0.46050 0.09950 0.95210 -0.09800
O 	O 	0.41280 0.11800 0.96090 -0.09200
O 	O 	0.49620 0.11620 0.92580 -0.04700
H 	H 	0.46170 0.08000 0.97090 0.18200
O 	O 	0.96227 0.18533 0.16406 -0.39700
O 	O 	0.92217 0.22633 0.21123 -0.39500
C 	C 	0.97267 0.21443 0.19423 0.36100
C 	C 	0.05377 0.23663 0.21104 -0.07100
C 	C 	0.06857 0.26673 0.24503 -0.00300
H 	H 	0.02947 0.27593 0.25633 0.07000
C 	C 	0.17967 0.26943 0.32243 -0.04700
H 	H 	0.18767 0.22233 0.32033 0.06700
C 	C 	0.14437 0.37253 0.30943 -0.08800
N 	N 	0.12717 0.43283 0.28543 -0.09800
O 	O 	0.07947 0.45133 0.29423 -0.09200
O 	O 	0.16287 0.44953 0.25913 -0.04700
H 	H 	0.12837 0.41333 0.30423 0.18200
O 	O 	0.62893 0.51867 0.49740 -0.39700
O 	O 	0.58883 0.55967 0.54457 -0.39500
C 	C 	0.63933 0.54777 0.52757 0.36100
C 	C 	0.72043 0.56997 0.54438 -0.07200
C 	C 	0.73523 0.60007 0.57837 -0.00200
H 	H 	0.69613 0.60927 0.58967 0.07000
C 	C 	0.84633 0.60277 0.65577 -0.04700
H 	H 	0.85433 0.55567 0.65367 0.06700
C 	C 	0.81103 0.70587 0.64277 -0.08800
N 	N 	0.79383 0.76617 0.61877 -0.09800
O 	O 	0.74613 0.78467 0.62757 -0.09200
O 	O 	0.82953 0.78287 0.59247 -0.04700
H 	H 	0.79503 0.74667 0.63757 0.18200
O 	O 	0.55640 0.70440 0.83073 -0.39700
O 	O 	0.63750 0.74450 0.87790 -0.39500
C 	C 	0.57510 0.69400 0.86090 0.36100
C 	C 	0.51620 0.61290 0.87771 -0.07200
C 	C 	0.53150 0.59810 0.91170 -0.00200
H 	H 	0.57980 0.63720 0.92300 0.07000
C 	C 	0.42310 0.48700 0.98910 -0.04700
H 	H 	0.36800 0.47900 0.98700 0.06700
C 	C 	0.56150 0.52230 0.97610 -0.08800
N 	N 	0.63900 0.53950 0.95210 -0.09800
O 	O 	0.70520 0.58720 0.96090 -0.09200
O 	O 	0.62000 0.50380 0.92580 -0.04700
H 	H 	0.61830 0.53830 0.97090 0.18200
O 	O 	0.22307 0.03773 0.16406 -0.39700
O 	O 	0.30417 0.07783 0.21123 -0.39500
C 	C 	0.24177 0.02733 0.19423 0.36100
C 	C 	0.18287 0.94623 0.21104 -0.07100
C 	C 	0.19817 0.93143 0.24503 -0.00300
H 	H 	0.24647 0.97053 0.25633 0.07000
C 	C 	0.08977 0.82033 0.32243 -0.04700
H 	H 	0.03467 0.81233 0.32033 0.06700
C 	C 	0.22817 0.85563 0.30943 -0.08800
N 	N 	0.30567 0.87283 0.28543 -0.09800
O 	O 	0.37187 0.92053 0.29423 -0.09200
O 	O 	0.28667 0.83713 0.25913 -0.04700
H 	H 	0.28497 0.87163 0.30423 0.18200
O 	O 	0.88973 0.37107 0.49740 -0.39700
O 	O 	0.97083 0.41117 0.54457 -0.39500
C 	C 	0.90843 0.36067 0.52757 0.36100
C 	C 	0.84953 0.27957 0.54438 -0.07200
C 	C 	0.86483 0.26477 0.57837 -0.00200
H 	H 	0.91313 0.30387 0.58967 0.07000
C 	C 	0.75643 0.15367 0.65577 -0.04700
H 	H 	0.70133 0.14567 0.65367 0.06700
C 	C 	0.89483 0.18897 0.64277 -0.08800
N 	N 	0.97233 0.20617 0.61877 -0.09800
O 	O 	0.03853 0.25387 0.62757 -0.09200
O 	O 	0.95333 0.17047 0.59247 -0.04700
H 	H 	0.95163 0.20497 0.63757 0.18200
O 	O 	0.55640 0.85200 0.83073 -0.39700
O 	O 	0.63750 0.89300 0.87790 -0.39500
C 	C 	0.57510 0.88110 0.86090 0.36100
C 	C 	0.51620 0.90330 0.87771 -0.07200
C 	C 	0.53150 0.93340 0.91170 -0.00200
H 	H 	0.57980 0.94260 0.92300 0.07000
C 	C 	0.42310 0.93610 0.98910 -0.04800
H 	H 	0.36800 0.88900 0.98700 0.06700
C 	C 	0.56150 0.03920 0.97610 -0.08700
N 	N 	0.63900 0.09950 0.95210 -0.09800
O 	O 	0.70520 0.11800 0.96090 -0.09200
O 	O 	0.62000 0.11620 0.92580 -0.04700
H 	H 	0.61830 0.08000 0.97090 0.18200
O 	O 	0.22307 0.18533 0.16406 -0.39700
O 	O 	0.30417 0.22633 0.21123 -0.39500
C 	C 	0.24177 0.21443 0.19423 0.36100
C 	C 	0.18287 0.23663 0.21104 -0.07200
C 	C 	0.19817 0.26673 0.24503 -0.00200
H 	H 	0.24647 0.27593 0.25633 0.07000
C 	C 	0.08977 0.26943 0.32243 -0.04700
H 	H 	0.03467 0.22233 0.32033 0.06700
C 	C 	0.22817 0.37253 0.30943 -0.08800
N 	N 	0.30567 0.43283 0.28543 -0.09800
O 	O 	0.37187 0.45133 0.29423 -0.09200
O 	O 	0.28667 0.44953 0.25913 -0.04700
H 	H 	0.28497 0.41333 0.30423 0.18200
O 	O 	0.88973 0.51867 0.49740 -0.39700
O 	O 	0.97083 0.55967 0.54457 -0.39500
C 	C 	0.90843 0.54777 0.52757 0.36100
C 	C 	0.84953 0.56997 0.54438 -0.07200
C 	C 	0.86483 0.60007 0.57837 -0.00200
H 	H 	0.91313 0.60927 0.58967 0.07000
C 	C 	0.75643 0.60277 0.65577 -0.04700
H 	H 	0.70133 0.55567 0.65367 0.06700
C 	C 	0.89483 0.70587 0.64277 -0.08800
N 	N 	0.97233 0.76617 0.61877 -0.09800
O 	O 	0.03853 0.78467 0.62757 -0.09200
O 	O 	0.95333 0.78287 0.59247 -0.04700
H 	H 	0.95163 0.74667 0.63757 0.18200
O 	O 	0.14800 0.70440 0.83073 -0.39700
O 	O 	0.10700 0.74450 0.87790 -0.39500
C 	C 	0.11890 0.69400 0.86090 0.36100
C 	C 	0.09670 0.61290 0.87771 -0.07200
C 	C 	0.06660 0.59810 0.91170 -0.00200
H 	H 	0.05740 0.63720 0.92300 0.07000
C 	C 	0.06390 0.48700 0.98910 -0.04800
H 	H 	0.11100 0.47900 0.98700 0.06700
C 	C 	0.96080 0.52230 0.97610 -0.08700
N 	N 	0.90050 0.53950 0.95210 -0.09800
O 	O 	0.88200 0.58720 0.96090 -0.09200
O 	O 	0.88380 0.50380 0.92580 -0.04700
H 	H 	0.92000 0.53830 0.97090 0.18200
O 	O 	0.81467 0.03773 0.16406 -0.39700
O 	O 	0.77367 0.07783 0.21123 -0.39500
C 	C 	0.78557 0.02733 0.19423 0.36100
C 	C 	0.76337 0.94623 0.21104 -0.07100
C 	C 	0.73327 0.93143 0.24503 -0.00300
H 	H 	0.72407 0.97053 0.25633 0.07000
C 	C 	0.73057 0.82033 0.32243 -0.04700
H 	H 	0.77767 0.81233 0.32033 0.06700
C 	C 	0.62747 0.85563 0.30943 -0.08800
N 	N 	0.56717 0.87283 0.28543 -0.09800
O 	O 	0.54867 0.92053 0.29423 -0.09200
O 	O 	0.55047 0.83713 0.25913 -0.04700
H 	H 	0.58667 0.87163 0.30423 0.18200
O 	O 	0.48133 0.37107 0.49740 -0.39700
O 	O 	0.44033 0.41117 0.54457 -0.39500
C 	C 	0.45223 0.36067 0.52757 0.36100
C 	C 	0.43003 0.27957 0.54438 -0.07200
C 	C 	0.39993 0.26477 0.57837 -0.00200
H 	H 	0.39073 0.30387 0.58967 0.07000
C 	C 	0.39723 0.15367 0.65577 -0.04700
H 	H 	0.44433 0.14567 0.65367 0.06700
C 	C 	0.29413 0.18897 0.64277 -0.08800
N 	N 	0.23383 0.20617 0.61877 -0.09800
O 	O 	0.21533 0.25387 0.62757 -0.09200
O 	O 	0.21713 0.17047 0.59247 -0.04700
H 	H 	0.25333 0.20497 0.63757 0.18200
O 	O 	0.29560 0.44360 0.83073 -0.39700
O 	O 	0.25550 0.36250 0.87790 -0.39500
C 	C 	0.30600 0.42490 0.86090 0.36100
C 	C 	0.38710 0.48380 0.87771 -0.07200
C 	C 	0.40190 0.46850 0.91170 -0.00200
H 	H 	0.36280 0.42020 0.92300 0.07000
C 	C 	0.51300 0.57690 0.98910 -0.04700
H 	H 	0.52100 0.63200 0.98700 0.06700
C 	C 	0.47770 0.43850 0.97610 -0.08800
N 	N 	0.46050 0.36100 0.95210 -0.09800
O 	O 	0.41280 0.29480 0.96090 -0.09200
O 	O 	0.49620 0.38000 0.92580 -0.04700
H 	H 	0.46170 0.38170 0.97090 0.18200
O 	O 	0.96227 0.77693 0.16406 -0.39700
O 	O 	0.92217 0.69583 0.21123 -0.39500
C 	C 	0.97267 0.75823 0.19423 0.36100
C 	C 	0.05377 0.81713 0.21104 -0.07100
C 	C 	0.06857 0.80183 0.24503 -0.00300
H 	H 	0.02947 0.75353 0.25633 0.07000
C 	C 	0.17967 0.91023 0.32243 -0.04700
H 	H 	0.18767 0.96533 0.32033 0.06700
C 	C 	0.14437 0.77183 0.30943 -0.08800
N 	N 	0.12717 0.69433 0.28543 -0.09800
O 	O 	0.07947 0.62813 0.29423 -0.09200
O 	O 	0.16287 0.71333 0.25913 -0.04700
H 	H 	0.12837 0.71503 0.30423 0.18200
O 	O 	0.62893 0.11027 0.49740 -0.39700
O 	O 	0.58883 0.02917 0.54457 -0.39500
C 	C 	0.63933 0.09157 0.52757 0.36100
C 	C 	0.72043 0.15047 0.54438 -0.07200
C 	C 	0.73523 0.13517 0.57837 -0.00200
H 	H 	0.69613 0.08687 0.58967 0.07000
C 	C 	0.84633 0.24357 0.65577 -0.04700
H 	H 	0.85433 0.29867 0.65367 0.06700
C 	C 	0.81103 0.10517 0.64277 -0.08800
N 	N 	0.79383 0.02767 0.61877 -0.09800
O 	O 	0.74613 0.96147 0.62757 -0.09200
O 	O 	0.82953 0.04667 0.59247 -0.04700
H 	H 	0.79503 0.04837 0.63757 0.18200
O 	O 	0.85200 0.55640 0.16927 -0.39700
O 	O 	0.89300 0.63750 0.12210 -0.39500
C 	C 	0.88110 0.57510 0.13910 0.36100
C 	C 	0.90330 0.51620 0.12229 -0.07200
C 	C 	0.93340 0.53150 0.08830 -0.00200
H 	H 	0.94260 0.57980 0.07700 0.07000
C 	C 	0.93610 0.42310 0.01090 -0.04800
H 	H 	0.88900 0.36800 0.01300 0.06700
C 	C 	0.03920 0.56150 0.02390 -0.08700
N 	N 	0.09950 0.63900 0.04790 -0.09800
O 	O 	0.11800 0.70520 0.03910 -0.09200
O 	O 	0.11620 0.62000 0.07420 -0.04700
H 	H 	0.08000 0.61830 0.02910 0.18200
O 	O 	0.51867 0.88973 0.50260 -0.39700
O 	O 	0.55967 0.97083 0.45543 -0.39500
C 	C 	0.54777 0.90843 0.47243 0.36100
C 	C 	0.56997 0.84953 0.45562 -0.07200
C 	C 	0.60007 0.86483 0.42163 -0.00200
H 	H 	0.60927 0.91313 0.41033 0.07000
C 	C 	0.60277 0.75643 0.34423 -0.04700
H 	H 	0.55567 0.70133 0.34633 0.06700
C 	C 	0.70587 0.89483 0.35723 -0.08800
N 	N 	0.76617 0.97233 0.38123 -0.09800
O 	O 	0.78467 0.03853 0.37243 -0.09200
O 	O 	0.78287 0.95333 0.40753 -0.04700
H 	H 	0.74667 0.95163 0.36243 0.18200
O 	O 	0.18533 0.22307 0.83594 -0.39700
O 	O 	0.22633 0.30417 0.78877 -0.39500
C 	C 	0.21443 0.24177 0.80577 0.36100
C 	C 	0.23663 0.18287 0.78896 -0.07200
C 	C 	0.26673 0.19817 0.75497 -0.00200
H 	H 	0.27593 0.24647 0.74367 0.07000
C 	C 	0.26943 0.08977 0.67757 -0.04700
H 	H 	0.22233 0.03467 0.67967 0.06700
C 	C 	0.37253 0.22817 0.69057 -0.08800
N 	N 	0.43283 0.30567 0.71457 -0.09800
O 	O 	0.45133 0.37187 0.70577 -0.09200
O 	O 	0.44953 0.28667 0.74087 -0.04700
H 	H 	0.41333 0.28497 0.69577 0.18200
O 	O 	0.70440 0.14800 0.16927 -0.39700
O 	O 	0.74450 0.10700 0.12210 -0.39500
C 	C 	0.69400 0.11890 0.13910 0.36100
C 	C 	0.61290 0.09670 0.12229 -0.07200
C 	C 	0.59810 0.06660 0.08830 -0.00200
H 	H 	0.63720 0.05740 0.07700 0.07000
C 	C 	0.48700 0.06390 0.01090 -0.04800
H 	H 	0.47900 0.11100 0.01300 0.06700
C 	C 	0.52230 0.96080 0.02390 -0.08700
N 	N 	0.53950 0.90050 0.04790 -0.09800
O 	O 	0.58720 0.88200 0.03910 -0.09200
O 	O 	0.50380 0.88380 0.07420 -0.04700
H 	H 	0.53830 0.92000 0.02910 0.18200
O 	O 	0.37107 0.48133 0.50260 -0.39700
O 	O 	0.41117 0.44033 0.45543 -0.39500
C 	C 	0.36067 0.45223 0.47243 0.36100
C 	C 	0.27957 0.43003 0.45562 -0.07200
C 	C 	0.26477 0.39993 0.42163 -0.00200
H 	H 	0.30387 0.39073 0.41033 0.07000
C 	C 	0.15367 0.39723 0.34423 -0.04700
H 	H 	0.14567 0.44433 0.34633 0.06700
C 	C 	0.18897 0.29413 0.35723 -0.08800
N 	N 	0.20617 0.23383 0.38123 -0.09800
O 	O 	0.25387 0.21533 0.37243 -0.09200
O 	O 	0.17047 0.21713 0.40753 -0.04700
H 	H 	0.20497 0.25333 0.36243 0.18200
O 	O 	0.03773 0.81467 0.83594 -0.39700
O 	O 	0.07783 0.77367 0.78877 -0.39500
C 	C 	0.02733 0.78557 0.80577 0.36100
C 	C 	0.94623 0.76337 0.78896 -0.07100
C 	C 	0.93143 0.73327 0.75497 -0.00300
H 	H 	0.97053 0.72407 0.74367 0.07000
C 	C 	0.82033 0.73057 0.67757 -0.04700
H 	H 	0.81233 0.77767 0.67967 0.06700
C 	C 	0.85563 0.62747 0.69057 -0.08800
N 	N 	0.87283 0.56717 0.71457 -0.09800
O 	O 	0.92053 0.54867 0.70577 -0.09200
O 	O 	0.83713 0.55047 0.74087 -0.04700
H 	H 	0.87163 0.58667 0.69577 0.18200
O 	O 	0.44360 0.29560 0.16927 -0.39700
O 	O 	0.36250 0.25550 0.12210 -0.39500
C 	C 	0.42490 0.30600 0.13910 0.36100
C 	C 	0.48380 0.38710 0.12229 -0.07200
C 	C 	0.46850 0.40190 0.08830 -0.00200
H 	H 	0.42020 0.36280 0.07700 0.07000
C 	C 	0.57690 0.51300 0.01090 -0.04700
H 	H 	0.63200 0.52100 0.01300 0.06700
C 	C 	0.43850 0.47770 0.02390 -0.08800
N 	N 	0.36100 0.46050 0.04790 -0.09800
O 	O 	0.29480 0.41280 0.03910 -0.09200
O 	O 	0.38000 0.49620 0.07420 -0.04700
H 	H 	0.38170 0.46170 0.02910 0.18200
O 	O 	0.11027 0.62893 0.50260 -0.39700
O 	O 	0.02917 0.58883 0.45543 -0.39500
C 	C 	0.09157 0.63933 0.47243 0.36100
C 	C 	0.15047 0.72043 0.45562 -0.07200
C 	C 	0.13517 0.73523 0.42163 -0.00200
H 	H 	0.08687 0.69613 0.41033 0.07000
C 	C 	0.24357 0.84633 0.34423 -0.04700
H 	H 	0.29867 0.85433 0.34633 0.06700
C 	C 	0.10517 0.81103 0.35723 -0.08800
N 	N 	0.02767 0.79383 0.38123 -0.09800
O 	O 	0.96147 0.74613 0.37243 -0.09200
O 	O 	0.04667 0.82953 0.40753 -0.04700
H 	H 	0.04837 0.79503 0.36243 0.18200
O 	O 	0.77693 0.96227 0.83594 -0.39700
O 	O 	0.69583 0.92217 0.78877 -0.39500
C 	C 	0.75823 0.97267 0.80577 0.36100
C 	C 	0.81713 0.05377 0.78896 -0.07100
C 	C 	0.80183 0.06857 0.75497 -0.00300
H 	H 	0.75353 0.02947 0.74367 0.07000
C 	C 	0.91023 0.17967 0.67757 -0.04700
H 	H 	0.96533 0.18767 0.67967 0.06700
C 	C 	0.77183 0.14437 0.69057 -0.08800
N 	N 	0.69433 0.12717 0.71457 -0.09800
O 	O 	0.62813 0.07947 0.70577 -0.09200
O 	O 	0.71333 0.16287 0.74087 -0.04700
H 	H 	0.71503 0.12837 0.69577 0.18200
Cu	Cu	0.38169 0.19084 0.19456 0.91100
Cu	Cu	0.04836 0.52418 0.52790 0.91000
Cu	Cu	0.71502 0.85751 0.86123 0.91100
Cu	Cu	0.80916 0.19084 0.19456 0.91100
Cu	Cu	0.47582 0.52418 0.52790 0.91100
Cu	Cu	0.14249 0.85751 0.86123 0.91100
Cu	Cu	0.80916 0.61831 0.19456 0.91100
Cu	Cu	0.47582 0.95164 0.52790 0.91000
Cu	Cu	0.14249 0.28498 0.86123 0.91100
Cu	Cu	0.19084 0.38169 0.80544 0.91100
Cu	Cu	0.85751 0.71502 0.13877 0.91100
Cu	Cu	0.52418 0.04836 0.47210 0.91000
Cu	Cu	0.19084 0.80915 0.80544 0.91100
Cu	Cu	0.85751 0.14249 0.13877 0.91100
Cu	Cu	0.52418 0.47582 0.47210 0.91100
Cu	Cu	0.61831 0.80915 0.80544 0.91100
Cu	Cu	0.28498 0.14249 0.13877 0.91100
Cu	Cu	0.95164 0.47582 0.47210 0.91000
C 	C 	0.55585 0.11170 0.13890 0.03100
H 	H 	0.56600 0.13200 0.16140 0.06200
C 	C 	0.52535 0.05070 0.07170 -0.00800
C 	C 	0.51050 0.02100 0.03510 0.11900
C 	C 	0.22252 0.44503 0.47223 0.03100
H 	H 	0.23267 0.46533 0.49473 0.06200
C 	C 	0.19202 0.38403 0.40503 -0.00800
C 	C 	0.17717 0.35433 0.36843 0.12000
C 	C 	0.88918 0.77837 0.80557 0.03000
H 	H 	0.89933 0.79867 0.82807 0.06200
C 	C 	0.85868 0.71737 0.73837 -0.00800
C 	C 	0.84383 0.68767 0.70177 0.12000
C 	C 	0.88830 0.44415 0.13890 0.03100
H 	H 	0.86800 0.43400 0.16140 0.06200
C 	C 	0.94930 0.47465 0.07170 -0.00800
C 	C 	0.97900 0.48950 0.03510 0.11900
C 	C 	0.55497 0.77748 0.47223 0.03100
H 	H 	0.53467 0.76733 0.49473 0.06200
C 	C 	0.61597 0.80798 0.40503 -0.00800
C 	C 	0.64567 0.82283 0.36843 0.12000
C 	C 	0.22163 0.11082 0.80557 0.03000
H 	H 	0.20133 0.10067 0.82807 0.06200
C 	C 	0.28263 0.14132 0.73837 -0.00800
C 	C 	0.31233 0.15617 0.70177 0.12000
C 	C 	0.55585 0.44415 0.13890 0.03100
H 	H 	0.56600 0.43400 0.16140 0.06200
C 	C 	0.52535 0.47465 0.07170 -0.00800
C 	C 	0.51050 0.48950 0.03510 0.12000
C 	C 	0.22252 0.77748 0.47223 0.03100
H 	H 	0.23267 0.76733 0.49473 0.06200
C 	C 	0.19202 0.80798 0.40503 -0.00800
C 	C 	0.17717 0.82283 0.36843 0.12000
C 	C 	0.88918 0.11082 0.80557 0.03000
H 	H 	0.89933 0.10067 0.82807 0.06200
C 	C 	0.85868 0.14132 0.73837 -0.00800
C 	C 	0.84383 0.15617 0.70177 0.12000
C 	C 	0.11170 0.55585 0.86110 0.03100
H 	H 	0.13200 0.56600 0.83860 0.06200
C 	C 	0.05070 0.52535 0.92830 -0.00800
C 	C 	0.02100 0.51050 0.96490 0.11900
C 	C 	0.77837 0.88918 0.19443 0.03000
H 	H 	0.79867 0.89933 0.17193 0.06200
C 	C 	0.71737 0.85868 0.26163 -0.00800
C 	C 	0.68767 0.84383 0.29823 0.12000
C 	C 	0.44503 0.22252 0.52777 0.03100
H 	H 	0.46533 0.23267 0.50527 0.06200
C 	C 	0.38403 0.19202 0.59497 -0.00800
C 	C 	0.35433 0.17717 0.63157 0.12000
C 	C 	0.44415 0.88830 0.86110 0.03100
H 	H 	0.43400 0.86800 0.83860 0.06200
C 	C 	0.47465 0.94930 0.92830 -0.00800
C 	C 	0.48950 0.97900 0.96490 0.11900
C 	C 	0.11082 0.22163 0.19443 0.03000
H 	H 	0.10067 0.20133 0.17193 0.06200
C 	C 	0.14132 0.28263 0.26163 -0.00800
C 	C 	0.15617 0.31233 0.29823 0.12000
C 	C 	0.77748 0.55497 0.52777 0.03100
H 	H 	0.76733 0.53467 0.50527 0.06200
C 	C 	0.80798 0.61597 0.59497 -0.00800
C 	C 	0.82283 0.64567 0.63157 0.12000
C 	C 	0.44415 0.55585 0.86110 0.03100
H 	H 	0.43400 0.56600 0.83860 0.06200
C 	C 	0.47465 0.52535 0.92830 -0.00800
C 	C 	0.48950 0.51050 0.96490 0.12000
C 	C 	0.11082 0.88918 0.19443 0.03000
H 	H 	0.10067 0.89933 0.17193 0.06200
C 	C 	0.14132 0.85868 0.26163 -0.00800
C 	C 	0.15617 0.84383 0.29823 0.12000
C 	C 	0.77748 0.22252 0.52777 0.03100
H 	H 	0.76733 0.23267 0.50527 0.06200
C 	C 	0.80798 0.19202 0.59497 -0.00800
C 	C 	0.82283 0.17717 0.63157 0.12000
