data_crystal

_cell_length_a 13.60900
_cell_length_b 13.61700
_cell_length_c 27.18100
_cell_angle_alpha 90.00000
_cell_angle_beta  90.00000
_cell_angle_gamma 92.46300

_symmetry_space_group_name_	'P 1'
_symmetry_space_group_name_H-M	'P 1'

loop_
_symmetry_equiv_pos_as_xyz
  x,y,z

loop_
_atom_site_label
_atom_site_type_symbol
_atom_site_fract_x
_atom_site_fract_y
_atom_site_fract_z
_atom_site_charge
Zn	Zn	0.33016 0.32216 0.69426 1.18800
Zn	Zn	0.74973 0.20614 0.70187 1.18300
Zn	Zn	0.66984 0.67784 0.30574 1.18800
Zn	Zn	0.14524 0.27493 0.79630 1.18400
Zn	Zn	0.16984 0.17784 0.19426 1.18700
Zn	Zn	0.78036 0.10975 0.30386 1.18400
Zn	Zn	0.75027 0.29386 0.20187 1.18200
Zn	Zn	0.24973 0.70614 0.79813 1.18200
Zn	Zn	0.35476 0.22507 0.29630 1.18300
Zn	Zn	0.83016 0.82216 0.80574 1.18700
Zn	Zn	0.64524 0.77493 0.70370 1.18300
Zn	Zn	0.85476 0.72507 0.20370 1.18300
Zn	Zn	0.71964 0.39025 0.80386 1.18400
Zn	Zn	0.21964 0.89025 0.69614 1.18400
Zn	Zn	0.25027 0.79386 0.29813 1.18200
Zn	Zn	0.28036 0.60975 0.19614 1.18400
H 	H 	0.67270 0.90220 0.33210 -0.01200
H 	H 	0.71460 0.14720 0.07810 0.05700
H 	H 	0.04830 0.30000 0.97240 0.05900
H 	H 	0.27400 0.99940 0.53010 0.05300
H 	H 	0.28350 0.97660 0.44500 0.05400
H 	H 	0.49450 0.40210 0.77970 -0.04800
H 	H 	0.62030 0.54820 0.73560 -0.06200
H 	H 	0.98510 0.66390 0.58000 0.04400
H 	H 	0.30440 0.80710 0.09220 0.06300
H 	H 	0.48510 0.16390 0.92000 0.04400
H 	H 	0.51190 0.12850 0.00310 0.03500
H 	H 	0.16670 0.53610 0.55860 0.03300
H 	H 	0.17620 0.51330 0.47340 0.04400
H 	H 	0.47350 0.78980 0.32780 -0.01000
H 	H 	0.33470 0.22430 0.89490 0.05300
H 	H 	0.66530 0.77570 0.10510 0.05300
H 	H 	0.80440 0.30710 0.40780 0.06300
H 	H 	0.67620 0.01330 0.02660 0.04400
H 	H 	0.61170 0.84650 0.93900 0.09300
H 	H 	0.55060 0.11150 0.33090 -0.00800
H 	H 	0.05060 0.61150 0.16910 -0.00800
H 	H 	0.83290 0.05450 0.78440 -0.05000
H 	H 	0.48810 0.87150 0.99690 0.03500
H 	H 	0.02920 0.80910 0.27590 -0.04000
H 	H 	0.97350 0.28980 0.17220 -0.01000
H 	H 	0.87970 0.95180 0.23560 -0.06200
H 	H 	0.78350 0.47660 0.05500 0.05400
H 	H 	0.32730 0.09780 0.66790 -0.01200
H 	H 	0.45170 0.20000 0.47240 0.05900
H 	H 	0.83470 0.72430 0.60510 0.05300
H 	H 	0.38830 0.15350 0.06100 0.09300
H 	H 	0.42490 0.23550 0.55550 0.04900
H 	H 	0.99450 0.90210 0.72030 -0.04600
H 	H 	0.00550 0.09790 0.27970 -0.04600
H 	H 	0.98810 0.37150 0.50310 0.03500
H 	H 	0.72600 0.00060 0.46990 0.05300
H 	H 	0.66710 0.44550 0.28440 -0.05000
H 	H 	0.92490 0.73550 0.94450 0.04900
H 	H 	0.21460 0.64720 0.42190 0.05800
H 	H 	0.37970 0.45180 0.26440 -0.06200
H 	H 	0.52650 0.21020 0.67220 -0.01000
H 	H 	0.47080 0.69090 0.77590 -0.03900
H 	H 	0.66670 0.03610 0.94140 0.03300
H 	H 	0.01490 0.33610 0.42000 0.04400
H 	H 	0.11170 0.34650 0.56100 0.09300
H 	H 	0.57510 0.76450 0.44450 0.04900
H 	H 	0.64450 0.99720 0.67710 0.00000
H 	H 	0.07510 0.26450 0.05550 0.04900
H 	H 	0.16530 0.27570 0.39490 0.05300
H 	H 	0.16710 0.94550 0.21560 -0.05000
H 	H 	0.01190 0.62850 0.49690 0.03500
H 	H 	0.17270 0.40220 0.16790 -0.01200
H 	H 	0.97080 0.19090 0.72410 -0.04000
H 	H 	0.19560 0.69290 0.59220 0.06300
H 	H 	0.88830 0.65350 0.43900 0.09300
H 	H 	0.44940 0.88850 0.66910 -0.00800
H 	H 	0.69560 0.19290 0.90780 0.06300
H 	H 	0.50550 0.59790 0.22030 -0.04800
H 	H 	0.12030 0.04820 0.76440 -0.06200
H 	H 	0.77400 0.49940 0.96990 0.05300
H 	H 	0.33290 0.55450 0.71560 -0.05000
H 	H 	0.94940 0.38850 0.83090 -0.00800
H 	H 	0.51490 0.83610 0.08000 0.04400
H 	H 	0.71650 0.02340 0.55500 0.05400
H 	H 	0.83330 0.46390 0.44140 0.03300
H 	H 	0.32380 0.98670 0.97340 0.04400
H 	H 	0.95170 0.70000 0.02760 0.05900
H 	H 	0.82380 0.48670 0.52660 0.04400
H 	H 	0.35550 0.00280 0.32290 0.00000
H 	H 	0.54830 0.80000 0.52760 0.05900
H 	H 	0.14450 0.49720 0.82290 0.00000
H 	H 	0.78540 0.35280 0.57810 0.05800
H 	H 	0.28540 0.85280 0.92190 0.05700
H 	H 	0.21650 0.52340 0.94500 0.05400
H 	H 	0.82730 0.59780 0.83210 -0.01200
H 	H 	0.85550 0.50280 0.17710 0.00000
H 	H 	0.52920 0.30910 0.22410 -0.03900
H 	H 	0.33330 0.96390 0.05860 0.03300
H 	H 	0.22600 0.50060 0.03010 0.05300
H 	H 	0.02650 0.71020 0.82780 -0.01000
C 	C 	0.84560 0.70990 0.57140 -0.05400
C 	C 	0.23980 0.87970 0.60220 0.31300
C 	C 	0.47620 0.64080 0.24310 0.09900
C 	C 	0.22790 0.74960 0.47650 0.04000
C 	C 	0.82990 0.92050 0.25530 0.13000
C 	C 	0.74930 0.17090 0.55410 -0.08200
C 	C 	0.37470 0.24560 0.53190 0.00600
C 	C 	0.05480 0.76220 0.25390 0.07400
C 	C 	0.52380 0.35920 0.75690 0.09900
C 	C 	0.21070 0.65650 0.45650 -0.06900
C 	C 	0.31720 0.23940 0.44820 -0.06300
C 	C 	0.76120 0.32280 0.10950 0.32800
C 	C 	0.44520 0.73780 0.75390 0.07500
C 	C 	0.83600 0.71900 0.10770 0.31100
C 	C 	0.06470 0.65410 0.19610 0.09500
C 	C 	0.18800 0.48960 0.79600 0.05800
C 	C 	0.69950 0.18360 0.94230 -0.08200
C 	C 	0.20800 0.19100 0.10280 0.44800
C 	C 	0.76790 0.42220 0.03410 -0.01400
C 	C 	0.22230 0.76310 0.52710 0.04400
C 	C 	0.12530 0.25440 0.03190 0.00600
C 	C 	0.18280 0.26060 0.94820 -0.06300
C 	C 	0.93490 0.67410 0.55650 -0.04800
C 	C 	0.43530 0.84590 0.69610 0.09500
C 	C 	0.22780 0.27520 0.46310 0.01300
C 	C 	0.28530 0.28150 0.54680 -0.12800
C 	C 	0.76020 0.12030 0.39780 0.31300
C 	C 	0.66400 0.78100 0.60770 0.31100
C 	C 	0.30050 0.81640 0.05770 -0.08200
C 	C 	0.87470 0.74560 0.96810 0.00600
C 	C 	0.27210 0.75040 0.97650 0.04000
C 	C 	0.21470 0.21850 0.04680 -0.12700
C 	C 	0.53950 0.25520 0.69830 0.07700
C 	C 	0.77770 0.23690 0.47290 0.04400
C 	C 	0.87740 0.66790 0.47270 -0.11000
C 	C 	0.12260 0.33210 0.52730 -0.11000
C 	C 	0.73980 0.37970 0.89780 0.31300
C 	C 	0.75070 0.32910 0.05410 -0.08200
C 	C 	0.26050 0.64370 0.04710 -0.07900
C 	C 	0.26230 0.93580 0.51650 -0.01500
C 	C 	0.27980 0.10750 0.69280 0.07400
C 	C 	0.55480 0.26220 0.24610 0.07500
C 	C 	0.72790 0.24960 0.02350 0.04000
C 	C 	0.25070 0.82910 0.44590 -0.08200
C 	C 	0.26020 0.62030 0.10220 0.31300
C 	C 	0.23950 0.85630 0.54710 -0.07900
C 	C 	0.23770 0.56420 0.01650 -0.01500
C 	C 	0.67010 0.57950 0.75530 0.13000
C 	C 	0.93530 0.34590 0.80390 0.09500
C 	C 	0.21190 0.29630 0.51240 0.08000
C 	C 	0.89060 0.72460 0.01740 -0.03500
C 	C 	0.71190 0.79630 0.98760 0.07900
C 	C 	0.23210 0.57780 0.96590 -0.01400
C 	C 	0.78530 0.78150 0.95320 -0.12700
C 	C 	0.31770 0.90950 0.03770 -0.02300
C 	C 	0.81720 0.73940 0.05180 -0.06300
C 	C 	0.29200 0.30900 0.60280 0.44900
C 	C 	0.16400 0.28100 0.89230 0.31100
C 	C 	0.78810 0.70370 0.48760 0.08000
C 	C 	0.10940 0.27540 0.98260 -0.03500
C 	C 	0.27220 0.22480 0.96310 0.01300
C 	C 	0.23880 0.67720 0.89050 0.32800
C 	C 	0.76230 0.43580 0.98350 -0.01500
C 	C 	0.71470 0.71850 0.45320 -0.12800
C 	C 	0.20940 0.97970 0.23820 0.09100
C 	C 	0.70800 0.69100 0.39720 0.44900
C 	C 	0.79060 0.02030 0.76180 0.09100
C 	C 	0.17010 0.07950 0.74470 0.13000
C 	C 	0.68280 0.76060 0.55180 -0.06300
C 	C 	0.46050 0.74480 0.30170 0.07700
C 	C 	0.18790 0.57690 0.48710 -0.03600
C 	C 	0.43490 0.17410 0.94350 -0.04800
C 	C 	0.73770 0.06420 0.48350 -0.01500
C 	C 	0.54910 0.84700 0.00710 -0.00200
C 	C 	0.26120 0.82280 0.39050 0.32800
C 	C 	0.81210 0.42310 0.51290 -0.03600
C 	C 	0.76050 0.14370 0.45290 -0.07900
C 	C 	0.28810 0.20370 0.01240 0.07900
C 	C 	0.79200 0.80900 0.89720 0.44800
C 	C 	0.22020 0.39250 0.19280 0.07400
C 	C 	0.31200 0.01040 0.29600 0.05800
C 	C 	0.28930 0.84350 0.95650 -0.06800
C 	C 	0.73880 0.17720 0.60950 0.32800
C 	C 	0.71070 0.15650 0.04350 -0.06800
C 	C 	0.33600 0.21900 0.39230 0.31100
C 	C 	0.37740 0.16790 0.02730 -0.11000
C 	C 	0.06510 0.32590 0.44350 -0.04800
C 	C 	0.62530 0.75440 0.46810 0.00600
C 	C 	0.68800 0.98960 0.70400 0.05800
C 	C 	0.80050 0.31640 0.44230 -0.08100
C 	C 	0.02380 0.85920 0.74310 0.09500
C 	C 	0.73950 0.35630 0.95290 -0.07900
C 	C 	0.65440 0.79010 0.07140 -0.05500
C 	C 	0.56470 0.15410 0.30390 0.09500
C 	C 	0.03950 0.75520 0.80170 0.07600
C 	C 	0.77210 0.25040 0.52350 0.04000
C 	C 	0.45090 0.15300 0.99290 -0.00200
C 	C 	0.39060 0.22460 0.48260 -0.03500
C 	C 	0.77220 0.72480 0.53690 0.01300
C 	C 	0.78930 0.34350 0.54350 -0.06900
C 	C 	0.31210 0.92310 0.98710 -0.03700
C 	C 	0.18230 0.59050 0.53770 -0.02500
C 	C 	0.27770 0.73690 0.02710 0.04400
C 	C 	0.04910 0.34700 0.49290 -0.00200
C 	C 	0.81200 0.51040 0.20400 0.05800
C 	C 	0.96050 0.24480 0.19830 0.07600
C 	C 	0.81770 0.40950 0.46230 -0.02500
C 	C 	0.94520 0.23780 0.74610 0.07400
C 	C 	0.32990 0.42050 0.24470 0.13000
C 	C 	0.15440 0.29010 0.42860 -0.05400
C 	C 	0.97620 0.14080 0.25690 0.09500
C 	C 	0.72780 0.77520 0.03690 0.01300
C 	C 	0.95090 0.65300 0.50710 -0.00200
C 	C 	0.56510 0.82590 0.05650 -0.04800
C 	C 	0.26790 0.92220 0.46590 -0.01400
C 	C 	0.62260 0.83210 0.97270 -0.11000
C 	C 	0.68230 0.09050 0.96230 -0.02300
C 	C 	0.77980 0.60750 0.80720 0.07400
C 	C 	0.19950 0.68360 0.55770 -0.08100
C 	C 	0.68790 0.07690 0.01290 -0.03700
C 	C 	0.72020 0.89250 0.30720 0.07400
C 	C 	0.34560 0.20990 0.92860 -0.05500
C 	C 	0.73210 0.07780 0.53410 -0.01400
C 	C 	0.70940 0.47970 0.26180 0.09100
C 	C 	0.24930 0.67090 0.94590 -0.08200
C 	C 	0.29060 0.52030 0.73820 0.09100
C 	C 	0.72230 0.26310 0.97290 0.04400
C 	C 	0.60940 0.77540 0.51740 -0.03500
N 	N 	0.34670 0.83360 0.71610 -0.26400
N 	N 	0.12550 0.77070 0.77960 -0.26000
N 	N 	0.85430 0.26050 0.74720 -0.26700
N 	N 	0.28230 0.46580 0.21200 -0.29600
N 	N 	0.00320 0.29180 0.78200 -0.28700
N 	N 	0.19550 0.17200 0.74870 -0.26000
N 	N 	0.49680 0.20820 0.28200 -0.28800
N 	N 	0.71770 0.53420 0.78800 -0.29600
N 	N 	0.64570 0.23950 0.24720 -0.26700
N 	N 	0.22710 0.07900 0.23770 -0.26900
N 	N 	0.75770 0.43710 0.22660 -0.27400
N 	N 	0.99680 0.70820 0.21800 -0.28700
N 	N 	0.78230 0.96580 0.28800 -0.29500
N 	N 	0.24230 0.56290 0.77340 -0.27400
N 	N 	0.79320 0.59580 0.22670 -0.24900
N 	N 	0.23590 0.30540 0.21430 -0.25600
N 	N 	0.73590 0.80540 0.28570 -0.25600
N 	N 	0.74230 0.06290 0.72660 -0.27400
N 	N 	0.87450 0.22930 0.22040 -0.26000
N 	N 	0.61570 0.33730 0.75860 -0.27200
N 	N 	0.38430 0.66270 0.24140 -0.27200
N 	N 	0.77290 0.92100 0.76230 -0.26900
N 	N 	0.26410 0.19460 0.71430 -0.25600
N 	N 	0.50320 0.79180 0.71800 -0.28800
N 	N 	0.69550 0.67200 0.75130 -0.26000
N 	N 	0.20680 0.40420 0.77330 -0.24900
N 	N 	0.30450 0.32800 0.24870 -0.26000
N 	N 	0.70680 0.90420 0.72670 -0.24900
N 	N 	0.62550 0.27070 0.72040 -0.26000
N 	N 	0.21770 0.03420 0.71200 -0.29500
N 	N 	0.76410 0.69460 0.78570 -0.25600
N 	N 	0.14570 0.73950 0.25280 -0.26700
N 	N 	0.72710 0.57900 0.26230 -0.26900
N 	N 	0.97310 0.81400 0.78100 -0.27400
N 	N 	0.84670 0.33360 0.78390 -0.26300
N 	N 	0.02690 0.18600 0.21900 -0.27400
N 	N 	0.52690 0.68600 0.28100 -0.27500
N 	N 	0.80450 0.82800 0.25130 -0.26000
N 	N 	0.29320 0.09580 0.27330 -0.24900
N 	N 	0.11570 0.83730 0.74140 -0.27200
N 	N 	0.27290 0.42100 0.73770 -0.26900
N 	N 	0.35430 0.76050 0.75280 -0.26700
N 	N 	0.25770 0.93710 0.27340 -0.27400
N 	N 	0.15330 0.66640 0.21610 -0.26300
N 	N 	0.88430 0.16270 0.25860 -0.27200
N 	N 	0.65330 0.16640 0.28390 -0.26400
N 	N 	0.47310 0.31400 0.71900 -0.27500
N 	N 	0.37450 0.72930 0.27960 -0.26000
O 	O 	0.88940 0.63830 0.11480 -0.29900
O 	O 	0.19500 0.30900 0.61810 -0.34300
O 	O 	0.80740 0.44010 0.88200 -0.33700
O 	O 	0.17770 0.84090 0.62970 -0.46600
O 	O 	0.19340 0.78260 0.36520 -0.46600
O 	O 	0.80660 0.21740 0.63480 -0.46600
O 	O 	0.38940 0.13830 0.38520 -0.29900
O 	O 	0.33820 0.85590 0.37300 -0.35800
O 	O 	0.68550 0.72790 0.64010 -0.50100
O 	O 	0.30500 0.19100 0.11810 -0.34300
O 	O 	0.67770 0.34090 0.87030 -0.46600
O 	O 	0.69500 0.80900 0.88190 -0.34300
O 	O 	0.69340 0.28260 0.13480 -0.46500
O 	O 	0.11060 0.36170 0.88520 -0.29900
O 	O 	0.81450 0.77210 0.14010 -0.50100
O 	O 	0.32230 0.65910 0.12970 -0.46600
O 	O 	0.83820 0.35590 0.12700 -0.35800
O 	O 	0.19260 0.55990 0.11800 -0.33700
O 	O 	0.31450 0.27210 0.35990 -0.50100
O 	O 	0.64490 0.68420 0.37490 -0.58700
O 	O 	0.69260 0.05990 0.38200 -0.33700
O 	O 	0.18550 0.22790 0.85990 -0.50100
O 	O 	0.16180 0.64410 0.87300 -0.35800
O 	O 	0.80500 0.69100 0.38190 -0.34300
O 	O 	0.61060 0.86170 0.61480 -0.29900
O 	O 	0.14490 0.18420 0.12510 -0.58700
O 	O 	0.30660 0.71740 0.86520 -0.46500
O 	O 	0.30740 0.94010 0.61800 -0.33700
O 	O 	0.66180 0.14410 0.62700 -0.35800
O 	O 	0.85510 0.81580 0.87490 -0.58700
O 	O 	0.82230 0.15910 0.37030 -0.46600
O 	O 	0.35510 0.31580 0.62510 -0.58700
