data_crystal

_cell_length_a 16.08280
_cell_length_b 16.08280
_cell_length_c 18.74600
_cell_angle_alpha 115.40200
_cell_angle_beta  115.40200
_cell_angle_gamma 90.00030

_symmetry_space_group_name_	'P 1'
_symmetry_space_group_name_H-M	'P 1'

loop_
_symmetry_equiv_pos_as_xyz
  x,y,z

loop_
_atom_site_label
_atom_site_type_symbol
_atom_site_fract_x
_atom_site_fract_y
_atom_site_fract_z
_atom_site_charge
Zn	Zn	0.48558 0.29187 0.44278 1.24100
Zn	Zn	0.95720 0.15091 0.44278 1.25000
Zn	Zn	0.05098 0.53926 0.91928 1.21800
Zn	Zn	0.19902 0.36998 0.58072 1.23000
Zn	Zn	0.46074 0.13170 0.08072 1.23200
Zn	Zn	0.86830 0.38002 0.91928 1.23300
Zn	Zn	0.29280 0.45813 0.05722 1.24200
Zn	Zn	0.38170 0.21074 0.58072 1.23100
Zn	Zn	0.45202 0.37500 0.25000 1.22900
Zn	Zn	0.61998 0.94902 0.08072 1.21800
Zn	Zn	0.79798 0.87500 0.25000 1.22700
Zn	Zn	0.12500 0.54798 0.75000 1.22600
Zn	Zn	0.54187 0.23558 0.94278 1.24200
Zn	Zn	0.70813 0.04280 0.55722 1.25000
Zn	Zn	0.76442 0.59909 0.05722 1.24200
Zn	Zn	0.63002 0.61830 0.41928 1.23100
Zn	Zn	0.62500 0.20202 0.75000 1.22900
Zn	Zn	0.40091 0.70720 0.94278 1.24200
Zn	Zn	0.78926 0.80098 0.41928 1.23000
Zn	Zn	0.84909 0.51442 0.55722 1.24400
P 	P 	0.83889 0.63876 0.45892 0.54300
P 	P 	0.88876 0.58889 0.95892 0.54500
P 	P 	0.82957 0.04303 0.22714 0.56700
P 	P 	0.62997 0.11124 0.04108 0.54400
P 	P 	0.42412 0.30239 0.05248 0.54900
P 	P 	0.17984 0.16111 0.54108 0.54400
P 	P 	0.95697 0.60243 0.77286 0.56700
P 	P 	0.62164 0.44761 0.44752 0.54900
P 	P 	0.81589 0.17043 0.77286 0.54400
P 	P 	0.62836 0.75009 0.05248 0.54900
P 	P 	0.55239 0.17412 0.55248 0.54900
P 	P 	0.41111 0.92984 0.04108 0.50700
P 	P 	0.69761 0.37164 0.94752 0.54900
P 	P 	0.29303 0.57957 0.72714 0.53900
P 	P 	0.07016 0.37003 0.95892 0.50600
P 	P 	0.82588 0.99991 0.44752 0.49400
P 	P 	0.62003 0.82016 0.45892 0.54400
P 	P 	0.42043 0.56589 0.27286 0.53900
P 	P 	0.85243 0.70697 0.27286 0.53900
P 	P 	0.43411 0.14757 0.72714 0.53800
P 	P 	0.36124 0.37997 0.54108 0.54300
P 	P 	0.39757 0.18411 0.22714 0.54400
P 	P 	0.00009 0.37836 0.55248 0.49300
P 	P 	0.24991 0.57588 0.94752 0.54900
H 	H 	0.76670 0.11780 0.11000 0.19400
H 	H 	0.24220 0.09330 0.61000 0.19400
H 	H 	0.88220 0.65670 0.89000 0.19100
H 	H 	0.90670 0.63220 0.39000 0.19000
H 	H 	0.34330 0.99220 0.11000 0.14300
H 	H 	0.44450 0.70130 0.36020 0.16300
H 	H 	0.34110 0.55550 0.63980 0.16700
H 	H 	0.00780 0.23330 0.89000 0.14500
H 	H 	0.95130 0.19450 0.86020 0.20500
H 	H 	0.36780 0.51670 0.61000 0.18800
H 	H 	0.33430 0.04870 0.13980 0.20600
H 	H 	0.91570 0.65890 0.36020 0.16600
H 	H 	0.80550 0.09110 0.13980 0.16300
H 	H 	0.90890 0.66570 0.86020 0.16400
H 	H 	0.29870 0.08430 0.63980 0.16200
H 	H 	0.48330 0.75780 0.39000 0.19100
O 	O 	0.04675 0.63795 0.77590 -0.47000
O 	O 	0.61808 0.55258 0.48056 -0.44200
O 	O 	0.59392 0.08802 0.52304 -0.41400
O 	O 	0.76635 0.94575 0.34370 -0.47300
O 	O 	0.68600 0.47280 0.98700 -0.42400
O 	O 	0.99605 0.60645 0.99550 -0.41300
O 	O 	0.61095 0.00395 0.00450 -0.41100
O 	O 	0.86955 0.62225 0.03870 -0.42200
O 	O 	0.80258 0.36808 0.98056 -0.43600
O 	O 	0.31037 0.59527 0.65874 -0.35300
O 	O 	0.81621 0.62201 0.18042 -0.41200
O 	O 	0.43379 0.19159 0.31958 -0.41100
O 	O 	0.06270 0.26330 0.91020 -0.34600
O 	O 	0.86205 0.95325 0.22410 -0.46100
O 	O 	0.76420 0.05100 0.48700 -0.39100
O 	O 	0.19575 0.51635 0.84370 -0.47100
O 	O 	0.47669 0.16959 0.20098 -0.45000
O 	O 	0.17798 0.61248 0.98056 -0.45400
O 	O 	0.36421 0.55841 0.18042 -0.41800
O 	O 	0.38752 0.19742 0.01944 -0.43900
O 	O 	0.40762 0.34152 0.60764 -0.45800
O 	O 	0.73388 0.59238 0.39236 -0.45800
O 	O 	0.52085 0.11205 0.72410 -0.42800
O 	O 	0.84527 0.06037 0.15874 -0.32900
O 	O 	0.39355 0.00055 0.00450 -0.39900
O 	O 	0.65608 0.31498 0.97696 -0.42200
O 	O 	0.41959 0.22669 0.70098 -0.45500
O 	O 	0.35310 0.93730 0.08980 -0.35100
O 	O 	0.05425 0.42265 0.65630 -0.47300
O 	O 	0.93963 0.68653 0.84126 -0.34200
O 	O 	0.80841 0.11421 0.68042 -0.40100
O 	O 	0.38045 0.33355 0.46130 -0.42300
O 	O 	0.90163 0.15473 0.84126 -0.34800
O 	O 	0.30100 0.51420 0.98700 -0.42700
O 	O 	0.64795 0.32735 0.84370 -0.46600
O 	O 	0.32088 0.66198 0.97696 -0.42800
O 	O 	0.25055 0.14355 0.50450 -0.42900
O 	O 	0.25395 0.36095 0.50450 -0.43500
O 	O 	0.20002 0.26612 0.60764 -0.46200
O 	O 	0.20325 0.61205 0.72410 -0.44300
O 	O 	0.91198 0.07088 0.47696 -0.38300
O 	O 	0.34837 0.06347 0.65874 -0.33800
O 	O 	0.84238 0.48388 0.89236 -0.45500
O 	O 	0.56498 0.40608 0.47696 -0.42500
O 	O 	0.72280 0.43600 0.48700 -0.42400
O 	O 	0.58355 0.13045 0.96130 -0.41800
O 	O 	0.56400 0.23580 0.51300 -0.42300
O 	O 	0.37775 0.83085 0.96130 -0.42600
O 	O 	0.51330 0.81270 0.41020 -0.37500
O 	O 	0.08085 0.12775 0.46130 -0.43500
O 	O 	0.52720 0.69900 0.01300 -0.42700
O 	O 	0.51612 0.95002 0.10764 -0.47200
O 	O 	0.18730 0.10310 0.58980 -0.36700
O 	O 	0.38795 0.47915 0.27590 -0.43700
O 	O 	0.92912 0.43502 0.52304 -0.39300
O 	O 	0.93653 0.68963 0.34126 -0.34000
O 	O 	0.83041 0.27571 0.79902 -0.44900
O 	O 	0.63192 0.82202 0.01944 -0.45100
O 	O 	0.88579 0.12799 0.31958 -0.40400
O 	O 	0.73670 0.15250 0.08980 -0.35800
O 	O 	0.52571 0.58041 0.29902 -0.45500
O 	O 	0.40473 0.65163 0.34126 -0.35100
O 	O 	0.63905 0.74945 0.49550 -0.43400
O 	O 	0.84750 0.64690 0.91020 -0.36300
O 	O 	0.77331 0.71861 0.29902 -0.45500
O 	O 	0.44742 0.13752 0.51944 -0.43600
O 	O 	0.65848 0.79998 0.39236 -0.46300
O 	O 	0.67265 0.80425 0.15630 -0.47100
O 	O 	0.85645 0.74605 0.49550 -0.43000
O 	O 	0.99945 0.38905 0.99550 -0.39700
O 	O 	0.40250 0.48670 0.58980 -0.36400
O 	O 	0.72915 0.13795 0.77590 -0.42700
O 	O 	0.36205 0.27085 0.22410 -0.43600
O 	O 	0.88795 0.79675 0.27590 -0.43300
O 	O 	0.57735 0.39795 0.34370 -0.46600
O 	O 	0.96861 0.52331 0.79902 -0.43900
O 	O 	0.04998 0.40848 0.89236 -0.47100
O 	O 	0.89690 0.59750 0.41020 -0.35600
O 	O 	0.72429 0.03139 0.20098 -0.43900
O 	O 	0.37799 0.63579 0.81958 -0.41700
O 	O 	0.33802 0.34392 0.02304 -0.42500
O 	O 	0.66645 0.91915 0.53870 -0.44100
O 	O 	0.31347 0.09837 0.15874 -0.36000
O 	O 	0.28139 0.47429 0.70098 -0.45600
O 	O 	0.16915 0.41645 0.03870 -0.42300
O 	O 	0.48365 0.35205 0.15630 -0.46600
O 	O 	0.87201 0.56621 0.68042 -0.41300
O 	O 	0.60205 0.23365 0.65630 -0.46500
O 	O 	0.44159 0.18379 0.81958 -0.41300
O 	O 	0.86248 0.92798 0.48056 -0.44000
O 	O 	0.94900 0.27720 0.51300 -0.39100
O 	O 	0.48580 0.31400 0.01300 -0.42500
O 	O 	0.59152 0.15762 0.10764 -0.45400
O 	O 	0.68502 0.67912 0.02304 -0.42600
O 	O 	0.07202 0.38192 0.51944 -0.44700
O 	O 	0.87225 0.61955 0.53870 -0.41700
