data_crystal

_cell_length_a 6.88900
_cell_length_b 11.10930
_cell_length_c 11.10930
_cell_angle_alpha 119.60400
_cell_angle_beta  106.34600
_cell_angle_gamma 73.65400

_symmetry_space_group_name_	'P 1'
_symmetry_space_group_name_H-M	'P 1'

loop_
_symmetry_equiv_pos_as_xyz
  x,y,z

loop_
_atom_site_label
_atom_site_type_symbol
_atom_site_fract_x
_atom_site_fract_y
_atom_site_fract_z
_atom_site_charge
Fe	Fe	-0.00000 0.00000 -0.00000 1.12400
Fe	Fe	0.50000 0.00000 -0.00000 1.14800
H 	H 	0.21860 0.59910 0.95830 0.18300
H 	H 	0.65620 0.60880 0.01700 0.15300
H 	H 	0.15620 0.98300 0.39120 -0.03800
H 	H 	0.71860 0.04170 0.40090 -0.04700
H 	H 	0.78140 0.40090 0.04170 -0.07300
H 	H 	0.34380 0.39120 0.98300 -0.04900
H 	H 	0.84380 0.01700 0.60880 0.14400
H 	H 	0.28140 0.95830 0.59910 0.15800
C 	C 	0.79950 0.56350 0.00990 -0.43400
C 	C 	0.20050 0.43650 0.99010 0.42700
C 	C 	0.92700 0.62120 0.98560 0.33900
C 	C 	0.65130 0.97020 0.75120 0.25100
C 	C 	0.29950 0.99010 0.43650 0.38300
C 	C 	0.70050 0.00990 0.56350 -0.39200
C 	C 	0.07300 0.37880 0.01440 -0.50800
C 	C 	0.15130 0.24880 0.02980 0.49200
C 	C 	0.84870 0.75120 0.97020 0.23000
C 	C 	0.12750 0.55770 0.97570 -0.38600
C 	C 	0.57300 0.98560 0.62120 0.27200
C 	C 	0.37250 0.97570 0.55770 -0.29100
C 	C 	0.34870 0.02980 0.24880 0.46900
C 	C 	0.62750 0.02430 0.44230 0.27500
C 	C 	0.42700 0.01440 0.37880 -0.43300
C 	C 	0.87250 0.44230 0.02430 0.37500
O 	O 	0.96720 0.80520 0.94860 -0.27200
O 	O 	0.83750 0.97860 0.80960 -0.25800
O 	O 	0.16250 0.02140 0.19040 -0.49400
O 	O 	0.25000 0.90920 0.90920 -0.31000
O 	O 	0.66250 0.80960 0.97860 -0.27300
O 	O 	0.53280 0.94860 0.80520 -0.30000
O 	O 	0.46720 0.05140 0.19480 -0.46100
O 	O 	0.75000 0.09080 0.09080 -0.43300
O 	O 	0.03280 0.19480 0.05140 -0.48700
O 	O 	0.33750 0.19040 0.02140 -0.48400
