data_crystal

_cell_length_a 10.81730
_cell_length_b 13.58200
_cell_length_c 14.70370
_cell_angle_alpha 110.62800
_cell_angle_beta  90.00000
_cell_angle_gamma 90.00000

_symmetry_space_group_name_	'P 1'
_symmetry_space_group_name_H-M	'P 1'

loop_
_symmetry_equiv_pos_as_xyz
  x,y,z

loop_
_atom_site_label
_atom_site_type_symbol
_atom_site_fract_x
_atom_site_fract_y
_atom_site_fract_z
_atom_site_charge
Co	Co	0.09747 0.59060 0.53886 1.15700
Co	Co	0.98954 0.49590 0.70764 1.17200
Co	Co	0.90253 0.40940 0.46114 1.15700
Co	Co	0.51046 0.49590 0.20764 1.17300
Co	Co	0.48954 0.50410 0.79236 1.17300
Co	Co	0.59747 0.40940 0.96114 1.15700
Co	Co	0.40253 0.59060 0.03886 1.15700
Co	Co	0.01046 0.50410 0.29236 1.17200
H 	H 	0.66730 0.14970 0.78990 0.07200
H 	H 	0.06810 0.00110 0.71040 0.06300
H 	H 	0.95680 0.86010 0.34350 0.04000
H 	H 	0.37000 0.13890 0.85830 0.06700
H 	H 	0.13000 0.13890 0.35830 0.06700
H 	H 	0.56810 0.99890 0.78960 0.06300
H 	H 	0.87000 0.86110 0.64170 0.06700
H 	H 	0.64160 0.08850 0.99250 0.03400
H 	H 	0.68220 0.94960 0.04400 0.07500
H 	H 	0.83270 0.14970 0.28990 0.07200
H 	H 	0.16730 0.85030 0.71010 0.07200
H 	H 	0.31780 0.05040 0.95600 0.07500
H 	H 	0.04320 0.13990 0.65650 0.04000
H 	H 	0.81780 0.94960 0.54400 0.07500
H 	H 	0.45680 0.13990 0.15650 0.04000
H 	H 	0.35840 0.91150 0.00750 0.03400
H 	H 	0.63000 0.86110 0.14170 0.06700
H 	H 	0.33270 0.85030 0.21010 0.07200
H 	H 	0.43190 0.00110 0.21040 0.06300
H 	H 	0.54320 0.86010 0.84350 0.04000
H 	H 	0.93190 0.99890 0.28960 0.06300
H 	H 	0.14160 0.91150 0.50750 0.03600
H 	H 	0.18220 0.05040 0.45600 0.07500
H 	H 	0.85840 0.08850 0.49250 0.03600
C 	C 	0.20310 0.98240 0.41638 -0.09800
C 	C 	0.80420 0.86131 0.68250 -0.04800
C 	C 	0.16830 0.31475 0.68780 0.33800
C 	C 	0.75880 0.03451 0.17373 0.04100
C 	C 	0.22240 0.05413 0.79055 0.02300
C 	C 	0.89070 0.85985 0.30300 -0.00000
C 	C 	0.19190 0.22447 0.72409 -0.04600
C 	C 	0.38262 0.31118 0.81930 0.35200
C 	C 	0.61738 0.68882 0.18070 0.35200
C 	C 	0.70630 0.13720 0.73044 -0.06700
C 	C 	0.17860 0.89893 0.44736 0.02200
C 	C 	0.77760 0.94587 0.20945 0.02300
C 	C 	0.70970 0.77689 0.21488 -0.03700
C 	C 	0.66830 0.68525 0.81220 0.33900
C 	C 	0.24120 0.96549 0.82627 0.04100
C 	C 	0.66666 0.29640 0.08670 0.37000
C 	C 	0.27064 0.77948 0.30129 -0.01600
C 	C 	0.20913 0.79687 0.38917 -0.07500
C 	C 	0.83334 0.29640 0.58670 0.36800
C 	C 	0.31688 0.67148 0.24070 0.34400
C 	C 	0.32140 0.89893 0.94736 0.02600
C 	C 	0.82140 0.10107 0.55264 0.02200
C 	C 	0.72240 0.94587 0.70945 0.02400
C 	C 	0.69580 0.86131 0.18250 -0.04800
C 	C 	0.29370 0.86280 0.26956 -0.06700
C 	C 	0.88262 0.68882 0.68070 0.35200
C 	C 	0.27760 0.05413 0.29055 0.02400
C 	C 	0.29030 0.22311 0.78512 -0.03700
C 	C 	0.81688 0.32852 0.25930 0.34400
C 	C 	0.33170 0.31475 0.18780 0.33900
C 	C 	0.39070 0.14015 0.19700 0.00000
C 	C 	0.67860 0.10107 0.05264 0.02600
C 	C 	0.37570 0.05643 0.22957 -0.07300
C 	C 	0.30810 0.22447 0.22409 -0.04700
C 	C 	0.62430 0.94357 0.77043 -0.07300
C 	C 	0.29087 0.79687 0.88917 -0.07700
C 	C 	0.11738 0.31118 0.31930 0.35200
C 	C 	0.18312 0.67148 0.74070 0.34400
C 	C 	0.79690 0.01760 0.58362 -0.09800
C 	C 	0.79087 0.20313 0.61083 -0.07500
C 	C 	0.20970 0.22311 0.28512 -0.03700
C 	C 	0.30420 0.13869 0.81750 -0.04800
C 	C 	0.10930 0.14015 0.69700 -0.00000
C 	C 	0.19580 0.13869 0.31750 -0.04800
C 	C 	0.12430 0.05643 0.72957 -0.07200
C 	C 	0.87570 0.94357 0.27043 -0.07200
C 	C 	0.83170 0.68525 0.31220 0.33800
C 	C 	0.79370 0.13720 0.23044 -0.06800
C 	C 	0.20630 0.86280 0.76956 -0.06800
C 	C 	0.74120 0.03451 0.67373 0.04000
C 	C 	0.16666 0.70360 0.41330 0.36800
C 	C 	0.70913 0.20313 0.11083 -0.07700
C 	C 	0.68312 0.32852 0.75930 0.34400
C 	C 	0.22936 0.77948 0.80129 -0.01500
C 	C 	0.79030 0.77689 0.71488 -0.03700
C 	C 	0.60930 0.85985 0.80300 0.00000
C 	C 	0.70310 0.01760 0.08362 -0.09800
C 	C 	0.69190 0.77553 0.77591 -0.04700
C 	C 	0.80810 0.77553 0.27591 -0.04600
C 	C 	0.29690 0.98240 0.91638 -0.09800
C 	C 	0.25880 0.96549 0.32627 0.04000
C 	C 	0.77064 0.22052 0.19871 -0.01500
C 	C 	0.33334 0.70360 0.91330 0.37000
C 	C 	0.72936 0.22052 0.69871 -0.01600
O 	O 	0.35292 0.62132 0.84202 -0.42600
O 	O 	0.03085 0.30171 0.37152 -0.41300
O 	O 	0.15314 0.71555 0.50137 -0.41200
O 	O 	0.77736 0.36646 0.34501 -0.40900
O 	O 	0.36373 0.38874 0.79233 -0.42300
O 	O 	0.95814 0.53889 0.43247 -0.58500
O 	O 	0.71600 0.68855 0.89051 -0.26000
O 	O 	0.89592 0.37028 0.22108 -0.39200
O 	O 	0.53085 0.69829 0.12848 -0.41300
O 	O 	0.60408 0.37028 0.72108 -0.39300
O 	O 	0.64708 0.37868 0.15798 -0.42600
O 	O 	0.10408 0.62972 0.77892 -0.39200
O 	O 	0.65314 0.28445 0.99863 -0.41400
O 	O 	0.90413 0.61544 0.26078 -0.39000
O 	O 	0.54186 0.53889 0.93247 -0.58500
O 	O 	0.45814 0.46111 0.06753 -0.58500
O 	O 	0.21600 0.31145 0.60949 -0.25900
O 	O 	0.13627 0.38874 0.29233 -0.42300
O 	O 	0.40413 0.38456 0.23922 -0.39100
O 	O 	0.04186 0.46111 0.56753 -0.58500
O 	O 	0.72264 0.36646 0.84501 -0.41000
O 	O 	0.14708 0.62132 0.34202 -0.42600
O 	O 	0.59587 0.61544 0.76078 -0.39100
O 	O 	0.46915 0.30171 0.87152 -0.41300
O 	O 	0.22264 0.63354 0.65499 -0.40900
O 	O 	0.34686 0.71555 0.00137 -0.41400
O 	O 	0.96915 0.69829 0.62848 -0.41300
O 	O 	0.78400 0.68855 0.39051 -0.25900
O 	O 	0.63627 0.61126 0.20767 -0.42300
O 	O 	0.27736 0.63354 0.15499 -0.41000
O 	O 	0.28400 0.31145 0.10949 -0.26000
O 	O 	0.86373 0.61126 0.70767 -0.42300
O 	O 	0.39592 0.62972 0.27892 -0.39300
O 	O 	0.84686 0.28445 0.49863 -0.41200
O 	O 	0.85292 0.37868 0.65798 -0.42600
O 	O 	0.09587 0.38456 0.73922 -0.39000
