data_crystal

_cell_length_a 11.64250
_cell_length_b 13.85690
_cell_length_c 15.57380
_cell_angle_alpha 90.00000
_cell_angle_beta  90.00000
_cell_angle_gamma 90.00000

_symmetry_space_group_name_	'P 1'
_symmetry_space_group_name_H-M	'P 1'

loop_
_symmetry_equiv_pos_as_xyz
  x,y,z

loop_
_atom_site_label
_atom_site_type_symbol
_atom_site_fract_x
_atom_site_fract_y
_atom_site_fract_z
_atom_site_charge
O 	O 	0.39260 0.07934 0.08222 -0.49400
C 	C 	0.16545 0.08675 0.29965 -0.06700
H 	H 	0.14007 0.15484 0.32760 0.04900
C 	C 	0.23574 0.08682 0.22595 0.02900
H 	H 	0.26245 0.15531 0.19953 0.03100
O 	O 	0.60740 0.92066 0.08222 -0.46300
C 	C 	0.83455 0.91325 0.29965 -0.03200
H 	H 	0.85993 0.84516 0.32760 0.04900
C 	C 	0.76426 0.91318 0.22595 0.06300
H 	H 	0.73755 0.84469 0.19953 0.02900
O 	O 	0.60740 0.07934 0.91778 -0.40800
C 	C 	0.83455 0.08675 0.70035 -0.05500
H 	H 	0.85993 0.15484 0.67240 0.05400
C 	C 	0.76426 0.08682 0.77405 0.02800
H 	H 	0.73755 0.15531 0.80047 0.05600
O 	O 	0.39260 0.92066 0.91778 -0.37600
C 	C 	0.16545 0.91325 0.70035 -0.02000
H 	H 	0.14007 0.84516 0.67240 0.05500
C 	C 	0.23574 0.91318 0.77405 0.06200
H 	H 	0.26245 0.84469 0.80047 0.05400
O 	O 	0.60740 0.92066 0.91778 -0.37600
C 	C 	0.83455 0.91325 0.70035 -0.02000
H 	H 	0.85993 0.84516 0.67240 0.05500
C 	C 	0.76426 0.91318 0.77405 0.06200
H 	H 	0.73755 0.84469 0.80047 0.05400
O 	O 	0.39260 0.07934 0.91778 -0.40800
C 	C 	0.16545 0.08675 0.70035 -0.05500
H 	H 	0.14007 0.15484 0.67240 0.05400
C 	C 	0.23574 0.08682 0.77405 0.02800
H 	H 	0.26245 0.15531 0.80047 0.05600
O 	O 	0.39260 0.92066 0.08222 -0.46300
C 	C 	0.16545 0.91325 0.29965 -0.03200
H 	H 	0.14007 0.84516 0.32760 0.04900
C 	C 	0.23574 0.91318 0.22595 0.06300
H 	H 	0.26245 0.84469 0.19953 0.02900
O 	O 	0.60740 0.07934 0.08222 -0.49500
C 	C 	0.83455 0.08675 0.29965 -0.06800
H 	H 	0.85993 0.15484 0.32760 0.04800
C 	C 	0.76426 0.08682 0.22595 0.02800
H 	H 	0.73755 0.15531 0.19953 0.03000
Zn	Zn	0.50000 0.11118 -0.00000 1.23900
N 	N 	0.50000 0.24480 -0.00000 -0.27200
C 	C 	0.50000 0.44568 -0.00000 0.01900
Zn	Zn	0.50000 0.88882 -0.00000 1.24200
N 	N 	0.50000 0.75520 -0.00000 -0.27200
C 	C 	0.50000 0.55432 -0.00000 0.01900
C 	C 	0.11963 -0.00000 0.50000 -0.05400
H 	H 	0.78739 -0.00000 0.50000 0.04300
C 	C 	0.88037 -0.00000 0.50000 -0.05400
H 	H 	0.21261 -0.00000 0.50000 0.04300
C 	C 	0.06111 0.00000 0.42009 -0.00500
C 	C 	0.12996 0.00000 0.33805 -0.00600
C 	C 	0.27330 0.00000 0.18797 -0.15300
C 	C 	0.35595 0.00000 0.11291 0.36700
C 	C 	0.93889 0.00000 0.42009 -0.00500
C 	C 	0.87004 0.00000 0.33805 -0.00600
C 	C 	0.72670 0.00000 0.18797 -0.15300
C 	C 	0.64405 0.00000 0.11291 0.36700
C 	C 	0.93889 -0.00000 0.57991 -0.00300
C 	C 	0.87004 0.00000 0.66195 -0.00800
C 	C 	0.72670 0.00000 0.81203 -0.12100
C 	C 	0.64405 0.00000 0.88709 0.35500
C 	C 	0.06111 -0.00000 0.57991 -0.00300
C 	C 	0.12996 0.00000 0.66195 -0.00800
C 	C 	0.27330 0.00000 0.81203 -0.12100
C 	C 	0.35595 0.00000 0.88709 0.35500
C 	C 	0.39855 0.29229 -0.00000 0.02900
H 	H 	0.31902 0.25206 -0.00000 -0.00800
C 	C 	0.39638 0.39249 -0.00000 -0.08000
H 	H 	0.31285 0.42543 -0.00000 0.03400
C 	C 	0.60145 0.70771 -0.00000 0.03000
H 	H 	0.68098 0.74794 -0.00000 -0.00500
C 	C 	0.60362 0.60751 -0.00000 -0.07900
H 	H 	0.68715 0.57457 -0.00000 0.03500
C 	C 	0.60145 0.29229 -0.00000 0.02900
H 	H 	0.68098 0.25206 -0.00000 -0.00800
C 	C 	0.60362 0.39249 -0.00000 -0.08000
H 	H 	0.68715 0.42543 -0.00000 0.03400
C 	C 	0.39855 0.70771 -0.00000 0.03000
H 	H 	0.31902 0.74794 -0.00000 -0.00500
C 	C 	0.39638 0.60751 -0.00000 -0.07900
H 	H 	0.31285 0.57457 -0.00000 0.03500
