data_crystal

_cell_length_a 11.65330
_cell_length_b 15.46480
_cell_length_c 15.46480
_cell_angle_alpha 90.00000
_cell_angle_beta  90.20500
_cell_angle_gamma 90.00000

_symmetry_space_group_name_	'P 1'
_symmetry_space_group_name_H-M	'P 1'

loop_
_symmetry_equiv_pos_as_xyz
  x,y,z

loop_
_atom_site_label
_atom_site_type_symbol
_atom_site_fract_x
_atom_site_fract_y
_atom_site_fract_z
_atom_site_charge
Zn	Zn	0.51089 0.50000 0.59645 1.27800
Zn	Zn	0.48911 0.50000 0.40355 1.27800
H 	H 	0.79774 0.33430 0.61692 0.03500
H 	H 	0.34224 0.50000 0.72380 0.01500
H 	H 	0.20163 0.13946 0.63782 0.04900
H 	H 	0.34947 0.50000 0.88210 0.06800
H 	H 	0.79037 0.00000 0.47276 0.04400
H 	H 	0.32433 0.73120 0.63841 0.03400
H 	H 	0.67567 0.26880 0.36159 0.03400
H 	H 	0.79837 0.13946 0.36218 0.04900
H 	H 	0.79774 0.66570 0.61692 0.03400
H 	H 	0.79837 0.86054 0.36218 0.04900
H 	H 	0.20226 0.66570 0.38308 0.03400
H 	H 	0.27961 0.50000 0.13057 0.06400
H 	H 	0.72039 0.50000 0.86943 0.06400
H 	H 	0.67567 0.73120 0.36159 0.03400
H 	H 	0.65053 0.50000 0.11790 0.06800
H 	H 	0.20163 0.86054 0.63782 0.04900
H 	H 	0.29508 0.50000 0.29041 0.01300
H 	H 	0.07801 0.20613 0.38370 0.05200
H 	H 	0.70492 0.50000 0.70959 0.01300
H 	H 	0.92199 0.20613 0.61630 0.05200
H 	H 	0.07801 0.79387 0.38370 0.05200
H 	H 	0.65776 0.50000 0.27620 0.01400
H 	H 	0.20226 0.33430 0.38308 0.03400
H 	H 	0.92199 0.79387 0.61630 0.05200
H 	H 	0.20963 0.00000 0.52724 0.04400
H 	H 	0.32433 0.26880 0.63841 0.03400
C 	C 	0.36294 0.50000 0.16180 -0.11000
C 	C 	0.12947 0.83741 0.51092 0.03600
C 	C 	0.72650 0.31249 0.48916 -0.12000
C 	C 	0.86959 0.78029 0.55994 -0.07200
C 	C 	0.57585 0.50000 0.24307 0.06000
C 	C 	0.79802 0.70690 0.56030 0.03400
C 	C 	0.79991 0.81781 0.41764 -0.07500
C 	C 	0.88239 0.00000 0.48324 -0.04400
C 	C 	0.37157 0.50000 0.25097 0.06500
C 	C 	0.72994 0.74343 0.41724 0.03300
C 	C 	0.93986 0.91962 0.49188 -0.00800
C 	C 	0.12947 0.16259 0.51092 0.03600
C 	C 	0.13041 0.78029 0.44006 -0.07200
C 	C 	0.20009 0.81781 0.58236 -0.07500
C 	C 	0.42415 0.50000 0.75693 0.06000
C 	C 	0.72994 0.25657 0.41724 0.03300
C 	C 	0.06014 0.08038 0.50812 -0.00800
C 	C 	0.11761 0.00000 0.51676 -0.04400
C 	C 	0.87053 0.83741 0.48908 0.03600
C 	C 	0.06014 0.91962 0.50812 -0.00800
C 	C 	0.20009 0.18219 0.58236 -0.07500
C 	C 	0.53646 0.50000 0.88644 0.12000
C 	C 	0.57126 0.50000 0.15421 -0.10400
C 	C 	0.86959 0.21971 0.55994 -0.07200
C 	C 	0.63706 0.50000 0.83820 -0.11000
C 	C 	0.42874 0.50000 0.84579 -0.10400
C 	C 	0.79991 0.18219 0.41764 -0.07500
C 	C 	0.13041 0.21971 0.44006 -0.07200
C 	C 	0.93986 0.08038 0.49188 -0.00800
C 	C 	0.20198 0.29310 0.43970 0.03400
C 	C 	0.27006 0.25657 0.58276 0.03300
C 	C 	0.87053 0.16259 0.48908 0.03600
C 	C 	0.64357 0.61312 0.49258 0.41400
C 	C 	0.27006 0.74343 0.58276 0.03300
C 	C 	0.20198 0.70690 0.43970 0.03400
C 	C 	0.72650 0.68751 0.48916 -0.12000
C 	C 	0.27350 0.31249 0.51084 -0.12000
C 	C 	0.27350 0.68751 0.51084 -0.12000
C 	C 	0.64357 0.38688 0.49258 0.41400
C 	C 	0.79802 0.29310 0.56030 0.03400
C 	C 	0.46354 0.50000 0.11356 0.12000
C 	C 	0.62843 0.50000 0.74903 0.06500
C 	C 	0.35643 0.61312 0.50742 0.41400
C 	C 	0.35643 0.38688 0.50742 0.41400
N 	N 	0.52307 0.50000 0.71147 -0.27100
N 	N 	0.45512 0.50000 0.02285 -0.09200
N 	N 	0.54488 0.50000 0.97715 -0.09200
N 	N 	0.47693 0.50000 0.28853 -0.27100
O 	O 	0.40178 0.41641 0.57619 -0.48000
O 	O 	0.61538 0.41847 0.56510 -0.48400
O 	O 	0.40178 0.58359 0.57619 -0.48000
O 	O 	0.59822 0.41641 0.42381 -0.48000
O 	O 	0.61538 0.58153 0.56510 -0.48400
O 	O 	0.38462 0.58153 0.43490 -0.48400
O 	O 	0.59822 0.58359 0.42381 -0.48000
O 	O 	0.38462 0.41847 0.43490 -0.48400
