data_crystal

_cell_length_a 12.57380
_cell_length_b 12.57380
_cell_length_c 14.33400
_cell_angle_alpha 90.00000
_cell_angle_beta  90.00000
_cell_angle_gamma 120.00000

_symmetry_space_group_name_	'P 1'
_symmetry_space_group_name_H-M	'P 1'

loop_
_symmetry_equiv_pos_as_xyz
  x,y,z

loop_
_atom_site_label
_atom_site_type_symbol
_atom_site_fract_x
_atom_site_fract_y
_atom_site_fract_z
_atom_site_charge
Mg	Mg	0.20610 0.48650 0.50000 1.47100
Mg	Mg	0.48650 0.28040 0.50000 1.47000
Mg	Mg	0.28040 0.79390 0.50000 1.47000
Mg	Mg	0.79390 0.51350 0.50000 1.47000
Mg	Mg	0.71960 0.20610 0.50000 1.47000
Mg	Mg	0.51350 0.71960 0.50000 1.47000
C 	C 	0.48990 0.88040 0.64710 0.42900
C 	C 	0.39350 0.48190 0.94850 0.01900
C 	C 	0.91160 0.39380 0.94860 0.03200
C 	C 	0.48940 0.88030 0.35300 0.42800
C 	C 	0.70800 0.53460 0.10200 -0.06500
C 	C 	0.51010 0.11960 0.35290 0.43200
C 	C 	0.50010 0.49990 0.10210 -0.05300
C 	C 	0.90770 0.39360 0.75000 -0.13700
C 	C 	0.60620 0.51780 0.94860 0.01800
C 	C 	0.91160 0.39350 0.05150 0.00600
C 	C 	0.48590 0.09220 0.25040 -0.14900
C 	C 	0.39090 0.51060 0.35300 0.42900
C 	C 	0.49990 0.99980 0.89790 -0.02400
C 	C 	0.99980 0.49990 0.10210 -0.02400
C 	C 	0.08840 0.60620 0.05140 -0.00100
C 	C 	0.88040 0.39050 0.35290 0.42900
C 	C 	0.70810 0.53330 0.80040 0.03600
C 	C 	0.60910 0.48940 0.64700 0.42900
C 	C 	0.17350 0.70800 0.10180 -0.05500
C 	C 	0.17440 0.70750 0.80050 0.03900
C 	C 	0.08840 0.60650 0.94850 0.02700
C 	C 	0.50020 0.00000 0.79740 0.08900
C 	C 	0.51060 0.11970 0.64700 0.42500
C 	C 	0.17480 0.70810 0.19960 0.02800
C 	C 	0.49980 0.49980 0.79740 0.11600
C 	C 	0.51780 0.91160 0.05140 0.03200
C 	C 	0.09230 0.60640 0.25000 -0.13500
C 	C 	0.00020 0.50010 0.89790 -0.06500
C 	C 	0.50010 0.00020 0.10210 -0.06500
C 	C 	0.60650 0.51810 0.05150 0.01900
C 	C 	0.39370 0.48590 0.74960 -0.14900
C 	C 	0.51410 0.90780 0.74960 -0.13000
C 	C 	0.60950 0.48990 0.35290 0.43300
C 	C 	0.00000 0.50020 0.79740 0.11000
C 	C 	0.82560 0.29250 0.19950 0.02800
C 	C 	0.50020 0.50020 0.20260 0.11600
C 	C 	0.46540 0.17340 0.10200 -0.07000
C 	C 	0.70750 0.53310 0.19950 0.03800
C 	C 	0.60630 0.51410 0.25040 -0.14800
C 	C 	0.39360 0.48590 0.25000 -0.14500
C 	C 	0.29200 0.46540 0.89800 -0.06600
C 	C 	0.53310 0.82560 0.80050 0.02900
C 	C 	0.48590 0.09230 0.75000 -0.13600
C 	C 	0.82660 0.29200 0.10200 -0.05600
C 	C 	0.29200 0.46550 0.10180 -0.06500
C 	C 	0.48220 0.08840 0.94860 -0.00100
C 	C 	0.09220 0.60630 0.74960 -0.14900
C 	C 	0.53330 0.82520 0.19960 0.03600
C 	C 	0.46670 0.17480 0.80040 0.02800
C 	C 	0.82520 0.29190 0.80040 0.03600
C 	C 	0.51410 0.90770 0.25000 -0.13600
C 	C 	0.53460 0.82660 0.89800 -0.05600
C 	C 	0.90780 0.39370 0.25040 -0.13000
C 	C 	0.53450 0.82650 0.10180 -0.06700
C 	C 	0.11960 0.60950 0.64710 0.43200
C 	C 	0.46690 0.17440 0.19950 0.03900
C 	C 	0.60640 0.51410 0.75000 -0.14400
C 	C 	0.82650 0.29200 0.89820 -0.06800
C 	C 	0.46550 0.17350 0.89820 -0.05600
C 	C 	0.49990 0.50010 0.89790 -0.05300
C 	C 	0.51810 0.91160 0.94850 0.00600
C 	C 	0.29250 0.46690 0.80050 0.03800
C 	C 	0.11970 0.60910 0.35300 0.42400
C 	C 	0.39380 0.48220 0.05140 0.01800
C 	C 	0.29190 0.46670 0.19960 0.03500
C 	C 	0.39050 0.51010 0.64710 0.43400
C 	C 	0.88030 0.39090 0.64700 0.42800
C 	C 	-0.00000 0.49980 0.20260 0.08900
C 	C 	0.49980 0.00000 0.20260 0.11000
C 	C 	0.70800 0.53450 0.89820 -0.06400
C 	C 	0.17340 0.70800 0.89800 -0.06900
C 	C 	0.48190 0.08840 0.05150 0.02600
O 	O 	0.48210 0.60440 0.38630 -0.49900
O 	O 	0.60410 0.12220 0.38620 -0.50100
O 	O 	0.87780 0.48190 0.38620 -0.49500
O 	O 	0.14560 0.70690 0.60350 -0.49800
O 	O 	0.14560 0.70700 0.39660 -0.49500
O 	O 	0.70700 0.56140 0.60340 -0.49400
O 	O 	0.70690 0.56130 0.39650 -0.49600
O 	O 	0.85440 0.29300 0.60340 -0.49400
O 	O 	0.56130 0.85440 0.60350 -0.49400
O 	O 	0.12220 0.51810 0.61380 -0.50100
O 	O 	0.43870 0.14560 0.39650 -0.50000
O 	O 	0.12230 0.51790 0.38630 -0.50100
O 	O 	0.33333 0.66666 0.50010 -0.76700
O 	O 	0.51790 0.39560 0.61370 -0.50000
O 	O 	0.56140 0.85440 0.39660 -0.49300
O 	O 	0.66667 0.33334 0.49990 -0.76700
O 	O 	0.60440 0.12230 0.61370 -0.50100
O 	O 	0.29310 0.43870 0.60350 -0.49900
O 	O 	0.51810 0.39590 0.38620 -0.49900
O 	O 	0.43860 0.14560 0.60340 -0.49700
O 	O 	0.39590 0.87780 0.61380 -0.49500
O 	O 	0.85440 0.29310 0.39650 -0.49600
O 	O 	0.29300 0.43860 0.39660 -0.49700
O 	O 	0.39560 0.87770 0.38630 -0.49700
O 	O 	0.87770 0.48210 0.61370 -0.49600
O 	O 	0.48190 0.60410 0.61380 -0.49900
H 	H 	0.79409 0.54977 0.06393 0.04700
H 	H 	0.79435 0.54858 0.76251 0.03800
H 	H 	0.24438 0.79399 0.06359 0.04400
H 	H 	0.24579 0.79395 0.76306 0.03600
H 	H 	0.24491 0.79327 0.23905 0.03900
H 	H 	0.75548 0.20764 0.23925 0.03800
H 	H 	0.45040 0.24332 0.06221 0.04600
H 	H 	0.79236 0.54784 0.23925 0.03800
H 	H 	0.20591 0.45023 0.93607 0.04500
H 	H 	0.54816 0.75421 0.76306 0.03800
H 	H 	0.75568 0.20591 0.06393 0.04300
H 	H 	0.20601 0.45039 0.06359 0.04400
H 	H 	0.54858 0.75423 0.23749 0.03700
H 	H 	0.45142 0.24577 0.76251 0.03700
H 	H 	0.75423 0.20565 0.76251 0.03600
H 	H 	0.54960 0.75668 0.93779 0.04400
H 	H 	0.54961 0.75562 0.06359 0.04700
H 	H 	0.45216 0.24452 0.23925 0.03500
H 	H 	0.75562 0.20601 0.93641 0.04600
H 	H 	0.45039 0.24438 0.93641 0.04300
H 	H 	0.20673 0.45164 0.23905 0.03500
H 	H 	0.79399 0.54961 0.93641 0.04700
H 	H 	0.24432 0.79409 0.93607 0.04800
H 	H 	0.20605 0.45184 0.76306 0.03500
