data_crystal

_cell_length_a 6.63020
_cell_length_b 16.77000
_cell_length_c 12.77780
_cell_angle_alpha 90.00000
_cell_angle_beta  90.00000
_cell_angle_gamma 90.00000

_symmetry_space_group_name_	'P 1'
_symmetry_space_group_name_H-M	'P 1'

loop_
_symmetry_equiv_pos_as_xyz
  x,y,z

loop_
_atom_site_label
_atom_site_type_symbol
_atom_site_fract_x
_atom_site_fract_y
_atom_site_fract_z
_atom_site_charge
O 	O 	0.16646 0.16815 0.84300 -0.64700
C 	C 	0.80890 0.03535 0.96880 0.05400
O 	O 	0.66646 0.66815 0.34300 -0.64700
C 	C 	0.30890 0.53535 0.46880 0.05700
O 	O 	0.83354 0.33185 0.84300 -0.64900
C 	C 	0.19110 0.46465 0.96880 0.05600
O 	O 	0.33354 0.83185 0.34300 -0.64600
C 	C 	0.69110 0.96465 0.46880 0.05500
O 	O 	0.83354 0.66815 0.15700 -0.64900
C 	C 	0.19110 0.53535 0.03120 0.05600
O 	O 	0.33354 0.16815 0.65700 -0.64600
C 	C 	0.69110 0.03535 0.53120 0.05500
O 	O 	0.16646 0.83185 0.15700 -0.64700
C 	C 	0.80890 0.96465 0.03120 0.05400
O 	O 	0.66646 0.33185 0.65700 -0.64700
C 	C 	0.30890 0.46465 0.53120 0.05700
O 	O 	0.83354 0.83185 0.15700 -0.64900
C 	C 	0.19110 0.96465 0.03120 0.05600
O 	O 	0.33354 0.33185 0.65700 -0.64600
C 	C 	0.69110 0.46465 0.53120 0.05500
O 	O 	0.16646 0.66815 0.15700 -0.64700
C 	C 	0.80890 0.53535 0.03120 0.05400
O 	O 	0.66646 0.16815 0.65700 -0.64700
C 	C 	0.30890 0.03535 0.53120 0.05700
O 	O 	0.16646 0.33185 0.84300 -0.64700
C 	C 	0.80890 0.46465 0.96880 0.05400
O 	O 	0.66646 0.83185 0.34300 -0.64700
C 	C 	0.30890 0.96465 0.46880 0.05700
O 	O 	0.83354 0.16815 0.84300 -0.64900
C 	C 	0.19110 0.03535 0.96880 0.05600
O 	O 	0.33354 0.66815 0.34300 -0.64600
C 	C 	0.69110 0.53535 0.46880 0.05500
Al	Al	0.25000 0.25000 0.75000 2.40000
Al	Al	0.75000 0.25000 0.75000 2.40000
Al	Al	0.75000 0.75000 0.25000 2.40000
Al	Al	0.25000 0.75000 0.25000 2.40000
O 	O 	-0.00000 0.25000 0.68560 -0.84100
O 	O 	0.50000 0.75000 0.18560 -0.84300
O 	O 	-0.00000 0.75000 0.31440 -0.84100
O 	O 	0.50000 0.25000 0.81440 -0.84300
C 	C 	-0.00000 0.06300 0.94560 -0.12400
C 	C 	0.00000 0.13718 0.87010 0.53100
C 	C 	0.50000 0.56300 0.44560 -0.12600
C 	C 	0.50000 0.63718 0.37010 0.52800
C 	C 	-0.00000 0.43700 0.94560 -0.12400
C 	C 	0.00000 0.36282 0.87010 0.53100
C 	C 	0.50000 0.93700 0.44560 -0.12600
C 	C 	0.50000 0.86282 0.37010 0.52800
C 	C 	-0.00000 0.56300 0.05440 -0.12400
C 	C 	0.00000 0.63718 0.12990 0.53100
C 	C 	0.50000 0.06300 0.55440 -0.12600
C 	C 	0.50000 0.13718 0.62990 0.52800
C 	C 	-0.00000 0.93700 0.05440 -0.12400
C 	C 	-0.00000 0.86282 0.12990 0.53100
C 	C 	0.50000 0.43700 0.55440 -0.12600
C 	C 	0.50000 0.36282 0.62990 0.52800
