data_crystal

_cell_length_a 6.56770
_cell_length_b 16.40370
_cell_length_c 13.17400
_cell_angle_alpha 90.00000
_cell_angle_beta  90.00000
_cell_angle_gamma 90.00000

_symmetry_space_group_name_	'P 1'
_symmetry_space_group_name_H-M	'P 1'

loop_
_symmetry_equiv_pos_as_xyz
  x,y,z

loop_
_atom_site_label
_atom_site_type_symbol
_atom_site_fract_x
_atom_site_fract_y
_atom_site_fract_z
_atom_site_charge
O 	O 	0.16870 0.16826 0.83890 -0.61000
C 	C 	0.80650 0.02980 0.95830 0.04500
O 	O 	0.66870 0.66826 0.33890 -0.61200
C 	C 	0.30650 0.52980 0.45830 0.06200
O 	O 	0.83130 0.33174 0.83890 -0.62300
C 	C 	0.19350 0.47020 0.95830 0.05700
O 	O 	0.33130 0.83174 0.33890 -0.60700
C 	C 	0.69350 0.97020 0.45830 0.05400
O 	O 	0.83130 0.66826 0.16110 -0.62300
C 	C 	0.19350 0.52980 0.04170 0.05700
O 	O 	0.33130 0.16826 0.66110 -0.60700
C 	C 	0.69350 0.02980 0.54170 0.05400
O 	O 	0.16870 0.83174 0.16110 -0.61000
C 	C 	0.80650 0.97020 0.04170 0.04500
O 	O 	0.66870 0.33174 0.66110 -0.61200
C 	C 	0.30650 0.47020 0.54170 0.06200
O 	O 	0.83130 0.83174 0.16110 -0.62300
C 	C 	0.19350 0.97020 0.04170 0.05700
O 	O 	0.33130 0.33174 0.66110 -0.60700
C 	C 	0.69350 0.47020 0.54170 0.05400
O 	O 	0.16870 0.66826 0.16110 -0.61000
C 	C 	0.80650 0.52980 0.04170 0.04500
O 	O 	0.66870 0.16826 0.66110 -0.61200
C 	C 	0.30650 0.02980 0.54170 0.06200
O 	O 	0.16870 0.33174 0.83890 -0.61000
C 	C 	0.80650 0.47020 0.95830 0.04500
O 	O 	0.66870 0.83174 0.33890 -0.61200
C 	C 	0.30650 0.97020 0.45830 0.06200
O 	O 	0.83130 0.16826 0.83890 -0.62300
C 	C 	0.19350 0.02980 0.95830 0.05700
O 	O 	0.33130 0.66826 0.33890 -0.60700
C 	C 	0.69350 0.52980 0.45830 0.05400
Al	Al	0.25000 0.25000 0.75000 2.41000
Al	Al	0.75000 0.25000 0.75000 2.41000
Al	Al	0.75000 0.75000 0.25000 2.41000
Al	Al	0.25000 0.75000 0.25000 2.41000
F 	F 	-0.00000 0.25000 0.69400 -0.97000
F 	F 	0.50000 0.75000 0.19400 -0.97800
F 	F 	-0.00000 0.75000 0.30600 -0.97000
F 	F 	0.50000 0.25000 0.80600 -0.97800
C 	C 	0.00000 0.06220 0.94610 -0.10200
C 	C 	0.00000 0.13870 0.87240 0.51600
C 	C 	0.50000 0.56220 0.44610 -0.11600
C 	C 	0.50000 0.63870 0.37240 0.50000
C 	C 	-0.00000 0.43780 0.94610 -0.10200
C 	C 	-0.00000 0.36130 0.87240 0.51600
C 	C 	0.50000 0.93780 0.44610 -0.11600
C 	C 	0.50000 0.86130 0.37240 0.50000
C 	C 	-0.00000 0.56220 0.05390 -0.10200
C 	C 	-0.00000 0.63870 0.12760 0.51600
C 	C 	0.50000 0.06220 0.55390 -0.11600
C 	C 	0.50000 0.13870 0.62760 0.50000
C 	C 	0.00000 0.93780 0.05390 -0.10200
C 	C 	0.00000 0.86130 0.12760 0.51600
C 	C 	0.50000 0.43780 0.55390 -0.11600
C 	C 	0.50000 0.36130 0.62760 0.50000
