data_crystal

_cell_length_a 6.62980
_cell_length_b 16.76380
_cell_length_c 12.78590
_cell_angle_alpha 90.00000
_cell_angle_beta  90.00000
_cell_angle_gamma 90.00000

_symmetry_space_group_name_	'P 1'
_symmetry_space_group_name_H-M	'P 1'

loop_
_symmetry_equiv_pos_as_xyz
  x,y,z

loop_
_atom_site_label
_atom_site_type_symbol
_atom_site_fract_x
_atom_site_fract_y
_atom_site_fract_z
_atom_site_charge
O 	O 	0.16631 0.16819 0.84278 -0.64600
C 	C 	0.80960 0.03563 0.96920 0.05300
O 	O 	0.66631 0.66819 0.34278 -0.64600
C 	C 	0.30960 0.53563 0.46920 0.05800
O 	O 	0.83369 0.33181 0.84278 -0.64800
C 	C 	0.19040 0.46437 0.96920 0.05700
O 	O 	0.33369 0.83181 0.34278 -0.64400
C 	C 	0.69040 0.96437 0.46920 0.05600
O 	O 	0.83369 0.66819 0.15722 -0.64800
C 	C 	0.19040 0.53563 0.03080 0.05700
O 	O 	0.33369 0.16819 0.65722 -0.64400
C 	C 	0.69040 0.03563 0.53080 0.05600
O 	O 	0.16631 0.83181 0.15722 -0.64500
C 	C 	0.80960 0.96437 0.03080 0.05400
O 	O 	0.66631 0.33181 0.65722 -0.64600
C 	C 	0.30960 0.46437 0.53080 0.05800
O 	O 	0.83369 0.83181 0.15722 -0.64800
C 	C 	0.19040 0.96437 0.03080 0.05700
O 	O 	0.33369 0.33181 0.65722 -0.64400
C 	C 	0.69040 0.46437 0.53080 0.05600
O 	O 	0.16631 0.66819 0.15722 -0.64500
C 	C 	0.80960 0.53563 0.03080 0.05400
O 	O 	0.66631 0.16819 0.65722 -0.64600
C 	C 	0.30960 0.03563 0.53080 0.05800
O 	O 	0.16631 0.33181 0.84278 -0.64500
C 	C 	0.80960 0.46437 0.96920 0.05400
O 	O 	0.66631 0.83181 0.34278 -0.64600
C 	C 	0.30960 0.96437 0.46920 0.05800
O 	O 	0.83369 0.16819 0.84278 -0.64800
C 	C 	0.19040 0.03563 0.96920 0.05700
O 	O 	0.33369 0.66819 0.34278 -0.64400
C 	C 	0.69040 0.53563 0.46920 0.05600
Al	Al	0.25000 0.25000 0.75000 2.40000
Al	Al	0.75000 0.25000 0.75000 2.40000
Al	Al	0.75000 0.75000 0.25000 2.40000
Al	Al	0.25000 0.75000 0.25000 2.40000
O 	O 	0.00000 0.25000 0.68520 -0.83700
O 	O 	0.50000 0.75000 0.18520 -0.84000
O 	O 	0.00000 0.75000 0.31480 -0.83700
O 	O 	0.50000 0.25000 0.81480 -0.84000
C 	C 	-0.00000 0.06320 0.94580 -0.12700
C 	C 	0.00000 0.13686 0.87090 0.52900
C 	C 	0.50000 0.56320 0.44580 -0.13000
C 	C 	0.50000 0.63686 0.37090 0.52500
C 	C 	0.00000 0.43680 0.94580 -0.12700
C 	C 	0.00000 0.36314 0.87090 0.52900
C 	C 	0.50000 0.93680 0.44580 -0.13000
C 	C 	0.50000 0.86314 0.37090 0.52500
C 	C 	-0.00000 0.56320 0.05420 -0.12700
C 	C 	0.00000 0.63686 0.12910 0.52900
C 	C 	0.50000 0.06320 0.55420 -0.13000
C 	C 	0.50000 0.13686 0.62910 0.52500
C 	C 	-0.00000 0.93680 0.05420 -0.12700
C 	C 	-0.00000 0.86314 0.12910 0.52900
C 	C 	0.50000 0.43680 0.55420 -0.13000
C 	C 	0.50000 0.36314 0.62910 0.52500
