data_crystal

_cell_length_a 6.56760
_cell_length_b 16.40190
_cell_length_c 13.16320
_cell_angle_alpha 90.00000
_cell_angle_beta  90.00000
_cell_angle_gamma 90.00000

_symmetry_space_group_name_	'P 1'
_symmetry_space_group_name_H-M	'P 1'

loop_
_symmetry_equiv_pos_as_xyz
  x,y,z

loop_
_atom_site_label
_atom_site_type_symbol
_atom_site_fract_x
_atom_site_fract_y
_atom_site_fract_z
_atom_site_charge
O 	O 	0.16680 0.16933 0.84071 -0.61200
C 	C 	0.80440 0.02520 0.95250 0.04300
O 	O 	0.66680 0.66933 0.34071 -0.61400
C 	C 	0.30440 0.52520 0.45250 0.05700
O 	O 	0.83320 0.33067 0.84071 -0.62300
C 	C 	0.19560 0.47480 0.95250 0.05300
O 	O 	0.33320 0.83067 0.34071 -0.60900
C 	C 	0.69560 0.97480 0.45250 0.05100
O 	O 	0.83320 0.66933 0.15929 -0.62300
C 	C 	0.19560 0.52520 0.04750 0.05300
O 	O 	0.33320 0.16933 0.65929 -0.61000
C 	C 	0.69560 0.02520 0.54750 0.05000
O 	O 	0.16680 0.83067 0.15929 -0.61300
C 	C 	0.80440 0.97480 0.04750 0.04200
O 	O 	0.66680 0.33067 0.65929 -0.61500
C 	C 	0.30440 0.47480 0.54750 0.05600
O 	O 	0.83320 0.83067 0.15929 -0.62400
C 	C 	0.19560 0.97480 0.04750 0.05300
O 	O 	0.33320 0.33067 0.65929 -0.61000
C 	C 	0.69560 0.47480 0.54750 0.04900
O 	O 	0.16680 0.66933 0.15929 -0.61300
C 	C 	0.80440 0.52520 0.04750 0.04200
O 	O 	0.66680 0.16933 0.65929 -0.61500
C 	C 	0.30440 0.02520 0.54750 0.05600
O 	O 	0.16680 0.33067 0.84071 -0.61300
C 	C 	0.80440 0.47480 0.95250 0.04200
O 	O 	0.66680 0.83067 0.34071 -0.61500
C 	C 	0.30440 0.97480 0.45250 0.05600
O 	O 	0.83320 0.16933 0.84071 -0.62400
C 	C 	0.19560 0.02520 0.95250 0.05300
O 	O 	0.33320 0.66933 0.34071 -0.61000
C 	C 	0.69560 0.52520 0.45250 0.04900
Al	Al	0.25000 0.25000 0.75000 2.40900
Al	Al	0.75000 0.25000 0.75000 2.40900
Al	Al	0.75000 0.75000 0.25000 2.40900
Al	Al	0.25000 0.75000 0.25000 2.40900
F 	F 	0.00000 0.25000 0.69200 -0.96400
F 	F 	0.50000 0.75000 0.19200 -0.97100
F 	F 	0.00000 0.75000 0.30800 -0.96400
F 	F 	0.50000 0.25000 0.80800 -0.97100
C 	C 	-0.00000 0.06330 0.94970 -0.09700
C 	C 	0.00000 0.13510 0.86800 0.51900
C 	C 	0.50000 0.56330 0.44970 -0.10900
C 	C 	0.50000 0.63510 0.36800 0.50500
C 	C 	0.00000 0.43670 0.94970 -0.09700
C 	C 	-0.00000 0.36490 0.86800 0.51900
C 	C 	0.50000 0.93670 0.44970 -0.10900
C 	C 	0.50000 0.86490 0.36800 0.50500
C 	C 	-0.00000 0.56330 0.05030 -0.09700
C 	C 	-0.00000 0.63510 0.13200 0.51900
C 	C 	0.50000 0.06330 0.55030 -0.10900
C 	C 	0.50000 0.13510 0.63200 0.50500
C 	C 	-0.00000 0.93670 0.05030 -0.09700
C 	C 	-0.00000 0.86490 0.13200 0.51900
C 	C 	0.50000 0.43670 0.55030 -0.10900
C 	C 	0.50000 0.36490 0.63200 0.50500
