data_crystal

_cell_length_a 6.56770
_cell_length_b 16.40420
_cell_length_c 13.16570
_cell_angle_alpha 90.00000
_cell_angle_beta  90.00000
_cell_angle_gamma 90.00000

_symmetry_space_group_name_	'P 1'
_symmetry_space_group_name_H-M	'P 1'

loop_
_symmetry_equiv_pos_as_xyz
  x,y,z

loop_
_atom_site_label
_atom_site_type_symbol
_atom_site_fract_x
_atom_site_fract_y
_atom_site_fract_z
_atom_site_charge
O 	O 	0.17000 0.16765 0.83945 -0.60900
C 	C 	0.80670 0.02870 0.95600 0.04300
O 	O 	0.67000 0.66765 0.33945 -0.61200
C 	C 	0.30670 0.52870 0.45600 0.06000
O 	O 	0.83000 0.33235 0.83945 -0.62200
C 	C 	0.19330 0.47130 0.95600 0.05600
O 	O 	0.33000 0.83235 0.33945 -0.60500
C 	C 	0.69330 0.97130 0.45600 0.05300
O 	O 	0.83000 0.66765 0.16055 -0.62200
C 	C 	0.19330 0.52870 0.04400 0.05600
O 	O 	0.33000 0.16765 0.66055 -0.60500
C 	C 	0.69330 0.02870 0.54400 0.05300
O 	O 	0.17000 0.83235 0.16055 -0.60800
C 	C 	0.80670 0.97130 0.04400 0.04400
O 	O 	0.67000 0.33235 0.66055 -0.61100
C 	C 	0.30670 0.47130 0.54400 0.06100
O 	O 	0.83000 0.83235 0.16055 -0.62200
C 	C 	0.19330 0.97130 0.04400 0.05600
O 	O 	0.33000 0.33235 0.66055 -0.60500
C 	C 	0.69330 0.47130 0.54400 0.05300
O 	O 	0.17000 0.66765 0.16055 -0.60800
C 	C 	0.80670 0.52870 0.04400 0.04400
O 	O 	0.67000 0.16765 0.66055 -0.61100
C 	C 	0.30670 0.02870 0.54400 0.06100
O 	O 	0.17000 0.33235 0.83945 -0.60800
C 	C 	0.80670 0.47130 0.95600 0.04400
O 	O 	0.67000 0.83235 0.33945 -0.61100
C 	C 	0.30670 0.97130 0.45600 0.06100
O 	O 	0.83000 0.16765 0.83945 -0.62200
C 	C 	0.19330 0.02870 0.95600 0.05600
O 	O 	0.33000 0.66765 0.33945 -0.60500
C 	C 	0.69330 0.52870 0.45600 0.05300
Al	Al	0.25000 0.25000 0.75000 2.40900
Al	Al	0.75000 0.25000 0.75000 2.40900
Al	Al	0.75000 0.75000 0.25000 2.40900
Al	Al	0.25000 0.75000 0.25000 2.40900
F 	F 	0.00000 0.25000 0.69310 -0.97100
F 	F 	0.50000 0.75000 0.19310 -0.97900
F 	F 	0.00000 0.75000 0.30690 -0.97100
F 	F 	0.50000 0.25000 0.80690 -0.97900
C 	C 	-0.00000 0.06330 0.94890 -0.09500
C 	C 	-0.00000 0.13800 0.87070 0.51000
C 	C 	0.50000 0.56330 0.44890 -0.10900
C 	C 	0.50000 0.63800 0.37070 0.49300
C 	C 	-0.00000 0.43670 0.94890 -0.09500
C 	C 	-0.00000 0.36200 0.87070 0.51000
C 	C 	0.50000 0.93670 0.44890 -0.10900
C 	C 	0.50000 0.86200 0.37070 0.49300
C 	C 	-0.00000 0.56330 0.05110 -0.09500
C 	C 	0.00000 0.63800 0.12930 0.51000
C 	C 	0.50000 0.06330 0.55110 -0.10900
C 	C 	0.50000 0.13800 0.62930 0.49300
C 	C 	-0.00000 0.93670 0.05110 -0.09500
C 	C 	-0.00000 0.86200 0.12930 0.51000
C 	C 	0.50000 0.43670 0.55110 -0.10900
C 	C 	0.50000 0.36200 0.62930 0.49300
