data_crystal

_cell_length_a 6.56780
_cell_length_b 16.40550
_cell_length_c 13.16870
_cell_angle_alpha 90.00000
_cell_angle_beta  90.00000
_cell_angle_gamma 90.00000

_symmetry_space_group_name_	'P 1'
_symmetry_space_group_name_H-M	'P 1'

loop_
_symmetry_equiv_pos_as_xyz
  x,y,z

loop_
_atom_site_label
_atom_site_type_symbol
_atom_site_fract_x
_atom_site_fract_y
_atom_site_fract_z
_atom_site_charge
O 	O 	0.16940 0.16805 0.84015 -0.61000
C 	C 	0.80680 0.02980 0.95910 0.04600
O 	O 	0.66940 0.66805 0.34015 -0.61200
C 	C 	0.30680 0.52980 0.45910 0.06200
O 	O 	0.83060 0.33195 0.84015 -0.62400
C 	C 	0.19320 0.47020 0.95910 0.05700
O 	O 	0.33060 0.83195 0.34015 -0.60700
C 	C 	0.69320 0.97020 0.45910 0.05300
O 	O 	0.83060 0.66805 0.15985 -0.62400
C 	C 	0.19320 0.52980 0.04090 0.05700
O 	O 	0.33060 0.16805 0.65985 -0.60700
C 	C 	0.69320 0.02980 0.54090 0.05300
O 	O 	0.16940 0.83195 0.15985 -0.61100
C 	C 	0.80680 0.97020 0.04090 0.04500
O 	O 	0.66940 0.33195 0.65985 -0.61300
C 	C 	0.30680 0.47020 0.54090 0.06100
O 	O 	0.83060 0.83195 0.15985 -0.62400
C 	C 	0.19320 0.97020 0.04090 0.05700
O 	O 	0.33060 0.33195 0.65985 -0.60700
C 	C 	0.69320 0.47020 0.54090 0.05300
O 	O 	0.16940 0.66805 0.15985 -0.61100
C 	C 	0.80680 0.52980 0.04090 0.04500
O 	O 	0.66940 0.16805 0.65985 -0.61300
C 	C 	0.30680 0.02980 0.54090 0.06100
O 	O 	0.16940 0.33195 0.84015 -0.61100
C 	C 	0.80680 0.47020 0.95910 0.04500
O 	O 	0.66940 0.83195 0.34015 -0.61300
C 	C 	0.30680 0.97020 0.45910 0.06100
O 	O 	0.83060 0.16805 0.84015 -0.62400
C 	C 	0.19320 0.02980 0.95910 0.05700
O 	O 	0.33060 0.66805 0.34015 -0.60700
C 	C 	0.69320 0.52980 0.45910 0.05300
Al	Al	0.25000 0.25000 0.75000 2.40900
Al	Al	0.75000 0.25000 0.75000 2.40900
Al	Al	0.75000 0.75000 0.25000 2.40900
Al	Al	0.25000 0.75000 0.25000 2.40900
F 	F 	0.00000 0.25000 0.69390 -0.97500
F 	F 	0.50000 0.75000 0.19390 -0.98300
F 	F 	0.00000 0.75000 0.30610 -0.97500
F 	F 	0.50000 0.25000 0.80610 -0.98300
C 	C 	0.00000 0.06440 0.94790 -0.10100
C 	C 	0.00000 0.13760 0.86980 0.52000
C 	C 	0.50000 0.56440 0.44790 -0.11500
C 	C 	0.50000 0.63760 0.36980 0.50400
C 	C 	-0.00000 0.43560 0.94790 -0.10100
C 	C 	0.00000 0.36240 0.86980 0.52000
C 	C 	0.50000 0.93560 0.44790 -0.11500
C 	C 	0.50000 0.86240 0.36980 0.50400
C 	C 	-0.00000 0.56440 0.05210 -0.10100
C 	C 	-0.00000 0.63760 0.13020 0.52000
C 	C 	0.50000 0.06440 0.55210 -0.11500
C 	C 	0.50000 0.13760 0.63020 0.50400
C 	C 	0.00000 0.93560 0.05210 -0.10100
C 	C 	0.00000 0.86240 0.13020 0.52000
C 	C 	0.50000 0.43560 0.55210 -0.11500
C 	C 	0.50000 0.36240 0.63020 0.50400
