data_crystal

_cell_length_a 6.56680
_cell_length_b 16.39710
_cell_length_c 13.20210
_cell_angle_alpha 90.00000
_cell_angle_beta  90.00000
_cell_angle_gamma 90.13900

_symmetry_space_group_name_	'P 1'
_symmetry_space_group_name_H-M	'P 1'

loop_
_symmetry_equiv_pos_as_xyz
  x,y,z

loop_
_atom_site_label
_atom_site_type_symbol
_atom_site_fract_x
_atom_site_fract_y
_atom_site_fract_z
_atom_site_charge
O 	O 	0.16090 0.16920 0.84860 -0.62600
O 	O 	0.82060 0.66520 0.17010 -0.67800
C 	C 	0.81130 0.02460 0.95780 0.11000
C 	C 	0.98710 0.06680 0.94280 -0.25500
C 	C 	0.00200 0.13690 0.86960 0.63200
C 	C 	0.20280 0.53330 0.03570 0.12000
O 	O 	0.66090 0.66920 0.34860 -0.61400
O 	O 	0.32060 0.16520 0.67010 -0.61400
C 	C 	0.31130 0.52460 0.45780 0.08100
C 	C 	0.48710 0.56680 0.44280 -0.12700
C 	C 	0.50200 0.63690 0.36960 0.51000
C 	C 	0.70280 0.03330 0.53570 0.03100
O 	O 	0.83910 0.33080 0.84860 -0.57800
O 	O 	0.17940 0.83480 0.17010 -0.56600
C 	C 	0.18870 0.47540 0.95780 0.02800
C 	C 	0.01290 0.43320 0.94280 0.00500
C 	C 	0.99800 0.36310 0.86960 0.38000
C 	C 	0.79720 0.96670 0.03570 -0.01800
O 	O 	0.33910 0.83080 0.34860 -0.59600
O 	O 	0.67940 0.33480 0.67010 -0.63400
C 	C 	0.68870 0.97540 0.45780 0.06400
C 	C 	0.51290 0.93320 0.44280 -0.12900
C 	C 	0.49800 0.86310 0.36960 0.50800
C 	C 	0.29720 0.46670 0.53570 0.06400
O 	O 	0.83910 0.83080 0.15140 -0.57800
O 	O 	0.17940 0.33480 0.82990 -0.56700
C 	C 	0.18870 0.97540 0.04220 0.03100
C 	C 	0.01290 0.93320 0.05720 0.00500
C 	C 	0.99800 0.86310 0.13040 0.37900
C 	C 	0.79720 0.46670 0.96430 -0.01900
O 	O 	0.33910 0.33080 0.65140 -0.59600
O 	O 	0.67940 0.83480 0.32990 -0.63400
C 	C 	0.68870 0.47540 0.54220 0.05900
C 	C 	0.51290 0.43320 0.55720 -0.12800
C 	C 	0.49800 0.36310 0.63040 0.50700
C 	C 	0.29720 0.96670 0.46430 0.07000
O 	O 	0.16090 0.66920 0.15140 -0.62800
O 	O 	0.82060 0.16520 0.82990 -0.67800
C 	C 	0.81130 0.52460 0.04220 0.11200
C 	C 	0.98710 0.56680 0.05720 -0.25800
C 	C 	0.00200 0.63690 0.13040 0.63400
C 	C 	0.20280 0.03330 0.96430 0.11700
O 	O 	0.66090 0.16920 0.65140 -0.61300
O 	O 	0.32060 0.66520 0.32990 -0.61400
C 	C 	0.31130 0.02460 0.54220 0.07500
C 	C 	0.48710 0.06680 0.55720 -0.12500
C 	C 	0.50200 0.13690 0.63040 0.50900
C 	C 	0.70280 0.53330 0.46430 0.03500
Al	Al	0.25000 0.25000 0.75000 2.40800
Al	Al	0.75000 0.25000 0.75000 2.40600
Al	Al	0.75000 0.75000 0.25000 2.40600
Al	Al	0.25000 0.75000 0.25000 2.40800
F 	F 	0.00000 0.25000 0.69070 -0.94100
F 	F 	0.50000 0.75000 0.19070 -0.97000
F 	F 	0.00000 0.75000 0.30930 -0.94000
F 	F 	0.50000 0.25000 0.80930 -0.97000
