data_crystal

_cell_length_a 6.62950
_cell_length_b 16.75790
_cell_length_c 12.79360
_cell_angle_alpha 90.00000
_cell_angle_beta  90.00000
_cell_angle_gamma 90.00000

_symmetry_space_group_name_	'P 1'
_symmetry_space_group_name_H-M	'P 1'

loop_
_symmetry_equiv_pos_as_xyz
  x,y,z

loop_
_atom_site_label
_atom_site_type_symbol
_atom_site_fract_x
_atom_site_fract_y
_atom_site_fract_z
_atom_site_charge
O 	O 	0.16677 0.16770 0.84362 -0.65000
C 	C 	0.80780 0.03544 0.96790 0.05500
O 	O 	0.66677 0.66770 0.34362 -0.65100
C 	C 	0.30780 0.53544 0.46790 0.05600
O 	O 	0.83323 0.33230 0.84362 -0.65200
C 	C 	0.19220 0.46456 0.96790 0.05600
O 	O 	0.33323 0.83230 0.34362 -0.65000
C 	C 	0.69220 0.96456 0.46790 0.05500
O 	O 	0.83323 0.66770 0.15638 -0.65200
C 	C 	0.19220 0.53544 0.03210 0.05600
O 	O 	0.33323 0.16770 0.65638 -0.65000
C 	C 	0.69220 0.03544 0.53210 0.05500
O 	O 	0.16677 0.83230 0.15638 -0.65100
C 	C 	0.80780 0.96456 0.03210 0.05400
O 	O 	0.66677 0.33230 0.65638 -0.65100
C 	C 	0.30780 0.46456 0.53210 0.05600
O 	O 	0.83323 0.83230 0.15638 -0.65200
C 	C 	0.19220 0.96456 0.03210 0.05600
O 	O 	0.33323 0.33230 0.65638 -0.65000
C 	C 	0.69220 0.46456 0.53210 0.05500
O 	O 	0.16677 0.66770 0.15638 -0.65100
C 	C 	0.80780 0.53544 0.03210 0.05400
O 	O 	0.66677 0.16770 0.65638 -0.65100
C 	C 	0.30780 0.03544 0.53210 0.05600
O 	O 	0.16677 0.33230 0.84362 -0.65100
C 	C 	0.80780 0.46456 0.96790 0.05400
O 	O 	0.66677 0.83230 0.34362 -0.65100
C 	C 	0.30780 0.96456 0.46790 0.05600
O 	O 	0.83323 0.16770 0.84362 -0.65200
C 	C 	0.19220 0.03544 0.96790 0.05600
O 	O 	0.33323 0.66770 0.34362 -0.65000
C 	C 	0.69220 0.53544 0.46790 0.05500
Al	Al	0.25000 0.25000 0.75000 2.39900
Al	Al	0.75000 0.25000 0.75000 2.39900
Al	Al	0.75000 0.75000 0.25000 2.39900
Al	Al	0.25000 0.75000 0.25000 2.39900
O 	O 	-0.00000 0.25000 0.68470 -0.84100
O 	O 	0.50000 0.75000 0.18470 -0.84200
O 	O 	-0.00000 0.75000 0.31530 -0.84100
O 	O 	0.50000 0.25000 0.81530 -0.84200
C 	C 	0.00000 0.06200 0.94480 -0.12100
C 	C 	0.00000 0.13820 0.87030 0.53500
C 	C 	0.50000 0.56200 0.44480 -0.12200
C 	C 	0.50000 0.63820 0.37030 0.53300
C 	C 	-0.00000 0.43800 0.94480 -0.12100
C 	C 	0.00000 0.36180 0.87030 0.53500
C 	C 	0.50000 0.93800 0.44480 -0.12200
C 	C 	0.50000 0.86180 0.37030 0.53300
C 	C 	-0.00000 0.56200 0.05520 -0.12100
C 	C 	-0.00000 0.63820 0.12970 0.53500
C 	C 	0.50000 0.06200 0.55520 -0.12200
C 	C 	0.50000 0.13820 0.62970 0.53300
C 	C 	-0.00000 0.93800 0.05520 -0.12100
C 	C 	-0.00000 0.86180 0.12970 0.53500
C 	C 	0.50000 0.43800 0.55520 -0.12200
C 	C 	0.50000 0.36180 0.62970 0.53300
