data_crystal

_cell_length_a 6.56800
_cell_length_b 16.39480
_cell_length_c 13.16770
_cell_angle_alpha 90.00000
_cell_angle_beta  90.00000
_cell_angle_gamma 90.00000

_symmetry_space_group_name_	'P 1'
_symmetry_space_group_name_H-M	'P 1'

loop_
_symmetry_equiv_pos_as_xyz
  x,y,z

loop_
_atom_site_label
_atom_site_type_symbol
_atom_site_fract_x
_atom_site_fract_y
_atom_site_fract_z
_atom_site_charge
O 	O 	0.17000 0.16802 0.84010 -0.61400
C 	C 	0.80650 0.02710 0.95530 0.04500
O 	O 	0.67000 0.66802 0.34010 -0.61600
C 	C 	0.30650 0.52710 0.45530 0.05900
O 	O 	0.83000 0.33198 0.84010 -0.62500
C 	C 	0.19350 0.47290 0.95530 0.05500
O 	O 	0.33000 0.83198 0.34010 -0.61200
C 	C 	0.69350 0.97290 0.45530 0.05100
O 	O 	0.83000 0.66802 0.15990 -0.62600
C 	C 	0.19350 0.52710 0.04470 0.05400
O 	O 	0.33000 0.16802 0.65990 -0.61200
C 	C 	0.69350 0.02710 0.54470 0.05100
O 	O 	0.17000 0.83198 0.15990 -0.61500
C 	C 	0.80650 0.97290 0.04470 0.04400
O 	O 	0.67000 0.33198 0.65990 -0.61700
C 	C 	0.30650 0.47290 0.54470 0.05800
O 	O 	0.83000 0.83198 0.15990 -0.62600
C 	C 	0.19350 0.97290 0.04470 0.05400
O 	O 	0.33000 0.33198 0.65990 -0.61200
C 	C 	0.69350 0.47290 0.54470 0.05100
O 	O 	0.17000 0.66802 0.15990 -0.61500
C 	C 	0.80650 0.52710 0.04470 0.04400
O 	O 	0.67000 0.16802 0.65990 -0.61700
C 	C 	0.30650 0.02710 0.54470 0.05800
O 	O 	0.17000 0.33198 0.84010 -0.61500
C 	C 	0.80650 0.47290 0.95530 0.04400
O 	O 	0.67000 0.83198 0.34010 -0.61700
C 	C 	0.30650 0.97290 0.45530 0.05800
O 	O 	0.83000 0.16802 0.84010 -0.62600
C 	C 	0.19350 0.02710 0.95530 0.05400
O 	O 	0.33000 0.66802 0.34010 -0.61200
C 	C 	0.69350 0.52710 0.45530 0.05100
Al	Al	0.25000 0.25000 0.75000 2.40900
Al	Al	0.75000 0.25000 0.75000 2.40900
Al	Al	0.75000 0.75000 0.25000 2.40900
Al	Al	0.25000 0.75000 0.25000 2.40900
F 	F 	0.00000 0.25000 0.69370 -0.97400
F 	F 	0.50000 0.75000 0.19370 -0.98100
F 	F 	0.00000 0.75000 0.30630 -0.97400
F 	F 	0.50000 0.25000 0.80630 -0.98100
C 	C 	-0.00000 0.06520 0.94910 -0.09300
C 	C 	-0.00000 0.13760 0.86690 0.52100
C 	C 	0.50000 0.56520 0.44910 -0.10500
C 	C 	0.50000 0.63760 0.36690 0.50700
C 	C 	0.00000 0.43480 0.94910 -0.09300
C 	C 	-0.00000 0.36240 0.86690 0.52100
C 	C 	0.50000 0.93480 0.44910 -0.10500
C 	C 	0.50000 0.86240 0.36690 0.50700
C 	C 	0.00000 0.56520 0.05090 -0.09300
C 	C 	-0.00000 0.63760 0.13310 0.52100
C 	C 	0.50000 0.06520 0.55090 -0.10500
C 	C 	0.50000 0.13760 0.63310 0.50700
C 	C 	0.00000 0.93480 0.05090 -0.09300
C 	C 	-0.00000 0.86240 0.13310 0.52100
C 	C 	0.50000 0.43480 0.55090 -0.10500
C 	C 	0.50000 0.36240 0.63310 0.50700
