data_crystal

_cell_length_a 6.62880
_cell_length_b 16.72760
_cell_length_c 12.83360
_cell_angle_alpha 90.00000
_cell_angle_beta  90.00000
_cell_angle_gamma 90.00000

_symmetry_space_group_name_	'P 1'
_symmetry_space_group_name_H-M	'P 1'

loop_
_symmetry_equiv_pos_as_xyz
  x,y,z

loop_
_atom_site_label
_atom_site_type_symbol
_atom_site_fract_x
_atom_site_fract_y
_atom_site_fract_z
_atom_site_charge
O 	O 	0.16576 0.16835 0.84288 -0.64500
C 	C 	0.80910 0.03544 0.96750 0.05300
O 	O 	0.66576 0.66835 0.34288 -0.64600
C 	C 	0.30910 0.53544 0.46750 0.05800
O 	O 	0.83424 0.33165 0.84288 -0.64800
C 	C 	0.19090 0.46456 0.96750 0.05600
O 	O 	0.33424 0.83165 0.34288 -0.64400
C 	C 	0.69090 0.96456 0.46750 0.05600
O 	O 	0.83424 0.66835 0.15712 -0.64800
C 	C 	0.19090 0.53544 0.03250 0.05600
O 	O 	0.33424 0.16835 0.65712 -0.64400
C 	C 	0.69090 0.03544 0.53250 0.05600
O 	O 	0.16576 0.83165 0.15712 -0.64500
C 	C 	0.80910 0.96456 0.03250 0.05300
O 	O 	0.66576 0.33165 0.65712 -0.64600
C 	C 	0.30910 0.46456 0.53250 0.05800
O 	O 	0.83424 0.83165 0.15712 -0.64800
C 	C 	0.19090 0.96456 0.03250 0.05600
O 	O 	0.33424 0.33165 0.65712 -0.64400
C 	C 	0.69090 0.46456 0.53250 0.05600
O 	O 	0.16576 0.66835 0.15712 -0.64500
C 	C 	0.80910 0.53544 0.03250 0.05300
O 	O 	0.66576 0.16835 0.65712 -0.64600
C 	C 	0.30910 0.03544 0.53250 0.05800
O 	O 	0.16576 0.33165 0.84288 -0.64500
C 	C 	0.80910 0.46456 0.96750 0.05300
O 	O 	0.66576 0.83165 0.34288 -0.64600
C 	C 	0.30910 0.96456 0.46750 0.05800
O 	O 	0.83424 0.16835 0.84288 -0.64800
C 	C 	0.19090 0.03544 0.96750 0.05600
O 	O 	0.33424 0.66835 0.34288 -0.64400
C 	C 	0.69090 0.53544 0.46750 0.05600
Al	Al	0.25000 0.25000 0.75000 2.40000
Al	Al	0.75000 0.25000 0.75000 2.40000
Al	Al	0.75000 0.75000 0.25000 2.40000
Al	Al	0.25000 0.75000 0.25000 2.40000
O 	O 	-0.00000 0.25000 0.68570 -0.83900
O 	O 	0.50000 0.75000 0.18570 -0.84100
O 	O 	-0.00000 0.75000 0.31430 -0.83900
O 	O 	0.50000 0.25000 0.81430 -0.84100
C 	C 	0.00000 0.06220 0.94640 -0.12500
C 	C 	-0.00000 0.13700 0.87160 0.52900
C 	C 	0.50000 0.56220 0.44640 -0.12900
C 	C 	0.50000 0.63700 0.37160 0.52500
C 	C 	0.00000 0.43780 0.94640 -0.12500
C 	C 	-0.00000 0.36300 0.87160 0.52900
C 	C 	0.50000 0.93780 0.44640 -0.12900
C 	C 	0.50000 0.86300 0.37160 0.52500
C 	C 	0.00000 0.56220 0.05360 -0.12500
C 	C 	0.00000 0.63700 0.12840 0.52900
C 	C 	0.50000 0.06220 0.55360 -0.12900
C 	C 	0.50000 0.13700 0.62840 0.52500
C 	C 	0.00000 0.93780 0.05360 -0.12500
C 	C 	-0.00000 0.86300 0.12840 0.52900
C 	C 	0.50000 0.43780 0.55360 -0.12900
C 	C 	0.50000 0.36300 0.62840 0.52500
