data_crystal

_cell_length_a 13.99200
_cell_length_b 17.37930
_cell_length_c 19.34000
_cell_angle_alpha 97.81640
_cell_angle_beta  90.00000
_cell_angle_gamma 113.73800

_symmetry_space_group_name_	'P 1'
_symmetry_space_group_name_H-M	'P 1'

loop_
_symmetry_equiv_pos_as_xyz
  x,y,z

loop_
_atom_site_label
_atom_site_type_symbol
_atom_site_fract_x
_atom_site_fract_y
_atom_site_fract_z
_atom_site_charge
Eu	Eu	0.11892 0.12084 0.49884 1.83000
Eu	Eu	0.88108 0.87916 0.50116 1.83000
Eu	Eu	0.99808 0.87916 0.00116 1.80600
Eu	Eu	0.00192 0.12084 0.99884 1.80600
H 	H 	0.83050 0.44680 0.41470 0.04300
H 	H 	0.38370 0.55320 0.08530 0.04200
H 	H 	0.95790 0.23260 0.63550 0.02400
H 	H 	0.42710 0.30040 0.20890 0.05300
H 	H 	0.31330 0.40380 0.04800 0.04000
H 	H 	0.09050 0.40380 0.54800 0.03800
H 	H 	0.55360 0.94360 0.19580 0.04000
H 	H 	0.27860 0.96940 0.83700 0.04000
H 	H 	0.40320 0.53580 0.69280 0.04300
H 	H 	0.26240 0.00400 0.16600 0.00800
H 	H 	0.22520 0.66940 0.61850 0.11500
H 	H 	0.90950 0.59620 0.45200 0.03800
H 	H 	0.66290 0.61040 0.35250 0.03900
H 	H 	0.25840 0.99600 0.33400 0.00700
H 	H 	0.61630 0.44680 0.91470 0.04200
H 	H 	0.69080 0.96940 0.33700 0.02600
H 	H 	0.74160 0.00400 0.66600 0.00700
H 	H 	0.72530 0.76740 0.86450 0.02500
H 	H 	0.44350 0.87020 0.71830 0.11400
H 	H 	0.86740 0.46420 0.80720 0.04400
H 	H 	0.04210 0.76740 0.36450 0.02400
H 	H 	0.57330 0.12980 0.78170 0.11400
H 	H 	0.94750 0.61040 0.85250 0.04100
H 	H 	0.91520 0.17860 0.45790 0.01200
H 	H 	0.72140 0.03060 0.16300 0.04000
H 	H 	0.05250 0.38960 0.14750 0.04100
H 	H 	0.16740 0.73740 0.57840 0.05200
H 	H 	0.16950 0.55320 0.58530 0.04300
H 	H 	0.73660 0.82140 0.04210 0.01400
H 	H 	0.87330 0.30040 0.70890 0.05400
H 	H 	0.39000 0.94360 0.69580 0.04600
H 	H 	0.35540 0.93080 0.27070 0.05000
H 	H 	0.80000 0.35180 0.77450 0.11400
H 	H 	0.64460 0.06920 0.72930 0.05000
H 	H 	0.33710 0.38960 0.64750 0.03900
H 	H 	0.12670 0.69960 0.29110 0.05400
H 	H 	0.59680 0.46420 0.30720 0.04300
H 	H 	0.13260 0.53580 0.19280 0.04400
H 	H 	0.44820 0.64820 0.72550 0.11400
H 	H 	0.20000 0.64820 0.22550 0.11400
H 	H 	0.68670 0.59620 0.95200 0.04000
H 	H 	0.61000 0.05640 0.30420 0.04600
H 	H 	0.42670 0.87020 0.21830 0.11400
H 	H 	0.55580 0.33060 0.88150 0.11600
H 	H 	0.27470 0.23260 0.13550 0.02500
H 	H 	0.08480 0.82140 0.54210 0.01200
H 	H 	0.83260 0.26260 0.42160 0.05200
H 	H 	0.42460 0.06920 0.22930 0.04900
H 	H 	0.57290 0.69960 0.79110 0.05300
H 	H 	0.77480 0.33060 0.38150 0.11500
H 	H 	0.57540 0.93080 0.77070 0.04900
H 	H 	0.44420 0.66940 0.11850 0.11600
H 	H 	0.26340 0.17860 0.95790 0.01400
H 	H 	0.44640 0.05640 0.80420 0.04000
H 	H 	0.73760 0.99600 0.83400 0.00800
H 	H 	0.55650 0.12980 0.28170 0.11400
H 	H 	0.43000 0.26260 0.92160 0.04900
H 	H 	0.30920 0.03060 0.66300 0.02600
H 	H 	0.57000 0.73740 0.07840 0.04900
H 	H 	0.55180 0.35180 0.27450 0.11400
C 	C 	0.14550 0.84580 0.57310 0.04000
C 	C 	0.24880 0.80340 0.27430 0.00200
C 	C 	0.59230 0.92040 0.16600 -0.06800
C 	C 	0.39340 0.10280 0.21190 -0.09600
C 	C 	0.30140 0.42280 0.63570 0.00200
C 	C 	0.82800 0.61540 0.90780 -0.08300
C 	C 	0.32810 0.92040 0.66600 -0.08200
C 	C 	0.80010 0.48240 0.40000 -0.06400
C 	C 	0.28030 0.83280 0.64070 0.00100
C 	C 	0.72500 0.56980 0.92510 -0.00500
C 	C 	0.29780 0.06420 0.17270 0.05800
C 	C 	0.26760 0.55120 0.14370 -0.00700
C 	C 	0.70940 0.10280 0.71190 -0.09900
C 	C 	0.76640 0.06420 0.67270 0.06200
C 	C 	0.33040 0.77880 0.66450 0.13600
C 	C 	0.46400 0.76660 0.72750 0.12200
C 	C 	0.70030 0.84580 0.07310 0.03000
C 	C 	0.71970 0.16720 0.35930 0.00100
C 	C 	0.89580 0.19960 0.65600 0.05600
C 	C 	0.60230 0.79660 0.09520 -0.07800
C 	C 	0.44540 0.19660 0.22570 0.00000
C 	C 	0.85690 0.11060 0.64360 -0.18200
C 	C 	0.14310 0.88940 0.35640 -0.18200
C 	C 	0.31640 0.64580 0.16810 0.12900
C 	C 	0.68360 0.35420 0.83190 0.12900
C 	C 	0.23360 0.93580 0.32730 0.06200
C 	C 	0.74260 0.93280 0.09850 -0.13500
C 	C 	0.68230 0.48240 0.90000 -0.06200
C 	C 	0.39770 0.20340 0.90480 -0.07800
C 	C 	0.44750 0.16720 0.85930 -0.00700
C 	C 	0.67190 0.07960 0.33400 -0.08200
C 	C 	0.39710 0.24020 0.19870 -0.09300
C 	C 	0.08730 0.93400 0.39870 0.51800
C 	C 	0.28140 0.97140 0.64590 0.03600
C 	C 	0.82860 0.70920 0.43760 0.33400
C 	C 	0.65890 0.49140 0.33690 -0.06900
C 	C 	0.17200 0.38460 0.09220 -0.08300
C 	C 	0.19020 0.93280 0.59850 -0.14800
C 	C 	0.15690 0.75980 0.30130 -0.09600
C 	C 	0.31770 0.51760 0.10000 -0.06200
C 	C 	0.84310 0.24020 0.69870 -0.09600
C 	C 	0.88060 0.70920 0.93760 0.33300
C 	C 	0.69620 0.80040 0.84400 0.05200
C 	C 	0.60660 0.89720 0.78810 -0.09600
C 	C 	0.84610 0.99040 0.07540 0.43100
C 	C 	0.71640 0.44880 0.35630 -0.00600
C 	C 	0.27500 0.43020 0.07490 -0.00500
C 	C 	0.15330 0.06600 0.10130 0.50100
C 	C 	0.60290 0.75980 0.80130 -0.09300
C 	C 	0.67060 0.35420 0.33190 0.12800
C 	C 	0.21260 0.38460 0.59220 -0.08600
C 	C 	0.91270 0.06600 0.60130 0.51800
C 	C 	0.32940 0.64580 0.66810 0.12800
C 	C 	0.29970 0.15420 0.92690 0.03000
C 	C 	0.73240 0.44880 0.85630 -0.00700
C 	C 	0.29060 0.89720 0.28810 -0.09900
C 	C 	0.17140 0.29080 0.56240 0.33400
C 	C 	0.74630 0.88940 0.85640 -0.17500
C 	C 	0.55160 0.22120 0.83550 0.13900
C 	C 	0.83250 0.49140 0.83690 -0.06700
C 	C 	0.34110 0.50860 0.66310 -0.06900
C 	C 	0.69000 0.97140 0.14590 0.01000
C 	C 	0.19990 0.51760 0.60000 -0.06400
C 	C 	0.28360 0.55120 0.64370 -0.00600
C 	C 	0.15520 0.43020 0.57490 -0.00400
C 	C 	0.80980 0.06720 0.40150 -0.14800
C 	C 	0.66960 0.22120 0.33550 0.13600
C 	C 	0.10420 0.80040 0.34400 0.05600
C 	C 	0.14430 0.99040 0.57540 0.45200
C 	C 	0.30260 0.76660 0.22750 0.12200
C 	C 	0.53600 0.23340 0.27250 0.12200
C 	C 	0.75120 0.19660 0.72570 0.00200
C 	C 	0.11940 0.29080 0.06240 0.33300
C 	C 	0.71860 0.02860 0.35410 0.03600
C 	C 	0.69740 0.23340 0.77250 0.12200
C 	C 	0.15390 0.00960 0.92460 0.43100
C 	C 	0.70220 0.93580 0.82730 0.05800
C 	C 	0.85570 0.00960 0.42460 0.45200
C 	C 	0.78740 0.61540 0.40780 -0.08600
C 	C 	0.40770 0.07960 0.83400 -0.06800
C 	C 	0.25370 0.11060 0.14360 -0.17500
C 	C 	0.87860 0.57720 0.86430 0.00100
C 	C 	0.19430 0.79660 0.59520 -0.08600
C 	C 	0.12140 0.42280 0.13570 0.00100
C 	C 	0.25740 0.06720 0.90150 -0.13500
C 	C 	0.84670 0.93400 0.89870 0.50100
C 	C 	0.31000 0.02860 0.85410 0.01000
C 	C 	0.84480 0.56980 0.42510 -0.00400
C 	C 	0.44840 0.77880 0.16450 0.13900
C 	C 	0.55460 0.80340 0.77430 0.00000
C 	C 	0.55250 0.83280 0.14070 -0.00700
C 	C 	0.69860 0.57720 0.36430 0.00200
C 	C 	0.16750 0.50860 0.16310 -0.06700
C 	C 	0.80570 0.20340 0.40480 -0.08600
C 	C 	0.30380 0.19960 0.15600 0.05200
C 	C 	0.85450 0.15420 0.42690 0.04000
N 	N 	0.39850 0.81480 0.20520 -0.22300
N 	N 	0.28370 0.69320 0.64520 -0.22200
N 	N 	0.26020 0.68020 0.21030 -0.21800
N 	N 	0.59050 0.30680 0.85480 -0.22300
N 	N 	0.73980 0.31980 0.78970 -0.21800
N 	N 	0.41630 0.81480 0.70520 -0.22200
N 	N 	0.58000 0.31980 0.28970 -0.21800
N 	N 	0.60150 0.18520 0.79480 -0.22300
N 	N 	0.40950 0.69320 0.14520 -0.22300
N 	N 	0.42000 0.68020 0.71030 -0.21800
N 	N 	0.71630 0.30680 0.35480 -0.22200
N 	N 	0.58370 0.18520 0.29480 -0.22200
O 	O 	0.09570 0.04460 0.94990 -0.54900
O 	O 	0.86780 0.06700 0.08000 -0.45800
O 	O 	0.78510 0.75140 0.41680 -0.42700
O 	O 	0.86160 0.98920 0.57920 -0.54100
O 	O 	0.16290 0.26040 0.01730 -0.41300
O 	O 	0.96630 0.75140 0.91680 -0.42200
O 	O 	0.05110 0.95540 0.55010 -0.55100
O 	O 	0.00380 0.10980 0.58960 -0.50500
O 	O 	0.09750 0.26040 0.51730 -0.41900
O 	O 	0.83710 0.73960 0.98270 -0.41300
O 	O 	0.89400 0.89020 0.91040 -0.49000
O 	O 	0.94890 0.04460 0.44990 -0.55100
O 	O 	0.13840 0.01080 0.42080 -0.54100
O 	O 	0.87240 0.01080 0.92080 -0.52500
O 	O 	0.90250 0.73960 0.48270 -0.41900
O 	O 	0.90430 0.95540 0.05010 -0.54900
O 	O 	0.13220 0.93300 0.92000 -0.45800
O 	O 	0.99620 0.89020 0.41040 -0.50500
O 	O 	0.21490 0.24860 0.58320 -0.42700
O 	O 	0.03370 0.24860 0.08320 -0.42200
O 	O 	0.19920 0.06700 0.58000 -0.47300
O 	O 	0.10600 0.10980 0.08960 -0.49000
O 	O 	0.80080 0.93300 0.42000 -0.47300
O 	O 	0.12760 0.98920 0.07920 -0.52500
