data_crystal

_cell_length_a 6.56750
_cell_length_b 16.40260
_cell_length_c 13.16430
_cell_angle_alpha 90.00000
_cell_angle_beta  90.00000
_cell_angle_gamma 90.00000

_symmetry_space_group_name_	'P 1'
_symmetry_space_group_name_H-M	'P 1'

loop_
_symmetry_equiv_pos_as_xyz
  x,y,z

loop_
_atom_site_label
_atom_site_type_symbol
_atom_site_fract_x
_atom_site_fract_y
_atom_site_fract_z
_atom_site_charge
O 	O 	0.16720 0.16903 0.84036 -0.61500
C 	C 	0.80610 0.02640 0.95370 0.04600
O 	O 	0.66720 0.66903 0.34036 -0.61800
C 	C 	0.30610 0.52640 0.45370 0.05800
O 	O 	0.83280 0.33097 0.84036 -0.62700
C 	C 	0.19390 0.47360 0.95370 0.05500
O 	O 	0.33280 0.83097 0.34036 -0.61300
C 	C 	0.69390 0.97360 0.45370 0.05200
O 	O 	0.83280 0.66903 0.15964 -0.62700
C 	C 	0.19390 0.52640 0.04630 0.05500
O 	O 	0.33280 0.16903 0.65964 -0.61300
C 	C 	0.69390 0.02640 0.54630 0.05200
O 	O 	0.16720 0.83097 0.15964 -0.61600
C 	C 	0.80610 0.97360 0.04630 0.04500
O 	O 	0.66720 0.33097 0.65964 -0.61800
C 	C 	0.30610 0.47360 0.54630 0.05800
O 	O 	0.83280 0.83097 0.15964 -0.62700
C 	C 	0.19390 0.97360 0.04630 0.05500
O 	O 	0.33280 0.33097 0.65964 -0.61300
C 	C 	0.69390 0.47360 0.54630 0.05200
O 	O 	0.16720 0.66903 0.15964 -0.61600
C 	C 	0.80610 0.52640 0.04630 0.04400
O 	O 	0.66720 0.16903 0.65964 -0.61800
C 	C 	0.30610 0.02640 0.54630 0.05800
O 	O 	0.16720 0.33097 0.84036 -0.61600
C 	C 	0.80610 0.47360 0.95370 0.04400
O 	O 	0.66720 0.83097 0.34036 -0.61800
C 	C 	0.30610 0.97360 0.45370 0.05800
O 	O 	0.83280 0.16903 0.84036 -0.62700
C 	C 	0.19390 0.02640 0.95370 0.05500
O 	O 	0.33280 0.66903 0.34036 -0.61300
C 	C 	0.69390 0.52640 0.45370 0.05200
Al	Al	0.25000 0.25000 0.75000 2.41000
Al	Al	0.75000 0.25000 0.75000 2.40900
Al	Al	0.75000 0.75000 0.25000 2.40900
Al	Al	0.25000 0.75000 0.25000 2.41000
F 	F 	0.00000 0.25000 0.69310 -0.96900
F 	F 	0.50000 0.75000 0.19310 -0.97600
F 	F 	-0.00000 0.75000 0.30690 -0.96900
F 	F 	0.50000 0.25000 0.80690 -0.97600
C 	C 	0.00000 0.06410 0.94900 -0.10200
C 	C 	0.00000 0.13630 0.86830 0.52800
C 	C 	0.50000 0.56410 0.44900 -0.11300
C 	C 	0.50000 0.63630 0.36830 0.51400
C 	C 	-0.00000 0.43590 0.94900 -0.10200
C 	C 	0.00000 0.36370 0.86830 0.52800
C 	C 	0.50000 0.93590 0.44900 -0.11300
C 	C 	0.50000 0.86370 0.36830 0.51400
C 	C 	0.00000 0.56410 0.05100 -0.10200
C 	C 	0.00000 0.63630 0.13170 0.52800
C 	C 	0.50000 0.06410 0.55100 -0.11300
C 	C 	0.50000 0.13630 0.63170 0.51400
C 	C 	0.00000 0.93590 0.05100 -0.10200
C 	C 	-0.00000 0.86370 0.13170 0.52800
C 	C 	0.50000 0.43590 0.55100 -0.11300
C 	C 	0.50000 0.36370 0.63170 0.51400
