data_crystal

_cell_length_a 6.56850
_cell_length_b 16.40320
_cell_length_c 13.17960
_cell_angle_alpha 90.00000
_cell_angle_beta  90.00000
_cell_angle_gamma 90.00000

_symmetry_space_group_name_	'P 1'
_symmetry_space_group_name_H-M	'P 1'

loop_
_symmetry_equiv_pos_as_xyz
  x,y,z

loop_
_atom_site_label
_atom_site_type_symbol
_atom_site_fract_x
_atom_site_fract_y
_atom_site_fract_z
_atom_site_charge
O 	O 	0.17030 0.16798 0.83950 -0.61400
C 	C 	0.80510 0.02940 0.95770 0.04700
O 	O 	0.67030 0.66798 0.33950 -0.61600
C 	C 	0.30510 0.52940 0.45770 0.06100
O 	O 	0.82970 0.33202 0.83950 -0.62700
C 	C 	0.19490 0.47060 0.95770 0.05700
O 	O 	0.32970 0.83202 0.33950 -0.61100
C 	C 	0.69490 0.97060 0.45770 0.05400
O 	O 	0.82970 0.66798 0.16050 -0.62700
C 	C 	0.19490 0.52940 0.04230 0.05700
O 	O 	0.32970 0.16798 0.66050 -0.61100
C 	C 	0.69490 0.02940 0.54230 0.05400
O 	O 	0.17030 0.83202 0.16050 -0.61500
C 	C 	0.80510 0.97060 0.04230 0.04600
O 	O 	0.67030 0.33202 0.66050 -0.61600
C 	C 	0.30510 0.47060 0.54230 0.06100
O 	O 	0.82970 0.83202 0.16050 -0.62700
C 	C 	0.19490 0.97060 0.04230 0.05700
O 	O 	0.32970 0.33202 0.66050 -0.61100
C 	C 	0.69490 0.47060 0.54230 0.05400
O 	O 	0.17030 0.66798 0.16050 -0.61500
C 	C 	0.80510 0.52940 0.04230 0.04600
O 	O 	0.67030 0.16798 0.66050 -0.61600
C 	C 	0.30510 0.02940 0.54230 0.06100
O 	O 	0.17030 0.33202 0.83950 -0.61500
C 	C 	0.80510 0.47060 0.95770 0.04600
O 	O 	0.67030 0.83202 0.33950 -0.61600
C 	C 	0.30510 0.97060 0.45770 0.06100
O 	O 	0.82970 0.16798 0.83950 -0.62700
C 	C 	0.19490 0.02940 0.95770 0.05700
O 	O 	0.32970 0.66798 0.33950 -0.61100
C 	C 	0.69490 0.52940 0.45770 0.05400
Al	Al	0.25000 0.25000 0.75000 2.41000
Al	Al	0.75000 0.25000 0.75000 2.41000
Al	Al	0.75000 0.75000 0.25000 2.41000
Al	Al	0.25000 0.75000 0.25000 2.41000
F 	F 	0.00000 0.25000 0.69460 -0.97600
F 	F 	0.50000 0.75000 0.19460 -0.98300
F 	F 	0.00000 0.75000 0.30540 -0.97600
F 	F 	0.50000 0.25000 0.80540 -0.98300
C 	C 	0.00000 0.06320 0.94390 -0.09900
C 	C 	0.00000 0.13880 0.86860 0.52300
C 	C 	0.50000 0.56320 0.44390 -0.11200
C 	C 	0.50000 0.63880 0.36860 0.50800
C 	C 	0.00000 0.43680 0.94390 -0.09900
C 	C 	0.00000 0.36120 0.86860 0.52300
C 	C 	0.50000 0.93680 0.44390 -0.11200
C 	C 	0.50000 0.86120 0.36860 0.50800
C 	C 	-0.00000 0.56320 0.05610 -0.09900
C 	C 	-0.00000 0.63880 0.13140 0.52300
C 	C 	0.50000 0.06320 0.55610 -0.11200
C 	C 	0.50000 0.13880 0.63140 0.50800
C 	C 	-0.00000 0.93680 0.05610 -0.09900
C 	C 	-0.00000 0.86120 0.13140 0.52300
C 	C 	0.50000 0.43680 0.55610 -0.11200
C 	C 	0.50000 0.36120 0.63140 0.50800
