data_crystal

_cell_length_a 6.63050
_cell_length_b 16.78320
_cell_length_c 12.76180
_cell_angle_alpha 90.00000
_cell_angle_beta  90.00000
_cell_angle_gamma 90.00000

_symmetry_space_group_name_	'P 1'
_symmetry_space_group_name_H-M	'P 1'

loop_
_symmetry_equiv_pos_as_xyz
  x,y,z

loop_
_atom_site_label
_atom_site_type_symbol
_atom_site_fract_x
_atom_site_fract_y
_atom_site_fract_z
_atom_site_charge
O 	O 	0.16783 0.16769 0.84308 -0.64800
C 	C 	0.80830 0.03508 0.96820 0.05200
O 	O 	0.66783 0.66769 0.34308 -0.64800
C 	C 	0.30830 0.53508 0.46820 0.05500
O 	O 	0.83217 0.33231 0.84308 -0.65000
C 	C 	0.19170 0.46492 0.96820 0.05500
O 	O 	0.33217 0.83231 0.34308 -0.64700
C 	C 	0.69170 0.96492 0.46820 0.05400
O 	O 	0.83217 0.66769 0.15692 -0.64900
C 	C 	0.19170 0.53508 0.03180 0.05600
O 	O 	0.33217 0.16769 0.65692 -0.64600
C 	C 	0.69170 0.03508 0.53180 0.05500
O 	O 	0.16783 0.83231 0.15692 -0.64700
C 	C 	0.80830 0.96492 0.03180 0.05300
O 	O 	0.66783 0.33231 0.65692 -0.64700
C 	C 	0.30830 0.46492 0.53180 0.05600
O 	O 	0.83217 0.83231 0.15692 -0.64900
C 	C 	0.19170 0.96492 0.03180 0.05600
O 	O 	0.33217 0.33231 0.65692 -0.64600
C 	C 	0.69170 0.46492 0.53180 0.05500
O 	O 	0.16783 0.66769 0.15692 -0.64700
C 	C 	0.80830 0.53508 0.03180 0.05300
O 	O 	0.66783 0.16769 0.65692 -0.64700
C 	C 	0.30830 0.03508 0.53180 0.05600
O 	O 	0.16783 0.33231 0.84308 -0.64700
C 	C 	0.80830 0.46492 0.96820 0.05300
O 	O 	0.66783 0.83231 0.34308 -0.64700
C 	C 	0.30830 0.96492 0.46820 0.05600
O 	O 	0.83217 0.16769 0.84308 -0.64900
C 	C 	0.19170 0.03508 0.96820 0.05600
O 	O 	0.33217 0.66769 0.34308 -0.64600
C 	C 	0.69170 0.53508 0.46820 0.05500
Al	Al	0.25000 0.25000 0.75000 2.40000
Al	Al	0.75000 0.25000 0.75000 2.40000
Al	Al	0.75000 0.75000 0.25000 2.40000
Al	Al	0.25000 0.75000 0.25000 2.40000
O 	O 	0.00000 0.25000 0.68500 -0.84000
O 	O 	0.50000 0.75000 0.18500 -0.84200
O 	O 	0.00000 0.75000 0.31500 -0.84000
O 	O 	0.50000 0.25000 0.81500 -0.84200
C 	C 	0.00000 0.06280 0.94440 -0.11800
C 	C 	0.00000 0.13835 0.87040 0.52700
C 	C 	0.50000 0.56280 0.44440 -0.12100
C 	C 	0.50000 0.63835 0.37040 0.52400
C 	C 	-0.00000 0.43720 0.94440 -0.11800
C 	C 	0.00000 0.36165 0.87040 0.52700
C 	C 	0.50000 0.93720 0.44440 -0.12100
C 	C 	0.50000 0.86165 0.37040 0.52400
C 	C 	0.00000 0.56280 0.05560 -0.11800
C 	C 	0.00000 0.63835 0.12960 0.52700
C 	C 	0.50000 0.06280 0.55560 -0.12100
C 	C 	0.50000 0.13835 0.62960 0.52400
C 	C 	-0.00000 0.93720 0.05560 -0.11800
C 	C 	0.00000 0.86165 0.12960 0.52700
C 	C 	0.50000 0.43720 0.55560 -0.12100
C 	C 	0.50000 0.36165 0.62960 0.52400
