data_crystal

_cell_length_a 6.56810
_cell_length_b 16.39280
_cell_length_c 13.19950
_cell_angle_alpha 90.00000
_cell_angle_beta  90.00000
_cell_angle_gamma 90.00000

_symmetry_space_group_name_	'P 1'
_symmetry_space_group_name_H-M	'P 1'

loop_
_symmetry_equiv_pos_as_xyz
  x,y,z

loop_
_atom_site_label
_atom_site_type_symbol
_atom_site_fract_x
_atom_site_fract_y
_atom_site_fract_z
_atom_site_charge
O 	O 	0.16710 0.16883 0.83996 -0.60900
C 	C 	0.80480 0.02990 0.95770 0.04300
O 	O 	0.66710 0.66883 0.33996 -0.61200
C 	C 	0.30480 0.52990 0.45770 0.06000
O 	O 	0.83290 0.33117 0.83996 -0.62200
C 	C 	0.19520 0.47010 0.95770 0.05600
O 	O 	0.33290 0.83117 0.33996 -0.60500
C 	C 	0.69520 0.97010 0.45770 0.05300
O 	O 	0.83290 0.66883 0.16004 -0.62200
C 	C 	0.19520 0.52990 0.04230 0.05600
O 	O 	0.33290 0.16883 0.66004 -0.60500
C 	C 	0.69520 0.02990 0.54230 0.05300
O 	O 	0.16710 0.83117 0.16004 -0.60800
C 	C 	0.80480 0.97010 0.04230 0.04400
O 	O 	0.66710 0.33117 0.66004 -0.61100
C 	C 	0.30480 0.47010 0.54230 0.06100
O 	O 	0.83290 0.83117 0.16004 -0.62200
C 	C 	0.19520 0.97010 0.04230 0.05600
O 	O 	0.33290 0.33117 0.66004 -0.60500
C 	C 	0.69520 0.47010 0.54230 0.05300
O 	O 	0.16710 0.66883 0.16004 -0.60800
C 	C 	0.80480 0.52990 0.04230 0.04400
O 	O 	0.66710 0.16883 0.66004 -0.61100
C 	C 	0.30480 0.02990 0.54230 0.06100
O 	O 	0.16710 0.33117 0.83996 -0.60800
C 	C 	0.80480 0.47010 0.95770 0.04400
O 	O 	0.66710 0.83117 0.33996 -0.61100
C 	C 	0.30480 0.97010 0.45770 0.06100
O 	O 	0.83290 0.16883 0.83996 -0.62200
C 	C 	0.19520 0.02990 0.95770 0.05600
O 	O 	0.33290 0.66883 0.33996 -0.60500
C 	C 	0.69520 0.52990 0.45770 0.05300
Al	Al	0.25000 0.25000 0.75000 2.40900
Al	Al	0.75000 0.25000 0.75000 2.40900
Al	Al	0.75000 0.75000 0.25000 2.40900
Al	Al	0.25000 0.75000 0.25000 2.40900
F 	F 	-0.00000 0.25000 0.69240 -0.96500
F 	F 	0.50000 0.75000 0.19240 -0.97300
F 	F 	0.00000 0.75000 0.30760 -0.96500
F 	F 	0.50000 0.25000 0.80760 -0.97300
C 	C 	0.00000 0.06250 0.94790 -0.10400
C 	C 	0.00000 0.13510 0.86980 0.51600
C 	C 	0.50000 0.56250 0.44790 -0.11900
C 	C 	0.50000 0.63510 0.36980 0.50000
C 	C 	-0.00000 0.43750 0.94790 -0.10400
C 	C 	-0.00000 0.36490 0.86980 0.51600
C 	C 	0.50000 0.93750 0.44790 -0.11900
C 	C 	0.50000 0.86490 0.36980 0.50000
C 	C 	0.00000 0.56250 0.05210 -0.10400
C 	C 	0.00000 0.63510 0.13020 0.51600
C 	C 	0.50000 0.06250 0.55210 -0.11900
C 	C 	0.50000 0.13510 0.63020 0.50000
C 	C 	-0.00000 0.93750 0.05210 -0.10400
C 	C 	0.00000 0.86490 0.13020 0.51600
C 	C 	0.50000 0.43750 0.55210 -0.11900
C 	C 	0.50000 0.36490 0.63020 0.50000
