data_crystal

_cell_length_a 6.56770
_cell_length_b 16.39840
_cell_length_c 13.16400
_cell_angle_alpha 90.00000
_cell_angle_beta  90.00000
_cell_angle_gamma 90.00000

_symmetry_space_group_name_	'P 1'
_symmetry_space_group_name_H-M	'P 1'

loop_
_symmetry_equiv_pos_as_xyz
  x,y,z

loop_
_atom_site_label
_atom_site_type_symbol
_atom_site_fract_x
_atom_site_fract_y
_atom_site_fract_z
_atom_site_charge
O 	O 	0.16900 0.16818 0.83997 -0.61600
C 	C 	0.80710 0.02650 0.95430 0.04400
O 	O 	0.66900 0.66818 0.33997 -0.61700
C 	C 	0.30710 0.52650 0.45430 0.05900
O 	O 	0.83100 0.33182 0.83997 -0.62600
C 	C 	0.19290 0.47350 0.95430 0.05500
O 	O 	0.33100 0.83182 0.33997 -0.61200
C 	C 	0.69290 0.97350 0.45430 0.05200
O 	O 	0.83100 0.66818 0.16003 -0.62600
C 	C 	0.19290 0.52650 0.04570 0.05500
O 	O 	0.33100 0.16818 0.66003 -0.61200
C 	C 	0.69290 0.02650 0.54570 0.05200
O 	O 	0.16900 0.83182 0.16003 -0.61500
C 	C 	0.80710 0.97350 0.04570 0.04500
O 	O 	0.66900 0.33182 0.66003 -0.61700
C 	C 	0.30710 0.47350 0.54570 0.05900
O 	O 	0.83100 0.83182 0.16003 -0.62600
C 	C 	0.19290 0.97350 0.04570 0.05500
O 	O 	0.33100 0.33182 0.66003 -0.61200
C 	C 	0.69290 0.47350 0.54570 0.05200
O 	O 	0.16900 0.66818 0.16003 -0.61500
C 	C 	0.80710 0.52650 0.04570 0.04400
O 	O 	0.66900 0.16818 0.66003 -0.61700
C 	C 	0.30710 0.02650 0.54570 0.05900
O 	O 	0.16900 0.33182 0.83997 -0.61500
C 	C 	0.80710 0.47350 0.95430 0.04400
O 	O 	0.66900 0.83182 0.33997 -0.61700
C 	C 	0.30710 0.97350 0.45430 0.05900
O 	O 	0.83100 0.16818 0.83997 -0.62600
C 	C 	0.19290 0.02650 0.95430 0.05500
O 	O 	0.33100 0.66818 0.33997 -0.61200
C 	C 	0.69290 0.52650 0.45430 0.05200
Al	Al	0.25000 0.25000 0.75000 2.41000
Al	Al	0.75000 0.25000 0.75000 2.40900
Al	Al	0.75000 0.75000 0.25000 2.40900
Al	Al	0.25000 0.75000 0.25000 2.41000
F 	F 	0.00000 0.25000 0.69370 -0.97300
F 	F 	0.50000 0.75000 0.19370 -0.98000
F 	F 	-0.00000 0.75000 0.30630 -0.97300
F 	F 	0.50000 0.25000 0.80630 -0.98000
C 	C 	-0.00000 0.06410 0.94980 -0.09600
C 	C 	-0.00000 0.13890 0.87050 0.52300
C 	C 	0.50000 0.56410 0.44980 -0.10800
C 	C 	0.50000 0.63890 0.37050 0.50800
C 	C 	0.00000 0.43590 0.94980 -0.09600
C 	C 	-0.00000 0.36110 0.87050 0.52300
C 	C 	0.50000 0.93590 0.44980 -0.10800
C 	C 	0.50000 0.86110 0.37050 0.50800
C 	C 	-0.00000 0.56410 0.05020 -0.09600
C 	C 	-0.00000 0.63890 0.12950 0.52300
C 	C 	0.50000 0.06410 0.55020 -0.10800
C 	C 	0.50000 0.13890 0.62950 0.50800
C 	C 	0.00000 0.93590 0.05020 -0.09600
C 	C 	-0.00000 0.86110 0.12950 0.52300
C 	C 	0.50000 0.43590 0.55020 -0.10800
C 	C 	0.50000 0.36110 0.62950 0.50800
