data_crystal

_cell_length_a 6.56800
_cell_length_b 16.38850
_cell_length_c 13.16820
_cell_angle_alpha 90.00000
_cell_angle_beta  90.00000
_cell_angle_gamma 90.00000

_symmetry_space_group_name_	'P 1'
_symmetry_space_group_name_H-M	'P 1'

loop_
_symmetry_equiv_pos_as_xyz
  x,y,z

loop_
_atom_site_label
_atom_site_type_symbol
_atom_site_fract_x
_atom_site_fract_y
_atom_site_fract_z
_atom_site_charge
O 	O 	0.16920 0.16741 0.83870 -0.60800
C 	C 	0.80830 0.02770 0.95660 0.04700
O 	O 	0.66920 0.66741 0.33870 -0.61100
C 	C 	0.30830 0.52770 0.45660 0.06400
O 	O 	0.83080 0.33259 0.83870 -0.62300
C 	C 	0.19170 0.47230 0.95660 0.05800
O 	O 	0.33080 0.83259 0.33870 -0.60600
C 	C 	0.69170 0.97230 0.45660 0.05500
O 	O 	0.83080 0.66741 0.16130 -0.62300
C 	C 	0.19170 0.52770 0.04340 0.05800
O 	O 	0.33080 0.16741 0.66130 -0.60600
C 	C 	0.69170 0.02770 0.54340 0.05500
O 	O 	0.16920 0.83259 0.16130 -0.60900
C 	C 	0.80830 0.97230 0.04340 0.04600
O 	O 	0.66920 0.33259 0.66130 -0.61200
C 	C 	0.30830 0.47230 0.54340 0.06300
O 	O 	0.83080 0.83259 0.16130 -0.62300
C 	C 	0.19170 0.97230 0.04340 0.05800
O 	O 	0.33080 0.33259 0.66130 -0.60600
C 	C 	0.69170 0.47230 0.54340 0.05500
O 	O 	0.16920 0.66741 0.16130 -0.60900
C 	C 	0.80830 0.52770 0.04340 0.04600
O 	O 	0.66920 0.16741 0.66130 -0.61200
C 	C 	0.30830 0.02770 0.54340 0.06300
O 	O 	0.16920 0.33259 0.83870 -0.60900
C 	C 	0.80830 0.47230 0.95660 0.04600
O 	O 	0.66920 0.83259 0.33870 -0.61200
C 	C 	0.30830 0.97230 0.45660 0.06300
O 	O 	0.83080 0.16741 0.83870 -0.62300
C 	C 	0.19170 0.02770 0.95660 0.05800
O 	O 	0.33080 0.66741 0.33870 -0.60600
C 	C 	0.69170 0.52770 0.45660 0.05500
Al	Al	0.25000 0.25000 0.75000 2.40900
Al	Al	0.75000 0.25000 0.75000 2.40900
Al	Al	0.75000 0.75000 0.25000 2.40900
Al	Al	0.25000 0.75000 0.25000 2.40900
F 	F 	-0.00000 0.25000 0.69310 -0.96900
F 	F 	0.50000 0.75000 0.19310 -0.97800
F 	F 	0.00000 0.75000 0.30690 -0.96900
F 	F 	0.50000 0.25000 0.80690 -0.97800
C 	C 	-0.00000 0.06370 0.94570 -0.10300
C 	C 	-0.00000 0.14110 0.87540 0.51400
C 	C 	0.50000 0.56370 0.44570 -0.11700
C 	C 	0.50000 0.64110 0.37540 0.49700
C 	C 	-0.00000 0.43630 0.94570 -0.10200
C 	C 	-0.00000 0.35890 0.87540 0.51400
C 	C 	0.50000 0.93630 0.44570 -0.11700
C 	C 	0.50000 0.85890 0.37540 0.49700
C 	C 	-0.00000 0.56370 0.05430 -0.10200
C 	C 	0.00000 0.64110 0.12460 0.51400
C 	C 	0.50000 0.06370 0.55430 -0.11700
C 	C 	0.50000 0.14110 0.62460 0.49700
C 	C 	-0.00000 0.93630 0.05430 -0.10300
C 	C 	-0.00000 0.85890 0.12460 0.51400
C 	C 	0.50000 0.43630 0.55430 -0.11700
C 	C 	0.50000 0.35890 0.62460 0.49700
