data_crystal

_cell_length_a 6.56470
_cell_length_b 16.40300
_cell_length_c 13.17620
_cell_angle_alpha 90.00000
_cell_angle_beta  90.00000
_cell_angle_gamma 90.00000

_symmetry_space_group_name_	'P 1'
_symmetry_space_group_name_H-M	'P 1'

loop_
_symmetry_equiv_pos_as_xyz
  x,y,z

loop_
_atom_site_label
_atom_site_type_symbol
_atom_site_fract_x
_atom_site_fract_y
_atom_site_fract_z
_atom_site_charge
O 	O 	0.16900 0.16786 0.84176 -0.61300
C 	C 	0.80620 0.03050 0.96070 0.04500
O 	O 	0.66900 0.66786 0.34176 -0.61400
C 	C 	0.30620 0.53050 0.46070 0.06100
O 	O 	0.83100 0.33214 0.84176 -0.62500
C 	C 	0.19380 0.46950 0.96070 0.05700
O 	O 	0.33100 0.83214 0.34176 -0.60900
C 	C 	0.69380 0.96950 0.46070 0.05400
O 	O 	0.83100 0.66786 0.15824 -0.62500
C 	C 	0.19380 0.53050 0.03930 0.05700
O 	O 	0.33100 0.16786 0.65824 -0.60900
C 	C 	0.69380 0.03050 0.53930 0.05400
O 	O 	0.16900 0.83214 0.15824 -0.61200
C 	C 	0.80620 0.96950 0.03930 0.04600
O 	O 	0.66900 0.33214 0.65824 -0.61400
C 	C 	0.30620 0.46950 0.53930 0.06100
O 	O 	0.83100 0.83214 0.15824 -0.62500
C 	C 	0.19380 0.96950 0.03930 0.05700
O 	O 	0.33100 0.33214 0.65824 -0.60900
C 	C 	0.69380 0.46950 0.53930 0.05400
O 	O 	0.16900 0.66786 0.15824 -0.61200
C 	C 	0.80620 0.53050 0.03930 0.04600
O 	O 	0.66900 0.16786 0.65824 -0.61400
C 	C 	0.30620 0.03050 0.53930 0.06100
O 	O 	0.16900 0.33214 0.84176 -0.61200
C 	C 	0.80620 0.46950 0.96070 0.04600
O 	O 	0.66900 0.83214 0.34176 -0.61400
C 	C 	0.30620 0.96950 0.46070 0.06100
O 	O 	0.83100 0.16786 0.84176 -0.62500
C 	C 	0.19380 0.03050 0.96070 0.05700
O 	O 	0.33100 0.66786 0.34176 -0.60900
C 	C 	0.69380 0.53050 0.46070 0.05400
Al	Al	0.25000 0.25000 0.75000 2.40700
Al	Al	0.75000 0.25000 0.75000 2.40600
Al	Al	0.75000 0.75000 0.25000 2.40600
Al	Al	0.25000 0.75000 0.25000 2.40700
F 	F 	0.00000 0.25000 0.69080 -0.96800
F 	F 	0.50000 0.75000 0.19080 -0.97600
F 	F 	-0.00000 0.75000 0.30920 -0.96800
F 	F 	0.50000 0.25000 0.80920 -0.97600
C 	C 	0.00000 0.06180 0.94630 -0.10200
C 	C 	-0.00000 0.13790 0.87160 0.52000
C 	C 	0.50000 0.56180 0.44630 -0.11500
C 	C 	0.50000 0.63790 0.37160 0.50500
C 	C 	0.00000 0.43820 0.94630 -0.10200
C 	C 	0.00000 0.36210 0.87160 0.52000
C 	C 	0.50000 0.93820 0.44630 -0.11500
C 	C 	0.50000 0.86210 0.37160 0.50500
C 	C 	-0.00000 0.56180 0.05370 -0.10200
C 	C 	-0.00000 0.63790 0.12840 0.52000
C 	C 	0.50000 0.06180 0.55370 -0.11500
C 	C 	0.50000 0.13790 0.62840 0.50500
C 	C 	-0.00000 0.93820 0.05370 -0.10200
C 	C 	-0.00000 0.86210 0.12840 0.52000
C 	C 	0.50000 0.43820 0.55370 -0.11500
C 	C 	0.50000 0.36210 0.62840 0.50500
