data_crystal

_cell_length_a 6.62930
_cell_length_b 16.75150
_cell_length_c 12.80190
_cell_angle_alpha 90.00000
_cell_angle_beta  90.00000
_cell_angle_gamma 90.00000

_symmetry_space_group_name_	'P 1'
_symmetry_space_group_name_H-M	'P 1'

loop_
_symmetry_equiv_pos_as_xyz
  x,y,z

loop_
_atom_site_label
_atom_site_type_symbol
_atom_site_fract_x
_atom_site_fract_y
_atom_site_fract_z
_atom_site_charge
O 	O 	0.16606 0.16780 0.84380 -0.65500
C 	C 	0.80790 0.03456 0.96680 0.05600
O 	O 	0.66606 0.66780 0.34380 -0.65500
C 	C 	0.30790 0.53456 0.46680 0.05700
O 	O 	0.83394 0.33220 0.84380 -0.65500
C 	C 	0.19210 0.46544 0.96680 0.05600
O 	O 	0.33394 0.83220 0.34380 -0.65500
C 	C 	0.69210 0.96544 0.46680 0.05600
O 	O 	0.83394 0.66780 0.15620 -0.65500
C 	C 	0.19210 0.53456 0.03320 0.05600
O 	O 	0.33394 0.16780 0.65620 -0.65500
C 	C 	0.69210 0.03456 0.53320 0.05600
O 	O 	0.16606 0.83220 0.15620 -0.65600
C 	C 	0.80790 0.96544 0.03320 0.05500
O 	O 	0.66606 0.33220 0.65620 -0.65600
C 	C 	0.30790 0.46544 0.53320 0.05600
O 	O 	0.83394 0.83220 0.15620 -0.65600
C 	C 	0.19210 0.96544 0.03320 0.05500
O 	O 	0.33394 0.33220 0.65620 -0.65600
C 	C 	0.69210 0.46544 0.53320 0.05500
O 	O 	0.16606 0.66780 0.15620 -0.65600
C 	C 	0.80790 0.53456 0.03320 0.05500
O 	O 	0.66606 0.16780 0.65620 -0.65600
C 	C 	0.30790 0.03456 0.53320 0.05600
O 	O 	0.16606 0.33220 0.84380 -0.65600
C 	C 	0.80790 0.46544 0.96680 0.05500
O 	O 	0.66606 0.83220 0.34380 -0.65600
C 	C 	0.30790 0.96544 0.46680 0.05600
O 	O 	0.83394 0.16780 0.84380 -0.65600
C 	C 	0.19210 0.03456 0.96680 0.05500
O 	O 	0.33394 0.66780 0.34380 -0.65600
C 	C 	0.69210 0.53456 0.46680 0.05500
Al	Al	0.25000 0.25000 0.75000 2.39900
Al	Al	0.75000 0.25000 0.75000 2.39900
Al	Al	0.75000 0.75000 0.25000 2.39900
Al	Al	0.25000 0.75000 0.25000 2.39900
O 	O 	0.00000 0.25000 0.68450 -0.84100
O 	O 	0.50000 0.75000 0.18450 -0.84100
O 	O 	0.00000 0.75000 0.31550 -0.84100
O 	O 	0.50000 0.25000 0.81550 -0.84100
C 	C 	0.00000 0.06260 0.94570 -0.12300
C 	C 	0.00000 0.13860 0.87020 0.54400
C 	C 	0.50000 0.56260 0.44570 -0.12300
C 	C 	0.50000 0.63860 0.37020 0.54400
C 	C 	-0.00000 0.43740 0.94570 -0.12300
C 	C 	0.00000 0.36140 0.87020 0.54400
C 	C 	0.50000 0.93740 0.44570 -0.12300
C 	C 	0.50000 0.86140 0.37020 0.54400
C 	C 	0.00000 0.56260 0.05430 -0.12300
C 	C 	-0.00000 0.63860 0.12980 0.54400
C 	C 	0.50000 0.06260 0.55430 -0.12300
C 	C 	0.50000 0.13860 0.62980 0.54400
C 	C 	-0.00000 0.93740 0.05430 -0.12300
C 	C 	0.00000 0.86140 0.12980 0.54400
C 	C 	0.50000 0.43740 0.55430 -0.12300
C 	C 	0.50000 0.36140 0.62980 0.54400
