data_crystal

_cell_length_a 6.62850
_cell_length_b 16.71210
_cell_length_c 12.85300
_cell_angle_alpha 90.00000
_cell_angle_beta  90.00000
_cell_angle_gamma 90.00000

_symmetry_space_group_name_	'P 1'
_symmetry_space_group_name_H-M	'P 1'

loop_
_symmetry_equiv_pos_as_xyz
  x,y,z

loop_
_atom_site_label
_atom_site_type_symbol
_atom_site_fract_x
_atom_site_fract_y
_atom_site_fract_z
_atom_site_charge
O 	O 	0.16496 0.16866 0.84287 -0.64000
C 	C 	0.80970 0.03598 0.96820 0.05300
O 	O 	0.66496 0.66866 0.34287 -0.64200
C 	C 	0.30970 0.53598 0.46820 0.05800
O 	O 	0.83504 0.33134 0.84287 -0.64500
C 	C 	0.19030 0.46402 0.96820 0.05600
O 	O 	0.33504 0.83134 0.34287 -0.64000
C 	C 	0.69030 0.96402 0.46820 0.05500
O 	O 	0.83504 0.66866 0.15713 -0.64500
C 	C 	0.19030 0.53598 0.03180 0.05600
O 	O 	0.33504 0.16866 0.65713 -0.64000
C 	C 	0.69030 0.03598 0.53180 0.05500
O 	O 	0.16496 0.83134 0.15713 -0.64100
C 	C 	0.80970 0.96402 0.03180 0.05200
O 	O 	0.66496 0.33134 0.65713 -0.64200
C 	C 	0.30970 0.46402 0.53180 0.05800
O 	O 	0.83504 0.83134 0.15713 -0.64500
C 	C 	0.19030 0.96402 0.03180 0.05600
O 	O 	0.33504 0.33134 0.65713 -0.64000
C 	C 	0.69030 0.46402 0.53180 0.05500
O 	O 	0.16496 0.66866 0.15713 -0.64100
C 	C 	0.80970 0.53598 0.03180 0.05200
O 	O 	0.66496 0.16866 0.65713 -0.64200
C 	C 	0.30970 0.03598 0.53180 0.05800
O 	O 	0.16496 0.33134 0.84287 -0.64100
C 	C 	0.80970 0.46402 0.96820 0.05200
O 	O 	0.66496 0.83134 0.34287 -0.64200
C 	C 	0.30970 0.96402 0.46820 0.05800
O 	O 	0.83504 0.16866 0.84287 -0.64500
C 	C 	0.19030 0.03598 0.96820 0.05600
O 	O 	0.33504 0.66866 0.34287 -0.64000
C 	C 	0.69030 0.53598 0.46820 0.05500
Al	Al	0.25000 0.25000 0.75000 2.40000
Al	Al	0.75000 0.25000 0.75000 2.40000
Al	Al	0.75000 0.75000 0.25000 2.40000
Al	Al	0.25000 0.75000 0.25000 2.40000
O 	O 	-0.00000 0.25000 0.68540 -0.83500
O 	O 	0.50000 0.75000 0.18540 -0.83800
O 	O 	-0.00000 0.75000 0.31460 -0.83500
O 	O 	0.50000 0.25000 0.81460 -0.83800
C 	C 	-0.00000 0.06220 0.94820 -0.12700
C 	C 	0.00000 0.13580 0.87220 0.52300
C 	C 	0.50000 0.56220 0.44820 -0.13100
C 	C 	0.50000 0.63580 0.37220 0.51800
C 	C 	-0.00000 0.43780 0.94820 -0.12700
C 	C 	0.00000 0.36420 0.87220 0.52300
C 	C 	0.50000 0.93780 0.44820 -0.13100
C 	C 	0.50000 0.86420 0.37220 0.51800
C 	C 	0.00000 0.56220 0.05180 -0.12700
C 	C 	0.00000 0.63580 0.12780 0.52300
C 	C 	0.50000 0.06220 0.55180 -0.13100
C 	C 	0.50000 0.13580 0.62780 0.51800
C 	C 	-0.00000 0.93780 0.05180 -0.12700
C 	C 	0.00000 0.86420 0.12780 0.52300
C 	C 	0.50000 0.43780 0.55180 -0.13100
C 	C 	0.50000 0.36420 0.62780 0.51800
