data_crystal

_cell_length_a 6.62910
_cell_length_b 16.74570
_cell_length_c 12.80990
_cell_angle_alpha 90.00000
_cell_angle_beta  90.00000
_cell_angle_gamma 90.00000

_symmetry_space_group_name_	'P 1'
_symmetry_space_group_name_H-M	'P 1'

loop_
_symmetry_equiv_pos_as_xyz
  x,y,z

loop_
_atom_site_label
_atom_site_type_symbol
_atom_site_fract_x
_atom_site_fract_y
_atom_site_fract_z
_atom_site_charge
O 	O 	0.16623 0.16774 0.84358 -0.65400
C 	C 	0.80850 0.03516 0.96700 0.05400
O 	O 	0.66623 0.66774 0.34358 -0.65300
C 	C 	0.30850 0.53516 0.46700 0.05600
O 	O 	0.83377 0.33226 0.84358 -0.65400
C 	C 	0.19150 0.46484 0.96700 0.05600
O 	O 	0.33377 0.83226 0.34358 -0.65300
C 	C 	0.69150 0.96484 0.46700 0.05600
O 	O 	0.83377 0.66774 0.15642 -0.65400
C 	C 	0.19150 0.53516 0.03300 0.05600
O 	O 	0.33377 0.16774 0.65642 -0.65300
C 	C 	0.69150 0.03516 0.53300 0.05600
O 	O 	0.16623 0.83226 0.15642 -0.65300
C 	C 	0.80850 0.96484 0.03300 0.05500
O 	O 	0.66623 0.33226 0.65642 -0.65300
C 	C 	0.30850 0.46484 0.53300 0.05600
O 	O 	0.83377 0.83226 0.15642 -0.65400
C 	C 	0.19150 0.96484 0.03300 0.05600
O 	O 	0.33377 0.33226 0.65642 -0.65300
C 	C 	0.69150 0.46484 0.53300 0.05600
O 	O 	0.16623 0.66774 0.15642 -0.65300
C 	C 	0.80850 0.53516 0.03300 0.05500
O 	O 	0.66623 0.16774 0.65642 -0.65300
C 	C 	0.30850 0.03516 0.53300 0.05600
O 	O 	0.16623 0.33226 0.84358 -0.65300
C 	C 	0.80850 0.46484 0.96700 0.05500
O 	O 	0.66623 0.83226 0.34358 -0.65300
C 	C 	0.30850 0.96484 0.46700 0.05600
O 	O 	0.83377 0.16774 0.84358 -0.65400
C 	C 	0.19150 0.03516 0.96700 0.05600
O 	O 	0.33377 0.66774 0.34358 -0.65300
C 	C 	0.69150 0.53516 0.46700 0.05600
Al	Al	0.25000 0.25000 0.75000 2.39900
Al	Al	0.75000 0.25000 0.75000 2.39900
Al	Al	0.75000 0.75000 0.25000 2.39900
Al	Al	0.25000 0.75000 0.25000 2.39900
O 	O 	0.00000 0.25000 0.68460 -0.84000
O 	O 	0.50000 0.75000 0.18460 -0.84100
O 	O 	0.00000 0.75000 0.31540 -0.84000
O 	O 	0.50000 0.25000 0.81540 -0.84100
C 	C 	0.00000 0.06190 0.94570 -0.12200
C 	C 	-0.00000 0.13850 0.87080 0.53900
C 	C 	0.50000 0.56190 0.44570 -0.12300
C 	C 	0.50000 0.63850 0.37080 0.53800
C 	C 	-0.00000 0.43810 0.94570 -0.12200
C 	C 	0.00000 0.36150 0.87080 0.53900
C 	C 	0.50000 0.93810 0.44570 -0.12300
C 	C 	0.50000 0.86150 0.37080 0.53800
C 	C 	-0.00000 0.56190 0.05430 -0.12200
C 	C 	-0.00000 0.63850 0.12920 0.53900
C 	C 	0.50000 0.06190 0.55430 -0.12300
C 	C 	0.50000 0.13850 0.62920 0.53800
C 	C 	-0.00000 0.93810 0.05430 -0.12200
C 	C 	0.00000 0.86150 0.12920 0.53900
C 	C 	0.50000 0.43810 0.55430 -0.12300
C 	C 	0.50000 0.36150 0.62920 0.53800
