data_crystal

_cell_length_a 6.56810
_cell_length_b 16.39270
_cell_length_c 13.16670
_cell_angle_alpha 90.00000
_cell_angle_beta  90.00000
_cell_angle_gamma 90.00000

_symmetry_space_group_name_	'P 1'
_symmetry_space_group_name_H-M	'P 1'

loop_
_symmetry_equiv_pos_as_xyz
  x,y,z

loop_
_atom_site_label
_atom_site_type_symbol
_atom_site_fract_x
_atom_site_fract_y
_atom_site_fract_z
_atom_site_charge
O 	O 	0.16580 0.16882 0.83940 -0.61400
C 	C 	0.80510 0.02660 0.95380 0.04500
O 	O 	0.66580 0.66882 0.33940 -0.61700
C 	C 	0.30510 0.52660 0.45380 0.05900
O 	O 	0.83420 0.33118 0.83940 -0.62600
C 	C 	0.19490 0.47340 0.95380 0.05500
O 	O 	0.33420 0.83118 0.33940 -0.61200
C 	C 	0.69490 0.97340 0.45380 0.05200
O 	O 	0.83420 0.66882 0.16060 -0.62600
C 	C 	0.19490 0.52660 0.04620 0.05500
O 	O 	0.33420 0.16882 0.66060 -0.61200
C 	C 	0.69490 0.02660 0.54620 0.05200
O 	O 	0.16580 0.83118 0.16060 -0.61500
C 	C 	0.80510 0.97340 0.04620 0.04400
O 	O 	0.66580 0.33118 0.66060 -0.61700
C 	C 	0.30510 0.47340 0.54620 0.05900
O 	O 	0.83420 0.83118 0.16060 -0.62600
C 	C 	0.19490 0.97340 0.04620 0.05500
O 	O 	0.33420 0.33118 0.66060 -0.61200
C 	C 	0.69490 0.47340 0.54620 0.05200
O 	O 	0.16580 0.66882 0.16060 -0.61500
C 	C 	0.80510 0.52660 0.04620 0.04400
O 	O 	0.66580 0.16882 0.66060 -0.61600
C 	C 	0.30510 0.02660 0.54620 0.05900
O 	O 	0.16580 0.33118 0.83940 -0.61500
C 	C 	0.80510 0.47340 0.95380 0.04400
O 	O 	0.66580 0.83118 0.33940 -0.61600
C 	C 	0.30510 0.97340 0.45380 0.05900
O 	O 	0.83420 0.16882 0.83940 -0.62600
C 	C 	0.19490 0.02660 0.95380 0.05500
O 	O 	0.33420 0.66882 0.33940 -0.61200
C 	C 	0.69490 0.52660 0.45380 0.05200
Al	Al	0.25000 0.25000 0.75000 2.40900
Al	Al	0.75000 0.25000 0.75000 2.40900
Al	Al	0.75000 0.75000 0.25000 2.40900
Al	Al	0.25000 0.75000 0.25000 2.40900
F 	F 	0.00000 0.25000 0.69130 -0.95800
F 	F 	0.50000 0.75000 0.19130 -0.96600
F 	F 	0.00000 0.75000 0.30870 -0.95800
F 	F 	0.50000 0.25000 0.80870 -0.96600
C 	C 	0.00000 0.06310 0.95080 -0.10400
C 	C 	0.00000 0.13630 0.87170 0.52300
C 	C 	0.50000 0.56310 0.45080 -0.11600
C 	C 	0.50000 0.63630 0.37170 0.50900
C 	C 	0.00000 0.43690 0.95080 -0.10400
C 	C 	0.00000 0.36370 0.87170 0.52300
C 	C 	0.50000 0.93690 0.45080 -0.11600
C 	C 	0.50000 0.86370 0.37170 0.50900
C 	C 	-0.00000 0.56310 0.04920 -0.10400
C 	C 	0.00000 0.63630 0.12830 0.52300
C 	C 	0.50000 0.06310 0.54920 -0.11600
C 	C 	0.50000 0.13630 0.62830 0.50900
C 	C 	0.00000 0.93690 0.04920 -0.10400
C 	C 	0.00000 0.86370 0.12830 0.52300
C 	C 	0.50000 0.43690 0.54920 -0.11600
C 	C 	0.50000 0.36370 0.62830 0.50900
