data_crystal

_cell_length_a 6.55280
_cell_length_b 16.43910
_cell_length_c 13.13810
_cell_angle_alpha 90.00000
_cell_angle_beta  90.00000
_cell_angle_gamma 90.57490

_symmetry_space_group_name_	'P 1'
_symmetry_space_group_name_H-M	'P 1'

loop_
_symmetry_equiv_pos_as_xyz
  x,y,z

loop_
_atom_site_label
_atom_site_type_symbol
_atom_site_fract_x
_atom_site_fract_y
_atom_site_fract_z
_atom_site_charge
O 	O 	0.15770 0.17412 0.85320 -0.63100
O 	O 	0.81880 0.65840 0.16630 -0.65100
C 	C 	0.79830 0.02390 0.94990 -0.02300
C 	C 	0.00060 0.06150 0.94500 -0.01300
C 	C 	0.00110 0.13710 0.86620 0.57000
C 	C 	0.19570 0.54160 0.02500 0.02900
O 	O 	0.65770 0.67412 0.35320 -0.64300
O 	O 	0.31880 0.15840 0.66630 -0.58000
C 	C 	0.29830 0.52390 0.44990 0.06800
C 	C 	0.50060 0.56150 0.44500 -0.09800
C 	C 	0.50110 0.63710 0.36620 0.50000
C 	C 	0.69570 0.04160 0.52500 0.04100
O 	O 	0.84230 0.32588 0.85320 -0.62400
O 	O 	0.18120 0.84160 0.16630 -0.53200
C 	C 	0.20170 0.47610 0.94990 0.12900
C 	C 	0.99940 0.43850 0.94500 -0.18400
C 	C 	0.99890 0.36290 0.86620 0.42400
C 	C 	0.80430 0.95840 0.02500 0.08400
O 	O 	0.34230 0.82588 0.35320 -0.61800
O 	O 	0.68120 0.34160 0.66630 -0.60700
C 	C 	0.70170 0.97610 0.44990 0.03100
C 	C 	0.49940 0.93850 0.44500 -0.09900
C 	C 	0.49890 0.86290 0.36620 0.49900
C 	C 	0.30430 0.45840 0.52500 0.07500
O 	O 	0.84230 0.82588 0.14680 -0.62400
O 	O 	0.18120 0.34160 0.83370 -0.53200
C 	C 	0.20170 0.97610 0.05010 0.12800
C 	C 	0.99940 0.93850 0.05500 -0.18300
C 	C 	0.99890 0.86290 0.13380 0.42400
C 	C 	0.80430 0.45840 0.97500 0.08500
O 	O 	0.34230 0.32588 0.64680 -0.61800
O 	O 	0.68120 0.84160 0.33370 -0.60700
C 	C 	0.70170 0.47610 0.55010 0.03300
C 	C 	0.49940 0.43850 0.55500 -0.10000
C 	C 	0.49890 0.36290 0.63380 0.49900
C 	C 	0.30430 0.95840 0.47500 0.07300
O 	O 	0.15770 0.67412 0.14680 -0.63200
O 	O 	0.81880 0.15840 0.83370 -0.65100
C 	C 	0.79830 0.52390 0.05010 -0.02700
C 	C 	0.00060 0.56150 0.05500 -0.01200
C 	C 	0.00110 0.63710 0.13380 0.56900
C 	C 	0.19570 0.04160 0.97500 0.03000
O 	O 	0.65770 0.17412 0.64680 -0.64300
O 	O 	0.31880 0.65840 0.33370 -0.58000
C 	C 	0.29830 0.02390 0.55010 0.07000
C 	C 	0.50060 0.06150 0.55500 -0.09900
C 	C 	0.50110 0.13710 0.63380 0.50000
C 	C 	0.69570 0.54160 0.47500 0.03800
Al	Al	0.25000 0.25000 0.75000 2.40300
Al	Al	0.75000 0.25000 0.75000 2.40100
Al	Al	0.75000 0.75000 0.25000 2.40100
Al	Al	0.25000 0.75000 0.25000 2.40300
F 	F 	0.00000 0.25000 0.68960 -0.95400
F 	F 	0.50000 0.75000 0.18960 -0.99400
F 	F 	-0.00000 0.75000 0.31040 -0.95400
F 	F 	0.50000 0.25000 0.81040 -0.99400
