data_crystal

_cell_length_a 6.62910
_cell_length_b 16.74000
_cell_length_c 12.81720
_cell_angle_alpha 90.00000
_cell_angle_beta  90.00000
_cell_angle_gamma 90.00000

_symmetry_space_group_name_	'P 1'
_symmetry_space_group_name_H-M	'P 1'

loop_
_symmetry_equiv_pos_as_xyz
  x,y,z

loop_
_atom_site_label
_atom_site_type_symbol
_atom_site_fract_x
_atom_site_fract_y
_atom_site_fract_z
_atom_site_charge
O 	O 	0.16551 0.16834 0.84281 -0.64800
C 	C 	0.80920 0.03541 0.96730 0.05500
O 	O 	0.66551 0.66834 0.34281 -0.64900
C 	C 	0.30920 0.53541 0.46730 0.05800
O 	O 	0.83449 0.33166 0.84281 -0.65100
C 	C 	0.19080 0.46459 0.96730 0.05700
O 	O 	0.33449 0.83166 0.34281 -0.64700
C 	C 	0.69080 0.96459 0.46730 0.05600
O 	O 	0.83449 0.66834 0.15719 -0.65100
C 	C 	0.19080 0.53541 0.03270 0.05700
O 	O 	0.33449 0.16834 0.65719 -0.64700
C 	C 	0.69080 0.03541 0.53270 0.05600
O 	O 	0.16551 0.83166 0.15719 -0.64800
C 	C 	0.80920 0.96459 0.03270 0.05500
O 	O 	0.66551 0.33166 0.65719 -0.64900
C 	C 	0.30920 0.46459 0.53270 0.05800
O 	O 	0.83449 0.83166 0.15719 -0.65100
C 	C 	0.19080 0.96459 0.03270 0.05700
O 	O 	0.33449 0.33166 0.65719 -0.64700
C 	C 	0.69080 0.46459 0.53270 0.05600
O 	O 	0.16551 0.66834 0.15719 -0.64800
C 	C 	0.80920 0.53541 0.03270 0.05500
O 	O 	0.66551 0.16834 0.65719 -0.64900
C 	C 	0.30920 0.03541 0.53270 0.05800
O 	O 	0.16551 0.33166 0.84281 -0.64800
C 	C 	0.80920 0.46459 0.96730 0.05500
O 	O 	0.66551 0.83166 0.34281 -0.64900
C 	C 	0.30920 0.96459 0.46730 0.05800
O 	O 	0.83449 0.16834 0.84281 -0.65100
C 	C 	0.19080 0.03541 0.96730 0.05700
O 	O 	0.33449 0.66834 0.34281 -0.64700
C 	C 	0.69080 0.53541 0.46730 0.05600
Al	Al	0.25000 0.25000 0.75000 2.40100
Al	Al	0.75000 0.25000 0.75000 2.40100
Al	Al	0.75000 0.75000 0.25000 2.40100
Al	Al	0.25000 0.75000 0.25000 2.40100
O 	O 	0.00000 0.25000 0.68630 -0.84200
O 	O 	0.50000 0.75000 0.18630 -0.84400
O 	O 	-0.00000 0.75000 0.31370 -0.84200
O 	O 	0.50000 0.25000 0.81370 -0.84400
C 	C 	0.00000 0.06290 0.94590 -0.12800
C 	C 	0.00000 0.13690 0.87030 0.53700
C 	C 	0.50000 0.56290 0.44590 -0.13100
C 	C 	0.50000 0.63690 0.37030 0.53300
C 	C 	0.00000 0.43710 0.94590 -0.12800
C 	C 	0.00000 0.36310 0.87030 0.53700
C 	C 	0.50000 0.93710 0.44590 -0.13100
C 	C 	0.50000 0.86310 0.37030 0.53300
C 	C 	0.00000 0.56290 0.05410 -0.12800
C 	C 	0.00000 0.63690 0.12970 0.53700
C 	C 	0.50000 0.06290 0.55410 -0.13100
C 	C 	0.50000 0.13690 0.62970 0.53300
C 	C 	0.00000 0.93710 0.05410 -0.12800
C 	C 	0.00000 0.86310 0.12970 0.53700
C 	C 	0.50000 0.43710 0.55410 -0.13100
C 	C 	0.50000 0.36310 0.62970 0.53300
