data_crystal

_cell_length_a 18.62960
_cell_length_b 18.62960
_cell_length_c 18.62960
_cell_angle_alpha 60.00000
_cell_angle_beta  60.00000
_cell_angle_gamma 60.00000

_symmetry_space_group_name_	'P 1'
_symmetry_space_group_name_H-M	'P 1'

loop_
_symmetry_equiv_pos_as_xyz
  x,y,z

loop_
_atom_site_label
_atom_site_type_symbol
_atom_site_fract_x
_atom_site_fract_y
_atom_site_fract_z
_atom_site_charge
Cu	Cu	0.42944 0.57056 -0.00000 0.79700
Cu	Cu	-0.00000 0.42944 -0.00000 0.68100
Cu	Cu	0.57056 0.42944 -0.00000 0.79700
Cu	Cu	0.00000 0.57056 0.42944 0.79800
Cu	Cu	0.00000 0.42944 0.57056 0.79800
Cu	Cu	-0.00000 0.57056 -0.00000 0.69400
Cu	Cu	0.57056 0.00000 0.42944 0.79800
Cu	Cu	-0.00000 0.00000 0.42944 0.68200
Cu	Cu	0.42944 -0.00000 0.57056 0.79800
Cu	Cu	0.42944 0.00000 -0.00000 0.68200
Cu	Cu	0.57056 0.00000 -0.00000 0.69400
Cu	Cu	0.00000 -0.00000 0.57056 0.69400
H 	H 	0.03150 0.72790 0.51270 0.02800
H 	H 	0.72790 0.72790 0.51270 0.09300
H 	H 	0.27210 0.96850 0.27210 0.05200
H 	H 	0.72790 0.03150 0.51270 0.02800
H 	H 	0.27210 0.27210 0.48730 0.00400
H 	H 	0.96850 0.48730 0.27210 0.07500
H 	H 	0.03150 0.51270 0.72790 0.02800
H 	H 	0.72790 0.72790 0.03150 0.05400
H 	H 	0.48730 0.27210 0.27210 0.00400
H 	H 	0.03150 0.72790 0.72790 0.05400
H 	H 	0.27210 0.27210 0.96850 0.05200
H 	H 	0.72790 0.03150 0.72790 0.05400
H 	H 	0.96850 0.27210 0.48730 0.07500
H 	H 	0.27210 0.48730 0.96850 0.07500
H 	H 	0.27210 0.48730 0.27210 0.00400
H 	H 	0.48730 0.27210 0.96850 0.07500
H 	H 	0.51270 0.03150 0.72790 0.02800
H 	H 	0.72790 0.51270 0.72790 0.09300
H 	H 	0.51270 0.72790 0.72790 0.09300
H 	H 	0.96850 0.27210 0.27210 0.05200
H 	H 	0.51270 0.72790 0.03150 0.02800
H 	H 	0.27210 0.96850 0.48730 0.07500
H 	H 	0.48730 0.96850 0.27210 0.07500
H 	H 	0.72790 0.51270 0.03150 0.02800
C 	C 	0.56898 0.02448 0.56898 0.37500
C 	C 	0.02448 0.56898 0.56898 0.37500
C 	C 	0.03112 0.69924 0.69924 0.05400
C 	C 	0.61319 0.74277 0.61319 -0.03900
C 	C 	0.03085 0.74277 0.61319 -0.11600
C 	C 	0.56898 0.83756 0.56898 0.34600
C 	C 	0.56898 0.83756 0.02448 0.35500
C 	C 	0.03112 0.69924 0.57040 0.06100
C 	C 	0.42960 0.30076 0.96888 0.03700
C 	C 	0.57040 0.03112 0.69924 0.06100
C 	C 	0.57040 0.69924 0.03112 0.06100
C 	C 	0.61319 0.74277 0.03085 -0.11600
C 	C 	0.03085 0.61319 0.74277 -0.11600
C 	C 	0.38681 0.25723 0.38681 -0.17700
C 	C 	0.03112 0.57040 0.69924 0.06100
C 	C 	0.38681 0.96915 0.38681 -0.06500
C 	C 	0.83756 0.56898 0.02448 0.35500
C 	C 	0.25723 0.38681 0.96915 -0.08300
C 	C 	0.69924 0.69924 0.03112 0.05400
C 	C 	0.96915 0.25723 0.38681 -0.08300
C 	C 	0.30076 0.30076 0.96888 0.04100
C 	C 	0.43102 0.16244 0.43102 0.38100
C 	C 	0.42960 0.96888 0.30076 0.03700
C 	C 	0.74277 0.61319 0.03085 -0.11600
C 	C 	0.83756 0.56898 0.56898 0.34600
C 	C 	0.16244 0.43102 0.43102 0.38100
C 	C 	0.74277 0.03085 0.61319 -0.11600
C 	C 	0.02448 0.83756 0.56898 0.35500
C 	C 	0.38681 0.25723 0.96915 -0.08300
C 	C 	0.25723 0.38681 0.38681 -0.17700
C 	C 	0.61319 0.03085 0.74277 -0.11600
C 	C 	0.30076 0.30076 0.42960 0.08500
C 	C 	0.25723 0.96915 0.38681 -0.08300
C 	C 	0.16244 0.43102 0.97552 0.35000
C 	C 	0.96888 0.42960 0.30076 0.03700
C 	C 	0.43102 0.16244 0.97552 0.35000
C 	C 	0.83756 0.02448 0.56898 0.35500
C 	C 	0.96915 0.38681 0.38681 -0.06500
C 	C 	0.30076 0.96888 0.30076 0.04100
C 	C 	0.96915 0.38681 0.25723 -0.08300
C 	C 	0.16244 0.97552 0.43102 0.35000
C 	C 	0.30076 0.96888 0.42960 0.03700
C 	C 	0.69924 0.57040 0.03112 0.06100
C 	C 	0.56898 0.56898 0.02448 0.37500
C 	C 	0.74277 0.61319 0.61319 -0.03900
C 	C 	0.43102 0.43102 0.97552 0.35000
C 	C 	0.42960 0.30076 0.30076 0.08500
C 	C 	0.56898 0.56898 0.83756 0.34600
C 	C 	0.56898 0.02448 0.83756 0.35500
C 	C 	0.97552 0.43102 0.43102 0.35000
C 	C 	0.97552 0.43102 0.16244 0.35000
C 	C 	0.61319 0.61319 0.03085 -0.14100
C 	C 	0.69924 0.03112 0.57040 0.06100
C 	C 	0.38681 0.96915 0.25723 -0.08300
C 	C 	0.97552 0.16244 0.43102 0.35000
C 	C 	0.38681 0.38681 0.96915 -0.06500
C 	C 	0.57040 0.69924 0.69924 0.02400
C 	C 	0.30076 0.42960 0.30076 0.08500
C 	C 	0.96888 0.30076 0.42960 0.03700
C 	C 	0.30076 0.42960 0.96888 0.03700
C 	C 	0.61319 0.61319 0.74277 -0.03900
C 	C 	0.43102 0.43102 0.16244 0.38100
C 	C 	0.43102 0.97552 0.16244 0.35000
C 	C 	0.61319 0.03085 0.61319 -0.14100
C 	C 	0.69924 0.03112 0.69924 0.05400
C 	C 	0.43102 0.97552 0.43102 0.35000
C 	C 	0.03085 0.61319 0.61319 -0.14100
C 	C 	0.96888 0.30076 0.30076 0.04100
C 	C 	0.02448 0.56898 0.83756 0.35500
C 	C 	0.69924 0.69924 0.57040 0.02400
C 	C 	0.38681 0.38681 0.25723 -0.17700
C 	C 	0.69924 0.57040 0.69924 0.02400
O 	O 	0.87375 0.61267 0.02087 -0.34600
O 	O 	0.97913 0.12625 0.50729 -0.33400
O 	O 	0.02087 0.87375 0.49271 -0.36600
O 	O 	0.87375 0.02087 0.61267 -0.34600
O 	O 	0.12625 0.50729 0.97913 -0.33400
O 	O 	0.97913 0.12625 0.38733 -0.35300
O 	O 	0.12625 0.97913 0.38733 -0.35300
O 	O 	0.97913 0.50729 0.12625 -0.33400
O 	O 	0.02087 0.49271 0.87375 -0.36600
O 	O 	0.38733 0.12625 0.97913 -0.35300
O 	O 	0.49271 0.02087 0.87375 -0.36600
O 	O 	0.61267 0.02087 0.87375 -0.34600
O 	O 	0.12625 0.38733 0.97913 -0.35300
O 	O 	0.49271 0.61267 0.02087 -0.46200
O 	O 	0.49271 0.61267 0.87375 -0.28400
O 	O 	0.50729 0.97913 0.38733 -0.29200
O 	O 	0.97913 0.38733 0.50729 -0.29200
O 	O 	0.50729 0.38733 0.12625 -0.47400
O 	O 	0.87375 0.02087 0.49271 -0.36600
O 	O 	0.61267 0.02087 0.49271 -0.46200
O 	O 	0.61267 0.87375 0.49271 -0.28400
O 	O 	0.97913 0.50729 0.38733 -0.29200
O 	O 	0.87375 0.49271 0.02087 -0.36600
O 	O 	0.38733 0.50729 0.12625 -0.47400
O 	O 	0.50729 0.12625 0.97913 -0.33400
O 	O 	0.38733 0.97913 0.12625 -0.35300
O 	O 	0.49271 0.87375 0.02087 -0.36600
O 	O 	0.61267 0.87375 0.02087 -0.34600
O 	O 	0.97913 0.38733 0.12625 -0.35300
O 	O 	0.49271 0.87375 0.61267 -0.28400
O 	O 	0.02087 0.49271 0.61267 -0.46200
O 	O 	0.12625 0.50729 0.38733 -0.47400
O 	O 	0.49271 0.02087 0.61267 -0.46200
O 	O 	0.12625 0.38733 0.50729 -0.47400
O 	O 	0.38733 0.97913 0.50729 -0.29200
O 	O 	0.61267 0.49271 0.87375 -0.28400
O 	O 	0.12625 0.97913 0.50729 -0.33400
O 	O 	0.61267 0.49271 0.02087 -0.46200
O 	O 	0.38733 0.50729 0.97913 -0.29200
O 	O 	0.02087 0.61267 0.49271 -0.46200
O 	O 	0.38733 0.12625 0.50729 -0.47400
O 	O 	0.87375 0.61267 0.49271 -0.28400
O 	O 	0.02087 0.87375 0.61267 -0.34600
O 	O 	0.50729 0.97913 0.12625 -0.33400
O 	O 	0.50729 0.38733 0.97913 -0.29200
O 	O 	0.02087 0.61267 0.87375 -0.34600
O 	O 	0.50729 0.12625 0.38733 -0.47400
O 	O 	0.87375 0.49271 0.61267 -0.28400
