data_crystal

_cell_length_a 6.56200
_cell_length_b 16.41710
_cell_length_c 13.17170
_cell_angle_alpha 90.00000
_cell_angle_beta  90.00000
_cell_angle_gamma 90.39830

_symmetry_space_group_name_	'P 1'
_symmetry_space_group_name_H-M	'P 1'

loop_
_symmetry_equiv_pos_as_xyz
  x,y,z

loop_
_atom_site_label
_atom_site_type_symbol
_atom_site_fract_x
_atom_site_fract_y
_atom_site_fract_z
_atom_site_charge
O 	O 	0.16180 0.17230 0.84660 -0.54500
O 	O 	0.82580 0.66210 0.16860 -0.61000
C 	C 	0.80640 0.02320 0.95330 0.08000
C 	C 	0.99640 0.06590 0.94380 -0.20000
C 	C 	0.99520 0.13550 0.86970 0.43100
C 	C 	0.20010 0.53570 0.02920 0.13100
O 	O 	0.66180 0.67230 0.34660 -0.62100
O 	O 	0.32580 0.16210 0.66860 -0.60000
C 	C 	0.30640 0.52320 0.45330 0.07500
C 	C 	0.49640 0.56590 0.44380 -0.12600
C 	C 	0.49520 0.63550 0.36970 0.50500
C 	C 	0.70010 0.03570 0.52920 0.03600
O 	O 	0.83820 0.32770 0.84660 -0.66900
O 	O 	0.17420 0.83790 0.16860 -0.61300
C 	C 	0.19360 0.47680 0.95330 0.03600
C 	C 	0.00360 0.43410 0.94380 -0.05100
C 	C 	0.00480 0.36450 0.86970 0.57400
C 	C 	0.79990 0.96430 0.02920 -0.01300
O 	O 	0.33820 0.82770 0.34660 -0.59600
O 	O 	0.67420 0.33790 0.66860 -0.62700
C 	C 	0.69360 0.97680 0.45330 0.04500
C 	C 	0.50360 0.93410 0.44380 -0.12800
C 	C 	0.50480 0.86450 0.36970 0.50500
C 	C 	0.29990 0.46430 0.52920 0.07500
O 	O 	0.83820 0.82770 0.15340 -0.66900
O 	O 	0.17420 0.33790 0.83140 -0.61300
C 	C 	0.19360 0.97680 0.04670 0.03700
C 	C 	0.00360 0.93410 0.05620 -0.05200
C 	C 	0.00480 0.86450 0.13030 0.57400
C 	C 	0.79990 0.46430 0.97080 -0.01600
O 	O 	0.33820 0.32770 0.65340 -0.59600
O 	O 	0.67420 0.83790 0.33140 -0.62700
C 	C 	0.69360 0.47680 0.54670 0.04100
C 	C 	0.50360 0.43410 0.55620 -0.12700
C 	C 	0.50480 0.36450 0.63030 0.50500
C 	C 	0.29990 0.96430 0.47080 0.07700
O 	O 	0.16180 0.67230 0.15340 -0.54400
O 	O 	0.82580 0.16210 0.83140 -0.61000
C 	C 	0.80640 0.52320 0.04670 0.08200
C 	C 	0.99640 0.56590 0.05620 -0.20000
C 	C 	0.99520 0.63550 0.13030 0.43200
C 	C 	0.20010 0.03570 0.97080 0.13000
O 	O 	0.66180 0.17230 0.65340 -0.62100
O 	O 	0.32580 0.66210 0.33140 -0.60000
C 	C 	0.30640 0.02320 0.54670 0.07200
C 	C 	0.49640 0.06590 0.55620 -0.12500
C 	C 	0.49520 0.13550 0.63030 0.50500
C 	C 	0.70010 0.53570 0.47080 0.03900
Al	Al	0.25000 0.25000 0.75000 2.40700
Al	Al	0.75000 0.25000 0.75000 2.40600
Al	Al	0.75000 0.75000 0.25000 2.40600
Al	Al	0.25000 0.75000 0.25000 2.40700
F 	F 	0.00000 0.25000 0.69050 -0.93400
F 	F 	0.50000 0.75000 0.19050 -0.97300
F 	F 	-0.00000 0.75000 0.30950 -0.93400
F 	F 	0.50000 0.25000 0.80950 -0.97300
