data_crystal

_cell_length_a 18.56140
_cell_length_b 18.56140
_cell_length_c 18.56140
_cell_angle_alpha 60.00000
_cell_angle_beta  60.00000
_cell_angle_gamma 60.00000

_symmetry_space_group_name_	'P 1'
_symmetry_space_group_name_H-M	'P 1'

loop_
_symmetry_equiv_pos_as_xyz
  x,y,z

loop_
_atom_site_label
_atom_site_type_symbol
_atom_site_fract_x
_atom_site_fract_y
_atom_site_fract_z
_atom_site_charge
Cu	Cu	0.00000 0.00000 0.43104 0.68100
Cu	Cu	0.43104 0.00000 -0.00000 0.68100
Cu	Cu	0.56896 0.00000 -0.00000 0.69300
Cu	Cu	-0.00000 0.43104 0.56896 0.79900
Cu	Cu	-0.00000 0.00000 0.56896 0.69400
Cu	Cu	-0.00000 0.56896 0.43104 0.79900
Cu	Cu	0.56896 0.43104 -0.00000 0.79900
Cu	Cu	-0.00000 0.43104 -0.00000 0.68200
Cu	Cu	0.56896 0.00000 0.43104 0.79900
Cu	Cu	0.43104 0.56896 -0.00000 0.79900
Cu	Cu	-0.00000 0.56896 -0.00000 0.69400
Cu	Cu	0.43104 0.00000 0.56896 0.79900
H 	H 	0.27320 0.48880 0.27320 0.00500
H 	H 	0.72680 0.03520 0.51120 0.02900
H 	H 	0.48880 0.96480 0.27320 0.07600
H 	H 	0.96480 0.27320 0.48880 0.07600
H 	H 	0.27320 0.96480 0.48880 0.07600
H 	H 	0.27320 0.27320 0.96480 0.05300
H 	H 	0.96480 0.48880 0.27320 0.07600
H 	H 	0.96480 0.27320 0.27320 0.05300
H 	H 	0.48880 0.27320 0.27320 0.00500
H 	H 	0.03520 0.72680 0.51120 0.02900
H 	H 	0.27320 0.48880 0.96480 0.07600
H 	H 	0.03520 0.51120 0.72680 0.02900
H 	H 	0.72680 0.51120 0.03520 0.02900
H 	H 	0.72680 0.03520 0.72680 0.05500
H 	H 	0.72680 0.51120 0.72680 0.09400
H 	H 	0.51120 0.03520 0.72680 0.02900
H 	H 	0.51120 0.72680 0.72680 0.09400
H 	H 	0.27320 0.27320 0.48880 0.00500
H 	H 	0.48880 0.27320 0.96480 0.07600
H 	H 	0.72680 0.72680 0.03520 0.05500
H 	H 	0.27320 0.96480 0.27320 0.05300
H 	H 	0.72680 0.72680 0.51120 0.09400
H 	H 	0.03520 0.72680 0.72680 0.05500
H 	H 	0.51120 0.72680 0.03520 0.02900
C 	C 	0.30180 0.43058 0.30180 0.08800
C 	C 	0.69820 0.56942 0.03418 0.06100
C 	C 	0.02576 0.56850 0.56850 0.36900
C 	C 	0.25825 0.38753 0.38753 -0.17800
C 	C 	0.43150 0.43150 0.97424 0.34200
C 	C 	0.74175 0.03331 0.61247 -0.11500
C 	C 	0.43150 0.97424 0.16276 0.34400
C 	C 	0.43058 0.30180 0.96582 0.03500
C 	C 	0.03331 0.74175 0.61247 -0.11500
C 	C 	0.69820 0.69820 0.56942 0.02000
C 	C 	0.61247 0.74175 0.03331 -0.11500
C 	C 	0.61247 0.61247 0.74175 -0.03500
C 	C 	0.69820 0.56942 0.69820 0.02000
C 	C 	0.56942 0.69820 0.03418 0.06100
C 	C 	0.69820 0.03418 0.56942 0.06100
C 	C 	0.56942 0.03418 0.69820 0.06100
C 	C 	0.96582 0.30180 0.30180 0.03900
C 	C 	0.03331 0.61247 0.61247 -0.14000
C 	C 	0.96582 0.43058 0.30180 0.03500
C 	C 	0.38753 0.25825 0.96669 -0.08000
C 	C 	0.25825 0.96669 0.38753 -0.08000
C 	C 	0.74175 0.61247 0.61247 -0.03500
C 	C 	0.61247 0.61247 0.03331 -0.14000
C 	C 	0.38753 0.38753 0.25825 -0.17800
C 	C 	0.43058 0.30180 0.30180 0.08800
C 	C 	0.38753 0.38753 0.96669 -0.06200
C 	C 	0.96669 0.25825 0.38753 -0.08000
C 	C 	0.03331 0.61247 0.74175 -0.11500
C 	C 	0.30180 0.30180 0.43058 0.08800
C 	C 	0.83724 0.02576 0.56850 0.34900
C 	C 	0.56942 0.69820 0.69820 0.02000
C 	C 	0.96582 0.30180 0.43058 0.03500
C 	C 	0.38753 0.96669 0.38753 -0.06200
C 	C 	0.97424 0.43150 0.16276 0.34400
C 	C 	0.83724 0.56850 0.56850 0.33800
C 	C 	0.25825 0.38753 0.96669 -0.08000
C 	C 	0.97424 0.16276 0.43150 0.34400
C 	C 	0.16276 0.97424 0.43150 0.34400
C 	C 	0.43150 0.16276 0.97424 0.34400
C 	C 	0.02576 0.56850 0.83724 0.34900
C 	C 	0.69820 0.03418 0.69820 0.05500
C 	C 	0.74175 0.61247 0.03331 -0.11500
C 	C 	0.56850 0.83724 0.56850 0.33800
C 	C 	0.56850 0.83724 0.02576 0.34900
C 	C 	0.30180 0.96582 0.30180 0.03900
C 	C 	0.38753 0.25825 0.38753 -0.17800
C 	C 	0.38753 0.96669 0.25825 -0.08000
C 	C 	0.56850 0.56850 0.83724 0.33800
C 	C 	0.96669 0.38753 0.25825 -0.08000
C 	C 	0.03418 0.69820 0.69820 0.05500
C 	C 	0.61247 0.03331 0.74175 -0.11500
C 	C 	0.03418 0.56942 0.69820 0.06100
C 	C 	0.97424 0.43150 0.43150 0.34200
C 	C 	0.30180 0.96582 0.43058 0.03500
C 	C 	0.43058 0.96582 0.30180 0.03500
C 	C 	0.43150 0.43150 0.16276 0.37600
C 	C 	0.43150 0.16276 0.43150 0.37600
C 	C 	0.69820 0.69820 0.03418 0.05500
C 	C 	0.61247 0.03331 0.61247 -0.14000
C 	C 	0.43150 0.97424 0.43150 0.34200
C 	C 	0.56850 0.56850 0.02576 0.36900
C 	C 	0.30180 0.30180 0.96582 0.03900
C 	C 	0.30180 0.43058 0.96582 0.03500
C 	C 	0.83724 0.56850 0.02576 0.34900
C 	C 	0.03418 0.69820 0.56942 0.06100
C 	C 	0.16276 0.43150 0.97424 0.34400
C 	C 	0.56850 0.02576 0.56850 0.36900
C 	C 	0.61247 0.74175 0.61247 -0.03500
C 	C 	0.56850 0.02576 0.83724 0.34900
C 	C 	0.96669 0.38753 0.38753 -0.06200
C 	C 	0.16276 0.43150 0.43150 0.37600
C 	C 	0.02576 0.83724 0.56850 0.34900
O 	O 	0.49206 0.87432 0.02096 -0.36400
O 	O 	0.87432 0.61266 0.49206 -0.28000
O 	O 	0.12568 0.38734 0.97904 -0.35100
O 	O 	0.38734 0.50794 0.12568 -0.47400
O 	O 	0.61266 0.87432 0.02096 -0.34400
O 	O 	0.61266 0.02096 0.49206 -0.46200
O 	O 	0.87432 0.61266 0.02096 -0.34400
O 	O 	0.97904 0.50794 0.38734 -0.28900
O 	O 	0.38734 0.12568 0.50794 -0.47400
O 	O 	0.12568 0.97904 0.50794 -0.33100
O 	O 	0.61266 0.87432 0.49206 -0.28000
O 	O 	0.50794 0.38734 0.12568 -0.47400
O 	O 	0.38734 0.50794 0.97904 -0.28900
O 	O 	0.50794 0.97904 0.12568 -0.33100
O 	O 	0.49206 0.61266 0.87432 -0.28000
O 	O 	0.38734 0.97904 0.50794 -0.28900
O 	O 	0.87432 0.49206 0.02096 -0.36400
O 	O 	0.97904 0.38734 0.12568 -0.35100
O 	O 	0.87432 0.02096 0.61266 -0.34400
O 	O 	0.49206 0.87432 0.61266 -0.28000
O 	O 	0.02096 0.87432 0.49206 -0.36400
O 	O 	0.12568 0.50794 0.38734 -0.47400
O 	O 	0.87432 0.49206 0.61266 -0.28000
O 	O 	0.50794 0.12568 0.97904 -0.33100
O 	O 	0.87432 0.02096 0.49206 -0.36400
O 	O 	0.49206 0.61266 0.02096 -0.46200
O 	O 	0.02096 0.61266 0.49206 -0.46200
O 	O 	0.38734 0.97904 0.12568 -0.35100
O 	O 	0.02096 0.61266 0.87432 -0.34400
O 	O 	0.50794 0.38734 0.97904 -0.28900
O 	O 	0.02096 0.49206 0.87432 -0.36400
O 	O 	0.61266 0.49206 0.87432 -0.28000
O 	O 	0.49206 0.02096 0.87432 -0.36400
O 	O 	0.97904 0.12568 0.50794 -0.33100
O 	O 	0.12568 0.50794 0.97904 -0.33100
O 	O 	0.49206 0.02096 0.61266 -0.46200
O 	O 	0.61266 0.02096 0.87432 -0.34400
O 	O 	0.97904 0.12568 0.38734 -0.35100
O 	O 	0.50794 0.97904 0.38734 -0.28900
O 	O 	0.02096 0.87432 0.61266 -0.34400
O 	O 	0.02096 0.49206 0.61266 -0.46200
O 	O 	0.12568 0.38734 0.50794 -0.47400
O 	O 	0.97904 0.38734 0.50794 -0.28900
O 	O 	0.61266 0.49206 0.02096 -0.46200
O 	O 	0.97904 0.50794 0.12568 -0.33100
O 	O 	0.12568 0.97904 0.38734 -0.35100
O 	O 	0.50794 0.12568 0.38734 -0.47400
O 	O 	0.38734 0.12568 0.97904 -0.35100
