data_crystal

_cell_length_a 6.63030
_cell_length_b 16.79730
_cell_length_c 12.74690
_cell_angle_alpha 90.00000
_cell_angle_beta  90.00000
_cell_angle_gamma 90.00000

_symmetry_space_group_name_	'P 1'
_symmetry_space_group_name_H-M	'P 1'

loop_
_symmetry_equiv_pos_as_xyz
  x,y,z

loop_
_atom_site_label
_atom_site_type_symbol
_atom_site_fract_x
_atom_site_fract_y
_atom_site_fract_z
_atom_site_charge
O 	O 	0.16793 0.16770 0.84262 -0.64000
C 	C 	0.80810 0.03515 0.96940 0.05200
O 	O 	0.66793 0.66770 0.34262 -0.64200
C 	C 	0.30810 0.53515 0.46940 0.05600
O 	O 	0.83207 0.33230 0.84262 -0.64500
C 	C 	0.19190 0.46485 0.96940 0.05500
O 	O 	0.33207 0.83230 0.34262 -0.64000
C 	C 	0.69190 0.96485 0.46940 0.05400
O 	O 	0.83207 0.66770 0.15738 -0.64500
C 	C 	0.19190 0.53515 0.03060 0.05500
O 	O 	0.33207 0.16770 0.65738 -0.64000
C 	C 	0.69190 0.03515 0.53060 0.05400
O 	O 	0.16793 0.83230 0.15738 -0.64100
C 	C 	0.80810 0.96485 0.03060 0.05100
O 	O 	0.66793 0.33230 0.65738 -0.64200
C 	C 	0.30810 0.46485 0.53060 0.05600
O 	O 	0.83207 0.83230 0.15738 -0.64500
C 	C 	0.19190 0.96485 0.03060 0.05500
O 	O 	0.33207 0.33230 0.65738 -0.64000
C 	C 	0.69190 0.46485 0.53060 0.05400
O 	O 	0.16793 0.66770 0.15738 -0.64100
C 	C 	0.80810 0.53515 0.03060 0.05100
O 	O 	0.66793 0.16770 0.65738 -0.64200
C 	C 	0.30810 0.03515 0.53060 0.05600
O 	O 	0.16793 0.33230 0.84262 -0.64100
C 	C 	0.80810 0.46485 0.96940 0.05100
O 	O 	0.66793 0.83230 0.34262 -0.64200
C 	C 	0.30810 0.96485 0.46940 0.05600
O 	O 	0.83207 0.16770 0.84262 -0.64500
C 	C 	0.19190 0.03515 0.96940 0.05500
O 	O 	0.33207 0.66770 0.34262 -0.64000
C 	C 	0.69190 0.53515 0.46940 0.05400
Al	Al	0.25000 0.25000 0.75000 2.40000
Al	Al	0.75000 0.25000 0.75000 2.40000
Al	Al	0.75000 0.75000 0.25000 2.40000
Al	Al	0.25000 0.75000 0.25000 2.40000
O 	O 	-0.00000 0.25000 0.68610 -0.84400
O 	O 	0.50000 0.75000 0.18610 -0.84700
O 	O 	-0.00000 0.75000 0.31390 -0.84400
O 	O 	0.50000 0.25000 0.81390 -0.84700
C 	C 	0.00000 0.06300 0.94510 -0.11700
C 	C 	-0.00000 0.13775 0.87100 0.52000
C 	C 	0.50000 0.56300 0.44510 -0.12100
C 	C 	0.50000 0.63775 0.37100 0.51500
C 	C 	-0.00000 0.43700 0.94510 -0.11700
C 	C 	-0.00000 0.36225 0.87100 0.52000
C 	C 	0.50000 0.93700 0.44510 -0.12100
C 	C 	0.50000 0.86225 0.37100 0.51500
C 	C 	0.00000 0.56300 0.05490 -0.11700
C 	C 	-0.00000 0.63775 0.12900 0.52000
C 	C 	0.50000 0.06300 0.55490 -0.12100
C 	C 	0.50000 0.13775 0.62900 0.51500
C 	C 	-0.00000 0.93700 0.05490 -0.11700
C 	C 	-0.00000 0.86225 0.12900 0.52000
C 	C 	0.50000 0.43700 0.55490 -0.12100
C 	C 	0.50000 0.36225 0.62900 0.51500
