data_crystal

_cell_length_a 6.63030
_cell_length_b 16.79020
_cell_length_c 12.75380
_cell_angle_alpha 90.00000
_cell_angle_beta  90.00000
_cell_angle_gamma 90.00000

_symmetry_space_group_name_	'P 1'
_symmetry_space_group_name_H-M	'P 1'

loop_
_symmetry_equiv_pos_as_xyz
  x,y,z

loop_
_atom_site_label
_atom_site_type_symbol
_atom_site_fract_x
_atom_site_fract_y
_atom_site_fract_z
_atom_site_charge
O 	O 	0.16756 0.16808 0.84351 -0.64200
C 	C 	0.80780 0.03565 0.96960 0.05300
O 	O 	0.66756 0.66808 0.34351 -0.64300
C 	C 	0.30780 0.53565 0.46960 0.05700
O 	O 	0.83244 0.33192 0.84351 -0.64500
C 	C 	0.19220 0.46435 0.96960 0.05600
O 	O 	0.33244 0.83192 0.34351 -0.64100
C 	C 	0.69220 0.96435 0.46960 0.05500
O 	O 	0.83244 0.66808 0.15649 -0.64600
C 	C 	0.19220 0.53565 0.03040 0.05500
O 	O 	0.33244 0.16808 0.65649 -0.64200
C 	C 	0.69220 0.03565 0.53040 0.05400
O 	O 	0.16756 0.83192 0.15649 -0.64300
C 	C 	0.80780 0.96435 0.03040 0.05200
O 	O 	0.66756 0.33192 0.65649 -0.64400
C 	C 	0.30780 0.46435 0.53040 0.05600
O 	O 	0.83244 0.83192 0.15649 -0.64600
C 	C 	0.19220 0.96435 0.03040 0.05500
O 	O 	0.33244 0.33192 0.65649 -0.64200
C 	C 	0.69220 0.46435 0.53040 0.05400
O 	O 	0.16756 0.66808 0.15649 -0.64300
C 	C 	0.80780 0.53565 0.03040 0.05200
O 	O 	0.66756 0.16808 0.65649 -0.64400
C 	C 	0.30780 0.03565 0.53040 0.05600
O 	O 	0.16756 0.33192 0.84351 -0.64300
C 	C 	0.80780 0.46435 0.96960 0.05200
O 	O 	0.66756 0.83192 0.34351 -0.64400
C 	C 	0.30780 0.96435 0.46960 0.05600
O 	O 	0.83244 0.16808 0.84351 -0.64600
C 	C 	0.19220 0.03565 0.96960 0.05500
O 	O 	0.33244 0.66808 0.34351 -0.64200
C 	C 	0.69220 0.53565 0.46960 0.05400
Al	Al	0.25000 0.25000 0.75000 2.39900
Al	Al	0.75000 0.25000 0.75000 2.39900
Al	Al	0.75000 0.75000 0.25000 2.39900
Al	Al	0.25000 0.75000 0.25000 2.39900
O 	O 	0.00000 0.25000 0.68460 -0.83800
O 	O 	0.50000 0.75000 0.18460 -0.84000
O 	O 	0.00000 0.75000 0.31540 -0.83800
O 	O 	0.50000 0.25000 0.81540 -0.84000
C 	C 	-0.00000 0.06265 0.94500 -0.11900
C 	C 	0.00000 0.13756 0.87110 0.52100
C 	C 	0.50000 0.56265 0.44500 -0.12300
C 	C 	0.50000 0.63756 0.37110 0.51700
C 	C 	-0.00000 0.43735 0.94500 -0.11900
C 	C 	0.00000 0.36244 0.87110 0.52100
C 	C 	0.50000 0.93735 0.44500 -0.12300
C 	C 	0.50000 0.86244 0.37110 0.51700
C 	C 	-0.00000 0.56265 0.05500 -0.11900
C 	C 	-0.00000 0.63756 0.12890 0.52100
C 	C 	0.50000 0.06265 0.55500 -0.12300
C 	C 	0.50000 0.13756 0.62890 0.51700
C 	C 	-0.00000 0.93735 0.05500 -0.11900
C 	C 	0.00000 0.86244 0.12890 0.52100
C 	C 	0.50000 0.43735 0.55500 -0.12300
C 	C 	0.50000 0.36244 0.62890 0.51700
