data_crystal

_cell_length_a 6.62890
_cell_length_b 16.73380
_cell_length_c 12.82540
_cell_angle_alpha 90.00000
_cell_angle_beta  90.00000
_cell_angle_gamma 90.00000

_symmetry_space_group_name_	'P 1'
_symmetry_space_group_name_H-M	'P 1'

loop_
_symmetry_equiv_pos_as_xyz
  x,y,z

loop_
_atom_site_label
_atom_site_type_symbol
_atom_site_fract_x
_atom_site_fract_y
_atom_site_fract_z
_atom_site_charge
O 	O 	0.16557 0.16805 0.84296 -0.64200
C 	C 	0.80890 0.03585 0.96800 0.05300
O 	O 	0.66557 0.66805 0.34296 -0.64300
C 	C 	0.30890 0.53585 0.46800 0.05800
O 	O 	0.83443 0.33195 0.84296 -0.64600
C 	C 	0.19110 0.46415 0.96800 0.05700
O 	O 	0.33443 0.83195 0.34296 -0.64100
C 	C 	0.69110 0.96415 0.46800 0.05600
O 	O 	0.83443 0.66805 0.15704 -0.64600
C 	C 	0.19110 0.53585 0.03200 0.05700
O 	O 	0.33443 0.16805 0.65704 -0.64100
C 	C 	0.69110 0.03585 0.53200 0.05600
O 	O 	0.16557 0.83195 0.15704 -0.64200
C 	C 	0.80890 0.96415 0.03200 0.05300
O 	O 	0.66557 0.33195 0.65704 -0.64300
C 	C 	0.30890 0.46415 0.53200 0.05800
O 	O 	0.83443 0.83195 0.15704 -0.64600
C 	C 	0.19110 0.96415 0.03200 0.05700
O 	O 	0.33443 0.33195 0.65704 -0.64100
C 	C 	0.69110 0.46415 0.53200 0.05600
O 	O 	0.16557 0.66805 0.15704 -0.64200
C 	C 	0.80890 0.53585 0.03200 0.05300
O 	O 	0.66557 0.16805 0.65704 -0.64300
C 	C 	0.30890 0.03585 0.53200 0.05800
O 	O 	0.16557 0.33195 0.84296 -0.64200
C 	C 	0.80890 0.46415 0.96800 0.05300
O 	O 	0.66557 0.83195 0.34296 -0.64300
C 	C 	0.30890 0.96415 0.46800 0.05800
O 	O 	0.83443 0.16805 0.84296 -0.64600
C 	C 	0.19110 0.03585 0.96800 0.05700
O 	O 	0.33443 0.66805 0.34296 -0.64100
C 	C 	0.69110 0.53585 0.46800 0.05600
Al	Al	0.25000 0.25000 0.75000 2.40000
Al	Al	0.75000 0.25000 0.75000 2.40000
Al	Al	0.75000 0.75000 0.25000 2.40000
Al	Al	0.25000 0.75000 0.25000 2.40000
O 	O 	-0.00000 0.25000 0.68580 -0.84100
O 	O 	0.50000 0.75000 0.18580 -0.84500
O 	O 	0.00000 0.75000 0.31420 -0.84100
O 	O 	0.50000 0.25000 0.81420 -0.84500
C 	C 	0.00000 0.06280 0.94720 -0.12700
C 	C 	-0.00000 0.13590 0.87120 0.52700
C 	C 	0.50000 0.56280 0.44720 -0.13100
C 	C 	0.50000 0.63590 0.37120 0.52200
C 	C 	0.00000 0.43720 0.94720 -0.12700
C 	C 	0.00000 0.36410 0.87120 0.52700
C 	C 	0.50000 0.93720 0.44720 -0.13100
C 	C 	0.50000 0.86410 0.37120 0.52200
C 	C 	0.00000 0.56280 0.05280 -0.12700
C 	C 	0.00000 0.63590 0.12880 0.52700
C 	C 	0.50000 0.06280 0.55280 -0.13100
C 	C 	0.50000 0.13590 0.62880 0.52200
C 	C 	-0.00000 0.93720 0.05280 -0.12700
C 	C 	0.00000 0.86410 0.12880 0.52700
C 	C 	0.50000 0.43720 0.55280 -0.13100
C 	C 	0.50000 0.36410 0.62880 0.52200
