data_crystal

_cell_length_a 18.65050
_cell_length_b 18.65050
_cell_length_c 18.65050
_cell_angle_alpha 60.00000
_cell_angle_beta  60.00000
_cell_angle_gamma 60.00000

_symmetry_space_group_name_	'P 1'
_symmetry_space_group_name_H-M	'P 1'

loop_
_symmetry_equiv_pos_as_xyz
  x,y,z

loop_
_atom_site_label
_atom_site_type_symbol
_atom_site_fract_x
_atom_site_fract_y
_atom_site_fract_z
_atom_site_charge
Cu	Cu	0.00000 0.56933 0.43067 0.79600
Cu	Cu	0.56933 0.00000 0.43067 0.79600
Cu	Cu	0.56933 0.00000 -0.00000 0.69300
Cu	Cu	-0.00000 0.43067 0.56933 0.79600
Cu	Cu	-0.00000 0.56933 -0.00000 0.69300
Cu	Cu	0.00000 0.00000 0.43067 0.68100
Cu	Cu	0.00000 0.43067 -0.00000 0.68200
Cu	Cu	-0.00000 0.00000 0.56933 0.69400
Cu	Cu	0.43067 0.00000 0.56933 0.79700
Cu	Cu	0.43067 0.56933 -0.00000 0.79700
Cu	Cu	0.43067 0.00000 -0.00000 0.68200
Cu	Cu	0.56933 0.43067 -0.00000 0.79700
H 	H 	0.03210 0.72770 0.51250 0.03100
H 	H 	0.72770 0.03210 0.72770 0.05700
H 	H 	0.27230 0.48750 0.96790 0.07700
H 	H 	0.51250 0.72770 0.72770 0.09500
H 	H 	0.72770 0.51250 0.03210 0.03100
H 	H 	0.51250 0.03210 0.72770 0.03100
H 	H 	0.72770 0.72770 0.03210 0.05700
H 	H 	0.48750 0.27230 0.27230 0.00800
H 	H 	0.48750 0.96790 0.27230 0.07700
H 	H 	0.03210 0.72770 0.72770 0.05700
H 	H 	0.03210 0.51250 0.72770 0.03100
H 	H 	0.72770 0.03210 0.51250 0.03100
H 	H 	0.72770 0.51250 0.72770 0.09500
H 	H 	0.27230 0.27230 0.48750 0.00800
H 	H 	0.27230 0.96790 0.27230 0.05400
H 	H 	0.48750 0.27230 0.96790 0.07700
H 	H 	0.51250 0.72770 0.03210 0.03100
H 	H 	0.27230 0.27230 0.96790 0.05400
H 	H 	0.96790 0.48750 0.27230 0.07700
H 	H 	0.96790 0.27230 0.27230 0.05400
H 	H 	0.27230 0.48750 0.27230 0.00800
H 	H 	0.96790 0.27230 0.48750 0.07700
H 	H 	0.27230 0.96790 0.48750 0.07700
H 	H 	0.72770 0.72770 0.51250 0.09500
C 	C 	0.02509 0.83717 0.56887 0.34400
C 	C 	0.96794 0.30106 0.30106 0.03300
C 	C 	0.03206 0.69894 0.69894 0.04600
C 	C 	0.69894 0.03206 0.69894 0.04600
C 	C 	0.97491 0.43113 0.43113 0.33900
C 	C 	0.03206 0.57006 0.69894 0.05200
C 	C 	0.42994 0.30106 0.30106 0.07500
C 	C 	0.97491 0.16283 0.43113 0.34000
C 	C 	0.69894 0.57006 0.69894 0.01700
C 	C 	0.25799 0.38705 0.38705 -0.16600
C 	C 	0.56887 0.56887 0.83717 0.33600
C 	C 	0.69894 0.57006 0.03206 0.05200
C 	C 	0.16283 0.43113 0.97491 0.34000
C 	C 	0.16283 0.43113 0.43113 0.36800
C 	C 	0.03206 0.69894 0.57006 0.05200
C 	C 	0.42994 0.96794 0.30106 0.03000
C 	C 	0.03209 0.61295 0.74201 -0.10700
C 	C 	0.69894 0.69894 0.03206 0.04600
C 	C 	0.61295 0.61295 0.74201 -0.03200
C 	C 	0.30106 0.96794 0.42994 0.03000
C 	C 	0.30106 0.96794 0.30106 0.03300
C 	C 	0.30106 0.42994 0.96794 0.03000
C 	C 	0.38705 0.38705 0.25799 -0.16600
C 	C 	0.43113 0.97491 0.16283 0.34000
C 	C 	0.96791 0.38705 0.38705 -0.05700
C 	C 	0.83717 0.02509 0.56887 0.34400
C 	C 	0.38705 0.25799 0.38705 -0.16600
C 	C 	0.30106 0.30106 0.96794 0.03300
C 	C 	0.56887 0.02509 0.83717 0.34400
C 	C 	0.57006 0.69894 0.03206 0.05200
C 	C 	0.69894 0.03206 0.57006 0.05200
C 	C 	0.02509 0.56887 0.83717 0.34400
C 	C 	0.42994 0.30106 0.96794 0.03000
C 	C 	0.96794 0.42994 0.30106 0.03000
C 	C 	0.96794 0.30106 0.42994 0.03000
C 	C 	0.83717 0.56887 0.02509 0.34400
C 	C 	0.69894 0.69894 0.57006 0.01700
C 	C 	0.61295 0.03209 0.74201 -0.10700
C 	C 	0.02509 0.56887 0.56887 0.36200
C 	C 	0.96791 0.38705 0.25799 -0.07400
C 	C 	0.03209 0.74201 0.61295 -0.10700
C 	C 	0.57006 0.03206 0.69894 0.05200
C 	C 	0.38705 0.25799 0.96791 -0.07400
C 	C 	0.57006 0.69894 0.69894 0.01700
C 	C 	0.43113 0.16283 0.97491 0.34000
C 	C 	0.74201 0.61295 0.61295 -0.03200
C 	C 	0.56887 0.83717 0.56887 0.33600
C 	C 	0.38705 0.96791 0.25799 -0.07400
C 	C 	0.43113 0.43113 0.97491 0.33900
C 	C 	0.61295 0.03209 0.61295 -0.13100
C 	C 	0.56887 0.56887 0.02509 0.36200
C 	C 	0.61295 0.74201 0.61295 -0.03200
C 	C 	0.43113 0.43113 0.16283 0.36800
C 	C 	0.30106 0.30106 0.42994 0.07500
C 	C 	0.43113 0.97491 0.43113 0.33900
C 	C 	0.74201 0.61295 0.03209 -0.10700
C 	C 	0.96791 0.25799 0.38705 -0.07400
C 	C 	0.97491 0.43113 0.16283 0.34000
C 	C 	0.38705 0.96791 0.38705 -0.05700
C 	C 	0.30106 0.42994 0.30106 0.07500
C 	C 	0.56887 0.83717 0.02509 0.34400
C 	C 	0.56887 0.02509 0.56887 0.36200
C 	C 	0.61295 0.74201 0.03209 -0.10700
C 	C 	0.83717 0.56887 0.56887 0.33600
C 	C 	0.25799 0.96791 0.38705 -0.07400
C 	C 	0.61295 0.61295 0.03209 -0.13100
C 	C 	0.03209 0.61295 0.61295 -0.13100
C 	C 	0.43113 0.16283 0.43113 0.36800
C 	C 	0.25799 0.38705 0.96791 -0.07400
C 	C 	0.16283 0.97491 0.43113 0.34000
C 	C 	0.38705 0.38705 0.96791 -0.05700
C 	C 	0.74201 0.03209 0.61295 -0.10700
O 	O 	0.49239 0.02107 0.87407 -0.36200
O 	O 	0.38753 0.12593 0.97893 -0.34900
O 	O 	0.87407 0.02107 0.49239 -0.36200
O 	O 	0.02107 0.49239 0.61247 -0.45800
O 	O 	0.50761 0.97893 0.38753 -0.28900
O 	O 	0.38753 0.97893 0.50761 -0.28900
O 	O 	0.97893 0.38753 0.12593 -0.34900
O 	O 	0.12593 0.97893 0.50761 -0.33000
O 	O 	0.02107 0.87407 0.61247 -0.34200
O 	O 	0.49239 0.87407 0.61247 -0.28000
O 	O 	0.61247 0.49239 0.02107 -0.45800
O 	O 	0.50761 0.38753 0.97893 -0.28900
O 	O 	0.02107 0.61247 0.87407 -0.34200
O 	O 	0.49239 0.61247 0.02107 -0.45800
O 	O 	0.38753 0.12593 0.50761 -0.46900
O 	O 	0.97893 0.12593 0.38753 -0.34900
O 	O 	0.12593 0.50761 0.38753 -0.46900
O 	O 	0.61247 0.49239 0.87407 -0.28000
O 	O 	0.12593 0.50761 0.97893 -0.33000
O 	O 	0.02107 0.61247 0.49239 -0.45800
O 	O 	0.87407 0.61247 0.02107 -0.34200
O 	O 	0.50761 0.38753 0.12593 -0.46900
O 	O 	0.38753 0.50761 0.12593 -0.46900
O 	O 	0.12593 0.38753 0.50761 -0.46900
O 	O 	0.49239 0.61247 0.87407 -0.28000
O 	O 	0.49239 0.02107 0.61247 -0.45800
O 	O 	0.38753 0.50761 0.97893 -0.28900
O 	O 	0.97893 0.12593 0.50761 -0.33000
O 	O 	0.87407 0.61247 0.49239 -0.28000
O 	O 	0.12593 0.38753 0.97893 -0.34900
O 	O 	0.87407 0.49239 0.02107 -0.36200
O 	O 	0.87407 0.49239 0.61247 -0.28000
O 	O 	0.49239 0.87407 0.02107 -0.36200
O 	O 	0.02107 0.87407 0.49239 -0.36200
O 	O 	0.50761 0.97893 0.12593 -0.33000
O 	O 	0.61247 0.02107 0.49239 -0.45800
O 	O 	0.61247 0.87407 0.02107 -0.34200
O 	O 	0.50761 0.12593 0.38753 -0.46900
O 	O 	0.87407 0.02107 0.61247 -0.34200
O 	O 	0.02107 0.49239 0.87407 -0.36200
O 	O 	0.97893 0.50761 0.38753 -0.28900
O 	O 	0.97893 0.38753 0.50761 -0.28900
O 	O 	0.12593 0.97893 0.38753 -0.34900
O 	O 	0.61247 0.02107 0.87407 -0.34200
O 	O 	0.61247 0.87407 0.49239 -0.28000
O 	O 	0.97893 0.50761 0.12593 -0.33000
O 	O 	0.38753 0.97893 0.12593 -0.34900
O 	O 	0.50761 0.12593 0.97893 -0.33000
