data_crystal

_cell_length_a 6.55250
_cell_length_b 16.43620
_cell_length_c 13.14170
_cell_angle_alpha 90.00000
_cell_angle_beta  90.00000
_cell_angle_gamma 90.58190

_symmetry_space_group_name_	'P 1'
_symmetry_space_group_name_H-M	'P 1'

loop_
_symmetry_equiv_pos_as_xyz
  x,y,z

loop_
_atom_site_label
_atom_site_type_symbol
_atom_site_fract_x
_atom_site_fract_y
_atom_site_fract_z
_atom_site_charge
O 	O 	0.15680 0.17440 0.85480 -0.62800
O 	O 	0.81830 0.65761 0.16780 -0.65600
C 	C 	0.79700 0.02370 0.94980 -0.02500
C 	C 	0.00280 0.06320 0.94550 -0.01800
C 	C 	0.00050 0.13720 0.86590 0.57100
C 	C 	0.19460 0.54030 0.02540 0.03300
O 	O 	0.65680 0.67440 0.35480 -0.63800
O 	O 	0.31830 0.15761 0.66780 -0.58200
C 	C 	0.29700 0.52370 0.44980 0.06600
C 	C 	0.50280 0.56320 0.44550 -0.09800
C 	C 	0.50050 0.63720 0.36590 0.50000
C 	C 	0.69460 0.04030 0.52540 0.04200
O 	O 	0.84320 0.32560 0.85480 -0.61800
O 	O 	0.18170 0.84239 0.16780 -0.53200
C 	C 	0.20300 0.47630 0.94980 0.12500
C 	C 	0.99720 0.43680 0.94550 -0.18000
C 	C 	0.99950 0.36280 0.86590 0.42100
C 	C 	0.80540 0.95970 0.02540 0.08400
O 	O 	0.34320 0.82560 0.35480 -0.61200
O 	O 	0.68170 0.34239 0.66780 -0.60900
C 	C 	0.70300 0.97630 0.44980 0.02900
C 	C 	0.49720 0.93680 0.44550 -0.09900
C 	C 	0.49950 0.86280 0.36590 0.49800
C 	C 	0.30540 0.45970 0.52540 0.07700
O 	O 	0.84320 0.82560 0.14520 -0.61800
O 	O 	0.18170 0.34239 0.83220 -0.53200
C 	C 	0.20300 0.97630 0.05020 0.12400
C 	C 	0.99720 0.93680 0.05450 -0.17900
C 	C 	0.99950 0.86280 0.13410 0.42100
C 	C 	0.80540 0.45970 0.97460 0.08500
O 	O 	0.34320 0.32560 0.64520 -0.61200
O 	O 	0.68170 0.84239 0.33220 -0.60900
C 	C 	0.70300 0.47630 0.55020 0.03100
C 	C 	0.49720 0.43680 0.55450 -0.10000
C 	C 	0.49950 0.36280 0.63410 0.49900
C 	C 	0.30540 0.95970 0.47460 0.07500
O 	O 	0.15680 0.67440 0.14520 -0.62700
O 	O 	0.81830 0.15761 0.83220 -0.65400
C 	C 	0.79700 0.52370 0.05020 -0.02600
C 	C 	0.00280 0.56320 0.05450 -0.01600
C 	C 	0.00050 0.63720 0.13410 0.57100
C 	C 	0.19460 0.04030 0.97460 0.03400
O 	O 	0.65680 0.17440 0.64520 -0.63800
O 	O 	0.31830 0.65761 0.33220 -0.58200
C 	C 	0.29700 0.02370 0.55020 0.06800
C 	C 	0.50280 0.06320 0.55450 -0.09900
C 	C 	0.50050 0.13720 0.63410 0.50000
C 	C 	0.69460 0.54030 0.47460 0.04000
Al	Al	0.25000 0.25000 0.75000 2.40300
Al	Al	0.75000 0.25000 0.75000 2.40100
Al	Al	0.75000 0.75000 0.25000 2.40100
Al	Al	0.25000 0.75000 0.25000 2.40300
F 	F 	0.00000 0.25000 0.69020 -0.95900
F 	F 	0.50000 0.75000 0.19020 -0.99900
F 	F 	0.00000 0.75000 0.30980 -0.95800
F 	F 	0.50000 0.25000 0.80980 -0.99900
