data_crystal

_cell_length_a 18.59770
_cell_length_b 18.59770
_cell_length_c 18.59770
_cell_angle_alpha 60.00000
_cell_angle_beta  60.00000
_cell_angle_gamma 60.00000

_symmetry_space_group_name_	'P 1'
_symmetry_space_group_name_H-M	'P 1'

loop_
_symmetry_equiv_pos_as_xyz
  x,y,z

loop_
_atom_site_label
_atom_site_type_symbol
_atom_site_fract_x
_atom_site_fract_y
_atom_site_fract_z
_atom_site_charge
Cu	Cu	-0.00000 0.00000 0.43116 0.68300
Cu	Cu	-0.00000 0.43116 -0.00000 0.68300
Cu	Cu	0.43116 0.00000 -0.00000 0.68300
Cu	Cu	0.43116 0.56884 -0.00000 0.80000
Cu	Cu	0.43116 0.00000 0.56884 0.80000
Cu	Cu	-0.00000 0.00000 0.56884 0.69600
Cu	Cu	-0.00000 0.56884 -0.00000 0.69500
Cu	Cu	-0.00000 0.43116 0.56884 0.79900
Cu	Cu	0.56884 0.43116 -0.00000 0.79900
Cu	Cu	0.56884 0.00000 0.43116 0.79900
Cu	Cu	0.56884 0.00000 -0.00000 0.69500
Cu	Cu	-0.00000 0.56884 0.43116 0.79900
H 	H 	0.72850 0.03030 0.51270 0.03000
H 	H 	0.03030 0.72850 0.72850 0.05600
H 	H 	0.48730 0.27150 0.96970 0.07700
H 	H 	0.96970 0.48730 0.27150 0.07700
H 	H 	0.72850 0.51270 0.03030 0.03000
H 	H 	0.27150 0.96970 0.27150 0.05400
H 	H 	0.27150 0.96970 0.48730 0.07700
H 	H 	0.48730 0.96970 0.27150 0.07700
H 	H 	0.96970 0.27150 0.27150 0.05400
H 	H 	0.96970 0.27150 0.48730 0.07700
H 	H 	0.27150 0.48730 0.27150 0.00600
H 	H 	0.27150 0.27150 0.48730 0.00600
H 	H 	0.72850 0.03030 0.72850 0.05600
H 	H 	0.51270 0.72850 0.03030 0.03000
H 	H 	0.48730 0.27150 0.27150 0.00600
H 	H 	0.03030 0.72850 0.51270 0.03000
H 	H 	0.51270 0.72850 0.72850 0.09500
H 	H 	0.72850 0.72850 0.03030 0.05600
H 	H 	0.51270 0.03030 0.72850 0.03000
H 	H 	0.72850 0.72850 0.51270 0.09500
H 	H 	0.27150 0.27150 0.96970 0.05400
H 	H 	0.03030 0.51270 0.72850 0.03000
H 	H 	0.72850 0.51270 0.72850 0.09500
H 	H 	0.27150 0.48730 0.96970 0.07700
C 	C 	0.57057 0.02981 0.69981 0.05600
C 	C 	0.25680 0.97060 0.38630 -0.07800
C 	C 	0.02360 0.56910 0.83820 0.35100
C 	C 	0.69981 0.69981 0.57057 0.01900
C 	C 	0.69981 0.02981 0.57057 0.05600
C 	C 	0.83820 0.56910 0.02360 0.35100
C 	C 	0.02981 0.57057 0.69981 0.05600
C 	C 	0.43090 0.16180 0.97640 0.34700
C 	C 	0.74320 0.02940 0.61370 -0.11100
C 	C 	0.56910 0.02360 0.83820 0.35100
C 	C 	0.97060 0.25680 0.38630 -0.07800
C 	C 	0.43090 0.16180 0.43090 0.37500
C 	C 	0.61370 0.74320 0.02940 -0.11100
C 	C 	0.56910 0.83820 0.02360 0.35100
C 	C 	0.30019 0.30019 0.97019 0.03600
C 	C 	0.97640 0.43090 0.16180 0.34700
C 	C 	0.61370 0.02940 0.74320 -0.11100
C 	C 	0.97019 0.30019 0.42943 0.03300
C 	C 	0.74320 0.61370 0.02940 -0.11100
C 	C 	0.16180 0.43090 0.97640 0.34700
C 	C 	0.16180 0.43090 0.43090 0.37500
C 	C 	0.69981 0.57057 0.02981 0.05600
C 	C 	0.61370 0.61370 0.74320 -0.03400
C 	C 	0.16180 0.97640 0.43090 0.34700
C 	C 	0.57057 0.69981 0.02981 0.05600
C 	C 	0.25680 0.38630 0.97060 -0.07800
C 	C 	0.97019 0.42943 0.30019 0.03300
C 	C 	0.61370 0.74320 0.61370 -0.03400
C 	C 	0.02981 0.69981 0.57057 0.05600
C 	C 	0.69981 0.57057 0.69981 0.01900
C 	C 	0.02940 0.74320 0.61370 -0.11100
C 	C 	0.38630 0.25680 0.97060 -0.07800
C 	C 	0.97019 0.30019 0.30019 0.03600
C 	C 	0.38630 0.97060 0.38630 -0.06000
C 	C 	0.69981 0.02981 0.69981 0.05000
C 	C 	0.02360 0.56910 0.56910 0.36900
C 	C 	0.02360 0.83820 0.56910 0.35100
C 	C 	0.83820 0.56910 0.56910 0.34300
C 	C 	0.30019 0.97019 0.30019 0.03600
C 	C 	0.61370 0.61370 0.02940 -0.13600
C 	C 	0.02940 0.61370 0.61370 -0.13600
C 	C 	0.43090 0.43090 0.16180 0.37500
C 	C 	0.38630 0.38630 0.97060 -0.06000
C 	C 	0.38630 0.38630 0.25680 -0.17200
C 	C 	0.02981 0.69981 0.69981 0.05000
C 	C 	0.43090 0.43090 0.97640 0.34700
C 	C 	0.56910 0.56910 0.83820 0.34300
C 	C 	0.42943 0.97019 0.30019 0.03300
C 	C 	0.83820 0.02360 0.56910 0.35100
C 	C 	0.38630 0.97060 0.25680 -0.07800
C 	C 	0.56910 0.02360 0.56910 0.36900
C 	C 	0.97640 0.16180 0.43090 0.34700
C 	C 	0.30019 0.42943 0.97019 0.03300
C 	C 	0.30019 0.97019 0.42943 0.03300
C 	C 	0.56910 0.56910 0.02360 0.36900
C 	C 	0.43090 0.97640 0.43090 0.34700
C 	C 	0.42943 0.30019 0.97019 0.03300
C 	C 	0.56910 0.83820 0.56910 0.34300
C 	C 	0.74320 0.61370 0.61370 -0.03400
C 	C 	0.02940 0.61370 0.74320 -0.11100
C 	C 	0.30019 0.42943 0.30019 0.08100
C 	C 	0.38630 0.25680 0.38630 -0.17200
C 	C 	0.97060 0.38630 0.25680 -0.07800
C 	C 	0.69981 0.69981 0.02981 0.05000
C 	C 	0.97640 0.43090 0.43090 0.34700
C 	C 	0.42943 0.30019 0.30019 0.08100
C 	C 	0.57057 0.69981 0.69981 0.01900
C 	C 	0.43090 0.97640 0.16180 0.34700
C 	C 	0.30019 0.30019 0.42943 0.08100
C 	C 	0.97060 0.38630 0.38630 -0.06000
C 	C 	0.61370 0.02940 0.61370 -0.13600
C 	C 	0.25680 0.38630 0.38630 -0.17200
O 	O 	0.50774 0.97904 0.38758 -0.29200
O 	O 	0.02096 0.49226 0.61242 -0.46200
O 	O 	0.02096 0.61242 0.87436 -0.34500
O 	O 	0.87436 0.49226 0.02096 -0.36500
O 	O 	0.87436 0.61242 0.02096 -0.34500
O 	O 	0.97904 0.50774 0.38758 -0.29200
O 	O 	0.49226 0.61242 0.02096 -0.46200
O 	O 	0.12564 0.97904 0.50774 -0.33300
O 	O 	0.12564 0.38758 0.97904 -0.35300
O 	O 	0.38758 0.12564 0.97904 -0.35300
O 	O 	0.50774 0.97904 0.12564 -0.33300
O 	O 	0.49226 0.61242 0.87436 -0.28400
O 	O 	0.49226 0.87436 0.61242 -0.28400
O 	O 	0.38758 0.50774 0.97904 -0.29200
O 	O 	0.87436 0.49226 0.61242 -0.28400
O 	O 	0.50774 0.38758 0.12564 -0.47400
O 	O 	0.61242 0.87436 0.49226 -0.28400
O 	O 	0.38758 0.12564 0.50774 -0.47400
O 	O 	0.97904 0.38758 0.12564 -0.35300
O 	O 	0.61242 0.49226 0.87436 -0.28400
O 	O 	0.02096 0.87436 0.61242 -0.34500
O 	O 	0.97904 0.38758 0.50774 -0.29200
O 	O 	0.61242 0.49226 0.02096 -0.46200
O 	O 	0.87436 0.02096 0.49226 -0.36500
O 	O 	0.12564 0.50774 0.38758 -0.47400
O 	O 	0.38758 0.97904 0.12564 -0.35300
O 	O 	0.61242 0.87436 0.02096 -0.34500
O 	O 	0.02096 0.49226 0.87436 -0.36500
O 	O 	0.50774 0.12564 0.38758 -0.47400
O 	O 	0.49226 0.02096 0.87436 -0.36500
O 	O 	0.97904 0.50774 0.12564 -0.33300
O 	O 	0.12564 0.97904 0.38758 -0.35300
O 	O 	0.38758 0.97904 0.50774 -0.29200
O 	O 	0.38758 0.50774 0.12564 -0.47400
O 	O 	0.02096 0.87436 0.49226 -0.36500
O 	O 	0.12564 0.38758 0.50774 -0.47400
O 	O 	0.61242 0.02096 0.87436 -0.34500
O 	O 	0.50774 0.38758 0.97904 -0.29200
O 	O 	0.50774 0.12564 0.97904 -0.33300
O 	O 	0.61242 0.02096 0.49226 -0.46200
O 	O 	0.49226 0.87436 0.02096 -0.36500
O 	O 	0.12564 0.50774 0.97904 -0.33300
O 	O 	0.87436 0.02096 0.61242 -0.34500
O 	O 	0.97904 0.12564 0.38758 -0.35300
O 	O 	0.49226 0.02096 0.61242 -0.46200
O 	O 	0.87436 0.61242 0.49226 -0.28400
O 	O 	0.97904 0.12564 0.50774 -0.33300
O 	O 	0.02096 0.61242 0.49226 -0.46200
