data_crystal

_cell_length_a 6.63050
_cell_length_b 16.77590
_cell_length_c 12.77030
_cell_angle_alpha 90.00000
_cell_angle_beta  90.00000
_cell_angle_gamma 90.00000

_symmetry_space_group_name_	'P 1'
_symmetry_space_group_name_H-M	'P 1'

loop_
_symmetry_equiv_pos_as_xyz
  x,y,z

loop_
_atom_site_label
_atom_site_type_symbol
_atom_site_fract_x
_atom_site_fract_y
_atom_site_fract_z
_atom_site_charge
O 	O 	0.16765 0.16790 0.84281 -0.64700
C 	C 	0.80910 0.03505 0.96860 0.05300
O 	O 	0.66765 0.66790 0.34281 -0.64800
C 	C 	0.30910 0.53505 0.46860 0.05600
O 	O 	0.83235 0.33210 0.84281 -0.65000
C 	C 	0.19090 0.46495 0.96860 0.05500
O 	O 	0.33235 0.83210 0.34281 -0.64600
C 	C 	0.69090 0.96495 0.46860 0.05600
O 	O 	0.83235 0.66790 0.15719 -0.64900
C 	C 	0.19090 0.53505 0.03140 0.05600
O 	O 	0.33235 0.16790 0.65719 -0.64600
C 	C 	0.69090 0.03505 0.53140 0.05600
O 	O 	0.16765 0.83210 0.15719 -0.64600
C 	C 	0.80910 0.96495 0.03140 0.05400
O 	O 	0.66765 0.33210 0.65719 -0.64700
C 	C 	0.30910 0.46495 0.53140 0.05700
O 	O 	0.83235 0.83210 0.15719 -0.64900
C 	C 	0.19090 0.96495 0.03140 0.05600
O 	O 	0.33235 0.33210 0.65719 -0.64600
C 	C 	0.69090 0.46495 0.53140 0.05600
O 	O 	0.16765 0.66790 0.15719 -0.64600
C 	C 	0.80910 0.53505 0.03140 0.05400
O 	O 	0.66765 0.16790 0.65719 -0.64700
C 	C 	0.30910 0.03505 0.53140 0.05700
O 	O 	0.16765 0.33210 0.84281 -0.64600
C 	C 	0.80910 0.46495 0.96860 0.05400
O 	O 	0.66765 0.83210 0.34281 -0.64700
C 	C 	0.30910 0.96495 0.46860 0.05700
O 	O 	0.83235 0.16790 0.84281 -0.64900
C 	C 	0.19090 0.03505 0.96860 0.05600
O 	O 	0.33235 0.66790 0.34281 -0.64600
C 	C 	0.69090 0.53505 0.46860 0.05600
Al	Al	0.25000 0.25000 0.75000 2.40000
Al	Al	0.75000 0.25000 0.75000 2.40000
Al	Al	0.75000 0.75000 0.25000 2.40000
Al	Al	0.25000 0.75000 0.25000 2.40000
O 	O 	-0.00000 0.25000 0.68460 -0.83500
O 	O 	0.50000 0.75000 0.18460 -0.83800
O 	O 	-0.00000 0.75000 0.31540 -0.83500
O 	O 	0.50000 0.25000 0.81540 -0.83800
C 	C 	-0.00000 0.06366 0.94530 -0.12200
C 	C 	-0.00000 0.13826 0.87110 0.52600
C 	C 	0.50000 0.56366 0.44530 -0.12400
C 	C 	0.50000 0.63826 0.37110 0.52300
C 	C 	0.00000 0.43634 0.94530 -0.12200
C 	C 	-0.00000 0.36174 0.87110 0.52600
C 	C 	0.50000 0.93634 0.44530 -0.12400
C 	C 	0.50000 0.86174 0.37110 0.52300
C 	C 	0.00000 0.56366 0.05470 -0.12200
C 	C 	-0.00000 0.63826 0.12890 0.52600
C 	C 	0.50000 0.06366 0.55470 -0.12400
C 	C 	0.50000 0.13826 0.62890 0.52300
C 	C 	0.00000 0.93634 0.05470 -0.12200
C 	C 	-0.00000 0.86174 0.12890 0.52600
C 	C 	0.50000 0.43634 0.55470 -0.12400
C 	C 	0.50000 0.36174 0.62890 0.52300
