data_crystal

_cell_length_a 18.58580
_cell_length_b 18.58580
_cell_length_c 18.58580
_cell_angle_alpha 60.00000
_cell_angle_beta  60.00000
_cell_angle_gamma 60.00000

_symmetry_space_group_name_	'P 1'
_symmetry_space_group_name_H-M	'P 1'

loop_
_symmetry_equiv_pos_as_xyz
  x,y,z

loop_
_atom_site_label
_atom_site_type_symbol
_atom_site_fract_x
_atom_site_fract_y
_atom_site_fract_z
_atom_site_charge
Cu	Cu	0.56984 0.00000 -0.00000 0.69500
Cu	Cu	-0.00000 0.43016 -0.00000 0.68200
Cu	Cu	-0.00000 0.56984 -0.00000 0.69500
Cu	Cu	0.43016 0.56984 -0.00000 0.79900
Cu	Cu	-0.00000 0.43016 0.56984 0.79900
Cu	Cu	0.56984 0.43016 -0.00000 0.79900
Cu	Cu	0.43016 0.00000 0.56984 0.79800
Cu	Cu	-0.00000 0.00000 0.43016 0.68100
Cu	Cu	0.43016 0.00000 -0.00000 0.68100
Cu	Cu	0.56984 0.00000 0.43016 0.79800
Cu	Cu	-0.00000 0.00000 0.56984 0.69400
Cu	Cu	-0.00000 0.56984 0.43016 0.79800
H 	H 	0.48830 0.27250 0.27250 0.00500
H 	H 	0.48830 0.96670 0.27250 0.07500
H 	H 	0.27250 0.96670 0.27250 0.05200
H 	H 	0.72750 0.51170 0.03330 0.02800
H 	H 	0.27250 0.48830 0.96670 0.07500
H 	H 	0.96670 0.27250 0.27250 0.05200
H 	H 	0.51170 0.72750 0.03330 0.02800
H 	H 	0.27250 0.48830 0.27250 0.00500
H 	H 	0.72750 0.03330 0.51170 0.02800
H 	H 	0.27250 0.27250 0.48830 0.00500
H 	H 	0.03330 0.72750 0.72750 0.05400
H 	H 	0.72750 0.03330 0.72750 0.05400
H 	H 	0.03330 0.72750 0.51170 0.02800
H 	H 	0.27250 0.96670 0.48830 0.07500
H 	H 	0.51170 0.03330 0.72750 0.02800
H 	H 	0.72750 0.51170 0.72750 0.09200
H 	H 	0.72750 0.72750 0.51170 0.09200
H 	H 	0.96670 0.48830 0.27250 0.07500
H 	H 	0.51170 0.72750 0.72750 0.09200
H 	H 	0.48830 0.27250 0.96670 0.07500
H 	H 	0.27250 0.27250 0.96670 0.05200
H 	H 	0.72750 0.72750 0.03330 0.05400
H 	H 	0.03330 0.51170 0.72750 0.02800
H 	H 	0.96670 0.27250 0.48830 0.07500
C 	C 	0.03314 0.69864 0.69864 0.05500
C 	C 	0.38758 0.25788 0.96696 -0.08400
C 	C 	0.43137 0.16267 0.97459 0.35000
C 	C 	0.30136 0.43042 0.30136 0.08600
C 	C 	0.43137 0.43137 0.97459 0.34900
C 	C 	0.69864 0.03314 0.69864 0.05500
C 	C 	0.03304 0.61242 0.74212 -0.11700
C 	C 	0.96696 0.25788 0.38758 -0.08400
C 	C 	0.03304 0.74212 0.61242 -0.11700
C 	C 	0.74212 0.03304 0.61242 -0.11700
C 	C 	0.69864 0.56958 0.03314 0.06200
C 	C 	0.96696 0.38758 0.38758 -0.06600
C 	C 	0.69864 0.69864 0.03314 0.05500
C 	C 	0.83733 0.02541 0.56863 0.35400
C 	C 	0.30136 0.43042 0.96686 0.03900
C 	C 	0.16267 0.97459 0.43137 0.35000
C 	C 	0.16267 0.43137 0.43137 0.38100
C 	C 	0.38758 0.38758 0.25788 -0.17700
C 	C 	0.25788 0.38758 0.96696 -0.08400
C 	C 	0.43137 0.97459 0.16267 0.35000
C 	C 	0.30136 0.30136 0.96686 0.04200
C 	C 	0.43042 0.30136 0.96686 0.03900
C 	C 	0.69864 0.69864 0.56958 0.02600
C 	C 	0.56863 0.02541 0.83733 0.35400
C 	C 	0.61242 0.61242 0.03304 -0.14100
C 	C 	0.56958 0.69864 0.69864 0.02600
C 	C 	0.61242 0.74212 0.61242 -0.04100
C 	C 	0.96686 0.43042 0.30136 0.03900
C 	C 	0.30136 0.96686 0.43042 0.03900
C 	C 	0.83733 0.56863 0.56863 0.34500
C 	C 	0.83733 0.56863 0.02541 0.35400
C 	C 	0.25788 0.38758 0.38758 -0.17700
C 	C 	0.97459 0.16267 0.43137 0.35000
C 	C 	0.43137 0.16267 0.43137 0.38100
C 	C 	0.96696 0.38758 0.25788 -0.08400
C 	C 	0.02541 0.56863 0.83733 0.35400
C 	C 	0.97459 0.43137 0.43137 0.34900
C 	C 	0.38758 0.96696 0.38758 -0.06600
C 	C 	0.43137 0.97459 0.43137 0.34900
C 	C 	0.56863 0.56863 0.83733 0.34500
C 	C 	0.03314 0.69864 0.56958 0.06200
C 	C 	0.61242 0.03304 0.74212 -0.11700
C 	C 	0.61242 0.61242 0.74212 -0.04100
C 	C 	0.74212 0.61242 0.03304 -0.11700
C 	C 	0.02541 0.56863 0.56863 0.37500
C 	C 	0.43042 0.30136 0.30136 0.08600
C 	C 	0.69864 0.56958 0.69864 0.02600
C 	C 	0.43042 0.96686 0.30136 0.03900
C 	C 	0.38758 0.25788 0.38758 -0.17700
C 	C 	0.56863 0.56863 0.02541 0.37500
C 	C 	0.56958 0.03314 0.69864 0.06200
C 	C 	0.97459 0.43137 0.16267 0.35000
C 	C 	0.43137 0.43137 0.16267 0.38100
C 	C 	0.61242 0.03304 0.61242 -0.14100
C 	C 	0.30136 0.96686 0.30136 0.04200
C 	C 	0.74212 0.61242 0.61242 -0.04100
C 	C 	0.03314 0.56958 0.69864 0.06200
C 	C 	0.56863 0.02541 0.56863 0.37500
C 	C 	0.30136 0.30136 0.43042 0.08600
C 	C 	0.96686 0.30136 0.43042 0.03900
C 	C 	0.38758 0.96696 0.25788 -0.08400
C 	C 	0.69864 0.03314 0.56958 0.06200
C 	C 	0.56958 0.69864 0.03314 0.06200
C 	C 	0.02541 0.83733 0.56863 0.35400
C 	C 	0.16267 0.43137 0.97459 0.35000
C 	C 	0.03304 0.61242 0.61242 -0.14100
C 	C 	0.25788 0.96696 0.38758 -0.08400
C 	C 	0.96686 0.30136 0.30136 0.04200
C 	C 	0.61242 0.74212 0.03304 -0.11700
C 	C 	0.56863 0.83733 0.56863 0.34500
C 	C 	0.56863 0.83733 0.02541 0.35400
C 	C 	0.38758 0.38758 0.96696 -0.06600
O 	O 	0.61257 0.49233 0.87379 -0.28300
O 	O 	0.97869 0.38743 0.12621 -0.35300
O 	O 	0.50767 0.97869 0.12621 -0.33400
O 	O 	0.38743 0.12621 0.97869 -0.35300
O 	O 	0.61257 0.02131 0.87379 -0.34600
O 	O 	0.50767 0.12621 0.97869 -0.33400
O 	O 	0.49233 0.87379 0.61257 -0.28300
O 	O 	0.87379 0.61257 0.49233 -0.28300
O 	O 	0.49233 0.87379 0.02131 -0.36600
O 	O 	0.97869 0.50767 0.12621 -0.33400
O 	O 	0.97869 0.50767 0.38743 -0.29200
O 	O 	0.50767 0.38743 0.12621 -0.47500
O 	O 	0.49233 0.61257 0.87379 -0.28300
O 	O 	0.02131 0.49233 0.87379 -0.36600
O 	O 	0.87379 0.61257 0.02131 -0.34600
O 	O 	0.61257 0.02131 0.49233 -0.46300
O 	O 	0.97869 0.12621 0.50767 -0.33400
O 	O 	0.61257 0.87379 0.02131 -0.34600
O 	O 	0.12621 0.97869 0.38743 -0.35300
O 	O 	0.02131 0.49233 0.61257 -0.46300
O 	O 	0.12621 0.50767 0.38743 -0.47500
O 	O 	0.50767 0.97869 0.38743 -0.29200
O 	O 	0.02131 0.61257 0.87379 -0.34600
O 	O 	0.97869 0.12621 0.38743 -0.35300
O 	O 	0.49233 0.02131 0.61257 -0.46300
O 	O 	0.12621 0.50767 0.97869 -0.33400
O 	O 	0.87379 0.02131 0.49233 -0.36600
O 	O 	0.61257 0.87379 0.49233 -0.28300
O 	O 	0.87379 0.49233 0.61257 -0.28300
O 	O 	0.50767 0.12621 0.38743 -0.47500
O 	O 	0.38743 0.50767 0.12621 -0.47500
O 	O 	0.02131 0.87379 0.61257 -0.34600
O 	O 	0.38743 0.12621 0.50767 -0.47500
O 	O 	0.87379 0.49233 0.02131 -0.36600
O 	O 	0.87379 0.02131 0.61257 -0.34600
O 	O 	0.50767 0.38743 0.97869 -0.29200
O 	O 	0.49233 0.02131 0.87379 -0.36600
O 	O 	0.38743 0.50767 0.97869 -0.29200
O 	O 	0.97869 0.38743 0.50767 -0.29200
O 	O 	0.02131 0.61257 0.49233 -0.46300
O 	O 	0.38743 0.97869 0.50767 -0.29200
O 	O 	0.49233 0.61257 0.02131 -0.46300
O 	O 	0.02131 0.87379 0.49233 -0.36600
O 	O 	0.38743 0.97869 0.12621 -0.35300
O 	O 	0.12621 0.38743 0.97869 -0.35300
O 	O 	0.12621 0.38743 0.50767 -0.47500
O 	O 	0.61257 0.49233 0.02131 -0.46300
O 	O 	0.12621 0.97869 0.50767 -0.33400
