data_crystal

_cell_length_a 6.62870
_cell_length_b 16.72240
_cell_length_c 12.84060
_cell_angle_alpha 90.00000
_cell_angle_beta  90.00000
_cell_angle_gamma 90.00000

_symmetry_space_group_name_	'P 1'
_symmetry_space_group_name_H-M	'P 1'

loop_
_symmetry_equiv_pos_as_xyz
  x,y,z

loop_
_atom_site_label
_atom_site_type_symbol
_atom_site_fract_x
_atom_site_fract_y
_atom_site_fract_z
_atom_site_charge
O 	O 	0.16524 0.16847 0.84274 -0.64100
C 	C 	0.80910 0.03582 0.96770 0.05400
O 	O 	0.66524 0.66847 0.34274 -0.64300
C 	C 	0.30910 0.53582 0.46770 0.05800
O 	O 	0.83476 0.33153 0.84274 -0.64600
C 	C 	0.19090 0.46418 0.96770 0.05600
O 	O 	0.33476 0.83153 0.34274 -0.64100
C 	C 	0.69090 0.96418 0.46770 0.05600
O 	O 	0.83476 0.66847 0.15726 -0.64600
C 	C 	0.19090 0.53582 0.03230 0.05600
O 	O 	0.33476 0.16847 0.65726 -0.64100
C 	C 	0.69090 0.03582 0.53230 0.05600
O 	O 	0.16524 0.83153 0.15726 -0.64200
C 	C 	0.80910 0.96418 0.03230 0.05300
O 	O 	0.66524 0.33153 0.65726 -0.64300
C 	C 	0.30910 0.46418 0.53230 0.05800
O 	O 	0.83476 0.83153 0.15726 -0.64600
C 	C 	0.19090 0.96418 0.03230 0.05600
O 	O 	0.33476 0.33153 0.65726 -0.64100
C 	C 	0.69090 0.46418 0.53230 0.05600
O 	O 	0.16524 0.66847 0.15726 -0.64200
C 	C 	0.80910 0.53582 0.03230 0.05300
O 	O 	0.66524 0.16847 0.65726 -0.64300
C 	C 	0.30910 0.03582 0.53230 0.05800
O 	O 	0.16524 0.33153 0.84274 -0.64200
C 	C 	0.80910 0.46418 0.96770 0.05300
O 	O 	0.66524 0.83153 0.34274 -0.64300
C 	C 	0.30910 0.96418 0.46770 0.05800
O 	O 	0.83476 0.16847 0.84274 -0.64600
C 	C 	0.19090 0.03582 0.96770 0.05600
O 	O 	0.33476 0.66847 0.34274 -0.64100
C 	C 	0.69090 0.53582 0.46770 0.05600
Al	Al	0.25000 0.25000 0.75000 2.40000
Al	Al	0.75000 0.25000 0.75000 2.40000
Al	Al	0.75000 0.75000 0.25000 2.40000
Al	Al	0.25000 0.75000 0.25000 2.40000
O 	O 	0.00000 0.25000 0.68540 -0.83600
O 	O 	0.50000 0.75000 0.18540 -0.83900
O 	O 	-0.00000 0.75000 0.31460 -0.83600
O 	O 	0.50000 0.25000 0.81460 -0.83900
C 	C 	0.00000 0.06210 0.94740 -0.12700
C 	C 	0.00000 0.13630 0.87250 0.52400
C 	C 	0.50000 0.56210 0.44740 -0.13100
C 	C 	0.50000 0.63630 0.37250 0.52000
C 	C 	0.00000 0.43790 0.94740 -0.12700
C 	C 	-0.00000 0.36370 0.87250 0.52400
C 	C 	0.50000 0.93790 0.44740 -0.13100
C 	C 	0.50000 0.86370 0.37250 0.52000
C 	C 	-0.00000 0.56210 0.05260 -0.12700
C 	C 	-0.00000 0.63630 0.12750 0.52400
C 	C 	0.50000 0.06210 0.55260 -0.13100
C 	C 	0.50000 0.13630 0.62750 0.52000
C 	C 	0.00000 0.93790 0.05260 -0.12700
C 	C 	-0.00000 0.86370 0.12750 0.52400
C 	C 	0.50000 0.43790 0.55260 -0.13100
C 	C 	0.50000 0.36370 0.62750 0.52000
