data_crystal

_cell_length_a 6.62860
_cell_length_b 16.71680
_cell_length_c 12.84730
_cell_angle_alpha 90.00000
_cell_angle_beta  90.00000
_cell_angle_gamma 90.00000

_symmetry_space_group_name_	'P 1'
_symmetry_space_group_name_H-M	'P 1'

loop_
_symmetry_equiv_pos_as_xyz
  x,y,z

loop_
_atom_site_label
_atom_site_type_symbol
_atom_site_fract_x
_atom_site_fract_y
_atom_site_fract_z
_atom_site_charge
O 	O 	0.16467 0.16836 0.84265 -0.64600
C 	C 	0.80910 0.03561 0.96770 0.05400
O 	O 	0.66467 0.66836 0.34265 -0.64600
C 	C 	0.30910 0.53561 0.46770 0.05800
O 	O 	0.83533 0.33164 0.84265 -0.64900
C 	C 	0.19090 0.46439 0.96770 0.05600
O 	O 	0.33533 0.83164 0.34265 -0.64500
C 	C 	0.69090 0.96439 0.46770 0.05600
O 	O 	0.83533 0.66836 0.15735 -0.64900
C 	C 	0.19090 0.53561 0.03230 0.05600
O 	O 	0.33533 0.16836 0.65735 -0.64500
C 	C 	0.69090 0.03561 0.53230 0.05600
O 	O 	0.16467 0.83164 0.15735 -0.64600
C 	C 	0.80910 0.96439 0.03230 0.05400
O 	O 	0.66467 0.33164 0.65735 -0.64600
C 	C 	0.30910 0.46439 0.53230 0.05800
O 	O 	0.83533 0.83164 0.15735 -0.64900
C 	C 	0.19090 0.96439 0.03230 0.05600
O 	O 	0.33533 0.33164 0.65735 -0.64500
C 	C 	0.69090 0.46439 0.53230 0.05600
O 	O 	0.16467 0.66836 0.15735 -0.64600
C 	C 	0.80910 0.53561 0.03230 0.05400
O 	O 	0.66467 0.16836 0.65735 -0.64600
C 	C 	0.30910 0.03561 0.53230 0.05800
O 	O 	0.16467 0.33164 0.84265 -0.64600
C 	C 	0.80910 0.46439 0.96770 0.05400
O 	O 	0.66467 0.83164 0.34265 -0.64600
C 	C 	0.30910 0.96439 0.46770 0.05800
O 	O 	0.83533 0.16836 0.84265 -0.64900
C 	C 	0.19090 0.03561 0.96770 0.05600
O 	O 	0.33533 0.66836 0.34265 -0.64500
C 	C 	0.69090 0.53561 0.46770 0.05600
Al	Al	0.25000 0.25000 0.75000 2.40000
Al	Al	0.75000 0.25000 0.75000 2.40000
Al	Al	0.75000 0.75000 0.25000 2.40000
Al	Al	0.25000 0.75000 0.25000 2.40000
O 	O 	-0.00000 0.25000 0.68580 -0.83900
O 	O 	0.50000 0.75000 0.18580 -0.84100
O 	O 	0.00000 0.75000 0.31420 -0.83900
O 	O 	0.50000 0.25000 0.81420 -0.84100
C 	C 	0.00000 0.06190 0.94720 -0.12800
C 	C 	0.00000 0.13690 0.87270 0.53300
C 	C 	0.50000 0.56190 0.44720 -0.13200
C 	C 	0.50000 0.63690 0.37270 0.52900
C 	C 	0.00000 0.43810 0.94720 -0.12800
C 	C 	0.00000 0.36310 0.87270 0.53300
C 	C 	0.50000 0.93810 0.44720 -0.13200
C 	C 	0.50000 0.86310 0.37270 0.52900
C 	C 	-0.00000 0.56190 0.05280 -0.12800
C 	C 	-0.00000 0.63690 0.12730 0.53300
C 	C 	0.50000 0.06190 0.55280 -0.13200
C 	C 	0.50000 0.13690 0.62730 0.52900
C 	C 	-0.00000 0.93810 0.05280 -0.12800
C 	C 	-0.00000 0.86310 0.12730 0.53300
C 	C 	0.50000 0.43810 0.55280 -0.13200
C 	C 	0.50000 0.36310 0.62730 0.52900
