data_crystal

_cell_length_a 6.56800
_cell_length_b 16.40180
_cell_length_c 13.18300
_cell_angle_alpha 90.00000
_cell_angle_beta  90.00000
_cell_angle_gamma 90.00000

_symmetry_space_group_name_	'P 1'
_symmetry_space_group_name_H-M	'P 1'

loop_
_symmetry_equiv_pos_as_xyz
  x,y,z

loop_
_atom_site_label
_atom_site_type_symbol
_atom_site_fract_x
_atom_site_fract_y
_atom_site_fract_z
_atom_site_charge
O 	O 	0.16990 0.16825 0.84130 -0.61400
C 	C 	0.80410 0.02910 0.95670 0.04300
O 	O 	0.66990 0.66825 0.34130 -0.61500
C 	C 	0.30410 0.52910 0.45670 0.05800
O 	O 	0.83010 0.33175 0.84130 -0.62500
C 	C 	0.19590 0.47090 0.95670 0.05400
O 	O 	0.33010 0.83175 0.34130 -0.60900
C 	C 	0.69590 0.97090 0.45670 0.05100
O 	O 	0.83010 0.66825 0.15870 -0.62500
C 	C 	0.19590 0.52910 0.04330 0.05400
O 	O 	0.33010 0.16825 0.65870 -0.60900
C 	C 	0.69590 0.02910 0.54330 0.05100
O 	O 	0.16990 0.83175 0.15870 -0.61300
C 	C 	0.80410 0.97090 0.04330 0.04400
O 	O 	0.66990 0.33175 0.65870 -0.61500
C 	C 	0.30410 0.47090 0.54330 0.05800
O 	O 	0.83010 0.83175 0.15870 -0.62400
C 	C 	0.19590 0.97090 0.04330 0.05400
O 	O 	0.33010 0.33175 0.65870 -0.60900
C 	C 	0.69590 0.47090 0.54330 0.05100
O 	O 	0.16990 0.66825 0.15870 -0.61300
C 	C 	0.80410 0.52910 0.04330 0.04400
O 	O 	0.66990 0.16825 0.65870 -0.61400
C 	C 	0.30410 0.02910 0.54330 0.05800
O 	O 	0.16990 0.33175 0.84130 -0.61300
C 	C 	0.80410 0.47090 0.95670 0.04400
O 	O 	0.66990 0.83175 0.34130 -0.61400
C 	C 	0.30410 0.97090 0.45670 0.05800
O 	O 	0.83010 0.16825 0.84130 -0.62400
C 	C 	0.19590 0.02910 0.95670 0.05400
O 	O 	0.33010 0.66825 0.34130 -0.60900
C 	C 	0.69590 0.52910 0.45670 0.05100
Al	Al	0.25000 0.25000 0.75000 2.40900
Al	Al	0.75000 0.25000 0.75000 2.40900
Al	Al	0.75000 0.75000 0.25000 2.40900
Al	Al	0.25000 0.75000 0.25000 2.40900
F 	F 	-0.00000 0.25000 0.69460 -0.98200
F 	F 	0.50000 0.75000 0.19460 -0.98900
F 	F 	-0.00000 0.75000 0.30540 -0.98200
F 	F 	0.50000 0.25000 0.80540 -0.98900
C 	C 	-0.00000 0.06290 0.94640 -0.09200
C 	C 	-0.00000 0.13720 0.86620 0.52100
C 	C 	0.50000 0.56290 0.44640 -0.10400
C 	C 	0.50000 0.63720 0.36620 0.50600
C 	C 	-0.00000 0.43710 0.94640 -0.09200
C 	C 	-0.00000 0.36280 0.86620 0.52100
C 	C 	0.50000 0.93710 0.44640 -0.10400
C 	C 	0.50000 0.86280 0.36620 0.50600
C 	C 	0.00000 0.56290 0.05360 -0.09200
C 	C 	-0.00000 0.63720 0.13380 0.52100
C 	C 	0.50000 0.06290 0.55360 -0.10400
C 	C 	0.50000 0.13720 0.63380 0.50600
C 	C 	-0.00000 0.93710 0.05360 -0.09200
C 	C 	-0.00000 0.86280 0.13380 0.52100
C 	C 	0.50000 0.43710 0.55360 -0.10400
C 	C 	0.50000 0.36280 0.63380 0.50600
