data_crystal

_cell_length_a 18.57650
_cell_length_b 18.57650
_cell_length_c 18.57650
_cell_angle_alpha 60.00000
_cell_angle_beta  60.00000
_cell_angle_gamma 60.00000

_symmetry_space_group_name_	'P 1'
_symmetry_space_group_name_H-M	'P 1'

loop_
_symmetry_equiv_pos_as_xyz
  x,y,z

loop_
_atom_site_label
_atom_site_type_symbol
_atom_site_fract_x
_atom_site_fract_y
_atom_site_fract_z
_atom_site_charge
Cu	Cu	0.56702 0.43298 -0.00000 0.79900
Cu	Cu	0.00000 0.56702 0.43298 0.79900
Cu	Cu	0.00000 0.43298 -0.00000 0.68300
Cu	Cu	0.56702 0.00000 -0.00000 0.69500
Cu	Cu	0.43298 0.00000 0.56702 0.79900
Cu	Cu	0.00000 -0.00000 0.43298 0.68300
Cu	Cu	-0.00000 0.56702 -0.00000 0.69400
Cu	Cu	0.00000 0.43298 0.56702 0.79800
Cu	Cu	0.43298 0.56702 -0.00000 0.79800
Cu	Cu	0.00000 0.00000 0.56702 0.69400
Cu	Cu	0.43298 0.00000 -0.00000 0.68200
Cu	Cu	0.56702 -0.00000 0.43298 0.79800
H 	H 	0.97040 0.27120 0.27120 0.05600
H 	H 	0.51280 0.72880 0.72880 0.09800
H 	H 	0.72880 0.72880 0.02960 0.05800
H 	H 	0.48720 0.27120 0.97040 0.08000
H 	H 	0.97040 0.27120 0.48720 0.08000
H 	H 	0.72880 0.51280 0.02960 0.03200
H 	H 	0.48720 0.27120 0.27120 0.00800
H 	H 	0.72880 0.02960 0.51280 0.03200
H 	H 	0.02960 0.51280 0.72880 0.03200
H 	H 	0.72880 0.72880 0.51280 0.09800
H 	H 	0.48720 0.97040 0.27120 0.08000
H 	H 	0.72880 0.02960 0.72880 0.05800
H 	H 	0.27120 0.27120 0.97040 0.05600
H 	H 	0.02960 0.72880 0.51280 0.03200
H 	H 	0.02960 0.72880 0.72880 0.05800
H 	H 	0.27120 0.27120 0.48720 0.00800
H 	H 	0.51280 0.02960 0.72880 0.03200
H 	H 	0.51280 0.72880 0.02960 0.03200
H 	H 	0.27120 0.48720 0.97040 0.08000
H 	H 	0.27120 0.97040 0.48720 0.08000
H 	H 	0.97040 0.48720 0.27120 0.08000
H 	H 	0.72880 0.51280 0.72880 0.09800
H 	H 	0.27120 0.97040 0.27120 0.05600
H 	H 	0.27120 0.48720 0.27120 0.00800
C 	C 	0.38629 0.38629 0.25657 -0.16800
C 	C 	0.29998 0.29998 0.42940 0.07700
C 	C 	0.25657 0.38629 0.97085 -0.07300
C 	C 	0.43092 0.16190 0.43092 0.36800
C 	C 	0.42940 0.29998 0.29998 0.07700
C 	C 	0.38629 0.38629 0.97085 -0.05500
C 	C 	0.29998 0.97064 0.29998 0.03200
C 	C 	0.02374 0.56908 0.83810 0.34300
C 	C 	0.02936 0.70002 0.57060 0.05300
C 	C 	0.70002 0.70002 0.57060 0.01500
C 	C 	0.61371 0.74343 0.61371 -0.02900
C 	C 	0.43092 0.16190 0.97626 0.33900
C 	C 	0.38629 0.25657 0.38629 -0.16800
C 	C 	0.29998 0.97064 0.42940 0.02900
C 	C 	0.57060 0.70002 0.70002 0.01500
C 	C 	0.38629 0.25657 0.97085 -0.07300
C 	C 	0.97085 0.38629 0.25657 -0.07300
C 	C 	0.56908 0.56908 0.02374 0.36200
C 	C 	0.43092 0.97626 0.16190 0.33900
C 	C 	0.29998 0.29998 0.97064 0.03200
C 	C 	0.29998 0.42940 0.97064 0.02900
C 	C 	0.02936 0.70002 0.70002 0.04600
C 	C 	0.38629 0.97085 0.25657 -0.07300
C 	C 	0.70002 0.02936 0.57060 0.05300
C 	C 	0.97626 0.43092 0.16190 0.33900
C 	C 	0.57060 0.02936 0.70002 0.05300
C 	C 	0.61371 0.61371 0.02915 -0.13200
C 	C 	0.56908 0.02374 0.56908 0.36200
C 	C 	0.02936 0.57060 0.70002 0.05300
C 	C 	0.97064 0.29998 0.42940 0.02900
C 	C 	0.16190 0.97626 0.43092 0.33900
C 	C 	0.43092 0.43092 0.97626 0.33900
C 	C 	0.02374 0.83810 0.56908 0.34300
C 	C 	0.74343 0.61371 0.61371 -0.02900
C 	C 	0.02915 0.61371 0.74343 -0.10800
C 	C 	0.43092 0.97626 0.43092 0.33900
C 	C 	0.83810 0.56908 0.02374 0.34300
C 	C 	0.74343 0.02915 0.61371 -0.10800
C 	C 	0.83810 0.56908 0.56908 0.33500
C 	C 	0.56908 0.02374 0.83810 0.34300
C 	C 	0.83810 0.02374 0.56908 0.34300
C 	C 	0.57060 0.70002 0.02936 0.05300
C 	C 	0.61371 0.61371 0.74343 -0.02900
C 	C 	0.29998 0.42940 0.29998 0.07700
C 	C 	0.16190 0.43092 0.43092 0.36800
C 	C 	0.97626 0.43092 0.43092 0.33900
C 	C 	0.61371 0.74343 0.02915 -0.10800
C 	C 	0.56908 0.83810 0.02374 0.34300
C 	C 	0.16190 0.43092 0.97626 0.33900
C 	C 	0.43092 0.43092 0.16190 0.36800
C 	C 	0.97085 0.38629 0.38629 -0.05500
C 	C 	0.02915 0.74343 0.61371 -0.10800
C 	C 	0.97085 0.25657 0.38629 -0.07300
C 	C 	0.70002 0.02936 0.70002 0.04600
C 	C 	0.42940 0.97064 0.29998 0.02900
C 	C 	0.61371 0.02915 0.74343 -0.10800
C 	C 	0.38629 0.97085 0.38629 -0.05500
C 	C 	0.70002 0.57060 0.70002 0.01500
C 	C 	0.97064 0.42940 0.29998 0.02900
C 	C 	0.25657 0.38629 0.38629 -0.16800
C 	C 	0.56908 0.56908 0.83810 0.33500
C 	C 	0.42940 0.29998 0.97064 0.02900
C 	C 	0.97064 0.29998 0.29998 0.03200
C 	C 	0.02915 0.61371 0.61371 -0.13200
C 	C 	0.70002 0.70002 0.02936 0.04600
C 	C 	0.61371 0.02915 0.61371 -0.13200
C 	C 	0.02374 0.56908 0.56908 0.36200
C 	C 	0.25657 0.97085 0.38629 -0.07300
C 	C 	0.74343 0.61371 0.02915 -0.10800
C 	C 	0.56908 0.83810 0.56908 0.33500
C 	C 	0.70002 0.57060 0.02936 0.05300
C 	C 	0.97626 0.16190 0.43092 0.33900
O 	O 	0.02059 0.61255 0.87489 -0.34200
O 	O 	0.49197 0.61255 0.87489 -0.28000
O 	O 	0.38745 0.12511 0.97941 -0.35000
O 	O 	0.50803 0.97941 0.12511 -0.33100
O 	O 	0.12511 0.50803 0.38745 -0.47200
O 	O 	0.97941 0.38745 0.12511 -0.35000
O 	O 	0.12511 0.38745 0.97941 -0.35000
O 	O 	0.12511 0.97941 0.38745 -0.35000
O 	O 	0.61255 0.49197 0.87489 -0.28000
O 	O 	0.02059 0.87489 0.61255 -0.34200
O 	O 	0.87489 0.02059 0.49197 -0.36300
O 	O 	0.12511 0.97941 0.50803 -0.33100
O 	O 	0.97941 0.12511 0.50803 -0.33100
O 	O 	0.02059 0.49197 0.87489 -0.36300
O 	O 	0.50803 0.38745 0.12511 -0.47200
O 	O 	0.49197 0.87489 0.61255 -0.28000
O 	O 	0.61255 0.87489 0.02059 -0.34200
O 	O 	0.50803 0.97941 0.38745 -0.28900
O 	O 	0.49197 0.02059 0.61255 -0.46000
O 	O 	0.97941 0.12511 0.38745 -0.35000
O 	O 	0.38745 0.50803 0.12511 -0.47200
O 	O 	0.49197 0.87489 0.02059 -0.36300
O 	O 	0.61255 0.02059 0.49197 -0.46000
O 	O 	0.38745 0.97941 0.12511 -0.35000
O 	O 	0.97941 0.50803 0.38745 -0.28900
O 	O 	0.02059 0.87489 0.49197 -0.36300
O 	O 	0.02059 0.49197 0.61255 -0.46000
O 	O 	0.12511 0.38745 0.50803 -0.47200
O 	O 	0.50803 0.12511 0.97941 -0.33100
O 	O 	0.50803 0.38745 0.97941 -0.28900
O 	O 	0.38745 0.12511 0.50803 -0.47200
O 	O 	0.38745 0.97941 0.50803 -0.28900
O 	O 	0.12511 0.50803 0.97941 -0.33100
O 	O 	0.87489 0.61255 0.02059 -0.34200
O 	O 	0.02059 0.61255 0.49197 -0.46000
O 	O 	0.87489 0.49197 0.61255 -0.28000
O 	O 	0.50803 0.12511 0.38745 -0.47200
O 	O 	0.49197 0.02059 0.87489 -0.36300
O 	O 	0.38745 0.50803 0.97941 -0.28900
O 	O 	0.87489 0.49197 0.02059 -0.36300
O 	O 	0.61255 0.49197 0.02059 -0.46000
O 	O 	0.97941 0.38745 0.50803 -0.28900
O 	O 	0.87489 0.61255 0.49197 -0.28000
O 	O 	0.87489 0.02059 0.61255 -0.34200
O 	O 	0.49197 0.61255 0.02059 -0.46000
O 	O 	0.97941 0.50803 0.12511 -0.33100
O 	O 	0.61255 0.02059 0.87489 -0.34200
O 	O 	0.61255 0.87489 0.49197 -0.28000
