data_crystal

_cell_length_a 13.14850
_cell_length_b 16.40800
_cell_length_c 13.34400
_cell_angle_alpha 90.00000
_cell_angle_beta  90.00000
_cell_angle_gamma 90.00000

_symmetry_space_group_name_	'P 1'
_symmetry_space_group_name_H-M	'P 1'

loop_
_symmetry_equiv_pos_as_xyz
  x,y,z

loop_
_atom_site_label
_atom_site_type_symbol
_atom_site_fract_x
_atom_site_fract_y
_atom_site_fract_z
_atom_site_charge
H 	H 	0.40444 0.45765 0.58413 0.05700
H 	H 	0.40217 0.57894 0.46899 0.05900
H 	H 	0.08346 0.54100 0.41506 0.05200
H 	H 	0.08573 0.41972 0.53018 0.05600
H 	H 	0.40191 0.07910 0.52870 0.05900
H 	H 	0.08329 0.04044 0.58243 0.05200
H 	H 	0.15182 0.07809 0.96714 0.06100
H 	H 	0.33596 0.91821 0.02865 0.05900
H 	H 	0.15462 0.95686 0.08233 0.05700
H 	H 	0.33315 0.03948 0.91352 0.05600
H 	H 	0.33575 0.41832 0.96918 0.05900
H 	H 	0.15441 0.45636 0.91497 0.05700
H 	H 	0.08610 0.91916 0.46731 0.05600
H 	H 	0.40470 0.95784 0.41354 0.05600
H 	H 	0.15217 0.57765 0.03007 0.06100
H 	H 	0.33350 0.53960 0.08431 0.05600
H 	H 	0.90450 0.45768 0.58415 0.05900
H 	H 	0.90222 0.57895 0.46900 0.06300
H 	H 	0.58352 0.54101 0.41506 0.05600
H 	H 	0.58579 0.41973 0.53018 0.06000
H 	H 	0.90198 0.07911 0.52868 0.06300
H 	H 	0.58336 0.04044 0.58243 0.05600
H 	H 	0.65181 0.07805 0.96708 0.06000
H 	H 	0.83600 0.91819 0.02860 0.06000
H 	H 	0.65461 0.95683 0.08228 0.05600
H 	H 	0.83318 0.03947 0.91349 0.05700
H 	H 	0.83577 0.41830 0.96919 0.06000
H 	H 	0.65440 0.45635 0.91499 0.05600
H 	H 	0.58617 0.91917 0.46731 0.06000
H 	H 	0.90477 0.95785 0.41352 0.05900
H 	H 	0.65216 0.57763 0.03011 0.06000
H 	H 	0.83352 0.53960 0.08431 0.05700
C 	C 	0.40295 0.02087 0.95103 0.01100
C 	C 	0.99238 0.06551 0.93381 -0.09400
C 	C 	0.49073 0.13724 0.86512 0.49100
C 	C 	0.08356 0.54215 0.01638 -0.00300
C 	C 	0.15313 0.52226 0.45269 0.01000
C 	C 	0.24270 0.56672 0.43554 -0.10700
C 	C 	0.24126 0.63828 0.36660 0.49200
C 	C 	0.33342 0.04349 0.51482 0.00900
C 	C 	0.08476 0.47508 0.95266 -0.00100
C 	C 	0.49519 0.43059 0.93559 -0.10600
C 	C 	0.99661 0.35901 0.86667 0.50500
C 	C 	0.40446 0.95381 0.01476 0.00900
C 	C 	0.33492 0.97643 0.45109 0.01100
C 	C 	0.24553 0.93177 0.43392 -0.10600
C 	C 	0.24715 0.86004 0.36525 0.49200
C 	C 	0.15435 0.45520 0.51642 0.00800
C 	C 	0.08485 0.97542 0.04474 -0.00100
C 	C 	0.49544 0.93075 0.06193 -0.10500
C 	C 	0.99712 0.85912 0.13077 0.50500
C 	C 	0.40437 0.45379 0.98293 0.00900
C 	C 	0.33476 0.47642 0.54654 0.01100
C 	C 	0.24520 0.43194 0.56365 -0.10600
C 	C 	0.24662 0.36014 0.63222 0.49200
C 	C 	0.15457 0.95481 0.48112 0.00800
C 	C 	0.40317 0.52086 0.04666 0.01100
C 	C 	0.99272 0.56539 0.06367 -0.09400
C 	C 	0.49129 0.63721 0.13224 0.49100
C 	C 	0.08335 0.04246 0.98099 -0.00300
C 	C 	0.15306 0.02187 0.54484 0.01000
C 	C 	0.24244 0.06656 0.56200 -0.10700
C 	C 	0.24076 0.13823 0.63076 0.49200
C 	C 	0.33354 0.54349 0.48281 0.00900
C 	C 	0.90297 0.02086 0.95102 0.01100
C 	C 	0.49235 0.06550 0.93379 -0.10500
C 	C 	0.99075 0.13726 0.86516 0.50500
C 	C 	0.58355 0.54214 0.01640 0.00900
C 	C 	0.65319 0.52227 0.45270 0.01200
C 	C 	0.74275 0.56672 0.43554 -0.10500
C 	C 	0.74129 0.63830 0.36662 0.49100
C 	C 	0.83349 0.04350 0.51482 0.01000
C 	C 	0.58474 0.47507 0.95268 0.01200
C 	C 	0.99521 0.43058 0.93560 -0.09400
C 	C 	0.49660 0.35901 0.86666 0.49100
C 	C 	0.90449 0.95380 0.01474 0.00900
C 	C 	0.83499 0.97645 0.45108 0.01200
C 	C 	0.74560 0.93177 0.43391 -0.10500
C 	C 	0.74720 0.86006 0.36522 0.49100
C 	C 	0.65440 0.45521 0.51642 0.00900
C 	C 	0.58484 0.97540 0.04471 0.01200
C 	C 	0.99546 0.93075 0.06193 -0.09400
C 	C 	0.49710 0.85912 0.13078 0.49100
C 	C 	0.90439 0.45379 0.98294 0.00900
C 	C 	0.83481 0.47644 0.54656 0.01200
C 	C 	0.74526 0.43196 0.56367 -0.10500
C 	C 	0.74666 0.36016 0.63225 0.49100
C 	C 	0.65464 0.95482 0.48112 0.00900
C 	C 	0.90319 0.52086 0.04666 0.01100
C 	C 	0.49271 0.56538 0.06369 -0.10500
C 	C 	0.99129 0.63722 0.13221 0.50500
C 	C 	0.58333 0.04244 0.98095 0.00900
C 	C 	0.65313 0.02188 0.54483 0.01200
C 	C 	0.74251 0.06657 0.56199 -0.10500
C 	C 	0.74080 0.13825 0.63074 0.49100
C 	C 	0.83360 0.54350 0.48282 0.01000
O 	O 	0.07537 0.17207 0.84658 -0.63000
O 	O 	0.40514 0.65884 0.16722 -0.61800
O 	O 	0.32589 0.67306 0.34794 -0.61700
O 	O 	0.15449 0.15971 0.66561 -0.62100
O 	O 	0.41195 0.32425 0.84801 -0.61700
O 	O 	0.08336 0.83770 0.16576 -0.63100
O 	O 	0.16256 0.82514 0.34679 -0.62000
O 	O 	0.33275 0.33856 0.66728 -0.61800
O 	O 	0.41252 0.82431 0.14949 -0.61700
O 	O 	0.08276 0.33760 0.83150 -0.63100
O 	O 	0.16196 0.32531 0.65059 -0.62000
O 	O 	0.33333 0.83856 0.33020 -0.61800
O 	O 	0.07594 0.67206 0.15059 -0.63000
O 	O 	0.40453 0.15882 0.83022 -0.61800
O 	O 	0.32534 0.17305 0.64950 -0.61700
O 	O 	0.15508 0.65969 0.33148 -0.62200
O 	O 	0.57536 0.17204 0.84653 -0.61700
O 	O 	0.90515 0.65884 0.16721 -0.61900
O 	O 	0.82593 0.67307 0.34793 -0.61500
O 	O 	0.65453 0.15973 0.66557 -0.61800
O 	O 	0.91197 0.32422 0.84806 -0.61800
O 	O 	0.58334 0.83770 0.16576 -0.61800
O 	O 	0.66260 0.82516 0.34678 -0.61700
O 	O 	0.83278 0.33857 0.66733 -0.61600
O 	O 	0.91254 0.82430 0.14946 -0.61800
O 	O 	0.58275 0.33759 0.83151 -0.61800
O 	O 	0.66199 0.32533 0.65060 -0.61700
O 	O 	0.83337 0.83857 0.33016 -0.61600
O 	O 	0.57594 0.67204 0.15064 -0.61700
O 	O 	0.90455 0.15882 0.83024 -0.61900
O 	O 	0.82538 0.17306 0.64951 -0.61500
O 	O 	0.65511 0.65971 0.33152 -0.61800
F 	F 	0.99357 0.24916 0.68869 -0.97200
F 	F 	0.24423 0.74829 0.18873 -0.98000
F 	F 	0.49419 0.74918 0.30861 -0.98000
F 	F 	0.24358 0.24816 0.80859 -0.98000
F 	F 	0.49357 0.24917 0.68867 -0.98000
F 	F 	0.74423 0.74828 0.18873 -0.97900
F 	F 	0.99420 0.74917 0.30859 -0.97300
F 	F 	0.74358 0.24814 0.80860 -0.97900
Al	Al	0.11861 0.24867 0.74855 2.40500
Al	Al	0.36921 0.74869 0.24870 2.40500
Al	Al	0.36861 0.24867 0.74873 2.40500
Al	Al	0.11921 0.74868 0.24864 2.40500
Al	Al	0.61862 0.24867 0.74854 2.40500
Al	Al	0.86922 0.74869 0.24868 2.40500
Al	Al	0.86863 0.24867 0.74876 2.40500
Al	Al	0.61922 0.74869 0.24865 2.40500
