data_crystal

_cell_length_a 6.55810
_cell_length_b 16.42500
_cell_length_c 13.15920
_cell_angle_alpha 90.00000
_cell_angle_beta  90.00000
_cell_angle_gamma 90.50280

_symmetry_space_group_name_	'P 1'
_symmetry_space_group_name_H-M	'P 1'

loop_
_symmetry_equiv_pos_as_xyz
  x,y,z

loop_
_atom_site_label
_atom_site_type_symbol
_atom_site_fract_x
_atom_site_fract_y
_atom_site_fract_z
_atom_site_charge
O 	O 	0.16050 0.17310 0.84840 -0.53700
O 	O 	0.81980 0.66140 0.16820 -0.58900
C 	C 	0.80710 0.02480 0.95240 -0.02300
C 	C 	0.00450 0.06600 0.94360 0.01800
C 	C 	0.99190 0.13500 0.86550 0.36100
C 	C 	0.19770 0.53990 0.02430 0.02000
O 	O 	0.66050 0.67310 0.34840 -0.60800
O 	O 	0.31980 0.16140 0.66820 -0.60000
C 	C 	0.30710 0.52480 0.45240 0.06300
C 	C 	0.50450 0.56600 0.44360 -0.11300
C 	C 	0.49190 0.63500 0.36550 0.48900
C 	C 	0.69770 0.03990 0.52430 0.05600
O 	O 	0.83950 0.32690 0.84840 -0.66000
O 	O 	0.18020 0.83860 0.16820 -0.63000
C 	C 	0.19290 0.47520 0.95240 0.12700
C 	C 	0.99550 0.43400 0.94360 -0.24600
C 	C 	0.00810 0.36500 0.86550 0.61300
C 	C 	0.80230 0.96010 0.02430 0.10500
O 	O 	0.33950 0.82690 0.34840 -0.59100
O 	O 	0.68020 0.33860 0.66820 -0.62000
C 	C 	0.69290 0.97520 0.45240 0.03400
C 	C 	0.49550 0.93400 0.44360 -0.11200
C 	C 	0.50810 0.86500 0.36550 0.48800
C 	C 	0.30230 0.46010 0.52430 0.07500
O 	O 	0.83950 0.82690 0.15160 -0.65900
O 	O 	0.18020 0.33860 0.83180 -0.63100
C 	C 	0.19290 0.97520 0.04760 0.12300
C 	C 	0.99550 0.93400 0.05640 -0.24200
C 	C 	0.00810 0.86500 0.13450 0.61000
C 	C 	0.80230 0.46010 0.97570 0.10700
O 	O 	0.33950 0.32690 0.65160 -0.59100
O 	O 	0.68020 0.83860 0.33180 -0.62000
C 	C 	0.69290 0.47520 0.54760 0.03900
C 	C 	0.49550 0.43400 0.55640 -0.11400
C 	C 	0.50810 0.36500 0.63450 0.48900
C 	C 	0.30230 0.96010 0.47570 0.06900
O 	O 	0.16050 0.67310 0.15160 -0.53600
O 	O 	0.81980 0.16140 0.83180 -0.58700
C 	C 	0.80710 0.52480 0.04760 -0.02400
C 	C 	0.00450 0.56600 0.05640 0.01900
C 	C 	0.99190 0.63500 0.13450 0.36200
C 	C 	0.19770 0.03990 0.97570 0.02300
O 	O 	0.66050 0.17310 0.65160 -0.60900
O 	O 	0.31980 0.66140 0.33180 -0.60000
C 	C 	0.30710 0.02480 0.54760 0.06900
C 	C 	0.50450 0.06600 0.55640 -0.11500
C 	C 	0.49190 0.13500 0.63450 0.49000
C 	C 	0.69770 0.53990 0.47570 0.05100
Al	Al	0.25000 0.25000 0.75000 2.40700
Al	Al	0.75000 0.25000 0.75000 2.40600
Al	Al	0.75000 0.75000 0.25000 2.40600
Al	Al	0.25000 0.75000 0.25000 2.40700
F 	F 	0.00000 0.25000 0.69120 -0.95300
F 	F 	0.50000 0.75000 0.19120 -0.98100
F 	F 	0.00000 0.75000 0.30880 -0.95400
F 	F 	0.50000 0.25000 0.80880 -0.98100
