data_crystal

_cell_length_a 18.61620
_cell_length_b 18.61620
_cell_length_c 18.61620
_cell_angle_alpha 60.00000
_cell_angle_beta  60.00000
_cell_angle_gamma 60.00000

_symmetry_space_group_name_	'P 1'
_symmetry_space_group_name_H-M	'P 1'

loop_
_symmetry_equiv_pos_as_xyz
  x,y,z

loop_
_atom_site_label
_atom_site_type_symbol
_atom_site_fract_x
_atom_site_fract_y
_atom_site_fract_z
_atom_site_charge
Cu	Cu	0.00000 0.42995 0.57005 0.79700
Cu	Cu	0.00000 0.00000 0.57005 0.69400
Cu	Cu	0.42995 0.00000 0.57005 0.79700
Cu	Cu	-0.00000 0.57005 -0.00000 0.69400
Cu	Cu	0.57005 0.00000 0.42995 0.79700
Cu	Cu	0.00000 0.00000 0.42995 0.68100
Cu	Cu	0.00000 0.57005 0.42995 0.79800
Cu	Cu	0.57005 0.00000 -0.00000 0.69500
Cu	Cu	-0.00000 0.42995 -0.00000 0.68200
Cu	Cu	0.42995 0.00000 -0.00000 0.68200
Cu	Cu	0.42995 0.57005 -0.00000 0.79800
Cu	Cu	0.57005 0.42995 -0.00000 0.79800
H 	H 	0.48700 0.27160 0.96980 0.07700
H 	H 	0.27160 0.48700 0.27160 0.00600
H 	H 	0.48700 0.27160 0.27160 0.00600
H 	H 	0.96980 0.48700 0.27160 0.07700
H 	H 	0.03020 0.72840 0.72840 0.05500
H 	H 	0.72840 0.72840 0.51300 0.09500
H 	H 	0.27160 0.27160 0.96980 0.05300
H 	H 	0.51300 0.72840 0.03020 0.03000
H 	H 	0.72840 0.03020 0.72840 0.05500
H 	H 	0.27160 0.27160 0.48700 0.00600
H 	H 	0.72840 0.72840 0.03020 0.05500
H 	H 	0.48700 0.96980 0.27160 0.07700
H 	H 	0.72840 0.03020 0.51300 0.03000
H 	H 	0.27160 0.96980 0.48700 0.07700
H 	H 	0.27160 0.96980 0.27160 0.05300
H 	H 	0.51300 0.03020 0.72840 0.03000
H 	H 	0.96980 0.27160 0.48700 0.07700
H 	H 	0.03020 0.72840 0.51300 0.03000
H 	H 	0.72840 0.51300 0.03020 0.03000
H 	H 	0.72840 0.51300 0.72840 0.09500
H 	H 	0.27160 0.48700 0.96980 0.07700
H 	H 	0.03020 0.51300 0.72840 0.03000
H 	H 	0.96980 0.27160 0.27160 0.05300
H 	H 	0.51300 0.72840 0.72840 0.09500
C 	C 	0.43094 0.16226 0.97586 0.34400
C 	C 	0.02414 0.56906 0.56906 0.36700
C 	C 	0.43094 0.43094 0.97586 0.34300
C 	C 	0.56906 0.02414 0.56906 0.36700
C 	C 	0.42924 0.30044 0.96988 0.03300
C 	C 	0.61353 0.03013 0.61353 -0.13600
C 	C 	0.03012 0.69956 0.69956 0.05000
C 	C 	0.69956 0.69956 0.03012 0.05000
C 	C 	0.57076 0.69956 0.69956 0.02000
C 	C 	0.74281 0.61353 0.03013 -0.11100
C 	C 	0.38647 0.96987 0.25719 -0.07800
C 	C 	0.43094 0.16226 0.43094 0.37300
C 	C 	0.16226 0.97586 0.43094 0.34400
C 	C 	0.03012 0.57076 0.69956 0.05700
C 	C 	0.83774 0.56906 0.56906 0.34000
C 	C 	0.97586 0.43094 0.43094 0.34300
C 	C 	0.42924 0.30044 0.30044 0.08100
C 	C 	0.03013 0.61353 0.74281 -0.11100
C 	C 	0.69956 0.57076 0.03012 0.05700
C 	C 	0.38647 0.38647 0.96987 -0.06000
C 	C 	0.43094 0.97586 0.16226 0.34400
C 	C 	0.38647 0.96987 0.38647 -0.06000
C 	C 	0.30044 0.42924 0.30044 0.08100
C 	C 	0.61353 0.74281 0.03013 -0.11100
C 	C 	0.96988 0.30044 0.42924 0.03300
C 	C 	0.03013 0.61353 0.61353 -0.13600
C 	C 	0.57076 0.69956 0.03012 0.05700
C 	C 	0.02414 0.83774 0.56906 0.34800
C 	C 	0.42924 0.96988 0.30044 0.03300
C 	C 	0.30044 0.96988 0.30044 0.03600
C 	C 	0.03012 0.69956 0.57076 0.05700
C 	C 	0.56906 0.83774 0.56906 0.34000
C 	C 	0.61353 0.61353 0.74281 -0.03400
C 	C 	0.38647 0.38647 0.25719 -0.17200
C 	C 	0.69956 0.03012 0.69956 0.05000
C 	C 	0.61353 0.61353 0.03013 -0.13600
C 	C 	0.16226 0.43094 0.43094 0.37300
C 	C 	0.83774 0.02414 0.56906 0.34800
C 	C 	0.96988 0.30044 0.30044 0.03600
C 	C 	0.57076 0.03012 0.69956 0.05700
C 	C 	0.25719 0.38647 0.38647 -0.17200
C 	C 	0.56906 0.02414 0.83774 0.34800
C 	C 	0.25719 0.96987 0.38647 -0.07800
C 	C 	0.69956 0.57076 0.69956 0.02000
C 	C 	0.83774 0.56906 0.02414 0.34800
C 	C 	0.38647 0.25719 0.96987 -0.07800
C 	C 	0.30044 0.30044 0.96988 0.03600
C 	C 	0.56906 0.56906 0.02414 0.36700
C 	C 	0.03013 0.74281 0.61353 -0.11100
C 	C 	0.96987 0.38647 0.25719 -0.07800
C 	C 	0.30044 0.96988 0.42924 0.03300
C 	C 	0.43094 0.43094 0.16226 0.37300
C 	C 	0.96988 0.42924 0.30044 0.03300
C 	C 	0.02414 0.56906 0.83774 0.34800
C 	C 	0.97586 0.43094 0.16226 0.34400
C 	C 	0.61353 0.03013 0.74281 -0.11100
C 	C 	0.74281 0.61353 0.61353 -0.03400
C 	C 	0.96987 0.25719 0.38647 -0.07800
C 	C 	0.56906 0.83774 0.02414 0.34800
C 	C 	0.30044 0.30044 0.42924 0.08100
C 	C 	0.25719 0.38647 0.96987 -0.07800
C 	C 	0.43094 0.97586 0.43094 0.34300
C 	C 	0.61353 0.74281 0.61353 -0.03400
C 	C 	0.69956 0.03012 0.57076 0.05700
C 	C 	0.69956 0.69956 0.57076 0.02000
C 	C 	0.74281 0.03013 0.61353 -0.11100
C 	C 	0.16226 0.43094 0.97586 0.34400
C 	C 	0.96987 0.38647 0.38647 -0.06000
C 	C 	0.97586 0.16226 0.43094 0.34400
C 	C 	0.30044 0.42924 0.96988 0.03300
C 	C 	0.56906 0.56906 0.83774 0.34000
C 	C 	0.38647 0.25719 0.38647 -0.17200
O 	O 	0.38714 0.12592 0.97936 -0.35100
O 	O 	0.61286 0.49242 0.87408 -0.28200
O 	O 	0.49242 0.02064 0.87408 -0.36400
O 	O 	0.38714 0.50758 0.97936 -0.29000
O 	O 	0.50758 0.97936 0.38714 -0.29000
O 	O 	0.50758 0.38714 0.12592 -0.47200
O 	O 	0.38714 0.12592 0.50758 -0.47200
O 	O 	0.02064 0.61286 0.49242 -0.46000
O 	O 	0.50758 0.12592 0.97936 -0.33200
O 	O 	0.87408 0.49242 0.02064 -0.36400
O 	O 	0.50758 0.38714 0.97936 -0.29000
O 	O 	0.02064 0.61286 0.87408 -0.34300
O 	O 	0.97936 0.12592 0.38714 -0.35100
O 	O 	0.61286 0.87408 0.02064 -0.34300
O 	O 	0.97936 0.50758 0.38714 -0.29000
O 	O 	0.97936 0.38714 0.12592 -0.35100
O 	O 	0.61286 0.49242 0.02064 -0.46000
O 	O 	0.61286 0.87408 0.49242 -0.28200
O 	O 	0.87408 0.02064 0.61286 -0.34300
O 	O 	0.12592 0.50758 0.38714 -0.47200
O 	O 	0.50758 0.12592 0.38714 -0.47200
O 	O 	0.97936 0.38714 0.50758 -0.29000
O 	O 	0.87408 0.61286 0.49242 -0.28200
O 	O 	0.02064 0.87408 0.49242 -0.36400
O 	O 	0.12592 0.97936 0.38714 -0.35100
O 	O 	0.38714 0.97936 0.12592 -0.35100
O 	O 	0.87408 0.02064 0.49242 -0.36400
O 	O 	0.87408 0.49242 0.61286 -0.28200
O 	O 	0.12592 0.50758 0.97936 -0.33200
O 	O 	0.49242 0.87408 0.61286 -0.28200
O 	O 	0.49242 0.87408 0.02064 -0.36400
O 	O 	0.97936 0.12592 0.50758 -0.33200
O 	O 	0.02064 0.49242 0.87408 -0.36400
O 	O 	0.02064 0.87408 0.61286 -0.34300
O 	O 	0.49242 0.61286 0.02064 -0.46000
O 	O 	0.38714 0.50758 0.12592 -0.47200
O 	O 	0.12592 0.38714 0.97936 -0.35100
O 	O 	0.87408 0.61286 0.02064 -0.34300
O 	O 	0.49242 0.02064 0.61286 -0.46000
O 	O 	0.61286 0.02064 0.49242 -0.46000
O 	O 	0.38714 0.97936 0.50758 -0.29000
O 	O 	0.61286 0.02064 0.87408 -0.34300
O 	O 	0.02064 0.49242 0.61286 -0.46000
O 	O 	0.97936 0.50758 0.12592 -0.33200
O 	O 	0.12592 0.38714 0.50758 -0.47200
O 	O 	0.12592 0.97936 0.50758 -0.33200
O 	O 	0.49242 0.61286 0.87408 -0.28200
O 	O 	0.50758 0.97936 0.12592 -0.33200
