data_crystal

_cell_length_a 6.56850
_cell_length_b 16.39040
_cell_length_c 13.20970
_cell_angle_alpha 90.00000
_cell_angle_beta  90.00000
_cell_angle_gamma 90.00000

_symmetry_space_group_name_	'P 1'
_symmetry_space_group_name_H-M	'P 1'

loop_
_symmetry_equiv_pos_as_xyz
  x,y,z

loop_
_atom_site_label
_atom_site_type_symbol
_atom_site_fract_x
_atom_site_fract_y
_atom_site_fract_z
_atom_site_charge
O 	O 	0.16990 0.16767 0.84050 -0.60700
C 	C 	0.80320 0.02920 0.95820 0.04300
O 	O 	0.66990 0.66767 0.34050 -0.60900
C 	C 	0.30320 0.52920 0.45820 0.05900
O 	O 	0.83010 0.33233 0.84050 -0.62000
C 	C 	0.19680 0.47080 0.95820 0.05400
O 	O 	0.33010 0.83233 0.34050 -0.60300
C 	C 	0.69680 0.97080 0.45820 0.05100
O 	O 	0.83010 0.66767 0.15950 -0.62000
C 	C 	0.19680 0.52920 0.04180 0.05400
O 	O 	0.33010 0.16767 0.65950 -0.60300
C 	C 	0.69680 0.02920 0.54180 0.05100
O 	O 	0.16990 0.83233 0.15950 -0.60700
C 	C 	0.80320 0.97080 0.04180 0.04300
O 	O 	0.66990 0.33233 0.65950 -0.60900
C 	C 	0.30320 0.47080 0.54180 0.05900
O 	O 	0.83010 0.83233 0.15950 -0.62000
C 	C 	0.19680 0.97080 0.04180 0.05400
O 	O 	0.33010 0.33233 0.65950 -0.60300
C 	C 	0.69680 0.47080 0.54180 0.05100
O 	O 	0.16990 0.66767 0.15950 -0.60700
C 	C 	0.80320 0.52920 0.04180 0.04200
O 	O 	0.66990 0.16767 0.65950 -0.60900
C 	C 	0.30320 0.02920 0.54180 0.05900
O 	O 	0.16990 0.33233 0.84050 -0.60700
C 	C 	0.80320 0.47080 0.95820 0.04200
O 	O 	0.66990 0.83233 0.34050 -0.60900
C 	C 	0.30320 0.97080 0.45820 0.05900
O 	O 	0.83010 0.16767 0.84050 -0.62000
C 	C 	0.19680 0.02920 0.95820 0.05400
O 	O 	0.33010 0.66767 0.34050 -0.60300
C 	C 	0.69680 0.52920 0.45820 0.05100
Al	Al	0.25000 0.25000 0.75000 2.40900
Al	Al	0.75000 0.25000 0.75000 2.40800
Al	Al	0.75000 0.75000 0.25000 2.40800
Al	Al	0.25000 0.75000 0.25000 2.40900
F 	F 	0.00000 0.25000 0.69390 -0.97800
F 	F 	0.50000 0.75000 0.19390 -0.98600
F 	F 	0.00000 0.75000 0.30610 -0.97800
F 	F 	0.50000 0.25000 0.80610 -0.98600
C 	C 	0.00000 0.06420 0.94720 -0.09500
C 	C 	0.00000 0.13590 0.86730 0.51300
C 	C 	0.50000 0.56420 0.44720 -0.10900
C 	C 	0.50000 0.63590 0.36730 0.49700
C 	C 	0.00000 0.43580 0.94720 -0.09500
C 	C 	0.00000 0.36410 0.86730 0.51300
C 	C 	0.50000 0.93580 0.44720 -0.10900
C 	C 	0.50000 0.86410 0.36730 0.49700
C 	C 	-0.00000 0.56420 0.05280 -0.09500
C 	C 	-0.00000 0.63590 0.13270 0.51300
C 	C 	0.50000 0.06420 0.55280 -0.10900
C 	C 	0.50000 0.13590 0.63270 0.49700
C 	C 	0.00000 0.93580 0.05280 -0.09500
C 	C 	-0.00000 0.86410 0.13270 0.51300
C 	C 	0.50000 0.43580 0.55280 -0.10900
C 	C 	0.50000 0.36410 0.63270 0.49700
