data_crystal

_cell_length_a 6.56880
_cell_length_b 16.38280
_cell_length_c 13.17230
_cell_angle_alpha 90.00000
_cell_angle_beta  90.00000
_cell_angle_gamma 90.00000

_symmetry_space_group_name_	'P 1'
_symmetry_space_group_name_H-M	'P 1'

loop_
_symmetry_equiv_pos_as_xyz
  x,y,z

loop_
_atom_site_label
_atom_site_type_symbol
_atom_site_fract_x
_atom_site_fract_y
_atom_site_fract_z
_atom_site_charge
O 	O 	0.16930 0.16838 0.83985 -0.61400
C 	C 	0.80640 0.02540 0.95430 0.04700
O 	O 	0.66930 0.66838 0.33985 -0.61700
C 	C 	0.30640 0.52540 0.45430 0.06200
O 	O 	0.83070 0.33162 0.83985 -0.62700
C 	C 	0.19360 0.47460 0.95430 0.05800
O 	O 	0.33070 0.83162 0.33985 -0.61100
C 	C 	0.69360 0.97460 0.45430 0.05500
O 	O 	0.83070 0.66838 0.16015 -0.62700
C 	C 	0.19360 0.52540 0.04570 0.05800
O 	O 	0.33070 0.16838 0.66015 -0.61100
C 	C 	0.69360 0.02540 0.54570 0.05500
O 	O 	0.16930 0.83162 0.16015 -0.61400
C 	C 	0.80640 0.97460 0.04570 0.04700
O 	O 	0.66930 0.33162 0.66015 -0.61700
C 	C 	0.30640 0.47460 0.54570 0.06200
O 	O 	0.83070 0.83162 0.16015 -0.62700
C 	C 	0.19360 0.97460 0.04570 0.05800
O 	O 	0.33070 0.33162 0.66015 -0.61100
C 	C 	0.69360 0.47460 0.54570 0.05500
O 	O 	0.16930 0.66838 0.16015 -0.61400
C 	C 	0.80640 0.52540 0.04570 0.04700
O 	O 	0.66930 0.16838 0.66015 -0.61700
C 	C 	0.30640 0.02540 0.54570 0.06200
O 	O 	0.16930 0.33162 0.83985 -0.61400
C 	C 	0.80640 0.47460 0.95430 0.04700
O 	O 	0.66930 0.83162 0.33985 -0.61700
C 	C 	0.30640 0.97460 0.45430 0.06200
O 	O 	0.83070 0.16838 0.83985 -0.62700
C 	C 	0.19360 0.02540 0.95430 0.05800
O 	O 	0.33070 0.66838 0.33985 -0.61100
C 	C 	0.69360 0.52540 0.45430 0.05500
Al	Al	0.25000 0.25000 0.75000 2.40900
Al	Al	0.75000 0.25000 0.75000 2.40800
Al	Al	0.75000 0.75000 0.25000 2.40800
Al	Al	0.25000 0.75000 0.25000 2.40900
F 	F 	0.00000 0.25000 0.69090 -0.95800
F 	F 	0.50000 0.75000 0.19090 -0.96500
F 	F 	0.00000 0.75000 0.30910 -0.95800
F 	F 	0.50000 0.25000 0.80910 -0.96500
C 	C 	-0.00000 0.06440 0.94510 -0.10600
C 	C 	0.00000 0.13960 0.87330 0.52000
C 	C 	0.50000 0.56440 0.44510 -0.11900
C 	C 	0.50000 0.63960 0.37330 0.50500
C 	C 	-0.00000 0.43560 0.94510 -0.10600
C 	C 	-0.00000 0.36040 0.87330 0.52000
C 	C 	0.50000 0.93560 0.44510 -0.11900
C 	C 	0.50000 0.86040 0.37330 0.50500
C 	C 	-0.00000 0.56440 0.05490 -0.10600
C 	C 	0.00000 0.63960 0.12670 0.52000
C 	C 	0.50000 0.06440 0.55490 -0.11900
C 	C 	0.50000 0.13960 0.62670 0.50500
C 	C 	-0.00000 0.93560 0.05490 -0.10600
C 	C 	0.00000 0.86040 0.12670 0.52000
C 	C 	0.50000 0.43560 0.55490 -0.11900
C 	C 	0.50000 0.36040 0.62670 0.50500
