data_crystal

_cell_length_a 18.61370
_cell_length_b 18.61370
_cell_length_c 18.61370
_cell_angle_alpha 60.00000
_cell_angle_beta  60.00000
_cell_angle_gamma 60.00000

_symmetry_space_group_name_	'P 1'
_symmetry_space_group_name_H-M	'P 1'

loop_
_symmetry_equiv_pos_as_xyz
  x,y,z

loop_
_atom_site_label
_atom_site_type_symbol
_atom_site_fract_x
_atom_site_fract_y
_atom_site_fract_z
_atom_site_charge
Cu	Cu	-0.00000 0.56990 0.43010 0.79900
Cu	Cu	0.00000 0.00000 0.43010 0.68300
Cu	Cu	0.56990 0.00000 -0.00000 0.69500
Cu	Cu	0.43010 0.00000 -0.00000 0.68200
Cu	Cu	-0.00000 0.43010 0.56990 0.79800
Cu	Cu	0.43010 -0.00000 0.56990 0.79800
Cu	Cu	-0.00000 0.56990 -0.00000 0.69400
Cu	Cu	-0.00000 -0.00000 0.56990 0.69400
Cu	Cu	-0.00000 0.43010 -0.00000 0.68200
Cu	Cu	0.43010 0.56990 -0.00000 0.79800
Cu	Cu	0.56990 0.00000 0.43010 0.79800
Cu	Cu	0.56990 0.43010 -0.00000 0.79800
H 	H 	0.96700 0.27240 0.27240 0.05200
H 	H 	0.72760 0.72760 0.03300 0.05500
H 	H 	0.51180 0.03300 0.72760 0.02900
H 	H 	0.27240 0.27240 0.48820 0.00700
H 	H 	0.27240 0.96700 0.48820 0.07500
H 	H 	0.03300 0.72760 0.51180 0.02900
H 	H 	0.27240 0.48820 0.27240 0.00700
H 	H 	0.72760 0.51180 0.03300 0.02900
H 	H 	0.96700 0.27240 0.48820 0.07500
H 	H 	0.03300 0.51180 0.72760 0.02900
H 	H 	0.96700 0.48820 0.27240 0.07500
H 	H 	0.72760 0.03300 0.51180 0.02900
H 	H 	0.51180 0.72760 0.03300 0.02900
H 	H 	0.72760 0.72760 0.51180 0.09300
H 	H 	0.27240 0.27240 0.96700 0.05200
H 	H 	0.48820 0.27240 0.27240 0.00700
H 	H 	0.51180 0.72760 0.72760 0.09300
H 	H 	0.48820 0.96700 0.27240 0.07500
H 	H 	0.72760 0.51180 0.72760 0.09300
H 	H 	0.48820 0.27240 0.96700 0.07500
H 	H 	0.03300 0.72760 0.72760 0.05500
H 	H 	0.72760 0.03300 0.72760 0.05500
H 	H 	0.27240 0.96700 0.27240 0.05200
H 	H 	0.27240 0.48820 0.96700 0.07500
C 	C 	0.30095 0.96787 0.30095 0.03900
C 	C 	0.25728 0.38714 0.38714 -0.17300
C 	C 	0.43023 0.30095 0.96787 0.03700
C 	C 	0.56887 0.83767 0.56887 0.34600
C 	C 	0.56977 0.69905 0.03213 0.05800
C 	C 	0.43113 0.16233 0.97541 0.35000
C 	C 	0.61286 0.61286 0.03156 -0.13900
C 	C 	0.03213 0.69905 0.56977 0.05800
C 	C 	0.56887 0.56887 0.02459 0.37300
C 	C 	0.96787 0.30095 0.43023 0.03700
C 	C 	0.43023 0.96787 0.30095 0.03700
C 	C 	0.16233 0.97541 0.43113 0.35000
C 	C 	0.83767 0.56887 0.56887 0.34600
C 	C 	0.96844 0.38714 0.25728 -0.08100
C 	C 	0.30095 0.43023 0.96787 0.03700
C 	C 	0.61286 0.61286 0.74272 -0.03900
C 	C 	0.03156 0.61286 0.61286 -0.13900
C 	C 	0.61286 0.03156 0.74272 -0.11400
C 	C 	0.74272 0.61286 0.03156 -0.11400
C 	C 	0.96787 0.30095 0.30095 0.03900
C 	C 	0.43113 0.43113 0.16233 0.37900
C 	C 	0.38714 0.38714 0.96844 -0.06400
C 	C 	0.61286 0.74272 0.61286 -0.03900
C 	C 	0.56887 0.02459 0.83767 0.35300
C 	C 	0.69905 0.56977 0.03213 0.05800
C 	C 	0.56887 0.02459 0.56887 0.37300
C 	C 	0.74272 0.03156 0.61286 -0.11400
C 	C 	0.96844 0.25728 0.38714 -0.08100
C 	C 	0.30095 0.30095 0.96787 0.03900
C 	C 	0.83767 0.02459 0.56887 0.35300
C 	C 	0.56887 0.56887 0.83767 0.34600
C 	C 	0.02459 0.56887 0.83767 0.35300
C 	C 	0.25728 0.96844 0.38714 -0.08100
C 	C 	0.69905 0.03213 0.69905 0.05200
C 	C 	0.97541 0.16233 0.43113 0.35000
C 	C 	0.16233 0.43113 0.97541 0.35000
C 	C 	0.69905 0.03213 0.56977 0.05800
C 	C 	0.38714 0.96844 0.25728 -0.08100
C 	C 	0.03156 0.61286 0.74272 -0.11400
C 	C 	0.30095 0.96787 0.43023 0.03700
C 	C 	0.61286 0.74272 0.03156 -0.11400
C 	C 	0.97541 0.43113 0.43113 0.34900
C 	C 	0.43113 0.97541 0.43113 0.34900
C 	C 	0.74272 0.61286 0.61286 -0.03900
C 	C 	0.43023 0.30095 0.30095 0.08100
C 	C 	0.69905 0.69905 0.56977 0.02400
C 	C 	0.25728 0.38714 0.96844 -0.08100
C 	C 	0.38714 0.25728 0.96844 -0.08100
C 	C 	0.30095 0.30095 0.43023 0.08100
C 	C 	0.61286 0.03156 0.61286 -0.13900
C 	C 	0.83767 0.56887 0.02459 0.35300
C 	C 	0.16233 0.43113 0.43113 0.37900
C 	C 	0.38714 0.38714 0.25728 -0.17300
C 	C 	0.43113 0.16233 0.43113 0.37900
C 	C 	0.69905 0.69905 0.03213 0.05200
C 	C 	0.03213 0.56977 0.69905 0.05800
C 	C 	0.02459 0.56887 0.56887 0.37300
C 	C 	0.38714 0.96844 0.38714 -0.06400
C 	C 	0.96787 0.43023 0.30095 0.03700
C 	C 	0.69905 0.56977 0.69905 0.02400
C 	C 	0.03213 0.69905 0.69905 0.05200
C 	C 	0.38714 0.25728 0.38714 -0.17300
C 	C 	0.56977 0.69905 0.69905 0.02400
C 	C 	0.56887 0.83767 0.02459 0.35300
C 	C 	0.02459 0.83767 0.56887 0.35300
C 	C 	0.30095 0.43023 0.30095 0.08100
C 	C 	0.56977 0.03213 0.69905 0.05800
C 	C 	0.03156 0.74272 0.61286 -0.11400
C 	C 	0.43113 0.43113 0.97541 0.34900
C 	C 	0.96844 0.38714 0.38714 -0.06400
C 	C 	0.97541 0.43113 0.16233 0.35000
C 	C 	0.43113 0.97541 0.16233 0.35000
O 	O 	0.38752 0.97888 0.50756 -0.29200
O 	O 	0.97888 0.50756 0.38752 -0.29200
O 	O 	0.61248 0.02112 0.49244 -0.46200
O 	O 	0.50756 0.38752 0.97888 -0.29200
O 	O 	0.49244 0.02112 0.61248 -0.46200
O 	O 	0.87396 0.49244 0.02112 -0.36600
O 	O 	0.87396 0.02112 0.61248 -0.34600
O 	O 	0.02112 0.49244 0.61248 -0.46200
O 	O 	0.61248 0.87396 0.02112 -0.34600
O 	O 	0.97888 0.38752 0.50756 -0.29200
O 	O 	0.49244 0.61248 0.02112 -0.46200
O 	O 	0.50756 0.97888 0.38752 -0.29200
O 	O 	0.61248 0.49244 0.87396 -0.28400
O 	O 	0.02112 0.87396 0.61248 -0.34600
O 	O 	0.61248 0.49244 0.02112 -0.46200
O 	O 	0.49244 0.02112 0.87396 -0.36600
O 	O 	0.49244 0.61248 0.87396 -0.28400
O 	O 	0.12604 0.50756 0.97888 -0.33400
O 	O 	0.87396 0.61248 0.49244 -0.28400
O 	O 	0.12604 0.97888 0.50756 -0.33400
O 	O 	0.61248 0.02112 0.87396 -0.34600
O 	O 	0.97888 0.12604 0.50756 -0.33400
O 	O 	0.02112 0.49244 0.87396 -0.36600
O 	O 	0.49244 0.87396 0.61248 -0.28400
O 	O 	0.02112 0.61248 0.87396 -0.34600
O 	O 	0.87396 0.61248 0.02112 -0.34600
O 	O 	0.12604 0.50756 0.38752 -0.47400
O 	O 	0.49244 0.87396 0.02112 -0.36600
O 	O 	0.38752 0.12604 0.50756 -0.47400
O 	O 	0.38752 0.50756 0.12604 -0.47400
O 	O 	0.38752 0.12604 0.97888 -0.35300
O 	O 	0.12604 0.97888 0.38752 -0.35300
O 	O 	0.97888 0.12604 0.38752 -0.35300
O 	O 	0.12604 0.38752 0.50756 -0.47400
O 	O 	0.50756 0.97888 0.12604 -0.33400
O 	O 	0.12604 0.38752 0.97888 -0.35300
O 	O 	0.38752 0.50756 0.97888 -0.29200
O 	O 	0.38752 0.97888 0.12604 -0.35300
O 	O 	0.50756 0.38752 0.12604 -0.47400
O 	O 	0.87396 0.02112 0.49244 -0.36600
O 	O 	0.50756 0.12604 0.38752 -0.47400
O 	O 	0.97888 0.38752 0.12604 -0.35300
O 	O 	0.61248 0.87396 0.49244 -0.28400
O 	O 	0.50756 0.12604 0.97888 -0.33400
O 	O 	0.02112 0.61248 0.49244 -0.46200
O 	O 	0.87396 0.49244 0.61248 -0.28400
O 	O 	0.02112 0.87396 0.49244 -0.36600
O 	O 	0.97888 0.50756 0.12604 -0.33400
