data_crystal

_cell_length_a 18.60740
_cell_length_b 18.60740
_cell_length_c 18.60740
_cell_angle_alpha 60.00000
_cell_angle_beta  60.00000
_cell_angle_gamma 60.00000

_symmetry_space_group_name_	'P 1'
_symmetry_space_group_name_H-M	'P 1'

loop_
_symmetry_equiv_pos_as_xyz
  x,y,z

loop_
_atom_site_label
_atom_site_type_symbol
_atom_site_fract_x
_atom_site_fract_y
_atom_site_fract_z
_atom_site_charge
Cu	Cu	0.56985 0.43015 -0.00000 0.89500
Cu	Cu	0.56985 0.00000 0.43015 0.89500
Cu	Cu	0.43015 0.00000 0.56985 0.89500
Cu	Cu	-0.00000 0.56985 0.43015 0.89500
Cu	Cu	-0.00000 0.43015 -0.00000 0.85900
Cu	Cu	-0.00000 0.43015 0.56985 0.89500
Cu	Cu	-0.00000 0.56985 -0.00000 0.86000
Cu	Cu	0.56985 0.00000 -0.00000 0.86000
Cu	Cu	0.43015 0.00000 -0.00000 0.85900
Cu	Cu	-0.00000 0.00000 0.56985 0.86000
Cu	Cu	-0.00000 0.00000 0.43015 0.85900
Cu	Cu	0.43015 0.56985 -0.00000 0.89500
H 	H 	0.72820 0.03080 0.72820 0.04700
H 	H 	0.72820 0.51280 0.72820 0.06700
H 	H 	0.03080 0.51280 0.72820 0.04100
H 	H 	0.03080 0.72820 0.51280 0.04100
H 	H 	0.03080 0.72820 0.72820 0.04700
H 	H 	0.48720 0.27180 0.27180 0.05100
H 	H 	0.27180 0.96920 0.27180 0.08100
H 	H 	0.48720 0.96920 0.27180 0.08300
H 	H 	0.51280 0.72820 0.03080 0.04100
H 	H 	0.96920 0.27180 0.27180 0.08100
H 	H 	0.72820 0.03080 0.51280 0.04100
H 	H 	0.27180 0.48720 0.27180 0.05100
H 	H 	0.27180 0.27180 0.96920 0.08100
H 	H 	0.72820 0.72820 0.51280 0.06700
H 	H 	0.27180 0.27180 0.48720 0.05100
H 	H 	0.72820 0.72820 0.03080 0.04700
H 	H 	0.27180 0.48720 0.96920 0.08300
H 	H 	0.27180 0.96920 0.48720 0.08300
H 	H 	0.96920 0.48720 0.27180 0.08300
H 	H 	0.96920 0.27180 0.48720 0.08300
H 	H 	0.48720 0.27180 0.96920 0.08300
H 	H 	0.72820 0.51280 0.03080 0.04100
H 	H 	0.51280 0.72820 0.72820 0.06700
H 	H 	0.51280 0.03080 0.72820 0.04100
C 	C 	0.42956 0.30064 0.96916 0.01700
C 	C 	0.96911 0.25747 0.38671 -0.06000
C 	C 	0.83767 0.56895 0.56895 0.34900
C 	C 	0.69580 0.04320 0.04320 0.05900
C 	C 	0.61329 0.03089 0.74253 -0.10700
C 	C 	0.99030 0.34550 0.80530 0.03400
C 	C 	0.04320 0.69580 0.21780 0.06500
C 	C 	0.43105 0.43105 0.97557 0.33900
C 	C 	0.30420 0.95680 0.95680 0.23700
C 	C 	0.30420 0.95680 0.78220 0.15600
C 	C 	0.16233 0.43105 0.43105 0.35200
C 	C 	0.61329 0.61329 0.03089 -0.11500
C 	C 	0.97557 0.16233 0.43105 0.33500
C 	C 	0.03084 0.69936 0.57044 0.05400
C 	C 	0.38671 0.96911 0.38671 -0.05800
C 	C 	0.03089 0.61329 0.61329 -0.11500
C 	C 	0.69936 0.57044 0.69936 0.03700
C 	C 	0.34550 0.85890 0.99030 0.01300
C 	C 	0.02443 0.83767 0.56895 0.35200
C 	C 	0.34550 0.99030 0.85890 0.01300
C 	C 	0.85890 0.80530 0.34550 0.00400
C 	C 	0.78220 0.30420 0.95680 0.15600
C 	C 	0.43105 0.16233 0.43105 0.35200
C 	C 	0.56895 0.02443 0.83767 0.35200
C 	C 	0.42956 0.96916 0.30064 0.01700
C 	C 	0.65450 0.14110 0.19470 -0.01000
C 	C 	0.21780 0.04320 0.04320 0.04000
C 	C 	0.56895 0.83767 0.02443 0.35200
C 	C 	0.14110 0.00970 0.19470 -0.04100
C 	C 	0.57044 0.03084 0.69936 0.05400
C 	C 	0.65450 0.14110 0.00970 -0.03900
C 	C 	0.95680 0.78220 0.95680 0.22800
C 	C 	0.30064 0.42956 0.30064 0.04400
C 	C 	0.85890 0.34550 0.80530 0.00400
C 	C 	0.03084 0.57044 0.69936 0.05400
C 	C 	0.78220 0.95680 0.95680 0.22800
C 	C 	0.69936 0.57044 0.03084 0.05400
C 	C 	0.74253 0.61329 0.61329 -0.07700
C 	C 	0.34550 0.85890 0.80530 0.00400
C 	C 	0.00970 0.19470 0.65450 -0.02900
C 	C 	0.19470 0.00970 0.14110 -0.04100
C 	C 	0.04320 0.04320 0.69580 0.05900
C 	C 	0.99030 0.85890 0.34550 0.01300
C 	C 	0.43105 0.43105 0.16233 0.35200
C 	C 	0.95680 0.30420 0.95680 0.23700
C 	C 	0.57044 0.69936 0.03084 0.05400
C 	C 	0.61329 0.74253 0.03089 -0.10700
C 	C 	0.69580 0.21780 0.04320 0.06500
C 	C 	0.95680 0.95680 0.78220 0.22800
C 	C 	0.30064 0.96916 0.30064 0.01600
C 	C 	0.95680 0.95680 0.30420 0.23700
C 	C 	0.14110 0.65450 0.19470 -0.01000
C 	C 	0.04320 0.21780 0.04320 0.04000
C 	C 	0.69936 0.03084 0.69936 0.05300
C 	C 	0.56895 0.56895 0.83767 0.34900
C 	C 	0.02443 0.56895 0.56895 0.36000
C 	C 	0.61329 0.61329 0.74253 -0.07700
C 	C 	0.80530 0.99030 0.85890 0.02600
C 	C 	0.80530 0.85890 0.34550 0.00400
C 	C 	0.04320 0.04320 0.21780 0.04000
C 	C 	0.00970 0.65450 0.19470 -0.02900
C 	C 	0.19470 0.00970 0.65450 -0.02900
C 	C 	0.14110 0.00970 0.65450 -0.03900
C 	C 	0.04320 0.21780 0.69580 0.06500
C 	C 	0.00970 0.14110 0.19470 -0.04100
C 	C 	0.30064 0.30064 0.96916 0.01600
C 	C 	0.38671 0.25747 0.38671 -0.10500
C 	C 	0.69936 0.03084 0.57044 0.05400
C 	C 	0.69580 0.04320 0.21780 0.06500
C 	C 	0.65450 0.19470 0.14110 -0.01000
C 	C 	0.14110 0.19470 0.65450 -0.01000
C 	C 	0.85890 0.99030 0.80530 0.02600
C 	C 	0.83767 0.56895 0.02443 0.35200
C 	C 	0.85890 0.99030 0.34550 0.01300
C 	C 	0.14110 0.19470 0.00970 -0.04100
C 	C 	0.19470 0.65450 0.00970 -0.02900
C 	C 	0.25747 0.96911 0.38671 -0.06000
C 	C 	0.56895 0.56895 0.02443 0.36000
C 	C 	0.16233 0.97557 0.43105 0.33500
C 	C 	0.56895 0.02443 0.56895 0.36000
C 	C 	0.65450 0.19470 0.00970 -0.02900
C 	C 	0.61329 0.74253 0.61329 -0.07700
C 	C 	0.38671 0.25747 0.96911 -0.06000
C 	C 	0.19470 0.65450 0.14110 -0.01000
C 	C 	0.14110 0.65450 0.00970 -0.03900
C 	C 	0.00970 0.19470 0.14110 -0.04100
C 	C 	0.38671 0.38671 0.25747 -0.10500
C 	C 	0.30420 0.78220 0.95680 0.15600
C 	C 	0.38671 0.38671 0.96911 -0.05800
C 	C 	0.74253 0.03089 0.61329 -0.10700
C 	C 	0.69936 0.69936 0.57044 0.03700
C 	C 	0.96916 0.42956 0.30064 0.01700
C 	C 	0.65450 0.00970 0.19470 -0.02900
C 	C 	0.80530 0.34550 0.85890 0.00400
C 	C 	0.99030 0.80530 0.34550 0.03400
C 	C 	0.34550 0.80530 0.85890 0.00400
C 	C 	0.00970 0.14110 0.65450 -0.03900
C 	C 	0.16233 0.43105 0.97557 0.33500
C 	C 	0.00970 0.65450 0.14110 -0.03900
C 	C 	0.78220 0.95680 0.30420 0.15600
C 	C 	0.38671 0.96911 0.25747 -0.06000
C 	C 	0.80530 0.34550 0.99030 0.03400
C 	C 	0.85890 0.80530 0.99030 0.02600
C 	C 	0.30064 0.42956 0.96916 0.01700
C 	C 	0.99030 0.80530 0.85890 0.02600
C 	C 	0.95680 0.78220 0.30420 0.15600
C 	C 	0.34550 0.99030 0.80530 0.03400
C 	C 	0.56895 0.83767 0.56895 0.34900
C 	C 	0.96911 0.38671 0.25747 -0.06000
C 	C 	0.43105 0.16233 0.97557 0.33500
C 	C 	0.61329 0.03089 0.61329 -0.11500
C 	C 	0.80530 0.85890 0.99030 0.02600
C 	C 	0.97557 0.43105 0.43105 0.33900
C 	C 	0.21780 0.69580 0.04320 0.06500
C 	C 	0.96916 0.30064 0.30064 0.01600
C 	C 	0.03089 0.61329 0.74253 -0.10700
C 	C 	0.80530 0.99030 0.34550 0.03400
C 	C 	0.34550 0.80530 0.99030 0.03400
C 	C 	0.99030 0.85890 0.80530 0.02600
C 	C 	0.97557 0.43105 0.16233 0.33500
C 	C 	0.99030 0.34550 0.85890 0.01300
C 	C 	0.19470 0.14110 0.65450 -0.01000
C 	C 	0.30064 0.96916 0.42956 0.01700
C 	C 	0.65450 0.00970 0.14110 -0.03900
C 	C 	0.96916 0.30064 0.42956 0.01700
C 	C 	0.85890 0.34550 0.99030 0.01300
C 	C 	0.04320 0.69580 0.04320 0.05900
C 	C 	0.03084 0.69936 0.69936 0.05300
C 	C 	0.83767 0.02443 0.56895 0.35200
C 	C 	0.21780 0.04320 0.69580 0.06500
C 	C 	0.25747 0.38671 0.96911 -0.06000
C 	C 	0.74253 0.61329 0.03089 -0.10700
C 	C 	0.19470 0.14110 0.00970 -0.04100
C 	C 	0.69936 0.69936 0.03084 0.05300
C 	C 	0.25747 0.38671 0.38671 -0.10500
C 	C 	0.02443 0.56895 0.83767 0.35200
C 	C 	0.96911 0.38671 0.38671 -0.05800
C 	C 	0.03089 0.74253 0.61329 -0.10700
C 	C 	0.95680 0.30420 0.78220 0.15600
C 	C 	0.43105 0.97557 0.43105 0.33900
C 	C 	0.30064 0.30064 0.42956 0.04400
C 	C 	0.57044 0.69936 0.69936 0.03700
C 	C 	0.43105 0.97557 0.16233 0.33500
C 	C 	0.42956 0.30064 0.30064 0.04400
O 	O 	0.68840 0.00000 -0.00000 -0.38400
O 	O 	0.12608 0.38760 0.50786 -0.40200
O 	O 	0.02154 0.61240 0.49214 -0.41200
O 	O 	0.12608 0.50786 0.38760 -0.40200
O 	O 	0.97846 0.38760 0.12608 -0.34600
O 	O 	0.38760 0.97846 0.50786 -0.33700
O 	O 	-0.00000 0.00000 0.31160 -0.39400
O 	O 	0.38760 0.12608 0.97846 -0.34600
O 	O 	0.02154 0.49214 0.87392 -0.37400
O 	O 	0.68840 0.31160 -0.00000 -0.32200
O 	O 	0.87392 0.02154 0.61240 -0.37300
O 	O 	-0.00000 0.00000 0.68840 -0.38400
O 	O 	0.61240 0.02154 0.87392 -0.37300
O 	O 	0.50786 0.38760 0.97846 -0.33700
O 	O 	0.12608 0.97846 0.50786 -0.34600
O 	O 	0.02154 0.87392 0.61240 -0.37300
O 	O 	0.61240 0.49214 0.02154 -0.41200
O 	O 	0.50786 0.12608 0.38760 -0.40200
O 	O 	-0.00000 0.68840 -0.00000 -0.38400
O 	O 	-0.00000 0.68840 0.31160 -0.32200
O 	O 	0.38760 0.50786 0.12608 -0.40200
O 	O 	0.61240 0.49214 0.87392 -0.35000
O 	O 	0.50786 0.97846 0.38760 -0.33700
O 	O 	0.49214 0.61240 0.02154 -0.41200
O 	O 	0.12608 0.97846 0.38760 -0.34600
O 	O 	0.31160 0.68840 -0.00000 -0.32200
O 	O 	0.61240 0.87392 0.02154 -0.37300
O 	O 	0.02154 0.61240 0.87392 -0.37300
O 	O 	0.50786 0.38760 0.12608 -0.40200
O 	O 	0.12608 0.50786 0.97846 -0.34600
O 	O 	0.87392 0.61240 0.49214 -0.35000
O 	O 	-0.00000 0.31160 -0.00000 -0.39400
O 	O 	0.87392 0.49214 0.61240 -0.35000
O 	O 	0.02154 0.87392 0.49214 -0.37400
O 	O 	0.87392 0.61240 0.02154 -0.37300
O 	O 	0.97846 0.12608 0.38760 -0.34600
O 	O 	0.61240 0.87392 0.49214 -0.35000
O 	O 	0.61240 0.02154 0.49214 -0.41200
O 	O 	0.49214 0.87392 0.61240 -0.35000
O 	O 	0.31160 0.00000 0.68840 -0.32200
O 	O 	0.12608 0.38760 0.97846 -0.34600
O 	O 	0.38760 0.12608 0.50786 -0.40200
O 	O 	0.87392 0.49214 0.02154 -0.37400
O 	O 	0.49214 0.02154 0.87392 -0.37400
O 	O 	0.50786 0.97846 0.12608 -0.34600
O 	O 	0.38760 0.50786 0.97846 -0.33700
O 	O 	0.49214 0.87392 0.02154 -0.37400
O 	O 	0.50786 0.12608 0.97846 -0.34600
O 	O 	0.31160 0.00000 -0.00000 -0.39400
O 	O 	-0.00000 0.31160 0.68840 -0.32200
O 	O 	0.49214 0.61240 0.87392 -0.35000
O 	O 	0.97846 0.12608 0.50786 -0.34600
O 	O 	0.97846 0.50786 0.12608 -0.34600
O 	O 	0.49214 0.02154 0.61240 -0.41200
O 	O 	0.97846 0.50786 0.38760 -0.33700
O 	O 	0.97846 0.38760 0.50786 -0.33700
O 	O 	0.02154 0.49214 0.61240 -0.41200
O 	O 	0.38760 0.97846 0.12608 -0.34600
O 	O 	0.87392 0.02154 0.49214 -0.37400
O 	O 	0.68840 0.00000 0.31160 -0.32200
