data_crystal

_cell_length_a 18.60850
_cell_length_b 18.60850
_cell_length_c 18.60850
_cell_angle_alpha 60.00000
_cell_angle_beta  60.00000
_cell_angle_gamma 60.00000

_symmetry_space_group_name_	'P 1'
_symmetry_space_group_name_H-M	'P 1'

loop_
_symmetry_equiv_pos_as_xyz
  x,y,z

loop_
_atom_site_label
_atom_site_type_symbol
_atom_site_fract_x
_atom_site_fract_y
_atom_site_fract_z
_atom_site_charge
Cu	Cu	0.43015 0.56985 -0.00000 0.89600
Cu	Cu	-0.00000 -0.00000 0.56985 0.86200
Cu	Cu	0.56985 0.00000 0.43015 0.89600
Cu	Cu	0.43015 -0.00000 0.56985 0.89600
Cu	Cu	0.00000 0.56985 0.43015 0.89600
Cu	Cu	0.56985 0.43015 -0.00000 0.89600
Cu	Cu	0.00000 0.43015 0.56985 0.89600
Cu	Cu	0.00000 0.56985 -0.00000 0.86200
Cu	Cu	0.00000 0.43015 -0.00000 0.86000
Cu	Cu	0.43015 0.00000 -0.00000 0.86000
Cu	Cu	-0.00000 0.00000 0.43015 0.86000
Cu	Cu	0.56985 0.00000 -0.00000 0.86200
H 	H 	0.51220 0.72740 0.72740 0.06500
H 	H 	0.48780 0.27260 0.96700 0.07800
H 	H 	0.48780 0.96700 0.27260 0.07800
H 	H 	0.72740 0.51220 0.03300 0.04100
H 	H 	0.96700 0.48780 0.27260 0.07800
H 	H 	0.72740 0.03300 0.72740 0.04700
H 	H 	0.96700 0.27260 0.27260 0.07700
H 	H 	0.03300 0.72740 0.51220 0.04100
H 	H 	0.72740 0.72740 0.51220 0.06500
H 	H 	0.03300 0.51220 0.72740 0.04100
H 	H 	0.27260 0.96700 0.27260 0.07700
H 	H 	0.72740 0.51220 0.72740 0.06500
H 	H 	0.27260 0.48780 0.27260 0.05000
H 	H 	0.72740 0.72740 0.03300 0.04700
H 	H 	0.48780 0.27260 0.27260 0.05000
H 	H 	0.51220 0.03300 0.72740 0.04100
H 	H 	0.72740 0.03300 0.51220 0.04100
H 	H 	0.27260 0.27260 0.48780 0.05000
H 	H 	0.03300 0.72740 0.72740 0.04700
H 	H 	0.96700 0.27260 0.48780 0.07800
H 	H 	0.51220 0.72740 0.03300 0.04100
H 	H 	0.27260 0.27260 0.96700 0.07700
H 	H 	0.27260 0.48780 0.96700 0.07800
H 	H 	0.27260 0.96700 0.48780 0.07800
C 	C 	0.29320 0.98880 0.93340 0.15100
C 	C 	0.57009 0.69877 0.69877 0.03800
C 	C 	0.98880 0.93340 0.29320 0.15100
C 	C 	0.01120 0.06660 0.70680 -0.00600
C 	C 	0.21540 0.70680 0.01120 -0.00100
C 	C 	0.83730 0.56876 0.02518 0.34900
C 	C 	0.70680 0.06660 0.01120 -0.00600
C 	C 	0.82060 0.92740 0.89940 -0.03900
C 	C 	0.16270 0.43124 0.43124 0.35200
C 	C 	0.16660 0.09460 0.14540 -0.00800
C 	C 	0.97482 0.16270 0.43124 0.33500
C 	C 	0.09460 0.16660 0.59340 -0.00900
C 	C 	0.06660 0.01120 0.70680 -0.00600
C 	C 	0.01120 0.06660 0.21540 -0.02100
C 	C 	0.29320 0.93340 0.98880 0.15100
C 	C 	0.98880 0.78460 0.29320 0.11300
C 	C 	0.69877 0.57009 0.69877 0.03800
C 	C 	0.70680 0.21540 0.06660 0.03100
C 	C 	0.07260 0.17940 0.64740 -0.01900
C 	C 	0.21540 0.06660 0.01120 -0.02100
C 	C 	0.01120 0.21540 0.06660 -0.02100
C 	C 	0.14540 0.16660 0.09460 -0.00800
C 	C 	0.43124 0.97482 0.43124 0.33900
C 	C 	0.07260 0.10060 0.17940 -0.00300
C 	C 	0.96763 0.42991 0.30123 0.02200
C 	C 	0.17940 0.10060 0.07260 -0.00300
C 	C 	0.93340 0.98880 0.29320 0.15100
C 	C 	0.06660 0.01120 0.21540 -0.02100
C 	C 	0.43124 0.43124 0.97482 0.33900
C 	C 	0.61293 0.61293 0.74219 -0.08000
C 	C 	0.57009 0.03237 0.69877 0.05400
C 	C 	0.16660 0.59340 0.14540 0.00900
C 	C 	0.09460 0.14540 0.16660 -0.00800
C 	C 	0.40660 0.83340 0.90540 0.04300
C 	C 	0.92740 0.89940 0.35260 -0.04300
C 	C 	0.29320 0.98880 0.78460 0.11300
C 	C 	0.25781 0.96805 0.38707 -0.06500
C 	C 	0.93340 0.29320 0.78460 0.08600
C 	C 	0.74219 0.61293 0.61293 -0.08000
C 	C 	0.35260 0.92740 0.82060 -0.01600
C 	C 	0.93340 0.78460 0.98880 0.15000
C 	C 	0.16660 0.14540 0.59340 0.00900
C 	C 	0.89940 0.35260 0.92740 -0.04300
C 	C 	0.83340 0.40660 0.90540 0.04300
C 	C 	0.14540 0.09460 0.16660 -0.00800
C 	C 	0.03195 0.74219 0.61293 -0.10800
C 	C 	0.93340 0.98880 0.78460 0.15000
C 	C 	0.14540 0.09460 0.59340 -0.00300
C 	C 	0.09460 0.59340 0.16660 -0.00900
C 	C 	0.21540 0.01120 0.06660 -0.02100
C 	C 	0.38707 0.38707 0.96805 -0.06300
C 	C 	0.16660 0.14540 0.09460 -0.00800
C 	C 	0.42991 0.30123 0.30123 0.04600
C 	C 	0.17940 0.64740 0.10060 -0.00100
C 	C 	0.01120 0.70680 0.06660 -0.00600
C 	C 	0.35260 0.82060 0.92740 -0.01600
C 	C 	0.96805 0.38707 0.25781 -0.06500
C 	C 	0.06660 0.21540 0.01120 -0.02100
C 	C 	0.61293 0.74219 0.61293 -0.08000
C 	C 	0.93340 0.78460 0.29320 0.08600
C 	C 	0.85460 0.90540 0.83340 0.03600
C 	C 	0.85460 0.90540 0.40660 0.02800
C 	C 	0.35260 0.89940 0.82060 -0.03700
C 	C 	0.74219 0.03195 0.61293 -0.10800
C 	C 	0.40660 0.83340 0.85460 0.01500
C 	C 	0.02518 0.56876 0.56876 0.35700
C 	C 	0.21540 0.01120 0.70680 -0.00100
C 	C 	0.96805 0.38707 0.38707 -0.06300
C 	C 	0.16660 0.09460 0.59340 -0.00900
C 	C 	0.98880 0.93340 0.78460 0.15000
C 	C 	0.07260 0.64740 0.10060 -0.00300
C 	C 	0.82060 0.35260 0.89940 -0.03700
C 	C 	0.92740 0.35260 0.89940 -0.04300
C 	C 	0.02518 0.56876 0.83730 0.34900
C 	C 	0.83730 0.56876 0.56876 0.34700
C 	C 	0.82060 0.89940 0.92740 -0.03900
C 	C 	0.59340 0.16660 0.14540 0.00900
C 	C 	0.01120 0.21540 0.70680 -0.00100
C 	C 	0.10060 0.17940 0.07260 -0.00300
C 	C 	0.82060 0.92740 0.35260 -0.01600
C 	C 	0.02518 0.83730 0.56876 0.34900
C 	C 	0.56876 0.56876 0.83730 0.34700
C 	C 	0.43124 0.97482 0.16270 0.33500
C 	C 	0.78460 0.98880 0.93340 0.15000
C 	C 	0.09460 0.14540 0.59340 -0.00300
C 	C 	0.40660 0.90540 0.85460 0.02800
C 	C 	0.82060 0.89940 0.35260 -0.03700
C 	C 	0.69877 0.69877 0.57009 0.03800
C 	C 	0.89940 0.92740 0.82060 -0.03900
C 	C 	0.57009 0.69877 0.03237 0.05400
C 	C 	0.61293 0.74219 0.03195 -0.10800
C 	C 	0.17940 0.64740 0.07260 -0.01900
C 	C 	0.97482 0.43124 0.43124 0.33900
C 	C 	0.56876 0.02518 0.56876 0.35700
C 	C 	0.98880 0.29320 0.93340 0.15100
C 	C 	0.64740 0.17940 0.07260 -0.01900
C 	C 	0.43124 0.43124 0.16270 0.35200
C 	C 	0.06660 0.21540 0.70680 0.03100
C 	C 	0.25781 0.38707 0.96805 -0.06500
C 	C 	0.01120 0.70680 0.21540 -0.00100
C 	C 	0.29320 0.78460 0.98880 0.11300
C 	C 	0.40660 0.90540 0.83340 0.04300
C 	C 	0.96805 0.25781 0.38707 -0.06500
C 	C 	0.64740 0.07260 0.10060 -0.00300
C 	C 	0.78460 0.29320 0.93340 0.08600
C 	C 	0.78460 0.93340 0.98880 0.15000
C 	C 	0.03195 0.61293 0.61293 -0.11600
C 	C 	0.59340 0.16660 0.09460 -0.00900
C 	C 	0.03195 0.61293 0.74219 -0.10800
C 	C 	0.17940 0.07260 0.64740 -0.01900
C 	C 	0.43124 0.16270 0.43124 0.35200
C 	C 	0.85460 0.83340 0.40660 0.01500
C 	C 	0.89940 0.35260 0.82060 -0.03700
C 	C 	0.64740 0.17940 0.10060 -0.00100
C 	C 	0.29320 0.78460 0.93340 0.08600
C 	C 	0.70680 0.01120 0.06660 -0.00600
C 	C 	0.83340 0.85460 0.90540 0.03600
C 	C 	0.56876 0.83730 0.56876 0.34700
C 	C 	0.07260 0.17940 0.10060 -0.00300
C 	C 	0.83340 0.40660 0.85460 0.01500
C 	C 	0.97482 0.43124 0.16270 0.33500
C 	C 	0.38707 0.25781 0.96805 -0.06500
C 	C 	0.78460 0.29320 0.98880 0.11300
C 	C 	0.35260 0.89940 0.92740 -0.04300
C 	C 	0.30123 0.30123 0.96763 0.02200
C 	C 	0.09460 0.59340 0.14540 -0.00300
C 	C 	0.56876 0.02518 0.83730 0.34900
C 	C 	0.89940 0.92740 0.35260 -0.04300
C 	C 	0.10060 0.64740 0.17940 -0.00100
C 	C 	0.38707 0.96805 0.38707 -0.06300
C 	C 	0.64740 0.10060 0.07260 -0.00300
C 	C 	0.92740 0.89940 0.82060 -0.03900
C 	C 	0.82060 0.35260 0.92740 -0.01600
C 	C 	0.30123 0.42991 0.96763 0.02200
C 	C 	0.03237 0.69877 0.69877 0.05200
C 	C 	0.03237 0.69877 0.57009 0.05400
C 	C 	0.09460 0.16660 0.14540 -0.00800
C 	C 	0.78460 0.93340 0.29320 0.08600
C 	C 	0.59340 0.09460 0.14540 -0.00300
C 	C 	0.43124 0.16270 0.97482 0.33500
C 	C 	0.16270 0.43124 0.97482 0.33500
C 	C 	0.69877 0.03237 0.57009 0.05400
C 	C 	0.69877 0.69877 0.03237 0.05200
C 	C 	0.78460 0.98880 0.29320 0.11300
C 	C 	0.90540 0.85460 0.40660 0.02800
C 	C 	0.70680 0.01120 0.21540 -0.00100
C 	C 	0.61293 0.03195 0.74219 -0.10800
C 	C 	0.38707 0.38707 0.25781 -0.10700
C 	C 	0.96763 0.30123 0.30123 0.02200
C 	C 	0.89940 0.82060 0.35260 -0.03700
C 	C 	0.96763 0.30123 0.42991 0.02200
C 	C 	0.07260 0.10060 0.64740 -0.00300
C 	C 	0.17940 0.10060 0.64740 -0.00100
C 	C 	0.64740 0.07260 0.17940 -0.01900
C 	C 	0.21540 0.06660 0.70680 0.03100
C 	C 	0.64740 0.10060 0.17940 -0.00100
C 	C 	0.69877 0.03237 0.69877 0.05200
C 	C 	0.30123 0.96763 0.42991 0.02200
C 	C 	0.98880 0.78460 0.93340 0.15000
C 	C 	0.85460 0.40660 0.90540 0.02800
C 	C 	0.35260 0.82060 0.89940 -0.03700
C 	C 	0.61293 0.03195 0.61293 -0.11600
C 	C 	0.40660 0.85460 0.90540 0.02800
C 	C 	0.92740 0.82060 0.89940 -0.03900
C 	C 	0.69877 0.57009 0.03237 0.05400
C 	C 	0.42991 0.96763 0.30123 0.02200
C 	C 	0.03237 0.57009 0.69877 0.05400
C 	C 	0.83340 0.90540 0.40660 0.04300
C 	C 	0.10060 0.64740 0.07260 -0.00300
C 	C 	0.40660 0.85460 0.83340 0.01500
C 	C 	0.38707 0.96805 0.25781 -0.06500
C 	C 	0.06660 0.70680 0.01120 -0.00600
C 	C 	0.85460 0.83340 0.90540 0.03600
C 	C 	0.56876 0.56876 0.02518 0.35700
C 	C 	0.14540 0.59340 0.09460 -0.00300
C 	C 	0.61293 0.61293 0.03195 -0.11600
C 	C 	0.83730 0.02518 0.56876 0.34900
C 	C 	0.90540 0.83340 0.40660 0.04300
C 	C 	0.29320 0.93340 0.78460 0.08600
C 	C 	0.70680 0.21540 0.01120 -0.00100
C 	C 	0.14540 0.16660 0.59340 0.00900
C 	C 	0.07260 0.64740 0.17940 -0.01900
C 	C 	0.59340 0.14540 0.16660 0.00900
C 	C 	0.21540 0.70680 0.06660 0.03100
C 	C 	0.59340 0.14540 0.09460 -0.00300
C 	C 	0.30123 0.96763 0.30123 0.02200
C 	C 	0.56876 0.83730 0.02518 0.34900
C 	C 	0.89940 0.82060 0.92740 -0.03900
C 	C 	0.16660 0.59340 0.09460 -0.00900
C 	C 	0.92740 0.35260 0.82060 -0.01600
C 	C 	0.14540 0.59340 0.16660 0.00900
C 	C 	0.30123 0.42991 0.30123 0.04600
C 	C 	0.10060 0.07260 0.64740 -0.00300
C 	C 	0.10060 0.17940 0.64740 -0.00100
C 	C 	0.83340 0.85460 0.40660 0.01500
C 	C 	0.85460 0.40660 0.83340 0.01500
C 	C 	0.30123 0.30123 0.42991 0.04600
C 	C 	0.10060 0.07260 0.17940 -0.00300
C 	C 	0.42991 0.30123 0.96763 0.02200
C 	C 	0.38707 0.25781 0.38707 -0.10700
C 	C 	0.90540 0.83340 0.85460 0.03600
C 	C 	0.17940 0.07260 0.10060 -0.00300
C 	C 	0.25781 0.38707 0.38707 -0.10700
C 	C 	0.70680 0.06660 0.21540 0.03100
C 	C 	0.90540 0.40660 0.85460 0.02800
C 	C 	0.92740 0.82060 0.35260 -0.01600
C 	C 	0.06660 0.70680 0.21540 0.03100
C 	C 	0.35260 0.92740 0.89940 -0.04300
C 	C 	0.90540 0.85460 0.83340 0.03600
C 	C 	0.98880 0.29320 0.78460 0.11300
C 	C 	0.83340 0.90540 0.85460 0.03600
C 	C 	0.93340 0.29320 0.98880 0.15100
C 	C 	0.16270 0.97482 0.43124 0.33500
C 	C 	0.59340 0.09460 0.16660 -0.00900
C 	C 	0.74219 0.61293 0.03195 -0.10800
C 	C 	0.90540 0.40660 0.83340 0.04300
O 	O 	0.02141 0.61259 0.87383 -0.37200
O 	O 	0.49217 0.02141 0.87383 -0.37400
O 	O 	0.12617 0.50783 0.38741 -0.40100
O 	O 	0.61259 0.02141 0.49217 -0.41000
O 	O 	0.00000 0.31270 0.68730 -0.31300
O 	O 	0.02141 0.49217 0.61259 -0.41000
O 	O 	-0.00000 0.68730 -0.00000 -0.37000
O 	O 	0.61259 0.02141 0.87383 -0.37200
O 	O 	0.87383 0.61259 0.49217 -0.35100
O 	O 	0.38741 0.97859 0.50783 -0.33900
O 	O 	0.49217 0.87383 0.61259 -0.35100
O 	O 	0.38741 0.97859 0.12617 -0.34800
O 	O 	0.87383 0.61259 0.02141 -0.37200
O 	O 	0.61259 0.49217 0.87383 -0.35100
O 	O 	0.49217 0.61259 0.02141 -0.41000
O 	O 	0.97859 0.12617 0.50783 -0.34800
O 	O 	0.31270 0.00000 -0.00000 -0.37600
O 	O 	0.50783 0.12617 0.38741 -0.40100
O 	O 	0.12617 0.38741 0.50783 -0.40100
O 	O 	0.97859 0.38741 0.12617 -0.34800
O 	O 	0.97859 0.50783 0.38741 -0.33900
O 	O 	0.68730 0.00000 0.31270 -0.31300
O 	O 	0.31270 0.00000 0.68730 -0.31300
O 	O 	0.12617 0.97859 0.38741 -0.34800
O 	O 	0.38741 0.50783 0.12617 -0.40100
O 	O 	0.87383 0.49217 0.61259 -0.35100
O 	O 	0.50783 0.12617 0.97859 -0.34800
O 	O 	0.50783 0.38741 0.12617 -0.40100
O 	O 	0.38741 0.12617 0.50783 -0.40100
O 	O 	0.50783 0.97859 0.12617 -0.34800
O 	O 	0.31270 0.68730 -0.00000 -0.31300
O 	O 	0.97859 0.50783 0.12617 -0.34800
O 	O 	0.50783 0.38741 0.97859 -0.33900
O 	O 	0.12617 0.50783 0.97859 -0.34800
O 	O 	0.02141 0.61259 0.49217 -0.41000
O 	O 	0.87383 0.02141 0.49217 -0.37400
O 	O 	0.49217 0.87383 0.02141 -0.37400
O 	O 	0.02141 0.87383 0.49217 -0.37400
O 	O 	0.50783 0.97859 0.38741 -0.33900
O 	O 	0.49217 0.61259 0.87383 -0.35100
O 	O 	0.12617 0.97859 0.50783 -0.34800
O 	O 	0.97859 0.12617 0.38741 -0.34800
O 	O 	0.61259 0.87383 0.02141 -0.37200
O 	O 	-0.00000 0.31270 -0.00000 -0.37600
O 	O 	0.87383 0.02141 0.61259 -0.37200
O 	O 	0.49217 0.02141 0.61259 -0.41000
O 	O 	0.02141 0.87383 0.61259 -0.37200
O 	O 	0.68730 0.00000 -0.00000 -0.37000
O 	O 	0.12617 0.38741 0.97859 -0.34800
O 	O 	-0.00000 0.00000 0.68730 -0.37000
O 	O 	0.00000 0.68730 0.31270 -0.31300
O 	O 	0.02141 0.49217 0.87383 -0.37400
O 	O 	0.61259 0.87383 0.49217 -0.35100
O 	O 	0.61259 0.49217 0.02141 -0.41000
O 	O 	0.97859 0.38741 0.50783 -0.33900
O 	O 	0.68730 0.31270 -0.00000 -0.31300
O 	O 	0.38741 0.50783 0.97859 -0.33900
O 	O 	0.87383 0.49217 0.02141 -0.37400
O 	O 	-0.00000 0.00000 0.31270 -0.37600
O 	O 	0.38741 0.12617 0.97859 -0.34800
