data_crystal

_cell_length_a 6.55390
_cell_length_b 16.43900
_cell_length_c 13.13790
_cell_angle_alpha 90.00000
_cell_angle_beta  90.00000
_cell_angle_gamma 90.54410

_symmetry_space_group_name_	'P 1'
_symmetry_space_group_name_H-M	'P 1'

loop_
_symmetry_equiv_pos_as_xyz
  x,y,z

loop_
_atom_site_label
_atom_site_type_symbol
_atom_site_fract_x
_atom_site_fract_y
_atom_site_fract_z
_atom_site_charge
O 	O 	0.15870 0.17412 0.85300 -0.62100
O 	O 	0.81870 0.65915 0.16580 -0.64500
C 	C 	0.79690 0.02450 0.95050 -0.02500
C 	C 	0.00370 0.06260 0.94580 -0.01700
C 	C 	0.00140 0.13630 0.86680 0.55800
C 	C 	0.19330 0.54010 0.02440 0.03200
O 	O 	0.65870 0.67412 0.35300 -0.63400
O 	O 	0.31870 0.15915 0.66580 -0.57500
C 	C 	0.29690 0.52450 0.45050 0.06600
C 	C 	0.50370 0.56260 0.44580 -0.10000
C 	C 	0.50140 0.63630 0.36680 0.48900
C 	C 	0.69330 0.04010 0.52440 0.04300
O 	O 	0.84130 0.32588 0.85300 -0.61600
O 	O 	0.18130 0.84085 0.16580 -0.52700
C 	C 	0.20310 0.47550 0.95050 0.12600
C 	C 	0.99630 0.43740 0.94580 -0.18400
C 	C 	0.99860 0.36370 0.86680 0.41300
C 	C 	0.80670 0.95990 0.02440 0.08600
O 	O 	0.34130 0.82588 0.35300 -0.60900
O 	O 	0.68130 0.34085 0.66580 -0.60200
C 	C 	0.70310 0.97550 0.45050 0.02800
C 	C 	0.49630 0.93740 0.44580 -0.10100
C 	C 	0.49860 0.86370 0.36680 0.48800
C 	C 	0.30670 0.45990 0.52440 0.07800
O 	O 	0.84130 0.82588 0.14700 -0.61600
O 	O 	0.18130 0.34085 0.83420 -0.52700
C 	C 	0.20310 0.97550 0.04950 0.12400
C 	C 	0.99630 0.93740 0.05420 -0.18300
C 	C 	0.99860 0.86370 0.13320 0.41300
C 	C 	0.80670 0.45990 0.97560 0.08700
O 	O 	0.34130 0.32588 0.64700 -0.60900
O 	O 	0.68130 0.84085 0.33420 -0.60200
C 	C 	0.70310 0.47550 0.54950 0.03000
C 	C 	0.49630 0.43740 0.55420 -0.10200
C 	C 	0.49860 0.36370 0.63320 0.48800
C 	C 	0.30670 0.95990 0.47560 0.07500
O 	O 	0.15870 0.67412 0.14700 -0.62200
O 	O 	0.81870 0.15915 0.83420 -0.64600
C 	C 	0.79690 0.52450 0.04950 -0.02800
C 	C 	0.00370 0.56260 0.05420 -0.01700
C 	C 	0.00140 0.63630 0.13320 0.55800
C 	C 	0.19330 0.04010 0.97560 0.03300
O 	O 	0.65870 0.17412 0.64700 -0.63400
O 	O 	0.31870 0.65915 0.33420 -0.57500
C 	C 	0.29690 0.02450 0.54950 0.06800
C 	C 	0.50370 0.06260 0.55420 -0.10100
C 	C 	0.50140 0.13630 0.63320 0.48900
C 	C 	0.69330 0.54010 0.47560 0.04000
Al	Al	0.25000 0.25000 0.75000 2.40400
Al	Al	0.75000 0.25000 0.75000 2.40200
Al	Al	0.75000 0.75000 0.25000 2.40200
Al	Al	0.25000 0.75000 0.25000 2.40400
F 	F 	-0.00000 0.25000 0.69060 -0.95600
F 	F 	0.50000 0.75000 0.19060 -0.99700
F 	F 	-0.00000 0.75000 0.30940 -0.95600
F 	F 	0.50000 0.25000 0.80940 -0.99700
