data_crystal

_cell_length_a 30.80900
_cell_length_b 5.36900
_cell_length_c 25.12600
_cell_angle_alpha 90.00000
_cell_angle_beta  127.61000
_cell_angle_gamma 90.00000

_symmetry_space_group_name_	'P 1'
_symmetry_space_group_name_H-M	'P 1'

loop_
_symmetry_equiv_pos_as_xyz
  x,y,z

loop_
_atom_site_label
_atom_site_type_symbol
_atom_site_fract_x
_atom_site_fract_y
_atom_site_fract_z
_atom_site_charge
Cd	Cd	0.26400 0.88500 0.57680 1.20100
Cd	Cd	0.68650 0.00000 0.95800 1.21900
P 	P 	0.70180 0.54200 0.04250 0.48500
P 	P 	0.33100 0.44000 0.59210 0.50000
O 	O 	0.73040 0.58600 0.12130 -0.22800
O 	O 	0.39210 0.49200 0.62080 -0.24500
O 	O 	0.74030 0.67400 0.02900 -0.52200
O 	O 	0.29650 0.58000 0.52560 -0.48400
O 	O 	0.64550 0.66300 0.00790 -0.27100
O 	O 	0.32160 0.56500 0.63870 -0.38400
O 	O 	0.70290 0.28200 0.03760 -0.40600
O 	O 	0.32610 0.16700 0.58740 -0.39700
N 	N 	0.74580 0.35300 0.28470 -0.14300
N 	N 	0.54020 0.34800 0.79030 -0.14600
C 	C 	0.75360 0.20000 0.34220 0.22900
C 	C 	0.59080 0.25300 0.84640 0.26800
O 	O 	0.79590 0.22600 0.40060 -0.29200
O 	O 	0.63400 0.31700 0.86150 -0.34800
N 	N 	0.71400 0.04400 0.31690 -0.22300
N 	N 	0.59630 0.04900 0.88600 -0.25400
C 	C 	0.66860 0.96800 0.25330 0.11300
C 	C 	0.54360 0.98200 0.86390 0.11900
N 	N 	0.63400 0.78700 0.24100 -0.09600
N 	N 	0.54410 0.78100 0.89960 -0.08700
C 	C 	0.66040 0.13500 0.19690 0.00400
C 	C 	0.48990 0.08500 0.80960 -0.00300
C 	C 	0.69910 0.32000 0.21810 0.10600
C 	C 	0.48350 0.28900 0.76770 0.10200
C 	C 	0.79060 0.50700 0.30850 0.12600
C 	C 	0.54630 0.57100 0.75260 0.14400
C 	C 	0.84160 0.40600 0.32250 -0.00100
C 	C 	0.54810 0.45600 0.69450 0.01800
C 	C 	0.82510 0.44900 0.25500 0.09100
C 	C 	0.49170 0.53200 0.63430 0.08100
C 	C 	0.80330 0.72400 0.23500 0.05600
C 	C 	0.46890 0.73900 0.64960 0.06000
O 	O 	0.76510 0.71600 0.25490 -0.17400
O 	O 	0.49820 0.70200 0.72180 -0.18800
O 	O 	0.87370 0.45300 0.25480 -0.15200
O 	O 	0.49500 0.54200 0.57430 -0.11700
C 	C 	0.76240 0.79600 0.15710 0.10600
C 	C 	0.40750 0.71800 0.61580 0.12500
Cd	Cd	0.23600 0.38500 0.42320 1.21000
Cd	Cd	0.81350 0.50000 0.04200 1.21800
P 	P 	0.79820 0.04200 0.95750 0.49100
P 	P 	0.16900 0.94000 0.40790 0.47500
O 	O 	0.76960 0.08600 0.87870 -0.22600
O 	O 	0.10790 0.99200 0.37920 -0.26300
O 	O 	0.75970 0.17400 0.97100 -0.51800
O 	O 	0.20350 0.08000 0.47440 -0.46200
O 	O 	0.85450 0.16300 0.99210 -0.26800
O 	O 	0.17840 0.06500 0.36130 -0.36500
O 	O 	0.79710 0.78200 0.96240 -0.41200
O 	O 	0.17390 0.66700 0.41260 -0.40400
N 	N 	0.75420 0.85300 0.71530 -0.15200
N 	N 	0.95980 0.84800 0.20970 -0.15300
C 	C 	0.74640 0.70000 0.65780 0.22700
C 	C 	0.90920 0.75300 0.15360 0.26600
O 	O 	0.70410 0.72600 0.59940 -0.29900
O 	O 	0.86600 0.81700 0.13850 -0.35000
N 	N 	0.78600 0.54400 0.68310 -0.23800
N 	N 	0.90370 0.54900 0.11400 -0.26000
C 	C 	0.83140 0.46800 0.74670 0.14100
C 	C 	0.95640 0.48200 0.13610 0.13500
N 	N 	0.86600 0.28700 0.75900 -0.09500
N 	N 	0.95590 0.28100 0.10040 -0.08600
C 	C 	0.83960 0.63500 0.80310 -0.01700
C 	C 	0.01010 0.58500 0.19040 -0.01700
C 	C 	0.80090 0.82000 0.78190 0.10600
C 	C 	0.01650 0.78900 0.23230 0.09700
C 	C 	0.70940 0.00700 0.69150 0.14800
C 	C 	0.95370 0.07100 0.24740 0.16300
C 	C 	0.65840 0.90600 0.67750 -0.01400
C 	C 	0.95190 0.95600 0.30550 -0.01300
C 	C 	0.67490 0.94900 0.74500 0.08400
C 	C 	0.00830 0.03200 0.36570 0.10200
C 	C 	0.69670 0.22400 0.76500 0.06600
C 	C 	0.03110 0.23900 0.35040 0.05500
O 	O 	0.73490 0.21600 0.74510 -0.17100
O 	O 	0.00180 0.20200 0.27820 -0.18500
O 	O 	0.62630 0.95300 0.74520 -0.15500
O 	O 	0.00500 0.04200 0.42570 -0.11400
C 	C 	0.73760 0.29600 0.84290 0.10900
C 	C 	0.09250 0.21800 0.38420 0.14700
Cd	Cd	0.76400 0.38500 0.57680 1.21000
Cd	Cd	0.18650 0.50000 0.95800 1.21800
P 	P 	0.20180 0.04200 0.04250 0.49100
P 	P 	0.83100 0.94000 0.59210 0.47500
O 	O 	0.23040 0.08600 0.12130 -0.22600
O 	O 	0.89210 0.99200 0.62080 -0.26300
O 	O 	0.24030 0.17400 0.02900 -0.51800
O 	O 	0.79650 0.08000 0.52560 -0.46200
O 	O 	0.14550 0.16300 0.00790 -0.26800
O 	O 	0.82160 0.06500 0.63870 -0.36500
O 	O 	0.20290 0.78200 0.03760 -0.41200
O 	O 	0.82610 0.66700 0.58740 -0.40400
N 	N 	0.24580 0.85300 0.28470 -0.15200
N 	N 	0.04020 0.84800 0.79030 -0.15300
C 	C 	0.25360 0.70000 0.34220 0.22700
C 	C 	0.09080 0.75300 0.84640 0.26600
O 	O 	0.29590 0.72600 0.40060 -0.29900
O 	O 	0.13400 0.81700 0.86150 -0.35000
N 	N 	0.21400 0.54400 0.31690 -0.23800
N 	N 	0.09630 0.54900 0.88600 -0.26000
C 	C 	0.16860 0.46800 0.25330 0.14100
C 	C 	0.04360 0.48200 0.86390 0.13500
N 	N 	0.13400 0.28700 0.24100 -0.09500
N 	N 	0.04410 0.28100 0.89960 -0.08600
C 	C 	0.16040 0.63500 0.19690 -0.01700
C 	C 	0.98990 0.58500 0.80960 -0.01700
C 	C 	0.19910 0.82000 0.21810 0.10600
C 	C 	0.98350 0.78900 0.76770 0.09700
C 	C 	0.29060 0.00700 0.30850 0.14800
C 	C 	0.04630 0.07100 0.75260 0.16300
C 	C 	0.34160 0.90600 0.32250 -0.01400
C 	C 	0.04810 0.95600 0.69450 -0.01300
C 	C 	0.32510 0.94900 0.25500 0.08400
C 	C 	0.99170 0.03200 0.63430 0.10200
C 	C 	0.30330 0.22400 0.23500 0.06600
C 	C 	0.96890 0.23900 0.64960 0.05500
O 	O 	0.26510 0.21600 0.25490 -0.17100
O 	O 	0.99820 0.20200 0.72180 -0.18500
O 	O 	0.37370 0.95300 0.25480 -0.15500
O 	O 	0.99500 0.04200 0.57430 -0.11400
C 	C 	0.26240 0.29600 0.15710 0.10900
C 	C 	0.90750 0.21800 0.61580 0.14700
Cd	Cd	0.73600 0.88500 0.42320 1.20200
Cd	Cd	0.31350 0.00000 0.04200 1.22000
P 	P 	0.29820 0.54200 0.95750 0.48600
P 	P 	0.66900 0.44000 0.40790 0.50100
O 	O 	0.26960 0.58600 0.87870 -0.22700
O 	O 	0.60790 0.49200 0.37920 -0.24400
O 	O 	0.25970 0.67400 0.97100 -0.52100
O 	O 	0.70350 0.58000 0.47440 -0.48300
O 	O 	0.35450 0.66300 0.99210 -0.27000
O 	O 	0.67840 0.56500 0.36130 -0.38300
O 	O 	0.29710 0.28200 0.96240 -0.40600
O 	O 	0.67390 0.16700 0.41260 -0.39700
N 	N 	0.25420 0.35300 0.71530 -0.14300
N 	N 	0.45980 0.34800 0.20970 -0.14600
C 	C 	0.24640 0.20000 0.65780 0.22900
C 	C 	0.40920 0.25300 0.15360 0.26800
O 	O 	0.20410 0.22600 0.59940 -0.29200
O 	O 	0.36600 0.31700 0.13850 -0.34800
N 	N 	0.28600 0.04400 0.68310 -0.22300
N 	N 	0.40370 0.04900 0.11400 -0.25400
C 	C 	0.33140 0.96800 0.74670 0.11300
C 	C 	0.45640 0.98200 0.13610 0.11900
N 	N 	0.36600 0.78700 0.75900 -0.09600
N 	N 	0.45590 0.78100 0.10040 -0.08700
C 	C 	0.33960 0.13500 0.80310 0.00400
C 	C 	0.51010 0.08500 0.19040 -0.00300
C 	C 	0.30090 0.32000 0.78190 0.10600
C 	C 	0.51650 0.28900 0.23230 0.10200
C 	C 	0.20940 0.50700 0.69150 0.12600
C 	C 	0.45370 0.57100 0.24740 0.14400
C 	C 	0.15840 0.40600 0.67750 -0.00100
C 	C 	0.45190 0.45600 0.30550 0.01800
C 	C 	0.17490 0.44900 0.74500 0.09100
C 	C 	0.50830 0.53200 0.36570 0.08100
C 	C 	0.19670 0.72400 0.76500 0.05600
C 	C 	0.53110 0.73900 0.35040 0.06000
O 	O 	0.23490 0.71600 0.74510 -0.17400
O 	O 	0.50180 0.70200 0.27820 -0.18800
O 	O 	0.12630 0.45300 0.74520 -0.15200
O 	O 	0.50500 0.54200 0.42570 -0.11700
C 	C 	0.23760 0.79600 0.84290 0.10600
C 	C 	0.59250 0.71800 0.38420 0.12500
