data_crystal

_cell_length_a 13.51000
_cell_length_b 27.37000
_cell_length_c 27.99100
_cell_angle_alpha 90.00000
_cell_angle_beta  90.00000
_cell_angle_gamma 90.00000

_symmetry_space_group_name_	'P 1'
_symmetry_space_group_name_H-M	'P 1'

loop_
_symmetry_equiv_pos_as_xyz
  x,y,z

loop_
_atom_site_label
_atom_site_type_symbol
_atom_site_fract_x
_atom_site_fract_y
_atom_site_fract_z
_atom_site_charge
Zn	Zn	0.38402 0.50370 0.04142 1.20900
Zn	Zn	0.59191 0.46380 0.97295 1.21000
Zn	Zn	0.26001 0.68700 0.74480 1.21100
Zn	Zn	0.06382 0.76478 0.78483 1.20900
Zn	Zn	0.11598 0.49630 0.54142 1.21000
Zn	Zn	0.90809 0.53620 0.47295 1.21000
Zn	Zn	0.23999 0.31300 0.24480 1.21100
Zn	Zn	0.43618 0.23522 0.28483 1.20900
Zn	Zn	0.61598 0.00370 0.45858 1.21000
Zn	Zn	0.40809 0.96380 0.52705 1.21000
Zn	Zn	0.73999 0.18700 0.75520 1.21100
Zn	Zn	0.93618 0.26478 0.71517 1.20900
Zn	Zn	0.88402 0.99630 0.95858 1.20900
Zn	Zn	0.09191 0.03620 0.02705 1.20900
Zn	Zn	0.76001 0.81300 0.25520 1.21100
Zn	Zn	0.56382 0.73522 0.21517 1.20900
H 	H 	0.02300 0.68100 0.90700 0.02000
H 	H 	0.28040 0.61170 0.87900 0.02900
H 	H 	0.13160 0.58900 0.00260 0.02700
H 	H 	0.69110 0.37430 0.07540 0.01500
H 	H 	0.43370 0.38970 0.14550 0.01500
H 	H 	0.62760 0.28280 0.17960 0.01700
H 	H 	0.74590 0.58470 0.99020 0.01900
H 	H 	0.56920 0.62210 0.10010 0.02500
H 	H 	0.84000 0.68360 0.08420 0.03500
H 	H 	0.50560 0.20680 0.85110 0.02000
H 	H 	0.64840 0.32980 0.89270 0.03300
H 	H 	0.37190 0.29870 0.93780 0.02800
H 	H 	0.47700 0.31900 0.40700 0.02000
H 	H 	0.21960 0.38830 0.37900 0.02900
H 	H 	0.36840 0.41100 0.50260 0.02800
H 	H 	0.80890 0.62570 0.57540 0.01500
H 	H 	0.06630 0.61030 0.64550 0.01400
H 	H 	0.87240 0.71720 0.67960 0.01700
H 	H 	0.75410 0.41530 0.49020 0.01900
H 	H 	0.93080 0.37790 0.60010 0.02500
H 	H 	0.66000 0.31640 0.58420 0.03500
H 	H 	0.99440 0.79320 0.35110 0.02000
H 	H 	0.85160 0.67020 0.39270 0.03200
H 	H 	0.12810 0.70130 0.43780 0.02700
H 	H 	0.97700 0.18100 0.59300 0.02000
H 	H 	0.71960 0.11170 0.62100 0.02900
H 	H 	0.86840 0.08900 0.49740 0.02800
H 	H 	0.30890 0.87430 0.42460 0.01600
H 	H 	0.56630 0.88970 0.35450 0.01500
H 	H 	0.37240 0.78280 0.32040 0.01700
H 	H 	0.25410 0.08470 0.50980 0.01900
H 	H 	0.43080 0.12210 0.39990 0.02500
H 	H 	0.16000 0.18360 0.41580 0.03500
H 	H 	0.49440 0.70680 0.64890 0.02000
H 	H 	0.35160 0.82980 0.60730 0.03300
H 	H 	0.62810 0.79870 0.56220 0.02700
H 	H 	0.52300 0.81900 0.09300 0.02000
H 	H 	0.78040 0.88830 0.12100 0.02900
H 	H 	0.63160 0.91100 0.99740 0.02700
H 	H 	0.19110 0.12570 0.92460 0.01500
H 	H 	0.93370 0.11030 0.85450 0.01500
H 	H 	0.12760 0.21720 0.82040 0.01700
H 	H 	0.24590 0.91530 0.00980 0.02000
H 	H 	0.06920 0.87790 0.89990 0.02600
H 	H 	0.34000 0.81640 0.91580 0.03500
H 	H 	0.00560 0.29320 0.14890 0.02000
H 	H 	0.14840 0.17020 0.10730 0.03200
H 	H 	0.87190 0.20130 0.06220 0.02700
Pd	Pd	0.93492 0.63725 0.99568 0.79600
Pd	Pd	0.79978 0.28868 0.11457 0.79800
Pd	Pd	0.56508 0.36275 0.49568 0.79700
Pd	Pd	0.70022 0.71132 0.61457 0.79800
Pd	Pd	0.06508 0.13725 0.50432 0.79700
Pd	Pd	0.20022 0.78868 0.38543 0.79800
Pd	Pd	0.43492 0.86275 0.00432 0.79700
Pd	Pd	0.29978 0.21132 0.88543 0.79800
C 	C 	0.07260 0.65820 0.91610 0.10900
C 	C 	0.15230 0.65120 0.88590 -0.15500
C 	C 	0.22600 0.61830 0.89950 0.09000
C 	C 	0.21810 0.59550 0.94350 -0.13000
C 	C 	0.13600 0.60430 0.97230 0.08500
C 	C 	0.15660 0.67730 0.83850 0.43800
C 	C 	0.29630 0.55940 0.96130 0.38600
C 	C 	0.64670 0.36350 0.09940 0.11600
C 	C 	0.55640 0.38800 0.10590 -0.17100
C 	C 	0.49440 0.37290 0.14040 0.12400
C 	C 	0.51850 0.33290 0.16850 -0.16800
C 	C 	0.60920 0.30990 0.16050 0.10900
C 	C 	0.53120 0.43060 0.07350 0.43500
C 	C 	0.45230 0.31240 0.20690 0.44100
C 	C 	0.73500 0.60360 0.01820 0.10300
C 	C 	0.64730 0.59780 0.04260 -0.15700
C 	C 	0.62960 0.62520 0.08300 0.09100
C 	C 	0.70280 0.65790 0.09810 -0.12800
C 	C 	0.79000 0.66200 0.07310 0.08300
C 	C 	0.69070 0.68700 0.14370 0.36500
C 	C 	0.57570 0.55930 0.02460 0.43900
C 	C 	0.50690 0.23650 0.86870 0.08800
C 	C 	0.59190 0.26600 0.86760 -0.12700
C 	C 	0.59240 0.30880 0.89350 0.08100
C 	C 	0.51100 0.32090 0.92080 -0.13100
C 	C 	0.42880 0.29020 0.91970 0.10000
C 	C 	0.67450 0.25330 0.83300 0.37600
C 	C 	0.50480 0.36860 0.94740 0.36500
C 	C 	0.42740 0.34180 0.41610 0.10900
C 	C 	0.34770 0.34880 0.38590 -0.15500
C 	C 	0.27400 0.38170 0.39950 0.09000
C 	C 	0.28190 0.40450 0.44350 -0.13000
C 	C 	0.36400 0.39570 0.47230 0.08300
C 	C 	0.34340 0.32270 0.33850 0.43800
C 	C 	0.20370 0.44060 0.46130 0.38500
C 	C 	0.85330 0.63650 0.59940 0.11700
C 	C 	0.94360 0.61200 0.60590 -0.17400
C 	C 	0.00560 0.62710 0.64040 0.12800
C 	C 	0.98150 0.66710 0.66850 -0.17200
C 	C 	0.89080 0.69010 0.66050 0.11100
C 	C 	0.96880 0.56940 0.57350 0.43500
C 	C 	0.04770 0.68760 0.70690 0.44200
C 	C 	0.76500 0.39640 0.51820 0.10200
C 	C 	0.85270 0.40220 0.54260 -0.15600
C 	C 	0.87040 0.37480 0.58300 0.09100
C 	C 	0.79720 0.34210 0.59810 -0.12800
C 	C 	0.71000 0.33800 0.57310 0.08300
C 	C 	0.80930 0.31300 0.64370 0.36500
C 	C 	0.92430 0.44070 0.52460 0.43900
C 	C 	0.99310 0.76350 0.36870 0.08700
C 	C 	0.90810 0.73400 0.36760 -0.12800
C 	C 	0.90760 0.69120 0.39350 0.08100
C 	C 	0.98900 0.67910 0.42080 -0.13200
C 	C 	0.07120 0.70980 0.41970 0.10100
C 	C 	0.82550 0.74670 0.33300 0.37600
C 	C 	0.99520 0.63140 0.44740 0.36400
C 	C 	0.92740 0.15820 0.58390 0.10900
C 	C 	0.84770 0.15120 0.61410 -0.15400
C 	C 	0.77400 0.11830 0.60050 0.09000
C 	C 	0.78190 0.09550 0.55650 -0.13000
C 	C 	0.86400 0.10430 0.52770 0.08400
C 	C 	0.84340 0.17730 0.66150 0.43800
C 	C 	0.70370 0.05940 0.53870 0.38500
C 	C 	0.35330 0.86350 0.40060 0.11600
C 	C 	0.44360 0.88800 0.39410 -0.17100
C 	C 	0.50560 0.87290 0.35960 0.12400
C 	C 	0.48150 0.83290 0.33150 -0.16800
C 	C 	0.39080 0.80990 0.33950 0.10900
C 	C 	0.46880 0.93060 0.42650 0.43500
C 	C 	0.54770 0.81240 0.29310 0.44100
C 	C 	0.26500 0.10360 0.48180 0.10200
C 	C 	0.35270 0.09780 0.45740 -0.15600
C 	C 	0.37040 0.12520 0.41700 0.09100
C 	C 	0.29720 0.15790 0.40190 -0.12800
C 	C 	0.21000 0.16200 0.42690 0.08300
C 	C 	0.30930 0.18700 0.35630 0.36500
C 	C 	0.42430 0.05930 0.47540 0.43900
C 	C 	0.49310 0.73650 0.63130 0.08800
C 	C 	0.40810 0.76600 0.63240 -0.12700
C 	C 	0.40760 0.80880 0.60650 0.08100
C 	C 	0.48900 0.82090 0.57920 -0.13100
C 	C 	0.57120 0.79020 0.58030 0.10000
C 	C 	0.32550 0.75330 0.66700 0.37600
C 	C 	0.49520 0.86860 0.55260 0.36500
C 	C 	0.57260 0.84180 0.08390 0.10900
C 	C 	0.65230 0.84880 0.11410 -0.15500
C 	C 	0.72600 0.88170 0.10050 0.09100
C 	C 	0.71810 0.90450 0.05650 -0.13100
C 	C 	0.63600 0.89570 0.02770 0.08500
C 	C 	0.65660 0.82270 0.16150 0.43800
C 	C 	0.79630 0.94060 0.03870 0.38600
C 	C 	0.14670 0.13650 0.90060 0.11700
C 	C 	0.05640 0.11200 0.89410 -0.17200
C 	C 	0.99440 0.12710 0.85960 0.12600
C 	C 	0.01850 0.16710 0.83150 -0.17000
C 	C 	0.10920 0.19010 0.83950 0.11000
C 	C 	0.03120 0.06940 0.92650 0.43400
C 	C 	0.95230 0.18760 0.79310 0.44200
C 	C 	0.23500 0.89640 0.98180 0.10200
C 	C 	0.14730 0.90220 0.95740 -0.15700
C 	C 	0.12960 0.87480 0.91700 0.09200
C 	C 	0.20280 0.84210 0.90190 -0.12800
C 	C 	0.29000 0.83800 0.92690 0.08300
C 	C 	0.19070 0.81300 0.85630 0.36500
C 	C 	0.07570 0.94070 0.97540 0.44100
C 	C 	0.00690 0.26350 0.13130 0.08700
C 	C 	0.09190 0.23400 0.13240 -0.12800
C 	C 	0.09240 0.19120 0.10650 0.08100
C 	C 	0.01100 0.17910 0.07920 -0.13200
C 	C 	0.92880 0.20980 0.08030 0.10200
C 	C 	0.17450 0.24670 0.16700 0.37600
C 	C 	0.00480 0.13140 0.05260 0.36300
N 	N 	0.06170 0.63450 0.95760 -0.20200
N 	N 	0.80580 0.63500 0.03210 -0.19900
N 	N 	0.67090 0.32560 0.12600 -0.20700
N 	N 	0.42750 0.24970 0.89440 -0.20000
N 	N 	0.43830 0.36550 0.45760 -0.20200
N 	N 	0.69420 0.36500 0.53210 -0.19900
N 	N 	0.82910 0.67440 0.62600 -0.20800
N 	N 	0.07250 0.75030 0.39440 -0.20000
N 	N 	0.93830 0.13450 0.54240 -0.20200
N 	N 	0.19420 0.13500 0.46790 -0.19900
N 	N 	0.32910 0.82560 0.37400 -0.20700
N 	N 	0.57250 0.74970 0.60560 -0.20000
N 	N 	0.56170 0.86550 0.04240 -0.20200
N 	N 	0.30580 0.86500 0.96790 -0.19900
N 	N 	0.17090 0.17440 0.87400 -0.20800
N 	N 	0.92750 0.25030 0.10560 -0.20000
Cl	Cl	0.84764 0.63218 0.92452 -0.42500
Cl	Cl	0.02173 0.64039 0.06591 -0.42200
Cl	Cl	0.88307 0.36110 0.10584 -0.42800
Cl	Cl	0.71810 0.21626 0.12452 -0.42300
Cl	Cl	0.65236 0.36782 0.42452 -0.42400
Cl	Cl	0.47827 0.35961 0.56591 -0.42200
Cl	Cl	0.61693 0.63890 0.60584 -0.42800
Cl	Cl	0.78190 0.78374 0.62452 -0.42300
Cl	Cl	0.15236 0.13218 0.57548 -0.42400
Cl	Cl	0.97827 0.14039 0.43409 -0.42200
Cl	Cl	0.11693 0.86110 0.39416 -0.42800
Cl	Cl	0.28190 0.71626 0.37548 -0.42300
Cl	Cl	0.34764 0.86782 0.07548 -0.42400
Cl	Cl	0.52173 0.85961 0.93409 -0.42200
Cl	Cl	0.38307 0.13890 0.89416 -0.42800
Cl	Cl	0.21810 0.28374 0.87548 -0.42300
O 	O 	0.08780 0.70710 0.83100 -0.46000
O 	O 	0.22520 0.66480 0.81111 -0.48700
O 	O 	0.29380 0.54980 0.00430 -0.45100
O 	O 	0.35430 0.54300 0.93090 -0.27200
O 	O 	0.45100 0.45090 0.08066 -0.48700
O 	O 	0.59690 0.44210 0.04284 -0.46300
O 	O 	0.36860 0.33270 0.21110 -0.46500
O 	O 	0.48490 0.27690 0.22970 -0.48800
O 	O 	0.60610 0.68780 0.16210 -0.43900
O 	O 	0.76640 0.70820 0.15900 -0.26400
O 	O 	0.49790 0.55380 0.04700 -0.46700
O 	O 	0.60550 0.53570 0.98883 -0.47900
O 	O 	0.67320 0.21100 0.81680 -0.44400
O 	O 	0.73070 0.28740 0.82250 -0.27000
O 	O 	0.42170 0.37940 0.96540 -0.25900
O 	O 	0.58160 0.39380 0.94940 -0.44700
O 	O 	0.43640 0.47220 0.97557 -0.40900
O 	O 	0.21180 0.75900 0.76040 -0.41500
O 	O 	0.41220 0.29290 0.33100 -0.46000
O 	O 	0.27480 0.33520 0.31111 -0.48700
O 	O 	0.20620 0.45020 0.50430 -0.45100
O 	O 	0.14570 0.45700 0.43090 -0.27200
O 	O 	0.04900 0.54910 0.58066 -0.48700
O 	O 	0.90310 0.55790 0.54284 -0.46300
O 	O 	0.13140 0.66730 0.71110 -0.46500
O 	O 	0.01510 0.72310 0.72970 -0.48800
O 	O 	0.89390 0.31220 0.66210 -0.43900
O 	O 	0.73360 0.29180 0.65900 -0.26400
O 	O 	0.00210 0.44620 0.54700 -0.46700
O 	O 	0.89450 0.46430 0.48883 -0.47900
O 	O 	0.82680 0.78900 0.31680 -0.44400
O 	O 	0.76930 0.71260 0.32250 -0.27000
O 	O 	0.07830 0.62060 0.46540 -0.25900
O 	O 	0.91840 0.60620 0.44940 -0.44700
O 	O 	0.06360 0.52780 0.47557 -0.40900
O 	O 	0.28820 0.24100 0.26040 -0.41500
O 	O 	0.91220 0.20710 0.66900 -0.46000
O 	O 	0.77480 0.16480 0.68889 -0.48700
O 	O 	0.70620 0.04980 0.49570 -0.45100
O 	O 	0.64570 0.04300 0.56910 -0.27200
O 	O 	0.54900 0.95090 0.41934 -0.48700
O 	O 	0.40310 0.94210 0.45716 -0.46300
O 	O 	0.63140 0.83270 0.28890 -0.46500
O 	O 	0.51510 0.77690 0.27030 -0.48800
O 	O 	0.39390 0.18780 0.33790 -0.43900
O 	O 	0.23360 0.20820 0.34100 -0.26400
O 	O 	0.50210 0.05380 0.45300 -0.46700
O 	O 	0.39450 0.03570 0.51117 -0.47900
O 	O 	0.32680 0.71100 0.68320 -0.44400
O 	O 	0.26930 0.78740 0.67750 -0.27000
O 	O 	0.57830 0.87940 0.53460 -0.26000
O 	O 	0.41840 0.89380 0.55060 -0.44700
O 	O 	0.56360 0.97220 0.52443 -0.40900
O 	O 	0.78820 0.25900 0.73960 -0.41500
O 	O 	0.58780 0.79290 0.16900 -0.46000
O 	O 	0.72520 0.83520 0.18889 -0.48700
O 	O 	0.79380 0.95020 0.99570 -0.45200
O 	O 	0.85430 0.95700 0.06910 -0.27200
O 	O 	0.95100 0.04910 0.91934 -0.48600
O 	O 	0.09690 0.05790 0.95716 -0.46200
O 	O 	0.86860 0.16730 0.78890 -0.46500
O 	O 	0.98490 0.22310 0.77030 -0.48800
O 	O 	0.10610 0.81220 0.83790 -0.43900
O 	O 	0.26640 0.79180 0.84100 -0.26400
O 	O 	0.99790 0.94620 0.95300 -0.46900
O 	O 	0.10550 0.96430 0.01117 -0.47900
O 	O 	0.17320 0.28900 0.18320 -0.44400
O 	O 	0.23070 0.21260 0.17750 -0.27000
O 	O 	0.92170 0.12060 0.03460 -0.25800
O 	O 	0.08160 0.10620 0.05060 -0.44800
O 	O 	0.93640 0.02780 0.02443 -0.40900
O 	O 	0.71180 0.74100 0.23960 -0.41500
