data_crystal

_cell_length_a 18.82660
_cell_length_b 18.82660
_cell_length_c 25.46380
_cell_angle_alpha 90.00000
_cell_angle_beta  90.00000
_cell_angle_gamma 90.00000

_symmetry_space_group_name_	'P 1'
_symmetry_space_group_name_H-M	'P 1'

loop_
_symmetry_equiv_pos_as_xyz
  x,y,z

loop_
_atom_site_label
_atom_site_type_symbol
_atom_site_fract_x
_atom_site_fract_y
_atom_site_fract_z
_atom_site_charge
Mn	Mn	0.50000 0.50000 0.39216 1.21700
Mn	Mn	0.00000 0.00000 0.10784 1.19200
Mn	Mn	0.60140 0.39860 0.50000 1.22200
Mn	Mn	0.89860 0.89860 -0.00000 1.22300
Mn	Mn	0.00000 0.00000 0.89216 1.19500
Mn	Mn	0.10140 0.10140 -0.00000 1.21300
Mn	Mn	0.39860 0.60140 0.50000 1.22300
Mn	Mn	0.50000 0.50000 0.60784 1.21900
Si	Si	0.00000 0.50000 0.75000 0.72200
Si	Si	0.50000 -0.00000 0.25000 0.72200
Si	Si	0.00000 0.50000 0.25000 0.72200
Si	Si	0.50000 -0.00000 0.75000 0.72200
H 	H 	0.75520 0.56300 0.29270 0.07800
H 	H 	0.06610 0.35040 0.89860 0.05000
H 	H 	0.56830 0.86090 0.24520 -0.01100
H 	H 	0.06830 0.63910 0.74520 -0.04900
H 	H 	0.14960 0.56610 0.60140 0.07800
H 	H 	0.24480 0.43700 0.29270 0.07900
H 	H 	0.95500 0.44050 0.64950 -0.00900
H 	H 	0.56610 0.14960 0.60140 0.07800
H 	H 	0.93390 0.64960 0.89860 0.11500
H 	H 	0.25520 0.93700 0.20730 0.04400
H 	H 	0.05950 0.45500 0.85050 0.01300
H 	H 	0.64960 0.93390 0.10140 0.10600
H 	H 	0.56830 0.86090 0.75480 -0.00900
H 	H 	0.36090 0.93170 0.25480 0.01000
H 	H 	0.43700 0.24480 0.70730 0.08000
H 	H 	0.93390 0.64960 0.10140 0.10600
H 	H 	0.64960 0.93390 0.89860 0.11500
H 	H 	0.06830 0.63910 0.25480 -0.04900
H 	H 	0.45500 0.05950 0.14950 0.00800
H 	H 	0.56610 0.14960 0.39860 0.07800
H 	H 	0.06610 0.35040 0.10140 0.04200
H 	H 	0.95500 0.44050 0.35050 -0.00900
H 	H 	0.44050 0.95500 0.64950 -0.00900
H 	H 	0.75520 0.56300 0.70730 0.07900
H 	H 	0.55950 0.04500 0.64950 -0.03500
H 	H 	0.85040 0.43390 0.60140 0.07800
H 	H 	0.74480 0.06300 0.79270 0.11500
H 	H 	0.94050 0.54500 0.85050 -0.05100
H 	H 	0.93700 0.25520 0.79270 0.04500
H 	H 	0.13910 0.43170 0.24520 -0.03000
H 	H 	0.74480 0.06300 0.20730 0.11200
H 	H 	0.54500 0.94050 0.14950 -0.05500
H 	H 	0.63910 0.06830 0.25480 -0.04900
H 	H 	0.43390 0.85040 0.60140 0.07800
H 	H 	0.05950 0.45500 0.14950 0.00800
H 	H 	0.85040 0.43390 0.39860 0.07800
H 	H 	0.25520 0.93700 0.79270 0.04500
H 	H 	0.93170 0.36090 0.74520 0.01100
H 	H 	0.56300 0.75520 0.70730 0.07900
H 	H 	0.06300 0.74480 0.79270 0.11500
H 	H 	0.93170 0.36090 0.25480 0.01000
H 	H 	0.35040 0.06610 0.89860 0.05000
H 	H 	0.36090 0.93170 0.74520 0.01100
H 	H 	0.93700 0.25520 0.20730 0.04400
H 	H 	0.35040 0.06610 0.10140 0.04200
H 	H 	0.56300 0.75520 0.29270 0.07800
H 	H 	0.13910 0.43170 0.75480 -0.02800
H 	H 	0.44050 0.95500 0.35050 -0.00900
H 	H 	0.43390 0.85040 0.39860 0.07800
H 	H 	0.55950 0.04500 0.35050 -0.03400
H 	H 	0.86090 0.56830 0.75480 -0.00900
H 	H 	0.54500 0.94050 0.85050 -0.05100
H 	H 	0.06300 0.74480 0.20730 0.11200
H 	H 	0.86090 0.56830 0.24520 -0.01100
H 	H 	0.14960 0.56610 0.39860 0.07800
H 	H 	0.43170 0.13910 0.24520 -0.03000
H 	H 	0.24480 0.43700 0.70730 0.08000
H 	H 	0.43700 0.24480 0.29270 0.07900
H 	H 	0.45500 0.05950 0.85050 0.01300
H 	H 	0.94050 0.54500 0.14950 -0.05500
H 	H 	0.63910 0.06830 0.74520 -0.04900
H 	H 	0.04500 0.55950 0.64950 -0.03500
H 	H 	0.04500 0.55950 0.35050 -0.03400
H 	H 	0.43170 0.13910 0.75480 -0.02800
C 	C 	0.00750 0.22660 0.88110 0.08700
C 	C 	0.58580 0.96510 0.16170 0.23600
C 	C 	0.72660 0.49250 0.61890 0.09600
C 	C 	0.27340 0.50750 0.38110 0.08900
C 	C 	0.14770 0.53840 0.36740 -0.16300
C 	C 	0.35890 0.95960 0.22370 0.02900
C 	C 	0.46200 0.20410 0.69530 -0.16000
C 	C 	0.08580 0.53490 0.66170 0.12700
C 	C 	0.91900 0.50310 0.70810 -0.25800
C 	C 	0.96160 0.64770 0.13260 -0.23500
C 	C 	0.46200 0.20410 0.30470 -0.16100
C 	C 	0.79280 0.49910 0.64950 0.05800
C 	C 	0.35230 0.03840 0.13260 -0.06800
C 	C 	0.58580 0.96510 0.83830 0.24200
C 	C 	0.46510 0.91420 0.33830 0.10800
C 	C 	0.99690 0.41900 0.79190 -0.17200
C 	C 	0.41420 0.03490 0.83830 -0.00700
C 	C 	0.27340 0.50750 0.61890 0.08900
C 	C 	0.99250 0.77340 0.11890 0.09800
C 	C 	0.14110 0.45960 0.27630 0.12100
C 	C 	0.85890 0.54040 0.27630 0.10600
C 	C 	0.85230 0.46160 0.63260 -0.14200
C 	C 	0.77340 0.99250 0.88110 0.10100
C 	C 	0.96510 0.58580 0.83830 0.24200
C 	C 	0.20410 0.46200 0.30470 -0.16100
C 	C 	0.49690 0.08100 0.29190 -0.30300
C 	C 	0.20410 0.46200 0.69530 -0.16000
C 	C 	0.29280 0.00090 0.14950 -0.04100
C 	C 	0.96160 0.64770 0.86740 -0.23700
C 	C 	0.20720 0.50090 0.64950 0.06600
C 	C 	0.96510 0.58580 0.16170 0.23600
C 	C 	0.49690 0.08100 0.70810 -0.30300
C 	C 	0.53840 0.14770 0.63260 -0.16300
C 	C 	0.70410 0.03800 0.19530 -0.26900
C 	C 	0.49250 0.72660 0.61890 0.09600
C 	C 	0.03840 0.35230 0.86740 -0.06600
C 	C 	0.41900 0.99690 0.20810 -0.17500
C 	C 	0.00090 0.29280 0.14950 -0.04100
C 	C 	0.53490 0.08580 0.66170 0.12700
C 	C 	0.50090 0.20720 0.64950 0.06600
C 	C 	0.04040 0.64110 0.77630 0.19900
C 	C 	0.35890 0.95960 0.77630 0.02900
C 	C 	0.08580 0.53490 0.33830 0.12700
C 	C 	0.85890 0.54040 0.72370 0.10600
C 	C 	0.22660 0.00750 0.88110 0.08700
C 	C 	0.14110 0.45960 0.72370 0.12200
C 	C 	0.00750 0.22660 0.11890 0.08400
C 	C 	0.46160 0.85230 0.36740 -0.14200
C 	C 	0.03840 0.35230 0.13260 -0.06800
C 	C 	0.91420 0.46510 0.33830 0.10800
C 	C 	0.29280 0.00090 0.85050 -0.03900
C 	C 	0.72660 0.49250 0.38110 0.09600
C 	C 	0.99910 0.70720 0.85050 0.16500
C 	C 	0.50090 0.20720 0.35050 0.06600
C 	C 	0.64110 0.04040 0.77630 0.19900
C 	C 	0.03800 0.70410 0.80470 -0.27200
C 	C 	0.58100 0.00310 0.79190 -0.38600
C 	C 	0.41420 0.03490 0.16170 -0.00700
C 	C 	0.03490 0.41420 0.83830 -0.00700
C 	C 	0.45960 0.14110 0.72370 0.12200
C 	C 	0.08100 0.49690 0.29190 -0.30300
C 	C 	0.70410 0.03800 0.80470 -0.27200
C 	C 	0.50310 0.91900 0.70810 -0.25800
C 	C 	0.54040 0.85890 0.27630 0.10600
C 	C 	0.49910 0.79280 0.64950 0.05800
C 	C 	0.22660 0.00750 0.11890 0.08400
C 	C 	0.45960 0.14110 0.27630 0.12100
C 	C 	0.20720 0.50090 0.35050 0.06600
C 	C 	0.00310 0.58100 0.79190 -0.38600
C 	C 	0.79590 0.53800 0.30470 -0.14200
C 	C 	0.50750 0.27340 0.61890 0.08900
C 	C 	0.53840 0.14770 0.36740 -0.16300
C 	C 	0.79590 0.53800 0.69530 -0.14100
C 	C 	0.53490 0.08580 0.33830 0.12700
C 	C 	0.54040 0.85890 0.72370 0.10600
C 	C 	0.03490 0.41420 0.16170 -0.00700
C 	C 	0.50310 0.91900 0.29190 -0.25900
C 	C 	0.91420 0.46510 0.66170 0.10800
C 	C 	0.53800 0.79590 0.69530 -0.14100
C 	C 	0.96200 0.29590 0.19530 -0.02900
C 	C 	0.77340 0.99250 0.11890 0.09800
C 	C 	0.08100 0.49690 0.70810 -0.30300
C 	C 	0.58100 0.00310 0.20810 -0.38500
C 	C 	0.03800 0.70410 0.19530 -0.26900
C 	C 	0.35230 0.03840 0.86740 -0.06600
C 	C 	0.53800 0.79590 0.30470 -0.14200
C 	C 	0.91900 0.50310 0.29190 -0.25900
C 	C 	0.99910 0.70720 0.14950 0.15800
C 	C 	0.29590 0.96200 0.80470 -0.02600
C 	C 	0.79280 0.49910 0.35050 0.05800
C 	C 	0.46160 0.85230 0.63260 -0.14200
C 	C 	0.50750 0.27340 0.38110 0.08900
C 	C 	0.64770 0.96160 0.13260 -0.23500
C 	C 	0.95960 0.35890 0.22370 0.02900
C 	C 	0.00090 0.29280 0.85050 -0.03900
C 	C 	0.00310 0.58100 0.20810 -0.38500
C 	C 	0.14770 0.53840 0.63260 -0.16300
C 	C 	0.64110 0.04040 0.22370 0.19500
C 	C 	0.29590 0.96200 0.19530 -0.02900
C 	C 	0.04040 0.64110 0.22370 0.19500
C 	C 	0.49250 0.72660 0.38110 0.09600
C 	C 	0.70720 0.99910 0.85050 0.16500
C 	C 	0.70720 0.99910 0.14950 0.15800
C 	C 	0.96200 0.29590 0.80470 -0.02600
C 	C 	0.41900 0.99690 0.79190 -0.17200
C 	C 	0.95960 0.35890 0.77630 0.02900
C 	C 	0.85230 0.46160 0.36740 -0.14200
C 	C 	0.49910 0.79280 0.35050 0.05800
C 	C 	0.99250 0.77340 0.88110 0.10100
C 	C 	0.64770 0.96160 0.86740 -0.23700
C 	C 	0.99690 0.41900 0.20810 -0.17500
C 	C 	0.46510 0.91420 0.66170 0.10800
N 	N 	0.48290 0.33560 0.63761 -0.11300
N 	N 	0.04210 0.22040 0.07498 -0.12300
N 	N 	0.49625 0.61720 0.60060 -0.18500
N 	N 	0.72040 0.45790 0.42502 -0.11400
N 	N 	0.72040 0.45790 0.57498 -0.11400
N 	N 	0.51710 0.66440 0.63761 -0.11200
N 	N 	0.53940 0.34870 0.43675 -0.18700
N 	N 	0.15130 0.03940 0.06325 -0.19400
N 	N 	0.77960 0.95790 0.92502 -0.10600
N 	N 	0.15130 0.03940 0.93675 -0.18300
N 	N 	0.95790 0.77960 0.92502 -0.10600
N 	N 	0.00375 0.11720 0.10060 -0.20900
N 	N 	0.66440 0.51710 0.36239 -0.11300
N 	N 	0.61720 0.49625 0.60060 -0.18500
N 	N 	0.48290 0.33560 0.36239 -0.11400
N 	N 	0.50375 0.38280 0.39940 -0.18600
N 	N 	0.83560 0.01710 0.13761 -0.14000
N 	N 	0.45790 0.72040 0.57498 -0.11400
N 	N 	0.51710 0.66440 0.36239 -0.11300
N 	N 	0.27960 0.54210 0.42502 -0.11600
N 	N 	0.99625 0.88280 0.89940 -0.14800
N 	N 	0.77960 0.95790 0.07498 -0.11500
N 	N 	0.01710 0.83560 0.13761 -0.14000
N 	N 	0.54210 0.27960 0.42502 -0.11600
N 	N 	0.46060 0.65130 0.43675 -0.18600
N 	N 	0.27960 0.54210 0.57498 -0.11600
N 	N 	0.16440 0.98290 0.13761 -0.08300
N 	N 	0.96060 0.84870 0.93675 -0.16900
N 	N 	0.22040 0.04210 0.92502 -0.11400
N 	N 	0.11720 0.00375 0.10060 -0.20900
N 	N 	0.65130 0.46060 0.56325 -0.18600
N 	N 	0.16440 0.98290 0.86239 -0.08000
N 	N 	0.54210 0.27960 0.57498 -0.11600
N 	N 	0.84870 0.96060 0.93675 -0.16900
N 	N 	0.01710 0.83560 0.86239 -0.13900
N 	N 	0.03940 0.15130 0.06325 -0.19400
N 	N 	0.34870 0.53940 0.43675 -0.18700
N 	N 	0.53940 0.34870 0.56325 -0.18700
N 	N 	0.84870 0.96060 0.06325 -0.18100
N 	N 	0.22040 0.04210 0.07498 -0.12300
N 	N 	0.38280 0.50375 0.60060 -0.18600
N 	N 	0.49625 0.61720 0.39940 -0.18500
N 	N 	0.95790 0.77960 0.07498 -0.11500
N 	N 	0.45790 0.72040 0.42502 -0.11400
N 	N 	0.33560 0.48290 0.63761 -0.11300
N 	N 	0.11720 0.00375 0.89940 -0.20600
N 	N 	0.04210 0.22040 0.92502 -0.11400
N 	N 	0.00375 0.11720 0.89940 -0.20600
N 	N 	0.88280 0.99625 0.10060 -0.15300
N 	N 	0.98290 0.16440 0.86239 -0.08000
N 	N 	0.96060 0.84870 0.06325 -0.18100
N 	N 	0.61720 0.49625 0.39940 -0.18500
N 	N 	0.99625 0.88280 0.10060 -0.15300
N 	N 	0.50375 0.38280 0.60060 -0.18600
N 	N 	0.03940 0.15130 0.93675 -0.18300
N 	N 	0.65130 0.46060 0.43675 -0.18600
N 	N 	0.34870 0.53940 0.56325 -0.18700
N 	N 	0.66440 0.51710 0.63761 -0.11200
N 	N 	0.98290 0.16440 0.13761 -0.08300
N 	N 	0.46060 0.65130 0.56325 -0.18600
N 	N 	0.38280 0.50375 0.39940 -0.18600
N 	N 	0.33560 0.48290 0.36239 -0.11400
N 	N 	0.83560 0.01710 0.86239 -0.13900
N 	N 	0.88280 0.99625 0.89940 -0.14800
Cl	Cl	0.50000 0.50000 0.50000 -0.86100
Cl	Cl	-0.00000 0.00000 -0.00000 -0.93500
