data_crystal

_cell_length_a 11.11200
_cell_length_b 11.11200
_cell_length_c 10.04000
_cell_angle_alpha 90.00000
_cell_angle_beta  90.00000
_cell_angle_gamma 120.00000

_symmetry_space_group_name_	'P 1'
_symmetry_space_group_name_H-M	'P 1'

loop_
_symmetry_equiv_pos_as_xyz
  x,y,z

loop_
_atom_site_label
_atom_site_type_symbol
_atom_site_fract_x
_atom_site_fract_y
_atom_site_fract_z
_atom_site_charge
V 	V 	0.49208 0.06352 0.02786 1.83200
P 	P 	0.22218 0.81621 0.89850 0.69000
K 	K 	0.77202 0.30682 0.75267 0.64300
O 	O 	0.29070 0.95180 0.97730 -0.54300
O 	O 	0.46830 0.10510 0.17330 -0.67700
O 	O 	0.19220 0.69440 0.98990 -0.58400
O 	O 	0.31440 0.81770 0.78680 -0.60400
O 	O 	0.50470 0.92420 0.04410 -0.65500
C 	C 	0.06430 0.79600 0.83530 -1.40000
H 	H 	0.01000 0.80600 0.88800 0.53200
H 	H 	0.07100 0.85100 0.75900 0.36200
H 	H 	0.02200 0.72000 0.77700 0.39300
V 	V 	0.93648 0.42856 0.36119 1.83200
P 	P 	0.18379 0.40597 0.23183 0.69300
K 	K 	0.69318 0.46520 0.08600 0.64100
O 	O 	0.04820 0.33890 0.31063 -0.53500
O 	O 	0.89490 0.36320 0.50663 -0.67700
O 	O 	0.30560 0.49780 0.32323 -0.58100
O 	O 	0.18230 0.49670 0.12013 -0.59900
O 	O 	0.07580 0.58050 0.37743 -0.65800
C 	C 	0.20400 0.26830 0.16863 -1.40700
H 	H 	0.19400 0.20400 0.22133 0.53800
H 	H 	0.14900 0.22000 0.09233 0.36600
H 	H 	0.28000 0.30200 0.11033 0.39500
V 	V 	0.57144 0.50792 0.69453 1.83400
P 	P 	0.59403 0.77782 0.56517 0.69200
K 	K 	0.53480 0.22798 0.41934 0.64200
O 	O 	0.66110 0.70930 0.64397 -0.53700
O 	O 	0.63680 0.53170 0.83997 -0.67600
O 	O 	0.50220 0.80780 0.65657 -0.58100
O 	O 	0.50330 0.68560 0.45347 -0.60300
O 	O 	0.41950 0.49530 0.71077 -0.66000
C 	C 	0.73170 0.93570 0.50197 -1.40600
H 	H 	0.79600 0.99000 0.55467 0.53700
H 	H 	0.78000 0.92900 0.42567 0.36500
H 	H 	0.69800 0.97800 0.44367 0.39600
V 	V 	0.06352 0.49208 0.97214 1.83200
P 	P 	0.81621 0.22218 0.10150 0.69000
K 	K 	0.30682 0.77202 0.24733 0.64300
O 	O 	0.95180 0.29070 0.02270 -0.54300
O 	O 	0.10510 0.46830 0.82670 -0.67700
O 	O 	0.69440 0.19220 0.01010 -0.58400
O 	O 	0.81770 0.31440 0.21320 -0.60400
O 	O 	0.92420 0.50470 0.95590 -0.65500
C 	C 	0.79600 0.06430 0.16470 -1.40000
H 	H 	0.80600 0.01000 0.11200 0.53200
H 	H 	0.85100 0.07100 0.24100 0.36200
H 	H 	0.72000 0.02200 0.22300 0.39300
V 	V 	0.42856 0.93648 0.63881 1.83200
P 	P 	0.40597 0.18379 0.76817 0.69300
K 	K 	0.46520 0.69318 0.91400 0.64100
O 	O 	0.33890 0.04820 0.68937 -0.53500
O 	O 	0.36320 0.89490 0.49337 -0.67700
O 	O 	0.49780 0.30560 0.67677 -0.58100
O 	O 	0.49670 0.18230 0.87987 -0.59900
O 	O 	0.58050 0.07580 0.62257 -0.65800
C 	C 	0.26830 0.20400 0.83137 -1.40700
H 	H 	0.20400 0.19400 0.77867 0.53800
H 	H 	0.22000 0.14900 0.90767 0.36600
H 	H 	0.30200 0.28000 0.88967 0.39500
V 	V 	0.50792 0.57144 0.30547 1.83400
P 	P 	0.77782 0.59403 0.43483 0.69200
K 	K 	0.22798 0.53480 0.58066 0.64200
O 	O 	0.70930 0.66110 0.35603 -0.53700
O 	O 	0.53170 0.63680 0.16003 -0.67600
O 	O 	0.80780 0.50220 0.34343 -0.58100
O 	O 	0.68560 0.50330 0.54653 -0.60300
O 	O 	0.49530 0.41950 0.28923 -0.66000
C 	C 	0.93570 0.73170 0.49803 -1.40600
H 	H 	0.99000 0.79600 0.44533 0.53700
H 	H 	0.92900 0.78000 0.57433 0.36500
H 	H 	0.97800 0.69800 0.55633 0.39600
