data_crystal

_cell_length_a 7.95390
_cell_length_b 7.95390
_cell_length_c 13.18900
_cell_angle_alpha 90.00000
_cell_angle_beta  90.00000
_cell_angle_gamma 90.00000

_symmetry_space_group_name_	'P 1'
_symmetry_space_group_name_H-M	'P 1'

loop_
_symmetry_equiv_pos_as_xyz
  x,y,z

loop_
_atom_site_label
_atom_site_type_symbol
_atom_site_fract_x
_atom_site_fract_y
_atom_site_fract_z
_atom_site_charge
Mn	Mn	0.53510 0.13538 0.84223 1.27800
Mn	Mn	0.46490 0.86462 0.34223 1.27400
Mn	Mn	0.86462 0.53510 0.09223 1.26000
Mn	Mn	0.13538 0.46490 0.59223 1.27400
H 	H 	0.61100 0.08450 0.65070 0.28700
H 	H 	0.70840 0.84600 0.63500 -0.03200
H 	H 	0.38900 0.75220 0.70940 0.17900
H 	H 	0.52320 0.61600 0.68160 0.18400
H 	H 	0.38900 0.91550 0.15070 0.28000
H 	H 	0.29160 0.15400 0.13500 -0.03900
H 	H 	0.61100 0.24780 0.20940 0.16400
H 	H 	0.47680 0.38400 0.18160 0.16800
H 	H 	0.91550 0.61100 0.90070 0.29200
H 	H 	0.15400 0.70840 0.88500 -0.04300
H 	H 	0.24780 0.38900 0.95940 0.20500
H 	H 	0.38400 0.52320 0.93160 0.21200
H 	H 	0.08450 0.38900 0.40070 0.28600
H 	H 	0.84600 0.29160 0.38500 -0.03300
H 	H 	0.75220 0.61100 0.45940 0.17700
H 	H 	0.61600 0.47680 0.43160 0.18300
C 	C 	0.70740 0.81010 0.79040 0.22200
C 	C 	0.62360 0.85300 0.68870 0.22000
C 	C 	0.48370 0.72820 0.66540 -0.53800
C 	C 	0.42370 0.72990 0.55720 0.54000
C 	C 	0.29260 0.18990 0.29040 0.22800
C 	C 	0.37640 0.14700 0.18870 0.20000
C 	C 	0.51630 0.27180 0.16540 -0.49900
C 	C 	0.57630 0.27010 0.05720 0.45800
C 	C 	0.18990 0.70740 0.04040 0.16600
C 	C 	0.14700 0.62360 0.93870 0.28000
C 	C 	0.27180 0.48370 0.91540 -0.58000
C 	C 	0.27010 0.42370 0.80720 0.55600
C 	C 	0.81010 0.29260 0.54040 0.22300
C 	C 	0.85300 0.37640 0.43870 0.21700
C 	C 	0.72820 0.51630 0.41540 -0.53700
C 	C 	0.72990 0.57630 0.30720 0.54100
O 	O 	0.79190 0.68030 0.79160 -0.28000
O 	O 	0.68260 0.90430 0.86432 -0.38700
O 	O 	0.32160 0.62090 0.52941 -0.55900
O 	O 	0.48370 0.83690 0.49940 -0.51100
O 	O 	0.55900 0.02040 0.69164 -0.57300
O 	O 	0.20810 0.31970 0.29160 -0.29100
O 	O 	0.31740 0.09570 0.36432 -0.40400
O 	O 	0.67840 0.37910 0.02941 -0.56600
O 	O 	0.51630 0.16310 0.99940 -0.44300
O 	O 	0.44100 0.97960 0.19164 -0.57200
O 	O 	0.31970 0.79190 0.04160 -0.29700
O 	O 	0.09570 0.68260 0.11432 -0.39800
O 	O 	0.37910 0.32160 0.77941 -0.56100
O 	O 	0.16310 0.48370 0.74940 -0.51500
O 	O 	0.97960 0.55900 0.94164 -0.56000
O 	O 	0.68030 0.20810 0.54160 -0.28700
O 	O 	0.90430 0.31740 0.61432 -0.40000
O 	O 	0.62090 0.67840 0.27941 -0.56200
O 	O 	0.83690 0.51630 0.24940 -0.51500
O 	O 	0.02040 0.44100 0.44164 -0.57200
