data_crystal

_cell_length_a 10.02200
_cell_length_b 14.33500
_cell_length_c 14.63600
_cell_angle_alpha 90.00000
_cell_angle_beta  90.00000
_cell_angle_gamma 90.00000

_symmetry_space_group_name_	'P 1'
_symmetry_space_group_name_H-M	'P 1'

loop_
_symmetry_equiv_pos_as_xyz
  x,y,z

loop_
_atom_site_label
_atom_site_type_symbol
_atom_site_fract_x
_atom_site_fract_y
_atom_site_fract_z
_atom_site_charge
O 	O 	0.82960 0.97210 0.45450 -0.55900
O 	O 	0.76050 0.09500 0.34330 -0.53900
O 	O 	0.82960 0.47210 0.95450 -0.55400
O 	O 	0.76050 0.59500 0.84330 -0.53700
O 	O 	0.32960 0.97210 0.95450 -0.55100
O 	O 	0.26050 0.09500 0.84330 -0.54000
O 	O 	0.32960 0.47210 0.45450 -0.55600
O 	O 	0.26050 0.59500 0.34330 -0.53700
O 	O 	0.92040 0.77790 0.45450 -0.55600
O 	O 	0.98950 0.65500 0.34330 -0.54000
O 	O 	0.92040 0.27790 0.95450 -0.55400
O 	O 	0.98950 0.15500 0.84330 -0.53500
O 	O 	0.42040 0.77790 0.95450 -0.55400
O 	O 	0.48950 0.65500 0.84330 -0.53800
O 	O 	0.42040 0.27790 0.45450 -0.55600
O 	O 	0.48950 0.15500 0.34330 -0.53700
O 	O 	0.92040 0.97210 0.29550 -0.56100
O 	O 	0.98950 0.09500 0.40670 -0.53800
O 	O 	0.92040 0.47210 0.79550 -0.55500
O 	O 	0.98950 0.59500 0.90670 -0.53500
O 	O 	0.42040 0.97210 0.79550 -0.55200
O 	O 	0.48950 0.09500 0.90670 -0.53900
O 	O 	0.42040 0.47210 0.29550 -0.55600
O 	O 	0.48950 0.59500 0.40670 -0.53800
O 	O 	0.82960 0.77790 0.29550 -0.55800
O 	O 	0.76050 0.65500 0.40670 -0.53800
O 	O 	0.82960 0.27790 0.79550 -0.55500
O 	O 	0.76050 0.15500 0.90670 -0.53800
O 	O 	0.32960 0.77790 0.79550 -0.55600
O 	O 	0.26050 0.65500 0.90670 -0.53900
O 	O 	0.32960 0.27790 0.29550 -0.55500
O 	O 	0.26050 0.15500 0.40670 -0.53700
O 	O 	0.17040 0.02790 0.54550 -0.55800
O 	O 	0.23950 0.90500 0.65670 -0.53800
O 	O 	0.17040 0.52790 0.04550 -0.55400
O 	O 	0.23950 0.40500 0.15670 -0.53700
O 	O 	0.67040 0.02790 0.04550 -0.55100
O 	O 	0.73950 0.90500 0.15670 -0.54000
O 	O 	0.67040 0.52790 0.54550 -0.55600
O 	O 	0.73950 0.40500 0.65670 -0.53700
O 	O 	0.07960 0.22210 0.54550 -0.55600
O 	O 	0.01050 0.34500 0.65670 -0.54000
O 	O 	0.07960 0.72210 0.04550 -0.55400
O 	O 	0.01050 0.84500 0.15670 -0.53500
O 	O 	0.57960 0.22210 0.04550 -0.55400
O 	O 	0.51050 0.34500 0.15670 -0.53800
O 	O 	0.57960 0.72210 0.54550 -0.55600
O 	O 	0.51050 0.84500 0.65670 -0.53700
O 	O 	0.07960 0.02790 0.70450 -0.56100
O 	O 	0.01050 0.90500 0.59330 -0.53800
O 	O 	0.07960 0.52790 0.20450 -0.55500
O 	O 	0.01050 0.40500 0.09330 -0.53500
O 	O 	0.57960 0.02790 0.20450 -0.55200
O 	O 	0.51050 0.90500 0.09330 -0.53900
O 	O 	0.57960 0.52790 0.70450 -0.55600
O 	O 	0.51050 0.40500 0.59330 -0.53800
O 	O 	0.17040 0.22210 0.70450 -0.55800
O 	O 	0.23950 0.34500 0.59330 -0.53800
O 	O 	0.17040 0.72210 0.20450 -0.55500
O 	O 	0.23950 0.84500 0.09330 -0.53800
O 	O 	0.67040 0.22210 0.20450 -0.55600
O 	O 	0.73950 0.34500 0.09330 -0.53900
O 	O 	0.67040 0.72210 0.70450 -0.55500
O 	O 	0.73950 0.84500 0.59330 -0.53700
P 	P 	0.87500 0.03280 0.37500 0.69900
P 	P 	0.87500 0.53280 0.87500 0.69400
P 	P 	0.37500 0.03280 0.87500 0.68600
P 	P 	0.37500 0.53280 0.37500 0.69400
P 	P 	0.87500 0.71720 0.37500 0.69400
P 	P 	0.87500 0.21720 0.87500 0.69400
P 	P 	0.37500 0.71720 0.87500 0.69400
P 	P 	0.37500 0.21720 0.37500 0.69400
P 	P 	0.12500 0.96720 0.62500 0.69900
P 	P 	0.12500 0.46720 0.12500 0.69400
P 	P 	0.62500 0.96720 0.12500 0.68600
P 	P 	0.62500 0.46720 0.62500 0.69400
P 	P 	0.12500 0.28280 0.62500 0.69400
P 	P 	0.12500 0.78280 0.12500 0.69400
P 	P 	0.62500 0.28280 0.12500 0.69400
P 	P 	0.62500 0.78280 0.62500 0.69400
Mg	Mg	0.87500 0.87500 0.52370 1.49300
Mg	Mg	0.87500 0.37500 0.02370 1.49200
Mg	Mg	0.37500 0.87500 0.02370 1.49300
Mg	Mg	0.37500 0.37500 0.52370 1.49300
Mg	Mg	0.87500 0.87500 0.22630 1.49300
Mg	Mg	0.87500 0.37500 0.72630 1.49300
Mg	Mg	0.37500 0.87500 0.72630 1.49300
Mg	Mg	0.37500 0.37500 0.22630 1.49300
Mg	Mg	0.12500 0.12500 0.47630 1.49300
Mg	Mg	0.12500 0.62500 0.97630 1.49200
Mg	Mg	0.62500 0.12500 0.97630 1.49300
Mg	Mg	0.62500 0.62500 0.47630 1.49300
Mg	Mg	0.12500 0.12500 0.77370 1.49300
Mg	Mg	0.12500 0.62500 0.27370 1.49300
Mg	Mg	0.62500 0.12500 0.27370 1.49300
Mg	Mg	0.62500 0.62500 0.77370 1.49300
