data_crystal

_cell_length_a 8.86900
_cell_length_b 12.07000
_cell_length_c 16.60000
_cell_angle_alpha 90.00000
_cell_angle_beta  90.00000
_cell_angle_gamma 109.34100

_symmetry_space_group_name_	'P 1'
_symmetry_space_group_name_H-M	'P 1'

loop_
_symmetry_equiv_pos_as_xyz
  x,y,z

loop_
_atom_site_label
_atom_site_type_symbol
_atom_site_fract_x
_atom_site_fract_y
_atom_site_fract_z
_atom_site_charge
Gd	Gd	0.43300 0.45267 0.88213 1.63900
Gd	Gd	0.06700 0.54733 0.38213 1.63800
Gd	Gd	0.56700 0.54733 0.11787 1.63900
Gd	Gd	0.93300 0.45267 0.61787 1.63800
H 	H 	0.90960 0.22510 0.82220 0.12300
H 	H 	0.52990 0.21990 0.43390 0.12400
H 	H 	0.37110 0.03580 0.43380 0.05700
H 	H 	0.37770 0.86090 0.53290 0.12200
H 	H 	0.75270 0.29510 0.07010 0.09700
H 	H 	0.47010 0.78010 0.56610 0.12400
H 	H 	0.62890 0.96420 0.56620 0.05700
H 	H 	0.74730 0.70490 0.57010 0.09800
H 	H 	0.32190 0.14100 0.90130 0.09200
H 	H 	0.40960 0.22510 0.67780 0.12300
H 	H 	0.02990 0.21990 0.06610 0.12300
H 	H 	0.48660 0.83370 0.92680 0.06100
H 	H 	0.40390 0.97440 0.77410 0.06200
H 	H 	0.12230 0.13910 0.03290 0.12100
H 	H 	0.70110 0.00400 0.91110 0.07800
H 	H 	0.79890 0.99600 0.41110 0.07800
H 	H 	0.87110 0.03580 0.06620 0.05500
H 	H 	0.90390 0.97440 0.72590 0.06300
H 	H 	0.09040 0.77490 0.17780 0.12300
H 	H 	0.09650 0.15290 0.69460 0.10200
H 	H 	0.01340 0.16630 0.42680 0.06100
H 	H 	0.67290 0.67860 0.33140 0.12200
H 	H 	0.87770 0.86090 0.96710 0.12100
H 	H 	0.17810 0.85900 0.40130 0.09100
H 	H 	0.24730 0.70490 0.92990 0.09700
H 	H 	0.17290 0.67860 0.16860 0.12200
H 	H 	0.82190 0.14100 0.59870 0.09100
H 	H 	0.61790 0.63870 0.50670 0.10900
H 	H 	0.29890 0.99600 0.08890 0.07800
H 	H 	0.20110 0.00400 0.58890 0.07800
H 	H 	0.67810 0.85900 0.09870 0.09200
H 	H 	0.90350 0.84710 0.30540 0.10200
H 	H 	0.51340 0.16630 0.07320 0.06100
H 	H 	0.88210 0.36130 0.00670 0.11000
H 	H 	0.40350 0.84710 0.19460 0.10200
H 	H 	0.98660 0.83370 0.57320 0.06100
H 	H 	0.32710 0.32140 0.66860 0.12200
H 	H 	0.09610 0.02560 0.27410 0.06300
H 	H 	0.12890 0.96420 0.93380 0.05500
H 	H 	0.59040 0.77490 0.32220 0.12300
H 	H 	0.62230 0.13910 0.46710 0.12200
H 	H 	0.97010 0.78010 0.93390 0.12300
H 	H 	0.59650 0.15290 0.80540 0.10200
H 	H 	0.25270 0.29510 0.42990 0.09800
H 	H 	0.59610 0.02560 0.22590 0.06200
H 	H 	0.82710 0.32140 0.83140 0.12200
H 	H 	0.38210 0.36130 0.49330 0.10900
H 	H 	0.11790 0.63870 0.99330 0.11000
C 	C 	0.93880 0.60950 0.20373 0.44700
C 	C 	0.86940 0.89730 0.49060 0.13400
C 	C 	0.27440 0.30670 0.48720 -0.23700
C 	C 	0.06120 0.39050 0.79627 0.44700
C 	C 	0.77520 0.83550 0.20400 0.18500
C 	C 	0.49130 0.90030 0.95630 -0.08500
C 	C 	0.50490 0.04710 0.33387 0.10200
C 	C 	0.98690 0.00860 0.76174 -0.05100
C 	C 	0.72480 0.16450 0.70400 0.18400
C 	C 	0.89780 0.88480 0.25721 -0.14200
C 	C 	0.50870 0.09970 0.04370 -0.08500
C 	C 	0.84110 0.63980 0.47648 0.44300
C 	C 	0.12020 0.00260 0.55290 -0.09700
C 	C 	0.49510 0.95290 0.66613 0.10200
C 	C 	0.62020 0.00260 0.94710 -0.09700
C 	C 	0.23650 0.10800 0.86659 -0.13500
C 	C 	0.01310 0.99140 0.23826 -0.05100
C 	C 	0.56120 0.39050 0.70373 0.44400
C 	C 	0.13060 0.10270 0.50940 0.13400
C 	C 	0.22560 0.69330 0.98720 -0.23500
C 	C 	0.00490 0.04710 0.16613 0.09900
C 	C 	0.09970 0.70380 0.20125 -0.24200
C 	C 	0.22970 0.69390 0.55629 0.47500
C 	C 	0.87860 0.99790 0.11405 -0.05400
C 	C 	0.27520 0.83550 0.29600 0.18400
C 	C 	0.51310 0.99140 0.26174 -0.04900
C 	C 	0.26350 0.89200 0.36659 -0.13200
C 	C 	0.37420 0.80110 0.57252 -0.25800
C 	C 	0.48690 0.00860 0.73826 -0.04900
C 	C 	0.73650 0.10800 0.63341 -0.13200
C 	C 	0.99130 0.90030 0.54370 -0.08300
C 	C 	0.87420 0.80110 0.92748 -0.25700
C 	C 	0.43880 0.60950 0.29627 0.44400
C 	C 	0.27030 0.30610 0.05629 0.47200
C 	C 	0.65890 0.36020 0.97648 0.44000
C 	C 	0.40030 0.29620 0.70125 -0.23900
C 	C 	0.72970 0.69390 0.94371 0.47200
C 	C 	0.00870 0.09970 0.45630 -0.08300
C 	C 	0.99510 0.95290 0.83387 0.09900
C 	C 	0.22480 0.16450 0.79600 0.18500
C 	C 	0.77440 0.30670 0.01280 -0.23500
C 	C 	0.62140 0.00210 0.61405 -0.06100
C 	C 	0.90030 0.29620 0.79875 -0.24200
C 	C 	0.36940 0.89730 0.00940 0.13500
C 	C 	0.37980 0.99740 0.05290 -0.09700
C 	C 	0.76350 0.89200 0.13341 -0.13500
C 	C 	0.59970 0.70380 0.29875 -0.23900
C 	C 	0.62580 0.19890 0.42748 -0.25800
C 	C 	0.60220 0.11520 0.75721 -0.14400
C 	C 	0.63060 0.10270 0.99060 0.13500
C 	C 	0.72560 0.69330 0.51280 -0.23700
C 	C 	0.12580 0.19890 0.07252 -0.25700
C 	C 	0.12140 0.00210 0.88595 -0.05400
C 	C 	0.37860 0.99790 0.38595 -0.06100
C 	C 	0.34110 0.63980 0.02352 0.44000
C 	C 	0.10220 0.11520 0.74279 -0.14200
C 	C 	0.15890 0.36020 0.52352 0.44300
C 	C 	0.87980 0.99740 0.44710 -0.09700
C 	C 	0.77030 0.30610 0.44371 0.47500
C 	C 	0.39780 0.88480 0.24279 -0.14400
O 	O 	0.64980 0.39939 0.64416 -0.43700
O 	O 	0.69700 0.67966 0.01703 -0.45500
O 	O 	0.65830 0.72594 0.21740 -0.26200
O 	O 	0.84050 0.37030 0.38634 -0.44000
O 	O 	0.13150 0.44200 0.48622 -0.50800
O 	O 	0.12640 0.15172 0.15065 -0.14900
O 	O 	0.37360 0.84828 0.65065 -0.14900
O 	O 	0.15950 0.62970 0.61366 -0.44000
O 	O 	0.36850 0.55800 0.98622 -0.50800
O 	O 	0.34050 0.37030 0.11366 -0.44000
O 	O 	0.59490 0.45523 0.76506 -0.43600
O 	O 	0.35020 0.60061 0.35584 -0.43700
O 	O 	0.09490 0.45523 0.73494 -0.43600
O 	O 	0.23350 0.80230 0.02227 -0.17200
O 	O 	0.62640 0.15172 0.34935 -0.14900
O 	O 	0.73350 0.80230 0.47773 -0.17100
O 	O 	0.84170 0.27406 0.71740 -0.26200
O 	O 	0.34170 0.27406 0.78260 -0.26200
O 	O 	0.63150 0.44200 0.01378 -0.50800
O 	O 	0.26650 0.19770 0.52227 -0.17100
O 	O 	0.65950 0.62970 0.88634 -0.44000
O 	O 	0.87360 0.84828 0.84935 -0.14900
O 	O 	0.76650 0.19770 0.97773 -0.17200
O 	O 	0.14980 0.39939 0.85584 -0.43700
O 	O 	0.09970 0.32850 0.59079 -0.40800
O 	O 	0.90030 0.67150 0.40921 -0.40800
O 	O 	0.30300 0.32034 0.98297 -0.45500
O 	O 	0.85020 0.60061 0.14416 -0.43700
O 	O 	0.19700 0.67966 0.48297 -0.45700
O 	O 	0.59970 0.32850 0.90921 -0.40800
O 	O 	0.40510 0.54477 0.23494 -0.43600
O 	O 	0.15830 0.72594 0.28260 -0.26200
O 	O 	0.86850 0.55800 0.51378 -0.50800
O 	O 	0.90510 0.54477 0.26506 -0.43600
O 	O 	0.40030 0.67150 0.09079 -0.40800
O 	O 	0.80300 0.32034 0.51703 -0.45700
