data_crystal

_cell_length_a 8.91740
_cell_length_b 12.11210
_cell_length_c 16.62620
_cell_angle_alpha 90.00000
_cell_angle_beta  90.00000
_cell_angle_gamma 109.36100

_symmetry_space_group_name_	'P 1'
_symmetry_space_group_name_H-M	'P 1'

loop_
_symmetry_equiv_pos_as_xyz
  x,y,z

loop_
_atom_site_label
_atom_site_type_symbol
_atom_site_fract_x
_atom_site_fract_y
_atom_site_fract_z
_atom_site_charge
Sm	Sm	0.43358 0.45228 0.11725 2.10300
Sm	Sm	0.06642 0.54772 0.61725 2.10200
Sm	Sm	0.56642 0.54772 0.88275 2.10200
Sm	Sm	0.93358 0.45228 0.38275 2.10100
H 	H 	0.52940 0.21850 0.56730 0.12600
H 	H 	0.90570 0.97430 0.27490 0.06100
H 	H 	0.59680 0.15310 0.19360 0.10200
H 	H 	0.99050 0.83540 0.42660 0.05300
H 	H 	0.97060 0.78150 0.06730 0.12500
H 	H 	0.41270 0.22460 0.32220 0.11900
H 	H 	0.37080 0.03480 0.56700 0.05500
H 	H 	0.70460 0.00500 0.08640 0.07700
H 	H 	0.62280 0.63860 0.48960 0.10000
H 	H 	0.49050 0.83540 0.07340 0.05300
H 	H 	0.90320 0.84690 0.69360 0.10100
H 	H 	0.67100 0.68060 0.66690 0.11400
H 	H 	0.62920 0.96520 0.43300 0.05500
H 	H 	0.50950 0.16460 0.92660 0.05300
H 	H 	0.82900 0.31940 0.16690 0.11400
H 	H 	0.62030 0.13740 0.53390 0.12600
H 	H 	0.87970 0.86260 0.03390 0.12500
H 	H 	0.32220 0.14210 0.09980 0.08800
H 	H 	0.00950 0.16460 0.57340 0.05300
H 	H 	0.37970 0.86260 0.46610 0.12600
H 	H 	0.24430 0.29510 0.57160 0.08600
H 	H 	0.12280 0.63860 0.01040 0.10000
H 	H 	0.79540 0.99500 0.58640 0.07700
H 	H 	0.29540 0.99500 0.91360 0.07700
H 	H 	0.12030 0.13740 0.96610 0.12500
H 	H 	0.12920 0.96520 0.06700 0.05300
H 	H 	0.02940 0.21850 0.93270 0.12500
H 	H 	0.09680 0.15310 0.30640 0.10100
H 	H 	0.87080 0.03480 0.93300 0.05300
H 	H 	0.32900 0.31940 0.33310 0.11400
H 	H 	0.25570 0.70490 0.07160 0.08600
H 	H 	0.17100 0.68060 0.83310 0.11400
H 	H 	0.08730 0.77540 0.82220 0.12000
H 	H 	0.40320 0.84690 0.80640 0.10200
H 	H 	0.17780 0.85790 0.59980 0.08700
H 	H 	0.58730 0.77540 0.67780 0.11900
H 	H 	0.67780 0.85790 0.90020 0.08800
H 	H 	0.75570 0.70490 0.42840 0.08600
H 	H 	0.20460 0.00500 0.41360 0.07700
H 	H 	0.74430 0.29510 0.92840 0.08600
H 	H 	0.87720 0.36140 0.98960 0.10000
H 	H 	0.09430 0.02570 0.72510 0.06100
H 	H 	0.47060 0.78150 0.43270 0.12600
H 	H 	0.82220 0.14210 0.40020 0.08700
H 	H 	0.40570 0.97430 0.22510 0.05900
H 	H 	0.37720 0.36140 0.51040 0.10000
H 	H 	0.91270 0.22460 0.17780 0.12000
H 	H 	0.59430 0.02570 0.77490 0.05900
C 	C 	0.65730 0.35850 0.02454 0.45600
C 	C 	0.23100 0.69630 0.44275 0.51900
C 	C 	0.12450 0.19710 0.92652 -0.27700
C 	C 	0.56090 0.39050 0.29692 0.47400
C 	C 	0.76900 0.30370 0.55725 0.51900
C 	C 	0.49380 0.90140 0.04385 -0.08100
C 	C 	0.87770 0.99680 0.55148 -0.09900
C 	C 	0.09820 0.70460 0.79960 -0.24200
C 	C 	0.37770 0.99680 0.94852 -0.09900
C 	C 	0.73100 0.69630 0.05725 0.51700
C 	C 	0.40180 0.29540 0.29960 -0.23800
C 	C 	0.86960 0.89730 0.50784 0.13300
C 	C 	0.48800 0.00890 0.26090 -0.04800
C 	C 	0.87550 0.80290 0.07348 -0.27700
C 	C 	0.37550 0.80290 0.42652 -0.27900
C 	C 	0.77440 0.83510 0.79495 0.19300
C 	C 	0.36960 0.89730 0.99216 0.13300
C 	C 	0.27000 0.30630 0.51480 -0.23400
C 	C 	0.62230 0.00320 0.05148 -0.09900
C 	C 	0.73000 0.69370 0.48520 -0.23400
C 	C 	0.90180 0.29540 0.20040 -0.24200
C 	C 	0.06090 0.39050 0.20308 0.47700
C 	C 	0.62200 0.00310 0.38520 -0.05800
C 	C 	0.99600 0.95420 0.16716 0.09400
C 	C 	0.72560 0.16490 0.29495 0.19300
C 	C 	0.60290 0.11560 0.24167 -0.15000
C 	C 	0.39710 0.88440 0.75833 -0.15000
C 	C 	0.50620 0.09860 0.95615 -0.08100
C 	C 	0.59820 0.70460 0.70040 -0.23800
C 	C 	0.76280 0.89100 0.86555 -0.14100
C 	C 	0.27440 0.83510 0.70505 0.19300
C 	C 	0.50400 0.04580 0.66716 0.09700
C 	C 	0.98800 0.00890 0.23910 -0.05300
C 	C 	0.00620 0.09860 0.54385 -0.07900
C 	C 	0.26280 0.89100 0.63445 -0.13900
C 	C 	0.89710 0.88440 0.74167 -0.14500
C 	C 	0.84270 0.64150 0.52454 0.45900
C 	C 	0.77000 0.30630 0.98520 -0.23100
C 	C 	0.13040 0.10270 0.49216 0.13300
C 	C 	0.87800 0.99690 0.88520 -0.05100
C 	C 	0.15730 0.35850 0.47546 0.45900
C 	C 	0.34270 0.64150 0.97546 0.45600
C 	C 	0.37800 0.99690 0.61480 -0.05800
C 	C 	0.62450 0.19710 0.57348 -0.27900
C 	C 	0.43910 0.60950 0.70308 0.47400
C 	C 	0.99380 0.90140 0.45615 -0.07900
C 	C 	0.73720 0.10900 0.36555 -0.13900
C 	C 	0.23720 0.10900 0.13445 -0.14100
C 	C 	0.01200 0.99110 0.76090 -0.05300
C 	C 	0.63040 0.10270 0.00784 0.13300
C 	C 	0.10290 0.11560 0.25833 -0.14500
C 	C 	0.12230 0.00320 0.44852 -0.09900
C 	C 	0.23000 0.69370 0.01480 -0.23100
C 	C 	0.22560 0.16490 0.20505 0.19300
C 	C 	0.51200 0.99110 0.73910 -0.04800
C 	C 	0.26900 0.30370 0.94275 0.51700
C 	C 	0.00400 0.04580 0.83284 0.09400
C 	C 	0.12200 0.00310 0.11480 -0.05100
C 	C 	0.49600 0.95420 0.33284 0.09700
C 	C 	0.93910 0.60950 0.79692 0.47700
O 	O 	0.35130 0.60002 0.64304 -0.50300
O 	O 	0.33960 0.36717 0.88552 -0.51500
O 	O 	0.37460 0.84973 0.34858 -0.14900
O 	O 	0.30150 0.31840 0.01605 -0.53100
O 	O 	0.66040 0.63283 0.11448 -0.51500
O 	O 	0.59450 0.45494 0.23584 -0.51400
O 	O 	0.76640 0.19746 0.01890 -0.17500
O 	O 	0.26640 0.19746 0.48110 -0.17300
O 	O 	0.37020 0.55767 0.01044 -0.60600
O 	O 	0.19850 0.68160 0.51605 -0.53300
O 	O 	0.62540 0.15027 0.65142 -0.14900
O 	O 	0.34140 0.27388 0.21865 -0.30600
O 	O 	0.09860 0.32355 0.40841 -0.45700
O 	O 	0.12980 0.44233 0.51044 -0.60700
O 	O 	0.84140 0.27388 0.28135 -0.30500
O 	O 	0.09450 0.45494 0.26416 -0.51400
O 	O 	0.65860 0.72612 0.78135 -0.30600
O 	O 	0.73360 0.80254 0.51890 -0.17300
O 	O 	0.59860 0.32355 0.09159 -0.45700
O 	O 	0.83960 0.36717 0.61448 -0.51500
O 	O 	0.23360 0.80254 0.98110 -0.17500
O 	O 	0.62980 0.44233 0.98956 -0.60600
O 	O 	0.64870 0.39998 0.35696 -0.50300
O 	O 	0.15860 0.72612 0.71865 -0.30500
O 	O 	0.80150 0.31840 0.48395 -0.53300
O 	O 	0.87460 0.84973 0.15142 -0.14900
O 	O 	0.40140 0.67645 0.90841 -0.45700
O 	O 	0.14870 0.39998 0.14304 -0.50300
O 	O 	0.69850 0.68160 0.98395 -0.53100
O 	O 	0.85130 0.60002 0.85696 -0.50300
O 	O 	0.12540 0.15027 0.84858 -0.14900
O 	O 	0.40550 0.54506 0.76416 -0.51400
O 	O 	0.90140 0.67645 0.59159 -0.45700
O 	O 	0.16040 0.63283 0.38552 -0.51500
O 	O 	0.87020 0.55767 0.48956 -0.60700
O 	O 	0.90550 0.54506 0.73584 -0.51400
