data_crystal

_cell_length_a 8.93220
_cell_length_b 12.15980
_cell_length_c 16.84360
_cell_angle_alpha 90.00000
_cell_angle_beta  90.00000
_cell_angle_gamma 109.04000

_symmetry_space_group_name_	'P 1'
_symmetry_space_group_name_H-M	'P 1'

loop_
_symmetry_equiv_pos_as_xyz
  x,y,z

loop_
_atom_site_label
_atom_site_type_symbol
_atom_site_fract_x
_atom_site_fract_y
_atom_site_fract_z
_atom_site_charge
Ce	Ce	0.56909 0.04839 0.88353 2.14300
Ce	Ce	0.43091 0.95161 0.11647 2.14300
Ce	Ce	0.06909 0.04839 0.61647 2.14000
Ce	Ce	0.93091 0.95161 0.38353 2.14000
H 	H 	0.32600 0.81480 0.33380 0.13200
H 	H 	0.08720 0.27770 0.82160 0.13600
H 	H 	0.09300 0.52610 0.72420 0.06100
H 	H 	0.29680 0.49690 0.91490 0.07700
H 	H 	0.47030 0.28310 0.43020 0.12700
H 	H 	0.58720 0.27770 0.67840 0.13500
H 	H 	0.09950 0.64850 0.30830 0.10500
H 	H 	0.88000 0.36410 0.03640 0.12700
H 	H 	0.98960 0.33680 0.42700 0.05900
H 	H 	0.17400 0.18520 0.83380 0.13300
H 	H 	0.79680 0.49690 0.58510 0.07800
H 	H 	0.20320 0.50310 0.41490 0.07800
H 	H 	0.12000 0.63590 0.96360 0.12700
H 	H 	0.52970 0.71690 0.56980 0.12700
H 	H 	0.91280 0.72230 0.17840 0.13600
H 	H 	0.75610 0.20630 0.42980 0.09000
H 	H 	0.12550 0.46910 0.06860 0.05200
H 	H 	0.02970 0.71690 0.93020 0.13000
H 	H 	0.31660 0.64350 0.10110 0.08900
H 	H 	0.40050 0.35150 0.80830 0.10600
H 	H 	0.24390 0.79370 0.57020 0.09000
H 	H 	0.74390 0.79370 0.92980 0.08400
H 	H 	0.90050 0.35150 0.69170 0.10500
H 	H 	0.41280 0.72230 0.32160 0.13500
H 	H 	0.48960 0.33680 0.07300 0.05800
H 	H 	0.81660 0.64350 0.39890 0.08900
H 	H 	0.70320 0.50310 0.08510 0.07700
H 	H 	0.01040 0.66320 0.57300 0.05900
H 	H 	0.90700 0.47390 0.27580 0.06100
H 	H 	0.62550 0.46910 0.43140 0.05200
H 	H 	0.97030 0.28310 0.06980 0.13000
H 	H 	0.51040 0.66320 0.92700 0.05800
H 	H 	0.87670 0.85810 0.99040 0.10300
H 	H 	0.25610 0.20630 0.07020 0.08400
H 	H 	0.59300 0.52610 0.77580 0.06000
H 	H 	0.82600 0.81480 0.16620 0.13300
H 	H 	0.62330 0.14190 0.49040 0.10900
H 	H 	0.37450 0.53090 0.56860 0.05200
H 	H 	0.12330 0.14190 0.00960 0.10300
H 	H 	0.38000 0.36410 0.46360 0.12500
H 	H 	0.37670 0.85810 0.50960 0.10900
H 	H 	0.59950 0.64850 0.19170 0.10600
H 	H 	0.87450 0.53090 0.93140 0.05200
H 	H 	0.40700 0.47390 0.22420 0.06000
H 	H 	0.68340 0.35650 0.89890 0.08900
H 	H 	0.62000 0.63590 0.53640 0.12500
H 	H 	0.18340 0.35650 0.60110 0.08900
H 	H 	0.67400 0.18520 0.66620 0.13200
C 	C 	0.27010 0.80340 0.51410 -0.23300
C 	C 	0.26680 0.39020 0.63581 -0.15100
C 	C 	0.49500 0.45480 0.33169 0.09400
C 	C 	0.39650 0.38690 0.75981 -0.14800
C 	C 	0.10350 0.61310 0.25981 -0.14400
C 	C 	0.87860 0.49810 0.55063 -0.09600
C 	C 	0.77680 0.33610 0.79333 0.18300
C 	C 	0.94370 0.11150 0.79830 0.45100
C 	C 	0.11910 0.50540 0.11648 -0.04600
C 	C 	0.60040 0.20730 0.69983 -0.26700
C 	C 	0.99320 0.40230 0.45637 -0.08100
C 	C 	0.38090 0.49460 0.61648 -0.04600
C 	C 	0.89650 0.38690 0.74019 -0.14400
C 	C 	0.73320 0.60980 0.36419 -0.15100
C 	C 	0.12440 0.69520 0.92431 -0.27000
C 	C 	0.23320 0.60980 0.13581 -0.15100
C 	C 	0.60350 0.61310 0.24019 -0.14800
C 	C 	0.77010 0.80340 0.98590 -0.21200
C 	C 	0.65690 0.85420 0.02643 0.40000
C 	C 	0.73190 0.19950 0.05983 0.48300
C 	C 	0.76810 0.80050 0.55983 0.47600
C 	C 	0.01130 0.49170 0.75971 -0.04800
C 	C 	0.88090 0.49460 0.88352 -0.04600
C 	C 	0.98870 0.50830 0.24029 -0.04800
C 	C 	0.86900 0.39890 0.50705 0.13400
C 	C 	0.26810 0.80050 0.94017 0.48300
C 	C 	0.00500 0.54520 0.83169 0.09400
C 	C 	0.22320 0.66390 0.20667 0.18300
C 	C 	0.27680 0.33610 0.70667 0.18400
C 	C 	0.15690 0.85420 0.47357 0.41900
C 	C 	0.51130 0.49170 0.74029 -0.04300
C 	C 	0.48870 0.50830 0.25971 -0.04300
C 	C 	0.89960 0.79270 0.19983 -0.27700
C 	C 	0.72990 0.19660 0.48590 -0.23300
C 	C 	0.72320 0.66390 0.29333 0.18400
C 	C 	0.84310 0.14580 0.52643 0.41900
C 	C 	0.62440 0.69520 0.57569 -0.26700
C 	C 	0.50680 0.59770 0.95637 -0.08000
C 	C 	0.10040 0.20730 0.80017 -0.27700
C 	C 	0.13100 0.60110 0.49295 0.13400
C 	C 	0.55630 0.88850 0.29830 0.44300
C 	C 	0.05630 0.88850 0.20170 0.45100
C 	C 	0.37860 0.49810 0.94937 -0.09600
C 	C 	0.63100 0.60110 0.00705 0.13300
C 	C 	0.12140 0.50190 0.44937 -0.09600
C 	C 	0.62140 0.50190 0.05063 -0.09600
C 	C 	0.44370 0.11150 0.70170 0.44300
C 	C 	0.23190 0.19950 0.44017 0.47600
C 	C 	0.00680 0.59770 0.54363 -0.08100
C 	C 	0.36900 0.39890 0.99295 0.13300
C 	C 	0.39960 0.79270 0.30017 -0.26700
C 	C 	0.87560 0.30480 0.07569 -0.27000
C 	C 	0.34310 0.14580 0.97357 0.40000
C 	C 	0.76680 0.39020 0.86419 -0.15100
C 	C 	0.50500 0.54520 0.66831 0.09400
C 	C 	0.49320 0.40230 0.04363 -0.08000
C 	C 	0.99500 0.45480 0.16831 0.09400
C 	C 	0.37560 0.30480 0.42431 -0.26700
C 	C 	0.22990 0.19660 0.01410 -0.21200
C 	C 	0.61910 0.50540 0.38352 -0.04600
O 	O 	0.59100 0.95234 0.23763 -0.51200
O 	O 	0.83900 0.86256 0.61652 -0.50500
O 	O 	0.16130 0.22787 0.72035 -0.30600
O 	O 	0.23260 0.30525 0.98246 -0.17600
O 	O 	0.64230 0.90015 0.35822 -0.50000
O 	O 	0.37410 0.35174 0.34735 -0.14700
O 	O 	0.33870 0.77213 0.22035 -0.30500
O 	O 	0.40290 0.18343 0.90847 -0.44500
O 	O 	0.86700 0.05950 0.49314 -0.60800
O 	O 	0.12590 0.64826 0.84735 -0.14500
O 	O 	0.09100 0.95234 0.26237 -0.50700
O 	O 	0.66100 0.13744 0.11652 -0.50300
O 	O 	0.63300 0.94050 0.99314 -0.60200
O 	O 	0.83870 0.77213 0.27965 -0.30600
O 	O 	0.76740 0.69475 0.01754 -0.17600
O 	O 	0.79930 0.81782 0.48774 -0.53000
O 	O 	0.70070 0.18218 0.98774 -0.53300
O 	O 	0.85770 0.09985 0.85822 -0.50000
O 	O 	0.16100 0.13744 0.38348 -0.50500
O 	O 	0.20070 0.18218 0.51226 -0.53000
O 	O 	0.33900 0.86256 0.88348 -0.50300
O 	O 	0.90900 0.04766 0.73763 -0.50700
O 	O 	0.14230 0.90015 0.14178 -0.50000
O 	O 	0.40900 0.04766 0.76237 -0.51200
O 	O 	0.73260 0.30525 0.51754 -0.16800
O 	O 	0.13300 0.94050 0.50686 -0.60800
O 	O 	0.59710 0.81657 0.09153 -0.44500
O 	O 	0.66130 0.22787 0.77965 -0.30500
O 	O 	0.87410 0.35174 0.15265 -0.14500
O 	O 	0.90290 0.18343 0.59153 -0.44600
O 	O 	0.09710 0.81657 0.40847 -0.44600
O 	O 	0.29930 0.81782 0.01226 -0.53300
O 	O 	0.62590 0.64826 0.65265 -0.14700
O 	O 	0.36700 0.05950 0.00686 -0.60200
O 	O 	0.26740 0.69475 0.48246 -0.16800
O 	O 	0.35770 0.09985 0.64178 -0.50000
