data_crystal

_cell_length_a 9.14320
_cell_length_b 9.14320
_cell_length_c 14.77300
_cell_angle_alpha 100.12100
_cell_angle_beta  100.12200
_cell_angle_gamma 115.60200

_symmetry_space_group_name_	'P 1'
_symmetry_space_group_name_H-M	'P 1'

loop_
_symmetry_equiv_pos_as_xyz
  x,y,z

loop_
_atom_site_label
_atom_site_type_symbol
_atom_site_fract_x
_atom_site_fract_y
_atom_site_fract_z
_atom_site_charge
Pr	Pr	0.50919 0.25919 0.51838 2.04300
Pr	Pr	0.74081 0.49081 0.98162 2.04300
Pr	Pr	0.49081 0.74081 0.48162 2.04300
Pr	Pr	0.25919 0.50919 0.01838 2.04300
H 	H 	0.86800 0.31200 0.43000 0.05700
H 	H 	0.06200 0.11800 0.43000 0.05700
H 	H 	0.68800 0.13200 0.07000 0.05800
H 	H 	0.88200 0.93800 0.07000 0.05800
H 	H 	0.13200 0.68800 0.57000 0.05700
H 	H 	0.93800 0.88200 0.57000 0.05700
H 	H 	0.31200 0.86800 0.93000 0.05800
H 	H 	0.11800 0.06200 0.93000 0.05800
C 	C 	0.74899 0.06039 0.44158 0.37800
C 	C 	0.89398 0.21378 0.43516 -0.12500
C 	C 	0.19259 0.38119 0.44158 0.37900
C 	C 	0.04118 0.22138 0.43516 -0.12400
C 	C 	0.93961 0.25101 0.05842 0.38400
C 	C 	0.78622 0.10602 0.06484 -0.12800
C 	C 	0.61881 0.80741 0.05842 0.37900
C 	C 	0.77862 0.95882 0.06484 -0.12100
C 	C 	0.25101 0.93961 0.55842 0.37800
C 	C 	0.10602 0.78622 0.56484 -0.12500
C 	C 	0.80741 0.61881 0.55842 0.37900
C 	C 	0.95882 0.77862 0.56484 -0.12400
C 	C 	0.06039 0.74899 0.94158 0.38400
C 	C 	0.21378 0.89398 0.93516 -0.12800
C 	C 	0.38119 0.19259 0.94158 0.37900
C 	C 	0.22138 0.04118 0.93516 -0.12100
C 	C 	0.67550 0.32450 0.75000 0.25300
C 	C 	0.57450 0.42550 0.75000 0.25300
C 	C 	0.32450 0.67550 0.25000 0.25300
C 	C 	0.42550 0.57450 0.25000 0.25300
O 	O 	0.66071 0.23791 0.67042 -0.42100
O 	O 	0.63375 0.08169 0.46684 -0.59700
O 	O 	0.74221 0.91735 0.42416 -0.44200
O 	O 	0.50971 0.43251 0.67042 -0.42000
O 	O 	0.33309 0.38515 0.46684 -0.59700
O 	O 	0.18195 0.50681 0.42416 -0.44400
O 	O 	0.76209 0.33929 0.82958 -0.42200
O 	O 	0.91831 0.36625 0.03316 -0.59500
O 	O 	0.08265 0.25779 0.07584 -0.44800
O 	O 	0.56749 0.49029 0.82958 -0.42000
O 	O 	0.61485 0.66691 0.03316 -0.59500
O 	O 	0.49319 0.81805 0.07584 -0.44300
O 	O 	0.33929 0.76209 0.32958 -0.42100
O 	O 	0.36625 0.91831 0.53316 -0.59700
O 	O 	0.25779 0.08265 0.57584 -0.44200
O 	O 	0.49029 0.56749 0.32958 -0.42000
O 	O 	0.66691 0.61485 0.53316 -0.59700
O 	O 	0.81805 0.49319 0.57584 -0.44400
O 	O 	0.23791 0.66071 0.17042 -0.42200
O 	O 	0.08169 0.63375 0.96684 -0.59500
O 	O 	0.91735 0.74221 0.92416 -0.44800
O 	O 	0.43251 0.50971 0.17042 -0.42000
O 	O 	0.38515 0.33309 0.96684 -0.59500
O 	O 	0.50681 0.18195 0.92416 -0.44300
