data_crystal

_cell_length_a 9.13040
_cell_length_b 9.13040
_cell_length_c 14.70990
_cell_angle_alpha 100.16900
_cell_angle_beta  100.16900
_cell_angle_gamma 115.53900

_symmetry_space_group_name_	'P 1'
_symmetry_space_group_name_H-M	'P 1'

loop_
_symmetry_equiv_pos_as_xyz
  x,y,z

loop_
_atom_site_label
_atom_site_type_symbol
_atom_site_fract_x
_atom_site_fract_y
_atom_site_fract_z
_atom_site_charge
Nd	Nd	0.74060 0.99060 0.98120 2.08100
Nd	Nd	0.50940 0.75940 0.51880 2.10000
Nd	Nd	0.25940 0.00940 0.01880 2.08200
Nd	Nd	0.49060 0.24060 0.48120 2.10100
H 	H 	0.30200 0.36400 0.92600 0.05500
H 	H 	0.12400 0.56200 0.92600 0.05400
H 	H 	0.13600 0.19800 0.57400 0.05500
H 	H 	0.93800 0.37600 0.57400 0.05300
H 	H 	0.69800 0.63600 0.07400 0.05500
H 	H 	0.87600 0.43800 0.07400 0.05400
H 	H 	0.86400 0.80200 0.42600 0.05500
H 	H 	0.06200 0.62400 0.42600 0.05300
C 	C 	0.06092 0.24792 0.94164 0.41600
C 	C 	0.21371 0.39411 0.93502 -0.13900
C 	C 	0.38072 0.69372 0.94164 0.41800
C 	C 	0.22131 0.54091 0.93502 -0.14100
C 	C 	0.25208 0.43908 0.55836 0.42000
C 	C 	0.10589 0.28629 0.56498 -0.14300
C 	C 	0.80628 0.11928 0.55836 0.42300
C 	C 	0.95909 0.27869 0.56498 -0.13800
C 	C 	0.93908 0.75208 0.05836 0.41600
C 	C 	0.78629 0.60589 0.06498 -0.13900
C 	C 	0.61928 0.30628 0.05836 0.41800
C 	C 	0.77869 0.45909 0.06498 -0.14100
C 	C 	0.74792 0.56092 0.44164 0.42000
C 	C 	0.89411 0.71371 0.43502 -0.14300
C 	C 	0.19372 0.88072 0.44164 0.42300
C 	C 	0.04091 0.72131 0.43502 -0.13800
C 	C 	0.67530 0.82470 0.75000 0.27600
C 	C 	0.57470 0.92530 0.75000 0.27600
C 	C 	0.32470 0.17530 0.25000 0.27600
C 	C 	0.42530 0.07470 0.25000 0.27600
O 	O 	0.76229 0.83907 0.82996 -0.44200
O 	O 	0.91736 0.23942 0.92398 -0.46400
O 	O 	0.08431 0.13427 0.96738 -0.60200
O 	O 	0.56767 0.99089 0.82996 -0.44000
O 	O 	0.50662 0.68456 0.92398 -0.46800
O 	O 	0.38307 0.83311 0.96738 -0.60700
O 	O 	0.66093 0.73771 0.67004 -0.44200
O 	O 	0.26058 0.58264 0.57602 -0.47000
O 	O 	0.36573 0.41569 0.53262 -0.61000
O 	O 	0.50911 0.93233 0.67004 -0.44000
O 	O 	0.81544 0.99338 0.57602 -0.47200
O 	O 	0.66689 0.11693 0.53262 -0.61000
O 	O 	0.23771 0.16093 0.17004 -0.44200
O 	O 	0.08264 0.76058 0.07602 -0.46400
O 	O 	0.91569 0.86573 0.03262 -0.60200
O 	O 	0.43233 0.00911 0.17004 -0.44000
O 	O 	0.49338 0.31544 0.07602 -0.46800
O 	O 	0.61693 0.16689 0.03262 -0.60700
O 	O 	0.33907 0.26229 0.32996 -0.44200
O 	O 	0.73942 0.41736 0.42398 -0.47000
O 	O 	0.63427 0.58431 0.46738 -0.61000
O 	O 	0.49089 0.06767 0.32996 -0.44000
O 	O 	0.18456 0.00662 0.42398 -0.47200
O 	O 	0.33311 0.88307 0.46738 -0.61000
