data_crystal

_cell_length_a 8.75190
_cell_length_b 12.02800
_cell_length_c 16.73630
_cell_angle_alpha 90.00000
_cell_angle_beta  90.00000
_cell_angle_gamma 108.93200

_symmetry_space_group_name_	'P 1'
_symmetry_space_group_name_H-M	'P 1'

loop_
_symmetry_equiv_pos_as_xyz
  x,y,z

loop_
_atom_site_label
_atom_site_type_symbol
_atom_site_fract_x
_atom_site_fract_y
_atom_site_fract_z
_atom_site_charge
Tb	Tb	0.57129 0.04760 0.88099 1.95700
Tb	Tb	0.92871 0.95240 0.38099 1.94900
Tb	Tb	0.07129 0.04760 0.61901 1.94900
Tb	Tb	0.42871 0.95240 0.11901 1.95700
H 	H 	0.31940 0.82110 0.32710 0.12000
H 	H 	0.97450 0.32980 0.42880 0.05700
H 	H 	0.22400 0.21050 0.06330 0.09700
H 	H 	0.39960 0.47020 0.22800 0.06200
H 	H 	0.13290 0.64270 0.96720 0.12900
H 	H 	0.89960 0.47020 0.27200 0.06300
H 	H 	0.87780 0.53630 0.93610 0.05600
H 	H 	0.39430 0.85530 0.49560 0.11900
H 	H 	0.02550 0.67020 0.57120 0.05700
H 	H 	0.90680 0.35150 0.69630 0.09700
H 	H 	0.18340 0.35930 0.59580 0.08500
H 	H 	0.40220 0.72320 0.32080 0.12400
H 	H 	0.36710 0.35730 0.46720 0.12800
H 	H 	0.80890 0.50250 0.59410 0.07900
H 	H 	0.37780 0.53630 0.56390 0.05600
H 	H 	0.09780 0.27680 0.82080 0.12600
H 	H 	0.59780 0.27680 0.67920 0.12400
H 	H 	0.19110 0.49750 0.40590 0.07900
H 	H 	0.10040 0.52980 0.72800 0.06300
H 	H 	0.81940 0.82110 0.17290 0.12100
H 	H 	0.46830 0.28030 0.43550 0.12600
H 	H 	0.03170 0.71970 0.93550 0.12900
H 	H 	0.72400 0.21050 0.43670 0.10900
H 	H 	0.10570 0.14470 0.99560 0.10000
H 	H 	0.68340 0.35930 0.90420 0.08600
H 	H 	0.27600 0.78950 0.56330 0.10900
H 	H 	0.77600 0.78950 0.93670 0.09700
H 	H 	0.40680 0.35150 0.80370 0.09800
H 	H 	0.18060 0.17890 0.82710 0.12100
H 	H 	0.60040 0.52980 0.77200 0.06200
H 	H 	0.69110 0.49750 0.09410 0.07900
H 	H 	0.31660 0.64070 0.09580 0.08600
H 	H 	0.52550 0.67020 0.92880 0.05600
H 	H 	0.53170 0.71970 0.56450 0.12600
H 	H 	0.09320 0.64850 0.30370 0.09700
H 	H 	0.59320 0.64850 0.19630 0.09800
H 	H 	0.62220 0.46370 0.43610 0.05600
H 	H 	0.81660 0.64070 0.40420 0.08500
H 	H 	0.68060 0.17890 0.67290 0.12000
H 	H 	0.12220 0.46370 0.06390 0.05600
H 	H 	0.90220 0.72320 0.17920 0.12600
H 	H 	0.86710 0.35730 0.03280 0.12900
H 	H 	0.96830 0.28030 0.06450 0.12900
H 	H 	0.60570 0.14470 0.50440 0.11900
H 	H 	0.47450 0.32980 0.07120 0.05600
H 	H 	0.63290 0.64270 0.53280 0.12800
H 	H 	0.30890 0.50250 0.90590 0.07900
H 	H 	0.89430 0.85530 0.00440 0.10000
C 	C 	0.73180 0.60690 0.36907 -0.13500
C 	C 	0.88410 0.49910 0.88806 -0.05900
C 	C 	0.98270 0.50490 0.23630 -0.05800
C 	C 	0.27830 0.33770 0.70155 0.18800
C 	C 	0.77830 0.33770 0.79845 0.18800
C 	C 	0.86890 0.29830 0.07194 -0.28500
C 	C 	0.51730 0.49510 0.73630 -0.05300
C 	C 	0.49040 0.45040 0.33535 0.10000
C 	C 	0.61590 0.50090 0.38806 -0.06100
C 	C 	0.78600 0.80250 0.99400 -0.23600
C 	C 	0.16670 0.86160 0.48020 0.52300
C 	C 	0.86860 0.39970 0.51380 0.13000
C 	C 	0.39440 0.79420 0.29622 -0.24600
C 	C 	0.26820 0.39310 0.63093 -0.13500
C 	C 	0.51570 0.60190 0.95740 -0.07900
C 	C 	0.88580 0.50140 0.55600 -0.10100
C 	C 	0.77300 0.81170 0.55718 0.52200
C 	C 	0.59840 0.61160 0.24461 -0.14300
C 	C 	0.05780 0.88760 0.20589 0.48100
C 	C 	0.44220 0.11240 0.70589 0.47300
C 	C 	0.55780 0.88760 0.29411 0.47300
C 	C 	0.50960 0.54960 0.66465 0.10000
C 	C 	0.48430 0.39810 0.04260 -0.07900
C 	C 	0.72170 0.66230 0.29845 0.18800
C 	C 	0.98430 0.39810 0.45740 -0.08000
C 	C 	0.28600 0.80250 0.50600 -0.27800
C 	C 	0.11420 0.49860 0.44400 -0.10100
C 	C 	0.13110 0.70170 0.92806 -0.28500
C 	C 	0.33330 0.13840 0.98020 0.49700
C 	C 	0.90160 0.38840 0.74461 -0.13800
C 	C 	0.36860 0.39970 0.98620 0.13000
C 	C 	0.63110 0.70170 0.57194 -0.28100
C 	C 	0.40160 0.38840 0.75539 -0.14300
C 	C 	0.01730 0.49510 0.76370 -0.05800
C 	C 	0.38580 0.50140 0.94400 -0.10100
C 	C 	0.27300 0.81170 0.94282 0.53000
C 	C 	0.61420 0.49860 0.05600 -0.10100
C 	C 	0.23180 0.60690 0.13093 -0.13500
C 	C 	0.94220 0.11240 0.79411 0.48100
C 	C 	0.48270 0.50490 0.26370 -0.05300
C 	C 	0.22700 0.18830 0.44282 0.52200
C 	C 	0.71400 0.19750 0.49400 -0.27800
C 	C 	0.22170 0.66230 0.20155 0.18800
C 	C 	0.10560 0.20580 0.79622 -0.25600
C 	C 	0.21400 0.19750 0.00600 -0.23600
C 	C 	0.00960 0.54960 0.83535 0.10000
C 	C 	0.99040 0.45040 0.16465 0.10000
C 	C 	0.76820 0.39310 0.86907 -0.13500
C 	C 	0.89440 0.79420 0.20378 -0.25600
C 	C 	0.38410 0.49910 0.61194 -0.06100
C 	C 	0.66670 0.86160 0.01980 0.49700
C 	C 	0.09840 0.61160 0.25539 -0.13800
C 	C 	0.72700 0.18830 0.05718 0.53000
C 	C 	0.83330 0.13840 0.51980 0.52300
C 	C 	0.13140 0.60030 0.48620 0.13000
C 	C 	0.63140 0.60030 0.01380 0.13000
C 	C 	0.36890 0.29830 0.42806 -0.28100
C 	C 	0.11590 0.50090 0.11194 -0.05900
C 	C 	0.01570 0.60190 0.54260 -0.08000
C 	C 	0.60560 0.20580 0.70378 -0.24600
O 	O 	0.73290 0.30630 0.53220 -0.16300
O 	O 	0.14220 0.93410 0.52630 -0.58000
O 	O 	0.86830 0.34513 0.14954 -0.14700
O 	O 	0.69500 0.17180 0.98436 -0.52900
O 	O 	0.89640 0.16020 0.58661 -0.47900
O 	O 	0.35780 0.06590 0.02630 -0.57200
O 	O 	0.10360 0.83980 0.41339 -0.47900
O 	O 	0.15840 0.12470 0.38593 -0.50600
O 	O 	0.85780 0.06590 0.47370 -0.58000
O 	O 	0.26710 0.69370 0.46780 -0.16300
O 	O 	0.85470 0.10266 0.85418 -0.48900
O 	O 	0.13170 0.65487 0.85046 -0.14700
O 	O 	0.36830 0.34513 0.35046 -0.14800
O 	O 	0.80500 0.82820 0.48436 -0.52500
O 	O 	0.30500 0.82820 0.01564 -0.52900
O 	O 	0.64530 0.89734 0.35418 -0.48900
O 	O 	0.60360 0.83980 0.08661 -0.47700
O 	O 	0.65840 0.12470 0.11407 -0.50400
O 	O 	0.14530 0.89734 0.14582 -0.48900
O 	O 	0.84160 0.87530 0.61407 -0.50600
O 	O 	0.76710 0.69370 0.03220 -0.17500
O 	O 	0.40560 0.05010 0.76750 -0.49300
O 	O 	0.90560 0.05010 0.73250 -0.48900
O 	O 	0.83900 0.77103 0.28508 -0.29000
O 	O 	0.59440 0.94990 0.23250 -0.49300
O 	O 	0.23290 0.30630 0.96780 -0.17500
O 	O 	0.63170 0.65487 0.64954 -0.14800
O 	O 	0.39640 0.16020 0.91339 -0.47700
O 	O 	0.34160 0.87530 0.88593 -0.50400
O 	O 	0.66100 0.22897 0.78508 -0.29000
O 	O 	0.64220 0.93410 0.97370 -0.57200
O 	O 	0.09440 0.94990 0.26750 -0.48900
O 	O 	0.35470 0.10266 0.64582 -0.48900
O 	O 	0.33900 0.77103 0.21492 -0.29000
O 	O 	0.19500 0.17180 0.51564 -0.52500
O 	O 	0.16100 0.22897 0.71492 -0.29000
