data_crystal

_cell_length_a 9.48060
_cell_length_b 18.12700
_cell_length_c 18.69300
_cell_angle_alpha 61.88000
_cell_angle_beta  83.98000
_cell_angle_gamma 86.35000

_symmetry_space_group_name_	'P 1'
_symmetry_space_group_name_H-M	'P 1'

loop_
_symmetry_equiv_pos_as_xyz
  x,y,z

loop_
_atom_site_label
_atom_site_type_symbol
_atom_site_fract_x
_atom_site_fract_y
_atom_site_fract_z
_atom_site_charge
Zn	Zn	0.34168 0.08069 0.64248 1.22100
Zn	Zn	0.51099 0.50034 0.74484 1.20700
Zn	Zn	0.65832 0.91931 0.35752 1.22100
Zn	Zn	0.64357 0.07187 0.12946 1.21900
Zn	Zn	0.35643 0.92813 0.87054 1.21900
Zn	Zn	0.48901 0.49966 0.25516 1.20700
H 	H 	0.11420 0.04460 0.89500 0.06100
H 	H 	0.43290 0.59310 0.49800 0.31400
H 	H 	0.82520 0.89350 0.58970 0.04600
H 	H 	0.06400 0.86020 0.59540 0.03100
H 	H 	0.26890 0.42900 0.69580 0.03700
H 	H 	0.76440 0.31600 0.54740 0.04500
H 	H 	0.45700 0.26250 0.17540 -0.00000
H 	H 	0.09800 0.20900 0.94380 0.07000
H 	H 	0.26770 0.99640 0.39110 0.06400
H 	H 	0.47870 0.72850 0.32670 -0.00300
H 	H 	0.26890 0.19170 0.04240 0.04200
H 	H 	0.03720 0.61610 0.84250 0.03000
H 	H 	0.46880 0.34360 0.49680 0.31900
H 	H 	0.37930 0.23970 0.06110 0.03600
H 	H 	0.45830 0.43920 0.43550 0.29600
H 	H 	0.69200 0.05280 0.88350 0.05300
H 	H 	0.96280 0.38390 0.15750 0.03000
H 	H 	0.50870 0.91190 0.59190 0.02800
H 	H 	0.08350 0.21400 0.20310 0.03000
H 	H 	0.10740 0.33800 0.69830 0.03500
H 	H 	0.79080 0.68670 0.90640 0.09100
H 	H 	0.30800 0.94720 0.11650 0.05300
H 	H 	0.90590 0.70950 0.94690 0.08100
H 	H 	0.20920 0.31330 0.09360 0.09100
H 	H 	0.17480 0.10650 0.41030 0.04600
H 	H 	0.52130 0.27150 0.67330 -0.00300
H 	H 	0.13890 0.73260 0.87410 0.29100
H 	H 	0.62070 0.76030 0.93890 0.03600
H 	H 	0.01680 0.27700 0.39530 0.06800
H 	H 	0.02480 0.77080 0.33990 0.32100
H 	H 	0.80900 0.20490 0.21590 0.29200
H 	H 	0.67110 0.31640 0.84210 -0.00300
H 	H 	0.91650 0.78600 0.79690 0.03000
H 	H 	0.06050 0.16630 0.73290 0.31100
H 	H 	0.97520 0.22920 0.66010 0.32100
H 	H 	0.26030 0.82560 0.47630 0.09200
H 	H 	0.56710 0.40690 0.50200 0.31500
H 	H 	0.49130 0.08810 0.40810 0.02800
H 	H 	0.86040 0.78170 0.35340 0.30300
H 	H 	0.10700 0.72250 0.48460 0.03600
H 	H 	0.93600 0.13980 0.40460 0.03100
H 	H 	0.77920 0.06090 0.38150 0.06800
H 	H 	0.21600 0.16290 0.19170 0.04800
H 	H 	0.90120 0.69210 0.73630 0.04500
H 	H 	0.77030 0.17800 0.67070 0.02800
H 	H 	0.69460 0.10260 0.67280 0.02800
H 	H 	0.74910 0.44220 0.17500 0.03700
H 	H 	0.54300 0.73750 0.82460 -0.00000
H 	H 	0.45910 0.55460 0.07870 0.31300
H 	H 	0.43780 0.40330 0.00050 0.33400
H 	H 	0.46050 0.10540 0.91020 0.02600
H 	H 	0.25090 0.55780 0.82500 0.03700
H 	H 	0.22080 0.93910 0.61850 0.06800
H 	H 	0.72120 0.21760 0.14430 0.27600
H 	H 	0.73970 0.17440 0.52370 0.09200
H 	H 	0.88580 0.95540 0.10500 0.06200
H 	H 	0.27880 0.78240 0.85570 0.27600
H 	H 	0.56220 0.59670 0.99950 0.33400
H 	H 	0.01420 0.23150 0.82370 0.02600
H 	H 	0.53120 0.65640 0.50320 0.31900
H 	H 	0.90200 0.79100 0.05620 0.07000
H 	H 	0.56030 0.35040 0.98270 0.33600
H 	H 	0.89300 0.27750 0.51540 0.03600
H 	H 	0.10550 0.90020 0.09080 0.02800
H 	H 	0.98320 0.72300 0.60470 0.06800
H 	H 	0.54090 0.44540 0.92130 0.31300
H 	H 	0.54170 0.56080 0.56450 0.29600
H 	H 	0.98580 0.76850 0.17630 0.02600
H 	H 	0.38340 0.78890 0.43900 0.08200
H 	H 	0.13960 0.21830 0.64660 0.30300
H 	H 	0.93950 0.83370 0.26710 0.31100
H 	H 	0.89450 0.09980 0.90920 0.02800
H 	H 	0.73110 0.57100 0.30420 0.03700
H 	H 	0.09410 0.29050 0.05310 0.08100
H 	H 	0.23560 0.68400 0.45260 0.04500
H 	H 	0.61660 0.21110 0.56100 0.08200
H 	H 	0.09880 0.30790 0.26370 0.04500
H 	H 	0.73230 0.00360 0.60890 0.06400
H 	H 	0.35710 0.32120 0.35650 0.00000
H 	H 	0.78400 0.83710 0.80830 0.04800
H 	H 	0.43970 0.64960 0.01730 0.33600
H 	H 	0.30540 0.89740 0.32720 0.02800
H 	H 	0.89260 0.66200 0.30170 0.03500
H 	H 	0.86110 0.26740 0.12590 0.29100
H 	H 	0.32890 0.68360 0.15790 -0.00300
H 	H 	0.29740 0.05570 0.14960 0.05600
H 	H 	0.19100 0.79510 0.78410 0.29200
H 	H 	0.22970 0.82200 0.32930 0.02800
H 	H 	0.70260 0.94430 0.85040 0.05600
H 	H 	0.73110 0.80830 0.95760 0.04200
H 	H 	0.53950 0.89460 0.08980 0.02600
H 	H 	0.64290 0.67880 0.64350 0.00000
C 	C 	0.38860 0.28210 0.33930 0.07700
C 	C 	0.13290 0.25230 0.89430 -0.10200
C 	C 	0.65910 0.38970 0.68080 0.39800
C 	C 	0.88490 0.92560 0.60000 -0.03400
C 	C 	0.59550 0.69460 0.74340 -0.17500
C 	C 	0.53250 0.85770 0.62960 0.08100
C 	C 	0.36530 0.39420 0.19300 0.37500
C 	C 	0.41670 0.12000 0.76610 0.43100
C 	C 	0.46750 0.14230 0.37040 0.08100
C 	C 	0.60960 0.82610 0.51420 0.34400
C 	C 	0.40450 0.30540 0.25660 -0.17500
C 	C 	0.87590 0.04860 0.38220 -0.12700
C 	C 	0.07140 0.62510 0.79060 -0.02300
C 	C 	0.92860 0.37490 0.20940 -0.02300
C 	C 	0.71850 0.20210 0.55720 -0.17400
C 	C 	0.95970 0.04050 0.13270 0.04800
C 	C 	0.03060 0.12370 0.65500 0.35800
C 	C 	0.86820 0.80610 0.83290 -0.00600
C 	C 	0.08110 0.07020 0.14500 0.05300
C 	C 	0.37670 0.71790 0.17140 0.08900
C 	C 	0.23460 0.30450 0.89110 0.07300
C 	C 	0.17600 0.26910 0.08460 -0.17200
C 	C 	0.49860 0.15530 0.86940 0.08700
C 	C 	0.55140 0.75310 0.76930 0.09600
C 	C 	0.62330 0.28210 0.82860 0.08900
C 	C 	0.01000 0.32760 0.27380 -0.02600
C 	C 	0.13180 0.19390 0.16710 -0.00600
C 	C 	0.39760 0.69200 0.25230 -0.19900
C 	C 	0.51970 0.83480 0.71330 -0.18400
C 	C 	0.39570 0.82550 0.02330 0.34900
C 	C 	0.89770 0.14680 0.15270 0.32800
C 	C 	0.90280 0.05730 0.89440 -0.00800
C 	C 	0.52910 0.10230 0.25920 0.43000
C 	C 	0.63470 0.60580 0.80700 0.37500
C 	C 	0.12410 0.95140 0.61780 -0.12700
C 	C 	0.58330 0.88000 0.23390 0.43100
C 	C 	0.05340 0.19000 0.67540 -0.96700
C 	C 	0.11510 0.07440 0.40000 -0.03400
C 	C 	0.70970 0.75440 0.96250 0.00500
C 	C 	0.79100 0.28620 0.51630 -0.00300
C 	C 	0.81500 0.21520 0.16040 -0.89000
C 	C 	0.77920 0.02770 0.87960 -0.04400
C 	C 	0.13860 0.33130 0.74660 -0.03200
C 	C 	0.44860 0.24690 0.23070 0.09600
C 	C 	0.19930 0.59140 0.78090 -0.10100
C 	C 	0.51970 0.82040 0.21230 -0.18300
C 	C 	0.76550 0.14510 0.64250 0.00800
C 	C 	0.97000 0.09460 0.39680 -0.00700
C 	C 	0.94660 0.81000 0.32460 -0.96700
C 	C 	0.22080 0.97230 0.12040 -0.04400
C 	C 	0.04030 0.95950 0.86730 0.04800
C 	C 	0.07680 0.96390 0.37300 0.05200
C 	C 	0.08420 0.26580 0.82270 -0.01600
C 	C 	0.86140 0.66870 0.25340 -0.03200
C 	C 	0.60240 0.30800 0.74770 -0.19900
C 	C 	0.28830 0.37050 0.81760 0.03400
C 	C 	0.42670 0.79480 0.11030 -0.14700
C 	C 	0.58040 0.79990 0.60340 -0.14400
C 	C 	0.23670 0.38420 0.74490 -0.08800
C 	C 	0.34090 0.61030 0.31920 0.39800
C 	C 	0.74990 0.39050 0.29850 0.03500
C 	C 	0.96260 0.30930 0.35200 -0.09300
C 	C 	0.50770 0.60510 0.04140 -0.98600
C 	C 	0.20900 0.71380 0.48370 -0.00300
C 	C 	0.52160 0.39410 0.46580 -0.93600
C 	C 	0.03000 0.90540 0.60320 -0.00700
C 	C 	0.09720 0.94270 0.10560 -0.00800
C 	C 	0.21650 0.03630 0.14010 -0.07600
C 	C 	0.10230 0.85320 0.84730 0.32800
C 	C 	0.17160 0.65850 0.63620 0.06200
C 	C 	0.96720 0.97570 0.11300 -0.12800
C 	C 	0.91890 0.92980 0.85500 0.05300
C 	C 	0.48030 0.17960 0.78770 -0.18300
C 	C 	0.48030 0.16520 0.28670 -0.18400
C 	C 	0.93250 0.98390 0.36890 0.06000
C 	C 	0.96940 0.87630 0.34500 0.35800
C 	C 	0.17130 0.00960 0.38870 -0.08000
C 	C 	0.60320 0.62730 0.08550 0.35400
C 	C 	0.47840 0.60590 0.53420 -0.93600
C 	C 	0.36860 0.61760 0.59170 0.33700
C 	C 	0.99000 0.67240 0.72620 -0.02600
C 	C 	0.06750 0.01610 0.63110 0.06000
C 	C 	0.03740 0.69070 0.64800 -0.09300
C 	C 	0.86710 0.74770 0.10570 -0.10200
C 	C 	0.91580 0.73420 0.17730 -0.01600
C 	C 	0.46740 0.74470 0.27240 0.11200
C 	C 	0.63140 0.38240 0.40830 0.33700
C 	C 	0.71170 0.62950 0.18240 0.03400
C 	C 	0.61140 0.71790 0.66070 0.07700
C 	C 	0.39040 0.17390 0.48580 0.34400
C 	C 	0.82870 0.99040 0.61130 -0.08000
C 	C 	0.76540 0.69550 0.10890 0.07300
C 	C 	0.39680 0.37270 0.91450 0.35400
C 	C 	0.76330 0.61580 0.25510 -0.08800
C 	C 	0.47090 0.89770 0.74080 0.43000
C 	C 	0.03280 0.02430 0.88700 -0.12800
C 	C 	0.18500 0.78480 0.83960 -0.89000
C 	C 	0.28150 0.79790 0.44280 -0.17400
C 	C 	0.50140 0.84470 0.13060 0.08700
C 	C 	0.53260 0.25530 0.72760 0.11200
C 	C 	0.57330 0.20520 0.88970 -0.14700
C 	C 	0.29030 0.24560 0.03750 0.00500
C 	C 	0.80070 0.40860 0.21910 -0.10100
C 	C 	0.49230 0.39490 0.95860 -0.98600
C 	C 	0.60430 0.17450 0.97670 0.34900
C 	C 	0.82840 0.34150 0.36380 0.06200
C 	C 	0.23450 0.85490 0.35750 0.00800
C 	C 	0.82400 0.73090 0.91540 -0.17200
C 	C 	0.41960 0.20010 0.39660 -0.14400
C 	C 	0.25010 0.60950 0.70150 0.03500
C 	C 	0.78350 0.96370 0.85990 -0.07600
C 	C 	0.92320 0.03610 0.62700 0.05200
N 	N 	0.13180 0.07180 0.64900 -0.32900
N 	N 	0.24900 0.66350 0.56700 -0.18000
N 	N 	0.09640 0.89610 0.35800 -0.18400
N 	N 	0.75100 0.33650 0.43300 -0.18000
N 	N 	0.84530 0.08870 0.13930 -0.32600
N 	N 	0.86820 0.92820 0.35100 -0.32900
N 	N 	0.96270 0.86250 0.84160 -0.17800
N 	N 	0.90360 0.10390 0.64200 -0.18400
N 	N 	0.30750 0.30720 0.95030 -0.18400
N 	N 	0.69250 0.69280 0.04970 -0.18400
N 	N 	0.03730 0.13750 0.15840 -0.17800
N 	N 	0.62570 0.41580 0.32870 -0.32500
N 	N 	0.38900 0.41190 0.83360 -0.32700
N 	N 	0.61100 0.58810 0.16640 -0.32700
N 	N 	0.15470 0.91130 0.86070 -0.32600
N 	N 	0.37430 0.58420 0.67130 -0.32500
O 	O 	0.57010 0.89970 0.46490 -0.44100
O 	O 	0.35950 0.45070 0.21620 -0.48200
O 	O 	0.62860 0.94810 0.17830 -0.51600
O 	O 	0.57210 0.09930 0.02680 -0.45500
O 	O 	0.66160 0.22060 0.99630 -0.36200
O 	O 	0.33670 0.40450 0.12740 -0.32300
O 	O 	0.58610 0.03710 0.30860 -0.51800
O 	O 	0.42790 0.90070 0.97320 -0.45500
O 	O 	0.48610 0.88040 0.81330 -0.50400
O 	O 	0.33840 0.77940 0.00370 -0.36200
O 	O 	0.64250 0.45450 0.68960 -0.49600
O 	O 	0.58190 0.85840 0.30920 -0.51300
O 	O 	0.27970 0.61020 0.38000 -0.30900
O 	O 	0.66330 0.59550 0.87260 -0.32300
O 	O 	0.33050 0.22110 0.50920 -0.36900
O 	O 	0.41390 0.96290 0.69140 -0.51800
O 	O 	0.35750 0.54550 0.31040 -0.49600
O 	O 	0.66950 0.77890 0.49080 -0.36900
O 	O 	0.64050 0.54930 0.78380 -0.48200
O 	O 	0.51390 0.11960 0.18670 -0.50400
O 	O 	0.42990 0.10030 0.53510 -0.44100
O 	O 	0.37140 0.05190 0.82170 -0.51600
O 	O 	0.41810 0.14160 0.69080 -0.51300
O 	O 	0.72030 0.38980 0.62000 -0.30900
