data_crystal

_cell_length_a 7.15100
_cell_length_b 24.89880
_cell_length_c 28.60970
_cell_angle_alpha 90.00000
_cell_angle_beta  93.40600
_cell_angle_gamma 90.00000

_symmetry_space_group_name_	'P 1'
_symmetry_space_group_name_H-M	'P 1'

loop_
_symmetry_equiv_pos_as_xyz
  x,y,z

loop_
_atom_site_label
_atom_site_type_symbol
_atom_site_fract_x
_atom_site_fract_y
_atom_site_fract_z
_atom_site_charge
C 	C 	0.33800 0.50460 0.81140 0.19900
C 	C 	0.39510 0.46500 0.84950 0.45200
C 	C 	0.57870 0.46590 0.86890 0.82500
H 	H 	0.66470 0.48990 0.85750 -0.35500
C 	C 	0.63320 0.43160 0.90490 -0.56300
H 	H 	0.75550 0.43320 0.91780 0.21500
C 	C 	0.50930 0.39470 0.92240 0.13300
C 	C 	0.32540 0.39380 0.90280 0.12300
H 	H 	0.23990 0.36930 0.91370 -0.02300
C 	C 	0.27060 0.42870 0.86750 -0.59600
H 	H 	0.14700 0.42810 0.85540 0.25400
C 	C 	0.56230 0.35770 0.96230 0.12800
C 	C 	0.45580 0.36060 0.00140 -0.14200
H 	H 	0.35420 0.38400 0.00100 0.07600
C 	C 	0.49700 0.32990 0.04050 0.16100
C 	C 	0.38550 0.34000 0.08290 -0.23000
C 	C 	0.18990 0.33890 0.07760 -0.01900
H 	H 	0.13050 0.33020 0.04880 0.03500
C 	C 	0.08300 0.35090 0.11610 0.13500
H 	H 	0.95300 0.34980 0.11260 -0.02800
C 	C 	0.16710 0.36410 0.15820 -0.14600
C 	C 	0.05500 0.38250 0.19750 0.00100
C 	C 	0.36020 0.36500 0.16320 -0.63400
H 	H 	0.41820 0.37390 0.19210 0.16200
C 	C 	0.46760 0.35330 0.12700 0.46200
H 	H 	0.59740 0.35410 0.13160 -0.09000
C 	C 	0.64400 0.29250 0.04140 0.01500
C 	C 	0.68810 0.25680 0.08000 -0.12600
H 	H 	0.61660 0.25850 0.10610 -0.01200
C 	C 	0.82840 0.22120 0.07980 -0.15400
H 	H 	0.85350 0.19960 0.10600 -0.05400
C 	C 	0.94100 0.21560 0.04030 0.01300
C 	C 	0.90310 0.25070 0.00130 -0.02000
C 	C 	0.75310 0.28850 0.00180 -0.05000
C 	C 	0.71540 0.32260 0.96250 -0.03900
C 	C 	0.82890 0.31650 0.92250 -0.02000
H 	H 	0.80440 0.33820 0.89640 -0.08700
C 	C 	0.96910 0.28040 0.92220 -0.10100
H 	H 	0.03860 0.27800 0.89580 -0.05300
C 	C 	0.01400 0.24570 0.96090 -0.02600
C 	C 	0.16330 0.20930 0.96210 0.33000
C 	C 	0.19810 0.17800 0.00060 -0.15700
H 	H 	0.29700 0.15380 0.00080 0.08700
C 	C 	0.09400 0.18070 0.03920 0.47400
C 	C 	0.13910 0.13990 0.07780 -0.12000
C 	C 	0.00280 0.10700 0.09540 -0.06100
H 	H 	0.87780 0.11240 0.08560 0.04900
C 	C 	0.04930 0.06620 0.12730 0.15400
H 	H 	0.95640 0.04370 0.13750 0.06300
C 	C 	0.23200 0.05930 0.14350 0.00200
C 	C 	0.28180 0.01780 0.18130 0.37800
C 	C 	0.36990 0.09160 0.12860 -0.25200
H 	H 	0.49370 0.08680 0.13970 0.10800
C 	C 	0.32160 0.13290 0.09590 0.06900
H 	H 	0.41480 0.15570 0.08630 -0.00800
C 	C 	0.27670 0.19960 0.92040 -0.18900
C 	C 	0.47180 0.20040 0.92580 0.02700
H 	H 	0.53050 0.21250 0.95370 0.01900
C 	C 	0.57670 0.18370 0.89050 -0.03900
H 	H 	0.70670 0.18520 0.89390 0.04400
C 	C 	0.49150 0.16490 0.85010 -0.16700
C 	C 	0.60620 0.14180 0.81260 0.30300
C 	C 	0.29940 0.16500 0.84170 -0.41700
H 	H 	0.24360 0.15340 0.81330 0.06900
C 	C 	0.19400 0.18290 0.87740 0.32300
H 	H 	0.06420 0.18390 0.87270 -0.03900
Cd	Cd	0.19646 0.57891 0.74620 1.22900
Cd	Cd	0.65257 0.53774 0.73502 1.19900
O 	O 	0.11890 0.40704 0.23213 -0.46300
O 	O 	0.88330 0.36750 0.19322 -0.37100
O 	O 	0.77860 0.14600 0.81681 -0.37400
O 	O 	0.52760 0.11300 0.78014 -0.50700
O 	O 	0.44980 0.01910 0.19700 -0.46300
O 	O 	0.17120 0.50070 0.79720 -0.38900
O 	O 	0.44960 0.53460 0.79352 -0.47500
O 	O 	0.16350 0.98190 0.18858 -0.46000
C 	C 	0.98600 0.15520 0.11840 -0.00300
C 	C 	0.88610 0.11050 0.13190 -0.00600
H 	H 	0.75670 0.10930 0.12650 0.01500
C 	C 	0.98000 0.06750 0.15360 -0.24100
H 	H 	0.91360 0.03750 0.16270 0.05500
C 	C 	0.17400 0.06930 0.16170 -0.09800
C 	C 	0.27310 0.11400 0.14810 0.14300
H 	H 	0.40250 0.11520 0.15360 0.03700
C 	C 	0.17900 0.15700 0.12650 -0.10800
H 	H 	0.24560 0.18700 0.11740 0.05300
C 	C 	0.34300 0.48970 0.80270 0.12900
C 	C 	0.46900 0.45320 0.83250 -0.83300
C 	C 	0.65500 0.46240 0.84800 -0.35500
H 	H 	0.71070 0.49510 0.84160 0.34800
C 	C 	0.75800 0.42360 0.87270 0.04300
H 	H 	0.88210 0.43010 0.88300 -0.01700
C 	C 	0.67500 0.37490 0.88190 0.17800
C 	C 	0.48900 0.36510 0.86660 -0.48100
H 	H 	0.43380 0.33230 0.87260 0.19000
C 	C 	0.38900 0.40460 0.84220 0.63200
H 	H 	0.26440 0.39830 0.83230 -0.12400
C 	C 	0.61500 0.34260 0.97640 0.04400
H 	H 	0.55010 0.37100 0.96190 -0.09400
C 	C 	0.57200 0.32720 0.02150 -0.15200
H 	H 	0.48160 0.34660 0.03640 0.02900
C 	C 	0.66000 0.28300 0.04500 0.01400
C 	C 	0.46400 0.29390 0.11620 -0.03100
C 	C 	0.27800 0.29590 0.10110 0.12400
H 	H 	0.23790 0.28100 0.07250 -0.01600
C 	C 	0.15000 0.32010 0.12880 -0.24100
H 	H 	0.02320 0.32020 0.11920 0.08300
C 	C 	0.21000 0.34430 0.17070 0.26700
C 	C 	0.05200 0.36700 0.19600 0.21700
C 	C 	0.39600 0.34160 0.18680 0.44900
H 	H 	0.43730 0.35700 0.21520 -0.19300
C 	C 	0.51800 0.31530 0.15920 -0.37300
H 	H 	0.64220 0.31190 0.17010 0.17400
C 	C 	0.80400 0.25840 0.02170 0.03100
C 	C 	0.61900 0.26630 0.09040 0.13200
C 	C 	0.72700 0.22520 0.11100 0.01200
H 	H 	0.69760 0.21410 0.14070 0.02000
C 	C 	0.91000 0.21730 0.04500 0.02000
C 	C 	0.84800 0.27470 0.97670 0.09700
C 	C 	0.75300 0.31620 0.95260 -0.05100
C 	C 	0.93100 0.30600 0.88670 -0.07900
H 	H 	0.95740 0.31620 0.85660 0.05500
C 	C 	0.78400 0.33120 0.90690 0.13600
C 	C 	0.04300 0.26600 0.90860 0.19700
C 	C 	0.99500 0.25100 0.95350 -0.06500
C 	C 	0.08400 0.20560 0.97460 -0.04700
H 	H 	0.17640 0.18780 0.95910 -0.10900
C 	C 	0.87700 0.19890 0.09090 0.18300
C 	C 	0.03400 0.18730 0.01870 -0.38200
H 	H 	0.08330 0.15510 0.03060 -0.05100
C 	C 	0.19000 0.23930 0.88210 -0.04100
C 	C 	0.37600 0.23760 0.89850 -0.00300
H 	H 	0.41480 0.25390 0.92660 0.02500
C 	C 	0.50300 0.21100 0.87190 -0.02300
H 	H 	0.62910 0.21530 0.88050 0.04200
C 	C 	0.45500 0.17790 0.83280 0.19200
C 	C 	0.26500 0.18440 0.81590 0.31200
H 	H 	0.22700 0.17000 0.78690 -0.11000
C 	C 	0.13400 0.21170 0.84170 -0.28900
H 	H 	0.00780 0.21130 0.83150 0.14100
C 	C 	0.66200 0.00460 0.68860 0.19900
C 	C 	0.60490 0.96500 0.65050 0.45300
C 	C 	0.42130 0.96590 0.63110 0.82800
H 	H 	0.33530 0.98990 0.64250 -0.35700
C 	C 	0.36680 0.93160 0.59510 -0.56500
H 	H 	0.24450 0.93320 0.58220 0.21600
C 	C 	0.49070 0.89470 0.57760 0.13400
C 	C 	0.67460 0.89380 0.59720 0.12300
H 	H 	0.76010 0.86930 0.58630 -0.02300
C 	C 	0.72940 0.92870 0.63250 -0.59800
H 	H 	0.85300 0.92810 0.64460 0.25400
C 	C 	0.43770 0.85770 0.53770 0.12900
C 	C 	0.54420 0.86060 0.49860 -0.14200
H 	H 	0.64580 0.88400 0.49900 0.07600
C 	C 	0.50300 0.82990 0.45950 0.16100
C 	C 	0.61450 0.84000 0.41710 -0.23000
C 	C 	0.81010 0.83890 0.42240 -0.01900
H 	H 	0.86950 0.83020 0.45120 0.03500
C 	C 	0.91700 0.85090 0.38390 0.13500
H 	H 	0.04700 0.84980 0.38740 -0.02800
C 	C 	0.83290 0.86410 0.34180 -0.14700
C 	C 	0.94500 0.88250 0.30250 0.00000
C 	C 	0.63980 0.86500 0.33680 -0.63600
H 	H 	0.58180 0.87390 0.30790 0.16200
C 	C 	0.53240 0.85330 0.37300 0.46400
H 	H 	0.40260 0.85410 0.36840 -0.09100
C 	C 	0.35600 0.79250 0.45860 0.01500
C 	C 	0.31190 0.75680 0.42000 -0.12600
H 	H 	0.38340 0.75850 0.39390 -0.01100
C 	C 	0.17160 0.72120 0.42020 -0.15400
H 	H 	0.14650 0.69960 0.39400 -0.05400
C 	C 	0.05900 0.71560 0.45970 0.01300
C 	C 	0.09690 0.75070 0.49870 -0.02000
C 	C 	0.24690 0.78850 0.49820 -0.04900
C 	C 	0.28460 0.82260 0.53750 -0.03900
C 	C 	0.17110 0.81650 0.57750 -0.01900
H 	H 	0.19560 0.83820 0.60360 -0.08800
C 	C 	0.03090 0.78040 0.57780 -0.10200
H 	H 	0.96140 0.77800 0.60420 -0.05200
C 	C 	0.98600 0.74570 0.53910 -0.02600
C 	C 	0.83670 0.70930 0.53790 0.33100
C 	C 	0.80190 0.67800 0.49940 -0.15700
H 	H 	0.70300 0.65380 0.49920 0.08700
C 	C 	0.90600 0.68070 0.46080 0.47400
C 	C 	0.86090 0.63990 0.42220 -0.11900
C 	C 	0.99720 0.60700 0.40460 -0.06200
H 	H 	0.12220 0.61240 0.41440 0.04900
C 	C 	0.95070 0.56620 0.37270 0.15600
H 	H 	0.04360 0.54370 0.36250 0.06200
C 	C 	0.76800 0.55930 0.35650 0.00300
C 	C 	0.71820 0.51780 0.31870 0.37800
C 	C 	0.63010 0.59160 0.37140 -0.25400
H 	H 	0.50630 0.58680 0.36030 0.10800
C 	C 	0.67840 0.63290 0.40410 0.06900
H 	H 	0.58520 0.65570 0.41370 -0.00800
C 	C 	0.72330 0.69960 0.57960 -0.18900
C 	C 	0.52820 0.70040 0.57420 0.02700
H 	H 	0.46950 0.71250 0.54630 0.01900
C 	C 	0.42330 0.68370 0.60950 -0.03900
H 	H 	0.29330 0.68520 0.60610 0.04400
C 	C 	0.50850 0.66490 0.64990 -0.16700
C 	C 	0.39380 0.64180 0.68740 0.30300
C 	C 	0.70060 0.66500 0.65830 -0.41700
H 	H 	0.75640 0.65340 0.68670 0.06900
C 	C 	0.80600 0.68290 0.62260 0.32300
H 	H 	0.93580 0.68390 0.62730 -0.03900
Cd	Cd	0.80354 0.07891 0.75380 1.22900
Cd	Cd	0.34743 0.03774 0.76498 1.19900
O 	O 	0.88110 0.90704 0.26787 -0.46300
O 	O 	0.11670 0.86750 0.30678 -0.37100
O 	O 	0.22140 0.64600 0.68319 -0.37400
O 	O 	0.47240 0.61300 0.71986 -0.50700
O 	O 	0.55020 0.51910 0.30300 -0.46300
O 	O 	0.82880 0.00070 0.70280 -0.38900
O 	O 	0.55040 0.03460 0.70648 -0.47500
O 	O 	0.83650 0.48190 0.31142 -0.46100
C 	C 	0.01400 0.65520 0.38160 -0.00200
C 	C 	0.11390 0.61050 0.36810 -0.00600
H 	H 	0.24330 0.60930 0.37350 0.01500
C 	C 	0.02000 0.56750 0.34640 -0.24200
H 	H 	0.08640 0.53750 0.33730 0.05600
C 	C 	0.82600 0.56930 0.33830 -0.09900
C 	C 	0.72690 0.61400 0.35190 0.14400
H 	H 	0.59750 0.61520 0.34640 0.03700
C 	C 	0.82100 0.65700 0.37350 -0.10800
H 	H 	0.75440 0.68700 0.38260 0.05300
C 	C 	0.65700 0.98970 0.69730 0.12900
C 	C 	0.53100 0.95320 0.66750 -0.83600
C 	C 	0.34500 0.96240 0.65200 -0.35600
H 	H 	0.28930 0.99510 0.65840 0.34900
C 	C 	0.24200 0.92360 0.62730 0.04300
H 	H 	0.11790 0.93010 0.61700 -0.01700
C 	C 	0.32500 0.87490 0.61810 0.17900
C 	C 	0.51100 0.86510 0.63340 -0.48300
H 	H 	0.56620 0.83230 0.62740 0.19000
C 	C 	0.61100 0.90460 0.65780 0.63400
H 	H 	0.73560 0.89830 0.66770 -0.12400
C 	C 	0.38500 0.84260 0.52360 0.04500
H 	H 	0.44990 0.87100 0.53810 -0.09500
C 	C 	0.42800 0.82720 0.47850 -0.15200
H 	H 	0.51840 0.84660 0.46360 0.02900
C 	C 	0.34000 0.78300 0.45500 0.01500
C 	C 	0.53600 0.79390 0.38380 -0.03100
C 	C 	0.72200 0.79590 0.39890 0.12500
H 	H 	0.76210 0.78100 0.42750 -0.01700
C 	C 	0.85000 0.82010 0.37120 -0.24100
H 	H 	0.97680 0.82020 0.38080 0.08300
C 	C 	0.79000 0.84430 0.32930 0.26900
C 	C 	0.94800 0.86700 0.30400 0.21700
C 	C 	0.60400 0.84160 0.31320 0.45000
H 	H 	0.56270 0.85700 0.28480 -0.19400
C 	C 	0.48200 0.81530 0.34080 -0.37400
H 	H 	0.35780 0.81190 0.32990 0.17400
C 	C 	0.19600 0.75840 0.47830 0.03100
C 	C 	0.38100 0.76630 0.40960 0.13200
C 	C 	0.27300 0.72520 0.38900 0.01200
H 	H 	0.30240 0.71410 0.35930 0.02000
C 	C 	0.09000 0.71730 0.45500 0.02000
C 	C 	0.15200 0.77470 0.52330 0.09700
C 	C 	0.24700 0.81620 0.54740 -0.05100
C 	C 	0.06900 0.80600 0.61330 -0.08000
H 	H 	0.04260 0.81620 0.64340 0.05600
C 	C 	0.21600 0.83120 0.59310 0.13600
C 	C 	0.95700 0.76600 0.59140 0.19700
C 	C 	0.00500 0.75100 0.54650 -0.06500
C 	C 	0.91600 0.70560 0.52540 -0.04700
H 	H 	0.82360 0.68780 0.54090 -0.10900
C 	C 	0.12300 0.69890 0.40910 0.18300
C 	C 	0.96600 0.68730 0.48130 -0.38200
H 	H 	0.91670 0.65510 0.46940 -0.05100
C 	C 	0.81000 0.73930 0.61790 -0.04100
C 	C 	0.62400 0.73760 0.60150 -0.00300
H 	H 	0.58520 0.75390 0.57340 0.02500
C 	C 	0.49700 0.71100 0.62810 -0.02400
H 	H 	0.37090 0.71530 0.61950 0.04200
C 	C 	0.54500 0.67790 0.66720 0.19200
C 	C 	0.73500 0.68440 0.68410 0.31200
H 	H 	0.77300 0.67000 0.71310 -0.11000
C 	C 	0.86600 0.71170 0.65830 -0.28900
H 	H 	0.99220 0.71130 0.66850 0.14100
C 	C 	0.66200 0.49540 0.18860 0.19900
C 	C 	0.60490 0.53500 0.15050 0.45200
C 	C 	0.42130 0.53410 0.13110 0.82500
H 	H 	0.33530 0.51010 0.14250 -0.35500
C 	C 	0.36680 0.56840 0.09510 -0.56300
H 	H 	0.24450 0.56680 0.08220 0.21500
C 	C 	0.49070 0.60530 0.07760 0.13300
C 	C 	0.67460 0.60620 0.09720 0.12300
H 	H 	0.76010 0.63070 0.08630 -0.02300
C 	C 	0.72940 0.57130 0.13250 -0.59600
H 	H 	0.85300 0.57190 0.14460 0.25400
C 	C 	0.43770 0.64230 0.03770 0.12800
C 	C 	0.54420 0.63940 0.99860 -0.14200
H 	H 	0.64580 0.61600 0.99900 0.07600
C 	C 	0.50300 0.67010 0.95950 0.16100
C 	C 	0.61450 0.66000 0.91710 -0.23000
C 	C 	0.81010 0.66110 0.92240 -0.01900
H 	H 	0.86950 0.66980 0.95120 0.03500
C 	C 	0.91700 0.64910 0.88390 0.13500
H 	H 	0.04700 0.65020 0.88740 -0.02800
C 	C 	0.83290 0.63590 0.84180 -0.14600
C 	C 	0.94500 0.61750 0.80250 0.00100
C 	C 	0.63980 0.63500 0.83680 -0.63400
H 	H 	0.58180 0.62610 0.80790 0.16200
C 	C 	0.53240 0.64670 0.87300 0.46200
H 	H 	0.40260 0.64590 0.86840 -0.09000
C 	C 	0.35600 0.70750 0.95860 0.01500
C 	C 	0.31190 0.74320 0.92000 -0.12600
H 	H 	0.38340 0.74150 0.89390 -0.01200
C 	C 	0.17160 0.77880 0.92020 -0.15400
H 	H 	0.14650 0.80040 0.89400 -0.05400
C 	C 	0.05900 0.78440 0.95970 0.01300
C 	C 	0.09690 0.74930 0.99870 -0.02000
C 	C 	0.24690 0.71150 0.99820 -0.05000
C 	C 	0.28460 0.67740 0.03750 -0.03900
C 	C 	0.17110 0.68350 0.07750 -0.02000
H 	H 	0.19560 0.66180 0.10360 -0.08700
C 	C 	0.03090 0.71960 0.07780 -0.10100
H 	H 	0.96140 0.72200 0.10420 -0.05300
C 	C 	0.98600 0.75430 0.03910 -0.02600
C 	C 	0.83670 0.79070 0.03790 0.33000
C 	C 	0.80190 0.82200 0.99940 -0.15700
H 	H 	0.70300 0.84620 0.99920 0.08700
C 	C 	0.90600 0.81930 0.96080 0.47400
C 	C 	0.86090 0.86010 0.92220 -0.12000
C 	C 	0.99720 0.89300 0.90460 -0.06100
H 	H 	0.12220 0.88760 0.91440 0.04900
C 	C 	0.95070 0.93380 0.87270 0.15400
H 	H 	0.04360 0.95630 0.86250 0.06300
C 	C 	0.76800 0.94070 0.85650 0.00200
C 	C 	0.71820 0.98220 0.81870 0.37800
C 	C 	0.63010 0.90840 0.87140 -0.25200
H 	H 	0.50630 0.91320 0.86030 0.10800
C 	C 	0.67840 0.86710 0.90410 0.06900
H 	H 	0.58520 0.84430 0.91370 -0.00800
C 	C 	0.72330 0.80040 0.07960 -0.18900
C 	C 	0.52820 0.79960 0.07420 0.02700
H 	H 	0.46950 0.78750 0.04630 0.01900
C 	C 	0.42330 0.81630 0.10950 -0.03900
H 	H 	0.29330 0.81480 0.10610 0.04400
C 	C 	0.50850 0.83510 0.14990 -0.16700
C 	C 	0.39380 0.85820 0.18740 0.30300
C 	C 	0.70060 0.83500 0.15830 -0.41700
H 	H 	0.75640 0.84660 0.18670 0.06900
C 	C 	0.80600 0.81710 0.12260 0.32300
H 	H 	0.93580 0.81610 0.12730 -0.03900
Cd	Cd	0.80354 0.42109 0.25380 1.22900
Cd	Cd	0.34743 0.46226 0.26498 1.19900
O 	O 	0.88110 0.59296 0.76787 -0.46300
O 	O 	0.11670 0.63250 0.80678 -0.37100
O 	O 	0.22140 0.85400 0.18319 -0.37400
O 	O 	0.47240 0.88700 0.21986 -0.50700
O 	O 	0.55020 0.98090 0.80300 -0.46300
O 	O 	0.82880 0.49930 0.20280 -0.38900
O 	O 	0.55040 0.46540 0.20648 -0.47500
O 	O 	0.83650 0.01810 0.81142 -0.46000
C 	C 	0.01400 0.84480 0.88160 -0.00300
C 	C 	0.11390 0.88950 0.86810 -0.00600
H 	H 	0.24330 0.89070 0.87350 0.01500
C 	C 	0.02000 0.93250 0.84640 -0.24100
H 	H 	0.08640 0.96250 0.83730 0.05500
C 	C 	0.82600 0.93070 0.83830 -0.09800
C 	C 	0.72690 0.88600 0.85190 0.14300
H 	H 	0.59750 0.88480 0.84640 0.03700
C 	C 	0.82100 0.84300 0.87350 -0.10800
H 	H 	0.75440 0.81300 0.88260 0.05300
C 	C 	0.65700 0.51030 0.19730 0.12900
C 	C 	0.53100 0.54680 0.16750 -0.83300
C 	C 	0.34500 0.53760 0.15200 -0.35500
H 	H 	0.28930 0.50490 0.15840 0.34800
C 	C 	0.24200 0.57640 0.12730 0.04300
H 	H 	0.11790 0.56990 0.11700 -0.01700
C 	C 	0.32500 0.62510 0.11810 0.17800
C 	C 	0.51100 0.63490 0.13340 -0.48100
H 	H 	0.56620 0.66770 0.12740 0.19000
C 	C 	0.61100 0.59540 0.15780 0.63200
H 	H 	0.73560 0.60170 0.16770 -0.12400
C 	C 	0.38500 0.65740 0.02360 0.04400
H 	H 	0.44990 0.62900 0.03810 -0.09400
C 	C 	0.42800 0.67280 0.97850 -0.15200
H 	H 	0.51840 0.65340 0.96360 0.02900
C 	C 	0.34000 0.71700 0.95500 0.01400
C 	C 	0.53600 0.70610 0.88380 -0.03100
C 	C 	0.72200 0.70410 0.89890 0.12400
H 	H 	0.76210 0.71900 0.92750 -0.01600
C 	C 	0.85000 0.67990 0.87120 -0.24100
H 	H 	0.97680 0.67980 0.88080 0.08300
C 	C 	0.79000 0.65570 0.82930 0.26700
C 	C 	0.94800 0.63300 0.80400 0.21700
C 	C 	0.60400 0.65840 0.81320 0.44900
H 	H 	0.56270 0.64300 0.78480 -0.19300
C 	C 	0.48200 0.68470 0.84080 -0.37300
H 	H 	0.35780 0.68810 0.82990 0.17400
C 	C 	0.19600 0.74160 0.97830 0.03100
C 	C 	0.38100 0.73370 0.90960 0.13200
C 	C 	0.27300 0.77480 0.88900 0.01200
H 	H 	0.30240 0.78590 0.85930 0.02000
C 	C 	0.09000 0.78270 0.95500 0.02000
C 	C 	0.15200 0.72530 0.02330 0.09700
C 	C 	0.24700 0.68380 0.04740 -0.05100
C 	C 	0.06900 0.69400 0.11330 -0.07900
H 	H 	0.04260 0.68380 0.14340 0.05500
C 	C 	0.21600 0.66880 0.09310 0.13600
C 	C 	0.95700 0.73400 0.09140 0.19700
C 	C 	0.00500 0.74900 0.04650 -0.06500
C 	C 	0.91600 0.79440 0.02540 -0.04700
H 	H 	0.82360 0.81220 0.04090 -0.10900
C 	C 	0.12300 0.80110 0.90910 0.18300
C 	C 	0.96600 0.81270 0.98130 -0.38200
H 	H 	0.91670 0.84490 0.96940 -0.05100
C 	C 	0.81000 0.76070 0.11790 -0.04100
C 	C 	0.62400 0.76240 0.10150 -0.00300
H 	H 	0.58520 0.74610 0.07340 0.02500
C 	C 	0.49700 0.78900 0.12810 -0.02300
H 	H 	0.37090 0.78470 0.11950 0.04200
C 	C 	0.54500 0.82210 0.16720 0.19200
C 	C 	0.73500 0.81560 0.18410 0.31200
H 	H 	0.77300 0.83000 0.21310 -0.11000
C 	C 	0.86600 0.78830 0.15830 -0.28900
H 	H 	0.99220 0.78870 0.16850 0.14100
C 	C 	0.33800 0.99540 0.31140 0.19900
C 	C 	0.39510 0.03500 0.34950 0.45300
C 	C 	0.57870 0.03410 0.36890 0.82800
H 	H 	0.66470 0.01010 0.35750 -0.35700
C 	C 	0.63320 0.06840 0.40490 -0.56500
H 	H 	0.75550 0.06680 0.41780 0.21600
C 	C 	0.50930 0.10530 0.42240 0.13400
C 	C 	0.32540 0.10620 0.40280 0.12300
H 	H 	0.23990 0.13070 0.41370 -0.02300
C 	C 	0.27060 0.07130 0.36750 -0.59800
H 	H 	0.14700 0.07190 0.35540 0.25400
C 	C 	0.56230 0.14230 0.46230 0.12900
C 	C 	0.45580 0.13940 0.50140 -0.14200
H 	H 	0.35420 0.11600 0.50100 0.07600
C 	C 	0.49700 0.17010 0.54050 0.16100
C 	C 	0.38550 0.16000 0.58290 -0.23000
C 	C 	0.18990 0.16110 0.57760 -0.01900
H 	H 	0.13050 0.16980 0.54880 0.03500
C 	C 	0.08300 0.14910 0.61610 0.13500
H 	H 	0.95300 0.15020 0.61260 -0.02800
C 	C 	0.16710 0.13590 0.65820 -0.14700
C 	C 	0.05500 0.11750 0.69750 0.00000
C 	C 	0.36020 0.13500 0.66320 -0.63600
H 	H 	0.41820 0.12610 0.69210 0.16200
C 	C 	0.46760 0.14670 0.62700 0.46400
H 	H 	0.59740 0.14590 0.63160 -0.09100
C 	C 	0.64400 0.20750 0.54140 0.01500
C 	C 	0.68810 0.24320 0.58000 -0.12600
H 	H 	0.61660 0.24150 0.60610 -0.01100
C 	C 	0.82840 0.27880 0.57980 -0.15400
H 	H 	0.85350 0.30040 0.60600 -0.05400
C 	C 	0.94100 0.28440 0.54030 0.01300
C 	C 	0.90310 0.24930 0.50130 -0.02000
C 	C 	0.75310 0.21150 0.50180 -0.04900
C 	C 	0.71540 0.17740 0.46250 -0.03900
C 	C 	0.82890 0.18350 0.42250 -0.01900
H 	H 	0.80440 0.16180 0.39640 -0.08800
C 	C 	0.96910 0.21960 0.42220 -0.10200
H 	H 	0.03860 0.22200 0.39580 -0.05200
C 	C 	0.01400 0.25430 0.46090 -0.02600
C 	C 	0.16330 0.29070 0.46210 0.33100
C 	C 	0.19810 0.32200 0.50060 -0.15700
H 	H 	0.29700 0.34620 0.50080 0.08700
C 	C 	0.09400 0.31930 0.53920 0.47400
C 	C 	0.13910 0.36010 0.57780 -0.11900
C 	C 	0.00280 0.39300 0.59540 -0.06200
H 	H 	0.87780 0.38760 0.58560 0.04900
C 	C 	0.04930 0.43380 0.62730 0.15600
H 	H 	0.95640 0.45630 0.63750 0.06200
C 	C 	0.23200 0.44070 0.64350 0.00300
C 	C 	0.28180 0.48220 0.68130 0.37800
C 	C 	0.36990 0.40840 0.62860 -0.25400
H 	H 	0.49370 0.41320 0.63970 0.10800
C 	C 	0.32160 0.36710 0.59590 0.06900
H 	H 	0.41480 0.34430 0.58630 -0.00800
C 	C 	0.27670 0.30040 0.42040 -0.18900
C 	C 	0.47180 0.29960 0.42580 0.02700
H 	H 	0.53050 0.28750 0.45370 0.01900
C 	C 	0.57670 0.31630 0.39050 -0.03900
H 	H 	0.70670 0.31480 0.39390 0.04400
C 	C 	0.49150 0.33510 0.35010 -0.16700
C 	C 	0.60620 0.35820 0.31260 0.30300
C 	C 	0.29940 0.33500 0.34170 -0.41700
H 	H 	0.24360 0.34660 0.31330 0.06900
C 	C 	0.19400 0.31710 0.37740 0.32300
H 	H 	0.06420 0.31610 0.37270 -0.03900
Cd	Cd	0.19646 0.92109 0.24620 1.22900
Cd	Cd	0.65257 0.96226 0.23502 1.19900
O 	O 	0.11890 0.09296 0.73213 -0.46300
O 	O 	0.88330 0.13250 0.69322 -0.37100
O 	O 	0.77860 0.35400 0.31681 -0.37400
O 	O 	0.52760 0.38700 0.28014 -0.50700
O 	O 	0.44980 0.48090 0.69700 -0.46300
O 	O 	0.17120 0.99930 0.29720 -0.38900
O 	O 	0.44960 0.96540 0.29352 -0.47500
O 	O 	0.16350 0.51810 0.68858 -0.46100
C 	C 	0.98600 0.34480 0.61840 -0.00200
C 	C 	0.88610 0.38950 0.63190 -0.00600
H 	H 	0.75670 0.39070 0.62650 0.01500
C 	C 	0.98000 0.43250 0.65360 -0.24200
H 	H 	0.91360 0.46250 0.66270 0.05600
C 	C 	0.17400 0.43070 0.66170 -0.09900
C 	C 	0.27310 0.38600 0.64810 0.14400
H 	H 	0.40250 0.38480 0.65360 0.03700
C 	C 	0.17900 0.34300 0.62650 -0.10800
H 	H 	0.24560 0.31300 0.61740 0.05300
C 	C 	0.34300 0.01030 0.30270 0.12900
C 	C 	0.46900 0.04680 0.33250 -0.83600
C 	C 	0.65500 0.03760 0.34800 -0.35600
H 	H 	0.71070 0.00490 0.34160 0.34900
C 	C 	0.75800 0.07640 0.37270 0.04300
H 	H 	0.88210 0.06990 0.38300 -0.01700
C 	C 	0.67500 0.12510 0.38190 0.17900
C 	C 	0.48900 0.13490 0.36660 -0.48300
H 	H 	0.43380 0.16770 0.37260 0.19000
C 	C 	0.38900 0.09540 0.34220 0.63400
H 	H 	0.26440 0.10170 0.33230 -0.12400
C 	C 	0.61500 0.15740 0.47640 0.04500
H 	H 	0.55010 0.12900 0.46190 -0.09500
C 	C 	0.57200 0.17280 0.52150 -0.15200
H 	H 	0.48160 0.15340 0.53640 0.02900
C 	C 	0.66000 0.21700 0.54500 0.01500
C 	C 	0.46400 0.20610 0.61620 -0.03100
C 	C 	0.27800 0.20410 0.60110 0.12500
H 	H 	0.23790 0.21900 0.57250 -0.01700
C 	C 	0.15000 0.17990 0.62880 -0.24100
H 	H 	0.02320 0.17980 0.61920 0.08300
C 	C 	0.21000 0.15570 0.67070 0.26900
C 	C 	0.05200 0.13300 0.69600 0.21700
C 	C 	0.39600 0.15840 0.68680 0.45000
H 	H 	0.43730 0.14300 0.71520 -0.19400
C 	C 	0.51800 0.18470 0.65920 -0.37400
H 	H 	0.64220 0.18810 0.67010 0.17400
C 	C 	0.80400 0.24160 0.52170 0.03100
C 	C 	0.61900 0.23370 0.59040 0.13200
C 	C 	0.72700 0.27480 0.61100 0.01200
H 	H 	0.69760 0.28590 0.64070 0.02000
C 	C 	0.91000 0.28270 0.54500 0.02000
C 	C 	0.84800 0.22530 0.47670 0.09700
C 	C 	0.75300 0.18380 0.45260 -0.05100
C 	C 	0.93100 0.19400 0.38670 -0.08000
H 	H 	0.95740 0.18380 0.35660 0.05600
C 	C 	0.78400 0.16880 0.40690 0.13600
C 	C 	0.04300 0.23400 0.40860 0.19700
C 	C 	0.99500 0.24900 0.45350 -0.06500
C 	C 	0.08400 0.29440 0.47460 -0.04700
H 	H 	0.17640 0.31220 0.45910 -0.10900
C 	C 	0.87700 0.30110 0.59090 0.18300
C 	C 	0.03400 0.31270 0.51870 -0.38200
H 	H 	0.08330 0.34490 0.53060 -0.05100
C 	C 	0.19000 0.26070 0.38210 -0.04100
C 	C 	0.37600 0.26240 0.39850 -0.00300
H 	H 	0.41480 0.24610 0.42660 0.02500
C 	C 	0.50300 0.28900 0.37190 -0.02400
H 	H 	0.62910 0.28470 0.38050 0.04200
C 	C 	0.45500 0.32210 0.33280 0.19200
C 	C 	0.26500 0.31560 0.31590 0.31200
H 	H 	0.22700 0.33000 0.28690 -0.11000
C 	C 	0.13400 0.28830 0.34170 -0.28900
H 	H 	0.00780 0.28870 0.33150 0.14100
