data_crystal

_cell_length_a 13.53930
_cell_length_b 13.53930
_cell_length_c 15.04430
_cell_angle_alpha 90.00000
_cell_angle_beta  90.00000
_cell_angle_gamma 120.00000

_symmetry_space_group_name_	'P 1'
_symmetry_space_group_name_H-M	'P 1'

loop_
_symmetry_equiv_pos_as_xyz
  x,y,z

loop_
_atom_site_label
_atom_site_type_symbol
_atom_site_fract_x
_atom_site_fract_y
_atom_site_fract_z
_atom_site_charge
Zn	Zn	0.08880 0.63793 0.07900 1.22500
P 	P 	0.12850 0.44093 0.05675 0.54700
O 	O 	0.18620 0.56650 0.08710 -0.60800
O 	O 	0.19420 0.78230 0.02700 -0.45300
O 	O 	0.03360 0.64160 0.19900 -0.47000
O 	O 	0.94530 0.57350 0.02380 -0.43900
Zn	Zn	0.75547 0.97126 0.41233 1.24000
P 	P 	0.79517 0.77426 0.39008 0.54700
O 	O 	0.85287 0.89983 0.42043 -0.57900
O 	O 	0.86087 0.11563 0.36033 -0.46100
O 	O 	0.70027 0.97493 0.53233 -0.44400
O 	O 	0.61197 0.90683 0.35713 -0.45800
Zn	Zn	0.42213 0.30460 0.74567 1.23100
P 	P 	0.46183 0.10760 0.72342 0.54900
O 	O 	0.51953 0.23317 0.75377 -0.60600
O 	O 	0.52753 0.44897 0.69367 -0.44500
O 	O 	0.36693 0.30827 0.86567 -0.46000
O 	O 	0.27863 0.24017 0.69047 -0.47400
Zn	Zn	0.36207 0.45087 0.07900 1.23100
P 	P 	0.55907 0.68757 0.05675 0.54800
O 	O 	0.43350 0.61970 0.08710 -0.60600
O 	O 	0.21770 0.41190 0.02700 -0.45200
O 	O 	0.35840 0.39200 0.19900 -0.45800
O 	O 	0.42650 0.37180 0.02380 -0.47000
Zn	Zn	0.02874 0.78420 0.41233 1.22500
P 	P 	0.22574 0.02090 0.39008 0.49500
O 	O 	0.10017 0.95303 0.42043 -0.57600
O 	O 	0.88437 0.74523 0.36033 -0.42300
O 	O 	0.02507 0.72533 0.53233 -0.46100
O 	O 	0.09317 0.70513 0.35713 -0.47400
Zn	Zn	0.69540 0.11754 0.74567 1.23100
P 	P 	0.89240 0.35424 0.72342 0.54900
O 	O 	0.76683 0.28637 0.75377 -0.60500
O 	O 	0.55103 0.07857 0.69367 -0.45600
O 	O 	0.69173 0.05867 0.86567 -0.46400
O 	O 	0.75983 0.03847 0.69047 -0.49700
Zn	Zn	0.54913 0.91120 0.07900 1.23800
P 	P 	0.31243 0.87150 0.05675 0.54400
O 	O 	0.38030 0.81380 0.08710 -0.60300
O 	O 	0.58810 0.80580 0.02700 -0.43500
O 	O 	0.60800 0.96640 0.19900 -0.43700
O 	O 	0.62820 0.05470 0.02380 -0.48000
Zn	Zn	0.21580 0.24453 0.41233 1.23000
P 	P 	0.97910 0.20483 0.39008 0.60900
O 	O 	0.04697 0.14713 0.42043 -0.64800
O 	O 	0.25477 0.13913 0.36033 -0.44900
O 	O 	0.27467 0.29973 0.53233 -0.45600
O 	O 	0.29487 0.38803 0.35713 -0.47100
Zn	Zn	0.88246 0.57787 0.74567 1.23300
P 	P 	0.64576 0.53817 0.72342 0.54900
O 	O 	0.71363 0.48047 0.75377 -0.60500
O 	O 	0.92143 0.47247 0.69367 -0.43500
O 	O 	0.94133 0.63307 0.86567 -0.44000
O 	O 	0.96153 0.72137 0.69047 -0.43400
Zn	Zn	0.91120 0.36207 0.92100 1.23700
P 	P 	0.87150 0.55907 0.94325 0.54500
O 	O 	0.81380 0.43350 0.91290 -0.60300
O 	O 	0.80580 0.21770 0.97300 -0.44200
O 	O 	0.96640 0.35840 0.80100 -0.44100
O 	O 	0.05470 0.42650 0.97620 -0.48600
Zn	Zn	0.57787 0.69540 0.25433 1.23200
P 	P 	0.53817 0.89240 0.27658 0.54900
O 	O 	0.48047 0.76683 0.24623 -0.60500
O 	O 	0.47247 0.55103 0.30633 -0.44500
O 	O 	0.63307 0.69173 0.13433 -0.44800
O 	O 	0.72137 0.75983 0.30953 -0.46100
Zn	Zn	0.24453 0.02874 0.58767 1.22300
P 	P 	0.20483 0.22574 0.60992 0.55100
O 	O 	0.14713 0.10017 0.57957 -0.62300
O 	O 	0.13913 0.88437 0.63967 -0.42400
O 	O 	0.29973 0.02507 0.46767 -0.46300
O 	O 	0.38803 0.09317 0.64287 -0.47700
Zn	Zn	0.63793 0.54913 0.92100 1.23200
P 	P 	0.44093 0.31243 0.94325 0.54900
O 	O 	0.56650 0.38030 0.91290 -0.60600
O 	O 	0.78230 0.58810 0.97300 -0.44000
O 	O 	0.64160 0.60800 0.80100 -0.45000
O 	O 	0.57350 0.62820 0.97620 -0.46300
Zn	Zn	0.30460 0.88246 0.25433 1.23300
P 	P 	0.10760 0.64576 0.27658 0.54900
O 	O 	0.23317 0.71363 0.24623 -0.60500
O 	O 	0.44897 0.92143 0.30633 -0.43500
O 	O 	0.30827 0.94133 0.13433 -0.44600
O 	O 	0.24017 0.96153 0.30953 -0.43800
Zn	Zn	0.97126 0.21580 0.58767 1.23900
P 	P 	0.77426 0.97910 0.60992 0.60200
O 	O 	0.89983 0.04697 0.57957 -0.62200
O 	O 	0.11563 0.25477 0.63967 -0.46700
O 	O 	0.97493 0.27467 0.46767 -0.44600
O 	O 	0.90683 0.29487 0.64287 -0.46100
Zn	Zn	0.45087 0.08880 0.92100 1.22300
P 	P 	0.68757 0.12850 0.94325 0.54400
O 	O 	0.61970 0.18620 0.91290 -0.60800
O 	O 	0.41190 0.19420 0.97300 -0.45800
O 	O 	0.39200 0.03360 0.80100 -0.47400
O 	O 	0.37180 0.94530 0.97620 -0.44000
Zn	Zn	0.11754 0.42213 0.25433 1.23000
P 	P 	0.35424 0.46183 0.27658 0.54900
O 	O 	0.28637 0.51953 0.24623 -0.60600
O 	O 	0.07857 0.52753 0.30633 -0.45600
O 	O 	0.05867 0.36693 0.13433 -0.46900
O 	O 	0.03847 0.27863 0.30953 -0.50600
Zn	Zn	0.78420 0.75547 0.58767 1.23300
P 	P 	0.02090 0.79517 0.60992 0.49800
O 	O 	0.95303 0.85287 0.57957 -0.55700
O 	O 	0.74523 0.86087 0.63967 -0.44100
O 	O 	0.72533 0.70027 0.46767 -0.45100
O 	O 	0.70513 0.61197 0.64287 -0.46400
Co	Co	0.33333 0.66667 0.16667 1.15200
Co	Co	0.00000 0.00000 0.50000 1.11600
Co	Co	0.66667 0.33333 0.83333 1.15200
