data_crystal

_cell_length_a 9.45920
_cell_length_b 41.25400
_cell_length_c 18.41380
_cell_angle_alpha 98.64500
_cell_angle_beta  90.00000
_cell_angle_gamma 90.00000

_symmetry_space_group_name_	'P 1'
_symmetry_space_group_name_H-M	'P 1'

loop_
_symmetry_equiv_pos_as_xyz
  x,y,z

loop_
_atom_site_label
_atom_site_type_symbol
_atom_site_fract_x
_atom_site_fract_y
_atom_site_fract_z
_atom_site_charge
Zn	Zn	0.45639 0.57981 0.52950 1.22000
Zn	Zn	0.04269 0.92025 0.46925 1.21300
Zn	Zn	0.95639 0.42019 0.97050 1.23400
Zn	Zn	0.54269 0.07975 0.03075 1.21200
Zn	Zn	0.54361 0.42019 0.47050 1.22100
Zn	Zn	0.95731 0.07975 0.53075 1.22900
Zn	Zn	0.04361 0.57981 0.02950 1.20300
Zn	Zn	0.45731 0.92025 0.96925 1.23200
Zn	Zn	0.50000 0.50000 0.50000 1.24400
Zn	Zn	-0.00000 0.50000 -0.00000 1.22500
Zn	Zn	0.00000 0.00000 0.50000 1.23300
Zn	Zn	0.50000 0.00000 -0.00000 1.23000
Cu	Cu	0.19145 0.74992 0.53204 0.89800
Cu	Cu	0.69145 0.25008 0.96796 0.91200
Cu	Cu	0.80855 0.25008 0.46796 0.89900
Cu	Cu	0.30855 0.74992 0.03204 0.88300
H 	H 	0.74280 0.59910 0.36200 0.04700
H 	H 	0.84320 0.60160 0.24760 0.04700
H 	H 	0.85160 0.50320 0.20720 0.05200
H 	H 	0.75170 0.50060 0.32080 0.05500
H 	H 	0.19400 0.49720 0.41660 0.06900
H 	H 	0.00100 0.54000 0.59820 0.08500
H 	H 	0.83630 0.90100 0.26220 0.05700
H 	H 	0.73540 0.90050 0.14620 0.03800
H 	H 	0.75020 0.99910 0.17270 0.05100
H 	H 	0.85900 0.99950 0.28590 0.06400
H 	H 	0.51440 0.62510 0.42410 0.03000
H 	H 	0.26200 0.62990 0.58300 0.00300
H 	H 	0.54990 0.66430 0.34840 0.13800
H 	H 	0.54420 0.70080 0.39230 0.14500
H 	H 	0.41360 0.68660 0.34200 0.14400
H 	H 	0.17690 0.68550 0.65050 0.02300
H 	H 	0.90510 0.73040 0.61600 0.06100
H 	H 	0.00220 0.72270 0.68200 0.03800
H 	H 	0.07750 0.77200 0.70640 0.05000
H 	H 	0.92310 0.77850 0.67470 0.08000
H 	H 	0.01400 0.82540 0.62790 0.00500
H 	H 	0.02900 0.86940 0.57150 0.00000
H 	H 	0.21400 0.86690 0.36540 0.02500
H 	H 	0.32020 0.82330 0.30790 0.13600
H 	H 	0.25220 0.78930 0.32200 0.14000
H 	H 	0.39640 0.80190 0.36210 0.14800
H 	H 	0.24280 0.40090 0.13800 0.04100
H 	H 	0.34320 0.39840 0.25240 0.04300
H 	H 	0.35160 0.49680 0.29280 0.04700
H 	H 	0.25170 0.49940 0.17920 0.05000
H 	H 	0.69400 0.50280 0.08340 0.07200
H 	H 	0.50100 0.46000 0.90180 0.08800
H 	H 	0.33630 0.09900 0.23780 0.05000
H 	H 	0.23540 0.09950 0.35380 0.03600
H 	H 	0.25020 0.00090 0.32730 0.04400
H 	H 	0.35900 0.00050 0.21410 0.05400
H 	H 	0.01440 0.37490 0.07590 0.00300
H 	H 	0.76200 0.37010 0.91700 0.01200
H 	H 	0.04990 0.33570 0.15160 0.07800
H 	H 	0.04420 0.29920 0.10770 0.07900
H 	H 	0.91360 0.31340 0.15800 0.10400
H 	H 	0.67690 0.31450 0.84950 0.02900
H 	H 	0.40510 0.26960 0.88400 0.03900
H 	H 	0.50220 0.27730 0.81800 0.03800
H 	H 	0.57750 0.22800 0.79360 0.04200
H 	H 	0.42310 0.22150 0.82530 0.05000
H 	H 	0.51400 0.17460 0.87210 0.01200
H 	H 	0.52900 0.13060 0.92850 0.00300
H 	H 	0.71400 0.13310 0.13460 0.03000
H 	H 	0.82020 0.17670 0.19210 0.14400
H 	H 	0.75220 0.21070 0.17800 0.14900
H 	H 	0.89640 0.19810 0.13790 0.15400
H 	H 	0.25720 0.40090 0.63800 0.04400
H 	H 	0.15680 0.39840 0.75240 0.04300
H 	H 	0.14840 0.49680 0.79280 0.04700
H 	H 	0.24830 0.49940 0.67920 0.05400
H 	H 	0.80600 0.50280 0.58340 0.02800
H 	H 	0.99900 0.46000 0.40180 0.03200
H 	H 	0.16370 0.09900 0.73780 0.04900
H 	H 	0.26460 0.09950 0.85380 0.04300
H 	H 	0.24980 0.00090 0.82730 0.04900
H 	H 	0.14100 0.00050 0.71410 0.05000
H 	H 	0.48560 0.37490 0.57590 0.03000
H 	H 	0.73800 0.37010 0.41700 0.00900
H 	H 	0.45010 0.33570 0.65160 0.13700
H 	H 	0.45580 0.29920 0.60770 0.14100
H 	H 	0.58640 0.31340 0.65800 0.14700
H 	H 	0.82310 0.31450 0.34950 0.02800
H 	H 	0.09490 0.26960 0.38400 0.06700
H 	H 	0.99780 0.27730 0.31800 0.08700
H 	H 	0.92250 0.22800 0.29360 0.00900
H 	H 	0.07690 0.22150 0.32530 0.00000
H 	H 	0.98600 0.17460 0.37210 0.01100
H 	H 	0.97100 0.13060 0.42850 0.01100
H 	H 	0.78600 0.13310 0.63460 0.03100
H 	H 	0.67980 0.17670 0.69210 0.14200
H 	H 	0.74780 0.21070 0.67800 0.14900
H 	H 	0.60360 0.19810 0.63790 0.14900
H 	H 	0.75720 0.59910 0.86200 0.05000
H 	H 	0.65680 0.60160 0.74760 0.04500
H 	H 	0.64840 0.50320 0.70720 0.04900
H 	H 	0.74830 0.50060 0.82080 0.05800
H 	H 	0.30600 0.49720 0.91660 0.02600
H 	H 	0.49900 0.54000 0.09820 0.03000
H 	H 	0.66370 0.90100 0.76220 0.05600
H 	H 	0.76460 0.90050 0.64620 0.04500
H 	H 	0.74980 0.99910 0.67270 0.05600
H 	H 	0.64100 0.99950 0.78590 0.05900
H 	H 	0.98560 0.62510 0.92410 0.05500
H 	H 	0.23800 0.62990 0.08300 -0.00200
H 	H 	0.95010 0.66430 0.84840 0.20300
H 	H 	0.95580 0.70080 0.89230 0.21200
H 	H 	0.08640 0.68660 0.84200 0.19100
H 	H 	0.32310 0.68550 0.15050 0.01800
H 	H 	0.59490 0.73040 0.11600 0.03300
H 	H 	0.49780 0.72270 0.18200 0.03600
H 	H 	0.42250 0.77200 0.20640 0.04100
H 	H 	0.57690 0.77850 0.17470 0.05200
H 	H 	0.48600 0.82540 0.12790 0.00600
H 	H 	0.47100 0.86940 0.07150 0.01000
H 	H 	0.28600 0.86690 0.86540 0.02700
H 	H 	0.17980 0.82330 0.80790 0.13500
H 	H 	0.24780 0.78930 0.82200 0.14200
H 	H 	0.10360 0.80190 0.86210 0.14300
C 	C 	0.65270 0.54801 0.41962 0.38400
C 	C 	0.73230 0.54939 0.34922 -0.07700
C 	C 	0.76320 0.57950 0.32954 -0.01700
C 	C 	0.82450 0.58086 0.26200 -0.00900
C 	C 	0.85900 0.55268 0.21485 -0.08300
C 	C 	0.82910 0.52297 0.23850 -0.01100
C 	C 	0.76830 0.52125 0.30544 -0.01400
C 	C 	0.92170 0.55296 0.13984 0.39300
C 	C 	0.23450 0.54501 0.52935 0.30300
C 	C 	0.11380 0.52176 0.51451 -0.01400
C 	C 	0.11000 0.49789 0.45132 -0.08900
C 	C 	0.00190 0.52296 0.56140 -0.11800
C 	C 	0.91810 0.95097 0.35909 0.36300
C 	C 	0.85620 0.95090 0.28394 -0.05800
C 	C 	0.81960 0.92090 0.24360 -0.03400
C 	C 	0.75780 0.92087 0.17530 0.01000
C 	C 	0.72820 0.94943 0.14849 -0.10300
C 	C 	0.76760 0.97905 0.19054 0.00600
C 	C 	0.83170 0.97925 0.25772 -0.02600
C 	C 	0.64770 0.94934 0.07902 0.40900
C 	C 	0.26720 0.95666 0.46530 0.34000
C 	C 	0.38880 0.97961 0.48303 -0.09000
C 	C 	0.38420 0.00072 0.54909 0.01700
C 	C 	0.49960 0.97835 0.43370 0.03100
C 	C 	0.45000 0.63775 0.45630 -0.01600
C 	C 	0.41990 0.66786 0.44280 0.03200
C 	C 	0.33090 0.68871 0.48700 0.12800
C 	C 	0.26760 0.67413 0.54590 -0.09200
C 	C 	0.30810 0.64270 0.55600 0.04700
C 	C 	0.48840 0.68115 0.37500 -0.39300
C 	C 	0.18060 0.69187 0.60310 0.00100
C 	C 	-0.00000 0.73408 0.63830 -0.07600
C 	C 	0.01600 0.76801 0.66250 -0.13200
C 	C 	0.05900 0.81110 0.58870 0.05300
C 	C 	0.10910 0.82509 0.52540 -0.12200
C 	C 	0.07510 0.85871 0.52360 0.05000
C 	C 	0.18200 0.85860 0.41230 -0.02000
C 	C 	0.22080 0.82660 0.40880 0.03500
C 	C 	0.18880 0.80823 0.46690 0.15000
C 	C 	0.30490 0.80865 0.34440 -0.40200
C 	C 	0.15270 0.45199 0.08038 0.38500
C 	C 	0.23230 0.45061 0.15078 -0.08500
C 	C 	0.26320 0.42050 0.17046 -0.01900
C 	C 	0.32450 0.41914 0.23800 -0.01200
C 	C 	0.35900 0.44732 0.28515 -0.08800
C 	C 	0.32910 0.47703 0.26150 -0.01400
C 	C 	0.26830 0.47875 0.19456 -0.01500
C 	C 	0.42170 0.44704 0.36016 0.39400
C 	C 	0.73450 0.45499 0.97065 0.33300
C 	C 	0.61380 0.47824 0.98549 0.01200
C 	C 	0.61000 0.50211 0.04868 -0.10100
C 	C 	0.50190 0.47704 0.93860 -0.10100
C 	C 	0.41810 0.04903 0.14091 0.36500
C 	C 	0.35620 0.04910 0.21606 -0.06900
C 	C 	0.31960 0.07910 0.25640 -0.03300
C 	C 	0.25780 0.07913 0.32470 0.00400
C 	C 	0.22820 0.05057 0.35151 -0.10400
C 	C 	0.26760 0.02095 0.30946 -0.00100
C 	C 	0.33170 0.02075 0.24228 -0.02600
C 	C 	0.14770 0.05066 0.42098 0.40600
C 	C 	0.76720 0.04334 0.03470 0.32300
C 	C 	0.88880 0.02039 0.01697 -0.16700
C 	C 	0.88420 0.99928 0.95091 0.11200
C 	C 	0.99960 0.02165 0.06630 0.09600
C 	C 	0.95000 0.36225 0.04370 0.00800
C 	C 	0.91990 0.33214 0.05720 -0.00500
C 	C 	0.83090 0.31129 0.01300 0.11000
C 	C 	0.76760 0.32587 0.95410 -0.05500
C 	C 	0.80810 0.35730 0.94400 0.04100
C 	C 	0.98840 0.31885 0.12500 -0.23700
C 	C 	0.68060 0.30813 0.89690 -0.00200
C 	C 	0.50000 0.26592 0.86170 -0.05100
C 	C 	0.51600 0.23199 0.83750 -0.09500
C 	C 	0.55900 0.18890 0.91130 0.05200
C 	C 	0.60910 0.17491 0.97460 -0.08800
C 	C 	0.57510 0.14129 0.97640 0.07900
C 	C 	0.68200 0.14140 0.08770 -0.02800
C 	C 	0.72080 0.17340 0.09120 0.04800
C 	C 	0.68880 0.19177 0.03310 0.11300
C 	C 	0.80490 0.19135 0.15560 -0.41800
C 	C 	0.34730 0.45199 0.58038 0.38300
C 	C 	0.26770 0.45061 0.65078 -0.07800
C 	C 	0.23680 0.42050 0.67046 -0.02100
C 	C 	0.17550 0.41914 0.73800 -0.00900
C 	C 	0.14100 0.44732 0.78515 -0.08900
C 	C 	0.17090 0.47703 0.76150 -0.01100
C 	C 	0.23170 0.47875 0.69456 -0.01800
C 	C 	0.07830 0.44704 0.86016 0.39300
C 	C 	0.76550 0.45499 0.47065 0.34700
C 	C 	0.88620 0.47824 0.48549 -0.12400
C 	C 	0.89000 0.50211 0.54868 0.07400
C 	C 	0.99810 0.47704 0.43860 0.06800
C 	C 	0.08190 0.04903 0.64091 0.36800
C 	C 	0.14380 0.04910 0.71606 -0.07400
C 	C 	0.18040 0.07910 0.75640 -0.02600
C 	C 	0.24220 0.07913 0.82470 -0.00100
C 	C 	0.27180 0.05057 0.85151 -0.09300
C 	C 	0.23240 0.02095 0.80946 -0.00700
C 	C 	0.16830 0.02075 0.74228 -0.01900
C 	C 	0.35230 0.05066 0.92098 0.40000
C 	C 	0.73280 0.04334 0.53470 0.34100
C 	C 	0.61120 0.02039 0.51697 -0.11000
C 	C 	0.61580 0.99928 0.45091 0.03800
C 	C 	0.50040 0.02165 0.56630 0.03900
C 	C 	0.55000 0.36225 0.54370 -0.01700
C 	C 	0.58010 0.33214 0.55720 0.03300
C 	C 	0.66910 0.31129 0.51300 0.12600
C 	C 	0.73240 0.32587 0.45410 -0.08500
C 	C 	0.69190 0.35730 0.44400 0.04300
C 	C 	0.51160 0.31885 0.62500 -0.39200
C 	C 	0.81940 0.30813 0.39690 -0.00300
C 	C 	0.00000 0.26592 0.36170 -0.18300
C 	C 	0.98400 0.23199 0.33750 0.02200
C 	C 	0.94100 0.18890 0.41130 0.06300
C 	C 	0.89090 0.17491 0.47460 -0.12100
C 	C 	0.92490 0.14129 0.47640 0.05500
C 	C 	0.81800 0.14140 0.58770 -0.01700
C 	C 	0.77920 0.17340 0.59120 0.04100
C 	C 	0.81120 0.19177 0.53310 0.15100
C 	C 	0.69510 0.19135 0.65560 -0.41000
C 	C 	0.84730 0.54801 0.91962 0.38000
C 	C 	0.76770 0.54939 0.84922 -0.06900
C 	C 	0.73680 0.57950 0.82954 -0.02200
C 	C 	0.67550 0.58086 0.76200 -0.00400
C 	C 	0.64100 0.55268 0.71485 -0.08800
C 	C 	0.67090 0.52297 0.73850 -0.00600
C 	C 	0.73170 0.52125 0.80544 -0.01900
C 	C 	0.57830 0.55296 0.63984 0.39600
C 	C 	0.26550 0.54501 0.02935 0.31000
C 	C 	0.38620 0.52176 0.01451 -0.14800
C 	C 	0.39000 0.49789 0.95132 0.08800
C 	C 	0.49810 0.52296 0.06140 0.05000
C 	C 	0.58190 0.95097 0.85909 0.36600
C 	C 	0.64380 0.95090 0.78394 -0.06500
C 	C 	0.68040 0.92090 0.74360 -0.02700
C 	C 	0.74220 0.92087 0.67530 0.00300
C 	C 	0.77180 0.94943 0.64849 -0.09200
C 	C 	0.73240 0.97905 0.69054 -0.00000
C 	C 	0.66830 0.97925 0.75772 -0.02000
C 	C 	0.85230 0.94934 0.57902 0.40300
C 	C 	0.23280 0.95666 0.96530 0.35900
C 	C 	0.11120 0.97961 0.98303 -0.02700
C 	C 	0.11580 0.00072 0.04909 -0.06700
C 	C 	0.00040 0.97835 0.93370 -0.02000
C 	C 	0.05000 0.63775 0.95630 -0.03300
C 	C 	0.08010 0.66786 0.94280 0.06900
C 	C 	0.16910 0.68871 0.98700 0.15200
C 	C 	0.23240 0.67413 0.04590 -0.13100
C 	C 	0.19190 0.64270 0.05600 0.05200
C 	C 	0.01160 0.68115 0.87500 -0.56500
C 	C 	0.31940 0.69187 0.10310 0.01100
C 	C 	0.50000 0.73408 0.13830 -0.04800
C 	C 	0.48400 0.76801 0.16250 -0.09900
C 	C 	0.44100 0.81110 0.08870 0.06300
C 	C 	0.39090 0.82509 0.02540 -0.15700
C 	C 	0.42490 0.85871 0.02360 0.02600
C 	C 	0.31800 0.85860 0.91230 -0.00800
C 	C 	0.27920 0.82660 0.90880 0.02900
C 	C 	0.31120 0.80823 0.96690 0.19200
C 	C 	0.19510 0.80865 0.84440 -0.39400
N 	N 	0.39700 0.62412 0.51142 -0.25000
N 	N 	0.10980 0.87456 0.46990 -0.25500
N 	N 	0.10170 0.71867 0.58670 -0.20800
N 	N 	0.08600 0.78186 0.59589 -0.22300
N 	N 	0.89700 0.37588 0.98858 -0.23300
N 	N 	0.60980 0.12544 0.03010 -0.27000
N 	N 	0.60170 0.28133 0.91330 -0.20200
N 	N 	0.58600 0.21814 0.90411 -0.22000
N 	N 	0.60300 0.37588 0.48858 -0.24900
N 	N 	0.89020 0.12544 0.53010 -0.24800
N 	N 	0.89830 0.28133 0.41330 -0.18400
N 	N 	0.91400 0.21814 0.40411 -0.23500
N 	N 	0.10300 0.62412 0.01142 -0.27200
N 	N 	0.39020 0.87456 0.96990 -0.23100
N 	N 	0.39830 0.71867 0.08670 -0.21500
N 	N 	0.41400 0.78186 0.09589 -0.23200
O 	O 	0.60860 0.57432 0.45420 -0.47500
O 	O 	0.63650 0.51953 0.43770 -0.45200
O 	O 	0.93090 0.52685 0.09878 -0.46500
O 	O 	0.95560 0.58100 0.12487 -0.46900
O 	O 	0.34720 0.53917 0.49037 -0.53800
O 	O 	0.22450 0.56949 0.57666 -0.35400
O 	O 	0.94170 0.92335 0.37992 -0.46300
O 	O 	0.94310 0.97877 0.39597 -0.42600
O 	O 	0.64240 0.97539 0.05229 -0.47000
O 	O 	0.59200 0.92285 0.05118 -0.49400
O 	O 	0.15390 0.96054 0.50510 -0.54800
O 	O 	0.27520 0.93313 0.41545 -0.34900
O 	O 	0.30080 0.71750 0.47069 -0.35000
O 	O 	0.22980 0.77852 0.46312 -0.36500
O 	O 	0.10860 0.42568 0.04580 -0.49800
O 	O 	0.13650 0.48047 0.06230 -0.46800
O 	O 	0.43090 0.47315 0.40122 -0.47000
O 	O 	0.45560 0.41900 0.37513 -0.47800
O 	O 	0.84720 0.46083 0.00963 -0.56100
O 	O 	0.72450 0.43051 0.92334 -0.35100
O 	O 	0.44170 0.07665 0.12008 -0.48500
O 	O 	0.44310 0.02123 0.10403 -0.44900
O 	O 	0.14240 0.02461 0.44771 -0.47100
O 	O 	0.09200 0.07715 0.44882 -0.49300
O 	O 	0.65390 0.03946 0.99490 -0.51300
O 	O 	0.77520 0.06687 0.08455 -0.34500
O 	O 	0.80080 0.28250 0.02931 -0.35600
O 	O 	0.72980 0.22148 0.03688 -0.36700
O 	O 	0.39140 0.42568 0.54580 -0.47700
O 	O 	0.36350 0.48047 0.56230 -0.45300
O 	O 	0.06910 0.47315 0.90122 -0.46300
O 	O 	0.04440 0.41900 0.87513 -0.47800
O 	O 	0.65280 0.46083 0.50963 -0.54600
O 	O 	0.77550 0.43051 0.42334 -0.35900
O 	O 	0.05830 0.07665 0.62008 -0.48600
O 	O 	0.05690 0.02123 0.60403 -0.45100
O 	O 	0.35760 0.02461 0.94771 -0.45000
O 	O 	0.40800 0.07715 0.94882 -0.46900
O 	O 	0.84610 0.03946 0.49490 -0.53800
O 	O 	0.72480 0.06687 0.58455 -0.34400
O 	O 	0.69920 0.28250 0.52931 -0.34800
O 	O 	0.77020 0.22148 0.53688 -0.36300
O 	O 	0.89140 0.57432 0.95420 -0.45300
O 	O 	0.86350 0.51953 0.93770 -0.43200
O 	O 	0.56910 0.52685 0.59878 -0.46700
O 	O 	0.54440 0.58100 0.62487 -0.47600
O 	O 	0.15280 0.53917 0.99037 -0.51100
O 	O 	0.27550 0.56949 0.07666 -0.36100
O 	O 	0.55830 0.92335 0.87992 -0.46700
O 	O 	0.55690 0.97877 0.89597 -0.43000
O 	O 	0.85760 0.97539 0.55229 -0.45100
O 	O 	0.90800 0.92285 0.55118 -0.46700
O 	O 	0.34610 0.96054 0.00510 -0.57400
O 	O 	0.22480 0.93313 0.91545 -0.34700
O 	O 	0.19920 0.71750 0.97069 -0.34200
O 	O 	0.27020 0.77852 0.96312 -0.36000
