data_crystal

_cell_length_a 13.81660
_cell_length_b 21.78470
_cell_length_c 20.14140
_cell_angle_alpha 90.00000
_cell_angle_beta  103.31200
_cell_angle_gamma 90.00000

_symmetry_space_group_name_	'P 1'
_symmetry_space_group_name_H-M	'P 1'

loop_
_symmetry_equiv_pos_as_xyz
  x,y,z

loop_
_atom_site_label
_atom_site_type_symbol
_atom_site_fract_x
_atom_site_fract_y
_atom_site_fract_z
_atom_site_charge
Zn	Zn	0.84190 0.51560 0.15870 1.21300
Zn	Zn	0.62940 0.48560 0.12800 1.21700
O 	O 	0.83920 0.46520 0.24320 -0.45900
O 	O 	0.68210 0.43160 0.21020 -0.46400
O 	O 	0.81810 0.06790 0.60720 -0.46400
O 	O 	0.65520 0.08390 0.56700 -0.44900
O 	O 	0.56560 0.26450 0.37410 -0.21100
O 	O 	0.78920 0.55870 0.06780 -0.46900
O 	O 	0.62450 0.54570 0.05080 -0.46000
O 	O 	0.66720 0.93970 0.69190 -0.47200
O 	O 	0.82360 0.90600 0.70840 -0.44200
O 	O 	0.90420 0.70770 0.88130 -0.21900
C 	C 	0.76740 0.43160 0.24880 0.39400
C 	C 	0.78500 0.38570 0.30620 -0.11000
C 	C 	0.88120 0.37510 0.34440 0.03900
H 	H 	0.93440 0.39920 0.33580 0.03500
C 	C 	0.90120 0.33050 0.39440 -0.09700
H 	H 	0.96710 0.32300 0.41970 0.06900
C 	C 	0.82080 0.29690 0.40640 0.03600
C 	C 	0.81880 0.24500 0.45360 0.03100
C 	C 	0.89410 0.21460 0.49840 -0.09200
H 	H 	0.96160 0.22640 0.50340 0.07800
C 	C 	0.86860 0.16630 0.53590 0.03200
H 	H 	0.91960 0.14420 0.56620 0.04700
C 	C 	0.76970 0.14930 0.53010 -0.10900
C 	C 	0.74550 0.09640 0.57140 0.37800
C 	C 	0.69370 0.18020 0.48490 0.02200
H 	H 	0.62620 0.16880 0.48040 0.04700
C 	C 	0.71880 0.22770 0.44700 -0.06000
C 	C 	0.65440 0.26650 0.39340 0.16800
C 	C 	0.72510 0.30850 0.36940 -0.06300
C 	C 	0.70600 0.35230 0.31890 0.03200
H 	H 	0.64010 0.35940 0.29320 0.04500
C 	C 	0.70070 0.56990 0.03770 0.38900
C 	C 	0.68430 0.61630 0.98160 -0.10700
C 	C 	0.58780 0.63790 0.95440 0.03100
H 	H 	0.53390 0.62150 0.97060 0.04000
C 	C 	0.56950 0.68300 0.90430 -0.09200
H 	H 	0.50380 0.69730 0.88600 0.06900
C 	C 	0.64960 0.70670 0.88150 0.03200
C 	C 	0.65490 0.75590 0.83320 0.03200
C 	C 	0.58070 0.79280 0.79470 -0.08700
H 	H 	0.51270 0.78650 0.79490 0.07000
C 	C 	0.60940 0.83910 0.75600 0.03600
H 	H 	0.56000 0.86510 0.72970 0.04100
C 	C 	0.70930 0.84870 0.75460 -0.10400
C 	C 	0.73540 0.90190 0.71530 0.38100
C 	C 	0.78270 0.80990 0.79090 0.02700
H 	H 	0.85030 0.81490 0.78890 0.04900
C 	C 	0.75510 0.76410 0.82960 -0.05900
C 	C 	0.81680 0.71770 0.87480 0.16500
C 	C 	0.74650 0.68350 0.90840 -0.06200
C 	C 	0.76480 0.63950 0.95780 0.02800
H 	H 	0.83040 0.62490 0.97570 0.04200
N 	N 	0.48560 0.48723 0.13210 -0.24800
C 	C 	0.42160 0.52530 0.09070 0.06900
H 	H 	0.44410 0.54890 0.05750 0.01600
C 	C 	0.32370 0.53070 0.09570 -0.11600
H 	H 	0.27960 0.55710 0.06560 0.07400
C 	C 	0.28980 0.49750 0.14500 0.06000
C 	C 	0.35620 0.45860 0.18700 -0.12200
H 	H 	0.33530 0.43450 0.22050 0.07400
C 	C 	0.45260 0.45500 0.17960 0.07400
H 	H 	0.49780 0.42870 0.20920 0.00800
N 	N 	0.98780 0.51377 0.16070 -0.09300
C 	C 	0.04030 0.45978 0.18030 0.04700
H 	H 	0.00870 0.42610 0.19650 0.01600
C 	C 	0.13900 0.45507 0.17600 -0.10400
H 	H 	0.17490 0.41820 0.18930 0.07100
C 	C 	0.18520 0.50435 0.15210 0.01100
C 	C 	0.13280 0.55833 0.13260 -0.08900
H 	H 	0.16440 0.59200 0.11630 0.06300
C 	C 	0.03410 0.56304 0.13690 0.04900
H 	H 	0.99820 0.59990 0.12350 0.00800
N 	N 	0.98700 0.51320 0.15410 -0.10900
C 	C 	0.06070 0.50230 0.21270 -0.03800
H 	H 	0.04380 0.49940 0.25570 0.03600
C 	C 	0.15910 0.49580 0.20840 0.01100
H 	H 	0.20950 0.48840 0.24840 0.02800
C 	C 	0.18390 0.50020 0.14540 0.01300
C 	C 	0.11020 0.51100 0.08690 -0.01600
H 	H 	0.12710 0.51400 0.04380 0.03800
C 	C 	0.01170 0.51750 0.09120 -0.04000
H 	H 	0.96140 0.52490 0.05120 0.04000
Zn	Zn	0.84190 0.98440 0.65870 1.21400
Zn	Zn	0.62940 0.01440 0.62800 1.21800
O 	O 	0.83920 0.03480 0.74320 -0.45700
O 	O 	0.68210 0.06840 0.71020 -0.46300
O 	O 	0.81810 0.43210 0.10720 -0.46300
O 	O 	0.65520 0.41610 0.06700 -0.44900
O 	O 	0.56560 0.23550 0.87410 -0.21100
O 	O 	0.78920 0.94130 0.56780 -0.46900
O 	O 	0.62450 0.95430 0.55080 -0.46000
O 	O 	0.66720 0.56030 0.19190 -0.47200
O 	O 	0.82360 0.59400 0.20840 -0.44200
O 	O 	0.90420 0.79230 0.38130 -0.21900
C 	C 	0.76740 0.06840 0.74880 0.39400
C 	C 	0.78500 0.11430 0.80620 -0.11000
C 	C 	0.88120 0.12490 0.84440 0.03900
H 	H 	0.93440 0.10080 0.83580 0.03500
C 	C 	0.90120 0.16950 0.89440 -0.09700
H 	H 	0.96710 0.17700 0.91970 0.07000
C 	C 	0.82080 0.20310 0.90640 0.03700
C 	C 	0.81880 0.25500 0.95360 0.03100
C 	C 	0.89410 0.28540 0.99840 -0.09100
H 	H 	0.96160 0.27360 0.00340 0.07700
C 	C 	0.86860 0.33370 0.03590 0.03100
H 	H 	0.91960 0.35580 0.06620 0.04700
C 	C 	0.76970 0.35070 0.03010 -0.10900
C 	C 	0.74550 0.40360 0.07140 0.37800
C 	C 	0.69370 0.31980 0.98490 0.02200
H 	H 	0.62620 0.33120 0.98040 0.04700
C 	C 	0.71880 0.27230 0.94700 -0.05900
C 	C 	0.65440 0.23350 0.89340 0.16800
C 	C 	0.72510 0.19150 0.86940 -0.06300
C 	C 	0.70600 0.14770 0.81890 0.03200
H 	H 	0.64010 0.14060 0.79320 0.04500
C 	C 	0.70070 0.93010 0.53770 0.38900
C 	C 	0.68430 0.88370 0.48160 -0.10700
C 	C 	0.58780 0.86210 0.45440 0.03100
H 	H 	0.53390 0.87850 0.47060 0.04000
C 	C 	0.56950 0.81700 0.40430 -0.09200
H 	H 	0.50380 0.80270 0.38600 0.06900
C 	C 	0.64960 0.79330 0.38150 0.03300
C 	C 	0.65490 0.74410 0.33320 0.03200
C 	C 	0.58070 0.70720 0.29470 -0.08700
H 	H 	0.51270 0.71350 0.29490 0.07000
C 	C 	0.60940 0.66090 0.25600 0.03600
H 	H 	0.56000 0.63490 0.22970 0.04100
C 	C 	0.70930 0.65130 0.25460 -0.10400
C 	C 	0.73540 0.59810 0.21530 0.38100
C 	C 	0.78270 0.69010 0.29090 0.02700
H 	H 	0.85030 0.68510 0.28890 0.04900
C 	C 	0.75510 0.73590 0.32960 -0.05900
C 	C 	0.81680 0.78230 0.37480 0.16500
C 	C 	0.74650 0.81650 0.40840 -0.06200
C 	C 	0.76480 0.86050 0.45780 0.02800
H 	H 	0.83040 0.87510 0.47570 0.04100
N 	N 	0.48560 0.01277 0.63210 -0.24800
C 	C 	0.42160 0.97470 0.59070 0.06900
H 	H 	0.44410 0.95110 0.55750 0.01600
C 	C 	0.32370 0.96930 0.59570 -0.11500
H 	H 	0.27960 0.94290 0.56560 0.07400
C 	C 	0.28980 0.00250 0.64500 0.05800
C 	C 	0.35620 0.04140 0.68700 -0.12100
H 	H 	0.33530 0.06550 0.72050 0.07400
C 	C 	0.45260 0.04500 0.67960 0.07300
H 	H 	0.49780 0.07130 0.70920 0.00800
N 	N 	0.98780 0.98623 0.66070 -0.09400
C 	C 	0.04030 0.04022 0.68030 0.06000
H 	H 	0.00870 0.07390 0.69650 0.01200
C 	C 	0.13900 0.04493 0.67600 -0.12000
H 	H 	0.17490 0.08180 0.68930 0.07600
C 	C 	0.18520 0.99565 0.65210 0.01200
C 	C 	0.13280 0.94167 0.63260 -0.09500
H 	H 	0.16440 0.90800 0.61630 0.06500
C 	C 	0.03410 0.93696 0.63690 0.05500
H 	H 	0.99820 0.90010 0.62350 0.00600
N 	N 	0.98700 0.98680 0.65410 -0.10900
C 	C 	0.06070 0.99770 0.71270 -0.04900
H 	H 	0.04380 0.00060 0.75570 0.03900
C 	C 	0.15910 0.00420 0.70840 0.02600
H 	H 	0.20950 0.01160 0.74840 0.02300
C 	C 	0.18390 0.99980 0.64540 0.01300
C 	C 	0.11020 0.98900 0.58690 -0.01100
H 	H 	0.12710 0.98600 0.54380 0.03600
C 	C 	0.01170 0.98250 0.59120 -0.04400
H 	H 	0.96140 0.97510 0.55120 0.04100
Zn	Zn	0.15810 0.01560 0.34130 1.21400
Zn	Zn	0.37060 0.98560 0.37200 1.21800
O 	O 	0.16080 0.96520 0.25680 -0.45700
O 	O 	0.31790 0.93160 0.28980 -0.46300
O 	O 	0.18190 0.56790 0.89280 -0.46300
O 	O 	0.34480 0.58390 0.93300 -0.44900
O 	O 	0.43440 0.76450 0.12590 -0.21100
O 	O 	0.21080 0.05870 0.43220 -0.46900
O 	O 	0.37550 0.04570 0.44920 -0.46000
O 	O 	0.33280 0.43970 0.80810 -0.47200
O 	O 	0.17640 0.40600 0.79160 -0.44200
O 	O 	0.09580 0.20770 0.61870 -0.21900
C 	C 	0.23260 0.93160 0.25120 0.39400
C 	C 	0.21500 0.88570 0.19380 -0.11000
C 	C 	0.11880 0.87510 0.15560 0.03900
H 	H 	0.06560 0.89920 0.16420 0.03500
C 	C 	0.09880 0.83050 0.10560 -0.09700
H 	H 	0.03290 0.82300 0.08030 0.07000
C 	C 	0.17920 0.79690 0.09360 0.03700
C 	C 	0.18120 0.74500 0.04640 0.03100
C 	C 	0.10590 0.71460 0.00160 -0.09100
H 	H 	0.03840 0.72640 0.99660 0.07700
C 	C 	0.13140 0.66630 0.96410 0.03100
H 	H 	0.08040 0.64420 0.93380 0.04700
C 	C 	0.23030 0.64930 0.96990 -0.10900
C 	C 	0.25450 0.59640 0.92860 0.37800
C 	C 	0.30630 0.68020 0.01510 0.02200
H 	H 	0.37380 0.66880 0.01960 0.04700
C 	C 	0.28120 0.72770 0.05300 -0.05900
C 	C 	0.34560 0.76650 0.10660 0.16800
C 	C 	0.27490 0.80850 0.13060 -0.06300
C 	C 	0.29400 0.85230 0.18110 0.03200
H 	H 	0.35990 0.85940 0.20680 0.04500
C 	C 	0.29930 0.06990 0.46230 0.38900
C 	C 	0.31570 0.11630 0.51840 -0.10700
C 	C 	0.41220 0.13790 0.54560 0.03100
H 	H 	0.46610 0.12150 0.52940 0.04000
C 	C 	0.43050 0.18300 0.59570 -0.09200
H 	H 	0.49620 0.19730 0.61400 0.06900
C 	C 	0.35040 0.20670 0.61850 0.03300
C 	C 	0.34510 0.25590 0.66680 0.03200
C 	C 	0.41930 0.29280 0.70530 -0.08700
H 	H 	0.48730 0.28650 0.70510 0.07000
C 	C 	0.39060 0.33910 0.74400 0.03600
H 	H 	0.44000 0.36510 0.77030 0.04100
C 	C 	0.29070 0.34870 0.74540 -0.10400
C 	C 	0.26460 0.40190 0.78470 0.38100
C 	C 	0.21730 0.30990 0.70910 0.02700
H 	H 	0.14970 0.31490 0.71110 0.04900
C 	C 	0.24490 0.26410 0.67040 -0.05900
C 	C 	0.18320 0.21770 0.62520 0.16500
C 	C 	0.25350 0.18350 0.59160 -0.06200
C 	C 	0.23520 0.13950 0.54220 0.02800
H 	H 	0.16960 0.12490 0.52430 0.04100
N 	N 	0.51440 0.98723 0.36790 -0.24800
C 	C 	0.57840 0.02530 0.40930 0.06900
H 	H 	0.55590 0.04890 0.44250 0.01600
C 	C 	0.67630 0.03070 0.40430 -0.11500
H 	H 	0.72040 0.05710 0.43440 0.07400
C 	C 	0.71020 0.99750 0.35500 0.05800
C 	C 	0.64380 0.95860 0.31300 -0.12100
H 	H 	0.66470 0.93450 0.27950 0.07400
C 	C 	0.54740 0.95500 0.32040 0.07300
H 	H 	0.50220 0.92870 0.29080 0.00800
N 	N 	0.01220 0.01377 0.33930 -0.09400
C 	C 	0.95970 0.95978 0.31970 0.06000
H 	H 	0.99130 0.92610 0.30350 0.01200
C 	C 	0.86100 0.95507 0.32400 -0.12000
H 	H 	0.82510 0.91820 0.31070 0.07600
C 	C 	0.81480 0.00435 0.34790 0.01200
C 	C 	0.86720 0.05833 0.36740 -0.09500
H 	H 	0.83560 0.09200 0.38370 0.06500
C 	C 	0.96590 0.06304 0.36310 0.05500
H 	H 	0.00180 0.09990 0.37650 0.00600
N 	N 	0.01300 0.01320 0.34590 -0.10900
C 	C 	0.93930 0.00230 0.28730 -0.04900
H 	H 	0.95620 0.99940 0.24430 0.03900
C 	C 	0.84090 0.99580 0.29160 0.02600
H 	H 	0.79050 0.98840 0.25160 0.02300
C 	C 	0.81610 0.00020 0.35460 0.01300
C 	C 	0.88980 0.01100 0.41310 -0.01100
H 	H 	0.87290 0.01400 0.45620 0.03600
C 	C 	0.98830 0.01750 0.40880 -0.04400
H 	H 	0.03860 0.02490 0.44880 0.04100
Zn	Zn	0.15810 0.48440 0.84130 1.21400
Zn	Zn	0.37060 0.51440 0.87200 1.21800
O 	O 	0.16080 0.53480 0.75680 -0.45800
O 	O 	0.31790 0.56840 0.78980 -0.46300
O 	O 	0.18190 0.93210 0.39280 -0.46300
O 	O 	0.34480 0.91610 0.43300 -0.44800
O 	O 	0.43440 0.73550 0.62590 -0.21100
O 	O 	0.21080 0.44130 0.93220 -0.46900
O 	O 	0.37550 0.45430 0.94920 -0.46000
O 	O 	0.33280 0.06030 0.30810 -0.47200
O 	O 	0.17640 0.09400 0.29160 -0.44200
O 	O 	0.09580 0.29230 0.11870 -0.21900
C 	C 	0.23260 0.56840 0.75120 0.39400
C 	C 	0.21500 0.61430 0.69380 -0.11000
C 	C 	0.11880 0.62490 0.65560 0.03900
H 	H 	0.06560 0.60080 0.66420 0.03500
C 	C 	0.09880 0.66950 0.60560 -0.09700
H 	H 	0.03290 0.67700 0.58030 0.06900
C 	C 	0.17920 0.70310 0.59360 0.03600
C 	C 	0.18120 0.75500 0.54640 0.03100
C 	C 	0.10590 0.78540 0.50160 -0.09200
H 	H 	0.03840 0.77360 0.49660 0.07800
C 	C 	0.13140 0.83370 0.46410 0.03200
H 	H 	0.08040 0.85580 0.43380 0.04700
C 	C 	0.23030 0.85070 0.46990 -0.10900
C 	C 	0.25450 0.90360 0.42860 0.37800
C 	C 	0.30630 0.81980 0.51510 0.02200
H 	H 	0.37380 0.83120 0.51960 0.04700
C 	C 	0.28120 0.77230 0.55300 -0.06000
C 	C 	0.34560 0.73350 0.60660 0.16800
C 	C 	0.27490 0.69150 0.63060 -0.06300
C 	C 	0.29400 0.64770 0.68110 0.03200
H 	H 	0.35990 0.64060 0.70680 0.04500
C 	C 	0.29930 0.43010 0.96230 0.38900
C 	C 	0.31570 0.38370 0.01840 -0.10700
C 	C 	0.41220 0.36210 0.04560 0.03100
H 	H 	0.46610 0.37850 0.02940 0.04000
C 	C 	0.43050 0.31700 0.09570 -0.09200
H 	H 	0.49620 0.30270 0.11400 0.06900
C 	C 	0.35040 0.29330 0.11850 0.03200
C 	C 	0.34510 0.24410 0.16680 0.03200
C 	C 	0.41930 0.20720 0.20530 -0.08700
H 	H 	0.48730 0.21350 0.20510 0.07000
C 	C 	0.39060 0.16090 0.24400 0.03600
H 	H 	0.44000 0.13490 0.27030 0.04100
C 	C 	0.29070 0.15130 0.24540 -0.10400
C 	C 	0.26460 0.09810 0.28470 0.38100
C 	C 	0.21730 0.19010 0.20910 0.02700
H 	H 	0.14970 0.18510 0.21110 0.04900
C 	C 	0.24490 0.23590 0.17040 -0.05900
C 	C 	0.18320 0.28230 0.12520 0.16500
C 	C 	0.25350 0.31650 0.09160 -0.06200
C 	C 	0.23520 0.36050 0.04220 0.02800
H 	H 	0.16960 0.37510 0.02430 0.04200
N 	N 	0.51440 0.51277 0.86790 -0.24800
C 	C 	0.57840 0.47470 0.90930 0.06900
H 	H 	0.55590 0.45110 0.94250 0.01600
C 	C 	0.67630 0.46930 0.90430 -0.11600
H 	H 	0.72040 0.44290 0.93440 0.07400
C 	C 	0.71020 0.50250 0.85500 0.06000
C 	C 	0.64380 0.54140 0.81300 -0.12200
H 	H 	0.66470 0.56550 0.77950 0.07400
C 	C 	0.54740 0.54500 0.82040 0.07400
H 	H 	0.50220 0.57130 0.79080 0.00800
N 	N 	0.01220 0.48623 0.83930 -0.09300
C 	C 	0.95970 0.54022 0.81970 0.04700
H 	H 	0.99130 0.57390 0.80350 0.01600
C 	C 	0.86100 0.54493 0.82400 -0.10400
H 	H 	0.82510 0.58180 0.81070 0.07100
C 	C 	0.81480 0.49565 0.84790 0.01100
C 	C 	0.86720 0.44167 0.86740 -0.08900
H 	H 	0.83560 0.40800 0.88370 0.06300
C 	C 	0.96590 0.43696 0.86310 0.04900
H 	H 	0.00180 0.40010 0.87650 0.00800
N 	N 	0.01300 0.48680 0.84590 -0.10900
C 	C 	0.93930 0.49770 0.78730 -0.03800
H 	H 	0.95620 0.50060 0.74430 0.03600
C 	C 	0.84090 0.50420 0.79160 0.01100
H 	H 	0.79050 0.51160 0.75160 0.02800
C 	C 	0.81610 0.49980 0.85460 0.01300
C 	C 	0.88980 0.48900 0.91310 -0.01600
H 	H 	0.87290 0.48600 0.95620 0.03800
C 	C 	0.98830 0.48250 0.90880 -0.04000
H 	H 	0.03860 0.47510 0.94880 0.04000
