data_crystal

_cell_length_a 7.64830
_cell_length_b 30.75460
_cell_length_c 11.21560
_cell_angle_alpha 90.00000
_cell_angle_beta  90.00000
_cell_angle_gamma 90.00000

_symmetry_space_group_name_	'P 1'
_symmetry_space_group_name_H-M	'P 1'

loop_
_symmetry_equiv_pos_as_xyz
  x,y,z

loop_
_atom_site_label
_atom_site_type_symbol
_atom_site_fract_x
_atom_site_fract_y
_atom_site_fract_z
_atom_site_charge
C 	C 	0.59460 0.34770 0.62340 0.06700
H 	H 	0.62020 0.33840 0.54640 -0.07100
C 	C 	0.53990 0.34840 0.81160 -0.02000
H 	H 	0.51940 0.33910 0.88930 -0.04600
C 	C 	0.54120 0.38980 0.77500 -0.01100
H 	H 	0.52330 0.41430 0.82200 0.03900
C 	C 	0.58850 0.42710 0.57670 -0.13900
H 	H 	0.63760 0.41830 0.50070 0.06100
H 	H 	0.66670 0.44830 0.61230 0.07600
C 	C 	0.40900 0.44780 0.55660 0.08500
C 	C 	0.35490 0.48280 0.62470 -0.10800
H 	H 	0.42630 0.49320 0.68550 0.06500
C 	C 	0.19280 0.50280 0.60280 -0.02800
H 	H 	0.15740 0.52580 0.65090 0.02800
C 	C 	0.08560 0.48930 0.51240 -0.01000
C 	C 	0.14280 0.45310 0.44700 -0.02800
H 	H 	0.07220 0.44230 0.38650 0.02300
C 	C 	0.30050 0.43340 0.47010 -0.11000
H 	H 	0.33330 0.40930 0.42500 0.04500
N 	N 	0.57420 0.32166 0.71550 -0.33400
N 	N 	0.57380 0.38920 0.65520 -0.10700
C 	C 	0.40540 0.84770 0.37660 0.06600
H 	H 	0.37980 0.83840 0.45360 -0.07200
C 	C 	0.46010 0.84840 0.18840 -0.02100
H 	H 	0.48060 0.83910 0.11070 -0.04700
C 	C 	0.45880 0.88980 0.22500 -0.01200
H 	H 	0.47670 0.91430 0.17800 0.03800
C 	C 	0.41150 0.92710 0.42330 -0.13900
H 	H 	0.36240 0.91830 0.49930 0.06100
H 	H 	0.33330 0.94830 0.38770 0.07600
C 	C 	0.59100 0.94780 0.44340 0.08500
C 	C 	0.64510 0.98280 0.37530 -0.10700
H 	H 	0.57370 0.99320 0.31450 0.06500
C 	C 	0.80720 0.00280 0.39720 -0.02800
H 	H 	0.84260 0.02580 0.34910 0.02800
C 	C 	0.91440 0.98930 0.48760 -0.00900
C 	C 	0.85720 0.95310 0.55300 -0.02800
H 	H 	0.92780 0.94230 0.61350 0.02300
C 	C 	0.69950 0.93340 0.52990 -0.11000
H 	H 	0.66670 0.90930 0.57500 0.04500
N 	N 	0.42580 0.82166 0.28450 -0.33400
N 	N 	0.42620 0.88920 0.34480 -0.10700
C 	C 	0.40540 0.65230 0.37660 0.06600
H 	H 	0.37980 0.66160 0.45360 -0.07200
C 	C 	0.46010 0.65160 0.18840 -0.02100
H 	H 	0.48060 0.66090 0.11070 -0.04700
C 	C 	0.45880 0.61020 0.22500 -0.01200
H 	H 	0.47670 0.58570 0.17800 0.03800
C 	C 	0.41150 0.57290 0.42330 -0.13900
H 	H 	0.36240 0.58170 0.49930 0.06100
H 	H 	0.33330 0.55170 0.38770 0.07600
C 	C 	0.59100 0.55220 0.44340 0.08500
C 	C 	0.64510 0.51720 0.37530 -0.10800
H 	H 	0.57370 0.50680 0.31450 0.06500
C 	C 	0.80720 0.49720 0.39720 -0.02800
H 	H 	0.84260 0.47420 0.34910 0.02800
C 	C 	0.91440 0.51070 0.48760 -0.01000
C 	C 	0.85720 0.54690 0.55300 -0.02800
H 	H 	0.92780 0.55770 0.61350 0.02300
C 	C 	0.69950 0.56660 0.52990 -0.11000
H 	H 	0.66670 0.59070 0.57500 0.04500
N 	N 	0.42580 0.67834 0.28450 -0.33400
N 	N 	0.42620 0.61080 0.34480 -0.10700
C 	C 	0.59460 0.15230 0.62340 0.06600
H 	H 	0.62020 0.16160 0.54640 -0.07200
C 	C 	0.53990 0.15160 0.81160 -0.02100
H 	H 	0.51940 0.16090 0.88930 -0.04700
C 	C 	0.54120 0.11020 0.77500 -0.01200
H 	H 	0.52330 0.08570 0.82200 0.03800
C 	C 	0.58850 0.07290 0.57670 -0.13900
H 	H 	0.63760 0.08170 0.50070 0.06100
H 	H 	0.66670 0.05170 0.61230 0.07600
C 	C 	0.40900 0.05220 0.55660 0.08500
C 	C 	0.35490 0.01720 0.62470 -0.10700
H 	H 	0.42630 0.00680 0.68550 0.06500
C 	C 	0.19280 0.99720 0.60280 -0.02800
H 	H 	0.15740 0.97420 0.65090 0.02800
C 	C 	0.08560 0.01070 0.51240 -0.00900
C 	C 	0.14280 0.04690 0.44700 -0.02800
H 	H 	0.07220 0.05770 0.38650 0.02300
C 	C 	0.30050 0.06660 0.47010 -0.11000
H 	H 	0.33330 0.09070 0.42500 0.04500
N 	N 	0.57420 0.17834 0.71550 -0.33400
N 	N 	0.57380 0.11080 0.65520 -0.10700
Cd	Cd	0.59523 0.25000 0.71833 1.05500
Cd	Cd	0.40477 0.75000 0.28167 1.05500
C 	C 	0.90540 0.65230 0.12340 0.06700
H 	H 	0.87980 0.66160 0.04640 -0.07200
C 	C 	0.96010 0.65160 0.31160 -0.02100
H 	H 	0.98060 0.66090 0.38930 -0.04700
C 	C 	0.95880 0.61020 0.27500 -0.01200
H 	H 	0.97670 0.58570 0.32200 0.03800
C 	C 	0.91150 0.57290 0.07670 -0.13700
H 	H 	0.86240 0.58170 0.00070 0.06000
H 	H 	0.83330 0.55170 0.11230 0.07600
C 	C 	0.09100 0.55220 0.05660 0.08200
C 	C 	0.14510 0.51720 0.12470 -0.10600
H 	H 	0.07370 0.50680 0.18550 0.06400
C 	C 	0.30720 0.49720 0.10280 -0.02900
H 	H 	0.34260 0.47420 0.15090 0.02900
C 	C 	0.41440 0.51070 0.01240 -0.00900
C 	C 	0.35720 0.54690 0.94700 -0.02900
H 	H 	0.42780 0.55770 0.88650 0.02300
C 	C 	0.19950 0.56660 0.97010 -0.10800
H 	H 	0.16670 0.59070 0.92500 0.04400
N 	N 	0.92580 0.67834 0.21550 -0.33400
N 	N 	0.92620 0.61080 0.15520 -0.10800
C 	C 	0.09460 0.15230 0.87660 0.06700
H 	H 	0.12020 0.16160 0.95360 -0.07200
C 	C 	0.03990 0.15160 0.68840 -0.02100
H 	H 	0.01940 0.16090 0.61070 -0.04600
C 	C 	0.04120 0.11020 0.72500 -0.01200
H 	H 	0.02330 0.08570 0.67800 0.03800
C 	C 	0.08850 0.07290 0.92330 -0.13700
H 	H 	0.13760 0.08170 0.99930 0.06000
H 	H 	0.16670 0.05170 0.88770 0.07600
C 	C 	0.90900 0.05220 0.94340 0.08200
C 	C 	0.85490 0.01720 0.87530 -0.10600
H 	H 	0.92630 0.00680 0.81450 0.06400
C 	C 	0.69280 0.99720 0.89720 -0.02900
H 	H 	0.65740 0.97420 0.84910 0.02900
C 	C 	0.58560 0.01070 0.98760 -0.00900
C 	C 	0.64280 0.04690 0.05300 -0.02900
H 	H 	0.57220 0.05770 0.11350 0.02300
C 	C 	0.80050 0.06660 0.02990 -0.10800
H 	H 	0.83330 0.09070 0.07500 0.04400
N 	N 	0.07420 0.17834 0.78450 -0.33400
N 	N 	0.07380 0.11080 0.84480 -0.10800
C 	C 	0.09460 0.34770 0.87660 0.06700
H 	H 	0.12020 0.33840 0.95360 -0.07200
C 	C 	0.03990 0.34840 0.68840 -0.02100
H 	H 	0.01940 0.33910 0.61070 -0.04700
C 	C 	0.04120 0.38980 0.72500 -0.01200
H 	H 	0.02330 0.41430 0.67800 0.03800
C 	C 	0.08850 0.42710 0.92330 -0.13700
H 	H 	0.13760 0.41830 0.99930 0.06000
H 	H 	0.16670 0.44830 0.88770 0.07600
C 	C 	0.90900 0.44780 0.94340 0.08200
C 	C 	0.85490 0.48280 0.87530 -0.10600
H 	H 	0.92630 0.49320 0.81450 0.06400
C 	C 	0.69280 0.50280 0.89720 -0.02900
H 	H 	0.65740 0.52580 0.84910 0.02900
C 	C 	0.58560 0.48930 0.98760 -0.00900
C 	C 	0.64280 0.45310 0.05300 -0.02900
H 	H 	0.57220 0.44230 0.11350 0.02300
C 	C 	0.80050 0.43340 0.02990 -0.10800
H 	H 	0.83330 0.40930 0.07500 0.04400
N 	N 	0.07420 0.32166 0.78450 -0.33400
N 	N 	0.07380 0.38920 0.84480 -0.10800
C 	C 	0.90540 0.84770 0.12340 0.06700
H 	H 	0.87980 0.83840 0.04640 -0.07200
C 	C 	0.96010 0.84840 0.31160 -0.02100
H 	H 	0.98060 0.83910 0.38930 -0.04600
C 	C 	0.95880 0.88980 0.27500 -0.01200
H 	H 	0.97670 0.91430 0.32200 0.03800
C 	C 	0.91150 0.92710 0.07670 -0.13700
H 	H 	0.86240 0.91830 0.00070 0.06000
H 	H 	0.83330 0.94830 0.11230 0.07600
C 	C 	0.09100 0.94780 0.05660 0.08200
C 	C 	0.14510 0.98280 0.12470 -0.10600
H 	H 	0.07370 0.99320 0.18550 0.06400
C 	C 	0.30720 0.00280 0.10280 -0.02900
H 	H 	0.34260 0.02580 0.15090 0.02900
C 	C 	0.41440 0.98930 0.01240 -0.00900
C 	C 	0.35720 0.95310 0.94700 -0.02900
H 	H 	0.42780 0.94230 0.88650 0.02300
C 	C 	0.19950 0.93340 0.97010 -0.10800
H 	H 	0.16670 0.90930 0.92500 0.04400
N 	N 	0.92580 0.82166 0.21550 -0.33400
N 	N 	0.92620 0.88920 0.15520 -0.10800
Cd	Cd	0.90477 0.75000 0.21833 1.05500
Cd	Cd	0.09523 0.25000 0.78167 1.05500
