data_crystal

_cell_length_a 8.35760
_cell_length_b 10.52830
_cell_length_c 17.46750
_cell_angle_alpha 98.74100
_cell_angle_beta  97.00800
_cell_angle_gamma 100.52300

_symmetry_space_group_name_	'P 1'
_symmetry_space_group_name_H-M	'P 1'

loop_
_symmetry_equiv_pos_as_xyz
  x,y,z

loop_
_atom_site_label
_atom_site_type_symbol
_atom_site_fract_x
_atom_site_fract_y
_atom_site_fract_z
_atom_site_charge
Gd	Gd	0.03334 0.18963 0.23674 1.73700
Gd	Gd	0.52029 0.13507 0.29528 1.73400
C 	C 	0.27590 0.20730 0.41010 0.43500
C 	C 	0.18410 0.19620 0.47840 -0.18000
C 	C 	0.21890 0.11210 0.52870 0.12400
H 	H 	0.30360 0.06720 0.52190 0.02000
C 	C 	0.12870 0.09400 0.58940 -0.19300
C 	C 	0.00460 0.16270 0.59870 0.10500
H 	H 	0.94230 0.15060 0.63870 0.01300
C 	C 	0.97170 0.24810 0.55020 -0.15800
H 	H 	0.88890 0.29470 0.55800 0.10300
C 	C 	0.06070 0.26590 0.48960 0.10600
H 	H 	0.03800 0.32410 0.45670 0.00100
C 	C 	0.16410 0.99860 0.64160 0.47600
C 	C 	0.33950 0.22710 0.14020 0.42700
C 	C 	0.41630 0.20240 0.06820 -0.19400
C 	C 	0.32750 0.12000 0.00070 0.13300
H 	H 	0.21760 0.08190 0.99980 0.00200
C 	C 	0.40150 0.09410 0.93480 -0.20700
C 	C 	0.56570 0.15390 0.93680 0.12000
H 	H 	0.61570 0.13870 0.89250 -0.00200
C 	C 	0.65430 0.23470 0.00330 -0.17500
H 	H 	0.76400 0.27330 0.00400 0.10900
C 	C 	0.58030 0.25900 0.06920 0.11400
H 	H 	0.64070 0.31340 0.11430 0.01200
C 	C 	0.31320 0.00140 0.86310 0.47100
C 	C 	0.02650 0.43860 0.19400 0.32200
C 	C 	0.02740 0.56960 0.17090 -0.10900
C 	C 	0.12260 0.68300 0.21760 0.05800
H 	H 	0.18440 0.67790 0.26460 0.04300
C 	C 	0.12640 0.80470 0.19470 -0.13900
C 	C 	0.03300 0.81210 0.12480 0.06300
H 	H 	0.03270 0.89300 0.10960 0.01900
C 	C 	0.94020 0.69810 0.07750 -0.12700
H 	H 	0.88000 0.70310 0.03010 0.08800
C 	C 	0.93580 0.57800 0.09970 0.05200
H 	H 	0.87230 0.50250 0.06770 0.02700
C 	C 	0.24050 0.92230 0.24240 0.37600
C 	C 	0.78420 0.36740 0.33620 0.50300
H 	H 	0.86600 0.44320 0.35060 -0.12400
O 	O 	0.22000 0.26130 0.35555 -0.45700
O 	O 	0.40280 0.16040 0.41014 -0.44100
O 	O 	0.06390 0.96940 0.68729 -0.45200
O 	O 	0.29190 0.95250 0.63458 -0.46600
O 	O 	0.18570 0.20880 0.13264 -0.43600
O 	O 	0.43370 0.26490 0.20630 -0.45000
O 	O 	0.16220 0.95450 0.85882 -0.45200
O 	O 	0.39730 0.97320 0.80983 -0.49000
O 	O 	0.12470 0.43160 0.25459 -0.35200
O 	O 	0.92960 0.33990 0.15591 -0.36400
O 	O 	0.36100 0.90800 0.28845 -0.37600
O 	O 	0.22390 0.03700 0.23258 -0.50800
O 	O 	0.64870 0.36710 0.35893 -0.40600
O 	O 	0.81420 0.27070 0.29500 -0.53700
Gd	Gd	0.96666 0.81037 0.76326 1.73800
Gd	Gd	0.47971 0.86493 0.70472 1.73500
C 	C 	0.72410 0.79270 0.58990 0.43600
C 	C 	0.81590 0.80380 0.52160 -0.17900
C 	C 	0.78110 0.88790 0.47130 0.12400
H 	H 	0.69640 0.93280 0.47810 0.02000
C 	C 	0.87130 0.90600 0.41060 -0.19300
C 	C 	0.99540 0.83730 0.40130 0.10500
H 	H 	0.05770 0.84940 0.36130 0.01300
C 	C 	0.02830 0.75190 0.44980 -0.15800
H 	H 	0.11110 0.70530 0.44200 0.10300
C 	C 	0.93930 0.73410 0.51040 0.10600
H 	H 	0.96200 0.67590 0.54330 0.00100
C 	C 	0.83590 0.00140 0.35840 0.47600
C 	C 	0.66050 0.77290 0.85980 0.42700
C 	C 	0.58370 0.79760 0.93180 -0.19400
C 	C 	0.67250 0.88000 0.99930 0.13300
H 	H 	0.78240 0.91810 0.00020 0.00200
C 	C 	0.59850 0.90590 0.06520 -0.20700
C 	C 	0.43430 0.84610 0.06320 0.12000
H 	H 	0.38430 0.86130 0.10750 -0.00200
C 	C 	0.34570 0.76530 0.99670 -0.17500
H 	H 	0.23600 0.72670 0.99600 0.10900
C 	C 	0.41970 0.74100 0.93080 0.11400
H 	H 	0.35930 0.68660 0.88570 0.01200
C 	C 	0.68680 0.99860 0.13690 0.47100
C 	C 	0.97350 0.56140 0.80600 0.32200
C 	C 	0.97260 0.43040 0.82910 -0.10900
C 	C 	0.87740 0.31700 0.78240 0.05800
H 	H 	0.81560 0.32210 0.73540 0.04300
C 	C 	0.87360 0.19530 0.80530 -0.13900
C 	C 	0.96700 0.18790 0.87520 0.06300
H 	H 	0.96730 0.10700 0.89040 0.01900
C 	C 	0.05980 0.30190 0.92250 -0.12700
H 	H 	0.12000 0.29690 0.96990 0.08800
C 	C 	0.06420 0.42200 0.90030 0.05200
H 	H 	0.12770 0.49750 0.93230 0.02700
C 	C 	0.75950 0.07770 0.75760 0.37600
C 	C 	0.21580 0.63260 0.66380 0.50300
H 	H 	0.13400 0.55680 0.64940 -0.12400
O 	O 	0.78000 0.73870 0.64445 -0.45700
O 	O 	0.59720 0.83960 0.58986 -0.44100
O 	O 	0.93610 0.03060 0.31271 -0.45200
O 	O 	0.70810 0.04750 0.36542 -0.46600
O 	O 	0.81430 0.79120 0.86736 -0.43600
O 	O 	0.56630 0.73510 0.79370 -0.45000
O 	O 	0.83780 0.04550 0.14118 -0.45200
O 	O 	0.60270 0.02680 0.19017 -0.49000
O 	O 	0.87530 0.56840 0.74541 -0.35200
O 	O 	0.07040 0.66010 0.84409 -0.36400
O 	O 	0.63900 0.09200 0.71155 -0.37600
O 	O 	0.77610 0.96300 0.76742 -0.50800
O 	O 	0.35130 0.63290 0.64107 -0.40600
O 	O 	0.18580 0.72930 0.70500 -0.53700
