data_crystal

_cell_length_a 8.39110
_cell_length_b 10.55180
_cell_length_c 17.46320
_cell_angle_alpha 98.99300
_cell_angle_beta  97.11200
_cell_angle_gamma 100.42400

_symmetry_space_group_name_	'P 1'
_symmetry_space_group_name_H-M	'P 1'

loop_
_symmetry_equiv_pos_as_xyz
  x,y,z

loop_
_atom_site_label
_atom_site_type_symbol
_atom_site_fract_x
_atom_site_fract_y
_atom_site_fract_z
_atom_site_charge
Sm	Sm	0.52136 0.13786 0.29643 2.26100
Sm	Sm	0.03463 0.19085 0.23747 2.27600
C 	C 	0.02590 0.44170 0.19563 0.33300
C 	C 	0.02760 0.57140 0.17140 -0.12800
C 	C 	0.12260 0.68480 0.21756 0.08000
H 	H 	0.18400 0.68030 0.26480 0.03300
C 	C 	0.12770 0.80550 0.19442 -0.17000
C 	C 	0.03470 0.81130 0.12430 0.09100
H 	H 	0.03540 0.89180 0.10880 0.00200
C 	C 	0.94030 0.69780 0.07690 -0.15300
H 	H 	0.87980 0.70210 0.02940 0.09500
C 	C 	0.93660 0.57860 0.10080 0.07200
H 	H 	0.87280 0.50270 0.06930 0.02000
C 	C 	0.24130 0.92270 0.24236 0.41300
C 	C 	0.83910 0.00170 0.35876 0.54900
C 	C 	0.87250 0.90610 0.41111 -0.24200
C 	C 	0.99800 0.83780 0.40220 0.13500
H 	H 	0.06180 0.85020 0.36300 -0.00200
C 	C 	0.02780 0.75180 0.45120 -0.19100
H 	H 	0.11010 0.70470 0.44400 0.10900
C 	C 	0.93730 0.73440 0.51100 0.14200
H 	H 	0.95950 0.67690 0.54430 -0.02300
C 	C 	0.81280 0.80330 0.52119 -0.22900
C 	C 	0.78020 0.88710 0.47042 0.16900
H 	H 	0.69490 0.93140 0.47620 -0.00100
C 	C 	0.71870 0.79100 0.58747 0.48500
C 	C 	0.68830 0.99990 0.13666 0.54700
C 	C 	0.59840 0.90590 0.06496 -0.26300
C 	C 	0.43440 0.84850 0.06260 0.17100
H 	H 	0.38370 0.86590 0.10640 -0.02700
C 	C 	0.34690 0.76640 0.99610 -0.22800
H 	H 	0.23780 0.72760 0.99520 0.12500
C 	C 	0.42040 0.74120 0.93030 0.16400
H 	H 	0.35980 0.68740 0.88490 -0.01400
C 	C 	0.58360 0.79550 0.93178 -0.24500
C 	C 	0.67260 0.87900 0.99947 0.17900
H 	H 	0.78220 0.91680 0.00050 -0.01800
C 	C 	0.66060 0.77050 0.85978 0.48000
C 	C 	0.78580 0.37230 0.33780 0.56100
H 	H 	0.86690 0.44820 0.35120 -0.15100
O 	O 	0.12480 0.43490 0.25617 -0.40800
O 	O 	0.92860 0.34260 0.15765 -0.42000
O 	O 	0.35860 0.91010 0.29022 -0.44000
O 	O 	0.22540 0.03740 0.23106 -0.62100
O 	O 	0.83760 0.04550 0.14082 -0.54700
O 	O 	0.60470 0.02890 0.18983 -0.59300
O 	O 	0.81350 0.78750 0.86806 -0.51600
O 	O 	0.56740 0.73250 0.79343 -0.54400
O 	O 	0.71000 0.04570 0.36471 -0.56300
O 	O 	0.93890 0.03110 0.31374 -0.54700
O 	O 	0.58980 0.83500 0.58519 -0.52000
O 	O 	0.77210 0.73940 0.64359 -0.55800
O 	O 	0.81690 0.27390 0.29827 -0.65500
O 	O 	0.65140 0.37400 0.36017 -0.47400
Sm	Sm	0.47864 0.86214 0.70357 2.26000
Sm	Sm	0.96537 0.80915 0.76253 2.27500
C 	C 	0.97410 0.55830 0.80437 0.33300
C 	C 	0.97240 0.42860 0.82860 -0.12800
C 	C 	0.87740 0.31520 0.78244 0.08000
H 	H 	0.81600 0.31970 0.73520 0.03300
C 	C 	0.87230 0.19450 0.80558 -0.17000
C 	C 	0.96530 0.18870 0.87570 0.09100
H 	H 	0.96460 0.10820 0.89120 0.00200
C 	C 	0.05970 0.30220 0.92310 -0.15300
H 	H 	0.12020 0.29790 0.97060 0.09500
C 	C 	0.06340 0.42140 0.89920 0.07200
H 	H 	0.12720 0.49730 0.93070 0.02000
C 	C 	0.75870 0.07730 0.75764 0.41300
C 	C 	0.16090 0.99830 0.64124 0.54900
C 	C 	0.12750 0.09390 0.58889 -0.24200
C 	C 	0.00200 0.16220 0.59780 0.13500
H 	H 	0.93820 0.14980 0.63700 -0.00200
C 	C 	0.97220 0.24820 0.54880 -0.19100
H 	H 	0.88990 0.29530 0.55600 0.10900
C 	C 	0.06270 0.26560 0.48900 0.14200
H 	H 	0.04050 0.32310 0.45570 -0.02300
C 	C 	0.18720 0.19670 0.47881 -0.22900
C 	C 	0.21980 0.11290 0.52958 0.16900
H 	H 	0.30510 0.06860 0.52380 -0.00100
C 	C 	0.28130 0.20900 0.41253 0.48500
C 	C 	0.31170 0.00010 0.86334 0.54700
C 	C 	0.40160 0.09410 0.93504 -0.26300
C 	C 	0.56560 0.15150 0.93740 0.17100
H 	H 	0.61630 0.13410 0.89360 -0.02700
C 	C 	0.65310 0.23360 0.00390 -0.22800
H 	H 	0.76220 0.27240 0.00480 0.12500
C 	C 	0.57960 0.25880 0.06970 0.16400
H 	H 	0.64020 0.31260 0.11510 -0.01400
C 	C 	0.41640 0.20450 0.06822 -0.24500
C 	C 	0.32740 0.12100 0.00053 0.17900
H 	H 	0.21780 0.08320 0.99950 -0.01800
C 	C 	0.33940 0.22950 0.14022 0.48000
C 	C 	0.21420 0.62770 0.66220 0.56100
H 	H 	0.13310 0.55180 0.64880 -0.15100
O 	O 	0.87520 0.56510 0.74383 -0.40800
O 	O 	0.07140 0.65740 0.84235 -0.42000
O 	O 	0.64140 0.08990 0.70978 -0.44000
O 	O 	0.77460 0.96260 0.76894 -0.62100
O 	O 	0.16240 0.95450 0.85918 -0.54700
O 	O 	0.39530 0.97110 0.81017 -0.59300
O 	O 	0.18650 0.21250 0.13194 -0.51600
O 	O 	0.43260 0.26750 0.20657 -0.54400
O 	O 	0.29000 0.95430 0.63529 -0.56300
O 	O 	0.06110 0.96890 0.68626 -0.54700
O 	O 	0.41020 0.16500 0.41481 -0.52000
O 	O 	0.22790 0.26060 0.35641 -0.55800
O 	O 	0.18310 0.72610 0.70173 -0.65500
O 	O 	0.34860 0.62600 0.63983 -0.47400
