data_crystal

_cell_length_a 26.03490
_cell_length_b 26.03490
_cell_length_c 6.85080
_cell_angle_alpha 90.00000
_cell_angle_beta  90.00000
_cell_angle_gamma 120.00000

_symmetry_space_group_name_	'P 1'
_symmetry_space_group_name_H-M	'P 1'

loop_
_symmetry_equiv_pos_as_xyz
  x,y,z

loop_
_atom_site_label
_atom_site_type_symbol
_atom_site_fract_x
_atom_site_fract_y
_atom_site_fract_z
_atom_site_charge
Fe	Fe	0.38439 0.35309 0.14000 1.16500
O 	O 	0.32563 0.29358 0.36230 -0.56900
O 	O 	0.30203 0.22925 0.60310 -0.46400
O 	O 	0.35372 0.27267 0.01170 -0.53600
C 	C 	0.31741 0.24599 0.42000 0.40000
C 	C 	0.32779 0.20396 0.28930 -0.17700
C 	C 	0.34479 0.22365 0.09160 0.20400
C 	C 	0.35013 0.18239 0.97610 -0.07700
H 	H 	0.36090 0.19340 0.82740 0.05800
Fe	Fe	0.05106 0.68642 0.47333 1.16400
O 	O 	0.99230 0.62691 0.69563 -0.57000
O 	O 	0.96870 0.56258 0.93643 -0.46500
O 	O 	0.02039 0.60600 0.34503 -0.53700
C 	C 	0.98408 0.57932 0.75333 0.40000
C 	C 	0.99446 0.53729 0.62263 -0.17700
C 	C 	0.01146 0.55698 0.42493 0.20400
C 	C 	0.01680 0.51572 0.30943 -0.07700
H 	H 	0.02757 0.52673 0.16073 0.05900
Fe	Fe	0.71772 0.01976 0.80667 1.16400
O 	O 	0.65896 0.96025 0.02897 -0.57000
O 	O 	0.63536 0.89592 0.26977 -0.46500
O 	O 	0.68705 0.93934 0.67837 -0.53800
C 	C 	0.65074 0.91266 0.08667 0.40000
C 	C 	0.66112 0.87063 0.95597 -0.17800
C 	C 	0.67812 0.89032 0.75827 0.20500
C 	C 	0.68346 0.84906 0.64277 -0.07800
H 	H 	0.69423 0.86007 0.49407 0.05900
Fe	Fe	0.64691 0.03130 0.14000 1.16400
O 	O 	0.70642 0.03205 0.36230 -0.57000
O 	O 	0.77075 0.07278 0.60310 -0.46500
O 	O 	0.72733 0.08105 0.01170 -0.53700
C 	C 	0.75401 0.07142 0.42000 0.40000
C 	C 	0.79604 0.12383 0.28930 -0.17600
C 	C 	0.77635 0.12114 0.09160 0.20300
C 	C 	0.81761 0.16774 0.97610 -0.07600
H 	H 	0.80660 0.16750 0.82740 0.05800
Fe	Fe	0.31358 0.36463 0.47333 1.16400
O 	O 	0.37309 0.36538 0.69563 -0.57000
O 	O 	0.43742 0.40611 0.93643 -0.46500
O 	O 	0.39400 0.41438 0.34503 -0.53700
C 	C 	0.42068 0.40475 0.75333 0.40000
C 	C 	0.46271 0.45716 0.62263 -0.17700
C 	C 	0.44302 0.45447 0.42493 0.20400
C 	C 	0.48428 0.50107 0.30943 -0.07800
H 	H 	0.47327 0.50083 0.16073 0.05800
Fe	Fe	0.98024 0.69797 0.80667 1.16400
O 	O 	0.03975 0.69872 0.02897 -0.57000
O 	O 	0.10408 0.73945 0.26977 -0.46500
O 	O 	0.06066 0.74772 0.67837 -0.53800
C 	C 	0.08734 0.73809 0.08667 0.40100
C 	C 	0.12937 0.79050 0.95597 -0.17900
C 	C 	0.10968 0.78781 0.75827 0.20500
C 	C 	0.15094 0.83441 0.64277 -0.07800
H 	H 	0.13993 0.83417 0.49407 0.05900
Fe	Fe	0.96870 0.61561 0.14000 1.16400
O 	O 	0.96795 0.67437 0.36230 -0.57000
O 	O 	0.92722 0.69797 0.60310 -0.46500
O 	O 	0.91895 0.64628 0.01170 -0.53800
C 	C 	0.92858 0.68259 0.42000 0.40000
C 	C 	0.87617 0.67221 0.28930 -0.17700
C 	C 	0.87886 0.65521 0.09160 0.20400
C 	C 	0.83226 0.64987 0.97610 -0.07700
H 	H 	0.83250 0.63910 0.82740 0.05800
Fe	Fe	0.63537 0.94894 0.47333 1.16400
O 	O 	0.63462 0.00770 0.69563 -0.57000
O 	O 	0.59389 0.03130 0.93643 -0.46500
O 	O 	0.58562 0.97961 0.34503 -0.53700
C 	C 	0.59525 0.01592 0.75333 0.40000
C 	C 	0.54284 0.00554 0.62263 -0.17700
C 	C 	0.54553 0.98854 0.42493 0.20400
C 	C 	0.49893 0.98320 0.30943 -0.07800
H 	H 	0.49917 0.97243 0.16073 0.05900
Fe	Fe	0.30203 0.28228 0.80667 1.16400
O 	O 	0.30128 0.34104 0.02897 -0.57000
O 	O 	0.26055 0.36464 0.26977 -0.46500
O 	O 	0.25228 0.31295 0.67837 -0.53800
C 	C 	0.26191 0.34926 0.08667 0.40000
C 	C 	0.20950 0.33888 0.95597 -0.17700
C 	C 	0.21219 0.32188 0.75827 0.20500
C 	C 	0.16559 0.31654 0.64277 -0.07800
H 	H 	0.16583 0.30577 0.49407 0.05900
Fe	Fe	0.61561 0.64691 0.86000 1.16400
O 	O 	0.67437 0.70642 0.63770 -0.57000
O 	O 	0.69797 0.77075 0.39690 -0.46500
O 	O 	0.64628 0.72733 0.98830 -0.53700
C 	C 	0.68259 0.75401 0.58000 0.40000
C 	C 	0.67221 0.79604 0.71070 -0.17700
C 	C 	0.65521 0.77635 0.90840 0.20400
C 	C 	0.64987 0.81761 0.02390 -0.07700
H 	H 	0.63910 0.80660 0.17260 0.05800
Fe	Fe	0.28228 0.98024 0.19333 1.16400
O 	O 	0.34104 0.03975 0.97103 -0.57000
O 	O 	0.36464 0.10408 0.73023 -0.46500
O 	O 	0.31295 0.06066 0.32163 -0.53800
C 	C 	0.34926 0.08734 0.91333 0.40000
C 	C 	0.33888 0.12937 0.04403 -0.17800
C 	C 	0.32188 0.10968 0.24173 0.20500
C 	C 	0.31654 0.15094 0.35723 -0.07800
H 	H 	0.30577 0.13993 0.50593 0.05900
Fe	Fe	0.94894 0.31358 0.52667 1.16400
O 	O 	0.00770 0.37309 0.30437 -0.57000
O 	O 	0.03130 0.43742 0.06357 -0.46500
O 	O 	0.97961 0.39400 0.65497 -0.53700
C 	C 	0.01592 0.42068 0.24667 0.40000
C 	C 	0.00554 0.46271 0.37737 -0.17700
C 	C 	0.98854 0.44302 0.57507 0.20400
C 	C 	0.98320 0.48428 0.69057 -0.07700
H 	H 	0.97243 0.47327 0.83927 0.05900
Fe	Fe	0.35309 0.96870 0.86000 1.16400
O 	O 	0.29358 0.96795 0.63770 -0.57000
O 	O 	0.22925 0.92722 0.39690 -0.46500
O 	O 	0.27267 0.91895 0.98830 -0.53700
C 	C 	0.24599 0.92858 0.58000 0.40000
C 	C 	0.20396 0.87617 0.71070 -0.17600
C 	C 	0.22365 0.87886 0.90840 0.20300
C 	C 	0.18239 0.83226 0.02390 -0.07600
H 	H 	0.19340 0.83250 0.17260 0.05800
Fe	Fe	0.01976 0.30203 0.19333 1.16400
O 	O 	0.96025 0.30128 0.97103 -0.57000
O 	O 	0.89592 0.26055 0.73023 -0.46500
O 	O 	0.93934 0.25228 0.32163 -0.53800
C 	C 	0.91266 0.26191 0.91333 0.40100
C 	C 	0.87063 0.20950 0.04403 -0.17900
C 	C 	0.89032 0.21219 0.24173 0.20500
C 	C 	0.84906 0.16559 0.35723 -0.07800
H 	H 	0.86007 0.16583 0.50593 0.05900
Fe	Fe	0.68642 0.63537 0.52667 1.16400
O 	O 	0.62691 0.63462 0.30437 -0.57000
O 	O 	0.56258 0.59389 0.06357 -0.46500
O 	O 	0.60600 0.58562 0.65497 -0.53700
C 	C 	0.57932 0.59525 0.24667 0.40000
C 	C 	0.53729 0.54284 0.37737 -0.17700
C 	C 	0.55698 0.54553 0.57507 0.20400
C 	C 	0.51572 0.49893 0.69057 -0.07800
H 	H 	0.52673 0.49917 0.83927 0.05800
Fe	Fe	0.03130 0.38439 0.86000 1.16400
O 	O 	0.03205 0.32563 0.63770 -0.57000
O 	O 	0.07278 0.30203 0.39690 -0.46500
O 	O 	0.08105 0.35372 0.98830 -0.53800
C 	C 	0.07142 0.31741 0.58000 0.40000
C 	C 	0.12383 0.32779 0.71070 -0.17700
C 	C 	0.12114 0.34479 0.90840 0.20400
C 	C 	0.16774 0.35013 0.02390 -0.07700
H 	H 	0.16750 0.36090 0.17260 0.05800
Fe	Fe	0.69797 0.71772 0.19333 1.16400
O 	O 	0.69872 0.65896 0.97103 -0.57000
O 	O 	0.73945 0.63536 0.73023 -0.46500
O 	O 	0.74772 0.68705 0.32163 -0.53800
C 	C 	0.73809 0.65074 0.91333 0.40000
C 	C 	0.79050 0.66112 0.04403 -0.17700
C 	C 	0.78781 0.67812 0.24173 0.20500
C 	C 	0.83441 0.68346 0.35723 -0.07800
H 	H 	0.83417 0.69423 0.50593 0.05900
Fe	Fe	0.36463 0.05106 0.52667 1.16400
O 	O 	0.36538 0.99230 0.30437 -0.57000
O 	O 	0.40611 0.96870 0.06357 -0.46500
O 	O 	0.41438 0.02039 0.65497 -0.53700
C 	C 	0.40475 0.98408 0.24667 0.40000
C 	C 	0.45716 0.99446 0.37737 -0.17700
C 	C 	0.45447 0.01146 0.57507 0.20400
C 	C 	0.50107 0.01680 0.69057 -0.07800
H 	H 	0.50083 0.02757 0.83927 0.05900
