data_crystal

_cell_length_a 25.85820
_cell_length_b 25.85820
_cell_length_c 6.26150
_cell_angle_alpha 90.00000
_cell_angle_beta  90.00000
_cell_angle_gamma 120.00000

_symmetry_space_group_name_	'P 1'
_symmetry_space_group_name_H-M	'P 1'

loop_
_symmetry_equiv_pos_as_xyz
  x,y,z

loop_
_atom_site_label
_atom_site_type_symbol
_atom_site_fract_x
_atom_site_fract_y
_atom_site_fract_z
_atom_site_charge
Cu	Cu	0.38651 0.34907 0.17610 0.92300
O 	O 	0.35441 0.30306 0.43350 -0.49100
O 	O 	0.29217 0.22400 0.62870 -0.40500
O 	O 	0.36050 0.27702 0.00780 -0.45100
C 	C 	0.32463 0.24784 0.46570 0.37900
C 	C 	0.32769 0.20621 0.29900 -0.15600
C 	C 	0.34813 0.22473 0.09280 0.19200
C 	C 	0.35412 0.18405 0.95690 -0.06700
H 	H 	0.36720 0.19550 0.80160 0.07500
Cu	Cu	0.05318 0.68240 0.50943 0.92300
O 	O 	0.02108 0.63639 0.76683 -0.49100
O 	O 	0.95884 0.55733 0.96203 -0.40500
O 	O 	0.02717 0.61035 0.34113 -0.45100
C 	C 	0.99130 0.58117 0.79903 0.37900
C 	C 	0.99436 0.53954 0.63233 -0.15600
C 	C 	0.01480 0.55806 0.42613 0.19200
C 	C 	0.02079 0.51738 0.29023 -0.06600
H 	H 	0.03387 0.52883 0.13493 0.07500
Cu	Cu	0.71984 0.01574 0.84277 0.92300
O 	O 	0.68774 0.96973 0.10017 -0.49100
O 	O 	0.62550 0.89067 0.29537 -0.40500
O 	O 	0.69383 0.94369 0.67447 -0.45100
C 	C 	0.65796 0.91451 0.13237 0.37900
C 	C 	0.66102 0.87288 0.96567 -0.15500
C 	C 	0.68146 0.89140 0.75947 0.19200
C 	C 	0.68745 0.85072 0.62357 -0.06600
H 	H 	0.70053 0.86217 0.46827 0.07500
Cu	Cu	0.65093 0.03744 0.17610 0.92300
O 	O 	0.69694 0.05135 0.43350 -0.49100
O 	O 	0.77600 0.06817 0.62870 -0.40500
O 	O 	0.72298 0.08348 0.00780 -0.45100
C 	C 	0.75216 0.07679 0.46570 0.37900
C 	C 	0.79379 0.12148 0.29900 -0.15600
C 	C 	0.77527 0.12340 0.09280 0.19300
C 	C 	0.81595 0.17007 0.95690 -0.06700
H 	H 	0.80450 0.17170 0.80160 0.07500
Cu	Cu	0.31760 0.37077 0.50943 0.92300
O 	O 	0.36361 0.38468 0.76683 -0.49200
O 	O 	0.44267 0.40150 0.96203 -0.40500
O 	O 	0.38965 0.41681 0.34113 -0.45100
C 	C 	0.41883 0.41012 0.79903 0.37900
C 	C 	0.46046 0.45481 0.63233 -0.15600
C 	C 	0.44194 0.45673 0.42613 0.19200
C 	C 	0.48262 0.50340 0.29023 -0.06600
H 	H 	0.47117 0.50503 0.13493 0.07500
Cu	Cu	0.98426 0.70411 0.84277 0.92300
O 	O 	0.03027 0.71802 0.10017 -0.49100
O 	O 	0.10933 0.73484 0.29537 -0.40500
O 	O 	0.05631 0.75015 0.67447 -0.45100
C 	C 	0.08549 0.74346 0.13237 0.37900
C 	C 	0.12712 0.78815 0.96567 -0.15500
C 	C 	0.10860 0.79007 0.75947 0.19200
C 	C 	0.14928 0.83674 0.62357 -0.06600
H 	H 	0.13783 0.83837 0.46827 0.07500
Cu	Cu	0.96256 0.61349 0.17610 0.92300
O 	O 	0.94865 0.64559 0.43350 -0.49100
O 	O 	0.93183 0.70783 0.62870 -0.40500
O 	O 	0.91652 0.63950 0.00780 -0.45100
C 	C 	0.92321 0.67537 0.46570 0.37900
C 	C 	0.87852 0.67231 0.29900 -0.15600
C 	C 	0.87660 0.65187 0.09280 0.19200
C 	C 	0.82993 0.64588 0.95690 -0.06600
H 	H 	0.82830 0.63280 0.80160 0.07500
Cu	Cu	0.62923 0.94682 0.50943 0.92300
O 	O 	0.61532 0.97892 0.76683 -0.49100
O 	O 	0.59850 0.04116 0.96203 -0.40500
O 	O 	0.58319 0.97283 0.34113 -0.45100
C 	C 	0.58988 0.00870 0.79903 0.37900
C 	C 	0.54519 0.00564 0.63233 -0.15600
C 	C 	0.54327 0.98520 0.42613 0.19200
C 	C 	0.49660 0.97921 0.29023 -0.06600
H 	H 	0.49497 0.96613 0.13493 0.07500
Cu	Cu	0.29589 0.28016 0.84277 0.92300
O 	O 	0.28198 0.31226 0.10017 -0.49100
O 	O 	0.26516 0.37450 0.29537 -0.40500
O 	O 	0.24985 0.30617 0.67447 -0.45100
C 	C 	0.25654 0.34204 0.13237 0.37900
C 	C 	0.21185 0.33898 0.96567 -0.15600
C 	C 	0.20993 0.31854 0.75947 0.19200
C 	C 	0.16326 0.31255 0.62357 -0.06600
H 	H 	0.16163 0.29947 0.46827 0.07500
Cu	Cu	0.61349 0.65093 0.82390 0.92300
O 	O 	0.64559 0.69694 0.56650 -0.49100
O 	O 	0.70783 0.77600 0.37130 -0.40500
O 	O 	0.63950 0.72298 0.99220 -0.45100
C 	C 	0.67537 0.75216 0.53430 0.37900
C 	C 	0.67231 0.79379 0.70100 -0.15600
C 	C 	0.65187 0.77527 0.90720 0.19200
C 	C 	0.64588 0.81595 0.04310 -0.06700
H 	H 	0.63280 0.80450 0.19840 0.07500
Cu	Cu	0.28016 0.98426 0.15723 0.92300
O 	O 	0.31226 0.03027 0.89983 -0.49100
O 	O 	0.37450 0.10933 0.70463 -0.40500
O 	O 	0.30617 0.05631 0.32553 -0.45100
C 	C 	0.34204 0.08549 0.86763 0.37900
C 	C 	0.33898 0.12712 0.03433 -0.15500
C 	C 	0.31854 0.10860 0.24053 0.19200
C 	C 	0.31255 0.14928 0.37643 -0.06600
H 	H 	0.29947 0.13783 0.53173 0.07500
Cu	Cu	0.94682 0.31760 0.49057 0.92300
O 	O 	0.97892 0.36361 0.23317 -0.49100
O 	O 	0.04116 0.44267 0.03797 -0.40500
O 	O 	0.97283 0.38965 0.65887 -0.45100
C 	C 	0.00870 0.41883 0.20097 0.37900
C 	C 	0.00564 0.46046 0.36767 -0.15600
C 	C 	0.98520 0.44194 0.57387 0.19200
C 	C 	0.97921 0.48262 0.70977 -0.06600
H 	H 	0.96613 0.47117 0.86507 0.07500
Cu	Cu	0.34907 0.96256 0.82390 0.92300
O 	O 	0.30306 0.94865 0.56650 -0.49100
O 	O 	0.22400 0.93183 0.37130 -0.40500
O 	O 	0.27702 0.91652 0.99220 -0.45100
C 	C 	0.24784 0.92321 0.53430 0.37900
C 	C 	0.20621 0.87852 0.70100 -0.15600
C 	C 	0.22473 0.87660 0.90720 0.19300
C 	C 	0.18405 0.82993 0.04310 -0.06700
H 	H 	0.19550 0.82830 0.19840 0.07500
Cu	Cu	0.01574 0.29589 0.15723 0.92300
O 	O 	0.96973 0.28198 0.89983 -0.49100
O 	O 	0.89067 0.26516 0.70463 -0.40500
O 	O 	0.94369 0.24985 0.32553 -0.45100
C 	C 	0.91451 0.25654 0.86763 0.37900
C 	C 	0.87288 0.21185 0.03433 -0.15500
C 	C 	0.89140 0.20993 0.24053 0.19200
C 	C 	0.85072 0.16326 0.37643 -0.06600
H 	H 	0.86217 0.16163 0.53173 0.07500
Cu	Cu	0.68240 0.62923 0.49057 0.92300
O 	O 	0.63639 0.61532 0.23317 -0.49200
O 	O 	0.55733 0.59850 0.03797 -0.40500
O 	O 	0.61035 0.58319 0.65887 -0.45100
C 	C 	0.58117 0.58988 0.20097 0.37900
C 	C 	0.53954 0.54519 0.36767 -0.15600
C 	C 	0.55806 0.54327 0.57387 0.19200
C 	C 	0.51738 0.49660 0.70977 -0.06600
H 	H 	0.52883 0.49497 0.86507 0.07500
Cu	Cu	0.03744 0.38651 0.82390 0.92300
O 	O 	0.05135 0.35441 0.56650 -0.49100
O 	O 	0.06817 0.29217 0.37130 -0.40500
O 	O 	0.08348 0.36050 0.99220 -0.45100
C 	C 	0.07679 0.32463 0.53430 0.37900
C 	C 	0.12148 0.32769 0.70100 -0.15600
C 	C 	0.12340 0.34813 0.90720 0.19200
C 	C 	0.17007 0.35412 0.04310 -0.06600
H 	H 	0.17170 0.36720 0.19840 0.07500
Cu	Cu	0.70411 0.71984 0.15723 0.92300
O 	O 	0.71802 0.68774 0.89983 -0.49100
O 	O 	0.73484 0.62550 0.70463 -0.40500
O 	O 	0.75015 0.69383 0.32553 -0.45100
C 	C 	0.74346 0.65796 0.86763 0.37900
C 	C 	0.78815 0.66102 0.03433 -0.15600
C 	C 	0.79007 0.68146 0.24053 0.19200
C 	C 	0.83674 0.68745 0.37643 -0.06600
H 	H 	0.83837 0.70053 0.53173 0.07500
Cu	Cu	0.37077 0.05318 0.49057 0.92300
O 	O 	0.38468 0.02108 0.23317 -0.49100
O 	O 	0.40150 0.95884 0.03797 -0.40500
O 	O 	0.41681 0.02717 0.65887 -0.45100
C 	C 	0.41012 0.99130 0.20097 0.37900
C 	C 	0.45481 0.99436 0.36767 -0.15600
C 	C 	0.45673 0.01480 0.57387 0.19200
C 	C 	0.50340 0.02079 0.70977 -0.06600
H 	H 	0.50503 0.03387 0.86507 0.07500
