data_crystal

_cell_length_a 25.89770
_cell_length_b 25.89770
_cell_length_c 6.84600
_cell_angle_alpha 90.00000
_cell_angle_beta  90.00000
_cell_angle_gamma 120.00000

_symmetry_space_group_name_	'P 1'
_symmetry_space_group_name_H-M	'P 1'

loop_
_symmetry_equiv_pos_as_xyz
  x,y,z

loop_
_atom_site_label
_atom_site_type_symbol
_atom_site_fract_x
_atom_site_fract_y
_atom_site_fract_z
_atom_site_charge
Co	Co	0.38160 0.34880 0.13300 1.16200
O 	O 	0.32600 0.29730 0.37200 -0.58500
O 	O 	0.30220 0.22750 0.60110 -0.45000
O 	O 	0.35620 0.27400 0.00470 -0.53900
C 	C 	0.31650 0.24700 0.42750 0.39500
C 	C 	0.33020 0.20820 0.28790 -0.17500
C 	C 	0.34730 0.22550 0.08910 0.20300
C 	C 	0.35170 0.18090 0.97210 -0.07000
H 	H 	0.36160 0.19280 0.82600 0.06700
Co	Co	0.04827 0.68213 0.46633 1.16200
O 	O 	0.99267 0.63063 0.70533 -0.58600
O 	O 	0.96887 0.56083 0.93443 -0.45100
O 	O 	0.02287 0.60733 0.33803 -0.54000
C 	C 	0.98317 0.58033 0.76083 0.39400
C 	C 	0.99687 0.54153 0.62123 -0.17600
C 	C 	0.01397 0.55883 0.42243 0.20300
C 	C 	0.01837 0.51423 0.30543 -0.07200
H 	H 	0.02827 0.52613 0.15933 0.06600
Co	Co	0.71493 0.01547 0.79967 1.16100
O 	O 	0.65933 0.96397 0.03867 -0.58600
O 	O 	0.63553 0.89417 0.26777 -0.45100
O 	O 	0.68953 0.94067 0.67137 -0.54000
C 	C 	0.64983 0.91367 0.09417 0.39400
C 	C 	0.66353 0.87487 0.95457 -0.17700
C 	C 	0.68063 0.89217 0.75577 0.20300
C 	C 	0.68503 0.84757 0.63877 -0.07200
H 	H 	0.69493 0.85947 0.49267 0.06600
Co	Co	0.65120 0.03280 0.13300 1.16100
O 	O 	0.70270 0.02870 0.37200 -0.58600
O 	O 	0.77250 0.07470 0.60110 -0.45000
O 	O 	0.72600 0.08220 0.00470 -0.54000
C 	C 	0.75300 0.06950 0.42750 0.39400
C 	C 	0.79180 0.12200 0.28790 -0.17500
C 	C 	0.77450 0.12180 0.08910 0.20200
C 	C 	0.81910 0.17080 0.97210 -0.07000
H 	H 	0.80720 0.16880 0.82600 0.06600
Co	Co	0.31787 0.36613 0.46633 1.16100
O 	O 	0.36937 0.36203 0.70533 -0.58600
O 	O 	0.43917 0.40803 0.93443 -0.45100
O 	O 	0.39267 0.41553 0.33803 -0.54000
C 	C 	0.41967 0.40283 0.76083 0.39400
C 	C 	0.45847 0.45533 0.62123 -0.17600
C 	C 	0.44117 0.45513 0.42243 0.20300
C 	C 	0.48577 0.50413 0.30543 -0.07200
H 	H 	0.47387 0.50213 0.15933 0.06600
Co	Co	0.98453 0.69947 0.79967 1.16100
O 	O 	0.03603 0.69537 0.03867 -0.58500
O 	O 	0.10583 0.74137 0.26777 -0.45100
O 	O 	0.05933 0.74887 0.67137 -0.54000
C 	C 	0.08633 0.73617 0.09417 0.39500
C 	C 	0.12513 0.78867 0.95457 -0.17700
C 	C 	0.10783 0.78847 0.75577 0.20300
C 	C 	0.15243 0.83747 0.63877 -0.07200
H 	H 	0.14053 0.83547 0.49267 0.06700
Co	Co	0.96720 0.61840 0.13300 1.16100
O 	O 	0.97130 0.67400 0.37200 -0.58600
O 	O 	0.92530 0.69780 0.60110 -0.45100
O 	O 	0.91780 0.64380 0.00470 -0.54000
C 	C 	0.93050 0.68350 0.42750 0.39400
C 	C 	0.87800 0.66980 0.28790 -0.17600
C 	C 	0.87820 0.65270 0.08910 0.20200
C 	C 	0.82920 0.64830 0.97210 -0.07100
H 	H 	0.83120 0.63840 0.82600 0.06600
Co	Co	0.63387 0.95173 0.46633 1.16100
O 	O 	0.63797 0.00733 0.70533 -0.58600
O 	O 	0.59197 0.03113 0.93443 -0.45100
O 	O 	0.58447 0.97713 0.33803 -0.54000
C 	C 	0.59717 0.01683 0.76083 0.39400
C 	C 	0.54467 0.00313 0.62123 -0.17600
C 	C 	0.54487 0.98603 0.42243 0.20300
C 	C 	0.49587 0.98163 0.30543 -0.07200
H 	H 	0.49787 0.97173 0.15933 0.06600
Co	Co	0.30053 0.28507 0.79967 1.16100
O 	O 	0.30463 0.34067 0.03867 -0.58600
O 	O 	0.25863 0.36447 0.26777 -0.45100
O 	O 	0.25113 0.31047 0.67137 -0.54000
C 	C 	0.26383 0.35017 0.09417 0.39400
C 	C 	0.21133 0.33647 0.95457 -0.17600
C 	C 	0.21153 0.31937 0.75577 0.20300
C 	C 	0.16253 0.31497 0.63877 -0.07200
H 	H 	0.16453 0.30507 0.49267 0.06600
Co	Co	0.61840 0.65120 0.86700 1.16100
O 	O 	0.67400 0.70270 0.62800 -0.58600
O 	O 	0.69780 0.77250 0.39890 -0.45100
O 	O 	0.64380 0.72600 0.99530 -0.54000
C 	C 	0.68350 0.75300 0.57250 0.39400
C 	C 	0.66980 0.79180 0.71210 -0.17600
C 	C 	0.65270 0.77450 0.91090 0.20200
C 	C 	0.64830 0.81910 0.02790 -0.07100
H 	H 	0.63840 0.80720 0.17400 0.06600
Co	Co	0.28507 0.98453 0.20033 1.16100
O 	O 	0.34067 0.03603 0.96133 -0.58600
O 	O 	0.36447 0.10583 0.73223 -0.45100
O 	O 	0.31047 0.05933 0.32863 -0.54000
C 	C 	0.35017 0.08633 0.90583 0.39400
C 	C 	0.33647 0.12513 0.04543 -0.17700
C 	C 	0.31937 0.10783 0.24423 0.20300
C 	C 	0.31497 0.15243 0.36123 -0.07200
H 	H 	0.30507 0.14053 0.50733 0.06600
Co	Co	0.95173 0.31787 0.53367 1.16100
O 	O 	0.00733 0.36937 0.29467 -0.58600
O 	O 	0.03113 0.43917 0.06557 -0.45100
O 	O 	0.97713 0.39267 0.66197 -0.54000
C 	C 	0.01683 0.41967 0.23917 0.39400
C 	C 	0.00313 0.45847 0.37877 -0.17600
C 	C 	0.98603 0.44117 0.57757 0.20300
C 	C 	0.98163 0.48577 0.69457 -0.07200
H 	H 	0.97173 0.47387 0.84067 0.06600
Co	Co	0.34880 0.96720 0.86700 1.16100
O 	O 	0.29730 0.97130 0.62800 -0.58600
O 	O 	0.22750 0.92530 0.39890 -0.45000
O 	O 	0.27400 0.91780 0.99530 -0.54000
C 	C 	0.24700 0.93050 0.57250 0.39400
C 	C 	0.20820 0.87800 0.71210 -0.17500
C 	C 	0.22550 0.87820 0.91090 0.20200
C 	C 	0.18090 0.82920 0.02790 -0.07000
H 	H 	0.19280 0.83120 0.17400 0.06600
Co	Co	0.01547 0.30053 0.20033 1.16100
O 	O 	0.96397 0.30463 0.96133 -0.58500
O 	O 	0.89417 0.25863 0.73223 -0.45100
O 	O 	0.94067 0.25113 0.32863 -0.54000
C 	C 	0.91367 0.26383 0.90583 0.39500
C 	C 	0.87487 0.21133 0.04543 -0.17700
C 	C 	0.89217 0.21153 0.24423 0.20300
C 	C 	0.84757 0.16253 0.36123 -0.07200
H 	H 	0.85947 0.16453 0.50733 0.06700
Co	Co	0.68213 0.63387 0.53367 1.16100
O 	O 	0.63063 0.63797 0.29467 -0.58600
O 	O 	0.56083 0.59197 0.06557 -0.45100
O 	O 	0.60733 0.58447 0.66197 -0.54000
C 	C 	0.58033 0.59717 0.23917 0.39400
C 	C 	0.54153 0.54467 0.37877 -0.17600
C 	C 	0.55883 0.54487 0.57757 0.20300
C 	C 	0.51423 0.49587 0.69457 -0.07200
H 	H 	0.52613 0.49787 0.84067 0.06600
Co	Co	0.03280 0.38160 0.86700 1.16100
O 	O 	0.02870 0.32600 0.62800 -0.58600
O 	O 	0.07470 0.30220 0.39890 -0.45100
O 	O 	0.08220 0.35620 0.99530 -0.54000
C 	C 	0.06950 0.31650 0.57250 0.39400
C 	C 	0.12200 0.33020 0.71210 -0.17600
C 	C 	0.12180 0.34730 0.91090 0.20200
C 	C 	0.17080 0.35170 0.02790 -0.07100
H 	H 	0.16880 0.36160 0.17400 0.06600
Co	Co	0.69947 0.71493 0.20033 1.16100
O 	O 	0.69537 0.65933 0.96133 -0.58600
O 	O 	0.74137 0.63553 0.73223 -0.45100
O 	O 	0.74887 0.68953 0.32863 -0.54000
C 	C 	0.73617 0.64983 0.90583 0.39400
C 	C 	0.78867 0.66353 0.04543 -0.17600
C 	C 	0.78847 0.68063 0.24423 0.20300
C 	C 	0.83747 0.68503 0.36123 -0.07200
H 	H 	0.83547 0.69493 0.50733 0.06600
Co	Co	0.36613 0.04827 0.53367 1.16100
O 	O 	0.36203 0.99267 0.29467 -0.58600
O 	O 	0.40803 0.96887 0.06557 -0.45100
O 	O 	0.41553 0.02287 0.66197 -0.54000
C 	C 	0.40283 0.98317 0.23917 0.39400
C 	C 	0.45533 0.99687 0.37877 -0.17600
C 	C 	0.45513 0.01397 0.57757 0.20300
C 	C 	0.50413 0.01837 0.69457 -0.07200
H 	H 	0.50213 0.02827 0.84067 0.06600
