data_crystal

_cell_length_a 26.32620
_cell_length_b 26.32620
_cell_length_c 7.04400
_cell_angle_alpha 90.00000
_cell_angle_beta  90.00000
_cell_angle_gamma 120.00000

_symmetry_space_group_name_	'P 1'
_symmetry_space_group_name_H-M	'P 1'

loop_
_symmetry_equiv_pos_as_xyz
  x,y,z

loop_
_atom_site_label
_atom_site_type_symbol
_atom_site_fract_x
_atom_site_fract_y
_atom_site_fract_z
_atom_site_charge
Mn	Mn	0.38560 0.36090 0.14200 1.28100
O 	O 	0.32920 0.29450 0.36150 -0.58900
O 	O 	0.30070 0.22780 0.58890 -0.49600
O 	O 	0.35720 0.27680 0.01070 -0.56600
C 	C 	0.32020 0.24570 0.41930 0.39900
C 	C 	0.32880 0.20530 0.28760 -0.16300
C 	C 	0.34530 0.22350 0.08980 0.15900
C 	C 	0.35240 0.18320 0.97900 -0.08300
H 	H 	0.36090 0.19190 0.83880 0.05000
Mn	Mn	0.05227 0.69423 0.47533 1.28100
O 	O 	0.99587 0.62783 0.69483 -0.58800
O 	O 	0.96737 0.56113 0.92223 -0.49600
O 	O 	0.02387 0.61013 0.34403 -0.56600
C 	C 	0.98687 0.57903 0.75263 0.39900
C 	C 	0.99547 0.53863 0.62093 -0.16300
C 	C 	0.01197 0.55683 0.42313 0.15900
C 	C 	0.01907 0.51653 0.31233 -0.08300
H 	H 	0.02757 0.52523 0.17213 0.05000
Mn	Mn	0.71893 0.02757 0.80867 1.28100
O 	O 	0.66253 0.96117 0.02817 -0.58800
O 	O 	0.63403 0.89447 0.25557 -0.49600
O 	O 	0.69053 0.94347 0.67737 -0.56600
C 	C 	0.65353 0.91237 0.08597 0.39900
C 	C 	0.66213 0.87197 0.95427 -0.16300
C 	C 	0.67863 0.89017 0.75647 0.15900
C 	C 	0.68573 0.84987 0.64567 -0.08300
H 	H 	0.69423 0.85857 0.50547 0.05100
Mn	Mn	0.63910 0.02470 0.14200 1.28200
O 	O 	0.70550 0.03470 0.36150 -0.58700
O 	O 	0.77220 0.07290 0.58890 -0.49500
O 	O 	0.72320 0.08040 0.01070 -0.56500
C 	C 	0.75430 0.07450 0.41930 0.40000
C 	C 	0.79470 0.12350 0.28760 -0.16200
C 	C 	0.77650 0.12180 0.08980 0.15900
C 	C 	0.81680 0.16920 0.97900 -0.08100
H 	H 	0.80810 0.16900 0.83880 0.05000
Mn	Mn	0.30577 0.35803 0.47533 1.28200
O 	O 	0.37217 0.36803 0.69483 -0.58800
O 	O 	0.43887 0.40623 0.92223 -0.49500
O 	O 	0.38987 0.41373 0.34403 -0.56500
C 	C 	0.42097 0.40783 0.75263 0.40000
C 	C 	0.46137 0.45683 0.62093 -0.16200
C 	C 	0.44317 0.45513 0.42313 0.16000
C 	C 	0.48347 0.50253 0.31233 -0.08200
H 	H 	0.47477 0.50233 0.17213 0.05100
Mn	Mn	0.97243 0.69137 0.80867 1.28200
O 	O 	0.03883 0.70137 0.02817 -0.58700
O 	O 	0.10553 0.73957 0.25557 -0.49500
O 	O 	0.05653 0.74707 0.67737 -0.56500
C 	C 	0.08763 0.74117 0.08597 0.40100
C 	C 	0.12803 0.79017 0.95427 -0.16300
C 	C 	0.10983 0.78847 0.75647 0.16000
C 	C 	0.15013 0.83587 0.64567 -0.08200
H 	H 	0.14143 0.83567 0.50547 0.05100
Mn	Mn	0.97530 0.61440 0.14200 1.28200
O 	O 	0.96530 0.67080 0.36150 -0.58800
O 	O 	0.92710 0.69930 0.58890 -0.49500
O 	O 	0.91960 0.64280 0.01070 -0.56500
C 	C 	0.92550 0.67980 0.41930 0.40000
C 	C 	0.87650 0.67120 0.28760 -0.16200
C 	C 	0.87820 0.65470 0.08980 0.16000
C 	C 	0.83080 0.64760 0.97900 -0.08200
H 	H 	0.83100 0.63910 0.83880 0.05100
Mn	Mn	0.64197 0.94773 0.47533 1.28200
O 	O 	0.63197 0.00413 0.69483 -0.58700
O 	O 	0.59377 0.03263 0.92223 -0.49500
O 	O 	0.58627 0.97613 0.34403 -0.56500
C 	C 	0.59217 0.01313 0.75263 0.40000
C 	C 	0.54317 0.00453 0.62093 -0.16200
C 	C 	0.54487 0.98803 0.42313 0.16000
C 	C 	0.49747 0.98093 0.31233 -0.08200
H 	H 	0.49767 0.97243 0.17213 0.05100
Mn	Mn	0.30863 0.28107 0.80867 1.28200
O 	O 	0.29863 0.33747 0.02817 -0.58800
O 	O 	0.26043 0.36597 0.25557 -0.49500
O 	O 	0.25293 0.30947 0.67737 -0.56500
C 	C 	0.25883 0.34647 0.08597 0.40000
C 	C 	0.20983 0.33787 0.95427 -0.16200
C 	C 	0.21153 0.32137 0.75647 0.16000
C 	C 	0.16413 0.31427 0.64567 -0.08200
H 	H 	0.16433 0.30577 0.50547 0.05100
Mn	Mn	0.61440 0.63910 0.85800 1.28200
O 	O 	0.67080 0.70550 0.63850 -0.58800
O 	O 	0.69930 0.77220 0.41110 -0.49500
O 	O 	0.64280 0.72320 0.98930 -0.56500
C 	C 	0.67980 0.75430 0.58070 0.40000
C 	C 	0.67120 0.79470 0.71240 -0.16200
C 	C 	0.65470 0.77650 0.91020 0.16000
C 	C 	0.64760 0.81680 0.02100 -0.08200
H 	H 	0.63910 0.80810 0.16120 0.05100
Mn	Mn	0.28107 0.97243 0.19133 1.28200
O 	O 	0.33747 0.03883 0.97183 -0.58700
O 	O 	0.36597 0.10553 0.74443 -0.49500
O 	O 	0.30947 0.05653 0.32263 -0.56500
C 	C 	0.34647 0.08763 0.91403 0.40000
C 	C 	0.33787 0.12803 0.04573 -0.16200
C 	C 	0.32137 0.10983 0.24353 0.16000
C 	C 	0.31427 0.15013 0.35433 -0.08200
H 	H 	0.30577 0.14143 0.49453 0.05100
Mn	Mn	0.94773 0.30577 0.52467 1.28200
O 	O 	0.00413 0.37217 0.30517 -0.58700
O 	O 	0.03263 0.43887 0.07777 -0.49500
O 	O 	0.97613 0.38987 0.65597 -0.56500
C 	C 	0.01313 0.42097 0.24737 0.40000
C 	C 	0.00453 0.46137 0.37907 -0.16200
C 	C 	0.98803 0.44317 0.57687 0.16000
C 	C 	0.98093 0.48347 0.68767 -0.08200
H 	H 	0.97243 0.47477 0.82787 0.05100
Mn	Mn	0.36090 0.97530 0.85800 1.28200
O 	O 	0.29450 0.96530 0.63850 -0.58700
O 	O 	0.22780 0.92710 0.41110 -0.49500
O 	O 	0.27680 0.91960 0.98930 -0.56500
C 	C 	0.24570 0.92550 0.58070 0.40000
C 	C 	0.20530 0.87650 0.71240 -0.16200
C 	C 	0.22350 0.87820 0.91020 0.15900
C 	C 	0.18320 0.83080 0.02100 -0.08100
H 	H 	0.19190 0.83100 0.16120 0.05000
Mn	Mn	0.02757 0.30863 0.19133 1.28200
O 	O 	0.96117 0.29863 0.97183 -0.58700
O 	O 	0.89447 0.26043 0.74443 -0.49500
O 	O 	0.94347 0.25293 0.32263 -0.56500
C 	C 	0.91237 0.25883 0.91403 0.40100
C 	C 	0.87197 0.20983 0.04573 -0.16300
C 	C 	0.89017 0.21153 0.24353 0.16000
C 	C 	0.84987 0.16413 0.35433 -0.08200
H 	H 	0.85857 0.16433 0.49453 0.05100
Mn	Mn	0.69423 0.64197 0.52467 1.28200
O 	O 	0.62783 0.63197 0.30517 -0.58800
O 	O 	0.56113 0.59377 0.07777 -0.49500
O 	O 	0.61013 0.58627 0.65597 -0.56500
C 	C 	0.57903 0.59217 0.24737 0.40000
C 	C 	0.53863 0.54317 0.37907 -0.16200
C 	C 	0.55683 0.54487 0.57687 0.16000
C 	C 	0.51653 0.49747 0.68767 -0.08200
H 	H 	0.52523 0.49767 0.82787 0.05100
Mn	Mn	0.02470 0.38560 0.85800 1.28200
O 	O 	0.03470 0.32920 0.63850 -0.58800
O 	O 	0.07290 0.30070 0.41110 -0.49500
O 	O 	0.08040 0.35720 0.98930 -0.56500
C 	C 	0.07450 0.32020 0.58070 0.40000
C 	C 	0.12350 0.32880 0.71240 -0.16200
C 	C 	0.12180 0.34530 0.91020 0.16000
C 	C 	0.16920 0.35240 0.02100 -0.08200
H 	H 	0.16900 0.36090 0.16120 0.05100
Mn	Mn	0.69137 0.71893 0.19133 1.28200
O 	O 	0.70137 0.66253 0.97183 -0.58800
O 	O 	0.73957 0.63403 0.74443 -0.49500
O 	O 	0.74707 0.69053 0.32263 -0.56500
C 	C 	0.74117 0.65353 0.91403 0.40000
C 	C 	0.79017 0.66213 0.04573 -0.16200
C 	C 	0.78847 0.67863 0.24353 0.16000
C 	C 	0.83587 0.68573 0.35433 -0.08200
H 	H 	0.83567 0.69423 0.49453 0.05100
Mn	Mn	0.35803 0.05227 0.52467 1.28200
O 	O 	0.36803 0.99587 0.30517 -0.58700
O 	O 	0.40623 0.96737 0.07777 -0.49500
O 	O 	0.41373 0.02387 0.65597 -0.56500
C 	C 	0.40783 0.98687 0.24737 0.40000
C 	C 	0.45683 0.99547 0.37907 -0.16200
C 	C 	0.45513 0.01197 0.57687 0.16000
C 	C 	0.50253 0.01907 0.68767 -0.08200
H 	H 	0.50233 0.02757 0.82787 0.05100
