data_crystal

_cell_length_a 25.91400
_cell_length_b 25.91400
_cell_length_c 6.79860
_cell_angle_alpha 90.00000
_cell_angle_beta  90.00000
_cell_angle_gamma 120.00000

_symmetry_space_group_name_	'P 1'
_symmetry_space_group_name_H-M	'P 1'

loop_
_symmetry_equiv_pos_as_xyz
  x,y,z

loop_
_atom_site_label
_atom_site_type_symbol
_atom_site_fract_x
_atom_site_fract_y
_atom_site_fract_z
_atom_site_charge
Zn	Zn	0.38360 0.35460 0.14360 1.22400
O 	O 	0.32810 0.29660 0.37510 -0.58500
O 	O 	0.30010 0.22670 0.61120 -0.48300
O 	O 	0.35370 0.27430 0.01660 -0.56400
C 	C 	0.31570 0.24480 0.43390 0.39300
C 	C 	0.32700 0.20640 0.28370 -0.16100
C 	C 	0.34310 0.22120 0.09190 0.22600
C 	C 	0.35250 0.18410 0.96440 -0.14200
H 	H 	0.36090 0.19100 0.83500 0.09900
Zn	Zn	0.05027 0.68793 0.47693 1.22300
O 	O 	0.99477 0.62993 0.70843 -0.58600
O 	O 	0.96677 0.56003 0.94453 -0.48400
O 	O 	0.02037 0.60763 0.34993 -0.56500
C 	C 	0.98237 0.57813 0.76723 0.39200
C 	C 	0.99367 0.53973 0.61703 -0.16200
C 	C 	0.00977 0.55453 0.42523 0.22600
C 	C 	0.01917 0.51743 0.29773 -0.14300
H 	H 	0.02757 0.52433 0.16833 0.09900
Zn	Zn	0.71693 0.02127 0.81027 1.22300
O 	O 	0.66143 0.96327 0.04177 -0.58600
O 	O 	0.63343 0.89337 0.27787 -0.48500
O 	O 	0.68703 0.94097 0.68327 -0.56500
C 	C 	0.64903 0.91147 0.10057 0.39200
C 	C 	0.66033 0.87307 0.95037 -0.16400
C 	C 	0.67643 0.88787 0.75857 0.22700
C 	C 	0.68583 0.85077 0.63107 -0.14300
H 	H 	0.69423 0.85767 0.50167 0.09900
Zn	Zn	0.64540 0.02900 0.14360 1.22300
O 	O 	0.70340 0.03150 0.37510 -0.58600
O 	O 	0.77330 0.07340 0.61120 -0.48400
O 	O 	0.72570 0.07940 0.01660 -0.56500
C 	C 	0.75520 0.07090 0.43390 0.39100
C 	C 	0.79360 0.12060 0.28370 -0.16200
C 	C 	0.77880 0.12190 0.09190 0.22500
C 	C 	0.81590 0.16840 0.96440 -0.14000
H 	H 	0.80900 0.16990 0.83500 0.09800
Zn	Zn	0.31207 0.36233 0.47693 1.22300
O 	O 	0.37007 0.36483 0.70843 -0.58600
O 	O 	0.43997 0.40673 0.94453 -0.48500
O 	O 	0.39237 0.41273 0.34993 -0.56500
C 	C 	0.42187 0.40423 0.76723 0.39200
C 	C 	0.46027 0.45393 0.61703 -0.16200
C 	C 	0.44547 0.45523 0.42523 0.22600
C 	C 	0.48257 0.50173 0.29773 -0.14300
H 	H 	0.47567 0.50323 0.16833 0.09900
Zn	Zn	0.97873 0.69567 0.81027 1.22300
O 	O 	0.03673 0.69817 0.04177 -0.58600
O 	O 	0.10663 0.74007 0.27787 -0.48500
O 	O 	0.05903 0.74607 0.68327 -0.56500
C 	C 	0.08853 0.73757 0.10057 0.39300
C 	C 	0.12693 0.78727 0.95037 -0.16500
C 	C 	0.11213 0.78857 0.75857 0.22700
C 	C 	0.14923 0.83507 0.63107 -0.14400
H 	H 	0.14233 0.83657 0.50167 0.10000
Zn	Zn	0.97100 0.61640 0.14360 1.22300
O 	O 	0.96850 0.67190 0.37510 -0.58600
O 	O 	0.92660 0.69990 0.61120 -0.48400
O 	O 	0.92060 0.64630 0.01660 -0.56500
C 	C 	0.92910 0.68430 0.43390 0.39200
C 	C 	0.87940 0.67300 0.28370 -0.16200
C 	C 	0.87810 0.65690 0.09190 0.22600
C 	C 	0.83160 0.64750 0.96440 -0.14200
H 	H 	0.83010 0.63910 0.83500 0.09900
Zn	Zn	0.63767 0.94973 0.47693 1.22300
O 	O 	0.63517 0.00523 0.70843 -0.58600
O 	O 	0.59327 0.03323 0.94453 -0.48400
O 	O 	0.58727 0.97963 0.34993 -0.56500
C 	C 	0.59577 0.01763 0.76723 0.39200
C 	C 	0.54607 0.00633 0.61703 -0.16200
C 	C 	0.54477 0.99023 0.42523 0.22600
C 	C 	0.49827 0.98083 0.29773 -0.14300
H 	H 	0.49677 0.97243 0.16833 0.09900
Zn	Zn	0.30433 0.28307 0.81027 1.22300
O 	O 	0.30183 0.33857 0.04177 -0.58600
O 	O 	0.25993 0.36657 0.27787 -0.48400
O 	O 	0.25393 0.31297 0.68327 -0.56500
C 	C 	0.26243 0.35097 0.10057 0.39200
C 	C 	0.21273 0.33967 0.95037 -0.16300
C 	C 	0.21143 0.32357 0.75857 0.22700
C 	C 	0.16493 0.31417 0.63107 -0.14300
H 	H 	0.16343 0.30577 0.50167 0.09900
Zn	Zn	0.61640 0.64540 0.85640 1.22300
O 	O 	0.67190 0.70340 0.62490 -0.58600
O 	O 	0.69990 0.77330 0.38880 -0.48400
O 	O 	0.64630 0.72570 0.98340 -0.56500
C 	C 	0.68430 0.75520 0.56610 0.39200
C 	C 	0.67300 0.79360 0.71630 -0.16200
C 	C 	0.65690 0.77880 0.90810 0.22600
C 	C 	0.64750 0.81590 0.03560 -0.14200
H 	H 	0.63910 0.80900 0.16500 0.09900
Zn	Zn	0.28307 0.97873 0.18973 1.22300
O 	O 	0.33857 0.03673 0.95823 -0.58600
O 	O 	0.36657 0.10663 0.72213 -0.48500
O 	O 	0.31297 0.05903 0.31673 -0.56500
C 	C 	0.35097 0.08853 0.89943 0.39200
C 	C 	0.33967 0.12693 0.04963 -0.16400
C 	C 	0.32357 0.11213 0.24143 0.22700
C 	C 	0.31417 0.14923 0.36893 -0.14300
H 	H 	0.30577 0.14233 0.49833 0.09900
Zn	Zn	0.94973 0.31207 0.52307 1.22300
O 	O 	0.00523 0.37007 0.29157 -0.58600
O 	O 	0.03323 0.43997 0.05547 -0.48400
O 	O 	0.97963 0.39237 0.65007 -0.56500
C 	C 	0.01763 0.42187 0.23277 0.39200
C 	C 	0.00633 0.46027 0.38297 -0.16200
C 	C 	0.99023 0.44547 0.57477 0.22600
C 	C 	0.98083 0.48257 0.70227 -0.14300
H 	H 	0.97243 0.47567 0.83167 0.09900
Zn	Zn	0.35460 0.97100 0.85640 1.22300
O 	O 	0.29660 0.96850 0.62490 -0.58600
O 	O 	0.22670 0.92660 0.38880 -0.48400
O 	O 	0.27430 0.92060 0.98340 -0.56500
C 	C 	0.24480 0.92910 0.56610 0.39100
C 	C 	0.20640 0.87940 0.71630 -0.16200
C 	C 	0.22120 0.87810 0.90810 0.22500
C 	C 	0.18410 0.83160 0.03560 -0.14000
H 	H 	0.19100 0.83010 0.16500 0.09800
Zn	Zn	0.02127 0.30433 0.18973 1.22300
O 	O 	0.96327 0.30183 0.95823 -0.58600
O 	O 	0.89337 0.25993 0.72213 -0.48500
O 	O 	0.94097 0.25393 0.31673 -0.56500
C 	C 	0.91147 0.26243 0.89943 0.39300
C 	C 	0.87307 0.21273 0.04963 -0.16500
C 	C 	0.88787 0.21143 0.24143 0.22700
C 	C 	0.85077 0.16493 0.36893 -0.14400
H 	H 	0.85767 0.16343 0.49833 0.10000
Zn	Zn	0.68793 0.63767 0.52307 1.22300
O 	O 	0.62993 0.63517 0.29157 -0.58600
O 	O 	0.56003 0.59327 0.05547 -0.48500
O 	O 	0.60763 0.58727 0.65007 -0.56500
C 	C 	0.57813 0.59577 0.23277 0.39200
C 	C 	0.53973 0.54607 0.38297 -0.16200
C 	C 	0.55453 0.54477 0.57477 0.22600
C 	C 	0.51743 0.49827 0.70227 -0.14300
H 	H 	0.52433 0.49677 0.83167 0.09900
Zn	Zn	0.02900 0.38360 0.85640 1.22300
O 	O 	0.03150 0.32810 0.62490 -0.58600
O 	O 	0.07340 0.30010 0.38880 -0.48400
O 	O 	0.07940 0.35370 0.98340 -0.56500
C 	C 	0.07090 0.31570 0.56610 0.39200
C 	C 	0.12060 0.32700 0.71630 -0.16200
C 	C 	0.12190 0.34310 0.90810 0.22600
C 	C 	0.16840 0.35250 0.03560 -0.14200
H 	H 	0.16990 0.36090 0.16500 0.09900
Zn	Zn	0.69567 0.71693 0.18973 1.22300
O 	O 	0.69817 0.66143 0.95823 -0.58600
O 	O 	0.74007 0.63343 0.72213 -0.48400
O 	O 	0.74607 0.68703 0.31673 -0.56500
C 	C 	0.73757 0.64903 0.89943 0.39200
C 	C 	0.78727 0.66033 0.04963 -0.16300
C 	C 	0.78857 0.67643 0.24143 0.22700
C 	C 	0.83507 0.68583 0.36893 -0.14300
H 	H 	0.83657 0.69423 0.49833 0.09900
Zn	Zn	0.36233 0.05027 0.52307 1.22300
O 	O 	0.36483 0.99477 0.29157 -0.58600
O 	O 	0.40673 0.96677 0.05547 -0.48400
O 	O 	0.41273 0.02037 0.65007 -0.56500
C 	C 	0.40423 0.98237 0.23277 0.39200
C 	C 	0.45393 0.99367 0.38297 -0.16200
C 	C 	0.45523 0.00977 0.57477 0.22600
C 	C 	0.50173 0.01917 0.70227 -0.14300
H 	H 	0.50323 0.02757 0.83167 0.09900
