data_crystal

_cell_length_a 25.87280
_cell_length_b 25.87280
_cell_length_c 6.87000
_cell_angle_alpha 90.00000
_cell_angle_beta  90.00000
_cell_angle_gamma 120.00000

_symmetry_space_group_name_	'P 1'
_symmetry_space_group_name_H-M	'P 1'

loop_
_symmetry_equiv_pos_as_xyz
  x,y,z

loop_
_atom_site_label
_atom_site_type_symbol
_atom_site_fract_x
_atom_site_fract_y
_atom_site_fract_z
_atom_site_charge
Mg	Mg	0.38040 0.35150 0.13820 1.46900
O 	O 	0.32522 0.29556 0.36200 -0.73700
O 	O 	0.30284 0.22880 0.59760 -0.54700
O 	O 	0.35390 0.27440 0.00230 -0.66900
C 	C 	0.31582 0.24659 0.42390 0.49100
C 	C 	0.32894 0.20868 0.28580 -0.22200
C 	C 	0.34593 0.22389 0.09190 0.22500
C 	C 	0.35265 0.18251 0.97280 -0.08400
H 	H 	0.36060 0.19040 0.82630 0.06600
Mg	Mg	0.04707 0.68483 0.47153 1.46900
O 	O 	0.99189 0.62889 0.69533 -0.73500
O 	O 	0.96951 0.56213 0.93093 -0.54600
O 	O 	0.02057 0.60773 0.33563 -0.66800
C 	C 	0.98249 0.57992 0.75723 0.49200
C 	C 	0.99561 0.54201 0.61913 -0.22100
C 	C 	0.01260 0.55722 0.42523 0.22600
C 	C 	0.01932 0.51584 0.30613 -0.08400
H 	H 	0.02727 0.52373 0.15963 0.06700
Mg	Mg	0.71373 0.01817 0.80487 1.47000
O 	O 	0.65855 0.96223 0.02867 -0.73500
O 	O 	0.63617 0.89547 0.26427 -0.54600
O 	O 	0.68723 0.94107 0.66897 -0.66800
C 	C 	0.64915 0.91326 0.09057 0.49200
C 	C 	0.66227 0.87535 0.95247 -0.22200
C 	C 	0.67926 0.89056 0.75857 0.22600
C 	C 	0.68598 0.84918 0.63947 -0.08400
H 	H 	0.69393 0.85707 0.49297 0.06700
Mg	Mg	0.64850 0.02890 0.13820 1.47000
O 	O 	0.70444 0.02966 0.36200 -0.73500
O 	O 	0.77120 0.07404 0.59760 -0.54600
O 	O 	0.72560 0.07950 0.00230 -0.66800
C 	C 	0.75341 0.06923 0.42390 0.49200
C 	C 	0.79132 0.12026 0.28580 -0.22100
C 	C 	0.77611 0.12204 0.09190 0.22500
C 	C 	0.81749 0.17014 0.97280 -0.08200
H 	H 	0.80960 0.17020 0.82630 0.06700
Mg	Mg	0.31517 0.36223 0.47153 1.47000
O 	O 	0.37111 0.36299 0.69533 -0.73600
O 	O 	0.43787 0.40737 0.93093 -0.54700
O 	O 	0.39227 0.41283 0.33563 -0.66800
C 	C 	0.42008 0.40256 0.75723 0.49200
C 	C 	0.45799 0.45359 0.61913 -0.22100
C 	C 	0.44278 0.45537 0.42523 0.22600
C 	C 	0.48416 0.50347 0.30613 -0.08400
H 	H 	0.47627 0.50353 0.15963 0.06700
Mg	Mg	0.98183 0.69557 0.80487 1.47000
O 	O 	0.03777 0.69633 0.02867 -0.73500
O 	O 	0.10453 0.74071 0.26427 -0.54700
O 	O 	0.05893 0.74617 0.66897 -0.66800
C 	C 	0.08674 0.73590 0.09057 0.49300
C 	C 	0.12465 0.78693 0.95247 -0.22300
C 	C 	0.10944 0.78871 0.75857 0.22700
C 	C 	0.15082 0.83681 0.63947 -0.08400
H 	H 	0.14293 0.83687 0.49297 0.06800
Mg	Mg	0.97110 0.61960 0.13820 1.47000
O 	O 	0.97034 0.67478 0.36200 -0.73600
O 	O 	0.92596 0.69716 0.59760 -0.54600
O 	O 	0.92050 0.64610 0.00230 -0.66900
C 	C 	0.93077 0.68418 0.42390 0.49200
C 	C 	0.87974 0.67106 0.28580 -0.22100
C 	C 	0.87796 0.65407 0.09190 0.22600
C 	C 	0.82986 0.64735 0.97280 -0.08300
H 	H 	0.82980 0.63940 0.82630 0.06700
Mg	Mg	0.63777 0.95293 0.47153 1.47000
O 	O 	0.63701 0.00811 0.69533 -0.73500
O 	O 	0.59263 0.03049 0.93093 -0.54600
O 	O 	0.58717 0.97943 0.33563 -0.66800
C 	C 	0.59744 0.01751 0.75723 0.49200
C 	C 	0.54641 0.00439 0.61913 -0.22100
C 	C 	0.54463 0.98740 0.42523 0.22600
C 	C 	0.49653 0.98068 0.30613 -0.08400
H 	H 	0.49647 0.97273 0.15963 0.06700
Mg	Mg	0.30443 0.28627 0.80487 1.47000
O 	O 	0.30367 0.34145 0.02867 -0.73600
O 	O 	0.25929 0.36383 0.26427 -0.54600
O 	O 	0.25383 0.31277 0.66897 -0.66800
C 	C 	0.26410 0.35085 0.09057 0.49200
C 	C 	0.21307 0.33773 0.95247 -0.22100
C 	C 	0.21129 0.32074 0.75857 0.22600
C 	C 	0.16319 0.31402 0.63947 -0.08400
H 	H 	0.16313 0.30607 0.49297 0.06700
Mg	Mg	0.61960 0.64850 0.86180 1.47000
O 	O 	0.67478 0.70444 0.63800 -0.73600
O 	O 	0.69716 0.77120 0.40240 -0.54600
O 	O 	0.64610 0.72560 0.99770 -0.66800
C 	C 	0.68418 0.75341 0.57610 0.49200
C 	C 	0.67106 0.79132 0.71420 -0.22100
C 	C 	0.65407 0.77611 0.90810 0.22600
C 	C 	0.64735 0.81749 0.02720 -0.08300
H 	H 	0.63940 0.80960 0.17370 0.06700
Mg	Mg	0.28627 0.98183 0.19513 1.47000
O 	O 	0.34145 0.03777 0.97133 -0.73500
O 	O 	0.36383 0.10453 0.73573 -0.54600
O 	O 	0.31277 0.05893 0.33103 -0.66800
C 	C 	0.35085 0.08674 0.90943 0.49200
C 	C 	0.33773 0.12465 0.04753 -0.22200
C 	C 	0.32074 0.10944 0.24143 0.22600
C 	C 	0.31402 0.15082 0.36053 -0.08400
H 	H 	0.30607 0.14293 0.50703 0.06700
Mg	Mg	0.95293 0.31517 0.52847 1.47000
O 	O 	0.00811 0.37111 0.30467 -0.73500
O 	O 	0.03049 0.43787 0.06907 -0.54600
O 	O 	0.97943 0.39227 0.66437 -0.66800
C 	C 	0.01751 0.42008 0.24277 0.49200
C 	C 	0.00439 0.45799 0.38087 -0.22100
C 	C 	0.98740 0.44278 0.57477 0.22600
C 	C 	0.98068 0.48416 0.69387 -0.08400
H 	H 	0.97273 0.47627 0.84037 0.06700
Mg	Mg	0.35150 0.97110 0.86180 1.47000
O 	O 	0.29556 0.97034 0.63800 -0.73500
O 	O 	0.22880 0.92596 0.40240 -0.54600
O 	O 	0.27440 0.92050 0.99770 -0.66800
C 	C 	0.24659 0.93077 0.57610 0.49200
C 	C 	0.20868 0.87974 0.71420 -0.22100
C 	C 	0.22389 0.87796 0.90810 0.22500
C 	C 	0.18251 0.82986 0.02720 -0.08200
H 	H 	0.19040 0.82980 0.17370 0.06700
Mg	Mg	0.01817 0.30443 0.19513 1.47000
O 	O 	0.96223 0.30367 0.97133 -0.73500
O 	O 	0.89547 0.25929 0.73573 -0.54700
O 	O 	0.94107 0.25383 0.33103 -0.66800
C 	C 	0.91326 0.26410 0.90943 0.49300
C 	C 	0.87535 0.21307 0.04753 -0.22300
C 	C 	0.89056 0.21129 0.24143 0.22700
C 	C 	0.84918 0.16319 0.36053 -0.08400
H 	H 	0.85707 0.16313 0.50703 0.06800
Mg	Mg	0.68483 0.63777 0.52847 1.47000
O 	O 	0.62889 0.63701 0.30467 -0.73600
O 	O 	0.56213 0.59263 0.06907 -0.54700
O 	O 	0.60773 0.58717 0.66437 -0.66800
C 	C 	0.57992 0.59744 0.24277 0.49200
C 	C 	0.54201 0.54641 0.38087 -0.22100
C 	C 	0.55722 0.54463 0.57477 0.22600
C 	C 	0.51584 0.49653 0.69387 -0.08400
H 	H 	0.52373 0.49647 0.84037 0.06700
Mg	Mg	0.02890 0.38040 0.86180 1.47000
O 	O 	0.02966 0.32522 0.63800 -0.73600
O 	O 	0.07404 0.30284 0.40240 -0.54600
O 	O 	0.07950 0.35390 0.99770 -0.66900
C 	C 	0.06923 0.31582 0.57610 0.49200
C 	C 	0.12026 0.32894 0.71420 -0.22100
C 	C 	0.12204 0.34593 0.90810 0.22600
C 	C 	0.17014 0.35265 0.02720 -0.08300
H 	H 	0.17020 0.36060 0.17370 0.06700
Mg	Mg	0.69557 0.71373 0.19513 1.47000
O 	O 	0.69633 0.65855 0.97133 -0.73600
O 	O 	0.74071 0.63617 0.73573 -0.54600
O 	O 	0.74617 0.68723 0.33103 -0.66800
C 	C 	0.73590 0.64915 0.90943 0.49200
C 	C 	0.78693 0.66227 0.04753 -0.22100
C 	C 	0.78871 0.67926 0.24143 0.22600
C 	C 	0.83681 0.68598 0.36053 -0.08400
H 	H 	0.83687 0.69393 0.50703 0.06700
Mg	Mg	0.36223 0.04707 0.52847 1.47000
O 	O 	0.36299 0.99189 0.30467 -0.73500
O 	O 	0.40737 0.96951 0.06907 -0.54600
O 	O 	0.41283 0.02057 0.66437 -0.66800
C 	C 	0.40256 0.98249 0.24277 0.49200
C 	C 	0.45359 0.99561 0.38087 -0.22100
C 	C 	0.45537 0.01260 0.57477 0.22600
C 	C 	0.50347 0.01932 0.69387 -0.08400
H 	H 	0.50353 0.02727 0.84037 0.06700
