data_crystal

_cell_length_a 25.85040
_cell_length_b 25.85040
_cell_length_c 6.80720
_cell_angle_alpha 90.00000
_cell_angle_beta  90.00000
_cell_angle_gamma 120.00000

_symmetry_space_group_name_	'P 1'
_symmetry_space_group_name_H-M	'P 1'

loop_
_symmetry_equiv_pos_as_xyz
  x,y,z

loop_
_atom_site_label
_atom_site_type_symbol
_atom_site_fract_x
_atom_site_fract_y
_atom_site_fract_z
_atom_site_charge
Zn	Zn	0.38190 0.35090 0.14540 1.21700
O 	O 	0.33250 0.29550 0.37190 -0.64600
O 	O 	0.35580 0.27420 0.00950 -0.56200
O 	O 	0.43870 0.40930 0.93280 -0.50800
C 	C 	0.31650 0.24520 0.42910 0.51000
C 	C 	0.34560 0.22120 0.09660 0.22700
C 	C 	0.32690 0.20810 0.28790 -0.21400
C 	C 	0.35030 0.18160 0.96950 -0.12000
H 	H 	0.36330 0.19050 0.84500 0.09600
Zn	Zn	0.04857 0.68423 0.47873 1.21700
O 	O 	0.99917 0.62883 0.70523 -0.64600
O 	O 	0.02247 0.60753 0.34283 -0.56200
O 	O 	0.10537 0.74263 0.26613 -0.50800
C 	C 	0.98317 0.57853 0.76243 0.51000
C 	C 	0.01227 0.55453 0.42993 0.22700
C 	C 	0.99357 0.54143 0.62123 -0.21400
C 	C 	0.01697 0.51493 0.30283 -0.12000
H 	H 	0.02997 0.52383 0.17833 0.09600
Zn	Zn	0.71523 0.01757 0.81207 1.21700
O 	O 	0.66583 0.96217 0.03857 -0.64600
O 	O 	0.68913 0.94087 0.67617 -0.56200
O 	O 	0.77203 0.07597 0.59947 -0.50800
C 	C 	0.64983 0.91187 0.09577 0.51100
C 	C 	0.67893 0.88787 0.76327 0.22700
C 	C 	0.66023 0.87477 0.95457 -0.21500
C 	C 	0.68363 0.84827 0.63617 -0.12100
H 	H 	0.69663 0.85717 0.51167 0.09600
Zn	Zn	0.64910 0.03100 0.14540 1.21700
O 	O 	0.70450 0.03700 0.37190 -0.64600
O 	O 	0.72580 0.08160 0.00950 -0.56200
O 	O 	0.59070 0.02940 0.93280 -0.50800
C 	C 	0.75480 0.07130 0.42910 0.51000
C 	C 	0.77880 0.12440 0.09660 0.22600
C 	C 	0.79190 0.11880 0.28790 -0.21400
C 	C 	0.81840 0.16870 0.96950 -0.11900
H 	H 	0.80950 0.17280 0.84500 0.09600
Zn	Zn	0.31577 0.36433 0.47873 1.21700
O 	O 	0.37117 0.37033 0.70523 -0.64600
O 	O 	0.39247 0.41493 0.34283 -0.56200
O 	O 	0.25737 0.36273 0.26613 -0.50800
C 	C 	0.42147 0.40463 0.76243 0.51100
C 	C 	0.44547 0.45773 0.42993 0.22700
C 	C 	0.45857 0.45213 0.62123 -0.21400
C 	C 	0.48507 0.50203 0.30283 -0.12000
H 	H 	0.47617 0.50613 0.17833 0.09600
Zn	Zn	0.98243 0.69767 0.81207 1.21700
O 	O 	0.03783 0.70367 0.03857 -0.64600
O 	O 	0.05913 0.74827 0.67617 -0.56200
O 	O 	0.92403 0.69607 0.59947 -0.50800
C 	C 	0.08813 0.73797 0.09577 0.51100
C 	C 	0.11213 0.79107 0.76327 0.22800
C 	C 	0.12523 0.78547 0.95457 -0.21600
C 	C 	0.15173 0.83537 0.63617 -0.12100
H 	H 	0.14283 0.83947 0.51167 0.09700
Zn	Zn	0.96900 0.61810 0.14540 1.21700
O 	O 	0.96300 0.66750 0.37190 -0.64600
O 	O 	0.91840 0.64420 0.00950 -0.56200
O 	O 	0.97060 0.56130 0.93280 -0.50800
C 	C 	0.92870 0.68350 0.42910 0.51000
C 	C 	0.87560 0.65440 0.09660 0.22700
C 	C 	0.88120 0.67310 0.28790 -0.21400
C 	C 	0.83130 0.64970 0.96950 -0.12000
H 	H 	0.82720 0.63670 0.84500 0.09600
Zn	Zn	0.63567 0.95143 0.47873 1.21700
O 	O 	0.62967 0.00083 0.70523 -0.64600
O 	O 	0.58507 0.97753 0.34283 -0.56200
O 	O 	0.63727 0.89463 0.26613 -0.50800
C 	C 	0.59537 0.01683 0.76243 0.51000
C 	C 	0.54227 0.98773 0.42993 0.22700
C 	C 	0.54787 0.00643 0.62123 -0.21400
C 	C 	0.49797 0.98303 0.30283 -0.12000
H 	H 	0.49387 0.97003 0.17833 0.09600
Zn	Zn	0.30233 0.28477 0.81207 1.21700
O 	O 	0.29633 0.33417 0.03857 -0.64600
O 	O 	0.25173 0.31087 0.67617 -0.56200
O 	O 	0.30393 0.22797 0.59947 -0.50800
C 	C 	0.26203 0.35017 0.09577 0.51100
C 	C 	0.20893 0.32107 0.76327 0.22700
C 	C 	0.21453 0.33977 0.95457 -0.21500
C 	C 	0.16463 0.31637 0.63617 -0.12000
H 	H 	0.16053 0.30337 0.51167 0.09600
Zn	Zn	0.61810 0.64910 0.85460 1.21700
O 	O 	0.66750 0.70450 0.62810 -0.64600
O 	O 	0.64420 0.72580 0.99050 -0.56200
O 	O 	0.56130 0.59070 0.06720 -0.50800
C 	C 	0.68350 0.75480 0.57090 0.51000
C 	C 	0.65440 0.77880 0.90340 0.22700
C 	C 	0.67310 0.79190 0.71210 -0.21400
C 	C 	0.64970 0.81840 0.03050 -0.12000
H 	H 	0.63670 0.80950 0.15500 0.09600
Zn	Zn	0.28477 0.98243 0.18793 1.21700
O 	O 	0.33417 0.03783 0.96143 -0.64600
O 	O 	0.31087 0.05913 0.32383 -0.56200
O 	O 	0.22797 0.92403 0.40053 -0.50800
C 	C 	0.35017 0.08813 0.90423 0.51100
C 	C 	0.32107 0.11213 0.23673 0.22700
C 	C 	0.33977 0.12523 0.04543 -0.21500
C 	C 	0.31637 0.15173 0.36383 -0.12100
H 	H 	0.30337 0.14283 0.48833 0.09600
Zn	Zn	0.95143 0.31577 0.52127 1.21700
O 	O 	0.00083 0.37117 0.29477 -0.64600
O 	O 	0.97753 0.39247 0.65717 -0.56200
O 	O 	0.89463 0.25737 0.73387 -0.50800
C 	C 	0.01683 0.42147 0.23757 0.51000
C 	C 	0.98773 0.44547 0.57007 0.22700
C 	C 	0.00643 0.45857 0.37877 -0.21400
C 	C 	0.98303 0.48507 0.69717 -0.12000
H 	H 	0.97003 0.47617 0.82167 0.09600
Zn	Zn	0.35090 0.96900 0.85460 1.21700
O 	O 	0.29550 0.96300 0.62810 -0.64600
O 	O 	0.27420 0.91840 0.99050 -0.56200
O 	O 	0.40930 0.97060 0.06720 -0.50800
C 	C 	0.24520 0.92870 0.57090 0.51000
C 	C 	0.22120 0.87560 0.90340 0.22600
C 	C 	0.20810 0.88120 0.71210 -0.21400
C 	C 	0.18160 0.83130 0.03050 -0.11900
H 	H 	0.19050 0.82720 0.15500 0.09600
Zn	Zn	0.01757 0.30233 0.18793 1.21700
O 	O 	0.96217 0.29633 0.96143 -0.64600
O 	O 	0.94087 0.25173 0.32383 -0.56200
O 	O 	0.07597 0.30393 0.40053 -0.50800
C 	C 	0.91187 0.26203 0.90423 0.51100
C 	C 	0.88787 0.20893 0.23673 0.22800
C 	C 	0.87477 0.21453 0.04543 -0.21600
C 	C 	0.84827 0.16463 0.36383 -0.12100
H 	H 	0.85717 0.16053 0.48833 0.09700
Zn	Zn	0.68423 0.63567 0.52127 1.21700
O 	O 	0.62883 0.62967 0.29477 -0.64600
O 	O 	0.60753 0.58507 0.65717 -0.56200
O 	O 	0.74263 0.63727 0.73387 -0.50800
C 	C 	0.57853 0.59537 0.23757 0.51100
C 	C 	0.55453 0.54227 0.57007 0.22700
C 	C 	0.54143 0.54787 0.37877 -0.21400
C 	C 	0.51493 0.49797 0.69717 -0.12000
H 	H 	0.52383 0.49387 0.82167 0.09600
Zn	Zn	0.03100 0.38190 0.85460 1.21700
O 	O 	0.03700 0.33250 0.62810 -0.64600
O 	O 	0.08160 0.35580 0.99050 -0.56200
O 	O 	0.02940 0.43870 0.06720 -0.50800
C 	C 	0.07130 0.31650 0.57090 0.51000
C 	C 	0.12440 0.34560 0.90340 0.22700
C 	C 	0.11880 0.32690 0.71210 -0.21400
C 	C 	0.16870 0.35030 0.03050 -0.12000
H 	H 	0.17280 0.36330 0.15500 0.09600
Zn	Zn	0.69767 0.71523 0.18793 1.21700
O 	O 	0.70367 0.66583 0.96143 -0.64600
O 	O 	0.74827 0.68913 0.32383 -0.56200
O 	O 	0.69607 0.77203 0.40053 -0.50800
C 	C 	0.73797 0.64983 0.90423 0.51100
C 	C 	0.79107 0.67893 0.23673 0.22700
C 	C 	0.78547 0.66023 0.04543 -0.21500
C 	C 	0.83537 0.68363 0.36383 -0.12000
H 	H 	0.83947 0.69663 0.48833 0.09600
Zn	Zn	0.36433 0.04857 0.52127 1.21700
O 	O 	0.37033 0.99917 0.29477 -0.64600
O 	O 	0.41493 0.02247 0.65717 -0.56200
O 	O 	0.36273 0.10537 0.73387 -0.50800
C 	C 	0.40463 0.98317 0.23757 0.51000
C 	C 	0.45773 0.01227 0.57007 0.22700
C 	C 	0.45213 0.99357 0.37877 -0.21400
C 	C 	0.50203 0.01697 0.69717 -0.12000
H 	H 	0.50613 0.02997 0.82167 0.09600
