data_crystal

_cell_length_a 26.00100
_cell_length_b 26.00100
_cell_length_c 6.86070
_cell_angle_alpha 90.00000
_cell_angle_beta  90.00000
_cell_angle_gamma 120.00000

_symmetry_space_group_name_	'P 1'
_symmetry_space_group_name_H-M	'P 1'

loop_
_symmetry_equiv_pos_as_xyz
  x,y,z

loop_
_atom_site_label
_atom_site_type_symbol
_atom_site_fract_x
_atom_site_fract_y
_atom_site_fract_z
_atom_site_charge
Fe	Fe	0.38556 0.35294 0.14270 1.14800
O 	O 	0.32553 0.29320 0.35210 -0.55900
O 	O 	0.30331 0.22615 0.60000 -0.45400
O 	O 	0.35340 0.27077 0.00780 -0.52500
C 	C 	0.31607 0.24472 0.42280 0.38100
C 	C 	0.32541 0.20360 0.29090 -0.17400
C 	C 	0.34290 0.22086 0.09610 0.19000
C 	C 	0.35142 0.18284 0.97520 -0.07500
H 	H 	0.36060 0.19540 0.82870 0.06100
Fe	Fe	0.05223 0.68627 0.47603 1.14800
O 	O 	0.99220 0.62653 0.68543 -0.55900
O 	O 	0.96998 0.55948 0.93333 -0.45400
O 	O 	0.02007 0.60410 0.34113 -0.52500
C 	C 	0.98274 0.57805 0.75613 0.38100
C 	C 	0.99208 0.53693 0.62423 -0.17500
C 	C 	0.00957 0.55419 0.42943 0.19100
C 	C 	0.01809 0.51617 0.30853 -0.07600
H 	H 	0.02727 0.52873 0.16203 0.06100
Fe	Fe	0.71889 0.01961 0.80937 1.14800
O 	O 	0.65886 0.95987 0.01877 -0.55900
O 	O 	0.63664 0.89282 0.26667 -0.45300
O 	O 	0.68673 0.93744 0.67447 -0.52500
C 	C 	0.64940 0.91139 0.08947 0.38200
C 	C 	0.65874 0.87027 0.95757 -0.17400
C 	C 	0.67623 0.88753 0.76277 0.19200
C 	C 	0.68475 0.84951 0.64187 -0.07500
H 	H 	0.69393 0.86207 0.49537 0.06200
Fe	Fe	0.64706 0.03262 0.14270 1.14900
O 	O 	0.70680 0.03233 0.35210 -0.55800
O 	O 	0.77385 0.07716 0.60000 -0.45300
O 	O 	0.72923 0.08263 0.00780 -0.52400
C 	C 	0.75528 0.07135 0.42280 0.38200
C 	C 	0.79640 0.12181 0.29090 -0.17300
C 	C 	0.77914 0.12204 0.09610 0.19000
C 	C 	0.81716 0.16858 0.97520 -0.07300
H 	H 	0.80460 0.16520 0.82870 0.06100
Fe	Fe	0.31373 0.36595 0.47603 1.14900
O 	O 	0.37347 0.36566 0.68543 -0.55800
O 	O 	0.44052 0.41049 0.93333 -0.45300
O 	O 	0.39590 0.41596 0.34113 -0.52400
C 	C 	0.42195 0.40468 0.75613 0.38200
C 	C 	0.46307 0.45514 0.62423 -0.17400
C 	C 	0.44581 0.45537 0.42943 0.19200
C 	C 	0.48383 0.50191 0.30853 -0.07500
H 	H 	0.47127 0.49853 0.16203 0.06200
Fe	Fe	0.98039 0.69929 0.80937 1.14900
O 	O 	0.04013 0.69900 0.01877 -0.55800
O 	O 	0.10718 0.74383 0.26667 -0.45300
O 	O 	0.06256 0.74930 0.67447 -0.52400
C 	C 	0.08861 0.73802 0.08947 0.38300
C 	C 	0.12973 0.78848 0.95757 -0.17500
C 	C 	0.11247 0.78871 0.76277 0.19200
C 	C 	0.15049 0.83525 0.64187 -0.07500
H 	H 	0.13793 0.83187 0.49537 0.06200
Fe	Fe	0.96738 0.61444 0.14270 1.14900
O 	O 	0.96767 0.67447 0.35210 -0.55800
O 	O 	0.92284 0.69669 0.60000 -0.45300
O 	O 	0.91737 0.64660 0.00780 -0.52400
C 	C 	0.92865 0.68393 0.42280 0.38200
C 	C 	0.87819 0.67459 0.29090 -0.17300
C 	C 	0.87796 0.65710 0.09610 0.19100
C 	C 	0.83142 0.64858 0.97520 -0.07400
H 	H 	0.83480 0.63940 0.82870 0.06200
Fe	Fe	0.63405 0.94777 0.47603 1.14900
O 	O 	0.63434 0.00780 0.68543 -0.55800
O 	O 	0.58951 0.03002 0.93333 -0.45300
O 	O 	0.58404 0.97993 0.34113 -0.52400
C 	C 	0.59532 0.01726 0.75613 0.38200
C 	C 	0.54486 0.00792 0.62423 -0.17300
C 	C 	0.54463 0.99043 0.42943 0.19100
C 	C 	0.49809 0.98191 0.30853 -0.07500
H 	H 	0.50147 0.97273 0.16203 0.06200
Fe	Fe	0.30071 0.28111 0.80937 1.14900
O 	O 	0.30100 0.34114 0.01877 -0.55800
O 	O 	0.25617 0.36336 0.26667 -0.45300
O 	O 	0.25070 0.31327 0.67447 -0.52400
C 	C 	0.26198 0.35060 0.08947 0.38200
C 	C 	0.21152 0.34126 0.95757 -0.17400
C 	C 	0.21129 0.32377 0.76277 0.19200
C 	C 	0.16475 0.31525 0.64187 -0.07500
H 	H 	0.16813 0.30607 0.49537 0.06200
Fe	Fe	0.61444 0.64706 0.85730 1.14900
O 	O 	0.67447 0.70680 0.64790 -0.55800
O 	O 	0.69669 0.77385 0.40000 -0.45300
O 	O 	0.64660 0.72923 0.99220 -0.52400
C 	C 	0.68393 0.75528 0.57720 0.38200
C 	C 	0.67459 0.79640 0.70910 -0.17300
C 	C 	0.65710 0.77914 0.90390 0.19100
C 	C 	0.64858 0.81716 0.02480 -0.07400
H 	H 	0.63940 0.80460 0.17130 0.06200
Fe	Fe	0.28111 0.98039 0.19063 1.14900
O 	O 	0.34114 0.04013 0.98123 -0.55800
O 	O 	0.36336 0.10718 0.73333 -0.45300
O 	O 	0.31327 0.06256 0.32553 -0.52500
C 	C 	0.35060 0.08861 0.91053 0.38200
C 	C 	0.34126 0.12973 0.04243 -0.17400
C 	C 	0.32377 0.11247 0.23723 0.19200
C 	C 	0.31525 0.15049 0.35813 -0.07500
H 	H 	0.30607 0.13793 0.50463 0.06200
Fe	Fe	0.94777 0.31373 0.52397 1.14900
O 	O 	0.00780 0.37347 0.31457 -0.55800
O 	O 	0.03002 0.44052 0.06667 -0.45300
O 	O 	0.97993 0.39590 0.65887 -0.52400
C 	C 	0.01726 0.42195 0.24387 0.38200
C 	C 	0.00792 0.46307 0.37577 -0.17400
C 	C 	0.99043 0.44581 0.57057 0.19200
C 	C 	0.98191 0.48383 0.69147 -0.07500
H 	H 	0.97273 0.47127 0.83797 0.06200
Fe	Fe	0.35294 0.96738 0.85730 1.14900
O 	O 	0.29320 0.96767 0.64790 -0.55800
O 	O 	0.22615 0.92284 0.40000 -0.45300
O 	O 	0.27077 0.91737 0.99220 -0.52400
C 	C 	0.24472 0.92865 0.57720 0.38200
C 	C 	0.20360 0.87819 0.70910 -0.17300
C 	C 	0.22086 0.87796 0.90390 0.19000
C 	C 	0.18284 0.83142 0.02480 -0.07300
H 	H 	0.19540 0.83480 0.17130 0.06100
Fe	Fe	0.01961 0.30071 0.19063 1.14900
O 	O 	0.95987 0.30100 0.98123 -0.55800
O 	O 	0.89282 0.25617 0.73333 -0.45300
O 	O 	0.93744 0.25070 0.32553 -0.52400
C 	C 	0.91139 0.26198 0.91053 0.38300
C 	C 	0.87027 0.21152 0.04243 -0.17500
C 	C 	0.88753 0.21129 0.23723 0.19200
C 	C 	0.84951 0.16475 0.35813 -0.07500
H 	H 	0.86207 0.16813 0.50463 0.06200
Fe	Fe	0.68627 0.63405 0.52397 1.14900
O 	O 	0.62653 0.63434 0.31457 -0.55800
O 	O 	0.55948 0.58951 0.06667 -0.45300
O 	O 	0.60410 0.58404 0.65887 -0.52400
C 	C 	0.57805 0.59532 0.24387 0.38200
C 	C 	0.53693 0.54486 0.37577 -0.17400
C 	C 	0.55419 0.54463 0.57057 0.19200
C 	C 	0.51617 0.49809 0.69147 -0.07500
H 	H 	0.52873 0.50147 0.83797 0.06200
Fe	Fe	0.03262 0.38556 0.85730 1.14900
O 	O 	0.03233 0.32553 0.64790 -0.55800
O 	O 	0.07716 0.30331 0.40000 -0.45300
O 	O 	0.08263 0.35340 0.99220 -0.52400
C 	C 	0.07135 0.31607 0.57720 0.38200
C 	C 	0.12181 0.32541 0.70910 -0.17300
C 	C 	0.12204 0.34290 0.90390 0.19100
C 	C 	0.16858 0.35142 0.02480 -0.07400
H 	H 	0.16520 0.36060 0.17130 0.06200
Fe	Fe	0.69929 0.71889 0.19063 1.14900
O 	O 	0.69900 0.65886 0.98123 -0.55800
O 	O 	0.74383 0.63664 0.73333 -0.45300
O 	O 	0.74930 0.68673 0.32553 -0.52400
C 	C 	0.73802 0.64940 0.91053 0.38200
C 	C 	0.78848 0.65874 0.04243 -0.17400
C 	C 	0.78871 0.67623 0.23723 0.19200
C 	C 	0.83525 0.68475 0.35813 -0.07500
H 	H 	0.83187 0.69393 0.50463 0.06200
Fe	Fe	0.36595 0.05223 0.52397 1.14900
O 	O 	0.36566 0.99220 0.31457 -0.55800
O 	O 	0.41049 0.96998 0.06667 -0.45300
O 	O 	0.41596 0.02007 0.65887 -0.52400
C 	C 	0.40468 0.98274 0.24387 0.38200
C 	C 	0.45514 0.99208 0.37577 -0.17300
C 	C 	0.45537 0.00957 0.57057 0.19100
C 	C 	0.50191 0.01809 0.69147 -0.07500
H 	H 	0.49853 0.02727 0.83797 0.06200
