data_crystal

_cell_length_a 25.87350
_cell_length_b 25.87350
_cell_length_c 6.84860
_cell_angle_alpha 90.00000
_cell_angle_beta  90.00000
_cell_angle_gamma 120.00000

_symmetry_space_group_name_	'P 1'
_symmetry_space_group_name_H-M	'P 1'

loop_
_symmetry_equiv_pos_as_xyz
  x,y,z

loop_
_atom_site_label
_atom_site_type_symbol
_atom_site_fract_x
_atom_site_fract_y
_atom_site_fract_z
_atom_site_charge
Co	Co	0.37860 0.34900 0.15100 1.16100
O 	O 	0.32870 0.29590 0.36370 -0.62600
O 	O 	0.30260 0.22910 0.59870 -0.45500
O 	O 	0.35770 0.27580 0.00220 -0.52800
C 	C 	0.31910 0.24760 0.42860 0.44500
C 	C 	0.32820 0.20690 0.28980 -0.18100
C 	C 	0.34650 0.22390 0.09080 0.18100
C 	C 	0.35060 0.18160 0.97560 -0.06800
H 	H 	0.35770 0.19130 0.83200 0.06700
Co	Co	0.04527 0.68233 0.48433 1.16200
O 	O 	0.99537 0.62923 0.69703 -0.62500
O 	O 	0.96927 0.56243 0.93203 -0.45400
O 	O 	0.02437 0.60913 0.33553 -0.52700
C 	C 	0.98577 0.58093 0.76193 0.44500
C 	C 	0.99487 0.54023 0.62313 -0.18100
C 	C 	0.01317 0.55723 0.42413 0.18100
C 	C 	0.01727 0.51493 0.30893 -0.06900
H 	H 	0.02437 0.52463 0.16533 0.06800
Co	Co	0.71193 0.01567 0.81767 1.16200
O 	O 	0.66203 0.96257 0.03037 -0.62400
O 	O 	0.63593 0.89577 0.26537 -0.45400
O 	O 	0.69103 0.94247 0.66887 -0.52700
C 	C 	0.65243 0.91427 0.09527 0.44600
C 	C 	0.66153 0.87357 0.95647 -0.18100
C 	C 	0.67983 0.89057 0.75747 0.18100
C 	C 	0.68393 0.84827 0.64227 -0.06900
H 	H 	0.69103 0.85797 0.49867 0.06800
Co	Co	0.65100 0.02960 0.15100 1.16200
O 	O 	0.70410 0.03280 0.36370 -0.62400
O 	O 	0.77090 0.07350 0.59870 -0.45400
O 	O 	0.72420 0.08190 0.00220 -0.52700
C 	C 	0.75240 0.07150 0.42860 0.44500
C 	C 	0.79310 0.12130 0.28980 -0.18100
C 	C 	0.77610 0.12260 0.09080 0.18000
C 	C 	0.81840 0.16900 0.97560 -0.06700
H 	H 	0.80870 0.16640 0.83200 0.06700
Co	Co	0.31767 0.36293 0.48433 1.16200
O 	O 	0.37077 0.36613 0.69703 -0.62500
O 	O 	0.43757 0.40683 0.93203 -0.45500
O 	O 	0.39087 0.41523 0.33553 -0.52700
C 	C 	0.41907 0.40483 0.76193 0.44500
C 	C 	0.45977 0.45463 0.62313 -0.18100
C 	C 	0.44277 0.45593 0.42413 0.18100
C 	C 	0.48507 0.50233 0.30893 -0.06900
H 	H 	0.47537 0.49973 0.16533 0.06700
Co	Co	0.98433 0.69627 0.81767 1.16200
O 	O 	0.03743 0.69947 0.03037 -0.62400
O 	O 	0.10423 0.74017 0.26537 -0.45500
O 	O 	0.05753 0.74857 0.66887 -0.52700
C 	C 	0.08573 0.73817 0.09527 0.44600
C 	C 	0.12643 0.78797 0.95647 -0.18200
C 	C 	0.10943 0.78927 0.75747 0.18100
C 	C 	0.15173 0.83567 0.64227 -0.06900
H 	H 	0.14203 0.83307 0.49867 0.06800
Co	Co	0.97040 0.62140 0.15100 1.16200
O 	O 	0.96720 0.67130 0.36370 -0.62500
O 	O 	0.92650 0.69740 0.59870 -0.45400
O 	O 	0.91810 0.64230 0.00220 -0.52700
C 	C 	0.92850 0.68090 0.42860 0.44500
C 	C 	0.87870 0.67180 0.28980 -0.18100
C 	C 	0.87740 0.65350 0.09080 0.18100
C 	C 	0.83100 0.64940 0.97560 -0.06800
H 	H 	0.83360 0.64230 0.83200 0.06700
Co	Co	0.63707 0.95473 0.48433 1.16200
O 	O 	0.63387 0.00463 0.69703 -0.62400
O 	O 	0.59317 0.03073 0.93203 -0.45400
O 	O 	0.58477 0.97563 0.33553 -0.52700
C 	C 	0.59517 0.01423 0.76193 0.44500
C 	C 	0.54537 0.00513 0.62313 -0.18100
C 	C 	0.54407 0.98683 0.42413 0.18100
C 	C 	0.49767 0.98273 0.30893 -0.06900
H 	H 	0.50027 0.97563 0.16533 0.06800
Co	Co	0.30373 0.28807 0.81767 1.16200
O 	O 	0.30053 0.33797 0.03037 -0.62500
O 	O 	0.25983 0.36407 0.26537 -0.45400
O 	O 	0.25143 0.30897 0.66887 -0.52700
C 	C 	0.26183 0.34757 0.09527 0.44500
C 	C 	0.21203 0.33847 0.95647 -0.18100
C 	C 	0.21073 0.32017 0.75747 0.18100
C 	C 	0.16433 0.31607 0.64227 -0.06900
H 	H 	0.16693 0.30897 0.49867 0.06800
Co	Co	0.62140 0.65100 0.84900 1.16200
O 	O 	0.67130 0.70410 0.63630 -0.62500
O 	O 	0.69740 0.77090 0.40130 -0.45400
O 	O 	0.64230 0.72420 0.99780 -0.52700
C 	C 	0.68090 0.75240 0.57140 0.44500
C 	C 	0.67180 0.79310 0.71020 -0.18100
C 	C 	0.65350 0.77610 0.90920 0.18100
C 	C 	0.64940 0.81840 0.02440 -0.06800
H 	H 	0.64230 0.80870 0.16800 0.06700
Co	Co	0.28807 0.98433 0.18233 1.16200
O 	O 	0.33797 0.03743 0.96963 -0.62400
O 	O 	0.36407 0.10423 0.73463 -0.45400
O 	O 	0.30897 0.05753 0.33113 -0.52700
C 	C 	0.34757 0.08573 0.90473 0.44600
C 	C 	0.33847 0.12643 0.04353 -0.18100
C 	C 	0.32017 0.10943 0.24253 0.18100
C 	C 	0.31607 0.15173 0.35773 -0.06900
H 	H 	0.30897 0.14203 0.50133 0.06800
Co	Co	0.95473 0.31767 0.51567 1.16200
O 	O 	0.00463 0.37077 0.30297 -0.62500
O 	O 	0.03073 0.43757 0.06797 -0.45400
O 	O 	0.97563 0.39087 0.66447 -0.52700
C 	C 	0.01423 0.41907 0.23807 0.44500
C 	C 	0.00513 0.45977 0.37687 -0.18100
C 	C 	0.98683 0.44277 0.57587 0.18100
C 	C 	0.98273 0.48507 0.69107 -0.06900
H 	H 	0.97563 0.47537 0.83467 0.06800
Co	Co	0.34900 0.97040 0.84900 1.16200
O 	O 	0.29590 0.96720 0.63630 -0.62400
O 	O 	0.22910 0.92650 0.40130 -0.45400
O 	O 	0.27580 0.91810 0.99780 -0.52700
C 	C 	0.24760 0.92850 0.57140 0.44500
C 	C 	0.20690 0.87870 0.71020 -0.18100
C 	C 	0.22390 0.87740 0.90920 0.18000
C 	C 	0.18160 0.83100 0.02440 -0.06700
H 	H 	0.19130 0.83360 0.16800 0.06700
Co	Co	0.01567 0.30373 0.18233 1.16200
O 	O 	0.96257 0.30053 0.96963 -0.62400
O 	O 	0.89577 0.25983 0.73463 -0.45500
O 	O 	0.94247 0.25143 0.33113 -0.52700
C 	C 	0.91427 0.26183 0.90473 0.44600
C 	C 	0.87357 0.21203 0.04353 -0.18200
C 	C 	0.89057 0.21073 0.24253 0.18100
C 	C 	0.84827 0.16433 0.35773 -0.06900
H 	H 	0.85797 0.16693 0.50133 0.06800
Co	Co	0.68233 0.63707 0.51567 1.16200
O 	O 	0.62923 0.63387 0.30297 -0.62500
O 	O 	0.56243 0.59317 0.06797 -0.45500
O 	O 	0.60913 0.58477 0.66447 -0.52700
C 	C 	0.58093 0.59517 0.23807 0.44500
C 	C 	0.54023 0.54537 0.37687 -0.18100
C 	C 	0.55723 0.54407 0.57587 0.18100
C 	C 	0.51493 0.49767 0.69107 -0.06900
H 	H 	0.52463 0.50027 0.83467 0.06700
Co	Co	0.02960 0.37860 0.84900 1.16200
O 	O 	0.03280 0.32870 0.63630 -0.62500
O 	O 	0.07350 0.30260 0.40130 -0.45400
O 	O 	0.08190 0.35770 0.99780 -0.52700
C 	C 	0.07150 0.31910 0.57140 0.44500
C 	C 	0.12130 0.32820 0.71020 -0.18100
C 	C 	0.12260 0.34650 0.90920 0.18100
C 	C 	0.16900 0.35060 0.02440 -0.06800
H 	H 	0.16640 0.35770 0.16800 0.06700
Co	Co	0.69627 0.71193 0.18233 1.16200
O 	O 	0.69947 0.66203 0.96963 -0.62500
O 	O 	0.74017 0.63593 0.73463 -0.45400
O 	O 	0.74857 0.69103 0.33113 -0.52700
C 	C 	0.73817 0.65243 0.90473 0.44500
C 	C 	0.78797 0.66153 0.04353 -0.18100
C 	C 	0.78927 0.67983 0.24253 0.18100
C 	C 	0.83567 0.68393 0.35773 -0.06900
H 	H 	0.83307 0.69103 0.50133 0.06800
Co	Co	0.36293 0.04527 0.51567 1.16200
O 	O 	0.36613 0.99537 0.30297 -0.62400
O 	O 	0.40683 0.96927 0.06797 -0.45400
O 	O 	0.41523 0.02437 0.66447 -0.52700
C 	C 	0.40483 0.98577 0.23807 0.44500
C 	C 	0.45463 0.99487 0.37687 -0.18100
C 	C 	0.45593 0.01317 0.57587 0.18100
C 	C 	0.50233 0.01727 0.69107 -0.06900
H 	H 	0.49973 0.02437 0.83467 0.06800
