data_crystal

_cell_length_a 26.08180
_cell_length_b 26.08180
_cell_length_c 6.87830
_cell_angle_alpha 90.00000
_cell_angle_beta  90.00000
_cell_angle_gamma 120.00000

_symmetry_space_group_name_	'P 1'
_symmetry_space_group_name_H-M	'P 1'

loop_
_symmetry_equiv_pos_as_xyz
  x,y,z

loop_
_atom_site_label
_atom_site_type_symbol
_atom_site_fract_x
_atom_site_fract_y
_atom_site_fract_z
_atom_site_charge
Fe	Fe	0.38620 0.35570 0.13420 1.14200
O 	O 	0.32560 0.29660 0.36970 -0.59400
O 	O 	0.35730 0.26680 0.00980 -0.47200
O 	O 	0.43730 0.40730 0.92370 -0.48200
C 	C 	0.32060 0.24940 0.42030 0.43200
C 	C 	0.34100 0.21640 0.11720 0.17100
C 	C 	0.31570 0.19940 0.30030 -0.19100
C 	C 	0.34510 0.18180 0.97550 -0.06700
H 	H 	0.36130 0.19280 0.83820 0.06600
Fe	Fe	0.05287 0.68903 0.46753 1.14100
O 	O 	0.99227 0.62993 0.70303 -0.59400
O 	O 	0.02397 0.60013 0.34313 -0.47300
O 	O 	0.10397 0.74063 0.25703 -0.48300
C 	C 	0.98727 0.58273 0.75363 0.43100
C 	C 	0.00767 0.54973 0.45053 0.17000
C 	C 	0.98237 0.53273 0.63363 -0.19100
C 	C 	0.01177 0.51513 0.30883 -0.06700
H 	H 	0.02797 0.52613 0.17153 0.06600
Fe	Fe	0.71953 0.02237 0.80087 1.14200
O 	O 	0.65893 0.96327 0.03637 -0.59500
O 	O 	0.69063 0.93347 0.67647 -0.47300
O 	O 	0.77063 0.07397 0.59037 -0.48200
C 	C 	0.65393 0.91607 0.08697 0.43200
C 	C 	0.67433 0.88307 0.78387 0.17000
C 	C 	0.64903 0.86607 0.96697 -0.19200
C 	C 	0.67843 0.84847 0.64217 -0.06700
H 	H 	0.69463 0.85947 0.50487 0.06600
Fe	Fe	0.64430 0.03050 0.13420 1.14100
O 	O 	0.70340 0.02900 0.36970 -0.59400
O 	O 	0.73320 0.09050 0.00980 -0.47300
O 	O 	0.59270 0.03000 0.92370 -0.48200
C 	C 	0.75060 0.07120 0.42030 0.43100
C 	C 	0.78360 0.12460 0.11720 0.16900
C 	C 	0.80060 0.11630 0.30030 -0.19100
C 	C 	0.81820 0.16330 0.97550 -0.06600
H 	H 	0.80720 0.16850 0.83820 0.06500
Fe	Fe	0.31097 0.36383 0.46753 1.14100
O 	O 	0.37007 0.36233 0.70303 -0.59500
O 	O 	0.39987 0.42383 0.34313 -0.47300
O 	O 	0.25937 0.36333 0.25703 -0.48300
C 	C 	0.41727 0.40453 0.75363 0.43100
C 	C 	0.45027 0.45793 0.45053 0.17000
C 	C 	0.46727 0.44963 0.63363 -0.19100
C 	C 	0.48487 0.49663 0.30883 -0.06700
H 	H 	0.47387 0.50183 0.17153 0.06600
Fe	Fe	0.97763 0.69717 0.80087 1.14100
O 	O 	0.03673 0.69567 0.03637 -0.59400
O 	O 	0.06653 0.75717 0.67647 -0.47300
O 	O 	0.92603 0.69667 0.59037 -0.48200
C 	C 	0.08393 0.73787 0.08697 0.43200
C 	C 	0.11693 0.79127 0.78387 0.17100
C 	C 	0.13393 0.78297 0.96697 -0.19300
C 	C 	0.15153 0.82997 0.64217 -0.06800
H 	H 	0.14053 0.83517 0.50487 0.06600
Fe	Fe	0.96950 0.61380 0.13420 1.14100
O 	O 	0.97100 0.67440 0.36970 -0.59500
O 	O 	0.90950 0.64270 0.00980 -0.47300
O 	O 	0.97000 0.56270 0.92370 -0.48300
C 	C 	0.92880 0.67940 0.42030 0.43100
C 	C 	0.87540 0.65900 0.11720 0.17000
C 	C 	0.88370 0.68430 0.30030 -0.19100
C 	C 	0.83670 0.65490 0.97550 -0.06700
H 	H 	0.83150 0.63870 0.83820 0.06600
Fe	Fe	0.63617 0.94713 0.46753 1.14100
O 	O 	0.63767 0.00773 0.70303 -0.59400
O 	O 	0.57617 0.97603 0.34313 -0.47300
O 	O 	0.63667 0.89603 0.25703 -0.48300
C 	C 	0.59547 0.01273 0.75363 0.43100
C 	C 	0.54207 0.99233 0.45053 0.17000
C 	C 	0.55037 0.01763 0.63363 -0.19100
C 	C 	0.50337 0.98823 0.30883 -0.06700
H 	H 	0.49817 0.97203 0.17153 0.06600
Fe	Fe	0.30283 0.28047 0.80087 1.14100
O 	O 	0.30433 0.34107 0.03637 -0.59500
O 	O 	0.24283 0.30937 0.67647 -0.47300
O 	O 	0.30333 0.22937 0.59037 -0.48300
C 	C 	0.26213 0.34607 0.08697 0.43200
C 	C 	0.20873 0.32567 0.78387 0.17000
C 	C 	0.21703 0.35097 0.96697 -0.19200
C 	C 	0.17003 0.32157 0.64217 -0.06700
H 	H 	0.16483 0.30537 0.50487 0.06600
Fe	Fe	0.61380 0.64430 0.86580 1.14100
O 	O 	0.67440 0.70340 0.63030 -0.59500
O 	O 	0.64270 0.73320 0.99020 -0.47300
O 	O 	0.56270 0.59270 0.07630 -0.48300
C 	C 	0.67940 0.75060 0.57970 0.43100
C 	C 	0.65900 0.78360 0.88280 0.17000
C 	C 	0.68430 0.80060 0.69970 -0.19100
C 	C 	0.65490 0.81820 0.02450 -0.06700
H 	H 	0.63870 0.80720 0.16180 0.06600
Fe	Fe	0.28047 0.97763 0.19913 1.14200
O 	O 	0.34107 0.03673 0.96363 -0.59500
O 	O 	0.30937 0.06653 0.32353 -0.47300
O 	O 	0.22937 0.92603 0.40963 -0.48200
C 	C 	0.34607 0.08393 0.91303 0.43200
C 	C 	0.32567 0.11693 0.21613 0.17000
C 	C 	0.35097 0.13393 0.03303 -0.19200
C 	C 	0.32157 0.15153 0.35783 -0.06700
H 	H 	0.30537 0.14053 0.49513 0.06600
Fe	Fe	0.94713 0.31097 0.53247 1.14100
O 	O 	0.00773 0.37007 0.29697 -0.59400
O 	O 	0.97603 0.39987 0.65687 -0.47300
O 	O 	0.89603 0.25937 0.74297 -0.48300
C 	C 	0.01273 0.41727 0.24637 0.43100
C 	C 	0.99233 0.45027 0.54947 0.17000
C 	C 	0.01763 0.46727 0.36637 -0.19100
C 	C 	0.98823 0.48487 0.69117 -0.06700
H 	H 	0.97203 0.47387 0.82847 0.06600
Fe	Fe	0.35570 0.96950 0.86580 1.14100
O 	O 	0.29660 0.97100 0.63030 -0.59400
O 	O 	0.26680 0.90950 0.99020 -0.47300
O 	O 	0.40730 0.97000 0.07630 -0.48200
C 	C 	0.24940 0.92880 0.57970 0.43100
C 	C 	0.21640 0.87540 0.88280 0.16900
C 	C 	0.19940 0.88370 0.69970 -0.19100
C 	C 	0.18180 0.83670 0.02450 -0.06600
H 	H 	0.19280 0.83150 0.16180 0.06500
Fe	Fe	0.02237 0.30283 0.19913 1.14100
O 	O 	0.96327 0.30433 0.96363 -0.59400
O 	O 	0.93347 0.24283 0.32353 -0.47300
O 	O 	0.07397 0.30333 0.40963 -0.48200
C 	C 	0.91607 0.26213 0.91303 0.43200
C 	C 	0.88307 0.20873 0.21613 0.17100
C 	C 	0.86607 0.21703 0.03303 -0.19300
C 	C 	0.84847 0.17003 0.35783 -0.06800
H 	H 	0.85947 0.16483 0.49513 0.06600
Fe	Fe	0.68903 0.63617 0.53247 1.14100
O 	O 	0.62993 0.63767 0.29697 -0.59500
O 	O 	0.60013 0.57617 0.65687 -0.47300
O 	O 	0.74063 0.63667 0.74297 -0.48300
C 	C 	0.58273 0.59547 0.24637 0.43100
C 	C 	0.54973 0.54207 0.54947 0.17000
C 	C 	0.53273 0.55037 0.36637 -0.19100
C 	C 	0.51513 0.50337 0.69117 -0.06700
H 	H 	0.52613 0.49817 0.82847 0.06600
Fe	Fe	0.03050 0.38620 0.86580 1.14100
O 	O 	0.02900 0.32560 0.63030 -0.59500
O 	O 	0.09050 0.35730 0.99020 -0.47300
O 	O 	0.03000 0.43730 0.07630 -0.48300
C 	C 	0.07120 0.32060 0.57970 0.43100
C 	C 	0.12460 0.34100 0.88280 0.17000
C 	C 	0.11630 0.31570 0.69970 -0.19100
C 	C 	0.16330 0.34510 0.02450 -0.06700
H 	H 	0.16850 0.36130 0.16180 0.06600
Fe	Fe	0.69717 0.71953 0.19913 1.14100
O 	O 	0.69567 0.65893 0.96363 -0.59500
O 	O 	0.75717 0.69063 0.32353 -0.47300
O 	O 	0.69667 0.77063 0.40963 -0.48300
C 	C 	0.73787 0.65393 0.91303 0.43200
C 	C 	0.79127 0.67433 0.21613 0.17000
C 	C 	0.78297 0.64903 0.03303 -0.19200
C 	C 	0.82997 0.67843 0.35783 -0.06700
H 	H 	0.83517 0.69463 0.49513 0.06600
Fe	Fe	0.36383 0.05287 0.53247 1.14100
O 	O 	0.36233 0.99227 0.29697 -0.59400
O 	O 	0.42383 0.02397 0.65687 -0.47300
O 	O 	0.36333 0.10397 0.74297 -0.48300
C 	C 	0.40453 0.98727 0.24637 0.43100
C 	C 	0.45793 0.00767 0.54947 0.17000
C 	C 	0.44963 0.98237 0.36637 -0.19100
C 	C 	0.49663 0.01177 0.69117 -0.06700
H 	H 	0.50183 0.02797 0.82847 0.06600
