data_crystal

_cell_length_a 25.99400
_cell_length_b 25.99400
_cell_length_c 6.81270
_cell_angle_alpha 90.00000
_cell_angle_beta  90.00000
_cell_angle_gamma 120.00000

_symmetry_space_group_name_	'P 1'
_symmetry_space_group_name_H-M	'P 1'

loop_
_symmetry_equiv_pos_as_xyz
  x,y,z

loop_
_atom_site_label
_atom_site_type_symbol
_atom_site_fract_x
_atom_site_fract_y
_atom_site_fract_z
_atom_site_charge
Co	Co	0.94947 0.63467 0.01866 1.15700
O 	O 	0.89530 0.63350 0.23500 -0.45800
O 	O 	0.94070 0.69020 0.83090 -0.52100
O 	O 	0.00730 0.63670 0.80300 -0.57000
C 	C 	0.98900 0.54450 0.07600 0.19200
C 	C 	0.01570 0.59540 0.74120 0.40300
C 	C 	0.98350 0.49780 0.19160 -0.09500
C 	C 	0.00570 0.54650 0.88060 -0.18100
H 	H 	0.97200 0.49590 0.32500 0.07700
Co	Co	0.61614 0.96800 0.35199 1.15600
O 	O 	0.56197 0.96683 0.56833 -0.45900
O 	O 	0.60737 0.02353 0.16423 -0.52200
O 	O 	0.67397 0.97003 0.13633 -0.57200
C 	C 	0.65567 0.87783 0.40933 0.19200
C 	C 	0.68237 0.92873 0.07453 0.40400
C 	C 	0.65017 0.83113 0.52493 -0.09500
C 	C 	0.67237 0.87983 0.21393 -0.18100
H 	H 	0.63867 0.82923 0.65833 0.07600
Co	Co	0.28280 0.30134 0.68533 1.15600
O 	O 	0.22863 0.30017 0.90167 -0.45900
O 	O 	0.27403 0.35687 0.49757 -0.52200
O 	O 	0.34063 0.30337 0.46967 -0.57200
C 	C 	0.32233 0.21117 0.74267 0.19300
C 	C 	0.34903 0.26207 0.40787 0.40400
C 	C 	0.31683 0.16447 0.85827 -0.09500
C 	C 	0.33903 0.21317 0.54727 -0.18100
H 	H 	0.30533 0.16257 0.99167 0.07700
Co	Co	0.36533 0.31480 0.01866 1.15600
O 	O 	0.36650 0.26180 0.23500 -0.45900
O 	O 	0.30980 0.25050 0.83090 -0.52200
O 	O 	0.36330 0.37060 0.80300 -0.57100
C 	C 	0.45550 0.44450 0.07600 0.19200
C 	C 	0.40460 0.42030 0.74120 0.40400
C 	C 	0.50220 0.48570 0.19160 -0.09500
C 	C 	0.45350 0.45920 0.88060 -0.18100
H 	H 	0.50410 0.47610 0.32500 0.07600
Co	Co	0.03200 0.64813 0.35199 1.15600
O 	O 	0.03317 0.59513 0.56833 -0.45900
O 	O 	0.97647 0.58383 0.16423 -0.52200
O 	O 	0.02997 0.70393 0.13633 -0.57200
C 	C 	0.12217 0.77783 0.40933 0.19200
C 	C 	0.07127 0.75363 0.07453 0.40400
C 	C 	0.16887 0.81903 0.52493 -0.09500
C 	C 	0.12017 0.79253 0.21393 -0.18100
H 	H 	0.17077 0.80943 0.65833 0.07600
Co	Co	0.69866 0.98147 0.68533 1.15600
O 	O 	0.69983 0.92847 0.90167 -0.45900
O 	O 	0.64313 0.91717 0.49757 -0.52200
O 	O 	0.69663 0.03727 0.46967 -0.57200
C 	C 	0.78883 0.11117 0.74267 0.19200
C 	C 	0.73793 0.08697 0.40787 0.40400
C 	C 	0.83553 0.15237 0.85827 -0.09500
C 	C 	0.78683 0.12587 0.54727 -0.18100
H 	H 	0.83743 0.14277 0.99167 0.07700
Co	Co	0.68520 0.05053 0.01866 1.15600
O 	O 	0.73820 0.10470 0.23500 -0.45900
O 	O 	0.74950 0.05930 0.83090 -0.52200
O 	O 	0.62940 0.99270 0.80300 -0.57100
C 	C 	0.55550 0.01100 0.07600 0.19200
C 	C 	0.57970 0.98430 0.74120 0.40400
C 	C 	0.51430 0.01650 0.19160 -0.09500
C 	C 	0.54080 0.99430 0.88060 -0.18100
H 	H 	0.52390 0.02800 0.32500 0.07700
Co	Co	0.35187 0.38386 0.35199 1.15600
O 	O 	0.40487 0.43803 0.56833 -0.45900
O 	O 	0.41617 0.39263 0.16423 -0.52200
O 	O 	0.29607 0.32603 0.13633 -0.57200
C 	C 	0.22217 0.34433 0.40933 0.19200
C 	C 	0.24637 0.31763 0.07453 0.40300
C 	C 	0.18097 0.34983 0.52493 -0.09500
C 	C 	0.20747 0.32763 0.21393 -0.18100
H 	H 	0.19057 0.36133 0.65833 0.07600
Co	Co	0.01853 0.71720 0.68533 1.15600
O 	O 	0.07153 0.77137 0.90167 -0.45900
O 	O 	0.08283 0.72597 0.49757 -0.52200
O 	O 	0.96273 0.65937 0.46967 -0.57200
C 	C 	0.88883 0.67767 0.74267 0.19200
C 	C 	0.91303 0.65097 0.40787 0.40400
C 	C 	0.84763 0.68317 0.85827 -0.09500
C 	C 	0.87413 0.66097 0.54727 -0.18100
H 	H 	0.85723 0.69467 0.99167 0.07700
Co	Co	0.05053 0.36533 0.98134 1.15600
O 	O 	0.10470 0.36650 0.76500 -0.45900
O 	O 	0.05930 0.30980 0.16910 -0.52200
O 	O 	0.99270 0.36330 0.19700 -0.57100
C 	C 	0.01100 0.45550 0.92400 0.19200
C 	C 	0.98430 0.40460 0.25880 0.40300
C 	C 	0.01650 0.50220 0.80840 -0.09500
C 	C 	0.99430 0.45350 0.11940 -0.18100
H 	H 	0.02800 0.50410 0.67500 0.07700
Co	Co	0.71720 0.69866 0.31467 1.15600
O 	O 	0.77137 0.69983 0.09833 -0.45900
O 	O 	0.72597 0.64313 0.50243 -0.52200
O 	O 	0.65937 0.69663 0.53033 -0.57200
C 	C 	0.67767 0.78883 0.25733 0.19300
C 	C 	0.65097 0.73793 0.59213 0.40400
C 	C 	0.68317 0.83553 0.14173 -0.09500
C 	C 	0.66097 0.78683 0.45273 -0.18100
H 	H 	0.69467 0.83743 0.00833 0.07700
Co	Co	0.38386 0.03200 0.64801 1.15600
O 	O 	0.43803 0.03317 0.43167 -0.45900
O 	O 	0.39263 0.97647 0.83577 -0.52200
O 	O 	0.32603 0.02997 0.86367 -0.57200
C 	C 	0.34433 0.12217 0.59067 0.19200
C 	C 	0.31763 0.07127 0.92547 0.40400
C 	C 	0.34983 0.16887 0.47507 -0.09500
C 	C 	0.32763 0.12017 0.78607 -0.18100
H 	H 	0.36133 0.17077 0.34167 0.07600
Co	Co	0.63467 0.68520 0.98134 1.15600
O 	O 	0.63350 0.73820 0.76500 -0.45900
O 	O 	0.69020 0.74950 0.16910 -0.52200
O 	O 	0.63670 0.62940 0.19700 -0.57100
C 	C 	0.54450 0.55550 0.92400 0.19200
C 	C 	0.59540 0.57970 0.25880 0.40400
C 	C 	0.49780 0.51430 0.80840 -0.09500
C 	C 	0.54650 0.54080 0.11940 -0.18100
H 	H 	0.49590 0.52390 0.67500 0.07600
Co	Co	0.30134 0.01853 0.31467 1.15600
O 	O 	0.30017 0.07153 0.09833 -0.45900
O 	O 	0.35687 0.08283 0.50243 -0.52200
O 	O 	0.30337 0.96273 0.53033 -0.57200
C 	C 	0.21117 0.88883 0.25733 0.19200
C 	C 	0.26207 0.91303 0.59213 0.40400
C 	C 	0.16447 0.84763 0.14173 -0.09500
C 	C 	0.21317 0.87413 0.45273 -0.18100
H 	H 	0.16257 0.85723 0.00833 0.07700
Co	Co	0.96800 0.35187 0.64801 1.15600
O 	O 	0.96683 0.40487 0.43167 -0.45900
O 	O 	0.02353 0.41617 0.83577 -0.52200
O 	O 	0.97003 0.29607 0.86367 -0.57200
C 	C 	0.87783 0.22217 0.59067 0.19200
C 	C 	0.92873 0.24637 0.92547 0.40400
C 	C 	0.83113 0.18097 0.47507 -0.09500
C 	C 	0.87983 0.20747 0.78607 -0.18100
H 	H 	0.82923 0.19057 0.34167 0.07600
Co	Co	0.31480 0.94947 0.98134 1.15600
O 	O 	0.26180 0.89530 0.76500 -0.45900
O 	O 	0.25050 0.94070 0.16910 -0.52200
O 	O 	0.37060 0.00730 0.19700 -0.57100
C 	C 	0.44450 0.98900 0.92400 0.19200
C 	C 	0.42030 0.01570 0.25880 0.40400
C 	C 	0.48570 0.98350 0.80840 -0.09500
C 	C 	0.45920 0.00570 0.11940 -0.18100
H 	H 	0.47610 0.97200 0.67500 0.07700
Co	Co	0.98147 0.28280 0.31467 1.15600
O 	O 	0.92847 0.22863 0.09833 -0.45900
O 	O 	0.91717 0.27403 0.50243 -0.52200
O 	O 	0.03727 0.34063 0.53033 -0.57200
C 	C 	0.11117 0.32233 0.25733 0.19200
C 	C 	0.08697 0.34903 0.59213 0.40400
C 	C 	0.15237 0.31683 0.14173 -0.09500
C 	C 	0.12587 0.33903 0.45273 -0.18100
H 	H 	0.14277 0.30533 0.00833 0.07700
Co	Co	0.64813 0.61614 0.64801 1.15600
O 	O 	0.59513 0.56197 0.43167 -0.45900
O 	O 	0.58383 0.60737 0.83577 -0.52200
O 	O 	0.70393 0.67397 0.86367 -0.57200
C 	C 	0.77783 0.65567 0.59067 0.19200
C 	C 	0.75363 0.68237 0.92547 0.40300
C 	C 	0.81903 0.65017 0.47507 -0.09500
C 	C 	0.79253 0.67237 0.78607 -0.18100
H 	H 	0.80943 0.63867 0.34167 0.07600
