data_crystal

_cell_length_a 25.89780
_cell_length_b 25.89780
_cell_length_c 6.27850
_cell_angle_alpha 90.00000
_cell_angle_beta  90.00000
_cell_angle_gamma 120.00000

_symmetry_space_group_name_	'P 1'
_symmetry_space_group_name_H-M	'P 1'

loop_
_symmetry_equiv_pos_as_xyz
  x,y,z

loop_
_atom_site_label
_atom_site_type_symbol
_atom_site_fract_x
_atom_site_fract_y
_atom_site_fract_z
_atom_site_charge
Cu	Cu	0.38740 0.34916 0.17510 0.92600
O 	O 	0.35440 0.30040 0.42650 -0.49000
O 	O 	0.28990 0.22550 0.63330 -0.41700
O 	O 	0.36240 0.27810 0.01190 -0.42700
C 	C 	0.32840 0.24780 0.48500 0.40300
C 	C 	0.32890 0.20820 0.30410 -0.15200
C 	C 	0.34790 0.22250 0.09070 0.16000
C 	C 	0.35460 0.18380 0.97590 -0.00300
Cu	Cu	0.05407 0.68249 0.50843 0.92600
O 	O 	0.02107 0.63373 0.75983 -0.49000
O 	O 	0.95657 0.55883 0.96663 -0.41700
O 	O 	0.02907 0.61143 0.34523 -0.42700
C 	C 	0.99507 0.58113 0.81833 0.40300
C 	C 	0.99557 0.54153 0.63743 -0.15200
C 	C 	0.01457 0.55583 0.42403 0.16000
C 	C 	0.02127 0.51713 0.30923 -0.00300
Cu	Cu	0.72073 0.01583 0.84177 0.92600
O 	O 	0.68773 0.96707 0.09317 -0.49000
O 	O 	0.62323 0.89217 0.29997 -0.41700
O 	O 	0.69573 0.94477 0.67857 -0.42700
C 	C 	0.66173 0.91447 0.15167 0.40300
C 	C 	0.66223 0.87487 0.97077 -0.15200
C 	C 	0.68123 0.88917 0.75737 0.16000
C 	C 	0.68793 0.85047 0.64257 -0.00300
Cu	Cu	0.65084 0.03824 0.17510 0.92600
O 	O 	0.69960 0.05400 0.42650 -0.49000
O 	O 	0.77450 0.06440 0.63330 -0.41700
O 	O 	0.72190 0.08430 0.01190 -0.42700
C 	C 	0.75220 0.08060 0.48500 0.40300
C 	C 	0.79180 0.12070 0.30410 -0.15200
C 	C 	0.77750 0.12540 0.09070 0.16000
C 	C 	0.81620 0.17080 0.97590 -0.00300
Cu	Cu	0.31751 0.37157 0.50843 0.92600
O 	O 	0.36627 0.38733 0.75983 -0.49000
O 	O 	0.44117 0.39773 0.96663 -0.41700
O 	O 	0.38857 0.41763 0.34523 -0.42700
C 	C 	0.41887 0.41393 0.81833 0.40300
C 	C 	0.45847 0.45403 0.63743 -0.15200
C 	C 	0.44417 0.45873 0.42403 0.16000
C 	C 	0.48287 0.50413 0.30923 -0.00300
Cu	Cu	0.98417 0.70491 0.84177 0.92600
O 	O 	0.03293 0.72067 0.09317 -0.49000
O 	O 	0.10783 0.73107 0.29997 -0.41700
O 	O 	0.05523 0.75097 0.67857 -0.42700
C 	C 	0.08553 0.74727 0.15167 0.40300
C 	C 	0.12513 0.78737 0.97077 -0.15200
C 	C 	0.11083 0.79207 0.75737 0.15900
C 	C 	0.14953 0.83747 0.64257 -0.00200
Cu	Cu	0.96176 0.61260 0.17510 0.92600
O 	O 	0.94600 0.64560 0.42650 -0.49000
O 	O 	0.93560 0.71010 0.63330 -0.41700
O 	O 	0.91570 0.63760 0.01190 -0.42700
C 	C 	0.91940 0.67160 0.48500 0.40300
C 	C 	0.87930 0.67110 0.30410 -0.15200
C 	C 	0.87460 0.65210 0.09070 0.16000
C 	C 	0.82920 0.64540 0.97590 -0.00300
Cu	Cu	0.62843 0.94593 0.50843 0.92600
O 	O 	0.61267 0.97893 0.75983 -0.49000
O 	O 	0.60227 0.04343 0.96663 -0.41700
O 	O 	0.58237 0.97093 0.34523 -0.42700
C 	C 	0.58607 0.00493 0.81833 0.40300
C 	C 	0.54597 0.00443 0.63743 -0.15200
C 	C 	0.54127 0.98543 0.42403 0.16000
C 	C 	0.49587 0.97873 0.30923 -0.00300
Cu	Cu	0.29509 0.27927 0.84177 0.92600
O 	O 	0.27933 0.31227 0.09317 -0.49000
O 	O 	0.26893 0.37677 0.29997 -0.41700
O 	O 	0.24903 0.30427 0.67857 -0.42700
C 	C 	0.25273 0.33827 0.15167 0.40300
C 	C 	0.21263 0.33777 0.97077 -0.15200
C 	C 	0.20793 0.31877 0.75737 0.16000
C 	C 	0.16253 0.31207 0.64257 -0.00300
Cu	Cu	0.61260 0.65084 0.82490 0.92600
O 	O 	0.64560 0.69960 0.57350 -0.49000
O 	O 	0.71010 0.77450 0.36670 -0.41700
O 	O 	0.63760 0.72190 0.98810 -0.42700
C 	C 	0.67160 0.75220 0.51500 0.40300
C 	C 	0.67110 0.79180 0.69590 -0.15200
C 	C 	0.65210 0.77750 0.90930 0.16000
C 	C 	0.64540 0.81620 0.02410 -0.00300
Cu	Cu	0.27927 0.98417 0.15823 0.92600
O 	O 	0.31227 0.03293 0.90683 -0.49000
O 	O 	0.37677 0.10783 0.70003 -0.41700
O 	O 	0.30427 0.05523 0.32143 -0.42700
C 	C 	0.33827 0.08553 0.84833 0.40300
C 	C 	0.33777 0.12513 0.02923 -0.15200
C 	C 	0.31877 0.11083 0.24263 0.16000
C 	C 	0.31207 0.14953 0.35743 -0.00300
Cu	Cu	0.94593 0.31751 0.49157 0.92600
O 	O 	0.97893 0.36627 0.24017 -0.49000
O 	O 	0.04343 0.44117 0.03337 -0.41700
O 	O 	0.97093 0.38857 0.65477 -0.42700
C 	C 	0.00493 0.41887 0.18167 0.40300
C 	C 	0.00443 0.45847 0.36257 -0.15200
C 	C 	0.98543 0.44417 0.57597 0.16000
C 	C 	0.97873 0.48287 0.69077 -0.00300
Cu	Cu	0.34916 0.96176 0.82490 0.92600
O 	O 	0.30040 0.94600 0.57350 -0.49000
O 	O 	0.22550 0.93560 0.36670 -0.41700
O 	O 	0.27810 0.91570 0.98810 -0.42700
C 	C 	0.24780 0.91940 0.51500 0.40300
C 	C 	0.20820 0.87930 0.69590 -0.15200
C 	C 	0.22250 0.87460 0.90930 0.16000
C 	C 	0.18380 0.82920 0.02410 -0.00300
Cu	Cu	0.01583 0.29509 0.15823 0.92600
O 	O 	0.96707 0.27933 0.90683 -0.49000
O 	O 	0.89217 0.26893 0.70003 -0.41700
O 	O 	0.94477 0.24903 0.32143 -0.42700
C 	C 	0.91447 0.25273 0.84833 0.40300
C 	C 	0.87487 0.21263 0.02923 -0.15200
C 	C 	0.88917 0.20793 0.24263 0.15900
C 	C 	0.85047 0.16253 0.35743 -0.00200
Cu	Cu	0.68249 0.62843 0.49157 0.92600
O 	O 	0.63373 0.61267 0.24017 -0.49000
O 	O 	0.55883 0.60227 0.03337 -0.41700
O 	O 	0.61143 0.58237 0.65477 -0.42700
C 	C 	0.58113 0.58607 0.18167 0.40300
C 	C 	0.54153 0.54597 0.36257 -0.15200
C 	C 	0.55583 0.54127 0.57597 0.16000
C 	C 	0.51713 0.49587 0.69077 -0.00300
Cu	Cu	0.03824 0.38740 0.82490 0.92600
O 	O 	0.05400 0.35440 0.57350 -0.49000
O 	O 	0.06440 0.28990 0.36670 -0.41700
O 	O 	0.08430 0.36240 0.98810 -0.42700
C 	C 	0.08060 0.32840 0.51500 0.40300
C 	C 	0.12070 0.32890 0.69590 -0.15200
C 	C 	0.12540 0.34790 0.90930 0.16000
C 	C 	0.17080 0.35460 0.02410 -0.00300
Cu	Cu	0.70491 0.72073 0.15823 0.92600
O 	O 	0.72067 0.68773 0.90683 -0.49000
O 	O 	0.73107 0.62323 0.70003 -0.41700
O 	O 	0.75097 0.69573 0.32143 -0.42700
C 	C 	0.74727 0.66173 0.84833 0.40300
C 	C 	0.78737 0.66223 0.02923 -0.15200
C 	C 	0.79207 0.68123 0.24263 0.16000
C 	C 	0.83747 0.68793 0.35743 -0.00300
Cu	Cu	0.37157 0.05407 0.49157 0.92600
O 	O 	0.38733 0.02107 0.24017 -0.49000
O 	O 	0.39773 0.95657 0.03337 -0.41700
O 	O 	0.41763 0.02907 0.65477 -0.42700
C 	C 	0.41393 0.99507 0.18167 0.40300
C 	C 	0.45403 0.99557 0.36257 -0.15200
C 	C 	0.45873 0.01457 0.57597 0.16000
C 	C 	0.50413 0.02127 0.69077 -0.00300
