data_crystal

_cell_length_a 25.88700
_cell_length_b 25.88700
_cell_length_c 6.82100
_cell_angle_alpha 90.00000
_cell_angle_beta  90.00000
_cell_angle_gamma 120.00000

_symmetry_space_group_name_	'P 1'
_symmetry_space_group_name_H-M	'P 1'

loop_
_symmetry_equiv_pos_as_xyz
  x,y,z

loop_
_atom_site_label
_atom_site_type_symbol
_atom_site_fract_x
_atom_site_fract_y
_atom_site_fract_z
_atom_site_charge
Zn	Zn	0.38360 0.35240 0.13550 1.22000
O 	O 	0.32710 0.29440 0.36180 -0.59300
O 	O 	0.30330 0.22830 0.60770 -0.49200
O 	O 	0.35420 0.27380 0.00260 -0.55400
C 	C 	0.31600 0.24470 0.42950 0.42000
C 	C 	0.32590 0.20640 0.28330 -0.17800
C 	C 	0.34120 0.22020 0.09390 0.19900
C 	C 	0.34930 0.18070 0.97230 -0.09900
H 	H 	0.36370 0.19400 0.84700 0.08300
Zn	Zn	0.05027 0.68573 0.46883 1.21900
O 	O 	0.99377 0.62773 0.69513 -0.59400
O 	O 	0.96997 0.56163 0.94103 -0.49300
O 	O 	0.02087 0.60713 0.33593 -0.55500
C 	C 	0.98267 0.57803 0.76283 0.41900
C 	C 	0.99257 0.53973 0.61663 -0.18000
C 	C 	0.00787 0.55353 0.42723 0.20000
C 	C 	0.01597 0.51403 0.30563 -0.10000
H 	H 	0.03037 0.52733 0.18033 0.08300
Zn	Zn	0.71693 0.01907 0.80217 1.21900
O 	O 	0.66043 0.96107 0.02847 -0.59400
O 	O 	0.63663 0.89497 0.27437 -0.49300
O 	O 	0.68753 0.94047 0.66927 -0.55500
C 	C 	0.64933 0.91137 0.09617 0.42000
C 	C 	0.65923 0.87307 0.94997 -0.18100
C 	C 	0.67453 0.88687 0.76057 0.20000
C 	C 	0.68263 0.84737 0.63897 -0.10000
H 	H 	0.69703 0.86067 0.51367 0.08300
Zn	Zn	0.64760 0.03120 0.13550 1.21900
O 	O 	0.70560 0.03270 0.36180 -0.59300
O 	O 	0.77170 0.07500 0.60770 -0.49300
O 	O 	0.72620 0.08040 0.00260 -0.55500
C 	C 	0.75530 0.07130 0.42950 0.41900
C 	C 	0.79360 0.11950 0.28330 -0.17900
C 	C 	0.77980 0.12100 0.09390 0.19800
C 	C 	0.81930 0.16860 0.97230 -0.09700
H 	H 	0.80600 0.16970 0.84700 0.08200
Zn	Zn	0.31427 0.36453 0.46883 1.21900
O 	O 	0.37227 0.36603 0.69513 -0.59400
O 	O 	0.43837 0.40833 0.94103 -0.49300
O 	O 	0.39287 0.41373 0.33593 -0.55500
C 	C 	0.42197 0.40463 0.76283 0.41900
C 	C 	0.46027 0.45283 0.61663 -0.18000
C 	C 	0.44647 0.45433 0.42723 0.20000
C 	C 	0.48597 0.50193 0.30563 -0.10000
H 	H 	0.47267 0.50303 0.18033 0.08300
Zn	Zn	0.98093 0.69787 0.80217 1.21900
O 	O 	0.03893 0.69937 0.02847 -0.59300
O 	O 	0.10503 0.74167 0.27437 -0.49300
O 	O 	0.05953 0.74707 0.66927 -0.55500
C 	C 	0.08863 0.73797 0.09617 0.42000
C 	C 	0.12693 0.78617 0.94997 -0.18200
C 	C 	0.11313 0.78767 0.76057 0.20100
C 	C 	0.15263 0.83527 0.63897 -0.10100
H 	H 	0.13933 0.83637 0.51367 0.08300
Zn	Zn	0.96880 0.61640 0.13550 1.21900
O 	O 	0.96730 0.67290 0.36180 -0.59400
O 	O 	0.92500 0.69670 0.60770 -0.49300
O 	O 	0.91960 0.64580 0.00260 -0.55500
C 	C 	0.92870 0.68400 0.42950 0.41900
C 	C 	0.88050 0.67410 0.28330 -0.17900
C 	C 	0.87900 0.65880 0.09390 0.19900
C 	C 	0.83140 0.65070 0.97230 -0.09900
H 	H 	0.83030 0.63630 0.84700 0.08300
Zn	Zn	0.63547 0.94973 0.46883 1.21900
O 	O 	0.63397 0.00623 0.69513 -0.59300
O 	O 	0.59167 0.03003 0.94103 -0.49300
O 	O 	0.58627 0.97913 0.33593 -0.55500
C 	C 	0.59537 0.01733 0.76283 0.41900
C 	C 	0.54717 0.00743 0.61663 -0.18000
C 	C 	0.54567 0.99213 0.42723 0.20000
C 	C 	0.49807 0.98403 0.30563 -0.10000
H 	H 	0.49697 0.96963 0.18033 0.08300
Zn	Zn	0.30213 0.28307 0.80217 1.21900
O 	O 	0.30063 0.33957 0.02847 -0.59400
O 	O 	0.25833 0.36337 0.27437 -0.49300
O 	O 	0.25293 0.31247 0.66927 -0.55500
C 	C 	0.26203 0.35067 0.09617 0.42000
C 	C 	0.21383 0.34077 0.94997 -0.18000
C 	C 	0.21233 0.32547 0.76057 0.20000
C 	C 	0.16473 0.31737 0.63897 -0.10000
H 	H 	0.16363 0.30297 0.51367 0.08300
Zn	Zn	0.61640 0.64760 0.86450 1.21900
O 	O 	0.67290 0.70560 0.63820 -0.59400
O 	O 	0.69670 0.77170 0.39230 -0.49300
O 	O 	0.64580 0.72620 0.99740 -0.55500
C 	C 	0.68400 0.75530 0.57050 0.41900
C 	C 	0.67410 0.79360 0.71670 -0.17900
C 	C 	0.65880 0.77980 0.90610 0.19900
C 	C 	0.65070 0.81930 0.02770 -0.09900
H 	H 	0.63630 0.80600 0.15300 0.08300
Zn	Zn	0.28307 0.98093 0.19783 1.21900
O 	O 	0.33957 0.03893 0.97153 -0.59400
O 	O 	0.36337 0.10503 0.72563 -0.49300
O 	O 	0.31247 0.05953 0.33073 -0.55500
C 	C 	0.35067 0.08863 0.90383 0.42000
C 	C 	0.34077 0.12693 0.05003 -0.18100
C 	C 	0.32547 0.11313 0.23943 0.20000
C 	C 	0.31737 0.15263 0.36103 -0.10000
H 	H 	0.30297 0.13933 0.48633 0.08300
Zn	Zn	0.94973 0.31427 0.53117 1.21900
O 	O 	0.00623 0.37227 0.30487 -0.59400
O 	O 	0.03003 0.43837 0.05897 -0.49300
O 	O 	0.97913 0.39287 0.66407 -0.55500
C 	C 	0.01733 0.42197 0.23717 0.41900
C 	C 	0.00743 0.46027 0.38337 -0.18000
C 	C 	0.99213 0.44647 0.57277 0.20000
C 	C 	0.98403 0.48597 0.69437 -0.10000
H 	H 	0.96963 0.47267 0.81967 0.08300
Zn	Zn	0.35240 0.96880 0.86450 1.21900
O 	O 	0.29440 0.96730 0.63820 -0.59300
O 	O 	0.22830 0.92500 0.39230 -0.49300
O 	O 	0.27380 0.91960 0.99740 -0.55500
C 	C 	0.24470 0.92870 0.57050 0.41900
C 	C 	0.20640 0.88050 0.71670 -0.17900
C 	C 	0.22020 0.87900 0.90610 0.19800
C 	C 	0.18070 0.83140 0.02770 -0.09700
H 	H 	0.19400 0.83030 0.15300 0.08200
Zn	Zn	0.01907 0.30213 0.19783 1.21900
O 	O 	0.96107 0.30063 0.97153 -0.59300
O 	O 	0.89497 0.25833 0.72563 -0.49300
O 	O 	0.94047 0.25293 0.33073 -0.55500
C 	C 	0.91137 0.26203 0.90383 0.42000
C 	C 	0.87307 0.21383 0.05003 -0.18200
C 	C 	0.88687 0.21233 0.23943 0.20100
C 	C 	0.84737 0.16473 0.36103 -0.10100
H 	H 	0.86067 0.16363 0.48633 0.08300
Zn	Zn	0.68573 0.63547 0.53117 1.21900
O 	O 	0.62773 0.63397 0.30487 -0.59400
O 	O 	0.56163 0.59167 0.05897 -0.49300
O 	O 	0.60713 0.58627 0.66407 -0.55500
C 	C 	0.57803 0.59537 0.23717 0.41900
C 	C 	0.53973 0.54717 0.38337 -0.18000
C 	C 	0.55353 0.54567 0.57277 0.20000
C 	C 	0.51403 0.49807 0.69437 -0.10000
H 	H 	0.52733 0.49697 0.81967 0.08300
Zn	Zn	0.03120 0.38360 0.86450 1.21900
O 	O 	0.03270 0.32710 0.63820 -0.59400
O 	O 	0.07500 0.30330 0.39230 -0.49300
O 	O 	0.08040 0.35420 0.99740 -0.55500
C 	C 	0.07130 0.31600 0.57050 0.41900
C 	C 	0.11950 0.32590 0.71670 -0.17900
C 	C 	0.12100 0.34120 0.90610 0.19900
C 	C 	0.16860 0.34930 0.02770 -0.09900
H 	H 	0.16970 0.36370 0.15300 0.08300
Zn	Zn	0.69787 0.71693 0.19783 1.21900
O 	O 	0.69937 0.66043 0.97153 -0.59400
O 	O 	0.74167 0.63663 0.72563 -0.49300
O 	O 	0.74707 0.68753 0.33073 -0.55500
C 	C 	0.73797 0.64933 0.90383 0.42000
C 	C 	0.78617 0.65923 0.05003 -0.18000
C 	C 	0.78767 0.67453 0.23943 0.20000
C 	C 	0.83527 0.68263 0.36103 -0.10000
H 	H 	0.83637 0.69703 0.48633 0.08300
Zn	Zn	0.36453 0.05027 0.53117 1.21900
O 	O 	0.36603 0.99377 0.30487 -0.59300
O 	O 	0.40833 0.96997 0.05897 -0.49300
O 	O 	0.41373 0.02087 0.66407 -0.55500
C 	C 	0.40463 0.98267 0.23717 0.41900
C 	C 	0.45283 0.99257 0.38337 -0.18000
C 	C 	0.45433 0.00787 0.57277 0.20000
C 	C 	0.50193 0.01597 0.69437 -0.10000
H 	H 	0.50303 0.03037 0.81967 0.08300
