data_crystal

_cell_length_a 17.55400
_cell_length_b 28.81500
_cell_length_c 8.42090
_cell_angle_alpha 90.00000
_cell_angle_beta  108.75300
_cell_angle_gamma 90.00000

_symmetry_space_group_name_	'P 1'
_symmetry_space_group_name_H-M	'P 1'

loop_
_symmetry_equiv_pos_as_xyz
  x,y,z

loop_
_atom_site_label
_atom_site_type_symbol
_atom_site_fract_x
_atom_site_fract_y
_atom_site_fract_z
_atom_site_charge
Co	Co	0.32240 0.21697 0.34476 1.15800
Cl	Cl	0.14613 0.00008 0.60507 -0.34300
O 	O 	0.19401 0.29419 0.92980 -0.33400
O 	O 	0.01838 0.28384 0.81770 -0.42700
O 	O 	0.29094 0.26464 0.14580 -0.37800
O 	O 	0.94142 0.25444 0.95890 -0.35300
N 	N 	0.19310 0.20123 0.21500 -0.21800
N 	N 	0.06050 0.19995 0.14890 -0.10800
C 	C 	0.14120 0.05276 0.49880 0.31900
C 	C 	0.20080 0.10703 0.35850 0.13100
H 	H 	0.24240 0.11560 0.31860 -0.01800
C 	C 	0.13380 0.13606 0.33230 -0.12900
C 	C 	0.20500 0.06538 0.44410 -0.24100
H 	H 	0.24980 0.04630 0.46450 0.17700
C 	C 	0.00780 0.26043 0.93590 0.37400
C 	C 	0.07810 0.23554 0.05770 -0.05800
C 	C 	0.07430 0.08057 0.47160 -0.25300
H 	H 	0.03190 0.07120 0.50770 0.17900
C 	C 	0.13010 0.17956 0.23840 0.14300
C 	C 	0.21840 0.26696 0.05420 0.28500
C 	C 	0.07100 0.12279 0.38940 0.13000
H 	H 	0.02670 0.14220 0.37270 0.01700
C 	C 	0.16060 0.23602 0.10010 -0.04800
Co	Co	0.10503 0.28941 0.69993 1.15900
Cl	Cl	0.86789 0.09290 0.91993 -0.31800
O 	O 	0.28479 0.26417 0.49010 -0.36600
O 	O 	0.35717 0.17093 0.54380 -0.40400
O 	O 	0.35174 0.11768 0.73180 -0.34600
O 	O 	0.19219 0.29758 0.57970 -0.37900
N 	N 	0.14570 0.21704 0.68280 -0.21200
C 	C 	0.25520 0.17654 0.67450 -0.02300
C 	C 	0.07820 0.15498 0.79580 -0.08800
C 	C 	0.02420 0.09714 0.93870 -0.15200
H 	H 	0.03120 0.07140 0.00860 0.12400
N 	N 	0.21050 0.14984 0.74920 -0.10000
C 	C 	0.94870 0.11709 0.87020 0.28200
C 	C 	0.00130 0.17331 0.72630 0.09300
H 	H 	0.99320 0.19820 0.65240 -0.00300
C 	C 	0.93610 0.15493 0.76560 -0.20300
H 	H 	0.88520 0.16800 0.72200 0.16400
C 	C 	0.14500 0.17476 0.74850 0.13900
C 	C 	0.23270 0.26232 0.56210 0.32700
C 	C 	0.21420 0.21819 0.63530 -0.05800
C 	C 	0.32790 0.15378 0.64860 0.35100
C 	C 	0.08940 0.11630 0.90100 0.07100
H 	H 	0.14030 0.10330 0.94600 0.05200
Co	Co	0.95415 0.57246 0.76618 1.19400
Cl	Cl	0.36760 0.59271 0.41978 -0.34300
O 	O 	0.90262 0.46981 0.40190 -0.36200
O 	O 	0.99430 0.61752 0.61760 -0.45900
H 	H 	0.03990 0.62640 0.66980 0.24700
O 	O 	0.00516 0.38722 0.47600 -0.42100
O 	O 	0.08808 0.36289 0.72350 -0.35100
O 	O 	0.89850 0.53275 0.55040 -0.35600
N 	N 	0.04210 0.51584 0.78070 -0.20800
C 	C 	0.16910 0.51873 0.02280 -0.13600
C 	C 	0.28270 0.51653 0.27680 -0.24500
H 	H 	0.31820 0.50000 0.36460 0.17700
N 	N 	0.11060 0.44986 0.84840 -0.09800
C 	C 	0.04820 0.44071 0.70310 -0.01700
C 	C 	0.29090 0.56435 0.26490 0.30700
C 	C 	0.24030 0.58971 0.13450 -0.21800
H 	H 	0.24650 0.62170 0.12860 0.16000
C 	C 	0.18020 0.56658 0.01270 0.07400
H 	H 	0.14650 0.58310 0.92260 0.02000
C 	C 	0.22170 0.49394 0.15730 0.12800
H 	H 	0.21520 0.46210 0.16560 0.01700
C 	C 	0.10610 0.49541 0.88990 0.17200
C 	C 	0.93140 0.49525 0.52990 0.33100
C 	C 	0.00630 0.48243 0.66320 -0.05700
C 	C 	0.04610 0.39377 0.62720 0.33900
Co	Co	0.82240 0.71697 0.34476 1.16000
Cl	Cl	0.64613 0.50008 0.60507 -0.33900
O 	O 	0.69401 0.79419 0.92980 -0.33400
O 	O 	0.51838 0.78384 0.81770 -0.42500
O 	O 	0.79094 0.76464 0.14580 -0.37800
O 	O 	0.44142 0.75444 0.95890 -0.35500
N 	N 	0.69310 0.70123 0.21500 -0.21800
N 	N 	0.56050 0.69995 0.14890 -0.10700
C 	C 	0.64120 0.55276 0.49880 0.31900
C 	C 	0.70080 0.60703 0.35850 0.13100
H 	H 	0.74240 0.61560 0.31860 -0.01700
C 	C 	0.63380 0.63606 0.33230 -0.12900
C 	C 	0.70500 0.56538 0.44410 -0.24000
H 	H 	0.74980 0.54630 0.46450 0.17800
C 	C 	0.50780 0.76043 0.93590 0.37600
C 	C 	0.57810 0.73554 0.05770 -0.05800
C 	C 	0.57430 0.58057 0.47160 -0.25200
H 	H 	0.53190 0.57120 0.50770 0.18000
C 	C 	0.63010 0.67956 0.23840 0.14300
C 	C 	0.71840 0.76696 0.05420 0.28600
C 	C 	0.57100 0.62279 0.38940 0.13000
H 	H 	0.52670 0.64220 0.37270 0.01800
C 	C 	0.66060 0.73602 0.10010 -0.04800
Co	Co	0.60503 0.78941 0.69993 1.16000
Cl	Cl	0.36789 0.59290 0.91993 -0.31800
O 	O 	0.78479 0.76417 0.49010 -0.36600
O 	O 	0.85717 0.67093 0.54380 -0.40400
O 	O 	0.85174 0.61768 0.73180 -0.34500
O 	O 	0.69219 0.79758 0.57970 -0.37900
N 	N 	0.64570 0.71704 0.68280 -0.21200
C 	C 	0.75520 0.67654 0.67450 -0.02300
C 	C 	0.57820 0.65498 0.79580 -0.09400
C 	C 	0.52420 0.59714 0.93870 -0.15400
H 	H 	0.53120 0.57140 0.00860 0.12600
N 	N 	0.71050 0.64984 0.74920 -0.10100
C 	C 	0.44870 0.61709 0.87020 0.28400
C 	C 	0.50130 0.67331 0.72630 0.10700
H 	H 	0.49320 0.69820 0.65240 -0.01000
C 	C 	0.43610 0.65493 0.76560 -0.21400
H 	H 	0.38520 0.66800 0.72200 0.16700
C 	C 	0.64500 0.67476 0.74850 0.14100
C 	C 	0.73270 0.76232 0.56210 0.32700
C 	C 	0.71420 0.71819 0.63530 -0.05800
C 	C 	0.82790 0.65378 0.64860 0.35100
C 	C 	0.58940 0.61630 0.90100 0.07600
H 	H 	0.64030 0.60330 0.94600 0.05000
Co	Co	0.45415 0.07246 0.76618 1.19300
Cl	Cl	0.86760 0.09271 0.41978 -0.34400
O 	O 	0.40262 0.96981 0.40190 -0.36300
O 	O 	0.49430 0.11752 0.61760 -0.46400
H 	H 	0.53990 0.12640 0.66980 0.25100
O 	O 	0.50516 0.88722 0.47600 -0.41900
O 	O 	0.58808 0.86289 0.72350 -0.35100
O 	O 	0.39850 0.03275 0.55040 -0.35900
N 	N 	0.54210 0.01584 0.78070 -0.21200
C 	C 	0.66910 0.01873 0.02280 -0.15400
C 	C 	0.78270 0.01653 0.27680 -0.26300
H 	H 	0.81820 0.00000 0.36460 0.18200
N 	N 	0.61060 0.94986 0.84840 -0.09900
C 	C 	0.54820 0.94071 0.70310 -0.01700
C 	C 	0.79090 0.06435 0.26490 0.31600
C 	C 	0.74030 0.08971 0.13450 -0.22900
H 	H 	0.74650 0.12170 0.12860 0.16400
C 	C 	0.68020 0.06658 0.01270 0.08700
H 	H 	0.64650 0.08310 0.92260 0.01500
C 	C 	0.72170 0.99394 0.15730 0.15100
H 	H 	0.71520 0.96210 0.16560 0.01000
C 	C 	0.60610 0.99541 0.88990 0.18200
C 	C 	0.43140 0.99525 0.52990 0.33100
C 	C 	0.50630 0.98243 0.66320 -0.05100
C 	C 	0.54610 0.89377 0.62720 0.34000
Co	Co	0.32240 0.78303 0.84476 1.16600
Cl	Cl	0.14613 0.99992 0.10507 -0.36000
O 	O 	0.19401 0.70581 0.42980 -0.36400
O 	O 	0.01838 0.71616 0.31770 -0.42700
O 	O 	0.29094 0.73536 0.64580 -0.38000
O 	O 	0.94142 0.74556 0.45890 -0.35600
N 	N 	0.19310 0.79877 0.71500 -0.21100
N 	N 	0.06050 0.80005 0.64890 -0.10400
C 	C 	0.14120 0.94724 0.99880 0.31500
C 	C 	0.20080 0.89297 0.85850 0.12000
H 	H 	0.24240 0.88440 0.81860 -0.00500
C 	C 	0.13380 0.86394 0.83230 -0.10300
C 	C 	0.20500 0.93462 0.94410 -0.22400
H 	H 	0.24980 0.95370 0.96450 0.18300
C 	C 	0.00780 0.73957 0.43590 0.34300
C 	C 	0.07810 0.76446 0.55770 -0.02000
C 	C 	0.07430 0.91943 0.97160 -0.17800
H 	H 	0.03190 0.92880 0.00770 0.13300
C 	C 	0.13010 0.82044 0.73840 0.14500
C 	C 	0.21840 0.73304 0.55420 0.32600
C 	C 	0.07100 0.87721 0.88940 0.09300
H 	H 	0.02670 0.85780 0.87270 0.03900
C 	C 	0.16060 0.76398 0.60010 -0.05900
Co	Co	0.10503 0.71059 0.19993 1.15500
Cl	Cl	0.86789 0.90710 0.41993 -0.34300
O 	O 	0.28479 0.73583 0.99010 -0.33500
O 	O 	0.35717 0.82907 0.04380 -0.42000
O 	O 	0.35174 0.88232 0.23180 -0.35200
O 	O 	0.19219 0.70242 0.07970 -0.37900
N 	N 	0.14570 0.78296 0.18280 -0.21800
C 	C 	0.25520 0.82346 0.17450 -0.03600
C 	C 	0.07820 0.84502 0.29580 -0.12200
C 	C 	0.02420 0.90286 0.43870 -0.24700
H 	H 	0.03120 0.92860 0.50860 0.17800
N 	N 	0.21050 0.85016 0.24920 -0.10500
C 	C 	0.94870 0.88291 0.37020 0.31800
C 	C 	0.00130 0.82669 0.22630 0.11500
H 	H 	0.99320 0.80180 0.15240 -0.01600
C 	C 	0.93610 0.84507 0.26560 -0.23800
H 	H 	0.88520 0.83200 0.22200 0.17000
C 	C 	0.14500 0.82524 0.24850 0.14000
C 	C 	0.23270 0.73768 0.06210 0.28900
C 	C 	0.21420 0.78181 0.13530 -0.05500
C 	C 	0.32790 0.84622 0.14860 0.35100
C 	C 	0.08940 0.88370 0.40100 0.12100
H 	H 	0.14030 0.89670 0.44600 0.02400
Co	Co	0.95415 0.42754 0.26618 1.19300
Cl	Cl	0.36760 0.40729 0.91978 -0.32400
O 	O 	0.90262 0.53019 0.90190 -0.33600
O 	O 	0.99430 0.38248 0.11760 -0.46600
H 	H 	0.03990 0.37360 0.16980 0.24300
O 	O 	0.00516 0.61278 0.97600 -0.39100
O 	O 	0.08808 0.63711 0.22350 -0.35000
O 	O 	0.89850 0.46725 0.05040 -0.35800
N 	N 	0.04210 0.48416 0.28070 -0.20800
C 	C 	0.16910 0.48127 0.52280 -0.12800
C 	C 	0.28270 0.48347 0.77680 -0.25000
H 	H 	0.31820 0.50000 0.86460 0.18600
N 	N 	0.11060 0.55014 0.34840 -0.10000
C 	C 	0.04820 0.55929 0.20310 -0.01700
C 	C 	0.29090 0.43565 0.76490 0.32200
C 	C 	0.24030 0.41029 0.63450 -0.24800
H 	H 	0.24650 0.37830 0.62860 0.17800
C 	C 	0.18020 0.43342 0.51270 0.13800
H 	H 	0.14650 0.41690 0.42260 -0.02100
C 	C 	0.22170 0.50606 0.65730 0.13500
H 	H 	0.21520 0.53790 0.66560 0.02300
C 	C 	0.10610 0.50459 0.38990 0.14900
C 	C 	0.93140 0.50475 0.02990 0.29800
C 	C 	0.00630 0.51757 0.16320 -0.05800
C 	C 	0.04610 0.60623 0.12720 0.30500
Co	Co	0.82240 0.28303 0.84476 1.16600
Cl	Cl	0.64613 0.49992 0.10507 -0.36200
O 	O 	0.69401 0.20581 0.42980 -0.36400
O 	O 	0.51838 0.21616 0.31770 -0.42600
O 	O 	0.79094 0.23536 0.64580 -0.38000
O 	O 	0.44142 0.24556 0.45890 -0.35900
N 	N 	0.69310 0.29877 0.71500 -0.21100
N 	N 	0.56050 0.30005 0.64890 -0.10300
C 	C 	0.64120 0.44724 0.99880 0.31500
C 	C 	0.70080 0.39297 0.85850 0.11900
H 	H 	0.74240 0.38440 0.81860 -0.00500
C 	C 	0.63380 0.36394 0.83230 -0.10300
C 	C 	0.70500 0.43462 0.94410 -0.22400
H 	H 	0.74980 0.45370 0.96450 0.18200
C 	C 	0.50780 0.23957 0.43590 0.34700
C 	C 	0.57810 0.26446 0.55770 -0.02000
C 	C 	0.57430 0.41943 0.97160 -0.17800
H 	H 	0.53190 0.42880 0.00770 0.13400
C 	C 	0.63010 0.32044 0.73840 0.14500
C 	C 	0.71840 0.23304 0.55420 0.32600
C 	C 	0.57100 0.37721 0.88940 0.09300
H 	H 	0.52670 0.35780 0.87270 0.04000
C 	C 	0.66060 0.26398 0.60010 -0.05900
Co	Co	0.60503 0.21059 0.19993 1.15600
Cl	Cl	0.36789 0.40710 0.41993 -0.34600
O 	O 	0.78479 0.23583 0.99010 -0.33500
O 	O 	0.85717 0.32907 0.04380 -0.42000
O 	O 	0.85174 0.38232 0.23180 -0.35200
O 	O 	0.69219 0.20242 0.07970 -0.37900
N 	N 	0.64570 0.28296 0.18280 -0.21800
C 	C 	0.75520 0.32346 0.17450 -0.03600
C 	C 	0.57820 0.34502 0.29580 -0.12900
C 	C 	0.52420 0.40286 0.43870 -0.24600
H 	H 	0.53120 0.42860 0.50860 0.17800
N 	N 	0.71050 0.35016 0.24920 -0.10600
C 	C 	0.44870 0.38291 0.37020 0.31900
C 	C 	0.50130 0.32669 0.22630 0.13300
H 	H 	0.49320 0.30180 0.15240 -0.02500
C 	C 	0.43610 0.34507 0.26560 -0.25100
H 	H 	0.38520 0.33200 0.22200 0.17400
C 	C 	0.64500 0.32524 0.24850 0.14200
C 	C 	0.73270 0.23768 0.06210 0.28900
C 	C 	0.71420 0.28181 0.13530 -0.05500
C 	C 	0.82790 0.34622 0.14860 0.35100
C 	C 	0.58940 0.38370 0.40100 0.12500
H 	H 	0.64030 0.39670 0.44600 0.02300
Co	Co	0.45415 0.92754 0.26618 1.19200
Cl	Cl	0.86760 0.90729 0.91978 -0.32000
O 	O 	0.40262 0.03019 0.90190 -0.33400
O 	O 	0.49430 0.88248 0.11760 -0.47100
H 	H 	0.53990 0.87360 0.16980 0.24700
O 	O 	0.50516 0.11278 0.97600 -0.39000
O 	O 	0.58808 0.13711 0.22350 -0.35000
O 	O 	0.39850 0.96725 0.05040 -0.35400
N 	N 	0.54210 0.98416 0.28070 -0.20300
C 	C 	0.66910 0.98127 0.52280 -0.10700
C 	C 	0.78270 0.98347 0.77680 -0.22200
H 	H 	0.81820 0.00000 0.86460 0.17400
N 	N 	0.61060 0.05014 0.34840 -0.09800
C 	C 	0.54820 0.05929 0.20310 -0.01700
C 	C 	0.79090 0.93565 0.76490 0.30900
C 	C 	0.74030 0.91029 0.63450 -0.23400
H 	H 	0.74650 0.87830 0.62860 0.17300
C 	C 	0.68020 0.93342 0.51270 0.12200
H 	H 	0.64650 0.91690 0.42260 -0.01500
C 	C 	0.72170 0.00606 0.65730 0.10600
H 	H 	0.71520 0.03790 0.66560 0.03200
C 	C 	0.60610 0.00459 0.38990 0.13700
C 	C 	0.43140 0.00475 0.02990 0.28800
C 	C 	0.50630 0.01757 0.16320 -0.05600
C 	C 	0.54610 0.10623 0.12720 0.30500
