data_crystal

_cell_length_a 23.26670
_cell_length_b 15.23520
_cell_length_c 16.83470
_cell_angle_alpha 90.00000
_cell_angle_beta  90.00000
_cell_angle_gamma 90.00000

_symmetry_space_group_name_	'P 1'
_symmetry_space_group_name_H-M	'P 1'

loop_
_symmetry_equiv_pos_as_xyz
  x,y,z

loop_
_atom_site_label
_atom_site_type_symbol
_atom_site_fract_x
_atom_site_fract_y
_atom_site_fract_z
_atom_site_charge
Zn	Zn	0.01173 0.58342 0.24360 1.20900
O 	O 	0.95280 0.66890 0.26570 -0.50700
O 	O 	0.90390 0.62350 0.16280 -0.33500
O 	O 	0.59810 0.34940 0.17600 -0.35700
O 	O 	0.57530 0.34400 0.30120 -0.44500
O 	O 	0.78810 0.02570 0.36020 -0.23700
N 	N 	0.76800 0.97660 0.23800 -0.28000
H 	H 	0.74820 0.98600 0.19570 0.14400
N 	N 	0.00790 0.99830 0.83940 -0.29000
N 	N 	0.00760 0.49210 0.15400 -0.28500
C 	C 	0.64610 0.24570 0.25780 -0.08000
C 	C 	0.67430 0.20900 0.19540 -0.00300
H 	H 	0.66810 0.23040 0.14440 0.04200
C 	C 	0.71200 0.14010 0.20710 -0.05200
H 	H 	0.73130 0.11610 0.16390 0.04800
C 	C 	0.72110 0.10770 0.27950 -0.02500
C 	C 	0.69520 0.14580 0.34350 -0.05600
H 	H 	0.70310 0.12580 0.39450 0.06100
C 	C 	0.65720 0.21420 0.33230 0.00600
H 	H 	0.63890 0.23920 0.37600 0.04400
C 	C 	0.80440 0.90190 0.23880 0.28200
C 	C 	0.79670 0.84450 0.17740 -0.29100
H 	H 	0.76830 0.85450 0.13960 0.13400
C 	C 	0.83230 0.76990 0.17190 0.18300
H 	H 	0.82610 0.73010 0.13090 -0.02300
C 	C 	0.87470 0.75460 0.22420 -0.23400
C 	C 	0.88540 0.81630 0.27910 0.18700
H 	H 	0.91640 0.80970 0.31350 -0.01900
C 	C 	0.84990 0.89100 0.28510 -0.30600
H 	H 	0.85860 0.93390 0.32250 0.15300
C 	C 	0.60380 0.31960 0.24090 0.34400
C 	C 	0.91260 0.67360 0.22120 0.42000
C 	C 	0.76240 0.03150 0.29540 0.22900
C 	C 	0.04620 0.48640 0.09900 0.13700
H 	H 	0.07570 0.52770 0.09760 -0.02200
C 	C 	0.04510 0.42020 0.04160 -0.23200
H 	H 	0.07330 0.41880 0.00240 0.12400
C 	C 	0.00320 0.35780 0.04250 0.18800
C 	C 	0.96280 0.36420 0.10090 -0.22200
H 	H 	0.93310 0.32340 0.10330 0.11500
C 	C 	0.96560 0.43110 0.15680 0.12500
H 	H 	0.93810 0.43390 0.19680 -0.02900
C 	C 	0.00180 0.28410 0.98230 -0.19700
H 	H 	0.03550 0.28790 0.94860 0.09500
H 	H 	0.96810 0.29060 0.94890 0.09400
C 	C 	0.00030 0.19430 0.02220 -0.18100
H 	H 	0.03310 0.18820 0.05750 0.08900
H 	H 	0.96560 0.18870 0.05360 0.09000
C 	C 	0.00200 0.12260 0.95910 0.17800
C 	C 	0.05420 0.09650 0.92780 -0.21800
H 	H 	0.08820 0.12060 0.94690 0.11000
C 	C 	0.05570 0.03460 0.86810 0.12800
H 	H 	0.09100 0.01780 0.84720 -0.02200
C 	C 	0.95920 0.01980 0.87380 0.13500
H 	H 	0.92600 0.99110 0.85700 -0.03000
C 	C 	0.95360 0.08150 0.93270 -0.23100
H 	H 	0.91780 0.09490 0.95410 0.11400
Zn	Zn	0.51173 0.41658 0.25640 1.21000
O 	O 	0.45280 0.33110 0.23430 -0.50600
O 	O 	0.40390 0.37650 0.33720 -0.33500
O 	O 	0.09810 0.65060 0.32400 -0.35700
O 	O 	0.07530 0.65600 0.19880 -0.44600
O 	O 	0.28810 0.97430 0.13980 -0.23700
N 	N 	0.26800 0.02340 0.26200 -0.28000
H 	H 	0.24820 0.01400 0.30430 0.14400
N 	N 	0.50790 0.00170 0.66060 -0.28900
N 	N 	0.50760 0.50790 0.34600 -0.28500
C 	C 	0.14610 0.75430 0.24220 -0.08000
C 	C 	0.17430 0.79100 0.30460 -0.00300
H 	H 	0.16810 0.76960 0.35560 0.04100
C 	C 	0.21200 0.85990 0.29290 -0.05200
H 	H 	0.23130 0.88390 0.33610 0.04800
C 	C 	0.22110 0.89230 0.22050 -0.02500
C 	C 	0.19520 0.85420 0.15650 -0.05600
H 	H 	0.20310 0.87420 0.10550 0.06100
C 	C 	0.15720 0.78580 0.16770 0.00500
H 	H 	0.13890 0.76080 0.12400 0.04400
C 	C 	0.30440 0.09810 0.26120 0.28200
C 	C 	0.29670 0.15550 0.32260 -0.29100
H 	H 	0.26830 0.14550 0.36040 0.13500
C 	C 	0.33230 0.23010 0.32810 0.18300
H 	H 	0.32610 0.26990 0.36910 -0.02300
C 	C 	0.37470 0.24540 0.27580 -0.23500
C 	C 	0.38540 0.18370 0.22090 0.18700
H 	H 	0.41640 0.19030 0.18650 -0.01900
C 	C 	0.34990 0.10900 0.21490 -0.30600
H 	H 	0.35860 0.06610 0.17750 0.15300
C 	C 	0.10380 0.68040 0.25910 0.34400
C 	C 	0.41260 0.32640 0.27880 0.42000
C 	C 	0.26240 0.96850 0.20460 0.22900
C 	C 	0.54620 0.51360 0.40100 0.13700
H 	H 	0.57570 0.47230 0.40240 -0.02100
C 	C 	0.54510 0.57980 0.45840 -0.23100
H 	H 	0.57330 0.58120 0.49760 0.12400
C 	C 	0.50320 0.64220 0.45750 0.18700
C 	C 	0.46280 0.63580 0.39910 -0.22000
H 	H 	0.43310 0.67660 0.39670 0.11500
C 	C 	0.46560 0.56890 0.34320 0.12400
H 	H 	0.43810 0.56610 0.30320 -0.02900
C 	C 	0.50180 0.71590 0.51770 -0.19900
H 	H 	0.53550 0.71210 0.55140 0.09500
H 	H 	0.46810 0.70940 0.55110 0.09500
C 	C 	0.50030 0.80570 0.47780 -0.18300
H 	H 	0.53310 0.81180 0.44250 0.08900
H 	H 	0.46560 0.81130 0.44640 0.09200
C 	C 	0.50200 0.87740 0.54090 0.17500
C 	C 	0.55420 0.90350 0.57220 -0.21600
H 	H 	0.58820 0.87940 0.55310 0.10900
C 	C 	0.55570 0.96540 0.63190 0.12400
H 	H 	0.59100 0.98220 0.65280 -0.02200
C 	C 	0.45920 0.98020 0.62620 0.14000
H 	H 	0.42600 0.00890 0.64300 -0.03300
C 	C 	0.45360 0.91850 0.56730 -0.22900
H 	H 	0.41780 0.90510 0.54590 0.11400
Zn	Zn	0.51173 0.08342 0.75640 1.21000
O 	O 	0.45280 0.16890 0.73430 -0.50600
O 	O 	0.40390 0.12350 0.83720 -0.33500
O 	O 	0.09810 0.84940 0.82400 -0.35700
O 	O 	0.07530 0.84400 0.69880 -0.44600
O 	O 	0.28810 0.52570 0.63980 -0.23600
N 	N 	0.26800 0.47660 0.76200 -0.28100
H 	H 	0.24820 0.48600 0.80430 0.14400
N 	N 	0.50790 0.49830 0.16060 -0.28900
N 	N 	0.50760 0.99210 0.84600 -0.28500
C 	C 	0.14610 0.74570 0.74220 -0.08000
C 	C 	0.17430 0.70900 0.80460 -0.00300
H 	H 	0.16810 0.73040 0.85560 0.04200
C 	C 	0.21200 0.64010 0.79290 -0.05200
H 	H 	0.23130 0.61610 0.83610 0.04800
C 	C 	0.22110 0.60770 0.72050 -0.02500
C 	C 	0.19520 0.64580 0.65650 -0.05600
H 	H 	0.20310 0.62580 0.60550 0.06100
C 	C 	0.15720 0.71420 0.66770 0.00600
H 	H 	0.13890 0.73920 0.62400 0.04400
C 	C 	0.30440 0.40190 0.76120 0.28200
C 	C 	0.29670 0.34450 0.82260 -0.29100
H 	H 	0.26830 0.35450 0.86040 0.13400
C 	C 	0.33230 0.26990 0.82810 0.18300
H 	H 	0.32610 0.23010 0.86910 -0.02300
C 	C 	0.37470 0.25460 0.77580 -0.23400
C 	C 	0.38540 0.31630 0.72090 0.18700
H 	H 	0.41640 0.30970 0.68650 -0.01900
C 	C 	0.34990 0.39100 0.71490 -0.30600
H 	H 	0.35860 0.43390 0.67750 0.15300
C 	C 	0.10380 0.81960 0.75910 0.34400
C 	C 	0.41260 0.17360 0.77880 0.42000
C 	C 	0.26240 0.53150 0.70460 0.23000
C 	C 	0.54620 0.98640 0.90100 0.13900
H 	H 	0.57570 0.02770 0.90240 -0.02300
C 	C 	0.54510 0.92020 0.95840 -0.23300
H 	H 	0.57330 0.91880 0.99760 0.12500
C 	C 	0.50320 0.85780 0.95750 0.18800
C 	C 	0.46280 0.86420 0.89910 -0.22100
H 	H 	0.43310 0.82340 0.89670 0.11500
C 	C 	0.46560 0.93110 0.84320 0.12500
H 	H 	0.43810 0.93390 0.80320 -0.02900
C 	C 	0.50180 0.78410 0.01770 -0.20100
H 	H 	0.53550 0.78790 0.05140 0.09600
H 	H 	0.46810 0.79060 0.05110 0.09600
C 	C 	0.50030 0.69430 0.97780 -0.18100
H 	H 	0.53310 0.68820 0.94250 0.08900
H 	H 	0.46560 0.68870 0.94640 0.09100
C 	C 	0.50200 0.62260 0.04090 0.17500
C 	C 	0.55420 0.59650 0.07220 -0.21600
H 	H 	0.58820 0.62060 0.05310 0.10900
C 	C 	0.55570 0.53460 0.13190 0.12400
H 	H 	0.59100 0.51780 0.15280 -0.02200
C 	C 	0.45920 0.51980 0.12620 0.14000
H 	H 	0.42600 0.49110 0.14300 -0.03300
C 	C 	0.45360 0.58150 0.06730 -0.22900
H 	H 	0.41780 0.59490 0.04590 0.11400
Zn	Zn	0.01173 0.91658 0.74360 1.20900
O 	O 	0.95280 0.83110 0.76570 -0.50500
O 	O 	0.90390 0.87650 0.66280 -0.33500
O 	O 	0.59810 0.15060 0.67600 -0.35700
O 	O 	0.57530 0.15600 0.80120 -0.44600
O 	O 	0.78810 0.47430 0.86020 -0.23600
N 	N 	0.76800 0.52340 0.73800 -0.28100
H 	H 	0.74820 0.51400 0.69570 0.14400
N 	N 	0.00790 0.50170 0.33940 -0.28900
N 	N 	0.00760 0.00790 0.65400 -0.28400
C 	C 	0.64610 0.25430 0.75780 -0.08000
C 	C 	0.67430 0.29100 0.69540 -0.00300
H 	H 	0.66810 0.26960 0.64440 0.04200
C 	C 	0.71200 0.35990 0.70710 -0.05200
H 	H 	0.73130 0.38390 0.66390 0.04800
C 	C 	0.72110 0.39230 0.77950 -0.02500
C 	C 	0.69520 0.35420 0.84350 -0.05600
H 	H 	0.70310 0.37420 0.89450 0.06100
C 	C 	0.65720 0.28580 0.83230 0.00600
H 	H 	0.63890 0.26080 0.87600 0.04400
C 	C 	0.80440 0.59810 0.73880 0.28200
C 	C 	0.79670 0.65550 0.67740 -0.29100
H 	H 	0.76830 0.64550 0.63960 0.13400
C 	C 	0.83230 0.73010 0.67190 0.18300
H 	H 	0.82610 0.76990 0.63090 -0.02300
C 	C 	0.87470 0.74540 0.72420 -0.23400
C 	C 	0.88540 0.68370 0.77910 0.18600
H 	H 	0.91640 0.69030 0.81350 -0.01900
C 	C 	0.84990 0.60900 0.78510 -0.30600
H 	H 	0.85860 0.56610 0.82250 0.15300
C 	C 	0.60380 0.18040 0.74090 0.34400
C 	C 	0.91260 0.82640 0.72120 0.41900
C 	C 	0.76240 0.46850 0.79540 0.23000
C 	C 	0.04620 0.01360 0.59900 0.14400
H 	H 	0.07570 0.97230 0.59760 -0.02500
C 	C 	0.04510 0.07980 0.54160 -0.23600
H 	H 	0.07330 0.08120 0.50240 0.12600
C 	C 	0.00320 0.14220 0.54250 0.19100
C 	C 	0.96280 0.13580 0.60090 -0.22500
H 	H 	0.93310 0.17660 0.60330 0.11600
C 	C 	0.96560 0.06890 0.65680 0.12300
H 	H 	0.93810 0.06610 0.69680 -0.02900
C 	C 	0.00180 0.21590 0.48230 -0.19800
H 	H 	0.03550 0.21210 0.44860 0.09500
H 	H 	0.96810 0.20940 0.44890 0.09400
C 	C 	0.00030 0.30570 0.52220 -0.18100
H 	H 	0.03310 0.31180 0.55750 0.08900
H 	H 	0.96560 0.31130 0.55360 0.09000
C 	C 	0.00200 0.37740 0.45910 0.17600
C 	C 	0.05420 0.40350 0.42780 -0.21600
H 	H 	0.08820 0.37940 0.44690 0.10900
C 	C 	0.05570 0.46540 0.36810 0.12400
H 	H 	0.09100 0.48220 0.34720 -0.02200
C 	C 	0.95920 0.48020 0.37380 0.14100
H 	H 	0.92600 0.50890 0.35700 -0.03400
C 	C 	0.95360 0.41850 0.43270 -0.23000
H 	H 	0.91780 0.40510 0.45410 0.11500
Zn	Zn	0.48827 0.91658 0.24360 1.21000
O 	O 	0.54720 0.83110 0.26570 -0.50600
O 	O 	0.59610 0.87650 0.16280 -0.33500
O 	O 	0.90190 0.15060 0.17600 -0.35700
O 	O 	0.92470 0.15600 0.30120 -0.44600
O 	O 	0.71190 0.47430 0.36020 -0.23600
N 	N 	0.73200 0.52340 0.23800 -0.28100
H 	H 	0.75180 0.51400 0.19570 0.14400
N 	N 	0.49210 0.50170 0.83940 -0.28900
N 	N 	0.49240 0.00790 0.15400 -0.28500
C 	C 	0.85390 0.25430 0.25780 -0.08000
C 	C 	0.82570 0.29100 0.19540 -0.00300
H 	H 	0.83190 0.26960 0.14440 0.04200
C 	C 	0.78800 0.35990 0.20710 -0.05200
H 	H 	0.76870 0.38390 0.16390 0.04800
C 	C 	0.77890 0.39230 0.27950 -0.02500
C 	C 	0.80480 0.35420 0.34350 -0.05600
H 	H 	0.79690 0.37420 0.39450 0.06100
C 	C 	0.84280 0.28580 0.33230 0.00600
H 	H 	0.86110 0.26080 0.37600 0.04400
C 	C 	0.69560 0.59810 0.23880 0.28200
C 	C 	0.70330 0.65550 0.17740 -0.29100
H 	H 	0.73170 0.64550 0.13960 0.13400
C 	C 	0.66770 0.73010 0.17190 0.18300
H 	H 	0.67390 0.76990 0.13090 -0.02300
C 	C 	0.62530 0.74540 0.22420 -0.23400
C 	C 	0.61460 0.68370 0.27910 0.18700
H 	H 	0.58360 0.69030 0.31350 -0.01900
C 	C 	0.65010 0.60900 0.28510 -0.30600
H 	H 	0.64140 0.56610 0.32250 0.15300
C 	C 	0.89620 0.18040 0.24090 0.34400
C 	C 	0.58740 0.82640 0.22120 0.42000
C 	C 	0.73760 0.46850 0.29540 0.23000
C 	C 	0.45380 0.01360 0.09900 0.13900
H 	H 	0.42430 0.97230 0.09760 -0.02300
C 	C 	0.45490 0.07980 0.04160 -0.23300
H 	H 	0.42670 0.08120 0.00240 0.12500
C 	C 	0.49680 0.14220 0.04250 0.18800
C 	C 	0.53720 0.13580 0.10090 -0.22100
H 	H 	0.56690 0.17660 0.10330 0.11500
C 	C 	0.53440 0.06890 0.15680 0.12500
H 	H 	0.56190 0.06610 0.19680 -0.02900
C 	C 	0.49820 0.21590 0.98230 -0.20100
H 	H 	0.46450 0.21210 0.94860 0.09600
H 	H 	0.53190 0.20940 0.94890 0.09600
C 	C 	0.49970 0.30570 0.02220 -0.18100
H 	H 	0.46690 0.31180 0.05750 0.08900
H 	H 	0.53440 0.31130 0.05360 0.09100
C 	C 	0.49800 0.37740 0.95910 0.17500
C 	C 	0.44580 0.40350 0.92780 -0.21600
H 	H 	0.41180 0.37940 0.94690 0.10900
C 	C 	0.44430 0.46540 0.86810 0.12400
H 	H 	0.40900 0.48220 0.84720 -0.02200
C 	C 	0.54080 0.48020 0.87380 0.14000
H 	H 	0.57400 0.50890 0.85700 -0.03300
C 	C 	0.54640 0.41850 0.93270 -0.22900
H 	H 	0.58220 0.40510 0.95410 0.11400
Zn	Zn	0.98827 0.08342 0.25640 1.20900
O 	O 	0.04720 0.16890 0.23430 -0.50500
O 	O 	0.09610 0.12350 0.33720 -0.33500
O 	O 	0.40190 0.84940 0.32400 -0.35700
O 	O 	0.42470 0.84400 0.19880 -0.44600
O 	O 	0.21190 0.52570 0.13980 -0.23600
N 	N 	0.23200 0.47660 0.26200 -0.28100
H 	H 	0.25180 0.48600 0.30430 0.14400
N 	N 	0.99210 0.49830 0.66060 -0.28900
N 	N 	0.99240 0.99210 0.34600 -0.28400
C 	C 	0.35390 0.74570 0.24220 -0.08000
C 	C 	0.32570 0.70900 0.30460 -0.00300
H 	H 	0.33190 0.73040 0.35560 0.04200
C 	C 	0.28800 0.64010 0.29290 -0.05200
H 	H 	0.26870 0.61610 0.33610 0.04800
C 	C 	0.27890 0.60770 0.22050 -0.02500
C 	C 	0.30480 0.64580 0.15650 -0.05600
H 	H 	0.29690 0.62580 0.10550 0.06100
C 	C 	0.34280 0.71420 0.16770 0.00600
H 	H 	0.36110 0.73920 0.12400 0.04400
C 	C 	0.19560 0.40190 0.26120 0.28200
C 	C 	0.20330 0.34450 0.32260 -0.29100
H 	H 	0.23170 0.35450 0.36040 0.13400
C 	C 	0.16770 0.26990 0.32810 0.18300
H 	H 	0.17390 0.23010 0.36910 -0.02300
C 	C 	0.12530 0.25460 0.27580 -0.23400
C 	C 	0.11460 0.31630 0.22090 0.18600
H 	H 	0.08360 0.30970 0.18650 -0.01900
C 	C 	0.15010 0.39100 0.21490 -0.30600
H 	H 	0.14140 0.43390 0.17750 0.15300
C 	C 	0.39620 0.81960 0.25910 0.34400
C 	C 	0.08740 0.17360 0.27880 0.41900
C 	C 	0.23760 0.53150 0.20460 0.23000
C 	C 	0.95380 0.98640 0.40100 0.14400
H 	H 	0.92430 0.02770 0.40240 -0.02500
C 	C 	0.95490 0.92020 0.45840 -0.23600
H 	H 	0.92670 0.91880 0.49760 0.12600
C 	C 	0.99680 0.85780 0.45750 0.19100
C 	C 	0.03720 0.86420 0.39910 -0.22500
H 	H 	0.06690 0.82340 0.39670 0.11600
C 	C 	0.03440 0.93110 0.34320 0.12300
H 	H 	0.06190 0.93390 0.30320 -0.02900
C 	C 	0.99820 0.78410 0.51770 -0.19800
H 	H 	0.96450 0.78790 0.55140 0.09500
H 	H 	0.03190 0.79060 0.55110 0.09400
C 	C 	0.99970 0.69430 0.47780 -0.18100
H 	H 	0.96690 0.68820 0.44250 0.08900
H 	H 	0.03440 0.68870 0.44640 0.09000
C 	C 	0.99800 0.62260 0.54090 0.17600
C 	C 	0.94580 0.59650 0.57220 -0.21600
H 	H 	0.91180 0.62060 0.55310 0.10900
C 	C 	0.94430 0.53460 0.63190 0.12400
H 	H 	0.90900 0.51780 0.65280 -0.02200
C 	C 	0.04080 0.51980 0.62620 0.14100
H 	H 	0.07400 0.49110 0.64300 -0.03400
C 	C 	0.04640 0.58150 0.56730 -0.23000
H 	H 	0.08220 0.59490 0.54590 0.11500
Zn	Zn	0.98827 0.41658 0.75640 1.21000
O 	O 	0.04720 0.33110 0.73430 -0.50600
O 	O 	0.09610 0.37650 0.83720 -0.33500
O 	O 	0.40190 0.65060 0.82400 -0.35700
O 	O 	0.42470 0.65600 0.69880 -0.44500
O 	O 	0.21190 0.97430 0.63980 -0.23700
N 	N 	0.23200 0.02340 0.76200 -0.28000
H 	H 	0.25180 0.01400 0.80430 0.14400
N 	N 	0.99210 0.00170 0.16060 -0.29000
N 	N 	0.99240 0.50790 0.84600 -0.28500
C 	C 	0.35390 0.75430 0.74220 -0.08000
C 	C 	0.32570 0.79100 0.80460 -0.00300
H 	H 	0.33190 0.76960 0.85560 0.04200
C 	C 	0.28800 0.85990 0.79290 -0.05200
H 	H 	0.26870 0.88390 0.83610 0.04800
C 	C 	0.27890 0.89230 0.72050 -0.02500
C 	C 	0.30480 0.85420 0.65650 -0.05600
H 	H 	0.29690 0.87420 0.60550 0.06100
C 	C 	0.34280 0.78580 0.66770 0.00600
H 	H 	0.36110 0.76080 0.62400 0.04400
C 	C 	0.19560 0.09810 0.76120 0.28200
C 	C 	0.20330 0.15550 0.82260 -0.29100
H 	H 	0.23170 0.14550 0.86040 0.13400
C 	C 	0.16770 0.23010 0.82810 0.18300
H 	H 	0.17390 0.26990 0.86910 -0.02300
C 	C 	0.12530 0.24540 0.77580 -0.23400
C 	C 	0.11460 0.18370 0.72090 0.18700
H 	H 	0.08360 0.19030 0.68650 -0.01900
C 	C 	0.15010 0.10900 0.71490 -0.30600
H 	H 	0.14140 0.06610 0.67750 0.15300
C 	C 	0.39620 0.68040 0.75910 0.34400
C 	C 	0.08740 0.32640 0.77880 0.42000
C 	C 	0.23760 0.96850 0.70460 0.22900
C 	C 	0.95380 0.51360 0.90100 0.13700
H 	H 	0.92430 0.47230 0.90240 -0.02200
C 	C 	0.95490 0.57980 0.95840 -0.23200
H 	H 	0.92670 0.58120 0.99760 0.12400
C 	C 	0.99680 0.64220 0.95750 0.18800
C 	C 	0.03720 0.63580 0.89910 -0.22200
H 	H 	0.06690 0.67660 0.89670 0.11500
C 	C 	0.03440 0.56890 0.84320 0.12500
H 	H 	0.06190 0.56610 0.80320 -0.02900
C 	C 	0.99820 0.71590 0.01770 -0.19700
H 	H 	0.96450 0.71210 0.05140 0.09500
H 	H 	0.03190 0.70940 0.05110 0.09400
C 	C 	0.99970 0.80570 0.97780 -0.18100
H 	H 	0.96690 0.81180 0.94250 0.08900
H 	H 	0.03440 0.81130 0.94640 0.09000
C 	C 	0.99800 0.87740 0.04090 0.17800
C 	C 	0.94580 0.90350 0.07220 -0.21800
H 	H 	0.91180 0.87940 0.05310 0.11000
C 	C 	0.94430 0.96540 0.13190 0.12800
H 	H 	0.90900 0.98220 0.15280 -0.02200
C 	C 	0.04080 0.98020 0.12620 0.13500
H 	H 	0.07400 0.00890 0.14300 -0.03000
C 	C 	0.04640 0.91850 0.06730 -0.23100
H 	H 	0.08220 0.90510 0.04590 0.11400
Zn	Zn	0.48827 0.58342 0.74360 1.21000
O 	O 	0.54720 0.66890 0.76570 -0.50600
O 	O 	0.59610 0.62350 0.66280 -0.33500
O 	O 	0.90190 0.34940 0.67600 -0.35700
O 	O 	0.92470 0.34400 0.80120 -0.44600
O 	O 	0.71190 0.02570 0.86020 -0.23700
N 	N 	0.73200 0.97660 0.73800 -0.28000
H 	H 	0.75180 0.98600 0.69570 0.14400
N 	N 	0.49210 0.99830 0.33940 -0.28900
N 	N 	0.49240 0.49210 0.65400 -0.28500
C 	C 	0.85390 0.24570 0.75780 -0.08000
C 	C 	0.82570 0.20900 0.69540 -0.00300
H 	H 	0.83190 0.23040 0.64440 0.04100
C 	C 	0.78800 0.14010 0.70710 -0.05200
H 	H 	0.76870 0.11610 0.66390 0.04800
C 	C 	0.77890 0.10770 0.77950 -0.02500
C 	C 	0.80480 0.14580 0.84350 -0.05600
H 	H 	0.79690 0.12580 0.89450 0.06100
C 	C 	0.84280 0.21420 0.83230 0.00500
H 	H 	0.86110 0.23920 0.87600 0.04400
C 	C 	0.69560 0.90190 0.73880 0.28200
C 	C 	0.70330 0.84450 0.67740 -0.29100
H 	H 	0.73170 0.85450 0.63960 0.13500
C 	C 	0.66770 0.76990 0.67190 0.18300
H 	H 	0.67390 0.73010 0.63090 -0.02300
C 	C 	0.62530 0.75460 0.72420 -0.23500
C 	C 	0.61460 0.81630 0.77910 0.18700
H 	H 	0.58360 0.80970 0.81350 -0.01900
C 	C 	0.65010 0.89100 0.78510 -0.30600
H 	H 	0.64140 0.93390 0.82250 0.15300
C 	C 	0.89620 0.31960 0.74090 0.34400
C 	C 	0.58740 0.67360 0.72120 0.42000
C 	C 	0.73760 0.03150 0.79540 0.22900
C 	C 	0.45380 0.48640 0.59900 0.13700
H 	H 	0.42430 0.52770 0.59760 -0.02100
C 	C 	0.45490 0.42020 0.54160 -0.23100
H 	H 	0.42670 0.41880 0.50240 0.12400
C 	C 	0.49680 0.35780 0.54250 0.18700
C 	C 	0.53720 0.36420 0.60090 -0.22000
H 	H 	0.56690 0.32340 0.60330 0.11500
C 	C 	0.53440 0.43110 0.65680 0.12400
H 	H 	0.56190 0.43390 0.69680 -0.02900
C 	C 	0.49820 0.28410 0.48230 -0.19900
H 	H 	0.46450 0.28790 0.44860 0.09500
H 	H 	0.53190 0.29060 0.44890 0.09500
C 	C 	0.49970 0.19430 0.52220 -0.18300
H 	H 	0.46690 0.18820 0.55750 0.08900
H 	H 	0.53440 0.18870 0.55360 0.09200
C 	C 	0.49800 0.12260 0.45910 0.17500
C 	C 	0.44580 0.09650 0.42780 -0.21600
H 	H 	0.41180 0.12060 0.44690 0.10900
C 	C 	0.44430 0.03460 0.36810 0.12400
H 	H 	0.40900 0.01780 0.34720 -0.02200
C 	C 	0.54080 0.01980 0.37380 0.14000
H 	H 	0.57400 0.99110 0.35700 -0.03300
C 	C 	0.54640 0.08150 0.43270 -0.22900
H 	H 	0.58220 0.09490 0.45410 0.11400
