data_crystal

_cell_length_a 9.62170
_cell_length_b 28.62850
_cell_length_c 10.48010
_cell_angle_alpha 90.00000
_cell_angle_beta  111.37600
_cell_angle_gamma 90.00000

_symmetry_space_group_name_	'P 1'
_symmetry_space_group_name_H-M	'P 1'

loop_
_symmetry_equiv_pos_as_xyz
  x,y,z

loop_
_atom_site_label
_atom_site_type_symbol
_atom_site_fract_x
_atom_site_fract_y
_atom_site_fract_z
_atom_site_charge
Zn	Zn	0.58331 0.53974 0.89008 1.21900
N 	N 	0.76230 0.53558 0.08360 -0.24300
N 	N 	0.39760 0.54047 0.69950 -0.23600
C 	C 	0.76740 0.56226 0.18930 0.07400
H 	H 	0.68360 0.58140 0.18030 0.00400
C 	C 	0.88750 0.56351 0.31070 -0.12300
H 	H 	0.88520 0.58310 0.38310 0.07300
C 	C 	0.01310 0.53612 0.32800 0.05500
C 	C 	0.00600 0.50792 0.21800 -0.13600
H 	H 	0.08700 0.48790 0.22450 0.09300
C 	C 	0.88150 0.50898 0.09950 0.08300
H 	H 	0.88020 0.48980 0.02510 -0.00000
C 	C 	0.14740 0.53760 0.45590 0.06200
C 	C 	0.16290 0.57040 0.55570 -0.12600
H 	H 	0.08730 0.59330 0.54260 0.07300
C 	C 	0.28680 0.57047 0.67450 0.08400
H 	H 	0.29290 0.59330 0.74220 0.00900
C 	C 	0.38430 0.50933 0.60270 0.08300
H 	H 	0.46260 0.48730 0.61810 0.00800
C 	C 	0.26410 0.50679 0.48080 -0.13400
H 	H 	0.26170 0.48390 0.41440 0.08900
O 	O 	0.80810 0.22318 0.87350 -0.25400
O 	O 	0.36040 0.11666 0.61800 -0.35900
O 	O 	0.26510 0.06332 0.71040 -0.39400
O 	O 	0.56210 0.43703 0.02320 -0.48400
O 	O 	0.61630 0.47130 0.85580 -0.46700
C 	C 	0.27610 0.10520 0.68070 0.32500
C 	C 	0.19080 0.14215 0.72050 -0.13300
C 	C 	0.21750 0.18851 0.70710 0.08300
H 	H 	0.29100 0.19730 0.67090 0.02700
C 	C 	0.13930 0.22260 0.74550 -0.16100
H 	H 	0.15880 0.25450 0.73470 0.10300
C 	C 	0.03220 0.21070 0.79980 0.15500
C 	C 	0.00140 0.16480 0.80630 -0.17500
H 	H 	0.92400 0.15590 0.83750 0.10800
C 	C 	0.07990 0.13080 0.76850 0.08600
H 	H 	0.05700 0.09890 0.77580 0.01300
C 	C 	0.84630 0.31440 0.88420 0.08000
C 	C 	0.86830 0.35580 0.83350 -0.11700
H 	H 	0.93650 0.35780 0.78710 0.08800
C 	C 	0.79390 0.39520 0.84770 0.06800
H 	H 	0.80940 0.42390 0.80900 0.02400
C 	C 	0.69700 0.39387 0.91750 -0.15000
C 	C 	0.67740 0.35212 0.97340 0.07500
H 	H 	0.61310 0.35050 0.02380 0.02900
C 	C 	0.75090 0.31245 0.95650 -0.13500
H 	H 	0.73600 0.28360 0.99460 0.09500
C 	C 	0.61860 0.43747 0.93320 0.42100
C 	C 	0.91500 0.23680 0.84100 -0.02900
N 	N 	0.95470 0.28370 0.85790 -0.15400
N 	N 	0.99250 0.25880 0.83800 -0.07900
C 	C 	0.87530 0.25860 0.87000 0.29900
Zn	Zn	0.41669 0.46026 0.10992 1.21900
N 	N 	0.23770 0.46442 0.91640 -0.24300
N 	N 	0.60240 0.45953 0.30050 -0.23600
C 	C 	0.23260 0.43774 0.81070 0.07400
H 	H 	0.31640 0.41860 0.81970 0.00400
C 	C 	0.11250 0.43649 0.68930 -0.12300
H 	H 	0.11480 0.41690 0.61690 0.07300
C 	C 	0.98690 0.46388 0.67200 0.05500
C 	C 	0.99400 0.49208 0.78200 -0.13600
H 	H 	0.91300 0.51210 0.77550 0.09300
C 	C 	0.11850 0.49102 0.90050 0.08300
H 	H 	0.11980 0.51020 0.97490 -0.00000
C 	C 	0.85260 0.46240 0.54410 0.06200
C 	C 	0.83710 0.42960 0.44430 -0.12600
H 	H 	0.91270 0.40670 0.45740 0.07300
C 	C 	0.71320 0.42953 0.32550 0.08400
H 	H 	0.70710 0.40670 0.25780 0.00900
C 	C 	0.61570 0.49067 0.39730 0.08300
H 	H 	0.53740 0.51270 0.38190 0.00800
C 	C 	0.73590 0.49321 0.51920 -0.13400
H 	H 	0.73830 0.51610 0.58560 0.08900
O 	O 	0.19190 0.77682 0.12650 -0.25400
O 	O 	0.63960 0.88334 0.38200 -0.35900
O 	O 	0.73490 0.93668 0.28960 -0.39400
O 	O 	0.43790 0.56297 0.97680 -0.48400
O 	O 	0.38370 0.52870 0.14420 -0.46700
C 	C 	0.72390 0.89480 0.31930 0.32500
C 	C 	0.80920 0.85785 0.27950 -0.13300
C 	C 	0.78250 0.81149 0.29290 0.08300
H 	H 	0.70900 0.80270 0.32910 0.02700
C 	C 	0.86070 0.77740 0.25450 -0.16100
H 	H 	0.84120 0.74550 0.26530 0.10300
C 	C 	0.96780 0.78930 0.20020 0.15500
C 	C 	0.99860 0.83520 0.19370 -0.17500
H 	H 	0.07600 0.84410 0.16250 0.10800
C 	C 	0.92010 0.86920 0.23150 0.08600
H 	H 	0.94300 0.90110 0.22420 0.01300
C 	C 	0.15370 0.68560 0.11580 0.08000
C 	C 	0.13170 0.64420 0.16650 -0.11700
H 	H 	0.06350 0.64220 0.21290 0.08800
C 	C 	0.20610 0.60480 0.15230 0.06800
H 	H 	0.19060 0.57610 0.19100 0.02400
C 	C 	0.30300 0.60613 0.08250 -0.15000
C 	C 	0.32260 0.64788 0.02660 0.07500
H 	H 	0.38690 0.64950 0.97620 0.02900
C 	C 	0.24910 0.68755 0.04350 -0.13500
H 	H 	0.26400 0.71640 0.00540 0.09500
C 	C 	0.38140 0.56253 0.06680 0.42100
C 	C 	0.08500 0.76320 0.15900 -0.02900
N 	N 	0.04530 0.71630 0.14210 -0.15400
N 	N 	0.00750 0.74120 0.16200 -0.07900
C 	C 	0.12470 0.74140 0.13000 0.29900
O 	O 	0.19190 0.72318 0.62650 -0.25400
O 	O 	0.63960 0.61666 0.88200 -0.35900
O 	O 	0.73490 0.56332 0.78960 -0.39400
O 	O 	0.43790 0.93703 0.47680 -0.48500
O 	O 	0.38370 0.97130 0.64420 -0.46700
C 	C 	0.72390 0.60520 0.81930 0.32700
C 	C 	0.80920 0.64215 0.77950 -0.13700
C 	C 	0.78250 0.68851 0.79290 0.08900
H 	H 	0.70900 0.69730 0.82910 0.02500
C 	C 	0.86070 0.72260 0.75450 -0.16800
H 	H 	0.84120 0.75450 0.76530 0.10600
C 	C 	0.96780 0.71070 0.70020 0.16500
C 	C 	0.99860 0.66480 0.69370 -0.18200
H 	H 	0.07600 0.65590 0.66250 0.11100
C 	C 	0.92010 0.63080 0.73150 0.09100
H 	H 	0.94300 0.59890 0.72420 0.01100
C 	C 	0.15370 0.81440 0.61580 0.07400
C 	C 	0.13170 0.85580 0.66650 -0.11200
H 	H 	0.06350 0.85780 0.71290 0.08700
C 	C 	0.20610 0.89520 0.65230 0.06500
H 	H 	0.19060 0.92390 0.69100 0.02500
C 	C 	0.30300 0.89387 0.58250 -0.14900
C 	C 	0.32260 0.85212 0.52660 0.07400
H 	H 	0.38690 0.85050 0.47620 0.02900
C 	C 	0.24910 0.81245 0.54350 -0.13300
H 	H 	0.26400 0.78360 0.50540 0.09400
C 	C 	0.38140 0.93747 0.56680 0.42100
C 	C 	0.08500 0.73680 0.65900 -0.05500
N 	N 	0.04530 0.78370 0.64210 -0.16100
N 	N 	0.00750 0.75880 0.66200 -0.07100
C 	C 	0.12470 0.75860 0.63000 0.32300
Zn	Zn	0.41669 0.03974 0.60992 1.21900
N 	N 	0.23770 0.03558 0.41640 -0.24300
N 	N 	0.60240 0.04047 0.80050 -0.23500
C 	C 	0.23260 0.06226 0.31070 0.07500
H 	H 	0.31640 0.08140 0.31970 0.00400
C 	C 	0.11250 0.06351 0.18930 -0.12400
H 	H 	0.11480 0.08310 0.11690 0.07400
C 	C 	0.98690 0.03612 0.17200 0.05500
C 	C 	0.99400 0.00792 0.28200 -0.13200
H 	H 	0.91300 0.98790 0.27550 0.09100
C 	C 	0.11850 0.00898 0.40050 0.07900
H 	H 	0.11980 0.98980 0.47490 0.00100
C 	C 	0.85260 0.03760 0.04410 0.06200
C 	C 	0.83710 0.07040 0.94430 -0.12700
H 	H 	0.91270 0.09330 0.95740 0.07300
C 	C 	0.71320 0.07047 0.82550 0.08400
H 	H 	0.70710 0.09330 0.75780 0.00900
C 	C 	0.61570 0.00933 0.89730 0.08000
H 	H 	0.53740 0.98730 0.88190 0.01000
C 	C 	0.73590 0.00679 0.01920 -0.13100
H 	H 	0.73830 0.98390 0.08560 0.08700
O 	O 	0.80810 0.27682 0.37350 -0.25400
O 	O 	0.36040 0.38334 0.11800 -0.35900
O 	O 	0.26510 0.43668 0.21040 -0.39400
O 	O 	0.56210 0.06297 0.52320 -0.48500
O 	O 	0.61630 0.02870 0.35580 -0.46700
C 	C 	0.27610 0.39480 0.18070 0.32700
C 	C 	0.19080 0.35785 0.22050 -0.13700
C 	C 	0.21750 0.31149 0.20710 0.08900
H 	H 	0.29100 0.30270 0.17090 0.02500
C 	C 	0.13930 0.27740 0.24550 -0.16800
H 	H 	0.15880 0.24550 0.23470 0.10600
C 	C 	0.03220 0.28930 0.29980 0.16500
C 	C 	0.00140 0.33520 0.30630 -0.18200
H 	H 	0.92400 0.34410 0.33750 0.11100
C 	C 	0.07990 0.36920 0.26850 0.09100
H 	H 	0.05700 0.40110 0.27580 0.01100
C 	C 	0.84630 0.18560 0.38420 0.07400
C 	C 	0.86830 0.14420 0.33350 -0.11200
H 	H 	0.93650 0.14220 0.28710 0.08700
C 	C 	0.79390 0.10480 0.34770 0.06500
H 	H 	0.80940 0.07610 0.30900 0.02500
C 	C 	0.69700 0.10613 0.41750 -0.14900
C 	C 	0.67740 0.14788 0.47340 0.07400
H 	H 	0.61310 0.14950 0.52380 0.02900
C 	C 	0.75090 0.18755 0.45650 -0.13300
H 	H 	0.73600 0.21640 0.49460 0.09400
C 	C 	0.61860 0.06253 0.43320 0.42100
C 	C 	0.91500 0.26320 0.34100 -0.05500
N 	N 	0.95470 0.21630 0.35790 -0.16100
N 	N 	0.99250 0.24120 0.33800 -0.07100
C 	C 	0.87530 0.24140 0.37000 0.32300
Zn	Zn	0.58331 0.96026 0.39008 1.21900
N 	N 	0.76230 0.96442 0.58360 -0.24300
N 	N 	0.39760 0.95953 0.19950 -0.23500
C 	C 	0.76740 0.93774 0.68930 0.07500
H 	H 	0.68360 0.91860 0.68030 0.00400
C 	C 	0.88750 0.93649 0.81070 -0.12400
H 	H 	0.88520 0.91690 0.88310 0.07400
C 	C 	0.01310 0.96388 0.82800 0.05500
C 	C 	0.00600 0.99208 0.71800 -0.13200
H 	H 	0.08700 0.01210 0.72450 0.09100
C 	C 	0.88150 0.99102 0.59950 0.07900
H 	H 	0.88020 0.01020 0.52510 0.00100
C 	C 	0.14740 0.96240 0.95590 0.06200
C 	C 	0.16290 0.92960 0.05570 -0.12700
H 	H 	0.08730 0.90670 0.04260 0.07300
C 	C 	0.28680 0.92953 0.17450 0.08400
H 	H 	0.29290 0.90670 0.24220 0.00900
C 	C 	0.38430 0.99067 0.10270 0.08000
H 	H 	0.46260 0.01270 0.11810 0.01000
C 	C 	0.26410 0.99321 0.98080 -0.13100
H 	H 	0.26170 0.01610 0.91440 0.08700
