data_crystal

_cell_length_a 14.90000
_cell_length_b 24.32400
_cell_length_c 16.25300
_cell_angle_alpha 90.00000
_cell_angle_beta  113.23300
_cell_angle_gamma 90.00000

_symmetry_space_group_name_	'P 1'
_symmetry_space_group_name_H-M	'P 1'

loop_
_symmetry_equiv_pos_as_xyz
  x,y,z

loop_
_atom_site_label
_atom_site_type_symbol
_atom_site_fract_x
_atom_site_fract_y
_atom_site_fract_z
_atom_site_charge
Zn	Zn	0.41865 0.01345 0.63776 1.21800
O 	O 	0.40480 0.67991 0.63140 -0.30100
O 	O 	0.47680 0.93832 0.64290 -0.43700
O 	O 	0.32990 0.93768 0.64470 -0.37500
O 	O 	0.03430 0.55834 0.64610 -0.49100
O 	O 	0.13750 0.55509 0.79040 -0.50600
N 	N 	0.33200 0.02875 0.50670 -0.25900
N 	N 	0.08870 0.00793 0.18840 -0.11100
C 	C 	0.40360 0.85070 0.64310 -0.16000
C 	C 	0.47700 0.82236 0.62860 0.11600
H 	H 	0.52850 0.84230 0.62180 0.00600
C 	C 	0.47620 0.76564 0.62410 -0.22800
H 	H 	0.52590 0.74650 0.61290 0.11800
C 	C 	0.40120 0.73683 0.63630 0.26200
C 	C 	0.32700 0.76447 0.65110 -0.23700
H 	H 	0.27600 0.74460 0.65880 0.11700
C 	C 	0.32880 0.82176 0.65440 0.11200
H 	H 	0.27870 0.84110 0.66450 0.00500
C 	C 	0.40220 0.91173 0.64420 0.31900
C 	C 	0.33400 0.65159 0.65100 0.28600
C 	C 	0.35270 0.63714 0.73910 -0.27500
H 	H 	0.41310 0.64640 0.78610 0.14200
C 	C 	0.28200 0.60922 0.75680 0.16500
H 	H 	0.29460 0.59810 0.81640 -0.00800
C 	C 	0.19180 0.59701 0.68840 -0.21500
C 	C 	0.17520 0.61039 0.60050 0.16000
H 	H 	0.11510 0.60080 0.55330 -0.01000
C 	C 	0.24660 0.63780 0.58180 -0.27000
H 	H 	0.23570 0.64710 0.52180 0.13600
C 	C 	0.11530 0.56779 0.71020 0.44800
C 	C 	0.36900 0.04884 0.44980 0.09500
H 	H 	0.43470 0.06140 0.47410 -0.00100
C 	C 	0.31850 0.05240 0.35950 -0.16600
H 	H 	0.34850 0.06690 0.32230 0.10500
C 	C 	0.22210 0.03434 0.32300 0.11400
C 	C 	0.18120 0.01413 0.37980 -0.15000
H 	H 	0.11540 0.00170 0.35660 0.09900
C 	C 	0.23710 0.01222 0.47070 0.08200
H 	H 	0.20820 0.99890 0.50950 0.00300
C 	C 	0.16980 0.03223 0.22390 -0.03600
H 	H 	0.19770 0.04940 0.18700 0.06400
C 	C 	0.04490 0.00599 0.09320 0.08100
C 	C 	0.00020 0.95569 0.05410 -0.07200
H 	H 	0.00020 0.92560 0.09140 0.06700
C 	C 	0.04340 0.04976 0.03820 -0.06900
H 	H 	0.07250 0.08370 0.06390 0.06300
Zn	Zn	0.91865 0.51345 0.63776 1.21700
O 	O 	0.90480 0.17991 0.63140 -0.30200
O 	O 	0.97680 0.43832 0.64290 -0.43800
O 	O 	0.82990 0.43768 0.64470 -0.37600
O 	O 	0.53430 0.05834 0.64610 -0.49200
O 	O 	0.63750 0.05509 0.79040 -0.50700
N 	N 	0.83200 0.52875 0.50670 -0.25900
N 	N 	0.58870 0.50793 0.18840 -0.11100
C 	C 	0.90360 0.35070 0.64310 -0.16000
C 	C 	0.97700 0.32236 0.62860 0.11600
H 	H 	0.02850 0.34230 0.62180 0.00600
C 	C 	0.97620 0.26564 0.62410 -0.22800
H 	H 	0.02590 0.24650 0.61290 0.11800
C 	C 	0.90120 0.23683 0.63630 0.26200
C 	C 	0.82700 0.26447 0.65110 -0.23700
H 	H 	0.77600 0.24460 0.65880 0.11700
C 	C 	0.82880 0.32176 0.65440 0.11200
H 	H 	0.77870 0.34110 0.66450 0.00500
C 	C 	0.90220 0.41173 0.64420 0.31900
C 	C 	0.83400 0.15159 0.65100 0.28600
C 	C 	0.85270 0.13714 0.73910 -0.27500
H 	H 	0.91310 0.14640 0.78610 0.14200
C 	C 	0.78200 0.10922 0.75680 0.16500
H 	H 	0.79460 0.09810 0.81640 -0.00900
C 	C 	0.69180 0.09701 0.68840 -0.21500
C 	C 	0.67520 0.11039 0.60050 0.16100
H 	H 	0.61510 0.10080 0.55330 -0.01000
C 	C 	0.74660 0.13780 0.58180 -0.27000
H 	H 	0.73570 0.14710 0.52180 0.13600
C 	C 	0.61530 0.06779 0.71020 0.44800
C 	C 	0.86900 0.54884 0.44980 0.09500
H 	H 	0.93470 0.56140 0.47410 -0.00100
C 	C 	0.81850 0.55240 0.35950 -0.16700
H 	H 	0.84850 0.56690 0.32230 0.10500
C 	C 	0.72210 0.53434 0.32300 0.11400
C 	C 	0.68120 0.51413 0.37980 -0.15000
H 	H 	0.61540 0.50170 0.35660 0.09800
C 	C 	0.73710 0.51222 0.47070 0.08300
H 	H 	0.70820 0.49890 0.50950 0.00200
C 	C 	0.66980 0.53223 0.22390 -0.03600
H 	H 	0.69770 0.54940 0.18700 0.06400
C 	C 	0.54490 0.50599 0.09320 0.07900
C 	C 	0.50020 0.45569 0.05410 -0.06900
H 	H 	0.50020 0.42560 0.09140 0.06600
C 	C 	0.54340 0.54976 0.03820 -0.07100
H 	H 	0.57250 0.58370 0.06390 0.06400
Zn	Zn	0.58135 0.01345 0.86224 1.21700
O 	O 	0.59520 0.67991 0.86860 -0.30200
O 	O 	0.52320 0.93832 0.85710 -0.43800
O 	O 	0.67010 0.93768 0.85530 -0.37600
O 	O 	0.96570 0.55834 0.85390 -0.49200
O 	O 	0.86250 0.55509 0.70960 -0.50700
N 	N 	0.66800 0.02875 0.99330 -0.26100
N 	N 	0.91130 0.00793 0.31160 -0.11000
C 	C 	0.59640 0.85070 0.85690 -0.16000
C 	C 	0.52300 0.82236 0.87140 0.11600
H 	H 	0.47150 0.84230 0.87820 0.00700
C 	C 	0.52380 0.76564 0.87590 -0.22800
H 	H 	0.47410 0.74650 0.88710 0.11800
C 	C 	0.59880 0.73683 0.86370 0.26200
C 	C 	0.67300 0.76447 0.84890 -0.23700
H 	H 	0.72400 0.74460 0.84120 0.11700
C 	C 	0.67120 0.82176 0.84560 0.11300
H 	H 	0.72130 0.84110 0.83550 0.00500
C 	C 	0.59780 0.91173 0.85580 0.31900
C 	C 	0.66600 0.65159 0.84900 0.28600
C 	C 	0.64730 0.63714 0.76090 -0.27500
H 	H 	0.58690 0.64640 0.71390 0.14200
C 	C 	0.71800 0.60922 0.74320 0.16500
H 	H 	0.70540 0.59810 0.68360 -0.00800
C 	C 	0.80820 0.59701 0.81160 -0.21500
C 	C 	0.82480 0.61039 0.89950 0.16100
H 	H 	0.88490 0.60080 0.94670 -0.01000
C 	C 	0.75340 0.63780 0.91820 -0.27000
H 	H 	0.76430 0.64710 0.97820 0.13600
C 	C 	0.88470 0.56779 0.78980 0.44800
C 	C 	0.63100 0.04884 0.05020 0.09700
H 	H 	0.56530 0.06140 0.02590 -0.00100
C 	C 	0.68150 0.05240 0.14050 -0.16800
H 	H 	0.65150 0.06690 0.17770 0.10500
C 	C 	0.77790 0.03434 0.17700 0.11500
C 	C 	0.81880 0.01413 0.12020 -0.15200
H 	H 	0.88460 0.00170 0.14340 0.09900
C 	C 	0.76290 0.01222 0.02930 0.08500
H 	H 	0.79180 0.99890 0.99050 0.00200
C 	C 	0.83020 0.03223 0.27610 -0.03600
H 	H 	0.80230 0.04940 0.31300 0.06400
C 	C 	0.95510 0.00599 0.40680 0.08000
C 	C 	0.99980 0.95569 0.44590 -0.07000
H 	H 	0.99980 0.92560 0.40860 0.06600
C 	C 	0.95660 0.04976 0.46180 -0.07100
H 	H 	0.92750 0.08370 0.43610 0.06400
Zn	Zn	0.08135 0.51345 0.86224 1.21700
O 	O 	0.09520 0.17991 0.86860 -0.30200
O 	O 	0.02320 0.43832 0.85710 -0.43800
O 	O 	0.17010 0.43768 0.85530 -0.37600
O 	O 	0.46570 0.05834 0.85390 -0.49200
O 	O 	0.36250 0.05509 0.70960 -0.50700
N 	N 	0.16800 0.52875 0.99330 -0.25900
N 	N 	0.41130 0.50793 0.31160 -0.11100
C 	C 	0.09640 0.35070 0.85690 -0.16000
C 	C 	0.02300 0.32236 0.87140 0.11600
H 	H 	0.97150 0.34230 0.87820 0.00700
C 	C 	0.02380 0.26564 0.87590 -0.22900
H 	H 	0.97410 0.24650 0.88710 0.11900
C 	C 	0.09880 0.23683 0.86370 0.26200
C 	C 	0.17300 0.26447 0.84890 -0.23700
H 	H 	0.22400 0.24460 0.84120 0.11700
C 	C 	0.17120 0.32176 0.84560 0.11200
H 	H 	0.22130 0.34110 0.83550 0.00500
C 	C 	0.09780 0.41173 0.85580 0.31900
C 	C 	0.16600 0.15159 0.84900 0.28600
C 	C 	0.14730 0.13714 0.76090 -0.27500
H 	H 	0.08690 0.14640 0.71390 0.14200
C 	C 	0.21800 0.10922 0.74320 0.16500
H 	H 	0.20540 0.09810 0.68360 -0.00800
C 	C 	0.30820 0.09701 0.81160 -0.21500
C 	C 	0.32480 0.11039 0.89950 0.16000
H 	H 	0.38490 0.10080 0.94670 -0.01000
C 	C 	0.25340 0.13780 0.91820 -0.27000
H 	H 	0.26430 0.14710 0.97820 0.13600
C 	C 	0.38470 0.06779 0.78980 0.44800
C 	C 	0.13100 0.54884 0.05020 0.09500
H 	H 	0.06530 0.56140 0.02590 -0.00100
C 	C 	0.18150 0.55240 0.14050 -0.16700
H 	H 	0.15150 0.56690 0.17770 0.10500
C 	C 	0.27790 0.53434 0.17700 0.11400
C 	C 	0.31880 0.51413 0.12020 -0.15100
H 	H 	0.38460 0.50170 0.14340 0.09900
C 	C 	0.26290 0.51222 0.02930 0.08300
H 	H 	0.29180 0.49890 0.99050 0.00200
C 	C 	0.33020 0.53223 0.27610 -0.03600
H 	H 	0.30230 0.54940 0.31300 0.06400
C 	C 	0.45510 0.50599 0.40680 0.07900
C 	C 	0.49980 0.45569 0.44590 -0.06900
H 	H 	0.49980 0.42560 0.40860 0.06600
C 	C 	0.45660 0.54976 0.46180 -0.07100
H 	H 	0.42750 0.58370 0.43610 0.06400
Zn	Zn	0.58135 0.98655 0.36224 1.21700
O 	O 	0.59520 0.32009 0.36860 -0.30200
O 	O 	0.52320 0.06168 0.35710 -0.43800
O 	O 	0.67010 0.06232 0.35530 -0.37600
O 	O 	0.96570 0.44166 0.35390 -0.49200
O 	O 	0.86250 0.44491 0.20960 -0.50700
N 	N 	0.66800 0.97125 0.49330 -0.25900
N 	N 	0.91130 0.99207 0.81160 -0.11100
C 	C 	0.59640 0.14930 0.35690 -0.16000
C 	C 	0.52300 0.17764 0.37140 0.11600
H 	H 	0.47150 0.15770 0.37820 0.00600
C 	C 	0.52380 0.23436 0.37590 -0.22800
H 	H 	0.47410 0.25350 0.38710 0.11800
C 	C 	0.59880 0.26317 0.36370 0.26200
C 	C 	0.67300 0.23553 0.34890 -0.23700
H 	H 	0.72400 0.25540 0.34120 0.11700
C 	C 	0.67120 0.17824 0.34560 0.11200
H 	H 	0.72130 0.15890 0.33550 0.00500
C 	C 	0.59780 0.08827 0.35580 0.31900
C 	C 	0.66600 0.34841 0.34900 0.28600
C 	C 	0.64730 0.36286 0.26090 -0.27500
H 	H 	0.58690 0.35360 0.21390 0.14200
C 	C 	0.71800 0.39078 0.24320 0.16500
H 	H 	0.70540 0.40190 0.18360 -0.00800
C 	C 	0.80820 0.40299 0.31160 -0.21500
C 	C 	0.82480 0.38961 0.39950 0.16000
H 	H 	0.88490 0.39920 0.44670 -0.01000
C 	C 	0.75340 0.36220 0.41820 -0.27000
H 	H 	0.76430 0.35290 0.47820 0.13600
C 	C 	0.88470 0.43221 0.28980 0.44800
C 	C 	0.63100 0.95116 0.55020 0.09500
H 	H 	0.56530 0.93860 0.52590 -0.00100
C 	C 	0.68150 0.94760 0.64050 -0.16600
H 	H 	0.65150 0.93310 0.67770 0.10500
C 	C 	0.77790 0.96566 0.67700 0.11400
C 	C 	0.81880 0.98587 0.62020 -0.15000
H 	H 	0.88460 0.99830 0.64340 0.09900
C 	C 	0.76290 0.98778 0.52930 0.08200
H 	H 	0.79180 0.00110 0.49050 0.00300
C 	C 	0.83020 0.96777 0.77610 -0.03600
H 	H 	0.80230 0.95060 0.81300 0.06400
C 	C 	0.95510 0.99401 0.90680 0.08100
C 	C 	0.99980 0.04431 0.94590 -0.07200
H 	H 	0.99980 0.07440 0.90860 0.06700
C 	C 	0.95660 0.95024 0.96180 -0.06900
H 	H 	0.92750 0.91630 0.93610 0.06300
Zn	Zn	0.08135 0.48655 0.36224 1.21700
O 	O 	0.09520 0.82009 0.36860 -0.30200
O 	O 	0.02320 0.56168 0.35710 -0.43800
O 	O 	0.17010 0.56232 0.35530 -0.37600
O 	O 	0.46570 0.94166 0.35390 -0.49200
O 	O 	0.36250 0.94491 0.20960 -0.50700
N 	N 	0.16800 0.47125 0.49330 -0.25900
N 	N 	0.41130 0.49207 0.81160 -0.11100
C 	C 	0.09640 0.64930 0.35690 -0.16000
C 	C 	0.02300 0.67764 0.37140 0.11600
H 	H 	0.97150 0.65770 0.37820 0.00600
C 	C 	0.02380 0.73436 0.37590 -0.22800
H 	H 	0.97410 0.75350 0.38710 0.11800
C 	C 	0.09880 0.76317 0.36370 0.26200
C 	C 	0.17300 0.73553 0.34890 -0.23700
H 	H 	0.22400 0.75540 0.34120 0.11700
C 	C 	0.17120 0.67824 0.34560 0.11200
H 	H 	0.22130 0.65890 0.33550 0.00500
C 	C 	0.09780 0.58827 0.35580 0.31900
C 	C 	0.16600 0.84841 0.34900 0.28600
C 	C 	0.14730 0.86286 0.26090 -0.27500
H 	H 	0.08690 0.85360 0.21390 0.14200
C 	C 	0.21800 0.89078 0.24320 0.16500
H 	H 	0.20540 0.90190 0.18360 -0.00900
C 	C 	0.30820 0.90299 0.31160 -0.21500
C 	C 	0.32480 0.88961 0.39950 0.16100
H 	H 	0.38490 0.89920 0.44670 -0.01000
C 	C 	0.25340 0.86220 0.41820 -0.27000
H 	H 	0.26430 0.85290 0.47820 0.13600
C 	C 	0.38470 0.93221 0.28980 0.44800
C 	C 	0.13100 0.45116 0.55020 0.09500
H 	H 	0.06530 0.43860 0.52590 -0.00100
C 	C 	0.18150 0.44760 0.64050 -0.16700
H 	H 	0.15150 0.43310 0.67770 0.10500
C 	C 	0.27790 0.46566 0.67700 0.11400
C 	C 	0.31880 0.48587 0.62020 -0.15000
H 	H 	0.38460 0.49830 0.64340 0.09800
C 	C 	0.26290 0.48778 0.52930 0.08300
H 	H 	0.29180 0.50110 0.49050 0.00200
C 	C 	0.33020 0.46777 0.77610 -0.03600
H 	H 	0.30230 0.45060 0.81300 0.06400
C 	C 	0.45510 0.49401 0.90680 0.07900
C 	C 	0.49980 0.54431 0.94590 -0.06900
H 	H 	0.49980 0.57440 0.90860 0.06600
C 	C 	0.45660 0.45024 0.96180 -0.07100
H 	H 	0.42750 0.41630 0.93610 0.06400
Zn	Zn	0.41865 0.98655 0.13776 1.21700
O 	O 	0.40480 0.32009 0.13140 -0.30200
O 	O 	0.47680 0.06168 0.14290 -0.43800
O 	O 	0.32990 0.06232 0.14470 -0.37600
O 	O 	0.03430 0.44166 0.14610 -0.49200
O 	O 	0.13750 0.44491 0.29040 -0.50700
N 	N 	0.33200 0.97125 0.00670 -0.26100
N 	N 	0.08870 0.99207 0.68840 -0.11000
C 	C 	0.40360 0.14930 0.14310 -0.16000
C 	C 	0.47700 0.17764 0.12860 0.11600
H 	H 	0.52850 0.15770 0.12180 0.00700
C 	C 	0.47620 0.23436 0.12410 -0.22800
H 	H 	0.52590 0.25350 0.11290 0.11800
C 	C 	0.40120 0.26317 0.13630 0.26200
C 	C 	0.32700 0.23553 0.15110 -0.23700
H 	H 	0.27600 0.25540 0.15880 0.11700
C 	C 	0.32880 0.17824 0.15440 0.11300
H 	H 	0.27870 0.15890 0.16450 0.00500
C 	C 	0.40220 0.08827 0.14420 0.31900
C 	C 	0.33400 0.34841 0.15100 0.28600
C 	C 	0.35270 0.36286 0.23910 -0.27500
H 	H 	0.41310 0.35360 0.28610 0.14200
C 	C 	0.28200 0.39078 0.25680 0.16500
H 	H 	0.29460 0.40190 0.31640 -0.00800
C 	C 	0.19180 0.40299 0.18840 -0.21500
C 	C 	0.17520 0.38961 0.10050 0.16100
H 	H 	0.11510 0.39920 0.05330 -0.01000
C 	C 	0.24660 0.36220 0.08180 -0.27000
H 	H 	0.23570 0.35290 0.02180 0.13600
C 	C 	0.11530 0.43221 0.21020 0.44800
C 	C 	0.36900 0.95116 0.94980 0.09700
H 	H 	0.43470 0.93860 0.97410 -0.00100
C 	C 	0.31850 0.94760 0.85950 -0.16800
H 	H 	0.34850 0.93310 0.82230 0.10500
C 	C 	0.22210 0.96566 0.82300 0.11500
C 	C 	0.18120 0.98587 0.87980 -0.15200
H 	H 	0.11540 0.99830 0.85660 0.09900
C 	C 	0.23710 0.98778 0.97070 0.08500
H 	H 	0.20820 0.00110 0.00950 0.00200
C 	C 	0.16980 0.96777 0.72390 -0.03600
H 	H 	0.19770 0.95060 0.68700 0.06400
C 	C 	0.04490 0.99401 0.59320 0.08000
C 	C 	0.00020 0.04431 0.55410 -0.07000
H 	H 	0.00020 0.07440 0.59140 0.06600
C 	C 	0.04340 0.95024 0.53820 -0.07100
H 	H 	0.07250 0.91630 0.56390 0.06400
Zn	Zn	0.91865 0.48655 0.13776 1.21700
O 	O 	0.90480 0.82009 0.13140 -0.30200
O 	O 	0.97680 0.56168 0.14290 -0.43800
O 	O 	0.82990 0.56232 0.14470 -0.37600
O 	O 	0.53430 0.94166 0.14610 -0.49200
O 	O 	0.63750 0.94491 0.29040 -0.50700
N 	N 	0.83200 0.47125 0.00670 -0.25900
N 	N 	0.58870 0.49207 0.68840 -0.11100
C 	C 	0.90360 0.64930 0.14310 -0.16000
C 	C 	0.97700 0.67764 0.12860 0.11600
H 	H 	0.02850 0.65770 0.12180 0.00700
C 	C 	0.97620 0.73436 0.12410 -0.22900
H 	H 	0.02590 0.75350 0.11290 0.11900
C 	C 	0.90120 0.76317 0.13630 0.26200
C 	C 	0.82700 0.73553 0.15110 -0.23700
H 	H 	0.77600 0.75540 0.15880 0.11700
C 	C 	0.82880 0.67824 0.15440 0.11200
H 	H 	0.77870 0.65890 0.16450 0.00500
C 	C 	0.90220 0.58827 0.14420 0.31900
C 	C 	0.83400 0.84841 0.15100 0.28600
C 	C 	0.85270 0.86286 0.23910 -0.27500
H 	H 	0.91310 0.85360 0.28610 0.14200
C 	C 	0.78200 0.89078 0.25680 0.16500
H 	H 	0.79460 0.90190 0.31640 -0.00800
C 	C 	0.69180 0.90299 0.18840 -0.21500
C 	C 	0.67520 0.88961 0.10050 0.16000
H 	H 	0.61510 0.89920 0.05330 -0.01000
C 	C 	0.74660 0.86220 0.08180 -0.27000
H 	H 	0.73570 0.85290 0.02180 0.13600
C 	C 	0.61530 0.93221 0.21020 0.44800
C 	C 	0.86900 0.45116 0.94980 0.09500
H 	H 	0.93470 0.43860 0.97410 -0.00100
C 	C 	0.81850 0.44760 0.85950 -0.16700
H 	H 	0.84850 0.43310 0.82230 0.10500
C 	C 	0.72210 0.46566 0.82300 0.11400
C 	C 	0.68120 0.48587 0.87980 -0.15100
H 	H 	0.61540 0.49830 0.85660 0.09900
C 	C 	0.73710 0.48778 0.97070 0.08300
H 	H 	0.70820 0.50110 0.00950 0.00200
C 	C 	0.66980 0.46777 0.72390 -0.03600
H 	H 	0.69770 0.45060 0.68700 0.06400
C 	C 	0.54490 0.49401 0.59320 0.07900
C 	C 	0.50020 0.54431 0.55410 -0.06900
H 	H 	0.50020 0.57440 0.59140 0.06600
C 	C 	0.54340 0.45024 0.53820 -0.07100
H 	H 	0.57250 0.41630 0.56390 0.06400
