data_crystal

_cell_length_a 12.39890
_cell_length_b 33.41800
_cell_length_c 12.94450
_cell_angle_alpha 90.00000
_cell_angle_beta  98.31200
_cell_angle_gamma 90.00000

_symmetry_space_group_name_	'P 1'
_symmetry_space_group_name_H-M	'P 1'

loop_
_symmetry_equiv_pos_as_xyz
  x,y,z

loop_
_atom_site_label
_atom_site_type_symbol
_atom_site_fract_x
_atom_site_fract_y
_atom_site_fract_z
_atom_site_charge
Mn	Mn	0.29943 0.43072 0.89393 1.29000
N 	N 	0.11330 0.36790 0.80450 -0.13000
O 	O 	0.30510 0.42384 0.05560 -0.50900
O 	O 	0.44510 0.37835 0.91300 -0.36400
O 	O 	0.47320 0.44327 0.90710 -0.53500
O 	O 	0.22990 0.48671 0.85100 -0.47800
O 	O 	0.36950 0.52716 0.90310 -0.45900
N 	N 	0.29970 0.41176 0.72450 -0.22600
O 	O 	0.39700 0.47876 0.10830 -0.47800
N 	N 	0.23920 0.37956 0.68480 -0.13300
N 	N 	0.13760 0.40029 0.86920 -0.21600
N 	N 	0.93070 0.71468 0.68110 -0.13900
C 	C 	0.30060 0.42115 0.44160 0.17800
N 	N 	0.86870 0.70622 0.75850 -0.26300
C 	C 	0.04350 0.41210 0.89810 0.18600
C 	C 	0.84210 0.39061 0.86420 0.14700
C 	C 	0.32840 0.43085 0.64230 0.27000
C 	C 	0.34600 0.44780 0.12340 0.42900
C 	C 	0.95820 0.38658 0.85170 -0.18800
C 	C 	0.33110 0.43887 0.23500 -0.19200
C 	C 	0.27300 0.52066 0.86470 0.41200
C 	C 	0.62540 0.40069 0.89410 -0.14900
C 	C 	0.68480 0.43276 0.86550 0.07900
H 	H 	0.65160 0.45840 0.85580 0.01400
C 	C 	0.50880 0.40727 0.90710 0.35700
C 	C 	0.20080 0.35151 0.75680 -0.00600
H 	H 	0.17570 0.32670 0.71880 0.01800
H 	H 	0.26190 0.34440 0.81170 0.02000
C 	C 	0.01440 0.68759 0.68090 0.23700
C 	C 	0.09100 0.55224 0.79780 0.09400
H 	H 	0.05960 0.52630 0.79110 -0.00300
C 	C 	0.79150 0.42787 0.85100 -0.17000
H 	H 	0.83150 0.45020 0.83160 0.08500
C 	C 	0.20180 0.55669 0.83230 -0.17300
C 	C 	0.28530 0.41089 0.54950 -0.25000
C 	C 	0.00620 0.35888 0.79360 0.21100
C 	C 	0.00250 0.66044 0.75720 -0.24300
C 	C 	0.02650 0.58579 0.77330 -0.21200
H 	H 	0.95060 0.58260 0.75040 0.09600
C 	C 	0.07120 0.62405 0.78160 0.17300
C 	C 	0.04030 0.44690 0.97140 -0.38900
H 	H 	0.02650 0.47160 0.93100 0.13700
H 	H 	0.11040 0.44900 0.01710 0.10200
H 	H 	0.98190 0.44270 0.01390 0.11900
C 	C 	0.91310 0.67214 0.80560 0.23800
C 	C 	0.67260 0.36292 0.90760 0.08100
H 	H 	0.63120 0.34070 0.92500 0.00600
C 	C 	0.78230 0.35824 0.89500 -0.17100
H 	H 	0.81640 0.33290 0.90730 0.08000
C 	C 	0.22820 0.37856 0.57970 0.25400
C 	C 	0.33060 0.39924 0.26890 0.10700
H 	H 	0.33920 0.37820 0.22150 -0.02900
C 	C 	0.31570 0.46918 0.30450 0.10700
H 	H 	0.31610 0.49630 0.28230 -0.00800
C 	C 	0.24790 0.59433 0.84040 0.09800
H 	H 	0.32390 0.59730 0.86260 0.01100
C 	C 	0.31790 0.39032 0.37020 -0.21000
H 	H 	0.32080 0.36320 0.39260 0.07300
C 	C 	0.87440 0.65439 0.89870 -0.61800
H 	H 	0.80980 0.66890 0.91380 0.15200
H 	H 	0.93210 0.65630 0.95880 0.20400
H 	H 	0.85580 0.62620 0.88510 0.20900
C 	C 	0.29980 0.46043 0.40640 -0.21100
H 	H 	0.28810 0.48160 0.45250 0.09100
C 	C 	0.18230 0.62824 0.81590 -0.19400
H 	H 	0.21400 0.65420 0.82270 0.08800
C 	C 	0.39700 0.46797 0.65570 -0.64800
H 	H 	0.43260 0.46990 0.72820 0.20800
H 	H 	0.35060 0.49150 0.63860 0.20800
H 	H 	0.45250 0.46680 0.60910 0.21100
C 	C 	0.09420 0.69115 0.60610 -0.57900
H 	H 	0.14540 0.71290 0.62830 0.17200
H 	H 	0.05550 0.69690 0.53630 0.16900
H 	H 	0.13440 0.66600 0.60460 0.18100
C 	C 	0.95680 0.32536 0.72660 -0.53800
H 	H 	0.98590 0.29980 0.75570 0.16100
H 	H 	0.97450 0.32850 0.65570 0.16200
H 	H 	0.87750 0.32570 0.72460 0.16900
C 	C 	0.15950 0.34800 0.51680 -0.59800
H 	H 	0.08600 0.34820 0.53630 0.18400
H 	H 	0.19200 0.32150 0.53050 0.18100
H 	H 	0.15540 0.35430 0.44240 0.19600
Mn	Mn	0.70057 0.93072 0.10607 1.27800
N 	N 	0.88670 0.86790 0.19550 -0.14000
O 	O 	0.69490 0.92384 0.94440 -0.48100
O 	O 	0.55490 0.87835 0.08700 -0.38300
O 	O 	0.52680 0.94327 0.09290 -0.55100
O 	O 	0.77010 0.98671 0.14900 -0.47700
O 	O 	0.63050 0.02716 0.09690 -0.48000
N 	N 	0.70030 0.91176 0.27550 -0.22600
O 	O 	0.60300 0.97876 0.89170 -0.45200
N 	N 	0.76080 0.87956 0.31520 -0.13400
N 	N 	0.86240 0.90029 0.13080 -0.25100
N 	N 	0.06930 0.21468 0.31890 -0.14200
C 	C 	0.69940 0.92115 0.55840 0.17700
N 	N 	0.13130 0.20622 0.24150 -0.26100
C 	C 	0.95650 0.91210 0.10190 0.31600
C 	C 	0.15790 0.89061 0.13580 0.17800
C 	C 	0.67160 0.93085 0.35770 0.27400
C 	C 	0.65400 0.94780 0.87660 0.42000
C 	C 	0.04180 0.88658 0.14830 -0.27700
C 	C 	0.66890 0.93887 0.76500 -0.18500
C 	C 	0.72700 0.02066 0.13530 0.39300
C 	C 	0.37460 0.90069 0.10590 -0.17200
C 	C 	0.31520 0.93276 0.13450 0.09300
H 	H 	0.34840 0.95840 0.14420 0.00800
C 	C 	0.49120 0.90727 0.09290 0.35800
C 	C 	0.79920 0.85151 0.24320 -0.00000
H 	H 	0.82430 0.82670 0.28120 0.01300
H 	H 	0.73810 0.84440 0.18830 0.01000
C 	C 	0.98560 0.18759 0.31910 0.23400
C 	C 	0.90900 0.05224 0.20220 0.08600
H 	H 	0.94040 0.02630 0.20890 -0.00700
C 	C 	0.20850 0.92787 0.14900 -0.20500
H 	H 	0.16850 0.95020 0.16840 0.09400
C 	C 	0.79820 0.05669 0.16770 -0.17300
C 	C 	0.71470 0.91089 0.45050 -0.25000
C 	C 	0.99380 0.85888 0.20640 0.24700
C 	C 	0.99750 0.16044 0.24280 -0.22700
C 	C 	0.97350 0.08579 0.22670 -0.19000
H 	H 	0.04940 0.08260 0.24960 0.08500
C 	C 	0.92880 0.12405 0.21840 0.15700
C 	C 	0.95970 0.94690 0.02860 -0.88900
H 	H 	0.97350 0.97160 0.06900 0.27500
H 	H 	0.88960 0.94900 0.98290 0.28800
H 	H 	0.01810 0.94270 0.98610 0.30400
C 	C 	0.08690 0.17214 0.19440 0.20900
C 	C 	0.32740 0.86292 0.09240 0.09200
H 	H 	0.36880 0.84070 0.07500 -0.01100
C 	C 	0.21770 0.85824 0.10500 -0.20500
H 	H 	0.18360 0.83290 0.09270 0.07600
C 	C 	0.77180 0.87856 0.42030 0.25600
C 	C 	0.66940 0.89924 0.73110 0.10200
H 	H 	0.66080 0.87820 0.77850 -0.02300
C 	C 	0.68430 0.96918 0.69550 0.10400
H 	H 	0.68390 0.99630 0.71770 -0.00200
C 	C 	0.75210 0.09433 0.15960 0.08700
H 	H 	0.67610 0.09730 0.13740 0.00100
C 	C 	0.68210 0.89032 0.62980 -0.20600
H 	H 	0.67920 0.86320 0.60740 0.07300
C 	C 	0.12560 0.15439 0.10130 -0.56600
H 	H 	0.19020 0.16890 0.08620 0.12400
H 	H 	0.06790 0.15630 0.04120 0.16800
H 	H 	0.14420 0.12620 0.11490 0.18800
C 	C 	0.70020 0.96043 0.59360 -0.20700
H 	H 	0.71190 0.98160 0.54750 0.09300
C 	C 	0.81770 0.12824 0.18410 -0.19000
H 	H 	0.78600 0.15420 0.17730 0.07600
C 	C 	0.60300 0.96797 0.34430 -0.65800
H 	H 	0.56740 0.96990 0.27180 0.21400
H 	H 	0.64940 0.99150 0.36140 0.21500
H 	H 	0.54750 0.96680 0.39090 0.21700
C 	C 	0.90580 0.19115 0.39390 -0.57500
H 	H 	0.85460 0.21290 0.37170 0.17000
H 	H 	0.94450 0.19690 0.46370 0.17000
H 	H 	0.86560 0.16600 0.39540 0.17900
C 	C 	0.04320 0.82536 0.27340 -0.57500
H 	H 	0.01410 0.79980 0.24430 0.16200
H 	H 	0.02550 0.82850 0.34430 0.17000
H 	H 	0.12250 0.82570 0.27540 0.17800
C 	C 	0.84050 0.84800 0.48320 -0.60100
H 	H 	0.91400 0.84820 0.46370 0.18700
H 	H 	0.80800 0.82150 0.46950 0.18200
H 	H 	0.84460 0.85430 0.55760 0.19700
Mn	Mn	0.70057 0.56928 0.10607 1.27800
N 	N 	0.88670 0.63210 0.19550 -0.14000
O 	O 	0.69490 0.57616 0.94440 -0.48100
O 	O 	0.55490 0.62165 0.08700 -0.38300
O 	O 	0.52680 0.55673 0.09290 -0.55400
O 	O 	0.77010 0.51329 0.14900 -0.49000
O 	O 	0.63050 0.47284 0.09690 -0.48100
N 	N 	0.70030 0.58824 0.27550 -0.22600
O 	O 	0.60300 0.52124 0.89170 -0.45900
N 	N 	0.76080 0.62044 0.31520 -0.13400
N 	N 	0.86240 0.59971 0.13080 -0.25100
N 	N 	0.06930 0.28532 0.31890 -0.14200
C 	C 	0.69940 0.57885 0.55840 0.17600
N 	N 	0.13130 0.29378 0.24150 -0.26100
C 	C 	0.95650 0.58790 0.10190 0.31500
C 	C 	0.15790 0.60939 0.13580 0.17800
C 	C 	0.67160 0.56915 0.35770 0.27000
C 	C 	0.65400 0.55220 0.87660 0.42100
C 	C 	0.04180 0.61342 0.14830 -0.27700
C 	C 	0.66890 0.56113 0.76500 -0.18700
C 	C 	0.72700 0.47934 0.13530 0.41000
C 	C 	0.37460 0.59931 0.10590 -0.17400
C 	C 	0.31520 0.56724 0.13450 0.09400
H 	H 	0.34840 0.54160 0.14420 0.00400
C 	C 	0.49120 0.59273 0.09290 0.35900
C 	C 	0.79920 0.64849 0.24320 -0.00100
H 	H 	0.82430 0.67330 0.28120 0.01300
H 	H 	0.73810 0.65560 0.18830 0.01100
C 	C 	0.98560 0.31241 0.31910 0.23500
C 	C 	0.90900 0.44776 0.20220 0.08900
H 	H 	0.94040 0.47370 0.20890 -0.00400
C 	C 	0.20850 0.57213 0.14900 -0.20700
H 	H 	0.16850 0.54980 0.16840 0.09100
C 	C 	0.79820 0.44331 0.16770 -0.17700
C 	C 	0.71470 0.58911 0.45050 -0.24900
C 	C 	0.99380 0.64112 0.20640 0.24700
C 	C 	0.99750 0.33956 0.24280 -0.22700
C 	C 	0.97350 0.41421 0.22670 -0.19200
H 	H 	0.04940 0.41740 0.24960 0.08600
C 	C 	0.92880 0.37595 0.21840 0.15800
C 	C 	0.95970 0.55310 0.02860 -0.88700
H 	H 	0.97350 0.52840 0.06900 0.27100
H 	H 	0.88960 0.55100 0.98290 0.28700
H 	H 	0.01810 0.55730 0.98610 0.30200
C 	C 	0.08690 0.32786 0.19440 0.21000
C 	C 	0.32740 0.63708 0.09240 0.09300
H 	H 	0.36880 0.65930 0.07500 -0.01100
C 	C 	0.21770 0.64176 0.10500 -0.20500
H 	H 	0.18360 0.66710 0.09270 0.07700
C 	C 	0.77180 0.62144 0.42030 0.25500
C 	C 	0.66940 0.60076 0.73110 0.10300
H 	H 	0.66080 0.62180 0.77850 -0.02300
C 	C 	0.68430 0.53082 0.69550 0.10400
H 	H 	0.68390 0.50370 0.71770 -0.00600
C 	C 	0.75210 0.40567 0.15960 0.09000
H 	H 	0.67610 0.40270 0.13740 0.00100
C 	C 	0.68210 0.60968 0.62980 -0.20600
H 	H 	0.67920 0.63680 0.60740 0.07300
C 	C 	0.12560 0.34561 0.10130 -0.56600
H 	H 	0.19020 0.33110 0.08620 0.12400
H 	H 	0.06790 0.34370 0.04120 0.16800
H 	H 	0.14420 0.37380 0.11490 0.18900
C 	C 	0.70020 0.53957 0.59360 -0.20800
H 	H 	0.71190 0.51840 0.54750 0.09100
C 	C 	0.81770 0.37176 0.18410 -0.19200
H 	H 	0.78600 0.34580 0.17730 0.07700
C 	C 	0.60300 0.53203 0.34430 -0.64800
H 	H 	0.56740 0.53010 0.27180 0.20800
H 	H 	0.64940 0.50850 0.36140 0.20800
H 	H 	0.54750 0.53320 0.39090 0.21200
C 	C 	0.90580 0.30885 0.39390 -0.57600
H 	H 	0.85460 0.28710 0.37170 0.17000
H 	H 	0.94450 0.30310 0.46370 0.17100
H 	H 	0.86560 0.33400 0.39540 0.18000
C 	C 	0.04320 0.67464 0.27340 -0.57400
H 	H 	0.01410 0.70020 0.24430 0.16200
H 	H 	0.02550 0.67150 0.34430 0.16900
H 	H 	0.12250 0.67430 0.27540 0.17800
C 	C 	0.84050 0.65200 0.48320 -0.60000
H 	H 	0.91400 0.65180 0.46370 0.18600
H 	H 	0.80800 0.67850 0.46950 0.18100
H 	H 	0.84460 0.64570 0.55760 0.19700
Mn	Mn	0.29943 0.06928 0.89393 1.29000
N 	N 	0.11330 0.13210 0.80450 -0.13000
O 	O 	0.30510 0.07616 0.05560 -0.51000
O 	O 	0.44510 0.12165 0.91300 -0.36400
O 	O 	0.47320 0.05673 0.90710 -0.53700
O 	O 	0.22990 0.01329 0.85100 -0.49000
O 	O 	0.36950 0.97284 0.90310 -0.45700
N 	N 	0.29970 0.08824 0.72450 -0.22600
O 	O 	0.39700 0.02124 0.10830 -0.48400
N 	N 	0.23920 0.12044 0.68480 -0.13300
N 	N 	0.13760 0.09971 0.86920 -0.21600
N 	N 	0.93070 0.78532 0.68110 -0.13900
C 	C 	0.30060 0.07885 0.44160 0.17700
N 	N 	0.86870 0.79378 0.75850 -0.26300
C 	C 	0.04350 0.08790 0.89810 0.18300
C 	C 	0.84210 0.10939 0.86420 0.14600
C 	C 	0.32840 0.06915 0.64230 0.26600
C 	C 	0.34600 0.05220 0.12340 0.42900
C 	C 	0.95820 0.11342 0.85170 -0.18700
C 	C 	0.33110 0.06113 0.23500 -0.19400
C 	C 	0.27300 0.97934 0.86470 0.42800
C 	C 	0.62540 0.09931 0.89410 -0.14900
C 	C 	0.68480 0.06724 0.86550 0.07900
H 	H 	0.65160 0.04160 0.85580 0.01100
C 	C 	0.50880 0.09273 0.90710 0.35800
C 	C 	0.20080 0.14849 0.75680 -0.00700
H 	H 	0.17570 0.17330 0.71880 0.01800
H 	H 	0.26190 0.15560 0.81170 0.02000
C 	C 	0.01440 0.81241 0.68090 0.23700
C 	C 	0.09100 0.94776 0.79780 0.09700
H 	H 	0.05960 0.97370 0.79110 -0.00100
C 	C 	0.79150 0.07213 0.85100 -0.17100
H 	H 	0.83150 0.04980 0.83160 0.08300
C 	C 	0.20180 0.94331 0.83230 -0.17600
C 	C 	0.28530 0.08911 0.54950 -0.24900
C 	C 	0.00620 0.14112 0.79360 0.21000
C 	C 	0.00250 0.83956 0.75720 -0.24400
C 	C 	0.02650 0.91421 0.77330 -0.21300
H 	H 	0.95060 0.91740 0.75040 0.09700
C 	C 	0.07120 0.87595 0.78160 0.17400
C 	C 	0.04030 0.05310 0.97140 -0.38000
H 	H 	0.02650 0.02840 0.93100 0.13100
H 	H 	0.11040 0.05100 0.01710 0.09800
H 	H 	0.98190 0.05730 0.01390 0.11500
C 	C 	0.91310 0.82786 0.80560 0.23800
C 	C 	0.67260 0.13708 0.90760 0.08100
H 	H 	0.63120 0.15930 0.92500 0.00600
C 	C 	0.78230 0.14176 0.89500 -0.17100
H 	H 	0.81640 0.16710 0.90730 0.08000
C 	C 	0.22820 0.12144 0.57970 0.25300
C 	C 	0.33060 0.10076 0.26890 0.10800
H 	H 	0.33920 0.12180 0.22150 -0.02900
C 	C 	0.31570 0.03082 0.30450 0.10700
H 	H 	0.31610 0.00370 0.28230 -0.01200
C 	C 	0.24790 0.90567 0.84040 0.10100
H 	H 	0.32390 0.90270 0.86260 0.01000
C 	C 	0.31790 0.10968 0.37020 -0.21000
H 	H 	0.32080 0.13680 0.39260 0.07400
C 	C 	0.87440 0.84561 0.89870 -0.61800
H 	H 	0.80980 0.83110 0.91380 0.15200
H 	H 	0.93210 0.84370 0.95880 0.20400
H 	H 	0.85580 0.87380 0.88510 0.20900
C 	C 	0.29980 0.03957 0.40640 -0.21200
H 	H 	0.28810 0.01840 0.45250 0.08900
C 	C 	0.18230 0.87176 0.81590 -0.19500
H 	H 	0.21400 0.84580 0.82270 0.08900
C 	C 	0.39700 0.03203 0.65570 -0.63900
H 	H 	0.43260 0.03010 0.72820 0.20300
H 	H 	0.35060 0.00850 0.63860 0.20200
H 	H 	0.45250 0.03320 0.60910 0.20600
C 	C 	0.09420 0.80885 0.60610 -0.57900
H 	H 	0.14540 0.78710 0.62830 0.17300
H 	H 	0.05550 0.80310 0.53630 0.16900
H 	H 	0.13440 0.83400 0.60460 0.18100
C 	C 	0.95680 0.17464 0.72660 -0.53700
H 	H 	0.98590 0.20020 0.75570 0.16100
H 	H 	0.97450 0.17150 0.65570 0.16100
H 	H 	0.87750 0.17430 0.72460 0.16900
C 	C 	0.15950 0.15200 0.51680 -0.59700
H 	H 	0.08600 0.15180 0.53630 0.18400
H 	H 	0.19200 0.17850 0.53050 0.18100
H 	H 	0.15540 0.14570 0.44240 0.19500
Mn	Mn	0.50000 0.50000 -0.00000 1.30100
Mn	Mn	0.50000 0.00000 -0.00000 1.29600
Co	Co	0.75474 0.75000 0.80074 0.99700
C 	C 	0.90700 0.75000 0.62020 0.00200
H 	H 	0.82900 0.75000 0.58990 -0.02200
H 	H 	0.95060 0.75000 0.56190 0.01000
Co	Co	0.24526 0.25000 0.19926 0.99000
C 	C 	0.09300 0.25000 0.37980 0.00100
H 	H 	0.17100 0.25000 0.41010 -0.02200
H 	H 	0.04940 0.25000 0.43810 0.00800
