data_crystal

_cell_length_a 12.35200
_cell_length_b 33.72500
_cell_length_c 13.03000
_cell_angle_alpha 90.00000
_cell_angle_beta  96.63000
_cell_angle_gamma 90.00000

_symmetry_space_group_name_	'P 1'
_symmetry_space_group_name_H-M	'P 1'

loop_
_symmetry_equiv_pos_as_xyz
  x,y,z

loop_
_atom_site_label
_atom_site_type_symbol
_atom_site_fract_x
_atom_site_fract_y
_atom_site_fract_z
_atom_site_charge
Mn	Mn	0.70928 0.43455 0.10627 1.28000
C 	C 	0.79690 0.35593 0.24050 -0.00900
H 	H 	0.81800 0.33040 0.27440 0.01800
H 	H 	0.73750 0.35070 0.18440 0.02300
N 	N 	0.71580 0.41798 0.28130 -0.22000
N 	N 	0.75820 0.38267 0.31510 -0.13100
C 	C 	0.75490 0.37867 0.41770 0.25400
C 	C 	0.70870 0.41221 0.45150 -0.25000
C 	C 	0.68530 0.43627 0.36320 0.28700
C 	C 	0.63080 0.47544 0.35410 -0.67800
H 	H 	0.68470 0.49610 0.34480 0.21800
H 	H 	0.59680 0.48090 0.41690 0.21800
H 	H 	0.57480 0.47530 0.29430 0.22200
C 	C 	0.79100 0.34120 0.47380 -0.59400
H 	H 	0.74690 0.31900 0.44420 0.18600
H 	H 	0.78160 0.34400 0.54710 0.19400
H 	H 	0.86790 0.33630 0.46660 0.17900
C 	C 	0.65150 0.44643 0.87710 0.44100
C 	C 	0.69060 0.42113 0.55690 0.08600
C 	C 	0.77290 0.41670 0.63780 -0.19500
H 	H 	0.84340 0.40940 0.62200 0.08300
C 	C 	0.75840 0.42220 0.73800 0.15800
H 	H 	0.81540 0.41550 0.79050 -0.02600
C 	C 	0.57850 0.44100 0.68850 0.07400
H 	H 	0.50950 0.44950 0.70540 0.00700
C 	C 	0.59130 0.43270 0.58620 -0.15900
H 	H 	0.53030 0.43500 0.53500 0.07300
C 	C 	0.66290 0.43728 0.76490 -0.10600
O 	O 	0.71390 0.43005 0.94530 -0.48100
O 	O 	0.57750 0.46896 0.88970 -0.47600
N 	N 	0.87070 0.40290 0.12970 -0.25400
N 	N 	0.88940 0.37259 0.19710 -0.14000
C 	C 	0.99660 0.36477 0.21890 0.27000
C 	C 	0.05030 0.39186 0.16360 -0.29500
C 	C 	0.96810 0.41504 0.10940 0.33600
C 	C 	0.04110 0.33420 0.29230 -0.61500
H 	H 	0.99250 0.33080 0.34590 0.18300
H 	H 	0.11340 0.34240 0.32430 0.19300
H 	H 	0.04720 0.30910 0.25560 0.18000
C 	C 	0.97900 0.44876 0.03630 -0.92300
H 	H 	0.91170 0.45130 0.98900 0.30200
H 	H 	0.04020 0.44360 0.99660 0.31500
H 	H 	0.99220 0.47340 0.07560 0.28000
C 	C 	0.16940 0.39605 0.15960 0.19700
C 	C 	0.23380 0.36390 0.13670 -0.22100
H 	H 	0.20300 0.33810 0.12930 0.08700
C 	C 	0.34280 0.36966 0.12480 0.11000
H 	H 	0.38580 0.34760 0.10900 -0.00300
C 	C 	0.38950 0.40626 0.13540 -0.17900
C 	C 	0.32790 0.43798 0.16190 0.10000
H 	H 	0.36040 0.46340 0.17310 -0.00500
C 	C 	0.21720 0.43264 0.17230 -0.21900
H 	H 	0.17450 0.45480 0.18830 0.09300
C 	C 	0.50460 0.41324 0.11540 0.35500
O 	O 	0.53770 0.44928 0.11000 -0.54500
O 	O 	0.56720 0.38480 0.10540 -0.38100
N 	N 	0.12080 0.70858 0.22140 -0.22100
N 	N 	0.06860 0.71495 0.30670 -0.14600
C 	C 	0.98820 0.68818 0.31410 0.26800
C 	C 	0.99020 0.66227 0.23100 -0.26900
C 	C 	0.07410 0.67611 0.17610 0.24900
C 	C 	0.10710 0.65980 0.07620 -0.61300
H 	H 	0.06080 0.67140 0.01770 0.18100
H 	H 	0.09850 0.63090 0.07510 0.20400
H 	H 	0.18350 0.66660 0.07090 0.19100
C 	C 	0.91240 0.68910 0.39340 -0.61900
H 	H 	0.95330 0.68540 0.46180 0.18300
H 	H 	0.85880 0.66780 0.38030 0.19800
H 	H 	0.87480 0.71470 0.39100 0.18900
C 	C 	0.92090 0.62717 0.20740 0.24600
C 	C 	0.82380 0.62957 0.14850 -0.27800
H 	H 	0.79820 0.65480 0.12410 0.11600
C 	C 	0.76000 0.59629 0.12240 0.17700
H 	H 	0.69120 0.59920 0.08240 -0.02100
C 	C 	0.79580 0.55966 0.15380 -0.26200
C 	C 	0.89210 0.55737 0.21410 0.18600
H 	H 	0.91820 0.53230 0.23900 -0.03300
C 	C 	0.95210 0.59038 0.23980 -0.28500
H 	H 	0.01920 0.58750 0.28270 0.11400
C 	C 	0.73090 0.52336 0.11880 0.46900
O 	O 	0.64250 0.52818 0.06700 -0.50000
O 	O 	0.77340 0.49076 0.14320 -0.51100
C 	C 	0.33070 0.71150 0.15140 -0.16300
O 	O 	0.39490 0.68840 0.13780 -0.14500
C 	C 	0.69720 0.42107 0.56350 0.07700
C 	C 	0.65470 0.39212 0.62330 -0.04600
H 	H 	0.62620 0.36830 0.59210 0.03700
C 	C 	0.65370 0.39806 0.72880 -0.03900
H 	H 	0.62460 0.37830 0.76960 0.05500
C 	C 	0.69540 0.43295 0.77440 -0.05300
C 	C 	0.73790 0.46190 0.71460 -0.04700
H 	H 	0.76640 0.48570 0.74580 0.03600
C 	C 	0.73890 0.45600 0.60910 -0.03800
H 	H 	0.76800 0.47570 0.56820 0.03400
Mn	Mn	0.29072 0.93455 0.89373 1.29200
C 	C 	0.20310 0.85593 0.75950 -0.01500
H 	H 	0.18200 0.83040 0.72560 0.02500
H 	H 	0.26250 0.85070 0.81560 0.03500
N 	N 	0.28420 0.91798 0.71870 -0.22100
N 	N 	0.24180 0.88267 0.68490 -0.13000
C 	C 	0.24510 0.87867 0.58230 0.25500
C 	C 	0.29130 0.91221 0.54850 -0.25200
C 	C 	0.31470 0.93627 0.63680 0.29100
C 	C 	0.36920 0.97544 0.64590 -0.68800
H 	H 	0.31530 0.99610 0.65520 0.22400
H 	H 	0.40320 0.98090 0.58310 0.22400
H 	H 	0.42520 0.97530 0.70570 0.22700
C 	C 	0.20900 0.84120 0.52620 -0.59700
H 	H 	0.25310 0.81900 0.55580 0.18900
H 	H 	0.21840 0.84400 0.45290 0.19500
H 	H 	0.13210 0.83630 0.53340 0.18000
C 	C 	0.34850 0.94643 0.12290 0.44500
C 	C 	0.30940 0.92113 0.44310 0.08600
C 	C 	0.22710 0.91670 0.36220 -0.19300
H 	H 	0.15660 0.90940 0.37800 0.08300
C 	C 	0.24160 0.92220 0.26200 0.15500
H 	H 	0.18460 0.91550 0.20950 -0.02400
C 	C 	0.42150 0.94100 0.31150 0.07400
H 	H 	0.49050 0.94950 0.29460 0.00900
C 	C 	0.40870 0.93270 0.41380 -0.15800
H 	H 	0.46970 0.93500 0.46500 0.07400
C 	C 	0.33710 0.93728 0.23510 -0.10600
O 	O 	0.28610 0.93005 0.05470 -0.50500
O 	O 	0.42250 0.96896 0.11030 -0.48900
N 	N 	0.12930 0.90290 0.87030 -0.21600
N 	N 	0.11060 0.87259 0.80290 -0.12900
C 	C 	0.00340 0.86477 0.78110 0.23100
C 	C 	0.94970 0.89186 0.83640 -0.20400
C 	C 	0.03190 0.91504 0.89060 0.20400
C 	C 	0.95890 0.83420 0.70770 -0.55900
H 	H 	0.00750 0.83080 0.65410 0.16600
H 	H 	0.88660 0.84240 0.67570 0.17800
H 	H 	0.95280 0.80910 0.74440 0.17400
C 	C 	0.02100 0.94876 0.96370 -0.42100
H 	H 	0.08830 0.95130 0.01100 0.11600
H 	H 	0.95980 0.94360 0.00340 0.13100
H 	H 	0.00780 0.97340 0.92440 0.14800
C 	C 	0.83060 0.89605 0.84040 0.16200
C 	C 	0.76620 0.86390 0.86330 -0.18300
H 	H 	0.79700 0.83810 0.87070 0.08800
C 	C 	0.65720 0.86966 0.87520 0.09400
H 	H 	0.61420 0.84760 0.89100 0.01600
C 	C 	0.61050 0.90626 0.86460 -0.15100
C 	C 	0.67210 0.93798 0.83810 0.08500
H 	H 	0.63960 0.96340 0.82690 0.00900
C 	C 	0.78280 0.93264 0.82770 -0.18000
H 	H 	0.82550 0.95480 0.81170 0.08800
C 	C 	0.49540 0.91324 0.88460 0.35100
O 	O 	0.46230 0.94928 0.89000 -0.52400
O 	O 	0.43280 0.88480 0.89460 -0.36100
N 	N 	0.87920 0.20858 0.77860 -0.22200
N 	N 	0.93140 0.21495 0.69330 -0.14300
C 	C 	0.01180 0.18818 0.68590 0.26700
C 	C 	0.00980 0.16227 0.76900 -0.28000
C 	C 	0.92590 0.17611 0.82390 0.27100
C 	C 	0.89290 0.15980 0.92380 -0.65700
H 	H 	0.93920 0.17140 0.98230 0.21400
H 	H 	0.90150 0.13090 0.92490 0.22700
H 	H 	0.81650 0.16660 0.92910 0.21400
C 	C 	0.08760 0.18910 0.60660 -0.61700
H 	H 	0.04670 0.18540 0.53820 0.18000
H 	H 	0.14120 0.16780 0.61970 0.19800
H 	H 	0.12520 0.21470 0.60900 0.18900
C 	C 	0.07910 0.12717 0.79260 0.25500
C 	C 	0.17620 0.12957 0.85150 -0.27800
H 	H 	0.20180 0.15480 0.87590 0.12800
C 	C 	0.24000 0.09629 0.87760 0.17700
H 	H 	0.30880 0.09920 0.91760 -0.00600
C 	C 	0.20420 0.05966 0.84620 -0.25500
C 	C 	0.10790 0.05737 0.78590 0.18500
H 	H 	0.08180 0.03230 0.76100 -0.03600
C 	C 	0.04790 0.09038 0.76020 -0.29900
H 	H 	0.98080 0.08750 0.71730 0.12100
C 	C 	0.26910 0.02336 0.88120 0.45000
O 	O 	0.35750 0.02818 0.93300 -0.47200
O 	O 	0.22660 0.99076 0.85680 -0.48500
C 	C 	0.66930 0.21150 0.84860 -0.15700
O 	O 	0.60510 0.18840 0.86220 -0.13300
C 	C 	0.30280 0.92107 0.43650 0.07800
C 	C 	0.34530 0.89212 0.37670 -0.04900
H 	H 	0.37380 0.86830 0.40790 0.03800
C 	C 	0.34630 0.89806 0.27120 -0.03600
H 	H 	0.37540 0.87830 0.23040 0.05200
C 	C 	0.30460 0.93295 0.22560 -0.05400
C 	C 	0.26210 0.96190 0.28540 -0.04400
H 	H 	0.23360 0.98570 0.25420 0.03700
C 	C 	0.26110 0.95600 0.39090 -0.04000
H 	H 	0.23200 0.97570 0.43180 0.03700
Mn	Mn	0.29072 0.56545 0.89373 1.29200
C 	C 	0.20310 0.64407 0.75950 -0.01500
H 	H 	0.18200 0.66960 0.72560 0.02500
H 	H 	0.26250 0.64930 0.81560 0.03500
N 	N 	0.28420 0.58202 0.71870 -0.22000
N 	N 	0.24180 0.61733 0.68490 -0.13000
C 	C 	0.24510 0.62133 0.58230 0.25500
C 	C 	0.29130 0.58779 0.54850 -0.25000
C 	C 	0.31470 0.56373 0.63680 0.28700
C 	C 	0.36920 0.52456 0.64590 -0.67800
H 	H 	0.31530 0.50390 0.65520 0.21800
H 	H 	0.40320 0.51910 0.58310 0.21700
H 	H 	0.42520 0.52470 0.70570 0.22100
C 	C 	0.20900 0.65880 0.52620 -0.59600
H 	H 	0.25310 0.68100 0.55580 0.18800
H 	H 	0.21840 0.65600 0.45290 0.19500
H 	H 	0.13210 0.66370 0.53340 0.18000
C 	C 	0.34850 0.55357 0.12290 0.44500
C 	C 	0.30940 0.57887 0.44310 0.08600
C 	C 	0.22710 0.58330 0.36220 -0.19300
H 	H 	0.15660 0.59060 0.37800 0.08200
C 	C 	0.24160 0.57780 0.26200 0.15500
H 	H 	0.18460 0.58450 0.20950 -0.02400
C 	C 	0.42150 0.55900 0.31150 0.07300
H 	H 	0.49050 0.55050 0.29460 0.00700
C 	C 	0.40870 0.56730 0.41380 -0.15800
H 	H 	0.46970 0.56500 0.46500 0.07200
C 	C 	0.33710 0.56272 0.23510 -0.10600
O 	O 	0.28610 0.56995 0.05470 -0.50600
O 	O 	0.42250 0.53104 0.11030 -0.49500
N 	N 	0.12930 0.59710 0.87030 -0.21500
N 	N 	0.11060 0.62741 0.80290 -0.12900
C 	C 	0.00340 0.63523 0.78110 0.23000
C 	C 	0.94970 0.60814 0.83640 -0.20300
C 	C 	0.03190 0.58496 0.89060 0.20100
C 	C 	0.95890 0.66580 0.70770 -0.55900
H 	H 	0.00750 0.66920 0.65410 0.16600
H 	H 	0.88660 0.65760 0.67570 0.17800
H 	H 	0.95280 0.69090 0.74440 0.17400
C 	C 	0.02100 0.55124 0.96370 -0.41100
H 	H 	0.08830 0.54870 0.01100 0.11100
H 	H 	0.95980 0.55640 0.00340 0.12600
H 	H 	0.00780 0.52660 0.92440 0.14200
C 	C 	0.83060 0.60395 0.84040 0.16200
C 	C 	0.76620 0.63610 0.86330 -0.18300
H 	H 	0.79700 0.66190 0.87070 0.08800
C 	C 	0.65720 0.63034 0.87520 0.09400
H 	H 	0.61420 0.65240 0.89100 0.01600
C 	C 	0.61050 0.59374 0.86460 -0.15200
C 	C 	0.67210 0.56202 0.83810 0.08500
H 	H 	0.63960 0.53660 0.82690 0.00500
C 	C 	0.78280 0.56736 0.82770 -0.18000
H 	H 	0.82550 0.54520 0.81170 0.08500
C 	C 	0.49540 0.58676 0.88460 0.35200
O 	O 	0.46230 0.55072 0.89000 -0.52700
O 	O 	0.43280 0.61520 0.89460 -0.36100
N 	N 	0.87920 0.29142 0.77860 -0.22200
N 	N 	0.93140 0.28505 0.69330 -0.14300
C 	C 	0.01180 0.31182 0.68590 0.26800
C 	C 	0.00980 0.33773 0.76900 -0.28100
C 	C 	0.92590 0.32389 0.82390 0.27200
C 	C 	0.89290 0.34020 0.92380 -0.65800
H 	H 	0.93920 0.32860 0.98230 0.21400
H 	H 	0.90150 0.36910 0.92490 0.22700
H 	H 	0.81650 0.33340 0.92910 0.21400
C 	C 	0.08760 0.31090 0.60660 -0.61800
H 	H 	0.04670 0.31460 0.53820 0.18100
H 	H 	0.14120 0.33220 0.61970 0.19900
H 	H 	0.12520 0.28530 0.60900 0.18900
C 	C 	0.07910 0.37283 0.79260 0.25800
C 	C 	0.17620 0.37043 0.85150 -0.28100
H 	H 	0.20180 0.34520 0.87590 0.12900
C 	C 	0.24000 0.40371 0.87760 0.18200
H 	H 	0.30880 0.40080 0.91760 -0.00700
C 	C 	0.20420 0.44034 0.84620 -0.26100
C 	C 	0.10790 0.44263 0.78590 0.19100
H 	H 	0.08180 0.46770 0.76100 -0.03400
C 	C 	0.04790 0.40962 0.76020 -0.30200
H 	H 	0.98080 0.41250 0.71730 0.12300
C 	C 	0.26910 0.47664 0.88120 0.46800
O 	O 	0.35750 0.47182 0.93300 -0.47400
O 	O 	0.22660 0.50924 0.85680 -0.49800
C 	C 	0.66930 0.28850 0.84860 -0.15700
O 	O 	0.60510 0.31160 0.86220 -0.13300
C 	C 	0.30280 0.57893 0.43650 0.07800
C 	C 	0.34530 0.60788 0.37670 -0.04900
H 	H 	0.37380 0.63170 0.40790 0.03800
C 	C 	0.34630 0.60194 0.27120 -0.03600
H 	H 	0.37540 0.62170 0.23040 0.05100
C 	C 	0.30460 0.56705 0.22560 -0.05500
C 	C 	0.26210 0.53810 0.28540 -0.04300
H 	H 	0.23360 0.51430 0.25420 0.03300
C 	C 	0.26110 0.54400 0.39090 -0.04100
H 	H 	0.23200 0.52430 0.43180 0.03500
Mn	Mn	0.70928 0.06545 0.10627 1.28000
C 	C 	0.79690 0.14407 0.24050 -0.00900
H 	H 	0.81800 0.16960 0.27440 0.01800
H 	H 	0.73750 0.14930 0.18440 0.02400
N 	N 	0.71580 0.08202 0.28130 -0.22000
N 	N 	0.75820 0.11733 0.31510 -0.13100
C 	C 	0.75490 0.12133 0.41770 0.25300
C 	C 	0.70870 0.08779 0.45150 -0.24900
C 	C 	0.68530 0.06373 0.36320 0.28300
C 	C 	0.63080 0.02456 0.35410 -0.66700
H 	H 	0.68470 0.00390 0.34480 0.21100
H 	H 	0.59680 0.01910 0.41690 0.21200
H 	H 	0.57480 0.02470 0.29430 0.21600
C 	C 	0.79100 0.15880 0.47380 -0.59300
H 	H 	0.74690 0.18100 0.44420 0.18600
H 	H 	0.78160 0.15600 0.54710 0.19400
H 	H 	0.86790 0.16370 0.46660 0.17800
C 	C 	0.65150 0.05357 0.87710 0.44100
C 	C 	0.69060 0.07887 0.55690 0.08600
C 	C 	0.77290 0.08330 0.63780 -0.19400
H 	H 	0.84340 0.09060 0.62200 0.08300
C 	C 	0.75840 0.07780 0.73800 0.15700
H 	H 	0.81540 0.08450 0.79050 -0.02600
C 	C 	0.57850 0.05900 0.68850 0.07300
H 	H 	0.50950 0.05050 0.70540 0.00500
C 	C 	0.59130 0.06730 0.58620 -0.16000
H 	H 	0.53030 0.06500 0.53500 0.07100
C 	C 	0.66290 0.06272 0.76490 -0.10600
O 	O 	0.71390 0.06995 0.94530 -0.48200
O 	O 	0.57750 0.03104 0.88970 -0.48000
N 	N 	0.87070 0.09710 0.12970 -0.25300
N 	N 	0.88940 0.12741 0.19710 -0.14000
C 	C 	0.99660 0.13523 0.21890 0.26800
C 	C 	0.05030 0.10814 0.16360 -0.29400
C 	C 	0.96810 0.08496 0.10940 0.33400
C 	C 	0.04110 0.16580 0.29230 -0.61300
H 	H 	0.99250 0.16920 0.34590 0.18200
H 	H 	0.11340 0.15760 0.32430 0.19200
H 	H 	0.04720 0.19090 0.25560 0.18000
C 	C 	0.97900 0.05124 0.03630 -0.91800
H 	H 	0.91170 0.04870 0.98900 0.29800
H 	H 	0.04020 0.05640 0.99660 0.31200
H 	H 	0.99220 0.02660 0.07560 0.27400
C 	C 	0.16940 0.10395 0.15960 0.19600
C 	C 	0.23380 0.13610 0.13670 -0.22100
H 	H 	0.20300 0.16190 0.12930 0.08700
C 	C 	0.34280 0.13034 0.12480 0.11000
H 	H 	0.38580 0.15240 0.10900 -0.00300
C 	C 	0.38950 0.09374 0.13540 -0.17900
C 	C 	0.32790 0.06202 0.16190 0.10000
H 	H 	0.36040 0.03660 0.17310 -0.00800
C 	C 	0.21720 0.06736 0.17230 -0.21900
H 	H 	0.17450 0.04520 0.18830 0.09000
C 	C 	0.50460 0.08676 0.11540 0.35500
O 	O 	0.53770 0.05072 0.11000 -0.54700
O 	O 	0.56720 0.11520 0.10540 -0.38100
N 	N 	0.12080 0.79142 0.22140 -0.22100
N 	N 	0.06860 0.78505 0.30670 -0.14600
C 	C 	0.98820 0.81182 0.31410 0.26800
C 	C 	0.99020 0.83773 0.23100 -0.27000
C 	C 	0.07410 0.82389 0.17610 0.24900
C 	C 	0.10710 0.84020 0.07620 -0.61300
H 	H 	0.06080 0.82860 0.01770 0.18100
H 	H 	0.09850 0.86910 0.07510 0.20400
H 	H 	0.18350 0.83340 0.07090 0.19100
C 	C 	0.91240 0.81090 0.39340 -0.62000
H 	H 	0.95330 0.81460 0.46180 0.18400
H 	H 	0.85880 0.83220 0.38030 0.19900
H 	H 	0.87480 0.78530 0.39100 0.19000
C 	C 	0.92090 0.87283 0.20740 0.24800
C 	C 	0.82380 0.87043 0.14850 -0.28100
H 	H 	0.79820 0.84520 0.12410 0.11700
C 	C 	0.76000 0.90371 0.12240 0.18100
H 	H 	0.69120 0.90080 0.08240 -0.02300
C 	C 	0.79580 0.94034 0.15380 -0.26700
C 	C 	0.89210 0.94263 0.21410 0.19000
H 	H 	0.91820 0.96770 0.23900 -0.03100
C 	C 	0.95210 0.90962 0.23980 -0.28700
H 	H 	0.01920 0.91250 0.28270 0.11500
C 	C 	0.73090 0.97664 0.11880 0.48700
O 	O 	0.64250 0.97182 0.06700 -0.49900
O 	O 	0.77340 0.00924 0.14320 -0.52400
C 	C 	0.33070 0.78850 0.15140 -0.16300
O 	O 	0.39490 0.81160 0.13780 -0.14500
C 	C 	0.69720 0.07893 0.56350 0.07700
C 	C 	0.65470 0.10788 0.62330 -0.04600
H 	H 	0.62620 0.13170 0.59210 0.03700
C 	C 	0.65370 0.10194 0.72880 -0.03800
H 	H 	0.62460 0.12170 0.76960 0.05500
C 	C 	0.69540 0.06705 0.77440 -0.05400
C 	C 	0.73790 0.03810 0.71460 -0.04700
H 	H 	0.76640 0.01430 0.74580 0.03200
C 	C 	0.73890 0.04400 0.60910 -0.03900
H 	H 	0.76800 0.02430 0.56820 0.03200
Rh	Rh	0.23321 0.75000 0.18148 0.84200
C 	C 	0.10060 0.75000 0.36610 0.01200
H 	H 	0.18050 0.75000 0.38500 -0.00600
H 	H 	0.06540 0.75000 0.43060 0.00800
Rh	Rh	0.76679 0.25000 0.81852 0.84700
C 	C 	0.89940 0.25000 0.63390 0.01300
H 	H 	0.81950 0.25000 0.61500 -0.00700
H 	H 	0.93460 0.25000 0.56940 0.00800
Mn	Mn	0.50000 0.50000 -0.00000 1.31200
Mn	Mn	0.50000 0.00000 -0.00000 1.30700
