data_crystal

_cell_length_a 12.35900
_cell_length_b 33.22900
_cell_length_c 12.88700
_cell_angle_alpha 90.00000
_cell_angle_beta  96.42000
_cell_angle_gamma 90.00000

_symmetry_space_group_name_	'P 1'
_symmetry_space_group_name_H-M	'P 1'

loop_
_symmetry_equiv_pos_as_xyz
  x,y,z

loop_
_atom_site_label
_atom_site_type_symbol
_atom_site_fract_x
_atom_site_fract_y
_atom_site_fract_z
_atom_site_charge
Mn	Mn	0.20042 0.06984 0.60195 1.28900
C 	C 	0.40050 0.94832 0.71120 0.17400
H 	H 	0.43000 0.97450 0.72360 -0.02600
C 	C 	0.46330 0.91553 0.74090 -0.27600
H 	H 	0.53390 0.91960 0.77690 0.11900
C 	C 	0.32200 0.87345 0.67770 -0.27200
H 	H 	0.29230 0.84730 0.66540 0.10800
C 	C 	0.25710 0.90603 0.65210 0.17500
H 	H 	0.18320 0.90210 0.62510 -0.02600
C 	C 	0.49750 0.84075 0.74590 -0.28800
C 	C 	0.48280 0.81384 0.82450 0.27800
N 	N 	0.56400 0.78603 0.81960 -0.14400
C 	C 	0.58330 0.82623 0.69450 0.27700
C 	C 	0.42760 0.87688 0.72030 0.23500
N 	N 	0.35930 0.10107 0.62220 -0.24100
N 	N 	0.19720 0.08994 0.76990 -0.23200
N 	N 	0.37980 0.13386 0.68450 -0.13500
C 	C 	0.48820 0.14256 0.69940 0.24500
C 	C 	0.53880 0.11403 0.64410 -0.26200
C 	C 	0.45620 0.08859 0.59860 0.28200
C 	C 	0.46400 0.05317 0.52920 -0.68600
H 	H 	0.45210 0.02850 0.56780 0.21500
H 	H 	0.53650 0.05240 0.50520 0.22200
H 	H 	0.40860 0.05530 0.46880 0.21300
C 	C 	0.53370 0.17727 0.76320 -0.58100
H 	H 	0.52810 0.20170 0.72050 0.17100
H 	H 	0.61030 0.17210 0.78780 0.18400
H 	H 	0.49250 0.18080 0.82330 0.17100
C 	C 	0.65620 0.10976 0.63430 0.19400
C 	C 	0.70650 0.07232 0.65170 -0.22100
H 	H 	0.66560 0.05020 0.67330 0.09500
C 	C 	0.71850 0.14236 0.60710 -0.22200
H 	H 	0.68630 0.16820 0.59690 0.09300
C 	C 	0.28890 0.15139 0.73100 -0.00800
H 	H 	0.31230 0.17690 0.76620 0.01500
H 	H 	0.22910 0.15750 0.67560 0.01800
N 	N 	0.25020 0.12417 0.80580 -0.13500
C 	C 	0.25690 0.12662 0.91140 0.26800
C 	C 	0.20490 0.09291 0.94460 -0.30200
C 	C 	0.16860 0.07121 0.85330 0.28300
C 	C 	0.10720 0.03247 0.84300 -0.63800
H 	H 	0.07260 0.02950 0.77120 0.19200
H 	H 	0.05120 0.03240 0.89120 0.19100
H 	H 	0.15750 0.01000 0.85990 0.19600
C 	C 	0.31290 0.16039 0.97070 -0.60100
H 	H 	0.38630 0.16360 0.94990 0.18100
H 	H 	0.31780 0.15460 0.04560 0.18600
H 	H 	0.27150 0.18530 0.95570 0.17800
O 	O 	0.02694 0.05648 0.59437 -0.61000
O 	O 	0.05470 0.12174 0.58240 -0.44000
C 	C 	0.99200 0.09279 0.59280 0.48400
C 	C 	0.87480 0.09910 0.60770 -0.20700
C 	C 	0.81430 0.06699 0.63800 0.12700
H 	H 	0.84720 0.04130 0.64930 -0.00200
C 	C 	0.82720 0.13689 0.59500 0.13100
H 	H 	0.86990 0.15920 0.57780 -0.00300
C 	C 	0.29740 0.94445 0.66470 -0.25300
C 	C 	0.22850 0.97996 0.63090 0.45400
O 	O 	0.26830 0.01414 0.64510 -0.51300
C 	C 	0.19030 0.08259 0.05340 0.31700
O 	O 	0.13220 0.97290 0.59000 -0.48100
N 	N 	0.62380 0.79315 0.73990 -0.24700
C 	C 	0.62580 0.84390 0.60170 -0.65300
H 	H 	0.69730 0.83230 0.59380 0.17500
H 	H 	0.63270 0.87310 0.61050 0.21900
H 	H 	0.57540 0.83800 0.53930 0.20300
C 	C 	0.40370 0.81295 0.89820 -0.63800
H 	H 	0.34890 0.79230 0.87730 0.18500
H 	H 	0.36820 0.83930 0.89960 0.19500
H 	H 	0.44000 0.80670 0.96780 0.18400
O 	O 	0.20130 0.07439 0.44010 -0.51000
O 	O 	0.09750 0.02333 0.38750 -0.51400
C 	C 	0.16560 0.06284 0.26050 -0.26500
C 	C 	0.15170 0.05257 0.37140 0.47900
C 	C 	0.20440 0.04196 0.09150 -0.14400
H 	H 	0.22450 0.02150 0.04590 0.06300
C 	C 	0.17750 0.11132 0.12740 -0.00400
H 	H 	0.17560 0.13880 0.10700 0.00100
C 	C 	0.18930 0.03215 0.19420 0.04500
H 	H 	0.19500 0.00510 0.21790 0.00300
C 	C 	0.16710 0.10201 0.23080 -0.05300
H 	H 	0.16110 0.12280 0.28030 0.02800
C 	C 	0.08330 0.06870 0.07590 -0.24200
H 	H 	0.02370 0.06650 0.02290 0.08300
C 	C 	0.07350 0.05890 0.17950 0.13600
H 	H 	0.00560 0.04940 0.19790 -0.03700
C 	C 	0.25530 0.07910 0.22710 0.24500
H 	H 	0.31780 0.08200 0.27660 -0.06700
C 	C 	0.26300 0.09180 0.12630 -0.34900
H 	H 	0.32360 0.10750 0.11160 0.13100
Mn	Mn	0.79958 0.56984 0.39805 1.28800
C 	C 	0.59950 0.44832 0.28880 0.16400
H 	H 	0.57000 0.47450 0.27640 -0.02700
C 	C 	0.53670 0.41553 0.25910 -0.27000
H 	H 	0.46610 0.41960 0.22310 0.11500
C 	C 	0.67800 0.37345 0.32230 -0.26400
H 	H 	0.70770 0.34730 0.33460 0.11300
C 	C 	0.74290 0.40603 0.34790 0.16600
H 	H 	0.81680 0.40210 0.37490 -0.00900
C 	C 	0.50250 0.34075 0.25410 -0.28900
C 	C 	0.51720 0.31384 0.17550 0.28700
N 	N 	0.43600 0.28603 0.18040 -0.14600
C 	C 	0.41670 0.32623 0.30550 0.27500
C 	C 	0.57240 0.37688 0.27970 0.23100
N 	N 	0.64070 0.60107 0.37780 -0.24000
N 	N 	0.80280 0.58994 0.23010 -0.23200
N 	N 	0.62020 0.63386 0.31550 -0.13300
C 	C 	0.51180 0.64256 0.30060 0.23600
C 	C 	0.46120 0.61403 0.35590 -0.25000
C 	C 	0.54380 0.58859 0.40140 0.27800
C 	C 	0.53600 0.55317 0.47080 -0.68600
H 	H 	0.54790 0.52850 0.43220 0.21800
H 	H 	0.46350 0.55240 0.49480 0.22400
H 	H 	0.59140 0.55530 0.53120 0.21400
C 	C 	0.46630 0.67727 0.23680 -0.56600
H 	H 	0.47190 0.70170 0.27950 0.16600
H 	H 	0.38970 0.67210 0.21220 0.17400
H 	H 	0.50750 0.68080 0.17670 0.16600
C 	C 	0.34380 0.60976 0.36570 0.16200
C 	C 	0.29350 0.57232 0.34830 -0.18100
H 	H 	0.33440 0.55020 0.32670 0.08300
C 	C 	0.28150 0.64236 0.39290 -0.18500
H 	H 	0.31370 0.66820 0.40310 0.07600
C 	C 	0.71110 0.65139 0.26900 -0.01000
H 	H 	0.68770 0.67690 0.23380 0.02000
H 	H 	0.77090 0.65750 0.32440 0.02300
N 	N 	0.74980 0.62417 0.19420 -0.13300
C 	C 	0.74310 0.62662 0.08860 0.27500
C 	C 	0.79510 0.59291 0.05540 -0.30300
C 	C 	0.83140 0.57121 0.14670 0.31100
C 	C 	0.89280 0.53247 0.15700 -0.70500
H 	H 	0.92740 0.52950 0.22880 0.23500
H 	H 	0.94880 0.53240 0.10880 0.23800
H 	H 	0.84250 0.51000 0.14010 0.23100
C 	C 	0.68710 0.66039 0.02930 -0.60100
H 	H 	0.61370 0.66360 0.05010 0.18200
H 	H 	0.68220 0.65460 0.95440 0.18600
H 	H 	0.72850 0.68530 0.04430 0.18500
O 	O 	0.97306 0.55648 0.40563 -0.47400
O 	O 	0.94530 0.62174 0.41760 -0.30700
C 	C 	0.00800 0.59279 0.40720 0.23100
C 	C 	0.12520 0.59910 0.39230 -0.12600
C 	C 	0.18570 0.56699 0.36200 0.05900
H 	H 	0.15280 0.54130 0.35070 0.00800
C 	C 	0.17280 0.63689 0.40500 0.06500
H 	H 	0.13010 0.65920 0.42220 -0.00500
C 	C 	0.70260 0.44445 0.33530 -0.23700
C 	C 	0.77150 0.47996 0.36910 0.43100
O 	O 	0.73170 0.51414 0.35490 -0.49800
C 	C 	0.80970 0.58259 0.94660 0.31100
O 	O 	0.86780 0.47290 0.41000 -0.45300
N 	N 	0.37620 0.29315 0.26010 -0.24800
C 	C 	0.37420 0.34390 0.39830 -0.64800
H 	H 	0.30270 0.33230 0.40620 0.16900
H 	H 	0.36730 0.37310 0.38950 0.21700
H 	H 	0.42460 0.33800 0.46070 0.20100
C 	C 	0.59630 0.31295 0.10180 -0.66300
H 	H 	0.65110 0.29230 0.12270 0.20200
H 	H 	0.63180 0.33930 0.10040 0.21000
H 	H 	0.56000 0.30670 0.03220 0.19500
O 	O 	0.79870 0.57439 0.55990 -0.50200
O 	O 	0.90250 0.52333 0.61250 -0.47600
C 	C 	0.83440 0.56284 0.73950 -0.25100
C 	C 	0.84830 0.55257 0.62860 0.47300
C 	C 	0.79560 0.54196 0.90850 -0.14000
H 	H 	0.77550 0.52150 0.95410 0.06900
C 	C 	0.82250 0.61132 0.87260 -0.00400
H 	H 	0.82440 0.63880 0.89300 0.01000
C 	C 	0.81070 0.53215 0.80580 0.04700
H 	H 	0.80500 0.50510 0.78210 0.01600
C 	C 	0.83290 0.60201 0.76920 -0.04600
H 	H 	0.83890 0.62280 0.71970 0.03500
C 	C 	0.91670 0.56870 0.92410 -0.22800
H 	H 	0.97630 0.56650 0.97710 0.10100
C 	C 	0.92650 0.55890 0.82050 0.13300
H 	H 	0.99440 0.54940 0.80210 -0.00100
C 	C 	0.74470 0.57910 0.77290 0.23100
H 	H 	0.68220 0.58200 0.72340 -0.06200
C 	C 	0.73700 0.59180 0.87370 -0.34000
H 	H 	0.67640 0.60750 0.88840 0.12700
Mn	Mn	0.79958 0.93016 0.39805 1.28800
C 	C 	0.59950 0.05168 0.28880 0.15900
H 	H 	0.57000 0.02550 0.27640 -0.02900
C 	C 	0.53670 0.08447 0.25910 -0.26700
H 	H 	0.46610 0.08040 0.22310 0.11400
C 	C 	0.67800 0.12655 0.32230 -0.26100
H 	H 	0.70770 0.15270 0.33460 0.11200
C 	C 	0.74290 0.09397 0.34790 0.16200
H 	H 	0.81680 0.09790 0.37490 -0.00800
C 	C 	0.50250 0.15925 0.25410 -0.28800
C 	C 	0.51720 0.18616 0.17550 0.28700
N 	N 	0.43600 0.21397 0.18040 -0.14600
C 	C 	0.41670 0.17377 0.30550 0.27500
C 	C 	0.57240 0.12312 0.27970 0.22900
N 	N 	0.64070 0.89893 0.37780 -0.24100
N 	N 	0.80280 0.91006 0.23010 -0.23300
N 	N 	0.62020 0.86614 0.31550 -0.13300
C 	C 	0.51180 0.85744 0.30060 0.23700
C 	C 	0.46120 0.88597 0.35590 -0.25000
C 	C 	0.54380 0.91141 0.40140 0.28100
C 	C 	0.53600 0.94683 0.47080 -0.69300
H 	H 	0.54790 0.97150 0.43220 0.22300
H 	H 	0.46350 0.94760 0.49480 0.22800
H 	H 	0.59140 0.94470 0.53120 0.21700
C 	C 	0.46630 0.82273 0.23680 -0.56700
H 	H 	0.47190 0.79830 0.27950 0.16600
H 	H 	0.38970 0.82790 0.21220 0.17400
H 	H 	0.50750 0.81920 0.17670 0.16700
C 	C 	0.34380 0.89024 0.36570 0.16200
C 	C 	0.29350 0.92768 0.34830 -0.18100
H 	H 	0.33440 0.94980 0.32670 0.08500
C 	C 	0.28150 0.85764 0.39290 -0.18500
H 	H 	0.31370 0.83180 0.40310 0.07600
C 	C 	0.71110 0.84861 0.26900 -0.01000
H 	H 	0.68770 0.82310 0.23380 0.01900
H 	H 	0.77090 0.84250 0.32440 0.02300
N 	N 	0.74980 0.87583 0.19420 -0.13300
C 	C 	0.74310 0.87338 0.08860 0.27500
C 	C 	0.79510 0.90709 0.05540 -0.30300
C 	C 	0.83140 0.92879 0.14670 0.31400
C 	C 	0.89280 0.96753 0.15700 -0.71400
H 	H 	0.92740 0.97050 0.22880 0.24000
H 	H 	0.94880 0.96760 0.10880 0.24300
H 	H 	0.84250 0.99000 0.14010 0.23700
C 	C 	0.68710 0.83961 0.02930 -0.60100
H 	H 	0.61370 0.83640 0.05010 0.18300
H 	H 	0.68220 0.84540 0.95440 0.18600
H 	H 	0.72850 0.81470 0.04430 0.18500
O 	O 	0.97306 0.94352 0.40563 -0.47100
O 	O 	0.94530 0.87826 0.41760 -0.30700
C 	C 	0.00800 0.90721 0.40720 0.23000
C 	C 	0.12520 0.90090 0.39230 -0.12500
C 	C 	0.18570 0.93301 0.36200 0.05900
H 	H 	0.15280 0.95870 0.35070 0.01200
C 	C 	0.17280 0.86311 0.40500 0.06500
H 	H 	0.13010 0.84080 0.42220 -0.00500
C 	C 	0.70260 0.05555 0.33530 -0.23200
C 	C 	0.77150 0.02004 0.36910 0.41400
O 	O 	0.73170 0.98586 0.35490 -0.48500
C 	C 	0.80970 0.91741 0.94660 0.31100
O 	O 	0.86780 0.02710 0.41000 -0.45300
N 	N 	0.37620 0.20685 0.26010 -0.24800
C 	C 	0.37420 0.15610 0.39830 -0.64700
H 	H 	0.30270 0.16770 0.40620 0.16900
H 	H 	0.36730 0.12690 0.38950 0.21700
H 	H 	0.42460 0.16200 0.46070 0.20100
C 	C 	0.59630 0.18705 0.10180 -0.66100
H 	H 	0.65110 0.20770 0.12270 0.20100
H 	H 	0.63180 0.16070 0.10040 0.20900
H 	H 	0.56000 0.19330 0.03220 0.19500
O 	O 	0.79870 0.92561 0.55990 -0.50100
O 	O 	0.90250 0.97667 0.61250 -0.47000
C 	C 	0.83440 0.93716 0.73950 -0.24900
C 	C 	0.84830 0.94743 0.62860 0.47200
C 	C 	0.79560 0.95804 0.90850 -0.13900
H 	H 	0.77550 0.97850 0.95410 0.07100
C 	C 	0.82250 0.88868 0.87260 -0.00300
H 	H 	0.82440 0.86120 0.89300 0.01000
C 	C 	0.81070 0.96785 0.80580 0.04600
H 	H 	0.80500 0.99490 0.78210 0.02000
C 	C 	0.83290 0.89799 0.76920 -0.04700
H 	H 	0.83890 0.87720 0.71970 0.03600
C 	C 	0.91670 0.93130 0.92410 -0.22800
H 	H 	0.97630 0.93350 0.97710 0.10200
C 	C 	0.92650 0.94110 0.82050 0.13300
H 	H 	0.99440 0.95060 0.80210 0.00200
C 	C 	0.74470 0.92090 0.77290 0.23100
H 	H 	0.68220 0.91800 0.72340 -0.06200
C 	C 	0.73700 0.90820 0.87370 -0.33900
H 	H 	0.67640 0.89250 0.88840 0.12700
Mn	Mn	0.20042 0.43016 0.60195 1.28800
C 	C 	0.40050 0.55168 0.71120 0.16900
H 	H 	0.43000 0.52550 0.72360 -0.02900
C 	C 	0.46330 0.58447 0.74090 -0.27500
H 	H 	0.53390 0.58040 0.77690 0.11600
C 	C 	0.32200 0.62655 0.67770 -0.27100
H 	H 	0.29230 0.65270 0.66540 0.10700
C 	C 	0.25710 0.59397 0.65210 0.17000
H 	H 	0.18320 0.59790 0.62510 -0.02500
C 	C 	0.49750 0.65925 0.74590 -0.28800
C 	C 	0.48280 0.68616 0.82450 0.27700
N 	N 	0.56400 0.71397 0.81960 -0.14400
C 	C 	0.58330 0.67377 0.69450 0.27700
C 	C 	0.42760 0.62312 0.72030 0.23200
N 	N 	0.35930 0.39893 0.62220 -0.24100
N 	N 	0.19720 0.41006 0.76990 -0.23300
N 	N 	0.37980 0.36614 0.68450 -0.13500
C 	C 	0.48820 0.35744 0.69940 0.24600
C 	C 	0.53880 0.38597 0.64410 -0.26300
C 	C 	0.45620 0.41141 0.59860 0.28400
C 	C 	0.46400 0.44683 0.52920 -0.69300
H 	H 	0.45210 0.47150 0.56780 0.22000
H 	H 	0.53650 0.44760 0.50520 0.22600
H 	H 	0.40860 0.44470 0.46880 0.21600
C 	C 	0.53370 0.32273 0.76320 -0.58200
H 	H 	0.52810 0.29830 0.72050 0.17100
H 	H 	0.61030 0.32790 0.78780 0.18400
H 	H 	0.49250 0.31920 0.82330 0.17100
C 	C 	0.65620 0.39024 0.63430 0.19400
C 	C 	0.70650 0.42768 0.65170 -0.22100
H 	H 	0.66560 0.44980 0.67330 0.09800
C 	C 	0.71850 0.35764 0.60710 -0.22200
H 	H 	0.68630 0.33180 0.59690 0.09300
C 	C 	0.28890 0.34861 0.73100 -0.00800
H 	H 	0.31230 0.32310 0.76620 0.01500
H 	H 	0.22910 0.34250 0.67560 0.01800
N 	N 	0.25020 0.37583 0.80580 -0.13500
C 	C 	0.25690 0.37338 0.91140 0.26900
C 	C 	0.20490 0.40709 0.94460 -0.30300
C 	C 	0.16860 0.42879 0.85330 0.28600
C 	C 	0.10720 0.46753 0.84300 -0.64700
H 	H 	0.07260 0.47050 0.77120 0.19700
H 	H 	0.05120 0.46760 0.89120 0.19500
H 	H 	0.15750 0.49000 0.85990 0.20200
C 	C 	0.31290 0.33961 0.97070 -0.60200
H 	H 	0.38630 0.33640 0.94990 0.18200
H 	H 	0.31780 0.34540 0.04560 0.18700
H 	H 	0.27150 0.31470 0.95570 0.17800
O 	O 	0.02694 0.44352 0.59437 -0.60900
O 	O 	0.05470 0.37826 0.58240 -0.44000
C 	C 	0.99200 0.40721 0.59280 0.48400
C 	C 	0.87480 0.40090 0.60770 -0.20700
C 	C 	0.81430 0.43301 0.63800 0.12700
H 	H 	0.84720 0.45870 0.64930 0.00100
C 	C 	0.82720 0.36311 0.59500 0.13100
H 	H 	0.86990 0.34080 0.57780 -0.00300
C 	C 	0.29740 0.55555 0.66470 -0.24900
C 	C 	0.22850 0.52004 0.63090 0.43900
O 	O 	0.26830 0.48586 0.64510 -0.50100
C 	C 	0.19030 0.41741 0.05340 0.31700
O 	O 	0.13220 0.52710 0.59000 -0.48200
N 	N 	0.62380 0.70685 0.73990 -0.24700
C 	C 	0.62580 0.65610 0.60170 -0.65300
H 	H 	0.69730 0.66770 0.59380 0.17500
H 	H 	0.63270 0.62690 0.61050 0.21900
H 	H 	0.57540 0.66200 0.53930 0.20300
C 	C 	0.40370 0.68705 0.89820 -0.63700
H 	H 	0.34890 0.70770 0.87730 0.18500
H 	H 	0.36820 0.66070 0.89960 0.19500
H 	H 	0.44000 0.69330 0.96780 0.18400
O 	O 	0.20130 0.42561 0.44010 -0.50900
O 	O 	0.09750 0.47667 0.38750 -0.50900
C 	C 	0.16560 0.43716 0.26050 -0.26400
C 	C 	0.15170 0.44743 0.37140 0.47800
C 	C 	0.20440 0.45804 0.09150 -0.14300
H 	H 	0.22450 0.47850 0.04590 0.06500
C 	C 	0.17750 0.38868 0.12740 -0.00300
H 	H 	0.17560 0.36120 0.10700 0.00100
C 	C 	0.18930 0.46785 0.19420 0.04500
H 	H 	0.19500 0.49490 0.21790 0.00700
C 	C 	0.16710 0.39799 0.23080 -0.05400
H 	H 	0.16110 0.37720 0.28030 0.02800
C 	C 	0.08330 0.43130 0.07590 -0.24200
H 	H 	0.02370 0.43350 0.02290 0.08400
C 	C 	0.07350 0.44110 0.17950 0.13600
H 	H 	0.00560 0.45060 0.19790 -0.03500
C 	C 	0.25530 0.42090 0.22710 0.24600
H 	H 	0.31780 0.41800 0.27660 -0.06700
C 	C 	0.26300 0.40820 0.12630 -0.34900
H 	H 	0.32360 0.39250 0.11160 0.13100
Mn	Mn	0.00000 -0.00000 0.50000 1.29600
Mn	Mn	0.00000 0.50000 0.50000 1.30000
Rh	Rh	0.72975 0.75000 0.70573 0.75000
C 	C 	0.58180 0.75000 0.88530 -0.00900
H 	H 	0.65710 0.75000 0.92090 -0.00500
H 	H 	0.53090 0.75000 0.93930 0.00900
Rh	Rh	0.27025 0.25000 0.29427 0.73900
C 	C 	0.41820 0.25000 0.11470 -0.00700
H 	H 	0.34290 0.25000 0.07910 -0.00900
H 	H 	0.46910 0.25000 0.06070 0.01000
