data_crystal

_cell_length_a 12.35820
_cell_length_b 33.95090
_cell_length_c 12.95070
_cell_angle_alpha 90.00000
_cell_angle_beta  99.89000
_cell_angle_gamma 90.00000

_symmetry_space_group_name_	'P 1'
_symmetry_space_group_name_H-M	'P 1'

loop_
_symmetry_equiv_pos_as_xyz
  x,y,z

loop_
_atom_site_label
_atom_site_type_symbol
_atom_site_fract_x
_atom_site_fract_y
_atom_site_fract_z
_atom_site_charge
Mn	Mn	0.20143 0.06808 0.10695 1.27900
C 	C 	0.30170 0.14440 0.24760 0.00800
H 	H 	0.32830 0.16860 0.28660 -0.00100
H 	H 	0.23900 0.15180 0.19280 0.01500
N 	N 	0.38820 0.12882 0.19820 -0.13500
N 	N 	0.36240 0.09860 0.13060 -0.24700
C 	C 	0.45730 0.08760 0.10330 0.30800
C 	C 	0.54270 0.11200 0.15300 -0.28500
C 	C 	0.49740 0.13730 0.21450 0.25000
C 	C 	0.45650 0.05380 0.02770 -0.84400
H 	H 	0.45170 0.02890 0.06480 0.25700
H 	H 	0.52420 0.05420 0.99790 0.28400
H 	H 	0.39300 0.05630 0.97120 0.27000
C 	C 	0.55050 0.16840 0.28920 -0.56200
H 	H 	0.62950 0.16920 0.28800 0.16900
H 	H 	0.53840 0.16230 0.36030 0.15600
H 	H 	0.51800 0.19410 0.26800 0.16500
C 	C 	0.66030 0.10750 0.14210 0.20800
C 	C 	0.71000 0.07030 0.14980 -0.24600
H 	H 	0.66890 0.04800 0.16490 0.10100
C 	C 	0.81520 0.06550 0.13620 0.14300
H 	H 	0.84640 0.03980 0.14180 -0.01000
C 	C 	0.87830 0.09680 0.11450 -0.22300
C 	C 	0.82850 0.13480 0.10630 0.14600
H 	H 	0.86880 0.15710 0.09010 -0.03000
C 	C 	0.72440 0.13900 0.12150 -0.25500
H 	H 	0.69340 0.16470 0.11790 0.10000
C 	C 	0.99300 0.09050 0.10120 0.43500
O 	O 	0.02720 0.05505 0.09640 -0.59500
O 	O 	0.05800 0.11958 0.09990 -0.42500
N 	N 	0.26410 0.11713 0.31850 -0.16200
N 	N 	0.21160 0.08395 0.28050 -0.23100
C 	C 	0.18290 0.06520 0.36130 0.29300
C 	C 	0.21350 0.08720 0.45320 -0.32100
C 	C 	0.26960 0.12010 0.42360 0.38700
C 	C 	0.12440 0.02700 0.34740 -0.65500
H 	H 	0.10250 0.02150 0.27250 0.19900
H 	H 	0.05890 0.02820 0.38060 0.20200
H 	H 	0.17310 0.00600 0.38000 0.20200
C 	C 	0.32700 0.15370 0.48620 -1.14300
H 	H 	0.32140 0.15040 0.56020 0.20000
H 	H 	0.29250 0.17860 0.46030 0.18500
H 	H 	0.40460 0.15400 0.47860 0.19000
C 	C 	0.19750 0.07700 0.56140 0.20900
C 	C 	0.20050 0.03950 0.59790 -0.23500
H 	H 	0.21450 0.01840 0.55390 0.09200
C 	C 	0.18270 0.03140 0.70250 0.11200
H 	H 	0.18380 0.00500 0.72710 -0.01600
C 	C 	0.16410 0.06180 0.76690 -0.21000
C 	C 	0.16320 0.09940 0.73030 0.11500
H 	H 	0.15370 0.12050 0.77610 -0.02500
C 	C 	0.17570 0.10780 0.62830 -0.23500
H 	H 	0.16970 0.13420 0.60350 0.06500
C 	C 	0.15080 0.05360 0.87630 0.40300
O 	O 	0.10540 0.02191 0.89520 -0.46500
O 	O 	0.18620 0.07925 0.94370 -0.47200
N 	N 	0.56050 0.78447 0.30510 -0.12500
N 	N 	0.62290 0.79258 0.23060 -0.16400
C 	C 	0.58330 0.82760 0.18510 0.24400
C 	C 	0.49830 0.84100 0.23560 -0.24300
C 	C 	0.48480 0.81320 0.30920 0.20300
C 	C 	0.62480 0.84620 0.09300 -0.61500
H 	H 	0.68320 0.86510 0.11880 0.20900
H 	H 	0.56430 0.85980 0.04840 0.20400
H 	H 	0.65400 0.82560 0.05230 0.19900
C 	C 	0.40790 0.81090 0.38750 -0.51600
H 	H 	0.35330 0.79020 0.36640 0.14100
H 	H 	0.37060 0.83620 0.39020 0.14900
H 	H 	0.44990 0.80470 0.45690 0.13300
C 	C 	0.43220 0.87660 0.21030 0.18700
C 	C 	0.32070 0.87440 0.17800 -0.23100
H 	H 	0.28660 0.84930 0.17650 0.09000
C 	C 	0.25660 0.90630 0.14800 0.12800
H 	H 	0.18190 0.90290 0.11660 -0.01600
C 	C 	0.30080 0.94360 0.16350 -0.20400
C 	C 	0.41540 0.94710 0.20080 0.11000
H 	H 	0.44810 0.97250 0.20980 -0.01000
C 	C 	0.47970 0.91410 0.22430 -0.22400
H 	H 	0.55610 0.91680 0.24990 0.09800
C 	C 	0.23290 0.97830 0.13230 0.40000
O 	O 	0.27540 0.01333 0.13980 -0.49200
O 	O 	0.13030 0.97305 0.10080 -0.47100
C 	C 	0.83000 0.79000 0.15670 -0.28600
C 	C 	0.90560 0.80670 0.15250 0.13400
C 	C 	0.99540 0.83240 0.11530 -0.32800
H 	H 	0.96330 0.85750 0.08840 0.13700
H 	H 	0.02470 0.81850 0.05970 0.08200
H 	H 	0.05480 0.83730 0.17440 0.06800
O 	O 	0.84510 0.78320 0.38110 -0.38500
C 	C 	0.84510 0.71000 0.39660 -1.06800
H 	H 	0.76930 0.70180 0.39790 0.45200
H 	H 	0.87950 0.71860 0.46680 -0.55600
H 	H 	0.88630 0.68780 0.37460 0.34900
H 	H 	0.35760 0.17170 0.43920 0.18700
H 	H 	0.38650 0.14340 0.53910 0.20000
H 	H 	0.27440 0.16800 0.52080 0.17800
H 	H 	0.77150 0.72490 0.96020 0.05200
H 	H 	0.78500 0.77170 0.97130 0.04900
H 	H 	0.68590 0.75340 0.88940 0.03900
N 	N 	0.83000 0.71000 0.15670 -0.24900
Mn	Mn	0.79857 0.56808 0.89305 1.28700
C 	C 	0.69830 0.64440 0.75240 0.00400
H 	H 	0.67170 0.66860 0.71340 0.00100
H 	H 	0.76100 0.65180 0.80720 0.02200
N 	N 	0.61180 0.62882 0.80180 -0.13000
N 	N 	0.63760 0.59860 0.86940 -0.22300
C 	C 	0.54270 0.58760 0.89670 0.21600
C 	C 	0.45730 0.61200 0.84700 -0.21900
C 	C 	0.50260 0.63730 0.78550 0.22400
C 	C 	0.54350 0.55380 0.97230 -0.47800
H 	H 	0.54830 0.52890 0.93520 0.16300
H 	H 	0.47580 0.55420 0.00210 0.14700
H 	H 	0.60700 0.55630 0.02880 0.13800
C 	C 	0.44950 0.66840 0.71080 -0.53200
H 	H 	0.37050 0.66920 0.71200 0.15900
H 	H 	0.46160 0.66230 0.63970 0.14700
H 	H 	0.48200 0.69410 0.73200 0.15500
C 	C 	0.33970 0.60750 0.85790 0.16200
C 	C 	0.29000 0.57030 0.85020 -0.18700
H 	H 	0.33110 0.54800 0.83510 0.08800
C 	C 	0.18480 0.56550 0.86380 0.08400
H 	H 	0.15360 0.53980 0.85820 0.00900
C 	C 	0.12170 0.59680 0.88550 -0.14800
C 	C 	0.17150 0.63480 0.89370 0.08800
H 	H 	0.13120 0.65710 0.90990 -0.00500
C 	C 	0.27560 0.63900 0.87850 -0.19700
H 	H 	0.30660 0.66470 0.88210 0.08600
C 	C 	0.00700 0.59050 0.89880 0.28600
O 	O 	0.97280 0.55505 0.90360 -0.50100
O 	O 	0.94200 0.61958 0.90010 -0.32800
N 	N 	0.73590 0.61713 0.68150 -0.16300
N 	N 	0.78840 0.58395 0.71950 -0.23200
C 	C 	0.81710 0.56520 0.63870 0.31500
C 	C 	0.78650 0.58720 0.54680 -0.33100
C 	C 	0.73040 0.62010 0.57640 0.40600
C 	C 	0.87560 0.52700 0.65260 -0.69800
H 	H 	0.89750 0.52150 0.72750 0.22200
H 	H 	0.94110 0.52820 0.61940 0.23300
H 	H 	0.82690 0.50600 0.62000 0.22200
C 	C 	0.67300 0.65370 0.51380 -1.19600
H 	H 	0.67860 0.65040 0.43980 0.20900
H 	H 	0.70750 0.67860 0.53970 0.19800
H 	H 	0.59540 0.65400 0.52140 0.19900
C 	C 	0.80250 0.57700 0.43860 0.21900
C 	C 	0.79950 0.53950 0.40210 -0.23300
H 	H 	0.78550 0.51840 0.44610 0.09800
C 	C 	0.81730 0.53140 0.29750 0.11800
H 	H 	0.81620 0.50500 0.27290 -0.00800
C 	C 	0.83590 0.56180 0.23310 -0.20300
C 	C 	0.83680 0.59940 0.26970 0.12300
H 	H 	0.84630 0.62050 0.22390 -0.02000
C 	C 	0.82430 0.60780 0.37170 -0.23300
H 	H 	0.83030 0.63420 0.39650 0.07300
C 	C 	0.84920 0.55360 0.12370 0.40900
O 	O 	0.89460 0.52191 0.10480 -0.45500
O 	O 	0.81380 0.57925 0.05630 -0.48400
N 	N 	0.43950 0.28447 0.69490 -0.12200
N 	N 	0.37710 0.29258 0.76940 -0.15600
C 	C 	0.41670 0.32760 0.81490 0.25400
C 	C 	0.50170 0.34100 0.76440 -0.24200
C 	C 	0.51520 0.31320 0.69080 0.20200
C 	C 	0.37520 0.34620 0.90700 -0.64800
H 	H 	0.31680 0.36510 0.88120 0.22200
H 	H 	0.43570 0.35980 0.95160 0.22800
H 	H 	0.34600 0.32560 0.94770 0.22400
C 	C 	0.59210 0.31090 0.61250 -0.51200
H 	H 	0.64670 0.29020 0.63360 0.13800
H 	H 	0.62940 0.33620 0.60980 0.14800
H 	H 	0.55010 0.30470 0.54310 0.13100
C 	C 	0.56780 0.37660 0.78970 0.18500
C 	C 	0.67930 0.37440 0.82200 -0.21900
H 	H 	0.71340 0.34930 0.82350 0.08900
C 	C 	0.74340 0.40630 0.85200 0.11800
H 	H 	0.81810 0.40290 0.88340 -0.00100
C 	C 	0.69920 0.44360 0.83650 -0.18700
C 	C 	0.58460 0.44710 0.79920 0.09900
H 	H 	0.55190 0.47250 0.79020 -0.00700
C 	C 	0.52030 0.41410 0.77570 -0.21800
H 	H 	0.44390 0.41680 0.75010 0.09600
C 	C 	0.76710 0.47830 0.86770 0.38100
O 	O 	0.72460 0.51333 0.86020 -0.47000
O 	O 	0.86970 0.47305 0.89920 -0.44300
C 	C 	0.17000 0.29000 0.84330 -0.34500
C 	C 	0.09440 0.30670 0.84750 0.23500
C 	C 	0.00460 0.33240 0.88470 -0.77400
H 	H 	0.03670 0.35750 0.91160 0.26000
H 	H 	0.97530 0.31850 0.94030 0.25900
H 	H 	0.94520 0.33730 0.82560 0.22700
O 	O 	0.15490 0.28320 0.61890 -0.51000
C 	C 	0.15490 0.21000 0.60340 -1.30900
H 	H 	0.23070 0.20180 0.60210 0.57500
H 	H 	0.12050 0.21860 0.53320 -0.78800
H 	H 	0.11370 0.18780 0.62540 0.41700
H 	H 	0.64240 0.67170 0.56080 0.19600
H 	H 	0.61350 0.64340 0.46090 0.20900
H 	H 	0.72560 0.66800 0.47920 0.19100
H 	H 	0.22850 0.22490 0.03980 0.02900
H 	H 	0.21500 0.27170 0.02870 0.04400
H 	H 	0.31410 0.25340 0.11060 0.05200
N 	N 	0.17000 0.21000 0.84330 -0.27400
Mn	Mn	0.79857 0.93192 0.89305 1.28700
C 	C 	0.69830 0.85560 0.75240 0.00400
H 	H 	0.67170 0.83140 0.71340 0.00100
H 	H 	0.76100 0.84820 0.80720 0.02200
N 	N 	0.61180 0.87118 0.80180 -0.13000
N 	N 	0.63760 0.90140 0.86940 -0.22400
C 	C 	0.54270 0.91240 0.89670 0.21900
C 	C 	0.45730 0.88800 0.84700 -0.22000
C 	C 	0.50260 0.86270 0.78550 0.22500
C 	C 	0.54350 0.94620 0.97230 -0.48600
H 	H 	0.54830 0.97110 0.93520 0.16800
H 	H 	0.47580 0.94580 0.00210 0.15100
H 	H 	0.60700 0.94370 0.02880 0.14100
C 	C 	0.44950 0.83160 0.71080 -0.53300
H 	H 	0.37050 0.83080 0.71200 0.15900
H 	H 	0.46160 0.83770 0.63970 0.14800
H 	H 	0.48200 0.80590 0.73200 0.15500
C 	C 	0.33970 0.89250 0.85790 0.16300
C 	C 	0.29000 0.92970 0.85020 -0.18600
H 	H 	0.33110 0.95200 0.83510 0.09000
C 	C 	0.18480 0.93450 0.86380 0.08300
H 	H 	0.15360 0.96020 0.85820 0.01200
C 	C 	0.12170 0.90320 0.88550 -0.14700
C 	C 	0.17150 0.86520 0.89370 0.08800
H 	H 	0.13120 0.84290 0.90990 -0.00500
C 	C 	0.27560 0.86100 0.87850 -0.19700
H 	H 	0.30660 0.83530 0.88210 0.08600
C 	C 	0.00700 0.90950 0.89880 0.28500
O 	O 	0.97280 0.94495 0.90360 -0.49800
O 	O 	0.94200 0.88042 0.90010 -0.32800
N 	N 	0.73590 0.88287 0.68150 -0.16300
N 	N 	0.78840 0.91605 0.71950 -0.23200
C 	C 	0.81710 0.93480 0.63870 0.31900
C 	C 	0.78650 0.91280 0.54680 -0.33200
C 	C 	0.73040 0.87990 0.57640 0.40700
C 	C 	0.87560 0.97300 0.65260 -0.70800
H 	H 	0.89750 0.97850 0.72750 0.22800
H 	H 	0.94110 0.97180 0.61940 0.23800
H 	H 	0.82690 0.99400 0.62000 0.22800
C 	C 	0.67300 0.84630 0.51380 -1.19800
H 	H 	0.67860 0.84960 0.43980 0.21000
H 	H 	0.70750 0.82140 0.53970 0.19800
H 	H 	0.59540 0.84600 0.52140 0.20000
C 	C 	0.80250 0.92300 0.43860 0.21900
C 	C 	0.79950 0.96050 0.40210 -0.23200
H 	H 	0.78550 0.98160 0.44610 0.10000
C 	C 	0.81730 0.96860 0.29750 0.11800
H 	H 	0.81620 0.99500 0.27290 -0.00400
C 	C 	0.83590 0.93820 0.23310 -0.20100
C 	C 	0.83680 0.90060 0.26970 0.12200
H 	H 	0.84630 0.87950 0.22390 -0.01900
C 	C 	0.82430 0.89220 0.37170 -0.23200
H 	H 	0.83030 0.86580 0.39650 0.07300
C 	C 	0.84920 0.94640 0.12370 0.40800
O 	O 	0.89460 0.97809 0.10480 -0.44900
O 	O 	0.81380 0.92075 0.05630 -0.48300
N 	N 	0.43950 0.21553 0.69490 -0.12200
N 	N 	0.37710 0.20742 0.76940 -0.15700
C 	C 	0.41670 0.17240 0.81490 0.25100
C 	C 	0.50170 0.15900 0.76440 -0.24000
C 	C 	0.51520 0.18680 0.69080 0.20100
C 	C 	0.37520 0.15380 0.90700 -0.64100
H 	H 	0.31680 0.13490 0.88120 0.21800
H 	H 	0.43570 0.14020 0.95160 0.22600
H 	H 	0.34600 0.17440 0.94770 0.21900
C 	C 	0.59210 0.18910 0.61250 -0.51100
H 	H 	0.64670 0.20980 0.63360 0.13800
H 	H 	0.62940 0.16380 0.60980 0.14700
H 	H 	0.55010 0.19530 0.54310 0.13100
C 	C 	0.56780 0.12340 0.78970 0.18200
C 	C 	0.67930 0.12560 0.82200 -0.21600
H 	H 	0.71340 0.15070 0.82350 0.08800
C 	C 	0.74340 0.09370 0.85200 0.11500
H 	H 	0.81810 0.09710 0.88340 0.00000
C 	C 	0.69920 0.05640 0.83650 -0.18400
C 	C 	0.58460 0.05290 0.79920 0.09500
H 	H 	0.55190 0.02750 0.79020 -0.00900
C 	C 	0.52030 0.08590 0.77570 -0.21600
H 	H 	0.44390 0.08320 0.75010 0.09500
C 	C 	0.76710 0.02170 0.86770 0.36700
O 	O 	0.72460 0.98667 0.86020 -0.45900
O 	O 	0.86970 0.02695 0.89920 -0.44300
C 	C 	0.09440 0.19330 0.84750 0.18600
C 	C 	0.00460 0.16760 0.88470 -0.72400
H 	H 	0.03670 0.14250 0.91160 0.24500
H 	H 	0.97530 0.18150 0.94030 0.24500
H 	H 	0.94520 0.16270 0.82560 0.21200
O 	O 	0.15490 0.21680 0.61890 -0.50800
C 	C 	0.15490 0.29000 0.60340 -1.30800
H 	H 	0.23070 0.29820 0.60210 0.57600
H 	H 	0.12050 0.28140 0.53320 -0.78800
H 	H 	0.11370 0.31220 0.62540 0.41800
H 	H 	0.64240 0.82830 0.56080 0.19700
H 	H 	0.61350 0.85660 0.46090 0.20900
H 	H 	0.72560 0.83200 0.47920 0.19200
H 	H 	0.22850 0.27510 0.03980 0.02900
H 	H 	0.21500 0.22830 0.02870 0.04300
H 	H 	0.31410 0.24660 0.11060 0.05200
Mn	Mn	0.20143 0.43192 0.10695 1.27800
C 	C 	0.30170 0.35560 0.24760 0.00700
H 	H 	0.32830 0.33140 0.28660 -0.00200
H 	H 	0.23900 0.34820 0.19280 0.01400
N 	N 	0.38820 0.37118 0.19820 -0.13600
N 	N 	0.36240 0.40140 0.13060 -0.24800
C 	C 	0.45730 0.41240 0.10330 0.31000
C 	C 	0.54270 0.38800 0.15300 -0.28500
C 	C 	0.49740 0.36270 0.21450 0.25100
C 	C 	0.45650 0.44620 0.02770 -0.84900
H 	H 	0.45170 0.47110 0.06480 0.26100
H 	H 	0.52420 0.44580 0.99790 0.28700
H 	H 	0.39300 0.44370 0.97120 0.27200
C 	C 	0.55050 0.33160 0.28920 -0.56200
H 	H 	0.62950 0.33080 0.28800 0.16900
H 	H 	0.53840 0.33770 0.36030 0.15700
H 	H 	0.51800 0.30590 0.26800 0.16500
C 	C 	0.66030 0.39250 0.14210 0.20900
C 	C 	0.71000 0.42970 0.14980 -0.24500
H 	H 	0.66890 0.45200 0.16490 0.10300
C 	C 	0.81520 0.43450 0.13620 0.14300
H 	H 	0.84640 0.46020 0.14180 -0.00700
C 	C 	0.87830 0.40320 0.11450 -0.22300
C 	C 	0.82850 0.36520 0.10630 0.14600
H 	H 	0.86880 0.34290 0.09010 -0.03000
C 	C 	0.72440 0.36100 0.12150 -0.25500
H 	H 	0.69340 0.33530 0.11790 0.10000
C 	C 	0.99300 0.40950 0.10120 0.43500
O 	O 	0.02720 0.44495 0.09640 -0.59400
O 	O 	0.05800 0.38042 0.09990 -0.42500
N 	N 	0.26410 0.38287 0.31850 -0.16200
N 	N 	0.21160 0.41605 0.28050 -0.23100
C 	C 	0.18290 0.43480 0.36130 0.29700
C 	C 	0.21350 0.41280 0.45320 -0.32200
C 	C 	0.26960 0.37990 0.42360 0.38800
C 	C 	0.12440 0.47300 0.34740 -0.66500
H 	H 	0.10250 0.47850 0.27250 0.20400
H 	H 	0.05890 0.47180 0.38060 0.20700
H 	H 	0.17310 0.49400 0.38000 0.20800
C 	C 	0.32700 0.34630 0.48620 -1.14600
H 	H 	0.32140 0.34960 0.56020 0.20000
H 	H 	0.29250 0.32140 0.46030 0.18600
H 	H 	0.40460 0.34600 0.47860 0.19100
C 	C 	0.19750 0.42300 0.56140 0.20900
C 	C 	0.20050 0.46050 0.59790 -0.23400
H 	H 	0.21450 0.48160 0.55390 0.09400
C 	C 	0.18270 0.46860 0.70250 0.11100
H 	H 	0.18380 0.49500 0.72710 -0.01200
C 	C 	0.16410 0.43820 0.76690 -0.20800
C 	C 	0.16320 0.40060 0.73030 0.11400
H 	H 	0.15370 0.37950 0.77610 -0.02400
C 	C 	0.17570 0.39220 0.62830 -0.23400
H 	H 	0.16970 0.36580 0.60350 0.06600
C 	C 	0.15080 0.44640 0.87630 0.40200
O 	O 	0.10540 0.47809 0.89520 -0.46000
O 	O 	0.18620 0.42075 0.94370 -0.47200
N 	N 	0.56050 0.71553 0.30510 -0.12500
N 	N 	0.62290 0.70742 0.23060 -0.16500
C 	C 	0.58330 0.67240 0.18510 0.24200
C 	C 	0.49830 0.65900 0.23560 -0.24100
C 	C 	0.48480 0.68680 0.30920 0.20200
C 	C 	0.62480 0.65380 0.09300 -0.60900
H 	H 	0.68320 0.63490 0.11880 0.20700
H 	H 	0.56430 0.64020 0.04840 0.20300
H 	H 	0.65400 0.67440 0.05230 0.19700
C 	C 	0.40790 0.68910 0.38750 -0.51500
H 	H 	0.35330 0.70980 0.36640 0.14100
H 	H 	0.37060 0.66380 0.39020 0.14900
H 	H 	0.44990 0.69530 0.45690 0.13300
C 	C 	0.43220 0.62340 0.21030 0.18500
C 	C 	0.32070 0.62560 0.17800 -0.22900
H 	H 	0.28660 0.65070 0.17650 0.08900
C 	C 	0.25660 0.59370 0.14800 0.12500
H 	H 	0.18190 0.59710 0.11660 -0.01500
C 	C 	0.30080 0.55640 0.16350 -0.20000
C 	C 	0.41540 0.55290 0.20080 0.10700
H 	H 	0.44810 0.52750 0.20980 -0.01200
C 	C 	0.47970 0.58590 0.22430 -0.22200
H 	H 	0.55610 0.58320 0.24990 0.09700
C 	C 	0.23290 0.52170 0.13230 0.38600
O 	O 	0.27540 0.48667 0.13980 -0.48100
O 	O 	0.13030 0.52695 0.10080 -0.47200
C 	C 	0.90560 0.69330 0.15250 0.11200
C 	C 	0.99540 0.66760 0.11530 -0.30300
H 	H 	0.96330 0.64250 0.08840 0.13000
H 	H 	0.02470 0.68150 0.05970 0.07500
H 	H 	0.05480 0.66270 0.17440 0.06100
O 	O 	0.84510 0.71680 0.38110 -0.38400
C 	C 	0.84510 0.79000 0.39660 -1.06700
H 	H 	0.76930 0.79820 0.39790 0.45300
H 	H 	0.87950 0.78140 0.46680 -0.55600
H 	H 	0.88630 0.81220 0.37460 0.35000
H 	H 	0.35760 0.32830 0.43920 0.18700
H 	H 	0.38650 0.35660 0.53910 0.20100
H 	H 	0.27440 0.33200 0.52080 0.17800
H 	H 	0.77150 0.77510 0.96020 0.05200
H 	H 	0.78500 0.72830 0.97130 0.04800
H 	H 	0.68590 0.74660 0.88940 0.03900
Mn	Mn	-0.00000 0.00000 -0.00000 1.28500
Mn	Mn	-0.00000 0.50000 -0.00000 1.28900
Rh	Rh	0.72855 0.75000 0.19066 1.07800
I 	I 	0.87112 0.75000 0.40123 4.98600
C 	C 	0.58230 0.75000 0.36520 0.03000
H 	H 	0.66030 0.75000 0.39940 0.05800
H 	H 	0.53680 0.75000 0.42110 -0.01300
C 	C 	0.65800 0.75000 0.04500 -0.13300
C 	C 	0.73200 0.75000 0.95840 -0.30100
O 	O 	0.55720 0.75000 0.05210 -0.24400
I 	I 	0.60280 0.75000 0.97010 0.15000
C 	C 	0.80580 0.75000 0.34440 -2.55100
Rh	Rh	0.27145 0.25000 0.80934 1.12600
I 	I 	0.12888 0.25000 0.59877 6.65400
C 	C 	0.41770 0.25000 0.63480 0.03400
H 	H 	0.33970 0.25000 0.60060 0.07800
H 	H 	0.46320 0.25000 0.57890 -0.01700
C 	C 	0.34200 0.25000 0.95500 0.04700
C 	C 	0.26800 0.25000 0.04160 -0.28300
O 	O 	0.44280 0.25000 0.94790 -0.17200
I 	I 	0.39720 0.25000 0.02990 -0.15800
C 	C 	0.19420 0.25000 0.65560 -3.39700
