data_crystal

_cell_length_a 12.74600
_cell_length_b 12.74600
_cell_length_c 9.14000
_cell_angle_alpha 90.00000
_cell_angle_beta  90.00000
_cell_angle_gamma 120.00000

_symmetry_space_group_name_	'P 1'
_symmetry_space_group_name_H-M	'P 1'

loop_
_symmetry_equiv_pos_as_xyz
  x,y,z

loop_
_atom_site_label
_atom_site_type_symbol
_atom_site_fract_x
_atom_site_fract_y
_atom_site_fract_z
_atom_site_charge
Al	Al	0.67320 0.53040 0.41720 2.39200
P 	P 	0.45530 0.32170 0.61760 0.74700
O 	O 	0.55970 0.42140 0.53020 -0.87600
O 	O 	0.39980 0.20780 0.52290 -0.76300
O 	O 	0.36030 0.35930 0.64170 -0.75400
O 	O 	0.68090 0.45250 0.26000 -0.78900
O 	O 	0.50050 0.30510 0.76170 -0.49300
Al	Al	0.46960 0.14280 0.41720 2.39300
P 	P 	0.67830 0.13360 0.61760 0.74800
O 	O 	0.57860 0.13830 0.53020 -0.87600
O 	O 	0.79220 0.19200 0.52290 -0.76300
O 	O 	0.64070 0.00100 0.64170 -0.75400
O 	O 	0.54750 0.22840 0.26000 -0.78900
O 	O 	0.69490 0.19540 0.76170 -0.49300
Al	Al	0.85720 0.32680 0.41720 2.39300
P 	P 	0.86640 0.54470 0.61760 0.74800
O 	O 	0.86170 0.44030 0.53020 -0.87600
O 	O 	0.80800 0.60020 0.52290 -0.76300
O 	O 	0.99900 0.63970 0.64170 -0.75400
O 	O 	0.77160 0.31910 0.26000 -0.78900
O 	O 	0.80460 0.49950 0.76170 -0.49300
Al	Al	0.32680 0.46960 0.58280 2.39300
P 	P 	0.54470 0.67830 0.38240 0.74800
O 	O 	0.44030 0.57860 0.46980 -0.87600
O 	O 	0.60020 0.79220 0.47710 -0.76300
O 	O 	0.63970 0.64070 0.35830 -0.75400
O 	O 	0.31910 0.54750 0.74000 -0.78900
O 	O 	0.49950 0.69490 0.23830 -0.49300
Al	Al	0.53040 0.85720 0.58280 2.39300
P 	P 	0.32170 0.86640 0.38240 0.74800
O 	O 	0.42140 0.86170 0.46980 -0.87600
O 	O 	0.20780 0.80800 0.47710 -0.76300
O 	O 	0.35930 0.99900 0.35830 -0.75400
O 	O 	0.45250 0.77160 0.74000 -0.78900
O 	O 	0.30510 0.80460 0.23830 -0.49300
Al	Al	0.14280 0.67320 0.58280 2.39300
P 	P 	0.13360 0.45530 0.38240 0.74800
O 	O 	0.13830 0.55970 0.46980 -0.87600
O 	O 	0.19200 0.39980 0.47710 -0.76300
O 	O 	0.00100 0.36030 0.35830 -0.75400
O 	O 	0.22840 0.68090 0.74000 -0.78900
O 	O 	0.19540 0.50050 0.23830 -0.49300
Mn	Mn	0.66667 0.33333 0.82170 1.30200
P 	P 	0.66667 0.33333 0.20190 0.77300
O 	O 	0.66667 0.33333 0.04090 -0.47200
Mn	Mn	0.33333 0.66667 0.17830 1.30200
P 	P 	0.33333 0.66667 0.79810 0.77300
O 	O 	0.33333 0.66667 0.95910 -0.47200
