data_crystal

_cell_length_a 34.34130
_cell_length_b 10.04470
_cell_length_c 17.73820
_cell_angle_alpha 90.00000
_cell_angle_beta  96.23400
_cell_angle_gamma 90.00000

_symmetry_space_group_name_	'P 1'
_symmetry_space_group_name_H-M	'P 1'

loop_
_symmetry_equiv_pos_as_xyz
  x,y,z

loop_
_atom_site_label
_atom_site_type_symbol
_atom_site_fract_x
_atom_site_fract_y
_atom_site_fract_z
_atom_site_charge
Mg	Mg	0.22581 0.93787 0.23681 1.47500
Mg	Mg	0.30357 0.71735 0.27617 1.45000
O 	O 	0.24922 0.63350 0.25515 -0.59200
O 	O 	0.30406 0.20550 0.67040 -0.57200
O 	O 	0.39631 0.19640 0.42000 -0.24400
O 	O 	0.39811 0.83590 0.57270 -0.24700
O 	O 	0.28002 0.90050 0.30710 -0.64900
O 	O 	0.22840 0.96530 0.36027 -0.40500
O 	O 	0.24974 0.08490 0.64006 -0.52000
O 	O 	0.19765 0.76550 0.23042 -0.51200
O 	O 	0.17709 0.05900 0.20271 -0.40200
O 	O 	0.23397 0.14990 0.23526 -0.40200
O 	O 	0.06188 0.43320 0.21420 -0.22100
O 	O 	0.12227 0.48990 0.00320 -0.21200
N 	N 	0.09105 0.45890 0.10785 -0.18200
N 	N 	0.39782 0.01510 0.49630 -0.18600
C 	C 	0.27537 0.03180 0.49590 0.02300
H 	H 	0.24830 0.03400 0.49660 0.05600
C 	C 	0.14382 0.31400 0.16460 -0.09000
H 	H 	0.12870 0.24020 0.14860 0.09900
C 	C 	0.26441 0.94550 0.36380 0.33600
C 	C 	0.18851 0.53550 0.21080 -0.07900
C 	C 	0.19832 0.15930 0.21350 0.29600
C 	C 	0.21431 0.65300 0.23460 0.45200
C 	C 	0.33995 0.07520 0.55830 -0.05700
H 	H 	0.35650 0.10860 0.59890 0.05900
C 	C 	0.47924 0.00330 0.49950 0.02600
C 	C 	0.35470 0.02300 0.49650 0.11100
C 	C 	0.02002 0.46740 0.09870 -0.05700
C 	C 	0.20374 0.40650 0.22260 -0.00000
H 	H 	0.22930 0.39480 0.24510 0.04900
C 	C 	0.09132 0.48360 0.03120 0.21600
C 	C 	0.01863 0.49310 0.02240 0.03500
C 	C 	0.12909 0.44190 0.15200 0.13400
C 	C 	0.45877 0.10250 0.45590 -0.06600
C 	C 	0.18116 0.29780 0.20110 -0.02200
C 	C 	0.29085 0.98340 0.43240 -0.08400
C 	C 	0.29975 0.07750 0.55910 -0.09400
C 	C 	0.15129 0.55080 0.17520 -0.06500
H 	H 	0.14100 0.63580 0.16680 0.08800
C 	C 	0.28265 0.12670 0.62910 0.44500
C 	C 	0.41533 0.11010 0.45390 0.21200
C 	C 	0.33127 0.98020 0.43330 -0.10000
H 	H 	0.34110 0.95150 0.39660 0.05100
C 	C 	0.98534 0.46410 0.13410 -0.01700
H 	H 	0.98980 0.45410 0.18750 0.06700
C 	C 	0.05030 0.52240 0.90910 -0.02300
H 	H 	0.07320 0.52970 0.88580 0.07300
C 	C 	0.05281 0.49830 0.98580 -0.05200
C 	C 	0.05827 0.45500 0.14640 0.22100
C 	C 	0.41657 0.91350 0.53970 0.21100
C 	C 	0.46035 0.90960 0.53960 -0.06600
C 	C 	0.51847 0.18610 0.41710 -0.03100
H 	H 	0.53270 0.26420 0.41190 0.04800
C 	C 	0.47820 0.19180 0.41550 -0.02800
H 	H 	0.46510 0.23690 0.37460 0.04600
Mg	Mg	0.77419 0.93787 0.26319 1.47400
Mg	Mg	0.69643 0.71735 0.22383 1.44900
O 	O 	0.75078 0.63350 0.24485 -0.59200
O 	O 	0.69594 0.20550 0.82960 -0.57200
O 	O 	0.60369 0.19640 0.08000 -0.24400
O 	O 	0.60189 0.83590 0.92730 -0.24700
O 	O 	0.71998 0.90050 0.19290 -0.64900
O 	O 	0.77160 0.96530 0.13973 -0.40600
O 	O 	0.75026 0.08490 0.85994 -0.52100
O 	O 	0.80235 0.76550 0.26958 -0.51200
O 	O 	0.82291 0.05900 0.29729 -0.40200
O 	O 	0.76603 0.14990 0.26474 -0.40200
O 	O 	0.93812 0.43320 0.28580 -0.22100
O 	O 	0.87773 0.48990 0.49680 -0.21200
N 	N 	0.90895 0.45890 0.39215 -0.18200
N 	N 	0.60218 0.01510 0.00370 -0.18700
C 	C 	0.72463 0.03180 0.00410 0.02600
H 	H 	0.75170 0.03400 0.00340 0.05500
C 	C 	0.85618 0.31400 0.33540 -0.09000
H 	H 	0.87130 0.24020 0.35140 0.09900
C 	C 	0.73559 0.94550 0.13620 0.33600
C 	C 	0.81149 0.53550 0.28920 -0.07900
C 	C 	0.80168 0.15930 0.28650 0.29600
C 	C 	0.78569 0.65300 0.26540 0.45200
C 	C 	0.66005 0.07520 0.94170 -0.05900
H 	H 	0.64350 0.10860 0.90110 0.06000
C 	C 	0.52076 0.00330 0.00050 0.02600
C 	C 	0.64530 0.02300 0.00350 0.11500
C 	C 	0.97998 0.46740 0.40130 -0.05700
C 	C 	0.79626 0.40650 0.27740 -0.00000
H 	H 	0.77070 0.39480 0.25490 0.04900
C 	C 	0.90868 0.48360 0.46880 0.21600
C 	C 	0.98137 0.49310 0.47760 0.03500
C 	C 	0.87091 0.44190 0.34800 0.13400
C 	C 	0.54123 0.10250 0.04410 -0.06600
C 	C 	0.81884 0.29780 0.29890 -0.02200
C 	C 	0.70915 0.98340 0.06760 -0.08500
C 	C 	0.70025 0.07750 0.94090 -0.09500
C 	C 	0.84871 0.55080 0.32480 -0.06500
H 	H 	0.85900 0.63580 0.33320 0.08800
C 	C 	0.71735 0.12670 0.87090 0.44500
C 	C 	0.58467 0.11010 0.04610 0.21200
C 	C 	0.66873 0.98020 0.06670 -0.10300
H 	H 	0.65890 0.95150 0.10340 0.05200
C 	C 	0.01466 0.46410 0.36590 -0.01700
H 	H 	0.01020 0.45410 0.31250 0.06700
C 	C 	0.94970 0.52240 0.59090 -0.02300
H 	H 	0.92680 0.52970 0.61420 0.07300
C 	C 	0.94719 0.49830 0.51420 -0.05100
C 	C 	0.94173 0.45500 0.35360 0.22100
C 	C 	0.58343 0.91350 0.96030 0.21100
C 	C 	0.53965 0.90960 0.96040 -0.06600
C 	C 	0.48153 0.18610 0.08290 -0.03100
H 	H 	0.46730 0.26420 0.08810 0.04800
C 	C 	0.52180 0.19180 0.08450 -0.02800
H 	H 	0.53490 0.23690 0.12540 0.04600
Mg	Mg	0.77419 0.06213 0.76319 1.47400
Mg	Mg	0.69643 0.28265 0.72383 1.44900
O 	O 	0.75078 0.36650 0.74485 -0.59200
O 	O 	0.69594 0.79450 0.32960 -0.57200
O 	O 	0.60369 0.80360 0.58000 -0.24400
O 	O 	0.60189 0.16410 0.42730 -0.24700
O 	O 	0.71998 0.09950 0.69290 -0.64900
O 	O 	0.77160 0.03470 0.63973 -0.40500
O 	O 	0.75026 0.91510 0.35994 -0.52000
O 	O 	0.80235 0.23450 0.76958 -0.51200
O 	O 	0.82291 0.94100 0.79729 -0.40200
O 	O 	0.76603 0.85010 0.76474 -0.40200
O 	O 	0.93812 0.56680 0.78580 -0.22100
O 	O 	0.87773 0.51010 0.99680 -0.21200
N 	N 	0.90895 0.54110 0.89215 -0.18200
N 	N 	0.60218 0.98490 0.50370 -0.18600
C 	C 	0.72463 0.96820 0.50410 0.02300
H 	H 	0.75170 0.96600 0.50340 0.05600
C 	C 	0.85618 0.68600 0.83540 -0.09000
H 	H 	0.87130 0.75980 0.85140 0.09900
C 	C 	0.73559 0.05450 0.63620 0.33600
C 	C 	0.81149 0.46450 0.78920 -0.07900
C 	C 	0.80168 0.84070 0.78650 0.29600
C 	C 	0.78569 0.34700 0.76540 0.45200
C 	C 	0.66005 0.92480 0.44170 -0.05700
H 	H 	0.64350 0.89140 0.40110 0.05900
C 	C 	0.52076 0.99670 0.50050 0.02600
C 	C 	0.64530 0.97700 0.50350 0.11100
C 	C 	0.97998 0.53260 0.90130 -0.05700
C 	C 	0.79626 0.59350 0.77740 -0.00000
H 	H 	0.77070 0.60520 0.75490 0.04900
C 	C 	0.90868 0.51640 0.96880 0.21600
C 	C 	0.98137 0.50690 0.97760 0.03500
C 	C 	0.87091 0.55810 0.84800 0.13400
C 	C 	0.54123 0.89750 0.54410 -0.06600
C 	C 	0.81884 0.70220 0.79890 -0.02200
C 	C 	0.70915 0.01660 0.56760 -0.08400
C 	C 	0.70025 0.92250 0.44090 -0.09400
C 	C 	0.84871 0.44920 0.82480 -0.06500
H 	H 	0.85900 0.36420 0.83320 0.08800
C 	C 	0.71735 0.87330 0.37090 0.44500
C 	C 	0.58467 0.88990 0.54610 0.21200
C 	C 	0.66873 0.01980 0.56670 -0.10000
H 	H 	0.65890 0.04850 0.60340 0.05100
C 	C 	0.01466 0.53590 0.86590 -0.01700
H 	H 	0.01020 0.54590 0.81250 0.06700
C 	C 	0.94970 0.47760 0.09090 -0.02300
H 	H 	0.92680 0.47030 0.11420 0.07300
C 	C 	0.94719 0.50170 0.01420 -0.05200
C 	C 	0.94173 0.54500 0.85360 0.22100
C 	C 	0.58343 0.08650 0.46030 0.21100
C 	C 	0.53965 0.09040 0.46040 -0.06600
C 	C 	0.48153 0.81390 0.58290 -0.03100
H 	H 	0.46730 0.73580 0.58810 0.04800
C 	C 	0.52180 0.80820 0.58450 -0.02800
H 	H 	0.53490 0.76310 0.62540 0.04600
Mg	Mg	0.22581 0.06213 0.73681 1.47400
Mg	Mg	0.30357 0.28265 0.77617 1.44900
O 	O 	0.24922 0.36650 0.75515 -0.59200
O 	O 	0.30406 0.79450 0.17040 -0.57200
O 	O 	0.39631 0.80360 0.92000 -0.24400
O 	O 	0.39811 0.16410 0.07270 -0.24700
O 	O 	0.28002 0.09950 0.80710 -0.64900
O 	O 	0.22840 0.03470 0.86027 -0.40600
O 	O 	0.24974 0.91510 0.14006 -0.52100
O 	O 	0.19765 0.23450 0.73042 -0.51200
O 	O 	0.17709 0.94100 0.70271 -0.40200
O 	O 	0.23397 0.85010 0.73526 -0.40200
O 	O 	0.06188 0.56680 0.71420 -0.22100
O 	O 	0.12227 0.51010 0.50320 -0.21200
N 	N 	0.09105 0.54110 0.60785 -0.18200
N 	N 	0.39782 0.98490 0.99630 -0.18700
C 	C 	0.27537 0.96820 0.99590 0.02600
H 	H 	0.24830 0.96600 0.99660 0.05500
C 	C 	0.14382 0.68600 0.66460 -0.09000
H 	H 	0.12870 0.75980 0.64860 0.09900
C 	C 	0.26441 0.05450 0.86380 0.33600
C 	C 	0.18851 0.46450 0.71080 -0.07900
C 	C 	0.19832 0.84070 0.71350 0.29600
C 	C 	0.21431 0.34700 0.73460 0.45200
C 	C 	0.33995 0.92480 0.05830 -0.05900
H 	H 	0.35650 0.89140 0.09890 0.06000
C 	C 	0.47924 0.99670 0.99950 0.02600
C 	C 	0.35470 0.97700 0.99650 0.11500
C 	C 	0.02002 0.53260 0.59870 -0.05700
C 	C 	0.20374 0.59350 0.72260 -0.00000
H 	H 	0.22930 0.60520 0.74510 0.04900
C 	C 	0.09132 0.51640 0.53120 0.21600
C 	C 	0.01863 0.50690 0.52240 0.03500
C 	C 	0.12909 0.55810 0.65200 0.13400
C 	C 	0.45877 0.89750 0.95590 -0.06600
C 	C 	0.18116 0.70220 0.70110 -0.02200
C 	C 	0.29085 0.01660 0.93240 -0.08500
C 	C 	0.29975 0.92250 0.05910 -0.09500
C 	C 	0.15129 0.44920 0.67520 -0.06500
H 	H 	0.14100 0.36420 0.66680 0.08800
C 	C 	0.28265 0.87330 0.12910 0.44500
C 	C 	0.41533 0.88990 0.95390 0.21200
C 	C 	0.33127 0.01980 0.93330 -0.10300
H 	H 	0.34110 0.04850 0.89660 0.05200
C 	C 	0.98534 0.53590 0.63410 -0.01700
H 	H 	0.98980 0.54590 0.68750 0.06700
C 	C 	0.05030 0.47760 0.40910 -0.02300
H 	H 	0.07320 0.47030 0.38580 0.07300
C 	C 	0.05281 0.50170 0.48580 -0.05100
C 	C 	0.05827 0.54500 0.64640 0.22100
C 	C 	0.41657 0.08650 0.03970 0.21100
C 	C 	0.46035 0.09040 0.03960 -0.06600
C 	C 	0.51847 0.81390 0.91710 -0.03100
H 	H 	0.53270 0.73580 0.91190 0.04800
C 	C 	0.47820 0.80820 0.91550 -0.02800
H 	H 	0.46510 0.76310 0.87460 0.04600
