data_crystal

_cell_length_a 24.68100
_cell_length_b 24.68100
_cell_length_c 10.81900
_cell_angle_alpha 90.00000
_cell_angle_beta  90.00000
_cell_angle_gamma 90.00000

_symmetry_space_group_name_	'P 1'
_symmetry_space_group_name_H-M	'P 1'

loop_
_symmetry_equiv_pos_as_xyz
  x,y,z

loop_
_atom_site_label
_atom_site_type_symbol
_atom_site_fract_x
_atom_site_fract_y
_atom_site_fract_z
_atom_site_charge
In	In	0.38016 0.78980 0.35556 1.92100
O 	O 	0.59910 0.86040 0.32170 -0.32600
O 	O 	0.62740 0.86330 0.12670 -0.60500
O 	O 	0.19140 0.72820 0.11140 -0.37900
O 	O 	0.20090 0.72890 0.90800 -0.60000
N 	N 	0.44800 0.80770 0.21750 -0.34300
N 	N 	0.34840 0.77650 0.16190 -0.31400
C 	C 	0.49760 0.82350 0.25040 0.11200
H 	H 	0.50540 0.82590 0.33430 -0.06600
C 	C 	0.53790 0.83660 0.16780 -0.19600
C 	C 	0.52540 0.83220 0.04440 0.09000
H 	H 	0.55090 0.83880 0.98300 -0.00500
C 	C 	0.47130 0.81690 0.01580 -0.16200
H 	H 	0.46120 0.81470 0.93320 0.06700
C 	C 	0.43590 0.80590 0.09860 0.07200
C 	C 	0.37970 0.78700 0.06380 0.03400
C 	C 	0.35970 0.77980 0.95080 -0.11800
H 	H 	0.38320 0.78630 0.88520 0.05100
C 	C 	0.31040 0.76470 0.92210 0.04500
H 	H 	0.29870 0.76140 0.84070 0.02700
C 	C 	0.27600 0.75380 0.02470 -0.14900
C 	C 	0.29850 0.75940 0.14340 0.06700
H 	H 	0.27730 0.75060 0.21160 -0.00600
C 	C 	0.59160 0.85320 0.20780 0.41100
C 	C 	0.21840 0.73520 0.01630 0.38600
In	In	0.88016 0.28980 0.85556 1.92000
O 	O 	0.09910 0.36040 0.82170 -0.32700
O 	O 	0.12740 0.36330 0.62670 -0.60600
O 	O 	0.69140 0.22820 0.61140 -0.38000
O 	O 	0.70090 0.22890 0.40800 -0.60100
N 	N 	0.94800 0.30770 0.71750 -0.34400
N 	N 	0.84840 0.27650 0.66190 -0.31500
C 	C 	0.99760 0.32350 0.75040 0.11100
H 	H 	0.00540 0.32590 0.83430 -0.06700
C 	C 	0.03790 0.33660 0.66780 -0.19700
C 	C 	0.02540 0.33220 0.54440 0.08900
H 	H 	0.05090 0.33880 0.48300 -0.00600
C 	C 	0.97130 0.31690 0.51580 -0.16300
H 	H 	0.96120 0.31470 0.43320 0.06600
C 	C 	0.93590 0.30590 0.59860 0.07100
C 	C 	0.87970 0.28700 0.56380 0.03300
C 	C 	0.85970 0.27980 0.45080 -0.11800
H 	H 	0.88320 0.28630 0.38520 0.05100
C 	C 	0.81040 0.26470 0.42210 0.04500
H 	H 	0.79870 0.26140 0.34070 0.02700
C 	C 	0.77600 0.25380 0.52470 -0.14900
C 	C 	0.79850 0.25940 0.64340 0.06700
H 	H 	0.77730 0.25060 0.71160 -0.00600
C 	C 	0.09160 0.35320 0.70780 0.41100
C 	C 	0.71840 0.23520 0.51630 0.38600
In	In	0.61984 0.21020 0.35556 1.92000
O 	O 	0.40090 0.13960 0.32170 -0.32700
O 	O 	0.37260 0.13670 0.12670 -0.60600
O 	O 	0.80860 0.27180 0.11140 -0.38000
O 	O 	0.79910 0.27110 0.90800 -0.60100
N 	N 	0.55200 0.19230 0.21750 -0.34400
N 	N 	0.65160 0.22350 0.16190 -0.31500
C 	C 	0.50240 0.17650 0.25040 0.11100
H 	H 	0.49460 0.17410 0.33430 -0.06700
C 	C 	0.46210 0.16340 0.16780 -0.19700
C 	C 	0.47460 0.16780 0.04440 0.08900
H 	H 	0.44910 0.16120 0.98300 -0.00600
C 	C 	0.52870 0.18310 0.01580 -0.16300
H 	H 	0.53880 0.18530 0.93320 0.06600
C 	C 	0.56410 0.19410 0.09860 0.07100
C 	C 	0.62030 0.21300 0.06380 0.03300
C 	C 	0.64030 0.22020 0.95080 -0.11800
H 	H 	0.61680 0.21370 0.88520 0.05100
C 	C 	0.68960 0.23530 0.92210 0.04500
H 	H 	0.70130 0.23860 0.84070 0.02700
C 	C 	0.72400 0.24620 0.02470 -0.14900
C 	C 	0.70150 0.24060 0.14340 0.06700
H 	H 	0.72270 0.24940 0.21160 -0.00600
C 	C 	0.40840 0.14680 0.20780 0.41100
C 	C 	0.78160 0.26480 0.01630 0.38600
In	In	0.11984 0.71020 0.85556 1.92000
O 	O 	0.90090 0.63960 0.82170 -0.32700
O 	O 	0.87260 0.63670 0.62670 -0.60600
O 	O 	0.30860 0.77180 0.61140 -0.38000
O 	O 	0.29910 0.77110 0.40800 -0.60100
N 	N 	0.05200 0.69230 0.71750 -0.34400
N 	N 	0.15160 0.72350 0.66190 -0.31500
C 	C 	0.00240 0.67650 0.75040 0.11100
H 	H 	0.99460 0.67410 0.83430 -0.06700
C 	C 	0.96210 0.66340 0.66780 -0.19700
C 	C 	0.97460 0.66780 0.54440 0.08900
H 	H 	0.94910 0.66120 0.48300 -0.00600
C 	C 	0.02870 0.68310 0.51580 -0.16300
H 	H 	0.03880 0.68530 0.43320 0.06600
C 	C 	0.06410 0.69410 0.59860 0.07100
C 	C 	0.12030 0.71300 0.56380 0.03300
C 	C 	0.14030 0.72020 0.45080 -0.11800
H 	H 	0.11680 0.71370 0.38520 0.05100
C 	C 	0.18960 0.73530 0.42210 0.04500
H 	H 	0.20130 0.73860 0.34070 0.02700
C 	C 	0.22400 0.74620 0.52470 -0.14900
C 	C 	0.20150 0.74060 0.64340 0.06700
H 	H 	0.22270 0.74940 0.71160 -0.00600
C 	C 	0.90840 0.64680 0.70780 0.41100
C 	C 	0.28160 0.76480 0.51630 0.38600
In	In	0.78980 0.61984 0.64444 1.92000
O 	O 	0.86040 0.40090 0.67830 -0.32700
O 	O 	0.86330 0.37260 0.87330 -0.60600
O 	O 	0.72820 0.80860 0.88860 -0.38000
O 	O 	0.72890 0.79910 0.09200 -0.60100
N 	N 	0.80770 0.55200 0.78250 -0.34400
N 	N 	0.77650 0.65160 0.83810 -0.31500
C 	C 	0.82350 0.50240 0.74960 0.11100
H 	H 	0.82590 0.49460 0.66570 -0.06700
C 	C 	0.83660 0.46210 0.83220 -0.19700
C 	C 	0.83220 0.47460 0.95560 0.08900
H 	H 	0.83880 0.44910 0.01700 -0.00600
C 	C 	0.81690 0.52870 0.98420 -0.16300
H 	H 	0.81470 0.53880 0.06680 0.06600
C 	C 	0.80590 0.56410 0.90140 0.07100
C 	C 	0.78700 0.62030 0.93620 0.03300
C 	C 	0.77980 0.64030 0.04920 -0.11800
H 	H 	0.78630 0.61680 0.11480 0.05100
C 	C 	0.76470 0.68960 0.07790 0.04500
H 	H 	0.76140 0.70130 0.15930 0.02700
C 	C 	0.75380 0.72400 0.97530 -0.14900
C 	C 	0.75940 0.70150 0.85660 0.06700
H 	H 	0.75060 0.72270 0.78840 -0.00600
C 	C 	0.85320 0.40840 0.79220 0.41100
C 	C 	0.73520 0.78160 0.98370 0.38600
In	In	0.28980 0.11984 0.14444 1.92000
O 	O 	0.36040 0.90090 0.17830 -0.32700
O 	O 	0.36330 0.87260 0.37330 -0.60600
O 	O 	0.22820 0.30860 0.38860 -0.38000
O 	O 	0.22890 0.29910 0.59200 -0.60100
N 	N 	0.30770 0.05200 0.28250 -0.34400
N 	N 	0.27650 0.15160 0.33810 -0.31500
C 	C 	0.32350 0.00240 0.24960 0.11100
H 	H 	0.32590 0.99460 0.16570 -0.06700
C 	C 	0.33660 0.96210 0.33220 -0.19700
C 	C 	0.33220 0.97460 0.45560 0.08900
H 	H 	0.33880 0.94910 0.51700 -0.00600
C 	C 	0.31690 0.02870 0.48420 -0.16300
H 	H 	0.31470 0.03880 0.56680 0.06600
C 	C 	0.30590 0.06410 0.40140 0.07100
C 	C 	0.28700 0.12030 0.43620 0.03300
C 	C 	0.27980 0.14030 0.54920 -0.11800
H 	H 	0.28630 0.11680 0.61480 0.05100
C 	C 	0.26470 0.18960 0.57790 0.04500
H 	H 	0.26140 0.20130 0.65930 0.02700
C 	C 	0.25380 0.22400 0.47530 -0.14900
C 	C 	0.25940 0.20150 0.35660 0.06700
H 	H 	0.25060 0.22270 0.28840 -0.00600
C 	C 	0.35320 0.90840 0.29220 0.41100
C 	C 	0.23520 0.28160 0.48370 0.38600
In	In	0.21020 0.38016 0.64444 1.92000
O 	O 	0.13960 0.59910 0.67830 -0.32700
O 	O 	0.13670 0.62740 0.87330 -0.60600
O 	O 	0.27180 0.19140 0.88860 -0.38000
O 	O 	0.27110 0.20090 0.09200 -0.60100
N 	N 	0.19230 0.44800 0.78250 -0.34400
N 	N 	0.22350 0.34840 0.83810 -0.31500
C 	C 	0.17650 0.49760 0.74960 0.11100
H 	H 	0.17410 0.50540 0.66570 -0.06700
C 	C 	0.16340 0.53790 0.83220 -0.19700
C 	C 	0.16780 0.52540 0.95560 0.08900
H 	H 	0.16120 0.55090 0.01700 -0.00600
C 	C 	0.18310 0.47130 0.98420 -0.16300
H 	H 	0.18530 0.46120 0.06680 0.06600
C 	C 	0.19410 0.43590 0.90140 0.07100
C 	C 	0.21300 0.37970 0.93620 0.03300
C 	C 	0.22020 0.35970 0.04920 -0.11800
H 	H 	0.21370 0.38320 0.11480 0.05100
C 	C 	0.23530 0.31040 0.07790 0.04500
H 	H 	0.23860 0.29870 0.15930 0.02700
C 	C 	0.24620 0.27600 0.97530 -0.14900
C 	C 	0.24060 0.29850 0.85660 0.06700
H 	H 	0.24940 0.27730 0.78840 -0.00600
C 	C 	0.14680 0.59160 0.79220 0.41100
C 	C 	0.26480 0.21840 0.98370 0.38600
In	In	0.71020 0.88016 0.14444 1.92000
O 	O 	0.63960 0.09910 0.17830 -0.32700
O 	O 	0.63670 0.12740 0.37330 -0.60600
O 	O 	0.77180 0.69140 0.38860 -0.38000
O 	O 	0.77110 0.70090 0.59200 -0.60100
N 	N 	0.69230 0.94800 0.28250 -0.34400
N 	N 	0.72350 0.84840 0.33810 -0.31500
C 	C 	0.67650 0.99760 0.24960 0.11100
H 	H 	0.67410 0.00540 0.16570 -0.06700
C 	C 	0.66340 0.03790 0.33220 -0.19700
C 	C 	0.66780 0.02540 0.45560 0.08900
H 	H 	0.66120 0.05090 0.51700 -0.00600
C 	C 	0.68310 0.97130 0.48420 -0.16300
H 	H 	0.68530 0.96120 0.56680 0.06600
C 	C 	0.69410 0.93590 0.40140 0.07100
C 	C 	0.71300 0.87970 0.43620 0.03300
C 	C 	0.72020 0.85970 0.54920 -0.11800
H 	H 	0.71370 0.88320 0.61480 0.05100
C 	C 	0.73530 0.81040 0.57790 0.04500
H 	H 	0.73860 0.79870 0.65930 0.02700
C 	C 	0.74620 0.77600 0.47530 -0.14900
C 	C 	0.74060 0.79850 0.35660 0.06700
H 	H 	0.74940 0.77730 0.28840 -0.00600
C 	C 	0.64680 0.09160 0.29220 0.41100
C 	C 	0.76480 0.71840 0.48370 0.38600
