data_crystal

_cell_length_a 14.12270
_cell_length_b 18.73910
_cell_length_c 18.73910
_cell_angle_alpha 66.08780
_cell_angle_beta  75.45060
_cell_angle_gamma 104.54900

_symmetry_space_group_name_	'P 1'
_symmetry_space_group_name_H-M	'P 1'

loop_
_symmetry_equiv_pos_as_xyz
  x,y,z

loop_
_atom_site_label
_atom_site_type_symbol
_atom_site_fract_x
_atom_site_fract_y
_atom_site_fract_z
_atom_site_charge
In	In	0.16726 0.48778 0.43389 1.93400
In	In	0.17948 0.51222 0.92167 1.93600
In	In	0.60115 0.43389 0.07833 1.93200
In	In	0.10115 0.92167 0.56611 1.93500
In	In	0.67948 0.07833 0.48778 1.93200
In	In	0.66726 0.56611 0.51222 1.93400
H 	H 	0.39880 0.58780 0.07470 -0.02100
H 	H 	0.42540 0.00880 0.55250 -0.04600
H 	H 	0.63540 0.24700 0.64190 0.06800
H 	H 	0.89880 0.92530 0.41220 -0.01000
H 	H 	0.65620 0.84840 0.31730 0.07100
H 	H 	0.13540 0.35810 0.75300 0.06700
H 	H 	0.88380 0.23530 0.44450 -0.05400
H 	H 	0.71040 0.90890 0.79190 0.02700
H 	H 	0.32830 0.44450 0.32020 -0.05100
H 	H 	0.27730 0.64190 0.11110 0.06400
H 	H 	0.47350 0.07470 0.33750 -0.02400
H 	H 	0.21040 0.20810 0.09110 0.00300
H 	H 	0.38380 0.55550 0.76470 -0.04700
H 	H 	0.47790 0.56130 0.44750 -0.04500
H 	H 	0.64850 0.32020 0.23530 -0.05300
H 	H 	0.30780 0.15160 0.16570 0.05700
H 	H 	0.77730 0.88890 0.35810 0.07000
H 	H 	0.31100 0.41220 0.66250 -0.01600
H 	H 	0.15620 0.68270 0.15160 0.06600
H 	H 	0.97350 0.31730 0.83430 0.06300
H 	H 	0.91660 0.99120 0.56130 -0.02800
H 	H 	0.92540 0.44750 0.99120 -0.02800
H 	H 	0.81100 0.33750 0.58780 -0.01600
H 	H 	0.88840 0.75300 0.88890 0.07400
H 	H 	0.80150 0.29920 0.90890 0.02000
H 	H 	0.80780 0.83430 0.84840 0.06900
H 	H 	0.82830 0.67980 0.55550 -0.04900
H 	H 	0.50230 0.79190 0.29920 0.00700
H 	H 	0.00230 0.70080 0.20810 0.00300
H 	H 	0.41660 0.43870 0.00880 -0.04600
H 	H 	0.97350 0.66250 0.92530 -0.00800
H 	H 	0.47350 0.16570 0.68270 0.06400
H 	H 	0.97790 0.55250 0.43870 -0.04600
H 	H 	0.14850 0.76470 0.67980 -0.04700
H 	H 	0.38840 0.11110 0.24700 0.06200
H 	H 	0.30150 0.09110 0.70080 0.00900
C 	C 	0.73810 0.36900 -0.00000 0.38700
C 	C 	0.73280 0.76300 0.42600 0.07200
C 	C 	0.12400 0.64400 0.82310 0.41400
C 	C 	0.23280 0.57400 0.23700 0.07200
C 	C 	0.36910 0.63100 0.36900 0.42600
C 	C 	0.23810 0.00000 0.63100 0.33500
C 	C 	0.89268 0.95817 0.62013 0.10000
C 	C 	0.68730 0.24550 0.60110 -0.16600
C 	C 	0.06900 0.70300 0.80560 -0.18900
C 	C 	0.15880 0.42600 0.81100 0.07500
C 	C 	0.86040 0.33410 0.90990 0.06000
C 	C 	0.48000 0.53290 0.64400 0.41500
C 	C 	0.49170 0.13150 0.29950 0.10400
C 	C 	0.46980 0.23700 0.18900 0.07300
C 	C 	0.84670 0.37420 0.95570 -0.14000
C 	C 	0.36020 0.56900 0.13150 0.10400
C 	C 	0.18730 0.39890 0.75450 -0.16500
C 	C 	0.23810 0.36900 -0.00000 0.33400
C 	C 	0.14765 0.60025 0.26580 0.05700
C 	C 	0.44180 0.15340 0.24550 -0.16900
C 	C 	0.09530 0.76200 0.72300 0.12500
C 	C 	0.91345 0.86605 0.73420 0.05200
C 	C 	0.41345 0.26580 0.13395 0.04800
C 	C 	0.28840 0.60110 0.15340 -0.16600
C 	C 	0.52630 0.75600 0.33410 0.08700
C 	C 	0.78840 0.84660 0.39890 -0.16100
C 	C 	0.80240 0.95570 0.67010 -0.13600
C 	C 	0.82740 0.86460 0.78990 -0.12200
C 	C 	0.96980 0.81100 0.76300 0.07700
C 	C 	0.77030 0.90990 0.75600 0.06000
C 	C 	0.36600 0.49140 0.70300 -0.19300
C 	C 	0.86600 0.29700 0.50860 -0.19600
C 	C 	0.01281 0.57830 0.37987 0.12400
C 	C 	0.04740 0.39975 0.86605 0.05100
C 	C 	0.46280 0.13540 0.65450 -0.13100
C 	C 	0.73810 0.00000 0.63100 0.38600
C 	C 	0.79120 0.29950 0.56900 0.10400
C 	C 	0.33330 0.51500 0.76200 0.12500
C 	C 	0.34670 0.04430 0.62580 -0.15900
C 	C 	0.81830 0.72300 0.51500 0.12300
C 	C 	0.02630 0.66590 0.24400 0.08800
C 	C 	0.44710 0.46710 0.17690 0.41600
C 	C 	0.98000 0.35600 0.46710 0.41100
C 	C 	0.56900 0.19440 0.29700 -0.20000
C 	C 	0.39268 0.37987 0.04183 0.10000
C 	C 	0.11730 0.65450 0.21010 -0.14400
C 	C 	0.86910 0.63100 0.36900 0.42700
C 	C 	0.47250 0.67010 0.37420 -0.18800
C 	C 	0.54740 0.13395 0.60025 0.05000
C 	C 	0.37460 0.50860 0.19440 -0.19800
C 	C 	0.99170 0.70050 0.86850 0.10400
C 	C 	0.61730 0.78990 0.34550 -0.14300
C 	C 	0.64765 0.73420 0.39975 0.05800
C 	C 	0.94710 0.82310 0.53290 0.41300
C 	C 	0.27030 0.24400 0.09010 0.06100
C 	C 	0.65880 0.18900 0.57400 0.07400
C 	C 	0.36040 0.09010 0.66590 0.06300
C 	C 	0.97250 0.62580 0.32990 -0.19100
C 	C 	0.62400 0.17690 0.35600 0.41500
C 	C 	0.94180 0.75450 0.84660 -0.16200
C 	C 	0.87460 0.80560 0.49140 -0.19100
C 	C 	0.30240 0.32990 0.04430 -0.16100
C 	C 	0.86020 0.86850 0.43100 0.10300
C 	C 	0.43451 0.04183 0.57830 0.10100
C 	C 	0.29120 0.43100 0.70050 0.10500
C 	C 	0.93451 0.42170 0.95817 0.09900
C 	C 	0.31830 0.48500 0.27700 0.12400
C 	C 	0.51281 0.62013 0.42170 0.12100
C 	C 	0.96280 0.34550 0.86460 -0.12600
C 	C 	0.83330 0.23800 0.48500 0.12300
C 	C 	0.32740 0.21010 0.13540 -0.13300
C 	C 	0.59530 0.27700 0.23800 0.12400
N 	N 	0.03241 0.43317 0.91594 -0.30700
N 	N 	0.53241 0.08406 0.56683 -0.31200
N 	N 	0.54728 0.29789 0.18425 -0.31400
N 	N 	0.04728 0.81575 0.70211 -0.31200
N 	N 	0.74939 0.70211 0.48214 -0.31200
N 	N 	0.44835 0.34911 0.08406 -0.31200
N 	N 	0.09924 0.56683 0.34911 -0.31500
N 	N 	0.94835 0.91594 0.65089 -0.30700
N 	N 	0.73153 0.18425 0.51786 -0.31400
N 	N 	0.59924 0.65089 0.43317 -0.31500
N 	N 	0.24939 0.51786 0.29789 -0.31300
N 	N 	0.23153 0.48214 0.81575 -0.31200
O 	O 	0.03950 0.36390 0.40330 -0.41100
O 	O 	0.15920 0.99720 0.67770 -0.32300
O 	O 	0.01055 0.90045 0.49790 -0.62000
O 	O 	0.77015 0.02981 0.55206 -0.64400
O 	O 	0.11010 0.60165 0.90045 -0.61900
O 	O 	0.00845 0.39835 0.50210 -0.62500
O 	O 	0.66200 0.00280 0.67490 -0.37600
O 	O 	0.16200 0.32510 0.99720 -0.32800
O 	O 	0.32221 0.55206 0.41813 -0.64000
O 	O 	0.53950 0.59670 0.63610 -0.40700
O 	O 	0.51055 0.50210 0.09955 -0.63300
O 	O 	0.61010 0.09955 0.39835 -0.63500
O 	O 	0.74034 0.41813 0.02981 -0.64400
O 	O 	0.83690 0.67770 0.32510 -0.37800
O 	O 	0.44280 0.40330 0.23280 -0.41300
O 	O 	0.27015 0.44794 0.97019 -0.59000
O 	O 	0.94280 0.76720 0.59670 -0.40700
O 	O 	0.67560 0.23280 0.36390 -0.41400
O 	O 	0.17560 0.63610 0.76720 -0.40600
O 	O 	0.24034 0.97019 0.58187 -0.59000
O 	O 	0.33690 0.67490 0.32230 -0.37600
O 	O 	0.82221 0.58187 0.44794 -0.64000
O 	O 	0.50845 0.49790 0.60165 -0.62600
O 	O 	0.65920 0.32230 0.00280 -0.38200
