data_crystal

_cell_length_a 20.81200
_cell_length_b 6.64950
_cell_length_c 20.86500
_cell_angle_alpha 90.00000
_cell_angle_beta  90.00000
_cell_angle_gamma 90.00000

_symmetry_space_group_name_	'P 1'
_symmetry_space_group_name_H-M	'P 1'

loop_
_symmetry_equiv_pos_as_xyz
  x,y,z

loop_
_atom_site_label
_atom_site_type_symbol
_atom_site_fract_x
_atom_site_fract_y
_atom_site_fract_z
_atom_site_charge
Ba	Ba	0.13996 0.39394 0.11495 1.99200
O 	O 	0.09872 0.24350 0.33854 -0.43900
O 	O 	0.13074 0.26270 0.23789 -0.56900
O 	O 	0.36610 0.25660 0.48943 -0.43600
O 	O 	0.26650 0.16800 0.51095 -0.40400
O 	O 	0.35963 0.25180 0.18230 -0.46500
O 	O 	0.43290 0.28790 0.25900 -0.45100
O 	O 	0.05530 0.04920 0.12580 -0.44300
O 	O 	0.22157 0.03430 0.12414 -0.38100
O 	O 	0.01660 0.49480 0.16750 -0.44800
C 	C 	0.14310 0.25220 0.29710 0.42200
C 	C 	0.21150 0.25000 0.31820 -0.22000
C 	C 	0.22820 0.23930 0.38310 0.12900
H 	H 	0.19600 0.23360 0.41400 -0.00800
C 	C 	0.29240 0.23700 0.40220 -0.18100
C 	C 	0.34010 0.24800 0.35630 0.12900
H 	H 	0.38300 0.25100 0.36870 -0.00800
C 	C 	0.32430 0.25460 0.29090 -0.22700
C 	C 	0.26060 0.25400 0.27270 0.16200
H 	H 	0.25020 0.25620 0.22940 -0.06100
C 	C 	0.30870 0.22040 0.47200 0.35700
C 	C 	0.37590 0.26540 0.24050 0.40700
Ba	Ba	0.36004 0.10606 0.61495 2.01700
O 	O 	0.40128 0.25650 0.83854 -0.43000
O 	O 	0.36926 0.23730 0.73789 -0.58800
O 	O 	0.13390 0.24340 0.98943 -0.45300
O 	O 	0.23350 0.33200 0.01095 -0.40200
O 	O 	0.14037 0.24820 0.68230 -0.46600
O 	O 	0.06710 0.21210 0.75900 -0.46000
O 	O 	0.44470 0.45080 0.62580 -0.43400
O 	O 	0.27843 0.46570 0.62414 -0.38300
O 	O 	0.48340 0.00520 0.66750 -0.41400
C 	C 	0.35690 0.24780 0.79710 0.42000
C 	C 	0.28850 0.25000 0.81820 -0.22100
C 	C 	0.27180 0.26070 0.88310 0.13100
H 	H 	0.30400 0.26640 0.91400 -0.00500
C 	C 	0.20760 0.26300 0.90220 -0.18800
C 	C 	0.15990 0.25200 0.85630 0.13700
H 	H 	0.11700 0.24900 0.86870 -0.02500
C 	C 	0.17570 0.24540 0.79090 -0.23400
C 	C 	0.23940 0.24600 0.77270 0.16500
H 	H 	0.24980 0.24380 0.72940 -0.06300
C 	C 	0.19130 0.27960 0.97200 0.35900
C 	C 	0.12410 0.23460 0.74050 0.41200
Ba	Ba	0.86004 0.39394 0.38505 2.07400
O 	O 	0.90128 0.24350 0.16146 -0.36000
O 	O 	0.86926 0.26270 0.26211 -0.55000
O 	O 	0.63390 0.25660 0.01057 -0.43500
O 	O 	0.73350 0.16800 0.98905 -0.40500
O 	O 	0.64037 0.25180 0.31770 -0.46500
O 	O 	0.56710 0.28790 0.24100 -0.45000
O 	O 	0.94470 0.04920 0.37420 -0.36700
O 	O 	0.77843 0.03430 0.37586 -0.38500
O 	O 	0.98340 0.49480 0.33250 -0.32100
C 	C 	0.85690 0.25220 0.20290 0.40800
C 	C 	0.78850 0.25000 0.18180 -0.20800
C 	C 	0.77180 0.23930 0.11690 0.12000
H 	H 	0.80400 0.23360 0.08600 0.00400
C 	C 	0.70760 0.23700 0.09780 -0.17600
C 	C 	0.65990 0.24800 0.14370 0.12500
H 	H 	0.61700 0.25100 0.13130 -0.00700
C 	C 	0.67570 0.25460 0.20910 -0.22300
C 	C 	0.73940 0.25400 0.22730 0.15600
H 	H 	0.74980 0.25620 0.27060 -0.06100
C 	C 	0.69130 0.22040 0.02800 0.35700
C 	C 	0.62410 0.26540 0.25950 0.40600
Ba	Ba	0.63996 0.10606 0.88505 2.01400
O 	O 	0.59872 0.25650 0.66146 -0.42900
O 	O 	0.63074 0.23730 0.76211 -0.58700
O 	O 	0.86610 0.24340 0.51057 -0.41600
O 	O 	0.76650 0.33200 0.48905 -0.40200
O 	O 	0.85963 0.24820 0.81770 -0.45400
O 	O 	0.93290 0.21210 0.74100 -0.36500
O 	O 	0.55530 0.45080 0.87420 -0.43400
O 	O 	0.72157 0.46570 0.87586 -0.38800
O 	O 	0.51660 0.00520 0.83250 -0.41400
C 	C 	0.64310 0.24780 0.70290 0.41500
C 	C 	0.71150 0.25000 0.68180 -0.20600
C 	C 	0.72820 0.26070 0.61690 0.11300
H 	H 	0.69600 0.26640 0.58600 0.00100
C 	C 	0.79240 0.26300 0.59780 -0.16100
C 	C 	0.84010 0.25200 0.64370 0.10600
H 	H 	0.88300 0.24900 0.63130 0.02300
C 	C 	0.82430 0.24540 0.70910 -0.20000
C 	C 	0.76060 0.24600 0.72730 0.14300
H 	H 	0.75020 0.24380 0.77060 -0.05700
C 	C 	0.80870 0.27960 0.52800 0.34800
C 	C 	0.87590 0.23460 0.75950 0.38500
Ba	Ba	0.86004 0.60606 0.88505 2.07100
O 	O 	0.90128 0.75650 0.66146 -0.36100
O 	O 	0.86926 0.73730 0.76211 -0.55000
O 	O 	0.63390 0.74340 0.51057 -0.43500
O 	O 	0.73350 0.83200 0.48905 -0.40200
O 	O 	0.64037 0.74820 0.81770 -0.46500
O 	O 	0.56710 0.71210 0.74100 -0.45000
O 	O 	0.94470 0.95080 0.87420 -0.36800
O 	O 	0.77843 0.96570 0.87586 -0.38500
O 	O 	0.98340 0.50520 0.83250 -0.32200
C 	C 	0.85690 0.74780 0.70290 0.40800
C 	C 	0.78850 0.75000 0.68180 -0.20700
C 	C 	0.77180 0.76070 0.61690 0.11900
H 	H 	0.80400 0.76640 0.58600 0.00400
C 	C 	0.70760 0.76300 0.59780 -0.17500
C 	C 	0.65990 0.75200 0.64370 0.12500
H 	H 	0.61700 0.74900 0.63130 -0.00700
C 	C 	0.67570 0.74540 0.70910 -0.22300
C 	C 	0.73940 0.74600 0.72730 0.15500
H 	H 	0.74980 0.74380 0.77060 -0.06100
C 	C 	0.69130 0.77960 0.52800 0.35400
C 	C 	0.62410 0.73460 0.75950 0.40600
Ba	Ba	0.63996 0.89394 0.38505 2.01700
O 	O 	0.59872 0.74350 0.16146 -0.42900
O 	O 	0.63074 0.76270 0.26211 -0.58700
O 	O 	0.86610 0.75660 0.01057 -0.41600
O 	O 	0.76650 0.66800 0.98905 -0.40400
O 	O 	0.85963 0.75180 0.31770 -0.45400
O 	O 	0.93290 0.78790 0.24100 -0.36400
O 	O 	0.55530 0.54920 0.37420 -0.43400
O 	O 	0.72157 0.53430 0.37586 -0.38800
O 	O 	0.51660 0.99480 0.33250 -0.41400
C 	C 	0.64310 0.75220 0.20290 0.41500
C 	C 	0.71150 0.75000 0.18180 -0.20700
C 	C 	0.72820 0.73930 0.11690 0.11300
H 	H 	0.69600 0.73360 0.08600 0.00100
C 	C 	0.79240 0.73700 0.09780 -0.16100
C 	C 	0.84010 0.74800 0.14370 0.10600
H 	H 	0.88300 0.75100 0.13130 0.02200
C 	C 	0.82430 0.75460 0.20910 -0.20100
C 	C 	0.76060 0.75400 0.22730 0.14400
H 	H 	0.75020 0.75620 0.27060 -0.05700
C 	C 	0.80870 0.72040 0.02800 0.35000
C 	C 	0.87590 0.76540 0.25950 0.38500
Ba	Ba	0.13996 0.60606 0.61495 1.99100
O 	O 	0.09872 0.75650 0.83854 -0.43900
O 	O 	0.13074 0.73730 0.73789 -0.56900
O 	O 	0.36610 0.74340 0.98943 -0.43600
O 	O 	0.26650 0.83200 0.01095 -0.40500
O 	O 	0.35963 0.74820 0.68230 -0.46500
O 	O 	0.43290 0.71210 0.75900 -0.45100
O 	O 	0.05530 0.95080 0.62580 -0.44400
O 	O 	0.22157 0.96570 0.62414 -0.38100
O 	O 	0.01660 0.50520 0.66750 -0.44800
C 	C 	0.14310 0.74780 0.79710 0.42200
C 	C 	0.21150 0.75000 0.81820 -0.22000
C 	C 	0.22820 0.76070 0.88310 0.12900
H 	H 	0.19600 0.76640 0.91400 -0.00800
C 	C 	0.29240 0.76300 0.90220 -0.18100
C 	C 	0.34010 0.75200 0.85630 0.12900
H 	H 	0.38300 0.74900 0.86870 -0.00800
C 	C 	0.32430 0.74540 0.79090 -0.22700
C 	C 	0.26060 0.74600 0.77270 0.16200
H 	H 	0.25020 0.74380 0.72940 -0.06100
C 	C 	0.30870 0.77960 0.97200 0.35700
C 	C 	0.37590 0.73460 0.74050 0.40700
Ba	Ba	0.36004 0.89394 0.11495 2.01600
O 	O 	0.40128 0.74350 0.33854 -0.43000
O 	O 	0.36926 0.76270 0.23789 -0.58800
O 	O 	0.13390 0.75660 0.48943 -0.45300
O 	O 	0.23350 0.66800 0.51095 -0.40300
O 	O 	0.14037 0.75180 0.18230 -0.46600
O 	O 	0.06710 0.78790 0.25900 -0.46000
O 	O 	0.44470 0.54920 0.12580 -0.43400
O 	O 	0.27843 0.53430 0.12414 -0.38300
O 	O 	0.48340 0.99480 0.16750 -0.41400
C 	C 	0.35690 0.75220 0.29710 0.42000
C 	C 	0.28850 0.75000 0.31820 -0.22100
C 	C 	0.27180 0.73930 0.38310 0.13100
H 	H 	0.30400 0.73360 0.41400 -0.00500
C 	C 	0.20760 0.73700 0.40220 -0.18900
C 	C 	0.15990 0.74800 0.35630 0.13700
H 	H 	0.11700 0.75100 0.36870 -0.02500
C 	C 	0.17570 0.75460 0.29090 -0.23400
C 	C 	0.23940 0.75400 0.27270 0.16500
H 	H 	0.24980 0.75620 0.22940 -0.06300
C 	C 	0.19130 0.72040 0.47200 0.36000
C 	C 	0.12410 0.76540 0.24050 0.41200
Ba	Ba	0.00000 0.13785 0.25000 1.82500
Ba	Ba	0.50000 0.36215 0.75000 2.17400
Ba	Ba	-0.00000 0.86215 0.75000 1.82800
Ba	Ba	0.50000 0.63785 0.25000 2.17400
