data_crystal

_cell_length_a 14.59520
_cell_length_b 16.73290
_cell_length_c 19.57130
_cell_angle_alpha 90.00000
_cell_angle_beta  107.34400
_cell_angle_gamma 90.00000

_symmetry_space_group_name_	'P 1'
_symmetry_space_group_name_H-M	'P 1'

loop_
_symmetry_equiv_pos_as_xyz
  x,y,z

loop_
_atom_site_label
_atom_site_type_symbol
_atom_site_fract_x
_atom_site_fract_y
_atom_site_fract_z
_atom_site_charge
C 	C 	0.86560 0.32530 0.88710 -0.18600
C 	C 	0.94660 0.29780 0.94220 0.07400
H 	H 	0.00750 0.30460 0.93710 0.02100
C 	C 	0.93760 0.26030 0.00480 -0.11200
C 	C 	0.84570 0.24830 0.00930 -0.01900
H 	H 	0.83770 0.22140 0.04870 0.05100
C 	C 	0.76470 0.27560 0.95610 -0.01200
C 	C 	0.77230 0.31360 0.89390 0.00800
H 	H 	0.71790 0.33050 0.85830 0.02500
C 	C 	0.87280 0.37150 0.82360 0.53400
C 	C 	0.02040 0.22470 0.05990 0.33500
C 	C 	0.66870 0.26190 0.96340 -0.02000
C 	C 	0.59140 0.25210 0.97040 -0.01000
C 	C 	0.49630 0.25060 0.97780 -0.02100
C 	C 	0.48420 0.21750 0.04180 0.01900
H 	H 	0.53630 0.19480 0.07600 0.02800
C 	C 	0.39380 0.21900 0.05320 -0.16300
C 	C 	0.31440 0.25340 0.00530 0.07000
H 	H 	0.25550 0.25460 0.01450 0.02300
C 	C 	0.32540 0.28710 0.94080 -0.13000
C 	C 	0.41500 0.28500 0.92980 0.00100
H 	H 	0.42140 0.30770 0.88810 0.04800
C 	C 	0.38340 0.18660 0.12090 0.43000
C 	C 	0.24360 0.32280 0.88580 0.42000
C 	C 	0.54360 0.49210 0.78960 -0.05000
C 	C 	0.53630 0.47290 0.85870 -0.04800
H 	H 	0.55610 0.42260 0.87770 0.06400
C 	C 	0.50060 0.52670 0.89850 0.03000
C 	C 	0.46840 0.60020 0.86810 -0.04800
H 	H 	0.44240 0.63600 0.89360 0.06400
C 	C 	0.47390 0.62290 0.79920 -0.05600
C 	C 	0.51060 0.56960 0.76060 -0.01100
H 	H 	0.51410 0.58380 0.71550 0.05300
C 	C 	0.58230 0.43730 0.74330 0.32200
C 	C 	0.44670 0.70270 0.76660 0.31200
C 	C 	0.49990 0.50800 0.97090 -0.01400
C 	C 	0.12810 0.55410 0.88170 0.10400
H 	H 	0.08670 0.53910 0.90950 0.00300
H 	H 	0.11030 0.60620 0.86140 -0.00300
H 	H 	0.19340 0.55530 0.91190 0.00700
C 	C 	0.13520 0.49900 0.63150 -0.00900
H 	H 	0.06880 0.50970 0.60730 0.01800
H 	H 	0.16680 0.48280 0.59720 0.03400
H 	H 	0.16520 0.54640 0.65560 0.02800
Nd	Nd	0.67618 0.34308 0.66885 2.06800
Nd	Nd	0.07771 0.36419 0.77086 2.51700
O 	O 	0.79930 0.38460 0.77330 -0.56500
O 	O 	0.95710 0.38850 0.82130 -0.59700
O 	O 	0.10560 0.24290 0.06140 -0.44800
O 	O 	0.00620 0.18140 0.10610 -0.47100
O 	O 	0.45000 0.13890 0.16240 -0.55300
O 	O 	0.30770 0.20580 0.14030 -0.55600
O 	O 	0.16610 0.32540 0.89740 -0.46600
O 	O 	0.24590 0.34750 0.82760 -0.51300
O 	O 	0.59060 0.36430 0.76110 -0.42800
O 	O 	0.61470 0.46600 0.69620 -0.48900
O 	O 	0.47690 0.72970 0.72080 -0.49400
O 	O 	0.38490 0.74480 0.79020 -0.43700
O 	O 	0.11850 0.49260 0.82070 -0.57600
H 	H 	0.13530 0.50390 0.78320 0.19200
O 	O 	0.14290 0.43080 0.68720 -0.42700
H 	H 	0.09400 0.40070 0.67350 0.02200
C 	C 	0.63440 0.82530 0.61290 -0.18300
C 	C 	0.55340 0.79780 0.55780 0.06700
H 	H 	0.49250 0.80460 0.56290 0.02600
C 	C 	0.56240 0.76030 0.49520 -0.10600
C 	C 	0.65430 0.74830 0.49070 -0.02000
H 	H 	0.66230 0.72140 0.45130 0.05300
C 	C 	0.73530 0.77560 0.54390 -0.01100
C 	C 	0.72770 0.81360 0.60610 0.00700
H 	H 	0.78210 0.83050 0.64170 0.02700
C 	C 	0.62720 0.87150 0.67640 0.53400
C 	C 	0.47960 0.72470 0.44010 0.33300
C 	C 	0.83130 0.76190 0.53660 -0.01900
C 	C 	0.90860 0.75210 0.52960 -0.01100
C 	C 	0.00370 0.75060 0.52220 -0.01900
C 	C 	0.01580 0.71750 0.45820 0.01900
H 	H 	0.96370 0.69480 0.42400 0.02700
C 	C 	0.10620 0.71900 0.44680 -0.16300
C 	C 	0.18560 0.75340 0.49470 0.06800
H 	H 	0.24450 0.75460 0.48550 0.02300
C 	C 	0.17460 0.78710 0.55920 -0.12800
C 	C 	0.08500 0.78500 0.57020 0.00000
H 	H 	0.07860 0.80770 0.61190 0.04900
C 	C 	0.11660 0.68660 0.37910 0.43000
C 	C 	0.25640 0.82280 0.61420 0.41900
C 	C 	0.95640 0.99210 0.71040 -0.05100
C 	C 	0.96370 0.97290 0.64130 -0.05100
H 	H 	0.94390 0.92260 0.62230 0.06400
C 	C 	0.99940 0.02670 0.60150 0.03500
C 	C 	0.03160 0.10020 0.63190 -0.05100
H 	H 	0.05760 0.13600 0.60640 0.06500
C 	C 	0.02610 0.12290 0.70080 -0.05800
C 	C 	0.98940 0.06960 0.73940 -0.00700
H 	H 	0.98590 0.08380 0.78450 0.05300
C 	C 	0.91770 0.93730 0.75670 0.32200
C 	C 	0.05330 0.20270 0.73340 0.31200
C 	C 	0.00010 0.00800 0.52910 -0.01600
C 	C 	0.37190 0.05410 0.61830 0.10200
H 	H 	0.41330 0.03910 0.59050 0.00400
H 	H 	0.38970 0.10620 0.63860 -0.00200
H 	H 	0.30660 0.05530 0.58810 0.00800
C 	C 	0.36480 0.99900 0.86850 -0.00200
H 	H 	0.43120 0.00970 0.89270 0.01500
H 	H 	0.33320 0.98280 0.90280 0.03200
H 	H 	0.33480 0.04640 0.84440 0.02500
Nd	Nd	0.82382 0.84308 0.83115 2.06800
Nd	Nd	0.42229 0.86419 0.72914 2.52000
O 	O 	0.70070 0.88460 0.72670 -0.56500
O 	O 	0.54290 0.88850 0.67870 -0.59800
O 	O 	0.39440 0.74290 0.43860 -0.44800
O 	O 	0.49380 0.68140 0.39390 -0.47100
O 	O 	0.05000 0.63890 0.33760 -0.55200
O 	O 	0.19230 0.70580 0.35970 -0.55600
O 	O 	0.33390 0.82540 0.60260 -0.46500
O 	O 	0.25410 0.84750 0.67240 -0.51300
O 	O 	0.90940 0.86430 0.73890 -0.42800
O 	O 	0.88530 0.96600 0.80380 -0.48900
O 	O 	0.02310 0.22970 0.77920 -0.49500
O 	O 	0.11510 0.24480 0.70980 -0.43700
O 	O 	0.38150 0.99260 0.67930 -0.57500
H 	H 	0.36470 0.00390 0.71680 0.19000
O 	O 	0.35710 0.93080 0.81280 -0.42900
H 	H 	0.40600 0.90070 0.82650 0.02300
C 	C 	0.13440 0.67470 0.11290 -0.18500
C 	C 	0.05340 0.70220 0.05780 0.07500
H 	H 	0.99250 0.69540 0.06290 0.02200
C 	C 	0.06240 0.73970 0.99520 -0.11100
C 	C 	0.15430 0.75170 0.99070 -0.01800
H 	H 	0.16230 0.77860 0.95130 0.05200
C 	C 	0.23530 0.72440 0.04390 -0.01100
C 	C 	0.22770 0.68640 0.10610 0.00900
H 	H 	0.28210 0.66950 0.14170 0.02600
C 	C 	0.12720 0.62850 0.17640 0.53500
C 	C 	0.97960 0.77530 0.94010 0.33600
C 	C 	0.33130 0.73810 0.03660 -0.01900
C 	C 	0.40860 0.74790 0.02960 -0.01000
C 	C 	0.50370 0.74940 0.02220 -0.02100
C 	C 	0.51580 0.78250 0.95820 0.01900
H 	H 	0.46370 0.80520 0.92400 0.02800
C 	C 	0.60620 0.78100 0.94680 -0.16300
C 	C 	0.68560 0.74660 0.99470 0.07000
H 	H 	0.74450 0.74540 0.98550 0.02300
C 	C 	0.67460 0.71290 0.05920 -0.13000
C 	C 	0.58500 0.71500 0.07020 0.00100
H 	H 	0.57860 0.69230 0.11190 0.04800
C 	C 	0.61660 0.81340 0.87910 0.43000
C 	C 	0.75640 0.67720 0.11420 0.42000
C 	C 	0.45640 0.50790 0.21040 -0.05000
C 	C 	0.46370 0.52710 0.14130 -0.04800
H 	H 	0.44390 0.57740 0.12230 0.06400
C 	C 	0.49940 0.47330 0.10150 0.03000
C 	C 	0.53160 0.39980 0.13190 -0.04800
H 	H 	0.55760 0.36400 0.10640 0.06400
C 	C 	0.52610 0.37710 0.20080 -0.05600
C 	C 	0.48940 0.43040 0.23940 -0.01100
H 	H 	0.48590 0.41620 0.28450 0.05300
C 	C 	0.41770 0.56270 0.25670 0.32200
C 	C 	0.55330 0.29730 0.23340 0.31200
C 	C 	0.50010 0.49200 0.02910 -0.01400
C 	C 	0.87190 0.44590 0.11830 0.10400
H 	H 	0.91330 0.46090 0.09050 0.00300
H 	H 	0.88970 0.39380 0.13860 -0.00300
H 	H 	0.80660 0.44470 0.08810 0.00700
C 	C 	0.86480 0.50100 0.36850 -0.00900
H 	H 	0.93120 0.49030 0.39270 0.01800
H 	H 	0.83320 0.51720 0.40280 0.03400
H 	H 	0.83480 0.45360 0.34440 0.02800
Nd	Nd	0.32382 0.65692 0.33115 2.06800
Nd	Nd	0.92229 0.63581 0.22914 2.51700
O 	O 	0.20070 0.61540 0.22670 -0.56500
O 	O 	0.04290 0.61150 0.17870 -0.59700
O 	O 	0.89440 0.75710 0.93860 -0.44800
O 	O 	0.99380 0.81860 0.89390 -0.47100
O 	O 	0.55000 0.86110 0.83760 -0.55300
O 	O 	0.69230 0.79420 0.85970 -0.55600
O 	O 	0.83390 0.67460 0.10260 -0.46600
O 	O 	0.75410 0.65250 0.17240 -0.51300
O 	O 	0.40940 0.63570 0.23890 -0.42800
O 	O 	0.38530 0.53400 0.30380 -0.48900
O 	O 	0.52310 0.27030 0.27920 -0.49400
O 	O 	0.61510 0.25520 0.20980 -0.43700
O 	O 	0.88150 0.50740 0.17930 -0.57600
H 	H 	0.86470 0.49610 0.21680 0.19200
O 	O 	0.85710 0.56920 0.31280 -0.42700
H 	H 	0.90600 0.59930 0.32650 0.02200
C 	C 	0.36560 0.17470 0.38710 -0.18300
C 	C 	0.44660 0.20220 0.44220 0.06700
H 	H 	0.50750 0.19540 0.43710 0.02600
C 	C 	0.43760 0.23970 0.50480 -0.10600
C 	C 	0.34570 0.25170 0.50930 -0.02000
H 	H 	0.33770 0.27860 0.54870 0.05300
C 	C 	0.26470 0.22440 0.45610 -0.01100
C 	C 	0.27230 0.18640 0.39390 0.00700
H 	H 	0.21790 0.16950 0.35830 0.02700
C 	C 	0.37280 0.12850 0.32360 0.53400
C 	C 	0.52040 0.27530 0.55990 0.33300
C 	C 	0.16870 0.23810 0.46340 -0.01900
C 	C 	0.09140 0.24790 0.47040 -0.01100
C 	C 	0.99630 0.24940 0.47780 -0.01900
C 	C 	0.98420 0.28250 0.54180 0.01900
H 	H 	0.03630 0.30520 0.57600 0.02700
C 	C 	0.89380 0.28100 0.55320 -0.16300
C 	C 	0.81440 0.24660 0.50530 0.06800
H 	H 	0.75550 0.24540 0.51450 0.02300
C 	C 	0.82540 0.21290 0.44080 -0.12800
C 	C 	0.91500 0.21500 0.42980 0.00000
H 	H 	0.92140 0.19230 0.38810 0.04900
C 	C 	0.88340 0.31340 0.62090 0.43000
C 	C 	0.74360 0.17720 0.38580 0.41900
C 	C 	0.04360 0.00790 0.28960 -0.05100
C 	C 	0.03630 0.02710 0.35870 -0.05100
H 	H 	0.05610 0.07740 0.37770 0.06400
C 	C 	0.00060 0.97330 0.39850 0.03500
C 	C 	0.96840 0.89980 0.36810 -0.05100
H 	H 	0.94240 0.86400 0.39360 0.06500
C 	C 	0.97390 0.87710 0.29920 -0.05800
C 	C 	0.01060 0.93040 0.26060 -0.00700
H 	H 	0.01410 0.91620 0.21550 0.05300
C 	C 	0.08230 0.06270 0.24330 0.32200
C 	C 	0.94670 0.79730 0.26660 0.31200
C 	C 	0.99990 0.99200 0.47090 -0.01600
C 	C 	0.62810 0.94590 0.38170 0.10200
H 	H 	0.58670 0.96090 0.40950 0.00400
H 	H 	0.61030 0.89380 0.36140 -0.00200
H 	H 	0.69340 0.94470 0.41190 0.00800
C 	C 	0.63520 0.00100 0.13150 -0.00200
H 	H 	0.56880 0.99030 0.10730 0.01500
H 	H 	0.66680 0.01720 0.09720 0.03200
H 	H 	0.66520 0.95360 0.15560 0.02500
Nd	Nd	0.17618 0.15692 0.16885 2.06800
Nd	Nd	0.57771 0.13581 0.27086 2.52000
O 	O 	0.29930 0.11540 0.27330 -0.56500
O 	O 	0.45710 0.11150 0.32130 -0.59800
O 	O 	0.60560 0.25710 0.56140 -0.44800
O 	O 	0.50620 0.31860 0.60610 -0.47100
O 	O 	0.95000 0.36110 0.66240 -0.55200
O 	O 	0.80770 0.29420 0.64030 -0.55600
O 	O 	0.66610 0.17460 0.39740 -0.46500
O 	O 	0.74590 0.15250 0.32760 -0.51300
O 	O 	0.09060 0.13570 0.26110 -0.42800
O 	O 	0.11470 0.03400 0.19620 -0.48900
O 	O 	0.97690 0.77030 0.22080 -0.49500
O 	O 	0.88490 0.75520 0.29020 -0.43700
O 	O 	0.61850 0.00740 0.32070 -0.57500
H 	H 	0.63530 0.99610 0.28320 0.19000
O 	O 	0.64290 0.06920 0.18720 -0.42900
H 	H 	0.59400 0.09930 0.17350 0.02300
