data_crystal

_cell_length_a 14.43880
_cell_length_b 16.41280
_cell_length_c 19.33100
_cell_angle_alpha 90.00000
_cell_angle_beta  107.60600
_cell_angle_gamma 90.00000

_symmetry_space_group_name_	'P 1'
_symmetry_space_group_name_H-M	'P 1'

loop_
_symmetry_equiv_pos_as_xyz
  x,y,z

loop_
_atom_site_label
_atom_site_type_symbol
_atom_site_fract_x
_atom_site_fract_y
_atom_site_fract_z
_atom_site_charge
C 	C 	0.86730 0.32520 0.88720 -0.20600
C 	C 	0.94770 0.29680 0.94250 0.10600
H 	H 	0.00930 0.30350 0.93750 0.01800
C 	C 	0.93940 0.25930 0.00410 -0.13900
C 	C 	0.84730 0.24700 0.01070 0.00000
H 	H 	0.83970 0.22020 0.05110 0.04200
C 	C 	0.76590 0.27530 0.95620 -0.02400
C 	C 	0.77480 0.31410 0.89450 0.02800
H 	H 	0.72000 0.33230 0.85870 0.02400
C 	C 	0.87420 0.37290 0.82380 0.56000
C 	C 	0.02190 0.22270 0.05970 0.36700
C 	C 	0.66930 0.26230 0.96280 -0.02000
C 	C 	0.59150 0.25170 0.96970 -0.01000
C 	C 	0.49670 0.25120 0.97820 -0.04100
C 	C 	0.48480 0.21730 0.04200 0.04500
H 	H 	0.53770 0.19420 0.07660 0.00200
C 	C 	0.39480 0.21820 0.05320 -0.18800
C 	C 	0.31330 0.25440 0.00510 0.08600
H 	H 	0.25390 0.25670 0.01450 0.02100
C 	C 	0.32680 0.28800 0.93990 -0.15600
C 	C 	0.41540 0.28520 0.92930 0.02600
H 	H 	0.42180 0.30730 0.88670 0.03700
C 	C 	0.38280 0.18730 0.12210 0.46400
C 	C 	0.24570 0.32200 0.88520 0.42600
C 	C 	0.54340 0.49270 0.78900 -0.06500
C 	C 	0.53680 0.47300 0.85930 -0.04300
H 	H 	0.55710 0.42180 0.87850 0.06200
C 	C 	0.50210 0.52590 0.89900 0.02600
C 	C 	0.46820 0.60080 0.86870 -0.04000
H 	H 	0.44170 0.63720 0.89440 0.06000
C 	C 	0.47360 0.62240 0.79840 -0.07500
C 	C 	0.50990 0.56970 0.75940 0.00300
H 	H 	0.51280 0.58400 0.71360 0.04900
C 	C 	0.58340 0.43720 0.74330 0.34500
C 	C 	0.44580 0.70170 0.76550 0.32600
C 	C 	0.50040 0.50900 0.97050 -0.01400
C 	C 	0.12820 0.55450 0.88140 0.07400
H 	H 	0.08830 0.53760 0.91050 0.01700
H 	H 	0.10750 0.60720 0.86100 0.00500
H 	H 	0.19470 0.55730 0.91120 0.01600
Sm	Sm	0.67709 0.34347 0.66893 1.94100
Sm	Sm	0.07834 0.36427 0.77097 2.13000
O 	O 	0.79990 0.38610 0.77280 -0.55500
O 	O 	0.95720 0.38840 0.82170 -0.56500
O 	O 	0.10670 0.24280 0.06190 -0.44800
O 	O 	0.00740 0.18070 0.10650 -0.47500
O 	O 	0.44820 0.13810 0.16170 -0.54400
O 	O 	0.30790 0.20590 0.14100 -0.55400
O 	O 	0.16670 0.32480 0.89830 -0.42800
O 	O 	0.24590 0.34760 0.82650 -0.51500
O 	O 	0.59200 0.36480 0.76210 -0.42500
O 	O 	0.61560 0.46630 0.69580 -0.48500
O 	O 	0.47680 0.72940 0.72050 -0.46800
O 	O 	0.38470 0.74480 0.79110 -0.43200
O 	O 	0.11870 0.49240 0.81960 -0.54700
H 	H 	0.13560 0.50380 0.78220 0.15900
C 	C 	0.63270 0.82520 0.61280 -0.20400
C 	C 	0.55230 0.79680 0.55750 0.09700
H 	H 	0.49070 0.80350 0.56250 0.02300
C 	C 	0.56060 0.75930 0.49590 -0.13300
C 	C 	0.65270 0.74700 0.48930 -0.00200
H 	H 	0.66030 0.72020 0.44890 0.04200
C 	C 	0.73410 0.77530 0.54380 -0.02300
C 	C 	0.72520 0.81410 0.60550 0.02600
H 	H 	0.78000 0.83230 0.64130 0.02400
C 	C 	0.62580 0.87290 0.67620 0.55800
C 	C 	0.47810 0.72270 0.44030 0.36500
C 	C 	0.83070 0.76230 0.53720 -0.02000
C 	C 	0.90850 0.75170 0.53030 -0.01100
C 	C 	0.00330 0.75120 0.52180 -0.04100
C 	C 	0.01520 0.71730 0.45800 0.04500
H 	H 	0.96230 0.69420 0.42340 0.00200
C 	C 	0.10520 0.71820 0.44680 -0.18800
C 	C 	0.18670 0.75440 0.49490 0.08500
H 	H 	0.24610 0.75670 0.48550 0.02200
C 	C 	0.17320 0.78800 0.56010 -0.15500
C 	C 	0.08460 0.78520 0.57070 0.02500
H 	H 	0.07820 0.80730 0.61330 0.03700
C 	C 	0.11720 0.68730 0.37790 0.46400
C 	C 	0.25430 0.82200 0.61480 0.42600
C 	C 	0.95660 0.99270 0.71100 -0.06600
C 	C 	0.96320 0.97300 0.64070 -0.04500
H 	H 	0.94290 0.92180 0.62150 0.06200
C 	C 	0.99790 0.02590 0.60100 0.02800
C 	C 	0.03180 0.10080 0.63130 -0.04200
H 	H 	0.05830 0.13720 0.60560 0.06000
C 	C 	0.02640 0.12240 0.70160 -0.07700
C 	C 	0.99010 0.06970 0.74060 0.00700
H 	H 	0.98720 0.08400 0.78640 0.04800
C 	C 	0.91660 0.93720 0.75670 0.34500
C 	C 	0.05420 0.20170 0.73450 0.32700
C 	C 	0.99960 0.00900 0.52950 -0.01400
C 	C 	0.37180 0.05450 0.61860 0.07300
H 	H 	0.41170 0.03760 0.58950 0.01700
H 	H 	0.39250 0.10720 0.63900 0.00600
H 	H 	0.30530 0.05730 0.58880 0.01600
Sm	Sm	0.82291 0.84347 0.83107 1.94000
Sm	Sm	0.42166 0.86427 0.72903 2.13100
O 	O 	0.70010 0.88610 0.72720 -0.55500
O 	O 	0.54280 0.88840 0.67830 -0.56500
O 	O 	0.39330 0.74280 0.43810 -0.44700
O 	O 	0.49260 0.68070 0.39350 -0.47500
O 	O 	0.05180 0.63810 0.33830 -0.54400
O 	O 	0.19210 0.70590 0.35900 -0.55400
O 	O 	0.33330 0.82480 0.60170 -0.42800
O 	O 	0.25410 0.84760 0.67350 -0.51500
O 	O 	0.90800 0.86480 0.73790 -0.42500
O 	O 	0.88440 0.96630 0.80420 -0.48500
O 	O 	0.02320 0.22940 0.77950 -0.46900
O 	O 	0.11530 0.24480 0.70890 -0.43200
O 	O 	0.38130 0.99240 0.68040 -0.54600
H 	H 	0.36440 0.00380 0.71780 0.15800
C 	C 	0.13270 0.67480 0.11280 -0.20700
C 	C 	0.05230 0.70320 0.05750 0.10500
H 	H 	0.99070 0.69650 0.06250 0.01800
C 	C 	0.06060 0.74070 0.99590 -0.13900
C 	C 	0.15270 0.75300 0.98930 0.00000
H 	H 	0.16030 0.77980 0.94890 0.04200
C 	C 	0.23410 0.72470 0.04380 -0.02400
C 	C 	0.22520 0.68590 0.10550 0.02800
H 	H 	0.28000 0.66770 0.14130 0.02400
C 	C 	0.12580 0.62710 0.17620 0.56000
C 	C 	0.97810 0.77730 0.94030 0.36700
C 	C 	0.33070 0.73770 0.03720 -0.02000
C 	C 	0.40850 0.74830 0.03030 -0.01000
C 	C 	0.50330 0.74880 0.02180 -0.04100
C 	C 	0.51520 0.78270 0.95800 0.04500
H 	H 	0.46230 0.80580 0.92340 0.00200
C 	C 	0.60520 0.78180 0.94680 -0.18800
C 	C 	0.68670 0.74560 0.99490 0.08600
H 	H 	0.74610 0.74330 0.98550 0.02100
C 	C 	0.67320 0.71200 0.06010 -0.15600
C 	C 	0.58460 0.71480 0.07070 0.02600
H 	H 	0.57820 0.69270 0.11330 0.03700
C 	C 	0.61720 0.81270 0.87790 0.46400
C 	C 	0.75430 0.67800 0.11480 0.42600
C 	C 	0.45660 0.50730 0.21100 -0.06500
C 	C 	0.46320 0.52700 0.14070 -0.04300
H 	H 	0.44290 0.57820 0.12150 0.06200
C 	C 	0.49790 0.47410 0.10100 0.02600
C 	C 	0.53180 0.39920 0.13130 -0.04000
H 	H 	0.55830 0.36280 0.10560 0.06000
C 	C 	0.52640 0.37760 0.20160 -0.07500
C 	C 	0.49010 0.43030 0.24060 0.00300
H 	H 	0.48720 0.41600 0.28640 0.04900
C 	C 	0.41660 0.56280 0.25670 0.34500
C 	C 	0.55420 0.29830 0.23450 0.32600
C 	C 	0.49960 0.49100 0.02950 -0.01400
C 	C 	0.87180 0.44550 0.11860 0.07400
H 	H 	0.91170 0.46240 0.08950 0.01700
H 	H 	0.89250 0.39280 0.13900 0.00500
H 	H 	0.80530 0.44270 0.08880 0.01600
Sm	Sm	0.32291 0.65653 0.33107 1.94100
Sm	Sm	0.92166 0.63573 0.22903 2.13000
O 	O 	0.20010 0.61390 0.22720 -0.55500
O 	O 	0.04280 0.61160 0.17830 -0.56500
O 	O 	0.89330 0.75720 0.93810 -0.44800
O 	O 	0.99260 0.81930 0.89350 -0.47500
O 	O 	0.55180 0.86190 0.83830 -0.54400
O 	O 	0.69210 0.79410 0.85900 -0.55400
O 	O 	0.83330 0.67520 0.10170 -0.42800
O 	O 	0.75410 0.65240 0.17350 -0.51500
O 	O 	0.40800 0.63520 0.23790 -0.42500
O 	O 	0.38440 0.53370 0.30420 -0.48500
O 	O 	0.52320 0.27060 0.27950 -0.46800
O 	O 	0.61530 0.25520 0.20890 -0.43200
O 	O 	0.88130 0.50760 0.18040 -0.54700
H 	H 	0.86440 0.49620 0.21780 0.15900
C 	C 	0.36730 0.17480 0.38720 -0.20400
C 	C 	0.44770 0.20320 0.44250 0.09700
H 	H 	0.50930 0.19650 0.43750 0.02300
C 	C 	0.43940 0.24070 0.50410 -0.13300
C 	C 	0.34730 0.25300 0.51070 -0.00200
H 	H 	0.33970 0.27980 0.55110 0.04200
C 	C 	0.26590 0.22470 0.45620 -0.02300
C 	C 	0.27480 0.18590 0.39450 0.02600
H 	H 	0.22000 0.16770 0.35870 0.02400
C 	C 	0.37420 0.12710 0.32380 0.55800
C 	C 	0.52190 0.27730 0.55970 0.36500
C 	C 	0.16930 0.23770 0.46280 -0.02000
C 	C 	0.09150 0.24830 0.46970 -0.01100
C 	C 	0.99670 0.24880 0.47820 -0.04100
C 	C 	0.98480 0.28270 0.54200 0.04500
H 	H 	0.03770 0.30580 0.57660 0.00200
C 	C 	0.89480 0.28180 0.55320 -0.18800
C 	C 	0.81330 0.24560 0.50510 0.08500
H 	H 	0.75390 0.24330 0.51450 0.02200
C 	C 	0.82680 0.21200 0.43990 -0.15500
C 	C 	0.91540 0.21480 0.42930 0.02500
H 	H 	0.92180 0.19270 0.38670 0.03700
C 	C 	0.88280 0.31270 0.62210 0.46400
C 	C 	0.74570 0.17800 0.38520 0.42600
C 	C 	0.04340 0.00730 0.28900 -0.06600
C 	C 	0.03680 0.02700 0.35930 -0.04500
H 	H 	0.05710 0.07820 0.37850 0.06200
C 	C 	0.00210 0.97410 0.39900 0.02800
C 	C 	0.96820 0.89920 0.36870 -0.04200
H 	H 	0.94170 0.86280 0.39440 0.06000
C 	C 	0.97360 0.87760 0.29840 -0.07700
C 	C 	0.00990 0.93030 0.25940 0.00700
H 	H 	0.01280 0.91600 0.21360 0.04800
C 	C 	0.08340 0.06280 0.24330 0.34500
C 	C 	0.94580 0.79830 0.26550 0.32700
C 	C 	0.00040 0.99100 0.47050 -0.01400
C 	C 	0.62820 0.94550 0.38140 0.07300
H 	H 	0.58830 0.96240 0.41050 0.01700
H 	H 	0.60750 0.89280 0.36100 0.00600
H 	H 	0.69470 0.94270 0.41120 0.01600
Sm	Sm	0.17709 0.15653 0.16893 1.94000
Sm	Sm	0.57834 0.13573 0.27097 2.13100
O 	O 	0.29990 0.11390 0.27280 -0.55500
O 	O 	0.45720 0.11160 0.32170 -0.56500
O 	O 	0.60670 0.25720 0.56190 -0.44700
O 	O 	0.50740 0.31930 0.60650 -0.47500
O 	O 	0.94820 0.36190 0.66170 -0.54400
O 	O 	0.80790 0.29410 0.64100 -0.55400
O 	O 	0.66670 0.17520 0.39830 -0.42800
O 	O 	0.74590 0.15240 0.32650 -0.51500
O 	O 	0.09200 0.13520 0.26210 -0.42500
O 	O 	0.11560 0.03370 0.19580 -0.48500
O 	O 	0.97680 0.77060 0.22050 -0.46900
O 	O 	0.88470 0.75520 0.29110 -0.43200
O 	O 	0.61870 0.00760 0.31960 -0.54600
H 	H 	0.63560 0.99620 0.28220 0.15800
