data_crystal

_cell_length_a 14.48210
_cell_length_b 16.71370
_cell_length_c 19.21300
_cell_angle_alpha 90.00000
_cell_angle_beta  108.03900
_cell_angle_gamma 90.00000

_symmetry_space_group_name_	'P 1'
_symmetry_space_group_name_H-M	'P 1'

loop_
_symmetry_equiv_pos_as_xyz
  x,y,z

loop_
_atom_site_label
_atom_site_type_symbol
_atom_site_fract_x
_atom_site_fract_y
_atom_site_fract_z
_atom_site_charge
Dy	Dy	0.67641 0.34370 0.66881 1.63600
Dy	Dy	0.07739 0.36380 0.77104 1.79100
C 	C 	0.86540 0.32580 0.88620 -0.18100
C 	C 	0.94720 0.29820 0.94260 0.07900
H 	H 	0.00870 0.30550 0.93800 0.03100
C 	C 	0.93880 0.26030 0.00470 -0.11800
C 	C 	0.84640 0.24800 0.01000 -0.01200
H 	H 	0.83920 0.22100 0.05030 0.04900
C 	C 	0.76480 0.27530 0.95610 -0.01100
C 	C 	0.77280 0.31360 0.89380 0.01300
H 	H 	0.71750 0.33090 0.85750 0.03500
C 	C 	0.87290 0.37250 0.82380 0.51500
C 	C 	0.02190 0.22430 0.05990 0.34900
C 	C 	0.66840 0.26140 0.96330 -0.01900
C 	C 	0.59140 0.25220 0.96940 -0.00800
C 	C 	0.49570 0.25070 0.97720 -0.03000
C 	C 	0.48390 0.21760 0.04180 0.02800
H 	H 	0.53670 0.19450 0.07670 0.01600
C 	C 	0.39430 0.21940 0.05320 -0.16400
C 	C 	0.31370 0.25390 0.00580 0.08000
H 	H 	0.25450 0.25490 0.01520 0.02800
C 	C 	0.32510 0.28840 0.94080 -0.15000
C 	C 	0.41530 0.28540 0.92950 0.01600
H 	H 	0.42140 0.30830 0.88700 0.04200
C 	C 	0.38210 0.18710 0.12130 0.41300
C 	C 	0.24410 0.32300 0.88560 0.43700
C 	C 	0.54380 0.49290 0.78880 -0.05700
C 	C 	0.53690 0.47300 0.85820 -0.04500
H 	H 	0.55710 0.42270 0.87760 0.06300
C 	C 	0.50080 0.52650 0.89830 0.02700
C 	C 	0.46790 0.60060 0.86810 -0.04200
H 	H 	0.44150 0.63610 0.89400 0.06100
C 	C 	0.47360 0.62270 0.79910 -0.06900
C 	C 	0.51040 0.56890 0.76070 -0.00200
H 	H 	0.51330 0.58320 0.71470 0.05300
C 	C 	0.58230 0.43780 0.74280 0.32000
C 	C 	0.44710 0.70260 0.76630 0.32400
C 	C 	0.50000 0.50850 0.97070 -0.01400
C 	C 	0.12790 0.55390 0.88170 0.01000
H 	H 	0.08860 0.53750 0.91130 0.04000
H 	H 	0.10670 0.60540 0.86060 0.02900
H 	H 	0.19460 0.55710 0.91150 0.03700
O 	O 	0.79940 0.38550 0.77307 -0.50200
O 	O 	0.95650 0.38880 0.82080 -0.49500
O 	O 	0.10620 0.24230 0.06140 -0.40700
O 	O 	0.00640 0.18090 0.10610 -0.42500
O 	O 	0.44950 0.13900 0.16250 -0.48300
O 	O 	0.30750 0.20550 0.14080 -0.48000
O 	O 	0.16700 0.32560 0.89770 -0.41300
O 	O 	0.24520 0.34830 0.82700 -0.47300
O 	O 	0.59150 0.36480 0.76145 -0.38100
O 	O 	0.61540 0.46660 0.69580 -0.42300
O 	O 	0.47670 0.72950 0.72070 -0.41800
O 	O 	0.38460 0.74520 0.78990 -0.38800
O 	O 	0.11800 0.49250 0.82020 -0.47900
H 	H 	0.13490 0.50390 0.78270 0.16500
Dy	Dy	0.82359 0.84370 0.83119 1.63700
Dy	Dy	0.42261 0.86380 0.72896 1.79100
C 	C 	0.63460 0.82580 0.61380 -0.17900
C 	C 	0.55280 0.79820 0.55740 0.07300
H 	H 	0.49130 0.80550 0.56200 0.03400
C 	C 	0.56120 0.76030 0.49530 -0.11300
C 	C 	0.65360 0.74800 0.49000 -0.01300
H 	H 	0.66080 0.72100 0.44970 0.05000
C 	C 	0.73520 0.77530 0.54390 -0.01100
C 	C 	0.72720 0.81360 0.60620 0.01200
H 	H 	0.78250 0.83090 0.64250 0.03500
C 	C 	0.62710 0.87250 0.67620 0.51400
C 	C 	0.47810 0.72430 0.44010 0.34600
C 	C 	0.83160 0.76140 0.53670 -0.01900
C 	C 	0.90860 0.75220 0.53060 -0.01000
C 	C 	0.00430 0.75070 0.52280 -0.02800
C 	C 	0.01610 0.71760 0.45820 0.03000
H 	H 	0.96330 0.69450 0.42330 0.01400
C 	C 	0.10570 0.71940 0.44680 -0.16400
C 	C 	0.18630 0.75390 0.49420 0.07900
H 	H 	0.24550 0.75490 0.48480 0.02800
C 	C 	0.17490 0.78840 0.55920 -0.14900
C 	C 	0.08470 0.78540 0.57050 0.01600
H 	H 	0.07860 0.80830 0.61300 0.04300
C 	C 	0.11790 0.68710 0.37870 0.41300
C 	C 	0.25590 0.82300 0.61440 0.43600
C 	C 	0.95620 0.99290 0.71120 -0.05700
C 	C 	0.96310 0.97300 0.64180 -0.04700
H 	H 	0.94290 0.92270 0.62240 0.06400
C 	C 	0.99920 0.02650 0.60170 0.03100
C 	C 	0.03210 0.10060 0.63190 -0.04400
H 	H 	0.05850 0.13610 0.60600 0.06100
C 	C 	0.02640 0.12270 0.70090 -0.06900
C 	C 	0.98960 0.06890 0.73930 0.00000
H 	H 	0.98670 0.08320 0.78530 0.05300
C 	C 	0.91770 0.93780 0.75720 0.32000
C 	C 	0.05290 0.20260 0.73370 0.32400
C 	C 	0.00000 0.00850 0.52930 -0.01700
C 	C 	0.37210 0.05390 0.61830 0.00900
H 	H 	0.41140 0.03750 0.58870 0.04000
H 	H 	0.39330 0.10540 0.63940 0.02900
H 	H 	0.30540 0.05710 0.58850 0.03700
O 	O 	0.70060 0.88550 0.72693 -0.50100
O 	O 	0.54350 0.88880 0.67920 -0.49500
O 	O 	0.39380 0.74230 0.43860 -0.40600
O 	O 	0.49360 0.68090 0.39390 -0.42500
O 	O 	0.05050 0.63900 0.33750 -0.48200
O 	O 	0.19250 0.70550 0.35920 -0.48000
O 	O 	0.33300 0.82560 0.60230 -0.41300
O 	O 	0.25480 0.84830 0.67300 -0.47200
O 	O 	0.90850 0.86480 0.73855 -0.38100
O 	O 	0.88460 0.96660 0.80420 -0.42300
O 	O 	0.02330 0.22950 0.77930 -0.41900
O 	O 	0.11540 0.24520 0.71010 -0.38800
O 	O 	0.38200 0.99250 0.67980 -0.47800
H 	H 	0.36510 0.00390 0.71730 0.16400
Dy	Dy	0.32359 0.65630 0.33119 1.63700
Dy	Dy	0.92261 0.63620 0.22896 1.78900
C 	C 	0.13460 0.67420 0.11380 -0.18200
C 	C 	0.05280 0.70180 0.05740 0.08100
H 	H 	0.99130 0.69450 0.06200 0.03000
C 	C 	0.06120 0.73970 0.99530 -0.11800
C 	C 	0.15360 0.75200 0.99000 -0.01200
H 	H 	0.16080 0.77900 0.94970 0.04900
C 	C 	0.23520 0.72470 0.04390 -0.01100
C 	C 	0.22720 0.68640 0.10620 0.01400
H 	H 	0.28250 0.66910 0.14250 0.03400
C 	C 	0.12710 0.62750 0.17620 0.51600
C 	C 	0.97810 0.77570 0.94010 0.34800
C 	C 	0.33160 0.73860 0.03670 -0.01900
C 	C 	0.40860 0.74780 0.03060 -0.00800
C 	C 	0.50430 0.74930 0.02280 -0.03000
C 	C 	0.51610 0.78240 0.95820 0.02900
H 	H 	0.46330 0.80550 0.92330 0.01600
C 	C 	0.60570 0.78060 0.94680 -0.16400
C 	C 	0.68630 0.74610 0.99420 0.08000
H 	H 	0.74550 0.74510 0.98480 0.02800
C 	C 	0.67490 0.71160 0.05920 -0.15000
C 	C 	0.58470 0.71460 0.07050 0.01600
H 	H 	0.57860 0.69170 0.11300 0.04200
C 	C 	0.61790 0.81290 0.87870 0.41300
C 	C 	0.75590 0.67700 0.11440 0.43700
C 	C 	0.45620 0.50710 0.21120 -0.05700
C 	C 	0.46310 0.52700 0.14180 -0.04500
H 	H 	0.44290 0.57730 0.12240 0.06300
C 	C 	0.49920 0.47350 0.10170 0.02700
C 	C 	0.53210 0.39940 0.13190 -0.04200
H 	H 	0.55850 0.36390 0.10600 0.06100
C 	C 	0.52640 0.37730 0.20090 -0.06900
C 	C 	0.48960 0.43110 0.23930 -0.00200
H 	H 	0.48670 0.41680 0.28530 0.05300
C 	C 	0.41770 0.56220 0.25720 0.32000
C 	C 	0.55290 0.29740 0.23370 0.32400
C 	C 	0.50000 0.49150 0.02930 -0.01400
C 	C 	0.87210 0.44610 0.11830 0.01000
H 	H 	0.91140 0.46250 0.08870 0.04000
H 	H 	0.89330 0.39460 0.13940 0.02800
H 	H 	0.80540 0.44290 0.08850 0.03600
O 	O 	0.20060 0.61450 0.22693 -0.50200
O 	O 	0.04350 0.61120 0.17920 -0.49400
O 	O 	0.89380 0.75770 0.93860 -0.40600
O 	O 	0.99360 0.81910 0.89390 -0.42500
O 	O 	0.55050 0.86100 0.83750 -0.48300
O 	O 	0.69250 0.79450 0.85920 -0.48000
O 	O 	0.83300 0.67440 0.10230 -0.41300
O 	O 	0.75480 0.65170 0.17300 -0.47300
O 	O 	0.40850 0.63520 0.23855 -0.38100
O 	O 	0.38460 0.53340 0.30420 -0.42300
O 	O 	0.52330 0.27050 0.27930 -0.41800
O 	O 	0.61540 0.25480 0.21010 -0.38800
O 	O 	0.88200 0.50750 0.17980 -0.47900
H 	H 	0.86510 0.49610 0.21730 0.16500
Dy	Dy	0.17641 0.15630 0.16881 1.63700
Dy	Dy	0.57739 0.13620 0.27104 1.79100
C 	C 	0.36540 0.17420 0.38620 -0.17900
C 	C 	0.44720 0.20180 0.44260 0.07300
H 	H 	0.50870 0.19450 0.43800 0.03400
C 	C 	0.43880 0.23970 0.50470 -0.11300
C 	C 	0.34640 0.25200 0.51000 -0.01300
H 	H 	0.33920 0.27900 0.55030 0.05000
C 	C 	0.26480 0.22470 0.45610 -0.01000
C 	C 	0.27280 0.18640 0.39380 0.01200
H 	H 	0.21750 0.16910 0.35750 0.03500
C 	C 	0.37290 0.12750 0.32380 0.51400
C 	C 	0.52190 0.27570 0.55990 0.34600
C 	C 	0.16840 0.23860 0.46330 -0.02000
C 	C 	0.09140 0.24780 0.46940 -0.00800
C 	C 	0.99570 0.24930 0.47720 -0.02900
C 	C 	0.98390 0.28240 0.54180 0.02800
H 	H 	0.03670 0.30550 0.57670 0.01600
C 	C 	0.89430 0.28060 0.55320 -0.16300
C 	C 	0.81370 0.24610 0.50580 0.07900
H 	H 	0.75450 0.24510 0.51520 0.02800
C 	C 	0.82510 0.21160 0.44080 -0.14900
C 	C 	0.91530 0.21460 0.42950 0.01600
H 	H 	0.92140 0.19170 0.38700 0.04200
C 	C 	0.88210 0.31290 0.62130 0.41300
C 	C 	0.74410 0.17700 0.38560 0.43600
C 	C 	0.04380 0.00710 0.28880 -0.05800
C 	C 	0.03690 0.02700 0.35820 -0.04500
H 	H 	0.05710 0.07730 0.37760 0.06300
C 	C 	0.00080 0.97350 0.39830 0.02800
C 	C 	0.96790 0.89940 0.36810 -0.04300
H 	H 	0.94150 0.86390 0.39400 0.06100
C 	C 	0.97360 0.87730 0.29910 -0.07200
C 	C 	0.01040 0.93110 0.26070 0.00300
H 	H 	0.01330 0.91680 0.21470 0.05300
C 	C 	0.08230 0.06220 0.24280 0.32100
C 	C 	0.94710 0.79740 0.26630 0.32500
C 	C 	0.00000 0.99150 0.47070 -0.01100
C 	C 	0.62790 0.94610 0.38170 0.00800
H 	H 	0.58860 0.96250 0.41130 0.04100
H 	H 	0.60670 0.89460 0.36060 0.02900
H 	H 	0.69460 0.94290 0.41150 0.03700
O 	O 	0.29940 0.11450 0.27307 -0.50100
O 	O 	0.45650 0.11120 0.32080 -0.49500
O 	O 	0.60620 0.25770 0.56140 -0.40600
O 	O 	0.50640 0.31910 0.60610 -0.42500
O 	O 	0.94950 0.36100 0.66250 -0.48300
O 	O 	0.80750 0.29450 0.64080 -0.48000
O 	O 	0.66700 0.17440 0.39770 -0.41300
O 	O 	0.74520 0.15170 0.32700 -0.47300
O 	O 	0.09150 0.13520 0.26145 -0.38100
O 	O 	0.11540 0.03340 0.19580 -0.42300
O 	O 	0.97670 0.77050 0.22070 -0.42000
O 	O 	0.88460 0.75480 0.28990 -0.38800
O 	O 	0.61800 0.00750 0.32020 -0.47800
H 	H 	0.63490 0.99610 0.28270 0.16400
