data_crystal

_cell_length_a 15.90820
_cell_length_b 15.90820
_cell_length_c 21.61840
_cell_angle_alpha 90.00000
_cell_angle_beta  90.00000
_cell_angle_gamma 90.00000

_symmetry_space_group_name_	'P 1'
_symmetry_space_group_name_H-M	'P 1'

loop_
_symmetry_equiv_pos_as_xyz
  x,y,z

loop_
_atom_site_label
_atom_site_type_symbol
_atom_site_fract_x
_atom_site_fract_y
_atom_site_fract_z
_atom_site_charge
C 	C 	0.91340 0.85940 0.35880 0.08000
H 	H 	0.96230 0.88800 0.34810 -0.00700
C 	C 	0.88450 0.79780 0.31890 -0.14400
H 	H 	0.91400 0.78570 0.28280 0.08200
C 	C 	0.81080 0.75370 0.33280 0.07000
C 	C 	0.76810 0.78090 0.38560 -0.14200
H 	H 	0.71650 0.75720 0.39560 0.07400
C 	C 	0.80130 0.84200 0.42280 0.06700
H 	H 	0.77120 0.85810 0.45770 -0.01900
C 	C 	0.78000 0.68150 0.29590 0.01600
C 	C 	0.80950 0.66510 0.23650 -0.08600
H 	H 	0.84970 0.70040 0.21900 0.06200
C 	C 	0.77990 0.59730 0.20320 0.00400
H 	H 	0.79970 0.58800 0.16330 0.02400
C 	C 	0.72090 0.54280 0.22850 -0.08600
H 	H 	0.70220 0.49640 0.20630 0.06100
C 	C 	0.69020 0.55880 0.28779 0.00400
C 	C 	0.71980 0.62690 0.32052 -0.08100
H 	H 	0.69930 0.63680 0.36010 0.05700
C 	C 	0.62720 0.50330 0.31857 0.09600
C 	C 	0.57670 0.40830 0.38105 0.09500
C 	C 	0.56870 0.33890 0.42555 0.02200
C 	C 	0.49700 0.33700 0.46300 -0.08500
H 	H 	0.45670 0.37900 0.45950 0.06100
C 	C 	0.48620 0.27320 0.50510 0.00400
H 	H 	0.43880 0.27290 0.53040 0.02300
C 	C 	0.54500 0.20890 0.51060 -0.08300
H 	H 	0.53730 0.16650 0.53960 0.05700
C 	C 	0.61670 0.20840 0.47170 0.01800
C 	C 	0.62710 0.27320 0.42960 -0.08600
H 	H 	0.67360 0.27320 0.40360 0.06400
C 	C 	0.68130 0.14270 0.47790 0.06800
C 	C 	0.69090 0.09500 0.53180 -0.14200
H 	H 	0.65350 0.10170 0.56440 0.07800
C 	C 	0.75640 0.03760 0.53640 0.08000
H 	H 	0.76110 0.00660 0.57270 -0.01000
C 	C 	0.80270 0.06700 0.43940 0.07400
H 	H 	0.84040 0.05750 0.40720 -0.01200
C 	C 	0.73890 0.12480 0.43030 -0.13600
H 	H 	0.73410 0.15220 0.39250 0.07400
N 	N 	0.87560 0.88020 0.41147 -0.23600
N 	N 	0.54560 0.50770 0.31612 -0.20600
N 	N 	0.51270 0.44680 0.35555 -0.12200
N 	N 	0.64930 0.44220 0.35865 -0.10500
N 	N 	0.73160 0.42140 0.37830 -0.20800
H 	H 	0.77600 0.45330 0.37700 0.10600
H 	H 	0.75810 0.39130 0.34990 0.10100
N 	N 	0.81300 0.02410 0.49202 -0.23000
C 	C 	0.08660 0.14060 0.85880 0.08200
H 	H 	0.03770 0.11200 0.84810 -0.00500
C 	C 	0.11550 0.20220 0.81890 -0.14300
H 	H 	0.08600 0.21430 0.78280 0.08300
C 	C 	0.18920 0.24630 0.83280 0.07100
C 	C 	0.23190 0.21910 0.88560 -0.13900
H 	H 	0.28350 0.24280 0.89560 0.07800
C 	C 	0.19870 0.15800 0.92280 0.06900
H 	H 	0.22880 0.14190 0.95770 -0.01100
C 	C 	0.22000 0.31850 0.79590 0.01800
C 	C 	0.19050 0.33490 0.73650 -0.08600
H 	H 	0.15030 0.29960 0.71900 0.06200
C 	C 	0.22010 0.40270 0.70320 0.00400
H 	H 	0.20030 0.41200 0.66330 0.02500
C 	C 	0.27910 0.45720 0.72850 -0.08500
H 	H 	0.29780 0.50360 0.70630 0.06100
C 	C 	0.30980 0.44120 0.78779 0.00400
C 	C 	0.28020 0.37310 0.82052 -0.08100
H 	H 	0.30070 0.36320 0.86010 0.05900
C 	C 	0.37280 0.49670 0.81857 0.09600
C 	C 	0.42330 0.59170 0.88105 0.10100
C 	C 	0.43130 0.66110 0.92555 0.01000
C 	C 	0.50300 0.66300 0.96300 -0.04400
H 	H 	0.54330 0.62100 0.95950 0.05200
C 	C 	0.51380 0.72680 0.00510 -0.03300
H 	H 	0.56120 0.72710 0.03040 0.03200
C 	C 	0.45500 0.79110 0.01060 -0.08800
H 	H 	0.46270 0.83350 0.03960 0.05500
C 	C 	0.38330 0.79160 0.97170 0.02500
C 	C 	0.37290 0.72680 0.92960 -0.07700
H 	H 	0.32640 0.72680 0.90360 0.06100
C 	C 	0.31870 0.85730 0.97790 0.09300
C 	C 	0.30910 0.90500 0.03180 -0.16700
H 	H 	0.34650 0.89830 0.06440 0.08400
C 	C 	0.24360 0.96240 0.03640 0.06800
H 	H 	0.23890 0.99340 0.07270 -0.00900
C 	C 	0.19730 0.93300 0.93940 0.08200
H 	H 	0.15960 0.94250 0.90720 -0.01400
C 	C 	0.26110 0.87520 0.93030 -0.14400
H 	H 	0.26590 0.84780 0.89250 0.07700
N 	N 	0.12440 0.11980 0.91147 -0.23200
N 	N 	0.45440 0.49230 0.81612 -0.20500
N 	N 	0.48730 0.55320 0.85555 -0.12300
N 	N 	0.35070 0.55780 0.85865 -0.10500
N 	N 	0.26840 0.57860 0.87830 -0.20700
H 	H 	0.22400 0.54670 0.87700 0.10700
H 	H 	0.24190 0.60870 0.84990 0.10100
N 	N 	0.18700 0.97590 0.99202 -0.21800
C 	C 	0.64060 0.41340 0.60880 0.08200
H 	H 	0.61200 0.46230 0.59810 -0.00600
C 	C 	0.70220 0.38450 0.56890 -0.14400
H 	H 	0.71430 0.41400 0.53280 0.08300
C 	C 	0.74630 0.31080 0.58280 0.07300
C 	C 	0.71910 0.26810 0.63560 -0.14200
H 	H 	0.74280 0.21650 0.64560 0.07600
C 	C 	0.65800 0.30130 0.67280 0.06800
H 	H 	0.64190 0.27120 0.70770 -0.01700
C 	C 	0.81850 0.28000 0.54590 0.01400
C 	C 	0.83490 0.30950 0.48650 -0.08000
H 	H 	0.79960 0.34970 0.46900 0.06000
C 	C 	0.90270 0.27990 0.45320 -0.00400
H 	H 	0.91200 0.29970 0.41330 0.02900
C 	C 	0.95720 0.22090 0.47850 -0.07400
H 	H 	0.00360 0.20220 0.45630 0.05500
C 	C 	0.94120 0.19020 0.53779 -0.00200
C 	C 	0.87310 0.21980 0.57052 -0.07600
H 	H 	0.86320 0.19930 0.61010 0.05600
C 	C 	0.99670 0.12720 0.56857 0.10000
C 	C 	0.09170 0.07670 0.63105 0.09500
C 	C 	0.16110 0.06870 0.67555 0.02100
C 	C 	0.16300 0.99700 0.71300 -0.08400
H 	H 	0.12100 0.95670 0.70950 0.06100
C 	C 	0.22680 0.98620 0.75510 0.00300
H 	H 	0.22710 0.93880 0.78040 0.02400
C 	C 	0.29110 0.04500 0.76060 -0.08200
H 	H 	0.33350 0.03730 0.78960 0.05700
C 	C 	0.29160 0.11670 0.72170 0.01700
C 	C 	0.22680 0.12710 0.67960 -0.08500
H 	H 	0.22680 0.17360 0.65360 0.06300
C 	C 	0.35730 0.18130 0.72790 0.06900
C 	C 	0.40500 0.19090 0.78180 -0.14300
H 	H 	0.39830 0.15350 0.81440 0.07900
C 	C 	0.46240 0.25640 0.78640 0.08100
H 	H 	0.49340 0.26110 0.82270 -0.01100
C 	C 	0.43300 0.30270 0.68940 0.07400
H 	H 	0.44250 0.34040 0.65720 -0.01300
C 	C 	0.37520 0.23890 0.68030 -0.13600
H 	H 	0.34780 0.23410 0.64250 0.07400
N 	N 	0.61980 0.37560 0.66147 -0.23500
N 	N 	0.99230 0.04560 0.56612 -0.20400
N 	N 	0.05320 0.01270 0.60555 -0.12400
N 	N 	0.05780 0.14930 0.60865 -0.10700
N 	N 	0.07860 0.23160 0.62830 -0.20800
H 	H 	0.04670 0.27600 0.62700 0.10500
H 	H 	0.10870 0.25810 0.59990 0.10100
N 	N 	0.47590 0.31300 0.74202 -0.23100
C 	C 	0.35940 0.58660 0.10880 0.09000
H 	H 	0.38800 0.53770 0.09810 -0.01100
C 	C 	0.29780 0.61550 0.06890 -0.16300
H 	H 	0.28570 0.58600 0.03280 0.08300
C 	C 	0.25370 0.68920 0.08280 0.09800
C 	C 	0.28090 0.73190 0.13560 -0.16000
H 	H 	0.25720 0.78350 0.14560 0.08300
C 	C 	0.34200 0.69870 0.17280 0.07700
H 	H 	0.35810 0.72880 0.20770 -0.02100
C 	C 	0.18150 0.72000 0.04590 -0.05300
C 	C 	0.16510 0.69050 0.98650 0.00300
H 	H 	0.20040 0.65030 0.96900 0.03700
C 	C 	0.09730 0.72010 0.95320 -0.07400
H 	H 	0.08800 0.70030 0.91330 0.05400
C 	C 	0.04280 0.77910 0.97850 0.00700
H 	H 	0.99640 0.79780 0.95630 0.03100
C 	C 	0.05880 0.80980 0.03779 -0.06600
C 	C 	0.12690 0.78020 0.07052 -0.02400
H 	H 	0.13680 0.80070 0.11010 0.03700
C 	C 	0.00330 0.87280 0.06857 0.11300
C 	C 	0.90830 0.92330 0.13105 0.09400
C 	C 	0.83890 0.93130 0.17555 0.01800
C 	C 	0.83700 0.00300 0.21300 -0.08100
H 	H 	0.87900 0.04330 0.20950 0.06100
C 	C 	0.77320 0.01380 0.25510 0.00700
H 	H 	0.77290 0.06120 0.28040 0.02300
C 	C 	0.70890 0.95500 0.26060 -0.08600
H 	H 	0.66650 0.96270 0.28960 0.05700
C 	C 	0.70840 0.88330 0.22170 0.01800
C 	C 	0.77320 0.87290 0.17960 -0.08500
H 	H 	0.77320 0.82640 0.15360 0.06200
C 	C 	0.64270 0.81870 0.22790 0.06800
C 	C 	0.59500 0.80910 0.28180 -0.14200
H 	H 	0.60170 0.84650 0.31440 0.07700
C 	C 	0.53760 0.74360 0.28640 0.08000
H 	H 	0.50660 0.73890 0.32270 -0.01100
C 	C 	0.56700 0.69730 0.18940 0.07400
H 	H 	0.55750 0.65960 0.15720 -0.01400
C 	C 	0.62480 0.76110 0.18030 -0.13600
H 	H 	0.65220 0.76590 0.14250 0.07200
N 	N 	0.38020 0.62440 0.16147 -0.23900
N 	N 	0.00770 0.95440 0.06612 -0.21100
N 	N 	0.94680 0.98730 0.10555 -0.12400
N 	N 	0.94220 0.85070 0.10865 -0.11000
N 	N 	0.92140 0.76840 0.12830 -0.20700
H 	H 	0.95330 0.72400 0.12700 0.10400
H 	H 	0.89130 0.74190 0.09990 0.09800
N 	N 	0.52410 0.68700 0.24202 -0.23100
C 	C 	0.58660 0.35940 0.89120 0.07500
H 	H 	0.53770 0.38800 0.90190 -0.00100
C 	C 	0.61550 0.29780 0.93110 -0.12600
H 	H 	0.58600 0.28570 0.96720 0.08300
C 	C 	0.68920 0.25370 0.91720 0.04800
C 	C 	0.73190 0.28090 0.86440 -0.12500
H 	H 	0.78350 0.25720 0.85440 0.07000
C 	C 	0.69870 0.34200 0.82720 0.06000
H 	H 	0.72880 0.35810 0.79230 -0.01400
C 	C 	0.72000 0.18150 0.95410 0.07900
C 	C 	0.69050 0.16510 0.01350 -0.16100
H 	H 	0.65030 0.20040 0.03100 0.08300
C 	C 	0.72010 0.09730 0.04680 0.06300
H 	H 	0.70030 0.08800 0.08670 0.00400
C 	C 	0.77910 0.04280 0.02150 -0.15300
H 	H 	0.79780 0.99640 0.04370 0.07900
C 	C 	0.80980 0.05880 0.96221 0.06000
C 	C 	0.78020 0.12690 0.92948 -0.12700
H 	H 	0.80070 0.13680 0.88990 0.07400
C 	C 	0.87280 0.00330 0.93143 0.08700
C 	C 	0.92330 0.90830 0.86895 0.09600
C 	C 	0.93130 0.83890 0.82445 0.01900
C 	C 	0.00300 0.83700 0.78700 -0.08200
H 	H 	0.04330 0.87900 0.79050 0.06100
C 	C 	0.01380 0.77320 0.74490 0.00600
H 	H 	0.06120 0.77290 0.71960 0.02300
C 	C 	0.95500 0.70890 0.73940 -0.08500
H 	H 	0.96270 0.66650 0.71040 0.05700
C 	C 	0.88330 0.70840 0.77830 0.01800
C 	C 	0.87290 0.77320 0.82040 -0.08500
H 	H 	0.82640 0.77320 0.84640 0.06500
C 	C 	0.81870 0.64270 0.77210 0.06900
C 	C 	0.80910 0.59500 0.71820 -0.14200
H 	H 	0.84650 0.60170 0.68560 0.07800
C 	C 	0.74360 0.53760 0.71360 0.08100
H 	H 	0.73890 0.50660 0.67730 -0.01100
C 	C 	0.69730 0.56700 0.81060 0.07400
H 	H 	0.65960 0.55750 0.84280 -0.01200
C 	C 	0.76110 0.62480 0.81970 -0.13600
H 	H 	0.76590 0.65220 0.85750 0.07600
N 	N 	0.62440 0.38020 0.83853 -0.23200
N 	N 	0.95440 0.00770 0.93388 -0.19600
N 	N 	0.98730 0.94680 0.89445 -0.12400
N 	N 	0.85070 0.94220 0.89135 -0.10500
N 	N 	0.76840 0.92140 0.87170 -0.21000
H 	H 	0.72400 0.95330 0.87300 0.10600
H 	H 	0.74190 0.89130 0.90010 0.10400
N 	N 	0.68700 0.52410 0.75798 -0.23100
C 	C 	0.41340 0.64060 0.39120 0.08200
H 	H 	0.46230 0.61200 0.40190 -0.00600
C 	C 	0.38450 0.70220 0.43110 -0.14400
H 	H 	0.41400 0.71430 0.46720 0.08300
C 	C 	0.31080 0.74630 0.41720 0.07100
C 	C 	0.26810 0.71910 0.36440 -0.14200
H 	H 	0.21650 0.74280 0.35440 0.07600
C 	C 	0.30130 0.65800 0.32720 0.06800
H 	H 	0.27120 0.64190 0.29230 -0.01800
C 	C 	0.28000 0.81850 0.45410 0.01600
C 	C 	0.30950 0.83490 0.51350 -0.08400
H 	H 	0.34970 0.79960 0.53100 0.06100
C 	C 	0.27990 0.90270 0.54680 0.00100
H 	H 	0.29970 0.91200 0.58670 0.02700
C 	C 	0.22090 0.95720 0.52150 -0.08200
H 	H 	0.20220 0.00360 0.54370 0.05900
C 	C 	0.19020 0.94120 0.46221 0.00100
C 	C 	0.21980 0.87310 0.42948 -0.07900
H 	H 	0.19930 0.86320 0.38990 0.05700
C 	C 	0.12720 0.99670 0.43143 0.09800
C 	C 	0.07670 0.09170 0.36895 0.09500
C 	C 	0.06870 0.16110 0.32445 0.01800
C 	C 	0.99700 0.16300 0.28700 -0.08100
H 	H 	0.95670 0.12100 0.29050 0.06100
C 	C 	0.98620 0.22680 0.24490 0.00800
H 	H 	0.93880 0.22710 0.21960 0.02200
C 	C 	0.04500 0.29110 0.23940 -0.08700
H 	H 	0.03730 0.33350 0.21040 0.05700
C 	C 	0.11670 0.29160 0.27830 0.01800
C 	C 	0.12710 0.22680 0.32040 -0.08500
H 	H 	0.17360 0.22680 0.34640 0.06300
C 	C 	0.18130 0.35730 0.27210 0.06800
C 	C 	0.19090 0.40500 0.21820 -0.14200
H 	H 	0.15350 0.39830 0.18560 0.07600
C 	C 	0.25640 0.46240 0.21360 0.08000
H 	H 	0.26110 0.49340 0.17730 -0.01200
C 	C 	0.30270 0.43300 0.31060 0.07400
H 	H 	0.34040 0.44250 0.34280 -0.01300
C 	C 	0.23890 0.37520 0.31970 -0.13600
H 	H 	0.23410 0.34780 0.35750 0.07400
N 	N 	0.37560 0.61980 0.33853 -0.23500
N 	N 	0.04560 0.99230 0.43388 -0.20500
N 	N 	0.01270 0.05320 0.39445 -0.12400
N 	N 	0.14930 0.05780 0.39135 -0.10600
N 	N 	0.23160 0.07860 0.37170 -0.20800
H 	H 	0.27600 0.04670 0.37300 0.10500
H 	H 	0.25810 0.10870 0.40010 0.10100
N 	N 	0.31300 0.47590 0.25798 -0.23100
C 	C 	0.85940 0.91340 0.64120 0.08100
H 	H 	0.88800 0.96230 0.65190 -0.00700
C 	C 	0.79780 0.88450 0.68110 -0.14400
H 	H 	0.78570 0.91400 0.71720 0.08300
C 	C 	0.75370 0.81080 0.66720 0.07100
C 	C 	0.78090 0.76810 0.61440 -0.14200
H 	H 	0.75720 0.71650 0.60440 0.07600
C 	C 	0.84200 0.80130 0.57720 0.06800
H 	H 	0.85810 0.77120 0.54230 -0.01800
C 	C 	0.68150 0.78000 0.70410 0.01600
C 	C 	0.66510 0.80950 0.76350 -0.08400
H 	H 	0.70040 0.84970 0.78100 0.06100
C 	C 	0.59730 0.77990 0.79680 0.00200
H 	H 	0.58800 0.79970 0.83670 0.02800
C 	C 	0.54280 0.72090 0.77150 -0.08300
H 	H 	0.49640 0.70220 0.79370 0.06000
C 	C 	0.55880 0.69020 0.71221 0.00200
C 	C 	0.62690 0.71980 0.67948 -0.08000
H 	H 	0.63680 0.69930 0.63990 0.05700
C 	C 	0.50330 0.62720 0.68143 0.09600
C 	C 	0.40830 0.57670 0.61895 0.09500
C 	C 	0.33890 0.56870 0.57445 0.02200
C 	C 	0.33700 0.49700 0.53700 -0.08500
H 	H 	0.37900 0.45670 0.54050 0.06100
C 	C 	0.27320 0.48620 0.49490 0.00400
H 	H 	0.27290 0.43880 0.46960 0.02300
C 	C 	0.20890 0.54500 0.48940 -0.08200
H 	H 	0.16650 0.53730 0.46040 0.05600
C 	C 	0.20840 0.61670 0.52830 0.01800
C 	C 	0.27320 0.62710 0.57040 -0.08600
H 	H 	0.27320 0.67360 0.59640 0.06400
C 	C 	0.14270 0.68130 0.52210 0.06800
C 	C 	0.09500 0.69090 0.46820 -0.14200
H 	H 	0.10170 0.65350 0.43560 0.07800
C 	C 	0.03760 0.75640 0.46360 0.08000
H 	H 	0.00660 0.76110 0.42730 -0.01100
C 	C 	0.06700 0.80270 0.56060 0.07400
H 	H 	0.05750 0.84040 0.59280 -0.01300
C 	C 	0.12480 0.73890 0.56970 -0.13600
H 	H 	0.15220 0.73410 0.60750 0.07400
N 	N 	0.88020 0.87560 0.58853 -0.23600
N 	N 	0.50770 0.54560 0.68388 -0.20600
N 	N 	0.44680 0.51270 0.64445 -0.12200
N 	N 	0.44220 0.64930 0.64135 -0.10500
N 	N 	0.42140 0.73160 0.62170 -0.20800
H 	H 	0.45330 0.77600 0.62300 0.10500
H 	H 	0.39130 0.75810 0.65010 0.10100
N 	N 	0.02410 0.81300 0.50798 -0.23000
C 	C 	0.14060 0.08660 0.14120 0.08100
H 	H 	0.11200 0.03770 0.15190 -0.00700
C 	C 	0.20220 0.11550 0.18110 -0.14400
H 	H 	0.21430 0.08600 0.21720 0.08300
C 	C 	0.24630 0.18920 0.16720 0.07100
C 	C 	0.21910 0.23190 0.11440 -0.14300
H 	H 	0.24280 0.28350 0.10440 0.07400
C 	C 	0.15800 0.19870 0.07720 0.06700
H 	H 	0.14190 0.22880 0.04230 -0.02400
C 	C 	0.31850 0.22000 0.20410 0.01600
C 	C 	0.33490 0.19050 0.26350 -0.08500
H 	H 	0.29960 0.15030 0.28100 0.06100
C 	C 	0.40270 0.22010 0.29680 0.00200
H 	H 	0.41200 0.20030 0.33670 0.02600
C 	C 	0.45720 0.27910 0.27150 -0.08400
H 	H 	0.50360 0.29780 0.29370 0.06000
C 	C 	0.44120 0.30980 0.21221 0.00200
C 	C 	0.37310 0.28020 0.17948 -0.08000
H 	H 	0.36320 0.30070 0.13990 0.05500
C 	C 	0.49670 0.37280 0.18143 0.09500
C 	C 	0.59170 0.42330 0.11895 0.08900
C 	C 	0.66110 0.43130 0.07445 0.03400
C 	C 	0.66300 0.50300 0.03700 -0.12600
H 	H 	0.62100 0.54330 0.04050 0.07000
C 	C 	0.72680 0.51380 0.99490 0.04200
H 	H 	0.72710 0.56120 0.96960 0.01500
C 	C 	0.79110 0.45500 0.98940 -0.07700
H 	H 	0.83350 0.46270 0.96040 0.05900
C 	C 	0.79160 0.38330 0.02830 0.01100
C 	C 	0.72680 0.37290 0.07040 -0.09500
H 	H 	0.72680 0.32640 0.09640 0.06700
C 	C 	0.85730 0.31870 0.02210 0.04400
C 	C 	0.90500 0.30910 0.96820 -0.11700
H 	H 	0.89830 0.34650 0.93560 0.07200
C 	C 	0.96240 0.24360 0.96360 0.09100
H 	H 	0.99340 0.23890 0.92730 -0.01200
C 	C 	0.93300 0.19730 0.06060 0.06600
H 	H 	0.94250 0.15960 0.09280 -0.01000
C 	C 	0.87520 0.26110 0.06970 -0.12800
H 	H 	0.84780 0.26590 0.10750 0.07100
N 	N 	0.11980 0.12440 0.08853 -0.23800
N 	N 	0.49230 0.45440 0.18388 -0.20600
N 	N 	0.55320 0.48730 0.14445 -0.12200
N 	N 	0.55780 0.35070 0.14135 -0.10500
N 	N 	0.57860 0.26840 0.12170 -0.21000
H 	H 	0.54670 0.22400 0.12300 0.10400
H 	H 	0.60870 0.24190 0.15010 0.10100
N 	N 	0.97590 0.18700 0.00798 -0.24000
Cd	Cd	0.44115 0.55885 0.25000 1.19000
Cd	Cd	0.55885 0.44115 0.75000 1.19000
Cd	Cd	0.94115 0.94115 0.50000 1.18900
Cd	Cd	0.05885 0.05885 -0.00000 1.18200
