data_crystal

_cell_length_a 15.89830
_cell_length_b 15.89830
_cell_length_c 21.66750
_cell_angle_alpha 90.00000
_cell_angle_beta  90.00000
_cell_angle_gamma 90.00000

_symmetry_space_group_name_	'P 1'
_symmetry_space_group_name_H-M	'P 1'

loop_
_symmetry_equiv_pos_as_xyz
  x,y,z

loop_
_atom_site_label
_atom_site_type_symbol
_atom_site_fract_x
_atom_site_fract_y
_atom_site_fract_z
_atom_site_charge
C 	C 	0.74250 0.53830 0.28700 0.07900
H 	H 	0.73720 0.50820 0.32350 -0.01300
C 	C 	0.80820 0.59580 0.28210 -0.14200
H 	H 	0.84510 0.60330 0.31500 0.07700
C 	C 	0.81860 0.64180 0.22820 0.06900
C 	C 	0.76190 0.62400 0.18020 -0.13700
H 	H 	0.76730 0.65100 0.14230 0.07300
C 	C 	0.69830 0.56620 0.18950 0.07500
H 	H 	0.66120 0.55600 0.15720 -0.01500
C 	C 	0.88360 0.70850 0.22220 0.02000
C 	C 	0.95400 0.71000 0.26010 -0.08600
H 	H 	0.96130 0.66800 0.28960 0.05700
C 	C 	0.01390 0.77370 0.25460 0.00800
H 	H 	0.06130 0.77360 0.27990 0.02200
C 	C 	0.00300 0.83670 0.21190 -0.08300
H 	H 	0.04330 0.87870 0.20810 0.06100
C 	C 	0.93270 0.83810 0.17473 0.02000
C 	C 	0.87390 0.77300 0.17910 -0.08800
H 	H 	0.82760 0.77270 0.15290 0.06300
C 	C 	0.92350 0.90730 0.13003 0.09000
C 	C 	0.87190 0.00260 0.06773 0.10400
C 	C 	0.80960 0.05770 0.03761 -0.06600
C 	C 	0.77880 0.04220 0.97800 0.00700
H 	H 	0.79730 0.99580 0.95570 0.03100
C 	C 	0.72070 0.09680 0.95300 -0.07300
H 	H 	0.70150 0.08790 0.91300 0.05500
C 	C 	0.69040 0.16480 0.98640 0.00100
H 	H 	0.65030 0.20000 0.96890 0.03700
C 	C 	0.71920 0.18070 0.04579 -0.05100
C 	C 	0.77980 0.12590 0.07040 -0.02700
H 	H 	0.80040 0.13580 0.10990 0.03500
C 	C 	0.68850 0.25310 0.08280 0.09200
C 	C 	0.61500 0.29790 0.06830 -0.15800
H 	H 	0.58580 0.28630 0.03210 0.07900
C 	C 	0.58640 0.35950 0.10850 0.08700
H 	H 	0.53760 0.38830 0.09800 -0.01100
C 	C 	0.69830 0.34150 0.17310 0.07100
H 	H 	0.72820 0.35750 0.20800 -0.02000
C 	C 	0.73130 0.27970 0.13590 -0.15400
H 	H 	0.78260 0.25520 0.14600 0.07900
N 	N 	0.68680 0.52410 0.24230 -0.23100
N 	N 	0.98760 0.94670 0.10489 -0.12400
N 	N 	0.95480 0.00760 0.06595 -0.20900
N 	N 	0.85036 0.94010 0.10774 -0.11500
N 	N 	0.76850 0.91700 0.12570 -0.24100
H 	H 	0.74340 0.88840 0.09510 0.12300
H 	H 	0.75900 0.96620 0.14120 0.14000
N 	N 	0.62420 0.38010 0.16108 -0.23600
C 	C 	0.25750 0.46170 0.78700 0.08100
H 	H 	0.26280 0.49180 0.82350 -0.01100
C 	C 	0.19180 0.40420 0.78210 -0.14300
H 	H 	0.15490 0.39670 0.81500 0.07900
C 	C 	0.18140 0.35820 0.72820 0.07000
C 	C 	0.23810 0.37600 0.68020 -0.13800
H 	H 	0.23270 0.34900 0.64230 0.07500
C 	C 	0.30170 0.43380 0.68950 0.07600
H 	H 	0.33880 0.44400 0.65720 -0.01400
C 	C 	0.11640 0.29150 0.72220 0.01900
C 	C 	0.04600 0.29000 0.76010 -0.08300
H 	H 	0.03870 0.33200 0.78960 0.05700
C 	C 	0.98610 0.22630 0.75460 0.00400
H 	H 	0.93870 0.22640 0.77990 0.02300
C 	C 	0.99700 0.16330 0.71190 -0.08600
H 	H 	0.95670 0.12130 0.70810 0.06100
C 	C 	0.06730 0.16190 0.67473 0.02200
C 	C 	0.12610 0.22700 0.67910 -0.08700
H 	H 	0.17240 0.22730 0.65290 0.06500
C 	C 	0.07650 0.09270 0.63003 0.09100
C 	C 	0.12810 0.99740 0.56773 0.09100
C 	C 	0.19040 0.94230 0.53761 -0.00300
C 	C 	0.22120 0.95780 0.47800 -0.07300
H 	H 	0.20270 0.00420 0.45570 0.05500
C 	C 	0.27930 0.90320 0.45300 -0.00400
H 	H 	0.29850 0.91210 0.41300 0.03000
C 	C 	0.30960 0.83520 0.48640 -0.08100
H 	H 	0.34970 0.80000 0.46890 0.06000
C 	C 	0.28080 0.81930 0.54579 0.01500
C 	C 	0.22020 0.87410 0.57040 -0.07700
H 	H 	0.19960 0.86420 0.60990 0.05300
C 	C 	0.31150 0.74690 0.58280 0.06800
C 	C 	0.38500 0.70210 0.56830 -0.14000
H 	H 	0.41420 0.71370 0.53210 0.07900
C 	C 	0.41360 0.64050 0.60850 0.08000
H 	H 	0.46240 0.61170 0.59800 -0.00600
C 	C 	0.30170 0.65850 0.67310 0.06300
H 	H 	0.27180 0.64250 0.70800 -0.01600
C 	C 	0.26870 0.72030 0.63590 -0.13600
H 	H 	0.21740 0.74480 0.64600 0.07300
N 	N 	0.31320 0.47590 0.74230 -0.23200
N 	N 	0.01240 0.05330 0.60489 -0.12300
N 	N 	0.04520 0.99240 0.56595 -0.20200
N 	N 	0.14964 0.05990 0.60774 -0.11300
N 	N 	0.23150 0.08300 0.62570 -0.24200
H 	H 	0.25660 0.11160 0.59510 0.12600
H 	H 	0.24100 0.03380 0.64120 0.14000
N 	N 	0.37580 0.61990 0.66108 -0.23300
C 	C 	0.96170 0.24250 0.03700 0.06900
H 	H 	0.99180 0.23720 0.07350 -0.01000
C 	C 	0.90420 0.30820 0.03210 -0.16800
H 	H 	0.89670 0.34510 0.06500 0.08400
C 	C 	0.85820 0.31860 0.97820 0.09400
C 	C 	0.87600 0.26190 0.93020 -0.14600
H 	H 	0.84900 0.26730 0.89230 0.07800
C 	C 	0.93380 0.19830 0.93950 0.08400
H 	H 	0.94400 0.16120 0.90720 -0.01500
C 	C 	0.79150 0.38360 0.97220 0.02800
C 	C 	0.79000 0.45400 0.01010 -0.09000
H 	H 	0.83200 0.46130 0.03960 0.05500
C 	C 	0.72630 0.51390 0.00460 -0.03200
H 	H 	0.72640 0.56130 0.02990 0.03100
C 	C 	0.66330 0.50300 0.96190 -0.04700
H 	H 	0.62130 0.54330 0.95810 0.05300
C 	C 	0.66190 0.43270 0.92473 0.01200
C 	C 	0.72700 0.37390 0.92910 -0.07900
H 	H 	0.72730 0.32760 0.90290 0.06200
C 	C 	0.59270 0.42350 0.88003 0.09800
C 	C 	0.49740 0.37190 0.81773 0.08700
C 	C 	0.44230 0.30960 0.78761 0.00300
C 	C 	0.45780 0.27880 0.72800 -0.08500
H 	H 	0.50420 0.29730 0.70570 0.06100
C 	C 	0.40320 0.22070 0.70300 0.00400
H 	H 	0.41210 0.20150 0.66300 0.02700
C 	C 	0.33520 0.19040 0.73640 -0.08600
H 	H 	0.30000 0.15030 0.71890 0.06200
C 	C 	0.31930 0.21920 0.79579 0.01900
C 	C 	0.37410 0.27980 0.82040 -0.08200
H 	H 	0.36420 0.30040 0.85990 0.05600
C 	C 	0.24690 0.18850 0.83280 0.06600
C 	C 	0.20210 0.11500 0.81830 -0.13900
H 	H 	0.21370 0.08580 0.78210 0.07800
C 	C 	0.14050 0.08640 0.85850 0.07900
H 	H 	0.11170 0.03760 0.84800 -0.00600
C 	C 	0.15850 0.19830 0.92310 0.06300
H 	H 	0.14250 0.22820 0.95800 -0.01000
C 	C 	0.22030 0.23130 0.88590 -0.13300
H 	H 	0.24480 0.28260 0.89600 0.07400
N 	N 	0.97590 0.18680 0.99230 -0.21900
N 	N 	0.55330 0.48760 0.85489 -0.12200
N 	N 	0.49240 0.45480 0.81595 -0.20400
N 	N 	0.55990 0.35036 0.85774 -0.11100
N 	N 	0.58300 0.26850 0.87570 -0.24200
H 	H 	0.61160 0.24340 0.84510 0.12700
H 	H 	0.53380 0.25900 0.89120 0.14300
N 	N 	0.11990 0.12420 0.91108 -0.22900
C 	C 	0.03830 0.75750 0.53700 0.08000
H 	H 	0.00820 0.76280 0.57350 -0.01100
C 	C 	0.09580 0.69180 0.53210 -0.14200
H 	H 	0.10330 0.65490 0.56500 0.07800
C 	C 	0.14180 0.68140 0.47820 0.06900
C 	C 	0.12400 0.73810 0.43020 -0.13700
H 	H 	0.15100 0.73270 0.39230 0.07400
C 	C 	0.06620 0.80170 0.43950 0.07500
H 	H 	0.05600 0.83880 0.40720 -0.01300
C 	C 	0.20850 0.61640 0.47220 0.02000
C 	C 	0.21000 0.54600 0.51010 -0.08300
H 	H 	0.16800 0.53870 0.53960 0.05700
C 	C 	0.27370 0.48610 0.50460 0.00500
H 	H 	0.27360 0.43870 0.52990 0.02300
C 	C 	0.33670 0.49700 0.46190 -0.08800
H 	H 	0.37870 0.45670 0.45810 0.06200
C 	C 	0.33810 0.56730 0.42473 0.02400
C 	C 	0.27300 0.62610 0.42910 -0.08800
H 	H 	0.27270 0.67240 0.40290 0.06500
C 	C 	0.40730 0.57650 0.38003 0.09100
C 	C 	0.50260 0.62810 0.31773 0.08600
C 	C 	0.55770 0.69040 0.28761 0.00200
C 	C 	0.54220 0.72120 0.22800 -0.08500
H 	H 	0.49580 0.70270 0.20570 0.06100
C 	C 	0.59680 0.77930 0.20300 0.00400
H 	H 	0.58790 0.79850 0.16300 0.02500
C 	C 	0.66480 0.80960 0.23640 -0.08700
H 	H 	0.70000 0.84970 0.21890 0.06200
C 	C 	0.68070 0.78080 0.29579 0.01900
C 	C 	0.62590 0.72020 0.32040 -0.08200
H 	H 	0.63580 0.69960 0.35990 0.05400
C 	C 	0.75310 0.81150 0.33280 0.06600
C 	C 	0.79790 0.88500 0.31830 -0.13900
H 	H 	0.78630 0.91420 0.28210 0.07800
C 	C 	0.85950 0.91360 0.35850 0.07900
H 	H 	0.88830 0.96240 0.34800 -0.00600
C 	C 	0.84150 0.80170 0.42310 0.06200
H 	H 	0.85750 0.77180 0.45800 -0.01700
C 	C 	0.77970 0.76870 0.38590 -0.13500
H 	H 	0.75520 0.71740 0.39600 0.07200
N 	N 	0.02410 0.81320 0.49230 -0.23000
N 	N 	0.44670 0.51240 0.35489 -0.12200
N 	N 	0.50760 0.54520 0.31595 -0.20400
N 	N 	0.44010 0.64964 0.35774 -0.11100
N 	N 	0.41700 0.73150 0.37570 -0.24200
H 	H 	0.38840 0.75660 0.34510 0.12700
H 	H 	0.46620 0.74100 0.39120 0.14100
N 	N 	0.88010 0.87580 0.41108 -0.23300
C 	C 	0.75750 0.03830 0.46300 0.08000
H 	H 	0.76280 0.00820 0.42650 -0.01200
C 	C 	0.69180 0.09580 0.46790 -0.14300
H 	H 	0.65490 0.10330 0.43500 0.07700
C 	C 	0.68140 0.14180 0.52180 0.06900
C 	C 	0.73810 0.12400 0.56980 -0.13700
H 	H 	0.73270 0.15100 0.60770 0.07400
C 	C 	0.80170 0.06620 0.56050 0.07500
H 	H 	0.83880 0.05600 0.59280 -0.01300
C 	C 	0.61640 0.20850 0.52780 0.02000
C 	C 	0.54600 0.21000 0.48990 -0.08300
H 	H 	0.53870 0.16800 0.46040 0.05700
C 	C 	0.48610 0.27370 0.49540 0.00500
H 	H 	0.43870 0.27360 0.47010 0.02300
C 	C 	0.49700 0.33670 0.53810 -0.08800
H 	H 	0.45670 0.37870 0.54190 0.06200
C 	C 	0.56730 0.33810 0.57527 0.02400
C 	C 	0.62610 0.27300 0.57090 -0.08800
H 	H 	0.67240 0.27270 0.59710 0.06500
C 	C 	0.57650 0.40730 0.61997 0.09100
C 	C 	0.62810 0.50260 0.68227 0.08700
C 	C 	0.69040 0.55770 0.71239 0.00100
C 	C 	0.72120 0.54220 0.77200 -0.08300
H 	H 	0.70270 0.49580 0.79430 0.06100
C 	C 	0.77930 0.59680 0.79700 0.00200
H 	H 	0.79850 0.58790 0.83700 0.02900
C 	C 	0.80960 0.66480 0.76360 -0.08400
H 	H 	0.84970 0.70000 0.78110 0.06100
C 	C 	0.78080 0.68070 0.70421 0.01700
C 	C 	0.72020 0.62590 0.67960 -0.08100
H 	H 	0.69960 0.63580 0.64010 0.05300
C 	C 	0.81150 0.75310 0.66720 0.06600
C 	C 	0.88500 0.79790 0.68170 -0.14000
H 	H 	0.91420 0.78630 0.71790 0.07800
C 	C 	0.91360 0.85950 0.64150 0.07900
H 	H 	0.96240 0.88830 0.65200 -0.00700
C 	C 	0.80170 0.84150 0.57690 0.06200
H 	H 	0.77180 0.85750 0.54200 -0.01700
C 	C 	0.76870 0.77970 0.61410 -0.13600
H 	H 	0.71740 0.75520 0.60400 0.07200
N 	N 	0.81320 0.02410 0.50770 -0.23100
N 	N 	0.51240 0.44670 0.64511 -0.12200
N 	N 	0.54520 0.50760 0.68405 -0.20400
N 	N 	0.64964 0.44010 0.64226 -0.11100
N 	N 	0.73150 0.41700 0.62430 -0.24200
H 	H 	0.75660 0.38840 0.65490 0.12700
H 	H 	0.74100 0.46620 0.60880 0.14000
N 	N 	0.87580 0.88010 0.58892 -0.23300
C 	C 	0.24250 0.96170 0.96300 0.09100
H 	H 	0.23720 0.99180 0.92650 -0.01300
C 	C 	0.30820 0.90420 0.96790 -0.11700
H 	H 	0.34510 0.89670 0.93500 0.07100
C 	C 	0.31860 0.85820 0.02180 0.04500
C 	C 	0.26190 0.87600 0.06980 -0.12900
H 	H 	0.26730 0.84900 0.10770 0.07100
C 	C 	0.19830 0.93380 0.06050 0.06700
H 	H 	0.16120 0.94400 0.09280 -0.01000
C 	C 	0.38360 0.79150 0.02780 0.01200
C 	C 	0.45400 0.79000 0.98990 -0.07600
H 	H 	0.46130 0.83200 0.96040 0.05800
C 	C 	0.51390 0.72630 0.99540 0.04200
H 	H 	0.56130 0.72640 0.97010 0.01400
C 	C 	0.50300 0.66330 0.03810 -0.12900
H 	H 	0.54330 0.62130 0.04190 0.07100
C 	C 	0.43270 0.66190 0.07527 0.03600
C 	C 	0.37390 0.72700 0.07090 -0.09800
H 	H 	0.32760 0.72730 0.09710 0.06800
C 	C 	0.42350 0.59270 0.11997 0.08500
C 	C 	0.37190 0.49740 0.18227 0.08600
C 	C 	0.30960 0.44230 0.21239 0.00100
C 	C 	0.27880 0.45780 0.27200 -0.08300
H 	H 	0.29730 0.50420 0.29430 0.06100
C 	C 	0.22070 0.40320 0.29700 0.00300
H 	H 	0.20150 0.41210 0.33700 0.02700
C 	C 	0.19040 0.33520 0.26360 -0.08500
H 	H 	0.15030 0.30000 0.28110 0.06100
C 	C 	0.21920 0.31930 0.20421 0.01700
C 	C 	0.27980 0.37410 0.17960 -0.08100
H 	H 	0.30040 0.36420 0.14010 0.05100
C 	C 	0.18850 0.24690 0.16720 0.06600
C 	C 	0.11500 0.20210 0.18170 -0.14000
H 	H 	0.08580 0.21370 0.21790 0.07800
C 	C 	0.08640 0.14050 0.14150 0.07800
H 	H 	0.03760 0.11170 0.15200 -0.00700
C 	C 	0.19830 0.15850 0.07690 0.06100
H 	H 	0.22820 0.14250 0.04200 -0.02300
C 	C 	0.23130 0.22030 0.11410 -0.13700
H 	H 	0.28260 0.24480 0.10400 0.07000
N 	N 	0.18680 0.97590 0.00770 -0.24000
N 	N 	0.48760 0.55330 0.14511 -0.12100
N 	N 	0.45480 0.49240 0.18405 -0.20400
N 	N 	0.35036 0.55990 0.14226 -0.11100
N 	N 	0.26850 0.58300 0.12430 -0.24300
H 	H 	0.24340 0.61160 0.15490 0.12700
H 	H 	0.25900 0.53380 0.10880 0.13800
N 	N 	0.12420 0.11990 0.08892 -0.23500
C 	C 	0.53830 0.74250 0.71300 0.08100
H 	H 	0.50820 0.73720 0.67650 -0.01200
C 	C 	0.59580 0.80820 0.71790 -0.14300
H 	H 	0.60330 0.84510 0.68500 0.07800
C 	C 	0.64180 0.81860 0.77180 0.07000
C 	C 	0.62400 0.76190 0.81980 -0.13800
H 	H 	0.65100 0.76730 0.85770 0.07600
C 	C 	0.56620 0.69830 0.81050 0.07600
H 	H 	0.55600 0.66120 0.84280 -0.01300
C 	C 	0.70850 0.88360 0.77780 0.02000
C 	C 	0.71000 0.95400 0.73990 -0.08600
H 	H 	0.66800 0.96130 0.71040 0.05700
C 	C 	0.77370 0.01390 0.74540 0.00600
H 	H 	0.77360 0.06130 0.72010 0.02300
C 	C 	0.83670 0.00300 0.78810 -0.08400
H 	H 	0.87870 0.04330 0.79190 0.06100
C 	C 	0.83810 0.93270 0.82527 0.02100
C 	C 	0.77300 0.87390 0.82090 -0.08700
H 	H 	0.77270 0.82760 0.84710 0.06600
C 	C 	0.90730 0.92350 0.86997 0.09300
C 	C 	0.00260 0.87190 0.93227 0.07900
C 	C 	0.05770 0.80960 0.96239 0.05800
C 	C 	0.04220 0.77880 0.02200 -0.15200
H 	H 	0.99580 0.79730 0.04430 0.07900
C 	C 	0.09680 0.72070 0.04700 0.06300
H 	H 	0.08790 0.70150 0.08700 0.00500
C 	C 	0.16480 0.69040 0.01360 -0.16000
H 	H 	0.20000 0.65030 0.03110 0.08200
C 	C 	0.18070 0.71920 0.95421 0.07900
C 	C 	0.12590 0.77980 0.92960 -0.12600
H 	H 	0.13580 0.80040 0.89010 0.07000
C 	C 	0.25310 0.68850 0.91720 0.04400
C 	C 	0.29790 0.61500 0.93170 -0.12300
H 	H 	0.28630 0.58580 0.96790 0.07900
C 	C 	0.35950 0.58640 0.89150 0.07300
H 	H 	0.38830 0.53760 0.90200 -0.00100
C 	C 	0.34150 0.69830 0.82690 0.05500
H 	H 	0.35750 0.72820 0.79200 -0.01400
C 	C 	0.27970 0.73130 0.86410 -0.12000
H 	H 	0.25520 0.78260 0.85400 0.06700
N 	N 	0.52410 0.68680 0.75770 -0.23200
N 	N 	0.94670 0.98760 0.89511 -0.12400
N 	N 	0.00760 0.95480 0.93405 -0.19400
N 	N 	0.94010 0.85036 0.89226 -0.11000
N 	N 	0.91700 0.76850 0.87430 -0.24300
H 	H 	0.88840 0.74340 0.90490 0.13000
H 	H 	0.96620 0.75900 0.85880 0.14000
N 	N 	0.38010 0.62420 0.83892 -0.23000
C 	C 	0.46170 0.25750 0.21300 0.08000
H 	H 	0.49180 0.26280 0.17650 -0.01300
C 	C 	0.40420 0.19180 0.21790 -0.14200
H 	H 	0.39670 0.15490 0.18500 0.07600
C 	C 	0.35820 0.18140 0.27180 0.06900
C 	C 	0.37600 0.23810 0.31980 -0.13700
H 	H 	0.34900 0.23270 0.35770 0.07400
C 	C 	0.43380 0.30170 0.31050 0.07500
H 	H 	0.44400 0.33880 0.34280 -0.01400
C 	C 	0.29150 0.11640 0.27780 0.02000
C 	C 	0.29000 0.04600 0.23990 -0.08800
H 	H 	0.33200 0.03870 0.21040 0.05700
C 	C 	0.22630 0.98610 0.24540 0.00800
H 	H 	0.22640 0.93870 0.22010 0.02200
C 	C 	0.16330 0.99700 0.28810 -0.08300
H 	H 	0.12130 0.95670 0.29190 0.06100
C 	C 	0.16190 0.06730 0.32527 0.01900
C 	C 	0.22700 0.12610 0.32090 -0.08700
H 	H 	0.22730 0.17240 0.34710 0.06500
C 	C 	0.09270 0.07650 0.36997 0.09200
C 	C 	0.99740 0.12810 0.43227 0.08900
C 	C 	0.94230 0.19040 0.46239 0.00000
C 	C 	0.95780 0.22120 0.52200 -0.08100
H 	H 	0.00420 0.20270 0.54430 0.05900
C 	C 	0.90320 0.27930 0.54700 0.00100
H 	H 	0.91210 0.29850 0.58700 0.02800
C 	C 	0.83520 0.30960 0.51360 -0.08400
H 	H 	0.80000 0.34970 0.53110 0.06100
C 	C 	0.81930 0.28080 0.45421 0.01700
C 	C 	0.87410 0.22020 0.42960 -0.08000
H 	H 	0.86420 0.19960 0.39010 0.05300
C 	C 	0.74690 0.31150 0.41720 0.06600
C 	C 	0.70210 0.38500 0.43170 -0.14000
H 	H 	0.71370 0.41420 0.46790 0.07900
C 	C 	0.64050 0.41360 0.39150 0.07900
H 	H 	0.61170 0.46240 0.40200 -0.00600
C 	C 	0.65850 0.30170 0.32690 0.06200
H 	H 	0.64250 0.27180 0.29200 -0.01700
C 	C 	0.72030 0.26870 0.36410 -0.13600
H 	H 	0.74480 0.21740 0.35400 0.07300
N 	N 	0.47590 0.31320 0.25770 -0.23200
N 	N 	0.05330 0.01240 0.39511 -0.12400
N 	N 	0.99240 0.04520 0.43405 -0.20300
N 	N 	0.05990 0.14964 0.39226 -0.11200
N 	N 	0.08300 0.23150 0.37430 -0.24200
H 	H 	0.11160 0.25660 0.40490 0.12700
H 	H 	0.03380 0.24100 0.35880 0.14000
N 	N 	0.61990 0.37580 0.33892 -0.23300
Cd	Cd	0.05877 0.05877 -0.00000 1.18200
Cd	Cd	0.94123 0.94123 0.50000 1.18900
Cd	Cd	0.44123 0.55877 0.75000 1.19000
Cd	Cd	0.55877 0.44123 0.25000 1.19000
