data_crystal

_cell_length_a 15.86640
_cell_length_b 15.86640
_cell_length_c 21.79860
_cell_angle_alpha 90.00000
_cell_angle_beta  90.00000
_cell_angle_gamma 90.00000

_symmetry_space_group_name_	'P 1'
_symmetry_space_group_name_H-M	'P 1'

loop_
_symmetry_equiv_pos_as_xyz
  x,y,z

loop_
_atom_site_label
_atom_site_type_symbol
_atom_site_fract_x
_atom_site_fract_y
_atom_site_fract_z
_atom_site_charge
C 	C 	0.75600 0.96290 0.78620 0.07800
H 	H 	0.76030 0.99410 0.82220 -0.00800
C 	C 	0.69130 0.90450 0.78160 -0.14000
H 	H 	0.65430 0.89690 0.81420 0.07800
C 	C 	0.68150 0.85680 0.72810 0.06800
C 	C 	0.73830 0.87530 0.68020 -0.13500
H 	H 	0.73340 0.84800 0.64270 0.07400
C 	C 	0.80140 0.93410 0.68930 0.07200
H 	H 	0.83830 0.94470 0.65710 -0.01200
C 	C 	0.61640 0.79040 0.72260 0.01700
C 	C 	0.54720 0.78540 0.76200 -0.08100
H 	H 	0.54040 0.82590 0.79250 0.05700
C 	C 	0.48900 0.72150 0.75660 0.00400
H 	H 	0.44270 0.72030 0.78280 0.02400
C 	C 	0.49830 0.65930 0.71280 -0.08400
H 	H 	0.45800 0.61710 0.70900 0.06100
C 	C 	0.56880 0.66000 0.67420 0.02000
C 	C 	0.62690 0.72580 0.67890 -0.08400
H 	H 	0.67330 0.72700 0.65280 0.06200
C 	C 	0.57680 0.59170 0.62934 0.09500
C 	C 	0.62850 0.49720 0.56697 0.08900
C 	C 	0.69110 0.44120 0.53705 0.00000
C 	C 	0.72170 0.45730 0.47790 -0.08300
H 	H 	0.70310 0.50390 0.45590 0.05900
C 	C 	0.78070 0.40190 0.45260 0.00100
H 	H 	0.80030 0.41090 0.41300 0.02800
C 	C 	0.81030 0.33370 0.48610 -0.08500
H 	H 	0.84940 0.29740 0.46860 0.06400
C 	C 	0.78200 0.31900 0.54570 0.01600
C 	C 	0.72070 0.37410 0.56970 -0.08100
H 	H 	0.69990 0.36440 0.60900 0.05500
C 	C 	0.81230 0.24680 0.58280 0.07000
C 	C 	0.76930 0.22110 0.63540 -0.14000
H 	H 	0.71800 0.24580 0.64550 0.07500
C 	C 	0.80270 0.15940 0.67240 0.06600
H 	H 	0.77240 0.14340 0.70700 -0.01800
C 	C 	0.91500 0.13980 0.60890 0.07600
H 	H 	0.96360 0.11030 0.59840 -0.00500
C 	C 	0.88580 0.20210 0.56880 -0.14000
H 	H 	0.91520 0.21380 0.53290 0.08100
N 	N 	0.81260 0.97680 0.74193 -0.23000
N 	N 	0.51290 0.55230 0.60443 -0.12200
N 	N 	0.54580 0.49220 0.56505 -0.20400
N 	N 	0.65010 0.55880 0.60694 -0.11300
N 	N 	0.73270 0.58160 0.62480 -0.21500
N 	N 	0.87680 0.12050 0.66150 -0.23400
H 	H 	0.76120 0.53340 0.62080 0.12000
H 	H 	0.74190 0.61500 0.59100 0.11100
C 	C 	0.24400 0.03710 0.28620 0.07800
H 	H 	0.23970 0.00590 0.32220 -0.00900
C 	C 	0.30870 0.09550 0.28160 -0.14000
H 	H 	0.34570 0.10310 0.31420 0.07700
C 	C 	0.31850 0.14320 0.22810 0.06700
C 	C 	0.26170 0.12470 0.18020 -0.13400
H 	H 	0.26660 0.15200 0.14270 0.07200
C 	C 	0.19860 0.06590 0.18930 0.07200
H 	H 	0.16170 0.05530 0.15710 -0.01200
C 	C 	0.38360 0.20960 0.22260 0.01700
C 	C 	0.45280 0.21460 0.26200 -0.08100
H 	H 	0.45960 0.17410 0.29250 0.05600
C 	C 	0.51100 0.27850 0.25660 0.00300
H 	H 	0.55730 0.27970 0.28280 0.02400
C 	C 	0.50170 0.34070 0.21280 -0.08400
H 	H 	0.54200 0.38290 0.20900 0.06000
C 	C 	0.43120 0.34000 0.17420 0.01900
C 	C 	0.37310 0.27420 0.17890 -0.08400
H 	H 	0.32670 0.27300 0.15280 0.06100
C 	C 	0.42320 0.40830 0.12934 0.09300
C 	C 	0.37150 0.50280 0.06697 0.10400
C 	C 	0.30890 0.55880 0.03705 -0.06400
C 	C 	0.27830 0.54270 0.97790 -0.00300
H 	H 	0.29690 0.49610 0.95590 0.03600
C 	C 	0.21930 0.59810 0.95260 -0.06700
H 	H 	0.19970 0.58910 0.91300 0.05300
C 	C 	0.18970 0.66630 0.98610 -0.00200
H 	H 	0.15060 0.70260 0.96860 0.04100
C 	C 	0.21800 0.68100 0.04570 -0.05100
C 	C 	0.27930 0.62590 0.06970 -0.02800
H 	H 	0.30010 0.63560 0.10900 0.03700
C 	C 	0.18770 0.75320 0.08280 0.09500
C 	C 	0.23070 0.77890 0.13540 -0.15800
H 	H 	0.28200 0.75420 0.14550 0.08200
C 	C 	0.19730 0.84060 0.17240 0.07500
H 	H 	0.22760 0.85660 0.20700 -0.02100
C 	C 	0.08500 0.86020 0.10890 0.08400
H 	H 	0.03640 0.88970 0.09840 -0.01000
C 	C 	0.11420 0.79790 0.06880 -0.15900
H 	H 	0.08480 0.78620 0.03290 0.08100
N 	N 	0.18740 0.02320 0.24193 -0.23000
N 	N 	0.48710 0.44770 0.10443 -0.12300
N 	N 	0.45420 0.50780 0.06505 -0.21000
N 	N 	0.34990 0.44120 0.10694 -0.11700
N 	N 	0.26730 0.41840 0.12480 -0.21300
N 	N 	0.12320 0.87950 0.16150 -0.23800
H 	H 	0.23880 0.46660 0.12080 0.11800
H 	H 	0.25810 0.38500 0.09100 0.10700
C 	C 	0.53710 0.25600 0.53620 0.07800
H 	H 	0.50590 0.26030 0.57220 -0.01000
C 	C 	0.59550 0.19130 0.53160 -0.14000
H 	H 	0.60310 0.15430 0.56420 0.07700
C 	C 	0.64320 0.18150 0.47810 0.06700
C 	C 	0.62470 0.23830 0.43020 -0.13500
H 	H 	0.65200 0.23340 0.39270 0.07400
C 	C 	0.56590 0.30140 0.43930 0.07200
H 	H 	0.55530 0.33830 0.40710 -0.01200
C 	C 	0.70960 0.11640 0.47260 0.01700
C 	C 	0.71460 0.04720 0.51200 -0.08400
H 	H 	0.67410 0.04040 0.54250 0.05700
C 	C 	0.77850 0.98900 0.50660 0.00600
H 	H 	0.77970 0.94270 0.53280 0.02300
C 	C 	0.84070 0.99830 0.46280 -0.08100
H 	H 	0.88290 0.95800 0.45900 0.06000
C 	C 	0.84000 0.06880 0.42420 0.01700
C 	C 	0.77420 0.12690 0.42890 -0.08300
H 	H 	0.77300 0.17330 0.40280 0.06200
C 	C 	0.90830 0.07680 0.37934 0.09500
C 	C 	0.00280 0.12850 0.31697 0.09200
C 	C 	0.05880 0.19110 0.28705 -0.00200
C 	C 	0.04270 0.22170 0.22790 -0.07800
H 	H 	0.99610 0.20310 0.20590 0.05600
C 	C 	0.09810 0.28070 0.20260 -0.00200
H 	H 	0.08910 0.30030 0.16300 0.02800
C 	C 	0.16630 0.31030 0.23610 -0.08300
H 	H 	0.20260 0.34940 0.21860 0.06400
C 	C 	0.18100 0.28200 0.29570 0.01500
C 	C 	0.12590 0.22070 0.31970 -0.07900
H 	H 	0.13560 0.19990 0.35900 0.05500
C 	C 	0.25320 0.31230 0.33280 0.07000
C 	C 	0.27890 0.26930 0.38540 -0.14000
H 	H 	0.25420 0.21800 0.39550 0.07500
C 	C 	0.34060 0.30270 0.42240 0.06700
H 	H 	0.35660 0.27240 0.45700 -0.01800
C 	C 	0.36020 0.41500 0.35890 0.07700
H 	H 	0.38970 0.46360 0.34840 -0.00400
C 	C 	0.29790 0.38580 0.31880 -0.14000
H 	H 	0.28620 0.41520 0.28290 0.08200
N 	N 	0.52320 0.31260 0.49193 -0.23100
N 	N 	0.94770 0.01290 0.35443 -0.12400
N 	N 	0.00780 0.04580 0.31505 -0.20200
N 	N 	0.94120 0.15010 0.35694 -0.11500
N 	N 	0.91840 0.23270 0.37480 -0.21500
N 	N 	0.37950 0.37680 0.41150 -0.23400
H 	H 	0.96660 0.26120 0.37080 0.11900
H 	H 	0.88500 0.24190 0.34100 0.11100
C 	C 	0.46290 0.74400 0.03620 0.06500
H 	H 	0.49410 0.73970 0.07220 -0.00800
C 	C 	0.40450 0.80870 0.03160 -0.16600
H 	H 	0.39690 0.84570 0.06420 0.08300
C 	C 	0.35680 0.81850 0.97810 0.09100
C 	C 	0.37530 0.76170 0.93020 -0.14200
H 	H 	0.34800 0.76660 0.89270 0.07600
C 	C 	0.43410 0.69860 0.93930 0.08000
H 	H 	0.44470 0.66170 0.90710 -0.01400
C 	C 	0.29040 0.88360 0.97260 0.03400
C 	C 	0.28540 0.95280 0.01200 -0.10300
H 	H 	0.32590 0.95960 0.04250 0.05900
C 	C 	0.22150 0.01100 0.00660 -0.01900
H 	H 	0.22030 0.05730 0.03280 0.02700
C 	C 	0.15930 0.00170 0.96280 -0.05100
H 	H 	0.11710 0.04200 0.95900 0.05500
C 	C 	0.16000 0.93120 0.92420 0.01300
C 	C 	0.22580 0.87310 0.92890 -0.08000
H 	H 	0.22700 0.82670 0.90280 0.06200
C 	C 	0.09170 0.92320 0.87934 0.09900
C 	C 	0.99720 0.87150 0.81697 0.09200
C 	C 	0.94120 0.80890 0.78705 -0.00200
C 	C 	0.95730 0.77830 0.72790 -0.07800
H 	H 	0.00390 0.79690 0.70590 0.05600
C 	C 	0.90190 0.71930 0.70260 -0.00200
H 	H 	0.91090 0.69970 0.66300 0.03000
C 	C 	0.83370 0.68970 0.73610 -0.08300
H 	H 	0.79740 0.65060 0.71860 0.06400
C 	C 	0.81900 0.71800 0.79570 0.01600
C 	C 	0.87410 0.77930 0.81970 -0.07900
H 	H 	0.86440 0.80010 0.85900 0.05700
C 	C 	0.74680 0.68770 0.83280 0.07100
C 	C 	0.72110 0.73070 0.88540 -0.13900
H 	H 	0.74580 0.78200 0.89550 0.07700
C 	C 	0.65940 0.69730 0.92240 0.06800
H 	H 	0.64340 0.72760 0.95700 -0.01200
C 	C 	0.63980 0.58500 0.85890 0.07800
H 	H 	0.61030 0.53640 0.84840 -0.00300
C 	C 	0.70210 0.61420 0.81880 -0.13900
H 	H 	0.71380 0.58480 0.78290 0.08100
N 	N 	0.47680 0.68740 0.99193 -0.21700
N 	N 	0.05230 0.98710 0.85443 -0.12400
N 	N 	0.99220 0.95420 0.81505 -0.20200
N 	N 	0.05880 0.84990 0.85694 -0.11400
N 	N 	0.08160 0.76730 0.87480 -0.21300
N 	N 	0.62050 0.62320 0.91150 -0.23000
H 	H 	0.03340 0.73880 0.87080 0.12100
H 	H 	0.11500 0.75810 0.84100 0.11100
C 	C 	0.74400 0.46290 0.96380 0.09100
H 	H 	0.73970 0.49410 0.92780 -0.01200
C 	C 	0.80870 0.40450 0.96840 -0.11500
H 	H 	0.84570 0.39690 0.93580 0.07100
C 	C 	0.81850 0.35680 0.02190 0.04200
C 	C 	0.76170 0.37530 0.06980 -0.12600
H 	H 	0.76660 0.34800 0.10730 0.07000
C 	C 	0.69860 0.43410 0.06070 0.06300
H 	H 	0.66170 0.44470 0.09290 -0.01000
C 	C 	0.88360 0.29040 0.02740 0.01200
C 	C 	0.95280 0.28540 0.98800 -0.08300
H 	H 	0.95960 0.32590 0.95750 0.06000
C 	C 	0.01100 0.22150 0.99340 0.04800
H 	H 	0.05730 0.22030 0.96720 0.01300
C 	C 	0.00170 0.15930 0.03720 -0.12600
H 	H 	0.04200 0.11710 0.04100 0.07100
C 	C 	0.93120 0.16000 0.07580 0.03200
C 	C 	0.87310 0.22580 0.07110 -0.09500
H 	H 	0.82670 0.22700 0.09720 0.06500
C 	C 	0.92320 0.09170 0.12066 0.08800
C 	C 	0.87150 0.99720 0.18303 0.09200
C 	C 	0.80890 0.94120 0.21295 -0.00400
C 	C 	0.77830 0.95730 0.27210 -0.07600
H 	H 	0.79690 0.00390 0.29410 0.05600
C 	C 	0.71930 0.90190 0.29740 -0.00400
H 	H 	0.69970 0.91090 0.33700 0.03000
C 	C 	0.68970 0.83370 0.26390 -0.08100
H 	H 	0.65060 0.79740 0.28140 0.06300
C 	C 	0.71800 0.81900 0.20430 0.01300
C 	C 	0.77930 0.87410 0.18030 -0.07800
H 	H 	0.80010 0.86440 0.14100 0.05300
C 	C 	0.68770 0.74680 0.16720 0.07000
C 	C 	0.73070 0.72110 0.11460 -0.14200
H 	H 	0.78200 0.74580 0.10450 0.07300
C 	C 	0.69730 0.65940 0.07760 0.06600
H 	H 	0.72760 0.64340 0.04300 -0.02300
C 	C 	0.58500 0.63980 0.14110 0.07700
H 	H 	0.53640 0.61030 0.15160 -0.00400
C 	C 	0.61420 0.70210 0.18120 -0.14100
H 	H 	0.58480 0.71380 0.21710 0.08200
N 	N 	0.68740 0.47680 0.00807 -0.24100
N 	N 	0.98710 0.05230 0.14557 -0.12300
N 	N 	0.95420 0.99220 0.18495 -0.20300
N 	N 	0.84990 0.05880 0.14306 -0.11400
N 	N 	0.76730 0.08160 0.12520 -0.21600
N 	N 	0.62320 0.62050 0.08850 -0.23600
H 	H 	0.73880 0.03340 0.12920 0.11800
H 	H 	0.75810 0.11500 0.15900 0.11100
C 	C 	0.25600 0.53710 0.46380 0.07900
H 	H 	0.26030 0.50590 0.42780 -0.01000
C 	C 	0.19130 0.59550 0.46840 -0.14000
H 	H 	0.15430 0.60310 0.43580 0.07700
C 	C 	0.18150 0.64320 0.52190 0.06800
C 	C 	0.23830 0.62470 0.56980 -0.13500
H 	H 	0.23340 0.65200 0.60730 0.07400
C 	C 	0.30140 0.56590 0.56070 0.07200
H 	H 	0.33830 0.55530 0.59290 -0.01200
C 	C 	0.11640 0.70960 0.52740 0.01700
C 	C 	0.04720 0.71460 0.48800 -0.08400
H 	H 	0.04040 0.67410 0.45750 0.05700
C 	C 	0.98900 0.77850 0.49340 0.00500
H 	H 	0.94270 0.77970 0.46720 0.02300
C 	C 	0.99830 0.84070 0.53720 -0.08100
H 	H 	0.95800 0.88290 0.54100 0.06000
C 	C 	0.06880 0.84000 0.57580 0.01700
C 	C 	0.12690 0.77420 0.57110 -0.08300
H 	H 	0.17330 0.77300 0.59720 0.06200
C 	C 	0.07680 0.90830 0.62066 0.09500
C 	C 	0.12850 0.00280 0.68303 0.09200
C 	C 	0.19110 0.05880 0.71295 -0.00200
C 	C 	0.22170 0.04270 0.77210 -0.07800
H 	H 	0.20310 0.99610 0.79410 0.05700
C 	C 	0.28070 0.09810 0.79740 -0.00300
H 	H 	0.30030 0.08910 0.83700 0.03100
C 	C 	0.31030 0.16630 0.76390 -0.08200
H 	H 	0.34940 0.20260 0.78140 0.06400
C 	C 	0.28200 0.18100 0.70430 0.01400
C 	C 	0.22070 0.12590 0.68030 -0.07900
H 	H 	0.19990 0.13560 0.64100 0.05500
C 	C 	0.31230 0.25320 0.66720 0.07100
C 	C 	0.26930 0.27890 0.61460 -0.14100
H 	H 	0.21800 0.25420 0.60450 0.07500
C 	C 	0.30270 0.34060 0.57760 0.06700
H 	H 	0.27240 0.35660 0.54300 -0.01800
C 	C 	0.41500 0.36020 0.64110 0.07700
H 	H 	0.46360 0.38970 0.65160 -0.00400
C 	C 	0.38580 0.29790 0.68120 -0.14000
H 	H 	0.41520 0.28620 0.71710 0.08200
N 	N 	0.31260 0.52320 0.50807 -0.23100
N 	N 	0.01290 0.94770 0.64557 -0.12400
N 	N 	0.04580 0.00780 0.68495 -0.20300
N 	N 	0.15010 0.94120 0.64306 -0.11400
N 	N 	0.23270 0.91840 0.62520 -0.21500
N 	N 	0.37680 0.37950 0.58850 -0.23400
H 	H 	0.26120 0.96660 0.62920 0.11900
H 	H 	0.24190 0.88500 0.65900 0.11100
C 	C 	0.96290 0.75600 0.21380 0.07800
H 	H 	0.99410 0.76030 0.17780 -0.01000
C 	C 	0.90450 0.69130 0.21840 -0.14000
H 	H 	0.89690 0.65430 0.18580 0.07600
C 	C 	0.85680 0.68150 0.27190 0.06800
C 	C 	0.87530 0.73830 0.31980 -0.13500
H 	H 	0.84800 0.73340 0.35730 0.07400
C 	C 	0.93410 0.80140 0.31070 0.07200
H 	H 	0.94470 0.83830 0.34290 -0.01200
C 	C 	0.79040 0.61640 0.27740 0.01700
C 	C 	0.78540 0.54720 0.23800 -0.08100
H 	H 	0.82590 0.54040 0.20750 0.05600
C 	C 	0.72150 0.48900 0.24340 0.00300
H 	H 	0.72030 0.44270 0.21720 0.02300
C 	C 	0.65930 0.49830 0.28720 -0.08400
H 	H 	0.61710 0.45800 0.29100 0.06000
C 	C 	0.66000 0.56880 0.32580 0.02000
C 	C 	0.72580 0.62690 0.32110 -0.08400
H 	H 	0.72700 0.67330 0.34720 0.06200
C 	C 	0.59170 0.57680 0.37066 0.09500
C 	C 	0.49720 0.62850 0.43303 0.08900
C 	C 	0.44120 0.69110 0.46295 0.00000
C 	C 	0.45730 0.72170 0.52210 -0.08300
H 	H 	0.50390 0.70310 0.54410 0.05900
C 	C 	0.40190 0.78070 0.54740 0.00100
H 	H 	0.41090 0.80030 0.58700 0.02800
C 	C 	0.33370 0.81030 0.51390 -0.08500
H 	H 	0.29740 0.84940 0.53140 0.06400
C 	C 	0.31900 0.78200 0.45430 0.01600
C 	C 	0.37410 0.72070 0.43030 -0.08100
H 	H 	0.36440 0.69990 0.39100 0.05500
C 	C 	0.24680 0.81230 0.41720 0.07000
C 	C 	0.22110 0.76930 0.36460 -0.14000
H 	H 	0.24580 0.71800 0.35450 0.07500
C 	C 	0.15940 0.80270 0.32760 0.06600
H 	H 	0.14340 0.77240 0.29300 -0.01800
C 	C 	0.13980 0.91500 0.39110 0.07700
H 	H 	0.11030 0.96360 0.40160 -0.00500
C 	C 	0.20210 0.88580 0.43120 -0.14000
H 	H 	0.21380 0.91520 0.46710 0.08100
N 	N 	0.97680 0.81260 0.25807 -0.23000
N 	N 	0.55230 0.51290 0.39557 -0.12200
N 	N 	0.49220 0.54580 0.43495 -0.20400
N 	N 	0.55880 0.65010 0.39306 -0.11300
N 	N 	0.58160 0.73270 0.37520 -0.21500
N 	N 	0.12050 0.87680 0.33850 -0.23400
H 	H 	0.53340 0.76120 0.37920 0.11900
H 	H 	0.61500 0.74190 0.40900 0.11100
C 	C 	0.03710 0.24400 0.71380 0.07900
H 	H 	0.00590 0.23970 0.67780 -0.00900
C 	C 	0.09550 0.30870 0.71840 -0.14100
H 	H 	0.10310 0.34570 0.68580 0.07700
C 	C 	0.14320 0.31850 0.77190 0.06800
C 	C 	0.12470 0.26170 0.81980 -0.13500
H 	H 	0.15200 0.26660 0.85730 0.07600
C 	C 	0.06590 0.19860 0.81070 0.07200
H 	H 	0.05530 0.16170 0.84290 -0.01100
C 	C 	0.20960 0.38360 0.77740 0.01700
C 	C 	0.21460 0.45280 0.73800 -0.08100
H 	H 	0.17410 0.45960 0.70750 0.05600
C 	C 	0.27850 0.51100 0.74340 0.00400
H 	H 	0.27970 0.55730 0.71720 0.02300
C 	C 	0.34070 0.50170 0.78720 -0.08400
H 	H 	0.38290 0.54200 0.79100 0.06100
C 	C 	0.34000 0.43120 0.82580 0.02000
C 	C 	0.27420 0.37310 0.82110 -0.08400
H 	H 	0.27300 0.32670 0.84720 0.06300
C 	C 	0.40830 0.42320 0.87066 0.09600
C 	C 	0.50280 0.37150 0.93303 0.07600
C 	C 	0.55880 0.30890 0.96295 0.06000
C 	C 	0.54270 0.27830 0.02210 -0.15800
H 	H 	0.49610 0.29690 0.04410 0.08100
C 	C 	0.59810 0.21930 0.04740 0.06300
H 	H 	0.58910 0.19970 0.08700 0.00500
C 	C 	0.66630 0.18970 0.01390 -0.16000
H 	H 	0.70260 0.15060 0.03140 0.08600
C 	C 	0.68100 0.21800 0.95430 0.07700
C 	C 	0.62590 0.27930 0.93030 -0.12900
H 	H 	0.63560 0.30010 0.89100 0.07200
C 	C 	0.75320 0.18770 0.91720 0.04600
C 	C 	0.77890 0.23070 0.86460 -0.12400
H 	H 	0.75420 0.28200 0.85450 0.06900
C 	C 	0.84060 0.19730 0.82760 0.05800
H 	H 	0.85660 0.22760 0.79300 -0.01500
C 	C 	0.86020 0.08500 0.89110 0.07000
H 	H 	0.88970 0.03640 0.90160 -0.00000
C 	C 	0.79790 0.11420 0.93120 -0.12300
H 	H 	0.78620 0.08480 0.96710 0.08100
N 	N 	0.02320 0.18740 0.75807 -0.23000
N 	N 	0.44770 0.48710 0.89557 -0.12100
N 	N 	0.50780 0.45420 0.93495 -0.19600
N 	N 	0.44120 0.34990 0.89306 -0.11000
N 	N 	0.41840 0.26730 0.87520 -0.21600
N 	N 	0.87950 0.12320 0.83850 -0.23200
H 	H 	0.46660 0.23880 0.87920 0.12100
H 	H 	0.38500 0.25810 0.90900 0.11500
Cd	Cd	0.44092 0.44092 0.50000 1.19000
Cd	Cd	0.55908 0.55908 -0.00000 1.18400
Cd	Cd	0.05908 0.94092 0.25000 1.18900
Cd	Cd	0.94092 0.05908 0.75000 1.18900
