data_crystal

_cell_length_a 15.19730
_cell_length_b 15.19730
_cell_length_c 22.15290
_cell_angle_alpha 90.00000
_cell_angle_beta  90.00000
_cell_angle_gamma 90.00000

_symmetry_space_group_name_	'P 1'
_symmetry_space_group_name_H-M	'P 1'

loop_
_symmetry_equiv_pos_as_xyz
  x,y,z

loop_
_atom_site_label
_atom_site_type_symbol
_atom_site_fract_x
_atom_site_fract_y
_atom_site_fract_z
_atom_site_charge
Ni	Ni	0.96096 0.01341 0.05785 1.06000
N 	N 	0.88000 0.96580 0.28460 -0.15300
C 	C 	0.83430 0.03250 0.30640 0.09200
H 	H 	0.81830 0.02880 0.34680 -0.00600
N 	N 	0.80790 0.10600 0.27630 -0.26000
C 	C 	0.83680 0.10700 0.21790 0.10900
C 	C 	0.88340 0.03730 0.19000 -0.04900
C 	C 	0.90480 0.96560 0.22550 0.15300
N 	N 	0.95010 0.89630 0.20460 -0.32900
H 	H 	0.96280 0.85340 0.22830 0.15800
H 	H 	0.96640 0.89480 0.16740 0.17200
N 	N 	0.90110 0.06390 0.13200 -0.22900
C 	C 	0.86680 0.14300 0.12880 0.10100
H 	H 	0.86920 0.17640 0.09370 -0.01600
N 	N 	0.82830 0.17290 0.17910 -0.26600
O 	O 	0.92350 0.10980 0.99990 -0.51600
O 	O 	0.98320 0.09820 0.91080 -0.50800
C 	C 	0.93300 0.13340 0.94690 0.50200
C 	C 	0.87660 0.20730 0.92340 -0.41100
H 	H 	0.91330 0.25050 0.90320 0.15600
H 	H 	0.84700 0.23610 0.95670 0.16800
C 	C 	0.80390 0.16890 0.87600 -0.01400
H 	H 	0.82870 0.12520 0.84900 0.03900
H 	H 	0.77600 0.21520 0.85280 0.03400
Ni	Ni	0.46096 0.51341 0.55785 1.06400
N 	N 	0.38000 0.46580 0.78460 -0.15300
C 	C 	0.33430 0.53250 0.80640 0.09700
H 	H 	0.31830 0.52880 0.84680 -0.00600
N 	N 	0.30790 0.60600 0.77630 -0.25900
C 	C 	0.33680 0.60700 0.71790 0.11000
C 	C 	0.38340 0.53730 0.69000 -0.04200
C 	C 	0.40480 0.46560 0.72550 0.14800
N 	N 	0.45010 0.39630 0.70460 -0.32700
H 	H 	0.46280 0.35340 0.72830 0.15800
H 	H 	0.46640 0.39480 0.66740 0.17100
N 	N 	0.40110 0.56390 0.63200 -0.22800
C 	C 	0.36680 0.64300 0.62880 0.10100
H 	H 	0.36920 0.67640 0.59370 -0.01600
N 	N 	0.32830 0.67290 0.67910 -0.26500
O 	O 	0.42350 0.60980 0.49990 -0.51800
O 	O 	0.48320 0.59820 0.41080 -0.50800
C 	C 	0.43300 0.63340 0.44690 0.50200
C 	C 	0.37660 0.70730 0.42340 -0.41100
H 	H 	0.41330 0.75050 0.40320 0.15600
H 	H 	0.34700 0.73610 0.45670 0.16800
C 	C 	0.30390 0.66890 0.37600 -0.01500
H 	H 	0.32870 0.62520 0.34900 0.03900
H 	H 	0.27600 0.71520 0.35280 0.03400
Ni	Ni	0.53904 0.98659 0.55785 1.06400
N 	N 	0.62000 0.03420 0.78460 -0.15200
C 	C 	0.66570 0.96750 0.80640 0.09500
H 	H 	0.68170 0.97120 0.84680 -0.00600
N 	N 	0.69210 0.89400 0.77630 -0.25900
C 	C 	0.66320 0.89300 0.71790 0.11000
C 	C 	0.61660 0.96270 0.69000 -0.04400
C 	C 	0.59520 0.03440 0.72550 0.15000
N 	N 	0.54990 0.10370 0.70460 -0.32700
H 	H 	0.53720 0.14660 0.72830 0.15900
H 	H 	0.53360 0.10520 0.66740 0.17100
N 	N 	0.59890 0.93610 0.63200 -0.22800
C 	C 	0.63320 0.85700 0.62880 0.10200
H 	H 	0.63080 0.82360 0.59370 -0.01600
N 	N 	0.67170 0.82710 0.67910 -0.26500
O 	O 	0.57650 0.89020 0.49990 -0.51800
O 	O 	0.51680 0.90180 0.41080 -0.50800
C 	C 	0.56700 0.86660 0.44690 0.50200
C 	C 	0.62340 0.79270 0.42340 -0.41100
H 	H 	0.58670 0.74950 0.40320 0.15600
H 	H 	0.65300 0.76390 0.45670 0.16800
C 	C 	0.69610 0.83110 0.37600 -0.01400
H 	H 	0.67130 0.87480 0.34900 0.04000
H 	H 	0.72400 0.78480 0.35280 0.03500
Ni	Ni	0.03904 0.48659 0.05785 1.06300
N 	N 	0.12000 0.53420 0.28460 -0.15300
C 	C 	0.16570 0.46750 0.30640 0.09700
H 	H 	0.18170 0.47120 0.34680 -0.00600
N 	N 	0.19210 0.39400 0.27630 -0.25900
C 	C 	0.16320 0.39300 0.21790 0.11000
C 	C 	0.11660 0.46270 0.19000 -0.04200
C 	C 	0.09520 0.53440 0.22550 0.14800
N 	N 	0.04990 0.60370 0.20460 -0.32700
H 	H 	0.03720 0.64660 0.22830 0.15800
H 	H 	0.03360 0.60520 0.16740 0.17100
N 	N 	0.09890 0.43610 0.13200 -0.22800
C 	C 	0.13320 0.35700 0.12880 0.10200
H 	H 	0.13080 0.32360 0.09370 -0.01600
N 	N 	0.17170 0.32710 0.17910 -0.26500
O 	O 	0.07650 0.39020 0.99990 -0.51800
O 	O 	0.01680 0.40180 0.91080 -0.50800
C 	C 	0.06700 0.36660 0.94690 0.50300
C 	C 	0.12340 0.29270 0.92340 -0.41200
H 	H 	0.08670 0.24950 0.90320 0.15700
H 	H 	0.15300 0.26390 0.95670 0.16800
C 	C 	0.19610 0.33110 0.87600 -0.01400
H 	H 	0.17130 0.37480 0.84900 0.03900
H 	H 	0.22400 0.28480 0.85280 0.03500
Ni	Ni	0.73659 0.21096 0.30785 1.06400
N 	N 	0.78420 0.13000 0.53460 -0.15400
C 	C 	0.71750 0.08430 0.55640 0.09700
H 	H 	0.72120 0.06830 0.59680 -0.00600
N 	N 	0.64400 0.05790 0.52630 -0.25900
C 	C 	0.64300 0.08680 0.46790 0.10900
C 	C 	0.71270 0.13340 0.44000 -0.04200
C 	C 	0.78440 0.15480 0.47550 0.14800
N 	N 	0.85370 0.20010 0.45460 -0.32700
H 	H 	0.89660 0.21280 0.47830 0.15800
H 	H 	0.85520 0.21640 0.41740 0.17100
N 	N 	0.68610 0.15110 0.38200 -0.22800
C 	C 	0.60700 0.11680 0.37880 0.10100
H 	H 	0.57360 0.11920 0.34370 -0.01600
N 	N 	0.57710 0.07830 0.42910 -0.26500
O 	O 	0.64020 0.17350 0.24990 -0.51800
O 	O 	0.65180 0.23320 0.16080 -0.50800
C 	C 	0.61660 0.18300 0.19690 0.50200
C 	C 	0.54270 0.12660 0.17340 -0.41100
H 	H 	0.49950 0.16330 0.15320 0.15600
H 	H 	0.51390 0.09700 0.20670 0.16700
C 	C 	0.58110 0.05390 0.12600 -0.01500
H 	H 	0.62480 0.07870 0.09900 0.03900
H 	H 	0.53480 0.02600 0.10280 0.03400
Ni	Ni	0.23659 0.71096 0.80785 1.06400
N 	N 	0.28420 0.63000 0.03460 -0.15300
C 	C 	0.21750 0.58430 0.05640 0.09700
H 	H 	0.22120 0.56830 0.09680 -0.00600
N 	N 	0.14400 0.55790 0.02630 -0.25900
C 	C 	0.14300 0.58680 0.96790 0.10900
C 	C 	0.21270 0.63340 0.94000 -0.04200
C 	C 	0.28440 0.65480 0.97550 0.14600
N 	N 	0.35370 0.70010 0.95460 -0.32600
H 	H 	0.39660 0.71280 0.97830 0.15800
H 	H 	0.35520 0.71640 0.91740 0.17100
N 	N 	0.18610 0.65110 0.88200 -0.22800
C 	C 	0.10700 0.61680 0.87880 0.10100
H 	H 	0.07360 0.61920 0.84370 -0.01600
N 	N 	0.07710 0.57830 0.92910 -0.26500
O 	O 	0.14020 0.67350 0.74990 -0.51800
O 	O 	0.15180 0.73320 0.66080 -0.50900
C 	C 	0.11660 0.68300 0.69690 0.50300
C 	C 	0.04270 0.62660 0.67340 -0.41300
H 	H 	0.99950 0.66330 0.65320 0.15700
H 	H 	0.01390 0.59700 0.70670 0.16800
C 	C 	0.08110 0.55390 0.62600 -0.01400
H 	H 	0.12480 0.57870 0.59900 0.03900
H 	H 	0.03480 0.52600 0.60280 0.03400
Ni	Ni	0.76341 0.78904 0.80785 1.06400
N 	N 	0.71580 0.87000 0.03460 -0.15100
C 	C 	0.78250 0.91570 0.05640 0.09800
H 	H 	0.77880 0.93170 0.09680 -0.00500
N 	N 	0.85600 0.94210 0.02630 -0.25500
C 	C 	0.85700 0.91320 0.96790 0.10500
C 	C 	0.78730 0.86660 0.94000 -0.04100
C 	C 	0.71560 0.84520 0.97550 0.14400
N 	N 	0.64630 0.79990 0.95460 -0.32600
H 	H 	0.60340 0.78720 0.97830 0.15700
H 	H 	0.64480 0.78360 0.91740 0.17100
N 	N 	0.81390 0.84890 0.88200 -0.22800
C 	C 	0.89300 0.88320 0.87880 0.10100
H 	H 	0.92640 0.88080 0.84370 -0.01500
N 	N 	0.92290 0.92170 0.92910 -0.26500
O 	O 	0.85980 0.82650 0.74990 -0.51800
O 	O 	0.84820 0.76680 0.66080 -0.50800
C 	C 	0.88340 0.81700 0.69690 0.50100
C 	C 	0.95730 0.87340 0.67340 -0.40700
H 	H 	0.00050 0.83670 0.65320 0.15400
H 	H 	0.98610 0.90300 0.70670 0.16700
C 	C 	0.91890 0.94610 0.62600 -0.01600
H 	H 	0.87520 0.92130 0.59900 0.04000
H 	H 	0.96520 0.97400 0.60280 0.03600
Ni	Ni	0.26341 0.28904 0.30785 1.06400
N 	N 	0.21580 0.37000 0.53460 -0.15300
C 	C 	0.28250 0.41570 0.55640 0.09700
H 	H 	0.27880 0.43170 0.59680 -0.00600
N 	N 	0.35600 0.44210 0.52630 -0.25900
C 	C 	0.35700 0.41320 0.46790 0.11000
C 	C 	0.28730 0.36660 0.44000 -0.04200
C 	C 	0.21560 0.34520 0.47550 0.14800
N 	N 	0.14630 0.29990 0.45460 -0.32700
H 	H 	0.10340 0.28720 0.47830 0.15900
H 	H 	0.14480 0.28360 0.41740 0.17100
N 	N 	0.31390 0.34890 0.38200 -0.22800
C 	C 	0.39300 0.38320 0.37880 0.10100
H 	H 	0.42640 0.38080 0.34370 -0.01600
N 	N 	0.42290 0.42170 0.42910 -0.26500
O 	O 	0.35980 0.32650 0.24990 -0.51800
O 	O 	0.34820 0.26680 0.16080 -0.50800
C 	C 	0.38340 0.31700 0.19690 0.50200
C 	C 	0.45730 0.37340 0.17340 -0.41100
H 	H 	0.50050 0.33670 0.15320 0.15600
H 	H 	0.48610 0.40300 0.20670 0.16800
C 	C 	0.41890 0.44610 0.12600 -0.01500
H 	H 	0.37520 0.42130 0.09900 0.03900
H 	H 	0.46520 0.47400 0.10280 0.03500
Ni	Ni	0.03904 0.98659 0.94215 1.06100
N 	N 	0.12000 0.03420 0.71540 -0.15200
C 	C 	0.16570 0.96750 0.69360 0.09300
H 	H 	0.18170 0.97120 0.65320 -0.00500
N 	N 	0.19210 0.89400 0.72370 -0.25900
C 	C 	0.16320 0.89300 0.78210 0.11000
C 	C 	0.11660 0.96270 0.81000 -0.04800
C 	C 	0.09520 0.03440 0.77450 0.15400
N 	N 	0.04990 0.10370 0.79540 -0.32800
H 	H 	0.03720 0.14660 0.77170 0.15900
H 	H 	0.03360 0.10520 0.83260 0.17300
N 	N 	0.09890 0.93610 0.86800 -0.22800
C 	C 	0.13320 0.85700 0.87120 0.10100
H 	H 	0.13080 0.82360 0.90630 -0.01600
N 	N 	0.17170 0.82710 0.82090 -0.26600
O 	O 	0.07650 0.89020 0.00010 -0.51600
O 	O 	0.01680 0.90180 0.08920 -0.50800
C 	C 	0.06700 0.86660 0.05310 0.50200
C 	C 	0.12340 0.79270 0.07660 -0.41100
H 	H 	0.08670 0.74950 0.09680 0.15600
H 	H 	0.15300 0.76390 0.04330 0.16800
C 	C 	0.19610 0.83110 0.12400 -0.01400
H 	H 	0.17130 0.87480 0.15100 0.03900
H 	H 	0.22400 0.78480 0.14720 0.03400
Ni	Ni	0.53904 0.48659 0.44215 1.06400
N 	N 	0.62000 0.53420 0.21540 -0.15300
C 	C 	0.66570 0.46750 0.19360 0.09700
H 	H 	0.68170 0.47120 0.15320 -0.00600
N 	N 	0.69210 0.39400 0.22370 -0.25900
C 	C 	0.66320 0.39300 0.28210 0.11000
C 	C 	0.61660 0.46270 0.31000 -0.04200
C 	C 	0.59520 0.53440 0.27450 0.14800
N 	N 	0.54990 0.60370 0.29540 -0.32700
H 	H 	0.53720 0.64660 0.27170 0.15800
H 	H 	0.53360 0.60520 0.33260 0.17100
N 	N 	0.59890 0.43610 0.36800 -0.22800
C 	C 	0.63320 0.35700 0.37120 0.10100
H 	H 	0.63080 0.32360 0.40630 -0.01600
N 	N 	0.67170 0.32710 0.32090 -0.26500
O 	O 	0.57650 0.39020 0.50010 -0.51800
O 	O 	0.51680 0.40180 0.58920 -0.50800
C 	C 	0.56700 0.36660 0.55310 0.50200
C 	C 	0.62340 0.29270 0.57660 -0.41100
H 	H 	0.58670 0.24950 0.59680 0.15600
H 	H 	0.65300 0.26390 0.54330 0.16800
C 	C 	0.69610 0.33110 0.62400 -0.01500
H 	H 	0.67130 0.37480 0.65100 0.03900
H 	H 	0.72400 0.28480 0.64720 0.03400
Ni	Ni	0.46096 0.01341 0.44215 1.06400
N 	N 	0.38000 0.96580 0.21540 -0.15200
C 	C 	0.33430 0.03250 0.19360 0.09500
H 	H 	0.31830 0.02880 0.15320 -0.00600
N 	N 	0.30790 0.10600 0.22370 -0.25900
C 	C 	0.33680 0.10700 0.28210 0.11000
C 	C 	0.38340 0.03730 0.31000 -0.04400
C 	C 	0.40480 0.96560 0.27450 0.15000
N 	N 	0.45010 0.89630 0.29540 -0.32700
H 	H 	0.46280 0.85340 0.27170 0.15900
H 	H 	0.46640 0.89480 0.33260 0.17100
N 	N 	0.40110 0.06390 0.36800 -0.22800
C 	C 	0.36680 0.14300 0.37120 0.10200
H 	H 	0.36920 0.17640 0.40630 -0.01600
N 	N 	0.32830 0.17290 0.32090 -0.26500
O 	O 	0.42350 0.10980 0.50010 -0.51800
O 	O 	0.48320 0.09820 0.58920 -0.50800
C 	C 	0.43300 0.13340 0.55310 0.50200
C 	C 	0.37660 0.20730 0.57660 -0.41100
H 	H 	0.41330 0.25050 0.59680 0.15600
H 	H 	0.34700 0.23610 0.54330 0.16800
C 	C 	0.30390 0.16890 0.62400 -0.01400
H 	H 	0.32870 0.12520 0.65100 0.04000
H 	H 	0.27600 0.21520 0.64720 0.03500
Ni	Ni	0.96096 0.51341 0.94215 1.06300
N 	N 	0.88000 0.46580 0.71540 -0.15300
C 	C 	0.83430 0.53250 0.69360 0.09700
H 	H 	0.81830 0.52880 0.65320 -0.00600
N 	N 	0.80790 0.60600 0.72370 -0.25900
C 	C 	0.83680 0.60700 0.78210 0.11000
C 	C 	0.88340 0.53730 0.81000 -0.04200
C 	C 	0.90480 0.46560 0.77450 0.14800
N 	N 	0.95010 0.39630 0.79540 -0.32700
H 	H 	0.96280 0.35340 0.77170 0.15800
H 	H 	0.96640 0.39480 0.83260 0.17100
N 	N 	0.90110 0.56390 0.86800 -0.22800
C 	C 	0.86680 0.64300 0.87120 0.10200
H 	H 	0.86920 0.67640 0.90630 -0.01600
N 	N 	0.82830 0.67290 0.82090 -0.26500
O 	O 	0.92350 0.60980 0.00010 -0.51800
O 	O 	0.98320 0.59820 0.08920 -0.50800
C 	C 	0.93300 0.63340 0.05310 0.50300
C 	C 	0.87660 0.70730 0.07660 -0.41200
H 	H 	0.91330 0.75050 0.09680 0.15700
H 	H 	0.84700 0.73610 0.04330 0.16800
C 	C 	0.80390 0.66890 0.12400 -0.01400
H 	H 	0.82870 0.62520 0.15100 0.03900
H 	H 	0.77600 0.71520 0.14720 0.03500
Ni	Ni	0.26341 0.78904 0.69215 1.06400
N 	N 	0.21580 0.87000 0.46540 -0.15400
C 	C 	0.28250 0.91570 0.44360 0.09700
H 	H 	0.27880 0.93170 0.40320 -0.00600
N 	N 	0.35600 0.94210 0.47370 -0.25900
C 	C 	0.35700 0.91320 0.53210 0.10900
C 	C 	0.28730 0.86660 0.56000 -0.04200
C 	C 	0.21560 0.84520 0.52450 0.14800
N 	N 	0.14630 0.79990 0.54540 -0.32700
H 	H 	0.10340 0.78720 0.52170 0.15800
H 	H 	0.14480 0.78360 0.58260 0.17100
N 	N 	0.31390 0.84890 0.61800 -0.22800
C 	C 	0.39300 0.88320 0.62120 0.10100
H 	H 	0.42640 0.88080 0.65630 -0.01600
N 	N 	0.42290 0.92170 0.57090 -0.26500
O 	O 	0.35980 0.82650 0.75010 -0.51800
O 	O 	0.34820 0.76680 0.83920 -0.50800
C 	C 	0.38340 0.81700 0.80310 0.50200
C 	C 	0.45730 0.87340 0.82660 -0.41100
H 	H 	0.50050 0.83670 0.84680 0.15600
H 	H 	0.48610 0.90300 0.79330 0.16700
C 	C 	0.41890 0.94610 0.87400 -0.01500
H 	H 	0.37520 0.92130 0.90100 0.03900
H 	H 	0.46520 0.97400 0.89720 0.03400
Ni	Ni	0.76341 0.28904 0.19215 1.06400
N 	N 	0.71580 0.37000 0.96540 -0.15300
C 	C 	0.78250 0.41570 0.94360 0.09700
H 	H 	0.77880 0.43170 0.90320 -0.00600
N 	N 	0.85600 0.44210 0.97370 -0.25900
C 	C 	0.85700 0.41320 0.03210 0.10900
C 	C 	0.78730 0.36660 0.06000 -0.04200
C 	C 	0.71560 0.34520 0.02450 0.14600
N 	N 	0.64630 0.29990 0.04540 -0.32600
H 	H 	0.60340 0.28720 0.02170 0.15800
H 	H 	0.64480 0.28360 0.08260 0.17100
N 	N 	0.81390 0.34890 0.11800 -0.22800
C 	C 	0.89300 0.38320 0.12120 0.10100
H 	H 	0.92640 0.38080 0.15630 -0.01600
N 	N 	0.92290 0.42170 0.07090 -0.26500
O 	O 	0.85980 0.32650 0.25010 -0.51800
O 	O 	0.84820 0.26680 0.33920 -0.50900
C 	C 	0.88340 0.31700 0.30310 0.50300
C 	C 	0.95730 0.37340 0.32660 -0.41300
H 	H 	0.00050 0.33670 0.34680 0.15700
H 	H 	0.98610 0.40300 0.29330 0.16800
C 	C 	0.91890 0.44610 0.37400 -0.01400
H 	H 	0.87520 0.42130 0.40100 0.03900
H 	H 	0.96520 0.47400 0.39720 0.03400
Ni	Ni	0.23659 0.21096 0.19215 1.06400
N 	N 	0.28420 0.13000 0.96540 -0.15100
C 	C 	0.21750 0.08430 0.94360 0.09800
H 	H 	0.22120 0.06830 0.90320 -0.00500
N 	N 	0.14400 0.05790 0.97370 -0.25500
C 	C 	0.14300 0.08680 0.03210 0.10500
C 	C 	0.21270 0.13340 0.06000 -0.04100
C 	C 	0.28440 0.15480 0.02450 0.14400
N 	N 	0.35370 0.20010 0.04540 -0.32600
H 	H 	0.39660 0.21280 0.02170 0.15700
H 	H 	0.35520 0.21640 0.08260 0.17100
N 	N 	0.18610 0.15110 0.11800 -0.22800
C 	C 	0.10700 0.11680 0.12120 0.10100
H 	H 	0.07360 0.11920 0.15630 -0.01500
N 	N 	0.07710 0.07830 0.07090 -0.26500
O 	O 	0.14020 0.17350 0.25010 -0.51800
O 	O 	0.15180 0.23320 0.33920 -0.50800
C 	C 	0.11660 0.18300 0.30310 0.50100
C 	C 	0.04270 0.12660 0.32660 -0.40700
H 	H 	0.99950 0.16330 0.34680 0.15400
H 	H 	0.01390 0.09700 0.29330 0.16700
C 	C 	0.08110 0.05390 0.37400 -0.01600
H 	H 	0.12480 0.07870 0.40100 0.04000
H 	H 	0.03480 0.02600 0.39720 0.03600
Ni	Ni	0.73659 0.71096 0.69215 1.06400
N 	N 	0.78420 0.63000 0.46540 -0.15300
C 	C 	0.71750 0.58430 0.44360 0.09700
H 	H 	0.72120 0.56830 0.40320 -0.00600
N 	N 	0.64400 0.55790 0.47370 -0.25900
C 	C 	0.64300 0.58680 0.53210 0.11000
C 	C 	0.71270 0.63340 0.56000 -0.04200
C 	C 	0.78440 0.65480 0.52450 0.14800
N 	N 	0.85370 0.70010 0.54540 -0.32700
H 	H 	0.89660 0.71280 0.52170 0.15900
H 	H 	0.85520 0.71640 0.58260 0.17100
N 	N 	0.68610 0.65110 0.61800 -0.22800
C 	C 	0.60700 0.61680 0.62120 0.10100
H 	H 	0.57360 0.61920 0.65630 -0.01600
N 	N 	0.57710 0.57830 0.57090 -0.26500
O 	O 	0.64020 0.67350 0.75010 -0.51800
O 	O 	0.65180 0.73320 0.83920 -0.50800
C 	C 	0.61660 0.68300 0.80310 0.50200
C 	C 	0.54270 0.62660 0.82660 -0.41100
H 	H 	0.49950 0.66330 0.84680 0.15600
H 	H 	0.51390 0.59700 0.79330 0.16800
C 	C 	0.58110 0.55390 0.87400 -0.01500
H 	H 	0.62480 0.57870 0.90100 0.03900
H 	H 	0.53480 0.52600 0.89720 0.03500
