data_crystal

_cell_length_a 19.76400
_cell_length_b 19.94800
_cell_length_c 12.03900
_cell_angle_alpha 90.00000
_cell_angle_beta  90.00000
_cell_angle_gamma 90.00000

_symmetry_space_group_name_	'P 1'
_symmetry_space_group_name_H-M	'P 1'

loop_
_symmetry_equiv_pos_as_xyz
  x,y,z

loop_
_atom_site_label
_atom_site_type_symbol
_atom_site_fract_x
_atom_site_fract_y
_atom_site_fract_z
_atom_site_charge
Zn	Zn	0.25821 0.99203 0.03076 1.20300
K 	K 	0.19622 0.94407 0.28540 0.65000
O 	O 	0.28590 0.91650 0.12670 -0.50700
O 	O 	0.12480 0.94260 0.09700 -0.46600
O 	O 	0.31870 0.85990 0.97770 -0.29400
O 	O 	0.29490 0.61260 0.98750 -0.30700
O 	O 	0.17780 0.96240 0.93910 -0.50700
O 	O 	0.26790 0.56200 0.14470 -0.48500
C 	C 	0.30500 0.74160 0.32370 -0.08300
H 	H 	0.30930 0.74280 0.40060 0.05900
C 	C 	0.30130 0.73810 0.09250 0.01700
H 	H 	0.30170 0.73670 0.01530 0.00800
C 	C 	0.29810 0.67850 0.15220 -0.10400
C 	C 	0.30390 0.79890 0.14620 -0.10400
C 	C 	0.30440 0.80190 0.26200 0.00500
H 	H 	0.30440 0.84310 0.29810 0.01900
C 	C 	0.06060 0.93840 0.81450 0.20600
H 	H 	0.10140 0.93780 0.77590 -0.04300
C 	C 	0.06040 0.94250 0.92880 -0.31000
C 	C 	0.28640 0.61380 0.09030 0.25000
C 	C 	0.30150 0.86400 0.07740 0.28100
C 	C 	0.12480 0.94630 0.99580 0.52000
C 	C 	0.29910 0.67970 0.26810 -0.00600
H 	H 	0.29590 0.64000 0.30830 0.02800
O 	O 	0.32300 0.01720 0.90960 -0.52400
O 	O 	0.37500 0.04670 0.06110 -0.49100
C 	C 	0.37530 0.03740 0.96240 0.49600
C 	C 	0.43800 0.04740 0.89160 -0.25400
C 	C 	0.43950 0.05250 0.77670 0.13900
H 	H 	0.39890 0.05360 0.73770 -0.01700
K 	K 	0.35800 0.90066 0.77280 0.65000
Zn	Zn	0.75821 0.49203 0.03076 1.20100
K 	K 	0.69622 0.44407 0.28540 0.64900
O 	O 	0.78590 0.41650 0.12670 -0.50900
O 	O 	0.62480 0.44260 0.09700 -0.46600
O 	O 	0.81870 0.35990 0.97770 -0.29900
O 	O 	0.79490 0.11260 0.98750 -0.31300
O 	O 	0.67780 0.46240 0.93910 -0.51000
O 	O 	0.76790 0.06200 0.14470 -0.48700
C 	C 	0.80500 0.24160 0.32370 -0.08500
H 	H 	0.80930 0.24280 0.40060 0.05800
C 	C 	0.80130 0.23810 0.09250 0.01800
H 	H 	0.80170 0.23670 0.01530 0.00700
C 	C 	0.79810 0.17850 0.15220 -0.10600
C 	C 	0.80390 0.29890 0.14620 -0.10600
C 	C 	0.80440 0.30190 0.26200 0.00600
H 	H 	0.80440 0.34310 0.29810 0.01900
C 	C 	0.56060 0.43840 0.81450 0.20700
H 	H 	0.60140 0.43780 0.77590 -0.04400
C 	C 	0.56040 0.44250 0.92880 -0.30800
C 	C 	0.78640 0.11380 0.09030 0.25500
C 	C 	0.80150 0.36400 0.07740 0.28500
C 	C 	0.62480 0.44630 0.99580 0.51700
C 	C 	0.79910 0.17970 0.26810 -0.00500
H 	H 	0.79590 0.14000 0.30830 0.02800
O 	O 	0.82300 0.51720 0.90960 -0.52400
O 	O 	0.87500 0.54670 0.06110 -0.49900
C 	C 	0.87530 0.53740 0.96240 0.50400
C 	C 	0.93800 0.54740 0.89160 -0.26300
C 	C 	0.93950 0.55250 0.77670 0.13300
H 	H 	0.89890 0.55360 0.73770 -0.01600
K 	K 	0.85800 0.40066 0.77280 0.64900
Zn	Zn	0.74179 0.00797 0.53076 1.22100
K 	K 	0.80378 0.05593 0.78540 0.65100
O 	O 	0.71410 0.08350 0.62670 -0.51900
O 	O 	0.87520 0.05740 0.59700 -0.38500
O 	O 	0.68130 0.14010 0.47770 -0.37500
O 	O 	0.70510 0.38740 0.48750 -0.38800
O 	O 	0.82220 0.03760 0.43910 -0.50000
O 	O 	0.73210 0.43800 0.64470 -0.49600
C 	C 	0.69500 0.25840 0.82370 -0.11100
H 	H 	0.69070 0.25720 0.90060 0.08400
C 	C 	0.69870 0.26190 0.59250 0.06000
H 	H 	0.69830 0.26330 0.51530 0.02200
C 	C 	0.70190 0.32150 0.65220 -0.13700
C 	C 	0.69610 0.20110 0.64620 -0.13600
C 	C 	0.69560 0.19810 0.76200 0.04200
H 	H 	0.69560 0.15690 0.79810 0.01200
C 	C 	0.93940 0.06160 0.31450 0.05400
H 	H 	0.89860 0.06220 0.27590 0.00500
C 	C 	0.93960 0.05750 0.42880 -0.16200
C 	C 	0.71360 0.38620 0.59030 0.34300
C 	C 	0.69850 0.13600 0.57740 0.37800
C 	C 	0.87520 0.05370 0.49580 0.37600
C 	C 	0.70090 0.32030 0.76810 0.03000
H 	H 	0.70410 0.36000 0.80830 0.02100
O 	O 	0.67700 0.98280 0.40960 -0.51100
O 	O 	0.62500 0.95330 0.56110 -0.41100
C 	C 	0.62470 0.96260 0.46240 0.37100
C 	C 	0.56200 0.95260 0.39160 -0.13900
C 	C 	0.56050 0.94750 0.27670 0.03400
H 	H 	0.60110 0.94640 0.23770 0.01600
K 	K 	0.64200 0.09934 0.27280 0.64700
Zn	Zn	0.24179 0.50797 0.53076 1.22200
K 	K 	0.30378 0.55593 0.78540 0.65200
O 	O 	0.21410 0.58350 0.62670 -0.51800
O 	O 	0.37520 0.55740 0.59700 -0.38200
O 	O 	0.18130 0.64010 0.47770 -0.37400
O 	O 	0.20510 0.88740 0.48750 -0.38700
O 	O 	0.32220 0.53760 0.43910 -0.49900
O 	O 	0.23210 0.93800 0.64470 -0.49400
C 	C 	0.19500 0.75840 0.82370 -0.11100
H 	H 	0.19070 0.75720 0.90060 0.08400
C 	C 	0.19870 0.76190 0.59250 0.06000
H 	H 	0.19830 0.76330 0.51530 0.02200
C 	C 	0.20190 0.82150 0.65220 -0.13600
C 	C 	0.19610 0.70110 0.64620 -0.13500
C 	C 	0.19560 0.69810 0.76200 0.04200
H 	H 	0.19560 0.65690 0.79810 0.01200
C 	C 	0.43940 0.56160 0.31450 0.06500
H 	H 	0.39860 0.56220 0.27590 0.00200
C 	C 	0.43960 0.55750 0.42880 -0.15700
C 	C 	0.21360 0.88620 0.59030 0.34300
C 	C 	0.19850 0.63600 0.57740 0.37800
C 	C 	0.37520 0.55370 0.49580 0.37500
C 	C 	0.20090 0.82030 0.76810 0.03000
H 	H 	0.20410 0.86000 0.80830 0.02100
O 	O 	0.17700 0.48280 0.40960 -0.51100
O 	O 	0.12500 0.45330 0.56110 -0.41200
C 	C 	0.12470 0.46260 0.46240 0.37000
C 	C 	0.06200 0.45260 0.39160 -0.13900
C 	C 	0.06050 0.44750 0.27670 0.02900
H 	H 	0.10110 0.44640 0.23770 0.01800
K 	K 	0.14200 0.59934 0.27280 0.64700
Zn	Zn	0.25821 0.00797 0.53076 1.22100
K 	K 	0.19622 0.05593 0.78540 0.65200
O 	O 	0.28590 0.08350 0.62670 -0.51800
O 	O 	0.12480 0.05740 0.59700 -0.38200
O 	O 	0.31870 0.14010 0.47770 -0.37500
O 	O 	0.29490 0.38740 0.48750 -0.38700
O 	O 	0.17780 0.03760 0.43910 -0.49900
O 	O 	0.26790 0.43800 0.64470 -0.49600
C 	C 	0.30500 0.25840 0.82370 -0.11100
H 	H 	0.30930 0.25720 0.90060 0.08300
C 	C 	0.30130 0.26190 0.59250 0.06000
H 	H 	0.30170 0.26330 0.51530 0.02200
C 	C 	0.29810 0.32150 0.65220 -0.13700
C 	C 	0.30390 0.20110 0.64620 -0.13600
C 	C 	0.30440 0.19810 0.76200 0.04200
H 	H 	0.30440 0.15690 0.79810 0.01200
C 	C 	0.06060 0.06160 0.31450 0.06100
H 	H 	0.10140 0.06220 0.27590 0.00400
C 	C 	0.06040 0.05750 0.42880 -0.15700
C 	C 	0.28640 0.38620 0.59030 0.34300
C 	C 	0.30150 0.13600 0.57740 0.37900
C 	C 	0.12480 0.05370 0.49580 0.37500
C 	C 	0.29910 0.32030 0.76810 0.03000
H 	H 	0.29590 0.36000 0.80830 0.02100
O 	O 	0.32300 0.98280 0.40960 -0.51100
O 	O 	0.37500 0.95330 0.56110 -0.41100
C 	C 	0.37530 0.96260 0.46240 0.37000
C 	C 	0.43800 0.95260 0.39160 -0.13900
C 	C 	0.43950 0.94750 0.27670 0.03400
H 	H 	0.39890 0.94640 0.23770 0.01600
K 	K 	0.35800 0.09934 0.27280 0.64700
Zn	Zn	0.75821 0.50797 0.53076 1.22200
K 	K 	0.69622 0.55593 0.78540 0.65200
O 	O 	0.78590 0.58350 0.62670 -0.51800
O 	O 	0.62480 0.55740 0.59700 -0.38200
O 	O 	0.81870 0.64010 0.47770 -0.37600
O 	O 	0.79490 0.88740 0.48750 -0.38800
O 	O 	0.67780 0.53760 0.43910 -0.49900
O 	O 	0.76790 0.93800 0.64470 -0.49500
C 	C 	0.80500 0.75840 0.82370 -0.11100
H 	H 	0.80930 0.75720 0.90060 0.08400
C 	C 	0.80130 0.76190 0.59250 0.06000
H 	H 	0.80170 0.76330 0.51530 0.02100
C 	C 	0.79810 0.82150 0.65220 -0.13700
C 	C 	0.80390 0.70110 0.64620 -0.13600
C 	C 	0.80440 0.69810 0.76200 0.04200
H 	H 	0.80440 0.65690 0.79810 0.01200
C 	C 	0.56060 0.56160 0.31450 0.06500
H 	H 	0.60140 0.56220 0.27590 0.00200
C 	C 	0.56040 0.55750 0.42880 -0.15700
C 	C 	0.78640 0.88620 0.59030 0.34300
C 	C 	0.80150 0.63600 0.57740 0.37800
C 	C 	0.62480 0.55370 0.49580 0.37500
C 	C 	0.79910 0.82030 0.76810 0.03000
H 	H 	0.79590 0.86000 0.80830 0.02100
O 	O 	0.82300 0.48280 0.40960 -0.51200
O 	O 	0.87500 0.45330 0.56110 -0.41400
C 	C 	0.87530 0.46260 0.46240 0.37100
C 	C 	0.93800 0.45260 0.39160 -0.14400
C 	C 	0.93950 0.44750 0.27670 0.02200
H 	H 	0.89890 0.44640 0.23770 0.01900
K 	K 	0.85800 0.59934 0.27280 0.64600
Zn	Zn	0.74179 0.99203 0.03076 1.20100
K 	K 	0.80378 0.94407 0.28540 0.64900
O 	O 	0.71410 0.91650 0.12670 -0.50800
O 	O 	0.87520 0.94260 0.09700 -0.47100
O 	O 	0.68130 0.85990 0.97770 -0.29400
O 	O 	0.70510 0.61260 0.98750 -0.30800
O 	O 	0.82220 0.96240 0.93910 -0.50900
O 	O 	0.73210 0.56200 0.14470 -0.48600
C 	C 	0.69500 0.74160 0.32370 -0.08400
H 	H 	0.69070 0.74280 0.40060 0.05800
C 	C 	0.69870 0.73810 0.09250 0.01600
H 	H 	0.69830 0.73670 0.01530 0.00700
C 	C 	0.70190 0.67850 0.15220 -0.10400
C 	C 	0.69610 0.79890 0.14620 -0.10400
C 	C 	0.69560 0.80190 0.26200 0.00500
H 	H 	0.69560 0.84310 0.29810 0.01900
C 	C 	0.93940 0.93840 0.81450 0.20000
H 	H 	0.89860 0.93780 0.77590 -0.04200
C 	C 	0.93960 0.94250 0.92880 -0.31500
C 	C 	0.71360 0.61380 0.09030 0.24900
C 	C 	0.69850 0.86400 0.07740 0.28000
C 	C 	0.87520 0.94630 0.99580 0.52200
C 	C 	0.70090 0.67970 0.26810 -0.00700
H 	H 	0.70410 0.64000 0.30830 0.02900
O 	O 	0.67700 0.01720 0.90960 -0.52400
O 	O 	0.62500 0.04670 0.06110 -0.49100
C 	C 	0.62470 0.03740 0.96240 0.49700
C 	C 	0.56200 0.04740 0.89160 -0.25400
C 	C 	0.56050 0.05250 0.77670 0.13900
H 	H 	0.60110 0.05360 0.73770 -0.01700
K 	K 	0.64200 0.90066 0.77280 0.65000
Zn	Zn	0.24179 0.49203 0.03076 1.20200
K 	K 	0.30378 0.44407 0.28540 0.64900
O 	O 	0.21410 0.41650 0.12670 -0.50900
O 	O 	0.37520 0.44260 0.09700 -0.46500
O 	O 	0.18130 0.35990 0.97770 -0.29900
O 	O 	0.20510 0.11260 0.98750 -0.31400
O 	O 	0.32220 0.46240 0.93910 -0.51000
O 	O 	0.23210 0.06200 0.14470 -0.48700
C 	C 	0.19500 0.24160 0.32370 -0.08500
H 	H 	0.19070 0.24280 0.40060 0.05800
C 	C 	0.19870 0.23810 0.09250 0.01900
H 	H 	0.19830 0.23670 0.01530 0.00800
C 	C 	0.20190 0.17850 0.15220 -0.10600
C 	C 	0.19610 0.29890 0.14620 -0.10500
C 	C 	0.19560 0.30190 0.26200 0.00700
H 	H 	0.19560 0.34310 0.29810 0.01900
C 	C 	0.43940 0.43840 0.81450 0.20700
H 	H 	0.39860 0.43780 0.77590 -0.04400
C 	C 	0.43960 0.44250 0.92880 -0.30800
C 	C 	0.21360 0.11380 0.09030 0.25600
C 	C 	0.19850 0.36400 0.07740 0.28600
C 	C 	0.37520 0.44630 0.99580 0.51700
C 	C 	0.20090 0.17970 0.26810 -0.00400
H 	H 	0.20410 0.14000 0.30830 0.02800
O 	O 	0.17700 0.51720 0.90960 -0.52400
O 	O 	0.12500 0.54670 0.06110 -0.49500
C 	C 	0.12470 0.53740 0.96240 0.50200
C 	C 	0.06200 0.54740 0.89160 -0.25800
C 	C 	0.06050 0.55250 0.77670 0.13900
H 	H 	0.10110 0.55360 0.73770 -0.01700
K 	K 	0.14200 0.40066 0.77280 0.64900
C 	C 	0.00000 0.94250 0.98590 0.35700
H 	H 	0.00000 0.94250 0.06320 -0.11600
C 	C 	0.00000 0.93520 0.75740 -0.26200
H 	H 	0.00000 0.93080 0.68050 0.12800
C 	C 	0.50000 0.44250 0.98590 0.34600
H 	H 	0.50000 0.44250 0.06320 -0.11300
C 	C 	0.50000 0.43520 0.75740 -0.27200
H 	H 	0.50000 0.43080 0.68050 0.12900
C 	C 	0.00000 0.05750 0.48590 0.08800
H 	H 	0.00000 0.05750 0.56320 0.01800
C 	C 	-0.00000 0.06480 0.25740 -0.12300
H 	H 	0.00000 0.06920 0.18050 0.06900
C 	C 	0.50000 0.55750 0.48590 0.08000
H 	H 	0.50000 0.55750 0.56320 0.02000
C 	C 	0.50000 0.56480 0.25740 -0.13600
H 	H 	0.50000 0.56920 0.18050 0.07100
C 	C 	0.50000 0.04570 0.95110 0.26300
H 	H 	0.50000 0.04350 0.02830 -0.08900
C 	C 	0.50000 0.05600 0.71840 -0.21200
H 	H 	0.50000 0.06060 0.64150 0.11000
O 	O 	0.50000 0.87690 0.82900 -0.23600
C 	C 	0.00000 0.54570 0.95110 0.27800
H 	H 	0.00000 0.54350 0.02830 -0.09500
C 	C 	0.00000 0.55600 0.71840 -0.20400
H 	H 	-0.00000 0.56060 0.64150 0.10900
O 	O 	0.00000 0.37690 0.82900 -0.23600
C 	C 	0.50000 0.95430 0.45110 0.05300
H 	H 	0.50000 0.95650 0.52830 0.02300
C 	C 	0.50000 0.94400 0.21840 -0.11100
H 	H 	0.50000 0.93940 0.14150 0.06200
O 	O 	0.50000 0.12310 0.32900 -0.25600
C 	C 	-0.00000 0.45430 0.45110 0.05900
H 	H 	0.00000 0.45650 0.52830 0.02100
C 	C 	0.00000 0.44400 0.21840 -0.09700
H 	H 	0.00000 0.43940 0.14150 0.06000
O 	O 	0.00000 0.62310 0.32900 -0.25300
