data_crystal

_cell_length_a 10.55260
_cell_length_b 10.87490
_cell_length_c 15.36430
_cell_angle_alpha 76.54500
_cell_angle_beta  82.10100
_cell_angle_gamma 79.92700

_symmetry_space_group_name_	'P 1'
_symmetry_space_group_name_H-M	'P 1'

loop_
_symmetry_equiv_pos_as_xyz
  x,y,z

loop_
_atom_site_label
_atom_site_type_symbol
_atom_site_fract_x
_atom_site_fract_y
_atom_site_fract_z
_atom_site_charge
Cu	Cu	0.15906 0.51020 0.15969 0.87500
Cu	Cu	0.92689 0.76119 0.09159 0.90700
Cu	Cu	0.32016 0.49567 0.34245 0.89200
Cu	Cu	0.61937 0.60361 0.28462 0.91100
O 	O 	0.20890 0.39440 0.30450 -0.47200
O 	O 	0.31380 0.20350 0.36240 -0.30000
O 	O 	0.75200 0.45720 0.26860 -0.40900
O 	O 	0.63880 0.34100 0.38130 -0.35300
O 	O 	0.16300 0.63800 0.98110 -0.40100
O 	O 	0.06190 0.82850 0.00260 -0.47100
O 	O 	0.23840 0.23190 0.82890 -0.45100
O 	O 	0.42360 0.20170 0.74930 -0.39100
O 	O 	0.98330 0.54210 0.12050 -0.58700
H 	H 	0.92110 0.49690 0.16420 0.18500
O 	O 	0.44330 0.58090 0.38190 -0.61200
H 	H 	0.39960 0.66710 0.38550 0.15500
N 	N 	0.03050 0.76030 0.19060 -0.17300
N 	N 	0.10830 0.65410 0.22150 -0.16700
N 	N 	0.16930 0.67010 0.28870 -0.15600
N 	N 	0.34860 0.53720 0.14610 -0.17600
N 	N 	0.40740 0.53310 0.21830 -0.15800
N 	N 	0.51700 0.57940 0.19280 -0.17100
N 	N 	0.20130 0.35330 0.10760 -0.18300
N 	N 	0.13360 0.35740 0.03960 -0.17700
N 	N 	0.16910 0.25050 0.01030 -0.18300
N 	N 	0.71140 0.61660 0.38640 -0.16600
N 	N 	0.66040 0.57180 0.46840 -0.16800
N 	N 	0.74270 0.56750 0.52850 -0.17700
C 	C 	0.12560 0.78970 0.29890 0.03800
H 	H 	0.15030 0.82760 0.34100 0.00600
C 	C 	0.03940 0.84730 0.23800 -0.05600
H 	H 	0.99540 0.93030 0.23070 0.06600
C 	C 	0.53080 0.61270 0.10290 0.00900
H 	H 	0.59980 0.64710 0.06690 0.01900
C 	C 	0.42260 0.58610 0.07430 0.00700
H 	H 	0.40480 0.60000 0.01490 0.01400
C 	C 	0.26110 0.17670 0.05980 0.00100
H 	H 	0.30340 0.09620 0.05350 0.01800
C 	C 	0.28030 0.24290 0.12060 0.01300
H 	H 	0.33860 0.21560 0.16390 0.02600
C 	C 	0.84680 0.61320 0.48330 0.02400
H 	H 	0.91950 0.62300 0.50760 0.03000
C 	C 	0.82720 0.64310 0.39390 0.01200
H 	H 	0.88500 0.67640 0.34650 0.03800
C 	C 	0.09160 0.22060 0.34560 -0.15800
C 	C 	0.97860 0.30320 0.32910 0.09700
H 	H 	0.98230 0.39000 0.30800 0.00000
C 	C 	0.85950 0.26090 0.34290 -0.12100
C 	C 	0.85500 0.13080 0.37510 0.02600
H 	H 	0.77580 0.10060 0.38680 0.03700
C 	C 	0.96740 0.04700 0.38960 -0.06000
H 	H 	0.96440 0.95990 0.40890 0.06000
C 	C 	0.08480 0.09180 0.37540 0.00200
H 	H 	0.16030 0.03440 0.38610 0.03600
C 	C 	0.21680 0.27120 0.33760 0.35100
C 	C 	0.73840 0.35880 0.33040 0.34500
C 	C 	0.24230 0.82450 0.89290 -0.16800
C 	C 	0.24100 0.95600 0.88100 0.12200
H 	H 	0.18250 0.00320 0.91630 -0.02600
C 	C 	0.32920 0.01580 0.81490 -0.18400
C 	C 	0.41410 0.94560 0.76290 0.10400
H 	H 	0.47240 0.98580 0.71920 0.01900
C 	C 	0.41440 0.81590 0.77440 -0.16100
H 	H 	0.47180 0.76910 0.73830 0.10100
C 	C 	0.32870 0.75620 0.84020 0.09500
H 	H 	0.32960 0.66850 0.84880 0.01700
C 	C 	0.15010 0.75680 0.96380 0.41500
C 	C 	0.32970 0.15860 0.79780 0.38700
Cu	Cu	0.84094 0.48980 0.84031 0.89300
Cu	Cu	0.07311 0.23881 0.90841 0.90300
Cu	Cu	0.67984 0.50433 0.65755 0.89300
Cu	Cu	0.38063 0.39639 0.71538 0.91100
O 	O 	0.79110 0.60560 0.69550 -0.46000
O 	O 	0.68620 0.79650 0.63760 -0.29600
O 	O 	0.24800 0.54280 0.73140 -0.40900
O 	O 	0.36120 0.65900 0.61870 -0.35400
O 	O 	0.83700 0.36200 0.01890 -0.40300
O 	O 	0.93810 0.17150 0.99740 -0.34400
O 	O 	0.76160 0.76810 0.17110 -0.45200
O 	O 	0.57640 0.79830 0.25070 -0.39100
O 	O 	0.01670 0.45790 0.87950 -0.59900
H 	H 	0.07890 0.50310 0.83580 0.18300
O 	O 	0.55670 0.41910 0.61810 -0.61100
H 	H 	0.60040 0.33290 0.61450 0.15700
N 	N 	0.96950 0.23970 0.80940 -0.17400
N 	N 	0.89170 0.34590 0.77850 -0.15500
N 	N 	0.83070 0.32990 0.71130 -0.14100
N 	N 	0.65140 0.46280 0.85390 -0.16900
N 	N 	0.59260 0.46690 0.78170 -0.15700
N 	N 	0.48300 0.42060 0.80720 -0.16900
N 	N 	0.79870 0.64670 0.89240 -0.17200
N 	N 	0.86640 0.64260 0.96040 -0.14500
N 	N 	0.83090 0.74950 0.98970 -0.14600
N 	N 	0.28860 0.38340 0.61360 -0.16800
N 	N 	0.33960 0.42820 0.53160 -0.16900
N 	N 	0.25730 0.43250 0.47150 -0.17900
C 	C 	0.87440 0.21030 0.70110 -0.02100
H 	H 	0.84970 0.17240 0.65900 0.03900
C 	C 	0.96060 0.15270 0.76200 0.08900
H 	H 	0.00460 0.06970 0.76930 -0.02100
C 	C 	0.46920 0.38730 0.89710 0.01600
H 	H 	0.40020 0.35290 0.93310 0.04200
C 	C 	0.57740 0.41390 0.92570 0.01700
H 	H 	0.59520 0.40000 0.98510 0.04800
C 	C 	0.73890 0.82330 0.94020 0.01600
H 	H 	0.69660 0.90380 0.94650 0.03800
C 	C 	0.71970 0.75710 0.87940 0.02500
H 	H 	0.66140 0.78440 0.83610 0.02900
C 	C 	0.15320 0.38680 0.51670 0.01800
H 	H 	0.08050 0.37700 0.49240 0.01400
C 	C 	0.17280 0.35690 0.60610 0.01000
H 	H 	0.11500 0.32360 0.65350 0.02200
C 	C 	0.90840 0.77940 0.65440 -0.11600
C 	C 	0.02140 0.69680 0.67090 0.02600
H 	H 	0.01770 0.61000 0.69200 0.00600
C 	C 	0.14050 0.73910 0.65710 -0.12000
C 	C 	0.14500 0.86920 0.62490 0.05700
H 	H 	0.22420 0.89940 0.61320 0.02500
C 	C 	0.03260 0.95300 0.61040 -0.15700
H 	H 	0.03560 0.04010 0.59110 0.07500
C 	C 	0.91520 0.90820 0.62460 0.08700
H 	H 	0.83970 0.96560 0.61390 0.01400
C 	C 	0.78320 0.72880 0.66240 0.34300
C 	C 	0.26160 0.64120 0.66960 0.34200
C 	C 	0.75770 0.17550 0.10710 -0.12700
C 	C 	0.75900 0.04400 0.11900 0.07100
H 	H 	0.81750 0.99680 0.08370 -0.01900
C 	C 	0.67080 0.98420 0.18510 -0.15600
C 	C 	0.58590 0.05440 0.23710 0.06900
H 	H 	0.52760 0.01420 0.28080 0.02900
C 	C 	0.58560 0.18410 0.22560 -0.13000
H 	H 	0.52820 0.23090 0.26170 0.08800
C 	C 	0.67130 0.24380 0.15980 0.05200
H 	H 	0.67040 0.33150 0.15120 0.02500
C 	C 	0.84990 0.24320 0.03620 0.30400
C 	C 	0.67030 0.84140 0.20220 0.37400
Cu	Cu	-0.00000 0.50000 -0.00000 0.86800
Cu	Cu	0.50000 0.50000 0.50000 0.88800
