data_crystal

_cell_length_a 16.01210
_cell_length_b 7.55020
_cell_length_c 27.81530
_cell_angle_alpha 90.00000
_cell_angle_beta  99.73300
_cell_angle_gamma 90.00000

_symmetry_space_group_name_	'P 1'
_symmetry_space_group_name_H-M	'P 1'

loop_
_symmetry_equiv_pos_as_xyz
  x,y,z

loop_
_atom_site_label
_atom_site_type_symbol
_atom_site_fract_x
_atom_site_fract_y
_atom_site_fract_z
_atom_site_charge
Cd	Cd	0.21561 0.52604 0.08014 1.23200
Cd	Cd	0.15100 0.04265 0.04651 1.21900
O 	O 	0.17731 0.26370 0.10964 -0.48500
O 	O 	0.30694 0.31820 0.14816 -0.30400
O 	O 	0.24574 0.90720 0.10858 -0.41400
O 	O 	0.21943 0.66970 0.15094 -0.36900
O 	O 	0.90343 0.19900 0.44264 -0.45800
O 	O 	0.96237 0.44650 0.42239 -0.37600
O 	O 	0.08121 0.24000 0.49984 -0.40800
O 	O 	0.17962 0.03060 0.50002 -0.41400
N 	N 	0.34271 0.60810 0.05865 -0.23900
N 	N 	0.72262 0.90550 0.98336 -0.23600
F 	F 	0.32360 0.76280 0.32262 -0.47000
F 	F 	0.30796 0.98840 0.36690 -0.53000
F 	F 	0.27510 0.72910 0.38927 -0.50100
F 	F 	0.11550 0.61930 0.35374 -0.49200
F 	F 	0.06920 0.69120 0.27943 -0.51900
F 	F 	0.18860 0.55770 0.29804 -0.48400
C 	C 	0.23870 0.24120 0.14517 0.34000
C 	C 	0.22270 0.13100 0.18848 -0.11700
C 	C 	0.21660 0.94730 0.18939 0.07600
C 	C 	0.20300 0.86200 0.23186 -0.21100
H 	H 	0.20050 0.73900 0.23240 0.19900
C 	C 	0.19320 0.95610 0.27338 0.35900
C 	C 	0.20020 0.13940 0.27210 -0.25800
H 	H 	0.19520 0.20520 0.29970 0.20800
C 	C 	0.21460 0.22560 0.23041 0.16500
H 	H 	0.21880 0.34840 0.23040 0.05100
C 	C 	0.22830 0.83380 0.14643 0.30100
C 	C 	0.18220 0.86400 0.32154 -0.50900
C 	C 	0.13850 0.68230 0.31327 0.98400
C 	C 	0.27280 0.83700 0.35067 0.98400
C 	C 	0.12630 0.97530 0.35052 0.36400
C 	C 	0.05240 0.05150 0.32544 -0.28800
H 	H 	0.03840 0.03630 0.29190 0.21800
C 	C 	0.99990 0.14900 0.34964 0.19300
H 	H 	0.95080 0.19860 0.33220 0.01400
C 	C 	0.01930 0.17440 0.39966 -0.14700
C 	C 	0.09210 0.09660 0.42539 0.07700
C 	C 	0.14460 0.99720 0.40051 -0.22700
H 	H 	0.19300 0.94470 0.41790 0.18800
C 	C 	0.95860 0.27960 0.42417 0.38100
C 	C 	0.11890 0.12350 0.47959 0.31500
C 	C 	0.34580 0.65830 0.01294 0.09300
H 	H 	0.29630 0.65310 0.99000 0.02200
C 	C 	0.41870 0.71740 0.99804 -0.14600
H 	H 	0.41720 0.75070 0.96570 0.13000
C 	C 	0.49410 0.72770 0.03049 0.09100
C 	C 	0.49050 0.67690 0.07762 -0.15000
H 	H 	0.53890 0.68160 0.10140 0.14200
C 	C 	0.41450 0.61870 0.08959 0.11000
H 	H 	0.41420 0.58480 0.12170 0.02200
C 	C 	0.57320 0.79170 0.01466 0.06300
C 	C 	0.57740 0.81700 0.96571 -0.12400
H 	H 	0.52990 0.79560 0.94220 0.10300
C 	C 	0.65180 0.87380 0.95162 0.05900
H 	H 	0.65250 0.89070 0.91860 0.02200
C 	C 	0.71840 0.88390 0.03067 0.09100
H 	H 	0.76670 0.90740 0.05340 0.03900
C 	C 	0.64640 0.82870 0.04776 -0.11500
H 	H 	0.64700 0.81640 0.08110 0.13800
Cd	Cd	0.78439 0.02604 0.41986 1.23100
Cd	Cd	0.84900 0.54265 0.45349 1.21900
O 	O 	0.82269 0.76370 0.39036 -0.48500
O 	O 	0.69306 0.81820 0.35184 -0.30400
O 	O 	0.75426 0.40720 0.39142 -0.41600
O 	O 	0.78057 0.16970 0.34906 -0.37000
O 	O 	0.09657 0.69900 0.05736 -0.45700
O 	O 	0.03763 0.94650 0.07761 -0.37500
O 	O 	0.91879 0.74000 0.00016 -0.40800
O 	O 	0.82038 0.53060 0.99998 -0.41500
N 	N 	0.65729 0.10810 0.44135 -0.23900
N 	N 	0.27738 0.40550 0.51664 -0.23500
F 	F 	0.67640 0.26280 0.17738 -0.47100
F 	F 	0.69204 0.48840 0.13310 -0.53100
F 	F 	0.72490 0.22910 0.11073 -0.50000
F 	F 	0.88450 0.11930 0.14626 -0.49200
F 	F 	0.93080 0.19120 0.22057 -0.51900
F 	F 	0.81140 0.05770 0.20196 -0.48400
C 	C 	0.76130 0.74120 0.35483 0.33900
C 	C 	0.77730 0.63100 0.31152 -0.11100
C 	C 	0.78340 0.44730 0.31061 0.07000
C 	C 	0.79700 0.36200 0.26814 -0.20700
H 	H 	0.79950 0.23900 0.26760 0.19700
C 	C 	0.80680 0.45610 0.22662 0.35300
C 	C 	0.79980 0.63940 0.22790 -0.25100
H 	H 	0.80480 0.70520 0.20030 0.20600
C 	C 	0.78540 0.72560 0.26959 0.15900
H 	H 	0.78120 0.84840 0.26960 0.05400
C 	C 	0.77170 0.33380 0.35357 0.30300
C 	C 	0.81780 0.36400 0.17846 -0.50600
C 	C 	0.86150 0.18230 0.18673 0.98300
C 	C 	0.72720 0.33700 0.14933 0.98400
C 	C 	0.87370 0.47530 0.14948 0.35800
C 	C 	0.94760 0.55150 0.17456 -0.27900
H 	H 	0.96160 0.53630 0.20810 0.21600
C 	C 	0.00010 0.64900 0.15036 0.18400
H 	H 	0.04920 0.69860 0.16780 0.01700
C 	C 	0.98070 0.67440 0.10034 -0.14100
C 	C 	0.90790 0.59660 0.07461 0.07500
C 	C 	0.85540 0.49720 0.09949 -0.22400
H 	H 	0.80700 0.44470 0.08210 0.18700
C 	C 	0.04140 0.77960 0.07583 0.37800
C 	C 	0.88110 0.62350 0.02041 0.31700
C 	C 	0.65420 0.15830 0.48706 0.09400
H 	H 	0.70370 0.15310 0.51000 0.02200
C 	C 	0.58130 0.21740 0.50196 -0.14600
H 	H 	0.58280 0.25070 0.53430 0.13100
C 	C 	0.50590 0.22770 0.46951 0.09200
C 	C 	0.50950 0.17690 0.42238 -0.15100
H 	H 	0.46110 0.18160 0.39860 0.14200
C 	C 	0.58550 0.11870 0.41041 0.11100
H 	H 	0.58580 0.08480 0.37830 0.02200
C 	C 	0.42680 0.29170 0.48534 0.06100
C 	C 	0.42260 0.31700 0.53429 -0.12200
H 	H 	0.47010 0.29560 0.55780 0.10200
C 	C 	0.34820 0.37380 0.54838 0.05900
H 	H 	0.34750 0.39070 0.58140 0.02200
C 	C 	0.28160 0.38390 0.46933 0.08900
H 	H 	0.23330 0.40740 0.44660 0.03900
C 	C 	0.35360 0.32870 0.45224 -0.11400
H 	H 	0.35300 0.31640 0.41890 0.13700
Cd	Cd	0.78439 0.47396 0.91986 1.23100
Cd	Cd	0.84900 0.95735 0.95349 1.21800
O 	O 	0.82269 0.73630 0.89036 -0.48600
O 	O 	0.69306 0.68180 0.85184 -0.30500
O 	O 	0.75426 0.09280 0.89142 -0.41400
O 	O 	0.78057 0.33030 0.84906 -0.36900
O 	O 	0.09657 0.80100 0.55736 -0.45800
O 	O 	0.03763 0.55350 0.57761 -0.37600
O 	O 	0.91879 0.76000 0.50016 -0.40800
O 	O 	0.82038 0.96940 0.49998 -0.41400
N 	N 	0.65729 0.39190 0.94135 -0.23900
N 	N 	0.27738 0.09450 0.01664 -0.23600
F 	F 	0.67640 0.23720 0.67738 -0.47000
F 	F 	0.69204 0.01160 0.63310 -0.53000
F 	F 	0.72490 0.27090 0.61073 -0.50100
F 	F 	0.88450 0.38070 0.64626 -0.49200
F 	F 	0.93080 0.30880 0.72057 -0.51900
F 	F 	0.81140 0.44230 0.70196 -0.48400
C 	C 	0.76130 0.75880 0.85483 0.34000
C 	C 	0.77730 0.86900 0.81152 -0.11700
C 	C 	0.78340 0.05270 0.81061 0.07600
C 	C 	0.79700 0.13800 0.76814 -0.21100
H 	H 	0.79950 0.26100 0.76760 0.19900
C 	C 	0.80680 0.04390 0.72662 0.35900
C 	C 	0.79980 0.86060 0.72790 -0.25800
H 	H 	0.80480 0.79480 0.70030 0.20800
C 	C 	0.78540 0.77440 0.76959 0.16500
H 	H 	0.78120 0.65160 0.76960 0.05100
C 	C 	0.77170 0.16620 0.85357 0.30100
C 	C 	0.81780 0.13600 0.67846 -0.50900
C 	C 	0.86150 0.31770 0.68673 0.98400
C 	C 	0.72720 0.16300 0.64933 0.98400
C 	C 	0.87370 0.02470 0.64948 0.36400
C 	C 	0.94760 0.94850 0.67456 -0.28800
H 	H 	0.96160 0.96370 0.70810 0.21800
C 	C 	0.00010 0.85100 0.65036 0.19300
H 	H 	0.04920 0.80140 0.66780 0.01400
C 	C 	0.98070 0.82560 0.60034 -0.14700
C 	C 	0.90790 0.90340 0.57461 0.07700
C 	C 	0.85540 0.00280 0.59949 -0.22700
H 	H 	0.80700 0.05530 0.58210 0.18800
C 	C 	0.04140 0.72040 0.57583 0.38100
C 	C 	0.88110 0.87650 0.52041 0.31500
C 	C 	0.65420 0.34170 0.98706 0.09300
H 	H 	0.70370 0.34690 0.01000 0.02200
C 	C 	0.58130 0.28260 0.00196 -0.14600
H 	H 	0.58280 0.24930 0.03430 0.13000
C 	C 	0.50590 0.27230 0.96951 0.09100
C 	C 	0.50950 0.32310 0.92238 -0.15000
H 	H 	0.46110 0.31840 0.89860 0.14200
C 	C 	0.58550 0.38130 0.91041 0.11000
H 	H 	0.58580 0.41520 0.87830 0.02200
C 	C 	0.42680 0.20830 0.98534 0.06300
C 	C 	0.42260 0.18300 0.03429 -0.12400
H 	H 	0.47010 0.20440 0.05780 0.10300
C 	C 	0.34820 0.12620 0.04838 0.05900
H 	H 	0.34750 0.10930 0.08140 0.02200
C 	C 	0.28160 0.11610 0.96933 0.09100
H 	H 	0.23330 0.09260 0.94660 0.03900
C 	C 	0.35360 0.17130 0.95224 -0.11500
H 	H 	0.35300 0.18360 0.91890 0.13800
Cd	Cd	0.21561 0.97396 0.58014 1.23100
Cd	Cd	0.15100 0.45735 0.54651 1.21900
O 	O 	0.17731 0.23630 0.60964 -0.48500
O 	O 	0.30694 0.18180 0.64816 -0.30400
O 	O 	0.24574 0.59280 0.60858 -0.41600
O 	O 	0.21943 0.83030 0.65094 -0.37000
O 	O 	0.90343 0.30100 0.94264 -0.45700
O 	O 	0.96237 0.05350 0.92239 -0.37500
O 	O 	0.08121 0.26000 0.99984 -0.40800
O 	O 	0.17962 0.46940 0.00002 -0.41500
N 	N 	0.34271 0.89190 0.55865 -0.23900
N 	N 	0.72262 0.59450 0.48336 -0.23500
F 	F 	0.32360 0.73720 0.82262 -0.47100
F 	F 	0.30796 0.51160 0.86690 -0.53100
F 	F 	0.27510 0.77090 0.88927 -0.50000
F 	F 	0.11550 0.88070 0.85374 -0.49200
F 	F 	0.06920 0.80880 0.77943 -0.51900
F 	F 	0.18860 0.94230 0.79804 -0.48400
C 	C 	0.23870 0.25880 0.64517 0.33900
C 	C 	0.22270 0.36900 0.68848 -0.11100
C 	C 	0.21660 0.55270 0.68939 0.07000
C 	C 	0.20300 0.63800 0.73186 -0.20700
H 	H 	0.20050 0.76100 0.73240 0.19700
C 	C 	0.19320 0.54390 0.77338 0.35300
C 	C 	0.20020 0.36060 0.77210 -0.25100
H 	H 	0.19520 0.29480 0.79970 0.20600
C 	C 	0.21460 0.27440 0.73041 0.15900
H 	H 	0.21880 0.15160 0.73040 0.05400
C 	C 	0.22830 0.66620 0.64643 0.30300
C 	C 	0.18220 0.63600 0.82154 -0.50600
C 	C 	0.13850 0.81770 0.81327 0.98300
C 	C 	0.27280 0.66300 0.85067 0.98400
C 	C 	0.12630 0.52470 0.85052 0.35800
C 	C 	0.05240 0.44850 0.82544 -0.27900
H 	H 	0.03840 0.46370 0.79190 0.21600
C 	C 	0.99990 0.35100 0.84964 0.18400
H 	H 	0.95080 0.30140 0.83220 0.01700
C 	C 	0.01930 0.32560 0.89966 -0.14100
C 	C 	0.09210 0.40340 0.92539 0.07500
C 	C 	0.14460 0.50280 0.90051 -0.22400
H 	H 	0.19300 0.55530 0.91790 0.18700
C 	C 	0.95860 0.22040 0.92417 0.37800
C 	C 	0.11890 0.37650 0.97959 0.31700
C 	C 	0.34580 0.84170 0.51294 0.09400
H 	H 	0.29630 0.84690 0.49000 0.02200
C 	C 	0.41870 0.78260 0.49804 -0.14600
H 	H 	0.41720 0.74930 0.46570 0.13100
C 	C 	0.49410 0.77230 0.53049 0.09200
C 	C 	0.49050 0.82310 0.57762 -0.15100
H 	H 	0.53890 0.81840 0.60140 0.14200
C 	C 	0.41450 0.88130 0.58959 0.11100
H 	H 	0.41420 0.91520 0.62170 0.02200
C 	C 	0.57320 0.70830 0.51466 0.06100
C 	C 	0.57740 0.68300 0.46571 -0.12200
H 	H 	0.52990 0.70440 0.44220 0.10200
C 	C 	0.65180 0.62620 0.45162 0.05900
H 	H 	0.65250 0.60930 0.41860 0.02200
C 	C 	0.71840 0.61610 0.53067 0.08900
H 	H 	0.76670 0.59260 0.55340 0.03900
C 	C 	0.64640 0.67130 0.54776 -0.11400
H 	H 	0.64700 0.68360 0.58110 0.13700
