data_crystal

_cell_length_a 9.62100
_cell_length_b 13.90800
_cell_length_c 15.33700
_cell_angle_alpha 90.00000
_cell_angle_beta  93.42500
_cell_angle_gamma 90.00000

_symmetry_space_group_name_	'P 1'
_symmetry_space_group_name_H-M	'P 1'

loop_
_symmetry_equiv_pos_as_xyz
  x,y,z

loop_
_atom_site_label
_atom_site_type_symbol
_atom_site_fract_x
_atom_site_fract_y
_atom_site_fract_z
_atom_site_charge
Tb	Tb	0.04234 0.11147 0.91414 1.63400
Tb	Tb	0.45766 0.61147 0.58586 1.66700
Tb	Tb	0.95766 0.88853 0.08586 1.63400
Tb	Tb	0.54234 0.38853 0.41414 1.66700
H 	H 	0.66740 0.89230 0.75180 0.03800
H 	H 	0.73460 0.81140 0.81180 0.01400
H 	H 	0.66610 0.88810 0.93400 0.08300
H 	H 	0.55240 0.03630 0.92850 0.01300
H 	H 	0.55080 0.03710 0.82610 0.03200
H 	H 	0.40770 0.90330 0.92530 0.07500
H 	H 	0.30990 0.83550 0.79770 0.03700
H 	H 	0.39430 0.90650 0.74120 0.03300
H 	H 	0.51420 0.76470 0.85500 0.09100
H 	H 	0.83260 0.39230 0.74820 0.03900
H 	H 	0.76540 0.31140 0.68820 0.01400
H 	H 	0.83390 0.38810 0.56600 0.07900
H 	H 	0.94760 0.53630 0.57150 0.02000
H 	H 	0.94920 0.53710 0.67390 0.04000
H 	H 	0.09230 0.40330 0.57470 0.07400
H 	H 	0.19010 0.33550 0.70230 0.03600
H 	H 	0.10570 0.40650 0.75880 0.03200
H 	H 	0.98580 0.26470 0.64500 0.09100
H 	H 	0.33260 0.10770 0.24820 0.03800
H 	H 	0.26540 0.18860 0.18820 0.01400
H 	H 	0.33390 0.11190 0.06600 0.08300
H 	H 	0.44760 0.96370 0.07150 0.01300
H 	H 	0.44920 0.96290 0.17390 0.03200
H 	H 	0.59230 0.09670 0.07470 0.07500
H 	H 	0.69010 0.16450 0.20230 0.03700
H 	H 	0.60570 0.09350 0.25880 0.03300
H 	H 	0.48580 0.23530 0.14500 0.09100
H 	H 	0.16740 0.60770 0.25180 0.03900
H 	H 	0.23460 0.68860 0.31180 0.01400
H 	H 	0.16610 0.61190 0.43400 0.07900
H 	H 	0.05240 0.46370 0.42850 0.02000
H 	H 	0.05080 0.46290 0.32610 0.04000
H 	H 	0.90770 0.59670 0.42530 0.07400
H 	H 	0.80990 0.66450 0.29770 0.03600
H 	H 	0.89430 0.59350 0.24120 0.03200
H 	H 	0.01420 0.73530 0.35500 0.09100
C 	C 	0.65870 0.85730 0.80590 0.03100
C 	C 	0.67030 0.92590 0.88030 -0.21500
C 	C 	0.54630 0.99580 0.87690 0.03200
C 	C 	0.40730 0.94250 0.87220 -0.15900
C 	C 	0.39600 0.87160 0.79600 0.00200
C 	C 	0.51880 0.80280 0.80150 -0.18500
C 	C 	0.28220 0.00940 0.87610 0.31200
C 	C 	0.80780 0.98200 0.88680 0.41000
C 	C 	0.50470 0.73580 0.72510 0.34600
C 	C 	0.84130 0.35730 0.69410 0.02800
C 	C 	0.82970 0.42590 0.61970 -0.21000
C 	C 	0.95370 0.49580 0.62310 0.01600
C 	C 	0.09270 0.44250 0.62780 -0.16600
C 	C 	0.10400 0.37160 0.70400 -0.00000
C 	C 	0.98120 0.30280 0.69850 -0.18300
C 	C 	0.21780 0.50940 0.62390 0.32900
C 	C 	0.69220 0.48200 0.61320 0.40900
C 	C 	0.99530 0.23580 0.77490 0.35500
C 	C 	0.34130 0.14270 0.19410 0.03100
C 	C 	0.32970 0.07410 0.11970 -0.21500
C 	C 	0.45370 0.00420 0.12310 0.03200
C 	C 	0.59270 0.05750 0.12780 -0.15900
C 	C 	0.60400 0.12840 0.20400 0.00200
C 	C 	0.48120 0.19720 0.19850 -0.18500
C 	C 	0.71780 0.99060 0.12390 0.31200
C 	C 	0.19220 0.01800 0.11320 0.41000
C 	C 	0.49530 0.26420 0.27490 0.34600
C 	C 	0.15870 0.64270 0.30590 0.02800
C 	C 	0.17030 0.57410 0.38030 -0.21000
C 	C 	0.04630 0.50420 0.37690 0.01600
C 	C 	0.90730 0.55750 0.37220 -0.16600
C 	C 	0.89600 0.62840 0.29600 -0.00000
C 	C 	0.01880 0.69720 0.30150 -0.18300
C 	C 	0.78220 0.49060 0.37610 0.32900
C 	C 	0.30780 0.51800 0.38680 0.40900
C 	C 	0.00470 0.76420 0.22510 0.35500
O 	O 	0.16180 0.97020 0.86360 -0.39200
O 	O 	0.29350 0.09550 0.89680 -0.41200
O 	O 	0.83240 0.04560 0.83330 -0.41600
O 	O 	0.89360 0.96290 0.94970 -0.56700
O 	O 	0.42480 0.66530 0.73190 -0.40800
O 	O 	0.56710 0.74950 0.65630 -0.43600
O 	O 	0.33820 0.47020 0.63640 -0.40500
O 	O 	0.20650 0.59550 0.60320 -0.41600
O 	O 	0.66760 0.54560 0.66670 -0.42000
O 	O 	0.60640 0.46290 0.55030 -0.57600
O 	O 	0.07520 0.16530 0.76810 -0.41400
O 	O 	0.93290 0.24950 0.84370 -0.43200
O 	O 	0.83820 0.02980 0.13640 -0.39200
O 	O 	0.70650 0.90450 0.10320 -0.41200
O 	O 	0.16760 0.95440 0.16670 -0.41600
O 	O 	0.10640 0.03710 0.05030 -0.56700
O 	O 	0.57520 0.33470 0.26810 -0.40800
O 	O 	0.43290 0.25050 0.34370 -0.43600
O 	O 	0.66180 0.52980 0.36360 -0.40500
O 	O 	0.79350 0.40450 0.39680 -0.41600
O 	O 	0.33240 0.45440 0.33330 -0.42000
O 	O 	0.39360 0.53710 0.44970 -0.57600
O 	O 	0.92480 0.83470 0.23190 -0.41400
O 	O 	0.06710 0.75050 0.15630 -0.43200
