data_crystal

_cell_length_a 26.20920
_cell_length_b 11.62780
_cell_length_c 16.11670
_cell_angle_alpha 90.00000
_cell_angle_beta  122.49000
_cell_angle_gamma 90.00000

_symmetry_space_group_name_	'P 1'
_symmetry_space_group_name_H-M	'P 1'

loop_
_symmetry_equiv_pos_as_xyz
  x,y,z

loop_
_atom_site_label
_atom_site_type_symbol
_atom_site_fract_x
_atom_site_fract_y
_atom_site_fract_z
_atom_site_charge
Cu	Cu	0.24229 0.11737 0.44998 0.79800
Cu	Cu	0.31227 0.23223 0.32770 0.81000
Cu	Cu	0.56794 0.35388 0.50811 0.80700
N 	N 	0.42410 0.17740 0.63390 -0.32000
N 	N 	0.32690 0.14630 0.52430 -0.28800
N 	N 	0.35157 0.19960 0.47700 -0.24400
N 	N 	0.38930 0.25810 0.34180 -0.30200
N 	N 	0.48567 0.30760 0.41340 -0.26700
N 	N 	0.46131 0.30190 0.31320 -0.25200
N 	N 	0.57487 0.48230 0.35370 -0.24100
N 	N 	0.60266 0.46250 0.45300 -0.25300
N 	N 	0.66742 0.55750 0.42870 -0.30000
N 	N 	0.62977 0.68950 0.14470 -0.29800
N 	N 	0.72665 0.71980 0.25970 -0.27400
N 	N 	0.70167 0.65570 0.30140 -0.24400
C 	C 	0.36600 0.07740 0.69550 -0.54500
H 	H 	0.32340 0.06060 0.66990 0.12200
H 	H 	0.38190 0.12890 0.75220 0.13500
H 	H 	0.38920 0.00550 0.71570 0.12600
C 	C 	0.37120 0.13330 0.61780 0.18000
C 	C 	0.40910 0.21750 0.54460 0.14100
C 	C 	0.45340 0.27890 0.52930 -0.32500
H 	H 	0.49360 0.24370 0.57360 0.03500
H 	H 	0.45590 0.35950 0.55080 0.06200
C 	C 	0.44180 0.28080 0.42770 0.12400
C 	C 	0.40400 0.27250 0.27330 0.17200
C 	C 	0.36070 0.25410 0.16550 -0.50000
H 	H 	0.38330 0.24200 0.13370 0.10800
H 	H 	0.33470 0.32190 0.13700 0.12300
H 	H 	0.33570 0.18640 0.15530 0.11100
C 	C 	0.70320 0.51320 0.60320 -0.47500
H 	H 	0.68260 0.50860 0.63880 0.10300
H 	H 	0.72590 0.58550 0.61960 0.06900
H 	H 	0.73120 0.44830 0.62200 0.10300
C 	C 	0.65770 0.50900 0.49540 0.16100
C 	C 	0.61440 0.53860 0.34160 0.13500
C 	C 	0.59890 0.57340 0.24110 -0.31800
H 	H 	0.56150 0.62020 0.21090 0.04400
H 	H 	0.58900 0.50260 0.20120 0.06000
C 	C 	0.64470 0.63940 0.23170 0.12800
C 	C 	0.68290 0.73950 0.16680 0.17000
C 	C 	0.69040 0.80860 0.09680 -0.52000
H 	H 	0.72720 0.85510 0.13330 0.10500
H 	H 	0.65530 0.85920 0.05920 0.11500
H 	H 	0.69350 0.75710 0.05170 0.12300
Cu	Cu	0.74229 0.61737 0.44998 0.79700
Cu	Cu	0.81227 0.73223 0.32770 0.81100
Cu	Cu	0.06794 0.85388 0.50811 0.78500
N 	N 	0.92410 0.67740 0.63390 -0.30500
N 	N 	0.82690 0.64630 0.52430 -0.28900
N 	N 	0.85157 0.69960 0.47700 -0.24500
N 	N 	0.88930 0.75810 0.34180 -0.30400
N 	N 	0.98567 0.80760 0.41340 -0.24300
N 	N 	0.96131 0.80190 0.31320 -0.23100
N 	N 	0.07487 0.98230 0.35370 -0.24900
N 	N 	0.10266 0.96250 0.45300 -0.25800
N 	N 	0.16742 0.05750 0.42870 -0.29800
N 	N 	0.12977 0.18950 0.14470 -0.30300
N 	N 	0.22665 0.21980 0.25970 -0.27400
N 	N 	0.20167 0.15570 0.30140 -0.24300
C 	C 	0.86600 0.57740 0.69550 -0.56100
H 	H 	0.82340 0.56060 0.66990 0.12700
H 	H 	0.88190 0.62890 0.75220 0.14900
H 	H 	0.88920 0.50550 0.71570 0.14000
C 	C 	0.87120 0.63330 0.61780 0.19100
C 	C 	0.90910 0.71750 0.54460 0.15600
C 	C 	0.95340 0.77890 0.52930 -0.34800
H 	H 	0.99360 0.74370 0.57360 0.07200
H 	H 	0.95590 0.85950 0.55080 0.08500
C 	C 	0.94180 0.78080 0.42770 0.14100
C 	C 	0.90400 0.77250 0.27330 0.18100
C 	C 	0.86070 0.75410 0.16550 -0.51200
H 	H 	0.88330 0.74200 0.13370 0.12300
H 	H 	0.83470 0.82190 0.13700 0.12800
H 	H 	0.83570 0.68640 0.15530 0.11700
C 	C 	0.20320 0.01320 0.60320 -0.47000
H 	H 	0.18260 0.00860 0.63880 0.10300
H 	H 	0.22590 0.08550 0.61960 0.06800
H 	H 	0.23120 0.94830 0.62200 0.10100
C 	C 	0.15770 0.00900 0.49540 0.16100
C 	C 	0.11440 0.03860 0.34160 0.12800
C 	C 	0.09890 0.07340 0.24110 -0.30300
H 	H 	0.06150 0.12020 0.21090 0.02000
H 	H 	0.08900 0.00260 0.20120 0.04900
C 	C 	0.14470 0.13940 0.23170 0.12000
C 	C 	0.18290 0.23950 0.16680 0.16600
C 	C 	0.19040 0.30860 0.09680 -0.51000
H 	H 	0.22720 0.35510 0.13330 0.10100
H 	H 	0.15530 0.35920 0.05920 0.10500
H 	H 	0.19350 0.25710 0.05170 0.11800
Cu	Cu	0.75771 0.11737 0.05002 0.79700
Cu	Cu	0.68773 0.23223 0.17230 0.81000
Cu	Cu	0.43206 0.35388 0.99189 0.80500
N 	N 	0.57590 0.17740 0.86610 -0.32000
N 	N 	0.67310 0.14630 0.97570 -0.28900
N 	N 	0.64843 0.19960 0.02300 -0.24200
N 	N 	0.61070 0.25810 0.15820 -0.30300
N 	N 	0.51433 0.30760 0.08660 -0.26600
N 	N 	0.53869 0.30190 0.18680 -0.25200
N 	N 	0.42513 0.48230 0.14630 -0.24100
N 	N 	0.39734 0.46250 0.04700 -0.25300
N 	N 	0.33258 0.55750 0.07130 -0.30000
N 	N 	0.37023 0.68950 0.35530 -0.29800
N 	N 	0.27335 0.71980 0.24030 -0.27400
N 	N 	0.29833 0.65570 0.19860 -0.24400
C 	C 	0.63400 0.07740 0.80450 -0.54500
H 	H 	0.67660 0.06060 0.83010 0.12200
H 	H 	0.61810 0.12890 0.74780 0.13400
H 	H 	0.61080 0.00550 0.78430 0.12600
C 	C 	0.62880 0.13330 0.88220 0.18000
C 	C 	0.59090 0.21750 0.95540 0.13900
C 	C 	0.54660 0.27890 0.97070 -0.32800
H 	H 	0.50640 0.24370 0.92640 0.03600
H 	H 	0.54410 0.35950 0.94920 0.06200
C 	C 	0.55820 0.28080 0.07230 0.12700
C 	C 	0.59600 0.27250 0.22670 0.17100
C 	C 	0.63930 0.25410 0.33450 -0.49800
H 	H 	0.61670 0.24200 0.36630 0.10700
H 	H 	0.66530 0.32190 0.36300 0.12200
H 	H 	0.66430 0.18640 0.34470 0.11000
C 	C 	0.29680 0.51320 0.89680 -0.48600
H 	H 	0.31740 0.50860 0.86120 0.10600
H 	H 	0.27410 0.58550 0.88040 0.07100
H 	H 	0.26880 0.44830 0.87800 0.10600
C 	C 	0.34230 0.50900 0.00460 0.16900
C 	C 	0.38560 0.53860 0.15840 0.13500
C 	C 	0.40110 0.57340 0.25890 -0.31700
H 	H 	0.43850 0.62020 0.28910 0.04400
H 	H 	0.41100 0.50260 0.29880 0.06000
C 	C 	0.35530 0.63940 0.26830 0.12800
C 	C 	0.31710 0.73950 0.33320 0.16800
C 	C 	0.30960 0.80860 0.40320 -0.51400
H 	H 	0.27280 0.85510 0.36670 0.10300
H 	H 	0.34470 0.85920 0.44080 0.11100
H 	H 	0.30650 0.75710 0.44830 0.11900
Cu	Cu	0.25771 0.61737 0.05002 0.79900
Cu	Cu	0.18773 0.73223 0.17230 0.81000
Cu	Cu	0.93206 0.85388 0.99189 0.82400
N 	N 	0.07590 0.67740 0.86610 -0.32400
N 	N 	0.17310 0.64630 0.97570 -0.29000
N 	N 	0.14843 0.69960 0.02300 -0.23700
N 	N 	0.11070 0.75810 0.15820 -0.30100
N 	N 	0.01433 0.80760 0.08660 -0.28700
N 	N 	0.03869 0.80190 0.18680 -0.26400
N 	N 	0.92513 0.98230 0.14630 -0.22100
N 	N 	0.89734 0.96250 0.04700 -0.24000
N 	N 	0.83258 0.05750 0.07130 -0.30000
N 	N 	0.87023 0.18950 0.35530 -0.29400
N 	N 	0.77335 0.21980 0.24030 -0.27500
N 	N 	0.79833 0.15570 0.19860 -0.24600
C 	C 	0.13400 0.57740 0.80450 -0.52600
H 	H 	0.17660 0.56060 0.83010 0.11400
H 	H 	0.11810 0.62890 0.74780 0.12100
H 	H 	0.11080 0.50550 0.78430 0.11100
C 	C 	0.12880 0.63330 0.88220 0.17000
C 	C 	0.09090 0.71750 0.95540 0.12400
C 	C 	0.04660 0.77890 0.97070 -0.31200
H 	H 	0.00640 0.74370 0.92640 0.00500
H 	H 	0.04410 0.85950 0.94920 0.04200
C 	C 	0.05820 0.78080 0.07230 0.11600
C 	C 	0.09600 0.77250 0.22670 0.16600
C 	C 	0.13930 0.75410 0.33450 -0.49200
H 	H 	0.11670 0.74200 0.36630 0.09900
H 	H 	0.16530 0.82190 0.36300 0.12000
H 	H 	0.16430 0.68640 0.34470 0.10700
C 	C 	0.79680 0.01320 0.89680 -0.46300
H 	H 	0.81740 0.00860 0.86120 0.10100
H 	H 	0.77410 0.08550 0.88040 0.06500
H 	H 	0.76880 0.94830 0.87800 0.09700
C 	C 	0.84230 0.00900 0.00460 0.15700
C 	C 	0.88560 0.03860 0.15840 0.14000
C 	C 	0.90110 0.07340 0.25890 -0.33100
H 	H 	0.93850 0.12020 0.28910 0.07100
H 	H 	0.91100 0.00260 0.29880 0.07100
C 	C 	0.85530 0.13940 0.26830 0.13500
C 	C 	0.81710 0.23950 0.33320 0.17200
C 	C 	0.80960 0.30860 0.40320 -0.52100
H 	H 	0.77280 0.35510 0.36670 0.10500
H 	H 	0.84470 0.35920 0.44080 0.12000
H 	H 	0.80650 0.25710 0.44830 0.12200
Cu	Cu	0.75771 0.88263 0.55002 0.79700
Cu	Cu	0.68773 0.76777 0.67230 0.81000
Cu	Cu	0.43206 0.64612 0.49189 0.80700
N 	N 	0.57590 0.82260 0.36610 -0.32000
N 	N 	0.67310 0.85370 0.47570 -0.28800
N 	N 	0.64843 0.80040 0.52300 -0.24400
N 	N 	0.61070 0.74190 0.65820 -0.30200
N 	N 	0.51433 0.69240 0.58660 -0.26700
N 	N 	0.53869 0.69810 0.68680 -0.25200
N 	N 	0.42513 0.51770 0.64630 -0.24100
N 	N 	0.39734 0.53750 0.54700 -0.25300
N 	N 	0.33258 0.44250 0.57130 -0.30000
N 	N 	0.37023 0.31050 0.85530 -0.29900
N 	N 	0.27335 0.28020 0.74030 -0.27400
N 	N 	0.29833 0.34430 0.69860 -0.24400
C 	C 	0.63400 0.92260 0.30450 -0.54500
H 	H 	0.67660 0.93940 0.33010 0.12200
H 	H 	0.61810 0.87110 0.24780 0.13500
H 	H 	0.61080 0.99450 0.28430 0.12600
C 	C 	0.62880 0.86670 0.38220 0.18000
C 	C 	0.59090 0.78250 0.45540 0.14100
C 	C 	0.54660 0.72110 0.47070 -0.32500
H 	H 	0.50640 0.75630 0.42640 0.03500
H 	H 	0.54410 0.64050 0.44920 0.06200
C 	C 	0.55820 0.71920 0.57230 0.12400
C 	C 	0.59600 0.72750 0.72670 0.17000
C 	C 	0.63930 0.74590 0.83450 -0.49400
H 	H 	0.61670 0.75800 0.86630 0.10400
H 	H 	0.66530 0.67810 0.86300 0.12000
H 	H 	0.66430 0.81360 0.84470 0.10800
C 	C 	0.29680 0.48680 0.39680 -0.47500
H 	H 	0.31740 0.49140 0.36120 0.10300
H 	H 	0.27410 0.41450 0.38040 0.06900
H 	H 	0.26880 0.55170 0.37800 0.10300
C 	C 	0.34230 0.49100 0.50460 0.16100
C 	C 	0.38560 0.46140 0.65840 0.13500
C 	C 	0.40110 0.42660 0.75890 -0.31700
H 	H 	0.43850 0.37980 0.78910 0.04300
H 	H 	0.41100 0.49740 0.79880 0.05900
C 	C 	0.35530 0.36060 0.76830 0.12700
C 	C 	0.31710 0.26050 0.83320 0.16700
C 	C 	0.30960 0.19140 0.90320 -0.51300
H 	H 	0.27280 0.14490 0.86670 0.10300
H 	H 	0.34470 0.14080 0.94080 0.11100
H 	H 	0.30650 0.24290 0.94830 0.11800
Cu	Cu	0.25771 0.38263 0.55002 0.79600
Cu	Cu	0.18773 0.26777 0.67230 0.80900
Cu	Cu	0.93206 0.14612 0.49189 0.83000
N 	N 	0.07590 0.32260 0.36610 -0.32400
N 	N 	0.17310 0.35370 0.47570 -0.28700
N 	N 	0.14843 0.30040 0.52300 -0.24300
N 	N 	0.11070 0.24190 0.65820 -0.30100
N 	N 	0.01433 0.19240 0.58660 -0.28900
N 	N 	0.03869 0.19810 0.68680 -0.26400
N 	N 	0.92513 0.01770 0.64630 -0.22400
N 	N 	0.89734 0.03750 0.54700 -0.24600
N 	N 	0.83258 0.94250 0.57130 -0.30000
N 	N 	0.87023 0.81050 0.85530 -0.29400
N 	N 	0.77335 0.78020 0.74030 -0.27400
N 	N 	0.79833 0.84430 0.69860 -0.24600
C 	C 	0.13400 0.42260 0.30450 -0.52700
H 	H 	0.17660 0.43940 0.33010 0.11500
H 	H 	0.11810 0.37110 0.24780 0.12200
H 	H 	0.11080 0.49450 0.28430 0.11200
C 	C 	0.12880 0.36670 0.38220 0.17100
C 	C 	0.09090 0.28250 0.45540 0.12800
C 	C 	0.04660 0.22110 0.47070 -0.30400
H 	H 	0.00640 0.25630 0.42640 0.00300
H 	H 	0.04410 0.14050 0.44920 0.04200
C 	C 	0.05820 0.21920 0.57230 0.10800
C 	C 	0.09600 0.22750 0.72670 0.16600
C 	C 	0.13930 0.24590 0.83450 -0.49200
H 	H 	0.11670 0.25800 0.86630 0.09900
H 	H 	0.16530 0.17810 0.86300 0.12100
H 	H 	0.16430 0.31360 0.84470 0.10700
C 	C 	0.79680 0.98680 0.39680 -0.47000
H 	H 	0.81740 0.99140 0.36120 0.10300
H 	H 	0.77410 0.91450 0.38040 0.06700
H 	H 	0.76880 0.05170 0.37800 0.10100
C 	C 	0.84230 0.99100 0.50460 0.15900
C 	C 	0.88560 0.96140 0.65840 0.14200
C 	C 	0.90110 0.92660 0.75890 -0.33100
H 	H 	0.93850 0.87980 0.78910 0.07000
H 	H 	0.91100 0.99740 0.79880 0.07000
C 	C 	0.85530 0.86060 0.76830 0.13500
C 	C 	0.81710 0.76050 0.83320 0.16900
C 	C 	0.80960 0.69140 0.90320 -0.51500
H 	H 	0.77280 0.64490 0.86670 0.10300
H 	H 	0.84470 0.64080 0.94080 0.11600
H 	H 	0.80650 0.74290 0.94830 0.11800
Cu	Cu	0.24229 0.88263 0.94998 0.79400
Cu	Cu	0.31227 0.76777 0.82770 0.80900
Cu	Cu	0.56794 0.64612 0.00811 0.81000
N 	N 	0.42410 0.82260 0.13390 -0.32100
N 	N 	0.32690 0.85370 0.02430 -0.28300
N 	N 	0.35157 0.80040 0.97700 -0.25100
N 	N 	0.38930 0.74190 0.84180 -0.30200
N 	N 	0.48567 0.69240 0.91340 -0.26800
N 	N 	0.46131 0.69810 0.81320 -0.25300
N 	N 	0.57487 0.51770 0.85370 -0.24200
N 	N 	0.60266 0.53750 0.95300 -0.25300
N 	N 	0.66742 0.44250 0.92870 -0.29900
N 	N 	0.62977 0.31050 0.64470 -0.29800
N 	N 	0.72665 0.28020 0.75970 -0.27400
N 	N 	0.70167 0.34430 0.80140 -0.24400
C 	C 	0.36600 0.92260 0.19550 -0.54600
H 	H 	0.32340 0.93940 0.16990 0.12300
H 	H 	0.38190 0.87110 0.25220 0.13500
H 	H 	0.38920 0.99450 0.21570 0.12700
C 	C 	0.37120 0.86670 0.11780 0.18200
C 	C 	0.40910 0.78250 0.04460 0.14600
C 	C 	0.45340 0.72110 0.02930 -0.31800
H 	H 	0.49360 0.75630 0.07360 0.03500
H 	H 	0.45590 0.64050 0.05080 0.06100
C 	C 	0.44180 0.71920 0.92770 0.11700
C 	C 	0.40400 0.72750 0.77330 0.17100
C 	C 	0.36070 0.74590 0.66550 -0.49800
H 	H 	0.38330 0.75800 0.63370 0.10700
H 	H 	0.33470 0.67810 0.63700 0.12200
H 	H 	0.33570 0.81360 0.65530 0.11000
C 	C 	0.70320 0.48680 0.10320 -0.46200
H 	H 	0.68260 0.49140 0.13880 0.10000
H 	H 	0.72590 0.41450 0.11960 0.06600
H 	H 	0.73120 0.55170 0.12200 0.10100
C 	C 	0.65770 0.49100 0.99540 0.15300
C 	C 	0.61440 0.46140 0.84160 0.13500
C 	C 	0.59890 0.42660 0.74110 -0.31700
H 	H 	0.56150 0.37980 0.71090 0.04400
H 	H 	0.58900 0.49740 0.70120 0.06000
C 	C 	0.64470 0.36060 0.73170 0.12800
C 	C 	0.68290 0.26050 0.66680 0.16800
C 	C 	0.69040 0.19140 0.59680 -0.51300
H 	H 	0.72720 0.14490 0.63330 0.10200
H 	H 	0.65530 0.14080 0.55920 0.11000
H 	H 	0.69350 0.24290 0.55170 0.11900
Cu	Cu	0.74229 0.38263 0.94998 0.79500
Cu	Cu	0.81227 0.26777 0.82770 0.81100
Cu	Cu	0.06794 0.14612 0.00811 0.78700
N 	N 	0.92410 0.32260 0.13390 -0.30500
N 	N 	0.82690 0.35370 0.02430 -0.28500
N 	N 	0.85157 0.30040 0.97700 -0.25100
N 	N 	0.88930 0.24190 0.84180 -0.30400
N 	N 	0.98567 0.19240 0.91340 -0.24400
N 	N 	0.96131 0.19810 0.81320 -0.23200
N 	N 	0.07487 0.01770 0.85370 -0.24700
N 	N 	0.10266 0.03750 0.95300 -0.25300
N 	N 	0.16742 0.94250 0.92870 -0.29600
N 	N 	0.12977 0.81050 0.64470 -0.30300
N 	N 	0.22665 0.78020 0.75970 -0.27400
N 	N 	0.20167 0.84430 0.80140 -0.24300
C 	C 	0.86600 0.42260 0.19550 -0.56300
H 	H 	0.82340 0.43940 0.16990 0.12800
H 	H 	0.88190 0.37110 0.25220 0.15000
H 	H 	0.88920 0.49450 0.21570 0.14200
C 	C 	0.87120 0.36670 0.11780 0.19300
C 	C 	0.90910 0.28250 0.04460 0.16000
C 	C 	0.95340 0.22110 0.02930 -0.34100
H 	H 	0.99360 0.25630 0.07360 0.07200
H 	H 	0.95590 0.14050 0.05080 0.08400
C 	C 	0.94180 0.21920 0.92770 0.13500
C 	C 	0.90400 0.22750 0.77330 0.17900
C 	C 	0.86070 0.24590 0.66550 -0.50700
H 	H 	0.88330 0.25800 0.63370 0.11900
H 	H 	0.83470 0.17810 0.63700 0.12500
H 	H 	0.83570 0.31360 0.65530 0.11400
C 	C 	0.20320 0.98680 0.10320 -0.43900
H 	H 	0.18260 0.99140 0.13880 0.09500
H 	H 	0.22590 0.91450 0.11960 0.06000
H 	H 	0.23120 0.05170 0.12200 0.09200
C 	C 	0.15770 0.99100 0.99540 0.14200
C 	C 	0.11440 0.96140 0.84160 0.12500
C 	C 	0.09890 0.92660 0.74110 -0.30100
H 	H 	0.06150 0.87980 0.71090 0.02000
H 	H 	0.08900 0.99740 0.70120 0.04800
C 	C 	0.14470 0.86060 0.73170 0.11900
C 	C 	0.18290 0.76050 0.66680 0.16400
C 	C 	0.19040 0.69140 0.59680 -0.50600
H 	H 	0.22720 0.64490 0.63330 0.09900
H 	H 	0.15530 0.64080 0.55920 0.10300
H 	H 	0.19350 0.74290 0.55170 0.11600
Cu	Cu	0.50000 0.17748 0.75000 0.80100
Cu	Cu	0.00000 0.67748 0.75000 0.76700
Cu	Cu	0.50000 0.82252 0.25000 0.80100
Cu	Cu	0.00000 0.32252 0.25000 0.76800
Cu	Cu	0.50000 0.39124 0.25000 0.81400
Cu	Cu	-0.00000 0.89124 0.25000 0.78100
Cu	Cu	0.50000 0.60876 0.75000 0.81400
Cu	Cu	-0.00000 0.10876 0.75000 0.78100
