data_crystal

_cell_length_a 24.14800
_cell_length_b 15.17300
_cell_length_c 15.49700
_cell_angle_alpha 90.00000
_cell_angle_beta  118.97900
_cell_angle_gamma 90.00000

_symmetry_space_group_name_	'P 1'
_symmetry_space_group_name_H-M	'P 1'

loop_
_symmetry_equiv_pos_as_xyz
  x,y,z

loop_
_atom_site_label
_atom_site_type_symbol
_atom_site_fract_x
_atom_site_fract_y
_atom_site_fract_z
_atom_site_charge
Cu	Cu	0.23574 0.14314 0.45470 0.79900
Cu	Cu	0.31542 0.23144 0.32811 0.80500
Cu	Cu	0.56792 0.38922 0.51369 0.83100
N 	N 	0.42210 0.20740 0.63590 -0.32000
N 	N 	0.32170 0.18140 0.52690 -0.28900
N 	N 	0.35020 0.21720 0.47890 -0.25600
N 	N 	0.39140 0.28460 0.34300 -0.31900
N 	N 	0.48580 0.34680 0.41700 -0.25900
N 	N 	0.46020 0.36150 0.31620 -0.25900
N 	N 	0.57260 0.50260 0.35950 -0.24900
N 	N 	0.59940 0.48730 0.46270 -0.25900
N 	N 	0.66060 0.58090 0.43680 -0.29800
N 	N 	0.63560 0.64700 0.14260 -0.29300
N 	N 	0.73110 0.69030 0.25650 -0.27800
N 	N 	0.70130 0.65400 0.30380 -0.24500
C 	C 	0.35620 0.13760 0.70360 -0.49500
H 	H 	0.31070 0.13360 0.68050 0.09900
H 	H 	0.37610 0.17520 0.76240 0.12500
H 	H 	0.37500 0.07860 0.72000 0.10300
C 	C 	0.36710 0.17730 0.62280 0.14800
C 	C 	0.40950 0.23270 0.54490 0.14800
C 	C 	0.45780 0.27900 0.53040 -0.43100
H 	H 	0.49620 0.24220 0.55820 0.48200
H 	H 	0.46880 0.33410 0.57010 0.21400
C 	C 	0.44250 0.30400 0.42870 0.17200
C 	C 	0.40510 0.32430 0.27760 0.18200
C 	C 	0.36040 0.32270 0.16820 -0.50600
H 	H 	0.32060 0.35140 0.15410 0.11800
H 	H 	0.35210 0.26140 0.14530 0.11500
H 	H 	0.37960 0.35410 0.13390 0.11000
C 	C 	0.69230 0.54120 0.61310 -0.47200
H 	H 	0.67100 0.51400 0.64650 0.11900
H 	H 	0.70090 0.60340 0.63220 0.07600
H 	H 	0.73230 0.51050 0.63200 0.10600
C 	C 	0.65050 0.53480 0.50360 0.17200
C 	C 	0.60980 0.55660 0.34860 0.14700
C 	C 	0.59480 0.59060 0.24800 -0.34600
H 	H 	0.57660 0.54100 0.20090 0.05900
H 	H 	0.56110 0.63550 0.22860 0.08600
C 	C 	0.64470 0.62880 0.23400 0.16700
C 	C 	0.68960 0.68570 0.15930 0.18800
C 	C 	0.70280 0.71580 0.08070 -0.54200
H 	H 	0.71960 0.66660 0.05940 0.13500
H 	H 	0.73400 0.76360 0.10580 0.12300
H 	H 	0.66360 0.73720 0.02460 0.12400
O 	O 	0.51400 0.28100 0.58600 -0.65300
Cu	Cu	0.73574 0.64314 0.45470 0.80000
Cu	Cu	0.81542 0.73144 0.32811 0.80800
Cu	Cu	0.06792 0.88922 0.51369 0.82000
N 	N 	0.92210 0.70740 0.63590 -0.30900
N 	N 	0.82170 0.68140 0.52690 -0.28800
N 	N 	0.85020 0.71720 0.47890 -0.25600
N 	N 	0.89140 0.78460 0.34300 -0.32100
N 	N 	0.98580 0.84680 0.41700 -0.24000
N 	N 	0.96020 0.86150 0.31620 -0.24400
N 	N 	0.07260 0.00260 0.35950 -0.25500
N 	N 	0.09940 0.98730 0.46270 -0.26400
N 	N 	0.16060 0.08090 0.43680 -0.29800
N 	N 	0.13560 0.14700 0.14260 -0.29200
N 	N 	0.23110 0.19030 0.25650 -0.27800
N 	N 	0.20130 0.15400 0.30380 -0.24500
C 	C 	0.85620 0.63760 0.70360 -0.50400
H 	H 	0.81070 0.63360 0.68050 0.10200
H 	H 	0.87610 0.67520 0.76240 0.13300
H 	H 	0.87500 0.57860 0.72000 0.11400
C 	C 	0.86710 0.67730 0.62280 0.15400
C 	C 	0.90950 0.73270 0.54490 0.16100
C 	C 	0.95780 0.77900 0.53040 -0.46900
H 	H 	0.99620 0.74220 0.55820 0.60900
H 	H 	0.96880 0.83410 0.57010 0.26800
C 	C 	0.94250 0.80400 0.42870 0.19000
C 	C 	0.90510 0.82430 0.27760 0.18900
C 	C 	0.86040 0.82270 0.16820 -0.51400
H 	H 	0.82060 0.85140 0.15410 0.12100
H 	H 	0.85210 0.76140 0.14530 0.12200
H 	H 	0.87960 0.85410 0.13390 0.11900
C 	C 	0.19230 0.04120 0.61310 -0.47200
H 	H 	0.17100 0.01400 0.64650 0.11900
H 	H 	0.20090 0.10340 0.63220 0.07600
H 	H 	0.23230 0.01050 0.63200 0.10500
C 	C 	0.15050 0.03480 0.50360 0.17200
C 	C 	0.10980 0.05660 0.34860 0.14300
C 	C 	0.09480 0.09060 0.24800 -0.34000
H 	H 	0.07660 0.04100 0.20090 0.05100
H 	H 	0.06110 0.13550 0.22860 0.07800
C 	C 	0.14470 0.12880 0.23400 0.16600
C 	C 	0.18960 0.18570 0.15930 0.18400
C 	C 	0.20280 0.21580 0.08070 -0.53400
H 	H 	0.21960 0.16660 0.05940 0.13100
H 	H 	0.23400 0.26360 0.10580 0.12000
H 	H 	0.16360 0.23720 0.02460 0.11800
O 	O 	0.01400 0.78100 0.58600 -0.80600
Cu	Cu	0.76426 0.14314 0.04530 0.80000
Cu	Cu	0.68458 0.23144 0.17189 0.80700
Cu	Cu	0.43208 0.38922 0.98631 0.83000
N 	N 	0.57790 0.20740 0.86410 -0.31900
N 	N 	0.67830 0.18140 0.97310 -0.29000
N 	N 	0.64980 0.21720 0.02110 -0.25200
N 	N 	0.60860 0.28460 0.15700 -0.32000
N 	N 	0.51420 0.34680 0.08300 -0.25900
N 	N 	0.53980 0.36150 0.18380 -0.25900
N 	N 	0.42740 0.50260 0.14050 -0.24900
N 	N 	0.40060 0.48730 0.03730 -0.25500
N 	N 	0.33940 0.58090 0.06320 -0.29600
N 	N 	0.36440 0.64700 0.35740 -0.29300
N 	N 	0.26890 0.69030 0.24350 -0.27800
N 	N 	0.29870 0.65400 0.19620 -0.24600
C 	C 	0.64380 0.13760 0.79640 -0.49500
H 	H 	0.68930 0.13360 0.81950 0.09900
H 	H 	0.62390 0.17520 0.73760 0.12500
H 	H 	0.62500 0.07860 0.78000 0.10300
C 	C 	0.63290 0.17730 0.87720 0.14800
C 	C 	0.59050 0.23270 0.95510 0.14600
C 	C 	0.54220 0.27900 0.96960 -0.43400
H 	H 	0.50380 0.24220 0.94180 0.48200
H 	H 	0.53120 0.33410 0.92990 0.21400
C 	C 	0.55750 0.30400 0.07130 0.17500
C 	C 	0.59490 0.32430 0.22240 0.18100
C 	C 	0.63960 0.32270 0.33180 -0.50600
H 	H 	0.67940 0.35140 0.34590 0.11900
H 	H 	0.64790 0.26140 0.35470 0.11400
H 	H 	0.62040 0.35410 0.36610 0.10900
C 	C 	0.30770 0.54120 0.88690 -0.46300
H 	H 	0.32900 0.51400 0.85350 0.11600
H 	H 	0.29910 0.60340 0.86780 0.07300
H 	H 	0.26770 0.51050 0.86800 0.10100
C 	C 	0.34950 0.53480 0.99640 0.16400
C 	C 	0.39020 0.55660 0.15140 0.14700
C 	C 	0.40520 0.59060 0.25200 -0.34600
H 	H 	0.42340 0.54100 0.29910 0.05900
H 	H 	0.43890 0.63550 0.27140 0.08600
C 	C 	0.35530 0.62880 0.26600 0.16700
C 	C 	0.31040 0.68570 0.34070 0.18600
C 	C 	0.29720 0.71580 0.41930 -0.53600
H 	H 	0.28040 0.66660 0.44060 0.13100
H 	H 	0.26600 0.76360 0.39420 0.12000
H 	H 	0.33640 0.73720 0.47540 0.12100
O 	O 	0.48600 0.28100 0.91400 -0.65300
Cu	Cu	0.26426 0.64314 0.04530 0.80100
Cu	Cu	0.18458 0.73144 0.17189 0.80500
Cu	Cu	0.93208 0.88922 0.98631 0.84200
N 	N 	0.07790 0.70740 0.86410 -0.32100
N 	N 	0.17830 0.68140 0.97310 -0.29100
N 	N 	0.14980 0.71720 0.02110 -0.25000
N 	N 	0.10860 0.78460 0.15700 -0.31800
N 	N 	0.01420 0.84680 0.08300 -0.27500
N 	N 	0.03980 0.86150 0.18380 -0.26700
N 	N 	0.92740 0.00260 0.14050 -0.23600
N 	N 	0.90060 0.98730 0.03730 -0.24900
N 	N 	0.83940 0.08090 0.06320 -0.29700
N 	N 	0.86440 0.14700 0.35740 -0.29400
N 	N 	0.76890 0.19030 0.24350 -0.27800
N 	N 	0.79870 0.15400 0.19620 -0.24600
C 	C 	0.14380 0.63760 0.79640 -0.48500
H 	H 	0.18930 0.63360 0.81950 0.09500
H 	H 	0.12390 0.67520 0.73760 0.11900
H 	H 	0.12500 0.57860 0.78000 0.09400
C 	C 	0.13290 0.67730 0.87720 0.14300
C 	C 	0.09050 0.73270 0.95510 0.13400
C 	C 	0.04220 0.77900 0.96960 -0.39900
H 	H 	0.00380 0.74220 0.94180 0.35900
H 	H 	0.03120 0.83410 0.92990 0.16200
C 	C 	0.05750 0.80400 0.07130 0.16000
C 	C 	0.09490 0.82430 0.22240 0.17600
C 	C 	0.13960 0.82270 0.33180 -0.49900
H 	H 	0.17940 0.85140 0.34590 0.11600
H 	H 	0.14790 0.76140 0.35470 0.10800
H 	H 	0.12040 0.85410 0.36610 0.10400
C 	C 	0.80770 0.04120 0.88690 -0.46400
H 	H 	0.82900 0.01400 0.85350 0.11700
H 	H 	0.79910 0.10340 0.86780 0.07300
H 	H 	0.76770 0.01050 0.86800 0.10200
C 	C 	0.84950 0.03480 0.99640 0.16300
C 	C 	0.89020 0.05660 0.15140 0.15300
C 	C 	0.90520 0.09060 0.25200 -0.35500
H 	H 	0.92340 0.04100 0.29910 0.06900
H 	H 	0.93890 0.13550 0.27140 0.09800
C 	C 	0.85530 0.12880 0.26600 0.16900
C 	C 	0.81040 0.18570 0.34070 0.19000
C 	C 	0.79720 0.21580 0.41930 -0.54400
H 	H 	0.78040 0.16660 0.44060 0.13400
H 	H 	0.76600 0.26360 0.39420 0.12400
H 	H 	0.83640 0.23720 0.47540 0.12800
O 	O 	0.98600 0.78100 0.91400 -0.50100
Cu	Cu	0.76426 0.85686 0.54530 0.79900
Cu	Cu	0.68458 0.76856 0.67189 0.80600
Cu	Cu	0.43208 0.61078 0.48631 0.83200
N 	N 	0.57790 0.79260 0.36410 -0.31900
N 	N 	0.67830 0.81860 0.47310 -0.28900
N 	N 	0.64980 0.78280 0.52110 -0.25500
N 	N 	0.60860 0.71540 0.65700 -0.31900
N 	N 	0.51420 0.65320 0.58300 -0.25900
N 	N 	0.53980 0.63850 0.68380 -0.25900
N 	N 	0.42740 0.49740 0.64050 -0.24900
N 	N 	0.40060 0.51270 0.53730 -0.25800
N 	N 	0.33940 0.41910 0.56320 -0.29900
N 	N 	0.36440 0.35300 0.85740 -0.29300
N 	N 	0.26890 0.30970 0.74350 -0.27800
N 	N 	0.29870 0.34600 0.69620 -0.24600
C 	C 	0.64380 0.86240 0.29640 -0.49500
H 	H 	0.68930 0.86640 0.31950 0.09900
H 	H 	0.62390 0.82480 0.23760 0.12600
H 	H 	0.62500 0.92140 0.28000 0.10400
C 	C 	0.63290 0.82270 0.37720 0.14800
C 	C 	0.59050 0.76730 0.45510 0.14800
C 	C 	0.54220 0.72100 0.46960 -0.43100
H 	H 	0.50380 0.75780 0.44180 0.48200
H 	H 	0.53120 0.66590 0.42990 0.21400
C 	C 	0.55750 0.69600 0.57130 0.17200
C 	C 	0.59490 0.67570 0.72240 0.18100
C 	C 	0.63960 0.67730 0.83180 -0.50300
H 	H 	0.67940 0.64860 0.84590 0.11800
H 	H 	0.64790 0.73860 0.85470 0.11200
H 	H 	0.62040 0.64590 0.86610 0.10800
C 	C 	0.30770 0.45880 0.38690 -0.46900
H 	H 	0.32900 0.48600 0.35350 0.11800
H 	H 	0.29910 0.39660 0.36780 0.07500
H 	H 	0.26770 0.48950 0.36800 0.10200
C 	C 	0.34950 0.46520 0.49640 0.17000
C 	C 	0.39020 0.44340 0.65140 0.14600
C 	C 	0.40520 0.40940 0.75200 -0.34600
H 	H 	0.42340 0.45900 0.79910 0.05800
H 	H 	0.43890 0.36450 0.77140 0.08600
C 	C 	0.35530 0.37120 0.76600 0.16700
C 	C 	0.31040 0.31430 0.84070 0.18500
C 	C 	0.29720 0.28420 0.91930 -0.53500
H 	H 	0.28040 0.33340 0.94060 0.13000
H 	H 	0.26600 0.23640 0.89420 0.12000
H 	H 	0.33640 0.26280 0.97540 0.12000
O 	O 	0.48600 0.71900 0.41400 -0.65300
Cu	Cu	0.26426 0.35686 0.54530 0.79900
Cu	Cu	0.18458 0.26856 0.67189 0.80500
Cu	Cu	0.93208 0.11078 0.48631 0.84400
N 	N 	0.07790 0.29260 0.36410 -0.32100
N 	N 	0.17830 0.31860 0.47310 -0.28900
N 	N 	0.14980 0.28280 0.52110 -0.25300
N 	N 	0.10860 0.21540 0.65700 -0.31700
N 	N 	0.01420 0.15320 0.58300 -0.27600
N 	N 	0.03980 0.13850 0.68380 -0.26700
N 	N 	0.92740 0.99740 0.64050 -0.23600
N 	N 	0.90060 0.01270 0.53730 -0.25300
N 	N 	0.83940 0.91910 0.56320 -0.29900
N 	N 	0.86440 0.85300 0.85740 -0.29400
N 	N 	0.76890 0.80970 0.74350 -0.27800
N 	N 	0.79870 0.84600 0.69620 -0.24600
C 	C 	0.14380 0.36240 0.29640 -0.48600
H 	H 	0.18930 0.36640 0.31950 0.09600
H 	H 	0.12390 0.32480 0.23760 0.11900
H 	H 	0.12500 0.42140 0.28000 0.09500
C 	C 	0.13290 0.32270 0.37720 0.14400
C 	C 	0.09050 0.26730 0.45510 0.13700
C 	C 	0.04220 0.22100 0.46960 -0.39400
H 	H 	0.00380 0.25780 0.44180 0.35600
H 	H 	0.03120 0.16590 0.42990 0.16100
C 	C 	0.05750 0.19600 0.57130 0.15500
C 	C 	0.09490 0.17570 0.72240 0.17600
C 	C 	0.13960 0.17730 0.83180 -0.49800
H 	H 	0.17940 0.14860 0.84590 0.11600
H 	H 	0.14790 0.23860 0.85470 0.10800
H 	H 	0.12040 0.14590 0.86610 0.10300
C 	C 	0.80770 0.95880 0.38690 -0.46900
H 	H 	0.82900 0.98600 0.35350 0.11900
H 	H 	0.79910 0.89660 0.36780 0.07500
H 	H 	0.76770 0.98950 0.36800 0.10300
C 	C 	0.84950 0.96520 0.49640 0.17000
C 	C 	0.89020 0.94340 0.65140 0.15200
C 	C 	0.90520 0.90940 0.75200 -0.35400
H 	H 	0.92340 0.95900 0.79910 0.06900
H 	H 	0.93890 0.86450 0.77140 0.09800
C 	C 	0.85530 0.87120 0.76600 0.16900
C 	C 	0.81040 0.81430 0.84070 0.18800
C 	C 	0.79720 0.78420 0.91930 -0.54000
H 	H 	0.78040 0.83340 0.94060 0.13100
H 	H 	0.76600 0.73640 0.89420 0.12200
H 	H 	0.83640 0.76280 0.97540 0.12500
O 	O 	0.98600 0.21900 0.41400 -0.49800
Cu	Cu	0.23574 0.85686 0.95470 0.79800
Cu	Cu	0.31542 0.76856 0.82811 0.80600
Cu	Cu	0.56792 0.61078 0.01369 0.83300
N 	N 	0.42210 0.79260 0.13590 -0.32000
N 	N 	0.32170 0.81860 0.02690 -0.28600
N 	N 	0.35020 0.78280 0.97890 -0.25800
N 	N 	0.39140 0.71540 0.84300 -0.31900
N 	N 	0.48580 0.65320 0.91700 -0.26000
N 	N 	0.46020 0.63850 0.81620 -0.25900
N 	N 	0.57260 0.49740 0.85950 -0.24900
N 	N 	0.59940 0.51270 0.96270 -0.26200
N 	N 	0.66060 0.41910 0.93680 -0.30100
N 	N 	0.63560 0.35300 0.64260 -0.29300
N 	N 	0.73110 0.30970 0.75650 -0.27700
N 	N 	0.70130 0.34600 0.80380 -0.24600
C 	C 	0.35620 0.86240 0.20360 -0.49500
H 	H 	0.31070 0.86640 0.18050 0.09900
H 	H 	0.37610 0.82480 0.26240 0.12500
H 	H 	0.37500 0.92140 0.22000 0.10400
C 	C 	0.36710 0.82270 0.12280 0.14900
C 	C 	0.40950 0.76730 0.04490 0.15100
C 	C 	0.45780 0.72100 0.03040 -0.42700
H 	H 	0.49620 0.75780 0.05820 0.48100
H 	H 	0.46880 0.66590 0.07010 0.21300
C 	C 	0.44250 0.69600 0.92870 0.16800
C 	C 	0.40510 0.67570 0.77760 0.18100
C 	C 	0.36040 0.67730 0.66820 -0.50400
H 	H 	0.32060 0.64860 0.65410 0.11700
H 	H 	0.35210 0.73860 0.64530 0.11300
H 	H 	0.37960 0.64590 0.63390 0.10900
C 	C 	0.69230 0.45880 0.11310 -0.47800
H 	H 	0.67100 0.48600 0.14650 0.12100
H 	H 	0.70090 0.39660 0.13220 0.07800
H 	H 	0.73230 0.48950 0.13200 0.10800
C 	C 	0.65050 0.46520 0.00360 0.17900
C 	C 	0.60980 0.44340 0.84860 0.14600
C 	C 	0.59480 0.40940 0.74800 -0.34600
H 	H 	0.57660 0.45900 0.70090 0.05900
H 	H 	0.56110 0.36450 0.72860 0.08600
C 	C 	0.64470 0.37120 0.73400 0.16700
C 	C 	0.68960 0.31430 0.65930 0.18700
C 	C 	0.70280 0.28420 0.58070 -0.53800
H 	H 	0.71960 0.33340 0.55940 0.13300
H 	H 	0.73400 0.23640 0.60580 0.12200
H 	H 	0.66360 0.26280 0.52460 0.12200
O 	O 	0.51400 0.71900 0.08600 -0.65200
Cu	Cu	0.73574 0.35686 0.95470 0.79900
Cu	Cu	0.81542 0.26856 0.82811 0.80800
Cu	Cu	0.06792 0.11078 0.01369 0.82200
N 	N 	0.92210 0.29260 0.13590 -0.30900
N 	N 	0.82170 0.31860 0.02690 -0.28600
N 	N 	0.85020 0.28280 0.97890 -0.25900
N 	N 	0.89140 0.21540 0.84300 -0.32100
N 	N 	0.98580 0.15320 0.91700 -0.24100
N 	N 	0.96020 0.13850 0.81620 -0.24500
N 	N 	0.07260 0.99740 0.85950 -0.25700
N 	N 	0.09940 0.01270 0.96270 -0.26600
N 	N 	0.16060 0.91910 0.93680 -0.30100
N 	N 	0.13560 0.85300 0.64260 -0.29200
N 	N 	0.23110 0.80970 0.75650 -0.27800
N 	N 	0.20130 0.84600 0.80380 -0.24600
C 	C 	0.85620 0.36240 0.20360 -0.50500
H 	H 	0.81070 0.36640 0.18050 0.10300
H 	H 	0.87610 0.32480 0.26240 0.13400
H 	H 	0.87500 0.42140 0.22000 0.11500
C 	C 	0.86710 0.32270 0.12280 0.15500
C 	C 	0.90950 0.26730 0.04490 0.16400
C 	C 	0.95780 0.22100 0.03040 -0.46500
H 	H 	0.99620 0.25780 0.05820 0.60700
H 	H 	0.96880 0.16590 0.07010 0.26700
C 	C 	0.94250 0.19600 0.92870 0.18600
C 	C 	0.90510 0.17570 0.77760 0.18800
C 	C 	0.86040 0.17730 0.66820 -0.51100
H 	H 	0.82060 0.14860 0.65410 0.12000
H 	H 	0.85210 0.23860 0.64530 0.12000
H 	H 	0.87960 0.14590 0.63390 0.11700
C 	C 	0.19230 0.95880 0.11310 -0.47800
H 	H 	0.17100 0.98600 0.14650 0.12000
H 	H 	0.20090 0.89660 0.13220 0.07800
H 	H 	0.23230 0.98950 0.13200 0.10600
C 	C 	0.15050 0.96520 0.00360 0.18000
C 	C 	0.10980 0.94340 0.84860 0.14200
C 	C 	0.09480 0.90940 0.74800 -0.33900
H 	H 	0.07660 0.95900 0.70090 0.05000
H 	H 	0.06110 0.86450 0.72860 0.07800
C 	C 	0.14470 0.87120 0.73400 0.16500
C 	C 	0.18960 0.81430 0.65930 0.18300
C 	C 	0.20280 0.78420 0.58070 -0.53100
H 	H 	0.21960 0.83340 0.55940 0.12900
H 	H 	0.23400 0.73640 0.60580 0.11800
H 	H 	0.16360 0.76280 0.52460 0.11600
O 	O 	0.01400 0.21900 0.08600 -0.80400
Cu	Cu	0.50000 0.20770 0.75000 0.81700
Cu	Cu	0.00000 0.70770 0.75000 0.79300
Cu	Cu	0.50000 0.79230 0.25000 0.81700
Cu	Cu	0.00000 0.29230 0.25000 0.79400
Cu	Cu	0.50000 0.43260 0.25000 0.82400
Cu	Cu	0.00000 0.93260 0.25000 0.80000
Cu	Cu	0.50000 0.56740 0.75000 0.82400
Cu	Cu	0.00000 0.06740 0.75000 0.80100
