data_crystal

_cell_length_a 15.31050
_cell_length_b 15.31050
_cell_length_c 15.31050
_cell_angle_alpha 90.00000
_cell_angle_beta  90.00000
_cell_angle_gamma 90.00000

_symmetry_space_group_name_	'P 1'
_symmetry_space_group_name_H-M	'P 1'

loop_
_symmetry_equiv_pos_as_xyz
  x,y,z

loop_
_atom_site_label
_atom_site_type_symbol
_atom_site_fract_x
_atom_site_fract_y
_atom_site_fract_z
_atom_site_charge
O 	O 	0.87416 0.88692 0.73964 -0.30400
O 	O 	0.37416 0.38692 0.23964 -0.30400
O 	O 	0.62584 0.11308 0.23964 -0.30400
O 	O 	0.12584 0.61308 0.73964 -0.30400
O 	O 	0.12584 0.38692 0.76036 -0.30400
O 	O 	0.62584 0.88692 0.26036 -0.30400
O 	O 	0.37416 0.61308 0.26036 -0.30400
O 	O 	0.87416 0.11308 0.76036 -0.30400
O 	O 	0.73964 0.87416 0.88692 -0.30400
O 	O 	0.23964 0.37416 0.38692 -0.30400
O 	O 	0.23964 0.62584 0.11308 -0.30400
O 	O 	0.73964 0.12584 0.61308 -0.30400
O 	O 	0.76036 0.12584 0.38692 -0.30400
O 	O 	0.26036 0.62584 0.88692 -0.30400
O 	O 	0.26036 0.37416 0.61308 -0.30400
O 	O 	0.76036 0.87416 0.11308 -0.30400
O 	O 	0.88692 0.73964 0.87416 -0.30400
O 	O 	0.38692 0.23964 0.37416 -0.30400
O 	O 	0.11308 0.23964 0.62584 -0.30400
O 	O 	0.61308 0.73964 0.12584 -0.30400
O 	O 	0.38692 0.76036 0.12584 -0.30400
O 	O 	0.88692 0.26036 0.62584 -0.30400
O 	O 	0.61308 0.26036 0.37416 -0.30400
O 	O 	0.11308 0.76036 0.87416 -0.30400
O 	O 	0.63692 0.12416 0.51036 -0.30400
O 	O 	0.13692 0.62416 0.01036 -0.30400
O 	O 	0.86308 0.87584 0.01036 -0.30400
O 	O 	0.36308 0.37584 0.51036 -0.30400
O 	O 	0.13692 0.37584 0.48964 -0.30400
O 	O 	0.63692 0.87584 0.98964 -0.30400
O 	O 	0.36308 0.62416 0.98964 -0.30400
O 	O 	0.86308 0.12416 0.48964 -0.30400
O 	O 	0.62416 0.98964 0.36308 -0.30400
O 	O 	0.12416 0.48964 0.86308 -0.30400
O 	O 	0.37584 0.48964 0.13692 -0.30400
O 	O 	0.87584 0.98964 0.63692 -0.30400
O 	O 	0.87584 0.01036 0.86308 -0.30400
O 	O 	0.37584 0.51036 0.36308 -0.30400
O 	O 	0.12416 0.51036 0.63692 -0.30400
O 	O 	0.62416 0.01036 0.13692 -0.30400
O 	O 	0.48964 0.13692 0.37584 -0.30400
O 	O 	0.98964 0.63692 0.87584 -0.30400
O 	O 	0.98964 0.36308 0.62416 -0.30400
O 	O 	0.48964 0.86308 0.12416 -0.30400
O 	O 	0.51036 0.63692 0.12416 -0.30400
O 	O 	0.01036 0.13692 0.62416 -0.30400
O 	O 	0.01036 0.86308 0.87584 -0.30400
O 	O 	0.51036 0.36308 0.37584 -0.30400
Ni	Ni	0.87500 0.87500 0.87500 1.12800
Ni	Ni	0.37500 0.37500 0.37500 1.12800
Ni	Ni	0.62500 0.12500 0.37500 1.12800
Ni	Ni	0.12500 0.62500 0.87500 1.12800
Ni	Ni	0.12500 0.37500 0.62500 1.12800
Ni	Ni	0.62500 0.87500 0.12500 1.12800
Ni	Ni	0.37500 0.62500 0.12500 1.12800
Ni	Ni	0.87500 0.12500 0.62500 1.12800
C 	C 	0.87500 0.96423 0.71423 0.23200
C 	C 	0.62500 0.03577 0.21423 0.23200
C 	C 	0.12500 0.46423 0.78577 0.23200
C 	C 	0.37500 0.53577 0.28577 0.23200
C 	C 	0.71423 0.87500 0.96423 0.23200
C 	C 	0.21423 0.62500 0.03577 0.23200
C 	C 	0.78577 0.12500 0.46423 0.23200
C 	C 	0.28577 0.37500 0.53577 0.23200
C 	C 	0.96423 0.71423 0.87500 0.23200
C 	C 	0.03577 0.21423 0.62500 0.23200
C 	C 	0.46423 0.78577 0.12500 0.23200
C 	C 	0.53577 0.28577 0.37500 0.23200
C 	C 	0.71423 0.12500 0.53577 0.23200
C 	C 	0.78577 0.87500 0.03577 0.23200
C 	C 	0.21423 0.37500 0.46423 0.23200
C 	C 	0.28577 0.62500 0.96423 0.23200
C 	C 	0.62500 0.96423 0.28577 0.23200
C 	C 	0.37500 0.46423 0.21423 0.23200
C 	C 	0.87500 0.03577 0.78577 0.23200
C 	C 	0.12500 0.53577 0.71423 0.23200
C 	C 	0.46423 0.21423 0.37500 0.23200
C 	C 	0.96423 0.28577 0.62500 0.23200
C 	C 	0.53577 0.71423 0.12500 0.23200
C 	C 	0.03577 0.78577 0.87500 0.23200
