data_crystal

_cell_length_a 9.75540
_cell_length_b 13.24300
_cell_length_c 13.59560
_cell_angle_alpha 118.30300
_cell_angle_beta  90.00000
_cell_angle_gamma 111.61200

_symmetry_space_group_name_	'P 1'
_symmetry_space_group_name_H-M	'P 1'

loop_
_symmetry_equiv_pos_as_xyz
  x,y,z

loop_
_atom_site_label
_atom_site_type_symbol
_atom_site_fract_x
_atom_site_fract_y
_atom_site_fract_z
_atom_site_charge
Cd	Cd	0.32318 0.51296 0.85645 1.18900
Cd	Cd	0.81897 0.49182 0.60272 1.20700
Cd	Cd	0.81022 0.48704 0.14355 1.18400
Cd	Cd	0.32715 0.50818 0.39728 1.21200
H 	H 	0.40400 0.80600 0.00290 -0.01800
H 	H 	0.59660 0.00220 0.11170 0.08900
H 	H 	0.89070 0.84120 0.05920 0.06000
H 	H 	0.68260 0.64400 0.95720 -0.01200
H 	H 	0.77000 0.17720 0.20530 0.07300
H 	H 	0.97080 0.37360 0.29750 0.00600
H 	H 	0.25960 0.22000 0.23920 0.01700
H 	H 	0.06620 0.01820 0.13680 0.05500
H 	H 	0.95340 0.37400 0.78500 -0.00100
H 	H 	0.75570 0.17760 0.69510 0.07000
H 	H 	0.05890 0.02220 0.63580 0.06100
H 	H 	0.24780 0.22400 0.72150 0.01800
H 	H 	0.69010 0.64840 0.45990 -0.01000
H 	H 	0.88970 0.84860 0.54820 0.06500
H 	H 	0.58310 0.99680 0.64030 0.08700
H 	H 	0.39270 0.79280 0.54990 0.01900
H 	H 	0.59800 0.19400 0.99710 -0.01900
H 	H 	0.59440 0.99780 0.88830 0.08500
H 	H 	0.04950 0.15880 0.94080 0.08300
H 	H 	0.03860 0.35600 0.04280 0.02500
H 	H 	0.59280 0.82280 0.79470 0.08900
H 	H 	0.59720 0.62640 0.70250 -0.00300
H 	H 	0.03960 0.78000 0.76080 0.03500
H 	H 	0.04800 0.98180 0.86320 0.09400
H 	H 	0.57940 0.62600 0.21500 -0.01000
H 	H 	0.57810 0.82240 0.30490 0.08400
H 	H 	0.03670 0.97780 0.36420 0.10200
H 	H 	0.02380 0.77600 0.27850 0.03900
H 	H 	0.04170 0.35160 0.54010 0.02200
H 	H 	0.04110 0.15140 0.45180 0.09400
H 	H 	0.58630 0.00320 0.35970 0.08200
H 	H 	0.59990 0.20720 0.45010 0.01900
C 	C 	0.50320 0.81240 0.01460 0.08000
C 	C 	0.61940 0.93100 0.07930 -0.14100
C 	C 	0.76490 0.94520 0.09830 0.07900
C 	C 	0.79070 0.83680 0.04960 -0.12700
C 	C 	0.66620 0.71840 0.98750 0.06700
C 	C 	0.89260 0.07480 0.16110 -0.00700
C 	C 	0.86930 0.18320 0.21010 -0.08200
C 	C 	0.99040 0.30040 0.26700 0.01600
C 	C 	0.15810 0.21080 0.23150 0.03200
C 	C 	0.04400 0.09040 0.17110 -0.04900
C 	C 	0.97490 0.30180 0.75330 0.00700
C 	C 	0.85610 0.18440 0.70210 -0.07900
C 	C 	0.88330 0.07620 0.65990 -0.00300
C 	C 	0.03460 0.09300 0.66650 -0.05700
C 	C 	0.14610 0.21420 0.71770 0.03400
C 	C 	0.66820 0.72020 0.49680 0.07200
C 	C 	0.78790 0.84000 0.54990 -0.12400
C 	C 	0.75780 0.94700 0.60440 0.07200
C 	C 	0.60880 0.92720 0.60400 -0.12700
C 	C 	0.49460 0.80420 0.54930 0.07400
C 	C 	0.69080 0.18760 0.98540 0.07600
C 	C 	0.68840 0.06900 0.92070 -0.13000
C 	C 	0.81970 0.05480 0.90170 0.05900
C 	C 	0.95390 0.16320 0.95040 -0.13400
C 	C 	0.94780 0.28160 0.01250 0.01600
C 	C 	0.81780 0.92520 0.83890 0.05800
C 	C 	0.68610 0.81680 0.78990 -0.12900
C 	C 	0.69000 0.69960 0.73300 0.07200
C 	C 	0.94730 0.78920 0.76850 0.02500
C 	C 	0.95360 0.90960 0.82890 -0.14700
C 	C 	0.67310 0.69820 0.24670 0.05700
C 	C 	0.67170 0.81560 0.29790 -0.11900
C 	C 	0.80710 0.92380 0.34010 0.05600
C 	C 	0.94160 0.90700 0.33350 -0.15300
C 	C 	0.93190 0.78580 0.28230 0.02300
C 	C 	0.94800 0.27980 0.50320 0.03400
C 	C 	0.94790 0.16000 0.45010 -0.14500
C 	C 	0.81080 0.05300 0.39560 0.05600
C 	C 	0.68160 0.07280 0.39600 -0.11600
C 	C 	0.69040 0.19580 0.45070 0.07000
S 	S 	0.22268 0.61696 0.68840 0.69200
S 	S 	0.57714 0.37088 0.72320 0.73800
S 	S 	0.60572 0.38304 0.31160 0.69600
S 	S 	0.20626 0.62912 0.27680 0.73300
N 	N 	0.52500 0.70680 0.96880 -0.24700
N 	N 	0.13350 0.31540 0.28020 -0.21100
N 	N 	0.12210 0.31900 0.76190 -0.22200
N 	N 	0.52410 0.70140 0.49550 -0.23600
N 	N 	0.81820 0.29320 0.03120 -0.24200
N 	N 	0.81810 0.68460 0.71980 -0.23600
N 	N 	0.80310 0.68100 0.23810 -0.24400
N 	N 	0.82270 0.29860 0.50450 -0.23200
O 	O 	0.29830 0.54480 0.70510 -0.44700
O 	O 	0.30640 0.75160 0.76620 -0.31900
O 	O 	0.06740 0.57320 0.71000 -0.43200
O 	O 	0.21130 0.58560 0.56890 -0.41600
O 	O 	0.57380 0.40100 0.63150 -0.42100
O 	O 	0.50890 0.23460 0.67080 -0.31400
O 	O 	0.73570 0.42920 0.77620 -0.39700
O 	O 	0.49530 0.42800 0.80540 -0.47800
O 	O 	0.75350 0.45520 0.29490 -0.45500
O 	O 	0.55480 0.24840 0.23380 -0.32100
O 	O 	0.49420 0.42680 0.29000 -0.44600
O 	O 	0.62570 0.41440 0.43110 -0.42300
O 	O 	0.17280 0.59900 0.36850 -0.41200
O 	O 	0.27430 0.76540 0.32920 -0.31100
O 	O 	0.30650 0.57080 0.22380 -0.39000
O 	O 	0.06730 0.57200 0.19460 -0.46500
