data_crystal

_cell_length_a 7.33290
_cell_length_b 14.37200
_cell_length_c 18.07000
_cell_angle_alpha 90.00000
_cell_angle_beta  90.86900
_cell_angle_gamma 90.00000

_symmetry_space_group_name_	'P 1'
_symmetry_space_group_name_H-M	'P 1'

loop_
_symmetry_equiv_pos_as_xyz
  x,y,z

loop_
_atom_site_label
_atom_site_type_symbol
_atom_site_fract_x
_atom_site_fract_y
_atom_site_fract_z
_atom_site_charge
Mn	Mn	0.27072 0.56515 0.79612 1.16700
Mn	Mn	0.75014 0.19498 0.94535 1.16500
Mn	Mn	0.22928 0.06515 0.70388 1.16600
Mn	Mn	0.74986 0.69498 0.55465 1.16600
Mn	Mn	0.72928 0.43485 0.20388 1.16600
Mn	Mn	0.24986 0.80502 0.05465 1.16400
Mn	Mn	0.77072 0.93485 0.29612 1.16500
Mn	Mn	0.25014 0.30502 0.44535 1.16500
Mo	Mo	0.75624 0.33843 0.66654 1.06100
Mo	Mo	0.74376 0.83843 0.83346 1.06100
Mo	Mo	0.24376 0.66157 0.33347 1.06100
Mo	Mo	0.25624 0.16157 0.16654 1.06100
C 	C 	0.96360 0.42419 0.71723 -0.15700
C 	C 	0.80940 0.28766 0.77848 -0.16700
C 	C 	0.56510 0.41302 0.73463 -0.17000
C 	C 	0.54710 0.23423 0.68726 -0.16100
C 	C 	0.91090 0.21209 0.65495 -0.17900
C 	C 	0.59260 0.31606 0.56687 -0.16900
C 	C 	0.96100 0.34983 0.58201 -0.15800
C 	C 	0.71820 0.47655 0.61851 -0.14700
C 	C 	0.53640 0.92419 0.78277 -0.15700
C 	C 	0.69060 0.78766 0.72152 -0.16700
C 	C 	0.93490 0.91302 0.76537 -0.17100
C 	C 	0.95290 0.73423 0.81274 -0.16100
C 	C 	0.58910 0.71209 0.84505 -0.18000
C 	C 	0.90740 0.81606 0.93313 -0.16900
C 	C 	0.53900 0.84983 0.91799 -0.15800
C 	C 	0.78180 0.97655 0.88149 -0.14200
C 	C 	0.03640 0.57581 0.28277 -0.15700
C 	C 	0.19060 0.71234 0.22152 -0.16700
C 	C 	0.43490 0.58698 0.26537 -0.17000
C 	C 	0.45290 0.76577 0.31274 -0.16100
C 	C 	0.08910 0.78791 0.34505 -0.17900
C 	C 	0.40740 0.68394 0.43313 -0.16900
C 	C 	0.03900 0.65017 0.41799 -0.15800
C 	C 	0.28180 0.52345 0.38149 -0.14700
C 	C 	0.46360 0.07581 0.21723 -0.15700
C 	C 	0.30940 0.21234 0.27848 -0.16700
C 	C 	0.06510 0.08698 0.23463 -0.17100
C 	C 	0.04710 0.26577 0.18726 -0.16100
C 	C 	0.41090 0.28791 0.15495 -0.18000
C 	C 	0.09260 0.18394 0.06687 -0.16900
C 	C 	0.46100 0.15017 0.08201 -0.15800
C 	C 	0.21820 0.02345 0.11851 -0.14200
N 	N 	0.06850 0.47507 0.74214 -0.26400
N 	N 	0.83300 0.25900 0.83758 -0.27100
N 	N 	0.47400 0.45356 0.77424 -0.25800
N 	N 	0.43630 0.17940 0.69654 -0.26300
N 	N 	0.00440 0.14764 0.65193 -0.26700
N 	N 	0.50400 0.30594 0.51438 -0.26000
N 	N 	0.07400 0.35122 0.53784 -0.25500
N 	N 	0.70530 0.55026 0.59385 -0.25000
N 	N 	0.43150 0.97507 0.75786 -0.26300
N 	N 	0.66700 0.75900 0.66242 -0.27000
N 	N 	0.02600 0.95356 0.72576 -0.25600
N 	N 	0.06370 0.67940 0.80346 -0.26300
N 	N 	0.49560 0.64764 0.84807 -0.26500
N 	N 	0.99600 0.80594 0.98562 -0.25900
N 	N 	0.42600 0.85122 0.96216 -0.25300
N 	N 	0.79470 0.05026 0.90615 -0.25400
N 	N 	0.93150 0.52493 0.25786 -0.26400
N 	N 	0.16700 0.74100 0.16242 -0.27100
N 	N 	0.52600 0.54644 0.22576 -0.25800
N 	N 	0.56370 0.82060 0.30346 -0.26300
N 	N 	0.99560 0.85236 0.34807 -0.26700
N 	N 	0.49600 0.69406 0.48562 -0.26000
N 	N 	0.92600 0.64878 0.46216 -0.25500
N 	N 	0.29470 0.44974 0.40615 -0.25000
N 	N 	0.56850 0.02493 0.24214 -0.26300
N 	N 	0.33300 0.24100 0.33758 -0.27000
N 	N 	0.97400 0.04644 0.27424 -0.25600
N 	N 	0.93630 0.32060 0.19654 -0.26300
N 	N 	0.50440 0.35236 0.15193 -0.26500
N 	N 	0.00400 0.19406 0.01438 -0.25900
N 	N 	0.57400 0.14878 0.03784 -0.25300
N 	N 	0.20530 0.94974 0.09385 -0.25400
