data_crystal

_cell_length_a 17.10420
_cell_length_b 18.30520
_cell_length_c 20.23600
_cell_angle_alpha 75.30500
_cell_angle_beta  86.88200
_cell_angle_gamma 67.40900

_symmetry_space_group_name_	'P 1'
_symmetry_space_group_name_H-M	'P 1'

loop_
_symmetry_equiv_pos_as_xyz
  x,y,z

loop_
_atom_site_label
_atom_site_type_symbol
_atom_site_fract_x
_atom_site_fract_y
_atom_site_fract_z
_atom_site_charge
Cu	Cu	0.07860 0.15204 0.67788 0.80700
Cu	Cu	0.01278 0.30128 0.77457 0.80600
Cu	Cu	0.19708 0.29156 0.66860 0.80700
Cu	Cu	0.37374 0.69543 0.21973 0.81300
Cu	Cu	0.52600 0.65595 0.08125 0.80700
Cu	Cu	0.49860 0.18258 0.83481 0.80000
Cu	Cu	0.92140 0.84796 0.32212 0.80600
Cu	Cu	0.98722 0.69872 0.22543 0.80500
Cu	Cu	0.80292 0.70844 0.33140 0.80700
Cu	Cu	0.62626 0.30457 0.78027 0.81300
Cu	Cu	0.47400 0.34405 0.91875 0.80700
Cu	Cu	0.50140 0.81742 0.16519 0.80000
Mo	Mo	0.03572 0.31375 0.64154 0.91700
Mo	Mo	0.54229 0.65556 0.21161 0.92100
Mo	Mo	0.96428 0.68625 0.35846 0.91700
Mo	Mo	0.45771 0.34444 0.78839 0.92100
H 	H 	0.08950 0.97660 0.68990 0.01500
H 	H 	0.05830 0.91990 0.60490 0.05000
H 	H 	0.94920 0.13680 0.47010 0.06900
H 	H 	0.97070 0.19090 0.55700 -0.05100
H 	H 	0.22370 0.68570 0.30220 -0.00500
H 	H 	0.18360 0.60600 0.38840 0.03500
H 	H 	0.43170 0.46100 0.43220 0.06700
H 	H 	0.45940 0.55700 0.34320 -0.04600
H 	H 	0.16300 0.49740 0.44690 0.04600
H 	H 	0.13520 0.40810 0.53430 -0.06900
H 	H 	0.34480 0.34780 0.62940 -0.05800
H 	H 	0.39000 0.42680 0.54850 0.07600
H 	H 	0.33970 0.75760 0.06230 -0.04100
H 	H 	0.24410 0.85300 0.98290 0.06900
H 	H 	0.43290 0.84840 0.85090 0.07100
H 	H 	0.52350 0.75120 0.93500 -0.01500
H 	H 	0.16240 0.90570 0.87710 0.07000
H 	H 	0.07320 0.00910 0.78740 -0.02200
H 	H 	0.25080 0.09560 0.73770 -0.03200
H 	H 	0.34830 0.98970 0.81540 0.07700
H 	H 	0.70770 0.54670 0.08970 -0.02800
H 	H 	0.80830 0.47720 0.02600 0.06500
H 	H 	0.61860 0.51000 0.89400 0.07600
H 	H 	0.52710 0.57690 0.96090 -0.01400
H 	H 	0.87400 0.49570 0.91690 0.06700
H 	H 	0.97540 0.43020 0.84900 -0.01200
H 	H 	0.84260 0.30630 0.82140 -0.00800
H 	H 	0.73410 0.37550 0.88180 0.06200
H 	H 	0.31070 0.91750 0.15340 -0.01500
H 	H 	0.21130 0.01310 0.07450 0.06600
H 	H 	0.39000 0.02420 0.94210 0.06900
H 	H 	0.48940 0.91220 0.01930 -0.01200
H 	H 	0.13000 0.04730 0.96970 0.06900
H 	H 	0.03200 0.15050 0.89010 -0.00800
H 	H 	0.18980 0.26020 0.82770 -0.02900
H 	H 	0.29270 0.16290 0.90870 0.06600
H 	H 	0.91050 0.02340 0.31010 0.01500
H 	H 	0.94170 0.08010 0.39510 0.05000
H 	H 	0.05080 0.86320 0.52990 0.06900
H 	H 	0.02930 0.80910 0.44300 -0.05100
H 	H 	0.77630 0.31430 0.69780 -0.00500
H 	H 	0.81640 0.39400 0.61160 0.03500
H 	H 	0.56830 0.53900 0.56780 0.06700
H 	H 	0.54060 0.44300 0.65680 -0.04600
H 	H 	0.83700 0.50260 0.55310 0.04600
H 	H 	0.86480 0.59190 0.46570 -0.06900
H 	H 	0.65520 0.65220 0.37060 -0.05800
H 	H 	0.61000 0.57320 0.45150 0.07600
H 	H 	0.66030 0.24240 0.93770 -0.04100
H 	H 	0.75590 0.14700 0.01710 0.06900
H 	H 	0.56710 0.15160 0.14910 0.07100
H 	H 	0.47650 0.24880 0.06500 -0.01500
H 	H 	0.83760 0.09430 0.12290 0.07000
H 	H 	0.92680 0.99090 0.21260 -0.02200
H 	H 	0.74920 0.90440 0.26230 -0.03200
H 	H 	0.65170 0.01030 0.18460 0.07700
H 	H 	0.29230 0.45330 0.91030 -0.02800
H 	H 	0.19170 0.52280 0.97400 0.06500
H 	H 	0.38140 0.49000 0.10600 0.07600
H 	H 	0.47290 0.42310 0.03910 -0.01400
H 	H 	0.12600 0.50430 0.08310 0.06700
H 	H 	0.02460 0.56980 0.15100 -0.01200
H 	H 	0.15740 0.69370 0.17860 -0.00800
H 	H 	0.26590 0.62450 0.11820 0.06200
H 	H 	0.68930 0.08250 0.84660 -0.01500
H 	H 	0.78870 0.98690 0.92550 0.06600
H 	H 	0.61000 0.97580 0.05790 0.06900
H 	H 	0.51060 0.08780 0.98070 -0.01200
H 	H 	0.87000 0.95270 0.03030 0.06900
H 	H 	0.96800 0.84950 0.10990 -0.00800
H 	H 	0.81020 0.73980 0.17230 -0.02900
H 	H 	0.70730 0.83710 0.09130 0.06600
C 	C 	0.06500 0.00730 0.64600 -0.00400
C 	C 	0.04350 0.97730 0.59420 -0.07800
C 	C 	0.00400 0.01980 0.53140 0.03900
C 	C 	0.97700 0.10340 0.51300 -0.14200
C 	C 	0.99600 0.13320 0.56400 0.11100
C 	C 	0.26690 0.63740 0.32770 0.07100
C 	C 	0.24210 0.59320 0.38050 -0.12800
C 	C 	0.30300 0.52860 0.42310 0.04100
C 	C 	0.38730 0.50800 0.40700 -0.13500
C 	C 	0.40200 0.56320 0.35000 0.07900
C 	C 	0.28190 0.47070 0.48230 0.06500
C 	C 	0.20420 0.46500 0.48330 -0.16200
C 	C 	0.18800 0.41400 0.53660 0.09600
C 	C 	0.30750 0.37930 0.59040 0.13300
C 	C 	0.33620 0.42440 0.54320 -0.18600
C 	C 	0.35750 0.77590 0.01810 0.06000
C 	C 	0.30190 0.83330 0.97170 -0.12200
C 	C 	0.32360 0.86770 0.90530 0.04300
C 	C 	0.41180 0.83110 0.89390 -0.13100
C 	C 	0.46490 0.77220 0.94370 0.08100
C 	C 	0.26650 0.92980 0.85320 0.05300
C 	C 	0.18370 0.94170 0.84660 -0.13000
C 	C 	0.12870 0.00600 0.79570 0.08000
C 	C 	0.23450 0.05450 0.76640 0.06700
C 	C 	0.29220 0.99230 0.81130 -0.12600
C 	C 	0.69040 0.54140 0.04790 0.06000
C 	C 	0.75030 0.49850 0.01110 -0.12600
C 	C 	0.72730 0.48500 0.95000 0.04600
C 	C 	0.63900 0.51770 0.93340 -0.14000
C 	C 	0.58580 0.55870 0.97260 0.08000
C 	C 	0.79280 0.44170 0.90870 0.04900
C 	C 	0.86550 0.45730 0.89710 -0.12500
C 	C 	0.92620 0.41770 0.85680 0.06200
C 	C 	0.84860 0.34670 0.83990 0.06200
C 	C 	0.78440 0.38630 0.87740 -0.12500
C 	C 	0.32790 0.93710 0.10930 0.05000
C 	C 	0.26910 0.99570 0.06330 -0.11800
C 	C 	0.29010 0.03080 0.00080 0.05300
C 	C 	0.37270 0.00100 0.98490 -0.12400
C 	C 	0.43270 0.93520 0.03250 0.06100
C 	C 	0.22450 0.09500 0.94840 0.04300
C 	C 	0.14350 0.09060 0.94180 -0.11800
C 	C 	0.08650 0.15200 0.89330 0.05800
C 	C 	0.17740 0.21680 0.85690 0.04800
C 	C 	0.23960 0.15850 0.90550 -0.11700
C 	C 	0.36010 0.16830 0.75860 0.07300
C 	C 	0.20600 0.81700 0.14380 0.10600
C 	C 	0.93500 0.99270 0.35400 -0.00400
C 	C 	0.95650 0.02270 0.40580 -0.07800
C 	C 	0.99600 0.98020 0.46860 0.03900
C 	C 	0.02300 0.89660 0.48700 -0.14200
C 	C 	0.00400 0.86680 0.43600 0.11100
C 	C 	0.73310 0.36260 0.67230 0.07100
C 	C 	0.75790 0.40680 0.61950 -0.12800
C 	C 	0.69700 0.47140 0.57690 0.04100
C 	C 	0.61270 0.49200 0.59300 -0.13500
C 	C 	0.59800 0.43680 0.65000 0.07900
C 	C 	0.71810 0.52930 0.51770 0.06500
C 	C 	0.79580 0.53500 0.51670 -0.16200
C 	C 	0.81200 0.58600 0.46340 0.09600
C 	C 	0.69250 0.62070 0.40960 0.13300
C 	C 	0.66380 0.57560 0.45680 -0.18600
C 	C 	0.64250 0.22410 0.98190 0.06000
C 	C 	0.69810 0.16670 0.02830 -0.12200
C 	C 	0.67640 0.13230 0.09470 0.04300
C 	C 	0.58820 0.16890 0.10610 -0.13100
C 	C 	0.53510 0.22780 0.05630 0.08100
C 	C 	0.73350 0.07020 0.14680 0.05300
C 	C 	0.81630 0.05830 0.15340 -0.13000
C 	C 	0.87130 0.99400 0.20430 0.08000
C 	C 	0.76550 0.94550 0.23360 0.06700
C 	C 	0.70780 0.00770 0.18870 -0.12600
C 	C 	0.30960 0.45860 0.95210 0.06000
C 	C 	0.24970 0.50150 0.98890 -0.12600
C 	C 	0.27270 0.51500 0.05000 0.04600
C 	C 	0.36100 0.48230 0.06660 -0.14000
C 	C 	0.41420 0.44130 0.02740 0.08000
C 	C 	0.20720 0.55830 0.09130 0.04900
C 	C 	0.13450 0.54270 0.10290 -0.12500
C 	C 	0.07380 0.58230 0.14320 0.06200
C 	C 	0.15140 0.65330 0.16010 0.06200
C 	C 	0.21560 0.61370 0.12260 -0.12500
C 	C 	0.67210 0.06290 0.89070 0.05000
C 	C 	0.73090 0.00430 0.93670 -0.11800
C 	C 	0.70990 0.96920 0.99920 0.05300
C 	C 	0.62730 0.99900 0.01510 -0.12400
C 	C 	0.56730 0.06480 0.96750 0.06100
C 	C 	0.77550 0.90500 0.05160 0.04300
C 	C 	0.85650 0.90940 0.05820 -0.11800
C 	C 	0.91350 0.84800 0.10670 0.05800
C 	C 	0.82260 0.78320 0.14310 0.04800
C 	C 	0.76040 0.84150 0.09450 -0.11700
C 	C 	0.63990 0.83170 0.24140 0.07300
C 	C 	0.79400 0.18300 0.85620 0.10600
S 	S 	0.96280 0.24440 0.70800 -0.64400
S 	S 	0.15300 0.21950 0.61120 -0.63700
S 	S 	0.07780 0.37740 0.70720 -0.65600
S 	S 	0.46480 0.59950 0.16900 -0.65200
S 	S 	0.45240 0.75220 0.25910 -0.64700
S 	S 	0.59880 0.71770 0.12220 -0.64800
S 	S 	0.44120 0.09790 0.80280 -0.23600
S 	S 	0.11810 0.88760 0.09910 -0.08100
S 	S 	0.03720 0.75560 0.29200 -0.64400
S 	S 	0.84700 0.78050 0.38880 -0.63700
S 	S 	0.92220 0.62260 0.29280 -0.65600
S 	S 	0.53520 0.40050 0.83100 -0.65200
S 	S 	0.54760 0.24780 0.74090 -0.64700
S 	S 	0.40120 0.28230 0.87780 -0.64800
S 	S 	0.55880 0.90210 0.19720 -0.23600
S 	S 	0.88190 0.11240 0.90090 -0.08100
N 	N 	0.04230 0.09510 0.61670 -0.23500
N 	N 	0.34430 0.62250 0.30650 -0.23700
N 	N 	0.23700 0.37120 0.59200 -0.26000
N 	N 	0.44120 0.74180 0.00370 -0.24500
N 	N 	0.15460 0.06000 0.76090 -0.24300
N 	N 	0.60640 0.57760 0.02850 -0.23800
N 	N 	0.91870 0.36200 0.82810 -0.23800
N 	N 	0.41260 0.90410 0.09530 -0.24600
N 	N 	0.10070 0.21460 0.84940 -0.24500
N 	N 	0.30080 0.22340 0.72640 -0.27000
N 	N 	0.26330 0.77060 0.17420 -0.27200
N 	N 	0.95770 0.90490 0.38330 -0.23500
N 	N 	0.65570 0.37750 0.69350 -0.23700
N 	N 	0.76300 0.62880 0.40800 -0.26000
N 	N 	0.55880 0.25820 0.99630 -0.24500
N 	N 	0.84540 0.94000 0.23910 -0.24300
N 	N 	0.39360 0.42240 0.97150 -0.23800
N 	N 	0.08130 0.63800 0.17190 -0.23800
N 	N 	0.58740 0.09590 0.90470 -0.24600
N 	N 	0.89930 0.78540 0.15060 -0.24500
N 	N 	0.69920 0.77660 0.27360 -0.27000
N 	N 	0.73670 0.22940 0.82580 -0.27200
