data_crystal

_cell_length_a 12.06480
_cell_length_b 12.37870
_cell_length_c 12.51480
_cell_angle_alpha 90.00000
_cell_angle_beta  90.00000
_cell_angle_gamma 115.06900

_symmetry_space_group_name_	'P 1'
_symmetry_space_group_name_H-M	'P 1'

loop_
_symmetry_equiv_pos_as_xyz
  x,y,z

loop_
_atom_site_label
_atom_site_type_symbol
_atom_site_fract_x
_atom_site_fract_y
_atom_site_fract_z
_atom_site_charge
Sm	Sm	0.04033 0.35483 0.55075 1.96600
Sm	Sm	0.95967 0.14517 0.05075 1.93500
Sm	Sm	0.95967 0.64517 0.44925 1.96700
Sm	Sm	0.04033 0.85483 0.94925 1.93600
H 	H 	0.12960 0.17220 0.71760 0.33600
H 	H 	0.56630 0.24880 0.64560 0.07000
H 	H 	0.69950 0.07490 0.83850 0.06100
H 	H 	0.40450 0.17230 0.71770 0.08000
H 	H 	0.51210 0.94780 0.87010 0.08400
H 	H 	0.87040 0.32780 0.21760 0.33500
H 	H 	0.43370 0.25120 0.14560 0.07100
H 	H 	0.30050 0.42510 0.33850 0.05900
H 	H 	0.59550 0.32770 0.21770 0.07900
H 	H 	0.48790 0.55220 0.37010 0.08200
H 	H 	0.87040 0.82780 0.28240 0.33600
H 	H 	0.43370 0.75120 0.35440 0.07000
H 	H 	0.30050 0.92510 0.16150 0.06100
H 	H 	0.59550 0.82770 0.28230 0.08000
H 	H 	0.48790 0.05220 0.12990 0.08400
H 	H 	0.12960 0.67220 0.78240 0.33500
H 	H 	0.56630 0.74880 0.85440 0.07100
H 	H 	0.69950 0.57490 0.66150 0.05900
H 	H 	0.40450 0.67230 0.78230 0.07900
H 	H 	0.51210 0.44780 0.62990 0.08200
C 	C 	0.77580 0.39370 0.55230 0.34500
C 	C 	0.93510 0.17990 0.77280 0.43500
C 	C 	0.16450 0.05920 0.76890 0.40600
C 	C 	0.29160 0.80070 0.95540 0.33300
C 	C 	0.74690 0.29480 0.62940 -0.02400
C 	C 	0.63010 0.23220 0.67020 -0.05600
C 	C 	0.60780 0.14540 0.74690 0.01800
C 	C 	0.70870 0.12920 0.78410 -0.03300
C 	C 	0.82150 0.19390 0.73970 -0.05200
C 	C 	0.27190 0.03350 0.79220 -0.01900
C 	C 	0.38860 0.10450 0.75850 -0.06000
C 	C 	0.48220 0.07330 0.78610 0.04900
C 	C 	0.45190 0.97170 0.84930 -0.08000
C 	C 	0.33230 0.90710 0.88070 0.02100
C 	C 	0.22420 0.10630 0.05230 0.34300
C 	C 	0.06490 0.32010 0.27280 0.44300
C 	C 	0.83550 0.44080 0.26890 0.40000
C 	C 	0.70840 0.69930 0.45540 0.33500
C 	C 	0.25310 0.20520 0.12940 -0.02200
C 	C 	0.36990 0.26780 0.17020 -0.05700
C 	C 	0.39220 0.35460 0.24690 0.02000
C 	C 	0.29130 0.37080 0.28410 -0.03300
C 	C 	0.17850 0.30610 0.23970 -0.05300
C 	C 	0.72810 0.46650 0.29220 -0.02100
C 	C 	0.61140 0.39550 0.25850 -0.05700
C 	C 	0.51780 0.42670 0.28610 0.04500
C 	C 	0.54810 0.52830 0.34930 -0.07500
C 	C 	0.66770 0.59290 0.38070 0.02100
C 	C 	0.22420 0.60630 0.44770 0.34500
C 	C 	0.06490 0.82010 0.22720 0.43500
C 	C 	0.83550 0.94080 0.23110 0.40600
C 	C 	0.70840 0.19930 0.04460 0.33300
C 	C 	0.25310 0.70520 0.37060 -0.02400
C 	C 	0.36990 0.76780 0.32980 -0.05600
C 	C 	0.39220 0.85460 0.25310 0.01800
C 	C 	0.29130 0.87080 0.21590 -0.03300
C 	C 	0.17850 0.80610 0.26030 -0.05200
C 	C 	0.72810 0.96650 0.20780 -0.01900
C 	C 	0.61140 0.89550 0.24150 -0.06000
C 	C 	0.51780 0.92670 0.21390 0.04900
C 	C 	0.54810 0.02830 0.15070 -0.08000
C 	C 	0.66770 0.09290 0.11930 0.02100
C 	C 	0.77580 0.89370 0.94770 0.34300
C 	C 	0.93510 0.67990 0.72720 0.44300
C 	C 	0.16450 0.55920 0.73110 0.40000
C 	C 	0.29160 0.30070 0.54460 0.33500
C 	C 	0.74690 0.79480 0.87060 -0.02200
C 	C 	0.63010 0.73220 0.82980 -0.05700
C 	C 	0.60780 0.64540 0.75310 0.02000
C 	C 	0.70870 0.62920 0.71590 -0.03300
C 	C 	0.82150 0.69390 0.76030 -0.05300
C 	C 	0.27190 0.53350 0.70780 -0.02100
C 	C 	0.38860 0.60450 0.74150 -0.05700
C 	C 	0.48220 0.57330 0.71390 0.04500
C 	C 	0.45190 0.47170 0.65070 -0.07500
C 	C 	0.33230 0.40710 0.61930 0.02100
N 	N 	0.84120 0.27280 0.66020 -0.19400
N 	N 	0.24280 0.93690 0.85180 -0.19900
N 	N 	0.15880 0.22720 0.16020 -0.19000
N 	N 	0.75720 0.56310 0.35180 -0.19700
N 	N 	0.15880 0.72720 0.33980 -0.19400
N 	N 	0.75720 0.06310 0.14820 -0.19900
N 	N 	0.84120 0.77280 0.83980 -0.19000
N 	N 	0.24280 0.43690 0.64820 -0.19700
O 	O 	0.88130 0.42920 0.50470 -0.54800
O 	O 	0.70530 0.43890 0.54050 -0.31000
O 	O 	0.02110 0.21950 0.70400 -0.49300
O 	O 	0.93870 0.13570 0.85980 -0.49000
O 	O 	0.06090 0.98450 0.78520 -0.44500
O 	O 	0.19250 0.16490 0.73180 -0.52300
O 	O 	0.18140 0.76310 0.98770 -0.42300
O 	O 	0.36630 0.76140 0.97780 -0.24900
O 	O 	0.11870 0.07080 0.00470 -0.53800
O 	O 	0.29470 0.06110 0.04050 -0.30800
O 	O 	0.97890 0.28050 0.20400 -0.49600
O 	O 	0.06130 0.36430 0.35980 -0.49800
O 	O 	0.93910 0.51550 0.28520 -0.43900
O 	O 	0.80750 0.33510 0.23180 -0.52100
O 	O 	0.81860 0.73690 0.48770 -0.42200
O 	O 	0.63370 0.73860 0.47780 -0.24800
O 	O 	0.11870 0.57080 0.49530 -0.54800
O 	O 	0.29470 0.56110 0.45950 -0.31000
O 	O 	0.97890 0.78050 0.29600 -0.49300
O 	O 	0.06130 0.86430 0.14020 -0.49000
O 	O 	0.93910 0.01550 0.21480 -0.44500
O 	O 	0.80750 0.83510 0.26820 -0.52300
O 	O 	0.81860 0.23690 0.01230 -0.42300
O 	O 	0.63370 0.23860 0.02220 -0.24900
O 	O 	0.88130 0.92920 0.99530 -0.53800
O 	O 	0.70530 0.93890 0.95950 -0.30800
O 	O 	0.02110 0.71950 0.79600 -0.49600
O 	O 	0.93870 0.63570 0.64020 -0.49800
O 	O 	0.06090 0.48450 0.71480 -0.43900
O 	O 	0.19250 0.66490 0.76820 -0.52100
O 	O 	0.18140 0.26310 0.51230 -0.42200
O 	O 	0.36630 0.26140 0.52220 -0.24800
