data_crystal

_cell_length_a 12.13400
_cell_length_b 12.39100
_cell_length_c 12.72000
_cell_angle_alpha 90.00000
_cell_angle_beta  90.00000
_cell_angle_gamma 114.77700

_symmetry_space_group_name_	'P 1'
_symmetry_space_group_name_H-M	'P 1'

loop_
_symmetry_equiv_pos_as_xyz
  x,y,z

loop_
_atom_site_label
_atom_site_type_symbol
_atom_site_fract_x
_atom_site_fract_y
_atom_site_fract_z
_atom_site_charge
Ce	Ce	0.54490 0.85365 0.54661 2.12400
Ce	Ce	0.45510 0.64635 0.04661 2.12400
Ce	Ce	0.45510 0.14635 0.45339 2.12500
Ce	Ce	0.54490 0.35365 0.95339 2.12500
H 	H 	0.62100 0.67300 0.72200 0.23700
H 	H 	0.06790 0.75350 0.64540 0.07100
H 	H 	0.20160 0.57440 0.83640 0.06100
H 	H 	0.90540 0.67310 0.71630 0.07800
H 	H 	0.02050 0.45150 0.86900 0.08000
H 	H 	0.37900 0.82700 0.22200 0.23700
H 	H 	0.93210 0.74650 0.14540 0.07100
H 	H 	0.79840 0.92560 0.33640 0.06000
H 	H 	0.09460 0.82690 0.21630 0.07700
H 	H 	0.97950 0.04850 0.36900 0.07900
H 	H 	0.37900 0.32700 0.27800 0.23700
H 	H 	0.93210 0.24650 0.35460 0.07100
H 	H 	0.79840 0.42560 0.16360 0.06100
H 	H 	0.09460 0.32690 0.28370 0.07800
H 	H 	0.97950 0.54850 0.13100 0.08000
H 	H 	0.62100 0.17300 0.77800 0.23700
H 	H 	0.06790 0.25350 0.85460 0.07100
H 	H 	0.20160 0.07440 0.66360 0.06000
H 	H 	0.90540 0.17310 0.78370 0.07700
H 	H 	0.02050 0.95150 0.63100 0.07900
C 	C 	0.27850 0.89430 0.55120 0.31100
C 	C 	0.43490 0.67720 0.76750 0.40000
C 	C 	0.66700 0.55630 0.76600 0.32400
C 	C 	0.80180 0.30270 0.95400 0.31600
C 	C 	0.24790 0.79480 0.62840 -0.02300
C 	C 	0.13220 0.73500 0.66920 -0.04900
C 	C 	0.11070 0.64740 0.74530 0.02300
C 	C 	0.21050 0.62910 0.78120 -0.03300
C 	C 	0.32260 0.69210 0.73470 -0.05900
C 	C 	0.77490 0.53150 0.79070 -0.01500
C 	C 	0.89070 0.60430 0.75720 -0.05300
C 	C 	0.98580 0.57430 0.78480 0.04100
C 	C 	0.95830 0.47440 0.84780 -0.06200
C 	C 	0.83880 0.40820 0.87970 0.00700
C 	C 	0.72150 0.60570 0.05120 0.31100
C 	C 	0.56510 0.82280 0.26750 0.40000
C 	C 	0.33300 0.94370 0.26600 0.32200
C 	C 	0.19820 0.19730 0.45400 0.31700
C 	C 	0.75210 0.70520 0.12840 -0.02300
C 	C 	0.86780 0.76500 0.16920 -0.04900
C 	C 	0.88930 0.85260 0.24530 0.02300
C 	C 	0.78950 0.87090 0.28120 -0.03400
C 	C 	0.67740 0.80790 0.23470 -0.05900
C 	C 	0.22510 0.96850 0.29070 -0.01600
C 	C 	0.10930 0.89570 0.25720 -0.05200
C 	C 	0.01420 0.92570 0.28480 0.04000
C 	C 	0.04170 0.02560 0.34780 -0.06000
C 	C 	0.16120 0.09180 0.37970 0.00600
C 	C 	0.72150 0.10570 0.44880 0.31100
C 	C 	0.56510 0.32280 0.23250 0.40000
C 	C 	0.33300 0.44370 0.23400 0.32400
C 	C 	0.19820 0.69730 0.04600 0.31600
C 	C 	0.75210 0.20520 0.37160 -0.02300
C 	C 	0.86780 0.26500 0.33080 -0.04900
C 	C 	0.88930 0.35260 0.25470 0.02300
C 	C 	0.78950 0.37090 0.21880 -0.03300
C 	C 	0.67740 0.30790 0.26530 -0.05900
C 	C 	0.22510 0.46850 0.20930 -0.01500
C 	C 	0.10930 0.39570 0.24280 -0.05300
C 	C 	0.01420 0.42570 0.21520 0.04100
C 	C 	0.04170 0.52560 0.15220 -0.06200
C 	C 	0.16120 0.59180 0.12030 0.00700
C 	C 	0.27850 0.39430 0.94880 0.31100
C 	C 	0.43490 0.17720 0.73250 0.40000
C 	C 	0.66700 0.05630 0.73400 0.32200
C 	C 	0.80180 0.80270 0.54600 0.31700
C 	C 	0.24790 0.29480 0.87160 -0.02300
C 	C 	0.13220 0.23500 0.83080 -0.04900
C 	C 	0.11070 0.14740 0.75470 0.02300
C 	C 	0.21050 0.12910 0.71880 -0.03400
C 	C 	0.32260 0.19210 0.76530 -0.05900
C 	C 	0.77490 0.03150 0.70930 -0.01600
C 	C 	0.89070 0.10430 0.74280 -0.05200
C 	C 	0.98580 0.07430 0.71520 0.04000
C 	C 	0.95830 0.97440 0.65220 -0.06000
C 	C 	0.83880 0.90820 0.62030 0.00600
N 	N 	0.34118 0.77060 0.65733 -0.20200
N 	N 	0.74833 0.43510 0.84981 -0.20800
N 	N 	0.65882 0.72940 0.15733 -0.20200
N 	N 	0.25167 0.06490 0.34981 -0.20700
N 	N 	0.65882 0.22940 0.34267 -0.20200
N 	N 	0.25167 0.56490 0.15019 -0.20800
N 	N 	0.34118 0.27060 0.84267 -0.20200
N 	N 	0.74833 0.93510 0.65019 -0.20700
O 	O 	0.38098 0.92562 0.50257 -0.58400
O 	O 	0.21048 0.94401 0.54093 -0.31700
O 	O 	0.52007 0.71271 0.69933 -0.49700
O 	O 	0.43818 0.63356 0.85340 -0.50000
O 	O 	0.56332 0.48081 0.78408 -0.42200
O 	O 	0.69464 0.66090 0.72780 -0.38200
O 	O 	0.69334 0.26386 0.98901 -0.43000
O 	O 	0.87807 0.26470 0.97429 -0.23700
O 	O 	0.61902 0.57438 0.00257 -0.58300
O 	O 	0.78952 0.55599 0.04093 -0.31600
O 	O 	0.47993 0.78729 0.19933 -0.49800
O 	O 	0.56182 0.86644 0.35340 -0.50000
O 	O 	0.43668 0.01919 0.28408 -0.42100
O 	O 	0.30536 0.83910 0.22780 -0.38100
O 	O 	0.30666 0.23614 0.48901 -0.43000
O 	O 	0.12193 0.23530 0.47429 -0.23700
O 	O 	0.61902 0.07438 0.49743 -0.58400
O 	O 	0.78952 0.05599 0.45907 -0.31700
O 	O 	0.47993 0.28729 0.30067 -0.49700
O 	O 	0.56182 0.36644 0.14660 -0.50000
O 	O 	0.43668 0.51919 0.21592 -0.42200
O 	O 	0.30536 0.33910 0.27220 -0.38200
O 	O 	0.30666 0.73614 0.01099 -0.43000
O 	O 	0.12193 0.73530 0.02571 -0.23700
O 	O 	0.38098 0.42562 0.99743 -0.58300
O 	O 	0.21048 0.44401 0.95907 -0.31600
O 	O 	0.52007 0.21271 0.80067 -0.49800
O 	O 	0.43818 0.13356 0.64660 -0.50000
O 	O 	0.56332 0.98081 0.71592 -0.42100
O 	O 	0.69464 0.16090 0.77220 -0.38100
O 	O 	0.69334 0.76386 0.51099 -0.43000
O 	O 	0.87807 0.76470 0.52571 -0.23700
