data_crystal

_cell_length_a 12.12600
_cell_length_b 12.67870
_cell_length_c 21.56800
_cell_angle_alpha 82.75870
_cell_angle_beta  74.71700
_cell_angle_gamma 61.43180

_symmetry_space_group_name_	'P 1'
_symmetry_space_group_name_H-M	'P 1'

loop_
_symmetry_equiv_pos_as_xyz
  x,y,z

loop_
_atom_site_label
_atom_site_type_symbol
_atom_site_fract_x
_atom_site_fract_y
_atom_site_fract_z
_atom_site_charge
Ho	Ho	0.77001 0.73918 0.47434 1.72800
Ho	Ho	0.49081 0.73918 0.02566 1.72600
Ho	Ho	0.22999 0.26082 0.52566 1.72800
Ho	Ho	0.50919 0.26082 0.97434 1.72600
Ho	Ho	0.78513 0.42974 0.25000 1.41800
Ho	Ho	0.21487 0.57026 0.75000 1.41800
Ho	Ho	0.24693 0.50614 0.25000 1.79600
Ho	Ho	0.75307 0.49386 0.75000 1.79600
H 	H 	0.02890 0.87000 0.41440 0.04900
H 	H 	0.42000 0.70220 0.38040 0.05900
H 	H 	0.06420 0.04220 0.40520 0.05800
H 	H 	0.36620 0.80600 0.48100 0.06700
H 	H 	0.59470 0.87840 0.33560 0.06100
H 	H 	0.41820 0.06060 0.34610 0.06500
H 	H 	0.10110 0.87000 0.08560 0.04900
H 	H 	0.87780 0.70220 0.11960 0.05900
H 	H 	0.89360 0.04220 0.09480 0.05700
H 	H 	0.82780 0.80600 0.01900 0.06700
H 	H 	0.52690 0.87840 0.16440 0.06000
H 	H 	0.52120 0.06060 0.15390 0.06500
H 	H 	0.97110 0.13000 0.58560 0.04900
H 	H 	0.58000 0.29780 0.61960 0.05900
H 	H 	0.93580 0.95780 0.59480 0.05800
H 	H 	0.63380 0.19400 0.51900 0.06700
H 	H 	0.40530 0.12160 0.66440 0.06100
H 	H 	0.58180 0.93940 0.65390 0.06500
H 	H 	0.89890 0.13000 0.91440 0.04900
H 	H 	0.12220 0.29780 0.88040 0.05900
H 	H 	0.10640 0.95780 0.90520 0.05700
H 	H 	0.17220 0.19400 0.98100 0.06700
H 	H 	0.47310 0.12160 0.83560 0.06000
H 	H 	0.47880 0.93940 0.84610 0.06500
C 	C 	0.71730 0.63740 0.35230 0.40200
C 	C 	0.27870 0.30460 0.36140 0.40300
C 	C 	0.00470 0.71700 0.34780 0.38600
C 	C 	0.12160 0.72100 0.35990 -0.03500
C 	C 	0.11160 0.80880 0.39480 -0.04200
C 	C 	0.22280 0.80880 0.40160 0.00900
C 	C 	0.34130 0.71020 0.37470 -0.04800
C 	C 	0.34210 0.62580 0.34030 -0.01800
C 	C 	0.46220 0.51760 0.30440 0.37800
C 	C 	0.02870 0.24660 0.45700 0.34700
C 	C 	0.12630 0.11340 0.45860 -0.00800
C 	C 	0.12620 0.02360 0.42970 -0.06700
C 	C 	0.21660 0.90420 0.43600 0.03500
C 	C 	0.30440 0.88520 0.47340 -0.08700
C 	C 	0.29930 0.98140 0.49850 0.04900
C 	C 	0.37040 1.00000 0.54180 0.24400
C 	C 	0.65810 0.71580 0.29930 -0.02800
C 	C 	0.60010 0.83780 0.30000 -0.04500
C 	C 	0.35860 0.22280 0.30390 -0.02700
C 	C 	0.41940 0.10120 0.30590 -0.05100
C 	C 	0.64530 0.63740 0.14770 0.40200
C 	C 	0.41670 0.30460 0.13860 0.40300
C 	C 	0.27830 0.71700 0.15220 0.38700
C 	C 	0.15740 0.72100 0.14010 -0.03500
C 	C 	0.07960 0.80880 0.10520 -0.04300
C 	C 	0.96840 0.80880 0.09840 0.01000
C 	C 	0.94850 0.71020 0.12530 -0.04800
C 	C 	0.03210 0.62580 0.15970 -0.01900
C 	C 	0.02020 0.51760 0.19560 0.37800
C 	C 	0.72470 0.24660 0.04300 0.34600
C 	C 	0.76030 0.11340 0.04140 -0.00800
C 	C 	0.85020 0.02360 0.07030 -0.06600
C 	C 	0.87920 0.90420 0.06400 0.03400
C 	C 	0.81040 0.88520 0.02660 -0.08700
C 	C 	0.71930 0.98140 0.00150 0.04800
C 	C 	0.62960 0.00000 0.95820 0.24100
C 	C 	0.62610 0.71580 0.20070 -0.02800
C 	C 	0.56210 0.83780 0.20000 -0.04600
C 	C 	0.41860 0.22280 0.19610 -0.02700
C 	C 	0.47940 0.10120 0.19410 -0.05100
C 	C 	0.28270 0.36260 0.64770 0.40200
C 	C 	0.72130 0.69540 0.63860 0.40300
C 	C 	0.99530 0.28300 0.65220 0.38600
C 	C 	0.87840 0.27900 0.64010 -0.03500
C 	C 	0.88840 0.19120 0.60520 -0.04200
C 	C 	0.77720 0.19120 0.59840 0.00900
C 	C 	0.65870 0.28980 0.62530 -0.04800
C 	C 	0.65790 0.37420 0.65970 -0.01800
C 	C 	0.53780 0.48240 0.69560 0.37800
C 	C 	0.97130 0.75340 0.54300 0.34700
C 	C 	0.87370 0.88660 0.54140 -0.00800
C 	C 	0.87380 0.97640 0.57030 -0.06700
C 	C 	0.78340 0.09580 0.56400 0.03500
C 	C 	0.69560 0.11480 0.52660 -0.08700
C 	C 	0.70070 0.01860 0.50150 0.04900
C 	C 	0.62960 0.00000 0.45820 0.24400
C 	C 	0.34190 0.28420 0.70070 -0.02800
C 	C 	0.39990 0.16220 0.70000 -0.04500
C 	C 	0.64140 0.77720 0.69610 -0.02700
C 	C 	0.58060 0.89880 0.69410 -0.05100
C 	C 	0.35470 0.36260 0.85230 0.40200
C 	C 	0.58330 0.69540 0.86140 0.40300
C 	C 	0.72170 0.28300 0.84780 0.38700
C 	C 	0.84260 0.27900 0.85990 -0.03500
C 	C 	0.92040 0.19120 0.89480 -0.04300
C 	C 	0.03160 0.19120 0.90160 0.01000
C 	C 	0.05150 0.28980 0.87470 -0.04800
C 	C 	0.96790 0.37420 0.84030 -0.01900
C 	C 	0.97980 0.48240 0.80440 0.37800
C 	C 	0.27530 0.75340 0.95700 0.34600
C 	C 	0.23970 0.88660 0.95860 -0.00800
C 	C 	0.14980 0.97640 0.92970 -0.06600
C 	C 	0.12080 0.09580 0.93600 0.03400
C 	C 	0.18960 0.11480 0.97340 -0.08700
C 	C 	0.28070 0.01860 0.99850 0.04800
C 	C 	0.37040 1.00000 0.04180 0.24100
C 	C 	0.37390 0.28420 0.79930 -0.02800
C 	C 	0.43790 0.16220 0.80000 -0.04600
C 	C 	0.58140 0.77720 0.80390 -0.02700
C 	C 	0.52060 0.89880 0.80590 -0.05100
C 	C 	0.54880 0.90240 0.25000 0.01600
C 	C 	0.48120 0.03760 0.25000 0.02400
C 	C 	0.45120 0.09760 0.75000 0.01600
C 	C 	0.51880 0.96240 0.75000 0.02400
N 	N 	0.23440 0.63280 0.33070 -0.18800
N 	N 	0.21080 0.08920 0.49380 -0.19300
N 	N 	0.13280 0.63280 0.16930 -0.18800
N 	N 	0.70000 0.08920 0.00620 -0.19100
N 	N 	0.76560 0.36720 0.66930 -0.18800
N 	N 	0.78920 0.91080 0.50620 -0.19300
N 	N 	0.86720 0.36720 0.83070 -0.18800
N 	N 	0.30000 0.91080 0.99380 -0.19100
N 	N 	0.67260 0.65480 0.25000 -0.15300
N 	N 	0.35760 0.28480 0.25000 -0.18700
N 	N 	0.32740 0.34520 0.75000 -0.15300
N 	N 	0.64240 0.71520 0.75000 -0.18700
O 	O 	0.03120 0.64960 0.30200 -0.42900
O 	O 	0.89610 0.77700 0.38190 -0.45900
O 	O 	0.44830 0.45140 0.27430 -0.45400
O 	O 	0.56920 0.50960 0.31000 -0.42100
O 	O 	0.04150 0.31460 0.48930 -0.43700
O 	O 	0.95270 0.27860 0.42300 -0.28800
O 	O 	0.39820 0.09060 0.53360 -0.42000
O 	O 	0.38670 0.90660 0.58150 -0.23100
O 	O 	0.77890 0.52680 0.34260 -0.41500
O 	O 	0.69050 0.69060 0.40410 -0.47900
O 	O 	0.21810 0.41400 0.35250 -0.46000
O 	O 	0.28770 0.25040 0.41480 -0.46600
O 	O 	0.31920 0.64960 0.19800 -0.42900
O 	O 	0.32690 0.77700 0.11810 -0.46000
O 	O 	0.10030 0.45140 0.22570 -0.45400
O 	O 	0.92120 0.50960 0.19000 -0.42100
O 	O 	0.64390 0.31460 0.01070 -0.43600
O 	O 	0.76870 0.27860 0.07700 -0.28700
O 	O 	0.51120 0.09060 0.96640 -0.42000
O 	O 	0.70670 0.90660 0.91850 -0.22800
O 	O 	0.69430 0.52680 0.15740 -0.41500
O 	O 	0.61890 0.69060 0.09590 -0.47900
O 	O 	0.36790 0.41400 0.14750 -0.45900
O 	O 	0.46190 0.25040 0.08520 -0.46500
O 	O 	0.96880 0.35040 0.69800 -0.42900
O 	O 	0.10390 0.22300 0.61810 -0.45900
O 	O 	0.55170 0.54860 0.72570 -0.45400
O 	O 	0.43080 0.49040 0.69000 -0.42100
O 	O 	0.95850 0.68540 0.51070 -0.43700
O 	O 	0.04730 0.72140 0.57700 -0.28800
O 	O 	0.60180 0.90940 0.46640 -0.42000
O 	O 	0.61330 0.09340 0.41850 -0.23100
O 	O 	0.22110 0.47320 0.65740 -0.41500
O 	O 	0.30950 0.30940 0.59590 -0.47900
O 	O 	0.78190 0.58600 0.64750 -0.46000
O 	O 	0.71230 0.74960 0.58520 -0.46600
O 	O 	0.68080 0.35040 0.80200 -0.42900
O 	O 	0.67310 0.22300 0.88190 -0.46000
O 	O 	0.89970 0.54860 0.77430 -0.45400
O 	O 	0.07880 0.49040 0.81000 -0.42100
O 	O 	0.35610 0.68540 0.98930 -0.43600
O 	O 	0.23130 0.72140 0.92300 -0.28700
O 	O 	0.48880 0.90940 0.03360 -0.42000
O 	O 	0.29330 0.09340 0.08150 -0.22800
O 	O 	0.30570 0.47320 0.84260 -0.41500
O 	O 	0.38110 0.30940 0.90410 -0.47900
O 	O 	0.63210 0.58600 0.85250 -0.45900
O 	O 	0.53810 0.74960 0.91480 -0.46500
