data_crystal

_cell_length_a 12.10250
_cell_length_b 12.68050
_cell_length_c 21.69500
_cell_angle_alpha 82.75900
_cell_angle_beta  74.68500
_cell_angle_gamma 61.49670

_symmetry_space_group_name_	'P 1'
_symmetry_space_group_name_H-M	'P 1'

loop_
_symmetry_equiv_pos_as_xyz
  x,y,z

loop_
_atom_site_label
_atom_site_type_symbol
_atom_site_fract_x
_atom_site_fract_y
_atom_site_fract_z
_atom_site_charge
Dy	Dy	0.50848 0.26032 0.47428 1.72600
Dy	Dy	0.23120 0.26032 0.02572 1.72100
Dy	Dy	0.49152 0.73968 0.52572 1.72700
Dy	Dy	0.76880 0.73968 0.97428 1.72200
Dy	Dy	0.75308 0.49384 0.25000 1.83400
Dy	Dy	0.24692 0.50616 0.75000 1.83400
Dy	Dy	0.21334 0.57332 0.25000 1.44300
Dy	Dy	0.78666 0.42668 0.75000 1.44300
H 	H 	0.89900 0.12940 0.41480 0.04900
H 	H 	0.12190 0.30080 0.38040 0.05700
H 	H 	0.10410 0.95900 0.40710 0.05800
H 	H 	0.16950 0.19560 0.48200 0.05500
H 	H 	0.47410 0.12000 0.33620 0.06500
H 	H 	0.47300 0.94280 0.34540 0.06200
H 	H 	0.97160 0.12940 0.08520 0.05000
H 	H 	0.57730 0.30080 0.11960 0.05700
H 	H 	0.93690 0.95900 0.09290 0.05700
H 	H 	0.63490 0.19560 0.01800 0.05400
H 	H 	0.40590 0.12000 0.16380 0.06500
H 	H 	0.58420 0.94280 0.15460 0.06200
H 	H 	0.10100 0.87060 0.58520 0.04900
H 	H 	0.87810 0.69920 0.61960 0.05700
H 	H 	0.89590 0.04100 0.59290 0.05800
H 	H 	0.83050 0.80440 0.51800 0.05500
H 	H 	0.52590 0.88000 0.66380 0.06500
H 	H 	0.52700 0.05720 0.65460 0.06200
H 	H 	0.02840 0.87060 0.91480 0.05000
H 	H 	0.42270 0.69920 0.88040 0.05700
H 	H 	0.06310 0.04100 0.90710 0.05700
H 	H 	0.36510 0.80440 0.98200 0.05400
H 	H 	0.59410 0.88000 0.83620 0.06500
H 	H 	0.41580 0.05720 0.84540 0.06200
C 	C 	0.35280 0.36460 0.35190 0.40700
C 	C 	0.58280 0.69840 0.36230 0.41700
C 	C 	0.72200 0.28420 0.34700 0.37100
C 	C 	0.84260 0.27860 0.35950 -0.03500
C 	C 	0.91970 0.19120 0.39520 -0.04200
C 	C 	0.03030 0.19460 0.40210 0.00900
C 	C 	0.05120 0.29220 0.37500 -0.04800
C 	C 	0.96670 0.37540 0.34030 -0.02600
C 	C 	0.98350 0.48100 0.30640 0.38300
C 	C 	0.27660 0.75680 0.45600 0.31700
C 	C 	0.23950 0.88900 0.45860 -0.00500
C 	C 	0.14800 0.97800 0.43050 -0.07100
C 	C 	0.12070 0.09740 0.43640 0.03300
C 	C 	0.18790 0.11620 0.47370 -0.07700
C 	C 	0.28210 0.01980 0.49820 0.01700
C 	C 	0.38340 0.02740 0.52410 0.28600
C 	C 	0.37410 0.28580 0.29980 -0.03500
C 	C 	0.43870 0.16140 0.30090 -0.04400
C 	C 	0.58150 0.77900 0.30410 -0.03800
C 	C 	0.51680 0.90240 0.30560 -0.04800
C 	C 	0.28260 0.36460 0.14810 0.40700
C 	C 	0.71880 0.69840 0.13770 0.41700
C 	C 	0.99380 0.28420 0.15300 0.37300
C 	C 	0.87880 0.27860 0.14050 -0.03500
C 	C 	0.88910 0.19120 0.10480 -0.04300
C 	C 	0.77510 0.19460 0.09790 0.01100
C 	C 	0.65660 0.29220 0.12500 -0.04800
C 	C 	0.65790 0.37540 0.15970 -0.02600
C 	C 	0.53550 0.48100 0.19360 0.38200
C 	C 	0.96660 0.75680 0.04400 0.32000
C 	C 	0.87150 0.88900 0.04140 -0.00600
C 	C 	0.87400 0.97800 0.06950 -0.06600
C 	C 	0.78190 0.09740 0.06360 0.02900
C 	C 	0.69590 0.11620 0.02630 -0.07400
C 	C 	0.69810 0.01980 0.00180 0.01200
C 	C 	0.58920 0.02740 0.97590 0.29000
C 	C 	0.34010 0.28580 0.20020 -0.03500
C 	C 	0.39990 0.16140 0.19910 -0.04400
C 	C 	0.63950 0.77900 0.19590 -0.03800
C 	C 	0.58080 0.90240 0.19440 -0.04800
C 	C 	0.64720 0.63540 0.64810 0.40700
C 	C 	0.41720 0.30160 0.63770 0.41700
C 	C 	0.27800 0.71580 0.65300 0.37100
C 	C 	0.15740 0.72140 0.64050 -0.03500
C 	C 	0.08030 0.80880 0.60480 -0.04200
C 	C 	0.96970 0.80540 0.59790 0.00900
C 	C 	0.94880 0.70780 0.62500 -0.04800
C 	C 	0.03330 0.62460 0.65970 -0.02600
C 	C 	0.01650 0.51900 0.69360 0.38300
C 	C 	0.72340 0.24320 0.54400 0.31700
C 	C 	0.76050 0.11100 0.54140 -0.00500
C 	C 	0.85200 0.02200 0.56950 -0.07100
C 	C 	0.87930 0.90260 0.56360 0.03300
C 	C 	0.81210 0.88380 0.52630 -0.07700
C 	C 	0.71790 0.98020 0.50180 0.01700
C 	C 	0.61660 0.97260 0.47590 0.28600
C 	C 	0.62590 0.71420 0.70020 -0.03500
C 	C 	0.56130 0.83860 0.69910 -0.04400
C 	C 	0.41850 0.22100 0.69590 -0.03800
C 	C 	0.48320 0.09760 0.69440 -0.04800
C 	C 	0.71740 0.63540 0.85190 0.40700
C 	C 	0.28120 0.30160 0.86230 0.41700
C 	C 	0.00620 0.71580 0.84700 0.37300
C 	C 	0.12120 0.72140 0.85950 -0.03500
C 	C 	0.11090 0.80880 0.89520 -0.04300
C 	C 	0.22490 0.80540 0.90210 0.01100
C 	C 	0.34340 0.70780 0.87500 -0.04800
C 	C 	0.34210 0.62460 0.84030 -0.02600
C 	C 	0.46450 0.51900 0.80640 0.38200
C 	C 	0.03340 0.24320 0.95600 0.32000
C 	C 	0.12850 0.11100 0.95860 -0.00600
C 	C 	0.12600 0.02200 0.93050 -0.06600
C 	C 	0.21810 0.90260 0.93640 0.02900
C 	C 	0.30410 0.88380 0.97370 -0.07400
C 	C 	0.30190 0.98020 0.99820 0.01200
C 	C 	0.41080 0.97260 0.02410 0.29000
C 	C 	0.65990 0.71420 0.79980 -0.03500
C 	C 	0.60010 0.83860 0.80090 -0.04400
C 	C 	0.36050 0.22100 0.80410 -0.03800
C 	C 	0.41920 0.09760 0.80560 -0.04800
C 	C 	0.45090 0.09820 0.25000 0.01600
C 	C 	0.51590 0.96820 0.25000 0.01800
C 	C 	0.54910 0.90180 0.75000 0.01600
C 	C 	0.48410 0.03180 0.75000 0.01800
N 	N 	0.86700 0.36740 0.33160 -0.18800
N 	N 	0.30040 0.91200 0.49370 -0.18400
N 	N 	0.76560 0.36740 0.16840 -0.18800
N 	N 	0.78760 0.91200 0.00630 -0.18000
N 	N 	0.13300 0.63260 0.66840 -0.18800
N 	N 	0.69960 0.08800 0.50630 -0.18400
N 	N 	0.23440 0.63260 0.83160 -0.18800
N 	N 	0.21240 0.08800 0.99370 -0.18000
N 	N 	0.32750 0.34500 0.25000 -0.15000
N 	N 	0.64170 0.71660 0.25000 -0.18700
N 	N 	0.67250 0.65500 0.75000 -0.15000
N 	N 	0.35830 0.28340 0.75000 -0.18700
O 	O 	0.68040 0.35120 0.30170 -0.43300
O 	O 	0.67450 0.22180 0.38150 -0.43700
O 	O 	0.89990 0.54820 0.27530 -0.45300
O 	O 	0.07670 0.49380 0.31100 -0.44100
O 	O 	0.35330 0.68540 0.48980 -0.42100
O 	O 	0.22650 0.72500 0.42340 -0.27400
O 	O 	0.41110 0.94580 0.56950 -0.31700
O 	O 	0.43150 0.10500 0.50270 -0.34200
O 	O 	0.30540 0.47460 0.34220 -0.42200
O 	O 	0.38180 0.30980 0.40290 -0.48000
O 	O 	0.62930 0.58840 0.35240 -0.46400
O 	O 	0.53560 0.75180 0.41340 -0.47600
O 	O 	0.96840 0.35120 0.19830 -0.43300
O 	O 	0.10370 0.22180 0.11850 -0.43900
O 	O 	0.55190 0.54820 0.22470 -0.45300
O 	O 	0.42950 0.49380 0.18900 -0.44000
O 	O 	0.96130 0.68540 0.01020 -0.42000
O 	O 	0.04850 0.72500 0.07660 -0.27600
O 	O 	0.64310 0.94580 0.93050 -0.31900
O 	O 	0.46350 0.10500 0.99730 -0.34100
O 	O 	0.22000 0.47460 0.15780 -0.42300
O 	O 	0.30840 0.30980 0.09710 -0.47900
O 	O 	0.78230 0.58840 0.14760 -0.46400
O 	O 	0.71260 0.75180 0.08660 -0.47500
O 	O 	0.31960 0.64880 0.69830 -0.43300
O 	O 	0.32550 0.77820 0.61850 -0.43700
O 	O 	0.10010 0.45180 0.72470 -0.45300
O 	O 	0.92330 0.50620 0.68900 -0.44100
O 	O 	0.64670 0.31460 0.51020 -0.42100
O 	O 	0.77350 0.27500 0.57660 -0.27400
O 	O 	0.58890 0.05420 0.43050 -0.31700
O 	O 	0.56850 0.89500 0.49730 -0.34200
O 	O 	0.69460 0.52540 0.65780 -0.42200
O 	O 	0.61820 0.69020 0.59710 -0.48000
O 	O 	0.37070 0.41160 0.64760 -0.46400
O 	O 	0.46440 0.24820 0.58660 -0.47600
O 	O 	0.03160 0.64880 0.80170 -0.43300
O 	O 	0.89630 0.77820 0.88150 -0.43900
O 	O 	0.44810 0.45180 0.77530 -0.45300
O 	O 	0.57050 0.50620 0.81100 -0.44000
O 	O 	0.03870 0.31460 0.98980 -0.42000
O 	O 	0.95150 0.27500 0.92340 -0.27600
O 	O 	0.35690 0.05420 0.06950 -0.31900
O 	O 	0.53650 0.89500 0.00270 -0.34100
O 	O 	0.78000 0.52540 0.84220 -0.42300
O 	O 	0.69160 0.69020 0.90290 -0.47900
O 	O 	0.21770 0.41160 0.85240 -0.46400
O 	O 	0.28740 0.24820 0.91340 -0.47500
