data_crystal

_cell_length_a 12.78900
_cell_length_b 12.78900
_cell_length_c 12.78900
_cell_angle_alpha 90.00000
_cell_angle_beta  90.00000
_cell_angle_gamma 90.00000

_symmetry_space_group_name_	'P 1'
_symmetry_space_group_name_H-M	'P 1'

loop_
_symmetry_equiv_pos_as_xyz
  x,y,z

loop_
_atom_site_label
_atom_site_type_symbol
_atom_site_fract_x
_atom_site_fract_y
_atom_site_fract_z
_atom_site_charge
Cs	Cs	0.50000 0.50000 0.50000 0.69900
Cs	Cs	0.50000 0.00000 -0.00000 0.66300
Cs	Cs	-0.00000 0.50000 -0.00000 0.66300
Cs	Cs	0.00000 0.00000 0.50000 0.66300
Cr	Cr	0.00000 0.50000 0.50000 1.46300
Cr	Cr	-0.00000 0.00000 -0.00000 1.43400
Cr	Cr	0.50000 0.00000 0.50000 1.46300
Cr	Cr	0.50000 0.50000 -0.00000 1.46300
N 	N 	0.25080 0.50000 0.50000 -0.08700
C 	C 	0.16120 0.50000 0.50000 -0.25000
N 	N 	0.25080 0.00000 -0.00000 -0.11700
C 	C 	0.16120 0.00000 -0.00000 -0.32200
N 	N 	0.75080 0.50000 -0.00000 -0.07400
C 	C 	0.66120 0.50000 -0.00000 -0.26900
N 	N 	0.75080 0.00000 0.50000 -0.07400
C 	C 	0.66120 0.00000 0.50000 -0.26900
N 	N 	0.74920 0.50000 0.50000 -0.08800
C 	C 	0.83880 0.50000 0.50000 -0.16000
N 	N 	0.74920 0.00000 -0.00000 -0.11800
C 	C 	0.83880 0.00000 -0.00000 -0.22700
N 	N 	0.24920 0.50000 -0.00000 -0.10500
C 	C 	0.33880 0.50000 -0.00000 -0.28600
N 	N 	0.24920 0.00000 0.50000 -0.10500
C 	C 	0.33880 0.00000 0.50000 -0.28600
N 	N 	0.50000 0.25080 0.50000 -0.08700
C 	C 	0.50000 0.16120 0.50000 -0.25000
N 	N 	0.50000 0.75080 -0.00000 -0.07400
C 	C 	0.50000 0.66120 -0.00000 -0.26900
N 	N 	-0.00000 0.25080 -0.00000 -0.11700
C 	C 	-0.00000 0.16120 -0.00000 -0.32200
N 	N 	-0.00000 0.75080 0.50000 -0.07400
C 	C 	0.00000 0.66120 0.50000 -0.26900
N 	N 	0.50000 0.74920 0.50000 -0.08800
C 	C 	0.50000 0.83880 0.50000 -0.16000
N 	N 	0.50000 0.24920 -0.00000 -0.10500
C 	C 	0.50000 0.33880 -0.00000 -0.28600
N 	N 	-0.00000 0.74920 -0.00000 -0.11800
C 	C 	0.00000 0.83880 -0.00000 -0.22700
N 	N 	0.00000 0.24920 0.50000 -0.10500
C 	C 	-0.00000 0.33880 0.50000 -0.28600
N 	N 	0.50000 0.50000 0.25080 -0.08700
C 	C 	0.50000 0.50000 0.16120 -0.25000
N 	N 	0.50000 -0.00000 0.75080 -0.07400
C 	C 	0.50000 0.00000 0.66120 -0.26900
N 	N 	-0.00000 0.50000 0.75080 -0.07400
C 	C 	-0.00000 0.50000 0.66120 -0.26900
N 	N 	0.00000 0.00000 0.25080 -0.11700
C 	C 	-0.00000 -0.00000 0.16120 -0.32200
N 	N 	0.50000 0.50000 0.74920 -0.08800
C 	C 	0.50000 0.50000 0.83880 -0.16000
N 	N 	0.50000 0.00000 0.24920 -0.10500
C 	C 	0.50000 -0.00000 0.33880 -0.28600
N 	N 	0.00000 0.50000 0.24920 -0.10500
C 	C 	-0.00000 0.50000 0.33880 -0.28600
N 	N 	-0.00000 0.00000 0.74920 -0.11800
C 	C 	0.00000 0.00000 0.83880 -0.22700
