data_crystal

_cell_length_a 7.28900
_cell_length_b 10.52500
_cell_length_c 5.98700
_cell_angle_alpha 92.16000
_cell_angle_beta  102.74000
_cell_angle_gamma 92.84000

_symmetry_space_group_name_	'P 1'
_symmetry_space_group_name_H-M	'P 1'

loop_
_symmetry_equiv_pos_as_xyz
  x,y,z

loop_
_atom_site_label
_atom_site_type_symbol
_atom_site_fract_x
_atom_site_fract_y
_atom_site_fract_z
_atom_site_charge
Cs	Cs	0.53640 0.23680 0.25110 0.70700
C 	C 	0.10800 0.50500 0.01600 0.21800
C 	C 	0.20500 0.09600 0.64300 0.19800
C 	C 	0.07600 0.17800 0.46900 0.28100
Mn	Mn	0.98960 0.23180 0.92620 1.29800
O 	O 	0.18600 0.40200 0.00400 -0.42200
O 	O 	0.19000 0.61400 0.04600 -0.43700
O 	O 	0.19800 0.11000 0.84600 -0.39000
O 	O 	0.30500 0.02000 0.56100 -0.25500
O 	O 	0.09100 0.17400 0.26700 -0.43200
O 	O 	0.96400 0.24200 0.55300 -0.44000
O 	O 	0.75300 0.09100 0.87600 -0.32500
Cs	Cs	0.46360 0.76320 0.74890 0.70600
C 	C 	0.89200 0.49500 0.98400 0.21700
C 	C 	0.79500 0.90400 0.35700 0.19800
C 	C 	0.92400 0.82200 0.53100 0.28100
Mn	Mn	0.01040 0.76820 0.07380 1.29800
O 	O 	0.81400 0.59800 0.99600 -0.42200
O 	O 	0.81000 0.38600 0.95400 -0.43700
O 	O 	0.80200 0.89000 0.15400 -0.39000
O 	O 	0.69500 0.98000 0.43900 -0.25500
O 	O 	0.90900 0.82600 0.73300 -0.43200
O 	O 	0.03600 0.75800 0.44700 -0.44000
O 	O 	0.24700 0.90900 0.12400 -0.32500
