data_crystal

_cell_length_a 23.28600
_cell_length_b 17.25770
_cell_length_c 18.22210
_cell_angle_alpha 90.00000
_cell_angle_beta  126.66100
_cell_angle_gamma 90.00000

_symmetry_space_group_name_	'P 1'
_symmetry_space_group_name_H-M	'P 1'

loop_
_symmetry_equiv_pos_as_xyz
  x,y,z

loop_
_atom_site_label
_atom_site_type_symbol
_atom_site_fract_x
_atom_site_fract_y
_atom_site_fract_z
_atom_site_charge
Cd	Cd	0.22509 0.14002 0.21835 1.21200
Cd	Cd	0.28662 0.38197 0.27787 1.21200
N 	N 	0.10170 0.17640 0.14100 -0.15700
N 	N 	0.03930 0.13900 0.08670 -0.05300
N 	N 	0.30720 0.39800 0.16320 -0.15700
N 	N 	0.31310 0.35580 0.10550 -0.05300
O 	O 	0.15050 0.37230 0.13500 -0.33800
O 	O 	0.21670 0.27330 0.22230 -0.52800
O 	O 	0.28290 0.51110 0.24510 -0.51400
O 	O 	0.27150 0.60120 0.15100 -0.36800
O 	O 	0.27980 0.41960 0.89410 -0.42400
O 	O 	0.30960 0.30160 0.95000 -0.32700
O 	O 	0.90370 0.09030 0.91940 -0.38700
O 	O 	0.87290 0.21120 0.88460 -0.40300
C 	C 	0.00810 0.00210 0.21840 -0.07900
H 	H 	0.01480 0.95480 0.20000 0.06500
C 	C 	0.00710 0.13400 0.21660 -0.07600
H 	H 	0.01150 0.18080 0.19500 0.07100
C 	C 	0.01410 0.06580 0.18480 0.08800
C 	C 	0.03000 0.06260 0.11510 -0.16400
H 	H 	0.07340 0.03260 0.14080 0.08300
H 	H 	0.99130 0.03540 0.06120 0.10600
C 	C 	0.98820 0.18840 0.01600 -0.04100
C 	C 	0.02270 0.25800 0.03110 -0.00400
H 	H 	0.00330 0.30280 0.99620 0.04000
C 	C 	0.09230 0.24760 0.10920 -0.03600
C 	C 	0.28060 0.53110 0.17600 0.29600
C 	C 	0.15670 0.30270 0.15780 0.29400
C 	C 	0.29680 0.36930 0.95480 0.31200
C 	C 	0.29720 0.39930 0.03180 -0.03400
C 	C 	0.28390 0.47250 0.04640 0.00600
H 	H 	0.27370 0.51570 0.00980 0.03800
C 	C 	0.28860 0.47070 0.12710 -0.05200
C 	C 	0.91740 0.15890 0.93670 0.31400
C 	C 	0.34210 0.27570 0.13190 -0.14000
H 	H 	0.32480 0.24570 0.07730 0.09800
H 	H 	0.32540 0.25110 0.16370 0.05300
C 	C 	0.42430 0.27660 0.19400 0.06600
C 	C 	0.46160 0.27450 0.15540 -0.07400
H 	H 	0.43680 0.27270 0.09230 0.07400
C 	C 	0.46410 0.27500 0.28730 -0.07500
H 	H 	0.44010 0.27420 0.31380 0.05000
Cd	Cd	0.72509 0.64002 0.21835 1.21300
Cd	Cd	0.78662 0.88197 0.27787 1.21300
N 	N 	0.60170 0.67640 0.14100 -0.15700
N 	N 	0.53930 0.63900 0.08670 -0.05200
N 	N 	0.80720 0.89800 0.16320 -0.15600
N 	N 	0.81310 0.85580 0.10550 -0.05200
O 	O 	0.65050 0.87230 0.13500 -0.33800
O 	O 	0.71670 0.77330 0.22230 -0.52800
O 	O 	0.78290 0.01110 0.24510 -0.51400
O 	O 	0.77150 0.10120 0.15100 -0.36800
O 	O 	0.77980 0.91960 0.89410 -0.42400
O 	O 	0.80960 0.80160 0.95000 -0.32700
O 	O 	0.40370 0.59030 0.91940 -0.38600
O 	O 	0.37290 0.71120 0.88460 -0.40300
C 	C 	0.50810 0.50210 0.21840 -0.08000
H 	H 	0.51480 0.45480 0.20000 0.06600
C 	C 	0.50710 0.63400 0.21660 -0.07700
H 	H 	0.51150 0.68080 0.19500 0.07200
C 	C 	0.51410 0.56580 0.18480 0.08900
C 	C 	0.53000 0.56260 0.11510 -0.16600
H 	H 	0.57340 0.53260 0.14080 0.08300
H 	H 	0.49130 0.53540 0.06120 0.10700
C 	C 	0.48820 0.68840 0.01600 -0.03700
C 	C 	0.52270 0.75800 0.03110 -0.01100
H 	H 	0.50330 0.80280 0.99620 0.04400
C 	C 	0.59230 0.74760 0.10920 -0.03400
C 	C 	0.78060 0.03110 0.17600 0.29700
C 	C 	0.65670 0.80270 0.15780 0.29300
C 	C 	0.79680 0.86930 0.95480 0.31400
C 	C 	0.79720 0.89930 0.03180 -0.03600
C 	C 	0.78390 0.97250 0.04640 0.00500
H 	H 	0.77370 0.01570 0.00980 0.03900
C 	C 	0.78860 0.97070 0.12710 -0.05200
C 	C 	0.41740 0.65890 0.93670 0.31300
C 	C 	0.84210 0.77570 0.13190 -0.14100
H 	H 	0.82480 0.74570 0.07730 0.09800
H 	H 	0.82540 0.75110 0.16370 0.05300
C 	C 	0.92430 0.77660 0.19400 0.06700
C 	C 	0.96160 0.77450 0.15540 -0.07600
H 	H 	0.93680 0.77270 0.09230 0.07500
C 	C 	0.96410 0.77500 0.28730 -0.07800
H 	H 	0.94010 0.77420 0.31380 0.05100
Cd	Cd	0.77491 0.14002 0.28165 1.21300
Cd	Cd	0.71338 0.38197 0.22213 1.21300
N 	N 	0.89830 0.17640 0.35900 -0.15700
N 	N 	0.96070 0.13900 0.41330 -0.05200
N 	N 	0.69280 0.39800 0.33680 -0.15600
N 	N 	0.68690 0.35580 0.39450 -0.05200
O 	O 	0.84950 0.37230 0.36500 -0.33800
O 	O 	0.78330 0.27330 0.27770 -0.52800
O 	O 	0.71710 0.51110 0.25490 -0.51400
O 	O 	0.72850 0.60120 0.34900 -0.36800
O 	O 	0.72020 0.41960 0.60590 -0.42400
O 	O 	0.69040 0.30160 0.55000 -0.32700
O 	O 	0.09630 0.09030 0.58060 -0.38600
O 	O 	0.12710 0.21120 0.61540 -0.40300
C 	C 	0.99190 0.00210 0.28160 -0.08100
H 	H 	0.98520 0.95480 0.30000 0.06500
C 	C 	0.99290 0.13400 0.28340 -0.07800
H 	H 	0.98850 0.18080 0.30500 0.07200
C 	C 	0.98590 0.06580 0.31520 0.09000
C 	C 	0.97000 0.06260 0.38490 -0.16600
H 	H 	0.92660 0.03260 0.35920 0.08300
H 	H 	0.00870 0.03540 0.43880 0.10700
C 	C 	0.01180 0.18840 0.48400 -0.03800
C 	C 	0.97730 0.25800 0.46890 -0.00900
H 	H 	0.99670 0.30280 0.50380 0.04300
C 	C 	0.90770 0.24760 0.39080 -0.03400
C 	C 	0.71940 0.53110 0.32400 0.29600
C 	C 	0.84330 0.30270 0.34220 0.29300
C 	C 	0.70320 0.36930 0.54520 0.31300
C 	C 	0.70280 0.39930 0.46820 -0.03500
C 	C 	0.71610 0.47250 0.45360 0.00700
H 	H 	0.72630 0.51570 0.49020 0.03800
C 	C 	0.71140 0.47070 0.37290 -0.05200
C 	C 	0.08260 0.15890 0.56330 0.31300
C 	C 	0.65790 0.27570 0.36810 -0.14000
H 	H 	0.67520 0.24570 0.42270 0.09800
H 	H 	0.67460 0.25110 0.33630 0.05300
C 	C 	0.57570 0.27660 0.30600 0.06600
C 	C 	0.53840 0.27450 0.34460 -0.07400
H 	H 	0.56320 0.27270 0.40770 0.07400
C 	C 	0.53590 0.27500 0.21270 -0.07500
H 	H 	0.55990 0.27420 0.18620 0.05000
Cd	Cd	0.27491 0.64002 0.28165 1.21300
Cd	Cd	0.21338 0.88197 0.22213 1.21300
N 	N 	0.39830 0.67640 0.35900 -0.15700
N 	N 	0.46070 0.63900 0.41330 -0.05200
N 	N 	0.19280 0.89800 0.33680 -0.15600
N 	N 	0.18690 0.85580 0.39450 -0.05200
O 	O 	0.34950 0.87230 0.36500 -0.33800
O 	O 	0.28330 0.77330 0.27770 -0.52800
O 	O 	0.21710 0.01110 0.25490 -0.51300
O 	O 	0.22850 0.10120 0.34900 -0.36800
O 	O 	0.22020 0.91960 0.60590 -0.42400
O 	O 	0.19040 0.80160 0.55000 -0.32700
O 	O 	0.59630 0.59030 0.58060 -0.38600
O 	O 	0.62710 0.71120 0.61540 -0.40300
C 	C 	0.49190 0.50210 0.28160 -0.08000
H 	H 	0.48520 0.45480 0.30000 0.06600
C 	C 	0.49290 0.63400 0.28340 -0.07700
H 	H 	0.48850 0.68080 0.30500 0.07200
C 	C 	0.48590 0.56580 0.31520 0.08900
C 	C 	0.47000 0.56260 0.38490 -0.16600
H 	H 	0.42660 0.53260 0.35920 0.08300
H 	H 	0.50870 0.53540 0.43880 0.10700
C 	C 	0.51180 0.68840 0.48400 -0.03700
C 	C 	0.47730 0.75800 0.46890 -0.00900
H 	H 	0.49670 0.80280 0.50380 0.04300
C 	C 	0.40770 0.74760 0.39080 -0.03400
C 	C 	0.21940 0.03110 0.32400 0.29600
C 	C 	0.34330 0.80270 0.34220 0.29300
C 	C 	0.20320 0.86930 0.54520 0.31300
C 	C 	0.20280 0.89930 0.46820 -0.03500
C 	C 	0.21610 0.97250 0.45360 0.00700
H 	H 	0.22630 0.01570 0.49020 0.03800
C 	C 	0.21140 0.97070 0.37290 -0.05200
C 	C 	0.58260 0.65890 0.56330 0.31200
C 	C 	0.15790 0.77570 0.36810 -0.13900
H 	H 	0.17520 0.74570 0.42270 0.09800
H 	H 	0.17460 0.75110 0.33630 0.05200
C 	C 	0.07570 0.77660 0.30600 0.06400
C 	C 	0.03840 0.77450 0.34460 -0.07100
H 	H 	0.06320 0.77270 0.40770 0.07300
C 	C 	0.03590 0.77500 0.21270 -0.07300
H 	H 	0.05990 0.77420 0.18620 0.04900
Cd	Cd	0.77491 0.85998 0.78165 1.21300
Cd	Cd	0.71338 0.61803 0.72213 1.21300
N 	N 	0.89830 0.82360 0.85900 -0.15600
N 	N 	0.96070 0.86100 0.91330 -0.05200
N 	N 	0.69280 0.60200 0.83680 -0.15600
N 	N 	0.68690 0.64420 0.89450 -0.05200
O 	O 	0.84950 0.62770 0.86500 -0.33800
O 	O 	0.78330 0.72670 0.77770 -0.52800
O 	O 	0.71710 0.48890 0.75490 -0.51400
O 	O 	0.72850 0.39880 0.84900 -0.36800
O 	O 	0.72020 0.58040 0.10590 -0.42400
O 	O 	0.69040 0.69840 0.05000 -0.32700
O 	O 	0.09630 0.90970 0.08060 -0.38700
O 	O 	0.12710 0.78880 0.11540 -0.40300
C 	C 	0.99190 0.99790 0.78160 -0.07900
H 	H 	0.98520 0.04520 0.80000 0.06500
C 	C 	0.99290 0.86600 0.78340 -0.07600
H 	H 	0.98850 0.81920 0.80500 0.07100
C 	C 	0.98590 0.93420 0.81520 0.08800
C 	C 	0.97000 0.93740 0.88490 -0.16400
H 	H 	0.92660 0.96740 0.85920 0.08300
H 	H 	0.00870 0.96460 0.93880 0.10600
C 	C 	0.01180 0.81160 0.98400 -0.04100
C 	C 	0.97730 0.74200 0.96890 -0.00400
H 	H 	0.99670 0.69720 0.00380 0.04000
C 	C 	0.90770 0.75240 0.89080 -0.03600
C 	C 	0.71940 0.46890 0.82400 0.29600
C 	C 	0.84330 0.69730 0.84220 0.29400
C 	C 	0.70320 0.63070 0.04520 0.31200
C 	C 	0.70280 0.60070 0.96820 -0.03400
C 	C 	0.71610 0.52750 0.95360 0.00600
H 	H 	0.72630 0.48430 0.99020 0.03800
C 	C 	0.71140 0.52930 0.87290 -0.05200
C 	C 	0.08260 0.84110 0.06330 0.31400
C 	C 	0.65790 0.72430 0.86810 -0.14000
H 	H 	0.67520 0.75430 0.92270 0.09800
H 	H 	0.67460 0.74890 0.83630 0.05300
C 	C 	0.57570 0.72340 0.80600 0.06600
C 	C 	0.53840 0.72550 0.84460 -0.07400
H 	H 	0.56320 0.72730 0.90770 0.07400
C 	C 	0.53590 0.72500 0.71270 -0.07500
H 	H 	0.55990 0.72580 0.68620 0.05000
Cd	Cd	0.27491 0.35998 0.78165 1.21300
Cd	Cd	0.21338 0.11803 0.72213 1.21300
N 	N 	0.39830 0.32360 0.85900 -0.15700
N 	N 	0.46070 0.36100 0.91330 -0.05200
N 	N 	0.19280 0.10200 0.83680 -0.15600
N 	N 	0.18690 0.14420 0.89450 -0.05200
O 	O 	0.34950 0.12770 0.86500 -0.33800
O 	O 	0.28330 0.22670 0.77770 -0.52800
O 	O 	0.21710 0.98890 0.75490 -0.51400
O 	O 	0.22850 0.89880 0.84900 -0.36800
O 	O 	0.22020 0.08040 0.10590 -0.42400
O 	O 	0.19040 0.19840 0.05000 -0.32700
O 	O 	0.59630 0.40970 0.08060 -0.38600
O 	O 	0.62710 0.28880 0.11540 -0.40300
C 	C 	0.49190 0.49790 0.78160 -0.08000
H 	H 	0.48520 0.54520 0.80000 0.06600
C 	C 	0.49290 0.36600 0.78340 -0.07700
H 	H 	0.48850 0.31920 0.80500 0.07200
C 	C 	0.48590 0.43420 0.81520 0.08900
C 	C 	0.47000 0.43740 0.88490 -0.16600
H 	H 	0.42660 0.46740 0.85920 0.08300
H 	H 	0.50870 0.46460 0.93880 0.10700
C 	C 	0.51180 0.31160 0.98400 -0.03700
C 	C 	0.47730 0.24200 0.96890 -0.01100
H 	H 	0.49670 0.19720 0.00380 0.04400
C 	C 	0.40770 0.25240 0.89080 -0.03400
C 	C 	0.21940 0.96890 0.82400 0.29700
C 	C 	0.34330 0.19730 0.84220 0.29300
C 	C 	0.20320 0.13070 0.04520 0.31400
C 	C 	0.20280 0.10070 0.96820 -0.03600
C 	C 	0.21610 0.02750 0.95360 0.00500
H 	H 	0.22630 0.98430 0.99020 0.03900
C 	C 	0.21140 0.02930 0.87290 -0.05200
C 	C 	0.58260 0.34110 0.06330 0.31300
C 	C 	0.15790 0.22430 0.86810 -0.14100
H 	H 	0.17520 0.25430 0.92270 0.09800
H 	H 	0.17460 0.24890 0.83630 0.05300
C 	C 	0.07570 0.22340 0.80600 0.06700
C 	C 	0.03840 0.22550 0.84460 -0.07600
H 	H 	0.06320 0.22730 0.90770 0.07500
C 	C 	0.03590 0.22500 0.71270 -0.07800
H 	H 	0.05990 0.22580 0.68620 0.05100
Cd	Cd	0.22509 0.85998 0.71835 1.21300
Cd	Cd	0.28662 0.61803 0.77787 1.21300
N 	N 	0.10170 0.82360 0.64100 -0.15700
N 	N 	0.03930 0.86100 0.58670 -0.05200
N 	N 	0.30720 0.60200 0.66320 -0.15600
N 	N 	0.31310 0.64420 0.60550 -0.05200
O 	O 	0.15050 0.62770 0.63500 -0.33800
O 	O 	0.21670 0.72670 0.72230 -0.52800
O 	O 	0.28290 0.48890 0.74510 -0.51400
O 	O 	0.27150 0.39880 0.65100 -0.36800
O 	O 	0.27980 0.58040 0.39410 -0.42400
O 	O 	0.30960 0.69840 0.45000 -0.32700
O 	O 	0.90370 0.90970 0.41940 -0.38600
O 	O 	0.87290 0.78880 0.38460 -0.40300
C 	C 	0.00810 0.99790 0.71840 -0.08100
H 	H 	0.01480 0.04520 0.70000 0.06500
C 	C 	0.00710 0.86600 0.71660 -0.07800
H 	H 	0.01150 0.81920 0.69500 0.07200
C 	C 	0.01410 0.93420 0.68480 0.09000
C 	C 	0.03000 0.93740 0.61510 -0.16600
H 	H 	0.07340 0.96740 0.64080 0.08300
H 	H 	0.99130 0.96460 0.56120 0.10700
C 	C 	0.98820 0.81160 0.51600 -0.03800
C 	C 	0.02270 0.74200 0.53110 -0.00900
H 	H 	0.00330 0.69720 0.49620 0.04300
C 	C 	0.09230 0.75240 0.60920 -0.03400
C 	C 	0.28060 0.46890 0.67600 0.29600
C 	C 	0.15670 0.69730 0.65780 0.29300
C 	C 	0.29680 0.63070 0.45480 0.31300
C 	C 	0.29720 0.60070 0.53180 -0.03500
C 	C 	0.28390 0.52750 0.54640 0.00700
H 	H 	0.27370 0.48430 0.50980 0.03800
C 	C 	0.28860 0.52930 0.62710 -0.05200
C 	C 	0.91740 0.84110 0.43670 0.31300
C 	C 	0.34210 0.72430 0.63190 -0.14000
H 	H 	0.32480 0.75430 0.57730 0.09800
H 	H 	0.32540 0.74890 0.66370 0.05300
C 	C 	0.42430 0.72340 0.69400 0.06600
C 	C 	0.46160 0.72550 0.65540 -0.07400
H 	H 	0.43680 0.72730 0.59230 0.07400
C 	C 	0.46410 0.72500 0.78730 -0.07500
H 	H 	0.44010 0.72580 0.81380 0.05000
Cd	Cd	0.72509 0.35998 0.71835 1.21300
Cd	Cd	0.78662 0.11803 0.77787 1.21300
N 	N 	0.60170 0.32360 0.64100 -0.15700
N 	N 	0.53930 0.36100 0.58670 -0.05200
N 	N 	0.80720 0.10200 0.66320 -0.15600
N 	N 	0.81310 0.14420 0.60550 -0.05200
O 	O 	0.65050 0.12770 0.63500 -0.33800
O 	O 	0.71670 0.22670 0.72230 -0.52800
O 	O 	0.78290 0.98890 0.74510 -0.51300
O 	O 	0.77150 0.89880 0.65100 -0.36800
O 	O 	0.77980 0.08040 0.39410 -0.42400
O 	O 	0.80960 0.19840 0.45000 -0.32700
O 	O 	0.40370 0.40970 0.41940 -0.38600
O 	O 	0.37290 0.28880 0.38460 -0.40300
C 	C 	0.50810 0.49790 0.71840 -0.08000
H 	H 	0.51480 0.54520 0.70000 0.06600
C 	C 	0.50710 0.36600 0.71660 -0.07700
H 	H 	0.51150 0.31920 0.69500 0.07200
C 	C 	0.51410 0.43420 0.68480 0.08900
C 	C 	0.53000 0.43740 0.61510 -0.16600
H 	H 	0.57340 0.46740 0.64080 0.08300
H 	H 	0.49130 0.46460 0.56120 0.10700
C 	C 	0.48820 0.31160 0.51600 -0.03700
C 	C 	0.52270 0.24200 0.53110 -0.00900
H 	H 	0.50330 0.19720 0.49620 0.04300
C 	C 	0.59230 0.25240 0.60920 -0.03400
C 	C 	0.78060 0.96890 0.67600 0.29600
C 	C 	0.65670 0.19730 0.65780 0.29300
C 	C 	0.79680 0.13070 0.45480 0.31300
C 	C 	0.79720 0.10070 0.53180 -0.03500
C 	C 	0.78390 0.02750 0.54640 0.00700
H 	H 	0.77370 0.98430 0.50980 0.03800
C 	C 	0.78860 0.02930 0.62710 -0.05200
C 	C 	0.41740 0.34110 0.43670 0.31200
C 	C 	0.84210 0.22430 0.63190 -0.13900
H 	H 	0.82480 0.25430 0.57730 0.09800
H 	H 	0.82540 0.24890 0.66370 0.05200
C 	C 	0.92430 0.22340 0.69400 0.06400
C 	C 	0.96160 0.22550 0.65540 -0.07100
H 	H 	0.93680 0.22730 0.59230 0.07300
C 	C 	0.96410 0.22500 0.78730 -0.07300
H 	H 	0.94010 0.22580 0.81380 0.04900
