data_crystal

_cell_length_a 12.48820
_cell_length_b 13.19510
_cell_length_c 19.75600
_cell_angle_alpha 78.95900
_cell_angle_beta  84.55300
_cell_angle_gamma 63.86900

_symmetry_space_group_name_	'P 1'
_symmetry_space_group_name_H-M	'P 1'

loop_
_symmetry_equiv_pos_as_xyz
  x,y,z

loop_
_atom_site_label
_atom_site_type_symbol
_atom_site_fract_x
_atom_site_fract_y
_atom_site_fract_z
_atom_site_charge
Cu	Cu	0.58012 0.56020 0.20913 0.86500
Cu	Cu	0.25565 0.77357 0.24882 0.87200
Cu	Cu	0.93567 0.99148 0.29175 0.86400
N 	N 	0.43920 0.55180 0.17540 -0.20300
N 	N 	0.32130 0.62750 0.18110 -0.16600
N 	N 	0.33290 0.49390 0.12560 -0.12800
N 	N 	0.67390 0.50180 0.12460 -0.19500
N 	N 	0.77580 0.39940 0.12990 -0.11300
N 	N 	0.23730 0.50630 0.97580 -0.12900
N 	N 	0.37340 0.82870 0.19880 -0.19700
N 	N 	0.48320 0.76060 0.17110 -0.16200
N 	N 	0.45650 0.94030 0.15070 -0.13000
N 	N 	0.79510 0.99560 0.25000 -0.20700
N 	N 	0.80940 0.89690 0.22740 -0.10600
N 	N 	0.62350 0.02530 0.21530 -0.13300
N 	N 	0.49880 0.59670 0.30340 -0.19500
N 	N 	0.38140 0.66780 0.31710 -0.20000
N 	N 	0.47220 0.59220 0.41480 -0.13100
N 	N 	0.13220 0.89130 0.18360 -0.19900
N 	N 	0.02030 0.97190 0.19740 -0.18800
N 	N 	0.05140 0.99400 0.08590 -0.12600
N 	N 	0.13450 0.72170 0.30160 -0.19400
N 	N 	0.01980 0.79670 0.31790 -0.16400
N 	N 	0.03840 0.62100 0.34890 -0.12700
N 	N 	0.72880 0.55910 0.23930 -0.19800
N 	N 	0.76750 0.64020 0.20580 -0.10600
N 	N 	0.90140 0.51710 0.28220 -0.12900
N 	N 	0.18980 0.92570 0.31900 -0.15900
N 	N 	0.07270 0.99360 0.33390 -0.20000
N 	N 	0.18430 0.04550 0.38320 -0.13000
N 	N 	0.83670 0.02820 0.37900 -0.19100
N 	N 	0.73300 0.12850 0.37880 -0.11300
N 	N 	0.26500 0.99610 0.52910 -0.12200
C 	C 	0.29930 0.41560 0.09830 -0.04700
C 	C 	0.19970 0.47240 0.04640 -0.05100
C 	C 	0.25980 0.59160 0.15060 0.08900
C 	C 	0.44370 0.47200 0.14260 0.08500
C 	C 	0.82780 0.39850 0.06970 0.08900
C 	C 	0.66780 0.55650 0.06090 0.09500
C 	C 	0.47480 0.04460 0.13190 -0.05100
C 	C 	0.49630 0.08230 0.19500 -0.04800
C 	C 	0.35990 0.93500 0.18510 0.09100
C 	C 	0.52910 0.83110 0.14240 0.09100
C 	C 	0.70470 0.91670 0.20820 0.08700
C 	C 	0.68430 0.06830 0.24230 0.11100
C 	C 	0.49570 0.55990 0.48850 -0.05000
C 	C 	0.36800 0.66330 0.38350 0.09000
C 	C 	0.55130 0.55400 0.36310 0.08700
C 	C 	0.03220 0.03070 0.01260 -0.05700
C 	C 	0.97250 0.03170 0.13810 0.08700
C 	C 	0.14850 0.90620 0.11680 0.09000
C 	C 	0.01020 0.52470 0.37920 -0.04900
C 	C 	0.00840 0.45800 0.32460 -0.04500
C 	C 	0.96530 0.73370 0.34600 0.08500
C 	C 	0.14260 0.61800 0.32100 0.09300
C 	C 	0.87070 0.61200 0.23220 0.09000
C 	C 	0.81160 0.48560 0.28320 0.09200
C 	C 	0.21980 0.11920 0.41360 -0.04300
C 	C 	0.31110 0.05180 0.47040 -0.05600
C 	C 	0.07150 0.06380 0.37200 0.08500
C 	C 	0.25500 0.95940 0.34860 0.09300
C 	C 	0.67320 0.11020 0.43470 0.08600
C 	C 	0.83540 0.95490 0.43390 0.08400
H 	H 	0.27520 0.37060 0.13750 0.03900
H 	H 	0.37070 0.36120 0.07640 0.04700
H 	H 	0.16410 0.41910 0.04480 0.04400
H 	H 	0.13690 0.54140 0.06250 0.05100
H 	H 	0.40370 0.10660 0.10750 0.04200
H 	H 	0.54420 0.03030 0.10000 0.05100
H 	H 	0.46970 0.16630 0.18550 0.03900
H 	H 	0.44760 0.06510 0.23390 0.04900
H 	H 	0.43040 0.61450 0.51400 0.04800
H 	H 	0.57130 0.56150 0.49810 0.04800
H 	H 	0.10970 0.01250 0.98820 0.04900
H 	H 	0.98340 0.11450 0.00270 0.05400
H 	H 	0.93130 0.55420 0.40250 0.04800
H 	H 	0.07040 0.47260 0.41430 0.04000
H 	H 	0.07950 0.44430 0.29430 0.04600
H 	H 	0.01340 0.38250 0.34770 0.03800
H 	H 	0.25390 0.15950 0.37700 0.03700
H 	H 	0.14830 0.17780 0.43290 0.04300
H 	H 	0.33650 0.10430 0.48660 0.04300
H 	H 	0.38220 0.99280 0.45110 0.05100
H 	H 	0.17540 0.62840 0.14640 -0.00200
H 	H 	0.51460 0.40850 0.13240 -0.00700
H 	H 	0.90170 0.33910 0.05890 0.00300
H 	H 	0.60600 0.62890 0.04350 -0.00800
H 	H 	0.29190 0.99900 0.19750 -0.00600
H 	H 	0.60370 0.80850 0.11870 0.00100
H 	H 	0.68670 0.86310 0.19150 0.01600
H 	H 	0.65100 0.14250 0.25450 -0.01600
H 	H 	0.29550 0.70420 0.40650 -0.00500
H 	H 	0.63340 0.50320 0.36950 -0.01100
H 	H 	0.89440 0.09230 0.13240 -0.00700
H 	H 	0.21870 0.86160 0.09330 -0.00500
H 	H 	0.88500 0.76320 0.36210 0.00100
H 	H 	0.21230 0.54990 0.31600 -0.00800
H 	H 	0.91830 0.65220 0.21840 0.01300
H 	H 	0.80890 0.41990 0.31150 -0.01600
H 	H 	0.00160 0.12000 0.38960 -0.00800
H 	H 	0.33960 0.92800 0.34630 -0.00200
H 	H 	0.59720 0.16410 0.44780 0.00300
H 	H 	0.89570 0.87910 0.44580 -0.00600
Cu	Cu	0.41988 0.43980 0.79087 0.86500
Cu	Cu	0.74435 0.22643 0.75118 0.87200
Cu	Cu	0.06433 0.00852 0.70825 0.86400
N 	N 	0.56080 0.44820 0.82460 -0.20300
N 	N 	0.67870 0.37250 0.81890 -0.16600
N 	N 	0.66710 0.50610 0.87440 -0.12800
N 	N 	0.32610 0.49820 0.87540 -0.19500
N 	N 	0.22420 0.60060 0.87010 -0.11300
N 	N 	0.76270 0.49370 0.02420 -0.12900
N 	N 	0.62660 0.17130 0.80120 -0.19700
N 	N 	0.51680 0.23940 0.82890 -0.16200
N 	N 	0.54350 0.05970 0.84930 -0.13000
N 	N 	0.20490 0.00440 0.75000 -0.20700
N 	N 	0.19060 0.10310 0.77260 -0.10600
N 	N 	0.37650 0.97470 0.78470 -0.13300
N 	N 	0.50120 0.40330 0.69660 -0.19500
N 	N 	0.61860 0.33220 0.68290 -0.20000
N 	N 	0.52780 0.40780 0.58520 -0.13100
N 	N 	0.86780 0.10870 0.81640 -0.19900
N 	N 	0.97970 0.02810 0.80260 -0.18800
N 	N 	0.94860 0.00600 0.91410 -0.12600
N 	N 	0.86550 0.27830 0.69840 -0.19400
N 	N 	0.98020 0.20330 0.68210 -0.16400
N 	N 	0.96160 0.37900 0.65110 -0.12700
N 	N 	0.27120 0.44090 0.76070 -0.19800
N 	N 	0.23250 0.35980 0.79420 -0.10600
N 	N 	0.09860 0.48290 0.71780 -0.12900
N 	N 	0.81020 0.07430 0.68100 -0.15900
N 	N 	0.92730 0.00640 0.66610 -0.20000
N 	N 	0.81570 0.95450 0.61680 -0.13000
N 	N 	0.16330 0.97180 0.62100 -0.19100
N 	N 	0.26700 0.87150 0.62120 -0.11300
N 	N 	0.73500 0.00390 0.47090 -0.12200
C 	C 	0.70070 0.58440 0.90170 -0.04700
C 	C 	0.80030 0.52760 0.95360 -0.05100
C 	C 	0.74020 0.40840 0.84940 0.08900
C 	C 	0.55630 0.52800 0.85740 0.08500
C 	C 	0.17220 0.60150 0.93030 0.08900
C 	C 	0.33220 0.44350 0.93910 0.09500
C 	C 	0.52520 0.95540 0.86810 -0.05100
C 	C 	0.50370 0.91770 0.80500 -0.04800
C 	C 	0.64010 0.06500 0.81490 0.09100
C 	C 	0.47090 0.16890 0.85760 0.09100
C 	C 	0.29530 0.08330 0.79180 0.08700
C 	C 	0.31570 0.93170 0.75770 0.11100
C 	C 	0.50430 0.44010 0.51150 -0.05000
C 	C 	0.63200 0.33670 0.61650 0.09000
C 	C 	0.44870 0.44600 0.63690 0.08700
C 	C 	0.96780 0.96930 0.98740 -0.05700
C 	C 	0.02750 0.96830 0.86190 0.08700
C 	C 	0.85150 0.09380 0.88320 0.09000
C 	C 	0.98980 0.47530 0.62080 -0.04900
C 	C 	0.99160 0.54200 0.67540 -0.04500
C 	C 	0.03470 0.26630 0.65400 0.08500
C 	C 	0.85740 0.38200 0.67900 0.09300
C 	C 	0.12930 0.38800 0.76780 0.09000
C 	C 	0.18840 0.51440 0.71680 0.09200
C 	C 	0.78020 0.88080 0.58640 -0.04300
C 	C 	0.68890 0.94820 0.52960 -0.05600
C 	C 	0.92850 0.93620 0.62800 0.08500
C 	C 	0.74500 0.04060 0.65140 0.09300
C 	C 	0.32680 0.88980 0.56530 0.08600
C 	C 	0.16460 0.04510 0.56610 0.08400
H 	H 	0.72480 0.62940 0.86250 0.03900
H 	H 	0.62930 0.63880 0.92360 0.04700
H 	H 	0.83590 0.58090 0.95520 0.04400
H 	H 	0.86310 0.45860 0.93750 0.05100
H 	H 	0.59630 0.89340 0.89250 0.04200
H 	H 	0.45580 0.96970 0.90000 0.05100
H 	H 	0.53030 0.83370 0.81450 0.03900
H 	H 	0.55240 0.93490 0.76610 0.04900
H 	H 	0.56960 0.38550 0.48600 0.04800
H 	H 	0.42870 0.43850 0.50190 0.04800
H 	H 	0.89030 0.98750 0.01180 0.04900
H 	H 	0.01660 0.88550 0.99730 0.05400
H 	H 	0.06870 0.44580 0.59750 0.04800
H 	H 	0.92960 0.52740 0.58570 0.04000
H 	H 	0.92050 0.55570 0.70570 0.04600
H 	H 	0.98660 0.61750 0.65230 0.03800
H 	H 	0.74610 0.84050 0.62300 0.03700
H 	H 	0.85170 0.82220 0.56710 0.04300
H 	H 	0.66350 0.89570 0.51340 0.04300
H 	H 	0.61780 0.00720 0.54890 0.05100
H 	H 	0.82460 0.37160 0.85360 -0.00200
H 	H 	0.48540 0.59150 0.86760 -0.00700
H 	H 	0.09830 0.66090 0.94110 0.00300
H 	H 	0.39400 0.37110 0.95650 -0.00800
H 	H 	0.70810 0.00100 0.80250 -0.00600
H 	H 	0.39630 0.19150 0.88130 0.00100
H 	H 	0.31330 0.13690 0.80850 0.01600
H 	H 	0.34900 0.85750 0.74550 -0.01600
H 	H 	0.70450 0.29580 0.59350 -0.00500
H 	H 	0.36660 0.49680 0.63050 -0.01100
H 	H 	0.10560 0.90770 0.86760 -0.00700
H 	H 	0.78130 0.13840 0.90670 -0.00500
H 	H 	0.11500 0.23680 0.63790 0.00100
H 	H 	0.78770 0.45010 0.68400 -0.00800
H 	H 	0.08170 0.34780 0.78160 0.01300
H 	H 	0.19110 0.58010 0.68850 -0.01600
H 	H 	0.99840 0.88000 0.61040 -0.00800
H 	H 	0.66040 0.07200 0.65370 -0.00200
H 	H 	0.40280 0.83590 0.55220 0.00300
H 	H 	0.10430 0.12090 0.55420 -0.00600
