data_crystal

_cell_length_a 11.20490
_cell_length_b 16.72600
_cell_length_c 17.15200
_cell_angle_alpha 64.59200
_cell_angle_beta  80.09500
_cell_angle_gamma 85.22500

_symmetry_space_group_name_	'P 1'
_symmetry_space_group_name_H-M	'P 1'

loop_
_symmetry_equiv_pos_as_xyz
  x,y,z

loop_
_atom_site_label
_atom_site_type_symbol
_atom_site_fract_x
_atom_site_fract_y
_atom_site_fract_z
_atom_site_charge
Li	Li	0.67580 0.62270 0.88470 0.53500
Li	Li	0.89450 0.66160 0.85720 0.53000
Li	Li	0.96650 0.64540 0.71420 0.52500
Li	Li	0.96060 0.80750 0.60230 0.53400
Li	Li	0.04860 0.59990 0.59270 0.53600
Li	Li	0.32420 0.37730 0.11530 0.53600
Li	Li	0.10550 0.33840 0.14280 0.53100
Li	Li	0.03350 0.35460 0.28580 0.52600
Li	Li	0.03940 0.19250 0.39770 0.53500
Li	Li	0.95140 0.40010 0.40730 0.53600
H 	H 	0.44890 0.71490 0.87430 0.09400
H 	H 	0.44910 0.66790 0.81020 0.09500
H 	H 	0.34130 0.64990 0.89000 0.10700
H 	H 	0.48690 0.62840 0.02240 0.03300
H 	H 	0.37750 0.56500 0.03730 0.03100
H 	H 	0.37820 0.49410 0.94010 0.02300
H 	H 	0.48800 0.51080 0.86160 0.04000
H 	H 	0.10190 0.71000 0.90380 0.08700
H 	H 	0.99000 0.71100 0.97530 0.08000
H 	H 	0.11010 0.65550 0.00550 0.09400
H 	H 	0.15230 0.57260 0.88530 0.01800
H 	H 	0.16310 0.52850 0.98720 0.01600
H 	H 	0.98860 0.53310 0.09200 0.02800
H 	H 	0.86600 0.58080 0.05780 0.02900
H 	H 	0.73890 0.88700 0.59490 0.07700
H 	H 	0.73340 0.97390 0.50580 0.10500
H 	H 	0.77080 0.88050 0.50320 0.08800
H 	H 	0.86370 0.04930 0.54390 0.03900
H 	H 	0.87760 0.96570 0.63410 0.03300
H 	H 	0.95570 0.94120 0.40780 0.04800
H 	H 	0.91100 0.03460 0.40790 0.04500
H 	H 	0.26940 0.52590 0.54720 0.08900
H 	H 	0.27460 0.52250 0.45480 0.10800
H 	H 	0.25290 0.61490 0.46220 0.09000
H 	H 	0.06790 0.63960 0.39870 0.04100
H 	H 	0.09350 0.54820 0.38950 0.02700
H 	H 	0.12190 0.41310 0.51550 0.03700
H 	H 	0.11470 0.41470 0.60900 0.03900
H 	H 	0.76000 0.69500 0.96000 0.10900
H 	H 	0.76230 0.84190 0.95670 0.07100
H 	H 	0.70570 0.98930 0.88820 -0.00100
H 	H 	0.61720 0.04190 0.76110 0.06700
H 	H 	0.58970 0.94450 0.70260 -0.00700
H 	H 	0.64680 0.79800 0.76770 0.04400
H 	H 	0.84800 0.52400 0.84800 0.09100
H 	H 	0.69820 0.70080 0.70990 0.01900
H 	H 	0.56560 0.69150 0.62410 -0.00400
H 	H 	0.52430 0.55620 0.62770 0.05500
H 	H 	0.61910 0.42900 0.71760 0.00600
H 	H 	0.75460 0.43540 0.80270 0.05700
H 	H 	0.90300 0.78500 0.74600 0.07300
H 	H 	0.96570 0.88270 0.79290 0.06500
H 	H 	0.12930 0.95220 0.80280 0.00400
H 	H 	0.32480 0.92010 0.75650 0.06500
H 	H 	0.36000 0.81810 0.69500 -0.00300
H 	H 	0.19740 0.74650 0.68470 0.03500
H 	H 	0.85400 0.69400 0.58200 0.09000
H 	H 	0.82590 0.75950 0.43410 0.05800
H 	H 	0.91310 0.83680 0.29030 0.00800
H 	H 	0.11560 0.87680 0.25440 0.06300
H 	H 	0.23360 0.83620 0.36400 -0.00000
H 	H 	0.15170 0.75660 0.50980 0.02300
H 	H 	0.18300 0.61100 0.68300 0.07400
H 	H 	0.32870 0.51160 0.75410 0.07600
H 	H 	0.38590 0.36720 0.83200 -0.00600
H 	H 	0.25440 0.25300 0.86920 0.06800
H 	H 	0.06110 0.28500 0.82730 -0.00500
H 	H 	0.00070 0.42960 0.75150 0.05600
H 	H 	0.55110 0.28510 0.12570 0.09400
H 	H 	0.55090 0.33210 0.18980 0.09500
H 	H 	0.65870 0.35010 0.11000 0.10700
H 	H 	0.51310 0.37160 0.97760 0.03300
H 	H 	0.62250 0.43500 0.96270 0.03100
H 	H 	0.62180 0.50590 0.05990 0.02300
H 	H 	0.51200 0.48920 0.13840 0.04000
H 	H 	0.89810 0.29000 0.09620 0.08700
H 	H 	0.01000 0.28900 0.02470 0.08000
H 	H 	0.88990 0.34450 0.99450 0.09400
H 	H 	0.84770 0.42740 0.11470 0.01800
H 	H 	0.83690 0.47150 0.01280 0.01600
H 	H 	0.01140 0.46690 0.90800 0.02800
H 	H 	0.13400 0.41920 0.94220 0.02900
H 	H 	0.26110 0.11300 0.40510 0.07700
H 	H 	0.26660 0.02610 0.49420 0.10500
H 	H 	0.22920 0.11950 0.49680 0.08800
H 	H 	0.13630 0.95070 0.45610 0.03900
H 	H 	0.12240 0.03430 0.36590 0.03300
H 	H 	0.04430 0.05880 0.59220 0.04800
H 	H 	0.08900 0.96540 0.59210 0.04500
H 	H 	0.73060 0.47410 0.45280 0.08900
H 	H 	0.72540 0.47750 0.54520 0.10800
H 	H 	0.74710 0.38510 0.53780 0.09000
H 	H 	0.93210 0.36040 0.60130 0.04100
H 	H 	0.90650 0.45180 0.61050 0.02700
H 	H 	0.87810 0.58690 0.48450 0.03700
H 	H 	0.88530 0.58530 0.39100 0.03900
H 	H 	0.24000 0.30500 0.04000 0.10900
H 	H 	0.23770 0.15810 0.04330 0.07100
H 	H 	0.29430 0.01070 0.11180 -0.00100
H 	H 	0.38280 0.95810 0.23890 0.06700
H 	H 	0.41030 0.05550 0.29740 -0.00700
H 	H 	0.35320 0.20200 0.23230 0.04400
H 	H 	0.15200 0.47600 0.15200 0.09100
H 	H 	0.30180 0.29920 0.29010 0.01900
H 	H 	0.43440 0.30850 0.37590 -0.00400
H 	H 	0.47570 0.44380 0.37230 0.05500
H 	H 	0.38090 0.57100 0.28240 0.00600
H 	H 	0.24540 0.56460 0.19730 0.05700
H 	H 	0.09700 0.21500 0.25400 0.07300
H 	H 	0.03430 0.11730 0.20710 0.06500
H 	H 	0.87070 0.04780 0.19720 0.00400
H 	H 	0.67520 0.07990 0.24350 0.06500
H 	H 	0.64000 0.18190 0.30500 -0.00300
H 	H 	0.80260 0.25350 0.31530 0.03500
H 	H 	0.14600 0.30600 0.41800 0.09000
H 	H 	0.17410 0.24050 0.56590 0.05800
H 	H 	0.08690 0.16320 0.70970 0.00800
H 	H 	0.88440 0.12320 0.74560 0.06300
H 	H 	0.76640 0.16380 0.63600 -0.00000
H 	H 	0.84830 0.24340 0.49020 0.02300
H 	H 	0.81700 0.38900 0.31700 0.07400
H 	H 	0.67130 0.48840 0.24590 0.07600
H 	H 	0.61410 0.63280 0.16800 -0.00600
H 	H 	0.74560 0.74700 0.13080 0.06800
H 	H 	0.93890 0.71500 0.17270 -0.00500
H 	H 	0.99930 0.57040 0.24850 0.05600
C 	C 	0.42830 0.66080 0.87070 -0.29400
C 	C 	0.46580 0.57420 0.01830 -0.08000
C 	C 	0.46650 0.50430 0.92250 -0.07000
C 	C 	0.05610 0.67490 0.96130 -0.27000
C 	C 	0.10700 0.54050 0.94470 -0.06200
C 	C 	0.93650 0.54520 0.04690 -0.07500
C 	C 	0.77610 0.91760 0.53370 -0.28800
C 	C 	0.91200 0.99500 0.57150 -0.07200
C 	C 	0.95860 0.98040 0.43730 -0.07800
C 	C 	0.23640 0.55140 0.49210 -0.29400
C 	C 	0.05320 0.57510 0.42870 -0.06900
C 	C 	0.08120 0.44140 0.55340 -0.07900
C 	C 	0.71110 0.79950 0.87170 0.12000
C 	C 	0.72720 0.86130 0.90490 -0.16900
C 	C 	0.69300 0.94980 0.86390 0.05800
C 	C 	0.64100 0.98150 0.78840 -0.14300
C 	C 	0.62500 0.92390 0.75450 0.06300
C 	C 	0.65900 0.83590 0.79400 -0.18300
C 	C 	0.74290 0.56890 0.76680 0.04300
C 	C 	0.68340 0.64470 0.71190 -0.18000
C 	C 	0.60380 0.63920 0.66080 0.03700
C 	C 	0.57930 0.55960 0.66260 -0.12900
C 	C 	0.63580 0.48460 0.71580 0.03100
C 	C 	0.71650 0.48830 0.76690 -0.14700
C 	C 	0.06250 0.80600 0.73750 0.08500
C 	C 	0.04550 0.86850 0.77280 -0.16100
C 	C 	0.14330 0.91000 0.77880 0.05100
C 	C 	0.25880 0.89150 0.75120 -0.13400
C 	C 	0.27960 0.83080 0.71530 0.04400
C 	C 	0.18210 0.78850 0.70900 -0.16900
C 	C 	0.97940 0.74860 0.48990 0.04700
C 	C 	0.90930 0.77440 0.42100 -0.13800
C 	C 	0.96130 0.82070 0.33540 0.03600
C 	C 	0.08140 0.84430 0.31370 -0.12700
C 	C 	0.15060 0.82030 0.37860 0.04700
C 	C 	0.10140 0.77280 0.46590 -0.17900
C 	C 	0.15690 0.48870 0.74370 0.12600
C 	C 	0.27270 0.46580 0.76930 -0.18000
C 	C 	0.30740 0.37980 0.81540 0.06900
C 	C 	0.23030 0.31260 0.83730 -0.15300
C 	C 	0.11530 0.33180 0.81260 0.06800
C 	C 	0.07970 0.41790 0.76730 -0.18800
C 	C 	0.57170 0.33920 0.12930 -0.29400
C 	C 	0.53420 0.42580 0.98170 -0.08000
C 	C 	0.53350 0.49570 0.07750 -0.07000
C 	C 	0.94390 0.32510 0.03870 -0.27000
C 	C 	0.89300 0.45950 0.05530 -0.06200
C 	C 	0.06350 0.45480 0.95310 -0.07500
C 	C 	0.22390 0.08240 0.46630 -0.28800
C 	C 	0.08800 0.00500 0.42850 -0.07200
C 	C 	0.04140 0.01960 0.56270 -0.07800
C 	C 	0.76360 0.44860 0.50790 -0.29400
C 	C 	0.94680 0.42490 0.57130 -0.06900
C 	C 	0.91880 0.55860 0.44660 -0.07900
C 	C 	0.28890 0.20050 0.12830 0.12000
C 	C 	0.27280 0.13870 0.09510 -0.16900
C 	C 	0.30700 0.05020 0.13610 0.05800
C 	C 	0.35900 0.01850 0.21160 -0.14300
C 	C 	0.37500 0.07610 0.24550 0.06300
C 	C 	0.34100 0.16410 0.20600 -0.18300
C 	C 	0.25710 0.43110 0.23320 0.04300
C 	C 	0.31660 0.35530 0.28810 -0.18000
C 	C 	0.39620 0.36080 0.33920 0.03700
C 	C 	0.42070 0.44040 0.33740 -0.12900
C 	C 	0.36420 0.51540 0.28420 0.03100
C 	C 	0.28350 0.51170 0.23310 -0.14700
C 	C 	0.93750 0.19400 0.26250 0.08500
C 	C 	0.95450 0.13150 0.22720 -0.16100
C 	C 	0.85670 0.09000 0.22120 0.05100
C 	C 	0.74120 0.10850 0.24880 -0.13400
C 	C 	0.72040 0.16920 0.28470 0.04400
C 	C 	0.81790 0.21150 0.29100 -0.16900
C 	C 	0.02060 0.25140 0.51010 0.04700
C 	C 	0.09070 0.22560 0.57900 -0.13800
C 	C 	0.03870 0.17930 0.66460 0.03600
C 	C 	0.91860 0.15570 0.68630 -0.12700
C 	C 	0.84940 0.17970 0.62140 0.04700
C 	C 	0.89860 0.22720 0.53410 -0.17900
C 	C 	0.84310 0.51130 0.25630 0.12600
C 	C 	0.72730 0.53420 0.23070 -0.18000
C 	C 	0.69260 0.62020 0.18460 0.06900
C 	C 	0.76970 0.68740 0.16270 -0.15300
C 	C 	0.88470 0.66820 0.18740 0.06800
C 	C 	0.92030 0.58210 0.23270 -0.18800
N 	N 	0.49680 0.58550 0.92710 -0.12700
N 	N 	0.00530 0.59650 0.96026 -0.13500
N 	N 	0.90330 0.93481 0.52978 -0.12900
N 	N 	0.10510 0.53750 0.51000 -0.12600
N 	N 	0.74170 0.71120 0.90930 -0.36000
N 	N 	0.82010 0.57680 0.81830 -0.37900
N 	N 	0.96750 0.76130 0.73153 -0.38800
N 	N 	0.93330 0.70280 0.57730 -0.37700
N 	N 	0.11950 0.57440 0.69740 -0.34700
N 	N 	0.50320 0.41450 0.07290 -0.12700
N 	N 	0.99470 0.40350 0.03974 -0.13500
N 	N 	0.09670 0.06519 0.47022 -0.12900
N 	N 	0.89490 0.46250 0.49000 -0.12600
N 	N 	0.25830 0.28880 0.09070 -0.36000
N 	N 	0.17990 0.42320 0.18170 -0.37900
N 	N 	0.03250 0.23870 0.26847 -0.38800
N 	N 	0.06670 0.29720 0.42270 -0.37700
N 	N 	0.88050 0.42560 0.30260 -0.34700
