data_crystal

_cell_length_a 28.65400
_cell_length_b 15.03320
_cell_length_c 16.58990
_cell_angle_alpha 90.00000
_cell_angle_beta  119.90400
_cell_angle_gamma 90.00000

_symmetry_space_group_name_	'P 1'
_symmetry_space_group_name_H-M	'P 1'

loop_
_symmetry_equiv_pos_as_xyz
  x,y,z

loop_
_atom_site_label
_atom_site_type_symbol
_atom_site_fract_x
_atom_site_fract_y
_atom_site_fract_z
_atom_site_charge
Zn	Zn	0.36124 0.19766 0.68724 1.20900
N 	N 	0.29134 0.12790 0.62420 -0.26400
N 	N 	0.41250 0.12780 0.80080 -0.27900
N 	N 	0.05958 0.87140 0.33810 -0.27400
O 	O 	0.48170 0.27200 0.38430 -0.35500
O 	O 	0.44720 0.20010 0.25530 -0.44700
O 	O 	0.15130 0.17880 0.29960 -0.48400
O 	O 	0.18710 0.21490 0.21380 -0.33100
O 	O 	0.28033 0.09700 0.38770 -0.29000
O 	O 	0.38020 0.20790 0.58800 -0.45600
O 	O 	0.38450 0.06160 0.57810 -0.31100
C 	C 	0.44690 0.21980 0.32710 0.37300
C 	C 	0.40330 0.18550 0.34320 -0.19700
C 	C 	0.35550 0.15910 0.26950 0.16000
H 	H 	0.35090 0.16050 0.20990 -0.01000
C 	C 	0.31350 0.13020 0.28220 -0.28300
H 	H 	0.28040 0.11550 0.23120 0.14100
C 	C 	0.32130 0.12350 0.37070 0.28500
C 	C 	0.36920 0.14870 0.44660 -0.21900
C 	C 	0.40900 0.18340 0.43080 0.13900
H 	H 	0.44030 0.20570 0.48070 0.00200
C 	C 	0.37900 0.13660 0.54450 0.38400
C 	C 	0.24320 0.03530 0.32400 0.27500
C 	C 	0.25830 0.94700 0.32820 -0.27000
H 	H 	0.29300 0.92980 0.37240 0.13900
C 	C 	0.22390 0.88610 0.26990 0.14300
H 	H 	0.23510 0.82780 0.27080 -0.00500
C 	C 	0.16910 0.91290 0.20530 -0.19400
H 	H 	0.14400 0.87080 0.16690 0.10600
C 	C 	0.15410 0.00060 0.20090 0.13300
H 	H 	0.11910 0.01810 0.15850 -0.01200
C 	C 	0.19150 0.06340 0.26010 -0.22400
C 	C 	0.17600 0.15920 0.25680 0.40000
C 	C 	0.29270 0.03820 0.61850 0.08300
H 	H 	0.32570 0.00940 0.65180 -0.00400
C 	C 	0.24750 0.98810 0.56540 -0.13100
H 	H 	0.25020 0.92660 0.56360 0.08100
C 	C 	0.19790 0.02900 0.51460 0.06300
C 	C 	0.19600 0.12160 0.52060 -0.13500
H 	H 	0.16330 0.15150 0.48770 0.09300
C 	C 	0.24270 0.16810 0.57550 0.08200
H 	H 	0.24080 0.22960 0.57940 0.00000
C 	C 	0.14920 0.97560 0.45380 0.07000
C 	C 	0.13910 0.89330 0.48470 -0.14700
H 	H 	0.16250 0.87240 0.54440 0.09300
C 	C 	0.09380 0.84480 0.42410 0.09300
H 	H 	0.08710 0.79140 0.44460 -0.01300
C 	C 	0.06780 0.94880 0.30990 0.09100
H 	H 	0.04330 0.96770 0.25000 -0.02800
C 	C 	0.11230 0.00450 0.36620 -0.15200
H 	H 	0.11640 0.05930 0.34430 0.10200
C 	C 	0.45000 0.07340 0.80200 0.08300
H 	H 	0.45260 0.06960 0.74840 -0.00400
C 	C 	0.48470 0.02280 0.87760 -0.13300
H 	H 	0.50980 0.98630 0.87420 0.09000
C 	C 	0.48210 0.02660 0.95870 0.06300
C 	C 	0.44310 0.08280 0.95690 -0.13200
H 	H 	0.43930 0.08760 0.00920 0.08700
C 	C 	0.40950 0.13230 0.87720 0.08200
H 	H 	0.38400 0.16980 0.87840 -0.00900
Zn	Zn	0.86124 0.69766 0.68724 1.21000
N 	N 	0.79134 0.62790 0.62420 -0.26300
N 	N 	0.91250 0.62780 0.80080 -0.26900
N 	N 	0.55958 0.37140 0.33810 -0.26700
O 	O 	0.98170 0.77200 0.38430 -0.33500
O 	O 	0.94720 0.70010 0.25530 -0.43200
O 	O 	0.65130 0.67880 0.29960 -0.48200
O 	O 	0.68710 0.71490 0.21380 -0.33000
O 	O 	0.78033 0.59700 0.38770 -0.29000
O 	O 	0.88020 0.70790 0.58800 -0.45300
O 	O 	0.88450 0.56160 0.57810 -0.30800
C 	C 	0.94690 0.71980 0.32710 0.36900
C 	C 	0.90330 0.68550 0.34320 -0.18900
C 	C 	0.85550 0.65910 0.26950 0.15500
H 	H 	0.85090 0.66050 0.20990 -0.00800
C 	C 	0.81350 0.63020 0.28220 -0.27800
H 	H 	0.78040 0.61550 0.23120 0.14000
C 	C 	0.82130 0.62350 0.37070 0.28200
C 	C 	0.86920 0.64870 0.44660 -0.21400
C 	C 	0.90900 0.68340 0.43080 0.13400
H 	H 	0.94030 0.70570 0.48070 0.01200
C 	C 	0.87900 0.63660 0.54450 0.38400
C 	C 	0.74320 0.53530 0.32400 0.27400
C 	C 	0.75830 0.44700 0.32820 -0.27000
H 	H 	0.79300 0.42980 0.37240 0.13900
C 	C 	0.72390 0.38610 0.26990 0.14300
H 	H 	0.73510 0.32780 0.27080 -0.00500
C 	C 	0.66910 0.41290 0.20530 -0.19300
H 	H 	0.64400 0.37080 0.16690 0.10700
C 	C 	0.65410 0.50060 0.20090 0.13300
H 	H 	0.61910 0.51810 0.15850 -0.00900
C 	C 	0.69150 0.56340 0.26010 -0.22300
C 	C 	0.67600 0.65920 0.25680 0.40000
C 	C 	0.79270 0.53820 0.61850 0.08200
H 	H 	0.82570 0.50940 0.65180 -0.00400
C 	C 	0.74750 0.48810 0.56540 -0.13100
H 	H 	0.75020 0.42660 0.56360 0.08100
C 	C 	0.69790 0.52900 0.51460 0.06400
C 	C 	0.69600 0.62160 0.52060 -0.13500
H 	H 	0.66330 0.65150 0.48770 0.09400
C 	C 	0.74270 0.66810 0.57550 0.08300
H 	H 	0.74080 0.72960 0.57940 -0.00000
C 	C 	0.64920 0.47560 0.45380 0.06900
C 	C 	0.63910 0.39330 0.48470 -0.14400
H 	H 	0.66250 0.37240 0.54440 0.09300
C 	C 	0.59380 0.34480 0.42410 0.09500
H 	H 	0.58710 0.29140 0.44460 -0.00800
C 	C 	0.56780 0.44880 0.30990 0.09200
H 	H 	0.54330 0.46770 0.25000 -0.01900
C 	C 	0.61230 0.50450 0.36620 -0.14900
H 	H 	0.61640 0.55930 0.34430 0.10300
C 	C 	0.95000 0.57340 0.80200 0.04400
H 	H 	0.95260 0.56960 0.74840 0.01800
C 	C 	0.98470 0.52280 0.87760 -0.04300
H 	H 	0.00980 0.48630 0.87420 0.03500
C 	C 	0.98210 0.52660 0.95870 0.05400
C 	C 	0.94310 0.58280 0.95690 -0.12200
H 	H 	0.93930 0.58760 0.00920 0.09000
C 	C 	0.90950 0.63230 0.87720 0.07800
H 	H 	0.88400 0.66980 0.87840 -0.00700
Zn	Zn	0.63876 0.19766 0.81276 1.21000
N 	N 	0.70866 0.12790 0.87580 -0.26400
N 	N 	0.58750 0.12780 0.69920 -0.27800
N 	N 	0.94042 0.87140 0.16190 -0.25800
O 	O 	0.51830 0.27200 0.11570 -0.35300
O 	O 	0.55280 0.20010 0.24470 -0.44600
O 	O 	0.84870 0.17880 0.20040 -0.47900
O 	O 	0.81290 0.21490 0.28620 -0.32900
O 	O 	0.71967 0.09700 0.11230 -0.28900
O 	O 	0.61980 0.20790 0.91200 -0.45600
O 	O 	0.61550 0.06160 0.92190 -0.31100
C 	C 	0.55310 0.21980 0.17290 0.37300
C 	C 	0.59670 0.18550 0.15680 -0.19600
C 	C 	0.64450 0.15910 0.23050 0.15900
H 	H 	0.64910 0.16050 0.29010 -0.01000
C 	C 	0.68650 0.13020 0.21780 -0.28200
H 	H 	0.71960 0.11550 0.26880 0.14100
C 	C 	0.67870 0.12350 0.12930 0.28400
C 	C 	0.63080 0.14870 0.05340 -0.21800
C 	C 	0.59100 0.18340 0.06920 0.13700
H 	H 	0.55970 0.20570 0.01930 0.00300
C 	C 	0.62100 0.13660 0.95550 0.38200
C 	C 	0.75680 0.03530 0.17600 0.27200
C 	C 	0.74170 0.94700 0.17180 -0.26700
H 	H 	0.70700 0.92980 0.12760 0.13800
C 	C 	0.77610 0.88610 0.23010 0.14100
H 	H 	0.76490 0.82780 0.22920 -0.00400
C 	C 	0.83090 0.91290 0.29470 -0.18900
H 	H 	0.85600 0.87080 0.33310 0.10700
C 	C 	0.84590 0.00060 0.29910 0.12900
H 	H 	0.88090 0.01810 0.34150 -0.00400
C 	C 	0.80850 0.06340 0.23990 -0.22000
C 	C 	0.82400 0.15920 0.24320 0.39900
C 	C 	0.70730 0.03820 0.88150 0.08500
H 	H 	0.67430 0.00940 0.84820 -0.00500
C 	C 	0.75250 0.98810 0.93460 -0.13500
H 	H 	0.74980 0.92660 0.93640 0.08100
C 	C 	0.80210 0.02900 0.98540 0.06700
C 	C 	0.80400 0.12160 0.97940 -0.14100
H 	H 	0.83670 0.15150 0.01230 0.09900
C 	C 	0.75730 0.16810 0.92450 0.08600
H 	H 	0.75920 0.22960 0.92060 -0.00200
C 	C 	0.85080 0.97560 0.04620 0.06900
C 	C 	0.86090 0.89330 0.01530 -0.13500
H 	H 	0.83750 0.87240 0.95560 0.08800
C 	C 	0.90620 0.84480 0.07590 0.09300
H 	H 	0.91290 0.79140 0.05540 -0.00100
C 	C 	0.93220 0.94880 0.19010 0.09500
H 	H 	0.95670 0.96770 0.25000 -0.01000
C 	C 	0.88770 0.00450 0.13380 -0.14700
H 	H 	0.88360 0.05930 0.15570 0.10500
C 	C 	0.55000 0.07340 0.69800 0.08300
H 	H 	0.54740 0.06960 0.75160 -0.00400
C 	C 	0.51530 0.02280 0.62240 -0.13300
H 	H 	0.49020 0.98630 0.62580 0.09000
C 	C 	0.51790 0.02660 0.54130 0.06300
C 	C 	0.55690 0.08280 0.54310 -0.13000
H 	H 	0.56070 0.08760 0.49080 0.08600
C 	C 	0.59050 0.13230 0.62280 0.08100
H 	H 	0.61600 0.16980 0.62160 -0.00900
Zn	Zn	0.13876 0.69766 0.81276 1.20900
N 	N 	0.20866 0.62790 0.87580 -0.26400
N 	N 	0.08750 0.62780 0.69920 -0.28900
N 	N 	0.44042 0.37140 0.16190 -0.26700
O 	O 	0.01830 0.77200 0.11570 -0.36900
O 	O 	0.05280 0.70010 0.24470 -0.45500
O 	O 	0.34870 0.67880 0.20040 -0.48200
O 	O 	0.31290 0.71490 0.28620 -0.33000
O 	O 	0.21967 0.59700 0.11230 -0.29000
O 	O 	0.11980 0.70790 0.91200 -0.46000
O 	O 	0.11550 0.56160 0.92190 -0.31300
C 	C 	0.05310 0.71980 0.17290 0.37600
C 	C 	0.09670 0.68550 0.15680 -0.20200
C 	C 	0.14450 0.65910 0.23050 0.16300
H 	H 	0.14910 0.66050 0.29010 -0.01200
C 	C 	0.18650 0.63020 0.21780 -0.28500
H 	H 	0.21960 0.61550 0.26880 0.14200
C 	C 	0.17870 0.62350 0.12930 0.28600
C 	C 	0.13080 0.64870 0.05340 -0.22000
C 	C 	0.09100 0.68340 0.06920 0.14100
H 	H 	0.05970 0.70570 0.01930 -0.00400
C 	C 	0.12100 0.63660 0.95550 0.38000
C 	C 	0.25680 0.53530 0.17600 0.27500
C 	C 	0.24170 0.44700 0.17180 -0.27000
H 	H 	0.20700 0.42980 0.12760 0.13900
C 	C 	0.27610 0.38610 0.23010 0.14400
H 	H 	0.26490 0.32780 0.22920 -0.00500
C 	C 	0.33090 0.41290 0.29470 -0.19300
H 	H 	0.35600 0.37080 0.33310 0.10700
C 	C 	0.34590 0.50060 0.29910 0.13300
H 	H 	0.38090 0.51810 0.34150 -0.00900
C 	C 	0.30850 0.56340 0.23990 -0.22300
C 	C 	0.32400 0.65920 0.24320 0.40000
C 	C 	0.20730 0.53820 0.88150 0.08300
H 	H 	0.17430 0.50940 0.84820 -0.00500
C 	C 	0.25250 0.48810 0.93460 -0.13200
H 	H 	0.24980 0.42660 0.93640 0.08100
C 	C 	0.30210 0.52900 0.98540 0.06500
C 	C 	0.30400 0.62160 0.97940 -0.14100
H 	H 	0.33670 0.65150 0.01230 0.09800
C 	C 	0.25730 0.66810 0.92450 0.08500
H 	H 	0.25920 0.72960 0.92060 -0.00100
C 	C 	0.35080 0.47560 0.04620 0.06900
C 	C 	0.36090 0.39330 0.01530 -0.14100
H 	H 	0.33750 0.37240 0.95560 0.09000
C 	C 	0.40620 0.34480 0.07590 0.09300
H 	H 	0.41290 0.29140 0.05540 -0.00700
C 	C 	0.43220 0.44880 0.19010 0.09200
H 	H 	0.45670 0.46770 0.25000 -0.01900
C 	C 	0.38770 0.50450 0.13380 -0.14800
H 	H 	0.38360 0.55930 0.15570 0.10300
C 	C 	0.05000 0.57340 0.69800 0.12300
H 	H 	0.04740 0.56960 0.75160 -0.02600
C 	C 	0.01530 0.52280 0.62240 -0.22500
H 	H 	0.99020 0.48630 0.62580 0.14700
C 	C 	0.01790 0.52660 0.54130 0.07200
C 	C 	0.05690 0.58280 0.54310 -0.14500
H 	H 	0.06070 0.58760 0.49080 0.08600
C 	C 	0.09050 0.63230 0.62280 0.08700
H 	H 	0.11600 0.66980 0.62160 -0.01200
Zn	Zn	0.63876 0.80234 0.31276 1.21000
N 	N 	0.70866 0.87210 0.37580 -0.26300
N 	N 	0.58750 0.87220 0.19920 -0.27800
N 	N 	0.94042 0.12860 0.66190 -0.25800
O 	O 	0.51830 0.72800 0.61570 -0.35400
O 	O 	0.55280 0.79990 0.74470 -0.44600
O 	O 	0.84870 0.82120 0.70040 -0.48000
O 	O 	0.81290 0.78510 0.78620 -0.33000
O 	O 	0.71967 0.90300 0.61230 -0.29000
O 	O 	0.61980 0.79210 0.41200 -0.45600
O 	O 	0.61550 0.93840 0.42190 -0.31100
C 	C 	0.55310 0.78020 0.67290 0.37300
C 	C 	0.59670 0.81450 0.65680 -0.19700
C 	C 	0.64450 0.84090 0.73050 0.16000
H 	H 	0.64910 0.83950 0.79010 -0.01100
C 	C 	0.68650 0.86980 0.71780 -0.28300
H 	H 	0.71960 0.88450 0.76880 0.14100
C 	C 	0.67870 0.87650 0.62930 0.28500
C 	C 	0.63080 0.85130 0.55340 -0.21900
C 	C 	0.59100 0.81660 0.56920 0.13900
H 	H 	0.55970 0.79430 0.51930 0.00200
C 	C 	0.62100 0.86340 0.45550 0.38400
C 	C 	0.75680 0.96470 0.67600 0.27300
C 	C 	0.74170 0.05300 0.67180 -0.26700
H 	H 	0.70700 0.07020 0.62760 0.13800
C 	C 	0.77610 0.11390 0.73010 0.14100
H 	H 	0.76490 0.17220 0.72920 -0.00400
C 	C 	0.83090 0.08710 0.79470 -0.19000
H 	H 	0.85600 0.12920 0.83310 0.10600
C 	C 	0.84590 0.99940 0.79910 0.12900
H 	H 	0.88090 0.98190 0.84150 -0.00500
C 	C 	0.80850 0.93660 0.73990 -0.22100
C 	C 	0.82400 0.84080 0.74320 0.39900
C 	C 	0.70730 0.96180 0.38150 0.08300
H 	H 	0.67430 0.99060 0.34820 -0.00400
C 	C 	0.75250 0.01190 0.43460 -0.13200
H 	H 	0.74980 0.07340 0.43640 0.08100
C 	C 	0.80210 0.97100 0.48540 0.06500
C 	C 	0.80400 0.87840 0.47940 -0.13600
H 	H 	0.83670 0.84850 0.51230 0.09600
C 	C 	0.75730 0.83190 0.42450 0.08300
H 	H 	0.75920 0.77040 0.42060 -0.00000
C 	C 	0.85080 0.02440 0.54620 0.06900
C 	C 	0.86090 0.10670 0.51530 -0.14200
H 	H 	0.83750 0.12760 0.45560 0.09200
C 	C 	0.90620 0.15520 0.57590 0.09600
H 	H 	0.91290 0.20860 0.55540 -0.00200
C 	C 	0.93220 0.05120 0.69010 0.09400
H 	H 	0.95670 0.03230 0.75000 -0.01000
C 	C 	0.88770 0.99550 0.63380 -0.14600
H 	H 	0.88360 0.94070 0.65570 0.10400
C 	C 	0.55000 0.92660 0.19800 0.08200
H 	H 	0.54740 0.93040 0.25160 -0.00300
C 	C 	0.51530 0.97720 0.12240 -0.13100
H 	H 	0.49020 0.01370 0.12580 0.08900
C 	C 	0.51790 0.97340 0.04130 0.06200
C 	C 	0.55690 0.91720 0.04310 -0.12400
H 	H 	0.56070 0.91240 0.99080 0.08200
C 	C 	0.59050 0.86770 0.12280 0.07900
H 	H 	0.61600 0.83020 0.12160 -0.00700
Zn	Zn	0.13876 0.30234 0.31276 1.20900
N 	N 	0.20866 0.37210 0.37580 -0.26300
N 	N 	0.08750 0.37220 0.19920 -0.28800
N 	N 	0.44042 0.62860 0.66190 -0.26700
O 	O 	0.01830 0.22800 0.61570 -0.37000
O 	O 	0.05280 0.29990 0.74470 -0.45500
O 	O 	0.34870 0.32120 0.70040 -0.48200
O 	O 	0.31290 0.28510 0.78620 -0.33000
O 	O 	0.21967 0.40300 0.61230 -0.29100
O 	O 	0.11980 0.29210 0.41200 -0.46000
O 	O 	0.11550 0.43840 0.42190 -0.31300
C 	C 	0.05310 0.28020 0.67290 0.37600
C 	C 	0.09670 0.31450 0.65680 -0.20400
C 	C 	0.14450 0.34090 0.73050 0.16500
H 	H 	0.14910 0.33950 0.79010 -0.01200
C 	C 	0.18650 0.36980 0.71780 -0.28700
H 	H 	0.21960 0.38450 0.76880 0.14200
C 	C 	0.17870 0.37650 0.62930 0.28800
C 	C 	0.13080 0.35130 0.55340 -0.22400
C 	C 	0.09100 0.31660 0.56920 0.14300
H 	H 	0.05970 0.29430 0.51930 -0.00700
C 	C 	0.12100 0.36340 0.45550 0.38400
C 	C 	0.25680 0.46470 0.67600 0.27500
C 	C 	0.24170 0.55300 0.67180 -0.27000
H 	H 	0.20700 0.57020 0.62760 0.13900
C 	C 	0.27610 0.61390 0.73010 0.14400
H 	H 	0.26490 0.67220 0.72920 -0.00500
C 	C 	0.33090 0.58710 0.79470 -0.19400
H 	H 	0.35600 0.62920 0.83310 0.10600
C 	C 	0.34590 0.49940 0.79910 0.13300
H 	H 	0.38090 0.48190 0.84150 -0.00900
C 	C 	0.30850 0.43660 0.73990 -0.22400
C 	C 	0.32400 0.34080 0.74320 0.40000
C 	C 	0.20730 0.46180 0.38150 0.08300
H 	H 	0.17430 0.49060 0.34820 -0.00500
C 	C 	0.25250 0.51190 0.43460 -0.13100
H 	H 	0.24980 0.57340 0.43640 0.08100
C 	C 	0.30210 0.47100 0.48540 0.06400
C 	C 	0.30400 0.37840 0.47940 -0.13500
H 	H 	0.33670 0.34850 0.51230 0.09400
C 	C 	0.25730 0.33190 0.42450 0.08300
H 	H 	0.25920 0.27040 0.42060 0.00000
C 	C 	0.35080 0.52440 0.54620 0.06900
C 	C 	0.36090 0.60670 0.51530 -0.14400
H 	H 	0.33750 0.62760 0.45560 0.09300
C 	C 	0.40620 0.65520 0.57590 0.09500
H 	H 	0.41290 0.70860 0.55540 -0.00800
C 	C 	0.43220 0.55120 0.69010 0.09200
H 	H 	0.45670 0.53230 0.75000 -0.01900
C 	C 	0.38770 0.49550 0.63380 -0.14900
H 	H 	0.38360 0.44070 0.65570 0.10300
C 	C 	0.05000 0.42660 0.19800 0.12200
H 	H 	0.04740 0.43040 0.25160 -0.02600
C 	C 	0.01530 0.47720 0.12240 -0.22400
H 	H 	0.99020 0.51370 0.12580 0.14700
C 	C 	0.01790 0.47340 0.04130 0.07300
C 	C 	0.05690 0.41720 0.04310 -0.13900
H 	H 	0.06070 0.41240 0.99080 0.08200
C 	C 	0.09050 0.36770 0.12280 0.08500
H 	H 	0.11600 0.33020 0.12160 -0.01100
Zn	Zn	0.36124 0.80234 0.18724 1.21000
N 	N 	0.29134 0.87210 0.12420 -0.26300
N 	N 	0.41250 0.87220 0.30080 -0.27800
N 	N 	0.05958 0.12860 0.83810 -0.27400
O 	O 	0.48170 0.72800 0.88430 -0.35400
O 	O 	0.44720 0.79990 0.75530 -0.44600
O 	O 	0.15130 0.82120 0.79960 -0.48400
O 	O 	0.18710 0.78510 0.71380 -0.33100
O 	O 	0.28033 0.90300 0.88770 -0.29100
O 	O 	0.38020 0.79210 0.08800 -0.45700
O 	O 	0.38450 0.93840 0.07810 -0.31100
C 	C 	0.44690 0.78020 0.82710 0.37400
C 	C 	0.40330 0.81450 0.84320 -0.19900
C 	C 	0.35550 0.84090 0.76950 0.16100
H 	H 	0.35090 0.83950 0.70990 -0.01100
C 	C 	0.31350 0.86980 0.78220 -0.28400
H 	H 	0.28040 0.88450 0.73120 0.14200
C 	C 	0.32130 0.87650 0.87070 0.28600
C 	C 	0.36920 0.85130 0.94660 -0.22300
C 	C 	0.40900 0.81660 0.93080 0.14000
H 	H 	0.44030 0.79430 0.98070 0.00100
C 	C 	0.37900 0.86340 0.04450 0.38700
C 	C 	0.24320 0.96470 0.82400 0.27400
C 	C 	0.25830 0.05300 0.82820 -0.26900
H 	H 	0.29300 0.07020 0.87240 0.13900
C 	C 	0.22390 0.11390 0.76990 0.14300
H 	H 	0.23510 0.17220 0.77080 -0.00500
C 	C 	0.16910 0.08710 0.70530 -0.19300
H 	H 	0.14400 0.12920 0.66690 0.10500
C 	C 	0.15410 0.99940 0.70090 0.13300
H 	H 	0.11910 0.98190 0.65850 -0.01300
C 	C 	0.19150 0.93660 0.76010 -0.22400
C 	C 	0.17600 0.84080 0.75680 0.40000
C 	C 	0.29270 0.96180 0.11850 0.08300
H 	H 	0.32570 0.99060 0.15180 -0.00400
C 	C 	0.24750 0.01190 0.06540 -0.13200
H 	H 	0.25020 0.07340 0.06360 0.08100
C 	C 	0.19790 0.97100 0.01460 0.06400
C 	C 	0.19600 0.87840 0.02060 -0.12800
H 	H 	0.16330 0.84850 0.98770 0.08800
C 	C 	0.24270 0.83190 0.07550 0.08000
H 	H 	0.24080 0.77040 0.07940 0.00200
C 	C 	0.14920 0.02440 0.95380 0.07100
C 	C 	0.13910 0.10670 0.98470 -0.15200
H 	H 	0.16250 0.12760 0.04440 0.09500
C 	C 	0.09380 0.15520 0.92410 0.09600
H 	H 	0.08710 0.20860 0.94460 -0.01400
C 	C 	0.06780 0.05120 0.80990 0.09300
H 	H 	0.04330 0.03230 0.75000 -0.02800
C 	C 	0.11230 0.99550 0.86620 -0.15500
H 	H 	0.11640 0.94070 0.84430 0.10200
C 	C 	0.45000 0.92660 0.30200 0.08300
H 	H 	0.45260 0.93040 0.24840 -0.00400
C 	C 	0.48470 0.97720 0.37760 -0.13300
H 	H 	0.50980 0.01370 0.37420 0.09000
C 	C 	0.48210 0.97340 0.45870 0.06300
C 	C 	0.44310 0.91720 0.45690 -0.13000
H 	H 	0.43930 0.91240 0.50920 0.08600
C 	C 	0.40950 0.86770 0.37720 0.08100
H 	H 	0.38400 0.83020 0.37840 -0.00900
Zn	Zn	0.86124 0.30234 0.18724 1.21000
N 	N 	0.79134 0.37210 0.12420 -0.26300
N 	N 	0.91250 0.37220 0.30080 -0.26800
N 	N 	0.55958 0.62860 0.83810 -0.26800
O 	O 	0.98170 0.22800 0.88430 -0.33600
O 	O 	0.94720 0.29990 0.75530 -0.43300
O 	O 	0.65130 0.32120 0.79960 -0.48200
O 	O 	0.68710 0.28510 0.71380 -0.33000
O 	O 	0.78033 0.40300 0.88770 -0.29100
O 	O 	0.88020 0.29210 0.08800 -0.45300
O 	O 	0.88450 0.43840 0.07810 -0.30900
C 	C 	0.94690 0.28020 0.82710 0.37000
C 	C 	0.90330 0.31450 0.84320 -0.19100
C 	C 	0.85550 0.34090 0.76950 0.15600
H 	H 	0.85090 0.33950 0.70990 -0.00900
C 	C 	0.81350 0.36980 0.78220 -0.28000
H 	H 	0.78040 0.38450 0.73120 0.14000
C 	C 	0.82130 0.37650 0.87070 0.28400
C 	C 	0.86920 0.35130 0.94660 -0.21800
C 	C 	0.90900 0.31660 0.93080 0.13600
H 	H 	0.94030 0.29430 0.98070 0.01000
C 	C 	0.87900 0.36340 0.04450 0.38700
C 	C 	0.74320 0.46470 0.82400 0.27400
C 	C 	0.75830 0.55300 0.82820 -0.27000
H 	H 	0.79300 0.57020 0.87240 0.13900
C 	C 	0.72390 0.61390 0.76990 0.14300
H 	H 	0.73510 0.67220 0.77080 -0.00500
C 	C 	0.66910 0.58710 0.70530 -0.19300
H 	H 	0.64400 0.62920 0.66690 0.10700
C 	C 	0.65410 0.49940 0.70090 0.13300
H 	H 	0.61910 0.48190 0.65850 -0.00900
C 	C 	0.69150 0.43660 0.76010 -0.22300
C 	C 	0.67600 0.34080 0.75680 0.40000
C 	C 	0.79270 0.46180 0.11850 0.08200
H 	H 	0.82570 0.49060 0.15180 -0.00400
C 	C 	0.74750 0.51190 0.06540 -0.13000
H 	H 	0.75020 0.57340 0.06360 0.08100
C 	C 	0.69790 0.47100 0.01460 0.06400
C 	C 	0.69600 0.37840 0.02060 -0.13100
H 	H 	0.66330 0.34850 0.98770 0.09200
C 	C 	0.74270 0.33190 0.07550 0.08100
H 	H 	0.74080 0.27040 0.07940 0.00100
C 	C 	0.64920 0.52440 0.95380 0.07000
C 	C 	0.63910 0.60670 0.98470 -0.15000
H 	H 	0.66250 0.62760 0.04440 0.09600
C 	C 	0.59380 0.65520 0.92410 0.09700
H 	H 	0.58710 0.70860 0.94460 -0.00900
C 	C 	0.56780 0.55120 0.80990 0.09300
H 	H 	0.54330 0.53230 0.75000 -0.01900
C 	C 	0.61230 0.49550 0.86620 -0.14900
H 	H 	0.61640 0.44070 0.84430 0.10300
C 	C 	0.95000 0.42660 0.30200 0.04400
H 	H 	0.95260 0.43040 0.24840 0.01800
C 	C 	0.98470 0.47720 0.37760 -0.04200
H 	H 	0.00980 0.51370 0.37420 0.03500
C 	C 	0.98210 0.47340 0.45870 0.05400
C 	C 	0.94310 0.41720 0.45690 -0.11500
H 	H 	0.93930 0.41240 0.50920 0.08500
C 	C 	0.90950 0.36770 0.37720 0.07600
H 	H 	0.88400 0.33020 0.37840 -0.00500
Zn	Zn	0.50000 0.28606 0.25000 1.20900
Zn	Zn	0.00000 0.78606 0.25000 1.19800
Zn	Zn	0.50000 0.71394 0.75000 1.20900
Zn	Zn	0.00000 0.21394 0.75000 1.19800
