data_crystal

_cell_length_a 20.46390
_cell_length_b 20.46390
_cell_length_c 20.46390
_cell_angle_alpha 90.00000
_cell_angle_beta  90.00000
_cell_angle_gamma 90.00000

_symmetry_space_group_name_	'P 1'
_symmetry_space_group_name_H-M	'P 1'

loop_
_symmetry_equiv_pos_as_xyz
  x,y,z

loop_
_atom_site_label
_atom_site_type_symbol
_atom_site_fract_x
_atom_site_fract_y
_atom_site_fract_z
_atom_site_charge
O 	O 	0.91710 0.30390 0.33600 -0.43900
O 	O 	0.93720 0.21330 0.28070 -0.36200
C 	C 	0.84600 0.28020 0.24760 -0.13300
C 	C 	0.80800 0.33260 0.26040 0.14200
C 	C 	0.90390 0.26380 0.29020 0.33100
O 	O 	0.41710 0.80390 0.83600 -0.44700
O 	O 	0.43720 0.71330 0.78070 -0.37400
C 	C 	0.34600 0.78020 0.74760 -0.13400
C 	C 	0.30800 0.83260 0.76040 0.15100
C 	C 	0.40390 0.76380 0.79020 0.33300
O 	O 	0.58290 0.69610 0.83600 -0.45100
O 	O 	0.56280 0.78670 0.78070 -0.36900
C 	C 	0.65400 0.71980 0.74760 -0.13400
C 	C 	0.69200 0.66740 0.76040 0.14700
C 	C 	0.59610 0.73620 0.79020 0.33300
O 	O 	0.08290 0.19610 0.33600 -0.47800
O 	O 	0.06280 0.28670 0.28070 -0.40000
C 	C 	0.15400 0.21980 0.24760 -0.13900
C 	C 	0.19200 0.16740 0.26040 0.12500
C 	C 	0.09610 0.23620 0.29020 0.32900
O 	O 	0.08290 0.80390 0.16400 -0.47200
O 	O 	0.06280 0.71330 0.21930 -0.39700
C 	C 	0.15400 0.78020 0.25240 -0.13900
C 	C 	0.19200 0.83260 0.23960 0.13700
C 	C 	0.09610 0.76380 0.20980 0.33200
O 	O 	0.58290 0.30390 0.66400 -0.45700
O 	O 	0.56280 0.21330 0.71930 -0.38000
C 	C 	0.65400 0.28020 0.75240 -0.13600
C 	C 	0.69200 0.33260 0.73960 0.14200
C 	C 	0.59610 0.26380 0.70980 0.33200
O 	O 	0.41710 0.19610 0.66400 -0.46200
O 	O 	0.43720 0.28670 0.71930 -0.37600
C 	C 	0.34600 0.21980 0.75240 -0.13600
C 	C 	0.30800 0.16740 0.73960 0.13400
C 	C 	0.40390 0.23620 0.70980 0.33100
O 	O 	0.91710 0.69610 0.16400 -0.44300
O 	O 	0.93720 0.78670 0.21930 -0.35200
C 	C 	0.84600 0.71980 0.25240 -0.13200
C 	C 	0.80800 0.66740 0.23960 0.14100
C 	C 	0.90390 0.73620 0.20980 0.33000
O 	O 	0.33600 0.91710 0.30390 -0.44000
O 	O 	0.28070 0.93720 0.21330 -0.36300
C 	C 	0.24760 0.84600 0.28020 -0.13400
C 	C 	0.26040 0.80800 0.33260 0.14100
C 	C 	0.29020 0.90390 0.26380 0.33000
O 	O 	0.83600 0.41710 0.80390 -0.44800
O 	O 	0.78070 0.43720 0.71330 -0.37500
C 	C 	0.74760 0.34600 0.78020 -0.13500
C 	C 	0.76040 0.30800 0.83260 0.15000
C 	C 	0.79020 0.40390 0.76380 0.33300
O 	O 	0.83600 0.58290 0.69610 -0.45100
O 	O 	0.78070 0.56280 0.78670 -0.36900
C 	C 	0.74760 0.65400 0.71980 -0.13400
C 	C 	0.76040 0.69200 0.66740 0.14700
C 	C 	0.79020 0.59610 0.73620 0.33300
O 	O 	0.33600 0.08290 0.19610 -0.47800
O 	O 	0.28070 0.06280 0.28670 -0.40000
C 	C 	0.24760 0.15400 0.21980 -0.13900
C 	C 	0.26040 0.19200 0.16740 0.12500
C 	C 	0.29020 0.09610 0.23620 0.32900
O 	O 	0.16400 0.08290 0.80390 -0.47200
O 	O 	0.21930 0.06280 0.71330 -0.39700
C 	C 	0.25240 0.15400 0.78020 -0.13900
C 	C 	0.23960 0.19200 0.83260 0.13700
C 	C 	0.20980 0.09610 0.76380 0.33200
O 	O 	0.66400 0.58290 0.30390 -0.45700
O 	O 	0.71930 0.56280 0.21330 -0.38000
C 	C 	0.75240 0.65400 0.28020 -0.13600
C 	C 	0.73960 0.69200 0.33260 0.14200
C 	C 	0.70980 0.59610 0.26380 0.33200
O 	O 	0.66400 0.41710 0.19610 -0.46200
O 	O 	0.71930 0.43720 0.28670 -0.37600
C 	C 	0.75240 0.34600 0.21980 -0.13600
C 	C 	0.73960 0.30800 0.16740 0.13400
C 	C 	0.70980 0.40390 0.23620 0.33100
O 	O 	0.16400 0.91710 0.69610 -0.44300
O 	O 	0.21930 0.93720 0.78670 -0.35200
C 	C 	0.25240 0.84600 0.71980 -0.13200
C 	C 	0.23960 0.80800 0.66740 0.14100
C 	C 	0.20980 0.90390 0.73620 0.33000
O 	O 	0.30390 0.33600 0.91710 -0.44000
O 	O 	0.21330 0.28070 0.93720 -0.36300
C 	C 	0.28020 0.24760 0.84600 -0.13400
C 	C 	0.33260 0.26040 0.80800 0.14100
C 	C 	0.26380 0.29020 0.90390 0.33000
O 	O 	0.80390 0.83600 0.41710 -0.44800
O 	O 	0.71330 0.78070 0.43720 -0.37500
C 	C 	0.78020 0.74760 0.34600 -0.13500
C 	C 	0.83260 0.76040 0.30800 0.15000
C 	C 	0.76380 0.79020 0.40390 0.33300
O 	O 	0.69610 0.83600 0.58290 -0.45100
O 	O 	0.78670 0.78070 0.56280 -0.36900
C 	C 	0.71980 0.74760 0.65400 -0.13400
C 	C 	0.66740 0.76040 0.69200 0.14700
C 	C 	0.73620 0.79020 0.59610 0.33300
O 	O 	0.19610 0.33600 0.08290 -0.47800
O 	O 	0.28670 0.28070 0.06280 -0.40000
C 	C 	0.21980 0.24760 0.15400 -0.13900
C 	C 	0.16740 0.26040 0.19200 0.12500
C 	C 	0.23620 0.29020 0.09610 0.32900
O 	O 	0.80390 0.16400 0.08290 -0.47200
O 	O 	0.71330 0.21930 0.06280 -0.39700
C 	C 	0.78020 0.25240 0.15400 -0.13900
C 	C 	0.83260 0.23960 0.19200 0.13700
C 	C 	0.76380 0.20980 0.09610 0.33200
O 	O 	0.30390 0.66400 0.58290 -0.45700
O 	O 	0.21330 0.71930 0.56280 -0.38000
C 	C 	0.28020 0.75240 0.65400 -0.13600
C 	C 	0.33260 0.73960 0.69200 0.14200
C 	C 	0.26380 0.70980 0.59610 0.33200
O 	O 	0.19610 0.66400 0.41710 -0.46200
O 	O 	0.28670 0.71930 0.43720 -0.37600
C 	C 	0.21980 0.75240 0.34600 -0.13600
C 	C 	0.16740 0.73960 0.30800 0.13400
C 	C 	0.23620 0.70980 0.40390 0.33100
O 	O 	0.69610 0.16400 0.91710 -0.44300
O 	O 	0.78670 0.21930 0.93720 -0.35200
C 	C 	0.71980 0.25240 0.84600 -0.13200
C 	C 	0.66740 0.23960 0.80800 0.14100
C 	C 	0.73620 0.20980 0.90390 0.33000
O 	O 	0.55390 0.16710 0.58600 -0.46500
O 	O 	0.46330 0.18720 0.53070 -0.38400
C 	C 	0.53020 0.09600 0.49760 -0.16700
C 	C 	0.58260 0.05800 0.51040 0.17000
C 	C 	0.51380 0.15390 0.54020 0.33800
O 	O 	0.05390 0.66710 0.08600 -0.44200
O 	O 	0.96330 0.68720 0.03070 -0.32200
C 	C 	0.03020 0.59600 0.99760 -0.05500
C 	C 	0.08260 0.55800 0.01040 0.01700
C 	C 	0.01380 0.65390 0.04020 0.19700
O 	O 	0.94610 0.83290 0.08600 -0.43400
O 	O 	0.03670 0.81280 0.03070 -0.42000
C 	C 	0.96980 0.90400 0.99760 0.09400
C 	C 	0.91740 0.94200 0.01040 -0.03200
C 	C 	0.98620 0.84610 0.04020 0.30200
O 	O 	0.44610 0.33290 0.58600 -0.45800
O 	O 	0.53670 0.31280 0.53070 -0.37800
C 	C 	0.46980 0.40400 0.49760 -0.13600
C 	C 	0.41740 0.44200 0.51040 0.13900
C 	C 	0.48620 0.34610 0.54020 0.33100
O 	O 	0.05390 0.33290 0.41400 -0.45800
O 	O 	0.96330 0.31280 0.46930 -0.32700
C 	C 	0.03020 0.40400 0.50240 -0.21500
C 	C 	0.08260 0.44200 0.48960 0.16500
C 	C 	0.01380 0.34610 0.45980 0.28300
O 	O 	0.55390 0.83290 0.91400 -0.46000
O 	O 	0.46330 0.81280 0.96930 -0.37300
C 	C 	0.53020 0.90400 0.00240 -0.24400
C 	C 	0.58260 0.94200 0.98960 0.24300
C 	C 	0.51380 0.84610 0.95980 0.40200
O 	O 	0.44610 0.66710 0.91400 -0.47100
O 	O 	0.53670 0.68720 0.96930 -0.37700
C 	C 	0.46980 0.59600 0.00240 -0.28500
C 	C 	0.41740 0.55800 0.98960 0.28200
C 	C 	0.48620 0.65390 0.95980 0.41300
O 	O 	0.94610 0.16710 0.41400 -0.46200
O 	O 	0.03670 0.18720 0.46930 -0.43100
C 	C 	0.96980 0.09600 0.50240 -0.08300
C 	C 	0.91740 0.05800 0.48960 0.14000
C 	C 	0.98620 0.15390 0.45980 0.38500
O 	O 	0.16710 0.58600 0.55390 -0.46500
O 	O 	0.18720 0.53070 0.46330 -0.38400
C 	C 	0.09600 0.49760 0.53020 -0.16700
C 	C 	0.05800 0.51040 0.58260 0.17000
C 	C 	0.15390 0.54020 0.51380 0.33800
O 	O 	0.66710 0.08600 0.05390 -0.44200
O 	O 	0.68720 0.03070 0.96330 -0.32200
C 	C 	0.59600 0.99760 0.03020 -0.05500
C 	C 	0.55800 0.01040 0.08260 0.01700
C 	C 	0.65390 0.04020 0.01380 0.19700
O 	O 	0.83290 0.08600 0.94610 -0.43400
O 	O 	0.81280 0.03070 0.03670 -0.42000
C 	C 	0.90400 0.99760 0.96980 0.09400
C 	C 	0.94200 0.01040 0.91740 -0.03200
C 	C 	0.84610 0.04020 0.98620 0.30200
O 	O 	0.33290 0.58600 0.44610 -0.45800
O 	O 	0.31280 0.53070 0.53670 -0.37800
C 	C 	0.40400 0.49760 0.46980 -0.13600
C 	C 	0.44200 0.51040 0.41740 0.13900
C 	C 	0.34610 0.54020 0.48620 0.33100
O 	O 	0.33290 0.41400 0.05390 -0.45800
O 	O 	0.31280 0.46930 0.96330 -0.32700
C 	C 	0.40400 0.50240 0.03020 -0.21500
C 	C 	0.44200 0.48960 0.08260 0.16500
C 	C 	0.34610 0.45980 0.01380 0.28300
O 	O 	0.83290 0.91400 0.55390 -0.46000
O 	O 	0.81280 0.96930 0.46330 -0.37300
C 	C 	0.90400 0.00240 0.53020 -0.24400
C 	C 	0.94200 0.98960 0.58260 0.24300
C 	C 	0.84610 0.95980 0.51380 0.40200
O 	O 	0.66710 0.91400 0.44610 -0.47100
O 	O 	0.68720 0.96930 0.53670 -0.37700
C 	C 	0.59600 0.00240 0.46980 -0.28500
C 	C 	0.55800 0.98960 0.41740 0.28200
C 	C 	0.65390 0.95980 0.48620 0.41300
O 	O 	0.16710 0.41400 0.94610 -0.46200
O 	O 	0.18720 0.46930 0.03670 -0.43100
C 	C 	0.09600 0.50240 0.96980 -0.08300
C 	C 	0.05800 0.48960 0.91740 0.14000
C 	C 	0.15390 0.45980 0.98620 0.38500
O 	O 	0.58600 0.55390 0.16710 -0.46500
O 	O 	0.53070 0.46330 0.18720 -0.38400
C 	C 	0.49760 0.53020 0.09600 -0.16700
C 	C 	0.51040 0.58260 0.05800 0.17000
C 	C 	0.54020 0.51380 0.15390 0.33800
O 	O 	0.08600 0.05390 0.66710 -0.44200
O 	O 	0.03070 0.96330 0.68720 -0.32200
C 	C 	0.99760 0.03020 0.59600 -0.05500
C 	C 	0.01040 0.08260 0.55800 0.01700
C 	C 	0.04020 0.01380 0.65390 0.19700
O 	O 	0.08600 0.94610 0.83290 -0.43400
O 	O 	0.03070 0.03670 0.81280 -0.42000
C 	C 	0.99760 0.96980 0.90400 0.09400
C 	C 	0.01040 0.91740 0.94200 -0.03200
C 	C 	0.04020 0.98620 0.84610 0.30200
O 	O 	0.58600 0.44610 0.33290 -0.45800
O 	O 	0.53070 0.53670 0.31280 -0.37800
C 	C 	0.49760 0.46980 0.40400 -0.13600
C 	C 	0.51040 0.41740 0.44200 0.13900
C 	C 	0.54020 0.48620 0.34610 0.33100
O 	O 	0.41400 0.05390 0.33290 -0.45800
O 	O 	0.46930 0.96330 0.31280 -0.32700
C 	C 	0.50240 0.03020 0.40400 -0.21500
C 	C 	0.48960 0.08260 0.44200 0.16500
C 	C 	0.45980 0.01380 0.34610 0.28300
O 	O 	0.91400 0.55390 0.83290 -0.46000
O 	O 	0.96930 0.46330 0.81280 -0.37300
C 	C 	0.00240 0.53020 0.90400 -0.24400
C 	C 	0.98960 0.58260 0.94200 0.24300
C 	C 	0.95980 0.51380 0.84610 0.40200
O 	O 	0.91400 0.44610 0.66710 -0.47100
O 	O 	0.96930 0.53670 0.68720 -0.37700
C 	C 	0.00240 0.46980 0.59600 -0.28500
C 	C 	0.98960 0.41740 0.55800 0.28200
C 	C 	0.95980 0.48620 0.65390 0.41300
O 	O 	0.41400 0.94610 0.16710 -0.46200
O 	O 	0.46930 0.03670 0.18720 -0.43100
C 	C 	0.50240 0.96980 0.09600 -0.08300
C 	C 	0.48960 0.91740 0.05800 0.14000
C 	C 	0.45980 0.98620 0.15390 0.38500
In	In	0.00000 0.25000 0.37500 1.98100
In	In	0.50000 0.75000 0.87500 1.99700
In	In	-0.00000 0.75000 0.12500 1.98200
In	In	0.50000 0.25000 0.62500 1.99600
In	In	0.37500 0.00000 0.25000 1.98100
In	In	0.87500 0.50000 0.75000 1.99700
In	In	0.12500 0.00000 0.75000 1.98200
In	In	0.62500 0.50000 0.25000 1.99600
In	In	0.25000 0.37500 -0.00000 1.98100
In	In	0.75000 0.87500 0.50000 1.99700
In	In	0.75000 0.12500 -0.00000 1.98200
In	In	0.25000 0.62500 0.50000 1.99600
