data_crystal

_cell_length_a 12.52470
_cell_length_b 32.21840
_cell_length_c 7.61010
_cell_angle_alpha 90.00000
_cell_angle_beta  98.85600
_cell_angle_gamma 90.00000

_symmetry_space_group_name_	'P 1'
_symmetry_space_group_name_H-M	'P 1'

loop_
_symmetry_equiv_pos_as_xyz
  x,y,z

loop_
_atom_site_label
_atom_site_type_symbol
_atom_site_fract_x
_atom_site_fract_y
_atom_site_fract_z
_atom_site_charge
Tb	Tb	0.97132 0.61501 0.18995 1.53900
O 	O 	0.13160 0.59160 0.09690 -0.41100
O 	O 	0.81470 0.58390 0.27600 -0.43900
Cd	Cd	0.47213 0.55056 0.18983 1.24000
N 	N 	0.54840 0.60210 0.03780 -0.21600
Cd	Cd	0.07574 0.76239 0.44372 1.22400
N 	N 	0.57530 0.66890 0.98300 -0.22600
Cl	Cl	0.97250 0.73319 0.66430 -0.56500
C 	C 	0.29630 0.61950 0.25370 -0.05300
C 	C 	0.65000 0.61190 0.11570 -0.05600
C 	C 	0.27350 0.65970 0.29690 -0.01100
C 	C 	0.71010 0.61680 0.66670 0.07300
H 	H 	0.74590 0.59320 0.71520 0.01200
C 	C 	0.66720 0.65360 0.08140 -0.06500
C 	C 	0.44330 0.64440 0.40050 0.11100
C 	C 	0.24320 0.60810 0.68420 0.07300
H 	H 	0.21230 0.58560 0.61890 0.01000
C 	C 	0.50680 0.63710 0.96050 0.11500
C 	C 	0.75820 0.68300 0.13900 0.35100
C 	C 	0.71480 0.58080 0.22780 0.32900
N 	N 	0.76320 0.65280 0.68020 -0.13200
N 	N 	0.18350 0.64190 0.69010 -0.13300
C 	C 	0.23030 0.58600 0.14470 0.34900
C 	C 	0.71350 0.68650 0.60150 0.03500
H 	H 	0.74990 0.71170 0.61340 0.04500
C 	C 	0.39750 0.63940 0.86560 -0.01500
C 	C 	0.55510 0.64820 0.49530 0.01800
C 	C 	0.22750 0.67460 0.78060 0.05200
H 	H 	0.18540 0.69820 0.78800 0.03600
O 	O 	0.66150 0.54910 0.27280 -0.36500
C 	C 	0.60960 0.68540 0.50270 -0.12900
H 	H 	0.57870 0.70890 0.44440 0.07600
C 	C 	0.35010 0.60430 0.77050 -0.09800
H 	H 	0.38850 0.57970 0.76560 0.07300
O 	O 	0.73940 0.72130 0.12600 -0.39100
C 	C 	0.33320 0.67480 0.86370 -0.08400
H 	H 	0.36230 0.69890 0.91930 0.03600
C 	C 	0.60610 0.61300 0.58530 -0.12700
H 	H 	0.56910 0.58800 0.58820 0.08300
O 	O 	0.90310 0.56250 0.98290 -0.54400
H 	H 	0.88390 0.53630 0.02090 0.18600
H 	H 	0.83720 0.57230 0.00510 0.14500
N 	N 	0.36860 0.67420 0.38970 -0.19400
H 	H 	0.37860 0.69870 0.43400 0.13800
N 	N 	0.40260 0.61030 0.31750 -0.19700
C 	C 	0.17560 0.68690 0.27270 0.36500
Cl	Cl	0.45780 0.48724 0.98880 -0.60000
O 	O 	0.19560 0.72330 0.33260 -0.41200
O 	O 	0.85120 0.66880 0.19910 -0.45600
O 	O 	0.08680 0.67400 0.20480 -0.44200
O 	O 	0.28180 0.55410 0.10820 -0.36100
Tb	Tb	0.47132 0.11501 0.18995 1.63600
O 	O 	0.63160 0.09160 0.09690 -0.44700
O 	O 	0.31470 0.08390 0.27600 -0.44400
Cd	Cd	0.97213 0.05056 0.18983 1.22700
N 	N 	0.04840 0.10210 0.03780 -0.20900
Cd	Cd	0.57574 0.26239 0.44372 1.21100
N 	N 	0.07530 0.16890 0.98300 -0.22800
Cl	Cl	0.47250 0.23319 0.66430 -0.52700
C 	C 	0.79630 0.11950 0.25370 -0.05900
C 	C 	0.15000 0.11190 0.11570 -0.05400
C 	C 	0.77350 0.15970 0.29690 -0.02000
C 	C 	0.21010 0.11680 0.66670 0.10000
H 	H 	0.24590 0.09320 0.71520 0.00500
C 	C 	0.16720 0.15360 0.08140 -0.06200
C 	C 	0.94330 0.14440 0.40050 0.04200
C 	C 	0.74320 0.10810 0.68420 0.05600
H 	H 	0.71230 0.08560 0.61890 0.00600
C 	C 	0.00680 0.13710 0.96050 0.17700
C 	C 	0.25820 0.18300 0.13900 0.35300
C 	C 	0.21480 0.08080 0.22780 0.33200
N 	N 	0.26320 0.15280 0.68020 -0.14100
N 	N 	0.68350 0.14190 0.69010 -0.13700
C 	C 	0.73030 0.08600 0.14470 0.35400
C 	C 	0.21350 0.18650 0.60150 0.06200
H 	H 	0.24990 0.21170 0.61340 0.03800
C 	C 	0.89750 0.13940 0.86560 -0.08400
C 	C 	0.05510 0.14820 0.49530 0.10400
C 	C 	0.72750 0.17460 0.78060 0.03200
H 	H 	0.68540 0.19820 0.78800 0.03300
O 	O 	0.16150 0.04910 0.27280 -0.34800
C 	C 	0.10960 0.18540 0.50270 -0.17600
H 	H 	0.07870 0.20890 0.44440 0.10900
C 	C 	0.85010 0.10430 0.77050 -0.06800
H 	H 	0.88850 0.07970 0.76560 0.05200
O 	O 	0.23940 0.22130 0.12600 -0.38300
C 	C 	0.83320 0.17480 0.86370 -0.04900
H 	H 	0.86230 0.19890 0.91930 0.01600
C 	C 	0.10610 0.11300 0.58530 -0.17200
H 	H 	0.06910 0.08800 0.58820 0.11600
O 	O 	0.40310 0.06250 0.98290 -0.54800
H 	H 	0.38390 0.03630 0.02090 0.19500
H 	H 	0.33720 0.07230 0.00510 0.14600
N 	N 	0.86860 0.17420 0.38970 -0.18000
H 	H 	0.87860 0.19870 0.43400 0.12400
N 	N 	0.90260 0.11030 0.31750 -0.19500
C 	C 	0.67560 0.18690 0.27270 0.37300
Cl	Cl	0.95780 0.98724 0.98880 -0.62700
O 	O 	0.69560 0.22330 0.33260 -0.42300
O 	O 	0.35120 0.16880 0.19910 -0.45600
O 	O 	0.58680 0.17400 0.20480 -0.48100
O 	O 	0.78180 0.05410 0.10820 -0.37300
Tb	Tb	0.97132 0.38499 0.68995 1.56100
O 	O 	0.13160 0.40840 0.59690 -0.41000
O 	O 	0.81470 0.41610 0.77600 -0.44000
Cd	Cd	0.47213 0.44944 0.68983 1.24100
N 	N 	0.54840 0.39790 0.53780 -0.20900
Cd	Cd	0.07574 0.23761 0.94372 1.22600
N 	N 	0.57530 0.33110 0.48300 -0.23100
Cl	Cl	0.97250 0.26681 0.16430 -0.57500
C 	C 	0.29630 0.38050 0.75370 -0.05100
C 	C 	0.65000 0.38810 0.61570 -0.05700
C 	C 	0.27350 0.34030 0.79690 -0.01000
C 	C 	0.71010 0.38320 0.16670 0.09000
H 	H 	0.74590 0.40680 0.21520 0.00100
C 	C 	0.66720 0.34640 0.58140 -0.05500
C 	C 	0.44330 0.35560 0.90050 0.09900
C 	C 	0.24320 0.39190 0.18420 0.07100
H 	H 	0.21230 0.41440 0.11890 0.00700
C 	C 	0.50680 0.36290 0.46050 0.10400
C 	C 	0.75820 0.31700 0.63900 0.35100
C 	C 	0.71480 0.41920 0.72780 0.33100
N 	N 	0.76320 0.34720 0.18020 -0.14400
N 	N 	0.18350 0.35810 0.19010 -0.13600
C 	C 	0.23030 0.41400 0.64470 0.35000
C 	C 	0.71350 0.31350 0.10150 0.06100
H 	H 	0.74990 0.28830 0.11340 0.03300
C 	C 	0.39750 0.36060 0.36560 -0.01400
C 	C 	0.55510 0.35180 0.99530 0.06600
C 	C 	0.22750 0.32540 0.28060 0.05000
H 	H 	0.18540 0.30180 0.28800 0.03500
O 	O 	0.66150 0.45090 0.77280 -0.36100
C 	C 	0.60960 0.31460 0.00270 -0.19000
H 	H 	0.57870 0.29110 0.94440 0.10400
C 	C 	0.35010 0.39570 0.27050 -0.10200
H 	H 	0.38850 0.42030 0.26560 0.07100
O 	O 	0.73940 0.27870 0.62600 -0.38500
C 	C 	0.33320 0.32520 0.36370 -0.08600
H 	H 	0.36230 0.30110 0.41930 0.03400
C 	C 	0.60610 0.38700 0.08530 -0.16600
H 	H 	0.56910 0.41200 0.08820 0.09100
O 	O 	0.90310 0.43750 0.48290 -0.58000
H 	H 	0.88390 0.46370 0.52090 0.20300
H 	H 	0.83720 0.42770 0.50510 0.16100
N 	N 	0.36860 0.32580 0.88970 -0.19000
H 	H 	0.37860 0.30130 0.93400 0.13900
N 	N 	0.40260 0.38970 0.81750 -0.19300
C 	C 	0.17560 0.31310 0.77270 0.36700
Cl	Cl	0.45780 0.51276 0.48880 -0.60900
O 	O 	0.19560 0.27670 0.83260 -0.41000
O 	O 	0.85120 0.33120 0.69910 -0.45400
O 	O 	0.08680 0.32600 0.70480 -0.44300
O 	O 	0.28180 0.44590 0.60820 -0.35600
Tb	Tb	0.47132 0.88499 0.68995 1.65100
O 	O 	0.63160 0.90840 0.59690 -0.44400
O 	O 	0.31470 0.91610 0.77600 -0.44400
Cd	Cd	0.97213 0.94944 0.68983 1.23000
N 	N 	0.04840 0.89790 0.53780 -0.20500
Cd	Cd	0.57574 0.73761 0.94372 1.21400
N 	N 	0.07530 0.83110 0.48300 -0.23300
Cl	Cl	0.47250 0.76681 0.16430 -0.53400
C 	C 	0.79630 0.88050 0.75370 -0.05600
C 	C 	0.15000 0.88810 0.61570 -0.05400
C 	C 	0.77350 0.84030 0.79690 -0.01700
C 	C 	0.21010 0.88320 0.16670 0.10900
H 	H 	0.24590 0.90680 0.21520 -0.00100
C 	C 	0.16720 0.84640 0.58140 -0.05500
C 	C 	0.94330 0.85560 0.90050 0.04200
C 	C 	0.74320 0.89190 0.18420 0.05100
H 	H 	0.71230 0.91440 0.11890 0.00300
C 	C 	0.00680 0.86290 0.46050 0.17400
C 	C 	0.25820 0.81700 0.63900 0.35300
C 	C 	0.21480 0.91920 0.72780 0.33300
N 	N 	0.26320 0.84720 0.18020 -0.14800
N 	N 	0.68350 0.85810 0.19010 -0.13900
C 	C 	0.73030 0.91400 0.64470 0.35600
C 	C 	0.21350 0.81350 0.10150 0.07600
H 	H 	0.24990 0.78830 0.11340 0.03100
C 	C 	0.89750 0.86060 0.36560 -0.09200
C 	C 	0.05510 0.85180 0.99530 0.12700
C 	C 	0.72750 0.82540 0.28060 0.02700
H 	H 	0.68540 0.80180 0.28800 0.03200
O 	O 	0.16150 0.95090 0.77280 -0.34600
C 	C 	0.10960 0.81460 0.00270 -0.21000
H 	H 	0.07870 0.79110 0.94440 0.12500
C 	C 	0.85010 0.89570 0.27050 -0.06800
H 	H 	0.88850 0.92030 0.26560 0.04800
O 	O 	0.23940 0.77870 0.62600 -0.37900
C 	C 	0.83320 0.82520 0.36370 -0.04800
H 	H 	0.86230 0.80110 0.41930 0.01100
C 	C 	0.10610 0.88700 0.08530 -0.19300
H 	H 	0.06910 0.91200 0.08820 0.12000
O 	O 	0.40310 0.93750 0.48290 -0.57500
H 	H 	0.38390 0.96370 0.52090 0.20900
H 	H 	0.33720 0.92770 0.50510 0.15900
N 	N 	0.86860 0.82580 0.88970 -0.17900
H 	H 	0.87860 0.80130 0.93400 0.12700
N 	N 	0.90260 0.88970 0.81750 -0.19300
C 	C 	0.67560 0.81310 0.77270 0.37400
Cl	Cl	0.95780 0.01276 0.48880 -0.63900
O 	O 	0.69560 0.77670 0.83260 -0.41900
O 	O 	0.35120 0.83120 0.69910 -0.45500
O 	O 	0.58680 0.82600 0.70480 -0.47900
O 	O 	0.78180 0.94590 0.60820 -0.36700
