data_crystal

_cell_length_a 12.50870
_cell_length_b 32.16500
_cell_length_c 7.60220
_cell_angle_alpha 90.00000
_cell_angle_beta  98.83300
_cell_angle_gamma 90.00000

_symmetry_space_group_name_	'P 1'
_symmetry_space_group_name_H-M	'P 1'

loop_
_symmetry_equiv_pos_as_xyz
  x,y,z

loop_
_atom_site_label
_atom_site_type_symbol
_atom_site_fract_x
_atom_site_fract_y
_atom_site_fract_z
_atom_site_charge
Dy	Dy	0.97101 0.61496 0.19016 1.50600
O 	O 	0.13290 0.59130 0.09880 -0.39800
O 	O 	0.81600 0.58418 0.27560 -0.44200
Cd	Cd	0.47282 0.55070 0.18975 1.23900
N 	N 	0.54900 0.60190 0.03580 -0.21600
Cd	Cd	0.07617 0.76236 0.44249 1.22400
N 	N 	0.57680 0.66849 0.98170 -0.22300
Cl	Cl	0.97405 0.73334 0.66360 -0.56400
C 	C 	0.29670 0.61980 0.25260 -0.05200
C 	C 	0.65140 0.61180 0.11330 -0.05500
C 	C 	0.27300 0.65880 0.29650 -0.01900
C 	C 	0.71200 0.61680 0.67070 0.05900
H 	H 	0.74690 0.59330 0.72270 0.01700
C 	C 	0.66850 0.65420 0.07950 -0.06700
C 	C 	0.44500 0.64400 0.40030 0.10700
C 	C 	0.24390 0.60740 0.68690 0.07200
H 	H 	0.21340 0.58440 0.62380 0.01300
C 	C 	0.50720 0.63760 0.95720 0.11100
C 	C 	0.76130 0.68320 0.13800 0.36600
C 	C 	0.71580 0.58050 0.22870 0.33500
N 	N 	0.76570 0.65410 0.68350 -0.13000
N 	N 	0.18220 0.64150 0.69280 -0.13000
C 	C 	0.23250 0.58630 0.14850 0.34100
C 	C 	0.71680 0.68590 0.60160 0.04500
H 	H 	0.75450 0.71090 0.60620 0.04300
C 	C 	0.39650 0.63950 0.86570 -0.00900
C 	C 	0.55630 0.64840 0.49600 0.02000
C 	C 	0.22870 0.67490 0.77950 0.05200
H 	H 	0.18770 0.69900 0.78020 0.03500
O 	O 	0.66190 0.54928 0.27320 -0.37000
C 	C 	0.61180 0.68530 0.50730 -0.13500
H 	H 	0.58040 0.70930 0.45360 0.07700
C 	C 	0.34980 0.60460 0.76940 -0.10200
H 	H 	0.38960 0.58040 0.76210 0.07600
O 	O 	0.74080 0.72135 0.12680 -0.39400
C 	C 	0.33460 0.67550 0.86830 -0.08900
H 	H 	0.36320 0.69920 0.92780 0.03900
C 	C 	0.60660 0.61330 0.58140 -0.11700
H 	H 	0.57000 0.58800 0.57840 0.07800
O 	O 	0.90420 0.56201 0.98540 -0.54000
H 	H 	0.88500 0.53590 0.02330 0.18900
H 	H 	0.83820 0.57190 0.00750 0.14600
N 	N 	0.37010 0.67490 0.39140 -0.19000
H 	H 	0.37990 0.69950 0.43520 0.13800
N 	N 	0.40360 0.61010 0.31720 -0.19800
C 	C 	0.17860 0.68710 0.27540 0.36800
Cl	Cl	0.45875 0.48745 0.98860 -0.59800
O 	O 	0.19610 0.72295 0.33430 -0.41900
O 	O 	0.85290 0.66850 0.19450 -0.46500
O 	O 	0.08760 0.67335 0.20800 -0.43200
O 	O 	0.28300 0.55400 0.11240 -0.35800
Dy	Dy	0.47101 0.11496 0.19016 1.59800
O 	O 	0.63290 0.09130 0.09880 -0.43100
O 	O 	0.31600 0.08418 0.27560 -0.44500
Cd	Cd	0.97282 0.05070 0.18975 1.22800
N 	N 	0.04900 0.10190 0.03580 -0.20700
Cd	Cd	0.57617 0.26236 0.44249 1.21200
N 	N 	0.07680 0.16849 0.98170 -0.22600
Cl	Cl	0.47405 0.23334 0.66360 -0.52800
C 	C 	0.79670 0.11980 0.25260 -0.05700
C 	C 	0.15140 0.11180 0.11330 -0.05300
C 	C 	0.77300 0.15880 0.29650 -0.02600
C 	C 	0.21200 0.11680 0.67070 0.08400
H 	H 	0.24690 0.09330 0.72270 0.01100
C 	C 	0.16850 0.15420 0.07950 -0.06300
C 	C 	0.94500 0.14400 0.40030 0.04100
C 	C 	0.74390 0.10740 0.68690 0.05400
H 	H 	0.71340 0.08440 0.62380 0.01000
C 	C 	0.00720 0.13760 0.95720 0.16900
C 	C 	0.26130 0.18320 0.13800 0.36800
C 	C 	0.21580 0.08050 0.22870 0.33700
N 	N 	0.26570 0.15410 0.68350 -0.13900
N 	N 	0.68220 0.14150 0.69280 -0.13400
C 	C 	0.73250 0.08630 0.14850 0.34700
C 	C 	0.21680 0.18590 0.60160 0.07300
H 	H 	0.25450 0.21090 0.60620 0.03600
C 	C 	0.89650 0.13950 0.86570 -0.07500
C 	C 	0.05630 0.14840 0.49600 0.10400
C 	C 	0.72870 0.17490 0.77950 0.03500
H 	H 	0.68770 0.19900 0.78020 0.03300
O 	O 	0.16190 0.04928 0.27320 -0.35300
C 	C 	0.11180 0.18530 0.50730 -0.18200
H 	H 	0.08040 0.20930 0.45360 0.10900
C 	C 	0.84980 0.10460 0.76940 -0.07100
H 	H 	0.88960 0.08040 0.76210 0.05500
O 	O 	0.24080 0.22135 0.12680 -0.38600
C 	C 	0.83460 0.17550 0.86830 -0.05700
H 	H 	0.86320 0.19920 0.92780 0.02100
C 	C 	0.10660 0.11330 0.58140 -0.16100
H 	H 	0.07000 0.08800 0.57840 0.11100
O 	O 	0.40420 0.06201 0.98540 -0.54400
H 	H 	0.38500 0.03590 0.02330 0.19800
H 	H 	0.33820 0.07190 0.00750 0.14700
N 	N 	0.87010 0.17490 0.39140 -0.17800
H 	H 	0.87990 0.19950 0.43520 0.12500
N 	N 	0.90360 0.11010 0.31720 -0.19600
C 	C 	0.67860 0.18710 0.27540 0.37500
Cl	Cl	0.95875 0.98745 0.98860 -0.62300
O 	O 	0.69610 0.22295 0.33430 -0.42900
O 	O 	0.35290 0.16850 0.19450 -0.46500
O 	O 	0.58760 0.17335 0.20800 -0.46800
O 	O 	0.78300 0.05400 0.11240 -0.36900
Dy	Dy	0.97101 0.38504 0.69016 1.53000
O 	O 	0.13290 0.40870 0.59880 -0.39600
O 	O 	0.81600 0.41582 0.77560 -0.44000
Cd	Cd	0.47282 0.44930 0.68975 1.24200
N 	N 	0.54900 0.39810 0.53580 -0.20800
Cd	Cd	0.07617 0.23764 0.94249 1.22600
N 	N 	0.57680 0.33151 0.48170 -0.22800
Cl	Cl	0.97405 0.26666 0.16360 -0.57400
C 	C 	0.29670 0.38020 0.75260 -0.05000
C 	C 	0.65140 0.38820 0.61330 -0.05600
C 	C 	0.27300 0.34120 0.79650 -0.01700
C 	C 	0.71200 0.38320 0.17070 0.07600
H 	H 	0.74690 0.40670 0.22270 0.00700
C 	C 	0.66850 0.34580 0.57950 -0.05600
C 	C 	0.44500 0.35600 0.90030 0.09400
C 	C 	0.24390 0.39260 0.18690 0.07000
H 	H 	0.21340 0.41560 0.12380 0.01000
C 	C 	0.50720 0.36240 0.45720 0.10000
C 	C 	0.76130 0.31680 0.63800 0.36600
C 	C 	0.71580 0.41950 0.72870 0.33700
N 	N 	0.76570 0.34590 0.18350 -0.14300
N 	N 	0.18220 0.35850 0.19280 -0.13300
C 	C 	0.23250 0.41370 0.64850 0.34200
C 	C 	0.71680 0.31410 0.10160 0.07400
H 	H 	0.75450 0.28910 0.10620 0.03000
C 	C 	0.39650 0.36050 0.36570 -0.00900
C 	C 	0.55630 0.35160 0.99600 0.07100
C 	C 	0.22870 0.32510 0.27950 0.05000
H 	H 	0.18770 0.30100 0.28020 0.03400
O 	O 	0.66190 0.45072 0.77320 -0.36600
C 	C 	0.61180 0.31470 0.00730 -0.20000
H 	H 	0.58040 0.29070 0.95360 0.10600
C 	C 	0.34980 0.39540 0.26940 -0.10600
H 	H 	0.38960 0.41960 0.26210 0.07300
O 	O 	0.74080 0.27865 0.62680 -0.38800
C 	C 	0.33460 0.32450 0.36830 -0.09100
H 	H 	0.36320 0.30080 0.42780 0.03700
C 	C 	0.60660 0.38670 0.08140 -0.15800
H 	H 	0.57000 0.41200 0.07840 0.08700
O 	O 	0.90420 0.43799 0.48540 -0.57700
H 	H 	0.88500 0.46410 0.52330 0.20700
H 	H 	0.83820 0.42810 0.50750 0.16200
N 	N 	0.37010 0.32510 0.89140 -0.18600
H 	H 	0.37990 0.30050 0.93520 0.13900
N 	N 	0.40360 0.38990 0.81720 -0.19400
C 	C 	0.17860 0.31290 0.77540 0.37000
Cl	Cl	0.45875 0.51255 0.48860 -0.60700
O 	O 	0.19610 0.27705 0.83430 -0.41700
O 	O 	0.85290 0.33150 0.69450 -0.46300
O 	O 	0.08760 0.32665 0.70800 -0.43300
O 	O 	0.28300 0.44600 0.61240 -0.35300
Dy	Dy	0.47101 0.88504 0.69016 1.61300
O 	O 	0.63290 0.90870 0.59880 -0.42700
O 	O 	0.31600 0.91582 0.77560 -0.44400
Cd	Cd	0.97282 0.94930 0.68975 1.23100
N 	N 	0.04900 0.89810 0.53580 -0.20200
Cd	Cd	0.57617 0.73763 0.94249 1.21500
N 	N 	0.07680 0.83151 0.48170 -0.23100
Cl	Cl	0.47405 0.76666 0.16360 -0.53500
C 	C 	0.79670 0.88020 0.75260 -0.05400
C 	C 	0.15140 0.88820 0.61330 -0.05300
C 	C 	0.77300 0.84120 0.79650 -0.02300
C 	C 	0.21200 0.88320 0.17070 0.09200
H 	H 	0.24690 0.90670 0.22270 0.00500
C 	C 	0.16850 0.84580 0.57950 -0.05500
C 	C 	0.94500 0.85600 0.90030 0.04000
C 	C 	0.74390 0.89260 0.18690 0.05000
H 	H 	0.71340 0.91560 0.12380 0.00700
C 	C 	0.00720 0.86240 0.45720 0.16600
C 	C 	0.26130 0.81680 0.63800 0.36800
C 	C 	0.21580 0.91950 0.72870 0.33800
N 	N 	0.26570 0.84590 0.18350 -0.14600
N 	N 	0.68220 0.85850 0.19280 -0.13600
C 	C 	0.73250 0.91370 0.64850 0.34800
C 	C 	0.21680 0.81410 0.10160 0.08900
H 	H 	0.25450 0.78910 0.10620 0.02800
C 	C 	0.89650 0.86050 0.36570 -0.08200
C 	C 	0.05630 0.85160 0.99600 0.13000
C 	C 	0.72870 0.82510 0.27950 0.02900
H 	H 	0.68770 0.80100 0.28020 0.03100
O 	O 	0.16190 0.95072 0.77320 -0.35100
C 	C 	0.11180 0.81470 0.00730 -0.22000
H 	H 	0.08040 0.79070 0.95360 0.12600
C 	C 	0.84980 0.89540 0.26940 -0.07200
H 	H 	0.88960 0.91960 0.26210 0.05000
O 	O 	0.24080 0.77865 0.62680 -0.38200
C 	C 	0.83460 0.82450 0.36830 -0.05600
H 	H 	0.86320 0.80080 0.42780 0.01600
C 	C 	0.10660 0.88670 0.08140 -0.18400
H 	H 	0.07000 0.91200 0.07840 0.11400
O 	O 	0.40420 0.93799 0.48540 -0.57200
H 	H 	0.38500 0.96410 0.52330 0.21200
H 	H 	0.33820 0.92810 0.50750 0.16000
N 	N 	0.87010 0.82510 0.89140 -0.17600
H 	H 	0.87990 0.80050 0.93520 0.12700
N 	N 	0.90360 0.88990 0.81720 -0.19400
C 	C 	0.67860 0.81290 0.77540 0.37600
Cl	Cl	0.95875 0.01255 0.48860 -0.63600
O 	O 	0.69610 0.77705 0.83430 -0.42600
O 	O 	0.35290 0.83150 0.69450 -0.46400
O 	O 	0.58760 0.82665 0.70800 -0.46700
O 	O 	0.78300 0.94600 0.61240 -0.36300
