data_crystal

_cell_length_a 8.80170
_cell_length_b 10.66740
_cell_length_c 10.94220
_cell_angle_alpha 103.15700
_cell_angle_beta  108.19300
_cell_angle_gamma 97.41000

_symmetry_space_group_name_	'P 1'
_symmetry_space_group_name_H-M	'P 1'

loop_
_symmetry_equiv_pos_as_xyz
  x,y,z

loop_
_atom_site_label
_atom_site_type_symbol
_atom_site_fract_x
_atom_site_fract_y
_atom_site_fract_z
_atom_site_charge
Zn	Zn	0.79882 0.83672 0.24555 1.19400
O 	O 	0.05310 0.94310 0.35960 -0.36100
O 	O 	0.19860 0.09450 0.55450 -0.37600
N 	N 	0.54760 0.75040 0.16860 -0.25600
N 	N 	0.10460 0.54510 0.80340 -0.31400
N 	N 	0.29110 0.69670 0.02580 -0.30700
N 	N 	0.19150 0.78540 0.82770 -0.31300
C 	C 	0.07260 0.01050 0.47420 0.21500
N 	N 	0.99790 0.71840 0.93850 -0.30200
C 	C 	0.44080 0.77350 0.06520 0.13500
H 	H 	0.46670 0.83630 0.02410 -0.04300
C 	C 	0.28140 0.77160 0.74550 0.05000
H 	H 	0.31500 0.69570 0.71300 -0.00000
C 	C 	0.17460 0.91130 0.84930 0.14300
H 	H 	0.11910 0.94790 0.90340 -0.03600
C 	C 	0.31260 0.88890 0.72010 -0.02300
H 	H 	0.37110 0.90680 0.66620 0.03800
C 	C 	0.19280 0.45290 0.81790 0.13300
H 	H 	0.28860 0.46580 0.89070 -0.04500
C 	C 	0.99490 0.75960 0.06310 0.10900
H 	H 	0.08300 0.76740 0.14040 -0.01500
C 	C 	0.46090 0.65270 0.19940 -0.01700
H 	H 	0.50310 0.61550 0.26840 0.02600
C 	C 	0.76040 0.76520 0.93280 -0.00900
H 	H 	0.65340 0.77640 0.90140 0.01700
C 	C 	0.30460 0.61990 0.11300 0.04600
H 	H 	0.22080 0.55670 0.11230 0.00100
C 	C 	0.97530 0.48610 0.68510 0.04500
H 	H 	0.89010 0.52390 0.64590 0.00300
C 	C 	0.84750 0.72410 0.85560 0.04200
H 	H 	0.81180 0.70330 0.76250 0.00500
C 	C 	0.99440 0.36380 0.63610 -0.00700
H 	H 	0.92380 0.30300 0.55660 0.03100
B 	B 	0.14430 0.68570 0.89820 0.92400
N 	N 	0.13210 0.34270 0.72030 -0.24500
N 	N 	0.85380 0.78760 0.06400 -0.24800
N 	N 	0.24440 0.97700 0.78610 -0.24200
Zn	Zn	0.20118 0.16328 0.75445 1.19500
O 	O 	0.94690 0.05690 0.64040 -0.36000
O 	O 	0.80140 0.90550 0.44550 -0.37500
N 	N 	0.45240 0.24960 0.83140 -0.25500
N 	N 	0.89540 0.45490 0.19660 -0.31400
N 	N 	0.70890 0.30330 0.97420 -0.30700
N 	N 	0.80850 0.21460 0.17230 -0.31300
C 	C 	0.92740 0.98950 0.52580 0.21500
N 	N 	0.00210 0.28160 0.06150 -0.30200
C 	C 	0.55920 0.22650 0.93480 0.13500
H 	H 	0.53330 0.16370 0.97590 -0.04300
C 	C 	0.71860 0.22840 0.25450 0.05000
H 	H 	0.68500 0.30430 0.28700 -0.00000
C 	C 	0.82540 0.08870 0.15070 0.14300
H 	H 	0.88090 0.05210 0.09660 -0.03600
C 	C 	0.68740 0.11110 0.27990 -0.02300
H 	H 	0.62890 0.09320 0.33380 0.03800
C 	C 	0.80720 0.54710 0.18210 0.13300
H 	H 	0.71140 0.53420 0.10930 -0.04500
C 	C 	0.00510 0.24040 0.93690 0.10900
H 	H 	0.91700 0.23260 0.85960 -0.01500
C 	C 	0.53910 0.34730 0.80060 -0.01700
H 	H 	0.49690 0.38450 0.73160 0.02600
C 	C 	0.23960 0.23480 0.06720 -0.00900
H 	H 	0.34660 0.22360 0.09860 0.01700
C 	C 	0.69540 0.38010 0.88700 0.04600
H 	H 	0.77920 0.44330 0.88770 0.00100
C 	C 	0.02470 0.51390 0.31490 0.04500
H 	H 	0.10990 0.47610 0.35410 0.00300
C 	C 	0.15250 0.27590 0.14440 0.04200
H 	H 	0.18820 0.29670 0.23750 0.00500
C 	C 	0.00560 0.63620 0.36390 -0.00700
H 	H 	0.07620 0.69700 0.44340 0.03100
B 	B 	0.85570 0.31430 0.10180 0.92400
N 	N 	0.86790 0.65730 0.27970 -0.24500
N 	N 	0.14620 0.21240 0.93600 -0.24800
N 	N 	0.75560 0.02300 0.21390 -0.24200
