data_crystal

_cell_length_a 8.86490
_cell_length_b 10.55650
_cell_length_c 10.63100
_cell_angle_alpha 99.98600
_cell_angle_beta  110.23300
_cell_angle_gamma 97.81900

_symmetry_space_group_name_	'P 1'
_symmetry_space_group_name_H-M	'P 1'

loop_
_symmetry_equiv_pos_as_xyz
  x,y,z

loop_
_atom_site_label
_atom_site_type_symbol
_atom_site_fract_x
_atom_site_fract_y
_atom_site_fract_z
_atom_site_charge
Zn	Zn	0.79770 0.32194 0.24878 1.19600
O 	O 	0.80990 0.39510 0.45530 -0.37000
O 	O 	0.94710 0.56440 0.63780 -0.35900
N 	N 	0.18770 0.29320 0.82650 -0.31000
N 	N 	0.28630 0.18980 0.02680 -0.30400
N 	N 	0.54740 0.23690 0.17420 -0.25700
N 	N 	0.09330 0.05010 0.79760 -0.30900
N 	N 	0.99250 0.21970 0.93470 -0.30000
C 	C 	0.43730 0.26780 0.07030 0.13100
H 	H 	0.46130 0.33630 0.03110 -0.04000
C 	C 	0.30170 0.10230 0.11190 0.04100
H 	H 	0.21840 0.03630 0.10860 0.00200
C 	C 	0.17490 0.42030 0.85100 0.13900
H 	H 	0.11890 0.45390 0.90430 -0.03400
C 	C 	0.92960 0.48810 0.52690 0.21800
C 	C 	0.98760 0.24630 0.06300 0.11300
H 	H 	0.07260 0.24180 0.14230 -0.01900
C 	C 	0.19170 0.96260 0.80600 0.12600
H 	H 	0.29670 0.97800 0.87360 -0.04300
C 	C 	0.75840 0.27490 0.92800 -0.00700
H 	H 	0.65400 0.29330 0.89580 0.01800
C 	C 	0.46210 0.13140 0.20110 -0.01500
H 	H 	0.50710 0.08750 0.26920 0.02400
C 	C 	0.84410 0.23950 0.84830 0.03600
H 	H 	0.80960 0.23030 0.75350 0.01100
C 	C 	0.31850 0.40570 0.72440 -0.02500
H 	H 	0.38020 0.42770 0.67330 0.03900
C 	C 	0.28050 0.28390 0.74560 0.04700
H 	H 	0.31130 0.20850 0.71190 0.00000
C 	C 	0.97240 0.87050 0.63060 -0.01400
H 	H 	0.89620 0.81000 0.55240 0.03300
C 	C 	0.95080 0.98930 0.68490 0.04500
H 	H 	0.85730 0.02370 0.65230 0.00400
B 	B 	0.13740 0.18780 0.89610 0.91700
N 	N 	0.12410 0.85330 0.70880 -0.24600
N 	N 	0.84930 0.27930 0.06280 -0.24600
N 	N 	0.25030 0.49190 0.79140 -0.24100
Zn	Zn	0.20230 0.67806 0.75122 1.19500
O 	O 	0.19010 0.60490 0.54470 -0.37100
O 	O 	0.05290 0.43560 0.36220 -0.35900
N 	N 	0.81230 0.70680 0.17350 -0.31000
N 	N 	0.71370 0.81020 0.97320 -0.30400
N 	N 	0.45260 0.76310 0.82580 -0.25700
N 	N 	0.90670 0.94990 0.20240 -0.30900
N 	N 	0.00750 0.78030 0.06530 -0.30000
C 	C 	0.56270 0.73220 0.92970 0.13100
H 	H 	0.53870 0.66370 0.96890 -0.04000
C 	C 	0.69830 0.89770 0.88810 0.04100
H 	H 	0.78160 0.96370 0.89140 0.00200
C 	C 	0.82510 0.57970 0.14900 0.13900
H 	H 	0.88110 0.54610 0.09570 -0.03400
C 	C 	0.07040 0.51190 0.47310 0.21800
C 	C 	0.01240 0.75370 0.93700 0.11300
H 	H 	0.92740 0.75820 0.85770 -0.01900
C 	C 	0.80830 0.03740 0.19400 0.12600
H 	H 	0.70330 0.02200 0.12640 -0.04300
C 	C 	0.24160 0.72510 0.07200 -0.00700
H 	H 	0.34600 0.70670 0.10420 0.01800
C 	C 	0.53790 0.86860 0.79890 -0.01500
H 	H 	0.49290 0.91250 0.73080 0.02400
C 	C 	0.15590 0.76050 0.15170 0.03600
H 	H 	0.19040 0.76970 0.24650 0.01100
C 	C 	0.68150 0.59430 0.27560 -0.02500
H 	H 	0.61980 0.57230 0.32670 0.03900
C 	C 	0.71950 0.71610 0.25440 0.04700
H 	H 	0.68870 0.79150 0.28810 0.00000
C 	C 	0.02760 0.12950 0.36940 -0.01400
H 	H 	0.10380 0.19000 0.44760 0.03300
C 	C 	0.04920 0.01070 0.31510 0.04500
H 	H 	0.14270 0.97630 0.34770 0.00400
B 	B 	0.86260 0.81220 0.10390 0.91700
N 	N 	0.87590 0.14670 0.29120 -0.24600
N 	N 	0.15070 0.72070 0.93720 -0.24600
N 	N 	0.74970 0.50810 0.20860 -0.24100
