data_crystal

_cell_length_a 8.99700
_cell_length_b 10.51630
_cell_length_c 10.68600
_cell_angle_alpha 98.00800
_cell_angle_beta  97.43600
_cell_angle_gamma 111.11000

_symmetry_space_group_name_	'P 1'
_symmetry_space_group_name_H-M	'P 1'

loop_
_symmetry_equiv_pos_as_xyz
  x,y,z

loop_
_atom_site_label
_atom_site_type_symbol
_atom_site_fract_x
_atom_site_fract_y
_atom_site_fract_z
_atom_site_charge
Mn	Mn	0.20171 0.74605 0.18588 1.25600
O 	O 	0.94957 0.63610 0.06921 -0.36400
O 	O 	0.81866 0.46677 0.89472 -0.37700
N 	N 	0.46130 0.82120 0.27313 -0.25300
N 	N 	0.81120 0.17345 0.20293 -0.30600
N 	N 	0.71750 0.97400 0.31517 -0.30500
N 	N 	0.91080 0.20550 0.44180 -0.30900
N 	N 	0.00710 0.06800 0.27652 -0.29800
C 	C 	0.56910 0.92640 0.23830 0.12500
H 	H 	0.54550 0.96390 0.16810 -0.04200
C 	C 	0.93250 0.52970 0.98950 0.21000
C 	C 	0.70150 0.89020 0.40590 0.04100
H 	H 	0.78290 0.89630 0.47250 0.00100
C 	C 	0.81670 0.14360 0.07670 0.13200
H 	H 	0.87020 0.08920 0.04440 -0.03300
C 	C 	0.01540 0.94070 0.26200 0.10300
H 	H 	0.93470 0.86180 0.27570 -0.01900
C 	C 	0.54490 0.79740 0.37940 -0.01800
H 	H 	0.50090 0.72860 0.42550 0.02100
C 	C 	0.23550 0.07650 0.21670 -0.01100
H 	H 	0.33660 0.10940 0.19340 0.01800
C 	C 	0.71980 0.25450 0.21040 0.04600
H 	H 	0.69340 0.29120 0.28460 0.00000
C 	C 	0.67580 0.27030 0.08900 -0.02600
H 	H 	0.61370 0.32070 0.06630 0.03600
C 	C 	0.14840 0.15490 0.24650 0.03800
H 	H 	0.17850 0.24930 0.24660 0.01100
C 	C 	0.81150 0.20360 0.52640 0.11800
H 	H 	0.70450 0.14020 0.51160 -0.04500
C 	C 	0.05690 0.31430 0.49940 0.04600
H 	H 	0.15090 0.34300 0.46520 0.00100
C 	C 	0.03680 0.37120 0.61500 -0.02000
H 	H 	0.11600 0.44620 0.67360 0.03200
B 	B 	0.86400 0.10540 0.30990 0.91700
N 	N 	0.15080 0.94100 0.22621 -0.24500
N 	N 	0.88090 0.30050 0.63237 -0.24600
N 	N 	0.73750 0.20030 0.00425 -0.23500
Mn	Mn	0.79829 0.25395 0.81412 1.25600
O 	O 	0.05043 0.36390 0.93079 -0.36400
O 	O 	0.18134 0.53323 0.10528 -0.37700
N 	N 	0.53870 0.17880 0.72687 -0.25300
N 	N 	0.18880 0.82655 0.79707 -0.30600
N 	N 	0.28250 0.02600 0.68483 -0.30500
N 	N 	0.08920 0.79450 0.55820 -0.30900
N 	N 	0.99290 0.93200 0.72348 -0.29800
C 	C 	0.43090 0.07360 0.76170 0.12500
H 	H 	0.45450 0.03610 0.83190 -0.04200
C 	C 	0.06750 0.47030 0.01050 0.21000
C 	C 	0.29850 0.10980 0.59410 0.04100
H 	H 	0.21710 0.10370 0.52750 0.00100
C 	C 	0.18330 0.85640 0.92330 0.13200
H 	H 	0.12980 0.91080 0.95560 -0.03300
C 	C 	0.98460 0.05930 0.73800 0.10300
H 	H 	0.06530 0.13820 0.72430 -0.01900
C 	C 	0.45510 0.20260 0.62060 -0.01800
H 	H 	0.49910 0.27140 0.57450 0.02100
C 	C 	0.76450 0.92350 0.78330 -0.01100
H 	H 	0.66340 0.89060 0.80660 0.01800
C 	C 	0.28020 0.74550 0.78960 0.04600
H 	H 	0.30660 0.70880 0.71540 0.00000
C 	C 	0.32420 0.72970 0.91100 -0.02600
H 	H 	0.38630 0.67930 0.93370 0.03600
C 	C 	0.85160 0.84510 0.75350 0.03800
H 	H 	0.82150 0.75070 0.75340 0.01100
C 	C 	0.18850 0.79640 0.47360 0.11800
H 	H 	0.29550 0.85980 0.48840 -0.04500
C 	C 	0.94310 0.68570 0.50060 0.04600
H 	H 	0.84910 0.65700 0.53480 0.00100
C 	C 	0.96320 0.62880 0.38500 -0.02000
H 	H 	0.88400 0.55380 0.32640 0.03200
B 	B 	0.13600 0.89460 0.69010 0.91700
N 	N 	0.84920 0.05900 0.77379 -0.24500
N 	N 	0.11910 0.69950 0.36763 -0.24600
N 	N 	0.26250 0.79970 0.99575 -0.23500
