data_crystal

_cell_length_a 9.01620
_cell_length_b 10.74790
_cell_length_c 10.80680
_cell_angle_alpha 97.57000
_cell_angle_beta  97.70800
_cell_angle_gamma 110.10000

_symmetry_space_group_name_	'P 1'
_symmetry_space_group_name_H-M	'P 1'

loop_
_symmetry_equiv_pos_as_xyz
  x,y,z

loop_
_atom_site_label
_atom_site_type_symbol
_atom_site_fract_x
_atom_site_fract_y
_atom_site_fract_z
_atom_site_charge
Cd	Cd	0.70569 0.24814 0.68775 1.20600
O 	O 	0.68020 0.02930 0.60450 -0.36400
O 	O 	0.55510 0.86870 0.43350 -0.35600
N 	N 	0.97320 0.32710 0.77770 -0.24500
N 	N 	0.21990 0.47920 0.81670 -0.31000
N 	N 	0.30740 0.67230 0.70360 -0.31700
N 	N 	0.40870 0.70350 0.93860 -0.31400
C 	C 	0.05810 0.30720 0.88330 -0.02100
H 	H 	0.01780 0.24160 0.93090 0.02100
C 	C 	0.20940 0.39840 0.90660 0.04500
H 	H 	0.29220 0.40570 0.97190 -0.00300
C 	C 	0.07380 0.43020 0.74150 0.12900
H 	H 	0.04670 0.46550 0.67150 -0.04500
C 	C 	0.21890 0.75370 0.71240 0.04700
H 	H 	0.19440 0.79060 0.78610 -0.00100
C 	C 	0.31210 0.64450 0.57960 0.13900
H 	H 	0.36490 0.59060 0.54730 -0.03700
C 	C 	0.51410 0.44550 0.75820 0.13800
H 	H 	0.43350 0.36840 0.76930 -0.03800
C 	C 	0.54970 0.80910 0.99380 0.05500
H 	H 	0.64220 0.83750 0.95930 -0.00300
C 	C 	0.56790 0.97100 0.51160 0.21700
B 	B 	0.36300 0.60710 0.80860 0.93500
C 	C 	0.17400 0.76970 0.59170 -0.02400
H 	H 	0.11160 0.81940 0.56930 0.03400
C 	C 	0.64640 0.65170 0.74960 0.04600
H 	H 	0.67710 0.74400 0.75210 0.00600
N 	N 	0.50500 0.56900 0.77630 -0.31500
C 	C 	0.31290 0.70160 0.02350 0.12600
H 	H 	0.20840 0.63910 0.01120 -0.04800
C 	C 	0.73300 0.57610 0.71920 -0.02300
H 	H 	0.83450 0.60810 0.69860 0.02100
C 	C 	0.52990 0.86380 0.10660 -0.03600
N 	N 	0.23430 0.70160 0.50830 -0.23000
N 	N 	0.64740 0.44450 0.72350 -0.23800
N 	N 	0.38040 0.79640 0.12590 -0.23600
H 	H 	0.59900 0.93200 0.16000 0.03900
Cd	Cd	0.29431 0.75186 0.31225 1.20600
O 	O 	0.31980 0.97070 0.39550 -0.36400
O 	O 	0.44490 0.13130 0.56650 -0.35600
N 	N 	0.02680 0.67290 0.22230 -0.24500
N 	N 	0.78010 0.52080 0.18330 -0.31000
N 	N 	0.69260 0.32770 0.29640 -0.31700
N 	N 	0.59130 0.29650 0.06140 -0.31400
C 	C 	0.94190 0.69280 0.11670 -0.02100
H 	H 	0.98220 0.75840 0.06910 0.02100
C 	C 	0.79060 0.60160 0.09340 0.04500
H 	H 	0.70780 0.59430 0.02810 -0.00300
C 	C 	0.92620 0.56980 0.25850 0.12900
H 	H 	0.95330 0.53450 0.32850 -0.04500
C 	C 	0.78110 0.24630 0.28760 0.04700
H 	H 	0.80560 0.20940 0.21390 -0.00100
C 	C 	0.68790 0.35550 0.42040 0.13900
H 	H 	0.63510 0.40940 0.45270 -0.03700
C 	C 	0.48590 0.55450 0.24180 0.13800
H 	H 	0.56650 0.63160 0.23070 -0.03800
C 	C 	0.45030 0.19090 0.00620 0.05500
H 	H 	0.35780 0.16250 0.04070 -0.00300
C 	C 	0.43210 0.02900 0.48840 0.21700
B 	B 	0.63700 0.39290 0.19140 0.93500
C 	C 	0.82600 0.23030 0.40830 -0.02400
H 	H 	0.88840 0.18060 0.43070 0.03400
C 	C 	0.35360 0.34830 0.25040 0.04600
H 	H 	0.32290 0.25600 0.24790 0.00600
N 	N 	0.49500 0.43100 0.22370 -0.31500
C 	C 	0.68710 0.29840 0.97650 0.12600
H 	H 	0.79160 0.36090 0.98880 -0.04800
C 	C 	0.26700 0.42390 0.28080 -0.02300
H 	H 	0.16550 0.39190 0.30140 0.02100
C 	C 	0.47010 0.13620 0.89340 -0.03600
N 	N 	0.76570 0.29840 0.49170 -0.23000
N 	N 	0.35260 0.55550 0.27650 -0.23800
N 	N 	0.61960 0.20360 0.87410 -0.23600
H 	H 	0.40100 0.06800 0.84000 0.03900
