data_crystal

_cell_length_a 7.22550
_cell_length_b 10.30530
_cell_length_c 11.04990
_cell_angle_alpha 90.00000
_cell_angle_beta  90.00000
_cell_angle_gamma 90.00000

_symmetry_space_group_name_	'P 1'
_symmetry_space_group_name_H-M	'P 1'

loop_
_symmetry_equiv_pos_as_xyz
  x,y,z

loop_
_atom_site_label
_atom_site_type_symbol
_atom_site_fract_x
_atom_site_fract_y
_atom_site_fract_z
_atom_site_charge
Cu	Cu	0.10066 0.93320 0.52934 0.89900
Cu	Cu	0.39934 0.06680 0.02934 0.90000
H 	H 	0.16200 0.72800 0.27880 0.10600
H 	H 	0.21460 0.94950 0.30210 0.12000
H 	H 	0.30060 0.85010 0.37350 0.12600
H 	H 	0.90080 0.76010 0.16950 0.00700
H 	H 	0.00860 0.87920 0.15410 0.01300
H 	H 	0.71230 0.86880 0.31130 0.12900
H 	H 	0.83550 0.00570 0.30630 0.09700
H 	H 	0.33800 0.27200 0.77880 0.10200
H 	H 	0.28540 0.05050 0.80210 0.12300
H 	H 	0.19940 0.14990 0.87350 0.12800
H 	H 	0.59920 0.23990 0.66950 0.01400
H 	H 	0.49140 0.12080 0.65410 0.02500
H 	H 	0.78770 0.13120 0.81130 0.12400
H 	H 	0.66450 0.99430 0.80630 0.09500
C 	C 	0.97190 0.71530 0.40980 0.35500
C 	C 	0.07890 0.78430 0.31100 -0.20100
C 	C 	0.94910 0.83120 0.21330 0.07600
C 	C 	0.79320 0.91860 0.25690 -0.29200
C 	C 	0.67260 0.96910 0.15490 0.36400
C 	C 	0.52810 0.28470 0.90980 0.34800
C 	C 	0.42110 0.21570 0.81100 -0.18500
C 	C 	0.55090 0.16880 0.71330 0.04900
C 	C 	0.70680 0.08140 0.75690 -0.28300
C 	C 	0.82740 0.03090 0.65490 0.35700
N 	N 	0.19000 0.89160 0.36250 -0.30300
N 	N 	0.31000 0.10840 0.86250 -0.30500
O 	O 	0.98010 0.76210 0.51700 -0.39900
O 	O 	0.87590 0.62060 0.38050 -0.36500
O 	O 	0.52530 0.02900 0.18460 -0.40000
O 	O 	0.71380 0.94910 0.04710 -0.33200
O 	O 	0.51990 0.23790 0.01700 -0.39700
O 	O 	0.62410 0.37940 0.88050 -0.36500
O 	O 	0.97470 0.97100 0.68460 -0.39800
O 	O 	0.78620 0.05090 0.54710 -0.33400
Cu	Cu	0.89934 0.43320 0.97066 0.89500
Cu	Cu	0.60066 0.56680 0.47066 0.90000
H 	H 	0.83800 0.22800 0.22120 0.10100
H 	H 	0.78540 0.44950 0.19790 0.12100
H 	H 	0.69940 0.35010 0.12650 0.12600
H 	H 	0.09920 0.26010 0.33050 0.01300
H 	H 	0.99140 0.37920 0.34590 0.02100
H 	H 	0.28770 0.36880 0.18870 0.12700
H 	H 	0.16450 0.50570 0.19370 0.09700
H 	H 	0.66200 0.77200 0.72120 0.10200
H 	H 	0.71460 0.55050 0.69790 0.12000
H 	H 	0.80060 0.64990 0.62650 0.12500
H 	H 	0.40080 0.73990 0.83050 0.01200
H 	H 	0.50860 0.62080 0.84590 0.02300
H 	H 	0.21230 0.63120 0.68870 0.12700
H 	H 	0.33550 0.49430 0.69370 0.09800
C 	C 	0.02810 0.21530 0.09020 0.34400
C 	C 	0.92110 0.28430 0.18900 -0.18600
C 	C 	0.05090 0.33120 0.28670 0.05600
C 	C 	0.20680 0.41860 0.24310 -0.28800
C 	C 	0.32740 0.46910 0.34510 0.36100
C 	C 	0.47190 0.78470 0.59020 0.35000
C 	C 	0.57890 0.71570 0.68900 -0.18800
C 	C 	0.44910 0.66880 0.78670 0.05400
C 	C 	0.29320 0.58140 0.74310 -0.28700
C 	C 	0.17260 0.53090 0.84510 0.36100
N 	N 	0.81000 0.39160 0.13750 -0.30400
N 	N 	0.69000 0.60840 0.63750 -0.30400
O 	O 	0.01990 0.26210 0.98300 -0.39000
O 	O 	0.12410 0.12060 0.11950 -0.36100
O 	O 	0.47470 0.52900 0.31540 -0.39900
O 	O 	0.28620 0.44910 0.45290 -0.33400
O 	O 	0.48010 0.73790 0.48300 -0.39800
O 	O 	0.37590 0.87940 0.61950 -0.36400
O 	O 	0.02530 0.47100 0.81540 -0.39600
O 	O 	0.21380 0.55090 0.95290 -0.33300
