data_crystal

_cell_length_a 28.50300
_cell_length_b 28.50300
_cell_length_c 3.53830
_cell_angle_alpha 90.00000
_cell_angle_beta  90.00000
_cell_angle_gamma 90.00000

_symmetry_space_group_name_	'P 1'
_symmetry_space_group_name_H-M	'P 1'

loop_
_symmetry_equiv_pos_as_xyz
  x,y,z

loop_
_atom_site_label
_atom_site_type_symbol
_atom_site_fract_x
_atom_site_fract_y
_atom_site_fract_z
_atom_site_charge
Ag	Ag	0.95726 0.92390 0.01130 0.41800
N 	N 	0.89080 0.94410 0.83200 -0.22300
N 	N 	0.87770 0.99060 0.82700 -0.22500
N 	N 	0.81770 0.94810 0.61900 -0.24500
C 	C 	0.85420 0.92130 0.71200 0.14500
H 	H 	0.85350 0.88880 0.69150 -0.14400
C 	C 	0.83480 0.99050 0.70000 0.15500
C 	C 	0.80700 0.03300 0.59000 0.17900
H 	H 	0.82790 0.05530 0.47380 -0.05900
H 	H 	0.79400 0.04680 0.81600 -0.03300
H 	H 	0.78290 0.02440 0.42160 -0.05700
C 	C 	0.85500 0.87020 0.63000 0.16700
H 	H 	0.88280 0.85640 0.73540 -0.05000
H 	H 	0.85590 0.86580 0.35610 -0.05400
H 	H 	0.82780 0.85550 0.72780 -0.05700
H 	H 	0.81740 0.01780 0.66950 -0.15200
Ag	Ag	0.45726 0.42390 0.51130 0.41700
N 	N 	0.39080 0.44410 0.33200 -0.22400
N 	N 	0.37770 0.49060 0.32700 -0.22600
N 	N 	0.31770 0.44810 0.11900 -0.24200
C 	C 	0.35420 0.42130 0.21200 0.14300
H 	H 	0.35350 0.38880 0.19150 -0.14100
C 	C 	0.33480 0.49050 0.20000 0.15300
C 	C 	0.30700 0.53300 0.09000 0.17500
H 	H 	0.32790 0.55530 0.97380 -0.05900
H 	H 	0.29400 0.54680 0.31600 -0.03300
H 	H 	0.28290 0.52440 0.92160 -0.05700
C 	C 	0.35500 0.37020 0.13000 0.16300
H 	H 	0.38280 0.35640 0.23540 -0.04900
H 	H 	0.35590 0.36580 0.85610 -0.05400
H 	H 	0.32780 0.35550 0.22780 -0.05500
H 	H 	0.31740 0.51780 0.16950 -0.14800
Ag	Ag	0.04274 0.07610 0.01130 0.41800
N 	N 	0.10920 0.05590 0.83200 -0.22300
N 	N 	0.12230 0.00940 0.82700 -0.22500
N 	N 	0.18230 0.05190 0.61900 -0.24500
C 	C 	0.14580 0.07870 0.71200 0.14500
H 	H 	0.14650 0.11120 0.69150 -0.14400
C 	C 	0.16520 0.00950 0.70000 0.15500
C 	C 	0.19300 0.96700 0.59000 0.17900
H 	H 	0.17210 0.94470 0.47380 -0.05900
H 	H 	0.20600 0.95320 0.81600 -0.03300
H 	H 	0.21710 0.97560 0.42160 -0.05700
C 	C 	0.14500 0.12980 0.63000 0.16700
H 	H 	0.11720 0.14360 0.73540 -0.05000
H 	H 	0.14410 0.13420 0.35610 -0.05400
H 	H 	0.17220 0.14450 0.72780 -0.05700
H 	H 	0.18260 0.98220 0.66950 -0.15200
Ag	Ag	0.54274 0.57610 0.51130 0.41700
N 	N 	0.60920 0.55590 0.33200 -0.22400
N 	N 	0.62230 0.50940 0.32700 -0.22600
N 	N 	0.68230 0.55190 0.11900 -0.24200
C 	C 	0.64580 0.57870 0.21200 0.14300
H 	H 	0.64650 0.61120 0.19150 -0.14100
C 	C 	0.66520 0.50950 0.20000 0.15300
C 	C 	0.69300 0.46700 0.09000 0.17500
H 	H 	0.67210 0.44470 0.97380 -0.05900
H 	H 	0.70600 0.45320 0.31600 -0.03300
H 	H 	0.71710 0.47560 0.92160 -0.05700
C 	C 	0.64500 0.62980 0.13000 0.16300
H 	H 	0.61720 0.64360 0.23540 -0.04900
H 	H 	0.64410 0.63420 0.85610 -0.05400
H 	H 	0.67220 0.64450 0.22780 -0.05500
H 	H 	0.68260 0.48220 0.16950 -0.14800
Ag	Ag	0.92390 0.04274 0.98870 0.41800
N 	N 	0.94410 0.10920 0.16800 -0.22300
N 	N 	0.99060 0.12230 0.17300 -0.22500
N 	N 	0.94810 0.18230 0.38100 -0.24500
C 	C 	0.92130 0.14580 0.28800 0.14500
H 	H 	0.88880 0.14650 0.30850 -0.14400
C 	C 	0.99050 0.16520 0.30000 0.15500
C 	C 	0.03300 0.19300 0.41000 0.17900
H 	H 	0.05530 0.17210 0.52620 -0.05900
H 	H 	0.04680 0.20600 0.18400 -0.03300
H 	H 	0.02440 0.21710 0.57840 -0.05700
C 	C 	0.87020 0.14500 0.37000 0.16700
H 	H 	0.85640 0.11720 0.26460 -0.05000
H 	H 	0.86580 0.14410 0.64390 -0.05400
H 	H 	0.85550 0.17220 0.27220 -0.05700
H 	H 	0.01780 0.18260 0.33050 -0.15200
Ag	Ag	0.42390 0.54274 0.48870 0.41700
N 	N 	0.44410 0.60920 0.66800 -0.22400
N 	N 	0.49060 0.62230 0.67300 -0.22600
N 	N 	0.44810 0.68230 0.88100 -0.24200
C 	C 	0.42130 0.64580 0.78800 0.14300
H 	H 	0.38880 0.64650 0.80850 -0.14100
C 	C 	0.49050 0.66520 0.80000 0.15300
C 	C 	0.53300 0.69300 0.91000 0.17500
H 	H 	0.55530 0.67210 0.02620 -0.05900
H 	H 	0.54680 0.70600 0.68400 -0.03300
H 	H 	0.52440 0.71710 0.07840 -0.05700
C 	C 	0.37020 0.64500 0.87000 0.16300
H 	H 	0.35640 0.61720 0.76460 -0.04900
H 	H 	0.36580 0.64410 0.14390 -0.05400
H 	H 	0.35550 0.67220 0.77220 -0.05500
H 	H 	0.51780 0.68260 0.83050 -0.14800
Ag	Ag	0.07610 0.95726 0.98870 0.41800
N 	N 	0.05590 0.89080 0.16800 -0.22300
N 	N 	0.00940 0.87770 0.17300 -0.22500
N 	N 	0.05190 0.81770 0.38100 -0.24500
C 	C 	0.07870 0.85420 0.28800 0.14500
H 	H 	0.11120 0.85350 0.30850 -0.14400
C 	C 	0.00950 0.83480 0.30000 0.15500
C 	C 	0.96700 0.80700 0.41000 0.17900
H 	H 	0.94470 0.82790 0.52620 -0.05900
H 	H 	0.95320 0.79400 0.18400 -0.03300
H 	H 	0.97560 0.78290 0.57840 -0.05700
C 	C 	0.12980 0.85500 0.37000 0.16700
H 	H 	0.14360 0.88280 0.26460 -0.05000
H 	H 	0.13420 0.85590 0.64390 -0.05400
H 	H 	0.14450 0.82780 0.27220 -0.05700
H 	H 	0.98220 0.81740 0.33050 -0.15200
Ag	Ag	0.57610 0.45726 0.48870 0.41700
N 	N 	0.55590 0.39080 0.66800 -0.22400
N 	N 	0.50940 0.37770 0.67300 -0.22600
N 	N 	0.55190 0.31770 0.88100 -0.24200
C 	C 	0.57870 0.35420 0.78800 0.14300
H 	H 	0.61120 0.35350 0.80850 -0.14100
C 	C 	0.50950 0.33480 0.80000 0.15300
C 	C 	0.46700 0.30700 0.91000 0.17500
H 	H 	0.44470 0.32790 0.02620 -0.05900
H 	H 	0.45320 0.29400 0.68400 -0.03300
H 	H 	0.47560 0.28290 0.07840 -0.05700
C 	C 	0.62980 0.35500 0.87000 0.16300
H 	H 	0.64360 0.38280 0.76460 -0.04900
H 	H 	0.63420 0.35590 0.14390 -0.05400
H 	H 	0.64450 0.32780 0.77220 -0.05500
H 	H 	0.48220 0.31740 0.83050 -0.14800
Ag	Ag	0.54274 0.92390 0.73870 0.41800
N 	N 	0.60920 0.94410 0.91800 -0.22000
N 	N 	0.62230 0.99060 0.92300 -0.22300
N 	N 	0.68230 0.94810 0.13100 -0.24400
C 	C 	0.64580 0.92130 0.03800 0.13800
H 	H 	0.64650 0.88880 0.05850 -0.14300
C 	C 	0.66520 0.99050 0.05000 0.15100
C 	C 	0.69300 0.03300 0.16000 0.18500
H 	H 	0.67210 0.05530 0.27620 -0.06200
H 	H 	0.70600 0.04680 0.93400 -0.03200
H 	H 	0.71710 0.02440 0.32840 -0.05800
C 	C 	0.64500 0.87020 0.12000 0.16800
H 	H 	0.61720 0.85640 0.01460 -0.05200
H 	H 	0.64410 0.86580 0.39390 -0.05300
H 	H 	0.67220 0.85550 0.02220 -0.05900
H 	H 	0.68260 0.01780 0.08050 -0.15600
Ag	Ag	0.04274 0.42390 0.23870 0.41800
N 	N 	0.10920 0.44410 0.41800 -0.22400
N 	N 	0.12230 0.49060 0.42300 -0.22600
N 	N 	0.18230 0.44810 0.63100 -0.24500
C 	C 	0.14580 0.42130 0.53800 0.14400
H 	H 	0.14650 0.38880 0.55850 -0.14400
C 	C 	0.16520 0.49050 0.55000 0.15400
C 	C 	0.19300 0.53300 0.66000 0.17900
H 	H 	0.17210 0.55530 0.77620 -0.06000
H 	H 	0.20600 0.54680 0.43400 -0.03300
H 	H 	0.21710 0.52440 0.82840 -0.05700
C 	C 	0.14500 0.37020 0.62000 0.16700
H 	H 	0.11720 0.35640 0.51460 -0.05000
H 	H 	0.14410 0.36580 0.89390 -0.05500
H 	H 	0.17220 0.35550 0.52220 -0.05700
H 	H 	0.18260 0.51780 0.58050 -0.15100
Ag	Ag	0.45726 0.07610 0.73870 0.41800
N 	N 	0.39080 0.05590 0.91800 -0.22000
N 	N 	0.37770 0.00940 0.92300 -0.22300
N 	N 	0.31770 0.05190 0.13100 -0.24400
C 	C 	0.35420 0.07870 0.03800 0.13800
H 	H 	0.35350 0.11120 0.05850 -0.14300
C 	C 	0.33480 0.00950 0.05000 0.15100
C 	C 	0.30700 0.96700 0.16000 0.18500
H 	H 	0.32790 0.94470 0.27620 -0.06200
H 	H 	0.29400 0.95320 0.93400 -0.03200
H 	H 	0.28290 0.97560 0.32840 -0.05800
C 	C 	0.35500 0.12980 0.12000 0.16800
H 	H 	0.38280 0.14360 0.01460 -0.05200
H 	H 	0.35590 0.13420 0.39390 -0.05300
H 	H 	0.32780 0.14450 0.02220 -0.05900
H 	H 	0.31740 0.98220 0.08050 -0.15600
Ag	Ag	0.95726 0.57610 0.23870 0.41800
N 	N 	0.89080 0.55590 0.41800 -0.22400
N 	N 	0.87770 0.50940 0.42300 -0.22600
N 	N 	0.81770 0.55190 0.63100 -0.24500
C 	C 	0.85420 0.57870 0.53800 0.14400
H 	H 	0.85350 0.61120 0.55850 -0.14400
C 	C 	0.83480 0.50950 0.55000 0.15400
C 	C 	0.80700 0.46700 0.66000 0.17900
H 	H 	0.82790 0.44470 0.77620 -0.06000
H 	H 	0.79400 0.45320 0.43400 -0.03300
H 	H 	0.78290 0.47560 0.82840 -0.05700
C 	C 	0.85500 0.62980 0.62000 0.16700
H 	H 	0.88280 0.64360 0.51460 -0.05000
H 	H 	0.85590 0.63420 0.89390 -0.05500
H 	H 	0.82780 0.64450 0.52220 -0.05700
H 	H 	0.81740 0.48220 0.58050 -0.15100
Ag	Ag	0.57610 0.04274 0.76130 0.41800
N 	N 	0.55590 0.10920 0.58200 -0.22400
N 	N 	0.50940 0.12230 0.57700 -0.22600
N 	N 	0.55190 0.18230 0.36900 -0.24500
C 	C 	0.57870 0.14580 0.46200 0.14400
H 	H 	0.61120 0.14650 0.44150 -0.14400
C 	C 	0.50950 0.16520 0.45000 0.15400
C 	C 	0.46700 0.19300 0.34000 0.17900
H 	H 	0.44470 0.17210 0.22380 -0.06000
H 	H 	0.45320 0.20600 0.56600 -0.03300
H 	H 	0.47560 0.21710 0.17160 -0.05700
C 	C 	0.62980 0.14500 0.38000 0.16700
H 	H 	0.64360 0.11720 0.48540 -0.05000
H 	H 	0.63420 0.14410 0.10610 -0.05500
H 	H 	0.64450 0.17220 0.47780 -0.05700
H 	H 	0.48220 0.18260 0.41950 -0.15100
Ag	Ag	0.07610 0.54274 0.26130 0.41800
N 	N 	0.05590 0.60920 0.08200 -0.22000
N 	N 	0.00940 0.62230 0.07700 -0.22300
N 	N 	0.05190 0.68230 0.86900 -0.24400
C 	C 	0.07870 0.64580 0.96200 0.13800
H 	H 	0.11120 0.64650 0.94150 -0.14300
C 	C 	0.00950 0.66520 0.95000 0.15100
C 	C 	0.96700 0.69300 0.84000 0.18500
H 	H 	0.94470 0.67210 0.72380 -0.06200
H 	H 	0.95320 0.70600 0.06600 -0.03200
H 	H 	0.97560 0.71710 0.67160 -0.05800
C 	C 	0.12980 0.64500 0.88000 0.16800
H 	H 	0.14360 0.61720 0.98540 -0.05200
H 	H 	0.13420 0.64410 0.60610 -0.05300
H 	H 	0.14450 0.67220 0.97780 -0.05900
H 	H 	0.98220 0.68260 0.91950 -0.15600
Ag	Ag	0.42390 0.95726 0.76130 0.41800
N 	N 	0.44410 0.89080 0.58200 -0.22400
N 	N 	0.49060 0.87770 0.57700 -0.22600
N 	N 	0.44810 0.81770 0.36900 -0.24500
C 	C 	0.42130 0.85420 0.46200 0.14400
H 	H 	0.38880 0.85350 0.44150 -0.14400
C 	C 	0.49050 0.83480 0.45000 0.15400
C 	C 	0.53300 0.80700 0.34000 0.17900
H 	H 	0.55530 0.82790 0.22380 -0.06000
H 	H 	0.54680 0.79400 0.56600 -0.03300
H 	H 	0.52440 0.78290 0.17160 -0.05700
C 	C 	0.37020 0.85500 0.38000 0.16700
H 	H 	0.35640 0.88280 0.48540 -0.05000
H 	H 	0.36580 0.85590 0.10610 -0.05500
H 	H 	0.35550 0.82780 0.47780 -0.05700
H 	H 	0.51780 0.81740 0.41950 -0.15100
Ag	Ag	0.92390 0.45726 0.26130 0.41800
N 	N 	0.94410 0.39080 0.08200 -0.22000
N 	N 	0.99060 0.37770 0.07700 -0.22300
N 	N 	0.94810 0.31770 0.86900 -0.24400
C 	C 	0.92130 0.35420 0.96200 0.13800
H 	H 	0.88880 0.35350 0.94150 -0.14300
C 	C 	0.99050 0.33480 0.95000 0.15100
C 	C 	0.03300 0.30700 0.84000 0.18500
H 	H 	0.05530 0.32790 0.72380 -0.06200
H 	H 	0.04680 0.29400 0.06600 -0.03200
H 	H 	0.02440 0.28290 0.67160 -0.05800
C 	C 	0.87020 0.35500 0.88000 0.16800
H 	H 	0.85640 0.38280 0.98540 -0.05200
H 	H 	0.86580 0.35590 0.60610 -0.05300
H 	H 	0.85550 0.32780 0.97780 -0.05900
H 	H 	0.01780 0.31740 0.91950 -0.15600
Ag	Ag	0.75000 0.92810 0.37500 0.47800
Ag	Ag	0.25000 0.42810 0.87500 0.47600
Ag	Ag	0.25000 0.07190 0.37500 0.47800
Ag	Ag	0.75000 0.57190 0.87500 0.47600
Ag	Ag	0.92810 0.25000 0.62500 0.47800
Ag	Ag	0.07190 0.75000 0.62500 0.47800
Ag	Ag	0.57190 0.25000 0.12500 0.47600
Ag	Ag	0.42810 0.75000 0.12500 0.47600
