data_crystal

_cell_length_a 7.23800
_cell_length_b 10.35000
_cell_length_c 11.08400
_cell_angle_alpha 90.00000
_cell_angle_beta  90.00000
_cell_angle_gamma 90.00000

_symmetry_space_group_name_	'P 1'
_symmetry_space_group_name_H-M	'P 1'

loop_
_symmetry_equiv_pos_as_xyz
  x,y,z

loop_
_atom_site_label
_atom_site_type_symbol
_atom_site_fract_x
_atom_site_fract_y
_atom_site_fract_z
_atom_site_charge
Cu	Cu	0.64970 0.81668 0.72067 0.89300
Cu	Cu	0.35030 0.68332 0.22067 0.89500
H 	H 	0.58300 0.02200 0.97200 0.06700
H 	H 	0.83900 0.98100 0.08100 0.04500
H 	H 	0.74100 0.86200 0.10300 0.04800
H 	H 	0.03900 0.89300 0.93700 0.09100
H 	H 	0.90800 0.74100 0.95400 0.07700
H 	H 	0.47600 0.86100 0.86500 0.27100
H 	H 	0.57400 0.78200 0.94600 0.10900
H 	H 	0.41700 0.47800 0.47200 0.07000
H 	H 	0.16100 0.51900 0.58100 0.04100
H 	H 	0.25900 0.63800 0.60300 0.04500
H 	H 	0.96100 0.60700 0.43700 0.09500
H 	H 	0.09200 0.75900 0.45400 0.07900
H 	H 	0.52400 0.63900 0.36500 0.27100
H 	H 	0.42600 0.71800 0.44600 0.10900
C 	C 	0.77800 0.03400 0.84050 0.31400
C 	C 	0.66990 0.96610 0.93890 -0.08300
C 	C 	0.80150 0.91760 0.03700 -0.04300
C 	C 	0.95730 0.83260 0.99330 -0.20400
C 	C 	0.07560 0.78290 0.09540 0.32600
C 	C 	0.22200 0.46600 0.34050 0.31900
C 	C 	0.33010 0.53390 0.43890 -0.09100
C 	C 	0.19850 0.58240 0.53700 -0.03400
C 	C 	0.04270 0.66740 0.49330 -0.21300
C 	C 	0.92440 0.71710 0.59540 0.32900
N 	N 	0.56020 0.85830 0.88670 -0.45400
N 	N 	0.43980 0.64170 0.38670 -0.45200
O 	O 	0.76830 0.98720 0.73340 -0.38600
O 	O 	0.87410 0.12860 0.86900 -0.36200
O 	O 	0.22490 0.72140 0.06590 -0.38400
O 	O 	0.03560 0.80060 0.20310 -0.32700
O 	O 	0.23170 0.51280 0.23340 -0.38900
O 	O 	0.12590 0.37140 0.36900 -0.36200
O 	O 	0.77510 0.77860 0.56590 -0.38400
O 	O 	0.96440 0.69940 0.70310 -0.32700
Cu	Cu	0.14970 0.18332 0.77933 0.89500
Cu	Cu	0.85030 0.31668 0.27933 0.89400
H 	H 	0.08300 0.97800 0.52800 0.06600
H 	H 	0.33900 0.01900 0.41900 0.04400
H 	H 	0.24100 0.13800 0.39700 0.04800
H 	H 	0.53900 0.10700 0.56300 0.09400
H 	H 	0.40800 0.25900 0.54600 0.07800
H 	H 	0.97600 0.13900 0.63500 0.26800
H 	H 	0.07400 0.21800 0.55400 0.10900
H 	H 	0.91700 0.52200 0.02800 0.06900
H 	H 	0.66100 0.48100 0.91900 0.04300
H 	H 	0.75900 0.36200 0.89700 0.04700
H 	H 	0.46100 0.39300 0.06300 0.09400
H 	H 	0.59200 0.24100 0.04600 0.07900
H 	H 	0.02400 0.36100 0.13500 0.27600
H 	H 	0.92600 0.28200 0.05400 0.10900
C 	C 	0.27800 0.96600 0.65950 0.31300
C 	C 	0.16990 0.03390 0.56110 -0.08200
C 	C 	0.30150 0.08240 0.46300 -0.04100
C 	C 	0.45730 0.16740 0.50670 -0.21000
C 	C 	0.57560 0.21710 0.40460 0.32700
C 	C 	0.72200 0.53400 0.15950 0.31800
C 	C 	0.83010 0.46610 0.06110 -0.08800
C 	C 	0.69850 0.41760 0.96300 -0.03900
C 	C 	0.54270 0.33260 0.00670 -0.20900
C 	C 	0.42440 0.28290 0.90460 0.32700
N 	N 	0.06020 0.14170 0.61330 -0.45000
N 	N 	0.93980 0.35830 0.11330 -0.45700
O 	O 	0.26830 0.01280 0.76660 -0.38600
O 	O 	0.37410 0.87140 0.63100 -0.36100
O 	O 	0.72490 0.27860 0.43410 -0.38500
O 	O 	0.53560 0.19940 0.29690 -0.32700
O 	O 	0.73170 0.48720 0.26660 -0.38900
O 	O 	0.62590 0.62860 0.13100 -0.36200
O 	O 	0.27510 0.22140 0.93410 -0.38400
O 	O 	0.46440 0.30060 0.79690 -0.32700
