data_crystal

_cell_length_a 10.87670
_cell_length_b 12.69800
_cell_length_c 14.37300
_cell_angle_alpha 113.64400
_cell_angle_beta  92.07100
_cell_angle_gamma 114.57900

_symmetry_space_group_name_	'P 1'
_symmetry_space_group_name_H-M	'P 1'

loop_
_symmetry_equiv_pos_as_xyz
  x,y,z

loop_
_atom_site_label
_atom_site_type_symbol
_atom_site_fract_x
_atom_site_fract_y
_atom_site_fract_z
_atom_site_charge
Cu	Cu	0.50154 0.44468 0.25133 0.83100
N 	N 	0.60050 0.63180 0.28050 -0.25900
C 	C 	0.92250 0.86710 0.96280 -0.07500
H 	H 	0.87000 0.77750 0.93740 0.05000
O 	O 	0.50640 0.48540 0.39590 -0.68500
N 	N 	0.41390 0.25340 0.20510 -0.26000
Cu	Cu	0.60680 0.50280 0.50600 0.79100
O 	O 	0.13540 0.88110 0.24570 -0.23800
C 	C 	0.35380 0.04250 0.06810 -0.12300
H 	H 	0.36400 0.99230 0.00380 0.06200
C 	C 	0.02990 0.90780 0.42480 -0.09500
H 	H 	0.05120 0.84710 0.37610 0.07500
O 	O 	0.84900 0.72000 0.08270 -0.23700
C 	C 	0.00170 0.91540 0.90290 -0.07600
H 	H 	0.00300 0.85830 0.83790 0.04400
N 	N 	0.84090 0.90980 0.12700 -0.15800
C 	C 	0.06960 0.02810 0.42730 0.09600
N 	N 	0.14560 0.06970 0.35920 -0.17300
C 	C 	0.81380 0.80100 0.13890 0.21600
C 	C 	0.27380 0.98550 0.12070 0.03400
H 	H 	0.22680 0.89520 0.09250 0.02900
C 	C 	0.41990 0.17590 0.11090 0.05700
H 	H 	0.47140 0.21440 0.07270 -0.03100
C 	C 	0.95820 0.88040 0.49630 -0.06600
H 	H 	0.92760 0.79870 0.49330 0.02400
C 	C 	0.92020 0.95080 0.06100 0.09900
C 	C 	0.17590 0.99690 0.27520 0.22100
C 	C 	0.73900 0.78360 0.21860 -0.09900
C 	C 	0.59470 0.72870 0.35920 0.09400
H 	H 	0.54200 0.70990 0.40530 -0.05700
C 	C 	0.73190 0.88280 0.30280 0.04900
H 	H 	0.77320 0.96730 0.31070 0.01000
C 	C 	0.26180 0.06200 0.21700 -0.10400
C 	C 	0.66950 0.65860 0.20980 0.04600
H 	H 	0.67060 0.59030 0.15260 -0.01800
C 	C 	0.66120 0.85340 0.37590 -0.15600
H 	H 	0.66020 0.91930 0.43530 0.07400
C 	C 	0.33630 0.19500 0.25720 0.06500
H 	H 	0.33260 0.24680 0.32350 -0.05800
Cu	Cu	0.49846 0.55532 0.74867 0.83200
N 	N 	0.39950 0.36820 0.71950 -0.25800
C 	C 	0.07750 0.13290 0.03720 -0.07500
H 	H 	0.13000 0.22250 0.06260 0.05000
O 	O 	0.49360 0.51460 0.60410 -0.68500
N 	N 	0.58610 0.74660 0.79490 -0.26000
Cu	Cu	0.39320 0.49720 0.49400 0.79100
O 	O 	0.86460 0.11890 0.75430 -0.23800
C 	C 	0.64620 0.95750 0.93190 -0.12300
H 	H 	0.63600 0.00770 0.99620 0.06200
C 	C 	0.97010 0.09220 0.57520 -0.09500
H 	H 	0.94880 0.15290 0.62390 0.07500
O 	O 	0.15100 0.28000 0.91730 -0.23700
C 	C 	0.99830 0.08460 0.09710 -0.07600
H 	H 	0.99700 0.14170 0.16210 0.04400
N 	N 	0.15910 0.09020 0.87300 -0.15800
C 	C 	0.93040 0.97190 0.57270 0.09600
N 	N 	0.85440 0.93030 0.64080 -0.17300
C 	C 	0.18620 0.19900 0.86110 0.21600
C 	C 	0.72620 0.01450 0.87930 0.03400
H 	H 	0.77320 0.10480 0.90750 0.02900
C 	C 	0.58010 0.82410 0.88910 0.05700
H 	H 	0.52860 0.78560 0.92730 -0.03100
C 	C 	0.04180 0.11960 0.50370 -0.06600
H 	H 	0.07240 0.20130 0.50670 0.02400
C 	C 	0.07980 0.04920 0.93900 0.09900
C 	C 	0.82410 0.00310 0.72480 0.22100
C 	C 	0.26100 0.21640 0.78140 -0.09900
C 	C 	0.40530 0.27130 0.64080 0.09400
H 	H 	0.45800 0.29010 0.59470 -0.05700
C 	C 	0.26810 0.11720 0.69720 0.04900
H 	H 	0.22680 0.03270 0.68930 0.01000
C 	C 	0.73820 0.93800 0.78300 -0.10400
C 	C 	0.33050 0.34140 0.79020 0.04600
H 	H 	0.32940 0.40970 0.84740 -0.01800
C 	C 	0.33880 0.14660 0.62410 -0.15600
H 	H 	0.33980 0.08070 0.56470 0.07400
C 	C 	0.66370 0.80500 0.74280 0.06500
H 	H 	0.66740 0.75320 0.67650 -0.05800
