data_crystal

_cell_length_a 28.70800
_cell_length_b 28.70800
_cell_length_c 3.52490
_cell_angle_alpha 90.00000
_cell_angle_beta  90.00000
_cell_angle_gamma 90.00000

_symmetry_space_group_name_	'P 1'
_symmetry_space_group_name_H-M	'P 1'

loop_
_symmetry_equiv_pos_as_xyz
  x,y,z

loop_
_atom_site_label
_atom_site_type_symbol
_atom_site_fract_x
_atom_site_fract_y
_atom_site_fract_z
_atom_site_charge
Ag	Ag	0.04316 0.57418 0.24500 0.40600
N 	N 	0.11050 0.55420 0.43800 -0.21900
N 	N 	0.12290 0.50890 0.43400 -0.21900
N 	N 	0.18250 0.54880 0.64100 -0.25000
C 	C 	0.14780 0.57680 0.55600 0.14200
C 	C 	0.14490 0.62850 0.56000 0.16500
H 	H 	0.11670 0.63780 0.68950 -0.05700
H 	H 	0.14500 0.64030 0.30950 -0.04900
H 	H 	0.17120 0.64090 0.69960 -0.05200
C 	C 	0.16600 0.50800 0.56600 0.15100
H 	H 	0.18280 0.48060 0.60070 -0.14100
C 	C 	0.18970 0.46320 0.62700 0.15000
H 	H 	0.17270 0.44530 0.81050 -0.05100
H 	H 	0.22070 0.46870 0.71750 -0.04200
H 	H 	0.19100 0.44630 0.39160 -0.03500
H 	H 	0.14940 0.60910 0.57720 -0.14300
Ag	Ag	0.54316 0.07418 0.74500 0.40700
N 	N 	0.61050 0.05420 0.93800 -0.21300
N 	N 	0.62290 0.00890 0.93400 -0.21300
N 	N 	0.68250 0.04880 0.14100 -0.24800
C 	C 	0.64780 0.07680 0.05600 0.13600
C 	C 	0.64490 0.12850 0.06000 0.17800
H 	H 	0.61670 0.13780 0.18950 -0.06100
H 	H 	0.64500 0.14030 0.80950 -0.05000
H 	H 	0.67120 0.14090 0.19960 -0.05500
C 	C 	0.66600 0.00800 0.06600 0.14500
H 	H 	0.68280 0.98060 0.10070 -0.14800
C 	C 	0.68970 0.96320 0.12700 0.16100
H 	H 	0.67270 0.94530 0.31050 -0.05300
H 	H 	0.72070 0.96870 0.21750 -0.04400
H 	H 	0.69100 0.94630 0.89160 -0.03500
H 	H 	0.64940 0.10910 0.07720 -0.15100
Ag	Ag	0.95684 0.42582 0.24500 0.40700
N 	N 	0.88950 0.44580 0.43800 -0.21800
N 	N 	0.87710 0.49110 0.43400 -0.21800
N 	N 	0.81750 0.45120 0.64100 -0.24900
C 	C 	0.85220 0.42320 0.55600 0.14200
C 	C 	0.85510 0.37150 0.56000 0.16500
H 	H 	0.88330 0.36220 0.68950 -0.05700
H 	H 	0.85500 0.35970 0.30950 -0.04900
H 	H 	0.82880 0.35910 0.69960 -0.05200
C 	C 	0.83400 0.49200 0.56600 0.15100
H 	H 	0.81720 0.51940 0.60070 -0.14100
C 	C 	0.81030 0.53680 0.62700 0.15000
H 	H 	0.82730 0.55470 0.81050 -0.05100
H 	H 	0.77930 0.53130 0.71750 -0.04200
H 	H 	0.80900 0.55370 0.39160 -0.03500
H 	H 	0.85060 0.39090 0.57720 -0.14300
Ag	Ag	0.45684 0.92582 0.74500 0.40700
N 	N 	0.38950 0.94580 0.93800 -0.21300
N 	N 	0.37710 0.99110 0.93400 -0.21300
N 	N 	0.31750 0.95120 0.14100 -0.24800
C 	C 	0.35220 0.92320 0.05600 0.13600
C 	C 	0.35510 0.87150 0.06000 0.17800
H 	H 	0.38330 0.86220 0.18950 -0.06100
H 	H 	0.35500 0.85970 0.80950 -0.05000
H 	H 	0.32880 0.85910 0.19960 -0.05500
C 	C 	0.33400 0.99200 0.06600 0.14500
H 	H 	0.31720 0.01940 0.10070 -0.14800
C 	C 	0.31030 0.03680 0.12700 0.16100
H 	H 	0.32730 0.05470 0.31050 -0.05300
H 	H 	0.27930 0.03130 0.21750 -0.04400
H 	H 	0.30900 0.05370 0.89160 -0.03500
H 	H 	0.35060 0.89090 0.07720 -0.15100
Ag	Ag	0.57418 0.95684 0.75500 0.40700
N 	N 	0.55420 0.88950 0.56200 -0.21800
N 	N 	0.50890 0.87710 0.56600 -0.21800
N 	N 	0.54880 0.81750 0.35900 -0.24900
C 	C 	0.57680 0.85220 0.44400 0.14200
C 	C 	0.62850 0.85510 0.44000 0.16500
H 	H 	0.63780 0.88330 0.31050 -0.05700
H 	H 	0.64030 0.85500 0.69050 -0.04900
H 	H 	0.64090 0.82880 0.30040 -0.05200
C 	C 	0.50800 0.83400 0.43400 0.15100
H 	H 	0.48060 0.81720 0.39930 -0.14100
C 	C 	0.46320 0.81030 0.37300 0.15000
H 	H 	0.44530 0.82730 0.18950 -0.05100
H 	H 	0.46870 0.77930 0.28250 -0.04200
H 	H 	0.44630 0.80900 0.60840 -0.03500
H 	H 	0.60910 0.85060 0.42280 -0.14300
Ag	Ag	0.07418 0.45684 0.25500 0.40700
N 	N 	0.05420 0.38950 0.06200 -0.21300
N 	N 	0.00890 0.37710 0.06600 -0.21300
N 	N 	0.04880 0.31750 0.85900 -0.24800
C 	C 	0.07680 0.35220 0.94400 0.13600
C 	C 	0.12850 0.35510 0.94000 0.17800
H 	H 	0.13780 0.38330 0.81050 -0.06100
H 	H 	0.14030 0.35500 0.19050 -0.05000
H 	H 	0.14090 0.32880 0.80040 -0.05500
C 	C 	0.00800 0.33400 0.93400 0.14500
H 	H 	0.98060 0.31720 0.89930 -0.14800
C 	C 	0.96320 0.31030 0.87300 0.16100
H 	H 	0.94530 0.32730 0.68950 -0.05300
H 	H 	0.96870 0.27930 0.78250 -0.04400
H 	H 	0.94630 0.30900 0.10840 -0.03500
H 	H 	0.10910 0.35060 0.92280 -0.15100
Ag	Ag	0.42582 0.04316 0.75500 0.40700
N 	N 	0.44580 0.11050 0.56200 -0.21800
N 	N 	0.49110 0.12290 0.56600 -0.21800
N 	N 	0.45120 0.18250 0.35900 -0.24900
C 	C 	0.42320 0.14780 0.44400 0.14200
C 	C 	0.37150 0.14490 0.44000 0.16500
H 	H 	0.36220 0.11670 0.31050 -0.05700
H 	H 	0.35970 0.14500 0.69050 -0.04900
H 	H 	0.35910 0.17120 0.30040 -0.05200
C 	C 	0.49200 0.16600 0.43400 0.15100
H 	H 	0.51940 0.18280 0.39930 -0.14100
C 	C 	0.53680 0.18970 0.37300 0.15000
H 	H 	0.55470 0.17270 0.18950 -0.05100
H 	H 	0.53130 0.22070 0.28250 -0.04200
H 	H 	0.55370 0.19100 0.60840 -0.03500
H 	H 	0.39090 0.14940 0.42280 -0.14300
Ag	Ag	0.92582 0.54316 0.25500 0.40700
N 	N 	0.94580 0.61050 0.06200 -0.21300
N 	N 	0.99110 0.62290 0.06600 -0.21300
N 	N 	0.95120 0.68250 0.85900 -0.24800
C 	C 	0.92320 0.64780 0.94400 0.13600
C 	C 	0.87150 0.64490 0.94000 0.17800
H 	H 	0.86220 0.61670 0.81050 -0.06100
H 	H 	0.85970 0.64500 0.19050 -0.05000
H 	H 	0.85910 0.67120 0.80040 -0.05500
C 	C 	0.99200 0.66600 0.93400 0.14500
H 	H 	0.01940 0.68280 0.89930 -0.14800
C 	C 	0.03680 0.68970 0.87300 0.16100
H 	H 	0.05470 0.67270 0.68950 -0.05300
H 	H 	0.03130 0.72070 0.78250 -0.04400
H 	H 	0.05370 0.69100 0.10840 -0.03500
H 	H 	0.89090 0.64940 0.92280 -0.15100
Ag	Ag	0.45684 0.57418 0.50500 0.40600
N 	N 	0.38950 0.55420 0.31200 -0.21900
N 	N 	0.37710 0.50890 0.31600 -0.21900
N 	N 	0.31750 0.54880 0.10900 -0.24600
C 	C 	0.35220 0.57680 0.19400 0.14300
C 	C 	0.35510 0.62850 0.19000 0.16600
H 	H 	0.38330 0.63780 0.06050 -0.05500
H 	H 	0.35500 0.64030 0.44050 -0.05300
H 	H 	0.32880 0.64090 0.05040 -0.04900
C 	C 	0.33400 0.50800 0.18400 0.15100
H 	H 	0.31720 0.48060 0.14930 -0.13900
C 	C 	0.31030 0.46320 0.12300 0.14900
H 	H 	0.32730 0.44530 0.93950 -0.05100
H 	H 	0.27930 0.46870 0.03250 -0.03700
H 	H 	0.30900 0.44630 0.35840 -0.03700
H 	H 	0.35060 0.60910 0.17280 -0.14400
Ag	Ag	0.95684 0.07418 0.00500 0.40700
N 	N 	0.88950 0.05420 0.81200 -0.21800
N 	N 	0.87710 0.00890 0.81600 -0.21800
N 	N 	0.81750 0.04880 0.60900 -0.24900
C 	C 	0.85220 0.07680 0.69400 0.14300
C 	C 	0.85510 0.12850 0.69000 0.16500
H 	H 	0.88330 0.13780 0.56050 -0.05600
H 	H 	0.85500 0.14030 0.94050 -0.05000
H 	H 	0.82880 0.14090 0.55040 -0.05100
C 	C 	0.83400 0.00800 0.68400 0.15300
H 	H 	0.81720 0.98060 0.64930 -0.14200
C 	C 	0.81030 0.96320 0.62300 0.15100
H 	H 	0.82730 0.94530 0.43950 -0.05000
H 	H 	0.77930 0.96870 0.53250 -0.04000
H 	H 	0.80900 0.94630 0.85840 -0.03600
H 	H 	0.85060 0.10910 0.67280 -0.14400
Ag	Ag	0.54316 0.42582 0.50500 0.40600
N 	N 	0.61050 0.44580 0.31200 -0.21900
N 	N 	0.62290 0.49110 0.31600 -0.21900
N 	N 	0.68250 0.45120 0.10900 -0.24600
C 	C 	0.64780 0.42320 0.19400 0.14300
C 	C 	0.64490 0.37150 0.19000 0.16600
H 	H 	0.61670 0.36220 0.06050 -0.05500
H 	H 	0.64500 0.35970 0.44050 -0.05300
H 	H 	0.67120 0.35910 0.05040 -0.04900
C 	C 	0.66600 0.49200 0.18400 0.15100
H 	H 	0.68280 0.51940 0.14930 -0.13900
C 	C 	0.68970 0.53680 0.12300 0.14900
H 	H 	0.67270 0.55470 0.93950 -0.05100
H 	H 	0.72070 0.53130 0.03250 -0.03700
H 	H 	0.69100 0.55370 0.35840 -0.03700
H 	H 	0.64940 0.39090 0.17280 -0.14400
Ag	Ag	0.04316 0.92582 0.00500 0.40700
N 	N 	0.11050 0.94580 0.81200 -0.21800
N 	N 	0.12290 0.99110 0.81600 -0.21800
N 	N 	0.18250 0.95120 0.60900 -0.24900
C 	C 	0.14780 0.92320 0.69400 0.14300
C 	C 	0.14490 0.87150 0.69000 0.16500
H 	H 	0.11670 0.86220 0.56050 -0.05600
H 	H 	0.14500 0.85970 0.94050 -0.05000
H 	H 	0.17120 0.85910 0.55040 -0.05100
C 	C 	0.16600 0.99200 0.68400 0.15300
H 	H 	0.18280 0.01940 0.64930 -0.14200
C 	C 	0.18970 0.03680 0.62300 0.15100
H 	H 	0.17270 0.05470 0.43950 -0.05000
H 	H 	0.22070 0.03130 0.53250 -0.04000
H 	H 	0.19100 0.05370 0.85840 -0.03600
H 	H 	0.14940 0.89090 0.67280 -0.14400
Ag	Ag	0.92582 0.95684 0.99500 0.40700
N 	N 	0.94580 0.88950 0.18800 -0.21800
N 	N 	0.99110 0.87710 0.18400 -0.21800
N 	N 	0.95120 0.81750 0.39100 -0.24900
C 	C 	0.92320 0.85220 0.30600 0.14300
C 	C 	0.87150 0.85510 0.31000 0.16500
H 	H 	0.86220 0.88330 0.43950 -0.05600
H 	H 	0.85970 0.85500 0.05950 -0.05000
H 	H 	0.85910 0.82880 0.44960 -0.05100
C 	C 	0.99200 0.83400 0.31600 0.15300
H 	H 	0.01940 0.81720 0.35070 -0.14200
C 	C 	0.03680 0.81030 0.37700 0.15100
H 	H 	0.05470 0.82730 0.56050 -0.05000
H 	H 	0.03130 0.77930 0.46750 -0.04000
H 	H 	0.05370 0.80900 0.14160 -0.03600
H 	H 	0.89090 0.85060 0.32720 -0.14400
Ag	Ag	0.42582 0.45684 0.49500 0.40600
N 	N 	0.44580 0.38950 0.68800 -0.21900
N 	N 	0.49110 0.37710 0.68400 -0.21900
N 	N 	0.45120 0.31750 0.89100 -0.24600
C 	C 	0.42320 0.35220 0.80600 0.14300
C 	C 	0.37150 0.35510 0.81000 0.16600
H 	H 	0.36220 0.38330 0.93950 -0.05500
H 	H 	0.35970 0.35500 0.55950 -0.05300
H 	H 	0.35910 0.32880 0.94960 -0.04900
C 	C 	0.49200 0.33400 0.81600 0.15100
H 	H 	0.51940 0.31720 0.85070 -0.13900
C 	C 	0.53680 0.31030 0.87700 0.14900
H 	H 	0.55470 0.32730 0.06050 -0.05100
H 	H 	0.53130 0.27930 0.96750 -0.03700
H 	H 	0.55370 0.30900 0.64160 -0.03700
H 	H 	0.39090 0.35060 0.82720 -0.14400
Ag	Ag	0.07418 0.04316 0.99500 0.40700
N 	N 	0.05420 0.11050 0.18800 -0.21800
N 	N 	0.00890 0.12290 0.18400 -0.21800
N 	N 	0.04880 0.18250 0.39100 -0.24900
C 	C 	0.07680 0.14780 0.30600 0.14300
C 	C 	0.12850 0.14490 0.31000 0.16500
H 	H 	0.13780 0.11670 0.43950 -0.05600
H 	H 	0.14030 0.14500 0.05950 -0.05000
H 	H 	0.14090 0.17120 0.44960 -0.05100
C 	C 	0.00800 0.16600 0.31600 0.15300
H 	H 	0.98060 0.18280 0.35070 -0.14200
C 	C 	0.96320 0.18970 0.37700 0.15100
H 	H 	0.94530 0.17270 0.56050 -0.05000
H 	H 	0.96870 0.22070 0.46750 -0.04000
H 	H 	0.94630 0.19100 0.14160 -0.03600
H 	H 	0.10910 0.14940 0.32720 -0.14400
Ag	Ag	0.57418 0.54316 0.49500 0.40600
N 	N 	0.55420 0.61050 0.68800 -0.21900
N 	N 	0.50890 0.62290 0.68400 -0.21900
N 	N 	0.54880 0.68250 0.89100 -0.24600
C 	C 	0.57680 0.64780 0.80600 0.14300
C 	C 	0.62850 0.64490 0.81000 0.16600
H 	H 	0.63780 0.61670 0.93950 -0.05500
H 	H 	0.64030 0.64500 0.55950 -0.05300
H 	H 	0.64090 0.67120 0.94960 -0.04900
C 	C 	0.50800 0.66600 0.81600 0.15100
H 	H 	0.48060 0.68280 0.85070 -0.13900
C 	C 	0.46320 0.68970 0.87700 0.14900
H 	H 	0.44530 0.67270 0.06050 -0.05100
H 	H 	0.46870 0.72070 0.96750 -0.03700
H 	H 	0.44630 0.69100 0.64160 -0.03700
H 	H 	0.60910 0.64940 0.82720 -0.14400
Ag	Ag	0.25000 0.56653 0.87500 0.47500
Ag	Ag	0.75000 0.06653 0.37500 0.47900
Ag	Ag	0.75000 0.43347 0.87500 0.47500
Ag	Ag	0.25000 0.93347 0.37500 0.47900
Ag	Ag	0.56653 0.75000 0.12500 0.47500
Ag	Ag	0.43347 0.25000 0.12500 0.47500
Ag	Ag	0.93347 0.75000 0.62500 0.47900
Ag	Ag	0.06653 0.25000 0.62500 0.47900
