data_crystal

_cell_length_a 29.63370
_cell_length_b 29.63370
_cell_length_c 3.49130
_cell_angle_alpha 90.00000
_cell_angle_beta  90.00000
_cell_angle_gamma 90.00000

_symmetry_space_group_name_	'P 1'
_symmetry_space_group_name_H-M	'P 1'

loop_
_symmetry_equiv_pos_as_xyz
  x,y,z

loop_
_atom_site_label
_atom_site_type_symbol
_atom_site_fract_x
_atom_site_fract_y
_atom_site_fract_z
_atom_site_charge
N 	N 	0.38199 0.27318 0.31190 -0.29600
N 	N 	0.32940 0.33060 0.46900 0.61300
H 	H 	0.34810 0.35130 0.40200 -0.15400
H 	H 	0.30310 0.33780 0.55300 -0.12600
C 	C 	0.34173 0.28520 0.44050 0.52000
H 	H 	0.33260 0.31500 0.46790 -0.71000
N 	N 	0.88199 0.77318 0.81190 -0.29500
N 	N 	0.82940 0.83060 0.96900 0.64000
H 	H 	0.84810 0.85130 0.90200 -0.15700
H 	H 	0.80310 0.83780 0.05300 -0.12300
C 	C 	0.84173 0.78520 0.94050 0.52000
H 	H 	0.83260 0.81500 0.96790 -0.73900
N 	N 	0.11801 0.72682 0.81190 -0.29400
N 	N 	0.17060 0.66940 0.96900 0.64000
H 	H 	0.15190 0.64870 0.90200 -0.15700
H 	H 	0.19690 0.66220 0.05300 -0.12400
C 	C 	0.15827 0.71480 0.94050 0.52000
H 	H 	0.16740 0.68500 0.96790 -0.73800
N 	N 	0.61801 0.22682 0.31190 -0.29500
N 	N 	0.67060 0.16940 0.46900 0.61400
H 	H 	0.65190 0.14870 0.40200 -0.15300
H 	H 	0.69690 0.16220 0.55300 -0.12600
C 	C 	0.65827 0.21480 0.44050 0.52000
H 	H 	0.66740 0.18500 0.46790 -0.70900
N 	N 	0.97682 0.13199 0.56190 -0.29600
N 	N 	0.91940 0.07940 0.71900 0.62200
H 	H 	0.89870 0.09810 0.65200 -0.14700
H 	H 	0.91220 0.05310 0.80300 -0.12500
C 	C 	0.96480 0.09173 0.69050 0.52300
H 	H 	0.93500 0.08260 0.71790 -0.71600
N 	N 	0.47682 0.63199 0.06190 -0.28400
N 	N 	0.41940 0.57940 0.21900 0.61700
H 	H 	0.39870 0.59810 0.15200 -0.14500
H 	H 	0.41220 0.55310 0.30300 -0.12900
C 	C 	0.46480 0.59173 0.19050 0.52200
H 	H 	0.43500 0.58260 0.21790 -0.71200
N 	N 	0.52318 0.86801 0.06190 -0.28500
N 	N 	0.58060 0.92060 0.21900 0.61900
H 	H 	0.60130 0.90190 0.15200 -0.14500
H 	H 	0.58780 0.94690 0.30300 -0.12600
C 	C 	0.53520 0.90827 0.19050 0.52500
H 	H 	0.56500 0.91740 0.21790 -0.71400
N 	N 	0.02318 0.36801 0.56190 -0.29100
N 	N 	0.08060 0.42060 0.71900 0.61800
H 	H 	0.10130 0.40190 0.65200 -0.14500
H 	H 	0.08780 0.44690 0.80300 -0.12100
C 	C 	0.03520 0.40827 0.69050 0.53000
H 	H 	0.06500 0.41740 0.71790 -0.71500
N 	N 	0.11801 0.27318 0.18810 -0.29700
N 	N 	0.17060 0.33060 0.03100 0.67600
H 	H 	0.15190 0.35130 0.09800 -0.17500
H 	H 	0.19690 0.33780 0.94700 -0.11600
C 	C 	0.15827 0.28520 0.05950 0.52200
H 	H 	0.16740 0.31500 0.03210 -0.78100
N 	N 	0.61801 0.77318 0.68810 -0.29400
N 	N 	0.67060 0.83060 0.53100 0.61400
H 	H 	0.65190 0.85130 0.59800 -0.15000
H 	H 	0.69690 0.83780 0.44700 -0.12500
C 	C 	0.65827 0.78520 0.55950 0.52200
H 	H 	0.66740 0.81500 0.53210 -0.71000
N 	N 	0.38199 0.72682 0.68810 -0.29400
N 	N 	0.32940 0.66940 0.53100 0.61400
H 	H 	0.34810 0.64870 0.59800 -0.15000
H 	H 	0.30310 0.66220 0.44700 -0.12600
C 	C 	0.34173 0.71480 0.55950 0.52100
H 	H 	0.33260 0.68500 0.53210 -0.71000
N 	N 	0.88199 0.22682 0.18810 -0.29700
N 	N 	0.82940 0.16940 0.03100 0.67500
H 	H 	0.84810 0.14870 0.09800 -0.17600
H 	H 	0.80310 0.16220 0.94700 -0.11600
C 	C 	0.84173 0.21480 0.05950 0.52200
H 	H 	0.83260 0.18500 0.03210 -0.78000
N 	N 	0.52318 0.13199 0.93810 -0.28000
N 	N 	0.58060 0.07940 0.78100 0.61700
H 	H 	0.60130 0.09810 0.84800 -0.14300
H 	H 	0.58780 0.05310 0.69700 -0.13100
C 	C 	0.53520 0.09173 0.80950 0.52300
H 	H 	0.56500 0.08260 0.78210 -0.71300
N 	N 	0.02318 0.63199 0.43810 -0.29000
N 	N 	0.08060 0.57940 0.28100 0.61200
H 	H 	0.10130 0.59810 0.34800 -0.14600
H 	H 	0.08780 0.55310 0.19700 -0.12800
C 	C 	0.03520 0.59173 0.30950 0.52200
H 	H 	0.06500 0.58260 0.28210 -0.70800
N 	N 	0.97682 0.86801 0.43810 -0.29500
N 	N 	0.91940 0.92060 0.28100 0.61900
H 	H 	0.89870 0.90190 0.34800 -0.14800
H 	H 	0.91220 0.94690 0.19700 -0.12800
C 	C 	0.96480 0.90827 0.30950 0.52000
H 	H 	0.93500 0.91740 0.28210 -0.71300
N 	N 	0.47682 0.36801 0.93810 -0.28000
N 	N 	0.41940 0.42060 0.78100 0.61800
H 	H 	0.39870 0.40190 0.84800 -0.14200
H 	H 	0.41220 0.44690 0.69700 -0.12900
C 	C 	0.46480 0.40827 0.80950 0.52500
H 	H 	0.43500 0.41740 0.78210 -0.71400
N 	N 	0.61801 0.72682 0.68810 -0.29400
N 	N 	0.67060 0.66940 0.53100 0.61400
H 	H 	0.65190 0.64870 0.59800 -0.15000
H 	H 	0.69690 0.66220 0.44700 -0.12600
C 	C 	0.65827 0.71480 0.55950 0.52100
H 	H 	0.66740 0.68500 0.53210 -0.71000
N 	N 	0.11801 0.22682 0.18810 -0.29700
N 	N 	0.17060 0.16940 0.03100 0.67600
H 	H 	0.15190 0.14870 0.09800 -0.17600
H 	H 	0.19690 0.16220 0.94700 -0.11600
C 	C 	0.15827 0.21480 0.05950 0.52200
H 	H 	0.16740 0.18500 0.03210 -0.78000
N 	N 	0.88199 0.27318 0.18810 -0.29700
N 	N 	0.82940 0.33060 0.03100 0.67600
H 	H 	0.84810 0.35130 0.09800 -0.17500
H 	H 	0.80310 0.33780 0.94700 -0.11600
C 	C 	0.84173 0.28520 0.05950 0.52200
H 	H 	0.83260 0.31500 0.03210 -0.78100
N 	N 	0.38199 0.77318 0.68810 -0.29400
N 	N 	0.32940 0.83060 0.53100 0.61400
H 	H 	0.34810 0.85130 0.59800 -0.15000
H 	H 	0.30310 0.83780 0.44700 -0.12500
C 	C 	0.34173 0.78520 0.55950 0.52200
H 	H 	0.33260 0.81500 0.53210 -0.71000
N 	N 	0.02318 0.86801 0.43810 -0.29000
N 	N 	0.08060 0.92060 0.28100 0.61400
H 	H 	0.10130 0.90190 0.34800 -0.14600
H 	H 	0.08780 0.94690 0.19700 -0.12500
C 	C 	0.03520 0.90827 0.30950 0.52500
H 	H 	0.06500 0.91740 0.28210 -0.71000
N 	N 	0.52318 0.36801 0.93810 -0.28000
N 	N 	0.58060 0.42060 0.78100 0.61800
H 	H 	0.60130 0.40190 0.84800 -0.14200
H 	H 	0.58780 0.44690 0.69700 -0.12900
C 	C 	0.53520 0.40827 0.80950 0.52500
H 	H 	0.56500 0.41740 0.78210 -0.71400
N 	N 	0.47682 0.13199 0.93810 -0.28000
N 	N 	0.41940 0.07940 0.78100 0.61700
H 	H 	0.39870 0.09810 0.84800 -0.14300
H 	H 	0.41220 0.05310 0.69700 -0.13100
C 	C 	0.46480 0.09173 0.80950 0.52300
H 	H 	0.43500 0.08260 0.78210 -0.71300
N 	N 	0.97682 0.63199 0.43810 -0.29400
N 	N 	0.91940 0.57940 0.28100 0.61700
H 	H 	0.89870 0.59810 0.34800 -0.14800
H 	H 	0.91220 0.55310 0.19700 -0.13000
C 	C 	0.96480 0.59173 0.30950 0.51700
H 	H 	0.93500 0.58260 0.28210 -0.71100
N 	N 	0.88199 0.72682 0.81190 -0.29400
N 	N 	0.82940 0.66940 0.96900 0.64000
H 	H 	0.84810 0.64870 0.90200 -0.15700
H 	H 	0.80310 0.66220 0.05300 -0.12400
C 	C 	0.84173 0.71480 0.94050 0.52000
H 	H 	0.83260 0.68500 0.96790 -0.73800
N 	N 	0.38199 0.22682 0.31190 -0.29500
N 	N 	0.32940 0.16940 0.46900 0.61400
H 	H 	0.34810 0.14870 0.40200 -0.15300
H 	H 	0.30310 0.16220 0.55300 -0.12600
C 	C 	0.34173 0.21480 0.44050 0.52000
H 	H 	0.33260 0.18500 0.46790 -0.70900
N 	N 	0.61801 0.27318 0.31190 -0.29500
N 	N 	0.67060 0.33060 0.46900 0.61400
H 	H 	0.65190 0.35130 0.40200 -0.15300
H 	H 	0.69690 0.33780 0.55300 -0.12500
C 	C 	0.65827 0.28520 0.44050 0.52100
H 	H 	0.66740 0.31500 0.46790 -0.70900
N 	N 	0.11801 0.77318 0.81190 -0.29400
N 	N 	0.17060 0.83060 0.96900 0.64000
H 	H 	0.15190 0.85130 0.90200 -0.15700
H 	H 	0.19690 0.83780 0.05300 -0.12300
C 	C 	0.15827 0.78520 0.94050 0.52000
H 	H 	0.16740 0.81500 0.96790 -0.73900
N 	N 	0.47682 0.86801 0.06190 -0.28500
N 	N 	0.41940 0.92060 0.21900 0.61900
H 	H 	0.39870 0.90190 0.15200 -0.14500
H 	H 	0.41220 0.94690 0.30300 -0.12600
C 	C 	0.46480 0.90827 0.19050 0.52500
H 	H 	0.43500 0.91740 0.21790 -0.71400
N 	N 	0.97682 0.36801 0.56190 -0.29600
N 	N 	0.91940 0.42060 0.71900 0.62300
H 	H 	0.89870 0.40190 0.65200 -0.14600
H 	H 	0.91220 0.44690 0.80300 -0.12300
C 	C 	0.96480 0.40827 0.69050 0.52500
H 	H 	0.93500 0.41740 0.71790 -0.71800
N 	N 	0.02318 0.13199 0.56190 -0.29100
N 	N 	0.08060 0.07940 0.71900 0.61700
H 	H 	0.10130 0.09810 0.65200 -0.14500
H 	H 	0.08780 0.05310 0.80300 -0.12300
C 	C 	0.03520 0.09173 0.69050 0.52800
H 	H 	0.06500 0.08260 0.71790 -0.71300
N 	N 	0.52318 0.63199 0.06190 -0.28400
N 	N 	0.58060 0.57940 0.21900 0.61700
H 	H 	0.60130 0.59810 0.15200 -0.14500
H 	H 	0.58780 0.55310 0.30300 -0.12900
C 	C 	0.53520 0.59173 0.19050 0.52200
H 	H 	0.56500 0.58260 0.21790 -0.71200
Ag	Ag	0.43868 0.31132 0.12500 0.40700
Ag	Ag	0.06132 0.68868 0.62500 0.42400
Ag	Ag	0.93868 0.18868 0.37500 0.42100
Ag	Ag	0.56132 0.81132 0.87500 0.41200
Ag	Ag	0.06132 0.31132 0.37500 0.42400
Ag	Ag	0.43868 0.68868 0.87500 0.41200
Ag	Ag	0.56132 0.18868 0.12500 0.40600
Ag	Ag	0.93868 0.81132 0.62500 0.42200
Ag	Ag	0.56132 0.68868 0.87500 0.41200
Ag	Ag	0.93868 0.31132 0.37500 0.42100
Ag	Ag	0.06132 0.81132 0.62500 0.42400
Ag	Ag	0.43868 0.18868 0.12500 0.40600
Ag	Ag	0.93868 0.68868 0.62500 0.42200
Ag	Ag	0.56132 0.31132 0.12500 0.40700
Ag	Ag	0.43868 0.81132 0.87500 0.41200
Ag	Ag	0.06132 0.18868 0.37500 0.42400
Ag	Ag	0.25000 0.25000 0.75000 0.51100
Ag	Ag	0.25000 0.75000 0.25000 0.50800
Ag	Ag	-0.00000 0.00000 -0.00000 0.48800
Ag	Ag	0.50000 0.50000 0.50000 0.50000
Ag	Ag	0.50000 0.00000 0.50000 0.49400
Ag	Ag	-0.00000 0.50000 -0.00000 0.49400
Ag	Ag	0.75000 0.25000 0.75000 0.51000
Ag	Ag	0.75000 0.75000 0.25000 0.50800
N 	N 	0.31578 0.25000 0.52620 -0.38600
N 	N 	0.18422 0.75000 0.02620 -0.37400
N 	N 	-0.00000 0.06578 0.77620 -0.38000
N 	N 	0.50000 0.56578 0.27620 -0.39000
N 	N 	0.50000 0.93422 0.27620 -0.38800
N 	N 	-0.00000 0.43422 0.77620 -0.38000
N 	N 	0.18422 0.25000 0.97380 -0.35800
N 	N 	0.31578 0.75000 0.47380 -0.38700
N 	N 	0.81578 0.25000 0.97380 -0.35800
N 	N 	0.50000 0.06578 0.72380 -0.39100
N 	N 	-0.00000 0.56578 0.22380 -0.38400
N 	N 	-0.00000 0.93422 0.22380 -0.38200
N 	N 	0.50000 0.43422 0.72380 -0.39100
N 	N 	0.68422 0.75000 0.47380 -0.38700
N 	N 	0.81578 0.75000 0.02620 -0.37400
N 	N 	0.68422 0.25000 0.52620 -0.38600
