data_crystal

_cell_length_a 19.45500
_cell_length_b 19.45500
_cell_length_c 3.53390
_cell_angle_alpha 90.00000
_cell_angle_beta  90.00000
_cell_angle_gamma 90.00000

_symmetry_space_group_name_	'P 1'
_symmetry_space_group_name_H-M	'P 1'

loop_
_symmetry_equiv_pos_as_xyz
  x,y,z

loop_
_atom_site_label
_atom_site_type_symbol
_atom_site_fract_x
_atom_site_fract_y
_atom_site_fract_z
_atom_site_charge
Ag	Ag	0.37507 0.45533 0.99760 0.44900
N 	N 	0.32460 0.54110 0.21200 -0.33100
N 	N 	0.35410 0.60580 0.19300 -0.52300
N 	N 	0.24980 0.61970 0.45800 -0.72400
N 	N 	0.21200 0.50100 0.40000 0.97000
H 	H 	0.17310 0.50960 0.50920 -0.19200
H 	H 	0.22150 0.46040 0.32680 -0.19900
C 	C 	0.26040 0.55520 0.35000 0.70400
C 	C 	0.30550 0.65010 0.37000 2.02300
N 	N 	0.32600 0.72200 0.38500 3.08500
H 	H 	0.29750 0.75250 0.46630 -0.60700
H 	H 	0.36630 0.73410 0.31280 -0.93600
H 	H 	0.22640 0.52180 0.36770 -1.02600
H 	H 	0.31360 0.69640 0.41600 -2.97800
Ag	Ag	0.62493 0.54467 0.99760 0.45000
N 	N 	0.67540 0.45890 0.21200 -0.33000
N 	N 	0.64590 0.39420 0.19300 -0.52200
N 	N 	0.75020 0.38030 0.45800 -0.72300
N 	N 	0.78800 0.49900 0.40000 0.97000
H 	H 	0.82690 0.49040 0.50920 -0.19200
H 	H 	0.77850 0.53960 0.32680 -0.19900
C 	C 	0.73960 0.44480 0.35000 0.70400
C 	C 	0.69450 0.34990 0.37000 2.02300
N 	N 	0.67400 0.27800 0.38500 3.08500
H 	H 	0.70250 0.24750 0.46630 -0.60700
H 	H 	0.63370 0.26590 0.31280 -0.93600
H 	H 	0.77360 0.47820 0.36770 -1.02600
H 	H 	0.68640 0.30360 0.41600 -2.97800
Ag	Ag	0.45533 0.62493 0.00240 0.45000
N 	N 	0.54110 0.67540 0.78800 -0.33000
N 	N 	0.60580 0.64590 0.80700 -0.52200
N 	N 	0.61970 0.75020 0.54200 -0.72300
N 	N 	0.50100 0.78800 0.60000 0.97000
H 	H 	0.50960 0.82690 0.49080 -0.19200
H 	H 	0.46040 0.77850 0.67320 -0.19900
C 	C 	0.55520 0.73960 0.65000 0.70400
C 	C 	0.65010 0.69450 0.63000 2.02300
N 	N 	0.72200 0.67400 0.61500 3.08500
H 	H 	0.75250 0.70250 0.53370 -0.60700
H 	H 	0.73410 0.63370 0.68720 -0.93600
H 	H 	0.52180 0.77360 0.63230 -1.02600
H 	H 	0.69640 0.68640 0.58400 -2.97800
Ag	Ag	0.54467 0.37507 0.00240 0.45000
N 	N 	0.45890 0.32460 0.78800 -0.33000
N 	N 	0.39420 0.35410 0.80700 -0.52200
N 	N 	0.38030 0.24980 0.54200 -0.72300
N 	N 	0.49900 0.21200 0.60000 0.97000
H 	H 	0.49040 0.17310 0.49080 -0.19200
H 	H 	0.53960 0.22150 0.67320 -0.19900
C 	C 	0.44480 0.26040 0.65000 0.70400
C 	C 	0.34990 0.30550 0.63000 2.02300
N 	N 	0.27800 0.32600 0.61500 3.08500
H 	H 	0.24750 0.29750 0.53370 -0.60700
H 	H 	0.26590 0.36630 0.68720 -0.93600
H 	H 	0.47820 0.22640 0.63230 -1.02600
H 	H 	0.30360 0.31360 0.58400 -2.97800
Ag	Ag	0.87507 0.04467 0.49760 0.44800
N 	N 	0.82460 0.95890 0.71200 -0.33100
N 	N 	0.85410 0.89420 0.69300 -0.52500
N 	N 	0.74980 0.88030 0.95800 -0.72400
N 	N 	0.71200 0.99900 0.90000 0.97200
H 	H 	0.67310 0.99040 0.00920 -0.19200
H 	H 	0.72150 0.03960 0.82680 -0.20100
C 	C 	0.76040 0.94480 0.85000 0.70400
C 	C 	0.80550 0.84990 0.87000 2.03100
N 	N 	0.82600 0.77800 0.88500 3.09700
H 	H 	0.79750 0.74750 0.96630 -0.60700
H 	H 	0.86630 0.76590 0.81280 -0.93900
H 	H 	0.72640 0.97820 0.86770 -1.02800
H 	H 	0.81360 0.80360 0.91600 -2.98900
Ag	Ag	0.12493 0.95533 0.49760 0.44800
N 	N 	0.17540 0.04110 0.71200 -0.33100
N 	N 	0.14590 0.10580 0.69300 -0.52500
N 	N 	0.25020 0.11970 0.95800 -0.72400
N 	N 	0.28800 0.00100 0.90000 0.97200
H 	H 	0.32690 0.00960 0.00920 -0.19200
H 	H 	0.27850 0.96040 0.82680 -0.20100
C 	C 	0.23960 0.05520 0.85000 0.70400
C 	C 	0.19450 0.15010 0.87000 2.03100
N 	N 	0.17400 0.22200 0.88500 3.09700
H 	H 	0.20250 0.25250 0.96630 -0.60700
H 	H 	0.13370 0.23410 0.81280 -0.93900
H 	H 	0.27360 0.02180 0.86770 -1.02800
H 	H 	0.18640 0.19640 0.91600 -2.98900
Ag	Ag	0.95533 0.87507 0.50240 0.44800
N 	N 	0.04110 0.82460 0.28800 -0.33100
N 	N 	0.10580 0.85410 0.30700 -0.52500
N 	N 	0.11970 0.74980 0.04200 -0.72400
N 	N 	0.00100 0.71200 0.10000 0.97200
H 	H 	0.00960 0.67310 0.99080 -0.19200
H 	H 	0.96040 0.72150 0.17320 -0.20100
C 	C 	0.05520 0.76040 0.15000 0.70400
C 	C 	0.15010 0.80550 0.13000 2.03100
N 	N 	0.22200 0.82600 0.11500 3.09700
H 	H 	0.25250 0.79750 0.03370 -0.60700
H 	H 	0.23410 0.86630 0.18720 -0.93900
H 	H 	0.02180 0.72640 0.13230 -1.02800
H 	H 	0.19640 0.81360 0.08400 -2.98900
Ag	Ag	0.04467 0.12493 0.50240 0.44800
N 	N 	0.95890 0.17540 0.28800 -0.33100
N 	N 	0.89420 0.14590 0.30700 -0.52500
N 	N 	0.88030 0.25020 0.04200 -0.72400
N 	N 	0.99900 0.28800 0.10000 0.97200
H 	H 	0.99040 0.32690 0.99080 -0.19200
H 	H 	0.03960 0.27850 0.17320 -0.20100
C 	C 	0.94480 0.23960 0.15000 0.70400
C 	C 	0.84990 0.19450 0.13000 2.03100
N 	N 	0.77800 0.17400 0.11500 3.09700
H 	H 	0.74750 0.20250 0.03370 -0.60700
H 	H 	0.76590 0.13370 0.18720 -0.93900
H 	H 	0.97820 0.27360 0.13230 -1.02800
H 	H 	0.80360 0.18640 0.08400 -2.98900
Ag	Ag	0.16610 0.66610 0.75000 0.56600
Ag	Ag	0.83390 0.33390 0.75000 0.56600
Ag	Ag	0.66610 0.83390 0.25000 0.56600
Ag	Ag	0.33390 0.16610 0.25000 0.56600
