data_crystal

_cell_length_a 29.41900
_cell_length_b 29.41900
_cell_length_c 3.55640
_cell_angle_alpha 90.00000
_cell_angle_beta  90.00000
_cell_angle_gamma 90.00000

_symmetry_space_group_name_	'P 1'
_symmetry_space_group_name_H-M	'P 1'

loop_
_symmetry_equiv_pos_as_xyz
  x,y,z

loop_
_atom_site_label
_atom_site_type_symbol
_atom_site_fract_x
_atom_site_fract_y
_atom_site_fract_z
_atom_site_charge
N 	N 	0.38070 0.27360 0.31300 -0.21900
C 	C 	0.34100 0.28610 0.44000 0.14100
C 	C 	0.32590 0.33340 0.45600 0.15500
H 	H 	0.29550 0.33470 0.55230 -0.04900
H 	H 	0.32660 0.34620 0.20790 -0.05200
H 	H 	0.34580 0.35040 0.61780 -0.03500
H 	H 	0.33200 0.31610 0.47450 -0.13800
N 	N 	0.88070 0.77360 0.81300 -0.21700
C 	C 	0.84100 0.78610 0.94000 0.13600
C 	C 	0.82590 0.83340 0.95600 0.15900
H 	H 	0.79550 0.83470 0.05230 -0.05100
H 	H 	0.82660 0.84620 0.70790 -0.04500
H 	H 	0.84580 0.85040 0.11780 -0.04200
H 	H 	0.83200 0.81610 0.97450 -0.14300
N 	N 	0.11930 0.72640 0.81300 -0.21800
C 	C 	0.15900 0.71390 0.94000 0.13500
C 	C 	0.17410 0.66660 0.95600 0.15800
H 	H 	0.20450 0.66530 0.05230 -0.05200
H 	H 	0.17340 0.65380 0.70790 -0.04500
H 	H 	0.15420 0.64960 0.11780 -0.04200
H 	H 	0.16800 0.68390 0.97450 -0.14200
N 	N 	0.61930 0.22640 0.31300 -0.22000
C 	C 	0.65900 0.21390 0.44000 0.14000
C 	C 	0.67410 0.16660 0.45600 0.15300
H 	H 	0.70450 0.16530 0.55230 -0.05100
H 	H 	0.67340 0.15380 0.20790 -0.05300
H 	H 	0.65420 0.14960 0.61780 -0.03600
H 	H 	0.66800 0.18390 0.47450 -0.13900
N 	N 	0.97640 0.13070 0.56300 -0.21900
C 	C 	0.96390 0.09100 0.69000 0.14200
C 	C 	0.91660 0.07590 0.70600 0.15500
H 	H 	0.91530 0.04550 0.80230 -0.04900
H 	H 	0.90380 0.07660 0.45790 -0.05100
H 	H 	0.89960 0.09580 0.86780 -0.03500
H 	H 	0.93390 0.08200 0.72450 -0.14000
N 	N 	0.47640 0.63070 0.06300 -0.21100
C 	C 	0.46390 0.59100 0.19000 0.13600
C 	C 	0.41660 0.57590 0.20600 0.14800
H 	H 	0.41530 0.54550 0.30230 -0.05100
H 	H 	0.40380 0.57660 0.95790 -0.04700
H 	H 	0.39960 0.59580 0.36780 -0.03900
H 	H 	0.43390 0.58200 0.22450 -0.13300
N 	N 	0.52360 0.86930 0.06300 -0.21100
C 	C 	0.53610 0.90900 0.19000 0.13800
C 	C 	0.58340 0.92410 0.20600 0.14900
H 	H 	0.58470 0.95450 0.30230 -0.04800
H 	H 	0.59620 0.92340 0.95790 -0.04600
H 	H 	0.60040 0.90420 0.36780 -0.03900
H 	H 	0.56610 0.91800 0.22450 -0.13400
N 	N 	0.02360 0.36930 0.56300 -0.21900
C 	C 	0.03610 0.40900 0.69000 0.14400
C 	C 	0.08340 0.42410 0.70600 0.15600
H 	H 	0.08470 0.45450 0.80230 -0.04700
H 	H 	0.09620 0.42340 0.45790 -0.05100
H 	H 	0.10040 0.40420 0.86780 -0.03400
H 	H 	0.06610 0.41800 0.72450 -0.14100
N 	N 	0.11930 0.27360 0.18700 -0.22100
C 	C 	0.15900 0.28610 0.06000 0.13300
C 	C 	0.17410 0.33340 0.04400 0.20600
H 	H 	0.20450 0.33470 0.94770 -0.04900
H 	H 	0.17340 0.34620 0.29210 -0.06300
H 	H 	0.15420 0.35040 0.88220 -0.03700
H 	H 	0.16800 0.31610 0.02550 -0.18600
N 	N 	0.61930 0.77360 0.68700 -0.21900
C 	C 	0.65900 0.78610 0.56000 0.14000
C 	C 	0.67410 0.83340 0.54400 0.15400
H 	H 	0.70450 0.83470 0.44770 -0.05100
H 	H 	0.67340 0.84620 0.79210 -0.04700
H 	H 	0.65420 0.85040 0.38220 -0.03900
H 	H 	0.66800 0.81610 0.52550 -0.14000
N 	N 	0.38070 0.72640 0.68700 -0.21900
C 	C 	0.34100 0.71390 0.56000 0.14000
C 	C 	0.32590 0.66660 0.54400 0.15300
H 	H 	0.29550 0.66530 0.44770 -0.05100
H 	H 	0.32660 0.65380 0.79210 -0.04700
H 	H 	0.34580 0.64960 0.38220 -0.03900
H 	H 	0.33200 0.68390 0.52550 -0.13900
N 	N 	0.88070 0.22640 0.18700 -0.22100
C 	C 	0.84100 0.21390 0.06000 0.13300
C 	C 	0.82590 0.16660 0.04400 0.20500
H 	H 	0.79550 0.16530 0.94770 -0.04900
H 	H 	0.82660 0.15380 0.29210 -0.06400
H 	H 	0.84580 0.14960 0.88220 -0.03800
H 	H 	0.83200 0.18390 0.02550 -0.18500
N 	N 	0.52360 0.13070 0.93700 -0.20500
C 	C 	0.53610 0.09100 0.81000 0.12900
C 	C 	0.58340 0.07590 0.79400 0.13300
H 	H 	0.58470 0.04550 0.69770 -0.04800
H 	H 	0.59620 0.07660 0.04210 -0.05400
H 	H 	0.60040 0.09580 0.63220 -0.03500
H 	H 	0.56610 0.08200 0.77550 -0.11800
N 	N 	0.02360 0.63070 0.43700 -0.21800
C 	C 	0.03610 0.59100 0.31000 0.13900
C 	C 	0.08340 0.57590 0.29400 0.15200
H 	H 	0.08470 0.54550 0.19770 -0.05500
H 	H 	0.09620 0.57660 0.54210 -0.04200
H 	H 	0.10040 0.59580 0.13220 -0.04300
H 	H 	0.06610 0.58200 0.27550 -0.13800
N 	N 	0.97640 0.86930 0.43700 -0.21800
C 	C 	0.96390 0.90900 0.31000 0.14100
C 	C 	0.91660 0.92410 0.29400 0.15400
H 	H 	0.91530 0.95450 0.19770 -0.05100
H 	H 	0.90380 0.92340 0.54210 -0.04100
H 	H 	0.89960 0.90420 0.13220 -0.04300
H 	H 	0.93390 0.91800 0.27550 -0.14000
N 	N 	0.47640 0.36930 0.93700 -0.20500
C 	C 	0.46390 0.40900 0.81000 0.13000
C 	C 	0.41660 0.42410 0.79400 0.13400
H 	H 	0.41530 0.45450 0.69770 -0.04600
H 	H 	0.40380 0.42340 0.04210 -0.05300
H 	H 	0.39960 0.40420 0.63220 -0.03500
H 	H 	0.43390 0.41800 0.77550 -0.11900
N 	N 	0.61930 0.72640 0.68700 -0.21900
C 	C 	0.65900 0.71390 0.56000 0.14000
C 	C 	0.67410 0.66660 0.54400 0.15300
H 	H 	0.70450 0.66530 0.44770 -0.05100
H 	H 	0.67340 0.65380 0.79210 -0.04700
H 	H 	0.65420 0.64960 0.38220 -0.03900
H 	H 	0.66800 0.68390 0.52550 -0.13900
N 	N 	0.11930 0.22640 0.18700 -0.22100
C 	C 	0.15900 0.21390 0.06000 0.13300
C 	C 	0.17410 0.16660 0.04400 0.20500
H 	H 	0.20450 0.16530 0.94770 -0.04900
H 	H 	0.17340 0.15380 0.29210 -0.06400
H 	H 	0.15420 0.14960 0.88220 -0.03800
H 	H 	0.16800 0.18390 0.02550 -0.18500
N 	N 	0.88070 0.27360 0.18700 -0.22100
C 	C 	0.84100 0.28610 0.06000 0.13300
C 	C 	0.82590 0.33340 0.04400 0.20500
H 	H 	0.79550 0.33470 0.94770 -0.04900
H 	H 	0.82660 0.34620 0.29210 -0.06300
H 	H 	0.84580 0.35040 0.88220 -0.03700
H 	H 	0.83200 0.31610 0.02550 -0.18600
N 	N 	0.38070 0.77360 0.68700 -0.21900
C 	C 	0.34100 0.78610 0.56000 0.14000
C 	C 	0.32590 0.83340 0.54400 0.15400
H 	H 	0.29550 0.83470 0.44770 -0.05100
H 	H 	0.32660 0.84620 0.79210 -0.04700
H 	H 	0.34580 0.85040 0.38220 -0.03900
H 	H 	0.33200 0.81610 0.52550 -0.14000
N 	N 	0.02360 0.86930 0.43700 -0.21800
C 	C 	0.03610 0.90900 0.31000 0.14100
C 	C 	0.08340 0.92410 0.29400 0.15300
H 	H 	0.08470 0.95450 0.19770 -0.05100
H 	H 	0.09620 0.92340 0.54210 -0.04100
H 	H 	0.10040 0.90420 0.13220 -0.04300
H 	H 	0.06610 0.91800 0.27550 -0.14000
N 	N 	0.52360 0.36930 0.93700 -0.20500
C 	C 	0.53610 0.40900 0.81000 0.13000
C 	C 	0.58340 0.42410 0.79400 0.13400
H 	H 	0.58470 0.45450 0.69770 -0.04600
H 	H 	0.59620 0.42340 0.04210 -0.05300
H 	H 	0.60040 0.40420 0.63220 -0.03500
H 	H 	0.56610 0.41800 0.77550 -0.11900
N 	N 	0.47640 0.13070 0.93700 -0.20500
C 	C 	0.46390 0.09100 0.81000 0.12900
C 	C 	0.41660 0.07590 0.79400 0.13300
H 	H 	0.41530 0.04550 0.69770 -0.04800
H 	H 	0.40380 0.07660 0.04210 -0.05400
H 	H 	0.39960 0.09580 0.63220 -0.03500
H 	H 	0.43390 0.08200 0.77550 -0.11800
N 	N 	0.97640 0.63070 0.43700 -0.21800
C 	C 	0.96390 0.59100 0.31000 0.13900
C 	C 	0.91660 0.57590 0.29400 0.15200
H 	H 	0.91530 0.54550 0.19770 -0.05500
H 	H 	0.90380 0.57660 0.54210 -0.04200
H 	H 	0.89960 0.59580 0.13220 -0.04300
H 	H 	0.93390 0.58200 0.27550 -0.13800
N 	N 	0.88070 0.72640 0.81300 -0.21800
C 	C 	0.84100 0.71390 0.94000 0.13500
C 	C 	0.82590 0.66660 0.95600 0.15800
H 	H 	0.79550 0.66530 0.05230 -0.05200
H 	H 	0.82660 0.65380 0.70790 -0.04500
H 	H 	0.84580 0.64960 0.11780 -0.04200
H 	H 	0.83200 0.68390 0.97450 -0.14200
N 	N 	0.38070 0.22640 0.31300 -0.22000
C 	C 	0.34100 0.21390 0.44000 0.14000
C 	C 	0.32590 0.16660 0.45600 0.15300
H 	H 	0.29550 0.16530 0.55230 -0.05100
H 	H 	0.32660 0.15380 0.20790 -0.05300
H 	H 	0.34580 0.14960 0.61780 -0.03600
H 	H 	0.33200 0.18390 0.47450 -0.13900
N 	N 	0.61930 0.27360 0.31300 -0.22000
C 	C 	0.65900 0.28610 0.44000 0.14000
C 	C 	0.67410 0.33340 0.45600 0.15400
H 	H 	0.70450 0.33470 0.55230 -0.05000
H 	H 	0.67340 0.34620 0.20790 -0.05300
H 	H 	0.65420 0.35040 0.61780 -0.03600
H 	H 	0.66800 0.31610 0.47450 -0.13900
N 	N 	0.11930 0.77360 0.81300 -0.21800
C 	C 	0.15900 0.78610 0.94000 0.13500
C 	C 	0.17410 0.83340 0.95600 0.15900
H 	H 	0.20450 0.83470 0.05230 -0.05100
H 	H 	0.17340 0.84620 0.70790 -0.04500
H 	H 	0.15420 0.85040 0.11780 -0.04200
H 	H 	0.16800 0.81610 0.97450 -0.14300
N 	N 	0.47640 0.86930 0.06300 -0.21100
C 	C 	0.46390 0.90900 0.19000 0.13800
C 	C 	0.41660 0.92410 0.20600 0.14900
H 	H 	0.41530 0.95450 0.30230 -0.04800
H 	H 	0.40380 0.92340 0.95790 -0.04600
H 	H 	0.39960 0.90420 0.36780 -0.03900
H 	H 	0.43390 0.91800 0.22450 -0.13400
N 	N 	0.97640 0.36930 0.56300 -0.21900
C 	C 	0.96390 0.40900 0.69000 0.14300
C 	C 	0.91660 0.42410 0.70600 0.15600
H 	H 	0.91530 0.45450 0.80230 -0.04700
H 	H 	0.90380 0.42340 0.45790 -0.05100
H 	H 	0.89960 0.40420 0.86780 -0.03400
H 	H 	0.93390 0.41800 0.72450 -0.14100
N 	N 	0.02360 0.13070 0.56300 -0.21900
C 	C 	0.03610 0.09100 0.69000 0.14300
C 	C 	0.08340 0.07590 0.70600 0.15500
H 	H 	0.08470 0.04550 0.80230 -0.04900
H 	H 	0.09620 0.07660 0.45790 -0.05100
H 	H 	0.10040 0.09580 0.86780 -0.03400
H 	H 	0.06610 0.08200 0.72450 -0.14000
N 	N 	0.52360 0.63070 0.06300 -0.21100
C 	C 	0.53610 0.59100 0.19000 0.13600
C 	C 	0.58340 0.57590 0.20600 0.14800
H 	H 	0.58470 0.54550 0.30230 -0.05100
H 	H 	0.59620 0.57660 0.95790 -0.04700
H 	H 	0.60040 0.59580 0.36780 -0.03900
H 	H 	0.56610 0.58200 0.22450 -0.13300
Ag	Ag	0.44027 0.30973 0.12500 0.39300
Ag	Ag	0.05973 0.69027 0.62500 0.40500
Ag	Ag	0.94027 0.19027 0.37500 0.40300
Ag	Ag	0.55973 0.80973 0.87500 0.39800
Ag	Ag	0.05973 0.30973 0.37500 0.40300
Ag	Ag	0.44027 0.69027 0.87500 0.39800
Ag	Ag	0.55973 0.19027 0.12500 0.39300
Ag	Ag	0.94027 0.80973 0.62500 0.40500
Ag	Ag	0.55973 0.69027 0.87500 0.39800
Ag	Ag	0.94027 0.30973 0.37500 0.40300
Ag	Ag	0.05973 0.80973 0.62500 0.40500
Ag	Ag	0.44027 0.19027 0.12500 0.39300
Ag	Ag	0.94027 0.69027 0.62500 0.40500
Ag	Ag	0.55973 0.30973 0.12500 0.39300
Ag	Ag	0.44027 0.80973 0.87500 0.39800
Ag	Ag	0.05973 0.19027 0.37500 0.40300
Ag	Ag	0.25000 0.25000 0.75000 0.49700
Ag	Ag	0.25000 0.75000 0.25000 0.49400
Ag	Ag	-0.00000 0.00000 -0.00000 0.47500
Ag	Ag	0.50000 0.50000 0.50000 0.49000
Ag	Ag	0.50000 0.00000 0.50000 0.48400
Ag	Ag	-0.00000 0.50000 -0.00000 0.48200
Ag	Ag	0.75000 0.25000 0.75000 0.49700
Ag	Ag	0.75000 0.75000 0.25000 0.49400
N 	N 	0.31510 0.25000 0.51500 -0.24500
N 	N 	0.18490 0.75000 0.01500 -0.24100
N 	N 	0.00000 0.06510 0.76500 -0.24100
N 	N 	0.50000 0.56510 0.26500 -0.24500
N 	N 	0.50000 0.93490 0.26500 -0.24300
N 	N 	0.00000 0.43490 0.76500 -0.24100
N 	N 	0.18490 0.25000 0.98500 -0.22200
N 	N 	0.31510 0.75000 0.48500 -0.24500
N 	N 	0.81510 0.25000 0.98500 -0.22200
N 	N 	0.50000 0.06510 0.73500 -0.24300
N 	N 	0.00000 0.56510 0.23500 -0.24600
N 	N 	0.00000 0.93490 0.23500 -0.24300
N 	N 	0.50000 0.43490 0.73500 -0.24300
N 	N 	0.68490 0.75000 0.48500 -0.24500
N 	N 	0.81510 0.75000 0.01500 -0.24100
N 	N 	0.68490 0.25000 0.51500 -0.24500
