data_crystal

_cell_length_a 13.10070
_cell_length_b 13.10070
_cell_length_c 25.98500
_cell_angle_alpha 90.00000
_cell_angle_beta  90.00000
_cell_angle_gamma 120.00000

_symmetry_space_group_name_	'P 1'
_symmetry_space_group_name_H-M	'P 1'

loop_
_symmetry_equiv_pos_as_xyz
  x,y,z

loop_
_atom_site_label
_atom_site_type_symbol
_atom_site_fract_x
_atom_site_fract_y
_atom_site_fract_z
_atom_site_charge
N 	N 	0.84970 0.88730 0.45173 -0.22500
C 	C 	0.84820 0.83230 0.40865 0.08600
C 	C 	0.73470 0.85490 0.46018 0.00400
N 	N 	0.73920 0.76680 0.38952 -0.11700
H 	H 	0.91679 0.83865 0.39307 0.00000
C 	C 	0.66600 0.78080 0.42208 -0.00400
H 	H 	0.70667 0.88025 0.48836 0.02100
C 	C 	0.70300 0.70100 0.33790 0.04300
H 	H 	0.58289 0.74563 0.41892 0.02800
C 	C 	0.70020 0.58030 0.34980 -0.05800
H 	H 	0.76169 0.74581 0.31072 0.00900
H 	H 	0.62484 0.68636 0.32677 0.03200
C 	C 	0.56250 0.48270 0.30840 -0.05000
H 	H 	0.65103 0.54499 0.38078 -0.00600
H 	H 	0.66018 0.52575 0.32073 0.06900
C 	C 	0.60460 0.56180 0.35630 -0.12000
C 	C 	0.70680 0.68700 0.34820 -0.07000
H 	H 	0.62854 0.52314 0.38255 0.07900
H 	H 	0.53694 0.56655 0.37040 0.05700
H 	H 	0.77693 0.68202 0.33820 0.05800
H 	H 	0.68666 0.72161 0.31869 0.00600
N 	N 	0.51637 0.22063 0.78506 -0.23200
C 	C 	0.51487 0.16563 0.74198 0.08100
C 	C 	0.40137 0.18823 0.79351 0.00000
N 	N 	0.40587 0.10013 0.72285 -0.11800
H 	H 	0.58346 0.17198 0.72640 -0.00800
C 	C 	0.33267 0.11413 0.75541 -0.00800
H 	H 	0.37334 0.21358 0.82169 0.01700
C 	C 	0.36967 0.03433 0.67123 0.03200
H 	H 	0.24956 0.07896 0.75225 0.02300
C 	C 	0.36687 0.91363 0.68313 -0.03600
H 	H 	0.42836 0.07914 0.64405 0.00700
H 	H 	0.29151 0.01969 0.66010 0.02400
C 	C 	0.22917 0.81603 0.64173 -0.05900
H 	H 	0.31770 0.87832 0.71411 -0.00300
H 	H 	0.32685 0.85908 0.65406 0.06500
C 	C 	0.27127 0.89513 0.68963 -0.11300
C 	C 	0.37347 0.02033 0.68153 -0.07700
H 	H 	0.29521 0.85647 0.71588 0.07200
H 	H 	0.20361 0.89988 0.70373 0.05900
H 	H 	0.44360 0.01535 0.67153 0.05300
H 	H 	0.35333 0.05494 0.65202 0.01500
N 	N 	0.18303 0.55397 0.11840 -0.22800
C 	C 	0.18153 0.49897 0.07532 0.08300
C 	C 	0.06803 0.52157 0.12685 -0.02800
N 	N 	0.07253 0.43347 0.05619 -0.13100
H 	H 	0.25012 0.50532 0.05974 -0.00800
C 	C 	0.99933 0.44747 0.08875 0.03300
H 	H 	0.04000 0.54692 0.15503 0.02500
C 	C 	0.03633 0.36767 0.00457 0.04400
H 	H 	0.91622 0.41230 0.08559 0.01700
C 	C 	0.03353 0.24697 0.01647 -0.10700
H 	H 	0.09502 0.41248 0.97739 0.00900
H 	H 	0.95817 0.35303 0.99344 0.04700
C 	C 	0.89583 0.14937 0.97507 -0.05400
H 	H 	0.98436 0.21166 0.04745 -0.02700
H 	H 	0.99351 0.19242 0.98740 0.08800
C 	C 	0.93793 0.22847 0.02297 -0.08800
C 	C 	0.04013 0.35367 0.01487 -0.07000
H 	H 	0.96187 0.18981 0.04922 0.10700
H 	H 	0.87027 0.23322 0.03707 0.04500
H 	H 	0.11026 0.34869 0.00487 0.06500
H 	H 	0.01999 0.38828 0.98536 -0.01200
N 	N 	0.11270 0.96240 0.45173 -0.22000
C 	C 	0.16770 0.01590 0.40865 0.04800
C 	C 	0.14510 0.87980 0.46018 0.00400
N 	N 	0.23320 0.97240 0.38952 -0.09700
H 	H 	0.16135 0.07814 0.39307 0.00000
C 	C 	0.21920 0.88520 0.42208 -0.00800
H 	H 	0.11975 0.82642 0.48836 0.01700
C 	C 	0.29900 0.00200 0.33790 0.03600
H 	H 	0.25437 0.83726 0.41892 0.02900
C 	C 	0.41970 0.11990 0.34980 -0.02300
H 	H 	0.25419 0.01588 0.31072 -0.00500
H 	H 	0.31364 0.93848 0.32677 0.03200
C 	C 	0.51730 0.07980 0.30840 -0.04600
H 	H 	0.45501 0.10604 0.38078 0.00300
H 	H 	0.47425 0.13443 0.32073 0.05900
C 	C 	0.43820 0.04280 0.35630 -0.15300
C 	C 	0.31300 0.01980 0.34820 -0.10800
H 	H 	0.47686 0.10540 0.38255 0.07000
H 	H 	0.43345 0.97039 0.37040 0.07600
H 	H 	0.31798 0.09491 0.33820 0.06500
H 	H 	0.27839 0.96505 0.31869 0.03500
N 	N 	0.77937 0.29573 0.78506 -0.23200
C 	C 	0.83437 0.34923 0.74198 0.08500
C 	C 	0.81177 0.21313 0.79351 0.00100
N 	N 	0.89987 0.30573 0.72285 -0.12000
H 	H 	0.82802 0.41147 0.72640 -0.00700
C 	C 	0.88587 0.21853 0.75541 -0.00300
H 	H 	0.78642 0.15975 0.82169 0.01800
C 	C 	0.96567 0.33533 0.67123 0.05300
H 	H 	0.92104 0.17059 0.75225 0.02800
C 	C 	0.08637 0.45323 0.68313 -0.08100
H 	H 	0.92086 0.34921 0.64405 0.00700
H 	H 	0.98031 0.27181 0.66010 0.03800
C 	C 	0.18397 0.41313 0.64173 -0.05800
H 	H 	0.12168 0.43937 0.71411 -0.01000
H 	H 	0.14092 0.46776 0.65406 0.07600
C 	C 	0.10487 0.37613 0.68963 -0.11900
C 	C 	0.97967 0.35313 0.68153 -0.06400
H 	H 	0.14353 0.43873 0.71588 0.08700
H 	H 	0.10012 0.30372 0.70373 0.05100
H 	H 	0.98465 0.42824 0.67153 0.06400
H 	H 	0.94506 0.29838 0.65202 -0.00200
N 	N 	0.44603 0.62907 0.11840 -0.23200
C 	C 	0.50103 0.68257 0.07532 0.08400
C 	C 	0.47843 0.54647 0.12685 0.00200
N 	N 	0.56653 0.63907 0.05619 -0.11800
H 	H 	0.49468 0.74481 0.05974 -0.00700
C 	C 	0.55253 0.55187 0.08875 -0.00500
H 	H 	0.45308 0.49309 0.15503 0.01800
C 	C 	0.63233 0.66867 0.00457 0.04200
H 	H 	0.58770 0.50393 0.08559 0.02800
C 	C 	0.75303 0.78657 0.01647 -0.05500
H 	H 	0.58752 0.68255 0.97739 0.00700
H 	H 	0.64697 0.60515 0.99344 0.03200
C 	C 	0.85063 0.74647 0.97507 -0.05900
H 	H 	0.78834 0.77271 0.04745 -0.00200
H 	H 	0.80758 0.80110 0.98740 0.07200
C 	C 	0.77153 0.70947 0.02297 -0.11900
C 	C 	0.64633 0.68647 0.01487 -0.07100
H 	H 	0.81019 0.77207 0.04922 0.07800
H 	H 	0.76678 0.63706 0.03707 0.05800
H 	H 	0.65131 0.76158 0.00487 0.05800
H 	H 	0.61172 0.63172 0.98536 0.00600
N 	N 	0.03760 0.15030 0.45173 -0.24600
C 	C 	0.98410 0.15180 0.40865 0.11700
C 	C 	0.12020 0.26530 0.46018 -0.00200
N 	N 	0.02760 0.26080 0.38952 -0.14100
H 	H 	0.92186 0.08321 0.39307 -0.02000
C 	C 	0.11480 0.33400 0.42208 -0.00400
H 	H 	0.17358 0.29333 0.48836 0.01900
C 	C 	0.99800 0.29700 0.33790 0.04900
H 	H 	0.16274 0.41711 0.41892 0.02500
C 	C 	0.88010 0.29980 0.34980 -0.08600
H 	H 	0.98412 0.23831 0.31072 0.01700
H 	H 	0.06152 0.37516 0.32677 0.03100
C 	C 	0.92020 0.43750 0.30840 -0.05800
H 	H 	0.89396 0.34897 0.38078 -0.01300
H 	H 	0.86557 0.33982 0.32073 0.07700
C 	C 	0.95720 0.39540 0.35630 -0.08800
C 	C 	0.98020 0.29320 0.34820 -0.03200
H 	H 	0.89460 0.37146 0.38255 0.08600
H 	H 	0.02961 0.46306 0.37040 0.03900
H 	H 	0.90509 0.22307 0.33820 0.05000
H 	H 	0.03495 0.31334 0.31869 -0.02200
N 	N 	0.70427 0.48363 0.78506 -0.23200
C 	C 	0.65077 0.48513 0.74198 0.08300
C 	C 	0.78687 0.59863 0.79351 0.00300
N 	N 	0.69427 0.59413 0.72285 -0.11900
H 	H 	0.58853 0.41654 0.72640 -0.00700
C 	C 	0.78147 0.66733 0.75541 -0.00500
H 	H 	0.84025 0.62666 0.82169 0.02100
C 	C 	0.66467 0.63033 0.67123 0.04300
H 	H 	0.82941 0.75044 0.75225 0.03100
C 	C 	0.54677 0.63313 0.68313 -0.05000
H 	H 	0.65079 0.57164 0.64405 0.00800
H 	H 	0.72819 0.70849 0.66010 0.03300
C 	C 	0.58687 0.77083 0.64173 -0.03700
H 	H 	0.56063 0.68230 0.71411 -0.00200
H 	H 	0.53224 0.67315 0.65406 0.06400
C 	C 	0.62387 0.72873 0.68963 -0.12900
C 	C 	0.64687 0.62653 0.68153 -0.06900
H 	H 	0.56127 0.70479 0.71588 0.07700
H 	H 	0.69628 0.79639 0.70373 0.06200
H 	H 	0.57176 0.55640 0.67153 0.05700
H 	H 	0.70162 0.64667 0.65202 0.00500
N 	N 	0.37093 0.81697 0.11840 -0.23600
C 	C 	0.31743 0.81847 0.07532 0.08400
C 	C 	0.45353 0.93197 0.12685 0.03200
N 	N 	0.36093 0.92747 0.05619 -0.10700
H 	H 	0.25519 0.74988 0.05974 -0.00800
C 	C 	0.44813 0.00067 0.08875 -0.04600
H 	H 	0.50691 0.96000 0.15503 0.01300
C 	C 	0.33133 0.96367 0.00457 0.04300
H 	H 	0.49607 0.08378 0.08559 0.03800
C 	C 	0.21343 0.96647 0.01647 -0.00400
H 	H 	0.31745 0.90498 0.97739 0.00500
H 	H 	0.39485 0.04183 0.99344 0.01700
C 	C 	0.25353 0.10417 0.97507 -0.04100
H 	H 	0.22729 0.01564 0.04745 0.01400
H 	H 	0.19890 0.00649 0.98740 0.04500
C 	C 	0.29053 0.06207 0.02297 -0.15600
C 	C 	0.31353 0.95987 0.01487 -0.06800
H 	H 	0.22793 0.03813 0.04922 0.05100
H 	H 	0.36294 0.12973 0.03707 0.06900
H 	H 	0.23842 0.88974 0.00487 0.05000
H 	H 	0.36828 0.98001 0.98536 0.02200
N 	N 	0.15030 0.11270 0.54827 -0.23600
C 	C 	0.15180 0.16770 0.59135 0.08100
C 	C 	0.26530 0.14510 0.53982 -0.00000
N 	N 	0.26080 0.23320 0.61048 -0.11900
H 	H 	0.08321 0.16135 0.60693 -0.01300
C 	C 	0.33400 0.21920 0.57792 -0.00700
H 	H 	0.29333 0.11975 0.51164 0.01600
C 	C 	0.29700 0.29900 0.66210 0.04200
H 	H 	0.41711 0.25437 0.58108 0.02700
C 	C 	0.29980 0.41970 0.65020 -0.05300
H 	H 	0.23831 0.25419 0.68928 0.00500
H 	H 	0.37516 0.31364 0.67323 0.03100
C 	C 	0.43750 0.51730 0.69160 -0.05300
H 	H 	0.34897 0.45501 0.61922 -0.00400
H 	H 	0.33982 0.47425 0.67927 0.06800
C 	C 	0.39540 0.43820 0.64370 -0.12100
C 	C 	0.29320 0.31300 0.65180 -0.07000
H 	H 	0.37146 0.47686 0.61745 0.07700
H 	H 	0.46306 0.43345 0.62960 0.05800
H 	H 	0.22307 0.31798 0.66180 0.05700
H 	H 	0.31334 0.27839 0.68131 0.00700
N 	N 	0.81697 0.44603 0.88160 -0.23600
C 	C 	0.81847 0.50103 0.92468 0.08400
C 	C 	0.93197 0.47843 0.87315 0.03100
N 	N 	0.92747 0.56653 0.94381 -0.10700
H 	H 	0.74988 0.49468 0.94026 -0.00700
C 	C 	0.00067 0.55253 0.91125 -0.04400
H 	H 	0.96000 0.45308 0.84497 0.01300
C 	C 	0.96367 0.63233 0.99543 0.04300
H 	H 	0.08378 0.58770 0.91441 0.03800
C 	C 	0.96647 0.75303 0.98353 -0.01300
H 	H 	0.90498 0.58752 0.02261 0.00500
H 	H 	0.04183 0.64697 0.00656 0.01800
C 	C 	0.10417 0.85063 0.02493 -0.05200
H 	H 	0.01564 0.78834 0.95255 0.01400
H 	H 	0.00649 0.80758 0.01260 0.05300
C 	C 	0.06207 0.77153 0.97703 -0.14700
C 	C 	0.95987 0.64633 0.98513 -0.06900
H 	H 	0.03813 0.81019 0.95078 0.05400
H 	H 	0.12973 0.76678 0.96293 0.06800
H 	H 	0.88974 0.65131 0.99513 0.05200
H 	H 	0.98001 0.61172 0.01464 0.02200
N 	N 	0.48363 0.77937 0.21494 -0.23200
C 	C 	0.48513 0.83437 0.25802 0.08500
C 	C 	0.59863 0.81177 0.20649 0.00200
N 	N 	0.59413 0.89987 0.27715 -0.11900
H 	H 	0.41654 0.82802 0.27360 -0.00700
C 	C 	0.66733 0.88587 0.24459 -0.00300
H 	H 	0.62666 0.78642 0.17831 0.02000
C 	C 	0.63033 0.96567 0.32877 0.05300
H 	H 	0.75044 0.92104 0.24775 0.03100
C 	C 	0.63313 0.08637 0.31687 -0.07400
H 	H 	0.57164 0.92086 0.35595 0.00700
H 	H 	0.70849 0.98031 0.33990 0.03800
C 	C 	0.77083 0.18397 0.35827 -0.04300
H 	H 	0.68230 0.12168 0.28589 -0.00700
H 	H 	0.67315 0.14092 0.34594 0.07100
C 	C 	0.72873 0.10487 0.31037 -0.12800
C 	C 	0.62653 0.97967 0.31847 -0.06300
H 	H 	0.70479 0.14353 0.28412 0.08500
H 	H 	0.79639 0.10012 0.29627 0.05600
H 	H 	0.55640 0.98465 0.32847 0.06300
H 	H 	0.64667 0.94506 0.34798 -0.00300
N 	N 	0.88730 0.03760 0.54827 -0.23900
C 	C 	0.83230 0.98410 0.59135 0.11400
C 	C 	0.85490 0.12020 0.53982 -0.00000
N 	N 	0.76680 0.02760 0.61048 -0.13800
H 	H 	0.83865 0.92186 0.60693 -0.01300
C 	C 	0.78080 0.11480 0.57792 -0.00300
H 	H 	0.88025 0.17358 0.51164 0.02200
C 	C 	0.70100 0.99800 0.66210 0.04900
H 	H 	0.74563 0.16274 0.58108 0.02600
C 	C 	0.58030 0.88010 0.65020 -0.08700
H 	H 	0.74581 0.98412 0.68928 0.01700
H 	H 	0.68636 0.06152 0.67323 0.03100
C 	C 	0.48270 0.92020 0.69160 -0.05700
H 	H 	0.54499 0.89396 0.61922 -0.01300
H 	H 	0.52575 0.86557 0.67927 0.07700
C 	C 	0.56180 0.95720 0.64370 -0.08700
C 	C 	0.68700 0.98020 0.65180 -0.03700
H 	H 	0.52314 0.89460 0.61745 0.08600
H 	H 	0.56655 0.02961 0.62960 0.03900
H 	H 	0.68202 0.90509 0.66180 0.05200
H 	H 	0.72161 0.03495 0.68131 -0.01900
N 	N 	0.55397 0.37093 0.88160 -0.23200
C 	C 	0.49897 0.31743 0.92468 0.08300
C 	C 	0.52157 0.45353 0.87315 0.00100
N 	N 	0.43347 0.36093 0.94381 -0.11900
H 	H 	0.50532 0.25519 0.94026 -0.00800
C 	C 	0.44747 0.44813 0.91125 -0.00600
H 	H 	0.54692 0.50691 0.84497 0.01900
C 	C 	0.36767 0.33133 0.99543 0.04300
H 	H 	0.41230 0.49607 0.91441 0.02700
C 	C 	0.24697 0.21343 0.98353 -0.05700
H 	H 	0.41248 0.31745 0.02261 0.00700
H 	H 	0.35303 0.39485 0.00656 0.03100
C 	C 	0.14937 0.25353 0.02493 -0.04200
H 	H 	0.21166 0.22729 0.95255 -0.00900
H 	H 	0.19242 0.19890 0.01260 0.06500
C 	C 	0.22847 0.29053 0.97703 -0.12300
C 	C 	0.35367 0.31353 0.98513 -0.06900
H 	H 	0.18981 0.22793 0.95078 0.08000
H 	H 	0.23322 0.36294 0.96293 0.05600
H 	H 	0.34869 0.23842 0.99513 0.05700
H 	H 	0.38828 0.36828 0.01464 0.00600
N 	N 	0.22063 0.70427 0.21494 -0.23200
C 	C 	0.16563 0.65077 0.25802 0.08100
C 	C 	0.18823 0.78687 0.20649 0.00200
N 	N 	0.10013 0.69427 0.27715 -0.11800
H 	H 	0.17198 0.58853 0.27360 -0.00800
C 	C 	0.11413 0.78147 0.24459 -0.00800
H 	H 	0.21358 0.84025 0.17831 0.02000
C 	C 	0.03433 0.66467 0.32877 0.03300
H 	H 	0.07896 0.82941 0.24775 0.02800
C 	C 	0.91363 0.54677 0.31687 -0.03200
H 	H 	0.07914 0.65079 0.35595 0.00700
H 	H 	0.01969 0.72819 0.33990 0.02700
C 	C 	0.81603 0.58687 0.35827 -0.04500
H 	H 	0.87832 0.56063 0.28589 0.00000
H 	H 	0.85908 0.53224 0.34594 0.06100
C 	C 	0.89513 0.62387 0.31037 -0.12200
C 	C 	0.02033 0.64687 0.31847 -0.07600
H 	H 	0.85647 0.56127 0.28412 0.07100
H 	H 	0.89988 0.69628 0.29627 0.06400
H 	H 	0.01535 0.57176 0.32847 0.05200
H 	H 	0.05494 0.70162 0.34798 0.01400
N 	N 	0.96240 0.84970 0.54827 -0.21700
C 	C 	0.01590 0.84820 0.59135 0.05400
C 	C 	0.87980 0.73470 0.53982 0.00500
N 	N 	0.97240 0.73920 0.61048 -0.09900
H 	H 	0.07814 0.91679 0.60693 0.00500
C 	C 	0.88520 0.66600 0.57792 -0.00700
H 	H 	0.82642 0.70667 0.51164 0.01900
C 	C 	0.00200 0.70300 0.66210 0.03800
H 	H 	0.83726 0.58289 0.58108 0.02900
C 	C 	0.11990 0.70020 0.65020 -0.02700
H 	H 	0.01588 0.76169 0.68928 -0.00100
H 	H 	0.93848 0.62484 0.67323 0.03300
C 	C 	0.07980 0.56250 0.69160 -0.04400
H 	H 	0.10604 0.65103 0.61922 0.00300
H 	H 	0.13443 0.66018 0.67927 0.06000
C 	C 	0.04280 0.60460 0.64370 -0.15300
C 	C 	0.01980 0.70680 0.65180 -0.10400
H 	H 	0.10540 0.62854 0.61745 0.07200
H 	H 	0.97039 0.53694 0.62960 0.07600
H 	H 	0.09491 0.77693 0.66180 0.06500
H 	H 	0.96505 0.68666 0.68131 0.03100
N 	N 	0.62907 0.18303 0.88160 -0.22800
C 	C 	0.68257 0.18153 0.92468 0.08300
C 	C 	0.54647 0.06803 0.87315 -0.02700
N 	N 	0.63907 0.07253 0.94381 -0.13000
H 	H 	0.74481 0.25012 0.94026 -0.00700
C 	C 	0.55187 0.99933 0.91125 0.03200
H 	H 	0.49309 0.04000 0.84497 0.02400
C 	C 	0.66867 0.03633 0.99543 0.04300
H 	H 	0.50393 0.91622 0.91441 0.01700
C 	C 	0.78657 0.03353 0.98353 -0.09700
H 	H 	0.68255 0.09502 0.02261 0.01000
H 	H 	0.60515 0.95817 0.00656 0.04600
C 	C 	0.74647 0.89583 0.02493 -0.05900
H 	H 	0.77271 0.98436 0.95255 -0.02000
H 	H 	0.80110 0.99351 0.01260 0.08700
C 	C 	0.70947 0.93793 0.97703 -0.09300
C 	C 	0.68647 0.04013 0.98513 -0.07100
H 	H 	0.77207 0.96187 0.95078 0.10100
H 	H 	0.63706 0.87027 0.96293 0.04800
H 	H 	0.76158 0.11026 0.99513 0.06400
H 	H 	0.63172 0.01999 0.01464 -0.01000
N 	N 	0.29573 0.51637 0.21494 -0.23200
C 	C 	0.34923 0.51487 0.25802 0.08300
C 	C 	0.21313 0.40137 0.20649 0.00000
N 	N 	0.30573 0.40587 0.27715 -0.11900
H 	H 	0.41147 0.58346 0.27360 -0.00700
C 	C 	0.21853 0.33267 0.24459 -0.00600
H 	H 	0.15975 0.37334 0.17831 0.01600
C 	C 	0.33533 0.36967 0.32877 0.04200
H 	H 	0.17059 0.24956 0.24775 0.02300
C 	C 	0.45323 0.36687 0.31687 -0.06100
H 	H 	0.34921 0.42836 0.35595 0.00700
H 	H 	0.27181 0.29151 0.33990 0.03000
C 	C 	0.41313 0.22917 0.35827 -0.06700
H 	H 	0.43937 0.31770 0.28589 -0.00800
H 	H 	0.46776 0.32685 0.34594 0.07300
C 	C 	0.37613 0.27127 0.31037 -0.11100
C 	C 	0.35313 0.37347 0.31847 -0.07100
H 	H 	0.43873 0.29521 0.28412 0.08000
H 	H 	0.30372 0.20361 0.29627 0.05200
H 	H 	0.42824 0.44360 0.32847 0.05900
H 	H 	0.29838 0.35333 0.34798 0.00700
Co	Co	-0.00000 0.00000 0.50000 1.10000
Co	Co	0.66667 0.33333 0.83333 1.11200
Co	Co	0.33333 0.66667 0.16667 1.11200
