data_crystal

_cell_length_a 5.38700
_cell_length_b 16.01210
_cell_length_c 16.01210
_cell_angle_alpha 61.24040
_cell_angle_beta  83.56110
_cell_angle_gamma 96.43890

_symmetry_space_group_name_	'P 1'
_symmetry_space_group_name_H-M	'P 1'

loop_
_symmetry_equiv_pos_as_xyz
  x,y,z

loop_
_atom_site_label
_atom_site_type_symbol
_atom_site_fract_x
_atom_site_fract_y
_atom_site_fract_z
_atom_site_charge
Cu	Cu	0.81654 0.21408 0.57226 0.84900
Cu	Cu	0.38880 0.57226 0.21366 0.85000
Cu	Cu	0.60246 0.21366 0.21408 0.85000
Cu	Cu	0.18346 0.78592 0.42774 0.84900
Cu	Cu	0.61120 0.42774 0.78634 0.85000
Cu	Cu	0.39754 0.78634 0.78592 0.85000
C 	C 	0.64726 0.00493 0.65135 0.05300
C 	C 	0.85377 0.02959 0.75098 -0.00200
C 	C 	0.73590 0.93476 0.79796 -0.01800
C 	C 	0.66559 0.21096 0.39889 0.05300
C 	C 	0.96020 0.12392 0.45192 0.00200
C 	C 	0.90937 0.12200 0.37149 -0.01800
C 	C 	0.29861 0.65135 0.34372 0.05300
C 	C 	0.60475 0.75098 0.21943 -0.00200
C 	C 	0.53386 0.79796 0.26728 -0.01800
C 	C 	0.06448 0.39889 0.39015 0.05300
C 	C 	0.41212 0.45192 0.42416 0.00300
C 	C 	0.28086 0.37149 0.50651 -0.01800
C 	C 	0.64233 0.34372 0.00493 0.05300
C 	C 	0.82418 0.21943 0.02959 -0.00200
C 	C 	0.80114 0.26728 0.93476 -0.01800
C 	C 	0.45463 0.39015 0.21096 0.05300
C 	C 	0.83628 0.42416 0.12392 0.00300
C 	C 	0.78737 0.50651 0.12200 -0.01800
C 	C 	0.35274 0.99507 0.34865 0.05300
C 	C 	0.14623 0.97041 0.24902 -0.00200
C 	C 	0.26410 0.06524 0.20204 -0.01800
C 	C 	0.33441 0.78904 0.60111 0.05300
C 	C 	0.03980 0.87608 0.54808 0.00200
C 	C 	0.09063 0.87800 0.62851 -0.01800
C 	C 	0.70139 0.34865 0.65628 0.05300
C 	C 	0.39525 0.24902 0.78057 -0.00200
C 	C 	0.46614 0.20204 0.73272 -0.01800
C 	C 	0.93552 0.60111 0.60985 0.05300
C 	C 	0.58788 0.54808 0.57584 0.00300
C 	C 	0.71914 0.62851 0.49349 -0.01800
C 	C 	0.35767 0.65628 0.99507 0.05300
C 	C 	0.17582 0.78057 0.97041 -0.00200
C 	C 	0.19886 0.73272 0.06524 -0.01800
C 	C 	0.54537 0.60985 0.78904 0.05300
C 	C 	0.16372 0.57584 0.87608 0.00300
C 	C 	0.21263 0.49349 0.87800 -0.01800
N 	N 	0.80223 0.07263 0.65974 -0.22900
N 	N 	0.58732 0.92252 0.73976 -0.22600
N 	N 	0.80871 0.17861 0.46908 -0.22800
N 	N 	0.73778 0.18018 0.33574 -0.22700
N 	N 	0.46197 0.65974 0.26763 -0.22900
N 	N 	0.32708 0.73976 0.33772 -0.22600
N 	N 	0.27779 0.46908 0.35231 -0.22800
N 	N 	0.07352 0.33574 0.48408 -0.22700
N 	N 	0.72960 0.26763 0.07263 -0.22900
N 	N 	0.66480 0.33772 0.92252 -0.22600
N 	N 	0.63010 0.35231 0.17861 -0.22800
N 	N 	0.55760 0.48408 0.18018 -0.22700
N 	N 	0.19777 0.92737 0.34026 -0.22900
N 	N 	0.41268 0.07748 0.26024 -0.22600
N 	N 	0.19129 0.82139 0.53092 -0.22800
N 	N 	0.26222 0.81982 0.66426 -0.22700
N 	N 	0.53803 0.34026 0.73237 -0.22900
N 	N 	0.67292 0.26024 0.66228 -0.22600
N 	N 	0.72221 0.53092 0.64769 -0.22800
N 	N 	0.92648 0.66426 0.51592 -0.22700
N 	N 	0.27040 0.73237 0.92737 -0.22900
N 	N 	0.33520 0.66228 0.07748 -0.22600
N 	N 	0.36990 0.64769 0.82139 -0.22800
N 	N 	0.44240 0.51592 0.81982 -0.22700
H 	H 	0.59193 0.02357 0.57856 -0.00300
H 	H 	0.97010 0.05874 0.78986 0.00400
H 	H 	0.77230 0.88241 0.87278 0.00100
H 	H 	0.51697 0.25558 0.40116 -0.02400
H 	H 	0.10906 0.08344 0.49146 0.00500
H 	H 	0.00708 0.07634 0.34617 0.00700
H 	H 	0.17048 0.57856 0.39787 -0.00300
H 	H 	0.75996 0.78986 0.15140 0.00400
H 	H 	0.64508 0.87278 0.24480 0.00100
H 	H 	0.91813 0.40116 0.34325 -0.02400
H 	H 	0.60053 0.49146 0.42509 0.00400
H 	H 	0.35326 0.34617 0.57749 0.00700
H 	H 	0.56835 0.39787 0.02357 -0.00300
H 	H 	0.91136 0.15140 0.05874 0.00400
H 	H 	0.88988 0.24480 0.88241 0.00100
H 	H 	0.26139 0.34325 0.25558 -0.02300
H 	H 	0.02562 0.42509 0.08344 0.00400
H 	H 	0.93074 0.57749 0.07634 0.00700
H 	H 	0.40807 0.97643 0.42144 -0.00300
H 	H 	0.02990 0.94126 0.21014 0.00400
H 	H 	0.22770 0.11759 0.12722 0.00100
H 	H 	0.48303 0.74442 0.59884 -0.02400
H 	H 	0.89094 0.91656 0.50854 0.00500
H 	H 	0.99292 0.92366 0.65383 0.00700
H 	H 	0.82952 0.42144 0.60213 -0.00300
H 	H 	0.24004 0.21014 0.84860 0.00400
H 	H 	0.35492 0.12722 0.75520 0.00100
H 	H 	0.08187 0.59884 0.65675 -0.02400
H 	H 	0.39947 0.50854 0.57491 0.00400
H 	H 	0.64674 0.65383 0.42251 0.00700
H 	H 	0.43165 0.60213 0.97643 -0.00300
H 	H 	0.08864 0.84860 0.94126 0.00400
H 	H 	0.11012 0.75520 0.11759 0.00100
H 	H 	0.73861 0.65675 0.74442 -0.02300
H 	H 	0.97438 0.57491 0.91656 0.00400
H 	H 	0.06926 0.42251 0.92366 0.00700
