data_crystal

_cell_length_a 9.35210
_cell_length_b 11.34710
_cell_length_c 18.80780
_cell_angle_alpha 79.46000
_cell_angle_beta  79.46200
_cell_angle_gamma 66.51200

_symmetry_space_group_name_	'P 1'
_symmetry_space_group_name_H-M	'P 1'

loop_
_symmetry_equiv_pos_as_xyz
  x,y,z

loop_
_atom_site_label
_atom_site_type_symbol
_atom_site_fract_x
_atom_site_fract_y
_atom_site_fract_z
_atom_site_charge
Co	Co	0.60536 0.81047 0.71808 1.09900
Co	Co	0.39464 0.18953 0.28192 1.07900
Co	Co	-0.00000 0.00000 -0.00000 1.07400
H 	H 	0.57520 0.56940 0.19420 0.00400
H 	H 	0.48220 0.54190 0.31740 0.13400
H 	H 	0.09950 0.85540 0.28630 0.13000
H 	H 	0.45080 0.74480 0.39240 0.15000
H 	H 	0.52450 0.76540 0.49950 -0.01900
H 	H 	0.20600 0.63480 0.61660 -0.01800
H 	H 	0.13360 0.61030 0.51100 0.14100
H 	H 	0.77330 0.86590 0.99820 0.03400
H 	H 	0.76800 0.66680 0.00050 0.04600
H 	H 	0.23140 0.51800 0.99560 0.11400
H 	H 	0.22360 0.72000 0.99560 0.01600
H 	H 	0.66240 0.88120 0.55160 -0.00300
H 	H 	0.81960 0.95160 0.46280 0.11100
H 	H 	0.03440 0.98420 0.61610 0.09700
H 	H 	0.87170 0.91040 0.70130 -0.01600
H 	H 	0.35030 0.00950 0.62510 -0.02800
H 	H 	0.15160 0.20710 0.62230 0.09200
H 	H 	0.26860 0.25020 0.80640 0.09800
H 	H 	0.47230 0.05710 0.79930 -0.03300
H 	H 	0.99240 0.37600 0.82540 0.07000
H 	H 	0.78470 0.57050 0.82440 -0.00500
H 	H 	0.83680 0.62200 0.61360 0.01400
H 	H 	0.04800 0.43700 0.60800 0.03000
H 	H 	0.42480 0.43060 0.80580 0.00200
H 	H 	0.51780 0.45810 0.68260 0.13700
H 	H 	0.90050 0.14460 0.71370 0.12400
H 	H 	0.54920 0.25520 0.60760 0.14400
H 	H 	0.47550 0.23460 0.50050 -0.02500
H 	H 	0.79400 0.36520 0.38340 -0.01300
H 	H 	0.86640 0.38970 0.48900 0.14800
H 	H 	0.22670 0.13410 0.00180 -0.03300
H 	H 	0.23200 0.33320 0.99950 0.14900
H 	H 	0.76860 0.48200 0.00440 0.08000
H 	H 	0.77640 0.28000 0.00440 -0.01700
H 	H 	0.33760 0.11880 0.44840 0.00700
H 	H 	0.18040 0.04840 0.53720 0.04700
H 	H 	0.96560 0.01580 0.38390 0.07200
H 	H 	0.12830 0.08960 0.29870 -0.02500
H 	H 	0.64970 0.99050 0.37490 0.01000
H 	H 	0.84840 0.79290 0.37770 0.07900
H 	H 	0.73140 0.74980 0.19360 0.07400
H 	H 	0.52770 0.94290 0.20070 -0.00900
H 	H 	0.00760 0.62400 0.17460 0.09700
H 	H 	0.21530 0.42950 0.17560 -0.04800
H 	H 	0.16320 0.37800 0.38640 -0.02700
H 	H 	0.95200 0.56300 0.39200 0.12800
C 	C 	0.24410 0.81610 0.19280 0.02300
C 	C 	0.39070 0.72990 0.16520 -0.11100
C 	C 	0.47830 0.62770 0.21220 0.10200
C 	C 	0.42330 0.61110 0.28630 -0.25900
C 	C 	0.28400 0.69650 0.31180 0.27400
C 	C 	0.19510 0.79760 0.26690 -0.20500
C 	C 	0.13100 0.92120 0.14500 0.35800
C 	C 	0.46100 0.74350 0.08630 0.32500
C 	C 	0.28300 0.67880 0.44240 0.32500
C 	C 	0.40090 0.72340 0.43750 -0.31100
C 	C 	0.44400 0.73580 0.50200 0.18600
C 	C 	0.37160 0.70570 0.56920 -0.20900
C 	C 	0.25510 0.65770 0.57170 0.17200
C 	C 	0.21090 0.64340 0.50870 -0.29800
C 	C 	0.40590 0.73140 0.63880 0.37200
C 	C 	0.86750 0.79440 0.99840 0.06200
C 	C 	0.86370 0.67440 0.99960 -0.07400
C 	C 	0.99880 0.56560 0.99930 0.11600
C 	C 	0.13500 0.58730 0.99690 -0.17400
C 	C 	0.12950 0.70970 0.99660 0.09200
C 	C 	0.74040 0.90060 0.56540 0.12000
C 	C 	0.83400 0.94420 0.51130 -0.19000
C 	C 	0.94790 0.97690 0.52820 0.16400
C 	C 	0.95950 0.96290 0.60100 -0.15900
C 	C 	0.86080 0.91750 0.65240 0.11200
C 	C 	0.33410 0.05890 0.66240 0.10100
C 	C 	0.21270 0.17780 0.66050 -0.18400
C 	C 	0.18140 0.25400 0.71530 0.10700
C 	C 	0.28270 0.20370 0.76810 -0.17900
C 	C 	0.40370 0.08580 0.76410 0.09400
C 	C 	0.99740 0.45750 0.65360 -0.02500
C 	C 	0.04830 0.38040 0.71730 -0.02800
C 	C 	0.96460 0.42500 0.78110 -0.06500
C 	C 	0.83890 0.54280 0.78000 0.05100
C 	C 	0.86990 0.57290 0.65710 0.03700
C 	C 	0.75590 0.18390 0.80720 0.05500
C 	C 	0.60930 0.27010 0.83480 -0.12200
C 	C 	0.52170 0.37230 0.78780 0.11300
C 	C 	0.57670 0.38890 0.71370 -0.26800
C 	C 	0.71600 0.30350 0.68820 0.28200
C 	C 	0.80490 0.20240 0.73310 -0.23000
C 	C 	0.86900 0.07880 0.85500 0.24500
C 	C 	0.53900 0.25650 0.91370 0.32700
C 	C 	0.71700 0.32120 0.55760 0.32200
C 	C 	0.59910 0.27660 0.56250 -0.31900
C 	C 	0.55600 0.26420 0.49800 0.18000
C 	C 	0.62840 0.29430 0.43080 -0.21400
C 	C 	0.74490 0.34230 0.42830 0.17300
C 	C 	0.78910 0.35660 0.49130 -0.29800
C 	C 	0.59410 0.26860 0.36120 0.36700
C 	C 	0.13250 0.20560 0.00160 0.11100
C 	C 	0.13630 0.32560 0.00040 -0.22900
C 	C 	0.00120 0.43440 0.00070 0.01400
C 	C 	0.86500 0.41270 0.00310 -0.12500
C 	C 	0.87050 0.29030 0.00340 0.09700
C 	C 	0.25960 0.09940 0.43460 0.04900
C 	C 	0.16600 0.05580 0.48870 -0.09100
C 	C 	0.05210 0.02310 0.47180 -0.02900
C 	C 	0.04050 0.03710 0.39900 -0.12500
C 	C 	0.13920 0.08250 0.34760 0.06800
C 	C 	0.66590 0.94110 0.33760 0.08000
C 	C 	0.78730 0.82220 0.33950 -0.11700
C 	C 	0.81860 0.74600 0.28470 0.02400
C 	C 	0.71730 0.79630 0.23190 -0.11400
C 	C 	0.59630 0.91420 0.23590 0.06900
C 	C 	0.00260 0.54250 0.34640 -0.24300
C 	C 	0.95170 0.61960 0.28270 0.15500
C 	C 	0.03540 0.57500 0.21890 -0.21300
C 	C 	0.16110 0.45720 0.22000 0.12300
C 	C 	0.13010 0.42710 0.34290 0.14100
N 	N 	0.42960 0.00980 0.71345 -0.27100
N 	N 	0.79130 0.61830 0.71942 -0.23200
N 	N 	0.75340 0.88400 0.63602 -0.25300
N 	N 	0.99910 0.81380 0.99765 -0.21700
N 	N 	0.57040 0.99020 0.28655 -0.23100
N 	N 	0.20870 0.38170 0.28058 -0.27000
N 	N 	0.24660 0.11600 0.36398 -0.24500
N 	N 	0.00090 0.18620 0.00235 -0.27700
O 	O 	0.15500 0.91310 0.07906 -0.42400
O 	O 	0.01350 0.00400 0.17683 -0.34400
O 	O 	0.50010 0.83730 0.06470 -0.25900
O 	O 	0.48350 0.65370 0.05086 -0.27100
O 	O 	0.21630 0.67420 0.38371 -0.31300
O 	O 	0.51630 0.77100 0.63463 -0.42200
O 	O 	0.32140 0.71340 0.69610 -0.29900
O 	O 	0.84500 0.08690 0.92094 -0.38700
O 	O 	0.98650 0.99600 0.82317 -0.22200
O 	O 	0.49990 0.16270 0.93530 -0.25400
O 	O 	0.51650 0.34630 0.94914 -0.24600
O 	O 	0.78370 0.32580 0.61629 -0.31400
O 	O 	0.48370 0.22900 0.36537 -0.43800
O 	O 	0.67860 0.28660 0.30390 -0.30300
