data_crystal

_cell_length_a 20.74500
_cell_length_b 8.32550
_cell_length_c 17.34350
_cell_angle_alpha 90.00000
_cell_angle_beta  90.00000
_cell_angle_gamma 90.00000

_symmetry_space_group_name_	'P 1'
_symmetry_space_group_name_H-M	'P 1'

loop_
_symmetry_equiv_pos_as_xyz
  x,y,z

loop_
_atom_site_label
_atom_site_type_symbol
_atom_site_fract_x
_atom_site_fract_y
_atom_site_fract_z
_atom_site_charge
C 	C 	0.41090 0.10130 0.35990 0.06500
C 	C 	0.37649 0.16380 0.42980 0.03400
C 	C 	0.32246 0.26520 0.42960 -0.13700
C 	C 	0.29444 0.32320 0.35460 0.36600
O 	O 	0.46004 0.17570 0.33823 -0.32200
O 	O 	0.39283 0.96920 0.33070 -0.18800
O 	O 	0.31363 0.26160 0.29301 -0.43100
O 	O 	0.25446 0.43530 0.35786 -0.40800
C 	C 	0.91090 0.60130 0.85990 0.28700
C 	C 	0.87649 0.66380 0.92980 0.00400
C 	C 	0.82246 0.76520 0.92960 -0.02700
C 	C 	0.79444 0.82320 0.85460 0.34700
O 	O 	0.96004 0.67570 0.83823 -0.27400
O 	O 	0.89283 0.46920 0.83070 -0.38900
O 	O 	0.81363 0.76160 0.79301 -0.36700
O 	O 	0.75446 0.93530 0.85786 -0.30700
C 	C 	0.58910 0.89870 0.35990 0.52100
C 	C 	0.62351 0.83620 0.42980 -0.08200
C 	C 	0.67754 0.73480 0.42960 -0.00500
C 	C 	0.70556 0.67680 0.35460 0.35000
O 	O 	0.53996 0.82430 0.33823 -0.36800
O 	O 	0.60717 0.03080 0.33070 -0.58400
O 	O 	0.68637 0.73840 0.29301 -0.37200
O 	O 	0.74554 0.56470 0.35786 -0.38600
C 	C 	0.08910 0.39870 0.85990 0.29500
C 	C 	0.12351 0.33620 0.92980 -0.02300
C 	C 	0.17754 0.23480 0.92960 -0.08400
C 	C 	0.20556 0.17680 0.85460 0.36300
O 	O 	0.03996 0.32430 0.83823 -0.41700
O 	O 	0.10717 0.53080 0.83070 -0.39500
O 	O 	0.18637 0.23840 0.79301 -0.44500
O 	O 	0.24554 0.06470 0.85786 -0.46200
C 	C 	0.08910 0.60130 0.64010 0.30500
C 	C 	0.12351 0.66380 0.57020 -0.04700
C 	C 	0.17754 0.76520 0.57040 -0.03400
C 	C 	0.20556 0.82320 0.64540 0.34300
O 	O 	0.03996 0.67570 0.66177 -0.36500
O 	O 	0.10717 0.46920 0.66930 -0.42900
O 	O 	0.18637 0.76160 0.70699 -0.37500
O 	O 	0.24554 0.93530 0.64214 -0.31400
C 	C 	0.58910 0.10130 0.14010 0.06600
C 	C 	0.62351 0.16380 0.07020 0.03700
C 	C 	0.67754 0.26520 0.07040 -0.13100
C 	C 	0.70556 0.32320 0.14540 0.36600
O 	O 	0.53996 0.17570 0.16177 -0.32300
O 	O 	0.60717 0.96920 0.16930 -0.18900
O 	O 	0.68637 0.26160 0.20699 -0.43100
O 	O 	0.74554 0.43530 0.14214 -0.40700
C 	C 	0.91090 0.39870 0.64010 0.28300
C 	C 	0.87649 0.33620 0.57020 -0.00300
C 	C 	0.82246 0.23480 0.57040 -0.10800
C 	C 	0.79444 0.17680 0.64540 0.37300
O 	O 	0.96004 0.32430 0.66177 -0.33300
O 	O 	0.89283 0.53080 0.66930 -0.36100
O 	O 	0.81363 0.23840 0.70699 -0.43800
O 	O 	0.75446 0.06470 0.64214 -0.46300
C 	C 	0.41090 0.89870 0.14010 0.51800
C 	C 	0.37649 0.83620 0.07020 -0.07800
C 	C 	0.32246 0.73480 0.07040 -0.00300
C 	C 	0.29444 0.67680 0.14540 0.34700
O 	O 	0.46004 0.82430 0.16177 -0.36800
O 	O 	0.39283 0.03080 0.16930 -0.58300
O 	O 	0.31363 0.73840 0.20699 -0.37200
O 	O 	0.25446 0.56470 0.14214 -0.38800
C 	C 	0.58910 0.89870 0.64010 0.52100
C 	C 	0.62351 0.83620 0.57020 -0.08200
C 	C 	0.67754 0.73480 0.57040 -0.00500
C 	C 	0.70556 0.67680 0.64540 0.35000
O 	O 	0.53996 0.82430 0.66177 -0.36800
O 	O 	0.60717 0.03080 0.66930 -0.58400
O 	O 	0.68637 0.73840 0.70699 -0.37200
O 	O 	0.74554 0.56470 0.64214 -0.38600
C 	C 	0.08910 0.39870 0.14010 0.29600
C 	C 	0.12351 0.33620 0.07020 -0.03600
C 	C 	0.17754 0.23480 0.07040 -0.09600
C 	C 	0.20556 0.17680 0.14540 0.36400
O 	O 	0.03996 0.32430 0.16177 -0.42100
O 	O 	0.10717 0.53080 0.16930 -0.39900
O 	O 	0.18637 0.23840 0.20699 -0.44500
O 	O 	0.24554 0.06470 0.14214 -0.46600
C 	C 	0.41090 0.10130 0.64010 0.06600
C 	C 	0.37649 0.16380 0.57020 0.03500
C 	C 	0.32246 0.26520 0.57040 -0.13500
C 	C 	0.29444 0.32320 0.64540 0.36600
O 	O 	0.46004 0.17570 0.66177 -0.32200
O 	O 	0.39283 0.96920 0.66930 -0.18800
O 	O 	0.31363 0.26160 0.70699 -0.43100
O 	O 	0.25446 0.43530 0.64214 -0.40800
C 	C 	0.91090 0.60130 0.14010 0.28900
C 	C 	0.87649 0.66380 0.07020 -0.00900
C 	C 	0.82246 0.76520 0.07040 -0.04000
C 	C 	0.79444 0.82320 0.14540 0.34800
O 	O 	0.96004 0.67570 0.16177 -0.27900
O 	O 	0.89283 0.46920 0.16930 -0.39200
O 	O 	0.81363 0.76160 0.20699 -0.36800
O 	O 	0.75446 0.93530 0.14214 -0.31200
C 	C 	0.91090 0.39870 0.35990 0.28300
C 	C 	0.87649 0.33620 0.42980 -0.00300
C 	C 	0.82246 0.23480 0.42960 -0.10800
C 	C 	0.79444 0.17680 0.35460 0.37300
O 	O 	0.96004 0.32430 0.33823 -0.33300
O 	O 	0.89283 0.53080 0.33070 -0.36100
O 	O 	0.81363 0.23840 0.29301 -0.43800
O 	O 	0.75446 0.06470 0.35786 -0.46300
C 	C 	0.41090 0.89870 0.85990 0.51700
C 	C 	0.37649 0.83620 0.92980 -0.06600
C 	C 	0.32246 0.73480 0.92960 0.00900
C 	C 	0.29444 0.67680 0.85460 0.34500
O 	O 	0.46004 0.82430 0.83823 -0.36400
O 	O 	0.39283 0.03080 0.83070 -0.58000
O 	O 	0.31363 0.73840 0.79301 -0.37100
O 	O 	0.25446 0.56470 0.85786 -0.38300
C 	C 	0.08910 0.60130 0.35990 0.30500
C 	C 	0.12351 0.66380 0.42980 -0.04700
C 	C 	0.17754 0.76520 0.42960 -0.03400
C 	C 	0.20556 0.82320 0.35460 0.34300
O 	O 	0.03996 0.67570 0.33823 -0.36500
O 	O 	0.10717 0.46920 0.33070 -0.42900
O 	O 	0.18637 0.76160 0.29301 -0.37600
O 	O 	0.24554 0.93530 0.35786 -0.31400
C 	C 	0.58910 0.10130 0.85990 0.06400
C 	C 	0.62351 0.16380 0.92980 0.05000
C 	C 	0.67754 0.26520 0.92960 -0.11800
C 	C 	0.70556 0.32320 0.85460 0.36400
O 	O 	0.53996 0.17570 0.83823 -0.31900
O 	O 	0.60717 0.96920 0.83070 -0.18600
O 	O 	0.68637 0.26160 0.79301 -0.43000
O 	O 	0.74554 0.43530 0.85786 -0.40200
C 	C 	0.40320 0.11710 0.50000 -0.10100
H 	H 	0.43990 0.05300 0.50000 0.03600
C 	C 	0.29740 0.31690 0.50000 0.06000
H 	H 	0.26280 0.38810 0.50000 0.03900
C 	C 	0.90320 0.61710 -0.00000 -0.03000
H 	H 	0.93990 0.55300 -0.00000 0.08100
C 	C 	0.79740 0.81690 -0.00000 -0.00200
H 	H 	0.76280 0.88810 -0.00000 0.09900
C 	C 	0.59680 0.88290 0.50000 0.07900
H 	H 	0.56010 0.94700 0.50000 0.08000
C 	C 	0.70260 0.68310 0.50000 -0.00500
H 	H 	0.73720 0.61190 0.50000 0.08200
C 	C 	0.09680 0.38290 -0.00000 -0.03500
H 	H 	0.06010 0.44700 -0.00000 0.04000
C 	C 	0.20260 0.18310 -0.00000 0.01200
H 	H 	0.23720 0.11190 -0.00000 0.02700
C 	C 	0.09680 0.61710 0.50000 0.01500
H 	H 	0.06010 0.55300 0.50000 0.02400
C 	C 	0.20260 0.81690 0.50000 0.00400
H 	H 	0.23720 0.88810 0.50000 0.10000
C 	C 	0.59680 0.11710 -0.00000 -0.12200
H 	H 	0.56010 0.05300 -0.00000 0.03900
C 	C 	0.70260 0.31690 -0.00000 0.03800
H 	H 	0.73720 0.38810 -0.00000 0.04400
C 	C 	0.90320 0.38290 0.50000 -0.03500
H 	H 	0.93990 0.44700 0.50000 0.09100
C 	C 	0.79740 0.18310 0.50000 0.05100
H 	H 	0.76280 0.11190 0.50000 0.02000
C 	C 	0.40320 0.88290 -0.00000 0.05500
H 	H 	0.43990 0.94700 -0.00000 0.08300
C 	C 	0.29740 0.68310 -0.00000 -0.02900
H 	H 	0.26280 0.61190 -0.00000 0.08200
Cd	Cd	0.50000 0.00000 0.25000 1.18800
Cd	Cd	0.00000 0.50000 0.75000 1.21600
Cd	Cd	0.50000 0.00000 0.75000 1.18900
Cd	Cd	0.00000 0.50000 0.25000 1.21500
Cd	Cd	0.20249 0.50000 0.25000 1.24900
Cd	Cd	0.79751 0.50000 0.25000 1.24900
Cd	Cd	0.29751 0.00000 0.75000 1.19100
Cd	Cd	0.70249 0.00000 0.75000 1.19200
Cd	Cd	0.79751 0.50000 0.75000 1.24900
Cd	Cd	0.20249 0.50000 0.75000 1.24900
Cd	Cd	0.70249 0.00000 0.25000 1.19200
Cd	Cd	0.29751 0.00000 0.25000 1.19100
