data_crystal

_cell_length_a 19.10350
_cell_length_b 9.54300
_cell_length_c 17.67080
_cell_angle_alpha 90.00000
_cell_angle_beta  90.00000
_cell_angle_gamma 90.00000

_symmetry_space_group_name_	'P 1'
_symmetry_space_group_name_H-M	'P 1'

loop_
_symmetry_equiv_pos_as_xyz
  x,y,z

loop_
_atom_site_label
_atom_site_type_symbol
_atom_site_fract_x
_atom_site_fract_y
_atom_site_fract_z
_atom_site_charge
C 	C 	0.37477 0.25350 0.07669 0.33900
C 	C 	0.34175 0.18730 0.00768 -0.06600
C 	C 	0.28901 0.08540 0.01035 -0.05300
C 	C 	0.26442 0.02760 0.94290 0.01400
H 	H 	0.22990 0.95910 0.94490 0.03600
C 	C 	0.29006 0.06940 0.87250 -0.05400
C 	C 	0.34352 0.17040 0.86970 -0.08900
C 	C 	0.36787 0.22680 0.93715 0.02300
H 	H 	0.40310 0.29390 0.93520 0.04200
C 	C 	0.25631 0.03190 0.08304 0.34200
C 	C 	0.25915 0.99960 0.80274 0.33700
C 	C 	0.37772 0.21970 0.79724 0.38800
Mn	Mn	0.25721 0.26640 0.19574 1.31900
O 	O 	0.42326 0.33690 0.06595 -0.28100
O 	O 	0.35284 0.21793 0.14150 -0.41300
O 	O 	0.21327 0.10893 0.11678 -0.40200
O 	O 	0.27194 0.90891 0.10158 -0.38000
O 	O 	0.20892 0.06073 0.76984 -0.43200
O 	O 	0.28375 0.88328 0.78531 -0.40300
O 	O 	0.34686 0.20067 0.73516 -0.43100
O 	O 	0.43643 0.27610 0.80432 -0.46100
C 	C 	0.12523 0.24650 0.57669 0.34200
C 	C 	0.15825 0.31270 0.50768 -0.08000
C 	C 	0.21099 0.41460 0.51035 -0.04700
C 	C 	0.23558 0.47240 0.44290 -0.00000
H 	H 	0.27010 0.54090 0.44490 0.04500
C 	C 	0.20994 0.43060 0.37250 -0.05200
C 	C 	0.15648 0.32960 0.36970 -0.10200
C 	C 	0.13213 0.27320 0.43715 0.02900
H 	H 	0.09690 0.20610 0.43520 0.02700
C 	C 	0.24369 0.46810 0.58304 0.34100
C 	C 	0.24085 0.50040 0.30274 0.33900
C 	C 	0.12228 0.28030 0.29724 0.39200
Mn	Mn	0.24279 0.23360 0.69574 1.31900
O 	O 	0.07674 0.16310 0.56595 -0.31200
O 	O 	0.14716 0.28207 0.64150 -0.42700
O 	O 	0.28673 0.39107 0.61678 -0.39500
O 	O 	0.22806 0.59109 0.60158 -0.38800
O 	O 	0.29108 0.43927 0.26984 -0.42700
O 	O 	0.21625 0.61672 0.28531 -0.41000
O 	O 	0.15314 0.29933 0.23516 -0.44300
O 	O 	0.06357 0.22390 0.30432 -0.49400
C 	C 	0.62523 0.25350 0.42331 0.33900
C 	C 	0.65825 0.18730 0.49232 -0.06900
C 	C 	0.71099 0.08540 0.48965 -0.04400
C 	C 	0.73558 0.02760 0.55710 0.00500
H 	H 	0.77010 0.95910 0.55510 0.04700
C 	C 	0.70994 0.06940 0.62750 -0.04600
C 	C 	0.65648 0.17040 0.63030 -0.09100
C 	C 	0.63213 0.22680 0.56285 0.02600
H 	H 	0.59690 0.29390 0.56480 0.04200
C 	C 	0.74369 0.03190 0.41696 0.34000
C 	C 	0.74085 0.99960 0.69726 0.33400
C 	C 	0.62228 0.21970 0.70276 0.38900
Mn	Mn	0.74279 0.26640 0.30426 1.32000
O 	O 	0.57674 0.33690 0.43405 -0.28200
O 	O 	0.64716 0.21793 0.35850 -0.41400
O 	O 	0.78673 0.10893 0.38322 -0.38600
O 	O 	0.72806 0.90891 0.39842 -0.38100
O 	O 	0.79108 0.06073 0.73016 -0.41500
O 	O 	0.71625 0.88328 0.71469 -0.40200
O 	O 	0.65314 0.20067 0.76484 -0.43100
O 	O 	0.56357 0.27610 0.69568 -0.46200
C 	C 	0.87477 0.24650 0.92331 0.33300
C 	C 	0.84175 0.31270 0.99232 -0.05200
C 	C 	0.78901 0.41460 0.98965 -0.05000
C 	C 	0.76442 0.47240 0.05710 0.01300
H 	H 	0.72990 0.54090 0.05510 0.04300
C 	C 	0.79006 0.43060 0.12750 -0.05400
C 	C 	0.84352 0.32960 0.13030 -0.07400
C 	C 	0.86787 0.27320 0.06285 0.01600
H 	H 	0.90310 0.20610 0.06480 0.05900
C 	C 	0.75631 0.46810 0.91696 0.34500
C 	C 	0.75915 0.50040 0.19726 0.34200
C 	C 	0.87772 0.28030 0.20276 0.38100
Mn	Mn	0.75721 0.23360 0.80426 1.32000
O 	O 	0.92326 0.16310 0.93405 -0.24400
O 	O 	0.85284 0.28207 0.85850 -0.39700
O 	O 	0.71327 0.39107 0.88322 -0.39600
O 	O 	0.77194 0.59109 0.89842 -0.37700
O 	O 	0.70892 0.43927 0.23016 -0.42800
O 	O 	0.78375 0.61672 0.21469 -0.39500
O 	O 	0.84686 0.29933 0.26484 -0.41500
O 	O 	0.93643 0.22390 0.19568 -0.41200
C 	C 	0.62523 0.74650 0.92331 0.33900
C 	C 	0.65825 0.81270 0.99232 -0.07100
C 	C 	0.71099 0.91460 0.98965 -0.05100
C 	C 	0.73558 0.97240 0.05710 0.01600
H 	H 	0.77010 0.04090 0.05510 0.04100
C 	C 	0.70994 0.93060 0.12750 -0.04900
C 	C 	0.65648 0.82960 0.13030 -0.09100
C 	C 	0.63213 0.77320 0.06285 0.02900
H 	H 	0.59690 0.70610 0.06480 0.04100
C 	C 	0.74369 0.96810 0.91696 0.34000
C 	C 	0.74085 0.00040 0.19726 0.33400
C 	C 	0.62228 0.78030 0.20276 0.38900
Mn	Mn	0.74279 0.73360 0.80426 1.32000
O 	O 	0.57674 0.66310 0.93405 -0.28300
O 	O 	0.64716 0.78207 0.85850 -0.41400
O 	O 	0.78673 0.89107 0.88322 -0.38700
O 	O 	0.72806 0.09109 0.89842 -0.37900
O 	O 	0.79108 0.93927 0.23016 -0.41500
O 	O 	0.71625 0.11672 0.21469 -0.40200
O 	O 	0.65314 0.79933 0.26484 -0.43100
O 	O 	0.56357 0.72390 0.19568 -0.46100
C 	C 	0.87477 0.75350 0.42331 0.33400
C 	C 	0.84175 0.68730 0.49232 -0.05300
C 	C 	0.78901 0.58540 0.48965 -0.04900
C 	C 	0.76442 0.52760 0.55710 0.01200
H 	H 	0.72990 0.45910 0.55510 0.04300
C 	C 	0.79006 0.56940 0.62750 -0.05300
C 	C 	0.84352 0.67040 0.63030 -0.07400
C 	C 	0.86787 0.72680 0.56285 0.01700
H 	H 	0.90310 0.79390 0.56480 0.06000
C 	C 	0.75631 0.53190 0.41696 0.34500
C 	C 	0.75915 0.49960 0.69726 0.34100
C 	C 	0.87772 0.71970 0.70276 0.38100
Mn	Mn	0.75721 0.76640 0.30426 1.32000
O 	O 	0.92326 0.83690 0.43405 -0.24500
O 	O 	0.85284 0.71793 0.35850 -0.39700
O 	O 	0.71327 0.60893 0.38322 -0.39600
O 	O 	0.77194 0.40891 0.39842 -0.37700
O 	O 	0.70892 0.56073 0.73016 -0.42800
O 	O 	0.78375 0.38328 0.71469 -0.39500
O 	O 	0.84686 0.70067 0.76484 -0.41500
O 	O 	0.93643 0.77610 0.69568 -0.41200
C 	C 	0.37477 0.74650 0.57669 0.33800
C 	C 	0.34175 0.81270 0.50768 -0.06700
C 	C 	0.28901 0.91460 0.51035 -0.05000
C 	C 	0.26442 0.97240 0.44290 0.00500
H 	H 	0.22990 0.04090 0.44490 0.04200
C 	C 	0.29006 0.93060 0.37250 -0.05200
C 	C 	0.34352 0.82960 0.36970 -0.09000
C 	C 	0.36787 0.77320 0.43715 0.02400
H 	H 	0.40310 0.70610 0.43520 0.04200
C 	C 	0.25631 0.96810 0.58304 0.34300
C 	C 	0.25915 0.00040 0.30274 0.33800
C 	C 	0.37772 0.78030 0.29724 0.38900
Mn	Mn	0.25721 0.73360 0.69574 1.31900
O 	O 	0.42326 0.66310 0.56595 -0.28100
O 	O 	0.35284 0.78207 0.64150 -0.41300
O 	O 	0.21327 0.89107 0.61678 -0.40200
O 	O 	0.27194 0.09109 0.60158 -0.38200
O 	O 	0.20892 0.93927 0.26984 -0.43200
O 	O 	0.28375 0.11672 0.28531 -0.40300
O 	O 	0.34686 0.79933 0.23516 -0.43100
O 	O 	0.43643 0.72390 0.30432 -0.46100
C 	C 	0.12523 0.75350 0.07669 0.34100
C 	C 	0.15825 0.68730 0.00768 -0.07600
C 	C 	0.21099 0.58540 0.01035 -0.04600
C 	C 	0.23558 0.52760 0.94290 -0.00300
H 	H 	0.27010 0.45910 0.94490 0.04500
C 	C 	0.20994 0.56940 0.87250 -0.05200
C 	C 	0.15648 0.67040 0.86970 -0.10100
C 	C 	0.13213 0.72680 0.93715 0.02400
H 	H 	0.09690 0.79390 0.93520 0.02800
C 	C 	0.24369 0.53190 0.08304 0.34100
C 	C 	0.24085 0.49960 0.80274 0.33900
C 	C 	0.12228 0.71970 0.79724 0.39100
Mn	Mn	0.24279 0.76640 0.19574 1.31900
O 	O 	0.07674 0.83690 0.06595 -0.31000
O 	O 	0.14716 0.71793 0.14150 -0.42600
O 	O 	0.28673 0.60893 0.11678 -0.39500
O 	O 	0.22806 0.40891 0.10158 -0.38800
O 	O 	0.29108 0.56073 0.76984 -0.42800
O 	O 	0.21625 0.38328 0.78531 -0.41000
O 	O 	0.15314 0.70067 0.73516 -0.44300
O 	O 	0.06357 0.77610 0.80432 -0.49400
Mn	Mn	0.50000 0.42823 0.75000 1.21500
Mn	Mn	0.00000 0.07177 0.25000 1.17800
Mn	Mn	0.50000 0.57177 0.25000 1.21500
Mn	Mn	0.00000 0.92823 0.75000 1.17700
