data_crystal

_cell_length_a 13.02200
_cell_length_b 18.75500
_cell_length_c 13.40300
_cell_angle_alpha 90.00000
_cell_angle_beta  107.72000
_cell_angle_gamma 90.00000

_symmetry_space_group_name_	'P 1'
_symmetry_space_group_name_H-M	'P 1'

loop_
_symmetry_equiv_pos_as_xyz
  x,y,z

loop_
_atom_site_label
_atom_site_type_symbol
_atom_site_fract_x
_atom_site_fract_y
_atom_site_fract_z
_atom_site_charge
Ag	Ag	0.00213 0.01581 0.88026 0.46600
C 	C 	0.24290 0.03720 0.71270 0.07600
H 	H 	0.25780 0.99390 0.68650 -0.01800
C 	C 	0.15940 0.13020 0.74290 -0.01800
H 	H 	0.10470 0.16250 0.74100 0.00000
C 	C 	0.26330 0.13760 0.80060 -0.01400
H 	H 	0.29370 0.17540 0.84450 0.02000
C 	C 	0.43100 0.06050 0.83160 -0.04400
H 	H 	0.44520 0.05680 0.90680 0.03500
H 	H 	0.44790 0.01500 0.80600 0.04000
C 	C 	0.50080 0.11750 0.80790 -0.10000
H 	H 	0.52350 0.16360 0.67540 0.05200
H 	H 	0.42570 0.11070 0.64760 0.06000
C 	C 	0.85710 0.88970 0.62880 0.06600
H 	H 	0.91950 0.86360 0.65930 -0.02600
C 	C 	0.74910 0.97410 0.55550 0.00100
H 	H 	0.72320 0.01790 0.52580 0.01000
C 	C 	0.68760 0.91850 0.56550 -0.01200
H 	H 	0.61260 0.91690 0.54460 0.02600
C 	C 	0.72880 0.79120 0.62620 -0.04700
H 	H 	0.78800 0.76870 0.67880 0.03800
H 	H 	0.66610 0.79020 0.65090 0.03400
C 	C 	0.70440 0.74940 0.52390 -0.09700
H 	H 	0.85970 0.73100 0.52600 0.05300
H 	H 	0.81090 0.79980 0.46300 0.05500
N 	N 	0.14640 0.06770 0.68730 -0.20800
N 	N 	0.31560 0.07750 0.78110 -0.11900
N 	N 	0.85600 0.95600 0.59600 -0.21200
N 	N 	0.75670 0.86480 0.61240 -0.11900
Ag	Ag	0.99787 0.01581 0.61974 0.46800
C 	C 	0.75710 0.03720 0.78730 0.07700
H 	H 	0.74220 0.99390 0.81350 -0.01700
C 	C 	0.84060 0.13020 0.75710 -0.01800
H 	H 	0.89530 0.16250 0.75900 0.00100
C 	C 	0.73670 0.13760 0.69940 -0.01400
H 	H 	0.70630 0.17540 0.65550 0.02000
C 	C 	0.56900 0.06050 0.66840 -0.04400
H 	H 	0.55480 0.05680 0.59320 0.03600
H 	H 	0.55210 0.01500 0.69400 0.04000
C 	C 	0.49920 0.11750 0.69210 -0.10000
H 	H 	0.47650 0.16360 0.82460 0.05200
H 	H 	0.57430 0.11070 0.85240 0.05900
C 	C 	0.14290 0.88970 0.87120 0.06500
H 	H 	0.08050 0.86360 0.84070 -0.02600
C 	C 	0.25090 0.97410 0.94450 0.00600
H 	H 	0.27680 0.01790 0.97420 0.00700
C 	C 	0.31240 0.91850 0.93450 -0.01500
H 	H 	0.38740 0.91690 0.95540 0.02800
C 	C 	0.27120 0.79120 0.87380 -0.04900
H 	H 	0.21200 0.76870 0.82120 0.03800
H 	H 	0.33390 0.79020 0.84910 0.03500
C 	C 	0.29560 0.74940 0.97610 -0.09300
H 	H 	0.14030 0.73100 0.97400 0.05300
H 	H 	0.18910 0.79980 0.03700 0.05500
N 	N 	0.85360 0.06770 0.81270 -0.20800
N 	N 	0.68440 0.07750 0.71890 -0.11900
N 	N 	0.14400 0.95600 0.90400 -0.21200
N 	N 	0.24330 0.86480 0.88760 -0.11900
Ag	Ag	0.49787 0.48419 0.11974 0.46800
C 	C 	0.25710 0.46280 0.28730 0.07900
H 	H 	0.24220 0.50610 0.31350 -0.01900
C 	C 	0.34060 0.36980 0.25710 -0.01800
H 	H 	0.39530 0.33750 0.25900 0.00000
C 	C 	0.23670 0.36240 0.19940 -0.01300
H 	H 	0.20630 0.32460 0.15550 0.02100
C 	C 	0.06900 0.43950 0.16840 -0.04000
H 	H 	0.05480 0.44320 0.09320 0.03500
H 	H 	0.05210 0.48500 0.19400 0.03900
C 	C 	0.99920 0.38250 0.19210 -0.10700
H 	H 	0.97650 0.33640 0.32460 0.05000
H 	H 	0.07430 0.38930 0.35240 0.05800
C 	C 	0.64290 0.61030 0.37120 0.06500
H 	H 	0.58050 0.63640 0.34070 -0.02700
C 	C 	0.75090 0.52590 0.44450 0.00000
H 	H 	0.77680 0.48210 0.47420 0.01000
C 	C 	0.81240 0.58150 0.43450 -0.01200
H 	H 	0.88740 0.58310 0.45540 0.02600
C 	C 	0.77120 0.70880 0.37380 -0.04600
H 	H 	0.71200 0.73130 0.32120 0.03800
H 	H 	0.83390 0.70980 0.34910 0.03400
C 	C 	0.79560 0.75060 0.47610 -0.09700
H 	H 	0.64030 0.76900 0.47400 0.05200
H 	H 	0.68910 0.70020 0.53700 0.05500
N 	N 	0.35360 0.43230 0.31270 -0.20800
N 	N 	0.18440 0.42250 0.21890 -0.12000
N 	N 	0.64400 0.54400 0.40400 -0.21200
N 	N 	0.74330 0.63520 0.38760 -0.11900
Ag	Ag	0.50213 0.48419 0.38026 0.46800
C 	C 	0.74290 0.46280 0.21270 0.07900
H 	H 	0.75780 0.50610 0.18650 -0.01900
C 	C 	0.65940 0.36980 0.24290 -0.01800
H 	H 	0.60470 0.33750 0.24100 0.00000
C 	C 	0.76330 0.36240 0.30060 -0.01400
H 	H 	0.79370 0.32460 0.34450 0.02100
C 	C 	0.93100 0.43950 0.33160 -0.04800
H 	H 	0.94520 0.44320 0.40680 0.03700
H 	H 	0.94790 0.48500 0.30600 0.04100
C 	C 	0.00080 0.38250 0.30790 -0.09300
H 	H 	0.02350 0.33640 0.17540 0.05500
H 	H 	0.92570 0.38930 0.14760 0.06100
C 	C 	0.35710 0.61030 0.12880 0.06500
H 	H 	0.41950 0.63640 0.15930 -0.02700
C 	C 	0.24910 0.52590 0.05550 0.00000
H 	H 	0.22320 0.48210 0.02580 0.01000
C 	C 	0.18760 0.58150 0.06550 -0.01200
H 	H 	0.11260 0.58310 0.04460 0.02600
C 	C 	0.22880 0.70880 0.12620 -0.04500
H 	H 	0.28800 0.73130 0.17880 0.03700
H 	H 	0.16610 0.70980 0.15090 0.03400
C 	C 	0.20440 0.75060 0.02390 -0.10000
H 	H 	0.35970 0.76900 0.02600 0.05100
H 	H 	0.31090 0.70020 0.96300 0.05300
N 	N 	0.64640 0.43230 0.18730 -0.20800
N 	N 	0.81560 0.42250 0.28110 -0.11900
N 	N 	0.35600 0.54400 0.09600 -0.21200
N 	N 	0.25670 0.63520 0.11240 -0.12000
Ag	Ag	0.50213 0.51581 0.88026 0.46800
C 	C 	0.74290 0.53720 0.71270 0.07900
H 	H 	0.75780 0.49390 0.68650 -0.01900
C 	C 	0.65940 0.63020 0.74290 -0.01800
H 	H 	0.60470 0.66250 0.74100 0.00000
C 	C 	0.76330 0.63760 0.80060 -0.01300
H 	H 	0.79370 0.67540 0.84450 0.02100
C 	C 	0.93100 0.56050 0.83160 -0.04000
H 	H 	0.94520 0.55680 0.90680 0.03500
H 	H 	0.94790 0.51500 0.80600 0.03900
C 	C 	0.00080 0.61750 0.80790 -0.10700
H 	H 	0.02350 0.66360 0.67540 0.05000
H 	H 	0.92570 0.61070 0.64760 0.05800
C 	C 	0.35710 0.38970 0.62880 0.06500
H 	H 	0.41950 0.36360 0.65930 -0.02700
C 	C 	0.24910 0.47410 0.55550 0.00000
H 	H 	0.22320 0.51790 0.52580 0.01000
C 	C 	0.18760 0.41850 0.56550 -0.01200
H 	H 	0.11260 0.41690 0.54460 0.02600
C 	C 	0.22880 0.29120 0.62620 -0.04600
H 	H 	0.28800 0.26870 0.67880 0.03800
H 	H 	0.16610 0.29020 0.65090 0.03400
C 	C 	0.20440 0.24940 0.52390 -0.09700
H 	H 	0.35970 0.23100 0.52600 0.05200
H 	H 	0.31090 0.29980 0.46300 0.05500
N 	N 	0.64640 0.56770 0.68730 -0.20800
N 	N 	0.81560 0.57750 0.78110 -0.12000
N 	N 	0.35600 0.45600 0.59600 -0.21200
N 	N 	0.25670 0.36480 0.61240 -0.11900
Ag	Ag	0.49787 0.51581 0.61974 0.46800
C 	C 	0.25710 0.53720 0.78730 0.07900
H 	H 	0.24220 0.49390 0.81350 -0.01900
C 	C 	0.34060 0.63020 0.75710 -0.01800
H 	H 	0.39530 0.66250 0.75900 0.00000
C 	C 	0.23670 0.63760 0.69940 -0.01400
H 	H 	0.20630 0.67540 0.65550 0.02100
C 	C 	0.06900 0.56050 0.66840 -0.04800
H 	H 	0.05480 0.55680 0.59320 0.03700
H 	H 	0.05210 0.51500 0.69400 0.04100
C 	C 	0.99920 0.61750 0.69210 -0.09300
H 	H 	0.97650 0.66360 0.82460 0.05500
H 	H 	0.07430 0.61070 0.85240 0.06100
C 	C 	0.64290 0.38970 0.87120 0.06500
H 	H 	0.58050 0.36360 0.84070 -0.02700
C 	C 	0.75090 0.47410 0.94450 0.00000
H 	H 	0.77680 0.51790 0.97420 0.01000
C 	C 	0.81240 0.41850 0.93450 -0.01200
H 	H 	0.88740 0.41690 0.95540 0.02600
C 	C 	0.77120 0.29120 0.87380 -0.04500
H 	H 	0.71200 0.26870 0.82120 0.03700
H 	H 	0.83390 0.29020 0.84910 0.03400
C 	C 	0.79560 0.24940 0.97610 -0.10000
H 	H 	0.64030 0.23100 0.97400 0.05100
H 	H 	0.68910 0.29980 0.03700 0.05300
N 	N 	0.35360 0.56770 0.81270 -0.20800
N 	N 	0.18440 0.57750 0.71890 -0.11900
N 	N 	0.64400 0.45600 0.90400 -0.21200
N 	N 	0.74330 0.36480 0.88760 -0.12000
Ag	Ag	0.99787 0.98419 0.11974 0.46700
C 	C 	0.75710 0.96280 0.28730 0.07700
H 	H 	0.74220 0.00610 0.31350 -0.01800
C 	C 	0.84060 0.86980 0.25710 -0.01800
H 	H 	0.89530 0.83750 0.25900 0.00000
C 	C 	0.73670 0.86240 0.19940 -0.01400
H 	H 	0.70630 0.82460 0.15550 0.02000
C 	C 	0.56900 0.93950 0.16840 -0.04400
H 	H 	0.55480 0.94320 0.09320 0.03500
H 	H 	0.55210 0.98500 0.19400 0.04000
C 	C 	0.49920 0.88250 0.19210 -0.10000
H 	H 	0.47650 0.83640 0.32460 0.05200
H 	H 	0.57430 0.88930 0.35240 0.06000
C 	C 	0.14290 0.11030 0.37120 0.06600
H 	H 	0.08050 0.13640 0.34070 -0.02600
C 	C 	0.25090 0.02590 0.44450 0.00100
H 	H 	0.27680 0.98210 0.47420 0.01000
C 	C 	0.31240 0.08150 0.43450 -0.01200
H 	H 	0.38740 0.08310 0.45540 0.02600
C 	C 	0.27120 0.20880 0.37380 -0.04700
H 	H 	0.21200 0.23130 0.32120 0.03800
H 	H 	0.33390 0.20980 0.34910 0.03400
C 	C 	0.29560 0.25060 0.47610 -0.09700
H 	H 	0.14030 0.26900 0.47400 0.05300
H 	H 	0.18910 0.20020 0.53700 0.05500
N 	N 	0.85360 0.93230 0.31270 -0.20800
N 	N 	0.68440 0.92250 0.21890 -0.11900
N 	N 	0.14400 0.04400 0.40400 -0.21200
N 	N 	0.24330 0.13520 0.38760 -0.11900
Ag	Ag	0.00213 0.98419 0.38026 0.46800
C 	C 	0.24290 0.96280 0.21270 0.07700
H 	H 	0.25780 0.00610 0.18650 -0.01700
C 	C 	0.15940 0.86980 0.24290 -0.01800
H 	H 	0.10470 0.83750 0.24100 0.00100
C 	C 	0.26330 0.86240 0.30060 -0.01400
H 	H 	0.29370 0.82460 0.34450 0.02000
C 	C 	0.43100 0.93950 0.33160 -0.04400
H 	H 	0.44520 0.94320 0.40680 0.03600
H 	H 	0.44790 0.98500 0.30600 0.04000
C 	C 	0.50080 0.88250 0.30790 -0.10000
H 	H 	0.52350 0.83640 0.17540 0.05200
H 	H 	0.42570 0.88930 0.14760 0.05900
C 	C 	0.85710 0.11030 0.12880 0.06500
H 	H 	0.91950 0.13640 0.15930 -0.02600
C 	C 	0.74910 0.02590 0.05550 0.00600
H 	H 	0.72320 0.98210 0.02580 0.00700
C 	C 	0.68760 0.08150 0.06550 -0.01500
H 	H 	0.61260 0.08310 0.04460 0.02800
C 	C 	0.72880 0.20880 0.12620 -0.04900
H 	H 	0.78800 0.23130 0.17880 0.03800
H 	H 	0.66610 0.20980 0.15090 0.03500
C 	C 	0.70440 0.25060 0.02390 -0.09300
H 	H 	0.85970 0.26900 0.02600 0.05300
H 	H 	0.81090 0.20020 0.96300 0.05500
N 	N 	0.14640 0.93230 0.18730 -0.20800
N 	N 	0.31560 0.92250 0.28110 -0.11900
N 	N 	0.85600 0.04400 0.09600 -0.21200
N 	N 	0.75670 0.13520 0.11240 -0.11900
