data_crystal

_cell_length_a 18.45000
_cell_length_b 20.71000
_cell_length_c 14.17400
_cell_angle_alpha 90.00000
_cell_angle_beta  90.00000
_cell_angle_gamma 90.00000

_symmetry_space_group_name_	'P 1'
_symmetry_space_group_name_H-M	'P 1'

loop_
_symmetry_equiv_pos_as_xyz
  x,y,z

loop_
_atom_site_label
_atom_site_type_symbol
_atom_site_fract_x
_atom_site_fract_y
_atom_site_fract_z
_atom_site_charge
Mo	Mo	0.16142 0.73027 0.09552 1.06400
Mo	Mo	0.24589 0.83360 0.09257 1.06400
Mo	Mo	0.73623 0.17917 0.09983 1.06600
Mo	Mo	0.82494 0.28003 0.09992 1.06700
S 	S 	0.16657 0.80780 0.21406 -0.35100
S 	S 	0.80938 0.20944 0.22625 -0.35300
Na	Na	0.99669 0.50115 0.25850 0.59700
O 	O 	0.21050 0.56750 0.79990 -0.50700
H 	H 	0.19690 0.53860 0.76220 0.32000
O 	O 	0.09300 0.57210 0.83360 -0.34400
O 	O 	0.99040 0.60570 0.15080 -0.34100
O 	O 	0.07430 0.68150 0.16430 -0.39600
O 	O 	0.98750 0.78750 0.92230 -0.23900
O 	O 	0.06370 0.77640 0.04190 -0.34500
O 	O 	0.21210 0.77497 0.99710 -0.51700
O 	O 	0.16770 0.89990 0.02640 -0.34000
O 	O 	0.13420 0.94980 0.89450 -0.21900
O 	O 	0.26770 0.92450 0.15800 -0.39100
O 	O 	0.33290 0.01330 0.14750 -0.31600
O 	O 	0.42580 0.83390 0.78780 -0.52100
H 	H 	0.45180 0.85270 0.74770 0.31400
O 	O 	0.41570 0.93320 0.84650 -0.34500
O 	O 	0.56880 0.17180 0.78670 -0.51000
H 	H 	0.54040 0.15260 0.74970 0.31400
O 	O 	0.59730 0.07220 0.83190 -0.34900
O 	O 	0.64660 0.99980 0.15380 -0.32900
O 	O 	0.70500 0.09291 0.17030 -0.39100
O 	O 	0.86590 0.05320 0.93590 -0.21400
O 	O 	0.81800 0.10778 0.05540 -0.32700
O 	O 	0.77877 0.23091 0.00200 -0.51800
O 	O 	0.92340 0.22709 0.05780 -0.33900
O 	O 	0.99550 0.20010 0.94000 -0.24100
O 	O 	0.91070 0.32780 0.17080 -0.39300
O 	O 	0.00230 0.39660 0.15670 -0.34300
O 	O 	0.80110 0.44070 0.79610 -0.50300
H 	H 	0.81940 0.46380 0.75360 0.32000
O 	O 	0.91710 0.42110 0.82930 -0.34200
N 	N 	0.68810 0.12090 0.97750 -0.06700
N 	N 	0.87820 0.33590 0.97760 -0.06200
N 	N 	0.11830 0.66530 0.97780 -0.06300
N 	N 	0.30680 0.88720 0.97450 -0.06000
C 	C 	0.15480 0.58800 0.84870 0.46100
C 	C 	0.17920 0.63420 0.92520 -0.32000
H 	H 	0.21000 0.61040 0.97060 0.11600
H 	H 	0.20940 0.66840 0.89620 0.13200
C 	C 	0.07320 0.61670 0.02560 -0.33400
H 	H 	0.10250 0.57710 0.03490 0.14000
H 	H 	0.03220 0.60530 0.98350 0.14600
C 	C 	0.04320 0.63700 0.11880 0.39700
C 	C 	0.07710 0.70650 0.91160 -0.32000
H 	H 	0.04120 0.67960 0.87760 0.16400
H 	H 	0.11070 0.72490 0.86430 0.15500
C 	C 	0.03840 0.76040 0.96150 0.38700
C 	C 	0.40190 0.87560 0.84840 0.46300
C 	C 	0.35660 0.84380 0.92370 -0.32400
H 	H 	0.32770 0.80900 0.89410 0.13700
H 	H 	0.38950 0.82340 0.97010 0.11700
C 	C 	0.31290 0.96010 0.11740 0.39900
C 	C 	0.34670 0.93880 0.02550 -0.33700
H 	H 	0.35060 0.97690 0.98350 0.14900
H 	H 	0.39650 0.92340 0.03840 0.13900
C 	C 	0.17910 0.92180 0.94490 0.39400
C 	C 	0.25400 0.91430 0.90620 -0.31800
H 	H 	0.25200 0.88580 0.85020 0.15500
H 	H 	0.27160 0.95710 0.88500 0.16300
C 	C 	0.60050 0.12960 0.84170 0.44700
C 	C 	0.64060 0.16380 0.92210 -0.30700
H 	H 	0.67020 0.19910 0.89510 0.12400
H 	H 	0.60450 0.18360 0.96490 0.10700
C 	C 	0.66860 0.05200 0.12300 0.40000
C 	C 	0.64580 0.06860 0.02320 -0.32100
H 	H 	0.64970 0.02930 0.98390 0.14400
H 	H 	0.59410 0.08150 0.02420 0.13400
C 	C 	0.81550 0.08300 0.97230 0.37100
C 	C 	0.74710 0.09720 0.91750 -0.29500
H 	H 	0.75790 0.12990 0.86850 0.13800
H 	H 	0.73110 0.05730 0.88510 0.15200
C 	C 	0.85330 0.41260 0.84510 0.44300
C 	C 	0.82250 0.37040 0.92260 -0.31100
H 	H 	0.79370 0.39770 0.96600 0.11400
H 	H 	0.78930 0.33830 0.89400 0.12200
C 	C 	0.94930 0.36730 0.12370 0.39900
C 	C 	0.93050 0.38120 0.02310 -0.32900
H 	H 	0.91000 0.42540 0.01960 0.13900
H 	H 	0.97580 0.38110 0.98570 0.14000
C 	C 	0.94910 0.23450 0.97440 0.38500
C 	C 	0.91480 0.28770 0.91720 -0.31500
H 	H 	0.95260 0.30950 0.87920 0.16100
H 	H 	0.87900 0.26870 0.87310 0.14400
Mo	Mo	0.83858 0.26973 0.59552 1.06500
Mo	Mo	0.75411 0.16640 0.59257 1.06400
Mo	Mo	0.26377 0.82083 0.59983 1.06600
Mo	Mo	0.17506 0.71997 0.59992 1.06600
S 	S 	0.83343 0.19220 0.71406 -0.35100
S 	S 	0.19062 0.79056 0.72625 -0.35300
Na	Na	0.00331 0.49885 0.75850 0.59700
O 	O 	0.78950 0.43250 0.29990 -0.50700
H 	H 	0.80310 0.46140 0.26220 0.32000
O 	O 	0.90700 0.42790 0.33360 -0.34400
O 	O 	0.00960 0.39430 0.65080 -0.34000
O 	O 	0.92570 0.31850 0.66430 -0.39700
O 	O 	0.01250 0.21250 0.42230 -0.24000
O 	O 	0.93630 0.22360 0.54190 -0.34800
O 	O 	0.78790 0.22503 0.49710 -0.51500
O 	O 	0.83230 0.10010 0.52640 -0.34200
O 	O 	0.86580 0.05020 0.39450 -0.21900
O 	O 	0.73230 0.07550 0.65800 -0.39200
O 	O 	0.66710 0.98670 0.64750 -0.31800
O 	O 	0.57420 0.16610 0.28780 -0.52100
H 	H 	0.54820 0.14730 0.24770 0.31400
O 	O 	0.58430 0.06680 0.34650 -0.34500
O 	O 	0.43120 0.82820 0.28670 -0.51000
H 	H 	0.45960 0.84740 0.24970 0.31400
O 	O 	0.40270 0.92780 0.33190 -0.34900
O 	O 	0.35340 0.00020 0.65380 -0.32900
O 	O 	0.29500 0.90709 0.67030 -0.39200
O 	O 	0.13410 0.94680 0.43590 -0.21400
O 	O 	0.18200 0.89222 0.55540 -0.33000
O 	O 	0.22123 0.76909 0.50200 -0.52000
O 	O 	0.07660 0.77291 0.55780 -0.34100
O 	O 	0.00450 0.79990 0.44000 -0.24100
O 	O 	0.08930 0.67220 0.67080 -0.39300
O 	O 	0.99770 0.60340 0.65670 -0.34500
O 	O 	0.19890 0.55930 0.29610 -0.50300
H 	H 	0.18060 0.53620 0.25360 0.32000
O 	O 	0.08290 0.57890 0.32930 -0.34200
N 	N 	0.31190 0.87910 0.47750 -0.06300
N 	N 	0.12180 0.66410 0.47760 -0.06100
N 	N 	0.88170 0.33470 0.47780 -0.06000
N 	N 	0.69320 0.11280 0.47450 -0.05900
C 	C 	0.84520 0.41200 0.34870 0.46100
C 	C 	0.82080 0.36580 0.42520 -0.32100
H 	H 	0.79000 0.38960 0.47060 0.11700
H 	H 	0.79060 0.33160 0.39620 0.13200
C 	C 	0.92680 0.38330 0.52560 -0.34300
H 	H 	0.89750 0.42290 0.53490 0.14100
H 	H 	0.96780 0.39470 0.48350 0.15100
C 	C 	0.95680 0.36300 0.61880 0.39800
C 	C 	0.92290 0.29350 0.41160 -0.32200
H 	H 	0.95880 0.32040 0.37760 0.16400
H 	H 	0.88930 0.27510 0.36430 0.15500
C 	C 	0.96160 0.23960 0.46150 0.39200
C 	C 	0.59810 0.12440 0.34840 0.46300
C 	C 	0.64340 0.15620 0.42370 -0.32400
H 	H 	0.67230 0.19100 0.39410 0.13700
H 	H 	0.61050 0.17660 0.47010 0.11700
C 	C 	0.68710 0.03990 0.61740 0.40100
C 	C 	0.65330 0.06120 0.52550 -0.34000
H 	H 	0.64940 0.02310 0.48350 0.15100
H 	H 	0.60350 0.07660 0.53840 0.14000
C 	C 	0.82090 0.07820 0.44490 0.39700
C 	C 	0.74600 0.08570 0.40620 -0.31800
H 	H 	0.74800 0.11420 0.35020 0.15500
H 	H 	0.72840 0.04290 0.38500 0.16300
C 	C 	0.39950 0.87040 0.34170 0.44700
C 	C 	0.35940 0.83620 0.42210 -0.30800
H 	H 	0.32980 0.80090 0.39510 0.12400
H 	H 	0.39550 0.81640 0.46490 0.10800
C 	C 	0.33140 0.94800 0.62300 0.40200
C 	C 	0.35420 0.93140 0.52320 -0.33100
H 	H 	0.35030 0.97070 0.48390 0.14900
H 	H 	0.40590 0.91850 0.52420 0.13500
C 	C 	0.18450 0.91700 0.47230 0.37500
C 	C 	0.25290 0.90280 0.41750 -0.29700
H 	H 	0.24210 0.87010 0.36850 0.13900
H 	H 	0.26890 0.94270 0.38510 0.15200
C 	C 	0.14670 0.58740 0.34510 0.44300
C 	C 	0.17750 0.62960 0.42260 -0.31200
H 	H 	0.20630 0.60230 0.46600 0.11500
H 	H 	0.21070 0.66170 0.39400 0.12200
C 	C 	0.05070 0.63270 0.62370 0.40100
C 	C 	0.06950 0.61880 0.52310 -0.33400
H 	H 	0.09000 0.57460 0.51960 0.14000
H 	H 	0.02420 0.61890 0.48570 0.14300
C 	C 	0.05090 0.76550 0.47440 0.38800
C 	C 	0.08520 0.71230 0.41720 -0.31600
H 	H 	0.04740 0.69050 0.37920 0.16200
H 	H 	0.12100 0.73130 0.37310 0.14500
Mo	Mo	0.66142 0.76973 0.09552 1.06500
Mo	Mo	0.74589 0.66640 0.09257 1.06400
Mo	Mo	0.23623 0.32083 0.09983 1.06600
Mo	Mo	0.32494 0.21997 0.09992 1.06700
S 	S 	0.66657 0.69220 0.21406 -0.35100
S 	S 	0.30938 0.29056 0.22625 -0.35300
Na	Na	0.49669 0.99885 0.25850 0.59700
O 	O 	0.71050 0.93250 0.79990 -0.50700
H 	H 	0.69690 0.96140 0.76220 0.32000
O 	O 	0.59300 0.92790 0.83360 -0.34400
O 	O 	0.49040 0.89430 0.15080 -0.34000
O 	O 	0.57430 0.81850 0.16430 -0.39600
O 	O 	0.48750 0.71250 0.92230 -0.24100
O 	O 	0.56370 0.72360 0.04190 -0.34700
O 	O 	0.71210 0.72503 0.99710 -0.51600
O 	O 	0.66770 0.60010 0.02640 -0.34000
O 	O 	0.63420 0.55020 0.89450 -0.21900
O 	O 	0.76770 0.57550 0.15800 -0.39200
O 	O 	0.83290 0.48670 0.14750 -0.31800
O 	O 	0.92580 0.66610 0.78780 -0.52100
H 	H 	0.95180 0.64730 0.74770 0.31400
O 	O 	0.91570 0.56680 0.84650 -0.34500
O 	O 	0.06880 0.32820 0.78670 -0.51000
H 	H 	0.04040 0.34740 0.74970 0.31400
O 	O 	0.09730 0.42780 0.83190 -0.34900
O 	O 	0.14660 0.50020 0.15380 -0.32700
O 	O 	0.20500 0.40709 0.17030 -0.39100
O 	O 	0.36590 0.44680 0.93590 -0.21400
O 	O 	0.31800 0.39222 0.05540 -0.32700
O 	O 	0.27877 0.26909 0.00200 -0.51700
O 	O 	0.42340 0.27291 0.05780 -0.33800
O 	O 	0.49550 0.29990 0.94000 -0.24000
O 	O 	0.41070 0.17220 0.17080 -0.39200
O 	O 	0.50230 0.10340 0.15670 -0.34400
O 	O 	0.30110 0.05930 0.79610 -0.50300
H 	H 	0.31940 0.03620 0.75360 0.32000
O 	O 	0.41710 0.07890 0.82930 -0.34200
N 	N 	0.18810 0.37910 0.97750 -0.06700
N 	N 	0.37820 0.16410 0.97760 -0.06400
N 	N 	0.61830 0.83470 0.97780 -0.06100
N 	N 	0.80680 0.61280 0.97450 -0.06000
C 	C 	0.65480 0.91200 0.84870 0.46100
C 	C 	0.67920 0.86580 0.92520 -0.32100
H 	H 	0.71000 0.88960 0.97060 0.11700
H 	H 	0.70940 0.83160 0.89620 0.13200
C 	C 	0.57320 0.88330 0.02560 -0.34100
H 	H 	0.60250 0.92290 0.03490 0.14000
H 	H 	0.53220 0.89470 0.98350 0.15000
C 	C 	0.54320 0.86300 0.11880 0.39800
C 	C 	0.57710 0.79350 0.91160 -0.32300
H 	H 	0.54120 0.82040 0.87760 0.16500
H 	H 	0.61070 0.77510 0.86430 0.15500
C 	C 	0.53840 0.73960 0.96150 0.39200
C 	C 	0.90190 0.62440 0.84840 0.46400
C 	C 	0.85660 0.65620 0.92370 -0.32400
H 	H 	0.82770 0.69100 0.89410 0.13700
H 	H 	0.88950 0.67660 0.97010 0.11700
C 	C 	0.81290 0.53990 0.11740 0.40200
C 	C 	0.84670 0.56120 0.02550 -0.33800
H 	H 	0.85060 0.52310 0.98350 0.15000
H 	H 	0.89650 0.57660 0.03840 0.14000
C 	C 	0.67910 0.57820 0.94490 0.39500
C 	C 	0.75400 0.58570 0.90620 -0.31800
H 	H 	0.75200 0.61420 0.85020 0.15500
H 	H 	0.77160 0.54290 0.88500 0.16300
C 	C 	0.10050 0.37040 0.84170 0.44600
C 	C 	0.14060 0.33620 0.92210 -0.30700
H 	H 	0.17020 0.30090 0.89510 0.12300
H 	H 	0.10450 0.31640 0.96490 0.10600
C 	C 	0.16860 0.44800 0.12300 0.39900
C 	C 	0.14580 0.43140 0.02320 -0.32100
H 	H 	0.14970 0.47070 0.98390 0.14400
H 	H 	0.09410 0.41850 0.02420 0.13400
C 	C 	0.31550 0.41700 0.97230 0.37000
C 	C 	0.24710 0.40280 0.91750 -0.29500
H 	H 	0.25790 0.37010 0.86850 0.13800
H 	H 	0.23110 0.44270 0.88510 0.15200
C 	C 	0.35330 0.08740 0.84510 0.44200
C 	C 	0.32250 0.12960 0.92260 -0.31100
H 	H 	0.29370 0.10230 0.96600 0.11300
H 	H 	0.28930 0.16170 0.89400 0.12100
C 	C 	0.44930 0.13270 0.12370 0.39900
C 	C 	0.43050 0.11880 0.02310 -0.32300
H 	H 	0.41000 0.07460 0.01960 0.13800
H 	H 	0.47580 0.11890 0.98570 0.13700
C 	C 	0.44910 0.26550 0.97440 0.38300
C 	C 	0.41480 0.21230 0.91720 -0.31400
H 	H 	0.45260 0.19050 0.87920 0.16100
H 	H 	0.37900 0.23130 0.87310 0.14400
Mo	Mo	0.33858 0.23027 0.59552 1.06500
Mo	Mo	0.25411 0.33360 0.59257 1.06400
Mo	Mo	0.76377 0.67917 0.59983 1.06600
Mo	Mo	0.67506 0.78003 0.59992 1.06600
S 	S 	0.33343 0.30780 0.71406 -0.35100
S 	S 	0.69062 0.70944 0.72625 -0.35300
Na	Na	0.50331 0.00115 0.75850 0.59700
O 	O 	0.28950 0.06750 0.29990 -0.50700
H 	H 	0.30310 0.03860 0.26220 0.32000
O 	O 	0.40700 0.07210 0.33360 -0.34400
O 	O 	0.50960 0.10570 0.65080 -0.34000
O 	O 	0.42570 0.18150 0.66430 -0.39700
O 	O 	0.51250 0.28750 0.42230 -0.24100
O 	O 	0.43630 0.27640 0.54190 -0.34800
O 	O 	0.28790 0.27497 0.49710 -0.51500
O 	O 	0.33230 0.39990 0.52640 -0.34200
O 	O 	0.36580 0.44980 0.39450 -0.21900
O 	O 	0.23230 0.42450 0.65800 -0.39200
O 	O 	0.16710 0.51330 0.64750 -0.31900
O 	O 	0.07420 0.33390 0.28780 -0.52100
H 	H 	0.04820 0.35270 0.24770 0.31400
O 	O 	0.08430 0.43320 0.34650 -0.34500
O 	O 	0.93120 0.67180 0.28670 -0.51000
H 	H 	0.95960 0.65260 0.24970 0.31400
O 	O 	0.90270 0.57220 0.33190 -0.34900
O 	O 	0.85340 0.49980 0.65380 -0.32800
O 	O 	0.79500 0.59291 0.67030 -0.39200
O 	O 	0.63410 0.55320 0.43590 -0.21400
O 	O 	0.68200 0.60778 0.55540 -0.33000
O 	O 	0.72123 0.73091 0.50200 -0.52000
O 	O 	0.57660 0.72709 0.55780 -0.34100
O 	O 	0.50450 0.70010 0.44000 -0.24100
O 	O 	0.58930 0.82780 0.67080 -0.39300
O 	O 	0.49770 0.89660 0.65670 -0.34500
O 	O 	0.69890 0.94070 0.29610 -0.50300
H 	H 	0.68060 0.96380 0.25360 0.32000
O 	O 	0.58290 0.92110 0.32930 -0.34200
N 	N 	0.81190 0.62090 0.47750 -0.06300
N 	N 	0.62180 0.83590 0.47760 -0.06100
N 	N 	0.38170 0.16530 0.47780 -0.06000
N 	N 	0.19320 0.38720 0.47450 -0.05900
C 	C 	0.34520 0.08800 0.34870 0.46100
C 	C 	0.32080 0.13420 0.42520 -0.32100
H 	H 	0.29000 0.11040 0.47060 0.11700
H 	H 	0.29060 0.16840 0.39620 0.13300
C 	C 	0.42680 0.11670 0.52560 -0.34300
H 	H 	0.39750 0.07710 0.53490 0.14100
H 	H 	0.46780 0.10530 0.48350 0.15100
C 	C 	0.45680 0.13700 0.61880 0.39800
C 	C 	0.42290 0.20650 0.41160 -0.32300
H 	H 	0.45880 0.17960 0.37760 0.16500
H 	H 	0.38930 0.22490 0.36430 0.15600
C 	C 	0.46160 0.26040 0.46150 0.39300
C 	C 	0.09810 0.37560 0.34840 0.46400
C 	C 	0.14340 0.34380 0.42370 -0.32400
H 	H 	0.17230 0.30900 0.39410 0.13700
H 	H 	0.11050 0.32340 0.47010 0.11700
C 	C 	0.18710 0.46010 0.61740 0.40200
C 	C 	0.15330 0.43880 0.52550 -0.34100
H 	H 	0.14940 0.47690 0.48350 0.15100
H 	H 	0.10350 0.42340 0.53840 0.14000
C 	C 	0.32090 0.42180 0.44490 0.39700
C 	C 	0.24600 0.41430 0.40620 -0.31800
H 	H 	0.24800 0.38580 0.35020 0.15500
H 	H 	0.22840 0.45710 0.38500 0.16300
C 	C 	0.89950 0.62960 0.34170 0.44700
C 	C 	0.85940 0.66380 0.42210 -0.30700
H 	H 	0.82980 0.69910 0.39510 0.12400
H 	H 	0.89550 0.68360 0.46490 0.10800
C 	C 	0.83140 0.55200 0.62300 0.40100
C 	C 	0.85420 0.56860 0.52320 -0.33100
H 	H 	0.85030 0.52930 0.48390 0.14900
H 	H 	0.90590 0.58150 0.52420 0.13500
C 	C 	0.68450 0.58300 0.47230 0.37500
C 	C 	0.75290 0.59720 0.41750 -0.29700
H 	H 	0.74210 0.62990 0.36850 0.13900
H 	H 	0.76890 0.55730 0.38510 0.15200
C 	C 	0.64670 0.91260 0.34510 0.44300
C 	C 	0.67750 0.87040 0.42260 -0.31200
H 	H 	0.70630 0.89770 0.46600 0.11500
H 	H 	0.71070 0.83830 0.39400 0.12200
C 	C 	0.55070 0.86730 0.62370 0.40200
C 	C 	0.56950 0.88120 0.52310 -0.33500
H 	H 	0.59000 0.92540 0.51960 0.14000
H 	H 	0.52420 0.88110 0.48570 0.14300
C 	C 	0.55090 0.73450 0.47440 0.38800
C 	C 	0.58520 0.78770 0.41720 -0.31600
H 	H 	0.54740 0.80950 0.37920 0.16200
H 	H 	0.62100 0.76870 0.37310 0.14500
