data_crystal

_cell_length_a 22.91500
_cell_length_b 14.28020
_cell_length_c 5.64510
_cell_angle_alpha 90.00000
_cell_angle_beta  102.80100
_cell_angle_gamma 90.00000

_symmetry_space_group_name_	'P 1'
_symmetry_space_group_name_H-M	'P 1'

loop_
_symmetry_equiv_pos_as_xyz
  x,y,z

loop_
_atom_site_label
_atom_site_type_symbol
_atom_site_fract_x
_atom_site_fract_y
_atom_site_fract_z
_atom_site_charge
P 	P 	0.58433 0.13220 0.27360 0.37000
O 	O 	0.55140 0.03810 0.15960 -0.58300
O 	O 	0.56710 0.19980 0.03280 -0.39400
O 	O 	0.56130 0.16190 0.50270 -0.44300
C 	C 	0.66640 0.10300 0.36050 -0.01600
C 	C 	0.76460 0.15288 0.46820 0.04100
C 	C 	0.77830 0.09190 0.70300 -0.00000
C 	C 	0.69544 0.27800 0.33650 0.04600
C 	C 	0.64730 0.35500 0.33700 0.01300
N 	N 	0.70145 0.18580 0.47990 -0.10100
P 	P 	0.08433 0.63220 0.27360 0.36300
O 	O 	0.05140 0.53810 0.15960 -0.62400
O 	O 	0.06710 0.69980 0.03280 -0.43200
O 	O 	0.06130 0.66190 0.50270 -0.48600
C 	C 	0.16640 0.60300 0.36050 -0.01400
C 	C 	0.26460 0.65288 0.46820 0.03800
C 	C 	0.27830 0.59190 0.70300 -0.00400
C 	C 	0.19544 0.77800 0.33650 0.04800
C 	C 	0.14730 0.85500 0.33700 -0.01400
N 	N 	0.20145 0.68580 0.47990 -0.10200
P 	P 	0.41567 0.13220 0.22640 0.37400
O 	O 	0.44860 0.03810 0.34040 -0.58600
O 	O 	0.43290 0.19980 0.46720 -0.40100
O 	O 	0.43870 0.16190 0.99730 -0.45000
C 	C 	0.33360 0.10300 0.13950 -0.01600
C 	C 	0.23540 0.15288 0.03180 0.04900
C 	C 	0.22170 0.09190 0.79700 -0.01400
C 	C 	0.30456 0.27800 0.16350 0.04800
C 	C 	0.35270 0.35500 0.16300 0.01500
N 	N 	0.29855 0.18580 0.02010 -0.09800
P 	P 	0.91567 0.63220 0.22640 0.38000
O 	O 	0.94860 0.53810 0.34040 -0.51100
O 	O 	0.93290 0.69980 0.46720 -0.34300
O 	O 	0.93870 0.66190 0.99730 -0.38900
C 	C 	0.83360 0.60300 0.13950 -0.01500
C 	C 	0.73540 0.65288 0.03180 0.04600
C 	C 	0.72170 0.59190 0.79700 -0.00800
C 	C 	0.80456 0.77800 0.16350 0.04400
C 	C 	0.85270 0.85500 0.16300 0.04500
N 	N 	0.79855 0.68580 0.02010 -0.09700
P 	P 	0.41567 0.86780 0.72640 0.36900
O 	O 	0.44860 0.96190 0.84040 -0.58900
O 	O 	0.43290 0.80020 0.96720 -0.40200
O 	O 	0.43870 0.83810 0.49730 -0.44100
C 	C 	0.33360 0.89700 0.63950 -0.01900
C 	C 	0.23540 0.84712 0.53180 0.03300
C 	C 	0.22170 0.90810 0.29700 -0.00200
C 	C 	0.30456 0.72200 0.66350 0.04200
C 	C 	0.35270 0.64500 0.66300 0.01200
N 	N 	0.29855 0.81420 0.52010 -0.09900
P 	P 	0.91567 0.36780 0.72640 0.37200
O 	O 	0.94860 0.46190 0.84040 -0.51700
O 	O 	0.93290 0.30020 0.96720 -0.34800
O 	O 	0.93870 0.33810 0.49730 -0.37600
C 	C 	0.83360 0.39700 0.63950 -0.01900
C 	C 	0.73540 0.34712 0.53180 0.03400
C 	C 	0.72170 0.40810 0.29700 0.00300
C 	C 	0.80456 0.22200 0.66350 0.03800
C 	C 	0.85270 0.14500 0.66300 0.04100
N 	N 	0.79855 0.31420 0.52010 -0.09700
P 	P 	0.58433 0.86780 0.77360 0.36500
O 	O 	0.55140 0.96190 0.65960 -0.58800
O 	O 	0.56710 0.80020 0.53280 -0.39800
O 	O 	0.56130 0.83810 0.00270 -0.43700
C 	C 	0.66640 0.89700 0.86050 -0.01900
C 	C 	0.76460 0.84712 0.96820 0.02700
C 	C 	0.77830 0.90810 0.20300 0.01000
C 	C 	0.69544 0.72200 0.83650 0.04000
C 	C 	0.64730 0.64500 0.83700 0.01000
N 	N 	0.70145 0.81420 0.97990 -0.10100
P 	P 	0.08433 0.36780 0.77360 0.35500
O 	O 	0.05140 0.46190 0.65960 -0.63100
O 	O 	0.06710 0.30020 0.53280 -0.43700
O 	O 	0.06130 0.33810 0.00270 -0.47300
C 	C 	0.16640 0.39700 0.86050 -0.01900
C 	C 	0.26460 0.34712 0.96820 0.02400
C 	C 	0.27830 0.40810 0.20300 0.00800
C 	C 	0.19544 0.22200 0.83650 0.04100
C 	C 	0.14730 0.14500 0.83700 -0.01900
N 	N 	0.20145 0.31420 0.97990 -0.10200
Ce	Ce	0.50000 0.10305 0.75000 2.16700
Ce	Ce	0.00000 0.60305 0.75000 2.09400
Ce	Ce	0.50000 0.89695 0.25000 2.17000
Ce	Ce	-0.00000 0.39695 0.25000 2.09900
