data_crystal

_cell_length_a 5.75400
_cell_length_b 14.12590
_cell_length_c 21.15600
_cell_angle_alpha 90.00000
_cell_angle_beta  90.14000
_cell_angle_gamma 90.00000

_symmetry_space_group_name_	'P 1'
_symmetry_space_group_name_H-M	'P 1'

loop_
_symmetry_equiv_pos_as_xyz
  x,y,z

loop_
_atom_site_label
_atom_site_type_symbol
_atom_site_fract_x
_atom_site_fract_y
_atom_site_fract_z
_atom_site_charge
Nd	Nd	0.74999 0.89020 0.98319 2.25200
Nd	Nd	0.25001 0.39020 0.51681 2.28500
Nd	Nd	0.25001 0.10980 0.01681 2.25300
Nd	Nd	0.74999 0.60980 0.48319 2.28600
P 	P 	0.75010 0.15660 0.94580 0.53200
P 	P 	0.75040 0.44850 0.61250 0.56900
P 	P 	0.24990 0.65660 0.55420 0.53300
P 	P 	0.24960 0.94850 0.88750 0.56200
P 	P 	0.24990 0.84340 0.05420 0.53200
P 	P 	0.24960 0.55150 0.38750 0.56900
P 	P 	0.75010 0.34340 0.44580 0.53300
P 	P 	0.75040 0.05150 0.11250 0.56200
H 	H 	0.92310 0.20340 0.74140 0.04700
H 	H 	0.67750 0.15070 0.74390 0.03800
H 	H 	0.48030 0.29190 0.72480 0.04500
H 	H 	0.67480 0.27980 0.67140 0.04800
H 	H 	0.85350 0.45640 0.81270 0.03600
H 	H 	0.59680 0.41390 0.81880 0.04600
H 	H 	0.82410 0.32770 0.88680 0.06200
H 	H 	0.02240 0.31360 0.83490 0.05100
H 	H 	0.61760 0.10920 0.85090 0.08300
H 	H 	0.89320 0.11130 0.85170 0.08300
H 	H 	0.61350 0.49580 0.70960 0.08200
H 	H 	0.88940 0.49570 0.70960 0.08200
H 	H 	0.07690 0.70340 0.75860 0.04600
H 	H 	0.32250 0.65070 0.75610 0.03700
H 	H 	0.51970 0.79190 0.77520 0.04500
H 	H 	0.32520 0.77980 0.82860 0.04800
H 	H 	0.14650 0.95640 0.68730 0.03700
H 	H 	0.40320 0.91390 0.68120 0.04600
H 	H 	0.17590 0.82770 0.61320 0.06100
H 	H 	0.97760 0.81360 0.66510 0.04700
H 	H 	0.38240 0.60920 0.64910 0.08100
H 	H 	0.10680 0.61130 0.64830 0.08000
H 	H 	0.38650 0.99580 0.79040 0.08000
H 	H 	0.11060 0.99570 0.79040 0.08100
H 	H 	0.07690 0.79660 0.25860 0.04700
H 	H 	0.32250 0.84930 0.25610 0.03800
H 	H 	0.51970 0.70810 0.27520 0.04500
H 	H 	0.32520 0.72020 0.32860 0.04800
H 	H 	0.14650 0.54360 0.18730 0.03600
H 	H 	0.40320 0.58610 0.18120 0.04600
H 	H 	0.17590 0.67230 0.11320 0.06200
H 	H 	0.97760 0.68640 0.16510 0.05100
H 	H 	0.38240 0.89080 0.14910 0.08300
H 	H 	0.10680 0.88870 0.14830 0.08300
H 	H 	0.38650 0.50420 0.29040 0.08200
H 	H 	0.11060 0.50430 0.29040 0.08200
H 	H 	0.92310 0.29660 0.24140 0.04600
H 	H 	0.67750 0.34930 0.24390 0.03700
H 	H 	0.48030 0.20810 0.22480 0.04500
H 	H 	0.67480 0.22020 0.17140 0.04800
H 	H 	0.85350 0.04360 0.31270 0.03700
H 	H 	0.59680 0.08610 0.31880 0.04600
H 	H 	0.82410 0.17230 0.38680 0.06100
H 	H 	0.02240 0.18640 0.33490 0.04700
H 	H 	0.61760 0.39080 0.35090 0.08100
H 	H 	0.89320 0.38870 0.35170 0.08000
H 	H 	0.61350 0.00420 0.20960 0.08000
H 	H 	0.88940 0.00430 0.20960 0.08100
C 	C 	0.75900 0.21000 0.75450 -0.06600
C 	C 	0.65000 0.29070 0.71710 -0.05300
C 	C 	0.75600 0.40000 0.80410 -0.06100
C 	C 	0.85200 0.31650 0.84120 -0.05900
C 	C 	0.75300 0.14850 0.86280 -0.20800
C 	C 	0.75100 0.45770 0.69790 -0.20200
C 	C 	0.24100 0.71000 0.74550 -0.06500
C 	C 	0.35000 0.79070 0.78290 -0.05400
C 	C 	0.24400 0.90000 0.69590 -0.06300
C 	C 	0.14800 0.81650 0.65880 -0.05400
C 	C 	0.24700 0.64850 0.63720 -0.20700
C 	C 	0.24900 0.95770 0.80210 -0.20000
C 	C 	0.24100 0.79000 0.24550 -0.06600
C 	C 	0.35000 0.70930 0.28290 -0.05300
C 	C 	0.24400 0.60000 0.19590 -0.06100
C 	C 	0.14800 0.68350 0.15880 -0.05900
C 	C 	0.24700 0.85150 0.13720 -0.20800
C 	C 	0.24900 0.54230 0.30210 -0.20200
C 	C 	0.75900 0.29000 0.25450 -0.06500
C 	C 	0.65000 0.20930 0.21710 -0.05400
C 	C 	0.75600 0.10000 0.30410 -0.06300
C 	C 	0.85200 0.18350 0.34120 -0.05400
C 	C 	0.75300 0.35150 0.36280 -0.20700
C 	C 	0.75100 0.04230 0.19790 -0.20000
N 	N 	0.75100 0.22410 0.82380 -0.06300
N 	N 	0.75200 0.38220 0.73520 -0.06400
N 	N 	0.24900 0.72410 0.67620 -0.06400
N 	N 	0.24800 0.88220 0.76480 -0.06400
N 	N 	0.24900 0.77590 0.17620 -0.06300
N 	N 	0.24800 0.61780 0.26480 -0.06400
N 	N 	0.75100 0.27590 0.32380 -0.06400
N 	N 	0.75200 0.11780 0.23520 -0.06400
O 	O 	0.75100 0.05710 0.97050 -0.63600
O 	O 	0.53100 0.20750 0.96560 -0.49900
O 	O 	0.96700 0.20910 0.96520 -0.49400
O 	O 	0.53000 0.39490 0.59720 -0.55400
O 	O 	0.74900 0.54730 0.58770 -0.55200
O 	O 	0.96900 0.39450 0.59700 -0.55000
O 	O 	0.24900 0.55710 0.52950 -0.64700
O 	O 	0.46900 0.70750 0.53440 -0.50600
O 	O 	0.03300 0.70910 0.53480 -0.50000
O 	O 	0.47000 0.89490 0.90280 -0.55200
O 	O 	0.25100 0.04730 0.91230 -0.54300
O 	O 	0.03100 0.89450 0.90300 -0.54600
O 	O 	0.24900 0.94290 0.02950 -0.63600
O 	O 	0.46900 0.79250 0.03440 -0.49900
O 	O 	0.03300 0.79090 0.03480 -0.49400
O 	O 	0.47000 0.60510 0.40280 -0.55400
O 	O 	0.25100 0.45270 0.41230 -0.55200
O 	O 	0.03100 0.60550 0.40300 -0.55000
O 	O 	0.75100 0.44290 0.47050 -0.64700
O 	O 	0.53100 0.29250 0.46560 -0.50600
O 	O 	0.96700 0.29090 0.46520 -0.50000
O 	O 	0.53000 0.10510 0.09720 -0.55200
O 	O 	0.74900 0.95270 0.08770 -0.54300
O 	O 	0.96900 0.10550 0.09700 -0.54600
