data_crystal

_cell_length_a 5.76300
_cell_length_b 10.21300
_cell_length_c 11.64900
_cell_angle_alpha 84.24200
_cell_angle_beta  89.05100
_cell_angle_gamma 82.87600

_symmetry_space_group_name_	'P 1'
_symmetry_space_group_name_H-M	'P 1'

loop_
_symmetry_equiv_pos_as_xyz
  x,y,z

loop_
_atom_site_label
_atom_site_type_symbol
_atom_site_fract_x
_atom_site_fract_y
_atom_site_fract_z
_atom_site_charge
La	La	0.21771 0.14523 0.47195 1.63100
La	La	0.78229 0.85477 0.52805 1.63100
P 	P 	0.72080 0.17009 0.66127 0.43100
P 	P 	0.67020 0.16013 0.30946 0.42900
P 	P 	0.27920 0.82991 0.33873 0.43100
P 	P 	0.32980 0.83987 0.69054 0.42900
H 	H 	0.51150 0.98280 0.15970 0.13500
H 	H 	0.02330 0.27220 0.72760 0.08800
H 	H 	0.79440 0.37220 0.71810 0.10900
H 	H 	0.67920 0.39000 0.47900 0.04300
H 	H 	0.69490 0.51030 0.55110 0.03600
H 	H 	0.04670 0.53050 0.65330 0.05700
H 	H 	0.26710 0.42440 0.64640 0.05900
H 	H 	0.90520 0.03230 0.19020 0.10400
H 	H 	0.81450 0.16850 0.12310 0.10500
H 	H 	0.82560 0.98430 0.97940 0.05500
H 	H 	0.82820 0.86890 0.07920 0.04300
H 	H 	0.35140 0.19010 0.08550 0.05400
H 	H 	0.53270 0.18340 0.98350 0.06300
H 	H 	0.48850 0.01720 0.84030 0.13500
H 	H 	0.97670 0.72780 0.27240 0.08800
H 	H 	0.20560 0.62780 0.28190 0.10900
H 	H 	0.32080 0.61000 0.52100 0.04300
H 	H 	0.30510 0.48970 0.44890 0.03600
H 	H 	0.95330 0.46950 0.34670 0.05700
H 	H 	0.73290 0.57560 0.35360 0.05900
H 	H 	0.09480 0.96770 0.80980 0.10400
H 	H 	0.18550 0.83150 0.87690 0.10500
H 	H 	0.17440 0.01570 0.02060 0.05500
H 	H 	0.17180 0.13110 0.92080 0.04300
H 	H 	0.64860 0.80990 0.91450 0.05400
H 	H 	0.46730 0.81660 0.01650 0.06300
C 	C 	0.89080 0.30610 0.67830 -0.24500
C 	C 	0.78320 0.45020 0.50240 -0.05800
C 	C 	0.13340 0.47080 0.60370 -0.09800
C 	C 	0.76680 0.09550 0.17410 -0.22500
C 	C 	0.72750 0.93610 0.03250 -0.05700
C 	C 	0.44030 0.13100 0.03620 -0.06300
C 	C 	0.10920 0.69390 0.32170 -0.24500
C 	C 	0.21680 0.54980 0.49760 -0.05800
C 	C 	0.86660 0.52920 0.39630 -0.09800
C 	C 	0.23320 0.90450 0.82590 -0.22500
C 	C 	0.27250 0.06390 0.96750 -0.05700
C 	C 	0.55970 0.86900 0.96380 -0.06300
N 	N 	0.97970 0.37250 0.57000 -0.12500
N 	N 	0.59930 0.02900 0.10850 -0.13000
N 	N 	0.02030 0.62750 0.43000 -0.12500
N 	N 	0.40070 0.97100 0.89150 -0.13000
O 	O 	0.49590 0.22250 0.59710 -0.41200
O 	O 	0.88370 0.07290 0.59330 -0.48900
O 	O 	0.68600 0.10970 0.78510 -0.28300
O 	O 	0.88710 0.21860 0.34240 -0.40800
O 	O 	0.44470 0.25780 0.29840 -0.35900
O 	O 	0.60740 0.04180 0.39170 -0.49000
O 	O 	0.50410 0.77750 0.40290 -0.41200
O 	O 	0.11630 0.92710 0.40670 -0.48900
O 	O 	0.31400 0.89030 0.21490 -0.28300
O 	O 	0.11290 0.78140 0.65760 -0.40800
O 	O 	0.55530 0.74220 0.70160 -0.35900
O 	O 	0.39260 0.95820 0.60830 -0.49000
