data_crystal

_cell_length_a 20.81970
_cell_length_b 20.81970
_cell_length_c 11.55810
_cell_angle_alpha 90.00000
_cell_angle_beta  90.00000
_cell_angle_gamma 120.00000

_symmetry_space_group_name_	'P 1'
_symmetry_space_group_name_H-M	'P 1'

loop_
_symmetry_equiv_pos_as_xyz
  x,y,z

loop_
_atom_site_label
_atom_site_type_symbol
_atom_site_fract_x
_atom_site_fract_y
_atom_site_fract_z
_atom_site_charge
C 	C 	0.18890 0.96460 0.10810 -0.20700
H 	H 	0.22580 0.01010 0.14500 0.07100
H 	H 	0.14150 0.96270 0.11300 0.07900
C 	C 	0.25370 0.91680 0.22790 -0.20800
H 	H 	0.24230 0.89180 0.30210 0.07500
H 	H 	0.28340 0.96970 0.24220 0.08400
C 	C 	0.20910 0.96605 0.98300 0.13000
C 	C 	0.29769 0.89246 0.15730 0.13700
Cd	Cd	0.46263 0.98378 0.30224 1.18700
N 	N 	0.18426 0.90099 0.17060 -0.18900
H 	H 	0.14840 0.88670 0.22570 0.08500
N 	N 	0.25481 0.02608 0.92420 -0.22000
N 	N 	0.25285 0.00393 0.81430 -0.09300
N 	N 	0.20840 0.93254 0.81020 -0.17400
N 	N 	0.17908 0.90622 0.91600 -0.20800
N 	N 	0.26981 0.84697 0.06700 -0.21500
N 	N 	0.32421 0.83470 0.02990 -0.05900
N 	N 	0.38271 0.87177 0.09490 -0.06800
N 	N 	0.36736 0.90907 0.17690 -0.21600
C 	C 	0.85557 0.29793 0.44143 -0.19600
H 	H 	0.89247 0.34343 0.47833 0.06800
H 	H 	0.80817 0.29603 0.44633 0.07800
C 	C 	0.92037 0.25013 0.56123 -0.20600
H 	H 	0.90897 0.22513 0.63543 0.07500
H 	H 	0.95007 0.30303 0.57553 0.08600
C 	C 	0.87577 0.29938 0.31633 0.12300
C 	C 	0.96436 0.22579 0.49063 0.13800
Cd	Cd	0.12929 0.31712 0.63557 1.18800
N 	N 	0.85093 0.23432 0.50393 -0.18900
H 	H 	0.81507 0.22003 0.55903 0.08500
N 	N 	0.92148 0.35941 0.25753 -0.21800
N 	N 	0.91952 0.33726 0.14763 -0.09200
N 	N 	0.87507 0.26587 0.14353 -0.17400
N 	N 	0.84575 0.23955 0.24933 -0.20800
N 	N 	0.93648 0.18030 0.40033 -0.21400
N 	N 	0.99088 0.16803 0.36323 -0.05900
N 	N 	0.04938 0.20510 0.42823 -0.06800
N 	N 	0.03403 0.24240 0.51023 -0.21600
C 	C 	0.52223 0.63127 0.77477 -0.19600
H 	H 	0.55913 0.67677 0.81167 0.06800
H 	H 	0.47483 0.62937 0.77967 0.07800
C 	C 	0.58703 0.58347 0.89457 -0.20600
H 	H 	0.57563 0.55847 0.96877 0.07600
H 	H 	0.61673 0.63637 0.90887 0.08600
C 	C 	0.54243 0.63272 0.64967 0.12300
C 	C 	0.63102 0.55913 0.82397 0.13800
Cd	Cd	0.79596 0.65045 0.96891 1.18800
N 	N 	0.51759 0.56766 0.83727 -0.18900
H 	H 	0.48173 0.55337 0.89237 0.08500
N 	N 	0.58814 0.69275 0.59087 -0.21800
N 	N 	0.58618 0.67060 0.48097 -0.09200
N 	N 	0.54173 0.59921 0.47687 -0.17400
N 	N 	0.51241 0.57289 0.58267 -0.20800
N 	N 	0.60314 0.51364 0.73367 -0.21500
N 	N 	0.65754 0.50137 0.69657 -0.05900
N 	N 	0.71604 0.53844 0.76157 -0.06800
N 	N 	0.70069 0.57574 0.84357 -0.21600
C 	C 	0.03540 0.22430 0.10810 -0.20300
H 	H 	0.98990 0.21570 0.14500 0.07100
H 	H 	0.03730 0.17880 0.11300 0.08000
C 	C 	0.08320 0.33690 0.22790 -0.20700
H 	H 	0.10820 0.35050 0.30210 0.07600
H 	H 	0.03030 0.31370 0.24220 0.08600
C 	C 	0.03395 0.24305 0.98300 0.12700
C 	C 	0.10754 0.40523 0.15730 0.13800
Cd	Cd	0.01622 0.47884 0.30224 1.18800
N 	N 	0.09901 0.28327 0.17060 -0.18800
H 	H 	0.11330 0.26170 0.22570 0.08500
N 	N 	0.97392 0.22873 0.92420 -0.22000
N 	N 	0.99607 0.24892 0.81430 -0.09300
N 	N 	0.06746 0.27586 0.81020 -0.17400
N 	N 	0.09378 0.27286 0.91600 -0.20900
N 	N 	0.15303 0.42284 0.06700 -0.21500
N 	N 	0.16530 0.48951 0.02990 -0.05900
N 	N 	0.12823 0.51094 0.09490 -0.06800
N 	N 	0.09093 0.45829 0.17690 -0.21600
C 	C 	0.70207 0.55763 0.44143 -0.19600
H 	H 	0.65657 0.54903 0.47833 0.06800
H 	H 	0.70397 0.51213 0.44633 0.07800
C 	C 	0.74987 0.67023 0.56123 -0.20600
H 	H 	0.77487 0.68383 0.63543 0.07600
H 	H 	0.69697 0.64703 0.57553 0.08600
C 	C 	0.70062 0.57638 0.31633 0.12300
C 	C 	0.77421 0.73856 0.49063 0.13800
Cd	Cd	0.68288 0.81218 0.63557 1.18800
N 	N 	0.76568 0.61660 0.50393 -0.18900
H 	H 	0.77997 0.59503 0.55903 0.08500
N 	N 	0.64059 0.56206 0.25753 -0.21800
N 	N 	0.66274 0.58225 0.14763 -0.09200
N 	N 	0.73413 0.60919 0.14353 -0.17400
N 	N 	0.76045 0.60619 0.24933 -0.20800
N 	N 	0.81970 0.75617 0.40033 -0.21500
N 	N 	0.83197 0.82284 0.36323 -0.05900
N 	N 	0.79490 0.84427 0.42823 -0.06800
N 	N 	0.75760 0.79162 0.51023 -0.21600
C 	C 	0.36873 0.89097 0.77477 -0.19700
H 	H 	0.32323 0.88237 0.81167 0.06900
H 	H 	0.37063 0.84547 0.77967 0.07800
C 	C 	0.41653 0.00357 0.89457 -0.21300
H 	H 	0.44153 0.01717 0.96877 0.07700
H 	H 	0.36363 0.98037 0.90887 0.09000
C 	C 	0.36728 0.90972 0.64967 0.12400
C 	C 	0.44087 0.07190 0.82397 0.13900
Cd	Cd	0.34955 0.14551 0.96891 1.18800
N 	N 	0.43234 0.94994 0.83727 -0.18800
H 	H 	0.44663 0.92837 0.89237 0.08600
N 	N 	0.30725 0.89540 0.59087 -0.21800
N 	N 	0.32940 0.91559 0.48097 -0.09200
N 	N 	0.40079 0.94253 0.47687 -0.17500
N 	N 	0.42711 0.93953 0.58267 -0.20800
N 	N 	0.48636 0.08951 0.73367 -0.21500
N 	N 	0.49863 0.15618 0.69657 -0.05900
N 	N 	0.46156 0.17761 0.76157 -0.06800
N 	N 	0.42426 0.12496 0.84357 -0.21700
C 	C 	0.77570 0.81110 0.10810 -0.19600
H 	H 	0.78430 0.77420 0.14500 0.06800
H 	H 	0.82120 0.85850 0.11300 0.07800
C 	C 	0.66310 0.74630 0.22790 -0.20600
H 	H 	0.64950 0.75770 0.30210 0.07600
H 	H 	0.68630 0.71660 0.24220 0.08600
C 	C 	0.75695 0.79090 0.98300 0.12400
C 	C 	0.59477 0.70231 0.15730 0.13800
Cd	Cd	0.52116 0.53737 0.30224 1.18800
N 	N 	0.71673 0.81574 0.17060 -0.18900
H 	H 	0.73830 0.85160 0.22570 0.08500
N 	N 	0.77127 0.74519 0.92420 -0.21800
N 	N 	0.75108 0.74715 0.81430 -0.09200
N 	N 	0.72414 0.79160 0.81020 -0.17400
N 	N 	0.72714 0.82092 0.91600 -0.20800
N 	N 	0.57716 0.73019 0.06700 -0.21500
N 	N 	0.51049 0.67579 0.02990 -0.05900
N 	N 	0.48906 0.61729 0.09490 -0.06800
N 	N 	0.54171 0.63264 0.17690 -0.21600
C 	C 	0.44237 0.14443 0.44143 -0.19600
H 	H 	0.45097 0.10753 0.47833 0.06800
H 	H 	0.48787 0.19183 0.44633 0.07800
C 	C 	0.32977 0.07963 0.56123 -0.20600
H 	H 	0.31617 0.09103 0.63543 0.07500
H 	H 	0.35297 0.04993 0.57553 0.08600
C 	C 	0.42362 0.12423 0.31633 0.12300
C 	C 	0.26144 0.03564 0.49063 0.13800
Cd	Cd	0.18782 0.87071 0.63557 1.18800
N 	N 	0.38340 0.14907 0.50393 -0.18900
H 	H 	0.40497 0.18493 0.55903 0.08500
N 	N 	0.43794 0.07852 0.25753 -0.21800
N 	N 	0.41775 0.08048 0.14763 -0.09200
N 	N 	0.39081 0.12493 0.14353 -0.17400
N 	N 	0.39381 0.15425 0.24933 -0.20800
N 	N 	0.24383 0.06352 0.40033 -0.21500
N 	N 	0.17716 0.00912 0.36323 -0.05900
N 	N 	0.15573 0.95062 0.42823 -0.06800
N 	N 	0.20838 0.96597 0.51023 -0.21600
C 	C 	0.10903 0.47777 0.77477 -0.19600
H 	H 	0.11763 0.44087 0.81167 0.06800
H 	H 	0.15453 0.52517 0.77967 0.07800
C 	C 	0.99643 0.41297 0.89457 -0.21300
H 	H 	0.98283 0.42437 0.96877 0.07700
H 	H 	0.01963 0.38327 0.90887 0.08900
C 	C 	0.09028 0.45757 0.64967 0.12400
C 	C 	0.92810 0.36898 0.82397 0.13900
Cd	Cd	0.85449 0.20404 0.96891 1.18700
N 	N 	0.05006 0.48241 0.83727 -0.18800
H 	H 	0.07163 0.51827 0.89237 0.08600
N 	N 	0.10460 0.41186 0.59087 -0.21800
N 	N 	0.08441 0.41382 0.48097 -0.09200
N 	N 	0.05747 0.45827 0.47687 -0.17500
N 	N 	0.06047 0.48759 0.58267 -0.20800
N 	N 	0.91049 0.39686 0.73367 -0.21500
N 	N 	0.84382 0.34246 0.69657 -0.05900
N 	N 	0.82239 0.28396 0.76157 -0.06800
N 	N 	0.87504 0.29931 0.84357 -0.21700
C 	C 	0.81110 0.03540 0.89190 -0.20600
H 	H 	0.77420 0.98990 0.85500 0.07200
H 	H 	0.85850 0.03730 0.88700 0.08000
C 	C 	0.74630 0.08320 0.77210 -0.20700
H 	H 	0.75770 0.10820 0.69790 0.07600
H 	H 	0.71660 0.03030 0.75780 0.08500
C 	C 	0.79090 0.03395 0.01700 0.13100
C 	C 	0.70231 0.10754 0.84270 0.13800
Cd	Cd	0.53737 0.01622 0.69776 1.18800
N 	N 	0.81574 0.09901 0.82940 -0.18800
H 	H 	0.85160 0.11330 0.77430 0.08500
N 	N 	0.74519 0.97392 0.07580 -0.22000
N 	N 	0.74715 0.99607 0.18570 -0.09300
N 	N 	0.79160 0.06746 0.18980 -0.17400
N 	N 	0.82092 0.09378 0.08400 -0.20800
N 	N 	0.73019 0.15303 0.93300 -0.21500
N 	N 	0.67579 0.16530 0.97010 -0.05900
N 	N 	0.61729 0.12823 0.90510 -0.06800
N 	N 	0.63264 0.09093 0.82310 -0.21600
C 	C 	0.47777 0.36873 0.22523 -0.19600
H 	H 	0.44087 0.32323 0.18833 0.06800
H 	H 	0.52517 0.37063 0.22033 0.07800
C 	C 	0.41297 0.41653 0.10543 -0.20600
H 	H 	0.42437 0.44153 0.03123 0.07600
H 	H 	0.38327 0.36363 0.09113 0.08600
C 	C 	0.45757 0.36728 0.35033 0.12300
C 	C 	0.36898 0.44087 0.17603 0.13800
Cd	Cd	0.20404 0.34955 0.03109 1.18800
N 	N 	0.48241 0.43234 0.16273 -0.18900
H 	H 	0.51827 0.44663 0.10763 0.08500
N 	N 	0.41186 0.30725 0.40913 -0.21800
N 	N 	0.41382 0.32940 0.51903 -0.09200
N 	N 	0.45827 0.40079 0.52313 -0.17400
N 	N 	0.48759 0.42711 0.41733 -0.20800
N 	N 	0.39686 0.48636 0.26633 -0.21500
N 	N 	0.34246 0.49863 0.30343 -0.05900
N 	N 	0.28396 0.46156 0.23843 -0.06800
N 	N 	0.29931 0.42426 0.15643 -0.21600
C 	C 	0.14443 0.70207 0.55857 -0.19600
H 	H 	0.10753 0.65657 0.52167 0.06800
H 	H 	0.19183 0.70397 0.55367 0.07800
C 	C 	0.07963 0.74987 0.43877 -0.20600
H 	H 	0.09103 0.77487 0.36457 0.07500
H 	H 	0.04993 0.69697 0.42447 0.08600
C 	C 	0.12423 0.70062 0.68367 0.12300
C 	C 	0.03564 0.77421 0.50937 0.13800
Cd	Cd	0.87071 0.68288 0.36443 1.18800
N 	N 	0.14907 0.76568 0.49607 -0.18900
H 	H 	0.18493 0.77997 0.44097 0.08500
N 	N 	0.07852 0.64059 0.74247 -0.21800
N 	N 	0.08048 0.66274 0.85237 -0.09200
N 	N 	0.12493 0.73413 0.85647 -0.17400
N 	N 	0.15425 0.76045 0.75067 -0.20800
N 	N 	0.06352 0.81970 0.59967 -0.21400
N 	N 	0.00912 0.83197 0.63677 -0.05900
N 	N 	0.95062 0.79490 0.57177 -0.06800
N 	N 	0.96597 0.75760 0.48977 -0.21600
C 	C 	0.96460 0.77570 0.89190 -0.20300
H 	H 	0.01010 0.78430 0.85500 0.07100
H 	H 	0.96270 0.82120 0.88700 0.08000
C 	C 	0.91680 0.66310 0.77210 -0.20700
H 	H 	0.89180 0.64950 0.69790 0.07600
H 	H 	0.96970 0.68630 0.75780 0.08600
C 	C 	0.96605 0.75695 0.01700 0.12700
C 	C 	0.89246 0.59477 0.84270 0.13800
Cd	Cd	0.98378 0.52116 0.69776 1.18800
N 	N 	0.90099 0.71673 0.82940 -0.18800
H 	H 	0.88670 0.73830 0.77430 0.08500
N 	N 	0.02608 0.77127 0.07580 -0.22000
N 	N 	0.00393 0.75108 0.18570 -0.09300
N 	N 	0.93254 0.72414 0.18980 -0.17400
N 	N 	0.90622 0.72714 0.08400 -0.20900
N 	N 	0.84697 0.57716 0.93300 -0.21500
N 	N 	0.83470 0.51049 0.97010 -0.05900
N 	N 	0.87177 0.48906 0.90510 -0.06800
N 	N 	0.90907 0.54171 0.82310 -0.21600
C 	C 	0.63127 0.10903 0.22523 -0.19700
H 	H 	0.67677 0.11763 0.18833 0.06900
H 	H 	0.62937 0.15453 0.22033 0.07800
C 	C 	0.58347 0.99643 0.10543 -0.21300
H 	H 	0.55847 0.98283 0.03123 0.07700
H 	H 	0.63637 0.01963 0.09113 0.09000
C 	C 	0.63272 0.09028 0.35033 0.12400
C 	C 	0.55913 0.92810 0.17603 0.13900
Cd	Cd	0.65045 0.85449 0.03109 1.18800
N 	N 	0.56766 0.05006 0.16273 -0.18800
H 	H 	0.55337 0.07163 0.10763 0.08600
N 	N 	0.69275 0.10460 0.40913 -0.21800
N 	N 	0.67060 0.08441 0.51903 -0.09200
N 	N 	0.59921 0.05747 0.52313 -0.17500
N 	N 	0.57289 0.06047 0.41733 -0.20800
N 	N 	0.51364 0.91049 0.26633 -0.21500
N 	N 	0.50137 0.84382 0.30343 -0.05900
N 	N 	0.53844 0.82239 0.23843 -0.06800
N 	N 	0.57574 0.87504 0.15643 -0.21700
C 	C 	0.29793 0.44237 0.55857 -0.19600
H 	H 	0.34343 0.45097 0.52167 0.06800
H 	H 	0.29603 0.48787 0.55367 0.07800
C 	C 	0.25013 0.32977 0.43877 -0.20600
H 	H 	0.22513 0.31617 0.36457 0.07600
H 	H 	0.30303 0.35297 0.42447 0.08600
C 	C 	0.29938 0.42362 0.68367 0.12300
C 	C 	0.22579 0.26144 0.50937 0.13800
Cd	Cd	0.31712 0.18782 0.36443 1.18800
N 	N 	0.23432 0.38340 0.49607 -0.18900
H 	H 	0.22003 0.40497 0.44097 0.08500
N 	N 	0.35941 0.43794 0.74247 -0.21800
N 	N 	0.33726 0.41775 0.85237 -0.09200
N 	N 	0.26587 0.39081 0.85647 -0.17400
N 	N 	0.23955 0.39381 0.75067 -0.20800
N 	N 	0.18030 0.24383 0.59967 -0.21500
N 	N 	0.16803 0.17716 0.63677 -0.05900
N 	N 	0.20510 0.15573 0.57177 -0.06800
N 	N 	0.24240 0.20838 0.48977 -0.21600
C 	C 	0.22430 0.18890 0.89190 -0.19600
H 	H 	0.21570 0.22580 0.85500 0.06800
H 	H 	0.17880 0.14150 0.88700 0.07800
C 	C 	0.33690 0.25370 0.77210 -0.20600
H 	H 	0.35050 0.24230 0.69790 0.07600
H 	H 	0.31370 0.28340 0.75780 0.08600
C 	C 	0.24305 0.20910 0.01700 0.12400
C 	C 	0.40523 0.29769 0.84270 0.13800
Cd	Cd	0.47884 0.46263 0.69776 1.18800
N 	N 	0.28327 0.18426 0.82940 -0.18900
H 	H 	0.26170 0.14840 0.77430 0.08500
N 	N 	0.22873 0.25481 0.07580 -0.21800
N 	N 	0.24892 0.25285 0.18570 -0.09200
N 	N 	0.27586 0.20840 0.18980 -0.17400
N 	N 	0.27286 0.17908 0.08400 -0.20800
N 	N 	0.42284 0.26981 0.93300 -0.21500
N 	N 	0.48951 0.32421 0.97010 -0.05900
N 	N 	0.51094 0.38271 0.90510 -0.06800
N 	N 	0.45829 0.36736 0.82310 -0.21600
C 	C 	0.89097 0.52223 0.22523 -0.19600
H 	H 	0.88237 0.55913 0.18833 0.06800
H 	H 	0.84547 0.47483 0.22033 0.07800
C 	C 	0.00357 0.58703 0.10543 -0.21300
H 	H 	0.01717 0.57563 0.03123 0.07700
H 	H 	0.98037 0.61673 0.09113 0.08900
C 	C 	0.90972 0.54243 0.35033 0.12400
C 	C 	0.07190 0.63102 0.17603 0.13900
Cd	Cd	0.14551 0.79596 0.03109 1.18700
N 	N 	0.94994 0.51759 0.16273 -0.18800
H 	H 	0.92837 0.48173 0.10763 0.08600
N 	N 	0.89540 0.58814 0.40913 -0.21800
N 	N 	0.91559 0.58618 0.51903 -0.09200
N 	N 	0.94253 0.54173 0.52313 -0.17500
N 	N 	0.93953 0.51241 0.41733 -0.20800
N 	N 	0.08951 0.60314 0.26633 -0.21500
N 	N 	0.15618 0.65754 0.30343 -0.05900
N 	N 	0.17761 0.71604 0.23843 -0.06800
N 	N 	0.12496 0.70069 0.15643 -0.21700
C 	C 	0.55763 0.85557 0.55857 -0.19600
H 	H 	0.54903 0.89247 0.52167 0.06800
H 	H 	0.51213 0.80817 0.55367 0.07800
C 	C 	0.67023 0.92037 0.43877 -0.20600
H 	H 	0.68383 0.90897 0.36457 0.07500
H 	H 	0.64703 0.95007 0.42447 0.08600
C 	C 	0.57638 0.87577 0.68367 0.12300
C 	C 	0.73856 0.96436 0.50937 0.13800
Cd	Cd	0.81218 0.12929 0.36443 1.18800
N 	N 	0.61660 0.85093 0.49607 -0.18900
H 	H 	0.59503 0.81507 0.44097 0.08500
N 	N 	0.56206 0.92148 0.74247 -0.21800
N 	N 	0.58225 0.91952 0.85237 -0.09200
N 	N 	0.60919 0.87507 0.85647 -0.17400
N 	N 	0.60619 0.84575 0.75067 -0.20800
N 	N 	0.75617 0.93648 0.59967 -0.21500
N 	N 	0.82284 0.99088 0.63677 -0.05900
N 	N 	0.84427 0.04938 0.57177 -0.06800
N 	N 	0.79162 0.03403 0.48977 -0.21600
