data_crystal

_cell_length_a 9.30780
_cell_length_b 9.99380
_cell_length_c 13.26470
_cell_angle_alpha 78.15400
_cell_angle_beta  73.74200
_cell_angle_gamma 82.75100

_symmetry_space_group_name_	'P 1'
_symmetry_space_group_name_H-M	'P 1'

loop_
_symmetry_equiv_pos_as_xyz
  x,y,z

loop_
_atom_site_label
_atom_site_type_symbol
_atom_site_fract_x
_atom_site_fract_y
_atom_site_fract_z
_atom_site_charge
C 	C 	0.17730 0.30580 0.65140 -0.01200
H 	H 	0.26590 0.30530 0.59720 0.02500
C 	C 	0.16640 0.26160 0.75640 -0.00100
H 	H 	0.24470 0.22710 0.78740 0.02500
C 	C 	0.94600 0.33060 0.73300 0.16900
H 	H 	0.84270 0.35010 0.74760 -0.03200
C 	C 	0.95530 0.25950 0.92440 -0.02400
H 	H 	0.00410 0.17860 0.95890 0.00700
H 	H 	0.84910 0.24620 0.94150 0.04000
C 	C 	0.97670 0.38300 0.96510 0.09400
C 	C 	0.88750 0.50350 0.95130 -0.10200
H 	H 	0.81050 0.50660 0.91860 0.07200
C 	C 	0.09010 0.38190 0.01520 -0.13100
H 	H 	0.15140 0.30220 0.02600 0.06600
C 	C 	0.35890 0.51240 0.41610 0.00000
H 	H 	0.36010 0.57200 0.46130 0.02200
C 	C 	0.48110 0.46510 0.34520 -0.00900
H 	H 	0.57990 0.48520 0.33370 0.03500
C 	C 	0.28270 0.38060 0.33620 0.08200
H 	H 	0.22160 0.33040 0.31550 -0.01400
C 	C 	0.51810 0.32340 0.20100 -0.12000
H 	H 	0.48080 0.23570 0.20440 0.06400
H 	H 	0.62250 0.30730 0.20240 0.07100
C 	C 	0.50670 0.41720 0.09750 0.04900
C 	C 	0.49640 0.55930 0.08540 -0.05500
H 	H 	0.49310 0.59990 0.14320 0.05300
C 	C 	0.50890 0.35890 0.01150 -0.06400
H 	H 	0.51400 0.26410 0.01860 0.04600
C 	C 	0.08110 0.64720 0.66680 0.00100
H 	H 	0.06340 0.57190 0.72180 0.01400
C 	C 	0.11870 0.76910 0.67550 -0.01600
H 	H 	0.13160 0.79360 0.73610 0.02800
C 	C 	0.10660 0.77450 0.51340 0.07600
H 	H 	0.11080 0.80590 0.44170 -0.01800
C 	C 	0.17890 0.99210 0.54530 -0.12700
H 	H 	0.12940 0.04290 0.60200 0.06300
H 	H 	0.14660 0.03580 0.48210 0.06100
C 	C 	0.34540 0.99700 0.52240 0.06200
C 	C 	0.41180 0.99910 0.60250 -0.07100
H 	H 	0.35300 0.99820 0.67200 0.05000
C 	C 	0.43430 0.99750 0.42000 -0.07000
H 	H 	0.39040 0.99550 0.36550 0.05000
N 	N 	0.03780 0.35170 0.63670 -0.26300
N 	N 	0.01930 0.27750 0.80780 -0.16200
N 	N 	0.23360 0.45840 0.41040 -0.23100
N 	N 	0.43130 0.38310 0.29470 -0.10700
N 	N 	0.07280 0.65010 0.56480 -0.24300
N 	N 	0.13380 0.84940 0.57720 -0.10900
C 	C 	0.82270 0.69420 0.34860 0.00100
H 	H 	0.73410 0.69470 0.40280 0.02200
C 	C 	0.83360 0.73840 0.24360 -0.01100
H 	H 	0.75530 0.77290 0.21260 0.03500
C 	C 	0.05400 0.66940 0.26700 -0.00600
H 	H 	0.15730 0.64990 0.25240 0.02000
C 	C 	0.04470 0.74050 0.07560 -0.22400
H 	H 	0.99590 0.82140 0.04110 0.12100
H 	H 	0.15090 0.75380 0.05850 0.09100
C 	C 	0.02330 0.61700 0.03490 0.02300
C 	C 	0.11250 0.49650 0.04870 -0.04400
H 	H 	0.18950 0.49340 0.08140 0.04800
C 	C 	0.90990 0.61810 0.98480 -0.00900
H 	H 	0.84860 0.69780 0.97400 0.03600
C 	C 	0.64110 0.48760 0.58390 0.00100
H 	H 	0.63990 0.42800 0.53870 0.02200
C 	C 	0.51890 0.53490 0.65480 -0.00800
H 	H 	0.42010 0.51480 0.66630 0.03400
C 	C 	0.71730 0.61940 0.66380 0.08300
H 	H 	0.77840 0.66960 0.68450 0.00100
C 	C 	0.48190 0.67660 0.79900 -0.12900
H 	H 	0.51920 0.76430 0.79560 0.06700
H 	H 	0.37750 0.69270 0.79760 0.06900
C 	C 	0.49330 0.58280 0.90250 0.06700
C 	C 	0.50360 0.44070 0.91460 -0.08500
H 	H 	0.50690 0.40010 0.85680 0.06300
C 	C 	0.49110 0.64110 0.98850 -0.09400
H 	H 	0.48600 0.73590 0.98140 0.05300
C 	C 	0.91890 0.35280 0.33320 0.00800
H 	H 	0.93660 0.42810 0.27820 0.03600
C 	C 	0.88130 0.23090 0.32450 -0.00300
H 	H 	0.86840 0.20640 0.26390 0.03800
C 	C 	0.89340 0.22550 0.48660 0.08900
H 	H 	0.88920 0.19410 0.55830 -0.00400
C 	C 	0.82110 0.00790 0.45470 -0.13200
H 	H 	0.87060 0.95710 0.39800 0.07900
H 	H 	0.85340 0.96420 0.51790 0.07800
C 	C 	0.65460 0.00300 0.47760 0.06800
C 	C 	0.58820 0.00090 0.39750 -0.07400
H 	H 	0.64700 0.00180 0.32800 0.05500
C 	C 	0.56570 0.00250 0.58000 -0.07300
H 	H 	0.60960 0.00450 0.63450 0.05400
N 	N 	0.96220 0.64830 0.36330 -0.19400
N 	N 	0.98070 0.72250 0.19220 -0.05500
N 	N 	0.76640 0.54160 0.58960 -0.22100
N 	N 	0.56870 0.61690 0.70530 -0.10500
N 	N 	0.92720 0.34990 0.43520 -0.22700
N 	N 	0.86620 0.15060 0.42280 -0.10400
Co	Co	0.00000 0.50000 0.50000 1.09600
