data_crystal

_cell_length_a 9.24060
_cell_length_b 9.95700
_cell_length_c 13.30170
_cell_angle_alpha 78.39400
_cell_angle_beta  73.58000
_cell_angle_gamma 81.98200

_symmetry_space_group_name_	'P 1'
_symmetry_space_group_name_H-M	'P 1'

loop_
_symmetry_equiv_pos_as_xyz
  x,y,z

loop_
_atom_site_label
_atom_site_type_symbol
_atom_site_fract_x
_atom_site_fract_y
_atom_site_fract_z
_atom_site_charge
N 	N 	0.26480 0.04320 0.09029 -0.26400
N 	N 	0.06420 0.11950 0.20681 -0.10100
N 	N 	0.57250 0.14840 0.06577 -0.23200
N 	N 	0.63290 0.34840 0.07925 -0.08600
N 	N 	0.46050 0.14950 0.86494 -0.22100
N 	N 	0.47770 0.22230 0.69444 -0.11600
C 	C 	0.13770 0.98950 0.08460 0.09700
H 	H 	0.13690 0.93030 0.03890 -0.01900
C 	C 	0.01430 0.03660 0.15610 -0.09100
H 	H 	0.91500 0.01620 0.16820 0.04700
C 	C 	0.21500 0.12090 0.16459 0.07500
H 	H 	0.27640 0.17060 0.18530 -0.00800
C 	C 	0.97750 0.17790 0.30100 -0.07900
H 	H 	0.87170 0.19410 0.30050 0.05400
H 	H 	0.01360 0.26590 0.29810 0.05300
C 	C 	0.99090 0.08400 0.40340 -0.05100
C 	C 	0.00170 0.94140 0.41400 0.05800
H 	H 	0.00290 0.90120 0.35640 0.02300
C 	C 	0.98930 0.14160 0.49030 0.02000
H 	H 	0.98210 0.23680 0.48450 0.01500
C 	C 	0.58010 0.14530 0.16800 0.00400
H 	H 	0.56270 0.06980 0.22250 0.01500
C 	C 	0.61660 0.26820 0.17750 -0.01600
H 	H 	0.62820 0.29310 0.23830 0.03500
C 	C 	0.60600 0.27300 0.01480 -0.01400
H 	H 	0.61040 0.30430 0.94340 0.04900
C 	C 	0.67560 0.49080 0.04850 -0.18100
H 	H 	0.62570 0.54120 0.10600 0.08300
H 	H 	0.64070 0.53500 0.98660 0.11600
C 	C 	0.84420 0.49690 0.02340 -0.02500
C 	C 	0.91270 0.49320 0.10430 0.00800
H 	H 	0.85450 0.48890 0.17430 0.02500
C 	C 	0.93120 0.50390 0.91960 0.04600
H 	H 	0.88500 0.50670 0.86540 0.01600
C 	C 	0.31870 0.19450 0.85050 -0.01000
H 	H 	0.22950 0.19460 0.90480 0.03200
C 	C 	0.32770 0.23830 0.74630 -0.00700
H 	H 	0.24800 0.27250 0.71590 0.02800
C 	C 	0.55370 0.16960 0.76819 0.07300
H 	H 	0.65820 0.14980 0.75320 -0.00900
C 	C 	0.54160 0.24110 0.57780 -0.06800
H 	H 	0.64850 0.25420 0.56050 0.04700
H 	H 	0.49110 0.32260 0.54440 0.04800
C 	C 	0.52150 0.11730 0.53581 -0.05500
C 	C 	0.40780 0.12010 0.48560 0.03400
H 	H 	0.34550 0.20060 0.47520 0.01500
C 	C 	0.61340 0.99590 0.54890 0.06300
H 	H 	0.69080 0.99250 0.58170 0.02400
N 	N 	0.73520 0.95680 0.90971 -0.18600
N 	N 	0.93580 0.88050 0.79319 -0.10700
N 	N 	0.42750 0.85160 0.93423 -0.23300
N 	N 	0.36710 0.65160 0.92075 -0.12200
N 	N 	0.53950 0.85050 0.13506 -0.22700
N 	N 	0.52230 0.77770 0.30556 -0.09700
C 	C 	0.86230 0.01050 0.91540 -0.08900
H 	H 	0.86310 0.06970 0.96110 0.06300
C 	C 	0.98570 0.96340 0.84390 0.06500
H 	H 	0.08500 0.98380 0.83180 0.02300
C 	C 	0.78500 0.87910 0.83541 0.09100
H 	H 	0.72360 0.82940 0.81470 -0.00400
C 	C 	0.02250 0.82210 0.69900 -0.16900
H 	H 	0.12830 0.80590 0.69950 0.08500
H 	H 	0.98640 0.73410 0.70190 0.07700
C 	C 	0.00910 0.91600 0.59660 0.16400
C 	C 	0.99830 0.05860 0.58600 -0.19700
H 	H 	0.99710 0.09880 0.64360 0.09300
C 	C 	0.01070 0.85840 0.50970 -0.17700
H 	H 	0.01790 0.76320 0.51550 0.08200
C 	C 	0.41990 0.85470 0.83200 0.00400
H 	H 	0.43730 0.93020 0.77750 0.03600
C 	C 	0.38340 0.73180 0.82250 -0.00400
H 	H 	0.37180 0.70690 0.76170 0.03000
C 	C 	0.39400 0.72700 0.98520 0.16900
H 	H 	0.38960 0.69570 0.05660 -0.06600
C 	C 	0.32440 0.50920 0.95150 -0.08100
H 	H 	0.37430 0.45880 0.89400 0.06100
H 	H 	0.35930 0.46500 0.01340 0.02600
C 	C 	0.15580 0.50310 0.97660 0.15400
C 	C 	0.08730 0.50680 0.89570 -0.15100
H 	H 	0.14550 0.51110 0.82570 0.07900
C 	C 	0.06880 0.49610 0.08040 -0.18900
H 	H 	0.11500 0.49330 0.13460 0.08800
C 	C 	0.68130 0.80550 0.14950 -0.00100
H 	H 	0.77050 0.80540 0.09520 0.01800
C 	C 	0.67230 0.76170 0.25370 -0.00900
H 	H 	0.75200 0.72750 0.28410 0.03300
C 	C 	0.44630 0.83040 0.23181 0.08000
H 	H 	0.34180 0.85020 0.24680 0.00200
C 	C 	0.45840 0.75890 0.42220 -0.18300
H 	H 	0.35150 0.74580 0.43950 0.08500
H 	H 	0.50890 0.67740 0.45560 0.08100
C 	C 	0.47850 0.88270 0.46419 0.17300
C 	C 	0.59220 0.87990 0.51440 -0.17500
H 	H 	0.65450 0.79940 0.52480 0.08800
C 	C 	0.38660 0.00410 0.45110 -0.20900
H 	H 	0.30920 0.00750 0.41830 0.09600
Co	Co	0.50000 0.00000 -0.00000 1.08000
