data_crystal

_cell_length_a 10.21170
_cell_length_b 13.87000
_cell_length_c 12.31070
_cell_angle_alpha 90.00000
_cell_angle_beta  90.19800
_cell_angle_gamma 90.00000

_symmetry_space_group_name_	'P 1'
_symmetry_space_group_name_H-M	'P 1'

loop_
_symmetry_equiv_pos_as_xyz
  x,y,z

loop_
_atom_site_label
_atom_site_type_symbol
_atom_site_fract_x
_atom_site_fract_y
_atom_site_fract_z
_atom_site_charge
Cd	Cd	0.14715 0.43769 0.92096 1.23000
C 	C 	0.64760 0.29360 0.65540 -0.09600
C 	C 	0.52810 0.32250 0.69760 0.04100
H 	H 	0.45130 0.30010 0.66570 0.05200
C 	C 	0.52020 0.38480 0.78750 -0.09500
C 	C 	0.63810 0.41890 0.83240 0.05000
H 	H 	0.63620 0.46020 0.89190 0.04500
C 	C 	0.75610 0.39150 0.78890 -0.11000
C 	C 	0.76090 0.32940 0.70140 0.04800
H 	H 	0.84160 0.31140 0.67320 0.05400
C 	C 	0.65460 0.22130 0.56510 0.32700
C 	C 	0.39110 0.41170 0.83210 0.34000
C 	C 	0.88560 0.42440 0.84080 0.37700
O 	O 	0.76190 0.19200 0.53410 -0.32500
O 	O 	0.54990 0.18910 0.52550 -0.36300
O 	O 	0.29320 0.37410 0.79190 -0.36900
O 	O 	0.38590 0.47020 0.90800 -0.34400
O 	O 	0.88220 0.47710 0.92110 -0.47500
O 	O 	0.99040 0.39460 0.79730 -0.38600
Cd	Cd	0.35285 0.93769 0.57904 1.23200
C 	C 	0.85240 0.79360 0.84460 -0.10200
C 	C 	0.97190 0.82250 0.80240 0.05300
H 	H 	0.04870 0.80010 0.83430 0.04200
C 	C 	0.97980 0.88480 0.71250 -0.09700
C 	C 	0.86190 0.91890 0.66760 0.05100
H 	H 	0.86380 0.96020 0.60810 0.04400
C 	C 	0.74390 0.89150 0.71110 -0.11200
C 	C 	0.73910 0.82940 0.79860 0.05100
H 	H 	0.65840 0.81140 0.82680 0.05300
C 	C 	0.84540 0.72130 0.93490 0.32900
C 	C 	0.10890 0.91170 0.66790 0.33800
C 	C 	0.61440 0.92440 0.65920 0.37800
O 	O 	0.73810 0.69200 0.96590 -0.32400
O 	O 	0.95010 0.68910 0.97450 -0.36000
O 	O 	0.20680 0.87410 0.70810 -0.36700
O 	O 	0.11410 0.97020 0.59200 -0.34200
O 	O 	0.61780 0.97710 0.57890 -0.47700
O 	O 	0.50960 0.89460 0.70270 -0.38800
Cd	Cd	0.85285 0.56231 0.07904 1.22900
C 	C 	0.35240 0.70640 0.34460 -0.09700
C 	C 	0.47190 0.67750 0.30240 0.04000
H 	H 	0.54870 0.69990 0.33430 0.05100
C 	C 	0.47980 0.61520 0.21250 -0.09600
C 	C 	0.36190 0.58110 0.16760 0.04900
H 	H 	0.36380 0.53980 0.10810 0.04500
C 	C 	0.24390 0.60850 0.21110 -0.11000
C 	C 	0.23910 0.67060 0.29860 0.04800
H 	H 	0.15840 0.68860 0.32680 0.05400
C 	C 	0.34540 0.77870 0.43490 0.32700
C 	C 	0.60890 0.58830 0.16790 0.34000
C 	C 	0.11440 0.57560 0.15920 0.37700
O 	O 	0.23810 0.80800 0.46590 -0.32500
O 	O 	0.45010 0.81090 0.47450 -0.36300
O 	O 	0.70680 0.62590 0.20810 -0.36900
O 	O 	0.61410 0.52980 0.09200 -0.34400
O 	O 	0.11780 0.52290 0.07890 -0.47500
O 	O 	0.00960 0.60540 0.20270 -0.38600
Cd	Cd	0.64715 0.06231 0.42096 1.23200
C 	C 	0.14760 0.20640 0.15540 -0.10200
C 	C 	0.02810 0.17750 0.19760 0.05300
H 	H 	0.95130 0.19990 0.16570 0.04200
C 	C 	0.02020 0.11520 0.28750 -0.09700
C 	C 	0.13810 0.08110 0.33240 0.05100
H 	H 	0.13620 0.03980 0.39190 0.04400
C 	C 	0.25610 0.10850 0.28890 -0.11200
C 	C 	0.26090 0.17060 0.20140 0.05100
H 	H 	0.34160 0.18860 0.17320 0.05300
C 	C 	0.15460 0.27870 0.06510 0.32900
C 	C 	0.89110 0.08830 0.33210 0.33800
C 	C 	0.38560 0.07560 0.34080 0.37800
O 	O 	0.26190 0.30800 0.03410 -0.32400
O 	O 	0.04990 0.31090 0.02550 -0.36000
O 	O 	0.79320 0.12590 0.29190 -0.36700
O 	O 	0.88590 0.02980 0.40800 -0.34200
O 	O 	0.38220 0.02290 0.42110 -0.47700
O 	O 	0.49040 0.10540 0.29730 -0.38800
