data_crystal

_cell_length_a 11.49100
_cell_length_b 12.09400
_cell_length_c 12.62000
_cell_angle_alpha 69.61000
_cell_angle_beta  64.15000
_cell_angle_gamma 72.46000

_symmetry_space_group_name_	'P 1'
_symmetry_space_group_name_H-M	'P 1'

loop_
_symmetry_equiv_pos_as_xyz
  x,y,z

loop_
_atom_site_label
_atom_site_type_symbol
_atom_site_fract_x
_atom_site_fract_y
_atom_site_fract_z
_atom_site_charge
S 	S 	0.84579 0.75810 0.10334 0.74900
O 	O 	0.92680 0.83620 0.09960 -0.35400
O 	O 	0.92570 0.67130 0.03850 -0.42200
O 	O 	0.79830 0.68070 0.23530 -0.26400
O 	O 	0.72880 0.81900 0.08180 -0.32300
N 	N 	0.81440 0.09910 0.09120 -0.22900
N 	N 	0.18750 0.40770 0.40840 -0.33200
C 	C 	0.80200 0.17110 0.15850 0.04100
H 	H 	0.88050 0.18070 0.16110 0.02500
C 	C 	0.68260 0.23160 0.22280 -0.10600
H 	H 	0.67930 0.28080 0.26990 0.06200
C 	C 	0.56560 0.22110 0.21900 0.01900
C 	C 	0.57990 0.14640 0.14810 -0.12200
H 	H 	0.50380 0.13570 0.14180 0.02600
C 	C 	0.70270 0.08950 0.08820 0.03900
H 	H 	0.70930 0.03900 0.04080 -0.03400
C 	C 	0.43510 0.28460 0.28550 0.03900
C 	C 	0.41900 0.35070 0.36430 -0.13000
H 	H 	0.49360 0.35530 0.37720 0.06600
C 	C 	0.29580 0.40890 0.42290 0.05000
H 	H 	0.71330 0.54740 0.52260 -0.00600
C 	C 	0.79840 0.65570 0.66720 0.07000
H 	H 	0.87510 0.65810 0.67820 0.02400
C 	C 	0.67870 0.71710 0.72860 -0.09800
H 	H 	0.67320 0.76160 0.78110 0.10100
N 	N 	0.19070 0.50560 0.99200 -0.23100
C 	C 	0.30270 0.44660 0.92610 0.18700
H 	H 	0.29880 0.40650 0.87440 -0.03100
C 	C 	0.42400 0.44110 0.92790 -0.32200
H 	H 	0.50150 0.39520 0.88110 0.15700
C 	C 	0.43490 0.50170 0.99820 0.50300
C 	C 	0.31940 0.56720 0.06300 -0.44900
H 	H 	0.32180 0.61210 0.11130 0.13100
C 	C 	0.20090 0.56760 0.05750 0.03700
H 	H 	0.12230 0.61390 0.10250 -0.10900
S 	S 	0.15421 0.24190 0.89666 0.78400
O 	O 	0.07320 0.16380 0.90040 -0.57700
O 	O 	0.07430 0.32870 0.96150 -0.57700
O 	O 	0.20170 0.31930 0.76470 -0.36500
O 	O 	0.27120 0.18100 0.91820 -0.35900
N 	N 	0.18560 0.90090 0.90880 -0.23800
N 	N 	0.81250 0.59230 0.59160 -0.23900
C 	C 	0.19800 0.82890 0.84150 0.07700
H 	H 	0.11950 0.81930 0.83890 -0.05800
C 	C 	0.31740 0.76840 0.77720 -0.11300
H 	H 	0.32070 0.71920 0.73010 0.04800
C 	C 	0.43440 0.77890 0.78100 0.06200
C 	C 	0.42010 0.85360 0.85190 -0.10000
H 	H 	0.49620 0.86430 0.85820 0.10500
C 	C 	0.29730 0.91050 0.91180 0.08700
H 	H 	0.29070 0.96100 0.95920 0.03500
C 	C 	0.56490 0.71540 0.71450 0.05500
C 	C 	0.58100 0.64930 0.63570 -0.10800
H 	H 	0.50640 0.64470 0.62280 0.06100
C 	C 	0.70420 0.59110 0.57710 0.07100
H 	H 	0.28670 0.45260 0.47740 -0.05500
C 	C 	0.20160 0.34430 0.33280 0.03900
H 	H 	0.12490 0.34190 0.32180 -0.12200
C 	C 	0.32130 0.28290 0.27140 -0.14300
H 	H 	0.32680 0.23840 0.21890 0.02400
N 	N 	0.80930 0.49440 0.00800 -0.22200
C 	C 	0.69730 0.55340 0.07390 -0.07500
H 	H 	0.70120 0.59350 0.12560 0.05800
C 	C 	0.57600 0.55890 0.07210 0.11100
H 	H 	0.49850 0.60480 0.11890 -0.03500
C 	C 	0.56510 0.49830 0.00180 -0.41500
C 	C 	0.68060 0.43280 0.93700 0.23900
H 	H 	0.67820 0.38790 0.88870 -0.03000
C 	C 	0.79910 0.43240 0.94250 0.03200
H 	H 	0.87770 0.38610 0.89750 0.09600
Zn	Zn	-0.00000 0.00000 -0.00000 1.01300
Zn	Zn	-0.00000 0.50000 0.50000 1.02300
Zn	Zn	-0.00000 0.50000 -0.00000 1.04700
