data_crystal

_cell_length_a 15.47210
_cell_length_b 15.47210
_cell_length_c 15.47210
_cell_angle_alpha 67.84680
_cell_angle_beta  75.76900
_cell_angle_gamma 112.15300

_symmetry_space_group_name_	'P 1'
_symmetry_space_group_name_H-M	'P 1'

loop_
_symmetry_equiv_pos_as_xyz
  x,y,z

loop_
_atom_site_label
_atom_site_type_symbol
_atom_site_fract_x
_atom_site_fract_y
_atom_site_fract_z
_atom_site_charge
Cu	Cu	0.74482 0.19218 0.41398 0.70600
Cu	Cu	0.72526 0.31857 0.19973 0.80200
Cu	Cu	0.89384 0.30782 0.44736 0.70700
Cu	Cu	0.98170 0.18143 0.59331 0.80100
Cu	Cu	0.05264 0.65880 0.75518 0.70700
Cu	Cu	0.90669 0.42499 0.77474 0.80300
Cu	Cu	0.08602 0.84120 0.60616 0.70600
Cu	Cu	0.30027 0.07501 0.51830 0.80300
Cu	Cu	0.25518 0.80782 0.58602 0.70700
Cu	Cu	0.27474 0.68143 0.80027 0.80300
Cu	Cu	0.10616 0.69218 0.55264 0.70700
Cu	Cu	0.01830 0.81857 0.40669 0.80100
Cu	Cu	0.94736 0.34120 0.24482 0.70700
Cu	Cu	0.09331 0.57501 0.22526 0.80300
Cu	Cu	0.91398 0.15880 0.39384 0.70600
Cu	Cu	0.69973 0.92499 0.48170 0.80300
H 	H 	0.53140 0.29280 0.20540 0.19400
H 	H 	0.44000 0.28100 0.28980 0.20500
H 	H 	0.42240 0.18290 0.27330 0.22200
H 	H 	0.53830 0.05170 0.61840 0.10000
H 	H 	0.42370 0.97960 0.63850 0.08800
H 	H 	0.00180 0.20720 0.76140 0.20100
H 	H 	0.92920 0.21900 0.84100 0.21000
H 	H 	0.04380 0.31710 0.76050 0.22800
H 	H 	0.82990 0.44830 0.51340 0.10000
H 	H 	0.88190 0.52040 0.55590 0.08900
H 	H 	0.73860 0.23680 0.96860 0.19100
H 	H 	0.65900 0.22980 0.06000 0.20400
H 	H 	0.73950 0.19570 0.07760 0.22000
H 	H 	0.98660 0.65670 0.96170 0.10300
H 	H 	0.94410 0.56220 0.07630 0.09000
H 	H 	0.29460 0.26320 0.49820 0.19400
H 	H 	0.21020 0.27020 0.57080 0.20500
H 	H 	0.22670 0.30430 0.45620 0.22200
H 	H 	0.88160 0.84330 0.67010 0.09800
H 	H 	0.86150 0.93780 0.61810 0.08700
H 	H 	0.46860 0.70720 0.79460 0.19400
H 	H 	0.56000 0.71900 0.71020 0.20500
H 	H 	0.57760 0.81710 0.72670 0.22200
H 	H 	0.46170 0.94830 0.38160 0.10000
H 	H 	0.57630 0.02040 0.36150 0.08800
H 	H 	0.99820 0.79280 0.23860 0.20100
H 	H 	0.07080 0.78100 0.15900 0.21000
H 	H 	0.95620 0.68290 0.23950 0.22800
H 	H 	0.17010 0.55170 0.48660 0.10000
H 	H 	0.11810 0.47960 0.44410 0.08900
H 	H 	0.26140 0.76320 0.03140 0.19100
H 	H 	0.34100 0.77020 0.94000 0.20400
H 	H 	0.26050 0.80430 0.92240 0.22000
H 	H 	0.01340 0.34330 0.03830 0.10300
H 	H 	0.05590 0.43780 0.92370 0.09000
H 	H 	0.70540 0.73680 0.50180 0.19400
H 	H 	0.78980 0.72980 0.42920 0.20500
H 	H 	0.77330 0.69570 0.54380 0.22200
H 	H 	0.11840 0.15670 0.32990 0.09800
H 	H 	0.13850 0.06220 0.38190 0.08700
C 	C 	0.50750 0.20090 0.35440 0.24400
C 	C 	0.47210 0.24330 0.27340 -0.74900
C 	C 	0.51060 0.11960 0.49680 0.15200
C 	C 	0.47930 0.05300 0.60990 -0.32100
C 	C 	0.94470 0.29910 0.69340 0.24800
C 	C 	0.98330 0.25670 0.77120 -0.76700
C 	C 	0.88360 0.38040 0.60900 0.15300
C 	C 	0.83710 0.44700 0.57370 -0.32200
C 	C 	0.80660 0.36190 0.99250 0.24100
C 	C 	0.72880 0.24550 0.02790 -0.74400
C 	C 	0.89100 0.50740 0.98940 0.15400
C 	C 	0.92630 0.58920 0.02070 -0.32500
C 	C 	0.14560 0.13810 0.55530 0.24400
C 	C 	0.22660 0.25450 0.51670 -0.74900
C 	C 	0.00320 0.99260 0.61640 0.14500
C 	C 	0.89010 0.91080 0.66290 -0.31400
C 	C 	0.49250 0.79910 0.64560 0.24400
C 	C 	0.52790 0.75670 0.72660 -0.74900
C 	C 	0.48940 0.88040 0.50320 0.15200
C 	C 	0.52070 0.94700 0.39010 -0.32100
C 	C 	0.05530 0.70090 0.30660 0.24800
C 	C 	0.01670 0.74330 0.22880 -0.76700
C 	C 	0.11640 0.61960 0.39100 0.15300
C 	C 	0.16290 0.55300 0.42630 -0.32200
C 	C 	0.19340 0.63810 0.00750 0.24100
C 	C 	0.27120 0.75450 0.97210 -0.74400
C 	C 	0.10900 0.49260 0.01060 0.15400
C 	C 	0.07370 0.41080 0.97930 -0.32500
C 	C 	0.85440 0.86190 0.44470 0.24400
C 	C 	0.77340 0.74550 0.48330 -0.74900
C 	C 	0.99680 0.00740 0.38360 0.14500
C 	C 	0.10990 0.08920 0.33710 -0.31400
I 	I 	0.75454 0.07800 0.57974 -0.79200
I 	I 	0.84226 0.42200 0.32346 -0.79000
I 	I 	0.17654 0.83428 0.74546 -0.79100
I 	I 	0.92026 0.66572 0.65774 -0.78700
I 	I 	0.24546 0.92200 0.42026 -0.79200
I 	I 	0.15774 0.57800 0.67654 -0.79000
I 	I 	0.82346 0.16572 0.25454 -0.79100
I 	I 	0.07974 0.33428 0.34226 -0.78700
N 	N 	0.60800 0.17360 0.42220 -0.24500
N 	N 	0.60540 0.22620 0.33020 -0.28300
N 	N 	0.44600 0.13410 0.45670 -0.32700
N 	N 	0.90420 0.32640 0.56560 -0.24500
N 	N 	0.94360 0.27380 0.62080 -0.28500
N 	N 	0.90920 0.36590 0.68810 -0.32800
N 	N 	0.93440 0.53020 0.89200 -0.24400
N 	N 	0.87920 0.43560 0.89460 -0.28300
N 	N 	0.81190 0.40270 0.05400 -0.32700
N 	N 	0.07780 0.96980 0.59580 -0.24500
N 	N 	0.16980 0.06440 0.55640 -0.28200
N 	N 	0.04330 0.09730 0.59080 -0.32300
N 	N 	0.39200 0.82640 0.57780 -0.24500
N 	N 	0.39460 0.77380 0.66980 -0.28300
N 	N 	0.55400 0.86590 0.54330 -0.32700
N 	N 	0.09580 0.67360 0.43440 -0.24500
N 	N 	0.05640 0.72620 0.37920 -0.28500
N 	N 	0.09080 0.63410 0.31190 -0.32800
N 	N 	0.06560 0.46980 0.10800 -0.24400
N 	N 	0.12080 0.56440 0.10540 -0.28300
N 	N 	0.18810 0.59730 0.94600 -0.32700
N 	N 	0.92220 0.03020 0.40420 -0.24500
N 	N 	0.83020 0.93560 0.44360 -0.28200
N 	N 	0.95670 0.90270 0.40920 -0.32300
