data_crystal

_cell_length_a 5.56670
_cell_length_b 15.62970
_cell_length_c 9.54080
_cell_angle_alpha 90.00000
_cell_angle_beta  91.80390
_cell_angle_gamma 90.00000

_symmetry_space_group_name_	'P 1'
_symmetry_space_group_name_H-M	'P 1'

loop_
_symmetry_equiv_pos_as_xyz
  x,y,z

loop_
_atom_site_label
_atom_site_type_symbol
_atom_site_fract_x
_atom_site_fract_y
_atom_site_fract_z
_atom_site_charge
Mn	Mn	0.69614 0.66845 0.56126 1.29800
P 	P 	0.18503 0.69831 0.35375 0.57300
O 	O 	0.43620 0.72178 0.40620 -0.38600
O 	O 	0.98980 0.72222 0.45280 -0.41300
O 	O 	0.13560 0.73450 0.20780 -0.40700
O 	O 	0.18280 0.59687 0.33590 -0.45500
H 	H 	0.05450 0.57780 0.36200 0.28100
O 	O 	0.74390 0.55217 0.42870 -0.37700
O 	O 	0.57610 0.42681 0.37020 -0.36300
C 	C 	0.59260 0.49375 0.44160 0.24700
Mn	Mn	0.80386 0.16845 0.93874 1.29300
P 	P 	0.31497 0.19831 0.14625 0.57500
O 	O 	0.06380 0.22178 0.09380 -0.38300
O 	O 	0.51020 0.22222 0.04720 -0.41400
O 	O 	0.36440 0.23450 0.29220 -0.40400
O 	O 	0.31720 0.09687 0.16410 -0.45500
H 	H 	0.44550 0.07780 0.13800 0.28300
O 	O 	0.75610 0.05217 0.07130 -0.37200
O 	O 	0.92390 0.92681 0.12980 -0.36100
C 	C 	0.90740 0.99375 0.05840 0.24100
Mn	Mn	0.30386 0.33155 0.43874 1.29700
P 	P 	0.81497 0.30169 0.64625 0.57200
O 	O 	0.56380 0.27822 0.59380 -0.38600
O 	O 	0.01020 0.27778 0.54720 -0.41300
O 	O 	0.86440 0.26550 0.79220 -0.40700
O 	O 	0.81720 0.40313 0.66410 -0.45500
H 	H 	0.94550 0.42220 0.63800 0.28100
O 	O 	0.25610 0.44783 0.57130 -0.37700
O 	O 	0.42390 0.57319 0.62980 -0.36300
C 	C 	0.40740 0.50625 0.55840 0.24700
Mn	Mn	0.19614 0.83155 0.06126 1.29300
P 	P 	0.68503 0.80169 0.85375 0.57500
O 	O 	0.93620 0.77822 0.90620 -0.38300
O 	O 	0.48980 0.77778 0.95280 -0.41400
O 	O 	0.63560 0.76550 0.70780 -0.40400
O 	O 	0.68280 0.90313 0.83590 -0.45500
H 	H 	0.55450 0.92220 0.86200 0.28300
O 	O 	0.24390 0.94783 0.92870 -0.37200
O 	O 	0.07610 0.07319 0.87020 -0.36100
C 	C 	0.09260 0.00625 0.94160 0.24100
