data_crystal

_cell_length_a 6.21520
_cell_length_b 18.83910
_cell_length_c 16.65680
_cell_angle_alpha 90.00000
_cell_angle_beta  92.22930
_cell_angle_gamma 90.00000

_symmetry_space_group_name_	'P 1'
_symmetry_space_group_name_H-M	'P 1'

loop_
_symmetry_equiv_pos_as_xyz
  x,y,z

loop_
_atom_site_label
_atom_site_type_symbol
_atom_site_fract_x
_atom_site_fract_y
_atom_site_fract_z
_atom_site_charge
Ga	Ga	0.76728 0.44126 0.59771 2.08500
O 	O 	0.75770 0.49210 0.49951 -0.56500
O 	O 	0.77350 0.51849 0.67576 -0.48400
O 	O 	0.46030 0.44167 0.60533 -0.51900
O 	O 	0.07420 0.43504 0.60813 -0.52300
O 	O 	0.76320 0.36175 0.68426 -0.38900
O 	O 	0.75890 0.35303 0.52556 -0.42600
P 	P 	0.74114 0.55873 0.44932 0.69500
P 	P 	0.83625 0.53572 0.76108 0.66600
O 	O 	0.73910 0.62326 0.50768 -0.47500
O 	O 	0.69830 0.59471 0.79144 -0.51200
O 	O 	0.81570 0.46763 0.81220 -0.44100
O 	O 	0.07910 0.55873 0.76600 -0.41800
H 	H 	0.73020 0.66010 0.48160 0.34300
Ga	Ga	0.71357 0.65813 0.88290 2.08200
H 	H 	0.84970 0.47650 0.85920 0.31200
H 	H 	0.11470 0.56830 0.81270 0.30100
O 	O 	0.40850 0.65810 0.87890 -0.53500
O 	O 	0.70890 0.58321 0.96550 -0.51700
O 	O 	0.72340 0.74359 0.80784 -0.41800
O 	O 	0.72810 0.73486 0.96682 -0.45000
O 	O 	0.02570 0.65072 0.88353 -0.53800
P 	P 	0.22093 0.69046 0.92124 0.63200
P 	P 	0.81290 0.53097 0.01756 0.52900
C 	C 	0.73120 0.80080 0.84490 0.23800
C 	C 	0.73370 0.79590 0.93750 0.25700
O 	O 	0.23340 0.67190 0.01280 -0.43300
O 	O 	0.20790 0.76901 0.91390 -0.27300
O 	O 	0.89060 0.46780 0.96840 -0.24900
O 	O 	0.99230 0.56870 0.06510 -0.13600
O 	O 	0.63900 0.50640 0.08960 -0.15900
H 	H 	0.24070 0.62880 0.01850 0.31900
Ga	Ga	0.73272 0.94126 0.90229 2.08400
O 	O 	0.74230 0.99210 0.00049 -0.55300
O 	O 	0.72650 0.01849 0.82424 -0.48100
O 	O 	0.03970 0.94167 0.89467 -0.51700
O 	O 	0.42580 0.93504 0.89187 -0.52600
O 	O 	0.73680 0.86175 0.81574 -0.39000
O 	O 	0.74110 0.85303 0.97444 -0.43100
P 	P 	0.75886 0.05873 0.05068 0.68200
P 	P 	0.66375 0.03572 0.73892 0.67200
O 	O 	0.76090 0.12326 0.99232 -0.46100
O 	O 	0.80170 0.09471 0.70856 -0.51300
O 	O 	0.68430 0.96763 0.68780 -0.44600
O 	O 	0.42090 0.05873 0.73400 -0.42000
H 	H 	0.76980 0.16010 0.01840 0.33400
Ga	Ga	0.78643 0.15813 0.61710 2.08300
H 	H 	0.65030 0.97650 0.64080 0.31300
H 	H 	0.38530 0.06830 0.68730 0.30100
O 	O 	0.09150 0.15810 0.62110 -0.53400
O 	O 	0.79110 0.08321 0.53450 -0.51400
O 	O 	0.77660 0.24359 0.69216 -0.41700
O 	O 	0.77190 0.23486 0.53318 -0.44700
O 	O 	0.47430 0.15072 0.61647 -0.54000
P 	P 	0.27907 0.19046 0.57876 0.63400
P 	P 	0.68710 0.03097 0.48244 0.52600
C 	C 	0.76880 0.30080 0.65510 0.23900
C 	C 	0.76630 0.29590 0.56250 0.25600
O 	O 	0.26660 0.17190 0.48720 -0.43600
O 	O 	0.29210 0.26901 0.58610 -0.27400
O 	O 	0.60940 0.96780 0.53160 -0.24600
O 	O 	0.50770 0.06870 0.43490 -0.13900
O 	O 	0.86100 0.00640 0.41040 -0.16000
H 	H 	0.25930 0.12880 0.48150 0.32000
Ga	Ga	0.23272 0.55874 0.40229 2.08600
O 	O 	0.24230 0.50790 0.50049 -0.56400
O 	O 	0.22650 0.48151 0.32424 -0.48300
O 	O 	0.53970 0.55833 0.39467 -0.51800
O 	O 	0.92580 0.56496 0.39187 -0.52300
O 	O 	0.23680 0.63825 0.31574 -0.38900
O 	O 	0.24110 0.64697 0.47444 -0.42600
P 	P 	0.25886 0.44127 0.55068 0.69500
P 	P 	0.16375 0.46428 0.23892 0.66600
O 	O 	0.26090 0.37674 0.49232 -0.47500
O 	O 	0.30170 0.40529 0.20856 -0.51200
O 	O 	0.18430 0.53237 0.18780 -0.44100
O 	O 	0.92090 0.44127 0.23400 -0.41800
H 	H 	0.26980 0.33990 0.51840 0.34300
Ga	Ga	0.28643 0.34187 0.11710 2.08200
H 	H 	0.15030 0.52350 0.14080 0.31200
H 	H 	0.88530 0.43170 0.18730 0.30100
O 	O 	0.59150 0.34190 0.12110 -0.53500
O 	O 	0.29110 0.41679 0.03450 -0.51700
O 	O 	0.27660 0.25641 0.19216 -0.41800
O 	O 	0.27190 0.26514 0.03318 -0.45000
O 	O 	0.97430 0.34928 0.11647 -0.53800
P 	P 	0.77907 0.30954 0.07876 0.63200
P 	P 	0.18710 0.46903 0.98244 0.52900
C 	C 	0.26880 0.19920 0.15510 0.23800
C 	C 	0.26630 0.20410 0.06250 0.25700
O 	O 	0.76660 0.32810 0.98720 -0.43300
O 	O 	0.79210 0.23099 0.08610 -0.27300
O 	O 	0.10940 0.53220 0.03160 -0.24900
O 	O 	0.00770 0.43130 0.93490 -0.13600
O 	O 	0.36100 0.49360 0.91040 -0.15900
H 	H 	0.75930 0.37120 0.98150 0.31900
Ga	Ga	0.26728 0.05874 0.09771 2.08400
O 	O 	0.25770 0.00790 0.99951 -0.55300
O 	O 	0.27350 0.98151 0.17576 -0.48100
O 	O 	0.96030 0.05833 0.10533 -0.51700
O 	O 	0.57420 0.06496 0.10813 -0.52600
O 	O 	0.26320 0.13825 0.18426 -0.39000
O 	O 	0.25890 0.14697 0.02556 -0.43100
P 	P 	0.24114 0.94127 0.94932 0.68200
P 	P 	0.33625 0.96428 0.26108 0.67200
O 	O 	0.23910 0.87674 0.00768 -0.46100
O 	O 	0.19830 0.90529 0.29144 -0.51300
O 	O 	0.31570 0.03237 0.31220 -0.44600
O 	O 	0.57910 0.94127 0.26600 -0.42000
H 	H 	0.23020 0.83990 0.98160 0.33400
Ga	Ga	0.21357 0.84187 0.38290 2.08300
H 	H 	0.34970 0.02350 0.35920 0.31300
H 	H 	0.61470 0.93170 0.31270 0.30100
O 	O 	0.90850 0.84190 0.37890 -0.53400
O 	O 	0.20890 0.91679 0.46550 -0.51400
O 	O 	0.22340 0.75641 0.30784 -0.41700
O 	O 	0.22810 0.76514 0.46682 -0.44700
O 	O 	0.52570 0.84928 0.38353 -0.54000
P 	P 	0.72093 0.80954 0.42124 0.63400
P 	P 	0.31290 0.96903 0.51756 0.52600
C 	C 	0.23120 0.69920 0.34490 0.23900
C 	C 	0.23370 0.70410 0.43750 0.25600
O 	O 	0.73340 0.82810 0.51280 -0.43600
O 	O 	0.70790 0.73099 0.41390 -0.27400
O 	O 	0.39060 0.03220 0.46840 -0.24600
O 	O 	0.49230 0.93130 0.56510 -0.13900
O 	O 	0.13900 0.99360 0.58960 -0.16000
H 	H 	0.74070 0.87120 0.51850 0.32000
