data_crystal

_cell_length_a 8.39300
_cell_length_b 18.74210
_cell_length_c 22.23510
_cell_angle_alpha 90.00000
_cell_angle_beta  90.00000
_cell_angle_gamma 94.03100

_symmetry_space_group_name_	'P 1'
_symmetry_space_group_name_H-M	'P 1'

loop_
_symmetry_equiv_pos_as_xyz
  x,y,z

loop_
_atom_site_label
_atom_site_type_symbol
_atom_site_fract_x
_atom_site_fract_y
_atom_site_fract_z
_atom_site_charge
Cd	Cd	0.68424 0.01288 0.44304 1.22800
Cd	Cd	0.31576 0.48712 0.94304 1.22800
Cd	Cd	0.31576 0.98712 0.55696 1.22800
Cd	Cd	0.68424 0.51288 0.05696 1.22800
H 	H 	0.05800 0.16720 0.45330 0.04700
H 	H 	0.99920 0.25340 0.38020 0.06900
H 	H 	0.48730 0.14280 0.37420 0.04800
H 	H 	0.41530 0.50510 0.15890 -0.01400
H 	H 	0.30550 0.43380 0.23600 0.12600
H 	H 	0.54960 0.27220 0.16780 0.15200
H 	H 	0.65550 0.35150 0.09640 -0.00300
H 	H 	0.13200 0.02600 0.30580 0.05500
H 	H 	0.29370 0.06880 0.22420 0.05900
H 	H 	0.79790 0.16480 0.26490 0.08300
H 	H 	0.31760 0.31910 0.95990 -0.00900
H 	H 	0.25210 0.22670 0.02670 0.12600
H 	H 	0.03710 0.36970 0.13140 0.14000
H 	H 	0.10960 0.45470 0.06140 -0.01000
H 	H 	0.94200 0.33280 0.95330 0.04500
H 	H 	0.00080 0.24660 0.88020 0.06900
H 	H 	0.51270 0.35720 0.87420 0.04600
H 	H 	0.58470 0.99490 0.65890 -0.01500
H 	H 	0.69450 0.06620 0.73600 0.12500
H 	H 	0.45040 0.22780 0.66780 0.15100
H 	H 	0.34450 0.14850 0.59640 -0.00300
H 	H 	0.86800 0.47400 0.80580 0.05500
H 	H 	0.70630 0.43120 0.72420 0.05800
H 	H 	0.20210 0.33520 0.76490 0.08300
H 	H 	0.68240 0.18090 0.45990 -0.00900
H 	H 	0.74790 0.27330 0.52670 0.12600
H 	H 	0.96290 0.13030 0.63140 0.14000
H 	H 	0.89040 0.04530 0.56140 -0.01000
H 	H 	0.94200 0.83280 0.54670 0.04600
H 	H 	0.00080 0.74660 0.61980 0.06800
H 	H 	0.51270 0.85720 0.62580 0.04700
H 	H 	0.58470 0.49490 0.84110 -0.01500
H 	H 	0.69450 0.56620 0.76400 0.12500
H 	H 	0.45040 0.72780 0.83220 0.15100
H 	H 	0.34450 0.64850 0.90360 -0.00300
H 	H 	0.86800 0.97400 0.69420 0.05500
H 	H 	0.70630 0.93120 0.77580 0.05900
H 	H 	0.20210 0.83520 0.73510 0.08300
H 	H 	0.68240 0.68090 0.04010 -0.00900
H 	H 	0.74790 0.77330 0.97330 0.12600
H 	H 	0.96290 0.63030 0.86860 0.14000
H 	H 	0.89040 0.54530 0.93860 -0.01000
H 	H 	0.05800 0.66720 0.04670 0.04500
H 	H 	0.99920 0.75340 0.11980 0.06900
H 	H 	0.48730 0.64280 0.12580 0.04600
H 	H 	0.41530 0.00510 0.34110 -0.01500
H 	H 	0.30550 0.93380 0.26400 0.12500
H 	H 	0.54960 0.77220 0.33220 0.15100
H 	H 	0.65550 0.85150 0.40360 -0.00300
H 	H 	0.13200 0.52600 0.19420 0.05500
H 	H 	0.29370 0.56880 0.27580 0.05800
H 	H 	0.79790 0.66480 0.23510 0.08300
H 	H 	0.31760 0.81910 0.54010 -0.00900
H 	H 	0.25210 0.72670 0.47330 0.12600
H 	H 	0.03710 0.86970 0.36860 0.14000
H 	H 	0.10960 0.95470 0.43860 -0.01000
C 	C 	0.30640 0.09020 0.46580 0.36000
C 	C 	0.27540 0.14700 0.41990 -0.09500
C 	C 	0.13290 0.17980 0.42240 0.01400
C 	C 	0.09810 0.23170 0.37960 -0.05400
C 	C 	0.21100 0.24970 0.33730 -0.00800
C 	C 	0.35390 0.21800 0.33600 -0.05200
C 	C 	0.38960 0.16530 0.37620 0.01500
C 	C 	0.45140 0.24830 0.28570 0.21700
C 	C 	0.20990 0.30180 0.28650 0.20000
C 	C 	0.44380 0.45700 0.16160 0.13200
C 	C 	0.37640 0.41530 0.20760 -0.21500
C 	C 	0.41770 0.34470 0.21010 0.22100
C 	C 	0.52130 0.32040 0.16760 -0.21100
C 	C 	0.58210 0.36790 0.12490 0.13300
C 	C 	0.85680 0.06400 0.34670 0.28500
C 	C 	0.95380 0.09140 0.29340 -0.04600
C 	C 	0.09770 0.06330 0.28110 -0.01400
C 	C 	0.19520 0.08850 0.23310 -0.03400
C 	C 	0.13900 0.14410 0.19930 -0.02600
C 	C 	0.99410 0.17120 0.21180 -0.02700
C 	C 	0.89840 0.14610 0.25750 -0.01600
C 	C 	0.21630 0.18330 0.14820 0.20700
C 	C 	0.97040 0.22980 0.16750 0.21900
C 	C 	0.26200 0.32930 0.99570 0.11300
C 	C 	0.22370 0.27380 0.03520 -0.20700
C 	C 	0.14250 0.28890 0.08790 0.21800
C 	C 	0.09700 0.35780 0.09700 -0.21800
C 	C 	0.14130 0.40760 0.05480 0.13500
C 	C 	0.69360 0.40980 0.96580 0.36000
C 	C 	0.72460 0.35300 0.91990 -0.09500
C 	C 	0.86710 0.32020 0.92240 0.01500
C 	C 	0.90190 0.26830 0.87960 -0.05500
C 	C 	0.78900 0.25030 0.83730 -0.00800
C 	C 	0.64610 0.28200 0.83600 -0.05200
C 	C 	0.61040 0.33470 0.87620 0.01500
C 	C 	0.54860 0.25170 0.78570 0.21700
C 	C 	0.79010 0.19820 0.78650 0.20000
C 	C 	0.55620 0.04300 0.66160 0.13100
C 	C 	0.62360 0.08470 0.70760 -0.21500
C 	C 	0.58230 0.15530 0.71010 0.22100
C 	C 	0.47870 0.17960 0.66760 -0.21100
C 	C 	0.41790 0.13210 0.62490 0.13300
C 	C 	0.14320 0.43600 0.84670 0.28500
C 	C 	0.04620 0.40860 0.79340 -0.04500
C 	C 	0.90230 0.43670 0.78110 -0.01500
C 	C 	0.80480 0.41150 0.73310 -0.03300
C 	C 	0.86100 0.35590 0.69930 -0.02700
C 	C 	0.00590 0.32880 0.71180 -0.02500
C 	C 	0.10160 0.35390 0.75750 -0.01700
C 	C 	0.78370 0.31670 0.64820 0.20700
C 	C 	0.02960 0.27020 0.66750 0.21900
C 	C 	0.73800 0.17070 0.49570 0.11300
C 	C 	0.77630 0.22620 0.53520 -0.20800
C 	C 	0.85750 0.21110 0.58790 0.21800
C 	C 	0.90300 0.14220 0.59700 -0.21900
C 	C 	0.85870 0.09240 0.55480 0.13500
C 	C 	0.69360 0.90980 0.53420 0.36000
C 	C 	0.72460 0.85300 0.58010 -0.09500
C 	C 	0.86710 0.82020 0.57760 0.01400
C 	C 	0.90190 0.76830 0.62040 -0.05400
C 	C 	0.78900 0.75030 0.66270 -0.00800
C 	C 	0.64610 0.78200 0.66400 -0.05200
C 	C 	0.61040 0.83470 0.62380 0.01500
C 	C 	0.54860 0.75170 0.71430 0.21700
C 	C 	0.79010 0.69820 0.71350 0.20000
C 	C 	0.55620 0.54300 0.83840 0.13200
C 	C 	0.62360 0.58470 0.79240 -0.21500
C 	C 	0.58230 0.65530 0.78990 0.22100
C 	C 	0.47870 0.67960 0.83240 -0.21100
C 	C 	0.41790 0.63210 0.87510 0.13300
C 	C 	0.14320 0.93600 0.65330 0.28500
C 	C 	0.04620 0.90860 0.70660 -0.04600
C 	C 	0.90230 0.93670 0.71890 -0.01400
C 	C 	0.80480 0.91150 0.76690 -0.03400
C 	C 	0.86100 0.85590 0.80070 -0.02600
C 	C 	0.00590 0.82880 0.78820 -0.02700
C 	C 	0.10160 0.85390 0.74250 -0.01600
C 	C 	0.78370 0.81670 0.85180 0.20700
C 	C 	0.02960 0.77020 0.83250 0.21900
C 	C 	0.73800 0.67070 0.00430 0.11300
C 	C 	0.77630 0.72620 0.96480 -0.20700
C 	C 	0.85750 0.71110 0.91210 0.21800
C 	C 	0.90300 0.64220 0.90300 -0.21800
C 	C 	0.85870 0.59240 0.94520 0.13500
C 	C 	0.30640 0.59020 0.03420 0.36000
C 	C 	0.27540 0.64700 0.08010 -0.09500
C 	C 	0.13290 0.67980 0.07760 0.01500
C 	C 	0.09810 0.73170 0.12040 -0.05500
C 	C 	0.21100 0.74970 0.16270 -0.00800
C 	C 	0.35390 0.71800 0.16400 -0.05200
C 	C 	0.38960 0.66530 0.12380 0.01500
C 	C 	0.45140 0.74830 0.21430 0.21700
C 	C 	0.20990 0.80180 0.21350 0.20000
C 	C 	0.44380 0.95700 0.33840 0.13100
C 	C 	0.37640 0.91530 0.29240 -0.21500
C 	C 	0.41770 0.84470 0.28990 0.22100
C 	C 	0.52130 0.82040 0.33240 -0.21100
C 	C 	0.58210 0.86790 0.37510 0.13300
C 	C 	0.85680 0.56400 0.15330 0.28500
C 	C 	0.95380 0.59140 0.20660 -0.04500
C 	C 	0.09770 0.56330 0.21890 -0.01500
C 	C 	0.19520 0.58850 0.26690 -0.03300
C 	C 	0.13900 0.64410 0.30070 -0.02700
C 	C 	0.99410 0.67120 0.28820 -0.02500
C 	C 	0.89840 0.64610 0.24250 -0.01700
C 	C 	0.21630 0.68330 0.35180 0.20700
C 	C 	0.97040 0.72980 0.33250 0.21900
C 	C 	0.26200 0.82930 0.50430 0.11300
C 	C 	0.22370 0.77380 0.46480 -0.20800
C 	C 	0.14250 0.78890 0.41210 0.21800
C 	C 	0.09700 0.85780 0.40300 -0.21900
C 	C 	0.14130 0.90760 0.44520 0.13500
N 	N 	0.54450 0.43510 0.12130 -0.25000
N 	N 	0.35910 0.29910 0.25720 -0.19000
N 	N 	0.11020 0.23560 0.13180 -0.19100
N 	N 	0.22460 0.39710 0.00530 -0.25400
N 	N 	0.45550 0.06490 0.62130 -0.25000
N 	N 	0.64090 0.20090 0.75720 -0.19000
N 	N 	0.88980 0.26440 0.63180 -0.19200
N 	N 	0.77540 0.10290 0.50530 -0.25400
N 	N 	0.45550 0.56490 0.87870 -0.25000
N 	N 	0.64090 0.70090 0.74280 -0.19000
N 	N 	0.88980 0.76440 0.86820 -0.19100
N 	N 	0.77540 0.60290 0.99470 -0.25400
N 	N 	0.54450 0.93510 0.37870 -0.25000
N 	N 	0.35910 0.79910 0.24280 -0.19000
N 	N 	0.11020 0.73560 0.36820 -0.19200
N 	N 	0.22460 0.89710 0.49470 -0.25400
O 	O 	0.42940 0.05620 0.45985 -0.47500
O 	O 	0.20670 0.07850 0.50670 -0.40400
O 	O 	0.10630 0.33880 0.27020 -0.21400
O 	O 	0.58490 0.23580 0.27130 -0.21600
O 	O 	0.72810 0.09160 0.35922 -0.35500
O 	O 	0.90970 0.01370 0.37690 -0.35400
O 	O 	0.85600 0.26380 0.16050 -0.21500
O 	O 	0.34270 0.17460 0.12400 -0.21800
O 	O 	0.57060 0.44380 0.95985 -0.47500
O 	O 	0.79330 0.42150 0.00670 -0.40400
O 	O 	0.89370 0.16120 0.77020 -0.21400
O 	O 	0.41510 0.26420 0.77130 -0.21600
O 	O 	0.27190 0.40840 0.85922 -0.35500
O 	O 	0.09030 0.48630 0.87690 -0.35400
O 	O 	0.14400 0.23620 0.66050 -0.21500
O 	O 	0.65730 0.32540 0.62400 -0.21800
O 	O 	0.57060 0.94380 0.54015 -0.47500
O 	O 	0.79330 0.92150 0.49330 -0.40400
O 	O 	0.89370 0.66120 0.72980 -0.21400
O 	O 	0.41510 0.76420 0.72870 -0.21600
O 	O 	0.27190 0.90840 0.64078 -0.35500
O 	O 	0.09030 0.98630 0.62310 -0.35400
O 	O 	0.14400 0.73620 0.83950 -0.21500
O 	O 	0.65730 0.82540 0.87600 -0.21800
O 	O 	0.42940 0.55620 0.04015 -0.47500
O 	O 	0.20670 0.57850 0.99330 -0.40400
O 	O 	0.10630 0.83880 0.22980 -0.21400
O 	O 	0.58490 0.73580 0.22870 -0.21600
O 	O 	0.72810 0.59160 0.14078 -0.35500
O 	O 	0.90970 0.51370 0.12310 -0.35400
O 	O 	0.85600 0.76380 0.33950 -0.21500
O 	O 	0.34270 0.67460 0.37600 -0.21800
