data_crystal

_cell_length_a 37.95100
_cell_length_b 8.04700
_cell_length_c 20.88200
_cell_angle_alpha 90.00000
_cell_angle_beta  93.72000
_cell_angle_gamma 90.00000

_symmetry_space_group_name_	'P 1'
_symmetry_space_group_name_H-M	'P 1'

loop_
_symmetry_equiv_pos_as_xyz
  x,y,z

loop_
_atom_site_label
_atom_site_type_symbol
_atom_site_fract_x
_atom_site_fract_y
_atom_site_fract_z
_atom_site_charge
C 	C 	0.67050 0.55000 0.18500 -0.13300
C 	C 	0.70490 0.48700 0.18580 -0.04800
C 	C 	0.72470 0.50200 0.13420 -0.05000
C 	C 	0.71230 0.58400 0.07930 -0.06200
C 	C 	0.67790 0.65320 0.07830 0.00500
C 	C 	0.65710 0.63720 0.13100 0.01800
C 	C 	0.65680 0.06800 0.02520 -0.06200
C 	C 	0.64570 0.20700 0.05610 -0.03800
C 	C 	0.62620 0.19300 0.11080 -0.02500
C 	C 	0.61770 0.03900 0.13360 -0.08100
C 	C 	0.62850 0.89610 0.10260 0.01700
C 	C 	0.64810 0.91180 0.04840 0.01200
C 	C 	0.61210 0.58900 0.94800 -0.06600
C 	C 	0.57920 0.50800 0.94290 -0.03400
C 	C 	0.55900 0.49300 0.99720 -0.02600
C 	C 	0.57180 0.55670 0.05630 -0.07300
C 	C 	0.60400 0.63480 0.06100 0.02900
C 	C 	0.62420 0.65250 0.00750 0.01300
C 	C 	0.62110 0.71760 0.12110 -0.10400
C 	C 	0.65880 0.74560 0.02180 -0.08000
Ag	Ag	0.69750 0.76168 0.25430 0.48600
H 	H 	0.65600 0.53240 0.22050 0.02500
H 	H 	0.71450 0.42860 0.22370 0.01800
H 	H 	0.74800 0.46180 0.13660 0.04400
H 	H 	0.72650 0.58980 0.04130 0.03700
H 	H 	0.67060 0.07660 0.98780 0.03400
H 	H 	0.65130 0.31630 0.04100 0.04300
H 	H 	0.61850 0.29110 0.13120 0.03600
H 	H 	0.60370 0.02840 0.17010 0.04000
H 	H 	0.62620 0.60220 0.91030 0.03300
H 	H 	0.57030 0.46110 0.90170 0.03300
H 	H 	0.53570 0.43950 0.99270 0.04200
H 	H 	0.55810 0.54730 0.09370 0.04700
H 	H 	0.60720 0.70880 0.15730 0.04900
H 	H 	0.67270 0.75570 0.98500 0.04500
C 	C 	0.53930 0.04580 0.91850 -0.06200
C 	C 	0.55550 0.97100 0.97460 -0.04100
C 	C 	0.54030 0.97800 0.02920 -0.01400
C 	C 	0.50760 0.05700 0.03520 -0.08300
C 	C 	0.49090 0.12830 0.98150 0.03200
C 	C 	0.50700 0.12650 0.92300 0.01400
C 	C 	0.48650 0.53500 0.86450 -0.05900
C 	C 	0.47820 0.68400 0.89310 -0.03600
C 	C 	0.46260 0.68400 0.95010 -0.02100
C 	C 	0.45310 0.53500 0.98100 -0.08300
C 	C 	0.46140 0.38780 0.95180 0.03100
C 	C 	0.47770 0.38500 0.89430 0.00800
C 	C 	0.43490 0.03600 0.81250 -0.08500
C 	C 	0.40220 0.95500 0.81940 -0.09200
C 	C 	0.38610 0.95900 0.87690 -0.02800
C 	C 	0.40180 0.04410 0.92880 -0.09400
C 	C 	0.43370 0.12130 0.92350 0.02800
C 	C 	0.44950 0.12240 0.86600 0.00300
C 	C 	0.45530 0.21370 0.97650 -0.10600
C 	C 	0.48470 0.21090 0.87010 -0.08000
Ag	Ag	0.37360 0.19413 0.76760 0.50100
H 	H 	0.54990 0.03860 0.87790 0.04000
H 	H 	0.57760 0.91360 0.97170 0.04500
H 	H 	0.55170 0.92370 0.06650 0.03300
H 	H 	0.49600 0.05700 0.07470 0.04800
H 	H 	0.49850 0.53390 0.82460 0.04000
H 	H 	0.48300 0.78790 0.87340 0.04500
H 	H 	0.45700 0.78810 0.96810 0.03900
H 	H 	0.44160 0.53630 0.02030 0.04800
H 	H 	0.44620 0.03310 0.77180 0.03000
H 	H 	0.39140 0.89540 0.78280 0.02900
H 	H 	0.36360 0.90450 0.88020 0.02800
H 	H 	0.39040 0.04850 0.96840 0.04800
H 	H 	0.44420 0.21490 0.01620 0.05700
H 	H 	0.49570 0.21150 0.82960 0.04700
C 	C 	0.17050 0.05000 0.18500 -0.13100
C 	C 	0.20490 0.98700 0.18580 -0.04800
C 	C 	0.22470 0.00200 0.13420 -0.04800
C 	C 	0.21230 0.08400 0.07930 -0.06100
C 	C 	0.17790 0.15320 0.07830 0.00500
C 	C 	0.15710 0.13720 0.13100 0.01700
C 	C 	0.15680 0.56800 0.02520 -0.06200
C 	C 	0.14570 0.70700 0.05610 -0.03800
C 	C 	0.12620 0.69300 0.11080 -0.02500
C 	C 	0.11770 0.53900 0.13360 -0.08100
C 	C 	0.12850 0.39610 0.10260 0.01700
C 	C 	0.14810 0.41180 0.04840 0.01200
C 	C 	0.11210 0.08900 0.94800 -0.06700
C 	C 	0.07920 0.00800 0.94290 -0.03200
C 	C 	0.05900 0.99300 0.99720 -0.02700
C 	C 	0.07180 0.05670 0.05630 -0.07200
C 	C 	0.10400 0.13480 0.06100 0.02800
C 	C 	0.12420 0.15250 0.00750 0.01400
C 	C 	0.12110 0.21760 0.12110 -0.10300
C 	C 	0.15880 0.24560 0.02180 -0.08000
Ag	Ag	0.19750 0.26168 0.25430 0.48600
H 	H 	0.15600 0.03240 0.22050 0.02500
H 	H 	0.21450 0.92860 0.22370 0.01800
H 	H 	0.24800 0.96180 0.13660 0.04400
H 	H 	0.22650 0.08980 0.04130 0.03700
H 	H 	0.17060 0.57660 0.98780 0.03400
H 	H 	0.15130 0.81630 0.04100 0.04300
H 	H 	0.11850 0.79110 0.13120 0.03600
H 	H 	0.10370 0.52840 0.17010 0.04000
H 	H 	0.12620 0.10220 0.91030 0.03300
H 	H 	0.07030 0.96110 0.90170 0.03200
H 	H 	0.03570 0.93950 0.99270 0.04300
H 	H 	0.05810 0.04730 0.09370 0.04700
H 	H 	0.10720 0.20880 0.15730 0.04900
H 	H 	0.17270 0.25570 0.98500 0.04500
C 	C 	0.03930 0.54580 0.91850 -0.06500
C 	C 	0.05550 0.47100 0.97460 -0.03700
C 	C 	0.04030 0.47800 0.02920 -0.01700
C 	C 	0.00760 0.55700 0.03520 -0.07700
C 	C 	0.99090 0.62830 0.98150 0.02700
C 	C 	0.00700 0.62650 0.92300 0.01800
C 	C 	0.98650 0.03500 0.86450 -0.06000
C 	C 	0.97820 0.18400 0.89310 -0.03600
C 	C 	0.96260 0.18400 0.95010 -0.02300
C 	C 	0.95310 0.03500 0.98100 -0.08200
C 	C 	0.96140 0.88780 0.95180 0.02900
C 	C 	0.97770 0.88500 0.89430 0.00900
C 	C 	0.93490 0.53600 0.81250 -0.08500
C 	C 	0.90220 0.45500 0.81940 -0.09100
C 	C 	0.88610 0.45900 0.87690 -0.02900
C 	C 	0.90180 0.54410 0.92880 -0.09300
C 	C 	0.93370 0.62130 0.92350 0.02700
C 	C 	0.94950 0.62240 0.86600 0.00400
C 	C 	0.95530 0.71370 0.97650 -0.10300
C 	C 	0.98470 0.71090 0.87010 -0.08200
Ag	Ag	0.87360 0.69413 0.76760 0.50100
H 	H 	0.04990 0.53860 0.87790 0.04200
H 	H 	0.07760 0.41360 0.97170 0.04400
H 	H 	0.05170 0.42370 0.06650 0.03400
H 	H 	0.99600 0.55700 0.07470 0.04500
H 	H 	0.99850 0.03390 0.82460 0.04000
H 	H 	0.98300 0.28790 0.87340 0.04500
H 	H 	0.95700 0.28810 0.96810 0.03900
H 	H 	0.94160 0.03630 0.02030 0.04700
H 	H 	0.94620 0.53310 0.77180 0.03000
H 	H 	0.89140 0.39540 0.78280 0.02900
H 	H 	0.86360 0.40450 0.88020 0.02800
H 	H 	0.89040 0.54850 0.96840 0.04800
H 	H 	0.94420 0.71490 0.01620 0.05600
H 	H 	0.99570 0.71150 0.82960 0.04800
C 	C 	0.67050 0.45000 0.68500 -0.13200
C 	C 	0.70490 0.51300 0.68580 -0.04700
C 	C 	0.72470 0.49800 0.63420 -0.04900
C 	C 	0.71230 0.41600 0.57930 -0.06100
C 	C 	0.67790 0.34680 0.57830 0.00500
C 	C 	0.65710 0.36280 0.63100 0.01800
C 	C 	0.65680 0.93200 0.52520 -0.06400
C 	C 	0.64570 0.79300 0.55610 -0.03600
C 	C 	0.62620 0.80700 0.61080 -0.02600
C 	C 	0.61770 0.96100 0.63360 -0.08000
C 	C 	0.62850 0.10390 0.60260 0.01700
C 	C 	0.64810 0.08820 0.54840 0.01300
C 	C 	0.61210 0.41100 0.44800 -0.06400
C 	C 	0.57920 0.49200 0.44290 -0.03500
C 	C 	0.55900 0.50700 0.49720 -0.02300
C 	C 	0.57180 0.44330 0.55630 -0.07500
C 	C 	0.60400 0.36520 0.56100 0.03000
C 	C 	0.62420 0.34750 0.50750 0.01200
C 	C 	0.62110 0.28240 0.62110 -0.10400
C 	C 	0.65880 0.25440 0.52180 -0.08100
Ag	Ag	0.69750 0.23832 0.75430 0.48500
H 	H 	0.65600 0.46760 0.72050 0.02500
H 	H 	0.71450 0.57140 0.72370 0.01800
H 	H 	0.74800 0.53820 0.63660 0.04400
H 	H 	0.72650 0.41020 0.54130 0.03700
H 	H 	0.67060 0.92340 0.48780 0.03500
H 	H 	0.65130 0.68370 0.54100 0.04300
H 	H 	0.61850 0.70890 0.63120 0.03600
H 	H 	0.60370 0.97160 0.67010 0.04000
H 	H 	0.62620 0.39780 0.41030 0.03300
H 	H 	0.57030 0.53890 0.40170 0.03300
H 	H 	0.53570 0.56050 0.49270 0.04100
H 	H 	0.55810 0.45270 0.59370 0.04700
H 	H 	0.60720 0.29120 0.65730 0.04900
H 	H 	0.67270 0.24430 0.48500 0.04600
C 	C 	0.53930 0.95420 0.41850 -0.06300
C 	C 	0.55550 0.02900 0.47460 -0.03900
C 	C 	0.54030 0.02200 0.52920 -0.01600
C 	C 	0.50760 0.94300 0.53520 -0.08200
C 	C 	0.49090 0.87170 0.48150 0.03200
C 	C 	0.50700 0.87350 0.42300 0.01400
C 	C 	0.48650 0.46500 0.36450 -0.06000
C 	C 	0.47820 0.31600 0.39310 -0.03500
C 	C 	0.46260 0.31600 0.45010 -0.02300
C 	C 	0.45310 0.46500 0.48100 -0.08000
C 	C 	0.46140 0.61220 0.45180 0.02900
C 	C 	0.47770 0.61500 0.39430 0.00900
C 	C 	0.43490 0.96400 0.31250 -0.08500
C 	C 	0.40220 0.04500 0.31940 -0.09200
C 	C 	0.38610 0.04100 0.37690 -0.02900
C 	C 	0.40180 0.95590 0.42880 -0.09300
C 	C 	0.43370 0.87870 0.42350 0.02700
C 	C 	0.44950 0.87760 0.36600 0.00400
C 	C 	0.45530 0.78630 0.47650 -0.10300
C 	C 	0.48470 0.78910 0.37010 -0.08000
Ag	Ag	0.37360 0.80587 0.26760 0.50100
H 	H 	0.54990 0.96140 0.37790 0.04100
H 	H 	0.57760 0.08640 0.47170 0.04500
H 	H 	0.55170 0.07630 0.56650 0.03400
H 	H 	0.49600 0.94300 0.57470 0.04800
H 	H 	0.49850 0.46610 0.32460 0.04000
H 	H 	0.48300 0.21210 0.37340 0.04500
H 	H 	0.45700 0.21190 0.46810 0.04000
H 	H 	0.44160 0.46370 0.52030 0.04600
H 	H 	0.44620 0.96690 0.27180 0.03000
H 	H 	0.39140 0.10460 0.28280 0.02900
H 	H 	0.36360 0.09550 0.38020 0.02800
H 	H 	0.39040 0.95150 0.46840 0.04800
H 	H 	0.44420 0.78510 0.51620 0.05600
H 	H 	0.49570 0.78850 0.32960 0.04700
C 	C 	0.17050 0.95000 0.68500 -0.13100
C 	C 	0.20490 0.01300 0.68580 -0.04800
C 	C 	0.22470 0.99800 0.63420 -0.04700
C 	C 	0.21230 0.91600 0.57930 -0.06200
C 	C 	0.17790 0.84680 0.57830 0.00600
C 	C 	0.15710 0.86280 0.63100 0.01700
C 	C 	0.15680 0.43200 0.52520 -0.06500
C 	C 	0.14570 0.29300 0.55610 -0.03600
C 	C 	0.12620 0.30700 0.61080 -0.02600
C 	C 	0.11770 0.46100 0.63360 -0.08000
C 	C 	0.12850 0.60390 0.60260 0.01700
C 	C 	0.14810 0.58820 0.54840 0.01300
C 	C 	0.11210 0.91100 0.44800 -0.06500
C 	C 	0.07920 0.99200 0.44290 -0.03300
C 	C 	0.05900 0.00700 0.49720 -0.02500
C 	C 	0.07180 0.94330 0.55630 -0.07300
C 	C 	0.10400 0.86520 0.56100 0.02900
C 	C 	0.12420 0.84750 0.50750 0.01300
C 	C 	0.12110 0.78240 0.62110 -0.10300
C 	C 	0.15880 0.75440 0.52180 -0.08200
Ag	Ag	0.19750 0.73832 0.75430 0.48500
H 	H 	0.15600 0.96760 0.72050 0.02400
H 	H 	0.21450 0.07140 0.72370 0.01800
H 	H 	0.24800 0.03820 0.63660 0.04400
H 	H 	0.22650 0.91020 0.54130 0.03700
H 	H 	0.17060 0.42340 0.48780 0.03500
H 	H 	0.15130 0.18370 0.54100 0.04200
H 	H 	0.11850 0.20890 0.63120 0.03600
H 	H 	0.10370 0.47160 0.67010 0.04000
H 	H 	0.12620 0.89780 0.41030 0.03300
H 	H 	0.07030 0.03890 0.40170 0.03200
H 	H 	0.03570 0.06050 0.49270 0.04200
H 	H 	0.05810 0.95270 0.59370 0.04700
H 	H 	0.10720 0.79120 0.65730 0.04900
H 	H 	0.17270 0.74430 0.48500 0.04600
C 	C 	0.03930 0.45420 0.41850 -0.06600
C 	C 	0.05550 0.52900 0.47460 -0.03500
C 	C 	0.04030 0.52200 0.52920 -0.02000
C 	C 	0.00760 0.44300 0.53520 -0.07700
C 	C 	0.99090 0.37170 0.48150 0.02700
C 	C 	0.00700 0.37350 0.42300 0.01900
C 	C 	0.98650 0.96500 0.36450 -0.06100
C 	C 	0.97820 0.81600 0.39310 -0.03400
C 	C 	0.96260 0.81600 0.45010 -0.02400
C 	C 	0.95310 0.96500 0.48100 -0.07900
C 	C 	0.96140 0.11220 0.45180 0.02700
C 	C 	0.97770 0.11500 0.39430 0.01000
C 	C 	0.93490 0.46400 0.31250 -0.08600
C 	C 	0.90220 0.54500 0.31940 -0.09100
C 	C 	0.88610 0.54100 0.37690 -0.02900
C 	C 	0.90180 0.45590 0.42880 -0.09200
C 	C 	0.93370 0.37870 0.42350 0.02600
C 	C 	0.94950 0.37760 0.36600 0.00500
C 	C 	0.95530 0.28630 0.47650 -0.10100
C 	C 	0.98470 0.28910 0.37010 -0.08300
Ag	Ag	0.87360 0.30587 0.26760 0.50100
H 	H 	0.04990 0.46140 0.37790 0.04200
H 	H 	0.07760 0.58640 0.47170 0.04400
H 	H 	0.05170 0.57630 0.56650 0.03500
H 	H 	0.99600 0.44300 0.57470 0.04500
H 	H 	0.99850 0.96610 0.32460 0.04000
H 	H 	0.98300 0.71210 0.37340 0.04400
H 	H 	0.95700 0.71190 0.46810 0.04000
H 	H 	0.94160 0.96370 0.52030 0.04600
H 	H 	0.94620 0.46690 0.27180 0.03000
H 	H 	0.89140 0.60460 0.28280 0.02900
H 	H 	0.86360 0.59550 0.38020 0.02800
H 	H 	0.89040 0.45150 0.46840 0.04800
H 	H 	0.94420 0.28510 0.51620 0.05500
H 	H 	0.99570 0.28850 0.32960 0.04800
C 	C 	0.37560 0.56200 0.71780 -0.08000
C 	C 	0.39860 0.48900 0.76520 -0.07500
C 	C 	0.38840 0.47400 0.82630 -0.06300
C 	C 	0.35520 0.53720 0.84280 -0.08500
C 	C 	0.33360 0.61120 0.79680 0.02000
C 	C 	0.34360 0.62460 0.73390 0.00600
C 	C 	0.31640 0.03800 0.69430 -0.08800
C 	C 	0.31030 0.18410 0.73140 -0.09300
C 	C 	0.30010 0.16900 0.79350 -0.04300
C 	C 	0.29540 0.01100 0.81940 -0.09100
C 	C 	0.30110 0.87170 0.78400 0.01100
C 	C 	0.31140 0.88440 0.72100 0.00800
C 	C 	0.26170 0.55500 0.64290 -0.07100
C 	C 	0.23130 0.47000 0.65730 -0.04100
C 	C 	0.22080 0.45300 0.71970 -0.06500
C 	C 	0.24160 0.51920 0.77180 -0.12200
C 	C 	0.27210 0.60810 0.75680 0.00500
C 	C 	0.28190 0.62270 0.69390 0.01100
C 	C 	0.29750 0.69230 0.80620 -0.09400
C 	C 	0.31640 0.71520 0.68950 -0.08300
H 	H 	0.38210 0.56650 0.67300 0.03400
H 	H 	0.42190 0.45170 0.75510 0.02400
H 	H 	0.40370 0.42000 0.85850 0.03200
H 	H 	0.34790 0.52670 0.88560 0.04600
H 	H 	0.32420 0.04800 0.65120 0.03400
H 	H 	0.31280 0.29130 0.71300 0.03500
H 	H 	0.29650 0.26420 0.81870 0.02900
H 	H 	0.28780 0.00170 0.86230 0.04100
H 	H 	0.26890 0.56120 0.59820 0.04100
H 	H 	0.21620 0.42180 0.62300 0.03900
H 	H 	0.19900 0.39710 0.72640 0.02000
H 	H 	0.23510 0.50460 0.81530 0.02700
H 	H 	0.29050 0.68190 0.84950 0.04500
H 	H 	0.32360 0.72430 0.64580 0.04700
C 	C 	0.87560 0.06200 0.71780 -0.08000
C 	C 	0.89860 0.98900 0.76520 -0.07600
C 	C 	0.88840 0.97400 0.82630 -0.06300
C 	C 	0.85520 0.03720 0.84280 -0.08500
C 	C 	0.83360 0.11120 0.79680 0.02000
C 	C 	0.84360 0.12460 0.73390 0.00600
C 	C 	0.81640 0.53800 0.69430 -0.08800
C 	C 	0.81030 0.68410 0.73140 -0.09300
C 	C 	0.80010 0.66900 0.79350 -0.04300
C 	C 	0.79540 0.51100 0.81940 -0.09100
C 	C 	0.80110 0.37170 0.78400 0.01100
C 	C 	0.81140 0.38440 0.72100 0.00700
C 	C 	0.76170 0.05500 0.64290 -0.07100
C 	C 	0.73130 0.97000 0.65730 -0.04100
C 	C 	0.72080 0.95300 0.71970 -0.06500
C 	C 	0.74160 0.01920 0.77180 -0.12200
C 	C 	0.77210 0.10810 0.75680 0.00500
C 	C 	0.78190 0.12270 0.69390 0.01100
C 	C 	0.79750 0.19230 0.80620 -0.09400
C 	C 	0.81640 0.21520 0.68950 -0.08300
H 	H 	0.88210 0.06650 0.67300 0.03400
H 	H 	0.92190 0.95170 0.75510 0.02400
H 	H 	0.90370 0.92000 0.85850 0.03200
H 	H 	0.84790 0.02670 0.88560 0.04600
H 	H 	0.82420 0.54800 0.65120 0.03300
H 	H 	0.81280 0.79130 0.71300 0.03500
H 	H 	0.79650 0.76420 0.81870 0.02900
H 	H 	0.78780 0.50170 0.86230 0.04100
H 	H 	0.76890 0.06120 0.59820 0.04100
H 	H 	0.71620 0.92180 0.62300 0.03900
H 	H 	0.69900 0.89710 0.72640 0.02000
H 	H 	0.73510 0.00460 0.81530 0.02700
H 	H 	0.79050 0.18190 0.84950 0.04600
H 	H 	0.82360 0.22430 0.64580 0.04700
C 	C 	0.37560 0.43800 0.21780 -0.08000
C 	C 	0.39860 0.51100 0.26520 -0.07600
C 	C 	0.38840 0.52600 0.32630 -0.06300
C 	C 	0.35520 0.46280 0.34280 -0.08500
C 	C 	0.33360 0.38880 0.29680 0.02000
C 	C 	0.34360 0.37540 0.23390 0.00600
C 	C 	0.31640 0.96200 0.19430 -0.08800
C 	C 	0.31030 0.81590 0.23140 -0.09300
C 	C 	0.30010 0.83100 0.29350 -0.04300
C 	C 	0.29540 0.98900 0.31940 -0.09100
C 	C 	0.30110 0.12830 0.28400 0.01100
C 	C 	0.31140 0.11560 0.22100 0.00800
C 	C 	0.26170 0.44500 0.14290 -0.07100
C 	C 	0.23130 0.53000 0.15730 -0.04100
C 	C 	0.22080 0.54700 0.21970 -0.06500
C 	C 	0.24160 0.48080 0.27180 -0.12200
C 	C 	0.27210 0.39190 0.25680 0.00500
C 	C 	0.28190 0.37730 0.19390 0.01100
C 	C 	0.29750 0.30770 0.30620 -0.09400
C 	C 	0.31640 0.28480 0.18950 -0.08300
H 	H 	0.38210 0.43350 0.17300 0.03400
H 	H 	0.42190 0.54830 0.25510 0.02400
H 	H 	0.40370 0.58000 0.35850 0.03200
H 	H 	0.34790 0.47330 0.38560 0.04600
H 	H 	0.32420 0.95200 0.15120 0.03400
H 	H 	0.31280 0.70870 0.21300 0.03500
H 	H 	0.29650 0.73580 0.31870 0.02900
H 	H 	0.28780 0.99830 0.36230 0.04100
H 	H 	0.26890 0.43880 0.09820 0.04200
H 	H 	0.21620 0.57820 0.12300 0.03900
H 	H 	0.19900 0.60290 0.22640 0.02000
H 	H 	0.23510 0.49540 0.31530 0.02700
H 	H 	0.29050 0.31810 0.34950 0.04600
H 	H 	0.32360 0.27570 0.14580 0.04700
C 	C 	0.87560 0.93800 0.21780 -0.08000
C 	C 	0.89860 0.01100 0.26520 -0.07600
C 	C 	0.88840 0.02600 0.32630 -0.06300
C 	C 	0.85520 0.96280 0.34280 -0.08500
C 	C 	0.83360 0.88880 0.29680 0.02000
C 	C 	0.84360 0.87540 0.23390 0.00600
C 	C 	0.81640 0.46200 0.19430 -0.08800
C 	C 	0.81030 0.31590 0.23140 -0.09300
C 	C 	0.80010 0.33100 0.29350 -0.04300
C 	C 	0.79540 0.48900 0.31940 -0.09100
C 	C 	0.80110 0.62830 0.28400 0.01100
C 	C 	0.81140 0.61560 0.22100 0.00700
C 	C 	0.76170 0.94500 0.14290 -0.07100
C 	C 	0.73130 0.03000 0.15730 -0.04100
C 	C 	0.72080 0.04700 0.21970 -0.06500
C 	C 	0.74160 0.98080 0.27180 -0.12200
C 	C 	0.77210 0.89190 0.25680 0.00500
C 	C 	0.78190 0.87730 0.19390 0.01100
C 	C 	0.79750 0.80770 0.30620 -0.09400
C 	C 	0.81640 0.78480 0.18950 -0.08300
H 	H 	0.88210 0.93350 0.17300 0.03400
H 	H 	0.92190 0.04830 0.25510 0.02400
H 	H 	0.90370 0.08000 0.35850 0.03200
H 	H 	0.84790 0.97330 0.38560 0.04600
H 	H 	0.82420 0.45200 0.15120 0.03400
H 	H 	0.81280 0.20870 0.21300 0.03500
H 	H 	0.79650 0.23580 0.31870 0.02900
H 	H 	0.78780 0.49830 0.36230 0.04100
H 	H 	0.76890 0.93880 0.09820 0.04200
H 	H 	0.71620 0.07820 0.12300 0.03900
H 	H 	0.69900 0.10290 0.22640 0.02000
H 	H 	0.73510 0.99540 0.31530 0.02700
H 	H 	0.79050 0.81810 0.34950 0.04600
H 	H 	0.82360 0.77570 0.14580 0.04700
