data_crystal

_cell_length_a 9.76690
_cell_length_b 19.13210
_cell_length_c 19.13900
_cell_angle_alpha 90.00000
_cell_angle_beta  90.00000
_cell_angle_gamma 90.00000

_symmetry_space_group_name_	'P 1'
_symmetry_space_group_name_H-M	'P 1'

loop_
_symmetry_equiv_pos_as_xyz
  x,y,z

loop_
_atom_site_label
_atom_site_type_symbol
_atom_site_fract_x
_atom_site_fract_y
_atom_site_fract_z
_atom_site_charge
U 	U 	0.98489 0.23478 0.24913 0.01200
U 	U 	0.28929 0.00314 0.74185 0.01500
P 	P 	0.07250 0.10782 0.11375 0.38500
P 	P 	0.37660 0.12444 0.87158 0.43200
P 	P 	0.41310 0.12749 0.61974 0.43200
P 	P 	0.11170 0.10901 0.37779 0.38900
O 	O 	0.98790 0.05110 0.07890 -0.21300
O 	O 	0.19190 0.07730 0.15440 -0.16500
O 	O 	0.98490 0.15550 0.15950 -0.16900
O 	O 	0.45570 0.17960 0.83230 -0.17600
O 	O 	0.47300 0.07310 0.90610 -0.42400
H 	H 	0.44400 0.03320 0.90060 0.31200
O 	O 	0.26960 0.08960 0.82380 -0.17400
O 	O 	0.48180 0.18140 0.66560 -0.17500
O 	O 	0.30160 0.08610 0.65570 -0.18100
O 	O 	0.52440 0.07960 0.59000 -0.42200
H 	H 	0.50400 0.03870 0.59740 0.31300
O 	O 	0.21880 0.07720 0.33030 -0.16800
O 	O 	0.01240 0.15520 0.33810 -0.17000
O 	O 	0.03820 0.05340 0.42020 -0.21800
C 	C 	0.14740 0.16090 0.04590 -0.01900
C 	C 	0.21680 0.12850 0.99110 -0.01300
H 	H 	0.21930 0.07990 0.98870 0.06700
C 	C 	0.28300 0.16820 0.93950 -0.02800
C 	C 	0.27580 0.23950 0.94370 -0.02100
H 	H 	0.31840 0.26650 0.90960 0.08000
C 	C 	0.20610 0.27290 0.99800 -0.02500
H 	H 	0.20150 0.32140 0.99980 0.07900
C 	C 	0.14370 0.23240 0.04950 -0.02700
H 	H 	0.09920 0.25420 0.08660 0.08500
C 	C 	0.33430 0.17020 0.54620 -0.02300
C 	C 	0.26230 0.13190 0.49820 -0.01500
H 	H 	0.25410 0.08390 0.50470 0.07000
C 	C 	0.20150 0.16220 0.44080 -0.01800
C 	C 	0.21520 0.23560 0.43240 -0.02900
H 	H 	0.17610 0.25760 0.39390 0.08800
C 	C 	0.28510 0.27380 0.48020 -0.02100
H 	H 	0.29330 0.32190 0.47410 0.07800
C 	C 	0.34440 0.24270 0.53780 -0.02400
H 	H 	0.39060 0.26960 0.57070 0.07900
U 	U 	0.51511 0.76522 0.74913 0.01300
U 	U 	0.21071 0.99686 0.24185 0.01600
P 	P 	0.42750 0.89218 0.61375 0.38700
P 	P 	0.12340 0.87556 0.37158 0.43200
P 	P 	0.08690 0.87251 0.11974 0.43200
P 	P 	0.38830 0.89099 0.87779 0.38900
O 	O 	0.51210 0.94890 0.57890 -0.21400
O 	O 	0.30810 0.92270 0.65440 -0.16500
O 	O 	0.51510 0.84450 0.65950 -0.17000
O 	O 	0.04430 0.82040 0.33230 -0.17500
O 	O 	0.02700 0.92690 0.40610 -0.42400
H 	H 	0.05600 0.96680 0.40060 0.31200
O 	O 	0.23040 0.91040 0.32380 -0.17400
O 	O 	0.01820 0.81860 0.16560 -0.17500
O 	O 	0.19840 0.91390 0.15570 -0.18100
O 	O 	0.97560 0.92040 0.09000 -0.42200
H 	H 	0.99600 0.96130 0.09740 0.31300
O 	O 	0.28120 0.92280 0.83030 -0.16700
O 	O 	0.48760 0.84480 0.83810 -0.17000
O 	O 	0.46180 0.94660 0.92020 -0.21700
C 	C 	0.35260 0.83910 0.54590 -0.01900
C 	C 	0.28320 0.87150 0.49110 -0.01300
H 	H 	0.28070 0.92010 0.48870 0.06700
C 	C 	0.21700 0.83180 0.43950 -0.02800
C 	C 	0.22420 0.76050 0.44370 -0.02100
H 	H 	0.18160 0.73350 0.40960 0.08000
C 	C 	0.29390 0.72710 0.49800 -0.02600
H 	H 	0.29850 0.67860 0.49980 0.07900
C 	C 	0.35630 0.76760 0.54950 -0.02600
H 	H 	0.40080 0.74580 0.58660 0.08500
C 	C 	0.16570 0.82980 0.04620 -0.02500
C 	C 	0.23770 0.86810 0.99820 -0.01100
H 	H 	0.24590 0.91610 0.00470 0.06800
C 	C 	0.29850 0.83780 0.94080 -0.01900
C 	C 	0.28480 0.76440 0.93240 -0.02900
H 	H 	0.32390 0.74240 0.89390 0.08800
C 	C 	0.21490 0.72620 0.98020 -0.02000
H 	H 	0.20670 0.67810 0.97410 0.07800
C 	C 	0.15560 0.75730 0.03780 -0.02400
H 	H 	0.10940 0.73040 0.07070 0.07900
U 	U 	0.01511 0.73478 0.25087 0.01300
U 	U 	0.71071 0.50314 0.75815 0.01600
P 	P 	0.92750 0.60782 0.38625 0.38600
P 	P 	0.62340 0.62444 0.62842 0.43200
P 	P 	0.58690 0.62749 0.88026 0.43200
P 	P 	0.88830 0.60901 0.12221 0.38900
O 	O 	0.01210 0.55110 0.42110 -0.21400
O 	O 	0.80810 0.57730 0.34560 -0.16500
O 	O 	0.01510 0.65550 0.34050 -0.16900
O 	O 	0.54430 0.67960 0.66770 -0.17600
O 	O 	0.52700 0.57310 0.59390 -0.42400
H 	H 	0.55600 0.53320 0.59940 0.31200
O 	O 	0.73040 0.58960 0.67620 -0.17400
O 	O 	0.51820 0.68140 0.83440 -0.17500
O 	O 	0.69840 0.58610 0.84430 -0.18100
O 	O 	0.47560 0.57960 0.91000 -0.42200
H 	H 	0.49600 0.53870 0.90260 0.31300
O 	O 	0.78120 0.57720 0.16970 -0.16800
O 	O 	0.98760 0.65520 0.16190 -0.17000
O 	O 	0.96180 0.55340 0.07980 -0.21700
C 	C 	0.85260 0.66090 0.45410 -0.01900
C 	C 	0.78320 0.62850 0.50890 -0.01300
H 	H 	0.78070 0.57990 0.51130 0.06700
C 	C 	0.71700 0.66820 0.56050 -0.02800
C 	C 	0.72420 0.73950 0.55630 -0.02100
H 	H 	0.68160 0.76650 0.59040 0.08000
C 	C 	0.79390 0.77290 0.50200 -0.02600
H 	H 	0.79850 0.82140 0.50020 0.07900
C 	C 	0.85630 0.73240 0.45050 -0.02600
H 	H 	0.90080 0.75420 0.41340 0.08400
C 	C 	0.66570 0.67020 0.95380 -0.02400
C 	C 	0.73770 0.63190 0.00180 -0.01400
H 	H 	0.74590 0.58390 0.99530 0.06900
C 	C 	0.79850 0.66220 0.05920 -0.01900
C 	C 	0.78480 0.73560 0.06760 -0.02900
H 	H 	0.82390 0.75760 0.10610 0.08800
C 	C 	0.71490 0.77380 0.01980 -0.02100
H 	H 	0.70670 0.82190 0.02590 0.07800
C 	C 	0.65560 0.74270 0.96220 -0.02400
H 	H 	0.60940 0.76960 0.92930 0.07900
U 	U 	0.48489 0.26522 0.75087 0.01300
U 	U 	0.78929 0.49686 0.25815 0.01600
P 	P 	0.57250 0.39218 0.88625 0.38700
P 	P 	0.87660 0.37556 0.12842 0.43200
P 	P 	0.91310 0.37251 0.38026 0.43200
P 	P 	0.61170 0.39099 0.62221 0.38900
O 	O 	0.48790 0.44890 0.92110 -0.21400
O 	O 	0.69190 0.42270 0.84560 -0.16500
O 	O 	0.48490 0.34450 0.84050 -0.17000
O 	O 	0.95570 0.32040 0.16770 -0.17600
O 	O 	0.97300 0.42690 0.09390 -0.42400
H 	H 	0.94400 0.46680 0.09940 0.31200
O 	O 	0.76960 0.41040 0.17620 -0.17400
O 	O 	0.98180 0.31860 0.33440 -0.17500
O 	O 	0.80160 0.41390 0.34430 -0.18100
O 	O 	0.02440 0.42040 0.41000 -0.42200
H 	H 	0.00400 0.46130 0.40260 0.31300
O 	O 	0.71880 0.42280 0.66970 -0.16800
O 	O 	0.51240 0.34480 0.66190 -0.17000
O 	O 	0.53820 0.44660 0.57980 -0.21700
C 	C 	0.64740 0.33910 0.95410 -0.01900
C 	C 	0.71680 0.37150 0.00890 -0.01200
H 	H 	0.71930 0.42010 0.01130 0.06700
C 	C 	0.78300 0.33180 0.06050 -0.02700
C 	C 	0.77580 0.26050 0.05630 -0.02200
H 	H 	0.81840 0.23350 0.09040 0.08000
C 	C 	0.70610 0.22710 0.00200 -0.02400
H 	H 	0.70150 0.17860 0.00020 0.07900
C 	C 	0.64370 0.26760 0.95050 -0.02800
H 	H 	0.59920 0.24580 0.91340 0.08500
C 	C 	0.83430 0.32980 0.45380 -0.02300
C 	C 	0.76230 0.36810 0.50180 -0.01500
H 	H 	0.75410 0.41610 0.49530 0.07000
C 	C 	0.70150 0.33780 0.55920 -0.01800
C 	C 	0.71520 0.26440 0.56760 -0.03000
H 	H 	0.67610 0.24240 0.60610 0.08800
C 	C 	0.78510 0.22620 0.51980 -0.02100
H 	H 	0.79330 0.17810 0.52590 0.07800
C 	C 	0.84440 0.25730 0.46220 -0.02400
H 	H 	0.89060 0.23040 0.42930 0.07900
