data_crystal

_cell_length_a 38.02800
_cell_length_b 9.64700
_cell_length_c 9.87100
_cell_angle_alpha 90.00000
_cell_angle_beta  97.49000
_cell_angle_gamma 90.00000

_symmetry_space_group_name_	'P 1'
_symmetry_space_group_name_H-M	'P 1'

loop_
_symmetry_equiv_pos_as_xyz
  x,y,z

loop_
_atom_site_label
_atom_site_type_symbol
_atom_site_fract_x
_atom_site_fract_y
_atom_site_fract_z
_atom_site_charge
Zn	Zn	0.28442 0.17537 0.40152 1.18800
N 	N 	0.26802 0.96900 0.75790 -0.28600
N 	N 	0.24357 0.15340 0.64620 -0.26800
N 	N 	0.26879 0.09780 0.57430 -0.26100
O 	O 	0.33050 0.23110 0.31400 -0.49600
O 	O 	0.33930 0.09600 0.45900 -0.51300
C 	C 	0.35090 0.15200 0.37750 0.57300
C 	C 	0.38760 0.15140 0.34850 -0.26100
C 	C 	0.41210 0.08570 0.44400 0.15100
H 	H 	0.40480 0.04530 0.52120 -0.00700
C 	C 	0.44760 0.08040 0.42420 -0.21000
H 	H 	0.46410 0.03640 0.48810 0.10000
C 	C 	0.45859 0.14070 0.30880 0.14800
C 	C 	0.43404 0.20640 0.21330 -0.21600
H 	H 	0.44140 0.24670 0.13610 0.10500
C 	C 	0.39854 0.21170 0.23320 0.16300
H 	H 	0.38210 0.25570 0.16930 -0.01300
C 	C 	0.49610 0.14460 0.29970 -0.08900
H 	H 	0.51270 0.14710 0.37760 0.05600
C 	C 	0.24465 0.07230 0.75550 0.10800
H 	H 	0.23040 0.08620 0.82410 -0.04200
C 	C 	0.28218 0.99070 0.64160 0.10500
H 	H 	0.29970 0.93480 0.61260 -0.02100
Zn	Zn	0.78442 0.67537 0.40152 1.18700
N 	N 	0.76802 0.46900 0.75790 -0.28700
N 	N 	0.74357 0.65340 0.64620 -0.26900
N 	N 	0.76879 0.59780 0.57430 -0.26200
O 	O 	0.83050 0.73110 0.31400 -0.49700
O 	O 	0.83930 0.59600 0.45900 -0.51400
C 	C 	0.85090 0.65200 0.37750 0.57300
C 	C 	0.88760 0.65140 0.34850 -0.26300
C 	C 	0.91210 0.58570 0.44400 0.15100
H 	H 	0.90480 0.54530 0.52120 -0.00900
C 	C 	0.94760 0.58040 0.42420 -0.21200
H 	H 	0.96410 0.53640 0.48810 0.10000
C 	C 	0.95859 0.64070 0.30880 0.14900
C 	C 	0.93404 0.70640 0.21330 -0.21900
H 	H 	0.94140 0.74670 0.13610 0.10500
C 	C 	0.89854 0.71170 0.23320 0.16400
H 	H 	0.88210 0.75570 0.16930 -0.01400
C 	C 	0.99610 0.64460 0.29970 -0.09300
H 	H 	0.01270 0.64710 0.37760 0.05700
C 	C 	0.74465 0.57230 0.75550 0.10800
H 	H 	0.73040 0.58620 0.82410 -0.04200
C 	C 	0.78218 0.49070 0.64160 0.10600
H 	H 	0.79970 0.43480 0.61260 -0.02100
Zn	Zn	0.71558 0.17537 0.09848 1.18700
N 	N 	0.73198 0.96900 0.74210 -0.28700
N 	N 	0.75643 0.15340 0.85380 -0.26900
N 	N 	0.73121 0.09780 0.92570 -0.26100
O 	O 	0.66950 0.23110 0.18600 -0.49700
O 	O 	0.66070 0.09600 0.04100 -0.51500
C 	C 	0.64910 0.15200 0.12250 0.57200
C 	C 	0.61240 0.15140 0.15150 -0.26300
C 	C 	0.58790 0.08570 0.05600 0.15000
H 	H 	0.59520 0.04530 0.97880 -0.00800
C 	C 	0.55240 0.08040 0.07580 -0.21200
H 	H 	0.53590 0.03640 0.01190 0.10000
C 	C 	0.54141 0.14070 0.19120 0.15000
C 	C 	0.56596 0.20640 0.28670 -0.21900
H 	H 	0.55860 0.24670 0.36390 0.10600
C 	C 	0.60146 0.21170 0.26680 0.16400
H 	H 	0.61790 0.25570 0.33070 -0.01400
C 	C 	0.50390 0.14460 0.20030 -0.09600
H 	H 	0.48730 0.14710 0.12240 0.05800
C 	C 	0.75535 0.07230 0.74450 0.10800
H 	H 	0.76960 0.08620 0.67590 -0.04200
C 	C 	0.71782 0.99070 0.85840 0.10500
H 	H 	0.70030 0.93480 0.88740 -0.02000
Zn	Zn	0.21558 0.67537 0.09848 1.18700
N 	N 	0.23198 0.46900 0.74210 -0.28700
N 	N 	0.25643 0.65340 0.85380 -0.26900
N 	N 	0.23121 0.59780 0.92570 -0.26200
O 	O 	0.16950 0.73110 0.18600 -0.49700
O 	O 	0.16070 0.59600 0.04100 -0.51400
C 	C 	0.14910 0.65200 0.12250 0.57300
C 	C 	0.11240 0.65140 0.15150 -0.26300
C 	C 	0.08790 0.58570 0.05600 0.15100
H 	H 	0.09520 0.54530 0.97880 -0.00900
C 	C 	0.05240 0.58040 0.07580 -0.21200
H 	H 	0.03590 0.53640 0.01190 0.10000
C 	C 	0.04141 0.64070 0.19120 0.14900
C 	C 	0.06596 0.70640 0.28670 -0.21900
H 	H 	0.05860 0.74670 0.36390 0.10500
C 	C 	0.10146 0.71170 0.26680 0.16400
H 	H 	0.11790 0.75570 0.33070 -0.01400
C 	C 	0.00390 0.64460 0.20030 -0.09300
H 	H 	0.98730 0.64710 0.12240 0.05700
C 	C 	0.25535 0.57230 0.74450 0.10800
H 	H 	0.26960 0.58620 0.67590 -0.04200
C 	C 	0.21782 0.49070 0.85840 0.10600
H 	H 	0.20030 0.43480 0.88740 -0.02100
Zn	Zn	0.71558 0.82463 0.59848 1.18700
N 	N 	0.73198 0.03100 0.24210 -0.28700
N 	N 	0.75643 0.84660 0.35380 -0.26900
N 	N 	0.73121 0.90220 0.42570 -0.26200
O 	O 	0.66950 0.76890 0.68600 -0.49700
O 	O 	0.66070 0.90400 0.54100 -0.51400
C 	C 	0.64910 0.84800 0.62250 0.57200
C 	C 	0.61240 0.84860 0.65150 -0.26200
C 	C 	0.58790 0.91430 0.55600 0.15000
H 	H 	0.59520 0.95470 0.47880 -0.00800
C 	C 	0.55240 0.91960 0.57580 -0.21100
H 	H 	0.53590 0.96360 0.51190 0.09900
C 	C 	0.54141 0.85930 0.69120 0.14700
C 	C 	0.56596 0.79360 0.78670 -0.21700
H 	H 	0.55860 0.75330 0.86390 0.10500
C 	C 	0.60146 0.78830 0.76680 0.16300
H 	H 	0.61790 0.74430 0.83070 -0.01300
C 	C 	0.50390 0.85540 0.70030 -0.08900
H 	H 	0.48730 0.85290 0.62240 0.05600
C 	C 	0.75535 0.92770 0.24450 0.10800
H 	H 	0.76960 0.91380 0.17590 -0.04200
C 	C 	0.71782 0.00930 0.35840 0.10500
H 	H 	0.70030 0.06520 0.38740 -0.02100
Zn	Zn	0.21558 0.32463 0.59848 1.18700
N 	N 	0.23198 0.53100 0.24210 -0.28700
N 	N 	0.25643 0.34660 0.35380 -0.26900
N 	N 	0.23121 0.40220 0.42570 -0.26200
O 	O 	0.16950 0.26890 0.68600 -0.49700
O 	O 	0.16070 0.40400 0.54100 -0.51400
C 	C 	0.14910 0.34800 0.62250 0.57300
C 	C 	0.11240 0.34860 0.65150 -0.26300
C 	C 	0.08790 0.41430 0.55600 0.15100
H 	H 	0.09520 0.45470 0.47880 -0.00900
C 	C 	0.05240 0.41960 0.57580 -0.21200
H 	H 	0.03590 0.46360 0.51190 0.10000
C 	C 	0.04141 0.35930 0.69120 0.14900
C 	C 	0.06596 0.29360 0.78670 -0.21900
H 	H 	0.05860 0.25330 0.86390 0.10500
C 	C 	0.10146 0.28830 0.76680 0.16400
H 	H 	0.11790 0.24430 0.83070 -0.01400
C 	C 	0.00390 0.35540 0.70030 -0.09300
H 	H 	0.98730 0.35290 0.62240 0.05700
C 	C 	0.25535 0.42770 0.24450 0.10800
H 	H 	0.26960 0.41380 0.17590 -0.04200
C 	C 	0.21782 0.50930 0.35840 0.10600
H 	H 	0.20030 0.56520 0.38740 -0.02100
Zn	Zn	0.28442 0.82463 0.90152 1.18700
N 	N 	0.26802 0.03100 0.25790 -0.28700
N 	N 	0.24357 0.84660 0.14620 -0.26900
N 	N 	0.26879 0.90220 0.07430 -0.26100
O 	O 	0.33050 0.76890 0.81400 -0.49700
O 	O 	0.33930 0.90400 0.95900 -0.51500
C 	C 	0.35090 0.84800 0.87750 0.57200
C 	C 	0.38760 0.84860 0.84850 -0.26300
C 	C 	0.41210 0.91430 0.94400 0.15000
H 	H 	0.40480 0.95470 0.02120 -0.00800
C 	C 	0.44760 0.91960 0.92420 -0.21200
H 	H 	0.46410 0.96360 0.98810 0.10000
C 	C 	0.45859 0.85930 0.80880 0.15000
C 	C 	0.43404 0.79360 0.71330 -0.21900
H 	H 	0.44140 0.75330 0.63610 0.10600
C 	C 	0.39854 0.78830 0.73320 0.16400
H 	H 	0.38210 0.74430 0.66930 -0.01400
C 	C 	0.49610 0.85540 0.79970 -0.09600
H 	H 	0.51270 0.85290 0.87760 0.05800
C 	C 	0.24465 0.92770 0.25550 0.10800
H 	H 	0.23040 0.91380 0.32410 -0.04200
C 	C 	0.28218 0.00930 0.14160 0.10500
H 	H 	0.29970 0.06520 0.11260 -0.02000
Zn	Zn	0.78442 0.32463 0.90152 1.18700
N 	N 	0.76802 0.53100 0.25790 -0.28700
N 	N 	0.74357 0.34660 0.14620 -0.26900
N 	N 	0.76879 0.40220 0.07430 -0.26200
O 	O 	0.83050 0.26890 0.81400 -0.49700
O 	O 	0.83930 0.40400 0.95900 -0.51400
C 	C 	0.85090 0.34800 0.87750 0.57300
C 	C 	0.88760 0.34860 0.84850 -0.26300
C 	C 	0.91210 0.41430 0.94400 0.15100
H 	H 	0.90480 0.45470 0.02120 -0.00900
C 	C 	0.94760 0.41960 0.92420 -0.21200
H 	H 	0.96410 0.46360 0.98810 0.10000
C 	C 	0.95859 0.35930 0.80880 0.14900
C 	C 	0.93404 0.29360 0.71330 -0.21900
H 	H 	0.94140 0.25330 0.63610 0.10500
C 	C 	0.89854 0.28830 0.73320 0.16400
H 	H 	0.88210 0.24430 0.66930 -0.01400
C 	C 	0.99610 0.35540 0.79970 -0.09300
H 	H 	0.01270 0.35290 0.87760 0.05700
C 	C 	0.74465 0.42770 0.25550 0.10800
H 	H 	0.73040 0.41380 0.32410 -0.04200
C 	C 	0.78218 0.50930 0.14160 0.10600
H 	H 	0.79970 0.56520 0.11260 -0.02100
