data_crystal

_cell_length_a 14.83000
_cell_length_b 18.76150
_cell_length_c 33.92000
_cell_angle_alpha 105.07700
_cell_angle_beta  90.00000
_cell_angle_gamma 113.28000

_symmetry_space_group_name_	'P 1'
_symmetry_space_group_name_H-M	'P 1'

loop_
_symmetry_equiv_pos_as_xyz
  x,y,z

loop_
_atom_site_label
_atom_site_type_symbol
_atom_site_fract_x
_atom_site_fract_y
_atom_site_fract_z
_atom_site_charge
Zn	Zn	0.03358 0.23104 0.56369 1.16600
Zn	Zn	0.97168 0.65802 0.73262 1.16400
Zn	Zn	0.26162 0.75328 0.92498 1.16400
Zn	Zn	0.19746 0.23104 0.06369 1.16500
Zn	Zn	0.68634 0.65802 0.23262 1.16400
Zn	Zn	0.49166 0.75328 0.42498 1.16400
H 	H 	0.24960 0.30120 0.58570 -0.02800
H 	H 	0.37350 0.40740 0.63190 0.09300
H 	H 	0.16960 0.46980 0.68850 0.09800
H 	H 	0.05080 0.36340 0.64070 -0.00800
H 	H 	0.83710 0.71860 0.77970 -0.01600
H 	H 	0.67200 0.69700 0.77700 0.08400
H 	H 	0.61690 0.53200 0.66810 0.08500
H 	H 	0.78840 0.56060 0.67260 -0.01900
H 	H 	0.17320 0.66000 0.83870 -0.01600
H 	H 	0.21760 0.59100 0.77790 0.08100
H 	H 	0.50240 0.72480 0.82390 0.09200
H 	H 	0.45080 0.77560 0.88410 0.00200
H 	H 	0.35480 0.67560 0.97000 -0.02300
H 	H 	0.48770 0.70820 0.01540 0.08500
H 	H 	0.59250 0.94120 0.00690 0.08600
H 	H 	0.44180 0.89020 0.95860 -0.02000
H 	H 	0.11430 0.11880 0.11220 -0.01800
H 	H 	0.96820 0.01620 0.11990 0.08600
H 	H 	0.85910 0.00720 0.00890 0.08300
H 	H 	0.99980 0.11900 0.00950 -0.01400
H 	H 	0.59670 0.62120 0.14390 -0.01000
H 	H 	0.61300 0.67820 0.09200 0.08800
H 	H 	0.82670 0.87960 0.16550 0.09600
H 	H 	0.79390 0.82380 0.21650 -0.02300
H 	H 	0.05160 0.30120 0.08570 -0.02900
H 	H 	0.03390 0.40740 0.13190 0.09300
H 	H 	0.30020 0.46980 0.18850 0.09800
H 	H 	0.31260 0.36340 0.14070 -0.00800
H 	H 	0.88150 0.71860 0.27970 -0.01500
H 	H 	0.02500 0.69700 0.27700 0.08400
H 	H 	0.91510 0.53200 0.16810 0.08500
H 	H 	0.77220 0.56060 0.17260 -0.01800
H 	H 	0.48680 0.66000 0.33870 -0.01600
H 	H 	0.37340 0.59100 0.27790 0.08100
H 	H 	0.22240 0.72480 0.32390 0.09200
H 	H 	0.32480 0.77560 0.38410 0.00200
H 	H 	0.32080 0.67560 0.47000 -0.02300
H 	H 	0.22050 0.70820 0.51540 0.08500
H 	H 	0.34870 0.94120 0.50690 0.08600
H 	H 	0.44840 0.89020 0.45860 -0.02000
H 	H 	0.00450 0.11880 0.61220 -0.01900
H 	H 	0.04800 0.01620 0.61990 0.08600
H 	H 	0.14810 0.00720 0.50890 0.08100
H 	H 	0.11920 0.11900 0.50950 -0.01400
H 	H 	0.02450 0.62120 0.64390 -0.00900
H 	H 	0.06520 0.67820 0.59200 0.08900
H 	H 	0.05290 0.87960 0.66550 0.09700
H 	H 	0.02990 0.82380 0.71650 -0.02200
C 	C 	0.23210 0.33640 0.60680 0.10600
C 	C 	0.30680 0.39960 0.63470 -0.14700
C 	C 	0.28580 0.45140 0.66630 0.07200
C 	C 	0.18900 0.43600 0.66740 -0.14100
C 	C 	0.11820 0.37260 0.63870 0.07800
C 	C 	0.35810 0.51340 0.69740 0.07200
C 	C 	0.79150 0.67800 0.75740 0.06900
C 	C 	0.69300 0.66540 0.75550 -0.12100
C 	C 	0.62490 0.60880 0.72360 0.06500
C 	C 	0.65990 0.56940 0.69190 -0.12500
C 	C 	0.76290 0.58580 0.69510 0.07800
C 	C 	0.51770 0.59120 0.72370 0.10400
C 	C 	0.24060 0.66940 0.83670 0.06900
C 	C 	0.26740 0.63140 0.79900 -0.11900
C 	C 	0.36550 0.65360 0.79360 0.05300
C 	C 	0.43380 0.70800 0.82630 -0.11900
C 	C 	0.40200 0.73760 0.86210 0.07200
C 	C 	0.39920 0.61360 0.75730 0.11100
C 	C 	0.40290 0.72980 0.97810 0.10000
C 	C 	0.48210 0.74800 0.00420 -0.13800
C 	C 	0.55710 0.82820 0.01460 0.05600
C 	C 	0.54590 0.88640 0.99970 -0.11600
C 	C 	0.45330 0.85460 0.97140 0.07500
C 	C 	0.64690 0.85080 0.04220 0.10100
C 	C 	0.05900 0.09860 0.09210 0.07700
C 	C 	0.97380 0.03540 0.09630 -0.11800
C 	C 	0.89710 0.00160 0.06460 0.07100
C 	C 	0.90880 0.03140 0.03170 -0.13200
C 	C 	0.99380 0.09720 0.03210 0.08700
C 	C 	0.80540 0.93300 0.06590 0.10000
C 	C 	0.64460 0.67500 0.14820 0.07600
C 	C 	0.65100 0.70800 0.11800 -0.13400
C 	C 	0.71880 0.79200 0.12640 0.08400
C 	C 	0.77490 0.82740 0.16110 -0.16400
C 	C 	0.76080 0.79160 0.18990 0.10000
C 	C 	0.71870 0.83400 0.09510 0.09800
C 	C 	0.10430 0.33640 0.10680 0.10600
C 	C 	0.09280 0.39960 0.13470 -0.14700
C 	C 	0.16560 0.45140 0.16630 0.07200
C 	C 	0.24700 0.43600 0.16740 -0.14100
C 	C 	0.25440 0.37260 0.13870 0.07800
C 	C 	0.15530 0.51340 0.19740 0.07200
C 	C 	0.88650 0.67800 0.25740 0.06800
C 	C 	0.97240 0.66540 0.25550 -0.12100
C 	C 	0.98390 0.60880 0.22360 0.06600
C 	C 	0.90950 0.56940 0.19190 -0.12500
C 	C 	0.82290 0.58580 0.19510 0.07800
C 	C 	0.07350 0.59120 0.22370 0.10300
C 	C 	0.42880 0.66940 0.33670 0.06900
C 	C 	0.36400 0.63140 0.29900 -0.11900
C 	C 	0.28810 0.65360 0.29360 0.05300
C 	C 	0.27420 0.70800 0.32630 -0.11900
C 	C 	0.33560 0.73760 0.36210 0.07200
C 	C 	0.21440 0.61360 0.25730 0.11100
C 	C 	0.32690 0.72980 0.47810 0.10000
C 	C 	0.26590 0.74800 0.50420 -0.13700
C 	C 	0.27110 0.82820 0.51460 0.05600
C 	C 	0.34050 0.88640 0.49970 -0.11500
C 	C 	0.40130 0.85460 0.47140 0.07500
C 	C 	0.20390 0.85080 0.54220 0.10100
C 	C 	0.03960 0.09860 0.59210 0.08100
C 	C 	0.06160 0.03540 0.59630 -0.12100
C 	C 	0.10450 0.00160 0.56460 0.06700
C 	C 	0.12260 0.03140 0.53170 -0.13000
C 	C 	0.10340 0.09720 0.53210 0.08300
C 	C 	0.12760 0.93300 0.56590 0.10400
C 	C 	0.03040 0.67500 0.64820 0.07600
C 	C 	0.05700 0.70800 0.61800 -0.13400
C 	C 	0.07320 0.79200 0.62640 0.08500
C 	C 	0.05250 0.82740 0.66110 -0.16400
C 	C 	0.03080 0.79160 0.68990 0.10000
C 	C 	0.11530 0.83400 0.59510 0.09800
I 	I 	0.07195 0.26904 0.49721 -0.36500
I 	I 	0.86970 0.20252 0.59286 -0.38400
I 	I 	0.00291 0.53132 0.71000 -0.38300
I 	I 	0.04934 0.75762 0.80261 -0.38300
I 	I 	0.12313 0.62800 0.93812 -0.36400
I 	I 	0.24033 0.87566 0.92441 -0.38600
I 	I 	0.19709 0.26904 0.99721 -0.36400
I 	I 	0.33282 0.20252 0.09286 -0.38600
I 	I 	0.52841 0.53132 0.21000 -0.38500
I 	I 	0.70828 0.75762 0.30261 -0.38500
I 	I 	0.50487 0.62800 0.43812 -0.36500
I 	I 	0.63533 0.87566 0.42441 -0.38700
N 	N 	0.13990 0.32260 0.60770 -0.28600
N 	N 	0.82280 0.63420 0.72830 -0.27600
N 	N 	0.30630 0.71660 0.86850 -0.27300
N 	N 	0.45830 0.53100 0.69240 -0.13200
N 	N 	0.49330 0.63680 0.75550 -0.13800
N 	N 	0.32970 0.55520 0.72940 -0.14100
N 	N 	0.38870 0.78180 0.96340 -0.28100
N 	N 	0.06810 0.13220 0.06210 -0.28100
N 	N 	0.70200 0.71240 0.18560 -0.27900
N 	N 	0.72860 0.91280 0.03900 -0.13900
N 	N 	0.80670 0.89820 0.09590 -0.13000
N 	N 	0.63980 0.80940 0.06890 -0.13500
N 	N 	0.18270 0.32260 0.10770 -0.28600
N 	N 	0.81140 0.63420 0.22830 -0.27600
N 	N 	0.41030 0.71660 0.36850 -0.27300
N 	N 	0.07270 0.53100 0.19240 -0.13200
N 	N 	0.14350 0.63680 0.25550 -0.13800
N 	N 	0.22550 0.55520 0.22940 -0.14100
N 	N 	0.39310 0.78180 0.46340 -0.28100
N 	N 	0.06410 0.13220 0.56210 -0.28000
N 	N 	0.01040 0.71240 0.68560 -0.27800
N 	N 	0.18420 0.91280 0.53900 -0.13900
N 	N 	0.09150 0.89820 0.59590 -0.13000
N 	N 	0.16960 0.80940 0.56890 -0.13500
Zn	Zn	0.80254 0.76896 0.93631 1.16500
Zn	Zn	0.31366 0.34198 0.76738 1.16400
Zn	Zn	0.50834 0.24672 0.57502 1.16400
Zn	Zn	0.96642 0.76896 0.43631 1.16500
Zn	Zn	0.02832 0.34198 0.26738 1.16300
Zn	Zn	0.73838 0.24672 0.07502 1.16400
H 	H 	0.94840 0.69880 0.91430 -0.02900
H 	H 	0.96610 0.59260 0.86810 0.09300
H 	H 	0.69980 0.53020 0.81150 0.09800
H 	H 	0.68740 0.63660 0.85930 -0.00800
H 	H 	0.11850 0.28140 0.72030 -0.01500
H 	H 	0.97500 0.30300 0.72300 0.08400
H 	H 	0.08490 0.46800 0.83190 0.08500
H 	H 	0.22780 0.43940 0.82740 -0.01800
H 	H 	0.51320 0.34000 0.66130 -0.01600
H 	H 	0.62660 0.40900 0.72210 0.08100
H 	H 	0.77760 0.27520 0.67610 0.09200
H 	H 	0.67520 0.22440 0.61590 0.00200
H 	H 	0.67920 0.32440 0.53000 -0.02300
H 	H 	0.77950 0.29180 0.48460 0.08500
H 	H 	0.65130 0.05880 0.49310 0.08600
H 	H 	0.55160 0.10980 0.54140 -0.02000
H 	H 	0.99550 0.88120 0.38780 -0.01900
H 	H 	0.95200 0.98380 0.38010 0.08600
H 	H 	0.85190 0.99280 0.49110 0.08100
H 	H 	0.88080 0.88100 0.49050 -0.01400
H 	H 	0.97550 0.37880 0.35610 -0.00900
H 	H 	0.93480 0.32180 0.40800 0.08900
H 	H 	0.94710 0.12040 0.33450 0.09700
H 	H 	0.97010 0.17620 0.28350 -0.02200
H 	H 	0.75040 0.69880 0.41430 -0.02800
H 	H 	0.62650 0.59260 0.36810 0.09300
H 	H 	0.83040 0.53020 0.31150 0.09800
H 	H 	0.94920 0.63660 0.35930 -0.00800
H 	H 	0.16290 0.28140 0.22030 -0.01600
H 	H 	0.32800 0.30300 0.22300 0.08400
H 	H 	0.38310 0.46800 0.33190 0.08500
H 	H 	0.21160 0.43940 0.32740 -0.01900
H 	H 	0.82680 0.34000 0.16130 -0.01600
H 	H 	0.78240 0.40900 0.22210 0.08100
H 	H 	0.49760 0.27520 0.17610 0.09200
H 	H 	0.54920 0.22440 0.11590 0.00200
H 	H 	0.64520 0.32440 0.03000 -0.02300
H 	H 	0.51230 0.29180 0.98460 0.08500
H 	H 	0.40750 0.05880 0.99310 0.08600
H 	H 	0.55820 0.10980 0.04140 -0.02000
H 	H 	0.88570 0.88120 0.88780 -0.01800
H 	H 	0.03180 0.98380 0.88010 0.08600
H 	H 	0.14090 0.99280 0.99110 0.08300
H 	H 	0.00020 0.88100 0.99050 -0.01400
H 	H 	0.40330 0.37880 0.85610 -0.01000
H 	H 	0.38700 0.32180 0.90800 0.08800
H 	H 	0.17330 0.12040 0.83450 0.09600
H 	H 	0.20610 0.17620 0.78350 -0.02300
C 	C 	0.89570 0.66360 0.89320 0.10600
C 	C 	0.90720 0.60040 0.86530 -0.14700
C 	C 	0.83440 0.54860 0.83370 0.07200
C 	C 	0.75300 0.56400 0.83260 -0.14100
C 	C 	0.74560 0.62740 0.86130 0.07800
C 	C 	0.84470 0.48660 0.80260 0.07200
C 	C 	0.11350 0.32200 0.74260 0.06800
C 	C 	0.02760 0.33460 0.74450 -0.12100
C 	C 	0.01610 0.39120 0.77640 0.06600
C 	C 	0.09050 0.43060 0.80810 -0.12500
C 	C 	0.17710 0.41420 0.80490 0.07800
C 	C 	0.92650 0.40880 0.77630 0.10300
C 	C 	0.57120 0.33060 0.66330 0.06900
C 	C 	0.63600 0.36860 0.70100 -0.11900
C 	C 	0.71190 0.34640 0.70640 0.05300
C 	C 	0.72580 0.29200 0.67370 -0.11900
C 	C 	0.66440 0.26240 0.63790 0.07200
C 	C 	0.78560 0.38640 0.74270 0.11100
C 	C 	0.67310 0.27020 0.52190 0.10000
C 	C 	0.73410 0.25200 0.49580 -0.13700
C 	C 	0.72890 0.17180 0.48540 0.05600
C 	C 	0.65950 0.11360 0.50030 -0.11500
C 	C 	0.59870 0.14540 0.52860 0.07500
C 	C 	0.79610 0.14920 0.45780 0.10100
C 	C 	0.96040 0.90140 0.40790 0.08100
C 	C 	0.93840 0.96460 0.40370 -0.12100
C 	C 	0.89550 0.99840 0.43540 0.06700
C 	C 	0.87740 0.96860 0.46830 -0.13000
C 	C 	0.89660 0.90280 0.46790 0.08300
C 	C 	0.87240 0.06700 0.43410 0.10400
C 	C 	0.96960 0.32500 0.35180 0.07600
C 	C 	0.94300 0.29200 0.38200 -0.13400
C 	C 	0.92680 0.20800 0.37360 0.08500
C 	C 	0.94750 0.17260 0.33890 -0.16400
C 	C 	0.96920 0.20840 0.31010 0.10000
C 	C 	0.88470 0.16600 0.40490 0.09800
C 	C 	0.76790 0.66360 0.39320 0.10600
C 	C 	0.69320 0.60040 0.36530 -0.14700
C 	C 	0.71420 0.54860 0.33370 0.07200
C 	C 	0.81100 0.56400 0.33260 -0.14100
C 	C 	0.88180 0.62740 0.36130 0.07800
C 	C 	0.64190 0.48660 0.30260 0.07200
C 	C 	0.20850 0.32200 0.24260 0.06900
C 	C 	0.30700 0.33460 0.24450 -0.12100
C 	C 	0.37510 0.39120 0.27640 0.06500
C 	C 	0.34010 0.43060 0.30810 -0.12500
C 	C 	0.23710 0.41420 0.30490 0.07800
C 	C 	0.48230 0.40880 0.27630 0.10400
C 	C 	0.75940 0.33060 0.16330 0.06900
C 	C 	0.73260 0.36860 0.20100 -0.11900
C 	C 	0.63450 0.34640 0.20640 0.05300
C 	C 	0.56620 0.29200 0.17370 -0.11900
C 	C 	0.59800 0.26240 0.13790 0.07200
C 	C 	0.60080 0.38640 0.24270 0.11100
C 	C 	0.59710 0.27020 0.02190 0.10000
C 	C 	0.51790 0.25200 0.99580 -0.13800
C 	C 	0.44290 0.17180 0.98540 0.05600
C 	C 	0.45410 0.11360 0.00030 -0.11600
C 	C 	0.54670 0.14540 0.02860 0.07500
C 	C 	0.35310 0.14920 0.95780 0.10100
C 	C 	0.94100 0.90140 0.90790 0.07700
C 	C 	0.02620 0.96460 0.90370 -0.11800
C 	C 	0.10290 0.99840 0.93540 0.07100
C 	C 	0.09120 0.96860 0.96830 -0.13200
C 	C 	0.00620 0.90280 0.96790 0.08700
C 	C 	0.19460 0.06700 0.93410 0.10000
C 	C 	0.35540 0.32500 0.85180 0.07600
C 	C 	0.34900 0.29200 0.88200 -0.13400
C 	C 	0.28120 0.20800 0.87360 0.08400
C 	C 	0.22510 0.17260 0.83890 -0.16400
C 	C 	0.23920 0.20840 0.81010 0.10000
C 	C 	0.28130 0.16600 0.90490 0.09800
I 	I 	0.80291 0.73096 0.00279 -0.36400
I 	I 	0.66718 0.79748 0.90714 -0.38600
I 	I 	0.47159 0.46868 0.79000 -0.38500
I 	I 	0.29172 0.24238 0.69739 -0.38500
I 	I 	0.49513 0.37200 0.56188 -0.36500
I 	I 	0.36467 0.12434 0.57559 -0.38700
I 	I 	0.92805 0.73096 0.50279 -0.36500
I 	I 	0.13030 0.79748 0.40714 -0.38400
I 	I 	0.99709 0.46868 0.29000 -0.38300
I 	I 	0.95066 0.24238 0.19739 -0.38300
I 	I 	0.87687 0.37200 0.06188 -0.36400
I 	I 	0.75967 0.12434 0.07559 -0.38600
N 	N 	0.81730 0.67740 0.89230 -0.28600
N 	N 	0.18860 0.36580 0.77170 -0.27600
N 	N 	0.58970 0.28340 0.63150 -0.27300
N 	N 	0.92730 0.46900 0.80760 -0.13200
N 	N 	0.85650 0.36320 0.74450 -0.13800
N 	N 	0.77450 0.44480 0.77060 -0.14100
N 	N 	0.60690 0.21820 0.53660 -0.28100
N 	N 	0.93590 0.86780 0.43790 -0.28000
N 	N 	0.98960 0.28760 0.31440 -0.27800
N 	N 	0.81580 0.08720 0.46100 -0.13900
N 	N 	0.90850 0.10180 0.40410 -0.13000
N 	N 	0.83040 0.19060 0.43110 -0.13500
N 	N 	0.86010 0.67740 0.39230 -0.28600
N 	N 	0.17720 0.36580 0.27170 -0.27600
N 	N 	0.69370 0.28340 0.13150 -0.27300
N 	N 	0.54170 0.46900 0.30760 -0.13200
N 	N 	0.50670 0.36320 0.24450 -0.13800
N 	N 	0.67030 0.44480 0.27060 -0.14100
N 	N 	0.61130 0.21820 0.03660 -0.28100
N 	N 	0.93190 0.86780 0.93790 -0.28100
N 	N 	0.29800 0.28760 0.81440 -0.27900
N 	N 	0.27140 0.08720 0.96100 -0.13900
N 	N 	0.19330 0.10180 0.90410 -0.13000
N 	N 	0.36020 0.19060 0.93110 -0.13500
