data_crystal

_cell_length_a 10.33400
_cell_length_b 15.97140
_cell_length_c 25.30740
_cell_angle_alpha 90.00000
_cell_angle_beta  93.27700
_cell_angle_gamma 90.00000

_symmetry_space_group_name_	'P 1'
_symmetry_space_group_name_H-M	'P 1'

loop_
_symmetry_equiv_pos_as_xyz
  x,y,z

loop_
_atom_site_label
_atom_site_type_symbol
_atom_site_fract_x
_atom_site_fract_y
_atom_site_fract_z
_atom_site_charge
Cu	Cu	0.76038 0.21429 0.83324 0.84800
N 	N 	0.06880 0.99030 0.92362 -0.24400
N 	N 	0.16490 0.07100 0.02472 -0.34300
C 	C 	0.01010 0.94660 0.88207 0.01800
C 	C 	0.08950 0.95510 0.83740 0.05800
H 	H 	0.07200 0.93170 0.80320 0.01400
C 	C 	0.19370 0.00250 0.85280 -0.20600
H 	H 	0.26220 0.01830 0.83140 0.08100
C 	C 	0.18170 0.02480 0.90766 0.08500
C 	C 	0.27060 0.07180 0.93985 -0.19700
C 	C 	0.26130 0.09380 0.99313 0.17800
C 	C 	0.34970 0.14770 0.02420 -0.17300
H 	H 	0.42630 0.17280 0.01230 0.05500
C 	C 	0.30420 0.15590 0.07240 -0.06000
H 	H 	0.34260 0.18780 0.10090 0.04300
C 	C 	0.18650 0.10750 0.07346 0.08900
C 	C 	0.89370 0.90100 0.88350 -0.08200
C 	C 	0.85420 0.85470 0.83376 0.09200
C 	C 	0.74010 0.87450 0.80421 -0.14500
H 	H 	0.68140 0.91460 0.81680 0.09000
C 	C 	0.71420 0.83460 0.75630 0.08200
H 	H 	0.63770 0.84960 0.73600 -0.01300
N 	N 	0.79110 0.77580 0.73701 -0.22700
C 	C 	0.89770 0.75350 0.76760 0.04800
H 	H 	0.95110 0.70990 0.75560 0.00500
C 	C 	0.93190 0.79130 0.81540 -0.08000
H 	H 	0.00770 0.77420 0.83550 0.03000
C 	C 	0.38740 0.10340 0.91350 0.15700
C 	C 	0.51120 0.07310 0.92680 -0.19900
H 	H 	0.52320 0.02990 0.95240 0.08500
C 	C 	0.61680 0.10580 0.90260 0.09400
H 	H 	0.70050 0.08420 0.91230 -0.05100
N 	N 	0.60580 0.16720 0.86601 -0.26400
C 	C 	0.48620 0.19530 0.85320 0.09600
H 	H 	0.47640 0.23810 0.82720 -0.02900
C 	C 	0.37650 0.16600 0.87540 -0.20000
H 	H 	0.29400 0.18850 0.86480 0.09100
N 	N 	0.89370 0.27700 0.87743 -0.26300
C 	C 	0.99490 0.23580 0.89910 0.14700
H 	H 	0.99690 0.17660 0.89570 -0.05100
C 	C 	0.09780 0.27530 0.92630 -0.23300
H 	H 	0.16770 0.24320 0.94160 0.10700
C 	C 	0.09840 0.36140 0.93100 0.10200
C 	C 	0.99110 0.40460 0.91020 -0.12800
H 	H 	0.98620 0.46380 0.91360 0.08300
C 	C 	0.89080 0.36030 0.88450 0.07700
H 	H 	0.81650 0.39030 0.87120 -0.02400
C 	C 	0.21640 0.40580 0.95380 -0.08400
C 	C 	0.23770 0.40660 0.00860 0.00600
C 	C 	0.15600 0.37050 0.04660 -0.04500
H 	H 	0.07520 0.34350 0.03890 0.01300
C 	C 	0.21480 0.38200 0.09560 -0.10700
H 	H 	0.18330 0.36350 0.12820 0.06000
C 	C 	0.33380 0.42730 0.08910 0.09300
C 	C 	0.42440 0.45320 0.12940 -0.16100
C 	C 	0.54130 0.49730 0.12260 0.08500
C 	C 	0.62740 0.53000 0.16400 -0.07700
H 	H 	0.61670 0.52540 0.20090 0.05500
C 	C 	0.72600 0.56830 0.14120 -0.09300
H 	H 	0.79770 0.59520 0.15920 0.06700
C 	C 	0.29610 0.43860 0.91490 0.06000
C 	C 	0.40010 0.42860 0.18511 0.13700
C 	C 	0.28940 0.45360 0.20970 -0.18100
H 	H 	0.22670 0.48820 0.19150 0.08300
C 	C 	0.27210 0.42760 0.26080 0.08800
H 	H 	0.19670 0.44620 0.27710 -0.02600
N 	N 	0.35410 0.37810 0.28868 -0.23400
C 	C 	0.46250 0.35570 0.26550 0.08500
H 	H 	0.52460 0.32230 0.28500 -0.01700
C 	C 	0.48770 0.37940 0.21420 -0.17900
H 	H 	0.56530 0.36170 0.19920 0.08400
N 	N 	0.41060 0.48150 0.92477 -0.28000
N 	N 	0.34430 0.44130 0.03592 -0.28900
Cu	Cu	0.73962 0.71429 0.66676 0.85000
N 	N 	0.43120 0.49030 0.57638 -0.29300
N 	N 	0.33510 0.57100 0.47528 -0.29100
C 	C 	0.48990 0.44660 0.61793 0.08600
C 	C 	0.41050 0.45510 0.66260 -0.08300
H 	H 	0.42800 0.43170 0.69680 0.05600
C 	C 	0.30630 0.50250 0.64720 -0.07600
H 	H 	0.23780 0.51830 0.66860 0.04800
C 	C 	0.31830 0.52480 0.59234 0.07700
C 	C 	0.22940 0.57180 0.56015 -0.14000
C 	C 	0.23870 0.59380 0.50687 0.07300
C 	C 	0.15030 0.64770 0.47580 -0.07300
H 	H 	0.07370 0.67280 0.48770 0.03500
C 	C 	0.19580 0.65590 0.42760 -0.08700
H 	H 	0.15740 0.68780 0.39910 0.05300
C 	C 	0.31350 0.60750 0.42654 0.08900
C 	C 	0.60630 0.40100 0.61650 -0.15700
C 	C 	0.64580 0.35470 0.66624 0.13600
C 	C 	0.75990 0.37450 0.69579 -0.17800
H 	H 	0.81860 0.41460 0.68320 0.09000
C 	C 	0.78580 0.33460 0.74370 0.09200
H 	H 	0.86230 0.34960 0.76400 -0.01800
N 	N 	0.70890 0.27580 0.76299 -0.24000
C 	C 	0.60230 0.25350 0.73240 0.08700
H 	H 	0.54890 0.20990 0.74440 -0.02500
C 	C 	0.56810 0.29130 0.68460 -0.18000
H 	H 	0.49230 0.27420 0.66450 0.07800
C 	C 	0.11260 0.60340 0.58650 0.07000
C 	C 	0.98880 0.57310 0.57320 -0.11000
H 	H 	0.97680 0.52990 0.54760 0.07100
C 	C 	0.88320 0.60580 0.59740 0.06300
H 	H 	0.79950 0.58420 0.58770 -0.03600
N 	N 	0.89420 0.66720 0.63399 -0.23100
C 	C 	0.01380 0.69530 0.64680 0.02800
H 	H 	0.02360 0.73810 0.67280 -0.01500
C 	C 	0.12350 0.66600 0.62460 -0.14100
H 	H 	0.20600 0.68850 0.63520 0.07300
N 	N 	0.60630 0.77700 0.62257 -0.26200
C 	C 	0.50510 0.73580 0.60090 0.09600
H 	H 	0.50310 0.67660 0.60430 -0.04700
C 	C 	0.40220 0.77530 0.57370 -0.20400
H 	H 	0.33230 0.74320 0.55840 0.09200
C 	C 	0.40160 0.86140 0.56900 0.15400
C 	C 	0.50890 0.90460 0.58980 -0.19300
H 	H 	0.51380 0.96380 0.58640 0.10700
C 	C 	0.60920 0.86030 0.61550 0.09500
H 	H 	0.68350 0.89030 0.62880 -0.01800
C 	C 	0.28360 0.90580 0.54620 -0.16500
C 	C 	0.26230 0.90660 0.49140 0.09300
C 	C 	0.34400 0.87050 0.45340 -0.06700
H 	H 	0.42480 0.84350 0.46110 0.05000
C 	C 	0.28520 0.88200 0.40440 -0.09900
H 	H 	0.31670 0.86350 0.37180 0.06600
C 	C 	0.16620 0.92730 0.41090 0.12700
C 	C 	0.07560 0.95320 0.37060 -0.23800
C 	C 	0.95870 0.99730 0.37740 0.24700
C 	C 	0.87260 0.03000 0.33600 -0.21400
H 	H 	0.88330 0.02540 0.29910 0.08900
C 	C 	0.77400 0.06830 0.35880 -0.02200
H 	H 	0.70230 0.09520 0.34080 0.03000
C 	C 	0.20390 0.93860 0.58510 0.11200
C 	C 	0.09990 0.92860 0.31489 0.19100
C 	C 	0.21060 0.95360 0.29030 -0.20600
H 	H 	0.27330 0.98820 0.30850 0.11200
C 	C 	0.22790 0.92760 0.23920 0.10900
H 	H 	0.30330 0.94620 0.22290 -0.01500
N 	N 	0.14590 0.87810 0.21132 -0.23200
C 	C 	0.03750 0.85570 0.23450 0.06600
H 	H 	0.97540 0.82230 0.21500 0.01600
C 	C 	0.01230 0.87940 0.28580 -0.24300
H 	H 	0.93470 0.86170 0.30080 0.13200
N 	N 	0.08940 0.98150 0.57523 -0.24200
N 	N 	0.15570 0.94130 0.46408 -0.28900
Cu	Cu	0.23962 0.78571 0.16676 0.84600
N 	N 	0.93120 0.00970 0.07638 -0.32300
N 	N 	0.83510 0.92900 0.97528 -0.22700
C 	C 	0.98990 0.05340 0.11793 0.16600
C 	C 	0.91050 0.04490 0.16260 -0.20800
H 	H 	0.92800 0.06830 0.19680 0.09900
C 	C 	0.80630 0.99750 0.14720 0.03400
H 	H 	0.73780 0.98170 0.16860 0.03200
C 	C 	0.81830 0.97520 0.09234 0.08800
C 	C 	0.72940 0.92820 0.06015 -0.11900
C 	C 	0.73870 0.90620 0.00687 -0.00500
C 	C 	0.65030 0.85230 0.97580 0.01700
H 	H 	0.57370 0.82720 0.98770 0.03300
C 	C 	0.69580 0.84410 0.92760 -0.10600
H 	H 	0.65740 0.81220 0.89910 0.06800
C 	C 	0.81350 0.89250 0.92654 0.09100
C 	C 	0.10630 0.09900 0.11650 -0.24000
C 	C 	0.14580 0.14530 0.16624 0.18900
C 	C 	0.25990 0.12550 0.19579 -0.21900
H 	H 	0.31860 0.08540 0.18320 0.08400
C 	C 	0.28580 0.16540 0.24370 0.10400
H 	H 	0.36230 0.15040 0.26400 -0.03600
N 	N 	0.20890 0.22420 0.26299 -0.25700
C 	C 	0.10230 0.24650 0.23240 0.13400
H 	H 	0.04890 0.29010 0.24440 -0.05000
C 	C 	0.06810 0.20870 0.18460 -0.29500
H 	H 	0.99230 0.22580 0.16450 0.14600
C 	C 	0.61260 0.89660 0.08650 0.12000
C 	C 	0.48880 0.92690 0.07320 -0.18000
H 	H 	0.47680 0.97010 0.04760 0.08900
C 	C 	0.38320 0.89420 0.09740 0.08600
H 	H 	0.29950 0.91580 0.08770 -0.03900
N 	N 	0.39420 0.83280 0.13399 -0.26100
C 	C 	0.51380 0.80470 0.14680 0.08800
H 	H 	0.52360 0.76190 0.17280 -0.02500
C 	C 	0.62350 0.83400 0.12460 -0.18100
H 	H 	0.70600 0.81150 0.13520 0.09000
N 	N 	0.10630 0.72300 0.12257 -0.26400
C 	C 	0.00510 0.76420 0.10090 0.04500
H 	H 	0.00310 0.82340 0.10430 -0.04000
C 	C 	0.90220 0.72470 0.07370 -0.17500
H 	H 	0.83230 0.75680 0.05840 0.07700
C 	C 	0.90160 0.63860 0.06900 0.18900
C 	C 	0.00890 0.59540 0.08980 -0.25700
H 	H 	0.01380 0.53620 0.08640 0.09600
C 	C 	0.10920 0.63970 0.11550 0.10200
H 	H 	0.18350 0.60970 0.12880 -0.04000
C 	C 	0.78360 0.59420 0.04620 -0.23500
C 	C 	0.76230 0.59340 0.99140 0.16600
C 	C 	0.84400 0.62950 0.95340 -0.10800
H 	H 	0.92480 0.65650 0.96110 0.07900
C 	C 	0.78520 0.61800 0.90440 -0.06500
H 	H 	0.81670 0.63650 0.87180 0.05500
C 	C 	0.66620 0.57270 0.91090 0.08700
C 	C 	0.57560 0.54680 0.87060 -0.15300
C 	C 	0.45870 0.50270 0.87740 0.09200
C 	C 	0.37260 0.47000 0.83600 -0.09400
H 	H 	0.38330 0.47460 0.79910 0.05700
C 	C 	0.27400 0.43170 0.85880 -0.06400
H 	H 	0.20230 0.40480 0.84080 0.04100
C 	C 	0.70390 0.56140 0.08510 0.10800
C 	C 	0.59990 0.57140 0.81489 0.13400
C 	C 	0.71060 0.54640 0.79030 -0.17700
H 	H 	0.77330 0.51180 0.80850 0.08600
C 	C 	0.72790 0.57240 0.73920 0.08600
H 	H 	0.80330 0.55380 0.72290 -0.01700
N 	N 	0.64590 0.62190 0.71132 -0.23200
C 	C 	0.53750 0.64430 0.73450 0.08400
H 	H 	0.47540 0.67770 0.71500 -0.01600
C 	C 	0.51230 0.62060 0.78580 -0.17600
H 	H 	0.43470 0.63830 0.80080 0.08400
N 	N 	0.58940 0.51850 0.07523 -0.30600
N 	N 	0.65570 0.55870 0.96408 -0.28800
Cu	Cu	0.26038 0.28571 0.33324 0.84400
N 	N 	0.56880 0.50970 0.42362 -0.29500
N 	N 	0.66490 0.42900 0.52472 -0.29400
C 	C 	0.51010 0.55340 0.38207 0.08600
C 	C 	0.58950 0.54490 0.33740 -0.07300
H 	H 	0.57200 0.56830 0.30320 0.05600
C 	C 	0.69370 0.49750 0.35280 -0.08600
H 	H 	0.76220 0.48170 0.33140 0.06300
C 	C 	0.68170 0.47520 0.40766 0.10000
C 	C 	0.77060 0.42820 0.43985 -0.18300
C 	C 	0.76130 0.40620 0.49313 0.09800
C 	C 	0.84970 0.35230 0.52420 -0.08300
H 	H 	0.92630 0.32720 0.51230 0.05400
C 	C 	0.80420 0.34410 0.57240 -0.07700
H 	H 	0.84260 0.31220 0.60090 0.05700
C 	C 	0.68650 0.39250 0.57346 0.08700
C 	C 	0.39370 0.59900 0.38350 -0.15600
C 	C 	0.35420 0.64530 0.33376 0.13700
C 	C 	0.24010 0.62550 0.30421 -0.18000
H 	H 	0.18140 0.58540 0.31680 0.08300
C 	C 	0.21420 0.66540 0.25630 0.09200
H 	H 	0.13770 0.65040 0.23600 -0.02900
N 	N 	0.29110 0.72420 0.23701 -0.24100
C 	C 	0.39770 0.74650 0.26760 0.08800
H 	H 	0.45110 0.79010 0.25560 -0.01700
C 	C 	0.43190 0.70870 0.31540 -0.18000
H 	H 	0.50770 0.72580 0.33550 0.08700
C 	C 	0.88740 0.39660 0.41350 0.21300
C 	C 	0.01120 0.42690 0.42680 -0.27600
H 	H 	0.02320 0.47010 0.45240 0.10300
C 	C 	0.11680 0.39420 0.40260 0.12000
H 	H 	0.20050 0.41580 0.41230 -0.06000
N 	N 	0.10580 0.33280 0.36601 -0.29700
C 	C 	0.98620 0.30470 0.35320 0.16100
H 	H 	0.97640 0.26190 0.32720 -0.03900
C 	C 	0.87650 0.33400 0.37540 -0.24400
H 	H 	0.79400 0.31150 0.36480 0.10900
N 	N 	0.39370 0.22300 0.37743 -0.26500
C 	C 	0.49490 0.26420 0.39910 0.08800
H 	H 	0.49690 0.32340 0.39570 -0.04600
C 	C 	0.59780 0.22470 0.42630 -0.19800
H 	H 	0.66770 0.25680 0.44160 0.08900
C 	C 	0.59840 0.13860 0.43100 0.13800
C 	C 	0.49110 0.09540 0.41020 -0.19400
H 	H 	0.48620 0.03620 0.41360 0.07200
C 	C 	0.39080 0.13970 0.38450 0.08400
H 	H 	0.31650 0.10970 0.37120 -0.04800
C 	C 	0.71640 0.09420 0.45380 -0.15400
C 	C 	0.73770 0.09340 0.50860 0.08100
C 	C 	0.65600 0.12950 0.54660 -0.08900
H 	H 	0.57520 0.15650 0.53890 0.04300
C 	C 	0.71480 0.11800 0.59560 -0.06800
H 	H 	0.68330 0.13650 0.62820 0.04600
C 	C 	0.83380 0.07270 0.58910 0.04700
C 	C 	0.92440 0.04680 0.62940 -0.05200
C 	C 	0.04130 0.00270 0.62260 -0.10200
C 	C 	0.12740 0.97000 0.66400 0.06900
H 	H 	0.11670 0.97460 0.70090 0.01600
C 	C 	0.22600 0.93170 0.64120 -0.14700
H 	H 	0.29770 0.90480 0.65920 0.08300
C 	C 	0.79610 0.06140 0.41490 0.06100
C 	C 	0.90010 0.07140 0.68511 0.06900
C 	C 	0.78940 0.04640 0.70970 -0.14400
H 	H 	0.72670 0.01180 0.69150 0.05600
C 	C 	0.77210 0.07240 0.76080 0.06200
H 	H 	0.69670 0.05380 0.77710 -0.02600
N 	N 	0.85410 0.12190 0.78868 -0.23300
C 	C 	0.96250 0.14430 0.76550 0.10600
H 	H 	0.02460 0.17770 0.78500 -0.05400
C 	C 	0.98770 0.12060 0.71420 -0.09400
H 	H 	0.06530 0.13830 0.69920 0.02400
N 	N 	0.91060 0.01850 0.42477 -0.33000
N 	N 	0.84430 0.05870 0.53592 -0.28000
Sn	Sn	-0.00000 0.00000 -0.00000 1.18700
Sn	Sn	0.50000 0.50000 0.50000 1.25000
Sn	Sn	0.50000 0.50000 -0.00000 1.22900
Sn	Sn	0.00000 0.00000 0.50000 1.20700
