data_crystal

_cell_length_a 26.95170
_cell_length_b 26.95170
_cell_length_c 13.23690
_cell_angle_alpha 90.00000
_cell_angle_beta  90.00000
_cell_angle_gamma 120.00000

_symmetry_space_group_name_	'P 1'
_symmetry_space_group_name_H-M	'P 1'

loop_
_symmetry_equiv_pos_as_xyz
  x,y,z

loop_
_atom_site_label
_atom_site_type_symbol
_atom_site_fract_x
_atom_site_fract_y
_atom_site_fract_z
_atom_site_charge
N 	N 	0.45892 0.40290 0.06190 -0.24900
C 	C 	0.44910 0.36143 0.99620 0.17400
H 	H 	0.46530 0.37210 0.93040 -0.01400
C 	C 	0.41680 0.30373 0.01890 -0.26900
H 	H 	0.41150 0.27580 0.96990 0.16400
C 	C 	0.39216 0.28694 0.11360 0.14100
C 	C 	0.40270 0.32990 0.18210 -0.17600
H 	H 	0.38700 0.32050 0.24830 0.09100
C 	C 	0.43610 0.38680 0.15360 0.09400
H 	H 	0.44310 0.41570 0.20190 0.00500
C 	C 	0.35907 0.22484 0.14050 -0.04300
N 	N 	0.12559 0.73623 0.39523 -0.22000
C 	C 	0.11577 0.69476 0.32953 0.08300
H 	H 	0.13197 0.70543 0.26373 0.01200
C 	C 	0.08347 0.63706 0.35223 -0.16100
H 	H 	0.07817 0.60913 0.30323 0.11400
C 	C 	0.05883 0.62027 0.44693 0.10000
C 	C 	0.06937 0.66323 0.51543 -0.14700
H 	H 	0.05367 0.65383 0.58163 0.08100
C 	C 	0.10277 0.72013 0.48693 0.07700
H 	H 	0.10977 0.74903 0.53523 0.01000
C 	C 	0.02574 0.55817 0.47383 -0.04500
N 	N 	0.79225 0.06957 0.72857 -0.20900
C 	C 	0.78243 0.02810 0.66287 0.05000
H 	H 	0.79863 0.03877 0.59707 0.02200
C 	C 	0.75013 0.97040 0.68557 -0.11800
H 	H 	0.74483 0.94247 0.63657 0.10500
C 	C 	0.72549 0.95361 0.78027 0.07600
C 	C 	0.73603 0.99657 0.84877 -0.10300
H 	H 	0.72033 0.98717 0.91497 0.07900
C 	C 	0.76943 0.05347 0.82027 0.04600
H 	H 	0.77643 0.08237 0.86857 0.02300
C 	C 	0.69240 0.89151 0.80717 -0.01700
N 	N 	0.59710 0.05602 0.06190 -0.24800
C 	C 	0.63857 0.08767 0.99620 0.16900
H 	H 	0.62790 0.09320 0.93040 -0.01200
C 	C 	0.69627 0.11307 0.01890 -0.26200
H 	H 	0.72420 0.13570 0.96990 0.16200
C 	C 	0.71306 0.10522 0.11360 0.13800
C 	C 	0.67010 0.07280 0.18210 -0.17400
H 	H 	0.67950 0.06650 0.24830 0.09000
C 	C 	0.61320 0.04930 0.15360 0.09200
H 	H 	0.58430 0.02740 0.20190 0.00100
C 	C 	0.77516 0.13423 0.14050 -0.04200
N 	N 	0.26377 0.38935 0.39523 -0.21800
C 	C 	0.30524 0.42100 0.32953 0.08000
H 	H 	0.29457 0.42653 0.26373 0.01400
C 	C 	0.36294 0.44640 0.35223 -0.15300
H 	H 	0.39087 0.46903 0.30323 0.11300
C 	C 	0.37973 0.43855 0.44693 0.09000
C 	C 	0.33677 0.40613 0.51543 -0.13900
H 	H 	0.34617 0.39983 0.58163 0.08100
C 	C 	0.27987 0.38263 0.48693 0.07500
H 	H 	0.25097 0.36073 0.53523 0.01200
C 	C 	0.44183 0.46756 0.47383 -0.01300
N 	N 	0.93043 0.72269 0.72857 -0.22800
C 	C 	0.97190 0.75434 0.66287 0.11700
H 	H 	0.96123 0.75987 0.59707 0.00700
C 	C 	0.02960 0.77974 0.68557 -0.19600
H 	H 	0.05753 0.80237 0.63657 0.12600
C 	C 	0.04639 0.77189 0.78027 0.12300
C 	C 	0.00343 0.73947 0.84877 -0.18000
H 	H 	0.01283 0.73317 0.91497 0.09600
C 	C 	0.94653 0.71597 0.82027 0.11000
H 	H 	0.91763 0.69407 0.86857 0.00500
C 	C 	0.10849 0.80090 0.80717 -0.03800
N 	N 	0.94398 0.54108 0.06190 -0.24300
C 	C 	0.91233 0.55090 0.99620 0.17000
H 	H 	0.90680 0.53470 0.93040 -0.01000
C 	C 	0.88693 0.58320 0.01890 -0.26000
H 	H 	0.86430 0.58850 0.96990 0.16200
C 	C 	0.89478 0.60784 0.11360 0.14200
C 	C 	0.92720 0.59730 0.18210 -0.17400
H 	H 	0.93350 0.61300 0.24830 0.09300
C 	C 	0.95070 0.56390 0.15360 0.09500
H 	H 	0.97260 0.55690 0.20190 0.00900
C 	C 	0.86577 0.64093 0.14050 -0.04900
N 	N 	0.61065 0.87441 0.39523 -0.21700
C 	C 	0.57900 0.88423 0.32953 0.07800
H 	H 	0.57347 0.86803 0.26373 0.01500
C 	C 	0.55360 0.91653 0.35223 -0.14500
H 	H 	0.53097 0.92183 0.30323 0.11200
C 	C 	0.56145 0.94117 0.44693 0.08100
C 	C 	0.59387 0.93063 0.51543 -0.13000
H 	H 	0.60017 0.94633 0.58163 0.08100
C 	C 	0.61737 0.89723 0.48693 0.07200
H 	H 	0.63927 0.89023 0.53523 0.01300
C 	C 	0.53244 0.97426 0.47383 0.01900
N 	N 	0.27731 0.20775 0.72857 -0.22000
C 	C 	0.24566 0.21757 0.66287 0.08400
H 	H 	0.24013 0.20137 0.59707 0.01300
C 	C 	0.22026 0.24987 0.68557 -0.16000
H 	H 	0.19763 0.25517 0.63657 0.11500
C 	C 	0.22811 0.27451 0.78027 0.10200
C 	C 	0.26053 0.26397 0.84877 -0.14500
H 	H 	0.26683 0.27967 0.91497 0.08800
C 	C 	0.28403 0.23057 0.82027 0.07900
H 	H 	0.30593 0.22357 0.86857 0.01300
C 	C 	0.19910 0.30760 0.80717 -0.03400
N 	N 	0.40290 0.45892 0.93810 -0.18700
C 	C 	0.36143 0.44910 0.00380 -0.01600
H 	H 	0.37210 0.46530 0.06960 0.04300
C 	C 	0.30373 0.41680 0.98110 -0.03400
H 	H 	0.27580 0.41150 0.03010 0.06000
C 	C 	0.28694 0.39216 0.88640 0.03400
C 	C 	0.32990 0.40270 0.81790 -0.09900
H 	H 	0.32050 0.38700 0.75170 0.06700
C 	C 	0.38680 0.43610 0.84640 0.05300
H 	H 	0.41570 0.44310 0.79810 0.02000
C 	C 	0.22484 0.35907 0.85950 0.02400
N 	N 	0.06957 0.79225 0.27143 -0.20700
C 	C 	0.02810 0.78243 0.33713 0.04100
H 	H 	0.03877 0.79863 0.40293 0.02400
C 	C 	0.97040 0.75013 0.31443 -0.10500
H 	H 	0.94247 0.74483 0.36343 0.10000
C 	C 	0.95361 0.72549 0.21973 0.05400
C 	C 	0.99657 0.73603 0.15123 -0.09000
H 	H 	0.98717 0.72033 0.08503 0.06300
C 	C 	0.05347 0.76943 0.17973 0.03400
H 	H 	0.08237 0.77643 0.13143 0.02000
C 	C 	0.89151 0.69240 0.19283 0.01600
N 	N 	0.73623 0.12559 0.60477 -0.22000
C 	C 	0.69476 0.11577 0.67047 0.08300
H 	H 	0.70543 0.13197 0.73627 0.01400
C 	C 	0.63706 0.08347 0.64777 -0.16100
H 	H 	0.60913 0.07817 0.69677 0.11500
C 	C 	0.62027 0.05883 0.55307 0.09900
C 	C 	0.66323 0.06937 0.48457 -0.14700
H 	H 	0.65383 0.05367 0.41837 0.07900
C 	C 	0.72013 0.10277 0.51307 0.07700
H 	H 	0.74903 0.10977 0.46477 0.01000
C 	C 	0.55817 0.02574 0.52617 -0.04500
N 	N 	0.05602 0.59710 0.93810 -0.18700
C 	C 	0.08767 0.63857 0.00380 -0.02100
H 	H 	0.09320 0.62790 0.06960 0.04300
C 	C 	0.11307 0.69627 0.98110 -0.03100
H 	H 	0.13570 0.72420 0.03010 0.05800
C 	C 	0.10522 0.71306 0.88640 0.03200
C 	C 	0.07280 0.67010 0.81790 -0.09900
H 	H 	0.06650 0.67950 0.75170 0.06600
C 	C 	0.04930 0.61320 0.84640 0.05100
H 	H 	0.02740 0.58430 0.79810 0.01600
C 	C 	0.13423 0.77516 0.85950 0.02500
N 	N 	0.72269 0.93043 0.27143 -0.22700
C 	C 	0.75434 0.97190 0.33713 0.11100
H 	H 	0.75987 0.96123 0.40293 0.00800
C 	C 	0.77974 0.02960 0.31443 -0.18700
H 	H 	0.80237 0.05753 0.36343 0.12200
C 	C 	0.77189 0.04639 0.21973 0.10300
C 	C 	0.73947 0.00343 0.15123 -0.17200
H 	H 	0.73317 0.01283 0.08503 0.08200
C 	C 	0.71597 0.94653 0.17973 0.10300
H 	H 	0.69407 0.91763 0.13143 0.00100
C 	C 	0.80090 0.10849 0.19283 -0.00500
N 	N 	0.38935 0.26377 0.60477 -0.21800
C 	C 	0.42100 0.30524 0.67047 0.08100
H 	H 	0.42653 0.29457 0.73627 0.01500
C 	C 	0.44640 0.36294 0.64777 -0.15300
H 	H 	0.46903 0.39087 0.69677 0.11400
C 	C 	0.43855 0.37973 0.55307 0.09000
C 	C 	0.40613 0.33677 0.48457 -0.13800
H 	H 	0.39983 0.34617 0.41837 0.08000
C 	C 	0.38263 0.27987 0.51307 0.07400
H 	H 	0.36073 0.25097 0.46477 0.01200
C 	C 	0.46756 0.44183 0.52617 -0.01200
N 	N 	0.54108 0.94398 0.93810 -0.18500
C 	C 	0.55090 0.91233 0.00380 -0.01000
H 	H 	0.53470 0.90680 0.06960 0.04300
C 	C 	0.58320 0.88693 0.98110 -0.04000
H 	H 	0.58850 0.86430 0.03010 0.06300
C 	C 	0.60784 0.89478 0.88640 0.04100
C 	C 	0.59730 0.92720 0.81790 -0.10200
H 	H 	0.61300 0.93350 0.75170 0.07000
C 	C 	0.56390 0.95070 0.84640 0.05600
H 	H 	0.55690 0.97260 0.79810 0.02400
C 	C 	0.64093 0.86577 0.85950 0.01500
N 	N 	0.20775 0.27731 0.27143 -0.21800
C 	C 	0.21757 0.24566 0.33713 0.07600
H 	H 	0.20137 0.24013 0.40293 0.01500
C 	C 	0.24987 0.22026 0.31443 -0.14900
H 	H 	0.25517 0.19763 0.36343 0.11100
C 	C 	0.27451 0.22811 0.21973 0.08000
C 	C 	0.26397 0.26053 0.15123 -0.13500
H 	H 	0.27967 0.26683 0.08503 0.07200
C 	C 	0.23057 0.28403 0.17973 0.07000
H 	H 	0.22357 0.30593 0.13143 0.00900
C 	C 	0.30760 0.19910 0.19283 0.00000
N 	N 	0.87441 0.61065 0.60477 -0.21700
C 	C 	0.88423 0.57900 0.67047 0.07800
H 	H 	0.86803 0.57347 0.73627 0.01700
C 	C 	0.91653 0.55360 0.64777 -0.14500
H 	H 	0.92183 0.53097 0.69677 0.11200
C 	C 	0.94117 0.56145 0.55307 0.08000
C 	C 	0.93063 0.59387 0.48457 -0.13000
H 	H 	0.94633 0.60017 0.41837 0.08000
C 	C 	0.89723 0.61737 0.51307 0.07200
H 	H 	0.89023 0.63927 0.46477 0.01300
C 	C 	0.97426 0.53244 0.52617 0.02000
N 	N 	0.54108 0.59710 0.93810 -0.18800
C 	C 	0.55090 0.63857 0.00380 -0.01200
H 	H 	0.53470 0.62790 0.06960 0.04200
C 	C 	0.58320 0.69627 0.98110 -0.04000
H 	H 	0.58850 0.72420 0.03010 0.06300
C 	C 	0.60784 0.71306 0.88640 0.03900
C 	C 	0.59730 0.67010 0.81790 -0.10200
H 	H 	0.61300 0.67950 0.75170 0.06800
C 	C 	0.56390 0.61320 0.84640 0.05500
H 	H 	0.55690 0.58430 0.79810 0.01900
C 	C 	0.64093 0.77516 0.85950 0.01700
N 	N 	0.20775 0.93043 0.27143 -0.22800
C 	C 	0.21757 0.97190 0.33713 0.11100
H 	H 	0.20137 0.96123 0.40293 0.00700
C 	C 	0.24987 0.02960 0.31443 -0.18800
H 	H 	0.25517 0.05753 0.36343 0.12200
C 	C 	0.27451 0.04639 0.21973 0.10400
C 	C 	0.26397 0.00343 0.15123 -0.17300
H 	H 	0.27967 0.01283 0.08503 0.08100
C 	C 	0.23057 0.94653 0.17973 0.10300
H 	H 	0.22357 0.91763 0.13143 0.00100
C 	C 	0.30760 0.10849 0.19283 -0.00800
N 	N 	0.87441 0.26377 0.60477 -0.21700
C 	C 	0.88423 0.30524 0.67047 0.07800
H 	H 	0.86803 0.29457 0.73627 0.01700
C 	C 	0.91653 0.36294 0.64777 -0.14500
H 	H 	0.92183 0.39087 0.69677 0.11200
C 	C 	0.94117 0.37973 0.55307 0.08000
C 	C 	0.93063 0.33677 0.48457 -0.13000
H 	H 	0.94633 0.34617 0.41837 0.08000
C 	C 	0.89723 0.27987 0.51307 0.07200
H 	H 	0.89023 0.25097 0.46477 0.01300
C 	C 	0.97426 0.44183 0.52617 0.02000
N 	N 	0.40290 0.94398 0.93810 -0.18400
C 	C 	0.36143 0.91233 0.00380 -0.01400
H 	H 	0.37210 0.90680 0.06960 0.04400
C 	C 	0.30373 0.88693 0.98110 -0.03500
H 	H 	0.27580 0.86430 0.03010 0.06100
C 	C 	0.28694 0.89478 0.88640 0.03800
C 	C 	0.32990 0.92720 0.81790 -0.10000
H 	H 	0.32050 0.93350 0.75170 0.06900
C 	C 	0.38680 0.95070 0.84640 0.05500
H 	H 	0.41570 0.97260 0.79810 0.02400
C 	C 	0.22484 0.86577 0.85950 0.01900
N 	N 	0.06957 0.27731 0.27143 -0.20700
C 	C 	0.02810 0.24566 0.33713 0.04100
H 	H 	0.03877 0.24013 0.40293 0.02300
C 	C 	0.97040 0.22026 0.31443 -0.10600
H 	H 	0.94247 0.19763 0.36343 0.09900
C 	C 	0.95361 0.22811 0.21973 0.05500
C 	C 	0.99657 0.26053 0.15123 -0.09100
H 	H 	0.98717 0.26683 0.08503 0.06300
C 	C 	0.05347 0.28403 0.17973 0.03400
H 	H 	0.08237 0.30593 0.13143 0.01900
C 	C 	0.89151 0.19910 0.19283 0.01200
N 	N 	0.73623 0.61065 0.60477 -0.21800
C 	C 	0.69476 0.57900 0.67047 0.08100
H 	H 	0.70543 0.57347 0.73627 0.01500
C 	C 	0.63706 0.55360 0.64777 -0.15300
H 	H 	0.60913 0.53097 0.69677 0.11400
C 	C 	0.62027 0.56145 0.55307 0.09000
C 	C 	0.66323 0.59387 0.48457 -0.13800
H 	H 	0.65383 0.60017 0.41837 0.08000
C 	C 	0.72013 0.61737 0.51307 0.07400
H 	H 	0.74903 0.63927 0.46477 0.01200
C 	C 	0.55817 0.53244 0.52617 -0.01300
N 	N 	0.05602 0.45892 0.93810 -0.18700
C 	C 	0.08767 0.44910 0.00380 -0.02100
H 	H 	0.09320 0.46530 0.06960 0.04300
C 	C 	0.11307 0.41680 0.98110 -0.03000
H 	H 	0.13570 0.41150 0.03010 0.05800
C 	C 	0.10522 0.39216 0.88640 0.03100
C 	C 	0.07280 0.40270 0.81790 -0.09800
H 	H 	0.06650 0.38700 0.75170 0.06600
C 	C 	0.04930 0.43610 0.84640 0.05100
H 	H 	0.02740 0.44310 0.79810 0.01600
C 	C 	0.13423 0.35907 0.85950 0.02800
N 	N 	0.72269 0.79225 0.27143 -0.21700
C 	C 	0.75434 0.78243 0.33713 0.07700
H 	H 	0.75987 0.79863 0.40293 0.01600
C 	C 	0.77974 0.75013 0.31443 -0.14600
H 	H 	0.80237 0.74483 0.36343 0.11100
C 	C 	0.77189 0.72549 0.21973 0.07900
C 	C 	0.73947 0.73603 0.15123 -0.13200
H 	H 	0.73317 0.72033 0.08503 0.07300
C 	C 	0.71597 0.76943 0.17973 0.07000
H 	H 	0.69407 0.77643 0.13143 0.01100
C 	C 	0.80090 0.69240 0.19283 0.00800
N 	N 	0.38935 0.12559 0.60477 -0.22000
C 	C 	0.42100 0.11577 0.67047 0.08300
H 	H 	0.42653 0.13197 0.73627 0.01400
C 	C 	0.44640 0.08347 0.64777 -0.16100
H 	H 	0.46903 0.07817 0.69677 0.11500
C 	C 	0.43855 0.05883 0.55307 0.09900
C 	C 	0.40613 0.06937 0.48457 -0.14700
H 	H 	0.39983 0.05367 0.41837 0.08000
C 	C 	0.38263 0.10277 0.51307 0.07700
H 	H 	0.36073 0.10977 0.46477 0.01000
C 	C 	0.46756 0.02574 0.52617 -0.04500
N 	N 	0.59710 0.54108 0.06190 -0.24700
C 	C 	0.63857 0.55090 0.99620 0.17200
H 	H 	0.62790 0.53470 0.93040 -0.01200
C 	C 	0.69627 0.58320 0.01890 -0.26500
H 	H 	0.72420 0.58850 0.96990 0.16400
C 	C 	0.71306 0.60784 0.11360 0.14200
C 	C 	0.67010 0.59730 0.18210 -0.17600
H 	H 	0.67950 0.61300 0.24830 0.09200
C 	C 	0.61320 0.56390 0.15360 0.09500
H 	H 	0.58430 0.55690 0.20190 0.00500
C 	C 	0.77516 0.64093 0.14050 -0.04700
N 	N 	0.26377 0.87441 0.39523 -0.21700
C 	C 	0.30524 0.88423 0.32953 0.07800
H 	H 	0.29457 0.86803 0.26373 0.01500
C 	C 	0.36294 0.91653 0.35223 -0.14500
H 	H 	0.39087 0.92183 0.30323 0.11200
C 	C 	0.37973 0.94117 0.44693 0.08100
C 	C 	0.33677 0.93063 0.51543 -0.13000
H 	H 	0.34617 0.94633 0.58163 0.08100
C 	C 	0.27987 0.89723 0.48693 0.07200
H 	H 	0.25097 0.89023 0.53523 0.01400
C 	C 	0.44183 0.97426 0.47383 0.01900
N 	N 	0.93043 0.20775 0.72857 -0.22900
C 	C 	0.97190 0.21757 0.66287 0.11600
H 	H 	0.96123 0.20137 0.59707 0.00600
C 	C 	0.02960 0.24987 0.68557 -0.19700
H 	H 	0.05753 0.25517 0.63657 0.12600
C 	C 	0.04639 0.27451 0.78027 0.12400
C 	C 	0.00343 0.26397 0.84877 -0.18200
H 	H 	0.01283 0.27967 0.91497 0.09600
C 	C 	0.94653 0.23057 0.82027 0.11000
H 	H 	0.91763 0.22357 0.86857 0.00500
C 	C 	0.10849 0.30760 0.80717 -0.04200
N 	N 	0.94398 0.40290 0.06190 -0.24300
C 	C 	0.91233 0.36143 0.99620 0.16900
H 	H 	0.90680 0.37210 0.93040 -0.01000
C 	C 	0.88693 0.30373 0.01890 -0.25900
H 	H 	0.86430 0.27580 0.96990 0.16200
C 	C 	0.89478 0.28694 0.11360 0.14100
C 	C 	0.92720 0.32990 0.18210 -0.17300
H 	H 	0.93350 0.32050 0.24830 0.09300
C 	C 	0.95070 0.38680 0.15360 0.09500
H 	H 	0.97260 0.41570 0.20190 0.01000
C 	C 	0.86577 0.22484 0.14050 -0.04600
N 	N 	0.61065 0.73623 0.39523 -0.21900
C 	C 	0.57900 0.69476 0.32953 0.08000
H 	H 	0.57347 0.70543 0.26373 0.01400
C 	C 	0.55360 0.63706 0.35223 -0.15300
H 	H 	0.53097 0.60913 0.30323 0.11300
C 	C 	0.56145 0.62027 0.44693 0.09000
C 	C 	0.59387 0.66323 0.51543 -0.13900
H 	H 	0.60017 0.65383 0.58163 0.08100
C 	C 	0.61737 0.72013 0.48693 0.07500
H 	H 	0.63927 0.74903 0.53523 0.01200
C 	C 	0.53244 0.55817 0.47383 -0.01300
N 	N 	0.27731 0.06957 0.72857 -0.20900
C 	C 	0.24566 0.02810 0.66287 0.05000
H 	H 	0.24013 0.03877 0.59707 0.02100
C 	C 	0.22026 0.97040 0.68557 -0.11900
H 	H 	0.19763 0.94247 0.63657 0.10400
C 	C 	0.22811 0.95361 0.78027 0.07700
C 	C 	0.26053 0.99657 0.84877 -0.10500
H 	H 	0.26683 0.98717 0.91497 0.07900
C 	C 	0.28403 0.05347 0.82027 0.04600
H 	H 	0.30593 0.08237 0.86857 0.02200
C 	C 	0.19910 0.89151 0.80717 -0.02100
N 	N 	0.45892 0.05602 0.06190 -0.24900
C 	C 	0.44910 0.08767 0.99620 0.17200
H 	H 	0.46530 0.09320 0.93040 -0.01300
C 	C 	0.41680 0.11307 0.01890 -0.26700
H 	H 	0.41150 0.13570 0.96990 0.16400
C 	C 	0.39216 0.10522 0.11360 0.13900
C 	C 	0.40270 0.07280 0.18210 -0.17500
H 	H 	0.38700 0.06650 0.24830 0.09000
C 	C 	0.43610 0.04930 0.15360 0.09300
H 	H 	0.44310 0.02740 0.20190 0.00100
C 	C 	0.35907 0.13423 0.14050 -0.04000
N 	N 	0.12559 0.38935 0.39523 -0.22000
C 	C 	0.11577 0.42100 0.32953 0.08300
H 	H 	0.13197 0.42653 0.26373 0.01200
C 	C 	0.08347 0.44640 0.35223 -0.16100
H 	H 	0.07817 0.46903 0.30323 0.11400
C 	C 	0.05883 0.43855 0.44693 0.10000
C 	C 	0.06937 0.40613 0.51543 -0.14700
H 	H 	0.05367 0.39983 0.58163 0.08100
C 	C 	0.10277 0.38263 0.48693 0.07700
H 	H 	0.10977 0.36073 0.53523 0.01000
C 	C 	0.02574 0.46756 0.47383 -0.04500
N 	N 	0.79225 0.72269 0.72857 -0.21900
C 	C 	0.78243 0.75434 0.66287 0.08400
H 	H 	0.79863 0.75987 0.59707 0.01400
C 	C 	0.75013 0.77974 0.68557 -0.15700
H 	H 	0.74483 0.80237 0.63657 0.11600
C 	C 	0.72549 0.77189 0.78027 0.09900
C 	C 	0.73603 0.73947 0.84877 -0.14200
H 	H 	0.72033 0.73317 0.91497 0.08800
C 	C 	0.76943 0.71597 0.82027 0.07900
H 	H 	0.77643 0.69407 0.86857 0.01400
C 	C 	0.69240 0.80090 0.80717 -0.02500
Cd	Cd	0.50000 0.50000 -0.00000 1.20900
Cd	Cd	0.16667 0.83333 0.33333 1.21500
Cd	Cd	0.83333 0.16667 0.66667 1.21600
Cd	Cd	0.50000 0.00000 -0.00000 1.20400
Cd	Cd	0.16667 0.33333 0.33333 1.21500
Cd	Cd	0.83333 0.66667 0.66667 1.21600
Cd	Cd	-0.00000 0.50000 -0.00000 1.20400
Cd	Cd	0.66667 0.83333 0.33333 1.21600
Cd	Cd	0.33333 0.16667 0.66667 1.21600
Cl	Cl	0.47175 0.52825 0.16589 -0.51400
Cl	Cl	0.13841 0.86159 0.49922 -0.50800
Cl	Cl	0.80508 0.19492 0.83256 -0.50700
Cl	Cl	0.47175 0.94349 0.16589 -0.50500
Cl	Cl	0.13841 0.27682 0.49922 -0.51200
Cl	Cl	0.80508 0.61016 0.83256 -0.50600
Cl	Cl	0.05651 0.52825 0.16589 -0.52100
Cl	Cl	0.72318 0.86159 0.49922 -0.50500
Cl	Cl	0.38984 0.19492 0.83256 -0.50700
Cl	Cl	0.52826 0.47175 0.83411 -0.50000
Cl	Cl	0.19492 0.80508 0.16744 -0.51000
Cl	Cl	0.86159 0.13841 0.50078 -0.50800
Cl	Cl	0.94349 0.47174 0.83411 -0.49300
Cl	Cl	0.61016 0.80508 0.16744 -0.50900
Cl	Cl	0.27682 0.13841 0.50078 -0.51100
Cl	Cl	0.52825 0.05651 0.83411 -0.50800
Cl	Cl	0.19492 0.38984 0.16744 -0.51000
Cl	Cl	0.86159 0.72318 0.50078 -0.50400
C 	C 	0.38402 0.19201 0.11520 -0.02800
H 	H 	0.41940 0.20970 0.07950 0.05100
C 	C 	0.05069 0.52534 0.44853 -0.02600
H 	H 	0.08607 0.54303 0.41283 0.05700
C 	C 	0.71735 0.85868 0.78187 -0.03900
H 	H 	0.75273 0.87637 0.74617 0.06500
C 	C 	0.80799 0.19201 0.11520 -0.02500
H 	H 	0.79030 0.20970 0.07950 0.05100
C 	C 	0.47466 0.52534 0.44853 -0.04900
H 	H 	0.45697 0.54303 0.41283 0.06500
C 	C 	0.14132 0.85868 0.78187 -0.03200
H 	H 	0.12363 0.87637 0.74617 0.06100
C 	C 	0.80799 0.61598 0.11520 -0.02100
H 	H 	0.79030 0.58060 0.07950 0.04900
C 	C 	0.47466 0.94931 0.44853 -0.07100
H 	H 	0.45697 0.91393 0.41283 0.07200
C 	C 	0.14132 0.28265 0.78187 -0.02600
H 	H 	0.12363 0.24727 0.74617 0.05600
C 	C 	0.19201 0.38402 0.88480 -0.08000
H 	H 	0.20970 0.41940 0.92050 0.08200
C 	C 	0.85868 0.71735 0.21813 -0.07200
H 	H 	0.87637 0.75273 0.25383 0.07300
C 	C 	0.52534 0.05069 0.55147 -0.02700
H 	H 	0.54303 0.08607 0.58717 0.05800
C 	C 	0.19201 0.80799 0.88480 -0.07600
H 	H 	0.20970 0.79030 0.92050 0.08100
C 	C 	0.85868 0.14132 0.21813 -0.06500
H 	H 	0.87637 0.12363 0.25383 0.06900
C 	C 	0.52534 0.47466 0.55147 -0.05000
H 	H 	0.54303 0.45697 0.58717 0.06500
C 	C 	0.61598 0.80799 0.88480 -0.07100
H 	H 	0.58060 0.79030 0.92050 0.07900
C 	C 	0.28265 0.14132 0.21813 -0.05900
H 	H 	0.24727 0.12363 0.25383 0.06500
C 	C 	0.94931 0.47466 0.55147 -0.07200
H 	H 	0.91393 0.45697 0.58717 0.07300
