data_crystal

_cell_length_a 11.03890
_cell_length_b 22.78400
_cell_length_c 31.28000
_cell_angle_alpha 90.00000
_cell_angle_beta  90.00000
_cell_angle_gamma 90.00000

_symmetry_space_group_name_	'P 1'
_symmetry_space_group_name_H-M	'P 1'

loop_
_symmetry_equiv_pos_as_xyz
  x,y,z

loop_
_atom_site_label
_atom_site_type_symbol
_atom_site_fract_x
_atom_site_fract_y
_atom_site_fract_z
_atom_site_charge
H 	H 	0.80560 0.98600 0.97860 0.24600
O 	O 	0.16880 0.83340 0.87966 -0.20400
O 	O 	0.02050 0.94600 0.85781 -0.51000
O 	O 	0.98240 0.93267 0.93962 -0.33800
O 	O 	0.14420 0.86350 0.99330 -0.24700
C 	C 	0.07690 0.84490 0.84910 0.00900
H 	H 	0.11320 0.86190 0.82330 0.02800
C 	C 	0.98880 0.88840 0.86853 0.24600
H 	H 	0.90500 0.87950 0.86050 -0.03500
C 	C 	0.00920 0.88080 0.91614 -0.17200
H 	H 	0.96090 0.84790 0.92690 0.12200
C 	C 	0.14550 0.86550 0.91780 0.10200
H 	H 	0.19350 0.90170 0.91790 0.00300
C 	C 	0.17730 0.82920 0.95600 -0.06400
H 	H 	0.13310 0.79250 0.95560 0.05500
H 	H 	0.26340 0.82060 0.95630 0.06500
N 	N 	0.01810 0.78710 0.83833 -0.17000
C 	C 	0.93370 0.78680 0.80645 0.28600
O 	O 	0.90720 0.83429 0.78731 -0.30300
N 	N 	0.87610 0.73710 0.79655 -0.27000
C 	C 	0.90440 0.68650 0.81690 0.17800
N 	N 	0.84320 0.63900 0.80750 -0.32200
H 	H 	0.78630 0.64040 0.78880 0.13100
H 	H 	0.85990 0.60640 0.82010 0.13000
C 	C 	0.99720 0.68520 0.84630 -0.04600
H 	H 	0.01970 0.65010 0.85930 0.00400
C 	C 	0.05640 0.73700 0.85620 -0.00800
H 	H 	0.12180 0.73700 0.87500 0.05300
H 	H 	0.80560 0.48600 0.47860 0.16800
O 	O 	0.16880 0.33340 0.37966 -0.20700
O 	O 	0.02050 0.44600 0.35781 -0.55600
O 	O 	0.98240 0.43267 0.43962 -0.36600
O 	O 	0.14420 0.36350 0.49330 -0.26100
C 	C 	0.07690 0.34490 0.34910 0.00200
H 	H 	0.11320 0.36190 0.32330 0.02200
C 	C 	0.98880 0.38840 0.36853 0.26400
H 	H 	0.90500 0.37950 0.36050 -0.04700
C 	C 	0.00920 0.38080 0.41614 -0.18600
H 	H 	0.96090 0.34790 0.42690 0.12500
C 	C 	0.14550 0.36550 0.41780 0.10600
H 	H 	0.19350 0.40170 0.41790 -0.01100
C 	C 	0.17730 0.32920 0.45600 -0.06400
H 	H 	0.13310 0.29250 0.45560 0.05200
H 	H 	0.26340 0.32060 0.45630 0.06000
N 	N 	0.01810 0.28710 0.33833 -0.16900
C 	C 	0.93370 0.28680 0.30645 0.28800
O 	O 	0.90720 0.33429 0.28731 -0.30900
N 	N 	0.87610 0.23710 0.29655 -0.26900
C 	C 	0.90440 0.18650 0.31690 0.16900
N 	N 	0.84320 0.13900 0.30750 -0.31700
H 	H 	0.78630 0.14040 0.28880 0.12700
H 	H 	0.85990 0.10640 0.32010 0.12000
C 	C 	0.99720 0.18520 0.34630 -0.03200
H 	H 	0.01970 0.15010 0.35930 -0.00900
C 	C 	0.05640 0.23700 0.35620 -0.01900
H 	H 	0.12180 0.23700 0.37500 0.05500
H 	H 	0.30560 0.98600 0.47860 0.23500
O 	O 	0.66880 0.83340 0.37966 -0.20200
O 	O 	0.52050 0.94600 0.35781 -0.44300
O 	O 	0.48240 0.93267 0.43962 -0.42600
O 	O 	0.64420 0.86350 0.49330 -0.25100
C 	C 	0.57690 0.84490 0.34910 0.09900
H 	H 	0.61320 0.86190 0.32330 0.01300
C 	C 	0.48880 0.88840 0.36853 0.05100
H 	H 	0.40500 0.87950 0.36050 0.01200
C 	C 	0.50920 0.88080 0.41614 0.03700
H 	H 	0.46090 0.84790 0.42690 0.02600
C 	C 	0.64550 0.86550 0.41780 0.03700
H 	H 	0.69350 0.90170 0.41790 0.02700
C 	C 	0.67730 0.82920 0.45600 -0.02700
H 	H 	0.63310 0.79250 0.45560 0.05300
H 	H 	0.76340 0.82060 0.45630 0.05900
N 	N 	0.51810 0.78710 0.33833 -0.18000
C 	C 	0.43370 0.78680 0.30645 0.26200
O 	O 	0.40720 0.83429 0.28731 -0.31200
N 	N 	0.37610 0.73710 0.29655 -0.28200
C 	C 	0.40440 0.68650 0.31690 0.23800
N 	N 	0.34320 0.63900 0.30750 -0.33900
H 	H 	0.28630 0.64040 0.28880 0.13000
H 	H 	0.35990 0.60640 0.32010 0.12300
C 	C 	0.49720 0.68520 0.34630 -0.25900
H 	H 	0.51970 0.65010 0.35930 0.11000
C 	C 	0.55640 0.73700 0.35620 0.14300
H 	H 	0.62180 0.73700 0.37500 0.00600
H 	H 	0.30560 0.48600 0.97860 0.17500
O 	O 	0.66880 0.33340 0.87966 -0.20600
O 	O 	0.52050 0.44600 0.85781 -0.48400
O 	O 	0.48240 0.43267 0.93962 -0.45000
O 	O 	0.64420 0.36350 0.99330 -0.24900
C 	C 	0.57690 0.34490 0.84910 0.09700
H 	H 	0.61320 0.36190 0.82330 0.00600
C 	C 	0.48880 0.38840 0.86853 0.05800
H 	H 	0.40500 0.37950 0.86050 0.00400
C 	C 	0.50920 0.38080 0.91614 0.03300
H 	H 	0.46090 0.34790 0.92690 0.02900
C 	C 	0.64550 0.36550 0.91780 0.04200
H 	H 	0.69350 0.40170 0.91790 0.01400
C 	C 	0.67730 0.32920 0.95600 -0.03200
H 	H 	0.63310 0.29250 0.95560 0.05500
H 	H 	0.76340 0.32060 0.95630 0.05900
N 	N 	0.51810 0.28710 0.83833 -0.18000
C 	C 	0.43370 0.28680 0.80645 0.26200
O 	O 	0.40720 0.33429 0.78731 -0.31800
N 	N 	0.37610 0.23710 0.79655 -0.28100
C 	C 	0.40440 0.18650 0.81690 0.23300
N 	N 	0.34320 0.13900 0.80750 -0.33500
H 	H 	0.28630 0.14040 0.78880 0.12600
H 	H 	0.35990 0.10640 0.82010 0.11200
C 	C 	0.49720 0.18520 0.84630 -0.25600
H 	H 	0.51970 0.15010 0.85930 0.10300
C 	C 	0.55640 0.23700 0.85620 0.14000
H 	H 	0.62180 0.23700 0.87500 0.00600
H 	H 	0.19440 0.01400 0.97860 0.18000
O 	O 	0.83120 0.16660 0.87966 -0.21500
O 	O 	0.97950 0.05400 0.85781 -0.41300
O 	O 	0.01760 0.06733 0.93962 -0.52800
O 	O 	0.85580 0.13650 0.99330 -0.25000
C 	C 	0.92310 0.15510 0.84910 0.19700
H 	H 	0.88680 0.13810 0.82330 -0.02000
C 	C 	0.01120 0.11160 0.86853 -0.15000
H 	H 	0.09500 0.12050 0.86050 0.05700
C 	C 	0.99080 0.11920 0.91614 0.25200
H 	H 	0.03910 0.15210 0.92690 -0.06600
C 	C 	0.85450 0.13450 0.91780 -0.01800
H 	H 	0.80650 0.09830 0.91790 0.02400
C 	C 	0.82270 0.17080 0.95600 0.00400
H 	H 	0.86690 0.20750 0.95560 0.05400
H 	H 	0.73660 0.17940 0.95630 0.04000
N 	N 	0.98190 0.21290 0.83833 -0.19200
C 	C 	0.06630 0.21320 0.80645 0.23700
O 	O 	0.09280 0.16571 0.78731 -0.32900
N 	N 	0.12390 0.26290 0.79655 -0.29400
C 	C 	0.09560 0.31350 0.81690 0.30400
N 	N 	0.15680 0.36100 0.80750 -0.35900
H 	H 	0.21370 0.35960 0.78880 0.13500
H 	H 	0.14010 0.39360 0.82010 0.12000
C 	C 	0.00280 0.31480 0.84630 -0.48100
H 	H 	0.98030 0.34990 0.85930 0.21900
C 	C 	0.94360 0.26300 0.85620 0.29900
H 	H 	0.87820 0.26300 0.87500 -0.04500
H 	H 	0.19440 0.51400 0.47860 0.17100
O 	O 	0.83120 0.66660 0.37966 -0.21200
O 	O 	0.97950 0.55400 0.35781 -0.39900
O 	O 	0.01760 0.56733 0.43962 -0.52400
O 	O 	0.85580 0.63650 0.49330 -0.25400
C 	C 	0.92310 0.65510 0.34910 0.19500
H 	H 	0.88680 0.63810 0.32330 -0.01500
C 	C 	0.01120 0.61160 0.36853 -0.15000
H 	H 	0.09500 0.62050 0.36050 0.06000
C 	C 	0.99080 0.61920 0.41614 0.25100
H 	H 	0.03910 0.65210 0.42690 -0.06600
C 	C 	0.85450 0.63450 0.41780 -0.02300
H 	H 	0.80650 0.59830 0.41790 0.03300
C 	C 	0.82270 0.67080 0.45600 0.00800
H 	H 	0.86690 0.70750 0.45560 0.05200
H 	H 	0.73660 0.67940 0.45630 0.04100
N 	N 	0.98190 0.71290 0.33833 -0.19200
C 	C 	0.06630 0.71320 0.30645 0.23800
O 	O 	0.09280 0.66571 0.28731 -0.32600
N 	N 	0.12390 0.76290 0.29655 -0.29500
C 	C 	0.09560 0.81350 0.31690 0.30800
N 	N 	0.15680 0.86100 0.30750 -0.36300
H 	H 	0.21370 0.85960 0.28880 0.14200
H 	H 	0.14010 0.89360 0.32010 0.13400
C 	C 	0.00280 0.81480 0.34630 -0.47700
H 	H 	0.98030 0.84990 0.35930 0.22300
C 	C 	0.94360 0.76300 0.35620 0.29800
H 	H 	0.87820 0.76300 0.37500 -0.04400
H 	H 	0.69440 0.01400 0.47860 0.17300
O 	O 	0.33120 0.16660 0.37966 -0.21700
O 	O 	0.47950 0.05400 0.35781 -0.50200
O 	O 	0.51760 0.06733 0.43962 -0.46000
O 	O 	0.35580 0.13650 0.49330 -0.26800
C 	C 	0.42310 0.15510 0.34910 0.10000
H 	H 	0.38680 0.13810 0.32330 -0.00500
C 	C 	0.51120 0.11160 0.36853 0.05900
H 	H 	0.59500 0.12050 0.36050 0.00400
C 	C 	0.49080 0.11920 0.41614 0.03200
H 	H 	0.53910 0.15210 0.42690 0.02900
C 	C 	0.35450 0.13450 0.41780 0.04300
H 	H 	0.30650 0.09830 0.41790 -0.00300
C 	C 	0.32270 0.17080 0.45600 -0.02600
H 	H 	0.36690 0.20750 0.45560 0.05000
H 	H 	0.23660 0.17940 0.45630 0.04100
N 	N 	0.48190 0.21290 0.33833 -0.18200
C 	C 	0.56630 0.21320 0.30645 0.26300
O 	O 	0.59280 0.16571 0.28731 -0.32100
N 	N 	0.62390 0.26290 0.29655 -0.28200
C 	C 	0.59560 0.31350 0.31690 0.24100
N 	N 	0.65680 0.36100 0.30750 -0.34100
H 	H 	0.71370 0.35960 0.28880 0.13600
H 	H 	0.64010 0.39360 0.32010 0.12800
C 	C 	0.50280 0.31480 0.34630 -0.26100
H 	H 	0.48030 0.34990 0.35930 0.11000
C 	C 	0.44360 0.26300 0.35620 0.14300
H 	H 	0.37820 0.26300 0.37500 0.00300
H 	H 	0.69440 0.51400 0.97860 0.18500
O 	O 	0.33120 0.66660 0.87966 -0.21400
O 	O 	0.47950 0.55400 0.85781 -0.48500
O 	O 	0.51760 0.56733 0.93962 -0.44800
O 	O 	0.35580 0.63650 0.99330 -0.25600
C 	C 	0.42310 0.65510 0.84910 0.10100
H 	H 	0.38680 0.63810 0.82330 -0.00000
C 	C 	0.51120 0.61160 0.86853 0.05600
H 	H 	0.59500 0.62050 0.86050 0.00900
C 	C 	0.49080 0.61920 0.91614 0.03300
H 	H 	0.53910 0.65210 0.92690 0.03200
C 	C 	0.35450 0.63450 0.91780 0.04300
H 	H 	0.30650 0.59830 0.91790 0.00700
C 	C 	0.32270 0.67080 0.95600 -0.02800
H 	H 	0.36690 0.70750 0.95560 0.05400
H 	H 	0.23660 0.67940 0.95630 0.04600
N 	N 	0.48190 0.71290 0.83833 -0.18200
C 	C 	0.56630 0.71320 0.80645 0.26400
O 	O 	0.59280 0.66571 0.78731 -0.31700
N 	N 	0.62390 0.76290 0.79655 -0.28300
C 	C 	0.59560 0.81350 0.81690 0.24800
N 	N 	0.65680 0.86100 0.80750 -0.34600
H 	H 	0.71370 0.85960 0.78880 0.14300
H 	H 	0.64010 0.89360 0.82010 0.14200
C 	C 	0.50280 0.81480 0.84630 -0.26500
H 	H 	0.48030 0.84990 0.85930 0.11900
C 	C 	0.44360 0.76300 0.85620 0.14800
H 	H 	0.37820 0.76300 0.87500 0.00300
H 	H 	0.19440 0.98600 0.02140 0.24100
O 	O 	0.83120 0.83340 0.12034 -0.20800
O 	O 	0.97950 0.94600 0.14219 -0.36100
O 	O 	0.01760 0.93267 0.06038 -0.49500
O 	O 	0.85580 0.86350 0.00670 -0.25500
C 	C 	0.92310 0.84490 0.15090 0.19400
H 	H 	0.88680 0.86190 0.17670 -0.00900
C 	C 	0.01120 0.88840 0.13147 -0.15000
H 	H 	0.09500 0.87950 0.13950 0.06600
C 	C 	0.99080 0.88080 0.08386 0.24900
H 	H 	0.03910 0.84790 0.07310 -0.06600
C 	C 	0.85450 0.86550 0.08220 -0.02600
H 	H 	0.80650 0.90170 0.08210 0.04500
C 	C 	0.82270 0.82920 0.04400 0.01300
H 	H 	0.86690 0.79250 0.04440 0.04800
H 	H 	0.73660 0.82060 0.04370 0.04100
N 	N 	0.98190 0.78710 0.16167 -0.19100
C 	C 	0.06630 0.78680 0.19355 0.23600
O 	O 	0.09280 0.83429 0.21269 -0.31900
N 	N 	0.12390 0.73710 0.20345 -0.29400
C 	C 	0.09560 0.68650 0.18310 0.30200
N 	N 	0.15680 0.63900 0.19250 -0.35800
H 	H 	0.21370 0.64040 0.21120 0.13500
H 	H 	0.14010 0.60640 0.17990 0.12000
C 	C 	0.00280 0.68520 0.15370 -0.47700
H 	H 	0.98030 0.65010 0.14070 0.21600
C 	C 	0.94360 0.73700 0.14380 0.29600
H 	H 	0.87820 0.73700 0.12500 -0.04500
H 	H 	0.19440 0.48600 0.52140 0.17100
O 	O 	0.83120 0.33340 0.62034 -0.21200
O 	O 	0.97950 0.44600 0.64219 -0.39800
O 	O 	0.01760 0.43267 0.56038 -0.52500
O 	O 	0.85580 0.36350 0.50670 -0.25400
C 	C 	0.92310 0.34490 0.65090 0.19700
H 	H 	0.88680 0.36190 0.67670 -0.01600
C 	C 	0.01120 0.38840 0.63147 -0.15300
H 	H 	0.09500 0.37950 0.63950 0.06100
C 	C 	0.99080 0.38080 0.58386 0.25500
H 	H 	0.03910 0.34790 0.57310 -0.06900
C 	C 	0.85450 0.36550 0.58220 -0.02500
H 	H 	0.80650 0.40170 0.58210 0.03400
C 	C 	0.82270 0.32920 0.54400 0.01000
H 	H 	0.86690 0.29250 0.54440 0.05000
H 	H 	0.73660 0.32060 0.54370 0.04000
N 	N 	0.98190 0.28710 0.66167 -0.19100
C 	C 	0.06630 0.28680 0.69355 0.23600
O 	O 	0.09280 0.33429 0.71269 -0.32600
N 	N 	0.12390 0.23710 0.70345 -0.29400
C 	C 	0.09560 0.18650 0.68310 0.29900
N 	N 	0.15680 0.13900 0.69250 -0.35500
H 	H 	0.21370 0.14040 0.71120 0.13000
H 	H 	0.14010 0.10640 0.67990 0.10900
C 	C 	0.00280 0.18520 0.65370 -0.48100
H 	H 	0.98030 0.15010 0.64070 0.21300
C 	C 	0.94360 0.23700 0.64380 0.29800
H 	H 	0.87820 0.23700 0.62500 -0.04600
H 	H 	0.69440 0.98600 0.52140 0.24300
O 	O 	0.33120 0.83340 0.62034 -0.21000
O 	O 	0.47950 0.94600 0.64219 -0.44400
O 	O 	0.51760 0.93267 0.56038 -0.42400
O 	O 	0.35580 0.86350 0.50670 -0.25800
C 	C 	0.42310 0.84490 0.65090 0.10200
H 	H 	0.38680 0.86190 0.67670 0.00600
C 	C 	0.51120 0.88840 0.63147 0.04900
H 	H 	0.59500 0.87950 0.63950 0.01600
C 	C 	0.49080 0.88080 0.58386 0.03700
H 	H 	0.53910 0.84790 0.57310 0.02900
C 	C 	0.35450 0.86550 0.58220 0.03700
H 	H 	0.30650 0.90170 0.58210 0.02100
C 	C 	0.32270 0.82920 0.54400 -0.02200
H 	H 	0.36690 0.79250 0.54440 0.04900
H 	H 	0.23660 0.82060 0.54370 0.04600
N 	N 	0.48190 0.78710 0.66167 -0.18100
C 	C 	0.56630 0.78680 0.69355 0.26200
O 	O 	0.59280 0.83429 0.71269 -0.31100
N 	N 	0.62390 0.73710 0.70345 -0.28200
C 	C 	0.59560 0.68650 0.68310 0.24100
N 	N 	0.65680 0.63900 0.69250 -0.34100
H 	H 	0.71370 0.64040 0.71120 0.13600
H 	H 	0.64010 0.60640 0.67990 0.12800
C 	C 	0.50280 0.68520 0.65370 -0.26100
H 	H 	0.48030 0.65010 0.64070 0.11000
C 	C 	0.44360 0.73700 0.64380 0.14400
H 	H 	0.37820 0.73700 0.62500 0.00300
H 	H 	0.69440 0.48600 0.02140 0.17400
O 	O 	0.33120 0.33340 0.12034 -0.21300
O 	O 	0.47950 0.44600 0.14219 -0.48600
O 	O 	0.51760 0.43267 0.06038 -0.45400
O 	O 	0.35580 0.36350 0.00670 -0.27100
C 	C 	0.42310 0.34490 0.15090 0.10000
H 	H 	0.38680 0.36190 0.17670 -0.00100
C 	C 	0.51120 0.38840 0.13147 0.05500
H 	H 	0.59500 0.37950 0.13950 0.00800
C 	C 	0.49080 0.38080 0.08386 0.03600
H 	H 	0.53910 0.34790 0.07310 0.02700
C 	C 	0.35450 0.36550 0.08220 0.03800
H 	H 	0.30650 0.40170 0.08210 0.00700
C 	C 	0.32270 0.32920 0.04400 -0.02000
H 	H 	0.36690 0.29250 0.04440 0.04600
H 	H 	0.23660 0.32060 0.04370 0.04000
N 	N 	0.48190 0.28710 0.16167 -0.18100
C 	C 	0.56630 0.28680 0.19355 0.26200
O 	O 	0.59280 0.33429 0.21269 -0.31700
N 	N 	0.62390 0.23710 0.20345 -0.28100
C 	C 	0.59560 0.18650 0.18310 0.23500
N 	N 	0.65680 0.13900 0.19250 -0.33700
H 	H 	0.71370 0.14040 0.21120 0.13100
H 	H 	0.64010 0.10640 0.17990 0.11700
C 	C 	0.50280 0.18520 0.15370 -0.25800
H 	H 	0.48030 0.15010 0.14070 0.10200
C 	C 	0.44360 0.23700 0.14380 0.14000
H 	H 	0.37820 0.23700 0.12500 0.00300
H 	H 	0.80560 0.01400 0.02140 0.16700
O 	O 	0.16880 0.16660 0.12034 -0.21000
O 	O 	0.02050 0.05400 0.14219 -0.57300
O 	O 	0.98240 0.06733 0.06038 -0.37200
O 	O 	0.14420 0.13650 0.00670 -0.26900
C 	C 	0.07690 0.15510 0.15090 -0.00000
H 	H 	0.11320 0.13810 0.17670 0.01900
C 	C 	0.98880 0.11160 0.13147 0.27100
H 	H 	0.90500 0.12050 0.13950 -0.05200
C 	C 	0.00920 0.11920 0.08386 -0.19300
H 	H 	0.96090 0.15210 0.07310 0.12500
C 	C 	0.14550 0.13450 0.08220 0.11000
H 	H 	0.19350 0.09830 0.08210 -0.02200
C 	C 	0.17730 0.17080 0.04400 -0.06400
H 	H 	0.13310 0.20750 0.04440 0.05100
H 	H 	0.26340 0.17940 0.04370 0.05600
N 	N 	0.01810 0.21290 0.16167 -0.17000
C 	C 	0.93370 0.21320 0.19355 0.28900
O 	O 	0.90720 0.16571 0.21269 -0.31200
N 	N 	0.87610 0.26290 0.20345 -0.27000
C 	C 	0.90440 0.31350 0.18310 0.17400
N 	N 	0.84320 0.36100 0.19250 -0.32100
H 	H 	0.78630 0.35960 0.21120 0.13100
H 	H 	0.85990 0.39360 0.17990 0.12900
C 	C 	0.99720 0.31480 0.15370 -0.03700
H 	H 	0.01970 0.34990 0.14070 -0.00200
C 	C 	0.05640 0.26300 0.14380 -0.01600
H 	H 	0.12180 0.26300 0.12500 0.05500
H 	H 	0.80560 0.51400 0.52140 0.16800
O 	O 	0.16880 0.66660 0.62034 -0.20700
O 	O 	0.02050 0.55400 0.64219 -0.55500
O 	O 	0.98240 0.56733 0.56038 -0.36700
O 	O 	0.14420 0.63650 0.50670 -0.26000
C 	C 	0.07690 0.65510 0.65090 0.00400
H 	H 	0.11320 0.63810 0.67670 0.02200
C 	C 	0.98880 0.61160 0.63147 0.26000
H 	H 	0.90500 0.62050 0.63950 -0.04600
C 	C 	0.00920 0.61920 0.58386 -0.18200
H 	H 	0.96090 0.65210 0.57310 0.12300
C 	C 	0.14550 0.63450 0.58220 0.10500
H 	H 	0.19350 0.59830 0.58210 -0.01100
C 	C 	0.17730 0.67080 0.54400 -0.06500
H 	H 	0.13310 0.70750 0.54440 0.05400
H 	H 	0.26340 0.67940 0.54370 0.06100
N 	N 	0.01810 0.71290 0.66167 -0.17100
C 	C 	0.93370 0.71320 0.69355 0.28800
O 	O 	0.90720 0.66571 0.71269 -0.30900
N 	N 	0.87610 0.76290 0.70345 -0.27100
C 	C 	0.90440 0.81350 0.68310 0.18400
N 	N 	0.84320 0.86100 0.69250 -0.32700
H 	H 	0.78630 0.85960 0.71120 0.13800
H 	H 	0.85990 0.89360 0.67990 0.14300
C 	C 	0.99720 0.81480 0.65370 -0.05200
H 	H 	0.01970 0.84990 0.64070 0.01300
C 	C 	0.05640 0.76300 0.64380 -0.00400
H 	H 	0.12180 0.76300 0.62500 0.05200
H 	H 	0.30560 0.01400 0.52140 0.16300
O 	O 	0.66880 0.16660 0.62034 -0.20800
O 	O 	0.52050 0.05400 0.64219 -0.50100
O 	O 	0.48240 0.06733 0.56038 -0.46200
O 	O 	0.64420 0.13650 0.50670 -0.26000
C 	C 	0.57690 0.15510 0.65090 0.09700
H 	H 	0.61320 0.13810 0.67670 0.00200
C 	C 	0.48880 0.11160 0.63147 0.06000
H 	H 	0.40500 0.12050 0.63950 -0.00100
C 	C 	0.50920 0.11920 0.58386 0.03200
H 	H 	0.46090 0.15210 0.57310 0.02700
C 	C 	0.64550 0.13450 0.58220 0.04400
H 	H 	0.69350 0.09830 0.58210 0.00400
C 	C 	0.67730 0.17080 0.54400 -0.03100
H 	H 	0.63310 0.20750 0.54440 0.05400
H 	H 	0.76340 0.17940 0.54370 0.05500
N 	N 	0.51810 0.21290 0.66167 -0.18100
C 	C 	0.43370 0.21320 0.69355 0.26300
O 	O 	0.40720 0.16571 0.71269 -0.32200
N 	N 	0.37610 0.26290 0.70345 -0.28200
C 	C 	0.40440 0.31350 0.68310 0.23800
N 	N 	0.34320 0.36100 0.69250 -0.33900
H 	H 	0.28630 0.35960 0.71120 0.13000
H 	H 	0.35990 0.39360 0.67990 0.12200
C 	C 	0.49720 0.31480 0.65370 -0.26000
H 	H 	0.51970 0.34990 0.64070 0.11000
C 	C 	0.55640 0.26300 0.64380 0.14200
H 	H 	0.62180 0.26300 0.62500 0.00600
H 	H 	0.30560 0.51400 0.02140 0.16400
O 	O 	0.66880 0.66660 0.12034 -0.20500
O 	O 	0.52050 0.55400 0.14219 -0.48500
O 	O 	0.48240 0.56733 0.06038 -0.45500
O 	O 	0.64420 0.63650 0.00670 -0.26200
C 	C 	0.57690 0.65510 0.15090 0.09700
H 	H 	0.61320 0.63810 0.17670 0.00600
C 	C 	0.48880 0.61160 0.13147 0.05700
H 	H 	0.40500 0.62050 0.13950 0.00300
C 	C 	0.50920 0.61920 0.08386 0.03500
H 	H 	0.46090 0.65210 0.07310 0.02500
C 	C 	0.64550 0.63450 0.08220 0.03900
H 	H 	0.69350 0.59830 0.08210 0.01400
C 	C 	0.67730 0.67080 0.04400 -0.02700
H 	H 	0.63310 0.70750 0.04440 0.05200
H 	H 	0.76340 0.67940 0.04370 0.05400
N 	N 	0.51810 0.71290 0.16167 -0.18100
C 	C 	0.43370 0.71320 0.19355 0.26300
O 	O 	0.40720 0.66571 0.21269 -0.31900
N 	N 	0.37610 0.76290 0.20345 -0.28300
C 	C 	0.40440 0.81350 0.18310 0.24500
N 	N 	0.34320 0.86100 0.19250 -0.34400
H 	H 	0.28630 0.85960 0.21120 0.13700
H 	H 	0.35990 0.89360 0.17990 0.13600
C 	C 	0.49720 0.81480 0.15370 -0.26300
H 	H 	0.51970 0.84990 0.14070 0.11700
C 	C 	0.55640 0.76300 0.14380 0.14600
H 	H 	0.62180 0.76300 0.12500 0.00600
Cu	Cu	0.00000 0.92766 -0.00000 0.92300
Cu	Cu	-0.00000 0.42766 0.50000 0.91000
Cu	Cu	0.50000 0.92766 0.50000 0.94700
Cu	Cu	0.50000 0.42766 -0.00000 0.92600
Cu	Cu	0.00000 0.07234 -0.00000 0.90600
Cu	Cu	0.00000 0.57234 0.50000 0.91000
Cu	Cu	0.50000 0.07234 0.50000 0.93000
Cu	Cu	0.50000 0.57234 -0.00000 0.92600
Cu	Cu	0.00000 0.00000 0.90309 0.85700
Cu	Cu	0.00000 0.00000 0.81017 0.75500
Cu	Cu	0.00000 0.50000 0.40309 0.88600
Cu	Cu	0.00000 0.50000 0.31017 0.78300
Cu	Cu	0.50000 0.00000 0.40309 0.87700
Cu	Cu	0.50000 -0.00000 0.31017 0.77500
Cu	Cu	0.50000 0.50000 0.90309 0.90700
Cu	Cu	0.50000 0.50000 0.81017 0.80200
Cu	Cu	0.00000 0.00000 0.09691 0.85700
Cu	Cu	0.00000 0.00000 0.18983 0.75600
Cu	Cu	0.00000 0.50000 0.59691 0.88600
Cu	Cu	-0.00000 0.50000 0.68983 0.78300
Cu	Cu	0.50000 -0.00000 0.59691 0.87700
Cu	Cu	0.50000 -0.00000 0.68983 0.77400
Cu	Cu	0.50000 0.50000 0.09691 0.90600
Cu	Cu	0.50000 0.50000 0.18983 0.80200
Cu	Cu	0.75000 0.75000 0.75000 0.87900
Cu	Cu	0.75000 0.25000 0.25000 0.87900
Cu	Cu	0.25000 0.75000 0.25000 0.87800
Cu	Cu	0.25000 0.25000 0.75000 0.87800
O 	O 	0.86200 0.00000 -0.00000 -0.64600
O 	O 	0.86200 0.50000 0.50000 -0.55300
O 	O 	0.36200 -0.00000 0.50000 -0.65600
O 	O 	0.36200 0.50000 -0.00000 -0.58500
O 	O 	0.13800 0.00000 -0.00000 -0.67700
O 	O 	0.13800 0.50000 0.50000 -0.58100
O 	O 	0.63800 -0.00000 0.50000 -0.65800
O 	O 	0.63800 0.50000 -0.00000 -0.58800
