data_crystal

_cell_length_a 12.73920
_cell_length_b 21.71400
_cell_length_c 17.81960
_cell_angle_alpha 90.00000
_cell_angle_beta  101.86400
_cell_angle_gamma 90.00000

_symmetry_space_group_name_	'P 1'
_symmetry_space_group_name_H-M	'P 1'

loop_
_symmetry_equiv_pos_as_xyz
  x,y,z

loop_
_atom_site_label
_atom_site_type_symbol
_atom_site_fract_x
_atom_site_fract_y
_atom_site_fract_z
_atom_site_charge
C 	C 	0.93810 0.08460 0.30890 0.12000
C 	C 	0.00320 0.03660 0.34490 -0.14200
C 	C 	0.06300 0.00380 0.30090 0.12000
C 	C 	0.00300 0.01900 0.42400 0.06500
C 	C 	0.93390 0.04630 0.46530 -0.07200
H 	H 	0.88720 0.07820 0.44210 0.04800
C 	C 	0.06840 0.97180 0.46080 -0.07100
H 	H 	0.11600 0.95160 0.43420 0.04600
C 	C 	0.71990 0.11800 0.06100 0.11500
C 	C 	0.68630 0.07660 0.00100 -0.14200
C 	C 	0.74310 0.07340 0.94170 0.11700
C 	C 	0.59230 0.03770 0.00030 0.06000
C 	C 	0.56020 0.99230 0.94490 -0.07200
H 	H 	0.60060 0.98620 0.90630 0.04500
C 	C 	0.52830 0.04400 0.05510 -0.07000
H 	H 	0.54680 0.07460 0.09380 0.04400
C 	C 	0.62090 0.23660 0.29770 0.11800
C 	C 	0.55070 0.26040 0.34140 -0.13800
C 	C 	0.47500 0.30530 0.30820 0.11200
C 	C 	0.55220 0.24140 0.42000 0.06000
C 	C 	0.61960 0.19460 0.45660 -0.07100
H 	H 	0.66840 0.17510 0.43040 0.04600
C 	C 	0.61560 0.17620 0.53060 -0.07200
H 	H 	0.66330 0.14500 0.55440 0.04700
C 	C 	0.54410 0.20210 0.57100 0.06000
C 	C 	0.47680 0.24820 0.53450 -0.07100
H 	H 	0.42640 0.26660 0.56030 0.04200
C 	C 	0.48180 0.26800 0.46110 -0.07100
H 	H 	0.43600 0.30040 0.43830 0.04200
C 	C 	0.53870 0.18430 0.65000 -0.13900
C 	C 	0.60850 0.14060 0.69030 0.11400
C 	C 	0.46650 0.21570 0.68540 0.11700
Cu	Cu	0.79701 0.18803 0.21561 0.86200
Cu	Cu	0.18629 0.91608 0.21222 0.86000
N 	N 	0.88380 0.12370 0.27960 -0.26600
N 	N 	0.11390 0.97627 0.26600 -0.27200
N 	N 	0.74510 0.15120 0.11240 -0.26600
N 	N 	0.78580 0.06994 0.89120 -0.27200
N 	N 	0.68120 0.21664 0.26360 -0.27200
N 	N 	0.40880 0.34150 0.28780 -0.25900
N 	N 	0.66810 0.10470 0.72200 -0.25800
N 	N 	0.40490 0.24569 0.70770 -0.26200
C 	C 	0.56190 0.58460 0.19110 0.11900
C 	C 	0.49680 0.53660 0.15510 -0.14300
C 	C 	0.43700 0.50380 0.19910 0.11900
C 	C 	0.49700 0.51900 0.07600 0.06400
C 	C 	0.56610 0.54630 0.03470 -0.07300
H 	H 	0.61280 0.57820 0.05790 0.04800
C 	C 	0.43160 0.47180 0.03920 -0.07100
H 	H 	0.38400 0.45160 0.06580 0.04600
C 	C 	0.78010 0.61800 0.43900 0.11500
C 	C 	0.81370 0.57660 0.49900 -0.14200
C 	C 	0.75690 0.57340 0.55830 0.11800
C 	C 	0.90770 0.53770 0.49970 0.06000
C 	C 	0.93980 0.49230 0.55510 -0.07200
H 	H 	0.89940 0.48620 0.59370 0.04500
C 	C 	0.97170 0.54400 0.44490 -0.07000
H 	H 	0.95320 0.57460 0.40620 0.04400
C 	C 	0.87910 0.73660 0.20230 0.11800
C 	C 	0.94930 0.76040 0.15860 -0.13800
C 	C 	0.02500 0.80530 0.19180 0.11200
C 	C 	0.94780 0.74140 0.08000 0.06100
C 	C 	0.88040 0.69460 0.04340 -0.07100
H 	H 	0.83160 0.67510 0.06960 0.04600
C 	C 	0.88440 0.67620 0.96940 -0.07100
H 	H 	0.83670 0.64500 0.94560 0.04700
C 	C 	0.95590 0.70210 0.92900 0.06000
C 	C 	0.02320 0.74820 0.96550 -0.07000
H 	H 	0.07360 0.76660 0.93970 0.04200
C 	C 	0.01820 0.76800 0.03890 -0.07200
H 	H 	0.06400 0.80040 0.06170 0.04200
C 	C 	0.96130 0.68430 0.85000 -0.13900
C 	C 	0.89150 0.64060 0.80970 0.11400
C 	C 	0.03350 0.71570 0.81460 0.11700
Cu	Cu	0.70299 0.68803 0.28439 0.86200
Cu	Cu	0.31371 0.41608 0.28778 0.86000
N 	N 	0.61620 0.62370 0.22040 -0.26600
N 	N 	0.38610 0.47627 0.23400 -0.27200
N 	N 	0.75490 0.65120 0.38760 -0.26600
N 	N 	0.71420 0.56994 0.60880 -0.27200
N 	N 	0.81880 0.71664 0.23640 -0.27200
N 	N 	0.09120 0.84150 0.21220 -0.25900
N 	N 	0.83190 0.60470 0.77800 -0.25800
N 	N 	0.09510 0.74569 0.79230 -0.26200
C 	C 	0.06190 0.91540 0.69110 0.11900
C 	C 	0.99680 0.96340 0.65510 -0.14300
C 	C 	0.93700 0.99620 0.69910 0.11900
C 	C 	0.99700 0.98100 0.57600 0.06400
C 	C 	0.06610 0.95370 0.53470 -0.07200
H 	H 	0.11280 0.92180 0.55790 0.04800
C 	C 	0.93160 0.02820 0.53920 -0.07100
H 	H 	0.88400 0.04840 0.56580 0.04600
C 	C 	0.28010 0.88200 0.93900 0.11500
C 	C 	0.31370 0.92340 0.99900 -0.14200
C 	C 	0.25690 0.92660 0.05830 0.11700
C 	C 	0.40770 0.96230 0.99970 0.06000
C 	C 	0.43980 0.00770 0.05510 -0.07200
H 	H 	0.39940 0.01380 0.09370 0.04500
C 	C 	0.47170 0.95600 0.94490 -0.07000
H 	H 	0.45320 0.92540 0.90620 0.04400
C 	C 	0.37910 0.76340 0.70230 0.11800
C 	C 	0.44930 0.73960 0.65860 -0.13800
C 	C 	0.52500 0.69470 0.69180 0.11200
C 	C 	0.44780 0.75860 0.58000 0.06000
C 	C 	0.38040 0.80540 0.54340 -0.07100
H 	H 	0.33160 0.82490 0.56960 0.04600
C 	C 	0.38440 0.82380 0.46940 -0.07200
H 	H 	0.33670 0.85500 0.44560 0.04700
C 	C 	0.45590 0.79790 0.42900 0.06000
C 	C 	0.52320 0.75180 0.46550 -0.07100
H 	H 	0.57360 0.73340 0.43970 0.04200
C 	C 	0.51820 0.73200 0.53890 -0.07100
H 	H 	0.56400 0.69960 0.56170 0.04200
C 	C 	0.46130 0.81570 0.35000 -0.13900
C 	C 	0.39150 0.85940 0.30970 0.11400
C 	C 	0.53350 0.78430 0.31460 0.11700
Cu	Cu	0.20299 0.81197 0.78439 0.86200
Cu	Cu	0.81371 0.08392 0.78778 0.86000
N 	N 	0.11620 0.87630 0.72040 -0.26600
N 	N 	0.88610 0.02373 0.73400 -0.27200
N 	N 	0.25490 0.84880 0.88760 -0.26600
N 	N 	0.21420 0.93006 0.10880 -0.27200
N 	N 	0.31880 0.78336 0.73640 -0.27200
N 	N 	0.59120 0.65850 0.71220 -0.25900
N 	N 	0.33190 0.89530 0.27800 -0.25800
N 	N 	0.59510 0.75431 0.29230 -0.26200
C 	C 	0.43810 0.41540 0.80890 0.11900
C 	C 	0.50320 0.46340 0.84490 -0.14300
C 	C 	0.56300 0.49620 0.80090 0.11900
C 	C 	0.50300 0.48100 0.92400 0.06400
C 	C 	0.43390 0.45370 0.96530 -0.07300
H 	H 	0.38720 0.42180 0.94210 0.04800
C 	C 	0.56840 0.52820 0.96080 -0.07100
H 	H 	0.61600 0.54840 0.93420 0.04600
C 	C 	0.21990 0.38200 0.56100 0.11500
C 	C 	0.18630 0.42340 0.50100 -0.14200
C 	C 	0.24310 0.42660 0.44170 0.11800
C 	C 	0.09230 0.46230 0.50030 0.06000
C 	C 	0.06020 0.50770 0.44490 -0.07200
H 	H 	0.10060 0.51380 0.40630 0.04500
C 	C 	0.02830 0.45600 0.55510 -0.07000
H 	H 	0.04680 0.42540 0.59380 0.04400
C 	C 	0.12090 0.26340 0.79770 0.11800
C 	C 	0.05070 0.23960 0.84140 -0.13800
C 	C 	0.97500 0.19470 0.80820 0.11200
C 	C 	0.05220 0.25860 0.92000 0.06100
C 	C 	0.11960 0.30540 0.95660 -0.07100
H 	H 	0.16840 0.32490 0.93040 0.04600
C 	C 	0.11560 0.32380 0.03060 -0.07100
H 	H 	0.16330 0.35500 0.05440 0.04700
C 	C 	0.04410 0.29790 0.07100 0.06000
C 	C 	0.97680 0.25180 0.03450 -0.07000
H 	H 	0.92640 0.23340 0.06030 0.04200
C 	C 	0.98180 0.23200 0.96110 -0.07200
H 	H 	0.93600 0.19960 0.93830 0.04200
C 	C 	0.03870 0.31570 0.15000 -0.13900
C 	C 	0.10850 0.35940 0.19030 0.11400
C 	C 	0.96650 0.28430 0.18540 0.11700
Cu	Cu	0.29701 0.31197 0.71561 0.86200
Cu	Cu	0.68629 0.58392 0.71222 0.86000
N 	N 	0.38380 0.37630 0.77960 -0.26600
N 	N 	0.61390 0.52373 0.76600 -0.27200
N 	N 	0.24510 0.34880 0.61240 -0.26600
N 	N 	0.28580 0.43006 0.39120 -0.27200
N 	N 	0.18120 0.28336 0.76360 -0.27200
N 	N 	0.90880 0.15850 0.78780 -0.25900
N 	N 	0.16810 0.39530 0.22200 -0.25800
N 	N 	0.90490 0.25431 0.20770 -0.26200
