data_crystal

_cell_length_a 12.52550
_cell_length_b 8.17010
_cell_length_c 20.94740
_cell_angle_alpha 90.00000
_cell_angle_beta  96.83500
_cell_angle_gamma 90.00000

_symmetry_space_group_name_	'P 1'
_symmetry_space_group_name_H-M	'P 1'

loop_
_symmetry_equiv_pos_as_xyz
  x,y,z

loop_
_atom_site_label
_atom_site_type_symbol
_atom_site_fract_x
_atom_site_fract_y
_atom_site_fract_z
_atom_site_charge
C 	C 	0.66530 0.57140 0.83320 0.11200
Cu	Cu	0.99885 0.14147 0.24513 0.86000
N 	N 	0.90310 0.74930 0.80720 -0.26800
N 	N 	0.59460 0.50690 0.80270 -0.26300
C 	C 	0.75020 0.65410 0.86920 -0.13600
C 	C 	0.73870 0.79550 0.06670 0.06100
C 	C 	0.81210 0.94960 0.16540 0.11200
C 	C 	0.83020 0.79100 0.97060 -0.06800
H 	H 	0.88940 0.82410 0.94930 0.04600
C 	C 	0.73240 0.84910 0.13300 -0.13600
C 	C 	0.66190 0.64890 0.97090 -0.06900
H 	H 	0.60550 0.58370 0.94990 0.04800
N 	N 	0.88070 0.02910 0.19240 -0.26900
N 	N 	0.57310 0.78500 0.19460 -0.25700
C 	C 	0.82560 0.83790 0.03400 -0.07400
H 	H 	0.88300 0.90020 0.05560 0.04700
C 	C 	0.64560 0.81520 0.16610 0.10600
C 	C 	0.65780 0.69730 0.03410 -0.07200
H 	H 	0.59910 0.66340 0.05570 0.04800
C 	C 	0.74790 0.69480 0.93750 0.05800
C 	C 	0.83260 0.70530 0.83520 0.11100
C 	C 	0.83470 0.07140 0.66680 0.11400
Cu	Cu	0.50115 0.64147 0.25487 0.86200
N 	N 	0.59690 0.24930 0.69280 -0.26800
N 	N 	0.90540 0.00690 0.69730 -0.26200
C 	C 	0.74980 0.15410 0.63080 -0.13700
C 	C 	0.76130 0.29550 0.43330 0.05900
C 	C 	0.68790 0.44960 0.33460 0.11000
C 	C 	0.66980 0.29100 0.52940 -0.07000
H 	H 	0.61060 0.32410 0.55070 0.04600
C 	C 	0.76760 0.34910 0.36700 -0.13500
C 	C 	0.83810 0.14890 0.52910 -0.07100
H 	H 	0.89450 0.08370 0.55010 0.04900
N 	N 	0.61930 0.52910 0.30760 -0.26800
N 	N 	0.92690 0.28500 0.30540 -0.25700
C 	C 	0.67440 0.33790 0.46600 -0.07100
H 	H 	0.61700 0.40020 0.44440 0.04700
C 	C 	0.85440 0.31520 0.33390 0.10500
C 	C 	0.84220 0.19730 0.46590 -0.07000
H 	H 	0.90090 0.16340 0.44430 0.04800
C 	C 	0.75210 0.19480 0.56250 0.06000
C 	C 	0.66740 0.20530 0.66480 0.11100
C 	C 	0.33470 0.42860 0.16680 0.11300
Cu	Cu	0.00115 0.85853 0.75487 0.86100
N 	N 	0.09690 0.25070 0.19280 -0.26800
N 	N 	0.40540 0.49310 0.19730 -0.26300
C 	C 	0.24980 0.34590 0.13080 -0.13600
C 	C 	0.26130 0.20450 0.93330 0.06100
C 	C 	0.18790 0.05040 0.83460 0.11200
C 	C 	0.16980 0.20900 0.02940 -0.06800
H 	H 	0.11060 0.17590 0.05070 0.04600
C 	C 	0.26760 0.15090 0.86700 -0.13600
C 	C 	0.33810 0.35110 0.02910 -0.06900
H 	H 	0.39450 0.41630 0.05010 0.04800
N 	N 	0.11930 0.97090 0.80760 -0.26900
N 	N 	0.42690 0.21500 0.80540 -0.25700
C 	C 	0.17440 0.16210 0.96600 -0.07400
H 	H 	0.11700 0.09980 0.94440 0.04700
C 	C 	0.35440 0.18480 0.83390 0.10600
C 	C 	0.34220 0.30270 0.96590 -0.07200
H 	H 	0.40090 0.33660 0.94430 0.04800
C 	C 	0.25210 0.30520 0.06250 0.05800
C 	C 	0.16740 0.29470 0.16480 0.11100
C 	C 	0.16530 0.92860 0.33320 0.11400
Cu	Cu	0.49885 0.35853 0.74513 0.86200
N 	N 	0.40310 0.75070 0.30720 -0.26800
N 	N 	0.09460 0.99310 0.30270 -0.26200
C 	C 	0.25020 0.84590 0.36920 -0.13700
C 	C 	0.23870 0.70450 0.56670 0.05900
C 	C 	0.31210 0.55040 0.66540 0.11000
C 	C 	0.33020 0.70900 0.47060 -0.07000
H 	H 	0.38940 0.67590 0.44930 0.04600
C 	C 	0.23240 0.65090 0.63300 -0.13500
C 	C 	0.16190 0.85110 0.47090 -0.07100
H 	H 	0.10550 0.91630 0.44990 0.04900
N 	N 	0.38070 0.47090 0.69240 -0.26800
N 	N 	0.07310 0.71500 0.69460 -0.25700
C 	C 	0.32560 0.66210 0.53400 -0.07100
H 	H 	0.38300 0.59980 0.55560 0.04700
C 	C 	0.14560 0.68480 0.66610 0.10500
C 	C 	0.15780 0.80270 0.53410 -0.07000
H 	H 	0.09910 0.83660 0.55570 0.04800
C 	C 	0.24790 0.80520 0.43750 0.06000
C 	C 	0.33260 0.79470 0.33520 0.11100
