data_crystal

_cell_length_a 9.75630
_cell_length_b 11.24130
_cell_length_c 21.59570
_cell_angle_alpha 90.00000
_cell_angle_beta  90.00000
_cell_angle_gamma 90.00000

_symmetry_space_group_name_	'P 1'
_symmetry_space_group_name_H-M	'P 1'

loop_
_symmetry_equiv_pos_as_xyz
  x,y,z

loop_
_atom_site_label
_atom_site_type_symbol
_atom_site_fract_x
_atom_site_fract_y
_atom_site_fract_z
_atom_site_charge
C 	C 	0.10570 0.94070 0.33258 0.11700
C 	C 	0.02560 0.01990 0.36700 -0.14000
C 	C 	0.95240 0.10400 0.33329 0.11500
C 	C 	0.01200 0.00930 0.43475 0.06600
C 	C 	0.08410 0.92310 0.46788 -0.07500
H 	H 	0.14110 0.87060 0.44670 0.05000
C 	C 	0.92750 0.08610 0.46823 -0.07600
H 	H 	0.87810 0.14440 0.44740 0.05000
N 	N 	0.16930 0.87530 0.30336 -0.26800
N 	N 	0.89100 0.17240 0.30458 -0.26600
C 	C 	0.39430 0.55930 0.33258 0.11700
C 	C 	0.47440 0.48010 0.36700 -0.14200
C 	C 	0.54760 0.39600 0.33329 0.11500
C 	C 	0.48800 0.49070 0.43475 0.06400
C 	C 	0.41590 0.57690 0.46788 -0.07400
H 	H 	0.35890 0.62940 0.44670 0.04900
C 	C 	0.57250 0.41390 0.46823 -0.07500
H 	H 	0.62190 0.35560 0.44740 0.05000
N 	N 	0.33070 0.62470 0.30336 -0.26800
N 	N 	0.60900 0.32760 0.30458 -0.26600
C 	C 	0.89430 0.44070 0.16742 0.11700
C 	C 	0.97440 0.51990 0.13300 -0.14200
C 	C 	0.04760 0.60400 0.16671 0.11500
C 	C 	0.98800 0.50930 0.06525 0.06400
C 	C 	0.91590 0.42310 0.03212 -0.07400
H 	H 	0.85890 0.37060 0.05330 0.04900
C 	C 	0.07250 0.58610 0.03177 -0.07500
H 	H 	0.12190 0.64440 0.05260 0.05000
N 	N 	0.83070 0.37530 0.19664 -0.26800
N 	N 	0.10900 0.67240 0.19542 -0.26600
C 	C 	0.60570 0.05930 0.16742 0.11700
C 	C 	0.52560 0.98010 0.13300 -0.14200
C 	C 	0.45240 0.89600 0.16671 0.11500
C 	C 	0.51200 0.99070 0.06525 0.06400
C 	C 	0.58410 0.07690 0.03212 -0.07500
H 	H 	0.64110 0.12940 0.05330 0.04900
C 	C 	0.42750 0.91390 0.03177 -0.07500
H 	H 	0.37810 0.85560 0.05260 0.05000
N 	N 	0.66930 0.12470 0.19664 -0.26800
N 	N 	0.39100 0.82760 0.19542 -0.26600
C 	C 	0.89430 0.05930 0.66742 0.11600
C 	C 	0.97440 0.98010 0.63300 -0.14100
C 	C 	0.04760 0.89600 0.66671 0.11400
C 	C 	0.98800 0.99070 0.56525 0.06500
C 	C 	0.91590 0.07690 0.53212 -0.07500
H 	H 	0.85890 0.12940 0.55330 0.05000
C 	C 	0.07250 0.91390 0.53177 -0.07600
H 	H 	0.12190 0.85560 0.55260 0.05000
N 	N 	0.83070 0.12470 0.69664 -0.26800
N 	N 	0.10900 0.82760 0.69542 -0.26600
C 	C 	0.60570 0.44070 0.66742 0.11700
C 	C 	0.52560 0.51990 0.63300 -0.14200
C 	C 	0.45240 0.60400 0.66671 0.11500
C 	C 	0.51200 0.50930 0.56525 0.06400
C 	C 	0.58410 0.42310 0.53212 -0.07400
H 	H 	0.64110 0.37060 0.55330 0.04900
C 	C 	0.42750 0.58610 0.53177 -0.07500
H 	H 	0.37810 0.64440 0.55260 0.05000
N 	N 	0.66930 0.37530 0.69664 -0.26800
N 	N 	0.39100 0.67240 0.69542 -0.26600
C 	C 	0.10570 0.55930 0.83258 0.11700
C 	C 	0.02560 0.48010 0.86700 -0.14200
C 	C 	0.95240 0.39600 0.83329 0.11500
C 	C 	0.01200 0.49070 0.93475 0.06400
C 	C 	0.08410 0.57690 0.96788 -0.07400
H 	H 	0.14110 0.62940 0.94670 0.04900
C 	C 	0.92750 0.41390 0.96823 -0.07500
H 	H 	0.87810 0.35560 0.94740 0.05000
N 	N 	0.16930 0.62470 0.80336 -0.26800
N 	N 	0.89100 0.32760 0.80458 -0.26600
C 	C 	0.39430 0.94070 0.83258 0.11700
C 	C 	0.47440 0.01990 0.86700 -0.14200
C 	C 	0.54760 0.10400 0.83329 0.11500
C 	C 	0.48800 0.00930 0.93475 0.06400
C 	C 	0.41590 0.92310 0.96788 -0.07500
H 	H 	0.35890 0.87060 0.94670 0.04900
C 	C 	0.57250 0.08610 0.96823 -0.07500
H 	H 	0.62190 0.14440 0.94740 0.05000
N 	N 	0.33070 0.87530 0.80336 -0.26800
N 	N 	0.60900 0.17240 0.80458 -0.26600
Cu	Cu	0.25000 0.75000 0.24919 0.86000
Cu	Cu	0.75000 0.25000 0.25081 0.86000
Cu	Cu	0.75000 0.25000 0.75081 0.86000
Cu	Cu	0.25000 0.75000 0.74919 0.86000
