data_crystal

_cell_length_a 31.81000
_cell_length_b 14.99300
_cell_length_c 13.22000
_cell_angle_alpha 90.00000
_cell_angle_beta  96.01000
_cell_angle_gamma 90.00000

_symmetry_space_group_name_	'P 1'
_symmetry_space_group_name_H-M	'P 1'

loop_
_symmetry_equiv_pos_as_xyz
  x,y,z

loop_
_atom_site_label
_atom_site_type_symbol
_atom_site_fract_x
_atom_site_fract_y
_atom_site_fract_z
_atom_site_charge
C 	C 	0.21056 0.39914 0.74211 -0.16900
C 	C 	0.23587 0.46434 0.79230 0.10800
C 	C 	0.21820 0.52663 0.85325 -0.17000
C 	C 	0.17523 0.52372 0.86401 0.05500
C 	C 	0.14991 0.45853 0.81382 0.01700
C 	C 	0.16758 0.39624 0.75288 0.06400
C 	C 	0.99753 0.29039 0.87921 -0.01900
C 	C 	0.00263 0.38405 0.87957 0.00100
C 	C 	0.96995 0.43856 0.90570 0.00300
C 	C 	0.93275 0.39970 0.93229 0.06000
C 	C 	0.92810 0.30860 0.93240 -0.10600
C 	C 	0.95994 0.25451 0.90583 0.04000
C 	C 	0.04073 0.42260 0.85542 0.04600
C 	C 	0.08123 0.38602 0.84502 0.03700
N 	N 	0.10834 0.45683 0.82223 -0.08500
N 	N 	0.08460 0.53719 0.81854 -0.05000
N 	N 	0.04282 0.51603 0.83905 -0.07100
C 	C 	0.22905 0.33500 0.66980 0.46700
C 	C 	0.24623 0.59630 0.91020 0.44400
C 	C 	0.88841 0.26960 0.96660 0.33400
Eu	Eu	0.18936 0.20674 0.47045 1.80900
O 	O 	0.22986 0.66350 0.94410 -0.55700
O 	O 	0.28539 0.58232 0.92110 -0.45900
O 	O 	0.87931 0.18860 0.95340 -0.40800
O 	O 	0.86357 0.32110 0.00690 -0.40900
O 	O 	0.20530 0.27185 0.63640 -0.45800
O 	O 	0.26569 0.34992 0.64930 -0.51300
C 	C 	0.71056 0.89914 0.74211 -0.16900
C 	C 	0.73587 0.96434 0.79230 0.10400
C 	C 	0.71820 0.02663 0.85325 -0.16900
C 	C 	0.67523 0.02372 0.86401 0.05600
C 	C 	0.64991 0.95853 0.81382 0.01400
C 	C 	0.66758 0.89624 0.75288 0.06300
C 	C 	0.49753 0.79039 0.87921 -0.02100
C 	C 	0.50263 0.88405 0.87957 0.00100
C 	C 	0.46995 0.93856 0.90570 0.00100
C 	C 	0.43275 0.89970 0.93229 0.05800
C 	C 	0.42810 0.80860 0.93240 -0.10500
C 	C 	0.45994 0.75451 0.90583 0.04000
C 	C 	0.54073 0.92260 0.85542 0.04500
C 	C 	0.58123 0.88602 0.84502 0.03600
N 	N 	0.60834 0.95683 0.82223 -0.08500
N 	N 	0.58460 0.03719 0.81854 -0.04900
N 	N 	0.54282 0.01603 0.83905 -0.07000
C 	C 	0.72905 0.83500 0.66980 0.46600
C 	C 	0.74623 0.09630 0.91020 0.44400
C 	C 	0.38841 0.76960 0.96660 0.33100
Eu	Eu	0.68936 0.70674 0.47045 1.81000
O 	O 	0.72986 0.16350 0.94410 -0.55600
O 	O 	0.78539 0.08232 0.92110 -0.45800
O 	O 	0.37931 0.68860 0.95340 -0.40900
O 	O 	0.36357 0.82110 0.00690 -0.40700
O 	O 	0.70530 0.77185 0.63640 -0.45800
O 	O 	0.76569 0.84992 0.64930 -0.51300
C 	C 	0.78944 0.39914 0.75789 -0.17000
C 	C 	0.76413 0.46434 0.70770 0.10700
C 	C 	0.78180 0.52663 0.64675 -0.17100
C 	C 	0.82477 0.52372 0.63599 0.05400
C 	C 	0.85009 0.45853 0.68618 0.01600
C 	C 	0.83242 0.39624 0.74712 0.06300
C 	C 	0.00247 0.29039 0.62079 -0.02100
C 	C 	0.99737 0.38405 0.62043 0.00000
C 	C 	0.03005 0.43856 0.59430 0.00200
C 	C 	0.06725 0.39970 0.56771 0.05900
C 	C 	0.07190 0.30860 0.56760 -0.10600
C 	C 	0.04006 0.25451 0.59417 0.04000
C 	C 	0.95927 0.42260 0.64458 0.04600
C 	C 	0.91877 0.38602 0.65498 0.03600
N 	N 	0.89166 0.45683 0.67777 -0.08500
N 	N 	0.91540 0.53719 0.68146 -0.05000
N 	N 	0.95718 0.51603 0.66095 -0.07100
C 	C 	0.77095 0.33500 0.83020 0.46600
C 	C 	0.75377 0.59630 0.58980 0.44400
C 	C 	0.11159 0.26960 0.53340 0.33300
Eu	Eu	0.81064 0.20674 0.02955 1.80600
O 	O 	0.77014 0.66350 0.55590 -0.55700
O 	O 	0.71461 0.58232 0.57890 -0.45900
O 	O 	0.12069 0.18860 0.54660 -0.40900
O 	O 	0.13643 0.32110 0.49310 -0.40900
O 	O 	0.79470 0.27185 0.86360 -0.45700
O 	O 	0.73431 0.34992 0.85070 -0.51300
C 	C 	0.28944 0.89914 0.75789 -0.17000
C 	C 	0.26413 0.96434 0.70770 0.10500
C 	C 	0.28180 0.02663 0.64675 -0.17000
C 	C 	0.32477 0.02372 0.63599 0.05500
C 	C 	0.35009 0.95853 0.68618 0.01500
C 	C 	0.33242 0.89624 0.74712 0.06300
C 	C 	0.50247 0.79039 0.62079 -0.02100
C 	C 	0.49737 0.88405 0.62043 0.00100
C 	C 	0.53005 0.93856 0.59430 0.00200
C 	C 	0.56725 0.89970 0.56771 0.05900
C 	C 	0.57190 0.80860 0.56760 -0.10600
C 	C 	0.54006 0.75451 0.59417 0.04000
C 	C 	0.45927 0.92260 0.64458 0.04500
C 	C 	0.41877 0.88602 0.65498 0.03700
N 	N 	0.39166 0.95683 0.67777 -0.08500
N 	N 	0.41540 0.03719 0.68146 -0.04900
N 	N 	0.45718 0.01603 0.66095 -0.07100
C 	C 	0.27095 0.83500 0.83020 0.46600
C 	C 	0.25377 0.09630 0.58980 0.44400
C 	C 	0.61159 0.76960 0.53340 0.33300
Eu	Eu	0.31064 0.70674 0.02955 1.81200
O 	O 	0.27014 0.16350 0.55590 -0.55700
O 	O 	0.21461 0.08232 0.57890 -0.45900
O 	O 	0.62069 0.68860 0.54660 -0.40900
O 	O 	0.63643 0.82110 0.49310 -0.40900
O 	O 	0.29470 0.77185 0.86360 -0.45800
O 	O 	0.23431 0.84992 0.85070 -0.51300
C 	C 	0.78944 0.60086 0.25789 -0.17000
C 	C 	0.76413 0.53566 0.20770 0.10700
C 	C 	0.78180 0.47337 0.14675 -0.17100
C 	C 	0.82477 0.47628 0.13599 0.05400
C 	C 	0.85009 0.54147 0.18618 0.01600
C 	C 	0.83242 0.60376 0.24712 0.06300
C 	C 	0.00247 0.70961 0.12079 -0.02000
C 	C 	0.99737 0.61595 0.12043 0.00000
C 	C 	0.03005 0.56144 0.09430 0.00200
C 	C 	0.06725 0.60030 0.06771 0.05900
C 	C 	0.07190 0.69140 0.06760 -0.10600
C 	C 	0.04006 0.74549 0.09417 0.04000
C 	C 	0.95927 0.57740 0.14458 0.04600
C 	C 	0.91877 0.61398 0.15498 0.03700
N 	N 	0.89166 0.54317 0.17777 -0.08500
N 	N 	0.91540 0.46281 0.18146 -0.05000
N 	N 	0.95718 0.48397 0.16095 -0.07100
C 	C 	0.77095 0.66500 0.33020 0.46700
C 	C 	0.75377 0.40370 0.08980 0.44400
C 	C 	0.11159 0.73040 0.03340 0.33400
Eu	Eu	0.81064 0.79326 0.52955 1.80900
O 	O 	0.77014 0.33650 0.05590 -0.55700
O 	O 	0.71461 0.41768 0.07890 -0.45900
O 	O 	0.12069 0.81140 0.04660 -0.40800
O 	O 	0.13643 0.67890 0.99310 -0.40900
O 	O 	0.79470 0.72815 0.36360 -0.45800
O 	O 	0.73431 0.65008 0.35070 -0.51300
C 	C 	0.28944 0.10086 0.25789 -0.16900
C 	C 	0.26413 0.03566 0.20770 0.10400
C 	C 	0.28180 0.97337 0.14675 -0.16900
C 	C 	0.32477 0.97628 0.13599 0.05600
C 	C 	0.35009 0.04147 0.18618 0.01400
C 	C 	0.33242 0.10376 0.24712 0.06300
C 	C 	0.50247 0.20961 0.12079 -0.02100
C 	C 	0.49737 0.11595 0.12043 0.00100
C 	C 	0.53005 0.06144 0.09430 0.00100
C 	C 	0.56725 0.10030 0.06771 0.05800
C 	C 	0.57190 0.19140 0.06760 -0.10500
C 	C 	0.54006 0.24549 0.09417 0.04000
C 	C 	0.45927 0.07740 0.14458 0.04500
C 	C 	0.41877 0.11398 0.15498 0.03600
N 	N 	0.39166 0.04317 0.17777 -0.08500
N 	N 	0.41540 0.96281 0.18146 -0.04900
N 	N 	0.45718 0.98397 0.16095 -0.07000
C 	C 	0.27095 0.16500 0.33020 0.46600
C 	C 	0.25377 0.90370 0.08980 0.44400
C 	C 	0.61159 0.23040 0.03340 0.33100
Eu	Eu	0.31064 0.29326 0.52955 1.81000
O 	O 	0.27014 0.83650 0.05590 -0.55600
O 	O 	0.21461 0.91768 0.07890 -0.45800
O 	O 	0.62069 0.31140 0.04660 -0.40900
O 	O 	0.63643 0.17890 0.99310 -0.40700
O 	O 	0.29470 0.22815 0.36360 -0.45800
O 	O 	0.23431 0.15008 0.35070 -0.51300
C 	C 	0.21056 0.60086 0.24211 -0.17000
C 	C 	0.23587 0.53566 0.29230 0.10700
C 	C 	0.21820 0.47337 0.35325 -0.17100
C 	C 	0.17523 0.47628 0.36401 0.05400
C 	C 	0.14991 0.54147 0.31382 0.01600
C 	C 	0.16758 0.60376 0.25288 0.06300
C 	C 	0.99753 0.70961 0.37921 -0.02100
C 	C 	0.00263 0.61595 0.37957 0.00000
C 	C 	0.96995 0.56144 0.40570 0.00200
C 	C 	0.93275 0.60030 0.43229 0.05900
C 	C 	0.92810 0.69140 0.43240 -0.10600
C 	C 	0.95994 0.74549 0.40583 0.04000
C 	C 	0.04073 0.57740 0.35542 0.04600
C 	C 	0.08123 0.61398 0.34502 0.03600
N 	N 	0.10834 0.54317 0.32223 -0.08500
N 	N 	0.08460 0.46281 0.31854 -0.05000
N 	N 	0.04282 0.48397 0.33905 -0.07100
C 	C 	0.22905 0.66500 0.16980 0.46600
C 	C 	0.24623 0.40370 0.41020 0.44400
C 	C 	0.88841 0.73040 0.46660 0.33300
Eu	Eu	0.18936 0.79326 0.97045 1.80600
O 	O 	0.22986 0.33650 0.44410 -0.55700
O 	O 	0.28539 0.41768 0.42110 -0.45900
O 	O 	0.87931 0.81140 0.45340 -0.40900
O 	O 	0.86357 0.67890 0.50690 -0.40900
O 	O 	0.20530 0.72815 0.13640 -0.45700
O 	O 	0.26569 0.65008 0.14930 -0.51300
C 	C 	0.71056 0.10086 0.24211 -0.17000
C 	C 	0.73587 0.03566 0.29230 0.10500
C 	C 	0.71820 0.97337 0.35325 -0.17000
C 	C 	0.67523 0.97628 0.36401 0.05500
C 	C 	0.64991 0.04147 0.31382 0.01500
C 	C 	0.66758 0.10376 0.25288 0.06300
C 	C 	0.49753 0.20961 0.37921 -0.02100
C 	C 	0.50263 0.11595 0.37957 0.00100
C 	C 	0.46995 0.06144 0.40570 0.00200
C 	C 	0.43275 0.10030 0.43229 0.05900
C 	C 	0.42810 0.19140 0.43240 -0.10600
C 	C 	0.45994 0.24549 0.40583 0.04000
C 	C 	0.54073 0.07740 0.35542 0.04500
C 	C 	0.58123 0.11398 0.34502 0.03700
N 	N 	0.60834 0.04317 0.32223 -0.08500
N 	N 	0.58460 0.96281 0.31854 -0.04900
N 	N 	0.54282 0.98397 0.33905 -0.07100
C 	C 	0.72905 0.16500 0.16980 0.46600
C 	C 	0.74623 0.90370 0.41020 0.44400
C 	C 	0.38841 0.23040 0.46660 0.33300
Eu	Eu	0.68936 0.29326 0.97045 1.81200
O 	O 	0.72986 0.83650 0.44410 -0.55700
O 	O 	0.78539 0.91768 0.42110 -0.45900
O 	O 	0.37931 0.31140 0.45340 -0.40900
O 	O 	0.36357 0.17890 0.50690 -0.40900
O 	O 	0.70530 0.22815 0.13640 -0.45800
O 	O 	0.76569 0.15008 0.14930 -0.51300
