data_crystal

_cell_length_a 7.51350
_cell_length_b 37.15680
_cell_length_c 11.14990
_cell_angle_alpha 90.00000
_cell_angle_beta  98.64700
_cell_angle_gamma 90.00000

_symmetry_space_group_name_	'P 1'
_symmetry_space_group_name_H-M	'P 1'

loop_
_symmetry_equiv_pos_as_xyz
  x,y,z

loop_
_atom_site_label
_atom_site_type_symbol
_atom_site_fract_x
_atom_site_fract_y
_atom_site_fract_z
_atom_site_charge
O 	O 	0.29430 0.15392 0.38520 -0.40700
C 	C 	0.36030 0.12410 0.35260 0.01400
H 	H 	0.34840 0.10550 0.41310 0.12400
H 	H 	0.48790 0.12750 0.34610 0.02900
H 	H 	0.29500 0.11670 0.27370 0.03100
Mn	Mn	0.06554 0.16588 0.47811 1.22700
C 	C 	0.93180 0.02683 0.41410 0.07800
C 	C 	0.90800 0.98992 0.38880 -0.07200
H 	H 	0.84550 0.98270 0.31220 0.03700
N 	N 	0.67430 0.03395 0.12790 -0.31400
C 	C 	0.02710 0.03587 0.52780 -0.09600
H 	H 	0.04740 0.06050 0.54780 0.04800
N 	N 	0.92420 0.11976 0.38280 -0.27900
N 	N 	0.94090 0.20219 0.33260 -0.27400
N 	N 	0.18760 0.13076 0.62960 -0.29100
C 	C 	0.75850 0.04473 0.21580 0.12100
N 	N 	0.46820 0.04597 0.87020 -0.29900
C 	C 	0.43570 0.07517 0.84220 0.12300
C 	C 	0.49360 0.13956 0.89670 0.10600
C 	C 	0.58580 0.13107 0.01150 -0.13100
H 	H 	0.59400 0.10670 0.03700 0.05500
C 	C 	0.65570 0.19399 0.05620 0.01400
C 	C 	0.89130 0.09062 0.35250 0.14100
C 	C 	0.66530 0.15754 0.08880 -0.03200
H 	H 	0.72800 0.15080 0.16600 0.03300
C 	C 	0.85230 0.21237 0.24650 0.12000
C 	C 	0.28560 0.12077 0.71190 0.12600
C 	C 	0.56410 0.20236 0.94120 -0.01900
H 	H 	0.55640 0.22680 0.91570 0.03000
N 	N 	0.70200 0.28715 0.07090 -0.28900
C 	C 	0.48460 0.17611 0.86390 -0.11300
H 	H 	0.42240 0.18290 0.78670 0.05600
C 	C 	0.72420 0.25829 0.10570 0.11200
C 	C 	0.86050 0.05448 0.32580 -0.15000
C 	C 	0.40570 0.11170 0.81470 -0.16500
C 	C 	0.74300 0.22192 0.13760 -0.13100
O 	O 	0.39060 0.08106 0.37950 -0.32900
C 	C 	0.41350 0.17180 0.33410 0.13000
H 	H 	0.37910 0.19730 0.32730 -0.03100
H 	H 	0.41830 0.16200 0.25310 -0.01600
H 	H 	0.53220 0.16960 0.38390 -0.03100
C 	C 	0.46610 0.06500 0.47430 0.22300
H 	H 	0.51270 0.07920 0.54270 -0.04800
C 	C 	0.41100 0.00640 0.38540 0.08500
H 	H 	0.33140 0.02020 0.32440 -0.02200
H 	H 	0.34240 0.98700 0.41670 -0.10500
H 	H 	0.50960 0.99610 0.34820 0.26600
N 	N 	0.48360 0.02980 0.48330 -0.14400
C 	C 	0.57140 0.01410 0.59500 0.05500
H 	H 	0.59830 0.03300 0.65650 -0.01000
H 	H 	0.68370 0.00250 0.58110 0.17000
H 	H 	0.49190 0.99610 0.62340 -0.32000
O 	O 	0.20570 0.65392 0.11480 -0.40100
C 	C 	0.13970 0.62410 0.14740 0.02300
H 	H 	0.15160 0.60550 0.08690 0.11300
H 	H 	0.01210 0.62750 0.15390 0.01900
H 	H 	0.20500 0.61670 0.22630 0.03300
Mn	Mn	0.43446 0.66588 0.02189 1.22800
C 	C 	0.56820 0.52683 0.08590 0.01700
C 	C 	0.59200 0.48992 0.11120 -0.03100
H 	H 	0.65450 0.48270 0.18780 0.02100
N 	N 	0.82570 0.53395 0.37210 -0.30000
C 	C 	0.47290 0.53587 0.97220 -0.01500
H 	H 	0.45260 0.56050 0.95220 0.03400
N 	N 	0.57580 0.61976 0.11720 -0.28700
N 	N 	0.55910 0.70219 0.16740 -0.29000
N 	N 	0.31240 0.63076 0.87040 -0.27700
C 	C 	0.74150 0.54473 0.28420 0.11900
N 	N 	0.03180 0.54597 0.62980 -0.30600
C 	C 	0.06430 0.57517 0.65780 0.10500
C 	C 	0.00640 0.63956 0.60330 0.03900
C 	C 	0.91420 0.63107 0.48850 -0.05000
H 	H 	0.90600 0.60670 0.46300 0.04000
C 	C 	0.84430 0.69399 0.44380 0.06000
C 	C 	0.60870 0.59062 0.14750 0.12500
C 	C 	0.83470 0.65754 0.41120 -0.07900
H 	H 	0.77200 0.65080 0.33400 0.04900
C 	C 	0.64770 0.71237 0.25350 0.11800
C 	C 	0.21440 0.62077 0.78810 0.11900
C 	C 	0.93590 0.70236 0.55880 -0.06400
H 	H 	0.94360 0.72680 0.58430 0.04300
N 	N 	0.79800 0.78715 0.42910 -0.28800
C 	C 	0.01540 0.67611 0.63610 -0.07900
H 	H 	0.07760 0.68290 0.71330 0.04500
C 	C 	0.77580 0.75829 0.39430 0.11700
C 	C 	0.63950 0.55448 0.17420 -0.12900
C 	C 	0.09430 0.61170 0.68530 -0.14500
C 	C 	0.75700 0.72192 0.36240 -0.14700
O 	O 	0.10940 0.58106 0.12050 -0.30700
C 	C 	0.08650 0.67180 0.16590 0.09300
H 	H 	0.12090 0.69730 0.17270 -0.02300
H 	H 	0.08170 0.66200 0.24690 -0.00500
H 	H 	0.96780 0.66960 0.11610 -0.01800
C 	C 	0.03390 0.56500 0.02570 0.14500
H 	H 	0.98730 0.57920 0.95730 0.00300
C 	C 	0.08900 0.50640 0.11460 0.13700
H 	H 	0.16860 0.52020 0.17560 -0.04100
H 	H 	0.15760 0.48700 0.08330 -0.21300
H 	H 	0.99040 0.49610 0.15180 0.34900
N 	N 	0.01640 0.52980 0.01670 -0.15200
C 	C 	0.92860 0.51410 0.90500 0.04000
H 	H 	0.90170 0.53300 0.84350 0.00100
H 	H 	0.81630 0.50250 0.91890 0.09800
H 	H 	0.00810 0.49610 0.87660 -0.23000
O 	O 	0.70570 0.84608 0.61480 -0.39300
C 	C 	0.63970 0.87590 0.64740 -0.00300
H 	H 	0.65160 0.89450 0.58690 0.13100
H 	H 	0.51210 0.87250 0.65390 0.03500
H 	H 	0.70500 0.88330 0.72630 0.04700
Mn	Mn	0.93446 0.83412 0.52189 1.23700
C 	C 	0.06820 0.97317 0.58590 0.05300
C 	C 	0.09200 0.01008 0.61120 -0.06600
H 	H 	0.15450 0.01730 0.68780 0.03100
N 	N 	0.32570 0.96605 0.87210 -0.29800
C 	C 	0.97290 0.96413 0.47220 -0.05300
H 	H 	0.95260 0.93950 0.45220 0.04000
N 	N 	0.07580 0.88024 0.61720 -0.28800
N 	N 	0.05910 0.79781 0.66740 -0.29000
N 	N 	0.81240 0.86924 0.37040 -0.28200
C 	C 	0.24150 0.95527 0.78420 0.12500
N 	N 	0.53180 0.95403 0.12980 -0.30100
C 	C 	0.56430 0.92483 0.15780 0.09400
C 	C 	0.50640 0.86044 0.10330 -0.02700
C 	C 	0.41420 0.86893 0.98850 0.02500
H 	H 	0.40600 0.89330 0.96300 0.01800
C 	C 	0.34430 0.80601 0.94380 0.14100
C 	C 	0.10870 0.90938 0.64750 0.13000
C 	C 	0.33470 0.84246 0.91120 -0.14100
H 	H 	0.27200 0.84920 0.83400 0.06900
C 	C 	0.14770 0.78763 0.75350 0.13100
C 	C 	0.71440 0.87923 0.28810 0.10900
C 	C 	0.43590 0.79764 0.05880 -0.17200
H 	H 	0.44360 0.77320 0.08430 0.06800
N 	N 	0.29800 0.71285 0.92910 -0.28300
C 	C 	0.51540 0.82389 0.13610 -0.00500
H 	H 	0.57760 0.81710 0.21330 0.01800
C 	C 	0.27580 0.74171 0.89430 0.13500
C 	C 	0.13950 0.94552 0.67420 -0.14200
C 	C 	0.59430 0.88830 0.18530 -0.12200
C 	C 	0.25700 0.77808 0.86240 -0.17400
O 	O 	0.60940 0.91894 0.62050 -0.32500
C 	C 	0.58650 0.82820 0.66590 0.11600
H 	H 	0.62090 0.80270 0.67270 -0.02200
H 	H 	0.58170 0.83800 0.74690 -0.00700
H 	H 	0.46780 0.83040 0.61610 -0.03000
C 	C 	0.53390 0.93500 0.52570 0.22400
H 	H 	0.48730 0.92080 0.45730 -0.05200
C 	C 	0.58900 0.99360 0.61460 0.18400
H 	H 	0.66860 0.97980 0.67560 -0.04200
H 	H 	0.65760 0.01300 0.58330 -0.20900
H 	H 	0.49040 0.00390 0.65180 0.26200
N 	N 	0.51640 0.97020 0.51670 -0.15100
C 	C 	0.42860 0.98590 0.40500 0.01900
H 	H 	0.40170 0.96700 0.34350 -0.01000
H 	H 	0.31630 0.99750 0.41890 0.11900
H 	H 	0.50810 0.00390 0.37660 -0.27600
O 	O 	0.79430 0.34608 0.88520 -0.40500
C 	C 	0.86030 0.37590 0.85260 -0.02300
H 	H 	0.84840 0.39450 0.91310 0.14900
H 	H 	0.98790 0.37250 0.84610 0.05300
H 	H 	0.79500 0.38330 0.77370 0.05400
Mn	Mn	0.56554 0.33412 0.97811 1.24100
C 	C 	0.43180 0.47317 0.91410 0.10500
C 	C 	0.40800 0.51008 0.88880 -0.10700
H 	H 	0.34550 0.51730 0.81220 0.04800
N 	N 	0.17430 0.46605 0.62790 -0.31400
C 	C 	0.52710 0.46413 0.02780 -0.12300
H 	H 	0.54740 0.43950 0.04780 0.05700
N 	N 	0.42420 0.38024 0.88280 -0.28800
N 	N 	0.44090 0.29781 0.83260 -0.28400
N 	N 	0.68760 0.36924 0.12960 -0.29100
C 	C 	0.25850 0.45527 0.71580 0.12300
N 	N 	0.96820 0.45403 0.37020 -0.29600
C 	C 	0.93570 0.42483 0.34220 0.12400
C 	C 	0.99360 0.36044 0.39670 0.08200
C 	C 	0.08580 0.36893 0.51150 -0.11400
H 	H 	0.09400 0.39330 0.53700 0.04600
C 	C 	0.15570 0.30601 0.55620 0.06600
C 	C 	0.39130 0.40938 0.85250 0.13700
C 	C 	0.16530 0.34246 0.58880 -0.06800
H 	H 	0.22800 0.34920 0.66600 0.04100
C 	C 	0.35230 0.28763 0.74650 0.12100
C 	C 	0.78560 0.37923 0.21190 0.12500
C 	C 	0.06410 0.29764 0.44120 -0.12700
H 	H 	0.05640 0.27320 0.41570 0.05000
N 	N 	0.20200 0.21285 0.57090 -0.29200
C 	C 	0.98460 0.32389 0.36390 -0.02800
H 	H 	0.92240 0.31710 0.28670 0.03200
C 	C 	0.22420 0.24171 0.60570 0.11600
C 	C 	0.36050 0.44552 0.82580 -0.16200
C 	C 	0.90570 0.38830 0.31470 -0.15300
C 	C 	0.24300 0.27808 0.63760 -0.15300
O 	O 	0.89060 0.41894 0.87950 -0.34800
C 	C 	0.91350 0.32820 0.83410 0.21900
H 	H 	0.87910 0.30270 0.82730 -0.04300
H 	H 	0.91830 0.33800 0.75310 -0.03000
H 	H 	0.03220 0.33040 0.88390 -0.07900
C 	C 	0.96610 0.43500 0.97430 0.31100
H 	H 	0.01270 0.42080 0.04270 -0.11200
C 	C 	0.91100 0.49360 0.88540 0.12700
H 	H 	0.83140 0.47980 0.82440 -0.02200
H 	H 	0.84240 0.51300 0.91670 -0.10100
H 	H 	0.00960 0.50390 0.84820 0.18500
N 	N 	0.98360 0.47020 0.98330 -0.14400
C 	C 	0.07140 0.48590 0.09500 0.03300
H 	H 	0.09830 0.46700 0.15650 -0.02500
H 	H 	0.18370 0.49750 0.08110 0.19200
H 	H 	0.99190 0.50390 0.12340 -0.36800
Mn	Mn	0.50000 0.00000 -0.00000 1.18500
Mn	Mn	0.00000 0.50000 0.50000 1.18900
