data_crystal

_cell_length_a 7.48210
_cell_length_b 36.64910
_cell_length_c 11.05660
_cell_angle_alpha 90.00000
_cell_angle_beta  99.28300
_cell_angle_gamma 90.00000

_symmetry_space_group_name_	'P 1'
_symmetry_space_group_name_H-M	'P 1'

loop_
_symmetry_equiv_pos_as_xyz
  x,y,z

loop_
_atom_site_label
_atom_site_type_symbol
_atom_site_fract_x
_atom_site_fract_y
_atom_site_fract_z
_atom_site_charge
Zn	Zn	0.06869 0.16585 0.47535 1.17600
O 	O 	0.28540 0.15528 0.38180 -0.40300
N 	N 	0.94330 0.20145 0.33500 -0.27500
N 	N 	0.19290 0.13128 0.62070 -0.28900
N 	N 	0.70340 0.28861 0.06500 -0.28600
N 	N 	0.93070 0.12081 0.38310 -0.28200
N 	N 	0.46850 0.04434 0.87310 -0.29000
N 	N 	0.67010 0.03301 0.12440 -0.31500
C 	C 	0.85600 0.21275 0.24720 0.12100
C 	C 	0.74730 0.22260 0.13810 -0.13000
C 	C 	0.72690 0.25916 0.10320 0.10800
C 	C 	0.66190 0.19417 0.05460 0.01000
C 	C 	0.66940 0.15765 0.08840 -0.03000
H 	H 	0.73010 0.15090 0.16740 0.03300
C 	C 	0.57010 0.20271 0.93730 -0.01200
H 	H 	0.56200 0.22750 0.91160 0.03100
C 	C 	0.59030 0.13090 0.00950 -0.13500
H 	H 	0.59920 0.10610 0.03510 0.05600
C 	C 	0.49130 0.17605 0.85850 -0.11800
H 	H 	0.43160 0.18280 0.77920 0.06000
C 	C 	0.49730 0.13940 0.89270 0.11100
C 	C 	0.40860 0.11097 0.80950 -0.16700
C 	C 	0.43690 0.07395 0.84110 0.12700
C 	C 	0.28840 0.12063 0.70450 0.13400
C 	C 	0.85910 0.05490 0.32220 -0.15500
C 	C 	0.75600 0.04451 0.21220 0.11300
C 	C 	0.93180 0.02703 0.41260 0.04100
C 	C 	0.90530 0.98982 0.38750 -0.07400
H 	H 	0.84030 0.98250 0.31030 0.04000
C 	C 	0.02890 0.03632 0.52830 -0.07500
H 	H 	0.04950 0.06130 0.54850 0.04300
C 	C 	0.89530 0.09168 0.34990 0.13600
C 	C 	0.41400 0.17490 0.33530 0.05900
H 	H 	0.42620 0.16550 0.25410 0.00800
H 	H 	0.53050 0.17270 0.39010 -0.00800
H 	H 	0.37810 0.20070 0.32850 -0.00300
C 	C 	0.35100 0.12380 0.35790 0.10500
H 	H 	0.35190 0.10750 0.42820 0.06900
H 	H 	0.47510 0.12700 0.34160 0.00700
H 	H 	0.27600 0.11320 0.28570 0.01800
O 	O 	0.38760 0.08250 0.37440 -0.29200
N 	N 	0.48030 0.03060 0.48050 -0.04900
C 	C 	0.46580 0.06630 0.47030 0.13500
H 	H 	0.51650 0.08090 0.53850 -0.02400
C 	C 	0.57240 0.01380 0.59290 -0.68000
H 	H 	0.67980 0.00070 0.57590 -0.39100
H 	H 	0.49030 0.99670 0.62410 1.26500
H 	H 	0.60910 0.03280 0.65420 0.23200
C 	C 	0.40200 0.00580 0.38210 -0.56200
H 	H 	0.32700 0.01980 0.31720 0.18800
H 	H 	0.32670 0.98750 0.41480 0.76400
H 	H 	0.49920 0.99350 0.34840 -0.56200
Zn	Zn	0.43131 0.66585 0.02465 1.17300
O 	O 	0.21460 0.65528 0.11820 -0.41200
N 	N 	0.55670 0.70145 0.16500 -0.28800
N 	N 	0.30710 0.63128 0.87930 -0.27700
N 	N 	0.79660 0.78861 0.43500 -0.28600
N 	N 	0.56930 0.62081 0.11690 -0.28900
N 	N 	0.03150 0.54434 0.62690 -0.29800
N 	N 	0.82990 0.53301 0.37560 -0.30500
C 	C 	0.64400 0.71275 0.25280 0.12300
C 	C 	0.75270 0.72260 0.36190 -0.15000
C 	C 	0.77310 0.75916 0.39680 0.11500
C 	C 	0.83810 0.69417 0.44540 0.06500
C 	C 	0.83060 0.65765 0.41160 -0.07800
H 	H 	0.76990 0.65090 0.33260 0.04800
C 	C 	0.92990 0.70271 0.56270 -0.08700
H 	H 	0.93800 0.72750 0.58840 0.04900
C 	C 	0.90970 0.63090 0.49050 -0.07200
H 	H 	0.90080 0.60610 0.46490 0.04200
C 	C 	0.00870 0.67605 0.64150 -0.06000
H 	H 	0.06840 0.68280 0.72080 0.04300
C 	C 	0.00270 0.63940 0.60730 0.05600
C 	C 	0.09140 0.61097 0.69050 -0.14800
C 	C 	0.06310 0.57395 0.65890 0.11400
C 	C 	0.21160 0.62063 0.79550 0.12900
C 	C 	0.64090 0.55490 0.17780 -0.14100
C 	C 	0.74400 0.54451 0.28780 0.10900
C 	C 	0.56820 0.52703 0.08740 -0.00300
C 	C 	0.59470 0.48982 0.11250 -0.04900
H 	H 	0.65970 0.48250 0.18970 0.03100
C 	C 	0.47110 0.53632 0.97170 -0.01200
H 	H 	0.45050 0.56130 0.95150 0.03400
C 	C 	0.60470 0.59168 0.15010 0.12400
C 	C 	0.08600 0.67490 0.16470 0.09300
H 	H 	0.07380 0.66550 0.24590 0.00200
H 	H 	0.96950 0.67270 0.10990 -0.02900
H 	H 	0.12190 0.70070 0.17150 -0.01200
C 	C 	0.14900 0.62380 0.14210 0.10700
H 	H 	0.14810 0.60750 0.07180 0.06300
H 	H 	0.02490 0.62700 0.15840 0.00700
H 	H 	0.22400 0.61320 0.21430 0.02000
O 	O 	0.11240 0.58250 0.12560 -0.28200
N 	N 	0.01970 0.53060 0.01950 -0.06400
C 	C 	0.03420 0.56630 0.02970 0.09700
H 	H 	0.98350 0.58090 0.96150 0.00400
C 	C 	0.92760 0.51380 0.90710 -0.52200
H 	H 	0.82020 0.50070 0.92410 -0.26600
H 	H 	0.00970 0.49670 0.87590 0.84300
H 	H 	0.89090 0.53280 0.84580 0.17100
C 	C 	0.09800 0.50580 0.11790 -0.66000
H 	H 	0.17300 0.51980 0.18280 0.22300
H 	H 	0.17330 0.48750 0.08520 0.88700
H 	H 	0.00080 0.49350 0.15160 -0.75300
Zn	Zn	0.93131 0.83415 0.52465 1.17700
O 	O 	0.71460 0.84472 0.61820 -0.39700
N 	N 	0.05670 0.79855 0.66500 -0.28400
N 	N 	0.80710 0.86872 0.37930 -0.28400
N 	N 	0.29660 0.71139 0.93500 -0.27900
N 	N 	0.06930 0.87919 0.61690 -0.28600
N 	N 	0.53150 0.95566 0.12690 -0.29500
N 	N 	0.32990 0.96699 0.87560 -0.29900
C 	C 	0.14400 0.78725 0.75280 0.13800
C 	C 	0.25270 0.77740 0.86190 -0.17500
C 	C 	0.27310 0.74084 0.89680 0.13700
C 	C 	0.33810 0.80583 0.94540 0.14600
C 	C 	0.33060 0.84235 0.91160 -0.14600
H 	H 	0.26990 0.84910 0.83260 0.07300
C 	C 	0.42990 0.79729 0.06270 -0.17300
H 	H 	0.43800 0.77250 0.08840 0.07200
C 	C 	0.40970 0.86910 0.99050 0.02900
H 	H 	0.40080 0.89390 0.96490 0.01800
C 	C 	0.50870 0.82395 0.14150 -0.00300
H 	H 	0.56840 0.81720 0.22080 0.01900
C 	C 	0.50270 0.86060 0.10730 -0.02800
C 	C 	0.59140 0.88903 0.19050 -0.12200
C 	C 	0.56310 0.92605 0.15890 0.09600
C 	C 	0.71160 0.87937 0.29550 0.11400
C 	C 	0.14090 0.94510 0.67780 -0.16100
C 	C 	0.24400 0.95549 0.78780 0.12100
C 	C 	0.06820 0.97297 0.58740 0.05600
C 	C 	0.09470 0.01018 0.61250 -0.10100
H 	H 	0.15970 0.01750 0.68970 0.04800
C 	C 	0.97110 0.96368 0.47170 -0.08100
H 	H 	0.95050 0.93870 0.45150 0.04700
C 	C 	0.10470 0.90832 0.65010 0.13800
C 	C 	0.58600 0.82510 0.66470 0.05100
H 	H 	0.57380 0.83450 0.74590 0.01400
H 	H 	0.46950 0.82730 0.60990 -0.00600
H 	H 	0.62190 0.79930 0.67150 0.00200
C 	C 	0.64900 0.87620 0.64210 0.09500
H 	H 	0.64810 0.89250 0.57180 0.07200
H 	H 	0.52490 0.87300 0.65840 0.01100
H 	H 	0.72400 0.88680 0.71430 0.02600
O 	O 	0.61240 0.91750 0.62560 -0.29100
N 	N 	0.51970 0.96940 0.51950 -0.05400
C 	C 	0.53420 0.93370 0.52970 0.13400
H 	H 	0.48350 0.91910 0.46150 -0.02500
C 	C 	0.42760 0.98620 0.40710 -0.60500
H 	H 	0.32020 0.99930 0.42410 -0.31800
H 	H 	0.50970 0.00330 0.37590 0.99600
H 	H 	0.39090 0.96720 0.34580 0.19400
C 	C 	0.59800 0.99420 0.61790 -0.66200
H 	H 	0.67300 0.98020 0.68280 0.22900
H 	H 	0.67330 0.01250 0.58520 0.89500
H 	H 	0.50080 0.00650 0.65160 -0.77000
Zn	Zn	0.56869 0.33415 0.97535 1.18300
O 	O 	0.78540 0.34472 0.88180 -0.40100
N 	N 	0.44330 0.29855 0.83500 -0.28200
N 	N 	0.69290 0.36872 0.12070 -0.29100
N 	N 	0.20340 0.21139 0.56500 -0.28700
N 	N 	0.43070 0.37919 0.88310 -0.28800
N 	N 	0.96850 0.45566 0.37310 -0.29100
N 	N 	0.17010 0.46699 0.62440 -0.31300
C 	C 	0.35600 0.28725 0.74720 0.12600
C 	C 	0.24730 0.27740 0.63810 -0.15200
C 	C 	0.22690 0.24084 0.60320 0.11600
C 	C 	0.16190 0.30583 0.55460 0.06700
C 	C 	0.16940 0.34235 0.58840 -0.07600
H 	H 	0.23010 0.34910 0.66740 0.04700
C 	C 	0.07010 0.29729 0.43730 -0.10300
H 	H 	0.06200 0.27250 0.41160 0.05000
C 	C 	0.09030 0.36910 0.50950 -0.08600
H 	H 	0.09920 0.39390 0.53510 0.04300
C 	C 	0.99130 0.32395 0.35850 -0.04800
H 	H 	0.93160 0.31720 0.27920 0.03800
C 	C 	0.99730 0.36060 0.39270 0.06400
C 	C 	0.90860 0.38903 0.30950 -0.15100
C 	C 	0.93690 0.42605 0.34110 0.11900
C 	C 	0.78840 0.37937 0.20450 0.12700
C 	C 	0.35910 0.44510 0.82220 -0.17300
C 	C 	0.25600 0.45549 0.71220 0.12200
C 	C 	0.43180 0.47297 0.91260 0.09300
C 	C 	0.40530 0.51018 0.88750 -0.12500
H 	H 	0.34030 0.51750 0.81030 0.05700
C 	C 	0.52890 0.46368 0.02830 -0.13300
H 	H 	0.54950 0.43870 0.04850 0.05900
C 	C 	0.39530 0.40832 0.84990 0.14200
C 	C 	0.91400 0.32510 0.83530 0.10600
H 	H 	0.92620 0.33450 0.75410 0.00100
H 	H 	0.03050 0.32730 0.89010 -0.03300
H 	H 	0.87810 0.29930 0.82850 -0.00700
C 	C 	0.85100 0.37620 0.85790 0.09000
H 	H 	0.85190 0.39250 0.92820 0.08100
H 	H 	0.97510 0.37300 0.84160 0.01900
H 	H 	0.77600 0.38680 0.78570 0.02800
O 	O 	0.88760 0.41750 0.87440 -0.30200
N 	N 	0.98030 0.46940 0.98050 -0.04800
C 	C 	0.96580 0.43370 0.97030 0.19300
H 	H 	0.01650 0.41910 0.03850 -0.06400
C 	C 	0.07240 0.48620 0.09290 -0.68800
H 	H 	0.17980 0.49930 0.07590 -0.38200
H 	H 	0.99030 0.50330 0.12410 1.24700
H 	H 	0.10910 0.46720 0.15420 0.22700
C 	C 	0.90200 0.49420 0.88210 -0.48600
H 	H 	0.82700 0.48020 0.81720 0.16900
H 	H 	0.82670 0.51250 0.91480 0.65800
H 	H 	0.99920 0.50650 0.84840 -0.46300
Zn	Zn	0.50000 0.00000 -0.00000 1.13900
Zn	Zn	0.00000 0.50000 0.50000 1.14700
