data_crystal

_cell_length_a 19.75800
_cell_length_b 7.22800
_cell_length_c 17.53000
_cell_angle_alpha 90.00000
_cell_angle_beta  90.00000
_cell_angle_gamma 90.00000

_symmetry_space_group_name_	'P 1'
_symmetry_space_group_name_H-M	'P 1'

loop_
_symmetry_equiv_pos_as_xyz
  x,y,z

loop_
_atom_site_label
_atom_site_type_symbol
_atom_site_fract_x
_atom_site_fract_y
_atom_site_fract_z
_atom_site_charge
N 	N 	0.05600 0.09710 0.32190 -0.21500
N 	N 	0.03940 0.16110 0.39100 -0.22300
C 	C 	0.12670 0.10100 0.17190 -0.03600
C 	C 	0.06180 0.12100 0.15030 -0.05100
C 	C 	0.07800 0.12900 0.07200 -0.03100
C 	C 	0.14430 0.10100 0.09340 -0.03400
N 	N 	0.44400 0.90290 0.82190 -0.16100
N 	N 	0.46060 0.83890 0.89100 -0.15700
C 	C 	0.37330 0.89900 0.67190 0.01800
C 	C 	0.43820 0.87900 0.65030 0.02900
C 	C 	0.42200 0.87100 0.57200 0.01500
C 	C 	0.35570 0.89900 0.59340 0.00600
N 	N 	0.94400 0.59710 0.67810 -0.17400
N 	N 	0.96060 0.66110 0.60900 -0.17200
C 	C 	0.87330 0.60100 0.82810 0.00400
C 	C 	0.93820 0.62100 0.84970 0.04900
C 	C 	0.92200 0.62900 0.92800 0.00600
C 	C 	0.85570 0.60100 0.90660 -0.00500
N 	N 	0.55600 0.40290 0.17810 -0.18700
N 	N 	0.53940 0.33890 0.10900 -0.21100
C 	C 	0.62670 0.39900 0.32810 -0.00600
C 	C 	0.56180 0.37900 0.34970 0.00400
C 	C 	0.57800 0.37100 0.42800 -0.00300
C 	C 	0.64430 0.39900 0.40660 0.00000
N 	N 	0.94400 0.90290 0.67810 -0.15200
N 	N 	0.96060 0.83890 0.60900 -0.15700
C 	C 	0.87330 0.89900 0.82810 0.02600
C 	C 	0.93820 0.87900 0.84970 0.06600
C 	C 	0.92200 0.87100 0.92800 0.02400
C 	C 	0.85570 0.89900 0.90660 0.01700
N 	N 	0.55600 0.09710 0.17810 -0.20800
N 	N 	0.53940 0.16110 0.10900 -0.22200
C 	C 	0.62670 0.10100 0.32810 -0.02800
C 	C 	0.56180 0.12100 0.34970 -0.01300
C 	C 	0.57800 0.12900 0.42800 -0.02200
C 	C 	0.64430 0.10100 0.40660 -0.02400
N 	N 	0.05600 0.40290 0.32190 -0.19600
N 	N 	0.03940 0.33890 0.39100 -0.21200
C 	C 	0.12670 0.39900 0.17190 -0.01500
C 	C 	0.06180 0.37900 0.15030 -0.03400
C 	C 	0.07800 0.37100 0.07200 -0.01200
C 	C 	0.14430 0.39900 0.09340 -0.01100
N 	N 	0.44400 0.59710 0.82190 -0.18200
N 	N 	0.46060 0.66110 0.89100 -0.17200
C 	C 	0.37330 0.60100 0.67190 -0.00400
C 	C 	0.43820 0.62100 0.65030 0.01200
C 	C 	0.42200 0.62900 0.57200 -0.00500
C 	C 	0.35570 0.60100 0.59340 -0.01700
Cd	Cd	0.44007 0.25000 0.81937 1.21000
O 	O 	0.34750 0.25000 0.90470 -0.42300
O 	O 	0.32580 0.25000 0.78230 -0.39600
O 	O 	0.00370 0.25000 0.78260 -0.48100
O 	O 	0.08550 0.25000 0.69800 -0.37400
C 	C 	0.06580 0.25000 0.28050 0.09800
C 	C 	0.30570 0.25000 0.85010 0.29300
C 	C 	0.23140 0.25000 0.86910 -0.03100
C 	C 	0.21050 0.25000 0.94440 -0.11000
H 	H 	0.24260 0.25000 0.98320 0.09700
C 	C 	0.14220 0.25000 0.96280 0.15100
C 	C 	0.12070 0.25000 0.04410 -0.11500
C 	C 	0.06510 0.25000 0.76370 0.31600
C 	C 	0.11690 0.25000 0.82920 -0.03900
C 	C 	0.09650 0.25000 0.90350 -0.11200
H 	H 	0.05040 0.25000 0.91450 0.08200
C 	C 	0.18370 0.25000 0.81070 -0.03600
H 	H 	0.19730 0.25000 0.76000 0.05500
C 	C 	0.08480 0.25000 0.19870 -0.02800
O 	O 	0.50090 0.25000 0.92800 -0.63900
Cd	Cd	0.05993 0.75000 0.31937 1.20400
O 	O 	0.15250 0.75000 0.40470 -0.43400
O 	O 	0.17420 0.75000 0.28230 -0.37700
O 	O 	0.49630 0.75000 0.28260 -0.40400
O 	O 	0.41450 0.75000 0.19800 -0.34400
C 	C 	0.43420 0.75000 0.78050 0.14900
C 	C 	0.19430 0.75000 0.35010 0.31000
C 	C 	0.26860 0.75000 0.36910 -0.05900
C 	C 	0.28950 0.75000 0.44440 -0.04800
H 	H 	0.25740 0.75000 0.48320 0.05500
C 	C 	0.35780 0.75000 0.46280 0.03500
C 	C 	0.37930 0.75000 0.54410 -0.01700
C 	C 	0.43490 0.75000 0.26370 0.32600
C 	C 	0.38310 0.75000 0.32920 -0.04900
C 	C 	0.40350 0.75000 0.40350 -0.05100
H 	H 	0.44960 0.75000 0.41450 0.07800
C 	C 	0.31630 0.75000 0.31070 -0.00700
H 	H 	0.30270 0.75000 0.26000 0.05600
C 	C 	0.41520 0.75000 0.69870 -0.07000
O 	O 	0.99910 0.75000 0.42800 -0.58700
Cd	Cd	0.55993 0.75000 0.18063 1.22300
O 	O 	0.65250 0.75000 0.09530 -0.44000
O 	O 	0.67420 0.75000 0.21770 -0.36900
O 	O 	0.99630 0.75000 0.21740 -0.36000
O 	O 	0.91450 0.75000 0.30200 -0.31300
C 	C 	0.93420 0.75000 0.71950 0.16900
C 	C 	0.69430 0.75000 0.14990 0.32000
C 	C 	0.76860 0.75000 0.13090 -0.09600
C 	C 	0.78950 0.75000 0.05560 0.01900
H 	H 	0.75740 0.75000 0.01680 0.00700
C 	C 	0.85780 0.75000 0.03720 -0.09700
C 	C 	0.87930 0.75000 0.95590 0.09000
C 	C 	0.93490 0.75000 0.23630 0.33300
C 	C 	0.88310 0.75000 0.17080 -0.07500
C 	C 	0.90350 0.75000 0.09650 0.01600
H 	H 	0.94960 0.75000 0.08550 0.05500
C 	C 	0.81630 0.75000 0.18930 0.02500
H 	H 	0.80270 0.75000 0.24000 0.05500
C 	C 	0.91520 0.75000 0.80130 -0.09400
O 	O 	0.49910 0.75000 0.07200 -0.67300
Cd	Cd	0.94007 0.25000 0.68063 1.22800
O 	O 	0.84750 0.25000 0.59530 -0.43200
O 	O 	0.82580 0.25000 0.71770 -0.38900
O 	O 	0.50370 0.25000 0.71740 -0.43800
O 	O 	0.58550 0.25000 0.80200 -0.34300
C 	C 	0.56580 0.25000 0.21950 0.11700
C 	C 	0.80570 0.25000 0.64990 0.30400
C 	C 	0.73140 0.25000 0.63090 -0.07100
C 	C 	0.71050 0.25000 0.55560 -0.03900
H 	H 	0.74260 0.25000 0.51680 0.04600
C 	C 	0.64220 0.25000 0.53720 0.01200
C 	C 	0.62070 0.25000 0.45590 -0.00300
C 	C 	0.56510 0.25000 0.73630 0.32500
C 	C 	0.61690 0.25000 0.67080 -0.06700
C 	C 	0.59650 0.25000 0.59650 -0.04000
H 	H 	0.55040 0.25000 0.58550 0.05500
C 	C 	0.68370 0.25000 0.68930 -0.00100
H 	H 	0.69730 0.25000 0.74000 0.05300
C 	C 	0.58480 0.25000 0.30130 -0.05300
O 	O 	0.00090 0.25000 0.57200 -0.72800
Cd	Cd	0.50000 0.50000 -0.00000 1.12500
Cd	Cd	0.00000 0.50000 0.50000 1.13100
Cd	Cd	0.50000 0.00000 -0.00000 1.09900
Cd	Cd	0.00000 0.00000 0.50000 1.10600
