data_crystal

_cell_length_a 10.10400
_cell_length_b 10.81000
_cell_length_c 10.99300
_cell_angle_alpha 90.00000
_cell_angle_beta  90.00000
_cell_angle_gamma 90.00000

_symmetry_space_group_name_	'P 1'
_symmetry_space_group_name_H-M	'P 1'

loop_
_symmetry_equiv_pos_as_xyz
  x,y,z

loop_
_atom_site_label
_atom_site_type_symbol
_atom_site_fract_x
_atom_site_fract_y
_atom_site_fract_z
_atom_site_charge
O 	O 	0.20019 0.02758 0.54562 -0.39400
O 	O 	0.55340 0.65758 0.26820 -0.39500
O 	O 	0.30965 0.69153 0.22555 -0.22600
O 	O 	0.19918 0.02642 0.31719 -0.38100
O 	O 	0.99166 0.97590 0.42845 -0.21000
O 	O 	0.46362 0.86834 0.27610 -0.39500
P 	P 	0.14181 0.97025 0.43213 0.41800
P 	P 	0.43154 0.73320 0.29475 0.43400
Co	Co	0.35445 0.00184 0.21405 1.19100
H 	H 	0.16800 0.84690 0.43400 -0.02800
H 	H 	0.40500 0.72300 0.41660 -0.01500
O 	O 	0.29981 0.97242 0.04562 -0.39300
O 	O 	0.94660 0.34242 0.76820 -0.39500
O 	O 	0.19035 0.30847 0.72555 -0.22500
O 	O 	0.30082 0.97358 0.81719 -0.38400
O 	O 	0.50834 0.02410 0.92845 -0.21000
O 	O 	0.03638 0.13166 0.77610 -0.39400
P 	P 	0.35819 0.02975 0.93213 0.42400
P 	P 	0.06846 0.26680 0.79475 0.43400
Co	Co	0.14555 0.99816 0.71405 1.19100
H 	H 	0.33200 0.15310 0.93400 -0.02800
H 	H 	0.09500 0.27700 0.91660 -0.01500
O 	O 	0.79981 0.52758 0.95438 -0.39400
O 	O 	0.44660 0.15758 0.23180 -0.39500
O 	O 	0.69035 0.19153 0.27445 -0.22600
O 	O 	0.80082 0.52642 0.18281 -0.38100
O 	O 	0.00834 0.47590 0.07155 -0.21000
O 	O 	0.53638 0.36834 0.22390 -0.39600
P 	P 	0.85819 0.47025 0.06787 0.41800
P 	P 	0.56846 0.23320 0.20525 0.43400
Co	Co	0.64555 0.50184 0.28595 1.19200
H 	H 	0.83200 0.34690 0.06600 -0.02900
H 	H 	0.59500 0.22300 0.08340 -0.01600
O 	O 	0.70019 0.47242 0.45438 -0.39500
O 	O 	0.05340 0.84242 0.73180 -0.39700
O 	O 	0.80965 0.80847 0.77445 -0.22500
O 	O 	0.69918 0.47358 0.68281 -0.38100
O 	O 	0.49166 0.52410 0.57155 -0.21200
O 	O 	0.96362 0.63166 0.72390 -0.39600
P 	P 	0.64181 0.52975 0.56787 0.42100
P 	P 	0.93154 0.76680 0.70525 0.43500
Co	Co	0.85445 0.49816 0.78595 1.19200
H 	H 	0.66800 0.65310 0.56600 -0.02800
H 	H 	0.90500 0.77700 0.58340 -0.01500
