data_crystal

_cell_length_a 10.10000
_cell_length_b 10.79600
_cell_length_c 10.98200
_cell_angle_alpha 90.00000
_cell_angle_beta  90.00000
_cell_angle_gamma 90.00000

_symmetry_space_group_name_	'P 1'
_symmetry_space_group_name_H-M	'P 1'

loop_
_symmetry_equiv_pos_as_xyz
  x,y,z

loop_
_atom_site_label
_atom_site_type_symbol
_atom_site_fract_x
_atom_site_fract_y
_atom_site_fract_z
_atom_site_charge
Co	Co	0.35434 0.00172 0.28591 1.19200
P 	P 	0.35797 0.02994 0.56779 0.41600
P 	P 	0.43194 0.73315 0.20513 0.43100
O 	O 	0.46394 0.86841 0.22430 -0.39400
O 	O 	0.30092 0.97330 0.68262 -0.38100
O 	O 	0.50788 0.02470 0.57124 -0.21300
O 	O 	0.30980 0.69130 0.27417 -0.22600
O 	O 	0.55330 0.65750 0.23190 -0.39500
O 	O 	0.29970 0.97210 0.45440 -0.39400
H 	H 	0.33200 0.15990 0.56700 -0.02000
H 	H 	0.40400 0.72500 0.07810 -0.00900
Co	Co	0.14566 0.99828 0.78591 1.19100
P 	P 	0.14203 0.97006 0.06779 0.41400
P 	P 	0.06806 0.26685 0.70513 0.43200
O 	O 	0.03606 0.13159 0.72430 -0.39500
O 	O 	0.19908 0.02670 0.18262 -0.38400
O 	O 	0.99212 0.97530 0.07124 -0.20800
O 	O 	0.19020 0.30870 0.77417 -0.22500
O 	O 	0.94670 0.34250 0.73190 -0.39900
O 	O 	0.20030 0.02790 0.95440 -0.39200
H 	H 	0.16800 0.84010 0.06700 -0.02000
H 	H 	0.09600 0.27500 0.57810 -0.00900
Co	Co	0.64566 0.50172 0.21409 1.19200
P 	P 	0.64203 0.52994 0.93221 0.41400
P 	P 	0.56806 0.23315 0.29487 0.43000
O 	O 	0.53606 0.36841 0.27570 -0.39700
O 	O 	0.69908 0.47330 0.81738 -0.38200
O 	O 	0.49212 0.52470 0.92876 -0.21300
O 	O 	0.69020 0.19130 0.22583 -0.22800
O 	O 	0.44670 0.15750 0.26810 -0.39700
O 	O 	0.70030 0.47210 0.04560 -0.39500
H 	H 	0.66800 0.65990 0.93300 -0.02100
H 	H 	0.59600 0.22500 0.42190 -0.01000
Co	Co	0.85434 0.49828 0.71409 1.19100
P 	P 	0.85797 0.47006 0.43221 0.41400
P 	P 	0.93194 0.76685 0.79487 0.43000
O 	O 	0.96394 0.63159 0.77570 -0.39800
O 	O 	0.80092 0.52670 0.31738 -0.38100
O 	O 	0.00788 0.47530 0.42876 -0.21300
O 	O 	0.80980 0.80870 0.72583 -0.22500
O 	O 	0.05330 0.84250 0.76810 -0.39600
O 	O 	0.79970 0.52790 0.54560 -0.39500
H 	H 	0.83200 0.34010 0.43300 -0.02100
H 	H 	0.90400 0.77500 0.92190 -0.01100
