data_crystal

_cell_length_a 5.61530
_cell_length_b 9.33360
_cell_length_c 13.33980
_cell_angle_alpha 106.03000
_cell_angle_beta  93.61100
_cell_angle_gamma 102.05000

_symmetry_space_group_name_	'P 1'
_symmetry_space_group_name_H-M	'P 1'

loop_
_symmetry_equiv_pos_as_xyz
  x,y,z

loop_
_atom_site_label
_atom_site_type_symbol
_atom_site_fract_x
_atom_site_fract_y
_atom_site_fract_z
_atom_site_charge
Mn	Mn	-0.00000 0.00000 -0.00000 1.15300
H 	H 	0.69900 0.43200 0.51400 0.04200
H 	H 	0.59400 0.39370 0.92960 0.12800
H 	H 	0.23970 0.35090 0.04970 0.10800
H 	H 	0.57560 0.91890 0.79990 0.01800
H 	H 	0.42590 0.74690 0.63830 0.09000
H 	H 	0.00200 0.56240 0.66090 0.04800
H 	H 	0.14080 0.74460 0.81870 -0.02700
H 	H 	0.30100 0.56800 0.48600 0.06400
H 	H 	0.40600 0.60630 0.07040 -0.00900
H 	H 	0.76030 0.64910 0.95030 -0.02700
H 	H 	0.42440 0.08110 0.20010 -0.06500
H 	H 	0.57410 0.25310 0.36170 0.09200
H 	H 	0.99800 0.43760 0.33910 0.13400
H 	H 	0.85920 0.25540 0.18130 -0.01500
C 	C 	0.56060 0.14230 0.96230 0.10600
C 	C 	0.89710 0.34330 0.98760 0.29200
C 	C 	0.75760 0.43600 0.95810 -0.26400
C 	C 	0.14240 0.41020 0.02960 -0.36300
C 	C 	0.66240 0.84580 0.77160 0.09300
C 	C 	0.56920 0.74160 0.67450 -0.15100
C 	C 	0.69160 0.62830 0.63120 0.09200
C 	C 	0.60150 0.50730 0.53110 -0.05500
C 	C 	0.91040 0.63330 0.68760 -0.12500
C 	C 	0.99220 0.74320 0.78300 0.12400
C 	C 	0.43940 0.85770 0.03770 0.13900
C 	C 	0.10290 0.65670 0.01240 -0.13800
C 	C 	0.24240 0.56400 0.04190 0.11400
C 	C 	0.85760 0.58980 0.97040 0.19300
C 	C 	0.33760 0.15420 0.22840 0.10100
C 	C 	0.43080 0.25840 0.32550 -0.21200
C 	C 	0.30840 0.37170 0.36880 0.15000
C 	C 	0.39850 0.49270 0.46890 -0.11800
C 	C 	0.08960 0.36670 0.31240 -0.24300
C 	C 	0.00780 0.25680 0.21700 0.06800
N 	N 	0.34490 0.09630 0.94900 -0.30000
N 	N 	0.79890 0.18510 0.97620 -0.28000
N 	N 	0.87030 0.84800 0.82750 -0.21200
N 	N 	0.65510 0.90370 0.05100 -0.24400
N 	N 	0.20110 0.81490 0.02380 -0.21800
N 	N 	0.12970 0.15200 0.17250 -0.28300
