data_crystal

_cell_length_a 36.40500
_cell_length_b 36.40500
_cell_length_c 11.69410
_cell_angle_alpha 90.00000
_cell_angle_beta  90.00000
_cell_angle_gamma 120.00000

_symmetry_space_group_name_	'P 1'
_symmetry_space_group_name_H-M	'P 1'

loop_
_symmetry_equiv_pos_as_xyz
  x,y,z

loop_
_atom_site_label
_atom_site_type_symbol
_atom_site_fract_x
_atom_site_fract_y
_atom_site_fract_z
_atom_site_charge
Nd	Nd	0.37974 0.14983 0.67494 2.05900
O 	O 	0.41056 0.22510 0.62780 -0.51100
O 	O 	0.35941 0.24258 0.63790 -0.51000
O 	O 	0.44794 0.40512 0.80660 -0.43400
O 	O 	0.51227 0.41441 0.81660 -0.40500
O 	O 	0.34083 0.17450 0.78850 -0.60000
O 	O 	0.29830 0.19050 0.87770 -0.44500
C 	C 	0.39655 0.25026 0.62350 0.51000
C 	C 	0.42751 0.29674 0.59830 -0.17800
C 	C 	0.44286 0.32557 0.68850 0.12900
C 	C 	0.46549 0.36912 0.66880 -0.12700
C 	C 	0.47670 0.39922 0.77010 0.34200
C 	C 	0.47359 0.38358 0.55620 0.08000
C 	C 	0.46040 0.35590 0.46150 0.01200
C 	C 	0.43724 0.31199 0.48710 0.09000
C 	C 	0.32760 0.18240 0.87680 0.40800
N 	N 	0.46850 0.37037 0.35120 -0.08900
I 	I 	0.43329 0.30190 0.85625 -0.16900
I 	I 	0.50627 0.44923 0.52525 -0.07600
I 	I 	0.41719 0.26810 0.35274 -0.09700
Nd	Nd	0.04641 0.48317 0.00827 2.05800
O 	O 	0.07723 0.55843 0.96113 -0.50900
O 	O 	0.02608 0.57591 0.97123 -0.50800
O 	O 	0.11461 0.73845 0.13993 -0.43300
O 	O 	0.17894 0.74774 0.14993 -0.40400
O 	O 	0.00750 0.50783 0.12183 -0.59900
O 	O 	0.96497 0.52383 0.21103 -0.44400
C 	C 	0.06322 0.58359 0.95683 0.51000
C 	C 	0.09418 0.63007 0.93163 -0.17500
C 	C 	0.10953 0.65890 0.02183 0.12800
C 	C 	0.13216 0.70245 0.00213 -0.12800
C 	C 	0.14337 0.73255 0.10343 0.34300
C 	C 	0.14026 0.71691 0.88953 0.08200
C 	C 	0.12707 0.68923 0.79483 0.01100
C 	C 	0.10391 0.64532 0.82043 0.08900
C 	C 	0.99427 0.51573 0.21013 0.40900
N 	N 	0.13517 0.70370 0.68453 -0.08900
I 	I 	0.09996 0.63523 0.18958 -0.16900
I 	I 	0.17294 0.78256 0.85858 -0.07500
I 	I 	0.08386 0.60144 0.68607 -0.09700
Nd	Nd	0.71307 0.81650 0.34161 2.06000
O 	O 	0.74389 0.89177 0.29447 -0.51000
O 	O 	0.69274 0.90925 0.30457 -0.50900
O 	O 	0.78127 0.07179 0.47327 -0.43300
O 	O 	0.84560 0.08108 0.48327 -0.40400
O 	O 	0.67416 0.84117 0.45517 -0.59900
O 	O 	0.63163 0.85717 0.54437 -0.44400
C 	C 	0.72988 0.91693 0.29017 0.51100
C 	C 	0.76084 0.96341 0.26497 -0.17600
C 	C 	0.77619 0.99224 0.35517 0.12900
C 	C 	0.79882 0.03579 0.33547 -0.12600
C 	C 	0.81003 0.06589 0.43677 0.34200
C 	C 	0.80692 0.05025 0.22287 0.07900
C 	C 	0.79373 0.02257 0.12817 0.01200
C 	C 	0.77057 0.97866 0.15377 0.08900
C 	C 	0.66093 0.84907 0.54347 0.40800
N 	N 	0.80183 0.03704 0.01787 -0.08800
I 	I 	0.76662 0.96856 0.52292 -0.16800
I 	I 	0.83961 0.11589 0.19192 -0.07500
I 	I 	0.75052 0.93477 0.01941 -0.09700
Nd	Nd	0.85017 0.22990 0.67494 2.06000
O 	O 	0.77490 0.18546 0.62780 -0.51000
O 	O 	0.75742 0.11683 0.63790 -0.50900
O 	O 	0.59488 0.04282 0.80660 -0.43300
O 	O 	0.58559 0.09786 0.81660 -0.40400
O 	O 	0.82550 0.16633 0.78850 -0.59900
O 	O 	0.80950 0.10780 0.87770 -0.44400
C 	C 	0.74974 0.14629 0.62350 0.51100
C 	C 	0.70326 0.13077 0.59830 -0.17700
C 	C 	0.67443 0.11729 0.68850 0.13000
C 	C 	0.63088 0.09637 0.66880 -0.12600
C 	C 	0.60078 0.07748 0.77010 0.34300
C 	C 	0.61642 0.09001 0.55620 0.08000
C 	C 	0.64410 0.10450 0.46150 0.01200
C 	C 	0.68801 0.12525 0.48710 0.09000
C 	C 	0.81760 0.14520 0.87680 0.40800
N 	N 	0.62963 0.09813 0.35120 -0.08900
I 	I 	0.69810 0.13139 0.85625 -0.16900
I 	I 	0.55077 0.05705 0.52525 -0.07600
I 	I 	0.73190 0.14909 0.35274 -0.09600
Nd	Nd	0.51683 0.56324 0.00827 2.05900
O 	O 	0.44157 0.51879 0.96113 -0.51000
O 	O 	0.42409 0.45016 0.97123 -0.50900
O 	O 	0.26155 0.37615 0.13993 -0.43300
O 	O 	0.25226 0.43119 0.14993 -0.40400
O 	O 	0.49217 0.49966 0.12183 -0.59900
O 	O 	0.47617 0.44113 0.21103 -0.44400
C 	C 	0.41641 0.47962 0.95683 0.51100
C 	C 	0.36993 0.46410 0.93163 -0.17500
C 	C 	0.34110 0.45062 0.02183 0.12900
C 	C 	0.29755 0.42970 0.00213 -0.12700
C 	C 	0.26745 0.41081 0.10343 0.34300
C 	C 	0.28309 0.42334 0.88953 0.08100
C 	C 	0.31077 0.43783 0.79483 0.01200
C 	C 	0.35468 0.45858 0.82043 0.09000
C 	C 	0.48427 0.47853 0.21013 0.40800
N 	N 	0.29630 0.43146 0.68453 -0.08900
I 	I 	0.36477 0.46473 0.18958 -0.16800
I 	I 	0.21744 0.39038 0.85858 -0.07500
I 	I 	0.39856 0.48242 0.68607 -0.09700
Nd	Nd	0.18350 0.89657 0.34161 2.05900
O 	O 	0.10823 0.85213 0.29447 -0.51000
O 	O 	0.09075 0.78350 0.30457 -0.50900
O 	O 	0.92821 0.70949 0.47327 -0.43300
O 	O 	0.91892 0.76453 0.48327 -0.40400
O 	O 	0.15883 0.83300 0.45517 -0.59900
O 	O 	0.14283 0.77447 0.54437 -0.44400
C 	C 	0.08307 0.81296 0.29017 0.51100
C 	C 	0.03659 0.79744 0.26497 -0.17600
C 	C 	0.00776 0.78396 0.35517 0.12900
C 	C 	0.96421 0.76304 0.33547 -0.12600
C 	C 	0.93411 0.74415 0.43677 0.34200
C 	C 	0.94975 0.75668 0.22287 0.07900
C 	C 	0.97743 0.77117 0.12817 0.01200
C 	C 	0.02134 0.79192 0.15377 0.08900
C 	C 	0.15093 0.81187 0.54347 0.40800
N 	N 	0.96296 0.76480 0.01787 -0.08900
I 	I 	0.03144 0.79806 0.52292 -0.16800
I 	I 	0.88411 0.72371 0.19192 -0.07600
I 	I 	0.06523 0.81575 0.01941 -0.09800
Nd	Nd	0.77010 0.62026 0.67494 2.06000
O 	O 	0.81454 0.58944 0.62780 -0.51100
O 	O 	0.88317 0.64059 0.63790 -0.50900
O 	O 	0.95718 0.55206 0.80660 -0.43300
O 	O 	0.90214 0.48773 0.81660 -0.40400
O 	O 	0.83367 0.65917 0.78850 -0.59900
O 	O 	0.89220 0.70170 0.87770 -0.44400
C 	C 	0.85371 0.60345 0.62350 0.51100
C 	C 	0.86923 0.57249 0.59830 -0.17700
C 	C 	0.88271 0.55714 0.68850 0.13000
C 	C 	0.90363 0.53451 0.66880 -0.12600
C 	C 	0.92252 0.52330 0.77010 0.34300
C 	C 	0.90999 0.52641 0.55620 0.08000
C 	C 	0.89550 0.53960 0.46150 0.01200
C 	C 	0.87475 0.56276 0.48710 0.09000
C 	C 	0.85480 0.67240 0.87680 0.40800
N 	N 	0.90187 0.53150 0.35120 -0.08900
I 	I 	0.86861 0.56671 0.85625 -0.16900
I 	I 	0.94295 0.49373 0.52525 -0.07600
I 	I 	0.85091 0.58281 0.35274 -0.09600
Nd	Nd	0.43676 0.95359 0.00827 2.05700
O 	O 	0.48121 0.92277 0.96113 -0.50900
O 	O 	0.54984 0.97392 0.97123 -0.50800
O 	O 	0.62385 0.88539 0.13993 -0.43300
O 	O 	0.56881 0.82106 0.14993 -0.40400
O 	O 	0.50034 0.99250 0.12183 -0.59900
O 	O 	0.55887 0.03503 0.21103 -0.44400
C 	C 	0.52038 0.93678 0.95683 0.51000
C 	C 	0.53590 0.90582 0.93163 -0.17500
C 	C 	0.54938 0.89047 0.02183 0.12900
C 	C 	0.57030 0.86784 0.00213 -0.12800
C 	C 	0.58919 0.85663 0.10343 0.34300
C 	C 	0.57666 0.85974 0.88953 0.08100
C 	C 	0.56217 0.87293 0.79483 0.01200
C 	C 	0.54142 0.89609 0.82043 0.08900
C 	C 	0.52147 0.00573 0.21013 0.40900
N 	N 	0.56854 0.86483 0.68453 -0.08900
I 	I 	0.53527 0.90004 0.18958 -0.16900
I 	I 	0.60962 0.82706 0.85858 -0.07500
I 	I 	0.51758 0.91614 0.68607 -0.09700
Nd	Nd	0.10343 0.28693 0.34161 2.06000
O 	O 	0.14787 0.25611 0.29447 -0.51100
O 	O 	0.21650 0.30726 0.30457 -0.50900
O 	O 	0.29051 0.21873 0.47327 -0.43300
O 	O 	0.23547 0.15440 0.48327 -0.40400
O 	O 	0.16700 0.32584 0.45517 -0.59900
O 	O 	0.22553 0.36837 0.54437 -0.44400
C 	C 	0.18704 0.27012 0.29017 0.51100
C 	C 	0.20256 0.23916 0.26497 -0.17700
C 	C 	0.21604 0.22381 0.35517 0.13000
C 	C 	0.23696 0.20118 0.33547 -0.12600
C 	C 	0.25585 0.18997 0.43677 0.34300
C 	C 	0.24332 0.19308 0.22287 0.08000
C 	C 	0.22883 0.20627 0.12817 0.01200
C 	C 	0.20808 0.22943 0.15377 0.09000
C 	C 	0.18813 0.33907 0.54347 0.40800
N 	N 	0.23520 0.19817 0.01787 -0.08900
I 	I 	0.20194 0.23338 0.52292 -0.16800
I 	I 	0.27629 0.16039 0.19192 -0.07600
I 	I 	0.18425 0.24948 0.01941 -0.09700
Nd	Nd	0.62026 0.85017 0.32506 2.06000
O 	O 	0.58944 0.77490 0.37220 -0.51000
O 	O 	0.64059 0.75742 0.36210 -0.50900
O 	O 	0.55206 0.59488 0.19340 -0.43300
O 	O 	0.48773 0.58559 0.18340 -0.40400
O 	O 	0.65917 0.82550 0.21150 -0.59900
O 	O 	0.70170 0.80950 0.12230 -0.44400
C 	C 	0.60345 0.74974 0.37650 0.51100
C 	C 	0.57249 0.70326 0.40170 -0.17700
C 	C 	0.55714 0.67443 0.31150 0.13000
C 	C 	0.53451 0.63088 0.33120 -0.12600
C 	C 	0.52330 0.60078 0.22990 0.34300
C 	C 	0.52641 0.61642 0.44380 0.08000
C 	C 	0.53960 0.64410 0.53850 0.01200
C 	C 	0.56276 0.68801 0.51290 0.09000
C 	C 	0.67240 0.81760 0.12320 0.40800
N 	N 	0.53150 0.62963 0.64880 -0.08900
I 	I 	0.56671 0.69810 0.14375 -0.16900
I 	I 	0.49373 0.55077 0.47475 -0.07600
I 	I 	0.58281 0.73190 0.64726 -0.09700
Nd	Nd	0.28693 0.18350 0.65839 2.06000
O 	O 	0.25611 0.10823 0.70553 -0.51000
O 	O 	0.30726 0.09075 0.69543 -0.50900
O 	O 	0.21873 0.92821 0.52673 -0.43300
O 	O 	0.15440 0.91892 0.51673 -0.40400
O 	O 	0.32584 0.15883 0.54483 -0.59900
O 	O 	0.36837 0.14283 0.45563 -0.44400
C 	C 	0.27012 0.08307 0.70983 0.51100
C 	C 	0.23916 0.03659 0.73503 -0.17600
C 	C 	0.22381 0.00776 0.64483 0.12900
C 	C 	0.20118 0.96421 0.66453 -0.12600
C 	C 	0.18997 0.93411 0.56323 0.34200
C 	C 	0.19308 0.94975 0.77713 0.07900
C 	C 	0.20627 0.97743 0.87183 0.01200
C 	C 	0.22943 0.02134 0.84623 0.08900
C 	C 	0.33907 0.15093 0.45653 0.40800
N 	N 	0.19817 0.96296 0.98213 -0.08800
I 	I 	0.23338 0.03144 0.47708 -0.16800
I 	I 	0.16039 0.88411 0.80808 -0.07500
I 	I 	0.24948 0.06523 0.98059 -0.09700
Nd	Nd	0.95359 0.51683 0.99173 2.05800
O 	O 	0.92277 0.44157 0.03887 -0.50900
O 	O 	0.97392 0.42409 0.02877 -0.50800
O 	O 	0.88539 0.26155 0.86007 -0.43300
O 	O 	0.82106 0.25226 0.85007 -0.40400
O 	O 	0.99250 0.49217 0.87817 -0.59900
O 	O 	0.03503 0.47617 0.78897 -0.44400
C 	C 	0.93678 0.41641 0.04317 0.51000
C 	C 	0.90582 0.36993 0.06837 -0.17500
C 	C 	0.89047 0.34110 0.97817 0.12800
C 	C 	0.86784 0.29755 0.99787 -0.12800
C 	C 	0.85663 0.26745 0.89657 0.34300
C 	C 	0.85974 0.28309 0.11047 0.08200
C 	C 	0.87293 0.31077 0.20517 0.01100
C 	C 	0.89609 0.35468 0.17957 0.08900
C 	C 	0.00573 0.48427 0.78987 0.40900
N 	N 	0.86483 0.29630 0.31547 -0.08900
I 	I 	0.90004 0.36477 0.81042 -0.16900
I 	I 	0.82706 0.21744 0.14142 -0.07500
I 	I 	0.91614 0.39856 0.31393 -0.09700
Nd	Nd	0.14983 0.77010 0.32506 2.06000
O 	O 	0.22510 0.81454 0.37220 -0.51000
O 	O 	0.24258 0.88317 0.36210 -0.50900
O 	O 	0.40512 0.95718 0.19340 -0.43300
O 	O 	0.41441 0.90214 0.18340 -0.40400
O 	O 	0.17450 0.83367 0.21150 -0.59900
O 	O 	0.19050 0.89220 0.12230 -0.44400
C 	C 	0.25026 0.85371 0.37650 0.51100
C 	C 	0.29674 0.86923 0.40170 -0.17700
C 	C 	0.32557 0.88271 0.31150 0.13000
C 	C 	0.36912 0.90363 0.33120 -0.12600
C 	C 	0.39922 0.92252 0.22990 0.34300
C 	C 	0.38358 0.90999 0.44380 0.08000
C 	C 	0.35590 0.89550 0.53850 0.01200
C 	C 	0.31199 0.87475 0.51290 0.09000
C 	C 	0.18240 0.85480 0.12320 0.40800
N 	N 	0.37037 0.90187 0.64880 -0.08900
I 	I 	0.30190 0.86861 0.14375 -0.16900
I 	I 	0.44923 0.94295 0.47475 -0.07600
I 	I 	0.26810 0.85091 0.64726 -0.09600
Nd	Nd	0.81650 0.10343 0.65839 2.05900
O 	O 	0.89177 0.14787 0.70553 -0.51000
O 	O 	0.90925 0.21650 0.69543 -0.50900
O 	O 	0.07179 0.29051 0.52673 -0.43300
O 	O 	0.08108 0.23547 0.51673 -0.40400
O 	O 	0.84117 0.16700 0.54483 -0.59900
O 	O 	0.85717 0.22553 0.45563 -0.44400
C 	C 	0.91693 0.18704 0.70983 0.51100
C 	C 	0.96341 0.20256 0.73503 -0.17600
C 	C 	0.99224 0.21604 0.64483 0.12900
C 	C 	0.03579 0.23696 0.66453 -0.12600
C 	C 	0.06589 0.25585 0.56323 0.34200
C 	C 	0.05025 0.24332 0.77713 0.07900
C 	C 	0.02257 0.22883 0.87183 0.01200
C 	C 	0.97866 0.20808 0.84623 0.08900
C 	C 	0.84907 0.18813 0.45653 0.40800
N 	N 	0.03704 0.23520 0.98213 -0.08900
I 	I 	0.96856 0.20194 0.47708 -0.16800
I 	I 	0.11589 0.27629 0.80808 -0.07600
I 	I 	0.93477 0.18425 0.98059 -0.09800
Nd	Nd	0.48317 0.43676 0.99173 2.05900
O 	O 	0.55843 0.48121 0.03887 -0.51000
O 	O 	0.57591 0.54984 0.02877 -0.50900
O 	O 	0.73845 0.62385 0.86007 -0.43300
O 	O 	0.74774 0.56881 0.85007 -0.40400
O 	O 	0.50783 0.50034 0.87817 -0.59900
O 	O 	0.52383 0.55887 0.78897 -0.44400
C 	C 	0.58359 0.52038 0.04317 0.51100
C 	C 	0.63007 0.53590 0.06837 -0.17500
C 	C 	0.65890 0.54938 0.97817 0.12900
C 	C 	0.70245 0.57030 0.99787 -0.12700
C 	C 	0.73255 0.58919 0.89657 0.34300
C 	C 	0.71691 0.57666 0.11047 0.08100
C 	C 	0.68923 0.56217 0.20517 0.01200
C 	C 	0.64532 0.54142 0.17957 0.09000
C 	C 	0.51573 0.52147 0.78987 0.40800
N 	N 	0.70370 0.56854 0.31547 -0.08900
I 	I 	0.63523 0.53527 0.81042 -0.16800
I 	I 	0.78256 0.60962 0.14142 -0.07500
I 	I 	0.60144 0.51758 0.31393 -0.09700
Nd	Nd	0.22990 0.37974 0.32506 2.06000
O 	O 	0.18546 0.41056 0.37220 -0.51100
O 	O 	0.11683 0.35941 0.36210 -0.50900
O 	O 	0.04282 0.44794 0.19340 -0.43300
O 	O 	0.09786 0.51227 0.18340 -0.40400
O 	O 	0.16633 0.34083 0.21150 -0.59900
O 	O 	0.10780 0.29830 0.12230 -0.44400
C 	C 	0.14629 0.39655 0.37650 0.51100
C 	C 	0.13077 0.42751 0.40170 -0.17700
C 	C 	0.11729 0.44286 0.31150 0.13000
C 	C 	0.09637 0.46549 0.33120 -0.12600
C 	C 	0.07748 0.47670 0.22990 0.34300
C 	C 	0.09001 0.47359 0.44380 0.08000
C 	C 	0.10450 0.46040 0.53850 0.01200
C 	C 	0.12525 0.43724 0.51290 0.09000
C 	C 	0.14520 0.32760 0.12320 0.40800
N 	N 	0.09813 0.46850 0.64880 -0.08900
I 	I 	0.13139 0.43329 0.14375 -0.16900
I 	I 	0.05705 0.50627 0.47475 -0.07600
I 	I 	0.14909 0.41719 0.64726 -0.09600
Nd	Nd	0.89657 0.71307 0.65839 2.06000
O 	O 	0.85213 0.74389 0.70553 -0.51100
O 	O 	0.78350 0.69274 0.69543 -0.50900
O 	O 	0.70949 0.78127 0.52673 -0.43300
O 	O 	0.76453 0.84560 0.51673 -0.40400
O 	O 	0.83300 0.67416 0.54483 -0.59900
O 	O 	0.77447 0.63163 0.45563 -0.44400
C 	C 	0.81296 0.72988 0.70983 0.51100
C 	C 	0.79744 0.76084 0.73503 -0.17700
C 	C 	0.78396 0.77619 0.64483 0.13000
C 	C 	0.76304 0.79882 0.66453 -0.12600
C 	C 	0.74415 0.81003 0.56323 0.34300
C 	C 	0.75668 0.80692 0.77713 0.08000
C 	C 	0.77117 0.79373 0.87183 0.01200
C 	C 	0.79192 0.77057 0.84623 0.09000
C 	C 	0.81187 0.66093 0.45653 0.40800
N 	N 	0.76480 0.80183 0.98213 -0.08900
I 	I 	0.79806 0.76662 0.47708 -0.16800
I 	I 	0.72371 0.83961 0.80808 -0.07600
I 	I 	0.81575 0.75052 0.98059 -0.09700
Nd	Nd	0.56324 0.04641 0.99173 2.05700
O 	O 	0.51879 0.07723 0.03887 -0.50900
O 	O 	0.45016 0.02608 0.02877 -0.50800
O 	O 	0.37615 0.11461 0.86007 -0.43300
O 	O 	0.43119 0.17894 0.85007 -0.40400
O 	O 	0.49966 0.00750 0.87817 -0.59900
O 	O 	0.44113 0.96497 0.78897 -0.44400
C 	C 	0.47962 0.06322 0.04317 0.51000
C 	C 	0.46410 0.09418 0.06837 -0.17500
C 	C 	0.45062 0.10953 0.97817 0.12900
C 	C 	0.42970 0.13216 0.99787 -0.12800
C 	C 	0.41081 0.14337 0.89657 0.34300
C 	C 	0.42334 0.14026 0.11047 0.08100
C 	C 	0.43783 0.12707 0.20517 0.01200
C 	C 	0.45858 0.10391 0.17957 0.08900
C 	C 	0.47853 0.99427 0.78987 0.40900
N 	N 	0.43146 0.13517 0.31547 -0.08900
I 	I 	0.46473 0.09996 0.81042 -0.16900
I 	I 	0.39038 0.17294 0.14142 -0.07500
I 	I 	0.48242 0.08386 0.31393 -0.09700
