data_crystal

_cell_length_a 11.69410
_cell_length_b 21.37680
_cell_length_c 21.37680
_cell_angle_alpha 63.24840
_cell_angle_beta  79.49340
_cell_angle_gamma 100.50700

_symmetry_space_group_name_	'P 1'
_symmetry_space_group_name_H-M	'P 1'

loop_
_symmetry_equiv_pos_as_xyz
  x,y,z

loop_
_atom_site_label
_atom_site_type_symbol
_atom_site_fract_x
_atom_site_fract_y
_atom_site_fract_z
_atom_site_charge
Nd	Nd	0.55510 0.07949 0.39063 2.05800
Nd	Nd	0.94573 0.39063 0.52988 2.05900
Nd	Nd	0.47561 0.52988 0.07949 2.05900
Nd	Nd	0.44490 0.92051 0.60937 2.05800
Nd	Nd	0.05427 0.60937 0.47012 2.05900
Nd	Nd	0.52439 0.47012 0.92051 2.05900
C 	C 	0.52117 0.89634 0.45783 0.52100
C 	C 	0.53098 0.83305 0.44371 -0.17500
C 	C 	0.42761 0.79122 0.44139 0.13000
C 	C 	0.42690 0.72710 0.44000 -0.12900
C 	C 	0.30670 0.67840 0.44710 0.35500
C 	C 	0.53341 0.70632 0.43899 0.07200
C 	C 	0.64225 0.74750 0.43895 0.01800
C 	C 	0.63695 0.81200 0.44045 0.08100
C 	C 	0.26830 0.96290 0.52730 0.41500
C 	C 	0.97900 0.45783 0.64583 0.52100
C 	C 	0.97469 0.44371 0.72324 -0.17500
C 	C 	0.86900 0.44139 0.76739 0.13000
C 	C 	0.86690 0.44000 0.83290 -0.13000
C 	C 	0.75380 0.44710 0.87450 0.35500
C 	C 	0.97240 0.43899 0.85469 0.07200
C 	C 	0.08120 0.43895 0.81355 0.01800
C 	C 	0.07740 0.44045 0.74755 0.08100
C 	C 	0.79560 0.52730 0.50980 0.41600
C 	C 	0.62483 0.64583 0.89634 0.52100
C 	C 	0.69793 0.72324 0.83305 -0.17500
C 	C 	0.63639 0.76739 0.79122 0.13000
C 	C 	0.69980 0.83290 0.72710 -0.13000
C 	C 	0.62830 0.87450 0.67840 0.35600
C 	C 	0.82709 0.85469 0.70632 0.07400
C 	C 	0.89475 0.81355 0.74750 0.01700
C 	C 	0.82495 0.74755 0.81200 0.08200
C 	C 	0.30540 0.50980 0.96290 0.41600
C 	C 	0.47883 0.10366 0.54217 0.52100
C 	C 	0.46902 0.16695 0.55629 -0.17500
C 	C 	0.57239 0.20878 0.55861 0.13000
C 	C 	0.57310 0.27290 0.56000 -0.12900
C 	C 	0.69330 0.32160 0.55290 0.35500
C 	C 	0.46659 0.29368 0.56101 0.07200
C 	C 	0.35775 0.25250 0.56105 0.01800
C 	C 	0.36305 0.18800 0.55955 0.08100
C 	C 	0.73170 0.03710 0.47270 0.41500
C 	C 	0.02100 0.54217 0.35417 0.52100
C 	C 	0.02531 0.55629 0.27676 -0.17500
C 	C 	0.13100 0.55861 0.23261 0.13000
C 	C 	0.13310 0.56000 0.16710 -0.13000
C 	C 	0.24620 0.55290 0.12550 0.35500
C 	C 	0.02760 0.56101 0.14531 0.07200
C 	C 	0.91880 0.56105 0.18645 0.01800
C 	C 	0.92260 0.55955 0.25245 0.08100
C 	C 	0.20440 0.47270 0.49020 0.41600
C 	C 	0.37517 0.35417 0.10366 0.52100
C 	C 	0.30207 0.27676 0.16695 -0.17500
C 	C 	0.36361 0.23261 0.20878 0.13000
C 	C 	0.30020 0.16710 0.27290 -0.13000
C 	C 	0.37170 0.12550 0.32160 0.35600
C 	C 	0.17291 0.14531 0.29368 0.07400
C 	C 	0.10525 0.18645 0.25250 0.01700
C 	C 	0.17505 0.25245 0.18800 0.08200
C 	C 	0.69460 0.49020 0.03710 0.41600
I 	I 	0.27431 0.82960 0.43549 -0.17800
I 	I 	0.53170 0.60826 0.43894 -0.09600
I 	I 	0.79368 0.87890 0.43895 -0.11700
I 	I 	0.70980 0.43549 0.73491 -0.17600
I 	I 	0.97064 0.43894 0.95280 -0.09500
I 	I 	0.23263 0.43895 0.68215 -0.11700
I 	I 	0.44471 0.73491 0.82960 -0.17700
I 	I 	0.92344 0.95280 0.60826 -0.08700
I 	I 	0.91478 0.68215 0.87890 -0.11300
I 	I 	0.72569 0.17040 0.56451 -0.17800
I 	I 	0.46830 0.39174 0.56106 -0.09600
I 	I 	0.20632 0.12110 0.56105 -0.11700
I 	I 	0.29020 0.56451 0.26509 -0.17600
I 	I 	0.02936 0.56106 0.04720 -0.09500
I 	I 	0.76737 0.56105 0.31785 -0.11700
I 	I 	0.55529 0.26509 0.17040 -0.17700
I 	I 	0.07656 0.04720 0.39174 -0.08700
I 	I 	0.08522 0.31785 0.12110 -0.11300
N 	N 	0.74476 0.72652 0.43804 -0.16400
N 	N 	0.18280 0.43804 0.83544 -0.16600
N 	N 	0.01824 0.83544 0.72652 -0.15800
N 	N 	0.25524 0.27348 0.56196 -0.16400
N 	N 	0.81720 0.56196 0.16456 -0.16600
N 	N 	0.98176 0.16456 0.27348 -0.15800
O 	O 	0.55694 0.95973 0.40461 -0.52200
O 	O 	0.47637 0.87463 0.52432 -0.51700
O 	O 	0.23466 0.63807 0.50949 -0.44000
O 	O 	0.28220 0.68347 0.39097 -0.40900
O 	O 	0.37782 0.99277 0.49231 -0.60200
O 	O 	0.23070 0.91770 0.59340 -0.46400
O 	O 	0.96155 0.40461 0.63566 -0.52200
O 	O 	0.00069 0.52432 0.60105 -0.51700
O 	O 	0.74415 0.50949 0.85244 -0.44000
O 	O 	0.67317 0.39097 0.92556 -0.40900
O 	O 	0.87013 0.49231 0.51492 -0.60200
O 	O 	0.82410 0.59340 0.48890 -0.46900
O 	O 	0.59721 0.63566 0.95973 -0.52200
O 	O 	0.60174 0.60105 0.87463 -0.51700
O 	O 	0.59659 0.85244 0.63807 -0.44000
O 	O 	0.59873 0.92556 0.68347 -0.40900
O 	O 	0.38505 0.51492 0.99277 -0.60200
O 	O 	0.31300 0.48890 0.91770 -0.47300
O 	O 	0.44306 0.04027 0.59539 -0.52200
O 	O 	0.52363 0.12537 0.47568 -0.51700
O 	O 	0.76534 0.36193 0.49051 -0.44000
O 	O 	0.71780 0.31653 0.60903 -0.40900
O 	O 	0.62218 0.00723 0.50769 -0.60200
O 	O 	0.76930 0.08230 0.40660 -0.46400
O 	O 	0.03845 0.59539 0.36434 -0.52200
O 	O 	0.99931 0.47568 0.39895 -0.51700
O 	O 	0.25585 0.49051 0.14756 -0.44000
O 	O 	0.32683 0.60903 0.07444 -0.40900
O 	O 	0.12987 0.50769 0.48508 -0.60200
O 	O 	0.17590 0.40660 0.51110 -0.46900
O 	O 	0.40279 0.36434 0.04027 -0.52200
O 	O 	0.39826 0.39895 0.12537 -0.51700
O 	O 	0.40341 0.14756 0.36193 -0.44000
O 	O 	0.40127 0.07444 0.31653 -0.40900
O 	O 	0.61495 0.48508 0.00723 -0.60200
O 	O 	0.68700 0.51110 0.08230 -0.47300
H 	H 	0.17548 0.24309 0.55495 0.06800
H 	H 	0.25098 0.32107 0.56972 0.09600
H 	H 	0.74902 0.67893 0.43028 0.09600
H 	H 	0.82452 0.75691 0.44505 0.06800
H 	H 	0.24119 0.40575 0.82589 0.06700
H 	H 	0.20769 0.46958 0.86293 0.10000
H 	H 	0.06957 0.80893 0.70202 0.07300
H 	H 	0.06813 0.87989 0.73382 0.07300
H 	H 	0.79231 0.53042 0.13707 0.10000
H 	H 	0.75881 0.59425 0.17411 0.06700
H 	H 	0.93187 0.12011 0.26618 0.07300
H 	H 	0.93043 0.19107 0.29798 0.07300
