data_crystal

_cell_length_a 11.68680
_cell_length_b 21.39120
_cell_length_c 21.39120
_cell_angle_alpha 63.24010
_cell_angle_beta  79.50720
_cell_angle_gamma 100.49300

_symmetry_space_group_name_	'P 1'
_symmetry_space_group_name_H-M	'P 1'

loop_
_symmetry_equiv_pos_as_xyz
  x,y,z

loop_
_atom_site_label
_atom_site_type_symbol
_atom_site_fract_x
_atom_site_fract_y
_atom_site_fract_z
_atom_site_charge
Nd	Nd	0.47542 0.52965 0.07999 2.04400
Nd	Nd	0.55541 0.07999 0.39036 2.04300
Nd	Nd	0.94577 0.39036 0.52965 2.04300
Nd	Nd	0.52458 0.47035 0.92001 2.04400
Nd	Nd	0.44459 0.92001 0.60964 2.04400
Nd	Nd	0.05423 0.60964 0.47035 2.04400
C 	C 	0.37070 0.12500 0.32190 0.34900
C 	C 	0.29990 0.16490 0.27210 -0.12900
C 	C 	0.36280 0.23130 0.20890 0.12600
C 	C 	0.30110 0.27610 0.16580 -0.17100
C 	C 	0.37370 0.35370 0.10330 0.50900
C 	C 	0.17460 0.25140 0.18730 0.08200
C 	C 	0.10520 0.18340 0.25220 0.01400
C 	C 	0.17210 0.14300 0.29280 0.07300
C 	C 	0.30520 0.51060 0.96260 0.41700
C 	C 	0.69260 0.32190 0.55310 0.34900
C 	C 	0.57200 0.27210 0.56300 -0.12800
C 	C 	0.57170 0.20890 0.55980 0.12600
C 	C 	0.46690 0.16580 0.55810 -0.17000
C 	C 	0.47700 0.10330 0.54300 0.50900
C 	C 	0.36190 0.18730 0.56130 0.08200
C 	C 	0.35740 0.25220 0.56440 0.01600
C 	C 	0.46490 0.29280 0.56420 0.07200
C 	C 	0.26780 0.96260 0.52680 0.41600
C 	C 	0.24570 0.55310 0.12500 0.34900
C 	C 	0.13500 0.56300 0.16490 -0.12800
C 	C 	0.13150 0.55980 0.23130 0.12600
C 	C 	0.02500 0.55810 0.27610 -0.17000
C 	C 	0.02000 0.54300 0.35370 0.51000
C 	C 	0.92320 0.56130 0.25140 0.08200
C 	C 	0.92180 0.56440 0.18340 0.01500
C 	C 	0.02910 0.56420 0.14300 0.07200
C 	C 	0.79460 0.52680 0.51060 0.41600
C 	C 	0.62930 0.87500 0.67810 0.34900
C 	C 	0.70010 0.83510 0.72790 -0.12900
C 	C 	0.63720 0.76870 0.79110 0.12600
C 	C 	0.69890 0.72390 0.83420 -0.17100
C 	C 	0.62630 0.64630 0.89670 0.50900
C 	C 	0.82540 0.74860 0.81270 0.08200
C 	C 	0.89480 0.81660 0.74780 0.01400
C 	C 	0.82790 0.85700 0.70720 0.07300
C 	C 	0.69480 0.48940 0.03740 0.41700
C 	C 	0.30740 0.67810 0.44690 0.34900
C 	C 	0.42800 0.72790 0.43700 -0.12800
C 	C 	0.42830 0.79110 0.44020 0.12600
C 	C 	0.53310 0.83420 0.44190 -0.17000
C 	C 	0.52300 0.89670 0.45700 0.50900
C 	C 	0.63810 0.81270 0.43870 0.08200
C 	C 	0.64260 0.74780 0.43560 0.01600
C 	C 	0.53510 0.70720 0.43580 0.07200
C 	C 	0.73220 0.03740 0.47320 0.41600
C 	C 	0.75430 0.44690 0.87500 0.34900
C 	C 	0.86500 0.43700 0.83510 -0.12800
C 	C 	0.86850 0.44020 0.76870 0.12600
C 	C 	0.97500 0.44190 0.72390 -0.17000
C 	C 	0.98000 0.45700 0.64630 0.51000
C 	C 	0.07680 0.43870 0.74860 0.08200
C 	C 	0.07820 0.43560 0.81660 0.01500
C 	C 	0.97090 0.43580 0.85700 0.07200
C 	C 	0.20540 0.47320 0.48940 0.41600
I 	I 	0.55441 0.26505 0.16981 -0.17600
I 	I 	0.08419 0.31569 0.11974 -0.11200
I 	I 	0.07607 0.04484 0.39180 -0.08700
I 	I 	0.72422 0.16981 0.56514 -0.17600
I 	I 	0.20393 0.11974 0.56457 -0.11600
I 	I 	0.46787 0.39180 0.56336 -0.09600
I 	I 	0.28936 0.56514 0.26505 -0.17500
I 	I 	0.76850 0.56457 0.31569 -0.11700
I 	I 	0.03123 0.56336 0.04484 -0.09500
I 	I 	0.44559 0.73495 0.83019 -0.17600
I 	I 	0.91581 0.68431 0.88026 -0.11200
I 	I 	0.92393 0.95516 0.60820 -0.08700
I 	I 	0.27578 0.83019 0.43486 -0.17600
I 	I 	0.79607 0.88026 0.43543 -0.11600
I 	I 	0.53213 0.60820 0.43664 -0.09600
I 	I 	0.71064 0.43486 0.73495 -0.17500
I 	I 	0.23150 0.43543 0.68431 -0.11700
I 	I 	0.96877 0.43664 0.95516 -0.09500
N 	N 	0.97920 0.16210 0.27290 -0.15600
N 	N 	0.25210 0.27290 0.56500 -0.16300
N 	N 	0.81710 0.56500 0.16210 -0.16500
N 	N 	0.02080 0.83790 0.72710 -0.15600
N 	N 	0.74790 0.72710 0.43500 -0.16300
N 	N 	0.18290 0.43500 0.83790 -0.16500
O 	O 	0.40243 0.14693 0.36144 -0.44300
O 	O 	0.40232 0.07334 0.31608 -0.39900
O 	O 	0.39545 0.39858 0.12493 -0.51100
O 	O 	0.40212 0.36399 0.03943 -0.51200
O 	O 	0.31300 0.48830 0.91780 -0.47000
O 	O 	0.38508 0.51554 0.99130 -0.59900
O 	O 	0.76387 0.36144 0.49163 -0.44300
O 	O 	0.71840 0.31608 0.61058 -0.39900
O 	O 	0.52038 0.12493 0.47649 -0.51100
O 	O 	0.44155 0.03943 0.59658 -0.51200
O 	O 	0.23080 0.91780 0.59390 -0.46100
O 	O 	0.37638 0.99130 0.49316 -0.59800
O 	O 	0.25550 0.49163 0.14693 -0.44300
O 	O 	0.32898 0.61058 0.07334 -0.39900
O 	O 	0.99687 0.47649 0.39858 -0.51100
O 	O 	0.03813 0.59658 0.36399 -0.51200
O 	O 	0.82470 0.59390 0.48830 -0.46600
O 	O 	0.86954 0.49316 0.51554 -0.59800
O 	O 	0.59757 0.85307 0.63856 -0.44300
O 	O 	0.59768 0.92666 0.68392 -0.39900
O 	O 	0.60455 0.60142 0.87507 -0.51100
O 	O 	0.59788 0.63601 0.96057 -0.51200
O 	O 	0.68700 0.51170 0.08220 -0.47000
O 	O 	0.61492 0.48446 0.00870 -0.59900
O 	O 	0.23613 0.63856 0.50837 -0.44300
O 	O 	0.28160 0.68392 0.38942 -0.39900
O 	O 	0.47962 0.87507 0.52351 -0.51100
O 	O 	0.55845 0.96057 0.40342 -0.51200
O 	O 	0.76920 0.08220 0.40610 -0.46100
O 	O 	0.62362 0.00870 0.50684 -0.59800
O 	O 	0.74450 0.50837 0.85307 -0.44300
O 	O 	0.67102 0.38942 0.92666 -0.39900
O 	O 	0.00313 0.52351 0.60142 -0.51100
O 	O 	0.96187 0.40342 0.63601 -0.51200
O 	O 	0.17530 0.40610 0.51170 -0.46600
O 	O 	0.13046 0.50684 0.48446 -0.59800
H 	H 	0.92866 0.11797 0.26545 0.07300
H 	H 	0.92850 0.18912 0.29698 0.07200
H 	H 	0.17327 0.24225 0.55753 0.06700
H 	H 	0.24632 0.32018 0.57295 0.09600
H 	H 	0.79095 0.53312 0.13517 0.10000
H 	H 	0.75913 0.59736 0.17191 0.06800
H 	H 	0.07150 0.81088 0.70302 0.07200
H 	H 	0.07134 0.88203 0.73455 0.07300
H 	H 	0.75368 0.67982 0.42705 0.09600
H 	H 	0.82673 0.75775 0.44247 0.06700
H 	H 	0.24087 0.40264 0.82809 0.06800
H 	H 	0.20905 0.46688 0.86483 0.10000
