data_crystal

_cell_length_a 11.66350
_cell_length_b 21.38070
_cell_length_c 21.38070
_cell_angle_alpha 63.23050
_cell_angle_beta  79.52320
_cell_angle_gamma 100.47700

_symmetry_space_group_name_	'P 1'
_symmetry_space_group_name_H-M	'P 1'

loop_
_symmetry_equiv_pos_as_xyz
  x,y,z

loop_
_atom_site_label
_atom_site_type_symbol
_atom_site_fract_x
_atom_site_fract_y
_atom_site_fract_z
_atom_site_charge
Nd	Nd	0.44474 0.39054 0.07967 2.07600
Nd	Nd	0.52441 0.07967 0.52979 2.07600
Nd	Nd	0.05420 0.52979 0.39054 2.07600
Nd	Nd	0.55527 0.60947 0.92032 2.07600
Nd	Nd	0.47559 0.92033 0.47021 2.07500
Nd	Nd	0.94580 0.47021 0.60947 2.07500
H 	H 	0.79000 0.50200 0.98800 -0.08500
H 	H 	0.77800 0.98800 0.51000 -0.08400
H 	H 	0.28800 0.51000 0.50200 -0.08400
H 	H 	0.21000 0.49800 0.01200 -0.08500
H 	H 	0.22200 0.01200 0.49000 -0.08400
H 	H 	0.71200 0.49000 0.49800 -0.08400
C 	C 	0.47660 0.45810 0.89580 0.50500
C 	C 	0.46770 0.44370 0.83280 -0.17400
C 	C 	0.57200 0.44170 0.79090 0.12900
C 	C 	0.57080 0.43950 0.72690 -0.12900
C 	C 	0.69430 0.44650 0.67870 0.36600
C 	C 	0.46690 0.43810 0.70630 0.08200
C 	C 	0.35660 0.43750 0.74830 0.01100
C 	C 	0.36390 0.44020 0.81160 0.09000
C 	C 	0.73250 0.52590 0.96210 0.50200
C 	C 	0.37240 0.89580 0.64610 0.50500
C 	C 	0.30050 0.83280 0.72350 -0.17400
C 	C 	0.36290 0.79090 0.76740 0.12900
C 	C 	0.29770 0.72690 0.83360 -0.12900
C 	C 	0.37300 0.67870 0.87480 0.36600
C 	C 	0.17320 0.70630 0.85560 0.08200
C 	C 	0.10490 0.74830 0.81420 0.01200
C 	C 	0.17550 0.81160 0.74820 0.08900
C 	C 	0.69460 0.96210 0.51200 0.50200
C 	C 	0.01850 0.64610 0.45810 0.50500
C 	C 	0.02400 0.72350 0.44370 -0.17400
C 	C 	0.13030 0.76740 0.44170 0.12900
C 	C 	0.13130 0.83360 0.43950 -0.12900
C 	C 	0.24780 0.87480 0.44650 0.36600
C 	C 	0.02880 0.85560 0.43810 0.08200
C 	C 	0.91910 0.81420 0.43750 0.01100
C 	C 	0.92370 0.74820 0.44020 0.09000
C 	C 	0.20660 0.51200 0.52590 0.50200
C 	C 	0.52340 0.54190 0.10420 0.50500
C 	C 	0.53230 0.55630 0.16720 -0.17400
C 	C 	0.42800 0.55830 0.20910 0.12900
C 	C 	0.42920 0.56050 0.27310 -0.12900
C 	C 	0.30570 0.55350 0.32130 0.36600
C 	C 	0.53310 0.56190 0.29370 0.08200
C 	C 	0.64340 0.56250 0.25170 0.01100
C 	C 	0.63610 0.55980 0.18840 0.09000
C 	C 	0.26750 0.47410 0.03790 0.50200
C 	C 	0.62760 0.10420 0.35390 0.50500
C 	C 	0.69950 0.16720 0.27650 -0.17400
C 	C 	0.63710 0.20910 0.23260 0.12900
C 	C 	0.70230 0.27310 0.16640 -0.12900
C 	C 	0.62700 0.32130 0.12520 0.36600
C 	C 	0.82680 0.29370 0.14440 0.08200
C 	C 	0.89510 0.25170 0.18580 0.01200
C 	C 	0.82450 0.18840 0.25180 0.08900
C 	C 	0.30540 0.03790 0.48800 0.50200
C 	C 	0.98150 0.35390 0.54190 0.50500
C 	C 	0.97600 0.27650 0.55630 -0.17400
C 	C 	0.86970 0.23260 0.55830 0.12900
C 	C 	0.86870 0.16640 0.56050 -0.12900
C 	C 	0.75220 0.12520 0.55350 0.36600
C 	C 	0.97120 0.14440 0.56190 0.08200
C 	C 	0.08090 0.18580 0.56250 0.01100
C 	C 	0.07630 0.25180 0.55980 0.09000
C 	C 	0.79340 0.48800 0.47410 0.50200
I 	I 	0.72448 0.43476 0.83010 -0.16800
I 	I 	0.46823 0.43764 0.60823 -0.06000
I 	I 	0.20569 0.43789 0.87922 -0.09000
I 	I 	0.55458 0.83010 0.73514 -0.16800
I 	I 	0.07646 0.60823 0.95413 -0.05900
I 	I 	0.08491 0.87922 0.68289 -0.09100
I 	I 	0.28972 0.73514 0.43476 -0.16800
I 	I 	0.03059 0.95413 0.43764 -0.06000
I 	I 	0.76780 0.68289 0.43789 -0.09100
I 	I 	0.27552 0.56524 0.16990 -0.16800
I 	I 	0.53177 0.56236 0.39177 -0.06000
I 	I 	0.79431 0.56211 0.12078 -0.09000
I 	I 	0.44542 0.16990 0.26486 -0.16800
I 	I 	0.92354 0.39177 0.04587 -0.05900
I 	I 	0.91509 0.12078 0.31711 -0.09100
I 	I 	0.71028 0.26486 0.56524 -0.16800
I 	I 	0.96941 0.04587 0.56236 -0.06000
I 	I 	0.23220 0.31711 0.56211 -0.09100
N 	N 	0.25390 0.43580 0.72710 -0.08900
N 	N 	0.98100 0.72710 0.83710 -0.08900
N 	N 	0.81810 0.83710 0.43580 -0.08900
N 	N 	0.74610 0.56420 0.27290 -0.08900
N 	N 	0.01900 0.27290 0.16290 -0.08900
N 	N 	0.18190 0.16290 0.56420 -0.08900
O 	O 	0.44221 0.40388 0.95975 -0.50700
O 	O 	0.52183 0.52467 0.87438 -0.51200
O 	O 	0.71650 0.39040 0.68350 -0.40900
O 	O 	0.76450 0.50830 0.63850 -0.44700
O 	O 	0.62300 0.49192 0.99262 -0.62300
O 	O 	0.76950 0.59370 0.91800 -0.46800
O 	O 	0.40196 0.95975 0.63637 -0.50700
O 	O 	0.39621 0.87438 0.60095 -0.51200
O 	O 	0.40000 0.68350 0.92610 -0.40900
O 	O 	0.40300 0.63850 0.85320 -0.44700
O 	O 	0.61562 0.99262 0.51546 -0.62300
O 	O 	0.68750 0.91800 0.48830 -0.46800
O 	O 	0.03833 0.63637 0.40388 -0.50700
O 	O 	0.99716 0.60095 0.52467 -0.51200
O 	O 	0.32610 0.92610 0.39040 -0.40900
O 	O 	0.25620 0.85320 0.50830 -0.44700
O 	O 	0.13108 0.51546 0.49192 -0.62300
O 	O 	0.17580 0.48830 0.59370 -0.46800
O 	O 	0.55779 0.59612 0.04025 -0.50700
O 	O 	0.47817 0.47533 0.12562 -0.51200
O 	O 	0.28350 0.60960 0.31650 -0.40900
O 	O 	0.23550 0.49170 0.36150 -0.44700
O 	O 	0.37700 0.50808 0.00738 -0.62300
O 	O 	0.23050 0.40630 0.08200 -0.46800
O 	O 	0.59804 0.04025 0.36363 -0.50700
O 	O 	0.60379 0.12562 0.39905 -0.51200
O 	O 	0.60000 0.31650 0.07390 -0.40900
O 	O 	0.59700 0.36150 0.14680 -0.44700
O 	O 	0.38438 0.00738 0.48454 -0.62300
O 	O 	0.31250 0.08200 0.51170 -0.46800
O 	O 	0.96167 0.36363 0.59612 -0.50700
O 	O 	0.00284 0.39905 0.47533 -0.51200
O 	O 	0.67390 0.07390 0.60960 -0.40900
O 	O 	0.74380 0.14680 0.49170 -0.44700
O 	O 	0.86892 0.48454 0.50808 -0.62300
O 	O 	0.82420 0.51170 0.40630 -0.46800
