data_crystal

_cell_length_a 15.96840
_cell_length_b 15.96840
_cell_length_c 33.64900
_cell_angle_alpha 90.00000
_cell_angle_beta  90.00000
_cell_angle_gamma 120.00000

_symmetry_space_group_name_	'P 1'
_symmetry_space_group_name_H-M	'P 1'

loop_
_symmetry_equiv_pos_as_xyz
  x,y,z

loop_
_atom_site_label
_atom_site_type_symbol
_atom_site_fract_x
_atom_site_fract_y
_atom_site_fract_z
_atom_site_charge
C 	C 	0.91430 0.58190 0.94230 0.45300
C 	C 	0.87080 0.64050 0.95320 -0.18900
C 	C 	0.83170 0.63040 0.99100 0.10400
H 	H 	0.83600 0.58910 0.00930 0.01000
C 	C 	0.78620 0.68210 0.00147 -0.17400
H 	H 	0.76010 0.67530 0.02680 0.08600
C 	C 	0.77980 0.74390 0.97410 0.10400
C 	C 	0.81880 0.75400 0.93630 -0.16900
H 	H 	0.81450 0.79530 0.91800 0.09400
C 	C 	0.86440 0.70230 0.92588 0.10300
H 	H 	0.89050 0.70910 0.90060 0.00900
C 	C 	0.72430 0.79620 0.98350 -0.05600
C 	C 	0.77530 0.89600 0.98810 -0.05600
H 	H 	0.84230 0.92970 0.98560 0.05000
C 	C 	0.72610 0.94630 0.99670 0.01100
C 	C 	0.62820 0.89300 0.00070 -0.05900
H 	H 	0.59550 0.92580 0.00710 0.05400
C 	C 	0.57350 0.79320 0.99600 -0.04500
C 	C 	0.62530 0.74210 0.98690 0.06800
C 	C 	0.46830 0.73920 0.99800 0.05600
C 	C 	0.26600 0.62500 0.99910 -0.09200
C 	C 	0.41840 0.69140 0.96290 -0.05900
H 	H 	0.45220 0.69770 0.93950 0.03800
C 	C 	0.31730 0.63440 0.96370 -0.01800
H 	H 	0.28390 0.60260 0.94090 0.04400
C 	C 	0.31650 0.67240 0.03330 0.02000
H 	H 	0.28330 0.66660 0.05670 0.02900
C 	C 	0.41670 0.72830 0.03230 -0.05900
H 	H 	0.44980 0.75930 0.05530 0.05600
C 	C 	0.15840 0.55820 0.99970 0.34900
N 	N 	0.57190 0.64040 0.98360 -0.37200
H 	H 	0.60610 0.62340 0.96750 0.12600
H 	H 	0.51720 0.62580 0.97040 0.11500
O 	O 	0.11290 0.53660 0.03250 -0.32000
O 	O 	0.12010 0.52970 0.96730 -0.48400
O 	O 	0.91620 0.52490 0.96740 -0.51700
O 	O 	0.94610 0.59290 0.90730 -0.51900
Zn	Zn	0.53190 0.55007 0.03182 1.22100
C 	C 	0.41290 0.74790 0.96780 -0.05700
H 	H 	0.44330 0.79180 0.94720 0.04400
C 	C 	0.31190 0.69110 0.96840 0.01700
H 	H 	0.27540 0.69750 0.94830 0.02800
C 	C 	0.32040 0.61590 0.02950 -0.01600
H 	H 	0.28970 0.57220 0.05010 0.03700
C 	C 	0.42150 0.67300 0.02890 -0.06000
H 	H 	0.45770 0.66690 0.04920 0.02100
C 	C 	0.41810 0.33240 0.60897 0.45200
C 	C 	0.35950 0.23030 0.61987 -0.19100
C 	C 	0.36960 0.20130 0.65767 0.10500
H 	H 	0.41090 0.24690 0.67597 0.00800
C 	C 	0.31790 0.10410 0.66814 -0.17700
H 	H 	0.32470 0.08480 0.69347 0.08600
C 	C 	0.25610 0.03590 0.64077 0.10600
C 	C 	0.24600 0.06480 0.60297 -0.17100
H 	H 	0.20470 0.01920 0.58467 0.09400
C 	C 	0.29770 0.16210 0.59255 0.10400
H 	H 	0.29090 0.18140 0.56727 0.00800
C 	C 	0.20380 0.92810 0.65017 -0.05800
C 	C 	0.10400 0.87930 0.65477 -0.05700
H 	H 	0.07030 0.91260 0.65227 0.04900
C 	C 	0.05370 0.77980 0.66337 0.01100
C 	C 	0.10700 0.73520 0.66737 -0.06100
H 	H 	0.07420 0.66970 0.67377 0.05300
C 	C 	0.20680 0.78030 0.66267 -0.04600
C 	C 	0.25790 0.88320 0.65357 0.06700
C 	C 	0.26080 0.72910 0.66467 0.05500
C 	C 	0.37500 0.64100 0.66577 -0.09300
C 	C 	0.30860 0.72700 0.62957 -0.06000
H 	H 	0.30230 0.75450 0.60617 0.03700
C 	C 	0.36560 0.68290 0.63037 -0.01900
H 	H 	0.39740 0.68130 0.60757 0.04300
C 	C 	0.32760 0.64410 0.69997 0.01900
H 	H 	0.33340 0.61670 0.72337 0.02800
C 	C 	0.27170 0.68840 0.69897 -0.06000
H 	H 	0.24070 0.69050 0.72197 0.05500
C 	C 	0.44180 0.60020 0.66637 0.34700
N 	N 	0.35960 0.93150 0.65027 -0.37200
H 	H 	0.37660 0.98270 0.63417 0.12600
H 	H 	0.37420 0.89140 0.63707 0.11500
O 	O 	0.46340 0.57630 0.69917 -0.32000
O 	O 	0.47030 0.59040 0.63397 -0.48500
O 	O 	0.47510 0.39130 0.63407 -0.51600
O 	O 	0.40710 0.35320 0.57397 -0.51800
Zn	Zn	0.44993 0.98183 0.69849 1.22100
C 	C 	0.25210 0.66500 0.63447 -0.05700
H 	H 	0.20820 0.65150 0.61387 0.04400
C 	C 	0.30890 0.62080 0.63507 0.01700
H 	H 	0.30250 0.57790 0.61497 0.02800
C 	C 	0.38410 0.70450 0.69617 -0.01600
H 	H 	0.42780 0.71750 0.71677 0.03700
C 	C 	0.32700 0.74850 0.69557 -0.06000
H 	H 	0.33310 0.79080 0.71587 0.02100
C 	C 	0.66760 0.08570 0.27563 0.45200
C 	C 	0.76970 0.12920 0.28653 -0.19200
C 	C 	0.79870 0.16830 0.32433 0.10500
H 	H 	0.75310 0.16400 0.34263 0.00800
C 	C 	0.89590 0.21380 0.33480 -0.17800
H 	H 	0.91520 0.23990 0.36013 0.08600
C 	C 	0.96410 0.22020 0.30743 0.10700
C 	C 	0.93520 0.18120 0.26963 -0.17200
H 	H 	0.98080 0.18550 0.25133 0.09400
C 	C 	0.83790 0.13560 0.25921 0.10400
H 	H 	0.81860 0.10950 0.23393 0.00800
C 	C 	0.07190 0.27570 0.31683 -0.05900
C 	C 	0.12070 0.22470 0.32143 -0.05700
H 	H 	0.08740 0.15770 0.31893 0.04900
C 	C 	0.22020 0.27390 0.33003 0.01100
C 	C 	0.26480 0.37180 0.33403 -0.06000
H 	H 	0.33030 0.40450 0.34043 0.05300
C 	C 	0.21970 0.42650 0.32933 -0.04600
C 	C 	0.11680 0.37470 0.32023 0.06700
C 	C 	0.27090 0.53170 0.33133 0.05500
C 	C 	0.35900 0.73400 0.33243 -0.09300
C 	C 	0.27300 0.58160 0.29623 -0.06000
H 	H 	0.24550 0.54780 0.27283 0.03700
C 	C 	0.31710 0.68270 0.29703 -0.01900
H 	H 	0.31870 0.71610 0.27423 0.04300
C 	C 	0.35590 0.68350 0.36663 0.01900
H 	H 	0.38330 0.71670 0.39003 0.02800
C 	C 	0.31160 0.58330 0.36563 -0.06000
H 	H 	0.30950 0.55020 0.38863 0.05500
C 	C 	0.39980 0.84160 0.33303 0.34700
N 	N 	0.06850 0.42810 0.31693 -0.37200
H 	H 	0.01730 0.39390 0.30083 0.12600
H 	H 	0.10860 0.48280 0.30373 0.11500
O 	O 	0.42370 0.88710 0.36583 -0.31900
O 	O 	0.40960 0.87990 0.30063 -0.48400
O 	O 	0.60870 0.08380 0.30073 -0.51700
O 	O 	0.64680 0.05390 0.24063 -0.51900
Zn	Zn	0.01817 0.46810 0.36515 1.22100
C 	C 	0.33500 0.58710 0.30113 -0.05700
H 	H 	0.34850 0.55670 0.28053 0.04400
C 	C 	0.37920 0.68810 0.30173 0.01700
H 	H 	0.42210 0.72460 0.28163 0.02800
C 	C 	0.29550 0.67960 0.36283 -0.01600
H 	H 	0.28250 0.71030 0.38343 0.03700
C 	C 	0.25150 0.57850 0.36223 -0.06000
H 	H 	0.20920 0.54230 0.38253 0.02100
C 	C 	0.08570 0.41810 0.44230 0.45200
C 	C 	0.12920 0.35950 0.45320 -0.19100
C 	C 	0.16830 0.36960 0.49100 0.10400
H 	H 	0.16400 0.41090 0.50930 0.00800
C 	C 	0.21380 0.31790 0.50147 -0.17600
H 	H 	0.23990 0.32470 0.52680 0.08500
C 	C 	0.22020 0.25610 0.47410 0.10400
C 	C 	0.18120 0.24600 0.43630 -0.17000
H 	H 	0.18550 0.20470 0.41800 0.09300
C 	C 	0.13560 0.29770 0.42588 0.10300
H 	H 	0.10950 0.29090 0.40060 0.00800
C 	C 	0.27570 0.20380 0.48350 -0.05700
C 	C 	0.22470 0.10400 0.48810 -0.05800
H 	H 	0.15770 0.07030 0.48560 0.05000
C 	C 	0.27390 0.05370 0.49670 0.01100
C 	C 	0.37180 0.10700 0.50070 -0.06100
H 	H 	0.40450 0.07420 0.50710 0.05300
C 	C 	0.42650 0.20680 0.49600 -0.04600
C 	C 	0.37470 0.25790 0.48690 0.06700
C 	C 	0.53170 0.26080 0.49800 0.05400
C 	C 	0.73400 0.37500 0.49910 -0.09300
C 	C 	0.58160 0.30860 0.46290 -0.06000
H 	H 	0.54780 0.30230 0.43950 0.03700
C 	C 	0.68270 0.36560 0.46370 -0.01900
H 	H 	0.71610 0.39740 0.44090 0.04300
C 	C 	0.68350 0.32760 0.53330 0.01900
H 	H 	0.71670 0.33340 0.55670 0.02800
C 	C 	0.58330 0.27170 0.53230 -0.06000
H 	H 	0.55020 0.24070 0.55530 0.05500
C 	C 	0.84160 0.44180 0.49970 0.34700
N 	N 	0.42810 0.35960 0.48360 -0.37100
H 	H 	0.39390 0.37660 0.46750 0.12600
H 	H 	0.48280 0.37420 0.47040 0.11500
O 	O 	0.88710 0.46340 0.53250 -0.31900
O 	O 	0.87990 0.47030 0.46730 -0.48400
O 	O 	0.08380 0.47510 0.46740 -0.51700
O 	O 	0.05390 0.40710 0.40730 -0.51900
Zn	Zn	0.46810 0.44993 0.53182 1.22100
C 	C 	0.58710 0.25210 0.46780 -0.05700
H 	H 	0.55670 0.20820 0.44720 0.04400
C 	C 	0.68810 0.30890 0.46840 0.01700
H 	H 	0.72460 0.30250 0.44830 0.02800
C 	C 	0.67960 0.38410 0.52950 -0.01600
H 	H 	0.71030 0.42780 0.55010 0.03700
C 	C 	0.57850 0.32700 0.52890 -0.06000
H 	H 	0.54230 0.33310 0.54920 0.02100
C 	C 	0.58190 0.66760 0.10897 0.45200
C 	C 	0.64050 0.76970 0.11987 -0.19100
C 	C 	0.63040 0.79870 0.15767 0.10500
H 	H 	0.58910 0.75310 0.17597 0.00800
C 	C 	0.68210 0.89590 0.16814 -0.17700
H 	H 	0.67530 0.91520 0.19347 0.08600
C 	C 	0.74390 0.96410 0.14077 0.10700
C 	C 	0.75400 0.93520 0.10297 -0.17100
H 	H 	0.79530 0.98080 0.08467 0.09400
C 	C 	0.70230 0.83790 0.09255 0.10400
H 	H 	0.70910 0.81860 0.06727 0.00800
C 	C 	0.79620 0.07190 0.15017 -0.05800
C 	C 	0.89600 0.12070 0.15477 -0.05700
H 	H 	0.92970 0.08740 0.15227 0.04900
C 	C 	0.94630 0.22020 0.16337 0.01100
C 	C 	0.89300 0.26480 0.16737 -0.06100
H 	H 	0.92580 0.33030 0.17377 0.05300
C 	C 	0.79320 0.21970 0.16267 -0.04600
C 	C 	0.74210 0.11680 0.15357 0.06700
C 	C 	0.73920 0.27090 0.16467 0.05500
C 	C 	0.62500 0.35900 0.16577 -0.09300
C 	C 	0.69140 0.27300 0.12957 -0.06000
H 	H 	0.69770 0.24550 0.10617 0.03700
C 	C 	0.63440 0.31710 0.13037 -0.01900
H 	H 	0.60260 0.31870 0.10757 0.04300
C 	C 	0.67240 0.35590 0.19997 0.01900
H 	H 	0.66660 0.38330 0.22337 0.02800
C 	C 	0.72830 0.31160 0.19897 -0.06000
H 	H 	0.75930 0.30950 0.22197 0.05500
C 	C 	0.55820 0.39980 0.16637 0.34700
N 	N 	0.64040 0.06850 0.15027 -0.37200
H 	H 	0.62340 0.01730 0.13417 0.12600
H 	H 	0.62580 0.10860 0.13707 0.11500
O 	O 	0.53660 0.42370 0.19917 -0.32000
O 	O 	0.52970 0.40960 0.13397 -0.48500
O 	O 	0.52490 0.60870 0.13407 -0.51600
O 	O 	0.59290 0.64680 0.07397 -0.51800
Zn	Zn	0.55007 0.01817 0.19849 1.22100
C 	C 	0.74790 0.33500 0.13447 -0.05700
H 	H 	0.79180 0.34850 0.11387 0.04400
C 	C 	0.69110 0.37920 0.13507 0.01700
H 	H 	0.69750 0.42210 0.11497 0.02800
C 	C 	0.61590 0.29550 0.19617 -0.01600
H 	H 	0.57220 0.28250 0.21677 0.03700
C 	C 	0.67300 0.25150 0.19557 -0.06000
H 	H 	0.66690 0.20920 0.21587 0.02100
C 	C 	0.33240 0.91430 0.77563 0.45200
C 	C 	0.23030 0.87080 0.78653 -0.19200
C 	C 	0.20130 0.83170 0.82433 0.10500
H 	H 	0.24690 0.83600 0.84263 0.00800
C 	C 	0.10410 0.78620 0.83480 -0.17800
H 	H 	0.08480 0.76010 0.86013 0.08600
C 	C 	0.03590 0.77980 0.80743 0.10700
C 	C 	0.06480 0.81880 0.76963 -0.17200
H 	H 	0.01920 0.81450 0.75133 0.09400
C 	C 	0.16210 0.86440 0.75921 0.10400
H 	H 	0.18140 0.89050 0.73393 0.00800
C 	C 	0.92810 0.72430 0.81683 -0.05900
C 	C 	0.87930 0.77530 0.82143 -0.05700
H 	H 	0.91260 0.84230 0.81893 0.04900
C 	C 	0.77980 0.72610 0.83003 0.01100
C 	C 	0.73520 0.62820 0.83403 -0.06000
H 	H 	0.66970 0.59550 0.84043 0.05300
C 	C 	0.78030 0.57350 0.82933 -0.04600
C 	C 	0.88320 0.62530 0.82023 0.06700
C 	C 	0.72910 0.46830 0.83133 0.05500
C 	C 	0.64100 0.26600 0.83243 -0.09300
C 	C 	0.72700 0.41840 0.79623 -0.06000
H 	H 	0.75450 0.45220 0.77283 0.03700
C 	C 	0.68290 0.31730 0.79703 -0.01900
H 	H 	0.68130 0.28390 0.77423 0.04300
C 	C 	0.64410 0.31650 0.86663 0.01900
H 	H 	0.61670 0.28330 0.89003 0.02800
C 	C 	0.68840 0.41670 0.86563 -0.06000
H 	H 	0.69050 0.44980 0.88863 0.05500
C 	C 	0.60020 0.15840 0.83303 0.34700
N 	N 	0.93150 0.57190 0.81693 -0.37200
H 	H 	0.98270 0.60610 0.80083 0.12600
H 	H 	0.89140 0.51720 0.80373 0.11500
O 	O 	0.57630 0.11290 0.86583 -0.31900
O 	O 	0.59040 0.12010 0.80063 -0.48400
O 	O 	0.39130 0.91620 0.80073 -0.51700
O 	O 	0.35320 0.94610 0.74063 -0.51900
Zn	Zn	0.98183 0.53190 0.86515 1.22100
C 	C 	0.66500 0.41290 0.80113 -0.05700
H 	H 	0.65150 0.44330 0.78053 0.04400
C 	C 	0.62080 0.31190 0.80173 0.01700
H 	H 	0.57790 0.27540 0.78163 0.02800
C 	C 	0.70450 0.32040 0.86283 -0.01600
H 	H 	0.71750 0.28970 0.88343 0.03700
C 	C 	0.74850 0.42150 0.86223 -0.06000
H 	H 	0.79080 0.45770 0.88253 0.02100
C 	C 	0.58190 0.91430 0.72437 0.45200
C 	C 	0.64050 0.87080 0.71347 -0.19100
C 	C 	0.63040 0.83170 0.67567 0.10400
H 	H 	0.58910 0.83600 0.65737 0.00800
C 	C 	0.68210 0.78620 0.66520 -0.17600
H 	H 	0.67530 0.76010 0.63987 0.08500
C 	C 	0.74390 0.77980 0.69257 0.10400
C 	C 	0.75400 0.81880 0.73037 -0.17000
H 	H 	0.79530 0.81450 0.74867 0.09300
C 	C 	0.70230 0.86440 0.74079 0.10300
H 	H 	0.70910 0.89050 0.76607 0.00800
C 	C 	0.79620 0.72430 0.68317 -0.05700
C 	C 	0.89600 0.77530 0.67857 -0.05800
H 	H 	0.92970 0.84230 0.68107 0.05000
C 	C 	0.94630 0.72610 0.66997 0.01100
C 	C 	0.89300 0.62820 0.66597 -0.06100
H 	H 	0.92580 0.59550 0.65957 0.05300
C 	C 	0.79320 0.57350 0.67067 -0.04600
C 	C 	0.74210 0.62530 0.67977 0.06700
C 	C 	0.73920 0.46830 0.66867 0.05400
C 	C 	0.62500 0.26600 0.66757 -0.09300
C 	C 	0.69140 0.41840 0.70377 -0.06000
H 	H 	0.69770 0.45220 0.72717 0.03700
C 	C 	0.63440 0.31730 0.70297 -0.01900
H 	H 	0.60260 0.28390 0.72577 0.04300
C 	C 	0.67240 0.31650 0.63337 0.01900
H 	H 	0.66660 0.28330 0.60997 0.02800
C 	C 	0.72830 0.41670 0.63437 -0.06000
H 	H 	0.75930 0.44980 0.61137 0.05500
C 	C 	0.55820 0.15840 0.66697 0.34700
N 	N 	0.64040 0.57190 0.68307 -0.37200
H 	H 	0.62340 0.60610 0.69917 0.12600
H 	H 	0.62580 0.51720 0.69627 0.11500
O 	O 	0.53660 0.11290 0.63417 -0.31900
O 	O 	0.52970 0.12010 0.69937 -0.48400
O 	O 	0.52490 0.91620 0.69927 -0.51700
O 	O 	0.59290 0.94610 0.75937 -0.51900
Zn	Zn	0.55007 0.53190 0.63485 1.22100
C 	C 	0.74790 0.41290 0.69887 -0.05700
H 	H 	0.79180 0.44330 0.71947 0.04400
C 	C 	0.69110 0.31190 0.69827 0.01700
H 	H 	0.69750 0.27540 0.71837 0.02800
C 	C 	0.61590 0.32040 0.63717 -0.01600
H 	H 	0.57220 0.28970 0.61657 0.03700
C 	C 	0.67300 0.42150 0.63777 -0.06000
H 	H 	0.66690 0.45770 0.61747 0.02100
C 	C 	0.33240 0.41810 0.05770 0.45200
C 	C 	0.23030 0.35950 0.04680 -0.18900
C 	C 	0.20130 0.36960 0.00900 0.10200
H 	H 	0.24690 0.41090 0.99070 0.00900
C 	C 	0.10410 0.31790 0.99853 -0.17400
H 	H 	0.08480 0.32470 0.97320 0.08500
C 	C 	0.03590 0.25610 0.02590 0.10400
C 	C 	0.06480 0.24600 0.06370 -0.16900
H 	H 	0.01920 0.20470 0.08200 0.09300
C 	C 	0.16210 0.29770 0.07412 0.10200
H 	H 	0.18140 0.29090 0.09940 0.00900
C 	C 	0.92810 0.20380 0.01650 -0.05700
C 	C 	0.87930 0.10400 0.01190 -0.05800
H 	H 	0.91260 0.07030 0.01440 0.05000
C 	C 	0.77980 0.05370 0.00330 0.01100
C 	C 	0.73520 0.10700 0.99930 -0.06000
H 	H 	0.66970 0.07420 0.99290 0.05300
C 	C 	0.78030 0.20680 0.00400 -0.04600
C 	C 	0.88320 0.25790 0.01310 0.06700
C 	C 	0.72910 0.26080 0.00200 0.05400
C 	C 	0.64100 0.37500 0.00090 -0.09300
C 	C 	0.72700 0.30860 0.03710 -0.06000
H 	H 	0.75450 0.30230 0.06050 0.03700
C 	C 	0.68290 0.36560 0.03630 -0.01800
H 	H 	0.68130 0.39740 0.05910 0.04300
C 	C 	0.64410 0.32760 0.96670 0.01900
H 	H 	0.61670 0.33340 0.94330 0.02800
C 	C 	0.68840 0.27170 0.96770 -0.06000
H 	H 	0.69050 0.24070 0.94470 0.05500
C 	C 	0.60020 0.44180 0.00030 0.34700
N 	N 	0.93150 0.35960 0.01640 -0.37200
H 	H 	0.98270 0.37660 0.03250 0.12600
H 	H 	0.89140 0.37420 0.02960 0.11500
O 	O 	0.57630 0.46340 0.96750 -0.32000
O 	O 	0.59040 0.47030 0.03270 -0.48500
O 	O 	0.39130 0.47510 0.03260 -0.51600
O 	O 	0.35320 0.40710 0.09270 -0.51800
Zn	Zn	0.98183 0.44993 0.96818 1.22100
C 	C 	0.66500 0.25210 0.03220 -0.05700
H 	H 	0.65150 0.20820 0.05280 0.04400
C 	C 	0.62080 0.30890 0.03160 0.01700
H 	H 	0.57790 0.30250 0.05170 0.02800
C 	C 	0.70450 0.38410 0.97050 -0.01600
H 	H 	0.71750 0.42780 0.94990 0.03700
C 	C 	0.74850 0.32700 0.97110 -0.06000
H 	H 	0.79080 0.33310 0.95080 0.02100
C 	C 	0.08570 0.66760 0.39103 0.45200
C 	C 	0.12920 0.76970 0.38013 -0.19200
C 	C 	0.16830 0.79870 0.34233 0.10500
H 	H 	0.16400 0.75310 0.32403 0.00800
C 	C 	0.21380 0.89590 0.33186 -0.17800
H 	H 	0.23990 0.91520 0.30653 0.08600
C 	C 	0.22020 0.96410 0.35923 0.10700
C 	C 	0.18120 0.93520 0.39703 -0.17200
H 	H 	0.18550 0.98080 0.41533 0.09400
C 	C 	0.13560 0.83790 0.40745 0.10400
H 	H 	0.10950 0.81860 0.43273 0.00800
C 	C 	0.27570 0.07190 0.34983 -0.05800
C 	C 	0.22470 0.12070 0.34523 -0.05700
H 	H 	0.15770 0.08740 0.34773 0.04900
C 	C 	0.27390 0.22020 0.33663 0.01100
C 	C 	0.37180 0.26480 0.33263 -0.06000
H 	H 	0.40450 0.33030 0.32623 0.05300
C 	C 	0.42650 0.21970 0.33733 -0.04600
C 	C 	0.37470 0.11680 0.34643 0.06700
C 	C 	0.53170 0.27090 0.33533 0.05500
C 	C 	0.73400 0.35900 0.33423 -0.09300
C 	C 	0.58160 0.27300 0.37043 -0.06000
H 	H 	0.54780 0.24550 0.39383 0.03700
C 	C 	0.68270 0.31710 0.36963 -0.01900
H 	H 	0.71610 0.31870 0.39243 0.04300
C 	C 	0.68350 0.35590 0.30003 0.01900
H 	H 	0.71670 0.38330 0.27663 0.02800
C 	C 	0.58330 0.31160 0.30103 -0.06000
H 	H 	0.55020 0.30950 0.27803 0.05500
C 	C 	0.84160 0.39980 0.33363 0.34700
N 	N 	0.42810 0.06850 0.34973 -0.37200
H 	H 	0.39390 0.01730 0.36583 0.12600
H 	H 	0.48280 0.10860 0.36293 0.11500
O 	O 	0.88710 0.42370 0.30083 -0.31900
O 	O 	0.87990 0.40960 0.36603 -0.48400
O 	O 	0.08380 0.60870 0.36593 -0.51700
O 	O 	0.05390 0.64680 0.42603 -0.51900
Zn	Zn	0.46810 0.01817 0.30151 1.22100
C 	C 	0.58710 0.33500 0.36553 -0.05700
H 	H 	0.55670 0.34850 0.38613 0.04400
C 	C 	0.68810 0.37920 0.36493 0.01700
H 	H 	0.72460 0.42210 0.38503 0.02800
C 	C 	0.67960 0.29550 0.30383 -0.01600
H 	H 	0.71030 0.28250 0.28323 0.03700
C 	C 	0.57850 0.25150 0.30443 -0.06000
H 	H 	0.54230 0.20920 0.28413 0.02100
C 	C 	0.41810 0.08570 0.22437 0.45200
C 	C 	0.35950 0.12920 0.21347 -0.19100
C 	C 	0.36960 0.16830 0.17567 0.10400
H 	H 	0.41090 0.16400 0.15737 0.00800
C 	C 	0.31790 0.21380 0.16520 -0.17600
H 	H 	0.32470 0.23990 0.13987 0.08500
C 	C 	0.25610 0.22020 0.19257 0.10400
C 	C 	0.24600 0.18120 0.23037 -0.17000
H 	H 	0.20470 0.18550 0.24867 0.09300
C 	C 	0.29770 0.13560 0.24079 0.10300
H 	H 	0.29090 0.10950 0.26607 0.00800
C 	C 	0.20380 0.27570 0.18317 -0.05700
C 	C 	0.10400 0.22470 0.17857 -0.05700
H 	H 	0.07030 0.15770 0.18107 0.04900
C 	C 	0.05370 0.27390 0.16997 0.01100
C 	C 	0.10700 0.37180 0.16597 -0.06100
H 	H 	0.07420 0.40450 0.15957 0.05300
C 	C 	0.20680 0.42650 0.17067 -0.04600
C 	C 	0.25790 0.37470 0.17977 0.06700
C 	C 	0.26080 0.53170 0.16867 0.05400
C 	C 	0.37500 0.73400 0.16757 -0.09300
C 	C 	0.30860 0.58160 0.20377 -0.06000
H 	H 	0.30230 0.54780 0.22717 0.03700
C 	C 	0.36560 0.68270 0.20297 -0.01900
H 	H 	0.39740 0.71610 0.22577 0.04300
C 	C 	0.32760 0.68350 0.13337 0.01900
H 	H 	0.33340 0.71670 0.10997 0.02800
C 	C 	0.27170 0.58330 0.13437 -0.06000
H 	H 	0.24070 0.55020 0.11137 0.05500
C 	C 	0.44180 0.84160 0.16697 0.34700
N 	N 	0.35960 0.42810 0.18307 -0.37200
H 	H 	0.37660 0.39390 0.19917 0.12600
H 	H 	0.37420 0.48280 0.19627 0.11500
O 	O 	0.46340 0.88710 0.13417 -0.31900
O 	O 	0.47030 0.87990 0.19937 -0.48400
O 	O 	0.47510 0.08380 0.19927 -0.51700
O 	O 	0.40710 0.05390 0.25937 -0.51900
Zn	Zn	0.44993 0.46810 0.13485 1.22100
C 	C 	0.25210 0.58710 0.19887 -0.05700
H 	H 	0.20820 0.55670 0.21947 0.04400
C 	C 	0.30890 0.68810 0.19827 0.01700
H 	H 	0.30250 0.72460 0.21837 0.02800
C 	C 	0.38410 0.67960 0.13717 -0.01600
H 	H 	0.42780 0.71030 0.11657 0.03700
C 	C 	0.32700 0.57850 0.13777 -0.06000
H 	H 	0.33310 0.54230 0.11747 0.02100
C 	C 	0.66760 0.58190 0.55770 0.45200
C 	C 	0.76970 0.64050 0.54680 -0.19100
C 	C 	0.79870 0.63040 0.50900 0.10500
H 	H 	0.75310 0.58910 0.49070 0.00800
C 	C 	0.89590 0.68210 0.49853 -0.17700
H 	H 	0.91520 0.67530 0.47320 0.08600
C 	C 	0.96410 0.74390 0.52590 0.10600
C 	C 	0.93520 0.75400 0.56370 -0.17100
H 	H 	0.98080 0.79530 0.58200 0.09400
C 	C 	0.83790 0.70230 0.57412 0.10400
H 	H 	0.81860 0.70910 0.59940 0.00800
C 	C 	0.07190 0.79620 0.51650 -0.05800
C 	C 	0.12070 0.89600 0.51190 -0.05700
H 	H 	0.08740 0.92970 0.51440 0.04900
C 	C 	0.22020 0.94630 0.50330 0.01100
C 	C 	0.26480 0.89300 0.49930 -0.06100
H 	H 	0.33030 0.92580 0.49290 0.05300
C 	C 	0.21970 0.79320 0.50400 -0.04600
C 	C 	0.11680 0.74210 0.51310 0.06700
C 	C 	0.27090 0.73920 0.50200 0.05500
C 	C 	0.35900 0.62500 0.50090 -0.09300
C 	C 	0.27300 0.69140 0.53710 -0.06000
H 	H 	0.24550 0.69770 0.56050 0.03700
C 	C 	0.31710 0.63440 0.53630 -0.01900
H 	H 	0.31870 0.60260 0.55910 0.04300
C 	C 	0.35590 0.67240 0.46670 0.01900
H 	H 	0.38330 0.66660 0.44330 0.02800
C 	C 	0.31160 0.72830 0.46770 -0.06000
H 	H 	0.30950 0.75930 0.44470 0.05500
C 	C 	0.39980 0.55820 0.50030 0.34700
N 	N 	0.06850 0.64040 0.51640 -0.37200
H 	H 	0.01730 0.62340 0.53250 0.12600
H 	H 	0.10860 0.62580 0.52960 0.11500
O 	O 	0.42370 0.53660 0.46750 -0.32000
O 	O 	0.40960 0.52970 0.53270 -0.48500
O 	O 	0.60870 0.52490 0.53260 -0.51600
O 	O 	0.64680 0.59290 0.59270 -0.51800
Zn	Zn	0.01817 0.55007 0.46818 1.22100
C 	C 	0.33500 0.74790 0.53220 -0.05700
H 	H 	0.34850 0.79180 0.55280 0.04400
C 	C 	0.37920 0.69110 0.53160 0.01700
H 	H 	0.42210 0.69750 0.55170 0.02800
C 	C 	0.29550 0.61590 0.47050 -0.01600
H 	H 	0.28250 0.57220 0.44990 0.03700
C 	C 	0.25150 0.67300 0.47110 -0.06000
H 	H 	0.20920 0.66690 0.45080 0.02100
C 	C 	0.91430 0.33240 0.89103 0.45200
C 	C 	0.87080 0.23030 0.88013 -0.19200
C 	C 	0.83170 0.20130 0.84233 0.10500
H 	H 	0.83600 0.24690 0.82403 0.00800
C 	C 	0.78620 0.10410 0.83186 -0.17800
H 	H 	0.76010 0.08480 0.80653 0.08600
C 	C 	0.77980 0.03590 0.85923 0.10700
C 	C 	0.81880 0.06480 0.89703 -0.17200
H 	H 	0.81450 0.01920 0.91533 0.09400
C 	C 	0.86440 0.16210 0.90745 0.10400
H 	H 	0.89050 0.18140 0.93273 0.00800
C 	C 	0.72430 0.92810 0.84983 -0.05900
C 	C 	0.77530 0.87930 0.84523 -0.05700
H 	H 	0.84230 0.91260 0.84773 0.04900
C 	C 	0.72610 0.77980 0.83663 0.01100
C 	C 	0.62820 0.73520 0.83263 -0.06000
H 	H 	0.59550 0.66970 0.82623 0.05300
C 	C 	0.57350 0.78030 0.83733 -0.04600
C 	C 	0.62530 0.88320 0.84643 0.06700
C 	C 	0.46830 0.72910 0.83533 0.05500
C 	C 	0.26600 0.64100 0.83423 -0.09300
C 	C 	0.41840 0.72700 0.87043 -0.06000
H 	H 	0.45220 0.75450 0.89383 0.03700
C 	C 	0.31730 0.68290 0.86963 -0.01900
H 	H 	0.28390 0.68130 0.89243 0.04300
C 	C 	0.31650 0.64410 0.80003 0.01900
H 	H 	0.28330 0.61670 0.77663 0.02800
C 	C 	0.41670 0.68840 0.80103 -0.06000
H 	H 	0.44980 0.69050 0.77803 0.05500
C 	C 	0.15840 0.60020 0.83363 0.34700
N 	N 	0.57190 0.93150 0.84973 -0.37200
H 	H 	0.60610 0.98270 0.86583 0.12600
H 	H 	0.51720 0.89140 0.86293 0.11500
O 	O 	0.11290 0.57630 0.80083 -0.31900
O 	O 	0.12010 0.59040 0.86603 -0.48400
O 	O 	0.91620 0.39130 0.86593 -0.51700
O 	O 	0.94610 0.35320 0.92603 -0.51900
Zn	Zn	0.53190 0.98183 0.80151 1.22100
C 	C 	0.41290 0.66500 0.86553 -0.05700
H 	H 	0.44330 0.65150 0.88613 0.04400
C 	C 	0.31190 0.62080 0.86493 0.01700
H 	H 	0.27540 0.57790 0.88503 0.02800
C 	C 	0.32040 0.70450 0.80383 -0.01600
H 	H 	0.28970 0.71750 0.78323 0.03700
C 	C 	0.42150 0.74850 0.80443 -0.06000
H 	H 	0.45770 0.79080 0.78413 0.02100
