data_crystal

_cell_length_a 17.23690
_cell_length_b 35.54720
_cell_length_c 9.98450
_cell_angle_alpha 90.00000
_cell_angle_beta  90.00000
_cell_angle_gamma 90.00000

_symmetry_space_group_name_	'P 1'
_symmetry_space_group_name_H-M	'P 1'

loop_
_symmetry_equiv_pos_as_xyz
  x,y,z

loop_
_atom_site_label
_atom_site_type_symbol
_atom_site_fract_x
_atom_site_fract_y
_atom_site_fract_z
_atom_site_charge
N 	N 	0.76970 0.75150 0.33630 -0.28200
C 	C 	0.73630 0.71670 0.32810 0.06300
H 	H 	0.76780 0.69550 0.33490 -0.04000
C 	C 	0.65680 0.71180 0.30990 -0.19800
H 	H 	0.63610 0.68760 0.31160 0.07000
C 	C 	0.60730 0.74250 0.28900 0.09600
C 	C 	0.64130 0.77790 0.30650 -0.19600
H 	H 	0.61060 0.79940 0.30820 0.07800
C 	C 	0.72240 0.78080 0.32160 0.07500
H 	H 	0.74420 0.80470 0.32130 -0.04800
C 	C 	0.52510 0.73690 0.26250 -0.08800
H 	H 	0.50690 0.71230 0.26360 0.04900
N 	N 	0.26970 0.75150 0.83630 -0.28100
C 	C 	0.23630 0.71670 0.82810 0.06400
H 	H 	0.26780 0.69550 0.83490 -0.03900
C 	C 	0.15680 0.71180 0.80990 -0.19700
H 	H 	0.13610 0.68760 0.81160 0.07100
C 	C 	0.10730 0.74250 0.78900 0.09700
C 	C 	0.14130 0.77790 0.80650 -0.19500
H 	H 	0.11060 0.79940 0.80820 0.07900
C 	C 	0.22240 0.78080 0.82160 0.07600
H 	H 	0.24420 0.80470 0.82130 -0.04700
C 	C 	0.02510 0.73690 0.76250 -0.08700
H 	H 	0.00690 0.71230 0.76360 0.05000
N 	N 	0.98030 0.75150 0.41370 -0.28100
C 	C 	0.01370 0.71670 0.42190 0.06400
H 	H 	0.98220 0.69550 0.41510 -0.03900
C 	C 	0.09320 0.71180 0.44010 -0.19700
H 	H 	0.11390 0.68760 0.43840 0.07100
C 	C 	0.14270 0.74250 0.46100 0.09700
C 	C 	0.10870 0.77790 0.44350 -0.19500
H 	H 	0.13940 0.79940 0.44180 0.07900
C 	C 	0.02760 0.78080 0.42840 0.07600
H 	H 	0.00580 0.80470 0.42870 -0.04700
C 	C 	0.22490 0.73690 0.48750 -0.08700
H 	H 	0.24310 0.71230 0.48640 0.05000
N 	N 	0.48030 0.75150 0.91370 -0.28100
C 	C 	0.51370 0.71670 0.92190 0.06400
H 	H 	0.48220 0.69550 0.91510 -0.03900
C 	C 	0.59320 0.71180 0.94010 -0.19700
H 	H 	0.61390 0.68760 0.93840 0.07100
C 	C 	0.64270 0.74250 0.96100 0.09700
C 	C 	0.60870 0.77790 0.94350 -0.19500
H 	H 	0.63940 0.79940 0.94180 0.07900
C 	C 	0.52760 0.78080 0.92840 0.07600
H 	H 	0.50580 0.80470 0.92870 -0.04700
C 	C 	0.72490 0.73690 0.98750 -0.08800
H 	H 	0.74310 0.71230 0.98640 0.05100
N 	N 	0.23030 0.74850 0.16370 -0.28100
C 	C 	0.26370 0.78330 0.17190 0.06400
H 	H 	0.23220 0.80450 0.16510 -0.03900
C 	C 	0.34320 0.78820 0.19010 -0.19700
H 	H 	0.36390 0.81240 0.18840 0.07100
C 	C 	0.39270 0.75750 0.21100 0.09700
C 	C 	0.35870 0.72210 0.19350 -0.19500
H 	H 	0.38940 0.70060 0.19180 0.07900
C 	C 	0.27760 0.71920 0.17840 0.07600
H 	H 	0.25580 0.69530 0.17870 -0.04700
C 	C 	0.47490 0.76310 0.23750 -0.08700
H 	H 	0.49310 0.78770 0.23640 0.05100
N 	N 	0.73030 0.74850 0.66370 -0.28100
C 	C 	0.76370 0.78330 0.67190 0.06400
H 	H 	0.73220 0.80450 0.66510 -0.03900
C 	C 	0.84320 0.78820 0.69010 -0.19700
H 	H 	0.86390 0.81240 0.68840 0.07100
C 	C 	0.89270 0.75750 0.71100 0.09700
C 	C 	0.85870 0.72210 0.69350 -0.19600
H 	H 	0.88940 0.70060 0.69180 0.07900
C 	C 	0.77760 0.71920 0.67840 0.07600
H 	H 	0.75580 0.69530 0.67870 -0.04700
C 	C 	0.97490 0.76310 0.73750 -0.08800
H 	H 	0.99310 0.78770 0.73640 0.05100
N 	N 	0.01970 0.74850 0.08630 -0.28100
C 	C 	0.98630 0.78330 0.07810 0.06400
H 	H 	0.01780 0.80450 0.08490 -0.03900
C 	C 	0.90680 0.78820 0.05990 -0.19700
H 	H 	0.88610 0.81240 0.06160 0.07100
C 	C 	0.85730 0.75750 0.03900 0.09700
C 	C 	0.89130 0.72210 0.05650 -0.19500
H 	H 	0.86060 0.70060 0.05820 0.07900
C 	C 	0.97240 0.71920 0.07160 0.07600
H 	H 	0.99420 0.69530 0.07130 -0.04700
C 	C 	0.77510 0.76310 0.01250 -0.08700
H 	H 	0.75690 0.78770 0.01360 0.05000
N 	N 	0.51970 0.74850 0.58630 -0.28100
C 	C 	0.48630 0.78330 0.57810 0.06400
H 	H 	0.51780 0.80450 0.58490 -0.03900
C 	C 	0.40680 0.78820 0.55990 -0.19700
H 	H 	0.38610 0.81240 0.56160 0.07100
C 	C 	0.35730 0.75750 0.53900 0.09700
C 	C 	0.39130 0.72210 0.55650 -0.19500
H 	H 	0.36060 0.70060 0.55820 0.07900
C 	C 	0.47240 0.71920 0.57160 0.07600
H 	H 	0.49420 0.69530 0.57130 -0.04700
C 	C 	0.27510 0.76310 0.51250 -0.08800
H 	H 	0.25690 0.78770 0.51360 0.05100
Cu	Cu	0.87500 0.75794 0.37500 0.81900
Cu	Cu	0.37500 0.75794 0.87500 0.81900
Cu	Cu	0.12500 0.74206 0.12500 0.81900
Cu	Cu	0.62500 0.74206 0.62500 0.81900
N 	N 	0.76970 0.25150 0.83630 -0.28100
C 	C 	0.73630 0.21670 0.82810 0.06400
H 	H 	0.76780 0.19550 0.83490 -0.03900
C 	C 	0.65680 0.21180 0.80990 -0.19700
H 	H 	0.63610 0.18760 0.81160 0.07100
C 	C 	0.60730 0.24250 0.78900 0.09700
C 	C 	0.64130 0.27790 0.80650 -0.19500
H 	H 	0.61060 0.29940 0.80820 0.07900
C 	C 	0.72240 0.28080 0.82160 0.07600
H 	H 	0.74420 0.30470 0.82130 -0.04700
C 	C 	0.52510 0.23690 0.76250 -0.08700
H 	H 	0.50690 0.21230 0.76360 0.05100
N 	N 	0.26970 0.25150 0.33630 -0.28100
C 	C 	0.23630 0.21670 0.32810 0.06400
H 	H 	0.26780 0.19550 0.33490 -0.03900
C 	C 	0.15680 0.21180 0.30990 -0.19700
H 	H 	0.13610 0.18760 0.31160 0.07100
C 	C 	0.10730 0.24250 0.28900 0.09700
C 	C 	0.14130 0.27790 0.30650 -0.19600
H 	H 	0.11060 0.29940 0.30820 0.07900
C 	C 	0.22240 0.28080 0.32160 0.07600
H 	H 	0.24420 0.30470 0.32130 -0.04700
C 	C 	0.02510 0.23690 0.26250 -0.08800
H 	H 	0.00690 0.21230 0.26360 0.05100
N 	N 	0.98030 0.25150 0.91370 -0.28100
C 	C 	0.01370 0.21670 0.92190 0.06400
H 	H 	0.98220 0.19550 0.91510 -0.03900
C 	C 	0.09320 0.21180 0.94010 -0.19700
H 	H 	0.11390 0.18760 0.93840 0.07100
C 	C 	0.14270 0.24250 0.96100 0.09700
C 	C 	0.10870 0.27790 0.94350 -0.19500
H 	H 	0.13940 0.29940 0.94180 0.07900
C 	C 	0.02760 0.28080 0.92840 0.07600
H 	H 	0.00580 0.30470 0.92870 -0.04700
C 	C 	0.22490 0.23690 0.98750 -0.08700
H 	H 	0.24310 0.21230 0.98640 0.05000
N 	N 	0.48030 0.25150 0.41370 -0.28100
C 	C 	0.51370 0.21670 0.42190 0.06400
H 	H 	0.48220 0.19550 0.41510 -0.03900
C 	C 	0.59320 0.21180 0.44010 -0.19700
H 	H 	0.61390 0.18760 0.43840 0.07100
C 	C 	0.64270 0.24250 0.46100 0.09700
C 	C 	0.60870 0.27790 0.44350 -0.19500
H 	H 	0.63940 0.29940 0.44180 0.07900
C 	C 	0.52760 0.28080 0.42840 0.07600
H 	H 	0.50580 0.30470 0.42870 -0.04700
C 	C 	0.72490 0.23690 0.48750 -0.08800
H 	H 	0.74310 0.21230 0.48640 0.05100
N 	N 	0.23030 0.24850 0.66370 -0.28100
C 	C 	0.26370 0.28330 0.67190 0.06400
H 	H 	0.23220 0.30450 0.66510 -0.03900
C 	C 	0.34320 0.28820 0.69010 -0.19700
H 	H 	0.36390 0.31240 0.68840 0.07100
C 	C 	0.39270 0.25750 0.71100 0.09700
C 	C 	0.35870 0.22210 0.69350 -0.19500
H 	H 	0.38940 0.20060 0.69180 0.07900
C 	C 	0.27760 0.21920 0.67840 0.07600
H 	H 	0.25580 0.19530 0.67870 -0.04700
C 	C 	0.47490 0.26310 0.73750 -0.08700
H 	H 	0.49310 0.28770 0.73640 0.05000
N 	N 	0.73030 0.24850 0.16370 -0.28100
C 	C 	0.76370 0.28330 0.17190 0.06400
H 	H 	0.73220 0.30450 0.16510 -0.03900
C 	C 	0.84320 0.28820 0.19010 -0.19700
H 	H 	0.86390 0.31240 0.18840 0.07100
C 	C 	0.89270 0.25750 0.21100 0.09700
C 	C 	0.85870 0.22210 0.19350 -0.19500
H 	H 	0.88940 0.20060 0.19180 0.07900
C 	C 	0.77760 0.21920 0.17840 0.07600
H 	H 	0.75580 0.19530 0.17870 -0.04700
C 	C 	0.97490 0.26310 0.23750 -0.08700
H 	H 	0.99310 0.28770 0.23640 0.05000
N 	N 	0.01970 0.24850 0.58630 -0.28100
C 	C 	0.98630 0.28330 0.57810 0.06400
H 	H 	0.01780 0.30450 0.58490 -0.03900
C 	C 	0.90680 0.28820 0.55990 -0.19700
H 	H 	0.88610 0.31240 0.56160 0.07100
C 	C 	0.85730 0.25750 0.53900 0.09700
C 	C 	0.89130 0.22210 0.55650 -0.19500
H 	H 	0.86060 0.20060 0.55820 0.07900
C 	C 	0.97240 0.21920 0.57160 0.07600
H 	H 	0.99420 0.19530 0.57130 -0.04700
C 	C 	0.77510 0.26310 0.51250 -0.08700
H 	H 	0.75690 0.28770 0.51360 0.05000
N 	N 	0.51970 0.24850 0.08630 -0.28100
C 	C 	0.48630 0.28330 0.07810 0.06400
H 	H 	0.51780 0.30450 0.08490 -0.03900
C 	C 	0.40680 0.28820 0.05990 -0.19700
H 	H 	0.38610 0.31240 0.06160 0.07100
C 	C 	0.35730 0.25750 0.03900 0.09700
C 	C 	0.39130 0.22210 0.05650 -0.19500
H 	H 	0.36060 0.20060 0.05820 0.07900
C 	C 	0.47240 0.21920 0.07160 0.07600
H 	H 	0.49420 0.19530 0.07130 -0.04700
C 	C 	0.27510 0.26310 0.01250 -0.08800
H 	H 	0.25690 0.28770 0.01360 0.05100
Cu	Cu	0.87500 0.25794 0.87500 0.81900
Cu	Cu	0.37500 0.25794 0.37500 0.81900
Cu	Cu	0.12500 0.24206 0.62500 0.81900
Cu	Cu	0.62500 0.24206 0.12500 0.81900
N 	N 	0.98030 0.99850 0.33630 -0.28100
C 	C 	0.01370 0.03330 0.32810 0.06300
H 	H 	0.98220 0.05450 0.33490 -0.03800
C 	C 	0.09320 0.03820 0.30990 -0.19700
H 	H 	0.11390 0.06240 0.31160 0.07100
C 	C 	0.14270 0.00750 0.28900 0.09700
C 	C 	0.10870 0.97210 0.30650 -0.19500
H 	H 	0.13940 0.95060 0.30820 0.07900
C 	C 	0.02760 0.96920 0.32160 0.07600
H 	H 	0.00580 0.94530 0.32130 -0.04700
C 	C 	0.22490 0.01310 0.26250 -0.08700
H 	H 	0.24310 0.03770 0.26360 0.05000
N 	N 	0.48030 0.99850 0.83630 -0.28100
C 	C 	0.51370 0.03330 0.82810 0.06400
H 	H 	0.48220 0.05450 0.83490 -0.03900
C 	C 	0.59320 0.03820 0.80990 -0.19700
H 	H 	0.61390 0.06240 0.81160 0.07100
C 	C 	0.64270 0.00750 0.78900 0.09700
C 	C 	0.60870 0.97210 0.80650 -0.19500
H 	H 	0.63940 0.95060 0.80820 0.07900
C 	C 	0.52760 0.96920 0.82160 0.07600
H 	H 	0.50580 0.94530 0.82130 -0.04700
C 	C 	0.72490 0.01310 0.76250 -0.08700
H 	H 	0.74310 0.03770 0.76360 0.05000
N 	N 	0.76970 0.99850 0.41370 -0.28100
C 	C 	0.73630 0.03330 0.42190 0.06400
H 	H 	0.76780 0.05450 0.41510 -0.03900
C 	C 	0.65680 0.03820 0.44010 -0.19700
H 	H 	0.63610 0.06240 0.43840 0.07100
C 	C 	0.60730 0.00750 0.46100 0.09700
C 	C 	0.64130 0.97210 0.44350 -0.19500
H 	H 	0.61060 0.95060 0.44180 0.07900
C 	C 	0.72240 0.96920 0.42840 0.07600
H 	H 	0.74420 0.94530 0.42870 -0.04700
C 	C 	0.52510 0.01310 0.48750 -0.08800
H 	H 	0.50690 0.03770 0.48640 0.05000
N 	N 	0.26970 0.99850 0.91370 -0.28100
C 	C 	0.23630 0.03330 0.92190 0.06400
H 	H 	0.26780 0.05450 0.91510 -0.03900
C 	C 	0.15680 0.03820 0.94010 -0.19700
H 	H 	0.13610 0.06240 0.93840 0.07100
C 	C 	0.10730 0.00750 0.96100 0.09700
C 	C 	0.14130 0.97210 0.94350 -0.19500
H 	H 	0.11060 0.95060 0.94180 0.07900
C 	C 	0.22240 0.96920 0.92840 0.07600
H 	H 	0.24420 0.94530 0.92870 -0.04700
C 	C 	0.02510 0.01310 0.98750 -0.08700
H 	H 	0.00690 0.03770 0.98640 0.05000
N 	N 	0.01970 0.00150 0.66370 -0.28100
C 	C 	0.98630 0.96670 0.67190 0.06300
H 	H 	0.01780 0.94550 0.66510 -0.03800
C 	C 	0.90680 0.96180 0.69010 -0.19700
H 	H 	0.88610 0.93760 0.68840 0.07100
C 	C 	0.85730 0.99250 0.71100 0.09700
C 	C 	0.89130 0.02790 0.69350 -0.19500
H 	H 	0.86060 0.04940 0.69180 0.07900
C 	C 	0.97240 0.03080 0.67840 0.07600
H 	H 	0.99420 0.05470 0.67870 -0.04700
C 	C 	0.77510 0.98690 0.73750 -0.08700
H 	H 	0.75690 0.96230 0.73640 0.05000
N 	N 	0.51970 0.00150 0.16370 -0.28100
C 	C 	0.48630 0.96670 0.17190 0.06400
H 	H 	0.51780 0.94550 0.16510 -0.03900
C 	C 	0.40680 0.96180 0.19010 -0.19700
H 	H 	0.38610 0.93760 0.18840 0.07100
C 	C 	0.35730 0.99250 0.21100 0.09700
C 	C 	0.39130 0.02790 0.19350 -0.19500
H 	H 	0.36060 0.04940 0.19180 0.07900
C 	C 	0.47240 0.03080 0.17840 0.07600
H 	H 	0.49420 0.05470 0.17870 -0.04700
C 	C 	0.27510 0.98690 0.23750 -0.08700
H 	H 	0.25690 0.96230 0.23640 0.05000
N 	N 	0.23030 0.00150 0.58630 -0.28100
C 	C 	0.26370 0.96670 0.57810 0.06400
H 	H 	0.23220 0.94550 0.58490 -0.03900
C 	C 	0.34320 0.96180 0.55990 -0.19700
H 	H 	0.36390 0.93760 0.56160 0.07100
C 	C 	0.39270 0.99250 0.53900 0.09700
C 	C 	0.35870 0.02790 0.55650 -0.19500
H 	H 	0.38940 0.04940 0.55820 0.07900
C 	C 	0.27760 0.03080 0.57160 0.07600
H 	H 	0.25580 0.05470 0.57130 -0.04700
C 	C 	0.47490 0.98690 0.51250 -0.08800
H 	H 	0.49310 0.96230 0.51360 0.05000
N 	N 	0.73030 0.00150 0.08630 -0.28100
C 	C 	0.76370 0.96670 0.07810 0.06400
H 	H 	0.73220 0.94550 0.08490 -0.03900
C 	C 	0.84320 0.96180 0.05990 -0.19700
H 	H 	0.86390 0.93760 0.06160 0.07100
C 	C 	0.89270 0.99250 0.03900 0.09700
C 	C 	0.85870 0.02790 0.05650 -0.19500
H 	H 	0.88940 0.04940 0.05820 0.07900
C 	C 	0.77760 0.03080 0.07160 0.07600
H 	H 	0.75580 0.05470 0.07130 -0.04700
C 	C 	0.97490 0.98690 0.01250 -0.08700
H 	H 	0.99310 0.96230 0.01360 0.05000
Cu	Cu	0.87500 0.99206 0.37500 0.81900
Cu	Cu	0.37500 0.99206 0.87500 0.81900
Cu	Cu	0.12500 0.00794 0.62500 0.81900
Cu	Cu	0.62500 0.00794 0.12500 0.81900
N 	N 	0.98030 0.49850 0.83630 -0.28200
C 	C 	0.01370 0.53330 0.82810 0.06500
H 	H 	0.98220 0.55450 0.83490 -0.03900
C 	C 	0.09320 0.53820 0.80990 -0.19800
H 	H 	0.11390 0.56240 0.81160 0.07100
C 	C 	0.14270 0.50750 0.78900 0.09700
C 	C 	0.10870 0.47210 0.80650 -0.19600
H 	H 	0.13940 0.45060 0.80820 0.07900
C 	C 	0.02760 0.46920 0.82160 0.07700
H 	H 	0.00580 0.44530 0.82130 -0.04700
C 	C 	0.22490 0.51310 0.76250 -0.08800
H 	H 	0.24310 0.53770 0.76360 0.05100
N 	N 	0.48030 0.49850 0.33630 -0.28100
C 	C 	0.51370 0.53330 0.32810 0.06400
H 	H 	0.48220 0.55450 0.33490 -0.03900
C 	C 	0.59320 0.53820 0.30990 -0.19700
H 	H 	0.61390 0.56240 0.31160 0.07100
C 	C 	0.64270 0.50750 0.28900 0.09700
C 	C 	0.60870 0.47210 0.30650 -0.19500
H 	H 	0.63940 0.45060 0.30820 0.07900
C 	C 	0.52760 0.46920 0.32160 0.07600
H 	H 	0.50580 0.44530 0.32130 -0.04700
C 	C 	0.72490 0.51310 0.26250 -0.08700
H 	H 	0.74310 0.53770 0.26360 0.05000
N 	N 	0.76970 0.49850 0.91370 -0.28100
C 	C 	0.73630 0.53330 0.92190 0.06400
H 	H 	0.76780 0.55450 0.91510 -0.03900
C 	C 	0.65680 0.53820 0.94010 -0.19700
H 	H 	0.63610 0.56240 0.93840 0.07100
C 	C 	0.60730 0.50750 0.96100 0.09700
C 	C 	0.64130 0.47210 0.94350 -0.19500
H 	H 	0.61060 0.45060 0.94180 0.07900
C 	C 	0.72240 0.46920 0.92840 0.07600
H 	H 	0.74420 0.44530 0.92870 -0.04700
C 	C 	0.52510 0.51310 0.98750 -0.08700
H 	H 	0.50690 0.53770 0.98640 0.05100
N 	N 	0.26970 0.49850 0.41370 -0.28100
C 	C 	0.23630 0.53330 0.42190 0.06400
H 	H 	0.26780 0.55450 0.41510 -0.03900
C 	C 	0.15680 0.53820 0.44010 -0.19700
H 	H 	0.13610 0.56240 0.43840 0.07100
C 	C 	0.10730 0.50750 0.46100 0.09700
C 	C 	0.14130 0.47210 0.44350 -0.19500
H 	H 	0.11060 0.45060 0.44180 0.07900
C 	C 	0.22240 0.46920 0.42840 0.07600
H 	H 	0.24420 0.44530 0.42870 -0.04700
C 	C 	0.02510 0.51310 0.48750 -0.08800
H 	H 	0.00690 0.53770 0.48640 0.05000
N 	N 	0.01970 0.50150 0.16370 -0.28200
C 	C 	0.98630 0.46670 0.17190 0.06500
H 	H 	0.01780 0.44550 0.16510 -0.03900
C 	C 	0.90680 0.46180 0.19010 -0.19800
H 	H 	0.88610 0.43760 0.18840 0.07100
C 	C 	0.85730 0.49250 0.21100 0.09700
C 	C 	0.89130 0.52790 0.19350 -0.19600
H 	H 	0.86060 0.54940 0.19180 0.07900
C 	C 	0.97240 0.53080 0.17840 0.07700
H 	H 	0.99420 0.55470 0.17870 -0.04700
C 	C 	0.77510 0.48690 0.23750 -0.08800
H 	H 	0.75690 0.46230 0.23640 0.05100
N 	N 	0.51970 0.50150 0.66370 -0.28100
C 	C 	0.48630 0.46670 0.67190 0.06400
H 	H 	0.51780 0.44550 0.66510 -0.03900
C 	C 	0.40680 0.46180 0.69010 -0.19700
H 	H 	0.38610 0.43760 0.68840 0.07100
C 	C 	0.35730 0.49250 0.71100 0.09700
C 	C 	0.39130 0.52790 0.69350 -0.19500
H 	H 	0.36060 0.54940 0.69180 0.07900
C 	C 	0.47240 0.53080 0.67840 0.07600
H 	H 	0.49420 0.55470 0.67870 -0.04700
C 	C 	0.27510 0.48690 0.73750 -0.08700
H 	H 	0.25690 0.46230 0.73640 0.05000
N 	N 	0.23030 0.50150 0.08630 -0.28100
C 	C 	0.26370 0.46670 0.07810 0.06400
H 	H 	0.23220 0.44550 0.08490 -0.03900
C 	C 	0.34320 0.46180 0.05990 -0.19700
H 	H 	0.36390 0.43760 0.06160 0.07100
C 	C 	0.39270 0.49250 0.03900 0.09700
C 	C 	0.35870 0.52790 0.05650 -0.19500
H 	H 	0.38940 0.54940 0.05820 0.07900
C 	C 	0.27760 0.53080 0.07160 0.07600
H 	H 	0.25580 0.55470 0.07130 -0.04700
C 	C 	0.47490 0.48690 0.01250 -0.08700
H 	H 	0.49310 0.46230 0.01360 0.05100
N 	N 	0.73030 0.50150 0.58630 -0.28100
C 	C 	0.76370 0.46670 0.57810 0.06400
H 	H 	0.73220 0.44550 0.58490 -0.03900
C 	C 	0.84320 0.46180 0.55990 -0.19700
H 	H 	0.86390 0.43760 0.56160 0.07100
C 	C 	0.89270 0.49250 0.53900 0.09700
C 	C 	0.85870 0.52790 0.55650 -0.19500
H 	H 	0.88940 0.54940 0.55820 0.07900
C 	C 	0.77760 0.53080 0.57160 0.07600
H 	H 	0.75580 0.55470 0.57130 -0.04700
C 	C 	0.97490 0.48690 0.51250 -0.08800
H 	H 	0.99310 0.46230 0.51360 0.05000
Cu	Cu	0.87500 0.49206 0.87500 0.81900
Cu	Cu	0.37500 0.49206 0.37500 0.81900
Cu	Cu	0.12500 0.50794 0.12500 0.81900
Cu	Cu	0.62500 0.50794 0.62500 0.81900
