data_crystal

_cell_length_a 10.41570
_cell_length_b 11.21760
_cell_length_c 11.80600
_cell_angle_alpha 93.29800
_cell_angle_beta  109.63500
_cell_angle_gamma 106.94900

_symmetry_space_group_name_	'P 1'
_symmetry_space_group_name_H-M	'P 1'

loop_
_symmetry_equiv_pos_as_xyz
  x,y,z

loop_
_atom_site_label
_atom_site_type_symbol
_atom_site_fract_x
_atom_site_fract_y
_atom_site_fract_z
_atom_site_charge
Eu	Eu	0.39272 0.46538 0.81718 1.91300
N 	N 	0.89100 0.13200 0.62900 -0.11400
N 	N 	0.79400 0.34200 0.78100 -0.11400
N 	N 	0.55700 0.90700 0.22500 -0.11500
N 	N 	0.42640 0.57720 0.64600 -0.20900
N 	N 	0.52740 0.65280 0.51470 -0.17000
C 	C 	0.19480 0.23990 0.65020 0.35400
C 	C 	0.09240 0.11640 0.57530 -0.09000
C 	C 	0.13260 0.05840 0.49310 -0.06200
H 	H 	0.22170 0.09650 0.48710 0.07000
C 	C 	0.96000 0.05790 0.58160 0.10000
C 	C 	0.70350 0.49520 0.92100 0.42200
C 	C 	0.85660 0.49880 0.96050 -0.13300
C 	C 	0.89850 0.42420 0.89300 0.10100
C 	C 	0.95740 0.57510 0.06570 -0.04800
H 	H 	0.93090 0.62750 0.11100 0.05500
C 	C 	0.52530 0.75010 0.99980 0.47300
C 	C 	0.51310 0.87930 0.00410 -0.13900
C 	C 	0.49080 0.93140 0.89570 -0.05300
H 	H 	0.48830 0.88630 0.82590 0.06000
C 	C 	0.52780 0.94820 0.10800 0.11800
C 	C 	0.38000 0.66840 0.59380 -0.14900
H 	H 	0.31170 0.69530 0.61250 0.06400
C 	C 	0.43700 0.71850 0.51290 0.31100
C 	C 	0.52100 0.56980 0.59310 0.11300
H 	H 	0.57450 0.51510 0.60840 0.01300
C 	C 	0.42500 0.82000 0.43700 -0.85400
H 	H 	0.48030 0.82120 0.38590 0.31000
H 	H 	0.46210 0.90100 0.48940 0.27100
H 	H 	0.32580 0.80420 0.38670 0.30600
O 	O 	0.15990 0.28860 0.73230 -0.40600
O 	O 	0.30610 0.29410 0.63810 -0.41600
O 	O 	0.62610 0.46720 0.81200 -0.43900
O 	O 	0.65790 0.52450 0.00430 -0.56100
O 	O 	0.49160 0.68440 0.89840 -0.51400
O 	O 	0.56830 0.71710 0.10090 -0.46600
Eu	Eu	0.60728 0.53462 0.18282 1.91200
N 	N 	0.10900 0.86800 0.37100 -0.11500
N 	N 	0.20600 0.65800 0.21900 -0.11500
N 	N 	0.44300 0.09300 0.77500 -0.11600
N 	N 	0.57360 0.42280 0.35400 -0.20900
N 	N 	0.47260 0.34720 0.48530 -0.17000
C 	C 	0.80520 0.76010 0.34980 0.35400
C 	C 	0.90760 0.88360 0.42470 -0.09000
C 	C 	0.86740 0.94160 0.50690 -0.06200
H 	H 	0.77830 0.90350 0.51290 0.07000
C 	C 	0.04000 0.94210 0.41840 0.10000
C 	C 	0.29650 0.50480 0.07900 0.42200
C 	C 	0.14340 0.50120 0.03950 -0.13300
C 	C 	0.10150 0.57580 0.10700 0.10100
C 	C 	0.04260 0.42490 0.93430 -0.04800
H 	H 	0.06910 0.37250 0.88900 0.05500
C 	C 	0.47470 0.24990 0.00020 0.47300
C 	C 	0.48690 0.12070 0.99590 -0.13900
C 	C 	0.50920 0.06860 0.10430 -0.05300
H 	H 	0.51170 0.11370 0.17410 0.06000
C 	C 	0.47220 0.05180 0.89200 0.11800
C 	C 	0.62000 0.33160 0.40620 -0.14900
H 	H 	0.68830 0.30470 0.38750 0.06400
C 	C 	0.56300 0.28150 0.48710 0.31100
C 	C 	0.47900 0.43020 0.40690 0.11300
H 	H 	0.42550 0.48490 0.39160 0.01300
C 	C 	0.57500 0.18000 0.56300 -0.85400
H 	H 	0.51970 0.17880 0.61410 0.31000
H 	H 	0.53790 0.09900 0.51060 0.27100
H 	H 	0.67420 0.19580 0.61330 0.30600
O 	O 	0.84010 0.71140 0.26770 -0.40600
O 	O 	0.69390 0.70590 0.36190 -0.41600
O 	O 	0.37390 0.53280 0.18800 -0.43900
O 	O 	0.34210 0.47550 0.99570 -0.56100
O 	O 	0.50840 0.31560 0.10160 -0.51400
O 	O 	0.43170 0.28290 0.89910 -0.46600
