data_crystal

_cell_length_a 10.43610
_cell_length_b 11.20020
_cell_length_c 11.73490
_cell_angle_alpha 93.47300
_cell_angle_beta  110.05400
_cell_angle_gamma 106.43600

_symmetry_space_group_name_	'P 1'
_symmetry_space_group_name_H-M	'P 1'

loop_
_symmetry_equiv_pos_as_xyz
  x,y,z

loop_
_atom_site_label
_atom_site_type_symbol
_atom_site_fract_x
_atom_site_fract_y
_atom_site_fract_z
_atom_site_charge
Eu	Eu	0.10745 0.53458 0.68375 1.92200
O 	O 	0.19120 0.70720 0.86160 -0.38000
O 	O 	0.34070 0.70620 0.76940 -0.40900
O 	O 	0.15510 0.51890 0.50280 -0.56200
O 	O 	0.12440 0.45960 0.31000 -0.43800
O 	O 	0.00790 0.31550 0.60210 -0.51800
O 	O 	0.92620 0.28300 0.39790 -0.47000
O 	O 	0.02100 0.17800 0.14900 -0.32700
H 	H 	0.07460 0.24280 0.19740 0.25600
C 	C 	0.31000 0.75760 0.84940 0.32500
C 	C 	0.40980 0.88380 0.92710 -0.07200
C 	C 	0.37020 0.94340 0.00680 -0.07700
H 	H 	0.28120 0.90500 0.01170 0.09600
C 	C 	0.54140 0.93870 0.91740 0.11800
C 	C 	0.20310 0.49050 0.42010 0.42200
C 	C 	0.35540 0.49590 0.46050 -0.13900
C 	C 	0.39810 0.42250 0.39020 0.11700
C 	C 	0.45480 0.56970 0.56720 -0.04800
H 	H 	0.42530 0.61750 0.61460 0.05600
C 	C 	0.97140 0.24920 0.50030 0.48300
C 	C 	0.98500 0.12130 0.49660 -0.14400
C 	C 	0.00950 0.06910 0.60350 -0.03700
H 	H 	0.01510 0.11570 0.67440 0.06200
C 	C 	0.97430 0.04930 0.39090 0.11000
C 	C 	0.97300 0.42100 0.90600 0.10800
H 	H 	0.90590 0.46310 0.88120 0.01400
C 	C 	0.07100 0.28600 0.98800 0.04400
C 	C 	0.13200 0.33700 0.90700 0.00700
H 	H 	0.20280 0.31450 0.88810 0.00700
C 	C 	0.06300 0.16800 0.04400 0.02700
H 	H 	0.99360 0.09530 0.98250 0.04700
H 	H 	0.15640 0.15500 0.07010 0.04600
N 	N 	0.58500 0.87600 0.84900 -0.10400
N 	N 	0.30400 0.34100 0.28800 -0.11500
N 	N 	0.96600 0.09600 0.27700 -0.07900
N 	N 	0.07450 0.42520 0.85790 -0.23400
N 	N 	0.97900 0.34700 0.99400 -0.11500
Eu	Eu	0.89255 0.46542 0.31625 1.92300
O 	O 	0.80880 0.29280 0.13840 -0.37900
O 	O 	0.65930 0.29380 0.23060 -0.40900
O 	O 	0.84490 0.48110 0.49720 -0.56200
O 	O 	0.87560 0.54040 0.69000 -0.43800
O 	O 	0.99210 0.68450 0.39790 -0.51800
O 	O 	0.07380 0.71700 0.60210 -0.47000
O 	O 	0.97900 0.82200 0.85100 -0.32700
H 	H 	0.92540 0.75720 0.80260 0.25600
C 	C 	0.69000 0.24240 0.15060 0.32500
C 	C 	0.59020 0.11620 0.07290 -0.07200
C 	C 	0.62980 0.05660 0.99320 -0.07700
H 	H 	0.71880 0.09500 0.98830 0.09600
C 	C 	0.45860 0.06130 0.08260 0.11800
C 	C 	0.79690 0.50950 0.57990 0.42200
C 	C 	0.64460 0.50410 0.53950 -0.13900
C 	C 	0.60190 0.57750 0.60980 0.11700
C 	C 	0.54520 0.43030 0.43280 -0.04800
H 	H 	0.57470 0.38250 0.38540 0.05600
C 	C 	0.02860 0.75080 0.49970 0.48300
C 	C 	0.01500 0.87870 0.50340 -0.14400
C 	C 	0.99050 0.93090 0.39650 -0.03700
H 	H 	0.98490 0.88430 0.32560 0.06200
C 	C 	0.02570 0.95070 0.60910 0.11000
C 	C 	0.02700 0.57900 0.09400 0.10800
H 	H 	0.09410 0.53690 0.11880 0.01400
C 	C 	0.92900 0.71400 0.01200 0.04400
C 	C 	0.86800 0.66300 0.09300 0.00700
H 	H 	0.79720 0.68550 0.11190 0.00700
C 	C 	0.93700 0.83200 0.95600 0.02700
H 	H 	0.00640 0.90470 0.01750 0.04700
H 	H 	0.84360 0.84500 0.92990 0.04600
N 	N 	0.41500 0.12400 0.15100 -0.10400
N 	N 	0.69600 0.65900 0.71200 -0.11500
N 	N 	0.03400 0.90400 0.72300 -0.07900
N 	N 	0.92550 0.57480 0.14210 -0.23400
N 	N 	0.02100 0.65300 0.00600 -0.11500
