data_crystal

_cell_length_a 10.33630
_cell_length_b 11.23950
_cell_length_c 11.77290
_cell_angle_alpha 91.93100
_cell_angle_beta  108.44300
_cell_angle_gamma 109.72900

_symmetry_space_group_name_	'P 1'
_symmetry_space_group_name_H-M	'P 1'

loop_
_symmetry_equiv_pos_as_xyz
  x,y,z

loop_
_atom_site_label
_atom_site_type_symbol
_atom_site_fract_x
_atom_site_fract_y
_atom_site_fract_z
_atom_site_charge
C 	C 	0.31100 0.75900 0.84180 0.33200
C 	C 	0.40800 0.88400 0.92290 -0.07600
C 	C 	0.37620 0.92280 0.01940 -0.07000
H 	H 	0.29240 0.87150 0.03290 0.08300
C 	C 	0.53260 0.96200 0.90210 0.09700
C 	C 	0.79450 0.50100 0.58150 0.42100
C 	C 	0.64280 0.50040 0.54070 -0.13100
C 	C 	0.60390 0.57880 0.60570 0.10600
C 	C 	0.53710 0.42050 0.43620 -0.05600
H 	H 	0.56140 0.36530 0.39350 0.05900
C 	C 	0.02680 0.75280 0.50020 0.47300
C 	C 	0.01580 0.88060 0.50190 -0.13800
C 	C 	0.99180 0.93430 0.39480 -0.04600
H 	H 	0.98860 0.89100 0.32470 0.06500
C 	C 	0.02710 0.95020 0.60850 0.11300
C 	C 	0.98210 0.43630 0.91200 0.09500
H 	H 	0.93750 0.49600 0.89390 0.02700
C 	C 	0.04740 0.29050 0.00350 0.07500
C 	C 	0.10130 0.32250 0.90950 0.06100
C 	C 	0.18690 0.25590 0.89170 -0.08800
H 	H 	0.22730 0.27220 0.83100 0.04400
C 	C 	0.21200 0.16530 0.96400 -0.02900
H 	H 	0.26870 0.11970 0.95300 0.05100
C 	C 	0.15000 0.14600 0.05400 -0.01200
H 	H 	0.16880 0.08510 0.10100 0.05400
C 	C 	0.06200 0.20380 0.08370 -0.09000
H 	H 	0.02250 0.18780 0.14470 0.10100
N 	N 	0.57200 0.94600 0.79620 -0.09600
N 	N 	0.70730 0.66500 0.71460 -0.10000
N 	N 	0.04000 0.90100 0.72200 -0.10600
N 	N 	0.06330 0.41360 0.84990 -0.23600
N 	N 	0.96990 0.36670 0.00240 -0.12500
O 	O 	0.19510 0.69520 0.85930 -0.40200
O 	O 	0.34380 0.72010 0.75820 -0.40200
O 	O 	0.87020 0.52950 0.69100 -0.42400
O 	O 	0.84280 0.46900 0.50280 -0.56900
O 	O 	0.98730 0.68570 0.39960 -0.51700
O 	O 	0.07000 0.71630 0.60110 -0.46600
Eu	Eu	0.10605 0.53368 0.67894 1.92500
C 	C 	0.68900 0.24100 0.15820 0.33100
C 	C 	0.59200 0.11600 0.07710 -0.07700
C 	C 	0.62380 0.07720 0.98060 -0.07100
H 	H 	0.70760 0.12850 0.96710 0.08200
C 	C 	0.46740 0.03800 0.09790 0.09600
C 	C 	0.20550 0.49900 0.41850 0.42000
C 	C 	0.35720 0.49960 0.45930 -0.13100
C 	C 	0.39610 0.42120 0.39430 0.10600
C 	C 	0.46290 0.57950 0.56380 -0.05600
H 	H 	0.43860 0.63470 0.60650 0.05900
C 	C 	0.97320 0.24720 0.49980 0.47300
C 	C 	0.98420 0.11940 0.49810 -0.13800
C 	C 	0.00820 0.06570 0.60520 -0.04600
H 	H 	0.01140 0.10900 0.67530 0.06500
C 	C 	0.97290 0.04980 0.39150 0.11300
C 	C 	0.01790 0.56370 0.08800 0.09500
H 	H 	0.06250 0.50400 0.10610 0.02700
C 	C 	0.95260 0.70950 0.99650 0.07500
C 	C 	0.89870 0.67750 0.09050 0.06100
C 	C 	0.81310 0.74410 0.10830 -0.08800
H 	H 	0.77270 0.72780 0.16900 0.04400
C 	C 	0.78800 0.83470 0.03600 -0.02900
H 	H 	0.73130 0.88030 0.04700 0.05100
C 	C 	0.85000 0.85400 0.94600 -0.01200
H 	H 	0.83120 0.91490 0.89900 0.05400
C 	C 	0.93800 0.79620 0.91630 -0.09000
H 	H 	0.97750 0.81220 0.85530 0.10100
N 	N 	0.42800 0.05400 0.20380 -0.09600
N 	N 	0.29270 0.33500 0.28540 -0.10000
N 	N 	0.96000 0.09900 0.27800 -0.10600
N 	N 	0.93670 0.58640 0.15010 -0.23600
N 	N 	0.03010 0.63330 0.99760 -0.12500
O 	O 	0.80490 0.30480 0.14070 -0.40200
O 	O 	0.65620 0.27990 0.24180 -0.40200
O 	O 	0.12980 0.47050 0.30900 -0.42400
O 	O 	0.15720 0.53100 0.49720 -0.56900
O 	O 	0.01270 0.31430 0.60040 -0.51700
O 	O 	0.93000 0.28370 0.39890 -0.46600
Eu	Eu	0.89395 0.46632 0.32106 1.92500
