data_crystal

_cell_length_a 10.39230
_cell_length_b 11.29420
_cell_length_c 12.32820
_cell_angle_alpha 98.46400
_cell_angle_beta  109.47800
_cell_angle_gamma 102.78800

_symmetry_space_group_name_	'P 1'
_symmetry_space_group_name_H-M	'P 1'

loop_
_symmetry_equiv_pos_as_xyz
  x,y,z

loop_
_atom_site_label
_atom_site_type_symbol
_atom_site_fract_x
_atom_site_fract_y
_atom_site_fract_z
_atom_site_charge
Eu	Eu	0.39329 0.45384 0.82555 1.94700
O 	O 	0.16790 0.28110 0.74610 -0.41000
O 	O 	0.30990 0.27920 0.65070 -0.39100
O 	O 	0.62020 0.43460 0.81590 -0.41300
O 	O 	0.65070 0.51700 0.99840 -0.57900
O 	O 	0.43650 0.27880 0.90370 -0.46400
O 	O 	0.52020 0.32490 0.10120 -0.49800
C 	C 	0.19530 0.23070 0.66480 0.33600
C 	C 	0.09590 0.11000 0.58000 -0.07000
C 	C 	0.12690 0.05160 0.49160 -0.06600
H 	H 	0.21290 0.08620 0.48460 0.09600
C 	C 	0.96650 0.05870 0.58890 0.10400
C 	C 	0.70110 0.48150 0.92230 0.42300
C 	C 	0.85370 0.48940 0.96090 -0.13400
C 	C 	0.90600 0.42070 0.89050 0.12800
C 	C 	0.94800 0.56700 0.06980 -0.05600
H 	H 	0.91320 0.61190 0.11730 0.05900
C 	C 	0.48070 0.25190 0.00060 0.46600
C 	C 	0.49000 0.12100 0.99740 -0.12400
C 	C 	0.52770 0.08220 0.10280 -0.05600
H 	H 	0.54660 0.13850 0.17320 0.07600
C 	C 	0.46190 0.03670 0.89370 0.12100
C 	C 	0.43650 0.49200 0.56050 0.21700
C 	C 	0.54100 0.66400 0.57830 0.16500
N 	N 	0.90700 0.14900 0.63600 -0.08500
N 	N 	0.44200 0.06900 0.78060 -0.08800
N 	N 	0.82500 0.34100 0.78900 -0.09600
N 	N 	0.42950 0.54080 0.66490 -0.23600
N 	N 	0.50260 0.65830 0.67230 -0.09900
N 	N 	0.50000 0.55500 0.49700 -0.17200
N 	N 	0.66100 0.75000 0.57000 -0.10000
Eu	Eu	0.60671 0.54616 0.17445 1.94600
O 	O 	0.83210 0.71890 0.25390 -0.41100
O 	O 	0.69010 0.72080 0.34930 -0.39100
O 	O 	0.37980 0.56540 0.18410 -0.41300
O 	O 	0.34930 0.48300 0.00160 -0.57900
O 	O 	0.56350 0.72120 0.09630 -0.46400
O 	O 	0.47980 0.67510 0.89880 -0.49800
C 	C 	0.80470 0.76930 0.33520 0.33600
C 	C 	0.90410 0.89000 0.42000 -0.07000
C 	C 	0.87310 0.94840 0.50840 -0.06600
H 	H 	0.78710 0.91380 0.51540 0.09600
C 	C 	0.03350 0.94130 0.41110 0.10400
C 	C 	0.29890 0.51850 0.07770 0.42300
C 	C 	0.14630 0.51060 0.03910 -0.13400
C 	C 	0.09400 0.57930 0.10950 0.12800
C 	C 	0.05200 0.43300 0.93020 -0.05600
H 	H 	0.08680 0.38810 0.88270 0.05900
C 	C 	0.51930 0.74810 0.99940 0.46600
C 	C 	0.51000 0.87900 0.00260 -0.12400
C 	C 	0.47230 0.91780 0.89720 -0.05600
H 	H 	0.45340 0.86150 0.82680 0.07600
C 	C 	0.53810 0.96330 0.10630 0.12100
C 	C 	0.56350 0.50800 0.43950 0.21700
C 	C 	0.45900 0.33600 0.42170 0.16500
N 	N 	0.09300 0.85100 0.36400 -0.08500
N 	N 	0.55800 0.93100 0.21940 -0.08800
N 	N 	0.17500 0.65900 0.21100 -0.09600
N 	N 	0.57050 0.45920 0.33510 -0.23600
N 	N 	0.49740 0.34170 0.32770 -0.09900
N 	N 	0.50000 0.44500 0.50300 -0.17200
N 	N 	0.33900 0.25000 0.43000 -0.10000
