data_crystal

_cell_length_a 10.39120
_cell_length_b 11.33710
_cell_length_c 12.81680
_cell_angle_alpha 106.32200
_cell_angle_beta  98.73000
_cell_angle_gamma 103.04200

_symmetry_space_group_name_	'P 1'
_symmetry_space_group_name_H-M	'P 1'

loop_
_symmetry_equiv_pos_as_xyz
  x,y,z

loop_
_atom_site_label
_atom_site_type_symbol
_atom_site_fract_x
_atom_site_fract_y
_atom_site_fract_z
_atom_site_charge
Eu	Eu	0.47839 0.44500 0.33609 2.04900
C 	C 	0.48890 0.22790 0.16630 0.30200
C 	C 	0.49440 0.10920 0.07990 -0.10700
C 	C 	0.38130 0.03690 0.99600 -0.09200
H 	H 	0.30110 0.06060 0.99370 0.08000
C 	C 	0.61280 0.07190 0.08550 0.11300
C 	C 	0.23870 0.45360 0.42810 0.43200
C 	C 	0.11410 0.47730 0.46390 -0.12400
C 	C 	0.98710 0.42510 0.38870 0.12000
C 	C 	0.12600 0.55430 0.57380 -0.04200
H 	H 	0.21130 0.59200 0.62200 0.06200
C 	C 	0.49610 0.25440 0.49790 0.47600
C 	C 	0.49620 0.12230 0.49830 -0.12700
C 	C 	0.54530 0.10190 0.59860 -0.05000
H 	H 	0.57580 0.17090 0.66480 0.07000
C 	C 	0.45120 0.01690 0.39960 0.11500
C 	C 	0.63530 0.66220 0.22640 0.13500
H 	H 	0.70230 0.67050 0.18170 -0.00300
H 	H 	0.64280 0.74710 0.27550 -0.00000
C 	C 	0.49650 0.60690 0.15080 -0.10400
C 	C 	0.45840 0.65450 0.06310 0.31400
C 	C 	0.33320 0.60350 0.99710 -0.26300
H 	H 	0.30940 0.63450 0.93920 0.14000
C 	C 	0.23920 0.50700 0.01200 0.05600
H 	H 	0.15170 0.47230 0.96710 0.02000
C 	C 	0.28550 0.46320 0.10260 -0.01100
H 	H 	0.22540 0.39700 0.11510 0.04000
C 	C 	0.54000 0.75800 0.02870 -0.87100
H 	H 	0.62620 0.79740 0.08060 0.29800
H 	H 	0.49190 0.82120 0.02820 0.31000
H 	H 	0.55280 0.72160 0.95530 0.29700
N 	N 	0.71200 0.10800 0.17100 -0.10600
N 	N 	0.96780 0.35350 0.27850 -0.09300
N 	N 	0.38200 0.02400 0.29630 -0.09500
N 	N 	0.40830 0.51180 0.16830 -0.18600
O 	O 	0.37460 0.24640 0.17440 -0.40500
O 	O 	0.59650 0.30660 0.22870 -0.40700
O 	O 	0.23760 0.41100 0.32610 -0.44300
O 	O 	0.34650 0.47880 0.50230 -0.58100
O 	O 	0.46010 0.27100 0.40700 -0.48300
O 	O 	0.53270 0.34070 0.59170 -0.49600
O 	O 	0.66230 0.58870 0.28850 -0.34000
Eu	Eu	0.52161 0.55500 0.66391 2.04900
C 	C 	0.51110 0.77210 0.83370 0.30200
C 	C 	0.50560 0.89080 0.92010 -0.10700
C 	C 	0.61870 0.96310 0.00400 -0.09200
H 	H 	0.69890 0.93940 0.00630 0.08000
C 	C 	0.38720 0.92810 0.91450 0.11300
C 	C 	0.76130 0.54640 0.57190 0.43200
C 	C 	0.88590 0.52270 0.53610 -0.12400
C 	C 	0.01290 0.57490 0.61130 0.12000
C 	C 	0.87400 0.44570 0.42620 -0.04200
H 	H 	0.78870 0.40800 0.37800 0.06200
C 	C 	0.50390 0.74560 0.50210 0.47600
C 	C 	0.50380 0.87770 0.50170 -0.12700
C 	C 	0.45470 0.89810 0.40140 -0.05000
H 	H 	0.42420 0.82910 0.33520 0.07000
C 	C 	0.54880 0.98310 0.60040 0.11500
C 	C 	0.36470 0.33780 0.77360 0.13500
H 	H 	0.29770 0.32950 0.81830 -0.00300
H 	H 	0.35720 0.25290 0.72450 -0.00000
C 	C 	0.50350 0.39310 0.84920 -0.10400
C 	C 	0.54160 0.34550 0.93690 0.31400
C 	C 	0.66680 0.39650 0.00290 -0.26300
H 	H 	0.69060 0.36550 0.06080 0.14000
C 	C 	0.76080 0.49300 0.98800 0.05600
H 	H 	0.84830 0.52770 0.03290 0.02000
C 	C 	0.71450 0.53680 0.89740 -0.01100
H 	H 	0.77460 0.60300 0.88490 0.04000
C 	C 	0.46000 0.24200 0.97130 -0.87100
H 	H 	0.37380 0.20260 0.91940 0.29800
H 	H 	0.50810 0.17880 0.97180 0.31000
H 	H 	0.44720 0.27840 0.04470 0.29700
N 	N 	0.28800 0.89200 0.82900 -0.10600
N 	N 	0.03220 0.64650 0.72150 -0.09300
N 	N 	0.61800 0.97600 0.70370 -0.09500
N 	N 	0.59170 0.48820 0.83170 -0.18600
O 	O 	0.62540 0.75360 0.82560 -0.40500
O 	O 	0.40350 0.69340 0.77130 -0.40700
O 	O 	0.76240 0.58900 0.67390 -0.44300
O 	O 	0.65350 0.52120 0.49770 -0.58100
O 	O 	0.53990 0.72900 0.59300 -0.48300
O 	O 	0.46730 0.65930 0.40830 -0.49600
O 	O 	0.33770 0.41130 0.71150 -0.34000
