data_crystal

_cell_length_a 29.60240
_cell_length_b 13.47800
_cell_length_c 13.35240
_cell_angle_alpha 90.00000
_cell_angle_beta  96.59400
_cell_angle_gamma 90.00000

_symmetry_space_group_name_	'P 1'
_symmetry_space_group_name_H-M	'P 1'

loop_
_symmetry_equiv_pos_as_xyz
  x,y,z

loop_
_atom_site_label
_atom_site_type_symbol
_atom_site_fract_x
_atom_site_fract_y
_atom_site_fract_z
_atom_site_charge
Eu	Eu	0.81385 0.20291 0.54140 1.93000
C 	C 	0.89837 0.24030 0.46560 0.32600
C 	C 	0.94350 0.26170 0.43150 -0.11200
C 	C 	0.96010 0.35840 0.43690 0.04400
H 	H 	0.94230 0.40910 0.45880 0.03100
C 	C 	0.00310 0.38000 0.41010 -0.12700
H 	H 	0.01330 0.44530 0.41060 0.08500
C 	C 	0.03080 0.30360 0.38260 0.08700
C 	C 	0.01350 0.20710 0.37490 -0.13100
H 	H 	0.03130 0.15610 0.35360 0.08900
C 	C 	0.97010 0.18650 0.39890 0.05000
H 	H 	0.95890 0.12200 0.39310 0.03200
C 	C 	0.07820 0.32020 0.36330 -0.01700
H 	H 	0.09000 0.25900 0.33200 0.05200
C 	C 	0.24532 0.56950 0.44160 0.41900
C 	C 	0.21452 0.49560 0.38410 -0.12000
C 	C 	0.16891 0.48910 0.39740 -0.03600
H 	H 	0.15640 0.53250 0.44080 0.05100
C 	C 	0.14178 0.41690 0.34520 0.06200
C 	C 	0.16030 0.35730 0.27420 -0.02900
H 	H 	0.14210 0.31090 0.23710 0.06200
C 	C 	0.20545 0.36720 0.25910 -0.11600
C 	C 	0.23267 0.43550 0.31550 0.05100
H 	H 	0.26330 0.44080 0.30690 0.04100
C 	C 	0.22596 0.30570 0.18100 0.46000
C 	C 	0.85450 0.04600 0.75270 0.19000
C 	C 	0.87270 0.98190 0.62050 0.19100
N 	N 	0.09563 0.40920 0.36370 -0.11000
N 	N 	0.85466 0.06420 0.65380 -0.26500
N 	N 	0.87040 0.95600 0.77380 -0.16100
H 	H 	0.87400 0.92500 0.84200 0.13600
N 	N 	0.88250 0.91160 0.68950 -0.10300
N 	N 	0.84450 0.10890 0.82860 -0.12900
O 	O 	0.88261 0.15210 0.45930 -0.39400
O 	O 	0.87701 0.30870 0.50230 -0.43000
O 	O 	0.22942 0.64990 0.46970 -0.58000
O 	O 	0.28678 0.54940 0.45980 -0.43600
O 	O 	0.20018 0.24360 0.13310 -0.47100
O 	O 	0.26635 0.32360 0.16960 -0.51000
N 	N 	0.88800 0.96030 0.53010 -0.11700
Eu	Eu	0.31385 0.70291 0.54140 1.93200
C 	C 	0.39837 0.74030 0.46560 0.32700
C 	C 	0.44350 0.76170 0.43150 -0.11100
C 	C 	0.46010 0.85840 0.43690 0.04500
H 	H 	0.44230 0.90910 0.45880 0.03100
C 	C 	0.50310 0.88000 0.41010 -0.12600
H 	H 	0.51330 0.94530 0.41060 0.08500
C 	C 	0.53080 0.80360 0.38260 0.08700
C 	C 	0.51350 0.70710 0.37490 -0.13100
H 	H 	0.53130 0.65610 0.35360 0.08900
C 	C 	0.47010 0.68650 0.39890 0.05000
H 	H 	0.45890 0.62200 0.39310 0.03200
C 	C 	0.57820 0.82020 0.36330 -0.01700
H 	H 	0.59000 0.75900 0.33200 0.05200
C 	C 	0.74532 0.06950 0.44160 0.41900
C 	C 	0.71452 0.99560 0.38410 -0.12000
C 	C 	0.66891 0.98910 0.39740 -0.03600
H 	H 	0.65640 0.03250 0.44080 0.05100
C 	C 	0.64178 0.91690 0.34520 0.06200
C 	C 	0.66030 0.85730 0.27420 -0.02900
H 	H 	0.64210 0.81090 0.23710 0.06200
C 	C 	0.70545 0.86720 0.25910 -0.11700
C 	C 	0.73267 0.93550 0.31550 0.05100
H 	H 	0.76330 0.94080 0.30690 0.04100
C 	C 	0.72596 0.80570 0.18100 0.46000
C 	C 	0.35450 0.54600 0.75270 0.19100
C 	C 	0.37270 0.48190 0.62050 0.19000
N 	N 	0.59563 0.90920 0.36370 -0.11100
N 	N 	0.35466 0.56420 0.65380 -0.26400
N 	N 	0.37040 0.45600 0.77380 -0.16100
H 	H 	0.37400 0.42500 0.84200 0.13600
N 	N 	0.38250 0.41160 0.68950 -0.10300
N 	N 	0.34450 0.60890 0.82860 -0.12800
O 	O 	0.38261 0.65210 0.45930 -0.39400
O 	O 	0.37701 0.80870 0.50230 -0.43000
O 	O 	0.72942 0.14990 0.46970 -0.58100
O 	O 	0.78678 0.04940 0.45980 -0.43600
O 	O 	0.70018 0.74360 0.13310 -0.47100
O 	O 	0.76635 0.82360 0.16960 -0.51000
N 	N 	0.38800 0.46030 0.53010 -0.11600
Eu	Eu	0.18615 0.20291 0.95860 1.92900
C 	C 	0.10163 0.24030 0.03440 0.32800
C 	C 	0.05650 0.26170 0.06850 -0.11100
C 	C 	0.03990 0.35840 0.06310 0.04600
H 	H 	0.05770 0.40910 0.04120 0.03100
C 	C 	0.99690 0.38000 0.08990 -0.12700
H 	H 	0.98670 0.44530 0.08940 0.08500
C 	C 	0.96920 0.30360 0.11740 0.08700
C 	C 	0.98650 0.20710 0.12510 -0.13200
H 	H 	0.96870 0.15610 0.14640 0.09000
C 	C 	0.02990 0.18650 0.10110 0.05000
H 	H 	0.04110 0.12200 0.10690 0.03200
C 	C 	0.92180 0.32020 0.13670 -0.01700
H 	H 	0.91000 0.25900 0.16800 0.05200
C 	C 	0.75468 0.56950 0.05840 0.41900
C 	C 	0.78548 0.49560 0.11590 -0.12000
C 	C 	0.83109 0.48910 0.10260 -0.03600
H 	H 	0.84360 0.53250 0.05920 0.05100
C 	C 	0.85822 0.41690 0.15480 0.06200
C 	C 	0.83970 0.35730 0.22580 -0.02900
H 	H 	0.85790 0.31090 0.26290 0.06200
C 	C 	0.79455 0.36720 0.24090 -0.11600
C 	C 	0.76733 0.43550 0.18450 0.05100
H 	H 	0.73670 0.44080 0.19310 0.04100
C 	C 	0.77404 0.30570 0.31900 0.46000
C 	C 	0.14550 0.04600 0.74730 0.19000
C 	C 	0.12730 0.98190 0.87950 0.19100
N 	N 	0.90437 0.40920 0.13630 -0.11000
N 	N 	0.14534 0.06420 0.84620 -0.26500
N 	N 	0.12960 0.95600 0.72620 -0.16100
H 	H 	0.12600 0.92500 0.65800 0.13600
N 	N 	0.11750 0.91160 0.81050 -0.10300
N 	N 	0.15550 0.10890 0.67140 -0.12800
O 	O 	0.11739 0.15210 0.04070 -0.39400
O 	O 	0.12299 0.30870 0.99770 -0.43000
O 	O 	0.77058 0.64990 0.03030 -0.58100
O 	O 	0.71322 0.54940 0.04020 -0.43600
O 	O 	0.79982 0.24360 0.36690 -0.47100
O 	O 	0.73365 0.32360 0.33040 -0.51000
N 	N 	0.11200 0.96030 0.96990 -0.11600
Eu	Eu	0.68615 0.70291 0.95860 1.93300
C 	C 	0.60163 0.74030 0.03440 0.32500
C 	C 	0.55650 0.76170 0.06850 -0.11000
C 	C 	0.53990 0.85840 0.06310 0.04500
H 	H 	0.55770 0.90910 0.04120 0.03100
C 	C 	0.49690 0.88000 0.08990 -0.12600
H 	H 	0.48670 0.94530 0.08940 0.08400
C 	C 	0.46920 0.80360 0.11740 0.08600
C 	C 	0.48650 0.70710 0.12510 -0.13100
H 	H 	0.46870 0.65610 0.14640 0.08900
C 	C 	0.52990 0.68650 0.10110 0.04900
H 	H 	0.54110 0.62200 0.10690 0.03200
C 	C 	0.42180 0.82020 0.13670 -0.01600
H 	H 	0.41000 0.75900 0.16800 0.05200
C 	C 	0.25468 0.06950 0.05840 0.42000
C 	C 	0.28548 0.99560 0.11590 -0.12100
C 	C 	0.33109 0.98910 0.10260 -0.03900
H 	H 	0.34360 0.03250 0.05920 0.05300
C 	C 	0.35822 0.91690 0.15480 0.06300
C 	C 	0.33970 0.85730 0.22580 -0.03000
H 	H 	0.35790 0.81090 0.26290 0.06200
C 	C 	0.29455 0.86720 0.24090 -0.11600
C 	C 	0.26733 0.93550 0.18450 0.05100
H 	H 	0.23670 0.94080 0.19310 0.04100
C 	C 	0.27404 0.80570 0.31900 0.46000
C 	C 	0.64550 0.54600 0.74730 0.19100
C 	C 	0.62730 0.48190 0.87950 0.19000
N 	N 	0.40437 0.90920 0.13630 -0.11100
N 	N 	0.64534 0.56420 0.84620 -0.26500
N 	N 	0.62960 0.45600 0.72620 -0.16100
H 	H 	0.62600 0.42500 0.65800 0.13600
N 	N 	0.61750 0.41160 0.81050 -0.10300
N 	N 	0.65550 0.60890 0.67140 -0.12800
O 	O 	0.61739 0.65210 0.04070 -0.39400
O 	O 	0.62299 0.80870 0.99770 -0.42800
O 	O 	0.27058 0.14990 0.03030 -0.58000
O 	O 	0.21322 0.04940 0.04020 -0.43500
O 	O 	0.29982 0.74360 0.36690 -0.47100
O 	O 	0.23365 0.82360 0.33040 -0.51000
N 	N 	0.61200 0.46030 0.96990 -0.11600
Eu	Eu	0.18615 0.79709 0.45860 1.93100
C 	C 	0.10163 0.75970 0.53440 0.32700
C 	C 	0.05650 0.73830 0.56850 -0.11100
C 	C 	0.03990 0.64160 0.56310 0.04500
H 	H 	0.05770 0.59090 0.54120 0.03100
C 	C 	0.99690 0.62000 0.58990 -0.12700
H 	H 	0.98670 0.55470 0.58940 0.08500
C 	C 	0.96920 0.69640 0.61740 0.08700
C 	C 	0.98650 0.79290 0.62510 -0.13100
H 	H 	0.96870 0.84390 0.64640 0.08900
C 	C 	0.02990 0.81350 0.60110 0.05000
H 	H 	0.04110 0.87800 0.60690 0.03200
C 	C 	0.92180 0.67980 0.63670 -0.01700
H 	H 	0.91000 0.74100 0.66800 0.05200
C 	C 	0.75468 0.43050 0.55840 0.41900
C 	C 	0.78548 0.50440 0.61590 -0.12000
C 	C 	0.83109 0.51090 0.60260 -0.03600
H 	H 	0.84360 0.46750 0.55920 0.05100
C 	C 	0.85822 0.58310 0.65480 0.06200
C 	C 	0.83970 0.64270 0.72580 -0.02900
H 	H 	0.85790 0.68910 0.76290 0.06200
C 	C 	0.79455 0.63280 0.74090 -0.11600
C 	C 	0.76733 0.56450 0.68450 0.05100
H 	H 	0.73670 0.55920 0.69310 0.04100
C 	C 	0.77404 0.69430 0.81900 0.46000
C 	C 	0.14550 0.95400 0.24730 0.19000
C 	C 	0.12730 0.01810 0.37950 0.19100
N 	N 	0.90437 0.59080 0.63630 -0.11000
N 	N 	0.14534 0.93580 0.34620 -0.26500
N 	N 	0.12960 0.04400 0.22620 -0.16100
H 	H 	0.12600 0.07500 0.15800 0.13600
N 	N 	0.11750 0.08840 0.31050 -0.10300
N 	N 	0.15550 0.89110 0.17140 -0.12900
O 	O 	0.11739 0.84790 0.54070 -0.39400
O 	O 	0.12299 0.69130 0.49770 -0.43000
O 	O 	0.77058 0.35010 0.53030 -0.58000
O 	O 	0.71322 0.45060 0.54020 -0.43600
O 	O 	0.79982 0.75640 0.86690 -0.47100
O 	O 	0.73365 0.67640 0.83040 -0.51000
N 	N 	0.11200 0.03970 0.46990 -0.11700
Eu	Eu	0.68615 0.29709 0.45860 1.93200
C 	C 	0.60163 0.25970 0.53440 0.32700
C 	C 	0.55650 0.23830 0.56850 -0.11100
C 	C 	0.53990 0.14160 0.56310 0.04500
H 	H 	0.55770 0.09090 0.54120 0.03100
C 	C 	0.49690 0.12000 0.58990 -0.12600
H 	H 	0.48670 0.05470 0.58940 0.08500
C 	C 	0.46920 0.19640 0.61740 0.08700
C 	C 	0.48650 0.29290 0.62510 -0.13100
H 	H 	0.46870 0.34390 0.64640 0.08900
C 	C 	0.52990 0.31350 0.60110 0.05000
H 	H 	0.54110 0.37800 0.60690 0.03200
C 	C 	0.42180 0.17980 0.63670 -0.01700
H 	H 	0.41000 0.24100 0.66800 0.05200
C 	C 	0.25468 0.93050 0.55840 0.41900
C 	C 	0.28548 0.00440 0.61590 -0.12000
C 	C 	0.33109 0.01090 0.60260 -0.03600
H 	H 	0.34360 0.96750 0.55920 0.05100
C 	C 	0.35822 0.08310 0.65480 0.06200
C 	C 	0.33970 0.14270 0.72580 -0.02900
H 	H 	0.35790 0.18910 0.76290 0.06200
C 	C 	0.29455 0.13280 0.74090 -0.11700
C 	C 	0.26733 0.06450 0.68450 0.05100
H 	H 	0.23670 0.05920 0.69310 0.04100
C 	C 	0.27404 0.19430 0.81900 0.46000
C 	C 	0.64550 0.45400 0.24730 0.19100
C 	C 	0.62730 0.51810 0.37950 0.19000
N 	N 	0.40437 0.09080 0.63630 -0.11100
N 	N 	0.64534 0.43580 0.34620 -0.26400
N 	N 	0.62960 0.54400 0.22620 -0.16100
H 	H 	0.62600 0.57500 0.15800 0.13600
N 	N 	0.61750 0.58840 0.31050 -0.10300
N 	N 	0.65550 0.39110 0.17140 -0.12800
O 	O 	0.61739 0.34790 0.54070 -0.39400
O 	O 	0.62299 0.19130 0.49770 -0.43000
O 	O 	0.27058 0.85010 0.53030 -0.58100
O 	O 	0.21322 0.95060 0.54020 -0.43600
O 	O 	0.29982 0.25640 0.86690 -0.47100
O 	O 	0.23365 0.17640 0.83040 -0.51000
N 	N 	0.61200 0.53970 0.46990 -0.11600
Eu	Eu	0.81385 0.79709 0.04140 1.92900
C 	C 	0.89837 0.75970 0.96560 0.32800
C 	C 	0.94350 0.73830 0.93150 -0.11100
C 	C 	0.96010 0.64160 0.93690 0.04600
H 	H 	0.94230 0.59090 0.95880 0.03100
C 	C 	0.00310 0.62000 0.91010 -0.12700
H 	H 	0.01330 0.55470 0.91060 0.08500
C 	C 	0.03080 0.69640 0.88260 0.08700
C 	C 	0.01350 0.79290 0.87490 -0.13200
H 	H 	0.03130 0.84390 0.85360 0.09000
C 	C 	0.97010 0.81350 0.89890 0.05000
H 	H 	0.95890 0.87800 0.89310 0.03200
C 	C 	0.07820 0.67980 0.86330 -0.01700
H 	H 	0.09000 0.74100 0.83200 0.05200
C 	C 	0.24532 0.43050 0.94160 0.41900
C 	C 	0.21452 0.50440 0.88410 -0.12000
C 	C 	0.16891 0.51090 0.89740 -0.03600
H 	H 	0.15640 0.46750 0.94080 0.05100
C 	C 	0.14178 0.58310 0.84520 0.06200
C 	C 	0.16030 0.64270 0.77420 -0.02900
H 	H 	0.14210 0.68910 0.73710 0.06200
C 	C 	0.20545 0.63280 0.75910 -0.11600
C 	C 	0.23267 0.56450 0.81550 0.05100
H 	H 	0.26330 0.55920 0.80690 0.04100
C 	C 	0.22596 0.69430 0.68100 0.46000
C 	C 	0.85450 0.95400 0.25270 0.19000
C 	C 	0.87270 0.01810 0.12050 0.19100
N 	N 	0.09563 0.59080 0.86370 -0.11000
N 	N 	0.85466 0.93580 0.15380 -0.26500
N 	N 	0.87040 0.04400 0.27380 -0.16100
H 	H 	0.87400 0.07500 0.34200 0.13600
N 	N 	0.88250 0.08840 0.18950 -0.10300
N 	N 	0.84450 0.89110 0.32860 -0.12800
O 	O 	0.88261 0.84790 0.95930 -0.39400
O 	O 	0.87701 0.69130 0.00230 -0.43000
O 	O 	0.22942 0.35010 0.96970 -0.58100
O 	O 	0.28678 0.45060 0.95980 -0.43600
O 	O 	0.20018 0.75640 0.63310 -0.47100
O 	O 	0.26635 0.67640 0.66960 -0.51000
N 	N 	0.88800 0.03970 0.03010 -0.11600
Eu	Eu	0.31385 0.29709 0.04140 1.93300
C 	C 	0.39837 0.25970 0.96560 0.32500
C 	C 	0.44350 0.23830 0.93150 -0.11000
C 	C 	0.46010 0.14160 0.93690 0.04500
H 	H 	0.44230 0.09090 0.95880 0.03100
C 	C 	0.50310 0.12000 0.91010 -0.12600
H 	H 	0.51330 0.05470 0.91060 0.08400
C 	C 	0.53080 0.19640 0.88260 0.08600
C 	C 	0.51350 0.29290 0.87490 -0.13100
H 	H 	0.53130 0.34390 0.85360 0.08900
C 	C 	0.47010 0.31350 0.89890 0.04900
H 	H 	0.45890 0.37800 0.89310 0.03200
C 	C 	0.57820 0.17980 0.86330 -0.01600
H 	H 	0.59000 0.24100 0.83200 0.05200
C 	C 	0.74532 0.93050 0.94160 0.42000
C 	C 	0.71452 0.00440 0.88410 -0.12100
C 	C 	0.66891 0.01090 0.89740 -0.03900
H 	H 	0.65640 0.96750 0.94080 0.05300
C 	C 	0.64178 0.08310 0.84520 0.06300
C 	C 	0.66030 0.14270 0.77420 -0.03000
H 	H 	0.64210 0.18910 0.73710 0.06200
C 	C 	0.70545 0.13280 0.75910 -0.11600
C 	C 	0.73267 0.06450 0.81550 0.05100
H 	H 	0.76330 0.05920 0.80690 0.04100
C 	C 	0.72596 0.19430 0.68100 0.46000
C 	C 	0.35450 0.45400 0.25270 0.19100
C 	C 	0.37270 0.51810 0.12050 0.19000
N 	N 	0.59563 0.09080 0.86370 -0.11100
N 	N 	0.35466 0.43580 0.15380 -0.26500
N 	N 	0.37040 0.54400 0.27380 -0.16100
H 	H 	0.37400 0.57500 0.34200 0.13600
N 	N 	0.38250 0.58840 0.18950 -0.10300
N 	N 	0.34450 0.39110 0.32860 -0.12800
O 	O 	0.38261 0.34790 0.95930 -0.39400
O 	O 	0.37701 0.19130 0.00230 -0.42800
O 	O 	0.72942 0.85010 0.96970 -0.58000
O 	O 	0.78678 0.95060 0.95980 -0.43500
O 	O 	0.70018 0.25640 0.63310 -0.47100
O 	O 	0.76635 0.17640 0.66960 -0.51000
N 	N 	0.38800 0.53970 0.03010 -0.11600
