data_crystal

_cell_length_a 28.73500
_cell_length_b 14.21120
_cell_length_c 14.33220
_cell_angle_alpha 90.00000
_cell_angle_beta  95.12600
_cell_angle_gamma 90.00000

_symmetry_space_group_name_	'P 1'
_symmetry_space_group_name_H-M	'P 1'

loop_
_symmetry_equiv_pos_as_xyz
  x,y,z

loop_
_atom_site_label
_atom_site_type_symbol
_atom_site_fract_x
_atom_site_fract_y
_atom_site_fract_z
_atom_site_charge
Eu	Eu	0.31478 0.19578 0.52389 1.83700
C 	C 	0.40240 0.25350 0.46980 0.35100
C 	C 	0.44610 0.28660 0.43140 -0.13200
C 	C 	0.47340 0.22350 0.39030 0.06700
H 	H 	0.46340 0.16170 0.38080 0.01200
C 	C 	0.51640 0.25200 0.36250 -0.15600
H 	H 	0.53630 0.20730 0.34050 0.07800
C 	C 	0.52970 0.34270 0.36680 0.09800
C 	C 	0.50230 0.40640 0.40240 -0.14700
H 	H 	0.51130 0.46920 0.40460 0.09000
C 	C 	0.45950 0.38000 0.43710 0.06000
H 	H 	0.44080 0.42460 0.46310 0.02200
C 	C 	0.57650 0.37090 0.33400 -0.00900
H 	H 	0.59400 0.31600 0.35400 0.03300
C 	C 	0.74390 0.60290 0.39220 0.41100
C 	C 	0.71240 0.53880 0.33380 -0.13400
C 	C 	0.66550 0.53030 0.34950 -0.03400
H 	H 	0.65270 0.57150 0.39070 0.05100
C 	C 	0.63770 0.46240 0.30550 0.05600
C 	C 	0.65580 0.40800 0.23600 -0.02900
H 	H 	0.63680 0.36460 0.20240 0.05800
C 	C 	0.70230 0.41830 0.21660 -0.13200
C 	C 	0.73050 0.48290 0.26670 0.06000
H 	H 	0.76170 0.48880 0.25530 0.01700
C 	C 	0.72190 0.35500 0.14540 0.45800
N 	N 	0.59180 0.44980 0.33310 -0.11500
O 	O 	0.38150 0.30800 0.52190 -0.41800
O 	O 	0.38760 0.17370 0.45080 -0.44300
O 	O 	0.78710 0.58510 0.40290 -0.45500
O 	O 	0.72700 0.67210 0.43400 -0.55900
O 	O 	0.76230 0.37310 0.12380 -0.51900
O 	O 	0.69580 0.28990 0.11210 -0.47300
Eu	Eu	0.81478 0.69578 0.52389 1.83600
C 	C 	0.90240 0.75350 0.46980 0.35000
C 	C 	0.94610 0.78660 0.43140 -0.13300
C 	C 	0.97340 0.72350 0.39030 0.06500
H 	H 	0.96340 0.66170 0.38080 0.01200
C 	C 	0.01640 0.75200 0.36250 -0.15500
H 	H 	0.03630 0.70730 0.34050 0.07800
C 	C 	0.02970 0.84270 0.36680 0.09700
C 	C 	0.00230 0.90640 0.40240 -0.14700
H 	H 	0.01130 0.96920 0.40460 0.09000
C 	C 	0.95950 0.88000 0.43710 0.06000
H 	H 	0.94080 0.92460 0.46310 0.02200
C 	C 	0.07650 0.87090 0.33400 -0.00900
H 	H 	0.09400 0.81600 0.35400 0.03300
C 	C 	0.24390 0.10290 0.39220 0.41100
C 	C 	0.21240 0.03880 0.33380 -0.13300
C 	C 	0.16550 0.03030 0.34950 -0.03300
H 	H 	0.15270 0.07150 0.39070 0.05100
C 	C 	0.13770 0.96240 0.30550 0.05500
C 	C 	0.15580 0.90800 0.23600 -0.02900
H 	H 	0.13680 0.86460 0.20240 0.05800
C 	C 	0.20230 0.91830 0.21660 -0.13200
C 	C 	0.23050 0.98290 0.26670 0.05900
H 	H 	0.26170 0.98880 0.25530 0.01700
C 	C 	0.22190 0.85500 0.14540 0.45800
N 	N 	0.09180 0.94980 0.33310 -0.11500
O 	O 	0.88150 0.80800 0.52190 -0.41800
O 	O 	0.88760 0.67370 0.45080 -0.44300
O 	O 	0.28710 0.08510 0.40290 -0.45500
O 	O 	0.22700 0.17210 0.43400 -0.55900
O 	O 	0.26230 0.87310 0.12380 -0.51900
O 	O 	0.19580 0.78990 0.11210 -0.47400
Eu	Eu	0.68522 0.19578 0.97611 1.83300
C 	C 	0.59760 0.25350 0.03020 0.35100
C 	C 	0.55390 0.28660 0.06860 -0.13400
C 	C 	0.52660 0.22350 0.10970 0.06600
H 	H 	0.53660 0.16170 0.11920 0.01200
C 	C 	0.48360 0.25200 0.13750 -0.15600
H 	H 	0.46370 0.20730 0.15950 0.07900
C 	C 	0.47030 0.34270 0.13320 0.09800
C 	C 	0.49770 0.40640 0.09760 -0.14700
H 	H 	0.48870 0.46920 0.09540 0.09000
C 	C 	0.54050 0.38000 0.06290 0.06100
H 	H 	0.55920 0.42460 0.03690 0.02200
C 	C 	0.42350 0.37090 0.16600 -0.00900
H 	H 	0.40600 0.31600 0.14600 0.03300
C 	C 	0.25610 0.60290 0.10780 0.41100
C 	C 	0.28760 0.53880 0.16620 -0.13400
C 	C 	0.33450 0.53030 0.15050 -0.03400
H 	H 	0.34730 0.57150 0.10930 0.05100
C 	C 	0.36230 0.46240 0.19450 0.05600
C 	C 	0.34420 0.40800 0.26400 -0.02900
H 	H 	0.36320 0.36460 0.29760 0.05800
C 	C 	0.29770 0.41830 0.28340 -0.13200
C 	C 	0.26950 0.48290 0.23330 0.06000
H 	H 	0.23830 0.48880 0.24470 0.01700
C 	C 	0.27810 0.35500 0.35460 0.45800
N 	N 	0.40820 0.44980 0.16690 -0.11500
O 	O 	0.61850 0.30800 0.97810 -0.41900
O 	O 	0.61240 0.17370 0.04920 -0.44200
O 	O 	0.21290 0.58510 0.09710 -0.45500
O 	O 	0.27300 0.67210 0.06600 -0.55900
O 	O 	0.23770 0.37310 0.37620 -0.51900
O 	O 	0.30420 0.28990 0.38790 -0.47300
Eu	Eu	0.18522 0.69578 0.97611 1.83800
C 	C 	0.09760 0.75350 0.03020 0.34800
C 	C 	0.05390 0.78660 0.06860 -0.13300
C 	C 	0.02660 0.72350 0.10970 0.06600
H 	H 	0.03660 0.66170 0.11920 0.01200
C 	C 	0.98360 0.75200 0.13750 -0.15600
H 	H 	0.96370 0.70730 0.15950 0.07900
C 	C 	0.97030 0.84270 0.13320 0.09800
C 	C 	0.99770 0.90640 0.09760 -0.14800
H 	H 	0.98870 0.96920 0.09540 0.09000
C 	C 	0.04050 0.88000 0.06290 0.06100
H 	H 	0.05920 0.92460 0.03690 0.02200
C 	C 	0.92350 0.87090 0.16600 -0.01000
H 	H 	0.90600 0.81600 0.14600 0.03300
C 	C 	0.75610 0.10290 0.10780 0.41100
C 	C 	0.78760 0.03880 0.16620 -0.13300
C 	C 	0.83450 0.03030 0.15050 -0.03200
H 	H 	0.84730 0.07150 0.10930 0.05100
C 	C 	0.86230 0.96240 0.19450 0.05400
C 	C 	0.84420 0.90800 0.26400 -0.02900
H 	H 	0.86320 0.86460 0.29760 0.05800
C 	C 	0.79770 0.91830 0.28340 -0.13200
C 	C 	0.76950 0.98290 0.23330 0.05800
H 	H 	0.73830 0.98880 0.24470 0.01700
C 	C 	0.77810 0.85500 0.35460 0.45800
N 	N 	0.90820 0.94980 0.16690 -0.11500
O 	O 	0.11850 0.80800 0.97810 -0.41600
O 	O 	0.11240 0.67370 0.04920 -0.44300
O 	O 	0.71290 0.08510 0.09710 -0.45400
O 	O 	0.77300 0.17210 0.06600 -0.55900
O 	O 	0.73770 0.87310 0.37620 -0.51900
O 	O 	0.80420 0.78990 0.38790 -0.47400
Eu	Eu	0.68522 0.80422 0.47611 1.83600
C 	C 	0.59760 0.74650 0.53020 0.35000
C 	C 	0.55390 0.71340 0.56860 -0.13300
C 	C 	0.52660 0.77650 0.60970 0.06600
H 	H 	0.53660 0.83830 0.61920 0.01200
C 	C 	0.48360 0.74800 0.63750 -0.15600
H 	H 	0.46370 0.79270 0.65950 0.07800
C 	C 	0.47030 0.65730 0.63320 0.09800
C 	C 	0.49770 0.59360 0.59760 -0.14700
H 	H 	0.48870 0.53080 0.59540 0.09000
C 	C 	0.54050 0.62000 0.56290 0.06000
H 	H 	0.55920 0.57540 0.53690 0.02200
C 	C 	0.42350 0.62910 0.66600 -0.00900
H 	H 	0.40600 0.68400 0.64600 0.03300
C 	C 	0.25610 0.39710 0.60780 0.41100
C 	C 	0.28760 0.46120 0.66620 -0.13400
C 	C 	0.33450 0.46970 0.65050 -0.03400
H 	H 	0.34730 0.42850 0.60930 0.05100
C 	C 	0.36230 0.53760 0.69450 0.05600
C 	C 	0.34420 0.59200 0.76400 -0.02900
H 	H 	0.36320 0.63540 0.79760 0.05800
C 	C 	0.29770 0.58170 0.78340 -0.13200
C 	C 	0.26950 0.51710 0.73330 0.06000
H 	H 	0.23830 0.51120 0.74470 0.01700
C 	C 	0.27810 0.64500 0.85460 0.45800
N 	N 	0.40820 0.55020 0.66690 -0.11500
O 	O 	0.61850 0.69200 0.47810 -0.41800
O 	O 	0.61240 0.82630 0.54920 -0.44300
O 	O 	0.21290 0.41490 0.59710 -0.45500
O 	O 	0.27300 0.32790 0.56600 -0.55900
O 	O 	0.23770 0.62690 0.87620 -0.51900
O 	O 	0.30420 0.71010 0.88790 -0.47300
Eu	Eu	0.18522 0.30422 0.47611 1.83600
C 	C 	0.09760 0.24650 0.53020 0.35000
C 	C 	0.05390 0.21340 0.56860 -0.13300
C 	C 	0.02660 0.27650 0.60970 0.06500
H 	H 	0.03660 0.33830 0.61920 0.01200
C 	C 	0.98360 0.24800 0.63750 -0.15500
H 	H 	0.96370 0.29270 0.65950 0.07800
C 	C 	0.97030 0.15730 0.63320 0.09700
C 	C 	0.99770 0.09360 0.59760 -0.14700
H 	H 	0.98870 0.03080 0.59540 0.09000
C 	C 	0.04050 0.12000 0.56290 0.06000
H 	H 	0.05920 0.07540 0.53690 0.02200
C 	C 	0.92350 0.12910 0.66600 -0.00900
H 	H 	0.90600 0.18400 0.64600 0.03300
C 	C 	0.75610 0.89710 0.60780 0.41100
C 	C 	0.78760 0.96120 0.66620 -0.13300
C 	C 	0.83450 0.96970 0.65050 -0.03300
H 	H 	0.84730 0.92850 0.60930 0.05100
C 	C 	0.86230 0.03760 0.69450 0.05500
C 	C 	0.84420 0.09200 0.76400 -0.02900
H 	H 	0.86320 0.13540 0.79760 0.05800
C 	C 	0.79770 0.08170 0.78340 -0.13200
C 	C 	0.76950 0.01710 0.73330 0.05900
H 	H 	0.73830 0.01120 0.74470 0.01700
C 	C 	0.77810 0.14500 0.85460 0.45800
N 	N 	0.90820 0.05020 0.66690 -0.11500
O 	O 	0.11850 0.19200 0.47810 -0.41800
O 	O 	0.11240 0.32630 0.54920 -0.44300
O 	O 	0.71290 0.91490 0.59710 -0.45500
O 	O 	0.77300 0.82790 0.56600 -0.55900
O 	O 	0.73770 0.12690 0.87620 -0.51900
O 	O 	0.80420 0.21010 0.88790 -0.47400
Eu	Eu	0.31478 0.80422 0.02389 1.83300
C 	C 	0.40240 0.74650 0.96980 0.35100
C 	C 	0.44610 0.71340 0.93140 -0.13400
C 	C 	0.47340 0.77650 0.89030 0.06600
H 	H 	0.46340 0.83830 0.88080 0.01200
C 	C 	0.51640 0.74800 0.86250 -0.15600
H 	H 	0.53630 0.79270 0.84050 0.07900
C 	C 	0.52970 0.65730 0.86680 0.09800
C 	C 	0.50230 0.59360 0.90240 -0.14700
H 	H 	0.51130 0.53080 0.90460 0.09000
C 	C 	0.45950 0.62000 0.93710 0.06100
H 	H 	0.44080 0.57540 0.96310 0.02200
C 	C 	0.57650 0.62910 0.83400 -0.00900
H 	H 	0.59400 0.68400 0.85400 0.03300
C 	C 	0.74390 0.39710 0.89220 0.41100
C 	C 	0.71240 0.46120 0.83380 -0.13400
C 	C 	0.66550 0.46970 0.84950 -0.03400
H 	H 	0.65270 0.42850 0.89070 0.05100
C 	C 	0.63770 0.53760 0.80550 0.05600
C 	C 	0.65580 0.59200 0.73600 -0.02900
H 	H 	0.63680 0.63540 0.70240 0.05800
C 	C 	0.70230 0.58170 0.71660 -0.13200
C 	C 	0.73050 0.51710 0.76670 0.06000
H 	H 	0.76170 0.51120 0.75530 0.01700
C 	C 	0.72190 0.64500 0.64540 0.45800
N 	N 	0.59180 0.55020 0.83310 -0.11500
O 	O 	0.38150 0.69200 0.02190 -0.41900
O 	O 	0.38760 0.82630 0.95080 -0.44200
O 	O 	0.78710 0.41490 0.90290 -0.45500
O 	O 	0.72700 0.32790 0.93400 -0.55900
O 	O 	0.76230 0.62690 0.62380 -0.51900
O 	O 	0.69580 0.71010 0.61210 -0.47300
Eu	Eu	0.81478 0.30422 0.02389 1.83800
C 	C 	0.90240 0.24650 0.96980 0.34800
C 	C 	0.94610 0.21340 0.93140 -0.13300
C 	C 	0.97340 0.27650 0.89030 0.06600
H 	H 	0.96340 0.33830 0.88080 0.01200
C 	C 	0.01640 0.24800 0.86250 -0.15600
H 	H 	0.03630 0.29270 0.84050 0.07900
C 	C 	0.02970 0.15730 0.86680 0.09800
C 	C 	0.00230 0.09360 0.90240 -0.14800
H 	H 	0.01130 0.03080 0.90460 0.09000
C 	C 	0.95950 0.12000 0.93710 0.06100
H 	H 	0.94080 0.07540 0.96310 0.02200
C 	C 	0.07650 0.12910 0.83400 -0.01000
H 	H 	0.09400 0.18400 0.85400 0.03300
C 	C 	0.24390 0.89710 0.89220 0.41100
C 	C 	0.21240 0.96120 0.83380 -0.13300
C 	C 	0.16550 0.96970 0.84950 -0.03200
H 	H 	0.15270 0.92850 0.89070 0.05100
C 	C 	0.13770 0.03760 0.80550 0.05400
C 	C 	0.15580 0.09200 0.73600 -0.02900
H 	H 	0.13680 0.13540 0.70240 0.05800
C 	C 	0.20230 0.08170 0.71660 -0.13200
C 	C 	0.23050 0.01710 0.76670 0.05800
H 	H 	0.26170 0.01120 0.75530 0.01700
C 	C 	0.22190 0.14500 0.64540 0.45800
N 	N 	0.09180 0.05020 0.83310 -0.11500
O 	O 	0.88150 0.19200 0.02190 -0.41600
O 	O 	0.88760 0.32630 0.95080 -0.44300
O 	O 	0.28710 0.91490 0.90290 -0.45400
O 	O 	0.22700 0.82790 0.93400 -0.55900
O 	O 	0.26230 0.12690 0.62380 -0.51900
O 	O 	0.19580 0.21010 0.61210 -0.47400
