data_crystal

_cell_length_a 29.70500
_cell_length_b 12.96990
_cell_length_c 13.82850
_cell_angle_alpha 90.00000
_cell_angle_beta  95.24700
_cell_angle_gamma 90.00000

_symmetry_space_group_name_	'P 1'
_symmetry_space_group_name_H-M	'P 1'

loop_
_symmetry_equiv_pos_as_xyz
  x,y,z

loop_
_atom_site_label
_atom_site_type_symbol
_atom_site_fract_x
_atom_site_fract_y
_atom_site_fract_z
_atom_site_charge
Eu	Eu	0.31438 0.80006 0.03656 1.86000
C 	C 	0.60264 0.75520 0.53910 0.30300
C 	C 	0.55650 0.73430 0.56840 -0.11300
C 	C 	0.54185 0.63390 0.57970 0.03700
H 	H 	0.56150 0.57940 0.57110 0.02900
C 	C 	0.49846 0.61350 0.60360 -0.12400
H 	H 	0.48900 0.54570 0.61070 0.07800
C 	C 	0.52668 0.81480 0.58100 0.03100
H 	H 	0.53590 0.88250 0.57280 0.01200
C 	C 	0.46898 0.69450 0.61700 0.07200
C 	C 	0.48340 0.79500 0.60560 -0.12900
H 	H 	0.46390 0.84950 0.61460 0.05900
C 	C 	0.42188 0.67630 0.63760 -0.01400
C 	C 	0.25575 0.43780 0.55500 0.41300
C 	C 	0.28525 0.51030 0.61520 -0.12700
C 	C 	0.26577 0.57660 0.67900 0.05000
H 	H 	0.23460 0.57790 0.68120 0.02900
C 	C 	0.29325 0.64070 0.73940 -0.11800
C 	C 	0.33916 0.64470 0.73030 -0.03200
H 	H 	0.35740 0.68910 0.76950 0.05800
C 	C 	0.35826 0.58250 0.66270 0.05500
C 	C 	0.33155 0.51210 0.60800 -0.03700
H 	H 	0.34460 0.46640 0.56690 0.04600
C 	C 	0.27269 0.70190 0.81750 0.43400
C 	C 	0.32000 0.01590 0.18550 0.13000
H 	H 	0.28870 0.01380 0.17310 -0.01600
C 	C 	0.38680 0.06020 0.24780 -0.13400
H 	H 	0.41030 0.09340 0.28440 0.08600
C 	C 	0.39070 0.98250 0.18340 0.25300
C 	C 	0.43299 0.93180 0.15660 -0.73700
H 	H 	0.42540 0.87940 0.10880 0.23000
H 	H 	0.44860 0.90110 0.21330 0.22600
H 	H 	0.45210 0.98240 0.13050 0.23700
N 	N 	0.40512 0.58770 0.64640 -0.11500
N 	N 	0.34772 0.95500 0.14230 -0.26400
N 	N 	0.34153 0.08050 0.24850 -0.15900
O 	O 	0.61635 0.84770 0.53660 -0.42100
O 	O 	0.62702 0.68100 0.51650 -0.41200
O 	O 	0.27225 0.35460 0.52540 -0.55800
O 	O 	0.21507 0.45980 0.53520 -0.44400
O 	O 	0.23316 0.68160 0.83330 -0.49800
O 	O 	0.29786 0.76960 0.86240 -0.45100
H 	H 	0.40330 0.73900 0.64500 0.03900
H 	H 	0.32680 0.12900 0.29000 0.11900
Eu	Eu	0.81438 0.30006 0.03656 1.86300
C 	C 	0.10264 0.25520 0.53910 0.30300
C 	C 	0.05650 0.23430 0.56840 -0.11200
C 	C 	0.04185 0.13390 0.57970 0.03800
H 	H 	0.06150 0.07940 0.57110 0.03000
C 	C 	0.99846 0.11350 0.60360 -0.12200
H 	H 	0.98900 0.04570 0.61070 0.07900
C 	C 	0.02668 0.31480 0.58100 0.03100
H 	H 	0.03590 0.38250 0.57280 0.01300
C 	C 	0.96898 0.19450 0.61700 0.07300
C 	C 	0.98340 0.29500 0.60560 -0.12700
H 	H 	0.96390 0.34950 0.61460 0.06000
C 	C 	0.92188 0.17630 0.63760 -0.01300
C 	C 	0.75575 0.93780 0.55500 0.41500
C 	C 	0.78525 0.01030 0.61520 -0.12600
C 	C 	0.76577 0.07660 0.67900 0.05100
H 	H 	0.73460 0.07790 0.68120 0.02800
C 	C 	0.79325 0.14070 0.73940 -0.11900
C 	C 	0.83916 0.14470 0.73030 -0.03200
H 	H 	0.85740 0.18910 0.76950 0.05800
C 	C 	0.85826 0.08250 0.66270 0.05500
C 	C 	0.83155 0.01210 0.60800 -0.03700
H 	H 	0.84460 0.96640 0.56690 0.04700
C 	C 	0.77269 0.20190 0.81750 0.43400
C 	C 	0.82000 0.51590 0.18550 0.12900
H 	H 	0.78870 0.51380 0.17310 -0.01600
C 	C 	0.88680 0.56020 0.24780 -0.13600
H 	H 	0.91030 0.59340 0.28440 0.08600
C 	C 	0.89070 0.48250 0.18340 0.25500
C 	C 	0.93299 0.43180 0.15660 -0.74000
H 	H 	0.92540 0.37940 0.10880 0.23100
H 	H 	0.94860 0.40110 0.21330 0.22700
H 	H 	0.95210 0.48240 0.13050 0.23900
N 	N 	0.90512 0.08770 0.64640 -0.11500
N 	N 	0.84772 0.45500 0.14230 -0.26400
N 	N 	0.84153 0.58050 0.24850 -0.15800
O 	O 	0.11635 0.34770 0.53660 -0.42100
O 	O 	0.12702 0.18100 0.51650 -0.41200
O 	O 	0.77225 0.85460 0.52540 -0.55800
O 	O 	0.71507 0.95980 0.53520 -0.44400
O 	O 	0.73316 0.18160 0.83330 -0.49800
O 	O 	0.79786 0.26960 0.86240 -0.45100
H 	H 	0.90330 0.23900 0.64500 0.03900
H 	H 	0.82680 0.62900 0.29000 0.11900
Eu	Eu	0.68562 0.80006 0.46344 1.86200
C 	C 	0.39736 0.75520 0.96090 0.30400
C 	C 	0.44350 0.73430 0.93160 -0.11200
C 	C 	0.45815 0.63390 0.92030 0.03800
H 	H 	0.43850 0.57940 0.92890 0.03000
C 	C 	0.50154 0.61350 0.89640 -0.12300
H 	H 	0.51100 0.54570 0.88930 0.07900
C 	C 	0.47332 0.81480 0.91900 0.03200
H 	H 	0.46410 0.88250 0.92720 0.01300
C 	C 	0.53102 0.69450 0.88300 0.07400
C 	C 	0.51660 0.79500 0.89440 -0.12800
H 	H 	0.53610 0.84950 0.88540 0.06000
C 	C 	0.57812 0.67630 0.86240 -0.01300
C 	C 	0.74425 0.43780 0.94500 0.41400
C 	C 	0.71475 0.51030 0.88480 -0.12600
C 	C 	0.73423 0.57660 0.82100 0.05100
H 	H 	0.76540 0.57790 0.81880 0.02900
C 	C 	0.70675 0.64070 0.76060 -0.11800
C 	C 	0.66084 0.64470 0.76970 -0.03200
H 	H 	0.64260 0.68910 0.73050 0.05800
C 	C 	0.64174 0.58250 0.83730 0.05500
C 	C 	0.66845 0.51210 0.89200 -0.03700
H 	H 	0.65540 0.46640 0.93310 0.04600
C 	C 	0.72731 0.70190 0.68250 0.43400
C 	C 	0.68000 0.01590 0.31450 0.13000
H 	H 	0.71130 0.01380 0.32690 -0.01600
C 	C 	0.61320 0.06020 0.25220 -0.13500
H 	H 	0.58970 0.09340 0.21560 0.08600
C 	C 	0.60930 0.98250 0.31660 0.25400
C 	C 	0.56701 0.93180 0.34340 -0.73800
H 	H 	0.57460 0.87940 0.39120 0.23100
H 	H 	0.55140 0.90110 0.28670 0.22600
H 	H 	0.54790 0.98240 0.36950 0.23800
N 	N 	0.59488 0.58770 0.85360 -0.11500
N 	N 	0.65228 0.95500 0.35770 -0.26400
N 	N 	0.65847 0.08050 0.25150 -0.15800
O 	O 	0.38365 0.84770 0.96340 -0.42000
O 	O 	0.37298 0.68100 0.98350 -0.41100
O 	O 	0.72775 0.35460 0.97460 -0.55800
O 	O 	0.78493 0.45980 0.96480 -0.44400
O 	O 	0.76684 0.68160 0.66670 -0.49800
O 	O 	0.70214 0.76960 0.63760 -0.45100
H 	H 	0.59670 0.73900 0.85500 0.03900
H 	H 	0.67320 0.12900 0.21000 0.11900
Eu	Eu	0.18562 0.30006 0.46344 1.86200
C 	C 	0.89736 0.25520 0.96090 0.30400
C 	C 	0.94350 0.23430 0.93160 -0.11300
C 	C 	0.95815 0.13390 0.92030 0.04000
H 	H 	0.93850 0.07940 0.92890 0.02900
C 	C 	0.00154 0.11350 0.89640 -0.12500
H 	H 	0.01100 0.04570 0.88930 0.07900
C 	C 	0.97332 0.31480 0.91900 0.03400
H 	H 	0.96410 0.38250 0.92720 0.01300
C 	C 	0.03102 0.19450 0.88300 0.07500
C 	C 	0.01660 0.29500 0.89440 -0.13000
H 	H 	0.03610 0.34950 0.88540 0.06100
C 	C 	0.07812 0.17630 0.86240 -0.01400
C 	C 	0.24425 0.93780 0.94500 0.41500
C 	C 	0.21475 0.01030 0.88480 -0.12600
C 	C 	0.23423 0.07660 0.82100 0.05100
H 	H 	0.26540 0.07790 0.81880 0.02800
C 	C 	0.20675 0.14070 0.76060 -0.11800
C 	C 	0.16084 0.14470 0.76970 -0.03300
H 	H 	0.14260 0.18910 0.73050 0.05800
C 	C 	0.14174 0.08250 0.83730 0.05600
C 	C 	0.16845 0.01210 0.89200 -0.03900
H 	H 	0.15540 0.96640 0.93310 0.04800
C 	C 	0.22731 0.20190 0.68250 0.43400
C 	C 	0.18000 0.51590 0.31450 0.12900
H 	H 	0.21130 0.51380 0.32690 -0.01600
C 	C 	0.11320 0.56020 0.25220 -0.13600
H 	H 	0.08970 0.59340 0.21560 0.08600
C 	C 	0.10930 0.48250 0.31660 0.25600
C 	C 	0.06701 0.43180 0.34340 -0.74100
H 	H 	0.07460 0.37940 0.39120 0.23200
H 	H 	0.05140 0.40110 0.28670 0.22700
H 	H 	0.04790 0.48240 0.36950 0.23900
N 	N 	0.09488 0.08770 0.85360 -0.11500
N 	N 	0.15228 0.45500 0.35770 -0.26400
N 	N 	0.15847 0.58050 0.25150 -0.15800
O 	O 	0.88365 0.34770 0.96340 -0.42100
O 	O 	0.87298 0.18100 0.98350 -0.41200
O 	O 	0.22775 0.85460 0.97460 -0.55800
O 	O 	0.28493 0.95980 0.96480 -0.44400
O 	O 	0.26684 0.18160 0.66670 -0.49800
O 	O 	0.20214 0.26960 0.63760 -0.45100
H 	H 	0.09670 0.23900 0.85500 0.03900
H 	H 	0.17320 0.62900 0.21000 0.11900
Eu	Eu	0.68562 0.19994 0.96344 1.86100
C 	C 	0.39736 0.24480 0.46090 0.30400
C 	C 	0.44350 0.26570 0.43160 -0.11200
C 	C 	0.45815 0.36610 0.42030 0.03800
H 	H 	0.43850 0.42060 0.42890 0.03000
C 	C 	0.50154 0.38650 0.39640 -0.12300
H 	H 	0.51100 0.45430 0.38930 0.07900
C 	C 	0.47332 0.18520 0.41900 0.03200
H 	H 	0.46410 0.11750 0.42720 0.01300
C 	C 	0.53102 0.30550 0.38300 0.07300
C 	C 	0.51660 0.20500 0.39440 -0.12800
H 	H 	0.53610 0.15050 0.38540 0.06000
C 	C 	0.57812 0.32370 0.36240 -0.01300
C 	C 	0.74425 0.56220 0.44500 0.41400
C 	C 	0.71475 0.48970 0.38480 -0.12600
C 	C 	0.73423 0.42340 0.32100 0.05100
H 	H 	0.76540 0.42210 0.31880 0.02900
C 	C 	0.70675 0.35930 0.26060 -0.11800
C 	C 	0.66084 0.35530 0.26970 -0.03200
H 	H 	0.64260 0.31090 0.23050 0.05800
C 	C 	0.64174 0.41750 0.33730 0.05500
C 	C 	0.66845 0.48790 0.39200 -0.03700
H 	H 	0.65540 0.53360 0.43310 0.04600
C 	C 	0.72731 0.29810 0.18250 0.43400
C 	C 	0.68000 0.98410 0.81450 0.13000
H 	H 	0.71130 0.98620 0.82690 -0.01600
C 	C 	0.61320 0.93980 0.75220 -0.13400
H 	H 	0.58970 0.90660 0.71560 0.08600
C 	C 	0.60930 0.01750 0.81660 0.25300
C 	C 	0.56701 0.06820 0.84340 -0.73700
H 	H 	0.57460 0.12060 0.89120 0.23000
H 	H 	0.55140 0.09890 0.78670 0.22600
H 	H 	0.54790 0.01760 0.86950 0.23700
N 	N 	0.59488 0.41230 0.35360 -0.11500
N 	N 	0.65228 0.04500 0.85770 -0.26400
N 	N 	0.65847 0.91950 0.75150 -0.15900
O 	O 	0.38365 0.15230 0.46340 -0.42100
O 	O 	0.37298 0.31900 0.48350 -0.41200
O 	O 	0.72775 0.64540 0.47460 -0.55800
O 	O 	0.78493 0.54020 0.46480 -0.44400
O 	O 	0.76684 0.31840 0.16670 -0.49800
O 	O 	0.70214 0.23040 0.13760 -0.45100
H 	H 	0.59670 0.26100 0.35500 0.03900
H 	H 	0.67320 0.87100 0.71000 0.11900
Eu	Eu	0.18562 0.69994 0.96344 1.86300
C 	C 	0.89736 0.74480 0.46090 0.30300
C 	C 	0.94350 0.76570 0.43160 -0.11200
C 	C 	0.95815 0.86610 0.42030 0.03800
H 	H 	0.93850 0.92060 0.42890 0.03000
C 	C 	0.00154 0.88650 0.39640 -0.12200
H 	H 	0.01100 0.95430 0.38930 0.07900
C 	C 	0.97332 0.68520 0.41900 0.03100
H 	H 	0.96410 0.61750 0.42720 0.01300
C 	C 	0.03102 0.80550 0.38300 0.07300
C 	C 	0.01660 0.70500 0.39440 -0.12700
H 	H 	0.03610 0.65050 0.38540 0.06000
C 	C 	0.07812 0.82370 0.36240 -0.01300
C 	C 	0.24425 0.06220 0.44500 0.41500
C 	C 	0.21475 0.98970 0.38480 -0.12600
C 	C 	0.23423 0.92340 0.32100 0.05100
H 	H 	0.26540 0.92210 0.31880 0.02800
C 	C 	0.20675 0.85930 0.26060 -0.11900
C 	C 	0.16084 0.85530 0.26970 -0.03200
H 	H 	0.14260 0.81090 0.23050 0.05800
C 	C 	0.14174 0.91750 0.33730 0.05500
C 	C 	0.16845 0.98790 0.39200 -0.03700
H 	H 	0.15540 0.03360 0.43310 0.04700
C 	C 	0.22731 0.79810 0.18250 0.43400
C 	C 	0.18000 0.48410 0.81450 0.12900
H 	H 	0.21130 0.48620 0.82690 -0.01600
C 	C 	0.11320 0.43980 0.75220 -0.13600
H 	H 	0.08970 0.40660 0.71560 0.08600
C 	C 	0.10930 0.51750 0.81660 0.25500
C 	C 	0.06701 0.56820 0.84340 -0.74000
H 	H 	0.07460 0.62060 0.89120 0.23100
H 	H 	0.05140 0.59890 0.78670 0.22700
H 	H 	0.04790 0.51760 0.86950 0.23900
N 	N 	0.09488 0.91230 0.35360 -0.11500
N 	N 	0.15228 0.54500 0.85770 -0.26400
N 	N 	0.15847 0.41950 0.75150 -0.15800
O 	O 	0.88365 0.65230 0.46340 -0.42100
O 	O 	0.87298 0.81900 0.48350 -0.41200
O 	O 	0.22775 0.14540 0.47460 -0.55800
O 	O 	0.28493 0.04020 0.46480 -0.44400
O 	O 	0.26684 0.81840 0.16670 -0.49800
O 	O 	0.20214 0.73040 0.13760 -0.45100
H 	H 	0.09670 0.76100 0.35500 0.03900
H 	H 	0.17320 0.37100 0.71000 0.11900
Eu	Eu	0.31438 0.19994 0.53656 1.86200
C 	C 	0.60264 0.24480 0.03910 0.30400
C 	C 	0.55650 0.26570 0.06840 -0.11200
C 	C 	0.54185 0.36610 0.07970 0.03800
H 	H 	0.56150 0.42060 0.07110 0.03000
C 	C 	0.49846 0.38650 0.10360 -0.12300
H 	H 	0.48900 0.45430 0.11070 0.07900
C 	C 	0.52668 0.18520 0.08100 0.03200
H 	H 	0.53590 0.11750 0.07280 0.01300
C 	C 	0.46898 0.30550 0.11700 0.07400
C 	C 	0.48340 0.20500 0.10560 -0.12800
H 	H 	0.46390 0.15050 0.11460 0.06000
C 	C 	0.42188 0.32370 0.13760 -0.01300
C 	C 	0.25575 0.56220 0.05500 0.41400
C 	C 	0.28525 0.48970 0.11520 -0.12600
C 	C 	0.26577 0.42340 0.17900 0.05100
H 	H 	0.23460 0.42210 0.18120 0.02900
C 	C 	0.29325 0.35930 0.23940 -0.11800
C 	C 	0.33916 0.35530 0.23030 -0.03200
H 	H 	0.35740 0.31090 0.26950 0.05800
C 	C 	0.35826 0.41750 0.16270 0.05500
C 	C 	0.33155 0.48790 0.10800 -0.03700
H 	H 	0.34460 0.53360 0.06690 0.04600
C 	C 	0.27269 0.29810 0.31750 0.43400
C 	C 	0.32000 0.98410 0.68550 0.13000
H 	H 	0.28870 0.98620 0.67310 -0.01600
C 	C 	0.38680 0.93980 0.74780 -0.13500
H 	H 	0.41030 0.90660 0.78440 0.08600
C 	C 	0.39070 0.01750 0.68340 0.25400
C 	C 	0.43299 0.06820 0.65660 -0.73800
H 	H 	0.42540 0.12060 0.60880 0.23100
H 	H 	0.44860 0.09890 0.71330 0.22600
H 	H 	0.45210 0.01760 0.63050 0.23800
N 	N 	0.40512 0.41230 0.14640 -0.11500
N 	N 	0.34772 0.04500 0.64230 -0.26400
N 	N 	0.34153 0.91950 0.74850 -0.15800
O 	O 	0.61635 0.15230 0.03660 -0.42000
O 	O 	0.62702 0.31900 0.01650 -0.41100
O 	O 	0.27225 0.64540 0.02540 -0.55800
O 	O 	0.21507 0.54020 0.03520 -0.44400
O 	O 	0.23316 0.31840 0.33330 -0.49800
O 	O 	0.29786 0.23040 0.36240 -0.45100
H 	H 	0.40330 0.26100 0.14500 0.03900
H 	H 	0.32680 0.87100 0.79000 0.11900
Eu	Eu	0.81438 0.69994 0.53656 1.86200
C 	C 	0.10264 0.74480 0.03910 0.30400
C 	C 	0.05650 0.76570 0.06840 -0.11300
C 	C 	0.04185 0.86610 0.07970 0.04000
H 	H 	0.06150 0.92060 0.07110 0.02900
C 	C 	0.99846 0.88650 0.10360 -0.12500
H 	H 	0.98900 0.95430 0.11070 0.07900
C 	C 	0.02668 0.68520 0.08100 0.03400
H 	H 	0.03590 0.61750 0.07280 0.01300
C 	C 	0.96898 0.80550 0.11700 0.07500
C 	C 	0.98340 0.70500 0.10560 -0.13000
H 	H 	0.96390 0.65050 0.11460 0.06100
C 	C 	0.92188 0.82370 0.13760 -0.01400
C 	C 	0.75575 0.06220 0.05500 0.41500
C 	C 	0.78525 0.98970 0.11520 -0.12600
C 	C 	0.76577 0.92340 0.17900 0.05100
H 	H 	0.73460 0.92210 0.18120 0.02800
C 	C 	0.79325 0.85930 0.23940 -0.11800
C 	C 	0.83916 0.85530 0.23030 -0.03300
H 	H 	0.85740 0.81090 0.26950 0.05800
C 	C 	0.85826 0.91750 0.16270 0.05600
C 	C 	0.83155 0.98790 0.10800 -0.03900
H 	H 	0.84460 0.03360 0.06690 0.04800
C 	C 	0.77269 0.79810 0.31750 0.43400
C 	C 	0.82000 0.48410 0.68550 0.12900
H 	H 	0.78870 0.48620 0.67310 -0.01600
C 	C 	0.88680 0.43980 0.74780 -0.13600
H 	H 	0.91030 0.40660 0.78440 0.08600
C 	C 	0.89070 0.51750 0.68340 0.25600
C 	C 	0.93299 0.56820 0.65660 -0.74100
H 	H 	0.92540 0.62060 0.60880 0.23200
H 	H 	0.94860 0.59890 0.71330 0.22700
H 	H 	0.95210 0.51760 0.63050 0.23900
N 	N 	0.90512 0.91230 0.14640 -0.11500
N 	N 	0.84772 0.54500 0.64230 -0.26400
N 	N 	0.84153 0.41950 0.74850 -0.15800
O 	O 	0.11635 0.65230 0.03660 -0.42100
O 	O 	0.12702 0.81900 0.01650 -0.41200
O 	O 	0.77225 0.14540 0.02540 -0.55800
O 	O 	0.71507 0.04020 0.03520 -0.44400
O 	O 	0.73316 0.81840 0.33330 -0.49800
O 	O 	0.79786 0.73040 0.36240 -0.45100
H 	H 	0.90330 0.76100 0.14500 0.03900
H 	H 	0.82680 0.37100 0.79000 0.11900
