data_crystal

_cell_length_a 28.25730
_cell_length_b 14.68780
_cell_length_c 13.63900
_cell_angle_alpha 90.00000
_cell_angle_beta  99.32700
_cell_angle_gamma 90.00000

_symmetry_space_group_name_	'P 1'
_symmetry_space_group_name_H-M	'P 1'

loop_
_symmetry_equiv_pos_as_xyz
  x,y,z

loop_
_atom_site_label
_atom_site_type_symbol
_atom_site_fract_x
_atom_site_fract_y
_atom_site_fract_z
_atom_site_charge
C 	C 	0.40490 0.25890 0.97470 0.32800
C 	C 	0.44930 0.28630 0.93670 -0.10900
C 	C 	0.47850 0.21850 0.90330 0.04200
H 	H 	0.46920 0.15780 0.90300 0.02500
C 	C 	0.52000 0.24120 0.87160 -0.12500
H 	H 	0.53870 0.19610 0.84910 0.07300
C 	C 	0.53510 0.33380 0.87270 0.06800
C 	C 	0.50500 0.40220 0.90180 -0.12100
H 	H 	0.51300 0.46340 0.89870 0.08200
C 	C 	0.46230 0.37510 0.93570 0.04400
H 	H 	0.44290 0.41910 0.95770 0.02500
C 	C 	0.58260 0.35070 0.84550 -0.01800
C 	C 	0.75090 0.59680 0.90820 0.42800
C 	C 	0.71990 0.52760 0.85060 -0.14400
C 	C 	0.73780 0.47200 0.78450 0.06700
H 	H 	0.76950 0.47830 0.77520 0.01900
C 	C 	0.70900 0.40680 0.73160 -0.14900
C 	C 	0.66060 0.39650 0.74560 -0.02300
H 	H 	0.64080 0.35420 0.70860 0.05800
C 	C 	0.64320 0.45130 0.81660 0.05500
C 	C 	0.67190 0.51800 0.86480 -0.02400
H 	H 	0.65950 0.55740 0.90760 0.04700
C 	C 	0.72750 0.34620 0.65970 0.47000
N 	N 	0.59690 0.43860 0.83930 -0.11200
O 	O 	0.38740 0.18070 0.95390 -0.41300
O 	O 	0.38590 0.31370 0.02660 -0.41100
O 	O 	0.79551 0.58460 0.92450 -0.45900
O 	O 	0.73260 0.66470 0.94360 -0.58800
O 	O 	0.69910 0.28630 0.61730 -0.48500
O 	O 	0.76970 0.35670 0.64600 -0.51600
O 	O 	0.35460 0.26500 0.20800 -0.23100
C 	C 	0.33180 0.29300 0.27300 0.15100
N 	N 	0.36060 0.34500 0.35200 -0.07800
C 	C 	0.37880 0.39300 0.44300 -0.18800
H 	H 	0.40240 0.43670 0.43030 0.09700
H 	H 	0.39320 0.35050 0.49220 0.09300
H 	H 	0.35300 0.42410 0.46650 0.06800
H 	H 	0.59900 0.31600 0.90600 0.02800
Eu	Eu	0.31788 0.21057 0.03755 1.97900
C 	C 	0.32340 0.39100 0.39500 -0.20200
H 	H 	0.33800 0.42940 0.44860 0.05900
H 	H 	0.30340 0.34680 0.42000 0.08800
H 	H 	0.30430 0.42760 0.34530 0.09400
O 	O 	0.35030 0.25500 0.20280 -0.10600
C 	C 	0.90490 0.75890 0.97470 0.32700
C 	C 	0.94930 0.78630 0.93670 -0.10800
C 	C 	0.97850 0.71850 0.90330 0.04300
H 	H 	0.96920 0.65780 0.90300 0.02500
C 	C 	0.02000 0.74120 0.87160 -0.12500
H 	H 	0.03870 0.69610 0.84910 0.07400
C 	C 	0.03510 0.83380 0.87270 0.06900
C 	C 	0.00500 0.90220 0.90180 -0.12100
H 	H 	0.01300 0.96340 0.89870 0.08300
C 	C 	0.96230 0.87510 0.93570 0.04600
H 	H 	0.94290 0.91910 0.95770 0.02600
C 	C 	0.08260 0.85070 0.84550 -0.01700
C 	C 	0.25090 0.09680 0.90820 0.42900
C 	C 	0.21990 0.02760 0.85060 -0.14200
C 	C 	0.23780 0.97200 0.78450 0.06600
H 	H 	0.26950 0.97830 0.77520 0.02000
C 	C 	0.20900 0.90680 0.73160 -0.14900
C 	C 	0.16060 0.89650 0.74560 -0.02300
H 	H 	0.14080 0.85420 0.70860 0.05800
C 	C 	0.14320 0.95130 0.81660 0.05300
C 	C 	0.17190 0.01800 0.86480 -0.02200
H 	H 	0.15950 0.05740 0.90760 0.04700
C 	C 	0.22750 0.84620 0.65970 0.46900
N 	N 	0.09690 0.93860 0.83930 -0.11200
O 	O 	0.88740 0.68070 0.95390 -0.41300
O 	O 	0.88590 0.81370 0.02660 -0.40900
O 	O 	0.29551 0.08460 0.92450 -0.45800
O 	O 	0.23260 0.16470 0.94360 -0.58700
O 	O 	0.19910 0.78630 0.61730 -0.48500
O 	O 	0.26970 0.85670 0.64600 -0.51600
O 	O 	0.85460 0.76500 0.20800 -0.23200
C 	C 	0.83180 0.79300 0.27300 0.15100
N 	N 	0.86060 0.84500 0.35200 -0.07800
C 	C 	0.87880 0.89300 0.44300 -0.18800
H 	H 	0.90240 0.93670 0.43030 0.09700
H 	H 	0.89320 0.85050 0.49220 0.09300
H 	H 	0.85300 0.92410 0.46650 0.06800
H 	H 	0.09900 0.81600 0.90600 0.02700
Eu	Eu	0.81788 0.71057 0.03755 1.98300
C 	C 	0.82340 0.89100 0.39500 -0.20200
H 	H 	0.83800 0.92940 0.44860 0.05900
H 	H 	0.80340 0.84680 0.42000 0.08800
H 	H 	0.80430 0.92760 0.34530 0.09400
O 	O 	0.85030 0.75500 0.20280 -0.10600
C 	C 	0.59510 0.25890 0.52530 0.32800
C 	C 	0.55070 0.28630 0.56330 -0.10800
C 	C 	0.52150 0.21850 0.59670 0.04300
H 	H 	0.53080 0.15780 0.59700 0.02500
C 	C 	0.48000 0.24120 0.62840 -0.12400
H 	H 	0.46130 0.19610 0.65090 0.07400
C 	C 	0.46490 0.33380 0.62730 0.06900
C 	C 	0.49500 0.40220 0.59820 -0.12000
H 	H 	0.48700 0.46340 0.60130 0.08300
C 	C 	0.53770 0.37510 0.56430 0.04500
H 	H 	0.55710 0.41910 0.54230 0.02600
C 	C 	0.41740 0.35070 0.65450 -0.01600
C 	C 	0.24910 0.59680 0.59180 0.42900
C 	C 	0.28010 0.52760 0.64940 -0.14300
C 	C 	0.26220 0.47200 0.71550 0.06800
H 	H 	0.23050 0.47830 0.72480 0.02000
C 	C 	0.29100 0.40680 0.76840 -0.14900
C 	C 	0.33940 0.39650 0.75440 -0.02300
H 	H 	0.35920 0.35420 0.79140 0.05800
C 	C 	0.35680 0.45130 0.68340 0.05500
C 	C 	0.32810 0.51800 0.63520 -0.02400
H 	H 	0.34050 0.55740 0.59240 0.04700
C 	C 	0.27250 0.34620 0.84030 0.47000
N 	N 	0.40310 0.43860 0.66070 -0.11200
O 	O 	0.61260 0.18070 0.54610 -0.41300
O 	O 	0.61410 0.31370 0.47340 -0.41100
O 	O 	0.20449 0.58460 0.57550 -0.45900
O 	O 	0.26740 0.66470 0.55640 -0.58800
O 	O 	0.30090 0.28630 0.88270 -0.48400
O 	O 	0.23030 0.35670 0.85400 -0.51600
O 	O 	0.64540 0.26500 0.29200 -0.23200
C 	C 	0.66820 0.29300 0.22700 0.15100
N 	N 	0.63940 0.34500 0.14800 -0.07800
C 	C 	0.62120 0.39300 0.05700 -0.18800
H 	H 	0.59760 0.43670 0.06970 0.09700
H 	H 	0.60680 0.35050 0.00780 0.09200
H 	H 	0.64700 0.42410 0.03350 0.06800
H 	H 	0.40100 0.31600 0.59400 0.02700
Eu	Eu	0.68212 0.21057 0.46245 1.98100
C 	C 	0.67660 0.39100 0.10500 -0.20200
H 	H 	0.66200 0.42940 0.05140 0.05900
H 	H 	0.69660 0.34680 0.08000 0.08800
H 	H 	0.69570 0.42760 0.15470 0.09400
O 	O 	0.64970 0.25500 0.29720 -0.10600
C 	C 	0.09510 0.75890 0.52530 0.32800
C 	C 	0.05070 0.78630 0.56330 -0.10800
C 	C 	0.02150 0.71850 0.59670 0.04200
H 	H 	0.03080 0.65780 0.59700 0.02600
C 	C 	0.98000 0.74120 0.62840 -0.12400
H 	H 	0.96130 0.69610 0.65090 0.07400
C 	C 	0.96490 0.83380 0.62730 0.06900
C 	C 	0.99500 0.90220 0.59820 -0.12000
H 	H 	0.98700 0.96340 0.60130 0.08300
C 	C 	0.03770 0.87510 0.56430 0.04500
H 	H 	0.05710 0.91910 0.54230 0.02600
C 	C 	0.91740 0.85070 0.65450 -0.01600
C 	C 	0.74910 0.09680 0.59180 0.42900
C 	C 	0.78010 0.02760 0.64940 -0.14300
C 	C 	0.76220 0.97200 0.71550 0.06700
H 	H 	0.73050 0.97830 0.72480 0.02000
C 	C 	0.79100 0.90680 0.76840 -0.14900
C 	C 	0.83940 0.89650 0.75440 -0.02300
H 	H 	0.85920 0.85420 0.79140 0.05800
C 	C 	0.85680 0.95130 0.68340 0.05400
C 	C 	0.82810 0.01800 0.63520 -0.02300
H 	H 	0.84050 0.05740 0.59240 0.04700
C 	C 	0.77250 0.84620 0.84030 0.46900
N 	N 	0.90310 0.93860 0.66070 -0.11200
O 	O 	0.11260 0.68070 0.54610 -0.41300
O 	O 	0.11410 0.81370 0.47340 -0.41100
O 	O 	0.70449 0.08460 0.57550 -0.45900
O 	O 	0.76740 0.16470 0.55640 -0.58800
O 	O 	0.80090 0.78630 0.88270 -0.48500
O 	O 	0.73030 0.85670 0.85400 -0.51600
O 	O 	0.14540 0.76500 0.29200 -0.23100
C 	C 	0.16820 0.79300 0.22700 0.15100
N 	N 	0.13940 0.84500 0.14800 -0.07700
C 	C 	0.12120 0.89300 0.05700 -0.18900
H 	H 	0.09760 0.93670 0.06970 0.09800
H 	H 	0.10680 0.85050 0.00780 0.09400
H 	H 	0.14700 0.92410 0.03350 0.06800
H 	H 	0.90100 0.81600 0.59400 0.02700
Eu	Eu	0.18212 0.71057 0.46245 1.98100
C 	C 	0.17660 0.89100 0.10500 -0.20400
H 	H 	0.16200 0.92940 0.05140 0.06000
H 	H 	0.19660 0.84680 0.08000 0.08900
H 	H 	0.19570 0.92760 0.15470 0.09500
O 	O 	0.14970 0.75500 0.29720 -0.10600
C 	C 	0.59510 0.74110 0.02530 0.32900
C 	C 	0.55070 0.71370 0.06330 -0.10800
C 	C 	0.52150 0.78150 0.09670 0.04300
H 	H 	0.53080 0.84220 0.09700 0.02600
C 	C 	0.48000 0.75880 0.12840 -0.12400
H 	H 	0.46130 0.80390 0.15090 0.07400
C 	C 	0.46490 0.66620 0.12730 0.06900
C 	C 	0.49500 0.59780 0.09820 -0.12000
H 	H 	0.48700 0.53660 0.10130 0.08300
C 	C 	0.53770 0.62490 0.06430 0.04500
H 	H 	0.55710 0.58090 0.04230 0.02600
C 	C 	0.41740 0.64930 0.15450 -0.01700
C 	C 	0.24910 0.40320 0.09180 0.42900
C 	C 	0.28010 0.47240 0.14940 -0.14300
C 	C 	0.26220 0.52800 0.21550 0.06800
H 	H 	0.23050 0.52170 0.22480 0.02000
C 	C 	0.29100 0.59320 0.26840 -0.14900
C 	C 	0.33940 0.60350 0.25440 -0.02300
H 	H 	0.35920 0.64580 0.29140 0.05800
C 	C 	0.35680 0.54870 0.18340 0.05500
C 	C 	0.32810 0.48200 0.13520 -0.02400
H 	H 	0.34050 0.44260 0.09240 0.04700
C 	C 	0.27250 0.65380 0.34030 0.47000
N 	N 	0.40310 0.56140 0.16070 -0.11200
O 	O 	0.61260 0.81930 0.04610 -0.41300
O 	O 	0.61410 0.68630 0.97340 -0.41100
O 	O 	0.20449 0.41540 0.07550 -0.45900
O 	O 	0.26740 0.33530 0.05640 -0.58800
O 	O 	0.30090 0.71370 0.38270 -0.48500
O 	O 	0.23030 0.64330 0.35400 -0.51600
O 	O 	0.64540 0.73500 0.79200 -0.23100
C 	C 	0.66820 0.70700 0.72700 0.15100
N 	N 	0.63940 0.65500 0.64800 -0.07800
C 	C 	0.62120 0.60700 0.55700 -0.18800
H 	H 	0.59760 0.56330 0.56970 0.09700
H 	H 	0.60680 0.64950 0.50780 0.09300
H 	H 	0.64700 0.57590 0.53350 0.06800
H 	H 	0.40100 0.68400 0.09400 0.02800
Eu	Eu	0.68212 0.78943 0.96245 1.97900
C 	C 	0.67660 0.60900 0.60500 -0.20200
H 	H 	0.66200 0.57060 0.55140 0.05900
H 	H 	0.69660 0.65320 0.58000 0.08800
H 	H 	0.69570 0.57240 0.65470 0.09400
O 	O 	0.64970 0.74500 0.79720 -0.10600
C 	C 	0.09510 0.24110 0.02530 0.32700
C 	C 	0.05070 0.21370 0.06330 -0.10800
C 	C 	0.02150 0.28150 0.09670 0.04300
H 	H 	0.03080 0.34220 0.09700 0.02500
C 	C 	0.98000 0.25880 0.12840 -0.12500
H 	H 	0.96130 0.30390 0.15090 0.07400
C 	C 	0.96490 0.16620 0.12730 0.06900
C 	C 	0.99500 0.09780 0.09820 -0.12100
H 	H 	0.98700 0.03660 0.10130 0.08300
C 	C 	0.03770 0.12490 0.06430 0.04600
H 	H 	0.05710 0.08090 0.04230 0.02600
C 	C 	0.91740 0.14930 0.15450 -0.01700
C 	C 	0.74910 0.90320 0.09180 0.42900
C 	C 	0.78010 0.97240 0.14940 -0.14200
C 	C 	0.76220 0.02800 0.21550 0.06600
H 	H 	0.73050 0.02170 0.22480 0.02000
C 	C 	0.79100 0.09320 0.26840 -0.14900
C 	C 	0.83940 0.10350 0.25440 -0.02300
H 	H 	0.85920 0.14580 0.29140 0.05800
C 	C 	0.85680 0.04870 0.18340 0.05300
C 	C 	0.82810 0.98200 0.13520 -0.02200
H 	H 	0.84050 0.94260 0.09240 0.04700
C 	C 	0.77250 0.15380 0.34030 0.46900
N 	N 	0.90310 0.06140 0.16070 -0.11200
O 	O 	0.11260 0.31930 0.04610 -0.41300
O 	O 	0.11410 0.18630 0.97340 -0.40900
O 	O 	0.70449 0.91540 0.07550 -0.45800
O 	O 	0.76740 0.83530 0.05640 -0.58700
O 	O 	0.80090 0.21370 0.38270 -0.48500
O 	O 	0.73030 0.14330 0.35400 -0.51600
O 	O 	0.14540 0.23500 0.79200 -0.23200
C 	C 	0.16820 0.20700 0.72700 0.15100
N 	N 	0.13940 0.15500 0.64800 -0.07800
C 	C 	0.12120 0.10700 0.55700 -0.18800
H 	H 	0.09760 0.06330 0.56970 0.09700
H 	H 	0.10680 0.14950 0.50780 0.09300
H 	H 	0.14700 0.07590 0.53350 0.06800
H 	H 	0.90100 0.18400 0.09400 0.02700
Eu	Eu	0.18212 0.28943 0.96245 1.98300
C 	C 	0.17660 0.10900 0.60500 -0.20200
H 	H 	0.16200 0.07060 0.55140 0.05900
H 	H 	0.19660 0.15320 0.58000 0.08800
H 	H 	0.19570 0.07240 0.65470 0.09400
O 	O 	0.14970 0.24500 0.79720 -0.10600
C 	C 	0.40490 0.74110 0.47470 0.32800
C 	C 	0.44930 0.71370 0.43670 -0.10800
C 	C 	0.47850 0.78150 0.40330 0.04300
H 	H 	0.46920 0.84220 0.40300 0.02500
C 	C 	0.52000 0.75880 0.37160 -0.12400
H 	H 	0.53870 0.80390 0.34910 0.07400
C 	C 	0.53510 0.66620 0.37270 0.06900
C 	C 	0.50500 0.59780 0.40180 -0.12000
H 	H 	0.51300 0.53660 0.39870 0.08300
C 	C 	0.46230 0.62490 0.43570 0.04500
H 	H 	0.44290 0.58090 0.45770 0.02600
C 	C 	0.58260 0.64930 0.34550 -0.01600
C 	C 	0.75090 0.40320 0.40820 0.42900
C 	C 	0.71990 0.47240 0.35060 -0.14300
C 	C 	0.73780 0.52800 0.28450 0.06800
H 	H 	0.76950 0.52170 0.27520 0.02000
C 	C 	0.70900 0.59320 0.23160 -0.14900
C 	C 	0.66060 0.60350 0.24560 -0.02300
H 	H 	0.64080 0.64580 0.20860 0.05800
C 	C 	0.64320 0.54870 0.31660 0.05500
C 	C 	0.67190 0.48200 0.36480 -0.02400
H 	H 	0.65950 0.44260 0.40760 0.04700
C 	C 	0.72750 0.65380 0.15970 0.47000
N 	N 	0.59690 0.56140 0.33930 -0.11200
O 	O 	0.38740 0.81930 0.45390 -0.41300
O 	O 	0.38590 0.68630 0.52660 -0.41100
O 	O 	0.79551 0.41540 0.42450 -0.45900
O 	O 	0.73260 0.33530 0.44360 -0.58800
O 	O 	0.69910 0.71370 0.11730 -0.48400
O 	O 	0.76970 0.64330 0.14600 -0.51600
O 	O 	0.35460 0.73500 0.70800 -0.23200
C 	C 	0.33180 0.70700 0.77300 0.15100
N 	N 	0.36060 0.65500 0.85200 -0.07800
C 	C 	0.37880 0.60700 0.94300 -0.18800
H 	H 	0.40240 0.56330 0.93030 0.09700
H 	H 	0.39320 0.64950 0.99220 0.09200
H 	H 	0.35300 0.57590 0.96650 0.06800
H 	H 	0.59900 0.68400 0.40600 0.02700
Eu	Eu	0.31788 0.78943 0.53755 1.98100
C 	C 	0.32340 0.60900 0.89500 -0.20200
H 	H 	0.33800 0.57060 0.94860 0.05900
H 	H 	0.30340 0.65320 0.92000 0.08800
H 	H 	0.30430 0.57240 0.84530 0.09400
O 	O 	0.35030 0.74500 0.70280 -0.10600
C 	C 	0.90490 0.24110 0.47470 0.32800
C 	C 	0.94930 0.21370 0.43670 -0.10800
C 	C 	0.97850 0.28150 0.40330 0.04200
H 	H 	0.96920 0.34220 0.40300 0.02600
C 	C 	0.02000 0.25880 0.37160 -0.12400
H 	H 	0.03870 0.30390 0.34910 0.07400
C 	C 	0.03510 0.16620 0.37270 0.06900
C 	C 	0.00500 0.09780 0.40180 -0.12000
H 	H 	0.01300 0.03660 0.39870 0.08300
C 	C 	0.96230 0.12490 0.43570 0.04500
H 	H 	0.94290 0.08090 0.45770 0.02600
C 	C 	0.08260 0.14930 0.34550 -0.01600
C 	C 	0.25090 0.90320 0.40820 0.42900
C 	C 	0.21990 0.97240 0.35060 -0.14300
C 	C 	0.23780 0.02800 0.28450 0.06700
H 	H 	0.26950 0.02170 0.27520 0.02000
C 	C 	0.20900 0.09320 0.23160 -0.14900
C 	C 	0.16060 0.10350 0.24560 -0.02300
H 	H 	0.14080 0.14580 0.20860 0.05800
C 	C 	0.14320 0.04870 0.31660 0.05400
C 	C 	0.17190 0.98200 0.36480 -0.02300
H 	H 	0.15950 0.94260 0.40760 0.04700
C 	C 	0.22750 0.15380 0.15970 0.46900
N 	N 	0.09690 0.06140 0.33930 -0.11200
O 	O 	0.88740 0.31930 0.45390 -0.41300
O 	O 	0.88590 0.18630 0.52660 -0.41100
O 	O 	0.29551 0.91540 0.42450 -0.45900
O 	O 	0.23260 0.83530 0.44360 -0.58800
O 	O 	0.19910 0.21370 0.11730 -0.48500
O 	O 	0.26970 0.14330 0.14600 -0.51600
O 	O 	0.85460 0.23500 0.70800 -0.23100
C 	C 	0.83180 0.20700 0.77300 0.15100
N 	N 	0.86060 0.15500 0.85200 -0.07700
C 	C 	0.87880 0.10700 0.94300 -0.18900
H 	H 	0.90240 0.06330 0.93030 0.09800
H 	H 	0.89320 0.14950 0.99220 0.09400
H 	H 	0.85300 0.07590 0.96650 0.06800
H 	H 	0.09900 0.18400 0.40600 0.02700
Eu	Eu	0.81788 0.28943 0.53755 1.98100
C 	C 	0.82340 0.10900 0.89500 -0.20400
H 	H 	0.83800 0.07060 0.94860 0.06000
H 	H 	0.80340 0.15320 0.92000 0.08900
H 	H 	0.80430 0.07240 0.84530 0.09500
O 	O 	0.85030 0.24500 0.70280 -0.10600
