data_crystal

_cell_length_a 29.79310
_cell_length_b 12.79290
_cell_length_c 13.78930
_cell_angle_alpha 90.00000
_cell_angle_beta  95.18500
_cell_angle_gamma 90.00000

_symmetry_space_group_name_	'P 1'
_symmetry_space_group_name_H-M	'P 1'

loop_
_symmetry_equiv_pos_as_xyz
  x,y,z

loop_
_atom_site_label
_atom_site_type_symbol
_atom_site_fract_x
_atom_site_fract_y
_atom_site_fract_z
_atom_site_charge
C 	C 	0.60320 0.23820 0.03710 0.32300
C 	C 	0.55680 0.25820 0.06830 -0.10900
C 	C 	0.52670 0.17480 0.07550 0.04100
H 	H 	0.53540 0.10670 0.06310 0.02400
C 	C 	0.48350 0.19570 0.10160 -0.13500
H 	H 	0.46370 0.14070 0.10860 0.07700
C 	C 	0.46990 0.29620 0.11700 0.08700
C 	C 	0.49950 0.37730 0.11230 -0.12900
H 	H 	0.49060 0.44490 0.12620 0.08400
C 	C 	0.54330 0.35860 0.08640 0.04300
H 	H 	0.56320 0.41400 0.08150 0.03000
C 	C 	0.42210 0.31130 0.13730 -0.01800
H 	H 	0.40500 0.24700 0.15400 0.04300
C 	C 	0.25560 0.55730 0.05220 0.41200
C 	C 	0.28530 0.48640 0.11200 -0.12400
C 	C 	0.33170 0.48100 0.10280 -0.04000
H 	H 	0.34460 0.52510 0.05970 0.05000
C 	C 	0.35840 0.40970 0.15810 0.06200
C 	C 	0.33980 0.34810 0.22640 -0.03800
H 	H 	0.35800 0.30180 0.26420 0.06500
C 	C 	0.29370 0.35460 0.23920 -0.11100
C 	C 	0.26630 0.42150 0.17890 0.04700
H 	H 	0.23540 0.42270 0.18340 0.03500
C 	C 	0.27370 0.29180 0.31640 0.43200
C 	C 	0.11240 0.52990 0.81930 0.02700
H 	H 	0.08690 0.56340 0.83780 0.00400
C 	C 	0.11280 0.45500 0.74740 -0.00900
H 	H 	0.08810 0.43200 0.70700 0.04500
C 	C 	0.18010 0.47640 0.81380 0.11400
H 	H 	0.21100 0.46760 0.82830 -0.00500
N 	N 	0.40480 0.40320 0.14300 -0.11400
N 	N 	0.15470 0.54690 0.85850 -0.23000
N 	N 	0.15520 0.42180 0.74680 -0.11100
O 	O 	0.61637 0.14650 0.02980 -0.41000
O 	O 	0.62710 0.31540 0.01730 -0.41500
O 	O 	0.21490 0.53600 0.03480 -0.43500
O 	O 	0.27173 0.64260 0.02230 -0.56200
O 	O 	0.29806 0.22650 0.36390 -0.44400
O 	O 	0.23290 0.31200 0.32930 -0.49100
Eu	Eu	0.18658 0.69945 0.96209 1.88500
C 	C 	0.10320 0.73820 0.03710 0.32400
C 	C 	0.05680 0.75820 0.06830 -0.10900
C 	C 	0.02670 0.67480 0.07550 0.04300
H 	H 	0.03540 0.60670 0.06310 0.02400
C 	C 	0.98350 0.69570 0.10160 -0.13700
H 	H 	0.96370 0.64070 0.10860 0.07800
C 	C 	0.96990 0.79620 0.11700 0.08800
C 	C 	0.99950 0.87730 0.11230 -0.13200
H 	H 	0.99060 0.94490 0.12620 0.08500
C 	C 	0.04330 0.85860 0.08640 0.04500
H 	H 	0.06320 0.91400 0.08150 0.03000
C 	C 	0.92210 0.81130 0.13730 -0.01900
H 	H 	0.90500 0.74700 0.15400 0.04300
C 	C 	0.75560 0.05730 0.05220 0.41300
C 	C 	0.78530 0.98640 0.11200 -0.12500
C 	C 	0.83170 0.98100 0.10280 -0.04200
H 	H 	0.84460 0.02510 0.05970 0.05100
C 	C 	0.85840 0.90970 0.15810 0.06300
C 	C 	0.83980 0.84810 0.22640 -0.03800
H 	H 	0.85800 0.80180 0.26420 0.06500
C 	C 	0.79370 0.85460 0.23920 -0.11100
C 	C 	0.76630 0.92150 0.17890 0.04700
H 	H 	0.73540 0.92270 0.18340 0.03400
C 	C 	0.77370 0.79180 0.31640 0.43200
C 	C 	0.61240 0.02990 0.81930 0.02600
H 	H 	0.58690 0.06340 0.83780 0.00400
C 	C 	0.61280 0.95500 0.74740 -0.00900
H 	H 	0.58810 0.93200 0.70700 0.04500
C 	C 	0.68010 0.97640 0.81380 0.11400
H 	H 	0.71100 0.96760 0.82830 -0.00500
N 	N 	0.90480 0.90320 0.14300 -0.11400
N 	N 	0.65470 0.04690 0.85850 -0.23000
N 	N 	0.65520 0.92180 0.74680 -0.11100
O 	O 	0.11637 0.64650 0.02980 -0.41000
O 	O 	0.12710 0.81540 0.01730 -0.41500
O 	O 	0.71490 0.03600 0.03480 -0.43500
O 	O 	0.77173 0.14260 0.02230 -0.56200
O 	O 	0.79806 0.72650 0.36390 -0.44400
O 	O 	0.73290 0.81200 0.32930 -0.49100
Eu	Eu	0.68658 0.19945 0.96209 1.88400
C 	C 	0.39680 0.23820 0.46290 0.32400
C 	C 	0.44320 0.25820 0.43170 -0.10800
C 	C 	0.47330 0.17480 0.42450 0.04100
H 	H 	0.46460 0.10670 0.43690 0.02400
C 	C 	0.51650 0.19570 0.39840 -0.13500
H 	H 	0.53630 0.14070 0.39140 0.07700
C 	C 	0.53010 0.29620 0.38300 0.08700
C 	C 	0.50050 0.37730 0.38770 -0.13000
H 	H 	0.50940 0.44490 0.37380 0.08400
C 	C 	0.45670 0.35860 0.41360 0.04300
H 	H 	0.43680 0.41400 0.41850 0.03000
C 	C 	0.57790 0.31130 0.36270 -0.01800
H 	H 	0.59500 0.24700 0.34600 0.04300
C 	C 	0.74440 0.55730 0.44780 0.41200
C 	C 	0.71470 0.48640 0.38800 -0.12400
C 	C 	0.66830 0.48100 0.39720 -0.04000
H 	H 	0.65540 0.52510 0.44030 0.05000
C 	C 	0.64160 0.40970 0.34190 0.06200
C 	C 	0.66020 0.34810 0.27360 -0.03800
H 	H 	0.64200 0.30180 0.23580 0.06500
C 	C 	0.70630 0.35460 0.26080 -0.11100
C 	C 	0.73370 0.42150 0.32110 0.04700
H 	H 	0.76460 0.42270 0.31660 0.03500
C 	C 	0.72630 0.29180 0.18360 0.43200
C 	C 	0.88760 0.52990 0.68070 0.02700
H 	H 	0.91310 0.56340 0.66220 0.00400
C 	C 	0.88720 0.45500 0.75260 -0.00900
H 	H 	0.91190 0.43200 0.79300 0.04500
C 	C 	0.81990 0.47640 0.68620 0.11400
H 	H 	0.78900 0.46760 0.67170 -0.00500
N 	N 	0.59520 0.40320 0.35700 -0.11400
N 	N 	0.84530 0.54690 0.64150 -0.23000
N 	N 	0.84480 0.42180 0.75320 -0.11100
O 	O 	0.38363 0.14650 0.47020 -0.41000
O 	O 	0.37290 0.31540 0.48270 -0.41500
O 	O 	0.78510 0.53600 0.46520 -0.43500
O 	O 	0.72827 0.64260 0.47770 -0.56200
O 	O 	0.70194 0.22650 0.13610 -0.44400
O 	O 	0.76710 0.31200 0.17070 -0.49100
Eu	Eu	0.81342 0.69945 0.53791 1.88500
C 	C 	0.89680 0.73820 0.46290 0.32400
C 	C 	0.94320 0.75820 0.43170 -0.10800
C 	C 	0.97330 0.67480 0.42450 0.04100
H 	H 	0.96460 0.60670 0.43690 0.02400
C 	C 	0.01650 0.69570 0.39840 -0.13500
H 	H 	0.03630 0.64070 0.39140 0.07700
C 	C 	0.03010 0.79620 0.38300 0.08600
C 	C 	0.00050 0.87730 0.38770 -0.12900
H 	H 	0.00940 0.94490 0.37380 0.08400
C 	C 	0.95670 0.85860 0.41360 0.04300
H 	H 	0.93680 0.91400 0.41850 0.03000
C 	C 	0.07790 0.81130 0.36270 -0.01800
H 	H 	0.09500 0.74700 0.34600 0.04300
C 	C 	0.24440 0.05730 0.44780 0.41300
C 	C 	0.21470 0.98640 0.38800 -0.12500
C 	C 	0.16830 0.98100 0.39720 -0.04100
H 	H 	0.15540 0.02510 0.44030 0.05000
C 	C 	0.14160 0.90970 0.34190 0.06200
C 	C 	0.16020 0.84810 0.27360 -0.03800
H 	H 	0.14200 0.80180 0.23580 0.06500
C 	C 	0.20630 0.85460 0.26080 -0.11100
C 	C 	0.23370 0.92150 0.32110 0.04700
H 	H 	0.26460 0.92270 0.31660 0.03500
C 	C 	0.22630 0.79180 0.18360 0.43200
C 	C 	0.38760 0.02990 0.68070 0.02600
H 	H 	0.41310 0.06340 0.66220 0.00400
C 	C 	0.38720 0.95500 0.75260 -0.00900
H 	H 	0.41190 0.93200 0.79300 0.04500
C 	C 	0.31990 0.97640 0.68620 0.11400
H 	H 	0.28900 0.96760 0.67170 -0.00500
N 	N 	0.09520 0.90320 0.35700 -0.11400
N 	N 	0.34530 0.04690 0.64150 -0.23000
N 	N 	0.34480 0.92180 0.75320 -0.11100
O 	O 	0.88363 0.64650 0.47020 -0.41000
O 	O 	0.87290 0.81540 0.48270 -0.41500
O 	O 	0.28510 0.03600 0.46520 -0.43500
O 	O 	0.22827 0.14260 0.47770 -0.56200
O 	O 	0.20194 0.72650 0.13610 -0.44400
O 	O 	0.26710 0.81200 0.17070 -0.49100
Eu	Eu	0.31342 0.19945 0.53791 1.88500
C 	C 	0.39680 0.76180 0.96290 0.32400
C 	C 	0.44320 0.74180 0.93170 -0.10800
C 	C 	0.47330 0.82520 0.92450 0.04100
H 	H 	0.46460 0.89330 0.93690 0.02400
C 	C 	0.51650 0.80430 0.89840 -0.13500
H 	H 	0.53630 0.85930 0.89140 0.07700
C 	C 	0.53010 0.70380 0.88300 0.08700
C 	C 	0.50050 0.62270 0.88770 -0.12900
H 	H 	0.50940 0.55510 0.87380 0.08400
C 	C 	0.45670 0.64140 0.91360 0.04300
H 	H 	0.43680 0.58600 0.91850 0.03000
C 	C 	0.57790 0.68870 0.86270 -0.01800
H 	H 	0.59500 0.75300 0.84600 0.04300
C 	C 	0.74440 0.44270 0.94780 0.41200
C 	C 	0.71470 0.51360 0.88800 -0.12400
C 	C 	0.66830 0.51900 0.89720 -0.04000
H 	H 	0.65540 0.47490 0.94030 0.05000
C 	C 	0.64160 0.59030 0.84190 0.06200
C 	C 	0.66020 0.65190 0.77360 -0.03800
H 	H 	0.64200 0.69820 0.73580 0.06500
C 	C 	0.70630 0.64540 0.76080 -0.11100
C 	C 	0.73370 0.57850 0.82110 0.04700
H 	H 	0.76460 0.57730 0.81660 0.03500
C 	C 	0.72630 0.70820 0.68360 0.43200
C 	C 	0.88760 0.47010 0.18070 0.02700
H 	H 	0.91310 0.43660 0.16220 0.00400
C 	C 	0.88720 0.54500 0.25260 -0.00900
H 	H 	0.91190 0.56800 0.29300 0.04500
C 	C 	0.81990 0.52360 0.18620 0.11400
H 	H 	0.78900 0.53240 0.17170 -0.00500
N 	N 	0.59520 0.59680 0.85700 -0.11400
N 	N 	0.84530 0.45310 0.14150 -0.23000
N 	N 	0.84480 0.57820 0.25320 -0.11100
O 	O 	0.38363 0.85350 0.97020 -0.41000
O 	O 	0.37290 0.68460 0.98270 -0.41500
O 	O 	0.78510 0.46400 0.96520 -0.43500
O 	O 	0.72827 0.35740 0.97770 -0.56200
O 	O 	0.70194 0.77350 0.63610 -0.44400
O 	O 	0.76710 0.68800 0.67070 -0.49100
Eu	Eu	0.81342 0.30055 0.03791 1.88500
C 	C 	0.89680 0.26180 0.96290 0.32400
C 	C 	0.94320 0.24180 0.93170 -0.10900
C 	C 	0.97330 0.32520 0.92450 0.04300
H 	H 	0.96460 0.39330 0.93690 0.02400
C 	C 	0.01650 0.30430 0.89840 -0.13700
H 	H 	0.03630 0.35930 0.89140 0.07800
C 	C 	0.03010 0.20380 0.88300 0.08800
C 	C 	0.00050 0.12270 0.88770 -0.13200
H 	H 	0.00940 0.05510 0.87380 0.08500
C 	C 	0.95670 0.14140 0.91360 0.04500
H 	H 	0.93680 0.08600 0.91850 0.03000
C 	C 	0.07790 0.18870 0.86270 -0.01900
H 	H 	0.09500 0.25300 0.84600 0.04300
C 	C 	0.24440 0.94270 0.94780 0.41300
C 	C 	0.21470 0.01360 0.88800 -0.12500
C 	C 	0.16830 0.01900 0.89720 -0.04200
H 	H 	0.15540 0.97490 0.94030 0.05100
C 	C 	0.14160 0.09030 0.84190 0.06300
C 	C 	0.16020 0.15190 0.77360 -0.03800
H 	H 	0.14200 0.19820 0.73580 0.06500
C 	C 	0.20630 0.14540 0.76080 -0.11100
C 	C 	0.23370 0.07850 0.82110 0.04700
H 	H 	0.26460 0.07730 0.81660 0.03400
C 	C 	0.22630 0.20820 0.68360 0.43200
C 	C 	0.38760 0.97010 0.18070 0.02600
H 	H 	0.41310 0.93660 0.16220 0.00400
C 	C 	0.38720 0.04500 0.25260 -0.00900
H 	H 	0.41190 0.06800 0.29300 0.04500
C 	C 	0.31990 0.02360 0.18620 0.11400
H 	H 	0.28900 0.03240 0.17170 -0.00500
N 	N 	0.09520 0.09680 0.85700 -0.11400
N 	N 	0.34530 0.95310 0.14150 -0.23000
N 	N 	0.34480 0.07820 0.25320 -0.11100
O 	O 	0.88363 0.35350 0.97020 -0.41000
O 	O 	0.87290 0.18460 0.98270 -0.41500
O 	O 	0.28510 0.96400 0.96520 -0.43500
O 	O 	0.22827 0.85740 0.97770 -0.56200
O 	O 	0.20194 0.27350 0.63610 -0.44400
O 	O 	0.26710 0.18800 0.67070 -0.49100
Eu	Eu	0.31342 0.80055 0.03791 1.88400
C 	C 	0.60320 0.76180 0.53710 0.32400
C 	C 	0.55680 0.74180 0.56830 -0.10800
C 	C 	0.52670 0.82520 0.57550 0.04100
H 	H 	0.53540 0.89330 0.56310 0.02400
C 	C 	0.48350 0.80430 0.60160 -0.13500
H 	H 	0.46370 0.85930 0.60860 0.07700
C 	C 	0.46990 0.70380 0.61700 0.08700
C 	C 	0.49950 0.62270 0.61230 -0.13000
H 	H 	0.49060 0.55510 0.62620 0.08400
C 	C 	0.54330 0.64140 0.58640 0.04300
H 	H 	0.56320 0.58600 0.58150 0.03000
C 	C 	0.42210 0.68870 0.63730 -0.01800
H 	H 	0.40500 0.75300 0.65400 0.04300
C 	C 	0.25560 0.44270 0.55220 0.41200
C 	C 	0.28530 0.51360 0.61200 -0.12400
C 	C 	0.33170 0.51900 0.60280 -0.04000
H 	H 	0.34460 0.47490 0.55970 0.05000
C 	C 	0.35840 0.59030 0.65810 0.06200
C 	C 	0.33980 0.65190 0.72640 -0.03800
H 	H 	0.35800 0.69820 0.76420 0.06500
C 	C 	0.29370 0.64540 0.73920 -0.11100
C 	C 	0.26630 0.57850 0.67890 0.04700
H 	H 	0.23540 0.57730 0.68340 0.03500
C 	C 	0.27370 0.70820 0.81640 0.43200
C 	C 	0.11240 0.47010 0.31930 0.02700
H 	H 	0.08690 0.43660 0.33780 0.00400
C 	C 	0.11280 0.54500 0.24740 -0.00900
H 	H 	0.08810 0.56800 0.20700 0.04500
C 	C 	0.18010 0.52360 0.31380 0.11400
H 	H 	0.21100 0.53240 0.32830 -0.00500
N 	N 	0.40480 0.59680 0.64300 -0.11400
N 	N 	0.15470 0.45310 0.35850 -0.23000
N 	N 	0.15520 0.57820 0.24680 -0.11100
O 	O 	0.61637 0.85350 0.52980 -0.41000
O 	O 	0.62710 0.68460 0.51730 -0.41500
O 	O 	0.21490 0.46400 0.53480 -0.43500
O 	O 	0.27173 0.35740 0.52230 -0.56200
O 	O 	0.29806 0.77350 0.86390 -0.44400
O 	O 	0.23290 0.68800 0.82930 -0.49100
Eu	Eu	0.18658 0.30055 0.46209 1.88500
C 	C 	0.10320 0.26180 0.53710 0.32400
C 	C 	0.05680 0.24180 0.56830 -0.10800
C 	C 	0.02670 0.32520 0.57550 0.04100
H 	H 	0.03540 0.39330 0.56310 0.02400
C 	C 	0.98350 0.30430 0.60160 -0.13500
H 	H 	0.96370 0.35930 0.60860 0.07700
C 	C 	0.96990 0.20380 0.61700 0.08600
C 	C 	0.99950 0.12270 0.61230 -0.12900
H 	H 	0.99060 0.05510 0.62620 0.08400
C 	C 	0.04330 0.14140 0.58640 0.04300
H 	H 	0.06320 0.08600 0.58150 0.03000
C 	C 	0.92210 0.18870 0.63730 -0.01800
H 	H 	0.90500 0.25300 0.65400 0.04300
C 	C 	0.75560 0.94270 0.55220 0.41300
C 	C 	0.78530 0.01360 0.61200 -0.12500
C 	C 	0.83170 0.01900 0.60280 -0.04100
H 	H 	0.84460 0.97490 0.55970 0.05000
C 	C 	0.85840 0.09030 0.65810 0.06200
C 	C 	0.83980 0.15190 0.72640 -0.03800
H 	H 	0.85800 0.19820 0.76420 0.06500
C 	C 	0.79370 0.14540 0.73920 -0.11100
C 	C 	0.76630 0.07850 0.67890 0.04700
H 	H 	0.73540 0.07730 0.68340 0.03500
C 	C 	0.77370 0.20820 0.81640 0.43200
C 	C 	0.61240 0.97010 0.31930 0.02600
H 	H 	0.58690 0.93660 0.33780 0.00400
C 	C 	0.61280 0.04500 0.24740 -0.00900
H 	H 	0.58810 0.06800 0.20700 0.04500
C 	C 	0.68010 0.02360 0.31380 0.11400
H 	H 	0.71100 0.03240 0.32830 -0.00500
N 	N 	0.90480 0.09680 0.64300 -0.11400
N 	N 	0.65470 0.95310 0.35850 -0.23000
N 	N 	0.65520 0.07820 0.24680 -0.11100
O 	O 	0.11637 0.35350 0.52980 -0.41000
O 	O 	0.12710 0.18460 0.51730 -0.41500
O 	O 	0.71490 0.96400 0.53480 -0.43500
O 	O 	0.77173 0.85740 0.52230 -0.56200
O 	O 	0.79806 0.27350 0.86390 -0.44400
O 	O 	0.73290 0.18800 0.82930 -0.49100
Eu	Eu	0.68658 0.80055 0.46209 1.88500
