data_crystal

_cell_length_a 29.54670
_cell_length_b 12.96850
_cell_length_c 14.23610
_cell_angle_alpha 90.00000
_cell_angle_beta  94.61000
_cell_angle_gamma 90.00000

_symmetry_space_group_name_	'P 1'
_symmetry_space_group_name_H-M	'P 1'

loop_
_symmetry_equiv_pos_as_xyz
  x,y,z

loop_
_atom_site_label
_atom_site_type_symbol
_atom_site_fract_x
_atom_site_fract_y
_atom_site_fract_z
_atom_site_charge
Eu	Eu	0.18659 0.70005 0.96755 1.82900
C 	C 	0.10230 0.74470 0.04060 0.32500
C 	C 	0.05730 0.76820 0.07760 -0.11600
C 	C 	0.03100 0.68940 0.10840 0.04500
H 	H 	0.04280 0.62290 0.11310 0.02100
C 	C 	0.98690 0.70750 0.13280 -0.13400
H 	H 	0.96880 0.65320 0.15050 0.07000
C 	C 	0.97020 0.80720 0.13020 0.08000
C 	C 	0.99750 0.88730 0.10200 -0.13000
H 	H 	0.98650 0.95460 0.10060 0.08200
C 	C 	0.04060 0.86740 0.07620 0.04800
H 	H 	0.05860 0.92140 0.05760 0.02600
C 	C 	0.92290 0.82330 0.15070 -0.01700
C 	C 	0.75480 0.06560 0.06510 0.40700
C 	C 	0.78444 0.99390 0.12450 -0.13000
C 	C 	0.83050 0.98820 0.11200 -0.03900
H 	H 	0.84320 0.03080 0.06870 0.04900
C 	C 	0.85730 0.91840 0.16480 0.05500
C 	C 	0.83830 0.85960 0.23320 -0.02700
H 	H 	0.85640 0.81390 0.26990 0.05700
C 	C 	0.79241 0.86830 0.24730 -0.13400
C 	C 	0.76540 0.93450 0.19160 0.06100
H 	H 	0.73450 0.93910 0.19920 0.02000
C 	C 	0.77270 0.80890 0.32510 0.46100
N 	N 	0.90395 0.91190 0.14790 -0.11400
O 	O 	0.12504 0.81680 0.00870 -0.41900
O 	O 	0.11669 0.65320 0.04310 -0.41800
O 	O 	0.71319 0.04490 0.05030 -0.44600
O 	O 	0.77096 0.14610 0.02960 -0.56100
O 	O 	0.79815 0.74600 0.37010 -0.46500
O 	O 	0.73256 0.82880 0.34080 -0.52000
H 	H 	0.91100 0.75600 0.16300 0.03500
Eu	Eu	0.68659 0.20005 0.96755 1.82600
C 	C 	0.60230 0.24470 0.04060 0.32300
C 	C 	0.55730 0.26820 0.07760 -0.11400
C 	C 	0.53100 0.18940 0.10840 0.04300
H 	H 	0.54280 0.12290 0.11310 0.02200
C 	C 	0.48690 0.20750 0.13280 -0.13100
H 	H 	0.46880 0.15320 0.15050 0.06900
C 	C 	0.47020 0.30720 0.13020 0.07800
C 	C 	0.49750 0.38730 0.10200 -0.12700
H 	H 	0.48650 0.45460 0.10060 0.08200
C 	C 	0.54060 0.36740 0.07620 0.04600
H 	H 	0.55860 0.42140 0.05760 0.02700
C 	C 	0.42290 0.32330 0.15070 -0.01600
C 	C 	0.25480 0.56560 0.06510 0.40600
C 	C 	0.28444 0.49390 0.12450 -0.13000
C 	C 	0.33050 0.48820 0.11200 -0.03700
H 	H 	0.34320 0.53080 0.06870 0.04800
C 	C 	0.35730 0.41840 0.16480 0.05500
C 	C 	0.33830 0.35960 0.23320 -0.02700
H 	H 	0.35640 0.31390 0.26990 0.05700
C 	C 	0.29241 0.36830 0.24730 -0.13400
C 	C 	0.26540 0.43450 0.19160 0.06100
H 	H 	0.23450 0.43910 0.19920 0.02100
C 	C 	0.27270 0.30890 0.32510 0.46100
N 	N 	0.40395 0.41190 0.14790 -0.11400
O 	O 	0.62504 0.31680 0.00870 -0.41800
O 	O 	0.61669 0.15320 0.04310 -0.41700
O 	O 	0.21319 0.54490 0.05030 -0.44600
O 	O 	0.27096 0.64610 0.02960 -0.56100
O 	O 	0.29815 0.24600 0.37010 -0.46500
O 	O 	0.23256 0.32880 0.34080 -0.52000
H 	H 	0.41100 0.25600 0.16300 0.03500
Eu	Eu	0.81341 0.70005 0.53245 1.82800
C 	C 	0.89770 0.74470 0.45940 0.32300
C 	C 	0.94270 0.76820 0.42240 -0.11400
C 	C 	0.96900 0.68940 0.39160 0.04200
H 	H 	0.95720 0.62290 0.38690 0.02200
C 	C 	0.01310 0.70750 0.36720 -0.13100
H 	H 	0.03120 0.65320 0.34950 0.06900
C 	C 	0.02980 0.80720 0.36980 0.07800
C 	C 	0.00250 0.88730 0.39800 -0.12700
H 	H 	0.01350 0.95460 0.39940 0.08100
C 	C 	0.95940 0.86740 0.42380 0.04500
H 	H 	0.94140 0.92140 0.44240 0.02700
C 	C 	0.07710 0.82330 0.34930 -0.01600
C 	C 	0.24520 0.06560 0.43490 0.40600
C 	C 	0.21556 0.99390 0.37550 -0.13000
C 	C 	0.16950 0.98820 0.38800 -0.03700
H 	H 	0.15680 0.03080 0.43130 0.04800
C 	C 	0.14270 0.91840 0.33520 0.05500
C 	C 	0.16170 0.85960 0.26680 -0.02700
H 	H 	0.14360 0.81390 0.23010 0.05700
C 	C 	0.20759 0.86830 0.25270 -0.13400
C 	C 	0.23460 0.93450 0.30840 0.06100
H 	H 	0.26550 0.93910 0.30080 0.02000
C 	C 	0.22730 0.80890 0.17490 0.46100
N 	N 	0.09605 0.91190 0.35210 -0.11400
O 	O 	0.87496 0.81680 0.49130 -0.41900
O 	O 	0.88331 0.65320 0.45690 -0.41800
O 	O 	0.28681 0.04490 0.44970 -0.44700
O 	O 	0.22904 0.14610 0.47040 -0.56100
O 	O 	0.20185 0.74600 0.12990 -0.46500
O 	O 	0.26744 0.82880 0.15920 -0.52000
H 	H 	0.08900 0.75600 0.33700 0.03500
Eu	Eu	0.31341 0.20005 0.53245 1.82700
C 	C 	0.39770 0.24470 0.45940 0.32300
C 	C 	0.44270 0.26820 0.42240 -0.11400
C 	C 	0.46900 0.18940 0.39160 0.04300
H 	H 	0.45720 0.12290 0.38690 0.02200
C 	C 	0.51310 0.20750 0.36720 -0.13100
H 	H 	0.53120 0.15320 0.34950 0.06900
C 	C 	0.52980 0.30720 0.36980 0.07800
C 	C 	0.50250 0.38730 0.39800 -0.12800
H 	H 	0.51350 0.45460 0.39940 0.08200
C 	C 	0.45940 0.36740 0.42380 0.04600
H 	H 	0.44140 0.42140 0.44240 0.02700
C 	C 	0.57710 0.32330 0.34930 -0.01600
C 	C 	0.74520 0.56560 0.43490 0.40600
C 	C 	0.71556 0.49390 0.37550 -0.13000
C 	C 	0.66950 0.48820 0.38800 -0.03700
H 	H 	0.65680 0.53080 0.43130 0.04800
C 	C 	0.64270 0.41840 0.33520 0.05500
C 	C 	0.66170 0.35960 0.26680 -0.02700
H 	H 	0.64360 0.31390 0.23010 0.05700
C 	C 	0.70759 0.36830 0.25270 -0.13400
C 	C 	0.73460 0.43450 0.30840 0.06100
H 	H 	0.76550 0.43910 0.30080 0.02000
C 	C 	0.72730 0.30890 0.17490 0.46100
N 	N 	0.59605 0.41190 0.35210 -0.11400
O 	O 	0.37496 0.31680 0.49130 -0.41900
O 	O 	0.38331 0.15320 0.45690 -0.41800
O 	O 	0.78681 0.54490 0.44970 -0.44700
O 	O 	0.72904 0.64610 0.47040 -0.56100
O 	O 	0.70185 0.24600 0.12990 -0.46500
O 	O 	0.76744 0.32880 0.15920 -0.52000
H 	H 	0.58900 0.25600 0.33700 0.03500
Eu	Eu	0.81341 0.29995 0.03245 1.82800
C 	C 	0.89770 0.25530 0.95940 0.32400
C 	C 	0.94270 0.23180 0.92240 -0.11600
C 	C 	0.96900 0.31060 0.89160 0.04500
H 	H 	0.95720 0.37710 0.88690 0.02100
C 	C 	0.01310 0.29250 0.86720 -0.13400
H 	H 	0.03120 0.34680 0.84950 0.07000
C 	C 	0.02980 0.19280 0.86980 0.08000
C 	C 	0.00250 0.11270 0.89800 -0.13000
H 	H 	0.01350 0.04540 0.89940 0.08200
C 	C 	0.95940 0.13260 0.92380 0.04800
H 	H 	0.94140 0.07860 0.94240 0.02600
C 	C 	0.07710 0.17670 0.84930 -0.01700
C 	C 	0.24520 0.93440 0.93490 0.40700
C 	C 	0.21556 0.00610 0.87550 -0.13000
C 	C 	0.16950 0.01180 0.88800 -0.03900
H 	H 	0.15680 0.96920 0.93130 0.04900
C 	C 	0.14270 0.08160 0.83520 0.05500
C 	C 	0.16170 0.14040 0.76680 -0.02700
H 	H 	0.14360 0.18610 0.73010 0.05700
C 	C 	0.20759 0.13170 0.75270 -0.13400
C 	C 	0.23460 0.06550 0.80840 0.06100
H 	H 	0.26550 0.06090 0.80080 0.02000
C 	C 	0.22730 0.19110 0.67490 0.46100
N 	N 	0.09605 0.08810 0.85210 -0.11400
O 	O 	0.87496 0.18320 0.99130 -0.41900
O 	O 	0.88331 0.34680 0.95690 -0.41800
O 	O 	0.28681 0.95510 0.94970 -0.44600
O 	O 	0.22904 0.85390 0.97040 -0.56100
O 	O 	0.20185 0.25400 0.62990 -0.46500
O 	O 	0.26744 0.17120 0.65920 -0.52000
H 	H 	0.08900 0.24400 0.83700 0.03500
Eu	Eu	0.31341 0.79995 0.03245 1.82600
C 	C 	0.39770 0.75530 0.95940 0.32300
C 	C 	0.44270 0.73180 0.92240 -0.11400
C 	C 	0.46900 0.81060 0.89160 0.04300
H 	H 	0.45720 0.87710 0.88690 0.02200
C 	C 	0.51310 0.79250 0.86720 -0.13100
H 	H 	0.53120 0.84680 0.84950 0.06900
C 	C 	0.52980 0.69280 0.86980 0.07800
C 	C 	0.50250 0.61270 0.89800 -0.12700
H 	H 	0.51350 0.54540 0.89940 0.08200
C 	C 	0.45940 0.63260 0.92380 0.04600
H 	H 	0.44140 0.57860 0.94240 0.02700
C 	C 	0.57710 0.67670 0.84930 -0.01600
C 	C 	0.74520 0.43440 0.93490 0.40600
C 	C 	0.71556 0.50610 0.87550 -0.13000
C 	C 	0.66950 0.51180 0.88800 -0.03700
H 	H 	0.65680 0.46920 0.93130 0.04800
C 	C 	0.64270 0.58160 0.83520 0.05500
C 	C 	0.66170 0.64040 0.76680 -0.02700
H 	H 	0.64360 0.68610 0.73010 0.05700
C 	C 	0.70759 0.63170 0.75270 -0.13400
C 	C 	0.73460 0.56550 0.80840 0.06100
H 	H 	0.76550 0.56090 0.80080 0.02100
C 	C 	0.72730 0.69110 0.67490 0.46100
N 	N 	0.59605 0.58810 0.85210 -0.11400
O 	O 	0.37496 0.68320 0.99130 -0.41800
O 	O 	0.38331 0.84680 0.95690 -0.41700
O 	O 	0.78681 0.45510 0.94970 -0.44600
O 	O 	0.72904 0.35390 0.97040 -0.56100
O 	O 	0.70185 0.75400 0.62990 -0.46500
O 	O 	0.76744 0.67120 0.65920 -0.52000
H 	H 	0.58900 0.74400 0.83700 0.03500
Eu	Eu	0.18659 0.29995 0.46755 1.82800
C 	C 	0.10230 0.25530 0.54060 0.32300
C 	C 	0.05730 0.23180 0.57760 -0.11400
C 	C 	0.03100 0.31060 0.60840 0.04200
H 	H 	0.04280 0.37710 0.61310 0.02200
C 	C 	0.98690 0.29250 0.63280 -0.13100
H 	H 	0.96880 0.34680 0.65050 0.06900
C 	C 	0.97020 0.19280 0.63020 0.07800
C 	C 	0.99750 0.11270 0.60200 -0.12700
H 	H 	0.98650 0.04540 0.60060 0.08100
C 	C 	0.04060 0.13260 0.57620 0.04500
H 	H 	0.05860 0.07860 0.55760 0.02700
C 	C 	0.92290 0.17670 0.65070 -0.01600
C 	C 	0.75480 0.93440 0.56510 0.40600
C 	C 	0.78444 0.00610 0.62450 -0.13000
C 	C 	0.83050 0.01180 0.61200 -0.03700
H 	H 	0.84320 0.96920 0.56870 0.04800
C 	C 	0.85730 0.08160 0.66480 0.05500
C 	C 	0.83830 0.14040 0.73320 -0.02700
H 	H 	0.85640 0.18610 0.76990 0.05700
C 	C 	0.79241 0.13170 0.74730 -0.13400
C 	C 	0.76540 0.06550 0.69160 0.06100
H 	H 	0.73450 0.06090 0.69920 0.02000
C 	C 	0.77270 0.19110 0.82510 0.46100
N 	N 	0.90395 0.08810 0.64790 -0.11400
O 	O 	0.12504 0.18320 0.50870 -0.41900
O 	O 	0.11669 0.34680 0.54310 -0.41800
O 	O 	0.71319 0.95510 0.55030 -0.44700
O 	O 	0.77096 0.85390 0.52960 -0.56100
O 	O 	0.79815 0.25400 0.87010 -0.46500
O 	O 	0.73256 0.17120 0.84080 -0.52000
H 	H 	0.91100 0.24400 0.66300 0.03500
Eu	Eu	0.68659 0.79995 0.46755 1.82700
C 	C 	0.60230 0.75530 0.54060 0.32300
C 	C 	0.55730 0.73180 0.57760 -0.11400
C 	C 	0.53100 0.81060 0.60840 0.04300
H 	H 	0.54280 0.87710 0.61310 0.02200
C 	C 	0.48690 0.79250 0.63280 -0.13100
H 	H 	0.46880 0.84680 0.65050 0.06900
C 	C 	0.47020 0.69280 0.63020 0.07800
C 	C 	0.49750 0.61270 0.60200 -0.12800
H 	H 	0.48650 0.54540 0.60060 0.08200
C 	C 	0.54060 0.63260 0.57620 0.04600
H 	H 	0.55860 0.57860 0.55760 0.02700
C 	C 	0.42290 0.67670 0.65070 -0.01600
C 	C 	0.25480 0.43440 0.56510 0.40600
C 	C 	0.28444 0.50610 0.62450 -0.13000
C 	C 	0.33050 0.51180 0.61200 -0.03700
H 	H 	0.34320 0.46920 0.56870 0.04800
C 	C 	0.35730 0.58160 0.66480 0.05500
C 	C 	0.33830 0.64040 0.73320 -0.02700
H 	H 	0.35640 0.68610 0.76990 0.05700
C 	C 	0.29241 0.63170 0.74730 -0.13400
C 	C 	0.26540 0.56550 0.69160 0.06100
H 	H 	0.23450 0.56090 0.69920 0.02000
C 	C 	0.27270 0.69110 0.82510 0.46100
N 	N 	0.40395 0.58810 0.64790 -0.11400
O 	O 	0.62504 0.68320 0.50870 -0.41900
O 	O 	0.61669 0.84680 0.54310 -0.41800
O 	O 	0.21319 0.45510 0.55030 -0.44700
O 	O 	0.27096 0.35390 0.52960 -0.56100
O 	O 	0.29815 0.75400 0.87010 -0.46500
O 	O 	0.23256 0.67120 0.84080 -0.52000
H 	H 	0.41100 0.74400 0.66300 0.03500
