data_crystal

_cell_length_a 29.05530
_cell_length_b 14.11520
_cell_length_c 13.49910
_cell_angle_alpha 90.00000
_cell_angle_beta  97.91200
_cell_angle_gamma 90.00000

_symmetry_space_group_name_	'P 1'
_symmetry_space_group_name_H-M	'P 1'

loop_
_symmetry_equiv_pos_as_xyz
  x,y,z

loop_
_atom_site_label
_atom_site_type_symbol
_atom_site_fract_x
_atom_site_fract_y
_atom_site_fract_z
_atom_site_charge
Eu	Eu	0.18434 0.70591 0.46130 1.83600
C 	C 	0.09840 0.75220 0.52600 0.33200
C 	C 	0.05400 0.77680 0.56520 -0.11700
C 	C 	0.03820 0.87040 0.56430 0.05500
H 	H 	0.05690 0.91830 0.54460 0.02500
C 	C 	0.99710 0.89310 0.59080 -0.13200
H 	H 	0.98680 0.95550 0.58660 0.08300
C 	C 	0.96950 0.82200 0.62510 0.07600
C 	C 	0.98460 0.73250 0.62890 -0.13300
H 	H 	0.96650 0.68560 0.65260 0.07300
C 	C 	0.02750 0.70720 0.59780 0.04500
H 	H 	0.03740 0.64440 0.59960 0.02000
C 	C 	0.92180 0.83920 0.65080 0.02200
C 	C 	0.75370 0.07960 0.57480 0.41900
C 	C 	0.78380 0.00820 0.62840 -0.14000
C 	C 	0.83040 0.00020 0.61850 -0.02800
H 	H 	0.84330 0.04250 0.57730 0.04700
C 	C 	0.85780 0.93230 0.66720 0.05300
C 	C 	0.83970 0.87440 0.73940 -0.02600
H 	H 	0.85870 0.83140 0.77800 0.05800
C 	C 	0.79380 0.88350 0.75060 -0.12600
C 	C 	0.76550 0.94970 0.69660 0.05800
H 	H 	0.73450 0.95520 0.70570 0.02000
C 	C 	0.77380 0.82340 0.82720 0.44200
N 	N 	0.90470 0.92200 0.64710 -0.12000
O 	O 	0.11360 0.66890 0.54110 -0.41200
O 	O 	0.12020 0.81370 0.48600 -0.43000
O 	O 	0.71070 0.06480 0.55360 -0.45500
O 	O 	0.77120 0.15560 0.54550 -0.55900
O 	O 	0.73270 0.84090 0.84280 -0.51300
O 	O 	0.80030 0.76160 0.87290 -0.46700
Eu	Eu	0.68434 0.20591 0.46130 1.83400
C 	C 	0.59840 0.25220 0.52600 0.33100
C 	C 	0.55400 0.27680 0.56520 -0.11900
C 	C 	0.53820 0.37040 0.56430 0.05400
H 	H 	0.55690 0.41830 0.54460 0.02300
C 	C 	0.49710 0.39310 0.59080 -0.13400
H 	H 	0.48680 0.45550 0.58660 0.08300
C 	C 	0.46950 0.32200 0.62510 0.07600
C 	C 	0.48460 0.23250 0.62890 -0.13400
H 	H 	0.46650 0.18560 0.65260 0.07300
C 	C 	0.52750 0.20720 0.59780 0.04500
H 	H 	0.53740 0.14440 0.59960 0.02000
C 	C 	0.42180 0.33920 0.65080 0.02200
C 	C 	0.25370 0.57960 0.57480 0.41900
C 	C 	0.28380 0.50820 0.62840 -0.14100
C 	C 	0.33040 0.50020 0.61850 -0.02900
H 	H 	0.34330 0.54250 0.57730 0.04700
C 	C 	0.35780 0.43230 0.66720 0.05400
C 	C 	0.33970 0.37440 0.73940 -0.02600
H 	H 	0.35870 0.33140 0.77800 0.05800
C 	C 	0.29380 0.38350 0.75060 -0.12600
C 	C 	0.26550 0.44970 0.69660 0.05900
H 	H 	0.23450 0.45520 0.70570 0.02000
C 	C 	0.27380 0.32340 0.82720 0.44200
N 	N 	0.40470 0.42200 0.64710 -0.12000
O 	O 	0.61360 0.16890 0.54110 -0.41200
O 	O 	0.62020 0.31370 0.48600 -0.43000
O 	O 	0.21070 0.56480 0.55360 -0.45500
O 	O 	0.27120 0.65560 0.54550 -0.55900
O 	O 	0.23270 0.34090 0.84280 -0.51300
O 	O 	0.30030 0.26160 0.87290 -0.46600
Eu	Eu	0.81566 0.70591 0.03870 1.83700
C 	C 	0.90160 0.75220 0.97400 0.33000
C 	C 	0.94600 0.77680 0.93480 -0.11900
C 	C 	0.96180 0.87040 0.93570 0.05500
H 	H 	0.94310 0.91830 0.95540 0.02300
C 	C 	0.00290 0.89310 0.90920 -0.13500
H 	H 	0.01320 0.95550 0.91340 0.08300
C 	C 	0.03050 0.82200 0.87490 0.07600
C 	C 	0.01540 0.73250 0.87110 -0.13400
H 	H 	0.03350 0.68560 0.84740 0.07400
C 	C 	0.97250 0.70720 0.90220 0.04600
H 	H 	0.96260 0.64440 0.90040 0.02000
C 	C 	0.07820 0.83920 0.84920 0.02200
C 	C 	0.24630 0.07960 0.92520 0.41900
C 	C 	0.21620 0.00820 0.87160 -0.13900
C 	C 	0.16960 0.00020 0.88150 -0.02600
H 	H 	0.15670 0.04250 0.92270 0.04700
C 	C 	0.14220 0.93230 0.83280 0.05100
C 	C 	0.16030 0.87440 0.76060 -0.02500
H 	H 	0.14130 0.83140 0.72200 0.05800
C 	C 	0.20620 0.88350 0.74940 -0.12600
C 	C 	0.23450 0.94970 0.80340 0.05700
H 	H 	0.26550 0.95520 0.79430 0.02000
C 	C 	0.22620 0.82340 0.67280 0.44200
N 	N 	0.09530 0.92200 0.85290 -0.12000
O 	O 	0.88640 0.66890 0.95890 -0.41200
O 	O 	0.87980 0.81370 0.01400 -0.42900
O 	O 	0.28930 0.06480 0.94640 -0.45400
O 	O 	0.22880 0.15560 0.95450 -0.55800
O 	O 	0.26730 0.84090 0.65720 -0.51300
O 	O 	0.19970 0.76160 0.62710 -0.46700
Eu	Eu	0.31566 0.20591 0.03870 1.83100
C 	C 	0.40160 0.25220 0.97400 0.33300
C 	C 	0.44600 0.27680 0.93480 -0.11900
C 	C 	0.46180 0.37040 0.93570 0.05500
H 	H 	0.44310 0.41830 0.95540 0.02300
C 	C 	0.50290 0.39310 0.90920 -0.13400
H 	H 	0.51320 0.45550 0.91340 0.08300
C 	C 	0.53050 0.32200 0.87490 0.07600
C 	C 	0.51540 0.23250 0.87110 -0.13400
H 	H 	0.53350 0.18560 0.84740 0.07400
C 	C 	0.47250 0.20720 0.90220 0.04600
H 	H 	0.46260 0.14440 0.90040 0.02000
C 	C 	0.57820 0.33920 0.84920 0.02200
C 	C 	0.74630 0.57960 0.92520 0.41900
C 	C 	0.71620 0.50820 0.87160 -0.14100
C 	C 	0.66960 0.50020 0.88150 -0.02900
H 	H 	0.65670 0.54250 0.92270 0.04800
C 	C 	0.64220 0.43230 0.83280 0.05400
C 	C 	0.66030 0.37440 0.76060 -0.02600
H 	H 	0.64130 0.33140 0.72200 0.05800
C 	C 	0.70620 0.38350 0.74940 -0.12600
C 	C 	0.73450 0.44970 0.80340 0.05900
H 	H 	0.76550 0.45520 0.79430 0.02000
C 	C 	0.72620 0.32340 0.67280 0.44200
N 	N 	0.59530 0.42200 0.85290 -0.12000
O 	O 	0.38640 0.16890 0.95890 -0.41100
O 	O 	0.37980 0.31370 0.01400 -0.43100
O 	O 	0.78930 0.56480 0.94640 -0.45500
O 	O 	0.72880 0.65560 0.95450 -0.55900
O 	O 	0.76730 0.34090 0.65720 -0.51300
O 	O 	0.69970 0.26160 0.62710 -0.46700
Eu	Eu	0.81566 0.29409 0.53870 1.83500
C 	C 	0.90160 0.24780 0.47400 0.33100
C 	C 	0.94600 0.22320 0.43480 -0.11800
C 	C 	0.96180 0.12960 0.43570 0.05400
H 	H 	0.94310 0.08170 0.45540 0.02400
C 	C 	0.00290 0.10690 0.40920 -0.13300
H 	H 	0.01320 0.04450 0.41340 0.08300
C 	C 	0.03050 0.17800 0.37490 0.07600
C 	C 	0.01540 0.26750 0.37110 -0.13300
H 	H 	0.03350 0.31440 0.34740 0.07300
C 	C 	0.97250 0.29280 0.40220 0.04500
H 	H 	0.96260 0.35560 0.40040 0.02000
C 	C 	0.07820 0.16080 0.34920 0.02200
C 	C 	0.24630 0.92040 0.42520 0.41900
C 	C 	0.21620 0.99180 0.37160 -0.14000
C 	C 	0.16960 0.99980 0.38150 -0.02800
H 	H 	0.15670 0.95750 0.42270 0.04700
C 	C 	0.14220 0.06770 0.33280 0.05300
C 	C 	0.16030 0.12560 0.26060 -0.02600
H 	H 	0.14130 0.16860 0.22200 0.05800
C 	C 	0.20620 0.11650 0.24940 -0.12600
C 	C 	0.23450 0.05030 0.30340 0.05800
H 	H 	0.26550 0.04480 0.29430 0.02000
C 	C 	0.22620 0.17660 0.17280 0.44200
N 	N 	0.09530 0.07800 0.35290 -0.12000
O 	O 	0.88640 0.33110 0.45890 -0.41200
O 	O 	0.87980 0.18630 0.51400 -0.43000
O 	O 	0.28930 0.93520 0.44640 -0.45500
O 	O 	0.22880 0.84440 0.45450 -0.55900
O 	O 	0.26730 0.15910 0.15720 -0.51300
O 	O 	0.19970 0.23840 0.12710 -0.46700
Eu	Eu	0.31566 0.79409 0.53870 1.83400
C 	C 	0.40160 0.74780 0.47400 0.33100
C 	C 	0.44600 0.72320 0.43480 -0.11900
C 	C 	0.46180 0.62960 0.43570 0.05400
H 	H 	0.44310 0.58170 0.45540 0.02300
C 	C 	0.50290 0.60690 0.40920 -0.13400
H 	H 	0.51320 0.54450 0.41340 0.08300
C 	C 	0.53050 0.67800 0.37490 0.07600
C 	C 	0.51540 0.76750 0.37110 -0.13400
H 	H 	0.53350 0.81440 0.34740 0.07300
C 	C 	0.47250 0.79280 0.40220 0.04500
H 	H 	0.46260 0.85560 0.40040 0.02000
C 	C 	0.57820 0.66080 0.34920 0.02200
C 	C 	0.74630 0.42040 0.42520 0.41900
C 	C 	0.71620 0.49180 0.37160 -0.14100
C 	C 	0.66960 0.49980 0.38150 -0.02900
H 	H 	0.65670 0.45750 0.42270 0.04700
C 	C 	0.64220 0.56770 0.33280 0.05400
C 	C 	0.66030 0.62560 0.26060 -0.02600
H 	H 	0.64130 0.66860 0.22200 0.05800
C 	C 	0.70620 0.61650 0.24940 -0.12600
C 	C 	0.73450 0.55030 0.30340 0.05900
H 	H 	0.76550 0.54480 0.29430 0.02000
C 	C 	0.72620 0.67660 0.17280 0.44200
N 	N 	0.59530 0.57800 0.35290 -0.12000
O 	O 	0.38640 0.83110 0.45890 -0.41200
O 	O 	0.37980 0.68630 0.51400 -0.43000
O 	O 	0.78930 0.43520 0.44640 -0.45500
O 	O 	0.72880 0.34440 0.45450 -0.55900
O 	O 	0.76730 0.65910 0.15720 -0.51300
O 	O 	0.69970 0.73840 0.12710 -0.46600
Eu	Eu	0.18434 0.29409 0.96130 1.83700
C 	C 	0.09840 0.24780 0.02600 0.33000
C 	C 	0.05400 0.22320 0.06520 -0.11900
C 	C 	0.03820 0.12960 0.06430 0.05500
H 	H 	0.05690 0.08170 0.04460 0.02300
C 	C 	0.99710 0.10690 0.09080 -0.13500
H 	H 	0.98680 0.04450 0.08660 0.08300
C 	C 	0.96950 0.17800 0.12510 0.07600
C 	C 	0.98460 0.26750 0.12890 -0.13400
H 	H 	0.96650 0.31440 0.15260 0.07400
C 	C 	0.02750 0.29280 0.09780 0.04600
H 	H 	0.03740 0.35560 0.09960 0.02000
C 	C 	0.92180 0.16080 0.15080 0.02200
C 	C 	0.75370 0.92040 0.07480 0.41900
C 	C 	0.78380 0.99180 0.12840 -0.13900
C 	C 	0.83040 0.99980 0.11850 -0.02600
H 	H 	0.84330 0.95750 0.07730 0.04700
C 	C 	0.85780 0.06770 0.16720 0.05100
C 	C 	0.83970 0.12560 0.23940 -0.02500
H 	H 	0.85870 0.16860 0.27800 0.05800
C 	C 	0.79380 0.11650 0.25060 -0.12600
C 	C 	0.76550 0.05030 0.19660 0.05700
H 	H 	0.73450 0.04480 0.20570 0.02000
C 	C 	0.77380 0.17660 0.32720 0.44200
N 	N 	0.90470 0.07800 0.14710 -0.12000
O 	O 	0.11360 0.33110 0.04110 -0.41200
O 	O 	0.12020 0.18630 0.98600 -0.42900
O 	O 	0.71070 0.93520 0.05360 -0.45400
O 	O 	0.77120 0.84440 0.04550 -0.55800
O 	O 	0.73270 0.15910 0.34280 -0.51300
O 	O 	0.80030 0.23840 0.37290 -0.46700
Eu	Eu	0.68434 0.79409 0.96130 1.83100
C 	C 	0.59840 0.74780 0.02600 0.33300
C 	C 	0.55400 0.72320 0.06520 -0.11900
C 	C 	0.53820 0.62960 0.06430 0.05500
H 	H 	0.55690 0.58170 0.04460 0.02300
C 	C 	0.49710 0.60690 0.09080 -0.13400
H 	H 	0.48680 0.54450 0.08660 0.08300
C 	C 	0.46950 0.67800 0.12510 0.07600
C 	C 	0.48460 0.76750 0.12890 -0.13400
H 	H 	0.46650 0.81440 0.15260 0.07400
C 	C 	0.52750 0.79280 0.09780 0.04600
H 	H 	0.53740 0.85560 0.09960 0.02000
C 	C 	0.42180 0.66080 0.15080 0.02200
C 	C 	0.25370 0.42040 0.07480 0.41900
C 	C 	0.28380 0.49180 0.12840 -0.14100
C 	C 	0.33040 0.49980 0.11850 -0.02900
H 	H 	0.34330 0.45750 0.07730 0.04800
C 	C 	0.35780 0.56770 0.16720 0.05400
C 	C 	0.33970 0.62560 0.23940 -0.02600
H 	H 	0.35870 0.66860 0.27800 0.05800
C 	C 	0.29380 0.61650 0.25060 -0.12600
C 	C 	0.26550 0.55030 0.19660 0.05900
H 	H 	0.23450 0.54480 0.20570 0.02000
C 	C 	0.27380 0.67660 0.32720 0.44200
N 	N 	0.40470 0.57800 0.14710 -0.12000
O 	O 	0.61360 0.83110 0.04110 -0.41100
O 	O 	0.62020 0.68630 0.98600 -0.43100
O 	O 	0.21070 0.43520 0.05360 -0.45500
O 	O 	0.27120 0.34440 0.04550 -0.55900
O 	O 	0.23270 0.65910 0.34280 -0.51300
O 	O 	0.30030 0.73840 0.37290 -0.46700
