data_crystal

_cell_length_a 13.69030
_cell_length_b 14.74320
_cell_length_c 15.65180
_cell_angle_alpha 95.22200
_cell_angle_beta  112.94500
_cell_angle_gamma 90.24400

_symmetry_space_group_name_	'P 1'
_symmetry_space_group_name_H-M	'P 1'

loop_
_symmetry_equiv_pos_as_xyz
  x,y,z

loop_
_atom_site_label
_atom_site_type_symbol
_atom_site_fract_x
_atom_site_fract_y
_atom_site_fract_z
_atom_site_charge
C 	C 	0.65360 0.95780 0.30180 0.33400
C 	C 	0.72660 0.91690 0.38470 -0.12800
C 	C 	0.83700 0.92770 0.41370 0.05200
H 	H 	0.86540 0.95840 0.37870 0.02400
C 	C 	0.90400 0.89250 0.49460 -0.13700
H 	H 	0.97710 0.90040 0.51390 0.08400
C 	C 	0.86300 0.84580 0.54690 0.08900
C 	C 	0.75450 0.83480 0.51730 -0.14700
H 	H 	0.72560 0.80450 0.55210 0.08100
C 	C 	0.68920 0.86820 0.43670 0.06500
H 	H 	0.61630 0.85740 0.41650 0.01800
C 	C 	0.93090 0.81400 0.63760 -0.01500
C 	C 	0.33730 0.89330 0.97450 0.45400
C 	C 	0.23740 0.83760 0.91420 -0.13400
C 	C 	0.19720 0.77510 0.95510 0.05500
H 	H 	0.23330 0.76690 0.01780 0.03000
C 	C 	0.10390 0.72530 0.90300 -0.13000
C 	C 	0.04740 0.74150 0.81060 -0.02800
H 	H 	0.98290 0.71000 0.77650 0.05400
C 	C 	0.08570 0.80410 0.76860 0.05100
C 	C 	0.18350 0.84970 0.82120 -0.02500
H 	H 	0.21270 0.88870 0.79310 0.05300
C 	C 	0.06220 0.65500 0.94360 0.44400
C 	C 	0.29750 0.11530 0.18960 0.11000
H 	H 	0.31890 0.16580 0.16880 -0.02400
C 	C 	0.20350 0.11940 0.20980 -0.17800
H 	H 	0.16380 0.17130 0.20180 0.09500
C 	C 	0.17500 0.04510 0.24050 0.10100
H 	H 	0.11390 0.04540 0.25300 -0.00100
C 	C 	0.23360 0.97040 0.25350 -0.18200
H 	H 	0.21560 0.91990 0.27670 0.08800
C 	C 	0.32190 0.97200 0.23070 0.12600
H 	H 	0.36140 0.92000 0.23750 -0.01400
C 	C 	0.88850 0.52070 0.69970 0.32100
C 	C 	0.88660 0.55990 0.61480 -0.11400
C 	C 	0.79170 0.58120 0.54560 0.04100
H 	H 	0.72890 0.57550 0.55480 0.02500
C 	C 	0.78900 0.61050 0.46360 -0.12700
H 	H 	0.72430 0.62210 0.41710 0.08100
C 	C 	0.88220 0.62300 0.45040 0.07400
C 	C 	0.97840 0.60670 0.52210 -0.12800
H 	H 	0.04190 0.61760 0.51540 0.07600
C 	C 	0.98020 0.57490 0.60190 0.04700
H 	H 	0.04490 0.56310 0.64830 0.02700
C 	C 	0.87840 0.65170 0.36100 -0.00200
C 	C 	0.84460 0.59580 0.00580 0.41900
C 	C 	0.80650 0.65840 0.06720 -0.12400
C 	C 	0.83350 0.64380 0.16020 -0.04100
H 	H 	0.88410 0.60190 0.18770 0.05400
C 	C 	0.78440 0.69240 0.21160 0.06000
C 	C 	0.71480 0.75870 0.17140 -0.02600
H 	H 	0.68140 0.79070 0.20560 0.05900
C 	C 	0.69380 0.77840 0.08050 -0.13000
C 	C 	0.73880 0.72610 0.02850 0.06100
H 	H 	0.72330 0.73670 0.96700 0.02200
C 	C 	0.62170 0.85480 0.04240 0.46700
C 	C 	0.65870 0.32900 0.81610 0.11400
H 	H 	0.71180 0.28720 0.83460 -0.02800
C 	C 	0.55520 0.29980 0.79500 -0.17400
H 	H 	0.53900 0.23990 0.80060 0.10100
C 	C 	0.47590 0.36190 0.76550 0.08900
H 	H 	0.40520 0.34430 0.74980 0.00600
C 	C 	0.50450 0.45000 0.76010 -0.17900
H 	H 	0.45360 0.49370 0.74150 0.09100
C 	C 	0.61040 0.47220 0.78290 0.12600
H 	H 	0.62910 0.53160 0.77810 -0.01200
N 	N 	0.02950 0.83160 0.67700 -0.11300
N 	N 	0.35400 0.04240 0.19980 -0.24500
N 	N 	0.79310 0.67200 0.30060 -0.11800
N 	N 	0.68560 0.41430 0.81080 -0.23900
O 	O 	0.55470 0.94140 0.27520 -0.43300
O 	O 	0.68990 0.00690 0.25880 -0.40300
O 	O 	0.35850 0.90810 0.05950 -0.46700
O 	O 	0.39070 0.92710 0.93490 -0.56300
O 	O 	0.97520 0.61550 0.89410 -0.47400
O 	O 	0.11920 0.63950 0.02730 -0.49000
O 	O 	0.97090 0.48840 0.75270 -0.40300
O 	O 	0.80330 0.52130 0.71590 -0.42000
O 	O 	0.92920 0.55400 0.04340 -0.56600
O 	O 	0.78880 0.58400 0.92170 -0.44600
O 	O 	0.57630 0.88800 0.09360 -0.49600
O 	O 	0.61330 0.87980 0.96550 -0.51100
H 	H 	0.89400 0.77200 0.66400 0.03700
H 	H 	0.95200 0.66100 0.36200 0.03100
Eu	Eu	0.50368 0.01880 0.13457 1.90300
Eu	Eu	0.89000 0.47009 0.87100 1.87200
C 	C 	0.34640 0.04220 0.69820 0.33500
C 	C 	0.27340 0.08310 0.61530 -0.12700
C 	C 	0.16300 0.07230 0.58630 0.05300
H 	H 	0.13460 0.04160 0.62130 0.02500
C 	C 	0.09600 0.10750 0.50540 -0.13600
H 	H 	0.02290 0.09960 0.48610 0.08500
C 	C 	0.13700 0.15420 0.45310 0.08900
C 	C 	0.24550 0.16520 0.48270 -0.14700
H 	H 	0.27440 0.19550 0.44790 0.08100
C 	C 	0.31080 0.13180 0.56330 0.06500
H 	H 	0.38370 0.14260 0.58350 0.01800
C 	C 	0.06910 0.18600 0.36240 -0.01500
C 	C 	0.66270 0.10670 0.02550 0.45400
C 	C 	0.76260 0.16240 0.08580 -0.13400
C 	C 	0.80280 0.22490 0.04490 0.05500
H 	H 	0.76670 0.23310 0.98220 0.03000
C 	C 	0.89610 0.27470 0.09700 -0.13000
C 	C 	0.95260 0.25850 0.18940 -0.02800
H 	H 	0.01710 0.29000 0.22350 0.05400
C 	C 	0.91430 0.19590 0.23140 0.05100
C 	C 	0.81650 0.15030 0.17880 -0.02500
H 	H 	0.78730 0.11130 0.20690 0.05300
C 	C 	0.93780 0.34500 0.05640 0.44400
C 	C 	0.70250 0.88470 0.81040 0.11000
H 	H 	0.68110 0.83420 0.83120 -0.02400
C 	C 	0.79650 0.88060 0.79020 -0.17800
H 	H 	0.83620 0.82870 0.79820 0.09500
C 	C 	0.82500 0.95490 0.75950 0.10100
H 	H 	0.88610 0.95460 0.74700 -0.00100
C 	C 	0.76640 0.02960 0.74650 -0.18200
H 	H 	0.78440 0.08010 0.72330 0.08800
C 	C 	0.67810 0.02800 0.76930 0.12600
H 	H 	0.63860 0.08000 0.76250 -0.01400
C 	C 	0.11150 0.47930 0.30030 0.32100
C 	C 	0.11340 0.44010 0.38520 -0.11400
C 	C 	0.20830 0.41880 0.45440 0.04100
H 	H 	0.27110 0.42450 0.44520 0.02500
C 	C 	0.21100 0.38950 0.53640 -0.12700
H 	H 	0.27570 0.37790 0.58290 0.08100
C 	C 	0.11780 0.37700 0.54960 0.07400
C 	C 	0.02160 0.39330 0.47790 -0.12800
H 	H 	0.95810 0.38240 0.48460 0.07600
C 	C 	0.01980 0.42510 0.39810 0.04700
H 	H 	0.95510 0.43690 0.35170 0.02700
C 	C 	0.12160 0.34830 0.63900 -0.00200
C 	C 	0.15540 0.40420 0.99420 0.41900
C 	C 	0.19350 0.34160 0.93280 -0.12400
C 	C 	0.16650 0.35620 0.83980 -0.04100
H 	H 	0.11590 0.39810 0.81230 0.05400
C 	C 	0.21560 0.30760 0.78840 0.06000
C 	C 	0.28520 0.24130 0.82860 -0.02600
H 	H 	0.31860 0.20930 0.79440 0.05900
C 	C 	0.30620 0.22160 0.91950 -0.13000
C 	C 	0.26120 0.27390 0.97150 0.06100
H 	H 	0.27670 0.26330 0.03300 0.02200
C 	C 	0.37830 0.14520 0.95760 0.46700
C 	C 	0.34130 0.67100 0.18390 0.11400
H 	H 	0.28820 0.71280 0.16540 -0.02800
C 	C 	0.44480 0.70020 0.20500 -0.17400
H 	H 	0.46100 0.76010 0.19940 0.10100
C 	C 	0.52410 0.63810 0.23450 0.08900
H 	H 	0.59480 0.65570 0.25020 0.00600
C 	C 	0.49550 0.55000 0.23990 -0.17900
H 	H 	0.54640 0.50630 0.25850 0.09100
C 	C 	0.38960 0.52780 0.21710 0.12600
H 	H 	0.37090 0.46840 0.22190 -0.01200
N 	N 	0.97050 0.16840 0.32300 -0.11300
N 	N 	0.64600 0.95760 0.80020 -0.24500
N 	N 	0.20690 0.32800 0.69940 -0.11800
N 	N 	0.31440 0.58570 0.18920 -0.23900
O 	O 	0.44530 0.05860 0.72480 -0.43300
O 	O 	0.31010 0.99310 0.74120 -0.40300
O 	O 	0.64150 0.09190 0.94050 -0.46700
O 	O 	0.60930 0.07290 0.06510 -0.56300
O 	O 	0.02480 0.38450 0.10590 -0.47400
O 	O 	0.88080 0.36050 0.97270 -0.49000
O 	O 	0.02910 0.51160 0.24730 -0.40300
O 	O 	0.19670 0.47870 0.28410 -0.42000
O 	O 	0.07080 0.44600 0.95660 -0.56600
O 	O 	0.21120 0.41600 0.07830 -0.44600
O 	O 	0.42370 0.11200 0.90640 -0.49600
O 	O 	0.38670 0.12020 0.03450 -0.51100
H 	H 	0.10600 0.22800 0.33600 0.03700
H 	H 	0.04800 0.33900 0.63800 0.03100
Eu	Eu	0.49632 0.98120 0.86543 1.90300
Eu	Eu	0.11000 0.52991 0.12900 1.87200
