data_crystal

_cell_length_a 9.60100
_cell_length_b 9.75700
_cell_length_c 10.70100
_cell_angle_alpha 74.20000
_cell_angle_beta  75.01000
_cell_angle_gamma 88.48000

_symmetry_space_group_name_	'P 1'
_symmetry_space_group_name_H-M	'P 1'

loop_
_symmetry_equiv_pos_as_xyz
  x,y,z

loop_
_atom_site_label
_atom_site_type_symbol
_atom_site_fract_x
_atom_site_fract_y
_atom_site_fract_z
_atom_site_charge
Ga	Ga	0.22340 0.78930 0.83320 2.07800
Ga	Ga	0.47790 0.21710 0.93600 2.07600
Ga	Ga	0.18120 0.95200 0.34260 2.07900
Ga	Ga	0.97680 0.49390 0.86580 2.07400
P 	P 	0.49820 0.97430 0.78730 0.69400
P 	P 	0.28370 0.48150 0.90240 0.61000
P 	P 	0.02350 0.79260 0.64210 0.70000
P 	P 	0.18160 0.78340 0.13240 0.65800
O 	O 	0.17740 0.44600 0.83110 -0.60200
O 	O 	0.41770 0.39340 0.87750 -0.60500
O 	O 	0.18600 0.85580 0.98550 -0.64300
O 	O 	0.43450 0.08350 0.86230 -0.72300
O 	O 	0.38390 0.92230 0.73640 -0.55800
O 	O 	0.34290 0.63720 0.83480 -0.60100
O 	O 	0.98740 0.63470 0.69970 -0.57400
O 	O 	0.09190 0.81760 0.49190 -0.65500
O 	O 	0.04280 0.64400 0.94320 -1.00200
O 	O 	0.22000 0.45960 0.05340 -0.60400
O 	O 	0.12400 0.85440 0.70440 -0.68500
O 	O 	0.33040 0.73210 0.14560 -0.67000
O 	O 	0.14010 0.90210 0.20330 -0.65300
O 	O 	0.62690 0.04090 0.66870 -0.64200
O 	O 	0.55600 0.85040 0.88220 -0.71500
O 	O 	0.07410 0.65870 0.19680 -0.57900
O 	O 	0.88000 0.87060 0.65980 -0.65200
H 	H 	0.96590 0.70430 0.97080 0.19400
Ga	Ga	0.77660 0.21070 0.16680 2.07800
Ga	Ga	0.52210 0.78290 0.06400 2.07600
Ga	Ga	0.81880 0.04800 0.65740 2.07900
Ga	Ga	0.02320 0.50610 0.13420 2.07400
P 	P 	0.50180 0.02570 0.21270 0.69400
P 	P 	0.71630 0.51850 0.09760 0.61000
P 	P 	0.97650 0.20740 0.35790 0.70000
P 	P 	0.81840 0.21660 0.86760 0.65800
O 	O 	0.82260 0.55400 0.16890 -0.60200
O 	O 	0.58230 0.60660 0.12250 -0.60500
O 	O 	0.81400 0.14420 0.01450 -0.64300
O 	O 	0.56550 0.91650 0.13770 -0.72300
O 	O 	0.61610 0.07770 0.26360 -0.55800
O 	O 	0.65710 0.36280 0.16520 -0.60100
O 	O 	0.01260 0.36530 0.30030 -0.57400
O 	O 	0.90810 0.18240 0.50810 -0.65500
O 	O 	0.95720 0.35600 0.05680 -1.00200
O 	O 	0.78000 0.54040 0.94660 -0.60400
O 	O 	0.87600 0.14560 0.29560 -0.68500
O 	O 	0.66960 0.26790 0.85440 -0.67000
O 	O 	0.85990 0.09790 0.79670 -0.65300
O 	O 	0.37310 0.95910 0.33130 -0.64200
O 	O 	0.44400 0.14960 0.11780 -0.71500
O 	O 	0.92590 0.34130 0.80320 -0.57900
O 	O 	0.12000 0.12940 0.34020 -0.65200
H 	H 	0.03410 0.29570 0.02920 0.19400
