data_crystal

_cell_length_a 8.97510
_cell_length_b 24.42780
_cell_length_c 12.00850
_cell_angle_alpha 90.00000
_cell_angle_beta  107.79700
_cell_angle_gamma 90.00000

_symmetry_space_group_name_	'P 1'
_symmetry_space_group_name_H-M	'P 1'

loop_
_symmetry_equiv_pos_as_xyz
  x,y,z

loop_
_atom_site_label
_atom_site_type_symbol
_atom_site_fract_x
_atom_site_fract_y
_atom_site_fract_z
_atom_site_charge
O 	O 	0.35800 0.24990 0.40240 -0.35100
O 	O 	0.33430 0.30540 0.58820 -0.36900
N 	N 	0.62720 0.37247 0.62150 -0.24500
C 	C 	0.72050 0.40850 0.59930 0.05100
H 	H 	0.71990 0.41260 0.52050 0.00600
C 	C 	0.81870 0.44050 0.68150 -0.09300
H 	H 	0.89510 0.46250 0.66270 0.07700
C 	C 	0.80480 0.44078 0.80050 0.11000
C 	C 	0.72850 0.40230 0.81480 -0.11600
H 	H 	0.73780 0.39370 0.89380 0.08900
C 	C 	0.62810 0.36860 0.73060 0.07600
H 	H 	0.56140 0.34330 0.75210 0.00900
C 	C 	0.78280 0.37420 0.66280 0.03200
H 	H 	0.84360 0.35150 0.62930 0.02900
C 	C 	0.85960 0.41040 0.75760 -0.08000
H 	H 	0.97040 0.40780 0.78650 0.09100
C 	C 	0.62680 0.44290 0.75860 -0.06000
H 	H 	0.57050 0.46650 0.79410 0.06100
C 	C 	0.55280 0.41000 0.66920 0.00200
H 	H 	0.44240 0.41310 0.63760 0.02000
C 	C 	0.85840 0.47470 0.91540 -0.00000
C 	C 	0.94140 0.47550 0.88250 0.08500
C 	C 	0.25690 0.23452 0.44560 0.22300
O 	O 	0.85800 0.74990 0.40240 -0.31800
O 	O 	0.83430 0.80540 0.58820 -0.33900
N 	N 	0.12720 0.87247 0.62150 -0.24000
C 	C 	0.22050 0.90850 0.59930 -0.08900
H 	H 	0.21990 0.91260 0.52050 0.04300
C 	C 	0.31870 0.94050 0.68150 0.04400
H 	H 	0.39510 0.96250 0.66270 0.01500
C 	C 	0.30480 0.94078 0.80050 0.19300
C 	C 	0.22850 0.90230 0.81480 -0.14300
H 	H 	0.23780 0.89370 0.89380 0.08100
C 	C 	0.12810 0.86860 0.73060 0.12500
H 	H 	0.06140 0.84330 0.75210 -0.02500
C 	C 	0.28280 0.87420 0.66280 0.16600
H 	H 	0.34360 0.85150 0.62930 -0.02500
C 	C 	0.35960 0.91040 0.75760 -0.27900
H 	H 	0.47040 0.90780 0.78650 0.13600
C 	C 	0.12680 0.94290 0.75860 -0.04200
H 	H 	0.07050 0.96650 0.79410 0.03400
C 	C 	0.05280 0.91000 0.66920 -0.12100
H 	H 	0.94240 0.91310 0.63760 0.10300
C 	C 	0.35840 0.97470 0.91540 0.00500
C 	C 	0.44140 0.97550 0.88250 -0.03100
C 	C 	0.75690 0.73452 0.44560 0.22400
O 	O 	0.64200 0.24990 0.59760 -0.34200
O 	O 	0.66570 0.30540 0.41180 -0.35700
N 	N 	0.37280 0.37247 0.37850 -0.24500
C 	C 	0.27950 0.40850 0.40070 0.04300
H 	H 	0.28010 0.41260 0.47950 -0.00000
C 	C 	0.18130 0.44050 0.31850 -0.08400
H 	H 	0.10490 0.46250 0.33730 0.05300
C 	C 	0.19520 0.44078 0.19950 0.12100
C 	C 	0.27150 0.40230 0.18520 -0.12100
H 	H 	0.26220 0.39370 0.10620 0.08300
C 	C 	0.37190 0.36860 0.26940 0.07200
H 	H 	0.43860 0.34330 0.24790 0.01300
C 	C 	0.21720 0.37420 0.33720 0.03700
H 	H 	0.15640 0.35150 0.37070 0.00800
C 	C 	0.14040 0.41040 0.24240 -0.09000
H 	H 	0.02960 0.40780 0.21350 0.06200
C 	C 	0.37320 0.44290 0.24140 -0.06500
H 	H 	0.42950 0.46650 0.20590 0.06700
C 	C 	0.44720 0.41000 0.33080 0.00800
H 	H 	0.55760 0.41310 0.36240 0.02400
C 	C 	0.14160 0.47470 0.08460 0.04400
C 	C 	0.05860 0.47550 0.11750 -0.01900
C 	C 	0.74310 0.23452 0.55440 0.22500
O 	O 	0.14200 0.74990 0.59760 -0.36600
O 	O 	0.16570 0.80540 0.41180 -0.37900
N 	N 	0.87280 0.87247 0.37850 -0.24600
C 	C 	0.77950 0.90850 0.40070 0.18900
H 	H 	0.78010 0.91260 0.47950 -0.04100
C 	C 	0.68130 0.94050 0.31850 -0.23400
H 	H 	0.60490 0.96250 0.33730 0.10900
C 	C 	0.69520 0.94078 0.19950 0.07300
C 	C 	0.77150 0.90230 0.18520 -0.12200
H 	H 	0.76220 0.89370 0.10620 0.09200
C 	C 	0.87190 0.86860 0.26940 0.04200
H 	H 	0.93860 0.84330 0.24790 0.04300
C 	C 	0.71720 0.87420 0.33720 -0.09600
H 	H 	0.65640 0.85150 0.37070 0.06200
C 	C 	0.64040 0.91040 0.24240 0.10200
H 	H 	0.52960 0.90780 0.21350 0.01200
C 	C 	0.87320 0.94290 0.24140 -0.08600
H 	H 	0.92950 0.96650 0.20590 0.08000
C 	C 	0.94720 0.91000 0.33080 0.12200
H 	H 	0.05760 0.91310 0.36240 -0.05900
C 	C 	0.64160 0.97470 0.08460 0.02900
C 	C 	0.55860 0.97550 0.11750 -0.02000
C 	C 	0.24310 0.73452 0.55440 0.22400
O 	O 	0.64200 0.75010 0.59760 -0.34300
O 	O 	0.66570 0.69460 0.41180 -0.35700
N 	N 	0.37280 0.62753 0.37850 -0.24500
C 	C 	0.27950 0.59150 0.40070 0.04300
H 	H 	0.28010 0.58740 0.47950 -0.00000
C 	C 	0.18130 0.55950 0.31850 -0.08400
H 	H 	0.10490 0.53750 0.33730 0.05300
C 	C 	0.19520 0.55922 0.19950 0.12100
C 	C 	0.27150 0.59770 0.18520 -0.12100
H 	H 	0.26220 0.60630 0.10620 0.08300
C 	C 	0.37190 0.63140 0.26940 0.07200
H 	H 	0.43860 0.65670 0.24790 0.01300
C 	C 	0.21720 0.62580 0.33720 0.03700
H 	H 	0.15640 0.64850 0.37070 0.00800
C 	C 	0.14040 0.58960 0.24240 -0.09000
H 	H 	0.02960 0.59220 0.21350 0.06200
C 	C 	0.37320 0.55710 0.24140 -0.06500
H 	H 	0.42950 0.53350 0.20590 0.06700
C 	C 	0.44720 0.59000 0.33080 0.00800
H 	H 	0.55760 0.58690 0.36240 0.02400
C 	C 	0.14160 0.52530 0.08460 0.04400
C 	C 	0.05860 0.52450 0.11750 -0.01900
C 	C 	0.74310 0.76548 0.55440 0.22500
O 	O 	0.14200 0.25010 0.59760 -0.36600
O 	O 	0.16570 0.19460 0.41180 -0.37900
N 	N 	0.87280 0.12753 0.37850 -0.24400
C 	C 	0.77950 0.09150 0.40070 0.19200
H 	H 	0.78010 0.08740 0.47950 -0.03900
C 	C 	0.68130 0.05950 0.31850 -0.22800
H 	H 	0.60490 0.03750 0.33730 0.11600
C 	C 	0.69520 0.05922 0.19950 0.05200
C 	C 	0.77150 0.09770 0.18520 -0.10800
H 	H 	0.76220 0.10630 0.10620 0.09000
C 	C 	0.87190 0.13140 0.26940 0.03300
H 	H 	0.93860 0.15670 0.24790 0.04600
C 	C 	0.71720 0.12580 0.33720 -0.10200
H 	H 	0.65640 0.14850 0.37070 0.06400
C 	C 	0.64040 0.08960 0.24240 0.11000
H 	H 	0.52960 0.09220 0.21350 0.00900
C 	C 	0.87320 0.05710 0.24140 -0.08000
H 	H 	0.92950 0.03350 0.20590 0.09000
C 	C 	0.94720 0.09000 0.33080 0.12500
H 	H 	0.05760 0.08690 0.36240 -0.05600
C 	C 	0.64160 0.02530 0.08460 0.01100
C 	C 	0.55860 0.02450 0.11750 0.07000
C 	C 	0.24310 0.26548 0.55440 0.22400
O 	O 	0.35800 0.75010 0.40240 -0.35000
O 	O 	0.33430 0.69460 0.58820 -0.36800
N 	N 	0.62720 0.62753 0.62150 -0.24400
C 	C 	0.72050 0.59150 0.59930 0.05200
H 	H 	0.71990 0.58740 0.52050 0.00700
C 	C 	0.81870 0.55950 0.68150 -0.09200
H 	H 	0.89510 0.53750 0.66270 0.07800
C 	C 	0.80480 0.55922 0.80050 0.11100
C 	C 	0.72850 0.59770 0.81480 -0.11600
H 	H 	0.73780 0.60630 0.89380 0.09000
C 	C 	0.62810 0.63140 0.73060 0.07700
H 	H 	0.56140 0.65670 0.75210 0.01000
C 	C 	0.78280 0.62580 0.66280 0.03300
H 	H 	0.84360 0.64850 0.62930 0.03000
C 	C 	0.85960 0.58960 0.75760 -0.08000
H 	H 	0.97040 0.59220 0.78650 0.09100
C 	C 	0.62680 0.55710 0.75860 -0.06000
H 	H 	0.57050 0.53350 0.79410 0.06100
C 	C 	0.55280 0.59000 0.66920 0.00200
H 	H 	0.44240 0.58690 0.63760 0.02000
C 	C 	0.85840 0.52530 0.91540 -0.00000
C 	C 	0.94140 0.52450 0.88250 0.08500
C 	C 	0.25690 0.76548 0.44560 0.22300
O 	O 	0.85800 0.25010 0.40240 -0.31800
O 	O 	0.83430 0.19460 0.58820 -0.33900
N 	N 	0.12720 0.12753 0.62150 -0.23800
C 	C 	0.22050 0.09150 0.59930 -0.08600
H 	H 	0.21990 0.08740 0.52050 0.04600
C 	C 	0.31870 0.05950 0.68150 0.05000
H 	H 	0.39510 0.03750 0.66270 0.02300
C 	C 	0.30480 0.05922 0.80050 0.17200
C 	C 	0.22850 0.09770 0.81480 -0.12900
H 	H 	0.23780 0.10630 0.89380 0.07900
C 	C 	0.12810 0.13140 0.73060 0.11700
H 	H 	0.06140 0.15670 0.75210 -0.02200
C 	C 	0.28280 0.12580 0.66280 0.16000
H 	H 	0.34360 0.14850 0.62930 -0.02200
C 	C 	0.35960 0.08960 0.75760 -0.27200
H 	H 	0.47040 0.09220 0.78650 0.13300
C 	C 	0.12680 0.05710 0.75860 -0.03500
H 	H 	0.07050 0.03350 0.79410 0.04400
C 	C 	0.05280 0.09000 0.66920 -0.11800
H 	H 	0.94240 0.08690 0.63760 0.10500
C 	C 	0.35840 0.02530 0.91540 -0.01200
C 	C 	0.44140 0.02450 0.88250 0.05800
C 	C 	0.75690 0.26548 0.44560 0.22400
Co	Co	0.50000 0.31437 0.50000 1.16400
Co	Co	0.00000 0.81437 0.50000 1.13700
Co	Co	0.50000 0.68563 0.50000 1.16400
Co	Co	-0.00000 0.18563 0.50000 1.13700
C 	C 	-0.00000 0.44030 -0.00000 -0.04700
C 	C 	0.50000 0.94030 -0.00000 0.02100
C 	C 	-0.00000 0.55970 -0.00000 -0.04700
C 	C 	0.50000 0.05970 -0.00000 0.00100
O 	O 	0.74110 0.50000 0.96810 -0.13900
O 	O 	0.06690 0.50000 0.84610 -0.23300
O 	O 	0.24110 0.00000 0.96810 -0.15200
O 	O 	0.56690 0.00000 0.84610 -0.15100
O 	O 	0.25890 0.50000 0.03190 -0.16000
O 	O 	0.93310 0.50000 0.15390 -0.08900
O 	O 	0.75890 0.00000 0.03190 -0.12900
O 	O 	0.43310 0.00000 0.15390 -0.15400
