data_crystal

_cell_length_a 12.28300
_cell_length_b 13.38600
_cell_length_c 13.93100
_cell_angle_alpha 102.14000
_cell_angle_beta  101.47000
_cell_angle_gamma 95.13000

_symmetry_space_group_name_	'P 1'
_symmetry_space_group_name_H-M	'P 1'

loop_
_symmetry_equiv_pos_as_xyz
  x,y,z

loop_
_atom_site_label
_atom_site_type_symbol
_atom_site_fract_x
_atom_site_fract_y
_atom_site_fract_z
_atom_site_charge
Mn	Mn	0.89857 0.88341 0.75075 1.30200
Mn	Mn	0.08690 0.75711 0.60780 1.24500
O 	O 	0.83773 0.99173 0.89462 -0.44300
O 	O 	0.72285 0.89345 0.75725 -0.41900
O 	O 	0.05360 0.97462 0.85500 -0.60800
O 	O 	0.09946 0.89672 0.71669 -0.60100
O 	O 	0.97522 0.83847 0.99250 -0.36500
O 	O 	0.91071 0.76594 0.82729 -0.42400
O 	O 	0.88750 0.32053 0.27620 -0.43500
O 	O 	0.95982 0.48696 0.34331 -0.39200
O 	O 	0.93169 0.64715 0.52553 -0.50800
O 	O 	0.87270 0.78158 0.60899 -0.51400
O 	O 	0.14930 0.60830 0.50239 -0.52400
O 	O 	0.25660 0.75452 0.58739 -0.43800
C 	C 	0.53508 0.96861 0.82108 0.08500
H 	H 	0.52150 0.91010 0.76600 0.02100
C 	C 	0.64379 0.01031 0.86905 -0.14900
C 	C 	0.66479 0.09941 0.94967 0.03400
H 	H 	0.73990 0.12810 0.98260 0.04500
C 	C 	0.57800 0.14429 0.98024 -0.07100
H 	H 	0.59340 0.20480 0.03320 0.03400
C 	C 	0.37292 0.14314 0.96707 -0.08800
H 	H 	0.38630 0.20410 0.01940 0.04100
C 	C 	0.26565 0.09679 0.92491 0.07300
H 	H 	0.20510 0.12490 0.94890 0.01300
C 	C 	0.24395 0.00681 0.84549 -0.23300
C 	C 	0.33063 0.96648 0.80867 0.12100
H 	H 	0.31510 0.90800 0.75340 -0.00500
C 	C 	0.44292 0.01172 0.85272 -0.11400
C 	C 	0.46491 0.10148 0.93373 0.08400
C 	C 	0.74006 0.96095 0.83818 0.36200
C 	C 	0.12664 0.95562 0.80338 0.46700
C 	C 	0.92510 0.64337 0.03498 -0.04200
H 	H 	0.97380 0.69440 0.08750 0.07600
C 	C 	0.89260 0.66287 0.94164 -0.04000
C 	C 	0.81870 0.58710 0.86390 0.02600
H 	H 	0.79700 0.60000 0.79880 0.04000
C 	C 	0.77850 0.49640 0.88130 -0.09300
H 	H 	0.72730 0.44750 0.82870 0.07000
C 	C 	0.77170 0.37880 0.99740 -0.05500
H 	H 	0.72030 0.32850 0.94630 0.06100
C 	C 	0.80690 0.35980 0.09050 -0.00800
H 	H 	0.78120 0.29550 0.10280 0.04400
C 	C 	0.88060 0.43430 0.16857 -0.06600
C 	C 	0.91960 0.52596 0.15063 -0.00900
H 	H 	0.96940 0.57580 0.20340 0.07100
C 	C 	0.88700 0.54787 0.05427 -0.00800
C 	C 	0.81170 0.47360 0.97640 0.08200
C 	C 	0.93030 0.76407 0.91889 0.37100
C 	C 	0.91307 0.41144 0.27068 0.38400
C 	C 	0.64751 0.69353 0.52804 0.02400
H 	H 	0.66240 0.75140 0.58380 0.03100
C 	C 	0.73518 0.65422 0.49189 -0.15100
C 	C 	0.71407 0.57117 0.40585 0.06600
H 	H 	0.77490 0.54590 0.38010 0.00900
C 	C 	0.60618 0.52693 0.35944 -0.13600
H 	H 	0.59280 0.47200 0.30110 0.07600
C 	C 	0.40279 0.51337 0.35742 -0.13400
H 	H 	0.38770 0.45650 0.30060 0.07300
C 	C 	0.31675 0.54643 0.39878 0.04700
H 	H 	0.24270 0.51140 0.37160 0.00900
C 	C 	0.33701 0.63264 0.48200 -0.11700
C 	C 	0.44417 0.68316 0.52265 0.00600
H 	H 	0.45700 0.74160 0.57770 0.04500
C 	C 	0.53583 0.64868 0.48305 -0.04100
C 	C 	0.51424 0.56275 0.39807 0.09000
C 	C 	0.85243 0.69660 0.54591 0.41800
C 	C 	0.24212 0.66725 0.52766 0.35000
Mn	Mn	0.10143 0.11659 0.24925 1.24600
Mn	Mn	0.91310 0.24289 0.39220 1.30000
O 	O 	0.16227 0.00827 0.10538 -0.53200
O 	O 	0.27715 0.10655 0.24275 -0.42400
O 	O 	0.94640 0.02538 0.14500 -0.50400
O 	O 	0.90054 0.10328 0.28331 -0.50800
O 	O 	0.02478 0.16153 0.00750 -0.51000
O 	O 	0.08929 0.23406 0.17271 -0.50500
O 	O 	0.11250 0.67947 0.72380 -0.49100
O 	O 	0.04018 0.51304 0.65669 -0.49000
O 	O 	0.06831 0.35285 0.47447 -0.62500
O 	O 	0.12730 0.21842 0.39101 -0.59400
O 	O 	0.85070 0.39170 0.49761 -0.44900
O 	O 	0.74340 0.24548 0.41261 -0.42500
C 	C 	0.46492 0.03139 0.17892 -0.10700
H 	H 	0.47850 0.08990 0.23400 0.07600
C 	C 	0.35621 0.98969 0.13095 -0.03800
C 	C 	0.33521 0.90059 0.05033 0.02700
H 	H 	0.26010 0.87190 0.01740 0.01100
C 	C 	0.42200 0.85571 0.01976 -0.16100
H 	H 	0.40660 0.79520 0.96680 0.10300
C 	C 	0.62708 0.85686 0.03293 -0.16400
H 	H 	0.61370 0.79590 0.98060 0.10500
C 	C 	0.73435 0.90321 0.07509 0.04700
H 	H 	0.79490 0.87510 0.05110 0.01200
C 	C 	0.75605 0.99319 0.15451 -0.07800
C 	C 	0.66937 0.03352 0.19133 -0.08500
H 	H 	0.68490 0.09200 0.24660 0.05800
C 	C 	0.55708 0.98828 0.14728 0.05300
C 	C 	0.53509 0.89852 0.06627 0.07500
C 	C 	0.25994 0.03905 0.16182 0.30300
C 	C 	0.87336 0.04438 0.19662 0.37300
C 	C 	0.07490 0.35663 0.96502 0.07800
H 	H 	0.02620 0.30560 0.91250 -0.00700
C 	C 	0.10740 0.33713 0.05836 -0.19900
C 	C 	0.18130 0.41290 0.13610 0.07900
H 	H 	0.20300 0.40000 0.20120 0.00300
C 	C 	0.22150 0.50360 0.11870 -0.17800
H 	H 	0.27270 0.55250 0.17130 0.08100
C 	C 	0.22830 0.62120 0.00260 -0.21300
H 	H 	0.27970 0.67150 0.05370 0.08900
C 	C 	0.19310 0.64020 0.90950 0.11600
H 	H 	0.21880 0.70450 0.89720 0.00100
C 	C 	0.11940 0.56570 0.83143 -0.16600
C 	C 	0.08040 0.47404 0.84937 0.03900
H 	H 	0.03060 0.42420 0.79660 0.00100
C 	C 	0.11300 0.45213 0.94573 -0.07200
C 	C 	0.18830 0.52640 0.02360 0.09100
C 	C 	0.06970 0.23593 0.08111 0.40200
C 	C 	0.08693 0.58856 0.72932 0.39700
C 	C 	0.35249 0.30647 0.47196 0.03100
H 	H 	0.33760 0.24860 0.41620 0.02200
C 	C 	0.26482 0.34578 0.50811 -0.17600
C 	C 	0.28593 0.42883 0.59415 0.07400
H 	H 	0.22510 0.45410 0.61990 0.00200
C 	C 	0.39382 0.47307 0.64056 -0.14000
H 	H 	0.40720 0.52800 0.69890 0.08100
C 	C 	0.59721 0.48663 0.64258 -0.12200
H 	H 	0.61230 0.54350 0.69940 0.07200
C 	C 	0.68325 0.45357 0.60122 0.03500
H 	H 	0.75730 0.48860 0.62840 0.03900
C 	C 	0.66299 0.36736 0.51800 -0.09600
C 	C 	0.55583 0.31684 0.47735 0.00100
H 	H 	0.54300 0.25840 0.42230 0.04300
C 	C 	0.46417 0.35132 0.51695 -0.04300
C 	C 	0.48576 0.43725 0.60193 0.09000
C 	C 	0.14757 0.30340 0.45409 0.43700
C 	C 	0.75788 0.33275 0.47234 0.33800
Mn	Mn	-0.00000 0.00000 -0.00000 1.24100
Mn	Mn	0.00000 0.50000 0.50000 1.26500
