data_crystal

_cell_length_a 10.43690
_cell_length_b 11.29510
_cell_length_c 12.78610
_cell_angle_alpha 101.63900
_cell_angle_beta  111.06400
_cell_angle_gamma 98.47300

_symmetry_space_group_name_	'P 1'
_symmetry_space_group_name_H-M	'P 1'

loop_
_symmetry_equiv_pos_as_xyz
  x,y,z

loop_
_atom_site_label
_atom_site_type_symbol
_atom_site_fract_x
_atom_site_fract_y
_atom_site_fract_z
_atom_site_charge
C 	C 	0.69680 0.22670 0.66670 0.34500
C 	C 	0.59260 0.10790 0.58080 -0.08800
C 	C 	0.60620 0.06200 0.48000 -0.05900
H 	H 	0.67890 0.10330 0.46520 0.07800
C 	C 	0.48890 0.04820 0.60320 0.10700
O 	O 	0.80060 0.27430 0.65120 -0.42500
O 	O 	0.67490 0.27550 0.75390 -0.40100
N 	N 	0.47100 0.07600 0.71200 -0.09400
C 	C 	0.19890 0.47980 0.92530 0.42900
C 	C 	0.35680 0.49090 0.96290 -0.15100
C 	C 	0.40870 0.42850 0.89020 0.11800
C 	C 	0.44560 0.56030 0.07040 -0.01700
H 	H 	0.40940 0.60180 0.11970 0.04300
O 	O 	0.11880 0.43710 0.82020 -0.44500
O 	O 	0.15250 0.51420 0.00180 -0.56600
N 	N 	0.32300 0.36600 0.76820 -0.10000
C 	C 	0.00920 0.74620 0.00020 0.48200
C 	C 	0.00460 0.87690 -0.00000 -0.14400
C 	C 	0.95990 0.91030 0.89870 -0.02700
H 	H 	0.93130 0.84910 0.82870 0.05100
C 	C 	0.04480 0.96910 0.10460 0.11900
O 	O 	0.96580 0.66730 0.90250 -0.52900
O 	O 	0.05000 0.72120 0.09650 -0.46400
N 	N 	0.06300 0.94600 0.21590 -0.09700
Eu	Eu	0.89226 0.44818 0.82890 1.85400
C 	C 	0.30320 0.77330 0.33330 0.34400
C 	C 	0.40740 0.89210 0.41920 -0.08500
C 	C 	0.39380 0.93800 0.52000 -0.06400
H 	H 	0.32110 0.89670 0.53480 0.07800
C 	C 	0.51110 0.95180 0.39680 0.10300
O 	O 	0.19940 0.72570 0.34880 -0.42700
O 	O 	0.32510 0.72450 0.24610 -0.39800
N 	N 	0.52900 0.92400 0.28800 -0.09100
C 	C 	0.80110 0.52020 0.07470 0.44100
C 	C 	0.64320 0.50910 0.03710 -0.10800
C 	C 	0.59130 0.57150 0.10980 0.09200
C 	C 	0.55440 0.43970 0.92960 -0.07200
H 	H 	0.59060 0.39820 0.88030 0.05900
O 	O 	0.88120 0.56290 0.17980 -0.44400
O 	O 	0.84750 0.48580 0.99820 -0.58500
N 	N 	0.67700 0.63400 0.23180 -0.09500
C 	C 	0.99080 0.25380 0.99980 0.43900
C 	C 	0.99540 0.12310 -0.00000 -0.09500
C 	C 	0.04010 0.08970 0.10130 -0.05900
H 	H 	0.06870 0.15090 0.17130 0.06300
C 	C 	0.95520 0.03090 0.89540 0.08500
O 	O 	0.03420 0.33270 0.09750 -0.51000
O 	O 	0.95000 0.27880 0.90350 -0.45500
N 	N 	0.93700 0.05400 0.78410 -0.09200
Eu	Eu	0.10774 0.55182 0.17110 1.85700
