data_crystal

_cell_length_a 10.33710
_cell_length_b 11.16710
_cell_length_c 11.86890
_cell_angle_alpha 94.25700
_cell_angle_beta  107.00400
_cell_angle_gamma 108.41900

_symmetry_space_group_name_	'P 1'
_symmetry_space_group_name_H-M	'P 1'

loop_
_symmetry_equiv_pos_as_xyz
  x,y,z

loop_
_atom_site_label
_atom_site_type_symbol
_atom_site_fract_x
_atom_site_fract_y
_atom_site_fract_z
_atom_site_charge
C 	C 	0.30240 0.26130 0.34290 0.34200
C 	C 	0.40080 0.38260 0.42260 -0.08600
C 	C 	0.36340 0.44540 0.50340 -0.06200
H 	H 	0.27070 0.40940 0.50710 0.07600
C 	C 	0.54340 0.43820 0.41810 0.09400
C 	C 	0.79510 0.01000 0.08010 0.41400
C 	C 	0.64350 0.00570 0.03930 -0.13700
C 	C 	0.59940 0.08500 0.10590 0.11100
C 	C 	0.54620 0.92590 0.93510 -0.06000
H 	H 	0.57800 0.87710 0.88990 0.05400
C 	C 	0.96330 0.74480 0.99790 0.44000
C 	C 	0.97980 0.61840 0.99810 -0.15100
C 	C 	0.99370 0.56290 0.09890 -0.01900
H 	H 	0.98790 0.60520 0.16680 0.05300
C 	C 	0.98440 0.55080 0.89630 0.09900
C 	C 	0.18980 0.96520 0.45580 0.03500
H 	H 	0.28480 0.00800 0.46040 -0.01300
C 	C 	0.15040 0.92700 0.55340 -0.01500
H 	H 	0.20870 0.94530 0.63340 0.05900
C 	C 	0.96910 0.85460 0.38580 0.32200
C 	C 	0.81810 0.78600 0.30090 -0.82500
H 	H 	0.81410 0.79890 0.22110 0.27500
H 	H 	0.75280 0.81890 0.32430 0.28000
H 	H 	0.79060 0.69570 0.30290 0.28200
N 	N 	0.60200 0.39100 0.33500 -0.09700
N 	N 	0.68600 0.17000 0.20700 -0.10200
N 	N 	0.98600 0.60200 0.78800 -0.09300
N 	N 	0.07570 0.93380 0.35380 -0.27800
N 	N 	0.00760 0.85570 0.50530 -0.14300
O 	O 	0.17490 0.21130 0.35120 -0.37500
O 	O 	0.33800 0.20570 0.27220 -0.42600
O 	O 	0.87010 0.04180 0.18810 -0.43200
O 	O 	0.84630 0.98160 0.00120 -0.55800
O 	O 	0.99480 0.81390 0.10030 -0.49800
O 	O 	0.92020 0.77940 0.90070 -0.46300
Eu	Eu	0.09977 0.03499 0.17766 1.89800
C 	C 	0.69760 0.73870 0.65710 0.34100
C 	C 	0.59920 0.61740 0.57740 -0.08700
C 	C 	0.63660 0.55460 0.49660 -0.06200
H 	H 	0.72930 0.59060 0.49290 0.07600
C 	C 	0.45660 0.56180 0.58190 0.09400
C 	C 	0.20490 0.99000 0.91990 0.41400
C 	C 	0.35650 0.99430 0.96070 -0.13700
C 	C 	0.40060 0.91500 0.89410 0.11100
C 	C 	0.45380 0.07410 0.06490 -0.06000
H 	H 	0.42200 0.12290 0.11010 0.05400
C 	C 	0.03670 0.25520 0.00210 0.44000
C 	C 	0.02020 0.38160 0.00190 -0.15100
C 	C 	0.00630 0.43710 0.90110 -0.01900
H 	H 	0.01210 0.39480 0.83320 0.05300
C 	C 	0.01560 0.44920 0.10370 0.09900
C 	C 	0.81020 0.03480 0.54420 0.03500
H 	H 	0.71520 0.99200 0.53960 -0.01300
C 	C 	0.84960 0.07300 0.44660 -0.01500
H 	H 	0.79130 0.05470 0.36660 0.05900
C 	C 	0.03090 0.14540 0.61420 0.32200
C 	C 	0.18190 0.21400 0.69910 -0.82500
H 	H 	0.18590 0.20110 0.77890 0.27500
H 	H 	0.24720 0.18110 0.67570 0.28000
H 	H 	0.20940 0.30430 0.69710 0.28200
N 	N 	0.39800 0.60900 0.66500 -0.09700
N 	N 	0.31400 0.83000 0.79300 -0.10200
N 	N 	0.01400 0.39800 0.21200 -0.09300
N 	N 	0.92430 0.06620 0.64620 -0.27800
N 	N 	0.99240 0.14430 0.49470 -0.14300
O 	O 	0.82510 0.78870 0.64880 -0.37500
O 	O 	0.66200 0.79430 0.72780 -0.42600
O 	O 	0.12990 0.95820 0.81190 -0.43200
O 	O 	0.15370 0.01840 0.99880 -0.55800
O 	O 	0.00520 0.18610 0.89970 -0.49800
O 	O 	0.07980 0.22060 0.09930 -0.46300
Eu	Eu	0.90023 0.96501 0.82234 1.89800
