data_crystal

_cell_length_a 9.26300
_cell_length_b 11.08910
_cell_length_c 21.17170
_cell_angle_alpha 90.00000
_cell_angle_beta  100.10400
_cell_angle_gamma 90.00000

_symmetry_space_group_name_	'P 1'
_symmetry_space_group_name_H-M	'P 1'

loop_
_symmetry_equiv_pos_as_xyz
  x,y,z

loop_
_atom_site_label
_atom_site_type_symbol
_atom_site_fract_x
_atom_site_fract_y
_atom_site_fract_z
_atom_site_charge
Cu	Cu	0.83814 0.37908 0.64904 0.86700
F 	F 	0.09100 0.60440 0.34151 -0.33700
F 	F 	0.20270 0.67040 0.45931 -0.34100
F 	F 	0.61390 0.42080 0.45463 -0.37600
F 	F 	0.50050 0.35240 0.33706 -0.36300
N 	N 	-0.00000 0.52680 0.19842 -0.18900
N 	N 	0.42120 0.78520 0.58022 -0.21100
N 	N 	0.66150 0.46300 0.60593 -0.24300
N 	N 	0.30220 0.25430 0.20755 -0.22300
C 	C 	0.48380 0.46780 0.42762 0.24700
C 	C 	0.28890 0.47210 0.33362 -0.06000
C 	C 	0.41590 0.55000 0.46275 -0.06900
C 	C 	0.47560 0.58550 0.52844 -0.02900
C 	C 	0.57930 0.51670 0.56906 0.16200
C 	C 	0.42290 0.43150 0.36626 0.23800
C 	C 	0.09990 0.48770 0.23203 0.19700
C 	C 	0.22160 0.55740 0.36823 0.24800
C 	C 	0.28150 0.59290 0.42943 0.24600
C 	C 	0.44160 0.69650 0.55469 0.16800
C 	C 	0.22450 0.43410 0.26887 -0.03200
C 	C 	0.27430 0.33420 0.23767 0.19300
Cu	Cu	0.33814 0.87908 0.64904 0.90200
F 	F 	0.59100 0.10440 0.34151 -0.36600
F 	F 	0.70270 0.17040 0.45931 -0.35600
F 	F 	0.11390 0.92080 0.45463 -0.29200
F 	F 	0.00050 0.85240 0.33706 -0.27200
N 	N 	0.50000 0.02680 0.19842 -0.23400
N 	N 	0.92120 0.28520 0.58022 -0.24700
N 	N 	0.16150 0.96300 0.60593 -0.25900
N 	N 	0.80220 0.75430 0.20755 -0.24600
C 	C 	0.98380 0.96780 0.42762 0.13100
C 	C 	0.78890 0.97210 0.33362 -0.06700
C 	C 	0.91590 0.05000 0.46275 -0.01300
C 	C 	0.97560 0.08550 0.52844 -0.20300
C 	C 	0.07930 0.01670 0.56906 0.34300
C 	C 	0.92290 0.93150 0.36626 0.16600
C 	C 	0.59990 0.98770 0.23203 0.17100
C 	C 	0.72160 0.05740 0.36823 0.24500
C 	C 	0.78150 0.09290 0.42943 0.20900
C 	C 	0.94160 0.19650 0.55469 0.18000
C 	C 	0.72450 0.93410 0.26887 -0.05000
C 	C 	0.77430 0.83420 0.23767 0.15000
Cu	Cu	0.83814 0.62092 0.14904 0.86200
F 	F 	0.09100 0.39560 0.84151 -0.33700
F 	F 	0.20270 0.32960 0.95931 -0.32200
F 	F 	0.61390 0.57920 0.95463 -0.35700
F 	F 	0.50050 0.64760 0.83706 -0.36300
N 	N 	0.00000 0.47320 0.69842 -0.18700
N 	N 	0.42120 0.21480 0.08022 -0.22200
N 	N 	0.66150 0.53700 0.10593 -0.25200
N 	N 	0.30220 0.74570 0.70755 -0.22100
C 	C 	0.48380 0.53220 0.92762 0.23100
C 	C 	0.28890 0.52790 0.83362 -0.06600
C 	C 	0.41590 0.45000 0.96275 -0.00300
C 	C 	0.47560 0.41450 0.02844 -0.09300
C 	C 	0.57930 0.48330 0.06906 0.16300
C 	C 	0.42290 0.56850 0.86626 0.25000
C 	C 	0.09990 0.51230 0.73203 0.19900
C 	C 	0.22160 0.44260 0.86823 0.26000
C 	C 	0.28150 0.40710 0.92943 0.23000
C 	C 	0.44160 0.30350 0.05469 0.16600
C 	C 	0.22450 0.56590 0.76887 -0.02900
C 	C 	0.27430 0.66580 0.73767 0.19500
Cu	Cu	0.33814 0.12092 0.14904 0.89900
F 	F 	0.59100 0.89560 0.84151 -0.36500
F 	F 	0.70270 0.82960 0.95931 -0.33700
F 	F 	0.11390 0.07920 0.95463 -0.27200
F 	F 	0.00050 0.14760 0.83706 -0.27000
N 	N 	0.50000 0.97320 0.69842 -0.23200
N 	N 	0.92120 0.71480 0.08022 -0.25800
N 	N 	0.16150 0.03700 0.10593 -0.26700
N 	N 	0.80220 0.24570 0.70755 -0.24400
C 	C 	0.98380 0.03220 0.92762 0.11700
C 	C 	0.78890 0.02790 0.83362 -0.07000
C 	C 	0.91590 0.95000 0.96275 0.04900
C 	C 	0.97560 0.91450 0.02844 -0.26300
C 	C 	0.07930 0.98330 0.06906 0.34000
C 	C 	0.92290 0.06850 0.86626 0.17600
C 	C 	0.59990 0.01230 0.73203 0.17600
C 	C 	0.72160 0.94260 0.86823 0.25400
C 	C 	0.78150 0.90710 0.92943 0.19500
C 	C 	0.94160 0.80350 0.05469 0.17800
C 	C 	0.72450 0.06590 0.76887 -0.04800
C 	C 	0.77430 0.16580 0.73767 0.15300
