data_crystal

_cell_length_a 10.67530
_cell_length_b 17.84400
_cell_length_c 27.35300
_cell_angle_alpha 90.00000
_cell_angle_beta  90.00000
_cell_angle_gamma 90.00000

_symmetry_space_group_name_	'P 1'
_symmetry_space_group_name_H-M	'P 1'

loop_
_symmetry_equiv_pos_as_xyz
  x,y,z

loop_
_atom_site_label
_atom_site_type_symbol
_atom_site_fract_x
_atom_site_fract_y
_atom_site_fract_z
_atom_site_charge
Cu	Cu	0.43887 0.93979 0.51322 0.90800
Cu	Cu	0.43887 0.06021 0.98678 0.90700
Cu	Cu	0.06113 0.43979 0.98678 0.90600
Cu	Cu	0.06113 0.56021 0.51322 0.90700
Cu	Cu	0.56113 0.06021 0.48678 0.90700
Cu	Cu	0.56113 0.93979 0.01322 0.90600
Cu	Cu	0.93887 0.56021 0.01322 0.90600
Cu	Cu	0.93887 0.43979 0.48678 0.90700
H 	H 	0.25940 0.18010 0.42450 -0.01600
H 	H 	0.07950 0.23680 0.39380 0.13900
H 	H 	0.88530 0.05190 0.42720 0.15300
H 	H 	0.06430 0.99940 0.46210 -0.01000
H 	H 	0.93880 0.23570 0.33620 0.04600
H 	H 	0.87760 0.28330 0.37810 0.04700
H 	H 	0.80650 0.17030 0.27660 0.04800
H 	H 	0.71230 0.13790 0.31570 0.04900
H 	H 	0.48350 0.22910 0.19660 0.15500
H 	H 	0.46440 0.17970 0.12020 -0.02000
H 	H 	0.68720 0.01020 0.15920 -0.01700
H 	H 	0.73130 0.06980 0.23170 0.13700
H 	H 	0.25940 0.81990 0.07550 -0.01500
H 	H 	0.07950 0.76320 0.10620 0.13800
H 	H 	0.88530 0.94810 0.07280 0.15200
H 	H 	0.06430 0.00060 0.03790 -0.00700
H 	H 	0.93880 0.76430 0.16380 0.04600
H 	H 	0.87760 0.71670 0.12190 0.04600
H 	H 	0.80650 0.82970 0.22340 0.04800
H 	H 	0.71230 0.86210 0.18430 0.04900
H 	H 	0.48350 0.77090 0.30340 0.15400
H 	H 	0.46440 0.82030 0.37980 -0.02000
H 	H 	0.68720 0.98980 0.34080 -0.01700
H 	H 	0.73130 0.93020 0.26830 0.13600
H 	H 	0.24060 0.68010 0.07550 -0.01600
H 	H 	0.42050 0.73680 0.10620 0.13900
H 	H 	0.61470 0.55190 0.07280 0.15300
H 	H 	0.43570 0.49940 0.03790 -0.00900
H 	H 	0.56120 0.73570 0.16380 0.04600
H 	H 	0.62240 0.78330 0.12190 0.04600
H 	H 	0.69350 0.67030 0.22340 0.04800
H 	H 	0.78770 0.63790 0.18430 0.04900
H 	H 	0.01650 0.72910 0.30340 0.15500
H 	H 	0.03560 0.67970 0.37980 -0.02000
H 	H 	0.81280 0.51020 0.34080 -0.01700
H 	H 	0.76870 0.56980 0.26830 0.13700
H 	H 	0.24060 0.31990 0.42450 -0.01600
H 	H 	0.42050 0.26320 0.39380 0.13900
H 	H 	0.61470 0.44810 0.42720 0.15300
H 	H 	0.43570 0.50060 0.46210 -0.01000
H 	H 	0.56120 0.26430 0.33620 0.04600
H 	H 	0.62240 0.21670 0.37810 0.04700
H 	H 	0.69350 0.32970 0.27660 0.04900
H 	H 	0.78770 0.36210 0.31570 0.04900
H 	H 	0.01650 0.27090 0.19660 0.15500
H 	H 	0.03560 0.32030 0.12020 -0.01800
H 	H 	0.81280 0.48980 0.15920 -0.01700
H 	H 	0.76870 0.43020 0.23170 0.13600
H 	H 	0.74060 0.81990 0.57550 -0.01600
H 	H 	0.92050 0.76320 0.60620 0.13900
H 	H 	0.11470 0.94810 0.57280 0.15300
H 	H 	0.93570 0.00060 0.53790 -0.01000
H 	H 	0.06120 0.76430 0.66380 0.04600
H 	H 	0.12240 0.71670 0.62190 0.04700
H 	H 	0.19350 0.82970 0.72340 0.04800
H 	H 	0.28770 0.86210 0.68430 0.04900
H 	H 	0.51650 0.77090 0.80340 0.15500
H 	H 	0.53560 0.82030 0.87980 -0.02000
H 	H 	0.31280 0.98980 0.84080 -0.01700
H 	H 	0.26870 0.93020 0.76830 0.13700
H 	H 	0.74060 0.18010 0.92450 -0.01500
H 	H 	0.92050 0.23680 0.89380 0.13800
H 	H 	0.11470 0.05190 0.92720 0.15200
H 	H 	0.93570 0.99940 0.96210 -0.00700
H 	H 	0.06120 0.23570 0.83620 0.04600
H 	H 	0.12240 0.28330 0.87810 0.04600
H 	H 	0.19350 0.17030 0.77660 0.04800
H 	H 	0.28770 0.13790 0.81570 0.04900
H 	H 	0.51650 0.22910 0.69660 0.15400
H 	H 	0.53560 0.17970 0.62020 -0.02000
H 	H 	0.31280 0.01020 0.65920 -0.01700
H 	H 	0.26870 0.06980 0.73170 0.13600
H 	H 	0.75940 0.31990 0.92450 -0.01600
H 	H 	0.57950 0.26320 0.89380 0.13900
H 	H 	0.38530 0.44810 0.92720 0.15300
H 	H 	0.56430 0.50060 0.96210 -0.00900
H 	H 	0.43880 0.26430 0.83620 0.04600
H 	H 	0.37760 0.21670 0.87810 0.04600
H 	H 	0.30650 0.32970 0.77660 0.04800
H 	H 	0.21230 0.36210 0.81570 0.04900
H 	H 	0.98350 0.27090 0.69660 0.15500
H 	H 	0.96440 0.32030 0.62020 -0.02000
H 	H 	0.18720 0.48980 0.65920 -0.01700
H 	H 	0.23130 0.43020 0.73170 0.13700
H 	H 	0.75940 0.68010 0.57550 -0.01600
H 	H 	0.57950 0.73680 0.60620 0.13900
H 	H 	0.38530 0.55190 0.57280 0.15300
H 	H 	0.56430 0.49940 0.53790 -0.01000
H 	H 	0.43880 0.73570 0.66380 0.04600
H 	H 	0.37760 0.78330 0.62190 0.04700
H 	H 	0.30650 0.67030 0.72340 0.04900
H 	H 	0.21230 0.63790 0.68430 0.04900
H 	H 	0.98350 0.72910 0.80340 0.15500
H 	H 	0.96440 0.67970 0.87980 -0.01800
H 	H 	0.18720 0.51020 0.84080 -0.01700
H 	H 	0.23130 0.56980 0.76830 0.13600
C 	C 	0.29830 0.05275 0.46760 0.41900
C 	C 	0.18100 0.08596 0.44655 -0.21600
C 	C 	0.18370 0.15446 0.42591 0.18000
C 	C 	0.07620 0.18847 0.40640 -0.28700
C 	C 	0.96390 0.14794 0.40634 0.30100
C 	C 	0.96020 0.07850 0.42690 -0.29000
C 	C 	0.06810 0.04653 0.44770 0.17300
C 	C 	0.86620 0.23985 0.35729 0.00600
C 	C 	0.73150 0.18099 0.29539 0.00100
C 	C 	0.61640 0.15903 0.21988 0.30800
C 	C 	0.53100 0.18754 0.18783 -0.31300
C 	C 	0.51470 0.15584 0.14323 0.20500
C 	C 	0.57060 0.08992 0.13166 -0.22100
C 	C 	0.65090 0.05635 0.16609 0.18400
C 	C 	0.67580 0.09104 0.20945 -0.29600
C 	C 	0.54760 0.05385 0.08293 0.40900
C 	C 	0.29830 0.94725 0.03240 0.41500
C 	C 	0.18100 0.91404 0.05345 -0.21200
C 	C 	0.18370 0.84554 0.07409 0.17700
C 	C 	0.07620 0.81153 0.09360 -0.28300
C 	C 	0.96390 0.85206 0.09366 0.29800
C 	C 	0.96020 0.92150 0.07310 -0.28800
C 	C 	0.06810 0.95347 0.05230 0.16800
C 	C 	0.86620 0.76015 0.14271 0.00600
C 	C 	0.73150 0.81901 0.20461 0.00200
C 	C 	0.61640 0.84097 0.28012 0.30800
C 	C 	0.53100 0.81246 0.31217 -0.31200
C 	C 	0.51470 0.84416 0.35677 0.20400
C 	C 	0.57060 0.91008 0.36834 -0.22000
C 	C 	0.65090 0.94365 0.33391 0.18300
C 	C 	0.67580 0.90896 0.29055 -0.29600
C 	C 	0.54760 0.94615 0.41707 0.40700
C 	C 	0.20170 0.55275 0.03240 0.41800
C 	C 	0.31900 0.58596 0.05345 -0.21500
C 	C 	0.31630 0.65446 0.07409 0.18000
C 	C 	0.42380 0.68847 0.09360 -0.28700
C 	C 	0.53610 0.64794 0.09366 0.30100
C 	C 	0.53980 0.57850 0.07310 -0.28900
C 	C 	0.43190 0.54653 0.05230 0.17200
C 	C 	0.63380 0.73985 0.14271 0.00600
C 	C 	0.76850 0.68099 0.20461 0.00200
C 	C 	0.88360 0.65903 0.28012 0.30800
C 	C 	0.96900 0.68754 0.31217 -0.31400
C 	C 	0.98530 0.65584 0.35677 0.20400
C 	C 	0.92940 0.58992 0.36834 -0.22100
C 	C 	0.84910 0.55635 0.33391 0.18300
C 	C 	0.82420 0.59104 0.29055 -0.29700
C 	C 	0.95240 0.55385 0.41707 0.40700
C 	C 	0.20170 0.44725 0.46760 0.41800
C 	C 	0.31900 0.41404 0.44655 -0.21500
C 	C 	0.31630 0.34554 0.42591 0.18000
C 	C 	0.42380 0.31153 0.40640 -0.28700
C 	C 	0.53610 0.35206 0.40634 0.30100
C 	C 	0.53980 0.42150 0.42690 -0.28900
C 	C 	0.43190 0.45347 0.44770 0.17200
C 	C 	0.63380 0.26015 0.35729 0.00600
C 	C 	0.76850 0.31901 0.29539 0.00100
C 	C 	0.88360 0.34097 0.21988 0.30700
C 	C 	0.96900 0.31246 0.18783 -0.31300
C 	C 	0.98530 0.34416 0.14323 0.20100
C 	C 	0.92940 0.41008 0.13166 -0.21900
C 	C 	0.84910 0.44365 0.16609 0.18200
C 	C 	0.82420 0.40896 0.20945 -0.29500
C 	C 	0.95240 0.44615 0.08293 0.40500
C 	C 	0.70170 0.94725 0.53240 0.41900
C 	C 	0.81900 0.91404 0.55345 -0.21600
C 	C 	0.81630 0.84554 0.57409 0.18000
C 	C 	0.92380 0.81153 0.59360 -0.28700
C 	C 	0.03610 0.85206 0.59366 0.30100
C 	C 	0.03980 0.92150 0.57310 -0.29000
C 	C 	0.93190 0.95347 0.55230 0.17300
C 	C 	0.13380 0.76015 0.64271 0.00600
C 	C 	0.26850 0.81901 0.70461 0.00100
C 	C 	0.38360 0.84097 0.78012 0.30800
C 	C 	0.46900 0.81246 0.81217 -0.31300
C 	C 	0.48530 0.84416 0.85677 0.20500
C 	C 	0.42940 0.91008 0.86834 -0.22100
C 	C 	0.34910 0.94365 0.83391 0.18400
C 	C 	0.32420 0.90896 0.79055 -0.29600
C 	C 	0.45240 0.94615 0.91707 0.40900
C 	C 	0.70170 0.05275 0.96760 0.41500
C 	C 	0.81900 0.08596 0.94655 -0.21200
C 	C 	0.81630 0.15446 0.92591 0.17700
C 	C 	0.92380 0.18847 0.90640 -0.28300
C 	C 	0.03610 0.14794 0.90634 0.29800
C 	C 	0.03980 0.07850 0.92690 -0.28800
C 	C 	0.93190 0.04653 0.94770 0.16800
C 	C 	0.13380 0.23985 0.85729 0.00600
C 	C 	0.26850 0.18099 0.79539 0.00200
C 	C 	0.38360 0.15903 0.71988 0.30800
C 	C 	0.46900 0.18754 0.68783 -0.31200
C 	C 	0.48530 0.15584 0.64323 0.20400
C 	C 	0.42940 0.08992 0.63166 -0.22000
C 	C 	0.34910 0.05635 0.66609 0.18300
C 	C 	0.32420 0.09104 0.70945 -0.29600
C 	C 	0.45240 0.05385 0.58293 0.40700
C 	C 	0.79830 0.44725 0.96760 0.41800
C 	C 	0.68100 0.41404 0.94655 -0.21500
C 	C 	0.68370 0.34554 0.92591 0.18000
C 	C 	0.57620 0.31153 0.90640 -0.28700
C 	C 	0.46390 0.35206 0.90634 0.30100
C 	C 	0.46020 0.42150 0.92690 -0.28900
C 	C 	0.56810 0.45347 0.94770 0.17200
C 	C 	0.36620 0.26015 0.85729 0.00600
C 	C 	0.23150 0.31901 0.79539 0.00200
C 	C 	0.11640 0.34097 0.71988 0.30800
C 	C 	0.03100 0.31246 0.68783 -0.31400
C 	C 	0.01470 0.34416 0.64323 0.20400
C 	C 	0.07060 0.41008 0.63166 -0.22100
C 	C 	0.15090 0.44365 0.66609 0.18300
C 	C 	0.17580 0.40896 0.70945 -0.29700
C 	C 	0.04760 0.44615 0.58293 0.40700
C 	C 	0.79830 0.55275 0.53240 0.41800
C 	C 	0.68100 0.58596 0.55345 -0.21500
C 	C 	0.68370 0.65446 0.57409 0.18000
C 	C 	0.57620 0.68847 0.59360 -0.28700
C 	C 	0.46390 0.64794 0.59366 0.30100
C 	C 	0.46020 0.57850 0.57310 -0.28900
C 	C 	0.56810 0.54653 0.55230 0.17200
C 	C 	0.36620 0.73985 0.64271 0.00600
C 	C 	0.23150 0.68099 0.70461 0.00100
C 	C 	0.11640 0.65903 0.78012 0.30700
C 	C 	0.03100 0.68754 0.81217 -0.31300
C 	C 	0.01470 0.65584 0.85677 0.20100
C 	C 	0.07060 0.58992 0.86834 -0.21900
C 	C 	0.15090 0.55635 0.83391 0.18200
C 	C 	0.17580 0.59104 0.79055 -0.29500
C 	C 	0.04760 0.55385 0.91707 0.40500
C 	C 	0.75000 0.25000 0.32653 0.02400
C 	C 	0.75000 0.75000 0.17347 0.02300
C 	C 	0.25000 0.75000 0.67347 0.02400
C 	C 	0.25000 0.25000 0.82653 0.02300
O 	O 	0.28977 0.98970 0.48674 -0.42200
O 	O 	0.39577 0.09060 0.46335 -0.42900
O 	O 	0.85593 0.17387 0.38694 -0.25400
O 	O 	0.62748 0.19797 0.26311 -0.24800
O 	O 	0.59378 0.98977 0.07572 -0.41500
O 	O 	0.48397 0.09090 0.05328 -0.42300
O 	O 	0.28977 0.01030 0.01326 -0.41900
O 	O 	0.39577 0.90940 0.03665 -0.42800
O 	O 	0.85593 0.82613 0.11306 -0.25400
O 	O 	0.62748 0.80203 0.23689 -0.24800
O 	O 	0.59378 0.01023 0.42428 -0.41300
O 	O 	0.48397 0.90910 0.44672 -0.42300
O 	O 	0.21023 0.48970 0.01326 -0.42100
O 	O 	0.10423 0.59060 0.03665 -0.42800
O 	O 	0.64407 0.67387 0.11306 -0.25500
O 	O 	0.87252 0.69797 0.23689 -0.24800
O 	O 	0.90622 0.48977 0.42428 -0.41400
O 	O 	0.01603 0.59090 0.44672 -0.42300
O 	O 	0.21023 0.51030 0.48674 -0.42200
O 	O 	0.10423 0.40940 0.46335 -0.42900
O 	O 	0.64407 0.32613 0.38694 -0.25400
O 	O 	0.87252 0.30203 0.26311 -0.24800
O 	O 	0.90622 0.51023 0.07572 -0.41300
O 	O 	0.01603 0.40910 0.05328 -0.42100
O 	O 	0.71023 0.01030 0.51326 -0.42200
O 	O 	0.60423 0.90940 0.53665 -0.42900
O 	O 	0.14407 0.82613 0.61306 -0.25400
O 	O 	0.37252 0.80203 0.73689 -0.24800
O 	O 	0.40622 0.01023 0.92428 -0.41500
O 	O 	0.51603 0.90910 0.94672 -0.42300
O 	O 	0.71023 0.98970 0.98674 -0.41900
O 	O 	0.60423 0.09060 0.96335 -0.42800
O 	O 	0.14407 0.17387 0.88694 -0.25400
O 	O 	0.37252 0.19797 0.76311 -0.24800
O 	O 	0.40622 0.98977 0.57572 -0.41300
O 	O 	0.51603 0.09090 0.55328 -0.42300
O 	O 	0.78977 0.51030 0.98674 -0.42100
O 	O 	0.89577 0.40940 0.96335 -0.42800
O 	O 	0.35593 0.32613 0.88694 -0.25500
O 	O 	0.12748 0.30203 0.76311 -0.24800
O 	O 	0.09378 0.51023 0.57572 -0.41400
O 	O 	0.98397 0.40910 0.55328 -0.42300
O 	O 	0.78977 0.48970 0.51326 -0.42200
O 	O 	0.89577 0.59060 0.53665 -0.42900
O 	O 	0.35593 0.67387 0.61306 -0.25400
O 	O 	0.12748 0.69797 0.73689 -0.24800
O 	O 	0.09378 0.48977 0.92428 -0.41300
O 	O 	0.98397 0.59090 0.94672 -0.42100
