data_crystal

_cell_length_a 8.77000
_cell_length_b 7.25000
_cell_length_c 9.17000
_cell_angle_alpha 90.00000
_cell_angle_beta  98.00000
_cell_angle_gamma 90.00000

_symmetry_space_group_name_	'P 1'
_symmetry_space_group_name_H-M	'P 1'

loop_
_symmetry_equiv_pos_as_xyz
  x,y,z

loop_
_atom_site_label
_atom_site_type_symbol
_atom_site_fract_x
_atom_site_fract_y
_atom_site_fract_z
_atom_site_charge
C 	C 	0.03400 0.22600 0.27700 0.18000
O 	O 	0.09500 0.10300 0.20700 -0.42200
O 	O 	0.08700 0.27900 0.40500 -0.39400
C 	C 	0.96600 0.72600 0.22300 0.36300
O 	O 	0.90500 0.60300 0.29300 -0.30800
O 	O 	0.91300 0.77900 0.09500 -0.32600
C 	C 	0.96600 0.77400 0.72300 0.37000
O 	O 	0.90500 0.89700 0.79300 -0.23600
O 	O 	0.91300 0.72100 0.59500 -0.29800
C 	C 	0.03400 0.27400 0.77700 0.19100
O 	O 	0.09500 0.39700 0.70700 -0.36600
O 	O 	0.08700 0.22100 0.90500 -0.33400
Cu	Cu	-0.00000 0.00000 -0.00000 0.75400
Cu	Cu	0.00000 0.50000 0.50000 0.82600
