data_crystal

_cell_length_a 12.96760
_cell_length_b 16.17010
_cell_length_c 30.90550
_cell_angle_alpha 90.00000
_cell_angle_beta  91.24900
_cell_angle_gamma 90.00000

_symmetry_space_group_name_	'P 1'
_symmetry_space_group_name_H-M	'P 1'

loop_
_symmetry_equiv_pos_as_xyz
  x,y,z

loop_
_atom_site_label
_atom_site_type_symbol
_atom_site_fract_x
_atom_site_fract_y
_atom_site_fract_z
_atom_site_charge
Mo	Mo	0.27865 0.39430 0.93446 1.08600
Mo	Mo	0.30006 0.54740 0.90769 1.09800
Mo	Mo	0.35138 0.70763 0.98363 1.10000
Mo	Mo	0.36347 0.67420 0.06629 1.08400
Mo	Mo	0.33325 0.46690 0.10179 1.09300
Mo	Mo	0.30469 0.34601 0.04647 1.08800
Mo	Mo	0.19492 0.65353 0.23691 1.07000
Mo	Mo	0.10979 0.68964 0.30791 1.07000
Cd	Cd	0.97790 0.54053 0.05717 1.21900
Cd	Cd	0.10592 0.74769 0.06606 1.21900
P 	P 	0.20921 0.53497 0.00865 0.48800
P 	P 	0.17620 0.61760 0.13060 0.53500
P 	P 	0.88515 0.73024 0.01568 0.50100
P 	P 	0.16830 0.72564 0.90813 0.54400
O 	O 	0.17930 0.47600 0.91327 -0.62000
O 	O 	0.39330 0.47360 0.94112 -0.60100
O 	O 	0.24030 0.44450 0.99934 -0.45500
O 	O 	0.86210 0.66370 0.04998 -0.49500
O 	O 	0.35280 0.32160 0.98259 -0.45400
O 	O 	0.43740 0.62870 0.01662 -0.61600
O 	O 	0.25780 0.73040 0.03113 -0.62500
O 	O 	0.25430 0.68300 0.11383 -0.47200
O 	O 	0.25980 0.55910 0.05216 -0.44300
O 	O 	0.42310 0.57570 0.10185 -0.45200
O 	O 	0.41250 0.43160 0.05126 -0.61700
O 	O 	0.21620 0.39720 0.08802 -0.49500
O 	O 	0.82770 0.71360 0.97356 -0.37200
O 	O 	0.25560 0.59150 0.97377 -0.43400
O 	O 	0.39860 0.64490 0.92689 -0.45100
O 	O 	0.19620 0.63950 0.89321 -0.40300
O 	O 	0.24020 0.75850 0.94369 -0.39600
O 	O 	0.22890 0.53370 0.13614 -0.41800
O 	O 	0.09250 0.54150 0.00608 -0.51100
O 	O 	0.08540 0.61970 0.09843 -0.52400
O 	O 	0.99970 0.73320 0.00908 -0.40000
O 	O 	0.85360 0.81650 0.03345 -0.26900
O 	O 	0.05690 0.72040 0.92629 -0.22000
O 	O 	0.05980 0.69540 0.24839 -0.50100
O 	O 	0.25070 0.69980 0.29073 -0.50700
O 	O 	0.13840 0.64550 0.17449 -0.40300
O 	O 	0.16420 0.78410 0.87009 -0.39900
N 	N 	0.10680 0.88830 0.06320 -0.24800
N 	N 	0.99150 0.79550 0.11760 -0.22300
N 	N 	0.23770 0.78000 0.20710 -0.18700
N 	N 	0.35870 0.64990 0.21540 -0.21800
N 	N 	0.94630 0.72640 0.32190 -0.21800
N 	N 	0.09290 0.83350 0.30360 -0.18500
C 	C 	0.16010 0.92930 0.03530 0.12200
H 	H 	0.20710 0.90090 0.01850 -0.04300
C 	C 	0.14900 0.01510 0.02950 -0.18300
H 	H 	0.19320 0.04390 0.01150 0.08600
C 	C 	0.07090 0.05640 0.05100 0.06700
H 	H 	0.05760 0.11200 0.04570 0.02400
C 	C 	0.01400 0.01270 0.08020 -0.14900
H 	H 	0.96360 0.03900 0.09610 0.06300
C 	C 	0.90490 0.91110 0.14520 -0.11200
H 	H 	0.89360 0.96790 0.14460 0.04200
C 	C 	0.85410 0.86320 0.17400 0.02900
H 	H 	0.80680 0.88650 0.19260 -0.00300
C 	C 	0.87460 0.77580 0.17510 -0.13100
H 	H 	0.84300 0.74070 0.19470 0.06900
C 	C 	0.94350 0.74760 0.14570 0.07500
H 	H 	0.95770 0.69120 0.14530 -0.00500
C 	C 	0.03350 0.92590 0.08590 0.07500
C 	C 	0.97270 0.87620 0.11700 0.05100
C 	C 	0.17040 0.83880 0.19980 0.06200
H 	H 	0.10270 0.83060 0.20830 0.01800
C 	C 	0.19630 0.91520 0.17950 -0.13000
H 	H 	0.14940 0.95820 0.17550 0.07100
C 	C 	0.29660 0.91960 0.16620 0.03900
H 	H 	0.31820 0.96790 0.15280 0.00400
C 	C 	0.36690 0.85670 0.17160 -0.13500
H 	H 	0.43330 0.86120 0.16110 0.05100
C 	C 	0.51230 0.71530 0.18870 -0.16000
H 	H 	0.54470 0.76160 0.17740 0.05900
C 	C 	0.56490 0.64500 0.19470 0.07900
H 	H 	0.63420 0.64290 0.18780 -0.03700
C 	C 	0.51940 0.57750 0.21060 -0.17600
H 	H 	0.55680 0.52910 0.21510 0.06400
C 	C 	0.41400 0.58130 0.22020 0.08000
H 	H 	0.38180 0.53390 0.23030 -0.04500
C 	C 	0.33640 0.78780 0.19280 0.05300
C 	C 	0.40450 0.71880 0.19980 0.06200
C 	C 	0.87510 0.67010 0.33240 0.09800
H 	H 	0.89660 0.61630 0.33810 -0.03400
C 	C 	0.77330 0.68800 0.33500 -0.17300
H 	H 	0.72580 0.64780 0.34280 0.07400
C 	C 	0.74320 0.76630 0.32570 0.07300
H 	H 	0.67360 0.77990 0.32630 -0.03400
C 	C 	0.81330 0.82560 0.31560 -0.15300
H 	H 	0.79210 0.87960 0.31000 0.06300
C 	C 	0.97770 0.94710 0.29760 -0.13400
H 	H 	0.91030 0.96680 0.29760 0.05700
C 	C 	0.05920 0.99980 0.29070 0.05600
H 	H 	0.04750 0.05580 0.28600 -0.01700
C 	C 	0.15740 0.96910 0.29100 -0.10800
H 	H 	0.21320 0.00380 0.28630 0.03000
C 	C 	0.17230 0.88520 0.29820 0.05300
H 	H 	0.23920 0.86440 0.29950 0.00500
C 	C 	0.91560 0.80440 0.31380 0.08400
C 	C 	0.99840 0.86410 0.30460 0.06400
Mo	Mo	0.72135 0.89430 0.56554 1.08600
Mo	Mo	0.69994 0.04740 0.59231 1.08800
Mo	Mo	0.64862 0.20763 0.51637 1.09200
Mo	Mo	0.63653 0.17420 0.43371 1.08300
Mo	Mo	0.66675 0.96690 0.39821 1.10300
Mo	Mo	0.69531 0.84601 0.45353 1.09300
Mo	Mo	0.80508 0.15353 0.26309 1.06800
Mo	Mo	0.89021 0.18964 0.19209 1.06800
Cd	Cd	0.02210 0.04053 0.44283 1.21700
Cd	Cd	0.89408 0.24769 0.43394 1.21900
P 	P 	0.79079 0.03497 0.49135 0.49300
P 	P 	0.82380 0.11760 0.36940 0.53500
P 	P 	0.11485 0.23024 0.48432 0.51100
P 	P 	0.83170 0.22564 0.59187 0.54400
O 	O 	0.82070 0.97600 0.58673 -0.61000
O 	O 	0.60670 0.97360 0.55888 -0.59200
O 	O 	0.75970 0.94450 0.50066 -0.45700
O 	O 	0.13790 0.16370 0.45002 -0.49600
O 	O 	0.64720 0.82160 0.51741 -0.45900
O 	O 	0.56260 0.12870 0.48338 -0.61100
O 	O 	0.74220 0.23040 0.46887 -0.62100
O 	O 	0.74570 0.18300 0.38617 -0.47200
O 	O 	0.74020 0.05910 0.44784 -0.44800
O 	O 	0.57690 0.07570 0.39815 -0.45800
O 	O 	0.58750 0.93160 0.44874 -0.60500
O 	O 	0.78380 0.89720 0.41198 -0.48800
O 	O 	0.17230 0.21360 0.52644 -0.38400
O 	O 	0.74440 0.09150 0.52623 -0.44700
O 	O 	0.60140 0.14490 0.57311 -0.45600
O 	O 	0.80380 0.13950 0.60679 -0.40700
O 	O 	0.75980 0.25850 0.55631 -0.40200
O 	O 	0.77110 0.03370 0.36386 -0.42800
O 	O 	0.90750 0.04150 0.49392 -0.51300
O 	O 	0.91460 0.11970 0.40157 -0.52600
O 	O 	0.00030 0.23320 0.49092 -0.39600
O 	O 	0.14640 0.31650 0.46655 -0.26800
O 	O 	0.94310 0.22040 0.57371 -0.22500
O 	O 	0.94020 0.19540 0.25161 -0.50300
O 	O 	0.74930 0.19980 0.20927 -0.51000
O 	O 	0.86160 0.14550 0.32551 -0.40500
O 	O 	0.83580 0.28410 0.62991 -0.40200
N 	N 	0.89320 0.38830 0.43680 -0.23400
N 	N 	0.00850 0.29550 0.38240 -0.22500
N 	N 	0.76230 0.28000 0.29290 -0.18700
N 	N 	0.64130 0.14990 0.28460 -0.21800
N 	N 	0.05370 0.22640 0.17810 -0.21800
N 	N 	0.90710 0.33350 0.19640 -0.18500
C 	C 	0.83990 0.42930 0.46470 0.07400
H 	H 	0.79290 0.40090 0.48150 -0.02600
C 	C 	0.85100 0.51510 0.47050 -0.11900
H 	H 	0.80680 0.54390 0.48850 0.07300
C 	C 	0.92910 0.55640 0.44900 0.02200
H 	H 	0.94240 0.61200 0.45430 0.04400
C 	C 	0.98600 0.51270 0.41980 -0.09400
H 	H 	0.03640 0.53900 0.40390 0.05100
C 	C 	0.09510 0.41110 0.35480 -0.12100
H 	H 	0.10640 0.46790 0.35540 0.03900
C 	C 	0.14590 0.36320 0.32600 0.03400
H 	H 	0.19320 0.38650 0.30740 -0.00800
C 	C 	0.12540 0.27580 0.32490 -0.13500
H 	H 	0.15700 0.24070 0.30530 0.07000
C 	C 	0.05650 0.24760 0.35430 0.07800
H 	H 	0.04230 0.19120 0.35470 -0.00600
C 	C 	0.96650 0.42590 0.41410 0.04000
C 	C 	0.02730 0.37620 0.38300 0.06200
C 	C 	0.82960 0.33880 0.30020 0.06100
H 	H 	0.89730 0.33060 0.29170 0.01800
C 	C 	0.80370 0.41520 0.32050 -0.13100
H 	H 	0.85060 0.45820 0.32450 0.06700
C 	C 	0.70340 0.41960 0.33380 0.03700
H 	H 	0.68180 0.46790 0.34720 -0.00100
C 	C 	0.63310 0.35670 0.32840 -0.13700
H 	H 	0.56670 0.36120 0.33890 0.05000
C 	C 	0.48770 0.21530 0.31130 -0.16000
H 	H 	0.45530 0.26160 0.32260 0.05800
C 	C 	0.43510 0.14500 0.30530 0.07800
H 	H 	0.36580 0.14290 0.31220 -0.03800
C 	C 	0.48060 0.07750 0.28940 -0.17800
H 	H 	0.44320 0.02910 0.28490 0.05900
C 	C 	0.58600 0.08130 0.27980 0.07800
H 	H 	0.61820 0.03390 0.26970 -0.05000
C 	C 	0.66360 0.28780 0.30720 0.05300
C 	C 	0.59550 0.21880 0.30020 0.06100
C 	C 	0.12490 0.17010 0.16760 0.09700
H 	H 	0.10340 0.11630 0.16190 -0.03800
C 	C 	0.22670 0.18800 0.16500 -0.17400
H 	H 	0.27420 0.14780 0.15720 0.07000
C 	C 	0.25680 0.26630 0.17430 0.07200
H 	H 	0.32640 0.27990 0.17370 -0.03600
C 	C 	0.18670 0.32560 0.18440 -0.15400
H 	H 	0.20790 0.37960 0.19000 0.06000
C 	C 	0.02230 0.44710 0.20240 -0.11700
H 	H 	0.08970 0.46680 0.20240 0.04500
C 	C 	0.94080 0.49980 0.20930 0.02100
H 	H 	0.95250 0.55580 0.21400 0.00600
C 	C 	0.84260 0.46910 0.20900 -0.13200
H 	H 	0.78680 0.50380 0.21370 0.05200
C 	C 	0.82770 0.38520 0.20180 0.06200
H 	H 	0.76080 0.36440 0.20050 -0.00200
C 	C 	0.08440 0.30440 0.18620 0.08500
C 	C 	0.00160 0.36410 0.19540 0.05800
Mo	Mo	0.72135 0.60570 0.06554 1.08600
Mo	Mo	0.69994 0.45260 0.09231 1.09700
Mo	Mo	0.64862 0.29237 0.01637 1.08400
Mo	Mo	0.63653 0.32580 0.93371 1.08400
Mo	Mo	0.66675 0.53310 0.89821 1.09400
Mo	Mo	0.69531 0.65399 0.95353 1.09700
Mo	Mo	0.80508 0.34647 0.76309 1.07000
Mo	Mo	0.89021 0.31036 0.69209 1.07000
Cd	Cd	0.02210 0.45947 0.94283 1.22200
Cd	Cd	0.89408 0.25231 0.93394 1.22000
P 	P 	0.79079 0.46503 0.99135 0.52500
P 	P 	0.82380 0.38240 0.86940 0.53500
P 	P 	0.11485 0.26976 0.98432 0.52100
P 	P 	0.83170 0.27436 0.09187 0.54400
O 	O 	0.82070 0.52400 0.08673 -0.62200
O 	O 	0.60670 0.52640 0.05888 -0.60500
O 	O 	0.75970 0.55550 0.00066 -0.48200
O 	O 	0.13790 0.33630 0.95002 -0.49600
O 	O 	0.64720 0.67840 0.01741 -0.46400
O 	O 	0.56260 0.37130 0.98338 -0.60100
O 	O 	0.74220 0.26960 0.96887 -0.61600
O 	O 	0.74570 0.31700 0.88617 -0.47200
O 	O 	0.74020 0.44090 0.94784 -0.44400
O 	O 	0.57690 0.42430 0.89815 -0.45100
O 	O 	0.58750 0.56840 0.94874 -0.60700
O 	O 	0.78380 0.60280 0.91198 -0.49200
O 	O 	0.17230 0.28640 0.02644 -0.39500
O 	O 	0.74440 0.40850 0.02623 -0.45600
O 	O 	0.60140 0.35510 0.07311 -0.45600
O 	O 	0.80380 0.36050 0.10679 -0.40400
O 	O 	0.75980 0.24150 0.05631 -0.40800
O 	O 	0.77110 0.46630 0.86386 -0.41800
O 	O 	0.90750 0.45850 0.99392 -0.50200
O 	O 	0.91460 0.38030 0.90157 -0.52400
O 	O 	0.00030 0.26680 0.99092 -0.39100
O 	O 	0.14640 0.18350 0.96655 -0.26700
O 	O 	0.94310 0.27960 0.07371 -0.22800
O 	O 	0.94020 0.30460 0.75161 -0.50100
O 	O 	0.74930 0.30020 0.70927 -0.50800
O 	O 	0.86160 0.35450 0.82551 -0.40300
O 	O 	0.83580 0.21590 0.12991 -0.40500
N 	N 	0.89320 0.11170 0.93680 -0.22000
N 	N 	0.00850 0.20450 0.88240 -0.22700
N 	N 	0.76230 0.22000 0.79290 -0.18700
N 	N 	0.64130 0.35010 0.78460 -0.21800
N 	N 	0.05370 0.27360 0.67810 -0.21800
N 	N 	0.90710 0.16650 0.69640 -0.18600
C 	C 	0.83990 0.07070 0.96470 0.02500
H 	H 	0.79290 0.09910 0.98150 -0.01000
C 	C 	0.85100 0.98490 0.97050 -0.05300
H 	H 	0.80680 0.95610 0.98850 0.05900
C 	C 	0.92910 0.94360 0.94900 -0.02400
H 	H 	0.94240 0.88800 0.95430 0.06500
C 	C 	0.98600 0.98730 0.91980 -0.03500
H 	H 	0.03640 0.96100 0.90390 0.03700
C 	C 	0.09510 0.08890 0.85480 -0.13000
H 	H 	0.10640 0.03210 0.85540 0.03700
C 	C 	0.14590 0.13680 0.82600 0.03900
H 	H 	0.19320 0.11350 0.80740 -0.01200
C 	C 	0.12540 0.22420 0.82490 -0.13900
H 	H 	0.15700 0.25930 0.80530 0.07200
C 	C 	0.05650 0.25240 0.85430 0.07900
H 	H 	0.04230 0.30880 0.85470 -0.00600
C 	C 	0.96650 0.07410 0.91410 0.00600
C 	C 	0.02730 0.12380 0.88300 0.07200
C 	C 	0.82960 0.16120 0.80020 0.06000
H 	H 	0.89730 0.16940 0.79170 0.01800
C 	C 	0.80370 0.08480 0.82050 -0.13200
H 	H 	0.85060 0.04180 0.82450 0.06200
C 	C 	0.70340 0.08040 0.83380 0.03600
H 	H 	0.68180 0.03210 0.84720 -0.00600
C 	C 	0.63310 0.14330 0.82840 -0.13800
H 	H 	0.56670 0.13880 0.83890 0.04800
C 	C 	0.48770 0.28470 0.81130 -0.16000
H 	H 	0.45530 0.23840 0.82260 0.05700
C 	C 	0.43510 0.35500 0.80530 0.07800
H 	H 	0.36580 0.35710 0.81220 -0.03700
C 	C 	0.48060 0.42250 0.78940 -0.17600
H 	H 	0.44320 0.47090 0.78490 0.06300
C 	C 	0.58600 0.41870 0.77980 0.07900
H 	H 	0.61820 0.46610 0.76970 -0.04500
C 	C 	0.66360 0.21220 0.80720 0.05200
C 	C 	0.59550 0.28120 0.80020 0.06100
C 	C 	0.12490 0.32990 0.66760 0.09800
H 	H 	0.10340 0.38370 0.66190 -0.03400
C 	C 	0.22670 0.31200 0.66500 -0.17400
H 	H 	0.27420 0.35220 0.65720 0.07300
C 	C 	0.25680 0.23370 0.67430 0.07200
H 	H 	0.32640 0.22010 0.67370 -0.03700
C 	C 	0.18670 0.17440 0.68440 -0.15500
H 	H 	0.20790 0.12040 0.69000 0.05700
C 	C 	0.02230 0.05290 0.70240 -0.10300
H 	H 	0.08970 0.03320 0.70240 0.03300
C 	C 	0.94080 0.00020 0.70930 -0.01000
H 	H 	0.95250 0.94420 0.71400 0.02900
C 	C 	0.84260 0.03090 0.70900 -0.15900
H 	H 	0.78680 0.99620 0.71370 0.07500
C 	C 	0.82770 0.11480 0.70180 0.07200
H 	H 	0.76080 0.13560 0.70050 -0.00800
C 	C 	0.08440 0.19560 0.68620 0.08600
C 	C 	0.00160 0.13590 0.69540 0.05200
Mo	Mo	0.27865 0.10570 0.43446 1.08500
Mo	Mo	0.30006 0.95260 0.40769 1.10700
Mo	Mo	0.35138 0.79237 0.48363 1.09200
Mo	Mo	0.36347 0.82580 0.56629 1.08300
Mo	Mo	0.33325 0.03310 0.60179 1.08400
Mo	Mo	0.30469 0.15399 0.54647 1.09300
Mo	Mo	0.19492 0.84647 0.73691 1.07200
Mo	Mo	0.10979 0.81036 0.80791 1.07100
Cd	Cd	0.97790 0.95947 0.55717 1.22400
Cd	Cd	0.10592 0.75231 0.56606 1.21900
P 	P 	0.20921 0.96503 0.50865 0.52000
P 	P 	0.17620 0.88240 0.63060 0.53500
P 	P 	0.88515 0.76976 0.51568 0.51100
P 	P 	0.16830 0.77436 0.40813 0.54400
O 	O 	0.17930 0.02400 0.41327 -0.63200
O 	O 	0.39330 0.02640 0.44112 -0.61300
O 	O 	0.24030 0.05550 0.49934 -0.48000
O 	O 	0.86210 0.83630 0.54998 -0.49500
O 	O 	0.35280 0.17840 0.48259 -0.45900
O 	O 	0.43740 0.87130 0.51662 -0.60600
O 	O 	0.25780 0.76960 0.53113 -0.62100
O 	O 	0.25430 0.81700 0.61383 -0.47200
O 	O 	0.25980 0.94090 0.55216 -0.43900
O 	O 	0.42310 0.92430 0.60185 -0.44500
O 	O 	0.41250 0.06840 0.55126 -0.61900
O 	O 	0.21620 0.10280 0.58802 -0.49900
O 	O 	0.82770 0.78640 0.47356 -0.38300
O 	O 	0.25560 0.90850 0.47377 -0.44200
O 	O 	0.39860 0.85510 0.42689 -0.45000
O 	O 	0.19620 0.86050 0.39321 -0.40000
O 	O 	0.24020 0.74150 0.44369 -0.40200
O 	O 	0.22890 0.96630 0.63614 -0.40800
O 	O 	0.09250 0.95850 0.50608 -0.50000
O 	O 	0.08540 0.88030 0.59843 -0.52200
O 	O 	0.99970 0.76680 0.50908 -0.39500
O 	O 	0.85360 0.68350 0.53345 -0.26800
O 	O 	0.05690 0.77960 0.42629 -0.22200
O 	O 	0.05980 0.80460 0.74839 -0.50000
O 	O 	0.25070 0.80020 0.79073 -0.50600
O 	O 	0.13840 0.85450 0.67449 -0.40100
O 	O 	0.16420 0.71590 0.37009 -0.40100
N 	N 	0.10680 0.61170 0.56320 -0.23400
N 	N 	0.99150 0.70450 0.61760 -0.22500
N 	N 	0.23770 0.72000 0.70710 -0.18700
N 	N 	0.35870 0.85010 0.71540 -0.21700
N 	N 	0.94630 0.77360 0.82190 -0.21700
N 	N 	0.09290 0.66650 0.80360 -0.18500
C 	C 	0.16010 0.57070 0.53530 0.07300
H 	H 	0.20710 0.59910 0.51850 -0.02600
C 	C 	0.14900 0.48490 0.52950 -0.11800
H 	H 	0.19320 0.45610 0.51150 0.07200
C 	C 	0.07090 0.44360 0.55100 0.02100
H 	H 	0.05760 0.38800 0.54570 0.04500
C 	C 	0.01400 0.48730 0.58020 -0.09200
H 	H 	0.96360 0.46100 0.59610 0.05000
C 	C 	0.90490 0.58890 0.64520 -0.12100
H 	H 	0.89360 0.53210 0.64460 0.03900
C 	C 	0.85410 0.63680 0.67400 0.03400
H 	H 	0.80680 0.61350 0.69260 -0.00700
C 	C 	0.87460 0.72420 0.67510 -0.13400
H 	H 	0.84300 0.75930 0.69470 0.07100
C 	C 	0.94350 0.75240 0.64570 0.07700
H 	H 	0.95770 0.80880 0.64530 -0.00400
C 	C 	0.03350 0.57410 0.58590 0.04000
C 	C 	0.97270 0.62380 0.61700 0.06100
C 	C 	0.17040 0.66120 0.69980 0.06100
H 	H 	0.10270 0.66940 0.70830 0.01800
C 	C 	0.19630 0.58480 0.67950 -0.13100
H 	H 	0.14940 0.54180 0.67550 0.06700
C 	C 	0.29660 0.58040 0.66620 0.03700
H 	H 	0.31820 0.53210 0.65280 -0.00100
C 	C 	0.36690 0.64330 0.67160 -0.13700
H 	H 	0.43330 0.63880 0.66110 0.05000
C 	C 	0.51230 0.78470 0.68870 -0.15900
H 	H 	0.54470 0.73840 0.67740 0.05800
C 	C 	0.56490 0.85500 0.69470 0.08000
H 	H 	0.63420 0.85710 0.68780 -0.03600
C 	C 	0.51940 0.92250 0.71060 -0.17500
H 	H 	0.55680 0.97090 0.71510 0.06800
C 	C 	0.41400 0.91870 0.72020 0.08100
H 	H 	0.38180 0.96610 0.73030 -0.03900
C 	C 	0.33640 0.71220 0.69280 0.05300
C 	C 	0.40450 0.78120 0.69980 0.06200
C 	C 	0.87510 0.82990 0.83240 0.09800
H 	H 	0.89660 0.88370 0.83810 -0.03000
C 	C 	0.77330 0.81200 0.83500 -0.17300
H 	H 	0.72580 0.85220 0.84280 0.07700
C 	C 	0.74320 0.73370 0.82570 0.07300
H 	H 	0.67360 0.72010 0.82630 -0.03500
C 	C 	0.81330 0.67440 0.81560 -0.15400
H 	H 	0.79210 0.62040 0.81000 0.06000
C 	C 	0.97770 0.55290 0.79760 -0.11900
H 	H 	0.91030 0.53320 0.79760 0.04500
C 	C 	0.05920 0.50020 0.79070 0.02300
H 	H 	0.04750 0.44420 0.78600 0.00600
C 	C 	0.15740 0.53090 0.79100 -0.13300
H 	H 	0.21320 0.49620 0.78630 0.05200
C 	C 	0.17230 0.61480 0.79820 0.06200
H 	H 	0.23920 0.63560 0.79950 -0.00100
C 	C 	0.91560 0.69560 0.81380 0.08500
C 	C 	0.99840 0.63590 0.80460 0.05800
Cd	Cd	0.50000 0.50000 -0.00000 1.25300
Cd	Cd	0.50000 0.00000 0.50000 1.25100
