data_crystal

_cell_length_a 21.85180
_cell_length_b 14.16100
_cell_length_c 17.91850
_cell_angle_alpha 90.00000
_cell_angle_beta  108.16500
_cell_angle_gamma 90.00000

_symmetry_space_group_name_	'P 1'
_symmetry_space_group_name_H-M	'P 1'

loop_
_symmetry_equiv_pos_as_xyz
  x,y,z

loop_
_atom_site_label
_atom_site_type_symbol
_atom_site_fract_x
_atom_site_fract_y
_atom_site_fract_z
_atom_site_charge
F 	F 	0.91719 0.45798 0.72994 -0.36400
Cu	Cu	0.81063 0.38194 0.47626 0.88000
Cu	Cu	0.75179 0.89546 0.58471 0.89900
F 	F 	0.02449 0.45921 0.84971 -0.36100
F 	F 	0.93462 0.78807 0.70343 -0.37300
F 	F 	0.04117 0.78880 0.82299 -0.37200
F 	F 	0.59428 0.43580 0.35870 -0.38300
F 	F 	0.58148 0.45310 0.09173 -0.36200
N 	N 	0.31310 0.39170 0.01990 -0.22900
N 	N 	0.74352 0.39750 0.37800 -0.25300
F 	F 	0.46817 0.42150 0.31862 -0.37200
N 	N 	0.14484 0.76590 0.98990 -0.24400
C 	C 	0.49490 0.42890 0.26070 0.24600
F 	F 	0.45596 0.44380 0.05153 -0.35100
C 	C 	0.00387 0.54170 0.81320 0.24200
C 	C 	0.34747 0.40590 0.08150 0.18600
C 	C 	0.86121 0.62250 0.64480 -0.03500
N 	N 	0.78824 0.76840 0.61720 -0.22800
N 	N 	0.71827 0.54270 0.16330 -0.22700
C 	C 	0.10036 0.62260 0.90400 -0.03100
N 	N 	0.17673 0.48180 0.92020 -0.22100
C 	C 	0.92075 0.62260 0.70980 -0.07000
C 	C 	0.12433 0.70170 0.95090 0.17600
C 	C 	0.95558 0.70520 0.73850 0.23500
C 	C 	0.14190 0.54450 0.91380 0.17300
C 	C 	0.66458 0.45230 0.24880 -0.03600
C 	C 	0.03934 0.62390 0.84090 -0.07400
C 	C 	0.70658 0.42130 0.32100 0.17600
C 	C 	0.55470 0.44630 0.15010 0.24500
C 	C 	0.56090 0.43620 0.28100 0.23600
C 	C 	0.45501 0.43100 0.18300 -0.07000
C 	C 	0.01158 0.70530 0.80100 0.23800
C 	C 	0.48864 0.44080 0.12910 0.24300
C 	C 	0.94828 0.54140 0.75100 0.23000
C 	C 	0.84479 0.54770 0.59200 0.17800
C 	C 	0.82011 0.70200 0.62900 0.17300
N 	N 	0.83158 0.48710 0.54650 -0.24500
C 	C 	0.69391 0.50100 0.20150 0.17300
C 	C 	0.38505 0.42200 0.15910 -0.01900
C 	C 	0.59410 0.44470 0.22740 -0.07200
C 	C 	0.35000 0.42750 0.21270 0.15700
N 	N 	0.31710 0.42960 0.25210 -0.08900
F 	F 	0.08281 0.95798 0.77006 -0.36100
Cu	Cu	0.18937 0.88194 0.02374 0.87900
Cu	Cu	0.24821 0.39546 0.91529 0.89900
F 	F 	0.97551 0.95921 0.65029 -0.36000
F 	F 	0.06538 0.28807 0.79657 -0.37400
F 	F 	0.95883 0.28880 0.67701 -0.37200
F 	F 	0.40572 0.93580 0.14130 -0.38400
F 	F 	0.41852 0.95310 0.40827 -0.36200
N 	N 	0.68690 0.89170 0.48010 -0.22900
N 	N 	0.25648 0.89750 0.12200 -0.25400
F 	F 	0.53183 0.92150 0.18138 -0.37200
N 	N 	0.85516 0.26590 0.51010 -0.24600
C 	C 	0.50510 0.92890 0.23930 0.24600
F 	F 	0.54404 0.94380 0.44847 -0.35100
C 	C 	0.99613 0.04170 0.68680 0.23900
C 	C 	0.65253 0.90590 0.41850 0.18600
C 	C 	0.13879 0.12250 0.85520 -0.03300
N 	N 	0.21176 0.26840 0.88280 -0.22800
N 	N 	0.28173 0.04270 0.33670 -0.22800
C 	C 	0.89964 0.12260 0.59600 -0.03100
N 	N 	0.82327 0.98180 0.57980 -0.22100
C 	C 	0.07925 0.12260 0.79020 -0.07200
C 	C 	0.87567 0.20170 0.54910 0.17600
C 	C 	0.04442 0.20520 0.76150 0.23700
C 	C 	0.85810 0.04450 0.58620 0.17200
C 	C 	0.33542 0.95230 0.25120 -0.03900
C 	C 	0.96066 0.12390 0.65910 -0.07300
C 	C 	0.29342 0.92130 0.17900 0.17500
C 	C 	0.44530 0.94630 0.34990 0.24500
C 	C 	0.43910 0.93620 0.21900 0.23500
C 	C 	0.54499 0.93100 0.31700 -0.07000
C 	C 	0.98842 0.20530 0.69900 0.23500
C 	C 	0.51136 0.94080 0.37090 0.24300
C 	C 	0.05172 0.04140 0.74900 0.23100
C 	C 	0.15521 0.04770 0.90800 0.17200
C 	C 	0.17989 0.20200 0.87100 0.17200
N 	N 	0.16842 0.98710 0.95350 -0.24000
C 	C 	0.30609 0.00100 0.29850 0.17600
C 	C 	0.61495 0.92200 0.34090 -0.02000
C 	C 	0.40590 0.94470 0.27260 -0.07200
C 	C 	0.65000 0.92750 0.28730 0.15700
N 	N 	0.68290 0.92960 0.24790 -0.08900
F 	F 	0.08281 0.54202 0.27006 -0.36300
Cu	Cu	0.18937 0.61806 0.52374 0.88100
Cu	Cu	0.24821 0.10454 0.41529 0.89900
F 	F 	0.97551 0.54079 0.15029 -0.36100
F 	F 	0.06538 0.21193 0.29657 -0.37300
F 	F 	0.95883 0.21120 0.17701 -0.37200
F 	F 	0.40572 0.56420 0.64130 -0.38300
F 	F 	0.41852 0.54690 0.90827 -0.36200
N 	N 	0.68690 0.60830 0.98010 -0.22900
N 	N 	0.25648 0.60250 0.62200 -0.25300
F 	F 	0.53183 0.57850 0.68138 -0.37200
N 	N 	0.85516 0.23410 0.01010 -0.24400
C 	C 	0.50510 0.57110 0.73930 0.24600
F 	F 	0.54404 0.55620 0.94847 -0.35100
C 	C 	0.99613 0.45830 0.18680 0.24200
C 	C 	0.65253 0.59410 0.91850 0.18600
C 	C 	0.13879 0.37750 0.35520 -0.03500
N 	N 	0.21176 0.23160 0.38280 -0.22800
N 	N 	0.28173 0.45730 0.83670 -0.22700
C 	C 	0.89964 0.37740 0.09600 -0.03100
N 	N 	0.82327 0.51820 0.07980 -0.22100
C 	C 	0.07925 0.37740 0.29020 -0.07000
C 	C 	0.87567 0.29830 0.04910 0.17600
C 	C 	0.04442 0.29480 0.26150 0.23500
C 	C 	0.85810 0.45550 0.08620 0.17300
C 	C 	0.33542 0.54770 0.75120 -0.03600
C 	C 	0.96066 0.37610 0.15910 -0.07400
C 	C 	0.29342 0.57870 0.67900 0.17600
C 	C 	0.44530 0.55370 0.84990 0.24500
C 	C 	0.43910 0.56380 0.71900 0.23600
C 	C 	0.54499 0.56900 0.81700 -0.07000
C 	C 	0.98842 0.29470 0.19900 0.23800
C 	C 	0.51136 0.55920 0.87090 0.24300
C 	C 	0.05172 0.45860 0.24900 0.23000
C 	C 	0.15521 0.45230 0.40800 0.17800
C 	C 	0.17989 0.29800 0.37100 0.17300
N 	N 	0.16842 0.51290 0.45350 -0.24500
C 	C 	0.30609 0.49900 0.79850 0.17300
C 	C 	0.61495 0.57800 0.84090 -0.01900
C 	C 	0.40590 0.55530 0.77260 -0.07200
C 	C 	0.65000 0.57250 0.78730 0.15700
N 	N 	0.68290 0.57040 0.74790 -0.08900
F 	F 	0.91719 0.04202 0.22994 -0.36100
Cu	Cu	0.81063 0.11806 0.97626 0.87900
Cu	Cu	0.75179 0.60454 0.08471 0.89900
F 	F 	0.02449 0.04079 0.34971 -0.36000
F 	F 	0.93462 0.71193 0.20343 -0.37400
F 	F 	0.04117 0.71120 0.32299 -0.37200
F 	F 	0.59428 0.06420 0.85870 -0.38400
F 	F 	0.58148 0.04690 0.59173 -0.36200
N 	N 	0.31310 0.10830 0.51990 -0.22900
N 	N 	0.74352 0.10250 0.87800 -0.25400
F 	F 	0.46817 0.07850 0.81862 -0.37200
N 	N 	0.14484 0.73410 0.48990 -0.24600
C 	C 	0.49490 0.07110 0.76070 0.24600
F 	F 	0.45596 0.05620 0.55153 -0.35100
C 	C 	0.00387 0.95830 0.31320 0.23900
C 	C 	0.34747 0.09410 0.58150 0.18600
C 	C 	0.86121 0.87750 0.14480 -0.03300
N 	N 	0.78824 0.73160 0.11720 -0.22800
N 	N 	0.71827 0.95730 0.66330 -0.22800
C 	C 	0.10036 0.87740 0.40400 -0.03100
N 	N 	0.17673 0.01820 0.42020 -0.22100
C 	C 	0.92075 0.87740 0.20980 -0.07200
C 	C 	0.12433 0.79830 0.45090 0.17600
C 	C 	0.95558 0.79480 0.23850 0.23700
C 	C 	0.14190 0.95550 0.41380 0.17200
C 	C 	0.66458 0.04770 0.74880 -0.03900
C 	C 	0.03934 0.87610 0.34090 -0.07300
C 	C 	0.70658 0.07870 0.82100 0.17500
C 	C 	0.55470 0.05370 0.65010 0.24500
C 	C 	0.56090 0.06380 0.78100 0.23500
C 	C 	0.45501 0.06900 0.68300 -0.07000
C 	C 	0.01158 0.79470 0.30100 0.23500
C 	C 	0.48864 0.05920 0.62910 0.24300
C 	C 	0.94828 0.95860 0.25100 0.23100
C 	C 	0.84479 0.95230 0.09200 0.17200
C 	C 	0.82011 0.79800 0.12900 0.17200
N 	N 	0.83158 0.01290 0.04650 -0.24000
C 	C 	0.69391 0.99900 0.70150 0.17600
C 	C 	0.38505 0.07800 0.65910 -0.02000
C 	C 	0.59410 0.05530 0.72740 -0.07200
C 	C 	0.35000 0.07250 0.71270 0.15700
N 	N 	0.31710 0.07040 0.75210 -0.08900
