data_crystal

_cell_length_a 13.08830
_cell_length_b 13.08830
_cell_length_c 26.79390
_cell_angle_alpha 90.00000
_cell_angle_beta  90.00000
_cell_angle_gamma 90.00000

_symmetry_space_group_name_	'P 1'
_symmetry_space_group_name_H-M	'P 1'

loop_
_symmetry_equiv_pos_as_xyz
  x,y,z

loop_
_atom_site_label
_atom_site_type_symbol
_atom_site_fract_x
_atom_site_fract_y
_atom_site_fract_z
_atom_site_charge
N 	N 	0.44990 0.90490 0.33688 -0.26000
O 	O 	0.28050 0.54320 0.58323 -0.22800
N 	N 	0.09920 0.45590 0.72918 -0.23400
C 	C 	0.38590 0.61760 0.46281 -0.02100
H 	H 	0.41410 0.58680 0.43470 0.04800
C 	C 	0.35100 0.55570 0.50227 -0.02900
C 	C 	0.40620 0.78680 0.42098 0.14600
C 	C 	0.37950 0.72290 0.46472 -0.06300
C 	C 	0.46400 0.74820 0.38184 -0.19500
H 	H 	0.48920 0.68180 0.38340 0.09900
C 	C 	0.48440 0.80870 0.34031 0.10600
H 	H 	0.52290 0.78170 0.31430 -0.02500
C 	C 	0.31600 0.60520 0.54613 0.16000
C 	C 	0.34590 0.76770 0.50886 0.03300
H 	H 	0.34430 0.83850 0.51130 0.01800
C 	C 	0.37010 0.88410 0.41606 -0.23900
H 	H 	0.32950 0.91230 0.44100 0.11800
C 	C 	0.39370 0.94180 0.37360 0.21000
H 	H 	0.36900 0.00830 0.37120 -0.10000
C 	C 	0.13350 0.52610 0.69648 0.01200
H 	H 	0.11000 0.59290 0.69930 -0.00800
C 	C 	0.20100 0.50350 0.65944 -0.01800
C 	C 	0.31490 0.71000 0.54902 -0.16600
H 	H 	0.29320 0.74200 0.57810 0.08700
C 	C 	0.13020 0.35930 0.72410 0.05500
H 	H 	0.10630 0.31020 0.74640 -0.02600
C 	C 	0.23840 0.58680 0.62570 0.03300
H 	H 	0.18220 0.63120 0.61660 0.02000
H 	H 	0.28950 0.62750 0.64280 0.01800
C 	C 	0.19530 0.33080 0.68740 -0.10400
H 	H 	0.21440 0.26260 0.68460 0.05700
C 	C 	0.23340 0.40070 0.65440 -0.01300
H 	H 	0.27900 0.38150 0.62940 0.04900
N 	N 	0.55010 0.09510 0.33688 -0.23100
O 	O 	0.71950 0.45680 0.58323 -0.21700
N 	N 	0.90080 0.54410 0.72918 -0.21400
C 	C 	0.61410 0.38240 0.46281 -0.04200
H 	H 	0.58590 0.41320 0.43470 0.05700
C 	C 	0.64900 0.44430 0.50227 -0.01200
C 	C 	0.59380 0.21320 0.42098 0.07700
C 	C 	0.62050 0.27710 0.46472 -0.02900
C 	C 	0.53600 0.25180 0.38184 -0.14700
H 	H 	0.51080 0.31820 0.38340 0.08200
C 	C 	0.51560 0.19130 0.34031 0.07300
H 	H 	0.47710 0.21830 0.31430 -0.02000
C 	C 	0.68400 0.39480 0.54613 0.15100
C 	C 	0.65410 0.23230 0.50886 0.01400
H 	H 	0.65570 0.16150 0.51130 0.01700
C 	C 	0.62990 0.11590 0.41606 -0.11200
H 	H 	0.67050 0.08770 0.44100 0.05700
C 	C 	0.60630 0.05820 0.37360 -0.01500
H 	H 	0.63100 0.99170 0.37120 0.04300
C 	C 	0.86650 0.47390 0.69648 0.01700
H 	H 	0.89000 0.40710 0.69930 0.00700
C 	C 	0.79900 0.49650 0.65944 -0.00800
C 	C 	0.68510 0.29000 0.54902 -0.15000
H 	H 	0.70680 0.25800 0.57810 0.08100
C 	C 	0.86980 0.64070 0.72410 0.06200
H 	H 	0.89370 0.68980 0.74640 -0.00500
C 	C 	0.76160 0.41320 0.62570 0.02400
H 	H 	0.81780 0.36880 0.61660 0.03100
H 	H 	0.71050 0.37250 0.64280 0.02100
C 	C 	0.80470 0.66920 0.68740 -0.09500
H 	H 	0.78560 0.73740 0.68460 0.06700
C 	C 	0.76660 0.59930 0.65440 -0.01000
H 	H 	0.72100 0.61850 0.62940 0.05200
N 	N 	0.09510 0.44990 0.83688 -0.23100
O 	O 	0.45680 0.28050 0.08323 -0.22500
N 	N 	0.54410 0.09920 0.22918 -0.23300
C 	C 	0.38240 0.38590 0.96281 -0.04300
H 	H 	0.41320 0.41410 0.93470 0.05700
C 	C 	0.44430 0.35100 0.00227 -0.01500
C 	C 	0.21320 0.40620 0.92098 0.07400
C 	C 	0.27710 0.37950 0.96472 -0.03100
C 	C 	0.25180 0.46400 0.88184 -0.14600
H 	H 	0.31820 0.48920 0.88340 0.08200
C 	C 	0.19130 0.48440 0.84031 0.07200
H 	H 	0.21830 0.52290 0.81430 -0.01800
C 	C 	0.39480 0.31600 0.04613 0.14900
C 	C 	0.23230 0.34590 0.00886 0.01000
H 	H 	0.16150 0.34430 0.01130 0.01400
C 	C 	0.11590 0.37010 0.91606 -0.11300
H 	H 	0.08770 0.32950 0.94100 0.05100
C 	C 	0.05820 0.39370 0.87360 -0.01800
H 	H 	0.99170 0.36900 0.87120 0.03900
C 	C 	0.47390 0.13350 0.19648 0.01500
H 	H 	0.40710 0.11000 0.19930 -0.01300
C 	C 	0.49650 0.20100 0.15944 -0.02200
C 	C 	0.29000 0.31490 0.04902 -0.15300
H 	H 	0.25800 0.29320 0.07810 0.07700
C 	C 	0.64070 0.13020 0.22410 0.05700
H 	H 	0.68980 0.10630 0.24640 -0.02100
C 	C 	0.41320 0.23840 0.12570 0.03700
H 	H 	0.36880 0.18220 0.11660 0.01500
H 	H 	0.37250 0.28950 0.14280 0.01500
C 	C 	0.66920 0.19530 0.18740 -0.10500
H 	H 	0.73740 0.21440 0.18460 0.06300
C 	C 	0.59930 0.23340 0.15440 -0.00900
H 	H 	0.61850 0.27900 0.12940 0.04800
N 	N 	0.90490 0.55010 0.83688 -0.25900
O 	O 	0.54320 0.71950 0.08323 -0.21900
N 	N 	0.45590 0.90080 0.22918 -0.21400
C 	C 	0.61760 0.61410 0.96281 -0.01900
H 	H 	0.58680 0.58590 0.93470 0.04800
C 	C 	0.55570 0.64900 0.00227 -0.02600
C 	C 	0.78680 0.59380 0.92098 0.14800
C 	C 	0.72290 0.62050 0.96472 -0.06100
C 	C 	0.74820 0.53600 0.88184 -0.19700
H 	H 	0.68180 0.51080 0.88340 0.10000
C 	C 	0.80870 0.51560 0.84031 0.10700
H 	H 	0.78170 0.47710 0.81430 -0.02700
C 	C 	0.60520 0.68400 0.04613 0.16200
C 	C 	0.76770 0.65410 0.00886 0.03700
H 	H 	0.83850 0.65570 0.01130 0.02100
C 	C 	0.88410 0.62990 0.91606 -0.23800
H 	H 	0.91230 0.67050 0.94100 0.12400
C 	C 	0.94180 0.60630 0.87360 0.21200
H 	H 	0.00830 0.63100 0.87120 -0.09600
C 	C 	0.52610 0.86650 0.19648 0.01400
H 	H 	0.59290 0.89000 0.19930 0.01200
C 	C 	0.50350 0.79900 0.15944 -0.00400
C 	C 	0.71000 0.68510 0.04902 -0.16300
H 	H 	0.74200 0.70680 0.07810 0.09200
C 	C 	0.35930 0.86980 0.22410 0.06000
H 	H 	0.31020 0.89370 0.24640 -0.01100
C 	C 	0.58680 0.76160 0.12570 0.02000
H 	H 	0.63120 0.81780 0.11660 0.03600
H 	H 	0.62750 0.71050 0.14280 0.02400
C 	C 	0.33080 0.80470 0.18740 -0.09400
H 	H 	0.26260 0.78560 0.18460 0.06100
C 	C 	0.40070 0.76660 0.15440 -0.01400
H 	H 	0.38150 0.72100 0.12940 0.05300
N 	N 	0.55010 0.90490 0.66312 -0.25900
O 	O 	0.71950 0.54320 0.41677 -0.21900
N 	N 	0.90080 0.45590 0.27082 -0.21400
C 	C 	0.61410 0.61760 0.53719 -0.01900
H 	H 	0.58590 0.58680 0.56530 0.04800
C 	C 	0.64900 0.55570 0.49773 -0.02600
C 	C 	0.59380 0.78680 0.57902 0.14800
C 	C 	0.62050 0.72290 0.53528 -0.06100
C 	C 	0.53600 0.74820 0.61816 -0.19700
H 	H 	0.51080 0.68180 0.61660 0.10000
C 	C 	0.51560 0.80870 0.65969 0.10700
H 	H 	0.47710 0.78170 0.68570 -0.02700
C 	C 	0.68400 0.60520 0.45387 0.16200
C 	C 	0.65410 0.76770 0.49114 0.03700
H 	H 	0.65570 0.83850 0.48870 0.02100
C 	C 	0.62990 0.88410 0.58394 -0.23800
H 	H 	0.67050 0.91230 0.55900 0.12400
C 	C 	0.60630 0.94180 0.62640 0.21200
H 	H 	0.63100 0.00830 0.62880 -0.09600
C 	C 	0.86650 0.52610 0.30352 0.01400
H 	H 	0.89000 0.59290 0.30070 0.01200
C 	C 	0.79900 0.50350 0.34056 -0.00400
C 	C 	0.68510 0.71000 0.45098 -0.16300
H 	H 	0.70680 0.74200 0.42190 0.09200
C 	C 	0.86980 0.35930 0.27590 0.06000
H 	H 	0.89370 0.31020 0.25360 -0.01100
C 	C 	0.76160 0.58680 0.37430 0.02000
H 	H 	0.81780 0.63120 0.38340 0.03600
H 	H 	0.71050 0.62750 0.35720 0.02400
C 	C 	0.80470 0.33080 0.31260 -0.09400
H 	H 	0.78560 0.26260 0.31540 0.06100
C 	C 	0.76660 0.40070 0.34560 -0.01400
H 	H 	0.72100 0.38150 0.37060 0.05300
N 	N 	0.44990 0.09510 0.66312 -0.23100
O 	O 	0.28050 0.45680 0.41677 -0.22500
N 	N 	0.09920 0.54410 0.27082 -0.23300
C 	C 	0.38590 0.38240 0.53719 -0.04300
H 	H 	0.41410 0.41320 0.56530 0.05700
C 	C 	0.35100 0.44430 0.49773 -0.01500
C 	C 	0.40620 0.21320 0.57902 0.07400
C 	C 	0.37950 0.27710 0.53528 -0.03100
C 	C 	0.46400 0.25180 0.61816 -0.14600
H 	H 	0.48920 0.31820 0.61660 0.08200
C 	C 	0.48440 0.19130 0.65969 0.07200
H 	H 	0.52290 0.21830 0.68570 -0.01800
C 	C 	0.31600 0.39480 0.45387 0.14900
C 	C 	0.34590 0.23230 0.49114 0.01000
H 	H 	0.34430 0.16150 0.48870 0.01400
C 	C 	0.37010 0.11590 0.58394 -0.11300
H 	H 	0.32950 0.08770 0.55900 0.05100
C 	C 	0.39370 0.05820 0.62640 -0.01800
H 	H 	0.36900 0.99170 0.62880 0.03900
C 	C 	0.13350 0.47390 0.30352 0.01500
H 	H 	0.11000 0.40710 0.30070 -0.01300
C 	C 	0.20100 0.49650 0.34056 -0.02200
C 	C 	0.31490 0.29000 0.45098 -0.15300
H 	H 	0.29320 0.25800 0.42190 0.07700
C 	C 	0.13020 0.64070 0.27590 0.05700
H 	H 	0.10630 0.68980 0.25360 -0.02100
C 	C 	0.23840 0.41320 0.37430 0.03700
H 	H 	0.18220 0.36880 0.38340 0.01500
H 	H 	0.28950 0.37250 0.35720 0.01500
C 	C 	0.19530 0.66920 0.31260 -0.10500
H 	H 	0.21440 0.73740 0.31540 0.06300
C 	C 	0.23340 0.59930 0.34560 -0.00900
H 	H 	0.27900 0.61850 0.37060 0.04800
N 	N 	0.90490 0.44990 0.16312 -0.25900
O 	O 	0.54320 0.28050 0.91677 -0.22600
N 	N 	0.45590 0.09920 0.77082 -0.23300
C 	C 	0.61760 0.38590 0.03719 -0.02100
H 	H 	0.58680 0.41410 0.06530 0.04800
C 	C 	0.55570 0.35100 0.99773 -0.02900
C 	C 	0.78680 0.40620 0.07902 0.14600
C 	C 	0.72290 0.37950 0.03528 -0.06300
C 	C 	0.74820 0.46400 0.11816 -0.19500
H 	H 	0.68180 0.48920 0.11660 0.09900
C 	C 	0.80870 0.48440 0.15969 0.10600
H 	H 	0.78170 0.52290 0.18570 -0.02500
C 	C 	0.60520 0.31600 0.95387 0.16000
C 	C 	0.76770 0.34590 0.99114 0.03300
H 	H 	0.83850 0.34430 0.98870 0.01800
C 	C 	0.88410 0.37010 0.08394 -0.23800
H 	H 	0.91230 0.32950 0.05900 0.11800
C 	C 	0.94180 0.39370 0.12640 0.20900
H 	H 	0.00830 0.36900 0.12880 -0.09900
C 	C 	0.52610 0.13350 0.80352 0.01200
H 	H 	0.59290 0.11000 0.80070 -0.00800
C 	C 	0.50350 0.20100 0.84056 -0.01800
C 	C 	0.71000 0.31490 0.95098 -0.16600
H 	H 	0.74200 0.29320 0.92190 0.08700
C 	C 	0.35930 0.13020 0.77590 0.05500
H 	H 	0.31020 0.10630 0.75360 -0.02600
C 	C 	0.58680 0.23840 0.87430 0.03300
H 	H 	0.63120 0.18220 0.88340 0.02000
H 	H 	0.62750 0.28950 0.85720 0.01800
C 	C 	0.33080 0.19530 0.81260 -0.10400
H 	H 	0.26260 0.21440 0.81540 0.05700
C 	C 	0.40070 0.23340 0.84560 -0.01300
H 	H 	0.38150 0.27900 0.87060 0.04900
N 	N 	0.09510 0.55010 0.16312 -0.23100
O 	O 	0.45680 0.71950 0.91677 -0.21700
N 	N 	0.54410 0.90080 0.77082 -0.21400
C 	C 	0.38240 0.61410 0.03719 -0.04200
H 	H 	0.41320 0.58590 0.06530 0.05700
C 	C 	0.44430 0.64900 0.99773 -0.01300
C 	C 	0.21320 0.59380 0.07902 0.07700
C 	C 	0.27710 0.62050 0.03528 -0.02900
C 	C 	0.25180 0.53600 0.11816 -0.14700
H 	H 	0.31820 0.51080 0.11660 0.08200
C 	C 	0.19130 0.51560 0.15969 0.07300
H 	H 	0.21830 0.47710 0.18570 -0.02000
C 	C 	0.39480 0.68400 0.95387 0.15100
C 	C 	0.23230 0.65410 0.99114 0.01400
H 	H 	0.16150 0.65570 0.98870 0.01700
C 	C 	0.11590 0.62990 0.08394 -0.11200
H 	H 	0.08770 0.67050 0.05900 0.05700
C 	C 	0.05820 0.60630 0.12640 -0.01500
H 	H 	0.99170 0.63100 0.12880 0.04300
C 	C 	0.47390 0.86650 0.80352 0.01700
H 	H 	0.40710 0.89000 0.80070 0.00700
C 	C 	0.49650 0.79900 0.84056 -0.00800
C 	C 	0.29000 0.68510 0.95098 -0.15000
H 	H 	0.25800 0.70680 0.92190 0.08100
C 	C 	0.64070 0.86980 0.77590 0.06200
H 	H 	0.68980 0.89370 0.75360 -0.00500
C 	C 	0.41320 0.76160 0.87430 0.02400
H 	H 	0.36880 0.81780 0.88340 0.03100
H 	H 	0.37250 0.71050 0.85720 0.02100
C 	C 	0.66920 0.80470 0.81260 -0.09500
H 	H 	0.73740 0.78560 0.81540 0.06700
C 	C 	0.59930 0.76660 0.84560 -0.01000
H 	H 	0.61850 0.72100 0.87060 0.05200
Cu	Cu	0.50000 -0.00000 0.28255 0.83200
Cu	Cu	-0.00000 0.50000 0.78255 0.83200
Cu	Cu	0.50000 0.00000 0.71745 0.83200
Cu	Cu	-0.00000 0.50000 0.21745 0.83200
