data_crystal

_cell_length_a 10.80200
_cell_length_b 12.14300
_cell_length_c 12.24500
_cell_angle_alpha 94.03100
_cell_angle_beta  106.64100
_cell_angle_gamma 101.35600

_symmetry_space_group_name_	'P 1'
_symmetry_space_group_name_H-M	'P 1'

loop_
_symmetry_equiv_pos_as_xyz
  x,y,z

loop_
_atom_site_label
_atom_site_type_symbol
_atom_site_fract_x
_atom_site_fract_y
_atom_site_fract_z
_atom_site_charge
Ho	Ho	0.91700 0.19034 0.00188 1.79400
Ho	Ho	0.08300 0.80966 0.99812 1.79400
H 	H 	0.97810 0.18590 0.71360 0.01500
H 	H 	0.98140 0.21040 0.53130 0.07400
H 	H 	0.01380 0.86650 0.66090 0.03600
H 	H 	0.10790 0.46670 0.33680 0.05800
H 	H 	0.23840 0.60650 0.51010 0.06300
H 	H 	0.74280 0.30260 0.31610 0.03500
H 	H 	0.39820 0.33050 0.09180 0.05700
H 	H 	0.63970 0.41310 0.16860 0.06700
H 	H 	0.17930 0.45730 0.83120 0.04100
H 	H 	0.71730 0.93330 0.97740 0.01100
H 	H 	0.50080 0.82860 0.90720 0.06300
H 	H 	0.33820 0.91070 0.80300 0.05900
H 	H 	0.27570 0.07960 0.71310 0.06300
H 	H 	0.33400 0.26230 0.68930 0.04800
H 	H 	0.51470 0.43580 0.70710 0.03600
H 	H 	0.73320 0.52410 0.77920 0.07900
H 	H 	0.88130 0.43080 0.88400 0.01300
H 	H 	0.02190 0.81410 0.28640 0.01600
H 	H 	0.01860 0.78960 0.46870 0.07500
H 	H 	0.98620 0.13350 0.33910 0.03700
H 	H 	0.89210 0.53330 0.66320 0.05900
H 	H 	0.76160 0.39350 0.48990 0.06300
H 	H 	0.25720 0.69740 0.68390 0.03500
H 	H 	0.60180 0.66950 0.90820 0.05700
H 	H 	0.36030 0.58690 0.83140 0.06700
H 	H 	0.82070 0.54270 0.16880 0.04100
H 	H 	0.28270 0.06670 0.02260 0.01100
H 	H 	0.49920 0.17140 0.09280 0.06300
H 	H 	0.66180 0.08930 0.19700 0.05900
H 	H 	0.72430 0.92040 0.28690 0.06300
H 	H 	0.66600 0.73770 0.31070 0.04800
H 	H 	0.48530 0.56420 0.29290 0.03600
H 	H 	0.26680 0.47590 0.22080 0.07900
H 	H 	0.11870 0.56920 0.11600 0.01300
C 	C 	0.99160 0.00600 0.82340 0.54400
C 	C 	0.99350 0.02070 0.70330 -0.16500
C 	C 	0.98480 0.12640 0.66510 0.06400
C 	C 	0.98640 0.14030 0.55610 -0.11800
C 	C 	0.99550 0.05280 0.48040 0.02000
C 	C 	0.00520 0.93500 0.63350 -0.00400
C 	C 	0.91200 0.31750 0.19330 0.31300
C 	C 	0.92500 0.37660 0.30920 -0.07500
C 	C 	0.03840 0.45230 0.36810 -0.03900
C 	C 	0.05250 0.51030 0.47760 0.02300
C 	C 	0.16810 0.59050 0.54040 -0.09300
C 	C 	0.82070 0.35510 0.35640 0.00500
C 	C 	0.14970 0.30610 0.97270 0.30400
C 	C 	0.27030 0.38100 0.96420 -0.06900
C 	C 	0.39120 0.38260 0.03940 -0.04200
C 	C 	0.50520 0.46100 0.03970 0.02900
C 	C 	0.63090 0.46490 0.11610 -0.09200
C 	C 	0.26090 0.45870 0.88430 0.00900
C 	C 	0.65190 0.96720 0.93590 0.06600
C 	C 	0.52170 0.90340 0.89350 -0.07500
C 	C 	0.42560 0.95210 0.83180 -0.05200
C 	C 	0.45830 0.06290 0.81190 0.02200
C 	C 	0.36340 0.11900 0.74560 -0.07000
C 	C 	0.39850 0.22670 0.72950 -0.03900
C 	C 	0.53160 0.28760 0.77220 -0.00500
C 	C 	0.57520 0.39860 0.75060 -0.01500
C 	C 	0.70380 0.45050 0.79260 -0.10700
C 	C 	0.79230 0.39370 0.85610 0.08200
C 	C 	0.62830 0.23430 0.83620 0.04100
C 	C 	0.58970 0.12090 0.85850 0.03000
C 	C 	0.00840 0.99400 0.17660 0.54400
C 	C 	0.00650 0.97930 0.29670 -0.16500
C 	C 	0.01520 0.87360 0.33490 0.06400
C 	C 	0.01360 0.85970 0.44390 -0.11800
C 	C 	0.00450 0.94720 0.51960 0.02000
C 	C 	0.99480 0.06500 0.36650 -0.00400
C 	C 	0.08800 0.68250 0.80670 0.31300
C 	C 	0.07500 0.62340 0.69080 -0.07500
C 	C 	0.96160 0.54770 0.63190 -0.03900
C 	C 	0.94750 0.48970 0.52240 0.02300
C 	C 	0.83190 0.40950 0.45960 -0.09300
C 	C 	0.17930 0.64490 0.64360 0.00500
C 	C 	0.85030 0.69390 0.02730 0.30400
C 	C 	0.72970 0.61900 0.03580 -0.06900
C 	C 	0.60880 0.61740 0.96060 -0.04200
C 	C 	0.49480 0.53900 0.96030 0.02900
C 	C 	0.36910 0.53510 0.88390 -0.09200
C 	C 	0.73910 0.54130 0.11570 0.00900
C 	C 	0.34810 0.03280 0.06410 0.06600
C 	C 	0.47830 0.09660 0.10650 -0.07500
C 	C 	0.57440 0.04790 0.16820 -0.05200
C 	C 	0.54170 0.93710 0.18810 0.02200
C 	C 	0.63660 0.88100 0.25440 -0.07000
C 	C 	0.60150 0.77330 0.27050 -0.03900
C 	C 	0.46840 0.71240 0.22780 -0.00500
C 	C 	0.42480 0.60140 0.24940 -0.01500
C 	C 	0.29620 0.54950 0.20740 -0.10700
C 	C 	0.20770 0.60630 0.14390 0.08200
C 	C 	0.37170 0.76570 0.16380 0.04100
C 	C 	0.41030 0.87910 0.14150 0.03000
N 	N 	0.68580 0.07320 0.91970 -0.20900
N 	N 	0.75760 0.28910 0.87980 -0.22000
N 	N 	0.31420 0.92680 0.08030 -0.20900
N 	N 	0.24240 0.71090 0.12020 -0.22000
O 	O 	0.93200 0.06560 0.86670 -0.53300
O 	O 	0.04560 0.93290 0.87170 -0.54300
O 	O 	0.00910 0.33760 0.15490 -0.40800
O 	O 	0.80870 0.24850 0.13840 -0.40700
O 	O 	0.03800 0.31850 0.91340 -0.41600
O 	O 	0.15670 0.23000 0.03870 -0.37000
O 	O 	0.06800 0.93440 0.13330 -0.53300
O 	O 	0.95440 0.06710 0.12830 -0.54300
O 	O 	0.99090 0.66240 0.84510 -0.40800
O 	O 	0.19130 0.75150 0.86160 -0.40700
O 	O 	0.96200 0.68150 0.08660 -0.41600
O 	O 	0.84330 0.77000 0.96130 -0.37000
