data_crystal

_cell_length_a 10.78220
_cell_length_b 12.18060
_cell_length_c 12.33690
_cell_angle_alpha 94.20280
_cell_angle_beta  106.30500
_cell_angle_gamma 100.91900

_symmetry_space_group_name_	'P 1'
_symmetry_space_group_name_H-M	'P 1'

loop_
_symmetry_equiv_pos_as_xyz
  x,y,z

loop_
_atom_site_label
_atom_site_type_symbol
_atom_site_fract_x
_atom_site_fract_y
_atom_site_fract_z
_atom_site_charge
Tb	Tb	0.91283 0.19031 0.00122 1.85800
Tb	Tb	0.08717 0.80969 0.99878 1.85800
H 	H 	0.70660 0.93260 0.97310 0.01100
H 	H 	0.49130 0.83030 0.90090 0.06200
H 	H 	0.32860 0.91320 0.80070 0.05800
H 	H 	0.26710 0.08580 0.71350 0.06300
H 	H 	0.32900 0.26800 0.68650 0.05000
H 	H 	0.51060 0.44070 0.70870 0.04000
H 	H 	0.72980 0.52730 0.78010 0.07400
H 	H 	0.87830 0.43250 0.88520 0.01400
H 	H 	0.74190 0.30200 0.31970 0.03700
H 	H 	0.76240 0.39040 0.49390 0.06100
H 	H 	0.10380 0.47080 0.33400 0.06000
H 	H 	0.17700 0.45740 0.83210 0.04600
H 	H 	0.35980 0.58980 0.83260 0.06400
H 	H 	0.39750 0.32550 0.08710 0.05800
H 	H 	0.96940 0.18280 0.71140 0.01700
H 	H 	0.97320 0.20970 0.53030 0.07400
H 	H 	0.01630 0.86630 0.66010 0.03800
H 	H 	0.29340 0.06740 0.02690 0.01000
H 	H 	0.50870 0.16970 0.09910 0.06100
H 	H 	0.67140 0.08680 0.19930 0.05700
H 	H 	0.73290 0.91420 0.28650 0.06200
H 	H 	0.67100 0.73200 0.31350 0.04900
H 	H 	0.48940 0.55930 0.29130 0.03900
H 	H 	0.27020 0.47270 0.21990 0.07400
H 	H 	0.12170 0.56750 0.11480 0.01400
H 	H 	0.25810 0.69800 0.68030 0.03700
H 	H 	0.23760 0.60960 0.50610 0.06100
H 	H 	0.89620 0.52920 0.66600 0.06000
H 	H 	0.82300 0.54260 0.16790 0.04600
H 	H 	0.64020 0.41020 0.16740 0.06400
H 	H 	0.60250 0.67450 0.91290 0.05800
H 	H 	0.03060 0.81720 0.28860 0.01700
H 	H 	0.02680 0.79030 0.46970 0.07400
H 	H 	0.98370 0.13370 0.33990 0.03800
C 	C 	0.64230 0.96750 0.93190 0.06000
C 	C 	0.51210 0.90510 0.88860 -0.07400
C 	C 	0.41590 0.95370 0.82850 -0.05200
C 	C 	0.45010 0.06710 0.80870 0.02100
C 	C 	0.35520 0.12380 0.74420 -0.06800
C 	C 	0.39240 0.23210 0.72730 -0.04300
C 	C 	0.52680 0.29210 0.77110 -0.00200
C 	C 	0.57070 0.40280 0.75110 -0.02200
C 	C 	0.70020 0.45420 0.79330 -0.09700
C 	C 	0.78940 0.39620 0.85700 0.07400
C 	C 	0.62240 0.23970 0.83600 0.03900
C 	C 	0.58240 0.12360 0.85540 0.02700
C 	C 	0.90810 0.32070 0.19320 0.29100
C 	C 	0.92220 0.37780 0.30910 -0.06700
C 	C 	0.81930 0.35450 0.35880 -0.00100
C 	C 	0.83150 0.40720 0.46240 -0.09000
C 	C 	0.03570 0.45520 0.36690 -0.04400
C 	C 	0.94840 0.48800 0.52440 0.02300
C 	C 	0.14750 0.30390 0.96960 0.29900
C 	C 	0.27110 0.38120 0.96360 -0.05800
C 	C 	0.25890 0.45920 0.88420 -0.00300
C 	C 	0.36830 0.53750 0.88400 -0.08400
C 	C 	0.39080 0.37950 0.03740 -0.04600
C 	C 	0.49400 0.53970 0.96110 0.02700
C 	C 	0.98980 0.00430 0.82190 0.52700
C 	C 	0.99310 0.02030 0.70260 -0.15500
C 	C 	0.97950 0.12470 0.66350 0.05700
C 	C 	0.98090 0.14030 0.55510 -0.11500
C 	C 	0.00660 0.93440 0.63290 -0.01200
C 	C 	0.99390 0.05300 0.48100 0.02000
C 	C 	0.35770 0.03250 0.06810 0.06000
C 	C 	0.48790 0.09490 0.11140 -0.07400
C 	C 	0.58410 0.04630 0.17150 -0.05200
C 	C 	0.54990 0.93290 0.19130 0.02100
C 	C 	0.64480 0.87620 0.25580 -0.06800
C 	C 	0.60760 0.76790 0.27270 -0.04300
C 	C 	0.47320 0.70790 0.22890 -0.00200
C 	C 	0.42930 0.59720 0.24890 -0.02200
C 	C 	0.29980 0.54580 0.20670 -0.09700
C 	C 	0.21060 0.60380 0.14300 0.07400
C 	C 	0.37760 0.76030 0.16400 0.03900
C 	C 	0.41760 0.87640 0.14460 0.02700
C 	C 	0.09190 0.67930 0.80680 0.29100
C 	C 	0.07780 0.62220 0.69090 -0.06700
C 	C 	0.18070 0.64550 0.64120 -0.00100
C 	C 	0.16850 0.59280 0.53760 -0.09000
C 	C 	0.96430 0.54480 0.63310 -0.04400
C 	C 	0.05160 0.51200 0.47560 0.02300
C 	C 	0.85250 0.69610 0.03040 0.29900
C 	C 	0.72890 0.61880 0.03640 -0.05800
C 	C 	0.74110 0.54080 0.11580 -0.00300
C 	C 	0.63170 0.46250 0.11600 -0.08400
C 	C 	0.60920 0.62050 0.96260 -0.04600
C 	C 	0.50600 0.46030 0.03890 0.02700
C 	C 	0.01020 0.99570 0.17810 0.52700
C 	C 	0.00690 0.97970 0.29740 -0.15500
C 	C 	0.02050 0.87530 0.33650 0.05700
C 	C 	0.01910 0.85970 0.44490 -0.11500
C 	C 	0.99340 0.06560 0.36710 -0.01200
C 	C 	0.00610 0.94700 0.51900 0.02000
N 	N 	0.67830 0.07430 0.91700 -0.21100
N 	N 	0.75300 0.29140 0.87920 -0.22300
N 	N 	0.32170 0.92570 0.08300 -0.21100
N 	N 	0.24700 0.70860 0.12080 -0.22300
O 	O 	0.80470 0.24920 0.13910 -0.40600
O 	O 	0.00310 0.34420 0.15130 -0.40300
O 	O 	0.03700 0.31610 0.91030 -0.42100
O 	O 	0.15580 0.22950 0.03700 -0.37400
O 	O 	0.92860 0.06320 0.86530 -0.53300
O 	O 	0.04920 0.93370 0.87080 -0.54300
O 	O 	0.19530 0.75080 0.86090 -0.40600
O 	O 	0.99690 0.65580 0.84870 -0.40300
O 	O 	0.96300 0.68390 0.08970 -0.42100
O 	O 	0.84420 0.77050 0.96300 -0.37400
O 	O 	0.07140 0.93680 0.13470 -0.53300
O 	O 	0.95080 0.06630 0.12920 -0.54300
