data_crystal

_cell_length_a 10.87620
_cell_length_b 12.22940
_cell_length_c 12.33280
_cell_angle_alpha 93.93170
_cell_angle_beta  106.67400
_cell_angle_gamma 101.26100

_symmetry_space_group_name_	'P 1'
_symmetry_space_group_name_H-M	'P 1'

loop_
_symmetry_equiv_pos_as_xyz
  x,y,z

loop_
_atom_site_label
_atom_site_type_symbol
_atom_site_fract_x
_atom_site_fract_y
_atom_site_fract_z
_atom_site_charge
Yb	Yb	0.91598 0.19028 0.00188 1.51900
Yb	Yb	0.08402 0.80972 0.99812 1.51900
H 	H 	0.71110 0.93330 0.97430 0.02800
H 	H 	0.49560 0.82950 0.90420 0.05600
H 	H 	0.33560 0.91110 0.80220 0.06600
H 	H 	0.27340 0.08370 0.71380 0.06500
H 	H 	0.33020 0.26260 0.68940 0.04900
H 	H 	0.51210 0.43570 0.70960 0.04300
H 	H 	0.73080 0.52430 0.77790 0.07200
H 	H 	0.87810 0.43010 0.88370 0.02800
H 	H 	0.74410 0.30120 0.31790 0.03900
H 	H 	0.76040 0.39380 0.48870 0.06200
H 	H 	0.10490 0.46740 0.33710 0.06200
H 	H 	0.17820 0.45890 0.83470 0.04800
H 	H 	0.36040 0.58860 0.83140 0.06500
H 	H 	0.39650 0.32810 0.08810 0.06000
H 	H 	0.97580 0.18510 0.71120 0.03300
H 	H 	0.98030 0.20990 0.52940 0.07000
H 	H 	0.01340 0.86700 0.66060 0.05100
H 	H 	0.28890 0.06670 0.02570 0.02800
H 	H 	0.50440 0.17050 0.09580 0.05600
H 	H 	0.66440 0.08890 0.19780 0.06600
H 	H 	0.72660 0.91630 0.28620 0.06500
H 	H 	0.66980 0.73740 0.31060 0.04900
H 	H 	0.48790 0.56430 0.29040 0.04300
H 	H 	0.26920 0.47570 0.22210 0.07200
H 	H 	0.12190 0.56990 0.11630 0.02800
H 	H 	0.25590 0.69880 0.68210 0.03900
H 	H 	0.23960 0.60620 0.51130 0.06200
H 	H 	0.89510 0.53260 0.66290 0.06200
H 	H 	0.82180 0.54110 0.16530 0.04800
H 	H 	0.63960 0.41140 0.16860 0.06500
H 	H 	0.60350 0.67190 0.91190 0.06000
H 	H 	0.02420 0.81490 0.28880 0.03300
H 	H 	0.01970 0.79010 0.47060 0.07000
H 	H 	0.98660 0.13300 0.33940 0.05100
C 	C 	0.64660 0.96760 0.93310 0.03500
C 	C 	0.51640 0.90380 0.89080 -0.04900
C 	C 	0.42230 0.95220 0.83040 -0.06500
C 	C 	0.45390 0.06490 0.80940 0.03300
C 	C 	0.36080 0.12210 0.74520 -0.07100
C 	C 	0.39480 0.22760 0.72900 -0.04000
C 	C 	0.52950 0.29000 0.77120 0.00600
C 	C 	0.57270 0.39830 0.75150 -0.03000
C 	C 	0.70190 0.45150 0.79210 -0.08000
C 	C 	0.78960 0.39370 0.85550 0.05200
C 	C 	0.62520 0.23700 0.83660 0.03600
C 	C 	0.58710 0.12190 0.85620 0.02200
C 	C 	0.91160 0.31840 0.19420 0.28400
C 	C 	0.92480 0.37690 0.31080 -0.06300
C 	C 	0.82060 0.35420 0.35750 -0.00300
C 	C 	0.83070 0.40860 0.45930 -0.08800
C 	C 	0.03640 0.45280 0.36890 -0.04600
C 	C 	0.94820 0.48900 0.52280 0.02400
C 	C 	0.14870 0.30640 0.97120 0.29200
C 	C 	0.27160 0.38330 0.96560 -0.05800
C 	C 	0.26000 0.46020 0.88620 -0.00100
C 	C 	0.36910 0.53740 0.88410 -0.08300
C 	C 	0.39030 0.38170 0.03800 -0.04500
C 	C 	0.49400 0.54010 0.96050 0.02900
C 	C 	0.99100 0.00590 0.82260 0.43200
C 	C 	0.99440 0.02200 0.70280 -0.10600
C 	C 	0.98380 0.12630 0.66360 0.02600
C 	C 	0.98550 0.14060 0.55460 -0.09900
C 	C 	0.00540 0.93510 0.63310 -0.03600
C 	C 	0.99510 0.05290 0.48060 0.02500
C 	C 	0.35340 0.03240 0.06690 0.03500
C 	C 	0.48360 0.09620 0.10920 -0.04900
C 	C 	0.57770 0.04780 0.16960 -0.06500
C 	C 	0.54610 0.93510 0.19060 0.03300
C 	C 	0.63920 0.87790 0.25480 -0.07100
C 	C 	0.60520 0.77240 0.27100 -0.04000
C 	C 	0.47050 0.71000 0.22880 0.00600
C 	C 	0.42730 0.60170 0.24850 -0.03000
C 	C 	0.29810 0.54850 0.20790 -0.08000
C 	C 	0.21040 0.60630 0.14450 0.05200
C 	C 	0.37480 0.76300 0.16340 0.03600
C 	C 	0.41290 0.87810 0.14380 0.02200
C 	C 	0.08840 0.68160 0.80580 0.28400
C 	C 	0.07520 0.62310 0.68920 -0.06300
C 	C 	0.17940 0.64580 0.64250 -0.00300
C 	C 	0.16930 0.59140 0.54070 -0.08800
C 	C 	0.96360 0.54720 0.63110 -0.04600
C 	C 	0.05180 0.51100 0.47720 0.02400
C 	C 	0.85130 0.69360 0.02880 0.29200
C 	C 	0.72840 0.61670 0.03440 -0.05800
C 	C 	0.74000 0.53980 0.11380 -0.00100
C 	C 	0.63090 0.46260 0.11590 -0.08300
C 	C 	0.60970 0.61830 0.96200 -0.04500
C 	C 	0.50600 0.45990 0.03950 0.02900
C 	C 	0.00900 0.99410 0.17740 0.43200
C 	C 	0.00560 0.97800 0.29720 -0.10600
C 	C 	0.01620 0.87370 0.33640 0.02600
C 	C 	0.01450 0.85940 0.44540 -0.09900
C 	C 	0.99460 0.06490 0.36690 -0.03600
C 	C 	0.00490 0.94710 0.51940 0.02500
N 	N 	0.68240 0.07310 0.91780 -0.18700
N 	N 	0.75470 0.28990 0.87800 -0.19700
N 	N 	0.31760 0.92690 0.08220 -0.18700
N 	N 	0.24530 0.71010 0.12200 -0.19700
O 	O 	0.80830 0.24860 0.13980 -0.37100
O 	O 	0.00850 0.33900 0.15570 -0.36400
O 	O 	0.03910 0.31870 0.91330 -0.38200
O 	O 	0.15730 0.23090 0.03790 -0.34100
O 	O 	0.93070 0.06540 0.86480 -0.44700
O 	O 	0.04670 0.93470 0.87130 -0.46000
O 	O 	0.19170 0.75140 0.86020 -0.37100
O 	O 	0.99150 0.66100 0.84430 -0.36400
O 	O 	0.96090 0.68130 0.08670 -0.38200
O 	O 	0.84270 0.76910 0.96210 -0.34100
O 	O 	0.06930 0.93460 0.13520 -0.44700
O 	O 	0.95330 0.06530 0.12870 -0.46000
