data_crystal

_cell_length_a 10.76210
_cell_length_b 21.24840
_cell_length_c 15.56670
_cell_angle_alpha 90.00000
_cell_angle_beta  102.88100
_cell_angle_gamma 90.00000

_symmetry_space_group_name_	'P 1'
_symmetry_space_group_name_H-M	'P 1'

loop_
_symmetry_equiv_pos_as_xyz
  x,y,z

loop_
_atom_site_label
_atom_site_type_symbol
_atom_site_fract_x
_atom_site_fract_y
_atom_site_fract_z
_atom_site_charge
C 	C 	0.91827 0.29299 0.01598 0.08800
H 	H 	0.89790 0.25040 0.01300 0.04300
C 	C 	0.03900 0.37928 0.09123 -0.17300
H 	H 	0.09870 0.39490 0.13910 0.10400
C 	C 	0.89230 0.39635 0.95176 -0.10400
H 	H 	0.85370 0.42350 0.90680 0.09100
C 	C 	0.85999 0.33323 0.94797 -0.05800
C 	C 	0.98280 0.41902 0.02306 0.22400
O 	O 	0.03280 0.21790 0.16309 -0.50500
O 	O 	0.14232 0.30138 0.22665 -0.25100
C 	C 	0.00601 0.31602 0.08771 -0.10600
C 	C 	0.06390 0.27351 0.16419 0.37500
N 	N 	0.02326 0.48334 0.03240 -0.16100
O 	O 	0.76566 0.25101 0.85599 -0.22700
C 	C 	0.76230 0.30985 0.87001 0.36500
O 	O 	0.68839 0.34842 0.82552 -0.48300
C 	C 	0.41827 0.79299 0.01598 0.01600
H 	H 	0.39790 0.75040 0.01300 0.05300
C 	C 	0.53900 0.87928 0.09123 -0.06700
H 	H 	0.59870 0.89490 0.13910 0.08400
C 	C 	0.39230 0.89635 0.95176 -0.06200
H 	H 	0.35370 0.92350 0.90680 0.06400
C 	C 	0.35999 0.83323 0.94797 -0.07200
C 	C 	0.48280 0.91902 0.02306 0.09000
O 	O 	0.53280 0.71790 0.16309 -0.46600
O 	O 	0.64232 0.80138 0.22665 -0.22800
C 	C 	0.50601 0.81602 0.08771 -0.05200
C 	C 	0.56390 0.77351 0.16419 0.37000
N 	N 	0.52326 0.98334 0.03240 -0.08800
O 	O 	0.26566 0.75101 0.85599 -0.24600
C 	C 	0.26230 0.80985 0.87001 0.36500
O 	O 	0.18839 0.84842 0.82552 -0.50700
C 	C 	0.08173 0.29299 0.48402 -0.06400
H 	H 	0.10210 0.25040 0.48700 0.06300
C 	C 	0.96100 0.37928 0.40877 0.04200
H 	H 	0.90130 0.39490 0.36090 0.05300
C 	C 	0.10770 0.39635 0.54824 -0.01700
H 	H 	0.14630 0.42350 0.59320 0.04600
C 	C 	0.14001 0.33323 0.55203 -0.07500
C 	C 	0.01720 0.41902 0.47694 -0.05000
O 	O 	0.96720 0.21790 0.33691 -0.43000
O 	O 	0.85768 0.30138 0.27335 -0.21900
C 	C 	0.99399 0.31602 0.41229 -0.00000
C 	C 	0.93610 0.27351 0.33581 0.36400
N 	N 	0.97674 0.48334 0.46760 -0.01700
O 	O 	0.23434 0.25101 0.64401 -0.24700
C 	C 	0.23770 0.30985 0.62999 0.36300
O 	O 	0.31161 0.34842 0.67448 -0.49200
C 	C 	0.58173 0.79299 0.48402 0.01400
H 	H 	0.60210 0.75040 0.48700 0.05300
C 	C 	0.46100 0.87928 0.40877 -0.06700
H 	H 	0.40130 0.89490 0.36090 0.07500
C 	C 	0.60770 0.89635 0.54824 -0.06300
H 	H 	0.64630 0.92350 0.59320 0.07300
C 	C 	0.64001 0.83323 0.55203 -0.06300
C 	C 	0.51720 0.91902 0.47694 0.09000
O 	O 	0.46720 0.71790 0.33691 -0.47200
O 	O 	0.35768 0.80138 0.27335 -0.24200
C 	C 	0.49399 0.81602 0.41229 -0.05600
C 	C 	0.43610 0.77351 0.33581 0.37000
N 	N 	0.47674 0.98334 0.46760 -0.09100
O 	O 	0.73434 0.75101 0.64401 -0.22900
C 	C 	0.73770 0.80985 0.62999 0.36300
O 	O 	0.81161 0.84842 0.67448 -0.46700
C 	C 	0.08173 0.70701 0.98402 -0.06600
H 	H 	0.10210 0.74960 0.98700 0.06400
C 	C 	0.96100 0.62072 0.90877 0.04300
H 	H 	0.90130 0.60510 0.86090 0.05200
C 	C 	0.10770 0.60365 0.04824 -0.01600
H 	H 	0.14630 0.57650 0.09320 0.04500
C 	C 	0.14001 0.66677 0.05203 -0.07400
C 	C 	0.01720 0.58098 0.97694 -0.05200
O 	O 	0.96720 0.78210 0.83691 -0.42900
O 	O 	0.85768 0.69862 0.77335 -0.21900
C 	C 	0.99399 0.68398 0.91229 0.00100
C 	C 	0.93610 0.72649 0.83581 0.36400
N 	N 	0.97674 0.51666 0.96760 -0.01700
O 	O 	0.23434 0.74899 0.14401 -0.24700
C 	C 	0.23770 0.69015 0.12999 0.36200
O 	O 	0.31161 0.65158 0.17448 -0.49200
C 	C 	0.58173 0.20701 0.98402 0.01500
H 	H 	0.60210 0.24960 0.98700 0.05300
C 	C 	0.46100 0.12072 0.90877 -0.06700
H 	H 	0.40130 0.10510 0.86090 0.07400
C 	C 	0.60770 0.10365 0.04824 -0.06300
H 	H 	0.64630 0.07650 0.09320 0.07300
C 	C 	0.64001 0.16677 0.05203 -0.06300
C 	C 	0.51720 0.08098 0.97694 0.09100
O 	O 	0.46720 0.28210 0.83691 -0.47200
O 	O 	0.35768 0.19862 0.77335 -0.24200
C 	C 	0.49399 0.18398 0.91229 -0.05700
C 	C 	0.43610 0.22649 0.83581 0.37000
N 	N 	0.47674 0.01666 0.96760 -0.09100
O 	O 	0.73434 0.24899 0.14401 -0.22900
C 	C 	0.73770 0.19015 0.12999 0.36300
O 	O 	0.81161 0.15158 0.17448 -0.46700
C 	C 	0.91827 0.70701 0.51598 0.09400
H 	H 	0.89790 0.74960 0.51300 0.04400
C 	C 	0.03900 0.62072 0.59123 -0.17700
H 	H 	0.09870 0.60510 0.63910 0.10500
C 	C 	0.89230 0.60365 0.45176 -0.10700
H 	H 	0.85370 0.57650 0.40680 0.09100
C 	C 	0.85999 0.66677 0.44797 -0.06000
C 	C 	0.98280 0.58098 0.52306 0.23000
O 	O 	0.03280 0.78210 0.66309 -0.50600
O 	O 	0.14232 0.69862 0.72665 -0.25100
C 	C 	0.00601 0.68398 0.58771 -0.10800
C 	C 	0.06390 0.72649 0.66419 0.37500
N 	N 	0.02326 0.51666 0.53240 -0.16300
O 	O 	0.76566 0.74899 0.35599 -0.22800
C 	C 	0.76230 0.69015 0.37001 0.36600
O 	O 	0.68839 0.65158 0.32552 -0.48400
C 	C 	0.41827 0.20701 0.51598 0.01500
H 	H 	0.39790 0.24960 0.51300 0.05400
C 	C 	0.53900 0.12072 0.59123 -0.06700
H 	H 	0.59870 0.10510 0.63910 0.08400
C 	C 	0.39230 0.10365 0.45176 -0.06200
H 	H 	0.35370 0.07650 0.40680 0.06400
C 	C 	0.35999 0.16677 0.44797 -0.07100
C 	C 	0.48280 0.08098 0.52306 0.09000
O 	O 	0.53280 0.28210 0.66309 -0.46600
O 	O 	0.64232 0.19862 0.72665 -0.22800
C 	C 	0.50601 0.18398 0.58771 -0.05200
C 	C 	0.56390 0.22649 0.66419 0.37000
N 	N 	0.52326 0.01666 0.53240 -0.08800
O 	O 	0.26566 0.24899 0.35599 -0.24500
C 	C 	0.26230 0.19015 0.37001 0.36500
O 	O 	0.18839 0.15158 0.32552 -0.50600
Mg	Mg	0.00000 0.14860 0.25000 1.45500
Mg	Mg	0.50000 0.64860 0.25000 1.46100
Mg	Mg	-0.00000 0.85140 0.75000 1.45400
Mg	Mg	0.50000 0.35140 0.75000 1.46100
