data_crystal

_cell_length_a 34.79100
_cell_length_b 10.29000
_cell_length_c 13.66900
_cell_angle_alpha 90.00000
_cell_angle_beta  112.96400
_cell_angle_gamma 90.00000

_symmetry_space_group_name_	'P 1'
_symmetry_space_group_name_H-M	'P 1'

loop_
_symmetry_equiv_pos_as_xyz
  x,y,z

loop_
_atom_site_label
_atom_site_type_symbol
_atom_site_fract_x
_atom_site_fract_y
_atom_site_fract_z
_atom_site_charge
Co	Co	0.09697 0.00608 0.47105 1.14000
C 	C 	0.29930 0.98890 0.42380 0.09100
O 	O 	0.41840 0.70660 0.54770 -0.40000
N 	N 	0.09610 0.01380 0.29980 -0.18800
O 	O 	0.03470 0.05210 0.40950 -0.66200
N 	N 	0.05630 0.01150 0.22790 -0.20900
N 	N 	0.05600 0.01010 0.13310 -0.21700
C 	C 	0.37820 0.71930 0.50890 0.28600
O 	O 	0.37780 0.31740 0.49860 -0.42000
N 	N 	0.09580 0.00470 0.13980 -0.19700
O 	O 	0.35410 0.62550 0.48420 -0.39700
C 	C 	0.32590 0.10400 0.45390 -0.08600
H 	H 	0.31410 0.18650 0.44500 0.07000
C 	C 	0.38410 0.96190 0.51060 0.01800
H 	H 	0.41300 0.95280 0.54080 0.05000
C 	C 	0.31560 0.87210 0.44010 -0.08600
H 	H 	0.29860 0.79890 0.42320 0.08400
C 	C 	0.36680 0.08990 0.49380 -0.07600
C 	C 	0.36160 0.85870 0.48580 -0.04400
O 	O 	0.43410 0.19020 0.56580 -0.30600
C 	C 	0.25240 0.00290 0.37500 -0.05100
C 	C 	0.23030 0.93700 0.27600 -0.01500
H 	H 	0.24480 0.89440 0.24120 0.04400
C 	C 	0.22970 0.06600 0.42240 -0.04300
H 	H 	0.24390 0.10700 0.48710 0.04300
C 	C 	0.11880 0.01370 0.24230 0.13500
C 	C 	0.16570 0.01370 0.29040 -0.06000
C 	C 	0.18680 0.07100 0.37920 -0.02700
H 	H 	0.17290 0.11540 0.41450 0.03800
C 	C 	0.18760 0.93900 0.23370 -0.00700
H 	H 	0.17260 0.89540 0.17090 0.04300
C 	C 	0.39600 0.20270 0.52500 0.31300
Co	Co	0.59697 0.50608 0.47105 1.15000
C 	C 	0.79930 0.48890 0.42380 -0.00000
O 	O 	0.91840 0.20660 0.54770 -0.40600
N 	N 	0.59610 0.51380 0.29980 -0.18500
O 	O 	0.53470 0.55210 0.40950 -0.64500
N 	N 	0.55630 0.51150 0.22790 -0.20300
N 	N 	0.55600 0.51010 0.13310 -0.20800
C 	C 	0.87820 0.21930 0.50890 0.28900
O 	O 	0.87780 0.81740 0.49860 -0.41300
N 	N 	0.59580 0.50470 0.13980 -0.18900
O 	O 	0.85410 0.12550 0.48420 -0.41400
C 	C 	0.82590 0.60400 0.45390 -0.02600
H 	H 	0.81410 0.68650 0.44500 0.05200
C 	C 	0.88410 0.46190 0.51060 0.00300
H 	H 	0.91300 0.45280 0.54080 0.05300
C 	C 	0.81560 0.37210 0.44010 -0.04300
H 	H 	0.79860 0.29890 0.42320 0.06200
C 	C 	0.86680 0.58990 0.49380 -0.07000
C 	C 	0.86160 0.35870 0.48580 -0.05700
O 	O 	0.93410 0.69020 0.56580 -0.28600
C 	C 	0.75240 0.50290 0.37500 0.04100
C 	C 	0.73030 0.43700 0.27600 -0.08200
H 	H 	0.74480 0.39440 0.24120 0.06200
C 	C 	0.72970 0.56600 0.42240 -0.09100
H 	H 	0.74390 0.60700 0.48710 0.06500
C 	C 	0.61880 0.51370 0.24230 0.14100
C 	C 	0.66570 0.51370 0.29040 -0.05100
C 	C 	0.68680 0.57100 0.37920 0.00300
H 	H 	0.67290 0.61540 0.41450 0.03000
C 	C 	0.68760 0.43900 0.23370 -0.01000
H 	H 	0.67260 0.39540 0.17090 0.03500
C 	C 	0.89600 0.70270 0.52500 0.31400
Co	Co	0.90303 0.00608 0.02895 1.13400
C 	C 	0.70070 0.98890 0.07620 0.04700
O 	O 	0.58160 0.70660 0.95230 -0.40900
N 	N 	0.90390 0.01380 0.20020 -0.18900
O 	O 	0.96530 0.05210 0.09050 -0.63300
N 	N 	0.94370 0.01150 0.27210 -0.19500
N 	N 	0.94400 0.01010 0.36690 -0.20000
C 	C 	0.62180 0.71930 0.99110 0.33900
O 	O 	0.62220 0.31740 0.00140 -0.44700
N 	N 	0.90420 0.00470 0.36020 -0.19300
O 	O 	0.64590 0.62550 0.01580 -0.42300
C 	C 	0.67410 0.10400 0.04610 -0.02700
H 	H 	0.68590 0.18650 0.05500 0.04700
C 	C 	0.61590 0.96190 0.98940 0.12400
H 	H 	0.58700 0.95280 0.95920 0.01700
C 	C 	0.68440 0.87210 0.05990 -0.03400
H 	H 	0.70140 0.79890 0.07680 0.06400
C 	C 	0.63320 0.08990 0.00620 -0.16400
C 	C 	0.63840 0.85870 0.01420 -0.12700
O 	O 	0.56590 0.19020 0.93420 -0.31700
C 	C 	0.74760 0.00290 0.12500 -0.03300
C 	C 	0.76970 0.93700 0.22400 -0.02800
H 	H 	0.75520 0.89440 0.25880 0.04900
C 	C 	0.77030 0.06600 0.07760 -0.06000
H 	H 	0.75610 0.10700 0.01290 0.04300
C 	C 	0.88120 0.01370 0.25770 0.13900
C 	C 	0.83430 0.01370 0.20960 -0.06800
C 	C 	0.81320 0.07100 0.12080 -0.01600
H 	H 	0.82710 0.11540 0.08550 0.02900
C 	C 	0.81240 0.93900 0.26630 0.00200
H 	H 	0.82740 0.89540 0.32910 0.04000
C 	C 	0.60400 0.20270 0.97500 0.37200
Co	Co	0.40303 0.50608 0.02895 1.14300
C 	C 	0.20070 0.48890 0.07620 -0.05300
O 	O 	0.08160 0.20660 0.95230 -0.42900
N 	N 	0.40390 0.51380 0.20020 -0.18700
O 	O 	0.46530 0.55210 0.09050 -0.64900
N 	N 	0.44370 0.51150 0.27210 -0.20300
N 	N 	0.44400 0.51010 0.36690 -0.20500
C 	C 	0.12180 0.21930 0.99110 0.35200
O 	O 	0.12220 0.81740 0.00140 -0.43700
N 	N 	0.40420 0.50470 0.36020 -0.18600
O 	O 	0.14590 0.12550 0.01580 -0.44400
C 	C 	0.17410 0.60400 0.04610 0.04000
H 	H 	0.18590 0.68650 0.05500 0.02700
C 	C 	0.11590 0.46190 0.98940 0.12200
H 	H 	0.08700 0.45280 0.95920 0.00600
C 	C 	0.18440 0.37210 0.05990 0.01900
H 	H 	0.20140 0.29890 0.07680 0.03800
C 	C 	0.13320 0.58990 0.00620 -0.16600
C 	C 	0.13840 0.35870 0.01420 -0.15700
O 	O 	0.06590 0.69020 0.93420 -0.31700
C 	C 	0.24760 0.50290 0.12500 0.06600
C 	C 	0.26970 0.43700 0.22400 -0.10000
H 	H 	0.25520 0.39440 0.25880 0.06900
C 	C 	0.27030 0.56600 0.07760 -0.11300
H 	H 	0.25610 0.60700 0.01290 0.06700
C 	C 	0.38120 0.51370 0.25770 0.14400
C 	C 	0.33430 0.51370 0.20960 -0.06300
C 	C 	0.31320 0.57100 0.12080 0.01800
H 	H 	0.32710 0.61540 0.08550 0.02000
C 	C 	0.31240 0.43900 0.26630 0.00200
H 	H 	0.32740 0.39540 0.32910 0.03100
C 	C 	0.10400 0.70270 0.97500 0.37000
Co	Co	0.90303 0.99392 0.52895 1.16300
C 	C 	0.70070 0.01110 0.57620 -0.08800
O 	O 	0.58160 0.29340 0.45230 -0.40900
N 	N 	0.90390 0.98620 0.70020 -0.18000
O 	O 	0.96530 0.94790 0.59050 -0.60900
N 	N 	0.94370 0.98850 0.77210 -0.18800
N 	N 	0.94400 0.98990 0.86690 -0.18300
C 	C 	0.62180 0.28070 0.49110 0.29100
O 	O 	0.62220 0.68260 0.50140 -0.42000
N 	N 	0.90420 0.99530 0.86020 -0.17400
O 	O 	0.64590 0.37450 0.51580 -0.40100
C 	C 	0.67410 0.89600 0.54610 0.03600
H 	H 	0.68590 0.81350 0.55500 0.03200
C 	C 	0.61590 0.03810 0.48940 -0.00800
H 	H 	0.58700 0.04720 0.45920 0.04400
C 	C 	0.68440 0.12790 0.55990 -0.00000
H 	H 	0.70140 0.20110 0.57680 0.04700
C 	C 	0.63320 0.91010 0.50620 -0.07400
C 	C 	0.63840 0.14130 0.51420 -0.07300
O 	O 	0.56590 0.80980 0.43420 -0.29500
C 	C 	0.74760 0.99710 0.62500 0.13100
C 	C 	0.76970 0.06300 0.72400 -0.14600
H 	H 	0.75520 0.10560 0.75880 0.08500
C 	C 	0.77030 0.93400 0.57760 -0.13800
H 	H 	0.75610 0.89300 0.51290 0.08500
C 	C 	0.88120 0.98630 0.75770 0.14900
C 	C 	0.83430 0.98630 0.70960 -0.04500
C 	C 	0.81320 0.92900 0.62080 0.03300
H 	H 	0.82710 0.88460 0.58550 0.02200
C 	C 	0.81240 0.06100 0.76630 -0.00700
H 	H 	0.82740 0.10460 0.82910 0.03000
C 	C 	0.60400 0.79730 0.47500 0.32100
Co	Co	0.40303 0.49392 0.52895 1.15100
C 	C 	0.20070 0.51110 0.57620 -0.00200
O 	O 	0.08160 0.79340 0.45230 -0.39900
N 	N 	0.40390 0.48620 0.70020 -0.18500
O 	O 	0.46530 0.44790 0.59050 -0.64500
N 	N 	0.44370 0.48850 0.77210 -0.20100
N 	N 	0.44400 0.48990 0.86690 -0.20100
C 	C 	0.12180 0.78070 0.49110 0.28700
O 	O 	0.12220 0.18260 0.50140 -0.42600
N 	N 	0.40420 0.49530 0.86020 -0.18200
O 	O 	0.14590 0.87450 0.51580 -0.38400
C 	C 	0.17410 0.39600 0.54610 -0.02100
H 	H 	0.18590 0.31350 0.55500 0.04900
C 	C 	0.11590 0.53810 0.48940 0.00700
H 	H 	0.08700 0.54720 0.45920 0.04300
C 	C 	0.18440 0.62790 0.55990 -0.04100
H 	H 	0.20140 0.70110 0.57680 0.06800
C 	C 	0.13320 0.41010 0.50620 -0.08000
C 	C 	0.13840 0.64130 0.51420 -0.05900
O 	O 	0.06590 0.30980 0.43420 -0.31100
C 	C 	0.24760 0.49710 0.62500 0.04300
C 	C 	0.26970 0.56300 0.72400 -0.08200
H 	H 	0.25520 0.60560 0.75880 0.06700
C 	C 	0.27030 0.43400 0.57760 -0.09200
H 	H 	0.25610 0.39300 0.51290 0.06400
C 	C 	0.38120 0.48630 0.75770 0.14200
C 	C 	0.33430 0.48630 0.70960 -0.05100
C 	C 	0.31320 0.42900 0.62080 0.00400
H 	H 	0.32710 0.38460 0.58550 0.02900
C 	C 	0.31240 0.56100 0.76630 -0.00700
H 	H 	0.32740 0.60460 0.82910 0.03700
C 	C 	0.10400 0.29730 0.47500 0.31900
Co	Co	0.09697 0.99392 0.97105 1.16800
C 	C 	0.29930 0.01110 0.92380 -0.02800
O 	O 	0.41840 0.29340 0.04770 -0.39900
N 	N 	0.09610 0.98620 0.79980 -0.18000
O 	O 	0.03470 0.94790 0.90950 -0.63600
N 	N 	0.05630 0.98850 0.72790 -0.20200
N 	N 	0.05600 0.98990 0.63310 -0.20000
C 	C 	0.37820 0.28070 0.00890 0.22700
O 	O 	0.37780 0.68260 0.99860 -0.39500
N 	N 	0.09580 0.99530 0.63980 -0.17700
O 	O 	0.35410 0.37450 0.98420 -0.37100
C 	C 	0.32590 0.89600 0.95390 -0.03600
H 	H 	0.31410 0.81350 0.94500 0.05900
C 	C 	0.38410 0.03810 0.01060 -0.13500
H 	H 	0.41300 0.04720 0.04080 0.08300
C 	C 	0.31560 0.12790 0.94010 -0.06700
H 	H 	0.29860 0.20110 0.92320 0.07300
C 	C 	0.36680 0.91010 0.99380 0.02100
C 	C 	0.36160 0.14130 0.98580 0.03100
O 	O 	0.43410 0.80980 0.06580 -0.28300
C 	C 	0.25240 0.99710 0.87500 0.10000
C 	C 	0.23030 0.06300 0.77600 -0.12300
H 	H 	0.24480 0.10560 0.74120 0.07500
C 	C 	0.22970 0.93400 0.92240 -0.11100
H 	H 	0.24390 0.89300 0.98710 0.08000
C 	C 	0.11880 0.98630 0.74230 0.14300
C 	C 	0.16570 0.98630 0.79040 -0.03000
C 	C 	0.18680 0.92900 0.87920 0.01400
H 	H 	0.17290 0.88460 0.91450 0.03300
C 	C 	0.18760 0.06100 0.73370 -0.02400
H 	H 	0.17260 0.10460 0.67090 0.03500
C 	C 	0.39600 0.79730 0.02500 0.26400
Co	Co	0.59697 0.49392 0.97105 1.15800
C 	C 	0.79930 0.51110 0.92380 0.04800
O 	O 	0.91840 0.79340 0.04770 -0.37600
N 	N 	0.59610 0.48620 0.79980 -0.18300
O 	O 	0.53470 0.44790 0.90950 -0.63900
N 	N 	0.55630 0.48850 0.72790 -0.20200
N 	N 	0.55600 0.48990 0.63310 -0.20500
C 	C 	0.87820 0.78070 0.00890 0.23500
O 	O 	0.87780 0.18260 0.99860 -0.39700
N 	N 	0.59580 0.49530 0.63980 -0.18500
O 	O 	0.85410 0.87450 0.98420 -0.36000
C 	C 	0.82590 0.39600 0.95390 -0.08500
H 	H 	0.81410 0.31350 0.94500 0.07300
C 	C 	0.88410 0.53810 0.01060 -0.10300
H 	H 	0.91300 0.54720 0.04080 0.08700
C 	C 	0.81560 0.62790 0.94010 -0.09800
H 	H 	0.79860 0.70110 0.92320 0.08900
C 	C 	0.86680 0.41010 0.99380 0.01300
C 	C 	0.86160 0.64130 0.98580 0.03100
O 	O 	0.93410 0.30980 0.06580 -0.27900
C 	C 	0.75240 0.49710 0.87500 0.02000
C 	C 	0.73030 0.56300 0.77600 -0.06600
H 	H 	0.74480 0.60560 0.74120 0.06000
C 	C 	0.72970 0.43400 0.92240 -0.07100
H 	H 	0.74390 0.39300 0.98710 0.06200
C 	C 	0.61880 0.48630 0.74230 0.14000
C 	C 	0.66570 0.48630 0.79040 -0.04000
C 	C 	0.68680 0.42900 0.87920 -0.01100
H 	H 	0.67290 0.38460 0.91450 0.04000
C 	C 	0.68760 0.56100 0.73370 -0.01800
H 	H 	0.67260 0.60460 0.67090 0.04100
C 	C 	0.89600 0.29730 0.02500 0.26100
Co	Co	0.00000 0.02070 0.25000 1.05600
Co	Co	0.50000 0.52070 0.25000 1.07600
Co	Co	0.00000 0.97930 0.75000 1.06500
Co	Co	0.50000 0.47930 0.75000 1.07800
Co	Co	0.00000 0.00000 0.50000 1.04100
Co	Co	0.50000 0.50000 0.50000 1.07100
Co	Co	-0.00000 0.00000 -0.00000 1.03500
Co	Co	0.50000 0.50000 -0.00000 1.06400
