data_crystal

_cell_length_a 13.02030
_cell_length_b 19.77600
_cell_length_c 20.82740
_cell_angle_alpha 61.93200
_cell_angle_beta  73.26800
_cell_angle_gamma 80.16200

_symmetry_space_group_name_	'P 1'
_symmetry_space_group_name_H-M	'P 1'

loop_
_symmetry_equiv_pos_as_xyz
  x,y,z

loop_
_atom_site_label
_atom_site_type_symbol
_atom_site_fract_x
_atom_site_fract_y
_atom_site_fract_z
_atom_site_charge
Mn	Mn	0.91545 0.79765 0.09958 1.31900
Mn	Mn	0.70661 0.70194 0.09620 1.23200
O 	O 	0.87350 0.92184 0.02433 -0.52100
O 	O 	0.94190 0.67580 0.15728 -0.43700
O 	O 	0.12120 0.92579 0.96478 -0.44100
O 	O 	0.07000 0.80542 0.03162 -0.49200
O 	O 	0.84520 0.77133 0.01639 -0.55400
O 	O 	0.02000 0.94480 0.11012 -0.45400
O 	O 	0.79770 0.62015 0.16900 -0.48500
O 	O 	0.95750 0.82730 0.17248 -0.44100
O 	O 	0.75730 0.78800 0.16150 -0.50900
O 	O 	0.83450 0.68230 0.98387 -0.36600
O 	O 	0.23020 0.54860 0.36560 -0.48100
H 	H 	0.29570 0.54240 0.35620 0.27200
O 	O 	0.25370 0.54480 0.46890 -0.28700
O 	O 	0.60580 0.76450 0.15360 -0.49800
C 	C 	0.12270 0.85860 0.97440 0.45200
C 	C 	0.60440 0.84970 0.20540 -0.20500
C 	C 	0.18880 0.83830 0.91360 -0.18800
C 	C 	0.08590 0.31910 0.33420 -0.02500
C 	C 	0.03470 0.39580 0.29630 0.04400
C 	C 	0.36160 0.76980 0.48930 0.14500
C 	C 	0.18010 0.76780 0.91810 0.11700
H 	H 	0.14290 0.72990 0.96260 0.01000
C 	C 	0.08010 0.94670 0.66220 0.01200
C 	C 	0.18380 0.17300 0.40500 0.11300
C 	C 	0.32500 0.79190 0.72470 -0.09100
C 	C 	0.93770 0.54100 0.22230 -0.11600
C 	C 	0.29530 0.87680 0.78800 -0.18500
H 	H 	0.33550 0.91380 0.74450 0.10100
C 	C 	0.54140 0.72320 0.51580 0.14100
C 	C 	0.46110 0.80370 0.61390 -0.17400
H 	H 	0.52740 0.82130 0.58180 0.09400
C 	C 	0.86630 0.63540 0.47010 0.06400
C 	C 	0.88930 0.61890 0.17960 0.40500
C 	C 	0.96030 0.86500 0.87110 0.09200
H 	H 	0.95160 0.88010 0.90850 0.01100
C 	C 	0.28330 0.80720 0.79090 0.13300
C 	C 	0.21490 0.80950 0.39940 -0.08000
C 	C 	0.92220 0.79630 0.88880 -0.15100
C 	C 	0.39940 0.76450 0.59920 0.15600
C 	C 	0.26600 0.75310 0.70820 0.05700
H 	H 	0.19960 0.73540 0.74010 0.00700
C 	C 	0.24880 0.89260 0.84860 0.10900
H 	H 	0.25800 0.93980 0.84540 0.00700
C 	C 	0.00280 0.88140 0.16630 0.40900
C 	C 	0.07930 0.58080 0.44330 -0.09600
C 	C 	0.93460 0.77660 0.83120 0.06200
H 	H 	0.90920 0.73050 0.84150 0.02200
C 	C 	0.22540 0.75280 0.85800 -0.18700
H 	H 	0.21740 0.70500 0.86210 0.09800
C 	C 	0.14680 0.83260 0.34540 0.11900
C 	C 	0.02440 0.89460 0.74010 0.06700
C 	C 	0.42390 0.81670 0.67620 0.04900
H 	H 	0.46600 0.84260 0.68600 0.01500
C 	C 	0.75360 0.66620 0.48460 -0.03900
C 	C 	0.18450 0.04770 0.51490 0.06900
C 	C 	0.19460 0.30390 0.31040 -0.00800
H 	H 	0.23630 0.34280 0.27020 0.02700
C 	C 	0.78810 0.94730 0.00260 0.35100
C 	C 	0.01720 0.59540 0.39420 0.01300
H 	H 	0.04640 0.58780 0.35160 0.04600
C 	C 	0.03560 0.59310 0.50560 0.00800
H 	H 	0.07690 0.58350 0.53900 0.03900
C 	C 	0.65900 0.87900 0.23300 0.12600
H 	H 	0.73210 0.86740 0.22920 0.00000
C 	C 	0.03460 0.53360 0.23950 0.02900
H 	H 	0.06840 0.57750 0.22680 0.03200
C 	C 	0.19650 0.55560 0.42830 0.37200
C 	C 	0.60770 0.92560 0.26650 -0.19800
H 	H 	0.64680 0.94360 0.28590 0.10100
C 	C 	0.24250 0.23200 0.34520 -0.12900
H 	H 	0.31540 0.22360 0.32780 0.07500
C 	C 	0.86490 0.74600 0.96800 0.37700
C 	C 	0.08320 0.46270 0.27520 -0.11600
H 	H 	0.14930 0.45980 0.28530 0.07200
C 	C 	0.45770 0.98460 0.37560 0.07600
H 	H 	0.51590 0.95370 0.39250 0.00500
C 	C 	0.91120 0.62160 0.40820 -0.09000
H 	H 	0.86940 0.63010 0.37540 0.07400
C 	C 	0.65810 0.79770 0.17060 0.44800
C 	C 	0.30590 0.06710 0.39380 0.14500
C 	C 	0.04600 0.86790 0.23090 -0.16300
C 	C 	0.58840 0.67040 0.57290 -0.14700
H 	H 	0.54910 0.65270 0.62240 0.08300
C 	C 	0.14280 0.98190 0.53010 -0.06600
H 	H 	0.14780 0.97000 0.49100 0.06100
C 	C 	0.50060 0.94600 0.27190 0.13600
C 	C 	0.01160 0.91200 0.79840 -0.15400
H 	H 	0.03860 0.95740 0.78860 0.09400
C 	C 	0.70530 0.71860 0.42790 0.01600
H 	H 	0.74390 0.73500 0.37830 0.03000
C 	C 	0.39280 0.02130 0.41670 -0.20700
H 	H 	0.40850 0.01480 0.46010 0.09500
C 	C 	0.29740 0.83640 0.47320 -0.16400
H 	H 	0.30260 0.86890 0.49290 0.09700
C 	C 	0.69310 0.64350 0.55730 0.01700
H 	H 	0.72370 0.60920 0.59670 0.02900
C 	C 	0.11120 0.91970 0.22490 0.08900
H 	H 	0.12280 0.96630 0.18210 0.01600
C 	C 	0.30190 0.74000 0.64700 -0.18200
H 	H 	0.25950 0.71400 0.63750 0.09300
C 	C 	0.22610 0.85590 0.42910 0.04200
H 	H 	0.18470 0.90130 0.41930 0.01700
C 	C 	0.07630 0.18760 0.43020 -0.11200
H 	H 	0.03550 0.14890 0.47160 0.06600
C 	C 	0.43870 0.99250 0.31070 -0.06600
C 	C 	0.09280 0.93190 0.60260 -0.04000
H 	H 	0.06720 0.88680 0.61080 0.03900
C 	C 	0.02800 0.25950 0.39450 -0.04800
H 	H 	0.95490 0.26760 0.41180 0.05800
C 	C 	0.98470 0.82530 0.75820 -0.12300
H 	H 	0.99180 0.81110 0.72040 0.07600
C 	C 	0.60090 0.74730 0.44280 -0.14900
H 	H 	0.57100 0.78290 0.40350 0.09100
C 	C 	0.15910 0.90270 0.28190 -0.17100
H 	H 	0.20070 0.93900 0.27780 0.09200
C 	C 	0.28690 0.07800 0.32770 -0.16100
H 	H 	0.22950 0.10990 0.31060 0.08400
C 	C 	0.93610 0.40380 0.28080 -0.09900
H 	H 	0.90060 0.36000 0.29530 0.06400
C 	C 	0.35340 0.04150 0.28610 0.00200
H 	H 	0.34020 0.05030 0.24120 0.01200
C 	C 	0.27480 0.74220 0.41740 0.03900
H 	H 	0.26580 0.70900 0.39950 0.02800
C 	C 	0.88830 0.47500 0.24430 0.04500
H 	H 	0.82180 0.47810 0.23460 0.01900
C 	C 	0.93150 0.61950 0.51830 -0.08900
H 	H 	0.90310 0.62710 0.56090 0.07000
C 	C 	0.02340 0.80460 0.29720 0.07400
H 	H 	0.97250 0.77220 0.30480 0.02900
C 	C 	0.07290 0.78620 0.35410 -0.17000
H 	H 	0.05550 0.74180 0.39870 0.09400
C 	C 	0.34910 0.72050 0.46150 -0.15700
H 	H 	0.38910 0.67450 0.47210 0.09900
C 	C 	0.49800 0.86810 0.21070 0.12000
H 	H 	0.45870 0.84830 0.19300 -0.00300
C 	C 	0.44740 0.91730 0.24310 -0.19000
H 	H 	0.37500 0.93070 0.24500 0.09900
C 	C 	0.64480 0.02740 0.96740 -0.05500
H 	H 	0.66040 0.06970 0.91750 0.05000
H 	H 	0.57890 0.03960 0.99700 0.04700
C 	C 	0.12270 0.01410 0.64520 -0.06400
H 	H 	0.11620 0.02700 0.68370 0.04100
C 	C 	0.63790 0.95250 0.96480 0.07300
H 	H 	0.57960 0.92240 0.00430 -0.02000
H 	H 	0.62840 0.96190 0.91670 0.01100
C 	C 	0.17500 0.06330 0.57310 -0.09300
H 	H 	0.20370 0.10750 0.56470 0.06500
N 	N 	0.73240 0.01000 0.00250 -0.27700
H 	H 	0.74680 0.03690 0.02110 0.14600
N 	N 	0.73920 0.91590 0.97610 -0.25800
H 	H 	0.76590 0.87770 0.96670 0.13900
N 	N 	0.23470 0.09970 0.43990 -0.16500
N 	N 	0.43590 0.75180 0.53410 -0.18000
Mn	Mn	0.08455 0.20235 0.90042 1.31700
Mn	Mn	0.29339 0.29806 0.90380 1.24400
O 	O 	0.12650 0.07816 0.97567 -0.52200
O 	O 	0.05810 0.32420 0.84272 -0.45300
O 	O 	0.87880 0.07421 0.03522 -0.44500
O 	O 	0.93000 0.19458 0.96838 -0.40900
O 	O 	0.15480 0.22867 0.98361 -0.49000
O 	O 	0.98000 0.05520 0.88988 -0.46100
O 	O 	0.20230 0.37985 0.83100 -0.48800
O 	O 	0.04250 0.17270 0.82752 -0.47900
O 	O 	0.24270 0.21200 0.83850 -0.50900
O 	O 	0.16550 0.31770 0.01613 -0.38200
O 	O 	0.76980 0.45140 0.63440 -0.48900
H 	H 	0.70430 0.45760 0.64380 0.27700
O 	O 	0.74630 0.45520 0.53110 -0.29600
O 	O 	0.39420 0.23550 0.84640 -0.49200
C 	C 	0.87730 0.14140 0.02560 0.37100
C 	C 	0.39560 0.15030 0.79460 -0.20800
C 	C 	0.81120 0.16170 0.08640 -0.16200
C 	C 	0.91410 0.68090 0.66580 -0.13300
C 	C 	0.96530 0.60420 0.70370 0.19200
C 	C 	0.63840 0.23020 0.51070 0.15600
C 	C 	0.81990 0.23220 0.08190 0.09200
H 	H 	0.85710 0.27010 0.03740 0.00700
C 	C 	0.91990 0.05330 0.33780 -0.17000
C 	C 	0.81620 0.82700 0.59500 0.17500
C 	C 	0.67500 0.20810 0.27530 -0.08500
C 	C 	0.06230 0.45900 0.77770 -0.23100
C 	C 	0.70470 0.12320 0.21200 -0.17000
H 	H 	0.66450 0.08620 0.25550 0.08200
C 	C 	0.45860 0.27680 0.48420 0.15800
C 	C 	0.53890 0.19630 0.38610 -0.17400
H 	H 	0.47260 0.17870 0.41820 0.09200
C 	C 	0.13370 0.36460 0.52990 0.16100
C 	C 	0.11070 0.38110 0.82040 0.44600
C 	C 	0.03970 0.13500 0.12890 0.07300
H 	H 	0.04840 0.11990 0.09150 -0.00700
C 	C 	0.71670 0.19280 0.20910 0.11700
C 	C 	0.78510 0.19050 0.60060 -0.11300
C 	C 	0.07780 0.20370 0.11120 -0.15900
C 	C 	0.60060 0.23550 0.40080 0.15300
C 	C 	0.73400 0.24690 0.29180 0.05000
H 	H 	0.80040 0.26460 0.25990 0.01400
C 	C 	0.75120 0.10740 0.15140 0.08400
H 	H 	0.74200 0.06020 0.15460 0.00300
C 	C 	0.99720 0.11860 0.83370 0.47500
C 	C 	0.92070 0.41920 0.55670 -0.18600
C 	C 	0.06540 0.22340 0.16880 0.09500
H 	H 	0.09080 0.26950 0.15850 0.00200
C 	C 	0.77460 0.24720 0.14200 -0.17000
H 	H 	0.78260 0.29500 0.13790 0.08800
C 	C 	0.85320 0.16740 0.65460 0.18000
C 	C 	0.97560 0.10540 0.25990 0.17000
C 	C 	0.57610 0.18330 0.32380 0.04100
H 	H 	0.53400 0.15740 0.31400 0.01300
C 	C 	0.24640 0.33380 0.51540 -0.09200
C 	C 	0.81550 0.95230 0.48510 0.23400
C 	C 	0.80540 0.69610 0.68960 0.07700
H 	H 	0.76370 0.65720 0.72980 0.00200
C 	C 	0.21190 0.05270 0.99740 0.36000
C 	C 	0.98280 0.40460 0.60580 0.14900
H 	H 	0.95360 0.41220 0.64840 0.00700
C 	C 	0.96440 0.40690 0.49440 0.15000
H 	H 	0.92310 0.41650 0.46100 -0.00300
C 	C 	0.34100 0.12100 0.76700 0.12700
H 	H 	0.26790 0.13260 0.77080 -0.00600
C 	C 	0.96540 0.46640 0.76050 0.17500
H 	H 	0.93160 0.42250 0.77320 -0.00500
C 	C 	0.80350 0.44440 0.57170 0.40600
C 	C 	0.39230 0.07440 0.73350 -0.20800
H 	H 	0.35320 0.05640 0.71410 0.09400
C 	C 	0.75750 0.76800 0.65480 -0.19800
H 	H 	0.68460 0.77640 0.67220 0.10100
C 	C 	0.13510 0.25400 0.03200 0.30700
C 	C 	0.91680 0.53730 0.72480 -0.23700
H 	H 	0.85070 0.54020 0.71470 0.12000
C 	C 	0.54230 0.01540 0.62440 0.01200
H 	H 	0.48410 0.04630 0.60750 0.01900
C 	C 	0.08880 0.37840 0.59180 -0.22400
H 	H 	0.13060 0.36990 0.62460 0.11700
C 	C 	0.34190 0.20230 0.82940 0.44800
C 	C 	0.69410 0.93290 0.60620 0.14500
C 	C 	0.95400 0.13210 0.76910 -0.24000
C 	C 	0.41160 0.32960 0.42710 -0.17200
H 	H 	0.45090 0.34730 0.37760 0.09000
C 	C 	0.85720 0.01810 0.46990 -0.27300
H 	H 	0.85220 0.03000 0.50900 0.12100
C 	C 	0.49940 0.05400 0.72810 0.14200
C 	C 	0.98840 0.08800 0.20160 -0.17200
H 	H 	0.96140 0.04260 0.21140 0.09400
C 	C 	0.29470 0.28140 0.57210 0.05300
H 	H 	0.25610 0.26500 0.62170 0.01500
C 	C 	0.60720 0.97870 0.58330 -0.13500
H 	H 	0.59150 0.98520 0.53990 0.08500
C 	C 	0.70260 0.16360 0.52680 -0.18100
H 	H 	0.69740 0.13110 0.50710 0.09700
C 	C 	0.30690 0.35650 0.44270 0.05300
H 	H 	0.27630 0.39080 0.40330 0.01500
C 	C 	0.88880 0.08030 0.77510 0.15600
H 	H 	0.87720 0.03370 0.81790 -0.01600
C 	C 	0.69810 0.26000 0.35300 -0.17900
H 	H 	0.74050 0.28600 0.36250 0.09400
C 	C 	0.77390 0.14410 0.57090 0.06700
H 	H 	0.81530 0.09870 0.58070 0.00200
C 	C 	0.92370 0.81240 0.56980 -0.20800
H 	H 	0.96450 0.85110 0.52840 0.11100
C 	C 	0.56130 0.00750 0.68930 -0.11000
C 	C 	0.90720 0.06810 0.39740 0.12900
H 	H 	0.93280 0.11320 0.38920 -0.01300
C 	C 	0.97200 0.74050 0.60550 0.10200
H 	H 	0.04510 0.73240 0.58820 -0.01400
C 	C 	0.01530 0.17470 0.24180 -0.21800
H 	H 	0.00820 0.18890 0.27960 0.10000
C 	C 	0.39910 0.25270 0.55720 -0.17600
H 	H 	0.42900 0.21710 0.59650 0.10000
C 	C 	0.84090 0.09730 0.71810 -0.23100
H 	H 	0.79930 0.06100 0.72220 0.10400
C 	C 	0.71310 0.92200 0.67230 -0.17500
H 	H 	0.77050 0.89010 0.68940 0.09600
C 	C 	0.06390 0.59620 0.71920 -0.25000
H 	H 	0.09940 0.64000 0.70470 0.11200
C 	C 	0.64660 0.95850 0.71390 0.07400
H 	H 	0.65980 0.94970 0.75880 0.00500
C 	C 	0.72520 0.25780 0.58260 0.06200
H 	H 	0.73420 0.29100 0.60050 0.02100
C 	C 	0.11170 0.52500 0.75570 0.16300
H 	H 	0.17820 0.52190 0.76540 -0.01900
C 	C 	0.06850 0.38050 0.48170 -0.23200
H 	H 	0.09690 0.37290 0.43910 0.11500
C 	C 	0.97660 0.19540 0.70280 0.20800
H 	H 	0.02750 0.22780 0.69520 -0.03700
C 	C 	0.92710 0.21380 0.64590 -0.25800
H 	H 	0.94450 0.25820 0.60130 0.13300
C 	C 	0.65090 0.27950 0.53850 -0.17300
H 	H 	0.61090 0.32550 0.52790 0.10500
C 	C 	0.50200 0.13190 0.78930 0.12200
H 	H 	0.54130 0.15170 0.80700 -0.00400
C 	C 	0.55260 0.08270 0.75690 -0.19800
H 	H 	0.62500 0.06930 0.75500 0.09400
C 	C 	0.35520 0.97260 0.03260 0.03000
H 	H 	0.33960 0.93030 0.08250 0.02200
H 	H 	0.42110 0.96040 0.00300 0.00900
C 	C 	0.87730 0.98590 0.35480 0.14800
H 	H 	0.88380 0.97300 0.31630 -0.01300
C 	C 	0.36210 0.04750 0.03520 -0.14400
H 	H 	0.42040 0.07760 0.99570 0.07900
H 	H 	0.37160 0.03810 0.08330 0.05200
C 	C 	0.82500 0.93670 0.42690 -0.25300
H 	H 	0.79630 0.89250 0.43530 0.12300
N 	N 	0.26760 0.99000 0.99750 -0.24300
H 	H 	0.25320 0.96310 0.97890 0.16100
N 	N 	0.26080 0.08410 0.02390 -0.25800
H 	H 	0.23410 0.12230 0.03330 0.11200
N 	N 	0.76530 0.90030 0.56010 -0.19600
N 	N 	0.56410 0.24820 0.46590 -0.18500
Mn	Mn	-0.00000 0.00000 -0.00000 1.28900
