data_crystal

_cell_length_a 15.57700
_cell_length_b 16.39400
_cell_length_c 12.59300
_cell_angle_alpha 90.00000
_cell_angle_beta  92.84000
_cell_angle_gamma 90.00000

_symmetry_space_group_name_	'P 1'
_symmetry_space_group_name_H-M	'P 1'

loop_
_symmetry_equiv_pos_as_xyz
  x,y,z

loop_
_atom_site_label
_atom_site_type_symbol
_atom_site_fract_x
_atom_site_fract_y
_atom_site_fract_z
_atom_site_charge
Gd	Gd	0.12131 0.18800 0.90939 1.68600
S 	S 	0.10586 0.21912 0.66557 0.75300
S 	S 	0.18587 0.34943 0.07620 0.78200
O 	O 	0.05450 0.06170 0.90020 -0.45000
O 	O 	0.10200 0.14120 0.72620 -0.55900
O 	O 	0.08600 0.14400 0.07540 -0.40900
O 	O 	0.02240 0.23330 0.60790 -0.49100
O 	O 	0.13120 0.31690 0.99000 -0.43700
O 	O 	0.12120 0.28270 0.74880 -0.36500
O 	O 	0.07370 0.04280 0.18530 -0.39800
O 	O 	0.17460 0.21780 0.59390 -0.24900
O 	O 	0.25620 0.39760 0.03560 -0.41700
C 	C 	0.06560 0.07310 0.09490 0.40200
O 	O 	0.13150 0.39160 0.14710 -0.26000
O 	O 	0.23080 0.28280 0.13170 -0.43100
C 	C 	0.03740 0.02040 0.99640 -0.15500
H 	H 	0.08010 0.97640 0.99870 0.09000
Gd	Gd	0.62131 0.68800 0.90939 1.74300
S 	S 	0.60586 0.71912 0.66557 0.74600
S 	S 	0.68587 0.84943 0.07620 0.77500
O 	O 	0.55450 0.56170 0.90020 -0.45600
O 	O 	0.60200 0.64120 0.72620 -0.54600
O 	O 	0.58600 0.64400 0.07540 -0.39100
O 	O 	0.52240 0.73330 0.60790 -0.43400
O 	O 	0.63120 0.81690 0.99000 -0.42000
O 	O 	0.62120 0.78270 0.74880 -0.34700
O 	O 	0.57370 0.54280 0.18530 -0.36800
O 	O 	0.67460 0.71780 0.59390 -0.23500
O 	O 	0.75620 0.89760 0.03560 -0.41700
C 	C 	0.56560 0.57310 0.09490 0.37600
O 	O 	0.63150 0.89160 0.14710 -0.23700
O 	O 	0.73080 0.78280 0.13170 -0.43100
C 	C 	0.53740 0.52040 0.99640 -0.01500
H 	H 	0.58010 0.47640 0.99870 0.06400
Gd	Gd	0.87869 0.18800 0.59061 1.79400
S 	S 	0.89414 0.21912 0.83443 0.73900
S 	S 	0.81413 0.34943 0.42380 0.77800
O 	O 	0.94550 0.06170 0.59980 -0.44700
O 	O 	0.89800 0.14120 0.77380 -0.52400
O 	O 	0.91400 0.14400 0.42460 -0.36900
O 	O 	0.97760 0.23330 0.89210 -0.37600
O 	O 	0.86880 0.31690 0.51000 -0.41000
O 	O 	0.87880 0.28270 0.75120 -0.33200
O 	O 	0.92630 0.04280 0.31470 -0.32900
O 	O 	0.82540 0.21780 0.90610 -0.22800
O 	O 	0.74380 0.39760 0.46440 -0.40700
C 	C 	0.93440 0.07310 0.40510 0.35800
O 	O 	0.86850 0.39160 0.35290 -0.21500
O 	O 	0.76920 0.28280 0.36830 -0.42400
C 	C 	0.96260 0.02040 0.50360 0.10500
H 	H 	0.91990 0.97640 0.50130 0.04400
Gd	Gd	0.37869 0.68800 0.59061 1.73800
S 	S 	0.39414 0.71912 0.83443 0.74800
S 	S 	0.31413 0.84943 0.42380 0.78000
O 	O 	0.44550 0.56170 0.59980 -0.45500
O 	O 	0.39800 0.64120 0.77380 -0.54900
O 	O 	0.41400 0.64400 0.42460 -0.39000
O 	O 	0.47760 0.73330 0.89210 -0.43400
O 	O 	0.36880 0.81690 0.51000 -0.42400
O 	O 	0.37880 0.78270 0.75120 -0.34900
O 	O 	0.42630 0.54280 0.31470 -0.37200
O 	O 	0.32540 0.71780 0.90610 -0.24200
O 	O 	0.24380 0.89760 0.46440 -0.40800
C 	C 	0.43440 0.57310 0.40510 0.38100
O 	O 	0.36850 0.89160 0.35290 -0.23800
O 	O 	0.26920 0.78280 0.36830 -0.42400
C 	C 	0.46260 0.52040 0.50360 -0.02600
H 	H 	0.41990 0.47640 0.50130 0.06300
Gd	Gd	0.87869 0.81200 0.09061 1.78800
S 	S 	0.89414 0.78088 0.33443 0.73900
S 	S 	0.81413 0.65057 0.92380 0.78500
O 	O 	0.94550 0.93830 0.09980 -0.44600
O 	O 	0.89800 0.85880 0.27380 -0.52400
O 	O 	0.91400 0.85600 0.92460 -0.36700
O 	O 	0.97760 0.76670 0.39210 -0.37700
O 	O 	0.86880 0.68310 0.01000 -0.41600
O 	O 	0.87880 0.71730 0.25120 -0.33200
O 	O 	0.92630 0.95720 0.81470 -0.32900
O 	O 	0.82540 0.78220 0.40610 -0.22900
O 	O 	0.74380 0.60240 0.96440 -0.40700
C 	C 	0.93440 0.92690 0.90510 0.36600
O 	O 	0.86850 0.60840 0.85290 -0.21500
O 	O 	0.76920 0.71720 0.86830 -0.42500
C 	C 	0.96260 0.97960 0.00360 0.09200
H 	H 	0.91990 0.02360 0.00130 0.04600
Gd	Gd	0.37869 0.31200 0.09061 1.73500
S 	S 	0.39414 0.28088 0.33443 0.74800
S 	S 	0.31413 0.15057 0.92380 0.78300
O 	O 	0.44550 0.43830 0.09980 -0.45300
O 	O 	0.39800 0.35880 0.27380 -0.54900
O 	O 	0.41400 0.35600 0.92460 -0.38900
O 	O 	0.47760 0.26670 0.39210 -0.43500
O 	O 	0.36880 0.18310 0.01000 -0.42700
O 	O 	0.37880 0.21730 0.25120 -0.35000
O 	O 	0.42630 0.45720 0.81470 -0.37300
O 	O 	0.32540 0.28220 0.40610 -0.24400
O 	O 	0.24380 0.10240 0.96440 -0.40800
C 	C 	0.43440 0.42690 0.90510 0.38700
O 	O 	0.36850 0.10840 0.85290 -0.23800
O 	O 	0.26920 0.21720 0.86830 -0.42400
C 	C 	0.46260 0.47960 0.00360 -0.03900
H 	H 	0.41990 0.52360 0.00130 0.06500
Gd	Gd	0.12131 0.81200 0.40939 1.68500
S 	S 	0.10586 0.78088 0.16557 0.75300
S 	S 	0.18587 0.65057 0.57620 0.78500
O 	O 	0.05450 0.93830 0.40020 -0.44900
O 	O 	0.10200 0.85880 0.22620 -0.55900
O 	O 	0.08600 0.85600 0.57540 -0.40800
O 	O 	0.02240 0.76670 0.10790 -0.49000
O 	O 	0.13120 0.68310 0.49000 -0.44000
O 	O 	0.12120 0.71730 0.24880 -0.36500
O 	O 	0.07370 0.95720 0.68530 -0.39700
O 	O 	0.17460 0.78220 0.09390 -0.25100
O 	O 	0.25620 0.60240 0.53560 -0.41700
C 	C 	0.06560 0.92690 0.59490 0.40300
O 	O 	0.13150 0.60840 0.64710 -0.26000
O 	O 	0.23080 0.71720 0.63170 -0.43100
C 	C 	0.03740 0.97960 0.49640 -0.15800
H 	H 	0.08010 0.02360 0.49870 0.08700
Gd	Gd	0.62131 0.31200 0.40939 1.73900
S 	S 	0.60586 0.28088 0.16557 0.74700
S 	S 	0.68587 0.15057 0.57620 0.78300
O 	O 	0.55450 0.43830 0.40020 -0.45400
O 	O 	0.60200 0.35880 0.22620 -0.54700
O 	O 	0.58600 0.35600 0.57540 -0.38900
O 	O 	0.52240 0.26670 0.10790 -0.43500
O 	O 	0.63120 0.18310 0.49000 -0.42600
O 	O 	0.62120 0.21730 0.24880 -0.34800
O 	O 	0.57370 0.45720 0.68530 -0.36900
O 	O 	0.67460 0.28220 0.09390 -0.23600
O 	O 	0.75620 0.10240 0.53560 -0.41700
C 	C 	0.56560 0.42690 0.59490 0.38200
O 	O 	0.63150 0.10840 0.64710 -0.23800
O 	O 	0.73080 0.21720 0.63170 -0.43200
C 	C 	0.53740 0.47960 0.49640 -0.02800
H 	H 	0.58010 0.52360 0.49870 0.06600
Fe	Fe	0.00000 0.04840 0.75000 1.15800
Fe	Fe	0.50000 0.54840 0.75000 1.20200
Fe	Fe	0.00000 0.95160 0.25000 1.15900
Fe	Fe	0.50000 0.45160 0.25000 1.20200
