data_crystal

_cell_length_a 15.52440
_cell_length_b 16.39870
_cell_length_c 12.64330
_cell_angle_alpha 90.00000
_cell_angle_beta  93.07500
_cell_angle_gamma 90.00000

_symmetry_space_group_name_	'P 1'
_symmetry_space_group_name_H-M	'P 1'

loop_
_symmetry_equiv_pos_as_xyz
  x,y,z

loop_
_atom_site_label
_atom_site_type_symbol
_atom_site_fract_x
_atom_site_fract_y
_atom_site_fract_z
_atom_site_charge
Eu	Eu	0.12197 0.18899 0.91147 2.08800
S 	S 	0.10725 0.21920 0.66703 0.78800
S 	S 	0.18365 0.34951 0.07570 0.76800
O 	O 	0.05450 0.06220 0.90110 -0.49800
O 	O 	0.10310 0.14140 0.72790 -0.61200
O 	O 	0.08630 0.14320 0.07660 -0.47600
O 	O 	0.02420 0.23380 0.60850 -0.54700
O 	O 	0.12670 0.32110 0.98880 -0.48100
O 	O 	0.12200 0.28240 0.74950 -0.41700
O 	O 	0.07490 0.04120 0.18420 -0.40600
O 	O 	0.17670 0.21820 0.59620 -0.26200
O 	O 	0.25480 0.40010 0.04080 -0.46000
C 	C 	0.06480 0.07340 0.09520 0.42400
O 	O 	0.13150 0.38890 0.15260 -0.26100
O 	O 	0.22780 0.27740 0.12280 -0.48400
C 	C 	0.03680 0.02200 0.99690 -0.15300
H 	H 	0.08060 0.97890 0.99970 0.08400
Eu	Eu	0.62197 0.68899 0.91147 2.15300
S 	S 	0.60725 0.71920 0.66703 0.78000
S 	S 	0.68365 0.84951 0.07570 0.76000
O 	O 	0.55450 0.56220 0.90110 -0.50500
O 	O 	0.60310 0.64140 0.72790 -0.60000
O 	O 	0.58630 0.64320 0.07660 -0.46000
O 	O 	0.52420 0.73380 0.60850 -0.49000
O 	O 	0.62670 0.82110 0.98880 -0.46300
O 	O 	0.62200 0.78240 0.74950 -0.40100
O 	O 	0.57490 0.54120 0.18420 -0.37700
O 	O 	0.67670 0.71820 0.59620 -0.24700
O 	O 	0.75480 0.90010 0.04080 -0.46000
C 	C 	0.56480 0.57340 0.09520 0.39800
O 	O 	0.63150 0.88890 0.15260 -0.23800
O 	O 	0.72780 0.77740 0.12280 -0.48600
C 	C 	0.53680 0.52200 0.99690 -0.01400
H 	H 	0.58060 0.47890 0.99970 0.05900
Eu	Eu	0.87803 0.18899 0.58853 2.21000
S 	S 	0.89275 0.21920 0.83297 0.77200
S 	S 	0.81635 0.34951 0.42430 0.76400
O 	O 	0.94550 0.06220 0.59890 -0.49700
O 	O 	0.89690 0.14140 0.77210 -0.57900
O 	O 	0.91370 0.14320 0.42340 -0.44000
O 	O 	0.97580 0.23380 0.89150 -0.43100
O 	O 	0.87330 0.32110 0.51120 -0.45400
O 	O 	0.87800 0.28240 0.75050 -0.38600
O 	O 	0.92510 0.04120 0.31580 -0.33800
O 	O 	0.82330 0.21820 0.90380 -0.24100
O 	O 	0.74520 0.40010 0.45920 -0.45000
C 	C 	0.93520 0.07340 0.40480 0.38100
O 	O 	0.86850 0.38890 0.34740 -0.21600
O 	O 	0.77220 0.27740 0.37720 -0.47900
C 	C 	0.96320 0.02200 0.50310 0.10300
H 	H 	0.91940 0.97890 0.50030 0.03900
Eu	Eu	0.37803 0.68899 0.58853 2.14600
S 	S 	0.39275 0.71920 0.83297 0.78200
S 	S 	0.31635 0.84951 0.42430 0.76600
O 	O 	0.44550 0.56220 0.59890 -0.50400
O 	O 	0.39690 0.64140 0.77210 -0.60200
O 	O 	0.41370 0.64320 0.42340 -0.45900
O 	O 	0.47580 0.73380 0.89150 -0.49100
O 	O 	0.37330 0.82110 0.51120 -0.46800
O 	O 	0.37800 0.78240 0.75050 -0.40300
O 	O 	0.42510 0.54120 0.31580 -0.38000
O 	O 	0.32330 0.71820 0.90380 -0.25500
O 	O 	0.24520 0.90010 0.45920 -0.45000
C 	C 	0.43520 0.57340 0.40480 0.40400
O 	O 	0.36850 0.88890 0.34740 -0.23900
O 	O 	0.27220 0.77740 0.37720 -0.47700
C 	C 	0.46320 0.52200 0.50310 -0.02600
H 	H 	0.41940 0.47890 0.50030 0.05800
Eu	Eu	0.87803 0.81101 0.08853 2.20100
S 	S 	0.89275 0.78080 0.33297 0.77300
S 	S 	0.81635 0.65049 0.92430 0.77300
O 	O 	0.94550 0.93780 0.09890 -0.49600
O 	O 	0.89690 0.85860 0.27210 -0.57900
O 	O 	0.91370 0.85680 0.92340 -0.43700
O 	O 	0.97580 0.76620 0.39150 -0.43300
O 	O 	0.87330 0.67890 0.01120 -0.46000
O 	O 	0.87800 0.71760 0.25050 -0.38600
O 	O 	0.92510 0.95880 0.81580 -0.33800
O 	O 	0.82330 0.78180 0.40380 -0.24200
O 	O 	0.74520 0.59990 0.95920 -0.45000
C 	C 	0.93520 0.92660 0.90480 0.39000
O 	O 	0.86850 0.61110 0.84740 -0.21600
O 	O 	0.77220 0.72260 0.87720 -0.47900
C 	C 	0.96320 0.97800 0.00310 0.08900
H 	H 	0.91940 0.02110 0.00030 0.04200
Eu	Eu	0.37803 0.31101 0.08853 2.14300
S 	S 	0.39275 0.28080 0.33297 0.78200
S 	S 	0.31635 0.15049 0.92430 0.76900
O 	O 	0.44550 0.43780 0.09890 -0.50200
O 	O 	0.39690 0.35860 0.27210 -0.60200
O 	O 	0.41370 0.35680 0.92340 -0.45800
O 	O 	0.47580 0.26620 0.39150 -0.49200
O 	O 	0.37330 0.17890 0.01120 -0.47000
O 	O 	0.37800 0.21760 0.25050 -0.40300
O 	O 	0.42510 0.45880 0.81580 -0.38100
O 	O 	0.32330 0.28180 0.40380 -0.25700
O 	O 	0.24520 0.09990 0.95920 -0.45000
C 	C 	0.43520 0.42660 0.90480 0.41000
O 	O 	0.36850 0.11110 0.84740 -0.23900
O 	O 	0.27220 0.22260 0.87720 -0.47700
C 	C 	0.46320 0.47800 0.00310 -0.03900
H 	H 	0.41940 0.52110 0.00030 0.06000
Eu	Eu	0.12197 0.81101 0.41147 2.08700
S 	S 	0.10725 0.78080 0.16703 0.78700
S 	S 	0.18365 0.65049 0.57570 0.77100
O 	O 	0.05450 0.93780 0.40110 -0.49700
O 	O 	0.10310 0.85860 0.22790 -0.61200
O 	O 	0.08630 0.85680 0.57660 -0.47600
O 	O 	0.02420 0.76620 0.10850 -0.54600
O 	O 	0.12670 0.67890 0.48880 -0.48400
O 	O 	0.12200 0.71760 0.24950 -0.41700
O 	O 	0.07490 0.95880 0.68420 -0.40500
O 	O 	0.17670 0.78180 0.09620 -0.26400
O 	O 	0.25480 0.59990 0.54080 -0.46000
C 	C 	0.06480 0.92660 0.59520 0.42500
O 	O 	0.13150 0.61110 0.65260 -0.26100
O 	O 	0.22780 0.72260 0.62280 -0.48400
C 	C 	0.03680 0.97800 0.49690 -0.15600
H 	H 	0.08060 0.02110 0.49970 0.08100
Eu	Eu	0.62197 0.31101 0.41147 2.14800
S 	S 	0.60725 0.28080 0.16703 0.78100
S 	S 	0.68365 0.15049 0.57570 0.76900
O 	O 	0.55450 0.43780 0.40110 -0.50300
O 	O 	0.60310 0.35860 0.22790 -0.60000
O 	O 	0.58630 0.35680 0.57660 -0.45800
O 	O 	0.52420 0.26620 0.10850 -0.49100
O 	O 	0.62670 0.17890 0.48880 -0.46900
O 	O 	0.62200 0.21760 0.24950 -0.40100
O 	O 	0.57490 0.45880 0.68420 -0.37700
O 	O 	0.67670 0.28180 0.09620 -0.24900
O 	O 	0.75480 0.09990 0.54080 -0.46000
C 	C 	0.56480 0.42660 0.59520 0.40500
O 	O 	0.63150 0.11110 0.65260 -0.23800
O 	O 	0.72780 0.22260 0.62280 -0.48600
C 	C 	0.53680 0.47800 0.49690 -0.02800
H 	H 	0.58060 0.52110 0.49970 0.06100
Fe	Fe	-0.00000 0.04959 0.75000 1.15200
Fe	Fe	0.50000 0.54959 0.75000 1.19600
Fe	Fe	0.00000 0.95041 0.25000 1.15300
Fe	Fe	0.50000 0.45041 0.25000 1.19600
