data_crystal

_cell_length_a 15.49800
_cell_length_b 16.40000
_cell_length_c 12.66000
_cell_angle_alpha 90.00000
_cell_angle_beta  93.36000
_cell_angle_gamma 90.00000

_symmetry_space_group_name_	'P 1'
_symmetry_space_group_name_H-M	'P 1'

loop_
_symmetry_equiv_pos_as_xyz
  x,y,z

loop_
_atom_site_label
_atom_site_type_symbol
_atom_site_fract_x
_atom_site_fract_y
_atom_site_fract_z
_atom_site_charge
Sm	Sm	0.12257 0.19019 0.91378 2.18300
S 	S 	0.10822 0.21911 0.66777 0.81000
S 	S 	0.18208 0.35054 0.07458 0.77000
O 	O 	0.05380 0.06290 0.90150 -0.50900
O 	O 	0.10350 0.14160 0.72940 -0.62400
O 	O 	0.08610 0.14270 0.07900 -0.48300
O 	O 	0.02520 0.23430 0.60970 -0.56500
O 	O 	0.12460 0.32560 0.98600 -0.48900
O 	O 	0.12360 0.28230 0.74990 -0.43100
O 	O 	0.07510 0.04020 0.18600 -0.40200
O 	O 	0.17740 0.21720 0.59810 -0.27300
O 	O 	0.25340 0.40060 0.04290 -0.47600
C 	C 	0.06360 0.07270 0.09690 0.41100
O 	O 	0.13130 0.38910 0.15280 -0.26400
O 	O 	0.22510 0.27550 0.11790 -0.50000
C 	C 	0.03680 0.02310 0.99600 -0.14000
H 	H 	0.08130 0.98060 0.99850 0.07900
Sm	Sm	0.62257 0.69019 0.91378 2.25200
S 	S 	0.60822 0.71911 0.66777 0.80100
S 	S 	0.68208 0.85054 0.07458 0.76000
O 	O 	0.55380 0.56290 0.90150 -0.51600
O 	O 	0.60350 0.64160 0.72940 -0.61200
O 	O 	0.58610 0.64270 0.07900 -0.46800
O 	O 	0.52520 0.73430 0.60970 -0.50700
O 	O 	0.62460 0.82560 0.98600 -0.47000
O 	O 	0.62360 0.78230 0.74990 -0.41500
O 	O 	0.57510 0.54020 0.18600 -0.37400
O 	O 	0.67740 0.71720 0.59810 -0.25800
O 	O 	0.75340 0.90060 0.04290 -0.47600
C 	C 	0.56360 0.57270 0.09690 0.38900
O 	O 	0.63130 0.88910 0.15280 -0.24200
O 	O 	0.72510 0.77550 0.11790 -0.50300
C 	C 	0.53680 0.52310 0.99600 -0.00900
H 	H 	0.58130 0.48060 0.99850 0.05600
Sm	Sm	0.87743 0.19019 0.58622 2.31200
S 	S 	0.89178 0.21911 0.83223 0.79200
S 	S 	0.81792 0.35054 0.42542 0.76400
O 	O 	0.94620 0.06290 0.59850 -0.50800
O 	O 	0.89650 0.14160 0.77060 -0.59100
O 	O 	0.91390 0.14270 0.42100 -0.45000
O 	O 	0.97480 0.23430 0.89030 -0.44800
O 	O 	0.87540 0.32560 0.51400 -0.46000
O 	O 	0.87640 0.28230 0.75010 -0.40100
O 	O 	0.92490 0.04020 0.31400 -0.33700
O 	O 	0.82260 0.21720 0.90190 -0.25100
O 	O 	0.74660 0.40060 0.45710 -0.46600
C 	C 	0.93640 0.07270 0.40310 0.37600
O 	O 	0.86870 0.38910 0.34720 -0.22000
O 	O 	0.77490 0.27550 0.38210 -0.49600
C 	C 	0.96320 0.02310 0.50400 0.10300
H 	H 	0.91870 0.98060 0.50150 0.03800
Sm	Sm	0.37743 0.69019 0.58622 2.24400
S 	S 	0.39178 0.71911 0.83223 0.80200
S 	S 	0.31792 0.85054 0.42542 0.76600
O 	O 	0.44620 0.56290 0.59850 -0.51500
O 	O 	0.39650 0.64160 0.77060 -0.61400
O 	O 	0.41390 0.64270 0.42100 -0.46700
O 	O 	0.47480 0.73430 0.89030 -0.50800
O 	O 	0.37540 0.82560 0.51400 -0.47500
O 	O 	0.37640 0.78230 0.75010 -0.41700
O 	O 	0.42490 0.54020 0.31400 -0.37800
O 	O 	0.32260 0.71720 0.90190 -0.26600
O 	O 	0.24660 0.90060 0.45710 -0.46500
C 	C 	0.43640 0.57270 0.40310 0.39400
O 	O 	0.36870 0.88910 0.34720 -0.24200
O 	O 	0.27490 0.77550 0.38210 -0.49300
C 	C 	0.46320 0.52310 0.50400 -0.01900
H 	H 	0.41870 0.48060 0.50150 0.05500
Sm	Sm	0.87743 0.80981 0.08622 2.30200
S 	S 	0.89178 0.78089 0.33223 0.79200
S 	S 	0.81792 0.64946 0.92542 0.77200
O 	O 	0.94620 0.93710 0.09850 -0.50700
O 	O 	0.89650 0.85840 0.27060 -0.59100
O 	O 	0.91390 0.85730 0.92100 -0.44700
O 	O 	0.97480 0.76570 0.39030 -0.44900
O 	O 	0.87540 0.67440 0.01400 -0.46600
O 	O 	0.87640 0.71770 0.25010 -0.40100
O 	O 	0.92490 0.95980 0.81400 -0.33700
O 	O 	0.82260 0.78280 0.40190 -0.25200
O 	O 	0.74660 0.59940 0.95710 -0.46600
C 	C 	0.93640 0.92730 0.90310 0.38500
O 	O 	0.86870 0.61090 0.84720 -0.21900
O 	O 	0.77490 0.72450 0.88210 -0.49500
C 	C 	0.96320 0.97690 0.00400 0.08800
H 	H 	0.91870 0.01940 0.00150 0.04000
Sm	Sm	0.37743 0.30981 0.08622 2.24200
S 	S 	0.39178 0.28089 0.33223 0.80200
S 	S 	0.31792 0.14946 0.92542 0.76900
O 	O 	0.44620 0.43710 0.09850 -0.51300
O 	O 	0.39650 0.35840 0.27060 -0.61400
O 	O 	0.41390 0.35730 0.92100 -0.46600
O 	O 	0.47480 0.26570 0.39030 -0.50800
O 	O 	0.37540 0.17440 0.01400 -0.47600
O 	O 	0.37640 0.21770 0.25010 -0.41800
O 	O 	0.42490 0.45980 0.81400 -0.37900
O 	O 	0.32260 0.28280 0.40190 -0.26800
O 	O 	0.24660 0.09940 0.95710 -0.46600
C 	C 	0.43640 0.42730 0.90310 0.40000
O 	O 	0.36870 0.11090 0.84720 -0.24200
O 	O 	0.27490 0.22450 0.88210 -0.49300
C 	C 	0.46320 0.47690 0.00400 -0.03100
H 	H 	0.41870 0.51940 0.00150 0.05600
Sm	Sm	0.12257 0.80981 0.41378 2.18200
S 	S 	0.10822 0.78089 0.16777 0.80800
S 	S 	0.18208 0.64946 0.57458 0.77100
O 	O 	0.05380 0.93710 0.40150 -0.50900
O 	O 	0.10350 0.85840 0.22940 -0.62400
O 	O 	0.08610 0.85730 0.57900 -0.48200
O 	O 	0.02520 0.76570 0.10970 -0.56300
O 	O 	0.12460 0.67440 0.48600 -0.49100
O 	O 	0.12360 0.71770 0.24990 -0.43100
O 	O 	0.07510 0.95980 0.68600 -0.40200
O 	O 	0.17740 0.78280 0.09810 -0.27400
O 	O 	0.25340 0.59940 0.54290 -0.47500
C 	C 	0.06360 0.92730 0.59690 0.41100
O 	O 	0.13130 0.61090 0.65280 -0.26400
O 	O 	0.22510 0.72450 0.61790 -0.50000
C 	C 	0.03680 0.97690 0.49600 -0.14300
H 	H 	0.08130 0.01940 0.49850 0.07600
Sm	Sm	0.62257 0.30981 0.41378 2.24600
S 	S 	0.60822 0.28089 0.16777 0.80100
S 	S 	0.68208 0.14946 0.57458 0.76900
O 	O 	0.55380 0.43710 0.40150 -0.51400
O 	O 	0.60350 0.35840 0.22940 -0.61200
O 	O 	0.58610 0.35730 0.57900 -0.46600
O 	O 	0.52520 0.26570 0.10970 -0.50800
O 	O 	0.62460 0.17440 0.48600 -0.47600
O 	O 	0.62360 0.21770 0.24990 -0.41600
O 	O 	0.57510 0.45980 0.68600 -0.37500
O 	O 	0.67740 0.28280 0.09810 -0.25900
O 	O 	0.75340 0.09940 0.54290 -0.47600
C 	C 	0.56360 0.42730 0.59690 0.39500
O 	O 	0.63130 0.11090 0.65280 -0.24200
O 	O 	0.72510 0.22450 0.61790 -0.50300
C 	C 	0.53680 0.47690 0.49600 -0.02100
H 	H 	0.58130 0.51940 0.49850 0.05800
Fe	Fe	-0.00000 0.05061 0.75000 1.15300
Fe	Fe	0.50000 0.55061 0.75000 1.19700
Fe	Fe	0.00000 0.94939 0.25000 1.15400
Fe	Fe	0.50000 0.44939 0.25000 1.19700
