data_crystal

_cell_length_a 15.55550
_cell_length_b 16.54290
_cell_length_c 12.39640
_cell_angle_alpha 90.00000
_cell_angle_beta  91.90600
_cell_angle_gamma 90.00000

_symmetry_space_group_name_	'P 1'
_symmetry_space_group_name_H-M	'P 1'

loop_
_symmetry_equiv_pos_as_xyz
  x,y,z

loop_
_atom_site_label
_atom_site_type_symbol
_atom_site_fract_x
_atom_site_fract_y
_atom_site_fract_z
_atom_site_charge
Er	Er	0.11801 0.18608 0.90641 1.89200
S 	S 	0.10482 0.21854 0.66307 0.77000
S 	S 	0.18953 0.35092 0.07090 0.85700
O 	O 	0.05650 0.06270 0.89930 -0.49600
O 	O 	0.10070 0.14030 0.72430 -0.58800
O 	O 	0.08270 0.14640 0.07350 -0.42500
O 	O 	0.02200 0.23280 0.60670 -0.53200
O 	O 	0.13760 0.30510 0.99340 -0.50000
O 	O 	0.11920 0.28050 0.74870 -0.39100
O 	O 	0.07450 0.04290 0.18340 -0.38800
O 	O 	0.17400 0.21800 0.58850 -0.24900
O 	O 	0.26260 0.38840 0.01890 -0.45700
C 	C 	0.06600 0.07350 0.09120 0.38400
O 	O 	0.13480 0.40600 0.12280 -0.28600
O 	O 	0.23570 0.29630 0.14540 -0.45600
C 	C 	0.04380 0.01850 0.99620 -0.12200
H 	H 	0.08560 0.97420 0.99820 0.08100
Er	Er	0.61801 0.68608 0.90641 1.95700
S 	S 	0.60482 0.71854 0.66307 0.76300
S 	S 	0.68953 0.85092 0.07090 0.85300
O 	O 	0.55650 0.56270 0.89930 -0.49600
O 	O 	0.60070 0.64030 0.72430 -0.57500
O 	O 	0.58270 0.64640 0.07350 -0.40800
O 	O 	0.52200 0.73280 0.60670 -0.47200
O 	O 	0.63760 0.80510 0.99340 -0.48500
O 	O 	0.61920 0.78050 0.74870 -0.37200
O 	O 	0.57450 0.54290 0.18340 -0.36200
O 	O 	0.67400 0.71800 0.58850 -0.23400
O 	O 	0.76260 0.88840 0.01890 -0.46000
C 	C 	0.56600 0.57350 0.09120 0.36600
O 	O 	0.63480 0.90600 0.12280 -0.26300
O 	O 	0.73570 0.79630 0.14540 -0.45600
C 	C 	0.54380 0.51850 0.99620 -0.01700
H 	H 	0.58560 0.47420 0.99820 0.06300
Er	Er	0.88199 0.18608 0.59359 2.01800
S 	S 	0.89518 0.21854 0.83693 0.75400
S 	S 	0.81047 0.35092 0.42910 0.85400
O 	O 	0.94350 0.06270 0.60070 -0.48200
O 	O 	0.89930 0.14030 0.77570 -0.55300
O 	O 	0.91730 0.14640 0.42650 -0.38700
O 	O 	0.97800 0.23280 0.89330 -0.41100
O 	O 	0.86240 0.30510 0.50660 -0.47700
O 	O 	0.88080 0.28050 0.75130 -0.35600
O 	O 	0.92550 0.04290 0.31660 -0.32500
O 	O 	0.82600 0.21800 0.91150 -0.22800
O 	O 	0.73740 0.38840 0.48110 -0.44900
C 	C 	0.93400 0.07350 0.40880 0.35500
O 	O 	0.86520 0.40600 0.37720 -0.24000
O 	O 	0.76430 0.29630 0.35460 -0.44700
C 	C 	0.95620 0.01850 0.50380 0.07600
H 	H 	0.91440 0.97420 0.50180 0.04800
Er	Er	0.38199 0.68608 0.59359 1.95300
S 	S 	0.39518 0.71854 0.83693 0.76400
S 	S 	0.31047 0.85092 0.42910 0.85400
O 	O 	0.44350 0.56270 0.60070 -0.49600
O 	O 	0.39930 0.64030 0.77570 -0.57700
O 	O 	0.41730 0.64640 0.42650 -0.40600
O 	O 	0.47800 0.73280 0.89330 -0.47200
O 	O 	0.36240 0.80510 0.50660 -0.48800
O 	O 	0.38080 0.78050 0.75130 -0.37500
O 	O 	0.42550 0.54290 0.31660 -0.36500
O 	O 	0.32600 0.71800 0.91150 -0.24200
O 	O 	0.23740 0.88840 0.48110 -0.44700
C 	C 	0.43400 0.57350 0.40880 0.36900
O 	O 	0.36520 0.90600 0.37720 -0.26300
O 	O 	0.26430 0.79630 0.35460 -0.44600
C 	C 	0.45620 0.51850 0.50380 -0.02200
H 	H 	0.41440 0.47420 0.50180 0.06100
Er	Er	0.88199 0.81392 0.09359 2.01100
S 	S 	0.89518 0.78146 0.33693 0.75400
S 	S 	0.81047 0.64908 0.92910 0.86000
O 	O 	0.94350 0.93730 0.10070 -0.48200
O 	O 	0.89930 0.85970 0.27570 -0.55300
O 	O 	0.91730 0.85360 0.92650 -0.38500
O 	O 	0.97800 0.76720 0.39330 -0.41200
O 	O 	0.86240 0.69490 0.00660 -0.48200
O 	O 	0.88080 0.71950 0.25130 -0.35700
O 	O 	0.92550 0.95710 0.81660 -0.32400
O 	O 	0.82600 0.78200 0.41150 -0.22800
O 	O 	0.73740 0.61160 0.98110 -0.44900
C 	C 	0.93400 0.92650 0.90880 0.36200
O 	O 	0.86520 0.59400 0.87720 -0.23900
O 	O 	0.76430 0.70370 0.85460 -0.44700
C 	C 	0.95620 0.98150 0.00380 0.06600
H 	H 	0.91440 0.02580 0.00180 0.05000
Er	Er	0.38199 0.31392 0.09359 1.95100
S 	S 	0.39518 0.28146 0.33693 0.76400
S 	S 	0.31047 0.14908 0.92910 0.85500
O 	O 	0.44350 0.43730 0.10070 -0.49600
O 	O 	0.39930 0.35970 0.27570 -0.57700
O 	O 	0.41730 0.35360 0.92650 -0.40600
O 	O 	0.47800 0.26720 0.39330 -0.47300
O 	O 	0.36240 0.19490 0.00660 -0.48900
O 	O 	0.38080 0.21950 0.25130 -0.37500
O 	O 	0.42550 0.45710 0.81660 -0.36600
O 	O 	0.32600 0.28200 0.41150 -0.24400
O 	O 	0.23740 0.11160 0.98110 -0.44700
C 	C 	0.43400 0.42650 0.90880 0.37300
O 	O 	0.36520 0.09400 0.87720 -0.26300
O 	O 	0.26430 0.20370 0.85460 -0.44600
C 	C 	0.45620 0.48150 0.00380 -0.02900
H 	H 	0.41440 0.52580 0.00180 0.06200
Er	Er	0.11801 0.81392 0.40641 1.89200
S 	S 	0.10482 0.78146 0.16307 0.77000
S 	S 	0.18953 0.64908 0.57090 0.85800
O 	O 	0.05650 0.93730 0.39930 -0.49600
O 	O 	0.10070 0.85970 0.22430 -0.58700
O 	O 	0.08270 0.85360 0.57350 -0.42500
O 	O 	0.02200 0.76720 0.10670 -0.53000
O 	O 	0.13760 0.69490 0.49340 -0.50100
O 	O 	0.11920 0.71950 0.24870 -0.39100
O 	O 	0.07450 0.95710 0.68340 -0.38800
O 	O 	0.17400 0.78200 0.08850 -0.25000
O 	O 	0.26260 0.61160 0.51890 -0.45700
C 	C 	0.06600 0.92650 0.59120 0.38300
O 	O 	0.13480 0.59400 0.62280 -0.28600
O 	O 	0.23570 0.70370 0.64540 -0.45600
C 	C 	0.04380 0.98150 0.49620 -0.12200
H 	H 	0.08560 0.02580 0.49820 0.07800
Er	Er	0.61801 0.31392 0.40641 1.95400
S 	S 	0.60482 0.28146 0.16307 0.76300
S 	S 	0.68953 0.14908 0.57090 0.85900
O 	O 	0.55650 0.43730 0.39930 -0.49500
O 	O 	0.60070 0.35970 0.22430 -0.57500
O 	O 	0.58270 0.35360 0.57350 -0.40600
O 	O 	0.52200 0.26720 0.10670 -0.47200
O 	O 	0.63760 0.19490 0.49340 -0.49000
O 	O 	0.61920 0.21950 0.24870 -0.37300
O 	O 	0.57450 0.45710 0.68340 -0.36200
O 	O 	0.67400 0.28200 0.08850 -0.23600
O 	O 	0.76260 0.11160 0.51890 -0.45900
C 	C 	0.56600 0.42650 0.59120 0.37000
O 	O 	0.63480 0.09400 0.62280 -0.26300
O 	O 	0.73570 0.20370 0.64540 -0.45700
C 	C 	0.54380 0.48150 0.49620 -0.02400
H 	H 	0.58560 0.52580 0.49820 0.06400
Fe	Fe	0.00000 0.04728 0.75000 1.15800
Fe	Fe	0.50000 0.54728 0.75000 1.20300
Fe	Fe	0.00000 0.95272 0.25000 1.15900
Fe	Fe	0.50000 0.45272 0.25000 1.20300
