data_crystal

_cell_length_a 14.14070
_cell_length_b 18.28140
_cell_length_c 21.45960
_cell_angle_alpha 90.00000
_cell_angle_beta  99.35900
_cell_angle_gamma 90.00000

_symmetry_space_group_name_	'P 1'
_symmetry_space_group_name_H-M	'P 1'

loop_
_symmetry_equiv_pos_as_xyz
  x,y,z

loop_
_atom_site_label
_atom_site_type_symbol
_atom_site_fract_x
_atom_site_fract_y
_atom_site_fract_z
_atom_site_charge
Cd	Cd	0.27337 0.23973 0.31166 1.23300
O 	O 	0.33430 0.26219 0.21752 -0.49200
O 	O 	0.20780 0.19081 0.21333 -0.38500
O 	O 	0.36870 0.31001 0.37690 -0.44200
O 	O 	0.47790 0.34314 0.31689 -0.42100
O 	O 	0.35870 0.13952 0.33488 -0.42600
O 	O 	0.51010 0.16992 0.32848 -0.42500
C 	C 	0.29760 0.27380 0.08399 -0.05800
H 	H 	0.33850 0.30780 0.10650 0.05600
C 	C 	0.25490 0.22290 0.11570 -0.10200
C 	C 	0.19360 0.16970 0.08162 -0.02200
H 	H 	0.16470 0.13450 0.10350 0.04400
C 	C 	0.17690 0.17000 0.01730 -0.10200
H 	H 	0.13750 0.13450 0.99570 0.06100
C 	C 	0.28110 0.27640 0.01672 0.01600
C 	C 	0.26700 0.22370 0.18656 0.29500
C 	C 	0.43250 0.41890 0.46369 -0.04400
H 	H 	0.38550 0.38680 0.47250 0.04600
C 	C 	0.46930 0.41090 0.40889 -0.08700
C 	C 	0.53900 0.46090 0.39501 0.01200
H 	H 	0.56360 0.45590 0.35760 0.04000
C 	C 	0.57110 0.51620 0.43540 -0.09500
H 	H 	0.61690 0.54870 0.42520 0.06400
C 	C 	0.46500 0.47530 0.50716 0.02000
C 	C 	0.43670 0.34940 0.36390 0.35600
C 	C 	0.41970 0.04414 0.43274 -0.06200
H 	H 	0.35570 0.04350 0.41390 0.06000
C 	C 	0.48310 0.08853 0.40869 -0.08300
C 	C 	0.58030 0.08970 0.43626 0.00100
H 	H 	0.62310 0.11940 0.41940 0.04900
C 	C 	0.61210 0.04680 0.48820 -0.10900
H 	H 	0.67640 0.04840 0.50640 0.06300
C 	C 	0.45090 0.99910 0.48612 0.01300
C 	C 	0.44740 0.13701 0.35232 0.36000
O 	O 	0.19480 0.20300 0.38810 -0.48300
N 	N 	0.09520 0.27000 0.43840 0.23900
C 	C 	0.11070 0.22440 0.39460 0.70400
C 	C 	0.02400 0.18430 0.36220 0.30900
H 	H 	0.96810 0.20230 0.37730 -0.05500
H 	H 	0.03120 0.13300 0.37110 -0.06900
H 	H 	0.01710 0.19200 0.31750 -0.26100
C 	C 	0.18060 0.30380 0.47680 0.52900
C 	C 	0.00720 0.29260 0.45830 -1.25200
H 	H 	0.02110 0.32700 0.49240 -0.33700
H 	H 	0.97550 0.25070 0.47230 0.39500
H 	H 	0.96620 0.31520 0.42350 1.33200
N 	N 	0.03680 0.28840 0.40110 0.39800
C 	C 	0.07430 0.24350 0.35940 -0.99100
C 	C 	0.01990 0.23290 0.29730 1.00100
H 	H 	0.05480 0.20150 0.27330 -0.24200
H 	H 	0.00930 0.27930 0.27640 -0.29300
H 	H 	0.95940 0.21090 0.30080 -0.16900
C 	C 	0.09030 0.29500 0.46330 -1.04500
H 	H 	0.05710 0.32690 0.48800 0.95700
H 	H 	0.15250 0.31490 0.46100 0.00500
H 	H 	0.09740 0.24760 0.48290 0.29900
C 	C 	0.94390 0.32300 0.38030 -3.24500
H 	H 	0.92690 0.35230 0.41390 0.54200
H 	H 	0.89610 0.28600 0.36880 1.00100
H 	H 	0.94770 0.35360 0.34440 1.07400
O 	O 	0.16280 0.21710 0.37490 0.01800
H 	H 	0.22080 0.26620 0.49830 -0.13500
H 	H 	0.16060 0.33630 0.50730 -0.12800
H 	H 	0.21580 0.33080 0.44970 -0.13900
Cd	Cd	0.77337 0.73973 0.31166 1.23400
O 	O 	0.83430 0.76219 0.21752 -0.48700
O 	O 	0.70780 0.69081 0.21333 -0.38400
O 	O 	0.86870 0.81001 0.37690 -0.43400
O 	O 	0.97790 0.84314 0.31689 -0.40400
O 	O 	0.85870 0.63952 0.33488 -0.42600
O 	O 	0.01010 0.66992 0.32848 -0.44300
C 	C 	0.79760 0.77380 0.08399 -0.06700
H 	H 	0.83850 0.80780 0.10650 0.06200
C 	C 	0.75490 0.72290 0.11570 -0.09700
C 	C 	0.69360 0.66970 0.08162 -0.03300
H 	H 	0.66470 0.63450 0.10350 0.05000
C 	C 	0.67690 0.67000 0.01730 -0.09400
H 	H 	0.63750 0.63450 0.99570 0.05900
C 	C 	0.78110 0.77640 0.01672 0.02500
C 	C 	0.76700 0.72370 0.18656 0.29000
C 	C 	0.93250 0.91890 0.46369 -0.10100
H 	H 	0.88550 0.88680 0.47250 0.06800
C 	C 	0.96930 0.91090 0.40889 -0.02300
C 	C 	0.03900 0.96090 0.39501 -0.06700
H 	H 	0.06360 0.95590 0.35760 0.06200
C 	C 	0.07110 0.01620 0.43540 -0.02800
H 	H 	0.11690 0.04870 0.42520 0.03900
C 	C 	0.96500 0.97530 0.50716 0.09700
C 	C 	0.93670 0.84940 0.36390 0.33600
C 	C 	0.91970 0.54414 0.43274 -0.10900
H 	H 	0.85570 0.54350 0.41390 0.07700
C 	C 	0.98310 0.58853 0.40869 -0.03100
C 	C 	0.08030 0.58970 0.43626 -0.06600
H 	H 	0.12310 0.61940 0.41940 0.06900
C 	C 	0.11210 0.54680 0.48820 -0.05100
H 	H 	0.17640 0.54840 0.50640 0.04200
C 	C 	0.95090 0.49910 0.48612 0.08000
C 	C 	0.94740 0.63701 0.35232 0.36700
O 	O 	0.69480 0.70300 0.38810 -0.52900
N 	N 	0.59520 0.77000 0.43840 0.18100
C 	C 	0.61070 0.72440 0.39460 0.67600
C 	C 	0.52400 0.68430 0.36220 0.31800
H 	H 	0.46810 0.70230 0.37730 -0.06600
H 	H 	0.53120 0.63300 0.37110 -0.06800
H 	H 	0.51710 0.69200 0.31750 -0.23300
C 	C 	0.68060 0.80380 0.47680 0.50700
C 	C 	0.50720 0.79260 0.45830 -1.06100
H 	H 	0.52110 0.82700 0.49240 -0.30700
H 	H 	0.47550 0.75070 0.47230 0.32700
H 	H 	0.46620 0.81520 0.42350 1.17800
N 	N 	0.53680 0.78840 0.40110 0.36600
C 	C 	0.57430 0.74350 0.35940 -0.95200
C 	C 	0.51990 0.73290 0.29730 0.91200
H 	H 	0.55480 0.70150 0.27330 -0.21600
H 	H 	0.50930 0.77930 0.27640 -0.24500
H 	H 	0.45940 0.71090 0.30080 -0.16000
C 	C 	0.59030 0.79500 0.46330 -0.92600
H 	H 	0.55710 0.82690 0.48800 0.85200
H 	H 	0.65250 0.81490 0.46100 -0.01100
H 	H 	0.59740 0.74760 0.48290 0.27400
C 	C 	0.44390 0.82300 0.38030 -2.95900
H 	H 	0.42690 0.85230 0.41390 0.50400
H 	H 	0.39610 0.78600 0.36880 0.91500
H 	H 	0.44770 0.85360 0.34440 0.97500
O 	O 	0.66280 0.71710 0.37490 0.07300
H 	H 	0.72080 0.76620 0.49830 -0.12500
H 	H 	0.66060 0.83630 0.50730 -0.11700
H 	H 	0.71580 0.83080 0.44970 -0.12700
Cd	Cd	0.72663 0.23973 0.18834 1.23300
O 	O 	0.66570 0.26219 0.28248 -0.49200
O 	O 	0.79220 0.19081 0.28667 -0.38600
O 	O 	0.63130 0.31001 0.12310 -0.44100
O 	O 	0.52210 0.34314 0.18311 -0.42100
O 	O 	0.64130 0.13952 0.16512 -0.42400
O 	O 	0.48990 0.16992 0.17152 -0.42500
C 	C 	0.70240 0.27380 0.41601 -0.05800
H 	H 	0.66150 0.30780 0.39350 0.05500
C 	C 	0.74510 0.22290 0.38430 -0.10900
C 	C 	0.80640 0.16970 0.41838 -0.02600
H 	H 	0.83530 0.13450 0.39650 0.04800
C 	C 	0.82310 0.17000 0.48270 -0.10900
H 	H 	0.86250 0.13450 0.50430 0.06700
C 	C 	0.71890 0.27640 0.48328 0.01100
C 	C 	0.73300 0.22370 0.31344 0.29100
C 	C 	0.56750 0.41890 0.03631 -0.04000
H 	H 	0.61450 0.38680 0.02750 0.04500
C 	C 	0.53070 0.41090 0.09111 -0.09000
C 	C 	0.46100 0.46090 0.10499 0.01400
H 	H 	0.43640 0.45590 0.14240 0.04000
C 	C 	0.42890 0.51620 0.06460 -0.09700
H 	H 	0.38310 0.54870 0.07480 0.06600
C 	C 	0.53500 0.47530 0.99284 0.01500
C 	C 	0.56330 0.34940 0.13610 0.35600
C 	C 	0.58030 0.04414 0.06726 -0.06500
H 	H 	0.64430 0.04350 0.08610 0.06200
C 	C 	0.51690 0.08853 0.09131 -0.07900
C 	C 	0.41970 0.08970 0.06374 -0.00500
H 	H 	0.37690 0.11940 0.08060 0.05000
C 	C 	0.38790 0.04680 0.01180 -0.09900
H 	H 	0.32360 0.04840 0.99360 0.05800
C 	C 	0.54910 0.99910 0.01388 0.01700
C 	C 	0.55260 0.13701 0.14768 0.35900
O 	O 	0.80520 0.20300 0.11190 -0.58000
N 	N 	0.90480 0.27000 0.06160 0.11900
C 	C 	0.88930 0.22440 0.10540 0.64300
C 	C 	0.97600 0.18430 0.13780 0.32500
H 	H 	0.03190 0.20230 0.12270 -0.07800
H 	H 	0.96880 0.13300 0.12890 -0.06600
H 	H 	0.98290 0.19200 0.18250 -0.20200
C 	C 	0.81940 0.30380 0.02320 0.48500
C 	C 	0.99280 0.29260 0.04170 -0.85500
H 	H 	0.97890 0.32700 0.00760 -0.27500
H 	H 	0.02450 0.25070 0.02770 0.25500
H 	H 	0.03380 0.31520 0.07650 1.01200
N 	N 	0.96320 0.28840 0.09890 0.33100
C 	C 	0.92570 0.24350 0.14060 -0.90800
C 	C 	0.98010 0.23290 0.20270 0.81300
H 	H 	0.94520 0.20150 0.22670 -0.18900
H 	H 	0.99070 0.27930 0.22360 -0.19400
H 	H 	0.04060 0.21090 0.19920 -0.15000
C 	C 	0.90970 0.29500 0.03670 -0.79800
H 	H 	0.94290 0.32690 0.01200 0.73800
H 	H 	0.84750 0.31490 0.03900 -0.02700
H 	H 	0.90260 0.24760 0.01710 0.24800
C 	C 	0.05610 0.32300 0.11970 -2.65400
H 	H 	0.07310 0.35230 0.08610 0.46300
H 	H 	0.10390 0.28600 0.13120 0.82400
H 	H 	0.05230 0.35360 0.15560 0.87000
O 	O 	0.83720 0.21710 0.12510 0.13700
H 	H 	0.77920 0.26620 0.00170 -0.11200
H 	H 	0.83940 0.33630 0.99270 -0.11100
H 	H 	0.78420 0.33080 0.05030 -0.11400
Cd	Cd	0.22663 0.73973 0.18834 1.23300
O 	O 	0.16570 0.76219 0.28248 -0.49500
O 	O 	0.29220 0.69081 0.28667 -0.38600
O 	O 	0.13130 0.81001 0.12310 -0.44900
O 	O 	0.02210 0.84314 0.18311 -0.43700
O 	O 	0.14130 0.63952 0.16512 -0.42400
O 	O 	0.98990 0.66992 0.17152 -0.40500
C 	C 	0.20240 0.77380 0.41601 -0.05600
H 	H 	0.16150 0.80780 0.39350 0.05200
C 	C 	0.24510 0.72290 0.38430 -0.10800
C 	C 	0.30640 0.66970 0.41838 -0.02300
H 	H 	0.33530 0.63450 0.39650 0.04600
C 	C 	0.32310 0.67000 0.48270 -0.10700
H 	H 	0.36250 0.63450 0.50430 0.06500
C 	C 	0.21890 0.77640 0.48328 0.01100
C 	C 	0.23300 0.72370 0.31344 0.29300
C 	C 	0.06750 0.91890 0.03631 0.01000
H 	H 	0.11450 0.88680 0.02750 0.02400
C 	C 	0.03070 0.91090 0.09111 -0.15300
C 	C 	0.96100 0.96090 0.10499 0.09100
H 	H 	0.93640 0.95590 0.14240 0.01800
C 	C 	0.92890 0.01620 0.06460 -0.16100
H 	H 	0.88310 0.04870 0.07480 0.09000
C 	C 	0.03500 0.97530 0.99284 -0.05700
C 	C 	0.06330 0.84940 0.13610 0.37500
C 	C 	0.08030 0.54414 0.06726 -0.02100
H 	H 	0.14430 0.54350 0.08610 0.04700
C 	C 	0.01690 0.58853 0.09131 -0.13000
C 	C 	0.91970 0.58970 0.06374 0.06100
H 	H 	0.87690 0.61940 0.08060 0.03000
C 	C 	0.88790 0.54680 0.01180 -0.15200
H 	H 	0.82360 0.54840 0.99360 0.07600
C 	C 	0.04910 0.49910 0.01388 -0.04900
C 	C 	0.05260 0.63701 0.14768 0.34900
O 	O 	0.30520 0.70300 0.11190 -0.52900
N 	N 	0.40480 0.77000 0.06160 0.18100
C 	C 	0.38930 0.72440 0.10540 0.67600
C 	C 	0.47600 0.68430 0.13780 0.31800
H 	H 	0.53190 0.70230 0.12270 -0.06700
H 	H 	0.46880 0.63300 0.12890 -0.06800
H 	H 	0.48290 0.69200 0.18250 -0.23300
C 	C 	0.31940 0.80380 0.02320 0.51000
C 	C 	0.49280 0.79260 0.04170 -1.05900
H 	H 	0.47890 0.82700 0.00760 -0.30800
H 	H 	0.52450 0.75070 0.02770 0.32700
H 	H 	0.53380 0.81520 0.07650 1.17700
N 	N 	0.46320 0.78840 0.09890 0.36500
C 	C 	0.42570 0.74350 0.14060 -0.95200
C 	C 	0.48010 0.73290 0.20270 0.91200
H 	H 	0.44520 0.70150 0.22670 -0.21600
H 	H 	0.49070 0.77930 0.22360 -0.24500
H 	H 	0.54060 0.71090 0.19920 -0.16000
C 	C 	0.40970 0.79500 0.03670 -0.92600
H 	H 	0.44290 0.82690 0.01200 0.85100
H 	H 	0.34750 0.81490 0.03900 -0.01300
H 	H 	0.40260 0.74760 0.01710 0.27300
C 	C 	0.55610 0.82300 0.11970 -2.95800
H 	H 	0.57310 0.85230 0.08610 0.50400
H 	H 	0.60390 0.78600 0.13120 0.91500
H 	H 	0.55230 0.85360 0.15560 0.97500
O 	O 	0.33720 0.71710 0.12510 0.07500
H 	H 	0.27920 0.76620 0.00170 -0.12600
H 	H 	0.33940 0.83630 0.99270 -0.11900
H 	H 	0.28420 0.83080 0.05030 -0.12800
Cd	Cd	0.72663 0.76027 0.68834 1.23300
O 	O 	0.66570 0.73781 0.78248 -0.49300
O 	O 	0.79220 0.80919 0.78667 -0.38600
O 	O 	0.63130 0.68999 0.62310 -0.44100
O 	O 	0.52210 0.65686 0.68311 -0.42100
O 	O 	0.64130 0.86048 0.66512 -0.42400
O 	O 	0.48990 0.83008 0.67152 -0.42600
C 	C 	0.70240 0.72620 0.91601 -0.05000
H 	H 	0.66150 0.69220 0.89350 0.05300
C 	C 	0.74510 0.77710 0.88430 -0.11400
C 	C 	0.80640 0.83030 0.91838 -0.01800
H 	H 	0.83530 0.86550 0.89650 0.04500
C 	C 	0.82310 0.83000 0.98270 -0.12100
H 	H 	0.86250 0.86550 0.00430 0.07200
C 	C 	0.71890 0.72360 0.98328 0.00100
C 	C 	0.73300 0.77630 0.81344 0.29300
C 	C 	0.56750 0.58110 0.53631 -0.04300
H 	H 	0.61450 0.61320 0.52750 0.04600
C 	C 	0.53070 0.58910 0.59111 -0.08800
C 	C 	0.46100 0.53910 0.60499 0.01200
H 	H 	0.43640 0.54410 0.64240 0.04100
C 	C 	0.42890 0.48380 0.56460 -0.09500
H 	H 	0.38310 0.45130 0.57480 0.06500
C 	C 	0.53500 0.52470 0.49284 0.01900
C 	C 	0.56330 0.65060 0.63610 0.35600
C 	C 	0.58030 0.95586 0.56726 -0.06500
H 	H 	0.64430 0.95650 0.58610 0.06200
C 	C 	0.51690 0.91147 0.59131 -0.08100
C 	C 	0.41970 0.91030 0.56374 -0.00000
H 	H 	0.37690 0.88060 0.58060 0.04900
C 	C 	0.38790 0.95320 0.51180 -0.10700
H 	H 	0.32360 0.95160 0.49360 0.06100
C 	C 	0.54910 0.00090 0.51388 0.01500
C 	C 	0.55260 0.86299 0.64768 0.35900
O 	O 	0.80520 0.79700 0.61190 -0.57500
N 	N 	0.90480 0.73000 0.56160 0.12500
C 	C 	0.88930 0.77560 0.60540 0.64700
C 	C 	0.97600 0.81570 0.63780 0.32300
H 	H 	0.03190 0.79770 0.62270 -0.07600
H 	H 	0.96880 0.86700 0.62890 -0.06600
H 	H 	0.98290 0.80800 0.68250 -0.20500
C 	C 	0.81940 0.69620 0.52320 0.48800
C 	C 	0.99280 0.70740 0.54170 -0.87400
H 	H 	0.97890 0.67300 0.50760 -0.27900
H 	H 	0.02450 0.74930 0.52770 0.26100
H 	H 	0.03380 0.68480 0.57650 1.02700
N 	N 	0.96320 0.71160 0.59890 0.33400
C 	C 	0.92570 0.75650 0.64060 -0.91200
C 	C 	0.98010 0.76710 0.70270 0.82400
H 	H 	0.94520 0.79850 0.72670 -0.19200
H 	H 	0.99070 0.72070 0.72360 -0.20000
H 	H 	0.04060 0.78910 0.69920 -0.15100
C 	C 	0.90970 0.70500 0.53670 -0.81100
H 	H 	0.94290 0.67310 0.51200 0.74900
H 	H 	0.84750 0.68510 0.53900 -0.02700
H 	H 	0.90260 0.75240 0.51710 0.24900
C 	C 	0.05610 0.67700 0.61970 -2.68100
H 	H 	0.07310 0.64770 0.58610 0.46700
H 	H 	0.10390 0.71400 0.63120 0.83200
H 	H 	0.05230 0.64640 0.65560 0.87900
O 	O 	0.83720 0.78290 0.62510 0.13000
H 	H 	0.77920 0.73380 0.50170 -0.11600
H 	H 	0.83940 0.66370 0.49270 -0.11000
H 	H 	0.78420 0.66920 0.55030 -0.11600
Cd	Cd	0.22663 0.26027 0.68834 1.23300
O 	O 	0.16570 0.23781 0.78248 -0.49500
O 	O 	0.29220 0.30919 0.78667 -0.38600
O 	O 	0.13130 0.18999 0.62310 -0.44900
O 	O 	0.02210 0.15686 0.68311 -0.43500
O 	O 	0.14130 0.36048 0.66512 -0.42500
O 	O 	0.98990 0.33008 0.67152 -0.40800
C 	C 	0.20240 0.22620 0.91601 -0.05500
H 	H 	0.16150 0.19220 0.89350 0.05300
C 	C 	0.24510 0.27710 0.88430 -0.10900
C 	C 	0.30640 0.33030 0.91838 -0.02200
H 	H 	0.33530 0.36550 0.89650 0.04500
C 	C 	0.32310 0.33000 0.98270 -0.10900
H 	H 	0.36250 0.36550 0.00430 0.06600
C 	C 	0.21890 0.22360 0.98328 0.01000
C 	C 	0.23300 0.27630 0.81344 0.29300
C 	C 	0.06750 0.08110 0.53631 0.01300
H 	H 	0.11450 0.11320 0.52750 0.02400
C 	C 	0.03070 0.08910 0.59111 -0.15000
C 	C 	0.96100 0.03910 0.60499 0.08800
H 	H 	0.93640 0.04410 0.64240 0.01900
C 	C 	0.92890 0.98380 0.56460 -0.16000
H 	H 	0.88310 0.95130 0.57480 0.08900
C 	C 	0.03500 0.02470 0.49284 -0.05800
C 	C 	0.06330 0.15060 0.63610 0.37400
C 	C 	0.08030 0.45586 0.56726 -0.01800
H 	H 	0.14430 0.45650 0.58610 0.04600
C 	C 	0.01690 0.41147 0.59131 -0.13200
C 	C 	0.91970 0.41030 0.56374 0.06600
H 	H 	0.87690 0.38060 0.58060 0.02800
C 	C 	0.88790 0.45320 0.51180 -0.16500
H 	H 	0.82360 0.45160 0.49360 0.08100
C 	C 	0.04910 0.50090 0.51388 -0.05200
C 	C 	0.05260 0.36299 0.64768 0.35300
O 	O 	0.30520 0.29700 0.61190 -0.52900
N 	N 	0.40480 0.23000 0.56160 0.18200
C 	C 	0.38930 0.27560 0.60540 0.67500
C 	C 	0.47600 0.31570 0.63780 0.31900
H 	H 	0.53190 0.29770 0.62270 -0.06700
H 	H 	0.46880 0.36700 0.62890 -0.06800
H 	H 	0.48290 0.30800 0.68250 -0.23300
C 	C 	0.31940 0.19620 0.52320 0.51000
C 	C 	0.49280 0.20740 0.54170 -1.06100
H 	H 	0.47890 0.17300 0.50760 -0.30800
H 	H 	0.52450 0.24930 0.52770 0.32700
H 	H 	0.53380 0.18480 0.57650 1.17800
N 	N 	0.46320 0.21160 0.59890 0.36600
C 	C 	0.42570 0.25650 0.64060 -0.95200
C 	C 	0.48010 0.26710 0.70270 0.91200
H 	H 	0.44520 0.29850 0.72670 -0.21600
H 	H 	0.49070 0.22070 0.72360 -0.24500
H 	H 	0.54060 0.28910 0.69920 -0.16000
C 	C 	0.40970 0.20500 0.53670 -0.92600
H 	H 	0.44290 0.17310 0.51200 0.85200
H 	H 	0.34750 0.18510 0.53900 -0.01200
H 	H 	0.40260 0.25240 0.51710 0.27400
C 	C 	0.55610 0.17700 0.61970 -2.96000
H 	H 	0.57310 0.14770 0.58610 0.50400
H 	H 	0.60390 0.21400 0.63120 0.91600
H 	H 	0.55230 0.14640 0.65560 0.97500
O 	O 	0.33720 0.28290 0.62510 0.07500
H 	H 	0.27920 0.23380 0.50170 -0.12500
H 	H 	0.33940 0.16370 0.49270 -0.12000
H 	H 	0.28420 0.16920 0.55030 -0.12800
Cd	Cd	0.27337 0.76027 0.81166 1.23400
O 	O 	0.33430 0.73781 0.71752 -0.49200
O 	O 	0.20780 0.80919 0.71333 -0.38500
O 	O 	0.36870 0.68999 0.87690 -0.44200
O 	O 	0.47790 0.65686 0.81689 -0.42100
O 	O 	0.35870 0.86048 0.83488 -0.42600
O 	O 	0.51010 0.83008 0.82848 -0.42600
C 	C 	0.29760 0.72620 0.58399 -0.05800
H 	H 	0.33850 0.69220 0.60650 0.05600
C 	C 	0.25490 0.77710 0.61570 -0.10200
C 	C 	0.19360 0.83030 0.58162 -0.02200
H 	H 	0.16470 0.86550 0.60350 0.04400
C 	C 	0.17690 0.83000 0.51730 -0.10300
H 	H 	0.13750 0.86550 0.49570 0.06100
C 	C 	0.28110 0.72360 0.51672 0.01400
C 	C 	0.26700 0.77630 0.68656 0.29500
C 	C 	0.43250 0.58110 0.96369 -0.04700
H 	H 	0.38550 0.61320 0.97250 0.04700
C 	C 	0.46930 0.58910 0.90889 -0.08600
C 	C 	0.53900 0.53910 0.89501 0.01000
H 	H 	0.56360 0.54410 0.85760 0.04100
C 	C 	0.57110 0.48380 0.93540 -0.09200
H 	H 	0.61690 0.45130 0.92520 0.06300
C 	C 	0.46500 0.52470 0.00716 0.02300
C 	C 	0.43670 0.65060 0.86390 0.35500
C 	C 	0.41970 0.95586 0.93274 -0.05800
H 	H 	0.35570 0.95650 0.91390 0.05900
C 	C 	0.48310 0.91147 0.90869 -0.08500
C 	C 	0.58030 0.91030 0.93626 0.00300
H 	H 	0.62310 0.88060 0.91940 0.04800
C 	C 	0.61210 0.95320 0.98820 -0.11100
H 	H 	0.67640 0.95160 0.00640 0.06300
C 	C 	0.45090 0.00090 0.98612 0.00600
C 	C 	0.44740 0.86299 0.85232 0.36100
O 	O 	0.19480 0.79700 0.88810 -0.49000
N 	N 	0.09520 0.73000 0.93840 0.23200
C 	C 	0.11070 0.77560 0.89460 0.70000
C 	C 	0.02400 0.81570 0.86220 0.31000
H 	H 	0.96810 0.79770 0.87730 -0.05600
H 	H 	0.03120 0.86700 0.87110 -0.06900
H 	H 	0.01710 0.80800 0.81750 -0.25700
C 	C 	0.18060 0.69620 0.97680 0.52500
C 	C 	0.00720 0.70740 0.95830 -1.22800
H 	H 	0.02110 0.67300 0.99240 -0.33300
H 	H 	0.97550 0.74930 0.97230 0.38600
H 	H 	0.96620 0.68480 0.92350 1.31200
N 	N 	0.03680 0.71160 0.90110 0.39300
C 	C 	0.07430 0.75650 0.85940 -0.98500
C 	C 	0.01990 0.76710 0.79730 0.98800
H 	H 	0.05480 0.79850 0.77330 -0.23800
H 	H 	0.00930 0.72070 0.77640 -0.28600
H 	H 	0.95940 0.78910 0.80080 -0.16700
C 	C 	0.09030 0.70500 0.96330 -1.02900
H 	H 	0.05710 0.67310 0.98800 0.94400
H 	H 	0.15250 0.68510 0.96100 0.00300
H 	H 	0.09740 0.75240 0.98290 0.29600
C 	C 	0.94390 0.67700 0.88030 -3.20800
H 	H 	0.92690 0.64770 0.91390 0.53600
H 	H 	0.89610 0.71400 0.86880 0.98900
H 	H 	0.94770 0.64640 0.84440 1.06100
O 	O 	0.16280 0.78290 0.87490 0.02700
H 	H 	0.22080 0.73380 0.99830 -0.13200
H 	H 	0.16060 0.66370 0.00730 -0.12800
H 	H 	0.21580 0.66920 0.94970 -0.13700
Cd	Cd	0.77337 0.26027 0.81166 1.23400
O 	O 	0.83430 0.23781 0.71752 -0.48800
O 	O 	0.70780 0.30919 0.71333 -0.38500
O 	O 	0.86870 0.18999 0.87690 -0.43400
O 	O 	0.97790 0.15686 0.81689 -0.40600
O 	O 	0.85870 0.36048 0.83488 -0.42500
O 	O 	0.01010 0.33008 0.82848 -0.44100
C 	C 	0.79760 0.22620 0.58399 -0.05900
H 	H 	0.83850 0.19220 0.60650 0.05900
C 	C 	0.75490 0.27710 0.61570 -0.10300
C 	C 	0.69360 0.33030 0.58162 -0.02500
H 	H 	0.66470 0.36550 0.60350 0.04700
C 	C 	0.67690 0.33000 0.51730 -0.10500
H 	H 	0.63750 0.36550 0.49570 0.06300
C 	C 	0.78110 0.22360 0.51672 0.01400
C 	C 	0.76700 0.27630 0.68656 0.29200
C 	C 	0.93250 0.08110 0.96369 -0.10700
H 	H 	0.88550 0.11320 0.97250 0.06900
C 	C 	0.96930 0.08910 0.90889 -0.02400
C 	C 	0.03900 0.03910 0.89501 -0.06600
H 	H 	0.06360 0.04410 0.85760 0.06200
C 	C 	0.07110 0.98380 0.93540 -0.02800
H 	H 	0.11690 0.95130 0.92520 0.04000
C 	C 	0.96500 0.02470 0.00716 0.10300
C 	C 	0.93670 0.15060 0.86390 0.33600
C 	C 	0.91970 0.45586 0.93274 -0.10300
H 	H 	0.85570 0.45650 0.91390 0.07400
C 	C 	0.98310 0.41147 0.90869 -0.03700
C 	C 	0.08030 0.41030 0.93626 -0.06000
H 	H 	0.12310 0.38060 0.91940 0.06800
C 	C 	0.11210 0.45320 0.98820 -0.05200
H 	H 	0.17640 0.45160 0.00640 0.04200
C 	C 	0.95090 0.50090 0.98612 0.07100
C 	C 	0.94740 0.36299 0.85232 0.36600
O 	O 	0.69480 0.29700 0.88810 -0.52900
N 	N 	0.59520 0.23000 0.93840 0.18000
C 	C 	0.61070 0.27560 0.89460 0.67700
C 	C 	0.52400 0.31570 0.86220 0.31800
H 	H 	0.46810 0.29770 0.87730 -0.06600
H 	H 	0.53120 0.36700 0.87110 -0.06800
H 	H 	0.51710 0.30800 0.81750 -0.23300
C 	C 	0.68060 0.19620 0.97680 0.50700
C 	C 	0.50720 0.20740 0.95830 -1.05700
H 	H 	0.52110 0.17300 0.99240 -0.30800
H 	H 	0.47550 0.24930 0.97230 0.32600
H 	H 	0.46620 0.18480 0.92350 1.17500
N 	N 	0.53680 0.21160 0.90110 0.36500
C 	C 	0.57430 0.25650 0.85940 -0.95200
C 	C 	0.51990 0.26710 0.79730 0.91200
H 	H 	0.55480 0.29850 0.77330 -0.21600
H 	H 	0.50930 0.22070 0.77640 -0.24500
H 	H 	0.45940 0.28910 0.80080 -0.16000
C 	C 	0.59030 0.20500 0.96330 -0.92500
H 	H 	0.55710 0.17310 0.98800 0.84900
H 	H 	0.65250 0.18510 0.96100 -0.01200
H 	H 	0.59740 0.25240 0.98290 0.27300
C 	C 	0.44390 0.17700 0.88030 -2.95300
H 	H 	0.42690 0.14770 0.91390 0.50300
H 	H 	0.39610 0.21400 0.86880 0.91300
H 	H 	0.44770 0.14640 0.84440 0.97300
O 	O 	0.66280 0.28290 0.87490 0.07300
H 	H 	0.72080 0.23380 0.99830 -0.12800
H 	H 	0.66060 0.16370 0.00730 -0.11500
H 	H 	0.71580 0.16920 0.94970 -0.12700
Cd	Cd	0.50000 0.25229 0.25000 1.24500
Cd	Cd	0.00000 0.75229 0.25000 1.23900
Cd	Cd	0.50000 0.74771 0.75000 1.24500
Cd	Cd	0.00000 0.24771 0.75000 1.24000
