data_crystal

_cell_length_a 9.12120
_cell_length_b 18.85760
_cell_length_c 8.12650
_cell_angle_alpha 90.00000
_cell_angle_beta  111.96300
_cell_angle_gamma 90.00000

_symmetry_space_group_name_	'P 1'
_symmetry_space_group_name_H-M	'P 1'

loop_
_symmetry_equiv_pos_as_xyz
  x,y,z

loop_
_atom_site_label
_atom_site_type_symbol
_atom_site_fract_x
_atom_site_fract_y
_atom_site_fract_z
_atom_site_charge
Zn	Zn	0.30126 0.52966 0.33651 1.19400
O 	O 	0.05790 0.60235 0.46470 -0.52000
O 	O 	0.22910 0.62633 0.33460 -0.52400
O 	O 	0.78570 0.94843 0.32640 -0.42400
O 	O 	0.98300 0.97738 0.24710 -0.41400
N 	N 	0.23890 0.47231 0.64160 -0.19700
N 	N 	0.35190 0.48378 0.57860 -0.21100
N 	N 	0.48890 0.45855 0.69240 -0.22600
C 	C 	0.12530 0.64376 0.39750 0.45500
C 	C 	0.08170 0.72038 0.39100 -0.28000
C 	C 	0.17210 0.77315 0.35610 0.16100
H 	H 	0.26590 0.76140 0.34240 -0.02300
C 	C 	0.12370 0.84289 0.34160 -0.24800
H 	H 	0.18560 0.87800 0.31980 0.10700
C 	C 	0.98260 0.86092 0.35940 0.10100
C 	C 	0.89670 0.80868 0.40240 -0.19400
H 	H 	0.80490 0.82070 0.42040 0.10700
C 	C 	0.94570 0.73923 0.41890 0.20700
H 	H 	0.88730 0.70460 0.44890 -0.02000
C 	C 	0.91590 0.93374 0.31080 0.28200
C 	C 	0.30420 0.43970 0.79680 0.00500
H 	H 	0.25250 0.42540 0.87050 0.05000
C 	C 	0.46080 0.43080 0.82860 0.02600
H 	H 	0.53500 0.40930 0.92780 0.02800
Zn	Zn	0.69874 0.02966 0.16349 1.17000
O 	O 	0.94210 0.10235 0.03530 -0.47100
O 	O 	0.77090 0.12633 0.16540 -0.49600
O 	O 	0.21430 0.44843 0.17360 -0.49900
O 	O 	0.01700 0.47738 0.25290 -0.53500
N 	N 	0.76110 0.97231 0.85840 -0.15500
N 	N 	0.64810 0.98378 0.92140 -0.17600
N 	N 	0.51110 0.95855 0.80760 -0.21200
C 	C 	0.87470 0.14376 0.10250 0.34000
C 	C 	0.91830 0.22038 0.10900 0.07500
C 	C 	0.82790 0.27315 0.14390 -0.17400
H 	H 	0.73410 0.26140 0.15760 0.09200
C 	C 	0.87630 0.34289 0.15840 0.18600
H 	H 	0.81440 0.37800 0.18020 -0.03300
C 	C 	0.01740 0.36092 0.14060 -0.28000
C 	C 	0.10330 0.30868 0.09760 0.14300
H 	H 	0.19510 0.32070 0.07960 -0.02600
C 	C 	0.05430 0.23923 0.08110 -0.23000
H 	H 	0.11270 0.20460 0.05110 0.09600
C 	C 	0.08410 0.43374 0.18920 0.40200
C 	C 	0.69580 0.93970 0.70320 0.01900
H 	H 	0.74750 0.92540 0.62950 0.05200
C 	C 	0.53920 0.93080 0.67140 0.02800
H 	H 	0.46500 0.90930 0.57220 0.01200
Zn	Zn	0.69874 0.47034 0.66349 1.19700
O 	O 	0.94210 0.39765 0.53530 -0.44000
O 	O 	0.77090 0.37367 0.66540 -0.46900
O 	O 	0.21430 0.05157 0.67360 -0.49900
O 	O 	0.01700 0.02262 0.75290 -0.53600
N 	N 	0.76110 0.52769 0.35840 -0.18300
N 	N 	0.64810 0.51622 0.42140 -0.21200
N 	N 	0.51110 0.54145 0.30760 -0.23100
C 	C 	0.87470 0.35624 0.60250 0.34500
C 	C 	0.91830 0.27962 0.60900 0.08100
C 	C 	0.82790 0.22685 0.64390 -0.15900
H 	H 	0.73410 0.23860 0.65760 0.10200
C 	C 	0.87630 0.15711 0.65840 0.18700
H 	H 	0.81440 0.12200 0.68020 -0.02300
C 	C 	0.01740 0.13908 0.64060 -0.26000
C 	C 	0.10330 0.19132 0.59760 0.14400
H 	H 	0.19510 0.17930 0.57960 -0.01100
C 	C 	0.05430 0.26077 0.58110 -0.21200
H 	H 	0.11270 0.29540 0.55110 0.10500
C 	C 	0.08410 0.06626 0.68920 0.40900
C 	C 	0.69580 0.56030 0.20320 0.00700
H 	H 	0.74750 0.57460 0.12950 0.03100
C 	C 	0.53920 0.56920 0.17140 0.01300
H 	H 	0.46500 0.59070 0.07220 -0.01000
Zn	Zn	0.30126 0.97034 0.83651 1.22000
O 	O 	0.05790 0.89765 0.96470 -0.47300
O 	O 	0.22910 0.87367 0.83460 -0.49400
O 	O 	0.78570 0.55157 0.82640 -0.43100
O 	O 	0.98300 0.52262 0.74710 -0.43700
N 	N 	0.23890 0.02769 0.14160 -0.22000
N 	N 	0.35190 0.01622 0.07860 -0.24800
N 	N 	0.48890 0.04145 0.19240 -0.24500
C 	C 	0.12530 0.85624 0.89750 0.44700
C 	C 	0.08170 0.77962 0.89100 -0.24200
C 	C 	0.17210 0.72685 0.85610 0.14600
H 	H 	0.26590 0.73860 0.84240 -0.00200
C 	C 	0.12370 0.65711 0.84160 -0.20900
H 	H 	0.18560 0.62200 0.81980 0.10400
C 	C 	0.98260 0.63908 0.85940 0.08700
C 	C 	0.89670 0.69132 0.90240 -0.16300
H 	H 	0.80490 0.67930 0.92040 0.11100
C 	C 	0.94570 0.76077 0.91890 0.18900
H 	H 	0.88730 0.79540 0.94890 0.00000
C 	C 	0.91590 0.56626 0.81080 0.30300
C 	C 	0.30420 0.06030 0.29680 -0.00800
H 	H 	0.25250 0.07460 0.37050 0.02700
C 	C 	0.46080 0.06920 0.32860 0.01000
H 	H 	0.53500 0.09070 0.42780 0.00700
Zn	Zn	0.00000 0.50000 0.50000 1.20600
Zn	Zn	-0.00000 0.00000 -0.00000 1.16900
