data_crystal

_cell_length_a 9.26700
_cell_length_b 19.04100
_cell_length_c 8.29200
_cell_angle_alpha 90.00000
_cell_angle_beta  111.16400
_cell_angle_gamma 90.00000

_symmetry_space_group_name_	'P 1'
_symmetry_space_group_name_H-M	'P 1'

loop_
_symmetry_equiv_pos_as_xyz
  x,y,z

loop_
_atom_site_label
_atom_site_type_symbol
_atom_site_fract_x
_atom_site_fract_y
_atom_site_fract_z
_atom_site_charge
Zn	Zn	0.30240 0.46983 0.83751 1.19500
O 	O 	0.06060 0.39720 0.97020 -0.47100
O 	O 	0.23280 0.37240 0.84080 -0.48200
O 	O 	0.78710 0.04960 0.83060 -0.44300
O 	O 	0.98170 0.02070 0.74730 -0.44900
N 	N 	0.23680 0.52910 0.13910 -0.21100
N 	N 	0.35140 0.51710 0.07680 -0.23300
N 	N 	0.48800 0.54170 0.19110 -0.23300
C 	C 	0.12860 0.35500 0.90440 0.40000
C 	C 	0.08750 0.27760 0.89930 -0.21100
C 	C 	0.95070 0.25880 0.93030 0.16300
H 	H 	0.89400 0.29310 0.96120 0.01200
C 	C 	0.90200 0.18880 0.91400 -0.13900
H 	H 	0.81340 0.17690 0.93560 0.10400
C 	C 	0.98390 0.13690 0.86600 0.08100
C 	C 	0.12570 0.15490 0.84570 -0.19900
H 	H 	0.18570 0.12000 0.82240 0.09000
C 	C 	0.17450 0.22460 0.86090 0.11600
H 	H 	0.26610 0.23600 0.84520 0.00600
C 	C 	0.91780 0.06440 0.81620 0.28700
C 	C 	0.30260 0.56070 0.29320 0.00300
H 	H 	0.25120 0.57450 0.36580 0.03000
C 	C 	0.45790 0.56930 0.32640 0.00700
H 	H 	0.52930 0.59020 0.42390 0.01500
Zn	Zn	0.69760 0.96983 0.66249 1.21100
O 	O 	0.93940 0.89720 0.52980 -0.40100
O 	O 	0.76720 0.87240 0.65920 -0.43900
O 	O 	0.21290 0.54960 0.66940 -0.45500
O 	O 	0.01830 0.52070 0.75270 -0.49300
N 	N 	0.76320 0.02910 0.36090 -0.19300
N 	N 	0.64860 0.01710 0.42320 -0.23100
N 	N 	0.51200 0.04170 0.30890 -0.24200
C 	C 	0.87140 0.85500 0.59560 0.31700
C 	C 	0.91250 0.77760 0.60070 0.08600
C 	C 	0.04930 0.75880 0.56970 -0.20300
H 	H 	0.10600 0.79310 0.53880 0.10000
C 	C 	0.09800 0.68880 0.58600 0.11700
H 	H 	0.18660 0.67690 0.56440 -0.00100
C 	C 	0.01610 0.63690 0.63400 -0.23000
C 	C 	0.87430 0.65490 0.65430 0.16400
H 	H 	0.81430 0.62000 0.67760 -0.00700
C 	C 	0.82550 0.72460 0.63910 -0.14300
H 	H 	0.73390 0.73600 0.65480 0.09800
C 	C 	0.08220 0.56440 0.68380 0.36400
C 	C 	0.69740 0.06070 0.20680 -0.00000
H 	H 	0.74880 0.07450 0.13420 0.02200
C 	C 	0.54210 0.06930 0.17360 -0.00500
H 	H 	0.47070 0.09020 0.07610 -0.01500
Zn	Zn	0.69760 0.53017 0.16249 1.18100
O 	O 	0.93940 0.60280 0.02980 -0.44100
O 	O 	0.76720 0.62760 0.15920 -0.46900
O 	O 	0.21290 0.95040 0.16940 -0.44800
O 	O 	0.01830 0.97930 0.25270 -0.47300
N 	N 	0.76320 0.47090 0.86090 -0.16700
N 	N 	0.64860 0.48290 0.92320 -0.19000
N 	N 	0.51200 0.45830 0.80890 -0.22000
C 	C 	0.87140 0.64500 0.09560 0.31400
C 	C 	0.91250 0.72240 0.10070 0.07100
C 	C 	0.04930 0.74120 0.06970 -0.21500
H 	H 	0.10600 0.70690 0.03880 0.08700
C 	C 	0.09800 0.81120 0.08600 0.10700
H 	H 	0.18660 0.82310 0.06440 -0.01400
C 	C 	0.01610 0.86310 0.13400 -0.23800
C 	C 	0.87430 0.84510 0.15430 0.14900
H 	H 	0.81430 0.88000 0.17760 -0.01100
C 	C 	0.82550 0.77540 0.13910 -0.14900
H 	H 	0.73390 0.76400 0.15480 0.08500
C 	C 	0.08220 0.93560 0.18380 0.35200
C 	C 	0.69740 0.43930 0.70680 0.01400
H 	H 	0.74880 0.42550 0.63420 0.04400
C 	C 	0.54210 0.43070 0.67360 0.01300
H 	H 	0.47070 0.40980 0.57610 0.00900
Zn	Zn	0.30240 0.03017 0.33751 1.16400
O 	O 	0.06060 0.10280 0.47020 -0.51800
O 	O 	0.23280 0.12760 0.34080 -0.51400
O 	O 	0.78710 0.45040 0.33060 -0.43500
O 	O 	0.98170 0.47930 0.24730 -0.43000
N 	N 	0.23680 0.97090 0.63910 -0.18000
N 	N 	0.35140 0.98290 0.57680 -0.19000
N 	N 	0.48800 0.95830 0.69110 -0.21100
C 	C 	0.12860 0.14500 0.40440 0.40100
C 	C 	0.08750 0.22240 0.39930 -0.24400
C 	C 	0.95070 0.24120 0.43030 0.17300
H 	H 	0.89400 0.20690 0.46120 -0.00600
C 	C 	0.90200 0.31120 0.41400 -0.16400
H 	H 	0.81340 0.32310 0.43560 0.09600
C 	C 	0.98390 0.36310 0.36600 0.08600
C 	C 	0.12570 0.34510 0.34570 -0.23000
H 	H 	0.18570 0.38000 0.32240 0.09000
C 	C 	0.17450 0.27540 0.36090 0.12200
H 	H 	0.26610 0.26400 0.34520 -0.01300
C 	C 	0.91780 0.43560 0.31620 0.27100
C 	C 	0.30260 0.93930 0.79320 0.01800
H 	H 	0.25120 0.92550 0.86580 0.05500
C 	C 	0.45790 0.93070 0.82640 0.02600
H 	H 	0.52930 0.90980 0.92390 0.03800
Zn	Zn	-0.00000 0.50000 -0.00000 1.17400
Zn	Zn	0.00000 0.00000 0.50000 1.17100
