data_crystal

_cell_length_a 11.08260
_cell_length_b 9.15040
_cell_length_c 19.49640
_cell_angle_alpha 93.72730
_cell_angle_beta  91.30880
_cell_angle_gamma 117.62100

_symmetry_space_group_name_	'P 1'
_symmetry_space_group_name_H-M	'P 1'

loop_
_symmetry_equiv_pos_as_xyz
  x,y,z

loop_
_atom_site_label
_atom_site_type_symbol
_atom_site_fract_x
_atom_site_fract_y
_atom_site_fract_z
_atom_site_charge
Zn	Zn	0.14548 0.70571 0.01183 1.12800
Zn	Zn	0.81628 0.26161 0.99107 1.11000
Zn	Zn	0.49276 0.98764 0.49133 1.15100
Zn	Zn	0.98965 0.00031 0.00431 1.08700
N 	N 	0.62603 0.21637 0.44357 -0.21000
N 	N 	0.58586 0.33365 0.46402 -0.11100
N 	N 	0.66852 0.47245 0.43417 -0.08600
C 	C 	0.73523 0.28094 0.40066 0.00000
H 	H 	0.78493 0.20821 0.37757 -0.00400
C 	C 	0.76211 0.44224 0.39486 -0.01000
H 	H 	0.84007 0.53727 0.36627 0.01700
N 	N 	0.88978 0.75496 0.98709 -0.28000
N 	N 	0.94486 0.65041 0.99572 -0.27800
N 	N 	0.84073 0.49231 0.98206 -0.28400
C 	C 	0.75018 0.66267 0.96840 -0.02800
H 	H 	0.68384 0.72084 0.95977 -0.04600
C 	C 	0.71891 0.49720 0.96506 -0.04900
H 	H 	0.62025 0.38340 0.95274 -0.06400
O 	O 	0.53502 0.94023 0.40052 -0.43700
O 	O 	0.68040 0.82050 0.38431 -0.27100
O 	O 	0.70734 0.21540 0.07054 -0.49500
O 	O 	0.80952 0.05076 0.04690 -0.57400
C 	C 	0.61657 0.90049 0.36368 0.27300
C 	C 	0.64311 0.94670 0.29089 0.00400
C 	C 	0.56293 0.01118 0.25996 -0.08600
H 	H 	0.48049 0.02392 0.29007 0.04800
C 	C 	0.58821 0.05709 0.19291 0.01500
H 	H 	0.52637 0.10746 0.16867 0.02200
C 	C 	0.69645 0.04013 0.15600 -0.14600
C 	C 	0.77607 0.97425 0.18620 0.05300
H 	H 	0.86209 0.96574 0.15693 0.01300
C 	C 	0.74956 0.92842 0.25326 -0.05500
H 	H 	0.81225 0.88006 0.27790 0.04500
C 	C 	0.73823 0.10243 0.08716 0.27000
O 	O 	0.07214 0.98376 0.09825 -0.41500
O 	O 	0.21164 0.85324 0.09363 -0.50500
O 	O 	0.25200 0.13895 0.45866 -0.27500
O 	O 	0.31126 0.92913 0.44895 -0.43100
C 	C 	0.14230 0.92265 0.12634 0.31100
C 	C 	0.15151 0.93102 0.20460 -0.03100
C 	C 	0.11347 0.03638 0.24840 -0.03500
H 	H 	0.06951 0.10786 0.22507 0.05300
C 	C 	0.13603 0.05322 0.32080 -0.05600
H 	H 	0.11222 0.13906 0.35565 0.05400
C 	C 	0.19848 0.96638 0.35031 0.02500
C 	C 	0.22751 0.85309 0.30682 -0.02900
H 	H 	0.27923 0.79047 0.33105 0.05500
C 	C 	0.20410 0.83529 0.23443 0.00100
H 	H 	0.23155 0.75180 0.19997 0.04100
C 	C 	0.25532 0.01073 0.42490 0.22000
N 	N 	0.08180 0.23378 0.04366 -0.23900
N 	N 	0.03995 0.34515 0.02646 -0.20800
N 	N 	0.14062 0.49990 0.05094 -0.24300
C 	C 	0.20888 0.31709 0.07964 -0.00900
H 	H 	0.26190 0.25103 0.09926 0.00300
C 	C 	0.24664 0.48517 0.08440 -0.01500
H 	H 	0.34017 0.59428 0.10844 0.00600
