data_crystal

_cell_length_a 9.10540
_cell_length_b 19.38000
_cell_length_c 8.30000
_cell_angle_alpha 90.00000
_cell_angle_beta  111.20000
_cell_angle_gamma 90.00000

_symmetry_space_group_name_	'P 1'
_symmetry_space_group_name_H-M	'P 1'

loop_
_symmetry_equiv_pos_as_xyz
  x,y,z

loop_
_atom_site_label
_atom_site_type_symbol
_atom_site_fract_x
_atom_site_fract_y
_atom_site_fract_z
_atom_site_charge
O 	O 	0.04542 0.39825 0.58092 -0.43400
O 	O 	0.20215 0.37694 0.85914 -0.22200
O 	O 	0.82363 0.04278 0.49214 -0.23100
O 	O 	0.00988 0.01899 0.74930 -0.43900
N 	N 	0.24753 0.53462 0.57603 -0.17400
N 	N 	0.34621 0.52074 0.73679 -0.03300
N 	N 	0.49069 0.54546 0.75927 -0.04400
C 	C 	0.10815 0.35836 0.70924 0.33900
C 	C 	0.07113 0.28081 0.68391 -0.16100
C 	C 	0.94784 0.25826 0.53776 0.09800
H 	H 	0.88310 0.29804 0.44432 0.03800
C 	C 	0.90911 0.18659 0.51424 -0.04900
H 	H 	0.81313 0.16863 0.40129 0.06100
C 	C 	0.99321 0.13649 0.63674 0.02700
C 	C 	0.11915 0.15898 0.77993 -0.09800
H 	H 	0.17999 0.11956 0.87620 0.06500
C 	C 	0.15782 0.23065 0.80396 0.04500
H 	H 	0.25212 0.24871 0.91846 0.04900
C 	C 	0.94128 0.06084 0.62615 0.36600
C 	C 	0.32999 0.56816 0.49500 0.02800
H 	H 	0.27682 0.58390 0.36203 0.04000
C 	C 	0.48175 0.57518 0.60924 0.02200
H 	H 	0.58222 0.59938 0.59451 0.04600
O 	O 	0.95458 0.89825 0.91908 -0.32000
O 	O 	0.79785 0.87694 0.64086 -0.18100
O 	O 	0.17637 0.54278 0.00786 -0.24100
O 	O 	0.99012 0.51899 0.75070 -0.30000
N 	N 	0.75247 0.03462 0.92397 -0.13000
N 	N 	0.65379 0.02074 0.76321 -0.04600
N 	N 	0.50931 0.04546 0.74073 -0.07300
C 	C 	0.89185 0.85836 0.79076 0.29600
C 	C 	0.92887 0.78081 0.81609 0.04700
C 	C 	0.05216 0.75826 0.96224 -0.09200
H 	H 	0.11690 0.79804 0.05568 0.03000
C 	C 	0.09089 0.68659 0.98576 0.08900
H 	H 	0.18687 0.66863 0.09871 0.00400
C 	C 	0.00679 0.63649 0.86326 -0.16500
C 	C 	0.88085 0.65898 0.72007 0.10900
H 	H 	0.82001 0.61956 0.62380 0.02200
C 	C 	0.84218 0.73065 0.69604 -0.06400
H 	H 	0.74788 0.74871 0.58154 0.07100
C 	C 	0.05872 0.56084 0.87385 0.30900
C 	C 	0.67001 0.06816 0.00500 -0.07100
H 	H 	0.72318 0.08390 0.13797 0.06100
C 	C 	0.51825 0.07518 0.89076 0.08300
H 	H 	0.41778 0.09938 0.90549 0.02700
O 	O 	0.95458 0.60175 0.41908 -0.36100
O 	O 	0.79785 0.62306 0.14086 -0.21400
O 	O 	0.17637 0.95722 0.50786 -0.17100
O 	O 	0.99012 0.98101 0.25070 -0.25900
N 	N 	0.75247 0.46538 0.42397 -0.15700
N 	N 	0.65379 0.47926 0.26321 -0.03900
N 	N 	0.50931 0.45454 0.24073 -0.05800
C 	C 	0.89185 0.64164 0.29076 0.29600
C 	C 	0.92887 0.71919 0.31609 0.04200
C 	C 	0.05216 0.74174 0.46224 -0.12200
H 	H 	0.11690 0.70196 0.55568 0.06100
C 	C 	0.09089 0.81341 0.48576 0.03900
H 	H 	0.18687 0.83137 0.59871 0.04100
C 	C 	0.00679 0.86351 0.36326 -0.14000
C 	C 	0.88085 0.84102 0.22007 0.09400
H 	H 	0.82001 0.88044 0.12380 0.02200
C 	C 	0.84218 0.76935 0.19604 -0.06500
H 	H 	0.74788 0.75129 0.08154 0.05900
C 	C 	0.05872 0.93916 0.37385 0.25300
C 	C 	0.67001 0.43184 0.50500 0.03300
H 	H 	0.72318 0.41610 0.63797 0.05200
C 	C 	0.51825 0.42482 0.39076 0.01900
H 	H 	0.41778 0.40062 0.40549 0.04100
O 	O 	0.04542 0.10175 0.08092 -0.46400
O 	O 	0.20215 0.12306 0.35914 -0.25300
O 	O 	0.82363 0.45722 0.99214 -0.16200
O 	O 	0.00988 0.48101 0.24930 -0.41300
N 	N 	0.24753 0.96538 0.07603 -0.19200
N 	N 	0.34621 0.97926 0.23679 -0.02500
N 	N 	0.49069 0.95454 0.25927 -0.02900
C 	C 	0.10815 0.14164 0.20924 0.33600
C 	C 	0.07113 0.21919 0.18391 -0.16600
C 	C 	0.94784 0.24174 0.03776 0.06600
H 	H 	0.88310 0.20196 0.94432 0.07100
C 	C 	0.90911 0.31341 0.01424 -0.09800
H 	H 	0.81313 0.33137 0.90129 0.09800
C 	C 	0.99321 0.36351 0.13674 0.05000
C 	C 	0.11915 0.34102 0.27993 -0.11400
H 	H 	0.17999 0.38044 0.37620 0.06300
C 	C 	0.15782 0.26935 0.30396 0.04300
H 	H 	0.25212 0.25129 0.41846 0.03700
C 	C 	0.94128 0.43916 0.12615 0.31500
C 	C 	0.32999 0.93184 0.99500 0.12400
H 	H 	0.27682 0.91610 0.86203 0.03300
C 	C 	0.48175 0.92482 0.10924 -0.03600
H 	H 	0.58222 0.90062 0.09451 0.06000
Zn	Zn	0.00000 0.50000 0.50000 1.20900
Zn	Zn	-0.00000 0.00000 -0.00000 1.17700
