data_crystal

_cell_length_a 16.21220
_cell_length_b 16.21220
_cell_length_c 16.06420
_cell_angle_alpha 90.00000
_cell_angle_beta  90.00000
_cell_angle_gamma 120.00000

_symmetry_space_group_name_	'P 1'
_symmetry_space_group_name_H-M	'P 1'

loop_
_symmetry_equiv_pos_as_xyz
  x,y,z

loop_
_atom_site_label
_atom_site_type_symbol
_atom_site_fract_x
_atom_site_fract_y
_atom_site_fract_z
_atom_site_charge
C 	C 	0.03364 0.44307 0.03188 0.18200
O 	O 	0.16931 0.65341 0.15827 -0.53000
O 	O 	0.06330 0.38340 0.05830 -0.32400
H 	H 	0.10680 0.41310 0.09640 0.23400
C 	C 	0.55693 0.59057 0.03188 0.18300
O 	O 	0.34659 0.51590 0.15827 -0.52900
O 	O 	0.61660 0.67990 0.05830 -0.32400
H 	H 	0.58690 0.69370 0.09640 0.23400
C 	C 	0.40943 0.96636 0.03188 0.18300
O 	O 	0.48410 0.83069 0.15827 -0.52900
O 	O 	0.32010 0.93670 0.05830 -0.32400
H 	H 	0.30630 0.89320 0.09640 0.23400
C 	C 	0.96636 0.55693 0.53188 0.18300
O 	O 	0.83069 0.34659 0.65827 -0.52900
O 	O 	0.93670 0.61660 0.55830 -0.32400
H 	H 	0.89320 0.58690 0.59640 0.23400
C 	C 	0.44307 0.40943 0.53188 0.18300
O 	O 	0.65341 0.48410 0.65827 -0.52900
O 	O 	0.38340 0.32010 0.55830 -0.32400
H 	H 	0.41310 0.30630 0.59640 0.23400
C 	C 	0.59057 0.03364 0.53188 0.18300
O 	O 	0.51590 0.16931 0.65827 -0.52900
O 	O 	0.67990 0.06330 0.55830 -0.32400
H 	H 	0.69370 0.10680 0.59640 0.23400
C 	C 	0.44307 0.03364 0.96812 0.18300
O 	O 	0.65341 0.16931 0.84173 -0.52900
O 	O 	0.38340 0.06330 0.94170 -0.32400
H 	H 	0.41310 0.10680 0.90360 0.23400
C 	C 	0.59057 0.55693 0.96812 0.18300
O 	O 	0.51590 0.34659 0.84173 -0.52900
O 	O 	0.67990 0.61660 0.94170 -0.32400
H 	H 	0.69370 0.58690 0.90360 0.23400
C 	C 	0.96636 0.40943 0.96812 0.18300
O 	O 	0.83069 0.48410 0.84173 -0.52900
O 	O 	0.93670 0.32010 0.94170 -0.32400
H 	H 	0.89320 0.30630 0.90360 0.23400
C 	C 	0.55693 0.96636 0.46812 0.18300
O 	O 	0.34659 0.83069 0.34173 -0.52900
O 	O 	0.61660 0.93670 0.44170 -0.32400
H 	H 	0.58690 0.89320 0.40360 0.23400
C 	C 	0.40943 0.44307 0.46812 0.18300
O 	O 	0.48410 0.65341 0.34173 -0.52900
O 	O 	0.32010 0.38340 0.44170 -0.32400
H 	H 	0.30630 0.41310 0.40360 0.23400
C 	C 	0.03364 0.59057 0.46812 0.18300
O 	O 	0.16931 0.51590 0.34173 -0.52900
O 	O 	0.06330 0.67990 0.44170 -0.32400
H 	H 	0.10680 0.69370 0.40360 0.23400
C 	C 	0.96636 0.55693 0.96812 0.18300
O 	O 	0.83069 0.34659 0.84173 -0.52900
O 	O 	0.93670 0.61660 0.94170 -0.32400
H 	H 	0.89320 0.58690 0.90360 0.23400
C 	C 	0.44307 0.40943 0.96812 0.18300
O 	O 	0.65341 0.48410 0.84173 -0.52900
O 	O 	0.38340 0.32010 0.94170 -0.32400
H 	H 	0.41310 0.30630 0.90360 0.23400
C 	C 	0.59057 0.03364 0.96812 0.18300
O 	O 	0.51590 0.16931 0.84173 -0.52900
O 	O 	0.67990 0.06330 0.94170 -0.32400
H 	H 	0.69370 0.10680 0.90360 0.23400
C 	C 	0.03364 0.44307 0.46812 0.18300
O 	O 	0.16931 0.65341 0.34173 -0.52900
O 	O 	0.06330 0.38340 0.44170 -0.32400
H 	H 	0.10680 0.41310 0.40360 0.23400
C 	C 	0.55693 0.59057 0.46812 0.18300
O 	O 	0.34659 0.51590 0.34173 -0.52900
O 	O 	0.61660 0.67990 0.44170 -0.32400
H 	H 	0.58690 0.69370 0.40360 0.23400
C 	C 	0.40943 0.96636 0.46812 0.18300
O 	O 	0.48410 0.83069 0.34173 -0.52900
O 	O 	0.32010 0.93670 0.44170 -0.32400
H 	H 	0.30630 0.89320 0.40360 0.23400
C 	C 	0.55693 0.96636 0.03188 0.18300
O 	O 	0.34659 0.83069 0.15827 -0.52900
O 	O 	0.61660 0.93670 0.05830 -0.32400
H 	H 	0.58690 0.89320 0.09640 0.23400
C 	C 	0.40943 0.44307 0.03188 0.18300
O 	O 	0.48410 0.65341 0.15827 -0.52900
O 	O 	0.32010 0.38340 0.05830 -0.32400
H 	H 	0.30630 0.41310 0.09640 0.23400
C 	C 	0.03364 0.59057 0.03188 0.18300
O 	O 	0.16931 0.51590 0.15827 -0.52900
O 	O 	0.06330 0.67990 0.05830 -0.32400
H 	H 	0.10680 0.69370 0.09640 0.23400
C 	C 	0.44307 0.03364 0.53188 0.18300
O 	O 	0.65341 0.16931 0.65827 -0.52900
O 	O 	0.38340 0.06330 0.55830 -0.32400
H 	H 	0.41310 0.10680 0.59640 0.23400
C 	C 	0.59057 0.55693 0.53188 0.18300
O 	O 	0.51590 0.34659 0.65827 -0.52900
O 	O 	0.67990 0.61660 0.55830 -0.32400
H 	H 	0.69370 0.58690 0.59640 0.23400
C 	C 	0.96636 0.40943 0.53188 0.18300
O 	O 	0.83069 0.48410 0.65827 -0.52900
O 	O 	0.93670 0.32010 0.55830 -0.32400
H 	H 	0.89320 0.30630 0.59640 0.23400
Mg	Mg	0.26181 0.73819 0.25000 1.47400
Mg	Mg	0.26181 0.52362 0.25000 1.47400
Mg	Mg	0.47638 0.73819 0.25000 1.47400
Mg	Mg	0.73819 0.26181 0.75000 1.47400
Mg	Mg	0.73819 0.47638 0.75000 1.47400
Mg	Mg	0.52362 0.26181 0.75000 1.47400
C 	C 	0.06880 0.53440 0.06374 -0.23800
C 	C 	0.14200 0.57100 0.13133 0.49800
C 	C 	0.46560 0.53440 0.06374 -0.23800
C 	C 	0.42900 0.57100 0.13133 0.49800
C 	C 	0.46560 0.93120 0.06374 -0.23800
C 	C 	0.42900 0.85800 0.13133 0.49800
C 	C 	0.93120 0.46560 0.56374 -0.23800
C 	C 	0.85800 0.42900 0.63133 0.49800
C 	C 	0.53440 0.46560 0.56374 -0.23800
C 	C 	0.57100 0.42900 0.63133 0.49800
C 	C 	0.53440 0.06880 0.56374 -0.23800
C 	C 	0.57100 0.14200 0.63133 0.49800
C 	C 	0.53440 0.06880 0.93626 -0.23800
C 	C 	0.57100 0.14200 0.86867 0.49800
C 	C 	0.53440 0.46560 0.93626 -0.23800
C 	C 	0.57100 0.42900 0.86867 0.49800
C 	C 	0.93120 0.46560 0.93626 -0.23800
C 	C 	0.85800 0.42900 0.86867 0.49800
C 	C 	0.46560 0.93120 0.43626 -0.23800
C 	C 	0.42900 0.85800 0.36867 0.49800
C 	C 	0.46560 0.53440 0.43626 -0.23800
C 	C 	0.42900 0.57100 0.36867 0.49800
C 	C 	0.06880 0.53440 0.43626 -0.23800
C 	C 	0.14200 0.57100 0.36867 0.49800
O 	O 	0.33333 0.66667 0.25000 -0.74900
O 	O 	0.66667 0.33333 0.75000 -0.74900
