data_crystal

_cell_length_a 15.94230
_cell_length_b 15.94230
_cell_length_c 16.04110
_cell_angle_alpha 90.00000
_cell_angle_beta  90.00000
_cell_angle_gamma 120.00000

_symmetry_space_group_name_	'P 1'
_symmetry_space_group_name_H-M	'P 1'

loop_
_symmetry_equiv_pos_as_xyz
  x,y,z

loop_
_atom_site_label
_atom_site_type_symbol
_atom_site_fract_x
_atom_site_fract_y
_atom_site_fract_z
_atom_site_charge
O 	O 	0.16989 0.51547 0.34002 -0.53600
O 	O 	0.05460 0.37560 0.43650 -0.36500
H 	H 	0.09480 0.40070 0.39930 0.26800
C 	C 	0.03350 0.44130 0.46813 0.19600
O 	O 	0.48453 0.65442 0.34002 -0.53600
O 	O 	0.62440 0.67900 0.43650 -0.36500
H 	H 	0.59930 0.69410 0.39930 0.26800
C 	C 	0.55870 0.59220 0.46813 0.19600
O 	O 	0.34558 0.83011 0.34002 -0.53600
O 	O 	0.32100 0.94540 0.43650 -0.36500
H 	H 	0.30590 0.90520 0.39930 0.26800
C 	C 	0.40780 0.96650 0.46813 0.19600
O 	O 	0.83011 0.48453 0.84002 -0.53600
O 	O 	0.94540 0.62440 0.93650 -0.36500
H 	H 	0.90520 0.59930 0.89930 0.26800
C 	C 	0.96650 0.55870 0.96813 0.19600
O 	O 	0.51547 0.34558 0.84002 -0.53600
O 	O 	0.37560 0.32100 0.93650 -0.36500
H 	H 	0.40070 0.30590 0.89930 0.26800
C 	C 	0.44130 0.40780 0.96813 0.19600
O 	O 	0.65442 0.16989 0.84002 -0.53600
O 	O 	0.67900 0.05460 0.93650 -0.36500
H 	H 	0.69410 0.09480 0.89930 0.26800
C 	C 	0.59220 0.03350 0.96813 0.19600
O 	O 	0.51547 0.16989 0.65998 -0.53600
O 	O 	0.37560 0.05460 0.56350 -0.36500
H 	H 	0.40070 0.09480 0.60070 0.26800
C 	C 	0.44130 0.03350 0.53187 0.19600
O 	O 	0.65442 0.48453 0.65998 -0.53600
O 	O 	0.67900 0.62440 0.56350 -0.36500
H 	H 	0.69410 0.59930 0.60070 0.26800
C 	C 	0.59220 0.55870 0.53187 0.19600
O 	O 	0.83011 0.34558 0.65998 -0.53600
O 	O 	0.94540 0.32100 0.56350 -0.36500
H 	H 	0.90520 0.30590 0.60070 0.26800
C 	C 	0.96650 0.40780 0.53187 0.19600
O 	O 	0.48453 0.83011 0.15998 -0.53600
O 	O 	0.62440 0.94540 0.06350 -0.36500
H 	H 	0.59930 0.90520 0.10070 0.26800
C 	C 	0.55870 0.96650 0.03187 0.19600
O 	O 	0.34558 0.51547 0.15998 -0.53600
O 	O 	0.32100 0.37560 0.06350 -0.36500
H 	H 	0.30590 0.40070 0.10070 0.26800
C 	C 	0.40780 0.44130 0.03187 0.19600
O 	O 	0.16989 0.65442 0.15998 -0.53600
O 	O 	0.05460 0.67900 0.06350 -0.36500
H 	H 	0.09480 0.69410 0.10070 0.26800
C 	C 	0.03350 0.59220 0.03187 0.19600
O 	O 	0.83011 0.48453 0.65998 -0.53600
O 	O 	0.94540 0.62440 0.56350 -0.36500
H 	H 	0.90520 0.59930 0.60070 0.26800
C 	C 	0.96650 0.55870 0.53187 0.19600
O 	O 	0.51547 0.34558 0.65998 -0.53600
O 	O 	0.37560 0.32100 0.56350 -0.36500
H 	H 	0.40070 0.30590 0.60070 0.26800
C 	C 	0.44130 0.40780 0.53187 0.19600
O 	O 	0.65442 0.16989 0.65998 -0.53600
O 	O 	0.67900 0.05460 0.56350 -0.36500
H 	H 	0.69410 0.09480 0.60070 0.26800
C 	C 	0.59220 0.03350 0.53187 0.19600
O 	O 	0.16989 0.51547 0.15998 -0.53600
O 	O 	0.05460 0.37560 0.06350 -0.36500
H 	H 	0.09480 0.40070 0.10070 0.26800
C 	C 	0.03350 0.44130 0.03187 0.19600
O 	O 	0.48453 0.65442 0.15998 -0.53600
O 	O 	0.62440 0.67900 0.06350 -0.36500
H 	H 	0.59930 0.69410 0.10070 0.26800
C 	C 	0.55870 0.59220 0.03187 0.19600
O 	O 	0.34558 0.83011 0.15998 -0.53600
O 	O 	0.32100 0.94540 0.06350 -0.36500
H 	H 	0.30590 0.90520 0.10070 0.26800
C 	C 	0.40780 0.96650 0.03187 0.19600
O 	O 	0.48453 0.83011 0.34002 -0.53600
O 	O 	0.62440 0.94540 0.43650 -0.36500
H 	H 	0.59930 0.90520 0.39930 0.26800
C 	C 	0.55870 0.96650 0.46813 0.19600
O 	O 	0.34558 0.51547 0.34002 -0.53600
O 	O 	0.32100 0.37560 0.43650 -0.36500
H 	H 	0.30590 0.40070 0.39930 0.26800
C 	C 	0.40780 0.44130 0.46813 0.19600
O 	O 	0.16989 0.65442 0.34002 -0.53600
O 	O 	0.05460 0.67900 0.43650 -0.36500
H 	H 	0.09480 0.69410 0.39930 0.26800
C 	C 	0.03350 0.59220 0.46813 0.19600
O 	O 	0.51547 0.16989 0.84002 -0.53600
O 	O 	0.37560 0.05460 0.93650 -0.36500
H 	H 	0.40070 0.09480 0.89930 0.26800
C 	C 	0.44130 0.03350 0.96813 0.19600
O 	O 	0.65442 0.48453 0.84002 -0.53600
O 	O 	0.67900 0.62440 0.93650 -0.36500
H 	H 	0.69410 0.59930 0.89930 0.26800
C 	C 	0.59220 0.55870 0.96813 0.19600
O 	O 	0.83011 0.34558 0.84002 -0.53600
O 	O 	0.94540 0.32100 0.93650 -0.36500
H 	H 	0.90520 0.30590 0.89930 0.26800
C 	C 	0.96650 0.40780 0.96813 0.19600
Mg	Mg	0.26183 0.52365 0.25000 1.47800
Mg	Mg	0.47635 0.73818 0.25000 1.47800
Mg	Mg	0.26183 0.73818 0.25000 1.47800
Mg	Mg	0.73817 0.47635 0.75000 1.47800
Mg	Mg	0.52365 0.26183 0.75000 1.47800
Mg	Mg	0.73817 0.26183 0.75000 1.47800
O 	O 	0.33333 0.66667 0.25000 -0.75600
O 	O 	0.66667 0.33333 0.75000 -0.75600
C 	C 	0.06920 0.53460 0.43550 -0.25300
C 	C 	0.14110 0.57055 0.36750 0.51400
C 	C 	0.46540 0.53460 0.43550 -0.25300
C 	C 	0.42945 0.57055 0.36750 0.51400
C 	C 	0.46540 0.93080 0.43550 -0.25300
C 	C 	0.42945 0.85890 0.36750 0.51400
C 	C 	0.93080 0.46540 0.93550 -0.25300
C 	C 	0.85890 0.42945 0.86750 0.51400
C 	C 	0.53460 0.46540 0.93550 -0.25300
C 	C 	0.57055 0.42945 0.86750 0.51400
C 	C 	0.53460 0.06920 0.93550 -0.25300
C 	C 	0.57055 0.14110 0.86750 0.51400
C 	C 	0.53460 0.06920 0.56450 -0.25300
C 	C 	0.57055 0.14110 0.63250 0.51400
C 	C 	0.53460 0.46540 0.56450 -0.25300
C 	C 	0.57055 0.42945 0.63250 0.51400
C 	C 	0.93080 0.46540 0.56450 -0.25300
C 	C 	0.85890 0.42945 0.63250 0.51400
C 	C 	0.46540 0.93080 0.06450 -0.25300
C 	C 	0.42945 0.85890 0.13250 0.51400
C 	C 	0.46540 0.53460 0.06450 -0.25300
C 	C 	0.42945 0.57055 0.13250 0.51400
C 	C 	0.06920 0.53460 0.06450 -0.25300
C 	C 	0.14110 0.57055 0.13250 0.51400
