data_crystal

_cell_length_a 11.80550
_cell_length_b 15.26680
_cell_length_c 17.06910
_cell_angle_alpha 90.00000
_cell_angle_beta  90.00000
_cell_angle_gamma 92.45200

_symmetry_space_group_name_	'P 1'
_symmetry_space_group_name_H-M	'P 1'

loop_
_symmetry_equiv_pos_as_xyz
  x,y,z

loop_
_atom_site_label
_atom_site_type_symbol
_atom_site_fract_x
_atom_site_fract_y
_atom_site_fract_z
_atom_site_charge
Cd	Cd	0.30332 0.27177 0.87901 1.21900
Cd	Cd	0.56699 0.19389 0.82545 1.21900
Cd	Cd	0.74489 0.99161 0.69120 1.22300
Cd	Cd	0.19668 0.22823 0.37901 1.21900
Cd	Cd	0.93301 0.30611 0.32545 1.21900
Cd	Cd	0.75511 0.50839 0.19120 1.22300
Cd	Cd	0.69668 0.72823 0.12099 1.21900
Cd	Cd	0.43301 0.80611 0.17455 1.21900
Cd	Cd	0.25511 0.00839 0.30880 1.22200
Cd	Cd	0.80332 0.77177 0.62099 1.21800
Cd	Cd	0.06699 0.69389 0.67455 1.21800
Cd	Cd	0.24489 0.49161 0.80880 1.22200
H 	H 	0.65660 0.39150 0.82410 0.10700
H 	H 	0.56930 0.43120 0.93890 0.00700
H 	H 	0.54750 0.52460 0.90530 0.01100
H 	H 	0.91300 0.14800 0.69480 0.08900
H 	H 	0.92010 0.32990 0.73470 0.01800
H 	H 	0.96530 0.25610 0.78920 0.00500
H 	H 	0.10800 0.22580 0.69950 0.10700
H 	H 	0.03020 0.35950 0.60080 0.01900
H 	H 	0.12990 0.29860 0.58160 0.00600
H 	H 	0.61240 0.55880 0.76000 0.02300
H 	H 	0.66950 0.48320 0.71400 0.01200
H 	H 	0.82700 0.49160 0.79900 0.10100
H 	H 	0.72280 0.63050 0.87690 0.01300
H 	H 	0.84380 0.59810 0.89710 0.00000
H 	H 	0.76490 0.46070 0.93600 0.10700
H 	H 	0.81360 0.18370 0.58170 0.01700
H 	H 	0.82370 0.28360 0.60370 0.02200
H 	H 	0.00710 0.17910 0.56750 0.10400
H 	H 	0.84340 0.10850 0.32410 0.10700
H 	H 	0.93070 0.06880 0.43890 0.00600
H 	H 	0.95250 0.97540 0.40530 0.01000
H 	H 	0.58700 0.35200 0.19480 0.08900
H 	H 	0.57990 0.17010 0.23470 0.01700
H 	H 	0.53470 0.24390 0.28920 0.00500
H 	H 	0.39200 0.27420 0.19950 0.10700
H 	H 	0.46980 0.14050 0.10080 0.01800
H 	H 	0.37010 0.20140 0.08160 0.00500
H 	H 	0.88760 0.94120 0.26000 0.02200
H 	H 	0.83050 0.01680 0.21400 0.01200
H 	H 	0.67300 0.00840 0.29900 0.10100
H 	H 	0.77720 0.86950 0.37690 0.01300
H 	H 	0.65620 0.90190 0.39710 -0.00100
H 	H 	0.73510 0.03930 0.43600 0.10700
H 	H 	0.68640 0.31630 0.08170 0.01600
H 	H 	0.67630 0.21640 0.10370 0.02100
H 	H 	0.49290 0.32090 0.06750 0.10500
H 	H 	0.34340 0.60850 0.17590 0.10700
H 	H 	0.43070 0.56880 0.06110 0.00700
H 	H 	0.45250 0.47540 0.09470 0.01100
H 	H 	0.08700 0.85200 0.30520 0.08900
H 	H 	0.07990 0.67010 0.26530 0.01800
H 	H 	0.03470 0.74390 0.21080 0.00500
H 	H 	0.89200 0.77420 0.30050 0.10700
H 	H 	0.96980 0.64050 0.39920 0.01900
H 	H 	0.87010 0.70140 0.41840 0.00600
H 	H 	0.38760 0.44120 0.24000 0.02300
H 	H 	0.33050 0.51680 0.28600 0.01200
H 	H 	0.17300 0.50840 0.20100 0.10100
H 	H 	0.27720 0.36950 0.12310 0.01300
H 	H 	0.15620 0.40190 0.10290 0.00000
H 	H 	0.23510 0.53930 0.06400 0.10700
H 	H 	0.18640 0.81630 0.41830 0.01700
H 	H 	0.17630 0.71640 0.39630 0.02200
H 	H 	0.99290 0.82090 0.43250 0.10400
H 	H 	0.15660 0.89150 0.67590 0.10700
H 	H 	0.06930 0.93120 0.56110 0.00600
H 	H 	0.04750 0.02460 0.59470 0.01000
H 	H 	0.41300 0.64800 0.80520 0.08900
H 	H 	0.42010 0.82990 0.76530 0.01700
H 	H 	0.46530 0.75610 0.71080 0.00500
H 	H 	0.60800 0.72580 0.80050 0.10700
H 	H 	0.53020 0.85950 0.89920 0.01800
H 	H 	0.62990 0.79860 0.91840 0.00500
H 	H 	0.11240 0.05880 0.74000 0.02200
H 	H 	0.16950 0.98320 0.78600 0.01200
H 	H 	0.32700 0.99160 0.70100 0.10100
H 	H 	0.22280 0.13050 0.62310 0.01300
H 	H 	0.34380 0.09810 0.60290 -0.00100
H 	H 	0.26490 0.96070 0.56400 0.10700
H 	H 	0.31360 0.68370 0.91830 0.01600
H 	H 	0.32370 0.78360 0.89630 0.02100
H 	H 	0.50710 0.67910 0.93250 0.10500
C 	C 	0.48830 0.40890 0.79820 0.40400
C 	C 	0.60810 0.44200 0.82270 -0.24200
C 	C 	0.59950 0.47710 0.90460 0.07100
C 	C 	0.76360 0.19500 0.73690 0.39300
C 	C 	0.87670 0.20450 0.69270 -0.23500
C 	C 	0.95500 0.27350 0.73510 0.06100
C 	C 	0.07050 0.28150 0.69380 -0.24300
C 	C 	0.05650 0.30060 0.60680 0.06700
C 	C 	0.66130 0.50970 0.76520 0.06500
C 	C 	0.77850 0.54210 0.79630 -0.23700
C 	C 	0.83710 0.61150 0.74350 0.42000
C 	C 	0.76900 0.57950 0.87830 0.06700
C 	C 	0.71540 0.51070 0.93520 -0.24400
C 	C 	0.70610 0.54310 0.01840 0.42500
C 	C 	0.86130 0.22850 0.60720 0.05500
C 	C 	0.14100 0.35230 0.73500 0.39400
C 	C 	0.97410 0.23680 0.56570 -0.22300
C 	C 	0.96140 0.26070 0.47920 0.37000
C 	C 	0.01170 0.09110 0.29820 0.40500
C 	C 	0.89190 0.05800 0.32270 -0.24400
C 	C 	0.90050 0.02290 0.40460 0.07500
C 	C 	0.73640 0.30500 0.23690 0.39300
C 	C 	0.62330 0.29550 0.19270 -0.23500
C 	C 	0.54500 0.22650 0.23510 0.06000
C 	C 	0.42950 0.21850 0.19380 -0.24300
C 	C 	0.44350 0.19940 0.10680 0.06900
C 	C 	0.83870 0.99030 0.26520 0.06700
C 	C 	0.72150 0.95790 0.29630 -0.23800
C 	C 	0.66290 0.88850 0.24350 0.42100
C 	C 	0.73100 0.92050 0.37830 0.06900
C 	C 	0.78460 0.98930 0.43520 -0.24700
C 	C 	0.79390 0.95690 0.51840 0.42600
C 	C 	0.63870 0.27150 0.10720 0.05800
C 	C 	0.35900 0.14770 0.23500 0.39400
C 	C 	0.52590 0.26320 0.06570 -0.22700
C 	C 	0.53860 0.23930 0.97920 0.37100
C 	C 	0.51170 0.59110 0.20180 0.40400
C 	C 	0.39190 0.55800 0.17730 -0.24200
C 	C 	0.40050 0.52290 0.09540 0.07100
C 	C 	0.23640 0.80500 0.26310 0.39300
C 	C 	0.12330 0.79550 0.30730 -0.23500
C 	C 	0.04500 0.72650 0.26490 0.06100
C 	C 	0.92950 0.71850 0.30620 -0.24300
C 	C 	0.94350 0.69940 0.39320 0.06700
C 	C 	0.33870 0.49030 0.23480 0.06500
C 	C 	0.22150 0.45790 0.20370 -0.23700
C 	C 	0.16290 0.38850 0.25650 0.42000
C 	C 	0.23100 0.42050 0.12170 0.06700
C 	C 	0.28460 0.48930 0.06480 -0.24400
C 	C 	0.29390 0.45690 0.98160 0.42500
C 	C 	0.13870 0.77150 0.39280 0.05500
C 	C 	0.85900 0.64770 0.26500 0.39400
C 	C 	0.02590 0.76320 0.43430 -0.22300
C 	C 	0.03860 0.73930 0.52080 0.37000
C 	C 	0.98830 0.90890 0.70180 0.40500
C 	C 	0.10810 0.94200 0.67730 -0.24400
C 	C 	0.09950 0.97710 0.59540 0.07500
C 	C 	0.26360 0.69500 0.76310 0.39300
C 	C 	0.37670 0.70450 0.80730 -0.23500
C 	C 	0.45500 0.77350 0.76490 0.06000
C 	C 	0.57050 0.78150 0.80620 -0.24300
C 	C 	0.55650 0.80060 0.89320 0.06900
C 	C 	0.16130 0.00970 0.73480 0.06700
C 	C 	0.27850 0.04210 0.70370 -0.23800
C 	C 	0.33710 0.11150 0.75650 0.42100
C 	C 	0.26900 0.07950 0.62170 0.06900
C 	C 	0.21540 0.01070 0.56480 -0.24700
C 	C 	0.20610 0.04310 0.48160 0.42600
C 	C 	0.36130 0.72850 0.89280 0.05800
C 	C 	0.64100 0.85230 0.76500 0.39400
C 	C 	0.47410 0.73680 0.93430 -0.22700
C 	C 	0.46140 0.76070 0.02080 0.37100
O 	O 	0.45980 0.32830 0.80910 -0.52900
O 	O 	0.71630 0.26070 0.75860 -0.42700
O 	O 	0.72010 0.11990 0.74920 -0.54000
O 	O 	0.42330 0.46570 0.77340 -0.44600
O 	O 	0.77940 0.65350 0.69780 -0.47900
O 	O 	0.94240 0.62360 0.75400 -0.47600
O 	O 	0.69700 0.62280 0.02990 -0.49100
O 	O 	0.70480 0.48430 0.06940 -0.48200
O 	O 	0.17350 0.34020 0.80360 -0.55300
O 	O 	0.16240 0.42450 0.70130 -0.43100
O 	O 	0.04940 0.29070 0.44300 -0.52300
O 	O 	0.86860 0.25230 0.44520 -0.41900
O 	O 	0.04020 0.17170 0.30910 -0.52900
O 	O 	0.78370 0.23930 0.25860 -0.42700
O 	O 	0.77990 0.38010 0.24920 -0.54000
O 	O 	0.07670 0.03430 0.27340 -0.44600
O 	O 	0.72060 0.84650 0.19780 -0.47900
O 	O 	0.55760 0.87640 0.25400 -0.47700
O 	O 	0.80300 0.87720 0.52990 -0.49100
O 	O 	0.79520 0.01570 0.56940 -0.48100
O 	O 	0.32650 0.15980 0.30360 -0.55200
O 	O 	0.33760 0.07550 0.20130 -0.43100
O 	O 	0.45060 0.20930 0.94300 -0.52300
O 	O 	0.63140 0.24770 0.94520 -0.41800
O 	O 	0.54020 0.67170 0.19090 -0.52900
O 	O 	0.28370 0.73930 0.24140 -0.42700
O 	O 	0.27990 0.88010 0.25080 -0.54000
O 	O 	0.57670 0.53430 0.22660 -0.44600
O 	O 	0.22060 0.34650 0.30220 -0.47900
O 	O 	0.05760 0.37640 0.24600 -0.47600
O 	O 	0.30300 0.37720 0.97010 -0.49100
O 	O 	0.29520 0.51570 0.93060 -0.48200
O 	O 	0.82650 0.65980 0.19640 -0.55300
O 	O 	0.83760 0.57550 0.29870 -0.43100
O 	O 	0.95060 0.70930 0.55700 -0.52300
O 	O 	0.13140 0.74770 0.55480 -0.41900
O 	O 	0.95980 0.82830 0.69090 -0.52900
O 	O 	0.21630 0.76070 0.74140 -0.42700
O 	O 	0.22010 0.61990 0.75080 -0.54000
O 	O 	0.92330 0.96570 0.72660 -0.44600
O 	O 	0.27940 0.15350 0.80220 -0.47900
O 	O 	0.44240 0.12360 0.74600 -0.47700
O 	O 	0.19700 0.12280 0.47010 -0.49100
O 	O 	0.20480 0.98430 0.43060 -0.48100
O 	O 	0.67350 0.84020 0.69640 -0.55200
O 	O 	0.66240 0.92450 0.79870 -0.43100
O 	O 	0.54940 0.79070 0.05700 -0.52300
O 	O 	0.36860 0.75230 0.05480 -0.41800
