data_crystal

_cell_length_a 9.04390
_cell_length_b 16.69500
_cell_length_c 26.52300
_cell_angle_alpha 90.00000
_cell_angle_beta  90.00000
_cell_angle_gamma 90.00000

_symmetry_space_group_name_	'P 1'
_symmetry_space_group_name_H-M	'P 1'

loop_
_symmetry_equiv_pos_as_xyz
  x,y,z

loop_
_atom_site_label
_atom_site_type_symbol
_atom_site_fract_x
_atom_site_fract_y
_atom_site_fract_z
_atom_site_charge
Cd	Cd	0.02251 0.58963 0.88987 1.24800
Cd	Cd	0.47453 0.02527 0.02191 1.17000
Cd	Cd	0.47792 0.12774 0.75529 1.20900
Cd	Cd	0.47749 0.08963 0.88987 1.24900
Cd	Cd	0.02547 0.52527 0.02191 1.16900
Cd	Cd	0.02208 0.62774 0.75529 1.20700
H 	H 	0.38140 0.38910 0.89260 0.10400
H 	H 	0.50310 0.47320 0.97650 0.02500
H 	H 	0.50650 0.50500 0.92080 0.02100
H 	H 	0.66490 0.39810 0.89700 0.11600
H 	H 	0.75320 0.30810 0.95930 -0.01900
H 	H 	0.65840 0.35140 0.00070 -0.04200
H 	H 	0.53950 0.26430 0.91810 0.11200
H 	H 	0.29960 0.29360 0.95000 0.01500
H 	H 	0.36740 0.34220 0.99510 0.04000
H 	H 	0.65470 0.77440 0.87120 0.10700
H 	H 	0.50740 0.70260 0.78780 0.01800
H 	H 	0.50570 0.66740 0.84270 0.01600
H 	H 	0.38120 0.78180 0.87220 0.10800
H 	H 	0.30060 0.88050 0.81680 0.00600
H 	H 	0.37480 0.83570 0.77130 0.01900
H 	H 	0.53110 0.90100 0.85400 0.10500
H 	H 	0.74800 0.86810 0.81470 0.00600
H 	H 	0.66050 0.82770 0.77050 0.02600
H 	H 	0.54170 0.02220 0.65360 -0.00100
H 	H 	0.40620 0.07430 0.63670 -0.00900
H 	H 	0.40950 0.21640 0.64900 0.01400
H 	H 	0.55050 0.25710 0.67210 0.01700
H 	H 	0.76370 0.08910 0.68920 0.03200
H 	H 	0.76020 0.18260 0.69570 0.03900
H 	H 	0.78030 0.23030 0.56870 0.03200
H 	H 	0.77110 0.26740 0.62290 0.02600
H 	H 	0.78100 0.08880 0.55880 0.01800
H 	H 	0.77320 0.03310 0.60620 0.00400
H 	H 	0.42330 0.15950 0.56490 0.03000
H 	H 	0.57000 0.16480 0.53360 0.03300
H 	H 	0.11860 0.88910 0.89260 0.10300
H 	H 	0.99690 0.97320 0.97650 0.02500
H 	H 	0.99350 0.00500 0.92080 0.02200
H 	H 	0.83510 0.89810 0.89700 0.11500
H 	H 	0.74680 0.80810 0.95930 -0.01800
H 	H 	0.84160 0.85140 0.00070 -0.03800
H 	H 	0.96050 0.76430 0.91810 0.11100
H 	H 	0.20040 0.79360 0.95000 0.01600
H 	H 	0.13260 0.84220 0.99510 0.04000
H 	H 	0.84530 0.27440 0.87120 0.10800
H 	H 	0.99260 0.20260 0.78780 0.01800
H 	H 	0.99430 0.16740 0.84270 0.01600
H 	H 	0.11880 0.28180 0.87220 0.10800
H 	H 	0.19940 0.38050 0.81680 0.00700
H 	H 	0.12520 0.33570 0.77130 0.01900
H 	H 	0.96890 0.40100 0.85400 0.10700
H 	H 	0.75200 0.36810 0.81470 0.00500
H 	H 	0.83950 0.32770 0.77050 0.02600
H 	H 	0.95830 0.52220 0.65360 -0.00200
H 	H 	0.09380 0.57430 0.63670 -0.01000
H 	H 	0.09050 0.71640 0.64900 0.01200
H 	H 	0.94950 0.75710 0.67210 0.01700
H 	H 	0.73630 0.58910 0.68920 0.03200
H 	H 	0.73980 0.68260 0.69570 0.03900
H 	H 	0.71970 0.73030 0.56870 0.03200
H 	H 	0.72890 0.76740 0.62290 0.02600
H 	H 	0.71900 0.58880 0.55880 0.01900
H 	H 	0.72680 0.53310 0.60620 0.00400
H 	H 	0.07670 0.65950 0.56490 0.03100
H 	H 	0.93000 0.66480 0.53360 0.03300
C 	C 	0.24130 0.45480 0.93780 0.38700
C 	C 	0.37700 0.40360 0.92830 -0.22700
C 	C 	0.50960 0.45710 0.94140 0.06000
C 	C 	0.65780 0.41330 0.93260 -0.26400
C 	C 	0.66160 0.33670 0.96540 0.18800
C 	C 	0.53110 0.28250 0.95310 -0.28700
C 	C 	0.38060 0.32830 0.95990 0.06500
C 	C 	0.78470 0.46820 0.94550 0.42200
C 	C 	0.52900 0.21000 0.98770 0.48200
C 	C 	0.78730 0.70460 0.82630 0.42800
C 	C 	0.65590 0.76100 0.83520 -0.23600
C 	C 	0.51010 0.71650 0.82330 0.05300
C 	C 	0.37680 0.76900 0.83620 -0.23000
C 	C 	0.23700 0.71960 0.82680 0.40600
C 	C 	0.38300 0.84660 0.80710 0.06500
C 	C 	0.52860 0.88990 0.81780 -0.24100
C 	C 	0.65850 0.83910 0.80630 0.07800
C 	C 	0.53180 0.97040 0.79100 0.38200
C 	C 	0.51320 0.07330 0.63920 0.00300
C 	C 	0.51660 0.21400 0.65050 -0.00900
C 	C 	0.72800 0.13860 0.67440 -0.03000
C 	C 	0.73790 0.22320 0.60200 0.00600
C 	C 	0.73870 0.08340 0.59220 0.00000
C 	C 	0.53030 0.15870 0.56740 -0.01200
C 	C 	0.25870 0.95480 0.93780 0.38300
C 	C 	0.12300 0.90360 0.92830 -0.22600
C 	C 	0.99040 0.95710 0.94140 0.05900
C 	C 	0.84220 0.91330 0.93260 -0.26100
C 	C 	0.83840 0.83670 0.96540 0.18000
C 	C 	0.96890 0.78250 0.95310 -0.28200
C 	C 	0.11940 0.82830 0.95990 0.06100
C 	C 	0.71530 0.96820 0.94550 0.41900
C 	C 	0.97100 0.71000 0.98770 0.48100
C 	C 	0.71270 0.20460 0.82630 0.42800
C 	C 	0.84410 0.26100 0.83520 -0.23700
C 	C 	0.98990 0.21650 0.82330 0.05500
C 	C 	0.12320 0.26900 0.83620 -0.23200
C 	C 	0.26300 0.21960 0.82680 0.40600
C 	C 	0.11700 0.34660 0.80710 0.06400
C 	C 	0.97140 0.38990 0.81780 -0.24100
C 	C 	0.84150 0.33910 0.80630 0.07900
C 	C 	0.96820 0.47040 0.79100 0.38800
C 	C 	0.98680 0.57330 0.63920 0.00500
C 	C 	0.98340 0.71400 0.65050 -0.00700
C 	C 	0.77200 0.63860 0.67440 -0.03000
C 	C 	0.76210 0.72320 0.60200 0.00600
C 	C 	0.76130 0.58340 0.59220 0.00000
C 	C 	0.96970 0.65870 0.56740 -0.01300
N 	N 	0.56150 0.13720 0.67230 -0.19800
N 	N 	0.57850 0.22570 0.59810 -0.10400
N 	N 	0.79150 0.14830 0.62340 -0.09800
N 	N 	0.57760 0.08060 0.58780 -0.18600
N 	N 	0.93850 0.63720 0.67230 -0.19800
N 	N 	0.92150 0.72570 0.59810 -0.10400
N 	N 	0.70850 0.64830 0.62340 -0.09800
N 	N 	0.92240 0.58060 0.58780 -0.18600
O 	O 	0.22000 0.51390 0.90900 -0.43800
O 	O 	0.49450 0.14260 0.97120 -0.55800
O 	O 	0.84600 0.50180 0.90960 -0.45800
O 	O 	0.83440 0.66650 0.86130 -0.46800
O 	O 	0.46680 0.02930 0.81167 -0.55100
O 	O 	0.18360 0.68250 0.86250 -0.46100
O 	O 	0.16020 0.43950 0.97530 -0.43700
O 	O 	0.81500 0.47580 0.99250 -0.43400
O 	O 	0.83480 0.70240 0.78080 -0.45400
O 	O 	0.19070 0.71680 0.78100 -0.45400
O 	O 	0.59080 0.97740 0.74900 -0.37200
O 	O 	0.56720 0.22230 0.03210 -0.38800
O 	O 	0.28000 0.01390 0.90900 -0.43500
O 	O 	0.00550 0.64260 0.97120 -0.56000
O 	O 	0.65400 0.00180 0.90960 -0.45700
O 	O 	0.66560 0.16650 0.86130 -0.46900
O 	O 	0.03320 0.52930 0.81167 -0.55600
O 	O 	0.31640 0.18250 0.86250 -0.46100
O 	O 	0.33980 0.93950 0.97530 -0.43700
O 	O 	0.68500 0.97580 0.99250 -0.43500
O 	O 	0.66520 0.20240 0.78080 -0.45500
O 	O 	0.30930 0.21680 0.78100 -0.45400
O 	O 	0.90920 0.47740 0.74900 -0.37200
O 	O 	0.93280 0.72230 0.03210 -0.38600
Cd	Cd	0.97749 0.41037 0.38987 1.24600
Cd	Cd	0.52547 0.97473 0.52191 1.18700
Cd	Cd	0.52208 0.87226 0.25529 1.20800
Cd	Cd	0.52251 0.91037 0.38987 1.24700
Cd	Cd	0.97453 0.47473 0.52191 1.18700
Cd	Cd	0.97792 0.37226 0.25529 1.20700
H 	H 	0.45830 0.97780 0.15360 -0.00400
H 	H 	0.59380 0.92570 0.13670 -0.01300
H 	H 	0.59050 0.78360 0.14900 0.01200
H 	H 	0.44950 0.74290 0.17210 0.01600
H 	H 	0.23630 0.91090 0.18920 0.03100
H 	H 	0.23980 0.81740 0.19570 0.03900
H 	H 	0.21970 0.76970 0.06870 0.02100
H 	H 	0.22890 0.73260 0.12290 0.02200
H 	H 	0.21900 0.91120 0.05880 0.00200
H 	H 	0.22680 0.96690 0.10620 -0.00300
H 	H 	0.57670 0.84050 0.06490 0.02000
H 	H 	0.43000 0.83520 0.03360 0.01400
H 	H 	0.61860 0.61090 0.39260 0.10100
H 	H 	0.49690 0.52680 0.47650 0.01900
H 	H 	0.49350 0.49500 0.42080 0.02400
H 	H 	0.33510 0.60190 0.39700 0.10300
H 	H 	0.24680 0.69190 0.45930 0.01400
H 	H 	0.34160 0.64860 0.50070 0.03900
H 	H 	0.46050 0.73570 0.41810 0.09400
H 	H 	0.70040 0.70640 0.45000 0.01700
H 	H 	0.63260 0.65780 0.49510 0.02900
H 	H 	0.34530 0.22560 0.37120 0.10500
H 	H 	0.49260 0.29740 0.28780 0.01800
H 	H 	0.49430 0.33260 0.34270 0.01500
H 	H 	0.61880 0.21820 0.37220 0.10500
H 	H 	0.69940 0.11950 0.31680 0.00600
H 	H 	0.62520 0.16430 0.27130 0.01900
H 	H 	0.46890 0.09900 0.35400 0.10500
H 	H 	0.25200 0.13190 0.31470 0.00700
H 	H 	0.33950 0.17230 0.27050 0.02600
H 	H 	0.04170 0.47780 0.15360 -0.00500
H 	H 	0.90620 0.42570 0.13670 -0.01500
H 	H 	0.90950 0.28360 0.14900 0.00900
H 	H 	0.05050 0.24290 0.17210 0.01500
H 	H 	0.26370 0.41090 0.18920 0.03100
H 	H 	0.26020 0.31740 0.19570 0.03900
H 	H 	0.28030 0.26970 0.06870 0.02000
H 	H 	0.27110 0.23260 0.12290 0.02200
H 	H 	0.28100 0.41120 0.05880 0.00200
H 	H 	0.27320 0.46690 0.10620 -0.00300
H 	H 	0.92330 0.34050 0.06490 0.01900
H 	H 	0.07000 0.33520 0.03360 0.01300
H 	H 	0.88140 0.11090 0.39260 0.10200
H 	H 	0.00310 0.02680 0.47650 0.01700
H 	H 	0.00650 0.99500 0.42080 0.02100
H 	H 	0.16490 0.10190 0.39700 0.10600
H 	H 	0.25320 0.19190 0.45930 0.01300
H 	H 	0.15840 0.14860 0.50070 0.03800
H 	H 	0.03950 0.23570 0.41810 0.09500
H 	H 	0.79960 0.20640 0.45000 0.01700
H 	H 	0.86740 0.15780 0.49510 0.02800
H 	H 	0.15470 0.72560 0.37120 0.10600
H 	H 	0.00740 0.79740 0.28780 0.01800
H 	H 	0.00570 0.83260 0.34270 0.01500
H 	H 	0.88120 0.71820 0.37220 0.10500
H 	H 	0.80060 0.61950 0.31680 0.00700
H 	H 	0.87480 0.66430 0.27130 0.01900
H 	H 	0.03110 0.59900 0.35400 0.10600
H 	H 	0.24800 0.63190 0.31470 0.00600
H 	H 	0.16050 0.67230 0.27050 0.02600
C 	C 	0.48680 0.92670 0.13920 0.00600
C 	C 	0.48340 0.78600 0.15050 -0.00800
C 	C 	0.27200 0.86140 0.17440 -0.02900
C 	C 	0.26210 0.77680 0.10200 0.01200
C 	C 	0.26130 0.91660 0.09220 0.00900
C 	C 	0.46970 0.84130 0.06740 -0.00200
C 	C 	0.75870 0.54520 0.43780 0.38500
C 	C 	0.62300 0.59640 0.42830 -0.21500
C 	C 	0.49040 0.54290 0.44140 0.03800
C 	C 	0.34220 0.58670 0.43260 -0.21800
C 	C 	0.33840 0.66330 0.46540 0.04300
C 	C 	0.46890 0.71750 0.45310 -0.22200
C 	C 	0.61940 0.67170 0.45990 0.03900
C 	C 	0.21530 0.53180 0.44550 0.40700
C 	C 	0.47100 0.79000 0.48770 0.39800
C 	C 	0.21270 0.29540 0.32630 0.42800
C 	C 	0.34410 0.23900 0.33520 -0.23500
C 	C 	0.48990 0.28350 0.32330 0.05200
C 	C 	0.62320 0.23100 0.33620 -0.23000
C 	C 	0.76300 0.28040 0.32680 0.40600
C 	C 	0.61700 0.15340 0.30710 0.06500
C 	C 	0.47140 0.11010 0.31780 -0.24100
C 	C 	0.34150 0.16090 0.30630 0.07700
C 	C 	0.46820 0.02960 0.29100 0.38500
C 	C 	0.01320 0.42670 0.13920 0.01000
C 	C 	0.01660 0.28600 0.15050 -0.00200
C 	C 	0.22800 0.36140 0.17440 -0.02900
C 	C 	0.23790 0.27680 0.10200 0.01200
C 	C 	0.23870 0.41660 0.09220 0.00900
C 	C 	0.03030 0.34130 0.06740 -0.00000
C 	C 	0.74130 0.04520 0.43780 0.38700
C 	C 	0.87700 0.09640 0.42830 -0.22200
C 	C 	0.00960 0.04290 0.44140 0.05000
C 	C 	0.15780 0.08670 0.43260 -0.22300
C 	C 	0.16160 0.16330 0.46540 0.04500
C 	C 	0.03110 0.21750 0.45310 -0.22200
C 	C 	0.88060 0.17170 0.45990 0.03800
C 	C 	0.28470 0.03180 0.44550 0.41000
C 	C 	0.02900 0.29000 0.48770 0.40400
C 	C 	0.28730 0.79540 0.32630 0.42900
C 	C 	0.15590 0.73900 0.33520 -0.23700
C 	C 	0.01010 0.78350 0.32330 0.05600
C 	C 	0.87680 0.73100 0.33620 -0.23200
C 	C 	0.73700 0.78040 0.32680 0.40600
C 	C 	0.88300 0.65340 0.30710 0.06200
C 	C 	0.02860 0.61010 0.31780 -0.23900
C 	C 	0.15850 0.66090 0.30630 0.07800
C 	C 	0.03180 0.52960 0.29100 0.39000
N 	N 	0.43850 0.86280 0.17230 -0.19900
N 	N 	0.42150 0.77430 0.09810 -0.11000
N 	N 	0.20850 0.85170 0.12340 -0.10200
N 	N 	0.42240 0.91940 0.08780 -0.19300
N 	N 	0.06150 0.36280 0.17230 -0.19900
N 	N 	0.07850 0.27430 0.09810 -0.11100
N 	N 	0.29150 0.35170 0.12340 -0.10200
N 	N 	0.07760 0.41940 0.08780 -0.19400
O 	O 	0.78000 0.48610 0.40900 -0.44200
O 	O 	0.50550 0.85740 0.47120 -0.55200
O 	O 	0.15400 0.49820 0.40960 -0.45600
O 	O 	0.16560 0.33350 0.36130 -0.46800
O 	O 	0.53320 0.97070 0.31167 -0.55400
O 	O 	0.81640 0.31750 0.36250 -0.46300
O 	O 	0.83980 0.56050 0.47530 -0.46000
O 	O 	0.18500 0.52420 0.49250 -0.45700
O 	O 	0.16520 0.29760 0.28080 -0.45400
O 	O 	0.80930 0.28320 0.28100 -0.45500
O 	O 	0.40920 0.02260 0.24900 -0.37200
O 	O 	0.43280 0.77770 0.53210 -0.33100
O 	O 	0.72000 0.98610 0.40900 -0.44300
O 	O 	0.99450 0.35740 0.47120 -0.55600
O 	O 	0.34600 0.99820 0.40960 -0.45900
O 	O 	0.33440 0.83350 0.36130 -0.47000
O 	O 	0.96680 0.47070 0.31167 -0.55800
O 	O 	0.68360 0.81750 0.36250 -0.46200
O 	O 	0.66020 0.06050 0.47530 -0.45900
O 	O 	0.31500 0.02420 0.49250 -0.45800
O 	O 	0.33480 0.79760 0.28080 -0.45500
O 	O 	0.69070 0.78320 0.28100 -0.45400
O 	O 	0.09080 0.52260 0.24900 -0.37300
O 	O 	0.06720 0.27770 0.53210 -0.33100
