data_crystal

_cell_length_a 10.03500
_cell_length_b 21.20400
_cell_length_c 11.11500
_cell_angle_alpha 90.00000
_cell_angle_beta  92.45300
_cell_angle_gamma 90.00000

_symmetry_space_group_name_	'P 1'
_symmetry_space_group_name_H-M	'P 1'

loop_
_symmetry_equiv_pos_as_xyz
  x,y,z

loop_
_atom_site_label
_atom_site_type_symbol
_atom_site_fract_x
_atom_site_fract_y
_atom_site_fract_z
_atom_site_charge
Nd	Nd	0.56769 0.09546 0.94023 2.00500
Nd	Nd	0.07836 0.10515 0.30640 2.16900
O 	O 	0.40390 0.15374 0.05050 -0.42700
O 	O 	0.25430 0.15910 0.19260 -0.42900
O 	O 	0.39830 0.02598 0.06390 -0.56500
O 	O 	0.22790 0.03429 0.18810 -0.46600
O 	O 	0.81480 0.08851 0.96680 -0.42400
O 	O 	0.99260 0.09633 0.09310 -0.40400
O 	O 	0.65440 0.08652 0.15180 -0.42900
O 	O 	0.83230 0.09244 0.28040 -0.42200
O 	O 	0.66360 0.20315 0.98270 -0.39000
O 	O 	0.64910 0.30740 0.94890 -0.42100
O 	O 	0.49430 0.18258 0.79460 -0.43400
O 	O 	0.48160 0.28672 0.75990 -0.40300
O 	O 	0.03570 0.99111 0.34840 -0.42900
O 	O 	0.00410 0.91751 0.48860 -0.42200
C 	C 	0.32610 0.12950 0.12270 0.26800
C 	C 	0.31510 0.05661 0.12500 0.28100
C 	C 	0.86910 0.09162 0.06920 0.28400
C 	C 	0.77720 0.09027 0.17680 0.26500
C 	C 	0.61990 0.25057 0.92600 0.26200
C 	C 	0.52350 0.23937 0.81640 0.27500
C 	C 	0.01130 0.97338 0.45240 0.25000
Nd	Nd	0.93231 0.59546 0.55977 2.00600
Nd	Nd	0.42164 0.60515 0.19360 2.19400
O 	O 	0.09610 0.65374 0.44950 -0.42800
O 	O 	0.24570 0.65910 0.30740 -0.43100
O 	O 	0.10170 0.52598 0.43610 -0.56600
O 	O 	0.27210 0.53429 0.31190 -0.46600
O 	O 	0.68520 0.58851 0.53320 -0.41700
O 	O 	0.50740 0.59633 0.40690 -0.41000
O 	O 	0.84560 0.58652 0.34820 -0.43200
O 	O 	0.66770 0.59244 0.21960 -0.42600
O 	O 	0.83640 0.70315 0.51730 -0.39000
O 	O 	0.85090 0.80740 0.55110 -0.42100
O 	O 	0.00570 0.68258 0.70540 -0.42100
O 	O 	0.01840 0.78672 0.74010 -0.38800
O 	O 	0.46430 0.49111 0.15160 -0.43200
O 	O 	0.49590 0.41751 0.01140 -0.42700
C 	C 	0.17390 0.62950 0.37730 0.26800
C 	C 	0.18490 0.55661 0.37500 0.28200
C 	C 	0.63090 0.59162 0.43080 0.27500
C 	C 	0.72280 0.59027 0.32320 0.26700
C 	C 	0.88010 0.75057 0.57400 0.26700
C 	C 	0.97650 0.73937 0.68360 0.25400
C 	C 	0.48870 0.47338 0.04760 0.24900
Nd	Nd	0.43231 0.90454 0.05977 2.00400
Nd	Nd	0.92164 0.89484 0.69360 2.16800
O 	O 	0.59610 0.84626 0.94950 -0.42800
O 	O 	0.74570 0.84090 0.80740 -0.43000
O 	O 	0.60170 0.97402 0.93610 -0.56500
O 	O 	0.77210 0.96571 0.81190 -0.46600
O 	O 	0.18520 0.91149 0.03320 -0.42400
O 	O 	0.00740 0.90367 0.90690 -0.40400
O 	O 	0.34560 0.91348 0.84820 -0.42900
O 	O 	0.16770 0.90756 0.71960 -0.42100
O 	O 	0.33640 0.79685 0.01730 -0.39000
O 	O 	0.35090 0.69260 0.05110 -0.42100
O 	O 	0.50570 0.81742 0.20540 -0.43400
O 	O 	0.51840 0.71328 0.24010 -0.40300
O 	O 	0.96430 0.00889 0.65160 -0.42900
O 	O 	0.99590 0.08249 0.51140 -0.42200
C 	C 	0.67390 0.87050 0.87730 0.26800
C 	C 	0.68490 0.94339 0.87500 0.28100
C 	C 	0.13090 0.90838 0.93080 0.28400
C 	C 	0.22280 0.90973 0.82320 0.26500
C 	C 	0.38010 0.74943 0.07400 0.26200
C 	C 	0.47650 0.76063 0.18360 0.27500
C 	C 	0.98870 0.02662 0.54760 0.25000
Nd	Nd	0.06769 0.40454 0.44023 2.00600
Nd	Nd	0.57836 0.39485 0.80640 2.19400
O 	O 	0.90390 0.34626 0.55050 -0.42800
O 	O 	0.75430 0.34090 0.69260 -0.43100
O 	O 	0.89830 0.47402 0.56390 -0.56600
O 	O 	0.72790 0.46571 0.68810 -0.46600
O 	O 	0.31480 0.41149 0.46680 -0.41700
O 	O 	0.49260 0.40367 0.59310 -0.41000
O 	O 	0.15440 0.41348 0.65180 -0.43200
O 	O 	0.33230 0.40756 0.78040 -0.42600
O 	O 	0.16360 0.29685 0.48270 -0.39000
O 	O 	0.14910 0.19260 0.44890 -0.42100
O 	O 	0.99430 0.31742 0.29460 -0.42100
O 	O 	0.98160 0.21328 0.25990 -0.38700
O 	O 	0.53570 0.50889 0.84840 -0.43200
O 	O 	0.50410 0.58249 0.98860 -0.42700
C 	C 	0.82610 0.37050 0.62270 0.26800
C 	C 	0.81510 0.44339 0.62500 0.28200
C 	C 	0.36910 0.40838 0.56920 0.27500
C 	C 	0.27720 0.40973 0.67680 0.26700
C 	C 	0.11990 0.24943 0.42600 0.26700
C 	C 	0.02350 0.26063 0.31640 0.25400
C 	C 	0.51130 0.52662 0.95240 0.24900
