data_crystal

_cell_length_a 14.18400
_cell_length_b 11.51500
_cell_length_c 15.61900
_cell_angle_alpha 90.00000
_cell_angle_beta  106.63300
_cell_angle_gamma 90.00000

_symmetry_space_group_name_	'P 1'
_symmetry_space_group_name_H-M	'P 1'

loop_
_symmetry_equiv_pos_as_xyz
  x,y,z

loop_
_atom_site_label
_atom_site_type_symbol
_atom_site_fract_x
_atom_site_fract_y
_atom_site_fract_z
_atom_site_charge
Nd	Nd	0.32455 0.35717 0.33983 2.23900
O 	O 	0.19515 0.23982 0.23600 -0.41100
O 	O 	0.14289 0.06677 0.17652 -0.44500
O 	O 	0.32172 0.97795 0.24562 -0.37200
O 	O 	0.37653 0.15073 0.30694 -0.36600
O 	O 	0.35674 0.22068 0.46863 -0.42300
O 	O 	0.30542 0.14609 0.58019 -0.41500
O 	O 	0.50347 0.36481 0.36326 -0.44500
O 	O 	0.62757 0.36599 0.30023 -0.42700
C 	C 	0.20745 0.13440 0.22188 0.28200
C 	C 	0.31186 0.08370 0.26203 0.24600
C 	C 	0.29729 0.21120 0.51424 0.25600
C 	C 	0.53795 0.36480 0.29778 0.28300
Nd	Nd	0.82455 0.85717 0.33983 2.23800
O 	O 	0.69515 0.73982 0.23600 -0.41100
O 	O 	0.64289 0.56677 0.17652 -0.44600
O 	O 	0.82172 0.47795 0.24562 -0.37100
O 	O 	0.87653 0.65073 0.30694 -0.36500
O 	O 	0.85674 0.72068 0.46863 -0.42300
O 	O 	0.80542 0.64609 0.58019 -0.41600
O 	O 	0.00347 0.86481 0.36326 -0.44600
O 	O 	0.12757 0.86599 0.30023 -0.42600
C 	C 	0.70745 0.63440 0.22188 0.28200
C 	C 	0.81186 0.58370 0.26203 0.24400
C 	C 	0.79729 0.71120 0.51424 0.25600
C 	C 	0.03795 0.86480 0.29778 0.28200
Nd	Nd	0.67545 0.35717 0.16017 2.23900
O 	O 	0.80485 0.23982 0.26400 -0.41100
O 	O 	0.85711 0.06677 0.32348 -0.44500
O 	O 	0.67828 0.97795 0.25438 -0.37300
O 	O 	0.62347 0.15073 0.19306 -0.36500
O 	O 	0.64326 0.22068 0.03137 -0.42000
O 	O 	0.69458 0.14609 0.91981 -0.41500
O 	O 	0.49653 0.36481 0.13674 -0.44500
O 	O 	0.37243 0.36599 0.19977 -0.42700
C 	C 	0.79255 0.13440 0.27812 0.28200
C 	C 	0.68814 0.08370 0.23797 0.24600
C 	C 	0.70271 0.21120 0.98576 0.25100
C 	C 	0.46205 0.36480 0.20222 0.28300
Nd	Nd	0.17545 0.85717 0.16017 2.23700
O 	O 	0.30485 0.73982 0.26400 -0.41100
O 	O 	0.35711 0.56677 0.32348 -0.44500
O 	O 	0.17828 0.47795 0.25438 -0.37100
O 	O 	0.12347 0.65073 0.19306 -0.36600
O 	O 	0.14326 0.72068 0.03137 -0.42600
O 	O 	0.19458 0.64609 0.91981 -0.41600
O 	O 	0.99653 0.86481 0.13674 -0.44500
O 	O 	0.87243 0.86599 0.19977 -0.42700
C 	C 	0.29255 0.63440 0.27812 0.28200
C 	C 	0.18814 0.58370 0.23797 0.24400
C 	C 	0.20271 0.71120 0.98576 0.26100
C 	C 	0.96205 0.86480 0.20222 0.28300
Nd	Nd	0.67545 0.64283 0.66017 2.23900
O 	O 	0.80485 0.76018 0.76400 -0.41100
O 	O 	0.85711 0.93323 0.82348 -0.44500
O 	O 	0.67828 0.02205 0.75438 -0.37200
O 	O 	0.62347 0.84927 0.69306 -0.36600
O 	O 	0.64326 0.77932 0.53137 -0.42300
O 	O 	0.69458 0.85391 0.41981 -0.41500
O 	O 	0.49653 0.63519 0.63674 -0.44500
O 	O 	0.37243 0.63401 0.69977 -0.42700
C 	C 	0.79255 0.86560 0.77812 0.28200
C 	C 	0.68814 0.91630 0.73797 0.24600
C 	C 	0.70271 0.78880 0.48576 0.25600
C 	C 	0.46205 0.63520 0.70222 0.28300
Nd	Nd	0.17545 0.14283 0.66017 2.23800
O 	O 	0.30485 0.26018 0.76400 -0.41100
O 	O 	0.35711 0.43323 0.82348 -0.44600
O 	O 	0.17828 0.52205 0.75438 -0.37100
O 	O 	0.12347 0.34927 0.69306 -0.36500
O 	O 	0.14326 0.27932 0.53137 -0.42300
O 	O 	0.19458 0.35391 0.41981 -0.41600
O 	O 	0.99653 0.13519 0.63674 -0.44600
O 	O 	0.87243 0.13401 0.69977 -0.42600
C 	C 	0.29255 0.36560 0.77812 0.28200
C 	C 	0.18814 0.41630 0.73797 0.24400
C 	C 	0.20271 0.28880 0.48576 0.25600
C 	C 	0.96205 0.13520 0.70222 0.28200
Nd	Nd	0.32455 0.64283 0.83983 2.23900
O 	O 	0.19515 0.76018 0.73600 -0.41100
O 	O 	0.14289 0.93323 0.67652 -0.44500
O 	O 	0.32172 0.02205 0.74562 -0.37300
O 	O 	0.37653 0.84927 0.80694 -0.36500
O 	O 	0.35674 0.77932 0.96863 -0.42000
O 	O 	0.30542 0.85391 0.08019 -0.41500
O 	O 	0.50347 0.63519 0.86326 -0.44500
O 	O 	0.62757 0.63401 0.80023 -0.42700
C 	C 	0.20745 0.86560 0.72188 0.28200
C 	C 	0.31186 0.91630 0.76203 0.24600
C 	C 	0.29729 0.78880 0.01424 0.25100
C 	C 	0.53795 0.63520 0.79778 0.28300
Nd	Nd	0.82455 0.14283 0.83983 2.23700
O 	O 	0.69515 0.26018 0.73600 -0.41100
O 	O 	0.64289 0.43323 0.67652 -0.44500
O 	O 	0.82172 0.52205 0.74562 -0.37100
O 	O 	0.87653 0.34927 0.80694 -0.36600
O 	O 	0.85674 0.27932 0.96863 -0.42600
O 	O 	0.80542 0.35391 0.08019 -0.41600
O 	O 	0.00347 0.13519 0.86326 -0.44500
O 	O 	0.12757 0.13401 0.80023 -0.42700
C 	C 	0.70745 0.36560 0.72188 0.28200
C 	C 	0.81186 0.41630 0.76203 0.24400
C 	C 	0.79729 0.28880 0.01424 0.26100
C 	C 	0.03795 0.13520 0.79778 0.28300
