data_crystal

_cell_length_a 8.44100
_cell_length_b 8.44100
_cell_length_c 17.50000
_cell_angle_alpha 90.00000
_cell_angle_beta  90.00000
_cell_angle_gamma 90.00000

_symmetry_space_group_name_	'P 1'
_symmetry_space_group_name_H-M	'P 1'

loop_
_symmetry_equiv_pos_as_xyz
  x,y,z

loop_
_atom_site_label
_atom_site_type_symbol
_atom_site_fract_x
_atom_site_fract_y
_atom_site_fract_z
_atom_site_charge
O 	O 	0.13860 0.14790 0.01736 -0.30600
O 	O 	0.12650 0.97030 0.92263 -0.32900
C 	C 	0.07720 0.03410 0.98288 0.07900
O 	O 	0.63860 0.64790 0.51736 -0.28200
O 	O 	0.62650 0.47030 0.42263 -0.29800
C 	C 	0.57720 0.53410 0.48288 0.23400
O 	O 	0.36140 0.85210 0.51736 -0.32900
O 	O 	0.37350 0.02970 0.42263 -0.33100
C 	C 	0.42280 0.96590 0.48288 0.21600
O 	O 	0.86140 0.35210 0.01736 -0.28100
O 	O 	0.87350 0.52970 0.92263 -0.29700
C 	C 	0.92280 0.46590 0.98288 0.41600
O 	O 	0.60210 0.38860 0.26736 -0.30200
O 	O 	0.77970 0.37650 0.17263 -0.26400
C 	C 	0.71590 0.32720 0.23288 0.25300
O 	O 	0.10210 0.88860 0.76736 -0.37700
O 	O 	0.27970 0.87650 0.67263 -0.35200
C 	C 	0.21590 0.82720 0.73288 0.23700
O 	O 	0.89790 0.61140 0.76736 -0.21300
O 	O 	0.72030 0.62350 0.67263 -0.29300
C 	C 	0.78410 0.67280 0.73288 0.24100
O 	O 	0.39790 0.11140 0.26736 -0.31100
O 	O 	0.22030 0.12350 0.17263 -0.34900
C 	C 	0.28410 0.17280 0.23288 0.22500
O 	O 	0.86140 0.85210 0.98264 -0.28000
O 	O 	0.87350 0.02970 0.07737 -0.28100
C 	C 	0.92280 0.96590 0.01712 0.38700
O 	O 	0.36140 0.35210 0.48264 -0.33300
O 	O 	0.37350 0.52970 0.57737 -0.34600
C 	C 	0.42280 0.46590 0.51712 0.24500
O 	O 	0.63860 0.14790 0.48264 -0.28600
O 	O 	0.62650 0.97030 0.57737 -0.31400
C 	C 	0.57720 0.03410 0.51712 0.26200
O 	O 	0.13860 0.64790 0.98264 -0.30700
O 	O 	0.12650 0.47030 0.07737 -0.31800
C 	C 	0.07720 0.53410 0.01712 0.06200
O 	O 	0.39790 0.61140 0.73264 -0.31200
O 	O 	0.22030 0.62350 0.82737 -0.35100
C 	C 	0.28410 0.67280 0.76712 0.22500
O 	O 	0.89790 0.11140 0.23264 -0.21200
O 	O 	0.72030 0.12350 0.32737 -0.29200
C 	C 	0.78410 0.17280 0.26712 0.24100
O 	O 	0.10210 0.38860 0.23264 -0.37700
O 	O 	0.27970 0.37650 0.32737 -0.35100
C 	C 	0.21590 0.32720 0.26712 0.23800
O 	O 	0.60210 0.88860 0.73264 -0.30300
O 	O 	0.77970 0.87650 0.82737 -0.26700
C 	C 	0.71590 0.82720 0.76712 0.25300
Yb	Yb	-0.00000 0.25000 0.12500 1.45200
Yb	Yb	0.50000 0.75000 0.62500 1.56200
Yb	Yb	0.50000 0.25000 0.37500 1.56300
Yb	Yb	0.00000 0.75000 0.87500 1.45300
