data_crystal

_cell_length_a 13.17170
_cell_length_b 13.19010
_cell_length_c 16.23470
_cell_angle_alpha 97.29300
_cell_angle_beta  94.43700
_cell_angle_gamma 90.52300

_symmetry_space_group_name_	'P 1'
_symmetry_space_group_name_H-M	'P 1'

loop_
_symmetry_equiv_pos_as_xyz
  x,y,z

loop_
_atom_site_label
_atom_site_type_symbol
_atom_site_fract_x
_atom_site_fract_y
_atom_site_fract_z
_atom_site_charge
Co	Co	0.99773 0.00508 0.58591 1.14500
Co	Co	0.00227 0.99492 0.41409 1.14400
H 	H 	0.17390 0.01938 0.72177 0.02000
H 	H 	0.19261 0.02594 0.87856 0.05400
H 	H 	0.86002 0.01429 0.87421 0.05300
H 	H 	0.85171 0.00986 0.71887 0.02200
H 	H 	0.11373 0.03231 0.01474 0.04500
H 	H 	0.32784 0.01807 0.38927 0.04800
H 	H 	0.49748 0.03340 0.33074 0.05000
H 	H 	0.31543 0.96710 0.65029 0.03300
H 	H 	0.94939 0.67828 0.60045 0.04300
H 	H 	0.91505 0.51469 0.65630 0.04700
H 	H 	0.07033 0.67263 0.35573 0.03500
H 	H 	0.82610 0.98062 0.27823 0.02000
H 	H 	0.80739 0.97406 0.12144 0.05400
H 	H 	0.13998 0.98571 0.12579 0.05300
H 	H 	0.14829 0.99014 0.28113 0.02200
H 	H 	0.88627 0.96769 0.98526 0.04500
H 	H 	0.67216 0.98193 0.61073 0.04800
H 	H 	0.50252 0.96660 0.66926 0.05000
H 	H 	0.68540 0.03283 0.35018 0.03400
H 	H 	0.05061 0.32172 0.39955 0.04300
H 	H 	0.08495 0.48531 0.34370 0.04700
H 	H 	0.92967 0.32737 0.64427 0.03500
C 	C 	0.10330 0.01830 0.75810 0.05500
C 	C 	0.11360 0.02080 0.84410 -0.08200
C 	C 	0.02710 0.01700 0.88780 0.06800
C 	C 	0.93360 0.01470 0.84160 -0.08900
C 	C 	0.92880 0.01290 0.75630 0.04200
C 	C 	0.03740 0.01280 0.97780 -0.04600
C 	C 	0.19760 0.99680 0.50770 0.36300
C 	C 	0.31110 0.99250 0.51750 -0.10100
C 	C 	0.36760 0.00650 0.45220 0.00100
C 	C 	0.47480 0.00700 0.46080 0.00900
C 	C 	0.53550 0.02150 0.39420 -0.05900
C 	C 	0.36160 0.97850 0.59550 0.02000
C 	C 	0.00300 0.80060 0.48700 0.35800
C 	C 	0.00950 0.68710 0.47960 -0.10400
C 	C 	0.97840 0.63460 0.54200 0.00000
C 	C 	0.98150 0.52770 0.53550 0.00900
C 	C 	0.94770 0.47210 0.59900 -0.05700
C 	C 	0.04570 0.63120 0.40860 0.02100
C 	C 	0.89670 0.98170 0.24190 0.05500
C 	C 	0.88640 0.97920 0.15590 -0.08200
C 	C 	0.97290 0.98300 0.11220 0.06800
C 	C 	0.06640 0.98530 0.15840 -0.08900
C 	C 	0.07120 0.98710 0.24370 0.04200
C 	C 	0.96260 0.98720 0.02220 -0.04600
C 	C 	0.80240 0.00320 0.49230 0.36300
C 	C 	0.68890 0.00750 0.48250 -0.10100
C 	C 	0.63240 0.99350 0.54780 0.00100
C 	C 	0.52520 0.99300 0.53920 0.00900
C 	C 	0.46450 0.97850 0.60580 -0.05900
C 	C 	0.63840 0.02150 0.40450 0.02000
C 	C 	0.99700 0.19940 0.51300 0.35800
C 	C 	0.99050 0.31290 0.52040 -0.10400
C 	C 	0.02160 0.36540 0.45800 0.00000
C 	C 	0.01850 0.47230 0.46450 0.00900
C 	C 	0.05230 0.52790 0.40100 -0.05700
C 	C 	0.95430 0.36880 0.59140 0.02100
N 	N 	0.01280 0.01460 0.71420 -0.21900
N 	N 	0.98720 0.98540 0.28580 -0.21900
O 	O 	0.15070 0.00270 0.57230 -0.44600
O 	O 	0.84420 0.00530 0.56520 -0.44400
O 	O 	0.99570 0.84880 0.55820 -0.43700
O 	O 	0.99740 0.15870 0.57900 -0.44500
O 	O 	0.84930 0.99730 0.42770 -0.44600
O 	O 	0.15580 0.99470 0.43480 -0.44400
O 	O 	0.00430 0.15120 0.44180 -0.43700
O 	O 	0.00260 0.84130 0.42100 -0.44500
Co	Co	0.67495 0.77125 0.88817 1.14900
Co	Co	0.67940 0.76154 0.71773 1.14800
H 	H 	0.34881 0.76472 0.91803 0.03800
H 	H 	0.17984 0.75054 0.97620 0.04000
H 	H 	0.98965 0.75038 0.95472 0.04100
H 	H 	0.00474 0.77471 0.69036 0.05000
H 	H 	0.17416 0.77866 0.63094 0.05000
H 	H 	0.36214 0.77396 0.64961 0.03400
H 	H 	0.70088 0.08544 0.69742 0.04200
H 	H 	0.72052 0.24741 0.63516 0.04300
H 	H 	0.71693 0.43815 0.65133 0.03800
H 	H 	0.64465 0.44729 0.91077 0.04500
H 	H 	0.62976 0.28589 0.97282 0.04200
H 	H 	0.63785 0.09868 0.96020 0.03600
H 	H 	0.83903 0.71936 0.01601 0.01700
H 	H 	0.85764 0.71464 0.17115 0.05200
H 	H 	0.79239 0.76250 0.31289 0.04500
H 	H 	0.55612 0.75885 0.29764 0.04300
H 	H 	0.81469 0.76752 0.42918 0.05400
H 	H 	0.82331 0.77253 0.58597 0.02300
H 	H 	0.50206 0.73617 0.58001 0.02000
C 	C 	0.36640 0.76740 0.78530 -0.10200
C 	C 	0.30920 0.76510 0.85310 0.00200
C 	C 	0.20240 0.76320 0.84410 0.00100
C 	C 	0.14200 0.75610 0.91140 -0.04900
C 	C 	0.03750 0.75580 0.89980 0.00600
C 	C 	0.98870 0.76210 0.82090 -0.08000
C 	C 	0.04470 0.76840 0.75430 -0.01400
C 	C 	0.15280 0.76720 0.76360 0.01700
C 	C 	0.21260 0.77290 0.69550 -0.06200
C 	C 	0.31610 0.77160 0.70600 0.02300
C 	C 	0.47990 0.76560 0.79630 0.37300
C 	C 	0.87350 0.76540 0.80960 0.37000
C 	C 	0.66830 0.08030 0.82650 -0.10000
C 	C 	0.68560 0.13070 0.75970 -0.00600
C 	C 	0.68500 0.23840 0.76600 0.00700
C 	C 	0.70370 0.29180 0.69740 -0.05800
C 	C 	0.70150 0.39560 0.70610 0.01700
C 	C 	0.68030 0.45360 0.78230 -0.09700
C 	C 	0.66190 0.40250 0.84880 -0.00200
C 	C 	0.66380 0.29500 0.84240 0.00700
C 	C 	0.64670 0.24180 0.91050 -0.05900
C 	C 	0.65000 0.13870 0.90340 0.01400
C 	C 	0.67400 0.96570 0.81900 0.36400
C 	C 	0.67900 0.56690 0.79010 0.36400
C 	C 	0.77330 0.74360 0.05540 0.05800
C 	C 	0.78330 0.74050 0.14030 -0.08900
C 	C 	0.70390 0.76850 0.18790 0.06100
C 	C 	0.61830 0.80390 0.14820 -0.08400
C 	C 	0.61350 0.80610 0.06240 0.04900
C 	C 	0.71370 0.76320 0.27840 -0.05000
C 	C 	0.63810 0.75900 0.32590 -0.04400
C 	C 	0.64850 0.75420 0.41680 0.05600
C 	C 	0.74190 0.76210 0.46220 -0.07500
C 	C 	0.74660 0.76340 0.54790 0.04600
C 	C 	0.57220 0.74420 0.54420 0.05100
C 	C 	0.56170 0.74340 0.45920 -0.08000
N 	N 	0.69010 0.77370 0.01600 -0.22600
N 	N 	0.66310 0.75420 0.58940 -0.22400
O 	O 	0.52140 0.76750 0.86850 -0.44400
O 	O 	0.52730 0.76230 0.73130 -0.45400
O 	O 	0.83290 0.76400 0.73780 -0.44800
O 	O 	0.82700 0.77120 0.87510 -0.45500
O 	O 	0.67830 0.91790 0.74710 -0.44400
O 	O 	0.67320 0.92570 0.88510 -0.44300
O 	O 	0.67430 0.61540 0.86180 -0.43600
O 	O 	0.68110 0.60830 0.72420 -0.44000
Co	Co	0.32505 0.22875 0.11183 1.14900
Co	Co	0.32060 0.23846 0.28227 1.14800
H 	H 	0.65119 0.23528 0.08197 0.03800
H 	H 	0.82016 0.24946 0.02380 0.04000
H 	H 	0.01035 0.24962 0.04528 0.04100
H 	H 	0.99526 0.22529 0.30964 0.05000
H 	H 	0.82584 0.22134 0.36906 0.05000
H 	H 	0.63676 0.22608 0.34976 0.03500
H 	H 	0.29912 0.91456 0.30258 0.04200
H 	H 	0.27948 0.75259 0.36484 0.04300
H 	H 	0.28307 0.56185 0.34867 0.03800
H 	H 	0.35535 0.55271 0.08923 0.04500
H 	H 	0.37024 0.71411 0.02718 0.04200
H 	H 	0.36199 0.90250 0.04039 0.03600
H 	H 	0.16097 0.28064 0.98399 0.01700
H 	H 	0.14236 0.28536 0.82885 0.05200
H 	H 	0.20761 0.23750 0.68711 0.04500
H 	H 	0.44388 0.24115 0.70236 0.04300
H 	H 	0.18531 0.23248 0.57082 0.05500
H 	H 	0.17669 0.22747 0.41403 0.02300
H 	H 	0.49794 0.26383 0.41999 0.02000
C 	C 	0.63360 0.23260 0.21470 -0.10200
C 	C 	0.69080 0.23490 0.14690 0.00200
C 	C 	0.79760 0.23680 0.15590 0.00100
C 	C 	0.85800 0.24390 0.08860 -0.04900
C 	C 	0.96250 0.24420 0.10020 0.00600
C 	C 	0.01130 0.23790 0.17910 -0.08000
C 	C 	0.95530 0.23160 0.24570 -0.01400
C 	C 	0.84720 0.23280 0.23640 0.01700
C 	C 	0.78740 0.22710 0.30450 -0.06200
C 	C 	0.68390 0.22840 0.29400 0.02300
C 	C 	0.52010 0.23440 0.20370 0.37300
C 	C 	0.12650 0.23460 0.19040 0.37000
C 	C 	0.33170 0.91970 0.17350 -0.10000
C 	C 	0.31440 0.86930 0.24030 -0.00600
C 	C 	0.31500 0.76160 0.23400 0.00700
C 	C 	0.29630 0.70820 0.30260 -0.05800
C 	C 	0.29850 0.60440 0.29390 0.01700
C 	C 	0.31970 0.54640 0.21770 -0.09700
C 	C 	0.33810 0.59750 0.15120 -0.00200
C 	C 	0.33620 0.70500 0.15760 0.00700
C 	C 	0.35330 0.75820 0.08950 -0.05900
C 	C 	0.35000 0.86130 0.09660 0.01400
C 	C 	0.32600 0.03430 0.18100 0.36400
C 	C 	0.32100 0.43310 0.20990 0.36400
C 	C 	0.22670 0.25640 0.94460 0.05800
C 	C 	0.21670 0.25950 0.85970 -0.08900
C 	C 	0.29610 0.23150 0.81210 0.06100
C 	C 	0.38170 0.19610 0.85180 -0.08400
C 	C 	0.38650 0.19390 0.93760 0.04900
C 	C 	0.28630 0.23680 0.72160 -0.05000
C 	C 	0.36190 0.24100 0.67410 -0.04400
C 	C 	0.35150 0.24580 0.58320 0.05600
C 	C 	0.25810 0.23790 0.53780 -0.07500
C 	C 	0.25340 0.23660 0.45210 0.04600
C 	C 	0.42780 0.25580 0.45580 0.05100
C 	C 	0.43830 0.25660 0.54080 -0.08000
N 	N 	0.30990 0.22630 0.98400 -0.22600
N 	N 	0.33690 0.24580 0.41060 -0.22400
O 	O 	0.47860 0.23250 0.13150 -0.44400
O 	O 	0.47270 0.23770 0.26870 -0.45400
O 	O 	0.16710 0.23600 0.26220 -0.44800
O 	O 	0.17300 0.22880 0.12490 -0.45500
O 	O 	0.32170 0.08210 0.25290 -0.44400
O 	O 	0.32680 0.07430 0.11490 -0.44300
O 	O 	0.32570 0.38460 0.13820 -0.43600
O 	O 	0.31890 0.39170 0.27580 -0.44000
H 	H 	0.55157 0.83132 0.18535 0.05200
H 	H 	0.54284 0.83613 0.02904 0.01500
H 	H 	0.48292 0.73401 0.42446 0.04900
H 	H 	0.44843 0.16868 0.81465 0.05200
H 	H 	0.45716 0.16387 0.97096 0.01500
H 	H 	0.51708 0.26599 0.57554 0.04900
