data_crystal

_cell_length_a 8.16850
_cell_length_b 23.61600
_cell_length_c 8.87960
_cell_angle_alpha 90.00000
_cell_angle_beta  110.90000
_cell_angle_gamma 90.00000

_symmetry_space_group_name_	'P 1'
_symmetry_space_group_name_H-M	'P 1'

loop_
_symmetry_equiv_pos_as_xyz
  x,y,z

loop_
_atom_site_label
_atom_site_type_symbol
_atom_site_fract_x
_atom_site_fract_y
_atom_site_fract_z
_atom_site_charge
Cu	Cu	0.04667 0.89320 0.69103 0.89800
O 	O 	0.19470 0.82980 0.74500 -0.43200
O 	O 	0.26080 0.74120 0.72940 -0.29800
O 	O 	0.50370 0.76860 0.00350 -0.25600
O 	O 	0.55870 0.67990 0.02570 -0.21600
O 	O 	0.52450 0.67560 0.08670 -0.08100
O 	O 	0.83590 0.92910 0.62970 -0.45100
O 	O 	0.61670 0.94920 0.39620 -0.44400
O 	O 	0.19480 0.95140 0.60320 -0.37200
O 	O 	0.32670 0.94520 0.41410 -0.43700
N 	N 	0.97420 0.87220 0.43190 -0.11700
C 	C 	0.91980 0.81310 0.40550 0.11600
C 	C 	0.01700 0.77110 0.51450 -0.16300
C 	C 	0.77890 0.79840 0.27200 -0.19100
C 	C 	0.96990 0.71520 0.47900 0.05400
H 	H 	0.03410 0.68700 0.54830 -0.01400
C 	C 	0.73220 0.74160 0.24080 0.02000
C 	C 	0.82970 0.69990 0.34300 -0.11400
H 	H 	0.80130 0.66190 0.32050 0.04800
C 	C 	0.16840 0.78170 0.67300 0.37900
C 	C 	0.58300 0.72530 0.09260 0.27600
C 	C 	0.84800 0.91610 0.34830 -0.31200
H 	H 	0.90700 0.94860 0.32480 0.13000
H 	H 	0.76400 0.90170 0.24820 0.09700
C 	C 	0.11570 0.88130 0.37730 -0.28900
H 	H 	0.18850 0.84770 0.39450 0.12600
H 	H 	0.07220 0.89030 0.26330 0.10100
C 	C 	0.75770 0.93160 0.46670 0.40900
C 	C 	0.21980 0.93060 0.47530 0.37800
K 	K 	0.39650 0.63594 0.67400 0.64100
H 	H 	0.72100 0.82200 0.21600 0.09400
Cu	Cu	0.95333 0.39320 0.80897 0.89100
O 	O 	0.80530 0.32980 0.75500 -0.43500
O 	O 	0.73920 0.24120 0.77060 -0.30000
O 	O 	0.49630 0.26860 0.49650 -0.24600
O 	O 	0.44130 0.17990 0.47430 -0.19700
O 	O 	0.47550 0.17560 0.41330 -0.09000
O 	O 	0.16410 0.42910 0.87030 -0.43600
O 	O 	0.38330 0.44920 0.10380 -0.45500
O 	O 	0.80520 0.45140 0.89680 -0.37100
O 	O 	0.67330 0.44520 0.08590 -0.45100
N 	N 	0.02580 0.37220 0.06810 -0.11200
C 	C 	0.08020 0.31310 0.09450 0.09100
C 	C 	0.98300 0.27110 0.98550 -0.12800
C 	C 	0.22110 0.29840 0.22800 -0.16100
C 	C 	0.03010 0.21520 0.02100 0.00500
H 	H 	0.96590 0.18700 0.95170 0.00500
C 	C 	0.26780 0.24160 0.25920 -0.00100
C 	C 	0.17030 0.19990 0.15700 -0.08300
H 	H 	0.19870 0.16190 0.17950 0.03500
C 	C 	0.83160 0.28170 0.82700 0.37000
C 	C 	0.41700 0.22530 0.40740 0.28100
C 	C 	0.15200 0.41610 0.15170 -0.30100
H 	H 	0.09300 0.44860 0.17520 0.12300
H 	H 	0.23600 0.40170 0.25180 0.09600
C 	C 	0.88430 0.38130 0.12270 -0.29300
H 	H 	0.81150 0.34770 0.10550 0.12000
H 	H 	0.92780 0.39030 0.23670 0.09600
C 	C 	0.24230 0.43160 0.03330 0.37600
C 	C 	0.78020 0.43060 0.02470 0.34800
K 	K 	0.60350 0.13594 0.82600 0.64100
H 	H 	0.27900 0.32200 0.28400 0.08200
Cu	Cu	0.95333 0.10680 0.30897 0.88500
O 	O 	0.80530 0.17020 0.25500 -0.45700
O 	O 	0.73920 0.25880 0.27060 -0.32000
O 	O 	0.49630 0.23140 0.99650 -0.22700
O 	O 	0.44130 0.32010 0.97430 -0.17300
O 	O 	0.47550 0.32440 0.91330 -0.08700
O 	O 	0.16410 0.07090 0.37030 -0.46700
O 	O 	0.38330 0.05080 0.60380 -0.46700
O 	O 	0.80520 0.04860 0.39680 -0.41200
O 	O 	0.67330 0.05480 0.58590 -0.46200
N 	N 	0.02580 0.12780 0.56810 -0.11700
C 	C 	0.08020 0.18690 0.59450 0.19300
C 	C 	0.98300 0.22890 0.48550 -0.25800
C 	C 	0.22110 0.20160 0.72800 -0.28700
C 	C 	0.03010 0.28480 0.52100 0.18600
H 	H 	0.96590 0.31300 0.45170 -0.07000
C 	C 	0.26780 0.25840 0.75920 0.09700
C 	C 	0.17030 0.30010 0.65700 -0.20500
H 	H 	0.19870 0.33810 0.67950 0.08500
C 	C 	0.83160 0.21830 0.32700 0.41100
C 	C 	0.41700 0.27470 0.90740 0.24500
C 	C 	0.15200 0.08390 0.65170 -0.30400
H 	H 	0.09300 0.05140 0.67520 0.11800
H 	H 	0.23600 0.09830 0.75180 0.09300
C 	C 	0.88430 0.11870 0.62270 -0.30700
H 	H 	0.81150 0.15230 0.60550 0.12900
H 	H 	0.92780 0.10970 0.73670 0.09800
C 	C 	0.24230 0.06840 0.53330 0.40300
C 	C 	0.78020 0.06940 0.52470 0.38100
K 	K 	0.60350 0.36406 0.32600 0.64000
H 	H 	0.27900 0.17800 0.78400 0.14100
Cu	Cu	0.04667 0.60680 0.19103 0.89300
O 	O 	0.19470 0.67020 0.24500 -0.45000
O 	O 	0.26080 0.75880 0.22940 -0.31400
O 	O 	0.50370 0.73140 0.50350 -0.23900
O 	O 	0.55870 0.82010 0.52570 -0.19400
O 	O 	0.52450 0.82440 0.58670 -0.07800
O 	O 	0.83590 0.57090 0.12970 -0.48100
O 	O 	0.61670 0.55080 0.89620 -0.45800
O 	O 	0.19480 0.54860 0.10320 -0.41100
O 	O 	0.32670 0.55480 0.91410 -0.45000
N 	N 	0.97420 0.62780 0.93190 -0.12100
C 	C 	0.91980 0.68690 0.90550 0.20400
C 	C 	0.01700 0.72890 0.01450 -0.27600
C 	C 	0.77890 0.70160 0.77200 -0.30000
C 	C 	0.96990 0.78480 0.97900 0.21000
H 	H 	0.03410 0.81300 0.04830 -0.07900
C 	C 	0.73220 0.75840 0.74080 0.10400
C 	C 	0.82970 0.80010 0.84300 -0.21900
H 	H 	0.80130 0.83810 0.82050 0.09200
C 	C 	0.16840 0.71830 0.17300 0.41300
C 	C 	0.58300 0.77470 0.59260 0.24400
C 	C 	0.84800 0.58390 0.84830 -0.31400
H 	H 	0.90700 0.55140 0.82480 0.12400
H 	H 	0.76400 0.59830 0.74820 0.09500
C 	C 	0.11570 0.61870 0.87730 -0.30000
H 	H 	0.18850 0.65230 0.89450 0.13400
H 	H 	0.07220 0.60970 0.76330 0.10200
C 	C 	0.75770 0.56840 0.96670 0.43300
C 	C 	0.21980 0.56940 0.97530 0.41000
K 	K 	0.39650 0.86406 0.17400 0.64100
H 	H 	0.72100 0.67800 0.71600 0.14500
Cu	Cu	0.50000 0.00000 0.50000 0.93400
Cu	Cu	0.50000 0.50000 -0.00000 0.94100
