data_crystal

_cell_length_a 12.29700
_cell_length_b 26.05700
_cell_length_c 26.08400
_cell_angle_alpha 90.00000
_cell_angle_beta  90.00000
_cell_angle_gamma 90.00000

_symmetry_space_group_name_	'P 1'
_symmetry_space_group_name_H-M	'P 1'

loop_
_symmetry_equiv_pos_as_xyz
  x,y,z

loop_
_atom_site_label
_atom_site_type_symbol
_atom_site_fract_x
_atom_site_fract_y
_atom_site_fract_z
_atom_site_charge
Cu	Cu	0.07413 0.50640 0.96363 0.90500
Cu	Cu	0.92587 0.49360 0.46363 0.90500
Cu	Cu	0.92587 0.00640 0.53637 0.90200
Cu	Cu	0.07413 0.99360 0.03637 0.90100
Cu	Cu	0.92587 0.49360 0.03637 0.90400
Cu	Cu	0.07413 0.50640 0.53637 0.90500
Cu	Cu	0.07413 0.99360 0.46363 0.90200
Cu	Cu	0.92587 0.00640 0.96363 0.90200
Cu	Cu	0.85347 0.77572 0.75000 0.90000
Cu	Cu	0.00400 0.70302 0.75000 0.91000
Cu	Cu	0.14653 0.22428 0.25000 0.89900
Cu	Cu	0.99600 0.29698 0.25000 0.90900
Cu	Cu	0.14653 0.27572 0.75000 0.89900
Cu	Cu	0.99600 0.20302 0.75000 0.90800
Cu	Cu	0.85347 0.72428 0.25000 0.89900
Cu	Cu	0.00400 0.79698 0.25000 0.90800
H 	H 	0.20860 0.75560 0.86700 0.10900
H 	H 	0.24570 0.86730 0.97130 0.10200
H 	H 	0.99980 0.87510 0.86890 0.08200
H 	H 	0.42930 0.82450 0.97460 0.05800
H 	H 	0.33510 0.80450 0.01030 0.05600
H 	H 	0.57700 0.74020 0.05480 0.06000
H 	H 	0.48150 0.77530 0.07450 0.05900
H 	H 	0.66030 0.78160 0.11900 0.09800
H 	H 	0.90260 0.88540 0.12800 0.07800
H 	H 	0.69870 0.88650 0.00720 0.10700
H 	H 	0.79140 0.24440 0.36700 0.10900
H 	H 	0.75430 0.13270 0.47130 0.10100
H 	H 	0.00020 0.12490 0.36890 0.08200
H 	H 	0.57070 0.17550 0.47460 0.06000
H 	H 	0.66490 0.19550 0.51030 0.05900
H 	H 	0.42300 0.25980 0.55480 0.06100
H 	H 	0.51850 0.22470 0.57450 0.06000
H 	H 	0.33970 0.21840 0.61900 0.09800
H 	H 	0.09740 0.11460 0.62800 0.07800
H 	H 	0.30130 0.11350 0.50720 0.10700
H 	H 	0.79140 0.25560 0.63300 0.10800
H 	H 	0.75430 0.36730 0.52870 0.10000
H 	H 	0.00020 0.37510 0.63110 0.07700
H 	H 	0.57070 0.32450 0.52540 0.06000
H 	H 	0.66490 0.30450 0.48970 0.05900
H 	H 	0.42300 0.24020 0.44520 0.06100
H 	H 	0.51850 0.27530 0.42550 0.06000
H 	H 	0.33970 0.28160 0.38100 0.09800
H 	H 	0.09740 0.38540 0.37200 0.07800
H 	H 	0.30130 0.38650 0.49280 0.10700
H 	H 	0.20860 0.74440 0.13300 0.10800
H 	H 	0.24570 0.63270 0.02870 0.10000
H 	H 	0.99980 0.62490 0.13110 0.07700
H 	H 	0.42930 0.67550 0.02540 0.06000
H 	H 	0.33510 0.69550 0.98970 0.06100
H 	H 	0.57700 0.75980 0.94520 0.06000
H 	H 	0.48150 0.72470 0.92550 0.05900
H 	H 	0.66030 0.71840 0.88100 0.09800
H 	H 	0.90260 0.61460 0.87200 0.07800
H 	H 	0.69870 0.61350 0.99280 0.10700
H 	H 	0.79140 0.24440 0.13300 0.10900
H 	H 	0.75430 0.13270 0.02870 0.10100
H 	H 	0.00020 0.12490 0.13110 0.08200
H 	H 	0.57070 0.17550 0.02540 0.06000
H 	H 	0.66490 0.19550 0.98970 0.05900
H 	H 	0.42300 0.25980 0.94520 0.06000
H 	H 	0.51850 0.22470 0.92550 0.06000
H 	H 	0.33970 0.21840 0.88100 0.09800
H 	H 	0.09740 0.11460 0.87200 0.07800
H 	H 	0.30130 0.11350 0.99280 0.10700
H 	H 	0.20860 0.75560 0.63300 0.10900
H 	H 	0.24570 0.86730 0.52870 0.10100
H 	H 	0.99980 0.87510 0.63110 0.08200
H 	H 	0.42930 0.82450 0.52540 0.06000
H 	H 	0.33510 0.80450 0.48970 0.05900
H 	H 	0.57700 0.74020 0.44520 0.06100
H 	H 	0.48150 0.77530 0.42550 0.06000
H 	H 	0.66030 0.78160 0.38100 0.09800
H 	H 	0.90260 0.88540 0.37200 0.07800
H 	H 	0.69870 0.88650 0.49280 0.10700
H 	H 	0.20860 0.74440 0.36700 0.10800
H 	H 	0.24570 0.63270 0.47130 0.10000
H 	H 	0.99980 0.62490 0.36890 0.07700
H 	H 	0.42930 0.67550 0.47460 0.06000
H 	H 	0.33510 0.69550 0.51030 0.05900
H 	H 	0.57700 0.75980 0.55480 0.06100
H 	H 	0.48150 0.72470 0.57450 0.06000
H 	H 	0.66030 0.71840 0.61900 0.09800
H 	H 	0.90260 0.61460 0.62800 0.07800
H 	H 	0.69870 0.61350 0.50720 0.10700
H 	H 	0.79140 0.25560 0.86700 0.10800
H 	H 	0.75430 0.36730 0.97130 0.10000
H 	H 	0.00020 0.37510 0.86890 0.07800
H 	H 	0.57070 0.32450 0.97460 0.05900
H 	H 	0.66490 0.30450 0.01030 0.05700
H 	H 	0.42300 0.24020 0.05480 0.06000
H 	H 	0.51850 0.27530 0.07450 0.06000
H 	H 	0.33970 0.28160 0.11900 0.09800
H 	H 	0.09740 0.38540 0.12800 0.07800
H 	H 	0.30130 0.38650 0.00720 0.10600
C 	C 	0.03320 0.78650 0.81820 0.33000
C 	C 	0.09460 0.81170 0.86110 -0.00900
C 	C 	0.18580 0.78650 0.88120 -0.13900
C 	C 	0.24210 0.80750 0.92210 0.20100
C 	C 	0.20840 0.85350 0.94350 -0.14500
C 	C 	0.11810 0.87910 0.92330 -0.00700
C 	C 	0.06020 0.85820 0.88210 -0.05100
C 	C 	0.07770 0.92700 0.94880 0.32800
C 	C 	0.38480 0.79500 0.98310 -0.01700
C 	C 	0.52670 0.76710 0.04520 -0.02600
C 	C 	0.66650 0.83020 0.05820 0.19400
C 	C 	0.69800 0.80920 0.10500 -0.13900
C 	C 	0.78680 0.83020 0.13050 -0.01000
C 	C 	0.84300 0.87190 0.11060 -0.04200
C 	C 	0.80880 0.89320 0.06430 -0.01100
C 	C 	0.72100 0.87230 0.03820 -0.13500
C 	C 	0.83000 0.80610 0.17910 0.33500
C 	C 	0.87440 0.93580 0.04050 0.33200
C 	C 	0.96680 0.21350 0.31820 0.33000
C 	C 	0.90540 0.18830 0.36110 -0.00900
C 	C 	0.81420 0.21350 0.38120 -0.13900
C 	C 	0.75790 0.19250 0.42210 0.20000
C 	C 	0.79160 0.14650 0.44350 -0.14500
C 	C 	0.88190 0.12090 0.42330 -0.00800
C 	C 	0.93980 0.14180 0.38210 -0.05100
C 	C 	0.92230 0.07300 0.44880 0.32800
C 	C 	0.61520 0.20500 0.48310 -0.02400
C 	C 	0.47330 0.23290 0.54520 -0.02800
C 	C 	0.33350 0.16980 0.55820 0.19400
C 	C 	0.30200 0.19080 0.60500 -0.13900
C 	C 	0.21320 0.16980 0.63050 -0.01000
C 	C 	0.15700 0.12810 0.61060 -0.04200
C 	C 	0.19120 0.10680 0.56430 -0.01000
C 	C 	0.27900 0.12770 0.53820 -0.13500
C 	C 	0.17000 0.19390 0.67910 0.33500
C 	C 	0.12560 0.06420 0.54050 0.33200
C 	C 	0.96680 0.28650 0.68180 0.33300
C 	C 	0.90540 0.31170 0.63890 -0.01300
C 	C 	0.81420 0.28650 0.61880 -0.13600
C 	C 	0.75790 0.30750 0.57790 0.19800
C 	C 	0.79160 0.35350 0.55650 -0.14200
C 	C 	0.88190 0.37910 0.57670 -0.01200
C 	C 	0.93980 0.35820 0.61790 -0.04300
C 	C 	0.92230 0.42700 0.55120 0.33400
C 	C 	0.61520 0.29500 0.51690 -0.02500
C 	C 	0.47330 0.26710 0.45480 -0.02800
C 	C 	0.33350 0.33020 0.44180 0.19400
C 	C 	0.30200 0.30920 0.39500 -0.13900
C 	C 	0.21320 0.33020 0.36950 -0.01100
C 	C 	0.15700 0.37190 0.38940 -0.04200
C 	C 	0.19120 0.39320 0.43570 -0.01100
C 	C 	0.27900 0.37230 0.46180 -0.13500
C 	C 	0.17000 0.30610 0.32090 0.33500
C 	C 	0.12560 0.43580 0.45950 0.33300
C 	C 	0.03320 0.71350 0.18180 0.33300
C 	C 	0.09460 0.68830 0.13890 -0.01300
C 	C 	0.18580 0.71350 0.11880 -0.13600
C 	C 	0.24210 0.69250 0.07790 0.19800
C 	C 	0.20840 0.64650 0.05650 -0.14100
C 	C 	0.11810 0.62090 0.07670 -0.01200
C 	C 	0.06020 0.64180 0.11790 -0.04300
C 	C 	0.07770 0.57300 0.05120 0.33500
C 	C 	0.38480 0.70500 0.01690 -0.02600
C 	C 	0.52670 0.73290 0.95480 -0.02400
C 	C 	0.66650 0.66980 0.94180 0.19500
C 	C 	0.69800 0.69080 0.89500 -0.13900
C 	C 	0.78680 0.66980 0.86950 -0.01000
C 	C 	0.84300 0.62810 0.88940 -0.04200
C 	C 	0.80880 0.60680 0.93570 -0.01100
C 	C 	0.72100 0.62770 0.96180 -0.13500
C 	C 	0.83000 0.69390 0.82090 0.33500
C 	C 	0.87440 0.56420 0.95950 0.33300
C 	C 	0.96680 0.21350 0.18180 0.33000
C 	C 	0.90540 0.18830 0.13890 -0.00900
C 	C 	0.81420 0.21350 0.11880 -0.13900
C 	C 	0.75790 0.19250 0.07790 0.20000
C 	C 	0.79160 0.14650 0.05650 -0.14500
C 	C 	0.88190 0.12090 0.07670 -0.00800
C 	C 	0.93980 0.14180 0.11790 -0.05100
C 	C 	0.92230 0.07300 0.05120 0.32800
C 	C 	0.61520 0.20500 0.01690 -0.02500
C 	C 	0.47330 0.23290 0.95480 -0.02600
C 	C 	0.33350 0.16980 0.94180 0.19500
C 	C 	0.30200 0.19080 0.89500 -0.13900
C 	C 	0.21320 0.16980 0.86950 -0.01000
C 	C 	0.15700 0.12810 0.88940 -0.04200
C 	C 	0.19120 0.10680 0.93570 -0.01000
C 	C 	0.27900 0.12770 0.96180 -0.13500
C 	C 	0.17000 0.19390 0.82090 0.33500
C 	C 	0.12560 0.06420 0.95950 0.33200
C 	C 	0.03320 0.78650 0.68180 0.33000
C 	C 	0.09460 0.81170 0.63890 -0.00900
C 	C 	0.18580 0.78650 0.61880 -0.13900
C 	C 	0.24210 0.80750 0.57790 0.20000
C 	C 	0.20840 0.85350 0.55650 -0.14500
C 	C 	0.11810 0.87910 0.57670 -0.00800
C 	C 	0.06020 0.85820 0.61790 -0.05100
C 	C 	0.07770 0.92700 0.55120 0.32800
C 	C 	0.38480 0.79500 0.51690 -0.02400
C 	C 	0.52670 0.76710 0.45480 -0.02800
C 	C 	0.66650 0.83020 0.44180 0.19400
C 	C 	0.69800 0.80920 0.39500 -0.13900
C 	C 	0.78680 0.83020 0.36950 -0.01000
C 	C 	0.84300 0.87190 0.38940 -0.04200
C 	C 	0.80880 0.89320 0.43570 -0.01000
C 	C 	0.72100 0.87230 0.46180 -0.13500
C 	C 	0.83000 0.80610 0.32090 0.33500
C 	C 	0.87440 0.93580 0.45950 0.33200
C 	C 	0.03320 0.71350 0.31820 0.33300
C 	C 	0.09460 0.68830 0.36110 -0.01300
C 	C 	0.18580 0.71350 0.38120 -0.13600
C 	C 	0.24210 0.69250 0.42210 0.19800
C 	C 	0.20840 0.64650 0.44350 -0.14200
C 	C 	0.11810 0.62090 0.42330 -0.01200
C 	C 	0.06020 0.64180 0.38210 -0.04300
C 	C 	0.07770 0.57300 0.44880 0.33400
C 	C 	0.38480 0.70500 0.48310 -0.02500
C 	C 	0.52670 0.73290 0.54520 -0.02800
C 	C 	0.66650 0.66980 0.55820 0.19400
C 	C 	0.69800 0.69080 0.60500 -0.13900
C 	C 	0.78680 0.66980 0.63050 -0.01100
C 	C 	0.84300 0.62810 0.61060 -0.04200
C 	C 	0.80880 0.60680 0.56430 -0.01100
C 	C 	0.72100 0.62770 0.53820 -0.13500
C 	C 	0.83000 0.69390 0.67910 0.33500
C 	C 	0.87440 0.56420 0.54050 0.33300
C 	C 	0.96680 0.28650 0.81820 0.33300
C 	C 	0.90540 0.31170 0.86110 -0.01300
C 	C 	0.81420 0.28650 0.88120 -0.13600
C 	C 	0.75790 0.30750 0.92210 0.19900
C 	C 	0.79160 0.35350 0.94350 -0.14200
C 	C 	0.88190 0.37910 0.92330 -0.01100
C 	C 	0.93980 0.35820 0.88210 -0.04300
C 	C 	0.92230 0.42700 0.94880 0.33400
C 	C 	0.61520 0.29500 0.98310 -0.02100
C 	C 	0.47330 0.26710 0.04520 -0.02700
C 	C 	0.33350 0.33020 0.05820 0.19400
C 	C 	0.30200 0.30920 0.10500 -0.13900
C 	C 	0.21320 0.33020 0.13050 -0.01100
C 	C 	0.15700 0.37190 0.11060 -0.04200
C 	C 	0.19120 0.39320 0.06430 -0.01100
C 	C 	0.27900 0.37230 0.03820 -0.13500
C 	C 	0.17000 0.30610 0.17910 0.33500
C 	C 	0.12560 0.43580 0.04050 0.33300
C 	C 	0.45660 0.75000 -0.00000 0.04700
C 	C 	0.54340 0.25000 0.50000 0.05200
C 	C 	0.54340 0.25000 -0.00000 0.05000
C 	C 	0.45660 0.75000 0.50000 0.05200
O 	O 	0.94760 0.80776 0.80311 -0.39100
O 	O 	0.07130 0.74470 0.80240 -0.40500
O 	O 	0.99780 0.94903 0.92876 -0.39100
O 	O 	0.12470 0.93955 0.98967 -0.40100
O 	O 	0.32550 0.77810 0.93890 -0.22400
O 	O 	0.58490 0.81184 0.02822 -0.22000
O 	O 	0.78530 0.76641 0.19545 -0.39800
O 	O 	0.91360 0.82730 0.19750 -0.40200
O 	O 	0.96200 0.94671 0.06211 -0.40300
O 	O 	0.83690 0.95567 0.00002 -0.39200
O 	O 	0.05240 0.19224 0.30311 -0.39100
O 	O 	0.92870 0.25530 0.30240 -0.40500
O 	O 	0.00220 0.05097 0.42876 -0.39200
O 	O 	0.87530 0.06045 0.48967 -0.40200
O 	O 	0.67450 0.22190 0.43890 -0.22200
O 	O 	0.41510 0.18816 0.52822 -0.21900
O 	O 	0.21470 0.23359 0.69545 -0.39800
O 	O 	0.08640 0.17270 0.69750 -0.40100
O 	O 	0.03800 0.05329 0.56211 -0.40300
O 	O 	0.16310 0.04433 0.50002 -0.39100
O 	O 	0.05240 0.30776 0.69689 -0.39200
O 	O 	0.92870 0.24470 0.69760 -0.40500
O 	O 	0.00220 0.44903 0.57124 -0.39700
O 	O 	0.87530 0.43955 0.51033 -0.40200
O 	O 	0.67450 0.27810 0.56110 -0.22200
O 	O 	0.41510 0.31184 0.47178 -0.21900
O 	O 	0.21470 0.26641 0.30455 -0.39800
O 	O 	0.08640 0.32730 0.30250 -0.40200
O 	O 	0.03800 0.44671 0.43789 -0.40500
O 	O 	0.16310 0.45567 0.49998 -0.39300
O 	O 	0.94760 0.69224 0.19689 -0.39200
O 	O 	0.07130 0.75530 0.19760 -0.40600
O 	O 	0.99780 0.55097 0.07124 -0.39700
O 	O 	0.12470 0.56045 0.01033 -0.40300
O 	O 	0.32550 0.72190 0.06110 -0.22200
O 	O 	0.58490 0.68816 0.97178 -0.21900
O 	O 	0.78530 0.73359 0.80455 -0.39800
O 	O 	0.91360 0.67270 0.80250 -0.40200
O 	O 	0.96200 0.55329 0.93789 -0.40500
O 	O 	0.83690 0.54433 0.99998 -0.39200
O 	O 	0.05240 0.19224 0.19689 -0.39100
O 	O 	0.92870 0.25530 0.19760 -0.40500
O 	O 	0.00220 0.05097 0.07124 -0.39200
O 	O 	0.87530 0.06045 0.01033 -0.40200
O 	O 	0.67450 0.22190 0.06110 -0.22200
O 	O 	0.41510 0.18816 0.97178 -0.21900
O 	O 	0.21470 0.23359 0.80455 -0.39800
O 	O 	0.08640 0.17270 0.80250 -0.40100
O 	O 	0.03800 0.05329 0.93789 -0.40300
O 	O 	0.16310 0.04433 0.99998 -0.39100
O 	O 	0.94760 0.80776 0.69689 -0.39100
O 	O 	0.07130 0.74470 0.69760 -0.40500
O 	O 	0.99780 0.94903 0.57124 -0.39200
O 	O 	0.12470 0.93955 0.51033 -0.40200
O 	O 	0.32550 0.77810 0.56110 -0.22200
O 	O 	0.58490 0.81184 0.47178 -0.21900
O 	O 	0.78530 0.76641 0.30455 -0.39800
O 	O 	0.91360 0.82730 0.30250 -0.40200
O 	O 	0.96200 0.94671 0.43789 -0.40300
O 	O 	0.83690 0.95567 0.49998 -0.39100
O 	O 	0.94760 0.69224 0.30311 -0.39200
O 	O 	0.07130 0.75530 0.30240 -0.40600
O 	O 	0.99780 0.55097 0.42876 -0.39700
O 	O 	0.12470 0.56045 0.48967 -0.40200
O 	O 	0.32550 0.72190 0.43890 -0.22200
O 	O 	0.58490 0.68816 0.52822 -0.21900
O 	O 	0.78530 0.73359 0.69545 -0.39800
O 	O 	0.91360 0.67270 0.69750 -0.40200
O 	O 	0.96200 0.55329 0.56211 -0.40500
O 	O 	0.83690 0.54433 0.50002 -0.39300
O 	O 	0.05240 0.30776 0.80311 -0.39200
O 	O 	0.92870 0.24470 0.80240 -0.40500
O 	O 	0.00220 0.44903 0.92876 -0.39600
O 	O 	0.87530 0.43955 0.98967 -0.40200
O 	O 	0.67450 0.27810 0.93890 -0.22200
O 	O 	0.41510 0.31184 0.02822 -0.22000
O 	O 	0.21470 0.26641 0.19545 -0.39800
O 	O 	0.08640 0.32730 0.19750 -0.40200
O 	O 	0.03800 0.44671 0.06211 -0.40500
O 	O 	0.16310 0.45567 0.00002 -0.39300
