data_crystal

_cell_length_a 18.32600
_cell_length_b 19.03300
_cell_length_c 12.52900
_cell_angle_alpha 90.00000
_cell_angle_beta  90.00000
_cell_angle_gamma 90.00000

_symmetry_space_group_name_	'P 1'
_symmetry_space_group_name_H-M	'P 1'

loop_
_symmetry_equiv_pos_as_xyz
  x,y,z

loop_
_atom_site_label
_atom_site_type_symbol
_atom_site_fract_x
_atom_site_fract_y
_atom_site_fract_z
_atom_site_charge
Cd	Cd	0.72880 0.74842 0.38038 1.20900
Cd	Cd	0.82596 0.66327 0.55800 1.19000
O 	O 	0.72610 0.63732 0.33030 -0.45800
O 	O 	0.79157 0.57585 0.44950 -0.46000
O 	O 	0.62750 0.73900 0.47860 -0.44100
O 	O 	0.70040 0.67360 0.58050 -0.46300
O 	O 	0.66600 0.26909 0.37090 -0.45900
O 	O 	0.73350 0.32543 0.49520 -0.45300
O 	O 	0.37390 0.78400 0.59310 -0.49100
O 	O 	0.32490 0.71620 0.71610 -0.43400
O 	O 	0.58440 0.45370 0.12490 -0.21900
O 	O 	0.54040 0.58000 0.86600 -0.21800
C 	C 	0.63960 0.70190 0.55960 0.36000
C 	C 	0.57770 0.68780 0.63370 -0.06800
C 	C 	0.58590 0.64200 0.71930 -0.09400
H 	H 	0.63190 0.62060 0.73200 0.07200
C 	C 	0.52860 0.62740 0.78540 0.15400
C 	C 	0.46120 0.66120 0.77110 -0.09500
H 	H 	0.42210 0.65290 0.81910 0.07400
C 	C 	0.45240 0.70760 0.68470 -0.07100
C 	C 	0.51090 0.72040 0.61580 0.00900
H 	H 	0.50500 0.75140 0.55700 0.03200
C 	C 	0.48050 0.56350 0.93300 -0.00700
H 	H 	0.43850 0.55320 0.89000 0.05000
H 	H 	0.46900 0.60270 0.97820 0.04700
C 	C 	0.37850 0.73910 0.66360 0.37200
C 	C 	0.74640 0.58110 0.37410 0.37100
C 	C 	0.71150 0.51470 0.33390 -0.06400
C 	C 	0.72220 0.45170 0.38680 0.00100
H 	H 	0.75330 0.44990 0.44740 0.04200
C 	C 	0.68760 0.39110 0.35090 -0.05800
C 	C 	0.64330 0.39380 0.26160 -0.09700
H 	H 	0.61990 0.35250 0.23640 0.07800
C 	C 	0.63330 0.45700 0.20960 0.15400
C 	C 	0.66590 0.51840 0.24410 -0.09900
H 	H 	0.65780 0.56170 0.20820 0.07300
C 	C 	0.69660 0.32270 0.41220 0.36600
C 	C 	0.56640 0.51800 0.07120 -0.00300
H 	H 	0.60760 0.53410 0.02620 0.04200
H 	H 	0.55440 0.55540 0.12330 0.04400
Cd	Cd	0.27120 0.25158 0.38038 1.20800
Cd	Cd	0.17404 0.33673 0.55800 1.18900
O 	O 	0.27390 0.36268 0.33030 -0.45800
O 	O 	0.20843 0.42415 0.44950 -0.46000
O 	O 	0.37250 0.26100 0.47860 -0.44100
O 	O 	0.29960 0.32640 0.58050 -0.46300
O 	O 	0.33400 0.73091 0.37090 -0.45900
O 	O 	0.26650 0.67457 0.49520 -0.45400
O 	O 	0.62610 0.21600 0.59310 -0.49100
O 	O 	0.67510 0.28380 0.71610 -0.43400
O 	O 	0.41560 0.54630 0.12490 -0.21900
O 	O 	0.45960 0.42000 0.86600 -0.21800
C 	C 	0.36040 0.29810 0.55960 0.36000
C 	C 	0.42230 0.31220 0.63370 -0.06800
C 	C 	0.41410 0.35800 0.71930 -0.09400
H 	H 	0.36810 0.37940 0.73200 0.07200
C 	C 	0.47140 0.37260 0.78540 0.15400
C 	C 	0.53880 0.33880 0.77110 -0.09500
H 	H 	0.57790 0.34710 0.81910 0.07400
C 	C 	0.54760 0.29240 0.68470 -0.07100
C 	C 	0.48910 0.27960 0.61580 0.00900
H 	H 	0.49500 0.24860 0.55700 0.03200
C 	C 	0.51950 0.43650 0.93300 -0.00700
H 	H 	0.56150 0.44680 0.89000 0.05000
H 	H 	0.53100 0.39730 0.97820 0.04700
C 	C 	0.62150 0.26090 0.66360 0.37200
C 	C 	0.25360 0.41890 0.37410 0.37100
C 	C 	0.28850 0.48530 0.33390 -0.06400
C 	C 	0.27780 0.54830 0.38680 0.00100
H 	H 	0.24670 0.55010 0.44740 0.04200
C 	C 	0.31240 0.60890 0.35090 -0.05800
C 	C 	0.35670 0.60620 0.26160 -0.09700
H 	H 	0.38010 0.64750 0.23640 0.07800
C 	C 	0.36670 0.54300 0.20960 0.15400
C 	C 	0.33410 0.48160 0.24410 -0.09900
H 	H 	0.34220 0.43830 0.20820 0.07300
C 	C 	0.30340 0.67730 0.41220 0.36600
C 	C 	0.43360 0.48200 0.07120 -0.00300
H 	H 	0.39240 0.46590 0.02620 0.04200
H 	H 	0.44560 0.44460 0.12330 0.04400
Cd	Cd	0.77120 0.24842 0.61962 1.20800
Cd	Cd	0.67404 0.16327 0.44200 1.18900
O 	O 	0.77390 0.13732 0.66970 -0.45800
O 	O 	0.70843 0.07585 0.55050 -0.46000
O 	O 	0.87250 0.23900 0.52140 -0.44100
O 	O 	0.79960 0.17360 0.41950 -0.46300
O 	O 	0.83400 0.76909 0.62910 -0.45900
O 	O 	0.76650 0.82543 0.50480 -0.45300
O 	O 	0.12610 0.28400 0.40690 -0.49100
O 	O 	0.17510 0.21620 0.28390 -0.43500
O 	O 	0.91560 0.95370 0.87510 -0.21900
O 	O 	0.95960 0.08000 0.13400 -0.21800
C 	C 	0.86040 0.20190 0.44040 0.36000
C 	C 	0.92230 0.18780 0.36630 -0.06800
C 	C 	0.91410 0.14200 0.28070 -0.09400
H 	H 	0.86810 0.12060 0.26800 0.07200
C 	C 	0.97140 0.12740 0.21460 0.15500
C 	C 	0.03880 0.16120 0.22890 -0.09500
H 	H 	0.07790 0.15290 0.18090 0.07500
C 	C 	0.04760 0.20760 0.31530 -0.07200
C 	C 	0.98910 0.22040 0.38420 0.01000
H 	H 	0.99500 0.25140 0.44300 0.03200
C 	C 	0.01950 0.06350 0.06700 -0.00700
H 	H 	0.06150 0.05320 0.11000 0.05000
H 	H 	0.03100 0.10270 0.02180 0.04700
C 	C 	0.12150 0.23910 0.33640 0.37200
C 	C 	0.75360 0.08110 0.62590 0.37100
C 	C 	0.78850 0.01470 0.66610 -0.06500
C 	C 	0.77780 0.95170 0.61320 0.00200
H 	H 	0.74670 0.94990 0.55260 0.04200
C 	C 	0.81240 0.89110 0.64910 -0.05800
C 	C 	0.85670 0.89380 0.73840 -0.09700
H 	H 	0.88010 0.85250 0.76360 0.07900
C 	C 	0.86670 0.95700 0.79040 0.15500
C 	C 	0.83410 0.01840 0.75590 -0.10000
H 	H 	0.84220 0.06170 0.79180 0.07300
C 	C 	0.80340 0.82270 0.58780 0.36600
C 	C 	0.93360 0.01800 0.92880 -0.00200
H 	H 	0.89240 0.03410 0.97380 0.04200
H 	H 	0.94560 0.05540 0.87670 0.04400
Cd	Cd	0.22880 0.75158 0.61962 1.20800
Cd	Cd	0.32596 0.83673 0.44200 1.18900
O 	O 	0.22610 0.86268 0.66970 -0.45800
O 	O 	0.29157 0.92415 0.55050 -0.45900
O 	O 	0.12750 0.76100 0.52140 -0.44100
O 	O 	0.20040 0.82640 0.41950 -0.46300
O 	O 	0.16600 0.23091 0.62910 -0.45900
O 	O 	0.23350 0.17457 0.50480 -0.45400
O 	O 	0.87390 0.71600 0.40690 -0.49100
O 	O 	0.82490 0.78380 0.28390 -0.43400
O 	O 	0.08440 0.04630 0.87510 -0.22000
O 	O 	0.04040 0.92000 0.13400 -0.21900
C 	C 	0.13960 0.79810 0.44040 0.36000
C 	C 	0.07770 0.81220 0.36630 -0.06800
C 	C 	0.08590 0.85800 0.28070 -0.09400
H 	H 	0.13190 0.87940 0.26800 0.07200
C 	C 	0.02860 0.87260 0.21460 0.15400
C 	C 	0.96120 0.83880 0.22890 -0.09400
H 	H 	0.92210 0.84710 0.18090 0.07400
C 	C 	0.95240 0.79240 0.31530 -0.07000
C 	C 	0.01090 0.77960 0.38420 0.00800
H 	H 	0.00500 0.74860 0.44300 0.03200
C 	C 	0.98050 0.93650 0.06700 -0.00400
H 	H 	0.93850 0.94680 0.11000 0.05000
H 	H 	0.96900 0.89730 0.02180 0.04700
C 	C 	0.87850 0.76090 0.33640 0.37200
C 	C 	0.24640 0.91890 0.62590 0.37100
C 	C 	0.21150 0.98530 0.66610 -0.06400
C 	C 	0.22220 0.04830 0.61320 -0.00000
H 	H 	0.25330 0.05010 0.55260 0.04200
C 	C 	0.18760 0.10890 0.64910 -0.05800
C 	C 	0.14330 0.10620 0.73840 -0.09700
H 	H 	0.11990 0.14750 0.76360 0.07800
C 	C 	0.13330 0.04300 0.79040 0.15300
C 	C 	0.16590 0.98160 0.75590 -0.09900
H 	H 	0.15780 0.93830 0.79180 0.07300
C 	C 	0.19660 0.17730 0.58780 0.36600
C 	C 	0.06640 0.98200 0.92880 -0.00000
H 	H 	0.10760 0.96590 0.97380 0.04200
H 	H 	0.05440 0.94460 0.87670 0.04400
C 	C 	0.50000 0.50000 0.00250 0.02600
C 	C 	0.00000 0.00000 0.99750 0.02300
