data_crystal

_cell_length_a 12.41050
_cell_length_b 26.21720
_cell_length_c 26.22150
_cell_angle_alpha 90.00000
_cell_angle_beta  90.00000
_cell_angle_gamma 90.00000

_symmetry_space_group_name_	'P 1'
_symmetry_space_group_name_H-M	'P 1'

loop_
_symmetry_equiv_pos_as_xyz
  x,y,z

loop_
_atom_site_label
_atom_site_type_symbol
_atom_site_fract_x
_atom_site_fract_y
_atom_site_fract_z
_atom_site_charge
Zn	Zn	0.91806 0.00688 0.95920 1.19500
Zn	Zn	0.08194 0.99312 0.45920 1.19600
Zn	Zn	0.08194 0.50688 0.54080 1.19800
Zn	Zn	0.91806 0.49312 0.04080 1.19700
Zn	Zn	0.08194 0.99312 0.04080 1.19400
Zn	Zn	0.91806 0.00688 0.54080 1.19500
Zn	Zn	0.91806 0.49312 0.45920 1.19700
Zn	Zn	0.08194 0.50688 0.95920 1.19700
Zn	Zn	0.84592 0.77882 0.75000 1.19600
Zn	Zn	0.01287 0.69703 0.75000 1.20100
Zn	Zn	0.15408 0.22118 0.25000 1.19600
Zn	Zn	0.98713 0.30297 0.25000 1.20100
Zn	Zn	0.15408 0.27882 0.75000 1.19600
Zn	Zn	0.98713 0.19703 0.75000 1.20000
Zn	Zn	0.84592 0.72118 0.25000 1.19600
Zn	Zn	0.01287 0.80297 0.25000 1.20000
H 	H 	0.21070 0.75520 0.86630 0.08800
H 	H 	0.24710 0.86830 0.96990 0.08600
H 	H 	0.00350 0.87320 0.86960 0.05200
H 	H 	0.42860 0.82410 0.97530 0.05000
H 	H 	0.33510 0.80410 0.01070 0.04800
H 	H 	0.57530 0.74040 0.05460 0.05000
H 	H 	0.48200 0.77630 0.07390 0.04700
H 	H 	0.65930 0.78120 0.11810 0.08300
H 	H 	0.90060 0.88430 0.12590 0.05300
H 	H 	0.69790 0.88510 0.00610 0.09000
H 	H 	0.78930 0.24480 0.36630 0.08800
H 	H 	0.75290 0.13170 0.46990 0.08600
H 	H 	0.99650 0.12680 0.36960 0.05200
H 	H 	0.57140 0.17590 0.47530 0.05200
H 	H 	0.66490 0.19590 0.51070 0.05200
H 	H 	0.42470 0.25960 0.55460 0.05100
H 	H 	0.51800 0.22370 0.57390 0.04800
H 	H 	0.34070 0.21880 0.61810 0.08300
H 	H 	0.09940 0.11570 0.62590 0.05300
H 	H 	0.30210 0.11490 0.50610 0.09000
H 	H 	0.78930 0.25520 0.63370 0.08700
H 	H 	0.75290 0.36830 0.53010 0.08500
H 	H 	0.99650 0.37320 0.63040 0.05200
H 	H 	0.57140 0.32410 0.52470 0.05200
H 	H 	0.66490 0.30410 0.48930 0.05200
H 	H 	0.42470 0.24040 0.44540 0.05100
H 	H 	0.51800 0.27630 0.42610 0.04800
H 	H 	0.34070 0.28120 0.38190 0.08300
H 	H 	0.09940 0.38430 0.37410 0.05200
H 	H 	0.30210 0.38510 0.49390 0.09000
H 	H 	0.21070 0.74480 0.13370 0.08700
H 	H 	0.24710 0.63170 0.03010 0.08500
H 	H 	0.00350 0.62680 0.13040 0.05200
H 	H 	0.42860 0.67590 0.02470 0.05100
H 	H 	0.33510 0.69590 0.98930 0.05300
H 	H 	0.57530 0.75960 0.94540 0.05000
H 	H 	0.48200 0.72370 0.92610 0.04700
H 	H 	0.65930 0.71880 0.88190 0.08300
H 	H 	0.90060 0.61570 0.87410 0.05200
H 	H 	0.69790 0.61490 0.99390 0.09000
H 	H 	0.78930 0.24480 0.13370 0.08800
H 	H 	0.75290 0.13170 0.03010 0.08600
H 	H 	0.99650 0.12680 0.13040 0.05200
H 	H 	0.57140 0.17590 0.02470 0.05100
H 	H 	0.66490 0.19590 0.98930 0.05100
H 	H 	0.42470 0.25960 0.94540 0.05100
H 	H 	0.51800 0.22370 0.92610 0.04800
H 	H 	0.34070 0.21880 0.88190 0.08300
H 	H 	0.09940 0.11570 0.87410 0.05300
H 	H 	0.30210 0.11490 0.99390 0.09000
H 	H 	0.21070 0.75520 0.63370 0.08800
H 	H 	0.24710 0.86830 0.53010 0.08600
H 	H 	0.00350 0.87320 0.63040 0.05200
H 	H 	0.42860 0.82410 0.52470 0.05200
H 	H 	0.33510 0.80410 0.48930 0.05200
H 	H 	0.57530 0.74040 0.44540 0.05100
H 	H 	0.48200 0.77630 0.42610 0.04800
H 	H 	0.65930 0.78120 0.38190 0.08300
H 	H 	0.90060 0.88430 0.37410 0.05300
H 	H 	0.69790 0.88510 0.49390 0.09000
H 	H 	0.21070 0.74480 0.36630 0.08700
H 	H 	0.24710 0.63170 0.46990 0.08500
H 	H 	0.00350 0.62680 0.36960 0.05200
H 	H 	0.42860 0.67590 0.47530 0.05200
H 	H 	0.33510 0.69590 0.51070 0.05200
H 	H 	0.57530 0.75960 0.55460 0.05100
H 	H 	0.48200 0.72370 0.57390 0.04800
H 	H 	0.65930 0.71880 0.61810 0.08300
H 	H 	0.90060 0.61570 0.62590 0.05200
H 	H 	0.69790 0.61490 0.50610 0.09000
H 	H 	0.78930 0.25520 0.86630 0.08700
H 	H 	0.75290 0.36830 0.96990 0.08500
H 	H 	0.99650 0.37320 0.86960 0.05200
H 	H 	0.57140 0.32410 0.97530 0.05200
H 	H 	0.66490 0.30410 0.01070 0.05200
H 	H 	0.42470 0.24040 0.05460 0.05100
H 	H 	0.51800 0.27630 0.07390 0.04800
H 	H 	0.34070 0.28120 0.11810 0.08300
H 	H 	0.09940 0.38430 0.12590 0.05200
H 	H 	0.30210 0.38510 0.00610 0.09000
C 	C 	0.03480 0.78600 0.81990 0.37800
C 	C 	0.09660 0.81070 0.86210 -0.05700
C 	C 	0.18730 0.78550 0.88100 -0.10300
C 	C 	0.24320 0.80720 0.92300 0.17300
C 	C 	0.20960 0.85340 0.94300 -0.12100
C 	C 	0.11910 0.87760 0.92260 -0.04300
C 	C 	0.06360 0.85660 0.88280 -0.00800
C 	C 	0.07890 0.92630 0.94820 0.37100
C 	C 	0.38440 0.79470 0.98360 -0.00700
C 	C 	0.52620 0.76750 0.04470 -0.00400
C 	C 	0.66640 0.82910 0.05750 0.16800
C 	C 	0.69700 0.80840 0.10400 -0.11200
C 	C 	0.78630 0.82950 0.12940 -0.05400
C 	C 	0.84160 0.87060 0.10880 -0.00600
C 	C 	0.80870 0.89150 0.06220 -0.05000
C 	C 	0.72070 0.87110 0.03680 -0.10800
C 	C 	0.82810 0.80550 0.17770 0.38900
C 	C 	0.87110 0.93440 0.03840 0.36700
C 	C 	0.96520 0.21400 0.31990 0.37800
C 	C 	0.90340 0.18930 0.36210 -0.05700
C 	C 	0.81270 0.21450 0.38100 -0.10200
C 	C 	0.75680 0.19280 0.42300 0.17200
C 	C 	0.79040 0.14660 0.44300 -0.12000
C 	C 	0.88090 0.12240 0.42260 -0.04400
C 	C 	0.93640 0.14340 0.38280 -0.00800
C 	C 	0.92110 0.07370 0.44820 0.37100
C 	C 	0.61560 0.20530 0.48360 -0.01500
C 	C 	0.47380 0.23250 0.54470 -0.00600
C 	C 	0.33360 0.17090 0.55750 0.16800
C 	C 	0.30300 0.19160 0.60400 -0.11100
C 	C 	0.21370 0.17050 0.62940 -0.05500
C 	C 	0.15840 0.12940 0.60880 -0.00500
C 	C 	0.19130 0.10850 0.56220 -0.05000
C 	C 	0.27930 0.12890 0.53680 -0.10700
C 	C 	0.17190 0.19450 0.67770 0.38900
C 	C 	0.12890 0.06560 0.53840 0.37100
C 	C 	0.96520 0.28600 0.68010 0.38000
C 	C 	0.90340 0.31070 0.63790 -0.05900
C 	C 	0.81270 0.28550 0.61900 -0.10100
C 	C 	0.75680 0.30720 0.57700 0.17100
C 	C 	0.79040 0.35340 0.55700 -0.11900
C 	C 	0.88090 0.37760 0.57740 -0.04600
C 	C 	0.93640 0.35660 0.61720 -0.00600
C 	C 	0.92110 0.42630 0.55180 0.37700
C 	C 	0.61560 0.29470 0.51640 -0.01500
C 	C 	0.47380 0.26750 0.45530 -0.00600
C 	C 	0.33360 0.32910 0.44250 0.16800
C 	C 	0.30300 0.30840 0.39600 -0.11100
C 	C 	0.21370 0.32950 0.37060 -0.05500
C 	C 	0.15840 0.37060 0.39120 -0.00500
C 	C 	0.19130 0.39150 0.43780 -0.05100
C 	C 	0.27930 0.37110 0.46320 -0.10700
C 	C 	0.17190 0.30550 0.32230 0.39000
C 	C 	0.12890 0.43440 0.46160 0.37100
C 	C 	0.03480 0.71400 0.18010 0.38000
C 	C 	0.09660 0.68930 0.13790 -0.05900
C 	C 	0.18730 0.71450 0.11900 -0.10100
C 	C 	0.24320 0.69280 0.07700 0.17100
C 	C 	0.20960 0.64660 0.05700 -0.11800
C 	C 	0.11910 0.62240 0.07740 -0.04600
C 	C 	0.06360 0.64340 0.11720 -0.00600
C 	C 	0.07890 0.57370 0.05180 0.37700
C 	C 	0.38440 0.70530 0.01640 -0.01500
C 	C 	0.52620 0.73250 0.95530 -0.00300
C 	C 	0.66640 0.67090 0.94250 0.16800
C 	C 	0.69700 0.69160 0.89600 -0.11100
C 	C 	0.78630 0.67050 0.87060 -0.05500
C 	C 	0.84160 0.62940 0.89120 -0.00500
C 	C 	0.80870 0.60850 0.93780 -0.05100
C 	C 	0.72070 0.62890 0.96320 -0.10600
C 	C 	0.82810 0.69450 0.82230 0.39000
C 	C 	0.87110 0.56560 0.96160 0.37200
C 	C 	0.96520 0.21400 0.18010 0.37800
C 	C 	0.90340 0.18930 0.13790 -0.05700
C 	C 	0.81270 0.21450 0.11900 -0.10200
C 	C 	0.75680 0.19280 0.07700 0.17200
C 	C 	0.79040 0.14660 0.05700 -0.12000
C 	C 	0.88090 0.12240 0.07740 -0.04400
C 	C 	0.93640 0.14340 0.11720 -0.00800
C 	C 	0.92110 0.07370 0.05180 0.37100
C 	C 	0.61560 0.20530 0.01640 -0.01400
C 	C 	0.47380 0.23250 0.95530 -0.00600
C 	C 	0.33360 0.17090 0.94250 0.16800
C 	C 	0.30300 0.19160 0.89600 -0.11200
C 	C 	0.21370 0.17050 0.87060 -0.05500
C 	C 	0.15840 0.12940 0.89120 -0.00600
C 	C 	0.19130 0.10850 0.93780 -0.05000
C 	C 	0.27930 0.12890 0.96320 -0.10700
C 	C 	0.17190 0.19450 0.82230 0.38900
C 	C 	0.12890 0.06560 0.96160 0.36900
C 	C 	0.03480 0.78600 0.68010 0.37800
C 	C 	0.09660 0.81070 0.63790 -0.05700
C 	C 	0.18730 0.78550 0.61900 -0.10200
C 	C 	0.24320 0.80720 0.57700 0.17200
C 	C 	0.20960 0.85340 0.55700 -0.12000
C 	C 	0.11910 0.87760 0.57740 -0.04400
C 	C 	0.06360 0.85660 0.61720 -0.00800
C 	C 	0.07890 0.92630 0.55180 0.37100
C 	C 	0.38440 0.79470 0.51640 -0.01500
C 	C 	0.52620 0.76750 0.45530 -0.00600
C 	C 	0.66640 0.82910 0.44250 0.16800
C 	C 	0.69700 0.80840 0.39600 -0.11100
C 	C 	0.78630 0.82950 0.37060 -0.05500
C 	C 	0.84160 0.87060 0.39120 -0.00500
C 	C 	0.80870 0.89150 0.43780 -0.05000
C 	C 	0.72070 0.87110 0.46320 -0.10700
C 	C 	0.82810 0.80550 0.32230 0.38900
C 	C 	0.87110 0.93440 0.46160 0.37100
C 	C 	0.03480 0.71400 0.31990 0.38000
C 	C 	0.09660 0.68930 0.36210 -0.05900
C 	C 	0.18730 0.71450 0.38100 -0.10100
C 	C 	0.24320 0.69280 0.42300 0.17100
C 	C 	0.20960 0.64660 0.44300 -0.11900
C 	C 	0.11910 0.62240 0.42260 -0.04600
C 	C 	0.06360 0.64340 0.38280 -0.00600
C 	C 	0.07890 0.57370 0.44820 0.37700
C 	C 	0.38440 0.70530 0.48360 -0.01500
C 	C 	0.52620 0.73250 0.54470 -0.00600
C 	C 	0.66640 0.67090 0.55750 0.16800
C 	C 	0.69700 0.69160 0.60400 -0.11100
C 	C 	0.78630 0.67050 0.62940 -0.05500
C 	C 	0.84160 0.62940 0.60880 -0.00500
C 	C 	0.80870 0.60850 0.56220 -0.05100
C 	C 	0.72070 0.62890 0.53680 -0.10700
C 	C 	0.82810 0.69450 0.67770 0.39000
C 	C 	0.87110 0.56560 0.53840 0.37100
C 	C 	0.96520 0.28600 0.81990 0.38000
C 	C 	0.90340 0.31070 0.86210 -0.05900
C 	C 	0.81270 0.28550 0.88100 -0.10100
C 	C 	0.75680 0.30720 0.92300 0.17100
C 	C 	0.79040 0.35340 0.94300 -0.11900
C 	C 	0.88090 0.37760 0.92260 -0.04600
C 	C 	0.93640 0.35660 0.88280 -0.00600
C 	C 	0.92110 0.42630 0.94820 0.37700
C 	C 	0.61560 0.29470 0.98360 -0.01500
C 	C 	0.47380 0.26750 0.04470 -0.00600
C 	C 	0.33360 0.32910 0.05750 0.16800
C 	C 	0.30300 0.30840 0.10400 -0.11100
C 	C 	0.21370 0.32950 0.12940 -0.05500
C 	C 	0.15840 0.37060 0.10880 -0.00500
C 	C 	0.19130 0.39150 0.06220 -0.05100
C 	C 	0.27930 0.37110 0.03680 -0.10700
C 	C 	0.17190 0.30550 0.17770 0.39000
C 	C 	0.12890 0.43440 0.03840 0.37000
C 	C 	0.45490 0.75000 -0.00000 0.02900
C 	C 	0.54510 0.25000 0.50000 0.03400
C 	C 	0.54510 0.25000 -0.00000 0.03400
C 	C 	0.45490 0.75000 0.50000 0.03400
O 	O 	0.95150 0.80560 0.80388 -0.47200
O 	O 	0.07440 0.74370 0.80340 -0.47100
O 	O 	0.99990 0.94810 0.92710 -0.46200
O 	O 	0.12500 0.93943 0.98810 -0.47800
O 	O 	0.32560 0.77795 0.93940 -0.22300
O 	O 	0.58460 0.81050 0.02777 -0.22200
O 	O 	0.78360 0.76697 0.19426 -0.47700
O 	O 	0.90940 0.82750 0.19730 -0.48200
O 	O 	0.95740 0.94670 0.06020 -0.47800
O 	O 	0.83310 0.95500 0.99840 -0.46200
O 	O 	0.04850 0.19440 0.30388 -0.47200
O 	O 	0.92560 0.25630 0.30340 -0.47100
O 	O 	0.00010 0.05190 0.42710 -0.46300
O 	O 	0.87500 0.06057 0.48810 -0.47900
O 	O 	0.67440 0.22205 0.43940 -0.22200
O 	O 	0.41540 0.18950 0.52777 -0.22000
O 	O 	0.21640 0.23303 0.69426 -0.47700
O 	O 	0.09060 0.17250 0.69730 -0.48200
O 	O 	0.04260 0.05330 0.56020 -0.47800
O 	O 	0.16690 0.04500 0.49840 -0.46500
O 	O 	0.04850 0.30560 0.69612 -0.47400
O 	O 	0.92560 0.24370 0.69660 -0.47200
O 	O 	0.00010 0.44810 0.57290 -0.46900
O 	O 	0.87500 0.43943 0.51190 -0.47900
O 	O 	0.67440 0.27795 0.56060 -0.22200
O 	O 	0.41540 0.31050 0.47223 -0.22000
O 	O 	0.21640 0.26697 0.30574 -0.47700
O 	O 	0.09060 0.32750 0.30270 -0.48300
O 	O 	0.04260 0.44670 0.43980 -0.48100
O 	O 	0.16690 0.45500 0.50160 -0.46700
O 	O 	0.95150 0.69440 0.19612 -0.47400
O 	O 	0.07440 0.75630 0.19660 -0.47200
O 	O 	0.99990 0.55190 0.07290 -0.46900
O 	O 	0.12500 0.56057 0.01190 -0.47900
O 	O 	0.32560 0.72205 0.06060 -0.22200
O 	O 	0.58460 0.68950 0.97223 -0.22000
O 	O 	0.78360 0.73303 0.80574 -0.47700
O 	O 	0.90940 0.67250 0.80270 -0.48300
O 	O 	0.95740 0.55330 0.93980 -0.48100
O 	O 	0.83310 0.54500 0.00160 -0.46800
O 	O 	0.04850 0.19440 0.19612 -0.47200
O 	O 	0.92560 0.25630 0.19660 -0.47100
O 	O 	0.00010 0.05190 0.07290 -0.46200
O 	O 	0.87500 0.06057 0.01190 -0.47800
O 	O 	0.67440 0.22205 0.06060 -0.22200
O 	O 	0.41540 0.18950 0.97223 -0.22100
O 	O 	0.21640 0.23303 0.80574 -0.47700
O 	O 	0.09060 0.17250 0.80270 -0.48200
O 	O 	0.04260 0.05330 0.93980 -0.47900
O 	O 	0.16690 0.04500 0.00160 -0.46400
O 	O 	0.95150 0.80560 0.69612 -0.47200
O 	O 	0.07440 0.74370 0.69660 -0.47100
O 	O 	0.99990 0.94810 0.57290 -0.46300
O 	O 	0.12500 0.93943 0.51190 -0.47900
O 	O 	0.32560 0.77795 0.56060 -0.22200
O 	O 	0.58460 0.81050 0.47223 -0.22000
O 	O 	0.78360 0.76697 0.30574 -0.47700
O 	O 	0.90940 0.82750 0.30270 -0.48200
O 	O 	0.95740 0.94670 0.43980 -0.47800
O 	O 	0.83310 0.95500 0.50160 -0.46500
O 	O 	0.95150 0.69440 0.30388 -0.47400
O 	O 	0.07440 0.75630 0.30340 -0.47200
O 	O 	0.99990 0.55190 0.42710 -0.46900
O 	O 	0.12500 0.56057 0.48810 -0.47900
O 	O 	0.32560 0.72205 0.43940 -0.22200
O 	O 	0.58460 0.68950 0.52777 -0.22000
O 	O 	0.78360 0.73303 0.69426 -0.47700
O 	O 	0.90940 0.67250 0.69730 -0.48300
O 	O 	0.95740 0.55330 0.56020 -0.48100
O 	O 	0.83310 0.54500 0.49840 -0.46700
O 	O 	0.04850 0.30560 0.80388 -0.47400
O 	O 	0.92560 0.24370 0.80340 -0.47200
O 	O 	0.00010 0.44810 0.92710 -0.46900
O 	O 	0.87500 0.43943 0.98810 -0.47800
O 	O 	0.67440 0.27795 0.93940 -0.22200
O 	O 	0.41540 0.31050 0.02777 -0.22000
O 	O 	0.21640 0.26697 0.19426 -0.47700
O 	O 	0.09060 0.32750 0.19730 -0.48300
O 	O 	0.04260 0.44670 0.06020 -0.48100
O 	O 	0.16690 0.45500 0.99840 -0.46600
