data_crystal

_cell_length_a 7.25620
_cell_length_b 19.35860
_cell_length_c 25.93950
_cell_angle_alpha 90.00000
_cell_angle_beta  90.00000
_cell_angle_gamma 90.00000

_symmetry_space_group_name_	'P 1'
_symmetry_space_group_name_H-M	'P 1'

loop_
_symmetry_equiv_pos_as_xyz
  x,y,z

loop_
_atom_site_label
_atom_site_type_symbol
_atom_site_fract_x
_atom_site_fract_y
_atom_site_fract_z
_atom_site_charge
Tb	Tb	0.62977 0.69257 0.73851 1.34300
O 	O 	0.21950 0.18350 0.28160 -0.46100
O 	O 	0.49600 0.17210 0.24460 -0.45800
O 	O 	0.83160 0.76680 0.66670 -0.41000
O 	O 	0.95310 0.87080 0.65380 -0.31800
O 	O 	0.41890 0.45020 0.24980 -0.36400
O 	O 	0.57160 0.49860 0.18540 -0.23000
C 	C 	0.36280 0.14960 0.27200 0.36900
C 	C 	0.37870 0.07730 0.29040 -0.15000
C 	C 	0.47650 0.02890 0.26300 0.04300
H 	H 	0.52780 0.04120 0.23060 0.01700
C 	C 	0.50210 0.96210 0.28170 -0.10500
H 	H 	0.56190 0.92820 0.26110 0.07600
C 	C 	0.44000 0.94570 0.33030 0.07100
C 	C 	0.33800 0.99400 0.35820 -0.10500
H 	H 	0.29250 0.98240 0.39150 0.06700
C 	C 	0.30240 0.05910 0.33780 0.03000
H 	H 	0.22670 0.09080 0.35600 0.00400
C 	C 	0.48710 0.87680 0.35360 -0.03500
C 	C 	0.49150 0.81710 0.32390 0.01100
C 	C 	0.85780 0.81890 0.63940 0.34100
C 	C 	0.78810 0.81780 0.58510 -0.12300
C 	C 	0.82000 0.87470 0.55120 0.04400
H 	H 	0.88490 0.91420 0.56310 0.03400
C 	C 	0.75730 0.87220 0.50180 -0.12400
H 	H 	0.77550 0.91090 0.48000 0.07200
C 	C 	0.66550 0.81320 0.48220 0.07800
C 	C 	0.64290 0.75730 0.51560 -0.12700
H 	H 	0.58410 0.71660 0.50330 0.08000
C 	C 	0.70310 0.75920 0.56580 0.05700
H 	H 	0.68640 0.72010 0.58740 0.01600
C 	C 	0.59670 0.81240 0.42860 -0.04200
C 	C 	0.53800 0.87540 0.40620 0.00200
C 	C 	0.59510 0.75300 0.39890 0.01200
C 	C 	0.54160 0.75430 0.34680 -0.04200
C 	C 	0.52790 0.68980 0.31630 0.08600
C 	C 	0.57270 0.68820 0.26420 -0.12700
H 	H 	0.61060 0.72970 0.24780 0.07700
C 	C 	0.56380 0.62740 0.23530 0.05100
H 	H 	0.59550 0.62730 0.19970 0.02700
C 	C 	0.50740 0.56690 0.25970 -0.12400
C 	C 	0.45450 0.56830 0.31140 0.05400
H 	H 	0.40820 0.52770 0.32730 0.01600
C 	C 	0.46940 0.62870 0.33940 -0.12800
H 	H 	0.43930 0.62850 0.37500 0.07700
C 	C 	0.49500 0.50000 0.23210 0.34200
Tb	Tb	0.37023 0.30743 0.23851 1.34100
O 	O 	0.78050 0.81650 0.78160 -0.46800
O 	O 	0.50400 0.82790 0.74460 -0.46500
O 	O 	0.16840 0.23320 0.16670 -0.40800
O 	O 	0.04690 0.12920 0.15380 -0.31700
O 	O 	0.58110 0.54980 0.74980 -0.36400
O 	O 	0.42840 0.50140 0.68540 -0.23100
C 	C 	0.63720 0.85040 0.77200 0.39400
C 	C 	0.62130 0.92270 0.79040 -0.21300
C 	C 	0.52350 0.97110 0.76300 0.14400
H 	H 	0.47220 0.95880 0.73060 -0.01000
C 	C 	0.49790 0.03790 0.78170 -0.20400
H 	H 	0.43810 0.07180 0.76110 0.10300
C 	C 	0.56000 0.05430 0.83030 0.13100
C 	C 	0.66200 0.00600 0.85820 -0.20300
H 	H 	0.70750 0.01760 0.89150 0.09200
C 	C 	0.69760 0.94090 0.83780 0.13000
H 	H 	0.77330 0.90920 0.85600 -0.02300
C 	C 	0.51290 0.12320 0.85360 -0.05400
C 	C 	0.50850 0.18290 0.82390 0.01500
C 	C 	0.14220 0.18110 0.13940 0.33300
C 	C 	0.21190 0.18220 0.08510 -0.10100
C 	C 	0.18000 0.12530 0.05120 0.00800
H 	H 	0.11510 0.08580 0.06310 0.04400
C 	C 	0.24270 0.12780 0.00180 -0.06700
H 	H 	0.22450 0.08910 0.98000 0.04400
C 	C 	0.33450 0.18680 0.98220 0.03200
C 	C 	0.35710 0.24270 0.01560 -0.08800
H 	H 	0.41590 0.28340 0.00330 0.07000
C 	C 	0.29690 0.24080 0.06580 0.02900
H 	H 	0.31360 0.27990 0.08740 0.02500
C 	C 	0.40330 0.18760 0.92860 -0.02800
C 	C 	0.46200 0.12460 0.90620 -0.00100
C 	C 	0.40490 0.24700 0.89890 0.00600
C 	C 	0.45840 0.24570 0.84680 -0.04100
C 	C 	0.47210 0.31020 0.81630 0.08500
C 	C 	0.42730 0.31180 0.76420 -0.12700
H 	H 	0.38940 0.27030 0.74780 0.07500
C 	C 	0.43620 0.37260 0.73530 0.05000
H 	H 	0.40450 0.37270 0.69970 0.02500
C 	C 	0.49260 0.43310 0.75970 -0.12400
C 	C 	0.54550 0.43170 0.81140 0.05400
H 	H 	0.59180 0.47230 0.82730 0.01600
C 	C 	0.53060 0.37130 0.83940 -0.12800
H 	H 	0.56070 0.37150 0.87500 0.07600
C 	C 	0.50500 0.50000 0.73210 0.34100
Tb	Tb	0.12977 0.80743 0.73851 1.33500
O 	O 	0.71950 0.31650 0.28160 -0.46600
O 	O 	0.99600 0.32790 0.24460 -0.46300
O 	O 	0.33160 0.73320 0.66670 -0.41200
O 	O 	0.45310 0.62920 0.65380 -0.32100
O 	O 	0.91890 0.04980 0.24980 -0.36100
O 	O 	0.07160 0.00140 0.18540 -0.22600
C 	C 	0.86280 0.35040 0.27200 0.37800
C 	C 	0.87870 0.42270 0.29040 -0.17300
C 	C 	0.97650 0.47110 0.26300 0.07300
H 	H 	0.02780 0.45880 0.23060 0.01300
C 	C 	0.00210 0.53790 0.28170 -0.13500
H 	H 	0.06190 0.57180 0.26110 0.08500
C 	C 	0.94000 0.55430 0.33030 0.09000
C 	C 	0.83800 0.50600 0.35820 -0.14500
H 	H 	0.79250 0.51760 0.39150 0.07700
C 	C 	0.80240 0.44090 0.33780 0.07100
H 	H 	0.72670 0.40920 0.35600 -0.00700
C 	C 	0.98710 0.62320 0.35360 -0.04300
C 	C 	0.99150 0.68290 0.32390 0.00900
C 	C 	0.35780 0.68110 0.63940 0.34100
C 	C 	0.28810 0.68220 0.58510 -0.12400
C 	C 	0.32000 0.62530 0.55120 0.04300
H 	H 	0.38490 0.58580 0.56310 0.03200
C 	C 	0.25730 0.62780 0.50180 -0.12500
H 	H 	0.27550 0.58910 0.48000 0.07100
C 	C 	0.16550 0.68680 0.48220 0.07800
C 	C 	0.14290 0.74270 0.51560 -0.12800
H 	H 	0.08410 0.78340 0.50330 0.08000
C 	C 	0.20310 0.74080 0.56580 0.05700
H 	H 	0.18640 0.77990 0.58740 0.01500
C 	C 	0.09670 0.68760 0.42860 -0.04200
C 	C 	0.03800 0.62460 0.40620 0.00300
C 	C 	0.09510 0.74700 0.39890 0.01100
C 	C 	0.04160 0.74570 0.34680 -0.03700
C 	C 	0.02790 0.81020 0.31630 0.07900
C 	C 	0.07270 0.81180 0.26420 -0.11300
H 	H 	0.11060 0.77030 0.24780 0.07300
C 	C 	0.06380 0.87260 0.23530 0.03200
H 	H 	0.09550 0.87270 0.19970 0.03700
C 	C 	0.00740 0.93310 0.25970 -0.08800
C 	C 	0.95450 0.93170 0.31140 0.03200
H 	H 	0.90820 0.97230 0.32730 0.02700
C 	C 	0.96940 0.87130 0.33940 -0.11700
H 	H 	0.93930 0.87150 0.37500 0.07300
C 	C 	0.99500 0.00000 0.23210 0.31000
Tb	Tb	0.87023 0.19257 0.23851 1.32800
O 	O 	0.28050 0.68350 0.78160 -0.46600
O 	O 	0.00400 0.67210 0.74460 -0.46400
O 	O 	0.66840 0.26680 0.16670 -0.41000
O 	O 	0.54690 0.37080 0.15380 -0.31800
O 	O 	0.08110 0.95020 0.74980 -0.34200
O 	O 	0.92840 0.99860 0.68540 -0.20700
C 	C 	0.13720 0.64960 0.77200 0.37800
C 	C 	0.12130 0.57730 0.79040 -0.17200
C 	C 	0.02350 0.52890 0.76300 0.07300
H 	H 	0.97220 0.54120 0.73060 0.01300
C 	C 	0.99790 0.46210 0.78170 -0.13500
H 	H 	0.93810 0.42820 0.76110 0.08400
C 	C 	0.06000 0.44570 0.83030 0.08900
C 	C 	0.16200 0.49400 0.85820 -0.14500
H 	H 	0.20750 0.48240 0.89150 0.07600
C 	C 	0.19760 0.55910 0.83780 0.07000
H 	H 	0.27330 0.59080 0.85600 -0.00700
C 	C 	0.01290 0.37680 0.85360 -0.04000
C 	C 	0.00850 0.31710 0.82390 0.00700
C 	C 	0.64220 0.31890 0.13940 0.33300
C 	C 	0.71190 0.31780 0.08510 -0.10300
C 	C 	0.68000 0.37470 0.05120 0.01000
H 	H 	0.61510 0.41420 0.06310 0.04500
C 	C 	0.74270 0.37220 0.00180 -0.06900
H 	H 	0.72450 0.41090 0.98000 0.04700
C 	C 	0.83450 0.31320 0.98220 0.03400
C 	C 	0.85710 0.25730 0.01560 -0.09000
H 	H 	0.91590 0.21660 0.00330 0.07000
C 	C 	0.79690 0.25920 0.06580 0.03000
H 	H 	0.81360 0.22010 0.08740 0.02300
C 	C 	0.90330 0.31240 0.92860 -0.02700
C 	C 	0.96200 0.37540 0.90620 -0.00200
C 	C 	0.90490 0.25300 0.89890 0.00400
C 	C 	0.95840 0.25430 0.84680 -0.03500
C 	C 	0.97210 0.18980 0.81630 0.08000
C 	C 	0.92730 0.18820 0.76420 -0.11800
H 	H 	0.88940 0.22970 0.74780 0.07300
C 	C 	0.93620 0.12740 0.73530 0.03600
H 	H 	0.90450 0.12730 0.69970 0.02800
C 	C 	0.99260 0.06690 0.75970 -0.10200
C 	C 	0.04550 0.06830 0.81140 0.03600
H 	H 	0.09180 0.02770 0.82730 0.01800
C 	C 	0.03060 0.12870 0.83940 -0.12100
H 	H 	0.06070 0.12850 0.87500 0.07300
C 	C 	0.00500 0.00000 0.73210 0.29400
