data_crystal

_cell_length_a 8.94500
_cell_length_b 14.93600
_cell_length_c 12.40800
_cell_angle_alpha 90.00000
_cell_angle_beta  108.53100
_cell_angle_gamma 90.00000

_symmetry_space_group_name_	'P 1'
_symmetry_space_group_name_H-M	'P 1'

loop_
_symmetry_equiv_pos_as_xyz
  x,y,z

loop_
_atom_site_label
_atom_site_type_symbol
_atom_site_fract_x
_atom_site_fract_y
_atom_site_fract_z
_atom_site_charge
Fe	Fe	0.12132 0.04953 0.67924 1.23900
Fe	Fe	0.23500 0.20554 0.90427 1.24400
Cl	Cl	0.08520 0.94945 0.80424 -0.40800
Cl	Cl	0.08090 0.31250 0.79043 -0.40700
O 	O 	0.24820 0.28490 0.04870 -0.28200
O 	O 	0.25880 0.13390 0.78110 -0.67200
O 	O 	0.30560 0.99230 0.64150 -0.29200
O 	O 	0.61390 0.36090 0.04520 -0.28700
O 	O 	0.35790 0.88970 0.52490 -0.27900
O 	O 	0.05150 0.85820 0.43250 -0.31100
O 	O 	0.99690 0.96420 0.54330 -0.23400
O 	O 	0.45070 0.26260 0.93070 -0.31600
O 	O 	0.40910 0.38820 0.15770 -0.30000
C 	C 	0.48900 0.31710 0.01290 0.25800
C 	C 	0.26630 0.93480 0.56240 0.24100
C 	C 	0.08760 0.91860 0.50790 0.19800
C 	C 	0.37020 0.33030 0.07850 0.22900
H 	H 	0.31430 0.16370 0.74940 0.30800
Fe	Fe	0.62132 0.54953 0.67924 1.25400
Fe	Fe	0.73500 0.70554 0.90427 1.24800
Cl	Cl	0.58520 0.44945 0.80424 -0.38600
Cl	Cl	0.58090 0.81250 0.79043 -0.37700
O 	O 	0.74820 0.78490 0.04870 -0.27100
O 	O 	0.75880 0.63390 0.78110 -0.66700
O 	O 	0.80560 0.49230 0.64150 -0.28100
O 	O 	0.11390 0.86090 0.04520 -0.32900
O 	O 	0.85790 0.38970 0.52490 -0.26800
O 	O 	0.55150 0.35820 0.43250 -0.31300
O 	O 	0.49690 0.46420 0.54330 -0.28600
O 	O 	0.95070 0.76260 0.93070 -0.31300
O 	O 	0.90910 0.88820 0.15770 -0.27400
C 	C 	0.98900 0.81710 0.01290 0.30400
C 	C 	0.76630 0.43480 0.56240 0.23000
C 	C 	0.58760 0.41860 0.50790 0.24600
C 	C 	0.87020 0.83030 0.07850 0.21900
H 	H 	0.81430 0.66370 0.74940 0.31300
Fe	Fe	0.12132 0.95047 0.17924 1.24100
Fe	Fe	0.23500 0.79446 0.40427 1.25000
Cl	Cl	0.08520 0.05055 0.30424 -0.40400
Cl	Cl	0.08090 0.68750 0.29043 -0.40200
O 	O 	0.24820 0.71510 0.54870 -0.29000
O 	O 	0.25880 0.86610 0.28110 -0.66900
O 	O 	0.30560 0.00770 0.14150 -0.29000
O 	O 	0.61390 0.63910 0.54520 -0.28600
O 	O 	0.35790 0.11030 0.02490 -0.27000
O 	O 	0.05150 0.14180 0.93250 -0.32900
O 	O 	0.99690 0.03580 0.04330 -0.23200
O 	O 	0.45070 0.73740 0.43070 -0.29800
O 	O 	0.40910 0.61180 0.65770 -0.30200
C 	C 	0.48900 0.68290 0.51290 0.23700
C 	C 	0.26630 0.06520 0.06240 0.23700
C 	C 	0.08760 0.08140 0.00790 0.21700
C 	C 	0.37020 0.66970 0.57850 0.23400
H 	H 	0.31430 0.83630 0.24940 0.30900
Fe	Fe	0.62132 0.45047 0.17924 1.25400
Fe	Fe	0.73500 0.29446 0.40427 1.25200
Cl	Cl	0.58520 0.55055 0.30424 -0.37900
Cl	Cl	0.58090 0.18750 0.29043 -0.37300
O 	O 	0.74820 0.21510 0.54870 -0.27800
O 	O 	0.75880 0.36610 0.28110 -0.66600
O 	O 	0.80560 0.50770 0.14150 -0.27800
O 	O 	0.11390 0.13910 0.54520 -0.32900
O 	O 	0.85790 0.61030 0.02490 -0.26000
O 	O 	0.55150 0.64180 0.93250 -0.32700
O 	O 	0.49690 0.53580 0.04330 -0.28700
O 	O 	0.95070 0.23740 0.43070 -0.30000
O 	O 	0.90910 0.11180 0.65770 -0.27600
C 	C 	0.98900 0.18290 0.51290 0.29000
C 	C 	0.76630 0.56520 0.06240 0.22600
C 	C 	0.58760 0.58140 0.00790 0.26300
C 	C 	0.87020 0.16970 0.57850 0.22300
H 	H 	0.81430 0.33630 0.24940 0.31400
