data_crystal

_cell_length_a 14.91400
_cell_length_b 23.50700
_cell_length_c 9.26100
_cell_angle_alpha 90.00000
_cell_angle_beta  90.00000
_cell_angle_gamma 90.00000

_symmetry_space_group_name_	'P 1'
_symmetry_space_group_name_H-M	'P 1'

loop_
_symmetry_equiv_pos_as_xyz
  x,y,z

loop_
_atom_site_label
_atom_site_type_symbol
_atom_site_fract_x
_atom_site_fract_y
_atom_site_fract_z
_atom_site_charge
Fe	Fe	0.07694 0.44385 0.55071 1.25100
Cl	Cl	0.18137 0.50420 0.64460 -0.35400
O 	O 	0.98310 0.37976 0.49560 -0.30200
O 	O 	0.01700 0.43018 0.74590 -0.25900
O 	O 	0.91260 0.37596 0.85290 -0.24800
O 	O 	0.88320 0.32280 0.60330 -0.29400
C 	C 	0.93990 0.36218 0.60280 0.24600
C 	C 	0.95730 0.39225 0.74710 0.20400
Fe	Fe	0.07694 0.94385 0.05071 1.18100
Cl	Cl	0.18137 0.00420 0.14460 -0.39900
O 	O 	0.98310 0.87976 0.99560 -0.15800
O 	O 	0.01700 0.93018 0.24590 -0.30600
O 	O 	0.91260 0.87596 0.35290 -0.28400
O 	O 	0.88320 0.82280 0.10330 -0.28700
C 	C 	0.93990 0.86218 0.10280 0.09500
C 	C 	0.95730 0.89225 0.24710 0.24400
Fe	Fe	0.57694 0.44385 0.05071 1.18600
Cl	Cl	0.68137 0.50420 0.14460 -0.42300
O 	O 	0.48310 0.37976 0.99560 -0.13500
O 	O 	0.51700 0.43018 0.24590 -0.32400
O 	O 	0.41260 0.37596 0.35290 -0.28400
O 	O 	0.38320 0.32280 0.10330 -0.28000
C 	C 	0.43990 0.36218 0.10280 0.08500
C 	C 	0.45730 0.39225 0.24710 0.27300
Fe	Fe	0.57694 0.94385 0.55071 1.23800
Cl	Cl	0.68137 0.00420 0.64460 -0.33900
O 	O 	0.48310 0.87976 0.49560 -0.28600
O 	O 	0.51700 0.93018 0.74590 -0.29400
O 	O 	0.41260 0.87596 0.85290 -0.25500
O 	O 	0.38320 0.82280 0.60330 -0.28800
C 	C 	0.43990 0.86218 0.60280 0.23800
C 	C 	0.45730 0.89225 0.74710 0.23800
Fe	Fe	0.92306 0.55615 0.55071 1.23900
Cl	Cl	0.81863 0.49580 0.64460 -0.35900
O 	O 	0.01690 0.62024 0.49560 -0.26800
O 	O 	0.98300 0.56982 0.74590 -0.31500
O 	O 	0.08740 0.62404 0.85290 -0.25500
O 	O 	0.11680 0.67720 0.60330 -0.28200
C 	C 	0.06010 0.63782 0.60280 0.23100
C 	C 	0.04270 0.60775 0.74710 0.26800
Fe	Fe	0.92306 0.05615 0.05071 1.18200
Cl	Cl	0.81863 0.99580 0.14460 -0.44600
O 	O 	0.01690 0.12024 0.99560 -0.12000
O 	O 	0.98300 0.06982 0.24590 -0.34700
O 	O 	0.08740 0.12404 0.35290 -0.28400
O 	O 	0.11680 0.17720 0.10330 -0.27500
C 	C 	0.06010 0.13782 0.10280 0.08000
C 	C 	0.04270 0.10775 0.24710 0.30500
Fe	Fe	0.42306 0.55615 0.05071 1.18600
Cl	Cl	0.31863 0.49580 0.14460 -0.42000
O 	O 	0.51690 0.62024 0.99560 -0.13600
O 	O 	0.48300 0.56982 0.24590 -0.32300
O 	O 	0.58740 0.62404 0.35290 -0.28300
O 	O 	0.61680 0.67720 0.10330 -0.28200
C 	C 	0.56010 0.63782 0.10280 0.08500
C 	C 	0.54270 0.60775 0.24710 0.27300
Fe	Fe	0.42306 0.05615 0.55071 1.25300
Cl	Cl	0.31863 0.99580 0.64460 -0.37700
O 	O 	0.51690 0.12024 0.49560 -0.28300
O 	O 	0.48300 0.06982 0.74590 -0.27900
O 	O 	0.58740 0.12404 0.85290 -0.24900
O 	O 	0.61680 0.17720 0.60330 -0.28800
C 	C 	0.56010 0.13782 0.60280 0.23900
C 	C 	0.54270 0.10775 0.74710 0.23500
Fe	Fe	0.32694 0.80615 0.80071 1.24900
Cl	Cl	0.43137 0.74580 0.89460 -0.32300
O 	O 	0.23310 0.87024 0.74560 -0.26500
O 	O 	0.26700 0.81982 0.99590 -0.30900
O 	O 	0.16260 0.87404 0.10290 -0.40000
O 	O 	0.13320 0.92720 0.85330 -0.24000
C 	C 	0.18990 0.88782 0.85280 0.20100
C 	C 	0.20730 0.85775 0.99710 0.39000
Fe	Fe	0.32694 0.30615 0.30071 1.24600
Cl	Cl	0.43137 0.24580 0.39460 -0.38100
O 	O 	0.23310 0.37024 0.24560 -0.29000
O 	O 	0.26700 0.31982 0.49590 -0.29400
O 	O 	0.16260 0.37404 0.60290 -0.25900
O 	O 	0.13320 0.42720 0.35330 -0.29200
C 	C 	0.18990 0.38782 0.35280 0.23800
C 	C 	0.20730 0.35775 0.49710 0.23600
Fe	Fe	0.82694 0.80615 0.30071 1.24500
Cl	Cl	0.93137 0.74580 0.39460 -0.39600
O 	O 	0.73310 0.87024 0.24560 -0.29400
O 	O 	0.76700 0.81982 0.49590 -0.29800
O 	O 	0.66260 0.87404 0.60290 -0.26700
O 	O 	0.63320 0.92720 0.35330 -0.30400
C 	C 	0.68990 0.88782 0.35280 0.23800
C 	C 	0.70730 0.85775 0.49710 0.23400
Fe	Fe	0.82694 0.30615 0.80071 1.24800
Cl	Cl	0.93137 0.24580 0.89460 -0.33800
O 	O 	0.73310 0.37024 0.74560 -0.26400
O 	O 	0.76700 0.31982 0.99590 -0.31100
O 	O 	0.66260 0.37404 0.10290 -0.40200
O 	O 	0.63320 0.42720 0.85330 -0.23600
C 	C 	0.68990 0.38782 0.85280 0.19900
C 	C 	0.70730 0.35775 0.99710 0.39100
Fe	Fe	0.17306 0.69385 0.80071 1.24900
Cl	Cl	0.06863 0.75420 0.89460 -0.31100
O 	O 	0.26690 0.62976 0.74560 -0.26400
O 	O 	0.23300 0.68018 0.99590 -0.30800
O 	O 	0.33740 0.62596 0.10290 -0.40100
O 	O 	0.36680 0.57280 0.85330 -0.23600
C 	C 	0.31010 0.61218 0.85280 0.20000
C 	C 	0.29270 0.64225 0.99710 0.39200
Fe	Fe	0.17306 0.19385 0.30071 1.24600
Cl	Cl	0.06863 0.25420 0.39460 -0.36700
O 	O 	0.26690 0.12976 0.24560 -0.29100
O 	O 	0.23300 0.18018 0.49590 -0.29300
O 	O 	0.33740 0.12596 0.60290 -0.25900
O 	O 	0.36680 0.07280 0.35330 -0.29200
C 	C 	0.31010 0.11218 0.35280 0.23900
C 	C 	0.29270 0.14225 0.49710 0.23700
Fe	Fe	0.67306 0.69385 0.30071 1.24600
Cl	Cl	0.56863 0.75420 0.39460 -0.38200
O 	O 	0.76690 0.62976 0.24560 -0.29400
O 	O 	0.73300 0.68018 0.49590 -0.29600
O 	O 	0.83740 0.62596 0.60290 -0.26700
O 	O 	0.86680 0.57280 0.35330 -0.30300
C 	C 	0.81010 0.61218 0.35280 0.23800
C 	C 	0.79270 0.64225 0.49710 0.23500
Fe	Fe	0.67306 0.19385 0.80071 1.24900
Cl	Cl	0.56863 0.25420 0.89460 -0.32200
O 	O 	0.76690 0.12976 0.74560 -0.26500
O 	O 	0.73300 0.18018 0.99590 -0.30900
O 	O 	0.83740 0.12596 0.10290 -0.40200
O 	O 	0.86680 0.07280 0.85330 -0.24000
C 	C 	0.81010 0.11218 0.85280 0.20100
C 	C 	0.79270 0.14225 0.99710 0.39000
O 	O 	-0.00000 0.50000 0.47030 -0.43300
O 	O 	0.00000 0.00000 0.97030 -0.32800
O 	O 	0.50000 0.50000 0.97030 -0.35700
O 	O 	0.50000 0.00000 0.47030 -0.43400
O 	O 	0.25000 0.75000 0.72030 -0.44200
O 	O 	0.25000 0.25000 0.22030 -0.45900
O 	O 	0.75000 0.75000 0.22030 -0.46100
O 	O 	0.75000 0.25000 0.72030 -0.44300
