data_crystal

_cell_length_a 12.72430
_cell_length_b 13.29400
_cell_length_c 28.59800
_cell_angle_alpha 90.00000
_cell_angle_beta  90.00000
_cell_angle_gamma 90.00000

_symmetry_space_group_name_	'P 1'
_symmetry_space_group_name_H-M	'P 1'

loop_
_symmetry_equiv_pos_as_xyz
  x,y,z

loop_
_atom_site_label
_atom_site_type_symbol
_atom_site_fract_x
_atom_site_fract_y
_atom_site_fract_z
_atom_site_charge
Dy	Dy	0.08939 0.54299 0.92996 1.63200
O 	O 	0.09240 0.43890 0.86610 -0.48100
O 	O 	0.16520 0.29020 0.88070 -0.31400
O 	O 	0.04000 0.14680 0.82830 -0.11400
O 	O 	0.18680 0.08660 0.80760 -0.14000
O 	O 	0.44770 0.10340 0.61900 -0.38600
O 	O 	0.45220 0.16140 0.54700 -0.39600
O 	O 	0.16560 0.38900 0.49500 -0.52200
O 	O 	0.05120 0.44780 0.54550 -0.50700
N 	N 	0.12370 0.15340 0.80880 -0.01700
C 	C 	0.12980 0.35630 0.85410 0.43400
C 	C 	0.13410 0.33810 0.80260 -0.19600
C 	C 	0.14350 0.24550 0.78130 0.19100
C 	C 	0.16590 0.23130 0.73460 -0.21400
H 	H 	0.17350 0.16660 0.72280 0.13100
C 	C 	0.17710 0.31350 0.70530 0.14900
C 	C 	0.16220 0.40920 0.72520 -0.18900
H 	H 	0.16490 0.46590 0.70630 0.11100
C 	C 	0.14370 0.42020 0.77250 0.12700
H 	H 	0.13750 0.48480 0.78470 0.00600
C 	C 	0.20570 0.29990 0.65570 -0.07100
C 	C 	0.28670 0.23450 0.64450 0.02300
H 	H 	0.31980 0.19750 0.66780 0.04000
C 	C 	0.31850 0.22440 0.59790 -0.10900
C 	C 	0.26820 0.27890 0.56320 0.07100
H 	H 	0.28950 0.27250 0.53220 0.02200
C 	C 	0.18640 0.34280 0.57460 -0.16600
C 	C 	0.15600 0.35450 0.62100 0.05700
H 	H 	0.10220 0.39890 0.62870 0.03000
C 	C 	0.41040 0.15970 0.58710 0.31200
C 	C 	0.13090 0.39700 0.53560 0.48400
Dy	Dy	0.41061 0.95701 0.42996 1.63300
O 	O 	0.40760 0.06110 0.36610 -0.48100
O 	O 	0.33480 0.20980 0.38070 -0.31500
O 	O 	0.46000 0.35320 0.32830 -0.11400
O 	O 	0.31320 0.41340 0.30760 -0.14000
O 	O 	0.05230 0.39660 0.11900 -0.38500
O 	O 	0.04780 0.33860 0.04700 -0.39600
O 	O 	0.33440 0.11100 0.99500 -0.52300
O 	O 	0.44880 0.05220 0.04550 -0.50600
N 	N 	0.37630 0.34660 0.30880 -0.01700
C 	C 	0.37020 0.14370 0.35410 0.43400
C 	C 	0.36590 0.16190 0.30260 -0.19500
C 	C 	0.35650 0.25450 0.28130 0.19200
C 	C 	0.33410 0.26870 0.23460 -0.21400
H 	H 	0.32650 0.33340 0.22280 0.13200
C 	C 	0.32290 0.18650 0.20530 0.15000
C 	C 	0.33780 0.09080 0.22520 -0.18900
H 	H 	0.33510 0.03410 0.20630 0.11200
C 	C 	0.35630 0.07980 0.27250 0.12700
H 	H 	0.36250 0.01520 0.28470 0.00700
C 	C 	0.29430 0.20010 0.15570 -0.07100
C 	C 	0.21330 0.26550 0.14450 0.02300
H 	H 	0.18020 0.30250 0.16780 0.04000
C 	C 	0.18150 0.27560 0.09790 -0.10800
C 	C 	0.23180 0.22110 0.06320 0.07100
H 	H 	0.21050 0.22750 0.03220 0.02300
C 	C 	0.31360 0.15720 0.07460 -0.16600
C 	C 	0.34400 0.14550 0.12100 0.05700
H 	H 	0.39780 0.10110 0.12870 0.03100
C 	C 	0.08960 0.34030 0.08710 0.31200
C 	C 	0.36910 0.10300 0.03560 0.48600
Dy	Dy	0.91061 0.54299 0.57004 1.63300
O 	O 	0.90760 0.43890 0.63390 -0.48200
O 	O 	0.83480 0.29020 0.61930 -0.31500
O 	O 	0.96000 0.14680 0.67170 -0.11500
O 	O 	0.81320 0.08660 0.69240 -0.14000
O 	O 	0.55230 0.10340 0.88100 -0.38600
O 	O 	0.54780 0.16140 0.95300 -0.39700
O 	O 	0.83440 0.38900 0.00500 -0.52200
O 	O 	0.94880 0.44780 0.95450 -0.50600
N 	N 	0.87630 0.15340 0.69120 -0.01700
C 	C 	0.87020 0.35630 0.64590 0.43400
C 	C 	0.86590 0.33810 0.69740 -0.19600
C 	C 	0.85650 0.24550 0.71870 0.19100
C 	C 	0.83410 0.23130 0.76540 -0.21400
H 	H 	0.82650 0.16660 0.77720 0.13100
C 	C 	0.82290 0.31350 0.79470 0.14900
C 	C 	0.83780 0.40920 0.77480 -0.18900
H 	H 	0.83510 0.46590 0.79370 0.11100
C 	C 	0.85630 0.42020 0.72750 0.12700
H 	H 	0.86250 0.48480 0.71530 0.00600
C 	C 	0.79430 0.29990 0.84430 -0.07100
C 	C 	0.71330 0.23450 0.85550 0.02300
H 	H 	0.68020 0.19750 0.83220 0.04000
C 	C 	0.68150 0.22440 0.90210 -0.10900
C 	C 	0.73180 0.27890 0.93680 0.07100
H 	H 	0.71050 0.27250 0.96780 0.02200
C 	C 	0.81360 0.34280 0.92540 -0.16600
C 	C 	0.84400 0.35450 0.87900 0.05700
H 	H 	0.89780 0.39890 0.87130 0.03000
C 	C 	0.58960 0.15970 0.91290 0.31200
C 	C 	0.86910 0.39700 0.96440 0.48400
Dy	Dy	0.58939 0.95701 0.07004 1.63100
O 	O 	0.59240 0.06110 0.13390 -0.48100
O 	O 	0.66520 0.20980 0.11930 -0.31500
O 	O 	0.54000 0.35320 0.17170 -0.11400
O 	O 	0.68680 0.41340 0.19240 -0.14000
O 	O 	0.94770 0.39660 0.38100 -0.38600
O 	O 	0.95220 0.33860 0.45300 -0.39700
O 	O 	0.66560 0.11100 0.50500 -0.52200
O 	O 	0.55120 0.05220 0.45450 -0.50600
N 	N 	0.62370 0.34660 0.19120 -0.01700
C 	C 	0.62980 0.14370 0.14590 0.43400
C 	C 	0.63410 0.16190 0.19740 -0.19500
C 	C 	0.64350 0.25450 0.21870 0.19100
C 	C 	0.66590 0.26870 0.26540 -0.21400
H 	H 	0.67350 0.33340 0.27720 0.13100
C 	C 	0.67710 0.18650 0.29470 0.14900
C 	C 	0.66220 0.09080 0.27480 -0.18900
H 	H 	0.66490 0.03410 0.29370 0.11100
C 	C 	0.64370 0.07980 0.22750 0.12700
H 	H 	0.63750 0.01520 0.21530 0.00700
C 	C 	0.70570 0.20010 0.34430 -0.07100
C 	C 	0.78670 0.26550 0.35550 0.02300
H 	H 	0.81980 0.30250 0.33220 0.04000
C 	C 	0.81850 0.27560 0.40210 -0.10900
C 	C 	0.76820 0.22110 0.43680 0.07100
H 	H 	0.78950 0.22750 0.46780 0.02200
C 	C 	0.68640 0.15720 0.42540 -0.16600
C 	C 	0.65600 0.14550 0.37900 0.05600
H 	H 	0.60220 0.10110 0.37130 0.03100
C 	C 	0.91040 0.34030 0.41290 0.31200
C 	C 	0.63090 0.10300 0.46440 0.48400
Dy	Dy	0.91061 0.45701 0.07004 1.63100
O 	O 	0.90760 0.56110 0.13390 -0.48200
O 	O 	0.83480 0.70980 0.11930 -0.31500
O 	O 	0.96000 0.85320 0.17170 -0.11500
O 	O 	0.81320 0.91340 0.19240 -0.14000
O 	O 	0.55230 0.89660 0.38100 -0.38600
O 	O 	0.54780 0.83860 0.45300 -0.39600
O 	O 	0.83440 0.61100 0.50500 -0.52200
O 	O 	0.94880 0.55220 0.45450 -0.50700
N 	N 	0.87630 0.84660 0.19120 -0.01700
C 	C 	0.87020 0.64370 0.14590 0.43400
C 	C 	0.86590 0.66190 0.19740 -0.19600
C 	C 	0.85650 0.75450 0.21870 0.19100
C 	C 	0.83410 0.76870 0.26540 -0.21400
H 	H 	0.82650 0.83340 0.27720 0.13100
C 	C 	0.82290 0.68650 0.29470 0.14900
C 	C 	0.83780 0.59080 0.27480 -0.18900
H 	H 	0.83510 0.53410 0.29370 0.11100
C 	C 	0.85630 0.57980 0.22750 0.12700
H 	H 	0.86250 0.51520 0.21530 0.00600
C 	C 	0.79430 0.70010 0.34430 -0.07100
C 	C 	0.71330 0.76550 0.35550 0.02300
H 	H 	0.68020 0.80250 0.33220 0.04000
C 	C 	0.68150 0.77560 0.40210 -0.10900
C 	C 	0.73180 0.72110 0.43680 0.07100
H 	H 	0.71050 0.72750 0.46780 0.02200
C 	C 	0.81360 0.65720 0.42540 -0.16600
C 	C 	0.84400 0.64550 0.37900 0.05700
H 	H 	0.89780 0.60110 0.37130 0.03000
C 	C 	0.58960 0.84030 0.41290 0.31200
C 	C 	0.86910 0.60300 0.46440 0.48400
Dy	Dy	0.58939 0.04299 0.57004 1.63300
O 	O 	0.59240 0.93890 0.63390 -0.48100
O 	O 	0.66520 0.79020 0.61930 -0.31500
O 	O 	0.54000 0.64680 0.67170 -0.11400
O 	O 	0.68680 0.58660 0.69240 -0.14000
O 	O 	0.94770 0.60340 0.88100 -0.38500
O 	O 	0.95220 0.66140 0.95300 -0.39600
O 	O 	0.66560 0.88900 0.00500 -0.52300
O 	O 	0.55120 0.94780 0.95450 -0.50600
N 	N 	0.62370 0.65340 0.69120 -0.01700
C 	C 	0.62980 0.85630 0.64590 0.43400
C 	C 	0.63410 0.83810 0.69740 -0.19500
C 	C 	0.64350 0.74550 0.71870 0.19200
C 	C 	0.66590 0.73130 0.76540 -0.21400
H 	H 	0.67350 0.66660 0.77720 0.13200
C 	C 	0.67710 0.81350 0.79470 0.15000
C 	C 	0.66220 0.90920 0.77480 -0.18900
H 	H 	0.66490 0.96590 0.79370 0.11200
C 	C 	0.64370 0.92020 0.72750 0.12700
H 	H 	0.63750 0.98480 0.71530 0.00700
C 	C 	0.70570 0.79990 0.84430 -0.07100
C 	C 	0.78670 0.73450 0.85550 0.02300
H 	H 	0.81980 0.69750 0.83220 0.04000
C 	C 	0.81850 0.72440 0.90210 -0.10800
C 	C 	0.76820 0.77890 0.93680 0.07100
H 	H 	0.78950 0.77250 0.96780 0.02300
C 	C 	0.68640 0.84280 0.92540 -0.16600
C 	C 	0.65600 0.85450 0.87900 0.05700
H 	H 	0.60220 0.89890 0.87130 0.03100
C 	C 	0.91040 0.65970 0.91290 0.31200
C 	C 	0.63090 0.89700 0.96440 0.48600
Dy	Dy	0.08939 0.45701 0.42996 1.63300
O 	O 	0.09240 0.56110 0.36610 -0.48200
O 	O 	0.16520 0.70980 0.38070 -0.31500
O 	O 	0.04000 0.85320 0.32830 -0.11500
O 	O 	0.18680 0.91340 0.30760 -0.14000
O 	O 	0.44770 0.89660 0.11900 -0.38600
O 	O 	0.45220 0.83860 0.04700 -0.39700
O 	O 	0.16560 0.61100 0.99500 -0.52200
O 	O 	0.05120 0.55220 0.04550 -0.50600
N 	N 	0.12370 0.84660 0.30880 -0.01700
C 	C 	0.12980 0.64370 0.35410 0.43400
C 	C 	0.13410 0.66190 0.30260 -0.19600
C 	C 	0.14350 0.75450 0.28130 0.19100
C 	C 	0.16590 0.76870 0.23460 -0.21400
H 	H 	0.17350 0.83340 0.22280 0.13100
C 	C 	0.17710 0.68650 0.20530 0.14900
C 	C 	0.16220 0.59080 0.22520 -0.18900
H 	H 	0.16490 0.53410 0.20630 0.11100
C 	C 	0.14370 0.57980 0.27250 0.12700
H 	H 	0.13750 0.51520 0.28470 0.00600
C 	C 	0.20570 0.70010 0.15570 -0.07100
C 	C 	0.28670 0.76550 0.14450 0.02300
H 	H 	0.31980 0.80250 0.16780 0.04000
C 	C 	0.31850 0.77560 0.09790 -0.10900
C 	C 	0.26820 0.72110 0.06320 0.07100
H 	H 	0.28950 0.72750 0.03220 0.02200
C 	C 	0.18640 0.65720 0.07460 -0.16600
C 	C 	0.15600 0.64550 0.12100 0.05700
H 	H 	0.10220 0.60110 0.12870 0.03000
C 	C 	0.41040 0.84030 0.08710 0.31200
C 	C 	0.13090 0.60300 0.03560 0.48400
Dy	Dy	0.41061 0.04299 0.92996 1.63100
O 	O 	0.40760 0.93890 0.86610 -0.48100
O 	O 	0.33480 0.79020 0.88070 -0.31500
O 	O 	0.46000 0.64680 0.82830 -0.11400
O 	O 	0.31320 0.58660 0.80760 -0.14000
O 	O 	0.05230 0.60340 0.61900 -0.38600
O 	O 	0.04780 0.66140 0.54700 -0.39700
O 	O 	0.33440 0.88900 0.49500 -0.52200
O 	O 	0.44880 0.94780 0.54550 -0.50600
N 	N 	0.37630 0.65340 0.80880 -0.01700
C 	C 	0.37020 0.85630 0.85410 0.43400
C 	C 	0.36590 0.83810 0.80260 -0.19500
C 	C 	0.35650 0.74550 0.78130 0.19100
C 	C 	0.33410 0.73130 0.73460 -0.21400
H 	H 	0.32650 0.66660 0.72280 0.13100
C 	C 	0.32290 0.81350 0.70530 0.14900
C 	C 	0.33780 0.90920 0.72520 -0.18900
H 	H 	0.33510 0.96590 0.70630 0.11100
C 	C 	0.35630 0.92020 0.77250 0.12700
H 	H 	0.36250 0.98480 0.78470 0.00700
C 	C 	0.29430 0.79990 0.65570 -0.07100
C 	C 	0.21330 0.73450 0.64450 0.02300
H 	H 	0.18020 0.69750 0.66780 0.04000
C 	C 	0.18150 0.72440 0.59790 -0.10900
C 	C 	0.23180 0.77890 0.56320 0.07100
H 	H 	0.21050 0.77250 0.53220 0.02200
C 	C 	0.31360 0.84280 0.57460 -0.16600
C 	C 	0.34400 0.85450 0.62100 0.05600
H 	H 	0.39780 0.89890 0.62870 0.03100
C 	C 	0.08960 0.65970 0.58710 0.31200
C 	C 	0.36910 0.89700 0.53560 0.48400
