data_crystal

_cell_length_a 12.80700
_cell_length_b 12.80700
_cell_length_c 59.46700
_cell_angle_alpha 90.00000
_cell_angle_beta  90.00000
_cell_angle_gamma 90.00000

_symmetry_space_group_name_	'P 1'
_symmetry_space_group_name_H-M	'P 1'

loop_
_symmetry_equiv_pos_as_xyz
  x,y,z

loop_
_atom_site_label
_atom_site_type_symbol
_atom_site_fract_x
_atom_site_fract_y
_atom_site_fract_z
_atom_site_charge
Dy	Dy	0.65588 0.07470 0.06146 1.73400
O 	O 	0.36340 0.05220 0.03246 -0.46900
O 	O 	0.51630 0.12780 0.03988 -0.48600
C 	C 	0.43950 0.10970 0.02792 0.47200
C 	C 	0.43980 0.15870 0.00466 -0.13500
C 	C 	0.34720 0.18540 0.99402 0.04600
H 	H 	0.28400 0.17450 0.00140 0.03600
C 	C 	0.34740 0.22850 0.97235 -0.08400
C 	C 	0.44090 0.24210 0.96130 -0.00300
H 	H 	0.44210 0.26950 0.94680 0.05300
C 	C 	0.53380 0.21430 0.97202 -0.03800
C 	C 	0.63210 0.22680 0.95994 0.08700
N 	N 	0.70900 0.23890 0.95040 -0.13000
C 	C 	0.53340 0.17390 0.99409 0.02200
H 	H 	0.59580 0.15800 0.00130 0.03900
C 	C 	0.24690 0.25990 0.96107 0.30900
O 	O 	0.16030 0.24960 0.97094 -0.38500
O 	O 	0.25480 0.29720 0.94164 -0.41300
O 	O 	0.60340 0.93670 0.08100 -0.54400
O 	O 	0.45760 0.84600 0.08800 -0.47000
C 	C 	0.55220 0.86580 0.09107 0.48900
C 	C 	0.60990 0.80530 0.10863 -0.18200
C 	C 	0.76900 0.78500 0.13030 -0.03800
C 	C 	0.87900 0.80500 0.13230 0.06500
N 	N 	0.96500 0.83300 0.13520 -0.12000
C 	C 	0.71530 0.83330 0.11230 0.02600
C 	C 	0.71790 0.72300 0.14500 0.02000
H 	H 	0.74840 0.88180 0.10310 -0.00100
H 	H 	0.75260 0.69770 0.15770 0.02000
Dy	Dy	0.15588 0.57470 0.56146 1.73500
O 	O 	0.86340 0.55220 0.53246 -0.46800
O 	O 	0.01630 0.62780 0.53988 -0.48500
C 	C 	0.93950 0.60970 0.52792 0.47300
C 	C 	0.93980 0.65870 0.50466 -0.13400
C 	C 	0.84720 0.68540 0.49402 0.04700
H 	H 	0.78400 0.67450 0.50140 0.03700
C 	C 	0.84740 0.72850 0.47235 -0.08300
C 	C 	0.94090 0.74210 0.46130 -0.00200
H 	H 	0.94210 0.76950 0.44680 0.05400
C 	C 	0.03380 0.71430 0.47202 -0.03700
C 	C 	0.13210 0.72680 0.45994 0.08800
N 	N 	0.20900 0.73890 0.45040 -0.12900
C 	C 	0.03340 0.67390 0.49409 0.02300
H 	H 	0.09580 0.65800 0.50130 0.04000
C 	C 	0.74690 0.75990 0.46107 0.31000
O 	O 	0.66030 0.74960 0.47094 -0.38400
O 	O 	0.75480 0.79720 0.44164 -0.41200
O 	O 	0.10340 0.43670 0.58100 -0.54300
O 	O 	0.95760 0.34600 0.58800 -0.46900
C 	C 	0.05220 0.36580 0.59107 0.48900
C 	C 	0.10990 0.30530 0.60863 -0.18300
C 	C 	0.26900 0.28500 0.63030 -0.03900
C 	C 	0.37900 0.30500 0.63230 0.06400
N 	N 	0.46500 0.33300 0.63520 -0.12000
C 	C 	0.21530 0.33330 0.61230 0.02600
C 	C 	0.21790 0.22300 0.64500 0.02000
H 	H 	0.24840 0.38180 0.60310 -0.00100
H 	H 	0.25260 0.19770 0.65770 0.02000
Dy	Dy	0.34412 0.92530 0.06146 1.73500
O 	O 	0.63660 0.94780 0.03246 -0.46800
O 	O 	0.48370 0.87220 0.03988 -0.48500
C 	C 	0.56050 0.89030 0.02792 0.47300
C 	C 	0.56020 0.84130 0.00466 -0.13400
C 	C 	0.65280 0.81460 0.99402 0.04700
H 	H 	0.71600 0.82550 0.00140 0.03700
C 	C 	0.65260 0.77150 0.97235 -0.08300
C 	C 	0.55910 0.75790 0.96130 -0.00200
H 	H 	0.55790 0.73050 0.94680 0.05400
C 	C 	0.46620 0.78570 0.97202 -0.03700
C 	C 	0.36790 0.77320 0.95994 0.08800
N 	N 	0.29100 0.76110 0.95040 -0.12900
C 	C 	0.46660 0.82610 0.99409 0.02300
H 	H 	0.40420 0.84200 0.00130 0.04000
C 	C 	0.75310 0.74010 0.96107 0.31000
O 	O 	0.83970 0.75040 0.97094 -0.38400
O 	O 	0.74520 0.70280 0.94164 -0.41200
O 	O 	0.39660 0.06330 0.08100 -0.54300
O 	O 	0.54240 0.15400 0.08800 -0.46900
C 	C 	0.44780 0.13420 0.09107 0.48900
C 	C 	0.39010 0.19470 0.10863 -0.18200
C 	C 	0.23100 0.21500 0.13030 -0.03800
C 	C 	0.12100 0.19500 0.13230 0.06500
N 	N 	0.03500 0.16700 0.13520 -0.12000
C 	C 	0.28470 0.16670 0.11230 0.02600
C 	C 	0.28210 0.27700 0.14500 0.02000
H 	H 	0.25160 0.11820 0.10310 -0.00100
H 	H 	0.24740 0.30230 0.15770 0.02000
Dy	Dy	0.84412 0.42530 0.56146 1.73500
O 	O 	0.13660 0.44780 0.53246 -0.46800
O 	O 	0.98370 0.37220 0.53988 -0.48500
C 	C 	0.06050 0.39030 0.52792 0.47300
C 	C 	0.06020 0.34130 0.50466 -0.13400
C 	C 	0.15280 0.31460 0.49402 0.04700
H 	H 	0.21600 0.32550 0.50140 0.03700
C 	C 	0.15260 0.27150 0.47235 -0.08300
C 	C 	0.05910 0.25790 0.46130 -0.00200
H 	H 	0.05790 0.23050 0.44680 0.05400
C 	C 	0.96620 0.28570 0.47202 -0.03700
C 	C 	0.86790 0.27320 0.45994 0.08800
N 	N 	0.79100 0.26110 0.45040 -0.12900
C 	C 	0.96660 0.32610 0.49409 0.02300
H 	H 	0.90420 0.34200 0.50130 0.04000
C 	C 	0.25310 0.24010 0.46107 0.31000
O 	O 	0.33970 0.25040 0.47094 -0.38400
O 	O 	0.24520 0.20280 0.44164 -0.41200
O 	O 	0.89660 0.56330 0.58100 -0.54300
O 	O 	0.04240 0.65400 0.58800 -0.46900
C 	C 	0.94780 0.63420 0.59107 0.48900
C 	C 	0.89010 0.69470 0.60863 -0.18300
C 	C 	0.73100 0.71500 0.63030 -0.03900
C 	C 	0.62100 0.69500 0.63230 0.06400
N 	N 	0.53500 0.66700 0.63520 -0.12000
C 	C 	0.78470 0.66670 0.61230 0.02600
C 	C 	0.78210 0.77700 0.64500 0.02000
H 	H 	0.75160 0.61820 0.60310 -0.00100
H 	H 	0.74740 0.80230 0.65770 0.02000
Dy	Dy	0.07470 0.34412 0.93854 1.73500
O 	O 	0.05220 0.63660 0.96754 -0.46800
O 	O 	0.12780 0.48370 0.96012 -0.48500
C 	C 	0.10970 0.56050 0.97208 0.47300
C 	C 	0.15870 0.56020 0.99534 -0.13400
C 	C 	0.18540 0.65280 0.00598 0.04700
H 	H 	0.17450 0.71600 0.99860 0.03700
C 	C 	0.22850 0.65260 0.02765 -0.08300
C 	C 	0.24210 0.55910 0.03870 -0.00200
H 	H 	0.26950 0.55790 0.05320 0.05400
C 	C 	0.21430 0.46620 0.02798 -0.03700
C 	C 	0.22680 0.36790 0.04006 0.08800
N 	N 	0.23890 0.29100 0.04960 -0.12900
C 	C 	0.17390 0.46660 0.00591 0.02300
H 	H 	0.15800 0.40420 0.99870 0.04000
C 	C 	0.25990 0.75310 0.03893 0.31000
O 	O 	0.24960 0.83970 0.02906 -0.38400
O 	O 	0.29720 0.74520 0.05836 -0.41200
O 	O 	0.93670 0.39660 0.91900 -0.54300
O 	O 	0.84600 0.54240 0.91200 -0.46900
C 	C 	0.86580 0.44780 0.90893 0.48900
C 	C 	0.80530 0.39010 0.89137 -0.18200
C 	C 	0.78500 0.23100 0.86970 -0.03800
C 	C 	0.80500 0.12100 0.86770 0.06500
N 	N 	0.83300 0.03500 0.86480 -0.12000
C 	C 	0.83330 0.28470 0.88770 0.02600
C 	C 	0.72300 0.28210 0.85500 0.02000
H 	H 	0.88180 0.25160 0.89690 -0.00100
H 	H 	0.69770 0.24740 0.84230 0.02000
Dy	Dy	0.57470 0.84412 0.43854 1.73500
O 	O 	0.55220 0.13660 0.46754 -0.46800
O 	O 	0.62780 0.98370 0.46012 -0.48500
C 	C 	0.60970 0.06050 0.47208 0.47300
C 	C 	0.65870 0.06020 0.49534 -0.13400
C 	C 	0.68540 0.15280 0.50598 0.04700
H 	H 	0.67450 0.21600 0.49860 0.03700
C 	C 	0.72850 0.15260 0.52765 -0.08300
C 	C 	0.74210 0.05910 0.53870 -0.00200
H 	H 	0.76950 0.05790 0.55320 0.05400
C 	C 	0.71430 0.96620 0.52798 -0.03700
C 	C 	0.72680 0.86790 0.54006 0.08800
N 	N 	0.73890 0.79100 0.54960 -0.12900
C 	C 	0.67390 0.96660 0.50591 0.02300
H 	H 	0.65800 0.90420 0.49870 0.04000
C 	C 	0.75990 0.25310 0.53893 0.31000
O 	O 	0.74960 0.33970 0.52906 -0.38400
O 	O 	0.79720 0.24520 0.55836 -0.41200
O 	O 	0.43670 0.89660 0.41900 -0.54300
O 	O 	0.34600 0.04240 0.41200 -0.46900
C 	C 	0.36580 0.94780 0.40893 0.48900
C 	C 	0.30530 0.89010 0.39137 -0.18300
C 	C 	0.28500 0.73100 0.36970 -0.03900
C 	C 	0.30500 0.62100 0.36770 0.06400
N 	N 	0.33300 0.53500 0.36480 -0.12000
C 	C 	0.33330 0.78470 0.38770 0.02600
C 	C 	0.22300 0.78210 0.35500 0.02000
H 	H 	0.38180 0.75160 0.39690 -0.00100
H 	H 	0.19770 0.74740 0.34230 0.02000
Dy	Dy	0.92530 0.65588 0.93854 1.73500
O 	O 	0.94780 0.36340 0.96754 -0.46800
O 	O 	0.87220 0.51630 0.96012 -0.48500
C 	C 	0.89030 0.43950 0.97208 0.47300
C 	C 	0.84130 0.43980 0.99534 -0.13400
C 	C 	0.81460 0.34720 0.00598 0.04700
H 	H 	0.82550 0.28400 0.99860 0.03700
C 	C 	0.77150 0.34740 0.02765 -0.08300
C 	C 	0.75790 0.44090 0.03870 -0.00200
H 	H 	0.73050 0.44210 0.05320 0.05400
C 	C 	0.78570 0.53380 0.02798 -0.03700
C 	C 	0.77320 0.63210 0.04006 0.08800
N 	N 	0.76110 0.70900 0.04960 -0.12900
C 	C 	0.82610 0.53340 0.00591 0.02300
H 	H 	0.84200 0.59580 0.99870 0.04000
C 	C 	0.74010 0.24690 0.03893 0.31000
O 	O 	0.75040 0.16030 0.02906 -0.38400
O 	O 	0.70280 0.25480 0.05836 -0.41200
O 	O 	0.06330 0.60340 0.91900 -0.54300
O 	O 	0.15400 0.45760 0.91200 -0.46900
C 	C 	0.13420 0.55220 0.90893 0.48900
C 	C 	0.19470 0.60990 0.89137 -0.18200
C 	C 	0.21500 0.76900 0.86970 -0.03800
C 	C 	0.19500 0.87900 0.86770 0.06500
N 	N 	0.16700 0.96500 0.86480 -0.12000
C 	C 	0.16670 0.71530 0.88770 0.02600
C 	C 	0.27700 0.71790 0.85500 0.02000
H 	H 	0.11820 0.74840 0.89690 -0.00100
H 	H 	0.30230 0.75260 0.84230 0.02000
Dy	Dy	0.42530 0.15588 0.43854 1.73500
O 	O 	0.44780 0.86340 0.46754 -0.46800
O 	O 	0.37220 0.01630 0.46012 -0.48500
C 	C 	0.39030 0.93950 0.47208 0.47300
C 	C 	0.34130 0.93980 0.49534 -0.13400
C 	C 	0.31460 0.84720 0.50598 0.04700
H 	H 	0.32550 0.78400 0.49860 0.03700
C 	C 	0.27150 0.84740 0.52765 -0.08300
C 	C 	0.25790 0.94090 0.53870 -0.00200
H 	H 	0.23050 0.94210 0.55320 0.05400
C 	C 	0.28570 0.03380 0.52798 -0.03700
C 	C 	0.27320 0.13210 0.54006 0.08800
N 	N 	0.26110 0.20900 0.54960 -0.12900
C 	C 	0.32610 0.03340 0.50591 0.02300
H 	H 	0.34200 0.09580 0.49870 0.04000
C 	C 	0.24010 0.74690 0.53893 0.31000
O 	O 	0.25040 0.66030 0.52906 -0.38400
O 	O 	0.20280 0.75480 0.55836 -0.41200
O 	O 	0.56330 0.10340 0.41900 -0.54300
O 	O 	0.65400 0.95760 0.41200 -0.46900
C 	C 	0.63420 0.05220 0.40893 0.48900
C 	C 	0.69470 0.10990 0.39137 -0.18300
C 	C 	0.71500 0.26900 0.36970 -0.03900
C 	C 	0.69500 0.37900 0.36770 0.06400
N 	N 	0.66700 0.46500 0.36480 -0.12000
C 	C 	0.66670 0.21530 0.38770 0.02600
C 	C 	0.77700 0.21790 0.35500 0.02000
H 	H 	0.61820 0.24840 0.39690 -0.00100
H 	H 	0.80230 0.25260 0.34230 0.02000
Dy	Dy	0.84412 0.07470 0.68854 1.73500
O 	O 	0.13660 0.05220 0.71754 -0.46800
O 	O 	0.98370 0.12780 0.71012 -0.48500
C 	C 	0.06050 0.10970 0.72208 0.47300
C 	C 	0.06020 0.15870 0.74534 -0.13400
C 	C 	0.15280 0.18540 0.75598 0.04700
H 	H 	0.21600 0.17450 0.74860 0.03700
C 	C 	0.15260 0.22850 0.77765 -0.08300
C 	C 	0.05910 0.24210 0.78870 -0.00200
H 	H 	0.05790 0.26950 0.80320 0.05400
C 	C 	0.96620 0.21430 0.77798 -0.03700
C 	C 	0.86790 0.22680 0.79006 0.08800
N 	N 	0.79100 0.23890 0.79960 -0.12900
C 	C 	0.96660 0.17390 0.75591 0.02300
H 	H 	0.90420 0.15800 0.74870 0.04000
C 	C 	0.25310 0.25990 0.78893 0.31000
O 	O 	0.33970 0.24960 0.77906 -0.38400
O 	O 	0.24520 0.29720 0.80836 -0.41200
O 	O 	0.89660 0.93670 0.66900 -0.54300
O 	O 	0.04240 0.84600 0.66200 -0.46900
C 	C 	0.94780 0.86580 0.65893 0.48900
C 	C 	0.89010 0.80530 0.64137 -0.18300
C 	C 	0.73100 0.78500 0.61970 -0.03900
C 	C 	0.62100 0.80500 0.61770 0.06400
N 	N 	0.53500 0.83300 0.61480 -0.12000
C 	C 	0.78470 0.83330 0.63770 0.02600
C 	C 	0.78210 0.72300 0.60500 0.02000
H 	H 	0.75160 0.88180 0.64690 -0.00100
H 	H 	0.74740 0.69770 0.59230 0.02000
Dy	Dy	0.34412 0.57470 0.18854 1.73500
O 	O 	0.63660 0.55220 0.21754 -0.46800
O 	O 	0.48370 0.62780 0.21012 -0.48500
C 	C 	0.56050 0.60970 0.22208 0.47300
C 	C 	0.56020 0.65870 0.24534 -0.13400
C 	C 	0.65280 0.68540 0.25598 0.04700
H 	H 	0.71600 0.67450 0.24860 0.03700
C 	C 	0.65260 0.72850 0.27765 -0.08300
C 	C 	0.55910 0.74210 0.28870 -0.00200
H 	H 	0.55790 0.76950 0.30320 0.05400
C 	C 	0.46620 0.71430 0.27798 -0.03700
C 	C 	0.36790 0.72680 0.29006 0.08800
N 	N 	0.29100 0.73890 0.29960 -0.12900
C 	C 	0.46660 0.67390 0.25591 0.02300
H 	H 	0.40420 0.65800 0.24870 0.04000
C 	C 	0.75310 0.75990 0.28893 0.31000
O 	O 	0.83970 0.74960 0.27906 -0.38400
O 	O 	0.74520 0.79720 0.30836 -0.41200
O 	O 	0.39660 0.43670 0.16900 -0.54300
O 	O 	0.54240 0.34600 0.16200 -0.46900
C 	C 	0.44780 0.36580 0.15893 0.48900
C 	C 	0.39010 0.30530 0.14137 -0.18200
C 	C 	0.23100 0.28500 0.11970 -0.03800
C 	C 	0.12100 0.30500 0.11770 0.06500
N 	N 	0.03500 0.33300 0.11480 -0.12000
C 	C 	0.28470 0.33330 0.13770 0.02500
C 	C 	0.28210 0.22300 0.10500 0.02000
H 	H 	0.25160 0.38180 0.14690 -0.00100
H 	H 	0.24740 0.19770 0.09230 0.02000
Dy	Dy	0.15588 0.92530 0.68854 1.73500
O 	O 	0.86340 0.94780 0.71754 -0.46800
O 	O 	0.01630 0.87220 0.71012 -0.48500
C 	C 	0.93950 0.89030 0.72208 0.47300
C 	C 	0.93980 0.84130 0.74534 -0.13400
C 	C 	0.84720 0.81460 0.75598 0.04700
H 	H 	0.78400 0.82550 0.74860 0.03700
C 	C 	0.84740 0.77150 0.77765 -0.08300
C 	C 	0.94090 0.75790 0.78870 -0.00200
H 	H 	0.94210 0.73050 0.80320 0.05400
C 	C 	0.03380 0.78570 0.77798 -0.03700
C 	C 	0.13210 0.77320 0.79006 0.08800
N 	N 	0.20900 0.76110 0.79960 -0.12900
C 	C 	0.03340 0.82610 0.75591 0.02300
H 	H 	0.09580 0.84200 0.74870 0.04000
C 	C 	0.74690 0.74010 0.78893 0.31000
O 	O 	0.66030 0.75040 0.77906 -0.38400
O 	O 	0.75480 0.70280 0.80836 -0.41200
O 	O 	0.10340 0.06330 0.66900 -0.54300
O 	O 	0.95760 0.15400 0.66200 -0.46900
C 	C 	0.05220 0.13420 0.65893 0.48900
C 	C 	0.10990 0.19470 0.64137 -0.18300
C 	C 	0.26900 0.21500 0.61970 -0.03900
C 	C 	0.37900 0.19500 0.61770 0.06400
N 	N 	0.46500 0.16700 0.61480 -0.12000
C 	C 	0.21530 0.16670 0.63770 0.02600
C 	C 	0.21790 0.27700 0.60500 0.02000
H 	H 	0.24840 0.11820 0.64690 -0.00100
H 	H 	0.25260 0.30230 0.59230 0.02000
Dy	Dy	0.65588 0.42530 0.18854 1.73500
O 	O 	0.36340 0.44780 0.21754 -0.46800
O 	O 	0.51630 0.37220 0.21012 -0.48500
C 	C 	0.43950 0.39030 0.22208 0.47300
C 	C 	0.43980 0.34130 0.24534 -0.13400
C 	C 	0.34720 0.31460 0.25598 0.04700
H 	H 	0.28400 0.32550 0.24860 0.03700
C 	C 	0.34740 0.27150 0.27765 -0.08300
C 	C 	0.44090 0.25790 0.28870 -0.00200
H 	H 	0.44210 0.23050 0.30320 0.05400
C 	C 	0.53380 0.28570 0.27798 -0.03700
C 	C 	0.63210 0.27320 0.29006 0.08800
N 	N 	0.70900 0.26110 0.29960 -0.12900
C 	C 	0.53340 0.32610 0.25591 0.02300
H 	H 	0.59580 0.34200 0.24870 0.04000
C 	C 	0.24690 0.24010 0.28893 0.31000
O 	O 	0.16030 0.25040 0.27906 -0.38400
O 	O 	0.25480 0.20280 0.30836 -0.41200
O 	O 	0.60340 0.56330 0.16900 -0.54300
O 	O 	0.45760 0.65400 0.16200 -0.46900
C 	C 	0.55220 0.63420 0.15893 0.48900
C 	C 	0.60990 0.69470 0.14137 -0.18200
C 	C 	0.76900 0.71500 0.11970 -0.03800
C 	C 	0.87900 0.69500 0.11770 0.06500
N 	N 	0.96500 0.66700 0.11480 -0.12000
C 	C 	0.71530 0.66670 0.13770 0.02500
C 	C 	0.71790 0.77700 0.10500 0.02000
H 	H 	0.74840 0.61820 0.14690 -0.00100
H 	H 	0.75260 0.80230 0.09230 0.02000
Dy	Dy	0.42530 0.34412 0.81146 1.73500
O 	O 	0.44780 0.63660 0.78246 -0.46800
O 	O 	0.37220 0.48370 0.78988 -0.48500
C 	C 	0.39030 0.56050 0.77792 0.47300
C 	C 	0.34130 0.56020 0.75466 -0.13400
C 	C 	0.31460 0.65280 0.74402 0.04700
H 	H 	0.32550 0.71600 0.75140 0.03700
C 	C 	0.27150 0.65260 0.72235 -0.08300
C 	C 	0.25790 0.55910 0.71130 -0.00200
H 	H 	0.23050 0.55790 0.69680 0.05400
C 	C 	0.28570 0.46620 0.72202 -0.03700
C 	C 	0.27320 0.36790 0.70994 0.08800
N 	N 	0.26110 0.29100 0.70040 -0.12900
C 	C 	0.32610 0.46660 0.74409 0.02300
H 	H 	0.34200 0.40420 0.75130 0.04000
C 	C 	0.24010 0.75310 0.71107 0.31000
O 	O 	0.25040 0.83970 0.72094 -0.38400
O 	O 	0.20280 0.74520 0.69164 -0.41200
O 	O 	0.56330 0.39660 0.83100 -0.54300
O 	O 	0.65400 0.54240 0.83800 -0.46900
C 	C 	0.63420 0.44780 0.84107 0.48900
C 	C 	0.69470 0.39010 0.85863 -0.18200
C 	C 	0.71500 0.23100 0.88030 -0.03800
C 	C 	0.69500 0.12100 0.88230 0.06500
N 	N 	0.66700 0.03500 0.88520 -0.12000
C 	C 	0.66670 0.28470 0.86230 0.02500
C 	C 	0.77700 0.28210 0.89500 0.02000
H 	H 	0.61820 0.25160 0.85310 -0.00100
H 	H 	0.80230 0.24740 0.90770 0.02000
Dy	Dy	0.92530 0.84412 0.31146 1.73500
O 	O 	0.94780 0.13660 0.28246 -0.46800
O 	O 	0.87220 0.98370 0.28988 -0.48500
C 	C 	0.89030 0.06050 0.27792 0.47300
C 	C 	0.84130 0.06020 0.25466 -0.13400
C 	C 	0.81460 0.15280 0.24402 0.04700
H 	H 	0.82550 0.21600 0.25140 0.03700
C 	C 	0.77150 0.15260 0.22235 -0.08300
C 	C 	0.75790 0.05910 0.21130 -0.00200
H 	H 	0.73050 0.05790 0.19680 0.05400
C 	C 	0.78570 0.96620 0.22202 -0.03700
C 	C 	0.77320 0.86790 0.20994 0.08800
N 	N 	0.76110 0.79100 0.20040 -0.12900
C 	C 	0.82610 0.96660 0.24409 0.02300
H 	H 	0.84200 0.90420 0.25130 0.04000
C 	C 	0.74010 0.25310 0.21107 0.31000
O 	O 	0.75040 0.33970 0.22094 -0.38400
O 	O 	0.70280 0.24520 0.19164 -0.41200
O 	O 	0.06330 0.89660 0.33100 -0.54300
O 	O 	0.15400 0.04240 0.33800 -0.46900
C 	C 	0.13420 0.94780 0.34107 0.48900
C 	C 	0.19470 0.89010 0.35863 -0.18300
C 	C 	0.21500 0.73100 0.38030 -0.03900
C 	C 	0.19500 0.62100 0.38230 0.06400
N 	N 	0.16700 0.53500 0.38520 -0.12000
C 	C 	0.16670 0.78470 0.36230 0.02600
C 	C 	0.27700 0.78210 0.39500 0.02000
H 	H 	0.11820 0.75160 0.35310 -0.00100
H 	H 	0.30230 0.74740 0.40770 0.02000
Dy	Dy	0.57470 0.65588 0.81146 1.73500
O 	O 	0.55220 0.36340 0.78246 -0.46800
O 	O 	0.62780 0.51630 0.78988 -0.48500
C 	C 	0.60970 0.43950 0.77792 0.47300
C 	C 	0.65870 0.43980 0.75466 -0.13400
C 	C 	0.68540 0.34720 0.74402 0.04700
H 	H 	0.67450 0.28400 0.75140 0.03700
C 	C 	0.72850 0.34740 0.72235 -0.08300
C 	C 	0.74210 0.44090 0.71130 -0.00200
H 	H 	0.76950 0.44210 0.69680 0.05400
C 	C 	0.71430 0.53380 0.72202 -0.03700
C 	C 	0.72680 0.63210 0.70994 0.08800
N 	N 	0.73890 0.70900 0.70040 -0.12900
C 	C 	0.67390 0.53340 0.74409 0.02300
H 	H 	0.65800 0.59580 0.75130 0.04000
C 	C 	0.75990 0.24690 0.71107 0.31000
O 	O 	0.74960 0.16030 0.72094 -0.38400
O 	O 	0.79720 0.25480 0.69164 -0.41200
O 	O 	0.43670 0.60340 0.83100 -0.54300
O 	O 	0.34600 0.45760 0.83800 -0.46900
C 	C 	0.36580 0.55220 0.84107 0.48900
C 	C 	0.30530 0.60990 0.85863 -0.18200
C 	C 	0.28500 0.76900 0.88030 -0.03800
C 	C 	0.30500 0.87900 0.88230 0.06500
N 	N 	0.33300 0.96500 0.88520 -0.12000
C 	C 	0.33330 0.71530 0.86230 0.02500
C 	C 	0.22300 0.71790 0.89500 0.02000
H 	H 	0.38180 0.74840 0.85310 -0.00100
H 	H 	0.19770 0.75260 0.90770 0.02000
Dy	Dy	0.07470 0.15588 0.31146 1.73500
O 	O 	0.05220 0.86340 0.28246 -0.46800
O 	O 	0.12780 0.01630 0.28988 -0.48500
C 	C 	0.10970 0.93950 0.27792 0.47300
C 	C 	0.15870 0.93980 0.25466 -0.13400
C 	C 	0.18540 0.84720 0.24402 0.04700
H 	H 	0.17450 0.78400 0.25140 0.03700
C 	C 	0.22850 0.84740 0.22235 -0.08300
C 	C 	0.24210 0.94090 0.21130 -0.00200
H 	H 	0.26950 0.94210 0.19680 0.05400
C 	C 	0.21430 0.03380 0.22202 -0.03700
C 	C 	0.22680 0.13210 0.20994 0.08800
N 	N 	0.23890 0.20900 0.20040 -0.12900
C 	C 	0.17390 0.03340 0.24409 0.02300
H 	H 	0.15800 0.09580 0.25130 0.04000
C 	C 	0.25990 0.74690 0.21107 0.31000
O 	O 	0.24960 0.66030 0.22094 -0.38400
O 	O 	0.29720 0.75480 0.19164 -0.41200
O 	O 	0.93670 0.10340 0.33100 -0.54300
O 	O 	0.84600 0.95760 0.33800 -0.46900
C 	C 	0.86580 0.05220 0.34107 0.48900
C 	C 	0.80530 0.10990 0.35863 -0.18300
C 	C 	0.78500 0.26900 0.38030 -0.03900
C 	C 	0.80500 0.37900 0.38230 0.06400
N 	N 	0.83300 0.46500 0.38520 -0.12000
C 	C 	0.83330 0.21530 0.36230 0.02600
C 	C 	0.72300 0.21790 0.39500 0.02000
H 	H 	0.88180 0.24840 0.35310 -0.00100
H 	H 	0.69770 0.25260 0.40770 0.02000
C 	C 	0.55720 0.75000 0.12500 0.11900
H 	H 	0.48460 0.75000 0.12500 0.00700
C 	C 	0.05720 0.25000 0.62500 0.11900
H 	H 	0.98460 0.25000 0.62500 0.00700
C 	C 	0.44280 0.25000 0.12500 0.11900
H 	H 	0.51540 0.25000 0.12500 0.00700
C 	C 	0.75000 0.44280 0.87500 0.11900
H 	H 	0.75000 0.51540 0.87500 0.00700
C 	C 	0.25000 0.94280 0.37500 0.11900
H 	H 	0.25000 0.01540 0.37500 0.00700
C 	C 	0.25000 0.55720 0.87500 0.11900
H 	H 	0.25000 0.48460 0.87500 0.00700
C 	C 	0.75000 0.05720 0.37500 0.11900
H 	H 	0.75000 0.98460 0.37500 0.00700
C 	C 	0.94280 0.75000 0.62500 0.11900
H 	H 	0.01540 0.75000 0.62500 0.00700
