data_crystal

_cell_length_a 7.12910
_cell_length_b 16.07480
_cell_length_c 11.03750
_cell_angle_alpha 90.00000
_cell_angle_beta  90.00000
_cell_angle_gamma 90.00000

_symmetry_space_group_name_	'P 1'
_symmetry_space_group_name_H-M	'P 1'

loop_
_symmetry_equiv_pos_as_xyz
  x,y,z

loop_
_atom_site_label
_atom_site_type_symbol
_atom_site_fract_x
_atom_site_fract_y
_atom_site_fract_z
_atom_site_charge
Cd	Cd	0.54464 0.22384 0.86621 1.20100
O 	O 	0.42870 0.11171 0.98530 -0.28000
O 	O 	0.25720 0.22457 0.99860 -0.40500
C 	C 	0.28840 0.14980 0.02470 0.16000
C 	C 	0.15590 0.10460 0.10910 -0.04000
C 	C 	0.20040 0.02480 0.15150 -0.00700
H 	H 	0.31120 0.99950 0.12680 0.04300
C 	C 	0.07980 0.98300 0.23070 -0.08700
C 	C 	0.13330 0.89870 0.28470 0.37900
O 	O 	0.30090 0.87730 0.27090 -0.47900
O 	O 	0.00710 0.86063 0.33810 -0.48300
C 	C 	0.91100 0.02010 0.26560 -0.02300
H 	H 	0.82880 0.99220 0.31680 0.04700
C 	C 	0.86700 0.09930 0.22290 -0.01400
C 	C 	0.69140 0.13720 0.25930 0.06800
N 	N 	0.55000 0.16510 0.28920 -0.12000
C 	C 	0.99000 0.14220 0.14640 -0.04800
H 	H 	0.96090 0.19580 0.12060 0.03700
Cd	Cd	0.45536 0.77616 0.36621 1.19700
O 	O 	0.57130 0.88829 0.48530 -0.38300
O 	O 	0.74280 0.77543 0.49860 -0.50700
C 	C 	0.71160 0.85020 0.52470 0.34400
C 	C 	0.84410 0.89540 0.60910 -0.08700
C 	C 	0.79960 0.97520 0.65150 0.02600
H 	H 	0.68880 0.00050 0.62680 0.05000
C 	C 	0.92020 0.01700 0.73070 -0.08800
C 	C 	0.86670 0.10130 0.78470 0.38600
O 	O 	0.69910 0.12270 0.77090 -0.46800
O 	O 	0.99290 0.13937 0.83810 -0.46600
C 	C 	0.08900 0.97990 0.76560 -0.00700
H 	H 	0.17120 0.00780 0.81680 0.05500
C 	C 	0.13300 0.90070 0.72290 -0.02000
C 	C 	0.30860 0.86280 0.75930 0.09100
N 	N 	0.45000 0.83490 0.78920 -0.11200
C 	C 	0.01000 0.85780 0.64640 -0.00300
H 	H 	0.03910 0.80420 0.62060 0.04500
Cd	Cd	0.04464 0.27616 0.86621 1.19900
O 	O 	0.92870 0.38829 0.98530 -0.27300
O 	O 	0.75720 0.27543 0.99860 -0.39800
C 	C 	0.78840 0.35020 0.02470 0.14900
C 	C 	0.65590 0.39540 0.10910 -0.04100
C 	C 	0.70040 0.47520 0.15150 -0.00300
H 	H 	0.81120 0.50050 0.12680 0.04000
C 	C 	0.57980 0.51700 0.23070 -0.09300
C 	C 	0.63330 0.60130 0.28470 0.38000
O 	O 	0.80090 0.62270 0.27090 -0.48000
O 	O 	0.50710 0.63937 0.33810 -0.48600
C 	C 	0.41100 0.47990 0.26560 -0.02300
H 	H 	0.32880 0.50780 0.31680 0.05000
C 	C 	0.36700 0.40070 0.22290 -0.01300
C 	C 	0.19140 0.36280 0.25930 0.06800
N 	N 	0.05000 0.33490 0.28920 -0.12000
C 	C 	0.49000 0.35780 0.14640 -0.04800
H 	H 	0.46090 0.30420 0.12060 0.03700
Cd	Cd	0.95536 0.72384 0.36621 1.19500
O 	O 	0.07130 0.61171 0.48530 -0.38100
O 	O 	0.24280 0.72457 0.49860 -0.50600
C 	C 	0.21160 0.64980 0.52470 0.34500
C 	C 	0.34410 0.60460 0.60910 -0.08700
C 	C 	0.29960 0.52480 0.65150 0.03600
H 	H 	0.18880 0.49950 0.62680 0.04500
C 	C 	0.42020 0.48300 0.73070 -0.09600
C 	C 	0.36670 0.39870 0.78470 0.38800
O 	O 	0.19910 0.37730 0.77090 -0.47000
O 	O 	0.49290 0.36063 0.83810 -0.46900
C 	C 	0.58900 0.52010 0.76560 -0.00400
H 	H 	0.67120 0.49220 0.81680 0.05600
C 	C 	0.63300 0.59930 0.72290 -0.02000
C 	C 	0.80860 0.63720 0.75930 0.09200
N 	N 	0.95000 0.66510 0.78920 -0.11200
C 	C 	0.51000 0.64220 0.64640 -0.00400
H 	H 	0.53910 0.69580 0.62060 0.04500
