data_crystal

_cell_length_a 30.49200
_cell_length_b 15.98610
_cell_length_c 25.70220
_cell_angle_alpha 90.00000
_cell_angle_beta  89.99100
_cell_angle_gamma 90.00000

_symmetry_space_group_name_	'P 1'
_symmetry_space_group_name_H-M	'P 1'

loop_
_symmetry_equiv_pos_as_xyz
  x,y,z

loop_
_atom_site_label
_atom_site_type_symbol
_atom_site_fract_x
_atom_site_fract_y
_atom_site_fract_z
_atom_site_charge
Tm	Tm	0.49989 0.59772 0.06366 1.57300
Tm	Tm	0.50043 0.70806 0.25111 1.49700
Tm	Tm	0.49970 0.56909 0.43751 1.56600
O 	O 	0.44720 0.69820 0.19870 -0.53400
O 	O 	0.45740 0.64250 0.12320 -0.52000
C 	C 	0.43340 0.67870 0.15500 0.50300
C 	C 	0.38650 0.70060 0.14180 -0.24600
C 	C 	0.35900 0.74050 0.17560 0.15100
H 	H 	0.36930 0.75530 0.20840 -0.02100
C 	C 	0.31510 0.75980 0.16170 -0.22700
H 	H 	0.29690 0.78700 0.18540 0.10600
C 	C 	0.29950 0.73910 0.11440 0.17300
C 	C 	0.32580 0.69970 0.08030 -0.23100
H 	H 	0.31520 0.68500 0.04760 0.11400
C 	C 	0.36980 0.68050 0.09420 0.15100
H 	H 	0.38760 0.65350 0.07010 -0.01400
C 	C 	0.25270 0.76260 0.10360 -0.12200
H 	H 	0.23980 0.73240 0.07670 0.07000
O 	O 	0.54900 0.72060 0.18370 -0.49000
O 	O 	0.55550 0.62100 0.12170 -0.45800
C 	C 	0.56840 0.67870 0.15020 0.42400
C 	C 	0.61600 0.70430 0.14420 -0.18400
C 	C 	0.63330 0.76740 0.17360 0.10300
H 	H 	0.61580 0.79500 0.19780 -0.00800
C 	C 	0.67800 0.79090 0.16770 -0.18600
H 	H 	0.68980 0.83360 0.18780 0.08800
C 	C 	0.70300 0.75070 0.13240 0.12400
C 	C 	0.68710 0.68840 0.10270 -0.18100
H 	H 	0.70490 0.66150 0.07850 0.09600
C 	C 	0.64240 0.66490 0.10900 0.09500
H 	H 	0.63100 0.62180 0.08890 0.00800
C 	C 	0.74990 0.77810 0.12800 -0.06300
H 	H 	0.75700 0.82040 0.15140 0.04800
O 	O 	0.04080 0.97840 0.06330 -0.42700
O 	O 	0.04550 0.87640 0.00540 -0.41400
C 	C 	0.05950 0.91810 0.04270 0.41600
C 	C 	0.10350 0.89200 0.06450 -0.15500
C 	C 	0.12140 0.93440 0.10550 0.07900
H 	H 	0.10700 0.97970 0.12050 0.02100
C 	C 	0.16290 0.90730 0.12440 -0.16100
H 	H 	0.17560 0.93540 0.15230 0.08500
C 	C 	0.18430 0.84210 0.10310 0.11100
C 	C 	0.16660 0.80020 0.06280 -0.16200
H 	H 	0.18140 0.75520 0.04800 0.08600
C 	C 	0.12520 0.82580 0.04310 0.08300
H 	H 	0.11280 0.79720 0.01530 0.01600
C 	C 	0.22800 0.81500 0.12410 -0.05900
H 	H 	0.23740 0.83950 0.15500 0.04600
O 	O 	0.54630 0.59750 0.99250 -0.48100
O 	O 	0.55560 0.52030 0.92000 -0.41900
C 	C 	0.56570 0.57400 0.95280 0.40100
C 	C 	0.60870 0.61860 0.94300 -0.13000
C 	C 	0.62480 0.67930 0.97500 0.02000
H 	H 	0.60900 0.69470 0.00440 0.03800
C 	C 	0.66540 0.71930 0.96430 -0.13100
H 	H 	0.67550 0.76050 0.98690 0.06600
C 	C 	0.68980 0.69950 0.92230 0.08300
C 	C 	0.67470 0.63970 0.89010 -0.13900
H 	H 	0.69090 0.62470 0.86080 0.07400
C 	C 	0.63400 0.59980 0.90080 0.05300
H 	H 	0.62420 0.55880 0.87790 0.03000
C 	C 	0.73230 0.74530 0.91440 -0.04700
H 	H 	0.73920 0.79330 0.93310 0.03800
O 	O 	0.55490 0.67710 0.30390 -0.51000
O 	O 	0.55050 0.59340 0.37130 -0.43800
C 	C 	0.57020 0.64470 0.34380 0.45000
C 	C 	0.61600 0.67400 0.35640 -0.21200
C 	C 	0.63780 0.73070 0.32610 0.12500
H 	H 	0.62390 0.75230 0.29680 -0.01500
C 	C 	0.68100 0.75770 0.33810 -0.21000
H 	H 	0.69570 0.79610 0.31730 0.10000
C 	C 	0.69970 0.72530 0.38110 0.14800
C 	C 	0.67920 0.66940 0.41170 -0.20500
H 	H 	0.69340 0.64830 0.44100 0.09900
C 	C 	0.63610 0.64240 0.39950 0.11900
H 	H 	0.62170 0.60380 0.42060 -0.00200
C 	C 	0.74530 0.75080 0.39660 -0.09800
H 	H 	0.74910 0.75010 0.43250 0.05900
O 	O 	0.95210 0.81240 0.81250 -0.53600
O 	O 	0.95070 0.88510 0.88570 -0.52100
C 	C 	0.93430 0.83790 0.85290 0.49300
C 	C 	0.88800 0.80760 0.86210 -0.24200
C 	C 	0.86920 0.75540 0.82640 0.14700
H 	H 	0.88480 0.73890 0.79710 -0.02600
C 	C 	0.82570 0.72640 0.83430 -0.23500
H 	H 	0.81270 0.69100 0.81010 0.10400
C 	C 	0.80330 0.75020 0.87690 0.17600
C 	C 	0.82110 0.80160 0.91270 -0.23400
H 	H 	0.80520 0.81760 0.94190 0.10500
C 	C 	0.86460 0.83090 0.90490 0.14600
H 	H 	0.87730 0.86640 0.92930 -0.01500
C 	C 	0.75760 0.71560 0.88140 -0.13400
H 	H 	0.74850 0.67250 0.85970 0.07000
O 	O 	0.96070 0.94560 0.42950 -0.44900
O 	O 	0.95390 0.86300 0.50010 -0.47800
C 	C 	0.94250 0.89290 0.45760 0.42800
C 	C 	0.89950 0.86090 0.43590 -0.17300
C 	C 	0.88450 0.89030 0.38940 0.09800
H 	H 	0.90040 0.92990 0.37090 0.00800
C 	C 	0.84400 0.85960 0.36960 -0.18500
H 	H 	0.83340 0.87910 0.33800 0.09100
C 	C 	0.82130 0.80240 0.39680 0.13000
C 	C 	0.83660 0.77370 0.44250 -0.18600
H 	H 	0.82050 0.73390 0.46060 0.08900
C 	C 	0.87680 0.80260 0.46380 0.09500
H 	H 	0.88720 0.78260 0.49540 0.00300
C 	C 	0.77880 0.77240 0.37360 -0.08600
H 	H 	0.77780 0.76980 0.33750 0.05700
O 	O 	0.95440 0.91400 0.00100 -0.49300
O 	O 	0.95370 0.98890 0.07550 -0.45300
C 	C 	0.94000 0.93640 0.04400 0.45800
C 	C 	0.89860 0.89260 0.06180 -0.21500
C 	C 	0.88100 0.83370 0.02960 0.17700
H 	H 	0.89420 0.82100 0.99790 -0.04100
C 	C 	0.84200 0.79210 0.04540 -0.23900
H 	H 	0.83010 0.75180 0.02350 0.11400
C 	C 	0.82160 0.80820 0.09070 0.17300
C 	C 	0.83890 0.86630 0.12250 -0.22200
H 	H 	0.82530 0.87860 0.15400 0.10400
C 	C 	0.87790 0.90910 0.10780 0.13700
H 	H 	0.88960 0.94910 0.13010 -0.00400
C 	C 	0.78080 0.75810 0.10100 -0.12200
H 	H 	0.77910 0.70610 0.08490 0.07000
Tm	Tm	0.99989 0.09772 0.06366 1.55600
Tm	Tm	0.00043 0.20806 0.25111 1.51300
Tm	Tm	0.99970 0.06909 0.43751 1.55000
O 	O 	0.94720 0.19820 0.19870 -0.54600
O 	O 	0.95740 0.14250 0.12320 -0.52800
C 	C 	0.93340 0.17870 0.15500 0.50400
C 	C 	0.88650 0.20060 0.14180 -0.24900
C 	C 	0.85900 0.24050 0.17560 0.15200
H 	H 	0.86930 0.25530 0.20840 -0.02200
C 	C 	0.81510 0.25980 0.16170 -0.22800
H 	H 	0.79690 0.28700 0.18540 0.10500
C 	C 	0.79950 0.23910 0.11440 0.17300
C 	C 	0.82580 0.19970 0.08030 -0.23200
H 	H 	0.81520 0.18500 0.04760 0.11400
C 	C 	0.86980 0.18050 0.09420 0.15200
H 	H 	0.88760 0.15350 0.07010 -0.01500
C 	C 	0.75270 0.26260 0.10360 -0.12100
H 	H 	0.73980 0.23240 0.07670 0.06900
O 	O 	0.04900 0.22060 0.18370 -0.48300
O 	O 	0.05550 0.12100 0.12170 -0.45000
C 	C 	0.06840 0.17870 0.15020 0.42300
C 	C 	0.11600 0.20430 0.14420 -0.18200
C 	C 	0.13330 0.26740 0.17360 0.10300
H 	H 	0.11580 0.29500 0.19780 -0.00600
C 	C 	0.17800 0.29090 0.16770 -0.18500
H 	H 	0.18980 0.33360 0.18780 0.08900
C 	C 	0.20300 0.25070 0.13240 0.12400
C 	C 	0.18710 0.18840 0.10270 -0.18100
H 	H 	0.20490 0.16150 0.07850 0.09500
C 	C 	0.14240 0.16490 0.10900 0.09500
H 	H 	0.13100 0.12180 0.08890 0.00800
C 	C 	0.24990 0.27810 0.12800 -0.06500
H 	H 	0.25700 0.32040 0.15140 0.04900
O 	O 	0.54080 0.47840 0.06330 -0.43900
O 	O 	0.54550 0.37640 0.00540 -0.42600
C 	C 	0.55950 0.41810 0.04270 0.42000
C 	C 	0.60350 0.39200 0.06450 -0.15900
C 	C 	0.62140 0.43440 0.10550 0.08100
H 	H 	0.60700 0.47970 0.12050 0.01900
C 	C 	0.66290 0.40730 0.12440 -0.16400
H 	H 	0.67560 0.43540 0.15230 0.08500
C 	C 	0.68430 0.34210 0.10310 0.11200
C 	C 	0.66660 0.30020 0.06280 -0.16600
H 	H 	0.68140 0.25520 0.04800 0.08600
C 	C 	0.62520 0.32580 0.04310 0.08500
H 	H 	0.61280 0.29720 0.01530 0.01300
C 	C 	0.72800 0.31500 0.12410 -0.06100
H 	H 	0.73740 0.33950 0.15500 0.04600
O 	O 	0.04630 0.09750 0.99250 -0.46800
O 	O 	0.05560 0.02030 0.92000 -0.40900
C 	C 	0.06570 0.07400 0.95280 0.39900
C 	C 	0.10870 0.11860 0.94300 -0.12900
C 	C 	0.12480 0.17930 0.97500 0.02400
H 	H 	0.10900 0.19470 0.00440 0.03700
C 	C 	0.16540 0.21930 0.96430 -0.13300
H 	H 	0.17550 0.26050 0.98690 0.06800
C 	C 	0.18980 0.19950 0.92230 0.08600
C 	C 	0.17470 0.13970 0.89010 -0.13900
H 	H 	0.19090 0.12470 0.86080 0.07500
C 	C 	0.13400 0.09980 0.90080 0.05500
H 	H 	0.12420 0.05880 0.87790 0.03100
C 	C 	0.23230 0.24530 0.91440 -0.04800
H 	H 	0.23920 0.29330 0.93310 0.03900
O 	O 	0.05490 0.17710 0.30390 -0.50400
O 	O 	0.05050 0.09340 0.37130 -0.42800
C 	C 	0.07020 0.14470 0.34380 0.44900
C 	C 	0.11600 0.17400 0.35640 -0.20900
C 	C 	0.13780 0.23070 0.32610 0.12500
H 	H 	0.12390 0.25230 0.29680 -0.01400
C 	C 	0.18100 0.25770 0.33810 -0.20900
H 	H 	0.19570 0.29610 0.31730 0.10000
C 	C 	0.19970 0.22530 0.38110 0.14800
C 	C 	0.17920 0.16940 0.41170 -0.20400
H 	H 	0.19340 0.14830 0.44100 0.09900
C 	C 	0.13610 0.14240 0.39950 0.11800
H 	H 	0.12170 0.10380 0.42060 -0.00200
C 	C 	0.24530 0.25080 0.39660 -0.09700
H 	H 	0.24910 0.25010 0.43250 0.06000
O 	O 	0.45210 0.31240 0.81250 -0.52500
O 	O 	0.45070 0.38510 0.88570 -0.51600
C 	C 	0.43430 0.33790 0.85290 0.49200
C 	C 	0.38800 0.30760 0.86210 -0.23900
C 	C 	0.36920 0.25540 0.82640 0.14600
H 	H 	0.38480 0.23890 0.79710 -0.02400
C 	C 	0.32570 0.22640 0.83430 -0.23200
H 	H 	0.31270 0.19100 0.81010 0.10400
C 	C 	0.30330 0.25020 0.87690 0.17500
C 	C 	0.32110 0.30160 0.91270 -0.23300
H 	H 	0.30520 0.31760 0.94190 0.10500
C 	C 	0.36460 0.33090 0.90490 0.14500
H 	H 	0.37730 0.36640 0.92930 -0.01400
C 	C 	0.25760 0.21560 0.88140 -0.13200
H 	H 	0.24850 0.17250 0.85970 0.07000
O 	O 	0.46070 0.44560 0.42950 -0.44300
O 	O 	0.45390 0.36300 0.50010 -0.47300
C 	C 	0.44250 0.39290 0.45760 0.42800
C 	C 	0.39950 0.36090 0.43590 -0.17100
C 	C 	0.38450 0.39030 0.38940 0.09700
H 	H 	0.40040 0.42990 0.37090 0.01000
C 	C 	0.34400 0.35960 0.36960 -0.18300
H 	H 	0.33340 0.37910 0.33800 0.09200
C 	C 	0.32130 0.30240 0.39680 0.13000
C 	C 	0.33660 0.27370 0.44250 -0.18500
H 	H 	0.32050 0.23390 0.46060 0.09000
C 	C 	0.37680 0.30260 0.46380 0.09400
H 	H 	0.38720 0.28260 0.49540 0.00400
C 	C 	0.27880 0.27240 0.37360 -0.08600
H 	H 	0.27780 0.26980 0.33750 0.05800
O 	O 	0.45440 0.41400 0.00100 -0.48900
O 	O 	0.45370 0.48890 0.07550 -0.44800
C 	C 	0.44000 0.43640 0.04400 0.45700
C 	C 	0.39860 0.39260 0.06180 -0.21100
C 	C 	0.38100 0.33370 0.02960 0.17100
H 	H 	0.39420 0.32100 0.99790 -0.03700
C 	C 	0.34200 0.29210 0.04540 -0.23400
H 	H 	0.33010 0.25180 0.02350 0.11300
C 	C 	0.32160 0.30820 0.09070 0.17100
C 	C 	0.33890 0.36630 0.12250 -0.21800
H 	H 	0.32530 0.37860 0.15400 0.10400
C 	C 	0.37790 0.40910 0.10780 0.13500
H 	H 	0.38960 0.44910 0.13010 -0.00200
C 	C 	0.28080 0.25810 0.10100 -0.11900
H 	H 	0.27910 0.20610 0.08490 0.07000
Tm	Tm	0.49989 0.40228 0.56366 1.56800
Tm	Tm	0.50043 0.29194 0.75111 1.49500
Tm	Tm	0.49970 0.43091 0.93751 1.55600
O 	O 	0.44720 0.30180 0.69870 -0.53500
O 	O 	0.45740 0.35750 0.62320 -0.52200
C 	C 	0.43340 0.32130 0.65500 0.50100
C 	C 	0.38650 0.29940 0.64180 -0.24500
C 	C 	0.35900 0.25950 0.67560 0.14800
H 	H 	0.36930 0.24470 0.70840 -0.02000
C 	C 	0.31510 0.24020 0.66170 -0.22500
H 	H 	0.29690 0.21300 0.68540 0.10400
C 	C 	0.29950 0.26090 0.61440 0.16800
C 	C 	0.32580 0.30030 0.58030 -0.22900
H 	H 	0.31520 0.31500 0.54760 0.10700
C 	C 	0.36980 0.31950 0.59420 0.14700
H 	H 	0.38760 0.34650 0.57010 -0.01600
C 	C 	0.25270 0.23740 0.60360 -0.11900
H 	H 	0.23980 0.26760 0.57670 0.06600
O 	O 	0.54900 0.27940 0.68370 -0.49100
O 	O 	0.55550 0.37900 0.62170 -0.46000
C 	C 	0.56840 0.32130 0.65020 0.42600
C 	C 	0.61600 0.29570 0.64420 -0.19000
C 	C 	0.63330 0.23260 0.67360 0.11000
H 	H 	0.61580 0.20500 0.69780 -0.01100
C 	C 	0.67800 0.20910 0.66770 -0.19700
H 	H 	0.68980 0.16640 0.68780 0.09100
C 	C 	0.70300 0.24930 0.63240 0.13700
C 	C 	0.68710 0.31160 0.60270 -0.19300
H 	H 	0.70490 0.33850 0.57850 0.09600
C 	C 	0.64240 0.33510 0.60900 0.10200
H 	H 	0.63100 0.37820 0.58890 0.00300
C 	C 	0.74990 0.22190 0.62800 -0.09000
H 	H 	0.75700 0.17960 0.65140 0.05700
O 	O 	0.04080 0.02160 0.56330 -0.43000
O 	O 	0.04550 0.12360 0.50540 -0.42400
C 	C 	0.05950 0.08190 0.54270 0.41700
C 	C 	0.10350 0.10800 0.56450 -0.15900
C 	C 	0.12140 0.06560 0.60550 0.08000
H 	H 	0.10700 0.02030 0.62050 0.02000
C 	C 	0.16290 0.09270 0.62440 -0.16400
H 	H 	0.17560 0.06460 0.65230 0.08600
C 	C 	0.18430 0.15790 0.60310 0.11200
C 	C 	0.16660 0.19980 0.56280 -0.16700
H 	H 	0.18140 0.24480 0.54800 0.08400
C 	C 	0.12520 0.17420 0.54310 0.08300
H 	H 	0.11280 0.20280 0.51530 0.01100
C 	C 	0.22800 0.18500 0.62410 -0.06400
H 	H 	0.23740 0.16050 0.65500 0.04700
O 	O 	0.54630 0.40250 0.49250 -0.47100
O 	O 	0.55560 0.47970 0.42000 -0.42000
C 	C 	0.56570 0.42600 0.45280 0.41500
C 	C 	0.60870 0.38140 0.44300 -0.16400
C 	C 	0.62480 0.32070 0.47500 0.09400
H 	H 	0.60900 0.30530 0.50440 -0.00200
C 	C 	0.66540 0.28070 0.46430 -0.18000
H 	H 	0.67550 0.23950 0.48690 0.09000
C 	C 	0.68980 0.30050 0.42230 0.12200
C 	C 	0.67470 0.36030 0.39010 -0.17100
H 	H 	0.69090 0.37530 0.36080 0.08600
C 	C 	0.63400 0.40020 0.40080 0.08600
H 	H 	0.62420 0.44120 0.37790 0.02000
C 	C 	0.73230 0.25470 0.41440 -0.07300
H 	H 	0.73920 0.20670 0.43310 0.05100
O 	O 	0.55490 0.32290 0.80390 -0.51000
O 	O 	0.55050 0.40660 0.87130 -0.43900
C 	C 	0.57020 0.35530 0.84380 0.44900
C 	C 	0.61600 0.32600 0.85640 -0.21200
C 	C 	0.63780 0.26930 0.82610 0.12400
H 	H 	0.62390 0.24770 0.79680 -0.01500
C 	C 	0.68100 0.24230 0.83810 -0.20900
H 	H 	0.69570 0.20390 0.81730 0.09900
C 	C 	0.69970 0.27470 0.88110 0.14600
C 	C 	0.67920 0.33060 0.91170 -0.20500
H 	H 	0.69340 0.35170 0.94100 0.09500
C 	C 	0.63610 0.35760 0.89950 0.11600
H 	H 	0.62170 0.39620 0.92060 -0.00500
C 	C 	0.74530 0.24920 0.89660 -0.09800
H 	H 	0.74910 0.24990 0.93250 0.05600
O 	O 	0.95210 0.18760 0.31250 -0.53500
O 	O 	0.95070 0.11490 0.38570 -0.51800
C 	C 	0.93430 0.16210 0.35290 0.49200
C 	C 	0.88800 0.19240 0.36210 -0.23700
C 	C 	0.86920 0.24460 0.32640 0.14200
H 	H 	0.88480 0.26110 0.29710 -0.02400
C 	C 	0.82570 0.27360 0.33430 -0.22600
H 	H 	0.81270 0.30900 0.31010 0.10100
C 	C 	0.80330 0.24980 0.37690 0.16600
C 	C 	0.82110 0.19840 0.41270 -0.22500
H 	H 	0.80520 0.18240 0.44190 0.10600
C 	C 	0.86460 0.16910 0.40490 0.14100
H 	H 	0.87730 0.13360 0.42930 -0.01100
C 	C 	0.75760 0.28440 0.38140 -0.11200
H 	H 	0.74850 0.32750 0.35970 0.06300
O 	O 	0.96070 0.05440 0.92950 -0.44500
O 	O 	0.95390 0.13700 0.00010 -0.45500
C 	C 	0.94250 0.10710 0.95760 0.40200
C 	C 	0.89950 0.13910 0.93590 -0.16600
C 	C 	0.88450 0.10970 0.88940 0.09000
H 	H 	0.90040 0.07010 0.87090 0.01100
C 	C 	0.84400 0.14040 0.86960 -0.18100
H 	H 	0.83340 0.12090 0.83800 0.08900
C 	C 	0.82130 0.19760 0.89680 0.12600
C 	C 	0.83660 0.22630 0.94250 -0.18300
H 	H 	0.82050 0.26610 0.96060 0.08400
C 	C 	0.87680 0.19740 0.96380 0.08600
H 	H 	0.88720 0.21740 0.99540 -0.00200
C 	C 	0.77880 0.22760 0.87360 -0.08600
H 	H 	0.77780 0.23020 0.83750 0.05700
O 	O 	0.95440 0.08600 0.50100 -0.50200
O 	O 	0.95370 0.01110 0.57550 -0.45100
C 	C 	0.94000 0.06360 0.54400 0.44400
C 	C 	0.89860 0.10740 0.56180 -0.17900
C 	C 	0.88100 0.16630 0.52960 0.09900
H 	H 	0.89420 0.17900 0.49790 0.00100
C 	C 	0.84200 0.20790 0.54540 -0.18700
H 	H 	0.83010 0.24820 0.52350 0.09000
C 	C 	0.82160 0.19180 0.59070 0.13200
C 	C 	0.83890 0.13370 0.62250 -0.18600
H 	H 	0.82530 0.12140 0.65400 0.09100
C 	C 	0.87790 0.09090 0.60780 0.10200
H 	H 	0.88960 0.05090 0.63010 0.00700
C 	C 	0.78080 0.24190 0.60100 -0.09100
H 	H 	0.77910 0.29390 0.58490 0.05700
Tm	Tm	0.99989 0.90228 0.56366 1.55200
Tm	Tm	0.00043 0.79194 0.75111 1.51300
Tm	Tm	0.99970 0.93091 0.93751 1.54000
O 	O 	0.94720 0.80180 0.69870 -0.54600
O 	O 	0.95740 0.85750 0.62320 -0.52800
C 	C 	0.93340 0.82130 0.65500 0.50200
C 	C 	0.88650 0.79940 0.64180 -0.24800
C 	C 	0.85900 0.75950 0.67560 0.14900
H 	H 	0.86930 0.74470 0.70840 -0.02200
C 	C 	0.81510 0.74020 0.66170 -0.22600
H 	H 	0.79690 0.71300 0.68540 0.10400
C 	C 	0.79950 0.76090 0.61440 0.16800
C 	C 	0.82580 0.80030 0.58030 -0.22900
H 	H 	0.81520 0.81500 0.54760 0.10700
C 	C 	0.86980 0.81950 0.59420 0.14800
H 	H 	0.88760 0.84650 0.57010 -0.01700
C 	C 	0.75270 0.73740 0.60360 -0.11900
H 	H 	0.73980 0.76760 0.57670 0.06500
O 	O 	0.04900 0.77940 0.68370 -0.48400
O 	O 	0.05550 0.87900 0.62170 -0.45100
C 	C 	0.06840 0.82130 0.65020 0.42500
C 	C 	0.11600 0.79570 0.64420 -0.18800
C 	C 	0.13330 0.73260 0.67360 0.10900
H 	H 	0.11580 0.70500 0.69780 -0.00900
C 	C 	0.17800 0.70910 0.66770 -0.19600
H 	H 	0.18980 0.66640 0.68780 0.09200
C 	C 	0.20300 0.74930 0.63240 0.13700
C 	C 	0.18710 0.81160 0.60270 -0.19200
H 	H 	0.20490 0.83850 0.57850 0.09600
C 	C 	0.14240 0.83510 0.60900 0.10200
H 	H 	0.13100 0.87820 0.58890 0.00400
C 	C 	0.24990 0.72190 0.62800 -0.09000
H 	H 	0.25700 0.67960 0.65140 0.05700
O 	O 	0.54080 0.52160 0.56330 -0.44300
O 	O 	0.54550 0.62360 0.50540 -0.43500
C 	C 	0.55950 0.58190 0.54270 0.42000
C 	C 	0.60350 0.60800 0.56450 -0.16400
C 	C 	0.62140 0.56560 0.60550 0.08200
H 	H 	0.60700 0.52030 0.62050 0.01800
C 	C 	0.66290 0.59270 0.62440 -0.16700
H 	H 	0.67560 0.56460 0.65230 0.08600
C 	C 	0.68430 0.65790 0.60310 0.11400
C 	C 	0.66660 0.69980 0.56280 -0.17000
H 	H 	0.68140 0.74480 0.54800 0.08400
C 	C 	0.62520 0.67420 0.54310 0.08600
H 	H 	0.61280 0.70280 0.51530 0.00800
C 	C 	0.72800 0.68500 0.62410 -0.06500
H 	H 	0.73740 0.66050 0.65500 0.04700
O 	O 	0.04630 0.90250 0.49250 -0.45900
O 	O 	0.05560 0.97970 0.42000 -0.41100
C 	C 	0.06570 0.92600 0.45280 0.41200
C 	C 	0.10870 0.88140 0.44300 -0.16100
C 	C 	0.12480 0.82070 0.47500 0.09300
H 	H 	0.10900 0.80530 0.50440 0.00000
C 	C 	0.16540 0.78070 0.46430 -0.17700
H 	H 	0.17550 0.73950 0.48690 0.09000
C 	C 	0.18980 0.80050 0.42230 0.12100
C 	C 	0.17470 0.86030 0.39010 -0.16900
H 	H 	0.19090 0.87530 0.36080 0.08600
C 	C 	0.13400 0.90020 0.40080 0.08400
H 	H 	0.12420 0.94120 0.37790 0.02200
C 	C 	0.23230 0.75470 0.41440 -0.07200
H 	H 	0.23920 0.70670 0.43310 0.05100
O 	O 	0.05490 0.82290 0.80390 -0.50500
O 	O 	0.05050 0.90660 0.87130 -0.43000
C 	C 	0.07020 0.85530 0.84380 0.44800
C 	C 	0.11600 0.82600 0.85640 -0.21000
C 	C 	0.13780 0.76930 0.82610 0.12300
H 	H 	0.12390 0.74770 0.79680 -0.01400
C 	C 	0.18100 0.74230 0.83810 -0.20800
H 	H 	0.19570 0.70390 0.81730 0.09900
C 	C 	0.19970 0.77470 0.88110 0.14500
C 	C 	0.17920 0.83060 0.91170 -0.20400
H 	H 	0.19340 0.85170 0.94100 0.09400
C 	C 	0.13610 0.85760 0.89950 0.11500
H 	H 	0.12170 0.89620 0.92060 -0.00500
C 	C 	0.24530 0.74920 0.89660 -0.09700
H 	H 	0.24910 0.74990 0.93250 0.05600
O 	O 	0.45210 0.68760 0.31250 -0.52400
O 	O 	0.45070 0.61490 0.38570 -0.51300
C 	C 	0.43430 0.66210 0.35290 0.49000
C 	C 	0.38800 0.69240 0.36210 -0.23400
C 	C 	0.36920 0.74460 0.32640 0.14200
H 	H 	0.38480 0.76110 0.29710 -0.02200
C 	C 	0.32570 0.77360 0.33430 -0.22500
H 	H 	0.31270 0.80900 0.31010 0.10200
C 	C 	0.30330 0.74980 0.37690 0.16600
C 	C 	0.32110 0.69840 0.41270 -0.22400
H 	H 	0.30520 0.68240 0.44190 0.10600
C 	C 	0.36460 0.66910 0.40490 0.14100
H 	H 	0.37730 0.63360 0.42930 -0.01000
C 	C 	0.25760 0.78440 0.38140 -0.11200
H 	H 	0.24850 0.82750 0.35970 0.06400
O 	O 	0.46070 0.55440 0.92950 -0.43900
O 	O 	0.45390 0.63700 0.00010 -0.44900
C 	C 	0.44250 0.60710 0.95760 0.40000
C 	C 	0.39950 0.63910 0.93590 -0.16300
C 	C 	0.38450 0.60970 0.88940 0.08900
H 	H 	0.40040 0.57010 0.87090 0.01200
C 	C 	0.34400 0.64040 0.86960 -0.17900
H 	H 	0.33340 0.62090 0.83800 0.09000
C 	C 	0.32130 0.69760 0.89680 0.12500
C 	C 	0.33660 0.72630 0.94250 -0.18200
H 	H 	0.32050 0.76610 0.96060 0.08400
C 	C 	0.37680 0.69740 0.96380 0.08500
H 	H 	0.38720 0.71740 0.99540 -0.00100
C 	C 	0.27880 0.72760 0.87360 -0.08600
H 	H 	0.27780 0.73020 0.83750 0.05700
O 	O 	0.45440 0.58600 0.50100 -0.49700
O 	O 	0.45370 0.51110 0.57550 -0.44600
C 	C 	0.44000 0.56360 0.54400 0.44400
C 	C 	0.39860 0.60740 0.56180 -0.17700
C 	C 	0.38100 0.66630 0.52960 0.09900
H 	H 	0.39420 0.67900 0.49790 0.00200
C 	C 	0.34200 0.70790 0.54540 -0.18600
H 	H 	0.33010 0.74820 0.52350 0.09000
C 	C 	0.32160 0.69180 0.59070 0.13200
C 	C 	0.33890 0.63370 0.62250 -0.18500
H 	H 	0.32530 0.62140 0.65400 0.09100
C 	C 	0.37790 0.59090 0.60780 0.10200
H 	H 	0.38960 0.55090 0.63010 0.00800
C 	C 	0.28080 0.74190 0.60100 -0.09100
H 	H 	0.27910 0.79390 0.58490 0.05800
