data_crystal

_cell_length_a 30.61960
_cell_length_b 16.09040
_cell_length_c 25.88220
_cell_angle_alpha 90.00000
_cell_angle_beta  90.00800
_cell_angle_gamma 90.00000

_symmetry_space_group_name_	'P 1'
_symmetry_space_group_name_H-M	'P 1'

loop_
_symmetry_equiv_pos_as_xyz
  x,y,z

loop_
_atom_site_label
_atom_site_type_symbol
_atom_site_fract_x
_atom_site_fract_y
_atom_site_fract_z
_atom_site_charge
Er	Er	0.49945 0.58923 0.06281 1.92000
Er	Er	0.49910 0.71497 0.25029 1.62300
Er	Er	0.49900 0.57758 0.43718 1.83500
O 	O 	0.44890 0.70320 0.19670 -0.61500
O 	O 	0.45640 0.65120 0.11850 -0.59800
C 	C 	0.43460 0.68340 0.15360 0.59500
C 	C 	0.38670 0.69880 0.14090 -0.27000
C 	C 	0.35910 0.73440 0.17650 0.16000
H 	H 	0.36960 0.74970 0.20880 -0.02700
C 	C 	0.31440 0.74790 0.16370 -0.23300
H 	H 	0.29590 0.77180 0.18800 0.10700
C 	C 	0.29830 0.72660 0.11660 0.17400
C 	C 	0.32610 0.69160 0.08190 -0.23500
H 	H 	0.31530 0.67670 0.04960 0.10900
C 	C 	0.37100 0.67670 0.09300 0.16400
H 	H 	0.38930 0.65270 0.06840 -0.02300
C 	C 	0.25160 0.74200 0.10450 -0.13500
H 	H 	0.23760 0.70030 0.08590 0.07400
O 	O 	0.54760 0.71250 0.18440 -0.54800
O 	O 	0.55450 0.61420 0.12350 -0.50800
C 	C 	0.56750 0.67190 0.15120 0.50300
C 	C 	0.61500 0.69730 0.14410 -0.22200
C 	C 	0.63090 0.76140 0.17400 0.12600
H 	H 	0.61280 0.78770 0.19770 -0.02500
C 	C 	0.67520 0.78720 0.16860 -0.20700
H 	H 	0.68670 0.83000 0.18850 0.09200
C 	C 	0.70010 0.74660 0.13310 0.13900
C 	C 	0.68480 0.68360 0.10320 -0.20200
H 	H 	0.70310 0.65800 0.07930 0.09800
C 	C 	0.64060 0.65700 0.10840 0.12000
H 	H 	0.62950 0.61390 0.08830 -0.00600
C 	C 	0.74560 0.77810 0.13040 -0.09400
H 	H 	0.74770 0.82290 0.15300 0.05900
O 	O 	0.04430 0.98100 0.07400 -0.46100
O 	O 	0.04280 0.88770 0.00980 -0.45400
C 	C 	0.05900 0.92290 0.04780 0.48100
C 	C 	0.10330 0.88800 0.06340 -0.17100
C 	C 	0.12470 0.92220 0.10500 0.08500
H 	H 	0.11170 0.96590 0.12280 0.02300
C 	C 	0.16630 0.89250 0.12150 -0.16100
H 	H 	0.18010 0.91640 0.14980 0.08500
C 	C 	0.18560 0.82890 0.09560 0.10300
C 	C 	0.16440 0.79530 0.05450 -0.16200
H 	H 	0.17770 0.75170 0.03680 0.08300
C 	C 	0.12280 0.82370 0.03710 0.09000
H 	H 	0.10920 0.79930 0.00880 0.00500
C 	C 	0.22890 0.80200 0.11560 -0.05100
H 	H 	0.24070 0.83710 0.14070 0.04400
O 	O 	0.54660 0.59330 0.99480 -0.55400
O 	O 	0.55170 0.52170 0.91920 -0.47700
C 	C 	0.56310 0.57150 0.95320 0.48600
C 	C 	0.60600 0.61500 0.94110 -0.18400
C 	C 	0.62210 0.67200 0.97580 0.10200
H 	H 	0.60680 0.68370 0.00600 -0.01000
C 	C 	0.66240 0.71300 0.96510 -0.18300
H 	H 	0.67320 0.75140 0.98870 0.08900
C 	C 	0.68540 0.69720 0.92120 0.11900
C 	C 	0.66940 0.64090 0.88700 -0.17400
H 	H 	0.68500 0.62960 0.85690 0.08600
C 	C 	0.62910 0.59890 0.89650 0.09400
H 	H 	0.61850 0.56070 0.87270 0.01500
C 	C 	0.72690 0.74370 0.91430 -0.07600
H 	H 	0.73040 0.79430 0.93110 0.05300
O 	O 	0.55290 0.67550 0.30540 -0.55100
O 	O 	0.55420 0.59920 0.37510 -0.49100
C 	C 	0.57110 0.64920 0.34480 0.51400
C 	C 	0.61680 0.68210 0.35510 -0.24100
C 	C 	0.63870 0.73770 0.32410 0.13800
H 	H 	0.62510 0.75780 0.29450 -0.02800
C 	C 	0.68170 0.76540 0.33640 -0.21500
H 	H 	0.69610 0.80300 0.31510 0.09900
C 	C 	0.70120 0.73580 0.37980 0.14800
C 	C 	0.67980 0.68090 0.41060 -0.21000
H 	H 	0.69360 0.66140 0.44030 0.09900
C 	C 	0.63680 0.65240 0.39890 0.13000
H 	H 	0.62270 0.61470 0.42040 -0.01200
C 	C 	0.74580 0.76160 0.39560 -0.10100
H 	H 	0.75040 0.75930 0.43110 0.05900
O 	O 	0.94640 0.80860 0.80550 -0.56500
O 	O 	0.95330 0.86990 0.88210 -0.58700
C 	C 	0.93340 0.82990 0.84870 0.55000
C 	C 	0.88700 0.80230 0.86100 -0.24600
C 	C 	0.86490 0.75760 0.82400 0.13600
H 	H 	0.87860 0.74540 0.79290 -0.01900
C 	C 	0.82130 0.72950 0.83250 -0.21800
H 	H 	0.80670 0.69950 0.80720 0.09700
C 	C 	0.80140 0.74710 0.87810 0.15200
C 	C 	0.82340 0.79120 0.91460 -0.21300
H 	H 	0.80950 0.80280 0.94580 0.10100
C 	C 	0.86700 0.82030 0.90730 0.13700
H 	H 	0.88130 0.85030 0.93280 -0.01800
C 	C 	0.75610 0.71790 0.88750 -0.10900
H 	H 	0.74880 0.67030 0.86910 0.06200
O 	O 	0.95820 0.95680 0.43230 -0.51500
O 	O 	0.95250 0.87180 0.49900 -0.53600
C 	C 	0.93960 0.90220 0.45780 0.50400
C 	C 	0.89680 0.87060 0.43540 -0.21100
C 	C 	0.88270 0.90460 0.38950 0.11400
H 	H 	0.89870 0.94560 0.37270 -0.00600
C 	C 	0.84250 0.87450 0.36890 -0.19600
H 	H 	0.83180 0.89610 0.33810 0.09300
C 	C 	0.81980 0.81450 0.39430 0.13400
C 	C 	0.83430 0.78140 0.43940 -0.19700
H 	H 	0.81810 0.74040 0.45590 0.09200
C 	C 	0.87440 0.80970 0.46140 0.11200
H 	H 	0.88480 0.78770 0.49230 -0.00900
C 	C 	0.77820 0.78570 0.37100 -0.08900
H 	H 	0.77620 0.78570 0.33510 0.05600
O 	O 	0.95400 0.90230 0.00250 -0.56000
O 	O 	0.95260 0.98650 0.07230 -0.54800
C 	C 	0.93930 0.93040 0.04360 0.52200
C 	C 	0.89740 0.88860 0.06200 -0.20800
C 	C 	0.87980 0.82540 0.03300 0.11200
H 	H 	0.89290 0.80760 0.00250 -0.01200
C 	C 	0.84060 0.78810 0.05160 -0.19400
H 	H 	0.82800 0.74520 0.03260 0.08800
C 	C 	0.82080 0.81310 0.09590 0.12900
C 	C 	0.83870 0.87560 0.12410 -0.19100
H 	H 	0.82540 0.89310 0.15450 0.09200
C 	C 	0.87800 0.91470 0.10710 0.11100
H 	H 	0.89040 0.95740 0.12630 -0.00200
C 	C 	0.78010 0.76940 0.11120 -0.09000
H 	H 	0.78310 0.71370 0.10220 0.05700
Er	Er	0.99945 0.08923 0.06281 1.73200
Er	Er	0.99910 0.21497 0.25029 1.45500
Er	Er	0.99900 0.07758 0.43718 1.66000
O 	O 	0.94890 0.20320 0.19670 -0.59600
O 	O 	0.95640 0.15120 0.11850 -0.58400
C 	C 	0.93460 0.18340 0.15360 0.56800
C 	C 	0.88670 0.19880 0.14090 -0.25500
C 	C 	0.85910 0.23440 0.17650 0.14500
H 	H 	0.86960 0.24970 0.20880 -0.02300
C 	C 	0.81440 0.24790 0.16370 -0.22100
H 	H 	0.79590 0.27180 0.18800 0.10100
C 	C 	0.79830 0.22660 0.11660 0.15900
C 	C 	0.82610 0.19160 0.08190 -0.22300
H 	H 	0.81530 0.17670 0.04960 0.10400
C 	C 	0.87100 0.17670 0.09300 0.14800
H 	H 	0.88930 0.15270 0.06840 -0.01700
C 	C 	0.75160 0.24200 0.10450 -0.12000
H 	H 	0.73760 0.20030 0.08590 0.06600
O 	O 	0.04760 0.21250 0.18440 -0.48100
O 	O 	0.05450 0.11420 0.12350 -0.45400
C 	C 	0.06750 0.17190 0.15120 0.47900
C 	C 	0.11500 0.19730 0.14410 -0.19700
C 	C 	0.13090 0.26140 0.17400 0.11000
H 	H 	0.11280 0.28770 0.19770 -0.00900
C 	C 	0.17520 0.28720 0.16860 -0.18900
H 	H 	0.18670 0.33000 0.18850 0.09000
C 	C 	0.20010 0.24660 0.13310 0.12600
C 	C 	0.18480 0.18360 0.10320 -0.18600
H 	H 	0.20310 0.15800 0.07930 0.09200
C 	C 	0.14060 0.15700 0.10840 0.10500
H 	H 	0.12950 0.11390 0.08830 0.00100
C 	C 	0.24560 0.27810 0.13040 -0.08000
H 	H 	0.24770 0.32290 0.15300 0.05600
O 	O 	0.54430 0.48100 0.07400 -0.52300
O 	O 	0.54280 0.38770 0.00980 -0.51700
C 	C 	0.55900 0.42290 0.04780 0.50800
C 	C 	0.60330 0.38800 0.06340 -0.19800
C 	C 	0.62470 0.42220 0.10500 0.10100
H 	H 	0.61170 0.46590 0.12280 0.01200
C 	C 	0.66630 0.39250 0.12150 -0.17900
H 	H 	0.68010 0.41640 0.14980 0.08800
C 	C 	0.68560 0.32890 0.09560 0.11700
C 	C 	0.66440 0.29530 0.05450 -0.18100
H 	H 	0.67770 0.25170 0.03680 0.08600
C 	C 	0.62280 0.32370 0.03710 0.10600
H 	H 	0.60920 0.29930 0.00880 -0.01000
C 	C 	0.72890 0.30200 0.11560 -0.06900
H 	H 	0.74070 0.33710 0.14070 0.04800
O 	O 	0.04660 0.09330 0.99480 -0.49100
O 	O 	0.05170 0.02170 0.91920 -0.42400
C 	C 	0.06310 0.07150 0.95320 0.46500
C 	C 	0.10600 0.11500 0.94110 -0.16400
C 	C 	0.12210 0.17200 0.97580 0.09500
H 	H 	0.10680 0.18370 0.00600 0.00000
C 	C 	0.16240 0.21300 0.96510 -0.17100
H 	H 	0.17320 0.25140 0.98870 0.08900
C 	C 	0.18540 0.19720 0.92120 0.11100
C 	C 	0.16940 0.14090 0.88700 -0.16100
H 	H 	0.18500 0.12960 0.85690 0.08400
C 	C 	0.12910 0.09890 0.89650 0.08400
H 	H 	0.11850 0.06070 0.87270 0.02400
C 	C 	0.22690 0.24370 0.91430 -0.06300
H 	H 	0.23040 0.29430 0.93110 0.05100
O 	O 	0.05290 0.17550 0.30540 -0.48600
O 	O 	0.05420 0.09920 0.37510 -0.43700
C 	C 	0.07110 0.14920 0.34480 0.48700
C 	C 	0.11680 0.18210 0.35510 -0.21300
C 	C 	0.13870 0.23770 0.32410 0.12300
H 	H 	0.12510 0.25780 0.29450 -0.01500
C 	C 	0.18170 0.26540 0.33640 -0.19800
H 	H 	0.19610 0.30300 0.31510 0.09600
C 	C 	0.20120 0.23580 0.37980 0.13600
C 	C 	0.17980 0.18090 0.41060 -0.19400
H 	H 	0.19360 0.16140 0.44030 0.09400
C 	C 	0.13680 0.15240 0.39890 0.11400
H 	H 	0.12270 0.11470 0.42040 -0.00400
C 	C 	0.24580 0.26160 0.39560 -0.08900
H 	H 	0.25040 0.25930 0.43110 0.05600
O 	O 	0.44640 0.30860 0.80550 -0.58100
O 	O 	0.45330 0.36990 0.88210 -0.60300
C 	C 	0.43340 0.32990 0.84870 0.57500
C 	C 	0.38700 0.30230 0.86100 -0.25900
C 	C 	0.36490 0.25760 0.82400 0.15000
H 	H 	0.37860 0.24540 0.79290 -0.02200
C 	C 	0.32130 0.22950 0.83250 -0.22800
H 	H 	0.30670 0.19950 0.80720 0.10200
C 	C 	0.30140 0.24710 0.87810 0.16400
C 	C 	0.32340 0.29120 0.91460 -0.22400
H 	H 	0.30950 0.30280 0.94580 0.10600
C 	C 	0.36700 0.32030 0.90730 0.15100
H 	H 	0.38130 0.35030 0.93280 -0.02300
C 	C 	0.25610 0.21790 0.88750 -0.12000
H 	H 	0.24880 0.17030 0.86910 0.06700
O 	O 	0.45820 0.45680 0.43230 -0.52200
O 	O 	0.45250 0.37180 0.49900 -0.54700
C 	C 	0.43960 0.40220 0.45780 0.52100
C 	C 	0.39680 0.37060 0.43540 -0.21700
C 	C 	0.38270 0.40460 0.38950 0.12300
H 	H 	0.39870 0.44560 0.37270 -0.00700
C 	C 	0.34250 0.37450 0.36890 -0.20100
H 	H 	0.33180 0.39610 0.33810 0.09700
C 	C 	0.31980 0.31450 0.39430 0.14400
C 	C 	0.33430 0.28140 0.43940 -0.20300
H 	H 	0.31810 0.24040 0.45590 0.09500
C 	C 	0.37440 0.30970 0.46140 0.12000
H 	H 	0.38480 0.28770 0.49230 -0.00900
C 	C 	0.27820 0.28570 0.37100 -0.09800
H 	H 	0.27620 0.28570 0.33510 0.06100
O 	O 	0.45400 0.40230 0.00250 -0.57400
O 	O 	0.45260 0.48650 0.07230 -0.56200
C 	C 	0.43930 0.43040 0.04360 0.54400
C 	C 	0.39740 0.38860 0.06200 -0.21600
C 	C 	0.37980 0.32540 0.03300 0.12300
H 	H 	0.39290 0.30760 0.00250 -0.01300
C 	C 	0.34060 0.28810 0.05160 -0.20200
H 	H 	0.32800 0.24520 0.03260 0.09200
C 	C 	0.32080 0.31310 0.09590 0.14000
C 	C 	0.33870 0.37560 0.12410 -0.19900
H 	H 	0.32540 0.39310 0.15450 0.09700
C 	C 	0.37800 0.41470 0.10710 0.12300
H 	H 	0.39040 0.45740 0.12630 -0.00300
C 	C 	0.28010 0.26940 0.11120 -0.10300
H 	H 	0.28310 0.21370 0.10220 0.06200
Er	Er	0.49945 0.41077 0.56281 1.91900
Er	Er	0.49910 0.28503 0.75029 1.62200
Er	Er	0.49900 0.42242 0.93718 1.83600
O 	O 	0.44890 0.29680 0.69670 -0.61500
O 	O 	0.45640 0.34880 0.61850 -0.59800
C 	C 	0.43460 0.31660 0.65360 0.59500
C 	C 	0.38670 0.30120 0.64090 -0.27000
C 	C 	0.35910 0.26560 0.67650 0.16000
H 	H 	0.36960 0.25030 0.70880 -0.02700
C 	C 	0.31440 0.25210 0.66370 -0.23300
H 	H 	0.29590 0.22820 0.68800 0.10700
C 	C 	0.29830 0.27340 0.61660 0.17500
C 	C 	0.32610 0.30840 0.58190 -0.23600
H 	H 	0.31530 0.32330 0.54960 0.10900
C 	C 	0.37100 0.32330 0.59300 0.16400
H 	H 	0.38930 0.34730 0.56840 -0.02300
C 	C 	0.25160 0.25800 0.60450 -0.13500
H 	H 	0.23760 0.29970 0.58590 0.07400
O 	O 	0.54760 0.28750 0.68440 -0.54800
O 	O 	0.55450 0.38580 0.62350 -0.50800
C 	C 	0.56750 0.32810 0.65120 0.50300
C 	C 	0.61500 0.30270 0.64410 -0.22200
C 	C 	0.63090 0.23860 0.67400 0.12600
H 	H 	0.61280 0.21230 0.69770 -0.02500
C 	C 	0.67520 0.21280 0.66860 -0.20600
H 	H 	0.68670 0.17000 0.68850 0.09200
C 	C 	0.70010 0.25340 0.63310 0.13900
C 	C 	0.68480 0.31640 0.60320 -0.20100
H 	H 	0.70310 0.34200 0.57930 0.09800
C 	C 	0.64060 0.34300 0.60840 0.12000
H 	H 	0.62950 0.38610 0.58830 -0.00600
C 	C 	0.74560 0.22190 0.63040 -0.09400
H 	H 	0.74770 0.17710 0.65300 0.05800
O 	O 	0.04430 0.01900 0.57400 -0.46100
O 	O 	0.04280 0.11230 0.50980 -0.45400
C 	C 	0.05900 0.07710 0.54780 0.48100
C 	C 	0.10330 0.11200 0.56340 -0.17100
C 	C 	0.12470 0.07780 0.60500 0.08500
H 	H 	0.11170 0.03410 0.62280 0.02300
C 	C 	0.16630 0.10750 0.62150 -0.16100
H 	H 	0.18010 0.08360 0.64980 0.08500
C 	C 	0.18560 0.17110 0.59560 0.10300
C 	C 	0.16440 0.20470 0.55450 -0.16200
H 	H 	0.17770 0.24830 0.53680 0.08300
C 	C 	0.12280 0.17630 0.53710 0.09000
H 	H 	0.10920 0.20070 0.50880 0.00500
C 	C 	0.22890 0.19800 0.61560 -0.05100
H 	H 	0.24070 0.16290 0.64070 0.04400
O 	O 	0.54660 0.40670 0.49480 -0.55400
O 	O 	0.55170 0.47830 0.41920 -0.47700
C 	C 	0.56310 0.42850 0.45320 0.48600
C 	C 	0.60600 0.38500 0.44110 -0.18500
C 	C 	0.62210 0.32800 0.47580 0.10300
H 	H 	0.60680 0.31630 0.50600 -0.01000
C 	C 	0.66240 0.28700 0.46510 -0.18400
H 	H 	0.67320 0.24860 0.48870 0.08900
C 	C 	0.68540 0.30280 0.42120 0.12000
C 	C 	0.66940 0.35910 0.38700 -0.17500
H 	H 	0.68500 0.37040 0.35690 0.08600
C 	C 	0.62910 0.40110 0.39650 0.09400
H 	H 	0.61850 0.43930 0.37270 0.01500
C 	C 	0.72690 0.25630 0.41430 -0.07600
H 	H 	0.73040 0.20570 0.43110 0.05300
O 	O 	0.55290 0.32450 0.80540 -0.55100
O 	O 	0.55420 0.40080 0.87510 -0.49100
C 	C 	0.57110 0.35080 0.84480 0.51400
C 	C 	0.61680 0.31790 0.85510 -0.24100
C 	C 	0.63870 0.26230 0.82410 0.13800
H 	H 	0.62510 0.24220 0.79450 -0.02900
C 	C 	0.68170 0.23460 0.83640 -0.21500
H 	H 	0.69610 0.19700 0.81510 0.09900
C 	C 	0.70120 0.26420 0.87980 0.14800
C 	C 	0.67980 0.31910 0.91060 -0.21000
H 	H 	0.69360 0.33860 0.94030 0.09900
C 	C 	0.63680 0.34760 0.89890 0.13000
H 	H 	0.62270 0.38530 0.92040 -0.01200
C 	C 	0.74580 0.23840 0.89560 -0.10100
H 	H 	0.75040 0.24070 0.93110 0.06000
O 	O 	0.94640 0.19140 0.30550 -0.56500
O 	O 	0.95330 0.13010 0.38210 -0.58700
C 	C 	0.93340 0.17010 0.34870 0.55000
C 	C 	0.88700 0.19770 0.36100 -0.24600
C 	C 	0.86490 0.24240 0.32400 0.13600
H 	H 	0.87860 0.25460 0.29290 -0.01900
C 	C 	0.82130 0.27050 0.33250 -0.21800
H 	H 	0.80670 0.30050 0.30720 0.09700
C 	C 	0.80140 0.25290 0.37810 0.15100
C 	C 	0.82340 0.20880 0.41460 -0.21300
H 	H 	0.80950 0.19720 0.44580 0.10200
C 	C 	0.86700 0.17970 0.40730 0.13700
H 	H 	0.88130 0.14970 0.43280 -0.01700
C 	C 	0.75610 0.28210 0.38750 -0.10900
H 	H 	0.74880 0.32970 0.36910 0.06200
O 	O 	0.95820 0.04320 0.93230 -0.51400
O 	O 	0.95250 0.12820 0.99900 -0.53500
C 	C 	0.93960 0.09780 0.95780 0.50300
C 	C 	0.89680 0.12940 0.93540 -0.21100
C 	C 	0.88270 0.09540 0.88950 0.11400
H 	H 	0.89870 0.05440 0.87270 -0.00600
C 	C 	0.84250 0.12550 0.86890 -0.19500
H 	H 	0.83180 0.10390 0.83810 0.09200
C 	C 	0.81980 0.18550 0.89430 0.13400
C 	C 	0.83430 0.21860 0.93940 -0.19700
H 	H 	0.81810 0.25960 0.95590 0.09200
C 	C 	0.87440 0.19030 0.96140 0.11100
H 	H 	0.88480 0.21230 0.99230 -0.00900
C 	C 	0.77820 0.21430 0.87100 -0.08800
H 	H 	0.77620 0.21430 0.83510 0.05500
O 	O 	0.95400 0.09770 0.50250 -0.56100
O 	O 	0.95260 0.01350 0.57230 -0.54900
C 	C 	0.93930 0.06960 0.54360 0.52200
C 	C 	0.89740 0.11140 0.56200 -0.20800
C 	C 	0.87980 0.17460 0.53300 0.11300
H 	H 	0.89290 0.19240 0.50250 -0.01200
C 	C 	0.84060 0.21190 0.55160 -0.19400
H 	H 	0.82800 0.25480 0.53260 0.08800
C 	C 	0.82080 0.18690 0.59590 0.12900
C 	C 	0.83870 0.12440 0.62410 -0.19100
H 	H 	0.82540 0.10690 0.65450 0.09200
C 	C 	0.87800 0.08530 0.60710 0.11200
H 	H 	0.89040 0.04260 0.62630 -0.00200
C 	C 	0.78010 0.23060 0.61120 -0.09100
H 	H 	0.78310 0.28630 0.60220 0.05700
Er	Er	0.99945 0.91077 0.56281 1.73400
Er	Er	0.99910 0.78503 0.75029 1.45500
Er	Er	0.99900 0.92242 0.93718 1.65900
O 	O 	0.94890 0.79680 0.69670 -0.59700
O 	O 	0.95640 0.84880 0.61850 -0.58400
C 	C 	0.93460 0.81660 0.65360 0.56800
C 	C 	0.88670 0.80120 0.64090 -0.25500
C 	C 	0.85910 0.76560 0.67650 0.14500
H 	H 	0.86960 0.75030 0.70880 -0.02300
C 	C 	0.81440 0.75210 0.66370 -0.22100
H 	H 	0.79590 0.72820 0.68800 0.10100
C 	C 	0.79830 0.77340 0.61660 0.16000
C 	C 	0.82610 0.80840 0.58190 -0.22300
H 	H 	0.81530 0.82330 0.54960 0.10400
C 	C 	0.87100 0.82330 0.59300 0.14800
H 	H 	0.88930 0.84730 0.56840 -0.01600
C 	C 	0.75160 0.75800 0.60450 -0.12000
H 	H 	0.73760 0.79970 0.58590 0.06700
O 	O 	0.04760 0.78750 0.68440 -0.48100
O 	O 	0.05450 0.88580 0.62350 -0.45300
C 	C 	0.06750 0.82810 0.65120 0.47900
C 	C 	0.11500 0.80270 0.64410 -0.19600
C 	C 	0.13090 0.73860 0.67400 0.11000
H 	H 	0.11280 0.71230 0.69770 -0.00900
C 	C 	0.17520 0.71280 0.66860 -0.18900
H 	H 	0.18670 0.67000 0.68850 0.09000
C 	C 	0.20010 0.75340 0.63310 0.12600
C 	C 	0.18480 0.81640 0.60320 -0.18600
H 	H 	0.20310 0.84200 0.57930 0.09300
C 	C 	0.14060 0.84300 0.60840 0.10500
H 	H 	0.12950 0.88610 0.58830 0.00100
C 	C 	0.24560 0.72190 0.63040 -0.08000
H 	H 	0.24770 0.67710 0.65300 0.05600
O 	O 	0.54430 0.51900 0.57400 -0.52300
O 	O 	0.54280 0.61230 0.50980 -0.51600
C 	C 	0.55900 0.57710 0.54780 0.50800
C 	C 	0.60330 0.61200 0.56340 -0.19700
C 	C 	0.62470 0.57780 0.60500 0.10000
H 	H 	0.61170 0.53410 0.62280 0.01200
C 	C 	0.66630 0.60750 0.62150 -0.17900
H 	H 	0.68010 0.58360 0.64980 0.08800
C 	C 	0.68560 0.67110 0.59560 0.11700
C 	C 	0.66440 0.70470 0.55450 -0.18100
H 	H 	0.67770 0.74830 0.53680 0.08600
C 	C 	0.62280 0.67630 0.53710 0.10600
H 	H 	0.60920 0.70070 0.50880 -0.00900
C 	C 	0.72890 0.69800 0.61560 -0.06800
H 	H 	0.74070 0.66290 0.64070 0.04800
O 	O 	0.04660 0.90670 0.49480 -0.49100
O 	O 	0.05170 0.97830 0.41920 -0.42400
C 	C 	0.06310 0.92850 0.45320 0.46400
C 	C 	0.10600 0.88500 0.44110 -0.16200
C 	C 	0.12210 0.82800 0.47580 0.09000
H 	H 	0.10680 0.81630 0.50600 0.00300
C 	C 	0.16240 0.78700 0.46510 -0.16700
H 	H 	0.17320 0.74860 0.48870 0.08800
C 	C 	0.18540 0.80280 0.42120 0.10900
C 	C 	0.16940 0.85910 0.38700 -0.15900
H 	H 	0.18500 0.87040 0.35690 0.08300
C 	C 	0.12910 0.90110 0.39650 0.08200
H 	H 	0.11850 0.93930 0.37270 0.02400
C 	C 	0.22690 0.75630 0.41430 -0.06100
H 	H 	0.23040 0.70570 0.43110 0.05000
O 	O 	0.05290 0.82450 0.80540 -0.48700
O 	O 	0.05420 0.90080 0.87510 -0.43700
C 	C 	0.07110 0.85080 0.84480 0.48700
C 	C 	0.11680 0.81790 0.85510 -0.21400
C 	C 	0.13870 0.76230 0.82410 0.12300
H 	H 	0.12510 0.74220 0.79450 -0.01500
C 	C 	0.18170 0.73460 0.83640 -0.19800
H 	H 	0.19610 0.69700 0.81510 0.09600
C 	C 	0.20120 0.76420 0.87980 0.13600
C 	C 	0.17980 0.81910 0.91060 -0.19400
H 	H 	0.19360 0.83860 0.94030 0.09400
C 	C 	0.13680 0.84760 0.89890 0.11400
H 	H 	0.12270 0.88530 0.92040 -0.00400
C 	C 	0.24580 0.73840 0.89560 -0.08800
H 	H 	0.25040 0.74070 0.93110 0.05600
O 	O 	0.44640 0.69140 0.30550 -0.58100
O 	O 	0.45330 0.63010 0.38210 -0.60300
C 	C 	0.43340 0.67010 0.34870 0.57500
C 	C 	0.38700 0.69770 0.36100 -0.25900
C 	C 	0.36490 0.74240 0.32400 0.15000
H 	H 	0.37860 0.75460 0.29290 -0.02200
C 	C 	0.32130 0.77050 0.33250 -0.22900
H 	H 	0.30670 0.80050 0.30720 0.10200
C 	C 	0.30140 0.75290 0.37810 0.16500
C 	C 	0.32340 0.70880 0.41460 -0.22400
H 	H 	0.30950 0.69720 0.44580 0.10600
C 	C 	0.36700 0.67970 0.40730 0.15100
H 	H 	0.38130 0.64970 0.43280 -0.02300
C 	C 	0.25610 0.78210 0.38750 -0.12200
H 	H 	0.24880 0.82970 0.36910 0.06800
O 	O 	0.45820 0.54320 0.93230 -0.52200
O 	O 	0.45250 0.62820 0.99900 -0.54700
C 	C 	0.43960 0.59780 0.95780 0.52100
C 	C 	0.39680 0.62940 0.93540 -0.21700
C 	C 	0.38270 0.59540 0.88950 0.12300
H 	H 	0.39870 0.55440 0.87270 -0.00700
C 	C 	0.34250 0.62550 0.86890 -0.20200
H 	H 	0.33180 0.60390 0.83810 0.09700
C 	C 	0.31980 0.68550 0.89430 0.14400
C 	C 	0.33430 0.71860 0.93940 -0.20300
H 	H 	0.31810 0.75960 0.95590 0.09500
C 	C 	0.37440 0.69030 0.96140 0.12000
H 	H 	0.38480 0.71230 0.99230 -0.00900
C 	C 	0.27820 0.71430 0.87100 -0.09800
H 	H 	0.27620 0.71430 0.83510 0.06100
O 	O 	0.45400 0.59770 0.50250 -0.57300
O 	O 	0.45260 0.51350 0.57230 -0.56200
C 	C 	0.43930 0.56960 0.54360 0.54400
C 	C 	0.39740 0.61140 0.56200 -0.21600
C 	C 	0.37980 0.67460 0.53300 0.12400
H 	H 	0.39290 0.69240 0.50250 -0.01200
C 	C 	0.34060 0.71190 0.55160 -0.20200
H 	H 	0.32800 0.75480 0.53260 0.09200
C 	C 	0.32080 0.68690 0.59590 0.14000
C 	C 	0.33870 0.62440 0.62410 -0.19900
H 	H 	0.32540 0.60690 0.65450 0.09700
C 	C 	0.37800 0.58530 0.60710 0.12300
H 	H 	0.39040 0.54260 0.62630 -0.00300
C 	C 	0.28010 0.73060 0.61120 -0.10300
H 	H 	0.28310 0.78630 0.60220 0.06200
