data_crystal

_cell_length_a 10.34200
_cell_length_b 15.07900
_cell_length_c 25.11700
_cell_angle_alpha 90.00000
_cell_angle_beta  90.00000
_cell_angle_gamma 90.00000

_symmetry_space_group_name_	'P 1'
_symmetry_space_group_name_H-M	'P 1'

loop_
_symmetry_equiv_pos_as_xyz
  x,y,z

loop_
_atom_site_label
_atom_site_type_symbol
_atom_site_fract_x
_atom_site_fract_y
_atom_site_fract_z
_atom_site_charge
Cd	Cd	0.91212 0.49974 0.53666 1.22000
Cd	Cd	0.67163 0.50591 0.45596 1.21900
O 	O 	0.13300 0.09720 0.48220 -0.45000
O 	O 	0.28100 0.08800 0.41720 -0.43200
O 	O 	0.77300 0.40140 0.40800 -0.42700
C 	C 	0.17800 0.11700 0.43710 0.36100
O 	O 	0.91700 0.39400 0.47410 -0.46600
N 	N 	0.28700 0.50700 0.38580 -0.09900
N 	N 	0.93800 0.26160 0.23910 -0.08900
C 	C 	0.02500 0.19500 0.10020 -0.06100
C 	C 	0.86000 0.30600 0.09930 -0.05500
C 	C 	0.87100 0.37000 0.42960 0.35900
C 	C 	0.94600 0.30000 0.40120 -0.08400
N 	N 	0.48000 0.52650 0.41930 -0.23600
C 	C 	0.10200 0.18100 0.40480 -0.07800
C 	C 	0.02100 0.23400 0.32090 0.08700
C 	C 	0.85800 0.30700 0.15330 -0.07900
H 	H 	0.79890 0.34270 0.17110 0.07300
N 	N 	0.02800 0.22480 0.26340 -0.08600
C 	C 	0.94600 0.25500 0.18270 0.08600
C 	C 	0.03200 0.20000 0.15520 -0.07000
H 	H 	0.09340 0.16660 0.17370 0.07400
C 	C 	0.16300 0.46700 0.37060 -0.13400
H 	H 	0.09310 0.50050 0.38630 0.07500
H 	H 	0.15900 0.40680 0.38450 0.07500
C 	C 	0.94300 0.24800 0.07250 -0.01700
H 	H 	0.94180 0.24590 0.03550 0.04200
C 	C 	0.94000 0.29400 0.34580 -0.07000
H 	H 	0.88360 0.32870 0.32620 0.07600
C 	C 	0.14600 0.46400 0.31000 0.07200
C 	C 	0.03200 0.48900 0.28730 -0.07400
H 	H 	0.96510 0.50940 0.30860 0.06100
C 	C 	0.24700 0.43300 0.27760 -0.06900
H 	H 	0.32360 0.41400 0.29310 0.06300
C 	C 	0.10300 0.17900 0.34870 -0.06800
H 	H 	0.15890 0.14150 0.33050 0.06900
C 	C 	0.38400 0.46900 0.41340 0.05900
C 	C 	0.11500 0.45900 0.19930 0.06900
C 	C 	0.02300 0.24300 0.43020 0.00400
H 	H 	0.02200 0.24580 0.46710 0.03800
C 	C 	0.32500 0.59300 0.37260 -0.01700
H 	H 	0.27750 0.63510 0.35350 0.04900
C 	C 	0.44300 0.60300 0.39370 0.00500
H 	H 	0.49350 0.65390 0.39130 0.02000
C 	C 	0.01600 0.48500 0.23230 -0.06400
H 	H 	0.93630 0.49930 0.21760 0.05600
C 	C 	0.10200 0.46100 0.14020 -0.13600
H 	H 	0.09280 0.40040 0.12730 0.07800
H 	H 	0.02460 0.49320 0.13070 0.07700
C 	C 	0.38300 0.37400 0.43220 0.05800
H 	H 	0.34970 0.33640 0.40390 0.01400
H 	H 	0.47030 0.35530 0.44000 -0.00300
C 	C 	0.23200 0.42900 0.22260 -0.06200
H 	H 	0.29860 0.40740 0.20130 0.06000
C 	C 	0.30100 0.36200 0.48060 -0.57600
H 	H 	0.32650 0.40460 0.50720 0.20100
H 	H 	0.31190 0.30340 0.49430 0.20800
H 	H 	0.21180 0.37160 0.47150 0.20000
O 	O 	0.05400 0.09740 0.02870 -0.46400
C 	C 	0.10500 0.12600 0.07020 0.36000
O 	O 	0.21100 0.10480 0.09020 -0.43100
C 	C 	0.77700 0.36900 0.06740 0.32200
O 	O 	0.82800 0.39670 0.02460 -0.46200
O 	O 	0.66700 0.38680 0.08690 -0.40200
N 	N 	0.21400 0.50200 0.11420 -0.10200
C 	C 	0.30800 0.46300 0.08600 0.07200
C 	C 	0.22100 0.35500 0.01920 -0.52500
H 	H 	0.13450 0.37340 0.02740 0.18500
H 	H 	0.22110 0.29350 0.00930 0.19000
H 	H 	0.25390 0.38990 0.99020 0.18800
C 	C 	0.30700 0.36800 0.06790 0.01200
H 	H 	0.27560 0.33080 0.09660 0.02900
H 	H 	0.39420 0.34980 0.05940 0.01000
C 	C 	0.24500 0.59000 0.12090 -0.01400
H 	H 	0.19770 0.63320 0.13910 0.04800
N 	N 	0.39900 0.52280 0.07380 -0.23900
C 	C 	0.36000 0.60200 0.09540 0.00000
H 	H 	0.40470 0.65520 0.09300 0.01900
Cd	Cd	0.58788 0.50026 0.03666 1.21900
Cd	Cd	0.82837 0.49409 0.95596 1.21800
O 	O 	0.36700 0.90280 0.98220 -0.45300
O 	O 	0.21900 0.91200 0.91720 -0.43500
O 	O 	0.72700 0.59860 0.90800 -0.42800
C 	C 	0.32200 0.88300 0.93710 0.36000
O 	O 	0.58300 0.60600 0.97410 -0.46600
N 	N 	0.21300 0.49300 0.88580 -0.09900
N 	N 	0.56200 0.73840 0.73910 -0.08900
C 	C 	0.47500 0.80500 0.60020 -0.06400
C 	C 	0.64000 0.69400 0.59930 -0.05600
C 	C 	0.62900 0.63000 0.92960 0.35900
C 	C 	0.55400 0.70000 0.90120 -0.08200
N 	N 	0.02000 0.47350 0.91930 -0.23600
C 	C 	0.39800 0.81900 0.90480 -0.07800
C 	C 	0.47900 0.76600 0.82090 0.08400
C 	C 	0.64200 0.69300 0.65330 -0.07900
H 	H 	0.70110 0.65730 0.67110 0.07300
N 	N 	0.47200 0.77520 0.76340 -0.08700
C 	C 	0.55400 0.74500 0.68270 0.08900
C 	C 	0.46800 0.80000 0.65520 -0.07200
H 	H 	0.40660 0.83340 0.67370 0.07400
C 	C 	0.33700 0.53300 0.87060 -0.13400
H 	H 	0.40690 0.49950 0.88630 0.07500
H 	H 	0.34100 0.59320 0.88450 0.07500
C 	C 	0.55700 0.75200 0.57250 -0.01400
H 	H 	0.55820 0.75410 0.53550 0.04200
C 	C 	0.56000 0.70600 0.84580 -0.06700
H 	H 	0.61640 0.67130 0.82620 0.07600
C 	C 	0.35400 0.53600 0.81000 0.07200
C 	C 	0.46800 0.51100 0.78730 -0.07400
H 	H 	0.53490 0.49060 0.80860 0.06200
C 	C 	0.25300 0.56700 0.77760 -0.06900
H 	H 	0.17640 0.58600 0.79310 0.06300
C 	C 	0.39700 0.82100 0.84870 -0.06700
H 	H 	0.34110 0.85850 0.83050 0.06800
C 	C 	0.11600 0.53100 0.91340 0.05900
C 	C 	0.38500 0.54100 0.69930 0.06900
C 	C 	0.47700 0.75700 0.93020 0.00300
H 	H 	0.47800 0.75420 0.96710 0.03700
C 	C 	0.17500 0.40700 0.87260 -0.01700
H 	H 	0.22250 0.36490 0.85350 0.04900
C 	C 	0.05700 0.39700 0.89370 0.00500
H 	H 	0.00650 0.34610 0.89130 0.02100
C 	C 	0.48400 0.51500 0.73230 -0.06500
H 	H 	0.56370 0.50070 0.71760 0.05700
C 	C 	0.39800 0.53900 0.64020 -0.13600
H 	H 	0.40720 0.59960 0.62730 0.07800
H 	H 	0.47540 0.50680 0.63070 0.07700
C 	C 	0.11700 0.62600 0.93220 0.05900
H 	H 	0.15030 0.66360 0.90390 0.01400
H 	H 	0.02970 0.64470 0.94000 -0.00400
C 	C 	0.26800 0.57100 0.72260 -0.06200
H 	H 	0.20140 0.59260 0.70130 0.06000
C 	C 	0.19900 0.63800 0.98060 -0.57700
H 	H 	0.17350 0.59540 0.00720 0.20200
H 	H 	0.18810 0.69660 0.99430 0.20800
H 	H 	0.28820 0.62840 0.97150 0.20000
O 	O 	0.44600 0.90260 0.52870 -0.46500
C 	C 	0.39500 0.87400 0.57020 0.36100
O 	O 	0.28900 0.89520 0.59020 -0.43100
C 	C 	0.72300 0.63100 0.56740 0.32200
O 	O 	0.67200 0.60330 0.52460 -0.46100
O 	O 	0.83300 0.61320 0.58690 -0.40200
N 	N 	0.28600 0.49800 0.61420 -0.10200
C 	C 	0.19200 0.53700 0.58600 0.07200
C 	C 	0.27900 0.64500 0.51920 -0.51900
H 	H 	0.36550 0.62660 0.52740 0.18300
H 	H 	0.27890 0.70650 0.50930 0.18800
H 	H 	0.24610 0.61010 0.49020 0.18500
C 	C 	0.19300 0.63200 0.56790 0.00900
H 	H 	0.22440 0.66920 0.59660 0.03000
H 	H 	0.10580 0.65020 0.55940 0.01100
C 	C 	0.25500 0.41000 0.62090 -0.01400
H 	H 	0.30230 0.36680 0.63910 0.04800
N 	N 	0.10100 0.47720 0.57380 -0.23900
C 	C 	0.14000 0.39800 0.59540 0.00000
H 	H 	0.09530 0.34480 0.59300 0.01900
Cd	Cd	0.08788 0.99974 0.96334 1.21800
Cd	Cd	0.32837 0.00591 0.04404 1.21800
O 	O 	0.86700 0.59720 0.01780 -0.45200
O 	O 	0.71900 0.58800 0.08280 -0.43300
O 	O 	0.22700 0.90140 0.09200 -0.42700
C 	C 	0.82200 0.61700 0.06290 0.36000
O 	O 	0.08300 0.89400 0.02590 -0.46600
N 	N 	0.71300 0.00700 0.11420 -0.10400
N 	N 	0.06200 0.76160 0.26090 -0.08900
C 	C 	0.97500 0.69500 0.39980 -0.06300
C 	C 	0.14000 0.80600 0.40070 -0.05600
C 	C 	0.12900 0.87000 0.07040 0.35900
C 	C 	0.05400 0.80000 0.09880 -0.08300
N 	N 	0.52000 0.02650 0.08070 -0.23800
C 	C 	0.89800 0.68100 0.09520 -0.07800
C 	C 	0.97900 0.73400 0.17910 0.08500
C 	C 	0.14200 0.80700 0.34670 -0.07900
H 	H 	0.20110 0.84270 0.32890 0.07300
N 	N 	0.97200 0.72480 0.23660 -0.08700
C 	C 	0.05400 0.75500 0.31730 0.08800
C 	C 	0.96800 0.70000 0.34480 -0.07100
H 	H 	0.90660 0.66660 0.32630 0.07400
C 	C 	0.83700 0.96700 0.12940 -0.12100
H 	H 	0.90690 0.00050 0.11370 0.06900
H 	H 	0.84100 0.90680 0.11550 0.07100
C 	C 	0.05700 0.74800 0.42750 -0.01500
H 	H 	0.05820 0.74590 0.46450 0.04200
C 	C 	0.06000 0.79400 0.15420 -0.06800
H 	H 	0.11640 0.82870 0.17380 0.07600
C 	C 	0.85400 0.96400 0.19000 0.06900
C 	C 	0.96800 0.98900 0.21270 -0.07200
H 	H 	0.03490 0.00940 0.19140 0.06200
C 	C 	0.75300 0.93300 0.22240 -0.06700
H 	H 	0.67640 0.91400 0.20690 0.06200
C 	C 	0.89700 0.67900 0.15130 -0.06700
H 	H 	0.84110 0.64150 0.16950 0.06900
C 	C 	0.61600 0.96900 0.08660 0.06700
C 	C 	0.88500 0.95900 0.30070 0.06800
C 	C 	0.97700 0.74300 0.06980 0.00300
H 	H 	0.97800 0.74580 0.03290 0.03800
C 	C 	0.67500 0.09300 0.12740 -0.01600
H 	H 	0.72250 0.13510 0.14650 0.04900
C 	C 	0.55700 0.10300 0.10630 0.00400
H 	H 	0.50650 0.15390 0.10870 0.02000
C 	C 	0.98400 0.98500 0.26770 -0.06100
H 	H 	0.06370 0.99930 0.28240 0.05400
C 	C 	0.89800 0.96100 0.35980 -0.13300
H 	H 	0.90720 0.90040 0.37270 0.07700
H 	H 	0.97540 0.99320 0.36930 0.07700
C 	C 	0.61700 0.87400 0.06780 0.04600
H 	H 	0.65030 0.83640 0.09610 0.01800
H 	H 	0.52970 0.85530 0.06000 0.00100
C 	C 	0.76800 0.92900 0.27740 -0.06200
H 	H 	0.70140 0.90740 0.29870 0.06000
C 	C 	0.69900 0.86200 0.01940 -0.55700
H 	H 	0.67350 0.90460 0.99280 0.19500
H 	H 	0.68810 0.80340 0.00570 0.20300
H 	H 	0.78820 0.87160 0.02850 0.19500
O 	O 	0.94600 0.59740 0.47130 -0.46500
C 	C 	0.89500 0.62600 0.42980 0.36000
O 	O 	0.78900 0.60480 0.40980 -0.43100
C 	C 	0.22300 0.86900 0.43260 0.32200
O 	O 	0.17200 0.89670 0.47540 -0.46200
O 	O 	0.33300 0.88680 0.41310 -0.40200
N 	N 	0.78600 0.00200 0.38580 -0.10400
C 	C 	0.69200 0.96300 0.41400 0.07500
C 	C 	0.77900 0.85500 0.48080 -0.51700
H 	H 	0.86550 0.87340 0.47260 0.18300
H 	H 	0.77890 0.79350 0.49070 0.18800
H 	H 	0.74610 0.88990 0.50980 0.18500
C 	C 	0.69300 0.86800 0.43210 0.00700
H 	H 	0.72440 0.83080 0.40340 0.03100
H 	H 	0.60580 0.84980 0.44060 0.01200
C 	C 	0.75500 0.09000 0.37910 -0.01400
H 	H 	0.80230 0.13320 0.36090 0.04700
N 	N 	0.60100 0.02280 0.42620 -0.23900
C 	C 	0.64000 0.10200 0.40460 0.00000
H 	H 	0.59530 0.15520 0.40700 0.01900
Cd	Cd	0.41212 0.00026 0.46334 1.22000
Cd	Cd	0.17163 0.99409 0.54404 1.21700
O 	O 	0.63300 0.40280 0.51780 -0.45200
O 	O 	0.78100 0.41200 0.58280 -0.43400
O 	O 	0.27300 0.09860 0.59200 -0.42600
C 	C 	0.67800 0.38300 0.56290 0.36000
O 	O 	0.41700 0.10600 0.52590 -0.46600
N 	N 	0.78700 0.99300 0.61420 -0.09800
N 	N 	0.43800 0.23840 0.76090 -0.08900
C 	C 	0.52500 0.30500 0.89980 -0.06300
C 	C 	0.36000 0.19400 0.90070 -0.05500
C 	C 	0.37100 0.13000 0.57040 0.35900
C 	C 	0.44600 0.20000 0.59880 -0.08200
N 	N 	0.98000 0.97350 0.58070 -0.23500
C 	C 	0.60200 0.31900 0.59520 -0.07800
C 	C 	0.52100 0.26600 0.67910 0.08500
C 	C 	0.35800 0.19300 0.84670 -0.08000
H 	H 	0.29890 0.15730 0.82890 0.07400
N 	N 	0.52800 0.27520 0.73660 -0.08700
C 	C 	0.44600 0.24500 0.81730 0.08900
C 	C 	0.53200 0.30000 0.84480 -0.07300
H 	H 	0.59340 0.33340 0.82630 0.07500
C 	C 	0.66300 0.03300 0.62940 -0.13300
H 	H 	0.59310 0.99950 0.61370 0.07500
H 	H 	0.65900 0.09320 0.61550 0.07400
C 	C 	0.44300 0.25200 0.92750 -0.01400
H 	H 	0.44180 0.25410 0.96450 0.04300
C 	C 	0.44000 0.20600 0.65420 -0.06700
H 	H 	0.38360 0.17130 0.67380 0.07600
C 	C 	0.64600 0.03600 0.69000 0.07000
C 	C 	0.53200 0.01100 0.71270 -0.06800
H 	H 	0.46510 0.99060 0.69140 0.05900
C 	C 	0.74700 0.06700 0.72240 -0.06700
H 	H 	0.82360 0.08600 0.70690 0.06200
C 	C 	0.60300 0.32100 0.65130 -0.06700
H 	H 	0.65890 0.35850 0.66950 0.06900
C 	C 	0.88400 0.03100 0.58660 0.05700
C 	C 	0.61500 0.04100 0.80070 0.07100
C 	C 	0.52300 0.25700 0.56980 0.00200
H 	H 	0.52200 0.25420 0.53290 0.03800
C 	C 	0.82500 0.90700 0.62740 -0.01700
H 	H 	0.77750 0.86490 0.64650 0.04900
C 	C 	0.94300 0.89700 0.60630 0.00500
H 	H 	0.99350 0.84610 0.60870 0.02000
C 	C 	0.51600 0.01500 0.76770 -0.06800
H 	H 	0.43630 0.00070 0.78240 0.05900
C 	C 	0.60200 0.03900 0.85980 -0.13600
H 	H 	0.59280 0.09960 0.87270 0.07800
H 	H 	0.52460 0.00680 0.86930 0.07800
C 	C 	0.88300 0.12600 0.56780 0.06100
H 	H 	0.84970 0.16360 0.59610 0.01300
H 	H 	0.97030 0.14470 0.56000 -0.00500
C 	C 	0.73200 0.07100 0.77740 -0.06400
H 	H 	0.79860 0.09260 0.79870 0.06000
C 	C 	0.80100 0.13800 0.51940 -0.57800
H 	H 	0.82650 0.09540 0.49280 0.20100
H 	H 	0.81190 0.19660 0.50570 0.20900
H 	H 	0.71180 0.12840 0.52850 0.20000
O 	O 	0.55400 0.40260 0.97130 -0.46500
C 	C 	0.60500 0.37400 0.92980 0.36000
O 	O 	0.71100 0.39520 0.90980 -0.43100
C 	C 	0.27700 0.13100 0.93260 0.32200
O 	O 	0.32800 0.10330 0.97540 -0.45900
O 	O 	0.16700 0.11320 0.91310 -0.40000
N 	N 	0.71400 0.99800 0.88580 -0.10300
C 	C 	0.80800 0.03700 0.91400 0.07600
C 	C 	0.72100 0.14500 0.98080 -0.50200
H 	H 	0.63450 0.12660 0.97260 0.17900
H 	H 	0.72110 0.20650 0.99070 0.18300
H 	H 	0.75390 0.11010 0.00980 0.17800
C 	C 	0.80700 0.13200 0.93210 -0.00000
H 	H 	0.77560 0.16920 0.90340 0.03300
H 	H 	0.89420 0.15020 0.94060 0.01400
C 	C 	0.74500 0.91000 0.87910 -0.01400
H 	H 	0.69770 0.86680 0.86090 0.04800
N 	N 	0.89900 0.97720 0.92620 -0.23900
C 	C 	0.86000 0.89800 0.90460 0.00100
H 	H 	0.90470 0.84480 0.90700 0.01900
