data_crystal

_cell_length_a 20.36610
_cell_length_b 20.36610
_cell_length_c 20.36610
_cell_angle_alpha 90.00000
_cell_angle_beta  90.00000
_cell_angle_gamma 90.00000

_symmetry_space_group_name_	'P 1'
_symmetry_space_group_name_H-M	'P 1'

loop_
_symmetry_equiv_pos_as_xyz
  x,y,z

loop_
_atom_site_label
_atom_site_type_symbol
_atom_site_fract_x
_atom_site_fract_y
_atom_site_fract_z
_atom_site_charge
La	La	0.74276 0.14555 0.01269 1.48600
O 	O 	0.83510 0.20850 0.96000 -0.45600
O 	O 	0.88400 0.29580 0.91580 -0.44100
O 	O 	0.64230 0.20260 0.05300 -0.46600
O 	O 	0.57960 0.28960 0.07600 -0.43600
N 	N 	0.73500 0.27570 0.00080 -0.17700
C 	C 	0.83930 0.26910 0.94790 0.33600
C 	C 	0.78360 0.31110 0.97410 -0.06700
C 	C 	0.78190 0.37870 0.97000 -0.02000
H 	H 	0.81630 0.40180 0.95060 0.01500
C 	C 	0.72820 0.41140 0.99520 -0.06500
H 	H 	0.72630 0.45700 0.99390 0.02300
C 	C 	0.67690 0.37540 0.02240 -0.02300
H 	H 	0.63980 0.39630 0.03880 0.02200
C 	C 	0.68250 0.30810 0.02450 -0.06600
C 	C 	0.63050 0.26360 0.05330 0.33000
La	La	0.75724 0.85445 0.51269 1.48700
O 	O 	0.66490 0.79150 0.46000 -0.45500
O 	O 	0.61600 0.70420 0.41580 -0.44000
O 	O 	0.85770 0.79740 0.55300 -0.46500
O 	O 	0.92040 0.71040 0.57600 -0.43500
N 	N 	0.76500 0.72430 0.50080 -0.17600
C 	C 	0.66070 0.73090 0.44790 0.33600
C 	C 	0.71640 0.68890 0.47410 -0.06700
C 	C 	0.71810 0.62130 0.47000 -0.02000
H 	H 	0.68370 0.59820 0.45060 0.01400
C 	C 	0.77180 0.58860 0.49520 -0.06600
H 	H 	0.77370 0.54300 0.49390 0.02300
C 	C 	0.82310 0.62460 0.52240 -0.02200
H 	H 	0.86020 0.60370 0.53880 0.02200
C 	C 	0.81750 0.69190 0.52450 -0.06700
C 	C 	0.86950 0.73640 0.55330 0.33000
La	La	0.25724 0.64555 0.48731 1.48700
O 	O 	0.16490 0.70850 0.54000 -0.45500
O 	O 	0.11600 0.79580 0.58420 -0.44000
O 	O 	0.35770 0.70260 0.44700 -0.46500
O 	O 	0.42040 0.78960 0.42400 -0.43500
N 	N 	0.26500 0.77570 0.49920 -0.17600
C 	C 	0.16070 0.76910 0.55210 0.33600
C 	C 	0.21640 0.81110 0.52590 -0.06700
C 	C 	0.21810 0.87870 0.53000 -0.02000
H 	H 	0.18370 0.90180 0.54940 0.01400
C 	C 	0.27180 0.91140 0.50480 -0.06600
H 	H 	0.27370 0.95700 0.50610 0.02300
C 	C 	0.32310 0.87540 0.47760 -0.02200
H 	H 	0.36020 0.89630 0.46120 0.02200
C 	C 	0.31750 0.80810 0.47550 -0.06700
C 	C 	0.36950 0.76360 0.44670 0.33000
La	La	0.24276 0.35445 0.98731 1.48600
O 	O 	0.33510 0.29150 0.04000 -0.45400
O 	O 	0.38400 0.20420 0.08420 -0.43900
O 	O 	0.14230 0.29740 0.94700 -0.46500
O 	O 	0.07960 0.21040 0.92400 -0.43500
N 	N 	0.23500 0.22430 0.99920 -0.17800
C 	C 	0.33930 0.23090 0.05210 0.33500
C 	C 	0.28360 0.18890 0.02590 -0.06400
C 	C 	0.28190 0.12130 0.03000 -0.02300
H 	H 	0.31630 0.09820 0.04940 0.01600
C 	C 	0.22820 0.08860 0.00480 -0.05900
H 	H 	0.22630 0.04300 0.00610 0.02200
C 	C 	0.17690 0.12460 0.97760 -0.02800
H 	H 	0.13980 0.10370 0.96120 0.02400
C 	C 	0.18250 0.19190 0.97550 -0.06500
C 	C 	0.13050 0.23640 0.94670 0.32900
La	La	0.01269 0.74276 0.14555 1.48700
O 	O 	0.96000 0.83510 0.20850 -0.45500
O 	O 	0.91580 0.88400 0.29580 -0.44000
O 	O 	0.05300 0.64230 0.20260 -0.46500
O 	O 	0.07600 0.57960 0.28960 -0.43500
N 	N 	0.00080 0.73500 0.27570 -0.17600
C 	C 	0.94790 0.83930 0.26910 0.33600
C 	C 	0.97410 0.78360 0.31110 -0.06700
C 	C 	0.97000 0.78190 0.37870 -0.02000
H 	H 	0.95060 0.81630 0.40180 0.01500
C 	C 	0.99520 0.72820 0.41140 -0.06500
H 	H 	0.99390 0.72630 0.45700 0.02300
C 	C 	0.02240 0.67690 0.37540 -0.02300
H 	H 	0.03880 0.63980 0.39630 0.02200
C 	C 	0.02450 0.68250 0.30810 -0.06600
C 	C 	0.05330 0.63050 0.26360 0.33000
La	La	0.51269 0.75724 0.85445 1.48700
O 	O 	0.46000 0.66490 0.79150 -0.45500
O 	O 	0.41580 0.61600 0.70420 -0.44000
O 	O 	0.55300 0.85770 0.79740 -0.46500
O 	O 	0.57600 0.92040 0.71040 -0.43500
N 	N 	0.50080 0.76500 0.72430 -0.17600
C 	C 	0.44790 0.66070 0.73090 0.33600
C 	C 	0.47410 0.71640 0.68890 -0.06700
C 	C 	0.47000 0.71810 0.62130 -0.02000
H 	H 	0.45060 0.68370 0.59820 0.01400
C 	C 	0.49520 0.77180 0.58860 -0.06600
H 	H 	0.49390 0.77370 0.54300 0.02300
C 	C 	0.52240 0.82310 0.62460 -0.02200
H 	H 	0.53880 0.86020 0.60370 0.02200
C 	C 	0.52450 0.81750 0.69190 -0.06700
C 	C 	0.55330 0.86950 0.73640 0.33000
La	La	0.48731 0.25724 0.64555 1.48700
O 	O 	0.54000 0.16490 0.70850 -0.45500
O 	O 	0.58420 0.11600 0.79580 -0.44000
O 	O 	0.44700 0.35770 0.70260 -0.46500
O 	O 	0.42400 0.42040 0.78960 -0.43500
N 	N 	0.49920 0.26500 0.77570 -0.17600
C 	C 	0.55210 0.16070 0.76910 0.33600
C 	C 	0.52590 0.21640 0.81110 -0.06700
C 	C 	0.53000 0.21810 0.87870 -0.02000
H 	H 	0.54940 0.18370 0.90180 0.01400
C 	C 	0.50480 0.27180 0.91140 -0.06600
H 	H 	0.50610 0.27370 0.95700 0.02300
C 	C 	0.47760 0.32310 0.87540 -0.02200
H 	H 	0.46120 0.36020 0.89630 0.02200
C 	C 	0.47550 0.31750 0.80810 -0.06700
C 	C 	0.44670 0.36950 0.76360 0.33000
La	La	0.98731 0.24276 0.35445 1.48600
O 	O 	0.04000 0.33510 0.29150 -0.45400
O 	O 	0.08420 0.38400 0.20420 -0.43900
O 	O 	0.94700 0.14230 0.29740 -0.46500
O 	O 	0.92400 0.07960 0.21040 -0.43500
N 	N 	0.99920 0.23500 0.22430 -0.17800
C 	C 	0.05210 0.33930 0.23090 0.33500
C 	C 	0.02590 0.28360 0.18890 -0.06400
C 	C 	0.03000 0.28190 0.12130 -0.02300
H 	H 	0.04940 0.31630 0.09820 0.01600
C 	C 	0.00480 0.22820 0.08860 -0.05900
H 	H 	0.00610 0.22630 0.04300 0.02200
C 	C 	0.97760 0.17690 0.12460 -0.02800
H 	H 	0.96120 0.13980 0.10370 0.02400
C 	C 	0.97550 0.18250 0.19190 -0.06500
C 	C 	0.94670 0.13050 0.23640 0.32900
La	La	0.14555 0.01269 0.74276 1.48700
O 	O 	0.20850 0.96000 0.83510 -0.45500
O 	O 	0.29580 0.91580 0.88400 -0.44000
O 	O 	0.20260 0.05300 0.64230 -0.46500
O 	O 	0.28960 0.07600 0.57960 -0.43500
N 	N 	0.27570 0.00080 0.73500 -0.17600
C 	C 	0.26910 0.94790 0.83930 0.33600
C 	C 	0.31110 0.97410 0.78360 -0.06700
C 	C 	0.37870 0.97000 0.78190 -0.02000
H 	H 	0.40180 0.95060 0.81630 0.01500
C 	C 	0.41140 0.99520 0.72820 -0.06500
H 	H 	0.45700 0.99390 0.72630 0.02300
C 	C 	0.37540 0.02240 0.67690 -0.02300
H 	H 	0.39630 0.03880 0.63980 0.02200
C 	C 	0.30810 0.02450 0.68250 -0.06600
C 	C 	0.26360 0.05330 0.63050 0.33000
La	La	0.85445 0.51269 0.75724 1.48700
O 	O 	0.79150 0.46000 0.66490 -0.45500
O 	O 	0.70420 0.41580 0.61600 -0.44000
O 	O 	0.79740 0.55300 0.85770 -0.46500
O 	O 	0.71040 0.57600 0.92040 -0.43500
N 	N 	0.72430 0.50080 0.76500 -0.17600
C 	C 	0.73090 0.44790 0.66070 0.33600
C 	C 	0.68890 0.47410 0.71640 -0.06700
C 	C 	0.62130 0.47000 0.71810 -0.02000
H 	H 	0.59820 0.45060 0.68370 0.01400
C 	C 	0.58860 0.49520 0.77180 -0.06600
H 	H 	0.54300 0.49390 0.77370 0.02300
C 	C 	0.62460 0.52240 0.82310 -0.02200
H 	H 	0.60370 0.53880 0.86020 0.02200
C 	C 	0.69190 0.52450 0.81750 -0.06700
C 	C 	0.73640 0.55330 0.86950 0.33000
La	La	0.64555 0.48731 0.25724 1.48700
O 	O 	0.70850 0.54000 0.16490 -0.45500
O 	O 	0.79580 0.58420 0.11600 -0.44000
O 	O 	0.70260 0.44700 0.35770 -0.46500
O 	O 	0.78960 0.42400 0.42040 -0.43500
N 	N 	0.77570 0.49920 0.26500 -0.17600
C 	C 	0.76910 0.55210 0.16070 0.33600
C 	C 	0.81110 0.52590 0.21640 -0.06700
C 	C 	0.87870 0.53000 0.21810 -0.02000
H 	H 	0.90180 0.54940 0.18370 0.01400
C 	C 	0.91140 0.50480 0.27180 -0.06600
H 	H 	0.95700 0.50610 0.27370 0.02300
C 	C 	0.87540 0.47760 0.32310 -0.02200
H 	H 	0.89630 0.46120 0.36020 0.02200
C 	C 	0.80810 0.47550 0.31750 -0.06700
C 	C 	0.76360 0.44670 0.36950 0.33000
La	La	0.35445 0.98731 0.24276 1.48600
O 	O 	0.29150 0.04000 0.33510 -0.45400
O 	O 	0.20420 0.08420 0.38400 -0.43900
O 	O 	0.29740 0.94700 0.14230 -0.46500
O 	O 	0.21040 0.92400 0.07960 -0.43500
N 	N 	0.22430 0.99920 0.23500 -0.17800
C 	C 	0.23090 0.05210 0.33930 0.33500
C 	C 	0.18890 0.02590 0.28360 -0.06400
C 	C 	0.12130 0.03000 0.28190 -0.02300
H 	H 	0.09820 0.04940 0.31630 0.01600
C 	C 	0.08860 0.00480 0.22820 -0.05900
H 	H 	0.04300 0.00610 0.22630 0.02200
C 	C 	0.12460 0.97760 0.17690 -0.02800
H 	H 	0.10370 0.96120 0.13980 0.02400
C 	C 	0.19190 0.97550 0.18250 -0.06500
C 	C 	0.23640 0.94670 0.13050 0.32900
La	La	0.25724 0.85445 0.98731 1.48700
O 	O 	0.16490 0.79150 0.04000 -0.45500
O 	O 	0.11600 0.70420 0.08420 -0.44000
O 	O 	0.35770 0.79740 0.94700 -0.46500
O 	O 	0.42040 0.71040 0.92400 -0.43500
N 	N 	0.26500 0.72430 0.99920 -0.17600
C 	C 	0.16070 0.73090 0.05210 0.33600
C 	C 	0.21640 0.68890 0.02590 -0.06700
C 	C 	0.21810 0.62130 0.03000 -0.02000
H 	H 	0.18370 0.59820 0.04940 0.01500
C 	C 	0.27180 0.58860 0.00480 -0.06500
H 	H 	0.27370 0.54300 0.00610 0.02300
C 	C 	0.32310 0.62460 0.97760 -0.02300
H 	H 	0.36020 0.60370 0.96120 0.02200
C 	C 	0.31750 0.69190 0.97550 -0.06600
C 	C 	0.36950 0.73640 0.94670 0.33000
La	La	0.24276 0.14555 0.48731 1.48700
O 	O 	0.33510 0.20850 0.54000 -0.45500
O 	O 	0.38400 0.29580 0.58420 -0.44000
O 	O 	0.14230 0.20260 0.44700 -0.46500
O 	O 	0.07960 0.28960 0.42400 -0.43500
N 	N 	0.23500 0.27570 0.49920 -0.17600
C 	C 	0.33930 0.26910 0.55210 0.33600
C 	C 	0.28360 0.31110 0.52590 -0.06700
C 	C 	0.28190 0.37870 0.53000 -0.02000
H 	H 	0.31630 0.40180 0.54940 0.01400
C 	C 	0.22820 0.41140 0.50480 -0.06600
H 	H 	0.22630 0.45700 0.50610 0.02300
C 	C 	0.17690 0.37540 0.47760 -0.02200
H 	H 	0.13980 0.39630 0.46120 0.02200
C 	C 	0.18250 0.30810 0.47550 -0.06700
C 	C 	0.13050 0.26360 0.44670 0.33000
La	La	0.74276 0.35445 0.51269 1.48700
O 	O 	0.83510 0.29150 0.46000 -0.45500
O 	O 	0.88400 0.20420 0.41580 -0.44000
O 	O 	0.64230 0.29740 0.55300 -0.46500
O 	O 	0.57960 0.21040 0.57600 -0.43500
N 	N 	0.73500 0.22430 0.50080 -0.17600
C 	C 	0.83930 0.23090 0.44790 0.33600
C 	C 	0.78360 0.18890 0.47410 -0.06700
C 	C 	0.78190 0.12130 0.47000 -0.02000
H 	H 	0.81630 0.09820 0.45060 0.01400
C 	C 	0.72820 0.08860 0.49520 -0.06600
H 	H 	0.72630 0.04300 0.49390 0.02300
C 	C 	0.67690 0.12460 0.52240 -0.02200
H 	H 	0.63980 0.10370 0.53880 0.02200
C 	C 	0.68250 0.19190 0.52450 -0.06700
C 	C 	0.63050 0.23640 0.55330 0.33000
La	La	0.75724 0.64555 0.01269 1.48600
O 	O 	0.66490 0.70850 0.96000 -0.45400
O 	O 	0.61600 0.79580 0.91580 -0.43900
O 	O 	0.85770 0.70260 0.05300 -0.46500
O 	O 	0.92040 0.78960 0.07600 -0.43500
N 	N 	0.76500 0.77570 0.00080 -0.17800
C 	C 	0.66070 0.76910 0.94790 0.33500
C 	C 	0.71640 0.81110 0.97410 -0.06400
C 	C 	0.71810 0.87870 0.97000 -0.02300
H 	H 	0.68370 0.90180 0.95060 0.01600
C 	C 	0.77180 0.91140 0.99520 -0.05900
H 	H 	0.77370 0.95700 0.99390 0.02200
C 	C 	0.82310 0.87540 0.02240 -0.02800
H 	H 	0.86020 0.89630 0.03880 0.02400
C 	C 	0.81750 0.80810 0.02450 -0.06500
C 	C 	0.86950 0.76360 0.05330 0.32900
La	La	0.98731 0.25724 0.85445 1.48700
O 	O 	0.04000 0.16490 0.79150 -0.45500
O 	O 	0.08420 0.11600 0.70420 -0.44000
O 	O 	0.94700 0.35770 0.79740 -0.46500
O 	O 	0.92400 0.42040 0.71040 -0.43500
N 	N 	0.99920 0.26500 0.72430 -0.17600
C 	C 	0.05210 0.16070 0.73090 0.33600
C 	C 	0.02590 0.21640 0.68890 -0.06700
C 	C 	0.03000 0.21810 0.62130 -0.02000
H 	H 	0.04940 0.18370 0.59820 0.01500
C 	C 	0.00480 0.27180 0.58860 -0.06500
H 	H 	0.00610 0.27370 0.54300 0.02300
C 	C 	0.97760 0.32310 0.62460 -0.02300
H 	H 	0.96120 0.36020 0.60370 0.02200
C 	C 	0.97550 0.31750 0.69190 -0.06600
C 	C 	0.94670 0.36950 0.73640 0.33000
La	La	0.48731 0.24276 0.14555 1.48700
O 	O 	0.54000 0.33510 0.20850 -0.45500
O 	O 	0.58420 0.38400 0.29580 -0.44000
O 	O 	0.44700 0.14230 0.20260 -0.46500
O 	O 	0.42400 0.07960 0.28960 -0.43500
N 	N 	0.49920 0.23500 0.27570 -0.17600
C 	C 	0.55210 0.33930 0.26910 0.33600
C 	C 	0.52590 0.28360 0.31110 -0.06700
C 	C 	0.53000 0.28190 0.37870 -0.02000
H 	H 	0.54940 0.31630 0.40180 0.01400
C 	C 	0.50480 0.22820 0.41140 -0.06600
H 	H 	0.50610 0.22630 0.45700 0.02300
C 	C 	0.47760 0.17690 0.37540 -0.02200
H 	H 	0.46120 0.13980 0.39630 0.02200
C 	C 	0.47550 0.18250 0.30810 -0.06700
C 	C 	0.44670 0.13050 0.26360 0.33000
La	La	0.51269 0.74276 0.35445 1.48700
O 	O 	0.46000 0.83510 0.29150 -0.45500
O 	O 	0.41580 0.88400 0.20420 -0.44000
O 	O 	0.55300 0.64230 0.29740 -0.46500
O 	O 	0.57600 0.57960 0.21040 -0.43500
N 	N 	0.50080 0.73500 0.22430 -0.17600
C 	C 	0.44790 0.83930 0.23090 0.33600
C 	C 	0.47410 0.78360 0.18890 -0.06700
C 	C 	0.47000 0.78190 0.12130 -0.02000
H 	H 	0.45060 0.81630 0.09820 0.01400
C 	C 	0.49520 0.72820 0.08860 -0.06600
H 	H 	0.49390 0.72630 0.04300 0.02300
C 	C 	0.52240 0.67690 0.12460 -0.02200
H 	H 	0.53880 0.63980 0.10370 0.02200
C 	C 	0.52450 0.68250 0.19190 -0.06700
C 	C 	0.55330 0.63050 0.23640 0.33000
La	La	0.01269 0.75724 0.64555 1.48600
O 	O 	0.96000 0.66490 0.70850 -0.45400
O 	O 	0.91580 0.61600 0.79580 -0.43900
O 	O 	0.05300 0.85770 0.70260 -0.46500
O 	O 	0.07600 0.92040 0.78960 -0.43500
N 	N 	0.00080 0.76500 0.77570 -0.17800
C 	C 	0.94790 0.66070 0.76910 0.33500
C 	C 	0.97410 0.71640 0.81110 -0.06400
C 	C 	0.97000 0.71810 0.87870 -0.02300
H 	H 	0.95060 0.68370 0.90180 0.01600
C 	C 	0.99520 0.77180 0.91140 -0.05900
H 	H 	0.99390 0.77370 0.95700 0.02200
C 	C 	0.02240 0.82310 0.87540 -0.02800
H 	H 	0.03880 0.86020 0.89630 0.02400
C 	C 	0.02450 0.81750 0.80810 -0.06500
C 	C 	0.05330 0.86950 0.76360 0.32900
La	La	0.85445 0.98731 0.25724 1.48700
O 	O 	0.79150 0.04000 0.16490 -0.45500
O 	O 	0.70420 0.08420 0.11600 -0.44000
O 	O 	0.79740 0.94700 0.35770 -0.46500
O 	O 	0.71040 0.92400 0.42040 -0.43500
N 	N 	0.72430 0.99920 0.26500 -0.17600
C 	C 	0.73090 0.05210 0.16070 0.33600
C 	C 	0.68890 0.02590 0.21640 -0.06700
C 	C 	0.62130 0.03000 0.21810 -0.02000
H 	H 	0.59820 0.04940 0.18370 0.01500
C 	C 	0.58860 0.00480 0.27180 -0.06500
H 	H 	0.54300 0.00610 0.27370 0.02300
C 	C 	0.62460 0.97760 0.32310 -0.02300
H 	H 	0.60370 0.96120 0.36020 0.02200
C 	C 	0.69190 0.97550 0.31750 -0.06600
C 	C 	0.73640 0.94670 0.36950 0.33000
La	La	0.14555 0.48731 0.24276 1.48700
O 	O 	0.20850 0.54000 0.33510 -0.45500
O 	O 	0.29580 0.58420 0.38400 -0.44000
O 	O 	0.20260 0.44700 0.14230 -0.46500
O 	O 	0.28960 0.42400 0.07960 -0.43500
N 	N 	0.27570 0.49920 0.23500 -0.17600
C 	C 	0.26910 0.55210 0.33930 0.33600
C 	C 	0.31110 0.52590 0.28360 -0.06700
C 	C 	0.37870 0.53000 0.28190 -0.02000
H 	H 	0.40180 0.54940 0.31630 0.01400
C 	C 	0.41140 0.50480 0.22820 -0.06600
H 	H 	0.45700 0.50610 0.22630 0.02300
C 	C 	0.37540 0.47760 0.17690 -0.02200
H 	H 	0.39630 0.46120 0.13980 0.02200
C 	C 	0.30810 0.47550 0.18250 -0.06700
C 	C 	0.26360 0.44670 0.13050 0.33000
La	La	0.35445 0.51269 0.74276 1.48700
O 	O 	0.29150 0.46000 0.83510 -0.45500
O 	O 	0.20420 0.41580 0.88400 -0.44000
O 	O 	0.29740 0.55300 0.64230 -0.46500
O 	O 	0.21040 0.57600 0.57960 -0.43500
N 	N 	0.22430 0.50080 0.73500 -0.17600
C 	C 	0.23090 0.44790 0.83930 0.33600
C 	C 	0.18890 0.47410 0.78360 -0.06700
C 	C 	0.12130 0.47000 0.78190 -0.02000
H 	H 	0.09820 0.45060 0.81630 0.01400
C 	C 	0.08860 0.49520 0.72820 -0.06600
H 	H 	0.04300 0.49390 0.72630 0.02300
C 	C 	0.12460 0.52240 0.67690 -0.02200
H 	H 	0.10370 0.53880 0.63980 0.02200
C 	C 	0.19190 0.52450 0.68250 -0.06700
C 	C 	0.23640 0.55330 0.63050 0.33000
La	La	0.64555 0.01269 0.75724 1.48600
O 	O 	0.70850 0.96000 0.66490 -0.45400
O 	O 	0.79580 0.91580 0.61600 -0.43900
O 	O 	0.70260 0.05300 0.85770 -0.46500
O 	O 	0.78960 0.07600 0.92040 -0.43500
N 	N 	0.77570 0.00080 0.76500 -0.17800
C 	C 	0.76910 0.94790 0.66070 0.33500
C 	C 	0.81110 0.97410 0.71640 -0.06400
C 	C 	0.87870 0.97000 0.71810 -0.02300
H 	H 	0.90180 0.95060 0.68370 0.01600
C 	C 	0.91140 0.99520 0.77180 -0.05900
H 	H 	0.95700 0.99390 0.77370 0.02200
C 	C 	0.87540 0.02240 0.82310 -0.02800
H 	H 	0.89630 0.03880 0.86020 0.02400
C 	C 	0.80810 0.02450 0.81750 -0.06500
C 	C 	0.76360 0.05330 0.86950 0.32900
