data_crystal

_cell_length_a 18.80720
_cell_length_b 18.80720
_cell_length_c 18.80720
_cell_angle_alpha 60.00000
_cell_angle_beta  60.00000
_cell_angle_gamma 60.00000

_symmetry_space_group_name_	'P 1'
_symmetry_space_group_name_H-M	'P 1'

loop_
_symmetry_equiv_pos_as_xyz
  x,y,z

loop_
_atom_site_label
_atom_site_type_symbol
_atom_site_fract_x
_atom_site_fract_y
_atom_site_fract_z
_atom_site_charge
Mn	Mn	0.08566 0.50000 0.91434 1.30300
Mn	Mn	0.50000 0.08566 0.50000 1.30400
Mn	Mn	0.91434 0.50000 0.08566 1.30300
Mn	Mn	0.50000 0.91434 0.50000 1.30400
Mn	Mn	0.08566 0.91434 0.50000 1.30300
Mn	Mn	0.50000 0.50000 0.91434 1.30400
Mn	Mn	0.91434 0.08566 0.50000 1.30200
Mn	Mn	0.50000 0.50000 0.08566 1.30300
Mn	Mn	0.08566 0.50000 0.50000 1.30300
Mn	Mn	0.50000 0.91434 0.08566 1.30200
Mn	Mn	0.91434 0.50000 0.50000 1.30300
Mn	Mn	0.50000 0.08566 0.91434 1.30200
H 	H 	0.22930 0.22930 0.01230 0.04300
H 	H 	0.22930 0.22930 0.52910 0.04400
H 	H 	0.01230 0.52910 0.22930 0.04300
H 	H 	0.52910 0.01230 0.22930 0.04300
H 	H 	0.22930 0.01230 0.52910 0.04300
H 	H 	0.22930 0.52910 0.01230 0.04300
H 	H 	0.01230 0.22930 0.22930 0.04300
H 	H 	0.52910 0.22930 0.22930 0.04400
H 	H 	0.22930 0.52910 0.22930 0.04400
H 	H 	0.22930 0.01230 0.22930 0.04300
H 	H 	0.01230 0.22930 0.52910 0.04300
H 	H 	0.52910 0.22930 0.01230 0.04300
H 	H 	0.77070 0.77070 0.98770 0.04300
H 	H 	0.77070 0.77070 0.47090 0.04400
H 	H 	0.47090 0.98770 0.77070 0.04300
H 	H 	0.98770 0.47090 0.77070 0.04300
H 	H 	0.98770 0.77070 0.47090 0.04300
H 	H 	0.47090 0.77070 0.98770 0.04300
H 	H 	0.77070 0.98770 0.77070 0.04300
H 	H 	0.77070 0.47090 0.77070 0.04400
H 	H 	0.47090 0.77070 0.77070 0.04400
H 	H 	0.98770 0.77070 0.77070 0.04300
H 	H 	0.77070 0.98770 0.47090 0.04300
H 	H 	0.77070 0.47090 0.98770 0.04300
C 	C 	0.20010 0.20010 0.07050 0.07700
C 	C 	0.20010 0.20010 0.52930 0.08700
C 	C 	0.07050 0.52930 0.20010 0.08600
C 	C 	0.52930 0.07050 0.20010 0.08600
C 	C 	0.20010 0.07050 0.52930 0.08600
C 	C 	0.20010 0.52930 0.07050 0.08600
C 	C 	0.07050 0.20010 0.20010 0.07700
C 	C 	0.52930 0.20010 0.20010 0.08700
C 	C 	0.20010 0.52930 0.20010 0.08700
C 	C 	0.20010 0.07050 0.20010 0.07700
C 	C 	0.07050 0.20010 0.52930 0.08600
C 	C 	0.52930 0.20010 0.07050 0.08600
C 	C 	0.79990 0.79990 0.92950 0.07700
C 	C 	0.79990 0.79990 0.47070 0.08700
C 	C 	0.47070 0.92950 0.79990 0.08600
C 	C 	0.92950 0.47070 0.79990 0.08600
C 	C 	0.92950 0.79990 0.47070 0.08600
C 	C 	0.47070 0.79990 0.92950 0.08600
C 	C 	0.79990 0.92950 0.79990 0.07700
C 	C 	0.79990 0.47070 0.79990 0.08700
C 	C 	0.47070 0.79990 0.79990 0.08700
C 	C 	0.92950 0.79990 0.79990 0.07700
C 	C 	0.79990 0.92950 0.47070 0.08600
C 	C 	0.79990 0.47070 0.92950 0.08600
C 	C 	0.11390 0.24270 0.11390 -0.13500
C 	C 	0.06980 0.33400 0.06980 0.39400
C 	C 	0.24270 0.11390 0.52950 -0.14400
C 	C 	0.33400 0.06980 0.52640 0.41900
C 	C 	0.11390 0.52950 0.11390 -0.14100
C 	C 	0.06980 0.52640 0.06980 0.40400
C 	C 	0.52950 0.11390 0.24270 -0.14400
C 	C 	0.52640 0.06980 0.33400 0.41900
C 	C 	0.11390 0.11390 0.52950 -0.14100
C 	C 	0.06980 0.06980 0.52640 0.40400
C 	C 	0.24270 0.52950 0.11390 -0.14400
C 	C 	0.33400 0.52640 0.06980 0.41900
C 	C 	0.11390 0.11390 0.24270 -0.13500
C 	C 	0.06980 0.06980 0.33400 0.39400
C 	C 	0.52950 0.24270 0.11390 -0.14400
C 	C 	0.52640 0.33400 0.06980 0.41900
C 	C 	0.11390 0.52950 0.24270 -0.14400
C 	C 	0.06980 0.52640 0.33400 0.41900
C 	C 	0.24270 0.11390 0.11390 -0.13500
C 	C 	0.33400 0.06980 0.06980 0.39400
C 	C 	0.11390 0.24270 0.52950 -0.14400
C 	C 	0.06980 0.33400 0.52640 0.41900
C 	C 	0.52950 0.11390 0.11390 -0.14100
C 	C 	0.52640 0.06980 0.06980 0.40400
C 	C 	0.75730 0.88610 0.88610 -0.13500
C 	C 	0.66600 0.93020 0.93020 0.39400
C 	C 	0.88610 0.75730 0.47050 -0.14400
C 	C 	0.93020 0.66600 0.47360 0.41900
C 	C 	0.47050 0.88610 0.88610 -0.14100
C 	C 	0.47360 0.93020 0.93020 0.40400
C 	C 	0.88610 0.47050 0.75730 -0.14400
C 	C 	0.93020 0.47360 0.66600 0.41900
C 	C 	0.88610 0.88610 0.47050 -0.14100
C 	C 	0.93020 0.93020 0.47360 0.40400
C 	C 	0.47050 0.75730 0.88610 -0.14400
C 	C 	0.47360 0.66600 0.93020 0.41900
C 	C 	0.88610 0.88610 0.75730 -0.13500
C 	C 	0.93020 0.93020 0.66600 0.39400
C 	C 	0.75730 0.47050 0.88610 -0.14400
C 	C 	0.66600 0.47360 0.93020 0.41900
C 	C 	0.47050 0.88610 0.75730 -0.14400
C 	C 	0.47360 0.93020 0.66600 0.41900
C 	C 	0.88610 0.75730 0.88610 -0.13500
C 	C 	0.93020 0.66600 0.93020 0.39400
C 	C 	0.75730 0.88610 0.47050 -0.14400
C 	C 	0.66600 0.93020 0.47360 0.41900
C 	C 	0.88610 0.47050 0.88610 -0.14100
C 	C 	0.93020 0.47360 0.93020 0.40400
O 	O 	0.11280 0.36960 0.99440 -0.44300
O 	O 	0.36960 0.11280 0.52320 -0.45600
O 	O 	0.99440 0.52320 0.11280 -0.44800
O 	O 	0.52320 0.99440 0.36960 -0.45400
O 	O 	0.11280 0.99440 0.52320 -0.44800
O 	O 	0.36960 0.52320 0.99440 -0.45400
O 	O 	0.99440 0.11280 0.36960 -0.44300
O 	O 	0.52320 0.36960 0.11280 -0.45600
O 	O 	0.11280 0.52320 0.36960 -0.45600
O 	O 	0.36960 0.99440 0.11280 -0.44300
O 	O 	0.99440 0.36960 0.52320 -0.45400
O 	O 	0.52320 0.11280 0.99440 -0.44800
O 	O 	0.63040 0.88720 0.00560 -0.44300
O 	O 	0.88720 0.63040 0.47680 -0.45600
O 	O 	0.47680 0.00560 0.88720 -0.44800
O 	O 	0.00560 0.47680 0.63040 -0.45400
O 	O 	0.00560 0.88720 0.47680 -0.44800
O 	O 	0.47680 0.63040 0.00560 -0.45400
O 	O 	0.88720 0.00560 0.63040 -0.44300
O 	O 	0.63040 0.47680 0.88720 -0.45600
O 	O 	0.47680 0.88720 0.63040 -0.45600
O 	O 	0.00560 0.63040 0.88720 -0.44300
O 	O 	0.63040 0.00560 0.47680 -0.45400
O 	O 	0.88720 0.47680 0.00560 -0.44800
O 	O 	0.88720 0.63040 0.00560 -0.44300
O 	O 	0.63040 0.88720 0.47680 -0.45600
O 	O 	0.00560 0.47680 0.88720 -0.44800
O 	O 	0.47680 0.00560 0.63040 -0.45400
O 	O 	0.88720 0.00560 0.47680 -0.44800
O 	O 	0.63040 0.47680 0.00560 -0.45400
O 	O 	0.00560 0.88720 0.63040 -0.44300
O 	O 	0.47680 0.63040 0.88720 -0.45600
O 	O 	0.88720 0.47680 0.63040 -0.45600
O 	O 	0.63040 0.00560 0.88720 -0.44300
O 	O 	0.00560 0.63040 0.47680 -0.45400
O 	O 	0.47680 0.88720 0.00560 -0.44800
O 	O 	0.36960 0.11280 0.99440 -0.44300
O 	O 	0.11280 0.36960 0.52320 -0.45600
O 	O 	0.52320 0.99440 0.11280 -0.44800
O 	O 	0.99440 0.52320 0.36960 -0.45400
O 	O 	0.99440 0.11280 0.52320 -0.44800
O 	O 	0.52320 0.36960 0.99440 -0.45400
O 	O 	0.11280 0.99440 0.36960 -0.44300
O 	O 	0.36960 0.52320 0.11280 -0.45600
O 	O 	0.52320 0.11280 0.36960 -0.45600
O 	O 	0.99440 0.36960 0.11280 -0.44300
O 	O 	0.36960 0.99440 0.52320 -0.45400
O 	O 	0.11280 0.52320 0.99440 -0.44800
O 	O 	0.18520 0.52240 0.77000 -0.14600
O 	O 	0.52240 0.18520 0.52240 -0.14600
O 	O 	0.77000 0.52240 0.18520 -0.14600
O 	O 	0.52240 0.77000 0.52240 -0.14700
O 	O 	0.18520 0.77000 0.52240 -0.14600
O 	O 	0.52240 0.52240 0.77000 -0.14700
O 	O 	0.77000 0.18520 0.52240 -0.14600
O 	O 	0.52240 0.52240 0.18520 -0.14600
O 	O 	0.18520 0.52240 0.52240 -0.14600
O 	O 	0.52240 0.77000 0.18520 -0.14600
O 	O 	0.77000 0.52240 0.52240 -0.14700
O 	O 	0.52240 0.18520 0.77000 -0.14600
O 	O 	0.47760 0.81480 0.23000 -0.14600
O 	O 	0.81480 0.47760 0.47760 -0.14600
O 	O 	0.47760 0.23000 0.81480 -0.14600
O 	O 	0.23000 0.47760 0.47760 -0.14700
O 	O 	0.23000 0.81480 0.47760 -0.14600
O 	O 	0.47760 0.47760 0.23000 -0.14700
O 	O 	0.81480 0.23000 0.47760 -0.14600
O 	O 	0.47760 0.47760 0.81480 -0.14600
O 	O 	0.47760 0.81480 0.47760 -0.14600
O 	O 	0.23000 0.47760 0.81480 -0.14600
O 	O 	0.47760 0.23000 0.47760 -0.14700
O 	O 	0.81480 0.47760 0.23000 -0.14600
