data_crystal

_cell_length_a 18.68830
_cell_length_b 18.68830
_cell_length_c 18.68830
_cell_angle_alpha 60.00000
_cell_angle_beta  60.00000
_cell_angle_gamma 60.00000

_symmetry_space_group_name_	'P 1'
_symmetry_space_group_name_H-M	'P 1'

loop_
_symmetry_equiv_pos_as_xyz
  x,y,z

loop_
_atom_site_label
_atom_site_type_symbol
_atom_site_fract_x
_atom_site_fract_y
_atom_site_fract_z
_atom_site_charge
Co	Co	0.07904 0.50000 0.92096 1.17600
Co	Co	0.50000 0.07904 0.50000 1.17600
Co	Co	0.92096 0.50000 0.07904 1.17600
Co	Co	0.50000 0.92096 0.50000 1.17600
Co	Co	0.07904 0.92096 0.50000 1.17600
Co	Co	0.50000 0.50000 0.92096 1.17600
Co	Co	0.92096 0.07904 0.50000 1.17600
Co	Co	0.50000 0.50000 0.07904 1.17600
Co	Co	0.07904 0.50000 0.50000 1.17600
Co	Co	0.50000 0.92096 0.07904 1.17600
Co	Co	0.92096 0.50000 0.50000 1.17600
Co	Co	0.50000 0.07904 0.92096 1.17600
H 	H 	0.22940 0.22940 0.01060 0.05900
H 	H 	0.22940 0.22940 0.53060 0.06000
H 	H 	0.01060 0.53060 0.22940 0.05900
H 	H 	0.53060 0.01060 0.22940 0.05900
H 	H 	0.22940 0.01060 0.53060 0.05900
H 	H 	0.22940 0.53060 0.01060 0.05900
H 	H 	0.01060 0.22940 0.22940 0.06000
H 	H 	0.53060 0.22940 0.22940 0.06100
H 	H 	0.22940 0.53060 0.22940 0.06100
H 	H 	0.22940 0.01060 0.22940 0.06000
H 	H 	0.01060 0.22940 0.53060 0.06000
H 	H 	0.53060 0.22940 0.01060 0.06000
H 	H 	0.77060 0.77060 0.98940 0.06000
H 	H 	0.77060 0.77060 0.46940 0.06100
H 	H 	0.46940 0.98940 0.77060 0.06000
H 	H 	0.98940 0.46940 0.77060 0.06000
H 	H 	0.98940 0.77060 0.46940 0.06000
H 	H 	0.46940 0.77060 0.98940 0.06000
H 	H 	0.77060 0.98940 0.77060 0.06000
H 	H 	0.77060 0.46940 0.77060 0.06100
H 	H 	0.46940 0.77060 0.77060 0.06100
H 	H 	0.98940 0.77060 0.77060 0.06000
H 	H 	0.77060 0.98940 0.46940 0.06000
H 	H 	0.77060 0.46940 0.98940 0.06000
C 	C 	0.11210 0.24330 0.11210 -0.10200
C 	C 	0.06930 0.33590 0.06930 0.35900
C 	C 	0.24330 0.11210 0.53250 -0.10900
C 	C 	0.33590 0.06930 0.52550 0.38200
C 	C 	0.11210 0.53250 0.11210 -0.10600
C 	C 	0.06930 0.52550 0.06930 0.36800
C 	C 	0.53250 0.11210 0.24330 -0.10900
C 	C 	0.52550 0.06930 0.33590 0.38200
C 	C 	0.11210 0.11210 0.53250 -0.10600
C 	C 	0.06930 0.06930 0.52550 0.36800
C 	C 	0.24330 0.53250 0.11210 -0.10900
C 	C 	0.33590 0.52550 0.06930 0.38200
C 	C 	0.11210 0.11210 0.24330 -0.10200
C 	C 	0.06930 0.06930 0.33590 0.35900
C 	C 	0.53250 0.24330 0.11210 -0.10900
C 	C 	0.52550 0.33590 0.06930 0.38200
C 	C 	0.11210 0.53250 0.24330 -0.10900
C 	C 	0.06930 0.52550 0.33590 0.38200
C 	C 	0.24330 0.11210 0.11210 -0.10200
C 	C 	0.33590 0.06930 0.06930 0.35900
C 	C 	0.11210 0.24330 0.53250 -0.10900
C 	C 	0.06930 0.33590 0.52550 0.38200
C 	C 	0.53250 0.11210 0.11210 -0.10600
C 	C 	0.52550 0.06930 0.06930 0.36800
C 	C 	0.75670 0.88790 0.88790 -0.10200
C 	C 	0.66410 0.93070 0.93070 0.35900
C 	C 	0.88790 0.75670 0.46750 -0.10900
C 	C 	0.93070 0.66410 0.47450 0.38200
C 	C 	0.46750 0.88790 0.88790 -0.10600
C 	C 	0.47450 0.93070 0.93070 0.36800
C 	C 	0.88790 0.46750 0.75670 -0.10900
C 	C 	0.93070 0.47450 0.66410 0.38200
C 	C 	0.88790 0.88790 0.46750 -0.10600
C 	C 	0.93070 0.93070 0.47450 0.36800
C 	C 	0.46750 0.75670 0.88790 -0.10900
C 	C 	0.47450 0.66410 0.93070 0.38200
C 	C 	0.88790 0.88790 0.75670 -0.10200
C 	C 	0.93070 0.93070 0.66410 0.35900
C 	C 	0.75670 0.46750 0.88790 -0.10900
C 	C 	0.66410 0.47450 0.93070 0.38200
C 	C 	0.46750 0.88790 0.75670 -0.10900
C 	C 	0.47450 0.93070 0.66410 0.38200
C 	C 	0.88790 0.75670 0.88790 -0.10200
C 	C 	0.93070 0.66410 0.93070 0.35900
C 	C 	0.75670 0.88790 0.46750 -0.10900
C 	C 	0.66410 0.93070 0.47450 0.38200
C 	C 	0.88790 0.46750 0.88790 -0.10600
C 	C 	0.93070 0.47450 0.93070 0.36800
C 	C 	0.19970 0.19970 0.06890 0.04800
C 	C 	0.19970 0.19970 0.53170 0.05800
C 	C 	0.06890 0.53170 0.19970 0.05600
C 	C 	0.53170 0.06890 0.19970 0.05600
C 	C 	0.19970 0.06890 0.53170 0.05600
C 	C 	0.19970 0.53170 0.06890 0.05600
C 	C 	0.06890 0.19970 0.19970 0.04800
C 	C 	0.53170 0.19970 0.19970 0.05800
C 	C 	0.19970 0.53170 0.19970 0.05800
C 	C 	0.19970 0.06890 0.19970 0.04800
C 	C 	0.06890 0.19970 0.53170 0.05600
C 	C 	0.53170 0.19970 0.06890 0.05600
C 	C 	0.80030 0.80030 0.93110 0.04800
C 	C 	0.80030 0.80030 0.46830 0.05800
C 	C 	0.46830 0.93110 0.80030 0.05600
C 	C 	0.93110 0.46830 0.80030 0.05600
C 	C 	0.93110 0.80030 0.46830 0.05600
C 	C 	0.46830 0.80030 0.93110 0.05600
C 	C 	0.80030 0.93110 0.80030 0.04800
C 	C 	0.80030 0.46830 0.80030 0.05800
C 	C 	0.46830 0.80030 0.80030 0.05800
C 	C 	0.93110 0.80030 0.80030 0.04800
C 	C 	0.80030 0.93110 0.46830 0.05600
C 	C 	0.80030 0.46830 0.93110 0.05600
O 	O 	0.11330 0.37150 0.99310 -0.41100
O 	O 	0.37150 0.11330 0.52210 -0.42300
O 	O 	0.99310 0.52210 0.11330 -0.41500
O 	O 	0.52210 0.99310 0.37150 -0.42100
O 	O 	0.11330 0.99310 0.52210 -0.41500
O 	O 	0.37150 0.52210 0.99310 -0.42100
O 	O 	0.99310 0.11330 0.37150 -0.41100
O 	O 	0.52210 0.37150 0.11330 -0.42300
O 	O 	0.11330 0.52210 0.37150 -0.42300
O 	O 	0.37150 0.99310 0.11330 -0.41100
O 	O 	0.99310 0.37150 0.52210 -0.42100
O 	O 	0.52210 0.11330 0.99310 -0.41500
O 	O 	0.62850 0.88670 0.00690 -0.41100
O 	O 	0.88670 0.62850 0.47790 -0.42300
O 	O 	0.47790 0.00690 0.88670 -0.41500
O 	O 	0.00690 0.47790 0.62850 -0.42100
O 	O 	0.00690 0.88670 0.47790 -0.41500
O 	O 	0.47790 0.62850 0.00690 -0.42100
O 	O 	0.88670 0.00690 0.62850 -0.41100
O 	O 	0.62850 0.47790 0.88670 -0.42300
O 	O 	0.47790 0.88670 0.62850 -0.42300
O 	O 	0.00690 0.62850 0.88670 -0.41100
O 	O 	0.62850 0.00690 0.47790 -0.42100
O 	O 	0.88670 0.47790 0.00690 -0.41500
O 	O 	0.88670 0.62850 0.00690 -0.41100
O 	O 	0.62850 0.88670 0.47790 -0.42300
O 	O 	0.00690 0.47790 0.88670 -0.41500
O 	O 	0.47790 0.00690 0.62850 -0.42100
O 	O 	0.88670 0.00690 0.47790 -0.41500
O 	O 	0.62850 0.47790 0.00690 -0.42100
O 	O 	0.00690 0.88670 0.62850 -0.41100
O 	O 	0.47790 0.62850 0.88670 -0.42300
O 	O 	0.88670 0.47790 0.62850 -0.42300
O 	O 	0.62850 0.00690 0.88670 -0.41100
O 	O 	0.00690 0.62850 0.47790 -0.42100
O 	O 	0.47790 0.88670 0.00690 -0.41500
O 	O 	0.37150 0.11330 0.99310 -0.41100
O 	O 	0.11330 0.37150 0.52210 -0.42300
O 	O 	0.52210 0.99310 0.11330 -0.41500
O 	O 	0.99310 0.52210 0.37150 -0.42100
O 	O 	0.99310 0.11330 0.52210 -0.41500
O 	O 	0.52210 0.37150 0.99310 -0.42100
O 	O 	0.11330 0.99310 0.37150 -0.41100
O 	O 	0.37150 0.52210 0.11330 -0.42300
O 	O 	0.52210 0.11330 0.37150 -0.42300
O 	O 	0.99310 0.37150 0.11330 -0.41100
O 	O 	0.37150 0.99310 0.52210 -0.42100
O 	O 	0.11330 0.52210 0.99310 -0.41500
O 	O 	0.17180 0.52320 0.78180 -0.13400
O 	O 	0.52320 0.17180 0.52320 -0.13300
O 	O 	0.78180 0.52320 0.17180 -0.13400
O 	O 	0.52320 0.78180 0.52320 -0.13400
O 	O 	0.17180 0.78180 0.52320 -0.13400
O 	O 	0.52320 0.52320 0.78180 -0.13400
O 	O 	0.78180 0.17180 0.52320 -0.13400
O 	O 	0.52320 0.52320 0.17180 -0.13300
O 	O 	0.17180 0.52320 0.52320 -0.13300
O 	O 	0.52320 0.78180 0.17180 -0.13400
O 	O 	0.78180 0.52320 0.52320 -0.13400
O 	O 	0.52320 0.17180 0.78180 -0.13400
O 	O 	0.47680 0.82820 0.21820 -0.13400
O 	O 	0.82820 0.47680 0.47680 -0.13300
O 	O 	0.47680 0.21820 0.82820 -0.13400
O 	O 	0.21820 0.47680 0.47680 -0.13400
O 	O 	0.21820 0.82820 0.47680 -0.13400
O 	O 	0.47680 0.47680 0.21820 -0.13400
O 	O 	0.82820 0.21820 0.47680 -0.13400
O 	O 	0.47680 0.47680 0.82820 -0.13300
O 	O 	0.47680 0.82820 0.47680 -0.13300
O 	O 	0.21820 0.47680 0.82820 -0.13400
O 	O 	0.47680 0.21820 0.47680 -0.13400
O 	O 	0.82820 0.47680 0.21820 -0.13400
