data_crystal

_cell_length_a 16.00400
_cell_length_b 16.06400
_cell_length_c 19.53200
_cell_angle_alpha 103.72800
_cell_angle_beta  100.69600
_cell_angle_gamma 117.94000

_symmetry_space_group_name_	'P 1'
_symmetry_space_group_name_H-M	'P 1'

loop_
_symmetry_equiv_pos_as_xyz
  x,y,z

loop_
_atom_site_label
_atom_site_type_symbol
_atom_site_fract_x
_atom_site_fract_y
_atom_site_fract_z
_atom_site_charge
Ag	Ag	0.50548 0.69054 0.36971 0.44900
Ag	Ag	0.56832 0.56311 0.45709 0.43700
Ag	Ag	0.70024 0.50284 0.38593 0.44000
Ag	Ag	0.65948 0.54207 0.24061 0.34100
Ag	Ag	0.62835 0.70358 0.26213 0.37500
Ag	Ag	0.76779 0.77125 0.45714 0.47900
Ag	Ag	0.45223 0.47102 0.27042 0.45700
Ag	Ag	0.66330 0.76890 0.13344 0.42600
Ag	Ag	0.77891 0.68207 0.16448 0.35900
Ag	Ag	0.46226 0.40384 0.01270 0.39100
Ag	Ag	0.45751 0.62741 0.12145 0.40200
Ag	Ag	0.66744 0.45813 0.08741 0.38700
Ag	Ag	0.97978 0.96841 0.17652 0.58800
C 	C 	0.64220 0.58880 0.35850 -0.34100
C 	C 	0.59930 0.63500 0.35620 -0.35500
C 	C 	0.60780 0.54790 0.11840 -0.36300
C 	C 	0.57340 0.60010 0.12110 -0.37500
C 	C 	0.08440 0.85650 0.21270 0.09300
H 	H 	0.04110 0.83770 0.23970 -0.04800
C 	C 	0.14330 0.81790 0.20880 -0.14200
H 	H 	0.14020 0.77440 0.23380 0.06600
C 	C 	0.20790 0.84180 0.16860 0.05500
C 	C 	0.26680 0.79410 0.15790 0.06300
C 	C 	0.23320 0.69860 0.15890 -0.14400
H 	H 	0.17320 0.66340 0.16740 0.07000
C 	C 	0.28780 0.65510 0.14720 0.06800
H 	H 	0.26240 0.58990 0.14730 -0.02600
C 	C 	0.40810 0.79290 0.13570 0.08800
H 	H 	0.46970 0.82740 0.12910 -0.01000
C 	C 	0.35580 0.84120 0.14490 -0.13500
H 	H 	0.38110 0.90510 0.14230 0.10300
C 	C 	0.21010 0.90910 0.13290 -0.10900
H 	H 	0.25180 0.92810 0.10480 0.08900
C 	C 	0.14850 0.94620 0.14090 0.09800
H 	H 	0.15110 0.99160 0.11810 0.09400
C 	C 	0.87210 0.08210 0.19830 0.13900
H 	H 	0.85890 0.05310 0.23400 0.00900
C 	C 	0.82860 0.13590 0.18450 -0.17800
H 	H 	0.78780 0.14180 0.21100 0.14300
C 	C 	0.84370 0.17930 0.13410 0.10200
C 	C 	0.79770 0.23860 0.11880 0.05400
C 	C 	0.72940 0.24180 0.15140 -0.15500
H 	H 	0.71060 0.20710 0.18320 0.10700
C 	C 	0.68960 0.29770 0.13570 0.08100
H 	H 	0.64320 0.29930 0.15760 -0.04400
C 	C 	0.77910 0.34480 0.05890 0.06400
H 	H 	0.79550 0.37930 0.02660 -0.02300
C 	C 	0.82340 0.29110 0.07170 -0.13700
H 	H 	0.86940 0.29040 0.04910 0.07800
C 	C 	0.90490 0.16780 0.10130 -0.14600
H 	H 	0.92210 0.19880 0.06720 0.11100
C 	C 	0.94380 0.11090 0.11660 0.13800
H 	H 	0.98310 0.10200 0.08970 0.09200
C 	C 	0.81300 0.43030 0.48450 0.08600
H 	H 	0.79200 0.45460 0.52140 -0.02300
C 	C 	0.87020 0.38960 0.50100 -0.14400
H 	H 	0.88560 0.38650 0.54830 0.07400
C 	C 	0.90430 0.35410 0.44950 0.08500
C 	C 	0.97120 0.31540 0.46640 0.06100
C 	C 	0.97820 0.28410 0.52630 -0.13500
H 	H 	0.93840 0.28330 0.55570 0.06700
C 	C 	0.04470 0.25440 0.54150 0.06000
H 	H 	0.04700 0.23230 0.58130 -0.04400
C 	C 	0.09770 0.28200 0.44650 0.04600
H 	H 	0.13820 0.28140 0.41810 0.03900
C 	C 	0.03210 0.31180 0.42550 -0.11300
H 	H 	0.02880 0.32960 0.38360 0.08600
C 	C 	0.87520 0.35830 0.38000 -0.13800
H 	H 	0.89370 0.33260 0.34180 0.09300
C 	C 	0.81850 0.40060 0.36680 0.09300
H 	H 	0.80180 0.40430 0.31980 -0.04000
C 	C 	0.40500 0.78690 0.45440 0.11700
H 	H 	0.41070 0.75180 0.48470 -0.03200
C 	C 	0.36680 0.84540 0.47390 -0.17800
H 	H 	0.34820 0.84950 0.51630 0.13200
C 	C 	0.35570 0.89830 0.43090 0.08600
C 	C 	0.32030 0.96840 0.45150 0.06500
C 	C 	0.26050 0.95580 0.49500 -0.13600
H 	H 	0.23840 0.90080 0.51020 0.11600
C 	C 	0.23370 0.02430 0.51590 0.08500
H 	H 	0.19410 0.01440 0.54610 -0.00600
C 	C 	0.31570 0.11380 0.45220 0.07200
H 	H 	0.33500 0.16800 0.43610 0.01400
C 	C 	0.34680 0.04880 0.42880 -0.13400
H 	H 	0.38550 0.05930 0.39790 0.09800
C 	C 	0.38310 0.88470 0.36760 -0.14300
H 	H 	0.37480 0.91610 0.33480 0.10600
C 	C 	0.42230 0.82580 0.35300 0.10100
H 	H 	0.44140 0.81970 0.31090 0.01600
C 	C 	0.65370 0.90580 0.27010 0.14100
C 	C 	0.66030 0.00680 0.30040 0.82800
C 	C 	0.76300 0.76150 0.00710 0.10000
C 	C 	0.83680 0.81140 0.96800 0.88600
C 	C 	0.33100 0.32640 0.36650 0.05800
C 	C 	0.25190 0.24260 0.29360 1.12700
N 	N 	0.92950 0.06980 0.16490 -0.18000
N 	N 	0.71350 0.34920 0.09130 -0.22700
N 	N 	0.78690 0.43600 0.41750 -0.21300
N 	N 	0.10640 0.25450 0.50410 -0.20700
N 	N 	0.43450 0.77630 0.39620 -0.21400
N 	N 	0.26030 0.10480 0.49580 -0.20600
O 	O 	0.70630 0.90890 0.23250 -0.30600
O 	O 	0.59770 0.83520 0.28490 -0.32900
F 	F 	0.62980 0.03180 0.24430 -0.49900
F 	F 	0.75340 0.08250 0.33940 -0.50900
F 	F 	0.60640 0.00680 0.34350 -0.50800
O 	O 	0.77940 0.81680 0.06960 -0.32500
O 	O 	0.69440 0.67140 0.96980 -0.31200
F 	F 	0.81290 0.86170 0.93580 -0.47800
F 	F 	0.93040 0.87320 0.01120 -0.52900
F 	F 	0.83490 0.74590 0.91210 -0.47800
O 	O 	0.40290 0.39870 0.36040 -0.31400
O 	O 	0.31540 0.31320 0.42260 -0.27100
F 	F 	0.28000 0.23400 0.23440 -0.28900
F 	F 	0.21300 0.15260 0.29900 -0.35100
F 	F 	0.17640 0.25600 0.27610 -0.33600
N 	N 	0.08570 0.92090 0.17920 -0.16400
N 	N 	0.37510 0.70070 0.13580 -0.22700
F 	F 	0.15730 0.19700 0.29020 -0.31900
F 	F 	0.25500 0.27730 0.23880 -0.33300
F 	F 	0.27300 0.17170 0.27660 -0.34800
Ag	Ag	0.49452 0.30946 0.63029 0.44800
Ag	Ag	0.43168 0.43689 0.54291 0.43600
Ag	Ag	0.29976 0.49716 0.61407 0.43900
Ag	Ag	0.34052 0.45793 0.75939 0.34000
Ag	Ag	0.37165 0.29642 0.73787 0.37400
Ag	Ag	0.23221 0.22875 0.54286 0.47800
Ag	Ag	0.54777 0.52898 0.72958 0.45600
Ag	Ag	0.33670 0.23110 0.86656 0.42500
Ag	Ag	0.22109 0.31793 0.83552 0.35800
Ag	Ag	0.53774 0.59616 0.98730 0.39000
Ag	Ag	0.54249 0.37259 0.87855 0.40200
Ag	Ag	0.33256 0.54187 0.91259 0.38700
Ag	Ag	0.02022 0.03159 0.82348 0.58800
C 	C 	0.35780 0.41120 0.64150 -0.34100
C 	C 	0.40070 0.36500 0.64380 -0.35500
C 	C 	0.39220 0.45210 0.88160 -0.36300
C 	C 	0.42660 0.39990 0.87890 -0.37500
C 	C 	0.91560 0.14350 0.78730 0.09300
H 	H 	0.95890 0.16230 0.76030 -0.04800
C 	C 	0.85670 0.18210 0.79120 -0.14200
H 	H 	0.85980 0.22560 0.76620 0.06600
C 	C 	0.79210 0.15820 0.83140 0.05500
C 	C 	0.73320 0.20590 0.84210 0.06300
C 	C 	0.76680 0.30140 0.84110 -0.14400
H 	H 	0.82680 0.33660 0.83260 0.07000
C 	C 	0.71220 0.34490 0.85280 0.06800
H 	H 	0.73760 0.41010 0.85270 -0.02600
C 	C 	0.59190 0.20710 0.86430 0.08800
H 	H 	0.53030 0.17260 0.87090 -0.01000
C 	C 	0.64420 0.15880 0.85510 -0.13500
H 	H 	0.61890 0.09490 0.85770 0.10300
C 	C 	0.78990 0.09090 0.86710 -0.10900
H 	H 	0.74820 0.07190 0.89520 0.08900
C 	C 	0.85150 0.05380 0.85910 0.09800
H 	H 	0.84890 0.00840 0.88190 0.09400
C 	C 	0.12790 0.91790 0.80170 0.13900
H 	H 	0.14110 0.94690 0.76600 0.00900
C 	C 	0.17140 0.86410 0.81550 -0.17800
H 	H 	0.21220 0.85820 0.78900 0.14300
C 	C 	0.15630 0.82070 0.86590 0.10200
C 	C 	0.20230 0.76140 0.88120 0.05400
C 	C 	0.27060 0.75820 0.84860 -0.15500
H 	H 	0.28940 0.79290 0.81680 0.10700
C 	C 	0.31040 0.70230 0.86430 0.08100
H 	H 	0.35680 0.70070 0.84240 -0.04400
C 	C 	0.22090 0.65520 0.94110 0.06400
H 	H 	0.20450 0.62070 0.97340 -0.02300
C 	C 	0.17660 0.70890 0.92830 -0.13700
H 	H 	0.13060 0.70960 0.95090 0.07800
C 	C 	0.09510 0.83220 0.89870 -0.14600
H 	H 	0.07790 0.80120 0.93280 0.11100
C 	C 	0.05620 0.88910 0.88340 0.13800
H 	H 	0.01690 0.89800 0.91030 0.09200
C 	C 	0.18700 0.56970 0.51550 0.08600
H 	H 	0.20800 0.54540 0.47860 -0.02300
C 	C 	0.12980 0.61040 0.49900 -0.14400
H 	H 	0.11440 0.61350 0.45170 0.07400
C 	C 	0.09570 0.64590 0.55050 0.08500
C 	C 	0.02880 0.68460 0.53360 0.06100
C 	C 	0.02180 0.71590 0.47370 -0.13500
H 	H 	0.06160 0.71670 0.44430 0.06700
C 	C 	0.95530 0.74560 0.45850 0.06000
H 	H 	0.95300 0.76770 0.41870 -0.04400
C 	C 	0.90230 0.71800 0.55350 0.04600
H 	H 	0.86180 0.71860 0.58190 0.03900
C 	C 	0.96790 0.68820 0.57450 -0.11300
H 	H 	0.97120 0.67040 0.61640 0.08600
C 	C 	0.12480 0.64170 0.62000 -0.13800
H 	H 	0.10630 0.66740 0.65820 0.09300
C 	C 	0.18150 0.59940 0.63320 0.09300
H 	H 	0.19820 0.59570 0.68020 -0.04000
C 	C 	0.59500 0.21310 0.54560 0.11700
H 	H 	0.58930 0.24820 0.51530 -0.03200
C 	C 	0.63320 0.15460 0.52610 -0.17800
H 	H 	0.65180 0.15050 0.48370 0.13200
C 	C 	0.64430 0.10170 0.56910 0.08600
C 	C 	0.67970 0.03160 0.54850 0.06500
C 	C 	0.73950 0.04420 0.50500 -0.13600
H 	H 	0.76160 0.09920 0.48980 0.11600
C 	C 	0.76630 0.97570 0.48410 0.08500
H 	H 	0.80590 0.98560 0.45390 -0.00600
C 	C 	0.68430 0.88620 0.54780 0.07200
H 	H 	0.66500 0.83200 0.56390 0.01400
C 	C 	0.65320 0.95120 0.57120 -0.13400
H 	H 	0.61450 0.94070 0.60210 0.09800
C 	C 	0.61690 0.11530 0.63240 -0.14300
H 	H 	0.62520 0.08390 0.66520 0.10600
C 	C 	0.57770 0.17420 0.64700 0.10100
H 	H 	0.55860 0.18030 0.68910 0.01600
C 	C 	0.34630 0.09420 0.72990 0.14100
C 	C 	0.33970 0.99320 0.69960 0.82800
C 	C 	0.23700 0.23850 0.99290 0.10000
C 	C 	0.16320 0.18860 0.03200 0.88600
C 	C 	0.66900 0.67360 0.63350 0.05800
C 	C 	0.74810 0.75740 0.70640 1.12700
N 	N 	0.07050 0.93020 0.83510 -0.18000
N 	N 	0.28650 0.65080 0.90870 -0.22700
N 	N 	0.21310 0.56400 0.58250 -0.21300
N 	N 	0.89360 0.74550 0.49590 -0.20700
N 	N 	0.56550 0.22370 0.60380 -0.21400
N 	N 	0.73970 0.89520 0.50420 -0.20600
O 	O 	0.29370 0.09110 0.76750 -0.30600
O 	O 	0.40230 0.16480 0.71510 -0.32900
F 	F 	0.37020 0.96820 0.75570 -0.49900
F 	F 	0.24660 0.91750 0.66060 -0.50900
F 	F 	0.39360 0.99320 0.65650 -0.50800
O 	O 	0.22060 0.18320 0.93040 -0.32500
O 	O 	0.30560 0.32860 0.03020 -0.31200
F 	F 	0.18710 0.13830 0.06420 -0.47800
F 	F 	0.06960 0.12680 0.98880 -0.52900
F 	F 	0.16510 0.25410 0.08790 -0.47800
O 	O 	0.59710 0.60130 0.63960 -0.31400
O 	O 	0.68460 0.68680 0.57740 -0.27100
F 	F 	0.72000 0.76600 0.76560 -0.28900
F 	F 	0.78700 0.84740 0.70100 -0.35100
F 	F 	0.82360 0.74400 0.72390 -0.33600
N 	N 	0.91430 0.07910 0.82080 -0.16400
N 	N 	0.62490 0.29930 0.86420 -0.22700
F 	F 	0.84270 0.80300 0.70980 -0.31900
F 	F 	0.74500 0.72270 0.76120 -0.33300
F 	F 	0.72700 0.82830 0.72340 -0.34800
