data_crystal

_cell_length_a 12.05760
_cell_length_b 17.80730
_cell_length_c 9.78550
_cell_angle_alpha 90.00000
_cell_angle_beta  95.30600
_cell_angle_gamma 90.00000

_symmetry_space_group_name_	'P 1'
_symmetry_space_group_name_H-M	'P 1'

loop_
_symmetry_equiv_pos_as_xyz
  x,y,z

loop_
_atom_site_label
_atom_site_type_symbol
_atom_site_fract_x
_atom_site_fract_y
_atom_site_fract_z
_atom_site_charge
Cu	Cu	0.00329 0.62510 0.62345 0.81700
Cu	Cu	0.39469 0.65285 0.83165 0.81700
N 	N 	0.97889 0.71731 0.51245 -0.23100
N 	N 	0.99831 0.52923 0.52640 -0.28800
N 	N 	0.23882 0.63516 0.77464 -0.20400
C 	C 	0.95480 0.76851 0.44470 -0.30200
C 	C 	0.00169 0.47077 0.47360 -0.14500
C 	C 	0.14506 0.63147 0.75403 -0.30100
Cu	Cu	0.50329 0.12510 0.62345 0.78300
Cu	Cu	0.89469 0.15285 0.83165 0.79700
N 	N 	0.47889 0.21731 0.51245 -0.21500
N 	N 	0.49831 0.02923 0.52640 -0.22500
N 	N 	0.73882 0.13516 0.77464 -0.21000
C 	C 	0.45480 0.26851 0.44470 -0.27600
C 	C 	0.50169 0.97077 0.47360 -0.23600
C 	C 	0.64506 0.13147 0.75403 -0.33500
Cu	Cu	0.99671 0.62510 0.87655 0.75000
Cu	Cu	0.60531 0.65285 0.66835 0.81300
N 	N 	0.02111 0.71731 0.98755 -0.19600
N 	N 	0.00169 0.52923 0.97360 -0.16100
N 	N 	0.76118 0.63516 0.72536 -0.20100
C 	C 	0.04520 0.76851 0.05530 -0.25700
C 	C 	0.99831 0.47077 0.02640 -0.31500
C 	C 	0.85494 0.63147 0.74597 -0.35700
Cu	Cu	0.49671 0.12510 0.87655 0.78300
Cu	Cu	0.10531 0.15285 0.66835 0.82200
N 	N 	0.52111 0.21731 0.98755 -0.21700
N 	N 	0.50169 0.02923 0.97360 -0.22800
N 	N 	0.26118 0.13516 0.72536 -0.19900
C 	C 	0.54520 0.26851 0.05530 -0.27300
C 	C 	0.49831 0.97077 0.02640 -0.23200
C 	C 	0.35494 0.13147 0.74597 -0.32600
Cu	Cu	0.99671 0.37490 0.37655 0.74900
Cu	Cu	0.60531 0.34715 0.16835 0.81400
N 	N 	0.02111 0.28269 0.48755 -0.19800
N 	N 	0.76118 0.36484 0.22536 -0.20000
C 	C 	0.04520 0.23149 0.55530 -0.25500
C 	C 	0.85494 0.36853 0.24597 -0.35500
Cu	Cu	0.49671 0.87490 0.37655 0.78400
Cu	Cu	0.10531 0.84715 0.16835 0.82200
N 	N 	0.52111 0.78269 0.48755 -0.21300
N 	N 	0.26118 0.86484 0.22536 -0.19800
C 	C 	0.54520 0.73149 0.55530 -0.27800
C 	C 	0.35494 0.86853 0.24597 -0.32600
Cu	Cu	0.00329 0.37490 0.12345 0.81800
Cu	Cu	0.39469 0.34715 0.33165 0.81700
N 	N 	0.97889 0.28269 0.01245 -0.22200
N 	N 	0.23882 0.36484 0.27464 -0.20300
C 	C 	0.95480 0.23149 0.94470 -0.31200
C 	C 	0.14506 0.36853 0.25403 -0.30300
Cu	Cu	0.50329 0.87490 0.12345 0.78400
Cu	Cu	0.89469 0.84715 0.33165 0.79900
N 	N 	0.47889 0.78269 0.01245 -0.21200
N 	N 	0.73882 0.86484 0.27464 -0.20900
C 	C 	0.45480 0.73149 0.94470 -0.27900
C 	C 	0.64506 0.86853 0.25403 -0.33300
Cl	Cl	0.50000 0.55648 0.75000 -0.70600
Cl	Cl	0.00000 0.05648 0.75000 -0.66600
Cl	Cl	0.50000 0.44352 0.25000 -0.70400
Cl	Cl	0.00000 0.94352 0.25000 -0.66700
