data_crystal

_cell_length_a 8.90240
_cell_length_b 14.27960
_cell_length_c 15.06370
_cell_angle_alpha 90.00000
_cell_angle_beta  95.06800
_cell_angle_gamma 90.00000

_symmetry_space_group_name_	'P 1'
_symmetry_space_group_name_H-M	'P 1'

loop_
_symmetry_equiv_pos_as_xyz
  x,y,z

loop_
_atom_site_label
_atom_site_type_symbol
_atom_site_fract_x
_atom_site_fract_y
_atom_site_fract_z
_atom_site_charge
Al	Al	0.82257 0.05886 0.24323 2.38500
Al	Al	0.61917 0.93980 0.90932 2.39000
Co	Co	0.63958 0.07044 0.61468 1.26400
Co	Co	0.42598 0.21385 0.33584 1.26400
P 	P 	0.60091 0.21834 0.16217 0.73200
P 	P 	0.64094 0.05539 0.41293 0.63800
P 	P 	0.64951 0.91949 0.11125 0.75700
P 	P 	0.18794 0.06628 0.25415 0.76500
O 	O 	0.70060 0.94530 0.02001 -0.78200
O 	O 	0.69970 0.03870 0.50959 -0.45400
O 	O 	0.49690 0.96280 0.12160 -0.83300
O 	O 	0.23060 0.06380 0.15948 -0.78700
O 	O 	0.76570 0.95230 0.18360 -0.74700
O 	O 	0.23520 0.97540 0.30116 -0.52900
O 	O 	0.77530 0.06480 0.35930 -0.71300
O 	O 	0.54640 0.14490 0.40880 -0.50900
O 	O 	0.63580 0.81352 0.11490 -0.49700
O 	O 	0.54490 0.97350 0.37730 -0.52000
O 	O 	0.64510 0.30774 0.11750 -0.47100
O 	O 	0.53040 0.24430 0.24660 -0.54600
O 	O 	0.74200 0.16170 0.18220 -0.74900
O 	O 	0.48930 0.16520 0.10040 -0.78600
O 	O 	0.02160 0.07980 0.25200 -0.74200
O 	O 	0.26640 0.14770 0.30290 -0.53300
Al	Al	0.17743 0.55886 0.25677 2.38700
Al	Al	0.38083 0.43980 0.59068 2.39200
Co	Co	0.36042 0.57044 0.88532 1.26500
Co	Co	0.57402 0.71385 0.16416 1.26500
P 	P 	0.39909 0.71834 0.33783 0.73300
P 	P 	0.35906 0.55539 0.08707 0.64300
P 	P 	0.35049 0.41949 0.38875 0.75700
P 	P 	0.81206 0.56628 0.24585 0.76600
O 	O 	0.29940 0.44530 0.47999 -0.79200
O 	O 	0.30030 0.53870 0.99041 -0.45500
O 	O 	0.50310 0.46280 0.37840 -0.83900
O 	O 	0.76940 0.56380 0.34052 -0.78100
O 	O 	0.23430 0.45230 0.31640 -0.75500
O 	O 	0.76480 0.47540 0.19884 -0.53200
O 	O 	0.22470 0.56480 0.14070 -0.71000
O 	O 	0.45360 0.64490 0.09120 -0.50800
O 	O 	0.36420 0.31352 0.38510 -0.50000
O 	O 	0.45510 0.47350 0.12270 -0.52600
O 	O 	0.35490 0.80774 0.38250 -0.46900
O 	O 	0.46960 0.74430 0.25340 -0.54500
O 	O 	0.25800 0.66170 0.31780 -0.74500
O 	O 	0.51070 0.66520 0.39960 -0.77900
O 	O 	0.97840 0.57980 0.24800 -0.74000
O 	O 	0.73360 0.64770 0.19710 -0.53200
Al	Al	0.17743 0.94114 0.75677 2.38600
Al	Al	0.38083 0.06020 0.09068 2.39100
Co	Co	0.36042 0.92956 0.38532 1.26500
Co	Co	0.57402 0.78615 0.66416 1.26500
P 	P 	0.39909 0.78166 0.83783 0.73300
P 	P 	0.35906 0.94461 0.58707 0.63900
P 	P 	0.35049 0.08051 0.88875 0.75700
P 	P 	0.81206 0.93372 0.74585 0.76500
O 	O 	0.29940 0.05470 0.97999 -0.78200
O 	O 	0.30030 0.96130 0.49041 -0.45400
O 	O 	0.50310 0.03720 0.87840 -0.83300
O 	O 	0.76940 0.93620 0.84052 -0.78700
O 	O 	0.23430 0.04770 0.81640 -0.74700
O 	O 	0.76480 0.02460 0.69884 -0.52900
O 	O 	0.22470 0.93520 0.64070 -0.71300
O 	O 	0.45360 0.85510 0.59120 -0.50900
O 	O 	0.36420 0.18648 0.88510 -0.49700
O 	O 	0.45510 0.02650 0.62270 -0.52000
O 	O 	0.35490 0.69226 0.88250 -0.47100
O 	O 	0.46960 0.75570 0.75340 -0.54600
O 	O 	0.25800 0.83830 0.81780 -0.74900
O 	O 	0.51070 0.83480 0.89960 -0.78600
O 	O 	0.97840 0.92020 0.74800 -0.74200
O 	O 	0.73360 0.85230 0.69710 -0.53300
Al	Al	0.82257 0.44114 0.74323 2.38700
Al	Al	0.61917 0.56020 0.40932 2.39200
Co	Co	0.63958 0.42956 0.11468 1.26500
Co	Co	0.42598 0.28615 0.83584 1.26500
P 	P 	0.60091 0.28166 0.66217 0.73300
P 	P 	0.64094 0.44461 0.91293 0.64300
P 	P 	0.64951 0.58051 0.61125 0.75700
P 	P 	0.18794 0.43372 0.75415 0.76600
O 	O 	0.70060 0.55470 0.52001 -0.79200
O 	O 	0.69970 0.46130 0.00959 -0.45500
O 	O 	0.49690 0.53720 0.62160 -0.83900
O 	O 	0.23060 0.43620 0.65948 -0.78100
O 	O 	0.76570 0.54770 0.68360 -0.75500
O 	O 	0.23520 0.52460 0.80116 -0.53200
O 	O 	0.77530 0.43520 0.85930 -0.71000
O 	O 	0.54640 0.35510 0.90880 -0.50800
O 	O 	0.63580 0.68648 0.61490 -0.50000
O 	O 	0.54490 0.52650 0.87730 -0.52600
O 	O 	0.64510 0.19226 0.61750 -0.46900
O 	O 	0.53040 0.25570 0.74660 -0.54500
O 	O 	0.74200 0.33830 0.68220 -0.74500
O 	O 	0.48930 0.33480 0.60040 -0.77900
O 	O 	0.02160 0.42020 0.75200 -0.74000
O 	O 	0.26640 0.35230 0.80290 -0.53200
