data_crystal

_cell_length_a 10.23430
_cell_length_b 19.11800
_cell_length_c 20.92870
_cell_angle_alpha 67.55300
_cell_angle_beta  86.75300
_cell_angle_gamma 83.63000

_symmetry_space_group_name_	'P 1'
_symmetry_space_group_name_H-M	'P 1'

loop_
_symmetry_equiv_pos_as_xyz
  x,y,z

loop_
_atom_site_label
_atom_site_type_symbol
_atom_site_fract_x
_atom_site_fract_y
_atom_site_fract_z
_atom_site_charge
Cd	Cd	0.99075 0.16458 0.09415 1.21600
Cd	Cd	0.72089 0.09936 0.00832 1.20500
Cd	Cd	0.35536 0.12775 0.05273 1.21500
H 	H 	0.45480 0.23460 0.12340 0.01100
H 	H 	0.51560 0.22880 0.23030 0.08600
H 	H 	0.52920 0.99980 0.30770 0.14200
H 	H 	0.45550 0.01090 0.20050 0.01600
H 	H 	0.75870 0.03130 0.31960 0.15500
H 	H 	0.96400 0.97380 0.49410 0.12400
H 	H 	0.81230 0.03960 0.53870 0.03100
H 	H 	0.40810 0.20030 0.34300 0.08900
H 	H 	0.65140 0.26180 0.45050 0.02200
H 	H 	0.68250 0.37430 0.45600 0.14100
H 	H 	0.67720 0.27900 0.66630 0.13400
H 	H 	0.58810 0.03040 0.71750 0.08900
H 	H 	0.52770 0.06900 0.90880 0.01900
H 	H 	0.48700 0.08180 0.79570 0.08500
H 	H 	0.82810 0.17680 0.73680 0.08300
H 	H 	0.85820 0.16300 0.84970 0.02300
H 	H 	0.24060 0.23840 0.90330 0.04300
H 	H 	0.18940 0.23840 0.79820 0.10600
H 	H 	0.22510 0.00790 0.87950 0.09100
H 	H 	0.28270 0.01660 0.98210 0.03800
H 	H 	0.02950 0.02530 0.83880 0.11900
H 	H 	0.86680 0.96820 0.69940 0.10800
H 	H 	0.97960 0.04740 0.61400 0.05200
H 	H 	0.31900 0.19990 0.71300 0.09000
H 	H 	0.04570 0.27530 0.55990 0.02100
H 	H 	0.97290 0.38660 0.48050 0.14700
H 	H 	0.98690 0.29640 0.33330 0.07200
H 	H 	0.17750 0.05100 0.44090 0.10100
H 	H 	0.20100 0.10820 0.21510 0.01000
H 	H 	0.24660 0.11010 0.32300 0.09000
H 	H 	0.87010 0.20110 0.33110 0.08800
H 	H 	0.83640 0.19680 0.22450 0.00800
H 	H 	0.71080 0.25370 0.04320 -0.01100
H 	H 	0.56410 0.35810 0.03390 0.09200
H 	H 	0.85610 0.43540 0.11200 0.09600
H 	H 	0.98340 0.32610 0.11800 -0.00300
H 	H 	0.63010 0.47220 0.16050 0.09700
H 	H 	0.63900 0.47310 0.94080 0.16800
H 	H 	0.37340 0.64710 0.83480 0.13600
H 	H 	0.32690 0.67400 0.93430 0.07500
H 	H 	0.01450 0.03330 0.00330 -0.00200
H 	H 	0.15630 0.92900 0.02440 0.07800
H 	H 	0.86600 0.81080 0.03200 0.08800
H 	H 	0.72140 0.92450 0.01370 0.01700
H 	H 	0.27440 0.85360 0.99520 0.18300
H 	H 	0.22270 0.53790 0.11140 0.03400
H 	H 	0.01080 0.51270 0.15640 0.12900
H 	H 	0.90510 0.73880 0.09780 0.13200
C 	C 	0.46650 0.18730 0.16130 0.07500
C 	C 	0.50350 0.18290 0.22480 -0.13800
C 	C 	0.52450 0.11390 0.28220 0.11600
C 	C 	0.51090 0.04840 0.27210 -0.19000
C 	C 	0.46890 0.05610 0.20700 0.13000
C 	C 	0.55460 0.11430 0.35000 -0.03900
C 	C 	0.67110 0.07500 0.38920 0.09900
C 	C 	0.76720 0.03270 0.36400 -0.26100
C 	C 	0.87020 0.99480 0.40300 0.29800
C 	C 	0.88800 0.99960 0.46840 -0.16700
C 	C 	0.80070 0.03890 0.49420 0.02900
C 	C 	0.68860 0.08040 0.45360 -0.03200
C 	C 	0.59130 0.11970 0.48290 -0.02600
C 	C 	0.48530 0.16820 0.43830 0.16500
C 	C 	0.47300 0.16610 0.37320 -0.12000
C 	C 	0.60920 0.12680 0.55100 -0.02900
C 	C 	0.64090 0.19940 0.55370 -0.03400
C 	C 	0.65570 0.26500 0.49450 0.04900
C 	C 	0.67520 0.33040 0.49700 -0.19100
C 	C 	0.68520 0.33300 0.56330 0.24900
C 	C 	0.67200 0.27320 0.62340 -0.21000
C 	C 	0.65050 0.20180 0.62210 0.08100
C 	C 	0.63150 0.13790 0.68090 -0.02600
C 	C 	0.60290 0.07280 0.67630 -0.10700
C 	C 	0.59390 0.06570 0.60810 0.13500
C 	C 	0.58860 0.09200 0.87290 0.08800
C 	C 	0.56390 0.09960 0.80520 -0.12300
C 	C 	0.65230 0.13330 0.75180 0.09300
C 	C 	0.76320 0.15530 0.77090 -0.13500
C 	C 	0.78140 0.14660 0.83850 0.09400
C 	C 	0.24130 0.19130 0.89770 0.10700
C 	C 	0.20840 0.19150 0.83590 -0.13600
C 	C 	0.20250 0.12430 0.82740 0.09400
C 	C 	0.22980 0.05580 0.88280 -0.13800
C 	C 	0.26450 0.06230 0.94300 0.09200
C 	C 	0.18400 0.12420 0.75540 -0.00500
C 	C 	0.09950 0.08140 0.74060 0.04400
C 	C 	0.02070 0.03120 0.79210 -0.16200
C 	C 	0.93350 0.99120 0.77730 0.21900
C 	C 	0.92500 0.99790 0.70980 -0.10900
C 	C 	0.99250 0.04370 0.65980 -0.05600
C 	C 	0.08300 0.08730 0.67020 0.04100
C 	C 	0.15260 0.13240 0.61950 -0.04700
C 	C 	0.24560 0.18150 0.63170 0.16300
C 	C 	0.25800 0.17230 0.70210 -0.13500
C 	C 	0.13460 0.14600 0.54530 -0.01300
C 	C 	0.07500 0.21890 0.49330 -0.02800
C 	C 	0.03850 0.28070 0.51310 0.11100
C 	C 	0.99500 0.34430 0.46740 -0.21800
C 	C 	0.98000 0.35380 0.39500 0.20500
C 	C 	0.00580 0.29220 0.37860 -0.10700
C 	C 	0.06060 0.22110 0.42640 0.06300
C 	C 	0.09190 0.15900 0.40680 -0.01200
C 	C 	0.15310 0.09340 0.45370 -0.11700
C 	C 	0.18060 0.08850 0.52190 0.16300
C 	C 	0.13480 0.12880 0.23840 0.09500
C 	C 	0.16270 0.13010 0.30320 -0.12800
C 	C 	0.06750 0.16060 0.33810 0.11600
C 	C 	0.94070 0.18370 0.30770 -0.16300
C 	C 	0.92120 0.18070 0.24420 0.06800
C 	C 	0.73870 0.29240 0.05570 0.09600
C 	C 	0.65080 0.35370 0.04990 -0.16200
C 	C 	0.69800 0.41390 0.07010 0.10400
C 	C 	0.82280 0.40040 0.09630 -0.16400
C 	C 	0.89800 0.33510 0.09920 0.09700
C 	C 	0.61320 0.48610 0.05970 -0.10400
C 	C 	0.58560 0.50200 0.11870 -0.09900
C 	C 	0.49290 0.56170 0.11680 0.17500
C 	C 	0.42780 0.60540 0.05580 -0.10800
C 	C 	0.45540 0.58950 0.99670 0.06100
C 	C 	0.54810 0.52980 0.99860 0.17100
C 	C 	0.57570 0.51390 0.93950 -0.21700
C 	C 	0.51100 0.55760 0.87850 0.26800
C 	C 	0.41790 0.61730 0.87650 -0.15000
C 	C 	0.39030 0.63320 0.93560 0.01800
C 	C 	0.97900 0.98620 0.01480 0.06600
C 	C 	0.06500 0.92260 0.02620 -0.13900
C 	C 	0.03600 0.86010 0.03830 0.13600
C 	C 	0.89900 0.85610 0.03040 -0.16100
C 	C 	0.81200 0.92520 0.01990 0.10600
C 	C 	0.31560 0.66830 0.05110 0.00400
C 	C 	0.34720 0.74290 0.02030 0.10600
C 	C 	0.25290 0.80260 0.01630 -0.22200
C 	C 	0.12700 0.78760 0.04300 0.00100
C 	C 	0.09550 0.71300 0.07380 0.11900
C 	C 	0.18980 0.65330 0.07790 -0.04100
C 	C 	0.15830 0.57870 0.10860 0.04500
C 	C 	0.03240 0.56370 0.13540 -0.14500
C 	C 	0.93810 0.62340 0.13130 0.25000
C 	C 	0.96960 0.69800 0.10060 -0.23600
N 	N 	0.44690 0.12000 0.15490 -0.22700
N 	N 	0.69500 0.11600 0.88790 -0.19300
N 	N 	0.27420 0.12760 0.95020 -0.20000
N 	N 	0.01670 0.15610 0.20880 -0.19100
N 	N 	0.86030 0.28380 0.07780 -0.22500
N 	N 	0.85230 0.98690 0.01850 -0.22600
Cl	Cl	0.53660 0.21450 0.98040 -0.49600
Cl	Cl	0.92330 0.18040 0.97020 -0.52900
Cl	Cl	0.83320 0.93240 0.84180 -0.31200
Cl	Cl	0.78440 0.08910 0.13320 -0.59900
Cl	Cl	0.99130 0.94420 0.37230 -0.32300
Cl	Cl	0.16680 0.04490 0.12110 -0.57300
Cl	Cl	0.70160 0.42400 0.56690 -0.29900
Cl	Cl	0.52730 0.01170 0.05690 -0.62100
Cl	Cl	0.91930 0.44330 0.33530 -0.31500
Cl	Cl	0.19240 0.24600 0.04940 -0.60000
Cl	Cl	0.57360 0.55810 0.79820 -0.28400
Cl	Cl	0.78710 0.59680 0.16690 -0.35100
O 	O 	0.39920 0.21430 0.45570 -0.25200
O 	O 	0.56900 0.99950 0.60570 -0.22400
O 	O 	0.32030 0.22740 0.58110 -0.25300
O 	O 	0.24250 0.02470 0.56780 -0.24700
O 	O 	0.46210 0.57630 0.17730 -0.23300
O 	O 	0.46900 0.75860 0.99080 -0.12900
H 	H 	0.45152 0.25098 0.47384 0.13700
H 	H 	0.46132 0.99527 0.61004 0.13600
H 	H 	0.32155 0.28220 0.58778 0.13300
H 	H 	0.31253 0.04010 0.59776 0.11600
H 	H 	0.55311 0.58588 0.19797 0.17000
H 	H 	0.50389 0.80460 0.00357 0.07600
