data_crystal

_cell_length_a 9.13320
_cell_length_b 13.83970
_cell_length_c 9.08470
_cell_angle_alpha 90.00000
_cell_angle_beta  117.39200
_cell_angle_gamma 90.00000

_symmetry_space_group_name_	'P 1'
_symmetry_space_group_name_H-M	'P 1'

loop_
_symmetry_equiv_pos_as_xyz
  x,y,z

loop_
_atom_site_label
_atom_site_type_symbol
_atom_site_fract_x
_atom_site_fract_y
_atom_site_fract_z
_atom_site_charge
Co	Co	0.27759 0.59584 0.22192 1.16600
O 	O 	0.02080 0.60870 0.10640 -0.34900
O 	O 	0.79370 0.53300 0.92370 -0.35800
C 	C 	0.94550 0.53990 0.00900 0.21500
O 	O 	0.52610 0.55550 0.34080 -0.36700
O 	O 	0.71200 0.48440 0.57270 -0.34400
C 	C 	0.57070 0.51140 0.47620 0.22200
N 	N 	0.31310 0.72360 0.35790 -0.19600
N 	N 	0.43200 0.78940 0.38350 -0.19100
H 	H 	0.49580 0.78950 0.33460 0.12100
N 	N 	0.31730 0.83210 0.53940 -0.26300
C 	C 	0.24800 0.75220 0.45350 0.11300
H 	H 	0.16030 0.71920 0.46050 -0.00300
C 	C 	0.43710 0.85420 0.49500 0.23200
N 	N 	0.54200 0.92660 0.54000 -0.33800
H 	H 	0.61030 0.93290 0.49680 0.17500
H 	H 	0.54430 0.96880 0.61360 0.16900
Co	Co	0.72241 0.09584 0.27808 1.16500
O 	O 	0.97920 0.10870 0.39360 -0.35400
O 	O 	0.20630 0.03300 0.57630 -0.36100
C 	C 	0.05450 0.03990 0.49100 0.22000
O 	O 	0.47390 0.05550 0.15920 -0.36700
O 	O 	0.28800 0.98440 0.92730 -0.34500
C 	C 	0.42930 0.01140 0.02380 0.22200
N 	N 	0.68690 0.22360 0.14210 -0.19600
N 	N 	0.56800 0.28940 0.11650 -0.19100
H 	H 	0.50420 0.28950 0.16540 0.12100
N 	N 	0.68270 0.33210 0.96060 -0.26100
C 	C 	0.75200 0.25220 0.04650 0.11100
H 	H 	0.83970 0.21920 0.03950 -0.00300
C 	C 	0.56290 0.35420 0.00500 0.23000
N 	N 	0.45800 0.42660 0.96000 -0.33800
H 	H 	0.38970 0.43290 0.00320 0.17500
H 	H 	0.45570 0.46880 0.88640 0.16900
Co	Co	0.72241 0.40416 0.77808 1.16500
O 	O 	0.97920 0.39130 0.89360 -0.35000
O 	O 	0.20630 0.46700 0.07630 -0.35800
C 	C 	0.05450 0.46010 0.99100 0.21500
O 	O 	0.47390 0.44450 0.65920 -0.36700
O 	O 	0.28800 0.51560 0.42730 -0.34400
C 	C 	0.42930 0.48860 0.52380 0.22200
N 	N 	0.68690 0.27640 0.64210 -0.19600
N 	N 	0.56800 0.21060 0.61650 -0.19100
H 	H 	0.50420 0.21050 0.66540 0.12100
N 	N 	0.68270 0.16790 0.46060 -0.26300
C 	C 	0.75200 0.24780 0.54650 0.11300
H 	H 	0.83970 0.28080 0.53950 -0.00300
C 	C 	0.56290 0.14580 0.50500 0.23200
N 	N 	0.45800 0.07340 0.46000 -0.33800
H 	H 	0.38970 0.06710 0.50320 0.17500
H 	H 	0.45570 0.03120 0.38640 0.16900
Co	Co	0.27759 0.90416 0.72192 1.16500
O 	O 	0.02080 0.89130 0.60640 -0.35400
O 	O 	0.79370 0.96700 0.42370 -0.36100
C 	C 	0.94550 0.96010 0.50900 0.22000
O 	O 	0.52610 0.94450 0.84080 -0.36700
O 	O 	0.71200 0.01560 0.07270 -0.34500
C 	C 	0.57070 0.98860 0.97620 0.22200
N 	N 	0.31310 0.77640 0.85790 -0.19600
N 	N 	0.43200 0.71060 0.88350 -0.19100
H 	H 	0.49580 0.71050 0.83460 0.12100
N 	N 	0.31730 0.66790 0.03940 -0.26100
C 	C 	0.24800 0.74780 0.95350 0.11100
H 	H 	0.16030 0.78080 0.96050 -0.00300
C 	C 	0.43710 0.64580 0.99500 0.23000
N 	N 	0.54200 0.57340 0.04000 -0.33800
H 	H 	0.61030 0.56710 0.99680 0.17500
H 	H 	0.54430 0.53120 0.11360 0.16900
