data_crystal

_cell_length_a 12.60960
_cell_length_b 13.00790
_cell_length_c 22.50140
_cell_angle_alpha 90.00000
_cell_angle_beta  90.00000
_cell_angle_gamma 90.00000

_symmetry_space_group_name_	'P 1'
_symmetry_space_group_name_H-M	'P 1'

loop_
_symmetry_equiv_pos_as_xyz
  x,y,z

loop_
_atom_site_label
_atom_site_type_symbol
_atom_site_fract_x
_atom_site_fract_y
_atom_site_fract_z
_atom_site_charge
Nd	Nd	0.01142 0.83903 0.50732 2.09400
Nd	Nd	0.51142 0.66097 0.49268 2.13200
Nd	Nd	0.98858 0.16097 0.00732 2.07500
Nd	Nd	0.48858 0.33903 0.99268 2.13600
Nd	Nd	0.98858 0.16097 0.49268 2.09400
Nd	Nd	0.48858 0.33903 0.50732 2.13200
Nd	Nd	0.01142 0.83903 0.99268 2.07500
Nd	Nd	0.51142 0.66097 0.00732 2.13600
Nd	Nd	0.83655 0.70816 0.25000 1.93100
Nd	Nd	0.33655 0.79184 0.75000 1.92500
Nd	Nd	0.16345 0.29184 0.75000 1.93100
Nd	Nd	0.66345 0.20816 0.25000 1.92500
H 	H 	0.15370 0.47740 0.61000 0.16500
H 	H 	0.99100 0.55900 0.66030 0.16700
H 	H 	0.94650 0.65940 0.63060 0.14100
H 	H 	0.93070 0.46440 0.57430 -0.10400
H 	H 	0.87560 0.56530 0.55180 -0.10800
H 	H 	0.75820 0.56290 0.62970 0.29600
H 	H 	0.75700 0.45220 0.60230 0.29600
H 	H 	0.82030 0.47360 0.66090 0.27600
H 	H 	0.65370 0.02260 0.39000 0.16200
H 	H 	0.49100 0.94100 0.33970 0.17600
H 	H 	0.44650 0.84060 0.36940 0.14900
H 	H 	0.43070 0.03560 0.42570 -0.12100
H 	H 	0.37560 0.93470 0.44820 -0.12800
H 	H 	0.25820 0.93710 0.37030 0.32400
H 	H 	0.25700 0.04780 0.39770 0.33100
H 	H 	0.32030 0.02640 0.33910 0.30800
H 	H 	0.84630 0.52260 0.11000 0.16500
H 	H 	0.00900 0.44100 0.16030 0.16400
H 	H 	0.05350 0.34060 0.13060 0.13800
H 	H 	0.06930 0.53560 0.07430 -0.09800
H 	H 	0.12440 0.43470 0.05180 -0.10300
H 	H 	0.24180 0.43710 0.12970 0.29300
H 	H 	0.24300 0.54780 0.10230 0.29200
H 	H 	0.17970 0.52640 0.16090 0.27200
H 	H 	0.34630 0.97740 0.89000 0.16000
H 	H 	0.50900 0.05900 0.83970 0.17500
H 	H 	0.55350 0.15940 0.86940 0.14700
H 	H 	0.56930 0.96440 0.92570 -0.12000
H 	H 	0.62440 0.06530 0.94820 -0.12400
H 	H 	0.74180 0.06290 0.87030 0.31900
H 	H 	0.74300 0.95220 0.89770 0.32400
H 	H 	0.67970 0.97360 0.83910 0.30100
H 	H 	0.84630 0.52260 0.39000 0.16500
H 	H 	0.00900 0.44100 0.33970 0.16700
H 	H 	0.05350 0.34060 0.36940 0.14100
H 	H 	0.06930 0.53560 0.42570 -0.10400
H 	H 	0.12440 0.43470 0.44820 -0.10800
H 	H 	0.24180 0.43710 0.37030 0.29600
H 	H 	0.24300 0.54780 0.39770 0.29600
H 	H 	0.17970 0.52640 0.33910 0.27600
H 	H 	0.34630 0.97740 0.61000 0.16200
H 	H 	0.50900 0.05900 0.66030 0.17600
H 	H 	0.55350 0.15940 0.63060 0.14900
H 	H 	0.56930 0.96440 0.57430 -0.12100
H 	H 	0.62440 0.06530 0.55180 -0.12800
H 	H 	0.74180 0.06290 0.62970 0.32400
H 	H 	0.74300 0.95220 0.60230 0.33100
H 	H 	0.67970 0.97360 0.66090 0.30800
H 	H 	0.15370 0.47740 0.89000 0.16500
H 	H 	0.99100 0.55900 0.83970 0.16400
H 	H 	0.94650 0.65940 0.86940 0.13800
H 	H 	0.93070 0.46440 0.92570 -0.09800
H 	H 	0.87560 0.56530 0.94820 -0.10300
H 	H 	0.75820 0.56290 0.87030 0.29300
H 	H 	0.75700 0.45220 0.89770 0.29200
H 	H 	0.82030 0.47360 0.83910 0.27200
H 	H 	0.65370 0.02260 0.11000 0.16000
H 	H 	0.49100 0.94100 0.16030 0.17500
H 	H 	0.44650 0.84060 0.13060 0.14700
H 	H 	0.43070 0.03560 0.07430 -0.12000
H 	H 	0.37560 0.93470 0.05180 -0.12400
H 	H 	0.25820 0.93710 0.12970 0.31900
H 	H 	0.25700 0.04780 0.10230 0.32400
H 	H 	0.32030 0.02640 0.16090 0.30100
H 	H 	0.70250 0.47470 0.25000 -0.23200
H 	H 	0.20250 0.02530 0.75000 -0.23400
H 	H 	0.29750 0.52530 0.75000 -0.23200
H 	H 	0.79750 0.97470 0.25000 -0.23400
C 	C 	0.19900 0.65360 0.52599 -0.08700
C 	C 	0.23180 0.56040 0.54895 -0.01200
C 	C 	0.07760 0.60420 0.58863 0.25200
C 	C 	0.24130 0.72070 0.47742 0.42800
C 	C 	0.31830 0.48730 0.53714 0.35100
C 	C 	0.97660 0.59220 0.62256 -0.50600
C 	C 	0.89680 0.52760 0.58710 0.46700
C 	C 	0.79910 0.50170 0.62330 -0.92400
C 	C 	0.94520 0.82930 0.36565 0.24400
C 	C 	0.92620 0.71880 0.38930 0.26700
C 	C 	0.69900 0.84640 0.47401 -0.09100
C 	C 	0.73180 0.93960 0.45105 0.00200
C 	C 	0.57760 0.89580 0.41137 0.26500
C 	C 	0.74130 0.77930 0.52258 0.42800
C 	C 	0.81830 0.01270 0.46286 0.32400
C 	C 	0.47660 0.90780 0.37744 -0.54300
C 	C 	0.39680 0.97240 0.41290 0.52500
C 	C 	0.29910 0.99830 0.37670 -1.02500
C 	C 	0.44520 0.67070 0.63435 0.24400
C 	C 	0.42620 0.78120 0.61070 0.26700
C 	C 	0.80100 0.34640 0.02599 -0.09200
C 	C 	0.76820 0.43960 0.04895 -0.01100
C 	C 	0.92240 0.39580 0.08863 0.24600
C 	C 	0.75870 0.27930 0.97742 0.43400
C 	C 	0.68170 0.51270 0.03714 0.34800
C 	C 	0.02340 0.40780 0.12256 -0.49400
C 	C 	0.10320 0.47240 0.08710 0.45400
C 	C 	0.20090 0.49830 0.12330 -0.91100
C 	C 	0.05480 0.17070 0.86565 0.24400
C 	C 	0.07380 0.28120 0.88930 0.26700
C 	C 	0.30100 0.15360 0.97401 -0.09200
C 	C 	0.26820 0.06040 0.95105 0.00800
C 	C 	0.42240 0.10420 0.91137 0.26400
C 	C 	0.25870 0.22070 0.02258 0.42800
C 	C 	0.18170 0.98730 0.96286 0.31400
C 	C 	0.52340 0.09220 0.87744 -0.53900
C 	C 	0.60320 0.02760 0.91290 0.51800
C 	C 	0.70090 0.00170 0.87670 -1.00400
C 	C 	0.55480 0.32930 0.13435 0.24500
C 	C 	0.57380 0.21880 0.11070 0.26700
C 	C 	0.80100 0.34640 0.47401 -0.08700
C 	C 	0.76820 0.43960 0.45105 -0.01200
C 	C 	0.92240 0.39580 0.41137 0.25200
C 	C 	0.75870 0.27930 0.52258 0.42800
C 	C 	0.68170 0.51270 0.46286 0.35100
C 	C 	0.02340 0.40780 0.37744 -0.50600
C 	C 	0.10320 0.47240 0.41290 0.46700
C 	C 	0.20090 0.49830 0.37670 -0.92400
C 	C 	0.05480 0.17070 0.63435 0.24400
C 	C 	0.07380 0.28120 0.61070 0.26700
C 	C 	0.30100 0.15360 0.52599 -0.09100
C 	C 	0.26820 0.06040 0.54895 0.00200
C 	C 	0.42240 0.10420 0.58863 0.26500
C 	C 	0.25870 0.22070 0.47742 0.42800
C 	C 	0.18170 0.98730 0.53714 0.32400
C 	C 	0.52340 0.09220 0.62256 -0.54300
C 	C 	0.60320 0.02760 0.58710 0.52500
C 	C 	0.70090 0.00170 0.62330 -1.02500
C 	C 	0.55480 0.32930 0.36565 0.24400
C 	C 	0.57380 0.21880 0.38930 0.26700
C 	C 	0.19900 0.65360 0.97401 -0.09200
C 	C 	0.23180 0.56040 0.95105 -0.01100
C 	C 	0.07760 0.60420 0.91137 0.24600
C 	C 	0.24130 0.72070 0.02258 0.43400
C 	C 	0.31830 0.48730 0.96286 0.34800
C 	C 	0.97660 0.59220 0.87744 -0.49400
C 	C 	0.89680 0.52760 0.91290 0.45400
C 	C 	0.79910 0.50170 0.87670 -0.91100
C 	C 	0.94520 0.82930 0.13435 0.24400
C 	C 	0.92620 0.71880 0.11070 0.26700
C 	C 	0.69900 0.84640 0.02599 -0.09200
C 	C 	0.73180 0.93960 0.04895 0.00800
C 	C 	0.57760 0.89580 0.08863 0.26400
C 	C 	0.74130 0.77930 0.97742 0.42800
C 	C 	0.81830 0.01270 0.03714 0.31400
C 	C 	0.47660 0.90780 0.12256 -0.53900
C 	C 	0.39680 0.97240 0.08710 0.51800
C 	C 	0.29910 0.99830 0.12330 -1.00400
C 	C 	0.44520 0.67070 0.86565 0.24500
C 	C 	0.42620 0.78120 0.88930 0.26700
C 	C 	0.77260 0.45230 0.25000 0.66400
C 	C 	0.27260 0.04770 0.75000 0.67700
C 	C 	0.22740 0.54770 0.75000 0.66400
C 	C 	0.72740 0.95230 0.25000 0.67700
N 	N 	0.10250 0.67970 0.55105 -0.27000
N 	N 	0.15360 0.53220 0.58869 -0.24000
N 	N 	0.60250 0.82030 0.44895 -0.27300
N 	N 	0.65360 0.96780 0.41131 -0.24000
N 	N 	0.89750 0.32030 0.05105 -0.26800
N 	N 	0.84640 0.46780 0.08869 -0.23900
N 	N 	0.39750 0.17970 0.94895 -0.27200
N 	N 	0.34640 0.03220 0.91131 -0.23900
N 	N 	0.89750 0.32030 0.44895 -0.27000
N 	N 	0.84640 0.46780 0.41131 -0.24000
N 	N 	0.39750 0.17970 0.55105 -0.27300
N 	N 	0.34640 0.03220 0.58869 -0.24000
N 	N 	0.10250 0.67970 0.94895 -0.26800
N 	N 	0.15360 0.53220 0.91131 -0.23900
N 	N 	0.60250 0.82030 0.05105 -0.27200
N 	N 	0.65360 0.96780 0.08869 -0.23900
O 	O 	0.17495 0.78253 0.45524 -0.47800
O 	O 	0.33507 0.71144 0.46037 -0.53200
O 	O 	0.38998 0.50872 0.49884 -0.61800
O 	O 	0.31909 0.40350 0.56451 -0.44200
O 	O 	0.92090 0.84655 0.31312 -0.41900
O 	O 	0.98395 0.89248 0.40229 -0.44100
O 	O 	0.94810 0.70147 0.44216 -0.43000
O 	O 	0.89130 0.65463 0.35231 -0.44900
O 	O 	0.67495 0.71747 0.54476 -0.47800
O 	O 	0.83507 0.78856 0.53963 -0.52600
O 	O 	0.88998 0.99128 0.50116 -0.59700
O 	O 	0.81909 0.09650 0.43549 -0.43600
O 	O 	0.42090 0.65345 0.68688 -0.42100
O 	O 	0.48395 0.60752 0.59771 -0.45000
O 	O 	0.44810 0.79853 0.55784 -0.43500
O 	O 	0.39130 0.84537 0.64769 -0.44900
O 	O 	0.82505 0.21747 0.95524 -0.47400
O 	O 	0.66493 0.28856 0.96037 -0.53200
O 	O 	0.61002 0.49128 0.99884 -0.61600
O 	O 	0.68091 0.59650 0.06451 -0.44200
O 	O 	0.07910 0.15345 0.81312 -0.41900
O 	O 	0.01605 0.10752 0.90229 -0.43900
O 	O 	0.05190 0.29853 0.94216 -0.42900
O 	O 	0.10870 0.34537 0.85231 -0.44900
O 	O 	0.32505 0.28253 0.04476 -0.47800
O 	O 	0.16493 0.21144 0.03963 -0.52200
O 	O 	0.11002 0.00872 0.00116 -0.58800
O 	O 	0.18091 0.90350 0.93549 -0.43400
O 	O 	0.57910 0.34655 0.18688 -0.42100
O 	O 	0.51605 0.39248 0.09771 -0.45100
O 	O 	0.55190 0.20147 0.05784 -0.43700
O 	O 	0.60870 0.15463 0.14769 -0.45000
O 	O 	0.82505 0.21747 0.54476 -0.47800
O 	O 	0.66493 0.28856 0.53963 -0.53200
O 	O 	0.61002 0.49128 0.50116 -0.61800
O 	O 	0.68091 0.59650 0.43549 -0.44200
O 	O 	0.07910 0.15345 0.68688 -0.41900
O 	O 	0.01605 0.10752 0.59771 -0.44100
O 	O 	0.05190 0.29853 0.55784 -0.43000
O 	O 	0.10870 0.34537 0.64769 -0.44900
O 	O 	0.32505 0.28253 0.45524 -0.47800
O 	O 	0.16493 0.21144 0.46037 -0.52600
O 	O 	0.11002 0.00872 0.49884 -0.59700
O 	O 	0.18091 0.90350 0.56451 -0.43600
O 	O 	0.57910 0.34655 0.31312 -0.42100
O 	O 	0.51605 0.39248 0.40229 -0.45000
O 	O 	0.55190 0.20147 0.44216 -0.43500
O 	O 	0.60870 0.15463 0.35231 -0.44900
O 	O 	0.17495 0.78253 0.04476 -0.47400
O 	O 	0.33507 0.71144 0.03963 -0.53200
O 	O 	0.38998 0.50872 0.00116 -0.61600
O 	O 	0.31909 0.40350 0.93549 -0.44200
O 	O 	0.92090 0.84655 0.18688 -0.41900
O 	O 	0.98395 0.89248 0.09771 -0.43900
O 	O 	0.94810 0.70147 0.05784 -0.42900
O 	O 	0.89130 0.65463 0.14769 -0.44900
O 	O 	0.67495 0.71747 0.95524 -0.47800
O 	O 	0.83507 0.78856 0.96037 -0.52200
O 	O 	0.88998 0.99128 0.99884 -0.58800
O 	O 	0.81909 0.09650 0.06451 -0.43400
O 	O 	0.42090 0.65345 0.81312 -0.42100
O 	O 	0.48395 0.60752 0.90229 -0.45100
O 	O 	0.44810 0.79853 0.94216 -0.43700
O 	O 	0.39130 0.84537 0.85231 -0.45000
O 	O 	0.84140 0.51930 0.25000 -0.59100
O 	O 	0.78720 0.35730 0.25000 -0.57800
O 	O 	0.34140 0.98070 0.75000 -0.60100
O 	O 	0.28720 0.14270 0.75000 -0.58000
O 	O 	0.15860 0.48070 0.75000 -0.59100
O 	O 	0.21280 0.64270 0.75000 -0.57800
O 	O 	0.65860 0.01930 0.25000 -0.60100
O 	O 	0.71280 0.85730 0.25000 -0.58000
