data_crystal

_cell_length_a 16.17600
_cell_length_b 16.47300
_cell_length_c 16.47300
_cell_angle_alpha 76.05050
_cell_angle_beta  60.59460
_cell_angle_gamma 60.59460

_symmetry_space_group_name_	'P 1'
_symmetry_space_group_name_H-M	'P 1'

loop_
_symmetry_equiv_pos_as_xyz
  x,y,z

loop_
_atom_site_label
_atom_site_type_symbol
_atom_site_fract_x
_atom_site_fract_y
_atom_site_fract_z
_atom_site_charge
Eu	Eu	0.23742 0.87893 0.46873 1.69700
Eu	Eu	0.03567 0.61374 0.47688 1.82400
Eu	Eu	0.08508 0.62107 0.03127 1.67100
Eu	Eu	0.62629 0.88626 0.02312 1.81400
Eu	Eu	0.70615 0.53127 0.37893 1.70000
Eu	Eu	0.51255 0.52312 0.11374 1.83000
Eu	Eu	0.11635 0.96873 0.12107 1.65000
Eu	Eu	0.64941 0.97688 0.38626 1.82700
Eu	Eu	0.76258 0.12107 0.53127 1.69600
Eu	Eu	0.96433 0.38626 0.52312 1.82300
Eu	Eu	0.91492 0.37893 0.96873 1.67000
Eu	Eu	0.37371 0.11374 0.97688 1.81300
Eu	Eu	0.29385 0.46873 0.62107 1.69900
Eu	Eu	0.48745 0.47688 0.88626 1.82900
Eu	Eu	0.88365 0.03127 0.87893 1.65000
Eu	Eu	0.35059 0.02312 0.61374 1.82700
H 	H 	0.05710 0.75300 0.24860 -0.04900
H 	H 	0.36270 0.90290 0.21890 -0.06000
H 	H 	0.55870 0.74700 0.25140 -0.04700
H 	H 	0.98450 0.59710 0.28110 -0.05300
H 	H 	0.30570 0.75140 0.25300 -0.04700
H 	H 	0.58160 0.78110 0.40290 -0.05900
H 	H 	0.81010 0.74860 0.24700 -0.04700
H 	H 	0.26560 0.71890 0.09710 -0.05900
H 	H 	0.94290 0.24700 0.75140 -0.04900
H 	H 	0.63730 0.09710 0.78110 -0.06000
H 	H 	0.44130 0.25300 0.74860 -0.04700
H 	H 	0.01550 0.40290 0.71890 -0.05300
H 	H 	0.69430 0.24860 0.74700 -0.04700
H 	H 	0.41840 0.21890 0.59710 -0.05900
H 	H 	0.18990 0.25140 0.75300 -0.04700
H 	H 	0.73440 0.28110 0.90290 -0.05900
C 	C 	0.06860 0.77880 0.28420 0.14200
C 	C 	0.09630 0.86930 0.32990 -0.08500
C 	C 	0.09000 0.79760 0.39520 -0.07000
C 	C 	0.09350 0.77710 0.48630 0.39400
C 	C 	0.11610 0.94970 0.32090 0.37400
C 	C 	0.39810 0.91520 0.24140 0.14700
C 	C 	0.43530 0.94450 0.33630 -0.04900
C 	C 	0.50470 0.95040 0.24860 -0.08000
C 	C 	0.59690 0.97000 0.20740 0.38900
C 	C 	0.41920 0.95170 0.43210 0.35900
C 	C 	0.63160 0.72120 0.21580 0.14400
C 	C 	0.79550 0.63070 0.17010 -0.09000
C 	C 	0.78280 0.70240 0.10480 -0.06300
C 	C 	0.85690 0.72290 0.01370 0.38300
C 	C 	0.88670 0.55030 0.17910 0.39500
C 	C 	0.05470 0.58480 0.25860 0.14000
C 	C 	0.21610 0.55550 0.16370 -0.04600
C 	C 	0.20370 0.54960 0.25140 -0.07900
C 	C 	0.27430 0.53000 0.29260 0.39000
C 	C 	0.30300 0.54830 0.06790 0.35300
C 	C 	0.35280 0.71580 0.27880 0.14400
C 	C 	0.42620 0.67010 0.36930 -0.09000
C 	C 	0.48520 0.60480 0.29760 -0.06700
C 	C 	0.57980 0.51370 0.27710 0.39300
C 	C 	0.43700 0.67910 0.44970 0.39600
C 	C 	0.63950 0.75860 0.41520 0.14900
C 	C 	0.77160 0.66370 0.44450 -0.04800
C 	C 	0.75330 0.75140 0.45040 -0.07800
C 	C 	0.80430 0.79260 0.47000 0.39000
C 	C 	0.85130 0.56790 0.45170 0.35900
C 	C 	0.84740 0.78420 0.22120 0.14400
C 	C 	0.96560 0.82990 0.13070 -0.07300
C 	C 	0.88760 0.89520 0.20240 -0.06800
C 	C 	0.87060 0.98630 0.22290 0.38800
C 	C 	0.06580 0.82090 0.05030 0.36400
C 	C 	0.31330 0.74140 0.08480 0.14700
C 	C 	0.37980 0.83630 0.05550 -0.04200
C 	C 	0.45510 0.74860 0.04960 -0.08200
C 	C 	0.56690 0.70740 0.03000 0.39000
C 	C 	0.37090 0.93210 0.04830 0.33400
C 	C 	0.93140 0.22120 0.71580 0.14200
C 	C 	0.90370 0.13070 0.67010 -0.08500
C 	C 	0.91000 0.20240 0.60480 -0.07000
C 	C 	0.90650 0.22290 0.51370 0.39400
C 	C 	0.88390 0.05030 0.67910 0.37400
C 	C 	0.60190 0.08480 0.75860 0.14700
C 	C 	0.56470 0.05550 0.66370 -0.04900
C 	C 	0.49530 0.04960 0.75140 -0.08000
C 	C 	0.40310 0.03000 0.79260 0.38900
C 	C 	0.58080 0.04830 0.56790 0.35900
C 	C 	0.36840 0.27880 0.78420 0.14400
C 	C 	0.20450 0.36930 0.82990 -0.09000
C 	C 	0.21720 0.29760 0.89520 -0.06300
C 	C 	0.14310 0.27710 0.98630 0.38300
C 	C 	0.11330 0.44970 0.82090 0.39500
C 	C 	0.94530 0.41520 0.74140 0.14000
C 	C 	0.78390 0.44450 0.83630 -0.04600
C 	C 	0.79630 0.45040 0.74860 -0.07900
C 	C 	0.72570 0.47000 0.70740 0.39000
C 	C 	0.69700 0.45170 0.93210 0.35300
C 	C 	0.64720 0.28420 0.72120 0.14400
C 	C 	0.57380 0.32990 0.63070 -0.09000
C 	C 	0.51480 0.39520 0.70240 -0.06700
C 	C 	0.42020 0.48630 0.72290 0.39300
C 	C 	0.56300 0.32090 0.55030 0.39600
C 	C 	0.36050 0.24140 0.58480 0.14900
C 	C 	0.22840 0.33630 0.55550 -0.04800
C 	C 	0.24670 0.24860 0.54960 -0.07800
C 	C 	0.19570 0.20740 0.53000 0.39000
C 	C 	0.14870 0.43210 0.54830 0.35900
C 	C 	0.15260 0.21580 0.77880 0.14400
C 	C 	0.03440 0.17010 0.86930 -0.07300
C 	C 	0.11240 0.10480 0.79760 -0.06800
C 	C 	0.12940 0.01370 0.77710 0.38800
C 	C 	0.93420 0.17910 0.94970 0.36400
C 	C 	0.68670 0.25860 0.91520 0.14700
C 	C 	0.62020 0.16370 0.94450 -0.04200
C 	C 	0.54490 0.25140 0.95040 -0.08200
C 	C 	0.43310 0.29260 0.97000 0.39000
C 	C 	0.62910 0.06790 0.95170 0.33400
N 	N 	0.07340 0.74000 0.36460 -0.22500
N 	N 	0.08130 0.85680 0.25880 -0.22400
N 	N 	0.36830 0.91780 0.33220 -0.25400
N 	N 	0.48230 0.93130 0.18510 -0.24800
N 	N 	0.67800 0.76000 0.13540 -0.22500
N 	N 	0.69690 0.64320 0.24120 -0.22300
N 	N 	0.11830 0.58220 0.16780 -0.25200
N 	N 	0.09870 0.56870 0.31490 -0.24700
N 	N 	0.43800 0.63540 0.24000 -0.22500
N 	N 	0.34010 0.74120 0.35680 -0.22300
N 	N 	0.70050 0.66780 0.41780 -0.25400
N 	N 	0.66740 0.81490 0.43130 -0.24800
N 	N 	0.81340 0.86460 0.26000 -0.22500
N 	N 	0.93810 0.75880 0.14320 -0.22300
N 	N 	0.28610 0.83220 0.08220 -0.25400
N 	N 	0.41360 0.68510 0.06870 -0.24800
N 	N 	0.92660 0.26000 0.63540 -0.22500
N 	N 	0.91870 0.14320 0.74120 -0.22400
N 	N 	0.63170 0.08220 0.66780 -0.25400
N 	N 	0.51770 0.06870 0.81490 -0.24800
N 	N 	0.32200 0.24000 0.86460 -0.22500
N 	N 	0.30310 0.35680 0.75880 -0.22300
N 	N 	0.88170 0.41780 0.83220 -0.25200
N 	N 	0.90130 0.43130 0.68510 -0.24700
N 	N 	0.56200 0.36460 0.76000 -0.22500
N 	N 	0.65990 0.25880 0.64320 -0.22300
N 	N 	0.29950 0.33220 0.58220 -0.25400
N 	N 	0.33260 0.18510 0.56870 -0.24800
N 	N 	0.18660 0.13540 0.74000 -0.22500
N 	N 	0.06190 0.24120 0.85680 -0.22300
N 	N 	0.71390 0.16780 0.91780 -0.25400
N 	N 	0.58640 0.31490 0.93130 -0.24800
O 	O 	0.07300 0.70900 0.53060 -0.48200
O 	O 	0.11400 0.82130 0.51970 -0.50400
O 	O 	0.15170 0.95430 0.37150 -0.49200
O 	O 	0.09770 0.00960 0.26020 -0.45900
O 	O 	0.65340 0.95790 0.11790 -0.45100
O 	O 	0.61800 0.99610 0.25670 -0.50500
O 	O 	0.46870 0.98420 0.44400 -0.58000
O 	O 	0.34940 0.93010 0.50010 -0.51200
O 	O 	0.81260 0.79100 0.96940 -0.47000
O 	O 	0.95500 0.67870 0.98030 -0.49500
O 	O 	0.97750 0.54570 0.12850 -0.48900
O 	O 	0.86750 0.49040 0.23980 -0.48300
O 	O 	0.22920 0.54210 0.38210 -0.45000
O 	O 	0.37080 0.50390 0.24330 -0.50400
O 	O 	0.39690 0.51580 0.05600 -0.57800
O 	O 	0.27960 0.56990 0.99990 -0.50300
O 	O 	0.60360 0.46940 0.20900 -0.48100
O 	O 	0.63370 0.48030 0.32130 -0.50400
O 	O 	0.52320 0.62850 0.45430 -0.49500
O 	O 	0.35790 0.73980 0.50960 -0.48400
O 	O 	0.77130 0.88210 0.45790 -0.44800
O 	O 	0.87470 0.74330 0.49610 -0.50100
O 	O 	0.91270 0.55600 0.48420 -0.57900
O 	O 	0.84950 0.49990 0.43010 -0.51100
O 	O 	0.78200 0.03060 0.29100 -0.47800
O 	O 	0.93530 0.01970 0.17870 -0.49000
O 	O 	0.10600 0.87150 0.04570 -0.48900
O 	O 	0.10730 0.76020 0.99040 -0.46100
O 	O 	0.61130 0.61790 0.04210 -0.44900
O 	O 	0.61410 0.75670 0.00390 -0.50300
O 	O 	0.45290 0.94400 0.01580 -0.57600
O 	O 	0.27950 0.00010 0.06990 -0.48300
O 	O 	0.92700 0.29100 0.46940 -0.48200
O 	O 	0.88600 0.17870 0.48030 -0.50400
O 	O 	0.84830 0.04570 0.62850 -0.49200
O 	O 	0.90230 0.99040 0.73980 -0.45900
O 	O 	0.34660 0.04210 0.88210 -0.45100
O 	O 	0.38200 0.00390 0.74330 -0.50500
O 	O 	0.53130 0.01580 0.55600 -0.58000
O 	O 	0.65060 0.06990 0.49990 -0.51200
O 	O 	0.18740 0.20900 0.03060 -0.47000
O 	O 	0.04500 0.32130 0.01970 -0.49500
O 	O 	0.02250 0.45430 0.87150 -0.48900
O 	O 	0.13250 0.50960 0.76020 -0.48300
O 	O 	0.77080 0.45790 0.61790 -0.45000
O 	O 	0.62920 0.49610 0.75670 -0.50400
O 	O 	0.60310 0.48420 0.94400 -0.57800
O 	O 	0.72040 0.43010 0.00010 -0.50300
O 	O 	0.39640 0.53060 0.79100 -0.48100
O 	O 	0.36630 0.51970 0.67870 -0.50400
O 	O 	0.47680 0.37150 0.54570 -0.49500
O 	O 	0.64210 0.26020 0.49040 -0.48400
O 	O 	0.22870 0.11790 0.54210 -0.44800
O 	O 	0.12530 0.25670 0.50390 -0.50100
O 	O 	0.08730 0.44400 0.51580 -0.57900
O 	O 	0.15050 0.50010 0.56990 -0.51100
O 	O 	0.21800 0.96940 0.70900 -0.47800
O 	O 	0.06470 0.98030 0.82130 -0.49000
O 	O 	0.89400 0.12850 0.95430 -0.48900
O 	O 	0.89270 0.23980 0.00960 -0.46100
O 	O 	0.38870 0.38210 0.95790 -0.44900
O 	O 	0.38590 0.24330 0.99610 -0.50300
O 	O 	0.54710 0.05600 0.98420 -0.57600
O 	O 	0.72050 0.99990 0.93010 -0.48300
