data_crystal

_cell_length_a 6.70020
_cell_length_b 27.13310
_cell_length_c 7.68170
_cell_angle_alpha 90.00000
_cell_angle_beta  90.00000
_cell_angle_gamma 90.00000

_symmetry_space_group_name_	'P 1'
_symmetry_space_group_name_H-M	'P 1'

loop_
_symmetry_equiv_pos_as_xyz
  x,y,z

loop_
_atom_site_label
_atom_site_type_symbol
_atom_site_fract_x
_atom_site_fract_y
_atom_site_fract_z
_atom_site_charge
Co	Co	0.99587 0.71742 0.24966 1.19000
Co	Co	0.00413 0.28258 0.24966 1.19000
Co	Co	0.49587 0.78258 0.75034 1.19600
Co	Co	0.50413 0.21742 0.75034 1.19600
H 	H 	0.61630 0.61260 0.31050 0.10400
H 	H 	0.98960 0.84870 0.09040 0.01900
H 	H 	0.14790 0.53760 0.11660 0.09000
H 	H 	0.28440 0.85460 0.25570 0.17900
H 	H 	0.09290 0.86050 0.37010 0.18200
H 	H 	0.41300 0.68130 0.32170 0.00600
H 	H 	0.96820 0.61070 0.11670 -0.01200
H 	H 	0.66900 0.52780 0.21620 0.06100
H 	H 	0.38370 0.38740 0.31050 0.10400
H 	H 	0.01040 0.15130 0.09040 0.01900
H 	H 	0.85210 0.46240 0.11660 0.09000
H 	H 	0.71560 0.14540 0.25570 0.17900
H 	H 	0.90710 0.13950 0.37010 0.18200
H 	H 	0.58700 0.31870 0.32170 0.00600
H 	H 	0.03180 0.38930 0.11670 -0.01200
H 	H 	0.33100 0.47220 0.21620 0.06100
H 	H 	0.11630 0.88740 0.68950 0.11400
H 	H 	0.48960 0.65130 0.90960 0.03400
H 	H 	0.64790 0.96240 0.88340 0.08700
H 	H 	0.78440 0.64540 0.74430 0.17200
H 	H 	0.59290 0.63950 0.62990 0.17500
H 	H 	0.91300 0.81870 0.67830 -0.00000
H 	H 	0.46820 0.88930 0.88330 -0.00100
H 	H 	0.16900 0.97220 0.78380 0.06100
H 	H 	0.88370 0.11260 0.68950 0.11400
H 	H 	0.51040 0.34870 0.90960 0.03400
H 	H 	0.35210 0.03760 0.88340 0.08700
H 	H 	0.21560 0.35460 0.74430 0.17200
H 	H 	0.40710 0.36050 0.62990 0.17500
H 	H 	0.08700 0.18130 0.67830 -0.00000
H 	H 	0.53180 0.11070 0.88330 -0.00100
H 	H 	0.83100 0.02780 0.78380 0.06100
C 	C 	0.48400 0.61060 0.27470 -0.18300
C 	C 	0.04220 0.81950 0.15030 0.09500
C 	C 	0.24680 0.79720 0.42510 0.48800
C 	C 	0.40610 0.56700 0.21460 0.12700
C 	C 	0.20590 0.56660 0.15720 -0.17700
C 	C 	0.17030 0.83710 0.30240 -0.45300
C 	C 	0.35930 0.65190 0.28070 0.10700
C 	C 	0.16660 0.79010 0.02040 0.29000
C 	C 	0.09660 0.61040 0.16270 0.11400
C 	C 	0.53160 0.52290 0.21550 -0.09100
C 	C 	0.51600 0.38940 0.27470 -0.18300
C 	C 	0.95780 0.18050 0.15030 0.09500
C 	C 	0.75320 0.20280 0.42510 0.48800
C 	C 	0.59390 0.43300 0.21460 0.12700
C 	C 	0.79410 0.43340 0.15720 -0.17700
C 	C 	0.82970 0.16290 0.30240 -0.45300
C 	C 	0.64070 0.34810 0.28070 0.10700
C 	C 	0.83340 0.20990 0.02040 0.29000
C 	C 	0.90340 0.38960 0.16270 0.11400
C 	C 	0.46840 0.47710 0.21550 -0.09100
C 	C 	0.98400 0.88940 0.72530 -0.20000
C 	C 	0.54220 0.68050 0.84970 0.06400
C 	C 	0.74680 0.70280 0.57490 0.48200
C 	C 	0.90610 0.93300 0.78540 0.12800
C 	C 	0.70590 0.93340 0.84280 -0.17100
C 	C 	0.67030 0.66290 0.69760 -0.43800
C 	C 	0.85930 0.84810 0.71930 0.11400
C 	C 	0.66660 0.70990 0.97960 0.29600
C 	C 	0.59660 0.88960 0.83730 0.09700
C 	C 	0.03160 0.97710 0.78450 -0.09000
C 	C 	0.01600 0.11060 0.72530 -0.20000
C 	C 	0.45780 0.31950 0.84970 0.06400
C 	C 	0.25320 0.29720 0.57490 0.48200
C 	C 	0.09390 0.06700 0.78540 0.12800
C 	C 	0.29410 0.06660 0.84280 -0.17100
C 	C 	0.32970 0.33710 0.69760 -0.43800
C 	C 	0.14070 0.15190 0.71930 0.11400
C 	C 	0.33340 0.29010 0.97960 0.29600
C 	C 	0.40340 0.11040 0.83730 0.09700
C 	C 	0.96840 0.02290 0.78450 -0.09000
N 	N 	0.16950 0.65190 0.23170 -0.22600
N 	N 	0.83050 0.34810 0.23170 -0.22600
N 	N 	0.66950 0.84810 0.76830 -0.22800
N 	N 	0.33050 0.15190 0.76830 -0.22800
O 	O 	0.27770 0.81300 0.92190 -0.37200
O 	O 	0.87580 0.79200 0.21840 -0.27700
O 	O 	0.14350 0.74360 0.02450 -0.35600
O 	O 	0.21030 0.75210 0.39980 -0.44100
O 	O 	0.34160 0.81390 0.55110 -0.45300
O 	O 	0.72230 0.18700 0.92190 -0.37200
O 	O 	0.12420 0.20800 0.21840 -0.27700
O 	O 	0.85650 0.25640 0.02450 -0.35600
O 	O 	0.78970 0.24790 0.39980 -0.44100
O 	O 	0.65840 0.18610 0.55110 -0.45300
O 	O 	0.77770 0.68700 0.07810 -0.37600
O 	O 	0.37580 0.70800 0.78160 -0.26400
O 	O 	0.64350 0.75640 0.97550 -0.36400
O 	O 	0.71030 0.74790 0.60020 -0.44400
O 	O 	0.84160 0.68610 0.44890 -0.45500
O 	O 	0.22230 0.31300 0.07810 -0.37600
O 	O 	0.62420 0.29200 0.78160 -0.26400
O 	O 	0.35650 0.24360 0.97550 -0.36400
O 	O 	0.28970 0.25210 0.60020 -0.44400
O 	O 	0.15840 0.31390 0.44890 -0.45500
