data_crystal

_cell_length_a 13.55200
_cell_length_b 16.33290
_cell_length_c 17.34690
_cell_angle_alpha 67.29320
_cell_angle_beta  67.00700
_cell_angle_gamma 65.48900

_symmetry_space_group_name_	'P 1'
_symmetry_space_group_name_H-M	'P 1'

loop_
_symmetry_equiv_pos_as_xyz
  x,y,z

loop_
_atom_site_label
_atom_site_type_symbol
_atom_site_fract_x
_atom_site_fract_y
_atom_site_fract_z
_atom_site_charge
Mn	Mn	0.41156 0.46874 0.60204 1.27500
Mn	Mn	0.48234 0.03126 0.89796 1.27400
Mn	Mn	0.58844 0.53126 0.39796 1.27500
Mn	Mn	0.51766 0.96874 0.10204 1.27400
Mn	Mn	0.45586 0.25000 0.75000 1.32200
Mn	Mn	0.54414 0.75000 0.25000 1.32200
H 	H 	0.05850 0.58380 0.74960 -0.03700
H 	H 	0.87040 0.60770 0.81890 0.14100
H 	H 	0.92350 0.33540 0.90920 0.13300
H 	H 	0.11380 0.31170 0.84210 -0.03300
H 	H 	0.74980 0.43570 0.97450 0.12400
H 	H 	0.77830 0.52710 0.04210 0.13800
H 	H 	0.70780 0.65790 0.08990 -0.04100
H 	H 	0.53610 0.79270 0.91250 -0.04100
H 	H 	0.60170 0.65760 0.86800 0.13500
H 	H 	0.61040 0.39610 0.97070 0.12400
H 	H 	0.52820 0.36480 0.89660 -0.01500
H 	H 	0.66590 0.52730 0.67730 -0.02900
H 	H 	0.75460 0.55220 0.75160 0.13000
H 	H 	0.39190 0.91620 0.75040 -0.03800
H 	H 	0.29700 0.89230 0.68110 0.14200
H 	H 	0.16810 0.16460 0.59080 0.13400
H 	H 	0.26760 0.18830 0.65790 -0.03400
H 	H 	0.16000 0.06430 0.52550 0.12200
H 	H 	0.34750 0.97290 0.45790 0.13600
H 	H 	0.45560 0.84210 0.41010 -0.03900
H 	H 	0.24130 0.70730 0.58750 -0.03900
H 	H 	0.12730 0.84240 0.63200 0.13300
H 	H 	0.97720 0.10390 0.52930 0.12100
H 	H 	0.78960 0.13520 0.60340 -0.01100
H 	H 	0.87050 0.97270 0.82270 -0.02000
H 	H 	0.05840 0.94780 0.74840 0.12300
H 	H 	0.94150 0.41620 0.25040 -0.03700
H 	H 	0.12960 0.39230 0.18110 0.14100
H 	H 	0.07650 0.66460 0.09080 0.13300
H 	H 	0.88620 0.68830 0.15790 -0.03300
H 	H 	0.25020 0.56430 0.02550 0.12400
H 	H 	0.22170 0.47290 0.95790 0.13800
H 	H 	0.29220 0.34210 0.91010 -0.04100
H 	H 	0.46390 0.20730 0.08750 -0.04100
H 	H 	0.39830 0.34240 0.13200 0.13500
H 	H 	0.38960 0.60390 0.02930 0.12400
H 	H 	0.47180 0.63520 0.10340 -0.01500
H 	H 	0.33410 0.47270 0.32270 -0.02900
H 	H 	0.24540 0.44780 0.24840 0.13000
H 	H 	0.60810 0.08380 0.24960 -0.03800
H 	H 	0.70300 0.10770 0.31890 0.14200
H 	H 	0.83190 0.83540 0.40920 0.13400
H 	H 	0.73240 0.81170 0.34210 -0.03400
H 	H 	0.84000 0.93570 0.47450 0.12200
H 	H 	0.65250 0.02710 0.54210 0.13600
H 	H 	0.54440 0.15790 0.58990 -0.03900
H 	H 	0.75870 0.29270 0.41250 -0.03900
H 	H 	0.87270 0.15760 0.36800 0.13300
H 	H 	0.02280 0.89610 0.47070 0.12100
H 	H 	0.21040 0.86480 0.39660 -0.01100
H 	H 	0.12950 0.02730 0.17730 -0.02000
H 	H 	0.94160 0.05220 0.25160 0.12300
C 	C 	0.22729 0.42812 0.74330 0.46500
C 	C 	0.10571 0.44521 0.78917 -0.27900
C 	C 	0.03231 0.53278 0.78260 0.22000
C 	C 	0.91936 0.54688 0.82440 -0.31900
C 	C 	0.87689 0.47453 0.87349 0.27200
C 	C 	0.95007 0.38646 0.87820 -0.30900
C 	C 	0.06445 0.37240 0.83690 0.21100
C 	C 	0.75266 0.48723 0.92117 -0.34200
C 	C 	0.69837 0.57817 0.94985 0.25800
C 	C 	0.72855 0.58040 0.01590 -0.31000
C 	C 	0.68738 0.65887 0.04417 0.22300
C 	C 	0.61617 0.73883 0.00523 -0.29000
C 	C 	0.58444 0.73875 0.93917 0.21100
C 	C 	0.62472 0.65768 0.91188 -0.30400
C 	C 	0.57303 0.82431 0.03523 0.48500
C 	C 	0.69281 0.47700 0.86878 0.25100
C 	C 	0.62378 0.42174 0.91090 -0.28300
C 	C 	0.57376 0.40338 0.86630 0.17500
C 	C 	0.59026 0.44086 0.77782 -0.23500
C 	C 	0.65593 0.49849 0.73645 0.18300
C 	C 	0.70805 0.51457 0.78173 -0.29100
C 	C 	0.53689 0.41638 0.73224 0.44100
C 	C 	0.39871 0.07188 0.75670 0.46700
C 	C 	0.34009 0.05479 0.71083 -0.28500
C 	C 	0.34769 0.96722 0.71740 0.22700
C 	C 	0.29064 0.95312 0.67560 -0.32000
C 	C 	0.22491 0.02547 0.62651 0.26900
C 	C 	0.21473 0.11354 0.62180 -0.31200
C 	C 	0.27375 0.12760 0.66310 0.21500
C 	C 	0.16106 0.01277 0.57883 -0.33500
C 	C 	0.22639 0.92183 0.55015 0.25200
C 	C 	0.32485 0.91960 0.48410 -0.30300
C 	C 	0.39042 0.84113 0.45583 0.21700
C 	C 	0.36023 0.76117 0.49477 -0.28400
C 	C 	0.26236 0.76125 0.56083 0.20300
C 	C 	0.19428 0.84232 0.58812 -0.29800
C 	C 	0.43257 0.67569 0.46477 0.48900
C 	C 	0.03859 0.02300 0.63122 0.23600
C 	C 	0.95642 0.07826 0.58910 -0.26900
C 	C 	0.84344 0.09662 0.63370 0.16300
C 	C 	0.80894 0.05914 0.72218 -0.22400
C 	C 	0.89087 0.00151 0.76355 0.16400
C 	C 	0.00435 0.98543 0.71827 -0.27100
C 	C 	0.68551 0.08362 0.76776 0.43600
C 	C 	0.77271 0.57188 0.25670 0.46500
C 	C 	0.89429 0.55479 0.21083 -0.27900
C 	C 	0.96769 0.46722 0.21740 0.22000
C 	C 	0.08064 0.45312 0.17560 -0.31900
C 	C 	0.12311 0.52547 0.12651 0.27200
C 	C 	0.04993 0.61354 0.12180 -0.30900
C 	C 	0.93555 0.62760 0.16310 0.21100
C 	C 	0.24734 0.51277 0.07883 -0.34200
C 	C 	0.30163 0.42183 0.05015 0.25800
C 	C 	0.27145 0.41960 0.98410 -0.31000
C 	C 	0.31262 0.34113 0.95583 0.22300
C 	C 	0.38383 0.26117 0.99477 -0.29000
C 	C 	0.41556 0.26125 0.06083 0.21100
C 	C 	0.37528 0.34232 0.08812 -0.30400
C 	C 	0.42697 0.17569 0.96477 0.48500
C 	C 	0.30719 0.52300 0.13122 0.25100
C 	C 	0.37622 0.57826 0.08910 -0.28300
C 	C 	0.42624 0.59662 0.13370 0.17500
C 	C 	0.40974 0.55914 0.22218 -0.23500
C 	C 	0.34407 0.50151 0.26355 0.18300
C 	C 	0.29195 0.48543 0.21827 -0.29100
C 	C 	0.46311 0.58362 0.26776 0.44100
C 	C 	0.60129 0.92812 0.24330 0.46700
C 	C 	0.65991 0.94521 0.28917 -0.28500
C 	C 	0.65231 0.03278 0.28260 0.22700
C 	C 	0.70936 0.04688 0.32440 -0.32000
C 	C 	0.77509 0.97453 0.37349 0.26900
C 	C 	0.78527 0.88646 0.37820 -0.31200
C 	C 	0.72625 0.87240 0.33690 0.21500
C 	C 	0.83894 0.98723 0.42117 -0.33500
C 	C 	0.77361 0.07817 0.44985 0.25200
C 	C 	0.67515 0.08040 0.51590 -0.30300
C 	C 	0.60958 0.15887 0.54417 0.21700
C 	C 	0.63977 0.23883 0.50523 -0.28400
C 	C 	0.73764 0.23875 0.43917 0.20300
C 	C 	0.80572 0.15768 0.41188 -0.29800
C 	C 	0.56743 0.32431 0.53523 0.48900
C 	C 	0.96141 0.97700 0.36878 0.23600
C 	C 	0.04358 0.92174 0.41090 -0.26900
C 	C 	0.15656 0.90338 0.36630 0.16300
C 	C 	0.19106 0.94086 0.27782 -0.22400
C 	C 	0.10913 0.99849 0.23645 0.16400
C 	C 	0.99565 0.01457 0.28173 -0.27100
C 	C 	0.31449 0.91638 0.23224 0.43600
O 	O 	0.29137 0.34608 0.75512 -0.49200
O 	O 	0.25963 0.49609 0.69491 -0.50100
O 	O 	0.53124 0.90137 0.98843 -0.57500
O 	O 	0.58151 0.81798 0.10744 -0.58200
O 	O 	0.52345 0.47079 0.65931 -0.47100
O 	O 	0.50776 0.34497 0.76885 -0.47600
O 	O 	0.39257 0.15392 0.74488 -0.49300
O 	O 	0.45063 0.00391 0.80509 -0.50200
O 	O 	0.42104 0.59863 0.51157 -0.58000
O 	O 	0.50693 0.68202 0.39256 -0.58200
O 	O 	0.65355 0.02921 0.84069 -0.47100
O 	O 	0.62158 0.15503 0.73115 -0.47500
O 	O 	0.70863 0.65392 0.24488 -0.49200
O 	O 	0.74037 0.50391 0.30509 -0.50100
O 	O 	0.46876 0.09863 0.01157 -0.57500
O 	O 	0.41849 0.18202 0.89256 -0.58200
O 	O 	0.47655 0.52921 0.34069 -0.47100
O 	O 	0.49224 0.65503 0.23115 -0.47600
O 	O 	0.60743 0.84608 0.25512 -0.49300
O 	O 	0.54937 0.99609 0.19491 -0.50200
O 	O 	0.57896 0.40137 0.48843 -0.58000
O 	O 	0.49307 0.31798 0.60744 -0.58200
O 	O 	0.34645 0.97079 0.15931 -0.47100
O 	O 	0.37842 0.84497 0.26885 -0.47500
