data_crystal

_cell_length_a 6.68560
_cell_length_b 26.99670
_cell_length_c 7.63770
_cell_angle_alpha 90.00000
_cell_angle_beta  90.00000
_cell_angle_gamma 90.00000

_symmetry_space_group_name_	'P 1'
_symmetry_space_group_name_H-M	'P 1'

loop_
_symmetry_equiv_pos_as_xyz
  x,y,z

loop_
_atom_site_label
_atom_site_type_symbol
_atom_site_fract_x
_atom_site_fract_y
_atom_site_fract_z
_atom_site_charge
Ni	Ni	0.49965 0.28242 0.74604 1.13400
Ni	Ni	0.50035 0.71758 0.74604 1.13400
Ni	Ni	0.99965 0.21758 0.25396 1.12800
Ni	Ni	0.00035 0.78242 0.25396 1.12800
H 	H 	0.35390 0.46130 0.61900 0.09000
H 	H 	0.50760 0.15140 0.59510 0.01900
H 	H 	0.88840 0.38650 0.80370 0.09200
H 	H 	0.53230 0.39020 0.62610 -0.00300
H 	H 	0.08270 0.31790 0.82520 0.01500
H 	H 	0.83050 0.47170 0.71190 0.06100
H 	H 	0.40420 0.14110 0.87110 0.18700
H 	H 	0.21320 0.14760 0.75580 0.18900
H 	H 	0.64610 0.53870 0.61900 0.09000
H 	H 	0.49240 0.84860 0.59510 0.01900
H 	H 	0.11160 0.61350 0.80370 0.09200
H 	H 	0.46770 0.60980 0.62610 -0.00300
H 	H 	0.91730 0.68210 0.82520 0.01500
H 	H 	0.16950 0.52830 0.71190 0.06100
H 	H 	0.59580 0.85890 0.87110 0.18700
H 	H 	0.78680 0.85240 0.75580 0.18900
H 	H 	0.85390 0.03870 0.38100 0.08600
H 	H 	0.00760 0.34860 0.40490 0.04400
H 	H 	0.38840 0.11350 0.19630 0.10900
H 	H 	0.03230 0.10980 0.37390 0.01300
H 	H 	0.58270 0.18210 0.17480 0.00600
H 	H 	0.33050 0.02830 0.28810 0.06200
H 	H 	0.90420 0.35890 0.12890 0.17700
H 	H 	0.71320 0.35240 0.24420 0.18000
H 	H 	0.14610 0.96130 0.38100 0.08600
H 	H 	0.99240 0.65140 0.40490 0.04400
H 	H 	0.61160 0.88650 0.19630 0.10900
H 	H 	0.96770 0.89020 0.37390 0.01300
H 	H 	0.41730 0.81790 0.17480 0.00600
H 	H 	0.66950 0.97170 0.28810 0.06200
H 	H 	0.09580 0.64110 0.12890 0.17700
H 	H 	0.28680 0.64760 0.24420 0.18000
C 	C 	0.09570 0.43220 0.71480 0.13100
C 	C 	0.29510 0.43230 0.66000 -0.18200
C 	C 	0.45470 0.18090 0.65410 0.11100
C 	C 	0.02220 0.38850 0.77120 -0.16900
C 	C 	0.40170 0.38980 0.66790 0.10600
C 	C 	0.13920 0.34690 0.78190 0.10700
C 	C 	0.25260 0.20390 0.92670 0.49800
C 	C 	0.96810 0.47670 0.71310 -0.09500
C 	C 	0.32830 0.16490 0.80320 -0.48500
C 	C 	0.32680 0.21120 0.52080 0.28500
C 	C 	0.90430 0.56780 0.71480 0.13100
C 	C 	0.70490 0.56770 0.66000 -0.18200
C 	C 	0.54530 0.81910 0.65410 0.11100
C 	C 	0.97780 0.61150 0.77120 -0.16900
C 	C 	0.59830 0.61020 0.66790 0.10600
C 	C 	0.86080 0.65310 0.78190 0.10700
C 	C 	0.74740 0.79610 0.92670 0.49800
C 	C 	0.03190 0.52330 0.71310 -0.09500
C 	C 	0.67170 0.83510 0.80320 -0.48500
C 	C 	0.67320 0.78880 0.52080 0.28500
C 	C 	0.59570 0.06780 0.28520 0.13400
C 	C 	0.79510 0.06770 0.34000 -0.17300
C 	C 	0.95470 0.31910 0.34590 0.06300
C 	C 	0.52220 0.11150 0.22880 -0.19600
C 	C 	0.90170 0.11020 0.33210 0.08200
C 	C 	0.63920 0.15310 0.21810 0.11900
C 	C 	0.75260 0.29610 0.07330 0.49100
C 	C 	0.46810 0.02330 0.28690 -0.09400
C 	C 	0.82830 0.33510 0.19680 -0.46000
C 	C 	0.82680 0.28880 0.47920 0.29600
C 	C 	0.40430 0.93220 0.28520 0.13400
C 	C 	0.20490 0.93230 0.34000 -0.17300
C 	C 	0.04530 0.68090 0.34590 0.06300
C 	C 	0.47780 0.88850 0.22880 -0.19600
C 	C 	0.09830 0.88980 0.33210 0.08200
C 	C 	0.36080 0.84690 0.21810 0.11900
C 	C 	0.24740 0.70390 0.07330 0.49100
C 	C 	0.53190 0.97670 0.28690 -0.09400
C 	C 	0.17170 0.66490 0.19680 -0.46000
C 	C 	0.17320 0.71120 0.47920 0.29600
N 	N 	0.32950 0.34640 0.73310 -0.22200
N 	N 	0.67050 0.65360 0.73310 -0.22200
N 	N 	0.82950 0.15360 0.26690 -0.22300
N 	N 	0.17050 0.84640 0.26690 -0.22300
O 	O 	0.61760 0.20940 0.71930 -0.27300
O 	O 	0.29110 0.24870 0.90430 -0.43300
O 	O 	0.21580 0.18800 0.42000 -0.36200
O 	O 	0.34940 0.25760 0.52590 -0.35400
O 	O 	0.15080 0.18720 0.05170 -0.43000
O 	O 	0.38240 0.79060 0.71930 -0.27300
O 	O 	0.70890 0.75130 0.90430 -0.43300
O 	O 	0.78420 0.81200 0.42000 -0.36200
O 	O 	0.65060 0.74240 0.52590 -0.35400
O 	O 	0.84920 0.81280 0.05170 -0.43000
O 	O 	0.11760 0.29060 0.28070 -0.25100
O 	O 	0.79110 0.25130 0.09570 -0.43600
O 	O 	0.71580 0.31200 0.58000 -0.37300
O 	O 	0.84940 0.24240 0.47410 -0.36300
O 	O 	0.65080 0.31280 0.94830 -0.43800
O 	O 	0.88240 0.70940 0.28070 -0.25100
O 	O 	0.20890 0.74870 0.09570 -0.43600
O 	O 	0.28420 0.68800 0.58000 -0.37300
O 	O 	0.15060 0.75760 0.47410 -0.36300
O 	O 	0.34920 0.68720 0.94830 -0.43800
