data_crystal

_cell_length_a 9.42980
_cell_length_b 13.31850
_cell_length_c 23.22400
_cell_angle_alpha 94.58400
_cell_angle_beta  90.00000
_cell_angle_gamma 90.00000

_symmetry_space_group_name_	'P 1'
_symmetry_space_group_name_H-M	'P 1'

loop_
_symmetry_equiv_pos_as_xyz
  x,y,z

loop_
_atom_site_label
_atom_site_type_symbol
_atom_site_fract_x
_atom_site_fract_y
_atom_site_fract_z
_atom_site_charge
Cd	Cd	0.34797 0.02746 0.95459 1.23400
Cd	Cd	0.34797 0.47254 0.54541 1.23300
Cd	Cd	0.65203 0.97254 0.04541 1.23300
Cd	Cd	0.65203 0.52746 0.45459 1.23400
Cd	Cd	-0.00000 0.50000 0.50000 1.23200
Cd	Cd	-0.00000 0.00000 -0.00000 1.20800
H 	H 	0.14710 0.33560 0.72350 -0.01500
H 	H 	0.98400 0.33990 0.79710 0.12900
H 	H 	0.73770 0.51530 0.71200 0.14000
H 	H 	0.89640 0.50810 0.63680 -0.05100
H 	H 	0.64420 0.44330 0.79280 0.11800
H 	H 	0.96340 0.56070 0.83680 0.13700
H 	H 	0.98170 0.71250 0.89200 0.00900
H 	H 	0.57040 0.70500 0.92470 -0.00600
H 	H 	0.54940 0.55780 0.86870 0.12100
H 	H 	0.56230 0.28830 0.81140 0.11900
H 	H 	0.53990 0.15860 0.87140 -0.03100
H 	H 	0.88410 0.25940 0.95870 0.00100
H 	H 	0.90090 0.39050 0.90030 0.13900
H 	H 	0.57470 0.93280 0.86110 -0.00200
H 	H 	0.58550 0.83280 0.77630 0.07800
H 	H 	0.18960 0.74530 0.80370 0.06400
H 	H 	0.19400 0.84040 0.88970 0.00300
H 	H 	0.14710 0.16440 0.77650 -0.02000
H 	H 	0.98400 0.16010 0.70290 0.13600
H 	H 	0.73770 0.98470 0.78800 0.18500
H 	H 	0.89640 0.99190 0.86320 -0.01800
H 	H 	0.64420 0.05670 0.70720 0.12500
H 	H 	0.96340 0.93930 0.66320 0.16400
H 	H 	0.98170 0.78750 0.60800 -0.00800
H 	H 	0.57040 0.79500 0.57530 -0.02500
H 	H 	0.54940 0.94220 0.63130 0.14600
H 	H 	0.56230 0.21170 0.68860 0.12300
H 	H 	0.53990 0.34140 0.62860 -0.03300
H 	H 	0.88410 0.24060 0.54130 -0.01400
H 	H 	0.90090 0.10950 0.59970 0.13400
H 	H 	0.57470 0.56720 0.63890 -0.01100
H 	H 	0.58550 0.66720 0.72370 0.07900
H 	H 	0.18960 0.75470 0.69630 0.06600
H 	H 	0.19400 0.65960 0.61030 -0.00500
H 	H 	0.85290 0.66440 0.27650 -0.05000
H 	H 	0.01600 0.66010 0.20290 0.16300
H 	H 	0.26230 0.48470 0.28800 0.12900
H 	H 	0.10360 0.49190 0.36320 -0.02200
H 	H 	0.35580 0.55670 0.20720 0.13000
H 	H 	0.03660 0.43930 0.16320 0.12100
H 	H 	0.01830 0.28750 0.10800 -0.04700
H 	H 	0.42960 0.29500 0.07530 -0.02900
H 	H 	0.45060 0.44220 0.13130 0.13400
H 	H 	0.43770 0.71170 0.18860 0.13200
H 	H 	0.46010 0.84140 0.12860 -0.03100
H 	H 	0.11590 0.74060 0.04130 -0.05300
H 	H 	0.09910 0.60950 0.09970 0.12000
H 	H 	0.42530 0.06720 0.13890 -0.02000
H 	H 	0.41450 0.16720 0.22370 0.07500
H 	H 	0.81040 0.25470 0.19630 0.09100
H 	H 	0.80600 0.15960 0.11030 0.01100
H 	H 	0.85290 0.83560 0.22350 -0.04500
H 	H 	0.01600 0.83990 0.29710 0.15600
H 	H 	0.26230 0.01530 0.21200 0.08100
H 	H 	0.10360 0.00810 0.13680 -0.06200
H 	H 	0.35580 0.94330 0.29280 0.12200
H 	H 	0.03660 0.06070 0.33680 0.09200
H 	H 	0.01830 0.21250 0.39200 -0.03000
H 	H 	0.42960 0.20500 0.42470 -0.00900
H 	H 	0.45060 0.05780 0.36870 0.10800
H 	H 	0.43770 0.78830 0.31140 0.12700
H 	H 	0.46010 0.65860 0.37140 -0.03000
H 	H 	0.11590 0.75940 0.45870 -0.03900
H 	H 	0.09910 0.89050 0.40030 0.12600
H 	H 	0.42530 0.43280 0.36110 -0.01200
H 	H 	0.41450 0.33280 0.27630 0.07500
H 	H 	0.81040 0.24530 0.30370 0.08900
H 	H 	0.80600 0.34040 0.38970 0.01800
C 	C 	0.14700 0.42239 0.62559 0.42400
C 	C 	0.04040 0.42147 0.67307 -0.31000
C 	C 	0.06380 0.37220 0.72050 0.12200
C 	C 	0.96600 0.37540 0.76500 -0.21900
C 	C 	0.84520 0.42869 0.76269 0.25100
C 	C 	0.82070 0.47830 0.71460 -0.31800
C 	C 	0.91600 0.47460 0.66950 0.28500
C 	C 	0.73740 0.44093 0.81133 -0.31400
C 	C 	0.75520 0.54193 0.84663 0.22800
C 	C 	0.88280 0.58940 0.85430 -0.25700
C 	C 	0.89410 0.68060 0.88810 0.16200
C 	C 	0.77940 0.72360 0.91540 -0.20500
C 	C 	0.65070 0.67610 0.90700 0.16600
C 	C 	0.63810 0.58790 0.87360 -0.25800
C 	C 	0.79080 0.81971 0.95321 0.42800
C 	C 	0.73120 0.35354 0.85014 0.23300
C 	C 	0.62620 0.28350 0.84160 -0.26400
C 	C 	0.61340 0.20490 0.87710 0.16900
C 	C 	0.71130 0.19569 0.92149 -0.23300
C 	C 	0.81800 0.26520 0.92950 0.17900
C 	C 	0.82820 0.34370 0.89430 -0.26000
C 	C 	0.69630 0.11285 0.96045 0.44100
C 	C 	0.49590 0.89410 0.84980 0.09000
C 	C 	0.50240 0.83490 0.79790 -0.14000
C 	C 	0.38760 0.77980 0.77820 0.05500
C 	C 	0.27000 0.78270 0.81440 -0.13100
C 	C 	0.27310 0.84070 0.86590 0.07400
C 	C 	0.14700 0.07761 0.87441 0.41900
C 	C 	0.04040 0.07853 0.82693 -0.31200
C 	C 	0.06380 0.12780 0.77950 0.13100
C 	C 	0.96600 0.12460 0.73500 -0.24700
C 	C 	0.84520 0.07131 0.73731 0.28800
C 	C 	0.82070 0.02170 0.78540 -0.38700
C 	C 	0.91600 0.02540 0.83050 0.26000
C 	C 	0.73740 0.05907 0.68867 -0.38200
C 	C 	0.75520 0.95807 0.65337 0.30200
C 	C 	0.88280 0.91060 0.64570 -0.31000
C 	C 	0.89410 0.81940 0.61190 0.20600
C 	C 	0.77940 0.77640 0.58460 -0.24300
C 	C 	0.65070 0.82390 0.59300 0.21200
C 	C 	0.63810 0.91210 0.62640 -0.31200
C 	C 	0.79080 0.68029 0.54679 0.44400
C 	C 	0.73120 0.14646 0.64986 0.25300
C 	C 	0.62620 0.21650 0.65840 -0.28400
C 	C 	0.61340 0.29510 0.62290 0.17900
C 	C 	0.71130 0.30431 0.57851 -0.24700
C 	C 	0.81800 0.23480 0.57050 0.19000
C 	C 	0.82820 0.15630 0.60570 -0.28300
C 	C 	0.69630 0.38715 0.53955 0.44600
C 	C 	0.49590 0.60590 0.65020 0.09000
C 	C 	0.50240 0.66510 0.70210 -0.14500
C 	C 	0.38760 0.72020 0.72180 0.05700
C 	C 	0.27000 0.71730 0.68560 -0.13500
C 	C 	0.27310 0.65930 0.63410 0.07200
C 	C 	0.85300 0.57761 0.37441 0.40900
C 	C 	0.95960 0.57853 0.32693 -0.20300
C 	C 	0.93620 0.62780 0.27950 0.29900
C 	C 	0.03400 0.62460 0.23500 -0.42300
C 	C 	0.15480 0.57131 0.23731 0.30200
C 	C 	0.17930 0.52170 0.28540 -0.29800
C 	C 	0.08400 0.52540 0.33050 0.12200
C 	C 	0.26260 0.55907 0.18867 -0.35600
C 	C 	0.24480 0.45807 0.15337 0.25500
C 	C 	0.11720 0.41060 0.14570 -0.30300
C 	C 	0.10590 0.31940 0.11190 0.19000
C 	C 	0.22060 0.27640 0.08460 -0.26000
C 	C 	0.34930 0.32390 0.09300 0.20000
C 	C 	0.36190 0.41210 0.12640 -0.30100
C 	C 	0.20920 0.18029 0.04679 0.45000
C 	C 	0.26880 0.64646 0.14986 0.25400
C 	C 	0.37380 0.71650 0.15840 -0.29000
C 	C 	0.38660 0.79510 0.12290 0.18800
C 	C 	0.28870 0.80431 0.07851 -0.26500
C 	C 	0.18200 0.73480 0.07050 0.19400
C 	C 	0.17180 0.65630 0.10570 -0.29900
C 	C 	0.30370 0.88715 0.03955 0.45400
C 	C 	0.50410 0.10590 0.15020 0.08900
C 	C 	0.49760 0.16510 0.20210 -0.14700
C 	C 	0.61240 0.22020 0.22180 0.06000
C 	C 	0.73000 0.21730 0.18560 -0.13400
C 	C 	0.72690 0.15930 0.13410 0.07100
C 	C 	0.85300 0.92239 0.12559 0.41400
C 	C 	0.95960 0.92147 0.17307 -0.21000
C 	C 	0.93620 0.87220 0.22050 0.28900
C 	C 	0.03400 0.87540 0.26500 -0.39100
C 	C 	0.15480 0.92869 0.26269 0.26400
C 	C 	0.17930 0.97830 0.21460 -0.22900
C 	C 	0.08400 0.97460 0.16950 0.16300
C 	C 	0.26260 0.94093 0.31133 -0.28500
C 	C 	0.24480 0.04193 0.34663 0.17700
C 	C 	0.11720 0.08940 0.35430 -0.24700
C 	C 	0.10590 0.18060 0.38810 0.14400
C 	C 	0.22060 0.22360 0.41540 -0.22100
C 	C 	0.34930 0.17610 0.40700 0.15300
C 	C 	0.36190 0.08790 0.37360 -0.24400
C 	C 	0.20920 0.31971 0.45321 0.43400
C 	C 	0.26880 0.85354 0.35014 0.23500
C 	C 	0.37380 0.78350 0.34160 -0.27000
C 	C 	0.38660 0.70490 0.37710 0.17800
C 	C 	0.28870 0.69569 0.42149 -0.25300
C 	C 	0.18200 0.76520 0.42950 0.18400
C 	C 	0.17180 0.84370 0.39430 -0.27600
C 	C 	0.30370 0.61285 0.46045 0.45000
C 	C 	0.50410 0.39410 0.34980 0.09000
C 	C 	0.49760 0.33490 0.29790 -0.14200
C 	C 	0.61240 0.27980 0.27820 0.05800
C 	C 	0.73000 0.28270 0.31440 -0.13000
C 	C 	0.72690 0.34070 0.36590 0.07300
N 	N 	0.38490 0.89815 0.88365 -0.21800
N 	N 	0.38490 0.60185 0.61635 -0.22900
N 	N 	0.61510 0.10185 0.11635 -0.23900
N 	N 	0.61510 0.39815 0.38365 -0.22800
O 	O 	0.11340 0.46473 0.58083 -0.55000
O 	O 	0.26810 0.38772 0.63132 -0.39300
O 	O 	0.58440 0.06140 0.95970 -0.52800
O 	O 	0.79320 0.09712 0.99502 -0.47700
O 	O 	0.90380 0.86909 0.95129 -0.40000
O 	O 	0.68540 0.84285 0.98325 -0.43400
O 	O 	0.11340 0.03527 0.91917 -0.55100
O 	O 	0.26810 0.11228 0.86868 -0.39300
O 	O 	0.58440 0.43860 0.54030 -0.52800
O 	O 	0.79320 0.40288 0.50498 -0.49000
O 	O 	0.90380 0.63091 0.54871 -0.42500
O 	O 	0.68540 0.65715 0.51675 -0.45900
O 	O 	0.88660 0.53527 0.41917 -0.50000
O 	O 	0.73190 0.61228 0.36868 -0.37600
O 	O 	0.41560 0.93860 0.04030 -0.52700
O 	O 	0.20680 0.90288 0.00498 -0.52100
O 	O 	0.09620 0.13091 0.04871 -0.49000
O 	O 	0.31460 0.15715 0.01675 -0.49000
O 	O 	0.88660 0.96473 0.08083 -0.49400
O 	O 	0.73190 0.88772 0.13132 -0.37600
O 	O 	0.41560 0.56140 0.45970 -0.52900
O 	O 	0.20680 0.59712 0.49502 -0.51600
O 	O 	0.09620 0.36909 0.45129 -0.47100
O 	O 	0.31460 0.34285 0.48325 -0.46600
