data_crystal

_cell_length_a 11.84100
_cell_length_b 13.83700
_cell_length_c 14.26900
_cell_angle_alpha 99.42600
_cell_angle_beta  91.96500
_cell_angle_gamma 110.70500

_symmetry_space_group_name_	'P 1'
_symmetry_space_group_name_H-M	'P 1'

loop_
_symmetry_equiv_pos_as_xyz
  x,y,z

loop_
_atom_site_label
_atom_site_type_symbol
_atom_site_fract_x
_atom_site_fract_y
_atom_site_fract_z
_atom_site_charge
Cu	Cu	0.55105 0.50207 0.38211 0.80800
Cu	Cu	0.31778 0.46512 0.00415 0.85400
Cu	Cu	0.25323 0.44420 0.22049 0.86100
C 	C 	0.96630 0.96600 0.20430 0.07000
H 	H 	0.90800 0.90070 0.17810 -0.00100
C 	C 	0.85810 0.35930 0.32970 0.04300
H 	H 	0.78430 0.35050 0.35480 -0.01200
C 	C 	0.95950 0.37790 0.39010 -0.11000
H 	H 	0.95500 0.37760 0.45500 0.06500
C 	C 	0.97770 0.37220 0.19880 0.07800
H 	H 	0.98290 0.36930 0.13360 -0.01000
C 	C 	0.10690 0.12310 0.18360 0.00100
C 	C 	0.04440 0.36730 0.71880 -0.03400
H 	H 	0.99380 0.34640 0.66210 0.03600
C 	C 	0.99000 0.99290 0.30210 -0.04200
H 	H 	0.94940 0.94680 0.34110 0.04500
C 	C 	0.24120 0.42820 0.80260 0.00800
C 	C 	0.07560 0.39660 0.88940 0.02800
H 	H 	0.04420 0.39590 0.94820 0.02400
C 	C 	0.06750 0.39680 0.35100 0.03100
C 	C 	0.16100 0.18440 0.11300 0.06400
C 	C 	0.17010 0.40030 0.71820 -0.06900
H 	H 	0.20500 0.40330 0.66090 0.01800
C 	C 	0.18460 0.41980 0.40410 0.07000
C 	C 	0.99680 0.36660 0.80690 -0.06200
H 	H 	0.91350 0.34630 0.81020 0.04100
C 	C 	0.37340 0.45880 0.81380 0.06500
C 	C 	0.86370 0.35360 0.23340 -0.13900
H 	H 	0.79440 0.33800 0.19230 0.05400
C 	C 	0.13830 0.15710 0.28130 -0.06600
H 	H 	0.19870 0.22190 0.30580 0.03100
C 	C 	0.07660 0.09090 0.34090 -0.07000
H 	H 	0.09310 0.11210 0.40680 0.03200
O 	O 	0.21340 0.48150 0.10140 -0.46800
N 	N 	0.56310 0.49910 0.80320 -0.16700
N 	N 	0.54560 0.49340 0.89200 -0.16300
N 	N 	0.42580 0.46580 0.89970 -0.19000
N 	N 	0.19590 0.42660 0.88650 -0.19700
N 	N 	0.23770 0.28330 0.12340 -0.16900
N 	N 	0.25990 0.29640 0.03260 -0.15100
N 	N 	0.19860 0.21020 0.97010 -0.04000
N 	N 	0.13600 0.13810 0.02130 -0.22800
N 	N 	0.02290 0.02920 0.14500 -0.25100
N 	N 	0.37820 0.46050 0.41920 -0.19500
N 	N 	0.33590 0.45940 0.50460 -0.19600
N 	N 	0.45700 0.47760 0.75080 -0.22300
N 	N 	0.28200 0.43400 0.35540 -0.21400
N 	N 	0.21510 0.43430 0.49620 -0.11100
N 	N 	0.07920 0.39370 0.25570 -0.22500
Cu	Cu	0.44895 0.49793 0.61789 0.81000
Cu	Cu	0.68222 0.53488 0.99585 0.88600
Cu	Cu	0.74677 0.55580 0.77951 0.86200
C 	C 	0.03370 0.03400 0.79570 0.05200
H 	H 	0.09200 0.09930 0.82190 0.00100
C 	C 	0.14190 0.64070 0.67030 0.05900
H 	H 	0.21570 0.64950 0.64520 -0.01100
C 	C 	0.04050 0.62210 0.60990 -0.14000
H 	H 	0.04500 0.62240 0.54500 0.07400
C 	C 	0.02230 0.62780 0.80120 0.06500
H 	H 	0.01710 0.63070 0.86640 0.00600
C 	C 	0.89310 0.87690 0.81640 0.05500
C 	C 	0.95560 0.63270 0.28120 0.08800
H 	H 	0.00620 0.65360 0.33790 -0.01400
C 	C 	0.01000 0.00710 0.69790 -0.20900
H 	H 	0.05060 0.05320 0.65890 0.08300
C 	C 	0.75880 0.57180 0.19740 0.03600
C 	C 	0.92440 0.60340 0.11060 0.09700
H 	H 	0.95580 0.60410 0.05180 -0.02100
C 	C 	0.93250 0.60320 0.64900 0.05600
C 	C 	0.83900 0.81560 0.88700 0.06800
C 	C 	0.82990 0.59970 0.28180 -0.13800
H 	H 	0.79500 0.59670 0.33910 0.04600
C 	C 	0.81540 0.58020 0.59590 0.06500
C 	C 	0.00320 0.63340 0.19310 -0.18100
H 	H 	0.08650 0.65370 0.18980 0.07600
C 	C 	0.62660 0.54120 0.18620 0.04900
C 	C 	0.13630 0.64640 0.76660 -0.13700
H 	H 	0.20560 0.66200 0.80770 0.06800
C 	C 	0.86170 0.84290 0.71870 -0.14900
H 	H 	0.80130 0.77810 0.69420 0.06700
C 	C 	0.92340 0.90910 0.65910 0.12200
H 	H 	0.90690 0.88790 0.59320 -0.01400
O 	O 	0.78660 0.51850 0.89860 -0.44700
N 	N 	0.43690 0.50090 0.19680 -0.16800
N 	N 	0.45440 0.50660 0.10800 -0.17200
N 	N 	0.57420 0.53420 0.10030 -0.20900
N 	N 	0.80410 0.57340 0.11350 -0.23400
N 	N 	0.76230 0.71670 0.87660 -0.16200
N 	N 	0.74010 0.70360 0.96740 -0.10900
N 	N 	0.80140 0.78980 0.02990 -0.09400
N 	N 	0.86400 0.86190 0.97870 -0.16900
N 	N 	0.97710 0.97080 0.85500 -0.20000
N 	N 	0.62180 0.53950 0.58080 -0.19500
N 	N 	0.66410 0.54060 0.49540 -0.19600
N 	N 	0.54300 0.52240 0.24920 -0.22200
N 	N 	0.71800 0.56600 0.64460 -0.21300
N 	N 	0.78490 0.56570 0.50380 -0.10800
N 	N 	0.92080 0.60630 0.74430 -0.21800
Cu	Cu	-0.00000 0.00000 -0.00000 0.81500
