data_crystal

_cell_length_a 24.00100
_cell_length_b 17.45500
_cell_length_c 11.67600
_cell_angle_alpha 90.00000
_cell_angle_beta  105.09600
_cell_angle_gamma 90.00000

_symmetry_space_group_name_	'P 1'
_symmetry_space_group_name_H-M	'P 1'

loop_
_symmetry_equiv_pos_as_xyz
  x,y,z

loop_
_atom_site_label
_atom_site_type_symbol
_atom_site_fract_x
_atom_site_fract_y
_atom_site_fract_z
_atom_site_charge
Cl	Cl	0.12100 0.32000 0.75430 -1.00300
C 	C 	0.85700 0.54000 0.16200 -0.01600
C 	C 	0.85200 0.48800 0.05400 0.10500
Cu	Cu	0.05330 0.25500 0.61100 0.57800
Cu	Cu	0.89200 0.24400 0.39300 0.65300
Cu	Cu	0.03590 0.40800 0.87800 0.80900
Cu	Cu	0.87890 0.32140 0.83490 0.82900
Cu	Cu	0.03270 0.22520 0.88500 0.79300
Cu	Cu	0.74960 0.57240 0.99900 0.83300
Cu	Cu	0.05860 0.38200 0.61200 0.57100
Cu	Cu	0.89000 0.40200 0.38800 0.65400
N 	N 	0.80900 0.49700 0.95900 -0.21500
N 	N 	0.88700 0.43800 0.03100 -0.21000
N 	N 	0.81200 0.45200 0.88700 -0.06200
N 	N 	0.86000 0.42000 0.92300 -0.17500
N 	N 	0.81000 0.58700 0.15400 -0.21700
C 	C 	0.90400 0.54200 0.24600 -0.10500
H 	H 	0.93480 0.51010 0.24500 -0.03700
C 	C 	0.90800 0.59600 0.34500 -0.02200
H 	H 	0.94010 0.59800 0.40970 0.00700
C 	C 	0.86200 0.64300 0.33700 -0.10600
H 	H 	0.86170 0.67730 0.39750 0.06100
C 	C 	0.81600 0.63900 0.23600 0.06300
H 	H 	0.78650 0.67590 0.22770 0.00500
C 	C 	0.23400 0.48100 0.63300 0.04800
H 	H 	0.24660 0.45980 0.70760 -0.01500
C 	C 	0.26800 0.53200 0.59100 -0.10700
H 	H 	0.30490 0.54460 0.63840 0.05000
C 	C 	0.24900 0.56500 0.47900 0.01900
H 	H 	0.27210 0.59860 0.45140 0.01000
C 	C 	0.19400 0.54600 0.40800 -0.09700
H 	H 	0.18120 0.56790 0.33350 0.06100
C 	C 	0.15900 0.49500 0.45000 0.03000
N 	N 	0.17900 0.46300 0.56200 -0.20800
C 	C 	0.08800 0.08700 0.74200 -0.12600
H 	H 	0.05330 0.11150 0.73780 -0.01400
C 	C 	0.13400 0.09500 0.84300 -0.00000
N 	N 	0.18600 0.05800 0.84900 -0.22300
C 	C 	0.19300 0.01400 0.75400 0.01700
H 	H 	0.22740 0.98940 0.75840 0.00700
C 	C 	0.14700 0.00600 0.65400 -0.08500
H 	H 	0.15110 0.97630 0.59040 0.04800
C 	C 	0.09500 0.04300 0.64700 -0.02800
H 	H 	0.06410 0.03740 0.58010 0.01500
N 	N 	0.80900 0.30900 0.65700 -0.17900
C 	C 	0.75200 0.33300 0.63700 0.03600
H 	H 	0.73880 0.35310 0.69860 0.00500
C 	C 	0.71500 0.32800 0.52300 -0.09400
H 	H 	0.67700 0.34430 0.50980 0.05500
C 	C 	0.73500 0.29800 0.43100 0.00500
H 	H 	0.71010 0.29490 0.35520 0.02100
C 	C 	0.79200 0.27400 0.45100 -0.09300
H 	H 	0.80510 0.25430 0.38940 -0.03100
C 	C 	0.82900 0.27900 0.56400 -0.02700
N 	N 	0.19800 0.14700 0.02200 -0.17300
N 	N 	0.19500 0.20500 0.10300 -0.06900
N 	N 	0.13900 0.23700 0.07100 -0.16300
N 	N 	0.10700 0.19800 0.96900 -0.24900
C 	C 	0.14400 0.14200 0.93800 -0.00200
N 	N 	0.97550 0.24600 0.73200 -0.24000
N 	N 	0.92000 0.26500 0.72200 -0.19300
C 	C 	0.89200 0.25800 0.60700 -0.02100
N 	N 	0.93000 0.22000 0.54900 -0.30000
N 	N 	0.97800 0.21700 0.62900 -0.22000
N 	N 	0.06400 0.42500 0.44600 -0.28000
C 	C 	0.10100 0.46800 0.38900 0.04300
N 	N 	0.07700 0.47300 0.27200 -0.12300
N 	N 	0.02200 0.43600 0.26500 -0.19400
N 	N 	0.98300 0.41000 0.63500 -0.23900
Cl	Cl	0.62100 0.82000 0.75430 -1.00500
C 	C 	0.35700 0.04000 0.16200 -0.00700
C 	C 	0.35200 0.98800 0.05400 0.10400
Cu	Cu	0.55330 0.75500 0.61100 0.57300
Cu	Cu	0.39200 0.74400 0.39300 0.65300
Cu	Cu	0.53590 0.90800 0.87800 0.80300
Cu	Cu	0.37890 0.82140 0.83490 0.83100
Cu	Cu	0.53270 0.72520 0.88500 0.78700
Cu	Cu	0.24960 0.07240 0.99900 0.83400
Cu	Cu	0.55860 0.88200 0.61200 0.56500
Cu	Cu	0.39000 0.90200 0.38800 0.65400
N 	N 	0.30900 0.99700 0.95900 -0.21700
N 	N 	0.38700 0.93800 0.03100 -0.20600
N 	N 	0.31200 0.95200 0.88700 -0.06300
N 	N 	0.36000 0.92000 0.92300 -0.17600
N 	N 	0.31000 0.08700 0.15400 -0.21700
C 	C 	0.40400 0.04200 0.24600 -0.10800
H 	H 	0.43480 0.01010 0.24500 -0.02900
C 	C 	0.40800 0.09600 0.34500 -0.01700
H 	H 	0.44010 0.09800 0.40970 0.01200
C 	C 	0.36200 0.14300 0.33700 -0.10700
H 	H 	0.36170 0.17730 0.39750 0.06400
C 	C 	0.31600 0.13900 0.23600 0.06500
H 	H 	0.28650 0.17590 0.22770 0.00600
C 	C 	0.73400 0.98100 0.63300 0.03500
H 	H 	0.74660 0.95980 0.70760 -0.01200
C 	C 	0.76800 0.03200 0.59100 -0.09100
H 	H 	0.80490 0.04460 0.63840 0.04400
C 	C 	0.74900 0.06500 0.47900 0.00700
H 	H 	0.77210 0.09860 0.45140 0.01400
C 	C 	0.69400 0.04600 0.40800 -0.08200
H 	H 	0.68120 0.06790 0.33350 0.05600
C 	C 	0.65900 0.99500 0.45000 0.02000
N 	N 	0.67900 0.96300 0.56200 -0.20500
C 	C 	0.58800 0.58700 0.74200 -0.12800
H 	H 	0.55330 0.61150 0.73780 -0.01900
C 	C 	0.63400 0.59500 0.84300 -0.00200
N 	N 	0.68600 0.55800 0.84900 -0.22200
C 	C 	0.69300 0.51400 0.75400 0.01100
H 	H 	0.72740 0.48940 0.75840 0.01200
C 	C 	0.64700 0.50600 0.65400 -0.09400
H 	H 	0.65110 0.47630 0.59040 0.05300
C 	C 	0.59500 0.54300 0.64700 -0.02500
H 	H 	0.56410 0.53740 0.58010 0.00700
N 	N 	0.30900 0.80900 0.65700 -0.17900
C 	C 	0.25200 0.83300 0.63700 0.03600
H 	H 	0.23880 0.85310 0.69860 0.00400
C 	C 	0.21500 0.82800 0.52300 -0.09500
H 	H 	0.17700 0.84430 0.50980 0.05600
C 	C 	0.23500 0.79800 0.43100 0.00500
H 	H 	0.21010 0.79490 0.35520 0.02200
C 	C 	0.29200 0.77400 0.45100 -0.09300
H 	H 	0.30510 0.75430 0.38940 -0.03100
C 	C 	0.32900 0.77900 0.56400 -0.02600
N 	N 	0.69800 0.64700 0.02200 -0.17500
N 	N 	0.69500 0.70500 0.10300 -0.07000
N 	N 	0.63900 0.73700 0.07100 -0.16400
N 	N 	0.60700 0.69800 0.96900 -0.24900
C 	C 	0.64400 0.64200 0.93800 -0.00200
N 	N 	0.47550 0.74600 0.73200 -0.23300
N 	N 	0.42000 0.76500 0.72200 -0.19100
C 	C 	0.39200 0.75800 0.60700 -0.02000
N 	N 	0.43000 0.72000 0.54900 -0.29900
N 	N 	0.47800 0.71700 0.62900 -0.21200
N 	N 	0.56400 0.92500 0.44600 -0.28200
C 	C 	0.60100 0.96800 0.38900 0.04400
N 	N 	0.57700 0.97300 0.27200 -0.12700
N 	N 	0.52200 0.93600 0.26500 -0.20300
N 	N 	0.48300 0.91000 0.63500 -0.23200
Cl	Cl	0.87900 0.32000 0.24570 -0.99200
C 	C 	0.14300 0.54000 0.83800 -0.00200
C 	C 	0.14800 0.48800 0.94600 0.02400
Cu	Cu	0.94670 0.25500 0.38900 0.56700
Cu	Cu	0.10800 0.24400 0.60700 0.65400
Cu	Cu	0.96410 0.40800 0.12200 0.80800
Cu	Cu	0.12110 0.32140 0.16510 0.84300
Cu	Cu	0.96730 0.22520 0.11500 0.79300
Cu	Cu	0.25040 0.57240 0.00100 0.87400
Cu	Cu	0.94140 0.38200 0.38800 0.56000
Cu	Cu	0.11000 0.40200 0.61200 0.65500
N 	N 	0.19100 0.49700 0.04100 -0.15800
N 	N 	0.11300 0.43800 0.96900 -0.23600
N 	N 	0.18800 0.45200 0.11300 -0.06000
N 	N 	0.14000 0.42000 0.07700 -0.13200
N 	N 	0.19000 0.58700 0.84600 -0.24000
C 	C 	0.09600 0.54200 0.75400 -0.12100
H 	H 	0.06520 0.51010 0.75500 -0.02400
C 	C 	0.09200 0.59600 0.65500 -0.01300
H 	H 	0.05990 0.59800 0.59030 0.01500
C 	C 	0.13800 0.64300 0.66300 -0.11400
H 	H 	0.13830 0.67730 0.60250 0.06800
C 	C 	0.18400 0.63900 0.76400 0.06500
H 	H 	0.21350 0.67590 0.77230 -0.00200
C 	C 	0.76600 0.48100 0.36700 0.04600
H 	H 	0.75340 0.45980 0.29240 -0.00400
C 	C 	0.73200 0.53200 0.40900 -0.10200
H 	H 	0.69510 0.54460 0.36160 0.05500
C 	C 	0.75100 0.56500 0.52100 0.01500
H 	H 	0.72790 0.59860 0.54860 0.01100
C 	C 	0.80600 0.54600 0.59200 -0.09300
H 	H 	0.81880 0.56790 0.66650 0.05100
C 	C 	0.84100 0.49500 0.55000 0.02500
N 	N 	0.82100 0.46300 0.43800 -0.20600
C 	C 	0.91200 0.08700 0.25800 -0.10500
H 	H 	0.94670 0.11150 0.26220 -0.02900
C 	C 	0.86600 0.09500 0.15700 -0.02300
N 	N 	0.81400 0.05800 0.15100 -0.20900
C 	C 	0.80700 0.01400 0.24600 0.01500
H 	H 	0.77260 0.98940 0.24160 0.01100
C 	C 	0.85300 0.00600 0.34600 -0.07800
H 	H 	0.84890 0.97630 0.40960 0.04200
C 	C 	0.90500 0.04300 0.35300 -0.04100
H 	H 	0.93590 0.03740 0.41990 0.00800
N 	N 	0.19100 0.30900 0.34300 -0.17800
C 	C 	0.24800 0.33300 0.36300 0.03600
H 	H 	0.26120 0.35310 0.30140 0.00900
C 	C 	0.28500 0.32800 0.47700 -0.09600
H 	H 	0.32300 0.34430 0.49020 0.05400
C 	C 	0.26500 0.29800 0.56900 0.00600
H 	H 	0.28990 0.29490 0.64480 0.01200
C 	C 	0.20800 0.27400 0.54900 -0.09600
H 	H 	0.19490 0.25430 0.61060 -0.03300
C 	C 	0.17100 0.27900 0.43600 -0.02500
N 	N 	0.80200 0.14700 0.97800 -0.23800
N 	N 	0.80500 0.20500 0.89700 -0.08100
N 	N 	0.86100 0.23700 0.92900 -0.20400
N 	N 	0.89300 0.19800 0.03100 -0.22100
C 	C 	0.85600 0.14200 0.06200 0.07200
N 	N 	0.02450 0.24600 0.26800 -0.22000
N 	N 	0.08000 0.26500 0.27800 -0.18500
C 	C 	0.10800 0.25800 0.39300 -0.01900
N 	N 	0.07000 0.22000 0.45100 -0.29600
N 	N 	0.02200 0.21700 0.37100 -0.20300
N 	N 	0.93600 0.42500 0.55400 -0.28400
C 	C 	0.89900 0.46800 0.61100 0.04100
N 	N 	0.92300 0.47300 0.72800 -0.13600
N 	N 	0.97800 0.43600 0.73500 -0.21400
N 	N 	0.01700 0.41000 0.36500 -0.22300
Cl	Cl	0.37900 0.82000 0.24570 -0.98900
C 	C 	0.64300 0.04000 0.83800 0.00300
C 	C 	0.64800 0.98800 0.94600 0.02000
Cu	Cu	0.44670 0.75500 0.38900 0.57300
Cu	Cu	0.60800 0.74400 0.60700 0.65300
Cu	Cu	0.46410 0.90800 0.12200 0.81900
Cu	Cu	0.62110 0.82140 0.16510 0.84200
Cu	Cu	0.46730 0.72520 0.11500 0.80400
Cu	Cu	0.75040 0.07240 0.00100 0.87300
Cu	Cu	0.44140 0.88200 0.38800 0.56500
Cu	Cu	0.61000 0.90200 0.61200 0.65400
N 	N 	0.69100 0.99700 0.04100 -0.16100
N 	N 	0.61300 0.93800 0.96900 -0.23600
N 	N 	0.68800 0.95200 0.11300 -0.06100
N 	N 	0.64000 0.92000 0.07700 -0.13400
N 	N 	0.69000 0.08700 0.84600 -0.23900
C 	C 	0.59600 0.04200 0.75400 -0.12400
H 	H 	0.56520 0.01010 0.75500 -0.02600
C 	C 	0.59200 0.09600 0.65500 -0.01100
H 	H 	0.55990 0.09800 0.59030 0.00900
C 	C 	0.63800 0.14300 0.66300 -0.11600
H 	H 	0.63830 0.17730 0.60250 0.06700
C 	C 	0.68400 0.13900 0.76400 0.06600
H 	H 	0.71350 0.17590 0.77230 -0.00200
C 	C 	0.26600 0.98100 0.36700 0.03200
H 	H 	0.25340 0.95980 0.29240 -0.00000
C 	C 	0.23200 0.03200 0.40900 -0.08600
H 	H 	0.19510 0.04460 0.36160 0.05200
C 	C 	0.25100 0.06500 0.52100 0.00300
H 	H 	0.22790 0.09860 0.54860 0.01500
C 	C 	0.30600 0.04600 0.59200 -0.07800
H 	H 	0.31880 0.06790 0.66650 0.04900
C 	C 	0.34100 0.99500 0.55000 0.01600
N 	N 	0.32100 0.96300 0.43800 -0.20300
C 	C 	0.41200 0.58700 0.25800 -0.10700
H 	H 	0.44670 0.61150 0.26220 -0.02300
C 	C 	0.36600 0.59500 0.15700 -0.02100
N 	N 	0.31400 0.55800 0.15100 -0.20800
C 	C 	0.30700 0.51400 0.24600 0.01200
H 	H 	0.27260 0.48940 0.24160 0.01600
C 	C 	0.35300 0.50600 0.34600 -0.08500
H 	H 	0.34890 0.47630 0.40960 0.05000
C 	C 	0.40500 0.54300 0.35300 -0.03500
H 	H 	0.43590 0.53740 0.41990 0.01100
N 	N 	0.69100 0.80900 0.34300 -0.17800
C 	C 	0.74800 0.83300 0.36300 0.03500
H 	H 	0.76120 0.85310 0.30140 0.00800
C 	C 	0.78500 0.82800 0.47700 -0.09600
H 	H 	0.82300 0.84430 0.49020 0.05100
C 	C 	0.76500 0.79800 0.56900 0.00600
H 	H 	0.78990 0.79490 0.64480 0.01000
C 	C 	0.70800 0.77400 0.54900 -0.09600
H 	H 	0.69490 0.75430 0.61060 -0.03300
C 	C 	0.67100 0.77900 0.43600 -0.02500
N 	N 	0.30200 0.64700 0.97800 -0.24000
N 	N 	0.30500 0.70500 0.89700 -0.08100
N 	N 	0.36100 0.73700 0.92900 -0.20400
N 	N 	0.39300 0.69800 0.03100 -0.21700
C 	C 	0.35600 0.64200 0.06200 0.07500
N 	N 	0.52450 0.74600 0.26800 -0.22800
N 	N 	0.58000 0.76500 0.27800 -0.18600
C 	C 	0.60800 0.75800 0.39300 -0.02000
N 	N 	0.57000 0.72000 0.45100 -0.29800
N 	N 	0.52200 0.71700 0.37100 -0.21100
N 	N 	0.43600 0.92500 0.55400 -0.28300
C 	C 	0.39900 0.96800 0.61100 0.04300
N 	N 	0.42300 0.97300 0.72800 -0.13500
N 	N 	0.47800 0.93600 0.73500 -0.20800
N 	N 	0.51700 0.91000 0.36500 -0.23100
Cl	Cl	-0.00000 0.32500 -0.00000 -0.96200
Cl	Cl	0.50000 0.82500 -0.00000 -0.98600
