data_crystal

_cell_length_a 22.50500
_cell_length_b 22.50500
_cell_length_c 7.37160
_cell_angle_alpha 90.00000
_cell_angle_beta  90.00000
_cell_angle_gamma 120.00000

_symmetry_space_group_name_	'P 1'
_symmetry_space_group_name_H-M	'P 1'

loop_
_symmetry_equiv_pos_as_xyz
  x,y,z

loop_
_atom_site_label
_atom_site_type_symbol
_atom_site_fract_x
_atom_site_fract_y
_atom_site_fract_z
_atom_site_charge
C 	C 	0.78830 0.14950 0.52120 -0.03700
H 	H 	0.75720 0.13740 0.42240 0.02800
C 	C 	0.78170 0.15790 0.78180 -0.03500
H 	H 	0.74610 0.15130 0.86330 0.03500
C 	C 	0.45497 0.48283 0.85453 -0.05500
H 	H 	0.42387 0.47073 0.75573 0.04200
C 	C 	0.44837 0.49123 0.11513 -0.06400
H 	H 	0.41277 0.48463 0.19663 0.04300
C 	C 	0.12163 0.81617 0.18787 -0.03600
H 	H 	0.09053 0.80407 0.08907 0.02300
C 	C 	0.11503 0.82457 0.44847 -0.03300
H 	H 	0.07943 0.81797 0.52997 0.02700
C 	C 	0.85050 0.63880 0.52120 -0.03000
H 	H 	0.86260 0.61980 0.42240 0.03600
C 	C 	0.84210 0.62380 0.78180 -0.02700
H 	H 	0.84870 0.59480 0.86330 0.04000
C 	C 	0.51717 0.97213 0.85453 0.06800
H 	H 	0.52927 0.95313 0.75573 0.01400
C 	C 	0.50877 0.95713 0.11513 0.05900
H 	H 	0.51537 0.92813 0.19663 0.01200
C 	C 	0.18383 0.30547 0.18787 -0.03300
H 	H 	0.19593 0.28647 0.08907 0.02900
C 	C 	0.17543 0.29047 0.44847 -0.03000
H 	H 	0.18203 0.26147 0.52997 0.03500
C 	C 	0.36120 0.21170 0.52120 -0.03300
H 	H 	0.38020 0.24280 0.42240 0.03200
C 	C 	0.37620 0.21830 0.78180 -0.03000
H 	H 	0.40520 0.25390 0.86330 0.03800
C 	C 	0.02787 0.54503 0.85453 -0.16300
H 	H 	0.04687 0.57613 0.75573 0.06700
C 	C 	0.04287 0.55163 0.11513 -0.17200
H 	H 	0.07187 0.58723 0.19663 0.06900
C 	C 	0.69453 0.87837 0.18787 -0.03200
H 	H 	0.71353 0.90947 0.08907 0.03900
C 	C 	0.70953 0.88497 0.44847 -0.03000
H 	H 	0.73853 0.92057 0.52997 0.04600
C 	C 	0.14950 0.78830 0.47880 -0.03700
H 	H 	0.13740 0.75720 0.57760 0.03200
C 	C 	0.15790 0.78170 0.21820 -0.03600
H 	H 	0.15130 0.74610 0.13670 0.02900
C 	C 	0.81617 0.12163 0.81213 -0.03600
H 	H 	0.80407 0.09053 0.91093 0.03000
C 	C 	0.82457 0.11503 0.55153 -0.03300
H 	H 	0.81797 0.07943 0.47003 0.02300
C 	C 	0.48283 0.45497 0.14547 -0.01200
H 	H 	0.47073 0.42387 0.24427 0.02600
C 	C 	0.49123 0.44837 0.88487 0.00300
H 	H 	0.48463 0.41277 0.80337 0.02600
C 	C 	0.63880 0.85050 0.47880 -0.03000
H 	H 	0.61980 0.86260 0.57760 0.04000
C 	C 	0.62380 0.84210 0.21820 -0.02800
H 	H 	0.59480 0.84870 0.13670 0.03400
C 	C 	0.30547 0.18383 0.81213 -0.03200
H 	H 	0.28647 0.19593 0.91093 0.03800
C 	C 	0.29047 0.17543 0.55153 -0.03000
H 	H 	0.26147 0.18203 0.47003 0.03300
C 	C 	0.97213 0.51717 0.14547 0.09700
H 	H 	0.95313 0.52927 0.24427 0.00100
C 	C 	0.95713 0.50877 0.88487 0.10900
H 	H 	0.92813 0.51537 0.80337 -0.00000
C 	C 	0.21170 0.36120 0.47880 -0.03300
H 	H 	0.24280 0.38020 0.57760 0.03500
C 	C 	0.21830 0.37620 0.21820 -0.03100
H 	H 	0.25390 0.40520 0.13670 0.03100
C 	C 	0.87837 0.69453 0.81213 -0.03200
H 	H 	0.90947 0.71353 0.91093 0.04600
C 	C 	0.88497 0.70953 0.55153 -0.03000
H 	H 	0.92057 0.73853 0.47003 0.04300
C 	C 	0.54503 0.02787 0.14547 -0.13600
H 	H 	0.57613 0.04687 0.24427 0.05400
C 	C 	0.55163 0.04287 0.88487 -0.11800
H 	H 	0.58723 0.07187 0.80337 0.05600
C 	C 	0.21170 0.85050 0.47880 -0.02900
H 	H 	0.24280 0.86260 0.57760 0.04000
C 	C 	0.21830 0.84210 0.21820 -0.02700
H 	H 	0.25390 0.84870 0.13670 0.03400
C 	C 	0.87837 0.18383 0.81213 -0.03100
H 	H 	0.90947 0.19593 0.91093 0.04600
C 	C 	0.88497 0.17543 0.55153 -0.02900
H 	H 	0.92057 0.18203 0.47003 0.04300
C 	C 	0.54503 0.51717 0.14547 -0.01200
H 	H 	0.57613 0.52927 0.24427 0.02600
C 	C 	0.55163 0.50877 0.88487 0.00200
H 	H 	0.58723 0.51537 0.80337 0.02600
C 	C 	0.14950 0.36120 0.47880 -0.03700
H 	H 	0.13740 0.38020 0.57760 0.03200
C 	C 	0.15790 0.37620 0.21820 -0.03500
H 	H 	0.15130 0.40520 0.13670 0.02900
C 	C 	0.81617 0.69453 0.81213 -0.03400
H 	H 	0.80407 0.71353 0.91093 0.03900
C 	C 	0.82457 0.70953 0.55153 -0.03200
H 	H 	0.81797 0.73853 0.47003 0.03400
C 	C 	0.48283 0.02787 0.14547 -0.13700
H 	H 	0.47073 0.04687 0.24427 0.05400
C 	C 	0.49123 0.04287 0.88487 -0.11900
H 	H 	0.48463 0.07187 0.80337 0.05600
C 	C 	0.63880 0.78830 0.47880 -0.03400
H 	H 	0.61980 0.75720 0.57760 0.03600
C 	C 	0.62380 0.78170 0.21820 -0.03200
H 	H 	0.59480 0.74610 0.13670 0.03200
C 	C 	0.30547 0.12163 0.81213 -0.03500
H 	H 	0.28647 0.09053 0.91093 0.02900
C 	C 	0.29047 0.11503 0.55153 -0.03200
H 	H 	0.26147 0.07943 0.47003 0.02200
C 	C 	0.97213 0.45497 0.14547 0.09800
H 	H 	0.95313 0.42387 0.24427 0.00100
C 	C 	0.95713 0.44837 0.88487 0.11100
H 	H 	0.92813 0.41277 0.80337 -0.00000
C 	C 	0.85050 0.21170 0.52120 -0.02900
H 	H 	0.86260 0.24280 0.42240 0.03600
C 	C 	0.84210 0.21830 0.78180 -0.02600
H 	H 	0.84870 0.25390 0.86330 0.04000
C 	C 	0.51717 0.54503 0.85453 -0.05500
H 	H 	0.52927 0.57613 0.75573 0.04200
C 	C 	0.50877 0.55163 0.11513 -0.06400
H 	H 	0.51537 0.58723 0.19663 0.04300
C 	C 	0.18383 0.87837 0.18787 -0.03100
H 	H 	0.19593 0.90947 0.08907 0.03900
C 	C 	0.17543 0.88497 0.44847 -0.02900
H 	H 	0.18203 0.92057 0.52997 0.04700
C 	C 	0.36120 0.14950 0.52120 -0.03700
H 	H 	0.38020 0.13740 0.42240 0.02700
C 	C 	0.37620 0.15790 0.78180 -0.03500
H 	H 	0.40520 0.15130 0.86330 0.03500
C 	C 	0.02787 0.48283 0.85453 -0.16400
H 	H 	0.04687 0.47073 0.75573 0.06700
C 	C 	0.04287 0.49123 0.11513 -0.17300
H 	H 	0.07187 0.48463 0.19663 0.06900
C 	C 	0.69453 0.81617 0.18787 -0.03400
H 	H 	0.71353 0.80407 0.08907 0.03000
C 	C 	0.70953 0.82457 0.44847 -0.03200
H 	H 	0.73853 0.81797 0.52997 0.03600
C 	C 	0.78830 0.63880 0.52120 -0.03300
H 	H 	0.75720 0.61980 0.42240 0.03300
C 	C 	0.78170 0.62380 0.78180 -0.03100
H 	H 	0.74610 0.59480 0.86330 0.03800
C 	C 	0.45497 0.97213 0.85453 0.06900
H 	H 	0.42387 0.95313 0.75573 0.01400
C 	C 	0.44837 0.95713 0.11513 0.06100
H 	H 	0.41277 0.92813 0.19663 0.01200
C 	C 	0.12163 0.30547 0.18787 -0.03500
H 	H 	0.09053 0.28647 0.08907 0.02100
C 	C 	0.11503 0.29047 0.44847 -0.03200
H 	H 	0.07943 0.26147 0.52997 0.02600
Fe	Fe	0.66667 0.33333 0.33333 1.11500
Fe	Fe	0.33333 0.66667 0.66667 1.11800
Fe	Fe	-0.00000 0.00000 -0.00000 1.05300
Fe	Fe	0.66667 0.33333 0.83333 1.16400
Fe	Fe	0.33333 0.66667 0.16667 1.16200
Fe	Fe	-0.00000 0.00000 0.50000 1.10700
N 	N 	0.74307 0.25693 0.45740 -0.16300
N 	N 	0.71004 0.28996 0.50490 -0.17000
N 	N 	0.70802 0.29198 0.68460 -0.18400
N 	N 	0.73923 0.26077 0.75730 -0.16300
C 	C 	0.79802 0.20198 0.63840 -0.01600
C 	C 	0.76072 0.23928 0.61400 0.12100
N 	N 	0.40974 0.59026 0.79073 -0.16100
N 	N 	0.37671 0.62329 0.83823 -0.16300
N 	N 	0.37469 0.62531 0.01793 -0.19200
N 	N 	0.40590 0.59410 0.09063 -0.16800
C 	C 	0.46469 0.53531 0.97173 0.03700
C 	C 	0.42739 0.57261 0.94733 0.12000
N 	N 	0.07640 0.92360 0.12407 -0.16300
N 	N 	0.04338 0.95662 0.17157 -0.16300
N 	N 	0.04135 0.95865 0.35127 -0.17400
N 	N 	0.07257 0.92743 0.42397 -0.16300
C 	C 	0.13135 0.86865 0.30507 -0.01600
C 	C 	0.09405 0.90595 0.28067 0.12000
N 	N 	0.74307 0.48614 0.45740 -0.16300
N 	N 	0.71004 0.42009 0.50490 -0.17000
N 	N 	0.70802 0.41604 0.68460 -0.18400
N 	N 	0.73923 0.47847 0.75730 -0.16300
C 	C 	0.79802 0.59604 0.63840 -0.01700
C 	C 	0.76072 0.52144 0.61400 0.12300
N 	N 	0.40974 0.81947 0.79073 -0.17400
N 	N 	0.37671 0.75342 0.83823 -0.16200
N 	N 	0.37469 0.74937 0.01793 -0.19200
N 	N 	0.40590 0.81180 0.09063 -0.18100
C 	C 	0.46469 0.92937 0.97173 -0.13200
C 	C 	0.42739 0.85477 0.94733 0.17800
N 	N 	0.07640 0.15281 0.12407 -0.16400
N 	N 	0.04338 0.08676 0.17157 -0.18800
N 	N 	0.04135 0.08271 0.35127 -0.20000
N 	N 	0.07257 0.14514 0.42397 -0.16400
C 	C 	0.13135 0.26271 0.30507 -0.01700
C 	C 	0.09405 0.18811 0.28067 0.11100
N 	N 	0.51386 0.25693 0.45740 -0.16200
N 	N 	0.57991 0.28996 0.50490 -0.17100
N 	N 	0.58396 0.29198 0.68460 -0.18500
N 	N 	0.52153 0.26077 0.75730 -0.16300
C 	C 	0.40396 0.20198 0.63840 -0.01400
C 	C 	0.47856 0.23928 0.61400 0.11900
N 	N 	0.18053 0.59026 0.79073 -0.15000
N 	N 	0.24658 0.62329 0.83823 -0.16300
N 	N 	0.25063 0.62531 0.01793 -0.19200
N 	N 	0.18820 0.59410 0.09063 -0.15700
C 	C 	0.07063 0.53531 0.97173 0.18300
C 	C 	0.14523 0.57261 0.94733 0.07000
N 	N 	0.84719 0.92360 0.12407 -0.16200
N 	N 	0.91324 0.95662 0.17157 -0.14500
N 	N 	0.91729 0.95865 0.35127 -0.15600
N 	N 	0.85486 0.92743 0.42397 -0.16200
C 	C 	0.73729 0.86865 0.30507 -0.01500
C 	C 	0.81189 0.90595 0.28067 0.12700
N 	N 	0.25693 0.74307 0.54260 -0.16300
N 	N 	0.28996 0.71004 0.49510 -0.17000
N 	N 	0.29198 0.70802 0.31540 -0.18500
N 	N 	0.26077 0.73923 0.24270 -0.16200
C 	C 	0.20198 0.79802 0.36160 -0.01600
C 	C 	0.23928 0.76072 0.38600 0.12000
N 	N 	0.92360 0.07640 0.87593 -0.16300
N 	N 	0.95662 0.04338 0.82843 -0.15700
N 	N 	0.95865 0.04135 0.64873 -0.17600
N 	N 	0.92743 0.07257 0.57603 -0.16200
C 	C 	0.86865 0.13135 0.69493 -0.01500
C 	C 	0.90595 0.09405 0.71933 0.12300
N 	N 	0.59026 0.40974 0.20927 -0.16500
N 	N 	0.62329 0.37671 0.16177 -0.17800
N 	N 	0.62531 0.37469 0.98207 -0.17700
N 	N 	0.59410 0.40590 0.90937 -0.15600
C 	C 	0.53531 0.46469 0.02827 -0.06800
C 	C 	0.57261 0.42739 0.05267 0.11900
N 	N 	0.48614 0.74307 0.54260 -0.16300
N 	N 	0.42009 0.71004 0.49510 -0.16900
N 	N 	0.41604 0.70802 0.31540 -0.18500
N 	N 	0.47847 0.73923 0.24270 -0.16200
C 	C 	0.59604 0.79802 0.36160 -0.01600
C 	C 	0.52144 0.76072 0.38600 0.12200
N 	N 	0.15281 0.07640 0.87593 -0.16400
N 	N 	0.08676 0.04338 0.82843 -0.17900
N 	N 	0.08271 0.04135 0.64873 -0.19900
N 	N 	0.14514 0.07257 0.57603 -0.16400
C 	C 	0.26271 0.13135 0.69493 -0.01700
C 	C 	0.18811 0.09405 0.71933 0.11400
N 	N 	0.81947 0.40974 0.20927 -0.17600
N 	N 	0.75342 0.37671 0.16177 -0.17700
N 	N 	0.74937 0.37469 0.98207 -0.17700
N 	N 	0.81180 0.40590 0.90937 -0.16800
C 	C 	0.92937 0.46469 0.02827 -0.21400
C 	C 	0.85477 0.42739 0.05267 0.17000
N 	N 	0.25693 0.51386 0.54260 -0.16300
N 	N 	0.28996 0.57991 0.49510 -0.17000
N 	N 	0.29198 0.58396 0.31540 -0.18500
N 	N 	0.26077 0.52153 0.24270 -0.16200
C 	C 	0.20198 0.40396 0.36160 -0.01400
C 	C 	0.23928 0.47856 0.38600 0.11800
N 	N 	0.92360 0.84719 0.87593 -0.16200
N 	N 	0.95662 0.91324 0.82843 -0.13700
N 	N 	0.95865 0.91729 0.64873 -0.15500
N 	N 	0.92743 0.85486 0.57603 -0.16200
C 	C 	0.86865 0.73729 0.69493 -0.01400
C 	C 	0.90595 0.81189 0.71933 0.13000
N 	N 	0.59026 0.18053 0.20927 -0.15200
N 	N 	0.62329 0.24658 0.16177 -0.17900
N 	N 	0.62531 0.25063 0.98207 -0.17700
N 	N 	0.59410 0.18820 0.90937 -0.14400
C 	C 	0.53531 0.07063 0.02827 0.09800
C 	C 	0.57261 0.14523 0.05267 0.06200
H 	H 	0.08515 0.17030 0.01230 0.07800
H 	H 	0.07805 0.15610 0.54130 0.08900
H 	H 	0.75182 0.50363 0.34563 0.09000
H 	H 	0.74472 0.48943 0.87463 0.09900
H 	H 	0.41848 0.83697 0.67897 0.09900
H 	H 	0.41138 0.82277 0.20797 0.10100
H 	H 	0.82970 0.91485 0.01230 0.09500
H 	H 	0.84390 0.92195 0.54130 0.10700
H 	H 	0.49637 0.24818 0.34563 0.08800
H 	H 	0.51057 0.25528 0.87463 0.09900
H 	H 	0.16303 0.58152 0.67897 0.08500
H 	H 	0.17723 0.58862 0.20797 0.08900
H 	H 	0.08515 0.91485 0.01230 0.08800
H 	H 	0.07805 0.92195 0.54130 0.10000
H 	H 	0.75182 0.24818 0.34563 0.08900
H 	H 	0.74472 0.25528 0.87463 0.09900
H 	H 	0.41848 0.58152 0.67897 0.09100
H 	H 	0.41138 0.58862 0.20797 0.09500
H 	H 	0.17030 0.08515 0.98770 0.09200
H 	H 	0.15610 0.07805 0.45870 0.08500
H 	H 	0.83697 0.41848 0.32103 0.09900
H 	H 	0.82277 0.41138 0.79203 0.10200
H 	H 	0.50363 0.75182 0.65437 0.09500
H 	H 	0.48943 0.74472 0.12537 0.09200
H 	H 	0.91485 0.82970 0.98770 0.10800
H 	H 	0.92195 0.84390 0.45870 0.10400
H 	H 	0.58152 0.16303 0.32103 0.08500
H 	H 	0.58862 0.17723 0.79203 0.08900
H 	H 	0.24818 0.49637 0.65437 0.09400
H 	H 	0.25528 0.51057 0.12537 0.09100
H 	H 	0.91485 0.08515 0.98770 0.10100
H 	H 	0.92195 0.07805 0.45870 0.09500
H 	H 	0.58152 0.41848 0.32103 0.09300
H 	H 	0.58862 0.41138 0.79203 0.09600
H 	H 	0.24818 0.75182 0.65437 0.09400
H 	H 	0.25528 0.74472 0.12537 0.09200
