data_crystal

_cell_length_a 22.64760
_cell_length_b 22.64760
_cell_length_c 7.44710
_cell_angle_alpha 90.00000
_cell_angle_beta  90.00000
_cell_angle_gamma 120.00000

_symmetry_space_group_name_	'P 1'
_symmetry_space_group_name_H-M	'P 1'

loop_
_symmetry_equiv_pos_as_xyz
  x,y,z

loop_
_atom_site_label
_atom_site_type_symbol
_atom_site_fract_x
_atom_site_fract_y
_atom_site_fract_z
_atom_site_charge
C 	C 	0.78790 0.14910 0.52520 -0.03500
H 	H 	0.75670 0.13690 0.42640 0.02800
C 	C 	0.78290 0.15760 0.78330 -0.03200
H 	H 	0.74730 0.15110 0.86480 0.03400
C 	C 	0.45457 0.48243 0.85853 -0.05200
H 	H 	0.42337 0.47023 0.75973 0.04100
C 	C 	0.44957 0.49093 0.11663 -0.06100
H 	H 	0.41397 0.48443 0.19813 0.04100
C 	C 	0.12123 0.81577 0.19187 -0.03500
H 	H 	0.09003 0.80357 0.09307 0.02200
C 	C 	0.11623 0.82427 0.44997 -0.03100
H 	H 	0.08063 0.81777 0.53147 0.02700
C 	C 	0.85090 0.63880 0.52520 -0.02900
H 	H 	0.86310 0.61980 0.42640 0.03600
C 	C 	0.84240 0.62530 0.78330 -0.02600
H 	H 	0.84890 0.59620 0.86480 0.03900
C 	C 	0.51757 0.97213 0.85853 0.06800
H 	H 	0.52977 0.95313 0.75973 0.01400
C 	C 	0.50907 0.95863 0.11663 0.05900
H 	H 	0.51557 0.92953 0.19813 0.01300
C 	C 	0.18423 0.30547 0.19187 -0.03200
H 	H 	0.19643 0.28647 0.09307 0.02800
C 	C 	0.17573 0.29197 0.44997 -0.02900
H 	H 	0.18223 0.26287 0.53147 0.03400
C 	C 	0.36120 0.21210 0.52520 -0.03200
H 	H 	0.38020 0.24330 0.42640 0.03100
C 	C 	0.37470 0.21710 0.78330 -0.02900
H 	H 	0.40380 0.25270 0.86480 0.03700
C 	C 	0.02787 0.54543 0.85853 -0.15900
H 	H 	0.04687 0.57663 0.75973 0.06400
C 	C 	0.04137 0.55043 0.11663 -0.16500
H 	H 	0.07047 0.58603 0.19813 0.06600
C 	C 	0.69453 0.87877 0.19187 -0.03100
H 	H 	0.71353 0.90997 0.09307 0.03800
C 	C 	0.70803 0.88377 0.44997 -0.02800
H 	H 	0.73713 0.91937 0.53147 0.04500
C 	C 	0.14910 0.78790 0.47480 -0.03600
H 	H 	0.13690 0.75670 0.57360 0.03100
C 	C 	0.15760 0.78290 0.21670 -0.03400
H 	H 	0.15110 0.74730 0.13520 0.02800
C 	C 	0.81577 0.12123 0.80813 -0.03500
H 	H 	0.80357 0.09003 0.90693 0.03000
C 	C 	0.82427 0.11623 0.55003 -0.03100
H 	H 	0.81777 0.08063 0.46853 0.02300
C 	C 	0.48243 0.45457 0.14147 -0.01300
H 	H 	0.47023 0.42337 0.24027 0.02600
C 	C 	0.49093 0.44957 0.88337 0.00200
H 	H 	0.48443 0.41397 0.80187 0.02600
C 	C 	0.63880 0.85090 0.47480 -0.02900
H 	H 	0.61980 0.86310 0.57360 0.03900
C 	C 	0.62530 0.84240 0.21670 -0.02700
H 	H 	0.59620 0.84890 0.13520 0.03300
C 	C 	0.30547 0.18423 0.80813 -0.03100
H 	H 	0.28647 0.19643 0.90693 0.03700
C 	C 	0.29197 0.17573 0.55003 -0.02900
H 	H 	0.26287 0.18223 0.46853 0.03200
C 	C 	0.97213 0.51757 0.14147 0.09500
H 	H 	0.95313 0.52977 0.24027 0.00200
C 	C 	0.95863 0.50907 0.88337 0.10500
H 	H 	0.92953 0.51557 0.80187 0.00200
C 	C 	0.21210 0.36120 0.47480 -0.03200
H 	H 	0.24330 0.38020 0.57360 0.03500
C 	C 	0.21710 0.37470 0.21670 -0.03000
H 	H 	0.25270 0.40380 0.13520 0.03000
C 	C 	0.87877 0.69453 0.80813 -0.03100
H 	H 	0.90997 0.71353 0.90693 0.04500
C 	C 	0.88377 0.70803 0.55003 -0.02900
H 	H 	0.91937 0.73713 0.46853 0.04100
C 	C 	0.54543 0.02787 0.14147 -0.13500
H 	H 	0.57663 0.04687 0.24027 0.05300
C 	C 	0.55043 0.04137 0.88337 -0.11500
H 	H 	0.58603 0.07047 0.80187 0.05400
C 	C 	0.21210 0.85090 0.47480 -0.02800
H 	H 	0.24330 0.86310 0.57360 0.03900
C 	C 	0.21710 0.84240 0.21670 -0.02600
H 	H 	0.25270 0.84890 0.13520 0.03300
C 	C 	0.87877 0.18423 0.80813 -0.03000
H 	H 	0.90997 0.19643 0.90693 0.04500
C 	C 	0.88377 0.17573 0.55003 -0.02800
H 	H 	0.91937 0.18223 0.46853 0.04200
C 	C 	0.54543 0.51757 0.14147 -0.01300
H 	H 	0.57663 0.52977 0.24027 0.02600
C 	C 	0.55043 0.50907 0.88337 0.00200
H 	H 	0.58603 0.51557 0.80187 0.02600
C 	C 	0.14910 0.36120 0.47480 -0.03600
H 	H 	0.13690 0.38020 0.57360 0.03100
C 	C 	0.15760 0.37470 0.21670 -0.03300
H 	H 	0.15110 0.40380 0.13520 0.02800
C 	C 	0.81577 0.69453 0.80813 -0.03300
H 	H 	0.80357 0.71353 0.90693 0.03800
C 	C 	0.82427 0.70803 0.55003 -0.03000
H 	H 	0.81777 0.73713 0.46853 0.03300
C 	C 	0.48243 0.02787 0.14147 -0.13600
H 	H 	0.47023 0.04687 0.24027 0.05300
C 	C 	0.49093 0.04137 0.88337 -0.11600
H 	H 	0.48443 0.07047 0.80187 0.05400
C 	C 	0.63880 0.78790 0.47480 -0.03300
H 	H 	0.61980 0.75670 0.57360 0.03500
C 	C 	0.62530 0.78290 0.21670 -0.03100
H 	H 	0.59620 0.74730 0.13520 0.03100
C 	C 	0.30547 0.12123 0.80813 -0.03400
H 	H 	0.28647 0.09003 0.90693 0.02900
C 	C 	0.29197 0.11623 0.55003 -0.03100
H 	H 	0.26287 0.08063 0.46853 0.02100
C 	C 	0.97213 0.45457 0.14147 0.09600
H 	H 	0.95313 0.42337 0.24027 0.00200
C 	C 	0.95863 0.44957 0.88337 0.10700
H 	H 	0.92953 0.41397 0.80187 0.00100
C 	C 	0.85090 0.21210 0.52520 -0.02800
H 	H 	0.86310 0.24330 0.42640 0.03500
C 	C 	0.84240 0.21710 0.78330 -0.02600
H 	H 	0.84890 0.25270 0.86480 0.03900
C 	C 	0.51757 0.54543 0.85853 -0.05200
H 	H 	0.52977 0.57663 0.75973 0.04100
C 	C 	0.50907 0.55043 0.11663 -0.06100
H 	H 	0.51557 0.58603 0.19813 0.04100
C 	C 	0.18423 0.87877 0.19187 -0.03000
H 	H 	0.19643 0.90997 0.09307 0.03800
C 	C 	0.17573 0.88377 0.44997 -0.02800
H 	H 	0.18223 0.91937 0.53147 0.04500
C 	C 	0.36120 0.14910 0.52520 -0.03600
H 	H 	0.38020 0.13690 0.42640 0.02700
C 	C 	0.37470 0.15760 0.78330 -0.03300
H 	H 	0.40380 0.15110 0.86480 0.03400
C 	C 	0.02787 0.48243 0.85853 -0.16000
H 	H 	0.04687 0.47023 0.75973 0.06400
C 	C 	0.04137 0.49093 0.11663 -0.16700
H 	H 	0.07047 0.48443 0.19813 0.06600
C 	C 	0.69453 0.81577 0.19187 -0.03400
H 	H 	0.71353 0.80357 0.09307 0.03000
C 	C 	0.70803 0.82427 0.44997 -0.03000
H 	H 	0.73713 0.81777 0.53147 0.03600
C 	C 	0.78790 0.63880 0.52520 -0.03300
H 	H 	0.75670 0.61980 0.42640 0.03200
C 	C 	0.78290 0.62530 0.78330 -0.03000
H 	H 	0.74730 0.59620 0.86480 0.03700
C 	C 	0.45457 0.97213 0.85853 0.06900
H 	H 	0.42337 0.95313 0.75973 0.01400
C 	C 	0.44957 0.95863 0.11663 0.06100
H 	H 	0.41397 0.92953 0.19813 0.01200
C 	C 	0.12123 0.30547 0.19187 -0.03400
H 	H 	0.09003 0.28647 0.09307 0.02100
C 	C 	0.11623 0.29197 0.44997 -0.03000
H 	H 	0.08063 0.26287 0.53147 0.02500
Fe	Fe	0.66667 0.33333 0.33333 1.10100
Fe	Fe	0.33333 0.66667 0.66667 1.10400
Fe	Fe	-0.00000 0.00000 -0.00000 1.04100
Fe	Fe	0.66667 0.33333 0.83333 1.16000
Fe	Fe	0.33333 0.66667 0.16667 1.15800
Fe	Fe	-0.00000 -0.00000 0.50000 1.10500
N 	N 	0.74337 0.25663 0.46280 -0.16100
N 	N 	0.71067 0.28933 0.50950 -0.16600
N 	N 	0.70817 0.29183 0.68650 -0.18400
N 	N 	0.73922 0.26078 0.75970 -0.16200
C 	C 	0.79807 0.20193 0.64140 -0.01700
C 	C 	0.76057 0.23943 0.61840 0.12200
N 	N 	0.41004 0.58996 0.79613 -0.16000
N 	N 	0.37734 0.62266 0.84283 -0.15800
N 	N 	0.37484 0.62516 0.01983 -0.19200
N 	N 	0.40589 0.59411 0.09303 -0.16700
C 	C 	0.46474 0.53526 0.97473 0.03100
C 	C 	0.42724 0.57276 0.95173 0.12300
N 	N 	0.07670 0.92330 0.12947 -0.16200
N 	N 	0.04400 0.95600 0.17617 -0.15900
N 	N 	0.04150 0.95850 0.35317 -0.17400
N 	N 	0.07255 0.92745 0.42637 -0.16100
C 	C 	0.13140 0.86860 0.30807 -0.01700
C 	C 	0.09390 0.90610 0.28507 0.12100
N 	N 	0.74337 0.48674 0.46280 -0.16100
N 	N 	0.71067 0.42134 0.50950 -0.16500
N 	N 	0.70817 0.41634 0.68650 -0.18400
N 	N 	0.73922 0.47844 0.75970 -0.16200
C 	C 	0.79807 0.59614 0.64140 -0.01800
C 	C 	0.76057 0.52114 0.61840 0.12300
N 	N 	0.41004 0.82007 0.79613 -0.17200
N 	N 	0.37734 0.75467 0.84283 -0.15800
N 	N 	0.37484 0.74967 0.01983 -0.19100
N 	N 	0.40589 0.81177 0.09303 -0.17900
C 	C 	0.46474 0.92947 0.97473 -0.12900
C 	C 	0.42724 0.85447 0.95173 0.17600
N 	N 	0.07670 0.15341 0.12947 -0.16300
N 	N 	0.04400 0.08801 0.17617 -0.18300
N 	N 	0.04150 0.08301 0.35317 -0.19900
N 	N 	0.07255 0.14511 0.42637 -0.16200
C 	C 	0.13140 0.26281 0.30807 -0.01900
C 	C 	0.09390 0.18781 0.28507 0.11200
N 	N 	0.51326 0.25663 0.46280 -0.16100
N 	N 	0.57866 0.28933 0.50950 -0.16600
N 	N 	0.58366 0.29183 0.68650 -0.18400
N 	N 	0.52156 0.26078 0.75970 -0.16200
C 	C 	0.40386 0.20193 0.64140 -0.01600
C 	C 	0.47886 0.23943 0.61840 0.12000
N 	N 	0.17993 0.58996 0.79613 -0.15000
N 	N 	0.24533 0.62266 0.84283 -0.15900
N 	N 	0.25033 0.62516 0.01983 -0.19200
N 	N 	0.18823 0.59411 0.09303 -0.15700
C 	C 	0.07053 0.53526 0.97473 0.17100
C 	C 	0.14553 0.57276 0.95173 0.07500
N 	N 	0.84659 0.92330 0.12947 -0.16100
N 	N 	0.91199 0.95600 0.17617 -0.14200
N 	N 	0.91699 0.95850 0.35317 -0.15600
N 	N 	0.85489 0.92745 0.42637 -0.16000
C 	C 	0.73719 0.86860 0.30807 -0.01600
C 	C 	0.81219 0.90610 0.28507 0.12700
N 	N 	0.25663 0.74337 0.53720 -0.16200
N 	N 	0.28933 0.71067 0.49050 -0.16500
N 	N 	0.29183 0.70817 0.31350 -0.18500
N 	N 	0.26078 0.73922 0.24030 -0.16100
C 	C 	0.20193 0.79807 0.35860 -0.01700
C 	C 	0.23943 0.76057 0.38160 0.12100
N 	N 	0.92330 0.07670 0.87053 -0.16100
N 	N 	0.95600 0.04400 0.82383 -0.15300
N 	N 	0.95850 0.04150 0.64683 -0.17600
N 	N 	0.92745 0.07255 0.57363 -0.16100
C 	C 	0.86860 0.13140 0.69193 -0.01700
C 	C 	0.90610 0.09390 0.71493 0.12300
N 	N 	0.58996 0.41004 0.20387 -0.16300
N 	N 	0.62266 0.37734 0.15717 -0.17300
N 	N 	0.62516 0.37484 0.98017 -0.17600
N 	N 	0.59411 0.40589 0.90697 -0.15500
C 	C 	0.53526 0.46474 0.02527 -0.06600
C 	C 	0.57276 0.42724 0.04827 0.11800
N 	N 	0.48674 0.74337 0.53720 -0.16200
N 	N 	0.42134 0.71067 0.49050 -0.16500
N 	N 	0.41634 0.70817 0.31350 -0.18400
N 	N 	0.47844 0.73922 0.24030 -0.16100
C 	C 	0.59614 0.79807 0.35860 -0.01800
C 	C 	0.52114 0.76057 0.38160 0.12200
N 	N 	0.15341 0.07670 0.87053 -0.16300
N 	N 	0.08801 0.04400 0.82383 -0.17400
N 	N 	0.08301 0.04150 0.64683 -0.19800
N 	N 	0.14511 0.07255 0.57363 -0.16200
C 	C 	0.26281 0.13140 0.69193 -0.01800
C 	C 	0.18781 0.09390 0.71493 0.11500
N 	N 	0.82007 0.41004 0.20387 -0.17400
N 	N 	0.75467 0.37734 0.15717 -0.17300
N 	N 	0.74967 0.37484 0.98017 -0.17600
N 	N 	0.81177 0.40589 0.90697 -0.16500
C 	C 	0.92947 0.46474 0.02527 -0.20500
C 	C 	0.85447 0.42724 0.04827 0.16600
N 	N 	0.25663 0.51326 0.53720 -0.16200
N 	N 	0.28933 0.57866 0.49050 -0.16600
N 	N 	0.29183 0.58366 0.31350 -0.18500
N 	N 	0.26078 0.52156 0.24030 -0.16100
C 	C 	0.20193 0.40386 0.35860 -0.01600
C 	C 	0.23943 0.47886 0.38160 0.11900
N 	N 	0.92330 0.84659 0.87053 -0.16000
N 	N 	0.95600 0.91199 0.82383 -0.13400
N 	N 	0.95850 0.91699 0.64683 -0.15500
N 	N 	0.92745 0.85489 0.57363 -0.16000
C 	C 	0.86860 0.73719 0.69193 -0.01500
C 	C 	0.90610 0.81219 0.71493 0.13000
N 	N 	0.58996 0.17993 0.20387 -0.15100
N 	N 	0.62266 0.24533 0.15717 -0.17400
N 	N 	0.62516 0.25033 0.98017 -0.17600
N 	N 	0.59411 0.18823 0.90697 -0.14300
C 	C 	0.53526 0.07053 0.02527 0.09100
C 	C 	0.57276 0.14553 0.04827 0.06400
H 	H 	0.08545 0.17090 0.01770 0.07500
H 	H 	0.07800 0.15600 0.54370 0.08700
H 	H 	0.75212 0.50423 0.35103 0.08700
H 	H 	0.74467 0.48933 0.87703 0.09700
H 	H 	0.41878 0.83757 0.68437 0.09600
H 	H 	0.41133 0.82267 0.21037 0.09900
H 	H 	0.82910 0.91455 0.01770 0.09200
H 	H 	0.84400 0.92200 0.54370 0.10500
H 	H 	0.49577 0.24788 0.35103 0.08500
H 	H 	0.51067 0.25533 0.87703 0.09700
H 	H 	0.16243 0.58122 0.68437 0.08200
H 	H 	0.17733 0.58867 0.21037 0.08700
H 	H 	0.08545 0.91455 0.01770 0.08500
H 	H 	0.07800 0.92200 0.54370 0.09800
H 	H 	0.75212 0.24788 0.35103 0.08600
H 	H 	0.74467 0.25533 0.87703 0.09700
H 	H 	0.41878 0.58122 0.68437 0.08800
H 	H 	0.41133 0.58867 0.21037 0.09300
H 	H 	0.17090 0.08545 0.98230 0.08900
H 	H 	0.15600 0.07800 0.45630 0.08400
H 	H 	0.83757 0.41878 0.31563 0.09600
H 	H 	0.82267 0.41133 0.78963 0.09900
H 	H 	0.50423 0.75212 0.64897 0.09200
H 	H 	0.48933 0.74467 0.12297 0.09000
H 	H 	0.91455 0.82910 0.98230 0.10400
H 	H 	0.92200 0.84400 0.45630 0.10200
H 	H 	0.58122 0.16243 0.31563 0.08200
H 	H 	0.58867 0.17733 0.78963 0.08800
H 	H 	0.24788 0.49577 0.64897 0.09000
H 	H 	0.25533 0.51067 0.12297 0.08900
H 	H 	0.91455 0.08545 0.98230 0.09700
H 	H 	0.92200 0.07800 0.45630 0.09300
H 	H 	0.58122 0.41878 0.31563 0.08900
H 	H 	0.58867 0.41133 0.78963 0.09400
H 	H 	0.24788 0.75212 0.64897 0.09100
H 	H 	0.25533 0.74467 0.12297 0.09000
