data_crystal

_cell_length_a 22.64970
_cell_length_b 22.64970
_cell_length_c 7.45100
_cell_angle_alpha 90.00000
_cell_angle_beta  90.00000
_cell_angle_gamma 120.00000

_symmetry_space_group_name_	'P 1'
_symmetry_space_group_name_H-M	'P 1'

loop_
_symmetry_equiv_pos_as_xyz
  x,y,z

loop_
_atom_site_label
_atom_site_type_symbol
_atom_site_fract_x
_atom_site_fract_y
_atom_site_fract_z
_atom_site_charge
C 	C 	0.78930 0.15090 0.52130 -0.03500
H 	H 	0.75810 0.13870 0.42250 0.02800
C 	C 	0.78330 0.15820 0.78040 -0.03300
H 	H 	0.74770 0.15170 0.86190 0.03600
C 	C 	0.45597 0.48423 0.85463 -0.05200
H 	H 	0.42477 0.47203 0.75583 0.04200
C 	C 	0.44997 0.49153 0.11373 -0.06100
H 	H 	0.41437 0.48503 0.19523 0.04300
C 	C 	0.12263 0.81757 0.18797 -0.03400
H 	H 	0.09143 0.80537 0.08917 0.02300
C 	C 	0.11663 0.82487 0.44707 -0.03100
H 	H 	0.08103 0.81837 0.52857 0.02800
C 	C 	0.84910 0.63840 0.52130 -0.02900
H 	H 	0.86130 0.61940 0.42250 0.03500
C 	C 	0.84180 0.62510 0.78040 -0.02600
H 	H 	0.84830 0.59600 0.86190 0.03900
C 	C 	0.51577 0.97173 0.85463 0.05900
H 	H 	0.52797 0.95273 0.75583 0.01700
C 	C 	0.50847 0.95843 0.11373 0.05500
H 	H 	0.51497 0.92933 0.19523 0.01400
C 	C 	0.18243 0.30507 0.18797 -0.03200
H 	H 	0.19463 0.28607 0.08917 0.02800
C 	C 	0.17513 0.29177 0.44707 -0.02900
H 	H 	0.18163 0.26267 0.52857 0.03400
C 	C 	0.36160 0.21070 0.52130 -0.03200
H 	H 	0.38060 0.24190 0.42250 0.03100
C 	C 	0.37490 0.21670 0.78040 -0.02800
H 	H 	0.40400 0.25230 0.86190 0.03700
C 	C 	0.02827 0.54403 0.85463 -0.15200
H 	H 	0.04727 0.57523 0.75583 0.06200
C 	C 	0.04157 0.55003 0.11373 -0.16400
H 	H 	0.07067 0.58563 0.19523 0.06500
C 	C 	0.69493 0.87737 0.18797 -0.03100
H 	H 	0.71393 0.90857 0.08917 0.03800
C 	C 	0.70823 0.88337 0.44707 -0.02800
H 	H 	0.73733 0.91897 0.52857 0.04500
C 	C 	0.15090 0.78930 0.47870 -0.03600
H 	H 	0.13870 0.75810 0.57750 0.03100
C 	C 	0.15820 0.78330 0.21960 -0.03400
H 	H 	0.15170 0.74770 0.13810 0.02900
C 	C 	0.81757 0.12263 0.81203 -0.03500
H 	H 	0.80537 0.09143 0.91083 0.02900
C 	C 	0.82487 0.11663 0.55293 -0.03200
H 	H 	0.81837 0.08103 0.47143 0.02300
C 	C 	0.48423 0.45597 0.14537 -0.01200
H 	H 	0.47203 0.42477 0.24417 0.02500
C 	C 	0.49153 0.44997 0.88627 0.00400
H 	H 	0.48503 0.41437 0.80477 0.02600
C 	C 	0.63840 0.84910 0.47870 -0.02900
H 	H 	0.61940 0.86130 0.57750 0.03900
C 	C 	0.62510 0.84180 0.21960 -0.02600
H 	H 	0.59600 0.84830 0.13810 0.03400
C 	C 	0.30507 0.18243 0.81203 -0.03100
H 	H 	0.28607 0.19463 0.91083 0.03700
C 	C 	0.29177 0.17513 0.55293 -0.02900
H 	H 	0.26267 0.18163 0.47143 0.03200
C 	C 	0.97173 0.51577 0.14537 0.08800
H 	H 	0.95273 0.52797 0.24417 0.00400
C 	C 	0.95843 0.50847 0.88627 0.10500
H 	H 	0.92933 0.51497 0.80477 0.00300
C 	C 	0.21070 0.36160 0.47870 -0.03200
H 	H 	0.24190 0.38060 0.57750 0.03400
C 	C 	0.21670 0.37490 0.21960 -0.02900
H 	H 	0.25230 0.40400 0.13810 0.03000
C 	C 	0.87737 0.69493 0.81203 -0.03100
H 	H 	0.90857 0.71393 0.91083 0.04500
C 	C 	0.88337 0.70823 0.55293 -0.02800
H 	H 	0.91897 0.73733 0.47143 0.04200
C 	C 	0.54403 0.02827 0.14537 -0.12600
H 	H 	0.57523 0.04727 0.24417 0.05000
C 	C 	0.55003 0.04157 0.88627 -0.11000
H 	H 	0.58563 0.07067 0.80477 0.05200
C 	C 	0.21070 0.84910 0.47870 -0.02800
H 	H 	0.24190 0.86130 0.57750 0.03900
C 	C 	0.21670 0.84180 0.21960 -0.02500
H 	H 	0.25230 0.84830 0.13810 0.03400
C 	C 	0.87737 0.18243 0.81203 -0.03000
H 	H 	0.90857 0.19463 0.91083 0.04500
C 	C 	0.88337 0.17513 0.55293 -0.02700
H 	H 	0.91897 0.18163 0.47143 0.04200
C 	C 	0.54403 0.51577 0.14537 -0.01200
H 	H 	0.57523 0.52797 0.24417 0.02500
C 	C 	0.55003 0.50847 0.88627 0.00300
H 	H 	0.58563 0.51497 0.80477 0.02600
C 	C 	0.15090 0.36160 0.47870 -0.03600
H 	H 	0.13870 0.38060 0.57750 0.03100
C 	C 	0.15820 0.37490 0.21960 -0.03300
H 	H 	0.15170 0.40400 0.13810 0.02800
C 	C 	0.81757 0.69493 0.81203 -0.03300
H 	H 	0.80537 0.71393 0.91083 0.03800
C 	C 	0.82487 0.70823 0.55293 -0.03000
H 	H 	0.81837 0.73733 0.47143 0.03300
C 	C 	0.48423 0.02827 0.14537 -0.12700
H 	H 	0.47203 0.04727 0.24417 0.05000
C 	C 	0.49153 0.04157 0.88627 -0.11100
H 	H 	0.48503 0.07067 0.80477 0.05300
C 	C 	0.63840 0.78930 0.47870 -0.03300
H 	H 	0.61940 0.75810 0.57750 0.03500
C 	C 	0.62510 0.78330 0.21960 -0.03100
H 	H 	0.59600 0.74770 0.13810 0.03100
C 	C 	0.30507 0.12263 0.81203 -0.03400
H 	H 	0.28607 0.09143 0.91083 0.02800
C 	C 	0.29177 0.11663 0.55293 -0.03100
H 	H 	0.26267 0.08103 0.47143 0.02200
C 	C 	0.97173 0.45597 0.14537 0.08900
H 	H 	0.95273 0.42477 0.24417 0.00400
C 	C 	0.95843 0.44997 0.88627 0.10600
H 	H 	0.92933 0.41437 0.80477 0.00200
C 	C 	0.84910 0.21070 0.52130 -0.02800
H 	H 	0.86130 0.24190 0.42250 0.03500
C 	C 	0.84180 0.21670 0.78040 -0.02500
H 	H 	0.84830 0.25230 0.86190 0.03900
C 	C 	0.51577 0.54403 0.85463 -0.05300
H 	H 	0.52797 0.57523 0.75583 0.04100
C 	C 	0.50847 0.55003 0.11373 -0.06200
H 	H 	0.51497 0.58563 0.19523 0.04200
C 	C 	0.18243 0.87737 0.18797 -0.03000
H 	H 	0.19463 0.90857 0.08917 0.03800
C 	C 	0.17513 0.88337 0.44707 -0.02700
H 	H 	0.18163 0.91897 0.52857 0.04500
C 	C 	0.36160 0.15090 0.52130 -0.03600
H 	H 	0.38060 0.13870 0.42250 0.02700
C 	C 	0.37490 0.15820 0.78040 -0.03300
H 	H 	0.40400 0.15170 0.86190 0.03400
C 	C 	0.02827 0.48423 0.85463 -0.15300
H 	H 	0.04727 0.47203 0.75583 0.06200
C 	C 	0.04157 0.49153 0.11373 -0.16500
H 	H 	0.07067 0.48503 0.19523 0.06600
C 	C 	0.69493 0.81757 0.18797 -0.03300
H 	H 	0.71393 0.80537 0.08917 0.03000
C 	C 	0.70823 0.82487 0.44707 -0.03000
H 	H 	0.73733 0.81837 0.52857 0.03600
C 	C 	0.78930 0.63840 0.52130 -0.03300
H 	H 	0.75810 0.61940 0.42250 0.03200
C 	C 	0.78330 0.62510 0.78040 -0.03000
H 	H 	0.74770 0.59600 0.86190 0.03700
C 	C 	0.45597 0.97173 0.85463 0.06000
H 	H 	0.42477 0.95273 0.75583 0.01700
C 	C 	0.44997 0.95843 0.11373 0.05700
H 	H 	0.41437 0.92933 0.19523 0.01400
C 	C 	0.12263 0.30507 0.18797 -0.03400
H 	H 	0.09143 0.28607 0.08917 0.02100
C 	C 	0.11663 0.29177 0.44707 -0.03100
H 	H 	0.08103 0.26267 0.52857 0.02600
Fe	Fe	0.66667 0.33333 0.33333 1.10000
Fe	Fe	0.33333 0.66667 0.66667 1.10200
Fe	Fe	-0.00000 0.00000 -0.00000 1.03900
Fe	Fe	0.66667 0.33333 0.83333 1.16200
Fe	Fe	0.33333 0.66667 0.16667 1.16000
Fe	Fe	-0.00000 0.00000 0.50000 1.10700
N 	N 	0.74372 0.25628 0.46350 -0.16100
N 	N 	0.71097 0.28903 0.50900 -0.16500
N 	N 	0.70802 0.29198 0.68680 -0.18600
N 	N 	0.73927 0.26073 0.76300 -0.16000
C 	C 	0.79800 0.20200 0.64240 -0.01700
C 	C 	0.76095 0.23905 0.61850 0.11900
N 	N 	0.41039 0.58961 0.79683 -0.15900
N 	N 	0.37764 0.62236 0.84233 -0.15700
N 	N 	0.37469 0.62531 0.02013 -0.19300
N 	N 	0.40594 0.59406 0.09633 -0.16500
C 	C 	0.46467 0.53533 0.97573 0.03400
C 	C 	0.42762 0.57238 0.95183 0.11800
N 	N 	0.07705 0.92295 0.13017 -0.16100
N 	N 	0.04430 0.95570 0.17567 -0.15800
N 	N 	0.04135 0.95865 0.35347 -0.17600
N 	N 	0.07260 0.92740 0.42967 -0.15900
C 	C 	0.13133 0.86867 0.30907 -0.01700
C 	C 	0.09428 0.90572 0.28517 0.11800
N 	N 	0.74372 0.48744 0.46350 -0.16100
N 	N 	0.71097 0.42194 0.50900 -0.16400
N 	N 	0.70802 0.41604 0.68680 -0.18600
N 	N 	0.73927 0.47854 0.76300 -0.16000
C 	C 	0.79800 0.59600 0.64240 -0.01800
C 	C 	0.76095 0.52190 0.61850 0.12000
N 	N 	0.41039 0.82077 0.79683 -0.17100
N 	N 	0.37764 0.75527 0.84233 -0.15700
N 	N 	0.37469 0.74937 0.02013 -0.19300
N 	N 	0.40594 0.81187 0.09633 -0.17600
C 	C 	0.46467 0.92933 0.97573 -0.12200
C 	C 	0.42762 0.85523 0.95183 0.17100
N 	N 	0.07705 0.15411 0.13017 -0.16200
N 	N 	0.04430 0.08861 0.17567 -0.18200
N 	N 	0.04135 0.08271 0.35347 -0.20100
N 	N 	0.07260 0.14521 0.42967 -0.16100
C 	C 	0.13133 0.26267 0.30907 -0.01800
C 	C 	0.09428 0.18857 0.28517 0.10800
N 	N 	0.51256 0.25628 0.46350 -0.16100
N 	N 	0.57806 0.28903 0.50900 -0.16500
N 	N 	0.58396 0.29198 0.68680 -0.18600
N 	N 	0.52146 0.26073 0.76300 -0.16000
C 	C 	0.40400 0.20200 0.64240 -0.01600
C 	C 	0.47810 0.23905 0.61850 0.11700
N 	N 	0.17923 0.58961 0.79683 -0.14800
N 	N 	0.24473 0.62236 0.84233 -0.15800
N 	N 	0.25063 0.62531 0.02013 -0.19400
N 	N 	0.18813 0.59406 0.09633 -0.15500
C 	C 	0.07067 0.53533 0.97573 0.17200
C 	C 	0.14477 0.57238 0.95183 0.07000
N 	N 	0.84589 0.92295 0.13017 -0.16000
N 	N 	0.91139 0.95570 0.17567 -0.14100
N 	N 	0.91729 0.95865 0.35347 -0.15700
N 	N 	0.85479 0.92740 0.42967 -0.15800
C 	C 	0.73733 0.86867 0.30907 -0.01600
C 	C 	0.81143 0.90572 0.28517 0.12400
N 	N 	0.25628 0.74372 0.53650 -0.16100
N 	N 	0.28903 0.71097 0.49100 -0.16400
N 	N 	0.29198 0.70802 0.31320 -0.18700
N 	N 	0.26073 0.73927 0.23700 -0.15900
C 	C 	0.20200 0.79800 0.35760 -0.01700
C 	C 	0.23905 0.76095 0.38150 0.11800
N 	N 	0.92295 0.07705 0.86983 -0.16100
N 	N 	0.95570 0.04430 0.82433 -0.15200
N 	N 	0.95865 0.04135 0.64653 -0.17800
N 	N 	0.92740 0.07260 0.57033 -0.15900
C 	C 	0.86867 0.13133 0.69093 -0.01600
C 	C 	0.90572 0.09428 0.71483 0.12000
N 	N 	0.58961 0.41039 0.20317 -0.16300
N 	N 	0.62236 0.37764 0.15767 -0.17200
N 	N 	0.62531 0.37469 0.97987 -0.17900
N 	N 	0.59406 0.40594 0.90367 -0.15400
C 	C 	0.53533 0.46467 0.02427 -0.06800
C 	C 	0.57238 0.42762 0.04817 0.11700
N 	N 	0.48744 0.74372 0.53650 -0.16100
N 	N 	0.42194 0.71097 0.49100 -0.16400
N 	N 	0.41604 0.70802 0.31320 -0.18600
N 	N 	0.47854 0.73927 0.23700 -0.15900
C 	C 	0.59600 0.79800 0.35760 -0.01800
C 	C 	0.52190 0.76095 0.38150 0.11900
N 	N 	0.15411 0.07705 0.86983 -0.16200
N 	N 	0.08861 0.04430 0.82433 -0.17300
N 	N 	0.08271 0.04135 0.64653 -0.20000
N 	N 	0.14521 0.07260 0.57033 -0.16100
C 	C 	0.26267 0.13133 0.69093 -0.01800
C 	C 	0.18857 0.09428 0.71483 0.11200
N 	N 	0.82077 0.41039 0.20317 -0.17400
N 	N 	0.75527 0.37764 0.15767 -0.17200
N 	N 	0.74937 0.37469 0.97987 -0.17900
N 	N 	0.81187 0.40594 0.90367 -0.16400
C 	C 	0.92933 0.46467 0.02427 -0.20500
C 	C 	0.85523 0.42762 0.04817 0.16500
N 	N 	0.25628 0.51256 0.53650 -0.16100
N 	N 	0.28903 0.57806 0.49100 -0.16500
N 	N 	0.29198 0.58396 0.31320 -0.18700
N 	N 	0.26073 0.52146 0.23700 -0.15900
C 	C 	0.20200 0.40400 0.35760 -0.01600
C 	C 	0.23905 0.47810 0.38150 0.11600
N 	N 	0.92295 0.84589 0.86983 -0.16000
N 	N 	0.95570 0.91139 0.82433 -0.13300
N 	N 	0.95865 0.91729 0.64653 -0.15700
N 	N 	0.92740 0.85479 0.57033 -0.15800
C 	C 	0.86867 0.73733 0.69093 -0.01500
C 	C 	0.90572 0.81143 0.71483 0.12700
N 	N 	0.58961 0.17923 0.20317 -0.15100
N 	N 	0.62236 0.24473 0.15767 -0.17300
N 	N 	0.62531 0.25063 0.97987 -0.17900
N 	N 	0.59406 0.18813 0.90367 -0.14200
C 	C 	0.53533 0.07067 0.02427 0.08600
C 	C 	0.57238 0.14477 0.04817 0.06400
H 	H 	0.08575 0.17150 0.01840 0.07500
H 	H 	0.07810 0.15620 0.54710 0.08700
H 	H 	0.75242 0.50483 0.35173 0.08700
H 	H 	0.74477 0.48953 0.88043 0.09700
H 	H 	0.41908 0.83817 0.68507 0.09500
H 	H 	0.41143 0.82287 0.21377 0.09900
H 	H 	0.82850 0.91425 0.01840 0.09200
H 	H 	0.84380 0.92190 0.54710 0.10500
H 	H 	0.49517 0.24758 0.35173 0.08600
H 	H 	0.51047 0.25523 0.88043 0.09700
H 	H 	0.16183 0.58092 0.68507 0.08200
H 	H 	0.17713 0.58857 0.21377 0.08700
H 	H 	0.08575 0.91425 0.01840 0.08600
H 	H 	0.07810 0.92190 0.54710 0.09800
H 	H 	0.75242 0.24758 0.35173 0.08600
H 	H 	0.74477 0.25523 0.88043 0.09700
H 	H 	0.41908 0.58092 0.68507 0.08800
H 	H 	0.41143 0.58857 0.21377 0.09300
H 	H 	0.17150 0.08575 0.98160 0.08900
H 	H 	0.15620 0.07810 0.45290 0.08300
H 	H 	0.83817 0.41908 0.31493 0.09600
H 	H 	0.82287 0.41143 0.78623 0.09900
H 	H 	0.50483 0.75242 0.64827 0.09200
H 	H 	0.48953 0.74477 0.11957 0.09000
H 	H 	0.91425 0.82850 0.98160 0.10400
H 	H 	0.92190 0.84380 0.45290 0.10100
H 	H 	0.58092 0.16183 0.31493 0.08200
H 	H 	0.58857 0.17713 0.78623 0.08800
H 	H 	0.24758 0.49517 0.64827 0.09000
H 	H 	0.25523 0.51047 0.11957 0.08900
H 	H 	0.91425 0.08575 0.98160 0.09700
H 	H 	0.92190 0.07810 0.45290 0.09300
H 	H 	0.58092 0.41908 0.31493 0.09000
H 	H 	0.58857 0.41143 0.78623 0.09400
H 	H 	0.24758 0.75242 0.64827 0.09100
H 	H 	0.25523 0.74477 0.11957 0.09000
