data_crystal

_cell_length_a 22.67990
_cell_length_b 22.67990
_cell_length_c 7.49720
_cell_angle_alpha 90.00000
_cell_angle_beta  90.00000
_cell_angle_gamma 120.00000

_symmetry_space_group_name_	'P 1'
_symmetry_space_group_name_H-M	'P 1'

loop_
_symmetry_equiv_pos_as_xyz
  x,y,z

loop_
_atom_site_label
_atom_site_type_symbol
_atom_site_fract_x
_atom_site_fract_y
_atom_site_fract_z
_atom_site_charge
C 	C 	0.79010 0.15220 0.52230 -0.03400
H 	H 	0.75900 0.14010 0.42350 0.02800
C 	C 	0.78460 0.15970 0.78490 -0.03300
H 	H 	0.74900 0.15320 0.86640 0.03500
C 	C 	0.45677 0.48553 0.85563 -0.04800
H 	H 	0.42567 0.47343 0.75683 0.03900
C 	C 	0.45127 0.49303 0.11823 -0.05800
H 	H 	0.41567 0.48653 0.19973 0.04000
C 	C 	0.12343 0.81887 0.18897 -0.03400
H 	H 	0.09233 0.80677 0.09017 0.02200
C 	C 	0.11793 0.82637 0.45157 -0.03200
H 	H 	0.08233 0.81987 0.53307 0.02700
C 	C 	0.84780 0.63790 0.52230 -0.02800
H 	H 	0.85990 0.61890 0.42350 0.03500
C 	C 	0.84030 0.62490 0.78490 -0.02600
H 	H 	0.84680 0.59580 0.86640 0.03900
C 	C 	0.51447 0.97123 0.85563 0.05400
H 	H 	0.52657 0.95223 0.75683 0.01900
C 	C 	0.50697 0.95823 0.11823 0.04500
H 	H 	0.51347 0.92913 0.19973 0.01700
C 	C 	0.18113 0.30457 0.18897 -0.03000
H 	H 	0.19323 0.28557 0.09017 0.02800
C 	C 	0.17363 0.29157 0.45157 -0.02900
H 	H 	0.18013 0.26247 0.53307 0.03400
C 	C 	0.36210 0.20990 0.52230 -0.03000
H 	H 	0.38110 0.24100 0.42350 0.03000
C 	C 	0.37510 0.21540 0.78490 -0.02800
H 	H 	0.40420 0.25100 0.86640 0.03600
C 	C 	0.02877 0.54323 0.85563 -0.14100
H 	H 	0.04777 0.57433 0.75683 0.05800
C 	C 	0.04177 0.54873 0.11823 -0.14900
H 	H 	0.07087 0.58433 0.19973 0.06000
C 	C 	0.69543 0.87657 0.18897 -0.02900
H 	H 	0.71443 0.90767 0.09017 0.03700
C 	C 	0.70843 0.88207 0.45157 -0.02800
H 	H 	0.73753 0.91767 0.53307 0.04500
C 	C 	0.15220 0.79010 0.47770 -0.03500
H 	H 	0.14010 0.75900 0.57650 0.03100
C 	C 	0.15970 0.78460 0.21510 -0.03500
H 	H 	0.15320 0.74900 0.13360 0.02800
C 	C 	0.81887 0.12343 0.81103 -0.03400
H 	H 	0.80677 0.09233 0.90983 0.02900
C 	C 	0.82637 0.11793 0.54843 -0.03200
H 	H 	0.81987 0.08233 0.46693 0.02300
C 	C 	0.48553 0.45677 0.14437 -0.01400
H 	H 	0.47343 0.42567 0.24317 0.02600
C 	C 	0.49303 0.45127 0.88177 -0.00100
H 	H 	0.48653 0.41567 0.80027 0.02700
C 	C 	0.63790 0.84780 0.47770 -0.02800
H 	H 	0.61890 0.85990 0.57650 0.03900
C 	C 	0.62490 0.84030 0.21510 -0.02600
H 	H 	0.59580 0.84680 0.13360 0.03300
C 	C 	0.30457 0.18113 0.81103 -0.03000
H 	H 	0.28557 0.19323 0.90983 0.03600
C 	C 	0.29157 0.17363 0.54843 -0.02900
H 	H 	0.26247 0.18013 0.46693 0.03100
C 	C 	0.97123 0.51447 0.14437 0.07900
H 	H 	0.95223 0.52657 0.24317 0.00800
C 	C 	0.95823 0.50697 0.88177 0.08900
H 	H 	0.92913 0.51347 0.80027 0.00700
C 	C 	0.20990 0.36210 0.47770 -0.03100
H 	H 	0.24100 0.38110 0.57650 0.03400
C 	C 	0.21540 0.37510 0.21510 -0.02900
H 	H 	0.25100 0.40420 0.13360 0.03000
C 	C 	0.87657 0.69543 0.81103 -0.02900
H 	H 	0.90767 0.71443 0.90983 0.04500
C 	C 	0.88207 0.70843 0.54843 -0.02900
H 	H 	0.91767 0.73753 0.46693 0.04100
C 	C 	0.54323 0.02877 0.14437 -0.11700
H 	H 	0.57433 0.04777 0.24317 0.04700
C 	C 	0.54873 0.04177 0.88177 -0.10100
H 	H 	0.58433 0.07087 0.80027 0.04900
C 	C 	0.20990 0.84780 0.47770 -0.02700
H 	H 	0.24100 0.85990 0.57650 0.03800
C 	C 	0.21540 0.84030 0.21510 -0.02500
H 	H 	0.25100 0.84680 0.13360 0.03300
C 	C 	0.87657 0.18113 0.81103 -0.02800
H 	H 	0.90767 0.19323 0.90983 0.04500
C 	C 	0.88207 0.17363 0.54843 -0.02800
H 	H 	0.91767 0.18013 0.46693 0.04100
C 	C 	0.54323 0.51447 0.14437 -0.01400
H 	H 	0.57433 0.52657 0.24317 0.02600
C 	C 	0.54873 0.50697 0.88177 -0.00100
H 	H 	0.58433 0.51347 0.80027 0.02700
C 	C 	0.15220 0.36210 0.47770 -0.03500
H 	H 	0.14010 0.38110 0.57650 0.03100
C 	C 	0.15970 0.37510 0.21510 -0.03400
H 	H 	0.15320 0.40420 0.13360 0.02800
C 	C 	0.81887 0.69543 0.81103 -0.03200
H 	H 	0.80677 0.71443 0.90983 0.03800
C 	C 	0.82637 0.70843 0.54843 -0.03100
H 	H 	0.81987 0.73753 0.46693 0.03300
C 	C 	0.48553 0.02877 0.14437 -0.11900
H 	H 	0.47343 0.04777 0.24317 0.04700
C 	C 	0.49303 0.04177 0.88177 -0.10300
H 	H 	0.48653 0.07087 0.80027 0.04900
C 	C 	0.63790 0.79010 0.47770 -0.03200
H 	H 	0.61890 0.75900 0.57650 0.03500
C 	C 	0.62490 0.78460 0.21510 -0.03100
H 	H 	0.59580 0.74900 0.13360 0.03100
C 	C 	0.30457 0.12343 0.81103 -0.03300
H 	H 	0.28557 0.09233 0.90983 0.02800
C 	C 	0.29157 0.11793 0.54843 -0.03100
H 	H 	0.26247 0.08233 0.46693 0.02100
C 	C 	0.97123 0.45677 0.14437 0.08000
H 	H 	0.95223 0.42567 0.24317 0.00800
C 	C 	0.95823 0.45127 0.88177 0.09100
H 	H 	0.92913 0.41567 0.80027 0.00700
C 	C 	0.84780 0.20990 0.52230 -0.02700
H 	H 	0.85990 0.24100 0.42350 0.03400
C 	C 	0.84030 0.21540 0.78490 -0.02500
H 	H 	0.84680 0.25100 0.86640 0.03900
C 	C 	0.51447 0.54323 0.85563 -0.04900
H 	H 	0.52657 0.57433 0.75683 0.03900
C 	C 	0.50697 0.54873 0.11823 -0.05800
H 	H 	0.51347 0.58433 0.19973 0.04000
C 	C 	0.18113 0.87657 0.18897 -0.02800
H 	H 	0.19323 0.90767 0.09017 0.03700
C 	C 	0.17363 0.88207 0.45157 -0.02700
H 	H 	0.18013 0.91767 0.53307 0.04500
C 	C 	0.36210 0.15220 0.52230 -0.03500
H 	H 	0.38110 0.14010 0.42350 0.02600
C 	C 	0.37510 0.15970 0.78490 -0.03300
H 	H 	0.40420 0.15320 0.86640 0.03400
C 	C 	0.02877 0.48553 0.85563 -0.14200
H 	H 	0.04777 0.47343 0.75683 0.05800
C 	C 	0.04177 0.49303 0.11823 -0.15100
H 	H 	0.07087 0.48653 0.19973 0.06000
C 	C 	0.69543 0.81887 0.18897 -0.03200
H 	H 	0.71443 0.80677 0.09017 0.02900
C 	C 	0.70843 0.82637 0.45157 -0.03100
H 	H 	0.73753 0.81987 0.53307 0.03600
C 	C 	0.79010 0.63790 0.52230 -0.03200
H 	H 	0.75900 0.61890 0.42350 0.03100
C 	C 	0.78460 0.62490 0.78490 -0.03000
H 	H 	0.74900 0.59580 0.86640 0.03700
C 	C 	0.45677 0.97123 0.85563 0.05500
H 	H 	0.42567 0.95223 0.75683 0.01900
C 	C 	0.45127 0.95823 0.11823 0.04700
H 	H 	0.41567 0.92913 0.19973 0.01700
C 	C 	0.12343 0.30457 0.18897 -0.03300
H 	H 	0.09233 0.28557 0.09017 0.02000
C 	C 	0.11793 0.29157 0.45157 -0.03100
H 	H 	0.08233 0.26247 0.53307 0.02500
Fe	Fe	0.66667 0.33333 0.33333 1.09700
Fe	Fe	0.33333 0.66667 0.66667 1.10000
Fe	Fe	-0.00000 0.00000 -0.00000 1.03500
Fe	Fe	0.66667 0.33333 0.83333 1.15800
Fe	Fe	0.33333 0.66667 0.16667 1.15600
Fe	Fe	-0.00000 0.00000 0.50000 1.10200
N 	N 	0.74359 0.25641 0.46350 -0.15900
N 	N 	0.71094 0.28906 0.51050 -0.16500
N 	N 	0.70828 0.29172 0.68720 -0.18400
N 	N 	0.73931 0.26069 0.76000 -0.15900
C 	C 	0.79812 0.20188 0.64170 -0.01700
C 	C 	0.76087 0.23913 0.62060 0.11800
N 	N 	0.41026 0.58974 0.79683 -0.15800
N 	N 	0.37761 0.62239 0.84383 -0.15700
N 	N 	0.37494 0.62506 0.02053 -0.19100
N 	N 	0.40597 0.59403 0.09333 -0.16500
C 	C 	0.46479 0.53521 0.97503 0.02900
C 	C 	0.42754 0.57246 0.95393 0.12000
N 	N 	0.07692 0.92308 0.13017 -0.15900
N 	N 	0.04427 0.95573 0.17717 -0.15800
N 	N 	0.04161 0.95839 0.35387 -0.17400
N 	N 	0.07264 0.92736 0.42667 -0.15900
C 	C 	0.13145 0.86855 0.30837 -0.01700
C 	C 	0.09420 0.90580 0.28727 0.11700
N 	N 	0.74359 0.48718 0.46350 -0.15900
N 	N 	0.71094 0.42188 0.51050 -0.16400
N 	N 	0.70828 0.41655 0.68720 -0.18300
N 	N 	0.73931 0.47861 0.76000 -0.15900
C 	C 	0.79812 0.59624 0.64170 -0.01700
C 	C 	0.76087 0.52174 0.62060 0.12000
N 	N 	0.41026 0.82051 0.79683 -0.16800
N 	N 	0.37761 0.75521 0.84383 -0.15700
N 	N 	0.37494 0.74988 0.02053 -0.19100
N 	N 	0.40597 0.81194 0.09333 -0.17500
C 	C 	0.46479 0.92957 0.97503 -0.11000
C 	C 	0.42754 0.85507 0.95393 0.16700
N 	N 	0.07692 0.15385 0.13017 -0.16100
N 	N 	0.04427 0.08855 0.17717 -0.18200
N 	N 	0.04161 0.08322 0.35387 -0.19900
N 	N 	0.07264 0.14528 0.42667 -0.16000
C 	C 	0.13145 0.26291 0.30837 -0.01900
C 	C 	0.09420 0.18841 0.28727 0.10800
N 	N 	0.51282 0.25641 0.46350 -0.15900
N 	N 	0.57812 0.28906 0.51050 -0.16500
N 	N 	0.58345 0.29172 0.68720 -0.18400
N 	N 	0.52139 0.26069 0.76000 -0.15900
C 	C 	0.40376 0.20188 0.64170 -0.01600
C 	C 	0.47826 0.23913 0.62060 0.11600
N 	N 	0.17949 0.58974 0.79683 -0.14900
N 	N 	0.24479 0.62239 0.84383 -0.15700
N 	N 	0.25012 0.62506 0.02053 -0.19200
N 	N 	0.18806 0.59403 0.09333 -0.15600
C 	C 	0.07043 0.53521 0.97503 0.15200
C 	C 	0.14493 0.57246 0.95393 0.07800
N 	N 	0.84615 0.92308 0.13017 -0.15800
N 	N 	0.91145 0.95573 0.17717 -0.14000
N 	N 	0.91678 0.95839 0.35387 -0.15500
N 	N 	0.85472 0.92736 0.42667 -0.15800
C 	C 	0.73709 0.86855 0.30837 -0.01600
C 	C 	0.81159 0.90580 0.28727 0.12400
N 	N 	0.25641 0.74359 0.53650 -0.15900
N 	N 	0.28906 0.71094 0.48950 -0.16400
N 	N 	0.29172 0.70828 0.31280 -0.18400
N 	N 	0.26069 0.73931 0.24000 -0.15800
C 	C 	0.20188 0.79812 0.35830 -0.01700
C 	C 	0.23913 0.76087 0.37940 0.11700
N 	N 	0.92308 0.07692 0.86983 -0.15800
N 	N 	0.95573 0.04427 0.82283 -0.15200
N 	N 	0.95839 0.04161 0.64613 -0.17600
N 	N 	0.92736 0.07264 0.57333 -0.15900
C 	C 	0.86855 0.13145 0.69163 -0.01600
C 	C 	0.90580 0.09420 0.71273 0.12000
N 	N 	0.58974 0.41026 0.20317 -0.16000
N 	N 	0.62239 0.37761 0.15617 -0.17200
N 	N 	0.62506 0.37494 0.97947 -0.17600
N 	N 	0.59403 0.40597 0.90667 -0.15200
C 	C 	0.53521 0.46479 0.02497 -0.06300
C 	C 	0.57246 0.42754 0.04607 0.11400
N 	N 	0.48718 0.74359 0.53650 -0.15900
N 	N 	0.42188 0.71094 0.48950 -0.16400
N 	N 	0.41655 0.70828 0.31280 -0.18400
N 	N 	0.47861 0.73931 0.24000 -0.15800
C 	C 	0.59624 0.79812 0.35830 -0.01700
C 	C 	0.52174 0.76087 0.37940 0.11900
N 	N 	0.15385 0.07692 0.86983 -0.16000
N 	N 	0.08855 0.04427 0.82283 -0.17300
N 	N 	0.08322 0.04161 0.64613 -0.19800
N 	N 	0.14528 0.07264 0.57333 -0.16000
C 	C 	0.26291 0.13145 0.69163 -0.01800
C 	C 	0.18841 0.09420 0.71273 0.11100
N 	N 	0.82051 0.41026 0.20317 -0.16900
N 	N 	0.75521 0.37761 0.15617 -0.17200
N 	N 	0.74988 0.37494 0.97947 -0.17600
N 	N 	0.81194 0.40597 0.90667 -0.16100
C 	C 	0.92957 0.46479 0.02497 -0.18500
C 	C 	0.85507 0.42754 0.04607 0.15600
N 	N 	0.25641 0.51282 0.53650 -0.15900
N 	N 	0.28906 0.57812 0.48950 -0.16400
N 	N 	0.29172 0.58345 0.31280 -0.18500
N 	N 	0.26069 0.52139 0.24000 -0.15800
C 	C 	0.20188 0.40376 0.35830 -0.01600
C 	C 	0.23913 0.47826 0.37940 0.11500
N 	N 	0.92308 0.84615 0.86983 -0.15700
N 	N 	0.95573 0.91145 0.82283 -0.13200
N 	N 	0.95839 0.91678 0.64613 -0.15400
N 	N 	0.92736 0.85472 0.57333 -0.15800
C 	C 	0.86855 0.73709 0.69163 -0.01500
C 	C 	0.90580 0.81159 0.71273 0.12700
N 	N 	0.58974 0.17949 0.20317 -0.15000
N 	N 	0.62239 0.24479 0.15617 -0.17300
N 	N 	0.62506 0.25012 0.97947 -0.17600
N 	N 	0.59403 0.18806 0.90667 -0.14200
C 	C 	0.53521 0.07043 0.02497 0.07400
C 	C 	0.57246 0.14493 0.04607 0.06600
H 	H 	0.08565 0.17130 0.01840 0.07300
H 	H 	0.07815 0.15630 0.54400 0.08500
H 	H 	0.75232 0.50463 0.35173 0.08500
H 	H 	0.74482 0.48963 0.87733 0.09600
H 	H 	0.41898 0.83797 0.68507 0.09300
H 	H 	0.41148 0.82297 0.21067 0.09700
H 	H 	0.82870 0.91435 0.01840 0.09000
H 	H 	0.84370 0.92185 0.54400 0.10300
H 	H 	0.49537 0.24768 0.35173 0.08400
H 	H 	0.51037 0.25518 0.87733 0.09500
H 	H 	0.16203 0.58102 0.68507 0.08100
H 	H 	0.17703 0.58852 0.21067 0.08600
H 	H 	0.08565 0.91435 0.01840 0.08400
H 	H 	0.07815 0.92185 0.54400 0.09600
H 	H 	0.75232 0.24768 0.35173 0.08400
H 	H 	0.74482 0.25518 0.87733 0.09500
H 	H 	0.41898 0.58102 0.68507 0.08700
H 	H 	0.41148 0.58852 0.21067 0.09100
H 	H 	0.17130 0.08565 0.98160 0.08700
H 	H 	0.15630 0.07815 0.45600 0.08200
H 	H 	0.83797 0.41898 0.31493 0.09300
H 	H 	0.82297 0.41148 0.78933 0.09700
H 	H 	0.50463 0.75232 0.64827 0.09000
H 	H 	0.48963 0.74482 0.12267 0.08900
H 	H 	0.91435 0.82870 0.98160 0.10300
H 	H 	0.92185 0.84370 0.45600 0.10000
H 	H 	0.58102 0.16203 0.31493 0.08100
H 	H 	0.58852 0.17703 0.78933 0.08600
H 	H 	0.24768 0.49537 0.64827 0.08800
H 	H 	0.25518 0.51037 0.12267 0.08800
H 	H 	0.91435 0.08565 0.98160 0.09600
H 	H 	0.92185 0.07815 0.45600 0.09200
H 	H 	0.58102 0.41898 0.31493 0.08700
H 	H 	0.58852 0.41148 0.78933 0.09200
H 	H 	0.24768 0.75232 0.64827 0.08900
H 	H 	0.25518 0.74482 0.12267 0.08800
