data_crystal

_cell_length_a 10.23450
_cell_length_b 10.23450
_cell_length_c 7.07990
_cell_angle_alpha 90.00000
_cell_angle_beta  90.00000
_cell_angle_gamma 120.00000

_symmetry_space_group_name_	'P 1'
_symmetry_space_group_name_H-M	'P 1'

loop_
_symmetry_equiv_pos_as_xyz
  x,y,z

loop_
_atom_site_label
_atom_site_type_symbol
_atom_site_fract_x
_atom_site_fract_y
_atom_site_fract_z
_atom_site_charge
Zn	Zn	0.66667 0.33333 0.25000 1.12100
Zn	Zn	0.33333 0.66667 0.75000 1.13000
Na	Na	-0.00000 0.00000 -0.00000 0.55100
Na	Na	0.00000 0.00000 0.50000 0.56100
N 	N 	0.44250 0.22125 0.25000 -0.41600
O 	O 	0.17900 0.08950 0.25000 -0.54300
C 	C 	0.31630 0.15815 0.25000 0.00200
N 	N 	0.77875 0.22125 0.25000 -0.39900
O 	O 	0.91050 0.08950 0.25000 -0.40500
C 	C 	0.84185 0.15815 0.25000 0.02300
N 	N 	0.77875 0.55750 0.25000 -0.38700
O 	O 	0.91050 0.82100 0.25000 -0.30300
C 	C 	0.84185 0.68370 0.25000 0.03800
N 	N 	0.55750 0.77875 0.75000 -0.37300
O 	O 	0.82100 0.91050 0.75000 -0.25800
C 	C 	0.68370 0.84185 0.75000 0.05200
N 	N 	0.22125 0.77875 0.75000 -0.38800
O 	O 	0.08950 0.91050 0.75000 -0.38100
C 	C 	0.15815 0.84185 0.75000 0.03300
N 	N 	0.22125 0.44250 0.75000 -0.40200
O 	O 	0.08950 0.17900 0.75000 -0.49300
C 	C 	0.15815 0.31630 0.75000 0.01700
O 	O 	0.18270 0.15180 0.25000 0.07700
C 	C 	0.31750 0.19050 0.25000 0.03800
O 	O 	0.84820 0.03090 0.25000 -0.04000
C 	C 	0.80950 0.12700 0.25000 0.16800
O 	O 	0.96910 0.81730 0.25000 0.04400
C 	C 	0.87300 0.68250 0.25000 0.02700
O 	O 	0.81730 0.84820 0.75000 -0.03000
C 	C 	0.68250 0.80950 0.75000 0.11900
O 	O 	0.15180 0.96910 0.75000 0.08400
C 	C 	0.19050 0.87300 0.75000 -0.00900
O 	O 	0.03090 0.18270 0.75000 0.00100
C 	C 	0.12700 0.31750 0.75000 0.13100
O 	O 	0.15180 0.18270 0.75000 0.07200
C 	C 	0.19050 0.31750 0.75000 0.03200
O 	O 	0.03090 0.84820 0.75000 -0.04600
C 	C 	0.12700 0.80950 0.75000 0.17000
O 	O 	0.81730 0.96910 0.75000 0.02700
C 	C 	0.68250 0.87300 0.75000 0.03900
O 	O 	0.84820 0.81730 0.25000 -0.02700
C 	C 	0.80950 0.68250 0.25000 0.12600
O 	O 	0.96910 0.15180 0.25000 0.09200
C 	C 	0.87300 0.19050 0.25000 -0.01300
O 	O 	0.18270 0.03090 0.25000 0.01800
C 	C 	0.31750 0.12700 0.25000 0.12000
