data_crystal

_cell_length_a 16.40250
_cell_length_b 16.40250
_cell_length_c 25.47010
_cell_angle_alpha 90.00000
_cell_angle_beta  90.00000
_cell_angle_gamma 120.00000

_symmetry_space_group_name_	'P 1'
_symmetry_space_group_name_H-M	'P 1'

loop_
_symmetry_equiv_pos_as_xyz
  x,y,z

loop_
_atom_site_label
_atom_site_type_symbol
_atom_site_fract_x
_atom_site_fract_y
_atom_site_fract_z
_atom_site_charge
Zn	Zn	0.57628 0.28814 0.83333 1.20800
Zn	Zn	0.71186 0.42372 0.16667 1.20800
Zn	Zn	0.71186 0.28814 0.50000 1.20800
Zn	Zn	0.42372 0.71186 0.83333 1.20800
Zn	Zn	0.28814 0.57628 0.16667 1.20900
Zn	Zn	0.28814 0.71186 0.50000 1.20900
H 	H 	0.35940 0.41430 0.79920 0.12200
H 	H 	0.28790 0.45960 0.86250 0.15800
H 	H 	0.45760 0.35850 0.77950 -0.02500
H 	H 	0.50340 0.33160 0.92640 -0.00400
H 	H 	0.40330 0.38640 0.95360 0.14200
H 	H 	0.17690 0.46980 0.86250 0.02900
H 	H 	0.17700 0.46300 0.01660 0.02600
H 	H 	0.77320 0.17250 0.92320 0.02300
H 	H 	0.05490 0.64060 0.13253 0.12200
H 	H 	0.17170 0.71210 0.19583 0.15800
H 	H 	0.90090 0.54240 0.11283 -0.02500
H 	H 	0.82820 0.49660 0.25973 -0.00400
H 	H 	0.98310 0.59670 0.28693 0.14100
H 	H 	0.29290 0.82310 0.19583 0.03000
H 	H 	0.28600 0.82300 0.34993 0.03000
H 	H 	0.39930 0.22680 0.25653 0.02400
H 	H 	0.58570 0.94510 0.46587 0.12200
H 	H 	0.54040 0.82830 0.52917 0.15800
H 	H 	0.64150 0.09910 0.44617 -0.02500
H 	H 	0.66840 0.17180 0.59307 -0.00400
H 	H 	0.61360 0.01690 0.62027 0.14100
H 	H 	0.53020 0.70710 0.52917 0.03000
H 	H 	0.53700 0.71400 0.68327 0.03000
H 	H 	0.82750 0.60070 0.58987 0.02400
H 	H 	0.64060 0.58570 0.79920 0.12200
H 	H 	0.71210 0.54040 0.86250 0.15800
H 	H 	0.54240 0.64150 0.77950 -0.02500
H 	H 	0.49660 0.66840 0.92640 -0.00400
H 	H 	0.59670 0.61360 0.95360 0.14200
H 	H 	0.82310 0.53020 0.86250 0.02900
H 	H 	0.82300 0.53700 0.01660 0.02600
H 	H 	0.22680 0.82750 0.92320 0.02300
H 	H 	0.94510 0.35940 0.13253 0.12200
H 	H 	0.82830 0.28790 0.19583 0.15800
H 	H 	0.09910 0.45760 0.11283 -0.02500
H 	H 	0.17180 0.50340 0.25973 -0.00400
H 	H 	0.01690 0.40330 0.28693 0.14100
H 	H 	0.70710 0.17690 0.19583 0.03000
H 	H 	0.71400 0.17700 0.34993 0.03000
H 	H 	0.60070 0.77320 0.25653 0.02400
H 	H 	0.41430 0.05490 0.46587 0.12200
H 	H 	0.45960 0.17170 0.52917 0.15800
H 	H 	0.35850 0.90090 0.44617 -0.02500
H 	H 	0.33160 0.82820 0.59307 -0.00400
H 	H 	0.38640 0.98310 0.62027 0.14100
H 	H 	0.46980 0.29290 0.52917 0.03000
H 	H 	0.46300 0.28600 0.68327 0.03000
H 	H 	0.17250 0.39930 0.58987 0.02400
H 	H 	0.94510 0.58570 0.53413 0.12200
H 	H 	0.82830 0.54040 0.47083 0.15800
H 	H 	0.09910 0.64150 0.55383 -0.02500
H 	H 	0.17180 0.66840 0.40693 -0.00400
H 	H 	0.01690 0.61360 0.37973 0.14100
H 	H 	0.70710 0.53020 0.47083 0.03000
H 	H 	0.71400 0.53700 0.31673 0.03000
H 	H 	0.60070 0.82750 0.41013 0.02400
H 	H 	0.41430 0.35940 0.20080 0.12200
H 	H 	0.45960 0.28790 0.13750 0.15800
H 	H 	0.35850 0.45760 0.22050 -0.02500
H 	H 	0.33160 0.50340 0.07360 -0.00400
H 	H 	0.38640 0.40330 0.04640 0.14100
H 	H 	0.46980 0.17690 0.13750 0.03000
H 	H 	0.46300 0.17700 0.98340 0.03300
H 	H 	0.17250 0.77320 0.07680 0.02300
H 	H 	0.64060 0.05490 0.86747 0.12200
H 	H 	0.71210 0.17170 0.80417 0.15800
H 	H 	0.54240 0.90090 0.88717 -0.02500
H 	H 	0.49660 0.82820 0.74027 -0.00400
H 	H 	0.59670 0.98310 0.71307 0.14100
H 	H 	0.82310 0.29290 0.80417 0.03000
H 	H 	0.82300 0.28600 0.65007 0.03000
H 	H 	0.22680 0.39930 0.74347 0.02400
H 	H 	0.05490 0.41430 0.53413 0.12200
H 	H 	0.17170 0.45960 0.47083 0.15800
H 	H 	0.90090 0.35850 0.55383 -0.02500
H 	H 	0.82820 0.33160 0.40693 -0.00400
H 	H 	0.98310 0.38640 0.37973 0.14100
H 	H 	0.29290 0.46980 0.47083 0.03000
H 	H 	0.28600 0.46300 0.31673 0.03000
H 	H 	0.39930 0.17250 0.41013 0.02400
H 	H 	0.58570 0.64060 0.20080 0.12200
H 	H 	0.54040 0.71210 0.13750 0.15800
H 	H 	0.64150 0.54240 0.22050 -0.02500
H 	H 	0.66840 0.49660 0.07360 -0.00400
H 	H 	0.61360 0.59670 0.04640 0.14100
H 	H 	0.53020 0.82310 0.13750 0.03000
H 	H 	0.53700 0.82300 0.98340 0.03300
H 	H 	0.82750 0.22680 0.07680 0.02300
H 	H 	0.35940 0.94510 0.86747 0.12200
H 	H 	0.28790 0.82830 0.80417 0.15800
H 	H 	0.45760 0.09910 0.88717 -0.02500
H 	H 	0.50340 0.17180 0.74027 -0.00400
H 	H 	0.40330 0.01690 0.71307 0.14100
H 	H 	0.17690 0.70710 0.80417 0.03000
H 	H 	0.17700 0.71400 0.65007 0.03000
H 	H 	0.77320 0.60070 0.74347 0.02400
H 	H 	0.67590 0.32410 -0.00000 0.04100
H 	H 	0.84230 0.15770 -0.00000 0.07700
H 	H 	0.64820 0.32410 0.33333 0.04100
H 	H 	0.31540 0.15770 0.33333 0.07600
H 	H 	0.67590 0.35180 0.66667 0.04100
H 	H 	0.84230 0.68460 0.66667 0.07600
H 	H 	0.32410 0.67590 -0.00000 0.04100
H 	H 	0.15770 0.84230 -0.00000 0.07700
H 	H 	0.35180 0.67590 0.33333 0.04100
H 	H 	0.68460 0.84230 0.33333 0.07600
H 	H 	0.32410 0.64820 0.66667 0.04100
H 	H 	0.15770 0.31540 0.66667 0.07600
C 	C 	0.36680 0.40680 0.87910 0.22600
C 	C 	0.38710 0.39740 0.82680 -0.23300
C 	C 	0.04080 0.49280 0.94070 0.11000
C 	C 	0.26580 0.43850 0.93880 0.24100
C 	C 	0.44600 0.36450 0.81540 0.13900
C 	C 	0.18990 0.46190 0.93760 -0.11300
C 	C 	0.47300 0.34860 0.90050 0.13000
C 	C 	0.41290 0.38140 0.91720 -0.21200
C 	C 	0.15230 0.47400 0.89550 0.06600
C 	C 	0.68330 0.26350 0.90360 0.37100
C 	C 	0.15130 0.46910 0.98440 0.07700
C 	C 	0.71770 0.24990 0.95310 -0.13200
C 	C 	0.76760 0.20050 0.95460 0.06300
C 	C 	0.04000 0.63320 0.21243 0.22600
C 	C 	0.01030 0.61290 0.16013 -0.23300
C 	C 	0.45200 0.95920 0.27403 0.11000
C 	C 	0.17270 0.73420 0.27213 0.24000
C 	C 	0.91850 0.55400 0.14873 0.13900
C 	C 	0.27200 0.81010 0.27093 -0.11100
C 	C 	0.87560 0.52700 0.23383 0.13000
C 	C 	0.96850 0.58710 0.25053 -0.21200
C 	C 	0.32170 0.84770 0.22883 0.06500
C 	C 	0.58020 0.31670 0.23693 0.37100
C 	C 	0.31780 0.84870 0.31773 0.07200
C 	C 	0.53220 0.28230 0.28643 -0.13400
C 	C 	0.43290 0.23240 0.28793 0.05900
C 	C 	0.59320 0.96000 0.54577 0.22600
C 	C 	0.60260 0.98970 0.49347 -0.23300
C 	C 	0.50720 0.54800 0.60737 0.11000
C 	C 	0.56150 0.82730 0.60547 0.24000
C 	C 	0.63550 0.08150 0.48207 0.13900
C 	C 	0.53810 0.72800 0.60427 -0.11100
C 	C 	0.65140 0.12440 0.56717 0.13000
C 	C 	0.61860 0.03150 0.58387 -0.21200
C 	C 	0.52600 0.67830 0.56217 0.06500
C 	C 	0.73650 0.41980 0.57027 0.37100
C 	C 	0.53090 0.68220 0.65107 0.07200
C 	C 	0.75010 0.46780 0.61977 -0.13400
C 	C 	0.79950 0.56710 0.62127 0.05900
C 	C 	0.63320 0.59320 0.87910 0.22600
C 	C 	0.61290 0.60260 0.82680 -0.23300
C 	C 	0.95920 0.50720 0.94070 0.11000
C 	C 	0.73420 0.56150 0.93880 0.24100
C 	C 	0.55400 0.63550 0.81540 0.13900
C 	C 	0.81010 0.53810 0.93760 -0.11300
C 	C 	0.52700 0.65140 0.90050 0.13000
C 	C 	0.58710 0.61860 0.91720 -0.21200
C 	C 	0.84770 0.52600 0.89550 0.06600
C 	C 	0.31670 0.73650 0.90360 0.37100
C 	C 	0.84870 0.53090 0.98440 0.07700
C 	C 	0.28230 0.75010 0.95310 -0.13200
C 	C 	0.23240 0.79950 0.95460 0.06300
C 	C 	0.96000 0.36680 0.21243 0.22600
C 	C 	0.98970 0.38710 0.16013 -0.23300
C 	C 	0.54800 0.04080 0.27403 0.11000
C 	C 	0.82730 0.26580 0.27213 0.24000
C 	C 	0.08150 0.44600 0.14873 0.13900
C 	C 	0.72800 0.18990 0.27093 -0.11100
C 	C 	0.12440 0.47300 0.23383 0.13000
C 	C 	0.03150 0.41290 0.25053 -0.21200
C 	C 	0.67830 0.15230 0.22883 0.06500
C 	C 	0.41980 0.68330 0.23693 0.37100
C 	C 	0.68220 0.15130 0.31773 0.07200
C 	C 	0.46780 0.71770 0.28643 -0.13400
C 	C 	0.56710 0.76760 0.28793 0.05900
C 	C 	0.40680 0.04000 0.54577 0.22600
C 	C 	0.39740 0.01030 0.49347 -0.23300
C 	C 	0.49280 0.45200 0.60737 0.11000
C 	C 	0.43850 0.17270 0.60547 0.24000
C 	C 	0.36450 0.91850 0.48207 0.13900
C 	C 	0.46190 0.27200 0.60427 -0.11100
C 	C 	0.34860 0.87560 0.56717 0.13000
C 	C 	0.38140 0.96850 0.58387 -0.21200
C 	C 	0.47400 0.32170 0.56217 0.06500
C 	C 	0.26350 0.58020 0.57027 0.37100
C 	C 	0.46910 0.31780 0.65107 0.07200
C 	C 	0.24990 0.53220 0.61977 -0.13400
C 	C 	0.20050 0.43290 0.62127 0.05900
C 	C 	0.96000 0.59320 0.45423 0.22600
C 	C 	0.98970 0.60260 0.50653 -0.23300
C 	C 	0.54800 0.50720 0.39263 0.11000
C 	C 	0.82730 0.56150 0.39453 0.24000
C 	C 	0.08150 0.63550 0.51793 0.13900
C 	C 	0.72800 0.53810 0.39573 -0.11100
C 	C 	0.12440 0.65140 0.43283 0.13000
C 	C 	0.03150 0.61860 0.41613 -0.21200
C 	C 	0.67830 0.52600 0.43783 0.06500
C 	C 	0.41980 0.73650 0.42973 0.37100
C 	C 	0.68220 0.53090 0.34893 0.07200
C 	C 	0.46780 0.75010 0.38023 -0.13400
C 	C 	0.56710 0.79950 0.37873 0.05900
C 	C 	0.40680 0.36680 0.12090 0.22600
C 	C 	0.39740 0.38710 0.17320 -0.23300
C 	C 	0.49280 0.04080 0.05930 0.10900
C 	C 	0.43850 0.26580 0.06120 0.23900
C 	C 	0.36450 0.44600 0.18460 0.13900
C 	C 	0.46190 0.18990 0.06240 -0.10900
C 	C 	0.34860 0.47300 0.09950 0.13000
C 	C 	0.38140 0.41290 0.08280 -0.21100
C 	C 	0.47400 0.15230 0.10450 0.06400
C 	C 	0.26350 0.68330 0.09640 0.37100
C 	C 	0.46910 0.15130 0.01560 0.06700
C 	C 	0.24990 0.71770 0.04690 -0.13400
C 	C 	0.20050 0.76760 0.04540 0.06000
C 	C 	0.63320 0.04000 0.78757 0.22600
C 	C 	0.61290 0.01030 0.83987 -0.23300
C 	C 	0.95920 0.45200 0.72597 0.11000
C 	C 	0.73420 0.17270 0.72787 0.24000
C 	C 	0.55400 0.91850 0.85127 0.13900
C 	C 	0.81010 0.27200 0.72907 -0.11100
C 	C 	0.52700 0.87560 0.76617 0.13000
C 	C 	0.58710 0.96850 0.74947 -0.21200
C 	C 	0.84770 0.32170 0.77117 0.06500
C 	C 	0.31670 0.58020 0.76307 0.37100
C 	C 	0.84870 0.31780 0.68227 0.07200
C 	C 	0.28230 0.53220 0.71357 -0.13400
C 	C 	0.23240 0.43290 0.71207 0.05900
C 	C 	0.04000 0.40680 0.45423 0.22600
C 	C 	0.01030 0.39740 0.50653 -0.23300
C 	C 	0.45200 0.49280 0.39263 0.11000
C 	C 	0.17270 0.43850 0.39453 0.24000
C 	C 	0.91850 0.36450 0.51793 0.13900
C 	C 	0.27200 0.46190 0.39573 -0.11100
C 	C 	0.87560 0.34860 0.43283 0.13000
C 	C 	0.96850 0.38140 0.41613 -0.21200
C 	C 	0.32170 0.47400 0.43783 0.06500
C 	C 	0.58020 0.26350 0.42973 0.37100
C 	C 	0.31780 0.46910 0.34893 0.07200
C 	C 	0.53220 0.24990 0.38023 -0.13400
C 	C 	0.43290 0.20050 0.37873 0.05900
C 	C 	0.59320 0.63320 0.12090 0.22600
C 	C 	0.60260 0.61290 0.17320 -0.23300
C 	C 	0.50720 0.95920 0.05930 0.10900
C 	C 	0.56150 0.73420 0.06120 0.23900
C 	C 	0.63550 0.55400 0.18460 0.13900
C 	C 	0.53810 0.81010 0.06240 -0.10900
C 	C 	0.65140 0.52700 0.09950 0.13000
C 	C 	0.61860 0.58710 0.08280 -0.21100
C 	C 	0.52600 0.84770 0.10450 0.06400
C 	C 	0.73650 0.31670 0.09640 0.37100
C 	C 	0.53090 0.84870 0.01560 0.06700
C 	C 	0.75010 0.28230 0.04690 -0.13400
C 	C 	0.79950 0.23240 0.04540 0.06000
C 	C 	0.36680 0.96000 0.78757 0.22600
C 	C 	0.38710 0.98970 0.83987 -0.23300
C 	C 	0.04080 0.54800 0.72597 0.11000
C 	C 	0.26580 0.82730 0.72787 0.24000
C 	C 	0.44600 0.08150 0.85127 0.13900
C 	C 	0.18990 0.72800 0.72907 -0.11100
C 	C 	0.47300 0.12440 0.76617 0.13000
C 	C 	0.41290 0.03150 0.74947 -0.21200
C 	C 	0.15230 0.67830 0.77117 0.06500
C 	C 	0.68330 0.41980 0.76307 0.37100
C 	C 	0.15130 0.68220 0.68227 0.07200
C 	C 	0.71770 0.46780 0.71357 -0.13400
C 	C 	0.76760 0.56710 0.71207 0.05900
C 	C 	0.70935 0.29065 -0.00000 0.07300
C 	C 	0.80885 0.19115 -0.00000 -0.11800
C 	C 	0.58130 0.29065 0.33333 0.07600
C 	C 	0.38230 0.19115 0.33333 -0.11400
C 	C 	0.70935 0.41870 0.66667 0.07600
C 	C 	0.80885 0.61770 0.66667 -0.11400
C 	C 	0.29065 0.70935 -0.00000 0.07300
C 	C 	0.19115 0.80885 -0.00000 -0.11800
C 	C 	0.41870 0.70935 0.33333 0.07600
C 	C 	0.61770 0.80885 0.33333 -0.11400
C 	C 	0.29065 0.58130 0.66667 0.07600
C 	C 	0.19115 0.38230 0.66667 -0.11400
N 	N 	0.48910 0.34000 0.85160 -0.28400
N 	N 	0.30500 0.43780 0.88930 -0.26100
N 	N 	0.07660 0.49330 0.89550 -0.11800
N 	N 	0.07630 0.48460 0.98540 -0.12600
N 	N 	0.85090 0.51090 0.18493 -0.28500
N 	N 	0.13280 0.69500 0.22263 -0.26000
N 	N 	0.41670 0.92340 0.22883 -0.11700
N 	N 	0.40830 0.92370 0.31873 -0.12600
N 	N 	0.66000 0.14910 0.51827 -0.28400
N 	N 	0.56220 0.86720 0.55597 -0.26000
N 	N 	0.50670 0.58330 0.56217 -0.11700
N 	N 	0.51540 0.59170 0.65207 -0.12600
N 	N 	0.51090 0.66000 0.85160 -0.28400
N 	N 	0.69500 0.56220 0.88930 -0.26100
N 	N 	0.92340 0.50670 0.89550 -0.11800
N 	N 	0.92370 0.51540 0.98540 -0.12600
N 	N 	0.14910 0.48910 0.18493 -0.28500
N 	N 	0.86720 0.30500 0.22263 -0.26000
N 	N 	0.58330 0.07660 0.22883 -0.11700
N 	N 	0.59170 0.07630 0.31873 -0.12600
N 	N 	0.34000 0.85090 0.51827 -0.28400
N 	N 	0.43780 0.13280 0.55597 -0.26000
N 	N 	0.49330 0.41670 0.56217 -0.11700
N 	N 	0.48460 0.40830 0.65207 -0.12600
N 	N 	0.14910 0.66000 0.48173 -0.28400
N 	N 	0.86720 0.56220 0.44403 -0.26000
N 	N 	0.58330 0.50670 0.43783 -0.11700
N 	N 	0.59170 0.51540 0.34793 -0.12600
N 	N 	0.34000 0.48910 0.14840 -0.28400
N 	N 	0.43780 0.30500 0.11070 -0.26000
N 	N 	0.49330 0.07660 0.10450 -0.11700
N 	N 	0.48460 0.07630 0.01460 -0.12500
N 	N 	0.51090 0.85090 0.81507 -0.28400
N 	N 	0.69500 0.13280 0.77737 -0.26000
N 	N 	0.92340 0.41670 0.77117 -0.11700
N 	N 	0.92370 0.40830 0.68127 -0.12600
N 	N 	0.85090 0.34000 0.48173 -0.28400
N 	N 	0.13280 0.43780 0.44403 -0.26000
N 	N 	0.41670 0.49330 0.43783 -0.11700
N 	N 	0.40830 0.48460 0.34793 -0.12600
N 	N 	0.66000 0.51090 0.14840 -0.28400
N 	N 	0.56220 0.69500 0.11070 -0.26000
N 	N 	0.50670 0.92340 0.10450 -0.11700
N 	N 	0.51540 0.92370 0.01460 -0.12500
N 	N 	0.48910 0.14910 0.81507 -0.28400
N 	N 	0.30500 0.86720 0.77737 -0.26000
N 	N 	0.07660 0.58330 0.77117 -0.11700
N 	N 	0.07630 0.59170 0.68127 -0.12600
O 	O 	0.62180 0.29150 0.90630 -0.44200
O 	O 	0.69690 0.23600 0.86320 -0.37400
O 	O 	0.29270 0.41920 0.97960 -0.23700
O 	O 	0.66970 0.37820 0.23963 -0.44200
O 	O 	0.53910 0.30310 0.19653 -0.37400
O 	O 	0.12650 0.70730 0.31293 -0.23800
O 	O 	0.70850 0.33030 0.57297 -0.44200
O 	O 	0.76400 0.46090 0.52987 -0.37400
O 	O 	0.58080 0.87350 0.64627 -0.23800
O 	O 	0.37820 0.70850 0.90630 -0.44200
O 	O 	0.30310 0.76400 0.86320 -0.37400
O 	O 	0.70730 0.58080 0.97960 -0.23700
O 	O 	0.33030 0.62180 0.23963 -0.44200
O 	O 	0.46090 0.69690 0.19653 -0.37400
O 	O 	0.87350 0.29270 0.31293 -0.23800
O 	O 	0.29150 0.66970 0.57297 -0.44200
O 	O 	0.23600 0.53910 0.52987 -0.37400
O 	O 	0.41920 0.12650 0.64627 -0.23800
O 	O 	0.33030 0.70850 0.42703 -0.44200
O 	O 	0.46090 0.76400 0.47013 -0.37400
O 	O 	0.87350 0.58080 0.35373 -0.23800
O 	O 	0.29150 0.62180 0.09370 -0.44200
O 	O 	0.23600 0.69690 0.13680 -0.37400
O 	O 	0.41920 0.29270 0.02040 -0.23900
O 	O 	0.37820 0.66970 0.76037 -0.44200
O 	O 	0.30310 0.53910 0.80347 -0.37400
O 	O 	0.70730 0.12650 0.68707 -0.23800
O 	O 	0.66970 0.29150 0.42703 -0.44200
O 	O 	0.53910 0.23600 0.47013 -0.37400
O 	O 	0.12650 0.41920 0.35373 -0.23800
O 	O 	0.70850 0.37820 0.09370 -0.44200
O 	O 	0.76400 0.30310 0.13680 -0.37400
O 	O 	0.58080 0.70730 0.02040 -0.23900
O 	O 	0.62180 0.33030 0.76037 -0.44200
O 	O 	0.69690 0.46090 0.80347 -0.37400
O 	O 	0.29270 0.87350 0.68707 -0.23800
