data_crystal

_cell_length_a 5.02200
_cell_length_b 12.34000
_cell_length_c 15.43890
_cell_angle_alpha 90.00000
_cell_angle_beta  91.86700
_cell_angle_gamma 90.00000

_symmetry_space_group_name_	'P 1'
_symmetry_space_group_name_H-M	'P 1'

loop_
_symmetry_equiv_pos_as_xyz
  x,y,z

loop_
_atom_site_label
_atom_site_type_symbol
_atom_site_fract_x
_atom_site_fract_y
_atom_site_fract_z
_atom_site_charge
Cu	Cu	0.52910 0.13530 0.88280 0.90600
Cu	Cu	0.97090 0.63530 0.61720 0.91600
Cu	Cu	0.47090 0.86470 0.11720 0.90500
Cu	Cu	0.02910 0.36470 0.38280 0.89300
Cu	Cu	-0.00000 0.00000 -0.00000 0.85700
Cu	Cu	0.50000 0.50000 0.50000 0.92300
P 	P 	0.50080 0.89230 0.92010 0.41500
P 	P 	0.99920 0.39230 0.57990 0.46000
P 	P 	0.49920 0.10770 0.07990 0.41200
P 	P 	0.00080 0.60770 0.42010 0.36700
H 	H 	0.43700 0.70600 0.90300 0.08200
H 	H 	0.24200 0.77700 0.84800 0.11100
H 	H 	0.73900 0.71800 0.79100 0.13200
H 	H 	0.60600 0.82100 0.75400 0.12600
H 	H 	0.06300 0.20600 0.59700 0.08600
H 	H 	0.25800 0.27700 0.65200 0.14100
H 	H 	0.76100 0.21800 0.70900 0.08300
H 	H 	0.89400 0.32100 0.74600 0.09300
H 	H 	0.56300 0.29400 0.09700 0.07100
H 	H 	0.75800 0.22300 0.15200 0.12000
H 	H 	0.26100 0.28200 0.20900 0.10300
H 	H 	0.39400 0.17900 0.24600 0.09800
H 	H 	0.93700 0.79400 0.40300 0.06500
H 	H 	0.74200 0.72300 0.34800 0.08600
H 	H 	0.23900 0.78200 0.29100 0.15400
H 	H 	0.10600 0.67900 0.25400 0.13000
C 	C 	0.41550 0.77000 0.86410 -0.17000
C 	C 	0.56960 0.75160 0.78220 -0.29200
C 	C 	0.42620 0.68350 0.71410 0.40100
C 	C 	0.08450 0.27000 0.63590 -0.27100
C 	C 	0.93040 0.25160 0.71780 -0.17200
C 	C 	0.07380 0.18350 0.78590 0.31600
C 	C 	0.58450 0.23000 0.13590 -0.19200
C 	C 	0.43040 0.24840 0.21780 -0.26100
C 	C 	0.57380 0.31650 0.28590 0.38000
C 	C 	0.91550 0.73000 0.36410 -0.08900
C 	C 	0.06960 0.74840 0.28220 -0.38100
C 	C 	0.92620 0.81650 0.21410 0.46200
O 	O 	0.79000 0.88290 0.95350 -0.35000
O 	O 	0.68350 0.09770 0.00080 -0.52000
O 	O 	0.44880 0.98510 0.85750 -0.33800
O 	O 	0.17330 0.68070 0.71850 -0.42800
O 	O 	0.54940 0.63740 0.65590 -0.43600
O 	O 	0.71000 0.38290 0.54650 -0.41100
O 	O 	0.81650 0.59770 0.49920 -0.46700
O 	O 	0.05120 0.48510 0.64250 -0.40200
O 	O 	0.32670 0.18070 0.78150 -0.41500
O 	O 	0.95060 0.13740 0.84410 -0.40100
O 	O 	0.21000 0.11710 0.04650 -0.44100
O 	O 	0.31650 0.90230 0.99920 -0.41900
O 	O 	0.55120 0.01490 0.14250 -0.42100
O 	O 	0.82670 0.31930 0.28150 -0.41500
O 	O 	0.45060 0.36260 0.34410 -0.43900
O 	O 	0.29000 0.61710 0.45350 -0.40100
O 	O 	0.18350 0.40230 0.50080 -0.50000
O 	O 	0.94880 0.51490 0.35750 -0.36300
O 	O 	0.67330 0.81930 0.21850 -0.43300
O 	O 	0.04940 0.86260 0.15590 -0.46600
