data_crystal

_cell_length_a 5.81450
_cell_length_b 8.96630
_cell_length_c 16.88000
_cell_angle_alpha 90.00000
_cell_angle_beta  90.00000
_cell_angle_gamma 94.07800

_symmetry_space_group_name_	'P 1'
_symmetry_space_group_name_H-M	'P 1'

loop_
_symmetry_equiv_pos_as_xyz
  x,y,z

loop_
_atom_site_label
_atom_site_type_symbol
_atom_site_fract_x
_atom_site_fract_y
_atom_site_fract_z
_atom_site_charge
Cu	Cu	0.75209 0.47175 0.56490 0.83200
Cu	Cu	0.24791 0.02825 0.06490 0.83000
Cu	Cu	0.24791 0.52825 0.43510 0.83100
Cu	Cu	0.75209 0.97175 0.93510 0.82900
H 	H 	0.71200 0.14400 0.64830 0.04800
H 	H 	0.88520 0.04000 0.75670 0.00100
H 	H 	0.24590 0.30640 0.79790 0.06400
H 	H 	0.43450 0.20050 0.90130 -0.03900
H 	H 	0.28800 0.35600 0.14830 0.04700
H 	H 	0.11480 0.46000 0.25670 -0.00000
H 	H 	0.75410 0.19360 0.29790 0.06500
H 	H 	0.56550 0.29950 0.40130 -0.03900
H 	H 	0.28800 0.85600 0.35170 0.04800
H 	H 	0.11480 0.96000 0.24330 0.00100
H 	H 	0.75410 0.69360 0.20210 0.06400
H 	H 	0.56550 0.79950 0.09870 -0.03900
H 	H 	0.71200 0.64400 0.85170 0.04700
H 	H 	0.88520 0.54000 0.74330 -0.00000
H 	H 	0.24590 0.80640 0.70210 0.06500
H 	H 	0.43450 0.70050 0.59870 -0.03900
C 	C 	0.33460 0.30510 0.64500 0.09000
C 	C 	0.45840 0.23740 0.71010 0.01600
C 	C 	0.65050 0.15670 0.69980 -0.10900
C 	C 	0.75300 0.09450 0.76490 0.05600
C 	C 	0.37740 0.25220 0.78770 -0.11200
C 	C 	0.49020 0.18760 0.84900 0.06500
C 	C 	0.66540 0.19490 0.14500 0.09000
C 	C 	0.54160 0.26260 0.21010 0.01600
C 	C 	0.34950 0.34330 0.19980 -0.11000
C 	C 	0.24700 0.40550 0.26490 0.05600
C 	C 	0.62260 0.24780 0.28770 -0.11200
C 	C 	0.50980 0.31240 0.34900 0.06500
C 	C 	0.66540 0.69490 0.35500 0.09000
C 	C 	0.54160 0.76260 0.28990 0.01600
C 	C 	0.34950 0.84330 0.30020 -0.10900
C 	C 	0.24700 0.90550 0.23510 0.05600
C 	C 	0.62260 0.74780 0.21230 -0.11200
C 	C 	0.50980 0.81240 0.15100 0.06500
C 	C 	0.33460 0.80510 0.85500 0.09000
C 	C 	0.45840 0.73740 0.78990 0.01600
C 	C 	0.65050 0.65670 0.80020 -0.11000
C 	C 	0.75300 0.59450 0.73510 0.05600
C 	C 	0.37740 0.75220 0.71230 -0.11200
C 	C 	0.49020 0.68760 0.65100 0.06500
N 	N 	0.42750 0.35920 0.57760 -0.20300
N 	N 	0.24750 0.41310 0.53830 -0.18800
N 	N 	0.05910 0.39180 0.58260 -0.18200
N 	N 	0.11010 0.32470 0.65040 -0.10900
N 	N 	0.67350 0.10790 0.83930 -0.22900
N 	N 	0.57250 0.14080 0.07760 -0.20300
N 	N 	0.75250 0.08690 0.03830 -0.18700
N 	N 	0.94090 0.10820 0.08260 -0.18100
N 	N 	0.88990 0.17530 0.15040 -0.10800
N 	N 	0.32650 0.39210 0.33930 -0.22900
N 	N 	0.57250 0.64080 0.42240 -0.20300
N 	N 	0.75250 0.58690 0.46170 -0.18800
N 	N 	0.94090 0.60820 0.41740 -0.18200
N 	N 	0.88990 0.67530 0.34960 -0.10900
N 	N 	0.32650 0.89210 0.16070 -0.22900
N 	N 	0.42750 0.85920 0.92240 -0.20300
N 	N 	0.24750 0.91310 0.96170 -0.18700
N 	N 	0.05910 0.89180 0.91740 -0.18100
N 	N 	0.11010 0.82470 0.84960 -0.10800
N 	N 	0.67350 0.60790 0.66070 -0.22900
