data_crystal

_cell_length_a 6.02600
_cell_length_b 7.45000
_cell_length_c 13.28700
_cell_angle_alpha 102.74000
_cell_angle_beta  101.46000
_cell_angle_gamma 90.72000

_symmetry_space_group_name_	'P 1'
_symmetry_space_group_name_H-M	'P 1'

loop_
_symmetry_equiv_pos_as_xyz
  x,y,z

loop_
_atom_site_label
_atom_site_type_symbol
_atom_site_fract_x
_atom_site_fract_y
_atom_site_fract_z
_atom_site_charge
Gd	Gd	0.50009 0.50994 0.50002 1.61200
Gd	Gd	0.46433 0.87269 0.14001 1.40100
H 	H 	0.83620 0.79390 0.86320 0.04200
H 	H 	0.12680 0.72720 0.76350 0.02500
H 	H 	0.99640 0.37410 0.25560 -0.00100
H 	H 	0.01440 0.41430 0.09090 0.03500
H 	H 	0.92720 0.09180 0.55020 0.07700
H 	H 	0.96190 0.93890 0.38470 -0.08300
H 	H 	0.78740 0.61910 0.95170 0.23800
H 	H 	0.24780 0.46900 0.74190 0.23600
H 	H 	0.28400 0.66000 0.33300 0.26700
H 	H 	0.32000 0.46500 0.07300 0.24500
H 	H 	0.59000 0.16500 0.56100 0.25900
H 	H 	0.70000 0.16800 0.31700 0.28100
C 	C 	0.70800 0.61200 0.72340 0.29700
C 	C 	0.86250 0.66630 0.83130 -0.02900
C 	C 	0.11040 0.65960 0.81730 0.09100
C 	C 	0.26840 0.75540 0.92110 0.26700
C 	C 	0.32510 0.30260 0.24940 0.36100
C 	C 	0.13680 0.43940 0.25320 0.07200
C 	C 	0.10010 0.51030 0.14880 0.05200
C 	C 	0.97110 0.68820 0.15640 0.24100
C 	C 	0.98790 0.31770 0.49050 0.34000
C 	C 	0.85020 0.14600 0.49270 -0.06100
C 	C 	0.82010 0.00130 0.38660 0.24100
C 	C 	0.63420 0.85960 0.38690 0.22700
O 	O 	0.55980 0.47740 0.69850 -0.32300
O 	O 	0.73130 0.70890 0.66030 -0.39000
O 	O 	0.83240 0.55630 0.90160 -0.29700
O 	O 	0.15660 0.47410 0.78060 -0.29500
O 	O 	0.43700 0.67390 0.95980 -0.28600
O 	O 	0.22590 0.91000 0.96880 -0.29500
O 	O 	0.30010 0.16560 0.17470 -0.36100
O 	O 	0.49330 0.34150 0.32680 -0.41300
O 	O 	0.19650 0.58630 0.34610 -0.44000
O 	O 	0.31540 0.54640 0.12630 -0.45600
O 	O 	0.07780 0.82990 0.15030 -0.35000
O 	O 	0.76630 0.67710 0.16210 -0.39300
O 	O 	0.88940 0.46130 0.49260 -0.41000
O 	O 	0.19420 0.29880 0.48910 -0.36000
O 	O 	0.63210 0.20260 0.51160 -0.43400
O 	O 	0.76320 0.07270 0.29600 -0.46900
O 	O 	0.46140 0.83390 0.31230 -0.37800
O 	O 	0.66330 0.77220 0.46110 -0.38300
