data_crystal

_cell_length_a 11.44100
_cell_length_b 11.44100
_cell_length_c 46.83000
_cell_angle_alpha 90.00000
_cell_angle_beta  90.00000
_cell_angle_gamma 120.00000

_symmetry_space_group_name_	'P 1'
_symmetry_space_group_name_H-M	'P 1'

loop_
_symmetry_equiv_pos_as_xyz
  x,y,z

loop_
_atom_site_label
_atom_site_type_symbol
_atom_site_fract_x
_atom_site_fract_y
_atom_site_fract_z
_atom_site_charge
Zn	Zn	0.98140 0.99560 -0.00000 1.21200
Zn	Zn	0.32320 0.67470 0.91290 1.21500
P 	P 	0.97940 0.99440 0.05190 -0.05400
P 	P 	0.31920 0.66150 0.96420 -0.04600
C 	C 	0.14950 0.08090 0.06830 0.03400
C 	C 	0.24590 0.04090 0.05440 -0.04800
C 	C 	0.37950 0.10980 0.07030 0.31700
O 	O 	0.46950 0.22820 0.06180 -0.40700
O 	O 	0.40120 0.05040 0.09060 -0.25000
C 	C 	0.89920 0.82590 0.06930 0.01500
C 	C 	0.76840 0.72210 0.05310 -0.06100
C 	C 	0.70450 0.58830 0.06790 0.33500
O 	O 	0.72810 0.49720 0.05900 -0.41100
O 	O 	0.63200 0.57080 0.08920 -0.27200
C 	C 	0.89060 0.07540 0.06820 0.02900
C 	C 	0.94040 0.21650 0.05480 -0.05900
C 	C 	0.86130 0.28000 0.06830 0.32200
O 	O 	0.73440 0.22580 0.06420 -0.41300
O 	O 	0.92550 0.38490 0.08290 -0.27300
C 	C 	0.27560 0.49800 0.98000 0.02700
C 	C 	0.13280 0.38780 0.97490 -0.05500
C 	C 	0.10010 0.25560 0.98810 0.34600
O 	O 	0.98870 0.15130 0.98020 -0.41500
O 	O 	0.17370 0.24800 0.00560 -0.30500
C 	C 	0.20160 0.69850 0.98300 0.03000
C 	C 	0.23110 0.84510 0.97750 -0.05700
C 	C 	0.12950 0.87320 0.99120 0.32100
O 	O 	0.13090 0.97900 0.98240 -0.39600
O 	O 	0.04150 0.79130 0.00790 -0.27000
C 	C 	0.47540 0.77650 0.98150 0.02100
C 	C 	0.58630 0.74580 0.97410 -0.05300
C 	C 	0.72130 0.84650 0.98840 0.32600
O 	O 	0.82640 0.84710 0.97980 -0.40600
O 	O 	0.72510 0.92270 0.00760 -0.30000
Zn	Zn	0.00440 0.98580 0.33333 1.21200
Zn	Zn	0.32530 0.64850 0.24623 1.21400
P 	P 	0.00560 0.98500 0.38523 -0.05200
P 	P 	0.33850 0.65770 0.29753 -0.04700
C 	C 	0.91910 0.06860 0.40163 0.02800
C 	C 	0.95910 0.20500 0.38773 -0.04600
C 	C 	0.89020 0.26970 0.40363 0.31600
O 	O 	0.77180 0.24130 0.39513 -0.40500
O 	O 	0.94960 0.35080 0.42393 -0.25100
C 	C 	0.17410 0.07330 0.40263 0.02000
C 	C 	0.27790 0.04630 0.38643 -0.05600
C 	C 	0.41170 0.11620 0.40123 0.33500
O 	O 	0.50280 0.23090 0.39233 -0.40800
O 	O 	0.42920 0.06120 0.42253 -0.27200
C 	C 	0.92460 0.81520 0.40153 0.03000
C 	C 	0.78350 0.72390 0.38813 -0.05200
C 	C 	0.72000 0.58130 0.40163 0.32100
O 	O 	0.77420 0.50860 0.39753 -0.41100
O 	O 	0.61510 0.54060 0.41623 -0.26900
C 	C 	0.50200 0.77760 0.31333 0.02400
C 	C 	0.61220 0.74500 0.30823 -0.05600
C 	C 	0.74440 0.84450 0.32143 0.32600
O 	O 	0.84870 0.83740 0.31353 -0.39700
O 	O 	0.75200 0.92570 0.33893 -0.30500
C 	C 	0.30150 0.50310 0.31633 0.02700
C 	C 	0.15490 0.38600 0.31083 -0.05700
C 	C 	0.12680 0.25630 0.32453 0.32000
O 	O 	0.02100 0.15190 0.31573 -0.39700
O 	O 	0.20870 0.25020 0.34123 -0.27600
C 	C 	0.22350 0.69890 0.31483 0.02000
C 	C 	0.25420 0.84050 0.30743 -0.05400
C 	C 	0.15350 0.87480 0.32173 0.32500
O 	O 	0.15290 0.97930 0.31313 -0.40600
O 	O 	0.07730 0.80240 0.34093 -0.30000
Zn	Zn	0.01420 0.01860 0.66667 1.21100
Zn	Zn	0.35150 0.67680 0.57957 1.21400
P 	P 	0.01500 0.02060 0.71857 -0.04200
P 	P 	0.34230 0.68080 0.63087 -0.04700
C 	C 	0.93140 0.85050 0.73497 0.02800
C 	C 	0.79500 0.75410 0.72107 -0.05100
C 	C 	0.73030 0.62050 0.73697 0.31700
O 	O 	0.75870 0.53050 0.72847 -0.40700
O 	O 	0.64920 0.59880 0.75727 -0.25400
C 	C 	0.92670 0.10080 0.73597 0.01700
C 	C 	0.95370 0.23160 0.71977 -0.05700
C 	C 	0.88380 0.29550 0.73457 0.33500
O 	O 	0.76910 0.27190 0.72567 -0.41000
O 	O 	0.93880 0.36800 0.75587 -0.27200
C 	C 	0.18480 0.10940 0.73487 0.01800
C 	C 	0.27610 0.05960 0.72147 -0.05800
C 	C 	0.41870 0.13870 0.73497 0.32100
O 	O 	0.49140 0.26560 0.73087 -0.41400
O 	O 	0.45940 0.07450 0.74957 -0.27200
C 	C 	0.22240 0.72440 0.64667 0.02600
C 	C 	0.25500 0.86720 0.64157 -0.05500
C 	C 	0.15550 0.89990 0.65477 0.34600
O 	O 	0.16260 0.01130 0.64687 -0.41800
O 	O 	0.07430 0.82630 0.67227 -0.30700
C 	C 	0.49690 0.79840 0.64967 0.03100
C 	C 	0.61400 0.76890 0.64417 -0.05400
C 	C 	0.74370 0.87050 0.65787 0.32000
O 	O 	0.84810 0.86910 0.64907 -0.39000
O 	O 	0.74980 0.95850 0.67457 -0.26600
C 	C 	0.30110 0.52460 0.64817 0.02300
C 	C 	0.15950 0.41370 0.64077 -0.05400
C 	C 	0.12520 0.27870 0.65507 0.32600
O 	O 	0.02070 0.17360 0.64647 -0.40800
O 	O 	0.19760 0.27490 0.67427 -0.29600
Zn	Zn	0.01860 0.00440 0.50000 1.21100
Zn	Zn	0.67680 0.32530 0.41290 1.21400
P 	P 	0.02060 0.00560 0.55190 -0.05400
P 	P 	0.68080 0.33850 0.46420 -0.04700
C 	C 	0.85050 0.91910 0.56830 0.03300
C 	C 	0.75410 0.95910 0.55440 -0.04800
C 	C 	0.62050 0.89020 0.57030 0.31700
O 	O 	0.53050 0.77180 0.56180 -0.40700
O 	O 	0.59880 0.94960 0.59060 -0.25000
C 	C 	0.10080 0.17410 0.56930 0.01500
C 	C 	0.23160 0.27790 0.55310 -0.06100
C 	C 	0.29550 0.41170 0.56790 0.33500
O 	O 	0.27190 0.50280 0.55900 -0.41100
O 	O 	0.36800 0.42920 0.58920 -0.27200
C 	C 	0.10940 0.92460 0.56820 0.02900
C 	C 	0.05960 0.78350 0.55480 -0.05900
C 	C 	0.13870 0.72000 0.56830 0.32200
O 	O 	0.26560 0.77420 0.56420 -0.41300
O 	O 	0.07450 0.61510 0.58290 -0.27300
C 	C 	0.72440 0.50200 0.48000 0.02700
C 	C 	0.86720 0.61220 0.47490 -0.05500
C 	C 	0.89990 0.74440 0.48810 0.34500
O 	O 	0.01130 0.84870 0.48020 -0.41500
O 	O 	0.82630 0.75200 0.50560 -0.30400
C 	C 	0.79840 0.30150 0.48300 0.03000
C 	C 	0.76890 0.15490 0.47750 -0.05700
C 	C 	0.87050 0.12680 0.49120 0.32000
O 	O 	0.86910 0.02100 0.48240 -0.39600
O 	O 	0.95850 0.20870 0.50790 -0.26900
C 	C 	0.52460 0.22350 0.48150 0.02100
C 	C 	0.41370 0.25420 0.47410 -0.05300
C 	C 	0.27870 0.15350 0.48840 0.32600
O 	O 	0.17360 0.15290 0.47980 -0.40600
O 	O 	0.27490 0.07730 0.50760 -0.29900
Zn	Zn	0.99560 0.01420 0.83333 1.21200
Zn	Zn	0.67470 0.35150 0.74623 1.21400
P 	P 	0.99440 0.01500 0.88523 -0.05200
P 	P 	0.66150 0.34230 0.79753 -0.04700
C 	C 	0.08090 0.93140 0.90163 0.02800
C 	C 	0.04090 0.79500 0.88773 -0.04600
C 	C 	0.10980 0.73030 0.90363 0.31600
O 	O 	0.22820 0.75870 0.89513 -0.40500
O 	O 	0.05040 0.64920 0.92393 -0.25100
C 	C 	0.82590 0.92670 0.90263 0.02000
C 	C 	0.72210 0.95370 0.88643 -0.05600
C 	C 	0.58830 0.88380 0.90123 0.33500
O 	O 	0.49720 0.76910 0.89233 -0.40800
O 	O 	0.57080 0.93880 0.92253 -0.27200
C 	C 	0.07540 0.18480 0.90153 0.03000
C 	C 	0.21650 0.27610 0.88813 -0.05200
C 	C 	0.28000 0.41870 0.90163 0.32100
O 	O 	0.22580 0.49140 0.89753 -0.41100
O 	O 	0.38490 0.45940 0.91623 -0.26900
C 	C 	0.49800 0.22240 0.81333 0.02400
C 	C 	0.38780 0.25500 0.80823 -0.05600
C 	C 	0.25560 0.15550 0.82143 0.32600
O 	O 	0.15130 0.16260 0.81353 -0.39700
O 	O 	0.24800 0.07430 0.83893 -0.30500
C 	C 	0.69850 0.49690 0.81633 0.02700
C 	C 	0.84510 0.61400 0.81083 -0.05700
C 	C 	0.87320 0.74370 0.82453 0.32000
O 	O 	0.97900 0.84810 0.81573 -0.39700
O 	O 	0.79130 0.74980 0.84123 -0.27600
C 	C 	0.77650 0.30110 0.81483 0.02000
C 	C 	0.74580 0.15950 0.80743 -0.05400
C 	C 	0.84650 0.12520 0.82173 0.32500
O 	O 	0.84710 0.02070 0.81313 -0.40600
O 	O 	0.92270 0.19760 0.84093 -0.30000
Zn	Zn	0.98580 0.98140 0.16667 1.21100
Zn	Zn	0.64850 0.32320 0.07957 1.21400
P 	P 	0.98500 0.97940 0.21857 -0.04200
P 	P 	0.65770 0.31920 0.13087 -0.04700
C 	C 	0.06860 0.14950 0.23497 0.02800
C 	C 	0.20500 0.24590 0.22107 -0.05100
C 	C 	0.26970 0.37950 0.23697 0.31700
O 	O 	0.24130 0.46950 0.22847 -0.40700
O 	O 	0.35080 0.40120 0.25727 -0.25400
C 	C 	0.07330 0.89920 0.23597 0.01700
C 	C 	0.04630 0.76840 0.21977 -0.05700
C 	C 	0.11620 0.70450 0.23457 0.33500
O 	O 	0.23090 0.72810 0.22567 -0.41000
O 	O 	0.06120 0.63200 0.25587 -0.27200
C 	C 	0.81520 0.89060 0.23487 0.01900
C 	C 	0.72390 0.94040 0.22147 -0.05800
C 	C 	0.58130 0.86130 0.23497 0.32100
O 	O 	0.50860 0.73440 0.23087 -0.41400
O 	O 	0.54060 0.92550 0.24957 -0.27200
C 	C 	0.77760 0.27560 0.14667 0.02600
C 	C 	0.74500 0.13280 0.14157 -0.05500
C 	C 	0.84450 0.10010 0.15477 0.34600
O 	O 	0.83740 0.98870 0.14687 -0.41800
O 	O 	0.92570 0.17370 0.17227 -0.30700
C 	C 	0.50310 0.20160 0.14967 0.03100
C 	C 	0.38600 0.23110 0.14417 -0.05400
C 	C 	0.25630 0.12950 0.15787 0.32000
O 	O 	0.15190 0.13090 0.14907 -0.39000
O 	O 	0.25020 0.04150 0.17457 -0.26600
C 	C 	0.69890 0.47540 0.14817 0.02300
C 	C 	0.84050 0.58630 0.14077 -0.05400
C 	C 	0.87480 0.72130 0.15507 0.32600
O 	O 	0.97930 0.82640 0.14647 -0.40800
O 	O 	0.80240 0.72510 0.17427 -0.29600
