data_crystal

_cell_length_a 7.33610
_cell_length_b 10.74960
_cell_length_c 14.02800
_cell_angle_alpha 90.00000
_cell_angle_beta  90.77800
_cell_angle_gamma 90.00000

_symmetry_space_group_name_	'P 1'
_symmetry_space_group_name_H-M	'P 1'

loop_
_symmetry_equiv_pos_as_xyz
  x,y,z

loop_
_atom_site_label
_atom_site_type_symbol
_atom_site_fract_x
_atom_site_fract_y
_atom_site_fract_z
_atom_site_charge
Cu	Cu	0.91107 0.90790 0.88013 0.89700
Cu	Cu	0.08893 0.40790 0.61987 0.90100
Cu	Cu	0.08893 0.09210 0.11987 0.89700
Cu	Cu	0.91107 0.59210 0.38013 0.90100
H 	H 	0.36890 0.75300 0.81120 0.06300
H 	H 	0.46560 0.45420 0.58130 0.02100
H 	H 	0.12990 0.63420 0.75040 0.02400
H 	H 	0.63110 0.25300 0.68880 0.06400
H 	H 	0.53440 0.95420 0.91870 0.01300
H 	H 	0.87010 0.13420 0.74960 0.02400
H 	H 	0.63110 0.24700 0.18880 0.06300
H 	H 	0.53440 0.54580 0.41870 0.02100
H 	H 	0.87010 0.36580 0.24960 0.02400
H 	H 	0.36890 0.74700 0.31120 0.06400
H 	H 	0.46560 0.04580 0.08130 0.01300
H 	H 	0.12990 0.86580 0.25040 0.02400
C 	C 	0.72420 0.75380 0.76670 0.28200
C 	C 	0.56790 0.67400 0.73100 0.01500
C 	C 	0.59370 0.58650 0.65940 -0.09600
C 	C 	0.39180 0.69170 0.76400 -0.07600
C 	C 	0.44670 0.51590 0.62860 0.06500
C 	C 	0.77460 0.55910 0.61360 0.37300
C 	C 	0.25000 0.62000 0.72820 0.05700
C 	C 	0.27580 0.25380 0.73330 0.28100
C 	C 	0.43210 0.17400 0.76900 0.01700
C 	C 	0.40630 0.08650 0.84060 -0.10000
C 	C 	0.60820 0.19170 0.73600 -0.07800
C 	C 	0.55330 0.01590 0.87140 0.07600
C 	C 	0.22540 0.05910 0.88640 0.37500
C 	C 	0.75000 0.12000 0.77180 0.05800
C 	C 	0.27580 0.24620 0.23330 0.28200
C 	C 	0.43210 0.32600 0.26900 0.01500
C 	C 	0.40630 0.41350 0.34060 -0.09600
C 	C 	0.60820 0.30830 0.23600 -0.07600
C 	C 	0.55330 0.48410 0.37140 0.06500
C 	C 	0.22540 0.44090 0.38640 0.37300
C 	C 	0.75000 0.38000 0.27180 0.05700
C 	C 	0.72420 0.74620 0.26670 0.28100
C 	C 	0.56790 0.82600 0.23100 0.01700
C 	C 	0.59370 0.91350 0.15940 -0.10000
C 	C 	0.39180 0.80830 0.26400 -0.07800
C 	C 	0.44670 0.98410 0.12860 0.07600
C 	C 	0.77460 0.94090 0.11360 0.37500
C 	C 	0.25000 0.88000 0.22820 0.05800
N 	N 	0.27780 0.53110 0.66310 -0.20400
N 	N 	0.72220 0.03110 0.83690 -0.20500
N 	N 	0.72220 0.46890 0.33690 -0.20400
N 	N 	0.27780 0.96890 0.16310 -0.20500
O 	O 	0.73190 0.77040 0.85700 -0.35500
O 	O 	0.78860 0.57810 0.52762 -0.38800
O 	O 	0.89420 0.51200 0.66897 -0.40800
O 	O 	0.82880 0.79780 0.70820 -0.27800
O 	O 	0.26810 0.27040 0.64300 -0.35300
O 	O 	0.21140 0.07810 0.97238 -0.38400
O 	O 	0.10580 0.01200 0.83103 -0.40600
O 	O 	0.17120 0.29780 0.79180 -0.27500
O 	O 	0.26810 0.22960 0.14300 -0.35500
O 	O 	0.21140 0.42190 0.47238 -0.38800
O 	O 	0.10580 0.48800 0.33103 -0.40800
O 	O 	0.17120 0.20220 0.29180 -0.27800
O 	O 	0.73190 0.72960 0.35700 -0.35300
O 	O 	0.78860 0.92190 0.02762 -0.38400
O 	O 	0.89420 0.98800 0.16897 -0.40600
O 	O 	0.82880 0.70220 0.20820 -0.27500
