data_crystal

_cell_length_a 18.77890
_cell_length_b 17.82700
_cell_length_c 14.36030
_cell_angle_alpha 90.00000
_cell_angle_beta  93.82700
_cell_angle_gamma 90.00000

_symmetry_space_group_name_	'P 1'
_symmetry_space_group_name_H-M	'P 1'

loop_
_symmetry_equiv_pos_as_xyz
  x,y,z

loop_
_atom_site_label
_atom_site_type_symbol
_atom_site_fract_x
_atom_site_fract_y
_atom_site_fract_z
_atom_site_charge
Zn	Zn	0.40718 0.08895 0.84231 1.21700
O 	O 	0.56083 0.08174 0.92200 -0.55700
O 	O 	0.48027 0.16686 0.87250 -0.46100
O 	O 	0.81646 0.35915 0.84530 -0.47300
O 	O 	0.77416 0.41308 0.97160 -0.47000
O 	O 	0.58600 0.12510 0.72710 -0.10600
O 	O 	0.68360 0.16750 0.68160 -0.09400
O 	O 	0.42510 0.06305 0.71390 -0.45500
O 	O 	0.50950 0.18400 0.60100 -0.06000
O 	O 	0.40580 0.15700 0.56700 -0.07700
N 	N 	0.63730 0.16620 0.73760 -0.01700
N 	N 	0.47060 0.14280 0.57390 0.00300
C 	C 	0.60050 0.20530 0.89330 -0.16300
C 	C 	0.64780 0.21120 0.82380 0.13900
C 	C 	0.70290 0.26330 0.82670 -0.08300
H 	H 	0.73480 0.26520 0.77810 0.10500
C 	C 	0.71080 0.31190 0.90070 -0.04300
C 	C 	0.66420 0.30710 0.97050 -0.00200
H 	H 	0.66910 0.34070 0.02190 0.02900
C 	C 	0.61000 0.25400 0.96690 0.08300
H 	H 	0.57900 0.25130 0.01650 -0.00500
C 	C 	0.54330 0.14600 0.89480 0.43600
C 	C 	0.77170 0.36670 0.90670 0.38300
C 	C 	0.48370 0.06710 0.54140 0.10100
Zn	Zn	0.90718 0.58895 0.84231 1.22200
O 	O 	0.06083 0.58174 0.92200 -0.54300
O 	O 	0.98027 0.66686 0.87250 -0.42900
O 	O 	0.31646 0.85915 0.84530 -0.46200
O 	O 	0.27416 0.91308 0.97160 -0.44200
O 	O 	0.08600 0.62510 0.72710 -0.10300
O 	O 	0.18360 0.66750 0.68160 -0.08500
O 	O 	0.92510 0.56305 0.71390 -0.46000
O 	O 	0.00950 0.68400 0.60100 -0.08000
O 	O 	0.90580 0.65700 0.56700 -0.06400
N 	N 	0.13730 0.66620 0.73760 -0.01600
N 	N 	0.97060 0.64280 0.57390 0.01600
C 	C 	0.10050 0.70530 0.89330 -0.15300
C 	C 	0.14780 0.71120 0.82380 0.13800
C 	C 	0.20290 0.76330 0.82670 -0.08300
H 	H 	0.23480 0.76520 0.77810 0.10800
C 	C 	0.21080 0.81190 0.90070 -0.03700
C 	C 	0.16420 0.80710 0.97050 -0.00400
H 	H 	0.16910 0.84070 0.02190 0.03700
C 	C 	0.11000 0.75400 0.96690 0.07600
H 	H 	0.07900 0.75130 0.01650 -0.00300
C 	C 	0.04330 0.64600 0.89480 0.40000
C 	C 	0.27170 0.86670 0.90670 0.38100
C 	C 	0.98370 0.56710 0.54140 0.14000
Zn	Zn	0.59282 0.08895 0.15769 1.21600
O 	O 	0.43917 0.08174 0.07800 -0.57900
O 	O 	0.51973 0.16686 0.12750 -0.46800
O 	O 	0.18354 0.35915 0.15470 -0.47900
O 	O 	0.22584 0.41308 0.02840 -0.50500
O 	O 	0.41400 0.12510 0.27290 -0.10800
O 	O 	0.31640 0.16750 0.31840 -0.10000
O 	O 	0.57490 0.06305 0.28610 -0.45500
O 	O 	0.49050 0.18400 0.39900 -0.06100
O 	O 	0.59420 0.15700 0.43300 -0.07600
N 	N 	0.36270 0.16620 0.26240 -0.01600
N 	N 	0.52940 0.14280 0.42610 0.00300
C 	C 	0.39950 0.20530 0.10670 -0.13900
C 	C 	0.35220 0.21120 0.17620 0.12900
C 	C 	0.29710 0.26330 0.17330 -0.09300
H 	H 	0.26520 0.26520 0.22190 0.10400
C 	C 	0.28920 0.31190 0.09930 -0.02300
C 	C 	0.33580 0.30710 0.02950 -0.09800
H 	H 	0.33090 0.34070 0.97810 0.11200
C 	C 	0.39000 0.25400 0.03310 -0.01500
H 	H 	0.42100 0.25130 0.98350 0.07600
C 	C 	0.45670 0.14600 0.10520 0.41800
C 	C 	0.22830 0.36670 0.09330 0.36900
C 	C 	0.51630 0.06710 0.45860 0.10100
Zn	Zn	0.09282 0.58895 0.15769 1.21800
O 	O 	0.93917 0.58174 0.07800 -0.56700
O 	O 	0.01973 0.66686 0.12750 -0.49200
O 	O 	0.68354 0.85915 0.15470 -0.46400
O 	O 	0.72584 0.91308 0.02840 -0.47300
O 	O 	0.91400 0.62510 0.27290 -0.09000
O 	O 	0.81640 0.66750 0.31840 -0.08400
O 	O 	0.07490 0.56305 0.28610 -0.46500
O 	O 	0.99050 0.68400 0.39900 -0.02800
O 	O 	0.09420 0.65700 0.43300 -0.07000
N 	N 	0.86270 0.66620 0.26240 -0.01900
N 	N 	0.02940 0.64280 0.42610 -0.01200
C 	C 	0.89950 0.70530 0.10670 -0.14900
C 	C 	0.85220 0.71120 0.17620 0.14400
C 	C 	0.79710 0.76330 0.17330 -0.10000
H 	H 	0.76520 0.76520 0.22190 0.11300
C 	C 	0.78920 0.81190 0.09930 -0.00800
C 	C 	0.83580 0.80710 0.02950 -0.10300
H 	H 	0.83090 0.84070 0.97810 0.12200
C 	C 	0.89000 0.75400 0.03310 0.00400
H 	H 	0.92100 0.75130 0.98350 0.07600
C 	C 	0.95670 0.64600 0.10520 0.45100
C 	C 	0.72830 0.86670 0.09330 0.36500
C 	C 	0.01630 0.56710 0.45860 0.05800
Zn	Zn	0.59282 0.91105 0.15769 1.23000
O 	O 	0.43917 0.91826 0.07800 -0.53000
O 	O 	0.51973 0.83314 0.12750 -0.45900
O 	O 	0.18354 0.64085 0.15470 -0.47700
O 	O 	0.22584 0.58692 0.02840 -0.50500
O 	O 	0.41400 0.87490 0.27290 -0.08300
O 	O 	0.31640 0.83250 0.31840 -0.07700
O 	O 	0.57490 0.93695 0.28610 -0.39600
O 	O 	0.49050 0.81600 0.39900 -0.05600
O 	O 	0.59420 0.84300 0.43300 -0.06100
N 	N 	0.36270 0.83380 0.26240 -0.01800
N 	N 	0.52940 0.85720 0.42610 -0.00400
C 	C 	0.39950 0.79470 0.10670 -0.13500
C 	C 	0.35220 0.78880 0.17620 0.13600
C 	C 	0.29710 0.73670 0.17330 -0.09400
H 	H 	0.26520 0.73480 0.22190 0.10900
C 	C 	0.28920 0.68810 0.09930 -0.02200
C 	C 	0.33580 0.69290 0.02950 -0.09700
H 	H 	0.33090 0.65930 0.97810 0.11000
C 	C 	0.39000 0.74600 0.03310 -0.01300
H 	H 	0.42100 0.74870 0.98350 0.07500
C 	C 	0.45670 0.85400 0.10520 0.40900
C 	C 	0.22830 0.63330 0.09330 0.36900
C 	C 	0.51630 0.93290 0.45860 0.15600
Zn	Zn	0.09282 0.41105 0.15769 1.21800
O 	O 	0.93917 0.41826 0.07800 -0.56600
O 	O 	0.01973 0.33314 0.12750 -0.49700
O 	O 	0.68354 0.14085 0.15470 -0.48300
O 	O 	0.72584 0.08692 0.02840 -0.52000
O 	O 	0.91400 0.37490 0.27290 -0.09200
O 	O 	0.81640 0.33250 0.31840 -0.08900
O 	O 	0.07490 0.43695 0.28610 -0.46600
O 	O 	0.99050 0.31600 0.39900 -0.03800
O 	O 	0.09420 0.34300 0.43300 -0.07700
N 	N 	0.86270 0.33380 0.26240 -0.01900
N 	N 	0.02940 0.35720 0.42610 -0.01000
C 	C 	0.89950 0.29470 0.10670 -0.14800
C 	C 	0.85220 0.28880 0.17620 0.13700
C 	C 	0.79710 0.23670 0.17330 -0.09700
H 	H 	0.76520 0.23480 0.22190 0.10600
C 	C 	0.78920 0.18810 0.09930 -0.02500
C 	C 	0.83580 0.19290 0.02950 -0.10200
H 	H 	0.83090 0.15930 0.97810 0.10700
C 	C 	0.89000 0.24600 0.03310 -0.00800
H 	H 	0.92100 0.24870 0.98350 0.07500
C 	C 	0.95670 0.35400 0.10520 0.45000
C 	C 	0.72830 0.13330 0.09330 0.36800
C 	C 	0.01630 0.43290 0.45860 0.05700
Zn	Zn	0.40718 0.91105 0.84231 1.23200
O 	O 	0.56083 0.91826 0.92200 -0.51000
O 	O 	0.48027 0.83314 0.87250 -0.45300
O 	O 	0.81646 0.64085 0.84530 -0.47100
O 	O 	0.77416 0.58692 0.97160 -0.47000
O 	O 	0.58600 0.87490 0.72710 -0.08100
O 	O 	0.68360 0.83250 0.68160 -0.07200
O 	O 	0.42510 0.93695 0.71390 -0.39800
O 	O 	0.50950 0.81600 0.60100 -0.05600
O 	O 	0.40580 0.84300 0.56700 -0.06200
N 	N 	0.63730 0.83380 0.73760 -0.01900
N 	N 	0.47060 0.85720 0.57390 -0.00400
C 	C 	0.60050 0.79470 0.89330 -0.15600
C 	C 	0.64780 0.78880 0.82380 0.14400
C 	C 	0.70290 0.73670 0.82670 -0.08400
H 	H 	0.73480 0.73480 0.77810 0.11000
C 	C 	0.71080 0.68810 0.90070 -0.04200
C 	C 	0.66420 0.69290 0.97050 -0.00300
H 	H 	0.66910 0.65930 0.02190 0.03000
C 	C 	0.61000 0.74600 0.96690 0.07800
H 	H 	0.57900 0.74870 0.01650 -0.00200
C 	C 	0.54330 0.85400 0.89480 0.42700
C 	C 	0.77170 0.63330 0.90670 0.38200
C 	C 	0.48370 0.93290 0.54140 0.15500
Zn	Zn	0.90718 0.41105 0.84231 1.22200
O 	O 	0.06083 0.41826 0.92200 -0.54300
O 	O 	0.98027 0.33314 0.87250 -0.43300
O 	O 	0.31646 0.14085 0.84530 -0.48000
O 	O 	0.27416 0.08692 0.97160 -0.48600
O 	O 	0.08600 0.37490 0.72710 -0.10500
O 	O 	0.18360 0.33250 0.68160 -0.09000
O 	O 	0.92510 0.43695 0.71390 -0.46100
O 	O 	0.00950 0.31600 0.60100 -0.09000
O 	O 	0.90580 0.34300 0.56700 -0.07200
N 	N 	0.13730 0.33380 0.73760 -0.01600
N 	N 	0.97060 0.35720 0.57390 0.01800
C 	C 	0.10050 0.29470 0.89330 -0.15200
C 	C 	0.14780 0.28880 0.82380 0.13100
C 	C 	0.20290 0.23670 0.82670 -0.07800
H 	H 	0.23480 0.23480 0.77810 0.10100
C 	C 	0.21080 0.18810 0.90070 -0.05600
C 	C 	0.16420 0.19290 0.97050 0.00600
H 	H 	0.16910 0.15930 0.02190 0.01600
C 	C 	0.11000 0.24600 0.96690 0.06700
H 	H 	0.07900 0.24870 0.01650 -0.00800
C 	C 	0.04330 0.35400 0.89480 0.39900
C 	C 	0.27170 0.13330 0.90670 0.38500
C 	C 	0.98370 0.43290 0.54140 0.13900
Zn	Zn	0.50000 0.00000 -0.00000 1.17600
Zn	Zn	0.00000 0.50000 -0.00000 1.18200
Zn	Zn	0.33810 0.00000 0.00940 1.16800
O 	O 	0.41150 0.00000 0.91960 -0.93800
C 	C 	0.43600 0.00000 0.67830 0.34000
C 	C 	0.46710 0.00000 0.58330 -0.16800
Zn	Zn	0.83810 0.50000 0.00940 1.18600
O 	O 	0.91150 0.50000 0.91960 -0.89600
C 	C 	0.93600 0.50000 0.67830 0.42200
C 	C 	0.96710 0.50000 0.58330 -0.12700
Zn	Zn	0.66190 0.00000 0.99060 1.19800
O 	O 	0.58850 0.00000 0.08040 -0.96800
C 	C 	0.56400 0.00000 0.32170 0.33900
C 	C 	0.53290 0.00000 0.41670 -0.16800
Zn	Zn	0.16190 0.50000 0.99060 1.21500
O 	O 	0.08850 0.50000 0.08040 -0.93600
C 	C 	0.06400 0.50000 0.32170 0.40400
C 	C 	0.03290 0.50000 0.41670 -0.09000
