data_crystal

_cell_length_a 10.22400
_cell_length_b 11.72300
_cell_length_c 12.22700
_cell_angle_alpha 65.98000
_cell_angle_beta  71.30500
_cell_angle_gamma 84.62200

_symmetry_space_group_name_	'P 1'
_symmetry_space_group_name_H-M	'P 1'

loop_
_symmetry_equiv_pos_as_xyz
  x,y,z

loop_
_atom_site_label
_atom_site_type_symbol
_atom_site_fract_x
_atom_site_fract_y
_atom_site_fract_z
_atom_site_charge
Mn	Mn	0.00000 0.50000 0.50000 1.27600
Mn	Mn	0.50000 0.50000 0.50000 1.30000
H 	H 	0.87520 0.81840 0.43730 0.14000
H 	H 	0.59430 0.83030 0.52900 0.03600
H 	H 	0.91080 0.00590 0.42990 0.09900
H 	H 	0.92930 0.18340 0.46540 0.03000
H 	H 	0.52980 0.16150 0.63870 0.01600
H 	H 	0.51350 0.97660 0.61630 0.08300
H 	H 	0.93410 0.41030 0.31090 0.10100
H 	H 	0.02230 0.40830 0.11200 0.01900
H 	H 	0.37830 0.55250 0.07900 0.06300
H 	H 	0.28420 0.53940 0.28230 0.01200
H 	H 	0.39820 0.64170 0.87020 0.08200
H 	H 	0.49310 0.64600 0.67300 -0.00200
H 	H 	0.25660 0.36180 0.75800 0.00100
H 	H 	0.15640 0.35000 0.95640 0.07400
H 	H 	0.12480 0.18160 0.56270 0.10600
H 	H 	0.40570 0.16970 0.47100 0.03700
H 	H 	0.08920 0.99410 0.57010 0.06400
H 	H 	0.07070 0.81660 0.53460 -0.01300
H 	H 	0.47020 0.83850 0.36130 0.01800
H 	H 	0.48650 0.02340 0.38370 0.08100
H 	H 	0.06590 0.58970 0.68910 -0.10300
H 	H 	0.97770 0.59170 0.88800 0.13600
H 	H 	0.62170 0.44750 0.92100 0.09200
H 	H 	0.71580 0.46060 0.71770 -0.00200
H 	H 	0.60180 0.35830 0.12980 0.07300
H 	H 	0.50690 0.35400 0.32700 0.00300
H 	H 	0.74340 0.63820 0.24200 0.01800
H 	H 	0.84360 0.65000 0.04360 0.08500
C 	C 	0.75070 0.67910 0.44450 0.43600
C 	C 	0.78330 0.79330 0.46010 -0.24500
C 	C 	0.68520 0.85870 0.50510 0.01700
C 	C 	0.70700 0.97250 0.52080 0.08400
C 	C 	0.83290 0.03520 0.47390 -0.14000
C 	C 	0.84260 0.14460 0.49310 0.07700
C 	C 	0.72990 0.19630 0.55080 -0.15700
C 	C 	0.60870 0.13170 0.59660 0.07700
C 	C 	0.59890 0.01940 0.58190 -0.15200
C 	C 	0.74600 0.31390 0.56910 0.40000
C 	C 	0.02500 0.43870 0.26390 -0.09900
C 	C 	0.07690 0.43890 0.14290 -0.04100
C 	C 	0.21000 0.48500 0.07010 -0.00300
C 	C 	0.28740 0.52260 0.12410 -0.09500
C 	C 	0.22920 0.51580 0.24680 0.04700
C 	C 	0.26830 0.49320 0.93880 0.07700
C 	C 	0.36830 0.58270 0.84970 -0.15700
C 	C 	0.42410 0.58550 0.73070 0.08200
C 	C 	0.28580 0.41940 0.78060 0.08400
C 	C 	0.22570 0.41080 0.90050 -0.15800
C 	C 	0.24930 0.32090 0.55550 0.43400
C 	C 	0.21670 0.20670 0.53990 -0.24700
C 	C 	0.31480 0.14130 0.49490 0.00900
C 	C 	0.29300 0.02750 0.47920 0.07100
C 	C 	0.16710 0.96480 0.52610 -0.15000
C 	C 	0.15740 0.85540 0.50690 0.07500
C 	C 	0.27010 0.80370 0.44920 -0.17100
C 	C 	0.39130 0.86830 0.40340 0.07500
C 	C 	0.40110 0.98060 0.41810 -0.14600
C 	C 	0.25400 0.68610 0.43090 0.41200
C 	C 	0.97500 0.56130 0.73610 0.25600
C 	C 	0.92310 0.56110 0.85710 -0.22600
C 	C 	0.79000 0.51500 0.92990 0.11200
C 	C 	0.71260 0.47740 0.87590 -0.17000
C 	C 	0.77080 0.48420 0.75320 0.10500
C 	C 	0.73170 0.50680 0.06120 0.03700
C 	C 	0.63170 0.41730 0.15030 -0.12100
C 	C 	0.57590 0.41450 0.26930 0.06900
C 	C 	0.71420 0.58060 0.21940 0.07300
C 	C 	0.77430 0.58920 0.09950 -0.11700
N 	N 	0.09980 0.47740 0.31500 -0.20400
N 	N 	0.38440 0.50510 0.69310 -0.22700
N 	N 	0.90020 0.52260 0.68500 -0.24400
N 	N 	0.61560 0.49490 0.30690 -0.22100
O 	O 	0.85120 0.61540 0.41450 -0.42700
O 	O 	0.62820 0.65920 0.45700 -0.44800
O 	O 	0.86730 0.33920 0.56160 -0.40900
O 	O 	0.64200 0.37500 0.59200 -0.43700
O 	O 	0.14880 0.38460 0.58550 -0.47000
O 	O 	0.37180 0.34080 0.54300 -0.45100
O 	O 	0.13270 0.66080 0.43840 -0.45800
O 	O 	0.35800 0.62500 0.40800 -0.44300
