data_crystal

_cell_length_a 9.31700
_cell_length_b 11.74200
_cell_length_c 13.25100
_cell_angle_alpha 90.00000
_cell_angle_beta  90.19500
_cell_angle_gamma 90.00000

_symmetry_space_group_name_	'P 1'
_symmetry_space_group_name_H-M	'P 1'

loop_
_symmetry_equiv_pos_as_xyz
  x,y,z

loop_
_atom_site_label
_atom_site_type_symbol
_atom_site_fract_x
_atom_site_fract_y
_atom_site_fract_z
_atom_site_charge
Mn	Mn	0.25000 0.05513 -0.00000 1.27700
Mn	Mn	0.75000 0.94487 -0.00000 1.27800
H 	H 	0.56980 0.79340 0.73870 -0.01900
H 	H 	0.47390 0.70720 0.59570 0.15500
H 	H 	0.16150 0.94170 0.58950 0.14800
H 	H 	0.25830 0.02760 0.73170 -0.01500
H 	H 	0.35290 0.83590 0.12750 0.01400
H 	H 	0.35790 0.64220 0.13120 0.06900
H 	H 	0.42650 0.46600 0.08620 0.06600
H 	H 	0.42380 0.27240 0.08060 0.00700
H 	H 	0.93020 0.79340 0.26130 -0.01100
H 	H 	0.02610 0.70720 0.40430 0.14700
H 	H 	0.33850 0.94170 0.41050 0.14800
H 	H 	0.24170 0.02760 0.26830 -0.01400
H 	H 	0.14710 0.83590 0.87250 -0.00100
H 	H 	0.14210 0.64220 0.86880 0.06000
H 	H 	0.07350 0.46600 0.91380 0.06900
H 	H 	0.07620 0.27240 0.91940 0.00400
H 	H 	0.43020 0.20660 0.26130 -0.02500
H 	H 	0.52610 0.29280 0.40430 0.15400
H 	H 	0.83850 0.05830 0.41050 0.15100
H 	H 	0.74170 0.97240 0.26830 -0.01600
H 	H 	0.64710 0.16410 0.87250 -0.00000
H 	H 	0.64210 0.35780 0.86880 0.06200
H 	H 	0.57350 0.53400 0.91380 0.07100
H 	H 	0.57620 0.72760 0.91940 0.00500
H 	H 	0.06980 0.20660 0.73870 -0.02100
H 	H 	0.97390 0.29280 0.59570 0.15400
H 	H 	0.66150 0.05830 0.58950 0.14900
H 	H 	0.75830 0.97240 0.73170 -0.01300
H 	H 	0.85290 0.16410 0.12750 0.01400
H 	H 	0.85790 0.35780 0.13120 0.06900
H 	H 	0.92650 0.53400 0.08620 0.06800
H 	H 	0.92380 0.72760 0.08060 0.00900
C 	C 	0.48080 0.97180 0.84560 0.42700
C 	C 	0.42380 0.91850 0.75060 -0.23500
C 	C 	0.48750 0.82330 0.70900 0.18800
C 	C 	0.43060 0.77130 0.62350 -0.30800
C 	C 	0.30830 0.81720 0.58080 0.32400
C 	C 	0.24350 0.91190 0.61970 -0.31800
C 	C 	0.30160 0.96300 0.70490 0.18200
C 	C 	0.31040 0.79620 0.07450 0.04200
C 	C 	0.31350 0.67940 0.07750 -0.11000
C 	C 	0.35440 0.42870 0.05040 -0.12000
C 	C 	0.35120 0.31200 0.04750 0.05000
C 	C 	0.01920 0.97180 0.15440 0.41600
C 	C 	0.07620 0.91850 0.24940 -0.23100
C 	C 	0.01250 0.82330 0.29100 0.16600
C 	C 	0.06940 0.77130 0.37650 -0.29800
C 	C 	0.19170 0.81720 0.41920 0.31700
C 	C 	0.25650 0.91190 0.38030 -0.31300
C 	C 	0.19840 0.96300 0.29510 0.17500
C 	C 	0.18960 0.79620 0.92550 0.12600
C 	C 	0.18650 0.67940 0.92250 -0.03700
C 	C 	0.14560 0.42870 0.94960 -0.04300
C 	C 	0.14880 0.31200 0.95250 0.13800
C 	C 	0.51920 0.02820 0.15440 0.43300
C 	C 	0.57620 0.08150 0.24940 -0.24400
C 	C 	0.51250 0.17670 0.29100 0.19200
C 	C 	0.56940 0.22870 0.37650 -0.31300
C 	C 	0.69170 0.18280 0.41920 0.32700
C 	C 	0.75650 0.08810 0.38030 -0.32200
C 	C 	0.69840 0.03700 0.29510 0.18500
C 	C 	0.68960 0.20380 0.92550 0.12600
C 	C 	0.68650 0.32060 0.92250 -0.03800
C 	C 	0.64560 0.57130 0.94960 -0.04400
C 	C 	0.64880 0.68800 0.95250 0.13900
C 	C 	0.98080 0.02820 0.84560 0.42100
C 	C 	0.92380 0.08150 0.75060 -0.23300
C 	C 	0.98750 0.17670 0.70900 0.18900
C 	C 	0.93060 0.22870 0.62350 -0.30900
C 	C 	0.80830 0.18280 0.58080 0.32400
C 	C 	0.74350 0.08810 0.61970 -0.31700
C 	C 	0.80160 0.03700 0.70490 0.17900
C 	C 	0.81040 0.20380 0.07450 0.04300
C 	C 	0.81350 0.32060 0.07750 -0.11000
C 	C 	0.85440 0.57130 0.05040 -0.12000
C 	C 	0.85120 0.68800 0.04750 0.05100
C 	C 	0.25000 0.61670 -0.00000 -0.03000
C 	C 	0.25000 0.49140 -0.00000 -0.02100
C 	C 	0.75000 0.38330 -0.00000 -0.02800
C 	C 	0.75000 0.50860 -0.00000 -0.02000
N 	N 	0.25000 0.85640 -0.00000 -0.27000
N 	N 	0.25000 0.25200 -0.00000 -0.26100
N 	N 	0.75000 0.14360 -0.00000 -0.26900
N 	N 	0.75000 0.74800 -0.00000 -0.26000
O 	O 	0.41260 0.05218 0.88403 -0.42000
O 	O 	0.59660 0.93081 0.87942 -0.41900
O 	O 	0.08740 0.05218 0.11597 -0.46200
O 	O 	0.90340 0.93081 0.12058 -0.45100
O 	O 	0.58740 0.94782 0.11597 -0.46600
O 	O 	0.40340 0.06919 0.12058 -0.46100
O 	O 	0.91260 0.94782 0.88403 -0.41500
O 	O 	0.09660 0.06919 0.87942 -0.41800
O 	O 	0.25000 0.75670 0.50000 -0.31900
O 	O 	0.75000 0.24330 0.50000 -0.32000
