data_crystal

_cell_length_a 8.67000
_cell_length_b 9.74200
_cell_length_c 10.40600
_cell_angle_alpha 81.44000
_cell_angle_beta  65.83000
_cell_angle_gamma 67.16000

_symmetry_space_group_name_	'P 1'
_symmetry_space_group_name_H-M	'P 1'

loop_
_symmetry_equiv_pos_as_xyz
  x,y,z

loop_
_atom_site_label
_atom_site_type_symbol
_atom_site_fract_x
_atom_site_fract_y
_atom_site_fract_z
_atom_site_charge
Ga	Ga	0.13242 0.14930 0.86246 2.08100
Ga	Ga	0.11989 0.54631 0.84910 2.09200
P 	P 	0.24120 0.80290 0.88240 0.54200
P 	P 	0.19940 0.35790 0.59080 0.51200
P 	P 	0.71230 0.71930 0.99010 0.51300
F 	F 	0.00100 0.39280 0.93710 -0.92600
O 	O 	0.24000 0.94810 0.80190 -0.56300
O 	O 	0.10390 0.84030 0.03650 -0.63300
O 	O 	0.20180 0.70820 0.80520 -0.56600
O 	O 	0.71460 0.84980 0.05680 -0.62500
O 	O 	0.68880 0.59350 0.09650 -0.55000
O 	O 	0.87950 0.66530 0.85340 -0.53600
O 	O 	0.36230 0.30430 0.45550 -0.21900
O 	O 	0.17220 0.22490 0.68720 -0.61600
O 	O 	0.21470 0.47430 0.66540 -0.56700
C 	C 	0.51330 0.80510 0.95150 -0.17900
H 	H 	0.41030 0.85080 0.03970 0.10700
H 	H 	0.52980 0.88700 0.88490 0.10700
C 	C 	0.99570 0.44030 0.55610 -0.20200
H 	H 	0.97280 0.36110 0.52550 0.11200
H 	H 	0.89230 0.48480 0.64450 0.10400
C 	C 	0.45860 0.70630 0.88900 -0.23200
H 	H 	0.45730 0.61620 0.94720 0.11400
H 	H 	0.54960 0.67380 0.79270 0.13300
Ga	Ga	0.86758 0.85070 0.13754 2.08000
Ga	Ga	0.88011 0.45369 0.15090 2.09100
P 	P 	0.75880 0.19710 0.11760 0.54100
P 	P 	0.80060 0.64210 0.40920 0.51100
P 	P 	0.28770 0.28070 0.00990 0.51200
F 	F 	0.99900 0.60720 0.06290 -0.92700
O 	O 	0.76000 0.05190 0.19810 -0.56300
O 	O 	0.89610 0.15970 0.96350 -0.63300
O 	O 	0.79820 0.29180 0.19480 -0.56600
O 	O 	0.28540 0.15020 0.94320 -0.62500
O 	O 	0.31120 0.40650 0.90350 -0.55000
O 	O 	0.12050 0.33470 0.14660 -0.53600
O 	O 	0.63770 0.69570 0.54450 -0.21900
O 	O 	0.82780 0.77510 0.31280 -0.61600
O 	O 	0.78530 0.52570 0.33460 -0.56700
C 	C 	0.48670 0.19490 0.04850 -0.17900
H 	H 	0.58970 0.14920 0.96030 0.10700
H 	H 	0.47020 0.11300 0.11510 0.10700
C 	C 	0.00430 0.55970 0.44390 -0.20200
H 	H 	0.02720 0.63890 0.47450 0.11200
H 	H 	0.10770 0.51520 0.35550 0.10400
C 	C 	0.54140 0.29370 0.11100 -0.23200
H 	H 	0.54270 0.38380 0.05280 0.11400
H 	H 	0.45040 0.32620 0.20730 0.13300
