data_crystal

_cell_length_a 22.13900
_cell_length_b 13.66100
_cell_length_c 10.48100
_cell_angle_alpha 90.00000
_cell_angle_beta  90.06000
_cell_angle_gamma 90.00000

_symmetry_space_group_name_	'P 1'
_symmetry_space_group_name_H-M	'P 1'

loop_
_symmetry_equiv_pos_as_xyz
  x,y,z

loop_
_atom_site_label
_atom_site_type_symbol
_atom_site_fract_x
_atom_site_fract_y
_atom_site_fract_z
_atom_site_charge
Zn	Zn	0.39842 0.04063 0.68857 1.24700
Zn	Zn	0.25709 0.11128 0.44731 1.23300
P 	P 	0.35017 0.23624 0.58136 0.44900
H 	H 	0.39100 0.29500 0.54500 -0.04100
P 	P 	0.26430 0.97957 0.68033 0.43100
H 	H 	0.23440 0.89500 0.65100 -0.02300
P 	P 	0.47238 0.97270 0.93540 0.43300
O 	O 	0.42490 0.03340 0.87340 -0.24500
O 	O 	0.41340 0.97200 0.84420 -0.28500
O 	O 	0.46576 0.01480 0.58430 -0.53400
O 	O 	0.32841 0.96490 0.63470 -0.45000
O 	O 	0.37616 0.17680 0.69020 -0.43000
O 	O 	0.23099 0.05900 0.60880 -0.43500
O 	O 	0.33529 0.17560 0.46410 -0.46100
O 	O 	0.29690 0.29500 0.62880 -0.45600
O 	O 	0.26017 0.99460 0.82380 -0.43100
Zn	Zn	0.89842 0.54063 0.68857 1.24600
Zn	Zn	0.75709 0.61128 0.44731 1.23200
P 	P 	0.85017 0.73624 0.58136 0.44800
H 	H 	0.89100 0.79500 0.54500 -0.04200
P 	P 	0.76430 0.47957 0.68033 0.43100
H 	H 	0.73440 0.39500 0.65100 -0.02300
P 	P 	0.97238 0.47270 0.93540 0.43500
O 	O 	0.92490 0.53340 0.87340 -0.24700
O 	O 	0.91340 0.47200 0.84420 -0.28400
O 	O 	0.96576 0.51480 0.58430 -0.53500
O 	O 	0.82841 0.46490 0.63470 -0.45000
O 	O 	0.87616 0.67680 0.69020 -0.43000
O 	O 	0.73099 0.55900 0.60880 -0.43600
O 	O 	0.83529 0.67560 0.46410 -0.46100
O 	O 	0.79690 0.79500 0.62880 -0.45600
O 	O 	0.76017 0.49460 0.82380 -0.43000
Zn	Zn	0.60158 0.04063 0.81143 1.24600
Zn	Zn	0.74291 0.11128 0.05269 1.23200
P 	P 	0.64983 0.23624 0.91864 0.44800
H 	H 	0.60900 0.29500 0.95500 -0.04200
P 	P 	0.73570 0.97957 0.81967 0.43000
H 	H 	0.76560 0.89500 0.84900 -0.02300
P 	P 	0.52762 0.97270 0.56460 0.43500
O 	O 	0.57510 0.03340 0.62660 -0.24600
O 	O 	0.58660 0.97200 0.65580 -0.28400
O 	O 	0.53424 0.01480 0.91570 -0.53300
O 	O 	0.67159 0.96490 0.86530 -0.45000
O 	O 	0.62384 0.17680 0.80980 -0.43000
O 	O 	0.76901 0.05900 0.89120 -0.43500
O 	O 	0.66471 0.17560 0.03590 -0.46100
O 	O 	0.70310 0.29500 0.87120 -0.45600
O 	O 	0.73983 0.99460 0.67620 -0.43000
Zn	Zn	0.10158 0.54063 0.81143 1.24600
Zn	Zn	0.24291 0.61128 0.05269 1.23200
P 	P 	0.14983 0.73624 0.91864 0.44800
H 	H 	0.10900 0.79500 0.95500 -0.04200
P 	P 	0.23570 0.47957 0.81967 0.43100
H 	H 	0.26560 0.39500 0.84900 -0.02200
P 	P 	0.02762 0.47270 0.56460 0.43500
O 	O 	0.07510 0.53340 0.62660 -0.24700
O 	O 	0.08660 0.47200 0.65580 -0.28400
O 	O 	0.03424 0.51480 0.91570 -0.53400
O 	O 	0.17159 0.46490 0.86530 -0.44900
O 	O 	0.12384 0.67680 0.80980 -0.43000
O 	O 	0.26901 0.55900 0.89120 -0.43600
O 	O 	0.16471 0.67560 0.03590 -0.46100
O 	O 	0.20310 0.79500 0.87120 -0.45600
O 	O 	0.23983 0.49460 0.67620 -0.43000
Zn	Zn	0.60158 0.95937 0.31143 1.24600
Zn	Zn	0.74291 0.88872 0.55269 1.23200
P 	P 	0.64983 0.76376 0.41864 0.44800
H 	H 	0.60900 0.70500 0.45500 -0.04200
P 	P 	0.73570 0.02043 0.31967 0.43100
H 	H 	0.76560 0.10500 0.34900 -0.02300
P 	P 	0.52762 0.02730 0.06460 0.43300
O 	O 	0.57510 0.96660 0.12660 -0.24500
O 	O 	0.58660 0.02800 0.15580 -0.28500
O 	O 	0.53424 0.98520 0.41570 -0.53400
O 	O 	0.67159 0.03510 0.36530 -0.45000
O 	O 	0.62384 0.82320 0.30980 -0.43000
O 	O 	0.76901 0.94100 0.39120 -0.43500
O 	O 	0.66471 0.82440 0.53590 -0.46100
O 	O 	0.70310 0.70500 0.37120 -0.45600
O 	O 	0.73983 0.00540 0.17620 -0.43100
Zn	Zn	0.10158 0.45937 0.31143 1.24600
Zn	Zn	0.24291 0.38872 0.55269 1.23200
P 	P 	0.14983 0.26376 0.41864 0.44800
H 	H 	0.10900 0.20500 0.45500 -0.04200
P 	P 	0.23570 0.52043 0.31967 0.43100
H 	H 	0.26560 0.60500 0.34900 -0.02300
P 	P 	0.02762 0.52730 0.06460 0.43500
O 	O 	0.07510 0.46660 0.12660 -0.24700
O 	O 	0.08660 0.52800 0.15580 -0.28400
O 	O 	0.03424 0.48520 0.41570 -0.53500
O 	O 	0.17159 0.53510 0.36530 -0.45000
O 	O 	0.12384 0.32320 0.30980 -0.43000
O 	O 	0.26901 0.44100 0.39120 -0.43600
O 	O 	0.16471 0.32440 0.53590 -0.46100
O 	O 	0.20310 0.20500 0.37120 -0.45600
O 	O 	0.23983 0.50540 0.17620 -0.43000
Zn	Zn	0.39842 0.95937 0.18857 1.24600
Zn	Zn	0.25709 0.88872 0.94731 1.23200
P 	P 	0.35017 0.76376 0.08136 0.44800
H 	H 	0.39100 0.70500 0.04500 -0.04200
P 	P 	0.26430 0.02043 0.18033 0.43000
H 	H 	0.23440 0.10500 0.15100 -0.02300
P 	P 	0.47238 0.02730 0.43540 0.43500
O 	O 	0.42490 0.96660 0.37340 -0.24600
O 	O 	0.41340 0.02800 0.34420 -0.28400
O 	O 	0.46576 0.98520 0.08430 -0.53300
O 	O 	0.32841 0.03510 0.13470 -0.45000
O 	O 	0.37616 0.82320 0.19020 -0.43000
O 	O 	0.23099 0.94100 0.10880 -0.43500
O 	O 	0.33529 0.82440 0.96410 -0.46100
O 	O 	0.29690 0.70500 0.12880 -0.45600
O 	O 	0.26017 0.00540 0.32380 -0.43000
Zn	Zn	0.89842 0.45937 0.18857 1.24600
Zn	Zn	0.75709 0.38872 0.94731 1.23200
P 	P 	0.85017 0.26376 0.08136 0.44800
H 	H 	0.89100 0.20500 0.04500 -0.04200
P 	P 	0.76430 0.52043 0.18033 0.43100
H 	H 	0.73440 0.60500 0.15100 -0.02200
P 	P 	0.97238 0.52730 0.43540 0.43500
O 	O 	0.92490 0.46660 0.37340 -0.24700
O 	O 	0.91340 0.52800 0.34420 -0.28400
O 	O 	0.96576 0.48520 0.08430 -0.53400
O 	O 	0.82841 0.53510 0.13470 -0.44900
O 	O 	0.87616 0.32320 0.19020 -0.43000
O 	O 	0.73099 0.44100 0.10880 -0.43600
O 	O 	0.83529 0.32440 0.96410 -0.46100
O 	O 	0.79690 0.20500 0.12880 -0.45600
O 	O 	0.76017 0.50540 0.32380 -0.43000
