data_crystal

_cell_length_a 16.38160
_cell_length_b 16.38160
_cell_length_c 16.38160
_cell_angle_alpha 90.89250
_cell_angle_beta  90.89250
_cell_angle_gamma 90.89250

_symmetry_space_group_name_	'P 1'
_symmetry_space_group_name_H-M	'P 1'

loop_
_symmetry_equiv_pos_as_xyz
  x,y,z

loop_
_atom_site_label
_atom_site_type_symbol
_atom_site_fract_x
_atom_site_fract_y
_atom_site_fract_z
_atom_site_charge
Cd	Cd	0.50000 0.50000 -0.00000 1.16900
Cd	Cd	0.00000 0.50000 0.50000 1.16900
Cd	Cd	0.50000 0.00000 0.50000 1.16900
H 	H 	0.42916 0.33090 0.94518 -0.00800
H 	H 	0.42502 0.18865 0.99173 0.07100
H 	H 	0.57785 0.26081 0.19819 0.04900
H 	H 	0.57305 0.40291 0.15090 -0.02600
H 	H 	0.39758 0.99672 0.10990 0.03200
H 	H 	0.94518 0.42916 0.33090 -0.00900
H 	H 	0.99173 0.42502 0.18865 0.07100
H 	H 	0.19819 0.57785 0.26081 0.04900
H 	H 	0.15090 0.57305 0.40291 -0.02600
H 	H 	0.10990 0.39758 0.99672 0.03200
H 	H 	0.33090 0.94518 0.42916 -0.00900
H 	H 	0.18865 0.99173 0.42502 0.07100
H 	H 	0.26081 0.19819 0.57785 0.04900
H 	H 	0.40291 0.15090 0.57305 -0.02600
H 	H 	0.99672 0.10990 0.39758 0.03200
H 	H 	0.67286 0.44197 0.06246 -0.00400
H 	H 	0.81304 0.43560 0.01542 0.02300
H 	H 	0.73739 0.55219 0.79270 0.05100
H 	H 	0.59572 0.54727 0.84097 -0.01300
H 	H 	0.00348 0.39574 0.88868 0.05100
H 	H 	0.44197 0.06246 0.67286 -0.00400
H 	H 	0.43560 0.01542 0.81304 0.02300
H 	H 	0.55219 0.79270 0.73739 0.05100
H 	H 	0.54727 0.84096 0.59572 -0.01300
H 	H 	0.39574 0.88868 0.00348 0.05100
H 	H 	0.06246 0.67286 0.44197 -0.00400
H 	H 	0.01542 0.81304 0.43560 0.02300
H 	H 	0.79270 0.73739 0.55219 0.05100
H 	H 	0.84096 0.59572 0.54727 -0.01300
H 	H 	0.88868 0.00348 0.39574 0.05100
H 	H 	0.57084 0.66910 0.05482 -0.04500
H 	H 	0.57498 0.81135 0.00827 0.03500
H 	H 	0.42215 0.73919 0.80181 0.05200
H 	H 	0.42695 0.59709 0.84910 -0.02300
H 	H 	0.60241 0.00328 0.89010 0.05400
H 	H 	0.05482 0.57084 0.66910 -0.04500
H 	H 	0.00827 0.57498 0.81135 0.03500
H 	H 	0.80181 0.42215 0.73919 0.05200
H 	H 	0.84910 0.42695 0.59709 -0.02300
H 	H 	0.89010 0.60242 0.00328 0.05400
H 	H 	0.66910 0.05482 0.57084 -0.04500
H 	H 	0.81135 0.00827 0.57498 0.03500
H 	H 	0.73919 0.80181 0.42215 0.05200
H 	H 	0.59709 0.84910 0.42695 -0.02300
H 	H 	0.00328 0.89010 0.60241 0.05400
H 	H 	0.32714 0.55803 0.93754 -0.02900
H 	H 	0.18696 0.56440 0.98458 0.08400
H 	H 	0.26261 0.44781 0.20730 0.05300
H 	H 	0.40428 0.45273 0.15904 -0.01900
H 	H 	0.99652 0.60426 0.11132 0.03400
H 	H 	0.55803 0.93754 0.32714 -0.02900
H 	H 	0.56440 0.98458 0.18696 0.08400
H 	H 	0.44781 0.20730 0.26261 0.05300
H 	H 	0.45273 0.15904 0.40428 -0.01800
H 	H 	0.60426 0.11132 0.99652 0.03400
H 	H 	0.93754 0.32714 0.55803 -0.02900
H 	H 	0.98458 0.18696 0.56440 0.08400
H 	H 	0.20730 0.26261 0.44781 0.05300
H 	H 	0.15904 0.40428 0.45273 -0.01800
H 	H 	0.11132 0.99652 0.60426 0.03400
C 	C 	0.46157 0.31510 0.00061 0.01300
C 	C 	0.45932 0.23387 0.02752 -0.12400
C 	C 	0.50109 0.21149 0.09970 0.09600
C 	C 	0.54360 0.27418 0.14314 -0.10700
C 	C 	0.54265 0.35521 0.11501 0.03600
C 	C 	0.44261 0.99856 0.06226 0.00200
C 	C 	0.00062 0.46157 0.31510 0.01300
C 	C 	0.02752 0.45932 0.23387 -0.12400
C 	C 	0.09970 0.50109 0.21149 0.09600
C 	C 	0.14314 0.54360 0.27418 -0.10700
C 	C 	0.11501 0.54265 0.35521 0.03600
C 	C 	0.06227 0.44262 0.99856 0.00200
C 	C 	0.31510 0.00061 0.46157 0.01300
C 	C 	0.23387 0.02752 0.45932 -0.12400
C 	C 	0.21149 0.09970 0.50109 0.09600
C 	C 	0.27418 0.14314 0.54360 -0.10700
C 	C 	0.35521 0.11501 0.54265 0.03600
C 	C 	0.99856 0.06227 0.44261 0.00200
C 	C 	0.68625 0.46361 0.00235 -0.03000
C 	C 	0.76727 0.46127 0.97545 -0.03000
C 	C 	0.78895 0.49326 0.89906 0.07700
C 	C 	0.72496 0.52481 0.85095 -0.09000
C 	C 	0.64375 0.52298 0.87902 0.02900
C 	C 	0.00163 0.44165 0.93684 -0.12100
C 	C 	0.46361 0.00235 0.68625 -0.03000
C 	C 	0.46126 0.97544 0.76727 -0.03000
C 	C 	0.49326 0.89906 0.78894 0.07700
C 	C 	0.52481 0.85095 0.72496 -0.09000
C 	C 	0.52297 0.87902 0.64375 0.02900
C 	C 	0.44165 0.93684 0.00163 -0.12100
C 	C 	0.00235 0.68625 0.46361 -0.03000
C 	C 	0.97544 0.76727 0.46126 -0.03000
C 	C 	0.89905 0.78894 0.49326 0.07700
C 	C 	0.85095 0.72496 0.52481 -0.09000
C 	C 	0.87902 0.64375 0.52298 0.02900
C 	C 	0.93684 0.00163 0.44165 -0.12100
C 	C 	0.53843 0.68490 0.99939 0.05900
C 	C 	0.54068 0.76613 0.97248 -0.08000
C 	C 	0.49891 0.78851 0.90030 0.09600
C 	C 	0.45640 0.72582 0.85686 -0.10300
C 	C 	0.45735 0.64479 0.88499 0.03900
C 	C 	0.55738 0.00144 0.93773 -0.12000
C 	C 	0.99939 0.53843 0.68490 0.05900
C 	C 	0.97248 0.54068 0.76613 -0.08000
C 	C 	0.90030 0.49891 0.78851 0.09600
C 	C 	0.85686 0.45640 0.72582 -0.10300
C 	C 	0.88499 0.45735 0.64479 0.03900
C 	C 	0.93774 0.55738 0.00144 -0.12000
C 	C 	0.68490 0.99939 0.53843 0.05900
C 	C 	0.76613 0.97248 0.54068 -0.08000
C 	C 	0.78851 0.90030 0.49891 0.09600
C 	C 	0.72582 0.85686 0.45640 -0.10300
C 	C 	0.64479 0.88499 0.45735 0.03900
C 	C 	0.00144 0.93774 0.55738 -0.12000
C 	C 	0.31375 0.53639 0.99765 0.09600
C 	C 	0.23273 0.53873 0.02456 -0.17300
C 	C 	0.21106 0.50674 0.10095 0.11200
C 	C 	0.27504 0.47519 0.14905 -0.11700
C 	C 	0.35625 0.47702 0.12098 0.03800
C 	C 	0.99837 0.55835 0.06316 0.00300
C 	C 	0.53638 0.99765 0.31375 0.09600
C 	C 	0.53873 0.02455 0.23273 -0.17300
C 	C 	0.50674 0.10094 0.21106 0.11200
C 	C 	0.47519 0.14905 0.27504 -0.11700
C 	C 	0.47702 0.12098 0.35625 0.03800
C 	C 	0.55835 0.06316 0.99837 0.00300
C 	C 	0.99765 0.31375 0.53639 0.09600
C 	C 	0.02455 0.23273 0.53873 -0.17300
C 	C 	0.10094 0.21106 0.50674 0.11200
C 	C 	0.14905 0.27504 0.47519 -0.11700
C 	C 	0.12098 0.35625 0.47702 0.03800
C 	C 	0.06316 0.99837 0.55835 0.00300
C 	C 	0.50110 0.06245 0.06154 -0.00800
C 	C 	0.06154 0.50110 0.06245 -0.00800
C 	C 	0.06245 0.06154 0.50110 -0.00800
C 	C 	0.93846 0.49890 0.93755 0.13900
C 	C 	0.49890 0.93755 0.93846 0.13900
C 	C 	0.93755 0.93846 0.49890 0.13900
N 	N 	0.50351 0.37440 0.04369 -0.26000
N 	N 	0.04369 0.50351 0.37440 -0.26000
N 	N 	0.37440 0.04369 0.50351 -0.26000
N 	N 	0.62534 0.49357 0.95434 -0.23500
N 	N 	0.49357 0.95433 0.62534 -0.23500
N 	N 	0.95433 0.62534 0.49357 -0.23500
N 	N 	0.49649 0.62560 0.95631 -0.25800
N 	N 	0.95631 0.49649 0.62560 -0.25800
N 	N 	0.62560 0.95631 0.49649 -0.25800
N 	N 	0.37466 0.50643 0.04567 -0.28000
N 	N 	0.50643 0.04566 0.37466 -0.28000
N 	N 	0.04566 0.37466 0.50643 -0.28000
N 	N 	0.50292 0.12585 0.12510 -0.14300
N 	N 	0.12510 0.50292 0.12586 -0.14300
N 	N 	0.12585 0.12510 0.50292 -0.14300
N 	N 	0.87490 0.49708 0.87415 -0.14700
N 	N 	0.49708 0.87415 0.87490 -0.14700
N 	N 	0.87415 0.87490 0.49708 -0.14700
