data_crystal

_cell_length_a 7.97600
_cell_length_b 7.97600
_cell_length_c 17.75300
_cell_angle_alpha 90.00000
_cell_angle_beta  90.00000
_cell_angle_gamma 90.00000

_symmetry_space_group_name_	'P 1'
_symmetry_space_group_name_H-M	'P 1'

loop_
_symmetry_equiv_pos_as_xyz
  x,y,z

loop_
_atom_site_label
_atom_site_type_symbol
_atom_site_fract_x
_atom_site_fract_y
_atom_site_fract_z
_atom_site_charge
C 	C 	0.11290 0.91330 0.48782 0.02400
H 	H 	0.22440 0.88540 0.47890 -0.05500
C 	C 	0.99510 0.78650 0.48788 -0.12200
H 	H 	0.02680 0.67560 0.48000 0.01600
C 	C 	0.71810 0.54810 0.53984 -0.13700
H 	H 	0.81690 0.52850 0.56620 0.03600
C 	C 	0.59120 0.43040 0.53974 0.03400
H 	H 	0.60460 0.33380 0.56840 -0.04700
C 	C 	0.91330 0.11290 0.51218 0.01700
H 	H 	0.88540 0.22440 0.52110 -0.05200
C 	C 	0.78650 0.99510 0.51212 -0.11300
H 	H 	0.67560 0.02680 0.52000 0.01100
C 	C 	0.54810 0.71810 0.46016 -0.13700
H 	H 	0.52850 0.81690 0.43380 0.03600
C 	C 	0.43040 0.59120 0.46026 0.03400
H 	H 	0.33380 0.60460 0.43160 -0.04700
Zn	Zn	0.26223 0.26223 0.50000 1.08600
N 	N 	0.07459 0.07459 0.50000 -0.31000
N 	N 	0.44946 0.44946 0.50000 -0.31400
C 	C 	0.82830 0.82830 0.50000 0.01300
C 	C 	0.69600 0.69600 0.50000 0.02500
C 	C 	0.41330 0.38710 0.23782 0.02500
H 	H 	0.38540 0.27560 0.22890 -0.05600
C 	C 	0.28650 0.50490 0.23788 -0.12600
H 	H 	0.17560 0.47320 0.23000 0.01700
C 	C 	0.04810 0.78190 0.28984 -0.13400
H 	H 	0.02850 0.68310 0.31620 0.03500
C 	C 	0.93040 0.90880 0.28974 0.03300
H 	H 	0.83380 0.89540 0.31840 -0.04700
C 	C 	0.61290 0.58670 0.26218 0.02600
H 	H 	0.72440 0.61460 0.27110 -0.05500
C 	C 	0.49510 0.71350 0.26212 -0.12600
H 	H 	0.52680 0.82440 0.27000 0.01700
C 	C 	0.21810 0.95190 0.21016 -0.13200
H 	H 	0.31690 0.97150 0.18380 0.03400
C 	C 	0.09120 0.06960 0.21026 0.03100
H 	H 	0.10460 0.16620 0.18160 -0.04800
Zn	Zn	0.76223 0.23777 0.25000 1.08500
N 	N 	0.57459 0.42541 0.25000 -0.31100
N 	N 	0.94946 0.05054 0.25000 -0.31700
C 	C 	0.32830 0.67170 0.25000 0.01900
C 	C 	0.19600 0.80400 0.25000 0.02100
C 	C 	0.88710 0.08670 0.98782 0.04800
H 	H 	0.77560 0.11460 0.97890 -0.05500
C 	C 	0.00490 0.21350 0.98788 -0.09900
H 	H 	0.97320 0.32440 0.98000 0.01800
C 	C 	0.28190 0.45190 0.03984 -0.12500
H 	H 	0.18310 0.47150 0.06620 0.02900
C 	C 	0.40880 0.56960 0.03974 0.02200
H 	H 	0.39540 0.66620 0.06840 -0.04500
C 	C 	0.08670 0.88710 0.01218 0.02400
H 	H 	0.11460 0.77560 0.02110 -0.05800
C 	C 	0.21350 0.00490 0.01212 -0.12900
H 	H 	0.32440 0.97320 0.02000 0.01400
C 	C 	0.45190 0.28190 0.96016 -0.10000
H 	H 	0.47150 0.18310 0.93380 0.03100
C 	C 	0.56960 0.40880 0.96026 0.05100
H 	H 	0.66620 0.39540 0.93160 -0.04800
Zn	Zn	0.73777 0.73777 -0.00000 1.08100
N 	N 	0.92541 0.92541 -0.00000 -0.32700
N 	N 	0.55054 0.55054 -0.00000 -0.32800
C 	C 	0.17170 0.17170 -0.00000 -0.00300
C 	C 	0.30400 0.30400 -0.00000 -0.00900
C 	C 	0.58670 0.61290 0.73782 0.02700
H 	H 	0.61460 0.72440 0.72890 -0.05400
C 	C 	0.71350 0.49510 0.73788 -0.12500
H 	H 	0.82440 0.52680 0.73000 0.01800
C 	C 	0.95190 0.21810 0.78984 -0.13500
H 	H 	0.97150 0.31690 0.81620 0.03800
C 	C 	0.06960 0.09120 0.78974 0.03300
H 	H 	0.16620 0.10460 0.81840 -0.04400
C 	C 	0.38710 0.41330 0.76218 0.02700
H 	H 	0.27560 0.38540 0.77110 -0.05400
C 	C 	0.50490 0.28650 0.76212 -0.12500
H 	H 	0.47320 0.17560 0.77000 0.01800
C 	C 	0.78190 0.04810 0.71016 -0.13900
H 	H 	0.68310 0.02850 0.68380 0.03600
C 	C 	0.90880 0.93040 0.71026 0.03800
H 	H 	0.89540 0.83380 0.68160 -0.04800
Zn	Zn	0.23777 0.76223 0.75000 1.08700
N 	N 	0.42541 0.57459 0.75000 -0.30900
N 	N 	0.05054 0.94946 0.75000 -0.31300
C 	C 	0.67170 0.32830 0.75000 0.01800
C 	C 	0.80400 0.19600 0.75000 0.02500
