data_crystal

_cell_length_a 7.96870
_cell_length_b 7.96870
_cell_length_c 17.72130
_cell_angle_alpha 90.00000
_cell_angle_beta  90.00000
_cell_angle_gamma 90.00000

_symmetry_space_group_name_	'P 1'
_symmetry_space_group_name_H-M	'P 1'

loop_
_symmetry_equiv_pos_as_xyz
  x,y,z

loop_
_atom_site_label
_atom_site_type_symbol
_atom_site_fract_x
_atom_site_fract_y
_atom_site_fract_z
_atom_site_charge
C 	C 	0.06961 0.90896 0.96007 0.05400
H 	H 	0.16640 0.89560 0.93140 -0.05100
C 	C 	0.95138 0.78191 0.95977 -0.10900
H 	H 	0.97090 0.68350 0.93300 0.03300
C 	C 	0.50460 0.71388 0.98831 -0.09100
H 	H 	0.47290 0.82500 0.98090 0.01500
C 	C 	0.38630 0.58681 0.98796 0.04400
H 	H 	0.27470 0.61450 0.97900 -0.05300
C 	C 	0.90896 0.06961 0.03993 0.03100
H 	H 	0.89560 0.16640 0.06860 -0.04700
C 	C 	0.78191 0.95138 0.04023 -0.13400
H 	H 	0.68350 0.97090 0.06700 0.03100
C 	C 	0.71388 0.50460 0.01169 -0.11600
H 	H 	0.82500 0.47290 0.01910 0.00900
C 	C 	0.58681 0.38630 0.01204 0.01300
H 	H 	0.61450 0.27470 0.02100 -0.05400
Zn	Zn	0.23747 0.23747 -0.00000 1.08100
N 	N 	0.05054 0.05054 -0.00000 -0.33200
N 	N 	0.42562 0.42562 -0.00000 -0.32400
C 	C 	0.80292 0.80292 -0.00000 -0.00000
C 	C 	0.67155 0.67155 -0.00000 -0.01200
C 	C 	0.93039 0.09104 0.46007 0.03500
H 	H 	0.83360 0.10440 0.43140 -0.04700
C 	C 	0.04862 0.21809 0.45977 -0.13400
H 	H 	0.02910 0.31650 0.43300 0.03500
C 	C 	0.49540 0.28612 0.48831 -0.12500
H 	H 	0.52710 0.17500 0.48090 0.01700
C 	C 	0.61370 0.41319 0.48796 0.02500
H 	H 	0.72530 0.38550 0.47900 -0.05400
C 	C 	0.09104 0.93039 0.53993 0.03000
H 	H 	0.10440 0.83360 0.56860 -0.04600
C 	C 	0.21809 0.04862 0.54023 -0.13100
H 	H 	0.31650 0.02910 0.56700 0.03500
C 	C 	0.28612 0.49540 0.51169 -0.12500
H 	H 	0.17500 0.52710 0.51910 0.01700
C 	C 	0.41319 0.61370 0.51204 0.02500
H 	H 	0.38550 0.72530 0.52100 -0.05500
Zn	Zn	0.76253 0.76253 0.50000 1.08600
N 	N 	0.94946 0.94946 0.50000 -0.31600
N 	N 	0.57438 0.57438 0.50000 -0.30900
C 	C 	0.19708 0.19708 0.50000 0.02100
C 	C 	0.32845 0.32845 0.50000 0.01900
C 	C 	0.59104 0.56961 0.21007 0.03300
H 	H 	0.60440 0.66640 0.18140 -0.04900
C 	C 	0.71809 0.45138 0.20977 -0.13600
H 	H 	0.81650 0.47090 0.18300 0.03500
C 	C 	0.78612 0.00460 0.23831 -0.11200
H 	H 	0.67500 0.97290 0.23090 0.01000
C 	C 	0.91319 0.88630 0.23796 0.01600
H 	H 	0.88550 0.77470 0.22900 -0.05200
C 	C 	0.43039 0.40896 0.28993 0.03300
H 	H 	0.33360 0.39560 0.31860 -0.04700
C 	C 	0.54862 0.28191 0.29023 -0.13600
H 	H 	0.52910 0.18350 0.31700 0.03600
C 	C 	0.99540 0.21388 0.26169 -0.11500
H 	H 	0.02710 0.32500 0.26910 0.01200
C 	C 	0.11370 0.08681 0.26204 0.01900
H 	H 	0.22530 0.11450 0.27100 -0.05300
Zn	Zn	0.26253 0.73747 0.25000 1.08500
N 	N 	0.44946 0.55054 0.25000 -0.31600
N 	N 	0.07438 0.92562 0.25000 -0.30900
C 	C 	0.69708 0.30292 0.25000 0.02500
C 	C 	0.82845 0.17155 0.25000 0.01100
C 	C 	0.40896 0.43039 0.71007 0.03300
H 	H 	0.39560 0.33360 0.68140 -0.04700
C 	C 	0.28191 0.54862 0.70977 -0.13300
H 	H 	0.18350 0.52910 0.68300 0.03600
C 	C 	0.21388 0.99540 0.73831 -0.12700
H 	H 	0.32500 0.02710 0.73090 0.01900
C 	C 	0.08681 0.11370 0.73796 0.02800
H 	H 	0.11450 0.22530 0.72900 -0.05400
C 	C 	0.56961 0.59104 0.78993 0.03400
H 	H 	0.66640 0.60440 0.81860 -0.04400
C 	C 	0.45138 0.71809 0.79023 -0.13400
H 	H 	0.47090 0.81650 0.81700 0.03700
C 	C 	0.00460 0.78612 0.76169 -0.12000
H 	H 	0.97290 0.67500 0.76910 0.01500
C 	C 	0.88630 0.91319 0.76204 0.02100
H 	H 	0.77470 0.88550 0.77100 -0.05200
Zn	Zn	0.73747 0.26253 0.75000 1.08800
N 	N 	0.55054 0.44946 0.75000 -0.31300
N 	N 	0.92562 0.07438 0.75000 -0.30800
C 	C 	0.30292 0.69708 0.75000 0.02200
C 	C 	0.17155 0.82845 0.75000 0.01800
