data_crystal

_cell_length_a 21.53270
_cell_length_b 16.44430
_cell_length_c 14.81950
_cell_angle_alpha 90.00000
_cell_angle_beta  92.51900
_cell_angle_gamma 90.00000

_symmetry_space_group_name_	'P 1'
_symmetry_space_group_name_H-M	'P 1'

loop_
_symmetry_equiv_pos_as_xyz
  x,y,z

loop_
_atom_site_label
_atom_site_type_symbol
_atom_site_fract_x
_atom_site_fract_y
_atom_site_fract_z
_atom_site_charge
Cu	Cu	0.23728 0.18740 0.89460 0.81600
Cu	Cu	0.18402 0.18052 0.49445 0.78700
Cu	Cu	0.16364 0.38983 0.56412 0.79900
Cu	Cu	0.11841 0.38922 0.17168 0.79500
N 	N 	0.21831 0.22470 0.76470 -0.25200
N 	N 	0.21381 0.17580 0.69260 -0.10300
N 	N 	0.19644 0.21920 0.62160 -0.21200
N 	N 	0.18833 0.29730 0.64680 -0.28000
N 	N 	0.20152 0.06650 0.46690 -0.30800
N 	N 	0.24125 0.46040 0.54950 -0.20400
N 	N 	0.15127 0.26580 0.41210 -0.28100
N 	N 	0.14595 0.34410 0.43810 -0.20800
N 	N 	0.12942 0.38820 0.36750 -0.21400
N 	N 	0.12389 0.34010 0.29400 -0.27500
C 	C 	0.96600 0.43510 0.38700 0.18900
N 	N 	0.09153 0.45900 0.59840 -0.26700
N 	N 	0.19500 0.46020 0.14830 -0.19900
N 	N 	0.25349 0.06670 0.88960 -0.26000
N 	N 	0.04447 0.46030 0.13990 -0.22600
N 	N 	0.98875 0.43310 0.10770 -0.22800
N 	N 	0.08157 0.28650 0.00880 -0.27600
N 	N 	0.12683 0.30570 0.07050 -0.20000
N 	N 	0.32106 0.22770 0.95310 -0.19000
N 	N 	0.16870 0.23100 0.97000 -0.26100
C 	C 	0.20220 0.29870 0.73470 0.24200
C 	C 	0.20030 0.37260 0.79150 -0.71600
H 	H 	0.21640 0.41790 0.75910 0.18000
H 	H 	0.22520 0.36420 0.84610 0.17800
H 	H 	0.15820 0.38350 0.80620 0.19700
H 	H 	0.08520 0.94500 0.49540 0.18000
H 	H 	0.07790 0.02730 0.44270 0.20300
H 	H 	0.09240 0.02770 0.54730 0.20300
C 	C 	0.13700 0.26500 0.32330 0.24600
C 	C 	0.13420 0.19100 0.26650 -0.72200
H 	H 	0.09160 0.17590 0.25460 0.18400
H 	H 	0.15570 0.14750 0.29770 0.18600
H 	H 	0.15350 0.20160 0.21050 0.19600
C 	C 	0.98090 0.34500 0.36770 -0.50300
H 	H 	0.94450 0.31250 0.37630 0.11200
H 	H 	0.01400 0.32700 0.40840 0.10900
H 	H 	0.99320 0.33950 0.30660 0.14100
H 	H 	0.37050 0.51250 0.08560 0.11200
H 	H 	0.33610 0.54020 0.99540 0.49000
H 	H 	0.34420 0.44730 0.01680 -0.35500
H 	H 	0.87700 0.44590 0.03880 0.14800
H 	H 	0.88400 0.53590 0.00570 0.11500
H 	H 	0.86310 0.51820 0.10380 0.13700
C 	C 	0.10840 0.24050 0.94810 0.21900
C 	C 	0.07560 0.20650 0.86660 -0.66800
H 	H 	0.03270 0.19800 0.87860 0.15400
H 	H 	0.09430 0.15560 0.85120 0.15100
H 	H 	0.07870 0.24390 0.81730 0.17700
Cu	Cu	0.73728 0.68740 0.89460 0.82200
Cu	Cu	0.68402 0.68052 0.49445 0.78700
Cu	Cu	0.66364 0.88983 0.56412 0.79800
Cu	Cu	0.61841 0.88922 0.17168 0.79700
N 	N 	0.71831 0.72470 0.76470 -0.25000
N 	N 	0.71381 0.67580 0.69260 -0.10300
N 	N 	0.69644 0.71920 0.62160 -0.21200
N 	N 	0.68833 0.79730 0.64680 -0.27900
N 	N 	0.70152 0.56650 0.46690 -0.32400
N 	N 	0.74125 0.96040 0.54950 -0.20900
N 	N 	0.65127 0.76580 0.41210 -0.28100
N 	N 	0.64595 0.84410 0.43810 -0.20800
N 	N 	0.62942 0.88820 0.36750 -0.21600
N 	N 	0.62389 0.84010 0.29400 -0.27300
C 	C 	0.46600 0.93510 0.38700 0.17500
N 	N 	0.59153 0.95900 0.59840 -0.26900
N 	N 	0.69500 0.96020 0.14830 -0.20400
N 	N 	0.75349 0.56670 0.88960 -0.25500
N 	N 	0.54447 0.96030 0.13990 -0.21800
N 	N 	0.48875 0.93310 0.10770 -0.24500
N 	N 	0.58157 0.78650 0.00880 -0.27600
N 	N 	0.62683 0.80570 0.07050 -0.19800
N 	N 	0.82106 0.72770 0.95310 -0.19100
N 	N 	0.66870 0.73100 0.97000 -0.25900
C 	C 	0.70220 0.79870 0.73470 0.24100
C 	C 	0.70030 0.87260 0.79150 -0.71600
H 	H 	0.71640 0.91790 0.75910 0.17900
H 	H 	0.72520 0.86420 0.84610 0.17900
H 	H 	0.65820 0.88350 0.80620 0.19800
H 	H 	0.58520 0.44500 0.49540 0.23100
H 	H 	0.57790 0.52730 0.44270 0.24800
H 	H 	0.59240 0.52770 0.54730 0.24700
C 	C 	0.63700 0.76500 0.32330 0.24900
C 	C 	0.63420 0.69100 0.26650 -0.72600
H 	H 	0.59160 0.67590 0.25460 0.18900
H 	H 	0.65570 0.64750 0.29770 0.18600
H 	H 	0.65350 0.70160 0.21050 0.19800
C 	C 	0.48090 0.84500 0.36770 -0.60100
H 	H 	0.44450 0.81250 0.37630 0.13700
H 	H 	0.51400 0.82700 0.40840 0.15800
H 	H 	0.49320 0.83950 0.30660 0.15900
H 	H 	0.87050 0.01250 0.08560 0.77000
H 	H 	0.83610 0.04020 0.99540 -0.12000
H 	H 	0.84420 0.94730 0.01680 -0.51500
H 	H 	0.37700 0.94590 0.03880 0.14200
H 	H 	0.38400 0.03590 0.00570 0.11000
H 	H 	0.36310 0.01820 0.10380 0.14800
C 	C 	0.60840 0.74050 0.94810 0.24900
C 	C 	0.57560 0.70650 0.86660 -0.73200
H 	H 	0.53270 0.69800 0.87860 0.18500
H 	H 	0.59430 0.65560 0.85120 0.19400
H 	H 	0.57870 0.74390 0.81730 0.20000
Cu	Cu	0.76272 0.18740 0.10540 0.81800
Cu	Cu	0.81598 0.18052 0.50555 0.78800
Cu	Cu	0.83636 0.38983 0.43588 0.79900
Cu	Cu	0.88159 0.38922 0.82832 0.80000
N 	N 	0.78169 0.22470 0.23530 -0.25200
N 	N 	0.78619 0.17580 0.30740 -0.10200
N 	N 	0.80356 0.21920 0.37840 -0.21000
N 	N 	0.81167 0.29730 0.35320 -0.27900
N 	N 	0.79848 0.06650 0.53310 -0.32100
N 	N 	0.75875 0.46040 0.45050 -0.20300
N 	N 	0.84873 0.26580 0.58790 -0.28100
N 	N 	0.85405 0.34410 0.56190 -0.20700
N 	N 	0.87058 0.38820 0.63250 -0.21200
N 	N 	0.87611 0.34010 0.70600 -0.27200
C 	C 	0.03400 0.43510 0.61300 0.18500
N 	N 	0.90847 0.45900 0.40160 -0.26400
N 	N 	0.80500 0.46020 0.85170 -0.19800
N 	N 	0.74651 0.06670 0.11040 -0.26000
N 	N 	0.95553 0.46030 0.86010 -0.20000
N 	N 	0.01125 0.43310 0.89230 -0.25700
N 	N 	0.91843 0.28650 0.99120 -0.26600
N 	N 	0.87317 0.30570 0.92950 -0.19600
N 	N 	0.67894 0.22770 0.04690 -0.19200
N 	N 	0.83130 0.23100 0.03000 -0.26300
C 	C 	0.79780 0.29870 0.26530 0.24700
C 	C 	0.79970 0.37260 0.20850 -0.73000
H 	H 	0.78360 0.41790 0.24090 0.18700
H 	H 	0.77480 0.36420 0.15390 0.18700
H 	H 	0.84180 0.38350 0.19380 0.20300
H 	H 	0.91480 0.94500 0.50460 0.22400
H 	H 	0.92210 0.02730 0.55730 0.24800
H 	H 	0.90760 0.02770 0.45270 0.24600
C 	C 	0.86300 0.26500 0.67670 0.25500
C 	C 	0.86580 0.19100 0.73350 -0.74000
H 	H 	0.90840 0.17590 0.74540 0.20000
H 	H 	0.84430 0.14750 0.70230 0.19200
H 	H 	0.84650 0.20160 0.78950 0.20300
C 	C 	0.01910 0.34500 0.63230 -0.72300
H 	H 	0.05550 0.31250 0.62370 0.17100
H 	H 	0.98600 0.32700 0.59160 0.21700
H 	H 	0.00680 0.33950 0.69340 0.18700
H 	H 	0.62950 0.51250 0.91440 0.07900
H 	H 	0.66390 0.54020 0.00460 0.06100
H 	H 	0.65580 0.44730 0.98320 0.10500
H 	H 	0.12300 0.44590 0.96120 0.14600
H 	H 	0.11600 0.53590 0.99430 0.11200
H 	H 	0.13690 0.51820 0.89620 0.13400
C 	C 	0.89160 0.24050 0.05190 0.24000
C 	C 	0.92440 0.20650 0.13340 -0.72000
H 	H 	0.96730 0.19800 0.12140 0.18800
H 	H 	0.90570 0.15560 0.14880 0.17900
H 	H 	0.92130 0.24390 0.18270 0.20000
Cu	Cu	0.26272 0.68740 0.10540 0.82400
Cu	Cu	0.31598 0.68052 0.50555 0.78700
Cu	Cu	0.33636 0.88983 0.43588 0.79800
Cu	Cu	0.38159 0.88922 0.82832 0.79700
N 	N 	0.28169 0.72470 0.23530 -0.25000
N 	N 	0.28619 0.67580 0.30740 -0.10200
N 	N 	0.30356 0.71920 0.37840 -0.21200
N 	N 	0.31167 0.79730 0.35320 -0.28000
N 	N 	0.29848 0.56650 0.53310 -0.32400
N 	N 	0.25875 0.96040 0.45050 -0.20900
N 	N 	0.34873 0.76580 0.58790 -0.28100
N 	N 	0.35405 0.84410 0.56190 -0.20800
N 	N 	0.37058 0.88820 0.63250 -0.21600
N 	N 	0.37611 0.84010 0.70600 -0.27300
C 	C 	0.53400 0.93510 0.61300 0.17500
N 	N 	0.40847 0.95900 0.40160 -0.26900
N 	N 	0.30500 0.96020 0.85170 -0.20300
N 	N 	0.24651 0.56670 0.11040 -0.25300
N 	N 	0.45553 0.96030 0.86010 -0.21700
N 	N 	0.51125 0.93310 0.89230 -0.24500
N 	N 	0.41843 0.78650 0.99120 -0.27400
N 	N 	0.37317 0.80570 0.92950 -0.19700
N 	N 	0.17894 0.72770 0.04690 -0.19300
N 	N 	0.33130 0.73100 0.03000 -0.25800
C 	C 	0.29780 0.79870 0.26530 0.24500
C 	C 	0.29970 0.87260 0.20850 -0.72700
H 	H 	0.28360 0.91790 0.24090 0.18500
H 	H 	0.27480 0.86420 0.15390 0.18600
H 	H 	0.34180 0.88350 0.19380 0.20200
H 	H 	0.41480 0.44500 0.50460 0.23000
H 	H 	0.42210 0.52730 0.55730 0.24700
H 	H 	0.40760 0.52770 0.45270 0.24700
C 	C 	0.36300 0.76500 0.67670 0.24700
C 	C 	0.36580 0.69100 0.73350 -0.72000
H 	H 	0.40840 0.67590 0.74540 0.18500
H 	H 	0.34430 0.64750 0.70230 0.18200
H 	H 	0.34650 0.70160 0.78950 0.19400
C 	C 	0.51910 0.84500 0.63230 -0.60100
H 	H 	0.55550 0.81250 0.62370 0.13700
H 	H 	0.48600 0.82700 0.59160 0.15800
H 	H 	0.50680 0.83950 0.69340 0.15900
H 	H 	0.12950 0.01250 0.91440 0.72500
H 	H 	0.16390 0.04020 0.00460 -0.51600
H 	H 	0.15580 0.94730 0.98320 -0.08500
H 	H 	0.62300 0.94590 0.96120 0.14100
H 	H 	0.61600 0.03590 0.99430 0.11100
H 	H 	0.63690 0.01820 0.89620 0.14700
C 	C 	0.39160 0.74050 0.05190 0.25300
C 	C 	0.42440 0.70650 0.13340 -0.74000
H 	H 	0.46730 0.69800 0.12140 0.18800
H 	H 	0.40570 0.65560 0.14880 0.20400
H 	H 	0.42130 0.74390 0.18270 0.20200
Cu	Cu	0.76272 0.81260 0.10540 0.82800
Cu	Cu	0.81598 0.81948 0.50555 0.78800
Cu	Cu	0.83636 0.61017 0.43588 0.79900
Cu	Cu	0.88159 0.61078 0.82832 0.80000
N 	N 	0.78169 0.77530 0.23530 -0.24900
N 	N 	0.78619 0.82420 0.30740 -0.10100
N 	N 	0.80356 0.78080 0.37840 -0.21100
N 	N 	0.81167 0.70270 0.35320 -0.27900
N 	N 	0.79848 0.93350 0.53310 -0.32600
N 	N 	0.75875 0.53960 0.45050 -0.20300
N 	N 	0.84873 0.73420 0.58790 -0.28100
N 	N 	0.85405 0.65590 0.56190 -0.20700
N 	N 	0.87058 0.61180 0.63250 -0.21200
N 	N 	0.87611 0.65990 0.70600 -0.27200
C 	C 	0.03400 0.56490 0.61300 0.18400
N 	N 	0.90847 0.54100 0.40160 -0.26400
N 	N 	0.80500 0.53980 0.85170 -0.19800
N 	N 	0.74651 0.93330 0.11040 -0.24900
N 	N 	0.95553 0.53970 0.86010 -0.20000
N 	N 	0.01125 0.56690 0.89230 -0.25700
N 	N 	0.91843 0.71350 0.99120 -0.27300
N 	N 	0.87317 0.69430 0.92950 -0.19600
N 	N 	0.67894 0.77230 0.04690 -0.19200
N 	N 	0.83130 0.76900 0.03000 -0.25800
C 	C 	0.79780 0.70130 0.26530 0.24500
C 	C 	0.79970 0.62740 0.20850 -0.72800
H 	H 	0.78360 0.58210 0.24090 0.18600
H 	H 	0.77480 0.63580 0.15390 0.18600
H 	H 	0.84180 0.61650 0.19380 0.20200
H 	H 	0.91480 0.05500 0.50460 0.21600
H 	H 	0.92210 0.97270 0.55730 0.22700
H 	H 	0.90760 0.97230 0.45270 0.22600
C 	C 	0.86300 0.73500 0.67670 0.25300
C 	C 	0.86580 0.80900 0.73350 -0.73400
H 	H 	0.90840 0.82410 0.74540 0.19600
H 	H 	0.84430 0.85250 0.70230 0.18700
H 	H 	0.84650 0.79840 0.78950 0.20000
C 	C 	0.01910 0.65500 0.63230 -0.72000
H 	H 	0.05550 0.68750 0.62370 0.17000
H 	H 	0.98600 0.67300 0.59160 0.21600
H 	H 	0.00680 0.66050 0.69340 0.18600
H 	H 	0.62950 0.48750 0.91440 0.08000
H 	H 	0.66390 0.45980 0.00460 0.06000
H 	H 	0.65580 0.55270 0.98320 0.10400
H 	H 	0.12300 0.55410 0.96120 0.14500
H 	H 	0.11600 0.46410 0.99430 0.11200
H 	H 	0.13690 0.48180 0.89620 0.13400
C 	C 	0.89160 0.75950 0.05190 0.28300
C 	C 	0.92440 0.79350 0.13340 -0.80600
H 	H 	0.96730 0.80200 0.12140 0.22100
H 	H 	0.90570 0.84440 0.14880 0.24500
H 	H 	0.92130 0.75610 0.18270 0.22600
Cu	Cu	0.26272 0.31260 0.10540 0.82400
Cu	Cu	0.31598 0.31948 0.50555 0.78700
Cu	Cu	0.33636 0.11017 0.43588 0.80000
Cu	Cu	0.38159 0.11078 0.82832 0.79900
N 	N 	0.28169 0.27530 0.23530 -0.25100
N 	N 	0.28619 0.32420 0.30740 -0.10200
N 	N 	0.30356 0.28080 0.37840 -0.21200
N 	N 	0.31167 0.20270 0.35320 -0.28000
N 	N 	0.29848 0.43350 0.53310 -0.32400
N 	N 	0.25875 0.03960 0.45050 -0.19800
N 	N 	0.34873 0.23420 0.58790 -0.28100
N 	N 	0.35405 0.15590 0.56190 -0.20700
N 	N 	0.37058 0.11180 0.63250 -0.21200
N 	N 	0.37611 0.15990 0.70600 -0.27200
C 	C 	0.53400 0.06490 0.61300 0.18700
N 	N 	0.40847 0.04100 0.40160 -0.26100
N 	N 	0.30500 0.03980 0.85170 -0.19200
N 	N 	0.24651 0.43330 0.11040 -0.25300
N 	N 	0.45553 0.03970 0.86010 -0.20700
N 	N 	0.51125 0.06690 0.89230 -0.24000
N 	N 	0.41843 0.21350 0.99120 -0.27400
N 	N 	0.37317 0.19430 0.92950 -0.19700
N 	N 	0.17894 0.27230 0.04690 -0.19300
N 	N 	0.33130 0.26900 0.03000 -0.25800
C 	C 	0.29780 0.20130 0.26530 0.25000
C 	C 	0.29970 0.12740 0.20850 -0.74200
H 	H 	0.28360 0.08210 0.24090 0.19500
H 	H 	0.27480 0.13580 0.15390 0.19400
H 	H 	0.34180 0.11650 0.19380 0.20700
H 	H 	0.41480 0.55500 0.50460 0.23000
H 	H 	0.42210 0.47270 0.55730 0.24700
H 	H 	0.40760 0.47230 0.45270 0.24700
C 	C 	0.36300 0.23500 0.67670 0.24700
C 	C 	0.36580 0.30900 0.73350 -0.71900
H 	H 	0.40840 0.32410 0.74540 0.18500
H 	H 	0.34430 0.35250 0.70230 0.18200
H 	H 	0.34650 0.29840 0.78950 0.19400
C 	C 	0.51910 0.15500 0.63230 -0.61000
H 	H 	0.55550 0.18750 0.62370 0.14000
H 	H 	0.48600 0.17300 0.59160 0.16200
H 	H 	0.50680 0.16050 0.69340 0.16300
H 	H 	0.12950 0.98750 0.91440 -0.61200
H 	H 	0.16390 0.95980 0.00460 0.30700
H 	H 	0.15580 0.05270 0.98320 0.60000
H 	H 	0.62300 0.05410 0.96120 0.11700
H 	H 	0.61600 0.96410 0.99430 0.08100
H 	H 	0.63690 0.98180 0.89620 0.08800
C 	C 	0.39160 0.25950 0.05190 0.25300
C 	C 	0.42440 0.29350 0.13340 -0.74000
H 	H 	0.46730 0.30200 0.12140 0.18800
H 	H 	0.40570 0.34440 0.14880 0.20400
H 	H 	0.42130 0.25610 0.18270 0.20200
Cu	Cu	0.23728 0.81260 0.89460 0.82500
Cu	Cu	0.18402 0.81948 0.49445 0.78600
Cu	Cu	0.16364 0.61017 0.56412 0.79800
Cu	Cu	0.11841 0.61078 0.17168 0.79500
N 	N 	0.21831 0.77530 0.76470 -0.24900
N 	N 	0.21381 0.82420 0.69260 -0.10200
N 	N 	0.19644 0.78080 0.62160 -0.21200
N 	N 	0.18833 0.70270 0.64680 -0.28000
N 	N 	0.20152 0.93350 0.46690 -0.31300
N 	N 	0.24125 0.53960 0.54950 -0.20400
N 	N 	0.15127 0.73420 0.41210 -0.28100
N 	N 	0.14595 0.65590 0.43810 -0.20800
N 	N 	0.12942 0.61180 0.36750 -0.21400
N 	N 	0.12389 0.65990 0.29400 -0.27400
C 	C 	0.96600 0.56490 0.38700 0.18900
N 	N 	0.09153 0.54100 0.59840 -0.26700
N 	N 	0.19500 0.53980 0.14830 -0.19900
N 	N 	0.25349 0.93330 0.88960 -0.24900
N 	N 	0.04447 0.53970 0.13990 -0.22600
N 	N 	0.98875 0.56690 0.10770 -0.22800
N 	N 	0.08157 0.71350 0.00880 -0.28200
N 	N 	0.12683 0.69430 0.07050 -0.20000
N 	N 	0.32106 0.77230 0.95310 -0.19000
N 	N 	0.16870 0.76900 0.97000 -0.25600
C 	C 	0.20220 0.70130 0.73470 0.24100
C 	C 	0.20030 0.62740 0.79150 -0.71400
H 	H 	0.21640 0.58210 0.75910 0.17900
H 	H 	0.22520 0.63580 0.84610 0.17700
H 	H 	0.15820 0.61650 0.80620 0.19600
H 	H 	0.08520 0.05500 0.49540 0.17200
H 	H 	0.07790 0.97270 0.44270 0.18300
H 	H 	0.09240 0.97230 0.54730 0.18300
C 	C 	0.13700 0.73500 0.32330 0.24400
C 	C 	0.13420 0.80900 0.26650 -0.71600
H 	H 	0.09160 0.82410 0.25460 0.18100
H 	H 	0.15570 0.85250 0.29770 0.18200
H 	H 	0.15350 0.79840 0.21050 0.19400
C 	C 	0.98090 0.65500 0.36770 -0.50100
H 	H 	0.94450 0.68750 0.37630 0.11100
H 	H 	0.01400 0.67300 0.40840 0.10900
H 	H 	0.99320 0.66050 0.30660 0.14000
H 	H 	0.37050 0.48750 0.08560 0.11200
H 	H 	0.33610 0.45980 0.99540 0.49000
H 	H 	0.34420 0.55270 0.01680 -0.35500
H 	H 	0.87700 0.55410 0.03880 0.14800
H 	H 	0.88400 0.46410 0.00570 0.11500
H 	H 	0.86310 0.48180 0.10380 0.13700
C 	C 	0.10840 0.75950 0.94810 0.26100
C 	C 	0.07560 0.79350 0.86660 -0.75300
H 	H 	0.03270 0.80200 0.87860 0.18700
H 	H 	0.09430 0.84440 0.85120 0.21600
H 	H 	0.07870 0.75610 0.81730 0.20300
Cu	Cu	0.73728 0.31260 0.89460 0.82200
Cu	Cu	0.68402 0.31948 0.49445 0.78700
Cu	Cu	0.66364 0.11017 0.56412 0.80000
Cu	Cu	0.61841 0.11078 0.17168 0.79800
N 	N 	0.71831 0.27530 0.76470 -0.25100
N 	N 	0.71381 0.32420 0.69260 -0.10300
N 	N 	0.69644 0.28080 0.62160 -0.21200
N 	N 	0.68833 0.20270 0.64680 -0.28000
N 	N 	0.70152 0.43350 0.46690 -0.32400
N 	N 	0.74125 0.03960 0.54950 -0.19800
N 	N 	0.65127 0.23420 0.41210 -0.28100
N 	N 	0.64595 0.15590 0.43810 -0.20700
N 	N 	0.62942 0.11180 0.36750 -0.21200
N 	N 	0.62389 0.15990 0.29400 -0.27300
C 	C 	0.46600 0.06490 0.38700 0.18700
N 	N 	0.59153 0.04100 0.59840 -0.26100
N 	N 	0.69500 0.03980 0.14830 -0.19300
N 	N 	0.75349 0.43330 0.88960 -0.25500
N 	N 	0.54447 0.03970 0.13990 -0.20800
N 	N 	0.48875 0.06690 0.10770 -0.24100
N 	N 	0.58157 0.21350 0.00880 -0.27600
N 	N 	0.62683 0.19430 0.07050 -0.19700
N 	N 	0.82106 0.27230 0.95310 -0.19100
N 	N 	0.66870 0.26900 0.97000 -0.25900
C 	C 	0.70220 0.20130 0.73470 0.24600
C 	C 	0.70030 0.12740 0.79150 -0.73200
H 	H 	0.71640 0.08210 0.75910 0.18900
H 	H 	0.72520 0.13580 0.84610 0.18700
H 	H 	0.65820 0.11650 0.80620 0.20400
H 	H 	0.58520 0.55500 0.49540 0.23100
H 	H 	0.57790 0.47270 0.44270 0.24800
H 	H 	0.59240 0.47230 0.54730 0.24700
C 	C 	0.63700 0.23500 0.32330 0.24800
C 	C 	0.63420 0.30900 0.26650 -0.72600
H 	H 	0.59160 0.32410 0.25460 0.18800
H 	H 	0.65570 0.35250 0.29770 0.18600
H 	H 	0.65350 0.29840 0.21050 0.19800
C 	C 	0.48090 0.15500 0.36770 -0.61000
H 	H 	0.44450 0.18750 0.37630 0.14000
H 	H 	0.51400 0.17300 0.40840 0.16200
H 	H 	0.49320 0.16050 0.30660 0.16300
H 	H 	0.87050 0.98750 0.08560 -0.58800
H 	H 	0.83610 0.95980 0.99540 0.71800
H 	H 	0.84420 0.05270 0.01680 0.18200
H 	H 	0.37700 0.05410 0.03880 0.11900
H 	H 	0.38400 0.96410 0.00570 0.08100
H 	H 	0.36310 0.98180 0.10380 0.09000
C 	C 	0.60840 0.25950 0.94810 0.24900
C 	C 	0.57560 0.29350 0.86660 -0.73200
H 	H 	0.53270 0.30200 0.87860 0.18500
H 	H 	0.59430 0.34440 0.85120 0.19400
H 	H 	0.57870 0.25610 0.81730 0.20000
Cu	Cu	0.09650 0.50000 0.36915 0.77800
N 	N 	0.00260 0.50000 0.37680 -0.32800
C 	C 	0.95540 0.50000 0.09050 0.29400
C 	C 	0.88890 0.50000 0.05660 -0.91100
Cu	Cu	0.59650 0.00000 0.36915 0.78500
N 	N 	0.50260 -0.00000 0.37680 -0.29800
C 	C 	0.45540 0.00000 0.09050 0.27200
C 	C 	0.38890 0.00000 0.05660 -0.80400
Cu	Cu	0.90350 0.50000 0.63085 0.78400
N 	N 	0.99740 0.50000 0.62320 -0.28400
C 	C 	0.04460 0.50000 0.90950 0.28200
C 	C 	0.11110 0.50000 0.94340 -0.89900
Cu	Cu	0.40350 -0.00000 0.63085 0.78500
N 	N 	0.49740 0.00000 0.62320 -0.29800
C 	C 	0.54460 0.00000 0.90950 0.27200
C 	C 	0.61110 0.00000 0.94340 -0.80100
Cu	Cu	0.00000 0.33885 -0.00000 0.80000
Cu	Cu	0.50000 0.83885 -0.00000 0.81300
Cu	Cu	0.00000 0.66115 -0.00000 0.80000
Cu	Cu	0.50000 0.16115 -0.00000 0.81300
C 	C 	0.16700 0.00000 0.47630 0.39500
C 	C 	0.09980 0.00000 0.49180 -1.30200
C 	C 	0.22310 0.00000 0.91150 0.22300
C 	C 	0.16260 -0.00000 0.95750 -0.56400
C 	C 	0.66700 0.50000 0.47630 0.46300
C 	C 	0.59980 0.50000 0.49180 -1.61000
C 	C 	0.72310 0.50000 0.91150 0.22800
C 	C 	0.66260 0.50000 0.95750 -0.63300
C 	C 	0.83300 -0.00000 0.52370 0.45500
C 	C 	0.90020 0.00000 0.50820 -1.52900
C 	C 	0.77690 0.00000 0.08850 0.22500
C 	C 	0.83740 0.00000 0.04250 -0.58600
C 	C 	0.33300 0.50000 0.52370 0.46300
C 	C 	0.40020 0.50000 0.50820 -1.60900
C 	C 	0.27690 0.50000 0.08850 0.22600
C 	C 	0.33740 0.50000 0.04250 -0.64200
