data_crystal

_cell_length_a 11.61700
_cell_length_b 8.71700
_cell_length_c 8.28900
_cell_angle_alpha 90.00000
_cell_angle_beta  90.00000
_cell_angle_gamma 90.00000

_symmetry_space_group_name_	'P 1'
_symmetry_space_group_name_H-M	'P 1'

loop_
_symmetry_equiv_pos_as_xyz
  x,y,z

loop_
_atom_site_label
_atom_site_type_symbol
_atom_site_fract_x
_atom_site_fract_y
_atom_site_fract_z
_atom_site_charge
Zn	Zn	0.25010 0.98543 -0.00000 1.17300
O 	O 	0.31300 0.16470 0.86070 -0.32200
O 	O 	0.32350 0.83340 0.84360 -0.30400
O 	O 	0.40520 0.98480 0.13730 -0.30400
O 	O 	0.09460 0.99090 0.87040 -0.34600
N 	N 	0.32340 0.33430 0.66670 -0.25400
N 	N 	0.32070 0.66080 0.64880 -0.22700
C 	C 	0.28250 0.21770 0.73330 0.31800
C 	C 	0.27690 0.72200 0.77870 0.29500
H 	H 	0.22070 0.16600 0.66610 -0.05700
H 	H 	0.22270 0.66600 0.83200 -0.02400
Zn	Zn	0.74990 0.01457 -0.00000 1.15900
O 	O 	0.68700 0.83530 0.86070 -0.28200
O 	O 	0.67650 0.16660 0.84360 -0.32200
O 	O 	0.59480 0.01520 0.13730 -0.35100
O 	O 	0.90540 0.00910 0.87040 -0.34900
N 	N 	0.67660 0.66570 0.66670 -0.24700
N 	N 	0.67930 0.33920 0.64880 -0.23100
C 	C 	0.71750 0.78230 0.73330 0.31300
C 	C 	0.72310 0.27800 0.77870 0.29600
H 	H 	0.77930 0.83400 0.66610 -0.02500
H 	H 	0.77730 0.33400 0.83200 -0.01600
Zn	Zn	0.75010 0.51457 0.50000 1.23400
O 	O 	0.81300 0.33530 0.36070 -0.39600
O 	O 	0.82350 0.66660 0.34360 -0.39300
O 	O 	0.90520 0.51520 0.63730 -0.27700
O 	O 	0.59460 0.50910 0.37040 -0.45400
N 	N 	0.82340 0.16570 0.16670 -0.30200
N 	N 	0.82070 0.83920 0.14880 -0.26600
C 	C 	0.78250 0.28230 0.23330 0.32900
C 	C 	0.77690 0.77800 0.27870 0.30700
H 	H 	0.72070 0.33400 0.16610 -0.09800
H 	H 	0.72270 0.83400 0.33200 -0.06700
Zn	Zn	0.24990 0.48543 0.50000 1.23300
O 	O 	0.18700 0.66470 0.36070 -0.40800
O 	O 	0.17650 0.33340 0.34360 -0.42100
O 	O 	0.09480 0.48480 0.63730 -0.32800
O 	O 	0.40540 0.49090 0.37040 -0.45500
N 	N 	0.17660 0.83430 0.16670 -0.30500
N 	N 	0.17930 0.16080 0.14880 -0.30600
C 	C 	0.21750 0.71770 0.23330 0.32800
C 	C 	0.22310 0.22200 0.27870 0.30800
H 	H 	0.27930 0.66600 0.16610 -0.09900
H 	H 	0.27730 0.16600 0.33200 -0.09000
C 	C 	0.50000 0.00000 0.05670 0.00300
H 	H 	0.50000 0.00000 0.91610 0.12900
C 	C 	0.00000 0.50000 0.55670 0.21600
H 	H 	0.00000 0.50000 0.41610 -0.02300
C 	C 	0.00000 0.00000 0.92570 0.46200
H 	H 	0.00000 0.00000 0.08200 -0.15900
C 	C 	0.50000 0.50000 0.42570 0.43500
H 	H 	0.50000 0.50000 0.58200 -0.03000
