data_crystal

_cell_length_a 8.71700
_cell_length_b 11.61700
_cell_length_c 8.28900
_cell_angle_alpha 90.00000
_cell_angle_beta  90.00000
_cell_angle_gamma 90.00000

_symmetry_space_group_name_	'P 1'
_symmetry_space_group_name_H-M	'P 1'

loop_
_symmetry_equiv_pos_as_xyz
  x,y,z

loop_
_atom_site_label
_atom_site_type_symbol
_atom_site_fract_x
_atom_site_fract_y
_atom_site_fract_z
_atom_site_charge
O 	O 	0.41277 0.31678 0.10538 -0.40200
O 	O 	0.08376 0.17654 0.41138 -0.42600
O 	O 	0.23734 0.40508 0.38366 -0.37300
C 	C 	0.47011 0.28029 0.97767 0.50100
H 	H 	0.42500 0.21300 0.93800 -0.12100
O 	O 	0.08723 0.68322 0.10538 -0.38800
O 	O 	0.41624 0.82346 0.41138 -0.40500
O 	O 	0.26266 0.59492 0.38366 -0.37200
C 	C 	0.02989 0.71971 0.97767 0.47800
H 	H 	0.07500 0.78700 0.93800 -0.10400
O 	O 	0.08723 0.81678 0.39462 -0.38300
O 	O 	0.41624 0.67654 0.08862 -0.41800
O 	O 	0.26266 0.90508 0.11634 -0.31300
C 	C 	0.02989 0.78029 0.52233 0.49300
H 	H 	0.07500 0.71300 0.56200 -0.11100
O 	O 	0.41277 0.18322 0.39462 -0.40700
O 	O 	0.08376 0.32346 0.08862 -0.41200
O 	O 	0.23734 0.09492 0.11634 -0.36000
C 	C 	0.47011 0.21971 0.52233 0.50200
H 	H 	0.42500 0.28700 0.56200 -0.11500
O 	O 	0.58723 0.68322 0.89462 -0.39700
O 	O 	0.91624 0.82346 0.58862 -0.40100
O 	O 	0.76266 0.59492 0.61634 -0.37200
C 	C 	0.52989 0.71971 0.02233 0.49900
H 	H 	0.57500 0.78700 0.06200 -0.10900
O 	O 	0.91277 0.31678 0.89462 -0.39200
O 	O 	0.58376 0.17654 0.58862 -0.42800
O 	O 	0.73734 0.40508 0.61634 -0.37200
C 	C 	0.97011 0.28029 0.02233 0.48200
H 	H 	0.92500 0.21300 0.06200 -0.11500
O 	O 	0.91277 0.18322 0.60538 -0.40500
O 	O 	0.58376 0.32346 0.91138 -0.42200
O 	O 	0.73734 0.09492 0.88366 -0.36000
C 	C 	0.97011 0.21971 0.47767 0.49700
H 	H 	0.92500 0.28700 0.43800 -0.11400
O 	O 	0.58723 0.81678 0.60538 -0.38400
O 	O 	0.91624 0.67654 0.91138 -0.40800
O 	O 	0.76266 0.90508 0.88366 -0.30900
C 	C 	0.52989 0.78029 0.47767 0.49900
H 	H 	0.57500 0.71300 0.43800 -0.11200
Zn	Zn	0.23547 0.25000 0.25000 1.25500
Zn	Zn	0.26453 0.75000 0.25000 1.25600
Zn	Zn	0.76453 0.75000 0.75000 1.25600
Zn	Zn	0.73547 0.25000 0.75000 1.25500
C 	C 	0.25000 0.50000 0.31394 0.39700
H 	H 	0.25000 0.50000 0.19000 -0.04700
C 	C 	0.25000 0.00000 0.18606 0.31300
H 	H 	0.25000 0.00000 0.31000 -0.04200
C 	C 	0.75000 0.50000 0.68606 0.39700
H 	H 	0.75000 0.50000 0.81000 -0.04700
C 	C 	0.75000 0.00000 0.81394 0.30800
H 	H 	0.75000 0.00000 0.69000 -0.04200
