data_crystal

_cell_length_a 14.36500
_cell_length_b 16.30500
_cell_length_c 8.73400
_cell_angle_alpha 90.00000
_cell_angle_beta  90.24300
_cell_angle_gamma 90.00000

_symmetry_space_group_name_	'P 1'
_symmetry_space_group_name_H-M	'P 1'

loop_
_symmetry_equiv_pos_as_xyz
  x,y,z

loop_
_atom_site_label
_atom_site_type_symbol
_atom_site_fract_x
_atom_site_fract_y
_atom_site_fract_z
_atom_site_charge
Ga	Ga	0.13650 0.03417 0.57163 2.05900
Ga	Ga	0.04238 0.27163 0.63240 2.07500
Ga	Ga	0.52554 0.12625 0.41042 2.07000
Ga	Ga	0.36576 0.16159 0.81337 2.06600
P 	P 	0.14798 0.15184 0.84854 0.70300
P 	P 	0.64016 0.96929 0.44728 0.67500
P 	P 	0.47275 0.21882 0.10989 0.67400
P 	P 	0.97136 0.13241 0.41427 0.69700
O 	O 	0.44790 0.16300 0.97650 -0.66300
O 	O 	0.53600 0.17090 0.21870 -0.64300
O 	O 	0.96610 0.19720 0.54090 -0.68600
O 	O 	0.62990 0.06280 0.43930 -0.64500
O 	O 	0.96360 0.32650 0.75740 -0.65500
O 	O 	0.24980 0.14930 0.89650 -0.68500
O 	O 	0.13520 0.22510 0.74280 -0.76900
O 	O 	0.08830 0.15870 0.99160 -0.67700
O 	O 	0.11840 0.07270 0.77050 -0.68200
O 	O 	0.38420 0.25300 0.69130 -0.73300
O 	O 	0.41970 0.06380 0.42210 -0.69200
O 	O 	0.06250 0.08560 0.42330 -0.75500
O 	O 	0.25990 0.05210 0.51520 -0.68300
O 	O 	0.39200 0.06640 0.70560 -0.71700
O 	O 	0.52960 0.29280 0.05660 -0.69500
O 	O 	0.11370 0.92190 0.56740 -0.63600
Ga	Ga	0.86350 0.53417 0.92837 2.05900
Ga	Ga	0.95762 0.77163 0.86760 2.07200
Ga	Ga	0.47446 0.62625 0.08958 2.07100
Ga	Ga	0.63424 0.66159 0.68663 2.06600
P 	P 	0.85202 0.65184 0.65146 0.70300
P 	P 	0.35984 0.46929 0.05272 0.67500
P 	P 	0.52725 0.71882 0.39011 0.67600
P 	P 	0.02864 0.63241 0.08573 0.67000
O 	O 	0.55210 0.66300 0.52350 -0.66400
O 	O 	0.46400 0.67090 0.28130 -0.64400
O 	O 	0.03390 0.69720 0.95910 -0.67200
O 	O 	0.37010 0.56280 0.06070 -0.64800
O 	O 	0.03640 0.82650 0.74260 -0.65000
O 	O 	0.75020 0.64930 0.60350 -0.68600
O 	O 	0.86480 0.72510 0.75720 -0.77500
O 	O 	0.91170 0.65870 0.50840 -0.68100
O 	O 	0.88160 0.57270 0.72950 -0.68300
O 	O 	0.61580 0.75300 0.80870 -0.73500
O 	O 	0.58030 0.56380 0.07790 -0.68800
O 	O 	0.93750 0.58560 0.07670 -0.73200
O 	O 	0.74010 0.55210 0.98480 -0.68500
O 	O 	0.60800 0.56640 0.79440 -0.71700
O 	O 	0.47040 0.79280 0.44340 -0.69600
O 	O 	0.88630 0.42190 0.93260 -0.64100
Ga	Ga	0.86350 0.96583 0.42837 2.06000
Ga	Ga	0.95762 0.72837 0.36760 2.07600
Ga	Ga	0.47446 0.87375 0.58958 2.07100
Ga	Ga	0.63424 0.83841 0.18663 2.06700
P 	P 	0.85202 0.84816 0.15146 0.70300
P 	P 	0.35984 0.03071 0.55272 0.67500
P 	P 	0.52725 0.78118 0.89011 0.67400
P 	P 	0.02864 0.86759 0.58573 0.69700
O 	O 	0.55210 0.83700 0.02350 -0.66300
O 	O 	0.46400 0.82910 0.78130 -0.64300
O 	O 	0.03390 0.80280 0.45910 -0.68600
O 	O 	0.37010 0.93720 0.56070 -0.64500
O 	O 	0.03640 0.67350 0.24260 -0.65500
O 	O 	0.75020 0.85070 0.10350 -0.68500
O 	O 	0.86480 0.77490 0.25720 -0.76900
O 	O 	0.91170 0.84130 0.00840 -0.67700
O 	O 	0.88160 0.92730 0.22950 -0.68200
O 	O 	0.61580 0.74700 0.30870 -0.73300
O 	O 	0.58030 0.93620 0.57790 -0.69200
O 	O 	0.93750 0.91440 0.57670 -0.75500
O 	O 	0.74010 0.94790 0.48480 -0.68300
O 	O 	0.60800 0.93360 0.29440 -0.71700
O 	O 	0.47040 0.70720 0.94340 -0.69500
O 	O 	0.88630 0.07810 0.43260 -0.63600
Ga	Ga	0.13650 0.46583 0.07163 2.05900
Ga	Ga	0.04238 0.22837 0.13240 2.07200
Ga	Ga	0.52554 0.37375 0.91042 2.07100
Ga	Ga	0.36576 0.33841 0.31337 2.06600
P 	P 	0.14798 0.34816 0.34854 0.70300
P 	P 	0.64016 0.53071 0.94728 0.67500
P 	P 	0.47275 0.28118 0.60989 0.67600
P 	P 	0.97136 0.36759 0.91427 0.67000
O 	O 	0.44790 0.33700 0.47650 -0.66400
O 	O 	0.53600 0.32910 0.71870 -0.64400
O 	O 	0.96610 0.30280 0.04090 -0.67200
O 	O 	0.62990 0.43720 0.93930 -0.64800
O 	O 	0.96360 0.17350 0.25740 -0.65000
O 	O 	0.24980 0.35070 0.39650 -0.68600
O 	O 	0.13520 0.27490 0.24280 -0.77500
O 	O 	0.08830 0.34130 0.49160 -0.68100
O 	O 	0.11840 0.42730 0.27050 -0.68300
O 	O 	0.38420 0.24700 0.19130 -0.73500
O 	O 	0.41970 0.43620 0.92210 -0.68800
O 	O 	0.06250 0.41440 0.92330 -0.73200
O 	O 	0.25990 0.44790 0.01520 -0.68500
O 	O 	0.39200 0.43360 0.20560 -0.71700
O 	O 	0.52960 0.20720 0.55660 -0.69600
O 	O 	0.11370 0.57810 0.06740 -0.64100
