data_crystal

_cell_length_a 14.32300
_cell_length_b 16.34000
_cell_length_c 8.75100
_cell_angle_alpha 90.00000
_cell_angle_beta  90.00000
_cell_angle_gamma 90.00000

_symmetry_space_group_name_	'P 1'
_symmetry_space_group_name_H-M	'P 1'

loop_
_symmetry_equiv_pos_as_xyz
  x,y,z

loop_
_atom_site_label
_atom_site_type_symbol
_atom_site_fract_x
_atom_site_fract_y
_atom_site_fract_z
_atom_site_charge
Ga	Ga	0.13618 0.03473 0.57256 2.06100
Ga	Ga	0.04135 0.27178 0.63290 2.07300
Ga	Ga	0.52614 0.12637 0.41143 2.07000
Ga	Ga	0.36622 0.16095 0.81415 2.06500
P 	P 	0.14740 0.15203 0.84890 0.70900
P 	P 	0.64008 0.96898 0.44670 0.67100
P 	P 	0.47310 0.21915 0.11120 0.67300
P 	P 	0.97074 0.13215 0.41500 0.70000
O 	O 	0.44790 0.16370 0.97790 -0.66300
O 	O 	0.53640 0.17130 0.21980 -0.64300
O 	O 	0.96460 0.19680 0.54070 -0.68300
O 	O 	0.63050 0.06240 0.44020 -0.64400
O 	O 	0.96210 0.32730 0.75750 -0.65500
O 	O 	0.24940 0.14830 0.89610 -0.68600
O 	O 	0.13520 0.22530 0.74410 -0.76400
O 	O 	0.08840 0.15860 0.99180 -0.67900
O 	O 	0.11710 0.07380 0.76930 -0.69000
O 	O 	0.38420 0.25240 0.69120 -0.73000
O 	O 	0.41980 0.06420 0.42280 -0.69200
O 	O 	0.06260 0.08630 0.42340 -0.75200
O 	O 	0.25960 0.05300 0.51720 -0.68600
O 	O 	0.39320 0.06580 0.70630 -0.71500
O 	O 	0.53080 0.29290 0.05810 -0.69300
O 	O 	0.11290 0.92280 0.56620 -0.64100
Ga	Ga	0.86382 0.53473 0.92744 2.06000
Ga	Ga	0.95865 0.77178 0.86710 2.06900
Ga	Ga	0.47386 0.62637 0.08857 2.07000
Ga	Ga	0.63378 0.66095 0.68585 2.06500
P 	P 	0.85260 0.65203 0.65110 0.70900
P 	P 	0.35992 0.46898 0.05330 0.67100
P 	P 	0.52690 0.71915 0.38880 0.67500
P 	P 	0.02926 0.63215 0.08500 0.67300
O 	O 	0.55210 0.66370 0.52210 -0.66400
O 	O 	0.46360 0.67130 0.28020 -0.64400
O 	O 	0.03540 0.69680 0.95930 -0.66900
O 	O 	0.36950 0.56240 0.05980 -0.64800
O 	O 	0.03790 0.82730 0.74250 -0.65000
O 	O 	0.75060 0.64830 0.60390 -0.68800
O 	O 	0.86480 0.72530 0.75590 -0.77000
O 	O 	0.91160 0.65860 0.50820 -0.68300
O 	O 	0.88290 0.57380 0.73070 -0.69000
O 	O 	0.61580 0.75240 0.80880 -0.73200
O 	O 	0.58020 0.56420 0.07720 -0.68800
O 	O 	0.93740 0.58630 0.07660 -0.72900
O 	O 	0.74040 0.55300 0.98280 -0.68800
O 	O 	0.60680 0.56580 0.79370 -0.71500
O 	O 	0.46920 0.79290 0.44190 -0.69400
O 	O 	0.88710 0.42280 0.93380 -0.64600
Ga	Ga	0.86382 0.96527 0.42744 2.06100
Ga	Ga	0.95865 0.72822 0.36710 2.07300
Ga	Ga	0.47386 0.87363 0.58857 2.07000
Ga	Ga	0.63378 0.83905 0.18585 2.06500
P 	P 	0.85260 0.84797 0.15110 0.70900
P 	P 	0.35992 0.03102 0.55330 0.67100
P 	P 	0.52690 0.78085 0.88880 0.67300
P 	P 	0.02926 0.86785 0.58500 0.70000
O 	O 	0.55210 0.83630 0.02210 -0.66300
O 	O 	0.46360 0.82870 0.78020 -0.64300
O 	O 	0.03540 0.80320 0.45930 -0.68300
O 	O 	0.36950 0.93760 0.55980 -0.64400
O 	O 	0.03790 0.67270 0.24250 -0.65500
O 	O 	0.75060 0.85170 0.10390 -0.68600
O 	O 	0.86480 0.77470 0.25590 -0.76400
O 	O 	0.91160 0.84140 0.00820 -0.67900
O 	O 	0.88290 0.92620 0.23070 -0.69000
O 	O 	0.61580 0.74760 0.30880 -0.73000
O 	O 	0.58020 0.93580 0.57720 -0.69200
O 	O 	0.93740 0.91370 0.57660 -0.75200
O 	O 	0.74040 0.94700 0.48280 -0.68600
O 	O 	0.60680 0.93420 0.29370 -0.71500
O 	O 	0.46920 0.70710 0.94190 -0.69300
O 	O 	0.88710 0.07720 0.43380 -0.64100
Ga	Ga	0.13618 0.46527 0.07256 2.06000
Ga	Ga	0.04135 0.22822 0.13290 2.06900
Ga	Ga	0.52614 0.37363 0.91143 2.07000
Ga	Ga	0.36622 0.33905 0.31415 2.06500
P 	P 	0.14740 0.34797 0.34890 0.70900
P 	P 	0.64008 0.53102 0.94670 0.67100
P 	P 	0.47310 0.28085 0.61120 0.67500
P 	P 	0.97074 0.36785 0.91500 0.67300
O 	O 	0.44790 0.33630 0.47790 -0.66400
O 	O 	0.53640 0.32870 0.71980 -0.64400
O 	O 	0.96460 0.30320 0.04070 -0.66900
O 	O 	0.63050 0.43760 0.94020 -0.64800
O 	O 	0.96210 0.17270 0.25750 -0.65000
O 	O 	0.24940 0.35170 0.39610 -0.68800
O 	O 	0.13520 0.27470 0.24410 -0.77000
O 	O 	0.08840 0.34140 0.49180 -0.68300
O 	O 	0.11710 0.42620 0.26930 -0.69000
O 	O 	0.38420 0.24760 0.19120 -0.73200
O 	O 	0.41980 0.43580 0.92280 -0.68800
O 	O 	0.06260 0.41370 0.92340 -0.72900
O 	O 	0.25960 0.44700 0.01720 -0.68800
O 	O 	0.39320 0.43420 0.20630 -0.71500
O 	O 	0.53080 0.20710 0.55810 -0.69400
O 	O 	0.11290 0.57720 0.06620 -0.64600
