data_crystal

_cell_length_a 26.40640
_cell_length_b 14.44120
_cell_length_c 25.37770
_cell_angle_alpha 90.00000
_cell_angle_beta  113.33300
_cell_angle_gamma 90.00000

_symmetry_space_group_name_	'P 1'
_symmetry_space_group_name_H-M	'P 1'

loop_
_symmetry_equiv_pos_as_xyz
  x,y,z

loop_
_atom_site_label
_atom_site_type_symbol
_atom_site_fract_x
_atom_site_fract_y
_atom_site_fract_z
_atom_site_charge
Eu	Eu	0.33476 0.58432 0.30170 2.08500
Eu	Eu	0.28645 0.36395 0.18990 2.19800
O 	O 	0.24410 0.63270 0.28320 -0.53300
O 	O 	0.37030 0.43600 0.26610 -0.55800
O 	O 	0.23590 0.48010 0.11820 -0.45500
O 	O 	0.41460 0.56610 0.27380 -0.44100
O 	O 	0.28230 0.54770 0.20110 -0.59100
C 	C 	0.45710 0.33300 0.25550 0.10800
H 	H 	0.42810 0.30030 0.25880 -0.00400
C 	C 	0.45740 0.42880 0.25610 -0.17200
C 	C 	0.24990 0.55220 0.14780 0.42900
C 	C 	0.41190 0.48020 0.26580 0.39900
C 	C 	0.16360 0.31750 0.20550 0.52000
O 	O 	0.34020 0.64460 0.39280 -0.38100
O 	O 	0.18530 0.95810 0.14620 -0.50700
O 	O 	0.34430 0.61590 0.64150 -0.50200
O 	O 	0.17260 0.71960 0.27860 -0.53200
O 	O 	0.41320 0.56730 0.39640 -0.40500
O 	O 	0.24030 0.27150 0.10560 -0.53000
H 	H 	0.26090 0.26370 0.08880 0.30400
O 	O 	0.19580 0.33050 0.18070 -0.50800
C 	C 	0.20050 0.80200 0.12910 -0.23900
O 	O 	0.32500 0.72630 0.57550 -0.30800
C 	C 	0.15730 0.55830 0.25970 -0.26700
C 	C 	0.19420 0.64330 0.27550 0.52800
C 	C 	0.39720 0.57790 0.48280 -0.07900
C 	C 	0.37050 0.62420 0.51250 0.03600
H 	H 	0.34620 0.67190 0.49440 0.06100
C 	C 	0.17350 0.48180 0.23860 0.22200
H 	H 	0.20550 0.48430 0.23160 -0.07600
C 	C 	0.34750 0.65230 0.59710 0.39500
C 	C 	0.22530 0.71860 0.15450 0.16700
H 	H 	0.24160 0.71390 0.19430 -0.03300
C 	C 	0.38390 0.59760 0.42090 0.30900
C 	C 	0.10900 0.55710 0.26890 0.16700
H 	H 	0.09680 0.61020 0.28100 -0.01700
C 	C 	0.14290 0.40020 0.22740 -0.26100
C 	C 	0.22590 0.64410 0.12140 -0.21100
C 	C 	0.37920 0.60100 0.56820 -0.11700
C 	C 	0.09650 0.39590 0.23950 0.16100
H 	H 	0.07670 0.34090 0.23430 -0.01300
C 	C 	0.07930 0.47550 0.25970 -0.22100
H 	H 	0.04750 0.47340 0.26710 0.10600
C 	C 	0.43460 0.50810 0.51030 0.02600
H 	H 	0.45250 0.47650 0.49080 0.04000
C 	C 	0.41650 0.53030 0.59530 0.04100
H 	H 	0.42230 0.51280 0.63250 0.03000
C 	C 	0.17660 0.80920 0.07080 0.14400
H 	H 	0.15950 0.86410 0.05370 -0.00300
C 	C 	0.44520 0.48550 0.56660 -0.09900
H 	H 	0.47130 0.44050 0.58540 0.07900
C 	C 	0.20290 0.65120 0.06230 0.12200
H 	H 	0.20410 0.60140 0.03960 0.00700
C 	C 	0.17770 0.73430 0.03700 -0.19200
H 	H 	0.16170 0.73940 0.99730 0.10200
O 	O 	0.21760 0.86590 0.22040 -0.57500
C 	C 	0.20160 0.88180 0.16790 0.53100
O 	O 	0.14740 0.23790 0.21340 -0.52100
Eu	Eu	0.83476 0.08432 0.30170 2.08600
Eu	Eu	0.78645 0.86395 0.18990 2.19900
O 	O 	0.74410 0.13270 0.28320 -0.53200
O 	O 	0.87030 0.93600 0.26610 -0.55700
O 	O 	0.73590 0.98010 0.11820 -0.45400
O 	O 	0.91460 0.06610 0.27380 -0.44000
O 	O 	0.78230 0.04770 0.20110 -0.59100
C 	C 	0.95710 0.83300 0.25550 0.11100
H 	H 	0.92810 0.80030 0.25880 -0.00400
C 	C 	0.95740 0.92880 0.25610 -0.17100
C 	C 	0.74990 0.05220 0.14780 0.43000
C 	C 	0.91190 0.98020 0.26580 0.40100
C 	C 	0.66360 0.81750 0.20550 0.52200
O 	O 	0.84020 0.14460 0.39280 -0.38000
O 	O 	0.68530 0.45810 0.14620 -0.50600
O 	O 	0.84430 0.11590 0.64150 -0.50100
O 	O 	0.67260 0.21960 0.27860 -0.53100
O 	O 	0.91320 0.06730 0.39640 -0.40300
O 	O 	0.74030 0.77150 0.10560 -0.53000
H 	H 	0.76090 0.76370 0.08880 0.30400
O 	O 	0.69580 0.83050 0.18070 -0.50800
C 	C 	0.70050 0.30200 0.12910 -0.24100
O 	O 	0.82500 0.22630 0.57550 -0.30800
C 	C 	0.65730 0.05830 0.25970 -0.26700
C 	C 	0.69420 0.14330 0.27550 0.52800
C 	C 	0.89720 0.07790 0.48280 -0.07900
C 	C 	0.87050 0.12420 0.51250 0.03700
H 	H 	0.84620 0.17190 0.49440 0.06100
C 	C 	0.67350 0.98180 0.23860 0.22300
H 	H 	0.70550 0.98430 0.23160 -0.07600
C 	C 	0.84750 0.15230 0.59710 0.39500
C 	C 	0.72530 0.21860 0.15450 0.16900
H 	H 	0.74160 0.21390 0.19430 -0.03300
C 	C 	0.88390 0.09760 0.42090 0.30900
C 	C 	0.60900 0.05710 0.26890 0.16700
H 	H 	0.59680 0.11020 0.28100 -0.01700
C 	C 	0.64290 0.90020 0.22740 -0.26100
C 	C 	0.72590 0.14410 0.12140 -0.21200
C 	C 	0.87920 0.10100 0.56820 -0.11700
C 	C 	0.59650 0.89590 0.23950 0.16100
H 	H 	0.57670 0.84090 0.23430 -0.01200
C 	C 	0.57930 0.97550 0.25970 -0.22000
H 	H 	0.54750 0.97340 0.26710 0.10600
C 	C 	0.93460 0.00810 0.51030 0.02600
H 	H 	0.95250 0.97650 0.49080 0.04000
C 	C 	0.91650 0.03030 0.59530 0.04100
H 	H 	0.92230 0.01280 0.63250 0.03000
C 	C 	0.67660 0.30920 0.07080 0.14600
H 	H 	0.65950 0.36410 0.05370 -0.00400
C 	C 	0.94520 0.98550 0.56660 -0.09900
H 	H 	0.97130 0.94050 0.58540 0.07900
C 	C 	0.70290 0.15120 0.06230 0.12400
H 	H 	0.70410 0.10140 0.03960 0.00600
C 	C 	0.67770 0.23430 0.03700 -0.19600
H 	H 	0.66170 0.23940 0.99730 0.10500
O 	O 	0.71760 0.36590 0.22040 -0.57500
C 	C 	0.70160 0.38180 0.16790 0.53200
O 	O 	0.64740 0.73790 0.21340 -0.52100
Eu	Eu	0.66524 0.58432 0.19830 2.08600
Eu	Eu	0.71355 0.36395 0.31010 2.19900
O 	O 	0.75590 0.63270 0.21680 -0.53200
O 	O 	0.62970 0.43600 0.23390 -0.55700
O 	O 	0.76410 0.48010 0.38180 -0.45400
O 	O 	0.58540 0.56610 0.22620 -0.44000
O 	O 	0.71770 0.54770 0.29890 -0.59100
C 	C 	0.54290 0.33300 0.24450 0.10900
H 	H 	0.57190 0.30030 0.24120 -0.00300
C 	C 	0.54260 0.42880 0.24390 -0.17100
C 	C 	0.75010 0.55220 0.35220 0.43000
C 	C 	0.58810 0.48020 0.23420 0.40000
C 	C 	0.83640 0.31750 0.29450 0.52200
O 	O 	0.65980 0.64460 0.10720 -0.38000
O 	O 	0.81470 0.95810 0.35380 -0.50600
O 	O 	0.65570 0.61590 0.85850 -0.50100
O 	O 	0.82740 0.71960 0.22140 -0.53100
O 	O 	0.58680 0.56730 0.10360 -0.40400
O 	O 	0.75970 0.27150 0.39440 -0.53000
H 	H 	0.73910 0.26370 0.41120 0.30400
O 	O 	0.80420 0.33050 0.31930 -0.50800
C 	C 	0.79950 0.80200 0.37090 -0.24000
O 	O 	0.67500 0.72630 0.92450 -0.30900
C 	C 	0.84270 0.55830 0.24030 -0.26700
C 	C 	0.80580 0.64330 0.22450 0.52800
C 	C 	0.60280 0.57790 0.01720 -0.07900
C 	C 	0.62950 0.62420 0.98750 0.03600
H 	H 	0.65380 0.67190 0.00560 0.06100
C 	C 	0.82650 0.48180 0.26140 0.22200
H 	H 	0.79450 0.48430 0.26840 -0.07600
C 	C 	0.65250 0.65230 0.90290 0.39500
C 	C 	0.77470 0.71860 0.34550 0.16800
H 	H 	0.75840 0.71390 0.30570 -0.03300
C 	C 	0.61610 0.59760 0.07910 0.30800
C 	C 	0.89100 0.55710 0.23110 0.16700
H 	H 	0.90320 0.61020 0.21900 -0.01700
C 	C 	0.85710 0.40020 0.27260 -0.26100
C 	C 	0.77410 0.64410 0.37860 -0.21200
C 	C 	0.62080 0.60100 0.93180 -0.11600
C 	C 	0.90350 0.39590 0.26050 0.16100
H 	H 	0.92330 0.34090 0.26570 -0.01200
C 	C 	0.92070 0.47550 0.24030 -0.22100
H 	H 	0.95250 0.47340 0.23290 0.10600
C 	C 	0.56540 0.50810 0.98970 0.02500
H 	H 	0.54750 0.47650 0.00920 0.04000
C 	C 	0.58350 0.53030 0.90470 0.04100
H 	H 	0.57770 0.51280 0.86750 0.03000
C 	C 	0.82340 0.80920 0.42920 0.14500
H 	H 	0.84050 0.86410 0.44630 -0.00400
C 	C 	0.55480 0.48550 0.93340 -0.09900
H 	H 	0.52870 0.44050 0.91460 0.07900
C 	C 	0.79710 0.65120 0.43770 0.12300
H 	H 	0.79590 0.60140 0.46040 0.00700
C 	C 	0.82230 0.73430 0.46300 -0.19400
H 	H 	0.83830 0.73940 0.50270 0.10400
O 	O 	0.78240 0.86590 0.27960 -0.57500
C 	C 	0.79840 0.88180 0.33210 0.53100
O 	O 	0.85260 0.23790 0.28660 -0.52100
Eu	Eu	0.16524 0.08432 0.19830 2.08600
Eu	Eu	0.21355 0.86395 0.31010 2.19900
O 	O 	0.25590 0.13270 0.21680 -0.53200
O 	O 	0.12970 0.93600 0.23390 -0.55800
O 	O 	0.26410 0.98010 0.38180 -0.45400
O 	O 	0.08540 0.06610 0.22620 -0.44100
O 	O 	0.21770 0.04770 0.29890 -0.59100
C 	C 	0.04290 0.83300 0.24450 0.11000
H 	H 	0.07190 0.80030 0.24120 -0.00400
C 	C 	0.04260 0.92880 0.24390 -0.17200
C 	C 	0.25010 0.05220 0.35220 0.43000
C 	C 	0.08810 0.98020 0.23420 0.40100
C 	C 	0.33640 0.81750 0.29450 0.52200
O 	O 	0.15980 0.14460 0.10720 -0.38000
O 	O 	0.31470 0.45810 0.35380 -0.50600
O 	O 	0.15570 0.11590 0.85850 -0.50200
O 	O 	0.32740 0.21960 0.22140 -0.53100
O 	O 	0.08680 0.06730 0.10360 -0.40400
O 	O 	0.25970 0.77150 0.39440 -0.53000
H 	H 	0.23910 0.76370 0.41120 0.30400
O 	O 	0.30420 0.83050 0.31930 -0.50800
C 	C 	0.29950 0.30200 0.37090 -0.24000
O 	O 	0.17500 0.22630 0.92450 -0.30900
C 	C 	0.34270 0.05830 0.24030 -0.26700
C 	C 	0.30580 0.14330 0.22450 0.52800
C 	C 	0.10280 0.07790 0.01720 -0.08200
C 	C 	0.12950 0.12420 0.98750 0.03900
H 	H 	0.15380 0.17190 0.00560 0.06000
C 	C 	0.32650 0.98180 0.26140 0.22300
H 	H 	0.29450 0.98430 0.26840 -0.07600
C 	C 	0.15250 0.15230 0.90290 0.39600
C 	C 	0.27470 0.21860 0.34550 0.16800
H 	H 	0.25840 0.21390 0.30570 -0.03300
C 	C 	0.11610 0.09760 0.07910 0.30900
C 	C 	0.39100 0.05710 0.23110 0.16600
H 	H 	0.40320 0.11020 0.21900 -0.01700
C 	C 	0.35710 0.90020 0.27260 -0.26100
C 	C 	0.27410 0.14410 0.37860 -0.21200
C 	C 	0.12080 0.10100 0.93180 -0.11900
C 	C 	0.40350 0.89590 0.26050 0.16000
H 	H 	0.42330 0.84090 0.26570 -0.01200
C 	C 	0.42070 0.97550 0.24030 -0.22000
H 	H 	0.45250 0.97340 0.23290 0.10600
C 	C 	0.06540 0.00810 0.98970 0.02900
H 	H 	0.04750 0.97650 0.00920 0.03900
C 	C 	0.08350 0.03030 0.90470 0.04400
H 	H 	0.07770 0.01280 0.86750 0.02900
C 	C 	0.32340 0.30920 0.42920 0.14500
H 	H 	0.34050 0.36410 0.44630 -0.00400
C 	C 	0.05480 0.98550 0.93340 -0.10400
H 	H 	0.02870 0.94050 0.91460 0.08000
C 	C 	0.29710 0.15120 0.43770 0.12300
H 	H 	0.29590 0.10140 0.46040 0.00600
C 	C 	0.32230 0.23430 0.46300 -0.19400
H 	H 	0.33830 0.23940 0.50270 0.10400
O 	O 	0.28240 0.36590 0.27960 -0.57500
C 	C 	0.29840 0.38180 0.33210 0.53100
O 	O 	0.35260 0.73790 0.28660 -0.52100
Eu	Eu	0.66524 0.41568 0.69830 2.08600
Eu	Eu	0.71355 0.63605 0.81010 2.19900
O 	O 	0.75590 0.36730 0.71680 -0.53200
O 	O 	0.62970 0.56400 0.73390 -0.55700
O 	O 	0.76410 0.51990 0.88180 -0.45400
O 	O 	0.58540 0.43390 0.72620 -0.44000
O 	O 	0.71770 0.45230 0.79890 -0.59000
C 	C 	0.54290 0.66700 0.74450 0.10900
H 	H 	0.57190 0.69970 0.74120 -0.00300
C 	C 	0.54260 0.57120 0.74390 -0.17100
C 	C 	0.75010 0.44780 0.85220 0.43000
C 	C 	0.58810 0.51980 0.73420 0.40000
C 	C 	0.83640 0.68250 0.79450 0.52200
O 	O 	0.65980 0.35540 0.60720 -0.38000
O 	O 	0.81470 0.04190 0.85380 -0.50600
O 	O 	0.65570 0.38410 0.35850 -0.50100
O 	O 	0.82740 0.28040 0.72140 -0.53100
O 	O 	0.58680 0.43270 0.60360 -0.40400
O 	O 	0.75970 0.72850 0.89440 -0.53000
H 	H 	0.73910 0.73630 0.91120 0.30400
O 	O 	0.80420 0.66950 0.81930 -0.50800
C 	C 	0.79950 0.19800 0.87090 -0.23900
O 	O 	0.67500 0.27370 0.42450 -0.30800
C 	C 	0.84270 0.44170 0.74030 -0.26700
C 	C 	0.80580 0.35670 0.72450 0.52800
C 	C 	0.60280 0.42210 0.51720 -0.07900
C 	C 	0.62950 0.37580 0.48750 0.03600
H 	H 	0.65380 0.32810 0.50560 0.06100
C 	C 	0.82650 0.51820 0.76140 0.22200
H 	H 	0.79450 0.51570 0.76840 -0.07600
C 	C 	0.65250 0.34770 0.40290 0.39500
C 	C 	0.77470 0.28140 0.84550 0.16700
H 	H 	0.75840 0.28610 0.80570 -0.03300
C 	C 	0.61610 0.40240 0.57910 0.30900
C 	C 	0.89100 0.44290 0.73110 0.16700
H 	H 	0.90320 0.38980 0.71900 -0.01700
C 	C 	0.85710 0.59980 0.77260 -0.26100
C 	C 	0.77410 0.35590 0.87860 -0.21100
C 	C 	0.62080 0.39900 0.43180 -0.11700
C 	C 	0.90350 0.60410 0.76050 0.16100
H 	H 	0.92330 0.65910 0.76570 -0.01200
C 	C 	0.92070 0.52450 0.74030 -0.22100
H 	H 	0.95250 0.52660 0.73290 0.10600
C 	C 	0.56540 0.49190 0.48970 0.02600
H 	H 	0.54750 0.52350 0.50920 0.04000
C 	C 	0.58350 0.46970 0.40470 0.04100
H 	H 	0.57770 0.48720 0.36750 0.03000
C 	C 	0.82340 0.19080 0.92920 0.14400
H 	H 	0.84050 0.13590 0.94630 -0.00300
C 	C 	0.55480 0.51450 0.43340 -0.09900
H 	H 	0.52870 0.55950 0.41460 0.07900
C 	C 	0.79710 0.34880 0.93770 0.12200
H 	H 	0.79590 0.39860 0.96040 0.00700
C 	C 	0.82230 0.26570 0.96300 -0.19200
H 	H 	0.83830 0.26060 0.00270 0.10200
O 	O 	0.78240 0.13410 0.77960 -0.57500
C 	C 	0.79840 0.11820 0.83210 0.53100
O 	O 	0.85260 0.76210 0.78660 -0.52100
Eu	Eu	0.16524 0.91568 0.69830 2.08600
Eu	Eu	0.21355 0.13605 0.81010 2.19900
O 	O 	0.25590 0.86730 0.71680 -0.53200
O 	O 	0.12970 0.06400 0.73390 -0.55800
O 	O 	0.26410 0.01990 0.88180 -0.45400
O 	O 	0.08540 0.93390 0.72620 -0.44100
O 	O 	0.21770 0.95230 0.79890 -0.59100
C 	C 	0.04290 0.16700 0.74450 0.11100
H 	H 	0.07190 0.19970 0.74120 -0.00400
C 	C 	0.04260 0.07120 0.74390 -0.17200
C 	C 	0.25010 0.94780 0.85220 0.43000
C 	C 	0.08810 0.01980 0.73420 0.40100
C 	C 	0.33640 0.18250 0.79450 0.52200
O 	O 	0.15980 0.85540 0.60720 -0.38000
O 	O 	0.31470 0.54190 0.85380 -0.50600
O 	O 	0.15570 0.88410 0.35850 -0.50100
O 	O 	0.32740 0.78040 0.72140 -0.53100
O 	O 	0.08680 0.93270 0.60360 -0.40400
O 	O 	0.25970 0.22850 0.89440 -0.53000
H 	H 	0.23910 0.23630 0.91120 0.30400
O 	O 	0.30420 0.16950 0.81930 -0.50800
C 	C 	0.29950 0.69800 0.87090 -0.24100
O 	O 	0.17500 0.77370 0.42450 -0.30900
C 	C 	0.34270 0.94170 0.74030 -0.26700
C 	C 	0.30580 0.85670 0.72450 0.52800
C 	C 	0.10280 0.92210 0.51720 -0.08000
C 	C 	0.12950 0.87580 0.48750 0.03700
H 	H 	0.15380 0.82810 0.50560 0.06100
C 	C 	0.32650 0.01820 0.76140 0.22300
H 	H 	0.29450 0.01570 0.76840 -0.07600
C 	C 	0.15250 0.84770 0.40290 0.39500
C 	C 	0.27470 0.78140 0.84550 0.16900
H 	H 	0.25840 0.78610 0.80570 -0.03300
C 	C 	0.11610 0.90240 0.57910 0.30900
C 	C 	0.39100 0.94290 0.73110 0.16700
H 	H 	0.40320 0.88980 0.71900 -0.01700
C 	C 	0.35710 0.09980 0.77260 -0.26100
C 	C 	0.27410 0.85590 0.87860 -0.21200
C 	C 	0.12080 0.89900 0.43180 -0.11700
C 	C 	0.40350 0.10410 0.76050 0.16100
H 	H 	0.42330 0.15910 0.76570 -0.01200
C 	C 	0.42070 0.02450 0.74030 -0.22000
H 	H 	0.45250 0.02660 0.73290 0.10600
C 	C 	0.06540 0.99190 0.48970 0.02500
H 	H 	0.04750 0.02350 0.50920 0.03900
C 	C 	0.08350 0.96970 0.40470 0.04100
H 	H 	0.07770 0.98720 0.36750 0.03000
C 	C 	0.32340 0.69080 0.92920 0.14600
H 	H 	0.34050 0.63590 0.94630 -0.00400
C 	C 	0.05480 0.01450 0.43340 -0.09900
H 	H 	0.02870 0.05950 0.41460 0.07900
C 	C 	0.29710 0.84880 0.93770 0.12400
H 	H 	0.29590 0.89860 0.96040 0.00600
C 	C 	0.32230 0.76570 0.96300 -0.19600
H 	H 	0.33830 0.76060 0.00270 0.10500
O 	O 	0.28240 0.63410 0.77960 -0.57500
C 	C 	0.29840 0.61820 0.83210 0.53200
O 	O 	0.35260 0.26210 0.78660 -0.52100
Eu	Eu	0.33476 0.41568 0.80170 2.08600
Eu	Eu	0.28645 0.63605 0.68990 2.19900
O 	O 	0.24410 0.36730 0.78320 -0.53200
O 	O 	0.37030 0.56400 0.76610 -0.55700
O 	O 	0.23590 0.51990 0.61820 -0.45400
O 	O 	0.41460 0.43390 0.77380 -0.44000
O 	O 	0.28230 0.45230 0.70110 -0.59100
C 	C 	0.45710 0.66700 0.75550 0.10900
H 	H 	0.42810 0.69970 0.75880 -0.00300
C 	C 	0.45740 0.57120 0.75610 -0.17100
C 	C 	0.24990 0.44780 0.64780 0.43000
C 	C 	0.41190 0.51980 0.76580 0.40000
C 	C 	0.16360 0.68250 0.70550 0.52100
O 	O 	0.34020 0.35540 0.89280 -0.38000
O 	O 	0.18530 0.04190 0.64620 -0.50600
O 	O 	0.34430 0.38410 0.14150 -0.50100
O 	O 	0.17260 0.28040 0.77860 -0.53100
O 	O 	0.41320 0.43270 0.89640 -0.40400
O 	O 	0.24030 0.72850 0.60560 -0.53000
H 	H 	0.26090 0.73630 0.58880 0.30400
O 	O 	0.19580 0.66950 0.68070 -0.50800
C 	C 	0.20050 0.19800 0.62910 -0.24000
O 	O 	0.32500 0.27370 0.07550 -0.30900
C 	C 	0.15730 0.44170 0.75970 -0.26700
C 	C 	0.19420 0.35670 0.77550 0.52800
C 	C 	0.39720 0.42210 0.98280 -0.07900
C 	C 	0.37050 0.37580 0.01250 0.03600
H 	H 	0.34620 0.32810 0.99440 0.06100
C 	C 	0.17350 0.51820 0.73860 0.22200
H 	H 	0.20550 0.51570 0.73160 -0.07600
C 	C 	0.34750 0.34770 0.09710 0.39500
C 	C 	0.22530 0.28140 0.65450 0.16800
H 	H 	0.24160 0.28610 0.69430 -0.03300
C 	C 	0.38390 0.40240 0.92090 0.30900
C 	C 	0.10900 0.44290 0.76890 0.16700
H 	H 	0.09680 0.38980 0.78100 -0.01700
C 	C 	0.14290 0.59980 0.72740 -0.26100
C 	C 	0.22590 0.35590 0.62140 -0.21200
C 	C 	0.37920 0.39900 0.06820 -0.11700
C 	C 	0.09650 0.60410 0.73950 0.16100
H 	H 	0.07670 0.65910 0.73430 -0.01300
C 	C 	0.07930 0.52450 0.75970 -0.22100
H 	H 	0.04750 0.52660 0.76710 0.10600
C 	C 	0.43460 0.49190 0.01030 0.02600
H 	H 	0.45250 0.52350 0.99080 0.04000
C 	C 	0.41650 0.46970 0.09530 0.04100
H 	H 	0.42230 0.48720 0.13250 0.03000
C 	C 	0.17660 0.19080 0.57080 0.14500
H 	H 	0.15950 0.13590 0.55370 -0.00400
C 	C 	0.44520 0.51450 0.06660 -0.09900
H 	H 	0.47130 0.55950 0.08540 0.07900
C 	C 	0.20290 0.34880 0.56230 0.12300
H 	H 	0.20410 0.39860 0.53960 0.00600
C 	C 	0.17770 0.26570 0.53700 -0.19400
H 	H 	0.16170 0.26060 0.49730 0.10400
O 	O 	0.21760 0.13410 0.72040 -0.57500
C 	C 	0.20160 0.11820 0.66790 0.53100
O 	O 	0.14740 0.76210 0.71340 -0.52100
Eu	Eu	0.83476 0.91568 0.80170 2.08600
Eu	Eu	0.78645 0.13605 0.68990 2.19900
O 	O 	0.74410 0.86730 0.78320 -0.53200
O 	O 	0.87030 0.06400 0.76610 -0.55700
O 	O 	0.73590 0.01990 0.61820 -0.45400
O 	O 	0.91460 0.93390 0.77380 -0.44000
O 	O 	0.78230 0.95230 0.70110 -0.59100
C 	C 	0.95710 0.16700 0.75550 0.11200
H 	H 	0.92810 0.19970 0.75880 -0.00400
C 	C 	0.95740 0.07120 0.75610 -0.17100
C 	C 	0.74990 0.94780 0.64780 0.43000
C 	C 	0.91190 0.01980 0.76580 0.40100
C 	C 	0.66360 0.18250 0.70550 0.52200
O 	O 	0.84020 0.85540 0.89280 -0.38000
O 	O 	0.68530 0.54190 0.64620 -0.50600
O 	O 	0.84430 0.88410 0.14150 -0.50200
O 	O 	0.67260 0.78040 0.77860 -0.53100
O 	O 	0.91320 0.93270 0.89640 -0.40400
O 	O 	0.74030 0.22850 0.60560 -0.53000
H 	H 	0.76090 0.23630 0.58880 0.30400
O 	O 	0.69580 0.16950 0.68070 -0.50800
C 	C 	0.70050 0.69800 0.62910 -0.24000
O 	O 	0.82500 0.77370 0.07550 -0.30900
C 	C 	0.65730 0.94170 0.75970 -0.26700
C 	C 	0.69420 0.85670 0.77550 0.52800
C 	C 	0.89720 0.92210 0.98280 -0.08200
C 	C 	0.87050 0.87580 0.01250 0.03900
H 	H 	0.84620 0.82810 0.99440 0.05900
C 	C 	0.67350 0.01820 0.73860 0.22300
H 	H 	0.70550 0.01570 0.73160 -0.07600
C 	C 	0.84750 0.84770 0.09710 0.39600
C 	C 	0.72530 0.78140 0.65450 0.16800
H 	H 	0.74160 0.78610 0.69430 -0.03300
C 	C 	0.88390 0.90240 0.92090 0.30900
C 	C 	0.60900 0.94290 0.76890 0.16600
H 	H 	0.59680 0.88980 0.78100 -0.01700
C 	C 	0.64290 0.09980 0.72740 -0.26100
C 	C 	0.72590 0.85590 0.62140 -0.21200
C 	C 	0.87920 0.89900 0.06820 -0.11900
C 	C 	0.59650 0.10410 0.73950 0.16000
H 	H 	0.57670 0.15910 0.73430 -0.01200
C 	C 	0.57930 0.02450 0.75970 -0.22000
H 	H 	0.54750 0.02660 0.76710 0.10600
C 	C 	0.93460 0.99190 0.01030 0.02900
H 	H 	0.95250 0.02350 0.99080 0.03900
C 	C 	0.91650 0.96970 0.09530 0.04400
H 	H 	0.92230 0.98720 0.13250 0.02900
C 	C 	0.67660 0.69080 0.57080 0.14500
H 	H 	0.65950 0.63590 0.55370 -0.00400
C 	C 	0.94520 0.01450 0.06660 -0.10400
H 	H 	0.97130 0.05950 0.08540 0.08000
C 	C 	0.70290 0.84880 0.56230 0.12300
H 	H 	0.70410 0.89860 0.53960 0.00600
C 	C 	0.67770 0.76570 0.53700 -0.19400
H 	H 	0.66170 0.76060 0.49730 0.10400
O 	O 	0.71760 0.63410 0.72040 -0.57500
C 	C 	0.70160 0.61820 0.66790 0.53100
O 	O 	0.64740 0.26210 0.71340 -0.52100
C 	C 	0.50000 0.47740 0.25000 0.09700
H 	H 	0.50000 0.54180 0.25000 0.02000
C 	C 	0.50000 0.28720 0.25000 -0.17400
H 	H 	0.50000 0.22280 0.25000 0.09500
C 	C 	0.00000 0.97740 0.25000 0.09700
H 	H 	0.00000 0.04180 0.25000 0.02000
C 	C 	0.00000 0.78720 0.25000 -0.17700
H 	H 	0.00000 0.72280 0.25000 0.09600
C 	C 	0.50000 0.52260 0.75000 0.09700
H 	H 	0.50000 0.45820 0.75000 0.02000
C 	C 	0.50000 0.71280 0.75000 -0.17400
H 	H 	0.50000 0.77720 0.75000 0.09500
C 	C 	0.00000 0.02260 0.75000 0.09800
H 	H 	0.00000 0.95820 0.75000 0.02000
C 	C 	0.00000 0.21280 0.75000 -0.17800
H 	H 	0.00000 0.27720 0.75000 0.09600
