data_crystal

_cell_length_a 11.84900
_cell_length_b 17.71100
_cell_length_c 18.90300
_cell_angle_alpha 114.86000
_cell_angle_beta  90.00000
_cell_angle_gamma 90.00000

_symmetry_space_group_name_	'P 1'
_symmetry_space_group_name_H-M	'P 1'

loop_
_symmetry_equiv_pos_as_xyz
  x,y,z

loop_
_atom_site_label
_atom_site_type_symbol
_atom_site_fract_x
_atom_site_fract_y
_atom_site_fract_z
_atom_site_charge
Mn	Mn	0.58027 0.71185 0.97237 1.30300
Mn	Mn	0.81966 0.83341 0.12435 1.25100
Mn	Mn	0.44999 0.72182 0.80013 1.28000
Mn	Mn	0.08027 0.28815 0.52763 1.30400
Mn	Mn	0.31966 0.16659 0.37565 1.25100
Mn	Mn	0.94999 0.27818 0.69987 1.28100
Mn	Mn	0.41973 0.28815 0.02763 1.30400
Mn	Mn	0.18034 0.16659 0.87565 1.25200
Mn	Mn	0.55001 0.27818 0.19987 1.28100
Mn	Mn	0.91973 0.71185 0.47237 1.30500
Mn	Mn	0.68034 0.83341 0.62435 1.25100
Mn	Mn	0.05001 0.72182 0.30013 1.28100
H 	H 	0.65560 0.83210 0.88370 0.00100
H 	H 	0.55790 0.03990 0.86720 0.01400
H 	H 	0.67850 0.05050 0.07000 0.03200
H 	H 	0.78920 0.49900 0.76160 0.01500
H 	H 	0.89550 0.52120 0.57040 0.02100
H 	H 	0.69910 0.69630 0.72230 -0.01600
H 	H 	0.32140 0.86910 0.77790 -0.01700
H 	H 	0.17300 0.89730 0.71610 0.11100
H 	H 	0.05620 0.78920 0.64170 -0.03000
H 	H 	0.07970 0.66050 0.63810 0.12300
H 	H 	0.22320 0.64070 0.70800 -0.02500
H 	H 	0.15560 0.16790 0.61630 0.00300
H 	H 	0.05790 0.96010 0.63280 0.01500
H 	H 	0.17850 0.94950 0.43000 0.03200
H 	H 	0.28920 0.50100 0.73840 0.01500
H 	H 	0.39550 0.47880 0.92960 0.02100
H 	H 	0.19910 0.30370 0.77770 -0.01500
H 	H 	0.82140 0.13090 0.72210 -0.01700
H 	H 	0.67300 0.10270 0.78390 0.11200
H 	H 	0.55620 0.21080 0.85830 -0.03000
H 	H 	0.57970 0.33950 0.86190 0.12300
H 	H 	0.72320 0.35930 0.79200 -0.02500
H 	H 	0.34440 0.16790 0.11630 0.00100
H 	H 	0.44210 0.96010 0.13280 0.01400
H 	H 	0.32150 0.94950 0.93000 0.03200
H 	H 	0.21080 0.50100 0.23840 0.01500
H 	H 	0.10450 0.47880 0.42960 0.02100
H 	H 	0.30090 0.30370 0.27770 -0.01600
H 	H 	0.67860 0.13090 0.22210 -0.01700
H 	H 	0.82700 0.10270 0.28390 0.11100
H 	H 	0.94380 0.21080 0.35830 -0.03000
H 	H 	0.92030 0.33950 0.36190 0.12300
H 	H 	0.77680 0.35930 0.29200 -0.02500
H 	H 	0.84440 0.83210 0.38370 0.00300
H 	H 	0.94210 0.03990 0.36720 0.01500
H 	H 	0.82150 0.05050 0.57000 0.03200
H 	H 	0.71080 0.49900 0.26160 0.01500
H 	H 	0.60450 0.52120 0.07040 0.02100
H 	H 	0.80090 0.69630 0.22230 -0.01500
H 	H 	0.17860 0.86910 0.27790 -0.01700
H 	H 	0.32700 0.89730 0.21610 0.11200
H 	H 	0.44380 0.78920 0.14170 -0.03000
H 	H 	0.42030 0.66050 0.13810 0.12300
H 	H 	0.27680 0.64070 0.20800 -0.02500
C 	C 	0.72510 0.89200 0.03380 0.35300
C 	C 	0.67860 0.93390 0.98370 -0.14100
C 	C 	0.64780 0.88970 0.90640 0.06800
C 	C 	0.60570 0.92840 0.86160 -0.16800
C 	C 	0.57720 0.87570 0.77600 0.38600
C 	C 	0.58700 0.01340 0.89650 0.08600
C 	C 	0.61150 0.05990 0.97540 -0.13400
C 	C 	0.57620 0.15130 0.01960 0.39000
C 	C 	0.65930 0.01960 0.01800 0.06300
C 	C 	0.68250 0.64180 0.83570 0.34700
C 	C 	0.73680 0.60550 0.75620 -0.16700
C 	C 	0.79010 0.52830 0.73080 0.09200
C 	C 	0.84410 0.49610 0.65990 -0.16200
C 	C 	0.89480 0.40990 0.63210 0.39800
C 	C 	0.85310 0.54140 0.61600 0.09900
C 	C 	0.79830 0.61730 0.64050 -0.17100
C 	C 	0.79760 0.66890 0.59340 0.40200
C 	C 	0.73920 0.64690 0.70790 0.09100
C 	C 	0.27100 0.82670 0.75050 0.12500
C 	C 	0.18430 0.84400 0.71280 -0.21800
C 	C 	0.11460 0.77980 0.66990 0.15500
C 	C 	0.12780 0.70410 0.66720 -0.22900
C 	C 	0.21430 0.69320 0.70860 0.12600
C 	C 	0.22510 0.10800 0.46620 0.34800
C 	C 	0.17860 0.06610 0.51630 -0.13400
C 	C 	0.14780 0.11030 0.59360 0.06400
C 	C 	0.10570 0.07160 0.63840 -0.16000
C 	C 	0.07720 0.12430 0.72400 0.38400
C 	C 	0.08700 0.98660 0.60350 0.07900
C 	C 	0.11150 0.94010 0.52460 -0.13900
C 	C 	0.07620 0.84870 0.48040 0.39600
C 	C 	0.15930 0.98040 0.48200 0.06500
C 	C 	0.18250 0.35820 0.66430 0.34700
C 	C 	0.23680 0.39450 0.74380 -0.16600
C 	C 	0.29010 0.47170 0.76920 0.09200
C 	C 	0.34410 0.50390 0.84010 -0.16200
C 	C 	0.39480 0.59010 0.86790 0.39800
C 	C 	0.35310 0.45860 0.88400 0.09900
C 	C 	0.29830 0.38270 0.85950 -0.17000
C 	C 	0.29760 0.33110 0.90660 0.40200
C 	C 	0.23920 0.35310 0.79210 0.09100
C 	C 	0.77100 0.17330 0.74950 0.12500
C 	C 	0.68430 0.15600 0.78720 -0.21900
C 	C 	0.61460 0.22020 0.83010 0.15500
C 	C 	0.62780 0.29590 0.83280 -0.22900
C 	C 	0.71430 0.30680 0.79140 0.12600
C 	C 	0.27490 0.10800 0.96620 0.35300
C 	C 	0.32140 0.06610 0.01630 -0.14100
C 	C 	0.35220 0.11030 0.09360 0.06800
C 	C 	0.39430 0.07160 0.13840 -0.16800
C 	C 	0.42280 0.12430 0.22400 0.38600
C 	C 	0.41300 0.98660 0.10350 0.08600
C 	C 	0.38850 0.94010 0.02460 -0.13400
C 	C 	0.42380 0.84870 0.98040 0.39000
C 	C 	0.34070 0.98040 0.98200 0.06300
C 	C 	0.31750 0.35820 0.16430 0.34700
C 	C 	0.26320 0.39450 0.24380 -0.16700
C 	C 	0.20990 0.47170 0.26920 0.09200
C 	C 	0.15590 0.50390 0.34010 -0.16200
C 	C 	0.10520 0.59010 0.36790 0.39800
C 	C 	0.14690 0.45860 0.38400 0.09900
C 	C 	0.20170 0.38270 0.35950 -0.17100
C 	C 	0.20240 0.33110 0.40660 0.40200
C 	C 	0.26080 0.35310 0.29210 0.09100
C 	C 	0.72900 0.17330 0.24950 0.12500
C 	C 	0.81570 0.15600 0.28720 -0.21800
C 	C 	0.88540 0.22020 0.33010 0.15500
C 	C 	0.87220 0.29590 0.33280 -0.22900
C 	C 	0.78570 0.30680 0.29140 0.12600
C 	C 	0.77490 0.89200 0.53380 0.34800
C 	C 	0.82140 0.93390 0.48370 -0.13400
C 	C 	0.85220 0.88970 0.40640 0.06400
C 	C 	0.89430 0.92840 0.36160 -0.16000
C 	C 	0.92280 0.87570 0.27600 0.38400
C 	C 	0.91300 0.01340 0.39650 0.07900
C 	C 	0.88850 0.05990 0.47540 -0.13900
C 	C 	0.92380 0.15130 0.51960 0.39600
C 	C 	0.84070 0.01960 0.51800 0.06500
C 	C 	0.81750 0.64180 0.33570 0.34700
C 	C 	0.76320 0.60550 0.25620 -0.16600
C 	C 	0.70990 0.52830 0.23080 0.09200
C 	C 	0.65590 0.49610 0.15990 -0.16200
C 	C 	0.60520 0.40990 0.13210 0.39800
C 	C 	0.64690 0.54140 0.11600 0.09900
C 	C 	0.70170 0.61730 0.14050 -0.17000
C 	C 	0.70240 0.66890 0.09340 0.40200
C 	C 	0.76080 0.64690 0.20790 0.09100
C 	C 	0.22900 0.82670 0.25050 0.12500
C 	C 	0.31570 0.84400 0.21280 -0.21900
C 	C 	0.38540 0.77980 0.16990 0.15500
C 	C 	0.37220 0.70410 0.16720 -0.22900
C 	C 	0.28570 0.69320 0.20860 0.12600
N 	N 	0.28790 0.75220 0.75040 -0.25200
N 	N 	0.78790 0.24780 0.74960 -0.25200
N 	N 	0.71210 0.24780 0.24960 -0.25200
N 	N 	0.21210 0.75220 0.25040 -0.25200
O 	O 	0.71670 0.81310 0.00730 -0.50800
O 	O 	0.77010 0.93550 0.09650 -0.44400
O 	O 	0.54110 0.80270 0.75770 -0.47500
O 	O 	0.59440 0.90770 0.72980 -0.47300
O 	O 	0.52980 0.18470 0.97970 -0.45400
O 	O 	0.59690 0.18350 0.09120 -0.46600
O 	O 	0.60380 0.69640 0.84810 -0.54200
O 	O 	0.71520 0.62210 0.88860 -0.37600
O 	O 	0.87060 0.37050 0.67300 -0.46500
O 	O 	0.95470 0.38400 0.57200 -0.43800
O 	O 	0.88650 0.66820 0.55760 -0.46400
O 	O 	0.70770 0.70690 0.59410 -0.50200
O 	O 	0.21670 0.18690 0.49270 -0.50900
O 	O 	0.27010 0.06450 0.40350 -0.44500
O 	O 	0.04110 0.19730 0.74230 -0.47300
O 	O 	0.09440 0.09230 0.77020 -0.47000
O 	O 	0.02980 0.81530 0.52030 -0.45800
O 	O 	0.09690 0.81650 0.40880 -0.46700
O 	O 	0.10380 0.30360 0.65190 -0.54100
O 	O 	0.21520 0.37790 0.61140 -0.37500
O 	O 	0.37060 0.62950 0.82700 -0.46500
O 	O 	0.45470 0.61600 0.92800 -0.43800
O 	O 	0.38650 0.33180 0.94240 -0.46400
O 	O 	0.20770 0.29310 0.90590 -0.50200
O 	O 	0.28330 0.18690 0.99270 -0.50800
O 	O 	0.22990 0.06450 0.90350 -0.44400
O 	O 	0.45890 0.19730 0.24230 -0.47500
O 	O 	0.40560 0.09230 0.27020 -0.47300
O 	O 	0.47020 0.81530 0.02030 -0.45400
O 	O 	0.40310 0.81650 0.90880 -0.46600
O 	O 	0.39620 0.30360 0.15190 -0.54200
O 	O 	0.28480 0.37790 0.11140 -0.37600
O 	O 	0.12940 0.62950 0.32700 -0.46500
O 	O 	0.04530 0.61600 0.42800 -0.43800
O 	O 	0.11350 0.33180 0.44240 -0.46400
O 	O 	0.29230 0.29310 0.40590 -0.50200
O 	O 	0.78330 0.81310 0.50730 -0.50900
O 	O 	0.72990 0.93550 0.59650 -0.44500
O 	O 	0.95890 0.80270 0.25770 -0.47300
O 	O 	0.90560 0.90770 0.22980 -0.47000
O 	O 	0.97020 0.18470 0.47970 -0.45800
O 	O 	0.90310 0.18350 0.59120 -0.46700
O 	O 	0.89620 0.69640 0.34810 -0.54100
O 	O 	0.78480 0.62210 0.38860 -0.37500
O 	O 	0.62940 0.37050 0.17300 -0.46500
O 	O 	0.54530 0.38400 0.07200 -0.43800
O 	O 	0.61350 0.66820 0.05760 -0.46400
O 	O 	0.79230 0.70690 0.09410 -0.50200
