data_crystal

_cell_length_a 11.79700
_cell_length_b 17.87600
_cell_length_c 18.84800
_cell_angle_alpha 116.35000
_cell_angle_beta  90.00000
_cell_angle_gamma 90.00000

_symmetry_space_group_name_	'P 1'
_symmetry_space_group_name_H-M	'P 1'

loop_
_symmetry_equiv_pos_as_xyz
  x,y,z

loop_
_atom_site_label
_atom_site_type_symbol
_atom_site_fract_x
_atom_site_fract_y
_atom_site_fract_z
_atom_site_charge
Mn	Mn	0.42080 0.78545 0.52400 1.30500
Mn	Mn	0.17511 0.66668 0.37672 1.24900
Mn	Mn	0.55231 0.78750 0.69929 1.26300
Mn	Mn	0.92080 0.21455 0.97600 1.30400
Mn	Mn	0.67511 0.33332 0.12328 1.24900
Mn	Mn	0.05231 0.21250 0.80071 1.26300
Mn	Mn	0.57920 0.21455 0.47600 1.30400
Mn	Mn	0.82489 0.33332 0.62328 1.24800
Mn	Mn	0.44769 0.21250 0.30071 1.26300
Mn	Mn	0.07920 0.78545 0.02400 1.30400
Mn	Mn	0.32489 0.66668 0.87672 1.24900
Mn	Mn	0.94769 0.78750 0.19929 1.26300
H 	H 	0.34330 0.67240 0.61590 0.00100
H 	H 	0.45190 0.46700 0.63100 0.00900
H 	H 	0.31790 0.44860 0.42800 0.01900
H 	H 	0.20810 0.99960 0.74140 -0.00200
H 	H 	0.10260 0.97280 0.93090 0.01700
H 	H 	0.30590 0.80060 0.77090 -0.01700
H 	H 	0.84330 0.32760 0.88410 0.00100
H 	H 	0.95190 0.53300 0.86900 0.01000
H 	H 	0.81790 0.55140 0.07200 0.02000
H 	H 	0.70810 0.00040 0.75860 0.00000
H 	H 	0.60260 0.02720 0.56910 0.01900
H 	H 	0.80590 0.19940 0.72910 -0.01500
H 	H 	0.65670 0.32760 0.38410 0.00100
H 	H 	0.54810 0.53300 0.36900 0.00900
H 	H 	0.68210 0.55140 0.57200 0.01900
H 	H 	0.79190 0.00040 0.25860 -0.00200
H 	H 	0.89740 0.02720 0.06910 0.01700
H 	H 	0.69410 0.19940 0.22910 -0.01700
H 	H 	0.15670 0.67240 0.11590 0.00100
H 	H 	0.04810 0.46700 0.13100 0.01000
H 	H 	0.18210 0.44860 0.92800 0.02000
H 	H 	0.29190 0.99960 0.24140 0.00000
H 	H 	0.39740 0.97280 0.43090 0.01900
H 	H 	0.19410 0.80060 0.27090 -0.01500
C 	C 	0.27430 0.60690 0.46600 0.34400
C 	C 	0.32210 0.56680 0.51460 -0.15200
C 	C 	0.35380 0.61490 0.59290 0.07500
C 	C 	0.40090 0.57800 0.63740 -0.17400
C 	C 	0.43310 0.63180 0.72310 0.39100
C 	C 	0.41970 0.49210 0.60190 0.09600
C 	C 	0.39040 0.44350 0.52280 -0.16100
C 	C 	0.42170 0.35160 0.47950 0.41300
C 	C 	0.34000 0.48110 0.48010 0.08700
C 	C 	0.31630 0.85710 0.66210 0.36500
C 	C 	0.26220 0.89330 0.74210 -0.18800
C 	C 	0.20760 0.96950 0.77090 0.11300
C 	C 	0.15190 0.00160 0.84340 -0.18700
C 	C 	0.10230 0.08770 0.87420 0.41500
C 	C 	0.14580 0.95420 0.88500 0.11100
C 	C 	0.20370 0.87930 0.85820 -0.17700
C 	C 	0.20600 0.82770 0.90360 0.40700
C 	C 	0.26410 0.84960 0.78770 0.09100
C 	C 	0.77430 0.39310 0.03400 0.34400
C 	C 	0.82210 0.43320 0.98540 -0.15100
C 	C 	0.85380 0.38510 0.90710 0.07400
C 	C 	0.90090 0.42200 0.86260 -0.17400
C 	C 	0.93310 0.36820 0.77690 0.39100
C 	C 	0.91970 0.50790 0.89810 0.09500
C 	C 	0.89040 0.55650 0.97720 -0.15800
C 	C 	0.92170 0.64840 0.02050 0.41100
C 	C 	0.84000 0.51890 0.01990 0.08500
C 	C 	0.81630 0.14290 0.83790 0.36400
C 	C 	0.76220 0.10670 0.75790 -0.18400
C 	C 	0.70760 0.03050 0.72910 0.10300
C 	C 	0.65190 0.99840 0.65660 -0.17600
C 	C 	0.60230 0.91230 0.62580 0.41200
C 	C 	0.64580 0.04580 0.61500 0.10100
C 	C 	0.70370 0.12070 0.64180 -0.17300
C 	C 	0.70600 0.17230 0.59640 0.40500
C 	C 	0.76410 0.15040 0.71230 0.08600
C 	C 	0.72570 0.39310 0.53400 0.34400
C 	C 	0.67790 0.43320 0.48540 -0.15200
C 	C 	0.64620 0.38510 0.40710 0.07500
C 	C 	0.59910 0.42200 0.36260 -0.17400
C 	C 	0.56690 0.36820 0.27690 0.39100
C 	C 	0.58030 0.50790 0.39810 0.09600
C 	C 	0.60960 0.55650 0.47720 -0.16100
C 	C 	0.57830 0.64840 0.52050 0.41300
C 	C 	0.66000 0.51890 0.51990 0.08700
C 	C 	0.68370 0.14290 0.33790 0.36500
C 	C 	0.73780 0.10670 0.25790 -0.18800
C 	C 	0.79240 0.03050 0.22910 0.11300
C 	C 	0.84810 0.99840 0.15660 -0.18700
C 	C 	0.89770 0.91230 0.12580 0.41500
C 	C 	0.85420 0.04580 0.11500 0.11100
C 	C 	0.79630 0.12070 0.14180 -0.17700
C 	C 	0.79400 0.17230 0.09640 0.40700
C 	C 	0.73590 0.15040 0.21230 0.09100
C 	C 	0.22570 0.60690 0.96600 0.34400
C 	C 	0.17790 0.56680 0.01460 -0.15100
C 	C 	0.14620 0.61490 0.09290 0.07400
C 	C 	0.09910 0.57800 0.13740 -0.17400
C 	C 	0.06690 0.63180 0.22310 0.39100
C 	C 	0.08030 0.49210 0.10190 0.09500
C 	C 	0.10960 0.44350 0.02280 -0.15800
C 	C 	0.07830 0.35160 0.97950 0.41100
C 	C 	0.16000 0.48110 0.98010 0.08500
C 	C 	0.18370 0.85710 0.16210 0.36400
C 	C 	0.23780 0.89330 0.24210 -0.18400
C 	C 	0.29240 0.96950 0.27090 0.10300
C 	C 	0.34810 0.00160 0.34340 -0.17600
C 	C 	0.39770 0.08770 0.37420 0.41200
C 	C 	0.35420 0.95420 0.38500 0.10100
C 	C 	0.29630 0.87930 0.35820 -0.17300
C 	C 	0.29400 0.82770 0.40360 0.40500
C 	C 	0.23590 0.84960 0.28770 0.08600
O 	O 	0.28310 0.68515 0.49014 -0.51700
O 	O 	0.22570 0.56153 0.40127 -0.43400
O 	O 	0.46970 0.70391 0.74193 -0.48000
O 	O 	0.41820 0.60051 0.77079 -0.47500
O 	O 	0.46880 0.31916 0.51943 -0.46600
O 	O 	0.40050 0.31655 0.40719 -0.48100
O 	O 	0.39790 0.80504 0.64852 -0.56000
O 	O 	0.28110 0.87535 0.60964 -0.38300
O 	O 	0.12850 0.12755 0.83591 -0.49700
O 	O 	0.04110 0.11351 0.93475 -0.44300
O 	O 	0.11650 0.82530 0.93806 -0.47000
O 	O 	0.29780 0.79182 0.90297 -0.50500
O 	O 	0.78310 0.31485 0.00986 -0.51700
O 	O 	0.72570 0.43847 0.09873 -0.43400
O 	O 	0.96970 0.29609 0.75807 -0.48000
O 	O 	0.91820 0.39949 0.72921 -0.47500
O 	O 	0.96880 0.68084 0.98057 -0.46400
O 	O 	0.90050 0.68345 0.09281 -0.48100
O 	O 	0.89790 0.19496 0.85148 -0.56000
O 	O 	0.78110 0.12465 0.89036 -0.38400
O 	O 	0.62850 0.87245 0.66409 -0.49600
O 	O 	0.54110 0.88649 0.56525 -0.44100
O 	O 	0.61650 0.17470 0.56194 -0.47000
O 	O 	0.79780 0.20818 0.59703 -0.50500
O 	O 	0.71690 0.31485 0.50986 -0.51700
O 	O 	0.77430 0.43847 0.59873 -0.43400
O 	O 	0.53030 0.29609 0.25807 -0.48000
O 	O 	0.58180 0.39949 0.22921 -0.47500
O 	O 	0.53120 0.68084 0.48057 -0.46600
O 	O 	0.59950 0.68345 0.59281 -0.48100
O 	O 	0.60210 0.19496 0.35148 -0.56000
O 	O 	0.71890 0.12465 0.39036 -0.38300
O 	O 	0.87150 0.87245 0.16409 -0.49700
O 	O 	0.95890 0.88649 0.06525 -0.44300
O 	O 	0.88350 0.17470 0.06194 -0.47000
O 	O 	0.70220 0.20818 0.09703 -0.50500
O 	O 	0.21690 0.68515 0.99014 -0.51700
O 	O 	0.27430 0.56153 0.90127 -0.43400
O 	O 	0.03030 0.70391 0.24193 -0.48000
O 	O 	0.08180 0.60051 0.27079 -0.47500
O 	O 	0.03120 0.31916 0.01943 -0.46400
O 	O 	0.09950 0.31655 0.90719 -0.48100
O 	O 	0.10210 0.80504 0.14852 -0.56000
O 	O 	0.21890 0.87535 0.10964 -0.38400
O 	O 	0.37150 0.12755 0.33591 -0.49600
O 	O 	0.45890 0.11351 0.43475 -0.44100
O 	O 	0.38350 0.82530 0.43806 -0.47000
O 	O 	0.20220 0.79182 0.40297 -0.50500
