data_crystal

_cell_length_a 26.37970
_cell_length_b 14.43780
_cell_length_c 25.42310
_cell_angle_alpha 90.00000
_cell_angle_beta  113.63100
_cell_angle_gamma 90.00000

_symmetry_space_group_name_	'P 1'
_symmetry_space_group_name_H-M	'P 1'

loop_
_symmetry_equiv_pos_as_xyz
  x,y,z

loop_
_atom_site_label
_atom_site_type_symbol
_atom_site_fract_x
_atom_site_fract_y
_atom_site_fract_z
_atom_site_charge
Sm	Sm	0.21376 0.63500 0.31006 2.15100
Sm	Sm	0.16496 0.41439 0.19794 2.18700
C 	C 	0.30690 0.35630 0.22580 0.54100
C 	C 	0.34280 0.43940 0.24030 -0.31400
C 	C 	0.39060 0.44390 0.23050 0.21500
H 	H 	0.40300 0.39160 0.21780 -0.03700
C 	C 	0.41980 0.52440 0.23930 -0.27400
H 	H 	0.45130 0.52680 0.23140 0.12300
C 	C 	0.40350 0.60250 0.25950 0.19500
H 	H 	0.42340 0.65730 0.26480 -0.02600
C 	C 	0.35670 0.59810 0.27210 -0.28400
C 	C 	0.32740 0.51590 0.26220 0.25500
H 	H 	0.29630 0.51250 0.27080 -0.08900
C 	C 	0.33650 0.68160 0.29480 0.53800
C 	C 	0.25110 0.44630 0.35230 0.45400
C 	C 	0.27450 0.35510 0.37970 -0.22500
C 	C 	0.29910 0.34750 0.43870 0.13500
H 	H 	0.29990 0.39750 0.46200 -0.00100
C 	C 	0.32290 0.26300 0.46250 -0.20300
H 	H 	0.33820 0.25670 0.50220 0.10500
C 	C 	0.32460 0.18850 0.42940 0.14700
H 	H 	0.34170 0.13360 0.44650 -0.00600
C 	C 	0.30020 0.19710 0.37010 -0.24700
C 	C 	0.27520 0.28040 0.34550 0.17600
H 	H 	0.25890 0.28610 0.30570 -0.03900
C 	C 	0.29990 0.11730 0.33280 0.53000
C 	C 	0.15320 0.65230 0.40340 0.38900
C 	C 	0.12170 0.60100 0.43220 -0.12800
C 	C 	0.08330 0.53030 0.40440 0.05400
H 	H 	0.07690 0.51360 0.36700 0.02500
C 	C 	0.05530 0.48630 0.43250 -0.11800
H 	H 	0.02990 0.44010 0.41380 0.08400
C 	C 	0.06450 0.50960 0.48820 0.04600
H 	H 	0.04500 0.47950 0.50670 0.03100
C 	C 	0.10230 0.57760 0.51670 -0.10400
C 	C 	0.12950 0.62450 0.48730 0.05400
H 	H 	0.15340 0.67280 0.50550 0.03800
C 	C 	0.11590 0.60040 0.57860 0.33700
C 	C 	0.08760 0.51700 0.23400 0.39900
C 	C 	0.04280 0.56860 0.24370 -0.17700
C 	C 	0.04230 0.66490 0.24470 0.11600
H 	H 	0.07150 0.69740 0.24180 -0.00500
O 	O 	0.32800 0.28020 0.22200 -0.54800
O 	O 	0.25580 0.36550 0.21690 -0.56200
O 	O 	0.30430 0.66840 0.31920 -0.55700
O 	O 	0.35380 0.76040 0.28650 -0.54000
O 	O 	0.21760 0.45000 0.29950 -0.60700
O 	O 	0.26520 0.51790 0.38190 -0.48400
O 	O 	0.31630 0.04050 0.35450 -0.52100
O 	O 	0.28220 0.13260 0.27980 -0.57400
O 	O 	0.15550 0.61480 0.35860 -0.50200
O 	O 	0.17570 0.72590 0.42510 -0.30300
O 	O 	0.15950 0.64580 0.60600 -0.43400
O 	O 	0.08680 0.57000 0.60300 -0.42800
O 	O 	0.12970 0.56300 0.23400 -0.56300
O 	O 	0.08380 0.43240 0.22500 -0.45000
Sm	Sm	0.71376 0.13500 0.31006 2.15200
Sm	Sm	0.66496 0.91439 0.19794 2.18700
C 	C 	0.80690 0.85630 0.22580 0.54200
C 	C 	0.84280 0.93940 0.24030 -0.31300
C 	C 	0.89060 0.94390 0.23050 0.21600
H 	H 	0.90300 0.89160 0.21780 -0.03500
C 	C 	0.91980 0.02440 0.23930 -0.27200
H 	H 	0.95130 0.02680 0.23140 0.12300
C 	C 	0.90350 0.10250 0.25950 0.19500
H 	H 	0.92340 0.15730 0.26480 -0.02500
C 	C 	0.85670 0.09810 0.27210 -0.28400
C 	C 	0.82740 0.01590 0.26220 0.25500
H 	H 	0.79630 0.01250 0.27080 -0.08900
C 	C 	0.83650 0.18160 0.29480 0.53800
C 	C 	0.75110 0.94630 0.35230 0.45300
C 	C 	0.77450 0.85510 0.37970 -0.22500
C 	C 	0.79910 0.84750 0.43870 0.13500
H 	H 	0.79990 0.89750 0.46200 -0.00100
C 	C 	0.82290 0.76300 0.46250 -0.20300
H 	H 	0.83820 0.75670 0.50220 0.10500
C 	C 	0.82460 0.68850 0.42940 0.14700
H 	H 	0.84170 0.63360 0.44650 -0.00600
C 	C 	0.80020 0.69710 0.37010 -0.24700
C 	C 	0.77520 0.78040 0.34550 0.17600
H 	H 	0.75890 0.78610 0.30570 -0.03900
C 	C 	0.79990 0.61730 0.33280 0.53000
C 	C 	0.65320 0.15230 0.40340 0.38900
C 	C 	0.62170 0.10100 0.43220 -0.12800
C 	C 	0.58330 0.03030 0.40440 0.05500
H 	H 	0.57690 0.01360 0.36700 0.02500
C 	C 	0.55530 0.98630 0.43250 -0.11900
H 	H 	0.52990 0.94010 0.41380 0.08400
C 	C 	0.56450 0.00960 0.48820 0.04700
H 	H 	0.54500 0.97950 0.50670 0.03100
C 	C 	0.60230 0.07760 0.51670 -0.10400
C 	C 	0.62950 0.12450 0.48730 0.05400
H 	H 	0.65340 0.17280 0.50550 0.03800
C 	C 	0.61590 0.10040 0.57860 0.33700
C 	C 	0.58760 0.01700 0.23400 0.40000
C 	C 	0.54280 0.06860 0.24370 -0.17800
C 	C 	0.54230 0.16490 0.24470 0.11600
H 	H 	0.57150 0.19740 0.24180 -0.00500
O 	O 	0.82800 0.78020 0.22200 -0.54800
O 	O 	0.75580 0.86550 0.21690 -0.56200
O 	O 	0.80430 0.16840 0.31920 -0.55700
O 	O 	0.85380 0.26040 0.28650 -0.54000
O 	O 	0.71760 0.95000 0.29950 -0.60700
O 	O 	0.76520 0.01790 0.38190 -0.48400
O 	O 	0.81630 0.54050 0.35450 -0.52100
O 	O 	0.78220 0.63260 0.27980 -0.57400
O 	O 	0.65550 0.11480 0.35860 -0.50200
O 	O 	0.67570 0.22590 0.42510 -0.30300
O 	O 	0.65950 0.14580 0.60600 -0.43400
O 	O 	0.58680 0.07000 0.60300 -0.42800
O 	O 	0.62970 0.06300 0.23400 -0.56300
O 	O 	0.58380 0.93240 0.22500 -0.45000
Sm	Sm	0.78624 0.63500 0.18994 2.15200
Sm	Sm	0.83504 0.41439 0.30206 2.18800
C 	C 	0.69310 0.35630 0.27420 0.54200
C 	C 	0.65720 0.43940 0.25970 -0.31300
C 	C 	0.60940 0.44390 0.26950 0.21600
H 	H 	0.59700 0.39160 0.28220 -0.03600
C 	C 	0.58020 0.52440 0.26070 -0.27300
H 	H 	0.54870 0.52680 0.26860 0.12300
C 	C 	0.59650 0.60250 0.24050 0.19500
H 	H 	0.57660 0.65730 0.23520 -0.02600
C 	C 	0.64330 0.59810 0.22790 -0.28400
C 	C 	0.67260 0.51590 0.23780 0.25500
H 	H 	0.70370 0.51250 0.22920 -0.08900
C 	C 	0.66350 0.68160 0.20520 0.53800
C 	C 	0.74890 0.44630 0.14770 0.45400
C 	C 	0.72550 0.35510 0.12030 -0.22400
C 	C 	0.70090 0.34750 0.06130 0.13400
H 	H 	0.70010 0.39750 0.03800 -0.00100
C 	C 	0.67710 0.26300 0.03750 -0.20200
H 	H 	0.66180 0.25670 0.99780 0.10400
C 	C 	0.67540 0.18850 0.07060 0.14700
H 	H 	0.65830 0.13360 0.05350 -0.00600
C 	C 	0.69980 0.19710 0.12990 -0.24600
C 	C 	0.72480 0.28040 0.15450 0.17600
H 	H 	0.74110 0.28610 0.19430 -0.03900
C 	C 	0.70010 0.11730 0.16720 0.53000
C 	C 	0.84680 0.65230 0.09660 0.38800
C 	C 	0.87830 0.60100 0.06780 -0.12600
C 	C 	0.91670 0.53030 0.09560 0.05200
H 	H 	0.92310 0.51360 0.13300 0.02600
C 	C 	0.94470 0.48630 0.06750 -0.11500
H 	H 	0.97010 0.44010 0.08620 0.08300
C 	C 	0.93550 0.50960 0.01180 0.04300
H 	H 	0.95500 0.47950 0.99330 0.03300
C 	C 	0.89770 0.57760 0.98330 -0.10000
C 	C 	0.87050 0.62450 0.01270 0.05100
H 	H 	0.84660 0.67280 0.99450 0.03900
C 	C 	0.88410 0.60040 0.92140 0.33600
C 	C 	0.91240 0.51700 0.26600 0.39900
C 	C 	0.95720 0.56860 0.25630 -0.17700
C 	C 	0.95770 0.66490 0.25530 0.11700
H 	H 	0.92850 0.69740 0.25820 -0.00500
O 	O 	0.67200 0.28020 0.27800 -0.54800
O 	O 	0.74420 0.36550 0.28310 -0.56200
O 	O 	0.69570 0.66840 0.18080 -0.55700
O 	O 	0.64620 0.76040 0.21350 -0.54000
O 	O 	0.78240 0.45000 0.20050 -0.60700
O 	O 	0.73480 0.51790 0.11810 -0.48400
O 	O 	0.68370 0.04050 0.14550 -0.52100
O 	O 	0.71780 0.13260 0.22020 -0.57400
O 	O 	0.84450 0.61480 0.14140 -0.50200
O 	O 	0.82430 0.72590 0.07490 -0.30300
O 	O 	0.84050 0.64580 0.89400 -0.43300
O 	O 	0.91320 0.57000 0.89700 -0.42700
O 	O 	0.87030 0.56300 0.26600 -0.56300
O 	O 	0.91620 0.43240 0.27500 -0.44900
Sm	Sm	0.28624 0.13500 0.18994 2.15200
Sm	Sm	0.33504 0.91439 0.30206 2.18800
C 	C 	0.19310 0.85630 0.27420 0.54200
C 	C 	0.15720 0.93940 0.25970 -0.31300
C 	C 	0.10940 0.94390 0.26950 0.21600
H 	H 	0.09700 0.89160 0.28220 -0.03600
C 	C 	0.08020 0.02440 0.26070 -0.27200
H 	H 	0.04870 0.02680 0.26860 0.12200
C 	C 	0.09650 0.10250 0.24050 0.19500
H 	H 	0.07660 0.15730 0.23520 -0.02600
C 	C 	0.14330 0.09810 0.22790 -0.28400
C 	C 	0.17260 0.01590 0.23780 0.25500
H 	H 	0.20370 0.01250 0.22920 -0.08900
C 	C 	0.16350 0.18160 0.20520 0.53800
C 	C 	0.24890 0.94630 0.14770 0.45300
C 	C 	0.22550 0.85510 0.12030 -0.22500
C 	C 	0.20090 0.84750 0.06130 0.13500
H 	H 	0.20010 0.89750 0.03800 -0.00200
C 	C 	0.17710 0.76300 0.03750 -0.20300
H 	H 	0.16180 0.75670 0.99780 0.10500
C 	C 	0.17540 0.68850 0.07060 0.14700
H 	H 	0.15830 0.63360 0.05350 -0.00600
C 	C 	0.19980 0.69710 0.12990 -0.24700
C 	C 	0.22480 0.78040 0.15450 0.17600
H 	H 	0.24110 0.78610 0.19430 -0.03900
C 	C 	0.20010 0.61730 0.16720 0.53000
C 	C 	0.34680 0.15230 0.09660 0.39100
C 	C 	0.37830 0.10100 0.06780 -0.13200
C 	C 	0.41670 0.03030 0.09560 0.06000
H 	H 	0.42310 0.01360 0.13300 0.02300
C 	C 	0.44470 0.98630 0.06750 -0.12500
H 	H 	0.47010 0.94010 0.08620 0.08600
C 	C 	0.43550 0.00960 0.01180 0.05400
H 	H 	0.45500 0.97950 0.99330 0.02900
C 	C 	0.39770 0.07760 0.98330 -0.10900
C 	C 	0.37050 0.12450 0.01270 0.06000
H 	H 	0.34660 0.17280 0.99450 0.03500
C 	C 	0.38410 0.10040 0.92140 0.33900
C 	C 	0.41240 0.01700 0.26600 0.40000
C 	C 	0.45720 0.06860 0.25630 -0.17800
C 	C 	0.45770 0.16490 0.25530 0.11600
H 	H 	0.42850 0.19740 0.25820 -0.00500
O 	O 	0.17200 0.78020 0.27800 -0.54800
O 	O 	0.24420 0.86550 0.28310 -0.56200
O 	O 	0.19570 0.16840 0.18080 -0.55800
O 	O 	0.14620 0.26040 0.21350 -0.54000
O 	O 	0.28240 0.95000 0.20050 -0.60700
O 	O 	0.23480 0.01790 0.11810 -0.48400
O 	O 	0.18370 0.54050 0.14550 -0.52100
O 	O 	0.21780 0.63260 0.22020 -0.57400
O 	O 	0.34450 0.11480 0.14140 -0.50300
O 	O 	0.32430 0.22590 0.07490 -0.30400
O 	O 	0.34050 0.14580 0.89400 -0.43400
O 	O 	0.41320 0.07000 0.89700 -0.42900
O 	O 	0.37030 0.06300 0.26600 -0.56300
O 	O 	0.41620 0.93240 0.27500 -0.45000
Sm	Sm	0.78624 0.36500 0.68994 2.15200
Sm	Sm	0.83504 0.58561 0.80206 2.18800
C 	C 	0.69310 0.64370 0.77420 0.54200
C 	C 	0.65720 0.56060 0.75970 -0.31300
C 	C 	0.60940 0.55610 0.76950 0.21600
H 	H 	0.59700 0.60840 0.78220 -0.03600
C 	C 	0.58020 0.47560 0.76070 -0.27300
H 	H 	0.54870 0.47320 0.76860 0.12300
C 	C 	0.59650 0.39750 0.74050 0.19500
H 	H 	0.57660 0.34270 0.73520 -0.02600
C 	C 	0.64330 0.40190 0.72790 -0.28400
C 	C 	0.67260 0.48410 0.73780 0.25500
H 	H 	0.70370 0.48750 0.72920 -0.08900
C 	C 	0.66350 0.31840 0.70520 0.53800
C 	C 	0.74890 0.55370 0.64770 0.45400
C 	C 	0.72550 0.64490 0.62030 -0.22500
C 	C 	0.70090 0.65250 0.56130 0.13500
H 	H 	0.70010 0.60250 0.53800 -0.00100
C 	C 	0.67710 0.73700 0.53750 -0.20300
H 	H 	0.66180 0.74330 0.49780 0.10500
C 	C 	0.67540 0.81150 0.57060 0.14700
H 	H 	0.65830 0.86640 0.55350 -0.00600
C 	C 	0.69980 0.80290 0.62990 -0.24700
C 	C 	0.72480 0.71960 0.65450 0.17600
H 	H 	0.74110 0.71390 0.69430 -0.03900
C 	C 	0.70010 0.88270 0.66720 0.53000
C 	C 	0.84680 0.34770 0.59660 0.38900
C 	C 	0.87830 0.39900 0.56780 -0.12800
C 	C 	0.91670 0.46970 0.59560 0.05400
H 	H 	0.92310 0.48640 0.63300 0.02500
C 	C 	0.94470 0.51370 0.56750 -0.11800
H 	H 	0.97010 0.55990 0.58620 0.08400
C 	C 	0.93550 0.49040 0.51180 0.04600
H 	H 	0.95500 0.52050 0.49330 0.03200
C 	C 	0.89770 0.42240 0.48330 -0.10300
C 	C 	0.87050 0.37550 0.51270 0.05400
H 	H 	0.84660 0.32720 0.49450 0.03800
C 	C 	0.88410 0.39960 0.42140 0.33700
C 	C 	0.91240 0.48300 0.76600 0.39900
C 	C 	0.95720 0.43140 0.75630 -0.17600
C 	C 	0.95770 0.33510 0.75530 0.11800
H 	H 	0.92850 0.30260 0.75820 -0.00600
O 	O 	0.67200 0.71980 0.77800 -0.54800
O 	O 	0.74420 0.63450 0.78310 -0.56200
O 	O 	0.69570 0.33160 0.68080 -0.55700
O 	O 	0.64620 0.23960 0.71350 -0.54000
O 	O 	0.78240 0.55000 0.70050 -0.60700
O 	O 	0.73480 0.48210 0.61810 -0.48400
O 	O 	0.68370 0.95950 0.64550 -0.52100
O 	O 	0.71780 0.86740 0.72020 -0.57400
O 	O 	0.84450 0.38520 0.64140 -0.50200
O 	O 	0.82430 0.27410 0.57490 -0.30300
O 	O 	0.84050 0.35420 0.39400 -0.43400
O 	O 	0.91320 0.43000 0.39700 -0.42800
O 	O 	0.87030 0.43700 0.76600 -0.56300
O 	O 	0.91620 0.56760 0.77500 -0.44900
Sm	Sm	0.28624 0.86500 0.68994 2.15200
Sm	Sm	0.33504 0.08561 0.80206 2.18700
C 	C 	0.19310 0.14370 0.77420 0.54200
C 	C 	0.15720 0.06060 0.75970 -0.31300
C 	C 	0.10940 0.05610 0.76950 0.21500
H 	H 	0.09700 0.10840 0.78220 -0.03600
C 	C 	0.08020 0.97560 0.76070 -0.27200
H 	H 	0.04870 0.97320 0.76860 0.12200
C 	C 	0.09650 0.89750 0.74050 0.19500
H 	H 	0.07660 0.84270 0.73520 -0.02600
C 	C 	0.14330 0.90190 0.72790 -0.28400
C 	C 	0.17260 0.98410 0.73780 0.25500
H 	H 	0.20370 0.98750 0.72920 -0.08900
C 	C 	0.16350 0.81840 0.70520 0.53800
C 	C 	0.24890 0.05370 0.64770 0.45300
C 	C 	0.22550 0.14490 0.62030 -0.22500
C 	C 	0.20090 0.15250 0.56130 0.13500
H 	H 	0.20010 0.10250 0.53800 -0.00100
C 	C 	0.17710 0.23700 0.53750 -0.20300
H 	H 	0.16180 0.24330 0.49780 0.10500
C 	C 	0.17540 0.31150 0.57060 0.14700
H 	H 	0.15830 0.36640 0.55350 -0.00600
C 	C 	0.19980 0.30290 0.62990 -0.24700
C 	C 	0.22480 0.21960 0.65450 0.17600
H 	H 	0.24110 0.21390 0.69430 -0.03900
C 	C 	0.20010 0.38270 0.66720 0.53000
C 	C 	0.34680 0.84770 0.59660 0.38900
C 	C 	0.37830 0.89900 0.56780 -0.12800
C 	C 	0.41670 0.96970 0.59560 0.05500
H 	H 	0.42310 0.98640 0.63300 0.02500
C 	C 	0.44470 0.01370 0.56750 -0.11900
H 	H 	0.47010 0.05990 0.58620 0.08400
C 	C 	0.43550 0.99040 0.51180 0.04700
H 	H 	0.45500 0.02050 0.49330 0.03100
C 	C 	0.39770 0.92240 0.48330 -0.10400
C 	C 	0.37050 0.87550 0.51270 0.05400
H 	H 	0.34660 0.82720 0.49450 0.03800
C 	C 	0.38410 0.89960 0.42140 0.33700
C 	C 	0.41240 0.98300 0.76600 0.40000
C 	C 	0.45720 0.93140 0.75630 -0.17800
C 	C 	0.45770 0.83510 0.75530 0.11600
H 	H 	0.42850 0.80260 0.75820 -0.00500
O 	O 	0.17200 0.21980 0.77800 -0.54800
O 	O 	0.24420 0.13450 0.78310 -0.56200
O 	O 	0.19570 0.83160 0.68080 -0.55800
O 	O 	0.14620 0.73960 0.71350 -0.54000
O 	O 	0.28240 0.05000 0.70050 -0.60700
O 	O 	0.23480 0.98210 0.61810 -0.48400
O 	O 	0.18370 0.45950 0.64550 -0.52100
O 	O 	0.21780 0.36740 0.72020 -0.57400
O 	O 	0.34450 0.88520 0.64140 -0.50200
O 	O 	0.32430 0.77410 0.57490 -0.30300
O 	O 	0.34050 0.85420 0.39400 -0.43400
O 	O 	0.41320 0.93000 0.39700 -0.42800
O 	O 	0.37030 0.93700 0.76600 -0.56300
O 	O 	0.41620 0.06760 0.77500 -0.45000
Sm	Sm	0.21376 0.36500 0.81006 2.15200
Sm	Sm	0.16496 0.58561 0.69794 2.18800
C 	C 	0.30690 0.64370 0.72580 0.54200
C 	C 	0.34280 0.56060 0.74030 -0.31300
C 	C 	0.39060 0.55610 0.73050 0.21600
H 	H 	0.40300 0.60840 0.71780 -0.03600
C 	C 	0.41980 0.47560 0.73930 -0.27300
H 	H 	0.45130 0.47320 0.73140 0.12300
C 	C 	0.40350 0.39750 0.75950 0.19500
H 	H 	0.42340 0.34270 0.76480 -0.02600
C 	C 	0.35670 0.40190 0.77210 -0.28400
C 	C 	0.32740 0.48410 0.76220 0.25500
H 	H 	0.29630 0.48750 0.77080 -0.08900
C 	C 	0.33650 0.31840 0.79480 0.53800
C 	C 	0.25110 0.55370 0.85230 0.45400
C 	C 	0.27450 0.64490 0.87970 -0.22500
C 	C 	0.29910 0.65250 0.93870 0.13400
H 	H 	0.29990 0.60250 0.96200 -0.00100
C 	C 	0.32290 0.73700 0.96250 -0.20200
H 	H 	0.33820 0.74330 0.00220 0.10400
C 	C 	0.32460 0.81150 0.92940 0.14700
H 	H 	0.34170 0.86640 0.94650 -0.00600
C 	C 	0.30020 0.80290 0.87010 -0.24600
C 	C 	0.27520 0.71960 0.84550 0.17600
H 	H 	0.25890 0.71390 0.80570 -0.03900
C 	C 	0.29990 0.88270 0.83280 0.53000
C 	C 	0.15320 0.34770 0.90340 0.38800
C 	C 	0.12170 0.39900 0.93220 -0.12600
C 	C 	0.08330 0.46970 0.90440 0.05100
H 	H 	0.07690 0.48640 0.86700 0.02600
C 	C 	0.05530 0.51370 0.93250 -0.11500
H 	H 	0.02990 0.55990 0.91380 0.08200
C 	C 	0.06450 0.49040 0.98820 0.04200
H 	H 	0.04500 0.52050 0.00670 0.03300
C 	C 	0.10230 0.42240 0.01670 -0.10000
C 	C 	0.12950 0.37550 0.98730 0.05000
H 	H 	0.15340 0.32720 0.00550 0.03900
C 	C 	0.11590 0.39960 0.07860 0.33600
C 	C 	0.08760 0.48300 0.73400 0.39900
C 	C 	0.04280 0.43140 0.74370 -0.17700
C 	C 	0.04230 0.33510 0.74470 0.11600
H 	H 	0.07150 0.30260 0.74180 -0.00600
O 	O 	0.32800 0.71980 0.72200 -0.54800
O 	O 	0.25580 0.63450 0.71690 -0.56200
O 	O 	0.30430 0.33160 0.81920 -0.55700
O 	O 	0.35380 0.23960 0.78650 -0.54000
O 	O 	0.21760 0.55000 0.79950 -0.60700
O 	O 	0.26520 0.48210 0.88190 -0.48400
O 	O 	0.31630 0.95950 0.85450 -0.52100
O 	O 	0.28220 0.86740 0.77980 -0.57400
O 	O 	0.15550 0.38520 0.85860 -0.50200
O 	O 	0.17570 0.27410 0.92510 -0.30400
O 	O 	0.15950 0.35420 0.10600 -0.43300
O 	O 	0.08680 0.43000 0.10300 -0.42800
O 	O 	0.12970 0.43700 0.73400 -0.56300
O 	O 	0.08380 0.56760 0.72500 -0.45000
Sm	Sm	0.71376 0.86500 0.81006 2.15200
Sm	Sm	0.66496 0.08561 0.69794 2.18800
C 	C 	0.80690 0.14370 0.72580 0.54200
C 	C 	0.84280 0.06060 0.74030 -0.31300
C 	C 	0.89060 0.05610 0.73050 0.21600
H 	H 	0.90300 0.10840 0.71780 -0.03500
C 	C 	0.91980 0.97560 0.73930 -0.27200
H 	H 	0.95130 0.97320 0.73140 0.12300
C 	C 	0.90350 0.89750 0.75950 0.19500
H 	H 	0.92340 0.84270 0.76480 -0.02500
C 	C 	0.85670 0.90190 0.77210 -0.28400
C 	C 	0.82740 0.98410 0.76220 0.25500
H 	H 	0.79630 0.98750 0.77080 -0.08900
C 	C 	0.83650 0.81840 0.79480 0.53800
C 	C 	0.75110 0.05370 0.85230 0.45300
C 	C 	0.77450 0.14490 0.87970 -0.22500
C 	C 	0.79910 0.15250 0.93870 0.13500
H 	H 	0.79990 0.10250 0.96200 -0.00200
C 	C 	0.82290 0.23700 0.96250 -0.20300
H 	H 	0.83820 0.24330 0.00220 0.10500
C 	C 	0.82460 0.31150 0.92940 0.14700
H 	H 	0.84170 0.36640 0.94650 -0.00600
C 	C 	0.80020 0.30290 0.87010 -0.24700
C 	C 	0.77520 0.21960 0.84550 0.17600
H 	H 	0.75890 0.21390 0.80570 -0.03900
C 	C 	0.79990 0.38270 0.83280 0.53000
C 	C 	0.65320 0.84770 0.90340 0.39000
C 	C 	0.62170 0.89900 0.93220 -0.13200
C 	C 	0.58330 0.96970 0.90440 0.06000
H 	H 	0.57690 0.98640 0.86700 0.02300
C 	C 	0.55530 0.01370 0.93250 -0.12500
H 	H 	0.52990 0.05990 0.91380 0.08600
C 	C 	0.56450 0.99040 0.98820 0.05300
H 	H 	0.54500 0.02050 0.00670 0.02900
C 	C 	0.60230 0.92240 0.01670 -0.10900
C 	C 	0.62950 0.87550 0.98730 0.06000
H 	H 	0.65340 0.82720 0.00550 0.03500
C 	C 	0.61590 0.89960 0.07860 0.33900
C 	C 	0.58760 0.98300 0.73400 0.40000
C 	C 	0.54280 0.93140 0.74370 -0.17800
C 	C 	0.54230 0.83510 0.74470 0.11600
H 	H 	0.57150 0.80260 0.74180 -0.00500
O 	O 	0.82800 0.21980 0.72200 -0.54800
O 	O 	0.75580 0.13450 0.71690 -0.56200
O 	O 	0.80430 0.83160 0.81920 -0.55700
O 	O 	0.85380 0.73960 0.78650 -0.54000
O 	O 	0.71760 0.05000 0.79950 -0.60700
O 	O 	0.76520 0.98210 0.88190 -0.48400
O 	O 	0.81630 0.45950 0.85450 -0.52100
O 	O 	0.78220 0.36740 0.77980 -0.57400
O 	O 	0.65550 0.88520 0.85860 -0.50300
O 	O 	0.67570 0.77410 0.92510 -0.30400
O 	O 	0.65950 0.85420 0.10600 -0.43400
O 	O 	0.58680 0.93000 0.10300 -0.42900
O 	O 	0.62970 0.93700 0.73400 -0.56400
O 	O 	0.58380 0.06760 0.72500 -0.45000
C 	C 	-0.00000 0.71290 0.25000 -0.18600
H 	H 	0.00000 0.77730 0.25000 0.09900
C 	C 	0.00000 0.52200 0.25000 0.10400
H 	H 	0.00000 0.45760 0.25000 0.01900
C 	C 	0.50000 0.21290 0.25000 -0.18500
H 	H 	0.50000 0.27730 0.25000 0.09900
C 	C 	0.50000 0.02200 0.25000 0.10700
H 	H 	0.50000 0.95760 0.25000 0.01800
C 	C 	0.00000 0.28710 0.75000 -0.18700
H 	H 	0.00000 0.22270 0.75000 0.09900
C 	C 	0.00000 0.47800 0.75000 0.10300
H 	H 	0.00000 0.54240 0.75000 0.01900
C 	C 	0.50000 0.78710 0.75000 -0.18500
H 	H 	0.50000 0.72270 0.75000 0.09900
C 	C 	0.50000 0.97800 0.75000 0.10700
H 	H 	0.50000 0.04240 0.75000 0.01800
