data_crystal

_cell_length_a 26.49380
_cell_length_b 14.52140
_cell_length_c 25.60710
_cell_angle_alpha 90.00000
_cell_angle_beta  114.28500
_cell_angle_gamma 90.00000

_symmetry_space_group_name_	'P 1'
_symmetry_space_group_name_H-M	'P 1'

loop_
_symmetry_equiv_pos_as_xyz
  x,y,z

loop_
_atom_site_label
_atom_site_type_symbol
_atom_site_fract_x
_atom_site_fract_y
_atom_site_fract_z
_atom_site_charge
Nd	Nd	0.21414 0.86739 0.31003 2.48600
Nd	Nd	0.16455 0.08841 0.19715 2.35600
O 	O 	0.12800 0.94090 0.23340 -0.61800
O 	O 	0.21870 0.05350 0.30000 -0.64000
O 	O 	0.28320 0.37100 0.28120 -0.61800
C 	C 	0.30120 0.30590 0.37140 -0.27600
O 	O 	0.08240 0.07030 0.22360 -0.47700
O 	O 	0.26720 0.98680 0.38310 -0.48800
O 	O 	0.08480 0.92570 0.60030 -0.43400
O 	O 	0.26200 0.77350 0.39630 -0.56700
H 	H 	0.24150 0.76540 0.41260 0.31300
O 	O 	0.15890 0.85200 0.60460 -0.40800
O 	O 	0.17680 0.77560 0.42520 -0.31900
O 	O 	0.32960 0.22220 0.22310 -0.57700
O 	O 	0.30630 0.83580 0.31950 -0.55700
C 	C 	0.15320 0.84860 0.40300 0.41500
C 	C 	0.25320 0.05760 0.35370 0.46000
C 	C 	0.27650 0.22150 0.34610 0.20400
H 	H 	0.25970 0.21610 0.30640 -0.05500
C 	C 	0.04260 0.93370 0.24300 -0.21200
O 	O 	0.15590 0.88540 0.35940 -0.54100
C 	C 	0.27700 0.14730 0.37980 -0.25400
C 	C 	0.12920 0.87300 0.48650 0.04600
H 	H 	0.15390 0.82600 0.50510 0.05800
C 	C 	0.10110 0.91880 0.51530 -0.08800
C 	C 	0.11420 0.89730 0.57640 0.31700
C 	C 	0.12060 0.89690 0.43100 -0.13200
C 	C 	0.08710 0.98670 0.23360 0.43400
C 	C 	0.08380 0.96740 0.40410 0.05400
H 	H 	0.07860 0.98550 0.36740 0.02200
C 	C 	0.04110 0.83850 0.24410 0.16300
H 	H 	0.06970 0.80580 0.24060 -0.02600
C 	C 	0.05440 0.01150 0.43130 -0.11300
H 	H 	0.02870 0.05690 0.41210 0.08100
O 	O 	0.25770 0.13790 0.21790 -0.58300
O 	O 	0.35460 0.74310 0.28740 -0.56000
O 	O 	0.31730 0.46120 0.35640 -0.53800
C 	C 	0.35730 0.90590 0.27240 -0.30800
C 	C 	0.34330 0.06270 0.24030 -0.31000
C 	C 	0.30780 0.14730 0.22630 0.56800
C 	C 	0.32850 0.98530 0.26270 0.27600
H 	H 	0.29770 0.98840 0.27140 -0.10600
C 	C 	0.30090 0.38430 0.33440 0.54900
C 	C 	0.32660 0.31190 0.43010 0.17900
H 	H 	0.34400 0.36630 0.44740 -0.01700
C 	C 	0.33810 0.82300 0.29480 0.54700
C 	C 	0.40380 0.89900 0.26050 0.19800
H 	H 	0.42350 0.84420 0.26630 -0.02800
C 	C 	0.06360 0.98790 0.48640 0.03700
H 	H 	0.04440 0.01850 0.50460 0.03400
C 	C 	0.39120 0.05940 0.23020 0.19900
H 	H 	0.40360 0.11120 0.21760 -0.03100
C 	C 	0.30200 0.15660 0.43860 0.17100
H 	H 	0.30220 0.10680 0.46160 -0.01200
C 	C 	0.41980 0.97660 0.23950 -0.25800
H 	H 	0.45080 0.97300 0.23140 0.11800
C 	C 	0.32620 0.23720 0.46380 -0.24100
H 	H 	0.34250 0.24220 0.50350 0.11800
Nd	Nd	0.71414 0.36739 0.31003 2.48500
Nd	Nd	0.66455 0.58841 0.19715 2.35600
O 	O 	0.62800 0.44090 0.23340 -0.61900
O 	O 	0.71870 0.55350 0.30000 -0.64100
O 	O 	0.78320 0.87100 0.28120 -0.61900
C 	C 	0.80120 0.80590 0.37140 -0.27700
O 	O 	0.58240 0.57030 0.22360 -0.47800
O 	O 	0.76720 0.48680 0.38310 -0.48900
O 	O 	0.58480 0.42570 0.60030 -0.43400
O 	O 	0.76200 0.27350 0.39630 -0.56800
H 	H 	0.74150 0.26540 0.41260 0.31200
O 	O 	0.65890 0.35200 0.60460 -0.40900
O 	O 	0.67680 0.27560 0.42520 -0.31900
O 	O 	0.82960 0.72220 0.22310 -0.57800
O 	O 	0.80630 0.33580 0.31950 -0.55800
C 	C 	0.65320 0.34860 0.40300 0.41400
C 	C 	0.75320 0.55760 0.35370 0.45900
C 	C 	0.77650 0.72150 0.34610 0.20300
H 	H 	0.75970 0.71610 0.30640 -0.05600
C 	C 	0.54260 0.43370 0.24300 -0.21200
O 	O 	0.65590 0.38540 0.35940 -0.54200
C 	C 	0.77700 0.64730 0.37980 -0.25500
C 	C 	0.62920 0.37300 0.48650 0.04500
H 	H 	0.65390 0.32600 0.50510 0.05700
C 	C 	0.60110 0.41880 0.51530 -0.08800
C 	C 	0.61420 0.39730 0.57640 0.31700
C 	C 	0.62060 0.39690 0.43100 -0.13200
C 	C 	0.58710 0.48670 0.23360 0.43300
C 	C 	0.58380 0.46740 0.40410 0.05400
H 	H 	0.57860 0.48550 0.36740 0.02200
C 	C 	0.54110 0.33850 0.24410 0.16200
H 	H 	0.56970 0.30580 0.24060 -0.02500
C 	C 	0.55440 0.51150 0.43130 -0.11300
H 	H 	0.52870 0.55690 0.41210 0.08100
O 	O 	0.75770 0.63790 0.21790 -0.58300
O 	O 	0.85460 0.24310 0.28740 -0.56000
O 	O 	0.81730 0.96120 0.35640 -0.53800
C 	C 	0.85730 0.40590 0.27240 -0.30800
C 	C 	0.84330 0.56270 0.24030 -0.31000
C 	C 	0.80780 0.64730 0.22630 0.56800
C 	C 	0.82850 0.48530 0.26270 0.27600
H 	H 	0.79770 0.48840 0.27140 -0.10600
C 	C 	0.80090 0.88430 0.33440 0.54900
C 	C 	0.82660 0.81190 0.43010 0.17900
H 	H 	0.84400 0.86630 0.44740 -0.01700
C 	C 	0.83810 0.32300 0.29480 0.54700
C 	C 	0.90380 0.39900 0.26050 0.19800
H 	H 	0.92350 0.34420 0.26630 -0.02800
C 	C 	0.56360 0.48790 0.48640 0.03700
H 	H 	0.54440 0.51850 0.50460 0.03400
C 	C 	0.89120 0.55940 0.23020 0.20000
H 	H 	0.90360 0.61120 0.21760 -0.03100
C 	C 	0.80200 0.65660 0.43860 0.17100
H 	H 	0.80220 0.60680 0.46160 -0.01200
C 	C 	0.91980 0.47660 0.23950 -0.25900
H 	H 	0.95080 0.47300 0.23140 0.11800
C 	C 	0.82620 0.73720 0.46380 -0.24100
H 	H 	0.84250 0.74220 0.50350 0.11800
Nd	Nd	0.78586 0.86739 0.18997 2.48500
Nd	Nd	0.83545 0.08841 0.30285 2.35500
O 	O 	0.87200 0.94090 0.26660 -0.61900
O 	O 	0.78130 0.05350 0.20000 -0.64100
O 	O 	0.71680 0.37100 0.21880 -0.61900
C 	C 	0.69880 0.30590 0.12860 -0.27800
O 	O 	0.91760 0.07030 0.27640 -0.47800
O 	O 	0.73280 0.98680 0.11690 -0.48800
O 	O 	0.91520 0.92570 0.89970 -0.43500
O 	O 	0.73800 0.77350 0.10370 -0.56800
H 	H 	0.75850 0.76540 0.08740 0.31200
O 	O 	0.84110 0.85200 0.89540 -0.40900
O 	O 	0.82320 0.77560 0.07480 -0.32000
O 	O 	0.67040 0.22220 0.27690 -0.57800
O 	O 	0.69370 0.83580 0.18050 -0.55800
C 	C 	0.84680 0.84860 0.09700 0.41500
C 	C 	0.74680 0.05760 0.14630 0.45800
C 	C 	0.72350 0.22150 0.15390 0.20400
H 	H 	0.74030 0.21610 0.19360 -0.05600
C 	C 	0.95740 0.93370 0.25700 -0.21300
O 	O 	0.84410 0.88540 0.14060 -0.54200
C 	C 	0.72300 0.14730 0.12020 -0.25600
C 	C 	0.87080 0.87300 0.01350 0.04700
H 	H 	0.84610 0.82600 0.99490 0.05600
C 	C 	0.89890 0.91880 0.98470 -0.09100
C 	C 	0.88580 0.89730 0.92360 0.31800
C 	C 	0.87940 0.89690 0.06900 -0.13400
C 	C 	0.91290 0.98670 0.26640 0.43400
C 	C 	0.91620 0.96740 0.09590 0.05800
H 	H 	0.92140 0.98550 0.13260 0.02100
C 	C 	0.95890 0.83850 0.25590 0.16300
H 	H 	0.93030 0.80580 0.25940 -0.02600
C 	C 	0.94560 0.01150 0.06870 -0.11800
H 	H 	0.97130 0.05690 0.08790 0.08300
O 	O 	0.74230 0.13790 0.28210 -0.58300
O 	O 	0.64540 0.74310 0.21260 -0.56000
O 	O 	0.68270 0.46120 0.14360 -0.53800
C 	C 	0.64270 0.90590 0.22760 -0.30800
C 	C 	0.65670 0.06270 0.25970 -0.31000
C 	C 	0.69220 0.14730 0.27370 0.56800
C 	C 	0.67150 0.98530 0.23730 0.27600
H 	H 	0.70230 0.98840 0.22860 -0.10600
C 	C 	0.69910 0.38430 0.16560 0.54900
C 	C 	0.67340 0.31190 0.06990 0.18100
H 	H 	0.65600 0.36630 0.05260 -0.01800
C 	C 	0.66190 0.82300 0.20520 0.54700
C 	C 	0.59620 0.89900 0.23950 0.19800
H 	H 	0.57650 0.84420 0.23370 -0.02800
C 	C 	0.93640 0.98790 0.01360 0.04100
H 	H 	0.95560 0.01850 0.99540 0.03400
C 	C 	0.60880 0.05940 0.26980 0.19900
H 	H 	0.59640 0.11120 0.28240 -0.03100
C 	C 	0.69800 0.15660 0.06140 0.17300
H 	H 	0.69780 0.10680 0.03840 -0.01200
C 	C 	0.58020 0.97660 0.26050 -0.25900
H 	H 	0.54920 0.97300 0.26860 0.11800
C 	C 	0.67380 0.23720 0.03620 -0.24300
H 	H 	0.65750 0.24220 0.99650 0.12000
Nd	Nd	0.28586 0.36739 0.18997 2.48400
Nd	Nd	0.33545 0.58841 0.30285 2.35500
O 	O 	0.37200 0.44090 0.26660 -0.61900
O 	O 	0.28130 0.55350 0.20000 -0.64100
O 	O 	0.21680 0.87100 0.21880 -0.61900
C 	C 	0.19880 0.80590 0.12860 -0.27600
O 	O 	0.41760 0.57030 0.27640 -0.47800
O 	O 	0.23280 0.48680 0.11690 -0.48900
O 	O 	0.41520 0.42570 0.89970 -0.43500
O 	O 	0.23800 0.27350 0.10370 -0.56800
H 	H 	0.25850 0.26540 0.08740 0.31200
O 	O 	0.34110 0.35200 0.89540 -0.40900
O 	O 	0.32320 0.27560 0.07480 -0.32000
O 	O 	0.17040 0.72220 0.27690 -0.57800
O 	O 	0.19370 0.33580 0.18050 -0.55800
C 	C 	0.34680 0.34860 0.09700 0.41400
C 	C 	0.24680 0.55760 0.14630 0.45800
C 	C 	0.22350 0.72150 0.15390 0.20200
H 	H 	0.24030 0.71610 0.19360 -0.05500
C 	C 	0.45740 0.43370 0.25700 -0.21200
O 	O 	0.34410 0.38540 0.14060 -0.54200
C 	C 	0.22300 0.64730 0.12020 -0.25400
C 	C 	0.37080 0.37300 0.01350 0.04400
H 	H 	0.34610 0.32600 0.99490 0.05700
C 	C 	0.39890 0.41880 0.98470 -0.08800
C 	C 	0.38580 0.39730 0.92360 0.31700
C 	C 	0.37940 0.39690 0.06900 -0.13200
C 	C 	0.41290 0.48670 0.26640 0.43300
C 	C 	0.41620 0.46740 0.09590 0.05400
H 	H 	0.42140 0.48550 0.13260 0.02200
C 	C 	0.45890 0.33850 0.25590 0.16200
H 	H 	0.43030 0.30580 0.25940 -0.02500
C 	C 	0.44560 0.51150 0.06870 -0.11300
H 	H 	0.47130 0.55690 0.08790 0.08100
O 	O 	0.24230 0.63790 0.28210 -0.58300
O 	O 	0.14540 0.24310 0.21260 -0.56000
O 	O 	0.18270 0.96120 0.14360 -0.53700
C 	C 	0.14270 0.40590 0.22760 -0.30800
C 	C 	0.15670 0.56270 0.25970 -0.31000
C 	C 	0.19220 0.64730 0.27370 0.56800
C 	C 	0.17150 0.48530 0.23730 0.27600
H 	H 	0.20230 0.48840 0.22860 -0.10600
C 	C 	0.19910 0.88430 0.16560 0.54800
C 	C 	0.17340 0.81190 0.06990 0.17700
H 	H 	0.15600 0.86630 0.05260 -0.01600
C 	C 	0.16190 0.32300 0.20520 0.54700
C 	C 	0.09620 0.39900 0.23950 0.19800
H 	H 	0.07650 0.34420 0.23370 -0.02900
C 	C 	0.43640 0.48790 0.01360 0.03700
H 	H 	0.45560 0.51850 0.99540 0.03400
C 	C 	0.10880 0.55940 0.26980 0.20000
H 	H 	0.09640 0.61120 0.28240 -0.03100
C 	C 	0.19800 0.65660 0.06140 0.16900
H 	H 	0.19780 0.60680 0.03840 -0.01100
C 	C 	0.08020 0.47660 0.26050 -0.25900
H 	H 	0.04920 0.47300 0.26860 0.11800
C 	C 	0.17380 0.73720 0.03620 -0.23800
H 	H 	0.15750 0.74220 0.99650 0.11700
Nd	Nd	0.78586 0.13261 0.68997 2.48500
Nd	Nd	0.83545 0.91159 0.80285 2.35500
O 	O 	0.87200 0.05910 0.76660 -0.61900
O 	O 	0.78130 0.94650 0.70000 -0.64100
O 	O 	0.71680 0.62900 0.71880 -0.61900
C 	C 	0.69880 0.69410 0.62860 -0.27700
O 	O 	0.91760 0.92970 0.77640 -0.47800
O 	O 	0.73280 0.01320 0.61690 -0.48900
O 	O 	0.91520 0.07430 0.39970 -0.43400
O 	O 	0.73800 0.22650 0.60370 -0.56800
H 	H 	0.75850 0.23460 0.58740 0.31200
O 	O 	0.84110 0.14800 0.39540 -0.40900
O 	O 	0.82320 0.22440 0.57480 -0.31900
O 	O 	0.67040 0.77780 0.77690 -0.57800
O 	O 	0.69370 0.16420 0.68050 -0.55800
C 	C 	0.84680 0.15140 0.59700 0.41400
C 	C 	0.74680 0.94240 0.64630 0.45900
C 	C 	0.72350 0.77850 0.65390 0.20300
H 	H 	0.74030 0.78390 0.69360 -0.05600
C 	C 	0.95740 0.06630 0.75700 -0.21300
O 	O 	0.84410 0.11460 0.64060 -0.54100
C 	C 	0.72300 0.85270 0.62020 -0.25500
C 	C 	0.87080 0.12700 0.51350 0.04500
H 	H 	0.84610 0.17400 0.49490 0.05700
C 	C 	0.89890 0.08120 0.48470 -0.08800
C 	C 	0.88580 0.10270 0.42360 0.31700
C 	C 	0.87940 0.10310 0.56900 -0.13200
C 	C 	0.91290 0.01330 0.76640 0.43400
C 	C 	0.91620 0.03260 0.59590 0.05500
H 	H 	0.92140 0.01450 0.63260 0.02200
C 	C 	0.95890 0.16150 0.75590 0.16400
H 	H 	0.93030 0.19420 0.75940 -0.02600
C 	C 	0.94560 0.98850 0.56870 -0.11300
H 	H 	0.97130 0.94310 0.58790 0.08100
O 	O 	0.74230 0.86210 0.78210 -0.58300
O 	O 	0.64540 0.25690 0.71260 -0.56000
O 	O 	0.68270 0.53880 0.64360 -0.53800
C 	C 	0.64270 0.09410 0.72760 -0.30800
C 	C 	0.65670 0.93730 0.75970 -0.31000
C 	C 	0.69220 0.85270 0.77370 0.56800
C 	C 	0.67150 0.01470 0.73730 0.27600
H 	H 	0.70230 0.01160 0.72860 -0.10600
C 	C 	0.69910 0.61570 0.66560 0.54900
C 	C 	0.67340 0.68810 0.56990 0.17900
H 	H 	0.65600 0.63370 0.55260 -0.01700
C 	C 	0.66190 0.17700 0.70520 0.54700
C 	C 	0.59620 0.10100 0.73950 0.19800
H 	H 	0.57650 0.15580 0.73370 -0.02800
C 	C 	0.93640 0.01210 0.51360 0.03700
H 	H 	0.95560 0.98150 0.49540 0.03400
C 	C 	0.60880 0.94060 0.76980 0.19900
H 	H 	0.59640 0.88880 0.78240 -0.03100
C 	C 	0.69800 0.84340 0.56140 0.17100
H 	H 	0.69780 0.89320 0.53840 -0.01200
C 	C 	0.58020 0.02340 0.76050 -0.25800
H 	H 	0.54920 0.02700 0.76860 0.11800
C 	C 	0.67380 0.76280 0.53620 -0.24100
H 	H 	0.65750 0.75780 0.49650 0.11800
Nd	Nd	0.28586 0.63261 0.68997 2.48500
Nd	Nd	0.33545 0.41159 0.80285 2.35600
O 	O 	0.37200 0.55910 0.76660 -0.61900
O 	O 	0.28130 0.44650 0.70000 -0.64100
O 	O 	0.21680 0.12900 0.71880 -0.61900
C 	C 	0.19880 0.19410 0.62860 -0.27700
O 	O 	0.41760 0.42970 0.77640 -0.47800
O 	O 	0.23280 0.51320 0.61690 -0.48900
O 	O 	0.41520 0.57430 0.39970 -0.43400
O 	O 	0.23800 0.72650 0.60370 -0.56800
H 	H 	0.25850 0.73460 0.58740 0.31200
O 	O 	0.34110 0.64800 0.39540 -0.40900
O 	O 	0.32320 0.72440 0.57480 -0.31900
O 	O 	0.17040 0.27780 0.77690 -0.57800
O 	O 	0.19370 0.66420 0.68050 -0.55800
C 	C 	0.34680 0.65140 0.59700 0.41400
C 	C 	0.24680 0.44240 0.64630 0.45900
C 	C 	0.22350 0.27850 0.65390 0.20300
H 	H 	0.24030 0.28390 0.69360 -0.05600
C 	C 	0.45740 0.56630 0.75700 -0.21200
O 	O 	0.34410 0.61460 0.64060 -0.54200
C 	C 	0.22300 0.35270 0.62020 -0.25500
C 	C 	0.37080 0.62700 0.51350 0.04500
H 	H 	0.34610 0.67400 0.49490 0.05700
C 	C 	0.39890 0.58120 0.48470 -0.08800
C 	C 	0.38580 0.60270 0.42360 0.31700
C 	C 	0.37940 0.60310 0.56900 -0.13200
C 	C 	0.41290 0.51330 0.76640 0.43300
C 	C 	0.41620 0.53260 0.59590 0.05400
H 	H 	0.42140 0.51450 0.63260 0.02200
C 	C 	0.45890 0.66150 0.75590 0.16200
H 	H 	0.43030 0.69420 0.75940 -0.02500
C 	C 	0.44560 0.48850 0.56870 -0.11300
H 	H 	0.47130 0.44310 0.58790 0.08100
O 	O 	0.24230 0.36210 0.78210 -0.58300
O 	O 	0.14540 0.75690 0.71260 -0.56000
O 	O 	0.18270 0.03880 0.64360 -0.53800
C 	C 	0.14270 0.59410 0.72760 -0.30800
C 	C 	0.15670 0.43730 0.75970 -0.31000
C 	C 	0.19220 0.35270 0.77370 0.56800
C 	C 	0.17150 0.51470 0.73730 0.27600
H 	H 	0.20230 0.51160 0.72860 -0.10600
C 	C 	0.19910 0.11570 0.66560 0.54900
C 	C 	0.17340 0.18810 0.56990 0.17900
H 	H 	0.15600 0.13370 0.55260 -0.01700
C 	C 	0.16190 0.67700 0.70520 0.54700
C 	C 	0.09620 0.60100 0.73950 0.19800
H 	H 	0.07650 0.65580 0.73370 -0.02900
C 	C 	0.43640 0.51210 0.51360 0.03700
H 	H 	0.45560 0.48150 0.49540 0.03400
C 	C 	0.10880 0.44060 0.76980 0.20000
H 	H 	0.09640 0.38880 0.78240 -0.03100
C 	C 	0.19800 0.34340 0.56140 0.17100
H 	H 	0.19780 0.39320 0.53840 -0.01200
C 	C 	0.08020 0.52340 0.76050 -0.25900
H 	H 	0.04920 0.52700 0.76860 0.11800
C 	C 	0.17380 0.26280 0.53620 -0.24100
H 	H 	0.15750 0.25780 0.49650 0.11800
Nd	Nd	0.21414 0.13261 0.81003 2.48500
Nd	Nd	0.16455 0.91159 0.69715 2.35500
O 	O 	0.12800 0.05910 0.73340 -0.61900
O 	O 	0.21870 0.94650 0.80000 -0.64100
O 	O 	0.28320 0.62900 0.78120 -0.61900
C 	C 	0.30120 0.69410 0.87140 -0.27800
O 	O 	0.08240 0.92970 0.72360 -0.47800
O 	O 	0.26720 0.01320 0.88310 -0.48800
O 	O 	0.08480 0.07430 0.10030 -0.43500
O 	O 	0.26200 0.22650 0.89630 -0.56800
H 	H 	0.24150 0.23460 0.91260 0.31200
O 	O 	0.15890 0.14800 0.10460 -0.40900
O 	O 	0.17680 0.22440 0.92520 -0.32000
O 	O 	0.32960 0.77780 0.72310 -0.57800
O 	O 	0.30630 0.16420 0.81950 -0.55800
C 	C 	0.15320 0.15140 0.90300 0.41500
C 	C 	0.25320 0.94240 0.85370 0.45800
C 	C 	0.27650 0.77850 0.84610 0.20400
H 	H 	0.25970 0.78390 0.80640 -0.05600
C 	C 	0.04260 0.06630 0.74300 -0.21300
O 	O 	0.15590 0.11460 0.85940 -0.54200
C 	C 	0.27700 0.85270 0.87980 -0.25600
C 	C 	0.12920 0.12700 0.98650 0.04700
H 	H 	0.15390 0.17400 0.00510 0.05600
C 	C 	0.10110 0.08120 0.01530 -0.09100
C 	C 	0.11420 0.10270 0.07640 0.31800
C 	C 	0.12060 0.10310 0.93100 -0.13400
C 	C 	0.08710 0.01330 0.73360 0.43400
C 	C 	0.08380 0.03260 0.90410 0.05800
H 	H 	0.07860 0.01450 0.86740 0.02100
C 	C 	0.04110 0.16150 0.74410 0.16300
H 	H 	0.06970 0.19420 0.74060 -0.02600
C 	C 	0.05440 0.98850 0.93130 -0.11800
H 	H 	0.02870 0.94310 0.91210 0.08200
O 	O 	0.25770 0.86210 0.71790 -0.58300
O 	O 	0.35460 0.25690 0.78740 -0.56000
O 	O 	0.31730 0.53880 0.85640 -0.53800
C 	C 	0.35730 0.09410 0.77240 -0.30800
C 	C 	0.34330 0.93730 0.74030 -0.31000
C 	C 	0.30780 0.85270 0.72630 0.56800
C 	C 	0.32850 0.01470 0.76270 0.27600
H 	H 	0.29770 0.01160 0.77140 -0.10600
C 	C 	0.30090 0.61570 0.83440 0.54900
C 	C 	0.32660 0.68810 0.93010 0.18100
H 	H 	0.34400 0.63370 0.94740 -0.01800
C 	C 	0.33810 0.17700 0.79480 0.54700
C 	C 	0.40380 0.10100 0.76050 0.19800
H 	H 	0.42350 0.15580 0.76630 -0.02800
C 	C 	0.06360 0.01210 0.98640 0.04000
H 	H 	0.04440 0.98150 0.00460 0.03300
C 	C 	0.39120 0.94060 0.73020 0.19900
H 	H 	0.40360 0.88880 0.71760 -0.03100
C 	C 	0.30200 0.84340 0.93860 0.17300
H 	H 	0.30220 0.89320 0.96160 -0.01200
C 	C 	0.41980 0.02340 0.73950 -0.25900
H 	H 	0.45080 0.02700 0.73140 0.11800
C 	C 	0.32620 0.76280 0.96380 -0.24400
H 	H 	0.34250 0.75780 0.00350 0.12000
Nd	Nd	0.71414 0.63261 0.81003 2.48400
Nd	Nd	0.66455 0.41159 0.69715 2.35500
O 	O 	0.62800 0.55910 0.73340 -0.61900
O 	O 	0.71870 0.44650 0.80000 -0.64100
O 	O 	0.78320 0.12900 0.78120 -0.61900
C 	C 	0.80120 0.19410 0.87140 -0.27600
O 	O 	0.58240 0.42970 0.72360 -0.47800
O 	O 	0.76720 0.51320 0.88310 -0.48900
O 	O 	0.58480 0.57430 0.10030 -0.43400
O 	O 	0.76200 0.72650 0.89630 -0.56800
H 	H 	0.74150 0.73460 0.91260 0.31200
O 	O 	0.65890 0.64800 0.10460 -0.40900
O 	O 	0.67680 0.72440 0.92520 -0.32000
O 	O 	0.82960 0.27780 0.72310 -0.57800
O 	O 	0.80630 0.66420 0.81950 -0.55800
C 	C 	0.65320 0.65140 0.90300 0.41400
C 	C 	0.75320 0.44240 0.85370 0.45800
C 	C 	0.77650 0.27850 0.84610 0.20200
H 	H 	0.75970 0.28390 0.80640 -0.05500
C 	C 	0.54260 0.56630 0.74300 -0.21200
O 	O 	0.65590 0.61460 0.85940 -0.54100
C 	C 	0.77700 0.35270 0.87980 -0.25400
C 	C 	0.62920 0.62700 0.98650 0.04400
H 	H 	0.65390 0.67400 0.00510 0.05700
C 	C 	0.60110 0.58120 0.01530 -0.08800
C 	C 	0.61420 0.60270 0.07640 0.31700
C 	C 	0.62060 0.60310 0.93100 -0.13200
C 	C 	0.58710 0.51330 0.73360 0.43300
C 	C 	0.58380 0.53260 0.90410 0.05400
H 	H 	0.57860 0.51450 0.86740 0.02200
C 	C 	0.54110 0.66150 0.74410 0.16200
H 	H 	0.56970 0.69420 0.74060 -0.02500
C 	C 	0.55440 0.48850 0.93130 -0.11300
H 	H 	0.52870 0.44310 0.91210 0.08100
O 	O 	0.75770 0.36210 0.71790 -0.58300
O 	O 	0.85460 0.75690 0.78740 -0.56000
O 	O 	0.81730 0.03880 0.85640 -0.53700
C 	C 	0.85730 0.59410 0.77240 -0.30800
C 	C 	0.84330 0.43730 0.74030 -0.31000
C 	C 	0.80780 0.35270 0.72630 0.56800
C 	C 	0.82850 0.51470 0.76270 0.27600
H 	H 	0.79770 0.51160 0.77140 -0.10600
C 	C 	0.80090 0.11570 0.83440 0.54800
C 	C 	0.82660 0.18810 0.93010 0.17700
H 	H 	0.84400 0.13370 0.94740 -0.01600
C 	C 	0.83810 0.67700 0.79480 0.54700
C 	C 	0.90380 0.60100 0.76050 0.19800
H 	H 	0.92350 0.65580 0.76630 -0.02800
C 	C 	0.56360 0.51210 0.98640 0.03700
H 	H 	0.54440 0.48150 0.00460 0.03400
C 	C 	0.89120 0.44060 0.73020 0.20000
H 	H 	0.90360 0.38880 0.71760 -0.03100
C 	C 	0.80200 0.34340 0.93860 0.17000
H 	H 	0.80220 0.39320 0.96160 -0.01100
C 	C 	0.91980 0.52340 0.73950 -0.25900
H 	H 	0.95080 0.52700 0.73140 0.11800
C 	C 	0.82620 0.26280 0.96380 -0.23800
H 	H 	0.84250 0.25780 0.00350 0.11700
C 	C 	-0.00000 0.97980 0.25000 0.13200
H 	H 	-0.00000 0.04390 0.25000 0.00700
C 	C 	0.00000 0.79060 0.25000 -0.24000
H 	H 	-0.00000 0.72660 0.25000 0.11700
C 	C 	0.50000 0.47980 0.25000 0.13100
H 	H 	0.50000 0.54390 0.25000 0.00800
C 	C 	0.50000 0.29060 0.25000 -0.23800
H 	H 	0.50000 0.22660 0.25000 0.11700
C 	C 	-0.00000 0.02020 0.75000 0.13200
H 	H 	-0.00000 0.95610 0.75000 0.00700
C 	C 	-0.00000 0.20940 0.75000 -0.24100
H 	H 	-0.00000 0.27340 0.75000 0.11800
C 	C 	0.50000 0.52020 0.75000 0.13100
H 	H 	0.50000 0.45610 0.75000 0.00800
C 	C 	0.50000 0.70940 0.75000 -0.23800
H 	H 	0.50000 0.77340 0.75000 0.11700
