data_crystal

_cell_length_a 8.29000
_cell_length_b 13.82210
_cell_length_c 17.06740
_cell_angle_alpha 77.18790
_cell_angle_beta  75.94460
_cell_angle_gamma 72.54950

_symmetry_space_group_name_	'P 1'
_symmetry_space_group_name_H-M	'P 1'

loop_
_symmetry_equiv_pos_as_xyz
  x,y,z

loop_
_atom_site_label
_atom_site_type_symbol
_atom_site_fract_x
_atom_site_fract_y
_atom_site_fract_z
_atom_site_charge
Cu	Cu	0.90139 0.54497 0.15631 0.88100
Cu	Cu	0.73315 0.52457 0.35567 0.87600
Cu	Cu	0.60267 0.95503 0.34369 0.88100
Cu	Cu	0.61339 0.97543 0.14433 0.87500
Cu	Cu	0.09861 0.45503 0.84369 0.88000
Cu	Cu	0.26685 0.47543 0.64433 0.87500
Cu	Cu	0.39733 0.04497 0.65631 0.88100
Cu	Cu	0.38661 0.02457 0.85567 0.87500
H 	H 	0.26200 0.61870 0.08650 -0.00900
H 	H 	0.41520 0.63900 0.95580 0.07900
H 	H 	0.37220 0.57000 0.85020 -0.02100
H 	H 	0.87720 0.60140 0.47940 0.00700
H 	H 	0.77530 0.62720 0.62180 0.04600
H 	H 	0.51370 0.58000 0.69740 -0.01100
H 	H 	0.22550 0.64790 0.27410 0.06300
H 	H 	0.08980 0.71590 0.33410 0.10000
H 	H 	0.58840 0.55960 0.23720 0.10800
H 	H 	0.96720 0.88130 0.41350 -0.00800
H 	H 	0.01000 0.86100 0.54420 0.07600
H 	H 	0.79240 0.93000 0.64980 -0.02000
H 	H 	0.95800 0.89860 0.02060 0.00300
H 	H 	0.02430 0.87280 0.87820 0.04500
H 	H 	0.79110 0.92000 0.80260 -0.01000
H 	H 	0.14750 0.85210 0.22590 0.06300
H 	H 	0.13980 0.78410 0.16590 0.10000
H 	H 	0.38520 0.94040 0.26280 0.10800
H 	H 	0.73800 0.38130 0.91350 -0.00900
H 	H 	0.58480 0.36100 0.04420 0.07900
H 	H 	0.62780 0.43000 0.14980 -0.02100
H 	H 	0.12280 0.39860 0.52060 0.00700
H 	H 	0.22470 0.37280 0.37820 0.04600
H 	H 	0.48630 0.42000 0.30260 -0.01100
H 	H 	0.77450 0.35210 0.72590 0.06300
H 	H 	0.91020 0.28410 0.66590 0.10000
H 	H 	0.41160 0.44040 0.76280 0.10800
H 	H 	0.03280 0.11870 0.58650 -0.00800
H 	H 	0.99000 0.13900 0.45580 0.07600
H 	H 	0.20760 0.07000 0.35020 -0.02000
H 	H 	0.04200 0.10140 0.97940 0.00300
H 	H 	0.97570 0.12720 0.12180 0.04500
H 	H 	0.20890 0.08000 0.19740 -0.01000
H 	H 	0.85250 0.14790 0.77410 0.06300
H 	H 	0.86020 0.21590 0.83410 0.10000
H 	H 	0.61480 0.05960 0.73720 0.10800
C 	C 	0.21930 0.60360 0.04120 0.09100
C 	C 	0.32890 0.60810 0.96650 -0.18400
C 	C 	0.29860 0.57030 0.90510 0.08700
C 	C 	0.77050 0.58760 0.51180 0.06100
C 	C 	0.71110 0.60220 0.59240 -0.12500
C 	C 	0.56390 0.57380 0.63400 0.05400
C 	C 	0.07480 0.51700 0.99260 0.03800
C 	C 	0.54660 0.52140 0.52020 0.04300
C 	C 	0.99350 0.63510 0.27170 0.40900
C 	C 	0.10320 0.70000 0.28040 -0.21300
C 	C 	0.86410 0.89640 0.45880 0.08900
C 	C 	0.90350 0.89190 0.53350 -0.17900
C 	C 	0.77400 0.92970 0.59490 0.08500
C 	C 	0.86990 0.91240 0.98820 0.06900
C 	C 	0.90570 0.89780 0.90760 -0.12400
C 	C 	0.77170 0.92620 0.86600 0.05400
C 	C 	0.58440 0.98300 0.50740 0.03900
C 	C 	0.58820 0.97860 0.97980 0.04500
C 	C 	0.90030 0.86490 0.22830 0.40900
C 	C 	0.08360 0.80000 0.21960 -0.21300
C 	C 	0.78070 0.39640 0.95880 0.09100
C 	C 	0.67110 0.39190 0.03350 -0.18400
C 	C 	0.70140 0.42970 0.09490 0.08700
C 	C 	0.22950 0.41240 0.48820 0.06100
C 	C 	0.28890 0.39780 0.40760 -0.12500
C 	C 	0.43610 0.42620 0.36600 0.05400
C 	C 	0.92520 0.48300 0.00740 0.03800
C 	C 	0.45340 0.47860 0.47980 0.04300
C 	C 	0.00650 0.36490 0.72830 0.40900
C 	C 	0.89680 0.30000 0.71960 -0.21300
C 	C 	0.13590 0.10360 0.54120 0.08900
C 	C 	0.09650 0.10810 0.46650 -0.17900
C 	C 	0.22600 0.07030 0.40510 0.08500
C 	C 	0.13010 0.08760 0.01180 0.06900
C 	C 	0.09430 0.10220 0.09240 -0.12400
C 	C 	0.22830 0.07380 0.13400 0.05400
C 	C 	0.41560 0.01700 0.49260 0.03900
C 	C 	0.41180 0.02140 0.02020 0.04500
C 	C 	0.09970 0.13510 0.77170 0.40900
C 	C 	0.91640 0.20000 0.78040 -0.21300
N 	N 	0.08820 0.56120 0.05420 -0.22400
N 	N 	0.16870 0.52700 0.91820 -0.23200
N 	N 	0.68740 0.54660 0.47540 -0.22300
N 	N 	0.48180 0.53190 0.59770 -0.22800
N 	N 	0.70360 0.93880 0.44580 -0.22500
N 	N 	0.61390 0.97300 0.58180 -0.23200
N 	N 	0.70940 0.95340 0.02460 -0.22600
N 	N 	0.61140 0.96810 0.90230 -0.22700
N 	N 	0.91180 0.43880 0.94580 -0.22400
N 	N 	0.83130 0.47300 0.08180 -0.23200
N 	N 	0.31260 0.45340 0.52460 -0.22300
N 	N 	0.51820 0.46810 0.40230 -0.22800
N 	N 	0.29640 0.06120 0.55420 -0.22500
N 	N 	0.38610 0.02700 0.41820 -0.23200
N 	N 	0.29060 0.04660 0.97540 -0.22600
N 	N 	0.38860 0.03190 0.09770 -0.22700
O 	O 	0.98390 0.63330 0.20010 -0.46400
O 	O 	0.92360 0.58730 0.33550 -0.46300
O 	O 	0.71880 0.52620 0.24540 -0.54800
O 	O 	0.81730 0.86670 0.29990 -0.46300
O 	O 	0.84640 0.91270 0.16450 -0.46300
O 	O 	0.49040 0.97380 0.25460 -0.54800
O 	O 	0.01610 0.36670 0.79990 -0.46400
O 	O 	0.07640 0.41270 0.66450 -0.46300
O 	O 	0.28120 0.47380 0.75460 -0.54800
O 	O 	0.18270 0.13330 0.70010 -0.46300
O 	O 	0.15360 0.08730 0.83550 -0.46300
O 	O 	0.50960 0.02620 0.74540 -0.54800
