data_crystal

_cell_length_a 9.87100
_cell_length_b 11.50700
_cell_length_c 23.25400
_cell_angle_alpha 90.00000
_cell_angle_beta  90.00000
_cell_angle_gamma 96.41800

_symmetry_space_group_name_	'P 1'
_symmetry_space_group_name_H-M	'P 1'

loop_
_symmetry_equiv_pos_as_xyz
  x,y,z

loop_
_atom_site_label
_atom_site_type_symbol
_atom_site_fract_x
_atom_site_fract_y
_atom_site_fract_z
_atom_site_charge
Mn	Mn	0.74955 0.50002 0.23293 1.30100
Mn	Mn	0.75045 0.49998 0.73293 1.30100
Mn	Mn	0.25045 0.49998 0.76707 1.30100
Mn	Mn	0.24955 0.50002 0.26707 1.30100
H 	H 	0.89330 0.38170 0.34870 0.02700
H 	H 	0.88700 0.38930 0.44790 0.06700
H 	H 	0.60540 0.61420 0.44160 0.07100
H 	H 	0.62030 0.61400 0.34220 0.00700
H 	H 	0.93820 0.46000 0.53430 0.07300
H 	H 	0.92990 0.45950 0.63260 0.00800
H 	H 	0.55190 0.55560 0.62940 0.00500
H 	H 	0.56130 0.55630 0.52940 0.07100
H 	H 	0.23980 0.00680 0.35370 0.17600
H 	H 	0.08550 0.88650 0.20130 0.14300
H 	H 	0.26260 0.00190 0.15410 -0.03800
H 	H 	0.41060 0.13210 0.20480 0.15100
H 	H 	0.58930 0.26130 0.32050 0.11500
H 	H 	0.57150 0.18910 0.26370 0.12300
H 	H 	0.89850 0.75650 0.31090 0.09900
H 	H 	0.92820 0.82440 0.25350 0.09800
H 	H 	0.60670 0.61830 0.84870 0.02700
H 	H 	0.61300 0.61070 0.94790 0.06700
H 	H 	0.89460 0.38580 0.94160 0.07100
H 	H 	0.87970 0.38600 0.84220 0.00700
H 	H 	0.56180 0.54000 0.03430 0.07300
H 	H 	0.57010 0.54050 0.13260 0.00800
H 	H 	0.94810 0.44440 0.12940 0.00500
H 	H 	0.93870 0.44370 0.02940 0.07100
H 	H 	0.26020 0.99320 0.85370 0.17600
H 	H 	0.41450 0.11350 0.70130 0.14300
H 	H 	0.23740 0.99810 0.65410 -0.03800
H 	H 	0.08940 0.86790 0.70480 0.15000
H 	H 	0.91070 0.73870 0.82050 0.11400
H 	H 	0.92850 0.81090 0.76370 0.12200
H 	H 	0.60150 0.24350 0.81090 0.09900
H 	H 	0.57180 0.17560 0.75350 0.09800
H 	H 	0.10670 0.61830 0.65130 0.02700
H 	H 	0.11300 0.61070 0.55210 0.06700
H 	H 	0.39460 0.38580 0.55840 0.07100
H 	H 	0.37970 0.38600 0.65780 0.00700
H 	H 	0.06180 0.54000 0.46570 0.07300
H 	H 	0.07010 0.54050 0.36740 0.00800
H 	H 	0.44810 0.44440 0.37060 0.00500
H 	H 	0.43870 0.44370 0.47060 0.07100
H 	H 	0.76020 0.99320 0.64630 0.17600
H 	H 	0.91450 0.11350 0.79870 0.14300
H 	H 	0.73740 0.99810 0.84590 -0.03800
H 	H 	0.58940 0.86790 0.79520 0.15100
H 	H 	0.41070 0.73870 0.67950 0.11500
H 	H 	0.42850 0.81090 0.73630 0.12300
H 	H 	0.10150 0.24350 0.68910 0.09900
H 	H 	0.07180 0.17560 0.74650 0.09800
H 	H 	0.39330 0.38170 0.15130 0.02700
H 	H 	0.38700 0.38930 0.05210 0.06700
H 	H 	0.10540 0.61420 0.05840 0.07100
H 	H 	0.12030 0.61400 0.15780 0.00700
H 	H 	0.43820 0.46000 0.96570 0.07300
H 	H 	0.42990 0.45950 0.86740 0.00800
H 	H 	0.05190 0.55560 0.87060 0.00500
H 	H 	0.06130 0.55630 0.97060 0.07100
H 	H 	0.73980 0.00680 0.14630 0.17600
H 	H 	0.58550 0.88650 0.29870 0.14300
H 	H 	0.76260 0.00190 0.34590 -0.03800
H 	H 	0.91060 0.13210 0.29520 0.15000
H 	H 	0.08930 0.26130 0.17950 0.11400
H 	H 	0.07150 0.18910 0.23630 0.12200
H 	H 	0.39850 0.75650 0.18910 0.09900
H 	H 	0.42820 0.82440 0.24650 0.09800
C 	C 	0.83770 0.42990 0.36735 0.03000
C 	C 	0.83260 0.43460 0.42675 -0.10200
C 	C 	0.74910 0.50480 0.45635 0.03700
C 	C 	0.66590 0.56970 0.42348 -0.11300
C 	C 	0.67350 0.56770 0.36334 0.05100
C 	C 	0.75460 0.51230 0.52034 0.05300
C 	C 	0.86080 0.48080 0.55272 -0.12400
C 	C 	0.85540 0.47920 0.61168 0.06800
C 	C 	0.62910 0.53670 0.61017 0.06500
C 	C 	0.63640 0.53800 0.55034 -0.11800
C 	C 	0.34430 0.08010 0.28430 0.30400
C 	C 	0.24310 0.00660 0.31374 -0.35400
C 	C 	0.15030 0.93550 0.28301 0.31700
C 	C 	0.15120 0.93350 0.22197 -0.30500
C 	C 	0.25550 0.00540 0.19397 0.21600
C 	C 	0.34700 0.08070 0.22422 -0.31100
C 	C 	0.52300 0.23090 0.29190 -0.25000
C 	C 	0.47560 0.33010 0.26299 0.43000
C 	C 	0.97010 0.78300 0.28387 -0.19400
C 	C 	0.01940 0.67670 0.25764 0.41400
C 	C 	0.66230 0.57010 0.86735 0.03000
C 	C 	0.66740 0.56540 0.92675 -0.10200
C 	C 	0.75090 0.49520 0.95635 0.03700
C 	C 	0.83410 0.43030 0.92348 -0.11300
C 	C 	0.82650 0.43230 0.86334 0.05100
C 	C 	0.74540 0.48770 0.02034 0.05300
C 	C 	0.63920 0.51920 0.05272 -0.12400
C 	C 	0.64460 0.52080 0.11168 0.06800
C 	C 	0.87090 0.46330 0.11017 0.06500
C 	C 	0.86360 0.46200 0.05034 -0.11800
C 	C 	0.15570 0.91990 0.78430 0.30400
C 	C 	0.25690 0.99340 0.81374 -0.35600
C 	C 	0.34970 0.06450 0.78301 0.31800
C 	C 	0.34880 0.06650 0.72197 -0.30300
C 	C 	0.24450 0.99460 0.69397 0.21300
C 	C 	0.15300 0.91930 0.72422 -0.31000
C 	C 	0.97700 0.76910 0.79190 -0.24700
C 	C 	0.02440 0.66990 0.76299 0.42800
C 	C 	0.52990 0.21700 0.78387 -0.19600
C 	C 	0.48060 0.32330 0.75764 0.41500
C 	C 	0.16230 0.57010 0.63265 0.03000
C 	C 	0.16740 0.56540 0.57325 -0.10200
C 	C 	0.25090 0.49520 0.54365 0.03700
C 	C 	0.33410 0.43030 0.57652 -0.11300
C 	C 	0.32650 0.43230 0.63666 0.05100
C 	C 	0.24540 0.48770 0.47966 0.05300
C 	C 	0.13920 0.51920 0.44728 -0.12400
C 	C 	0.14460 0.52080 0.38832 0.06800
C 	C 	0.37090 0.46330 0.38983 0.06500
C 	C 	0.36360 0.46200 0.44966 -0.11800
C 	C 	0.65570 0.91990 0.71570 0.30400
C 	C 	0.75690 0.99340 0.68626 -0.35400
C 	C 	0.84970 0.06450 0.71699 0.31700
C 	C 	0.84880 0.06650 0.77803 -0.30500
C 	C 	0.74450 0.99460 0.80603 0.21600
C 	C 	0.65300 0.91930 0.77578 -0.31100
C 	C 	0.47700 0.76910 0.70810 -0.25000
C 	C 	0.52440 0.66990 0.73701 0.43000
C 	C 	0.02990 0.21700 0.71613 -0.19400
C 	C 	0.98060 0.32330 0.74236 0.41400
C 	C 	0.33770 0.42990 0.13265 0.03000
C 	C 	0.33260 0.43460 0.07325 -0.10200
C 	C 	0.24910 0.50480 0.04365 0.03700
C 	C 	0.16590 0.56970 0.07652 -0.11300
C 	C 	0.17350 0.56770 0.13666 0.05100
C 	C 	0.25460 0.51230 0.97966 0.05300
C 	C 	0.36080 0.48080 0.94728 -0.12400
C 	C 	0.35540 0.47920 0.88832 0.06800
C 	C 	0.12910 0.53670 0.88983 0.06500
C 	C 	0.13640 0.53800 0.94966 -0.11800
C 	C 	0.84430 0.08010 0.21570 0.30400
C 	C 	0.74310 0.00660 0.18626 -0.35600
C 	C 	0.65030 0.93550 0.21699 0.31800
C 	C 	0.65120 0.93350 0.27803 -0.30300
C 	C 	0.75550 0.00540 0.30603 0.21300
C 	C 	0.84700 0.08070 0.27578 -0.31000
C 	C 	0.02300 0.23090 0.20810 -0.24700
C 	C 	0.97560 0.33010 0.23701 0.42800
C 	C 	0.47010 0.78300 0.21613 -0.19600
C 	C 	0.51940 0.67670 0.24236 0.41500
N 	N 	0.75450 0.50140 0.33551 -0.20800
N 	N 	0.74200 0.50601 0.63999 -0.22300
N 	N 	0.74550 0.49860 0.83551 -0.20800
N 	N 	0.75800 0.49399 0.13999 -0.22300
N 	N 	0.24550 0.49860 0.66449 -0.20800
N 	N 	0.25800 0.49399 0.36001 -0.22300
N 	N 	0.25450 0.50140 0.16449 -0.20800
N 	N 	0.24200 0.50601 0.86001 -0.22300
O 	O 	0.43087 0.15001 0.31895 -0.19000
O 	O 	0.55587 0.38441 0.23035 -0.46000
O 	O 	0.34748 0.34304 0.26532 -0.42800
O 	O 	0.05990 0.86206 0.31163 -0.20800
O 	O 	0.12699 0.65131 0.27599 -0.43100
O 	O 	0.93670 0.60716 0.22709 -0.46100
O 	O 	0.06913 0.84999 0.81895 -0.19100
O 	O 	0.94413 0.61559 0.73035 -0.45900
O 	O 	0.15252 0.65696 0.76532 -0.42700
O 	O 	0.44010 0.13794 0.81163 -0.20700
O 	O 	0.37301 0.34869 0.77599 -0.43200
O 	O 	0.56330 0.39284 0.72709 -0.46200
O 	O 	0.56913 0.84999 0.68105 -0.19000
O 	O 	0.44413 0.61559 0.76965 -0.46000
O 	O 	0.65252 0.65696 0.73468 -0.42800
O 	O 	0.94010 0.13794 0.68837 -0.20800
O 	O 	0.87301 0.34869 0.72401 -0.43100
O 	O 	0.06330 0.39284 0.77291 -0.46100
O 	O 	0.93087 0.15001 0.18105 -0.19100
O 	O 	0.05587 0.38441 0.26965 -0.45900
O 	O 	0.84748 0.34304 0.23468 -0.42700
O 	O 	0.55990 0.86206 0.18837 -0.20700
O 	O 	0.62699 0.65131 0.22401 -0.43200
O 	O 	0.43670 0.60716 0.27291 -0.46200
