data_crystal

_cell_length_a 27.64400
_cell_length_b 16.01700
_cell_length_c 22.90200
_cell_angle_alpha 90.00000
_cell_angle_beta  90.00000
_cell_angle_gamma 90.00000

_symmetry_space_group_name_	'P 1'
_symmetry_space_group_name_H-M	'P 1'

loop_
_symmetry_equiv_pos_as_xyz
  x,y,z

loop_
_atom_site_label
_atom_site_type_symbol
_atom_site_fract_x
_atom_site_fract_y
_atom_site_fract_z
_atom_site_charge
P 	P 	0.99126 0.18806 0.26247 0.53800
P 	P 	0.86867 0.78090 0.34351 0.53300
P 	P 	0.13316 0.79691 0.33476 0.54400
P 	P 	0.99790 0.93374 0.34007 0.56200
O 	O 	0.89618 0.02450 0.32978 -0.48200
O 	O 	0.93999 0.03270 0.44436 -0.61300
O 	O 	0.00193 0.73970 0.39100 -0.45400
O 	O 	0.09734 0.03690 0.32308 -0.49100
O 	O 	0.05796 0.04010 0.43997 -0.62100
O 	O 	0.90150 0.87590 0.46590 -0.45800
O 	O 	0.99738 0.02870 0.34688 -0.43600
O 	O 	0.00206 0.87270 0.47609 -0.61700
O 	O 	0.90399 0.74510 0.38802 -0.37100
O 	O 	0.10107 0.88770 0.45839 -0.46100
O 	O 	0.89384 0.78020 0.28157 -0.18400
O 	O 	0.99370 0.91740 0.27386 -0.14600
O 	O 	0.09760 0.75740 0.37778 -0.37500
O 	O 	0.10994 0.79760 0.27230 -0.19000
O 	O 	0.85739 0.87310 0.35539 -0.39300
O 	O 	0.14463 0.88810 0.35071 -0.39500
O 	O 	0.99562 0.16780 0.40101 -0.44600
O 	O 	0.04458 0.89920 0.36594 -0.40500
O 	O 	0.98103 0.27970 0.25620 -0.17200
O 	O 	0.94800 0.14910 0.29323 -0.35900
O 	O 	0.17781 0.74480 0.33132 -0.43900
O 	O 	0.82329 0.72930 0.34113 -0.42300
O 	O 	0.03942 0.16890 0.29184 -0.37500
O 	O 	0.95471 0.89530 0.37216 -0.40200
O 	O 	0.99287 0.14680 0.20020 -0.16400
Mo	Mo	0.04938 0.79852 0.43815 1.09300
Mo	Mo	0.10986 0.98202 0.39657 1.10900
Mo	Mo	0.06009 0.11389 0.37014 1.08100
Mo	Mo	0.93293 0.10497 0.37437 1.09300
Mo	Mo	0.88906 0.96858 0.40370 1.10700
Mo	Mo	0.95568 0.79220 0.44271 1.10400
C 	C 	0.77740 0.69770 0.21830 0.04900
H 	H 	0.79700 0.66060 0.23860 0.00200
C 	C 	0.77820 0.69600 0.15750 -0.09200
H 	H 	0.79790 0.65800 0.13820 0.02400
C 	C 	0.78440 0.71170 0.96930 0.13100
H 	H 	0.80890 0.68430 0.94900 -0.04200
C 	C 	0.78590 0.71020 0.02900 -0.21500
H 	H 	0.81090 0.68260 0.04820 0.06000
C 	C 	0.21730 0.70770 0.20880 0.04200
H 	H 	0.19380 0.67810 0.22920 0.00900
C 	C 	0.21650 0.70570 0.14810 -0.08300
H 	H 	0.19330 0.67410 0.12880 0.01700
C 	C 	0.21240 0.72390 0.95970 0.12800
H 	H 	0.18510 0.70650 0.93910 -0.03100
C 	C 	0.21090 0.72080 0.02000 -0.21700
H 	H 	0.18390 0.69930 0.03900 0.06100
P 	P 	0.50874 0.31194 0.26247 0.51800
P 	P 	0.63133 0.71910 0.34351 0.53300
P 	P 	0.36684 0.70309 0.33476 0.54300
P 	P 	0.50210 0.56626 0.34007 0.51900
O 	O 	0.60382 0.47550 0.32978 -0.46300
O 	O 	0.56001 0.46730 0.44436 -0.60200
O 	O 	0.49807 0.76030 0.39100 -0.43800
O 	O 	0.40266 0.46310 0.32308 -0.46400
O 	O 	0.44204 0.45990 0.43997 -0.59400
O 	O 	0.59850 0.62410 0.46590 -0.46600
O 	O 	0.50262 0.47130 0.34688 -0.42300
O 	O 	0.49794 0.62730 0.47609 -0.61400
O 	O 	0.59601 0.75490 0.38802 -0.37300
O 	O 	0.39893 0.61230 0.45839 -0.46800
O 	O 	0.60616 0.71980 0.28157 -0.19100
O 	O 	0.50630 0.58260 0.27386 -0.16500
O 	O 	0.40240 0.74260 0.37778 -0.37100
O 	O 	0.39006 0.70240 0.27230 -0.19200
O 	O 	0.64261 0.62690 0.35539 -0.40200
O 	O 	0.35537 0.61190 0.35071 -0.40500
O 	O 	0.50438 0.33220 0.40101 -0.46300
O 	O 	0.45542 0.60080 0.36594 -0.39700
O 	O 	0.51897 0.22030 0.25620 -0.18300
O 	O 	0.55200 0.35090 0.29323 -0.35600
O 	O 	0.32219 0.75520 0.33132 -0.43700
O 	O 	0.67671 0.77070 0.34113 -0.42200
O 	O 	0.46058 0.33110 0.29184 -0.35200
O 	O 	0.54529 0.60470 0.37216 -0.41000
O 	O 	0.50713 0.35320 0.20020 -0.16400
Mo	Mo	0.45062 0.70148 0.43815 1.09600
Mo	Mo	0.39014 0.51798 0.39657 1.08800
Mo	Mo	0.43991 0.38611 0.37014 1.09000
Mo	Mo	0.56707 0.39503 0.37437 1.09300
Mo	Mo	0.61094 0.53142 0.40370 1.08900
Mo	Mo	0.54432 0.70780 0.44271 1.09500
C 	C 	0.72260 0.80230 0.21830 0.05000
H 	H 	0.70300 0.83940 0.23860 0.00600
C 	C 	0.72180 0.80400 0.15750 -0.09200
H 	H 	0.70210 0.84200 0.13820 0.02800
C 	C 	0.71560 0.78830 0.96930 0.13200
H 	H 	0.69110 0.81570 0.94900 -0.04100
C 	C 	0.71410 0.78980 0.02900 -0.21500
H 	H 	0.68910 0.81740 0.04820 0.06100
C 	C 	0.28270 0.79230 0.20880 0.04200
H 	H 	0.30620 0.82190 0.22920 0.01200
C 	C 	0.28350 0.79430 0.14810 -0.08200
H 	H 	0.30670 0.82590 0.12880 0.02000
C 	C 	0.28760 0.77610 0.95970 0.12800
H 	H 	0.31490 0.79350 0.93910 -0.03000
C 	C 	0.28910 0.77920 0.02000 -0.21600
H 	H 	0.31610 0.80070 0.03900 0.06200
P 	P 	0.00874 0.68806 0.23753 0.50100
P 	P 	0.13133 0.28090 0.15649 0.53300
P 	P 	0.86684 0.29691 0.16524 0.54300
P 	P 	0.00210 0.43374 0.15993 0.49900
O 	O 	0.10382 0.52450 0.17022 -0.46300
O 	O 	0.06001 0.53270 0.05564 -0.61300
O 	O 	0.99807 0.23970 0.10900 -0.43300
O 	O 	0.90266 0.53690 0.17692 -0.45900
O 	O 	0.94204 0.54010 0.06003 -0.59200
O 	O 	0.09850 0.37590 0.03410 -0.48100
O 	O 	0.00262 0.52870 0.15312 -0.43000
O 	O 	0.99794 0.37270 0.02391 -0.60700
O 	O 	0.09601 0.24510 0.11198 -0.38900
O 	O 	0.89893 0.38770 0.04161 -0.47800
O 	O 	0.10616 0.28020 0.21843 -0.19700
O 	O 	0.00630 0.41740 0.22614 -0.17400
O 	O 	0.90240 0.25740 0.12222 -0.37900
O 	O 	0.89006 0.29760 0.22770 -0.19100
O 	O 	0.14261 0.37310 0.14461 -0.40300
O 	O 	0.85537 0.38810 0.14929 -0.40600
O 	O 	0.00438 0.66780 0.09899 -0.47700
O 	O 	0.95542 0.39920 0.13406 -0.38100
O 	O 	0.01897 0.77970 0.24380 -0.18600
O 	O 	0.05200 0.64910 0.20677 -0.35400
O 	O 	0.82219 0.24480 0.16868 -0.44400
O 	O 	0.17671 0.22930 0.15887 -0.43200
O 	O 	0.96058 0.66890 0.20816 -0.33000
O 	O 	0.04529 0.39530 0.12784 -0.41300
O 	O 	0.00713 0.64680 0.29980 -0.16900
Mo	Mo	0.95062 0.29852 0.06185 1.09200
Mo	Mo	0.89014 0.48202 0.10343 1.08600
Mo	Mo	0.93991 0.61389 0.12986 1.09700
Mo	Mo	0.06707 0.60497 0.12563 1.09200
Mo	Mo	0.11094 0.46858 0.09630 1.08700
Mo	Mo	0.04432 0.29220 0.05729 1.07500
C 	C 	0.22260 0.19770 0.28170 0.05800
H 	H 	0.20300 0.16060 0.26140 -0.00700
C 	C 	0.22180 0.19600 0.34250 -0.11500
H 	H 	0.20210 0.15800 0.36180 0.02900
C 	C 	0.21560 0.21170 0.53070 0.05300
H 	H 	0.19110 0.18430 0.55100 -0.02400
C 	C 	0.21410 0.21020 0.47100 -0.12900
H 	H 	0.18910 0.18260 0.45180 0.03000
C 	C 	0.78270 0.20770 0.29120 0.05000
H 	H 	0.80620 0.17810 0.27080 0.00200
C 	C 	0.78350 0.20570 0.35190 -0.10600
H 	H 	0.80670 0.17410 0.37120 0.02400
C 	C 	0.78760 0.22390 0.54030 0.05000
H 	H 	0.81490 0.20650 0.56090 -0.01100
C 	C 	0.78910 0.22080 0.48000 -0.12900
H 	H 	0.81610 0.19930 0.46100 0.03400
P 	P 	0.49126 0.81194 0.23753 0.51800
P 	P 	0.36867 0.21910 0.15649 0.53300
P 	P 	0.63316 0.20309 0.16524 0.54300
P 	P 	0.49790 0.06626 0.15993 0.49000
O 	O 	0.39618 0.97550 0.17022 -0.43900
O 	O 	0.43999 0.96730 0.05564 -0.58600
O 	O 	0.50193 0.26030 0.10900 -0.44300
O 	O 	0.59734 0.96310 0.17692 -0.44200
O 	O 	0.55796 0.95990 0.06003 -0.57900
O 	O 	0.40150 0.12410 0.03410 -0.48400
O 	O 	0.49738 0.97130 0.15312 -0.39700
O 	O 	0.50206 0.12730 0.02391 -0.62800
O 	O 	0.40399 0.25490 0.11198 -0.37900
O 	O 	0.60107 0.11230 0.04161 -0.48600
O 	O 	0.39384 0.21980 0.21843 -0.19500
O 	O 	0.49370 0.08260 0.22614 -0.17400
O 	O 	0.59760 0.24260 0.12222 -0.37700
O 	O 	0.60994 0.20240 0.22770 -0.19600
O 	O 	0.35739 0.12690 0.14461 -0.41300
O 	O 	0.64463 0.11190 0.14929 -0.41600
O 	O 	0.49562 0.83220 0.09899 -0.46700
O 	O 	0.54458 0.10080 0.13406 -0.40100
O 	O 	0.48103 0.72030 0.24380 -0.18100
O 	O 	0.44800 0.85090 0.20677 -0.35300
O 	O 	0.67781 0.25520 0.16868 -0.44300
O 	O 	0.32329 0.27070 0.15887 -0.42800
O 	O 	0.53942 0.83110 0.20816 -0.34900
O 	O 	0.45471 0.10470 0.12784 -0.41400
O 	O 	0.49287 0.85320 0.29980 -0.15400
Mo	Mo	0.54938 0.20148 0.06185 1.09100
Mo	Mo	0.60986 0.01798 0.10343 1.06500
Mo	Mo	0.56009 0.88611 0.12986 1.09100
Mo	Mo	0.43293 0.89503 0.12563 1.09400
Mo	Mo	0.38906 0.03142 0.09630 1.06600
Mo	Mo	0.45568 0.20780 0.05729 1.09000
C 	C 	0.27740 0.30230 0.28170 0.05800
H 	H 	0.29700 0.33940 0.26140 -0.00200
C 	C 	0.27820 0.30400 0.34250 -0.11400
H 	H 	0.29790 0.34200 0.36180 0.03300
C 	C 	0.28440 0.28830 0.53070 0.05400
H 	H 	0.30890 0.31570 0.55100 -0.02200
C 	C 	0.28590 0.28980 0.47100 -0.12800
H 	H 	0.31090 0.31740 0.45180 0.03300
C 	C 	0.71730 0.29230 0.29120 0.05100
H 	H 	0.69380 0.32190 0.27080 0.00500
C 	C 	0.71650 0.29430 0.35190 -0.10500
H 	H 	0.69330 0.32590 0.37120 0.02600
C 	C 	0.71240 0.27610 0.54030 0.05000
H 	H 	0.68510 0.29350 0.56090 -0.01100
C 	C 	0.71090 0.27920 0.48000 -0.12900
H 	H 	0.68390 0.30070 0.46100 0.03500
P 	P 	0.00874 0.81194 0.73753 0.50200
P 	P 	0.13133 0.21910 0.65649 0.53400
P 	P 	0.86684 0.20309 0.66524 0.54300
P 	P 	0.00210 0.06626 0.65993 0.47000
O 	O 	0.10382 0.97550 0.67022 -0.43900
O 	O 	0.06001 0.96730 0.55564 -0.58000
O 	O 	0.99807 0.26030 0.60900 -0.42700
O 	O 	0.90266 0.96310 0.67692 -0.44000
O 	O 	0.94204 0.95990 0.56003 -0.56400
O 	O 	0.09850 0.12410 0.53410 -0.47600
O 	O 	0.00262 0.97130 0.65312 -0.40400
O 	O 	0.99794 0.12730 0.52391 -0.60000
O 	O 	0.09601 0.25490 0.61198 -0.38200
O 	O 	0.89893 0.11230 0.54161 -0.47400
O 	O 	0.10616 0.21980 0.71843 -0.19800
O 	O 	0.00630 0.08260 0.72614 -0.18200
O 	O 	0.90240 0.24260 0.62222 -0.37300
O 	O 	0.89006 0.20240 0.72770 -0.19300
O 	O 	0.14261 0.12690 0.64461 -0.41000
O 	O 	0.85537 0.11190 0.64929 -0.41200
O 	O 	0.00438 0.83220 0.59899 -0.47100
O 	O 	0.95542 0.10080 0.63406 -0.38400
O 	O 	0.01897 0.72030 0.74380 -0.18800
O 	O 	0.05200 0.85090 0.70677 -0.35200
O 	O 	0.82219 0.25520 0.66868 -0.44100
O 	O 	0.17671 0.27070 0.65887 -0.42700
O 	O 	0.96058 0.83110 0.70816 -0.33000
O 	O 	0.04529 0.10470 0.62784 -0.41800
O 	O 	0.00713 0.85320 0.79980 -0.15900
Mo	Mo	0.95062 0.20148 0.56185 1.09600
Mo	Mo	0.89014 0.01798 0.60343 1.07000
Mo	Mo	0.93991 0.88611 0.62986 1.09900
Mo	Mo	0.06707 0.89503 0.62563 1.09500
Mo	Mo	0.11094 0.03142 0.59630 1.06900
Mo	Mo	0.04432 0.20780 0.55729 1.08100
C 	C 	0.22260 0.30230 0.78170 0.07200
H 	H 	0.20300 0.33940 0.76140 -0.00700
C 	C 	0.22180 0.30400 0.84250 -0.13800
H 	H 	0.20210 0.34200 0.86180 0.04400
C 	C 	0.21560 0.28830 0.03070 -0.03200
H 	H 	0.19110 0.31570 0.05100 0.00200
C 	C 	0.21410 0.28980 0.97100 -0.02500
H 	H 	0.18910 0.31740 0.95180 0.00400
C 	C 	0.78270 0.29230 0.79120 0.06400
H 	H 	0.80620 0.32190 0.77080 0.00200
C 	C 	0.78350 0.29430 0.85190 -0.12800
H 	H 	0.80670 0.32590 0.87120 0.03800
C 	C 	0.78760 0.27610 0.04030 -0.02900
H 	H 	0.81490 0.29350 0.06090 0.01200
C 	C 	0.78910 0.27920 0.98000 -0.03200
H 	H 	0.81610 0.30070 0.96100 0.00900
P 	P 	0.49126 0.68806 0.73753 0.51800
P 	P 	0.36867 0.28090 0.65649 0.53300
P 	P 	0.63316 0.29691 0.66524 0.54300
P 	P 	0.49790 0.43374 0.65993 0.51900
O 	O 	0.39618 0.52450 0.67022 -0.46100
O 	O 	0.43999 0.53270 0.55564 -0.60200
O 	O 	0.50193 0.23970 0.60900 -0.44400
O 	O 	0.59734 0.53690 0.67692 -0.46200
O 	O 	0.55796 0.54010 0.56003 -0.59400
O 	O 	0.40150 0.37590 0.53410 -0.46800
O 	O 	0.49738 0.52870 0.65312 -0.42200
O 	O 	0.50206 0.37270 0.52391 -0.61500
O 	O 	0.40399 0.24510 0.61198 -0.38000
O 	O 	0.60107 0.38770 0.54161 -0.46900
O 	O 	0.39384 0.28020 0.71843 -0.19100
O 	O 	0.49370 0.41740 0.72614 -0.16200
O 	O 	0.59760 0.25740 0.62222 -0.37700
O 	O 	0.60994 0.29760 0.72770 -0.19100
O 	O 	0.35739 0.37310 0.64461 -0.40100
O 	O 	0.64463 0.38810 0.64929 -0.40400
O 	O 	0.49562 0.66780 0.59899 -0.45800
O 	O 	0.54458 0.39920 0.63406 -0.39700
O 	O 	0.48103 0.77970 0.74380 -0.17700
O 	O 	0.44800 0.64910 0.70677 -0.35400
O 	O 	0.67781 0.24480 0.66868 -0.44300
O 	O 	0.32329 0.22930 0.65887 -0.42900
O 	O 	0.53942 0.66890 0.70816 -0.34900
O 	O 	0.45471 0.39530 0.62784 -0.41000
O 	O 	0.49287 0.64680 0.79980 -0.16000
Mo	Mo	0.54938 0.29852 0.56185 1.09300
Mo	Mo	0.60986 0.48202 0.60343 1.08800
Mo	Mo	0.56009 0.61389 0.62986 1.09200
Mo	Mo	0.43293 0.60497 0.62563 1.09500
Mo	Mo	0.38906 0.46858 0.59630 1.08900
Mo	Mo	0.45568 0.29220 0.55729 1.09200
C 	C 	0.27740 0.19770 0.78170 0.07100
H 	H 	0.29700 0.16060 0.76140 -0.01000
C 	C 	0.27820 0.19600 0.84250 -0.13900
H 	H 	0.29790 0.15800 0.86180 0.04100
C 	C 	0.28440 0.21170 0.03070 -0.03300
H 	H 	0.30890 0.18430 0.05100 0.00000
C 	C 	0.28590 0.21020 0.97100 -0.02400
H 	H 	0.31090 0.18260 0.95180 0.00300
C 	C 	0.71730 0.20770 0.79120 0.06400
H 	H 	0.69380 0.17810 0.77080 -0.00100
C 	C 	0.71650 0.20570 0.85190 -0.12800
H 	H 	0.69330 0.17410 0.87120 0.03500
C 	C 	0.71240 0.22390 0.04030 -0.03100
H 	H 	0.68510 0.20650 0.06090 0.01200
C 	C 	0.71090 0.22080 0.98000 -0.03200
H 	H 	0.68390 0.19930 0.96100 0.00800
P 	P 	0.99126 0.31194 0.76247 0.53500
P 	P 	0.86867 0.71910 0.84351 0.53300
P 	P 	0.13316 0.70309 0.83476 0.54300
P 	P 	0.99790 0.56626 0.84007 0.53600
O 	O 	0.89618 0.47550 0.82978 -0.46100
O 	O 	0.93999 0.46730 0.94436 -0.58500
O 	O 	0.00193 0.76030 0.89100 -0.44700
O 	O 	0.09734 0.46310 0.82308 -0.46700
O 	O 	0.05796 0.45990 0.93997 -0.58900
O 	O 	0.90150 0.62410 0.96590 -0.45300
O 	O 	0.99738 0.47130 0.84688 -0.41400
O 	O 	0.00206 0.62730 0.97609 -0.61300
O 	O 	0.90399 0.75490 0.88802 -0.36500
O 	O 	0.10107 0.61230 0.95839 -0.45700
O 	O 	0.89384 0.71980 0.78157 -0.18700
O 	O 	0.99370 0.58260 0.77386 -0.15500
O 	O 	0.09760 0.74260 0.87778 -0.36900
O 	O 	0.10994 0.70240 0.77230 -0.19300
O 	O 	0.85739 0.62690 0.85539 -0.40000
O 	O 	0.14463 0.61190 0.85071 -0.40300
O 	O 	0.99562 0.33220 0.90101 -0.44200
O 	O 	0.04458 0.60080 0.86594 -0.41100
O 	O 	0.98103 0.22030 0.75620 -0.17300
O 	O 	0.94800 0.35090 0.79323 -0.35600
O 	O 	0.17781 0.75520 0.83132 -0.43600
O 	O 	0.82329 0.77070 0.84113 -0.41900
O 	O 	0.03942 0.33110 0.79184 -0.37100
O 	O 	0.95471 0.60470 0.87216 -0.40700
O 	O 	0.99287 0.35320 0.70020 -0.15600
Mo	Mo	0.04938 0.70148 0.93815 1.09700
Mo	Mo	0.10986 0.51798 0.89657 1.09000
Mo	Mo	0.06009 0.38611 0.87014 1.08500
Mo	Mo	0.93293 0.39503 0.87437 1.09600
Mo	Mo	0.88906 0.53142 0.90370 1.09100
Mo	Mo	0.95568 0.70780 0.94271 1.10800
C 	C 	0.77740 0.80230 0.71830 0.06100
H 	H 	0.79700 0.83940 0.73860 0.00300
C 	C 	0.77820 0.80400 0.65750 -0.11200
H 	H 	0.79790 0.84200 0.63820 0.03700
C 	C 	0.78440 0.78830 0.46930 0.06000
H 	H 	0.80890 0.81570 0.44900 -0.02100
C 	C 	0.78590 0.78980 0.52900 -0.12800
H 	H 	0.81090 0.81740 0.54820 0.03700
C 	C 	0.21730 0.79230 0.70880 0.05400
H 	H 	0.19380 0.82190 0.72920 0.00900
C 	C 	0.21650 0.79430 0.64810 -0.10300
H 	H 	0.19330 0.82590 0.62880 0.03000
C 	C 	0.21240 0.77610 0.45970 0.05500
H 	H 	0.18510 0.79350 0.43910 -0.01000
C 	C 	0.21090 0.77920 0.52000 -0.12800
H 	H 	0.18390 0.80070 0.53900 0.03800
P 	P 	0.50874 0.18806 0.76247 0.51800
P 	P 	0.63133 0.78090 0.84351 0.53200
P 	P 	0.36684 0.79691 0.83476 0.54300
P 	P 	0.50210 0.93374 0.84007 0.54400
O 	O 	0.60382 0.02450 0.82978 -0.48100
O 	O 	0.56001 0.03270 0.94436 -0.60500
O 	O 	0.49807 0.73970 0.89100 -0.43900
O 	O 	0.40266 0.03690 0.82308 -0.48200
O 	O 	0.44204 0.04010 0.93997 -0.59700
O 	O 	0.59850 0.87590 0.96590 -0.45100
O 	O 	0.50262 0.02870 0.84688 -0.44400
O 	O 	0.49794 0.87270 0.97609 -0.59400
O 	O 	0.59601 0.74510 0.88802 -0.37300
O 	O 	0.39893 0.88770 0.95839 -0.45200
O 	O 	0.60616 0.78020 0.78157 -0.18800
O 	O 	0.50630 0.91740 0.77386 -0.15400
O 	O 	0.40240 0.75740 0.87778 -0.37100
O 	O 	0.39006 0.79760 0.77230 -0.18700
O 	O 	0.64261 0.87310 0.85539 -0.39200
O 	O 	0.35537 0.88810 0.85071 -0.39400
O 	O 	0.50438 0.16780 0.90101 -0.45100
O 	O 	0.45542 0.89920 0.86594 -0.39300
O 	O 	0.51897 0.27970 0.75620 -0.17900
O 	O 	0.55200 0.14910 0.79323 -0.35700
O 	O 	0.32219 0.74480 0.83132 -0.43700
O 	O 	0.67671 0.72930 0.84113 -0.42300
O 	O 	0.46058 0.16890 0.79184 -0.35100
O 	O 	0.54529 0.89530 0.87216 -0.40600
O 	O 	0.50713 0.14680 0.70020 -0.16900
Mo	Mo	0.45062 0.79852 0.93815 1.09800
Mo	Mo	0.39014 0.98202 0.89657 1.10900
Mo	Mo	0.43991 0.11389 0.87014 1.09200
Mo	Mo	0.56707 0.10497 0.87437 1.09400
Mo	Mo	0.61094 0.96858 0.90370 1.10900
Mo	Mo	0.54432 0.79220 0.94271 1.09600
C 	C 	0.72260 0.69770 0.71830 0.06100
H 	H 	0.70300 0.66060 0.73860 -0.00100
C 	C 	0.72180 0.69600 0.65750 -0.11300
H 	H 	0.70210 0.65800 0.63820 0.03400
C 	C 	0.71560 0.71170 0.46930 0.05800
H 	H 	0.69110 0.68430 0.44900 -0.02200
C 	C 	0.71410 0.71020 0.52900 -0.12800
H 	H 	0.68910 0.68260 0.54820 0.03500
C 	C 	0.28270 0.70770 0.70880 0.05400
H 	H 	0.30620 0.67810 0.72920 0.00600
C 	C 	0.28350 0.70570 0.64810 -0.10400
H 	H 	0.30670 0.67410 0.62880 0.02700
C 	C 	0.28760 0.72390 0.45970 0.05400
H 	H 	0.31490 0.70650 0.43910 -0.01000
C 	C 	0.28910 0.72080 0.52000 -0.12800
H 	H 	0.31610 0.69930 0.53900 0.03700
Co	Co	-0.00000 0.00000 0.50000 1.16400
Co	Co	0.50000 0.50000 0.50000 1.19300
Co	Co	-0.00000 0.50000 -0.00000 1.16900
Co	Co	0.50000 0.00000 -0.00000 1.16200
C 	C 	0.75000 0.75000 0.12610 0.00300
C 	C 	0.75000 0.75000 0.06080 0.09500
N 	N 	0.75000 0.75000 0.24840 -0.23100
N 	N 	0.75000 0.75000 0.93820 -0.26300
Co	Co	0.75000 0.75000 0.34270 1.11300
C 	C 	0.25000 0.25000 0.37390 0.03200
C 	C 	0.25000 0.25000 0.43920 0.03400
N 	N 	0.25000 0.25000 0.25160 -0.23700
N 	N 	0.25000 0.25000 0.56180 -0.24200
Co	Co	0.25000 0.25000 0.15730 1.11000
C 	C 	0.25000 0.25000 0.87390 0.07100
C 	C 	0.25000 0.25000 0.93920 -0.03200
N 	N 	0.25000 0.25000 0.75160 -0.24100
N 	N 	0.25000 0.25000 0.06180 -0.21600
Co	Co	0.25000 0.25000 0.65730 1.11100
C 	C 	0.75000 0.75000 0.62610 0.03500
C 	C 	0.75000 0.75000 0.56080 0.03900
N 	N 	0.75000 0.75000 0.74840 -0.23400
N 	N 	0.75000 0.75000 0.43820 -0.24100
Co	Co	0.75000 0.75000 0.84270 1.11400
C 	C 	0.25000 0.75000 0.11650 -0.00600
C 	C 	0.25000 0.75000 0.05190 0.09700
N 	N 	0.25000 0.75000 0.23860 -0.22500
N 	N 	0.25000 0.75000 0.92950 -0.26200
Co	Co	0.25000 0.75000 0.33347 1.12100
C 	C 	0.75000 0.25000 0.38350 0.02500
C 	C 	0.75000 0.25000 0.44810 0.03600
N 	N 	0.75000 0.25000 0.26140 -0.23100
N 	N 	0.75000 0.25000 0.57050 -0.24000
Co	Co	0.75000 0.25000 0.16653 1.11700
C 	C 	0.75000 0.25000 0.88350 0.06200
C 	C 	0.75000 0.25000 0.94810 -0.02600
N 	N 	0.75000 0.25000 0.76140 -0.23500
N 	N 	0.75000 0.25000 0.07050 -0.21500
Co	Co	0.75000 0.25000 0.66653 1.11800
C 	C 	0.25000 0.75000 0.61650 0.02800
C 	C 	0.25000 0.75000 0.55190 0.04000
N 	N 	0.25000 0.75000 0.73860 -0.22900
N 	N 	0.25000 0.75000 0.42950 -0.23900
Co	Co	0.25000 0.75000 0.83347 1.12200
