data_crystal

_cell_length_a 12.80600
_cell_length_b 13.80900
_cell_length_c 14.50800
_cell_angle_alpha 113.57000
_cell_angle_beta  96.71000
_cell_angle_gamma 106.21000

_symmetry_space_group_name_	'P 1'
_symmetry_space_group_name_H-M	'P 1'

loop_
_symmetry_equiv_pos_as_xyz
  x,y,z

loop_
_atom_site_label
_atom_site_type_symbol
_atom_site_fract_x
_atom_site_fract_y
_atom_site_fract_z
_atom_site_charge
Mo	Mo	0.05688 0.42496 0.22506 1.07000
Mo	Mo	0.84710 0.40609 0.21016 1.09100
P 	P 	0.02902 0.68339 0.35205 0.48800
P 	P 	0.87117 0.98745 0.36648 0.52100
P 	P 	0.28039 0.59716 0.20117 0.54000
P 	P 	0.68275 0.53818 0.15644 0.52900
O 	O 	0.23530 0.68550 0.18050 -0.24000
O 	O 	0.56050 0.48710 0.08940 -0.51100
O 	O 	0.83780 0.87740 0.26790 -0.39900
O 	O 	0.05600 0.75460 0.47130 -0.42600
O 	O 	0.04710 0.75460 0.29550 -0.39900
O 	O 	0.78480 0.04440 0.36570 -0.39100
O 	O 	0.36700 0.58090 0.14280 -0.43300
O 	O 	0.86970 0.96480 0.46340 -0.19200
O 	O 	0.32980 0.65010 0.31870 -0.40000
O 	O 	0.71000 0.19150 0.51330 -0.46900
O 	O 	0.74740 0.63360 0.13630 -0.47900
O 	O 	0.90530 0.59810 0.31350 -0.43000
O 	O 	0.67700 0.57840 0.27130 -0.41800
O 	O 	0.99020 0.06550 0.38180 -0.35500
O 	O 	0.95300 0.45190 0.13770 -0.46900
O 	O 	0.73260 0.44350 0.12900 -0.41600
O 	O 	0.17840 0.48780 0.16100 -0.40500
O 	O 	0.10800 0.61410 0.33110 -0.42400
O 	O 	0.19460 0.47430 0.34930 -0.47100
O 	O 	0.75130 0.43210 0.31990 -0.46500
O 	O 	0.10860 0.39660 0.49280 -0.63800
O 	O 	0.92100 0.21770 0.33910 -0.44200
O 	O 	0.96200 0.41720 0.32100 -0.58000
O 	O 	0.16470 0.23580 0.54650 -0.48500
O 	O 	0.83430 0.36820 0.46890 -0.61500
C 	C 	0.30680 0.27480 0.03490 0.03300
H 	H 	0.31390 0.35050 0.06310 -0.00200
C 	C 	0.24020 0.20580 0.06920 -0.13500
H 	H 	0.20370 0.23490 0.11970 0.03500
C 	C 	0.22830 0.09170 0.02720 0.05100
C 	C 	0.27940 0.05200 0.94820 -0.16300
H 	H 	0.26970 0.97570 0.91490 0.05400
C 	C 	0.34530 0.12810 0.91960 0.07800
H 	H 	0.37970 0.10010 0.86700 -0.04600
C 	C 	0.10390 0.84390 0.08180 0.02300
H 	H 	0.11380 0.77620 0.07070 -0.01400
C 	C 	0.17290 0.91460 0.05070 -0.10800
H 	H 	0.22890 0.89520 0.02050 0.02900
C 	C 	0.15800 0.01520 0.06490 0.00000
C 	C 	0.07590 0.04110 0.11300 -0.09900
H 	H 	0.06350 0.10770 0.12410 0.01600
Cd	Cd	0.91520 0.75344 0.18480 1.23000
Cd	Cd	0.51195 0.63929 0.08284 1.19400
C 	C 	0.01170 0.96650 0.14460 -0.01800
H 	H 	0.95850 0.98610 0.17940 0.03400
N 	N 	0.36260 0.23670 0.96150 -0.24900
N 	N 	0.02330 0.86830 0.12720 -0.23500
Mo	Mo	0.73082 0.34951 0.55473 1.08800
Mo	Mo	0.78567 0.20238 0.40624 1.09400
Mo	Mo	0.07093 0.23276 0.42877 1.07400
Mo	Mo	0.22675 0.39764 0.59198 1.08700
Mo	Mo	0.94312 0.57504 0.77494 1.10900
Mo	Mo	0.15290 0.59391 0.78984 1.08500
P 	P 	0.97098 0.31661 0.64795 0.54700
P 	P 	0.12883 0.01255 0.63352 0.52500
P 	P 	0.71961 0.40284 0.79883 0.53900
P 	P 	0.31725 0.46182 0.84356 0.52800
O 	O 	0.76470 0.31450 0.81950 -0.23300
O 	O 	0.43950 0.51290 0.91060 -0.51400
O 	O 	0.16220 0.12260 0.73210 -0.41100
O 	O 	0.94400 0.24540 0.52870 -0.40500
O 	O 	0.95290 0.24540 0.70450 -0.37400
O 	O 	0.21520 0.95560 0.63430 -0.39200
O 	O 	0.63300 0.41910 0.85720 -0.43300
O 	O 	0.13030 0.03520 0.53660 -0.21400
O 	O 	0.67020 0.34990 0.68130 -0.40000
O 	O 	0.29000 0.80850 0.48670 -0.46800
O 	O 	0.25260 0.36640 0.86370 -0.48800
O 	O 	0.09470 0.40190 0.68650 -0.47800
O 	O 	0.32300 0.42160 0.72870 -0.41800
O 	O 	0.00980 0.93450 0.61820 -0.40200
O 	O 	0.04700 0.54810 0.86230 -0.51700
O 	O 	0.26740 0.55650 0.87100 -0.42100
O 	O 	0.82160 0.51220 0.83900 -0.39000
O 	O 	0.89200 0.38590 0.66890 -0.41300
O 	O 	0.80540 0.52570 0.65070 -0.46000
O 	O 	0.24870 0.56790 0.68010 -0.46600
O 	O 	0.89140 0.60340 0.50720 -0.61000
O 	O 	0.07900 0.78230 0.66090 -0.47200
O 	O 	0.03800 0.58280 0.67900 -0.62600
O 	O 	0.83530 0.76420 0.45350 -0.46600
O 	O 	0.16570 0.63180 0.53110 -0.62700
C 	C 	0.69320 0.72520 0.96510 0.01600
H 	H 	0.68610 0.64950 0.93690 0.00600
C 	C 	0.75980 0.79420 0.93080 -0.10600
H 	H 	0.79630 0.76510 0.88030 0.03200
C 	C 	0.77170 0.90830 0.97280 0.01800
C 	C 	0.72060 0.94800 0.05180 -0.13300
H 	H 	0.73030 0.02430 0.08510 0.04800
C 	C 	0.65470 0.87190 0.08040 0.06600
H 	H 	0.62030 0.89990 0.13300 -0.04100
C 	C 	0.89610 0.15610 0.91820 0.06100
H 	H 	0.88620 0.22380 0.92930 -0.01600
C 	C 	0.82710 0.08540 0.94930 -0.15200
H 	H 	0.77110 0.10480 0.97950 0.04500
C 	C 	0.84200 0.98480 0.93510 0.06900
C 	C 	0.92410 0.95890 0.88700 -0.21000
H 	H 	0.93650 0.89230 0.87590 0.08000
Cd	Cd	0.08480 0.24656 0.81520 1.20800
Cd	Cd	0.48805 0.36071 0.91716 1.19300
C 	C 	0.98830 0.03350 0.85540 0.19300
H 	H 	0.04150 0.01390 0.82060 -0.08900
N 	N 	0.63740 0.76330 0.03850 -0.23900
N 	N 	0.97670 0.13170 0.87280 -0.25300
Mo	Mo	0.26918 0.65049 0.44527 1.08800
Mo	Mo	0.21433 0.79762 0.59376 1.09400
Mo	Mo	0.92907 0.76724 0.57123 1.11200
Mo	Mo	0.77325 0.60236 0.40802 1.08700
Cd	Cd	0.00000 0.50000 0.50000 1.25000
