data_crystal

_cell_length_a 9.36110
_cell_length_b 9.92100
_cell_length_c 10.01500
_cell_angle_alpha 85.03000
_cell_angle_beta  85.81000
_cell_angle_gamma 65.09000

_symmetry_space_group_name_	'P 1'
_symmetry_space_group_name_H-M	'P 1'

loop_
_symmetry_equiv_pos_as_xyz
  x,y,z

loop_
_atom_site_label
_atom_site_type_symbol
_atom_site_fract_x
_atom_site_fract_y
_atom_site_fract_z
_atom_site_charge
O 	O 	0.86880 0.32860 0.25410 -0.36300
O 	O 	0.45570 0.13380 0.62380 -0.46000
Cd	Cd	0.56027 0.03946 0.82362 1.22000
Ru	Ru	0.58025 0.48262 0.58452 0.95000
Ru	Ru	0.94724 0.45534 0.08826 0.96300
O 	O 	0.57440 0.28330 0.63450 -0.47900
O 	O 	0.41450 0.31700 0.46560 -0.45800
O 	O 	0.76810 0.39380 0.45800 -0.45800
O 	O 	0.60930 0.42420 0.28870 -0.48000
O 	O 	0.74350 0.41060 0.75890 -0.38900
O 	O 	0.12340 0.25180 0.06330 -0.52100
O 	O 	0.22960 0.34040 0.88820 -0.50100
O 	O 	0.81530 0.41510 0.96120 -0.43600
O 	O 	0.92080 0.50150 0.78270 -0.43500
O 	O 	0.34750 0.10410 0.96880 -0.57300
O 	O 	0.64640 0.19540 0.91250 -0.72800
H 	H 	0.61060 0.27910 0.86820 0.28900
H 	H 	0.61330 0.20720 0.99380 0.27500
C 	C 	0.48170 0.24440 0.57530 0.49800
C 	C 	0.75000 0.38170 0.33330 0.49600
C 	C 	0.23550 0.23260 0.97230 0.55900
C 	C 	0.82650 0.44360 0.83370 0.49100
O 	O 	0.13120 0.67140 0.74590 -0.38900
O 	O 	0.54430 0.86620 0.37620 -0.44600
Cd	Cd	0.43973 0.96054 0.17638 1.21400
Ru	Ru	0.41975 0.51738 0.41548 0.94600
Ru	Ru	0.05276 0.54466 0.91174 0.92800
O 	O 	0.42560 0.71670 0.36550 -0.48500
O 	O 	0.58550 0.68300 0.53440 -0.44300
O 	O 	0.23190 0.60620 0.54200 -0.48000
O 	O 	0.39070 0.57580 0.71130 -0.46900
O 	O 	0.25650 0.58940 0.24110 -0.41200
O 	O 	0.87660 0.74820 0.93670 -0.36600
O 	O 	0.77040 0.65960 0.11180 -0.47400
O 	O 	0.18470 0.58490 0.03880 -0.51000
O 	O 	0.07920 0.49850 0.21730 -0.50700
O 	O 	0.65250 0.89590 0.03120 -0.56700
O 	O 	0.35360 0.80460 0.08750 -0.73700
H 	H 	0.38940 0.72090 0.13180 0.28100
H 	H 	0.38670 0.79280 0.00620 0.24600
C 	C 	0.51830 0.75560 0.42470 0.49700
C 	C 	0.25000 0.61830 0.66670 0.50000
C 	C 	0.76450 0.76740 0.02770 0.44900
C 	C 	0.17350 0.55640 0.16630 0.49600
K 	K 	0.50000 0.50000 -0.00000 0.62800
K 	K 	-0.00000 0.50000 0.50000 0.64000
