data_crystal

_cell_length_a 7.70860
_cell_length_b 11.40070
_cell_length_c 13.49900
_cell_angle_alpha 96.39500
_cell_angle_beta  105.61900
_cell_angle_gamma 99.33900

_symmetry_space_group_name_	'P 1'
_symmetry_space_group_name_H-M	'P 1'

loop_
_symmetry_equiv_pos_as_xyz
  x,y,z

loop_
_atom_site_label
_atom_site_type_symbol
_atom_site_fract_x
_atom_site_fract_y
_atom_site_fract_z
_atom_site_charge
V 	V 	0.85707 0.67711 0.97466 1.82100
V 	V 	0.79402 0.42040 0.85922 1.73900
V 	V 	0.14293 0.32289 0.02534 1.82300
V 	V 	0.20598 0.57960 0.14078 1.72500
Ni	Ni	0.50000 0.50000 1.00000 1.09800
Ni	Ni	-0.00000 0.00000 -0.00000 1.01500
H 	H 	0.09140 0.86720 0.82290 -0.03400
H 	H 	0.09560 0.87780 0.65470 0.07100
H 	H 	0.87020 0.17140 0.66760 0.05400
H 	H 	0.86330 0.14770 0.83380 -0.07000
H 	H 	0.95730 0.11170 0.51110 0.06800
H 	H 	0.65150 0.65450 0.21780 -0.01300
H 	H 	0.82050 0.64530 0.38410 0.04500
H 	H 	0.91590 0.32740 0.27470 0.05700
H 	H 	0.73550 0.34200 0.11250 0.00600
H 	H 	0.06140 0.40610 0.45740 -0.08200
H 	H 	0.90860 0.13280 0.17710 -0.01400
H 	H 	0.90440 0.12220 0.34530 0.08300
H 	H 	0.12980 0.82860 0.33240 0.05200
H 	H 	0.13670 0.85230 0.16620 -0.07300
H 	H 	0.04270 0.88830 0.48890 0.02900
H 	H 	0.34850 0.34550 0.78220 -0.05900
H 	H 	0.17950 0.35470 0.61590 0.09300
H 	H 	0.08410 0.67260 0.72530 0.10500
H 	H 	0.26450 0.65800 0.88750 -0.03100
H 	H 	0.93860 0.59390 0.54260 0.17300
C 	C 	0.04570 0.92856 0.79082 0.11100
C 	C 	0.04940 0.93448 0.68963 -0.14200
C 	C 	0.98280 0.02681 0.64043 0.07900
C 	C 	0.91440 0.10815 0.69705 -0.18000
C 	C 	0.91280 0.09417 0.79773 0.07000
C 	C 	0.98300 0.04053 0.53358 -0.16000
C 	C 	0.70230 0.58693 0.22992 0.00500
C 	C 	0.80530 0.58242 0.33037 -0.09200
C 	C 	0.88640 0.48297 0.35076 -0.04300
C 	C 	0.86070 0.39367 0.26571 -0.09200
C 	C 	0.75280 0.40355 0.16766 0.01500
C 	C 	0.99460 0.46727 0.45471 0.19500
C 	C 	0.95430 0.07144 0.20918 0.05200
C 	C 	0.95060 0.06552 0.31037 -0.20900
C 	C 	0.01720 0.97319 0.35957 0.12500
C 	C 	0.08560 0.89185 0.30295 -0.18100
C 	C 	0.08720 0.90583 0.20227 0.08600
C 	C 	0.01700 0.95947 0.46642 -0.03200
C 	C 	0.29770 0.41307 0.77008 0.08700
C 	C 	0.19470 0.41758 0.66963 -0.26600
C 	C 	0.11360 0.51703 0.64924 0.21600
C 	C 	0.13930 0.60633 0.73429 -0.26500
C 	C 	0.24720 0.59645 0.83234 0.09700
C 	C 	0.00540 0.53273 0.54529 -0.39300
N 	N 	0.97940 0.00687 0.84495 -0.28300
N 	N 	0.67236 0.49793 0.14906 -0.22000
N 	N 	0.02060 0.99313 0.15505 -0.22800
N 	N 	0.32764 0.50207 0.85094 -0.25800
O 	O 	0.65299 0.40436 0.93245 -0.77000
O 	O 	0.64692 0.66458 0.98910 -0.68600
O 	O 	0.99959 0.63170 0.08418 -0.83700
O 	O 	0.94085 0.81669 0.96700 -0.69600
O 	O 	0.84751 0.58034 0.85778 -0.82700
O 	O 	0.34701 0.59564 0.06755 -0.75600
O 	O 	0.35308 0.33542 0.01090 -0.68500
O 	O 	0.00041 0.36830 0.91582 -0.90700
O 	O 	0.05915 0.18331 0.03300 -0.75600
O 	O 	0.15249 0.41966 0.14222 -0.85500
