data_crystal

_cell_length_a 7.66640
_cell_length_b 15.48100
_cell_length_c 31.95100
_cell_angle_alpha 90.00000
_cell_angle_beta  90.00000
_cell_angle_gamma 90.00000

_symmetry_space_group_name_	'P 1'
_symmetry_space_group_name_H-M	'P 1'

loop_
_symmetry_equiv_pos_as_xyz
  x,y,z

loop_
_atom_site_label
_atom_site_type_symbol
_atom_site_fract_x
_atom_site_fract_y
_atom_site_fract_z
_atom_site_charge
Cu	Cu	0.91440 0.67428 0.56174 0.76500
Cu	Cu	0.07810 0.53052 0.53411 0.75900
Cu	Cu	0.74910 0.62632 0.77089 0.89200
Cu	Cu	0.58560 0.17428 0.93826 0.76600
Cu	Cu	0.42190 0.03052 0.96589 0.76000
Cu	Cu	0.75090 0.12632 0.72911 0.89200
Cu	Cu	0.08560 0.82572 0.56174 0.76600
Cu	Cu	0.92190 0.96948 0.53411 0.76000
Cu	Cu	0.25090 0.87368 0.77089 0.89200
Cu	Cu	0.41440 0.32572 0.93826 0.76600
Cu	Cu	0.57810 0.46948 0.96589 0.76000
Cu	Cu	0.24910 0.37368 0.72911 0.89200
Cu	Cu	0.08560 0.32572 0.43826 0.76600
Cu	Cu	0.92190 0.46948 0.46589 0.76000
Cu	Cu	0.25090 0.37368 0.22911 0.89200
Cu	Cu	0.41440 0.82572 0.06174 0.76600
Cu	Cu	0.57810 0.96948 0.03411 0.76000
Cu	Cu	0.24910 0.87368 0.27089 0.89200
Cu	Cu	0.91440 0.17428 0.43826 0.76600
Cu	Cu	0.07810 0.03052 0.46589 0.76000
Cu	Cu	0.74910 0.12632 0.22911 0.89200
Cu	Cu	0.58560 0.67428 0.06174 0.76600
Cu	Cu	0.42190 0.53052 0.03411 0.76000
Cu	Cu	0.75090 0.62632 0.27089 0.89200
H 	H 	0.41710 0.60620 0.82920 0.03600
H 	H 	0.37370 0.55480 0.89570 0.03000
H 	H 	0.61570 0.65540 0.62530 0.03100
H 	H 	0.11990 0.64120 0.64120 0.02800
H 	H 	0.08470 0.62690 0.71100 0.04200
H 	H 	0.87500 0.51130 0.90580 0.03300
H 	H 	0.08290 0.10620 0.67080 0.03400
H 	H 	0.12630 0.05480 0.60430 0.03100
H 	H 	0.88430 0.15540 0.87470 0.03100
H 	H 	0.38010 0.14120 0.85880 0.02900
H 	H 	0.41530 0.12690 0.78900 0.04100
H 	H 	0.62500 0.01130 0.59420 0.03400
H 	H 	0.58290 0.89380 0.82920 0.03600
H 	H 	0.62630 0.94520 0.89570 0.03000
H 	H 	0.38430 0.84460 0.62530 0.03200
H 	H 	0.88010 0.85880 0.64120 0.03000
H 	H 	0.91530 0.87310 0.71100 0.03900
H 	H 	0.12500 0.98870 0.90580 0.03400
H 	H 	0.91710 0.39380 0.67080 0.03700
H 	H 	0.87370 0.44520 0.60430 0.03000
H 	H 	0.11570 0.34460 0.87470 0.03100
H 	H 	0.61990 0.35880 0.85880 0.02900
H 	H 	0.58470 0.37310 0.78900 0.04100
H 	H 	0.37500 0.48870 0.59420 0.03400
H 	H 	0.58290 0.39380 0.17080 0.03600
H 	H 	0.62630 0.44520 0.10430 0.03000
H 	H 	0.38430 0.34460 0.37470 0.03100
H 	H 	0.88010 0.35880 0.35880 0.02800
H 	H 	0.91530 0.37310 0.28900 0.04200
H 	H 	0.12500 0.48870 0.09420 0.03300
H 	H 	0.91710 0.89380 0.32920 0.03400
H 	H 	0.87370 0.94520 0.39570 0.03100
H 	H 	0.11570 0.84460 0.12530 0.03100
H 	H 	0.61990 0.85880 0.14120 0.02900
H 	H 	0.58470 0.87310 0.21100 0.04100
H 	H 	0.37500 0.98870 0.40580 0.03400
H 	H 	0.41710 0.10620 0.17080 0.03600
H 	H 	0.37370 0.05480 0.10430 0.03000
H 	H 	0.61570 0.15540 0.37470 0.03200
H 	H 	0.11990 0.14120 0.35880 0.03000
H 	H 	0.08470 0.12690 0.28900 0.03900
H 	H 	0.87500 0.01130 0.09420 0.03400
H 	H 	0.08290 0.60620 0.32920 0.03700
H 	H 	0.12630 0.55480 0.39570 0.03000
H 	H 	0.88430 0.65540 0.12530 0.03100
H 	H 	0.38010 0.64120 0.14120 0.02900
H 	H 	0.41530 0.62690 0.21100 0.04100
H 	H 	0.62500 0.51130 0.40580 0.03400
C 	C 	0.51200 0.58680 0.84470 0.02000
C 	C 	0.51500 0.64020 0.70570 0.29900
C 	C 	0.97900 0.56890 0.82970 0.29800
C 	C 	0.48600 0.55720 0.88480 -0.01800
C 	C 	0.68930 0.64050 0.68530 -0.04600
C 	C 	0.71300 0.65050 0.64260 0.05200
C 	C 	0.00700 0.64240 0.65210 0.00100
C 	C 	0.98700 0.63300 0.69390 0.01600
C 	C 	0.78010 0.53300 0.89110 0.03300
C 	C 	0.80430 0.56540 0.85190 -0.04700
C 	C 	0.98800 0.08680 0.65530 0.02500
C 	C 	0.98500 0.14020 0.79430 0.30000
C 	C 	0.52100 0.06890 0.67030 0.29800
C 	C 	0.01400 0.05720 0.61520 -0.02100
C 	C 	0.81070 0.14050 0.81470 -0.04600
C 	C 	0.78700 0.15050 0.85740 0.05200
C 	C 	0.49300 0.14240 0.84790 -0.00100
C 	C 	0.51300 0.13300 0.80610 0.01700
C 	C 	0.71990 0.03300 0.60890 0.03300
C 	C 	0.69570 0.06540 0.64810 -0.04700
C 	C 	0.48800 0.91320 0.84470 0.02000
C 	C 	0.48500 0.85980 0.70570 0.29900
C 	C 	0.02100 0.93110 0.82970 0.29900
C 	C 	0.51400 0.94280 0.88480 -0.01800
C 	C 	0.31070 0.85950 0.68530 -0.04500
C 	C 	0.28700 0.84950 0.64260 0.05200
C 	C 	0.99300 0.85760 0.65210 -0.00400
C 	C 	0.01300 0.86700 0.69390 0.02100
C 	C 	0.21990 0.96700 0.89110 0.03300
C 	C 	0.19570 0.93460 0.85190 -0.04700
C 	C 	0.01200 0.41320 0.65530 0.02000
C 	C 	0.01500 0.35980 0.79430 0.29800
C 	C 	0.47900 0.43110 0.67030 0.29800
C 	C 	0.98600 0.44280 0.61520 -0.01700
C 	C 	0.18930 0.35950 0.81470 -0.04600
C 	C 	0.21300 0.34950 0.85740 0.05200
C 	C 	0.50700 0.35760 0.84790 -0.00100
C 	C 	0.48700 0.36700 0.80610 0.01700
C 	C 	0.28010 0.46700 0.60890 0.03300
C 	C 	0.30430 0.43460 0.64810 -0.04700
C 	C 	0.48800 0.41320 0.15530 0.02000
C 	C 	0.48500 0.35980 0.29430 0.29900
C 	C 	0.02100 0.43110 0.17030 0.29800
C 	C 	0.51400 0.44280 0.11520 -0.01800
C 	C 	0.31070 0.35950 0.31470 -0.04600
C 	C 	0.28700 0.34950 0.35740 0.05200
C 	C 	0.99300 0.35760 0.34790 0.00100
C 	C 	0.01300 0.36700 0.30610 0.01600
C 	C 	0.21990 0.46700 0.10890 0.03300
C 	C 	0.19570 0.43460 0.14810 -0.04700
C 	C 	0.01200 0.91320 0.34470 0.02500
C 	C 	0.01500 0.85980 0.20570 0.30000
C 	C 	0.47900 0.93110 0.32970 0.29800
C 	C 	0.98600 0.94280 0.38480 -0.02100
C 	C 	0.18930 0.85950 0.18530 -0.04600
C 	C 	0.21300 0.84950 0.14260 0.05200
C 	C 	0.50700 0.85760 0.15210 -0.00100
C 	C 	0.48700 0.86700 0.19390 0.01700
C 	C 	0.28010 0.96700 0.39110 0.03300
C 	C 	0.30430 0.93460 0.35190 -0.04700
C 	C 	0.51200 0.08680 0.15530 0.02000
C 	C 	0.51500 0.14020 0.29430 0.29900
C 	C 	0.97900 0.06890 0.17030 0.29900
C 	C 	0.48600 0.05720 0.11520 -0.01800
C 	C 	0.68930 0.14050 0.31470 -0.04500
C 	C 	0.71300 0.15050 0.35740 0.05200
C 	C 	0.00700 0.14240 0.34790 -0.00400
C 	C 	0.98700 0.13300 0.30610 0.02100
C 	C 	0.78010 0.03300 0.10890 0.03300
C 	C 	0.80430 0.06540 0.14810 -0.04700
C 	C 	0.98800 0.58680 0.34470 0.02000
C 	C 	0.98500 0.64020 0.20570 0.29800
C 	C 	0.52100 0.56890 0.32970 0.29800
C 	C 	0.01400 0.55720 0.38480 -0.01700
C 	C 	0.81070 0.64050 0.18530 -0.04600
C 	C 	0.78700 0.65050 0.14260 0.05200
C 	C 	0.49300 0.64240 0.15210 -0.00100
C 	C 	0.51300 0.63300 0.19390 0.01700
C 	C 	0.71990 0.53300 0.39110 0.03300
C 	C 	0.69570 0.56540 0.35190 -0.04700
I 	I 	0.73781 0.55035 0.52329 -0.57100
I 	I 	0.74438 0.82096 0.54777 -0.56200
I 	I 	0.76219 0.05035 0.97671 -0.57200
I 	I 	0.75562 0.32096 0.95223 -0.56200
I 	I 	0.26219 0.94965 0.52329 -0.57000
I 	I 	0.25562 0.67904 0.54777 -0.56100
I 	I 	0.23781 0.44965 0.97671 -0.57200
I 	I 	0.24438 0.17904 0.95223 -0.56300
I 	I 	0.26219 0.44965 0.47671 -0.57100
I 	I 	0.25562 0.17904 0.45223 -0.56200
I 	I 	0.23781 0.94965 0.02329 -0.57200
I 	I 	0.24438 0.67904 0.04777 -0.56200
I 	I 	0.73781 0.05035 0.47671 -0.57000
I 	I 	0.74438 0.32096 0.45223 -0.56100
I 	I 	0.76219 0.55035 0.02329 -0.57200
I 	I 	0.75562 0.82096 0.04777 -0.56300
N 	N 	0.67050 0.58820 0.82760 -0.19300
N 	N 	0.82820 0.63250 0.71100 -0.18600
N 	N 	0.62150 0.53190 0.90860 -0.21700
N 	N 	0.87330 0.65340 0.62560 -0.21900
N 	N 	0.82950 0.08820 0.67240 -0.19400
N 	N 	0.67180 0.13250 0.78900 -0.18600
N 	N 	0.87850 0.03190 0.59140 -0.21600
N 	N 	0.62670 0.15340 0.87440 -0.21900
N 	N 	0.32950 0.91180 0.82760 -0.19300
N 	N 	0.17180 0.86750 0.71100 -0.18700
N 	N 	0.37850 0.96810 0.90860 -0.21700
N 	N 	0.12670 0.84660 0.62560 -0.21800
N 	N 	0.17050 0.41180 0.67240 -0.19300
N 	N 	0.32820 0.36750 0.78900 -0.18600
N 	N 	0.12150 0.46810 0.59140 -0.21700
N 	N 	0.37330 0.34660 0.87440 -0.21900
N 	N 	0.32950 0.41180 0.17240 -0.19300
N 	N 	0.17180 0.36750 0.28900 -0.18600
N 	N 	0.37850 0.46810 0.09140 -0.21700
N 	N 	0.12670 0.34660 0.37440 -0.21900
N 	N 	0.17050 0.91180 0.32760 -0.19400
N 	N 	0.32820 0.86750 0.21100 -0.18600
N 	N 	0.12150 0.96810 0.40860 -0.21600
N 	N 	0.37330 0.84660 0.12560 -0.21900
N 	N 	0.67050 0.08820 0.17240 -0.19300
N 	N 	0.82820 0.13250 0.28900 -0.18700
N 	N 	0.62150 0.03190 0.09140 -0.21700
N 	N 	0.87330 0.15340 0.37440 -0.21800
N 	N 	0.82950 0.58820 0.32760 -0.19300
N 	N 	0.67180 0.63250 0.21100 -0.18600
N 	N 	0.87850 0.53190 0.40860 -0.21700
N 	N 	0.62670 0.65340 0.12560 -0.21900
O 	O 	0.97770 0.60120 0.79300 -0.39300
O 	O 	0.51600 0.63370 0.74590 -0.38400
O 	O 	0.11100 0.54620 0.84890 -0.24900
O 	O 	0.38150 0.64640 0.68440 -0.25200
O 	O 	0.52230 0.10120 0.70700 -0.39300
O 	O 	0.98400 0.13370 0.75410 -0.38400
O 	O 	0.38900 0.04620 0.65110 -0.25000
O 	O 	0.11850 0.14640 0.81560 -0.25300
O 	O 	0.02230 0.89880 0.79300 -0.39300
O 	O 	0.48400 0.86630 0.74590 -0.38400
O 	O 	0.88900 0.95380 0.84890 -0.25100
O 	O 	0.61850 0.85360 0.68440 -0.25200
O 	O 	0.47770 0.39880 0.70700 -0.39300
O 	O 	0.01600 0.36630 0.75410 -0.38400
O 	O 	0.61100 0.45380 0.65110 -0.24900
O 	O 	0.88150 0.35360 0.81560 -0.25200
O 	O 	0.02230 0.39880 0.20700 -0.39300
O 	O 	0.48400 0.36630 0.25410 -0.38400
O 	O 	0.88900 0.45380 0.15110 -0.24900
O 	O 	0.61850 0.35360 0.31560 -0.25200
O 	O 	0.47770 0.89880 0.29300 -0.39300
O 	O 	0.01600 0.86630 0.24590 -0.38400
O 	O 	0.61100 0.95380 0.34890 -0.25000
O 	O 	0.88150 0.85360 0.18440 -0.25300
O 	O 	0.97770 0.10120 0.20700 -0.39300
O 	O 	0.51600 0.13370 0.25410 -0.38400
O 	O 	0.11100 0.04620 0.15110 -0.25100
O 	O 	0.38150 0.14640 0.31560 -0.25200
O 	O 	0.52230 0.60120 0.29300 -0.39300
O 	O 	0.98400 0.63370 0.24590 -0.38400
O 	O 	0.38900 0.54620 0.34890 -0.24900
O 	O 	0.11850 0.64640 0.18440 -0.25200
