data_crystal

_cell_length_a 7.90300
_cell_length_b 10.53790
_cell_length_c 32.85800
_cell_angle_alpha 90.00000
_cell_angle_beta  90.00000
_cell_angle_gamma 99.60700

_symmetry_space_group_name_	'P 1'
_symmetry_space_group_name_H-M	'P 1'

loop_
_symmetry_equiv_pos_as_xyz
  x,y,z

loop_
_atom_site_label
_atom_site_type_symbol
_atom_site_fract_x
_atom_site_fract_y
_atom_site_fract_z
_atom_site_charge
Co	Co	0.05326 0.48049 0.25018 1.11800
Co	Co	0.44674 0.51951 0.75018 1.14900
Co	Co	0.94674 0.51951 0.74982 1.16300
Co	Co	0.55326 0.48049 0.24982 1.15000
Co	Co	0.50000 0.50000 0.50000 1.14800
Co	Co	-0.00000 0.50000 -0.00000 1.11500
Co	Co	-0.00000 0.50000 0.50000 1.13000
Co	Co	0.50000 0.50000 -0.00000 1.14000
H 	H 	0.91380 0.06990 0.23840 0.09400
H 	H 	0.74350 0.87000 0.23890 0.04100
H 	H 	0.63890 0.91640 0.51050 0.05600
H 	H 	0.80370 0.11880 0.51000 0.05200
H 	H 	0.82850 0.54530 0.20590 0.38600
H 	H 	0.77370 0.41060 0.20870 0.37800
H 	H 	0.23150 0.43760 0.45690 0.36700
H 	H 	0.28080 0.57280 0.45700 0.37100
H 	H 	0.58620 0.93010 0.73840 0.05400
H 	H 	0.75650 0.13000 0.73890 0.05500
H 	H 	0.86110 0.08360 0.01050 0.03300
H 	H 	0.69630 0.88120 0.01000 0.02400
H 	H 	0.67150 0.45470 0.70590 0.38200
H 	H 	0.72630 0.58940 0.70870 0.37900
H 	H 	0.26850 0.56240 0.95690 0.36900
H 	H 	0.21920 0.42720 0.95700 0.37100
H 	H 	0.08620 0.93010 0.76160 0.03100
H 	H 	0.25650 0.13000 0.76110 0.05900
H 	H 	0.36110 0.08360 0.48950 0.04800
H 	H 	0.19630 0.88120 0.49000 0.04600
H 	H 	0.17150 0.45470 0.79410 0.37700
H 	H 	0.22630 0.58940 0.79130 0.37400
H 	H 	0.76850 0.56240 0.54310 0.37500
H 	H 	0.71920 0.42720 0.54300 0.37700
H 	H 	0.41380 0.06990 0.26160 0.04300
H 	H 	0.24350 0.87000 0.26110 0.05200
H 	H 	0.13890 0.91640 0.98950 0.08000
H 	H 	0.30370 0.11880 0.99000 0.07400
H 	H 	0.32850 0.54530 0.29410 0.37400
H 	H 	0.27370 0.41060 0.29130 0.36600
H 	H 	0.73150 0.43760 0.04310 0.37700
H 	H 	0.78080 0.57280 0.04300 0.38100
C 	C 	0.90760 0.10280 0.29894 0.05300
C 	C 	0.87040 0.03430 0.26291 -0.08500
C 	C 	0.76940 0.91380 0.26333 0.02900
C 	C 	0.70580 0.85700 0.29971 -0.08400
C 	C 	0.74670 0.92330 0.33628 0.02300
C 	C 	0.70140 0.85860 0.37567 0.12700
C 	C 	0.71870 0.93630 0.41366 0.00100
C 	C 	0.65150 0.88150 0.45018 -0.05600
C 	C 	0.68380 0.95170 0.48603 -0.02300
C 	C 	0.78210 0.07370 0.48570 -0.00600
C 	C 	0.84860 0.12910 0.44957 -0.07700
C 	C 	0.81430 0.06140 0.41313 0.00700
C 	C 	0.87070 0.12500 0.37384 0.14900
C 	C 	0.84440 0.04800 0.33577 -0.03800
C 	C 	0.01960 0.23390 0.29600 0.18300
C 	C 	0.59070 0.72700 0.29742 0.35700
C 	C 	0.54120 0.75030 0.45319 0.34500
C 	C 	0.96420 0.25820 0.45291 0.41900
C 	C 	0.59240 0.89720 0.79894 -0.05800
C 	C 	0.62960 0.96570 0.76291 -0.02100
C 	C 	0.73060 0.08620 0.76333 -0.01300
C 	C 	0.79420 0.14300 0.79971 -0.07100
C 	C 	0.75330 0.07670 0.83628 0.00700
C 	C 	0.79860 0.14140 0.87567 0.12900
C 	C 	0.78130 0.06370 0.91366 0.01000
C 	C 	0.84850 0.11850 0.95018 -0.07700
C 	C 	0.81620 0.04830 0.98603 0.02400
C 	C 	0.71790 0.92630 0.98570 0.01800
C 	C 	0.65140 0.87090 0.94957 -0.06700
C 	C 	0.68570 0.93860 0.91313 -0.00100
C 	C 	0.62930 0.87500 0.87384 0.13600
C 	C 	0.65560 0.95200 0.83577 -0.00400
C 	C 	0.48040 0.76610 0.79600 0.34900
C 	C 	0.90930 0.27300 0.79742 0.38900
C 	C 	0.95880 0.24970 0.95319 0.40400
C 	C 	0.53580 0.74180 0.95291 0.35200
C 	C 	0.09240 0.89720 0.70106 -0.11300
C 	C 	0.12960 0.96570 0.73709 0.01100
C 	C 	0.23060 0.08620 0.73667 -0.04600
C 	C 	0.29420 0.14300 0.70029 -0.05200
C 	C 	0.25330 0.07670 0.66372 -0.01400
C 	C 	0.29860 0.14140 0.62433 0.13300
C 	C 	0.28130 0.06370 0.58634 -0.00200
C 	C 	0.34850 0.11850 0.54982 -0.06400
C 	C 	0.31620 0.04830 0.51397 -0.01800
C 	C 	0.21790 0.92630 0.51430 -0.03600
C 	C 	0.15140 0.87090 0.55043 -0.05000
C 	C 	0.18570 0.93860 0.58687 -0.01100
C 	C 	0.12930 0.87500 0.62616 0.12700
C 	C 	0.15560 0.95200 0.66423 0.01300
C 	C 	0.98040 0.76610 0.70400 0.42600
C 	C 	0.40930 0.27300 0.70258 0.34300
C 	C 	0.45880 0.24970 0.54681 0.34400
C 	C 	0.03580 0.74180 0.54709 0.28700
C 	C 	0.40760 0.10280 0.20106 -0.07100
C 	C 	0.37040 0.03430 0.23709 -0.01000
C 	C 	0.26940 0.91380 0.23667 -0.04800
C 	C 	0.20580 0.85700 0.20029 -0.03900
C 	C 	0.24670 0.92330 0.16372 -0.02600
C 	C 	0.20140 0.85860 0.12433 0.13900
C 	C 	0.21870 0.93630 0.08634 -0.02400
C 	C 	0.15150 0.88150 0.04982 -0.03200
C 	C 	0.18380 0.95170 0.01397 -0.07700
C 	C 	0.28210 0.07370 0.01430 -0.05300
C 	C 	0.34860 0.12910 0.05043 -0.06200
C 	C 	0.31430 0.06140 0.08687 0.00200
C 	C 	0.37070 0.12500 0.12616 0.12600
C 	C 	0.34440 0.04800 0.16423 0.00500
C 	C 	0.51960 0.23390 0.20400 0.34900
C 	C 	0.09070 0.72700 0.20258 0.25600
C 	C 	0.04120 0.75030 0.04681 0.26200
C 	C 	0.46420 0.25820 0.04709 0.34100
O 	O 	0.66000 0.74160 0.37771 -0.18900
O 	O 	0.92880 0.23910 0.37254 -0.17600
O 	O 	0.94400 0.32240 0.28196 -0.34400
O 	O 	0.17380 0.24640 0.30451 -0.29200
O 	O 	0.66260 0.63790 0.28255 -0.43000
O 	O 	0.43720 0.71520 0.30666 -0.32100
O 	O 	0.39080 0.73460 0.44059 -0.32000
O 	O 	0.61110 0.66610 0.47179 -0.42600
O 	O 	0.11990 0.26580 0.44847 -0.37300
O 	O 	0.89050 0.35180 0.46405 -0.43300
O 	O 	0.80370 0.48080 0.22158 -0.96200
O 	O 	0.25240 0.50540 0.47135 -0.97000
O 	O 	0.84000 0.25840 0.87771 -0.18500
O 	O 	0.57120 0.76090 0.87254 -0.19400
O 	O 	0.55600 0.67760 0.78196 -0.43300
O 	O 	0.32620 0.75360 0.80451 -0.32200
O 	O 	0.83740 0.36210 0.78255 -0.43700
O 	O 	0.06280 0.28480 0.80666 -0.34500
O 	O 	0.10920 0.26540 0.94059 -0.35200
O 	O 	0.88890 0.33390 0.97179 -0.41400
O 	O 	0.38010 0.73420 0.94847 -0.31100
O 	O 	0.60950 0.64820 0.96405 -0.41800
O 	O 	0.69630 0.51920 0.72158 -0.97400
O 	O 	0.24760 0.49460 0.97135 -0.95400
O 	O 	0.34000 0.25840 0.62229 -0.19900
O 	O 	0.07120 0.76090 0.62746 -0.20700
O 	O 	0.05600 0.67760 0.71804 -0.47800
O 	O 	0.82620 0.75360 0.69549 -0.32800
O 	O 	0.33740 0.36210 0.71745 -0.43600
O 	O 	0.56280 0.28480 0.69334 -0.30600
O 	O 	0.60920 0.26540 0.55941 -0.30600
O 	O 	0.38890 0.33390 0.52821 -0.43500
O 	O 	0.88010 0.73420 0.55153 -0.26400
O 	O 	0.10950 0.64820 0.53595 -0.43000
O 	O 	0.19630 0.51920 0.77842 -0.97900
O 	O 	0.74760 0.49460 0.52865 -0.95700
O 	O 	0.16000 0.74160 0.12229 -0.21400
O 	O 	0.42880 0.23910 0.12746 -0.19600
O 	O 	0.44400 0.32240 0.21804 -0.44200
O 	O 	0.67380 0.24640 0.19549 -0.30900
O 	O 	0.16260 0.63790 0.21745 -0.42600
O 	O 	0.93720 0.71520 0.19334 -0.23700
O 	O 	0.89080 0.73460 0.05941 -0.25200
O 	O 	0.11110 0.66610 0.02821 -0.43200
O 	O 	0.61990 0.26580 0.05153 -0.30900
O 	O 	0.39050 0.35180 0.03595 -0.44600
O 	O 	0.30370 0.48080 0.27842 -0.97500
O 	O 	0.75240 0.50540 0.02865 -0.96700
