data_crystal

_cell_length_a 10.12730
_cell_length_b 15.38530
_cell_length_c 27.65490
_cell_angle_alpha 90.00000
_cell_angle_beta  92.72200
_cell_angle_gamma 90.00000

_symmetry_space_group_name_	'P 1'
_symmetry_space_group_name_H-M	'P 1'

loop_
_symmetry_equiv_pos_as_xyz
  x,y,z

loop_
_atom_site_label
_atom_site_type_symbol
_atom_site_fract_x
_atom_site_fract_y
_atom_site_fract_z
_atom_site_charge
Mn	Mn	0.39829 0.18929 0.24694 1.28400
Mn	Mn	0.96641 0.01192 0.24940 1.27900
O 	O 	0.16720 0.95622 0.25281 -0.46500
O 	O 	0.26360 0.08300 0.24664 -0.52700
O 	O 	0.08070 0.37437 0.24486 -0.46800
O 	O 	0.21410 0.26024 0.24790 -0.49100
O 	O 	0.58660 0.13180 0.24701 -0.69100
O 	O 	0.75850 0.04328 0.24739 -0.64400
N 	N 	0.40290 0.18915 0.33024 -0.24500
N 	N 	0.37900 0.30630 0.66387 -0.24200
N 	N 	0.97570 0.02030 0.33075 -0.25000
N 	N 	0.96620 0.99445 0.16827 -0.25000
C 	C 	0.26460 0.00450 0.25090 0.52200
H 	H 	0.34710 0.97780 0.25300 -0.14500
C 	C 	0.18820 0.33910 0.24748 0.53800
H 	H 	0.26080 0.37620 0.24940 -0.17200
C 	C 	0.65130 0.07230 0.24558 0.90100
H 	H 	0.59430 0.02540 0.24090 -0.25000
C 	C 	0.29190 0.19400 0.35444 0.10000
H 	H 	0.21160 0.18730 0.33710 -0.01300
C 	C 	0.51460 0.19610 0.35678 0.10300
H 	H 	0.59350 0.19060 0.34120 -0.02100
C 	C 	0.28960 0.20850 0.40341 -0.18100
H 	H 	0.20950 0.21180 0.41840 0.09200
C 	C 	0.52190 0.21100 0.40574 -0.19000
H 	H 	0.60390 0.21620 0.42210 0.09100
C 	C 	0.40870 0.21810 0.43041 0.12800
C 	C 	0.41980 0.23830 0.48289 -0.09200
H 	H 	0.50500 0.23750 0.49690 0.05900
C 	C 	0.32970 0.25640 0.51103 -0.08200
H 	H 	0.24340 0.25730 0.49790 0.05500
C 	C 	0.34970 0.27650 0.56352 0.12000
C 	C 	0.24210 0.28300 0.59180 -0.17800
H 	H 	0.15710 0.27830 0.57780 0.08700
C 	C 	0.47250 0.28920 0.58645 -0.17500
H 	H 	0.54820 0.28790 0.56870 0.08700
C 	C 	0.26040 0.29630 0.64072 0.09600
H 	H 	0.18580 0.29860 0.65900 -0.01000
C 	C 	0.48250 0.30400 0.63609 0.09300
H 	H 	0.56610 0.31270 0.65070 -0.01700
C 	C 	0.94560 0.09170 0.35480 0.10500
H 	H 	0.91840 0.14030 0.33700 -0.02800
C 	C 	0.01550 0.95210 0.35755 0.10100
H 	H 	0.03880 0.90160 0.34160 -0.00400
C 	C 	0.95220 0.09820 0.40439 -0.18500
H 	H 	0.92970 0.15000 0.41930 0.08600
C 	C 	0.02410 0.95220 0.40703 -0.18000
H 	H 	0.05080 0.90230 0.42380 0.08900
C 	C 	0.99280 0.02660 0.43209 0.12200
C 	C 	0.99710 0.03230 0.48532 -0.08900
H 	H 	0.99560 0.08760 0.49880 0.05600
C 	C 	0.99880 0.96850 0.01587 -0.09200
H 	H 	0.00640 0.91210 0.00410 0.05500
C 	C 	0.98530 0.97820 0.06803 0.14000
C 	C 	0.00420 0.90800 0.09906 -0.20100
H 	H 	0.02320 0.85340 0.08670 0.09200
C 	C 	0.95330 0.05600 0.08940 -0.19700
H 	H 	0.93770 0.10500 0.07030 0.09200
C 	C 	0.99480 0.91890 0.14759 0.12000
H 	H 	0.00930 0.87080 0.16750 -0.01100
C 	C 	0.94430 0.06140 0.13827 0.10800
H 	H 	0.92180 0.11460 0.15150 -0.03300
Mn	Mn	0.60171 0.68929 0.25306 1.28500
Mn	Mn	0.03359 0.51192 0.25060 1.28100
O 	O 	0.83280 0.45622 0.24719 -0.46400
O 	O 	0.73640 0.58300 0.25336 -0.52700
O 	O 	0.91930 0.87437 0.25514 -0.46600
O 	O 	0.78590 0.76024 0.25210 -0.49000
O 	O 	0.41340 0.63180 0.25299 -0.69000
O 	O 	0.24150 0.54328 0.25261 -0.64200
N 	N 	0.59710 0.68915 0.16976 -0.24400
N 	N 	0.62100 0.80630 0.83613 -0.24200
N 	N 	0.02430 0.52030 0.16925 -0.24800
N 	N 	0.03380 0.49445 0.33173 -0.24900
C 	C 	0.73540 0.50450 0.24910 0.52400
H 	H 	0.65290 0.47780 0.24700 -0.14400
C 	C 	0.81180 0.83910 0.25252 0.53900
H 	H 	0.73920 0.87620 0.25060 -0.17100
C 	C 	0.34870 0.57230 0.25442 0.90100
H 	H 	0.40570 0.52540 0.25910 -0.24800
C 	C 	0.70810 0.69400 0.14556 0.10100
H 	H 	0.78840 0.68730 0.16290 -0.01200
C 	C 	0.48540 0.69610 0.14322 0.10300
H 	H 	0.40650 0.69060 0.15880 -0.01900
C 	C 	0.71040 0.70850 0.09659 -0.18000
H 	H 	0.79050 0.71180 0.08160 0.09100
C 	C 	0.47810 0.71100 0.09426 -0.18800
H 	H 	0.39610 0.71620 0.07790 0.09100
C 	C 	0.59130 0.71810 0.06959 0.12600
C 	C 	0.58020 0.73830 0.01711 -0.08800
H 	H 	0.49500 0.73750 0.00310 0.05700
C 	C 	0.67030 0.75640 0.98897 -0.08700
H 	H 	0.75660 0.75730 0.00210 0.05700
C 	C 	0.65030 0.77650 0.93648 0.12200
C 	C 	0.75790 0.78300 0.90820 -0.18000
H 	H 	0.84290 0.77830 0.92220 0.08700
C 	C 	0.52750 0.78920 0.91355 -0.17600
H 	H 	0.45180 0.78790 0.93130 0.08800
C 	C 	0.73960 0.79630 0.85928 0.09700
H 	H 	0.81420 0.79860 0.84100 -0.01000
C 	C 	0.51750 0.80400 0.86391 0.09300
H 	H 	0.43390 0.81270 0.84930 -0.01700
C 	C 	0.05440 0.59170 0.14520 0.10500
H 	H 	0.08160 0.64030 0.16300 -0.02800
C 	C 	0.98450 0.45210 0.14245 0.10100
H 	H 	0.96120 0.40160 0.15840 -0.00400
C 	C 	0.04780 0.59820 0.09561 -0.18500
H 	H 	0.07030 0.65000 0.08070 0.08600
C 	C 	0.97590 0.45220 0.09297 -0.18000
H 	H 	0.94920 0.40230 0.07620 0.08900
C 	C 	0.00720 0.52660 0.06791 0.12300
C 	C 	0.00290 0.53230 0.01468 -0.08900
H 	H 	0.00440 0.58760 0.00120 0.05600
C 	C 	0.00120 0.46850 0.48413 -0.09200
H 	H 	0.99360 0.41210 0.49590 0.05600
C 	C 	0.01470 0.47820 0.43197 0.13100
C 	C 	0.99580 0.40800 0.40094 -0.19100
H 	H 	0.97680 0.35340 0.41330 0.08900
C 	C 	0.04670 0.55600 0.41060 -0.18900
H 	H 	0.06230 0.60500 0.42970 0.09000
C 	C 	0.00520 0.41890 0.35241 0.11200
H 	H 	0.99070 0.37080 0.33250 -0.00800
C 	C 	0.05570 0.56140 0.36173 0.10700
H 	H 	0.07820 0.61460 0.34850 -0.03300
Mn	Mn	0.60171 0.81071 0.75306 1.28500
Mn	Mn	0.03359 0.98808 0.75060 1.28000
O 	O 	0.83280 0.04378 0.74719 -0.46400
O 	O 	0.73640 0.91700 0.75336 -0.52600
O 	O 	0.91930 0.62563 0.75514 -0.46700
O 	O 	0.78590 0.73976 0.75210 -0.49000
O 	O 	0.41340 0.86820 0.75299 -0.69000
O 	O 	0.24150 0.95672 0.75261 -0.64300
N 	N 	0.59710 0.81085 0.66976 -0.24400
N 	N 	0.62100 0.69370 0.33613 -0.24100
N 	N 	0.02430 0.97970 0.66925 -0.24900
N 	N 	0.03380 0.00555 0.83173 -0.24900
C 	C 	0.73540 0.99550 0.74910 0.52300
H 	H 	0.65290 0.02220 0.74700 -0.14400
C 	C 	0.81180 0.66090 0.75252 0.53900
H 	H 	0.73920 0.62380 0.75060 -0.17100
C 	C 	0.34870 0.92770 0.75442 0.90200
H 	H 	0.40570 0.97460 0.75910 -0.24900
C 	C 	0.70810 0.80600 0.64556 0.10100
H 	H 	0.78840 0.81270 0.66290 -0.01200
C 	C 	0.48540 0.80390 0.64322 0.10400
H 	H 	0.40650 0.80940 0.65880 -0.02000
C 	C 	0.71040 0.79150 0.59659 -0.18100
H 	H 	0.79050 0.78820 0.58160 0.09200
C 	C 	0.47810 0.78900 0.59426 -0.19000
H 	H 	0.39610 0.78380 0.57790 0.09100
C 	C 	0.59130 0.78190 0.56959 0.12800
C 	C 	0.58020 0.76170 0.51711 -0.09200
H 	H 	0.49500 0.76250 0.50310 0.05900
C 	C 	0.67030 0.74360 0.48897 -0.08200
H 	H 	0.75660 0.74270 0.50210 0.05500
C 	C 	0.65030 0.72350 0.43648 0.12000
C 	C 	0.75790 0.71700 0.40820 -0.17800
H 	H 	0.84290 0.72170 0.42220 0.08700
C 	C 	0.52750 0.71080 0.41355 -0.17500
H 	H 	0.45180 0.71210 0.43130 0.08700
C 	C 	0.73960 0.70370 0.35928 0.09600
H 	H 	0.81420 0.70140 0.34100 -0.01000
C 	C 	0.51750 0.69600 0.36391 0.09300
H 	H 	0.43390 0.68730 0.34930 -0.01700
C 	C 	0.05440 0.90830 0.64520 0.10500
H 	H 	0.08160 0.85970 0.66300 -0.02800
C 	C 	0.98450 0.04790 0.64245 0.10100
H 	H 	0.96120 0.09840 0.65840 -0.00400
C 	C 	0.04780 0.90180 0.59561 -0.18500
H 	H 	0.07030 0.85000 0.58070 0.08600
C 	C 	0.97590 0.04780 0.59297 -0.18000
H 	H 	0.94920 0.09770 0.57620 0.08900
C 	C 	0.00720 0.97340 0.56791 0.12200
C 	C 	0.00290 0.96770 0.51468 -0.08900
H 	H 	0.00440 0.91240 0.50120 0.05600
C 	C 	0.00120 0.03150 0.98413 -0.09200
H 	H 	0.99360 0.08790 0.99590 0.05500
C 	C 	0.01470 0.02180 0.93197 0.14000
C 	C 	0.99580 0.09200 0.90094 -0.20100
H 	H 	0.97680 0.14660 0.91330 0.09200
C 	C 	0.04670 0.94400 0.91060 -0.19700
H 	H 	0.06230 0.89500 0.92970 0.09200
C 	C 	0.00520 0.08110 0.85241 0.12000
H 	H 	0.99070 0.12920 0.83250 -0.01100
C 	C 	0.05570 0.93860 0.86173 0.10800
H 	H 	0.07820 0.88540 0.84850 -0.03300
Mn	Mn	0.39829 0.31071 0.74694 1.28500
Mn	Mn	0.96641 0.48808 0.74941 1.28100
O 	O 	0.16720 0.54378 0.75281 -0.46400
O 	O 	0.26360 0.41700 0.74664 -0.52700
O 	O 	0.08070 0.12563 0.74486 -0.46600
O 	O 	0.21410 0.23976 0.74790 -0.49000
O 	O 	0.58660 0.36820 0.74701 -0.69000
O 	O 	0.75850 0.45672 0.74739 -0.64200
N 	N 	0.40290 0.31085 0.83024 -0.24400
N 	N 	0.37900 0.19370 0.16387 -0.24200
N 	N 	0.97570 0.47970 0.83075 -0.24800
N 	N 	0.96620 0.50555 0.66827 -0.24900
C 	C 	0.26460 0.49550 0.75090 0.52400
H 	H 	0.34710 0.52220 0.75300 -0.14400
C 	C 	0.18820 0.16090 0.74748 0.53900
H 	H 	0.26080 0.12380 0.74940 -0.17100
C 	C 	0.65130 0.42770 0.74558 0.90100
H 	H 	0.59430 0.47460 0.74090 -0.24800
C 	C 	0.29190 0.30600 0.85444 0.10100
H 	H 	0.21160 0.31270 0.83710 -0.01200
C 	C 	0.51460 0.30390 0.85678 0.10300
H 	H 	0.59350 0.30940 0.84120 -0.01900
C 	C 	0.28960 0.29150 0.90341 -0.18000
H 	H 	0.20950 0.28820 0.91840 0.09100
C 	C 	0.52190 0.28900 0.90574 -0.18800
H 	H 	0.60390 0.28380 0.92210 0.09100
C 	C 	0.40870 0.28190 0.93041 0.12600
C 	C 	0.41980 0.26170 0.98289 -0.08800
H 	H 	0.50500 0.26250 0.99690 0.05700
C 	C 	0.32970 0.24360 0.01103 -0.08700
H 	H 	0.24340 0.24270 0.99790 0.05700
C 	C 	0.34970 0.22350 0.06352 0.12200
C 	C 	0.24210 0.21700 0.09180 -0.18000
H 	H 	0.15710 0.22170 0.07780 0.08700
C 	C 	0.47250 0.21080 0.08645 -0.17600
H 	H 	0.54820 0.21210 0.06870 0.08800
C 	C 	0.26040 0.20370 0.14072 0.09700
H 	H 	0.18580 0.20140 0.15900 -0.01000
C 	C 	0.48250 0.19600 0.13609 0.09300
H 	H 	0.56610 0.18730 0.15070 -0.01700
C 	C 	0.94560 0.40830 0.85480 0.10500
H 	H 	0.91840 0.35970 0.83700 -0.02800
C 	C 	0.01550 0.54790 0.85755 0.10100
H 	H 	0.03880 0.59840 0.84160 -0.00400
C 	C 	0.95220 0.40180 0.90439 -0.18500
H 	H 	0.92970 0.35000 0.91930 0.08600
C 	C 	0.02410 0.54780 0.90703 -0.18000
H 	H 	0.05080 0.59770 0.92380 0.08900
C 	C 	0.99280 0.47340 0.93209 0.12300
C 	C 	0.99710 0.46770 0.98532 -0.08900
H 	H 	0.99560 0.41240 0.99880 0.05600
C 	C 	0.99880 0.53150 0.51587 -0.09200
H 	H 	0.00640 0.58790 0.50410 0.05600
C 	C 	0.98530 0.52180 0.56803 0.13100
C 	C 	0.00420 0.59200 0.59906 -0.19100
H 	H 	0.02320 0.64660 0.58670 0.08900
C 	C 	0.95330 0.44400 0.58940 -0.18900
H 	H 	0.93770 0.39500 0.57030 0.09000
C 	C 	0.99480 0.58110 0.64759 0.11200
H 	H 	0.00930 0.62920 0.66750 -0.00800
C 	C 	0.94430 0.43860 0.63827 0.10700
H 	H 	0.92180 0.38540 0.65150 -0.03300
