data_crystal

_cell_length_a 12.94600
_cell_length_b 23.74600
_cell_length_c 15.95700
_cell_angle_alpha 90.00000
_cell_angle_beta  90.00000
_cell_angle_gamma 90.00000

_symmetry_space_group_name_	'P 1'
_symmetry_space_group_name_H-M	'P 1'

loop_
_symmetry_equiv_pos_as_xyz
  x,y,z

loop_
_atom_site_label
_atom_site_type_symbol
_atom_site_fract_x
_atom_site_fract_y
_atom_site_fract_z
_atom_site_charge
Mn	Mn	0.78770 0.47717 0.88683 1.20500
Mn	Mn	0.89383 0.73095 0.00940 1.21600
Mn	Mn	0.71230 0.02283 0.38683 1.20500
Mn	Mn	0.60617 0.76905 0.50940 1.21800
Mn	Mn	0.78770 0.52283 0.61317 1.20500
Mn	Mn	0.89383 0.26905 0.49060 1.21800
Mn	Mn	0.71230 0.97717 0.11317 1.20400
Mn	Mn	0.60617 0.23095 0.99060 1.21700
Mn	Mn	0.21230 0.52283 0.11317 1.20500
Mn	Mn	0.10617 0.26905 0.99060 1.21600
Mn	Mn	0.28770 0.97717 0.61317 1.20500
Mn	Mn	0.39383 0.23095 0.49060 1.21800
Mn	Mn	0.21230 0.47717 0.38683 1.20500
Mn	Mn	0.10617 0.73095 0.50940 1.21800
Mn	Mn	0.28770 0.02283 0.88683 1.20400
Mn	Mn	0.39383 0.76905 0.00940 1.21700
H 	H 	0.88480 0.20080 0.00460 -0.03400
H 	H 	0.39330 0.44640 0.91160 0.07700
H 	H 	0.33380 0.53440 0.87050 -0.00400
H 	H 	0.45170 0.60180 0.82690 0.06500
H 	H 	0.62450 0.58070 0.82890 -0.01700
H 	H 	0.87660 0.64670 0.67980 -0.02100
H 	H 	0.81040 0.57960 0.23070 0.06800
H 	H 	0.82730 0.63200 0.35190 -0.00800
H 	H 	0.86920 0.72610 0.34230 0.06100
H 	H 	0.89800 0.76500 0.21360 -0.02000
H 	H 	0.61520 0.29920 0.50460 -0.03300
H 	H 	0.10670 0.05360 0.41160 0.07700
H 	H 	0.16620 0.96560 0.37050 -0.00100
H 	H 	0.04830 0.89820 0.32690 0.06500
H 	H 	0.87550 0.91930 0.32890 -0.01500
H 	H 	0.62340 0.85330 0.17980 -0.02000
H 	H 	0.68960 0.92040 0.73070 0.06800
H 	H 	0.67270 0.86800 0.85190 -0.00700
H 	H 	0.63080 0.77390 0.84230 0.06200
H 	H 	0.60200 0.73500 0.71360 -0.02000
H 	H 	0.88480 0.79920 0.49540 -0.03300
H 	H 	0.39330 0.55360 0.58840 0.07800
H 	H 	0.33380 0.46560 0.62950 -0.00300
H 	H 	0.45170 0.39820 0.67310 0.06600
H 	H 	0.62450 0.41930 0.67110 -0.01600
H 	H 	0.87660 0.35330 0.82020 -0.02000
H 	H 	0.81040 0.42040 0.26930 0.06800
H 	H 	0.82730 0.36800 0.14810 -0.00800
H 	H 	0.86920 0.27390 0.15770 0.06100
H 	H 	0.89800 0.23500 0.28640 -0.02000
H 	H 	0.61520 0.70080 0.99540 -0.03000
H 	H 	0.10670 0.94640 0.08840 0.07800
H 	H 	0.16620 0.03440 0.12950 -0.00200
H 	H 	0.04830 0.10180 0.17310 0.06500
H 	H 	0.87550 0.08070 0.17110 -0.01500
H 	H 	0.62340 0.14670 0.32020 -0.02000
H 	H 	0.68960 0.07960 0.76930 0.06800
H 	H 	0.67270 0.13200 0.64810 -0.00700
H 	H 	0.63080 0.22610 0.65770 0.06100
H 	H 	0.60200 0.26500 0.78640 -0.02000
H 	H 	0.11520 0.79920 0.99540 -0.03300
H 	H 	0.60670 0.55360 0.08840 0.07800
H 	H 	0.66620 0.46560 0.12950 -0.00300
H 	H 	0.54830 0.39820 0.17310 0.06600
H 	H 	0.37550 0.41930 0.17110 -0.01600
H 	H 	0.12340 0.35330 0.32020 -0.02000
H 	H 	0.18960 0.42040 0.76930 0.06800
H 	H 	0.17270 0.36800 0.64810 -0.00800
H 	H 	0.13080 0.27390 0.65770 0.06100
H 	H 	0.10200 0.23500 0.78640 -0.02000
H 	H 	0.38480 0.70080 0.49540 -0.03300
H 	H 	0.89330 0.94640 0.58840 0.07700
H 	H 	0.83380 0.03440 0.62950 -0.00100
H 	H 	0.95170 0.10180 0.67310 0.06500
H 	H 	0.12450 0.08070 0.67110 -0.01500
H 	H 	0.37660 0.14670 0.82020 -0.02000
H 	H 	0.31040 0.07960 0.26930 0.06800
H 	H 	0.32730 0.13200 0.14810 -0.00700
H 	H 	0.36920 0.22610 0.15770 0.06200
H 	H 	0.39800 0.26500 0.28640 -0.02000
H 	H 	0.11520 0.20080 0.50460 -0.03300
H 	H 	0.60670 0.44640 0.41160 0.07800
H 	H 	0.66620 0.53440 0.37050 -0.00300
H 	H 	0.54830 0.60180 0.32690 0.06600
H 	H 	0.37550 0.58070 0.32890 -0.01600
H 	H 	0.12340 0.64670 0.17980 -0.02000
H 	H 	0.18960 0.57960 0.73070 0.06800
H 	H 	0.17270 0.63200 0.85190 -0.00800
H 	H 	0.13080 0.72610 0.84230 0.06100
H 	H 	0.10200 0.76500 0.71360 -0.02000
H 	H 	0.38480 0.29920 0.00460 -0.03000
H 	H 	0.89330 0.05360 0.91160 0.07800
H 	H 	0.83380 0.96560 0.87050 -0.00200
H 	H 	0.95170 0.89820 0.82690 0.06500
H 	H 	0.12450 0.91930 0.82890 -0.01500
H 	H 	0.37660 0.85330 0.67980 -0.02000
H 	H 	0.31040 0.92040 0.23070 0.06800
H 	H 	0.32730 0.86800 0.35190 -0.00700
H 	H 	0.36920 0.77390 0.34230 0.06100
H 	H 	0.39800 0.73500 0.21360 -0.02000
C 	C 	0.86870 0.23833 0.99410 0.09600
C 	C 	0.78730 0.31334 0.97180 0.03700
C 	C 	0.69690 0.34859 0.95500 0.05500
C 	C 	0.58870 0.41005 0.92150 0.05600
C 	C 	0.54510 0.46411 0.89520 0.05200
C 	C 	0.43950 0.47432 0.89510 -0.12600
C 	C 	0.40410 0.52644 0.87010 0.05000
C 	C 	0.47400 0.56651 0.84470 -0.13300
C 	C 	0.57750 0.55343 0.84610 0.07000
C 	C 	0.86310 0.62546 0.72750 0.08700
C 	C 	0.84500 0.60140 0.85150 0.03400
C 	C 	0.83740 0.59851 0.94250 0.05600
C 	C 	0.83580 0.61311 0.07120 0.04700
C 	C 	0.84540 0.64293 0.15190 0.04900
C 	C 	0.82830 0.61750 0.22800 -0.13400
C 	C 	0.83800 0.64860 0.29980 0.05400
C 	C 	0.86340 0.70420 0.29430 -0.15500
C 	C 	0.88010 0.72720 0.21700 0.07700
C 	C 	0.63130 0.26167 0.49410 0.09600
C 	C 	0.71270 0.18666 0.47180 0.03700
C 	C 	0.80310 0.15141 0.45500 0.05500
C 	C 	0.91130 0.08995 0.42150 0.05600
C 	C 	0.95490 0.03589 0.39520 0.05100
C 	C 	0.06050 0.02568 0.39510 -0.12200
C 	C 	0.09590 0.97356 0.37010 0.04600
C 	C 	0.02600 0.93349 0.34470 -0.13000
C 	C 	0.92250 0.94657 0.34610 0.06700
C 	C 	0.63690 0.87454 0.22750 0.08700
C 	C 	0.65500 0.89860 0.35150 0.03400
C 	C 	0.66260 0.90149 0.44250 0.05500
C 	C 	0.66420 0.88689 0.57120 0.05000
C 	C 	0.65460 0.85707 0.65190 0.04900
C 	C 	0.67170 0.88250 0.72800 -0.13300
C 	C 	0.66200 0.85140 0.79980 0.05400
C 	C 	0.63660 0.79580 0.79430 -0.15500
C 	C 	0.61990 0.77280 0.71700 0.07700
C 	C 	0.86870 0.76167 0.50590 0.09600
C 	C 	0.78730 0.68666 0.52820 0.03700
C 	C 	0.69690 0.65141 0.54500 0.05500
C 	C 	0.58870 0.58995 0.57850 0.05600
C 	C 	0.54510 0.53589 0.60480 0.05200
C 	C 	0.43950 0.52568 0.60490 -0.12600
C 	C 	0.40410 0.47356 0.62990 0.05000
C 	C 	0.47400 0.43349 0.65530 -0.13300
C 	C 	0.57750 0.44657 0.65390 0.07000
C 	C 	0.86310 0.37454 0.77250 0.08700
C 	C 	0.84500 0.39860 0.64850 0.03400
C 	C 	0.83740 0.40149 0.55750 0.05500
C 	C 	0.83580 0.38689 0.42880 0.04900
C 	C 	0.84540 0.35707 0.34810 0.04800
C 	C 	0.82830 0.38250 0.27200 -0.13400
C 	C 	0.83800 0.35140 0.20020 0.05300
C 	C 	0.86340 0.29580 0.20570 -0.15500
C 	C 	0.88010 0.27280 0.28300 0.07700
C 	C 	0.63130 0.73833 0.00590 0.09200
C 	C 	0.71270 0.81334 0.02820 0.03600
C 	C 	0.80310 0.84859 0.04500 0.05500
C 	C 	0.91130 0.91005 0.07850 0.05600
C 	C 	0.95490 0.96411 0.10480 0.04700
C 	C 	0.06050 0.97432 0.10490 -0.12500
C 	C 	0.09590 0.02644 0.12990 0.05200
C 	C 	0.02600 0.06651 0.15530 -0.13000
C 	C 	0.92250 0.05343 0.15390 0.06700
C 	C 	0.63690 0.12546 0.27250 0.08700
C 	C 	0.65500 0.10140 0.14850 0.03400
C 	C 	0.66260 0.09851 0.05750 0.05600
C 	C 	0.66420 0.11311 0.92880 0.04800
C 	C 	0.65460 0.14293 0.84810 0.04900
C 	C 	0.67170 0.11750 0.77200 -0.13400
C 	C 	0.66200 0.14860 0.70020 0.05400
C 	C 	0.63660 0.20420 0.70570 -0.15500
C 	C 	0.61990 0.22720 0.78300 0.07700
C 	C 	0.13130 0.76167 0.00590 0.09600
C 	C 	0.21270 0.68666 0.02820 0.03700
C 	C 	0.30310 0.65141 0.04500 0.05500
C 	C 	0.41130 0.58995 0.07850 0.05600
C 	C 	0.45490 0.53589 0.10480 0.05200
C 	C 	0.56050 0.52568 0.10490 -0.12600
C 	C 	0.59590 0.47356 0.12990 0.05000
C 	C 	0.52600 0.43349 0.15530 -0.13300
C 	C 	0.42250 0.44657 0.15390 0.07000
C 	C 	0.13690 0.37454 0.27250 0.08700
C 	C 	0.15500 0.39860 0.14850 0.03400
C 	C 	0.16260 0.40149 0.05750 0.05600
C 	C 	0.16420 0.38689 0.92880 0.04700
C 	C 	0.15460 0.35707 0.84810 0.04900
C 	C 	0.17170 0.38250 0.77200 -0.13400
C 	C 	0.16200 0.35140 0.70020 0.05400
C 	C 	0.13660 0.29580 0.70570 -0.15500
C 	C 	0.11990 0.27280 0.78300 0.07700
C 	C 	0.36870 0.73833 0.50590 0.09600
C 	C 	0.28730 0.81334 0.52820 0.03700
C 	C 	0.19690 0.84859 0.54500 0.05500
C 	C 	0.08870 0.91005 0.57850 0.05600
C 	C 	0.04510 0.96411 0.60480 0.05100
C 	C 	0.93950 0.97432 0.60490 -0.12200
C 	C 	0.90410 0.02644 0.62990 0.04600
C 	C 	0.97400 0.06651 0.65530 -0.13000
C 	C 	0.07750 0.05343 0.65390 0.06700
C 	C 	0.36310 0.12546 0.77250 0.08700
C 	C 	0.34500 0.10140 0.64850 0.03400
C 	C 	0.33740 0.09851 0.55750 0.05500
C 	C 	0.33580 0.11311 0.42880 0.05000
C 	C 	0.34540 0.14293 0.34810 0.04900
C 	C 	0.32830 0.11750 0.27200 -0.13300
C 	C 	0.33800 0.14860 0.20020 0.05400
C 	C 	0.36340 0.20420 0.20570 -0.15500
C 	C 	0.38010 0.22720 0.28300 0.07700
C 	C 	0.13130 0.23833 0.49410 0.09600
C 	C 	0.21270 0.31334 0.47180 0.03700
C 	C 	0.30310 0.34859 0.45500 0.05500
C 	C 	0.41130 0.41005 0.42150 0.05600
C 	C 	0.45490 0.46411 0.39520 0.05200
C 	C 	0.56050 0.47432 0.39510 -0.12600
C 	C 	0.59590 0.52644 0.37010 0.05000
C 	C 	0.52600 0.56651 0.34470 -0.13300
C 	C 	0.42250 0.55343 0.34610 0.07000
C 	C 	0.13690 0.62546 0.22750 0.08700
C 	C 	0.15500 0.60140 0.35150 0.03400
C 	C 	0.16260 0.59851 0.44250 0.05500
C 	C 	0.16420 0.61311 0.57120 0.04900
C 	C 	0.15460 0.64293 0.65190 0.04800
C 	C 	0.17170 0.61750 0.72800 -0.13400
C 	C 	0.16200 0.64860 0.79980 0.05300
C 	C 	0.13660 0.70420 0.79430 -0.15500
C 	C 	0.11990 0.72720 0.71700 0.07700
C 	C 	0.36870 0.26167 0.99410 0.09200
C 	C 	0.28730 0.18666 0.97180 0.03600
C 	C 	0.19690 0.15141 0.95500 0.05500
C 	C 	0.08870 0.08995 0.92150 0.05600
C 	C 	0.04510 0.03589 0.89520 0.04700
C 	C 	0.93950 0.02568 0.89510 -0.12500
C 	C 	0.90410 0.97356 0.87010 0.05200
C 	C 	0.97400 0.93349 0.84470 -0.13000
C 	C 	0.07750 0.94657 0.84610 0.06700
C 	C 	0.36310 0.87454 0.72750 0.08700
C 	C 	0.34500 0.89860 0.85150 0.03400
C 	C 	0.33740 0.90149 0.94250 0.05600
C 	C 	0.33580 0.88689 0.07120 0.04800
C 	C 	0.34540 0.85707 0.15190 0.04900
C 	C 	0.32830 0.88250 0.22800 -0.13400
C 	C 	0.33800 0.85140 0.29980 0.05400
C 	C 	0.36340 0.79580 0.29430 -0.15500
C 	C 	0.38010 0.77280 0.21700 0.07700
N 	N 	0.77200 0.25756 0.98687 -0.25600
N 	N 	0.88547 0.32790 0.97071 -0.12400
N 	N 	0.93927 0.27831 0.98488 -0.24200
N 	N 	0.69205 0.40339 0.93293 -0.25100
N 	N 	0.60420 0.32373 0.95710 -0.21600
N 	N 	0.53320 0.36400 0.93480 -0.10000
N 	N 	0.61420 0.50302 0.87130 -0.24000
N 	N 	0.86820 0.64705 0.80530 -0.15200
N 	N 	0.82680 0.55538 0.80703 -0.21800
N 	N 	0.83740 0.57148 0.72410 -0.24200
N 	N 	0.85360 0.64002 0.99731 -0.25000
N 	N 	0.81100 0.54979 0.97778 -0.22500
N 	N 	0.81060 0.55940 0.06288 -0.11300
N 	N 	0.87210 0.69756 0.14563 -0.23700
N 	N 	0.72800 0.24244 0.48687 -0.25600
N 	N 	0.61453 0.17210 0.47071 -0.12400
N 	N 	0.56073 0.22169 0.48488 -0.24200
N 	N 	0.80795 0.09661 0.43293 -0.25100
N 	N 	0.89580 0.17627 0.45710 -0.21600
N 	N 	0.96680 0.13600 0.43480 -0.10000
N 	N 	0.88580 0.99698 0.37130 -0.24000
N 	N 	0.63180 0.85295 0.30530 -0.15200
N 	N 	0.67320 0.94462 0.30703 -0.21900
N 	N 	0.66260 0.92852 0.22410 -0.24200
N 	N 	0.64640 0.85998 0.49731 -0.25200
N 	N 	0.68900 0.95021 0.47778 -0.22600
N 	N 	0.68940 0.94060 0.56288 -0.11200
N 	N 	0.62790 0.80244 0.64563 -0.23600
N 	N 	0.77200 0.74244 0.51313 -0.25600
N 	N 	0.88547 0.67210 0.52929 -0.12400
N 	N 	0.93927 0.72169 0.51512 -0.24300
N 	N 	0.69205 0.59661 0.56707 -0.25100
N 	N 	0.60420 0.67627 0.54290 -0.21600
N 	N 	0.53320 0.63600 0.56520 -0.10000
N 	N 	0.61420 0.49698 0.62870 -0.24000
N 	N 	0.86820 0.35295 0.69470 -0.15200
N 	N 	0.82680 0.44462 0.69297 -0.21800
N 	N 	0.83740 0.42852 0.77590 -0.24200
N 	N 	0.85360 0.35998 0.50269 -0.25200
N 	N 	0.81100 0.45021 0.52222 -0.22600
N 	N 	0.81060 0.44060 0.43712 -0.11200
N 	N 	0.87210 0.30244 0.35437 -0.23700
N 	N 	0.72800 0.75756 0.01313 -0.25600
N 	N 	0.61453 0.82790 0.02929 -0.12400
N 	N 	0.56073 0.77831 0.01512 -0.24200
N 	N 	0.80795 0.90339 0.06707 -0.25100
N 	N 	0.89580 0.82373 0.04290 -0.21700
N 	N 	0.96680 0.86400 0.06520 -0.10100
N 	N 	0.88580 0.00302 0.12870 -0.23700
N 	N 	0.63180 0.14705 0.19470 -0.15200
N 	N 	0.67320 0.05538 0.19297 -0.21800
N 	N 	0.66260 0.07148 0.27590 -0.24200
N 	N 	0.64640 0.14002 0.00269 -0.25100
N 	N 	0.68900 0.04979 0.02222 -0.22400
N 	N 	0.68940 0.05940 0.93712 -0.11300
N 	N 	0.62790 0.19756 0.85437 -0.23700
N 	N 	0.22800 0.74244 0.01313 -0.25600
N 	N 	0.11453 0.67210 0.02929 -0.12400
N 	N 	0.06073 0.72169 0.01512 -0.24200
N 	N 	0.30795 0.59661 0.06707 -0.25100
N 	N 	0.39580 0.67627 0.04290 -0.21600
N 	N 	0.46680 0.63600 0.06520 -0.10000
N 	N 	0.38580 0.49698 0.12870 -0.24000
N 	N 	0.13180 0.35295 0.19470 -0.15200
N 	N 	0.17320 0.44462 0.19297 -0.21800
N 	N 	0.16260 0.42852 0.27590 -0.24200
N 	N 	0.14640 0.35998 0.00269 -0.25000
N 	N 	0.18900 0.45021 0.02222 -0.22500
N 	N 	0.18940 0.44060 0.93712 -0.11300
N 	N 	0.12790 0.30244 0.85437 -0.23700
N 	N 	0.27200 0.75756 0.51313 -0.25600
N 	N 	0.38547 0.82790 0.52929 -0.12400
N 	N 	0.43927 0.77831 0.51512 -0.24200
N 	N 	0.19205 0.90339 0.56707 -0.25100
N 	N 	0.10420 0.82373 0.54290 -0.21600
N 	N 	0.03320 0.86400 0.56520 -0.10000
N 	N 	0.11420 0.00302 0.62870 -0.24000
N 	N 	0.36820 0.14705 0.69470 -0.15200
N 	N 	0.32680 0.05538 0.69297 -0.21900
N 	N 	0.33740 0.07148 0.77590 -0.24200
N 	N 	0.35360 0.14002 0.50269 -0.25200
N 	N 	0.31100 0.04979 0.52222 -0.22600
N 	N 	0.31060 0.05940 0.43712 -0.11200
N 	N 	0.37210 0.19756 0.35437 -0.23600
N 	N 	0.22800 0.25756 0.48687 -0.25600
N 	N 	0.11453 0.32790 0.47071 -0.12400
N 	N 	0.06073 0.27831 0.48488 -0.24300
N 	N 	0.30795 0.40339 0.43293 -0.25100
N 	N 	0.39580 0.32373 0.45710 -0.21600
N 	N 	0.46680 0.36400 0.43480 -0.10000
N 	N 	0.38580 0.50302 0.37130 -0.24000
N 	N 	0.13180 0.64705 0.30530 -0.15200
N 	N 	0.17320 0.55538 0.30703 -0.21800
N 	N 	0.16260 0.57148 0.22410 -0.24200
N 	N 	0.14640 0.64002 0.49731 -0.25200
N 	N 	0.18900 0.54979 0.47778 -0.22600
N 	N 	0.18940 0.55940 0.56288 -0.11200
N 	N 	0.12790 0.69756 0.64563 -0.23700
N 	N 	0.27200 0.24244 0.98687 -0.25600
N 	N 	0.38547 0.17210 0.97071 -0.12400
N 	N 	0.43927 0.22169 0.98488 -0.24200
N 	N 	0.19205 0.09661 0.93293 -0.25100
N 	N 	0.10420 0.17627 0.95710 -0.21700
N 	N 	0.03320 0.13600 0.93480 -0.10100
N 	N 	0.11420 0.99698 0.87130 -0.23700
N 	N 	0.36820 0.85295 0.80530 -0.15200
N 	N 	0.32680 0.94462 0.80703 -0.21800
N 	N 	0.33740 0.92852 0.72410 -0.24200
N 	N 	0.35360 0.85998 0.99731 -0.25100
N 	N 	0.31100 0.95021 0.97778 -0.22400
N 	N 	0.31060 0.94060 0.06288 -0.11300
N 	N 	0.37210 0.80244 0.14563 -0.23700
