data_crystal

_cell_length_a 10.61100
_cell_length_b 11.50330
_cell_length_c 20.69300
_cell_angle_alpha 90.00000
_cell_angle_beta  90.00000
_cell_angle_gamma 95.56720

_symmetry_space_group_name_	'P 1'
_symmetry_space_group_name_H-M	'P 1'

loop_
_symmetry_equiv_pos_as_xyz
  x,y,z

loop_
_atom_site_label
_atom_site_type_symbol
_atom_site_fract_x
_atom_site_fract_y
_atom_site_fract_z
_atom_site_charge
Ag	Ag	0.44913 0.27606 0.67352 0.47800
Ag	Ag	0.70614 0.49322 0.58591 0.48500
Ag	Ag	0.05087 0.22394 0.17352 0.47800
Ag	Ag	0.79386 0.00678 0.08591 0.48300
Ag	Ag	0.55087 0.72394 0.32648 0.47800
Ag	Ag	0.29386 0.50678 0.41409 0.48500
Ag	Ag	0.94913 0.77606 0.82648 0.47800
Ag	Ag	0.20614 0.99322 0.91409 0.48300
H 	H 	0.92060 0.41500 0.67570 -0.02900
H 	H 	0.72330 0.67080 0.72170 -0.03000
H 	H 	0.09940 0.45420 0.76870 0.02200
H 	H 	0.10530 0.57980 0.79880 -0.00100
H 	H 	0.34590 0.65670 0.55440 -0.02900
H 	H 	0.37100 0.32840 0.52440 -0.04600
H 	H 	0.50100 0.56980 0.69510 0.01800
H 	H 	0.42410 0.67330 0.67420 0.03600
H 	H 	0.31450 0.46550 0.73320 0.01500
H 	H 	0.33880 0.58540 0.76920 0.02100
H 	H 	0.16080 0.54470 0.66670 0.06000
H 	H 	0.18430 0.66420 0.70370 0.04700
H 	H 	0.57940 0.08500 0.17570 -0.02800
H 	H 	0.77670 0.82920 0.22170 -0.03000
H 	H 	0.40060 0.04580 0.26870 0.02100
H 	H 	0.39470 0.92020 0.29880 -0.00100
H 	H 	0.15410 0.84330 0.05440 -0.02900
H 	H 	0.12900 0.17160 0.02440 -0.04600
H 	H 	0.99900 0.93020 0.19510 0.02000
H 	H 	0.07590 0.82670 0.17420 0.03700
H 	H 	0.18550 0.03450 0.23320 0.01400
H 	H 	0.16120 0.91460 0.26920 0.02000
H 	H 	0.33920 0.95530 0.16670 0.06200
H 	H 	0.31570 0.83580 0.20370 0.04800
H 	H 	0.07940 0.58500 0.32430 -0.02900
H 	H 	0.27670 0.32920 0.27830 -0.03000
H 	H 	0.90060 0.54580 0.23130 0.02200
H 	H 	0.89470 0.42020 0.20120 -0.00100
H 	H 	0.65410 0.34330 0.44560 -0.02900
H 	H 	0.62900 0.67160 0.47560 -0.04600
H 	H 	0.49900 0.43020 0.30490 0.01800
H 	H 	0.57590 0.32670 0.32580 0.03600
H 	H 	0.68550 0.53450 0.26680 0.01500
H 	H 	0.66120 0.41460 0.23080 0.02100
H 	H 	0.83920 0.45530 0.33330 0.06000
H 	H 	0.81570 0.33580 0.29630 0.04700
H 	H 	0.42060 0.91500 0.82430 -0.02800
H 	H 	0.22330 0.17080 0.77830 -0.03000
H 	H 	0.59940 0.95420 0.73130 0.02100
H 	H 	0.60530 0.07980 0.70120 -0.00100
H 	H 	0.84590 0.15670 0.94560 -0.02900
H 	H 	0.87100 0.82840 0.97560 -0.04600
H 	H 	0.00100 0.06980 0.80490 0.02000
H 	H 	0.92410 0.17330 0.82580 0.03700
H 	H 	0.81450 0.96550 0.76680 0.01400
H 	H 	0.83880 0.08540 0.73080 0.02000
H 	H 	0.66080 0.04470 0.83330 0.06200
H 	H 	0.68430 0.16420 0.79630 0.04800
C 	C 	0.89350 0.48150 0.69470 0.06200
C 	C 	0.78740 0.62140 0.71990 0.06200
C 	C 	0.08880 0.53530 0.75940 -0.03300
C 	C 	0.36120 0.57920 0.56000 0.07000
C 	C 	0.37580 0.40080 0.54470 0.07100
C 	C 	0.42010 0.58910 0.67890 -0.07900
C 	C 	0.31690 0.54950 0.72780 -0.06200
C 	C 	0.18410 0.58020 0.70800 -0.13200
C 	C 	0.60650 0.01850 0.19470 0.05800
C 	C 	0.71260 0.87860 0.21990 0.06300
C 	C 	0.41120 0.96470 0.25940 -0.03000
C 	C 	0.13880 0.92080 0.06000 0.07100
C 	C 	0.12420 0.09920 0.04470 0.07100
C 	C 	0.07990 0.91090 0.17890 -0.08200
C 	C 	0.18310 0.95050 0.22780 -0.05900
C 	C 	0.31590 0.91980 0.20800 -0.13500
C 	C 	0.10650 0.51850 0.30530 0.06200
C 	C 	0.21260 0.37860 0.28010 0.06200
C 	C 	0.91120 0.46470 0.24060 -0.03300
C 	C 	0.63880 0.42080 0.44000 0.07000
C 	C 	0.62420 0.59920 0.45530 0.07100
C 	C 	0.57990 0.41090 0.32110 -0.07900
C 	C 	0.68310 0.45050 0.27220 -0.06200
C 	C 	0.81590 0.41980 0.29200 -0.13200
C 	C 	0.39350 0.98150 0.80530 0.05800
C 	C 	0.28740 0.12140 0.78010 0.06300
C 	C 	0.58880 0.03530 0.74060 -0.03000
C 	C 	0.86120 0.07920 0.94000 0.07100
C 	C 	0.87580 0.90080 0.95530 0.07100
C 	C 	0.92010 0.08910 0.82110 -0.08200
C 	C 	0.81690 0.04950 0.77220 -0.05900
C 	C 	0.68410 0.08020 0.79200 -0.13500
N 	N 	0.89270 0.63710 0.75510 -0.17200
N 	N 	0.95770 0.54500 0.73860 -0.10800
N 	N 	0.78340 0.52480 0.68060 -0.21600
N 	N 	0.40690 0.41610 0.60570 -0.18800
N 	N 	0.39660 0.53390 0.61470 -0.10900
N 	N 	0.35180 0.49950 0.51410 -0.21400
N 	N 	0.60730 0.86290 0.25510 -0.17200
N 	N 	0.54230 0.95500 0.23860 -0.10800
N 	N 	0.71660 0.97520 0.18060 -0.21400
N 	N 	0.09310 0.08390 0.10570 -0.18800
N 	N 	0.10340 0.96610 0.11470 -0.10900
N 	N 	0.14820 0.00050 0.01410 -0.21400
N 	N 	0.10730 0.36290 0.24490 -0.17200
N 	N 	0.04230 0.45500 0.26140 -0.10800
N 	N 	0.21660 0.47520 0.31940 -0.21600
N 	N 	0.59310 0.58390 0.39430 -0.18800
N 	N 	0.60340 0.46610 0.38530 -0.10900
N 	N 	0.64820 0.50050 0.48590 -0.21400
N 	N 	0.39270 0.13710 0.74490 -0.17200
N 	N 	0.45770 0.04500 0.76140 -0.10800
N 	N 	0.28340 0.02480 0.81940 -0.21400
N 	N 	0.90690 0.91610 0.89430 -0.18800
N 	N 	0.89660 0.03390 0.88530 -0.10900
N 	N 	0.85180 0.99950 0.98590 -0.21400
