data_crystal

_cell_length_a 10.99440
_cell_length_b 24.20690
_cell_length_c 26.64990
_cell_angle_alpha 67.57800
_cell_angle_beta  78.09590
_cell_angle_gamma 76.87410

_symmetry_space_group_name_	'P 1'
_symmetry_space_group_name_H-M	'P 1'

loop_
_symmetry_equiv_pos_as_xyz
  x,y,z

loop_
_atom_site_label
_atom_site_type_symbol
_atom_site_fract_x
_atom_site_fract_y
_atom_site_fract_z
_atom_site_charge
Eu	Eu	0.16172 0.01607 0.41763 1.86400
Eu	Eu	0.17408 0.96881 0.56286 1.58000
Eu	Eu	0.98048 0.11305 0.49028 1.60700
Eu	Eu	0.59542 0.48393 0.08237 1.84200
Eu	Eu	0.70575 0.53119 0.93714 1.60000
Eu	Eu	0.58381 0.38695 0.00972 1.59000
Eu	Eu	0.83828 0.98393 0.58237 1.82100
Eu	Eu	0.82592 0.03119 0.43714 1.60200
Eu	Eu	0.01952 0.88695 0.50972 1.62000
Eu	Eu	0.40458 0.51606 0.91764 1.84900
Eu	Eu	0.29425 0.46881 0.06286 1.57800
Eu	Eu	0.41619 0.61305 0.99028 1.63700
H 	H 	0.66780 0.00270 0.06130 0.15900
H 	H 	0.47140 0.95480 0.20880 0.06400
H 	H 	0.45680 0.88250 0.16530 0.06500
H 	H 	0.81530 0.20750 0.05630 0.03000
H 	H 	0.65370 0.16400 0.13280 0.04900
H 	H 	0.83040 0.04560 0.98280 0.16900
H 	H 	0.09050 0.06310 0.85430 0.06400
H 	H 	0.12510 0.12580 0.90400 0.06500
H 	H 	0.59080 0.87910 0.96170 0.06100
H 	H 	0.73700 0.92980 0.88140 0.05500
H 	H 	0.37700 0.09900 0.17560 0.08700
H 	H 	0.29660 0.11190 0.25990 0.02100
H 	H 	0.63590 0.03940 0.31140 -0.00800
H 	H 	0.71420 0.02420 0.22880 0.09500
H 	H 	0.06190 0.15170 0.05670 0.09100
H 	H 	0.14960 0.23640 0.04360 0.01700
H 	H 	0.06360 0.31090 0.88810 0.02700
H 	H 	0.98190 0.22500 0.90100 0.08800
H 	H 	0.07560 0.93400 0.87120 0.09000
H 	H 	0.12260 0.90240 0.79560 0.00600
H 	H 	0.82690 0.02290 0.72970 0.01100
H 	H 	0.78200 0.05510 0.80450 0.08900
H 	H 	0.33710 0.89140 0.07240 0.09400
H 	H 	0.25920 0.80260 0.08800 0.01200
H 	H 	0.61160 0.70930 0.09330 0.01900
H 	H 	0.68860 0.79770 0.07610 0.09700
H 	H 	0.00660 0.04420 0.60820 0.32200
H 	H 	0.72970 0.10100 0.51060 0.36700
H 	H 	0.99460 0.12840 0.38000 0.26300
H 	H 	0.25930 0.06890 0.47110 0.35500
H 	H 	0.73180 0.49730 0.43870 0.15300
H 	H 	0.63500 0.54520 0.29120 0.06800
H 	H 	0.50460 0.61750 0.33470 0.06500
H 	H 	0.07910 0.29250 0.44370 0.02700
H 	H 	0.95050 0.33600 0.36720 0.05400
H 	H 	0.85880 0.45440 0.51720 0.16500
H 	H 	0.00790 0.43690 0.64570 0.08000
H 	H 	0.15490 0.37420 0.59600 0.05800
H 	H 	0.43160 0.62090 0.53830 0.06200
H 	H 	0.54820 0.57020 0.61860 0.06000
H 	H 	0.65160 0.40100 0.32440 0.08800
H 	H 	0.66840 0.38810 0.24010 0.01900
H 	H 	0.98670 0.46060 0.18860 -0.01100
H 	H 	0.96720 0.47580 0.27120 0.09300
H 	H 	0.27030 0.34830 0.44330 0.08700
H 	H 	0.42960 0.26360 0.45640 0.01500
H 	H 	0.26260 0.18910 0.61190 0.02400
H 	H 	0.10790 0.27500 0.59900 0.09700
H 	H 	0.88080 0.56600 0.62880 0.09800
H 	H 	0.82060 0.59760 0.70440 0.00100
H 	H 	0.57950 0.47710 0.77030 0.00700
H 	H 	0.64160 0.44490 0.69550 0.09900
H 	H 	0.30090 0.60860 0.42760 0.09600
H 	H 	0.14980 0.69740 0.41200 0.01300
H 	H 	0.41420 0.79070 0.40670 0.01800
H 	H 	0.56240 0.70230 0.42390 0.09800
H 	H 	0.65900 0.45580 0.89180 0.31200
H 	H 	0.34130 0.39900 0.98940 0.36800
H 	H 	0.50300 0.37160 0.12000 0.26300
H 	H 	0.79930 0.43110 0.02890 0.35300
H 	H 	0.33220 0.99730 0.93870 0.14600
H 	H 	0.52860 0.04520 0.79120 0.07200
H 	H 	0.54320 0.11750 0.83470 0.06500
H 	H 	0.18470 0.79250 0.94370 0.03800
H 	H 	0.34630 0.83600 0.86720 0.05000
H 	H 	0.16960 0.95440 0.01720 0.16300
H 	H 	0.90950 0.93690 0.14570 0.06500
H 	H 	0.87490 0.87420 0.09600 0.06500
H 	H 	0.40920 0.12090 0.03830 0.06600
H 	H 	0.26300 0.07020 0.11860 0.06000
H 	H 	0.62300 0.90100 0.82440 0.08800
H 	H 	0.70340 0.88810 0.74010 0.01800
H 	H 	0.36410 0.96060 0.68860 -0.01100
H 	H 	0.28580 0.97580 0.77120 0.09500
H 	H 	0.93810 0.84830 0.94330 0.08700
H 	H 	0.85040 0.76360 0.95640 0.01000
H 	H 	0.93640 0.68910 0.11190 0.01600
H 	H 	0.01810 0.77500 0.09900 0.10700
H 	H 	0.92440 0.06600 0.12880 0.10600
H 	H 	0.87740 0.09760 0.20440 0.00100
H 	H 	0.17310 0.97710 0.27030 0.00500
H 	H 	0.21800 0.94490 0.19550 0.10500
H 	H 	0.66290 0.10860 0.92760 0.09900
H 	H 	0.74080 0.19740 0.91200 0.01100
H 	H 	0.38840 0.29070 0.90670 0.01800
H 	H 	0.31140 0.20230 0.92390 0.10000
H 	H 	0.99340 0.95580 0.39180 0.30200
H 	H 	0.27030 0.89900 0.48940 0.36800
H 	H 	0.00540 0.87160 0.62000 0.26500
H 	H 	0.74070 0.93110 0.52890 0.35600
H 	H 	0.26820 0.50270 0.56130 0.15300
H 	H 	0.36500 0.45480 0.70880 0.06700
H 	H 	0.49540 0.38250 0.66530 0.06500
H 	H 	0.92090 0.70750 0.55630 0.04200
H 	H 	0.04950 0.66400 0.63280 0.04300
H 	H 	0.14120 0.54560 0.48280 0.16500
H 	H 	0.99210 0.56310 0.35430 0.05100
H 	H 	0.84510 0.62580 0.40400 0.07100
H 	H 	0.56840 0.37910 0.46170 0.06200
H 	H 	0.45180 0.42980 0.38140 0.05900
H 	H 	0.34840 0.59900 0.67560 0.08700
H 	H 	0.33160 0.61190 0.75990 0.02000
H 	H 	0.01330 0.53940 0.81140 -0.00800
H 	H 	0.03280 0.52420 0.72880 0.09600
H 	H 	0.72970 0.65170 0.55670 0.09000
H 	H 	0.57040 0.73640 0.54360 0.01300
H 	H 	0.73740 0.81090 0.38810 0.01900
H 	H 	0.89210 0.72500 0.40100 0.09800
H 	H 	0.11920 0.43400 0.37120 0.10100
H 	H 	0.17940 0.40240 0.29560 0.00400
H 	H 	0.42050 0.52290 0.22970 0.00800
H 	H 	0.35840 0.55510 0.30450 0.09800
H 	H 	0.69910 0.39140 0.57240 0.09600
H 	H 	0.85020 0.30260 0.58800 0.01000
H 	H 	0.58580 0.20930 0.59330 0.01900
H 	H 	0.43760 0.29770 0.57610 0.09900
H 	H 	0.34100 0.54420 0.10820 0.31400
H 	H 	0.65870 0.60100 0.01060 0.36800
H 	H 	0.49700 0.62840 0.88000 0.26400
H 	H 	0.20070 0.56890 0.97110 0.35800
C 	C 	0.57986 0.99975 0.13473 0.12300
C 	C 	0.50778 0.95616 0.17288 -0.08400
C 	C 	0.49981 0.91635 0.14903 -0.08800
C 	C 	0.56738 0.93484 0.09540 0.13400
C 	C 	0.60722 0.05008 0.14088 -0.12300
C 	C 	0.68448 0.09030 0.10274 0.10300
C 	C 	0.83042 0.12788 0.03548 0.08800
C 	C 	0.78683 0.17032 0.06482 -0.07400
C 	C 	0.69848 0.14678 0.10626 -0.09500
C 	C 	0.93187 0.13287 0.99299 -0.11700
C 	C 	0.96087 0.09797 0.95929 0.13200
C 	C 	0.93221 0.04039 0.91539 0.12000
C 	C 	0.04066 0.06805 0.88643 -0.07000
C 	C 	0.05913 0.10275 0.91359 -0.07900
C 	C 	0.87284 0.00467 0.90025 -0.09500
C 	C 	0.77263 0.97482 0.93192 0.08700
C 	C 	0.64305 0.93014 0.00236 0.10100
C 	C 	0.63987 0.90782 0.95944 -0.07000
C 	C 	0.71929 0.93518 0.91584 -0.07200
C 	C 	0.57757 0.90933 0.05513 -0.13100
C 	C 	0.55400 0.05980 0.19380 0.12800
C 	C 	0.42988 0.08610 0.20334 -0.16600
C 	C 	0.38184 0.09387 0.25345 0.08000
C 	C 	0.45905 0.07523 0.29327 -0.15900
C 	C 	0.58243 0.05064 0.28410 0.10100
C 	C 	0.62890 0.04230 0.23470 -0.17400
C 	C 	0.00471 0.18186 0.98132 0.13000
C 	C 	0.05987 0.18467 0.02279 -0.16800
C 	C 	0.11180 0.23498 0.01522 0.05200
C 	C 	0.10796 0.28279 0.96589 -0.12400
C 	C 	0.06129 0.27902 0.92260 0.05700
C 	C 	0.01167 0.22827 0.93059 -0.14300
C 	C 	0.91963 0.99467 0.84687 0.09000
C 	C 	0.02325 0.95114 0.84296 -0.15700
C 	C 	0.05166 0.93237 0.79811 0.09800
C 	C 	0.97525 0.95798 0.75712 -0.18700
C 	C 	0.87637 0.00406 0.75900 0.10300
C 	C 	0.84912 0.02287 0.80349 -0.14800
C 	C 	0.52156 0.85364 0.07024 0.13600
C 	C 	0.39394 0.85452 0.07540 -0.17400
C 	C 	0.34722 0.80176 0.08500 0.09300
C 	C 	0.42880 0.74908 0.09012 -0.16200
C 	C 	0.55549 0.74672 0.08790 0.09500
C 	C 	0.60073 0.79934 0.07780 -0.17500
C 	C 	0.71434 0.50025 0.36527 0.13500
C 	C 	0.63682 0.54384 0.32712 -0.08900
C 	C 	0.56519 0.58365 0.35097 -0.08600
C 	C 	0.59762 0.56516 0.40460 0.13600
C 	C 	0.79818 0.44992 0.35912 -0.13600
C 	C 	0.87752 0.40970 0.39726 0.11100
C 	C 	0.99378 0.37212 0.46452 0.08100
C 	C 	0.02197 0.32968 0.43518 -0.05100
C 	C 	0.95152 0.35322 0.39374 -0.11200
C 	C 	0.05773 0.36713 0.50701 -0.11100
C 	C 	0.01813 0.40203 0.54071 0.13300
C 	C 	0.88799 0.45961 0.58461 0.14500
C 	C 	0.99514 0.43195 0.61357 -0.11300
C 	C 	0.07547 0.39725 0.58641 -0.06200
C 	C 	0.77776 0.49533 0.59975 -0.13900
C 	C 	0.67937 0.52518 0.56808 0.11100
C 	C 	0.57555 0.56986 0.49764 0.11500
C 	C 	0.50713 0.59218 0.54056 -0.07800
C 	C 	0.57031 0.56482 0.58416 -0.07800
C 	C 	0.54203 0.59067 0.44487 -0.13300
C 	C 	0.80760 0.44020 0.30620 0.13200
C 	C 	0.71932 0.41390 0.29666 -0.17000
C 	C 	0.72916 0.40613 0.24655 0.08200
C 	C 	0.82755 0.42477 0.20673 -0.16200
C 	C 	0.91717 0.44936 0.21590 0.10300
C 	C 	0.90590 0.45770 0.26530 -0.17900
C 	C 	0.16789 0.31814 0.51868 0.11500
C 	C 	0.26733 0.31533 0.47721 -0.15600
C 	C 	0.36200 0.26502 0.48478 0.06500
C 	C 	0.35664 0.21721 0.53411 -0.14000
C 	C 	0.26291 0.22098 0.57740 0.06500
C 	C 	0.17053 0.27173 0.56941 -0.15300
C 	C 	0.76117 0.50533 0.65313 0.14100
C 	C 	0.81735 0.54886 0.65704 -0.18900
C 	C 	0.78214 0.56763 0.70189 0.10300
C 	C 	0.69035 0.54202 0.74288 -0.18000
C 	C 	0.63943 0.49594 0.74100 0.10500
C 	C 	0.67548 0.47713 0.69651 -0.18200
C 	C 	0.44544 0.64636 0.42976 0.13800
C 	C 	0.32386 0.64548 0.42460 -0.17400
C 	C 	0.23398 0.69824 0.41500 0.09400
C 	C 	0.26800 0.75092 0.40988 -0.16100
C 	C 	0.39011 0.75328 0.41210 0.09600
C 	C 	0.47787 0.70066 0.42220 -0.17600
C 	C 	0.42014 0.00025 0.86527 0.15000
C 	C 	0.49222 0.04384 0.82712 -0.09300
C 	C 	0.50019 0.08365 0.85097 -0.08300
C 	C 	0.43262 0.06516 0.90460 0.14000
C 	C 	0.39278 0.94992 0.85912 -0.14700
C 	C 	0.31552 0.90970 0.89726 0.11000
C 	C 	0.16958 0.87212 0.96452 0.11200
C 	C 	0.21317 0.82968 0.93518 -0.07800
C 	C 	0.30152 0.85322 0.89374 -0.09400
C 	C 	0.06813 0.86713 0.00701 -0.13300
C 	C 	0.03913 0.90203 0.04071 0.14300
C 	C 	0.06779 0.95961 0.08461 0.14800
C 	C 	0.95934 0.93195 0.11357 -0.09500
C 	C 	0.94087 0.89725 0.08641 -0.09000
C 	C 	0.12716 0.99533 0.09975 -0.15800
C 	C 	0.22737 0.02518 0.06808 0.12100
C 	C 	0.35695 0.06986 0.99764 0.14000
C 	C 	0.36013 0.09218 0.04056 -0.09600
C 	C 	0.28071 0.06482 0.08416 -0.07400
C 	C 	0.42243 0.09067 0.94487 -0.13800
C 	C 	0.44600 0.94020 0.80620 0.13500
C 	C 	0.57012 0.91390 0.79666 -0.17400
C 	C 	0.61816 0.90613 0.74655 0.08300
C 	C 	0.54095 0.92477 0.70673 -0.16400
C 	C 	0.41757 0.94936 0.71590 0.10400
C 	C 	0.37110 0.95770 0.76530 -0.18200
C 	C 	0.99529 0.81814 0.01868 0.11600
C 	C 	0.94013 0.81533 0.97721 -0.15900
C 	C 	0.88820 0.76502 0.98478 0.08100
C 	C 	0.89204 0.71721 0.03411 -0.15700
C 	C 	0.93871 0.72098 0.07740 0.07800
C 	C 	0.98833 0.77173 0.06941 -0.17400
C 	C 	0.08037 0.00533 0.15313 0.17000
C 	C 	0.97675 0.04886 0.15704 -0.20400
C 	C 	0.94834 0.06763 0.20189 0.10600
C 	C 	0.02475 0.04202 0.24288 -0.17300
C 	C 	0.12363 0.99594 0.24100 0.10500
C 	C 	0.15088 0.97713 0.19651 -0.20100
C 	C 	0.47844 0.14636 0.92976 0.14400
C 	C 	0.60606 0.14548 0.92460 -0.17700
C 	C 	0.65278 0.19824 0.91500 0.09800
C 	C 	0.57120 0.25092 0.90988 -0.16200
C 	C 	0.44451 0.25328 0.91210 0.09900
C 	C 	0.39927 0.20066 0.92220 -0.17800
C 	C 	0.28566 0.49975 0.63473 0.13400
C 	C 	0.36318 0.45616 0.67288 -0.08700
C 	C 	0.43481 0.41635 0.64903 -0.08600
C 	C 	0.40238 0.43484 0.59540 0.13700
C 	C 	0.20182 0.55008 0.64088 -0.13100
C 	C 	0.12248 0.59030 0.60274 0.10100
C 	C 	0.00622 0.62788 0.53548 0.12200
C 	C 	0.97803 0.67032 0.56482 -0.10600
C 	C 	0.04848 0.64678 0.60626 -0.07200
C 	C 	0.94227 0.63287 0.49299 -0.14000
C 	C 	0.98187 0.59797 0.45929 0.14100
C 	C 	0.11201 0.54039 0.41539 0.12800
C 	C 	0.00486 0.56805 0.38643 -0.05400
C 	C 	0.92453 0.60275 0.41359 -0.10500
C 	C 	0.22224 0.50467 0.40025 -0.13000
C 	C 	0.32063 0.47482 0.43192 0.10800
C 	C 	0.42445 0.43014 0.50236 0.11600
C 	C 	0.49287 0.40782 0.45944 -0.07900
C 	C 	0.42969 0.43518 0.41584 -0.07600
C 	C 	0.45797 0.40933 0.55513 -0.13300
C 	C 	0.19240 0.55980 0.69380 0.12900
C 	C 	0.28068 0.58610 0.70334 -0.16800
C 	C 	0.27084 0.59387 0.75345 0.08000
C 	C 	0.17245 0.57523 0.79327 -0.16000
C 	C 	0.08283 0.55064 0.78410 0.10200
C 	C 	0.09410 0.54230 0.73470 -0.17600
C 	C 	0.83211 0.68186 0.48132 0.12700
C 	C 	0.73267 0.68467 0.52279 -0.16600
C 	C 	0.63800 0.73498 0.51522 0.07100
C 	C 	0.64336 0.78279 0.46589 -0.14500
C 	C 	0.73709 0.77902 0.42260 0.07100
C 	C 	0.82947 0.72827 0.43059 -0.16400
C 	C 	0.23883 0.49467 0.34687 0.13800
C 	C 	0.18265 0.45114 0.34296 -0.18500
C 	C 	0.21786 0.43237 0.29811 0.10200
C 	C 	0.30965 0.45798 0.25712 -0.17800
C 	C 	0.36057 0.50406 0.25900 0.10300
C 	C 	0.32452 0.52287 0.30349 -0.17900
C 	C 	0.55456 0.35364 0.57024 0.13900
C 	C 	0.67614 0.35452 0.57540 -0.17500
C 	C 	0.76602 0.30176 0.58500 0.09500
C 	C 	0.73200 0.24908 0.59012 -0.16200
C 	C 	0.60989 0.24672 0.58790 0.09700
C 	C 	0.52213 0.29934 0.57780 -0.17600
S 	S 	0.39970 0.08603 0.35645 0.50500
S 	S 	0.14927 0.35155 0.95983 0.50900
S 	S 	0.99982 0.92779 0.70439 0.58600
S 	S 	0.37575 0.68165 0.09931 0.57200
S 	S 	0.84218 0.41397 0.14355 0.50700
S 	S 	0.46065 0.14845 0.54017 0.51300
S 	S 	0.63200 0.57221 0.79561 0.60700
S 	S 	0.15671 0.81835 0.40069 0.57100
S 	S 	0.60030 0.91397 0.64355 0.50700
S 	S 	0.85073 0.64845 0.04017 0.51900
S 	S 	0.00018 0.07221 0.29561 0.61900
S 	S 	0.62425 0.31835 0.90069 0.57000
S 	S 	0.15782 0.58603 0.85645 0.50600
S 	S 	0.53935 0.85155 0.45983 0.51500
S 	S 	0.36800 0.42779 0.20439 0.60500
S 	S 	0.84329 0.18165 0.59931 0.57100
N 	N 	0.61625 0.98502 0.08828 -0.23800
N 	N 	0.76293 0.08092 0.05822 -0.14400
N 	N 	0.89027 0.05781 0.96005 -0.24400
N 	N 	0.72217 0.97180 0.98426 -0.14000
N 	N 	0.68955 0.51498 0.41172 -0.23300
N 	N 	0.90207 0.41908 0.44178 -0.14400
N 	N 	0.90813 0.44219 0.53995 -0.25200
N 	N 	0.67823 0.52820 0.51574 -0.14700
N 	N 	0.38375 0.01498 0.91172 -0.22700
N 	N 	0.23707 0.91908 0.94178 -0.14700
N 	N 	0.10973 0.94219 0.03995 -0.25200
N 	N 	0.27783 0.02820 0.01574 -0.15500
N 	N 	0.31045 0.48502 0.58828 -0.23300
N 	N 	0.09793 0.58092 0.55822 -0.14600
N 	N 	0.09187 0.55781 0.46005 -0.24600
N 	N 	0.32177 0.47180 0.48426 -0.14600
O 	O 	0.99364 0.04023 0.57909 -0.88300
O 	O 	0.78764 0.07300 0.50772 -0.94800
O 	O 	0.98149 0.09490 0.40852 -0.86200
O 	O 	0.19045 0.05767 0.48163 -0.94600
O 	O 	0.42034 0.02747 0.40045 -0.40500
O 	O 	0.26413 0.10735 0.35619 -0.43600
O 	O 	0.46652 0.13006 0.35930 -0.29500
O 	O 	0.24974 0.33617 0.99255 -0.33500
O 	O 	0.03418 0.38447 0.98137 -0.31800
O 	O 	0.18404 0.38340 0.90172 -0.28200
O 	O 	0.01116 0.86231 0.73217 -0.29100
O 	O 	0.11563 0.94488 0.66886 -0.44500
O 	O 	0.88773 0.95367 0.67687 -0.46900
O 	O 	0.42719 0.63454 0.14648 -0.29900
O 	O 	0.42738 0.66877 0.04887 -0.48000
O 	O 	0.23925 0.69347 0.10683 -0.30500
O 	O 	0.61296 0.45977 0.92091 -0.87800
O 	O 	0.36836 0.42700 0.99228 -0.94500
O 	O 	0.48491 0.40510 0.09148 -0.85500
O 	O 	0.72975 0.44233 0.01837 -0.95200
O 	O 	0.84826 0.47253 0.09955 -0.41000
O 	O 	0.72767 0.39265 0.14381 -0.43600
O 	O 	0.95588 0.36994 0.14070 -0.29900
O 	O 	0.57846 0.16383 0.50745 -0.34000
O 	O 	0.40002 0.11553 0.51863 -0.32300
O 	O 	0.46916 0.11660 0.59828 -0.28000
O 	O 	0.60564 0.63769 0.76783 -0.30200
O 	O 	0.72937 0.55512 0.83114 -0.45500
O 	O 	0.51827 0.54633 0.82313 -0.47000
O 	O 	0.20821 0.86546 0.35352 -0.30000
O 	O 	0.14502 0.83123 0.45113 -0.47500
O 	O 	0.03955 0.80653 0.39317 -0.30300
O 	O 	0.00636 0.95977 0.42091 -0.87900
O 	O 	0.21236 0.92700 0.49228 -0.95900
O 	O 	0.01851 0.90510 0.59148 -0.85300
O 	O 	0.80955 0.94233 0.51837 -0.95700
O 	O 	0.57966 0.97253 0.59955 -0.41000
O 	O 	0.73587 0.89265 0.64381 -0.43600
O 	O 	0.53348 0.86994 0.64070 -0.29700
O 	O 	0.75026 0.66383 0.00745 -0.34600
O 	O 	0.96582 0.61553 0.01863 -0.33300
O 	O 	0.81596 0.61660 0.09828 -0.28500
O 	O 	0.98884 0.13769 0.26783 -0.30800
O 	O 	0.88437 0.05512 0.33114 -0.45600
O 	O 	0.11227 0.04633 0.32313 -0.47000
O 	O 	0.57281 0.36546 0.85352 -0.29900
O 	O 	0.57262 0.33123 0.95113 -0.47000
O 	O 	0.76075 0.30653 0.89317 -0.30600
O 	O 	0.38704 0.54023 0.07909 -0.88700
O 	O 	0.63164 0.57300 0.00772 -0.96200
O 	O 	0.51509 0.59490 0.90852 -0.86000
O 	O 	0.27025 0.55767 0.98163 -0.94800
O 	O 	0.15174 0.52747 0.90045 -0.40500
O 	O 	0.27233 0.60735 0.85619 -0.43600
O 	O 	0.04412 0.63006 0.85930 -0.29200
O 	O 	0.42154 0.83617 0.49255 -0.34200
O 	O 	0.59998 0.88447 0.48137 -0.32900
O 	O 	0.53084 0.88340 0.40172 -0.28700
O 	O 	0.39436 0.36231 0.23217 -0.30000
O 	O 	0.27063 0.44488 0.16886 -0.45000
O 	O 	0.48173 0.45367 0.17687 -0.46900
O 	O 	0.79179 0.13454 0.64648 -0.29800
O 	O 	0.85498 0.16877 0.54887 -0.47500
O 	O 	0.96045 0.19347 0.60683 -0.30800
O 	O 	0.00000 -0.00000 0.50000 -0.74100
O 	O 	0.50000 0.50000 1.00000 -0.74400
