data_crystal

_cell_length_a 10.75850
_cell_length_b 15.09970
_cell_length_c 18.13660
_cell_angle_alpha 68.38530
_cell_angle_beta  72.74670
_cell_angle_gamma 69.13000

_symmetry_space_group_name_	'P 1'
_symmetry_space_group_name_H-M	'P 1'

loop_
_symmetry_equiv_pos_as_xyz
  x,y,z

loop_
_atom_site_label
_atom_site_type_symbol
_atom_site_fract_x
_atom_site_fract_y
_atom_site_fract_z
_atom_site_charge
Ni	Ni	0.50000 0.00000 0.50000 1.03500
Ni	Ni	-0.00000 0.50000 -0.00000 1.02400
Ni	Ni	-0.00000 0.00000 0.50000 1.07000
Ni	Ni	0.50000 0.50000 -0.00000 1.10200
H 	H 	0.62450 0.47710 0.33510 0.12700
H 	H 	0.83710 0.83110 0.36390 0.01100
H 	H 	0.16290 0.99110 0.21810 0.11000
H 	H 	0.17130 0.84970 0.19570 0.00900
H 	H 	0.25860 0.92800 0.38920 0.02200
H 	H 	0.39790 0.78870 0.35570 0.09600
H 	H 	0.15970 0.63450 0.52670 0.08500
H 	H 	0.02280 0.77860 0.55380 0.00100
H 	H 	0.36300 0.32950 0.55050 0.08800
H 	H 	0.38560 0.16510 0.57770 -0.00400
H 	H 	0.62720 0.15890 0.37150 -0.00600
H 	H 	0.61850 0.32260 0.34040 0.08600
H 	H 	0.43670 0.02290 0.16490 0.04100
H 	H 	0.03210 0.66890 0.13610 0.01300
H 	H 	0.37210 0.50890 0.28190 0.06400
H 	H 	0.21670 0.65030 0.30430 0.02900
H 	H 	0.57580 0.57200 0.11080 -0.02400
H 	H 	0.54230 0.71130 0.14430 0.12800
H 	H 	0.32090 0.86550 0.97330 0.22400
H 	H 	0.35520 0.72140 0.94620 -0.05500
H 	H 	0.24300 0.17050 0.94950 0.07500
H 	H 	0.12840 0.33490 0.92230 -0.01900
H 	H 	0.15760 0.34110 0.12850 0.00100
H 	H 	0.28150 0.17740 0.15960 0.07800
H 	H 	0.37550 0.52290 0.66490 0.12100
H 	H 	0.16290 0.16890 0.63610 0.10800
H 	H 	0.83710 0.00890 0.78190 -0.01700
H 	H 	0.82870 0.15030 0.80430 0.11900
H 	H 	0.74140 0.07200 0.61080 -0.01900
H 	H 	0.60210 0.21130 0.64430 0.08900
H 	H 	0.84030 0.36550 0.47330 0.10000
H 	H 	0.97720 0.22140 0.44620 0.02700
H 	H 	0.63700 0.67050 0.44950 0.09500
H 	H 	0.61440 0.83490 0.42230 0.01400
H 	H 	0.37280 0.84110 0.62850 0.02300
H 	H 	0.38150 0.67740 0.65960 0.08400
H 	H 	0.56330 0.97710 0.83510 0.20000
H 	H 	0.96790 0.33110 0.86390 0.10700
H 	H 	0.62790 0.49110 0.71810 0.02100
H 	H 	0.78330 0.34970 0.69570 0.10100
H 	H 	0.42420 0.42800 0.88920 0.02400
H 	H 	0.45770 0.28870 0.85570 0.05500
H 	H 	0.67910 0.13450 0.02670 -0.04800
H 	H 	0.64480 0.27860 0.05380 0.08500
H 	H 	0.75700 0.82950 0.05050 0.10700
H 	H 	0.87160 0.66510 0.07770 0.02800
H 	H 	0.84240 0.65890 0.87150 0.01600
H 	H 	0.71850 0.82260 0.84040 0.09100
C 	C 	0.00410 0.82680 0.27560 -0.20100
C 	C 	0.90600 0.86160 0.33640 0.14300
C 	C 	0.90878 0.94074 0.35670 -0.10200
C 	C 	0.79933 0.96854 0.42580 0.38900
C 	C 	0.00290 0.99180 0.31120 0.03500
C 	C 	0.01040 0.08340 0.32280 0.17000
C 	C 	0.09930 0.95680 0.24960 -0.12600
C 	C 	0.10210 0.87400 0.23440 0.08700
C 	C 	0.23750 0.86820 0.41700 0.08900
C 	C 	0.32229 0.78452 0.39690 -0.14100
C 	C 	0.29575 0.69520 0.43730 0.07100
C 	C 	0.18140 0.69410 0.49730 -0.14000
C 	C 	0.09990 0.78080 0.51360 0.08200
C 	C 	0.38494 0.60262 0.42010 0.08300
C 	C 	0.46778 0.45294 0.42110 0.10900
C 	C 	0.48508 0.34654 0.44070 0.05100
C 	C 	0.41742 0.29636 0.51280 -0.12800
C 	C 	0.43069 0.19782 0.52840 0.07300
C 	C 	0.57315 0.19390 0.40800 0.08200
C 	C 	0.56743 0.29284 0.38830 -0.12200
C 	C 	0.10650 0.67320 0.22440 -0.12600
C 	C 	0.10400 0.63840 0.16360 0.05000
C 	C 	0.20622 0.55926 0.14330 -0.11700
C 	C 	0.19367 0.53146 0.07420 0.38200
C 	C 	0.30590 0.50820 0.18880 -0.03800
C 	C 	0.41660 0.41660 0.17720 0.32700
C 	C 	0.30570 0.54320 0.25040 -0.05600
C 	C 	0.21050 0.62600 0.26560 0.02000
C 	C 	0.52270 0.63180 0.08300 0.14800
C 	C 	0.50371 0.71548 0.10310 -0.24300
C 	C 	0.42825 0.80480 0.06270 0.19900
C 	C 	0.37280 0.80590 0.00270 -0.41700
C 	C 	0.39430 0.71920 0.98640 0.31900
C 	C 	0.40766 0.89738 0.07990 0.03900
C 	C 	0.34182 0.04706 0.07890 -0.02300
C 	C 	0.27232 0.15346 0.05930 0.02600
C 	C 	0.22658 0.20364 0.98720 -0.09200
C 	C 	0.15691 0.30218 0.97160 0.10800
C 	C 	0.17505 0.30610 0.09200 0.06900
C 	C 	0.24857 0.20716 0.11170 -0.13200
C 	C 	0.99590 0.17320 0.72440 0.21200
C 	C 	0.09400 0.13840 0.66360 -0.19300
C 	C 	0.09122 0.05926 0.64330 -0.03700
C 	C 	0.20067 0.03146 0.57420 0.33500
C 	C 	0.99710 0.00820 0.68880 -0.15800
C 	C 	0.98960 0.91660 0.67720 0.47800
C 	C 	0.90070 0.04320 0.75040 0.13100
C 	C 	0.89790 0.12600 0.76560 -0.21900
C 	C 	0.76250 0.13180 0.58300 0.09500
C 	C 	0.67771 0.21548 0.60310 -0.14800
C 	C 	0.70425 0.30480 0.56270 0.07600
C 	C 	0.81860 0.30590 0.50270 -0.13900
C 	C 	0.90010 0.21920 0.48640 0.09500
C 	C 	0.61506 0.39738 0.57990 0.08200
C 	C 	0.53222 0.54706 0.57890 0.11200
C 	C 	0.51492 0.65346 0.55930 0.05200
C 	C 	0.58258 0.70364 0.48720 -0.12000
C 	C 	0.56931 0.80218 0.47160 0.07600
C 	C 	0.42685 0.80610 0.59200 0.08500
C 	C 	0.43257 0.70716 0.61170 -0.11400
C 	C 	0.89350 0.32680 0.77560 0.13900
C 	C 	0.89600 0.36160 0.83640 -0.10300
C 	C 	0.79378 0.44074 0.85670 -0.00900
C 	C 	0.80633 0.46854 0.92580 0.33800
C 	C 	0.69410 0.49180 0.81120 -0.11100
C 	C 	0.58340 0.58340 0.82280 0.34700
C 	C 	0.69430 0.45680 0.74960 0.07600
C 	C 	0.78950 0.37400 0.73440 -0.16200
C 	C 	0.47730 0.36820 0.91700 0.03300
C 	C 	0.49629 0.28452 0.89690 -0.04000
C 	C 	0.57175 0.19520 0.93730 -0.05900
C 	C 	0.62720 0.19410 0.99730 0.15800
C 	C 	0.60570 0.28080 0.01360 -0.15600
C 	C 	0.59234 0.10262 0.92010 0.13100
C 	C 	0.65818 0.95294 0.92110 0.23000
C 	C 	0.72768 0.84654 0.94070 0.07300
C 	C 	0.77342 0.79636 0.01280 -0.14900
C 	C 	0.84309 0.69782 0.02840 0.04300
C 	C 	0.82495 0.69390 0.90800 0.09500
C 	C 	0.75143 0.79284 0.88830 -0.10400
C 	C 	0.98640 0.75000 0.25000 0.27900
C 	C 	0.01360 0.25000 0.75000 -0.06800
N 	N 	0.12617 0.86796 0.47450 -0.21100
N 	N 	0.36216 0.51278 0.45710 -0.13100
N 	N 	0.49766 0.59798 0.36430 -0.08200
N 	N 	0.55114 0.50172 0.36500 -0.17200
N 	N 	0.50543 0.14604 0.47650 -0.24500
N 	N 	0.46863 0.63204 0.02550 -0.29300
N 	N 	0.33204 0.98722 0.04290 -0.07900
N 	N 	0.45994 0.90202 0.13570 -0.07500
N 	N 	0.41786 0.99828 0.13500 -0.05900
N 	N 	0.12797 0.35396 0.02350 -0.27200
N 	N 	0.87383 0.13204 0.52550 -0.21700
N 	N 	0.63784 0.48722 0.54290 -0.12500
N 	N 	0.50234 0.40202 0.63570 -0.08500
N 	N 	0.44886 0.49828 0.63500 -0.17100
N 	N 	0.49457 0.85396 0.52350 -0.21900
N 	N 	0.53137 0.36796 0.97450 -0.14000
N 	N 	0.66796 0.01278 0.95710 -0.17100
N 	N 	0.54006 0.09798 0.86430 -0.09300
N 	N 	0.58214 0.00172 0.86500 -0.27400
N 	N 	0.87203 0.64604 0.97650 -0.19200
O 	O 	0.68260 0.97110 0.42370 -0.40200
O 	O 	0.82839 0.98522 0.48040 -0.36800
O 	O 	0.04259 0.08062 0.38360 -0.39700
O 	O 	0.99500 0.15900 0.26400 -0.17400
O 	O 	0.07740 0.52890 0.07630 -0.46000
O 	O 	0.29401 0.51478 0.01960 -0.44500
O 	O 	0.50681 0.41938 0.11640 -0.40300
O 	O 	0.41800 0.34100 0.23600 -0.25400
O 	O 	0.31740 0.02890 0.57630 -0.44700
O 	O 	0.17161 0.01478 0.51960 -0.45300
O 	O 	0.95741 0.91938 0.61640 -0.37800
O 	O 	0.00500 0.84100 0.73600 -0.30900
O 	O 	0.92260 0.47110 0.92370 -0.38400
O 	O 	0.70599 0.48522 0.98040 -0.38100
O 	O 	0.49319 0.58062 0.88360 -0.38500
O 	O 	0.58200 0.65900 0.76400 -0.24100
O 	O 	0.87090 0.75000 0.25000 -0.21600
O 	O 	0.12910 0.25000 0.75000 -0.16800
