data_crystal

_cell_length_a 16.14300
_cell_length_b 7.75070
_cell_length_c 27.37400
_cell_angle_alpha 90.00000
_cell_angle_beta  93.07700
_cell_angle_gamma 90.00000

_symmetry_space_group_name_	'P 1'
_symmetry_space_group_name_H-M	'P 1'

loop_
_symmetry_equiv_pos_as_xyz
  x,y,z

loop_
_atom_site_label
_atom_site_type_symbol
_atom_site_fract_x
_atom_site_fract_y
_atom_site_fract_z
_atom_site_charge
C 	C 	0.78970 0.40790 0.66230 0.36300
C 	C 	0.80230 0.28300 0.62040 -0.15600
H 	H 	0.82200 0.17300 0.63400 0.08100
C 	C 	0.98340 0.28860 0.38670 -0.04500
H 	H 	0.98410 0.27440 0.42190 0.04900
H 	H 	0.99430 0.40900 0.37970 0.04600
C 	C 	0.05150 0.17560 0.36580 -0.07500
H 	H 	0.10530 0.21270 0.37930 0.05800
H 	H 	0.04340 0.05650 0.37530 0.05800
C 	C 	0.04920 0.18820 0.31090 -0.13900
H 	H 	0.06200 0.30800 0.30200 0.07100
C 	C 	0.96360 0.14580 0.29030 -0.07000
H 	H 	0.95320 0.02410 0.29550 0.06400
H 	H 	0.96130 0.16620 0.25530 0.03900
C 	C 	0.89580 0.24950 0.31270 -0.04500
H 	H 	0.89960 0.36890 0.30240 0.04500
H 	H 	0.84220 0.20530 0.30100 0.04900
C 	C 	0.83840 0.20780 0.39280 0.16800
C 	C 	0.70450 0.12050 0.39930 0.16600
C 	C 	0.78460 0.18250 0.46760 0.17300
C 	C 	0.48150 0.04560 0.38350 -0.02500
H 	H 	0.47460 0.17000 0.38340 0.04300
H 	H 	0.43900 0.99630 0.40300 0.02700
C 	C 	0.47060 0.97770 0.33090 -0.20900
H 	H 	0.47600 0.85200 0.33200 0.09100
C 	C 	0.54230 0.05200 0.30280 -0.02500
H 	H 	0.53890 0.00650 0.26970 0.02900
H 	H 	0.53630 0.17630 0.30070 0.04300
C 	C 	0.62680 0.00990 0.32640 -0.07400
H 	H 	0.63650 0.88660 0.32450 0.05300
H 	H 	0.66940 0.06820 0.30890 0.05800
C 	C 	0.56680 0.00020 0.40650 -0.06800
H 	H 	0.57270 0.04900 0.43920 0.05600
H 	H 	0.57190 0.87590 0.40940 0.05200
C 	C 	0.86520 0.34720 0.58540 -0.05800
H 	H 	0.91910 0.35480 0.60270 0.04500
H 	H 	0.84960 0.46230 0.57450 0.06100
C 	C 	0.72070 0.25080 0.59200 -0.05800
H 	H 	0.69750 0.36050 0.58100 0.04700
H 	H 	0.68220 0.19820 0.61350 0.03200
C 	C 	0.87160 0.23200 0.54160 -0.05200
H 	H 	0.90840 0.28480 0.51910 0.05300
H 	H 	0.89570 0.12260 0.55210 0.04900
C 	C 	0.72940 0.13690 0.54870 -0.05200
H 	H 	0.74480 0.02180 0.55980 0.04900
H 	H 	0.67630 0.12890 0.53040 0.05100
C 	C 	0.11370 0.07290 0.29070 0.34800
C 	C 	0.38850 0.02210 0.30620 0.46700
Ce	Ce	0.22396 0.87143 0.23388 2.17100
N 	N 	0.70820 0.13250 0.44860 -0.16200
N 	N 	0.63130 0.06500 0.37770 -0.11300
N 	N 	0.85010 0.21550 0.44250 -0.16500
N 	N 	0.76430 0.16600 0.36950 -0.16100
N 	N 	0.90250 0.24100 0.36530 -0.12100
N 	N 	0.79170 0.20070 0.51640 -0.12000
O 	O 	0.78290 0.34750 0.70580 -0.63900
O 	O 	0.78610 0.56580 0.65520 -0.46600
O 	O 	0.34820 0.90570 0.28420 -0.54400
O 	O 	0.09800 0.91750 0.28060 -0.45000
O 	O 	0.18770 0.12730 0.28420 -0.61900
O 	O 	0.36500 0.17690 0.30700 -0.55500
C 	C 	0.71030 0.90790 0.83770 0.36400
C 	C 	0.69770 0.78300 0.87960 -0.15500
H 	H 	0.67800 0.67300 0.86600 0.08200
C 	C 	0.51660 0.78860 0.11330 -0.04400
H 	H 	0.51590 0.77440 0.07810 0.05000
H 	H 	0.50570 0.90900 0.12030 0.04700
C 	C 	0.44850 0.67560 0.13420 -0.07400
H 	H 	0.39470 0.71270 0.12070 0.05900
H 	H 	0.45660 0.55650 0.12470 0.05900
C 	C 	0.45080 0.68820 0.18910 -0.13800
H 	H 	0.43800 0.80800 0.19800 0.07200
C 	C 	0.53640 0.64580 0.20970 -0.06900
H 	H 	0.54680 0.52410 0.20450 0.06500
H 	H 	0.53870 0.66620 0.24470 0.04000
C 	C 	0.60420 0.74950 0.18730 -0.04400
H 	H 	0.60040 0.86890 0.19760 0.04500
H 	H 	0.65780 0.70530 0.19900 0.04900
C 	C 	0.66160 0.70780 0.10720 0.16800
C 	C 	0.79550 0.62050 0.10070 0.16600
C 	C 	0.71540 0.68250 0.03240 0.17300
C 	C 	0.01850 0.54560 0.11650 -0.02600
H 	H 	0.02540 0.67000 0.11660 0.04300
H 	H 	0.06100 0.49630 0.09700 0.02700
C 	C 	0.02940 0.47770 0.16910 -0.20900
H 	H 	0.02400 0.35200 0.16800 0.09100
C 	C 	0.95770 0.55200 0.19720 -0.02500
H 	H 	0.96110 0.50650 0.23030 0.02900
H 	H 	0.96370 0.67630 0.19930 0.04300
C 	C 	0.87320 0.50990 0.17360 -0.07400
H 	H 	0.86350 0.38660 0.17550 0.05300
H 	H 	0.83060 0.56820 0.19110 0.05800
C 	C 	0.93320 0.50020 0.09350 -0.06800
H 	H 	0.92730 0.54900 0.06080 0.05600
H 	H 	0.92810 0.37590 0.09060 0.05200
C 	C 	0.63480 0.84720 0.91460 -0.05800
H 	H 	0.58090 0.85480 0.89730 0.04500
H 	H 	0.65040 0.96230 0.92550 0.06100
C 	C 	0.77930 0.75080 0.90800 -0.05800
H 	H 	0.80250 0.86050 0.91900 0.04700
H 	H 	0.81780 0.69820 0.88650 0.03200
C 	C 	0.62840 0.73200 0.95840 -0.05200
H 	H 	0.59160 0.78480 0.98090 0.05300
H 	H 	0.60430 0.62260 0.94790 0.04900
C 	C 	0.77060 0.63690 0.95130 -0.05200
H 	H 	0.75520 0.52180 0.94020 0.04900
H 	H 	0.82370 0.62890 0.96960 0.05100
C 	C 	0.38630 0.57290 0.20930 0.34800
C 	C 	0.11150 0.52210 0.19380 0.46700
Ce	Ce	0.27604 0.37143 0.26613 2.17100
N 	N 	0.79180 0.63250 0.05140 -0.16200
N 	N 	0.86870 0.56500 0.12230 -0.11300
N 	N 	0.64990 0.71550 0.05750 -0.16500
N 	N 	0.73570 0.66600 0.13050 -0.16100
N 	N 	0.59750 0.74100 0.13470 -0.12100
N 	N 	0.70830 0.70070 0.98360 -0.12000
O 	O 	0.71710 0.84750 0.79420 -0.63900
O 	O 	0.71390 0.06580 0.84480 -0.46600
O 	O 	0.15180 0.40570 0.21580 -0.54400
O 	O 	0.40200 0.41750 0.21940 -0.45000
O 	O 	0.31230 0.62730 0.21580 -0.61900
O 	O 	0.13500 0.67690 0.19300 -0.55500
C 	C 	0.21030 0.59210 0.33770 0.36400
C 	C 	0.19770 0.71700 0.37960 -0.15500
H 	H 	0.17800 0.82700 0.36600 0.08200
C 	C 	0.01660 0.71140 0.61330 -0.04400
H 	H 	0.01590 0.72560 0.57810 0.05000
H 	H 	0.00570 0.59100 0.62030 0.04700
C 	C 	0.94850 0.82440 0.63420 -0.07400
H 	H 	0.89470 0.78730 0.62070 0.05900
H 	H 	0.95660 0.94350 0.62470 0.05900
C 	C 	0.95080 0.81180 0.68910 -0.13800
H 	H 	0.93800 0.69200 0.69800 0.07200
C 	C 	0.03640 0.85420 0.70970 -0.06900
H 	H 	0.04680 0.97590 0.70450 0.06500
H 	H 	0.03870 0.83380 0.74470 0.04000
C 	C 	0.10420 0.75050 0.68730 -0.04400
H 	H 	0.10040 0.63110 0.69760 0.04500
H 	H 	0.15780 0.79470 0.69900 0.04900
C 	C 	0.16160 0.79220 0.60720 0.16800
C 	C 	0.29550 0.87950 0.60070 0.16600
C 	C 	0.21540 0.81750 0.53240 0.17300
C 	C 	0.51850 0.95440 0.61650 -0.02500
H 	H 	0.52540 0.83000 0.61660 0.04300
H 	H 	0.56100 0.00370 0.59700 0.02700
C 	C 	0.52940 0.02230 0.66910 -0.20900
H 	H 	0.52400 0.14800 0.66800 0.09100
C 	C 	0.45770 0.94800 0.69720 -0.02500
H 	H 	0.46110 0.99350 0.73030 0.02900
H 	H 	0.46370 0.82370 0.69930 0.04300
C 	C 	0.37320 0.99010 0.67360 -0.07400
H 	H 	0.36350 0.11340 0.67550 0.05300
H 	H 	0.33060 0.93180 0.69110 0.05800
C 	C 	0.43320 0.99980 0.59350 -0.06800
H 	H 	0.42730 0.95100 0.56080 0.05600
H 	H 	0.42810 0.12410 0.59060 0.05200
C 	C 	0.13480 0.65280 0.41460 -0.05800
H 	H 	0.08090 0.64520 0.39730 0.04500
H 	H 	0.15040 0.53770 0.42550 0.06100
C 	C 	0.27930 0.74920 0.40800 -0.05800
H 	H 	0.30250 0.63950 0.41900 0.04700
H 	H 	0.31780 0.80180 0.38650 0.03200
C 	C 	0.12840 0.76800 0.45840 -0.05200
H 	H 	0.09160 0.71520 0.48090 0.05300
H 	H 	0.10430 0.87740 0.44790 0.04900
C 	C 	0.27060 0.86310 0.45130 -0.05200
H 	H 	0.25520 0.97820 0.44020 0.04900
H 	H 	0.32370 0.87110 0.46960 0.05100
C 	C 	0.88630 0.92710 0.70930 0.34800
C 	C 	0.61150 0.97790 0.69380 0.46700
Ce	Ce	0.77604 0.12857 0.76613 2.17100
N 	N 	0.29180 0.86750 0.55140 -0.16200
N 	N 	0.36870 0.93500 0.62230 -0.11300
N 	N 	0.14990 0.78450 0.55750 -0.16500
N 	N 	0.23570 0.83400 0.63050 -0.16100
N 	N 	0.09750 0.75900 0.63470 -0.12100
N 	N 	0.20830 0.79930 0.48360 -0.12000
O 	O 	0.21710 0.65250 0.29420 -0.63900
O 	O 	0.21390 0.43420 0.34480 -0.46600
O 	O 	0.65180 0.09430 0.71580 -0.54400
O 	O 	0.90200 0.08250 0.71940 -0.45000
O 	O 	0.81230 0.87270 0.71580 -0.61900
O 	O 	0.63500 0.82310 0.69300 -0.55500
C 	C 	0.28970 0.09210 0.16230 0.36400
C 	C 	0.30230 0.21700 0.12040 -0.15500
H 	H 	0.32200 0.32700 0.13400 0.08200
C 	C 	0.48340 0.21140 0.88670 -0.04400
H 	H 	0.48410 0.22560 0.92190 0.05000
H 	H 	0.49430 0.09100 0.87970 0.04700
C 	C 	0.55150 0.32440 0.86580 -0.07400
H 	H 	0.60530 0.28730 0.87930 0.05900
H 	H 	0.54340 0.44350 0.87530 0.05900
C 	C 	0.54920 0.31180 0.81090 -0.13800
H 	H 	0.56200 0.19200 0.80200 0.07200
C 	C 	0.46360 0.35420 0.79030 -0.06900
H 	H 	0.45320 0.47590 0.79550 0.06500
H 	H 	0.46130 0.33380 0.75530 0.04000
C 	C 	0.39580 0.25050 0.81270 -0.04400
H 	H 	0.39960 0.13110 0.80240 0.04500
H 	H 	0.34220 0.29470 0.80100 0.04900
C 	C 	0.33840 0.29220 0.89280 0.16800
C 	C 	0.20450 0.37950 0.89930 0.16600
C 	C 	0.28460 0.31750 0.96760 0.17300
C 	C 	0.98150 0.45440 0.88350 -0.02500
H 	H 	0.97460 0.33000 0.88340 0.04300
H 	H 	0.93900 0.50370 0.90300 0.02700
C 	C 	0.97060 0.52230 0.83090 -0.20900
H 	H 	0.97600 0.64800 0.83200 0.09100
C 	C 	0.04230 0.44800 0.80280 -0.02500
H 	H 	0.03890 0.49350 0.76970 0.02900
H 	H 	0.03630 0.32370 0.80070 0.04300
C 	C 	0.12680 0.49010 0.82640 -0.07400
H 	H 	0.13650 0.61340 0.82450 0.05300
H 	H 	0.16940 0.43180 0.80890 0.05800
C 	C 	0.06680 0.49980 0.90650 -0.06800
H 	H 	0.07270 0.45100 0.93920 0.05600
H 	H 	0.07190 0.62410 0.90940 0.05200
C 	C 	0.36520 0.15280 0.08540 -0.05800
H 	H 	0.41910 0.14520 0.10270 0.04500
H 	H 	0.34960 0.03770 0.07450 0.06100
C 	C 	0.22070 0.24920 0.09200 -0.05800
H 	H 	0.19750 0.13950 0.08100 0.04700
H 	H 	0.18220 0.30180 0.11350 0.03200
C 	C 	0.37160 0.26800 0.04160 -0.05200
H 	H 	0.40840 0.21520 0.01910 0.05300
H 	H 	0.39570 0.37740 0.05210 0.04900
C 	C 	0.22940 0.36310 0.04870 -0.05200
H 	H 	0.24480 0.47820 0.05980 0.04900
H 	H 	0.17630 0.37110 0.03040 0.05100
C 	C 	0.61370 0.42710 0.79070 0.34800
C 	C 	0.88850 0.47790 0.80620 0.46700
Ce	Ce	0.72396 0.62857 0.73388 2.17100
N 	N 	0.20820 0.36750 0.94860 -0.16200
N 	N 	0.13130 0.43500 0.87770 -0.11300
N 	N 	0.35010 0.28450 0.94250 -0.16500
N 	N 	0.26430 0.33400 0.86950 -0.16100
N 	N 	0.40250 0.25900 0.86530 -0.12100
N 	N 	0.29170 0.29930 0.01640 -0.12000
O 	O 	0.28290 0.15250 0.20580 -0.63900
O 	O 	0.28610 0.93420 0.15520 -0.46600
O 	O 	0.84820 0.59430 0.78420 -0.54400
O 	O 	0.59800 0.58250 0.78060 -0.45000
O 	O 	0.68770 0.37270 0.78420 -0.61900
O 	O 	0.86500 0.32310 0.80700 -0.55500
