data_crystal

_cell_length_a 17.44600
_cell_length_b 18.76200
_cell_length_c 27.75800
_cell_angle_alpha 90.00000
_cell_angle_beta  90.00000
_cell_angle_gamma 90.00000

_symmetry_space_group_name_	'P 1'
_symmetry_space_group_name_H-M	'P 1'

loop_
_symmetry_equiv_pos_as_xyz
  x,y,z

loop_
_atom_site_label
_atom_site_type_symbol
_atom_site_fract_x
_atom_site_fract_y
_atom_site_fract_z
_atom_site_charge
Co	Co	0.50656 0.96678 0.68287 1.15900
Co	Co	0.99344 0.46678 0.31713 1.15900
Co	Co	0.50656 0.96678 0.81713 1.15900
Co	Co	0.99344 0.46678 0.18287 1.15800
Co	Co	0.61866 0.85474 0.75000 1.17300
Co	Co	0.88134 0.35474 0.25000 1.17300
H 	H 	0.24300 0.00070 0.68280 0.03900
H 	H 	0.12570 0.02960 0.65000 0.06600
H 	H 	0.21890 0.05110 0.52150 0.07000
H 	H 	0.33800 0.02550 0.55400 0.03900
H 	H 	0.69040 0.04460 0.59520 0.01700
H 	H 	0.79860 0.08840 0.55820 0.07800
H 	H 	0.92190 0.93470 0.62040 0.08200
H 	H 	0.81610 0.90030 0.66330 0.02000
H 	H 	0.06980 0.31020 0.41330 0.02900
H 	H 	0.08210 0.23350 0.47600 0.07500
H 	H 	0.91360 0.11220 0.42280 0.07700
H 	H 	0.90580 0.18470 0.35680 0.02100
H 	H 	0.02050 0.00960 0.61190 0.06300
H 	H 	0.89170 0.09730 0.50770 0.06500
H 	H 	0.12030 0.12090 0.50680 0.06700
H 	H 	0.25700 0.50070 0.31720 0.03700
H 	H 	0.37430 0.52960 0.35000 0.06500
H 	H 	0.28110 0.55110 0.47850 0.07000
H 	H 	0.16200 0.52550 0.44600 0.03800
H 	H 	0.80960 0.54460 0.40480 0.01500
H 	H 	0.70140 0.58840 0.44180 0.07800
H 	H 	0.57810 0.43470 0.37960 0.08200
H 	H 	0.68390 0.40030 0.33670 0.01800
H 	H 	0.43020 0.81020 0.58670 0.02800
H 	H 	0.41790 0.73350 0.52400 0.07600
H 	H 	0.58640 0.61220 0.57720 0.07800
H 	H 	0.59420 0.68470 0.64320 0.02000
H 	H 	0.47950 0.50960 0.38810 0.06200
H 	H 	0.60830 0.59730 0.49230 0.06400
H 	H 	0.37970 0.62090 0.49320 0.06600
H 	H 	0.24300 0.00070 0.81720 0.03900
H 	H 	0.12570 0.02960 0.85000 0.06400
H 	H 	0.21890 0.05110 0.97850 0.06900
H 	H 	0.33800 0.02550 0.94600 0.03900
H 	H 	0.69040 0.04460 0.90480 0.01600
H 	H 	0.79860 0.08840 0.94180 0.07700
H 	H 	0.92190 0.93470 0.87960 0.08200
H 	H 	0.81610 0.90030 0.83670 0.01900
H 	H 	0.06980 0.31020 0.08670 0.03000
H 	H 	0.08210 0.23350 0.02400 0.07300
H 	H 	0.91360 0.11220 0.07720 0.07500
H 	H 	0.90580 0.18470 0.14320 0.02200
H 	H 	0.02050 0.00960 0.88810 0.06400
H 	H 	0.89170 0.09730 0.99230 0.06700
H 	H 	0.12030 0.12090 0.99320 0.06900
H 	H 	0.25700 0.50070 0.18280 0.03700
H 	H 	0.37430 0.52960 0.15000 0.06600
H 	H 	0.28110 0.55110 0.02150 0.07000
H 	H 	0.16200 0.52550 0.05400 0.03800
H 	H 	0.80960 0.54460 0.09520 0.01500
H 	H 	0.70140 0.58840 0.05820 0.07800
H 	H 	0.57810 0.43470 0.12040 0.08200
H 	H 	0.68390 0.40030 0.16330 0.01800
H 	H 	0.43020 0.81020 0.91330 0.02800
H 	H 	0.41790 0.73350 0.97600 0.07600
H 	H 	0.58640 0.61220 0.92280 0.07800
H 	H 	0.59420 0.68470 0.85680 0.02000
H 	H 	0.47950 0.50960 0.11190 0.06200
H 	H 	0.60830 0.59730 0.00770 0.06400
H 	H 	0.37970 0.62090 0.00680 0.06600
C 	C 	0.38110 0.99920 0.64470 0.31700
C 	C 	0.30380 0.01380 0.62208 -0.09300
C 	C 	0.23940 0.01250 0.65030 0.02600
C 	C 	0.16860 0.02900 0.63020 -0.10700
C 	C 	0.15990 0.04400 0.58279 0.04400
C 	C 	0.22340 0.04210 0.55440 -0.10700
C 	C 	0.29530 0.02680 0.57400 0.02800
C 	C 	0.67340 0.94860 0.66508 0.42500
C 	C 	0.74210 0.97180 0.63558 -0.15400
C 	C 	0.73790 0.02470 0.60240 0.07200
C 	C 	0.80270 0.04980 0.57900 -0.13800
C 	C 	0.87320 0.01820 0.58621 0.06300
C 	C 	0.87620 0.95960 0.61683 -0.13600
C 	C 	0.81230 0.93810 0.64182 0.07200
C 	C 	0.97530 0.30830 0.33735 0.40900
C 	C 	0.98470 0.25670 0.37750 -0.14000
C 	C 	0.03880 0.27000 0.41480 0.06000
C 	C 	0.04530 0.22440 0.45256 -0.12400
C 	C 	0.99931 0.16510 0.45724 0.05400
C 	C 	0.94570 0.15160 0.42051 -0.13000
C 	C 	0.94010 0.19580 0.38128 0.06300
C 	C 	0.08260 0.06010 0.56128 0.03800
C 	C 	0.01680 0.03480 0.58312 -0.10000
C 	C 	0.94360 0.04690 0.56214 0.03100
C 	C 	0.93940 0.08840 0.52137 -0.10000
C 	C 	0.00490 0.11780 0.49990 0.03700
C 	C 	0.07610 0.10230 0.52068 -0.10400
C 	C 	0.11890 0.49920 0.35530 0.31800
C 	C 	0.19620 0.51380 0.37792 -0.09500
C 	C 	0.26060 0.51250 0.34970 0.02700
C 	C 	0.33140 0.52900 0.36980 -0.10800
C 	C 	0.34010 0.54400 0.41721 0.04500
C 	C 	0.27660 0.54210 0.44560 -0.10800
C 	C 	0.20470 0.52680 0.42600 0.02900
C 	C 	0.82660 0.44860 0.33492 0.42500
C 	C 	0.75790 0.47180 0.36442 -0.15700
C 	C 	0.76210 0.52470 0.39760 0.07600
C 	C 	0.69730 0.54980 0.42100 -0.14100
C 	C 	0.62680 0.51820 0.41379 0.06700
C 	C 	0.62380 0.45960 0.38317 -0.14000
C 	C 	0.68770 0.43810 0.35818 0.07400
C 	C 	0.52470 0.80830 0.66265 0.41100
C 	C 	0.51530 0.75670 0.62250 -0.14100
C 	C 	0.46120 0.77000 0.58520 0.06200
C 	C 	0.45470 0.72440 0.54744 -0.12800
C 	C 	0.50069 0.66510 0.54276 0.05900
C 	C 	0.55430 0.65160 0.57949 -0.13300
C 	C 	0.55990 0.69580 0.61872 0.06500
C 	C 	0.41740 0.56010 0.43872 0.03600
C 	C 	0.48320 0.53480 0.41688 -0.10000
C 	C 	0.55640 0.54690 0.43786 0.02900
C 	C 	0.56060 0.58840 0.47863 -0.09600
C 	C 	0.49510 0.61780 0.50010 0.03100
C 	C 	0.42390 0.60230 0.47932 -0.10100
C 	C 	0.38110 0.99920 0.85530 0.31500
C 	C 	0.30380 0.01380 0.87792 -0.09200
C 	C 	0.23940 0.01250 0.84970 0.02400
C 	C 	0.16860 0.02900 0.86980 -0.10400
C 	C 	0.15990 0.04400 0.91721 0.04100
C 	C 	0.22340 0.04210 0.94560 -0.10500
C 	C 	0.29530 0.02680 0.92600 0.02600
C 	C 	0.67340 0.94860 0.83492 0.42500
C 	C 	0.74210 0.97180 0.86442 -0.15500
C 	C 	0.73790 0.02470 0.89760 0.07300
C 	C 	0.80270 0.04980 0.92100 -0.13800
C 	C 	0.87320 0.01820 0.91379 0.06300
C 	C 	0.87620 0.95960 0.88317 -0.13600
C 	C 	0.81230 0.93810 0.85818 0.07200
C 	C 	0.97530 0.30830 0.16265 0.40800
C 	C 	0.98470 0.25670 0.12250 -0.13900
C 	C 	0.03880 0.27000 0.08520 0.05800
C 	C 	0.04530 0.22440 0.04744 -0.11800
C 	C 	0.99931 0.16510 0.04276 0.04700
C 	C 	0.94570 0.15160 0.07949 -0.12600
C 	C 	0.94010 0.19580 0.11872 0.05900
C 	C 	0.08260 0.06010 0.93872 0.04100
C 	C 	0.01680 0.03480 0.91688 -0.10500
C 	C 	0.94360 0.04690 0.93786 0.03400
C 	C 	0.93940 0.08840 0.97863 -0.10400
C 	C 	0.00490 0.11780 0.00010 0.04300
C 	C 	0.07610 0.10230 0.97932 -0.11000
C 	C 	0.11890 0.49920 0.14470 0.31800
C 	C 	0.19620 0.51380 0.12208 -0.09500
C 	C 	0.26060 0.51250 0.15030 0.02700
C 	C 	0.33140 0.52900 0.13020 -0.10800
C 	C 	0.34010 0.54400 0.08279 0.04500
C 	C 	0.27660 0.54210 0.05440 -0.10800
C 	C 	0.20470 0.52680 0.07400 0.02900
C 	C 	0.82660 0.44860 0.16508 0.42600
C 	C 	0.75790 0.47180 0.13558 -0.15700
C 	C 	0.76210 0.52470 0.10240 0.07600
C 	C 	0.69730 0.54980 0.07900 -0.14100
C 	C 	0.62680 0.51820 0.08621 0.06700
C 	C 	0.62380 0.45960 0.11683 -0.14000
C 	C 	0.68770 0.43810 0.14182 0.07400
C 	C 	0.52470 0.80830 0.83735 0.41100
C 	C 	0.51530 0.75670 0.87750 -0.14100
C 	C 	0.46120 0.77000 0.91480 0.06200
C 	C 	0.45470 0.72440 0.95256 -0.12900
C 	C 	0.50069 0.66510 0.95724 0.05900
C 	C 	0.55430 0.65160 0.92051 -0.13300
C 	C 	0.55990 0.69580 0.88128 0.06500
C 	C 	0.41740 0.56010 0.06128 0.03500
C 	C 	0.48320 0.53480 0.08312 -0.09900
C 	C 	0.55640 0.54690 0.06214 0.02900
C 	C 	0.56060 0.58840 0.02137 -0.09500
C 	C 	0.49510 0.61780 0.99990 0.03100
C 	C 	0.42390 0.60230 0.02068 -0.10100
O 	O 	0.43953 0.00410 0.61873 -0.36200
O 	O 	0.38491 0.98010 0.68706 -0.39000
O 	O 	0.68344 0.90770 0.69869 -0.46500
O 	O 	0.60979 0.97210 0.65134 -0.47200
O 	O 	0.93084 0.29303 0.30400 -0.43500
O 	O 	0.01320 0.36460 0.34021 -0.42200
O 	O 	0.06047 0.50410 0.38127 -0.36200
O 	O 	0.11509 0.48010 0.31294 -0.39000
O 	O 	0.81656 0.40770 0.30131 -0.46500
O 	O 	0.89021 0.47210 0.34866 -0.47200
O 	O 	0.56916 0.79303 0.69600 -0.43500
O 	O 	0.48680 0.86460 0.65979 -0.42400
O 	O 	0.43953 0.00410 0.88127 -0.36100
O 	O 	0.38491 0.98010 0.81294 -0.39000
O 	O 	0.68344 0.90770 0.80131 -0.46500
O 	O 	0.60979 0.97210 0.84866 -0.47200
O 	O 	0.93084 0.29303 0.19600 -0.43500
O 	O 	0.01320 0.36460 0.15979 -0.42100
O 	O 	0.06047 0.50410 0.11873 -0.36200
O 	O 	0.11509 0.48010 0.18706 -0.39000
O 	O 	0.81656 0.40770 0.19869 -0.46500
O 	O 	0.89021 0.47210 0.15134 -0.47300
O 	O 	0.56916 0.79303 0.80400 -0.43500
O 	O 	0.48680 0.86460 0.84021 -0.42400
O 	O 	0.52550 0.92770 0.75000 -0.60500
O 	O 	0.97450 0.42770 0.25000 -0.60600
Co	Co	0.49344 0.03322 0.18287 1.15800
Co	Co	0.00656 0.53322 0.81713 1.15700
Co	Co	0.49344 0.03322 0.31713 1.15800
Co	Co	0.00656 0.53322 0.68287 1.15800
Co	Co	0.38134 0.14526 0.25000 1.17200
Co	Co	0.11866 0.64526 0.75000 1.17200
H 	H 	0.75700 0.99930 0.18280 0.03900
H 	H 	0.87430 0.97040 0.15000 0.06400
H 	H 	0.78110 0.94890 0.02150 0.06900
H 	H 	0.66200 0.97450 0.05400 0.03900
H 	H 	0.30960 0.95540 0.09520 0.01600
H 	H 	0.20140 0.91160 0.05820 0.07700
H 	H 	0.07810 0.06530 0.12040 0.08200
H 	H 	0.18390 0.09970 0.16330 0.01900
H 	H 	0.93020 0.68980 0.91330 0.03000
H 	H 	0.91790 0.76650 0.97600 0.07300
H 	H 	0.08640 0.88780 0.92280 0.07500
H 	H 	0.09420 0.81530 0.85680 0.02200
H 	H 	0.97950 0.99040 0.11190 0.06400
H 	H 	0.10830 0.90270 0.00770 0.06700
H 	H 	0.87970 0.87910 0.00680 0.06900
H 	H 	0.74300 0.49930 0.81720 0.03700
H 	H 	0.62570 0.47040 0.85000 0.06600
H 	H 	0.71890 0.44890 0.97850 0.07000
H 	H 	0.83800 0.47450 0.94600 0.03800
H 	H 	0.19040 0.45540 0.90480 0.01500
H 	H 	0.29860 0.41160 0.94180 0.07800
H 	H 	0.42190 0.56530 0.87960 0.08200
H 	H 	0.31610 0.59970 0.83670 0.01800
H 	H 	0.56980 0.18980 0.08670 0.02800
H 	H 	0.58210 0.26650 0.02400 0.07600
H 	H 	0.41360 0.38780 0.07720 0.07800
H 	H 	0.40580 0.31530 0.14320 0.02000
H 	H 	0.52050 0.49040 0.88810 0.06200
H 	H 	0.39170 0.40270 0.99230 0.06400
H 	H 	0.62030 0.37910 0.99320 0.06600
H 	H 	0.75700 0.99930 0.31720 0.03800
H 	H 	0.87430 0.97040 0.35000 0.06500
H 	H 	0.78110 0.94890 0.47850 0.06900
H 	H 	0.66200 0.97450 0.44600 0.03800
H 	H 	0.30960 0.95540 0.40480 0.01600
H 	H 	0.20140 0.91160 0.44180 0.07700
H 	H 	0.07810 0.06530 0.37960 0.08100
H 	H 	0.18390 0.09970 0.33670 0.01900
H 	H 	0.93020 0.68980 0.58670 0.02900
H 	H 	0.91790 0.76650 0.52400 0.07500
H 	H 	0.08640 0.88780 0.57720 0.07700
H 	H 	0.09420 0.81530 0.64320 0.02100
H 	H 	0.97950 0.99040 0.38810 0.06300
H 	H 	0.10830 0.90270 0.49230 0.06500
H 	H 	0.87970 0.87910 0.49320 0.06700
H 	H 	0.74300 0.49930 0.68280 0.03700
H 	H 	0.62570 0.47040 0.65000 0.06500
H 	H 	0.71890 0.44890 0.52150 0.07000
H 	H 	0.83800 0.47450 0.55400 0.03800
H 	H 	0.19040 0.45540 0.59520 0.01500
H 	H 	0.29860 0.41160 0.55820 0.07800
H 	H 	0.42190 0.56530 0.62040 0.08200
H 	H 	0.31610 0.59970 0.66330 0.01800
H 	H 	0.56980 0.18980 0.41330 0.02800
H 	H 	0.58210 0.26650 0.47600 0.07600
H 	H 	0.41360 0.38780 0.42280 0.07800
H 	H 	0.40580 0.31530 0.35680 0.02000
H 	H 	0.52050 0.49040 0.61190 0.06200
H 	H 	0.39170 0.40270 0.50770 0.06400
H 	H 	0.62030 0.37910 0.50680 0.06600
C 	C 	0.61890 0.00080 0.14470 0.31500
C 	C 	0.69620 0.98620 0.12208 -0.09200
C 	C 	0.76060 0.98750 0.15030 0.02400
C 	C 	0.83140 0.97100 0.13020 -0.10400
C 	C 	0.84010 0.95600 0.08279 0.04100
C 	C 	0.77660 0.95790 0.05440 -0.10500
C 	C 	0.70470 0.97320 0.07400 0.02600
C 	C 	0.32660 0.05140 0.16508 0.42500
C 	C 	0.25790 0.02820 0.13558 -0.15500
C 	C 	0.26210 0.97530 0.10240 0.07300
C 	C 	0.19730 0.95020 0.07900 -0.13800
C 	C 	0.12680 0.98180 0.08621 0.06300
C 	C 	0.12380 0.04040 0.11683 -0.13600
C 	C 	0.18770 0.06190 0.14182 0.07200
C 	C 	0.02470 0.69170 0.83735 0.40800
C 	C 	0.01530 0.74330 0.87750 -0.13900
C 	C 	0.96120 0.73000 0.91480 0.05800
C 	C 	0.95470 0.77560 0.95256 -0.11800
C 	C 	0.00069 0.83490 0.95724 0.04700
C 	C 	0.05430 0.84840 0.92051 -0.12600
C 	C 	0.05990 0.80420 0.88128 0.05900
C 	C 	0.91740 0.93990 0.06128 0.04100
C 	C 	0.98320 0.96520 0.08312 -0.10500
C 	C 	0.05640 0.95310 0.06214 0.03400
C 	C 	0.06060 0.91160 0.02137 -0.10400
C 	C 	0.99510 0.88220 0.99990 0.04300
C 	C 	0.92390 0.89770 0.02068 -0.11000
C 	C 	0.88110 0.50080 0.85530 0.31800
C 	C 	0.80380 0.48620 0.87792 -0.09500
C 	C 	0.73940 0.48750 0.84970 0.02700
C 	C 	0.66860 0.47100 0.86980 -0.10800
C 	C 	0.65990 0.45600 0.91721 0.04500
C 	C 	0.72340 0.45790 0.94560 -0.10800
C 	C 	0.79530 0.47320 0.92600 0.02900
C 	C 	0.17340 0.55140 0.83492 0.42600
C 	C 	0.24210 0.52820 0.86442 -0.15700
C 	C 	0.23790 0.47530 0.89760 0.07600
C 	C 	0.30270 0.45020 0.92100 -0.14100
C 	C 	0.37320 0.48180 0.91379 0.06700
C 	C 	0.37620 0.54040 0.88317 -0.14000
C 	C 	0.31230 0.56190 0.85818 0.07400
C 	C 	0.47530 0.19170 0.16265 0.41100
C 	C 	0.48470 0.24330 0.12250 -0.14100
C 	C 	0.53880 0.23000 0.08520 0.06200
C 	C 	0.54530 0.27560 0.04744 -0.12900
C 	C 	0.49931 0.33490 0.04276 0.05900
C 	C 	0.44570 0.34840 0.07949 -0.13300
C 	C 	0.44010 0.30420 0.11872 0.06500
C 	C 	0.58260 0.43990 0.93872 0.03500
C 	C 	0.51680 0.46520 0.91688 -0.09900
C 	C 	0.44360 0.45310 0.93786 0.02900
C 	C 	0.43940 0.41160 0.97863 -0.09500
C 	C 	0.50490 0.38220 0.00010 0.03100
C 	C 	0.57610 0.39770 0.97932 -0.10100
C 	C 	0.61890 0.00080 0.35530 0.31700
C 	C 	0.69620 0.98620 0.37792 -0.09300
C 	C 	0.76060 0.98750 0.34970 0.02600
C 	C 	0.83140 0.97100 0.36980 -0.10700
C 	C 	0.84010 0.95600 0.41721 0.04400
C 	C 	0.77660 0.95790 0.44560 -0.10700
C 	C 	0.70470 0.97320 0.42600 0.02800
C 	C 	0.32660 0.05140 0.33492 0.42500
C 	C 	0.25790 0.02820 0.36442 -0.15400
C 	C 	0.26210 0.97530 0.39760 0.07200
C 	C 	0.19730 0.95020 0.42100 -0.13800
C 	C 	0.12680 0.98180 0.41379 0.06300
C 	C 	0.12380 0.04040 0.38317 -0.13600
C 	C 	0.18770 0.06190 0.35818 0.07200
C 	C 	0.02470 0.69170 0.66265 0.40900
C 	C 	0.01530 0.74330 0.62250 -0.14000
C 	C 	0.96120 0.73000 0.58520 0.06000
C 	C 	0.95470 0.77560 0.54744 -0.12400
C 	C 	0.00069 0.83490 0.54276 0.05400
C 	C 	0.05430 0.84840 0.57949 -0.13000
C 	C 	0.05990 0.80420 0.61872 0.06300
C 	C 	0.91740 0.93990 0.43872 0.03800
C 	C 	0.98320 0.96520 0.41688 -0.10000
C 	C 	0.05640 0.95310 0.43786 0.03100
C 	C 	0.06060 0.91160 0.47863 -0.10000
C 	C 	0.99510 0.88220 0.50010 0.03700
C 	C 	0.92390 0.89770 0.47932 -0.10400
C 	C 	0.88110 0.50080 0.64470 0.31800
C 	C 	0.80380 0.48620 0.62208 -0.09500
C 	C 	0.73940 0.48750 0.65030 0.02700
C 	C 	0.66860 0.47100 0.63020 -0.10800
C 	C 	0.65990 0.45600 0.58279 0.04500
C 	C 	0.72340 0.45790 0.55440 -0.10800
C 	C 	0.79530 0.47320 0.57400 0.02900
C 	C 	0.17340 0.55140 0.66508 0.42500
C 	C 	0.24210 0.52820 0.63558 -0.15700
C 	C 	0.23790 0.47530 0.60240 0.07600
C 	C 	0.30270 0.45020 0.57900 -0.14100
C 	C 	0.37320 0.48180 0.58621 0.06700
C 	C 	0.37620 0.54040 0.61683 -0.14000
C 	C 	0.31230 0.56190 0.64182 0.07400
C 	C 	0.47530 0.19170 0.33735 0.41100
C 	C 	0.48470 0.24330 0.37750 -0.14100
C 	C 	0.53880 0.23000 0.41480 0.06200
C 	C 	0.54530 0.27560 0.45256 -0.12800
C 	C 	0.49931 0.33490 0.45724 0.05900
C 	C 	0.44570 0.34840 0.42051 -0.13300
C 	C 	0.44010 0.30420 0.38128 0.06500
C 	C 	0.58260 0.43990 0.56128 0.03600
C 	C 	0.51680 0.46520 0.58312 -0.10000
C 	C 	0.44360 0.45310 0.56214 0.02900
C 	C 	0.43940 0.41160 0.52137 -0.09600
C 	C 	0.50490 0.38220 0.49990 0.03100
C 	C 	0.57610 0.39770 0.52068 -0.10100
O 	O 	0.56047 0.99590 0.11873 -0.36100
O 	O 	0.61509 0.01990 0.18706 -0.39000
O 	O 	0.31656 0.09230 0.19869 -0.46500
O 	O 	0.39021 0.02790 0.15134 -0.47200
O 	O 	0.06916 0.70697 0.80400 -0.43500
O 	O 	0.98680 0.63540 0.84021 -0.42100
O 	O 	0.93953 0.49590 0.88127 -0.36200
O 	O 	0.88491 0.51990 0.81294 -0.39000
O 	O 	0.18344 0.59230 0.80131 -0.46500
O 	O 	0.10979 0.52790 0.84866 -0.47300
O 	O 	0.43084 0.20697 0.19600 -0.43500
O 	O 	0.51320 0.13540 0.15979 -0.42400
O 	O 	0.56047 0.99590 0.38127 -0.36200
O 	O 	0.61509 0.01990 0.31294 -0.39000
O 	O 	0.31656 0.09230 0.30131 -0.46500
O 	O 	0.39021 0.02790 0.34866 -0.47200
O 	O 	0.06916 0.70697 0.69600 -0.43500
O 	O 	0.98680 0.63540 0.65979 -0.42200
O 	O 	0.93953 0.49590 0.61873 -0.36200
O 	O 	0.88491 0.51990 0.68706 -0.39000
O 	O 	0.18344 0.59230 0.69869 -0.46500
O 	O 	0.10979 0.52790 0.65134 -0.47200
O 	O 	0.43084 0.20697 0.30400 -0.43500
O 	O 	0.51320 0.13540 0.34021 -0.42400
O 	O 	0.47450 0.07230 0.25000 -0.60500
O 	O 	0.02550 0.57230 0.75000 -0.60600
