data_crystal

_cell_length_a 17.56400
_cell_length_b 25.62900
_cell_length_c 20.80000
_cell_angle_alpha 90.00000
_cell_angle_beta  90.00000
_cell_angle_gamma 90.00000

_symmetry_space_group_name_	'P 1'
_symmetry_space_group_name_H-M	'P 1'

loop_
_symmetry_equiv_pos_as_xyz
  x,y,z

loop_
_atom_site_label
_atom_site_type_symbol
_atom_site_fract_x
_atom_site_fract_y
_atom_site_fract_z
_atom_site_charge
Co	Co	0.99689 0.68198 0.56165 1.16800
O 	O 	0.06700 0.62160 0.51710 -0.41600
O 	O 	0.11980 0.68640 0.55880 -0.41900
O 	O 	0.82700 0.69552 0.61470 -0.51700
O 	O 	0.89500 0.65940 0.53560 -0.45500
O 	O 	0.56430 0.30783 0.21720 -0.42400
O 	O 	0.49550 0.35590 0.14710 -0.41000
C 	C 	0.12030 0.64860 0.52680 0.41100
C 	C 	0.20080 0.62770 0.50970 -0.16000
C 	C 	0.26060 0.65600 0.51390 0.09500
H 	H 	0.25480 0.68930 0.53090 0.01700
C 	C 	0.33320 0.64120 0.49520 -0.15900
H 	H 	0.37400 0.66420 0.49800 0.08400
C 	C 	0.34240 0.59210 0.47270 0.07600
C 	C 	0.28240 0.55780 0.47290 -0.14700
H 	H 	0.28790 0.52320 0.46030 0.08400
C 	C 	0.21110 0.57850 0.49370 0.08000
H 	H 	0.16960 0.55600 0.49590 0.02300
C 	C 	0.83130 0.66970 0.57230 0.43300
C 	C 	0.76200 0.64120 0.53690 -0.12700
C 	C 	0.76420 0.61470 0.48380 0.05700
H 	H 	0.81080 0.60990 0.46330 0.02500
C 	C 	0.69750 0.59260 0.45590 -0.12000
H 	H 	0.69880 0.57790 0.41500 0.07200
C 	C 	0.62970 0.59380 0.49160 0.05000
C 	C 	0.62940 0.61960 0.54910 -0.11600
H 	H 	0.58430 0.62200 0.57230 0.07400
C 	C 	0.69510 0.64230 0.57370 0.04200
H 	H 	0.69470 0.65810 0.61400 0.02900
C 	C 	0.52430 0.34670 0.20300 0.38100
C 	C 	0.51550 0.38600 0.25350 -0.13400
C 	C 	0.46060 0.42690 0.24530 0.05100
H 	H 	0.42860 0.42690 0.20960 0.03100
C 	C 	0.45540 0.46510 0.28890 -0.11300
H 	H 	0.42010 0.49150 0.28200 0.07200
C 	C 	0.50140 0.46760 0.34600 0.04200
C 	C 	0.55670 0.42520 0.35220 -0.12100
H 	H 	0.58910 0.42390 0.38750 0.07500
C 	C 	0.56050 0.38760 0.30590 0.06300
H 	H 	0.59670 0.36140 0.31080 0.02300
C 	C 	0.42090 0.57020 0.45330 0.03300
C 	C 	0.48650 0.59040 0.47960 -0.10100
H 	H 	0.48250 0.61730 0.50940 0.06400
C 	C 	0.55950 0.57180 0.46320 0.03800
C 	C 	0.56300 0.53160 0.42180 -0.10100
H 	H 	0.61030 0.51720 0.41260 0.06700
C 	C 	0.49640 0.50960 0.39100 0.03500
C 	C 	0.42700 0.53070 0.41170 -0.10100
H 	H 	0.38240 0.51620 0.39550 0.06600
Co	Co	0.50311 0.31802 0.06165 1.16900
O 	O 	0.43300 0.37840 0.01710 -0.41500
O 	O 	0.38020 0.31360 0.05880 -0.42000
O 	O 	0.67300 0.30448 0.11470 -0.51600
O 	O 	0.60500 0.34060 0.03560 -0.45400
O 	O 	0.93570 0.69217 0.71720 -0.42300
O 	O 	0.00450 0.64410 0.64710 -0.40800
C 	C 	0.37970 0.35140 0.02680 0.41100
C 	C 	0.29920 0.37230 0.00970 -0.16000
C 	C 	0.23940 0.34400 0.01390 0.09400
H 	H 	0.24520 0.31070 0.03090 0.01700
C 	C 	0.16680 0.35880 0.99520 -0.15800
H 	H 	0.12600 0.33580 0.99800 0.08400
C 	C 	0.15760 0.40790 0.97270 0.07600
C 	C 	0.21760 0.44220 0.97290 -0.14800
H 	H 	0.21210 0.47680 0.96030 0.08400
C 	C 	0.28890 0.42150 0.99370 0.08100
H 	H 	0.33040 0.44400 0.99590 0.02300
C 	C 	0.66870 0.33030 0.07230 0.43200
C 	C 	0.73800 0.35880 0.03690 -0.12300
C 	C 	0.73580 0.38530 0.98380 0.05300
H 	H 	0.68920 0.39010 0.96330 0.02700
C 	C 	0.80250 0.40740 0.95590 -0.11800
H 	H 	0.80120 0.42210 0.91500 0.07100
C 	C 	0.87030 0.40620 0.99160 0.04700
C 	C 	0.87060 0.38040 0.04910 -0.11200
H 	H 	0.91570 0.37800 0.07230 0.07300
C 	C 	0.80490 0.35770 0.07370 0.03900
H 	H 	0.80530 0.34190 0.11400 0.03000
C 	C 	0.97570 0.65330 0.70300 0.38000
C 	C 	0.98450 0.61400 0.75350 -0.13400
C 	C 	0.03940 0.57310 0.74530 0.05100
H 	H 	0.07140 0.57310 0.70960 0.03100
C 	C 	0.04460 0.53490 0.78890 -0.11000
H 	H 	0.07990 0.50850 0.78200 0.07100
C 	C 	0.99860 0.53240 0.84600 0.03700
C 	C 	0.94330 0.57480 0.85220 -0.11900
H 	H 	0.91090 0.57610 0.88750 0.07400
C 	C 	0.93950 0.61240 0.80590 0.06100
H 	H 	0.90330 0.63860 0.81080 0.02300
C 	C 	0.07910 0.42980 0.95330 0.03200
C 	C 	0.01350 0.40960 0.97960 -0.09600
H 	H 	0.01750 0.38270 0.00940 0.06100
C 	C 	0.94050 0.42820 0.96320 0.03800
C 	C 	0.93700 0.46840 0.92180 -0.10400
H 	H 	0.88970 0.48280 0.91260 0.06800
C 	C 	0.00360 0.49040 0.89100 0.03900
C 	C 	0.07300 0.46930 0.91170 -0.10200
H 	H 	0.11760 0.48380 0.89550 0.06700
Co	Co	0.99689 0.81802 0.56165 1.16800
O 	O 	0.06700 0.87840 0.51710 -0.41400
O 	O 	0.11980 0.81360 0.55880 -0.41900
O 	O 	0.82700 0.80448 0.61470 -0.51700
O 	O 	0.89500 0.84060 0.53560 -0.45500
O 	O 	0.56430 0.19217 0.21720 -0.42400
O 	O 	0.49550 0.14410 0.14710 -0.41000
C 	C 	0.12030 0.85140 0.52680 0.41000
C 	C 	0.20080 0.87230 0.50970 -0.15900
C 	C 	0.26060 0.84400 0.51390 0.09500
H 	H 	0.25480 0.81070 0.53090 0.01700
C 	C 	0.33320 0.85880 0.49520 -0.15900
H 	H 	0.37400 0.83580 0.49800 0.08400
C 	C 	0.34240 0.90790 0.47270 0.07600
C 	C 	0.28240 0.94220 0.47290 -0.14700
H 	H 	0.28790 0.97680 0.46030 0.08400
C 	C 	0.21110 0.92150 0.49370 0.08000
H 	H 	0.16960 0.94400 0.49590 0.02400
C 	C 	0.83130 0.83030 0.57230 0.43300
C 	C 	0.76200 0.85880 0.53690 -0.12700
C 	C 	0.76420 0.88530 0.48380 0.05700
H 	H 	0.81080 0.89010 0.46330 0.02500
C 	C 	0.69750 0.90740 0.45590 -0.12000
H 	H 	0.69880 0.92210 0.41500 0.07200
C 	C 	0.62970 0.90620 0.49160 0.05000
C 	C 	0.62940 0.88040 0.54910 -0.11700
H 	H 	0.58430 0.87800 0.57230 0.07400
C 	C 	0.69510 0.85770 0.57370 0.04200
H 	H 	0.69470 0.84190 0.61400 0.02900
C 	C 	0.52430 0.15330 0.20300 0.38100
C 	C 	0.51550 0.11400 0.25350 -0.13400
C 	C 	0.46060 0.07310 0.24530 0.05100
H 	H 	0.42860 0.07310 0.20960 0.03100
C 	C 	0.45540 0.03490 0.28890 -0.11300
H 	H 	0.42010 0.00850 0.28200 0.07200
C 	C 	0.50140 0.03240 0.34600 0.04200
C 	C 	0.55670 0.07480 0.35220 -0.12100
H 	H 	0.58910 0.07610 0.38750 0.07500
C 	C 	0.56050 0.11240 0.30590 0.06300
H 	H 	0.59670 0.13860 0.31080 0.02300
C 	C 	0.42090 0.92980 0.45330 0.03300
C 	C 	0.48650 0.90960 0.47960 -0.10100
H 	H 	0.48250 0.88270 0.50940 0.06400
C 	C 	0.55950 0.92820 0.46320 0.03800
C 	C 	0.56300 0.96840 0.42180 -0.10100
H 	H 	0.61030 0.98280 0.41260 0.06700
C 	C 	0.49640 0.99040 0.39100 0.03500
C 	C 	0.42700 0.96930 0.41170 -0.10100
H 	H 	0.38240 0.98380 0.39550 0.06600
Co	Co	0.50311 0.18198 0.06165 1.16900
O 	O 	0.43300 0.12160 0.01710 -0.41500
O 	O 	0.38020 0.18640 0.05880 -0.42000
O 	O 	0.67300 0.19552 0.11470 -0.51600
O 	O 	0.60500 0.15940 0.03560 -0.45400
O 	O 	0.93570 0.80783 0.71720 -0.42300
O 	O 	0.00450 0.85590 0.64710 -0.40700
C 	C 	0.37970 0.14860 0.02680 0.41100
C 	C 	0.29920 0.12770 0.00970 -0.16000
C 	C 	0.23940 0.15600 0.01390 0.09300
H 	H 	0.24520 0.18930 0.03090 0.01700
C 	C 	0.16680 0.14120 0.99520 -0.15800
H 	H 	0.12600 0.16420 0.99800 0.08400
C 	C 	0.15760 0.09210 0.97270 0.07600
C 	C 	0.21760 0.05780 0.97290 -0.14700
H 	H 	0.21210 0.02320 0.96030 0.08400
C 	C 	0.28890 0.07850 0.99370 0.08000
H 	H 	0.33040 0.05600 0.99590 0.02300
C 	C 	0.66870 0.16970 0.07230 0.43200
C 	C 	0.73800 0.14120 0.03690 -0.12300
C 	C 	0.73580 0.11470 0.98380 0.05300
H 	H 	0.68920 0.10990 0.96330 0.02700
C 	C 	0.80250 0.09260 0.95590 -0.11700
H 	H 	0.80120 0.07790 0.91500 0.07100
C 	C 	0.87030 0.09380 0.99160 0.04600
C 	C 	0.87060 0.11960 0.04910 -0.11200
H 	H 	0.91570 0.12200 0.07230 0.07400
C 	C 	0.80490 0.14230 0.07370 0.03900
H 	H 	0.80530 0.15810 0.11400 0.03000
C 	C 	0.97570 0.84670 0.70300 0.37900
C 	C 	0.98450 0.88600 0.75350 -0.13500
C 	C 	0.03940 0.92690 0.74530 0.05200
H 	H 	0.07140 0.92690 0.70960 0.03100
C 	C 	0.04460 0.96510 0.78890 -0.10800
H 	H 	0.07990 0.99150 0.78200 0.07100
C 	C 	0.99860 0.96760 0.84600 0.03600
C 	C 	0.94330 0.92520 0.85220 -0.11900
H 	H 	0.91090 0.92390 0.88750 0.07400
C 	C 	0.93950 0.88760 0.80590 0.06100
H 	H 	0.90330 0.86140 0.81080 0.02300
C 	C 	0.07910 0.07020 0.95330 0.03200
C 	C 	0.01350 0.09040 0.97960 -0.09800
H 	H 	0.01750 0.11730 0.00940 0.06100
C 	C 	0.94050 0.07180 0.96320 0.03900
C 	C 	0.93700 0.03160 0.92180 -0.10100
H 	H 	0.88970 0.01720 0.91260 0.06800
C 	C 	0.00360 0.00960 0.89100 0.03700
C 	C 	0.07300 0.03070 0.91170 -0.10200
H 	H 	0.11760 0.01620 0.89550 0.06600
Co	Co	0.88638 0.75000 0.66226 1.18600
O 	O 	0.98120 0.75000 0.60110 -0.63200
Co	Co	0.61362 0.25000 0.16226 1.18600
O 	O 	0.51880 0.25000 0.10110 -0.63100
Co	Co	0.00311 0.18198 0.43835 1.16800
O 	O 	0.93300 0.12160 0.48290 -0.41400
O 	O 	0.88020 0.18640 0.44120 -0.41900
O 	O 	0.17300 0.19552 0.38530 -0.51700
O 	O 	0.10500 0.15940 0.46440 -0.45500
O 	O 	0.43570 0.80783 0.78280 -0.42400
O 	O 	0.50450 0.85590 0.85290 -0.41000
C 	C 	0.87970 0.14860 0.47320 0.41000
C 	C 	0.79920 0.12770 0.49030 -0.15900
C 	C 	0.73940 0.15600 0.48610 0.09500
H 	H 	0.74520 0.18930 0.46910 0.01700
C 	C 	0.66680 0.14120 0.50480 -0.15900
H 	H 	0.62600 0.16420 0.50200 0.08400
C 	C 	0.65760 0.09210 0.52730 0.07600
C 	C 	0.71760 0.05780 0.52710 -0.14700
H 	H 	0.71210 0.02320 0.53970 0.08400
C 	C 	0.78890 0.07850 0.50630 0.08000
H 	H 	0.83040 0.05600 0.50410 0.02400
C 	C 	0.16870 0.16970 0.42770 0.43300
C 	C 	0.23800 0.14120 0.46310 -0.12700
C 	C 	0.23580 0.11470 0.51620 0.05700
H 	H 	0.18920 0.10990 0.53670 0.02500
C 	C 	0.30250 0.09260 0.54410 -0.12000
H 	H 	0.30120 0.07790 0.58500 0.07200
C 	C 	0.37030 0.09380 0.50840 0.05000
C 	C 	0.37060 0.11960 0.45090 -0.11700
H 	H 	0.41570 0.12200 0.42770 0.07400
C 	C 	0.30490 0.14230 0.42630 0.04200
H 	H 	0.30530 0.15810 0.38600 0.02900
C 	C 	0.47570 0.84670 0.79700 0.38100
C 	C 	0.48450 0.88600 0.74650 -0.13400
C 	C 	0.53940 0.92690 0.75470 0.05100
H 	H 	0.57140 0.92690 0.79040 0.03100
C 	C 	0.54460 0.96510 0.71110 -0.11300
H 	H 	0.57990 0.99150 0.71800 0.07200
C 	C 	0.49860 0.96760 0.65400 0.04200
C 	C 	0.44330 0.92520 0.64780 -0.12100
H 	H 	0.41090 0.92390 0.61250 0.07500
C 	C 	0.43950 0.88760 0.69410 0.06300
H 	H 	0.40330 0.86140 0.68920 0.02300
C 	C 	0.57910 0.07020 0.54670 0.03300
C 	C 	0.51350 0.09040 0.52040 -0.10100
H 	H 	0.51750 0.11730 0.49060 0.06400
C 	C 	0.44050 0.07180 0.53680 0.03800
C 	C 	0.43700 0.03160 0.57820 -0.10100
H 	H 	0.38970 0.01720 0.58740 0.06700
C 	C 	0.50360 0.00960 0.60900 0.03500
C 	C 	0.57300 0.03070 0.58830 -0.10100
H 	H 	0.61760 0.01620 0.60450 0.06600
Co	Co	0.49689 0.81802 0.93835 1.16900
O 	O 	0.56700 0.87840 0.98290 -0.41500
O 	O 	0.61980 0.81360 0.94120 -0.42000
O 	O 	0.32700 0.80448 0.88530 -0.51600
O 	O 	0.39500 0.84060 0.96440 -0.45400
O 	O 	0.06430 0.19217 0.28280 -0.42300
O 	O 	0.99550 0.14410 0.35290 -0.40700
C 	C 	0.62030 0.85140 0.97320 0.41100
C 	C 	0.70080 0.87230 0.99030 -0.16000
C 	C 	0.76060 0.84400 0.98610 0.09300
H 	H 	0.75480 0.81070 0.96910 0.01700
C 	C 	0.83320 0.85880 0.00480 -0.15800
H 	H 	0.87400 0.83580 0.00200 0.08400
C 	C 	0.84240 0.90790 0.02730 0.07600
C 	C 	0.78240 0.94220 0.02710 -0.14700
H 	H 	0.78790 0.97680 0.03970 0.08400
C 	C 	0.71110 0.92150 0.00630 0.08000
H 	H 	0.66960 0.94400 0.00410 0.02300
C 	C 	0.33130 0.83030 0.92770 0.43200
C 	C 	0.26200 0.85880 0.96310 -0.12300
C 	C 	0.26420 0.88530 0.01620 0.05300
H 	H 	0.31080 0.89010 0.03670 0.02700
C 	C 	0.19750 0.90740 0.04410 -0.11700
H 	H 	0.19880 0.92210 0.08500 0.07100
C 	C 	0.12970 0.90620 0.00840 0.04600
C 	C 	0.12940 0.88040 0.95090 -0.11200
H 	H 	0.08430 0.87800 0.92770 0.07400
C 	C 	0.19510 0.85770 0.92630 0.03900
H 	H 	0.19470 0.84190 0.88600 0.03000
C 	C 	0.02430 0.15330 0.29700 0.37900
C 	C 	0.01550 0.11400 0.24650 -0.13500
C 	C 	0.96060 0.07310 0.25470 0.05200
H 	H 	0.92860 0.07310 0.29040 0.03100
C 	C 	0.95540 0.03490 0.21110 -0.10800
H 	H 	0.92010 0.00850 0.21800 0.07100
C 	C 	0.00140 0.03240 0.15400 0.03600
C 	C 	0.05670 0.07480 0.14780 -0.11900
H 	H 	0.08910 0.07610 0.11250 0.07400
C 	C 	0.06050 0.11240 0.19410 0.06100
H 	H 	0.09670 0.13860 0.18920 0.02300
C 	C 	0.92090 0.92980 0.04670 0.03200
C 	C 	0.98650 0.90960 0.02040 -0.09800
H 	H 	0.98250 0.88270 0.99060 0.06100
C 	C 	0.05950 0.92820 0.03680 0.03900
C 	C 	0.06300 0.96840 0.07820 -0.10100
H 	H 	0.11030 0.98280 0.08740 0.06800
C 	C 	0.99640 0.99040 0.10900 0.03700
C 	C 	0.92700 0.96930 0.08830 -0.10200
H 	H 	0.88240 0.98380 0.10450 0.06600
Co	Co	0.00311 0.31802 0.43835 1.16900
O 	O 	0.93300 0.37840 0.48290 -0.41500
O 	O 	0.88020 0.31360 0.44120 -0.41900
O 	O 	0.17300 0.30448 0.38530 -0.51700
O 	O 	0.10500 0.34060 0.46440 -0.45500
O 	O 	0.43570 0.69217 0.78280 -0.42400
O 	O 	0.50450 0.64410 0.85290 -0.41000
C 	C 	0.87970 0.35140 0.47320 0.41100
C 	C 	0.79920 0.37230 0.49030 -0.16000
C 	C 	0.73940 0.34400 0.48610 0.09500
H 	H 	0.74520 0.31070 0.46910 0.01700
C 	C 	0.66680 0.35880 0.50480 -0.15900
H 	H 	0.62600 0.33580 0.50200 0.08400
C 	C 	0.65760 0.40790 0.52730 0.07600
C 	C 	0.71760 0.44220 0.52710 -0.14700
H 	H 	0.71210 0.47680 0.53970 0.08400
C 	C 	0.78890 0.42150 0.50630 0.08000
H 	H 	0.83040 0.44400 0.50410 0.02300
C 	C 	0.16870 0.33030 0.42770 0.43300
C 	C 	0.23800 0.35880 0.46310 -0.12700
C 	C 	0.23580 0.38530 0.51620 0.05700
H 	H 	0.18920 0.39010 0.53670 0.02500
C 	C 	0.30250 0.40740 0.54410 -0.12000
H 	H 	0.30120 0.42210 0.58500 0.07200
C 	C 	0.37030 0.40620 0.50840 0.05000
C 	C 	0.37060 0.38040 0.45090 -0.11600
H 	H 	0.41570 0.37800 0.42770 0.07400
C 	C 	0.30490 0.35770 0.42630 0.04200
H 	H 	0.30530 0.34190 0.38600 0.02900
C 	C 	0.47570 0.65330 0.79700 0.38100
C 	C 	0.48450 0.61400 0.74650 -0.13400
C 	C 	0.53940 0.57310 0.75470 0.05100
H 	H 	0.57140 0.57310 0.79040 0.03100
C 	C 	0.54460 0.53490 0.71110 -0.11300
H 	H 	0.57990 0.50850 0.71800 0.07200
C 	C 	0.49860 0.53240 0.65400 0.04200
C 	C 	0.44330 0.57480 0.64780 -0.12100
H 	H 	0.41090 0.57610 0.61250 0.07500
C 	C 	0.43950 0.61240 0.69410 0.06300
H 	H 	0.40330 0.63860 0.68920 0.02300
C 	C 	0.57910 0.42980 0.54670 0.03300
C 	C 	0.51350 0.40960 0.52040 -0.10100
H 	H 	0.51750 0.38270 0.49060 0.06400
C 	C 	0.44050 0.42820 0.53680 0.03800
C 	C 	0.43700 0.46840 0.57820 -0.10100
H 	H 	0.38970 0.48280 0.58740 0.06700
C 	C 	0.50360 0.49040 0.60900 0.03500
C 	C 	0.57300 0.46930 0.58830 -0.10100
H 	H 	0.61760 0.48380 0.60450 0.06600
Co	Co	0.49689 0.68198 0.93835 1.16900
O 	O 	0.56700 0.62160 0.98290 -0.41500
O 	O 	0.61980 0.68640 0.94120 -0.42000
O 	O 	0.32700 0.69552 0.88530 -0.51600
O 	O 	0.39500 0.65940 0.96440 -0.45400
O 	O 	0.06430 0.30783 0.28280 -0.42300
O 	O 	0.99550 0.35590 0.35290 -0.40800
C 	C 	0.62030 0.64860 0.97320 0.41100
C 	C 	0.70080 0.62770 0.99030 -0.16000
C 	C 	0.76060 0.65600 0.98610 0.09400
H 	H 	0.75480 0.68930 0.96910 0.01700
C 	C 	0.83320 0.64120 0.00480 -0.15800
H 	H 	0.87400 0.66420 0.00200 0.08400
C 	C 	0.84240 0.59210 0.02730 0.07600
C 	C 	0.78240 0.55780 0.02710 -0.14800
H 	H 	0.78790 0.52320 0.03970 0.08400
C 	C 	0.71110 0.57850 0.00630 0.08100
H 	H 	0.66960 0.55600 0.00410 0.02300
C 	C 	0.33130 0.66970 0.92770 0.43200
C 	C 	0.26200 0.64120 0.96310 -0.12300
C 	C 	0.26420 0.61470 0.01620 0.05300
H 	H 	0.31080 0.60990 0.03670 0.02700
C 	C 	0.19750 0.59260 0.04410 -0.11800
H 	H 	0.19880 0.57790 0.08500 0.07100
C 	C 	0.12970 0.59380 0.00840 0.04700
C 	C 	0.12940 0.61960 0.95090 -0.11200
H 	H 	0.08430 0.62200 0.92770 0.07300
C 	C 	0.19510 0.64230 0.92630 0.03900
H 	H 	0.19470 0.65810 0.88600 0.03000
C 	C 	0.02430 0.34670 0.29700 0.38000
C 	C 	0.01550 0.38600 0.24650 -0.13400
C 	C 	0.96060 0.42690 0.25470 0.05100
H 	H 	0.92860 0.42690 0.29040 0.03100
C 	C 	0.95540 0.46510 0.21110 -0.11000
H 	H 	0.92010 0.49150 0.21800 0.07100
C 	C 	0.00140 0.46760 0.15400 0.03700
C 	C 	0.05670 0.42520 0.14780 -0.11900
H 	H 	0.08910 0.42390 0.11250 0.07400
C 	C 	0.06050 0.38760 0.19410 0.06100
H 	H 	0.09670 0.36140 0.18920 0.02300
C 	C 	0.92090 0.57020 0.04670 0.03200
C 	C 	0.98650 0.59040 0.02040 -0.09600
H 	H 	0.98250 0.61730 0.99060 0.06100
C 	C 	0.05950 0.57180 0.03680 0.03800
C 	C 	0.06300 0.53160 0.07820 -0.10400
H 	H 	0.11030 0.51720 0.08740 0.06800
C 	C 	0.99640 0.50960 0.10900 0.03900
C 	C 	0.92700 0.53070 0.08830 -0.10200
H 	H 	0.88240 0.51620 0.10450 0.06700
Co	Co	0.11362 0.25000 0.33774 1.18600
O 	O 	0.01880 0.25000 0.39890 -0.63200
Co	Co	0.38638 0.75000 0.83774 1.18600
O 	O 	0.48120 0.75000 0.89890 -0.63100
