data_crystal

_cell_length_a 17.56080
_cell_length_b 20.88040
_cell_length_c 25.34740
_cell_angle_alpha 90.00000
_cell_angle_beta  90.00000
_cell_angle_gamma 90.00000

_symmetry_space_group_name_	'P 1'
_symmetry_space_group_name_H-M	'P 1'

loop_
_symmetry_equiv_pos_as_xyz
  x,y,z

loop_
_atom_site_label
_atom_site_type_symbol
_atom_site_fract_x
_atom_site_fract_y
_atom_site_fract_z
_atom_site_charge
Co	Co	0.49614 0.93507 0.31779 1.16400
Co	Co	0.00386 0.43507 0.68221 1.16400
Co	Co	0.49614 0.93507 0.18221 1.16500
Co	Co	0.00386 0.43507 0.81779 1.16500
Co	Co	0.38685 0.83537 0.25000 1.17900
Co	Co	0.11315 0.33537 0.75000 1.17900
H 	H 	0.75630 0.97040 0.30850 0.04900
H 	H 	0.87580 0.99910 0.33580 0.05400
H 	H 	0.78580 0.04290 0.47410 0.05900
H 	H 	0.66900 0.00550 0.44660 0.05400
H 	H 	0.30710 0.04150 0.38340 0.02300
H 	H 	0.19590 0.08300 0.41790 0.07400
H 	H 	0.08430 0.92600 0.37760 0.07800
H 	H 	0.19240 0.88760 0.33750 0.02500
H 	H 	0.93150 0.28870 0.56950 0.02200
H 	H 	0.92040 0.21600 0.50570 0.07800
H 	H 	0.08800 0.11030 0.57010 0.07800
H 	H 	0.09430 0.18490 0.63850 0.02100
H 	H 	0.98290 0.99150 0.37910 0.07100
H 	H 	0.10890 0.08970 0.48110 0.07200
H 	H 	0.88060 0.10660 0.47980 0.07400
H 	H 	0.74370 0.47040 0.69150 0.04800
H 	H 	0.62420 0.49910 0.66420 0.05700
H 	H 	0.71420 0.54290 0.52590 0.06000
H 	H 	0.83100 0.50550 0.55340 0.05300
H 	H 	0.19290 0.54150 0.61660 0.02200
H 	H 	0.30410 0.58300 0.58210 0.07400
H 	H 	0.41570 0.42600 0.62240 0.07900
H 	H 	0.30760 0.38760 0.66250 0.02400
H 	H 	0.56850 0.78870 0.43050 0.02200
H 	H 	0.57960 0.71600 0.49430 0.07900
H 	H 	0.41200 0.61030 0.42990 0.07900
H 	H 	0.40570 0.68490 0.36150 0.02100
H 	H 	0.51710 0.49150 0.62090 0.07200
H 	H 	0.39110 0.58970 0.51890 0.07100
H 	H 	0.61940 0.60660 0.52020 0.07300
H 	H 	0.75630 0.97040 0.19150 0.04900
H 	H 	0.87580 0.99910 0.16420 0.05400
H 	H 	0.78580 0.04290 0.02590 0.05900
H 	H 	0.66900 0.00550 0.05340 0.05400
H 	H 	0.30710 0.04150 0.11660 0.02300
H 	H 	0.19590 0.08300 0.08210 0.07400
H 	H 	0.08430 0.92600 0.12240 0.07800
H 	H 	0.19240 0.88760 0.16250 0.02500
H 	H 	0.93150 0.28870 0.93050 0.02200
H 	H 	0.92040 0.21600 0.99430 0.07800
H 	H 	0.08800 0.11030 0.92990 0.07800
H 	H 	0.09430 0.18490 0.86150 0.02100
H 	H 	0.98290 0.99150 0.12090 0.07100
H 	H 	0.10890 0.08970 0.01890 0.07100
H 	H 	0.88060 0.10660 0.02020 0.07400
H 	H 	0.74370 0.47040 0.80850 0.04800
H 	H 	0.62420 0.49910 0.83580 0.05700
H 	H 	0.71420 0.54290 0.97410 0.06000
H 	H 	0.83100 0.50550 0.94660 0.05300
H 	H 	0.19290 0.54150 0.88340 0.02200
H 	H 	0.30410 0.58300 0.91790 0.07400
H 	H 	0.41570 0.42600 0.87760 0.07900
H 	H 	0.30760 0.38760 0.83750 0.02400
H 	H 	0.56850 0.78870 0.06950 0.02100
H 	H 	0.57960 0.71600 0.00570 0.07900
H 	H 	0.41200 0.61030 0.07010 0.07900
H 	H 	0.40570 0.68490 0.13850 0.02100
H 	H 	0.51710 0.49150 0.87910 0.07200
H 	H 	0.39110 0.58970 0.98110 0.07100
H 	H 	0.61940 0.60660 0.97980 0.07300
C 	C 	0.61440 0.97150 0.34520 0.34000
C 	C 	0.70140 0.98770 0.37330 -0.03800
C 	C 	0.76250 0.98510 0.34290 -0.01300
C 	C 	0.83440 0.00260 0.35850 -0.07700
C 	C 	0.84260 0.02440 0.40640 0.01800
C 	C 	0.78000 0.02700 0.44000 -0.07700
C 	C 	0.71000 0.00640 0.42340 -0.00900
C 	C 	0.33280 0.93140 0.33040 0.42300
C 	C 	0.26140 0.96050 0.35810 -0.13200
C 	C 	0.26220 0.01800 0.38160 0.06000
C 	C 	0.19570 0.04220 0.40320 -0.12500
C 	C 	0.12850 0.00650 0.40340 0.05500
C 	C 	0.12880 0.95010 0.37890 -0.12700
C 	C 	0.19390 0.92650 0.35530 0.05700
C 	C 	0.02600 0.29470 0.65200 0.41800
C 	C 	0.01550 0.24590 0.61120 -0.15400
C 	C 	0.96270 0.25260 0.57020 0.07900
C 	C 	0.95570 0.20920 0.53250 -0.13200
C 	C 	0.00120 0.15210 0.53170 0.05200
C 	C 	0.05500 0.14510 0.57050 -0.12900
C 	C 	0.06000 0.19140 0.61110 0.06500
C 	C 	0.92130 0.04490 0.42700 0.06300
C 	C 	0.98600 0.02050 0.40690 -0.12300
C 	C 	0.05620 0.03680 0.42600 0.05000
C 	C 	0.06140 0.07880 0.46760 -0.11600
C 	C 	0.99600 0.10500 0.48950 0.04800
C 	C 	0.92510 0.08810 0.46700 -0.12200
C 	C 	0.88560 0.47150 0.65480 0.34000
C 	C 	0.79860 0.48770 0.62670 -0.04000
C 	C 	0.73750 0.48510 0.65710 -0.00800
C 	C 	0.66560 0.50260 0.64150 -0.08300
C 	C 	0.65740 0.52440 0.59360 0.02100
C 	C 	0.72000 0.52700 0.56000 -0.07900
C 	C 	0.79000 0.50640 0.57660 -0.00700
C 	C 	0.16720 0.43140 0.66960 0.42400
C 	C 	0.23860 0.46050 0.64190 -0.13500
C 	C 	0.23780 0.51800 0.61840 0.06300
C 	C 	0.30430 0.54220 0.59680 -0.12700
C 	C 	0.37150 0.50650 0.59660 0.05800
C 	C 	0.37120 0.45010 0.62110 -0.13100
C 	C 	0.30610 0.42650 0.64470 0.06000
C 	C 	0.47400 0.79470 0.34800 0.41800
C 	C 	0.48450 0.74590 0.38880 -0.15400
C 	C 	0.53730 0.75260 0.42980 0.07900
C 	C 	0.54430 0.70920 0.46750 -0.13500
C 	C 	0.49880 0.65210 0.46830 0.05600
C 	C 	0.44500 0.64510 0.42950 -0.13200
C 	C 	0.44000 0.69140 0.38890 0.06700
C 	C 	0.57870 0.54490 0.57300 0.06200
C 	C 	0.51400 0.52050 0.59310 -0.12600
C 	C 	0.44380 0.53680 0.57400 0.05000
C 	C 	0.43860 0.57880 0.53240 -0.11400
C 	C 	0.50400 0.60500 0.51050 0.04400
C 	C 	0.57490 0.58810 0.53300 -0.12000
C 	C 	0.61440 0.97150 0.15480 0.34000
C 	C 	0.70140 0.98770 0.12670 -0.03800
C 	C 	0.76250 0.98510 0.15710 -0.01300
C 	C 	0.83440 0.00260 0.14150 -0.07700
C 	C 	0.84260 0.02440 0.09360 0.01800
C 	C 	0.78000 0.02700 0.06000 -0.07700
C 	C 	0.71000 0.00640 0.07660 -0.00900
C 	C 	0.33280 0.93140 0.16960 0.42300
C 	C 	0.26140 0.96050 0.14190 -0.13200
C 	C 	0.26220 0.01800 0.11840 0.06000
C 	C 	0.19570 0.04220 0.09680 -0.12500
C 	C 	0.12850 0.00650 0.09660 0.05500
C 	C 	0.12880 0.95010 0.12110 -0.12700
C 	C 	0.19390 0.92650 0.14470 0.05700
C 	C 	0.02600 0.29470 0.84800 0.41900
C 	C 	0.01550 0.24590 0.88880 -0.15500
C 	C 	0.96270 0.25260 0.92980 0.07900
C 	C 	0.95570 0.20920 0.96750 -0.13100
C 	C 	0.00120 0.15210 0.96830 0.05100
C 	C 	0.05500 0.14510 0.92950 -0.13000
C 	C 	0.06000 0.19140 0.88890 0.06600
C 	C 	0.92130 0.04490 0.07300 0.06300
C 	C 	0.98600 0.02050 0.09310 -0.12400
C 	C 	0.05620 0.03680 0.07400 0.05000
C 	C 	0.06140 0.07880 0.03240 -0.11500
C 	C 	0.99600 0.10500 0.01050 0.04700
C 	C 	0.92510 0.08810 0.03300 -0.12200
C 	C 	0.88560 0.47150 0.84520 0.34000
C 	C 	0.79860 0.48770 0.87330 -0.03900
C 	C 	0.73750 0.48510 0.84290 -0.00800
C 	C 	0.66560 0.50260 0.85850 -0.08300
C 	C 	0.65740 0.52440 0.90640 0.02100
C 	C 	0.72000 0.52700 0.94000 -0.07900
C 	C 	0.79000 0.50640 0.92340 -0.00700
C 	C 	0.16720 0.43140 0.83040 0.42400
C 	C 	0.23860 0.46050 0.85810 -0.13500
C 	C 	0.23780 0.51800 0.88160 0.06300
C 	C 	0.30430 0.54220 0.90320 -0.12800
C 	C 	0.37150 0.50650 0.90340 0.05800
C 	C 	0.37120 0.45010 0.87890 -0.13100
C 	C 	0.30610 0.42650 0.85530 0.06000
C 	C 	0.47400 0.79470 0.15200 0.41800
C 	C 	0.48450 0.74590 0.11120 -0.15400
C 	C 	0.53730 0.75260 0.07020 0.07900
C 	C 	0.54430 0.70920 0.03250 -0.13500
C 	C 	0.49880 0.65210 0.03170 0.05600
C 	C 	0.44500 0.64510 0.07050 -0.13200
C 	C 	0.44000 0.69140 0.11110 0.06700
C 	C 	0.57870 0.54490 0.92700 0.06200
C 	C 	0.51400 0.52050 0.90690 -0.12600
C 	C 	0.44380 0.53680 0.92600 0.05000
C 	C 	0.43860 0.57880 0.96760 -0.11400
C 	C 	0.50400 0.60500 0.98950 0.04400
C 	C 	0.57490 0.58810 0.96700 -0.12000
O 	O 	0.56560 0.98350 0.37610 -0.39800
O 	O 	0.61980 0.93290 0.31360 -0.40400
O 	O 	0.32630 0.88440 0.30626 -0.48800
O 	O 	0.39390 0.96520 0.33930 -0.46700
O 	O 	0.06330 0.28100 0.69142 -0.44000
O 	O 	0.00010 0.35020 0.64210 -0.42200
O 	O 	0.93440 0.48350 0.62390 -0.39700
O 	O 	0.88020 0.43290 0.68640 -0.40400
O 	O 	0.17370 0.38440 0.69374 -0.48800
O 	O 	0.10610 0.46520 0.66070 -0.46700
O 	O 	0.43670 0.78100 0.30858 -0.44000
O 	O 	0.49990 0.85020 0.35790 -0.42200
O 	O 	0.56560 0.98350 0.12390 -0.39800
O 	O 	0.61980 0.93290 0.18640 -0.40400
O 	O 	0.32630 0.88440 0.19374 -0.48800
O 	O 	0.39390 0.96520 0.16070 -0.46700
O 	O 	0.06330 0.28100 0.80858 -0.44000
O 	O 	0.00010 0.35020 0.85790 -0.42200
O 	O 	0.93440 0.48350 0.87610 -0.39700
O 	O 	0.88020 0.43290 0.81360 -0.40400
O 	O 	0.17370 0.38440 0.80626 -0.48800
O 	O 	0.10610 0.46520 0.83930 -0.46700
O 	O 	0.43670 0.78100 0.19142 -0.44000
O 	O 	0.49990 0.85020 0.14210 -0.42200
O 	O 	0.48210 0.89430 0.25000 -0.64100
O 	O 	0.01790 0.39430 0.75000 -0.64100
Co	Co	0.50386 0.06493 0.81779 1.16500
Co	Co	0.99614 0.56493 0.18221 1.16500
Co	Co	0.50386 0.06493 0.68221 1.16500
Co	Co	0.99614 0.56493 0.31779 1.16500
Co	Co	0.61315 0.16463 0.75000 1.17900
Co	Co	0.88685 0.66463 0.25000 1.17900
H 	H 	0.24370 0.02960 0.80850 0.04900
H 	H 	0.12420 0.00090 0.83580 0.05400
H 	H 	0.21420 0.95710 0.97410 0.05900
H 	H 	0.33100 0.99450 0.94660 0.05400
H 	H 	0.69290 0.95850 0.88340 0.02300
H 	H 	0.80410 0.91700 0.91790 0.07400
H 	H 	0.91570 0.07400 0.87760 0.07800
H 	H 	0.80760 0.11240 0.83750 0.02500
H 	H 	0.06850 0.71130 0.06950 0.02200
H 	H 	0.07960 0.78400 0.00570 0.07800
H 	H 	0.91200 0.88970 0.07010 0.07800
H 	H 	0.90570 0.81510 0.13850 0.02100
H 	H 	0.01710 0.00850 0.87910 0.07100
H 	H 	0.89110 0.91030 0.98110 0.07100
H 	H 	0.11940 0.89340 0.97980 0.07400
H 	H 	0.25630 0.52960 0.19150 0.04800
H 	H 	0.37580 0.50090 0.16420 0.05700
H 	H 	0.28580 0.45710 0.02590 0.06000
H 	H 	0.16900 0.49450 0.05340 0.05300
H 	H 	0.80710 0.45850 0.11660 0.02200
H 	H 	0.69590 0.41700 0.08210 0.07400
H 	H 	0.58430 0.57400 0.12240 0.07900
H 	H 	0.69240 0.61240 0.16250 0.02400
H 	H 	0.43150 0.21130 0.93050 0.02100
H 	H 	0.42040 0.28400 0.99430 0.07900
H 	H 	0.58800 0.38970 0.92990 0.07900
H 	H 	0.59430 0.31510 0.86150 0.02100
H 	H 	0.48290 0.50850 0.12090 0.07200
H 	H 	0.60890 0.41030 0.01890 0.07100
H 	H 	0.38060 0.39340 0.02020 0.07300
H 	H 	0.24370 0.02960 0.69150 0.04900
H 	H 	0.12420 0.00090 0.66420 0.05400
H 	H 	0.21420 0.95710 0.52590 0.05900
H 	H 	0.33100 0.99450 0.55340 0.05400
H 	H 	0.69290 0.95850 0.61660 0.02300
H 	H 	0.80410 0.91700 0.58210 0.07400
H 	H 	0.91570 0.07400 0.62240 0.07800
H 	H 	0.80760 0.11240 0.66250 0.02500
H 	H 	0.06850 0.71130 0.43050 0.02200
H 	H 	0.07960 0.78400 0.49430 0.07800
H 	H 	0.91200 0.88970 0.42990 0.07800
H 	H 	0.90570 0.81510 0.36150 0.02100
H 	H 	0.01710 0.00850 0.62090 0.07100
H 	H 	0.89110 0.91030 0.51890 0.07200
H 	H 	0.11940 0.89340 0.52020 0.07400
H 	H 	0.25630 0.52960 0.30850 0.04800
H 	H 	0.37580 0.50090 0.33580 0.05700
H 	H 	0.28580 0.45710 0.47410 0.06000
H 	H 	0.16900 0.49450 0.44660 0.05300
H 	H 	0.80710 0.45850 0.38340 0.02200
H 	H 	0.69590 0.41700 0.41790 0.07400
H 	H 	0.58430 0.57400 0.37760 0.07900
H 	H 	0.69240 0.61240 0.33750 0.02400
H 	H 	0.43150 0.21130 0.56950 0.02200
H 	H 	0.42040 0.28400 0.50570 0.07900
H 	H 	0.58800 0.38970 0.57010 0.07900
H 	H 	0.59430 0.31510 0.63850 0.02100
H 	H 	0.48290 0.50850 0.37910 0.07200
H 	H 	0.60890 0.41030 0.48110 0.07100
H 	H 	0.38060 0.39340 0.47980 0.07300
C 	C 	0.38560 0.02850 0.84520 0.34000
C 	C 	0.29860 0.01230 0.87330 -0.03800
C 	C 	0.23750 0.01490 0.84290 -0.01300
C 	C 	0.16560 0.99740 0.85850 -0.07700
C 	C 	0.15740 0.97560 0.90640 0.01800
C 	C 	0.22000 0.97300 0.94000 -0.07700
C 	C 	0.29000 0.99360 0.92340 -0.00900
C 	C 	0.66720 0.06860 0.83040 0.42300
C 	C 	0.73860 0.03950 0.85810 -0.13200
C 	C 	0.73780 0.98200 0.88160 0.06000
C 	C 	0.80430 0.95780 0.90320 -0.12500
C 	C 	0.87150 0.99350 0.90340 0.05500
C 	C 	0.87120 0.04990 0.87890 -0.12700
C 	C 	0.80610 0.07350 0.85530 0.05700
C 	C 	0.97400 0.70530 0.15200 0.41900
C 	C 	0.98450 0.75410 0.11120 -0.15500
C 	C 	0.03730 0.74740 0.07020 0.07900
C 	C 	0.04430 0.79080 0.03250 -0.13100
C 	C 	0.99880 0.84790 0.03170 0.05100
C 	C 	0.94500 0.85490 0.07050 -0.13000
C 	C 	0.94000 0.80860 0.11110 0.06600
C 	C 	0.07870 0.95510 0.92700 0.06300
C 	C 	0.01400 0.97950 0.90690 -0.12400
C 	C 	0.94380 0.96320 0.92600 0.05000
C 	C 	0.93860 0.92120 0.96760 -0.11500
C 	C 	0.00400 0.89500 0.98950 0.04700
C 	C 	0.07490 0.91190 0.96700 -0.12200
C 	C 	0.11440 0.52850 0.15480 0.34000
C 	C 	0.20140 0.51230 0.12670 -0.03900
C 	C 	0.26250 0.51490 0.15710 -0.00800
C 	C 	0.33440 0.49740 0.14150 -0.08300
C 	C 	0.34260 0.47560 0.09360 0.02100
C 	C 	0.28000 0.47300 0.06000 -0.07900
C 	C 	0.21000 0.49360 0.07660 -0.00700
C 	C 	0.83280 0.56860 0.16960 0.42400
C 	C 	0.76140 0.53950 0.14190 -0.13500
C 	C 	0.76220 0.48200 0.11840 0.06300
C 	C 	0.69570 0.45780 0.09680 -0.12800
C 	C 	0.62850 0.49350 0.09660 0.05800
C 	C 	0.62880 0.54990 0.12110 -0.13100
C 	C 	0.69390 0.57350 0.14470 0.06000
C 	C 	0.52600 0.20530 0.84800 0.41800
C 	C 	0.51550 0.25410 0.88880 -0.15400
C 	C 	0.46270 0.24740 0.92980 0.07900
C 	C 	0.45570 0.29080 0.96750 -0.13500
C 	C 	0.50120 0.34790 0.96830 0.05600
C 	C 	0.55500 0.35490 0.92950 -0.13200
C 	C 	0.56000 0.30860 0.88890 0.06700
C 	C 	0.42130 0.45510 0.07300 0.06200
C 	C 	0.48600 0.47950 0.09310 -0.12600
C 	C 	0.55620 0.46320 0.07400 0.05000
C 	C 	0.56140 0.42120 0.03240 -0.11400
C 	C 	0.49600 0.39500 0.01050 0.04400
C 	C 	0.42510 0.41190 0.03300 -0.12000
C 	C 	0.38560 0.02850 0.65480 0.34000
C 	C 	0.29860 0.01230 0.62670 -0.03800
C 	C 	0.23750 0.01490 0.65710 -0.01300
C 	C 	0.16560 0.99740 0.64150 -0.07700
C 	C 	0.15740 0.97560 0.59360 0.01800
C 	C 	0.22000 0.97300 0.56000 -0.07700
C 	C 	0.29000 0.99360 0.57660 -0.00900
C 	C 	0.66720 0.06860 0.66960 0.42300
C 	C 	0.73860 0.03950 0.64190 -0.13200
C 	C 	0.73780 0.98200 0.61840 0.06000
C 	C 	0.80430 0.95780 0.59680 -0.12500
C 	C 	0.87150 0.99350 0.59660 0.05500
C 	C 	0.87120 0.04990 0.62110 -0.12700
C 	C 	0.80610 0.07350 0.64470 0.05700
C 	C 	0.97400 0.70530 0.34800 0.41800
C 	C 	0.98450 0.75410 0.38880 -0.15400
C 	C 	0.03730 0.74740 0.42980 0.07900
C 	C 	0.04430 0.79080 0.46750 -0.13200
C 	C 	0.99880 0.84790 0.46830 0.05200
C 	C 	0.94500 0.85490 0.42950 -0.12900
C 	C 	0.94000 0.80860 0.38890 0.06500
C 	C 	0.07870 0.95510 0.57300 0.06300
C 	C 	0.01400 0.97950 0.59310 -0.12300
C 	C 	0.94380 0.96320 0.57400 0.05000
C 	C 	0.93860 0.92120 0.53240 -0.11600
C 	C 	0.00400 0.89500 0.51050 0.04800
C 	C 	0.07490 0.91190 0.53300 -0.12200
C 	C 	0.11440 0.52850 0.34520 0.34000
C 	C 	0.20140 0.51230 0.37330 -0.04000
C 	C 	0.26250 0.51490 0.34290 -0.00800
C 	C 	0.33440 0.49740 0.35850 -0.08300
C 	C 	0.34260 0.47560 0.40640 0.02100
C 	C 	0.28000 0.47300 0.44000 -0.07900
C 	C 	0.21000 0.49360 0.42340 -0.00700
C 	C 	0.83280 0.56860 0.33040 0.42400
C 	C 	0.76140 0.53950 0.35810 -0.13500
C 	C 	0.76220 0.48200 0.38160 0.06300
C 	C 	0.69570 0.45780 0.40320 -0.12700
C 	C 	0.62850 0.49350 0.40340 0.05800
C 	C 	0.62880 0.54990 0.37890 -0.13100
C 	C 	0.69390 0.57350 0.35530 0.06000
C 	C 	0.52600 0.20530 0.65200 0.41800
C 	C 	0.51550 0.25410 0.61120 -0.15400
C 	C 	0.46270 0.24740 0.57020 0.07900
C 	C 	0.45570 0.29080 0.53250 -0.13500
C 	C 	0.50120 0.34790 0.53170 0.05600
C 	C 	0.55500 0.35490 0.57050 -0.13200
C 	C 	0.56000 0.30860 0.61110 0.06700
C 	C 	0.42130 0.45510 0.42700 0.06200
C 	C 	0.48600 0.47950 0.40690 -0.12600
C 	C 	0.55620 0.46320 0.42600 0.05000
C 	C 	0.56140 0.42120 0.46760 -0.11400
C 	C 	0.49600 0.39500 0.48950 0.04400
C 	C 	0.42510 0.41190 0.46700 -0.12000
O 	O 	0.43440 0.01650 0.87610 -0.39800
O 	O 	0.38020 0.06710 0.81360 -0.40400
O 	O 	0.67370 0.11560 0.80626 -0.48800
O 	O 	0.60610 0.03480 0.83930 -0.46700
O 	O 	0.93670 0.71900 0.19142 -0.44000
O 	O 	0.99990 0.64980 0.14210 -0.42200
O 	O 	0.06560 0.51650 0.12390 -0.39700
O 	O 	0.11980 0.56710 0.18640 -0.40400
O 	O 	0.82630 0.61560 0.19374 -0.48800
O 	O 	0.89390 0.53480 0.16070 -0.46700
O 	O 	0.56330 0.21900 0.80858 -0.44000
O 	O 	0.50010 0.14980 0.85790 -0.42200
O 	O 	0.43440 0.01650 0.62390 -0.39800
O 	O 	0.38020 0.06710 0.68640 -0.40400
O 	O 	0.67370 0.11560 0.69374 -0.48800
O 	O 	0.60610 0.03480 0.66070 -0.46700
O 	O 	0.93670 0.71900 0.30858 -0.44000
O 	O 	0.99990 0.64980 0.35790 -0.42200
O 	O 	0.06560 0.51650 0.37610 -0.39700
O 	O 	0.11980 0.56710 0.31360 -0.40400
O 	O 	0.82630 0.61560 0.30626 -0.48800
O 	O 	0.89390 0.53480 0.33930 -0.46700
O 	O 	0.56330 0.21900 0.69142 -0.44000
O 	O 	0.50010 0.14980 0.64210 -0.42200
O 	O 	0.51790 0.10570 0.75000 -0.64100
O 	O 	0.98210 0.60570 0.25000 -0.64100
