data_crystal

_cell_length_a 23.59880
_cell_length_b 23.59880
_cell_length_c 23.59880
_cell_angle_alpha 109.47100
_cell_angle_beta  109.47100
_cell_angle_gamma 109.47100

_symmetry_space_group_name_	'P 1'
_symmetry_space_group_name_H-M	'P 1'

loop_
_symmetry_equiv_pos_as_xyz
  x,y,z

loop_
_atom_site_label
_atom_site_type_symbol
_atom_site_fract_x
_atom_site_fract_y
_atom_site_fract_z
_atom_site_charge
Co	Co	0.88985 0.44537 0.44448 1.18900
Co	Co	0.00089 0.44537 0.55552 1.18900
Co	Co	0.99911 0.55463 0.44448 1.18900
Co	Co	0.11015 0.55463 0.55552 1.18900
Co	Co	0.44448 0.99911 0.55463 1.18900
Co	Co	0.55552 0.11015 0.55463 1.18900
Co	Co	0.44448 0.88985 0.44537 1.18900
Co	Co	0.55552 0.00089 0.44537 1.18900
Co	Co	0.44537 0.55552 0.00089 1.18900
Co	Co	0.44537 0.44448 0.88985 1.18900
Co	Co	0.55463 0.55552 0.11015 1.18900
Co	Co	0.55463 0.44448 0.99911 1.18900
Co	Co	0.83160 0.50000 0.33160 1.18800
Co	Co	0.16840 0.50000 0.66840 1.18800
Co	Co	0.33160 0.83160 0.50000 1.18800
Co	Co	0.66840 0.16840 0.50000 1.18800
Co	Co	0.50000 0.66840 0.16840 1.18800
Co	Co	0.50000 0.33160 0.83160 1.18800
H 	H 	0.78330 0.23010 0.27680 0.03500
H 	H 	0.72530 0.12380 0.18230 0.07000
H 	H 	0.60680 0.18040 0.07260 0.07100
H 	H 	0.67950 0.29390 0.16240 0.03200
H 	H 	0.61750 0.01820 0.11190 0.07300
H 	H 	0.95330 0.50650 0.72320 0.03500
H 	H 	0.94150 0.54300 0.81770 0.07000
H 	H 	0.10780 0.53420 0.92740 0.07100
H 	H 	0.13150 0.51710 0.83760 0.03200
H 	H 	0.90630 0.50560 0.88810 0.07300
H 	H 	0.04670 0.76990 0.55320 0.03500
H 	H 	0.05850 0.87620 0.60150 0.07000
H 	H 	0.89220 0.81960 0.42640 0.07100
H 	H 	0.86850 0.70610 0.38560 0.03200
H 	H 	0.09370 0.98180 0.59930 0.07300
H 	H 	0.21670 0.49350 0.44680 0.03500
H 	H 	0.27470 0.45700 0.39850 0.07000
H 	H 	0.39320 0.46580 0.57360 0.07100
H 	H 	0.32050 0.48290 0.61440 0.03300
H 	H 	0.38250 0.49440 0.40070 0.07400
H 	H 	0.55320 0.04670 0.76990 0.03600
H 	H 	0.60150 0.05850 0.87620 0.07100
H 	H 	0.42640 0.89220 0.81960 0.07200
H 	H 	0.38560 0.86850 0.70610 0.03300
H 	H 	0.59930 0.09370 0.98180 0.07400
H 	H 	0.44680 0.21670 0.49350 0.03600
H 	H 	0.39850 0.27470 0.45700 0.07100
H 	H 	0.57360 0.39320 0.46580 0.07200
H 	H 	0.61440 0.32050 0.48290 0.03300
H 	H 	0.40070 0.38250 0.49440 0.07400
H 	H 	0.27680 0.78330 0.23010 0.03600
H 	H 	0.18230 0.72530 0.12380 0.07100
H 	H 	0.07260 0.60680 0.18040 0.07200
H 	H 	0.16240 0.67950 0.29390 0.03300
H 	H 	0.11190 0.61750 0.01820 0.07400
H 	H 	0.72320 0.95330 0.50650 0.03600
H 	H 	0.81770 0.94150 0.54300 0.07100
H 	H 	0.92740 0.10780 0.53420 0.07200
H 	H 	0.83760 0.13150 0.51710 0.03300
H 	H 	0.88810 0.90630 0.50560 0.07400
H 	H 	0.50650 0.72320 0.95330 0.03600
H 	H 	0.54300 0.81770 0.94150 0.07100
H 	H 	0.53420 0.92740 0.10780 0.07200
H 	H 	0.51710 0.83760 0.13150 0.03300
H 	H 	0.50560 0.88810 0.90630 0.07400
H 	H 	0.23010 0.27680 0.78330 0.03600
H 	H 	0.12380 0.18230 0.72530 0.07100
H 	H 	0.18040 0.07260 0.60680 0.07200
H 	H 	0.29390 0.16240 0.67950 0.03300
H 	H 	0.01820 0.11190 0.61750 0.07400
H 	H 	0.49350 0.44680 0.21670 0.03600
H 	H 	0.45700 0.39850 0.27470 0.07100
H 	H 	0.46580 0.57360 0.39320 0.07200
H 	H 	0.48290 0.61440 0.32050 0.03300
H 	H 	0.49440 0.40070 0.38250 0.07400
H 	H 	0.76990 0.55320 0.04670 0.03600
H 	H 	0.87620 0.60150 0.05850 0.07100
H 	H 	0.81960 0.42640 0.89220 0.07200
H 	H 	0.70610 0.38560 0.86850 0.03300
H 	H 	0.98180 0.59930 0.09370 0.07400
H 	H 	0.21670 0.76990 0.72320 0.03600
H 	H 	0.27470 0.87620 0.81770 0.07100
H 	H 	0.39320 0.81960 0.92740 0.07200
H 	H 	0.32050 0.70610 0.83760 0.03300
H 	H 	0.38250 0.98180 0.88810 0.07400
H 	H 	0.04670 0.49350 0.27680 0.03600
H 	H 	0.05850 0.45700 0.18230 0.07100
H 	H 	0.89220 0.46580 0.07260 0.07200
H 	H 	0.86850 0.48290 0.16240 0.03300
H 	H 	0.09370 0.49440 0.11190 0.07400
H 	H 	0.95330 0.23010 0.44680 0.03600
H 	H 	0.94150 0.12380 0.39850 0.07100
H 	H 	0.10780 0.18040 0.57360 0.07200
H 	H 	0.13150 0.29390 0.61440 0.03300
H 	H 	0.90630 0.01820 0.40070 0.07400
H 	H 	0.78330 0.50650 0.55320 0.03600
H 	H 	0.72530 0.54300 0.60150 0.07100
H 	H 	0.60680 0.53420 0.42640 0.07200
H 	H 	0.67950 0.51710 0.38560 0.03300
H 	H 	0.61750 0.50560 0.59930 0.07400
H 	H 	0.44680 0.95330 0.23010 0.03600
H 	H 	0.39850 0.94150 0.12380 0.07100
H 	H 	0.57360 0.10780 0.18040 0.07200
H 	H 	0.61440 0.13150 0.29390 0.03300
H 	H 	0.40070 0.90630 0.01820 0.07400
H 	H 	0.55320 0.78330 0.50650 0.03600
H 	H 	0.60150 0.72530 0.54300 0.07100
H 	H 	0.42640 0.60680 0.53420 0.07200
H 	H 	0.38560 0.67950 0.51710 0.03300
H 	H 	0.59930 0.61750 0.50560 0.07400
H 	H 	0.72320 0.21670 0.76990 0.03600
H 	H 	0.81770 0.27470 0.87620 0.07100
H 	H 	0.92740 0.39320 0.81960 0.07200
H 	H 	0.83760 0.32050 0.70610 0.03300
H 	H 	0.88810 0.38250 0.98180 0.07400
H 	H 	0.27680 0.04670 0.49350 0.03600
H 	H 	0.18230 0.05850 0.45700 0.07100
H 	H 	0.07260 0.89220 0.46580 0.07200
H 	H 	0.16240 0.86850 0.48290 0.03300
H 	H 	0.11190 0.09370 0.49440 0.07400
H 	H 	0.49350 0.27680 0.04670 0.03600
H 	H 	0.45700 0.18230 0.05850 0.07100
H 	H 	0.46580 0.07260 0.89220 0.07200
H 	H 	0.48290 0.16240 0.86850 0.03300
H 	H 	0.49440 0.11190 0.09370 0.07400
H 	H 	0.76990 0.72320 0.21670 0.03600
H 	H 	0.87620 0.81770 0.27470 0.07100
H 	H 	0.81960 0.92740 0.39320 0.07200
H 	H 	0.70610 0.83760 0.32050 0.03300
H 	H 	0.98180 0.88810 0.38250 0.07400
H 	H 	0.50650 0.55320 0.78330 0.03600
H 	H 	0.54300 0.60150 0.72530 0.07100
H 	H 	0.53420 0.42640 0.60680 0.07200
H 	H 	0.51710 0.38560 0.67950 0.03300
H 	H 	0.50560 0.59930 0.61750 0.07400
H 	H 	0.23010 0.44680 0.95330 0.03600
H 	H 	0.12380 0.39850 0.94150 0.07100
H 	H 	0.18040 0.57360 0.10780 0.07200
H 	H 	0.29390 0.61440 0.13150 0.03300
H 	H 	0.01820 0.40070 0.90630 0.07400
C 	C 	0.78570 0.35120 0.28810 0.39100
C 	C 	0.74060 0.27480 0.22780 -0.10500
C 	C 	0.75100 0.22100 0.23440 0.03900
C 	C 	0.71430 0.15750 0.17960 -0.10800
C 	C 	0.65840 0.14020 0.11700 0.03800
C 	C 	0.64450 0.19130 0.11220 -0.10900
C 	C 	0.68690 0.25890 0.16660 0.03600
C 	C 	0.61620 0.06780 0.05540 0.05400
C 	C 	0.60050 0.01050 0.06680 -0.11900
C 	C 	0.06310 0.49760 0.71190 0.39100
C 	C 	0.04700 0.51280 0.77220 -0.10500
C 	C 	0.98660 0.51660 0.76560 0.03900
C 	C 	0.97790 0.53470 0.82040 -0.10800
C 	C 	0.02320 0.54140 0.88300 0.03800
C 	C 	0.07910 0.53230 0.88780 -0.10900
C 	C 	0.09230 0.52030 0.83340 0.03600
C 	C 	0.01240 0.56080 0.94460 0.05400
C 	C 	0.94370 0.53370 0.93320 -0.11900
C 	C 	0.93690 0.64880 0.43450 0.39100
C 	C 	0.95300 0.72520 0.46580 -0.10500
C 	C 	0.01340 0.77900 0.53000 0.03900
C 	C 	0.02210 0.84250 0.55680 -0.10800
C 	C 	0.97680 0.85980 0.51820 0.03800
C 	C 	0.92090 0.80870 0.45320 -0.10900
C 	C 	0.90770 0.74110 0.42800 0.03600
C 	C 	0.98760 0.93220 0.54840 0.05400
C 	C 	0.05630 0.98950 0.59000 -0.11900
C 	C 	0.21430 0.50240 0.56550 0.39100
C 	C 	0.25940 0.48720 0.53420 -0.10500
C 	C 	0.24900 0.48340 0.47000 0.03900
C 	C 	0.28570 0.46530 0.44320 -0.10800
C 	C 	0.34160 0.45860 0.48180 0.03800
C 	C 	0.35550 0.46770 0.54680 -0.10900
C 	C 	0.31310 0.47970 0.57200 0.03600
C 	C 	0.38380 0.43920 0.45160 0.05400
C 	C 	0.39950 0.46630 0.41000 -0.11900
C 	C 	0.43450 0.93690 0.64880 0.39100
C 	C 	0.46580 0.95300 0.72520 -0.10500
C 	C 	0.53000 0.01340 0.77900 0.03900
C 	C 	0.55680 0.02210 0.84250 -0.10800
C 	C 	0.51820 0.97680 0.85980 0.03800
C 	C 	0.45320 0.92090 0.80870 -0.10900
C 	C 	0.42800 0.90770 0.74110 0.03600
C 	C 	0.54840 0.98760 0.93220 0.05400
C 	C 	0.59000 0.05630 0.98950 -0.11900
C 	C 	0.56550 0.21430 0.50240 0.39100
C 	C 	0.53420 0.25940 0.48720 -0.10500
C 	C 	0.47000 0.24900 0.48340 0.03900
C 	C 	0.44320 0.28570 0.46530 -0.10800
C 	C 	0.48180 0.34160 0.45860 0.03800
C 	C 	0.54680 0.35550 0.46770 -0.10900
C 	C 	0.57200 0.31310 0.47970 0.03600
C 	C 	0.45160 0.38380 0.43920 0.05400
C 	C 	0.41000 0.39950 0.46630 -0.11900
C 	C 	0.28810 0.78570 0.35120 0.39100
C 	C 	0.22780 0.74060 0.27480 -0.10500
C 	C 	0.23440 0.75100 0.22100 0.03900
C 	C 	0.17960 0.71430 0.15750 -0.10800
C 	C 	0.11700 0.65840 0.14020 0.03800
C 	C 	0.11220 0.64450 0.19130 -0.10900
C 	C 	0.16660 0.68690 0.25890 0.03600
C 	C 	0.05540 0.61620 0.06780 0.05400
C 	C 	0.06680 0.60050 0.01050 -0.11900
C 	C 	0.71190 0.06310 0.49760 0.39100
C 	C 	0.77220 0.04700 0.51280 -0.10500
C 	C 	0.76560 0.98660 0.51660 0.03900
C 	C 	0.82040 0.97790 0.53470 -0.10800
C 	C 	0.88300 0.02320 0.54140 0.03800
C 	C 	0.88780 0.07910 0.53230 -0.10900
C 	C 	0.83340 0.09230 0.52030 0.03600
C 	C 	0.94460 0.01240 0.56080 0.05400
C 	C 	0.93320 0.94370 0.53370 -0.11900
C 	C 	0.49760 0.71190 0.06310 0.39100
C 	C 	0.51280 0.77220 0.04700 -0.10500
C 	C 	0.51660 0.76560 0.98660 0.03900
C 	C 	0.53470 0.82040 0.97790 -0.10800
C 	C 	0.54140 0.88300 0.02320 0.03800
C 	C 	0.53230 0.88780 0.07910 -0.10900
C 	C 	0.52030 0.83340 0.09230 0.03600
C 	C 	0.56080 0.94460 0.01240 0.05400
C 	C 	0.53370 0.93320 0.94370 -0.11900
C 	C 	0.35120 0.28810 0.78570 0.39100
C 	C 	0.27480 0.22780 0.74060 -0.10500
C 	C 	0.22100 0.23440 0.75100 0.03900
C 	C 	0.15750 0.17960 0.71430 -0.10800
C 	C 	0.14020 0.11700 0.65840 0.03800
C 	C 	0.19130 0.11220 0.64450 -0.10900
C 	C 	0.25890 0.16660 0.68690 0.03600
C 	C 	0.06780 0.05540 0.61620 0.05400
C 	C 	0.01050 0.06680 0.60050 -0.11900
C 	C 	0.50240 0.56550 0.21430 0.39100
C 	C 	0.48720 0.53420 0.25940 -0.10500
C 	C 	0.48340 0.47000 0.24900 0.03900
C 	C 	0.46530 0.44320 0.28570 -0.10800
C 	C 	0.45860 0.48180 0.34160 0.03800
C 	C 	0.46770 0.54680 0.35550 -0.10900
C 	C 	0.47970 0.57200 0.31310 0.03600
C 	C 	0.43920 0.45160 0.38380 0.05400
C 	C 	0.46630 0.41000 0.39950 -0.11900
C 	C 	0.64880 0.43450 0.93690 0.39100
C 	C 	0.72520 0.46580 0.95300 -0.10500
C 	C 	0.77900 0.53000 0.01340 0.03900
C 	C 	0.84250 0.55680 0.02210 -0.10800
C 	C 	0.85980 0.51820 0.97680 0.03800
C 	C 	0.80870 0.45320 0.92090 -0.10900
C 	C 	0.74110 0.42800 0.90770 0.03600
C 	C 	0.93220 0.54840 0.98760 0.05400
C 	C 	0.98950 0.59000 0.05630 -0.11900
C 	C 	0.21430 0.64880 0.71190 0.39100
C 	C 	0.25940 0.72520 0.77220 -0.10500
C 	C 	0.24900 0.77900 0.76560 0.03900
C 	C 	0.28570 0.84250 0.82040 -0.10800
C 	C 	0.34160 0.85980 0.88300 0.03800
C 	C 	0.35550 0.80870 0.88780 -0.10900
C 	C 	0.31310 0.74110 0.83340 0.03600
C 	C 	0.38380 0.93220 0.94460 0.05400
C 	C 	0.39950 0.98950 0.93320 -0.11900
C 	C 	0.93690 0.50240 0.28810 0.39100
C 	C 	0.95300 0.48720 0.22780 -0.10500
C 	C 	0.01340 0.48340 0.23440 0.03900
C 	C 	0.02210 0.46530 0.17960 -0.10800
C 	C 	0.97680 0.45860 0.11700 0.03800
C 	C 	0.92090 0.46770 0.11220 -0.10900
C 	C 	0.90770 0.47970 0.16660 0.03600
C 	C 	0.98760 0.43920 0.05540 0.05400
C 	C 	0.05630 0.46630 0.06680 -0.11900
C 	C 	0.06310 0.35120 0.56550 0.39100
C 	C 	0.04700 0.27480 0.53420 -0.10500
C 	C 	0.98660 0.22100 0.47000 0.03900
C 	C 	0.97790 0.15750 0.44320 -0.10800
C 	C 	0.02320 0.14020 0.48180 0.03800
C 	C 	0.07910 0.19130 0.54680 -0.10900
C 	C 	0.09230 0.25890 0.57200 0.03600
C 	C 	0.01240 0.06780 0.45160 0.05400
C 	C 	0.94370 0.01050 0.41000 -0.11900
C 	C 	0.78570 0.49760 0.43450 0.39100
C 	C 	0.74060 0.51280 0.46580 -0.10500
C 	C 	0.75100 0.51660 0.53000 0.03900
C 	C 	0.71430 0.53470 0.55680 -0.10800
C 	C 	0.65840 0.54140 0.51820 0.03800
C 	C 	0.64450 0.53230 0.45320 -0.10900
C 	C 	0.68690 0.52030 0.42800 0.03600
C 	C 	0.61620 0.56080 0.54840 0.05400
C 	C 	0.60050 0.53370 0.59000 -0.11900
C 	C 	0.56550 0.06310 0.35120 0.39100
C 	C 	0.53420 0.04700 0.27480 -0.10500
C 	C 	0.47000 0.98660 0.22100 0.03900
C 	C 	0.44320 0.97790 0.15750 -0.10800
C 	C 	0.48180 0.02320 0.14020 0.03800
C 	C 	0.54680 0.07910 0.19130 -0.10900
C 	C 	0.57200 0.09230 0.25890 0.03600
C 	C 	0.45160 0.01240 0.06780 0.05400
C 	C 	0.41000 0.94370 0.01050 -0.11900
C 	C 	0.43450 0.78570 0.49760 0.39100
C 	C 	0.46580 0.74060 0.51280 -0.10500
C 	C 	0.53000 0.75100 0.51660 0.03900
C 	C 	0.55680 0.71430 0.53470 -0.10800
C 	C 	0.51820 0.65840 0.54140 0.03800
C 	C 	0.45320 0.64450 0.53230 -0.10900
C 	C 	0.42800 0.68690 0.52030 0.03600
C 	C 	0.54840 0.61620 0.56080 0.05400
C 	C 	0.59000 0.60050 0.53370 -0.11900
C 	C 	0.71190 0.21430 0.64880 0.39100
C 	C 	0.77220 0.25940 0.72520 -0.10500
C 	C 	0.76560 0.24900 0.77900 0.03900
C 	C 	0.82040 0.28570 0.84250 -0.10800
C 	C 	0.88300 0.34160 0.85980 0.03800
C 	C 	0.88780 0.35550 0.80870 -0.10900
C 	C 	0.83340 0.31310 0.74110 0.03600
C 	C 	0.94460 0.38380 0.93220 0.05400
C 	C 	0.93320 0.39950 0.98950 -0.11900
C 	C 	0.28810 0.93690 0.50240 0.39100
C 	C 	0.22780 0.95300 0.48720 -0.10500
C 	C 	0.23440 0.01340 0.48340 0.03900
C 	C 	0.17960 0.02210 0.46530 -0.10800
C 	C 	0.11700 0.97680 0.45860 0.03800
C 	C 	0.11220 0.92090 0.46770 -0.10900
C 	C 	0.16660 0.90770 0.47970 0.03600
C 	C 	0.05540 0.98760 0.43920 0.05400
C 	C 	0.06680 0.05630 0.46630 -0.11900
C 	C 	0.50240 0.28810 0.93690 0.39100
C 	C 	0.48720 0.22780 0.95300 -0.10500
C 	C 	0.48340 0.23440 0.01340 0.03900
C 	C 	0.46530 0.17960 0.02210 -0.10800
C 	C 	0.45860 0.11700 0.97680 0.03800
C 	C 	0.46770 0.11220 0.92090 -0.10900
C 	C 	0.47970 0.16660 0.90770 0.03600
C 	C 	0.43920 0.05540 0.98760 0.05400
C 	C 	0.46630 0.06680 0.05630 -0.11900
C 	C 	0.64880 0.71190 0.21430 0.39100
C 	C 	0.72520 0.77220 0.25940 -0.10500
C 	C 	0.77900 0.76560 0.24900 0.03900
C 	C 	0.84250 0.82040 0.28570 -0.10800
C 	C 	0.85980 0.88300 0.34160 0.03800
C 	C 	0.80870 0.88780 0.35550 -0.10900
C 	C 	0.74110 0.83340 0.31310 0.03600
C 	C 	0.93220 0.94460 0.38380 0.05400
C 	C 	0.98950 0.93320 0.39950 -0.11900
C 	C 	0.49760 0.43450 0.78570 0.39100
C 	C 	0.51280 0.46580 0.74060 -0.10500
C 	C 	0.51660 0.53000 0.75100 0.03900
C 	C 	0.53470 0.55680 0.71430 -0.10800
C 	C 	0.54140 0.51820 0.65840 0.03800
C 	C 	0.53230 0.45320 0.64450 -0.10900
C 	C 	0.52030 0.42800 0.68690 0.03600
C 	C 	0.56080 0.54840 0.61620 0.05400
C 	C 	0.53370 0.59000 0.60050 -0.11900
C 	C 	0.35120 0.56550 0.06310 0.39100
C 	C 	0.27480 0.53420 0.04700 -0.10500
C 	C 	0.22100 0.47000 0.98660 0.03900
C 	C 	0.15750 0.44320 0.97790 -0.10800
C 	C 	0.14020 0.48180 0.02320 0.03800
C 	C 	0.19130 0.54680 0.07910 -0.10900
C 	C 	0.25890 0.57200 0.09230 0.03600
C 	C 	0.06780 0.45160 0.01240 0.05400
C 	C 	0.01050 0.41000 0.94370 -0.11900
O 	O 	0.82980 0.36060 0.34580 -0.40700
O 	O 	0.77650 0.39390 0.27620 -0.44700
O 	O 	0.01480 0.48400 0.65420 -0.40700
O 	O 	0.11770 0.50030 0.72380 -0.44700
O 	O 	0.98520 0.63940 0.46920 -0.40700
O 	O 	0.88230 0.60610 0.38260 -0.44700
O 	O 	0.17020 0.51600 0.53080 -0.40700
O 	O 	0.22350 0.49970 0.61740 -0.44700
O 	O 	0.46920 0.98520 0.63940 -0.40700
O 	O 	0.38260 0.88230 0.60610 -0.44700
O 	O 	0.53080 0.17020 0.51600 -0.40700
O 	O 	0.61740 0.22350 0.49970 -0.44700
O 	O 	0.34580 0.82980 0.36060 -0.40700
O 	O 	0.27620 0.77650 0.39390 -0.44700
O 	O 	0.65420 0.01480 0.48400 -0.40700
O 	O 	0.72380 0.11770 0.50030 -0.44700
O 	O 	0.48400 0.65420 0.01480 -0.40700
O 	O 	0.50030 0.72380 0.11770 -0.44700
O 	O 	0.36060 0.34580 0.82980 -0.40700
O 	O 	0.39390 0.27620 0.77650 -0.44700
O 	O 	0.51600 0.53080 0.17020 -0.40700
O 	O 	0.49970 0.61740 0.22350 -0.44700
O 	O 	0.63940 0.46920 0.98520 -0.40700
O 	O 	0.60610 0.38260 0.88230 -0.44700
O 	O 	0.17020 0.63940 0.65420 -0.40700
O 	O 	0.22350 0.60610 0.72380 -0.44700
O 	O 	0.98520 0.51600 0.34580 -0.40700
O 	O 	0.88230 0.49970 0.27620 -0.44700
O 	O 	0.01480 0.36060 0.53080 -0.40700
O 	O 	0.11770 0.39390 0.61740 -0.44700
O 	O 	0.82980 0.48400 0.46920 -0.40700
O 	O 	0.77650 0.50030 0.38260 -0.44700
O 	O 	0.53080 0.01480 0.36060 -0.40700
O 	O 	0.61740 0.11770 0.39390 -0.44700
O 	O 	0.46920 0.82980 0.48400 -0.40700
O 	O 	0.38260 0.77650 0.50030 -0.44700
O 	O 	0.65420 0.17020 0.63940 -0.40700
O 	O 	0.72380 0.22350 0.60610 -0.44700
O 	O 	0.34580 0.98520 0.51600 -0.40700
O 	O 	0.27620 0.88230 0.49970 -0.44700
O 	O 	0.51600 0.34580 0.98520 -0.40700
O 	O 	0.49970 0.27620 0.88230 -0.44700
O 	O 	0.63940 0.65420 0.17020 -0.40700
O 	O 	0.60610 0.72380 0.22350 -0.44700
O 	O 	0.48400 0.46920 0.82980 -0.40700
O 	O 	0.50030 0.38260 0.77650 -0.44700
O 	O 	0.36060 0.53080 0.01480 -0.40700
O 	O 	0.39390 0.61740 0.11770 -0.44700
O 	O 	0.90950 0.50000 0.40950 -0.67900
O 	O 	0.09050 0.50000 0.59050 -0.67900
O 	O 	0.40950 0.90950 0.50000 -0.67900
O 	O 	0.59050 0.09050 0.50000 -0.67900
O 	O 	0.50000 0.59050 0.09050 -0.67900
O 	O 	0.50000 0.40950 0.90950 -0.67900
O 	O 	0.96810 0.41490 0.44680 -0.34700
O 	O 	0.96810 0.52130 0.55320 -0.34700
O 	O 	0.03190 0.58510 0.55320 -0.34700
O 	O 	0.03190 0.47870 0.44680 -0.34700
O 	O 	0.55320 0.03190 0.58510 -0.34700
O 	O 	0.44680 0.03190 0.47870 -0.34700
O 	O 	0.44680 0.96810 0.41490 -0.34700
O 	O 	0.55320 0.96810 0.52130 -0.34700
O 	O 	0.52130 0.55320 0.96810 -0.34700
O 	O 	0.41490 0.44680 0.96810 -0.34700
O 	O 	0.47870 0.44680 0.03190 -0.34700
O 	O 	0.58510 0.55320 0.03190 -0.34700
O 	O 	0.88960 0.38960 0.50000 -0.38600
O 	O 	0.11040 0.61040 0.50000 -0.38600
O 	O 	0.50000 0.11040 0.61040 -0.38600
O 	O 	0.50000 0.88960 0.38960 -0.38600
O 	O 	0.38960 0.50000 0.88960 -0.38600
O 	O 	0.61040 0.50000 0.11040 -0.38600
