data_crystal

_cell_length_a 13.93180
_cell_length_b 13.93180
_cell_length_c 17.74610
_cell_angle_alpha 113.11200
_cell_angle_beta  113.11200
_cell_angle_gamma 90.00000

_symmetry_space_group_name_	'P 1'
_symmetry_space_group_name_H-M	'P 1'

loop_
_symmetry_equiv_pos_as_xyz
  x,y,z

loop_
_atom_site_label
_atom_site_type_symbol
_atom_site_fract_x
_atom_site_fract_y
_atom_site_fract_z
_atom_site_charge
Ni	Ni	0.74782 0.48278 0.82342 1.05300
Ni	Ni	0.57560 0.34064 0.82342 1.05300
Ni	Ni	0.92440 0.01722 0.17658 1.05100
Ni	Ni	0.75218 0.15936 0.17658 1.05300
Ni	Ni	0.51722 0.42440 0.67658 1.05300
Ni	Ni	0.65936 0.25218 0.67658 1.05300
Ni	Ni	0.84064 0.07560 0.32342 1.05200
Ni	Ni	0.98278 0.24782 0.32342 1.05200
H 	H 	0.60990 0.58330 0.93400 -0.01700
H 	H 	0.49960 0.56800 0.85460 -0.02100
H 	H 	0.60010 0.63530 0.86800 -0.02500
H 	H 	0.82410 0.35070 0.93400 -0.01600
H 	H 	0.85500 0.28660 0.85460 -0.02100
H 	H 	0.76790 0.23270 0.86800 -0.02400
H 	H 	0.67590 0.91670 0.06600 -0.01800
H 	H 	0.64500 0.93200 0.14540 -0.02300
H 	H 	0.73210 0.86470 0.13200 -0.02700
H 	H 	0.89010 0.14930 0.06600 -0.01400
H 	H 	0.00040 0.21340 0.14540 -0.01200
H 	H 	0.89990 0.26730 0.13200 -0.02000
H 	H 	0.41670 0.17590 0.56600 -0.01500
H 	H 	0.43200 0.14500 0.64540 -0.01900
H 	H 	0.36470 0.23210 0.63200 -0.02300
H 	H 	0.64930 0.39010 0.56600 -0.01600
H 	H 	0.71340 0.50040 0.64540 -0.02000
H 	H 	0.76730 0.39990 0.63200 -0.02400
H 	H 	0.85070 0.32410 0.43400 -0.01600
H 	H 	0.78660 0.35500 0.35460 -0.02000
H 	H 	0.73270 0.26790 0.36800 -0.02400
H 	H 	0.08330 0.10990 0.43400 -0.02300
H 	H 	0.06800 0.99960 0.35460 -0.03200
H 	H 	0.13530 0.10010 0.36800 -0.03200
C 	C 	0.86982 0.61715 0.03564 0.15200
C 	C 	0.57475 0.57458 0.87250 0.07100
C 	C 	0.93312 0.77985 0.14888 0.15700
C 	C 	0.66582 0.41849 0.03564 0.15000
C 	C 	0.79775 0.29792 0.87250 0.07000
C 	C 	0.71576 0.36903 0.14888 0.15500
C 	C 	0.83418 0.88285 0.96436 0.14900
C 	C 	0.70225 0.92542 0.12750 0.08200
C 	C 	0.78424 0.72015 0.85112 0.15500
C 	C 	0.63018 0.08151 0.96436 0.15700
C 	C 	0.92525 0.20208 0.12750 0.05300
C 	C 	0.56688 0.13097 0.85112 0.15600
C 	C 	0.38285 0.33418 0.46436 0.15300
C 	C 	0.42542 0.20225 0.62750 0.06800
C 	C 	0.22015 0.28424 0.35112 0.15600
C 	C 	0.58151 0.13018 0.46436 0.15300
C 	C 	0.70208 0.42525 0.62750 0.07000
C 	C 	0.63097 0.06688 0.35112 0.15500
C 	C 	0.91849 0.16582 0.53564 0.15200
C 	C 	0.79792 0.29775 0.37250 0.07000
C 	C 	0.86903 0.21576 0.64888 0.15500
C 	C 	0.11715 0.36982 0.53564 0.15300
C 	C 	0.07458 0.07475 0.37250 0.10000
C 	C 	0.27985 0.43312 0.64888 0.15600
N 	N 	0.82363 0.55706 0.96254 -0.28400
N 	N 	0.94472 0.86983 0.17922 -0.28300
N 	N 	0.92746 0.67796 0.12152 -0.19100
N 	N 	0.63891 0.40548 0.96254 -0.28400
N 	N 	0.73450 0.30939 0.17922 -0.28600
N 	N 	0.69406 0.44356 0.12152 -0.19000
N 	N 	0.86109 0.94294 0.03746 -0.28000
N 	N 	0.76550 0.63017 0.82078 -0.28600
N 	N 	0.80594 0.82204 0.87848 -0.19000
N 	N 	0.67637 0.09452 0.03746 -0.28900
N 	N 	0.55528 0.19061 0.82078 -0.28600
N 	N 	0.57254 0.05644 0.87848 -0.19100
N 	N 	0.44294 0.36109 0.53746 -0.28400
N 	N 	0.13017 0.26550 0.32078 -0.28500
N 	N 	0.32204 0.30594 0.37848 -0.19100
N 	N 	0.59452 0.17637 0.53746 -0.28400
N 	N 	0.69061 0.05528 0.32078 -0.28600
N 	N 	0.55644 0.07254 0.37848 -0.19100
N 	N 	0.90548 0.13891 0.46254 -0.28500
N 	N 	0.80939 0.23450 0.67922 -0.28600
N 	N 	0.94356 0.19406 0.62152 -0.19100
N 	N 	0.05706 0.32363 0.46254 -0.28300
N 	N 	0.36983 0.44472 0.67922 -0.28600
N 	N 	0.17796 0.42746 0.62152 -0.19100
O 	O 	0.59653 0.48160 0.81476 -0.60900
O 	O 	0.71823 0.33316 0.81476 -0.60900
O 	O 	0.78177 0.01840 0.18524 -0.61400
O 	O 	0.90347 0.16684 0.18524 -0.60700
O 	O 	0.51840 0.28177 0.68524 -0.60800
O 	O 	0.66684 0.40347 0.68524 -0.60800
O 	O 	0.83316 0.21823 0.31476 -0.60800
O 	O 	0.98160 0.09653 0.31476 -0.61700
Ni	Ni	0.48278 0.57560 0.32342 1.05200
Ni	Ni	0.34064 0.74782 0.32342 1.05200
Ni	Ni	0.15936 0.92440 0.67658 1.05200
Ni	Ni	0.01722 0.75218 0.67658 1.05200
Ni	Ni	0.25218 0.51722 0.17658 1.05200
Ni	Ni	0.42440 0.65936 0.17658 1.05200
Ni	Ni	0.07560 0.98278 0.82342 1.05000
Ni	Ni	0.24782 0.84064 0.82342 1.05200
H 	H 	0.58330 0.82410 0.43400 -0.01500
H 	H 	0.56800 0.85500 0.35460 -0.01900
H 	H 	0.63530 0.76790 0.36800 -0.02300
H 	H 	0.35070 0.60990 0.43400 -0.01600
H 	H 	0.28660 0.49960 0.35460 -0.02000
H 	H 	0.23270 0.60010 0.36800 -0.02400
H 	H 	0.14930 0.67590 0.56600 -0.01600
H 	H 	0.21340 0.64500 0.64540 -0.02000
H 	H 	0.26730 0.73210 0.63200 -0.02400
H 	H 	0.91670 0.89010 0.56600 -0.02300
H 	H 	0.93200 0.00040 0.64540 -0.03200
H 	H 	0.86470 0.89990 0.63200 -0.03200
H 	H 	0.39010 0.41670 0.06600 -0.01700
H 	H 	0.50040 0.43200 0.14540 -0.02100
H 	H 	0.39990 0.36470 0.13200 -0.02500
H 	H 	0.17590 0.64930 0.06600 -0.01600
H 	H 	0.14500 0.71340 0.14540 -0.02100
H 	H 	0.23210 0.76730 0.13200 -0.02400
H 	H 	0.32410 0.08330 0.93400 -0.01800
H 	H 	0.35500 0.06800 0.85460 -0.02300
H 	H 	0.26790 0.13530 0.86800 -0.02700
H 	H 	0.10990 0.85070 0.93400 -0.01400
H 	H 	0.99960 0.78660 0.85460 -0.01200
H 	H 	0.10010 0.73270 0.86800 -0.02000
C 	C 	0.61715 0.66582 0.53564 0.15300
C 	C 	0.57458 0.79775 0.37250 0.06800
C 	C 	0.77985 0.71576 0.64888 0.15600
C 	C 	0.41849 0.86982 0.53564 0.15300
C 	C 	0.29792 0.57475 0.37250 0.07000
C 	C 	0.36903 0.93312 0.64888 0.15500
C 	C 	0.08151 0.83418 0.46436 0.15200
C 	C 	0.20208 0.70225 0.62750 0.07000
C 	C 	0.13097 0.78424 0.35112 0.15500
C 	C 	0.88285 0.63018 0.46436 0.15300
C 	C 	0.92542 0.92525 0.62750 0.10000
C 	C 	0.72015 0.56688 0.35112 0.15600
C 	C 	0.13018 0.38285 0.96436 0.15200
C 	C 	0.42525 0.42542 0.12750 0.07100
C 	C 	0.06688 0.22015 0.85112 0.15700
C 	C 	0.33418 0.58151 0.96436 0.15000
C 	C 	0.20225 0.70208 0.12750 0.07000
C 	C 	0.28424 0.63097 0.85112 0.15500
C 	C 	0.16582 0.11715 0.03564 0.14900
C 	C 	0.29775 0.07458 0.87250 0.08200
C 	C 	0.21576 0.27985 0.14888 0.15500
C 	C 	0.36982 0.91849 0.03564 0.15700
C 	C 	0.07475 0.79792 0.87250 0.05300
C 	C 	0.43312 0.86903 0.14888 0.15600
N 	N 	0.55706 0.63891 0.46254 -0.28400
N 	N 	0.86983 0.73450 0.67922 -0.28500
N 	N 	0.67796 0.69406 0.62152 -0.19100
N 	N 	0.40548 0.82363 0.46254 -0.28400
N 	N 	0.30939 0.94472 0.67922 -0.28600
N 	N 	0.44356 0.92746 0.62152 -0.19100
N 	N 	0.09452 0.86109 0.53746 -0.28500
N 	N 	0.19061 0.76550 0.32078 -0.28600
N 	N 	0.05644 0.80594 0.37848 -0.19100
N 	N 	0.94294 0.67637 0.53746 -0.28300
N 	N 	0.63017 0.55528 0.32078 -0.28600
N 	N 	0.82204 0.57254 0.37848 -0.19100
N 	N 	0.17637 0.44294 0.03746 -0.28400
N 	N 	0.05528 0.13017 0.82078 -0.28300
N 	N 	0.07254 0.32204 0.87848 -0.19100
N 	N 	0.36109 0.59452 0.03746 -0.28400
N 	N 	0.26550 0.69061 0.82078 -0.28600
N 	N 	0.30594 0.55644 0.87848 -0.19000
N 	N 	0.13891 0.05706 0.96254 -0.28000
N 	N 	0.23450 0.36983 0.17922 -0.28600
N 	N 	0.19406 0.17796 0.12152 -0.19000
N 	N 	0.32363 0.90548 0.96254 -0.28900
N 	N 	0.44472 0.80939 0.17922 -0.28600
N 	N 	0.42746 0.94356 0.12152 -0.19100
O 	O 	0.48160 0.71823 0.31476 -0.60800
O 	O 	0.33316 0.59653 0.31476 -0.60800
O 	O 	0.16684 0.78177 0.68524 -0.60800
O 	O 	0.01840 0.90347 0.68524 -0.61700
O 	O 	0.40347 0.51840 0.18524 -0.60900
O 	O 	0.28177 0.66684 0.18524 -0.60900
O 	O 	0.21823 0.98160 0.81476 -0.61400
O 	O 	0.09653 0.83316 0.81476 -0.60700
