data_crystal

_cell_length_a 14.05300
_cell_length_b 14.05300
_cell_length_c 29.78100
_cell_angle_alpha 90.00000
_cell_angle_beta  90.00000
_cell_angle_gamma 90.00000

_symmetry_space_group_name_	'P 1'
_symmetry_space_group_name_H-M	'P 1'

loop_
_symmetry_equiv_pos_as_xyz
  x,y,z

loop_
_atom_site_label
_atom_site_type_symbol
_atom_site_fract_x
_atom_site_fract_y
_atom_site_fract_z
_atom_site_charge
Co	Co	0.42915 0.16248 0.08823 1.10500
O 	O 	0.42350 0.30920 0.09251 -0.61800
N 	N 	0.42230 0.15440 0.01789 -0.29100
C 	C 	0.39980 0.14540 0.98151 0.14900
N 	N 	0.38320 0.13110 0.93912 -0.19200
N 	N 	0.27890 0.14100 0.09002 -0.29100
C 	C 	0.29510 0.13860 0.92520 0.14700
C 	C 	0.35870 0.36020 0.06340 -0.00200
Co	Co	0.92915 0.66248 0.58823 1.10500
O 	O 	0.92350 0.80920 0.59251 -0.61800
N 	N 	0.92230 0.65440 0.51789 -0.29100
C 	C 	0.89980 0.64540 0.48151 0.14900
N 	N 	0.88320 0.63110 0.43912 -0.19200
N 	N 	0.77890 0.64100 0.59002 -0.29100
C 	C 	0.79510 0.63860 0.42520 0.14700
C 	C 	0.85870 0.86020 0.56340 -0.00300
Co	Co	0.07085 0.83752 0.58823 1.10400
O 	O 	0.07650 0.69080 0.59251 -0.61900
N 	N 	0.07770 0.84560 0.51789 -0.29200
C 	C 	0.10020 0.85460 0.48151 0.14800
N 	N 	0.11680 0.86890 0.43912 -0.19300
N 	N 	0.22110 0.85900 0.59002 -0.29200
C 	C 	0.20490 0.86140 0.42520 0.14600
C 	C 	0.14130 0.63980 0.56340 -0.00300
Co	Co	0.57085 0.33752 0.08823 1.10400
O 	O 	0.57650 0.19080 0.09251 -0.61900
N 	N 	0.57770 0.34560 0.01789 -0.29200
C 	C 	0.60020 0.35460 0.98151 0.14800
N 	N 	0.61680 0.36890 0.93912 -0.19300
N 	N 	0.72110 0.35900 0.09002 -0.29200
C 	C 	0.70490 0.36140 0.92520 0.14600
C 	C 	0.64130 0.13980 0.06340 -0.00300
Co	Co	0.07085 0.16248 0.91177 1.10400
O 	O 	0.07650 0.30920 0.90749 -0.61900
N 	N 	0.07770 0.15440 0.98211 -0.29200
C 	C 	0.10020 0.14540 0.01849 0.14800
N 	N 	0.11680 0.13110 0.06088 -0.19300
N 	N 	0.22110 0.14100 0.90998 -0.29200
C 	C 	0.20490 0.13860 0.07480 0.14600
C 	C 	0.14130 0.36020 0.93660 -0.00300
Co	Co	0.57085 0.66248 0.41177 1.10400
O 	O 	0.57650 0.80920 0.40749 -0.61900
N 	N 	0.57770 0.65440 0.48211 -0.29200
C 	C 	0.60020 0.64540 0.51849 0.14800
N 	N 	0.61680 0.63110 0.56088 -0.19300
N 	N 	0.72110 0.64100 0.40998 -0.29200
C 	C 	0.70490 0.63860 0.57480 0.14700
C 	C 	0.64130 0.86020 0.43660 -0.00300
Co	Co	0.42915 0.83752 0.41177 1.10400
O 	O 	0.42350 0.69080 0.40749 -0.61900
N 	N 	0.42230 0.84560 0.48211 -0.29200
C 	C 	0.39980 0.85460 0.51849 0.14800
N 	N 	0.38320 0.86890 0.56088 -0.19300
N 	N 	0.27890 0.85900 0.40998 -0.29200
C 	C 	0.29510 0.86140 0.57480 0.14600
C 	C 	0.35870 0.63980 0.43660 -0.00300
Co	Co	0.92915 0.33752 0.91177 1.10400
O 	O 	0.92350 0.19080 0.90749 -0.61900
N 	N 	0.92230 0.34560 0.98211 -0.29200
C 	C 	0.89980 0.35460 0.01849 0.14800
N 	N 	0.88320 0.36890 0.06088 -0.19300
N 	N 	0.77890 0.35900 0.90998 -0.29200
C 	C 	0.79510 0.36140 0.07480 0.14700
C 	C 	0.85870 0.13980 0.93660 -0.00300
Co	Co	0.91248 0.82085 0.66177 1.10400
O 	O 	0.05920 0.82650 0.65749 -0.61900
N 	N 	0.90440 0.82770 0.73211 -0.29200
C 	C 	0.89540 0.85020 0.76849 0.14800
N 	N 	0.88110 0.86680 0.81088 -0.19300
N 	N 	0.89100 0.97110 0.65998 -0.29200
C 	C 	0.88860 0.95490 0.82480 0.14600
C 	C 	0.11020 0.89130 0.68660 -0.00300
Co	Co	0.41248 0.32085 0.16177 1.10400
O 	O 	0.55920 0.32650 0.15749 -0.61900
N 	N 	0.40440 0.32770 0.23211 -0.29200
C 	C 	0.39540 0.35020 0.26849 0.14800
N 	N 	0.38110 0.36680 0.31088 -0.19300
N 	N 	0.39100 0.47110 0.15998 -0.29200
C 	C 	0.38860 0.45490 0.32480 0.14700
C 	C 	0.61020 0.39130 0.18660 -0.00300
Co	Co	0.58752 0.17915 0.16177 1.10400
O 	O 	0.44080 0.17350 0.15749 -0.61900
N 	N 	0.59560 0.17230 0.23211 -0.29200
C 	C 	0.60460 0.14980 0.26849 0.14800
N 	N 	0.61890 0.13320 0.31088 -0.19300
N 	N 	0.60900 0.02890 0.15998 -0.29200
C 	C 	0.61140 0.04510 0.32480 0.14600
C 	C 	0.38980 0.10870 0.18660 -0.00300
Co	Co	0.08752 0.67915 0.66177 1.10400
O 	O 	0.94080 0.67350 0.65749 -0.61900
N 	N 	0.09560 0.67230 0.73211 -0.29200
C 	C 	0.10460 0.64980 0.76849 0.14800
N 	N 	0.11890 0.63320 0.81088 -0.19300
N 	N 	0.10900 0.52890 0.65998 -0.29100
C 	C 	0.11140 0.54510 0.82480 0.14700
C 	C 	0.88980 0.60870 0.68660 -0.00300
Co	Co	0.58752 0.82085 0.33823 1.10400
O 	O 	0.44080 0.82650 0.34251 -0.61900
N 	N 	0.59560 0.82770 0.26789 -0.29200
C 	C 	0.60460 0.85020 0.23151 0.14800
N 	N 	0.61890 0.86680 0.18912 -0.19300
N 	N 	0.60900 0.97110 0.34002 -0.29200
C 	C 	0.61140 0.95490 0.17520 0.14600
C 	C 	0.38980 0.89130 0.31340 -0.00300
Co	Co	0.08752 0.32085 0.83823 1.10400
O 	O 	0.94080 0.32650 0.84251 -0.61900
N 	N 	0.09560 0.32770 0.76789 -0.29200
C 	C 	0.10460 0.35020 0.73151 0.14800
N 	N 	0.11890 0.36680 0.68912 -0.19300
N 	N 	0.10900 0.47110 0.84002 -0.29100
C 	C 	0.11140 0.45490 0.67520 0.14700
C 	C 	0.88980 0.39130 0.81340 -0.00300
Co	Co	0.91248 0.17915 0.83823 1.10400
O 	O 	0.05920 0.17350 0.84251 -0.61900
N 	N 	0.90440 0.17230 0.76789 -0.29200
C 	C 	0.89540 0.14980 0.73151 0.14800
N 	N 	0.88110 0.13320 0.68912 -0.19300
N 	N 	0.89100 0.02890 0.84002 -0.29200
C 	C 	0.88860 0.04510 0.67520 0.14600
C 	C 	0.11020 0.10870 0.81340 -0.00300
Co	Co	0.41248 0.67915 0.33823 1.10400
O 	O 	0.55920 0.67350 0.34251 -0.61900
N 	N 	0.40440 0.67230 0.26789 -0.29200
C 	C 	0.39540 0.64980 0.23151 0.14800
N 	N 	0.38110 0.63320 0.18912 -0.19300
N 	N 	0.39100 0.52890 0.34002 -0.29200
C 	C 	0.38860 0.54510 0.17520 0.14700
C 	C 	0.61020 0.60870 0.31340 -0.00300
Co	Co	0.08752 0.17915 0.33823 1.10400
O 	O 	0.94080 0.17350 0.34251 -0.61900
N 	N 	0.09560 0.17230 0.26789 -0.29200
C 	C 	0.10460 0.14980 0.23151 0.14800
N 	N 	0.11890 0.13320 0.18912 -0.19300
N 	N 	0.10900 0.02890 0.34002 -0.29200
C 	C 	0.11140 0.04510 0.17520 0.14600
C 	C 	0.88980 0.10870 0.31340 -0.00300
Co	Co	0.58752 0.67915 0.83823 1.10400
O 	O 	0.44080 0.67350 0.84251 -0.61900
N 	N 	0.59560 0.67230 0.76789 -0.29200
C 	C 	0.60460 0.64980 0.73151 0.14800
N 	N 	0.61890 0.63320 0.68912 -0.19300
N 	N 	0.60900 0.52890 0.84002 -0.29200
C 	C 	0.61140 0.54510 0.67520 0.14700
C 	C 	0.38980 0.60870 0.81340 -0.00300
Co	Co	0.41248 0.82085 0.83823 1.10400
O 	O 	0.55920 0.82650 0.84251 -0.61900
N 	N 	0.40440 0.82770 0.76789 -0.29200
C 	C 	0.39540 0.85020 0.73151 0.14800
N 	N 	0.38110 0.86680 0.68912 -0.19300
N 	N 	0.39100 0.97110 0.84002 -0.29200
C 	C 	0.38860 0.95490 0.67520 0.14600
C 	C 	0.61020 0.89130 0.81340 -0.00300
Co	Co	0.91248 0.32085 0.33823 1.10400
O 	O 	0.05920 0.32650 0.34251 -0.61900
N 	N 	0.90440 0.32770 0.26789 -0.29200
C 	C 	0.89540 0.35020 0.23151 0.14800
N 	N 	0.88110 0.36680 0.18912 -0.19300
N 	N 	0.89100 0.47110 0.34002 -0.29100
C 	C 	0.88860 0.45490 0.17520 0.14700
C 	C 	0.11020 0.39130 0.31340 -0.00300
Co	Co	0.41248 0.17915 0.66177 1.10400
O 	O 	0.55920 0.17350 0.65749 -0.61900
N 	N 	0.40440 0.17230 0.73211 -0.29200
C 	C 	0.39540 0.14980 0.76849 0.14800
N 	N 	0.38110 0.13320 0.81088 -0.19300
N 	N 	0.39100 0.02890 0.65998 -0.29200
C 	C 	0.38860 0.04510 0.82480 0.14600
C 	C 	0.61020 0.10870 0.68660 -0.00300
Co	Co	0.91248 0.67915 0.16177 1.10400
O 	O 	0.05920 0.67350 0.15749 -0.61900
N 	N 	0.90440 0.67230 0.23211 -0.29200
C 	C 	0.89540 0.64980 0.26849 0.14800
N 	N 	0.88110 0.63320 0.31088 -0.19300
N 	N 	0.89100 0.52890 0.15998 -0.29100
C 	C 	0.88860 0.54510 0.32480 0.14700
C 	C 	0.11020 0.60870 0.18660 -0.00300
Co	Co	0.08752 0.82085 0.16177 1.10400
O 	O 	0.94080 0.82650 0.15749 -0.61900
N 	N 	0.09560 0.82770 0.23211 -0.29200
C 	C 	0.10460 0.85020 0.26849 0.14800
N 	N 	0.11890 0.86680 0.31088 -0.19300
N 	N 	0.10900 0.97110 0.15998 -0.29200
C 	C 	0.11140 0.95490 0.32480 0.14600
C 	C 	0.88980 0.89130 0.18660 -0.00300
Co	Co	0.58752 0.32085 0.66177 1.10400
O 	O 	0.44080 0.32650 0.65749 -0.61900
N 	N 	0.59560 0.32770 0.73211 -0.29200
C 	C 	0.60460 0.35020 0.76849 0.14800
N 	N 	0.61890 0.36680 0.81088 -0.19300
N 	N 	0.60900 0.47110 0.65998 -0.29200
C 	C 	0.61140 0.45490 0.82480 0.14700
C 	C 	0.38980 0.39130 0.68660 -0.00300
Co	Co	0.57085 0.83752 0.91177 1.10400
O 	O 	0.57650 0.69080 0.90749 -0.61900
N 	N 	0.57770 0.84560 0.98211 -0.29200
C 	C 	0.60020 0.85460 0.01849 0.14800
N 	N 	0.61680 0.86890 0.06088 -0.19300
N 	N 	0.72110 0.85900 0.90998 -0.29200
C 	C 	0.70490 0.86140 0.07480 0.14600
C 	C 	0.64130 0.63980 0.93660 -0.00300
Co	Co	0.07085 0.33752 0.41177 1.10400
O 	O 	0.07650 0.19080 0.40749 -0.61900
N 	N 	0.07770 0.34560 0.48211 -0.29200
C 	C 	0.10020 0.35460 0.51849 0.14800
N 	N 	0.11680 0.36890 0.56088 -0.19300
N 	N 	0.22110 0.35900 0.40998 -0.29200
C 	C 	0.20490 0.36140 0.57480 0.14700
C 	C 	0.14130 0.13980 0.43660 -0.00300
Co	Co	0.92915 0.16248 0.41177 1.10400
O 	O 	0.92350 0.30920 0.40749 -0.61900
N 	N 	0.92230 0.15440 0.48211 -0.29200
C 	C 	0.89980 0.14540 0.51849 0.14800
N 	N 	0.88320 0.13110 0.56088 -0.19300
N 	N 	0.77890 0.14100 0.40998 -0.29200
C 	C 	0.79510 0.13860 0.57480 0.14600
C 	C 	0.85870 0.36020 0.43660 -0.00300
Co	Co	0.42915 0.66248 0.91177 1.10400
O 	O 	0.42350 0.80920 0.90749 -0.61900
N 	N 	0.42230 0.65440 0.98211 -0.29200
C 	C 	0.39980 0.64540 0.01849 0.14800
N 	N 	0.38320 0.63110 0.06088 -0.19300
N 	N 	0.27890 0.64100 0.90998 -0.29200
C 	C 	0.29510 0.63860 0.07480 0.14600
C 	C 	0.35870 0.86020 0.93660 -0.00300
Co	Co	0.92915 0.83752 0.08823 1.10400
O 	O 	0.92350 0.69080 0.09251 -0.61900
N 	N 	0.92230 0.84560 0.01789 -0.29200
C 	C 	0.89980 0.85460 0.98151 0.14800
N 	N 	0.88320 0.86890 0.93912 -0.19300
N 	N 	0.77890 0.85900 0.09002 -0.29200
C 	C 	0.79510 0.86140 0.92520 0.14600
C 	C 	0.85870 0.63980 0.06340 -0.00300
Co	Co	0.42915 0.33752 0.58823 1.10400
O 	O 	0.42350 0.19080 0.59251 -0.61900
N 	N 	0.42230 0.34560 0.51789 -0.29200
C 	C 	0.39980 0.35460 0.48151 0.14800
N 	N 	0.38320 0.36890 0.43912 -0.19300
N 	N 	0.27890 0.35900 0.59002 -0.29200
C 	C 	0.29510 0.36140 0.42520 0.14700
C 	C 	0.35870 0.13980 0.56340 -0.00300
Co	Co	0.57085 0.16248 0.58823 1.10400
O 	O 	0.57650 0.30920 0.59251 -0.61900
N 	N 	0.57770 0.15440 0.51789 -0.29200
C 	C 	0.60020 0.14540 0.48151 0.14800
N 	N 	0.61680 0.13110 0.43912 -0.19300
N 	N 	0.72110 0.14100 0.59002 -0.29200
C 	C 	0.70490 0.13860 0.42520 0.14600
C 	C 	0.64130 0.36020 0.56340 -0.00300
Co	Co	0.07085 0.66248 0.08823 1.10400
O 	O 	0.07650 0.80920 0.09251 -0.61900
N 	N 	0.07770 0.65440 0.01789 -0.29200
C 	C 	0.10020 0.64540 0.98151 0.14800
N 	N 	0.11680 0.63110 0.93912 -0.19300
N 	N 	0.22110 0.64100 0.09002 -0.29200
C 	C 	0.20490 0.63860 0.92520 0.14700
C 	C 	0.14130 0.86020 0.06340 -0.00300
