data_crystal

_cell_length_a 10.74910
_cell_length_b 10.75850
_cell_length_c 11.89010
_cell_angle_alpha 70.14600
_cell_angle_beta  78.01600
_cell_angle_gamma 61.03000

_symmetry_space_group_name_	'P 1'
_symmetry_space_group_name_H-M	'P 1'

loop_
_symmetry_equiv_pos_as_xyz
  x,y,z

loop_
_atom_site_label
_atom_site_type_symbol
_atom_site_fract_x
_atom_site_fract_y
_atom_site_fract_z
_atom_site_charge
Eu	Eu	0.54906 0.99931 0.16441 2.09400
Eu	Eu	0.45094 0.00069 0.83559 1.80500
Cu	Cu	-0.00000 0.00000 -0.00000 0.80200
Cu	Cu	-0.00000 0.00000 0.50000 0.81900
H 	H 	0.00450 0.27070 0.52130 -0.11300
H 	H 	0.90850 0.52060 0.43620 0.13300
H 	H 	0.69650 0.47820 0.22520 0.09300
H 	H 	0.79240 0.23090 0.31990 -0.02000
H 	H 	0.99770 0.72170 0.17810 0.11900
H 	H 	0.12900 0.46990 0.21940 0.01100
H 	H 	0.39120 0.53320 0.93740 0.05400
H 	H 	0.24940 0.78200 0.90110 0.00900
H 	H 	0.99550 0.72930 0.47870 0.12000
H 	H 	0.09150 0.47940 0.56380 0.01800
H 	H 	0.30350 0.52180 0.77480 0.06800
H 	H 	0.20760 0.76910 0.68010 0.02600
H 	H 	0.00230 0.27830 0.82190 -0.11100
H 	H 	0.87100 0.53010 0.78060 0.15300
H 	H 	0.60880 0.46680 0.06260 0.10700
H 	H 	0.75060 0.21800 0.09890 -0.04800
C 	C 	0.17790 0.97750 0.28320 -0.04900
C 	C 	0.17300 0.98840 0.16550 0.05700
C 	C 	0.28230 0.96550 0.35930 0.39200
C 	C 	0.26500 0.00190 0.05470 0.23900
C 	C 	0.94110 0.31320 0.46100 0.25700
C 	C 	0.88420 0.46350 0.40990 -0.20200
C 	C 	0.79120 0.52940 0.31990 0.06000
C 	C 	0.75850 0.43870 0.28610 -0.14000
C 	C 	0.81770 0.29000 0.34250 0.10400
C 	C 	0.72420 0.69290 0.25920 0.27100
C 	C 	0.07740 0.68270 0.12870 -0.12500
C 	C 	0.15620 0.53140 0.15460 0.03100
C 	C 	0.27700 0.47160 0.08270 -0.12300
C 	C 	0.31090 0.56880 0.98730 0.00700
C 	C 	0.22590 0.71800 0.96640 0.07200
C 	C 	0.36950 0.30700 0.10870 0.33100
C 	C 	0.82210 0.02250 0.71680 -0.00600
C 	C 	0.82700 0.01160 0.83450 -0.12700
C 	C 	0.71770 0.03450 0.64070 0.34800
C 	C 	0.73500 0.99810 0.94530 0.51000
C 	C 	0.05890 0.68680 0.53900 -0.10100
C 	C 	0.11580 0.53650 0.59010 0.00600
C 	C 	0.20880 0.47060 0.68010 -0.06000
C 	C 	0.24150 0.56130 0.71390 -0.04900
C 	C 	0.18230 0.71000 0.65750 0.03900
C 	C 	0.27580 0.30710 0.74080 0.31100
C 	C 	0.92260 0.31730 0.87130 0.27900
C 	C 	0.84380 0.46860 0.84540 -0.23300
C 	C 	0.72300 0.52840 0.91730 0.12800
C 	C 	0.68910 0.43120 0.01270 -0.21700
C 	C 	0.77410 0.28200 0.03360 0.10600
C 	C 	0.63050 0.69300 0.89130 0.23800
N 	N 	0.05550 0.97600 0.33750 -0.17000
N 	N 	0.97750 0.98200 0.26110 -0.00800
N 	N 	0.04920 0.98920 0.15560 -0.18500
N 	N 	0.90940 0.22610 0.42790 -0.24000
N 	N 	0.11040 0.77530 0.03620 -0.19300
N 	N 	0.94450 0.02400 0.66250 -0.13400
N 	N 	0.02250 0.01800 0.73890 -0.14400
N 	N 	0.95080 0.01080 0.84440 -0.11200
N 	N 	0.09060 0.77390 0.57210 -0.16600
N 	N 	0.88960 0.22470 0.96380 -0.22700
O 	O 	0.23290 0.99150 0.45810 -0.31200
O 	O 	0.41060 0.92430 0.32050 -0.46800
O 	O 	0.38110 0.00210 0.05710 -0.59400
O 	O 	0.22330 0.01290 0.95890 -0.46100
O 	O 	0.73850 0.77970 0.29850 -0.39100
O 	O 	0.65200 0.73940 0.17000 -0.40400
O 	O 	0.48480 0.25910 0.04830 -0.47400
O 	O 	0.33130 0.22190 0.19230 -0.47300
O 	O 	0.76710 0.00850 0.54190 -0.36100
O 	O 	0.58940 0.07570 0.67950 -0.47300
O 	O 	0.61890 0.99790 0.94290 -0.51200
O 	O 	0.77670 0.98710 0.04110 -0.50800
O 	O 	0.26150 0.22030 0.70150 -0.40700
O 	O 	0.34800 0.26060 0.83000 -0.39300
O 	O 	0.51520 0.74090 0.95170 -0.34300
O 	O 	0.66870 0.77810 0.80770 -0.34000
