data_crystal

_cell_length_a 18.83060
_cell_length_b 18.83060
_cell_length_c 20.96800
_cell_angle_alpha 63.31840
_cell_angle_beta  63.31840
_cell_angle_gamma 60.00000

_symmetry_space_group_name_	'P 1'
_symmetry_space_group_name_H-M	'P 1'

loop_
_symmetry_equiv_pos_as_xyz
  x,y,z

loop_
_atom_site_label
_atom_site_type_symbol
_atom_site_fract_x
_atom_site_fract_y
_atom_site_fract_z
_atom_site_charge
Cu	Cu	0.06586 0.49792 0.93830 0.90400
Cu	Cu	0.49792 0.49792 0.93830 0.90400
Cu	Cu	0.49792 0.06586 0.93830 0.90400
Cu	Cu	0.93414 0.50208 0.06170 0.90400
Cu	Cu	0.50208 0.93414 0.06170 0.90400
Cu	Cu	0.50208 0.50208 0.06170 0.90400
H 	H 	0.03120 0.53460 0.18990 0.05400
H 	H 	0.92610 0.49920 0.43590 0.05700
H 	H 	0.53460 0.24430 0.18990 0.05500
H 	H 	0.49920 0.13880 0.43590 0.05800
H 	H 	0.24430 0.03120 0.18990 0.05500
H 	H 	0.13880 0.92610 0.43590 0.05800
H 	H 	0.96880 0.75570 0.81010 0.05500
H 	H 	0.07390 0.86120 0.56410 0.05800
H 	H 	0.46540 0.96880 0.81010 0.05500
H 	H 	0.50080 0.07390 0.56410 0.05800
H 	H 	0.75570 0.46540 0.81010 0.05500
H 	H 	0.86120 0.50080 0.56410 0.05800
H 	H 	0.96880 0.46540 0.81010 0.05500
H 	H 	0.07390 0.50080 0.56410 0.05800
H 	H 	0.46540 0.75570 0.81010 0.05500
H 	H 	0.50080 0.86120 0.56410 0.05800
H 	H 	0.75570 0.96880 0.81010 0.05500
H 	H 	0.86120 0.07390 0.56410 0.05800
H 	H 	0.03120 0.24430 0.18990 0.05500
H 	H 	0.92610 0.13880 0.43590 0.05800
H 	H 	0.53460 0.03120 0.18990 0.05500
H 	H 	0.49920 0.92610 0.43590 0.05800
H 	H 	0.24430 0.53460 0.18990 0.05500
H 	H 	0.13880 0.49920 0.43590 0.05800
H 	H 	0.23050 0.53150 0.00750 0.04800
H 	H 	0.53150 0.23050 0.00750 0.04800
H 	H 	0.23050 0.23050 0.00750 0.04800
H 	H 	0.76950 0.76950 0.99250 0.04800
H 	H 	0.46850 0.76950 0.99250 0.04800
H 	H 	0.76950 0.46850 0.99250 0.04800
C 	C 	0.07525 0.52618 0.05568 0.38700
C 	C 	0.12261 0.53248 0.09174 -0.10000
C 	C 	0.08616 0.53488 0.16476 -0.01200
C 	C 	0.95525 0.50148 0.46038 -0.06300
C 	C 	0.52618 0.34289 0.05568 0.38700
C 	C 	0.53248 0.25317 0.09174 -0.10000
C 	C 	0.53488 0.21420 0.16476 -0.01200
C 	C 	0.50148 0.08289 0.46038 -0.06300
C 	C 	0.34289 0.07525 0.05568 0.38700
C 	C 	0.25317 0.12261 0.09174 -0.10000
C 	C 	0.21420 0.08616 0.16476 -0.01200
C 	C 	0.08289 0.95525 0.46038 -0.06300
C 	C 	0.92475 0.65711 0.94432 0.38700
C 	C 	0.87739 0.74683 0.90826 -0.10000
C 	C 	0.91384 0.78580 0.83524 -0.01200
C 	C 	0.04475 0.91711 0.53962 -0.06300
C 	C 	0.47382 0.92475 0.94432 0.38700
C 	C 	0.46752 0.87739 0.90826 -0.10000
C 	C 	0.46512 0.91384 0.83524 -0.01200
C 	C 	0.49852 0.04475 0.53962 -0.06300
C 	C 	0.65711 0.47382 0.94432 0.38700
C 	C 	0.74683 0.46752 0.90826 -0.10000
C 	C 	0.78580 0.46512 0.83524 -0.01200
C 	C 	0.91711 0.49852 0.53962 -0.06300
C 	C 	0.92475 0.47382 0.94432 0.38700
C 	C 	0.87739 0.46752 0.90826 -0.10000
C 	C 	0.91384 0.46512 0.83524 -0.01200
C 	C 	0.04475 0.49852 0.53962 -0.06300
C 	C 	0.47382 0.65711 0.94432 0.38700
C 	C 	0.46752 0.74683 0.90826 -0.10000
C 	C 	0.46512 0.78580 0.83524 -0.01200
C 	C 	0.49852 0.91711 0.53962 -0.06300
C 	C 	0.65711 0.92475 0.94432 0.38700
C 	C 	0.74683 0.87739 0.90826 -0.10000
C 	C 	0.78580 0.91384 0.83524 -0.01200
C 	C 	0.91711 0.04475 0.53962 -0.06300
C 	C 	0.07525 0.34289 0.05568 0.38700
C 	C 	0.12261 0.25317 0.09174 -0.10000
C 	C 	0.08616 0.21420 0.16476 -0.01200
C 	C 	0.95525 0.08289 0.46038 -0.06300
C 	C 	0.52618 0.07525 0.05568 0.38700
C 	C 	0.53248 0.12261 0.09174 -0.10000
C 	C 	0.53488 0.08616 0.16476 -0.01200
C 	C 	0.50148 0.95525 0.46038 -0.06300
C 	C 	0.34289 0.52618 0.05568 0.38700
C 	C 	0.25317 0.53248 0.09174 -0.10000
C 	C 	0.21420 0.53488 0.16476 -0.01200
C 	C 	0.08289 0.50148 0.46038 -0.06300
C 	C 	0.20551 0.53206 0.05691 0.04400
C 	C 	0.13058 0.53775 0.20109 0.00500
C 	C 	0.09479 0.53259 0.27783 -0.00300
C 	C 	0.07021 0.51539 0.34419 -0.02700
C 	C 	0.03480 0.50761 0.42279 0.04100
C 	C 	0.53206 0.20552 0.05690 0.04400
C 	C 	0.53775 0.13058 0.20109 0.00500
C 	C 	0.53259 0.09479 0.27783 -0.00300
C 	C 	0.51539 0.07021 0.34419 -0.02700
C 	C 	0.50761 0.03480 0.42279 0.04100
C 	C 	0.20552 0.20552 0.05690 0.04400
C 	C 	0.13058 0.13058 0.20109 0.00500
C 	C 	0.09479 0.09479 0.27783 -0.00300
C 	C 	0.07021 0.07021 0.34419 -0.02700
C 	C 	0.03480 0.03480 0.42279 0.04200
C 	C 	0.79449 0.79448 0.94309 0.04400
C 	C 	0.86942 0.86942 0.79891 0.00500
C 	C 	0.90521 0.90521 0.72217 -0.00300
C 	C 	0.92979 0.92979 0.65581 -0.02700
C 	C 	0.96520 0.96520 0.57721 0.04200
C 	C 	0.46794 0.79449 0.94309 0.04400
C 	C 	0.46225 0.86942 0.79891 0.00500
C 	C 	0.46741 0.90521 0.72217 -0.00300
C 	C 	0.48461 0.92979 0.65581 -0.02700
C 	C 	0.49239 0.96520 0.57721 0.04100
C 	C 	0.79448 0.46794 0.94309 0.04400
C 	C 	0.86942 0.46225 0.79891 0.00500
C 	C 	0.90521 0.46741 0.72217 -0.00300
C 	C 	0.92979 0.48461 0.65581 -0.02700
C 	C 	0.96520 0.49239 0.57721 0.04100
O 	O 	0.00412 0.52407 0.09261 -0.42300
O 	O 	0.11453 0.51987 0.99022 -0.40800
O 	O 	0.52407 0.37920 0.09261 -0.42300
O 	O 	0.51987 0.37538 0.99022 -0.40800
O 	O 	0.37920 0.00412 0.09261 -0.42300
O 	O 	0.37538 0.11453 0.99022 -0.40800
O 	O 	0.99588 0.62080 0.90739 -0.42300
O 	O 	0.88547 0.62462 0.00978 -0.40800
O 	O 	0.47593 0.99588 0.90739 -0.42300
O 	O 	0.48013 0.88547 0.00978 -0.40800
O 	O 	0.62080 0.47593 0.90739 -0.42300
O 	O 	0.62462 0.48013 0.00978 -0.40800
O 	O 	0.99588 0.47593 0.90739 -0.42300
O 	O 	0.88547 0.48013 0.00978 -0.40800
O 	O 	0.47593 0.62080 0.90739 -0.42300
O 	O 	0.48013 0.62462 0.00978 -0.40800
O 	O 	0.62080 0.99588 0.90739 -0.42300
O 	O 	0.62462 0.88547 0.00978 -0.40800
O 	O 	0.00412 0.37920 0.09261 -0.42300
O 	O 	0.11453 0.37538 0.99022 -0.40800
O 	O 	0.52407 0.00412 0.09261 -0.42300
O 	O 	0.51987 0.11453 0.99022 -0.40800
O 	O 	0.37920 0.52407 0.09261 -0.42300
O 	O 	0.37538 0.51987 0.99022 -0.40800
