data_crystal

_cell_length_a 8.07940
_cell_length_b 16.60420
_cell_length_c 26.80030
_cell_angle_alpha 90.00000
_cell_angle_beta  90.00000
_cell_angle_gamma 101.19100

_symmetry_space_group_name_	'P 1'
_symmetry_space_group_name_H-M	'P 1'

loop_
_symmetry_equiv_pos_as_xyz
  x,y,z

loop_
_atom_site_label
_atom_site_type_symbol
_atom_site_fract_x
_atom_site_fract_y
_atom_site_fract_z
_atom_site_charge
Eu	Eu	0.78500 0.77266 0.25567 1.96800
Eu	Eu	0.71500 0.22734 0.75567 1.97300
Eu	Eu	0.21500 0.22734 0.74433 1.96900
Eu	Eu	0.28500 0.77266 0.24433 1.97400
H 	H 	0.64000 0.68400 0.08800 0.09600
H 	H 	0.64080 0.82470 0.07950 0.02600
H 	H 	0.44280 0.80670 0.07810 0.02600
H 	H 	0.65170 0.75740 0.00390 0.05600
H 	H 	0.53990 0.82400 0.99660 0.05900
H 	H 	0.28990 0.59320 0.01240 0.05800
H 	H 	0.48740 0.60590 0.01460 0.05400
H 	H 	0.28330 0.66000 0.08840 0.03900
H 	H 	0.38500 0.58930 0.09580 0.03000
H 	H 	0.09320 0.51110 0.92690 0.05500
H 	H 	0.91740 0.49230 0.89980 0.05100
H 	H 	0.21530 0.44770 0.86400 0.04900
H 	H 	0.05570 0.38590 0.88310 0.03200
H 	H 	0.18900 0.52650 0.78190 0.05600
H 	H 	0.01420 0.50990 0.75440 0.04500
H 	H 	0.89040 0.57060 0.81920 0.05500
H 	H 	0.05090 0.63320 0.80130 0.05600
H 	H 	0.89800 0.41600 0.81510 0.08700
H 	H 	0.42770 0.84610 0.78100 0.05100
H 	H 	0.23870 0.80430 0.79020 0.05700
H 	H 	0.26120 0.93000 0.74680 0.02800
H 	H 	0.15980 0.93000 0.79670 0.04800
H 	H 	0.30970 0.00360 0.87300 0.04200
H 	H 	0.49870 0.04820 0.86760 0.01200
H 	H 	0.47810 0.92020 0.90720 0.05600
H 	H 	0.58450 0.92430 0.85800 0.04900
H 	H 	0.50200 0.00600 0.78410 0.07900
H 	H 	0.86000 0.31600 0.58800 0.09600
H 	H 	0.85920 0.17530 0.57950 0.02400
H 	H 	0.05720 0.19330 0.57810 0.02300
H 	H 	0.84830 0.24260 0.50390 0.05700
H 	H 	0.96010 0.17600 0.49660 0.06000
H 	H 	0.21010 0.40680 0.51240 0.05800
H 	H 	0.01260 0.39410 0.51460 0.05400
H 	H 	0.21670 0.34000 0.58840 0.03900
H 	H 	0.11500 0.41070 0.59580 0.03000
H 	H 	0.40680 0.48890 0.42690 0.05200
H 	H 	0.58260 0.50770 0.39980 0.04700
H 	H 	0.28470 0.55230 0.36400 0.05100
H 	H 	0.44430 0.61410 0.38310 0.03500
H 	H 	0.31100 0.47350 0.28190 0.05900
H 	H 	0.48580 0.49010 0.25440 0.04900
H 	H 	0.60960 0.42940 0.31920 0.05000
H 	H 	0.44910 0.36680 0.30130 0.05300
H 	H 	0.60200 0.58400 0.31510 0.08200
H 	H 	0.07230 0.15390 0.28100 0.05100
H 	H 	0.26130 0.19570 0.29020 0.05600
H 	H 	0.23880 0.07000 0.24680 0.03100
H 	H 	0.34020 0.07000 0.29670 0.05000
H 	H 	0.19030 0.99640 0.37300 0.04400
H 	H 	0.00130 0.95180 0.36760 0.01500
H 	H 	0.02190 0.07980 0.40720 0.05300
H 	H 	0.91550 0.07570 0.35800 0.04600
H 	H 	0.99800 0.99400 0.28410 0.07200
H 	H 	0.36000 0.31600 0.91200 0.09600
H 	H 	0.35920 0.17530 0.92050 0.02600
H 	H 	0.55720 0.19330 0.92190 0.02600
H 	H 	0.34830 0.24260 0.99610 0.05600
H 	H 	0.46010 0.17600 0.00340 0.05900
H 	H 	0.71010 0.40680 0.98760 0.05800
H 	H 	0.51260 0.39410 0.98540 0.05400
H 	H 	0.71670 0.34000 0.91160 0.03900
H 	H 	0.61500 0.41070 0.90420 0.03000
H 	H 	0.90680 0.48890 0.07310 0.05500
H 	H 	0.08260 0.50770 0.10020 0.05100
H 	H 	0.78470 0.55230 0.13600 0.04900
H 	H 	0.94430 0.61410 0.11690 0.03200
H 	H 	0.81100 0.47350 0.21810 0.05600
H 	H 	0.98580 0.49010 0.24560 0.04500
H 	H 	0.10960 0.42940 0.18080 0.05500
H 	H 	0.94910 0.36680 0.19870 0.05600
H 	H 	0.10200 0.58400 0.18490 0.08700
H 	H 	0.57230 0.15390 0.21900 0.05100
H 	H 	0.76130 0.19570 0.20980 0.05700
H 	H 	0.73880 0.07000 0.25320 0.02800
H 	H 	0.84020 0.07000 0.20330 0.04800
H 	H 	0.69030 0.99640 0.12700 0.04200
H 	H 	0.50130 0.95180 0.13240 0.01200
H 	H 	0.52190 0.07980 0.09280 0.05600
H 	H 	0.41550 0.07570 0.14200 0.04900
H 	H 	0.49800 0.99400 0.21590 0.07900
H 	H 	0.14000 0.68400 0.41200 0.09600
H 	H 	0.14080 0.82470 0.42050 0.02400
H 	H 	0.94280 0.80670 0.42190 0.02300
H 	H 	0.15170 0.75740 0.49610 0.05700
H 	H 	0.03990 0.82400 0.50340 0.06000
H 	H 	0.78990 0.59320 0.48760 0.05800
H 	H 	0.98740 0.60590 0.48540 0.05400
H 	H 	0.78330 0.66000 0.41160 0.03900
H 	H 	0.88500 0.58930 0.40420 0.03000
H 	H 	0.59320 0.51110 0.57310 0.05200
H 	H 	0.41740 0.49230 0.60020 0.04700
H 	H 	0.71530 0.44770 0.63600 0.05100
H 	H 	0.55570 0.38590 0.61690 0.03500
H 	H 	0.68900 0.52650 0.71810 0.05900
H 	H 	0.51420 0.50990 0.74560 0.04900
H 	H 	0.39040 0.57060 0.68080 0.05000
H 	H 	0.55090 0.63320 0.69870 0.05300
H 	H 	0.39800 0.41600 0.68490 0.08200
H 	H 	0.92770 0.84610 0.71900 0.05100
H 	H 	0.73870 0.80430 0.70980 0.05600
H 	H 	0.76120 0.93000 0.75320 0.03100
H 	H 	0.65980 0.93000 0.70330 0.05000
H 	H 	0.80970 0.00360 0.62700 0.04400
H 	H 	0.99870 0.04820 0.63240 0.01500
H 	H 	0.97810 0.92020 0.59280 0.05300
H 	H 	0.08450 0.92430 0.64200 0.04600
H 	H 	0.00200 0.00600 0.71590 0.07200
C 	C 	0.54290 0.71980 0.15301 0.46300
C 	C 	0.53850 0.70410 0.09704 -0.20400
C 	C 	0.54200 0.78500 0.06930 -0.01800
C 	C 	0.54620 0.77290 0.01329 -0.07900
C 	C 	0.39140 0.63030 0.02321 -0.07600
C 	C 	0.38600 0.64150 0.07938 -0.02100
C 	C 	0.34050 0.71190 0.95034 0.16600
C 	C 	0.31890 0.78120 0.87934 0.16900
C 	C 	0.18170 0.65060 0.88700 0.16900
C 	C 	0.03840 0.50560 0.89450 -0.06400
C 	C 	0.09310 0.43750 0.86568 -0.04400
C 	C 	0.06790 0.51310 0.78688 -0.04800
C 	C 	0.01260 0.58050 0.81741 -0.06400
C 	C 	0.33770 0.08350 0.78440 0.41700
C 	C 	0.02130 0.43050 0.81283 -0.16800
C 	C 	0.32570 0.85120 0.79880 -0.06800
C 	C 	0.27050 0.92940 0.78289 -0.03200
C 	C 	0.41560 0.00130 0.85656 -0.03000
C 	C 	0.47230 0.92340 0.87115 -0.06900
C 	C 	0.39250 0.00590 0.79980 -0.19000
C 	C 	0.08290 0.36380 0.78494 0.40500
C 	C 	0.95710 0.28020 0.65301 0.46800
C 	C 	0.96150 0.29590 0.59704 -0.20600
C 	C 	0.95800 0.21500 0.56930 -0.01200
C 	C 	0.95380 0.22710 0.51329 -0.08100
C 	C 	0.10860 0.36970 0.52321 -0.07600
C 	C 	0.11400 0.35850 0.57938 -0.02200
C 	C 	0.15950 0.28810 0.45034 0.16600
C 	C 	0.18110 0.21880 0.37934 0.17000
C 	C 	0.31830 0.34940 0.38700 0.17000
C 	C 	0.46160 0.49440 0.39450 -0.05600
C 	C 	0.40690 0.56250 0.36568 -0.05200
C 	C 	0.43210 0.48690 0.28688 -0.05700
C 	C 	0.48740 0.41950 0.31741 -0.05400
C 	C 	0.16230 0.91650 0.28440 0.41300
C 	C 	0.47870 0.56950 0.31283 -0.15800
C 	C 	0.17430 0.14880 0.29880 -0.06400
C 	C 	0.22950 0.07060 0.28289 -0.04000
C 	C 	0.08440 0.99870 0.35656 -0.03800
C 	C 	0.02770 0.07660 0.37115 -0.06300
C 	C 	0.10750 0.99410 0.29980 -0.17700
C 	C 	0.41710 0.63620 0.28494 0.40600
C 	C 	0.45710 0.28020 0.84699 0.46300
C 	C 	0.46150 0.29590 0.90296 -0.20400
C 	C 	0.45800 0.21500 0.93070 -0.01800
C 	C 	0.45380 0.22710 0.98671 -0.07900
C 	C 	0.60860 0.36970 0.97679 -0.07600
C 	C 	0.61400 0.35850 0.92062 -0.02100
C 	C 	0.65950 0.28810 0.04966 0.16600
C 	C 	0.68110 0.21880 0.12066 0.16900
C 	C 	0.81830 0.34940 0.11300 0.16900
C 	C 	0.96160 0.49440 0.10550 -0.06400
C 	C 	0.90690 0.56250 0.13432 -0.04400
C 	C 	0.93210 0.48690 0.21312 -0.04800
C 	C 	0.98740 0.41950 0.18259 -0.06400
C 	C 	0.66230 0.91650 0.21560 0.41700
C 	C 	0.97870 0.56950 0.18717 -0.16800
C 	C 	0.67430 0.14880 0.20120 -0.06800
C 	C 	0.72950 0.07060 0.21711 -0.03200
C 	C 	0.58440 0.99870 0.14344 -0.03000
C 	C 	0.52770 0.07660 0.12885 -0.06900
C 	C 	0.60750 0.99410 0.20020 -0.19000
C 	C 	0.91710 0.63620 0.21506 0.40500
C 	C 	0.04290 0.71980 0.34699 0.46800
C 	C 	0.03850 0.70410 0.40296 -0.20600
C 	C 	0.04200 0.78500 0.43070 -0.01200
C 	C 	0.04620 0.77290 0.48671 -0.08100
C 	C 	0.89140 0.63030 0.47679 -0.07600
C 	C 	0.88600 0.64150 0.42062 -0.02200
C 	C 	0.84050 0.71190 0.54966 0.16600
C 	C 	0.81890 0.78120 0.62066 0.17000
C 	C 	0.68170 0.65060 0.61300 0.17000
C 	C 	0.53840 0.50560 0.60550 -0.05600
C 	C 	0.59310 0.43750 0.63432 -0.05200
C 	C 	0.56790 0.51310 0.71312 -0.05700
C 	C 	0.51260 0.58050 0.68259 -0.05400
C 	C 	0.83770 0.08350 0.71560 0.41300
C 	C 	0.52130 0.43050 0.68717 -0.15800
C 	C 	0.82570 0.85120 0.70120 -0.06400
C 	C 	0.77050 0.92940 0.71711 -0.04000
C 	C 	0.91560 0.00130 0.64344 -0.03800
C 	C 	0.97230 0.92340 0.62885 -0.06300
C 	C 	0.89250 0.00590 0.70020 -0.17700
C 	C 	0.58290 0.36380 0.71506 0.40600
N 	N 	0.40480 0.70900 0.99741 -0.11200
N 	N 	0.38610 0.78260 0.92515 -0.16500
N 	N 	0.23650 0.64420 0.93411 -0.16400
N 	N 	0.21790 0.71680 0.85765 -0.16500
N 	N 	0.35730 0.85110 0.85228 -0.11500
N 	N 	0.08200 0.58270 0.86742 -0.11500
N 	N 	0.09520 0.29100 0.49741 -0.11200
N 	N 	0.11390 0.21740 0.42515 -0.16500
N 	N 	0.26350 0.35580 0.43411 -0.16400
N 	N 	0.28210 0.28320 0.35765 -0.16500
N 	N 	0.14270 0.14890 0.35228 -0.11600
N 	N 	0.41800 0.41730 0.36742 -0.11800
N 	N 	0.59520 0.29100 0.00259 -0.11200
N 	N 	0.61390 0.21740 0.07485 -0.16500
N 	N 	0.76350 0.35580 0.06589 -0.16400
N 	N 	0.78210 0.28320 0.14235 -0.16500
N 	N 	0.64270 0.14890 0.14772 -0.11500
N 	N 	0.91800 0.41730 0.13258 -0.11500
N 	N 	0.90480 0.70900 0.50259 -0.11200
N 	N 	0.88610 0.78260 0.57485 -0.16500
N 	N 	0.73650 0.64420 0.56589 -0.16400
N 	N 	0.71790 0.71680 0.64235 -0.16500
N 	N 	0.85730 0.85110 0.64772 -0.11600
N 	N 	0.58200 0.58270 0.63258 -0.11800
O 	O 	0.68830 0.74320 0.17195 -0.49000
O 	O 	0.18650 0.08950 0.78804 -0.44400
O 	O 	0.44250 0.14355 0.76624 -0.61500
O 	O 	0.98890 0.29112 0.78398 -0.60500
O 	O 	0.22420 0.37608 0.76528 -0.42700
O 	O 	0.40650 0.71335 0.17605 -0.52100
O 	O 	0.81170 0.25680 0.67195 -0.49100
O 	O 	0.31350 0.91050 0.28804 -0.44200
O 	O 	0.05750 0.85645 0.26624 -0.61200
O 	O 	0.51110 0.70888 0.28398 -0.60800
O 	O 	0.27580 0.62392 0.26528 -0.42700
O 	O 	0.09350 0.28665 0.67605 -0.52400
O 	O 	0.31170 0.25680 0.82805 -0.49000
O 	O 	0.81350 0.91050 0.21196 -0.44400
O 	O 	0.55750 0.85645 0.23376 -0.61500
O 	O 	0.01110 0.70888 0.21602 -0.60500
O 	O 	0.77580 0.62392 0.23472 -0.42700
O 	O 	0.59350 0.28665 0.82395 -0.52100
O 	O 	0.18830 0.74320 0.32805 -0.49100
O 	O 	0.68650 0.08950 0.71196 -0.44200
O 	O 	0.94250 0.14355 0.73376 -0.61200
O 	O 	0.48890 0.29112 0.71602 -0.60800
O 	O 	0.72420 0.37608 0.73472 -0.42700
O 	O 	0.90650 0.71335 0.32395 -0.52400
