data_crystal

_cell_length_a 8.24020
_cell_length_b 16.57580
_cell_length_c 26.69200
_cell_angle_alpha 90.00000
_cell_angle_beta  90.00000
_cell_angle_gamma 100.84800

_symmetry_space_group_name_	'P 1'
_symmetry_space_group_name_H-M	'P 1'

loop_
_symmetry_equiv_pos_as_xyz
  x,y,z

loop_
_atom_site_label
_atom_site_type_symbol
_atom_site_fract_x
_atom_site_fract_y
_atom_site_fract_z
_atom_site_charge
Pr	Pr	0.21513 0.73197 0.74385 2.06100
Pr	Pr	0.28487 0.26802 0.24385 2.06200
Pr	Pr	0.78487 0.26802 0.25615 2.06100
Pr	Pr	0.71513 0.73197 0.75615 2.06200
H 	H 	0.50100 0.50500 0.78080 0.08200
H 	H 	0.25830 0.43160 0.74540 0.03400
H 	H 	0.16590 0.43180 0.79690 0.05400
H 	H 	0.42790 0.34790 0.77750 0.05100
H 	H 	0.24450 0.30570 0.78860 0.05500
H 	H 	0.49640 0.42050 0.90400 0.05400
H 	H 	0.59220 0.42430 0.85290 0.04700
H 	H 	0.32180 0.50410 0.87170 0.04800
H 	H 	0.50550 0.54960 0.86450 0.01600
H 	H 	0.88600 0.07810 0.81870 0.05400
H 	H 	0.04420 0.14070 0.80210 0.05400
H 	H 	0.00960 0.01780 0.75420 0.05100
H 	H 	0.18050 0.03450 0.78210 0.06100
H 	H 	0.89600 0.92300 0.81490 0.08500
H 	H 	0.20270 0.95400 0.86620 0.05600
H 	H 	0.04510 0.89230 0.88410 0.03900
H 	H 	0.07520 0.01780 0.92820 0.05100
H 	H 	0.90620 0.99920 0.89930 0.04800
H 	H 	0.28700 0.09370 0.01090 0.05300
H 	H 	0.47980 0.10160 0.01230 0.05000
H 	H 	0.29010 0.16120 0.08710 0.04700
H 	H 	0.38170 0.08700 0.09390 0.04100
H 	H 	0.65100 0.31820 0.07810 0.03900
H 	H 	0.45720 0.30490 0.07720 0.03700
H 	H 	0.65340 0.25010 0.00160 0.05200
H 	H 	0.55180 0.32050 0.99460 0.05400
H 	H 	0.63900 0.17500 0.08580 0.08500
H 	H 	0.99900 0.49500 0.28080 0.07700
H 	H 	0.24170 0.56840 0.24540 0.03500
H 	H 	0.33410 0.56820 0.29690 0.05400
H 	H 	0.07210 0.65210 0.27750 0.05000
H 	H 	0.25550 0.69430 0.28860 0.05500
H 	H 	0.00360 0.57950 0.40400 0.05300
H 	H 	0.90780 0.57570 0.35290 0.04400
H 	H 	0.17820 0.49590 0.37170 0.04800
H 	H 	0.99450 0.45040 0.36450 0.01400
H 	H 	0.61400 0.92190 0.31870 0.04900
H 	H 	0.45580 0.85930 0.30210 0.05200
H 	H 	0.49040 0.98220 0.25420 0.05500
H 	H 	0.31950 0.96550 0.28210 0.06400
H 	H 	0.60400 0.07700 0.31490 0.08000
H 	H 	0.29730 0.04600 0.36620 0.05900
H 	H 	0.45490 0.10770 0.38410 0.04200
H 	H 	0.42480 0.98220 0.42820 0.04900
H 	H 	0.59380 0.00080 0.39930 0.04400
H 	H 	0.21300 0.90630 0.51090 0.05300
H 	H 	0.02020 0.89840 0.51230 0.05000
H 	H 	0.20990 0.83880 0.58710 0.04700
H 	H 	0.11830 0.91300 0.59390 0.04000
H 	H 	0.84900 0.68180 0.57810 0.03800
H 	H 	0.04280 0.69510 0.57720 0.03400
H 	H 	0.84660 0.74990 0.50160 0.05200
H 	H 	0.94820 0.67950 0.49460 0.05400
H 	H 	0.86100 0.82500 0.58580 0.08500
H 	H 	0.49900 0.49500 0.21920 0.08100
H 	H 	0.74170 0.56840 0.25460 0.03300
H 	H 	0.83410 0.56820 0.20310 0.05300
H 	H 	0.57210 0.65210 0.22250 0.05000
H 	H 	0.75550 0.69430 0.21140 0.05500
H 	H 	0.50360 0.57950 0.09600 0.05400
H 	H 	0.40780 0.57570 0.14710 0.04700
H 	H 	0.67820 0.49590 0.12830 0.04800
H 	H 	0.49450 0.45040 0.13550 0.01600
H 	H 	0.11400 0.92190 0.18130 0.05400
H 	H 	0.95580 0.85930 0.19790 0.05400
H 	H 	0.99040 0.98220 0.24580 0.05100
H 	H 	0.81950 0.96550 0.21790 0.06100
H 	H 	0.10400 0.07700 0.18510 0.08500
H 	H 	0.79730 0.04600 0.13380 0.05600
H 	H 	0.95490 0.10770 0.11590 0.03900
H 	H 	0.92480 0.98220 0.07180 0.05100
H 	H 	0.09380 0.00080 0.10070 0.04800
H 	H 	0.71300 0.90630 0.98910 0.05300
H 	H 	0.52020 0.89840 0.98770 0.05000
H 	H 	0.70990 0.83880 0.91290 0.04700
H 	H 	0.61830 0.91300 0.90610 0.04100
H 	H 	0.34900 0.68180 0.92190 0.03900
H 	H 	0.54280 0.69510 0.92280 0.03700
H 	H 	0.34660 0.74990 0.99840 0.05200
H 	H 	0.44820 0.67950 0.00540 0.05400
H 	H 	0.36100 0.82500 0.91420 0.08500
H 	H 	0.00100 0.50500 0.71920 0.07700
H 	H 	0.75830 0.43160 0.75460 0.03500
H 	H 	0.66590 0.43180 0.70310 0.05400
H 	H 	0.92790 0.34790 0.72250 0.05000
H 	H 	0.74450 0.30570 0.71140 0.05500
H 	H 	0.99640 0.42050 0.59600 0.05300
H 	H 	0.09220 0.42430 0.64710 0.04400
H 	H 	0.82180 0.50410 0.62830 0.04800
H 	H 	0.00550 0.54960 0.63550 0.01400
H 	H 	0.38600 0.07810 0.68130 0.04900
H 	H 	0.54420 0.14070 0.69790 0.05200
H 	H 	0.50960 0.01780 0.74580 0.05500
H 	H 	0.68050 0.03450 0.71790 0.06400
H 	H 	0.39600 0.92300 0.68510 0.08000
H 	H 	0.70270 0.95400 0.63380 0.05900
H 	H 	0.54510 0.89230 0.61590 0.04200
H 	H 	0.57520 0.01780 0.57180 0.04900
H 	H 	0.40620 0.99920 0.60070 0.04400
H 	H 	0.78700 0.09370 0.48910 0.05300
H 	H 	0.97980 0.10160 0.48770 0.05000
H 	H 	0.79010 0.16120 0.41290 0.04700
H 	H 	0.88170 0.08700 0.40610 0.04000
H 	H 	0.15100 0.31820 0.42190 0.03800
H 	H 	0.95720 0.30490 0.42280 0.03400
H 	H 	0.15340 0.25010 0.49840 0.05200
H 	H 	0.05180 0.32050 0.50540 0.05400
H 	H 	0.13900 0.17500 0.41420 0.08500
C 	C 	0.39630 0.50620 0.79773 -0.17500
C 	C 	0.27220 0.43070 0.78150 -0.04300
C 	C 	0.32990 0.35270 0.79654 -0.06200
C 	C 	0.48480 0.42370 0.86790 -0.06400
C 	C 	0.42430 0.50240 0.85415 -0.04200
C 	C 	0.32420 0.28280 0.87800 0.17000
C 	C 	0.17630 0.15480 0.88725 0.17000
C 	C 	0.34090 0.21240 0.94923 0.16800
C 	C 	0.33950 0.58550 0.78356 0.38700
C 	C 	0.00580 0.08770 0.81781 -0.05800
C 	C 	0.06190 0.02090 0.78691 -0.05700
C 	C 	0.01650 0.93770 0.81330 -0.16100
C 	C 	0.08290 0.94390 0.86689 -0.05900
C 	C 	0.02520 0.01250 0.89513 -0.05300
C 	C 	0.38930 0.12860 0.02143 -0.06200
C 	C 	0.38740 0.13980 0.07759 -0.04800
C 	C 	0.55140 0.28080 0.06796 -0.05000
C 	C 	0.55310 0.26860 0.01126 -0.06300
C 	C 	0.54710 0.21560 0.15147 0.41400
C 	C 	0.07930 0.87100 0.78562 0.37400
C 	C 	0.54140 0.19850 0.09500 -0.16200
C 	C 	0.10370 0.49380 0.29773 -0.16900
C 	C 	0.22780 0.56930 0.28150 -0.04700
C 	C 	0.17010 0.64730 0.29654 -0.06100
C 	C 	0.01520 0.57630 0.36790 -0.05900
C 	C 	0.07570 0.49760 0.35415 -0.04200
C 	C 	0.17580 0.71720 0.37800 0.17100
C 	C 	0.32370 0.84520 0.38725 0.17100
C 	C 	0.15910 0.78760 0.44923 0.16800
C 	C 	0.16050 0.41450 0.28356 0.38500
C 	C 	0.49420 0.91230 0.31781 -0.04800
C 	C 	0.43810 0.97910 0.28691 -0.06700
C 	C 	0.48350 0.06230 0.31330 -0.15000
C 	C 	0.41710 0.05610 0.36689 -0.06600
C 	C 	0.47480 0.98750 0.39513 -0.04500
C 	C 	0.11070 0.87140 0.52143 -0.06100
C 	C 	0.11260 0.86020 0.57759 -0.04900
C 	C 	0.94860 0.71920 0.56796 -0.04500
C 	C 	0.94690 0.73140 0.51126 -0.06400
C 	C 	0.95290 0.78440 0.65147 0.41800
C 	C 	0.42070 0.12900 0.28562 0.37400
C 	C 	0.95860 0.80150 0.59500 -0.16200
C 	C 	0.60370 0.49380 0.20227 -0.17500
C 	C 	0.72780 0.56930 0.21850 -0.04300
C 	C 	0.67010 0.64730 0.20346 -0.06200
C 	C 	0.51520 0.57630 0.13210 -0.06400
C 	C 	0.57570 0.49760 0.14585 -0.04200
C 	C 	0.67580 0.71720 0.12200 0.17000
C 	C 	0.82370 0.84520 0.11275 0.17000
C 	C 	0.65910 0.78760 0.05077 0.16800
C 	C 	0.66050 0.41450 0.21644 0.38700
C 	C 	0.99420 0.91230 0.18219 -0.05800
C 	C 	0.93810 0.97910 0.21309 -0.05700
C 	C 	0.98350 0.06230 0.18670 -0.16100
C 	C 	0.91710 0.05610 0.13311 -0.05900
C 	C 	0.97480 0.98750 0.10487 -0.05300
C 	C 	0.61070 0.87140 0.97857 -0.06200
C 	C 	0.61260 0.86020 0.92241 -0.04800
C 	C 	0.44860 0.71920 0.93204 -0.05000
C 	C 	0.44690 0.73140 0.98874 -0.06300
C 	C 	0.45290 0.78440 0.84853 0.41400
C 	C 	0.92070 0.12900 0.21438 0.37400
C 	C 	0.45860 0.80150 0.90500 -0.16200
C 	C 	0.89630 0.50620 0.70227 -0.16900
C 	C 	0.77220 0.43070 0.71850 -0.04700
C 	C 	0.82990 0.35270 0.70346 -0.06100
C 	C 	0.98480 0.42370 0.63210 -0.05900
C 	C 	0.92430 0.50240 0.64585 -0.04200
C 	C 	0.82420 0.28280 0.62200 0.17100
C 	C 	0.67630 0.15480 0.61275 0.17100
C 	C 	0.84090 0.21240 0.55077 0.16800
C 	C 	0.83950 0.58550 0.71644 0.38500
C 	C 	0.50580 0.08770 0.68219 -0.04800
C 	C 	0.56190 0.02090 0.71309 -0.06700
C 	C 	0.51650 0.93770 0.68670 -0.15000
C 	C 	0.58290 0.94390 0.63311 -0.06600
C 	C 	0.52520 0.01250 0.60487 -0.04500
C 	C 	0.88930 0.12860 0.47857 -0.06100
C 	C 	0.88740 0.13980 0.42241 -0.04900
C 	C 	0.05140 0.28080 0.43204 -0.04500
C 	C 	0.05310 0.26860 0.48874 -0.06400
C 	C 	0.04710 0.21560 0.34853 0.41800
C 	C 	0.57930 0.87100 0.71438 0.37400
C 	C 	0.04140 0.19850 0.40500 -0.16200
N 	N 	0.36730 0.35200 0.85003 -0.11600
N 	N 	0.21830 0.22030 0.85687 -0.16400
N 	N 	0.39100 0.28280 0.92338 -0.16500
N 	N 	0.23150 0.14750 0.93387 -0.16600
N 	N 	0.06930 0.08930 0.86861 -0.11800
N 	N 	0.40840 0.20780 0.99564 -0.11600
N 	N 	0.13270 0.64800 0.35003 -0.11700
N 	N 	0.28170 0.77970 0.35687 -0.16400
N 	N 	0.10900 0.71720 0.42338 -0.16500
N 	N 	0.26850 0.85250 0.43387 -0.16600
N 	N 	0.43070 0.91070 0.36861 -0.12000
N 	N 	0.09160 0.79220 0.49564 -0.11600
N 	N 	0.63270 0.64800 0.14997 -0.11600
N 	N 	0.78170 0.77970 0.14313 -0.16400
N 	N 	0.60900 0.71720 0.07662 -0.16500
N 	N 	0.76850 0.85250 0.06613 -0.16600
N 	N 	0.93070 0.91070 0.13139 -0.11800
N 	N 	0.59160 0.79220 0.00436 -0.11600
N 	N 	0.86730 0.35200 0.64997 -0.11700
N 	N 	0.71830 0.22030 0.64313 -0.16400
N 	N 	0.89100 0.28280 0.57662 -0.16500
N 	N 	0.73150 0.14750 0.56613 -0.16600
N 	N 	0.56930 0.08930 0.63139 -0.12000
N 	N 	0.90840 0.20780 0.50436 -0.11600
O 	O 	0.44280 0.64560 0.76659 -0.63200
O 	O 	0.19080 0.59120 0.78753 -0.44900
O 	O 	0.98780 0.79840 0.78472 -0.62200
O 	O 	0.41410 0.20830 0.17494 -0.52300
O 	O 	0.21830 0.88350 0.76595 -0.42700
O 	O 	0.69040 0.23890 0.16997 -0.48600
O 	O 	0.05720 0.35440 0.26659 -0.63000
O 	O 	0.30920 0.40880 0.28753 -0.44800
O 	O 	0.51220 0.20160 0.28472 -0.62400
O 	O 	0.08590 0.79170 0.67494 -0.52600
O 	O 	0.28170 0.11650 0.26595 -0.42600
O 	O 	0.80960 0.76110 0.66997 -0.48600
O 	O 	0.55720 0.35440 0.23341 -0.63200
O 	O 	0.80920 0.40880 0.21247 -0.44900
O 	O 	0.01220 0.20160 0.21528 -0.62200
O 	O 	0.58590 0.79170 0.82506 -0.52300
O 	O 	0.78170 0.11650 0.23405 -0.42700
O 	O 	0.30960 0.76110 0.83003 -0.48600
O 	O 	0.94280 0.64560 0.73341 -0.63000
O 	O 	0.69080 0.59120 0.71247 -0.44800
O 	O 	0.48780 0.79840 0.71528 -0.62400
O 	O 	0.91410 0.20830 0.32506 -0.52600
O 	O 	0.71830 0.88350 0.73405 -0.42600
O 	O 	0.19040 0.23890 0.33003 -0.48600
