data_crystal

_cell_length_a 8.18810
_cell_length_b 16.58880
_cell_length_c 26.73620
_cell_angle_alpha 90.00000
_cell_angle_beta  90.00000
_cell_angle_gamma 100.93900

_symmetry_space_group_name_	'P 1'
_symmetry_space_group_name_H-M	'P 1'

loop_
_symmetry_equiv_pos_as_xyz
  x,y,z

loop_
_atom_site_label
_atom_site_type_symbol
_atom_site_fract_x
_atom_site_fract_y
_atom_site_fract_z
_atom_site_charge
Nd	Nd	0.78511 0.76964 0.74410 2.22100
Nd	Nd	0.71489 0.23036 0.24410 2.22600
Nd	Nd	0.21489 0.23036 0.25590 2.22200
Nd	Nd	0.28511 0.76964 0.75590 2.22600
H 	H 	0.10300 0.57900 0.81400 0.08300
H 	H 	0.81640 0.46890 0.78280 0.05500
H 	H 	0.98770 0.48520 0.75460 0.04300
H 	H 	0.11340 0.42590 0.82000 0.05600
H 	H 	0.95640 0.36260 0.80230 0.05700
H 	H 	0.92060 0.48450 0.92790 0.05400
H 	H 	0.09110 0.50250 0.89930 0.05100
H 	H 	0.79420 0.54890 0.86600 0.04800
H 	H 	0.95390 0.61020 0.88370 0.02900
H 	H 	0.50300 0.99300 0.78200 0.08400
H 	H 	0.68410 0.99600 0.87340 0.03500
H 	H 	0.50000 0.94930 0.86640 0.00100
H 	H 	0.50720 0.08020 0.90560 0.05900
H 	H 	0.40760 0.07440 0.85510 0.05000
H 	H 	0.57080 0.15140 0.77810 0.05400
H 	H 	0.75480 0.19500 0.78880 0.05900
H 	H 	0.74220 0.06890 0.74530 0.02100
H 	H 	0.84000 0.07020 0.79580 0.04100
H 	H 	0.36100 0.32200 0.08600 0.09400
H 	H 	0.71320 0.33670 0.08600 0.03400
H 	H 	0.62290 0.41120 0.09420 0.02800
H 	H 	0.35090 0.17960 0.07810 0.02200
H 	H 	0.54600 0.19400 0.07760 0.02000
H 	H 	0.34780 0.24660 0.00160 0.05600
H 	H 	0.45510 0.17820 0.99500 0.05900
H 	H 	0.71100 0.40670 0.01120 0.05800
H 	H 	0.51650 0.39670 0.01360 0.05400
H 	H 	0.39700 0.42100 0.31400 0.07700
H 	H 	0.68360 0.53110 0.28280 0.05600
H 	H 	0.51230 0.51480 0.25460 0.04500
H 	H 	0.38660 0.57410 0.32000 0.05000
H 	H 	0.54360 0.63740 0.30230 0.05300
H 	H 	0.57940 0.51550 0.42790 0.05100
H 	H 	0.40890 0.49750 0.39930 0.04600
H 	H 	0.70580 0.45110 0.36600 0.04900
H 	H 	0.54610 0.38980 0.38370 0.03200
H 	H 	0.99700 0.00700 0.28200 0.08600
H 	H 	0.81590 0.00400 0.37340 0.03300
H 	H 	0.00000 0.05070 0.36640 -0.00400
H 	H 	0.99280 0.91980 0.40560 0.05900
H 	H 	0.09240 0.92560 0.35510 0.05000
H 	H 	0.92920 0.84860 0.27810 0.05400
H 	H 	0.74520 0.80500 0.28880 0.06000
H 	H 	0.75780 0.93110 0.24530 0.02100
H 	H 	0.66000 0.92980 0.29580 0.04200
H 	H 	0.13900 0.67800 0.58600 0.09400
H 	H 	0.78680 0.66330 0.58600 0.03400
H 	H 	0.87710 0.58880 0.59420 0.02800
H 	H 	0.14910 0.82040 0.57810 0.02100
H 	H 	0.95400 0.80600 0.57760 0.01700
H 	H 	0.15220 0.75340 0.50160 0.05700
H 	H 	0.04490 0.82180 0.49500 0.05900
H 	H 	0.78900 0.59330 0.51120 0.05800
H 	H 	0.98350 0.60330 0.51360 0.05400
H 	H 	0.89700 0.42100 0.18600 0.08100
H 	H 	0.18360 0.53110 0.21720 0.05400
H 	H 	0.01230 0.51480 0.24540 0.04200
H 	H 	0.88660 0.57410 0.18000 0.05400
H 	H 	0.04360 0.63740 0.19770 0.05600
H 	H 	0.07940 0.51550 0.07210 0.05300
H 	H 	0.90890 0.49750 0.10070 0.04900
H 	H 	0.20580 0.45110 0.13400 0.04700
H 	H 	0.04610 0.38980 0.11630 0.02900
H 	H 	0.49700 0.00700 0.21800 0.08500
H 	H 	0.31590 0.00400 0.12660 0.03500
H 	H 	0.50000 0.05070 0.13360 0.00100
H 	H 	0.49280 0.91980 0.09440 0.05900
H 	H 	0.59240 0.92560 0.14490 0.05000
H 	H 	0.42920 0.84860 0.22190 0.05400
H 	H 	0.24520 0.80500 0.21120 0.05900
H 	H 	0.25780 0.93110 0.25470 0.02100
H 	H 	0.16000 0.92980 0.20420 0.04100
H 	H 	0.63900 0.67800 0.91400 0.09400
H 	H 	0.28680 0.66330 0.91400 0.03400
H 	H 	0.37710 0.58880 0.90580 0.02800
H 	H 	0.64910 0.82040 0.92190 0.02200
H 	H 	0.45400 0.80600 0.92240 0.02000
H 	H 	0.65220 0.75340 0.99840 0.05600
H 	H 	0.54490 0.82180 0.00500 0.05900
H 	H 	0.28900 0.59330 0.98880 0.05800
H 	H 	0.48350 0.60330 0.98640 0.05400
H 	H 	0.60300 0.57900 0.68600 0.07700
H 	H 	0.31640 0.46890 0.71720 0.05600
H 	H 	0.48770 0.48520 0.74540 0.04500
H 	H 	0.61340 0.42590 0.68000 0.05000
H 	H 	0.45640 0.36260 0.69770 0.05400
H 	H 	0.42060 0.48450 0.57210 0.05100
H 	H 	0.59110 0.50250 0.60070 0.04600
H 	H 	0.29420 0.54890 0.63400 0.04900
H 	H 	0.45390 0.61020 0.61630 0.03200
H 	H 	0.00300 0.99300 0.71800 0.08500
H 	H 	0.18410 0.99600 0.62660 0.03600
H 	H 	-0.00000 0.94930 0.63360 0.00200
H 	H 	0.00720 0.08020 0.59440 0.05700
H 	H 	0.90760 0.07440 0.64490 0.04800
H 	H 	0.07080 0.15140 0.72190 0.05400
H 	H 	0.25480 0.19500 0.71120 0.06000
H 	H 	0.24220 0.06890 0.75470 0.02200
H 	H 	0.34000 0.07020 0.70420 0.04200
H 	H 	0.86100 0.32200 0.41400 0.09400
H 	H 	0.21320 0.33670 0.41400 0.03400
H 	H 	0.12290 0.41120 0.40580 0.02800
H 	H 	0.85090 0.17960 0.42190 0.02100
H 	H 	0.04600 0.19400 0.42240 0.01800
H 	H 	0.84780 0.24660 0.49840 0.05700
H 	H 	0.95510 0.17820 0.50500 0.05900
H 	H 	0.21100 0.40670 0.48880 0.05800
H 	H 	0.01650 0.39670 0.48640 0.05400
C 	C 	0.92220 0.63060 0.78510 0.39400
C 	C 	0.66010 0.91600 0.78420 0.44500
C 	C 	0.98170 0.56440 0.81260 -0.17000
C 	C 	0.93610 0.48250 0.78740 -0.04300
C 	C 	0.99290 0.41540 0.81840 -0.06500
C 	C 	0.97140 0.48970 0.89500 -0.06300
C 	C 	0.91480 0.55850 0.86660 -0.04300
C 	C 	0.82260 0.34600 0.88770 0.17700
C 	C 	0.61000 0.99210 0.79860 -0.22000
C 	C 	0.58080 0.99690 0.85580 -0.01200
C 	C 	0.51690 0.07630 0.86960 -0.08200
C 	C 	0.67640 0.21890 0.87850 0.16700
C 	C 	0.44960 0.28290 0.15230 0.47900
C 	C 	0.67030 0.14750 0.79700 -0.07800
C 	C 	0.73120 0.06980 0.78140 -0.01600
C 	C 	0.66230 0.28780 0.94980 0.16600
C 	C 	0.45820 0.29920 0.09540 -0.20400
C 	C 	0.61520 0.35870 0.07740 -0.01700
C 	C 	0.45070 0.21760 0.06810 -0.01400
C 	C 	0.45010 0.22970 0.01160 -0.08100
C 	C 	0.60970 0.37080 0.02210 -0.07800
C 	C 	0.57780 0.36940 0.28510 0.39400
C 	C 	0.83990 0.08400 0.28420 0.44600
C 	C 	0.51830 0.43560 0.31260 -0.16100
C 	C 	0.56390 0.51750 0.28740 -0.05100
C 	C 	0.50710 0.58460 0.31840 -0.05500
C 	C 	0.52860 0.51030 0.39500 -0.05500
C 	C 	0.58520 0.44150 0.36660 -0.05100
C 	C 	0.67740 0.65400 0.38770 0.17800
C 	C 	0.89000 0.00790 0.29860 -0.22200
C 	C 	0.91920 0.00310 0.35580 -0.00400
C 	C 	0.98310 0.92370 0.36960 -0.08300
C 	C 	0.82360 0.78110 0.37850 0.16800
C 	C 	0.05040 0.71710 0.65230 0.48200
C 	C 	0.82970 0.85250 0.29700 -0.07800
C 	C 	0.76880 0.93020 0.28140 -0.01600
C 	C 	0.83770 0.71220 0.44980 0.16600
C 	C 	0.04180 0.70080 0.59540 -0.20500
C 	C 	0.88480 0.64130 0.57740 -0.01800
C 	C 	0.04930 0.78240 0.56810 -0.00900
C 	C 	0.04990 0.77030 0.51160 -0.08200
C 	C 	0.89030 0.62920 0.52210 -0.07800
C 	C 	0.07780 0.36940 0.21490 0.39400
C 	C 	0.33990 0.08400 0.21580 0.44500
C 	C 	0.01830 0.43560 0.18740 -0.16900
C 	C 	0.06390 0.51750 0.21260 -0.04300
C 	C 	0.00710 0.58460 0.18160 -0.06400
C 	C 	0.02860 0.51030 0.10500 -0.06200
C 	C 	0.08520 0.44150 0.13340 -0.04400
C 	C 	0.17740 0.65400 0.11230 0.17700
C 	C 	0.39000 0.00790 0.20140 -0.22000
C 	C 	0.41920 0.00310 0.14420 -0.01200
C 	C 	0.48310 0.92370 0.13040 -0.08200
C 	C 	0.32360 0.78110 0.12150 0.16700
C 	C 	0.55040 0.71710 0.84770 0.47800
C 	C 	0.32970 0.85250 0.20300 -0.07800
C 	C 	0.26880 0.93020 0.21860 -0.01600
C 	C 	0.33770 0.71220 0.05020 0.16600
C 	C 	0.54180 0.70080 0.90460 -0.20400
C 	C 	0.38480 0.64130 0.92260 -0.01700
C 	C 	0.54930 0.78240 0.93190 -0.01400
C 	C 	0.54990 0.77030 0.98840 -0.08000
C 	C 	0.39030 0.62920 0.97790 -0.07800
C 	C 	0.42220 0.63060 0.71490 0.39400
C 	C 	0.16010 0.91600 0.71580 0.44400
C 	C 	0.48170 0.56440 0.68740 -0.16100
C 	C 	0.43610 0.48250 0.71260 -0.05100
C 	C 	0.49290 0.41540 0.68160 -0.05500
C 	C 	0.47140 0.48970 0.60500 -0.05500
C 	C 	0.41480 0.55850 0.63340 -0.05100
C 	C 	0.32260 0.34600 0.61230 0.17800
C 	C 	0.11000 0.99210 0.70140 -0.21800
C 	C 	0.08080 0.99690 0.64420 -0.01300
C 	C 	0.01690 0.07630 0.63040 -0.07900
C 	C 	0.17640 0.21890 0.62150 0.16800
C 	C 	0.94960 0.28290 0.34770 0.48200
C 	C 	0.17030 0.14750 0.70300 -0.07700
C 	C 	0.23120 0.06980 0.71860 -0.01800
C 	C 	0.16230 0.28780 0.55020 0.16600
C 	C 	0.95820 0.29920 0.40460 -0.20500
C 	C 	0.11520 0.35870 0.42260 -0.01800
C 	C 	0.95070 0.21760 0.43190 -0.01000
C 	C 	0.95010 0.22970 0.48840 -0.08200
C 	C 	0.10970 0.37080 0.47790 -0.07800
N 	N 	0.92560 0.41300 0.86840 -0.11700
N 	N 	0.78130 0.28240 0.85740 -0.16700
N 	N 	0.76790 0.35280 0.93350 -0.17000
N 	N 	0.63320 0.14870 0.85050 -0.11000
N 	N 	0.61090 0.21750 0.92390 -0.16500
N 	N 	0.59230 0.29190 0.99660 -0.11100
N 	N 	0.57440 0.58700 0.36840 -0.11900
N 	N 	0.71870 0.71760 0.35740 -0.16700
N 	N 	0.73210 0.64720 0.43350 -0.17000
N 	N 	0.86680 0.85130 0.35050 -0.11000
N 	N 	0.88910 0.78250 0.42390 -0.16500
N 	N 	0.90770 0.70810 0.49660 -0.11100
N 	N 	0.07440 0.58700 0.13160 -0.11700
N 	N 	0.21870 0.71760 0.14260 -0.16700
N 	N 	0.23210 0.64720 0.06650 -0.17000
N 	N 	0.36680 0.85130 0.14950 -0.11000
N 	N 	0.38910 0.78250 0.07610 -0.16500
N 	N 	0.40770 0.70810 0.00340 -0.11100
N 	N 	0.42560 0.41300 0.63160 -0.11900
N 	N 	0.28130 0.28240 0.64260 -0.16700
N 	N 	0.26790 0.35280 0.56650 -0.17000
N 	N 	0.13320 0.14870 0.64950 -0.11100
N 	N 	0.11090 0.21750 0.57610 -0.16500
N 	N 	0.09230 0.29190 0.50340 -0.11100
O 	O 	0.77900 0.61910 0.76500 -0.44000
O 	O 	0.01270 0.70460 0.78450 -0.65300
O 	O 	0.81050 0.90970 0.78770 -0.47500
O 	O 	0.58720 0.29120 0.17550 -0.55100
O 	O 	0.55750 0.85560 0.76630 -0.67200
O 	O 	0.30900 0.26000 0.17080 -0.53600
O 	O 	0.72100 0.38090 0.26500 -0.44000
O 	O 	0.48730 0.29540 0.28450 -0.65500
O 	O 	0.68950 0.09030 0.28770 -0.47400
O 	O 	0.91280 0.70880 0.67550 -0.55400
O 	O 	0.94250 0.14440 0.26630 -0.67100
O 	O 	0.19100 0.74000 0.67080 -0.53700
O 	O 	0.22100 0.38090 0.23500 -0.44000
O 	O 	0.98730 0.29540 0.21550 -0.65300
O 	O 	0.18950 0.09030 0.21230 -0.47500
O 	O 	0.41280 0.70880 0.82450 -0.55100
O 	O 	0.44250 0.14440 0.23370 -0.67200
O 	O 	0.69100 0.74000 0.82920 -0.53600
O 	O 	0.27900 0.61910 0.73500 -0.44000
O 	O 	0.51270 0.70460 0.71550 -0.65500
O 	O 	0.31050 0.90970 0.71230 -0.47400
O 	O 	0.08720 0.29120 0.32450 -0.55300
O 	O 	0.05750 0.85560 0.73370 -0.67000
O 	O 	0.80900 0.26000 0.32920 -0.53700
