data_crystal

_cell_length_a 12.73150
_cell_length_b 22.61400
_cell_length_c 22.61400
_cell_angle_alpha 90.00000
_cell_angle_beta  90.00000
_cell_angle_gamma 90.00000

_symmetry_space_group_name_	'P 1'
_symmetry_space_group_name_H-M	'P 1'

loop_
_symmetry_equiv_pos_as_xyz
  x,y,z

loop_
_atom_site_label
_atom_site_type_symbol
_atom_site_fract_x
_atom_site_fract_y
_atom_site_fract_z
_atom_site_charge
Co	Co	0.25249 0.73827 0.25624 1.15600
Co	Co	0.25249 0.26173 0.74376 1.15600
Co	Co	0.74751 0.76173 0.75624 1.15600
Co	Co	0.74751 0.23827 0.24376 1.15600
H 	H 	0.76240 0.35300 0.31410 -0.00600
H 	H 	0.66540 0.43610 0.33220 0.07500
H 	H 	0.43880 0.37500 0.22560 0.09100
H 	H 	0.53990 0.29090 0.21040 0.00000
H 	H 	0.60980 0.52470 0.30300 0.05200
H 	H 	0.51960 0.61450 0.30210 0.05000
H 	H 	0.24790 0.52670 0.27290 0.04400
H 	H 	0.34010 0.43920 0.27330 0.06300
H 	H 	0.69060 0.73890 0.88610 -0.00900
H 	H 	0.77760 0.73550 0.97590 0.07300
H 	H 	0.05220 0.72200 0.88760 0.08800
H 	H 	0.95780 0.73200 0.80040 0.00900
H 	H 	0.88010 0.77590 0.04710 0.05700
H 	H 	0.97690 0.77640 0.13350 0.04500
H 	H 	0.19590 0.67240 0.05860 0.03900
H 	H 	0.10180 0.67530 0.97080 0.06300
H 	H 	0.76240 0.64700 0.68590 -0.00500
H 	H 	0.66540 0.56390 0.66780 0.07600
H 	H 	0.43880 0.62500 0.77440 0.09200
H 	H 	0.53990 0.70910 0.78960 0.00100
H 	H 	0.60980 0.47530 0.69700 0.05300
H 	H 	0.51960 0.38550 0.69790 0.05100
H 	H 	0.24790 0.47330 0.72710 0.04500
H 	H 	0.34010 0.56080 0.72670 0.06400
H 	H 	0.69060 0.26110 0.11390 -0.00800
H 	H 	0.77760 0.26450 0.02410 0.07400
H 	H 	0.05220 0.27800 0.11240 0.08900
H 	H 	0.95780 0.26800 0.19960 0.01000
H 	H 	0.88010 0.22410 0.95290 0.05700
H 	H 	0.97690 0.22360 0.86650 0.04500
H 	H 	0.19590 0.32760 0.94140 0.03900
H 	H 	0.10180 0.32470 0.02920 0.06300
H 	H 	0.23760 0.14700 0.81410 -0.00500
H 	H 	0.33460 0.06390 0.83220 0.07600
H 	H 	0.56120 0.12500 0.72560 0.09200
H 	H 	0.46010 0.20910 0.71040 0.00100
H 	H 	0.39020 0.97530 0.80300 0.05300
H 	H 	0.48040 0.88550 0.80210 0.05100
H 	H 	0.75210 0.97330 0.77290 0.04500
H 	H 	0.65990 0.06080 0.77330 0.06400
H 	H 	0.30940 0.76110 0.38610 -0.00800
H 	H 	0.22240 0.76450 0.47590 0.07400
H 	H 	0.94780 0.77800 0.38760 0.08900
H 	H 	0.04220 0.76800 0.30040 0.01000
H 	H 	0.11990 0.72410 0.54710 0.05700
H 	H 	0.02310 0.72360 0.63350 0.04500
H 	H 	0.80410 0.82760 0.55860 0.03900
H 	H 	0.89820 0.82470 0.47080 0.06300
H 	H 	0.23760 0.85300 0.18590 -0.00500
H 	H 	0.33460 0.93610 0.16780 0.07600
H 	H 	0.56120 0.87500 0.27440 0.09200
H 	H 	0.46010 0.79090 0.28960 0.00100
H 	H 	0.39020 0.02470 0.19700 0.05300
H 	H 	0.48040 0.11450 0.19790 0.05100
H 	H 	0.75210 0.02670 0.22710 0.04500
H 	H 	0.65990 0.93920 0.22670 0.06400
H 	H 	0.30940 0.23890 0.61390 -0.00800
H 	H 	0.22240 0.23550 0.52410 0.07400
H 	H 	0.94780 0.22200 0.61240 0.08900
H 	H 	0.04220 0.23200 0.69960 0.01000
H 	H 	0.11990 0.27590 0.45290 0.05700
H 	H 	0.02310 0.27640 0.36650 0.04500
H 	H 	0.80410 0.17240 0.44140 0.03900
H 	H 	0.89820 0.17530 0.52920 0.06300
C 	C 	0.69590 0.35750 0.29550 0.07600
C 	C 	0.63910 0.40710 0.30560 -0.14100
C 	C 	0.54370 0.41650 0.27810 0.07900
C 	C 	0.50600 0.37170 0.24360 -0.14600
C 	C 	0.56670 0.32140 0.23500 0.08300
C 	C 	0.48330 0.47320 0.28490 0.01400
C 	C 	0.53640 0.52530 0.29570 -0.07200
C 	C 	0.48230 0.57860 0.29590 0.00200
C 	C 	0.37770 0.58010 0.28730 -0.06900
C 	C 	0.32180 0.52670 0.27850 0.00500
C 	C 	0.37720 0.47530 0.27830 -0.07500
C 	C 	0.31990 0.63850 0.28140 0.29000
C 	C 	0.76520 0.73740 0.88660 0.07500
C 	C 	0.81710 0.73370 0.94030 -0.13400
C 	C 	0.92270 0.72750 0.94320 0.06900
C 	C 	0.97810 0.72660 0.88860 -0.13000
C 	C 	0.92070 0.73260 0.83680 0.07700
C 	C 	0.98260 0.72530 0.00010 0.02400
C 	C 	0.94510 0.75540 0.04910 -0.08300
C 	C 	0.00230 0.75540 0.10010 0.01300
C 	C 	0.09620 0.72540 0.10400 -0.08500
C 	C 	0.13250 0.69440 0.05620 0.01400
C 	C 	0.07560 0.69570 0.00440 -0.08400
C 	C 	0.16120 0.72850 0.15850 0.29100
C 	C 	0.69590 0.64250 0.70450 0.07600
C 	C 	0.63910 0.59290 0.69440 -0.14100
C 	C 	0.54370 0.58350 0.72190 0.07900
C 	C 	0.50600 0.62830 0.75640 -0.14600
C 	C 	0.56670 0.67860 0.76500 0.08300
C 	C 	0.48330 0.52680 0.71510 0.01400
C 	C 	0.53640 0.47470 0.70430 -0.07200
C 	C 	0.48230 0.42140 0.70410 0.00200
C 	C 	0.37770 0.41990 0.71270 -0.06900
C 	C 	0.32180 0.47330 0.72150 0.00500
C 	C 	0.37720 0.52470 0.72170 -0.07500
C 	C 	0.31990 0.36150 0.71860 0.29000
C 	C 	0.76520 0.26260 0.11340 0.07500
C 	C 	0.81710 0.26630 0.05970 -0.13400
C 	C 	0.92270 0.27250 0.05680 0.06900
C 	C 	0.97810 0.27340 0.11140 -0.13000
C 	C 	0.92070 0.26740 0.16320 0.07700
C 	C 	0.98260 0.27470 0.99990 0.02400
C 	C 	0.94510 0.24460 0.95090 -0.08300
C 	C 	0.00230 0.24460 0.89990 0.01300
C 	C 	0.09620 0.27460 0.89600 -0.08500
C 	C 	0.13250 0.30560 0.94380 0.01400
C 	C 	0.07560 0.30430 0.99560 -0.08400
C 	C 	0.16120 0.27150 0.84150 0.29100
C 	C 	0.30410 0.14250 0.79550 0.07600
C 	C 	0.36090 0.09290 0.80560 -0.14100
C 	C 	0.45630 0.08350 0.77810 0.07900
C 	C 	0.49400 0.12830 0.74360 -0.14600
C 	C 	0.43330 0.17860 0.73500 0.08300
C 	C 	0.51670 0.02680 0.78490 0.01400
C 	C 	0.46360 0.97470 0.79570 -0.07200
C 	C 	0.51770 0.92140 0.79590 0.00200
C 	C 	0.62230 0.91990 0.78730 -0.06900
C 	C 	0.67820 0.97330 0.77850 0.00500
C 	C 	0.62280 0.02470 0.77830 -0.07500
C 	C 	0.68010 0.86150 0.78140 0.29000
C 	C 	0.23480 0.76260 0.38660 0.07500
C 	C 	0.18290 0.76630 0.44030 -0.13400
C 	C 	0.07730 0.77250 0.44320 0.06900
C 	C 	0.02190 0.77340 0.38860 -0.13000
C 	C 	0.07930 0.76740 0.33680 0.07700
C 	C 	0.01740 0.77470 0.50010 0.02400
C 	C 	0.05490 0.74460 0.54910 -0.08300
C 	C 	0.99770 0.74460 0.60010 0.01300
C 	C 	0.90380 0.77460 0.60400 -0.08500
C 	C 	0.86750 0.80560 0.55620 0.01400
C 	C 	0.92440 0.80430 0.50440 -0.08400
C 	C 	0.83880 0.77150 0.65850 0.29100
C 	C 	0.30410 0.85750 0.20450 0.07600
C 	C 	0.36090 0.90710 0.19440 -0.14100
C 	C 	0.45630 0.91650 0.22190 0.07900
C 	C 	0.49400 0.87170 0.25640 -0.14600
C 	C 	0.43330 0.82140 0.26500 0.08300
C 	C 	0.51670 0.97320 0.21510 0.01400
C 	C 	0.46360 0.02530 0.20430 -0.07200
C 	C 	0.51770 0.07860 0.20410 0.00200
C 	C 	0.62230 0.08010 0.21270 -0.06900
C 	C 	0.67820 0.02670 0.22150 0.00500
C 	C 	0.62280 0.97530 0.22170 -0.07500
C 	C 	0.68010 0.13850 0.21860 0.29000
C 	C 	0.23480 0.23740 0.61340 0.07500
C 	C 	0.18290 0.23370 0.55970 -0.13400
C 	C 	0.07730 0.22750 0.55680 0.06900
C 	C 	0.02190 0.22660 0.61140 -0.13000
C 	C 	0.07930 0.23260 0.66320 0.07700
C 	C 	0.01740 0.22530 0.49990 0.02400
C 	C 	0.05490 0.25540 0.45090 -0.08300
C 	C 	0.99770 0.25540 0.39990 0.01300
C 	C 	0.90380 0.22540 0.39600 -0.08500
C 	C 	0.86750 0.19440 0.44380 0.01400
C 	C 	0.92440 0.19570 0.49560 -0.08400
C 	C 	0.83880 0.22850 0.34150 0.29100
N 	N 	0.65970 0.31410 0.25930 -0.24800
N 	N 	0.81820 0.73900 0.83510 -0.24800
N 	N 	0.65970 0.68590 0.74070 -0.24800
N 	N 	0.81820 0.26100 0.16490 -0.24800
N 	N 	0.34030 0.18590 0.75930 -0.24800
N 	N 	0.18180 0.76100 0.33510 -0.24800
N 	N 	0.34030 0.81410 0.24070 -0.24800
N 	N 	0.18180 0.23900 0.66490 -0.24800
O 	O 	0.37410 0.68570 0.28190 -0.39800
O 	O 	0.22180 0.64010 0.27560 -0.34900
O 	O 	0.25340 0.71030 0.15990 -0.36200
O 	O 	0.12160 0.75450 0.20440 -0.38900
O 	O 	0.37410 0.31430 0.71810 -0.39800
O 	O 	0.22180 0.35990 0.72440 -0.34900
O 	O 	0.25340 0.28970 0.84010 -0.36200
O 	O 	0.12160 0.24550 0.79560 -0.38900
O 	O 	0.62590 0.81430 0.78190 -0.39800
O 	O 	0.77820 0.85990 0.77560 -0.34900
O 	O 	0.74660 0.78970 0.65990 -0.36200
O 	O 	0.87840 0.74550 0.70440 -0.38900
O 	O 	0.62590 0.18570 0.21810 -0.39800
O 	O 	0.77820 0.14010 0.22440 -0.34900
O 	O 	0.74660 0.21030 0.34010 -0.36200
O 	O 	0.87840 0.25450 0.29560 -0.38900
Co	Co	0.25249 0.24376 0.23827 1.15700
Co	Co	0.25249 0.75624 0.76173 1.15700
Co	Co	0.74751 0.25624 0.73827 1.15700
Co	Co	0.74751 0.74376 0.26173 1.15700
H 	H 	0.76240 0.18590 0.85300 -0.00500
H 	H 	0.66540 0.16780 0.93610 0.07600
H 	H 	0.43880 0.27440 0.87500 0.09200
H 	H 	0.53990 0.28960 0.79090 0.00100
H 	H 	0.60980 0.19700 0.02470 0.05300
H 	H 	0.51960 0.19790 0.11450 0.05100
H 	H 	0.24790 0.22710 0.02670 0.04500
H 	H 	0.34010 0.22670 0.93920 0.06400
H 	H 	0.69060 0.61390 0.23890 -0.00800
H 	H 	0.77760 0.52410 0.23550 0.07400
H 	H 	0.05220 0.61240 0.22200 0.08900
H 	H 	0.95780 0.69960 0.23200 0.01000
H 	H 	0.88010 0.45290 0.27590 0.05700
H 	H 	0.97690 0.36650 0.27640 0.04500
H 	H 	0.19590 0.44140 0.17240 0.03900
H 	H 	0.10180 0.52920 0.17530 0.06300
H 	H 	0.76240 0.81410 0.14700 -0.00500
H 	H 	0.66540 0.83220 0.06390 0.07600
H 	H 	0.43880 0.72560 0.12500 0.09200
H 	H 	0.53990 0.71040 0.20910 0.00100
H 	H 	0.60980 0.80300 0.97530 0.05300
H 	H 	0.51960 0.80210 0.88550 0.05100
H 	H 	0.24790 0.77290 0.97330 0.04500
H 	H 	0.34010 0.77330 0.06080 0.06400
H 	H 	0.69060 0.38610 0.76110 -0.00800
H 	H 	0.77760 0.47590 0.76450 0.07400
H 	H 	0.05220 0.38760 0.77800 0.08900
H 	H 	0.95780 0.30040 0.76800 0.01000
H 	H 	0.88010 0.54710 0.72410 0.05700
H 	H 	0.97690 0.63350 0.72360 0.04500
H 	H 	0.19590 0.55860 0.82760 0.03900
H 	H 	0.10180 0.47080 0.82470 0.06300
H 	H 	0.23760 0.31410 0.35300 -0.00500
H 	H 	0.33460 0.33220 0.43610 0.07600
H 	H 	0.56120 0.22560 0.37500 0.09200
H 	H 	0.46010 0.21040 0.29090 0.00100
H 	H 	0.39020 0.30300 0.52470 0.05300
H 	H 	0.48040 0.30210 0.61450 0.05100
H 	H 	0.75210 0.27290 0.52670 0.04500
H 	H 	0.65990 0.27330 0.43920 0.06400
H 	H 	0.30940 0.88610 0.73890 -0.00800
H 	H 	0.22240 0.97590 0.73550 0.07400
H 	H 	0.94780 0.88760 0.72200 0.08900
H 	H 	0.04220 0.80040 0.73200 0.01000
H 	H 	0.11990 0.04710 0.77590 0.05700
H 	H 	0.02310 0.13350 0.77640 0.04500
H 	H 	0.80410 0.05860 0.67240 0.03900
H 	H 	0.89820 0.97080 0.67530 0.06300
H 	H 	0.23760 0.68590 0.64700 -0.00500
H 	H 	0.33460 0.66780 0.56390 0.07600
H 	H 	0.56120 0.77440 0.62500 0.09200
H 	H 	0.46010 0.78960 0.70910 0.00100
H 	H 	0.39020 0.69700 0.47530 0.05300
H 	H 	0.48040 0.69790 0.38550 0.05100
H 	H 	0.75210 0.72710 0.47330 0.04500
H 	H 	0.65990 0.72670 0.56080 0.06400
H 	H 	0.30940 0.11390 0.26110 -0.00800
H 	H 	0.22240 0.02410 0.26450 0.07400
H 	H 	0.94780 0.11240 0.27800 0.08900
H 	H 	0.04220 0.19960 0.26800 0.01000
H 	H 	0.11990 0.95290 0.22410 0.05700
H 	H 	0.02310 0.86650 0.22360 0.04500
H 	H 	0.80410 0.94140 0.32760 0.03900
H 	H 	0.89820 0.02920 0.32470 0.06300
C 	C 	0.69590 0.20450 0.85750 0.07600
C 	C 	0.63910 0.19440 0.90710 -0.14100
C 	C 	0.54370 0.22190 0.91650 0.07900
C 	C 	0.50600 0.25640 0.87170 -0.14600
C 	C 	0.56670 0.26500 0.82140 0.08300
C 	C 	0.48330 0.21510 0.97320 0.01400
C 	C 	0.53640 0.20430 0.02530 -0.07200
C 	C 	0.48230 0.20410 0.07860 0.00200
C 	C 	0.37770 0.21270 0.08010 -0.06900
C 	C 	0.32180 0.22150 0.02670 0.00500
C 	C 	0.37720 0.22170 0.97530 -0.07500
C 	C 	0.31990 0.21860 0.13850 0.29000
C 	C 	0.76520 0.61340 0.23740 0.07500
C 	C 	0.81710 0.55970 0.23370 -0.13400
C 	C 	0.92270 0.55680 0.22750 0.06900
C 	C 	0.97810 0.61140 0.22660 -0.13000
C 	C 	0.92070 0.66320 0.23260 0.07700
C 	C 	0.98260 0.49990 0.22530 0.02400
C 	C 	0.94510 0.45090 0.25540 -0.08300
C 	C 	0.00230 0.39990 0.25540 0.01300
C 	C 	0.09620 0.39600 0.22540 -0.08500
C 	C 	0.13250 0.44380 0.19440 0.01400
C 	C 	0.07560 0.49560 0.19570 -0.08400
C 	C 	0.16120 0.34150 0.22850 0.29100
C 	C 	0.69590 0.79550 0.14250 0.07600
C 	C 	0.63910 0.80560 0.09290 -0.14100
C 	C 	0.54370 0.77810 0.08350 0.07900
C 	C 	0.50600 0.74360 0.12830 -0.14600
C 	C 	0.56670 0.73500 0.17860 0.08300
C 	C 	0.48330 0.78490 0.02680 0.01400
C 	C 	0.53640 0.79570 0.97470 -0.07200
C 	C 	0.48230 0.79590 0.92140 0.00200
C 	C 	0.37770 0.78730 0.91990 -0.06900
C 	C 	0.32180 0.77850 0.97330 0.00500
C 	C 	0.37720 0.77830 0.02470 -0.07500
C 	C 	0.31990 0.78140 0.86150 0.29000
C 	C 	0.76520 0.38660 0.76260 0.07500
C 	C 	0.81710 0.44030 0.76630 -0.13400
C 	C 	0.92270 0.44320 0.77250 0.06900
C 	C 	0.97810 0.38860 0.77340 -0.13000
C 	C 	0.92070 0.33680 0.76740 0.07700
C 	C 	0.98260 0.50010 0.77470 0.02400
C 	C 	0.94510 0.54910 0.74460 -0.08300
C 	C 	0.00230 0.60010 0.74460 0.01300
C 	C 	0.09620 0.60400 0.77460 -0.08500
C 	C 	0.13250 0.55620 0.80560 0.01400
C 	C 	0.07560 0.50440 0.80430 -0.08400
C 	C 	0.16120 0.65850 0.77150 0.29100
C 	C 	0.30410 0.29550 0.35750 0.07600
C 	C 	0.36090 0.30560 0.40710 -0.14100
C 	C 	0.45630 0.27810 0.41650 0.07900
C 	C 	0.49400 0.24360 0.37170 -0.14600
C 	C 	0.43330 0.23500 0.32140 0.08300
C 	C 	0.51670 0.28490 0.47320 0.01400
C 	C 	0.46360 0.29570 0.52530 -0.07200
C 	C 	0.51770 0.29590 0.57860 0.00200
C 	C 	0.62230 0.28730 0.58010 -0.06900
C 	C 	0.67820 0.27850 0.52670 0.00500
C 	C 	0.62280 0.27830 0.47530 -0.07500
C 	C 	0.68010 0.28140 0.63850 0.29000
C 	C 	0.23480 0.88660 0.73740 0.07500
C 	C 	0.18290 0.94030 0.73370 -0.13400
C 	C 	0.07730 0.94320 0.72750 0.06900
C 	C 	0.02190 0.88860 0.72660 -0.13000
C 	C 	0.07930 0.83680 0.73260 0.07700
C 	C 	0.01740 0.00010 0.72530 0.02400
C 	C 	0.05490 0.04910 0.75540 -0.08300
C 	C 	0.99770 0.10010 0.75540 0.01300
C 	C 	0.90380 0.10400 0.72540 -0.08500
C 	C 	0.86750 0.05620 0.69440 0.01400
C 	C 	0.92440 0.00440 0.69570 -0.08400
C 	C 	0.83880 0.15850 0.72850 0.29100
C 	C 	0.30410 0.70450 0.64250 0.07600
C 	C 	0.36090 0.69440 0.59290 -0.14100
C 	C 	0.45630 0.72190 0.58350 0.07900
C 	C 	0.49400 0.75640 0.62830 -0.14600
C 	C 	0.43330 0.76500 0.67860 0.08300
C 	C 	0.51670 0.71510 0.52680 0.01400
C 	C 	0.46360 0.70430 0.47470 -0.07200
C 	C 	0.51770 0.70410 0.42140 0.00200
C 	C 	0.62230 0.71270 0.41990 -0.06900
C 	C 	0.67820 0.72150 0.47330 0.00500
C 	C 	0.62280 0.72170 0.52470 -0.07500
C 	C 	0.68010 0.71860 0.36150 0.29000
C 	C 	0.23480 0.11340 0.26260 0.07500
C 	C 	0.18290 0.05970 0.26630 -0.13400
C 	C 	0.07730 0.05680 0.27250 0.06900
C 	C 	0.02190 0.11140 0.27340 -0.13000
C 	C 	0.07930 0.16320 0.26740 0.07700
C 	C 	0.01740 0.99990 0.27470 0.02400
C 	C 	0.05490 0.95090 0.24460 -0.08300
C 	C 	0.99770 0.89990 0.24460 0.01300
C 	C 	0.90380 0.89600 0.27460 -0.08500
C 	C 	0.86750 0.94380 0.30560 0.01400
C 	C 	0.92440 0.99560 0.30430 -0.08400
C 	C 	0.83880 0.84150 0.27150 0.29100
N 	N 	0.65970 0.24070 0.81410 -0.24800
N 	N 	0.81820 0.66490 0.23900 -0.24800
N 	N 	0.65970 0.75930 0.18590 -0.24800
N 	N 	0.81820 0.33510 0.76100 -0.24800
N 	N 	0.34030 0.25930 0.31410 -0.24800
N 	N 	0.18180 0.83510 0.73900 -0.24800
N 	N 	0.34030 0.74070 0.68590 -0.24800
N 	N 	0.18180 0.16490 0.26100 -0.24800
O 	O 	0.37410 0.21810 0.18570 -0.39800
O 	O 	0.22180 0.22440 0.14010 -0.34900
O 	O 	0.25340 0.34010 0.21030 -0.36200
O 	O 	0.12160 0.29560 0.25450 -0.38900
O 	O 	0.37410 0.78190 0.81430 -0.39800
O 	O 	0.22180 0.77560 0.85990 -0.34900
O 	O 	0.25340 0.65990 0.78970 -0.36200
O 	O 	0.12160 0.70440 0.74550 -0.38900
O 	O 	0.62590 0.28190 0.68570 -0.39800
O 	O 	0.77820 0.27560 0.64010 -0.34900
O 	O 	0.74660 0.15990 0.71030 -0.36200
O 	O 	0.87840 0.20440 0.75450 -0.38900
O 	O 	0.62590 0.71810 0.31430 -0.39800
O 	O 	0.77820 0.72440 0.35990 -0.34900
O 	O 	0.74660 0.84010 0.28970 -0.36200
O 	O 	0.87840 0.79560 0.24550 -0.38900
