data_crystal

_cell_length_a 12.69500
_cell_length_b 22.69040
_cell_length_c 22.69040
_cell_angle_alpha 90.00000
_cell_angle_beta  90.00000
_cell_angle_gamma 90.00000

_symmetry_space_group_name_	'P 1'
_symmetry_space_group_name_H-M	'P 1'

loop_
_symmetry_equiv_pos_as_xyz
  x,y,z

loop_
_atom_site_label
_atom_site_type_symbol
_atom_site_fract_x
_atom_site_fract_y
_atom_site_fract_z
_atom_site_charge
Co	Co	0.74665 0.76792 0.75914 1.15500
Co	Co	0.74665 0.23208 0.24086 1.15500
Co	Co	0.25335 0.73208 0.25914 1.15500
Co	Co	0.25335 0.26792 0.74086 1.15500
H 	H 	0.46130 0.21360 0.70840 0.00100
H 	H 	0.56060 0.12750 0.72250 0.09000
H 	H 	0.33440 0.07060 0.83450 0.07400
H 	H 	0.23870 0.15540 0.81270 -0.00000
H 	H 	0.66360 0.06700 0.77540 0.06400
H 	H 	0.75120 0.97800 0.77530 0.04500
H 	H 	0.48170 0.89210 0.80760 0.05200
H 	H 	0.38970 0.98250 0.80880 0.05100
H 	H 	0.30730 0.74940 0.38960 -0.01000
H 	H 	0.22300 0.75950 0.47870 0.07700
H 	H 	0.94880 0.77590 0.39250 0.08900
H 	H 	0.04070 0.76530 0.30360 0.01300
H 	H 	0.11270 0.71890 0.54980 0.05400
H 	H 	0.02000 0.72280 0.63800 0.04800
H 	H 	0.80450 0.82940 0.56070 0.04200
H 	H 	0.89960 0.82500 0.47180 0.05900
H 	H 	0.46130 0.78640 0.29160 0.00100
H 	H 	0.56060 0.87250 0.27750 0.09000
H 	H 	0.33440 0.92940 0.16550 0.07400
H 	H 	0.23870 0.84460 0.18730 -0.00000
H 	H 	0.66360 0.93300 0.22460 0.06400
H 	H 	0.75120 0.02200 0.22470 0.04500
H 	H 	0.48170 0.10790 0.19240 0.05200
H 	H 	0.38970 0.01750 0.19120 0.05100
H 	H 	0.30730 0.25060 0.61040 -0.01000
H 	H 	0.22300 0.24050 0.52130 0.07700
H 	H 	0.94880 0.22410 0.60750 0.08900
H 	H 	0.04070 0.23470 0.69640 0.01300
H 	H 	0.11270 0.28110 0.45020 0.05400
H 	H 	0.02000 0.27720 0.36200 0.04800
H 	H 	0.80450 0.17060 0.43930 0.04200
H 	H 	0.89960 0.17500 0.52820 0.05900
H 	H 	0.53870 0.28640 0.20840 0.00100
H 	H 	0.43940 0.37250 0.22250 0.09000
H 	H 	0.66560 0.42940 0.33450 0.07400
H 	H 	0.76130 0.34460 0.31270 -0.00000
H 	H 	0.33640 0.43300 0.27540 0.06400
H 	H 	0.24880 0.52200 0.27530 0.04500
H 	H 	0.51830 0.60790 0.30760 0.05300
H 	H 	0.61030 0.51750 0.30880 0.05100
H 	H 	0.69270 0.75060 0.88960 -0.01000
H 	H 	0.77700 0.74050 0.97870 0.07700
H 	H 	0.05120 0.72410 0.89250 0.08900
H 	H 	0.95930 0.73470 0.80360 0.01300
H 	H 	0.88730 0.78110 0.04980 0.05400
H 	H 	0.98000 0.77720 0.13800 0.04800
H 	H 	0.19550 0.67060 0.06070 0.04200
H 	H 	0.10040 0.67500 0.97180 0.05900
H 	H 	0.53870 0.71360 0.79160 0.00100
H 	H 	0.43940 0.62750 0.77750 0.09000
H 	H 	0.66560 0.57060 0.66550 0.07400
H 	H 	0.76130 0.65540 0.68730 -0.00000
H 	H 	0.33640 0.56700 0.72460 0.06400
H 	H 	0.24880 0.47800 0.72470 0.04500
H 	H 	0.51830 0.39210 0.69240 0.05300
H 	H 	0.61030 0.48250 0.69120 0.05100
H 	H 	0.69270 0.24940 0.11040 -0.01000
H 	H 	0.77700 0.25950 0.02130 0.07700
H 	H 	0.05120 0.27590 0.10750 0.08900
H 	H 	0.95930 0.26530 0.19640 0.01300
H 	H 	0.88730 0.21890 0.95020 0.05400
H 	H 	0.98000 0.22280 0.86200 0.04800
H 	H 	0.19550 0.32940 0.93930 0.04200
H 	H 	0.10040 0.32500 0.02820 0.05900
C 	C 	0.43320 0.18350 0.73290 0.08000
C 	C 	0.49500 0.13250 0.74210 -0.14100
C 	C 	0.45700 0.09020 0.78050 0.07600
C 	C 	0.36150 0.09880 0.80740 -0.13400
C 	C 	0.30510 0.14970 0.79410 0.06600
C 	C 	0.51620 0.03390 0.78740 0.01200
C 	C 	0.62500 0.03150 0.78070 -0.07400
C 	C 	0.67730 0.97880 0.78160 0.00600
C 	C 	0.62390 0.92720 0.79160 -0.06800
C 	C 	0.51840 0.92790 0.80080 -0.00300
C 	C 	0.46300 0.98170 0.80030 -0.06900
C 	C 	0.68020 0.86730 0.78550 0.30100
C 	C 	0.23300 0.75400 0.39000 0.08400
C 	C 	0.18310 0.76010 0.44330 -0.14100
C 	C 	0.07520 0.76700 0.44570 0.07700
C 	C 	0.02280 0.76970 0.39310 -0.13200
C 	C 	0.07820 0.76320 0.33980 0.07200
C 	C 	0.01560 0.77240 0.50170 0.01400
C 	C 	0.04990 0.74150 0.55200 -0.07300
C 	C 	0.99460 0.74340 0.60440 0.00400
C 	C 	0.90190 0.77530 0.60760 -0.08100
C 	C 	0.86700 0.80650 0.55840 0.00500
C 	C 	0.92450 0.80420 0.50540 -0.07400
C 	C 	0.83780 0.77470 0.66280 0.30300
C 	C 	0.43320 0.81650 0.26710 0.08000
C 	C 	0.49500 0.86750 0.25790 -0.14100
C 	C 	0.45700 0.90980 0.21950 0.07600
C 	C 	0.36150 0.90120 0.19260 -0.13400
C 	C 	0.30510 0.85030 0.20590 0.06600
C 	C 	0.51620 0.96610 0.21260 0.01200
C 	C 	0.62500 0.96850 0.21930 -0.07400
C 	C 	0.67730 0.02120 0.21840 0.00600
C 	C 	0.62390 0.07280 0.20840 -0.06800
C 	C 	0.51840 0.07210 0.19920 -0.00300
C 	C 	0.46300 0.01830 0.19970 -0.06900
C 	C 	0.68020 0.13270 0.21450 0.30100
C 	C 	0.23300 0.24600 0.61000 0.08400
C 	C 	0.18310 0.23990 0.55670 -0.14100
C 	C 	0.07520 0.23300 0.55430 0.07700
C 	C 	0.02280 0.23030 0.60690 -0.13200
C 	C 	0.07820 0.23680 0.66020 0.07200
C 	C 	0.01560 0.22760 0.49830 0.01400
C 	C 	0.04990 0.25850 0.44800 -0.07300
C 	C 	0.99460 0.25660 0.39560 0.00400
C 	C 	0.90190 0.22470 0.39240 -0.08100
C 	C 	0.86700 0.19350 0.44160 0.00500
C 	C 	0.92450 0.19580 0.49460 -0.07400
C 	C 	0.83780 0.22530 0.33720 0.30300
C 	C 	0.56680 0.31650 0.23290 0.08000
C 	C 	0.50500 0.36750 0.24210 -0.14100
C 	C 	0.54300 0.40980 0.28050 0.07600
C 	C 	0.63850 0.40120 0.30740 -0.13400
C 	C 	0.69490 0.35030 0.29410 0.06600
C 	C 	0.48380 0.46610 0.28740 0.01200
C 	C 	0.37500 0.46850 0.28070 -0.07500
C 	C 	0.32270 0.52120 0.28160 0.00600
C 	C 	0.37610 0.57280 0.29160 -0.06800
C 	C 	0.48160 0.57210 0.30080 -0.00300
C 	C 	0.53700 0.51830 0.30030 -0.06800
C 	C 	0.31980 0.63270 0.28550 0.30100
C 	C 	0.76700 0.74600 0.89000 0.08400
C 	C 	0.81690 0.73990 0.94330 -0.14100
C 	C 	0.92480 0.73300 0.94570 0.07700
C 	C 	0.97720 0.73030 0.89310 -0.13200
C 	C 	0.92180 0.73680 0.83980 0.07200
C 	C 	0.98440 0.72760 0.00170 0.01400
C 	C 	0.95010 0.75850 0.05200 -0.07300
C 	C 	0.00540 0.75660 0.10440 0.00400
C 	C 	0.09810 0.72470 0.10760 -0.08100
C 	C 	0.13300 0.69350 0.05840 0.00500
C 	C 	0.07550 0.69580 0.00540 -0.07400
C 	C 	0.16220 0.72530 0.16280 0.30300
C 	C 	0.56680 0.68350 0.76710 0.08000
C 	C 	0.50500 0.63250 0.75790 -0.14100
C 	C 	0.54300 0.59020 0.71950 0.07600
C 	C 	0.63850 0.59880 0.69260 -0.13400
C 	C 	0.69490 0.64970 0.70590 0.06600
C 	C 	0.48380 0.53390 0.71260 0.01200
C 	C 	0.37500 0.53150 0.71930 -0.07500
C 	C 	0.32270 0.47880 0.71840 0.00600
C 	C 	0.37610 0.42720 0.70840 -0.06800
C 	C 	0.48160 0.42790 0.69920 -0.00300
C 	C 	0.53700 0.48170 0.69970 -0.06800
C 	C 	0.31980 0.36730 0.71450 0.30100
C 	C 	0.76700 0.25400 0.11000 0.08400
C 	C 	0.81690 0.26010 0.05670 -0.14100
C 	C 	0.92480 0.26700 0.05430 0.07700
C 	C 	0.97720 0.26970 0.10690 -0.13200
C 	C 	0.92180 0.26320 0.16020 0.07200
C 	C 	0.98440 0.27240 0.99830 0.01400
C 	C 	0.95010 0.24150 0.94800 -0.07300
C 	C 	0.00540 0.24340 0.89560 0.00400
C 	C 	0.09810 0.27530 0.89240 -0.08100
C 	C 	0.13300 0.30650 0.94160 0.00500
C 	C 	0.07550 0.30420 0.99460 -0.07400
C 	C 	0.16220 0.27470 0.83720 0.30300
N 	N 	0.33990 0.19200 0.75590 -0.24700
N 	N 	0.18130 0.75430 0.33870 -0.24500
N 	N 	0.33990 0.80800 0.24410 -0.24700
N 	N 	0.18130 0.24570 0.66130 -0.24500
N 	N 	0.66010 0.30800 0.25590 -0.24700
N 	N 	0.81870 0.74570 0.83870 -0.24500
N 	N 	0.66010 0.69200 0.74410 -0.24700
N 	N 	0.81870 0.25430 0.16130 -0.24500
O 	O 	0.62510 0.82138 0.78596 -0.40200
O 	O 	0.77730 0.86665 0.77880 -0.35400
O 	O 	0.74680 0.79381 0.66346 -0.37000
O 	O 	0.87700 0.74942 0.70794 -0.39700
O 	O 	0.62510 0.17862 0.21404 -0.40200
O 	O 	0.77730 0.13335 0.22120 -0.35400
O 	O 	0.74680 0.20619 0.33654 -0.37000
O 	O 	0.87700 0.25058 0.29206 -0.39700
O 	O 	0.37490 0.67862 0.28596 -0.40200
O 	O 	0.22270 0.63335 0.27880 -0.35400
O 	O 	0.25320 0.70619 0.16346 -0.37000
O 	O 	0.12300 0.75058 0.20794 -0.39700
O 	O 	0.37490 0.32138 0.71404 -0.40200
O 	O 	0.22270 0.36665 0.72120 -0.35400
O 	O 	0.25320 0.29381 0.83654 -0.37000
O 	O 	0.12300 0.24942 0.79206 -0.39700
Co	Co	0.74665 0.74086 0.26792 1.15600
Co	Co	0.74665 0.25914 0.73208 1.15600
Co	Co	0.25335 0.75914 0.76792 1.15600
Co	Co	0.25335 0.24086 0.23208 1.15600
H 	H 	0.46130 0.79160 0.71360 0.00100
H 	H 	0.56060 0.77750 0.62750 0.09000
H 	H 	0.33440 0.66550 0.57060 0.07400
H 	H 	0.23870 0.68730 0.65540 -0.00000
H 	H 	0.66360 0.72460 0.56700 0.06400
H 	H 	0.75120 0.72470 0.47800 0.04500
H 	H 	0.48170 0.69240 0.39210 0.05300
H 	H 	0.38970 0.69120 0.48250 0.05100
H 	H 	0.30730 0.11040 0.24940 -0.01000
H 	H 	0.22300 0.02130 0.25950 0.07700
H 	H 	0.94880 0.10750 0.27590 0.08900
H 	H 	0.04070 0.19640 0.26530 0.01300
H 	H 	0.11270 0.95020 0.21890 0.05400
H 	H 	0.02000 0.86200 0.22280 0.04800
H 	H 	0.80450 0.93930 0.32940 0.04200
H 	H 	0.89960 0.02820 0.32500 0.05900
H 	H 	0.46130 0.20840 0.28640 0.00100
H 	H 	0.56060 0.22250 0.37250 0.09000
H 	H 	0.33440 0.33450 0.42940 0.07400
H 	H 	0.23870 0.31270 0.34460 -0.00000
H 	H 	0.66360 0.27540 0.43300 0.06400
H 	H 	0.75120 0.27530 0.52200 0.04500
H 	H 	0.48170 0.30760 0.60790 0.05300
H 	H 	0.38970 0.30880 0.51750 0.05100
H 	H 	0.30730 0.88960 0.75060 -0.01000
H 	H 	0.22300 0.97870 0.74050 0.07700
H 	H 	0.94880 0.89250 0.72410 0.08900
H 	H 	0.04070 0.80360 0.73470 0.01300
H 	H 	0.11270 0.04980 0.78110 0.05400
H 	H 	0.02000 0.13800 0.77720 0.04800
H 	H 	0.80450 0.06070 0.67060 0.04200
H 	H 	0.89960 0.97180 0.67500 0.05900
H 	H 	0.53870 0.70840 0.21360 0.00100
H 	H 	0.43940 0.72250 0.12750 0.09000
H 	H 	0.66560 0.83450 0.07060 0.07400
H 	H 	0.76130 0.81270 0.15540 -0.00000
H 	H 	0.33640 0.77540 0.06700 0.06400
H 	H 	0.24880 0.77530 0.97800 0.04500
H 	H 	0.51830 0.80760 0.89210 0.05200
H 	H 	0.61030 0.80880 0.98250 0.05100
H 	H 	0.69270 0.38960 0.74940 -0.01000
H 	H 	0.77700 0.47870 0.75950 0.07700
H 	H 	0.05120 0.39250 0.77590 0.08900
H 	H 	0.95930 0.30360 0.76530 0.01300
H 	H 	0.88730 0.54980 0.71890 0.05400
H 	H 	0.98000 0.63800 0.72280 0.04800
H 	H 	0.19550 0.56070 0.82940 0.04200
H 	H 	0.10040 0.47180 0.82500 0.05900
H 	H 	0.53870 0.29160 0.78640 0.00100
H 	H 	0.43940 0.27750 0.87250 0.09000
H 	H 	0.66560 0.16550 0.92940 0.07400
H 	H 	0.76130 0.18730 0.84460 -0.00000
H 	H 	0.33640 0.22460 0.93300 0.06400
H 	H 	0.24880 0.22470 0.02200 0.04500
H 	H 	0.51830 0.19240 0.10790 0.05200
H 	H 	0.61030 0.19120 0.01750 0.05100
H 	H 	0.69270 0.61040 0.25060 -0.01000
H 	H 	0.77700 0.52130 0.24050 0.07700
H 	H 	0.05120 0.60750 0.22410 0.08900
H 	H 	0.95930 0.69640 0.23470 0.01300
H 	H 	0.88730 0.45020 0.28110 0.05400
H 	H 	0.98000 0.36200 0.27720 0.04800
H 	H 	0.19550 0.43930 0.17060 0.04200
H 	H 	0.10040 0.52820 0.17500 0.05900
C 	C 	0.43320 0.76710 0.68350 0.08000
C 	C 	0.49500 0.75790 0.63250 -0.14100
C 	C 	0.45700 0.71950 0.59020 0.07600
C 	C 	0.36150 0.69260 0.59880 -0.13400
C 	C 	0.30510 0.70590 0.64970 0.06600
C 	C 	0.51620 0.71260 0.53390 0.01200
C 	C 	0.62500 0.71930 0.53150 -0.07500
C 	C 	0.67730 0.71840 0.47880 0.00600
C 	C 	0.62390 0.70840 0.42720 -0.06800
C 	C 	0.51840 0.69920 0.42790 -0.00300
C 	C 	0.46300 0.69970 0.48170 -0.06800
C 	C 	0.68020 0.71450 0.36730 0.30100
C 	C 	0.23300 0.11000 0.25400 0.08400
C 	C 	0.18310 0.05670 0.26010 -0.14100
C 	C 	0.07520 0.05430 0.26700 0.07700
C 	C 	0.02280 0.10690 0.26970 -0.13200
C 	C 	0.07820 0.16020 0.26320 0.07200
C 	C 	0.01560 0.99830 0.27240 0.01400
C 	C 	0.04990 0.94800 0.24150 -0.07300
C 	C 	0.99460 0.89560 0.24340 0.00400
C 	C 	0.90190 0.89240 0.27530 -0.08100
C 	C 	0.86700 0.94160 0.30650 0.00500
C 	C 	0.92450 0.99460 0.30420 -0.07400
C 	C 	0.83780 0.83720 0.27470 0.30300
C 	C 	0.43320 0.23290 0.31650 0.08000
C 	C 	0.49500 0.24210 0.36750 -0.14100
C 	C 	0.45700 0.28050 0.40980 0.07600
C 	C 	0.36150 0.30740 0.40120 -0.13400
C 	C 	0.30510 0.29410 0.35030 0.06600
C 	C 	0.51620 0.28740 0.46610 0.01200
C 	C 	0.62500 0.28070 0.46850 -0.07500
C 	C 	0.67730 0.28160 0.52120 0.00600
C 	C 	0.62390 0.29160 0.57280 -0.06800
C 	C 	0.51840 0.30080 0.57210 -0.00300
C 	C 	0.46300 0.30030 0.51830 -0.06800
C 	C 	0.68020 0.28550 0.63270 0.30100
C 	C 	0.23300 0.89000 0.74600 0.08400
C 	C 	0.18310 0.94330 0.73990 -0.14100
C 	C 	0.07520 0.94570 0.73300 0.07700
C 	C 	0.02280 0.89310 0.73030 -0.13200
C 	C 	0.07820 0.83980 0.73680 0.07200
C 	C 	0.01560 0.00170 0.72760 0.01400
C 	C 	0.04990 0.05200 0.75850 -0.07300
C 	C 	0.99460 0.10440 0.75660 0.00400
C 	C 	0.90190 0.10760 0.72470 -0.08100
C 	C 	0.86700 0.05840 0.69350 0.00500
C 	C 	0.92450 0.00540 0.69580 -0.07400
C 	C 	0.83780 0.16280 0.72530 0.30300
C 	C 	0.56680 0.73290 0.18350 0.08000
C 	C 	0.50500 0.74210 0.13250 -0.14100
C 	C 	0.54300 0.78050 0.09020 0.07600
C 	C 	0.63850 0.80740 0.09880 -0.13400
C 	C 	0.69490 0.79410 0.14970 0.06600
C 	C 	0.48380 0.78740 0.03390 0.01200
C 	C 	0.37500 0.78070 0.03150 -0.07400
C 	C 	0.32270 0.78160 0.97880 0.00600
C 	C 	0.37610 0.79160 0.92720 -0.06800
C 	C 	0.48160 0.80080 0.92790 -0.00300
C 	C 	0.53700 0.80030 0.98170 -0.06900
C 	C 	0.31980 0.78550 0.86730 0.30100
C 	C 	0.76700 0.39000 0.75400 0.08400
C 	C 	0.81690 0.44330 0.76010 -0.14100
C 	C 	0.92480 0.44570 0.76700 0.07700
C 	C 	0.97720 0.39310 0.76970 -0.13200
C 	C 	0.92180 0.33980 0.76320 0.07200
C 	C 	0.98440 0.50170 0.77240 0.01400
C 	C 	0.95010 0.55200 0.74150 -0.07300
C 	C 	0.00540 0.60440 0.74340 0.00400
C 	C 	0.09810 0.60760 0.77530 -0.08100
C 	C 	0.13300 0.55840 0.80650 0.00500
C 	C 	0.07550 0.50540 0.80420 -0.07400
C 	C 	0.16220 0.66280 0.77470 0.30300
C 	C 	0.56680 0.26710 0.81650 0.08000
C 	C 	0.50500 0.25790 0.86750 -0.14100
C 	C 	0.54300 0.21950 0.90980 0.07600
C 	C 	0.63850 0.19260 0.90120 -0.13400
C 	C 	0.69490 0.20590 0.85030 0.06600
C 	C 	0.48380 0.21260 0.96610 0.01200
C 	C 	0.37500 0.21930 0.96850 -0.07400
C 	C 	0.32270 0.21840 0.02120 0.00600
C 	C 	0.37610 0.20840 0.07280 -0.06800
C 	C 	0.48160 0.19920 0.07210 -0.00300
C 	C 	0.53700 0.19970 0.01830 -0.06900
C 	C 	0.31980 0.21450 0.13270 0.30100
C 	C 	0.76700 0.61000 0.24600 0.08400
C 	C 	0.81690 0.55670 0.23990 -0.14100
C 	C 	0.92480 0.55430 0.23300 0.07700
C 	C 	0.97720 0.60690 0.23030 -0.13200
C 	C 	0.92180 0.66020 0.23680 0.07200
C 	C 	0.98440 0.49830 0.22760 0.01400
C 	C 	0.95010 0.44800 0.25850 -0.07300
C 	C 	0.00540 0.39560 0.25660 0.00400
C 	C 	0.09810 0.39240 0.22470 -0.08100
C 	C 	0.13300 0.44160 0.19350 0.00500
C 	C 	0.07550 0.49460 0.19580 -0.07400
C 	C 	0.16220 0.33720 0.22530 0.30300
N 	N 	0.33990 0.74410 0.69200 -0.24700
N 	N 	0.18130 0.16130 0.25430 -0.24500
N 	N 	0.33990 0.25590 0.30800 -0.24700
N 	N 	0.18130 0.83870 0.74570 -0.24500
N 	N 	0.66010 0.75590 0.19200 -0.24700
N 	N 	0.81870 0.33870 0.75430 -0.24500
N 	N 	0.66010 0.24410 0.80800 -0.24700
N 	N 	0.81870 0.66130 0.24570 -0.24500
O 	O 	0.62510 0.71404 0.32138 -0.40200
O 	O 	0.77730 0.72120 0.36665 -0.35400
O 	O 	0.74680 0.83654 0.29381 -0.37000
O 	O 	0.87700 0.79206 0.24942 -0.39700
O 	O 	0.62510 0.28596 0.67862 -0.40200
O 	O 	0.77730 0.27880 0.63335 -0.35400
O 	O 	0.74680 0.16346 0.70619 -0.37000
O 	O 	0.87700 0.20794 0.75058 -0.39700
O 	O 	0.37490 0.78596 0.82138 -0.40200
O 	O 	0.22270 0.77880 0.86665 -0.35400
O 	O 	0.25320 0.66346 0.79381 -0.37000
O 	O 	0.12300 0.70794 0.74942 -0.39700
O 	O 	0.37490 0.21404 0.17862 -0.40200
O 	O 	0.22270 0.22120 0.13335 -0.35400
O 	O 	0.25320 0.33654 0.20619 -0.37000
O 	O 	0.12300 0.29206 0.25058 -0.39700
