data_crystal

_cell_length_a 9.68700
_cell_length_b 13.35140
_cell_length_c 13.40830
_cell_angle_alpha 90.00000
_cell_angle_beta  93.07000
_cell_angle_gamma 90.00000

_symmetry_space_group_name_	'P 1'
_symmetry_space_group_name_H-M	'P 1'

loop_
_symmetry_equiv_pos_as_xyz
  x,y,z

loop_
_atom_site_label
_atom_site_type_symbol
_atom_site_fract_x
_atom_site_fract_y
_atom_site_fract_z
_atom_site_charge
Zn	Zn	0.14037 0.54840 0.25616 1.21500
Zn	Zn	0.84712 0.54669 0.24391 1.21200
O 	O 	0.89500 0.89960 0.77010 -0.46300
O 	O 	0.12290 0.90130 0.80530 -0.46900
O 	O 	0.09690 0.57360 0.10910 -0.43300
O 	O 	0.86920 0.59560 0.10430 -0.41900
O 	O 	0.10450 0.69380 0.28240 -0.50400
O 	O 	0.87740 0.68900 0.29300 -0.47000
O 	O 	0.88420 0.02100 0.59760 -0.52500
O 	O 	0.10830 0.99720 0.61510 -0.47000
N 	N 	0.63600 0.54760 0.24440 -0.23100
N 	N 	0.35010 0.55070 0.25420 -0.25000
N 	N 	0.35650 0.73200 0.23190 -0.29500
H 	H 	0.27700 0.73740 0.26040 0.14500
H 	H 	0.39820 0.78600 0.21080 0.13000
C 	C 	0.98400 0.59410 0.06450 0.21100
C 	C 	0.98470 0.62250 0.95490 0.33700
C 	C 	0.99550 0.99690 0.56480 0.42500
C 	C 	0.99550 0.96850 0.45420 0.00100
C 	C 	0.99050 0.84230 0.32820 -0.09300
C 	C 	0.00600 0.79700 0.50830 -0.10200
C 	C 	0.99270 0.73260 0.29880 0.39300
C 	C 	0.04560 0.73340 0.94060 0.13400
C 	C 	0.00390 0.74820 0.82840 -0.14800
C 	C 	0.00740 0.85990 0.79820 0.40200
C 	C 	0.89010 0.69420 0.80550 0.14800
H 	H 	0.89260 0.66650 0.73710 -0.04100
H 	H 	0.80610 0.73590 0.80950 -0.00800
C 	C 	0.89120 0.60230 0.88980 -0.71700
H 	H 	0.80060 0.59820 0.92030 0.56800
H 	H 	0.91000 0.53720 0.85780 0.23600
C 	C 	0.18620 0.76100 0.99180 -0.90300
H 	H 	0.20080 0.83350 0.98670 0.24400
H 	H 	0.26000 0.72560 0.95900 0.29400
H 	H 	0.18760 0.74160 0.06230 0.29000
C 	C 	0.94230 0.80520 0.99610 -0.87500
H 	H 	0.96700 0.87530 0.98440 -0.38400
H 	H 	0.94920 0.79130 0.06800 0.50900
H 	H 	0.84730 0.79310 0.97000 -0.34000
C 	C 	0.13300 0.69720 0.77610 0.12200
H 	H 	0.11340 0.69480 0.70370 0.01000
H 	H 	0.14670 0.62910 0.80190 0.11200
H 	H 	0.21640 0.73690 0.79110 -0.03000
C 	C 	0.12400 0.89230 0.33050 -0.15700
H 	H 	0.14220 0.91600 0.26250 0.04100
H 	H 	0.19730 0.84380 0.35130 0.05300
C 	C 	0.13000 0.98310 0.40370 -0.35600
H 	H 	0.21080 0.97900 0.45200 0.12400
H 	H 	0.13180 0.04770 0.36760 0.06400
C 	C 	0.94440 0.86000 0.43530 -0.18400
C 	C 	0.79300 0.83430 0.45480 -0.19300
H 	H 	0.78040 0.83540 0.52680 0.09300
H 	H 	0.77070 0.76750 0.42830 0.09400
H 	H 	0.73160 0.88380 0.42160 0.07700
C 	C 	0.87800 0.89550 0.25390 0.06800
H 	H 	0.78510 0.87610 0.27180 -0.01000
H 	H 	0.89240 0.87470 0.18520 0.00800
H 	H 	0.88820 0.96840 0.25940 0.07700
C 	C 	0.55920 0.46240 0.24830 -0.00900
C 	C 	0.42570 0.46240 0.25180 0.01600
C 	C 	0.40860 0.63420 0.25060 0.00100
C 	C 	0.56950 0.63320 0.24990 -0.02800
C 	C 	0.56720 0.46410 0.27870 0.07800
C 	C 	0.42430 0.46560 0.28360 0.06900
C 	C 	0.41890 0.63420 0.21990 0.08900
C 	C 	0.56180 0.63270 0.21500 0.02900
C 	C 	0.87770 0.97880 0.39300 0.01300
H 	H 	0.87570 0.04650 0.36280 -0.00900
H 	H 	0.79540 0.97180 0.43310 0.04100
C 	C 	0.87200 0.90050 0.31070 -0.07500
H 	H 	0.78810 0.85900 0.31360 0.06400
H 	H 	0.87270 0.93280 0.24420 -0.06700
C 	C 	0.04580 0.85230 0.44240 0.42700
C 	C 	0.19070 0.82330 0.46600 -0.74200
H 	H 	0.20070 0.75080 0.45780 0.24600
H 	H 	0.21700 0.84180 0.53520 0.24700
H 	H 	0.25090 0.85810 0.42080 0.22500
C 	C 	0.10100 0.02800 0.40040 -0.17000
H 	H 	0.05550 0.08210 0.36270 0.03700
H 	H 	0.14790 0.98340 0.35430 0.26200
H 	H 	0.16990 0.05560 0.44910 0.06300
C 	C 	0.93640 0.73830 0.93640 -0.10300
C 	C 	0.09670 0.60670 0.90690 -0.32500
H 	H 	0.09040 0.54010 0.87450 0.10700
H 	H 	0.17740 0.60590 0.95540 0.12400
C 	C 	0.11960 0.68460 0.82890 -0.08900
H 	H 	0.20540 0.72270 0.84560 0.04000
H 	H 	0.12710 0.65300 0.76260 -0.10900
C 	C 	0.79380 0.76900 0.95000 1.39100
H 	H 	0.78600 0.84180 0.94230 -0.20800
H 	H 	0.76760 0.74980 0.01690 -0.33000
H 	H 	0.73220 0.73600 0.89980 -0.42600
C 	C 	0.02500 0.80770 0.00470 0.82000
H 	H 	0.01470 0.78880 0.07460 -0.48300
H 	H 	0.99460 0.87710 0.99440 0.44200
H 	H 	0.12220 0.80160 0.98890 0.02000
C 	C 	0.84800 0.55700 0.89660 -0.13800
H 	H 	0.87020 0.48550 0.89610 -0.00500
H 	H 	0.83310 0.58100 0.82780 0.14400
H 	H 	0.76440 0.56800 0.93290 -0.32000
N 	N 	0.61970 0.37010 0.25090 -0.28300
H 	H 	0.69200 0.36690 0.21400 0.14400
H 	H 	0.58020 0.31460 0.27050 0.11900
N 	N 	0.36670 0.37280 0.27140 -0.29300
H 	H 	0.28210 0.36660 0.24480 0.16100
H 	H 	0.41420 0.31920 0.29010 0.12600
Zn	Zn	0.85963 0.04840 0.74384 1.20600
Zn	Zn	0.15288 0.04669 0.75609 1.19900
O 	O 	0.10500 0.39960 0.22990 -0.48500
O 	O 	0.87710 0.40130 0.19470 -0.49000
O 	O 	0.90310 0.07360 0.89090 -0.43800
O 	O 	0.13080 0.09560 0.89570 -0.42300
O 	O 	0.89550 0.19380 0.71760 -0.50700
O 	O 	0.12260 0.18900 0.70700 -0.48000
O 	O 	0.11580 0.52100 0.40240 -0.46700
O 	O 	0.89170 0.49720 0.38490 -0.47400
N 	N 	0.36400 0.04760 0.75560 -0.25800
N 	N 	0.64990 0.05070 0.74580 -0.27400
N 	N 	0.64350 0.23200 0.76810 -0.29400
H 	H 	0.72300 0.23740 0.73960 0.14500
H 	H 	0.60180 0.28600 0.78920 0.12600
C 	C 	0.01600 0.09410 0.93550 0.17900
C 	C 	0.01530 0.12250 0.04510 0.38900
C 	C 	0.00450 0.49690 0.43520 0.34700
C 	C 	0.00450 0.46850 0.54580 0.05200
C 	C 	0.00950 0.34230 0.67180 -0.13400
C 	C 	0.99400 0.29700 0.49170 -0.09400
C 	C 	0.00730 0.23260 0.70120 0.40500
C 	C 	0.95440 0.23340 0.05940 0.14400
C 	C 	0.99610 0.24820 0.17160 -0.17000
C 	C 	0.99260 0.35990 0.20180 0.41600
C 	C 	0.10990 0.19420 0.19450 0.19800
H 	H 	0.10740 0.16650 0.26290 -0.05700
H 	H 	0.19390 0.23590 0.19050 -0.02400
C 	C 	0.10880 0.10230 0.11020 -0.83400
H 	H 	0.19940 0.09820 0.07970 0.64300
H 	H 	0.09000 0.03720 0.14220 0.23200
C 	C 	0.81380 0.26100 0.00820 -0.93200
H 	H 	0.79920 0.33350 0.01330 0.24000
H 	H 	0.74000 0.22560 0.04100 0.30000
H 	H 	0.81240 0.24160 0.93770 0.29700
C 	C 	0.05770 0.30520 0.00390 -0.86300
H 	H 	0.03300 0.37530 0.01560 -0.38600
H 	H 	0.05080 0.29130 0.93200 0.49900
H 	H 	0.15270 0.29310 0.03000 -0.33100
C 	C 	0.86700 0.19720 0.22390 0.13600
H 	H 	0.88660 0.19480 0.29630 0.01000
H 	H 	0.85330 0.12910 0.19810 0.10700
H 	H 	0.78360 0.23690 0.20890 -0.03400
C 	C 	0.87600 0.39230 0.66950 -0.10800
H 	H 	0.85780 0.41600 0.73750 0.02100
H 	H 	0.80270 0.34380 0.64870 0.04000
C 	C 	0.87000 0.48310 0.59630 -0.31600
H 	H 	0.78920 0.47900 0.54800 0.09600
H 	H 	0.86820 0.54770 0.63240 0.13500
C 	C 	0.05560 0.36000 0.56470 -0.12900
C 	C 	0.20700 0.33430 0.54520 -0.22800
H 	H 	0.21960 0.33540 0.47320 0.09700
H 	H 	0.22930 0.26750 0.57170 0.10100
H 	H 	0.26840 0.38380 0.57840 0.08100
C 	C 	0.12200 0.39550 0.74610 0.08400
H 	H 	0.21490 0.37610 0.72820 -0.02200
H 	H 	0.10760 0.37470 0.81480 0.00500
H 	H 	0.11180 0.46840 0.74060 0.07800
C 	C 	0.44080 0.96240 0.75170 0.00600
C 	C 	0.57430 0.96240 0.74820 0.03500
C 	C 	0.59140 0.13420 0.74940 -0.00800
C 	C 	0.43050 0.13320 0.75010 -0.03500
C 	C 	0.43280 0.96410 0.72130 0.09500
C 	C 	0.57570 0.96560 0.71640 0.08200
C 	C 	0.58110 0.13420 0.78010 0.09300
C 	C 	0.43820 0.13270 0.78500 0.02800
C 	C 	0.12230 0.47880 0.60700 -0.13400
H 	H 	0.12430 0.54650 0.63720 0.05800
H 	H 	0.20460 0.47180 0.56690 0.07000
C 	C 	0.12800 0.40050 0.68930 -0.00500
H 	H 	0.21190 0.35900 0.68640 0.04800
H 	H 	0.12730 0.43280 0.75580 -0.10800
C 	C 	0.95420 0.35230 0.55760 0.36100
C 	C 	0.80930 0.32330 0.53400 -0.67700
H 	H 	0.79930 0.25080 0.54220 0.22600
H 	H 	0.78300 0.34180 0.46480 0.22700
H 	H 	0.74910 0.35810 0.57920 0.20600
C 	C 	0.89900 0.52800 0.59960 -0.25200
H 	H 	0.94450 0.58210 0.63730 0.04400
H 	H 	0.85210 0.48340 0.64570 0.21100
H 	H 	0.83010 0.55560 0.55090 0.10000
C 	C 	0.06360 0.23830 0.06360 -0.11500
C 	C 	0.90330 0.10670 0.09310 -0.34600
H 	H 	0.90960 0.04010 0.12550 0.10200
H 	H 	0.82260 0.10590 0.04460 0.12500
C 	C 	0.88040 0.18460 0.17110 -0.07400
H 	H 	0.79460 0.22270 0.15440 0.03400
H 	H 	0.87290 0.15300 0.23740 -0.11900
C 	C 	0.20620 0.26900 0.05000 1.37000
H 	H 	0.21400 0.34180 0.05770 -0.21200
H 	H 	0.23240 0.24980 0.98310 -0.32700
H 	H 	0.26780 0.23600 0.10020 -0.42100
C 	C 	0.97500 0.30770 0.99530 0.80500
H 	H 	0.98530 0.28880 0.92540 -0.47300
H 	H 	0.00540 0.37710 0.00560 0.43300
H 	H 	0.87780 0.30160 0.01110 0.03500
C 	C 	0.15200 0.05700 0.10340 -0.11200
H 	H 	0.12980 0.98550 0.10390 0.02100
H 	H 	0.16690 0.08100 0.17220 0.15300
H 	H 	0.23560 0.06800 0.06710 -0.39100
N 	N 	0.38030 0.87010 0.74910 -0.28700
H 	H 	0.30800 0.86690 0.78600 0.15000
H 	H 	0.41980 0.81460 0.72950 0.12200
N 	N 	0.63330 0.87280 0.72860 -0.29700
H 	H 	0.71790 0.86660 0.75520 0.16700
H 	H 	0.58580 0.81920 0.70990 0.13000
