data_crystal

_cell_length_a 7.05100
_cell_length_b 14.59810
_cell_length_c 10.62140
_cell_angle_alpha 90.00000
_cell_angle_beta  108.04600
_cell_angle_gamma 90.00000

_symmetry_space_group_name_	'P 1'
_symmetry_space_group_name_H-M	'P 1'

loop_
_symmetry_equiv_pos_as_xyz
  x,y,z

loop_
_atom_site_label
_atom_site_type_symbol
_atom_site_fract_x
_atom_site_fract_y
_atom_site_fract_z
_atom_site_charge
La	La	0.72435 0.61146 0.49874 1.53500
O 	O 	0.39420 0.55791 0.54320 -0.52200
O 	O 	0.08630 0.59213 0.53600 -0.52800
O 	O 	0.52090 0.72487 0.58830 -0.22800
O 	O 	0.91490 0.85192 0.80480 -0.44300
O 	O 	0.90690 0.71960 0.69610 -0.43800
C 	C 	0.26190 0.61390 0.55060 0.41900
C 	C 	0.31630 0.71310 0.57400 -0.23800
H 	H 	0.23640 0.74940 0.49990 0.07600
H 	H 	0.28910 0.73400 0.65340 0.07600
C 	C 	0.60670 0.80480 0.66130 -0.21500
H 	H 	0.54380 0.81710 0.72890 0.06600
H 	H 	0.58490 0.85720 0.60250 0.06700
C 	C 	0.82650 0.78990 0.72490 0.36700
La	La	0.77565 0.11146 0.00126 1.51300
O 	O 	0.10580 0.05791 0.95680 -0.51100
O 	O 	0.41370 0.09213 0.96400 -0.51500
O 	O 	0.97910 0.22487 0.91170 -0.22500
O 	O 	0.58510 0.35192 0.69520 -0.44400
O 	O 	0.59310 0.21960 0.80390 -0.43600
C 	C 	0.23810 0.11390 0.94940 0.41500
C 	C 	0.18370 0.21310 0.92600 -0.22800
H 	H 	0.26360 0.24940 0.00010 0.07100
H 	H 	0.21090 0.23400 0.84660 0.07500
C 	C 	0.89330 0.30480 0.83870 -0.21600
H 	H 	0.95620 0.31710 0.77110 0.06700
H 	H 	0.91510 0.35720 0.89750 0.07000
C 	C 	0.67350 0.28990 0.77510 0.36800
La	La	0.27565 0.38854 0.50126 1.53600
O 	O 	0.60580 0.44209 0.45680 -0.52100
O 	O 	0.91370 0.40787 0.46400 -0.52700
O 	O 	0.47910 0.27513 0.41170 -0.22700
O 	O 	0.08510 0.14808 0.19520 -0.44300
O 	O 	0.09310 0.28040 0.30390 -0.43800
C 	C 	0.73810 0.38610 0.44940 0.41900
C 	C 	0.68370 0.28690 0.42600 -0.23800
H 	H 	0.76360 0.25060 0.50010 0.07600
H 	H 	0.71090 0.26600 0.34660 0.07600
C 	C 	0.39330 0.19520 0.33870 -0.21500
H 	H 	0.45620 0.18290 0.27110 0.06600
H 	H 	0.41510 0.14280 0.39750 0.06700
C 	C 	0.17350 0.21010 0.27510 0.36700
La	La	0.22435 0.88853 0.99874 1.51300
O 	O 	0.89420 0.94209 0.04320 -0.51100
O 	O 	0.58630 0.90787 0.03600 -0.51500
O 	O 	0.02090 0.77513 0.08830 -0.22500
O 	O 	0.41490 0.64808 0.30480 -0.44400
O 	O 	0.40690 0.78040 0.19610 -0.43600
C 	C 	0.76190 0.88610 0.05060 0.41500
C 	C 	0.81630 0.78690 0.07400 -0.22800
H 	H 	0.73640 0.75060 0.99990 0.07100
H 	H 	0.78910 0.76600 0.15340 0.07500
C 	C 	0.10670 0.69520 0.16130 -0.21600
H 	H 	0.04380 0.68290 0.22890 0.06700
H 	H 	0.08490 0.64280 0.10250 0.07000
C 	C 	0.32650 0.71010 0.22490 0.36800
