data_crystal

_cell_length_a 12.25490
_cell_length_b 13.56990
_cell_length_c 38.23200
_cell_angle_alpha 97.44300
_cell_angle_beta  90.00000
_cell_angle_gamma 90.00000

_symmetry_space_group_name_	'P 1'
_symmetry_space_group_name_H-M	'P 1'

loop_
_symmetry_equiv_pos_as_xyz
  x,y,z

loop_
_atom_site_label
_atom_site_type_symbol
_atom_site_fract_x
_atom_site_fract_y
_atom_site_fract_z
_atom_site_charge
Cd	Cd	0.68221 0.94859 0.33611 1.19400
Cd	Cd	0.39561 0.33146 0.42310 1.19000
Cd	Cd	0.08027 0.87271 0.63643 1.19900
Cd	Cd	0.58027 0.12729 0.86357 1.19900
Cd	Cd	0.32873 0.51294 0.94111 1.19400
Cd	Cd	0.89561 0.66854 0.07690 1.19000
Cd	Cd	0.10439 0.33146 0.92310 1.19000
Cd	Cd	0.17127 0.51294 0.44111 1.19400
Cd	Cd	0.91973 0.12729 0.36356 1.19900
Cd	Cd	0.41973 0.87271 0.13643 1.19900
Cd	Cd	0.60439 0.66854 0.57690 1.19000
Cd	Cd	0.31779 0.05141 0.66389 1.19400
Cd	Cd	0.67127 0.48706 0.05889 1.19400
Cd	Cd	0.81779 0.94859 0.83611 1.19400
Cd	Cd	0.18221 0.05141 0.16389 1.19400
Cd	Cd	0.82873 0.48706 0.55889 1.19400
H 	H 	0.88030 0.66510 0.86990 0.38000
H 	H 	0.02920 0.06120 0.53200 0.41900
H 	H 	0.93690 0.72790 0.16200 0.05400
H 	H 	0.11760 0.78770 0.84890 0.00400
H 	H 	0.82780 0.10910 0.98030 0.06000
H 	H 	0.41350 0.46580 0.18330 -0.00600
H 	H 	0.02020 0.78430 0.37940 0.44600
H 	H 	0.97980 0.21570 0.62060 0.44600
H 	H 	0.77650 0.68070 0.44890 -0.03400
H 	H 	0.32780 0.89090 0.51970 0.06000
H 	H 	0.14930 0.58090 0.08970 0.04700
H 	H 	0.27810 0.70970 0.62690 -0.01400
H 	H 	0.22370 0.34880 0.58630 0.04500
H 	H 	0.43690 0.27210 0.33800 0.05700
H 	H 	0.81320 0.25540 0.18420 -0.00300
H 	H 	0.68680 0.25540 0.68420 -0.00200
H 	H 	0.52920 0.93880 0.96800 0.43600
H 	H 	0.81730 0.79130 0.37010 -0.03800
H 	H 	0.27650 0.31930 0.05110 -0.03900
H 	H 	0.05510 0.64060 0.79400 0.16600
H 	H 	0.17220 0.89090 0.01970 0.06100
H 	H 	0.29590 0.53650 0.31110 0.09600
H 	H 	0.21420 0.45570 0.83670 0.09900
H 	H 	0.65820 0.95510 0.52170 0.00500
H 	H 	0.68270 0.79130 0.87010 -0.03900
H 	H 	0.89260 0.22450 0.59110 0.43500
H 	H 	0.92630 0.11960 0.60050 0.44900
H 	H 	0.64930 0.41910 0.41030 0.04600
H 	H 	0.47840 0.52830 0.69230 0.36200
H 	H 	0.15820 0.04490 0.97830 0.00500
H 	H 	0.39230 0.46230 0.31440 0.07600
H 	H 	0.61970 0.66510 0.36990 0.38400
H 	H 	0.03730 0.49710 0.35770 0.08200
H 	H 	0.38240 0.78770 0.34890 0.00500
H 	H 	0.27630 0.34880 0.08630 0.04600
H 	H 	0.29780 0.03280 0.86680 0.05600
H 	H 	0.33530 0.66540 0.01260 0.06400
H 	H 	0.23300 0.64130 0.34660 0.05800
H 	H 	0.70380 0.41520 0.78980 0.06500
H 	H 	0.60740 0.22450 0.09110 0.44500
H 	H 	0.88240 0.21230 0.15110 0.00500
H 	H 	0.90350 0.17850 0.71740 0.06600
H 	H 	0.08650 0.46580 0.68330 -0.00800
H 	H 	0.79590 0.46350 0.18890 0.09700
H 	H 	0.62060 0.92580 0.25890 0.03100
H 	H 	0.96550 0.84810 0.71030 -0.00400
H 	H 	0.50680 0.70070 0.38620 0.39400
H 	H 	0.09800 0.79150 0.55240 -0.01400
H 	H 	0.90680 0.47540 0.84180 0.36900
H 	H 	0.71420 0.54430 0.66330 0.09800
H 	H 	0.94490 0.35940 0.20600 0.16600
H 	H 	0.74330 0.82070 0.53720 0.03800
H 	H 	0.34180 0.04490 0.47830 0.00500
H 	H 	0.91580 0.11060 0.54190 0.42500
H 	H 	0.56310 0.72790 0.66200 0.05700
H 	H 	0.17500 0.79930 0.96350 0.00200
H 	H 	0.44490 0.97600 0.32220 0.05700
H 	H 	0.27910 0.20410 0.60260 -0.03300
H 	H 	0.47980 0.78430 0.87940 0.45600
H 	H 	0.86050 0.67630 0.47960 -0.04000
H 	H 	0.05620 0.66590 0.95110 0.05900
H 	H 	0.47080 0.06120 0.03200 0.43600
H 	H 	0.77630 0.65120 0.41370 0.04500
H 	H 	0.46270 0.49710 0.85770 0.07700
H 	H 	0.67220 0.10910 0.48030 0.06100
H 	H 	0.18680 0.74460 0.81580 -0.00300
H 	H 	0.40350 0.82150 0.78260 0.06400
H 	H 	0.46550 0.15190 0.78970 -0.00400
H 	H 	0.76700 0.35870 0.65340 0.05800
H 	H 	0.68530 0.89870 0.93970 0.19400
H 	H 	0.65220 0.73030 0.71440 0.00200
H 	H 	0.38030 0.33490 0.63010 0.38400
H 	H 	0.37640 0.45820 0.68740 0.37300
H 	H 	0.49840 0.83780 0.98130 0.44300
H 	H 	0.97080 0.93880 0.46800 0.42000
H 	H 	0.12360 0.45820 0.18740 0.37100
H 	H 	0.49320 0.29930 0.61380 0.39400
H 	H 	0.90200 0.20850 0.44760 -0.01400
H 	H 	0.34780 0.26970 0.28560 0.00200
H 	H 	0.97840 0.47170 0.80770 0.36000
H 	H 	0.26700 0.64130 0.84660 0.05800
H 	H 	0.06310 0.27210 0.83800 0.05500
H 	H 	0.63980 0.01830 0.73060 0.01300
H 	H 	0.05300 0.40370 0.10800 0.38600
H 	H 	0.28580 0.45570 0.33670 0.09800
H 	H 	0.20380 0.58480 0.71020 0.06600
H 	H 	0.09650 0.82150 0.28260 0.06600
H 	H 	0.22350 0.31930 0.55110 -0.03300
H 	H 	0.83530 0.33460 0.48740 0.06400
H 	H 	0.42630 0.88040 0.89950 0.45900
H 	H 	0.91350 0.53420 0.31670 -0.00800
H 	H 	0.59800 0.20850 0.94760 -0.01500
H 	H 	0.10740 0.77550 0.40890 0.43500
H 	H 	0.13980 0.98170 0.76940 0.01400
H 	H 	0.31320 0.74460 0.31580 -0.00200
H 	H 	0.87550 0.64840 0.38710 0.05200
H 	H 	0.53450 0.84810 0.21030 -0.00400
H 	H 	0.32500 0.79930 0.46350 0.00200
H 	H 	0.67500 0.20070 0.53650 0.00200
H 	H 	0.15220 0.26970 0.78560 0.00300
H 	H 	0.79780 0.96720 0.63320 0.05600
H 	H 	0.29540 0.90060 0.38630 0.00300
H 	H 	0.50920 0.09450 0.16930 -0.02600
H 	H 	0.19960 0.68620 0.88000 0.05500
H 	H 	0.00160 0.83780 0.48130 0.43000
H 	H 	0.80040 0.31380 0.12000 0.05500
H 	H 	0.11970 0.33490 0.13010 0.38100
H 	H 	0.70410 0.46350 0.68890 0.09600
H 	H 	0.84780 0.73030 0.21440 0.00300
H 	H 	0.55510 0.35940 0.70600 0.16700
H 	H 	0.94490 0.02400 0.17780 0.05800
H 	H 	0.36050 0.32370 0.02040 -0.04500
H 	H 	0.62360 0.54180 0.31260 0.37300
H 	H 	0.94380 0.33410 0.04890 0.05900
H 	H 	0.37550 0.35160 0.11290 0.05200
H 	H 	0.52160 0.47170 0.30770 0.36200
H 	H 	0.57370 0.11960 0.10050 0.45900
H 	H 	0.99320 0.70070 0.88620 0.39000
H 	H 	0.86020 0.01830 0.23060 0.01400
H 	H 	0.02160 0.52830 0.19230 0.36000
H 	H 	0.59320 0.47540 0.34180 0.37100
H 	H 	0.59650 0.17850 0.21740 0.06400
H 	H 	0.79620 0.41520 0.28980 0.06600
H 	H 	0.18860 0.22140 0.52740 -0.04800
H 	H 	0.85070 0.41910 0.91030 0.04700
H 	H 	0.55620 0.33410 0.54890 0.06000
H 	H 	0.53730 0.50290 0.14230 0.07700
H 	H 	0.84180 0.95510 0.02170 0.00500
H 	H 	0.31140 0.22140 0.02740 -0.05400
H 	H 	0.18530 0.10130 0.56030 0.19100
H 	H 	0.09320 0.52460 0.15820 0.36900
H 	H 	0.72370 0.65120 0.91370 0.04600
H 	H 	0.00920 0.90550 0.33070 -0.02600
H 	H 	0.25670 0.17930 0.46280 0.03800
H 	H 	0.63950 0.67630 0.97960 -0.04500
H 	H 	0.89230 0.53770 0.18560 0.07700
H 	H 	0.72350 0.68070 0.94890 -0.03900
H 	H 	0.13950 0.32370 0.52040 -0.04000
H 	H 	0.77910 0.79590 0.89740 -0.03400
H 	H 	0.44490 0.64060 0.29400 0.16700
H 	H 	0.03450 0.15190 0.28970 -0.00400
H 	H 	0.05510 0.97600 0.82220 0.05800
H 	H 	0.70460 0.09940 0.61370 0.00300
H 	H 	0.29620 0.58480 0.21020 0.06500
H 	H 	0.77810 0.29030 0.87310 -0.01400
H 	H 	0.60770 0.53770 0.68560 0.07600
H 	H 	0.07370 0.88040 0.39950 0.44900
H 	H 	0.20220 0.03280 0.36680 0.05600
H 	H 	0.20460 0.90060 0.88630 0.00300
H 	H 	0.62450 0.64840 0.88710 0.05200
H 	H 	0.58650 0.53420 0.81670 -0.00500
H 	H 	0.41580 0.88940 0.95810 0.43800
H 	H 	0.72090 0.79590 0.39740 -0.03300
H 	H 	0.31730 0.20870 0.12990 -0.03900
H 	H 	0.20410 0.53650 0.81110 0.09700
H 	H 	0.75670 0.82070 0.03720 0.03800
H 	H 	0.58420 0.11060 0.04190 0.43800
H 	H 	0.96270 0.50290 0.64230 0.08200
H 	H 	0.52020 0.21570 0.12060 0.45600
H 	H 	0.79540 0.09940 0.11370 0.00300
H 	H 	0.22190 0.70970 0.12690 -0.01400
H 	H 	0.61760 0.21230 0.65110 0.00500
H 	H 	0.35070 0.58090 0.58970 0.04600
H 	H 	0.82500 0.20070 0.03650 0.00200
H 	H 	0.72190 0.29030 0.37310 -0.01400
H 	H 	0.73300 0.35870 0.15340 0.05800
H 	H 	0.99840 0.16220 0.51870 0.43000
H 	H 	0.30040 0.68620 0.38000 0.05500
H 	H 	0.55300 0.59630 0.39200 0.38900
H 	H 	0.81140 0.77860 0.47260 -0.04800
H 	H 	0.68860 0.77860 0.97260 -0.05400
H 	H 	0.31470 0.10130 0.06030 0.19400
H 	H 	0.70220 0.96720 0.13320 0.05600
H 	H 	0.24330 0.17930 0.96280 0.03800
H 	H 	0.44700 0.40370 0.60800 0.38900
H 	H 	0.37940 0.07420 0.74110 0.03100
H 	H 	0.87940 0.92580 0.75890 0.03300
H 	H 	0.40200 0.79150 0.05240 -0.01500
H 	H 	0.49080 0.90550 0.83070 -0.02600
H 	H 	0.55510 0.02400 0.67780 0.05700
H 	H 	0.08420 0.88940 0.45810 0.42500
H 	H 	0.50160 0.16220 0.01870 0.44300
H 	H 	0.18270 0.20870 0.62990 -0.03800
H 	H 	0.22090 0.20410 0.10260 -0.03400
H 	H 	0.94700 0.59630 0.89200 0.38600
H 	H 	0.12450 0.35160 0.61290 0.05200
H 	H 	0.16470 0.66540 0.51260 0.06400
H 	H 	0.99080 0.09450 0.66930 -0.02600
H 	H 	0.87640 0.54180 0.81260 0.37100
H 	H 	0.40680 0.52460 0.65820 0.37100
H 	H 	0.78580 0.54430 0.16330 0.09900
H 	H 	0.12060 0.07420 0.24110 0.03300
H 	H 	0.10770 0.46230 0.81440 0.07700
H 	H 	0.44380 0.66590 0.45110 0.06000
H 	H 	0.00680 0.29930 0.11380 0.39000
H 	H 	0.81470 0.89870 0.43970 0.19100
H 	H 	0.39260 0.77550 0.90890 0.44500
H 	H 	0.36020 0.98170 0.26940 0.01300
H 	H 	0.69960 0.31380 0.62000 0.05500
H 	H 	0.66470 0.33460 0.98740 0.06400
C 	C 	0.00990 0.64830 0.44080 0.53200
C 	C 	0.43550 0.48620 0.67550 -1.14200
C 	C 	0.62460 0.95890 0.71650 0.06500
C 	C 	0.54740 0.91600 0.21160 0.05900
C 	C 	0.78000 0.87860 0.58690 -0.00300
C 	C 	0.41710 0.53030 0.17760 0.05600
C 	C 	0.43810 0.80470 0.54000 0.04900
C 	C 	0.00810 0.59860 0.84300 0.64100
C 	C 	0.62070 0.96490 0.89870 0.50200
C 	C 	0.14370 0.69510 0.68440 0.05900
C 	C 	0.66500 0.50000 0.67300 -0.24800
C 	C 	0.62810 0.16480 0.48540 -0.10600
C 	C 	0.93810 0.19530 0.96000 0.05000
C 	C 	0.18410 0.04260 0.95530 0.05600
C 	C 	0.60020 0.96180 0.24090 -0.10100
C 	C 	0.94050 0.74550 0.81350 0.45600
C 	C 	0.81470 0.11440 0.77290 0.09200
C 	C 	0.63790 0.27280 0.66600 0.08700
C 	C 	0.87930 0.96490 0.39870 0.49500
C 	C 	0.15270 0.60020 0.69370 -0.14200
C 	C 	0.58750 0.59410 0.49580 0.07100
C 	C 	0.57370 0.96320 0.68490 -0.13400
C 	C 	0.42090 0.21180 0.32460 -0.12600
C 	C 	0.55950 0.74550 0.31350 0.45500
C 	C 	0.18890 0.67230 0.53590 -0.13400
C 	C 	0.94940 0.87570 0.16370 0.00800
C 	C 	0.37160 0.78150 0.48080 0.02600
C 	C 	0.18860 0.52420 0.02250 0.08600
C 	C 	0.94330 0.14910 0.92330 0.07100
C 	C 	0.31140 0.52420 0.52250 0.08600
C 	C 	0.23080 0.03770 0.38950 -0.11700
C 	C 	0.45190 0.81460 0.90170 -1.43900
C 	C 	0.57910 0.78820 0.67540 -0.12600
C 	C 	0.12310 0.93600 0.25690 0.03000
C 	C 	0.53230 0.05980 0.18740 0.05200
C 	C 	0.21180 0.95900 0.90170 0.03900
C 	C 	0.55880 0.29840 0.52650 -0.12100
C 	C 	0.24520 0.70040 0.10350 0.06000
C 	C 	0.29940 0.21090 0.10530 0.09200
C 	C 	0.31470 0.88560 0.72710 0.09200
C 	C 	0.66420 0.71470 0.96170 0.21000
C 	C 	0.58590 0.11030 0.21640 -0.11200
C 	C 	0.36870 0.20960 0.29280 0.06700
C 	C 	0.69410 0.34320 0.64440 -0.14400
C 	C 	0.62310 0.06400 0.24310 0.02400
C 	C 	0.08010 0.27330 0.56100 -0.44700
C 	C 	0.50670 0.12180 0.37070 0.08900
C 	C 	0.44050 0.25450 0.68650 0.45500
C 	C 	0.35070 0.74870 0.06010 0.06900
C 	C 	0.46360 0.67590 0.31720 -0.44000
C 	C 	0.04740 0.08400 0.28840 0.06100
C 	C 	0.49150 0.87680 0.96210 -1.39200
C 	C 	0.49010 0.64830 0.94080 0.53500
C 	C 	0.68410 0.95740 0.54470 0.05800
C 	C 	0.08290 0.53030 0.67760 0.06200
C 	C 	0.23640 0.12270 0.94640 -0.13500
C 	C 	0.99190 0.44810 0.34650 -0.15000
C 	C 	0.76360 0.39300 0.95370 0.03000
C 	C 	0.68530 0.11440 0.27290 0.09200
C 	C 	0.54780 0.64420 0.37570 -1.21500
C 	C 	0.65270 0.39980 0.80630 -0.13800
C 	C 	0.22000 0.12140 0.41310 -0.00300
C 	C 	0.85630 0.30490 0.31560 0.05900
C 	C 	0.86210 0.27280 0.16600 0.08700
C 	C 	0.29890 0.62240 0.58150 -0.12900
C 	C 	0.00630 0.32410 0.00010 0.04800
C 	C 	0.49190 0.55190 0.15350 -0.14100
C 	C 	0.99190 0.40140 0.15700 0.64100
C 	C 	0.13790 0.72720 0.83400 0.08700
C 	C 	0.00160 0.64710 0.64630 0.06000
C 	C 	0.99330 0.12180 0.87070 0.09800
C 	C 	0.96770 0.05980 0.68740 0.05800
C 	C 	0.32870 0.21260 0.90200 0.09200
C 	C 	0.07790 0.31520 0.37780 0.05300
C 	C 	0.05950 0.25450 0.18650 0.45600
C 	C 	0.28000 0.12140 0.91310 -0.00300
C 	C 	0.42630 0.03680 0.31510 -0.13400
C 	C 	0.79940 0.78910 0.39470 0.08900
C 	C 	0.34730 0.60020 0.19370 -0.13800
C 	C 	0.35630 0.69510 0.18440 0.05800
C 	C 	0.33580 0.28530 0.03830 0.21000
C 	C 	0.56450 0.51380 0.32450 -1.14200
C 	C 	0.26360 0.60700 0.54630 0.03000
C 	C 	0.91250 0.59410 0.99580 0.07100
C 	C 	0.56190 0.19530 0.46000 0.04900
C 	C 	0.30590 0.65680 0.35560 -0.14400
C 	C 	0.07370 0.03680 0.81510 -0.13400
C 	C 	0.81110 0.32770 0.46410 -0.13400
C 	C 	0.87390 0.49470 0.11620 0.37100
C 	C 	0.87540 0.95890 0.21650 0.06100
C 	C 	0.68860 0.47580 0.47750 0.08600
C 	C 	0.91710 0.46970 0.32240 0.06200
C 	C 	0.41250 0.40590 0.50420 0.07100
C 	C 	0.96360 0.32410 0.18280 -0.43900
C 	C 	0.35890 0.12250 0.08130 -0.56500
C 	C 	0.79890 0.37760 0.91850 -0.12900
C 	C 	0.23640 0.60700 0.04630 0.03000
C 	C 	0.17130 0.21260 0.40200 0.09200
C 	C 	0.03640 0.67590 0.81720 -0.43900
C 	C 	0.07910 0.21180 0.82460 -0.12200
C 	C 	0.73640 0.39300 0.45370 0.03000
C 	C 	0.12810 0.83520 0.01460 -0.10500
C 	C 	0.05880 0.70160 0.97350 -0.11900
C 	C 	0.49840 0.64710 0.14630 0.05900
C 	C 	0.44330 0.85090 0.57670 0.06800
C 	C 	0.41990 0.27330 0.06100 -0.46100
C 	C 	0.93550 0.51380 0.82450 -1.13200
C 	C 	0.00810 0.55190 0.65350 -0.15000
C 	C 	0.92090 0.78820 0.17540 -0.12200
C 	C 	0.25480 0.70040 0.60350 0.06000
C 	C 	0.99150 0.12320 0.53790 -1.34500
C 	C 	0.16420 0.28530 0.53830 0.18900
C 	C 	0.31590 0.04260 0.45530 0.05800
C 	C 	0.86870 0.79040 0.20720 0.06400
C 	C 	0.14930 0.74870 0.56010 0.06900
C 	C 	0.66270 0.68860 0.90600 -0.08500
C 	C 	0.44940 0.12430 0.33630 0.01600
C 	C 	0.95260 0.91600 0.71160 0.06100
C 	C 	0.50850 0.12320 0.03790 -1.39200
C 	C 	0.03230 0.94020 0.31260 0.05800
C 	C 	0.37540 0.04110 0.28350 0.06500
C 	C 	0.06190 0.80470 0.04000 0.05000
C 	C 	0.49190 0.59860 0.34300 0.65000
C 	C 	0.85070 0.25130 0.43990 0.06900
C 	C 	0.37690 0.93600 0.75690 0.02400
C 	C 	0.87690 0.43820 0.14760 -0.15600
C 	C 	0.87160 0.21850 0.01920 0.02500
C 	C 	0.26920 0.03770 0.88950 -0.11700
C 	C 	0.62310 0.43820 0.64760 -0.15900
C 	C 	0.36210 0.72720 0.33400 0.08700
C 	C 	0.64110 0.87750 0.91870 -0.56500
C 	C 	0.55060 0.87570 0.66370 0.01600
C 	C 	0.45260 0.08400 0.78840 0.05900
C 	C 	0.04780 0.35580 0.12430 -1.20200
C 	C 	0.95900 0.82040 0.42900 0.88100
C 	C 	0.37930 0.03510 0.10130 0.50200
C 	C 	0.45900 0.17960 0.07100 0.91100
C 	C 	0.12460 0.04110 0.78350 0.06100
C 	C 	0.62610 0.49470 0.61620 0.37200
C 	C 	0.83580 0.71470 0.46170 0.18900
C 	C 	0.85890 0.87750 0.41870 -0.55300
C 	C 	0.50990 0.35170 0.05920 0.53500
C 	C 	0.62840 0.21850 0.51920 0.02600
C 	C 	0.68890 0.32770 0.96410 -0.13400
C 	C 	0.00670 0.87820 0.12930 0.09800
C 	C 	0.64370 0.30490 0.81560 0.05800
C 	C 	0.42210 0.31520 0.87780 0.05200
C 	C 	0.21480 0.78170 0.69770 0.06900
C 	C 	0.18530 0.88560 0.22710 0.09200
C 	C 	0.63130 0.79040 0.70720 0.06700
C 	C 	0.87190 0.16480 0.98540 -0.10500
C 	C 	0.70110 0.37760 0.41850 -0.12900
C 	C 	0.45220 0.35580 0.62430 -1.21500
C 	C 	0.67130 0.78740 0.09800 0.09200
C 	C 	0.55670 0.14910 0.42330 0.06800
C 	C 	0.82870 0.78740 0.59800 0.09200
C 	C 	0.05060 0.12430 0.83630 0.00800
C 	C 	0.92210 0.68480 0.62220 0.05300
C 	C 	0.75480 0.29960 0.89650 0.06000
C 	C 	0.19410 0.65680 0.85560 -0.14600
C 	C 	0.04100 0.17960 0.57100 0.88100
C 	C 	0.76920 0.96230 0.61050 -0.11700
C 	C 	0.91410 0.11030 0.71640 -0.11600
C 	C 	0.53640 0.32410 0.68280 -0.44000
C 	C 	0.99370 0.67590 0.99990 0.04800
C 	C 	0.16270 0.31140 0.59400 -0.08700
C 	C 	0.44120 0.70160 0.47350 -0.12100
C 	C 	0.12310 0.56180 0.85240 -0.15600
C 	C 	0.13130 0.20960 0.79280 0.06400
C 	C 	0.04810 0.81460 0.40170 -1.40400
C 	C 	0.00850 0.87680 0.46210 -1.34500
C 	C 	0.33500 0.50000 0.32700 -0.24800
C 	C 	0.10020 0.03820 0.25910 -0.10600
C 	C 	0.12610 0.50530 0.88380 0.37100
C 	C 	0.92630 0.96320 0.18490 -0.13400
C 	C 	0.37690 0.56180 0.35240 -0.15900
C 	C 	0.12840 0.78150 0.98080 0.02500
C 	C 	0.33730 0.31140 0.09400 -0.08500
C 	C 	0.83730 0.68860 0.40600 -0.08700
C 	C 	0.49330 0.87820 0.62930 0.08900
C 	C 	0.81140 0.47580 0.97750 0.08600
C 	C 	0.50160 0.35290 0.85370 0.05900
C 	C 	0.37390 0.50530 0.38380 0.37200
C 	C 	0.54810 0.18540 0.09830 -1.43900
C 	C 	0.31110 0.67230 0.03590 -0.13400
C 	C 	0.16500 0.50000 0.82700 -0.25200
C 	C 	0.72000 0.87860 0.08690 -0.00300
C 	C 	0.64930 0.25130 0.93990 0.06900
C 	C 	0.95220 0.64420 0.87570 -1.20200
C 	C 	0.58010 0.72670 0.93900 -0.46100
C 	C 	0.39980 0.03820 0.75910 -0.10100
C 	C 	0.50630 0.67590 0.49990 0.05000
C 	C 	0.95190 0.18540 0.59830 -1.40400
C 	C 	0.73640 0.87730 0.55360 -0.13600
C 	C 	0.81590 0.95740 0.04470 0.05600
C 	C 	0.28520 0.78170 0.19770 0.07000
C 	C 	0.58290 0.46970 0.82240 0.05600
C 	C 	0.83500 0.50000 0.17300 -0.25200
C 	C 	0.91990 0.72670 0.43900 -0.44700
C 	C 	0.99010 0.35170 0.55920 0.53200
C 	C 	0.87690 0.06400 0.74310 0.03000
C 	C 	0.54100 0.82040 0.92900 0.91100
C 	C 	0.74520 0.29960 0.39650 0.06000
C 	C 	0.71180 0.04100 0.59830 0.04000
C 	C 	0.84730 0.39980 0.30630 -0.14200
C 	C 	0.94120 0.29840 0.02650 -0.11900
C 	C 	0.20110 0.62240 0.08150 -0.12900
C 	C 	0.73080 0.96230 0.11050 -0.11700
C 	C 	0.12070 0.03510 0.60130 0.49500
C 	C 	0.57790 0.68480 0.12220 0.05200
C 	C 	0.99840 0.35290 0.35370 0.06000
C 	C 	0.08750 0.40590 0.00420 0.07100
C 	C 	0.37190 0.83520 0.51460 -0.10600
C 	C 	0.20060 0.21090 0.60530 0.08900
C 	C 	0.49370 0.32410 0.50010 0.05000
C 	C 	0.05670 0.85090 0.07670 0.07100
C 	C 	0.71480 0.21830 0.80230 0.07000
C 	C 	0.08590 0.88970 0.28360 -0.11600
C 	C 	0.41410 0.88970 0.78360 -0.11200
C 	C 	0.50810 0.44810 0.84650 -0.14100
C 	C 	0.89980 0.96180 0.74090 -0.10600
C 	C 	0.50810 0.40140 0.65700 0.65000
C 	C 	0.14110 0.12250 0.58130 -0.55300
C 	C 	0.78520 0.21830 0.30230 0.06900
C 	C 	0.78820 0.04100 0.09830 0.03900
C 	C 	0.46770 0.94020 0.81260 0.05200
C 	C 	0.28820 0.95900 0.40170 0.04000
C 	C 	0.26360 0.12270 0.44640 -0.13600
C 	C 	0.80590 0.34320 0.14440 -0.14600
C 	C 	0.76360 0.87730 0.05360 -0.13500
C 	C 	0.70060 0.78910 0.89470 0.09200
C 	C 	0.06450 0.48620 0.17550 -1.13200
N 	N 	0.28510 0.92580 0.69844 -0.21300
N 	N 	0.18050 0.76440 0.59360 -0.22900
N 	N 	0.33270 0.96090 0.43330 -0.13800
N 	N 	0.31950 0.76440 0.09360 -0.22900
N 	N 	0.10800 0.46760 0.03380 -0.15100
N 	N 	0.78330 0.70060 0.58830 -0.25100
N 	N 	0.68050 0.23560 0.90640 -0.22900
N 	N 	0.22730 0.79330 0.22752 -0.13500
N 	N 	0.15520 0.36840 0.39650 -0.19800
N 	N 	0.58480 0.78390 0.11880 -0.22400
N 	N 	0.65520 0.63160 0.10350 -0.19800
N 	N 	0.08480 0.21610 0.38120 -0.22400
N 	N 	0.14780 0.42160 0.97681 -0.23400
N 	N 	0.88750 0.06890 0.91020 -0.11000
N 	N 	0.64780 0.57840 0.52319 -0.23400
N 	N 	0.71490 0.07420 0.30156 -0.21300
N 	N 	0.83270 0.03910 0.06670 -0.13800
N 	N 	0.41940 0.94790 0.62420 -0.20700
N 	N 	0.65380 0.87380 0.72830 -0.14000
N 	N 	0.98640 0.96240 0.68520 -0.23600
N 	N 	0.28470 0.50070 0.48838 -0.21400
N 	N 	0.78510 0.07420 0.80156 -0.21300
N 	N 	0.99560 0.72470 0.03254 -0.23400
N 	N 	0.28330 0.29940 0.91170 -0.25100
N 	N 	0.72730 0.20670 0.27248 -0.13500
N 	N 	0.98970 0.81450 0.10028 -0.23800
N 	N 	0.61250 0.06890 0.41020 -0.11000
N 	N 	0.15380 0.12620 0.77170 -0.13900
N 	N 	0.60800 0.53240 0.46620 -0.15200
N 	N 	0.34620 0.12620 0.27170 -0.14000
N 	N 	0.72090 0.14180 0.82085 -0.21100
N 	N 	0.48640 0.03760 0.81480 -0.23300
N 	N 	0.41520 0.21610 0.88120 -0.22400
N 	N 	0.01360 0.03760 0.31480 -0.23600
N 	N 	0.78470 0.49930 0.01162 -0.21400
N 	N 	0.00440 0.27530 0.96746 -0.23400
N 	N 	0.66730 0.03910 0.56670 -0.13800
N 	N 	0.71670 0.70060 0.08830 -0.25100
N 	N 	0.21530 0.50070 0.98838 -0.21400
N 	N 	0.11250 0.93110 0.08980 -0.11000
N 	N 	0.22090 0.85820 0.67915 -0.21100
N 	N 	0.51030 0.81450 0.60028 -0.23200
N 	N 	0.85220 0.57840 0.02319 -0.23400
N 	N 	0.48970 0.18550 0.39972 -0.23200
N 	N 	0.06920 0.71760 0.66123 -0.21800
N 	N 	0.21670 0.29940 0.41170 -0.25100
N 	N 	0.27270 0.79330 0.72752 -0.13500
N 	N 	0.71530 0.49930 0.51162 -0.21400
N 	N 	0.50440 0.72470 0.53254 -0.23300
N 	N 	0.34480 0.36840 0.89650 -0.19800
N 	N 	0.21490 0.92580 0.19844 -0.21300
N 	N 	0.84620 0.87380 0.22830 -0.13900
N 	N 	0.56920 0.28240 0.83877 -0.21700
N 	N 	0.91520 0.78390 0.61880 -0.22400
N 	N 	0.39200 0.46760 0.53380 -0.15200
N 	N 	0.16730 0.96090 0.93330 -0.13800
N 	N 	0.91940 0.05210 0.87580 -0.20700
N 	N 	0.58060 0.05210 0.37580 -0.20700
N 	N 	0.89200 0.53240 0.96620 -0.15100
N 	N 	0.93080 0.28240 0.33877 -0.21800
N 	N 	0.81950 0.23560 0.40640 -0.22900
N 	N 	0.08060 0.94790 0.12420 -0.20700
N 	N 	0.84480 0.63160 0.60350 -0.19800
N 	N 	0.38750 0.93110 0.58980 -0.11000
N 	N 	0.27910 0.85820 0.17915 -0.21100
N 	N 	0.77910 0.14180 0.32085 -0.21100
N 	N 	0.43080 0.71760 0.16123 -0.21700
N 	N 	0.49560 0.27530 0.46746 -0.23300
N 	N 	0.35220 0.42160 0.47681 -0.23400
N 	N 	0.01030 0.18550 0.89972 -0.23800
N 	N 	0.77270 0.20670 0.77248 -0.13500
N 	N 	0.51360 0.96240 0.18520 -0.23300
O 	O 	0.55340 0.03090 0.90940 -0.47500
O 	O 	0.95210 0.36240 0.53170 -0.49800
O 	O 	0.94270 0.83080 0.83060 -0.48400
O 	O 	0.86750 0.71570 0.79300 -0.36400
O 	O 	0.05340 0.96910 0.59060 -0.47100
O 	O 	0.55730 0.83080 0.33060 -0.48400
O 	O 	0.13250 0.28430 0.20700 -0.36400
O 	O 	0.42790 0.42350 0.38195 -0.47700
O 	O 	0.96110 0.40620 0.58440 -0.50800
O 	O 	0.17860 0.54020 0.91025 -0.49800
O 	O 	0.36750 0.28430 0.70700 -0.36400
O 	O 	0.44270 0.16920 0.66940 -0.48400
O 	O 	0.94660 0.03090 0.40940 -0.47100
O 	O 	0.82140 0.45980 0.08975 -0.49800
O 	O 	0.57210 0.57650 0.61805 -0.47700
O 	O 	0.67860 0.45980 0.58975 -0.49800
O 	O 	0.03890 0.59380 0.41560 -0.50800
O 	O 	0.07210 0.42350 0.88195 -0.47800
O 	O 	0.54790 0.36240 0.03170 -0.50000
O 	O 	0.04790 0.63760 0.46830 -0.49800
O 	O 	0.66860 0.97000 0.86971 -0.59600
O 	O 	0.33140 0.03000 0.13029 -0.59600
O 	O 	0.05730 0.16920 0.16940 -0.48400
O 	O 	0.16860 0.03000 0.63029 -0.59500
O 	O 	0.46110 0.59380 0.91560 -0.51000
O 	O 	0.83140 0.97000 0.36971 -0.59500
O 	O 	0.63250 0.71570 0.29300 -0.36400
O 	O 	0.92790 0.57650 0.11805 -0.47800
O 	O 	0.32140 0.54020 0.41025 -0.49800
O 	O 	0.45210 0.63760 0.96830 -0.50000
O 	O 	0.53890 0.40620 0.08440 -0.51000
O 	O 	0.44660 0.96910 0.09060 -0.47500
