data_crystal

_cell_length_a 15.30420
_cell_length_b 15.57190
_cell_length_c 16.35220
_cell_angle_alpha 104.72300
_cell_angle_beta  105.15100
_cell_angle_gamma 101.62800

_symmetry_space_group_name_	'P 1'
_symmetry_space_group_name_H-M	'P 1'

loop_
_symmetry_equiv_pos_as_xyz
  x,y,z

loop_
_atom_site_label
_atom_site_type_symbol
_atom_site_fract_x
_atom_site_fract_y
_atom_site_fract_z
_atom_site_charge
Cd	Cd	0.75102 0.96630 0.53891 1.22100
Cd	Cd	0.57445 0.04000 0.12388 1.22900
Cd	Cd	0.64238 0.00264 0.33746 1.20400
O 	O 	0.61128 0.84680 0.49752 -0.39600
O 	O 	0.59191 0.96392 0.45000 -0.47400
O 	O 	0.15733 0.83111 0.22426 -0.39900
O 	O 	0.25023 0.96579 0.32065 -0.46500
O 	O 	0.10920 0.12175 0.09840 -0.50500
O 	O 	0.16410 0.09203 0.22661 -0.49100
O 	O 	0.38870 0.56600 0.43940 -0.23800
N 	N 	0.29490 0.59370 0.32230 -0.23400
H 	H 	0.24560 0.56670 0.27330 0.12300
C 	C 	0.45600 0.83410 0.40860 -0.04100
C 	C 	0.42430 0.73970 0.39680 -0.09900
H 	H 	0.46640 0.70910 0.42260 0.09100
C 	C 	0.33040 0.69100 0.34680 0.12700
C 	C 	0.26860 0.73690 0.31190 -0.09200
H 	H 	0.20470 0.70350 0.27770 0.07700
C 	C 	0.29990 0.83110 0.32670 -0.05400
C 	C 	0.39420 0.87990 0.37450 -0.01800
H 	H 	0.41590 0.94430 0.38360 0.04700
C 	C 	0.28420 0.43610 0.31580 -0.02700
C 	C 	0.28500 0.37400 0.36360 -0.06200
H 	H 	0.31320 0.39660 0.42690 0.06100
C 	C 	0.24520 0.27970 0.32020 0.00800
H 	H 	0.24610 0.23800 0.35360 0.04100
C 	C 	0.20420 0.24650 0.22820 -0.11500
C 	C 	0.20500 0.30740 0.17950 0.01500
H 	H 	0.17800 0.28440 0.11610 0.03000
C 	C 	0.24510 0.40150 0.22300 -0.06500
H 	H 	0.24600 0.44280 0.18920 0.04600
C 	C 	0.32770 0.53740 0.36530 0.20800
C 	C 	0.55930 0.88430 0.45480 0.30200
C 	C 	0.23100 0.87840 0.28860 0.30400
C 	C 	0.15530 0.14470 0.18010 0.39200
O 	O 	0.72180 0.13220 0.18240 -0.41300
O 	O 	0.72858 0.02130 0.24341 -0.48700
O 	O 	0.17409 0.14170 0.44380 -0.41700
O 	O 	0.07340 0.01148 0.34450 -0.46500
O 	O 	0.27930 0.86323 0.56097 -0.44500
O 	O 	0.17200 0.89337 0.45857 -0.44600
O 	O 	0.90360 0.43170 0.31870 -0.24500
N 	N 	0.02500 0.39230 0.39590 -0.26200
H 	H 	0.08200 0.41550 0.43580 0.13000
C 	C 	0.86680 0.14970 0.29010 -0.06000
C 	C 	0.89510 0.24630 0.31590 -0.10000
H 	H 	0.85080 0.27880 0.29910 0.09600
C 	C 	0.98880 0.29430 0.36660 0.16000
C 	C 	0.05280 0.24530 0.39000 -0.11600
H 	H 	0.11650 0.27810 0.42600 0.08000
C 	C 	0.02460 0.14930 0.36130 -0.07000
C 	C 	0.93100 0.10110 0.31170 -0.00000
H 	H 	0.91110 0.03530 0.29270 0.03100
C 	C 	0.04400 0.55350 0.40730 -0.12400
C 	C 	0.99960 0.62120 0.39590 0.06600
H 	H 	0.93290 0.60400 0.36890 0.03000
C 	C 	0.05120 0.71310 0.42330 -0.08100
H 	H 	0.01980 0.75810 0.41330 0.06500
C 	C 	0.14740 0.74040 0.46470 -0.04200
C 	C 	0.19240 0.67390 0.47780 -0.05100
H 	H 	0.25880 0.69170 0.50670 0.06500
C 	C 	0.14110 0.58140 0.44900 0.01700
H 	H 	0.17300 0.53650 0.45800 0.02200
C 	C 	0.98390 0.45440 0.37080 0.27600
C 	C 	0.76530 0.09730 0.23560 0.32700
C 	C 	0.09520 0.09750 0.38370 0.31700
C 	C 	0.20390 0.84090 0.49700 0.35500
O 	O 	0.56720 0.09698 0.27078 -0.51900
N 	N 	0.54390 0.23650 0.31620 -0.12700
C 	C 	0.48550 0.29530 0.34070 -0.28200
H 	H 	0.42850 0.25760 0.34530 0.11300
H 	H 	0.46730 0.32440 0.29480 0.12100
H 	H 	0.52130 0.34350 0.39860 0.13600
C 	C 	0.63490 0.27960 0.30500 -0.29000
H 	H 	0.66590 0.23170 0.28850 0.12900
H 	H 	0.67630 0.32710 0.36150 0.12800
H 	H 	0.62200 0.30800 0.25780 0.13000
C 	C 	0.51880 0.15010 0.29680 0.40800
C 	C 	0.42240 0.10450 0.30190 -0.74700
H 	H 	0.41100 0.03710 0.28400 0.23000
H 	H 	0.37260 0.11950 0.26150 0.24100
H 	H 	0.42210 0.12770 0.36340 0.25000
Cd	Cd	0.90758 0.05157 0.79284 1.20800
O 	O 	0.05280 0.14890 0.84980 -0.42400
O 	O 	0.06501 0.02805 0.89453 -0.50300
O 	O 	0.50850 0.15460 0.10670 -0.39600
O 	O 	0.40850 0.02090 0.01320 -0.48300
O 	O 	0.50490 0.89637 0.10811 -0.43700
O 	O 	0.52720 0.88218 0.24428 -0.45000
O 	O 	0.27500 0.42350 0.92210 -0.23300
N 	N 	0.35980 0.40060 0.04760 -0.24000
H 	H 	0.40170 0.42860 0.10140 0.12400
C 	C 	0.20290 0.15750 0.94350 -0.08100
C 	C 	0.23330 0.25340 0.96600 -0.04500
H 	H 	0.19040 0.28570 0.94530 0.07900
C 	C 	0.32630 0.30240 0.01860 0.08300
C 	C 	0.38840 0.25440 0.04840 -0.06100
H 	H 	0.45100 0.28740 0.08710 0.06300
C 	C 	0.35930 0.15840 0.02180 -0.10100
C 	C 	0.26590 0.10930 0.97030 0.03100
H 	H 	0.24560 0.04370 0.95370 0.02100
C 	C 	0.37620 0.55680 0.04310 -0.10300
C 	C 	0.38780 0.61130 0.98990 0.04800
H 	H 	0.36990 0.58310 0.92690 0.03000
C 	C 	0.42510 0.70670 0.02710 -0.08700
H 	H 	0.43290 0.74350 0.98980 0.08600
C 	C 	0.45120 0.74840 0.11900 -0.05100
C 	C 	0.43800 0.69400 0.17250 -0.04000
H 	H 	0.45430 0.72210 0.23530 0.05700
C 	C 	0.40110 0.59890 0.13470 0.00100
H 	H 	0.39280 0.56210 0.17180 0.02600
C 	C 	0.33190 0.45470 0.99800 0.25300
C 	C 	0.10030 0.10800 0.89310 0.32500
C 	C 	0.42990 0.10850 0.04890 0.31600
C 	C 	0.49810 0.85120 0.16060 0.37000
Cd	Cd	0.24898 0.03370 0.46109 1.20100
Cd	Cd	0.42555 0.96000 0.87612 1.24800
Cd	Cd	0.35762 0.99736 0.66254 1.22200
O 	O 	0.38872 0.15320 0.50248 -0.40700
O 	O 	0.40809 0.03608 0.55000 -0.51200
O 	O 	0.84267 0.16889 0.77574 -0.39700
O 	O 	0.74977 0.03421 0.67935 -0.50500
O 	O 	0.89080 0.87825 0.90160 -0.46800
O 	O 	0.83590 0.90797 0.77339 -0.46100
O 	O 	0.61130 0.43400 0.56060 -0.23800
N 	N 	0.70510 0.40630 0.67770 -0.23400
H 	H 	0.75440 0.43330 0.72670 0.12700
C 	C 	0.54400 0.16590 0.59140 -0.05500
C 	C 	0.57570 0.26030 0.60320 -0.09100
H 	H 	0.53360 0.29090 0.57740 0.08800
C 	C 	0.66960 0.30900 0.65320 0.12300
C 	C 	0.73140 0.26310 0.68810 -0.08500
H 	H 	0.79530 0.29650 0.72230 0.08000
C 	C 	0.70010 0.16890 0.67330 -0.06700
C 	C 	0.60580 0.12010 0.62550 -0.00900
H 	H 	0.58410 0.05570 0.61640 0.02200
C 	C 	0.71580 0.56390 0.68420 -0.02900
C 	C 	0.71500 0.62600 0.63640 -0.05600
H 	H 	0.68680 0.60340 0.57310 0.06100
C 	C 	0.75480 0.72030 0.67980 0.00300
H 	H 	0.75390 0.76200 0.64640 0.04400
C 	C 	0.79580 0.75350 0.77180 -0.10400
C 	C 	0.79500 0.69260 0.82050 0.01100
H 	H 	0.82200 0.71560 0.88390 0.04100
C 	C 	0.75490 0.59850 0.77700 -0.05800
H 	H 	0.75400 0.55720 0.81080 0.04800
C 	C 	0.67230 0.46260 0.63470 0.21000
C 	C 	0.44070 0.11570 0.54520 0.30800
C 	C 	0.76900 0.12160 0.71140 0.30900
C 	C 	0.84470 0.85530 0.81990 0.38700
O 	O 	0.27820 0.86780 0.81760 -0.39600
O 	O 	0.27142 0.97870 0.75659 -0.45800
O 	O 	0.82591 0.85830 0.55620 -0.40300
O 	O 	0.92660 0.98852 0.65550 -0.41300
O 	O 	0.72070 0.13677 0.43903 -0.46500
O 	O 	0.82800 0.10663 0.54143 -0.47500
O 	O 	0.09640 0.56830 0.68130 -0.21700
N 	N 	0.97500 0.60770 0.60410 -0.20100
H 	H 	0.91800 0.58450 0.56420 0.11900
C 	C 	0.13320 0.85030 0.70990 -0.04900
C 	C 	0.10490 0.75370 0.68410 -0.07900
H 	H 	0.14920 0.72120 0.70090 0.08800
C 	C 	0.01120 0.70570 0.63340 0.08800
C 	C 	0.94720 0.75470 0.61000 -0.06400
H 	H 	0.88350 0.72190 0.57400 0.06700
C 	C 	0.97540 0.85070 0.63870 -0.03100
C 	C 	0.06900 0.89890 0.68830 -0.04600
H 	H 	0.08890 0.96470 0.70730 0.05600
C 	C 	0.95600 0.44650 0.59270 0.05500
C 	C 	0.00040 0.37880 0.60410 -0.15000
H 	H 	0.06710 0.39600 0.63110 0.09300
C 	C 	0.94880 0.28690 0.57670 0.09000
H 	H 	0.98020 0.24190 0.58670 0.01600
C 	C 	0.85260 0.25960 0.53530 -0.14000
C 	C 	0.80760 0.32610 0.52220 0.05600
H 	H 	0.74120 0.30830 0.49330 0.03000
C 	C 	0.85890 0.41860 0.55100 -0.10600
H 	H 	0.82700 0.46350 0.54200 0.06600
C 	C 	0.01610 0.54560 0.62920 0.16200
C 	C 	0.23470 0.90270 0.76440 0.32300
C 	C 	0.90480 0.90250 0.61630 0.30700
C 	C 	0.79610 0.15910 0.50300 0.39400
O 	O 	0.43280 0.90302 0.72922 -0.51000
N 	N 	0.45610 0.76350 0.68380 -0.13100
C 	C 	0.51450 0.70470 0.65930 -0.28000
H 	H 	0.57150 0.74240 0.65470 0.11300
H 	H 	0.53270 0.67560 0.70520 0.12000
H 	H 	0.47870 0.65650 0.60140 0.13600
C 	C 	0.36510 0.72040 0.69500 -0.28700
H 	H 	0.33410 0.76830 0.71150 0.12700
H 	H 	0.32370 0.67290 0.63850 0.12600
H 	H 	0.37800 0.69200 0.74220 0.12900
C 	C 	0.48120 0.84990 0.70320 0.42000
C 	C 	0.57760 0.89550 0.69810 -0.78100
H 	H 	0.58900 0.96290 0.71600 0.26500
H 	H 	0.62740 0.88050 0.73850 0.25900
H 	H 	0.57790 0.87230 0.63660 0.26800
Cd	Cd	0.09242 0.94843 0.20716 1.21800
O 	O 	0.94720 0.85110 0.15020 -0.39300
O 	O 	0.93499 0.97195 0.10547 -0.45700
O 	O 	0.49150 0.84540 0.89330 -0.38200
O 	O 	0.59150 0.97910 0.98680 -0.42700
O 	O 	0.49510 0.10363 0.89189 -0.46600
O 	O 	0.47280 0.11782 0.75572 -0.48400
O 	O 	0.72500 0.57650 0.07790 -0.21100
N 	N 	0.64020 0.59940 0.95240 -0.22100
H 	H 	0.59830 0.57140 0.89860 0.12000
C 	C 	0.79710 0.84250 0.05650 -0.02200
C 	C 	0.76670 0.74660 0.03400 -0.12200
H 	H 	0.80960 0.71430 0.05470 0.10300
C 	C 	0.67370 0.69760 0.98140 0.14800
C 	C 	0.61160 0.74560 0.95160 -0.11100
H 	H 	0.54900 0.71260 0.91290 0.08000
C 	C 	0.64070 0.84160 0.97820 -0.02300
C 	C 	0.73410 0.89070 0.02970 -0.05100
H 	H 	0.75440 0.95630 0.04630 0.05800
C 	C 	0.62380 0.44320 0.95690 0.05800
C 	C 	0.61220 0.38870 0.01010 -0.16000
H 	H 	0.63010 0.41690 0.07310 0.09600
C 	C 	0.57490 0.29330 0.97290 0.11700
H 	H 	0.56710 0.25650 0.01020 0.00000
C 	C 	0.54880 0.25160 0.88100 -0.15800
C 	C 	0.56200 0.30600 0.82750 0.06600
H 	H 	0.54570 0.27790 0.76470 0.02200
C 	C 	0.59890 0.40110 0.86530 -0.11600
H 	H 	0.60720 0.43790 0.82820 0.06700
C 	C 	0.66810 0.54530 0.00200 0.16300
C 	C 	0.89970 0.89200 0.10690 0.30100
C 	C 	0.57010 0.89150 0.95110 0.29000
C 	C 	0.50190 0.14880 0.83940 0.41100
Cd	Cd	-0.00000 0.00000 -0.00000 1.16700
