data_crystal

_cell_length_a 24.19080
_cell_length_b 9.14720
_cell_length_c 18.95670
_cell_angle_alpha 90.00000
_cell_angle_beta  114.25200
_cell_angle_gamma 90.00000

_symmetry_space_group_name_	'P 1'
_symmetry_space_group_name_H-M	'P 1'

loop_
_symmetry_equiv_pos_as_xyz
  x,y,z

loop_
_atom_site_label
_atom_site_type_symbol
_atom_site_fract_x
_atom_site_fract_y
_atom_site_fract_z
_atom_site_charge
Eu	Eu	0.54162 0.30572 0.49430 1.93300
Zn	Zn	0.71222 0.50981 0.33624 1.20400
O 	O 	0.54720 0.56580 0.49616 -0.60900
O 	O 	0.54097 0.80280 0.48240 -0.48500
O 	O 	0.61555 0.35120 0.45790 -0.55800
O 	O 	0.66468 0.36470 0.38230 -0.44700
O 	O 	0.80454 0.48210 0.42683 -0.43600
O 	O 	0.89239 0.37720 0.44630 -0.51000
O 	O 	0.92363 0.13360 0.37880 -0.50500
O 	O 	0.87961 0.04240 0.26120 -0.42900
N 	N 	0.64200 0.81860 0.44850 -0.24800
H 	H 	0.63270 0.90480 0.46120 0.14500
N 	N 	0.68457 0.65110 0.40440 -0.27200
N 	N 	0.74324 0.33230 0.29640 -0.27900
N 	N 	0.77168 0.16390 0.23310 -0.28700
C 	C 	0.56600 0.68480 0.48040 0.36600
C 	C 	0.61760 0.68590 0.45630 -0.02200
C 	C 	0.64510 0.58340 0.42980 -0.10100
C 	C 	0.64100 0.42200 0.42250 0.41800
C 	C 	0.68240 0.79270 0.41800 0.34400
C 	C 	0.71770 0.91010 0.40110 -0.89900
H 	H 	0.70060 0.92910 0.34650 0.28100
H 	H 	0.75910 0.87950 0.41760 0.28200
H 	H 	0.71610 0.99750 0.42820 0.29900
C 	C 	0.83560 0.39090 0.40880 0.37000
C 	C 	0.80340 0.30320 0.33840 -0.07500
C 	C 	0.82090 0.19850 0.29950 -0.07800
C 	C 	0.87830 0.12130 0.31410 0.36400
C 	C 	0.72610 0.24580 0.23410 0.30100
C 	C 	0.66360 0.24420 0.17210 -0.82300
H 	H 	0.63920 0.17640 0.18560 0.24400
H 	H 	0.66490 0.21500 0.12420 0.25600
H 	H 	0.64630 0.34030 0.16660 0.24600
Eu	Eu	0.04162 0.80572 0.49430 1.93600
Zn	Zn	0.21222 0.00981 0.33624 1.20500
O 	O 	0.04720 0.06580 0.49616 -0.60800
O 	O 	0.04097 0.30280 0.48240 -0.48400
O 	O 	0.11555 0.85120 0.45790 -0.55700
O 	O 	0.16468 0.86470 0.38230 -0.44500
O 	O 	0.30454 0.98210 0.42683 -0.43500
O 	O 	0.39239 0.87720 0.44630 -0.51000
O 	O 	0.42363 0.63360 0.37880 -0.50500
O 	O 	0.37961 0.54240 0.26120 -0.42900
N 	N 	0.14200 0.31860 0.44850 -0.24800
H 	H 	0.13270 0.40480 0.46120 0.14500
N 	N 	0.18457 0.15110 0.40440 -0.27200
N 	N 	0.24324 0.83230 0.29640 -0.28000
N 	N 	0.27168 0.66390 0.23310 -0.28800
C 	C 	0.06600 0.18480 0.48040 0.36600
C 	C 	0.11760 0.18590 0.45630 -0.02200
C 	C 	0.14510 0.08340 0.42980 -0.10100
C 	C 	0.14100 0.92200 0.42250 0.41900
C 	C 	0.18240 0.29270 0.41800 0.34500
C 	C 	0.21770 0.41010 0.40110 -0.90000
H 	H 	0.20060 0.42910 0.34650 0.28100
H 	H 	0.25910 0.37950 0.41760 0.28300
H 	H 	0.21610 0.49750 0.42820 0.29900
C 	C 	0.33560 0.89090 0.40880 0.37000
C 	C 	0.30340 0.80320 0.33840 -0.07500
C 	C 	0.32090 0.69850 0.29950 -0.07800
C 	C 	0.37830 0.62130 0.31410 0.36400
C 	C 	0.22610 0.74580 0.23410 0.30200
C 	C 	0.16360 0.74420 0.17210 -0.82700
H 	H 	0.13920 0.67640 0.18560 0.24600
H 	H 	0.16490 0.71500 0.12420 0.25900
H 	H 	0.14630 0.84030 0.16660 0.24800
Eu	Eu	0.45838 0.30572 0.00570 1.93400
Zn	Zn	0.28778 0.50981 0.16376 1.20600
O 	O 	0.45280 0.56580 0.00384 -0.60800
O 	O 	0.45903 0.80280 0.01760 -0.48400
O 	O 	0.38445 0.35120 0.04210 -0.55700
O 	O 	0.33532 0.36470 0.11770 -0.44600
O 	O 	0.19546 0.48210 0.07317 -0.43400
O 	O 	0.10761 0.37720 0.05370 -0.50700
O 	O 	0.07637 0.13360 0.12120 -0.50300
O 	O 	0.12039 0.04240 0.23880 -0.42800
N 	N 	0.35800 0.81860 0.05150 -0.24800
H 	H 	0.36730 0.90480 0.03880 0.14500
N 	N 	0.31543 0.65110 0.09560 -0.27200
N 	N 	0.25676 0.33230 0.20360 -0.27900
N 	N 	0.22832 0.16390 0.26690 -0.28700
C 	C 	0.43400 0.68480 0.01960 0.36600
C 	C 	0.38240 0.68590 0.04370 -0.02200
C 	C 	0.35490 0.58340 0.07020 -0.10000
C 	C 	0.35900 0.42200 0.07750 0.41900
C 	C 	0.31760 0.79270 0.08200 0.34600
C 	C 	0.28230 0.91010 0.09890 -0.90200
H 	H 	0.29940 0.92910 0.15350 0.28100
H 	H 	0.24090 0.87950 0.08240 0.28400
H 	H 	0.28390 0.99750 0.07180 0.30100
C 	C 	0.16440 0.39090 0.09120 0.36900
C 	C 	0.19660 0.30320 0.16160 -0.07400
C 	C 	0.17910 0.19850 0.20050 -0.07800
C 	C 	0.12170 0.12130 0.18590 0.36400
C 	C 	0.27390 0.24580 0.26590 0.30100
C 	C 	0.33640 0.24420 0.32790 -0.82400
H 	H 	0.36080 0.17640 0.31440 0.24400
H 	H 	0.33510 0.21500 0.37580 0.25700
H 	H 	0.35370 0.34030 0.33340 0.24600
Eu	Eu	0.95838 0.80572 0.00570 1.93300
Zn	Zn	0.78778 0.00981 0.16376 1.20500
O 	O 	0.95280 0.06580 0.00384 -0.60900
O 	O 	0.95903 0.30280 0.01760 -0.48500
O 	O 	0.88445 0.85120 0.04210 -0.55700
O 	O 	0.83532 0.86470 0.11770 -0.44600
O 	O 	0.69546 0.98210 0.07317 -0.43500
O 	O 	0.60761 0.87720 0.05370 -0.50900
O 	O 	0.57637 0.63360 0.12120 -0.50500
O 	O 	0.62039 0.54240 0.23880 -0.42900
N 	N 	0.85800 0.31860 0.05150 -0.24800
H 	H 	0.86730 0.40480 0.03880 0.14500
N 	N 	0.81543 0.15110 0.09560 -0.27200
N 	N 	0.75676 0.83230 0.20360 -0.27900
N 	N 	0.72832 0.66390 0.26690 -0.28700
C 	C 	0.93400 0.18480 0.01960 0.36500
C 	C 	0.88240 0.18590 0.04370 -0.02300
C 	C 	0.85490 0.08340 0.07020 -0.10200
C 	C 	0.85900 0.92200 0.07750 0.41900
C 	C 	0.81760 0.29270 0.08200 0.34400
C 	C 	0.78230 0.41010 0.09890 -0.89900
H 	H 	0.79940 0.42910 0.15350 0.28000
H 	H 	0.74090 0.37950 0.08240 0.28200
H 	H 	0.78390 0.49750 0.07180 0.29900
C 	C 	0.66440 0.89090 0.09120 0.37000
C 	C 	0.69660 0.80320 0.16160 -0.07500
C 	C 	0.67910 0.69850 0.20050 -0.07800
C 	C 	0.62170 0.62130 0.18590 0.36400
C 	C 	0.77390 0.74580 0.26590 0.30100
C 	C 	0.83640 0.74420 0.32790 -0.82400
H 	H 	0.86080 0.67640 0.31440 0.24500
H 	H 	0.83510 0.71500 0.37580 0.25700
H 	H 	0.85370 0.84030 0.33340 0.24600
Eu	Eu	0.45838 0.69428 0.50570 1.93400
Zn	Zn	0.28778 0.49019 0.66376 1.20500
O 	O 	0.45280 0.43420 0.50384 -0.60800
O 	O 	0.45903 0.19720 0.51760 -0.48400
O 	O 	0.38445 0.64880 0.54210 -0.55700
O 	O 	0.33532 0.63530 0.61770 -0.44600
O 	O 	0.19546 0.51790 0.57317 -0.43600
O 	O 	0.10761 0.62280 0.55370 -0.51000
O 	O 	0.07637 0.86640 0.62120 -0.50500
O 	O 	0.12039 0.95760 0.73880 -0.42900
N 	N 	0.35800 0.18140 0.55150 -0.24800
H 	H 	0.36730 0.09520 0.53880 0.14500
N 	N 	0.31543 0.34890 0.59560 -0.27200
N 	N 	0.25676 0.66770 0.70360 -0.27900
N 	N 	0.22832 0.83610 0.76690 -0.28700
C 	C 	0.43400 0.31520 0.51960 0.36600
C 	C 	0.38240 0.31410 0.54370 -0.02200
C 	C 	0.35490 0.41660 0.57020 -0.10100
C 	C 	0.35900 0.57800 0.57750 0.41800
C 	C 	0.31760 0.20730 0.58200 0.34400
C 	C 	0.28230 0.08990 0.59890 -0.89900
H 	H 	0.29940 0.07090 0.65350 0.28100
H 	H 	0.24090 0.12050 0.58240 0.28200
H 	H 	0.28390 0.00250 0.57180 0.29900
C 	C 	0.16440 0.60910 0.59120 0.37000
C 	C 	0.19660 0.69680 0.66160 -0.07500
C 	C 	0.17910 0.80150 0.70050 -0.07800
C 	C 	0.12170 0.87870 0.68590 0.36400
C 	C 	0.27390 0.75420 0.76590 0.30100
C 	C 	0.33640 0.75580 0.82790 -0.82300
H 	H 	0.36080 0.82360 0.81440 0.24400
H 	H 	0.33510 0.78500 0.87580 0.25600
H 	H 	0.35370 0.65970 0.83340 0.24600
Eu	Eu	0.95838 0.19428 0.50570 1.93600
Zn	Zn	0.78778 0.99019 0.66376 1.20500
O 	O 	0.95280 0.93420 0.50384 -0.60800
O 	O 	0.95903 0.69720 0.51760 -0.48400
O 	O 	0.88445 0.14880 0.54210 -0.55700
O 	O 	0.83532 0.13530 0.61770 -0.44500
O 	O 	0.69546 0.01790 0.57317 -0.43500
O 	O 	0.60761 0.12280 0.55370 -0.51000
O 	O 	0.57637 0.36640 0.62120 -0.50500
O 	O 	0.62039 0.45760 0.73880 -0.42900
N 	N 	0.85800 0.68140 0.55150 -0.24800
H 	H 	0.86730 0.59520 0.53880 0.14500
N 	N 	0.81543 0.84890 0.59560 -0.27200
N 	N 	0.75676 0.16770 0.70360 -0.28000
N 	N 	0.72832 0.33610 0.76690 -0.28800
C 	C 	0.93400 0.81520 0.51960 0.36600
C 	C 	0.88240 0.81410 0.54370 -0.02200
C 	C 	0.85490 0.91660 0.57020 -0.10100
C 	C 	0.85900 0.07800 0.57750 0.41900
C 	C 	0.81760 0.70730 0.58200 0.34500
C 	C 	0.78230 0.58990 0.59890 -0.90000
H 	H 	0.79940 0.57090 0.65350 0.28100
H 	H 	0.74090 0.62050 0.58240 0.28300
H 	H 	0.78390 0.50250 0.57180 0.29900
C 	C 	0.66440 0.10910 0.59120 0.37000
C 	C 	0.69660 0.19680 0.66160 -0.07500
C 	C 	0.67910 0.30150 0.70050 -0.07800
C 	C 	0.62170 0.37870 0.68590 0.36400
C 	C 	0.77390 0.25420 0.76590 0.30200
C 	C 	0.83640 0.25580 0.82790 -0.82700
H 	H 	0.86080 0.32360 0.81440 0.24600
H 	H 	0.83510 0.28500 0.87580 0.25900
H 	H 	0.85370 0.15970 0.83340 0.24800
Eu	Eu	0.54162 0.69428 0.99430 1.93400
Zn	Zn	0.71222 0.49019 0.83624 1.20600
O 	O 	0.54720 0.43420 0.99616 -0.60800
O 	O 	0.54097 0.19720 0.98240 -0.48400
O 	O 	0.61555 0.64880 0.95790 -0.55700
O 	O 	0.66468 0.63530 0.88230 -0.44600
O 	O 	0.80454 0.51790 0.92683 -0.43400
O 	O 	0.89239 0.62280 0.94630 -0.50700
O 	O 	0.92363 0.86640 0.87880 -0.50300
O 	O 	0.87961 0.95760 0.76120 -0.42800
N 	N 	0.64200 0.18140 0.94850 -0.24800
H 	H 	0.63270 0.09520 0.96120 0.14500
N 	N 	0.68457 0.34890 0.90440 -0.27200
N 	N 	0.74324 0.66770 0.79640 -0.27900
N 	N 	0.77168 0.83610 0.73310 -0.28700
C 	C 	0.56600 0.31520 0.98040 0.36600
C 	C 	0.61760 0.31410 0.95630 -0.02200
C 	C 	0.64510 0.41660 0.92980 -0.10000
C 	C 	0.64100 0.57800 0.92250 0.41900
C 	C 	0.68240 0.20730 0.91800 0.34600
C 	C 	0.71770 0.08990 0.90110 -0.90200
H 	H 	0.70060 0.07090 0.84650 0.28100
H 	H 	0.75910 0.12050 0.91760 0.28400
H 	H 	0.71610 0.00250 0.92820 0.30100
C 	C 	0.83560 0.60910 0.90880 0.36900
C 	C 	0.80340 0.69680 0.83840 -0.07400
C 	C 	0.82090 0.80150 0.79950 -0.07800
C 	C 	0.87830 0.87870 0.81410 0.36400
C 	C 	0.72610 0.75420 0.73410 0.30100
C 	C 	0.66360 0.75580 0.67210 -0.82400
H 	H 	0.63920 0.82360 0.68560 0.24400
H 	H 	0.66490 0.78500 0.62420 0.25700
H 	H 	0.64630 0.65970 0.66660 0.24600
Eu	Eu	0.04162 0.19428 0.99430 1.93300
Zn	Zn	0.21222 0.99019 0.83624 1.20500
O 	O 	0.04720 0.93420 0.99616 -0.60900
O 	O 	0.04097 0.69720 0.98240 -0.48500
O 	O 	0.11555 0.14880 0.95790 -0.55700
O 	O 	0.16468 0.13530 0.88230 -0.44600
O 	O 	0.30454 0.01790 0.92683 -0.43500
O 	O 	0.39239 0.12280 0.94630 -0.50900
O 	O 	0.42363 0.36640 0.87880 -0.50500
O 	O 	0.37961 0.45760 0.76120 -0.42900
N 	N 	0.14200 0.68140 0.94850 -0.24800
H 	H 	0.13270 0.59520 0.96120 0.14500
N 	N 	0.18457 0.84890 0.90440 -0.27200
N 	N 	0.24324 0.16770 0.79640 -0.27900
N 	N 	0.27168 0.33610 0.73310 -0.28700
C 	C 	0.06600 0.81520 0.98040 0.36500
C 	C 	0.11760 0.81410 0.95630 -0.02300
C 	C 	0.14510 0.91660 0.92980 -0.10200
C 	C 	0.14100 0.07800 0.92250 0.41900
C 	C 	0.18240 0.70730 0.91800 0.34400
C 	C 	0.21770 0.58990 0.90110 -0.89900
H 	H 	0.20060 0.57090 0.84650 0.28000
H 	H 	0.25910 0.62050 0.91760 0.28200
H 	H 	0.21610 0.50250 0.92820 0.29900
C 	C 	0.33560 0.10910 0.90880 0.37000
C 	C 	0.30340 0.19680 0.83840 -0.07500
C 	C 	0.32090 0.30150 0.79950 -0.07800
C 	C 	0.37830 0.37870 0.81410 0.36400
C 	C 	0.22610 0.25420 0.73410 0.30100
C 	C 	0.16360 0.25580 0.67210 -0.82400
H 	H 	0.13920 0.32360 0.68560 0.24500
H 	H 	0.16490 0.28500 0.62420 0.25700
H 	H 	0.14630 0.15970 0.66660 0.24600
