data_crystal

_cell_length_a 10.58410
_cell_length_b 10.58410
_cell_length_c 12.22460
_cell_angle_alpha 90.00000
_cell_angle_beta  90.00000
_cell_angle_gamma 112.85400

_symmetry_space_group_name_	'P 1'
_symmetry_space_group_name_H-M	'P 1'

loop_
_symmetry_equiv_pos_as_xyz
  x,y,z

loop_
_atom_site_label
_atom_site_type_symbol
_atom_site_fract_x
_atom_site_fract_y
_atom_site_fract_z
_atom_site_charge
Mn	Mn	0.50000 0.50000 -0.00000 1.21500
Mn	Mn	0.00000 0.00000 0.50000 1.18000
Ag	Ag	0.75429 0.24571 0.75789 0.46800
Ag	Ag	0.74571 0.25429 0.25789 0.45800
Ag	Ag	0.25429 0.74571 0.74211 0.46700
Ag	Ag	0.24571 0.75429 0.24211 0.45800
H 	H 	0.73320 0.69920 0.84420 -0.05500
H 	H 	0.91100 0.91540 0.83730 0.13400
H 	H 	0.76680 0.80080 0.34420 -0.01200
H 	H 	0.58900 0.58460 0.33730 0.05600
H 	H 	0.80080 0.76680 0.65580 -0.00900
H 	H 	0.58460 0.58900 0.66270 0.05800
H 	H 	0.69920 0.73320 0.15580 -0.04600
H 	H 	0.91540 0.91100 0.16270 0.14100
H 	H 	0.26680 0.30080 0.15580 -0.00200
H 	H 	0.08900 0.08460 0.16270 -0.03900
H 	H 	0.23320 0.19920 0.65580 -0.04100
H 	H 	0.41100 0.41540 0.66270 0.05700
H 	H 	0.19920 0.23320 0.34420 -0.04300
H 	H 	0.41540 0.41100 0.33730 0.05500
H 	H 	0.30080 0.26680 0.84420 -0.01000
H 	H 	0.08460 0.08900 0.83730 -0.04600
C 	C 	0.76290 0.74870 0.91050 0.17900
C 	C 	0.87690 0.87470 0.90600 -0.23200
C 	C 	0.73710 0.75130 0.41050 0.06100
C 	C 	0.62310 0.62530 0.40600 -0.13800
C 	C 	0.75130 0.73710 0.58950 0.06100
C 	C 	0.62530 0.62310 0.59400 -0.13800
C 	C 	0.74870 0.76290 0.08950 0.12600
C 	C 	0.87470 0.87690 0.09400 -0.27900
C 	C 	0.23710 0.25130 0.08950 -0.04800
C 	C 	0.12310 0.12530 0.09400 0.01300
C 	C 	0.26290 0.24870 0.58950 0.05100
C 	C 	0.37690 0.37470 0.59400 -0.15200
C 	C 	0.24870 0.26290 0.41050 0.05100
C 	C 	0.37470 0.37690 0.40600 -0.15200
C 	C 	0.25130 0.23710 0.91050 0.00300
C 	C 	0.12530 0.12310 0.90600 0.05500
C 	C 	0.64900 0.35100 0.83110 -0.11800
C 	C 	0.85860 0.14140 0.68310 -0.12800
C 	C 	0.85100 0.14900 0.33110 -0.13300
C 	C 	0.64140 0.35860 0.18310 -0.14300
C 	C 	0.14900 0.85100 0.66890 -0.12400
C 	C 	0.35860 0.64140 0.81690 -0.12300
C 	C 	0.35100 0.64900 0.16890 -0.14000
C 	C 	0.14140 0.85860 0.31690 -0.13600
C 	C 	0.93820 0.93820 -0.00000 0.26200
C 	C 	0.56180 0.56180 0.50000 0.03200
C 	C 	0.06180 0.06180 -0.00000 -0.29400
C 	C 	0.43820 0.43820 0.50000 0.03700
N 	N 	0.59280 0.40720 0.87650 -0.21900
N 	N 	0.91420 0.08580 0.63260 -0.22600
N 	N 	0.90720 0.09280 0.37650 -0.22400
N 	N 	0.58580 0.41420 0.13260 -0.23800
N 	N 	0.09280 0.90720 0.62350 -0.22500
N 	N 	0.41420 0.58580 0.86740 -0.22000
N 	N 	0.40720 0.59280 0.12350 -0.23700
N 	N 	0.08580 0.91420 0.36740 -0.22500
N 	N 	0.69560 0.69560 -0.00000 -0.31700
N 	N 	0.80440 0.80440 0.50000 -0.23400
N 	N 	0.30440 0.30440 -0.00000 -0.25700
N 	N 	0.19560 0.19560 0.50000 -0.27500
