data_crystal

_cell_length_a 47.40000
_cell_length_b 9.61100
_cell_length_c 17.80510
_cell_angle_alpha 90.00000
_cell_angle_beta  92.21000
_cell_angle_gamma 90.00000

_symmetry_space_group_name_	'P 1'
_symmetry_space_group_name_H-M	'P 1'

loop_
_symmetry_equiv_pos_as_xyz
  x,y,z

loop_
_atom_site_label
_atom_site_type_symbol
_atom_site_fract_x
_atom_site_fract_y
_atom_site_fract_z
_atom_site_charge
Co	Co	0.67717 0.67715 0.49146 1.15500
N 	N 	0.63574 0.67940 0.52580 -0.28600
N 	N 	0.56086 0.66190 0.64430 -0.20600
O 	O 	0.71883 0.59660 0.47340 -0.50100
O 	O 	0.68905 0.47270 0.53640 -0.38000
O 	O 	0.68634 0.78560 0.58720 -0.43900
O 	O 	0.73356 0.78820 0.60290 -0.42800
O 	O 	0.67854 0.16210 0.91840 -0.43400
O 	O 	0.72392 0.10820 0.94520 -0.41800
O 	O 	0.58730 0.72600 0.74640 -0.10400
O 	O 	0.53480 0.60700 0.53790 -0.11700
C 	C 	0.71248 0.48360 0.50600 0.31600
C 	C 	0.73211 0.36360 0.50240 -0.06900
C 	C 	0.72847 0.25200 0.55020 -0.01800
H 	H 	0.71400 0.25280 0.58410 0.05500
C 	C 	0.75332 0.36190 0.45300 -0.01500
H 	H 	0.75570 0.43720 0.42100 0.05100
C 	C 	0.70188 0.10650 0.90610 0.37700
C 	C 	0.70912 0.81330 0.62150 0.38700
C 	C 	0.70751 0.88810 0.69600 -0.08300
C 	C 	0.68235 0.94750 0.71570 -0.00900
H 	H 	0.66650 0.94010 0.68340 0.05300
C 	C 	0.68035 0.02020 0.78520 -0.02200
H 	H 	0.66350 0.06250 0.79770 0.06000
C 	C 	0.70315 0.02650 0.83250 -0.06200
C 	C 	0.72814 0.97020 0.81130 -0.02700
H 	H 	0.74420 0.97850 0.84280 0.05800
C 	C 	0.72976 0.90060 0.74320 -0.00400
H 	H 	0.74690 0.86170 0.73030 0.04900
C 	C 	0.62174 0.56380 0.53390 0.17000
H 	H 	0.62890 0.48220 0.51410 -0.03800
C 	C 	0.59590 0.55750 0.57190 -0.28800
H 	H 	0.58610 0.47400 0.57520 0.15000
C 	C 	0.58600 0.67140 0.60240 0.31400
C 	C 	0.59980 0.78940 0.59280 -0.31700
H 	H 	0.59270 0.87230 0.61110 0.16100
C 	C 	0.62433 0.78960 0.55640 0.20700
H 	H 	0.63380 0.87380 0.55280 -0.03800
C 	C 	0.56430 0.70200 0.72000 0.01400
C 	C 	0.53920 0.69500 0.76300 0.03000
C 	C 	0.51250 0.65750 0.73020 0.01900
C 	C 	0.51010 0.61600 0.64600 -0.06200
C 	C 	0.53610 0.61800 0.60400 0.03300
C 	C 	0.54050 0.71100 0.83830 -0.01500
H 	H 	0.55810 0.72380 0.86200 0.05300
C 	C 	0.48440 0.59700 0.61470 0.02300
H 	H 	0.48230 0.58540 0.56290 0.04400
O 	O 	0.58720 0.61100 0.75130 -0.16500
O 	O 	0.53570 0.72100 0.54200 -0.15800
C 	C 	0.56360 0.62100 0.72300 0.20100
C 	C 	0.53800 0.61700 0.76700 -0.07200
C 	C 	0.50900 0.69000 0.65200 0.03200
C 	C 	0.53660 0.69300 0.60900 0.19100
C 	C 	0.53970 0.59300 0.84200 -0.02100
H 	H 	0.55720 0.57380 0.86550 0.05700
C 	C 	0.48260 0.71100 0.61900 -0.07700
H 	H 	0.48050 0.72490 0.56700 0.06700
Co	Co	0.17717 0.17715 0.49146 1.15600
N 	N 	0.13574 0.17940 0.52580 -0.28500
N 	N 	0.06086 0.16190 0.64430 -0.20500
O 	O 	0.21883 0.09660 0.47340 -0.50000
O 	O 	0.18905 0.97270 0.53640 -0.38100
O 	O 	0.18634 0.28560 0.58720 -0.43900
O 	O 	0.23356 0.28820 0.60290 -0.42800
O 	O 	0.17854 0.66210 0.91840 -0.43400
O 	O 	0.22392 0.60820 0.94520 -0.41900
O 	O 	0.08730 0.22600 0.74640 -0.10400
O 	O 	0.03480 0.10700 0.53790 -0.11700
C 	C 	0.21248 0.98360 0.50600 0.31500
C 	C 	0.23211 0.86360 0.50240 -0.06900
C 	C 	0.22847 0.75200 0.55020 -0.01800
H 	H 	0.21400 0.75280 0.58410 0.05500
C 	C 	0.25332 0.86190 0.45300 -0.01600
H 	H 	0.25570 0.93720 0.42100 0.05100
C 	C 	0.20188 0.60650 0.90610 0.37700
C 	C 	0.20912 0.31330 0.62150 0.38700
C 	C 	0.20751 0.38810 0.69600 -0.08300
C 	C 	0.18235 0.44750 0.71570 -0.00800
H 	H 	0.16650 0.44010 0.68340 0.05300
C 	C 	0.18035 0.52020 0.78520 -0.02300
H 	H 	0.16350 0.56250 0.79770 0.06000
C 	C 	0.20315 0.52650 0.83250 -0.06300
C 	C 	0.22814 0.47020 0.81130 -0.02400
H 	H 	0.24420 0.47850 0.84280 0.05800
C 	C 	0.22976 0.40060 0.74320 -0.00500
H 	H 	0.24690 0.36170 0.73030 0.05000
C 	C 	0.12174 0.06380 0.53390 0.17000
H 	H 	0.12890 0.98220 0.51410 -0.03800
C 	C 	0.09590 0.05750 0.57190 -0.28700
H 	H 	0.08610 0.97400 0.57520 0.15000
C 	C 	0.08600 0.17140 0.60240 0.31400
C 	C 	0.09980 0.28940 0.59280 -0.31700
H 	H 	0.09270 0.37230 0.61110 0.16100
C 	C 	0.12433 0.28960 0.55640 0.20700
H 	H 	0.13380 0.37380 0.55280 -0.03800
C 	C 	0.06430 0.20200 0.72000 0.01400
C 	C 	0.03920 0.19500 0.76300 0.03000
C 	C 	0.01250 0.15750 0.73020 0.01900
C 	C 	0.01010 0.11600 0.64600 -0.06200
C 	C 	0.03610 0.11800 0.60400 0.03300
C 	C 	0.04050 0.21100 0.83830 -0.01500
H 	H 	0.05810 0.22380 0.86200 0.05300
C 	C 	0.98440 0.09700 0.61470 0.02200
H 	H 	0.98230 0.08540 0.56290 0.04400
O 	O 	0.08720 0.11100 0.75130 -0.16400
O 	O 	0.03570 0.22100 0.54200 -0.15800
C 	C 	0.06360 0.12100 0.72300 0.20000
C 	C 	0.03800 0.11700 0.76700 -0.07200
C 	C 	0.00900 0.19000 0.65200 0.03200
C 	C 	0.03660 0.19300 0.60900 0.19100
C 	C 	0.03970 0.09300 0.84200 -0.02100
H 	H 	0.05720 0.07380 0.86550 0.05700
C 	C 	0.98260 0.21100 0.61900 -0.07600
H 	H 	0.98050 0.22490 0.56700 0.06700
Co	Co	0.32283 0.67715 0.00854 1.14000
N 	N 	0.36426 0.67940 0.97420 -0.27700
N 	N 	0.43914 0.66190 0.85570 -0.20400
O 	O 	0.28117 0.59660 0.02660 -0.52400
O 	O 	0.31095 0.47270 0.96360 -0.37300
O 	O 	0.31366 0.78560 0.91280 -0.42800
O 	O 	0.26644 0.78820 0.89710 -0.41700
O 	O 	0.32146 0.16210 0.58160 -0.44500
O 	O 	0.27608 0.10820 0.55480 -0.43300
O 	O 	0.41270 0.72600 0.75360 -0.10700
O 	O 	0.46520 0.60700 0.96210 -0.10800
C 	C 	0.28752 0.48360 0.99400 0.32200
C 	C 	0.26789 0.36360 0.99760 0.02200
C 	C 	0.27153 0.25200 0.94980 -0.10000
H 	H 	0.28600 0.25280 0.91590 0.08500
C 	C 	0.24668 0.36190 0.04700 -0.13000
H 	H 	0.24430 0.43720 0.07900 0.08500
C 	C 	0.29812 0.10650 0.59390 0.38000
C 	C 	0.29088 0.81330 0.87850 0.38400
C 	C 	0.29249 0.88810 0.80400 -0.07900
C 	C 	0.31765 0.94750 0.78430 -0.01500
H 	H 	0.33350 0.94010 0.81660 0.05500
C 	C 	0.31965 0.02020 0.71480 -0.01700
H 	H 	0.33650 0.06250 0.70230 0.05500
C 	C 	0.29685 0.02650 0.66750 -0.07000
C 	C 	0.27186 0.97020 0.68870 -0.02200
H 	H 	0.25580 0.97850 0.65720 0.05600
C 	C 	0.27024 0.90060 0.75680 -0.00900
H 	H 	0.25310 0.86170 0.76970 0.05100
C 	C 	0.37826 0.56380 0.96610 0.17200
H 	H 	0.37110 0.48220 0.98590 -0.03100
C 	C 	0.40410 0.55750 0.92810 -0.28500
H 	H 	0.41390 0.47400 0.92480 0.15400
C 	C 	0.41400 0.67140 0.89760 0.31500
C 	C 	0.40020 0.78940 0.90720 -0.31500
H 	H 	0.40730 0.87230 0.88890 0.16200
C 	C 	0.37567 0.78960 0.94360 0.20900
H 	H 	0.36620 0.87380 0.94720 -0.03300
C 	C 	0.43570 0.70200 0.78000 0.01500
C 	C 	0.46080 0.69500 0.73700 0.03000
C 	C 	0.48750 0.65750 0.76980 0.01800
C 	C 	0.48990 0.61600 0.85400 -0.06000
C 	C 	0.46390 0.61800 0.89600 0.03300
C 	C 	0.45950 0.71100 0.66170 -0.01700
H 	H 	0.44190 0.72380 0.63800 0.04900
C 	C 	0.51560 0.59700 0.88530 0.02300
H 	H 	0.51770 0.58540 0.93710 0.05200
O 	O 	0.41280 0.61100 0.74870 -0.16700
O 	O 	0.46430 0.72100 0.95800 -0.15200
C 	C 	0.43640 0.62100 0.77700 0.20000
C 	C 	0.46200 0.61700 0.73300 -0.07200
C 	C 	0.49100 0.69000 0.84800 0.03400
C 	C 	0.46340 0.69300 0.89100 0.18900
C 	C 	0.46030 0.59300 0.65800 -0.02100
H 	H 	0.44280 0.57380 0.63450 0.05100
C 	C 	0.51740 0.71100 0.88100 -0.07900
H 	H 	0.51950 0.72490 0.93300 0.07400
Co	Co	0.82283 0.17715 0.00854 1.14000
N 	N 	0.86426 0.17940 0.97420 -0.27700
N 	N 	0.93914 0.16190 0.85570 -0.20400
O 	O 	0.78117 0.09660 0.02660 -0.52400
O 	O 	0.81095 0.97270 0.96360 -0.37300
O 	O 	0.81366 0.28560 0.91280 -0.42700
O 	O 	0.76644 0.28820 0.89710 -0.41700
O 	O 	0.82146 0.66210 0.58160 -0.44600
O 	O 	0.77608 0.60820 0.55480 -0.43400
O 	O 	0.91270 0.22600 0.75360 -0.10700
O 	O 	0.96520 0.10700 0.96210 -0.10800
C 	C 	0.78752 0.98360 0.99400 0.32200
C 	C 	0.76789 0.86360 0.99760 0.02000
C 	C 	0.77153 0.75200 0.94980 -0.09800
H 	H 	0.78600 0.75280 0.91590 0.08400
C 	C 	0.74668 0.86190 0.04700 -0.12800
H 	H 	0.74430 0.93720 0.07900 0.08500
C 	C 	0.79812 0.60650 0.59390 0.38000
C 	C 	0.79088 0.31330 0.87850 0.38400
C 	C 	0.79249 0.38810 0.80400 -0.07900
C 	C 	0.81765 0.44750 0.78430 -0.01300
H 	H 	0.83350 0.44010 0.81660 0.05500
C 	C 	0.81965 0.52020 0.71480 -0.01800
H 	H 	0.83650 0.56250 0.70230 0.05500
C 	C 	0.79685 0.52650 0.66750 -0.07100
C 	C 	0.77186 0.47020 0.68870 -0.02000
H 	H 	0.75580 0.47850 0.65720 0.05600
C 	C 	0.77024 0.40060 0.75680 -0.00900
H 	H 	0.75310 0.36170 0.76970 0.05200
C 	C 	0.87826 0.06380 0.96610 0.17300
H 	H 	0.87110 0.98220 0.98590 -0.03200
C 	C 	0.90410 0.05750 0.92810 -0.28400
H 	H 	0.91390 0.97400 0.92480 0.15200
C 	C 	0.91400 0.17140 0.89760 0.31500
C 	C 	0.90020 0.28940 0.90720 -0.31500
H 	H 	0.90730 0.37230 0.88890 0.16300
C 	C 	0.87567 0.28960 0.94360 0.20900
H 	H 	0.86620 0.37380 0.94720 -0.03300
C 	C 	0.93570 0.20200 0.78000 0.01600
C 	C 	0.96080 0.19500 0.73700 0.03000
C 	C 	0.98750 0.15750 0.76980 0.01800
C 	C 	0.98990 0.11600 0.85400 -0.06100
C 	C 	0.96390 0.11800 0.89600 0.03200
C 	C 	0.95950 0.21100 0.66170 -0.01700
H 	H 	0.94190 0.22380 0.63800 0.04900
C 	C 	0.01560 0.09700 0.88530 0.02300
H 	H 	0.01770 0.08540 0.93710 0.05200
O 	O 	0.91280 0.11100 0.74870 -0.16700
O 	O 	0.96430 0.22100 0.95800 -0.15100
C 	C 	0.93640 0.12100 0.77700 0.19900
C 	C 	0.96200 0.11700 0.73300 -0.07300
C 	C 	0.99100 0.19000 0.84800 0.03500
C 	C 	0.96340 0.19300 0.89100 0.18900
C 	C 	0.96030 0.09300 0.65800 -0.02100
H 	H 	0.94280 0.07380 0.63450 0.05100
C 	C 	0.01740 0.21100 0.88100 -0.07900
H 	H 	0.01950 0.22490 0.93300 0.07400
Co	Co	0.32283 0.32285 0.50854 1.15600
N 	N 	0.36426 0.32060 0.47420 -0.28400
N 	N 	0.43914 0.33810 0.35570 -0.20500
O 	O 	0.28117 0.40340 0.52660 -0.50100
O 	O 	0.31095 0.52730 0.46360 -0.38100
O 	O 	0.31366 0.21440 0.41280 -0.43900
O 	O 	0.26644 0.21180 0.39710 -0.42800
O 	O 	0.32146 0.83790 0.08160 -0.45600
O 	O 	0.27608 0.89180 0.05480 -0.44400
O 	O 	0.41270 0.27400 0.25360 -0.11000
O 	O 	0.46520 0.39300 0.46210 -0.11700
C 	C 	0.28752 0.51640 0.49400 0.31600
C 	C 	0.26789 0.63640 0.49760 -0.07000
C 	C 	0.27153 0.74800 0.44980 -0.01700
H 	H 	0.28600 0.74720 0.41590 0.05400
C 	C 	0.24668 0.63810 0.54700 -0.01400
H 	H 	0.24430 0.56280 0.57900 0.05100
C 	C 	0.29812 0.89350 0.09390 0.38200
C 	C 	0.29088 0.18670 0.37850 0.38500
C 	C 	0.29249 0.11190 0.30400 -0.08000
C 	C 	0.31765 0.05250 0.28430 -0.01400
H 	H 	0.33350 0.05990 0.31660 0.05400
C 	C 	0.31965 0.97980 0.21480 -0.01800
H 	H 	0.33650 0.93750 0.20230 0.05200
C 	C 	0.29685 0.97350 0.16750 -0.07600
C 	C 	0.27186 0.02980 0.18870 -0.02000
H 	H 	0.25580 0.02150 0.15720 0.05400
C 	C 	0.27024 0.09940 0.25680 -0.01100
H 	H 	0.25310 0.13830 0.26970 0.05100
C 	C 	0.37826 0.43620 0.46610 0.16900
H 	H 	0.37110 0.51780 0.48590 -0.03800
C 	C 	0.40410 0.44250 0.42810 -0.28700
H 	H 	0.41390 0.52600 0.42480 0.14900
C 	C 	0.41400 0.32860 0.39760 0.31300
C 	C 	0.40020 0.21060 0.40720 -0.31600
H 	H 	0.40730 0.12770 0.38890 0.15900
C 	C 	0.37567 0.21040 0.44360 0.20600
H 	H 	0.36620 0.12620 0.44720 -0.03800
C 	C 	0.43570 0.29800 0.28000 0.01700
C 	C 	0.46080 0.30500 0.23700 0.03000
C 	C 	0.48750 0.34250 0.26980 0.01700
C 	C 	0.48990 0.38400 0.35400 -0.06200
C 	C 	0.46390 0.38200 0.39600 0.03200
C 	C 	0.45950 0.28900 0.16170 -0.01900
H 	H 	0.44190 0.27620 0.13800 0.04500
C 	C 	0.51560 0.40300 0.38530 0.02200
H 	H 	0.51770 0.41460 0.43710 0.04400
O 	O 	0.41280 0.38900 0.24870 -0.16900
O 	O 	0.46430 0.27900 0.45800 -0.15800
C 	C 	0.43640 0.37900 0.27700 0.19700
C 	C 	0.46200 0.38300 0.23300 -0.07400
C 	C 	0.49100 0.31000 0.34800 0.03200
C 	C 	0.46340 0.30700 0.39100 0.19100
C 	C 	0.46030 0.40700 0.15800 -0.02100
H 	H 	0.44280 0.42620 0.13450 0.04500
C 	C 	0.51740 0.28900 0.38100 -0.07700
H 	H 	0.51950 0.27510 0.43300 0.06700
Co	Co	0.82283 0.82285 0.50854 1.15600
N 	N 	0.86426 0.82060 0.47420 -0.28400
N 	N 	0.93914 0.83810 0.35570 -0.20500
O 	O 	0.78117 0.90340 0.52660 -0.50100
O 	O 	0.81095 0.02730 0.46360 -0.38100
O 	O 	0.81366 0.71440 0.41280 -0.43900
O 	O 	0.76644 0.71180 0.39710 -0.42800
O 	O 	0.82146 0.33790 0.08160 -0.45600
O 	O 	0.77608 0.39180 0.05480 -0.44400
O 	O 	0.91270 0.77400 0.25360 -0.11000
O 	O 	0.96520 0.89300 0.46210 -0.11700
C 	C 	0.78752 0.01640 0.49400 0.31700
C 	C 	0.76789 0.13640 0.49760 -0.07000
C 	C 	0.77153 0.24800 0.44980 -0.01700
H 	H 	0.78600 0.24720 0.41590 0.05400
C 	C 	0.74668 0.13810 0.54700 -0.01400
H 	H 	0.74430 0.06280 0.57900 0.05100
C 	C 	0.79812 0.39350 0.09390 0.38200
C 	C 	0.79088 0.68670 0.37850 0.38500
C 	C 	0.79249 0.61190 0.30400 -0.08000
C 	C 	0.81765 0.55250 0.28430 -0.01500
H 	H 	0.83350 0.55990 0.31660 0.05400
C 	C 	0.81965 0.47980 0.21480 -0.01800
H 	H 	0.83650 0.43750 0.20230 0.05200
C 	C 	0.79685 0.47350 0.16750 -0.07600
C 	C 	0.77186 0.52980 0.18870 -0.02000
H 	H 	0.75580 0.52150 0.15720 0.05400
C 	C 	0.77024 0.59940 0.25680 -0.01100
H 	H 	0.75310 0.63830 0.26970 0.05100
C 	C 	0.87826 0.93620 0.46610 0.16800
H 	H 	0.87110 0.01780 0.48590 -0.03700
C 	C 	0.90410 0.94250 0.42810 -0.28700
H 	H 	0.91390 0.02600 0.42480 0.14900
C 	C 	0.91400 0.82860 0.39760 0.31300
C 	C 	0.90020 0.71060 0.40720 -0.31600
H 	H 	0.90730 0.62770 0.38890 0.15900
C 	C 	0.87567 0.71040 0.44360 0.20600
H 	H 	0.86620 0.62620 0.44720 -0.03800
C 	C 	0.93570 0.79800 0.28000 0.01700
C 	C 	0.96080 0.80500 0.23700 0.03000
C 	C 	0.98750 0.84250 0.26980 0.01700
C 	C 	0.98990 0.88400 0.35400 -0.06200
C 	C 	0.96390 0.88200 0.39600 0.03200
C 	C 	0.95950 0.78900 0.16170 -0.01800
H 	H 	0.94190 0.77620 0.13800 0.04500
C 	C 	0.01560 0.90300 0.38530 0.02100
H 	H 	0.01770 0.91460 0.43710 0.04400
O 	O 	0.91280 0.88900 0.24870 -0.17000
O 	O 	0.96430 0.77900 0.45800 -0.15800
C 	C 	0.93640 0.87900 0.27700 0.19800
C 	C 	0.96200 0.88300 0.23300 -0.07500
C 	C 	0.99100 0.81000 0.34800 0.03200
C 	C 	0.96340 0.80700 0.39100 0.19000
C 	C 	0.96030 0.90700 0.15800 -0.02100
H 	H 	0.94280 0.92620 0.13450 0.04600
C 	C 	0.01740 0.78900 0.38100 -0.07600
H 	H 	0.01950 0.77510 0.43300 0.06700
Co	Co	0.67717 0.32285 0.99146 1.17200
N 	N 	0.63574 0.32060 0.02580 -0.29200
N 	N 	0.56086 0.33810 0.14430 -0.20600
O 	O 	0.71883 0.40340 0.97340 -0.47200
O 	O 	0.68905 0.52730 0.03640 -0.38800
O 	O 	0.68634 0.21440 0.08720 -0.44900
O 	O 	0.73356 0.21180 0.10290 -0.43400
O 	O 	0.67854 0.83790 0.41840 -0.44600
O 	O 	0.72392 0.89180 0.44520 -0.43400
O 	O 	0.58730 0.27400 0.24640 -0.10800
O 	O 	0.53480 0.39300 0.03790 -0.12600
C 	C 	0.71248 0.51640 0.00600 0.30800
C 	C 	0.73211 0.63640 0.00240 -0.15900
C 	C 	0.72847 0.74800 0.05020 0.06300
H 	H 	0.71400 0.74720 0.08410 0.02500
C 	C 	0.75332 0.63810 0.95300 0.09800
H 	H 	0.75570 0.56280 0.92100 0.01800
C 	C 	0.70188 0.89350 0.40610 0.38000
C 	C 	0.70912 0.18670 0.12150 0.38600
C 	C 	0.70751 0.11190 0.19600 -0.08400
C 	C 	0.68235 0.05250 0.21570 -0.01000
H 	H 	0.66650 0.05990 0.18340 0.05200
C 	C 	0.68035 0.97980 0.28520 -0.02100
H 	H 	0.66350 0.93750 0.29770 0.05500
C 	C 	0.70315 0.97350 0.33250 -0.07000
C 	C 	0.72814 0.02980 0.31130 -0.02200
H 	H 	0.74420 0.02150 0.34280 0.05600
C 	C 	0.72976 0.09940 0.24320 -0.00700
H 	H 	0.74690 0.13830 0.23030 0.04900
C 	C 	0.62174 0.43620 0.03390 0.16700
H 	H 	0.62890 0.51780 0.01410 -0.04400
C 	C 	0.59590 0.44250 0.07190 -0.28900
H 	H 	0.58610 0.52600 0.07520 0.14600
C 	C 	0.58600 0.32860 0.10240 0.31200
C 	C 	0.59980 0.21060 0.09280 -0.31800
H 	H 	0.59270 0.12770 0.11110 0.15800
C 	C 	0.62433 0.21040 0.05640 0.20500
H 	H 	0.63380 0.12620 0.05280 -0.04300
C 	C 	0.56430 0.29800 0.22000 0.01600
C 	C 	0.53920 0.30500 0.26300 0.02900
C 	C 	0.51250 0.34250 0.23020 0.01800
C 	C 	0.51010 0.38400 0.14600 -0.06400
C 	C 	0.53610 0.38200 0.10400 0.03100
C 	C 	0.54050 0.28900 0.33830 -0.01700
H 	H 	0.55810 0.27620 0.36200 0.04900
C 	C 	0.48440 0.40300 0.11470 0.02200
H 	H 	0.48230 0.41460 0.06290 0.03600
O 	O 	0.58720 0.38900 0.25130 -0.16700
O 	O 	0.53570 0.27900 0.04200 -0.16500
C 	C 	0.56360 0.37900 0.22300 0.19800
C 	C 	0.53800 0.38300 0.26700 -0.07400
C 	C 	0.50900 0.31000 0.15200 0.03000
C 	C 	0.53660 0.30700 0.10900 0.19300
C 	C 	0.53970 0.40700 0.34200 -0.02100
H 	H 	0.55720 0.42620 0.36550 0.05100
C 	C 	0.48260 0.28900 0.11900 -0.07500
H 	H 	0.48050 0.27510 0.06700 0.06100
Co	Co	0.17717 0.82285 0.99146 1.17200
N 	N 	0.13574 0.82060 0.02580 -0.29200
N 	N 	0.06086 0.83810 0.14430 -0.20600
O 	O 	0.21883 0.90340 0.97340 -0.47400
O 	O 	0.18905 0.02730 0.03640 -0.38800
O 	O 	0.18634 0.71440 0.08720 -0.44900
O 	O 	0.23356 0.71180 0.10290 -0.43300
O 	O 	0.17854 0.33790 0.41840 -0.44600
O 	O 	0.22392 0.39180 0.44520 -0.43400
O 	O 	0.08730 0.77400 0.24640 -0.10800
O 	O 	0.03480 0.89300 0.03790 -0.12500
C 	C 	0.21248 0.01640 0.00600 0.31000
C 	C 	0.23211 0.13640 0.00240 -0.16100
C 	C 	0.22847 0.24800 0.05020 0.06500
H 	H 	0.21400 0.24720 0.08410 0.02400
C 	C 	0.25332 0.13810 0.95300 0.10000
H 	H 	0.25570 0.06280 0.92100 0.01700
C 	C 	0.20188 0.39350 0.40610 0.38000
C 	C 	0.20912 0.68670 0.12150 0.38600
C 	C 	0.20751 0.61190 0.19600 -0.08400
C 	C 	0.18235 0.55250 0.21570 -0.01100
H 	H 	0.16650 0.55990 0.18340 0.05200
C 	C 	0.18035 0.47980 0.28520 -0.02100
H 	H 	0.16350 0.43750 0.29770 0.05500
C 	C 	0.20315 0.47350 0.33250 -0.06900
C 	C 	0.22814 0.52980 0.31130 -0.02300
H 	H 	0.24420 0.52150 0.34280 0.05600
C 	C 	0.22976 0.59940 0.24320 -0.00700
H 	H 	0.24690 0.63830 0.23030 0.04900
C 	C 	0.12174 0.93620 0.03390 0.16700
H 	H 	0.12890 0.01780 0.01410 -0.04400
C 	C 	0.09590 0.94250 0.07190 -0.28900
H 	H 	0.08610 0.02600 0.07520 0.14600
C 	C 	0.08600 0.82860 0.10240 0.31200
C 	C 	0.09980 0.71060 0.09280 -0.31800
H 	H 	0.09270 0.62770 0.11110 0.15800
C 	C 	0.12433 0.71040 0.05640 0.20500
H 	H 	0.13380 0.62620 0.05280 -0.04300
C 	C 	0.06430 0.79800 0.22000 0.01600
C 	C 	0.03920 0.80500 0.26300 0.02900
C 	C 	0.01250 0.84250 0.23020 0.01800
C 	C 	0.01010 0.88400 0.14600 -0.06400
C 	C 	0.03610 0.88200 0.10400 0.03100
C 	C 	0.04050 0.78900 0.33830 -0.01800
H 	H 	0.05810 0.77620 0.36200 0.04900
C 	C 	0.98440 0.90300 0.11470 0.02200
H 	H 	0.98230 0.91460 0.06290 0.03600
O 	O 	0.08720 0.88900 0.25130 -0.16700
O 	O 	0.03570 0.77900 0.04200 -0.16500
C 	C 	0.06360 0.87900 0.22300 0.19800
C 	C 	0.03800 0.88300 0.26700 -0.07400
C 	C 	0.00900 0.81000 0.15200 0.03000
C 	C 	0.03660 0.80700 0.10900 0.19300
C 	C 	0.03970 0.90700 0.34200 -0.02100
H 	H 	0.05720 0.92620 0.36550 0.05100
C 	C 	0.98260 0.78900 0.11900 -0.07600
H 	H 	0.98050 0.77510 0.06700 0.06100
Co	Co	0.75000 0.75000 0.50000 1.20400
Co	Co	0.25000 0.75000 -0.00000 1.19000
Co	Co	0.25000 0.25000 0.50000 1.20400
Co	Co	0.75000 0.25000 -0.00000 1.19000
