data_crystal

_cell_length_a 13.60600
_cell_length_b 14.36800
_cell_length_c 23.15950
_cell_angle_alpha 91.71730
_cell_angle_beta  90.00000
_cell_angle_gamma 90.00000

_symmetry_space_group_name_	'P 1'
_symmetry_space_group_name_H-M	'P 1'

loop_
_symmetry_equiv_pos_as_xyz
  x,y,z

loop_
_atom_site_label
_atom_site_type_symbol
_atom_site_fract_x
_atom_site_fract_y
_atom_site_fract_z
_atom_site_charge
Mn	Mn	0.50157 0.03048 0.24553 1.30000
Mn	Mn	0.48594 0.84781 0.63345 1.27800
Mn	Mn	0.99843 0.53048 0.74553 1.30000
Mn	Mn	0.78133 0.47062 0.33801 1.27600
Mn	Mn	0.25283 0.73517 0.61042 1.30600
Mn	Mn	0.75283 0.76483 0.88958 1.30600
Mn	Mn	0.49843 0.96952 0.75447 1.30100
Mn	Mn	0.51406 0.15219 0.36655 1.27900
Mn	Mn	0.98594 0.65219 0.86655 1.27900
Mn	Mn	0.24717 0.23517 0.11042 1.30600
Mn	Mn	0.00157 0.46952 0.25447 1.30100
Mn	Mn	0.21867 0.52938 0.66199 1.27700
Mn	Mn	0.28133 0.02938 0.16199 1.27700
Mn	Mn	0.74717 0.26483 0.38958 1.30600
Mn	Mn	0.01406 0.34781 0.13345 1.27900
Mn	Mn	0.71867 0.97062 0.83801 1.27700
H 	H 	0.01740 0.32230 0.59120 0.17300
H 	H 	0.21670 0.73470 0.83890 0.12700
H 	H 	0.72890 0.85570 0.62600 0.11000
H 	H 	0.90630 0.53820 0.98590 0.11600
H 	H 	0.18720 0.32080 0.94070 -0.02600
H 	H 	0.27190 0.45660 0.95400 0.06600
H 	H 	0.07640 0.62570 0.47880 -0.02300
H 	H 	0.27110 0.14430 0.37400 0.11000
H 	H 	0.26500 0.45480 0.47030 0.12900
H 	H 	0.28330 0.23470 0.33890 0.12700
H 	H 	0.82150 0.49020 0.06610 0.04900
H 	H 	0.71670 0.76530 0.66110 0.12700
H 	H 	0.71050 0.44720 0.55410 0.13700
H 	H 	0.88650 0.06930 0.14420 0.00900
H 	H 	0.95090 0.58010 0.43010 0.17400
H 	H 	0.95310 0.00700 0.84530 0.13200
H 	H 	0.78330 0.26530 0.16110 0.12700
H 	H 	0.60710 0.02190 0.03670 0.02900
H 	H 	0.87980 0.88450 0.67690 0.03900
H 	H 	0.76560 0.50980 0.73130 0.15300
H 	H 	0.23440 0.49020 0.26870 0.15300
H 	H 	0.77770 0.60250 0.69800 0.15700
H 	H 	0.67850 0.99020 0.56610 0.05000
H 	H 	0.31280 0.82080 0.44070 -0.02900
H 	H 	0.61120 0.47520 0.67670 0.00600
H 	H 	0.46860 0.85340 0.42890 0.18100
H 	H 	0.78950 0.94720 0.05410 0.14300
H 	H 	0.81230 0.48120 0.96800 0.11100
H 	H 	0.57470 0.19620 0.62650 0.18800
H 	H 	0.84480 0.50240 0.59600 0.05200
H 	H 	0.53140 0.14660 0.57110 0.18100
H 	H 	0.15520 0.49760 0.40400 0.05200
H 	H 	0.03250 0.75640 0.57940 0.15600
H 	H 	0.37980 0.61550 0.82310 0.04000
H 	H 	0.53250 0.74360 0.92060 0.15600
H 	H 	0.36660 0.78000 0.89210 0.00200
H 	H 	0.73500 0.54520 0.52970 0.12900
H 	H 	0.03140 0.35340 0.92890 0.18100
H 	H 	0.89290 0.52190 0.53670 0.04100
H 	H 	0.96750 0.24360 0.42060 0.15600
H 	H 	0.63120 0.28540 0.20300 0.05000
H 	H 	0.04690 0.99300 0.15470 0.13200
H 	H 	0.38530 0.68080 0.91590 -0.00900
H 	H 	0.13340 0.28000 0.39210 0.00200
H 	H 	0.78450 0.62710 0.11470 -0.03400
H 	H 	0.36600 0.15190 0.92380 0.00700
H 	H 	0.22890 0.64430 0.87400 0.11000
H 	H 	0.60860 0.56160 0.76540 0.02900
H 	H 	0.95580 0.96910 0.78140 0.14800
H 	H 	0.68720 0.17920 0.55930 -0.02900
H 	H 	0.22230 0.39750 0.30200 0.15700
H 	H 	0.77190 0.04340 0.54600 0.06800
H 	H 	0.04420 0.03090 0.21860 0.14800
H 	H 	0.28950 0.55280 0.44590 0.13700
H 	H 	0.28450 0.87290 0.38530 -0.03500
H 	H 	0.72230 0.10250 0.19800 0.15600
H 	H 	0.73440 0.00980 0.23130 0.15100
H 	H 	0.86600 0.34810 0.57620 -0.00400
H 	H 	0.37950 0.34700 0.26920 0.04300
H 	H 	0.54910 0.08010 0.93010 0.16700
H 	H 	0.76500 0.04520 0.02970 0.13200
H 	H 	0.21550 0.37290 0.88530 -0.03400
H 	H 	0.61350 0.56930 0.64420 0.01100
H 	H 	0.38650 0.43070 0.35580 0.01100
H 	H 	0.46750 0.25640 0.07940 0.15600
H 	H 	0.39140 0.43840 0.23460 0.02900
H 	H 	0.04910 0.41990 0.56990 0.17400
H 	H 	0.34480 0.99760 0.90400 0.04000
H 	H 	0.31230 0.01880 0.53200 0.10900
H 	H 	0.11470 0.18080 0.41590 -0.00900
H 	H 	0.32150 0.00980 0.43390 0.05000
H 	H 	0.48260 0.82230 0.09120 0.16400
H 	H 	0.88880 0.97520 0.17670 0.00500
H 	H 	0.62050 0.65300 0.73080 0.04300
H 	H 	0.10860 0.93840 0.73460 0.03100
H 	H 	0.18770 0.51880 0.03200 0.11100
H 	H 	0.11350 0.93070 0.85580 0.00900
H 	H 	0.63400 0.84810 0.07620 0.00700
H 	H 	0.38880 0.52480 0.32330 0.00600
H 	H 	0.96860 0.64660 0.07110 0.18100
H 	H 	0.46140 0.31750 0.13620 0.16400
H 	H 	0.51740 0.17770 0.90880 0.16400
H 	H 	0.42360 0.12570 0.97880 -0.01200
H 	H 	0.12050 0.84700 0.76920 0.04500
H 	H 	0.36880 0.71460 0.79700 0.05000
H 	H 	0.23500 0.95480 0.97030 0.13200
H 	H 	0.89140 0.06160 0.26540 0.03100
H 	H 	0.11120 0.02480 0.82330 0.00500
H 	H 	0.09370 0.46180 0.01410 0.11600
H 	H 	0.21050 0.05280 0.94590 0.14300
H 	H 	0.13120 0.21460 0.29700 0.04900
H 	H 	0.87950 0.15300 0.23080 0.04500
H 	H 	0.98260 0.67770 0.40880 0.17300
H 	H 	0.54690 0.50700 0.34530 0.12700
H 	H 	0.88530 0.81920 0.58410 -0.00900
H 	H 	0.45310 0.49300 0.65470 0.12700
H 	H 	0.45090 0.91990 0.06990 0.16700
H 	H 	0.61470 0.31920 0.08410 -0.00900
H 	H 	0.13400 0.65190 0.42380 -0.00400
H 	H 	0.03860 0.81750 0.63620 0.16400
H 	H 	0.57640 0.87430 0.02120 -0.01200
H 	H 	0.45580 0.53090 0.71860 0.14500
H 	H 	0.10710 0.47810 0.46330 0.04100
H 	H 	0.42530 0.80380 0.37350 0.18800
H 	H 	0.62020 0.38450 0.17690 0.04000
H 	H 	0.39290 0.97810 0.96330 0.02900
H 	H 	0.86880 0.78540 0.70300 0.04900
H 	H 	0.26560 0.99020 0.76870 0.15100
H 	H 	0.96140 0.18250 0.36380 0.16400
H 	H 	0.68770 0.98120 0.46800 0.10900
H 	H 	0.17850 0.50980 0.93390 0.04900
H 	H 	0.12020 0.11550 0.32310 0.03900
H 	H 	0.86660 0.72000 0.60790 0.00200
H 	H 	0.27770 0.89750 0.80200 0.15600
H 	H 	0.92530 0.69620 0.12650 0.18700
H 	H 	0.92360 0.37430 0.52120 -0.02300
H 	H 	0.72810 0.54340 0.04600 0.06600
H 	H 	0.40630 0.96180 0.51410 0.11500
H 	H 	0.81280 0.67920 0.05930 -0.02600
H 	H 	0.53860 0.68250 0.86380 0.16400
H 	H 	0.07470 0.30380 0.87350 0.18700
H 	H 	0.71550 0.12710 0.61470 -0.03500
H 	H 	0.77110 0.35570 0.12600 0.11000
H 	H 	0.65520 0.00240 0.09600 0.04000
H 	H 	0.63340 0.22000 0.10790 0.00200
H 	H 	0.22810 0.95660 0.45400 0.06800
H 	H 	0.59370 0.03820 0.48590 0.11500
H 	H 	0.54420 0.46910 0.28140 0.14500
C 	C 	0.60120 0.27920 0.11610 0.08300
C 	C 	0.75040 0.07560 0.23220 -0.43400
C 	C 	0.97760 0.95690 0.82030 -0.46000
C 	C 	0.74230 0.82840 0.66300 -0.38100
C 	C 	0.24500 0.56060 0.53030 0.46800
C 	C 	0.49190 0.26270 0.11870 -0.47700
C 	C 	0.59050 0.89450 0.06060 0.11100
C 	C 	0.70490 0.12150 0.28520 0.51200
C 	C 	0.39880 0.72080 0.88390 0.08300
C 	C 	0.04150 0.67950 0.65090 0.50300
C 	C 	0.99890 0.38750 0.59120 -0.50500
C 	C 	0.25500 0.06060 0.03030 0.47000
C 	C 	0.25770 0.17160 0.33700 -0.38100
C 	C 	0.83500 0.53920 0.98600 -0.30900
C 	C 	0.33500 0.96080 0.51400 -0.30300
C 	C 	0.47760 0.54310 0.67970 -0.44900
C 	C 	0.99900 0.57550 0.34710 0.47600
C 	C 	0.13640 0.91280 0.76920 -0.01000
C 	C 	0.25660 0.01910 0.96940 -0.37700
C 	C 	0.32810 0.87500 0.41840 0.20000
C 	C 	0.06860 0.13200 0.16150 0.51800
C 	C 	0.35250 0.02230 0.94320 -0.02700
C 	C 	0.25040 0.42440 0.26780 -0.43700
C 	C 	0.50110 0.88750 0.09120 -0.47800
C 	C 	0.70070 0.04540 0.54680 -0.12700
C 	C 	0.64690 0.32260 0.17000 -0.04200
C 	C 	0.53660 0.06100 0.63990 0.51100
C 	C 	0.64750 0.97770 0.05680 -0.02700
C 	C 	0.79930 0.54540 0.04680 -0.12100
C 	C 	0.14750 0.52230 0.44320 -0.06300
C 	C 	0.75500 0.43940 0.46970 0.46800
C 	C 	0.49900 0.92450 0.15290 0.46600
C 	C 	0.56860 0.36800 0.33850 0.51500
C 	C 	0.20050 0.37970 0.04930 0.40200
C 	C 	0.68500 0.88220 0.70820 0.46800
C 	C 	0.40980 0.46030 0.32130 0.03800
C 	C 	0.93140 0.86800 0.83850 0.51800
C 	C 	0.09050 0.60550 0.43940 0.14600
C 	C 	0.10120 0.22080 0.38390 0.08100
C 	C 	0.75770 0.32840 0.16300 -0.38000
C 	C 	0.18500 0.61780 0.79180 0.46800
C 	C 	0.52240 0.45690 0.32030 -0.44900
C 	C 	0.49890 0.11250 0.90880 -0.47800
C 	C 	0.81500 0.38220 0.20820 0.46800
C 	C 	0.07560 0.36120 0.89660 -0.53100
C 	C 	0.24340 0.51910 0.46940 -0.36300
C 	C 	0.16500 0.46080 0.01400 -0.30900
C 	C 	0.24230 0.67160 0.83700 -0.38000
C 	C 	0.92440 0.63880 0.10340 -0.53100
C 	C 	0.36360 0.41280 0.26920 -0.00500
C 	C 	0.00810 0.76270 0.61870 -0.47600
C 	C 	0.90950 0.39450 0.56060 0.14600
C 	C 	0.54150 0.82050 0.84910 0.50200
C 	C 	0.20070 0.45460 0.95320 -0.12100
C 	C 	0.31500 0.11780 0.29180 0.46800
C 	C 	0.40950 0.10550 0.93940 0.11100
C 	C 	0.86360 0.08720 0.23080 -0.01000
C 	C 	0.29510 0.87850 0.71480 0.51200
C 	C 	0.74340 0.98090 0.03060 -0.37700
C 	C 	0.42440 0.86120 0.39660 -0.53500
C 	C 	0.24960 0.92440 0.76780 -0.43400
C 	C 	0.02240 0.04310 0.17970 -0.46000
C 	C 	0.00110 0.61250 0.40880 -0.50500
C 	C 	0.59020 0.53970 0.67870 0.03800
C 	C 	0.09020 0.96030 0.82130 0.04500
C 	C 	0.57560 0.13880 0.60340 -0.53500
C 	C 	0.29930 0.95460 0.45320 -0.12700
C 	C 	0.03660 0.43900 0.86010 0.50900
C 	C 	0.66500 0.03920 0.48600 -0.30300
C 	C 	0.99190 0.23730 0.38130 -0.47600
C 	C 	0.29950 0.87970 0.54930 0.40100
C 	C 	0.67190 0.12500 0.58160 0.20000
C 	C 	0.00100 0.42450 0.65290 0.47600
C 	C 	0.50100 0.07550 0.84710 0.46600
C 	C 	0.43140 0.63200 0.66150 0.51500
C 	C 	0.75660 0.48090 0.53060 -0.36300
C 	C 	0.89880 0.77920 0.61610 0.08100
C 	C 	0.96340 0.56100 0.13990 0.50900
C 	C 	0.46340 0.93900 0.36010 0.51100
C 	C 	0.14690 0.17740 0.33000 -0.04000
C 	C 	0.95850 0.32050 0.34910 0.50300
C 	C 	0.85310 0.82260 0.67000 -0.04000
C 	C 	0.85250 0.47770 0.55680 -0.06300
C 	C 	0.17190 0.37500 0.91840 0.19400
C 	C 	0.63640 0.58720 0.73080 -0.00500
C 	C 	0.74960 0.57560 0.73220 -0.43700
C 	C 	0.70050 0.12030 0.45070 0.40100
C 	C 	0.50810 0.73730 0.88130 -0.47700
C 	C 	0.79950 0.62030 0.95070 0.40200
C 	C 	0.90980 0.03970 0.17870 0.04500
C 	C 	0.74500 0.93940 0.96970 0.47000
C 	C 	0.20490 0.37850 0.21480 0.51300
C 	C 	0.45850 0.17950 0.15090 0.50200
C 	C 	0.82810 0.62500 0.08160 0.19400
C 	C 	0.79510 0.62150 0.78520 0.51300
C 	C 	0.35310 0.67740 0.83000 -0.04200
O 	O 	0.50970 0.98850 0.61210 -0.52100
O 	O 	0.38550 0.89830 0.70490 -0.60200
O 	O 	0.88550 0.60170 0.79510 -0.60200
O 	O 	0.91780 0.54540 0.32670 -0.58900
O 	O 	0.63530 0.16870 0.42610 -0.57400
O 	O 	0.51860 0.13550 0.17980 -0.47600
O 	O 	0.77030 0.49360 0.42930 -0.50900
O 	O 	0.24560 0.82500 0.68450 -0.50200
O 	O 	0.98270 0.79700 0.84590 -0.51700
O 	O 	0.86680 0.34180 0.35370 -0.60100
O 	O 	0.58220 0.04540 0.82670 -0.58500
O 	O 	0.16050 0.13110 0.15370 -0.61500
O 	O 	0.28950 0.35770 0.05390 -0.41100
O 	O 	0.96420 0.57350 0.19310 -0.49700
O 	O 	0.48270 0.70300 0.65410 -0.51500
O 	O 	0.48140 0.86450 0.82020 -0.47600
O 	O 	0.53580 0.07350 0.69310 -0.49700
O 	O 	0.92530 0.43020 0.68290 -0.44500
O 	O 	0.27300 0.06780 0.25400 -0.49600
O 	O 	0.57470 0.93020 0.18290 -0.44000
O 	O 	0.71050 0.64230 0.94610 -0.41100
O 	O 	0.72970 0.99360 0.92930 -0.51100
O 	O 	0.01730 0.20300 0.15410 -0.51700
O 	O 	0.61450 0.10170 0.29510 -0.60200
O 	O 	0.72700 0.93220 0.74600 -0.49600
O 	O 	0.41780 0.95460 0.17330 -0.58500
O 	O 	0.83950 0.86890 0.84630 -0.61500
O 	O 	0.74560 0.67500 0.81550 -0.50200
O 	O 	0.46420 0.92650 0.30690 -0.49700
O 	O 	0.13530 0.33130 0.07390 -0.57500
O 	O 	0.23960 0.14540 0.03600 -0.48900
O 	O 	0.40870 0.12500 0.29490 -0.59600
O 	O 	0.13320 0.65820 0.64630 -0.60100
O 	O 	0.75440 0.17500 0.31550 -0.50200
O 	O 	0.09130 0.62500 0.79490 -0.59500
O 	O 	0.25440 0.32500 0.18450 -0.50200
O 	O 	0.22970 0.50640 0.57070 -0.50900
O 	O 	0.78950 0.14230 0.44610 -0.41000
O 	O 	0.99030 0.48850 0.11210 -0.51900
O 	O 	0.98140 0.63550 0.67980 -0.47700
O 	O 	0.36680 0.15820 0.14630 -0.60100
O 	O 	0.08220 0.45460 0.67330 -0.58900
O 	O 	0.76040 0.85460 0.96400 -0.48900
O 	O 	0.07470 0.56980 0.31710 -0.44500
O 	O 	0.42530 0.06980 0.81710 -0.44000
O 	O 	0.27030 0.00640 0.07070 -0.51100
O 	O 	0.73960 0.35460 0.46400 -0.48700
O 	O 	0.11450 0.39830 0.20490 -0.60200
O 	O 	0.59130 0.87500 0.70510 -0.59600
O 	O 	0.86470 0.66870 0.92610 -0.57500
O 	O 	0.49030 0.01150 0.38790 -0.52100
O 	O 	0.66050 0.36890 0.34630 -0.61400
O 	O 	0.01860 0.36450 0.32020 -0.47700
O 	O 	0.63320 0.84180 0.85370 -0.60100
O 	O 	0.51730 0.29700 0.34590 -0.51500
O 	O 	0.00970 0.51150 0.88790 -0.51900
O 	O 	0.26040 0.64540 0.53600 -0.48700
O 	O 	0.36470 0.83130 0.57390 -0.57400
O 	O 	0.90870 0.37500 0.20510 -0.59500
O 	O 	0.03580 0.42650 0.80690 -0.49700
O 	O 	0.33950 0.63110 0.65370 -0.61400
O 	O 	0.77300 0.43220 0.24600 -0.49600
O 	O 	0.22700 0.56780 0.75400 -0.49600
O 	O 	0.21050 0.85770 0.55390 -0.41000
