data_crystal

_cell_length_a 12.88890
_cell_length_b 15.19630
_cell_length_c 22.67700
_cell_angle_alpha 78.40100
_cell_angle_beta  77.29700
_cell_angle_gamma 79.47200

_symmetry_space_group_name_	'P 1'
_symmetry_space_group_name_H-M	'P 1'

loop_
_symmetry_equiv_pos_as_xyz
  x,y,z

loop_
_atom_site_label
_atom_site_type_symbol
_atom_site_fract_x
_atom_site_fract_y
_atom_site_fract_z
_atom_site_charge
Cu	Cu	0.30371 0.89752 0.84499 0.81300
Cu	Cu	0.87768 0.15735 0.40065 0.81200
Cu	Cu	0.12232 0.84265 0.59935 0.81200
Cu	Cu	0.69629 0.10248 0.15501 0.81300
Cu	Cu	0.89733 0.71943 0.06189 0.79900
Cu	Cu	0.50000 0.50000 0.50000 0.84700
Cu	Cu	0.76303 0.66109 0.91370 0.77100
Cu	Cu	0.10267 0.28057 0.93811 0.79900
Cu	Cu	0.23697 0.33891 0.08630 0.77100
P 	P 	0.70870 0.21090 0.77088 0.55700
P 	P 	0.29130 0.78910 0.22912 0.55700
P 	P 	0.49590 0.56000 0.23555 0.55200
P 	P 	0.50410 0.44000 0.76445 0.55200
H 	H 	0.53730 0.69060 0.97310 -0.03800
H 	H 	0.66330 0.04260 0.28680 -0.03700
H 	H 	0.04180 0.15820 0.88150 -0.00200
H 	H 	0.14150 0.66530 0.55750 -0.03900
H 	H 	0.33150 0.98520 0.95230 -0.00400
H 	H 	0.97250 0.58260 0.84290 -0.02600
H 	H 	0.05560 0.00280 0.39910 0.00100
H 	H 	0.26220 0.54990 0.52370 -0.04300
H 	H 	0.85850 0.33470 0.44250 -0.03900
H 	H 	0.90960 0.54800 0.14180 -0.00500
H 	H 	0.05970 0.80420 0.73740 -0.03000
H 	H 	0.07520 0.62530 0.98420 -0.04200
H 	H 	0.26630 0.12610 0.97810 -0.04400
H 	H 	0.53050 0.85610 0.78610 -0.03900
H 	H 	0.73370 0.87390 0.02190 -0.04400
H 	H 	0.89540 0.98620 0.14070 -0.00300
H 	H 	0.62360 0.22700 0.05000 -0.03000
H 	H 	0.10460 0.01380 0.85930 -0.00300
H 	H 	0.92480 0.37470 0.01580 -0.04200
H 	H 	0.37640 0.77300 0.95000 -0.03000
H 	H 	0.20340 0.50150 0.99880 -0.04800
H 	H 	0.09770 0.87470 0.46820 0.00700
H 	H 	0.66850 0.01480 0.04770 -0.00400
H 	H 	0.02750 0.41740 0.15710 -0.02600
H 	H 	0.94030 0.19580 0.26260 -0.03000
H 	H 	0.12860 0.81020 0.81930 -0.03000
H 	H 	0.79660 0.49850 0.00120 -0.04800
H 	H 	0.73780 0.45010 0.47630 -0.04300
H 	H 	0.72070 0.06520 0.36950 -0.02400
H 	H 	0.46270 0.30940 0.02690 -0.03700
H 	H 	0.94440 0.99720 0.60090 0.00100
H 	H 	0.87140 0.18980 0.18070 -0.03000
H 	H 	0.09040 0.45200 0.85820 -0.00500
H 	H 	0.46950 0.14390 0.21390 -0.03900
H 	H 	0.36600 0.80140 0.55930 -0.02300
H 	H 	0.63400 0.19860 0.44070 -0.02300
H 	H 	0.50840 0.31220 0.47630 -0.03800
H 	H 	0.27930 0.93480 0.63050 -0.02400
H 	H 	0.68660 0.78110 0.80800 -0.03600
H 	H 	0.31340 0.21890 0.19200 -0.03600
H 	H 	0.33670 0.95740 0.71320 -0.03600
H 	H 	0.49160 0.68780 0.52370 -0.03800
H 	H 	0.90230 0.12530 0.53180 0.00700
H 	H 	0.95820 0.84180 0.11850 -0.00100
W 	W 	0.16285 0.97080 0.13504 0.99300
W 	W 	0.46482 0.67478 0.70667 0.99200
W 	W 	0.77069 0.98746 0.73752 0.96900
W 	W 	0.02563 0.89238 0.27596 0.99200
W 	W 	0.22931 0.01254 0.26248 0.96900
W 	W 	0.36561 0.82305 0.36276 1.02200
W 	W 	0.40996 0.51963 0.10548 0.98400
W 	W 	0.72125 0.55975 0.75358 0.99700
W 	W 	0.64937 0.51147 0.61653 0.98000
W 	W 	0.78279 0.26314 0.89953 0.99400
W 	W 	0.35063 0.48853 0.38347 0.98000
W 	W 	0.43892 0.39289 0.63425 0.96400
W 	W 	0.33323 0.60003 0.84996 0.97800
W 	W 	0.97437 0.10762 0.72404 0.99200
W 	W 	0.49164 0.09203 0.79177 0.99300
W 	W 	0.55817 0.13520 0.91717 1.01600
W 	W 	0.83715 0.02920 0.86496 0.99300
W 	W 	0.25788 0.55594 0.72574 0.97200
W 	W 	0.84023 0.29289 0.62222 1.00300
W 	W 	0.56108 0.60711 0.36575 0.96400
W 	W 	0.63389 0.64676 0.09045 0.94600
W 	W 	0.74212 0.44406 0.27426 0.97200
W 	W 	0.15977 0.70711 0.37778 1.00300
W 	W 	0.70543 0.69284 0.21373 0.99400
W 	W 	0.63439 0.17695 0.63724 1.02200
W 	W 	0.36611 0.35324 0.90955 0.94600
W 	W 	0.59004 0.48037 0.89452 0.98400
W 	W 	0.66677 0.39997 0.15004 0.97800
W 	W 	0.44183 0.86480 0.08283 1.01600
W 	W 	0.91405 0.34223 0.75903 1.00000
W 	W 	0.21721 0.73686 0.10047 0.99400
W 	W 	0.50836 0.90797 0.20823 0.99300
W 	W 	0.08595 0.65777 0.24097 1.00000
W 	W 	0.27875 0.44025 0.24642 0.99700
W 	W 	0.53518 0.32522 0.29333 0.99200
W 	W 	0.29457 0.30716 0.78627 0.99400
C 	C 	0.58080 0.31840 0.46870 0.02100
C 	C 	0.46940 0.17670 0.17450 0.03100
C 	C 	0.76780 0.89570 0.04700 0.01900
C 	C 	0.71460 0.39940 0.46900 0.01500
C 	C 	0.87980 0.16720 0.26930 0.00600
C 	C 	0.02870 0.46010 0.88800 0.01300
C 	C 	0.78580 0.32960 0.44970 -0.00700
C 	C 	0.23220 0.10430 0.95300 0.01900
C 	C 	0.84090 0.16080 0.21910 0.00800
C 	C 	0.34370 0.75070 0.55140 0.00100
C 	C 	0.46330 0.27390 0.06540 -0.00200
C 	C 	0.53060 0.82330 0.82550 0.03100
C 	C 	0.75480 0.08980 0.33070 -0.01600
C 	C 	0.02700 0.00200 0.44060 -0.01200
C 	C 	0.06200 0.92800 0.48230 -0.02400
C 	C 	0.97300 0.99800 0.55940 -0.01200
C 	C 	0.85760 0.49120 0.97090 0.00200
C 	C 	0.21420 0.67040 0.55030 -0.00700
C 	C 	0.53670 0.72610 0.93460 -0.00200
C 	C 	0.04490 0.46030 0.12240 -0.02100
C 	C 	0.72770 0.98090 0.06280 -0.02700
C 	C 	0.89980 0.87640 0.10290 -0.03300
C 	C 	0.28170 0.92280 0.71910 -0.01800
C 	C 	0.14240 0.50880 0.02910 0.00200
C 	C 	0.27230 0.01910 0.93720 -0.02700
C 	C 	0.65630 0.24930 0.44860 0.00100
C 	C 	0.06660 0.58520 0.02110 -0.01200
C 	C 	0.71830 0.07720 0.28090 -0.01800
C 	C 	0.43960 0.77480 0.92090 -0.01700
C 	C 	0.24520 0.91020 0.66930 -0.01600
C 	C 	0.85930 0.96330 0.11720 -0.02200
C 	C 	0.28540 0.60060 0.53100 0.01500
C 	C 	0.93800 0.07200 0.51770 -0.02400
C 	C 	0.12020 0.83280 0.73070 0.00600
C 	C 	0.37560 0.22150 0.16210 -0.00400
C 	C 	0.56040 0.22520 0.07910 -0.01700
C 	C 	0.15910 0.83920 0.78090 0.00800
C 	C 	0.62440 0.77850 0.83790 -0.00400
C 	C 	0.10020 0.12360 0.89710 -0.03300
C 	C 	0.97130 0.53990 0.11200 0.01300
C 	C 	0.14070 0.03670 0.88280 -0.02200
C 	C 	0.41920 0.68160 0.53130 0.02100
C 	C 	0.95510 0.53970 0.87760 -0.02100
C 	C 	0.93340 0.41480 0.97890 -0.01200
N 	N 	0.76110 0.11450 0.22370 -0.24000
N 	N 	0.77350 0.01500 0.09970 -0.23900
N 	N 	0.56070 0.17500 0.13620 -0.24400
N 	N 	0.62850 0.72930 0.89410 -0.25300
N 	N 	0.75870 0.25350 0.44030 -0.22100
N 	N 	0.86960 0.55250 0.92260 -0.25700
N 	N 	0.39130 0.60600 0.52250 -0.22300
N 	N 	0.83760 0.13570 0.32690 -0.24200
N 	N 	0.85180 0.84450 0.06600 -0.26100
N 	N 	0.16240 0.86430 0.67310 -0.24200
N 	N 	0.22650 0.98500 0.90030 -0.23900
N 	N 	0.13040 0.44750 0.07740 -0.25700
N 	N 	0.23890 0.88550 0.77630 -0.24000
N 	N 	0.37150 0.27070 0.10590 -0.25300
N 	N 	0.01750 0.39690 0.93570 -0.25900
N 	N 	0.04400 0.93070 0.54290 -0.24400
N 	N 	0.14820 0.15550 0.93400 -0.26100
N 	N 	0.43930 0.82500 0.86380 -0.24400
N 	N 	0.24130 0.74650 0.55970 -0.22100
N 	N 	0.95600 0.06930 0.45710 -0.24400
N 	N 	0.98250 0.60310 0.06430 -0.25900
N 	N 	0.60870 0.39400 0.47750 -0.22300
O 	O 	0.08220 0.81880 0.34390 -0.45500
O 	O 	0.61310 0.30720 0.21250 -0.45600
O 	O 	0.70140 0.24580 0.70400 -0.32400
O 	O 	0.68830 0.05300 0.89820 -0.45600
O 	O 	0.47030 0.85350 0.29220 -0.45900
O 	O 	0.55320 0.29250 0.62320 -0.44200
O 	O 	0.36770 0.32210 0.70200 -0.46300
O 	O 	0.60090 0.18760 0.80970 -0.32200
O 	O 	0.66980 0.34070 0.31010 -0.44000
O 	O 	0.75730 0.22600 0.59040 -0.44500
O 	O 	0.29620 0.61720 0.10730 -0.44500
O 	O 	0.62510 0.01370 0.77850 -0.45300
O 	O 	0.44400 0.23510 0.91060 -0.44200
O 	O 	0.77400 0.39940 0.19850 -0.44500
O 	O 	0.68230 0.55760 0.83870 -0.49000
O 	O 	0.70380 0.38280 0.89270 -0.44500
O 	O 	0.21050 0.88070 0.22600 -0.36500
O 	O 	0.90490 0.31010 0.84570 -0.46900
O 	O 	0.34570 0.49570 0.66120 -0.45000
O 	O 	0.61400 0.80300 0.19870 -0.44300
O 	O 	0.24550 0.72390 0.20220 -0.32100
O 	O 	0.24270 0.77400 0.40960 -0.44500
O 	O 	0.45940 0.57630 0.30160 -0.32100
O 	O 	0.27820 0.47320 0.32440 -0.46300
O 	O 	0.96810 0.04240 0.80550 -0.45000
O 	O 	0.75450 0.27610 0.79780 -0.32100
O 	O 	0.46090 0.52580 0.41830 -0.53800
O 	O 	0.51320 0.93010 0.12190 -0.45500
O 	O 	0.55840 0.63280 0.19590 -0.32000
O 	O 	0.59780 0.45420 0.79160 -0.31000
O 	O 	0.33020 0.65930 0.68990 -0.44000
O 	O 	0.64990 0.21680 0.92200 -0.45200
O 	O 	0.39910 0.81240 0.19030 -0.32200
O 	O 	0.40600 0.35930 0.26000 -0.45600
O 	O 	0.53160 0.43140 0.12590 -0.45000
O 	O 	0.63230 0.67790 0.29800 -0.46300
O 	O 	0.40220 0.54580 0.20840 -0.31000
O 	O 	0.91780 0.18120 0.65610 -0.45500
O 	O 	0.72660 0.07090 0.67040 -0.45300
O 	O 	0.12070 0.65410 0.31950 -0.46400
O 	O 	0.37490 0.98630 0.22150 -0.45300
O 	O 	0.91340 0.01070 0.70700 -0.45700
O 	O 	0.19260 0.05160 0.18120 -0.46200
O 	O 	0.44680 0.70750 0.37680 -0.44200
O 	O 	0.31170 0.94700 0.10180 -0.45600
O 	O 	0.65430 0.50430 0.33880 -0.45000
O 	O 	0.30950 0.47940 0.88550 -0.45400
O 	O 	0.44160 0.36720 0.80410 -0.32000
O 	O 	0.02790 0.78250 0.24860 -0.46500
O 	O 	0.46840 0.56860 0.87410 -0.45000
O 	O 	0.72180 0.52680 0.67560 -0.46300
O 	O 	0.18190 0.55010 0.23200 -0.45000
O 	O 	0.42220 0.53180 0.76270 -0.36100
O 	O 	0.97210 0.21750 0.75140 -0.46500
O 	O 	0.38600 0.19700 0.80130 -0.44300
O 	O 	0.15470 0.85770 0.11500 -0.45600
O 	O 	0.03190 0.95760 0.19450 -0.45000
O 	O 	0.29860 0.75420 0.29600 -0.32400
O 	O 	0.46130 0.39320 0.35420 -0.45500
O 	O 	0.51040 0.60460 0.08200 -0.45800
O 	O 	0.73230 0.39730 0.60920 -0.44100
O 	O 	0.59400 0.64070 0.74000 -0.45600
O 	O 	0.35010 0.78320 0.07800 -0.45200
O 	O 	0.48960 0.39540 0.91800 -0.45800
O 	O 	0.53870 0.60680 0.64580 -0.45500
O 	O 	0.38690 0.69280 0.78750 -0.45600
O 	O 	0.27340 0.92910 0.32960 -0.45300
O 	O 	0.26510 0.31620 0.87090 -0.52800
O 	O 	0.55600 0.76490 0.08940 -0.44200
O 	O 	0.75730 0.56400 0.23270 -0.45900
O 	O 	0.73490 0.68380 0.12910 -0.52800
O 	O 	0.54060 0.42370 0.69840 -0.32100
O 	O 	0.69050 0.52060 0.11450 -0.45400
O 	O 	0.81810 0.44990 0.76800 -0.45000
O 	O 	0.09510 0.68990 0.15430 -0.46900
O 	O 	0.80740 0.94840 0.81880 -0.46200
O 	O 	0.87930 0.34590 0.68050 -0.46400
O 	O 	0.57780 0.46820 0.23730 -0.36100
O 	O 	0.24270 0.43600 0.76730 -0.45900
O 	O 	0.31770 0.44240 0.16130 -0.49000
O 	O 	0.08660 0.98930 0.29300 -0.45700
O 	O 	0.53910 0.47420 0.58170 -0.53800
O 	O 	0.78950 0.11930 0.77400 -0.36500
O 	O 	0.48680 0.06990 0.87810 -0.45500
O 	O 	0.84530 0.14230 0.88500 -0.45600
O 	O 	0.22600 0.60060 0.80150 -0.44500
O 	O 	0.26770 0.60270 0.39080 -0.44100
O 	O 	0.52970 0.14650 0.70780 -0.45900
