data_crystal

_cell_length_a 25.47100
_cell_length_b 15.38780
_cell_length_c 17.15070
_cell_angle_alpha 90.00000
_cell_angle_beta  98.82800
_cell_angle_gamma 90.00000

_symmetry_space_group_name_	'P 1'
_symmetry_space_group_name_H-M	'P 1'

loop_
_symmetry_equiv_pos_as_xyz
  x,y,z

loop_
_atom_site_label
_atom_site_type_symbol
_atom_site_fract_x
_atom_site_fract_y
_atom_site_fract_z
_atom_site_charge
Cd	Cd	0.78019 0.85178 0.74826 1.13000
N 	N 	0.79766 0.77850 0.86440 -0.27400
N 	N 	0.70798 0.94290 0.75180 -0.26600
C 	C 	0.77170 0.71430 0.89040 0.09400
H 	H 	0.73940 0.69360 0.86440 -0.04900
N 	N 	0.79620 0.68170 0.95800 -0.11800
N 	N 	0.63518 0.01030 0.69530 -0.10700
C 	C 	0.81440 0.53560 0.01710 0.00500
C 	C 	0.65976 0.93350 0.71080 0.07200
H 	H 	0.64470 0.88020 0.69460 -0.03400
C 	C 	0.51930 0.10460 0.72510 -0.07200
H 	H 	0.53190 0.15710 0.70870 0.05500
C 	C 	0.51890 0.95080 0.72570 -0.07300
H 	H 	0.53150 0.89820 0.70920 0.04400
C 	C 	0.85920 0.53840 0.07700 -0.03000
H 	H 	0.86600 0.58760 0.10840 0.03200
C 	C 	0.77750 0.61090 0.00450 -0.07800
H 	H 	0.74330 0.59070 0.97780 0.03300
H 	H 	0.77220 0.63360 0.05550 0.03400
C 	C 	0.53870 0.02850 0.70040 0.05500
C 	C 	0.71330 0.03170 0.76270 -0.02000
H 	H 	0.74310 0.05920 0.79000 -0.02400
C 	C 	0.66940 0.07240 0.72810 -0.00300
H 	H 	0.66340 0.13210 0.72680 0.01200
C 	C 	0.58240 0.02570 0.64990 -0.12100
H 	H 	0.57460 0.98000 0.61090 0.06400
H 	H 	0.58290 0.08040 0.62190 0.06700
C 	C 	0.84260 0.78620 0.91830 -0.00100
H 	H 	0.86970 0.82610 0.91530 -0.01500
C 	C 	0.84220 0.72830 0.97600 -0.01600
H 	H 	0.86810 0.72090 0.02000 0.02500
C 	C 	0.89300 0.46760 0.08860 -0.10800
H 	H 	0.92240 0.47020 0.12810 0.07500
C 	C 	0.88470 0.39470 0.04430 0.07900
C 	C 	0.92060 0.31590 0.05920 -0.13300
H 	H 	0.91710 0.28030 0.01200 0.05400
H 	H 	0.95730 0.33470 0.07130 0.06700
C 	C 	0.84130 0.39290 0.98450 -0.11200
H 	H 	0.83480 0.34370 0.95300 0.03100
C 	C 	0.80820 0.46290 0.97160 -0.02900
H 	H 	0.78020 0.46070 0.93000 -0.00800
N 	N 	0.90686 0.26410 0.12490 -0.10500
C 	C 	0.93910 0.20380 0.16790 -0.02700
H 	H 	0.97420 0.19100 0.16340 0.02700
C 	C 	0.90970 0.16680 0.21780 -0.00300
H 	H 	0.92150 0.12310 0.25360 -0.01300
N 	N 	0.85988 0.20290 0.20830 -0.25700
C 	C 	0.85951 0.25970 0.15110 0.06800
H 	H 	0.83010 0.29300 0.13090 -0.03400
Cd	Cd	0.21981 0.85178 0.75174 1.13100
N 	N 	0.20234 0.77850 0.63560 -0.27300
N 	N 	0.29202 0.94290 0.74820 -0.26500
C 	C 	0.22830 0.71430 0.60960 0.09500
H 	H 	0.26060 0.69360 0.63560 -0.04800
N 	N 	0.20380 0.68170 0.54200 -0.11700
N 	N 	0.36482 0.01030 0.80470 -0.10600
C 	C 	0.18560 0.53560 0.48290 0.00600
C 	C 	0.34024 0.93350 0.78920 0.07200
H 	H 	0.35530 0.88020 0.80540 -0.03400
C 	C 	0.48070 0.10460 0.77490 -0.07200
H 	H 	0.46810 0.15710 0.79130 0.05500
C 	C 	0.48110 0.95080 0.77430 -0.07300
H 	H 	0.46850 0.89820 0.79080 0.04400
C 	C 	0.14080 0.53840 0.42300 -0.03000
H 	H 	0.13400 0.58760 0.39160 0.03200
C 	C 	0.22250 0.61090 0.49550 -0.07800
H 	H 	0.25670 0.59070 0.52220 0.03300
H 	H 	0.22780 0.63360 0.44450 0.03400
C 	C 	0.46130 0.02850 0.79960 0.05400
C 	C 	0.28670 0.03170 0.73730 -0.02000
H 	H 	0.25690 0.05920 0.71000 -0.02400
C 	C 	0.33060 0.07240 0.77190 -0.00300
H 	H 	0.33660 0.13210 0.77320 0.01200
C 	C 	0.41760 0.02570 0.85010 -0.12000
H 	H 	0.42540 0.98000 0.88910 0.06400
H 	H 	0.41710 0.08040 0.87810 0.06600
C 	C 	0.15740 0.78620 0.58170 -0.00100
H 	H 	0.13030 0.82610 0.58470 -0.01400
C 	C 	0.15780 0.72830 0.52400 -0.01500
H 	H 	0.13190 0.72090 0.48000 0.02500
C 	C 	0.10700 0.46760 0.41140 -0.10900
H 	H 	0.07760 0.47020 0.37190 0.07500
C 	C 	0.11530 0.39470 0.45570 0.07900
C 	C 	0.07940 0.31590 0.44080 -0.13400
H 	H 	0.08290 0.28030 0.48800 0.05500
H 	H 	0.04270 0.33470 0.42870 0.06700
C 	C 	0.15870 0.39290 0.51550 -0.11200
H 	H 	0.16520 0.34370 0.54700 0.03100
C 	C 	0.19180 0.46290 0.52840 -0.02900
H 	H 	0.21980 0.46070 0.57000 -0.00800
N 	N 	0.09314 0.26410 0.37510 -0.10500
C 	C 	0.06090 0.20380 0.33210 -0.02700
H 	H 	0.02580 0.19100 0.33660 0.02700
C 	C 	0.09030 0.16680 0.28220 -0.00300
H 	H 	0.07850 0.12310 0.24640 -0.01300
N 	N 	0.14012 0.20290 0.29170 -0.25700
C 	C 	0.14049 0.25970 0.34890 0.06800
H 	H 	0.16990 0.29300 0.36910 -0.03400
Cd	Cd	0.21981 0.14822 0.25174 1.13100
N 	N 	0.20234 0.22150 0.13560 -0.27300
N 	N 	0.29202 0.05710 0.24820 -0.26500
C 	C 	0.22830 0.28570 0.10960 0.09500
H 	H 	0.26060 0.30640 0.13560 -0.04800
N 	N 	0.20380 0.31830 0.04200 -0.11700
N 	N 	0.36482 0.98970 0.30470 -0.10600
C 	C 	0.18560 0.46440 0.98290 0.00600
C 	C 	0.34024 0.06650 0.28920 0.07200
H 	H 	0.35530 0.11980 0.30540 -0.03400
C 	C 	0.48070 0.89540 0.27490 -0.07200
H 	H 	0.46810 0.84290 0.29130 0.05500
C 	C 	0.48110 0.04920 0.27430 -0.07300
H 	H 	0.46850 0.10180 0.29080 0.04400
C 	C 	0.14080 0.46160 0.92300 -0.03000
H 	H 	0.13400 0.41240 0.89160 0.03200
C 	C 	0.22250 0.38910 0.99550 -0.07800
H 	H 	0.25670 0.40930 0.02220 0.03300
H 	H 	0.22780 0.36640 0.94450 0.03400
C 	C 	0.46130 0.97150 0.29960 0.05500
C 	C 	0.28670 0.96830 0.23730 -0.02000
H 	H 	0.25690 0.94080 0.21000 -0.02400
C 	C 	0.33060 0.92760 0.27190 -0.00300
H 	H 	0.33660 0.86790 0.27320 0.01200
C 	C 	0.41760 0.97430 0.35010 -0.12100
H 	H 	0.42540 0.02000 0.38910 0.06400
H 	H 	0.41710 0.91960 0.37810 0.06700
C 	C 	0.15740 0.21380 0.08170 -0.00100
H 	H 	0.13030 0.17390 0.08470 -0.01500
C 	C 	0.15780 0.27170 0.02400 -0.01600
H 	H 	0.13190 0.27910 0.98000 0.02500
C 	C 	0.10700 0.53240 0.91140 -0.10800
H 	H 	0.07760 0.52980 0.87190 0.07500
C 	C 	0.11530 0.60530 0.95570 0.07900
C 	C 	0.07940 0.68410 0.94080 -0.13300
H 	H 	0.08290 0.71970 0.98800 0.05400
H 	H 	0.04270 0.66530 0.92870 0.06700
C 	C 	0.15870 0.60710 0.01550 -0.11200
H 	H 	0.16520 0.65630 0.04700 0.03100
C 	C 	0.19180 0.53710 0.02840 -0.02900
H 	H 	0.21980 0.53930 0.07000 -0.00800
N 	N 	0.09314 0.73590 0.87510 -0.10500
C 	C 	0.06090 0.79620 0.83210 -0.02700
H 	H 	0.02580 0.80900 0.83660 0.02700
C 	C 	0.09030 0.83320 0.78220 -0.00300
H 	H 	0.07850 0.87690 0.74640 -0.01300
N 	N 	0.14012 0.79710 0.79170 -0.25700
C 	C 	0.14049 0.74030 0.84890 0.06800
H 	H 	0.16990 0.70700 0.86910 -0.03400
Cd	Cd	0.78019 0.14822 0.24826 1.13100
N 	N 	0.79766 0.22150 0.36440 -0.27300
N 	N 	0.70798 0.05710 0.25180 -0.26500
C 	C 	0.77170 0.28570 0.39040 0.09500
H 	H 	0.73940 0.30640 0.36440 -0.04800
N 	N 	0.79620 0.31830 0.45800 -0.11700
N 	N 	0.63518 0.98970 0.19530 -0.10600
C 	C 	0.81440 0.46440 0.51710 0.00600
C 	C 	0.65976 0.06650 0.21080 0.07200
H 	H 	0.64470 0.11980 0.19460 -0.03400
C 	C 	0.51930 0.89540 0.22510 -0.07200
H 	H 	0.53190 0.84290 0.20870 0.05500
C 	C 	0.51890 0.04920 0.22570 -0.07300
H 	H 	0.53150 0.10180 0.20920 0.04400
C 	C 	0.85920 0.46160 0.57700 -0.03000
H 	H 	0.86600 0.41240 0.60840 0.03200
C 	C 	0.77750 0.38910 0.50450 -0.07800
H 	H 	0.74330 0.40930 0.47780 0.03300
H 	H 	0.77220 0.36640 0.55550 0.03400
C 	C 	0.53870 0.97150 0.20040 0.05400
C 	C 	0.71330 0.96830 0.26270 -0.02000
H 	H 	0.74310 0.94080 0.29000 -0.02400
C 	C 	0.66940 0.92760 0.22810 -0.00300
H 	H 	0.66340 0.86790 0.22680 0.01200
C 	C 	0.58240 0.97430 0.14990 -0.12000
H 	H 	0.57460 0.02000 0.11090 0.06400
H 	H 	0.58290 0.91960 0.12190 0.06600
C 	C 	0.84260 0.21380 0.41830 -0.00100
H 	H 	0.86970 0.17390 0.41530 -0.01400
C 	C 	0.84220 0.27170 0.47600 -0.01500
H 	H 	0.86810 0.27910 0.52000 0.02500
C 	C 	0.89300 0.53240 0.58860 -0.10900
H 	H 	0.92240 0.52980 0.62810 0.07500
C 	C 	0.88470 0.60530 0.54430 0.07900
C 	C 	0.92060 0.68410 0.55920 -0.13400
H 	H 	0.91710 0.71970 0.51200 0.05500
H 	H 	0.95730 0.66530 0.57130 0.06700
C 	C 	0.84130 0.60710 0.48450 -0.11200
H 	H 	0.83480 0.65630 0.45300 0.03100
C 	C 	0.80820 0.53710 0.47160 -0.02900
H 	H 	0.78020 0.53930 0.43000 -0.00800
N 	N 	0.90686 0.73590 0.62490 -0.10500
C 	C 	0.93910 0.79620 0.66790 -0.02700
H 	H 	0.97420 0.80900 0.66340 0.02700
C 	C 	0.90970 0.83320 0.71780 -0.00300
H 	H 	0.92150 0.87690 0.75360 -0.01300
N 	N 	0.85988 0.79710 0.70830 -0.25700
C 	C 	0.85951 0.74030 0.65110 0.06800
H 	H 	0.83010 0.70700 0.63090 -0.03400
Cd	Cd	0.28019 0.35178 0.74826 1.13200
N 	N 	0.29766 0.27850 0.86440 -0.27300
N 	N 	0.20798 0.44290 0.75180 -0.26500
C 	C 	0.27170 0.21430 0.89040 0.09500
H 	H 	0.23940 0.19360 0.86440 -0.04800
N 	N 	0.29620 0.18170 0.95800 -0.11700
N 	N 	0.13518 0.51030 0.69530 -0.10600
C 	C 	0.31440 0.03560 0.01710 0.00700
C 	C 	0.15976 0.43350 0.71080 0.07200
H 	H 	0.14470 0.38020 0.69460 -0.03400
C 	C 	0.01930 0.60460 0.72510 -0.07200
H 	H 	0.03190 0.65710 0.70870 0.05500
C 	C 	0.01890 0.45080 0.72570 -0.07300
H 	H 	0.03150 0.39820 0.70920 0.04400
C 	C 	0.35920 0.03840 0.07700 -0.03200
H 	H 	0.36600 0.08760 0.10840 0.03300
C 	C 	0.27750 0.11090 0.00450 -0.08100
H 	H 	0.24330 0.09070 0.97780 0.03400
H 	H 	0.27220 0.13360 0.05550 0.03500
C 	C 	0.03870 0.52850 0.70040 0.05400
C 	C 	0.21330 0.53170 0.76270 -0.02100
H 	H 	0.24310 0.55920 0.79000 -0.02400
C 	C 	0.16940 0.57240 0.72810 -0.00300
H 	H 	0.16340 0.63210 0.72680 0.01200
C 	C 	0.08240 0.52570 0.64990 -0.12100
H 	H 	0.07460 0.48000 0.61090 0.06400
H 	H 	0.08290 0.58040 0.62190 0.06700
C 	C 	0.34260 0.28620 0.91830 -0.00200
H 	H 	0.36970 0.32610 0.91530 -0.01400
C 	C 	0.34220 0.22830 0.97600 -0.01500
H 	H 	0.36810 0.22090 0.02000 0.02400
C 	C 	0.39300 0.96760 0.08860 -0.10700
H 	H 	0.42240 0.97020 0.12810 0.07400
C 	C 	0.38470 0.89470 0.04430 0.08000
C 	C 	0.42060 0.81590 0.05920 -0.13400
H 	H 	0.41710 0.78030 0.01200 0.05500
H 	H 	0.45730 0.83470 0.07130 0.06700
C 	C 	0.34130 0.89290 0.98450 -0.11300
H 	H 	0.33480 0.84370 0.95300 0.03100
C 	C 	0.30820 0.96290 0.97160 -0.02900
H 	H 	0.28020 0.96070 0.93000 -0.00800
N 	N 	0.40686 0.76410 0.12490 -0.10500
C 	C 	0.43910 0.70380 0.16790 -0.02700
H 	H 	0.47420 0.69100 0.16340 0.02700
C 	C 	0.40970 0.66680 0.21780 -0.00300
H 	H 	0.42150 0.62310 0.25360 -0.01300
N 	N 	0.35988 0.70290 0.20830 -0.25700
C 	C 	0.35951 0.75970 0.15110 0.06800
H 	H 	0.33010 0.79300 0.13090 -0.03300
Cd	Cd	0.71981 0.35178 0.75174 1.13200
N 	N 	0.70234 0.27850 0.63560 -0.27300
N 	N 	0.79202 0.44290 0.74820 -0.26500
C 	C 	0.72830 0.21430 0.60960 0.09500
H 	H 	0.76060 0.19360 0.63560 -0.04800
N 	N 	0.70380 0.18170 0.54200 -0.11700
N 	N 	0.86482 0.51030 0.80470 -0.10600
C 	C 	0.68560 0.03560 0.48290 0.00600
C 	C 	0.84024 0.43350 0.78920 0.07200
H 	H 	0.85530 0.38020 0.80540 -0.03400
C 	C 	0.98070 0.60460 0.77490 -0.07200
H 	H 	0.96810 0.65710 0.79130 0.05500
C 	C 	0.98110 0.45080 0.77430 -0.07200
H 	H 	0.96850 0.39820 0.79080 0.04400
C 	C 	0.64080 0.03840 0.42300 -0.03000
H 	H 	0.63400 0.08760 0.39160 0.03200
C 	C 	0.72250 0.11090 0.49550 -0.07900
H 	H 	0.75670 0.09070 0.52220 0.03300
H 	H 	0.72780 0.13360 0.44450 0.03400
C 	C 	0.96130 0.52850 0.79960 0.05400
C 	C 	0.78670 0.53170 0.73730 -0.02100
H 	H 	0.75690 0.55920 0.71000 -0.02400
C 	C 	0.83060 0.57240 0.77190 -0.00300
H 	H 	0.83660 0.63210 0.77320 0.01200
C 	C 	0.91760 0.52570 0.85010 -0.12100
H 	H 	0.92540 0.48000 0.88910 0.06400
H 	H 	0.91710 0.58040 0.87810 0.06700
C 	C 	0.65740 0.28620 0.58170 -0.00100
H 	H 	0.63030 0.32610 0.58470 -0.01400
C 	C 	0.65780 0.22830 0.52400 -0.01500
H 	H 	0.63190 0.22090 0.48000 0.02500
C 	C 	0.60700 0.96760 0.41140 -0.10800
H 	H 	0.57760 0.97020 0.37190 0.07500
C 	C 	0.61530 0.89470 0.45570 0.07900
C 	C 	0.57940 0.81590 0.44080 -0.13400
H 	H 	0.58290 0.78030 0.48800 0.05500
H 	H 	0.54270 0.83470 0.42870 0.06700
C 	C 	0.65870 0.89290 0.51550 -0.11200
H 	H 	0.66520 0.84370 0.54700 0.03100
C 	C 	0.69180 0.96290 0.52840 -0.02900
H 	H 	0.71980 0.96070 0.57000 -0.00800
N 	N 	0.59314 0.76410 0.37510 -0.10500
C 	C 	0.56090 0.70380 0.33210 -0.02700
H 	H 	0.52580 0.69100 0.33660 0.02700
C 	C 	0.59030 0.66680 0.28220 -0.00300
H 	H 	0.57850 0.62310 0.24640 -0.01300
N 	N 	0.64012 0.70290 0.29170 -0.25700
C 	C 	0.64049 0.75970 0.34890 0.06800
H 	H 	0.66990 0.79300 0.36910 -0.03400
Cd	Cd	0.71981 0.64822 0.25174 1.13200
N 	N 	0.70234 0.72150 0.13560 -0.27300
N 	N 	0.79202 0.55710 0.24820 -0.26500
C 	C 	0.72830 0.78570 0.10960 0.09500
H 	H 	0.76060 0.80640 0.13560 -0.04800
N 	N 	0.70380 0.81830 0.04200 -0.11700
N 	N 	0.86482 0.48970 0.30470 -0.10600
C 	C 	0.68560 0.96440 0.98290 0.00700
C 	C 	0.84024 0.56650 0.28920 0.07200
H 	H 	0.85530 0.61980 0.30540 -0.03400
C 	C 	0.98070 0.39540 0.27490 -0.07200
H 	H 	0.96810 0.34290 0.29130 0.05500
C 	C 	0.98110 0.54920 0.27430 -0.07300
H 	H 	0.96850 0.60180 0.29080 0.04400
C 	C 	0.64080 0.96160 0.92300 -0.03200
H 	H 	0.63400 0.91240 0.89160 0.03300
C 	C 	0.72250 0.88910 0.99550 -0.08100
H 	H 	0.75670 0.90930 0.02220 0.03400
H 	H 	0.72780 0.86640 0.94450 0.03500
C 	C 	0.96130 0.47150 0.29960 0.05400
C 	C 	0.78670 0.46830 0.23730 -0.02100
H 	H 	0.75690 0.44080 0.21000 -0.02400
C 	C 	0.83060 0.42760 0.27190 -0.00300
H 	H 	0.83660 0.36790 0.27320 0.01200
C 	C 	0.91760 0.47430 0.35010 -0.12100
H 	H 	0.92540 0.52000 0.38910 0.06400
H 	H 	0.91710 0.41960 0.37810 0.06700
C 	C 	0.65740 0.71380 0.08170 -0.00200
H 	H 	0.63030 0.67390 0.08470 -0.01400
C 	C 	0.65780 0.77170 0.02400 -0.01500
H 	H 	0.63190 0.77910 0.98000 0.02400
C 	C 	0.60700 0.03240 0.91140 -0.10700
H 	H 	0.57760 0.02980 0.87190 0.07400
C 	C 	0.61530 0.10530 0.95570 0.08000
C 	C 	0.57940 0.18410 0.94080 -0.13400
H 	H 	0.58290 0.21970 0.98800 0.05500
H 	H 	0.54270 0.16530 0.92870 0.06700
C 	C 	0.65870 0.10710 0.01550 -0.11300
H 	H 	0.66520 0.15630 0.04700 0.03100
C 	C 	0.69180 0.03710 0.02840 -0.02900
H 	H 	0.71980 0.03930 0.07000 -0.00800
N 	N 	0.59314 0.23590 0.87510 -0.10500
C 	C 	0.56090 0.29620 0.83210 -0.02700
H 	H 	0.52580 0.30900 0.83660 0.02700
C 	C 	0.59030 0.33320 0.78220 -0.00300
H 	H 	0.57850 0.37690 0.74640 -0.01300
N 	N 	0.64012 0.29710 0.79170 -0.25700
C 	C 	0.64049 0.24030 0.84890 0.06800
H 	H 	0.66990 0.20700 0.86910 -0.03300
Cd	Cd	0.28019 0.64822 0.24826 1.13200
N 	N 	0.29766 0.72150 0.36440 -0.27300
N 	N 	0.20798 0.55710 0.25180 -0.26500
C 	C 	0.27170 0.78570 0.39040 0.09500
H 	H 	0.23940 0.80640 0.36440 -0.04800
N 	N 	0.29620 0.81830 0.45800 -0.11700
N 	N 	0.13518 0.48970 0.19530 -0.10600
C 	C 	0.31440 0.96440 0.51710 0.00600
C 	C 	0.15976 0.56650 0.21080 0.07200
H 	H 	0.14470 0.61980 0.19460 -0.03400
C 	C 	0.01930 0.39540 0.22510 -0.07200
H 	H 	0.03190 0.34290 0.20870 0.05500
C 	C 	0.01890 0.54920 0.22570 -0.07200
H 	H 	0.03150 0.60180 0.20920 0.04400
C 	C 	0.35920 0.96160 0.57700 -0.03000
H 	H 	0.36600 0.91240 0.60840 0.03200
C 	C 	0.27750 0.88910 0.50450 -0.07900
H 	H 	0.24330 0.90930 0.47780 0.03300
H 	H 	0.27220 0.86640 0.55550 0.03400
C 	C 	0.03870 0.47150 0.20040 0.05400
C 	C 	0.21330 0.46830 0.26270 -0.02100
H 	H 	0.24310 0.44080 0.29000 -0.02400
C 	C 	0.16940 0.42760 0.22810 -0.00300
H 	H 	0.16340 0.36790 0.22680 0.01200
C 	C 	0.08240 0.47430 0.14990 -0.12100
H 	H 	0.07460 0.52000 0.11090 0.06400
H 	H 	0.08290 0.41960 0.12190 0.06700
C 	C 	0.34260 0.71380 0.41830 -0.00100
H 	H 	0.36970 0.67390 0.41530 -0.01400
C 	C 	0.34220 0.77170 0.47600 -0.01500
H 	H 	0.36810 0.77910 0.52000 0.02500
C 	C 	0.39300 0.03240 0.58860 -0.10800
H 	H 	0.42240 0.02980 0.62810 0.07500
C 	C 	0.38470 0.10530 0.54430 0.07900
C 	C 	0.42060 0.18410 0.55920 -0.13400
H 	H 	0.41710 0.21970 0.51200 0.05500
H 	H 	0.45730 0.16530 0.57130 0.06700
C 	C 	0.34130 0.10710 0.48450 -0.11200
H 	H 	0.33480 0.15630 0.45300 0.03100
C 	C 	0.30820 0.03710 0.47160 -0.02900
H 	H 	0.28020 0.03930 0.43000 -0.00800
N 	N 	0.40686 0.23590 0.62490 -0.10500
C 	C 	0.43910 0.29620 0.66790 -0.02700
H 	H 	0.47420 0.30900 0.66340 0.02700
C 	C 	0.40970 0.33320 0.71780 -0.00300
H 	H 	0.42150 0.37690 0.75360 -0.01300
N 	N 	0.35988 0.29710 0.70830 -0.25700
C 	C 	0.35951 0.24030 0.65110 0.06800
H 	H 	0.33010 0.20700 0.63090 -0.03400
