data_crystal

_cell_length_a 25.46900
_cell_length_b 15.39120
_cell_length_c 17.14390
_cell_angle_alpha 90.00000
_cell_angle_beta  98.79100
_cell_angle_gamma 90.00000

_symmetry_space_group_name_	'P 1'
_symmetry_space_group_name_H-M	'P 1'

loop_
_symmetry_equiv_pos_as_xyz
  x,y,z

loop_
_atom_site_label
_atom_site_type_symbol
_atom_site_fract_x
_atom_site_fract_y
_atom_site_fract_z
_atom_site_charge
Cd	Cd	0.78020 0.85178 0.74826 1.13000
N 	N 	0.79767 0.77850 0.86440 -0.27500
N 	N 	0.70804 0.94300 0.75180 -0.26600
C 	C 	0.77180 0.71440 0.89050 0.09500
H 	H 	0.73950 0.69370 0.86440 -0.04800
N 	N 	0.79620 0.68160 0.95800 -0.11700
N 	N 	0.63520 0.01030 0.69540 -0.10600
C 	C 	0.81450 0.53560 0.01700 0.00700
C 	C 	0.65970 0.93360 0.71070 0.07100
H 	H 	0.64470 0.88020 0.69440 -0.03400
C 	C 	0.51930 0.10450 0.72520 -0.07200
H 	H 	0.53190 0.15700 0.70870 0.05500
C 	C 	0.51890 0.95080 0.72570 -0.07300
H 	H 	0.53150 0.89830 0.70920 0.04400
C 	C 	0.85920 0.53850 0.07700 -0.03000
H 	H 	0.86590 0.58770 0.10850 0.03200
C 	C 	0.77740 0.61080 0.00450 -0.08000
H 	H 	0.74330 0.59070 0.97770 0.03300
H 	H 	0.77210 0.63350 0.05540 0.03400
C 	C 	0.53880 0.02860 0.70050 0.05500
C 	C 	0.71330 0.03170 0.76260 -0.02000
H 	H 	0.74300 0.05920 0.78990 -0.02400
C 	C 	0.66930 0.07230 0.72800 -0.00300
H 	H 	0.66330 0.13190 0.72670 0.01200
C 	C 	0.58240 0.02590 0.65010 -0.12200
H 	H 	0.57460 0.98030 0.61100 0.06500
H 	H 	0.58290 0.08060 0.62220 0.06700
C 	C 	0.84250 0.78620 0.91830 0.00000
H 	H 	0.86950 0.82610 0.91530 -0.01500
C 	C 	0.84220 0.72840 0.97590 -0.01700
H 	H 	0.86820 0.72120 0.01980 0.02500
C 	C 	0.89300 0.46770 0.08860 -0.10900
H 	H 	0.92230 0.47030 0.12810 0.07500
C 	C 	0.88470 0.39470 0.04430 0.07900
C 	C 	0.92060 0.31590 0.05920 -0.13400
H 	H 	0.91710 0.28040 0.01200 0.05500
H 	H 	0.95730 0.33480 0.07140 0.06700
C 	C 	0.84140 0.39280 0.98450 -0.11200
H 	H 	0.83490 0.34360 0.95300 0.03100
C 	C 	0.80820 0.46280 0.97160 -0.02900
H 	H 	0.78020 0.46060 0.93000 -0.00800
N 	N 	0.90685 0.26410 0.12500 -0.10500
C 	C 	0.93900 0.20380 0.16800 -0.02800
H 	H 	0.97420 0.19110 0.16360 0.02700
C 	C 	0.90950 0.16690 0.21770 -0.00100
H 	H 	0.92130 0.12310 0.25350 -0.01400
N 	N 	0.85994 0.20290 0.20830 -0.25700
C 	C 	0.85950 0.25960 0.15110 0.06800
H 	H 	0.83010 0.29290 0.13090 -0.03400
Cd	Cd	0.21980 0.85178 0.75174 1.13100
N 	N 	0.20233 0.77850 0.63560 -0.27400
N 	N 	0.29196 0.94300 0.74820 -0.26500
C 	C 	0.22820 0.71440 0.60950 0.09600
H 	H 	0.26050 0.69370 0.63560 -0.04800
N 	N 	0.20380 0.68160 0.54200 -0.11700
N 	N 	0.36480 0.01030 0.80460 -0.10600
C 	C 	0.18550 0.53560 0.48300 0.00700
C 	C 	0.34030 0.93360 0.78930 0.07100
H 	H 	0.35530 0.88020 0.80560 -0.03400
C 	C 	0.48070 0.10450 0.77480 -0.07200
H 	H 	0.46810 0.15700 0.79130 0.05500
C 	C 	0.48110 0.95080 0.77430 -0.07300
H 	H 	0.46850 0.89830 0.79080 0.04400
C 	C 	0.14080 0.53850 0.42300 -0.03000
H 	H 	0.13410 0.58770 0.39150 0.03200
C 	C 	0.22260 0.61080 0.49550 -0.08000
H 	H 	0.25670 0.59070 0.52230 0.03400
H 	H 	0.22790 0.63350 0.44460 0.03500
C 	C 	0.46120 0.02860 0.79950 0.05500
C 	C 	0.28670 0.03170 0.73740 -0.02000
H 	H 	0.25700 0.05920 0.71010 -0.02400
C 	C 	0.33070 0.07230 0.77200 -0.00300
H 	H 	0.33670 0.13190 0.77330 0.01200
C 	C 	0.41760 0.02590 0.84990 -0.12000
H 	H 	0.42540 0.98030 0.88900 0.06400
H 	H 	0.41710 0.08060 0.87780 0.06700
C 	C 	0.15750 0.78620 0.58170 0.00000
H 	H 	0.13050 0.82610 0.58470 -0.01500
C 	C 	0.15780 0.72840 0.52410 -0.01600
H 	H 	0.13180 0.72120 0.48020 0.02500
C 	C 	0.10700 0.46770 0.41140 -0.10900
H 	H 	0.07770 0.47030 0.37190 0.07500
C 	C 	0.11530 0.39470 0.45570 0.08000
C 	C 	0.07940 0.31590 0.44080 -0.13400
H 	H 	0.08290 0.28040 0.48800 0.05500
H 	H 	0.04270 0.33480 0.42860 0.06700
C 	C 	0.15860 0.39280 0.51550 -0.11200
H 	H 	0.16510 0.34360 0.54700 0.03100
C 	C 	0.19180 0.46280 0.52840 -0.02900
H 	H 	0.21980 0.46060 0.57000 -0.00800
N 	N 	0.09315 0.26410 0.37500 -0.10500
C 	C 	0.06100 0.20380 0.33200 -0.02800
H 	H 	0.02580 0.19110 0.33640 0.02700
C 	C 	0.09050 0.16690 0.28230 -0.00100
H 	H 	0.07870 0.12310 0.24650 -0.01400
N 	N 	0.14006 0.20290 0.29170 -0.25700
C 	C 	0.14050 0.25960 0.34890 0.06800
H 	H 	0.16990 0.29290 0.36910 -0.03400
Cd	Cd	0.21980 0.14822 0.25174 1.13100
N 	N 	0.20233 0.22150 0.13560 -0.27400
N 	N 	0.29196 0.05700 0.24820 -0.26500
C 	C 	0.22820 0.28560 0.10950 0.09600
H 	H 	0.26050 0.30630 0.13560 -0.04800
N 	N 	0.20380 0.31840 0.04200 -0.11700
N 	N 	0.36480 0.98970 0.30460 -0.10600
C 	C 	0.18550 0.46440 0.98300 0.00700
C 	C 	0.34030 0.06640 0.28930 0.07100
H 	H 	0.35530 0.11980 0.30560 -0.03400
C 	C 	0.48070 0.89550 0.27480 -0.07200
H 	H 	0.46810 0.84300 0.29130 0.05500
C 	C 	0.48110 0.04920 0.27430 -0.07300
H 	H 	0.46850 0.10170 0.29080 0.04400
C 	C 	0.14080 0.46150 0.92300 -0.03000
H 	H 	0.13410 0.41230 0.89150 0.03200
C 	C 	0.22260 0.38920 0.99550 -0.08000
H 	H 	0.25670 0.40930 0.02230 0.03300
H 	H 	0.22790 0.36650 0.94460 0.03400
C 	C 	0.46120 0.97140 0.29950 0.05500
C 	C 	0.28670 0.96830 0.23740 -0.02000
H 	H 	0.25700 0.94080 0.21010 -0.02400
C 	C 	0.33070 0.92770 0.27200 -0.00300
H 	H 	0.33670 0.86810 0.27330 0.01200
C 	C 	0.41760 0.97410 0.34990 -0.12200
H 	H 	0.42540 0.01970 0.38900 0.06500
H 	H 	0.41710 0.91940 0.37780 0.06700
C 	C 	0.15750 0.21380 0.08170 0.00000
H 	H 	0.13050 0.17390 0.08470 -0.01500
C 	C 	0.15780 0.27160 0.02410 -0.01700
H 	H 	0.13180 0.27880 0.98020 0.02500
C 	C 	0.10700 0.53230 0.91140 -0.10900
H 	H 	0.07770 0.52970 0.87190 0.07500
C 	C 	0.11530 0.60530 0.95570 0.07900
C 	C 	0.07940 0.68410 0.94080 -0.13400
H 	H 	0.08290 0.71960 0.98800 0.05500
H 	H 	0.04270 0.66520 0.92860 0.06700
C 	C 	0.15860 0.60720 0.01550 -0.11200
H 	H 	0.16510 0.65640 0.04700 0.03100
C 	C 	0.19180 0.53720 0.02840 -0.02900
H 	H 	0.21980 0.53940 0.07000 -0.00800
N 	N 	0.09315 0.73590 0.87500 -0.10500
C 	C 	0.06100 0.79620 0.83200 -0.02800
H 	H 	0.02580 0.80890 0.83640 0.02700
C 	C 	0.09050 0.83310 0.78230 -0.00100
H 	H 	0.07870 0.87690 0.74650 -0.01400
N 	N 	0.14006 0.79710 0.79170 -0.25700
C 	C 	0.14050 0.74040 0.84890 0.06800
H 	H 	0.16990 0.70710 0.86910 -0.03400
Cd	Cd	0.78020 0.14822 0.24826 1.13100
N 	N 	0.79767 0.22150 0.36440 -0.27400
N 	N 	0.70804 0.05700 0.25180 -0.26500
C 	C 	0.77180 0.28560 0.39050 0.09600
H 	H 	0.73950 0.30630 0.36440 -0.04800
N 	N 	0.79620 0.31840 0.45800 -0.11700
N 	N 	0.63520 0.98970 0.19540 -0.10600
C 	C 	0.81450 0.46440 0.51700 0.00700
C 	C 	0.65970 0.06640 0.21070 0.07100
H 	H 	0.64470 0.11980 0.19440 -0.03400
C 	C 	0.51930 0.89550 0.22520 -0.07200
H 	H 	0.53190 0.84300 0.20870 0.05500
C 	C 	0.51890 0.04920 0.22570 -0.07300
H 	H 	0.53150 0.10170 0.20920 0.04400
C 	C 	0.85920 0.46150 0.57700 -0.03000
H 	H 	0.86590 0.41230 0.60850 0.03200
C 	C 	0.77740 0.38920 0.50450 -0.08000
H 	H 	0.74330 0.40930 0.47770 0.03400
H 	H 	0.77210 0.36650 0.55540 0.03500
C 	C 	0.53880 0.97140 0.20050 0.05500
C 	C 	0.71330 0.96830 0.26260 -0.02000
H 	H 	0.74300 0.94080 0.28990 -0.02400
C 	C 	0.66930 0.92770 0.22800 -0.00300
H 	H 	0.66330 0.86810 0.22670 0.01200
C 	C 	0.58240 0.97410 0.15010 -0.12000
H 	H 	0.57460 0.01970 0.11100 0.06400
H 	H 	0.58290 0.91940 0.12220 0.06700
C 	C 	0.84250 0.21380 0.41830 0.00000
H 	H 	0.86950 0.17390 0.41530 -0.01500
C 	C 	0.84220 0.27160 0.47590 -0.01600
H 	H 	0.86820 0.27880 0.51980 0.02500
C 	C 	0.89300 0.53230 0.58860 -0.10900
H 	H 	0.92230 0.52970 0.62810 0.07500
C 	C 	0.88470 0.60530 0.54430 0.08000
C 	C 	0.92060 0.68410 0.55920 -0.13400
H 	H 	0.91710 0.71960 0.51200 0.05500
H 	H 	0.95730 0.66520 0.57140 0.06700
C 	C 	0.84140 0.60720 0.48450 -0.11200
H 	H 	0.83490 0.65640 0.45300 0.03100
C 	C 	0.80820 0.53720 0.47160 -0.02900
H 	H 	0.78020 0.53940 0.43000 -0.00800
N 	N 	0.90685 0.73590 0.62500 -0.10500
C 	C 	0.93900 0.79620 0.66800 -0.02800
H 	H 	0.97420 0.80890 0.66360 0.02700
C 	C 	0.90950 0.83310 0.71770 -0.00100
H 	H 	0.92130 0.87690 0.75350 -0.01400
N 	N 	0.85994 0.79710 0.70830 -0.25700
C 	C 	0.85950 0.74040 0.65110 0.06800
H 	H 	0.83010 0.70710 0.63090 -0.03400
Cd	Cd	0.28020 0.35178 0.74826 1.13200
N 	N 	0.29767 0.27850 0.86440 -0.27400
N 	N 	0.20804 0.44300 0.75180 -0.26500
C 	C 	0.27180 0.21440 0.89050 0.09500
H 	H 	0.23950 0.19370 0.86440 -0.04800
N 	N 	0.29620 0.18160 0.95800 -0.11700
N 	N 	0.13520 0.51030 0.69540 -0.10600
C 	C 	0.31450 0.03560 0.01700 0.00800
C 	C 	0.15970 0.43360 0.71070 0.07200
H 	H 	0.14470 0.38020 0.69440 -0.03400
C 	C 	0.01930 0.60450 0.72520 -0.07200
H 	H 	0.03190 0.65700 0.70870 0.05500
C 	C 	0.01890 0.45080 0.72570 -0.07300
H 	H 	0.03150 0.39830 0.70920 0.04400
C 	C 	0.35920 0.03850 0.07700 -0.03200
H 	H 	0.36590 0.08770 0.10850 0.03300
C 	C 	0.27740 0.11080 0.00450 -0.08200
H 	H 	0.24330 0.09070 0.97770 0.03500
H 	H 	0.27210 0.13350 0.05540 0.03500
C 	C 	0.03880 0.52860 0.70050 0.05500
C 	C 	0.21330 0.53170 0.76260 -0.02100
H 	H 	0.24300 0.55920 0.78990 -0.02400
C 	C 	0.16930 0.57230 0.72800 -0.00300
H 	H 	0.16330 0.63190 0.72670 0.01200
C 	C 	0.08240 0.52590 0.65010 -0.12200
H 	H 	0.07460 0.48030 0.61100 0.06500
H 	H 	0.08290 0.58060 0.62220 0.06700
C 	C 	0.34250 0.28620 0.91830 -0.00000
H 	H 	0.36950 0.32610 0.91530 -0.01500
C 	C 	0.34220 0.22840 0.97590 -0.01600
H 	H 	0.36820 0.22120 0.01980 0.02400
C 	C 	0.39300 0.96770 0.08860 -0.10800
H 	H 	0.42230 0.97030 0.12810 0.07500
C 	C 	0.38470 0.89470 0.04430 0.08000
C 	C 	0.42060 0.81590 0.05920 -0.13400
H 	H 	0.41710 0.78040 0.01200 0.05500
H 	H 	0.45730 0.83480 0.07140 0.06700
C 	C 	0.34140 0.89280 0.98450 -0.11300
H 	H 	0.33490 0.84360 0.95300 0.03100
C 	C 	0.30820 0.96280 0.97160 -0.03000
H 	H 	0.28020 0.96060 0.93000 -0.00800
N 	N 	0.40685 0.76410 0.12500 -0.10500
C 	C 	0.43900 0.70380 0.16800 -0.02800
H 	H 	0.47420 0.69110 0.16360 0.02700
C 	C 	0.40950 0.66690 0.21770 -0.00100
H 	H 	0.42130 0.62310 0.25350 -0.01400
N 	N 	0.35994 0.70290 0.20830 -0.25700
C 	C 	0.35950 0.75960 0.15110 0.06800
H 	H 	0.33010 0.79290 0.13090 -0.03400
Cd	Cd	0.71980 0.35178 0.75174 1.13200
N 	N 	0.70233 0.27850 0.63560 -0.27400
N 	N 	0.79196 0.44300 0.74820 -0.26500
C 	C 	0.72820 0.21440 0.60950 0.09600
H 	H 	0.76050 0.19370 0.63560 -0.04800
N 	N 	0.70380 0.18160 0.54200 -0.11700
N 	N 	0.86480 0.51030 0.80460 -0.10600
C 	C 	0.68550 0.03560 0.48300 0.00700
C 	C 	0.84030 0.43360 0.78930 0.07200
H 	H 	0.85530 0.38020 0.80560 -0.03400
C 	C 	0.98070 0.60450 0.77480 -0.07200
H 	H 	0.96810 0.65700 0.79130 0.05500
C 	C 	0.98110 0.45080 0.77430 -0.07300
H 	H 	0.96850 0.39830 0.79080 0.04400
C 	C 	0.64080 0.03850 0.42300 -0.03000
H 	H 	0.63410 0.08770 0.39150 0.03200
C 	C 	0.72260 0.11080 0.49550 -0.08000
H 	H 	0.75670 0.09070 0.52230 0.03400
H 	H 	0.72790 0.13350 0.44460 0.03500
C 	C 	0.96120 0.52860 0.79950 0.05400
C 	C 	0.78670 0.53170 0.73740 -0.02100
H 	H 	0.75700 0.55920 0.71010 -0.02400
C 	C 	0.83070 0.57230 0.77200 -0.00300
H 	H 	0.83670 0.63190 0.77330 0.01200
C 	C 	0.91760 0.52590 0.84990 -0.12200
H 	H 	0.92540 0.48030 0.88900 0.06500
H 	H 	0.91710 0.58060 0.87780 0.06700
C 	C 	0.65750 0.28620 0.58170 0.00000
H 	H 	0.63050 0.32610 0.58470 -0.01500
C 	C 	0.65780 0.22840 0.52410 -0.01600
H 	H 	0.63180 0.22120 0.48020 0.02500
C 	C 	0.60700 0.96770 0.41140 -0.10900
H 	H 	0.57770 0.97030 0.37190 0.07500
C 	C 	0.61530 0.89470 0.45570 0.08000
C 	C 	0.57940 0.81590 0.44080 -0.13400
H 	H 	0.58290 0.78040 0.48800 0.05500
H 	H 	0.54270 0.83480 0.42860 0.06700
C 	C 	0.65860 0.89280 0.51550 -0.11200
H 	H 	0.66510 0.84360 0.54700 0.03100
C 	C 	0.69180 0.96280 0.52840 -0.02900
H 	H 	0.71980 0.96060 0.57000 -0.00800
N 	N 	0.59315 0.76410 0.37500 -0.10500
C 	C 	0.56100 0.70380 0.33200 -0.02800
H 	H 	0.52580 0.69110 0.33640 0.02700
C 	C 	0.59050 0.66690 0.28230 -0.00100
H 	H 	0.57870 0.62310 0.24650 -0.01400
N 	N 	0.64006 0.70290 0.29170 -0.25700
C 	C 	0.64050 0.75960 0.34890 0.06800
H 	H 	0.66990 0.79290 0.36910 -0.03400
Cd	Cd	0.71980 0.64822 0.25174 1.13200
N 	N 	0.70233 0.72150 0.13560 -0.27400
N 	N 	0.79196 0.55700 0.24820 -0.26500
C 	C 	0.72820 0.78560 0.10950 0.09500
H 	H 	0.76050 0.80630 0.13560 -0.04800
N 	N 	0.70380 0.81840 0.04200 -0.11700
N 	N 	0.86480 0.48970 0.30460 -0.10600
C 	C 	0.68550 0.96440 0.98300 0.00800
C 	C 	0.84030 0.56640 0.28930 0.07200
H 	H 	0.85530 0.61980 0.30560 -0.03400
C 	C 	0.98070 0.39550 0.27480 -0.07200
H 	H 	0.96810 0.34300 0.29130 0.05500
C 	C 	0.98110 0.54920 0.27430 -0.07300
H 	H 	0.96850 0.60170 0.29080 0.04400
C 	C 	0.64080 0.96150 0.92300 -0.03200
H 	H 	0.63410 0.91230 0.89150 0.03300
C 	C 	0.72260 0.88920 0.99550 -0.08200
H 	H 	0.75670 0.90930 0.02230 0.03500
H 	H 	0.72790 0.86650 0.94460 0.03500
C 	C 	0.96120 0.47140 0.29950 0.05500
C 	C 	0.78670 0.46830 0.23740 -0.02100
H 	H 	0.75700 0.44080 0.21010 -0.02400
C 	C 	0.83070 0.42770 0.27200 -0.00300
H 	H 	0.83670 0.36810 0.27330 0.01200
C 	C 	0.91760 0.47410 0.34990 -0.12200
H 	H 	0.92540 0.51970 0.38900 0.06500
H 	H 	0.91710 0.41940 0.37780 0.06700
C 	C 	0.65750 0.71380 0.08170 -0.00000
H 	H 	0.63050 0.67390 0.08470 -0.01500
C 	C 	0.65780 0.77160 0.02410 -0.01600
H 	H 	0.63180 0.77880 0.98020 0.02400
C 	C 	0.60700 0.03230 0.91140 -0.10800
H 	H 	0.57770 0.02970 0.87190 0.07500
C 	C 	0.61530 0.10530 0.95570 0.08000
C 	C 	0.57940 0.18410 0.94080 -0.13400
H 	H 	0.58290 0.21960 0.98800 0.05500
H 	H 	0.54270 0.16520 0.92860 0.06700
C 	C 	0.65860 0.10720 0.01550 -0.11300
H 	H 	0.66510 0.15640 0.04700 0.03100
C 	C 	0.69180 0.03720 0.02840 -0.03000
H 	H 	0.71980 0.03940 0.07000 -0.00800
N 	N 	0.59315 0.23590 0.87500 -0.10500
C 	C 	0.56100 0.29620 0.83200 -0.02800
H 	H 	0.52580 0.30890 0.83640 0.02700
C 	C 	0.59050 0.33310 0.78230 -0.00100
H 	H 	0.57870 0.37690 0.74650 -0.01400
N 	N 	0.64006 0.29710 0.79170 -0.25700
C 	C 	0.64050 0.24040 0.84890 0.06800
H 	H 	0.66990 0.20710 0.86910 -0.03400
Cd	Cd	0.28020 0.64822 0.24826 1.13200
N 	N 	0.29767 0.72150 0.36440 -0.27400
N 	N 	0.20804 0.55700 0.25180 -0.26500
C 	C 	0.27180 0.78560 0.39050 0.09600
H 	H 	0.23950 0.80630 0.36440 -0.04800
N 	N 	0.29620 0.81840 0.45800 -0.11700
N 	N 	0.13520 0.48970 0.19540 -0.10600
C 	C 	0.31450 0.96440 0.51700 0.00700
C 	C 	0.15970 0.56640 0.21070 0.07200
H 	H 	0.14470 0.61980 0.19440 -0.03400
C 	C 	0.01930 0.39550 0.22520 -0.07200
H 	H 	0.03190 0.34300 0.20870 0.05500
C 	C 	0.01890 0.54920 0.22570 -0.07300
H 	H 	0.03150 0.60170 0.20920 0.04400
C 	C 	0.35920 0.96150 0.57700 -0.03000
H 	H 	0.36590 0.91230 0.60850 0.03200
C 	C 	0.27740 0.88920 0.50450 -0.08000
H 	H 	0.24330 0.90930 0.47770 0.03400
H 	H 	0.27210 0.86650 0.55540 0.03500
C 	C 	0.03880 0.47140 0.20050 0.05400
C 	C 	0.21330 0.46830 0.26260 -0.02100
H 	H 	0.24300 0.44080 0.28990 -0.02400
C 	C 	0.16930 0.42770 0.22800 -0.00300
H 	H 	0.16330 0.36810 0.22670 0.01200
C 	C 	0.08240 0.47410 0.15010 -0.12200
H 	H 	0.07460 0.51970 0.11100 0.06500
H 	H 	0.08290 0.41940 0.12220 0.06700
C 	C 	0.34250 0.71380 0.41830 0.00000
H 	H 	0.36950 0.67390 0.41530 -0.01500
C 	C 	0.34220 0.77160 0.47590 -0.01600
H 	H 	0.36820 0.77880 0.51980 0.02500
C 	C 	0.39300 0.03230 0.58860 -0.10900
H 	H 	0.42230 0.02970 0.62810 0.07500
C 	C 	0.38470 0.10530 0.54430 0.08000
C 	C 	0.42060 0.18410 0.55920 -0.13400
H 	H 	0.41710 0.21960 0.51200 0.05500
H 	H 	0.45730 0.16520 0.57140 0.06700
C 	C 	0.34140 0.10720 0.48450 -0.11200
H 	H 	0.33490 0.15640 0.45300 0.03100
C 	C 	0.30820 0.03720 0.47160 -0.02900
H 	H 	0.28020 0.03940 0.43000 -0.00800
N 	N 	0.40685 0.23590 0.62500 -0.10500
C 	C 	0.43900 0.29620 0.66800 -0.02800
H 	H 	0.47420 0.30890 0.66360 0.02700
C 	C 	0.40950 0.33310 0.71770 -0.00100
H 	H 	0.42130 0.37690 0.75350 -0.01400
N 	N 	0.35994 0.29710 0.70830 -0.25700
C 	C 	0.35950 0.24040 0.65110 0.06800
H 	H 	0.33010 0.20710 0.63090 -0.03400
