data_crystal

_cell_length_a 8.70000
_cell_length_b 18.14600
_cell_length_c 9.08700
_cell_angle_alpha 90.00000
_cell_angle_beta  107.28000
_cell_angle_gamma 90.00000

_symmetry_space_group_name_	'P 1'
_symmetry_space_group_name_H-M	'P 1'

loop_
_symmetry_equiv_pos_as_xyz
  x,y,z

loop_
_atom_site_label
_atom_site_type_symbol
_atom_site_fract_x
_atom_site_fract_y
_atom_site_fract_z
_atom_site_charge
Ga	Ga	0.08180 0.29520 0.29110 2.08800
Ga	Ga	0.13640 0.10790 0.16100 2.08700
Ga	Ga	0.52910 0.32090 0.19660 2.07700
P 	P 	0.35020 0.42680 0.35960 0.71800
P 	P 	0.81480 0.29300 0.48200 0.67200
P 	P 	0.26700 0.16940 0.49650 0.65600
O 	O 	0.03950 0.20500 0.18000 -1.04000
O 	O 	0.19830 0.38120 0.30190 -0.61900
O 	O 	0.26060 0.25000 0.44250 -0.65000
O 	O 	0.96440 0.30600 0.43230 -0.63700
O 	O 	0.42220 0.15610 0.62420 -0.55900
O 	O 	0.47120 0.40450 0.27320 -0.69600
O 	O 	0.84730 0.23200 0.60480 -0.69500
O 	O 	0.11970 0.15170 0.55000 -0.68400
O 	O 	0.67210 0.26650 0.34600 -0.67600
O 	O 	0.26270 0.11510 0.36640 -0.57600
O 	O 	0.42860 0.41440 0.53070 -0.63400
O 	O 	0.30150 0.50640 0.32350 -0.55200
O 	O 	0.77160 0.36480 0.54670 -0.63700
H 	H 	0.96360 0.21310 0.09630 0.35700
Ga	Ga	0.41820 0.79520 0.20890 2.08800
Ga	Ga	0.36360 0.60790 0.33900 2.08700
Ga	Ga	0.97090 0.82090 0.30340 2.07600
P 	P 	0.14980 0.92680 0.14040 0.71300
P 	P 	0.68520 0.79300 0.01800 0.66600
P 	P 	0.23300 0.66940 0.00350 0.65000
O 	O 	0.46050 0.70500 0.32000 -1.02700
O 	O 	0.30170 0.88120 0.19810 -0.61800
O 	O 	0.23940 0.75000 0.05750 -0.65000
O 	O 	0.53560 0.80600 0.06770 -0.64300
O 	O 	0.07780 0.65610 0.87580 -0.55300
O 	O 	0.02880 0.90450 0.22680 -0.69100
O 	O 	0.65270 0.73200 0.89520 -0.69500
O 	O 	0.38030 0.65170 0.95000 -0.67800
O 	O 	0.82790 0.76650 0.15400 -0.67900
O 	O 	0.23730 0.61510 0.13360 -0.57500
O 	O 	0.07140 0.91440 0.96930 -0.62400
O 	O 	0.19850 0.00640 0.17650 -0.55400
O 	O 	0.72840 0.86480 0.95330 -0.63600
H 	H 	0.53640 0.71310 0.40370 0.34400
Ga	Ga	0.91820 0.70480 0.70890 2.08700
Ga	Ga	0.86360 0.89210 0.83900 2.08600
Ga	Ga	0.47090 0.67910 0.80340 2.07700
P 	P 	0.64980 0.57320 0.64040 0.71800
P 	P 	0.18520 0.70700 0.51800 0.67200
P 	P 	0.73300 0.83060 0.50350 0.65600
O 	O 	0.96050 0.79500 0.82000 -1.04000
O 	O 	0.80170 0.61880 0.69810 -0.61900
O 	O 	0.73940 0.75000 0.55750 -0.65000
O 	O 	0.03560 0.69400 0.56770 -0.63700
O 	O 	0.57780 0.84390 0.37580 -0.55900
O 	O 	0.52880 0.59550 0.72680 -0.69600
O 	O 	0.15270 0.76800 0.39520 -0.69500
O 	O 	0.88030 0.84830 0.45000 -0.68400
O 	O 	0.32790 0.73350 0.65400 -0.67600
O 	O 	0.73730 0.88490 0.63360 -0.57600
O 	O 	0.57140 0.58560 0.46930 -0.63400
O 	O 	0.69850 0.49360 0.67650 -0.55200
O 	O 	0.22840 0.63520 0.45330 -0.63700
H 	H 	0.03640 0.78690 0.90370 0.35700
Ga	Ga	0.58180 0.20480 0.79110 2.08800
Ga	Ga	0.63640 0.39210 0.66100 2.08700
Ga	Ga	0.02910 0.17910 0.69660 2.07600
P 	P 	0.85020 0.07320 0.85960 0.71300
P 	P 	0.31480 0.20700 0.98200 0.66600
P 	P 	0.76700 0.33060 0.99650 0.65000
O 	O 	0.53950 0.29500 0.68000 -1.02700
O 	O 	0.69830 0.11880 0.80190 -0.61800
O 	O 	0.76060 0.25000 0.94250 -0.65000
O 	O 	0.46440 0.19400 0.93230 -0.64300
O 	O 	0.92220 0.34390 0.12420 -0.55300
O 	O 	0.97120 0.09550 0.77320 -0.69100
O 	O 	0.34730 0.26800 0.10480 -0.69500
O 	O 	0.61970 0.34830 0.05000 -0.67800
O 	O 	0.17210 0.23350 0.84600 -0.67900
O 	O 	0.76270 0.38490 0.86640 -0.57500
O 	O 	0.92860 0.08560 0.03070 -0.62400
O 	O 	0.80150 0.99360 0.82350 -0.55400
O 	O 	0.27160 0.13520 0.04670 -0.63600
H 	H 	0.46360 0.28690 0.59630 0.34400
