data_crystal

_cell_length_a 16.15800
_cell_length_b 18.17100
_cell_length_c 18.95500
_cell_angle_alpha 99.19000
_cell_angle_beta  106.28000
_cell_angle_gamma 116.34000

_symmetry_space_group_name_	'P 1'
_symmetry_space_group_name_H-M	'P 1'

loop_
_symmetry_equiv_pos_as_xyz
  x,y,z

loop_
_atom_site_label
_atom_site_type_symbol
_atom_site_fract_x
_atom_site_fract_y
_atom_site_fract_z
_atom_site_charge
O 	O 	0.31520 0.86159 0.10803 -0.46000
O 	O 	0.11800 0.85430 0.10080 -0.50000
O 	O 	0.19220 0.77144 0.99398 -0.42000
O 	O 	0.94870 0.86600 0.93638 -0.25100
O 	O 	0.15970 0.79779 0.18820 -0.46000
O 	O 	0.35910 0.00470 0.23280 -0.42800
O 	O 	0.03700 0.80540 0.91172 -0.42400
O 	O 	0.35780 0.81680 0.26639 -0.42300
O 	O 	0.14930 0.01120 0.04520 -0.26900
O 	O 	0.50620 0.92680 0.28810 -0.29700
O 	O 	0.25500 0.97670 0.01990 -0.43600
C 	C 	0.96470 0.82080 0.89230 0.32200
C 	C 	0.26960 0.79080 0.05120 0.34300
O 	O 	0.32770 0.97970 0.33360 -0.33100
C 	C 	0.36300 0.02890 0.29880 0.34700
C 	C 	0.22900 0.03130 0.03460 0.32200
Zn	Zn	0.30431 0.87873 0.21282 1.23800
Zn	Zn	0.15344 0.86212 0.01036 1.23900
N 	N 	0.55840 0.53900 0.14270 -0.19100
C 	C 	0.68580 0.62290 0.09990 -0.23700
H 	H 	0.63950 0.63120 0.06550 0.11900
C 	C 	0.40400 0.76130 0.10870 0.01100
H 	H 	0.44290 0.81900 0.14120 0.04200
C 	C 	0.95820 0.69530 0.16520 0.05900
H 	H 	0.00540 0.68780 0.19940 0.02800
C 	C 	0.44400 0.72140 0.31460 0.00600
H 	H 	0.37470 0.69300 0.28760 0.04900
C 	C 	0.38310 0.61800 0.06640 0.12600
C 	C 	0.85550 0.64920 0.15670 -0.09200
C 	C 	0.78660 0.66370 0.10540 0.15400
C 	C 	0.65570 0.57230 0.14340 0.17800
C 	C 	0.42300 0.56240 0.07590 -0.21400
H 	H 	0.38500 0.50470 0.04350 0.10900
C 	C 	0.51130 0.30630 0.41210 0.11700
C 	C 	0.44200 0.70550 0.11640 -0.05900
C 	C 	0.53980 0.73560 0.17370 0.03100
H 	H 	0.57990 0.79350 0.20570 0.03000
C 	C 	0.28950 0.59020 0.00880 -0.17100
H 	H 	0.25150 0.53340 0.97440 0.09700
N 	N 	0.62760 0.54550 0.44420 -0.18500
C 	C 	0.51560 0.59220 0.13160 0.15900
C 	C 	0.81940 0.71870 0.06290 -0.19300
H 	H 	0.77320 0.72640 0.02770 0.10700
C 	C 	0.55740 0.39840 0.44870 -0.21100
H 	H 	0.56860 0.42000 0.50050 0.10900
C 	C 	0.49460 0.44940 0.12660 0.16100
C 	C 	0.98760 0.74960 0.12440 -0.15600
C 	C 	0.68930 0.64740 0.57190 -0.21900
H 	H 	0.64050 0.66120 0.55210 0.11400
C 	C 	0.09590 0.80290 0.13750 0.42100
C 	C 	0.41440 0.42360 0.15310 -0.16900
H 	H 	0.40700 0.46580 0.18070 0.09600
C 	C 	0.49410 0.27410 0.33470 -0.05500
C 	C 	0.45530 0.85610 0.29330 0.32600
C 	C 	0.89750 0.71250 0.76120 0.00600
H 	H 	0.94540 0.69820 0.78200 0.04800
C 	C 	0.75790 0.69150 0.65110 0.12600
C 	C 	0.58440 0.45370 0.40880 0.16000
C 	C 	0.91630 0.76090 0.07170 0.09800
H 	H 	0.93640 0.79750 0.04310 0.02100
C 	C 	0.82120 0.59250 0.19730 0.05700
H 	H 	0.86560 0.58020 0.22890 0.01500
C 	C 	0.43130 0.58560 0.33290 0.02400
H 	H 	0.36190 0.55590 0.30530 0.02400
C 	C 	0.35940 0.27520 0.09890 -0.05600
C 	C 	0.47600 0.24590 0.45110 -0.15300
H 	H 	0.48510 0.26650 0.50250 0.09100
C 	C 	0.35040 0.34010 0.13870 0.03200
H 	H 	0.29830 0.32500 0.15580 0.02400
C 	C 	0.89450 0.77540 0.80680 -0.09000
C 	C 	0.25240 0.64470 0.00170 0.05700
H 	H 	0.18980 0.62470 0.96300 0.03000
C 	C 	0.50770 0.38750 0.08870 -0.21500
H 	H 	0.56030 0.40420 0.07210 0.11100
C 	C 	0.44210 0.29820 0.07440 0.11900
C 	C 	0.69300 0.58620 0.52500 0.16800
C 	C 	0.75670 0.75760 0.70020 -0.15200
H 	H 	0.70920 0.77290 0.68080 0.09300
C 	C 	0.82900 0.66760 0.68180 -0.06000
C 	C 	0.30970 0.73170 0.05350 -0.12200
C 	C 	0.57400 0.68070 0.18160 -0.15800
H 	H 	0.63670 0.70080 0.22020 0.09500
C 	C 	0.44470 0.18140 0.29870 0.00600
H 	H 	0.43480 0.15960 0.24730 0.05500
C 	C 	0.29010 0.18730 0.08270 -0.00700
H 	H 	0.23490 0.17170 0.09600 0.06200
C 	C 	0.49990 0.80710 0.32630 -0.09500
C 	C 	0.72500 0.55480 0.19200 -0.18300
H 	H 	0.70420 0.51750 0.21990 0.09800
C 	C 	0.42890 0.15820 0.41490 0.05300
H 	H 	0.40790 0.12030 0.44240 0.03500
C 	C 	0.41190 0.12480 0.33710 -0.09600
C 	C 	0.30400 0.12460 0.04740 -0.08200
C 	C 	0.82490 0.79990 0.77620 0.04400
H 	H 	0.82480 0.84490 0.80740 0.03800
C 	C 	0.56830 0.42220 0.32980 -0.15800
H 	H 	0.58720 0.46060 0.30240 0.09100
C 	C 	0.47510 0.54180 0.36340 -0.16200
H 	H 	0.43570 0.48300 0.35630 0.09200
C 	C 	0.63750 0.67230 0.41300 -0.20900
H 	H 	0.70710 0.70080 0.43820 0.11000
C 	C 	0.82990 0.60180 0.63070 0.03700
H 	H 	0.87690 0.58580 0.64960 0.02200
C 	C 	0.59430 0.71950 0.38350 0.11900
C 	C 	0.52510 0.33530 0.29450 0.02600
H 	H 	0.51530 0.31500 0.24290 0.03000
C 	C 	0.58180 0.58700 0.40640 0.15700
C 	C 	0.76460 0.56220 0.55550 -0.17000
H 	H 	0.76630 0.51890 0.52360 0.09700
C 	C 	0.48770 0.67300 0.34200 -0.05700
C 	C 	0.65220 0.80770 0.39490 -0.15000
H 	H 	0.72190 0.83640 0.42030 0.08700
C 	C 	0.38120 0.14500 0.02410 0.04700
H 	H 	0.38820 0.10050 -0.00000 0.03900
C 	C 	0.60690 0.85320 0.36860 0.04200
H 	H 	0.64540 0.91270 0.37840 0.03500
C 	C 	0.45060 0.23110 0.03540 -0.15000
H 	H 	0.50150 0.24380 0.01730 0.09200
O 	O 	0.68480 0.13841 0.89197 -0.46200
O 	O 	0.88200 0.14570 0.89920 -0.50100
O 	O 	0.80780 0.22856 0.00602 -0.42300
O 	O 	0.05130 0.13400 0.06362 -0.25200
O 	O 	0.84030 0.20221 0.81180 -0.46000
O 	O 	0.64090 0.99530 0.76720 -0.42800
O 	O 	0.96300 0.19460 0.08828 -0.42500
O 	O 	0.64220 0.18320 0.73361 -0.42300
O 	O 	0.85070 0.98880 0.95480 -0.26900
O 	O 	0.49380 0.07320 0.71190 -0.29700
O 	O 	0.74500 0.02330 0.98010 -0.43500
C 	C 	0.03530 0.17920 0.10770 0.32200
C 	C 	0.73040 0.20920 0.94880 0.34700
O 	O 	0.67230 0.02030 0.66640 -0.33100
C 	C 	0.63700 0.97110 0.70120 0.34700
C 	C 	0.77100 0.96870 0.96540 0.32400
Zn	Zn	0.69569 0.12127 0.78718 1.23800
Zn	Zn	0.84656 0.13788 0.98964 1.24000
N 	N 	0.44160 0.46100 0.85730 -0.19100
C 	C 	0.31420 0.37710 0.90010 -0.23700
H 	H 	0.36050 0.36880 0.93450 0.12000
C 	C 	0.59600 0.23870 0.89130 0.01200
H 	H 	0.55710 0.18100 0.85880 0.04100
C 	C 	0.04180 0.30470 0.83480 0.05900
H 	H 	0.99460 0.31220 0.80060 0.02800
C 	C 	0.55600 0.27860 0.68540 0.00600
H 	H 	0.62530 0.30700 0.71240 0.04900
C 	C 	0.61690 0.38200 0.93360 0.12500
C 	C 	0.14450 0.35080 0.84330 -0.09300
C 	C 	0.21340 0.33630 0.89460 0.15500
C 	C 	0.34430 0.42770 0.85660 0.17800
C 	C 	0.57700 0.43760 0.92410 -0.21300
H 	H 	0.61500 0.49530 0.95650 0.11000
C 	C 	0.48870 0.69370 0.58790 0.11700
C 	C 	0.55800 0.29450 0.88360 -0.06000
C 	C 	0.46020 0.26440 0.82630 0.03200
H 	H 	0.42010 0.20650 0.79430 0.03000
C 	C 	0.71050 0.40980 0.99120 -0.16800
H 	H 	0.74850 0.46660 0.02560 0.09400
N 	N 	0.37240 0.45450 0.55580 -0.18500
C 	C 	0.48440 0.40780 0.86840 0.16000
C 	C 	0.18060 0.28130 0.93710 -0.19300
H 	H 	0.22680 0.27360 0.97230 0.10800
C 	C 	0.44260 0.60160 0.55130 -0.21100
H 	H 	0.43140 0.58000 0.49950 0.10900
C 	C 	0.50540 0.55060 0.87340 0.16400
C 	C 	0.01240 0.25040 0.87560 -0.15600
C 	C 	0.31070 0.35260 0.42810 -0.21900
H 	H 	0.35950 0.33880 0.44790 0.11400
C 	C 	0.90410 0.19710 0.86250 0.42200
C 	C 	0.58560 0.57640 0.84690 -0.17200
H 	H 	0.59300 0.53420 0.81930 0.09700
C 	C 	0.50590 0.72590 0.66530 -0.05500
C 	C 	0.54470 0.14390 0.70670 0.32600
C 	C 	0.10250 0.28750 0.23880 0.00600
H 	H 	0.05460 0.30180 0.21800 0.04800
C 	C 	0.24210 0.30850 0.34890 0.12600
C 	C 	0.41560 0.54630 0.59120 0.16000
C 	C 	0.08370 0.23910 0.92830 0.09900
H 	H 	0.06360 0.20250 0.95690 0.02100
C 	C 	0.17880 0.40750 0.80270 0.05700
H 	H 	0.13440 0.41980 0.77110 0.01500
C 	C 	0.56870 0.41440 0.66710 0.02400
H 	H 	0.63810 0.44410 0.69470 0.02400
C 	C 	0.64060 0.72480 0.90110 -0.06000
C 	C 	0.52400 0.75410 0.54890 -0.15300
H 	H 	0.51490 0.73350 0.49750 0.09100
C 	C 	0.64960 0.65990 0.86130 0.03600
H 	H 	0.70170 0.67500 0.84420 0.02300
C 	C 	0.10550 0.22460 0.19320 -0.09000
C 	C 	0.74760 0.35530 0.99830 0.06200
H 	H 	0.81020 0.37530 0.03700 0.02600
C 	C 	0.49230 0.61250 0.91130 -0.21900
H 	H 	0.43970 0.59580 0.92790 0.11300
C 	C 	0.55790 0.70180 0.92560 0.12400
C 	C 	0.30700 0.41380 0.47500 0.16800
C 	C 	0.24330 0.24240 0.29980 -0.15200
H 	H 	0.29080 0.22710 0.31920 0.09300
C 	C 	0.17100 0.33240 0.31820 -0.06000
C 	C 	0.69030 0.26830 0.94650 -0.12400
C 	C 	0.42600 0.31930 0.81840 -0.15800
H 	H 	0.36330 0.29920 0.77980 0.09500
C 	C 	0.55530 0.81860 0.70130 0.00600
H 	H 	0.56520 0.84040 0.75270 0.05500
C 	C 	0.70990 0.81270 0.91730 -0.00100
H 	H 	0.76510 0.82830 0.90400 0.06000
C 	C 	0.50010 0.19290 0.67370 -0.09500
C 	C 	0.27500 0.44520 0.80800 -0.18400
H 	H 	0.29580 0.48250 0.78010 0.09800
C 	C 	0.57110 0.84180 0.58510 0.05300
H 	H 	0.59210 0.87970 0.55760 0.03500
C 	C 	0.58810 0.87520 0.66290 -0.09600
C 	C 	0.69600 0.87540 0.95260 -0.08900
C 	C 	0.17510 0.20010 0.22380 0.04500
H 	H 	0.17520 0.15510 0.19260 0.03800
C 	C 	0.43170 0.57780 0.67020 -0.15800
H 	H 	0.41280 0.53940 0.69760 0.09100
C 	C 	0.52490 0.45820 0.63660 -0.16200
H 	H 	0.56430 0.51700 0.64370 0.09200
C 	C 	0.36250 0.32770 0.58700 -0.20900
H 	H 	0.29290 0.29920 0.56180 0.11000
C 	C 	0.17010 0.39820 0.36930 0.03700
H 	H 	0.12310 0.41420 0.35040 0.02200
C 	C 	0.40570 0.28050 0.61650 0.11900
C 	C 	0.47490 0.66470 0.70550 0.02600
H 	H 	0.48470 0.68500 0.75710 0.03000
C 	C 	0.41820 0.41300 0.59360 0.15700
C 	C 	0.23540 0.43780 0.44450 -0.17000
H 	H 	0.23370 0.48110 0.47640 0.09700
C 	C 	0.51230 0.32700 0.65800 -0.05700
C 	C 	0.34780 0.19230 0.60510 -0.15000
H 	H 	0.27810 0.16360 0.57970 0.08700
C 	C 	0.61880 0.85500 0.97590 0.06100
H 	H 	0.61180 0.89950 -0.00000 0.03100
C 	C 	0.39310 0.14680 0.63140 0.04100
H 	H 	0.35460 0.08730 0.62160 0.03500
C 	C 	0.54940 0.76890 0.96460 -0.15800
H 	H 	0.49850 0.75620 0.98270 0.09600
