data_crystal

_cell_length_a 8.45520
_cell_length_b 10.06140
_cell_length_c 12.82180
_cell_angle_alpha 109.01200
_cell_angle_beta  90.92200
_cell_angle_gamma 91.29800

_symmetry_space_group_name_	'P 1'
_symmetry_space_group_name_H-M	'P 1'

loop_
_symmetry_equiv_pos_as_xyz
  x,y,z

loop_
_atom_site_label
_atom_site_type_symbol
_atom_site_fract_x
_atom_site_fract_y
_atom_site_fract_z
_atom_site_charge
Zn	Zn	0.05299 0.18217 0.15604 1.23800
Zn	Zn	0.25982 0.99832 0.54517 1.23300
Zn	Zn	0.18587 0.38327 0.48538 1.23000
P 	P 	0.01905 0.48974 0.30993 0.50900
P 	P 	0.06043 0.08686 0.37536 0.50300
P 	P 	0.50830 0.74784 0.44890 0.55500
P 	P 	0.22787 0.05194 0.92913 0.52600
O 	O 	0.17080 0.47960 0.37520 -0.46800
O 	O 	0.87150 0.47720 0.37356 -0.44600
O 	O 	0.02630 0.64010 0.29390 -0.29000
O 	O 	0.01370 0.38310 0.19410 -0.38800
O 	O 	0.17390 0.98230 0.40046 -0.42400
O 	O 	0.04930 0.22080 0.47667 -0.49900
O 	O 	0.89290 0.01550 0.34531 -0.44000
O 	O 	0.12570 0.12230 0.27649 -0.45200
O 	O 	0.40090 0.65280 0.34830 -0.36300
O 	O 	0.40420 0.84490 0.53540 -0.43700
O 	O 	0.61450 0.82700 0.39210 -0.43600
O 	O 	0.59340 0.65470 0.50210 -0.43600
O 	O 	0.21900 0.13650 0.05098 -0.40200
O 	O 	0.15640 0.90040 0.90120 -0.40300
O 	O 	0.12280 0.13100 0.86620 -0.37800
O 	O 	0.39750 0.04120 0.89180 -0.18500
H 	H 	0.32940 0.59650 0.36390 0.25200
H 	H 	0.00910 0.71920 0.36140 0.16000
H 	H 	0.12190 0.08250 0.79320 0.24000
Zn	Zn	0.94701 0.81783 0.84396 1.23900
Zn	Zn	0.74018 0.00168 0.45483 1.23400
Zn	Zn	0.81413 0.61673 0.51462 1.23000
P 	P 	0.98095 0.51026 0.69007 0.50900
P 	P 	0.93957 0.91314 0.62464 0.50300
P 	P 	0.49170 0.25216 0.55110 0.55500
P 	P 	0.77213 0.94806 0.07087 0.52600
O 	O 	0.82920 0.52040 0.62480 -0.46800
O 	O 	0.12850 0.52280 0.62644 -0.44600
O 	O 	0.97370 0.35990 0.70610 -0.29000
O 	O 	0.98630 0.61690 0.80590 -0.38800
O 	O 	0.82610 0.01770 0.59954 -0.42400
O 	O 	0.95070 0.77920 0.52333 -0.49900
O 	O 	0.10710 0.98450 0.65469 -0.44000
O 	O 	0.87430 0.87770 0.72351 -0.45200
O 	O 	0.59910 0.34720 0.65170 -0.36300
O 	O 	0.59580 0.15510 0.46460 -0.43700
O 	O 	0.38550 0.17300 0.60790 -0.43600
O 	O 	0.40660 0.34530 0.49790 -0.43600
O 	O 	0.78100 0.86350 0.94902 -0.40200
O 	O 	0.84360 0.09960 0.09880 -0.40300
O 	O 	0.87720 0.86900 0.13380 -0.37800
O 	O 	0.60250 0.95880 0.10820 -0.18500
H 	H 	0.67060 0.40350 0.63610 0.25200
H 	H 	0.99090 0.28080 0.63860 0.16000
H 	H 	0.87810 0.91750 0.20680 0.24000
