data_crystal

_cell_length_a 19.93600
_cell_length_b 19.93600
_cell_length_c 25.39700
_cell_angle_alpha 66.89060
_cell_angle_beta  66.89060
_cell_angle_gamma 89.99990

_symmetry_space_group_name_	'P 1'
_symmetry_space_group_name_H-M	'P 1'

loop_
_symmetry_equiv_pos_as_xyz
  x,y,z

loop_
_atom_site_label
_atom_site_type_symbol
_atom_site_fract_x
_atom_site_fract_y
_atom_site_fract_z
_atom_site_charge
Zr	Zr	0.05781 0.05781 0.88438 3.21300
Zr	Zr	0.94219 0.94219 0.11562 3.21300
Zr	Zr	0.87487 0.99916 -0.00000 3.17600
Zr	Zr	0.12513 0.00084 1.00000 3.17600
Zr	Zr	0.99916 0.12513 1.00000 3.17600
Zr	Zr	0.00084 0.87487 -0.00000 3.17600
H 	H 	0.00250 0.15530 0.72600 0.00600
H 	H 	0.96930 0.19180 0.64140 0.08600
H 	H 	0.75800 0.08570 0.76340 0.07700
H 	H 	0.79120 0.04920 0.84800 -0.03000
H 	H 	0.89240 0.27490 0.60060 0.02700
H 	H 	0.84690 0.32330 0.52360 0.06400
H 	H 	0.73010 0.11950 0.58700 0.06400
H 	H 	0.77560 0.07130 0.66380 0.02400
H 	H 	0.27150 0.11870 0.72600 0.00900
H 	H 	0.38930 0.16680 0.64140 0.08300
H 	H 	0.47860 0.15090 0.76340 0.07500
H 	H 	0.36080 0.10280 0.84800 -0.03000
H 	H 	0.50700 0.12450 0.60060 0.02700
H 	H 	0.62950 0.15310 0.52360 0.06400
H 	H 	0.68290 0.29350 0.58700 0.06400
H 	H 	0.56060 0.26490 0.66380 0.02500
H 	H 	0.15530 0.27150 0.72600 0.01000
H 	H 	0.19180 0.38930 0.64140 0.08300
H 	H 	0.08570 0.47860 0.76340 0.07600
H 	H 	0.04920 0.36080 0.84800 -0.02900
H 	H 	0.27490 0.50700 0.60060 0.02700
H 	H 	0.32330 0.62950 0.52360 0.06400
H 	H 	0.11950 0.68290 0.58700 0.06400
H 	H 	0.07130 0.56060 0.66380 0.02500
H 	H 	0.11870 0.00250 0.72600 -0.00800
H 	H 	0.16680 0.96930 0.64140 0.09000
H 	H 	0.15090 0.75800 0.76340 0.07900
H 	H 	0.10280 0.79120 0.84800 -0.03000
H 	H 	0.12450 0.89240 0.60060 0.02800
H 	H 	0.15310 0.84690 0.52360 0.06500
H 	H 	0.29350 0.73010 0.58700 0.06400
H 	H 	0.26490 0.77560 0.66380 0.02400
H 	H 	0.99750 0.84470 0.27400 0.00500
H 	H 	0.03070 0.80820 0.35860 0.08500
H 	H 	0.24200 0.91430 0.23660 0.07600
H 	H 	0.20880 0.95080 0.15200 -0.03100
H 	H 	0.10760 0.72510 0.39940 0.02700
H 	H 	0.15310 0.67670 0.47640 0.06400
H 	H 	0.26990 0.88050 0.41300 0.06400
H 	H 	0.22440 0.92870 0.33620 0.02400
H 	H 	0.72850 0.88130 0.27400 0.00900
H 	H 	0.61070 0.83320 0.35860 0.08300
H 	H 	0.52140 0.84910 0.23660 0.07500
H 	H 	0.63920 0.89720 0.15200 -0.03000
H 	H 	0.49300 0.87550 0.39940 0.02700
H 	H 	0.37050 0.84690 0.47640 0.06400
H 	H 	0.31710 0.70650 0.41300 0.06400
H 	H 	0.43940 0.73510 0.33620 0.02500
H 	H 	0.84470 0.72850 0.27400 0.01000
H 	H 	0.80820 0.61070 0.35860 0.08300
H 	H 	0.91430 0.52140 0.23660 0.07600
H 	H 	0.95080 0.63920 0.15200 -0.02900
H 	H 	0.72510 0.49300 0.39940 0.02700
H 	H 	0.67670 0.37050 0.47640 0.06400
H 	H 	0.88050 0.31710 0.41300 0.06400
H 	H 	0.92870 0.43940 0.33620 0.02500
H 	H 	0.88130 0.99750 0.27400 -0.00800
H 	H 	0.83320 0.03070 0.35860 0.09000
H 	H 	0.84910 0.24200 0.23660 0.07900
H 	H 	0.89720 0.20880 0.15200 -0.03000
H 	H 	0.87550 0.10760 0.39940 0.02800
H 	H 	0.84690 0.15310 0.47640 0.06500
H 	H 	0.70650 0.26990 0.41300 0.06400
H 	H 	0.73510 0.22440 0.33620 0.02400
C 	C 	0.92565 0.07805 0.84550 0.54500
C 	C 	0.89991 0.09881 0.79498 -0.23100
C 	C 	0.95281 0.14121 0.73358 0.11800
C 	C 	0.93316 0.16286 0.68328 -0.17300
C 	C 	0.86061 0.14221 0.69438 0.10200
C 	C 	0.80772 0.09982 0.75576 -0.17900
C 	C 	0.82737 0.07817 0.80606 0.11600
C 	C 	0.83831 0.16861 0.63938 -0.04600
C 	C 	0.85952 0.24342 0.59776 -0.00800
C 	C 	0.83244 0.27204 0.55212 -0.10700
C 	C 	0.78426 0.22596 0.54808 0.07000
C 	C 	0.76306 0.15116 0.58968 -0.10400
C 	C 	0.79013 0.12243 0.63534 -0.00800
C 	C 	0.22885 0.07645 0.84550 0.54300
C 	C 	0.30511 0.10621 0.79498 -0.22700
C 	C 	0.31361 0.12521 0.73358 0.10900
C 	C 	0.38356 0.15386 0.68328 -0.16900
C 	C 	0.44501 0.16341 0.69438 0.09900
C 	C 	0.43652 0.14442 0.75576 -0.17700
C 	C 	0.36657 0.11577 0.80606 0.11300
C 	C 	0.52231 0.19201 0.63938 -0.04500
C 	C 	0.54272 0.15882 0.59776 -0.00800
C 	C 	0.61544 0.17584 0.55212 -0.10700
C 	C 	0.66766 0.22596 0.54808 0.06900
C 	C 	0.64726 0.25916 0.58968 -0.10400
C 	C 	0.57453 0.24223 0.63534 -0.00900
C 	C 	0.07805 0.22885 0.84550 0.54400
C 	C 	0.09881 0.30511 0.79498 -0.22700
C 	C 	0.14121 0.31361 0.73358 0.11000
C 	C 	0.16286 0.38356 0.68328 -0.16800
C 	C 	0.14221 0.44501 0.69438 0.10000
C 	C 	0.09982 0.43652 0.75576 -0.17600
C 	C 	0.07817 0.36657 0.80606 0.11300
C 	C 	0.16861 0.52231 0.63938 -0.04500
C 	C 	0.24342 0.54272 0.59776 -0.00900
C 	C 	0.27204 0.61544 0.55212 -0.10600
C 	C 	0.22596 0.66766 0.54808 0.06900
C 	C 	0.15116 0.64726 0.58968 -0.10400
C 	C 	0.12243 0.57453 0.63534 -0.00900
C 	C 	0.07645 0.92565 0.84550 0.54800
C 	C 	0.10621 0.89991 0.79498 -0.23600
C 	C 	0.12521 0.95281 0.73358 0.13900
C 	C 	0.15386 0.93316 0.68328 -0.18400
C 	C 	0.16341 0.86061 0.69438 0.10900
C 	C 	0.14442 0.80772 0.75576 -0.18300
C 	C 	0.11577 0.82737 0.80606 0.12300
C 	C 	0.19201 0.83831 0.63938 -0.04800
C 	C 	0.15882 0.85952 0.59776 -0.00600
C 	C 	0.17584 0.83244 0.55212 -0.10800
C 	C 	0.22596 0.78426 0.54808 0.07000
C 	C 	0.25916 0.76306 0.58968 -0.10500
C 	C 	0.24223 0.79013 0.63534 -0.00700
C 	C 	0.07435 0.92195 0.15450 0.54500
C 	C 	0.10009 0.90119 0.20502 -0.23100
C 	C 	0.04719 0.85879 0.26642 0.11800
C 	C 	0.06684 0.83714 0.31672 -0.17300
C 	C 	0.13939 0.85779 0.30562 0.10200
C 	C 	0.19228 0.90018 0.24424 -0.17900
C 	C 	0.17263 0.92183 0.19394 0.11600
C 	C 	0.16169 0.83139 0.36062 -0.04600
C 	C 	0.14048 0.75658 0.40224 -0.00800
C 	C 	0.16756 0.72796 0.44788 -0.10700
C 	C 	0.21574 0.77404 0.45192 0.07000
C 	C 	0.23694 0.84884 0.41032 -0.10400
C 	C 	0.20987 0.87757 0.36466 -0.00800
C 	C 	0.77115 0.92355 0.15450 0.54300
C 	C 	0.69489 0.89379 0.20502 -0.22700
C 	C 	0.68639 0.87479 0.26642 0.10900
C 	C 	0.61644 0.84614 0.31672 -0.16900
C 	C 	0.55499 0.83659 0.30562 0.09900
C 	C 	0.56348 0.85558 0.24424 -0.17700
C 	C 	0.63343 0.88423 0.19394 0.11300
C 	C 	0.47769 0.80799 0.36062 -0.04500
C 	C 	0.45728 0.84118 0.40224 -0.00800
C 	C 	0.38456 0.82416 0.44788 -0.10700
C 	C 	0.33234 0.77404 0.45192 0.06900
C 	C 	0.35274 0.74084 0.41032 -0.10400
C 	C 	0.42547 0.75777 0.36466 -0.00900
C 	C 	0.92195 0.77115 0.15450 0.54400
C 	C 	0.90119 0.69489 0.20502 -0.22700
C 	C 	0.85879 0.68639 0.26642 0.11000
C 	C 	0.83714 0.61644 0.31672 -0.16800
C 	C 	0.85779 0.55499 0.30562 0.10000
C 	C 	0.90018 0.56348 0.24424 -0.17600
C 	C 	0.92183 0.63343 0.19394 0.11300
C 	C 	0.83139 0.47769 0.36062 -0.04500
C 	C 	0.75658 0.45728 0.40224 -0.00900
C 	C 	0.72796 0.38456 0.44788 -0.10600
C 	C 	0.77404 0.33234 0.45192 0.06900
C 	C 	0.84884 0.35274 0.41032 -0.10400
C 	C 	0.87757 0.42547 0.36466 -0.00900
C 	C 	0.92355 0.07435 0.15450 0.54800
C 	C 	0.89379 0.10009 0.20502 -0.23600
C 	C 	0.87479 0.04719 0.26642 0.13900
C 	C 	0.84614 0.06684 0.31672 -0.18400
C 	C 	0.83659 0.13939 0.30562 0.10900
C 	C 	0.85558 0.19228 0.24424 -0.18300
C 	C 	0.88423 0.17263 0.19394 0.12300
C 	C 	0.80799 0.16169 0.36062 -0.04800
C 	C 	0.84118 0.14048 0.40224 -0.00600
C 	C 	0.82416 0.16756 0.44788 -0.10800
C 	C 	0.77404 0.21574 0.45192 0.07000
C 	C 	0.74084 0.23694 0.41032 -0.10500
C 	C 	0.75777 0.20987 0.36466 -0.00700
C 	C 	0.75000 0.25000 0.50000 -0.09400
C 	C 	0.25000 0.75000 0.50000 -0.09400
O 	O 	0.99203 0.08363 0.83114 -0.69500
O 	O 	0.87172 0.04482 0.90416 -0.74600
O 	O 	0.96481 0.09281 0.94338 -1.34800
O 	O 	0.17683 0.08523 0.83114 -0.69800
O 	O 	0.22412 0.05102 0.90416 -0.74800
O 	O 	0.09181 0.96381 0.94338 -1.33200
O 	O 	0.08363 0.17683 0.83114 -0.69500
O 	O 	0.04482 0.22412 0.90416 -0.74600
O 	O 	0.09281 0.09181 0.94338 -1.35100
O 	O 	0.08523 0.99203 0.83114 -0.68600
O 	O 	0.05102 0.87172 0.90416 -0.73900
O 	O 	0.96381 0.96481 0.94338 -1.33800
O 	O 	0.00797 0.91637 0.16886 -0.69500
O 	O 	0.12828 0.95518 0.09584 -0.74600
O 	O 	0.03519 0.90719 0.05662 -1.34800
O 	O 	0.82317 0.91477 0.16886 -0.69800
O 	O 	0.77588 0.94898 0.09584 -0.74800
O 	O 	0.90819 0.03619 0.05662 -1.33200
O 	O 	0.91637 0.82317 0.16886 -0.69500
O 	O 	0.95518 0.77588 0.09584 -0.74600
O 	O 	0.90719 0.90819 0.05662 -1.35100
O 	O 	0.91477 0.00797 0.16886 -0.68600
O 	O 	0.94898 0.12828 0.09584 -0.73900
O 	O 	0.03619 0.03519 0.05662 -1.33800
