data_crystal

_cell_length_a 21.04000
_cell_length_b 21.04000
_cell_length_c 24.99900
_cell_angle_alpha 65.11370
_cell_angle_beta  65.11370
_cell_angle_gamma 89.99990

_symmetry_space_group_name_	'P 1'
_symmetry_space_group_name_H-M	'P 1'

loop_
_symmetry_equiv_pos_as_xyz
  x,y,z

loop_
_atom_site_label
_atom_site_type_symbol
_atom_site_fract_x
_atom_site_fract_y
_atom_site_fract_z
_atom_site_charge
Hf	Hf	0.56122 0.56122 0.87756 1.49100
Hf	Hf	0.43878 0.43878 0.12244 1.49100
Hf	Hf	0.61700 0.49954 -0.00000 1.38600
Hf	Hf	0.38300 0.50046 -0.00000 1.38600
Hf	Hf	0.49954 0.38300 1.00000 1.38600
Hf	Hf	0.50046 0.61700 1.00000 1.38600
H 	H 	0.14060 0.66510 0.51100 0.06700
H 	H 	0.01830 0.62900 0.58660 0.03200
H 	H 	0.04970 0.73930 0.67600 0.03200
H 	H 	0.17200 0.77540 0.60040 0.06500
H 	H 	0.90420 0.68710 0.62860 0.07800
H 	H 	0.78210 0.64630 0.71020 0.02500
H 	H 	0.84450 0.57170 0.85320 0.01200
H 	H 	0.96500 0.61340 0.77000 0.07500
H 	H 	0.34840 0.82390 0.51100 0.06500
H 	H 	0.39510 0.78440 0.58660 0.03300
H 	H 	0.27430 0.58470 0.67600 0.03200
H 	H 	0.22760 0.62420 0.60040 0.06500
H 	H 	0.46720 0.68430 0.62860 0.07800
H 	H 	0.50770 0.64350 0.71020 0.02500
H 	H 	0.30230 0.57510 0.85320 0.01200
H 	H 	0.26500 0.61660 0.77000 0.07500
H 	H 	0.66510 0.34840 0.51100 0.06500
H 	H 	0.62900 0.39510 0.58660 0.03300
H 	H 	0.73930 0.27430 0.67600 0.03200
H 	H 	0.77540 0.22760 0.60040 0.06500
H 	H 	0.68710 0.46720 0.62860 0.07800
H 	H 	0.64630 0.50770 0.71020 0.02500
H 	H 	0.57170 0.30230 0.85320 0.01200
H 	H 	0.61340 0.26500 0.77000 0.07500
H 	H 	0.82390 0.14060 0.51100 0.06500
H 	H 	0.78440 0.01830 0.58660 0.03200
H 	H 	0.58470 0.04970 0.67600 0.03200
H 	H 	0.62420 0.17200 0.60040 0.06500
H 	H 	0.68430 0.90420 0.62860 0.07800
H 	H 	0.64350 0.78210 0.71020 0.02500
H 	H 	0.57510 0.84450 0.85320 0.01200
H 	H 	0.61660 0.96500 0.77000 0.07500
H 	H 	0.85940 0.33490 0.48900 0.06500
H 	H 	0.98170 0.37100 0.41340 0.03200
H 	H 	0.95030 0.26070 0.32400 0.03200
H 	H 	0.82800 0.22460 0.39960 0.06500
H 	H 	0.09580 0.31290 0.37140 0.07800
H 	H 	0.21790 0.35370 0.28980 0.02500
H 	H 	0.15550 0.42830 0.14680 0.01200
H 	H 	0.03500 0.38660 0.23000 0.07500
H 	H 	0.65160 0.17610 0.48900 0.06500
H 	H 	0.60490 0.21560 0.41340 0.03300
H 	H 	0.72570 0.41530 0.32400 0.03200
H 	H 	0.77240 0.37580 0.39960 0.06500
H 	H 	0.53280 0.31570 0.37140 0.07800
H 	H 	0.49230 0.35650 0.28980 0.02500
H 	H 	0.69770 0.42490 0.14680 0.01200
H 	H 	0.73500 0.38340 0.23000 0.07500
H 	H 	0.33490 0.65160 0.48900 0.06500
H 	H 	0.37100 0.60490 0.41340 0.03300
H 	H 	0.26070 0.72570 0.32400 0.03200
H 	H 	0.22460 0.77240 0.39960 0.06500
H 	H 	0.31290 0.53280 0.37140 0.07800
H 	H 	0.35370 0.49230 0.28980 0.02500
H 	H 	0.42830 0.69770 0.14680 0.01200
H 	H 	0.38660 0.73500 0.23000 0.07500
H 	H 	0.17610 0.85940 0.48900 0.06500
H 	H 	0.21560 0.98170 0.41340 0.03200
H 	H 	0.41530 0.95030 0.32400 0.03200
H 	H 	0.37580 0.82800 0.39960 0.06500
H 	H 	0.31570 0.09580 0.37140 0.07800
H 	H 	0.35650 0.21790 0.28980 0.02500
H 	H 	0.42490 0.15550 0.14680 0.01200
H 	H 	0.38340 0.03500 0.23000 0.07500
C 	C 	0.16788 0.72370 0.54852 0.06500
C 	C 	0.02240 0.68080 0.63840 -0.03700
C 	C 	0.12218 0.68028 0.54444 -0.10000
C 	C 	0.04952 0.65872 0.58936 -0.01200
C 	C 	0.06815 0.72425 0.64250 -0.01300
C 	C 	0.14082 0.74572 0.59756 -0.09900
C 	C 	0.94400 0.65393 0.69200 0.09200
C 	C 	0.89220 0.66360 0.67440 -0.14400
C 	C 	0.81900 0.63920 0.72320 0.06500
C 	C 	0.80260 0.60550 0.78860 -0.13900
C 	C 	0.85590 0.59520 0.80740 0.06300
C 	C 	0.92750 0.62010 0.75780 -0.14200
C 	C 	0.72460 0.57730 0.84240 0.39100
C 	C 	0.28360 0.72778 0.54852 0.06500
C 	C 	0.33920 0.68080 0.63840 -0.03700
C 	C 	0.33338 0.77528 0.54444 -0.10000
C 	C 	0.36112 0.75192 0.58936 -0.01200
C 	C 	0.28935 0.63325 0.64250 -0.01300
C 	C 	0.26162 0.65672 0.59756 -0.09900
C 	C 	0.36400 0.65407 0.69200 0.09100
C 	C 	0.43340 0.66200 0.67440 -0.14400
C 	C 	0.45780 0.63760 0.72320 0.06500
C 	C 	0.40880 0.60590 0.78860 -0.13900
C 	C 	0.33670 0.59740 0.80740 0.06300
C 	C 	0.31470 0.62210 0.75780 -0.14200
C 	C 	0.43300 0.58030 0.84240 0.39100
C 	C 	0.72370 0.28360 0.54852 0.06500
C 	C 	0.68080 0.33920 0.63840 -0.03700
C 	C 	0.68028 0.33338 0.54444 -0.10000
C 	C 	0.65872 0.36112 0.58936 -0.01200
C 	C 	0.72425 0.28935 0.64250 -0.01300
C 	C 	0.74572 0.26162 0.59756 -0.09900
C 	C 	0.65393 0.36400 0.69200 0.09100
C 	C 	0.66360 0.43340 0.67440 -0.14400
C 	C 	0.63920 0.45780 0.72320 0.06500
C 	C 	0.60550 0.40880 0.78860 -0.13900
C 	C 	0.59520 0.33670 0.80740 0.06300
C 	C 	0.62010 0.31470 0.75780 -0.14200
C 	C 	0.57730 0.43300 0.84240 0.39100
C 	C 	0.72778 0.16788 0.54852 0.06500
C 	C 	0.68080 0.02240 0.63840 -0.03700
C 	C 	0.77528 0.12218 0.54444 -0.10000
C 	C 	0.75192 0.04952 0.58936 -0.01200
C 	C 	0.63325 0.06815 0.64250 -0.01300
C 	C 	0.65672 0.14082 0.59756 -0.09900
C 	C 	0.65407 0.94400 0.69200 0.09200
C 	C 	0.66200 0.89220 0.67440 -0.14400
C 	C 	0.63760 0.81900 0.72320 0.06500
C 	C 	0.60590 0.80260 0.78860 -0.13900
C 	C 	0.59740 0.85590 0.80740 0.06300
C 	C 	0.62210 0.92750 0.75780 -0.14200
C 	C 	0.58030 0.72460 0.84240 0.39100
C 	C 	0.83212 0.27630 0.45148 0.06500
C 	C 	0.97760 0.31920 0.36160 -0.03700
C 	C 	0.87782 0.31972 0.45556 -0.10000
C 	C 	0.95048 0.34128 0.41064 -0.01200
C 	C 	0.93185 0.27575 0.35750 -0.01300
C 	C 	0.85918 0.25428 0.40244 -0.09900
C 	C 	0.05600 0.34607 0.30800 0.09200
C 	C 	0.10780 0.33640 0.32560 -0.14400
C 	C 	0.18100 0.36080 0.27680 0.06500
C 	C 	0.19740 0.39450 0.21140 -0.13900
C 	C 	0.14410 0.40480 0.19260 0.06300
C 	C 	0.07250 0.37990 0.24220 -0.14200
C 	C 	0.27540 0.42270 0.15760 0.39100
C 	C 	0.71640 0.27222 0.45148 0.06500
C 	C 	0.66080 0.31920 0.36160 -0.03700
C 	C 	0.66662 0.22472 0.45556 -0.10000
C 	C 	0.63888 0.24808 0.41064 -0.01200
C 	C 	0.71065 0.36675 0.35750 -0.01300
C 	C 	0.73838 0.34328 0.40244 -0.09900
C 	C 	0.63600 0.34593 0.30800 0.09100
C 	C 	0.56660 0.33800 0.32560 -0.14400
C 	C 	0.54220 0.36240 0.27680 0.06500
C 	C 	0.59120 0.39410 0.21140 -0.13900
C 	C 	0.66330 0.40260 0.19260 0.06300
C 	C 	0.68530 0.37790 0.24220 -0.14200
C 	C 	0.56700 0.41970 0.15760 0.39100
C 	C 	0.27630 0.71640 0.45148 0.06500
C 	C 	0.31920 0.66080 0.36160 -0.03700
C 	C 	0.31972 0.66662 0.45556 -0.10000
C 	C 	0.34128 0.63888 0.41064 -0.01200
C 	C 	0.27575 0.71065 0.35750 -0.01300
C 	C 	0.25428 0.73838 0.40244 -0.09900
C 	C 	0.34607 0.63600 0.30800 0.09100
C 	C 	0.33640 0.56660 0.32560 -0.14400
C 	C 	0.36080 0.54220 0.27680 0.06500
C 	C 	0.39450 0.59120 0.21140 -0.13900
C 	C 	0.40480 0.66330 0.19260 0.06300
C 	C 	0.37990 0.68530 0.24220 -0.14200
C 	C 	0.42270 0.56700 0.15760 0.39100
C 	C 	0.27222 0.83212 0.45148 0.06500
C 	C 	0.31920 0.97760 0.36160 -0.03700
C 	C 	0.22472 0.87782 0.45556 -0.10000
C 	C 	0.24808 0.95048 0.41064 -0.01200
C 	C 	0.36675 0.93185 0.35750 -0.01300
C 	C 	0.34328 0.85918 0.40244 -0.09900
C 	C 	0.34593 0.05600 0.30800 0.09200
C 	C 	0.33800 0.10780 0.32560 -0.14400
C 	C 	0.36240 0.18100 0.27680 0.06500
C 	C 	0.39410 0.19740 0.21140 -0.13900
C 	C 	0.40260 0.14410 0.19260 0.06300
C 	C 	0.37790 0.07250 0.24220 -0.14200
C 	C 	0.41970 0.27540 0.15760 0.39100
C 	C 	0.25000 0.75000 0.50000 -0.08600
C 	C 	0.75000 0.25000 0.50000 -0.08600
O 	O 	0.67727 0.58847 0.82226 -0.39300
O 	O 	0.71480 0.54820 0.90140 -0.43900
O 	O 	0.58869 0.47039 0.94162 -0.58600
O 	O 	0.50047 0.58927 0.82226 -0.39300
O 	O 	0.38380 0.55040 0.90140 -0.44000
O 	O 	0.46969 0.58799 0.94162 -0.58600
O 	O 	0.58847 0.50047 0.82226 -0.39300
O 	O 	0.54820 0.38380 0.90140 -0.44000
O 	O 	0.47039 0.46969 0.94162 -0.58600
O 	O 	0.58927 0.67727 0.82226 -0.39300
O 	O 	0.55040 0.71480 0.90140 -0.43900
O 	O 	0.58799 0.58869 0.94162 -0.58600
O 	O 	0.32273 0.41153 0.17774 -0.39300
O 	O 	0.28520 0.45180 0.09860 -0.43900
O 	O 	0.41131 0.52961 0.05838 -0.58600
O 	O 	0.49953 0.41073 0.17774 -0.39300
O 	O 	0.61620 0.44960 0.09860 -0.44000
O 	O 	0.53031 0.41201 0.05838 -0.58600
O 	O 	0.41153 0.49953 0.17774 -0.39300
O 	O 	0.45180 0.61620 0.09860 -0.44000
O 	O 	0.52961 0.53031 0.05838 -0.58600
O 	O 	0.41073 0.32273 0.17774 -0.39300
O 	O 	0.44960 0.28520 0.09860 -0.43900
O 	O 	0.41201 0.41131 0.05838 -0.58600
