data_crystal

_cell_length_a 10.22400
_cell_length_b 11.21720
_cell_length_c 11.33020
_cell_angle_alpha 69.05900
_cell_angle_beta  76.93000
_cell_angle_gamma 88.66600

_symmetry_space_group_name_	'P 1'
_symmetry_space_group_name_H-M	'P 1'

loop_
_symmetry_equiv_pos_as_xyz
  x,y,z

loop_
_atom_site_label
_atom_site_type_symbol
_atom_site_fract_x
_atom_site_fract_y
_atom_site_fract_z
_atom_site_charge
Cd	Cd	0.11656 0.36480 0.47451 1.18900
Cd	Cd	0.66101 0.94091 0.89664 1.15800
Cd	Cd	0.72536 0.20400 0.28745 1.19100
N 	N 	0.29630 0.39407 0.55144 -0.21200
N 	N 	0.19630 0.10016 0.96680 -0.22100
O 	O 	0.08872 0.53962 0.56637 -0.50500
O 	O 	0.16680 0.61831 0.69431 -0.43600
O 	O 	0.52150 0.21597 0.40838 -0.46100
O 	O 	0.31290 0.26293 0.39342 -0.44500
O 	O 	0.56676 0.34796 0.78131 -0.48300
H 	H 	0.52420 0.32370 0.85720 0.20000
O 	O 	0.43786 0.00952 0.90243 -0.54000
O 	O 	0.37414 0.96596 0.74500 -0.45600
O 	O 	0.93060 0.20643 0.15612 -0.43500
O 	O 	0.12590 0.13250 0.19481 -0.44600
O 	O 	0.98483 0.25656 0.68275 -0.40300
C 	C 	0.28580 0.45610 0.63470 0.00700
C 	C 	0.37330 0.44420 0.71250 -0.19500
H 	H 	0.36050 0.48750 0.77010 0.06400
C 	C 	0.48370 0.36610 0.70550 0.26400
C 	C 	0.49860 0.30990 0.61070 -0.18000
H 	H 	0.57260 0.26270 0.59670 0.07600
C 	C 	0.40360 0.32500 0.53900 -0.00000
C 	C 	0.17150 0.54360 0.63260 0.32400
C 	C 	0.41390 0.26240 0.43930 0.33900
C 	C 	0.23070 0.08290 0.85220 -0.01400
C 	C 	0.15930 0.12730 0.75790 -0.16800
H 	H 	0.18520 0.10990 0.68180 0.04600
C 	C 	0.04670 0.19920 0.77610 0.20100
C 	C 	0.00500 0.20510 0.90160 -0.16000
H 	H 	0.92540 0.24240 0.92330 0.07100
C 	C 	0.08130 0.15600 0.99170 -0.00100
C 	C 	0.35700 0.01370 0.83190 0.32600
C 	C 	0.04320 0.16520 0.12400 0.30300
Cd	Cd	0.88344 0.63520 0.52549 1.19000
Cd	Cd	0.33899 0.05909 0.10336 1.15900
Cd	Cd	0.27464 0.79600 0.71255 1.19200
N 	N 	0.70370 0.60593 0.44856 -0.21100
N 	N 	0.80370 0.89984 0.03320 -0.22100
O 	O 	0.91128 0.46038 0.43363 -0.50500
O 	O 	0.83320 0.38169 0.30569 -0.43600
O 	O 	0.47850 0.78403 0.59162 -0.46100
O 	O 	0.68710 0.73707 0.60658 -0.44500
O 	O 	0.43324 0.65204 0.21869 -0.48300
H 	H 	0.47580 0.67630 0.14280 0.20000
O 	O 	0.56214 0.99048 0.09757 -0.54000
O 	O 	0.62586 0.03404 0.25500 -0.45600
O 	O 	0.06940 0.79357 0.84388 -0.43500
O 	O 	0.87410 0.86750 0.80519 -0.44600
O 	O 	0.01517 0.74344 0.31725 -0.40300
C 	C 	0.71420 0.54390 0.36530 0.00700
C 	C 	0.62670 0.55580 0.28750 -0.19500
H 	H 	0.63950 0.51250 0.22990 0.06400
C 	C 	0.51630 0.63390 0.29450 0.26400
C 	C 	0.50140 0.69010 0.38930 -0.18000
H 	H 	0.42740 0.73730 0.40330 0.07600
C 	C 	0.59640 0.67500 0.46100 -0.00000
C 	C 	0.82850 0.45640 0.36740 0.32400
C 	C 	0.58610 0.73760 0.56070 0.33900
C 	C 	0.76930 0.91710 0.14780 -0.01400
C 	C 	0.84070 0.87270 0.24210 -0.16800
H 	H 	0.81480 0.89010 0.31820 0.04600
C 	C 	0.95330 0.80080 0.22390 0.20100
C 	C 	0.99500 0.79490 0.09840 -0.16000
H 	H 	0.07460 0.75760 0.07670 0.07100
C 	C 	0.91870 0.84400 0.00830 -0.00100
C 	C 	0.64300 0.98630 0.16810 0.32600
C 	C 	0.95680 0.83480 0.87600 0.30300
