data_crystal

_cell_length_a 10.29690
_cell_length_b 15.75120
_cell_length_c 18.77120
_cell_angle_alpha 90.00000
_cell_angle_beta  90.00000
_cell_angle_gamma 90.00000

_symmetry_space_group_name_	'P 1'
_symmetry_space_group_name_H-M	'P 1'

loop_
_symmetry_equiv_pos_as_xyz
  x,y,z

loop_
_atom_site_label
_atom_site_type_symbol
_atom_site_fract_x
_atom_site_fract_y
_atom_site_fract_z
_atom_site_charge
Co	Co	0.73967 0.85981 0.99710 1.03100
Co	Co	0.26033 0.14019 0.49710 1.06600
Co	Co	0.76033 0.35981 0.99710 1.03100
Co	Co	0.23967 0.64019 0.49710 1.06500
H 	H 	0.68180 0.81890 0.15410 -0.03800
H 	H 	0.73900 0.73070 0.24750 0.08500
H 	H 	0.97730 0.60510 0.11250 0.08600
H 	H 	0.91210 0.69580 0.02260 -0.00900
H 	H 	0.96610 0.63970 0.28510 0.09600
H 	H 	0.97660 0.56060 0.23220 0.09200
H 	H 	0.84670 0.53670 0.33990 0.01400
H 	H 	0.73890 0.59750 0.30550 0.01200
H 	H 	0.82510 0.44070 0.24360 0.07000
H 	H 	0.72230 0.50230 0.20620 0.07700
H 	H 	0.57060 0.47610 0.29880 0.01800
H 	H 	0.61090 0.38920 0.26070 0.02100
H 	H 	0.76760 0.36860 0.35790 0.08700
H 	H 	0.69780 0.44610 0.39760 0.08900
H 	H 	0.43480 0.42240 0.40400 0.08800
H 	H 	0.28660 0.32680 0.44860 -0.02900
H 	H 	0.54160 0.14160 0.43900 -0.03700
H 	H 	0.69710 0.23140 0.39340 0.08000
H 	H 	0.77990 0.89750 0.83930 -0.04500
H 	H 	0.75110 0.99900 0.75230 0.08300
H 	H 	0.53070 0.13270 0.89090 0.06600
H 	H 	0.57270 0.02950 0.97560 -0.06500
H 	H 	0.54650 0.18030 0.76460 0.08300
H 	H 	0.62560 0.12330 0.70870 0.08300
H 	H 	0.73350 0.24650 0.80480 0.00500
H 	H 	0.82510 0.17720 0.76810 0.02000
H 	H 	0.77200 0.23090 0.65490 0.07300
H 	H 	0.83830 0.30200 0.70330 0.07600
H 	H 	0.63040 0.36400 0.72380 0.01300
H 	H 	0.56600 0.29370 0.67330 0.01000
H 	H 	0.75610 0.41450 0.62600 0.08500
H 	H 	0.69210 0.34430 0.57570 0.09100
H 	H 	0.68270 0.55140 0.59230 0.07900
H 	H 	0.52290 0.64130 0.55300 -0.03700
H 	H 	0.26630 0.45680 0.55340 -0.03300
H 	H 	0.41840 0.36150 0.59390 0.09100
H 	H 	0.31820 0.18110 0.65410 -0.04600
H 	H 	0.26100 0.26930 0.74750 0.08400
H 	H 	0.02270 0.39490 0.61250 0.07700
H 	H 	0.08790 0.30420 0.52260 -0.04000
H 	H 	0.03390 0.36030 0.78510 0.09700
H 	H 	0.02340 0.43940 0.73220 0.09100
H 	H 	0.15330 0.46330 0.83990 0.00900
H 	H 	0.26110 0.40250 0.80550 0.00800
H 	H 	0.17490 0.55930 0.74360 0.06800
H 	H 	0.27770 0.49770 0.70620 0.07500
H 	H 	0.42940 0.52390 0.79880 0.01800
H 	H 	0.38910 0.61080 0.76070 0.02400
H 	H 	0.23240 0.63140 0.85790 0.07700
H 	H 	0.30220 0.55390 0.89760 0.07100
H 	H 	0.56520 0.57760 0.90400 0.07600
H 	H 	0.71340 0.67320 0.94860 -0.04600
H 	H 	0.45840 0.85840 0.93900 -0.04600
H 	H 	0.30290 0.76860 0.89340 0.07000
H 	H 	0.22010 0.10250 0.33930 -0.04200
H 	H 	0.24890 0.00100 0.25230 0.08500
H 	H 	0.46930 0.86730 0.39090 0.07700
H 	H 	0.42730 0.97050 0.47560 -0.03900
H 	H 	0.45350 0.81970 0.26460 0.08800
H 	H 	0.37440 0.87670 0.20870 0.08900
H 	H 	0.26650 0.75350 0.30480 0.00400
H 	H 	0.17490 0.82280 0.26810 0.01700
H 	H 	0.22800 0.76910 0.15490 0.08200
H 	H 	0.16170 0.69800 0.20330 0.07900
H 	H 	0.36960 0.63600 0.22380 0.00900
H 	H 	0.43400 0.70630 0.17330 0.01000
H 	H 	0.24390 0.58550 0.12600 0.09700
H 	H 	0.30790 0.65570 0.07570 0.11400
H 	H 	0.31730 0.44860 0.09230 0.09000
H 	H 	0.47710 0.35870 0.05300 -0.02600
H 	H 	0.73370 0.54320 0.05340 -0.01500
H 	H 	0.58160 0.63850 0.09390 0.10300
H 	H 	0.81820 0.31890 0.15410 -0.03800
H 	H 	0.76100 0.23070 0.24750 0.08500
H 	H 	0.52270 0.10510 0.11250 0.08500
H 	H 	0.58790 0.19580 0.02260 -0.01000
H 	H 	0.53390 0.13970 0.28510 0.09600
H 	H 	0.52340 0.06060 0.23220 0.09100
H 	H 	0.65330 0.03670 0.33990 0.01500
H 	H 	0.76110 0.09750 0.30550 0.01300
H 	H 	0.67490 0.94070 0.24360 0.06900
H 	H 	0.77770 0.00230 0.20620 0.07500
H 	H 	0.92940 0.97610 0.29880 0.01800
H 	H 	0.88910 0.88920 0.26070 0.02200
H 	H 	0.73240 0.86860 0.35790 0.08600
H 	H 	0.80220 0.94610 0.39760 0.08900
H 	H 	0.06520 0.92240 0.40400 0.08800
H 	H 	0.21340 0.82680 0.44860 -0.02900
H 	H 	0.95840 0.64160 0.43900 -0.03700
H 	H 	0.80290 0.73140 0.39340 0.08000
H 	H 	0.72010 0.39750 0.83930 -0.04600
H 	H 	0.74890 0.49900 0.75230 0.08700
H 	H 	0.96930 0.63270 0.89090 0.06600
H 	H 	0.92730 0.52950 0.97560 -0.06600
H 	H 	0.95350 0.68030 0.76460 0.08400
H 	H 	0.87440 0.62330 0.70870 0.08300
H 	H 	0.76650 0.74650 0.80480 0.00500
H 	H 	0.67490 0.67720 0.76810 0.02000
H 	H 	0.72800 0.73090 0.65490 0.07300
H 	H 	0.66170 0.80200 0.70330 0.07600
H 	H 	0.86960 0.86400 0.72380 0.01300
H 	H 	0.93400 0.79370 0.67330 0.01000
H 	H 	0.74390 0.91450 0.62600 0.08500
H 	H 	0.80790 0.84430 0.57570 0.09000
H 	H 	0.81730 0.05140 0.59230 0.07900
H 	H 	0.97710 0.14130 0.55300 -0.03700
H 	H 	0.23370 0.95680 0.55340 -0.03300
H 	H 	0.08160 0.86150 0.59390 0.09000
H 	H 	0.18180 0.68110 0.65410 -0.04600
H 	H 	0.23900 0.76930 0.74750 0.08400
H 	H 	0.47730 0.89490 0.61250 0.07700
H 	H 	0.41210 0.80420 0.52260 -0.04000
H 	H 	0.46610 0.86030 0.78510 0.09700
H 	H 	0.47660 0.93940 0.73220 0.09000
H 	H 	0.34670 0.96330 0.83990 0.00900
H 	H 	0.23890 0.90250 0.80550 0.00900
H 	H 	0.32510 0.05930 0.74360 0.06700
H 	H 	0.22230 0.99770 0.70620 0.07400
H 	H 	0.07060 0.02390 0.79880 0.01800
H 	H 	0.11090 0.11080 0.76070 0.02400
H 	H 	0.26760 0.13140 0.85790 0.07700
H 	H 	0.19780 0.05390 0.89760 0.07200
H 	H 	0.93480 0.07760 0.90400 0.07700
H 	H 	0.78660 0.17320 0.94860 -0.04600
H 	H 	0.04160 0.35840 0.93900 -0.04500
H 	H 	0.19710 0.26860 0.89340 0.07100
H 	H 	0.27990 0.60250 0.33930 -0.04300
H 	H 	0.25110 0.50100 0.25230 0.08800
H 	H 	0.03070 0.36730 0.39090 0.07700
H 	H 	0.07270 0.47050 0.47560 -0.03900
H 	H 	0.04650 0.31970 0.26460 0.08700
H 	H 	0.12560 0.37670 0.20870 0.08800
H 	H 	0.23350 0.25350 0.30480 0.00500
H 	H 	0.32510 0.32280 0.26810 0.01700
H 	H 	0.27200 0.26910 0.15490 0.08200
H 	H 	0.33830 0.19800 0.20330 0.07900
H 	H 	0.13040 0.13600 0.22380 0.01000
H 	H 	0.06600 0.20630 0.17330 0.01000
H 	H 	0.25610 0.08550 0.12600 0.09500
H 	H 	0.19210 0.15570 0.07570 0.11200
H 	H 	0.18270 0.94860 0.09230 0.08800
H 	H 	0.02290 0.85870 0.05300 -0.02400
H 	H 	0.76630 0.04320 0.05340 -0.01400
H 	H 	0.91840 0.13850 0.09390 0.09900
C 	C 	0.74269 0.77480 0.14550 0.09400
C 	C 	0.77714 0.72266 0.20186 -0.19200
C 	C 	0.86813 0.65821 0.19131 0.15500
C 	C 	0.91665 0.64892 0.12265 -0.19400
C 	C 	0.87683 0.70336 0.06897 0.09900
C 	C 	0.91609 0.60352 0.25183 -0.24900
C 	C 	0.80981 0.55717 0.29435 0.02400
C 	C 	0.75436 0.48180 0.25284 -0.18000
C 	C 	0.64311 0.43576 0.29141 0.01400
C 	C 	0.68399 0.39894 0.36353 -0.23900
C 	C 	0.58468 0.33871 0.39367 0.15100
C 	C 	0.45953 0.36482 0.41070 -0.18900
C 	C 	0.37136 0.30719 0.43735 0.09200
C 	C 	0.51951 0.19951 0.43166 0.09300
C 	C 	0.61336 0.25280 0.40458 -0.19700
C 	C 	0.73130 0.94699 0.85054 0.08700
C 	C 	0.71350 0.00705 0.79803 -0.19300
C 	C 	0.64068 0.07944 0.81195 0.14900
C 	C 	0.58504 0.08593 0.87940 -0.20000
C 	C 	0.60985 0.02341 0.92959 0.09600
C 	C 	0.62840 0.14879 0.75692 -0.24200
C 	C 	0.74435 0.21050 0.76195 0.02200
C 	C 	0.75881 0.26741 0.69718 -0.18900
C 	C 	0.64579 0.32719 0.68194 0.02300
C 	C 	0.67530 0.38221 0.61672 -0.24800
C 	C 	0.57066 0.44394 0.59617 0.15500
C 	C 	0.59772 0.53001 0.58404 -0.19900
C 	C 	0.50179 0.58326 0.56031 0.09500
C 	C 	0.35272 0.47614 0.56069 0.09400
C 	C 	0.44324 0.41858 0.58490 -0.19500
C 	C 	0.25731 0.22520 0.64550 0.09300
C 	C 	0.22286 0.27734 0.70186 -0.19400
C 	C 	0.13187 0.34179 0.69131 0.15600
C 	C 	0.08335 0.35108 0.62265 -0.20000
C 	C 	0.12317 0.29664 0.56897 0.09800
C 	C 	0.08391 0.39648 0.75183 -0.25100
C 	C 	0.19019 0.44283 0.79435 0.02600
C 	C 	0.24564 0.51820 0.75284 -0.17800
C 	C 	0.35689 0.56424 0.79141 0.00600
C 	C 	0.31601 0.60106 0.86353 -0.22500
C 	C 	0.41532 0.66129 0.89367 0.13300
C 	C 	0.54047 0.63518 0.91070 -0.19100
C 	C 	0.62864 0.69281 0.93735 0.07800
C 	C 	0.48049 0.80049 0.93166 0.08000
C 	C 	0.38664 0.74720 0.90458 -0.19800
C 	C 	0.26870 0.05301 0.35054 0.09100
C 	C 	0.28650 0.99295 0.29803 -0.19600
C 	C 	0.35932 0.92056 0.31195 0.15300
C 	C 	0.41496 0.91407 0.37940 -0.19700
C 	C 	0.39015 0.97659 0.42959 0.09800
C 	C 	0.37160 0.85121 0.25692 -0.24900
C 	C 	0.25565 0.78950 0.26195 0.03100
C 	C 	0.24119 0.73259 0.19718 -0.20000
C 	C 	0.35421 0.67281 0.18194 0.03800
C 	C 	0.32470 0.61779 0.11672 -0.26800
C 	C 	0.42934 0.55606 0.09617 0.17600
C 	C 	0.40228 0.46999 0.08404 -0.19900
C 	C 	0.49821 0.41674 0.06031 0.10900
C 	C 	0.64728 0.52386 0.06069 0.10900
C 	C 	0.55676 0.58142 0.08490 -0.19400
C 	C 	0.75731 0.27480 0.14550 0.09300
C 	C 	0.72286 0.22266 0.20186 -0.19100
C 	C 	0.63187 0.15821 0.19131 0.15400
C 	C 	0.58335 0.14892 0.12265 -0.19400
C 	C 	0.62317 0.20336 0.06897 0.09900
C 	C 	0.58391 0.10352 0.25183 -0.24700
C 	C 	0.69019 0.05717 0.29435 0.02100
C 	C 	0.74564 0.98180 0.25284 -0.17700
C 	C 	0.85689 0.93576 0.29141 0.01200
C 	C 	0.81601 0.89894 0.36353 -0.23800
C 	C 	0.91532 0.83871 0.39367 0.15100
C 	C 	0.04047 0.86482 0.41070 -0.19000
C 	C 	0.12864 0.80719 0.43735 0.09200
C 	C 	0.98049 0.69951 0.43166 0.09300
C 	C 	0.88664 0.75280 0.40458 -0.19700
C 	C 	0.76870 0.44699 0.85054 0.09300
C 	C 	0.78650 0.50705 0.79803 -0.20100
C 	C 	0.85932 0.57944 0.81195 0.15200
C 	C 	0.91496 0.58593 0.87940 -0.20100
C 	C 	0.89015 0.52341 0.92959 0.09400
C 	C 	0.87160 0.64879 0.75692 -0.24400
C 	C 	0.75565 0.71050 0.76195 0.02300
C 	C 	0.74119 0.76741 0.69718 -0.18900
C 	C 	0.85421 0.82719 0.68194 0.02300
C 	C 	0.82470 0.88221 0.61672 -0.24700
C 	C 	0.92934 0.94394 0.59617 0.15300
C 	C 	0.90228 0.03001 0.58404 -0.19600
C 	C 	0.99821 0.08326 0.56031 0.09600
C 	C 	0.14728 0.97614 0.56069 0.09400
C 	C 	0.05676 0.91858 0.58490 -0.19300
C 	C 	0.24269 0.72520 0.64550 0.09300
C 	C 	0.27714 0.77734 0.70186 -0.19300
C 	C 	0.36813 0.84179 0.69131 0.15500
C 	C 	0.41665 0.85108 0.62265 -0.20000
C 	C 	0.37683 0.79664 0.56897 0.09800
C 	C 	0.41609 0.89648 0.75183 -0.25000
C 	C 	0.30981 0.94283 0.79435 0.02400
C 	C 	0.25436 0.01820 0.75284 -0.17500
C 	C 	0.14311 0.06424 0.79141 0.00500
C 	C 	0.18399 0.10106 0.86353 -0.22500
C 	C 	0.08468 0.16129 0.89367 0.13400
C 	C 	0.95953 0.13518 0.91070 -0.19000
C 	C 	0.87136 0.19281 0.93735 0.07800
C 	C 	0.01951 0.30049 0.93166 0.08100
C 	C 	0.11336 0.24720 0.90458 -0.19800
C 	C 	0.23130 0.55301 0.35054 0.09500
C 	C 	0.21350 0.49295 0.29803 -0.20200
C 	C 	0.14068 0.42056 0.31195 0.15500
C 	C 	0.08504 0.41407 0.37940 -0.19800
C 	C 	0.10985 0.47659 0.42959 0.09800
C 	C 	0.12840 0.35121 0.25692 -0.24900
C 	C 	0.24435 0.28950 0.26195 0.03000
C 	C 	0.25881 0.23259 0.19718 -0.19800
C 	C 	0.14579 0.17281 0.18194 0.03500
C 	C 	0.17530 0.11779 0.11672 -0.26100
C 	C 	0.07066 0.05606 0.09617 0.16300
C 	C 	0.09772 0.96999 0.08404 -0.19000
C 	C 	0.00179 0.91674 0.06031 0.10200
C 	C 	0.85272 0.02386 0.06069 0.10300
C 	C 	0.94324 0.08142 0.08490 -0.18400
N 	N 	0.79076 0.76640 0.07920 -0.24600
N 	N 	0.39872 0.22453 0.44836 -0.27200
N 	N 	0.68358 0.95470 0.91674 -0.27600
N 	N 	0.37914 0.55799 0.54669 -0.27400
N 	N 	0.20924 0.23360 0.57920 -0.26600
N 	N 	0.60128 0.77547 0.94836 -0.28100
N 	N 	0.31642 0.04530 0.41674 -0.26600
N 	N 	0.62086 0.44201 0.04669 -0.25600
N 	N 	0.70924 0.26640 0.07920 -0.24700
N 	N 	0.10128 0.72453 0.44836 -0.27200
N 	N 	0.81642 0.45470 0.91674 -0.27600
N 	N 	0.12086 0.05799 0.54669 -0.27400
N 	N 	0.29076 0.73360 0.57920 -0.26600
N 	N 	0.89872 0.27547 0.94836 -0.28100
N 	N 	0.18358 0.54530 0.41674 -0.26600
N 	N 	0.87914 0.94201 0.04669 -0.25200
