data_crystal

_cell_length_a 5.27880
_cell_length_b 15.46700
_cell_length_c 8.29500
_cell_angle_alpha 90.00000
_cell_angle_beta  92.55200
_cell_angle_gamma 90.00000

_symmetry_space_group_name_	'P 1'
_symmetry_space_group_name_H-M	'P 1'

loop_
_symmetry_equiv_pos_as_xyz
  x,y,z

loop_
_atom_site_label
_atom_site_type_symbol
_atom_site_fract_x
_atom_site_fract_y
_atom_site_fract_z
_atom_site_charge
N 	N 	0.90740 0.39648 0.55560 -0.21600
N 	N 	0.26270 0.21607 0.86850 -0.21900
C 	C 	0.85620 0.31231 0.58300 0.12400
C 	C 	0.29770 0.30112 0.84930 0.05500
H 	H 	0.18820 0.33880 0.89900 -0.01500
C 	C 	0.48690 0.33609 0.76010 -0.08800
H 	H 	0.50110 0.39570 0.74970 -0.00400
C 	C 	0.65630 0.28187 0.68570 0.00000
C 	C 	0.62270 0.19290 0.70650 -0.11900
H 	H 	0.73170 0.15380 0.66010 0.07100
C 	C 	0.42720 0.16378 0.79610 0.05000
H 	H 	0.40720 0.10440 0.80740 -0.00400
N 	N 	0.09260 0.39648 0.44440 -0.24800
N 	N 	0.73730 0.21607 0.13150 -0.24100
C 	C 	0.14380 0.31231 0.41700 0.07300
C 	C 	0.70230 0.30112 0.15070 0.04500
H 	H 	0.81180 0.33880 0.10100 -0.03500
C 	C 	0.51310 0.33609 0.23990 -0.11100
H 	H 	0.49890 0.39570 0.25030 -0.00500
C 	C 	0.34370 0.28187 0.31430 -0.00200
C 	C 	0.37730 0.19290 0.29350 -0.13900
H 	H 	0.26830 0.15380 0.33990 0.05200
C 	C 	0.57280 0.16378 0.20390 0.03400
H 	H 	0.59280 0.10440 0.19260 -0.02300
N 	N 	0.09260 0.60352 0.44440 -0.24800
N 	N 	0.73730 0.78393 0.13150 -0.24000
C 	C 	0.14380 0.68769 0.41700 0.07300
C 	C 	0.70230 0.69888 0.15070 0.04500
H 	H 	0.81180 0.66120 0.10100 -0.03400
C 	C 	0.51310 0.66391 0.23990 -0.11100
H 	H 	0.49890 0.60430 0.25030 -0.00500
C 	C 	0.34370 0.71813 0.31430 -0.00200
C 	C 	0.37730 0.80710 0.29350 -0.13900
H 	H 	0.26830 0.84620 0.33990 0.05200
C 	C 	0.57280 0.83622 0.20390 0.03400
H 	H 	0.59280 0.89560 0.19260 -0.02200
N 	N 	0.90740 0.60352 0.55560 -0.21700
N 	N 	0.26270 0.78393 0.86850 -0.21900
C 	C 	0.85620 0.68769 0.58300 0.12400
C 	C 	0.29770 0.69888 0.84930 0.05500
H 	H 	0.18820 0.66120 0.89900 -0.01500
C 	C 	0.48690 0.66391 0.76010 -0.08800
H 	H 	0.50110 0.60430 0.74970 -0.00400
C 	C 	0.65630 0.71813 0.68570 0.00000
C 	C 	0.62270 0.80710 0.70650 -0.11900
H 	H 	0.73170 0.84620 0.66010 0.07100
C 	C 	0.42720 0.83622 0.79610 0.04900
H 	H 	0.40720 0.89560 0.80740 -0.00200
Cu	Cu	0.90689 0.50000 0.70394 0.82600
N 	N 	0.97340 0.50000 0.93180 -0.10400
C 	C 	0.02660 0.50000 0.06820 -0.37100
Cu	Cu	0.09311 0.50000 0.29606 0.81100
Cu	Cu	0.00000 0.16160 -0.00000 0.79000
N 	N 	-0.00000 0.03760 -0.00000 -0.23500
C 	C 	-0.00000 0.96240 -0.00000 -0.25600
Cu	Cu	-0.00000 0.83840 -0.00000 0.79200
N 	N 	0.00000 0.25823 0.50000 -0.16300
N 	N 	0.00000 0.74177 0.50000 -0.16300
