data_crystal

_cell_length_a 8.75400
_cell_length_b 15.87300
_cell_length_c 9.46600
_cell_angle_alpha 90.00000
_cell_angle_beta  99.88700
_cell_angle_gamma 90.00000

_symmetry_space_group_name_	'P 1'
_symmetry_space_group_name_H-M	'P 1'

loop_
_symmetry_equiv_pos_as_xyz
  x,y,z

loop_
_atom_site_label
_atom_site_type_symbol
_atom_site_fract_x
_atom_site_fract_y
_atom_site_fract_z
_atom_site_charge
Er	Er	0.02832 0.19529 0.52451 1.89900
Se	Se	0.72203 0.27872 0.70871 0.74500
C 	C 	0.76900 0.20370 0.24900 0.26800
C 	C 	0.79250 0.29600 0.29800 0.26900
C 	C 	0.06750 0.99920 0.45850 0.27800
O 	O 	0.74130 0.37796 0.67410 -0.22400
O 	O 	0.88260 0.22730 0.69740 -0.42200
O 	O 	0.69690 0.26620 0.87480 -0.42200
O 	O 	0.57600 0.24140 0.59780 -0.26000
O 	O 	0.85220 0.15003 0.32550 -0.38100
O 	O 	0.66950 0.18904 0.14040 -0.34900
O 	O 	0.71030 0.35013 0.22090 -0.36000
O 	O 	0.88850 0.31024 0.40820 -0.36400
O 	O 	0.13950 0.06748 0.45430 -0.34600
O 	O 	0.09590 0.93063 0.40320 -0.33000
Er	Er	0.47168 0.69529 0.97549 1.90300
Se	Se	0.77797 0.77872 0.79129 0.74600
C 	C 	0.73100 0.70370 0.25100 0.26800
C 	C 	0.70750 0.79600 0.20200 0.26900
C 	C 	0.43250 0.49920 0.04150 0.27500
O 	O 	0.75870 0.87796 0.82590 -0.22600
O 	O 	0.61740 0.72730 0.80260 -0.42400
O 	O 	0.80310 0.76620 0.62520 -0.42400
O 	O 	0.92400 0.74140 0.90220 -0.26100
O 	O 	0.64780 0.65003 0.17450 -0.38200
O 	O 	0.83050 0.68904 0.35960 -0.34800
O 	O 	0.78970 0.85013 0.27910 -0.36000
O 	O 	0.61150 0.81024 0.09180 -0.36400
O 	O 	0.36050 0.56748 0.04570 -0.34200
O 	O 	0.40410 0.43063 0.09680 -0.33200
Er	Er	0.97168 0.80471 0.47549 1.90000
Se	Se	0.27797 0.72128 0.29129 0.74600
C 	C 	0.23100 0.79630 0.75100 0.26800
C 	C 	0.20750 0.70400 0.70200 0.26900
C 	C 	0.93250 0.00080 0.54150 0.27800
O 	O 	0.25870 0.62204 0.32590 -0.22400
O 	O 	0.11740 0.77270 0.30260 -0.42200
O 	O 	0.30310 0.73380 0.12520 -0.42200
O 	O 	0.42400 0.75860 0.40220 -0.26000
O 	O 	0.14780 0.84997 0.67450 -0.38100
O 	O 	0.33050 0.81096 0.85960 -0.34900
O 	O 	0.28970 0.64987 0.77910 -0.36000
O 	O 	0.11150 0.68976 0.59180 -0.36400
O 	O 	0.86050 0.93252 0.54570 -0.34600
O 	O 	0.90410 0.06937 0.59680 -0.33000
Er	Er	0.52832 0.30471 0.02451 1.90300
Se	Se	0.22203 0.22128 0.20871 0.74600
C 	C 	0.26900 0.29630 0.74900 0.26800
C 	C 	0.29250 0.20400 0.79800 0.26900
C 	C 	0.56750 0.50080 0.95850 0.27500
O 	O 	0.24130 0.12204 0.17410 -0.22600
O 	O 	0.38260 0.27270 0.19740 -0.42400
O 	O 	0.19690 0.23380 0.37480 -0.42400
O 	O 	0.07600 0.25860 0.09780 -0.26100
O 	O 	0.35220 0.34997 0.82550 -0.38200
O 	O 	0.16950 0.31096 0.64040 -0.34800
O 	O 	0.21030 0.14987 0.72090 -0.36000
O 	O 	0.38850 0.18976 0.90820 -0.36400
O 	O 	0.63950 0.43252 0.95430 -0.34200
O 	O 	0.59590 0.56937 0.90320 -0.33200
