data_crystal

_cell_length_a 8.77490
_cell_length_b 15.88030
_cell_length_c 9.50770
_cell_angle_alpha 90.00000
_cell_angle_beta  99.85500
_cell_angle_gamma 90.00000

_symmetry_space_group_name_	'P 1'
_symmetry_space_group_name_H-M	'P 1'

loop_
_symmetry_equiv_pos_as_xyz
  x,y,z

loop_
_atom_site_label
_atom_site_type_symbol
_atom_site_fract_x
_atom_site_fract_y
_atom_site_fract_z
_atom_site_charge
Y 	Y 	0.02877 0.19556 0.52519 2.39500
Se	Se	0.72186 0.27879 0.70901 0.70000
C 	C 	0.76960 0.20350 0.25000 0.25500
C 	C 	0.79240 0.29570 0.29850 0.24800
C 	C 	0.06820 0.99880 0.45890 0.26500
O 	O 	0.74010 0.37790 0.67350 -0.21000
O 	O 	0.88210 0.22826 0.69660 -0.47800
O 	O 	0.69690 0.26640 0.87530 -0.47600
O 	O 	0.57560 0.24090 0.59820 -0.24800
O 	O 	0.85330 0.15041 0.32600 -0.43600
O 	O 	0.67080 0.18921 0.14170 -0.40400
O 	O 	0.71050 0.34969 0.22180 -0.41200
O 	O 	0.88760 0.31045 0.40820 -0.41400
O 	O 	0.14010 0.06716 0.45550 -0.39800
O 	O 	0.09570 0.93097 0.40260 -0.37900
Y 	Y 	0.47123 0.69556 0.97481 2.39400
Se	Se	0.77814 0.77879 0.79099 0.69900
C 	C 	0.73040 0.70350 0.25000 0.25400
C 	C 	0.70760 0.79570 0.20150 0.24700
C 	C 	0.43180 0.49880 0.04110 0.26100
O 	O 	0.75990 0.87790 0.82650 -0.21300
O 	O 	0.61790 0.72826 0.80340 -0.48100
O 	O 	0.80310 0.76640 0.62470 -0.47800
O 	O 	0.92440 0.74090 0.90180 -0.24900
O 	O 	0.64670 0.65041 0.17400 -0.43700
O 	O 	0.82920 0.68921 0.35830 -0.40400
O 	O 	0.78950 0.84969 0.27820 -0.41300
O 	O 	0.61240 0.81045 0.09180 -0.41400
O 	O 	0.35990 0.56716 0.04450 -0.39200
O 	O 	0.40430 0.43097 0.09740 -0.38000
Y 	Y 	0.97123 0.80444 0.47481 2.39400
Se	Se	0.27814 0.72121 0.29099 0.69900
C 	C 	0.23040 0.79650 0.75000 0.25400
C 	C 	0.20760 0.70430 0.70150 0.24700
C 	C 	0.93180 0.00120 0.54110 0.26500
O 	O 	0.25990 0.62210 0.32650 -0.21000
O 	O 	0.11790 0.77174 0.30340 -0.47800
O 	O 	0.30310 0.73360 0.12470 -0.47600
O 	O 	0.42440 0.75910 0.40180 -0.24800
O 	O 	0.14670 0.84959 0.67400 -0.43600
O 	O 	0.32920 0.81079 0.85830 -0.40400
O 	O 	0.28950 0.65031 0.77820 -0.41200
O 	O 	0.11240 0.68955 0.59180 -0.41400
O 	O 	0.85990 0.93284 0.54450 -0.39800
O 	O 	0.90430 0.06903 0.59740 -0.37900
Y 	Y 	0.52877 0.30444 0.02519 2.39400
Se	Se	0.22186 0.22121 0.20901 0.69900
C 	C 	0.26960 0.29650 0.75000 0.25400
C 	C 	0.29240 0.20430 0.79850 0.24700
C 	C 	0.56820 0.50120 0.95890 0.26100
O 	O 	0.24010 0.12210 0.17350 -0.21300
O 	O 	0.38210 0.27174 0.19660 -0.48100
O 	O 	0.19690 0.23360 0.37530 -0.47800
O 	O 	0.07560 0.25910 0.09820 -0.24900
O 	O 	0.35330 0.34959 0.82600 -0.43700
O 	O 	0.17080 0.31079 0.64170 -0.40400
O 	O 	0.21050 0.15031 0.72180 -0.41300
O 	O 	0.38760 0.18955 0.90820 -0.41400
O 	O 	0.64010 0.43284 0.95550 -0.39200
O 	O 	0.59570 0.56903 0.90260 -0.38000
