data_crystal

_cell_length_a 7.06490
_cell_length_b 11.27710
_cell_length_c 11.83180
_cell_angle_alpha 67.37000
_cell_angle_beta  80.03500
_cell_angle_gamma 82.82100

_symmetry_space_group_name_	'P 1'
_symmetry_space_group_name_H-M	'P 1'

loop_
_symmetry_equiv_pos_as_xyz
  x,y,z

loop_
_atom_site_label
_atom_site_type_symbol
_atom_site_fract_x
_atom_site_fract_y
_atom_site_fract_z
_atom_site_charge
Nd	Nd	0.22242 0.54693 0.57401 2.48100
Nd	Nd	0.28686 0.01011 0.75214 2.06600
S 	S 	0.28932 0.32141 0.46149 1.00800
S 	S 	0.44432 0.71615 0.25258 1.00300
O 	O 	0.44090 0.39790 0.46940 -0.72700
O 	O 	0.10650 0.39390 0.48960 -0.76400
O 	O 	0.29900 0.19290 0.55680 -0.61300
O 	O 	0.30580 0.31670 0.34040 -0.42100
O 	O 	0.28600 0.65990 0.35120 -0.61300
O 	O 	0.47160 0.84540 0.24490 -0.58700
O 	O 	0.62260 0.63480 0.27570 -0.62100
O 	O 	0.39090 0.72190 0.13600 -0.37000
O 	O 	0.16980 0.77820 0.53090 -0.47600
O 	O 	0.23790 0.60960 0.75050 -0.44300
O 	O 	0.22860 0.93920 0.58320 -0.43900
O 	O 	0.30070 0.76950 0.80420 -0.40700
O 	O 	0.06490 0.88560 0.93540 -0.41200
O 	O 	0.87480 0.87110 0.11160 -0.43100
C 	C 	0.21320 0.82320 0.60370 0.26800
C 	C 	0.25540 0.72650 0.73180 0.27000
C 	C 	0.98040 0.93100 0.01350 0.22900
Nd	Nd	0.77758 0.45307 0.42599 2.48000
Nd	Nd	0.71314 0.98989 0.24786 2.06500
S 	S 	0.71068 0.67859 0.53851 1.00800
S 	S 	0.55568 0.28385 0.74742 1.00300
O 	O 	0.55910 0.60210 0.53060 -0.72700
O 	O 	0.89350 0.60610 0.51040 -0.76400
O 	O 	0.70100 0.80710 0.44320 -0.61300
O 	O 	0.69420 0.68330 0.65960 -0.42100
O 	O 	0.71400 0.34010 0.64880 -0.61300
O 	O 	0.52840 0.15460 0.75510 -0.58700
O 	O 	0.37740 0.36520 0.72430 -0.62100
O 	O 	0.60910 0.27810 0.86400 -0.37000
O 	O 	0.83020 0.22180 0.46910 -0.47600
O 	O 	0.76210 0.39040 0.24950 -0.44300
O 	O 	0.77140 0.06080 0.41680 -0.43900
O 	O 	0.69930 0.23050 0.19580 -0.40700
O 	O 	0.93510 0.11440 0.06460 -0.41200
O 	O 	0.12520 0.12890 0.88840 -0.43100
C 	C 	0.78680 0.17680 0.39630 0.26800
C 	C 	0.74460 0.27350 0.26820 0.27000
C 	C 	0.01960 0.06900 0.98650 0.22900
