data_crystal

_cell_length_a 10.81610
_cell_length_b 10.81610
_cell_length_c 9.74820
_cell_angle_alpha 90.00000
_cell_angle_beta  90.00000
_cell_angle_gamma 120.00000

_symmetry_space_group_name_	'P 1'
_symmetry_space_group_name_H-M	'P 1'

loop_
_symmetry_equiv_pos_as_xyz
  x,y,z

loop_
_atom_site_label
_atom_site_type_symbol
_atom_site_fract_x
_atom_site_fract_y
_atom_site_fract_z
_atom_site_charge
N 	N 	0.56720 0.63920 0.20030 -0.19100
N 	N 	0.54250 0.81210 0.32630 -0.17400
C 	C 	0.61680 0.60770 0.31380 0.01600
H 	H 	0.64300 0.53790 0.30860 0.01000
C 	C 	0.63010 0.67480 0.43690 -0.02500
C 	C 	0.59250 0.77870 0.43810 0.01800
H 	H 	0.60210 0.82780 0.51940 0.02300
C 	C 	0.53320 0.73990 0.21280 0.09500
H 	H 	0.49940 0.76270 0.13460 -0.03100
N 	N 	0.36080 0.92800 0.53363 -0.15600
N 	N 	0.18790 0.73040 0.65963 -0.16700
C 	C 	0.39230 0.00910 0.64713 -0.08000
H 	H 	0.46210 0.10510 0.64193 0.04100
C 	C 	0.32520 0.95530 0.77023 0.07500
C 	C 	0.22130 0.81380 0.77143 -0.02500
H 	H 	0.17220 0.77430 0.85273 0.03700
C 	C 	0.26010 0.79330 0.54613 0.09000
H 	H 	0.23730 0.73670 0.46793 -0.02700
N 	N 	0.07200 0.43280 0.86697 -0.21400
N 	N 	0.26960 0.45750 0.99297 -0.16100
C 	C 	0.99090 0.38320 0.98047 0.13900
H 	H 	0.89490 0.35700 0.97527 -0.01700
C 	C 	0.04470 0.36990 0.10357 -0.14400
C 	C 	0.18620 0.40750 0.10477 0.02500
H 	H 	0.22570 0.39790 0.18607 0.00500
C 	C 	0.20670 0.46680 0.87947 0.10600
H 	H 	0.26330 0.50060 0.80127 -0.02800
N 	N 	0.63920 0.56720 0.79970 -0.17800
N 	N 	0.81210 0.54250 0.67370 -0.17300
C 	C 	0.60770 0.61680 0.68620 0.01900
H 	H 	0.53790 0.64300 0.69140 0.01500
C 	C 	0.67480 0.63010 0.56310 -0.02500
C 	C 	0.77870 0.59250 0.56190 0.02000
H 	H 	0.82780 0.60210 0.48060 0.01800
C 	C 	0.73990 0.53320 0.78720 0.09700
H 	H 	0.76270 0.49940 0.86540 -0.01600
N 	N 	0.92800 0.36080 0.46637 -0.16400
N 	N 	0.73040 0.18790 0.34037 -0.17100
C 	C 	0.00910 0.39230 0.35287 -0.06000
H 	H 	0.10510 0.46210 0.35807 0.03400
C 	C 	0.95530 0.32520 0.22977 0.05600
C 	C 	0.81380 0.22130 0.22857 -0.02400
H 	H 	0.77430 0.17220 0.14727 0.01900
C 	C 	0.79330 0.26010 0.45387 0.08800
H 	H 	0.73670 0.23730 0.53207 -0.02600
N 	N 	0.43280 0.07200 0.13303 -0.21200
N 	N 	0.45750 0.26960 0.00703 -0.21000
C 	C 	0.38320 0.99090 0.01953 0.06400
H 	H 	0.35700 0.89490 0.02473 -0.01400
C 	C 	0.36990 0.04470 0.89643 -0.09900
C 	C 	0.40750 0.18620 0.89523 0.09000
H 	H 	0.39790 0.22570 0.81393 -0.01000
C 	C 	0.46680 0.20670 0.12053 0.09000
H 	H 	0.50060 0.26330 0.19873 -0.02900
Ag	Ag	0.51502 0.51502 -0.00000 0.51600
Ag	Ag	0.48498 0.00000 0.33333 0.51900
Ag	Ag	0.00000 0.48498 0.66667 0.52600
