data_crystal

_cell_length_a 17.23600
_cell_length_b 9.18350
_cell_length_c 15.47800
_cell_angle_alpha 90.00000
_cell_angle_beta  90.00000
_cell_angle_gamma 90.00000

_symmetry_space_group_name_	'P 1'
_symmetry_space_group_name_H-M	'P 1'

loop_
_symmetry_equiv_pos_as_xyz
  x,y,z

loop_
_atom_site_label
_atom_site_type_symbol
_atom_site_fract_x
_atom_site_fract_y
_atom_site_fract_z
_atom_site_charge
N 	N 	0.86920 0.28370 0.81490 -0.17500
N 	N 	0.97416 0.18100 0.89270 -0.14600
C 	C 	0.90570 0.17320 0.85450 0.08800
H 	H 	0.88070 0.08340 0.85510 -0.02200
C 	C 	0.90670 0.41060 0.81400 -0.01700
H 	H 	0.88220 0.49060 0.78920 0.03100
C 	C 	0.97910 0.42890 0.84780 0.05500
C 	C 	0.01120 0.30740 0.88910 -0.05600
H 	H 	0.05990 0.31550 0.91460 0.04200
N 	N 	0.86920 0.78370 0.31490 -0.16900
N 	N 	0.97416 0.68100 0.39270 -0.14600
C 	C 	0.90570 0.67320 0.35450 0.08300
H 	H 	0.88070 0.58340 0.35510 -0.02100
C 	C 	0.90670 0.91060 0.31400 -0.04100
H 	H 	0.88220 0.99060 0.28920 0.04800
C 	C 	0.97910 0.92890 0.34780 0.10400
C 	C 	0.01120 0.80740 0.38910 -0.07800
H 	H 	0.05990 0.81550 0.41460 0.04900
N 	N 	0.36920 0.28370 0.31490 -0.18600
N 	N 	0.47416 0.18100 0.39270 -0.18100
C 	C 	0.40570 0.17320 0.35450 0.08700
H 	H 	0.38070 0.08340 0.35510 -0.03200
C 	C 	0.40670 0.41060 0.31400 0.01600
H 	H 	0.38220 0.49060 0.28920 0.01600
C 	C 	0.47910 0.42890 0.34780 -0.03000
C 	C 	0.51120 0.30740 0.38910 0.01600
H 	H 	0.55990 0.31550 0.41460 0.01000
N 	N 	0.36920 0.78370 0.81490 -0.17700
N 	N 	0.47416 0.68100 0.89270 -0.16400
C 	C 	0.40570 0.67320 0.85450 0.09300
H 	H 	0.38070 0.58340 0.85510 -0.01900
C 	C 	0.40670 0.91060 0.81400 0.00200
H 	H 	0.38220 0.99060 0.78920 0.03300
C 	C 	0.47910 0.92890 0.84780 0.02000
C 	C 	0.51120 0.80740 0.88910 0.00500
H 	H 	0.55990 0.81550 0.91460 0.03400
N 	N 	0.13080 0.71630 0.81490 -0.19000
N 	N 	0.02584 0.81900 0.89270 -0.18500
C 	C 	0.09430 0.82680 0.85450 0.09800
H 	H 	0.11930 0.91660 0.85510 -0.01300
C 	C 	0.09330 0.58940 0.81400 0.05800
H 	H 	0.11780 0.50940 0.78920 0.00000
C 	C 	0.02090 0.57110 0.84780 -0.10600
C 	C 	0.98880 0.69260 0.88910 0.09600
H 	H 	0.94010 0.68450 0.91460 0.00300
N 	N 	0.13080 0.21630 0.31490 -0.20000
N 	N 	0.02584 0.31900 0.39270 -0.20800
C 	C 	0.09430 0.32680 0.35450 0.09200
H 	H 	0.11930 0.41660 0.35510 -0.02700
C 	C 	0.09330 0.08940 0.31400 0.07600
H 	H 	0.11780 0.00940 0.28920 -0.01800
C 	C 	0.02090 0.07110 0.34780 -0.16500
C 	C 	0.98880 0.19260 0.38910 0.11800
H 	H 	0.94010 0.18450 0.41460 -0.02600
N 	N 	0.63080 0.71630 0.31490 -0.18300
N 	N 	0.52584 0.81900 0.39270 -0.17100
C 	C 	0.59430 0.82680 0.35450 0.08800
H 	H 	0.61930 0.91660 0.35510 -0.01700
C 	C 	0.59330 0.58940 0.31400 0.01800
H 	H 	0.61780 0.50940 0.28920 0.01400
C 	C 	0.52090 0.57110 0.34780 -0.02900
C 	C 	0.48880 0.69260 0.38910 0.01900
H 	H 	0.44010 0.68450 0.41460 0.01500
N 	N 	0.63080 0.21630 0.81490 -0.18700
N 	N 	0.52584 0.31900 0.89270 -0.17300
C 	C 	0.59430 0.32680 0.85450 0.09400
H 	H 	0.61930 0.41660 0.85510 -0.01800
C 	C 	0.59330 0.08940 0.81400 0.04000
H 	H 	0.61780 0.00940 0.78920 -0.00000
C 	C 	0.52090 0.07110 0.84780 -0.07200
C 	C 	0.48880 0.19260 0.88910 0.03900
H 	H 	0.44010 0.18450 0.91460 0.00900
N 	N 	0.11920 0.96630 0.06490 -0.17100
N 	N 	0.22416 0.06900 0.14270 -0.19300
C 	C 	0.15570 0.07680 0.10450 0.05100
H 	H 	0.13070 0.16660 0.10510 -0.02400
C 	C 	0.15670 0.83940 0.06400 0.02400
H 	H 	0.13220 0.75940 0.03920 0.00100
C 	C 	0.22910 0.82110 0.09780 -0.04300
C 	C 	0.26120 0.94260 0.13910 0.05100
H 	H 	0.30990 0.93450 0.16460 0.00700
N 	N 	0.11920 0.46630 0.56490 -0.18700
N 	N 	0.22416 0.56900 0.64270 -0.17700
C 	C 	0.15570 0.57680 0.60450 0.08800
H 	H 	0.13070 0.66660 0.60510 -0.02400
C 	C 	0.15670 0.33940 0.56400 0.02100
H 	H 	0.13220 0.25940 0.53920 0.00800
C 	C 	0.22910 0.32110 0.59780 -0.03600
C 	C 	0.26120 0.44260 0.63910 0.02100
H 	H 	0.30990 0.43450 0.66460 0.01100
N 	N 	0.61920 0.96630 0.56490 -0.16400
N 	N 	0.72416 0.06900 0.64270 -0.19000
C 	C 	0.65570 0.07680 0.60450 0.05700
H 	H 	0.63070 0.16660 0.60510 -0.01700
C 	C 	0.65670 0.83940 0.56400 0.02600
H 	H 	0.63220 0.75940 0.53920 0.01400
C 	C 	0.72910 0.82110 0.59780 -0.03600
C 	C 	0.76120 0.94260 0.63910 0.05200
H 	H 	0.80990 0.93450 0.66460 0.01100
N 	N 	0.61920 0.46630 0.06490 -0.19000
N 	N 	0.72416 0.56900 0.14270 -0.17900
C 	C 	0.65570 0.57680 0.10450 0.08500
H 	H 	0.63070 0.66660 0.10510 -0.02600
C 	C 	0.65670 0.33940 0.06400 0.01800
H 	H 	0.63220 0.25940 0.03920 0.00100
C 	C 	0.72910 0.32110 0.09780 -0.03900
C 	C 	0.76120 0.44260 0.13910 0.01800
H 	H 	0.80990 0.43450 0.16460 0.01000
N 	N 	0.38080 0.53370 0.06490 -0.18900
N 	N 	0.27584 0.43100 0.14270 -0.18000
C 	C 	0.34430 0.42320 0.10450 0.08400
H 	H 	0.36930 0.33340 0.10510 -0.03200
C 	C 	0.34330 0.66060 0.06400 0.01200
H 	H 	0.36780 0.74060 0.03920 0.00900
C 	C 	0.27090 0.67890 0.09780 -0.02800
C 	C 	0.23880 0.55740 0.13910 0.01300
H 	H 	0.19010 0.56550 0.16460 0.01000
N 	N 	0.38080 0.03370 0.56490 -0.20100
N 	N 	0.27584 0.93100 0.64270 -0.16400
C 	C 	0.34430 0.92320 0.60450 0.12000
H 	H 	0.36930 0.83340 0.60510 -0.03100
C 	C 	0.34330 0.16060 0.56400 0.00900
H 	H 	0.36780 0.24060 0.53920 0.01700
C 	C 	0.27090 0.17890 0.59780 -0.02100
C 	C 	0.23880 0.05740 0.63910 -0.01600
H 	H 	0.19010 0.06550 0.66460 0.01400
N 	N 	0.88080 0.53370 0.56490 -0.17900
N 	N 	0.77584 0.43100 0.64270 -0.17700
C 	C 	0.84430 0.42320 0.60450 0.08800
H 	H 	0.86930 0.33340 0.60510 -0.02400
C 	C 	0.84330 0.66060 0.56400 0.01500
H 	H 	0.86780 0.74060 0.53920 0.02200
C 	C 	0.77090 0.67890 0.59780 -0.02200
C 	C 	0.73880 0.55740 0.63910 0.01600
H 	H 	0.69010 0.56550 0.66460 0.01400
N 	N 	0.88080 0.03370 0.06490 -0.20100
N 	N 	0.77584 0.93100 0.14270 -0.16600
C 	C 	0.84430 0.92320 0.10450 0.11600
H 	H 	0.86930 0.83340 0.10510 -0.03100
C 	C 	0.84330 0.16060 0.06400 0.00600
H 	H 	0.86780 0.24060 0.03920 0.01100
C 	C 	0.77090 0.17890 0.09780 -0.02500
C 	C 	0.73880 0.05740 0.13910 -0.01800
H 	H 	0.69010 0.06550 0.16460 0.01300
Ag	Ag	0.75000 0.25000 0.75008 0.53400
Ag	Ag	0.75000 0.75000 0.25008 0.53500
Ag	Ag	0.25000 0.75000 0.75008 0.53800
Ag	Ag	0.25000 0.25000 0.25008 0.52900
Ag	Ag	-0.00000 0.00000 0.00008 0.48700
Ag	Ag	-0.00000 0.50000 0.50008 0.52200
Ag	Ag	0.50000 0.50000 0.00008 0.51300
Ag	Ag	0.50000 0.00000 0.50008 0.51800
