data_crystal

_cell_length_a 24.63300
_cell_length_b 13.03800
_cell_length_c 14.72500
_cell_angle_alpha 90.00000
_cell_angle_beta  96.69000
_cell_angle_gamma 90.00000

_symmetry_space_group_name_	'P 1'
_symmetry_space_group_name_H-M	'P 1'

loop_
_symmetry_equiv_pos_as_xyz
  x,y,z

loop_
_atom_site_label
_atom_site_type_symbol
_atom_site_fract_x
_atom_site_fract_y
_atom_site_fract_z
_atom_site_charge
Eu	Eu	0.32801 0.70591 0.03101 1.80500
O 	O 	0.22539 0.64523 0.96221 -0.55500
O 	O 	0.29806 0.55320 0.94339 -0.45000
O 	O 	0.27378 0.34590 0.64886 -0.50600
O 	O 	0.19544 0.25700 0.62282 -0.47000
O 	O 	0.91202 0.17630 0.95790 -0.41900
O 	O 	0.89669 0.33630 0.99370 -0.41300
C 	C 	0.21311 0.49390 0.86980 -0.16200
C 	C 	0.23569 0.44310 0.80000 0.08600
H 	H 	0.27170 0.45570 0.79010 0.01100
C 	C 	0.20437 0.37360 0.74520 -0.16000
C 	C 	0.15162 0.35060 0.76390 0.03800
H 	H 	0.13110 0.30250 0.72800 0.03100
C 	C 	0.12892 0.39850 0.83570 -0.06900
C 	C 	0.15957 0.47340 0.88630 0.03000
H 	H 	0.14420 0.50990 0.93120 0.02100
C 	C 	0.24778 0.56860 0.92830 0.42300
C 	C 	0.22656 0.32150 0.66560 0.45600
C 	C 	0.07427 0.36710 0.85880 0.09300
C 	C 	0.03893 0.43760 0.89190 -0.14400
H 	H 	0.04830 0.50670 0.89500 0.07900
C 	C 	0.98990 0.40590 0.92010 0.05300
H 	H 	0.96650 0.45420 0.94090 0.02200
C 	C 	0.97526 0.30370 0.91800 -0.11800
C 	C 	0.00929 0.23300 0.88250 0.04600
H 	H 	0.99930 0.16420 0.87840 0.01800
C 	C 	0.05808 0.26460 0.85290 -0.13800
H 	H 	0.08040 0.21660 0.82880 0.07600
C 	C 	0.92493 0.27050 0.95870 0.32500
Eu	Eu	0.82801 0.20591 0.03101 1.79700
O 	O 	0.72539 0.14523 0.96221 -0.55600
O 	O 	0.79806 0.05320 0.94339 -0.45000
O 	O 	0.77378 0.84590 0.64886 -0.50700
O 	O 	0.69544 0.75700 0.62282 -0.47000
O 	O 	0.41202 0.67630 0.95790 -0.42100
O 	O 	0.39669 0.83630 0.99370 -0.41500
C 	C 	0.71311 0.99390 0.86980 -0.16200
C 	C 	0.73569 0.94310 0.80000 0.08600
H 	H 	0.77170 0.95570 0.79010 0.01100
C 	C 	0.70437 0.87360 0.74520 -0.16000
C 	C 	0.65162 0.85060 0.76390 0.03900
H 	H 	0.63110 0.80250 0.72800 0.03100
C 	C 	0.62892 0.89850 0.83570 -0.06900
C 	C 	0.65957 0.97340 0.88630 0.02900
H 	H 	0.64420 0.00990 0.93120 0.02200
C 	C 	0.74778 0.06860 0.92830 0.42300
C 	C 	0.72656 0.82150 0.66560 0.45600
C 	C 	0.57427 0.86710 0.85880 0.09500
C 	C 	0.53893 0.93760 0.89190 -0.14500
H 	H 	0.54830 0.00670 0.89500 0.08100
C 	C 	0.48990 0.90590 0.92010 0.05400
H 	H 	0.46650 0.95420 0.94090 0.02100
C 	C 	0.47526 0.80370 0.91800 -0.12300
C 	C 	0.50929 0.73300 0.88250 0.05400
H 	H 	0.49930 0.66420 0.87840 0.01500
C 	C 	0.55808 0.76460 0.85290 -0.14200
H 	H 	0.58040 0.71660 0.82880 0.07700
C 	C 	0.42493 0.77050 0.95870 0.32600
Eu	Eu	0.67199 0.70591 0.46899 1.80100
O 	O 	0.77461 0.64523 0.53779 -0.55600
O 	O 	0.70194 0.55320 0.55661 -0.45100
O 	O 	0.72622 0.34590 0.85114 -0.50700
O 	O 	0.80456 0.25700 0.87718 -0.46900
O 	O 	0.08798 0.17630 0.54210 -0.42100
O 	O 	0.10331 0.33630 0.50630 -0.41500
C 	C 	0.78689 0.49390 0.63020 -0.16200
C 	C 	0.76431 0.44310 0.70000 0.08600
H 	H 	0.72830 0.45570 0.70990 0.01100
C 	C 	0.79563 0.37360 0.75480 -0.16000
C 	C 	0.84838 0.35060 0.73610 0.03900
H 	H 	0.86890 0.30250 0.77200 0.03100
C 	C 	0.87108 0.39850 0.66430 -0.06900
C 	C 	0.84043 0.47340 0.61370 0.03000
H 	H 	0.85580 0.50990 0.56880 0.02100
C 	C 	0.75222 0.56860 0.57170 0.42300
C 	C 	0.77344 0.32150 0.83440 0.45600
C 	C 	0.92573 0.36710 0.64120 0.09400
C 	C 	0.96107 0.43760 0.60810 -0.14300
H 	H 	0.95170 0.50670 0.60500 0.08000
C 	C 	0.01010 0.40590 0.57990 0.05300
H 	H 	0.03350 0.45420 0.55910 0.02100
C 	C 	0.02474 0.30370 0.58200 -0.12300
C 	C 	0.99071 0.23300 0.61750 0.05500
H 	H 	0.00070 0.16420 0.62160 0.01400
C 	C 	0.94192 0.26460 0.64710 -0.14300
H 	H 	0.91960 0.21660 0.67120 0.07700
C 	C 	0.07507 0.27050 0.54130 0.32600
Eu	Eu	0.17199 0.20591 0.46899 1.80100
O 	O 	0.27461 0.14523 0.53779 -0.55600
O 	O 	0.20194 0.05320 0.55661 -0.45100
O 	O 	0.22622 0.84590 0.85114 -0.50700
O 	O 	0.30456 0.75700 0.87718 -0.47100
O 	O 	0.58798 0.67630 0.54210 -0.42100
O 	O 	0.60331 0.83630 0.50630 -0.41500
C 	C 	0.28689 0.99390 0.63020 -0.16200
C 	C 	0.26431 0.94310 0.70000 0.08600
H 	H 	0.22830 0.95570 0.70990 0.01100
C 	C 	0.29563 0.87360 0.75480 -0.16000
C 	C 	0.34838 0.85060 0.73610 0.03900
H 	H 	0.36890 0.80250 0.77200 0.03100
C 	C 	0.37108 0.89850 0.66430 -0.06900
C 	C 	0.34043 0.97340 0.61370 0.03000
H 	H 	0.35580 0.00990 0.56880 0.02100
C 	C 	0.25222 0.06860 0.57170 0.42300
C 	C 	0.27344 0.82150 0.83440 0.45600
C 	C 	0.42573 0.86710 0.64120 0.09400
C 	C 	0.46107 0.93760 0.60810 -0.14400
H 	H 	0.45170 0.00670 0.60500 0.08000
C 	C 	0.51010 0.90590 0.57990 0.05300
H 	H 	0.53350 0.95420 0.55910 0.02100
C 	C 	0.52474 0.80370 0.58200 -0.12200
C 	C 	0.49071 0.73300 0.61750 0.05300
H 	H 	0.50070 0.66420 0.62160 0.01500
C 	C 	0.44192 0.76460 0.64710 -0.14200
H 	H 	0.41960 0.71660 0.67120 0.07700
C 	C 	0.57507 0.77050 0.54130 0.32600
Eu	Eu	0.67199 0.29409 0.96899 1.80400
O 	O 	0.77461 0.35477 0.03779 -0.55600
O 	O 	0.70194 0.44680 0.05661 -0.45100
O 	O 	0.72622 0.65410 0.35114 -0.50700
O 	O 	0.80456 0.74300 0.37718 -0.47000
O 	O 	0.08798 0.82370 0.04210 -0.41900
O 	O 	0.10331 0.66370 0.00630 -0.41300
C 	C 	0.78689 0.50610 0.13020 -0.16200
C 	C 	0.76431 0.55690 0.20000 0.08600
H 	H 	0.72830 0.54430 0.20990 0.01100
C 	C 	0.79563 0.62640 0.25480 -0.16000
C 	C 	0.84838 0.64940 0.23610 0.03800
H 	H 	0.86890 0.69750 0.27200 0.03100
C 	C 	0.87108 0.60150 0.16430 -0.06900
C 	C 	0.84043 0.52660 0.11370 0.03000
H 	H 	0.85580 0.49010 0.06880 0.02100
C 	C 	0.75222 0.43140 0.07170 0.42300
C 	C 	0.77344 0.67850 0.33440 0.45600
C 	C 	0.92573 0.63290 0.14120 0.09300
C 	C 	0.96107 0.56240 0.10810 -0.14400
H 	H 	0.95170 0.49330 0.10500 0.07900
C 	C 	0.01010 0.59410 0.07990 0.05300
H 	H 	0.03350 0.54580 0.05910 0.02200
C 	C 	0.02474 0.69630 0.08200 -0.11800
C 	C 	0.99071 0.76700 0.11750 0.04600
H 	H 	0.00070 0.83580 0.12160 0.01800
C 	C 	0.94192 0.73540 0.14710 -0.13800
H 	H 	0.91960 0.78340 0.17120 0.07600
C 	C 	0.07507 0.72950 0.04130 0.32500
Eu	Eu	0.17199 0.79409 0.96899 1.79700
O 	O 	0.27461 0.85477 0.03779 -0.55600
O 	O 	0.20194 0.94680 0.05661 -0.45000
O 	O 	0.22622 0.15410 0.35114 -0.50700
O 	O 	0.30456 0.24300 0.37718 -0.47000
O 	O 	0.58798 0.32370 0.04210 -0.42100
O 	O 	0.60331 0.16370 0.00630 -0.41500
C 	C 	0.28689 0.00610 0.13020 -0.16200
C 	C 	0.26431 0.05690 0.20000 0.08600
H 	H 	0.22830 0.04430 0.20990 0.01100
C 	C 	0.29563 0.12640 0.25480 -0.16000
C 	C 	0.34838 0.14940 0.23610 0.03900
H 	H 	0.36890 0.19750 0.27200 0.03100
C 	C 	0.37108 0.10150 0.16430 -0.06900
C 	C 	0.34043 0.02660 0.11370 0.02900
H 	H 	0.35580 0.99010 0.06880 0.02200
C 	C 	0.25222 0.93140 0.07170 0.42300
C 	C 	0.27344 0.17850 0.33440 0.45600
C 	C 	0.42573 0.13290 0.14120 0.09500
C 	C 	0.46107 0.06240 0.10810 -0.14500
H 	H 	0.45170 0.99330 0.10500 0.08100
C 	C 	0.51010 0.09410 0.07990 0.05400
H 	H 	0.53350 0.04580 0.05910 0.02100
C 	C 	0.52474 0.19630 0.08200 -0.12300
C 	C 	0.49071 0.26700 0.11750 0.05400
H 	H 	0.50070 0.33580 0.12160 0.01500
C 	C 	0.44192 0.23540 0.14710 -0.14200
H 	H 	0.41960 0.28340 0.17120 0.07700
C 	C 	0.57507 0.22950 0.04130 0.32600
Eu	Eu	0.32801 0.29409 0.53101 1.80100
O 	O 	0.22539 0.35477 0.46221 -0.55600
O 	O 	0.29806 0.44680 0.44339 -0.45100
O 	O 	0.27378 0.65410 0.14886 -0.50700
O 	O 	0.19544 0.74300 0.12282 -0.46900
O 	O 	0.91202 0.82370 0.45790 -0.42100
O 	O 	0.89669 0.66370 0.49370 -0.41500
C 	C 	0.21311 0.50610 0.36980 -0.16200
C 	C 	0.23569 0.55690 0.30000 0.08600
H 	H 	0.27170 0.54430 0.29010 0.01100
C 	C 	0.20437 0.62640 0.24520 -0.16000
C 	C 	0.15162 0.64940 0.26390 0.03900
H 	H 	0.13110 0.69750 0.22800 0.03100
C 	C 	0.12892 0.60150 0.33570 -0.06900
C 	C 	0.15957 0.52660 0.38630 0.03000
H 	H 	0.14420 0.49010 0.43120 0.02100
C 	C 	0.24778 0.43140 0.42830 0.42300
C 	C 	0.22656 0.67850 0.16560 0.45600
C 	C 	0.07427 0.63290 0.35880 0.09400
C 	C 	0.03893 0.56240 0.39190 -0.14300
H 	H 	0.04830 0.49330 0.39500 0.08000
C 	C 	0.98990 0.59410 0.42010 0.05300
H 	H 	0.96650 0.54580 0.44090 0.02100
C 	C 	0.97526 0.69630 0.41800 -0.12300
C 	C 	0.00929 0.76700 0.38250 0.05500
H 	H 	0.99930 0.83580 0.37840 0.01400
C 	C 	0.05808 0.73540 0.35290 -0.14300
H 	H 	0.08040 0.78340 0.32880 0.07700
C 	C 	0.92493 0.72950 0.45870 0.32600
Eu	Eu	0.82801 0.79409 0.53101 1.80100
O 	O 	0.72539 0.85477 0.46221 -0.55600
O 	O 	0.79806 0.94680 0.44339 -0.45100
O 	O 	0.77378 0.15410 0.14886 -0.50700
O 	O 	0.69544 0.24300 0.12282 -0.47100
O 	O 	0.41202 0.32370 0.45790 -0.42100
O 	O 	0.39669 0.16370 0.49370 -0.41500
C 	C 	0.71311 0.00610 0.36980 -0.16200
C 	C 	0.73569 0.05690 0.30000 0.08600
H 	H 	0.77170 0.04430 0.29010 0.01100
C 	C 	0.70437 0.12640 0.24520 -0.16000
C 	C 	0.65162 0.14940 0.26390 0.03900
H 	H 	0.63110 0.19750 0.22800 0.03100
C 	C 	0.62892 0.10150 0.33570 -0.06900
C 	C 	0.65957 0.02660 0.38630 0.03000
H 	H 	0.64420 0.99010 0.43120 0.02100
C 	C 	0.74778 0.93140 0.42830 0.42300
C 	C 	0.72656 0.17850 0.16560 0.45600
C 	C 	0.57427 0.13290 0.35880 0.09400
C 	C 	0.53893 0.06240 0.39190 -0.14400
H 	H 	0.54830 0.99330 0.39500 0.08000
C 	C 	0.48990 0.09410 0.42010 0.05300
H 	H 	0.46650 0.04580 0.44090 0.02100
C 	C 	0.47526 0.19630 0.41800 -0.12200
C 	C 	0.50929 0.26700 0.38250 0.05300
H 	H 	0.49930 0.33580 0.37840 0.01500
C 	C 	0.55808 0.23540 0.35290 -0.14200
H 	H 	0.58040 0.28340 0.32880 0.07700
C 	C 	0.42493 0.22950 0.45870 0.32600
