data_crystal

_cell_length_a 8.02030
_cell_length_b 20.45500
_cell_length_c 8.61200
_cell_angle_alpha 90.00000
_cell_angle_beta  90.65000
_cell_angle_gamma 90.00000

_symmetry_space_group_name_	'P 1'
_symmetry_space_group_name_H-M	'P 1'

loop_
_symmetry_equiv_pos_as_xyz
  x,y,z

loop_
_atom_site_label
_atom_site_type_symbol
_atom_site_fract_x
_atom_site_fract_y
_atom_site_fract_z
_atom_site_charge
N 	N 	0.15420 0.50163 0.68784 -0.18800
N 	N 	0.07810 0.50271 0.83190 -0.12000
N 	N 	0.34730 0.50042 0.86410 -0.10700
N 	N 	0.50500 0.50004 0.92780 -0.01500
N 	N 	0.12560 0.57402 0.40300 -0.18100
N 	N 	0.29830 0.57788 0.40170 -0.09300
N 	N 	0.18940 0.66724 0.30460 -0.09200
N 	N 	0.15670 0.73034 0.25110 -0.04800
N 	N 	0.32500 0.92095 0.11910 -0.14500
N 	N 	0.15250 0.91426 0.10040 -0.09700
N 	N 	0.25690 0.82424 0.19800 -0.10000
N 	N 	0.28870 0.76140 0.25020 -0.04000
C 	C 	0.31550 0.50034 0.70910 0.10900
H 	H 	0.39680 0.49950 0.62970 0.02300
C 	C 	0.19680 0.50194 0.93600 0.17000
H 	H 	0.18100 0.50240 0.04510 -0.01900
C 	C 	0.06220 0.62727 0.34340 0.03500
H 	H 	0.94680 0.63640 0.32970 0.05600
C 	C 	0.33410 0.63496 0.34320 0.09600
H 	H 	0.44350 0.65160 0.32950 0.02700
C 	C 	0.38370 0.86723 0.17800 0.09400
H 	H 	0.49750 0.85920 0.20310 0.01700
C 	C 	0.11480 0.85549 0.14820 0.09100
H 	H 	0.00580 0.83730 0.14850 0.01200
N 	N 	0.84580 0.49837 0.31216 -0.17500
N 	N 	0.92190 0.49729 0.16810 -0.07800
N 	N 	0.65270 0.49958 0.13590 -0.09200
N 	N 	0.49500 0.49996 0.07220 -0.05700
N 	N 	0.87440 0.42598 0.59700 -0.18600
N 	N 	0.70170 0.42212 0.59830 -0.09000
N 	N 	0.81060 0.33276 0.69540 -0.10600
N 	N 	0.84330 0.26966 0.74890 -0.02600
N 	N 	0.67500 0.07905 0.88090 -0.14300
N 	N 	0.84750 0.08574 0.89960 -0.07900
N 	N 	0.74310 0.17576 0.80200 -0.09500
N 	N 	0.71130 0.23860 0.74980 -0.03400
C 	C 	0.68450 0.49966 0.29090 0.10600
H 	H 	0.60320 0.50050 0.37030 0.02400
C 	C 	0.80320 0.49806 0.06400 0.03500
H 	H 	0.81900 0.49760 0.95490 0.08600
C 	C 	0.93780 0.37273 0.65660 0.17500
H 	H 	0.05320 0.36360 0.67030 -0.02900
C 	C 	0.66590 0.36504 0.65680 0.10500
H 	H 	0.55650 0.34840 0.67050 0.03000
C 	C 	0.61630 0.13277 0.82200 0.10500
H 	H 	0.50250 0.14080 0.79690 0.02000
C 	C 	0.88520 0.14451 0.85180 0.10600
H 	H 	0.99420 0.16270 0.85150 0.04700
Cu	Cu	-0.00000 0.50000 0.50000 0.87500
N 	N 	0.34580 0.00163 0.81216 -0.17000
N 	N 	0.42190 0.00271 0.66810 -0.10800
N 	N 	0.15270 0.00042 0.63590 -0.10600
N 	N 	0.99500 0.00004 0.57220 -0.03200
N 	N 	0.37440 0.07402 0.09700 -0.19700
N 	N 	0.20170 0.07788 0.09830 -0.11200
N 	N 	0.31060 0.16724 0.19540 -0.10200
N 	N 	0.34330 0.23034 0.24890 -0.04100
N 	N 	0.17500 0.42095 0.38090 -0.15300
N 	N 	0.34750 0.41426 0.39960 -0.08900
N 	N 	0.24310 0.32424 0.30200 -0.10100
N 	N 	0.21130 0.26140 0.24980 -0.04600
C 	C 	0.18450 0.00034 0.79090 0.04200
H 	H 	0.10320 0.99950 0.87030 0.07200
C 	C 	0.30320 0.00194 0.56400 0.09500
H 	H 	0.31900 0.00240 0.45490 0.02000
C 	C 	0.43780 0.12727 0.15660 0.09500
H 	H 	0.55320 0.13640 0.17030 0.00700
C 	C 	0.16590 0.13496 0.15680 0.09000
H 	H 	0.05650 0.15160 0.17050 0.00900
C 	C 	0.11630 0.36723 0.32200 0.09300
H 	H 	0.00250 0.35920 0.29690 0.00200
C 	C 	0.38520 0.35549 0.35180 0.09500
H 	H 	0.49420 0.33730 0.35150 0.02900
N 	N 	0.65420 0.99837 0.18784 -0.19000
N 	N 	0.57810 0.99729 0.33190 -0.08900
N 	N 	0.84730 0.99958 0.36410 -0.09300
N 	N 	0.00500 0.99996 0.42780 -0.04000
N 	N 	0.62560 0.92598 0.90300 -0.16600
N 	N 	0.79830 0.92212 0.90170 -0.07200
N 	N 	0.68940 0.83276 0.80460 -0.09600
N 	N 	0.65670 0.76966 0.75110 -0.03300
N 	N 	0.82500 0.57905 0.61910 -0.13900
N 	N 	0.65250 0.58574 0.60040 -0.08800
N 	N 	0.75690 0.67576 0.69800 -0.09400
N 	N 	0.78870 0.73860 0.75020 -0.02800
C 	C 	0.81550 0.99966 0.20910 0.17700
H 	H 	0.89680 0.00050 0.12970 -0.02800
C 	C 	0.69680 0.99806 0.43600 0.11000
H 	H 	0.68100 0.99760 0.54510 0.04700
C 	C 	0.56220 0.87273 0.84340 0.11300
H 	H 	0.44680 0.86360 0.82970 0.02100
C 	C 	0.83410 0.86504 0.84320 0.11000
H 	H 	0.94350 0.84840 0.82950 0.04800
C 	C 	0.88370 0.63277 0.67800 0.10500
H 	H 	0.99750 0.64080 0.70310 0.03500
C 	C 	0.61480 0.64451 0.64820 0.10200
H 	H 	0.50580 0.66270 0.64850 0.02900
Cu	Cu	0.50000 0.00000 -0.00000 0.85800
