data_crystal

_cell_length_a 16.35520
_cell_length_b 16.00350
_cell_length_c 12.10240
_cell_angle_alpha 90.00000
_cell_angle_beta  111.39900
_cell_angle_gamma 90.00000

_symmetry_space_group_name_	'P 1'
_symmetry_space_group_name_H-M	'P 1'

loop_
_symmetry_equiv_pos_as_xyz
  x,y,z

loop_
_atom_site_label
_atom_site_type_symbol
_atom_site_fract_x
_atom_site_fract_y
_atom_site_fract_z
_atom_site_charge
Cd	Cd	0.48809 0.18060 0.59179 1.21600
N 	N 	0.42641 0.22520 0.40000 -0.25000
N 	N 	0.38504 0.07038 0.56330 -0.36400
O 	O 	0.42895 0.92090 0.49112 -0.38300
O 	O 	0.40259 0.91175 0.30070 -0.42900
C 	C 	0.38760 0.94387 0.38620 0.33800
O 	O 	0.11605 0.24859 0.35650 -0.43400
O 	O 	0.07618 0.21291 0.16490 -0.43400
C 	C 	0.38100 0.29630 0.36940 0.11300
C 	C 	0.42350 0.17320 0.31270 0.11400
H 	H 	0.41410 0.02140 0.57600 0.14700
H 	H 	0.36000 0.07520 0.61800 0.14200
C 	C 	0.31720 0.06820 0.44830 0.12900
C 	C 	0.31960 0.01127 0.36090 -0.15600
C 	C 	0.33270 0.31640 0.25210 -0.19700
H 	H 	0.38190 0.33370 0.42870 -0.01700
C 	C 	0.37680 0.18950 0.19480 -0.20200
H 	H 	0.45470 0.12340 0.33250 -0.01400
C 	C 	0.25190 0.12920 0.42000 -0.13500
C 	C 	0.25750 0.02020 0.24530 0.03800
H 	H 	0.30160 0.36640 0.23410 0.10100
C 	C 	0.33060 0.26260 0.16200 0.14700
H 	H 	0.37650 0.15090 0.13720 0.10900
C 	C 	0.19040 0.13650 0.30470 -0.01700
H 	H 	0.24930 0.16550 0.47860 0.08700
C 	C 	0.19380 0.08150 0.21680 -0.07900
H 	H 	0.25930 0.98380 0.18640 0.02000
C 	C 	0.28020 0.28190 0.03200 -0.14700
C 	C 	0.12160 0.20490 0.27360 0.34700
H 	H 	0.15340 0.08620 0.13960 0.06700
H 	H 	0.24790 0.33350 0.02670 0.07400
H 	H 	0.32210 0.29120 0.99340 0.07300
Cd	Cd	0.98809 0.68060 0.59179 1.21800
N 	N 	0.92641 0.72520 0.40000 -0.25200
N 	N 	0.88504 0.57038 0.56330 -0.36400
O 	O 	0.92895 0.42090 0.49112 -0.38200
O 	O 	0.90259 0.41175 0.30070 -0.42900
C 	C 	0.88760 0.44387 0.38620 0.33800
O 	O 	0.61605 0.74859 0.35650 -0.43500
O 	O 	0.57618 0.71291 0.16490 -0.43600
C 	C 	0.88100 0.79630 0.36940 0.11900
C 	C 	0.92350 0.67320 0.31270 0.12100
H 	H 	0.91410 0.52140 0.57600 0.14800
H 	H 	0.86000 0.57520 0.61800 0.14200
C 	C 	0.81720 0.56820 0.44830 0.12900
C 	C 	0.81960 0.51127 0.36090 -0.15500
C 	C 	0.83270 0.81640 0.25210 -0.21100
H 	H 	0.88190 0.83370 0.42870 -0.01900
C 	C 	0.87680 0.68950 0.19480 -0.21600
H 	H 	0.95470 0.62340 0.33250 -0.01700
C 	C 	0.75190 0.62920 0.42000 -0.13500
C 	C 	0.75750 0.52020 0.24530 0.03700
H 	H 	0.80160 0.86640 0.23410 0.10600
C 	C 	0.83060 0.76260 0.16200 0.16700
H 	H 	0.87650 0.65090 0.13720 0.11300
C 	C 	0.69040 0.63650 0.30470 -0.01700
H 	H 	0.74930 0.66550 0.47860 0.08700
C 	C 	0.69380 0.58150 0.21680 -0.07900
H 	H 	0.75930 0.48380 0.18640 0.02000
C 	C 	0.78020 0.78190 0.03200 -0.19700
C 	C 	0.62160 0.70490 0.27360 0.34700
H 	H 	0.65340 0.58620 0.13960 0.06700
H 	H 	0.74790 0.83350 0.02670 0.08700
H 	H 	0.82210 0.79120 0.99340 0.09100
Cd	Cd	0.51191 0.18060 0.90821 1.21700
N 	N 	0.57359 0.22520 0.10000 -0.25100
N 	N 	0.61496 0.07038 0.93670 -0.36400
O 	O 	0.57105 0.92090 0.00888 -0.38300
O 	O 	0.59741 0.91175 0.19930 -0.42900
C 	C 	0.61240 0.94387 0.11380 0.33700
O 	O 	0.88395 0.24859 0.14350 -0.43600
O 	O 	0.92382 0.21291 0.33510 -0.43600
C 	C 	0.61900 0.29630 0.13060 0.11600
C 	C 	0.57650 0.17320 0.18730 0.11700
H 	H 	0.58590 0.02140 0.92400 0.14800
H 	H 	0.64000 0.07520 0.88200 0.14200
C 	C 	0.68280 0.06820 0.05170 0.12800
C 	C 	0.68040 0.01127 0.13910 -0.15500
C 	C 	0.66730 0.31640 0.24790 -0.20400
H 	H 	0.61810 0.33370 0.07130 -0.01800
C 	C 	0.62320 0.18950 0.30520 -0.20900
H 	H 	0.54530 0.12340 0.16750 -0.01500
C 	C 	0.74810 0.12920 0.08000 -0.13500
C 	C 	0.74250 0.02020 0.25470 0.03700
H 	H 	0.69840 0.36640 0.26590 0.10400
C 	C 	0.66940 0.26260 0.33800 0.15800
H 	H 	0.62350 0.15090 0.36280 0.11200
C 	C 	0.80960 0.13650 0.19530 -0.01800
H 	H 	0.75070 0.16550 0.02140 0.08500
C 	C 	0.80620 0.08150 0.28320 -0.07900
H 	H 	0.74070 0.98380 0.31360 0.02000
C 	C 	0.71980 0.28190 0.46800 -0.17100
C 	C 	0.87840 0.20490 0.22640 0.34800
H 	H 	0.84660 0.08620 0.36040 0.06700
H 	H 	0.75210 0.33350 0.47330 0.08000
H 	H 	0.67790 0.29120 0.50660 0.08200
Cd	Cd	0.01191 0.68060 0.90821 1.21600
N 	N 	0.07359 0.72520 0.10000 -0.25000
N 	N 	0.11496 0.57038 0.93670 -0.36600
O 	O 	0.07105 0.42090 0.00888 -0.38000
O 	O 	0.09741 0.41175 0.19930 -0.42800
C 	C 	0.11240 0.44387 0.11380 0.33800
O 	O 	0.38395 0.74859 0.14350 -0.43400
O 	O 	0.42382 0.71291 0.33510 -0.43600
C 	C 	0.11900 0.79630 0.13060 0.11600
C 	C 	0.07650 0.67320 0.18730 0.11800
H 	H 	0.08590 0.52140 0.92400 0.14700
H 	H 	0.14000 0.57520 0.88200 0.14200
C 	C 	0.18280 0.56820 0.05170 0.13200
C 	C 	0.18040 0.51127 0.13910 -0.15600
C 	C 	0.16730 0.81640 0.24790 -0.20400
H 	H 	0.11810 0.83370 0.07130 -0.01700
C 	C 	0.12320 0.68950 0.30520 -0.20900
H 	H 	0.04530 0.62340 0.16750 -0.01400
C 	C 	0.24810 0.62920 0.08000 -0.13600
C 	C 	0.24250 0.52020 0.25470 0.03700
H 	H 	0.19840 0.86640 0.26590 0.10400
C 	C 	0.16940 0.76260 0.33800 0.15800
H 	H 	0.12350 0.65090 0.36280 0.11200
C 	C 	0.30960 0.63650 0.19530 -0.01700
H 	H 	0.25070 0.66550 0.02140 0.08800
C 	C 	0.30620 0.58150 0.28320 -0.07900
H 	H 	0.24070 0.48380 0.31360 0.02000
C 	C 	0.21980 0.78190 0.46800 -0.17100
C 	C 	0.37840 0.70490 0.22640 0.34700
H 	H 	0.34660 0.58620 0.36040 0.06700
H 	H 	0.25210 0.83350 0.47330 0.08000
H 	H 	0.17790 0.79120 0.50660 0.08200
Cd	Cd	0.51191 0.81940 0.40821 1.21700
N 	N 	0.57359 0.77480 0.60000 -0.24900
N 	N 	0.61496 0.92962 0.43670 -0.36400
O 	O 	0.57105 0.07910 0.50888 -0.38300
O 	O 	0.59741 0.08825 0.69930 -0.42900
C 	C 	0.61240 0.05613 0.61380 0.33800
O 	O 	0.88395 0.75141 0.64350 -0.43400
O 	O 	0.92382 0.78709 0.83510 -0.43400
C 	C 	0.61900 0.70370 0.63060 0.11300
C 	C 	0.57650 0.82680 0.68730 0.11400
H 	H 	0.58590 0.97860 0.42400 0.14700
H 	H 	0.64000 0.92480 0.38200 0.14200
C 	C 	0.68280 0.93180 0.55170 0.12900
C 	C 	0.68040 0.98873 0.63910 -0.15600
C 	C 	0.66730 0.68360 0.74790 -0.19700
H 	H 	0.61810 0.66630 0.57130 -0.01700
C 	C 	0.62320 0.81050 0.80520 -0.20200
H 	H 	0.54530 0.87660 0.66750 -0.01400
C 	C 	0.74810 0.87080 0.58000 -0.13500
C 	C 	0.74250 0.97980 0.75470 0.03800
H 	H 	0.69840 0.63360 0.76590 0.10100
C 	C 	0.66940 0.73740 0.83800 0.14700
H 	H 	0.62350 0.84910 0.86280 0.10900
C 	C 	0.80960 0.86350 0.69530 -0.01700
H 	H 	0.75070 0.83450 0.52140 0.08700
C 	C 	0.80620 0.91850 0.78320 -0.07900
H 	H 	0.74070 0.01620 0.81360 0.02000
C 	C 	0.71980 0.71810 0.96800 -0.14700
C 	C 	0.87840 0.79510 0.72640 0.34700
H 	H 	0.84660 0.91380 0.86040 0.06700
H 	H 	0.75210 0.66650 0.97330 0.07400
H 	H 	0.67790 0.70880 0.00660 0.07300
Cd	Cd	0.01191 0.31940 0.40821 1.21800
N 	N 	0.07359 0.27480 0.60000 -0.25200
N 	N 	0.11496 0.42962 0.43670 -0.36400
O 	O 	0.07105 0.57910 0.50888 -0.38200
O 	O 	0.09741 0.58825 0.69930 -0.42900
C 	C 	0.11240 0.55613 0.61380 0.33800
O 	O 	0.38395 0.25141 0.64350 -0.43500
O 	O 	0.42382 0.28709 0.83510 -0.43600
C 	C 	0.11900 0.20370 0.63060 0.11900
C 	C 	0.07650 0.32680 0.68730 0.12100
H 	H 	0.08590 0.47860 0.42400 0.14800
H 	H 	0.14000 0.42480 0.38200 0.14200
C 	C 	0.18280 0.43180 0.55170 0.12900
C 	C 	0.18040 0.48873 0.63910 -0.15500
C 	C 	0.16730 0.18360 0.74790 -0.21100
H 	H 	0.11810 0.16630 0.57130 -0.01900
C 	C 	0.12320 0.31050 0.80520 -0.21600
H 	H 	0.04530 0.37660 0.66750 -0.01700
C 	C 	0.24810 0.37080 0.58000 -0.13500
C 	C 	0.24250 0.47980 0.75470 0.03700
H 	H 	0.19840 0.13360 0.76590 0.10600
C 	C 	0.16940 0.23740 0.83800 0.16700
H 	H 	0.12350 0.34910 0.86280 0.11300
C 	C 	0.30960 0.36350 0.69530 -0.01700
H 	H 	0.25070 0.33450 0.52140 0.08700
C 	C 	0.30620 0.41850 0.78320 -0.07900
H 	H 	0.24070 0.51620 0.81360 0.02000
C 	C 	0.21980 0.21810 0.96800 -0.19700
C 	C 	0.37840 0.29510 0.72640 0.34700
H 	H 	0.34660 0.41380 0.86040 0.06700
H 	H 	0.25210 0.16650 0.97330 0.08700
H 	H 	0.17790 0.20880 0.00660 0.09100
Cd	Cd	0.48809 0.81940 0.09179 1.21700
N 	N 	0.42641 0.77480 0.90000 -0.25100
N 	N 	0.38504 0.92962 0.06330 -0.36400
O 	O 	0.42895 0.07910 0.99112 -0.38300
O 	O 	0.40259 0.08825 0.80070 -0.42900
C 	C 	0.38760 0.05613 0.88620 0.33700
O 	O 	0.11605 0.75141 0.85650 -0.43600
O 	O 	0.07618 0.78709 0.66490 -0.43600
C 	C 	0.38100 0.70370 0.86940 0.11600
C 	C 	0.42350 0.82680 0.81270 0.11700
H 	H 	0.41410 0.97860 0.07600 0.14800
H 	H 	0.36000 0.92480 0.11800 0.14200
C 	C 	0.31720 0.93180 0.94830 0.12800
C 	C 	0.31960 0.98873 0.86090 -0.15500
C 	C 	0.33270 0.68360 0.75210 -0.20400
H 	H 	0.38190 0.66630 0.92870 -0.01800
C 	C 	0.37680 0.81050 0.69480 -0.20900
H 	H 	0.45470 0.87660 0.83250 -0.01500
C 	C 	0.25190 0.87080 0.92000 -0.13500
C 	C 	0.25750 0.97980 0.74530 0.03700
H 	H 	0.30160 0.63360 0.73410 0.10400
C 	C 	0.33060 0.73740 0.66200 0.15800
H 	H 	0.37650 0.84910 0.63720 0.11200
C 	C 	0.19040 0.86350 0.80470 -0.01800
H 	H 	0.24930 0.83450 0.97860 0.08500
C 	C 	0.19380 0.91850 0.71680 -0.07900
H 	H 	0.25930 0.01620 0.68640 0.02000
C 	C 	0.28020 0.71810 0.53200 -0.17100
C 	C 	0.12160 0.79510 0.77360 0.34800
H 	H 	0.15340 0.91380 0.63960 0.06700
H 	H 	0.24790 0.66650 0.52670 0.08000
H 	H 	0.32210 0.70880 0.49340 0.08200
Cd	Cd	0.98809 0.31940 0.09179 1.21600
N 	N 	0.92641 0.27480 0.90000 -0.25000
N 	N 	0.88504 0.42962 0.06330 -0.36600
O 	O 	0.92895 0.57910 0.99112 -0.38000
O 	O 	0.90259 0.58825 0.80070 -0.42800
C 	C 	0.88760 0.55613 0.88620 0.33800
O 	O 	0.61605 0.25141 0.85650 -0.43400
O 	O 	0.57618 0.28709 0.66490 -0.43600
C 	C 	0.88100 0.20370 0.86940 0.11600
C 	C 	0.92350 0.32680 0.81270 0.11800
H 	H 	0.91410 0.47860 0.07600 0.14700
H 	H 	0.86000 0.42480 0.11800 0.14200
C 	C 	0.81720 0.43180 0.94830 0.13200
C 	C 	0.81960 0.48873 0.86090 -0.15600
C 	C 	0.83270 0.18360 0.75210 -0.20400
H 	H 	0.88190 0.16630 0.92870 -0.01700
C 	C 	0.87680 0.31050 0.69480 -0.20900
H 	H 	0.95470 0.37660 0.83250 -0.01400
C 	C 	0.75190 0.37080 0.92000 -0.13600
C 	C 	0.75750 0.47980 0.74530 0.03700
H 	H 	0.80160 0.13360 0.73410 0.10400
C 	C 	0.83060 0.23740 0.66200 0.15800
H 	H 	0.87650 0.34910 0.63720 0.11200
C 	C 	0.69040 0.36350 0.80470 -0.01700
H 	H 	0.74930 0.33450 0.97860 0.08800
C 	C 	0.69380 0.41850 0.71680 -0.07900
H 	H 	0.75930 0.51620 0.68640 0.02000
C 	C 	0.78020 0.21810 0.53200 -0.17100
C 	C 	0.62160 0.29510 0.77360 0.34700
H 	H 	0.65340 0.41380 0.63960 0.06700
H 	H 	0.74790 0.16650 0.52670 0.08000
H 	H 	0.82210 0.20880 0.49340 0.08200
