data_crystal

_cell_length_a 6.71190
_cell_length_b 24.87600
_cell_length_c 14.06470
_cell_angle_alpha 90.00000
_cell_angle_beta  90.00000
_cell_angle_gamma 90.00000

_symmetry_space_group_name_	'P 1'
_symmetry_space_group_name_H-M	'P 1'

loop_
_symmetry_equiv_pos_as_xyz
  x,y,z

loop_
_atom_site_label
_atom_site_type_symbol
_atom_site_fract_x
_atom_site_fract_y
_atom_site_fract_z
_atom_site_charge
O 	O 	0.11300 0.11600 0.63600 -0.09700
O 	O 	0.61300 0.61600 0.63600 -0.05600
O 	O 	0.88700 0.38400 0.63600 -0.01600
O 	O 	0.38700 0.88400 0.63600 -0.07900
O 	O 	0.88700 0.61600 0.36400 -0.01500
O 	O 	0.38700 0.11600 0.36400 -0.07800
O 	O 	0.11300 0.88400 0.36400 -0.09600
O 	O 	0.61300 0.38400 0.36400 -0.05500
O 	O 	0.88700 0.88400 0.36400 -0.01500
O 	O 	0.38700 0.38400 0.36400 -0.07800
O 	O 	0.11300 0.61600 0.36400 -0.09600
O 	O 	0.61300 0.11600 0.36400 -0.05500
O 	O 	0.11300 0.38400 0.63600 -0.09600
O 	O 	0.61300 0.88400 0.63600 -0.05500
O 	O 	0.88700 0.11600 0.63600 -0.01500
O 	O 	0.38700 0.61600 0.63600 -0.07800
C 	C 	-0.00000 0.16460 0.01870 0.11500
H 	H 	0.00000 0.19630 0.98090 -0.01300
C 	C 	-0.00000 0.11590 0.97370 -0.21000
H 	H 	0.00000 0.11420 0.90620 0.12700
C 	C 	0.00000 0.07030 0.02550 0.17500
C 	C 	-0.00000 0.07320 0.12440 -0.17000
H 	H 	0.00000 0.04160 0.16220 0.11200
C 	C 	0.00000 0.12470 0.16670 0.08600
H 	H 	0.00000 0.12770 0.23400 0.01600
C 	C 	0.00000 0.20350 0.54010 -0.15700
H 	H 	0.00000 0.17040 0.50640 0.12400
C 	C 	0.00000 0.20250 0.63910 0.17000
N 	N 	0.00000 0.16980 0.11310 -0.24200
N 	N 	0.00000 0.01940 0.97450 -0.09500
N 	N 	0.00000 0.15110 0.67800 -0.03200
O 	O 	0.00000 0.29430 0.34110 -0.35000
O 	O 	-0.00000 0.14490 0.76070 -0.13900
C 	C 	0.50000 0.66460 0.01870 0.13400
H 	H 	0.50000 0.69630 0.98090 -0.00100
C 	C 	0.50000 0.61590 0.97370 -0.20300
H 	H 	0.50000 0.61420 0.90620 0.14300
C 	C 	0.50000 0.57030 0.02550 0.19800
C 	C 	0.50000 0.57320 0.12440 -0.16600
H 	H 	0.50000 0.54160 0.16220 0.12800
C 	C 	0.50000 0.62470 0.16670 0.10600
H 	H 	0.50000 0.62770 0.23400 0.02500
C 	C 	0.50000 0.70350 0.54010 -0.16000
H 	H 	0.50000 0.67040 0.50640 0.14300
C 	C 	0.50000 0.70250 0.63910 0.20200
N 	N 	0.50000 0.66980 0.11310 -0.23400
N 	N 	0.50000 0.51940 0.97450 -0.08300
N 	N 	0.50000 0.65110 0.67800 -0.01700
O 	O 	0.50000 0.79430 0.34110 -0.32600
O 	O 	0.50000 0.64490 0.76070 -0.11400
C 	C 	0.00000 0.33540 0.01870 0.11500
H 	H 	0.00000 0.30370 0.98090 -0.01300
C 	C 	0.00000 0.38410 0.97370 -0.21000
H 	H 	0.00000 0.38580 0.90620 0.12700
C 	C 	-0.00000 0.42970 0.02550 0.17500
C 	C 	0.00000 0.42680 0.12440 -0.17000
H 	H 	-0.00000 0.45840 0.16220 0.11200
C 	C 	-0.00000 0.37530 0.16670 0.08600
H 	H 	-0.00000 0.37230 0.23400 0.01600
C 	C 	0.00000 0.29650 0.54010 -0.15700
H 	H 	-0.00000 0.32960 0.50640 0.12400
C 	C 	-0.00000 0.29750 0.63910 0.17000
N 	N 	-0.00000 0.33020 0.11310 -0.24200
N 	N 	-0.00000 0.48060 0.97450 -0.09500
N 	N 	0.00000 0.34890 0.67800 -0.03200
O 	O 	-0.00000 0.20570 0.34110 -0.35000
O 	O 	0.00000 0.35510 0.76070 -0.13900
C 	C 	0.50000 0.83540 0.01870 0.13400
H 	H 	0.50000 0.80370 0.98090 -0.00100
C 	C 	0.50000 0.88410 0.97370 -0.20300
H 	H 	0.50000 0.88580 0.90620 0.14300
C 	C 	0.50000 0.92970 0.02550 0.19800
C 	C 	0.50000 0.92680 0.12440 -0.16600
H 	H 	0.50000 0.95840 0.16220 0.12800
C 	C 	0.50000 0.87530 0.16670 0.10600
H 	H 	0.50000 0.87230 0.23400 0.02500
C 	C 	0.50000 0.79650 0.54010 -0.16000
H 	H 	0.50000 0.82960 0.50640 0.14300
C 	C 	0.50000 0.79750 0.63910 0.20200
N 	N 	0.50000 0.83020 0.11310 -0.23400
N 	N 	0.50000 0.98060 0.97450 -0.08300
N 	N 	0.50000 0.84890 0.67800 -0.01700
O 	O 	0.50000 0.70570 0.34110 -0.32600
O 	O 	0.50000 0.85510 0.76070 -0.11400
C 	C 	0.00000 0.66460 0.98130 0.11500
H 	H 	0.00000 0.69630 0.01910 -0.01300
C 	C 	0.00000 0.61590 0.02630 -0.21000
H 	H 	0.00000 0.61420 0.09380 0.12700
C 	C 	0.00000 0.57030 0.97450 0.17500
C 	C 	0.00000 0.57320 0.87560 -0.17000
H 	H 	0.00000 0.54160 0.83780 0.11200
C 	C 	0.00000 0.62470 0.83330 0.08600
H 	H 	0.00000 0.62770 0.76600 0.01600
C 	C 	0.00000 0.70350 0.45990 -0.15700
H 	H 	-0.00000 0.67040 0.49360 0.12400
C 	C 	0.00000 0.70250 0.36090 0.17000
N 	N 	-0.00000 0.66980 0.88690 -0.24200
N 	N 	-0.00000 0.51940 0.02550 -0.09500
N 	N 	0.00000 0.65110 0.32200 -0.03200
O 	O 	0.00000 0.79430 0.65890 -0.35000
O 	O 	0.00000 0.64490 0.23930 -0.13900
C 	C 	0.50000 0.16460 0.98130 0.13400
H 	H 	0.50000 0.19630 0.01910 -0.00100
C 	C 	0.50000 0.11590 0.02630 -0.20300
H 	H 	0.50000 0.11420 0.09380 0.14300
C 	C 	0.50000 0.07030 0.97450 0.19800
C 	C 	0.50000 0.07320 0.87560 -0.16600
H 	H 	0.50000 0.04160 0.83780 0.12800
C 	C 	0.50000 0.12470 0.83330 0.10600
H 	H 	0.50000 0.12770 0.76600 0.02500
C 	C 	0.50000 0.20350 0.45990 -0.16000
H 	H 	0.50000 0.17040 0.49360 0.14300
C 	C 	0.50000 0.20250 0.36090 0.20200
N 	N 	0.50000 0.16980 0.88690 -0.23400
N 	N 	0.50000 0.01940 0.02550 -0.08300
N 	N 	0.50000 0.15110 0.32200 -0.01700
O 	O 	0.50000 0.29430 0.65890 -0.32600
O 	O 	0.50000 0.14490 0.23930 -0.11400
C 	C 	-0.00000 0.83540 0.98130 0.11500
H 	H 	0.00000 0.80370 0.01910 -0.01300
C 	C 	0.00000 0.88410 0.02630 -0.21000
H 	H 	0.00000 0.88580 0.09380 0.12700
C 	C 	0.00000 0.92970 0.97450 0.17500
C 	C 	0.00000 0.92680 0.87560 -0.17000
H 	H 	0.00000 0.95840 0.83780 0.11200
C 	C 	-0.00000 0.87530 0.83330 0.08600
H 	H 	-0.00000 0.87230 0.76600 0.01600
C 	C 	0.00000 0.79650 0.45990 -0.15700
H 	H 	0.00000 0.82960 0.49360 0.12400
C 	C 	0.00000 0.79750 0.36090 0.17000
N 	N 	0.00000 0.83020 0.88690 -0.24200
N 	N 	0.00000 0.98060 0.02550 -0.09500
N 	N 	-0.00000 0.84890 0.32200 -0.03200
O 	O 	0.00000 0.70570 0.65890 -0.35000
O 	O 	0.00000 0.85510 0.23930 -0.13900
C 	C 	0.50000 0.33540 0.98130 0.13400
H 	H 	0.50000 0.30370 0.01910 -0.00100
C 	C 	0.50000 0.38410 0.02630 -0.20300
H 	H 	0.50000 0.38580 0.09380 0.14300
C 	C 	0.50000 0.42970 0.97450 0.19800
C 	C 	0.50000 0.42680 0.87560 -0.16600
H 	H 	0.50000 0.45840 0.83780 0.12800
C 	C 	0.50000 0.37530 0.83330 0.10600
H 	H 	0.50000 0.37230 0.76600 0.02500
C 	C 	0.50000 0.29650 0.45990 -0.16000
H 	H 	0.50000 0.32960 0.49360 0.14300
C 	C 	0.50000 0.29750 0.36090 0.20200
N 	N 	0.50000 0.33020 0.88690 -0.23400
N 	N 	0.50000 0.48060 0.02550 -0.08300
N 	N 	0.50000 0.34890 0.32200 -0.01700
O 	O 	0.50000 0.20570 0.65890 -0.32600
O 	O 	0.50000 0.35510 0.23930 -0.11400
C 	C 	0.00000 0.25000 0.38360 0.25100
C 	C 	0.00000 0.25000 0.49040 0.05100
C 	C 	-0.00000 0.25000 0.69040 -0.23300
C 	C 	0.00000 0.25000 0.79880 0.41400
Cd	Cd	0.00000 0.25000 0.19228 1.22400
C 	C 	0.50000 0.75000 0.38360 0.25500
C 	C 	0.50000 0.75000 0.49040 0.08200
C 	C 	0.50000 0.75000 0.69040 -0.24600
C 	C 	0.50000 0.75000 0.79880 0.49300
Cd	Cd	0.50000 0.75000 0.19228 1.23400
C 	C 	0.00000 0.75000 0.61640 0.25100
C 	C 	0.00000 0.75000 0.50960 0.05100
C 	C 	-0.00000 0.75000 0.30960 -0.23300
C 	C 	0.00000 0.75000 0.20120 0.41400
Cd	Cd	-0.00000 0.75000 0.80772 1.22400
C 	C 	0.50000 0.25000 0.61640 0.25500
C 	C 	0.50000 0.25000 0.50960 0.08200
C 	C 	0.50000 0.25000 0.30960 -0.24600
C 	C 	0.50000 0.25000 0.20120 0.49300
Cd	Cd	0.50000 0.25000 0.80772 1.23400
O 	O 	0.16060 0.25000 0.83960 -0.41600
O 	O 	0.66060 0.75000 0.83960 -0.40800
O 	O 	0.83940 0.25000 0.83960 -0.36000
O 	O 	0.33940 0.75000 0.83960 -0.43500
O 	O 	0.83940 0.75000 0.16040 -0.36000
O 	O 	0.33940 0.25000 0.16040 -0.43500
O 	O 	0.16060 0.75000 0.16040 -0.41600
O 	O 	0.66060 0.25000 0.16040 -0.40800
