data_crystal

_cell_length_a 13.32940
_cell_length_b 16.20200
_cell_length_c 20.28300
_cell_angle_alpha 90.00000
_cell_angle_beta  99.49600
_cell_angle_gamma 90.00000

_symmetry_space_group_name_	'P 1'
_symmetry_space_group_name_H-M	'P 1'

loop_
_symmetry_equiv_pos_as_xyz
  x,y,z

loop_
_atom_site_label
_atom_site_type_symbol
_atom_site_fract_x
_atom_site_fract_y
_atom_site_fract_z
_atom_site_charge
Cd	Cd	0.32432 0.49806 0.35787 1.21500
Cd	Cd	0.67568 0.99806 0.14213 1.21500
Cd	Cd	0.32432 0.00194 0.85787 1.21600
Cd	Cd	0.03022 0.19844 0.23516 1.19200
Cd	Cd	0.67568 0.50194 0.64213 1.21600
Cd	Cd	0.03022 0.30156 0.73516 1.19300
Cd	Cd	0.96978 0.80156 0.76484 1.19200
Cd	Cd	0.96978 0.69844 0.26484 1.19300
H 	H 	0.03990 0.91660 0.14850 0.04000
H 	H 	0.85060 0.34830 0.51380 0.05100
H 	H 	0.55590 0.87650 0.68010 0.13400
H 	H 	0.44580 0.61580 0.48000 -0.00100
H 	H 	0.85590 0.58830 0.47210 0.05000
H 	H 	0.77350 0.30570 0.65780 0.02100
H 	H 	0.29810 0.56770 0.56800 0.07500
H 	H 	0.55420 0.38420 0.52000 -0.00100
H 	H 	0.29930 0.82200 0.55290 0.14400
H 	H 	0.68850 0.24440 0.75130 0.02700
H 	H 	0.54210 0.31490 0.27480 0.06600
H 	H 	0.27250 0.80890 0.41890 0.03300
H 	H 	0.68850 0.25560 0.25130 0.02700
H 	H 	0.43200 0.23240 0.98120 0.13900
H 	H 	0.55420 0.11580 0.02000 -0.00100
H 	H 	0.28400 0.32960 0.78390 -0.03100
H 	H 	0.44410 0.37650 0.81990 0.13400
H 	H 	0.45790 0.68510 0.72520 0.06600
H 	H 	0.96010 0.41660 0.35150 0.04200
H 	H 	0.26330 0.26600 0.96630 0.02600
H 	H 	0.22870 0.93130 0.60050 0.02700
H 	H 	0.55590 0.62350 0.18010 0.13400
H 	H 	0.44580 0.88420 0.98000 -0.00100
H 	H 	0.70070 0.17800 0.44710 0.14400
H 	H 	0.72750 0.19110 0.58110 0.03300
H 	H 	0.73670 0.76600 0.53370 0.02600
H 	H 	0.09360 0.26670 0.89840 0.03900
H 	H 	0.14940 0.65170 0.48620 0.05100
H 	H 	0.14940 0.84830 0.98620 0.05300
H 	H 	0.22650 0.80570 0.84220 0.02200
H 	H 	0.82410 0.49220 0.80250 0.01100
H 	H 	0.43200 0.26760 0.48120 0.13900
H 	H 	0.03990 0.58340 0.64850 0.04200
H 	H 	0.90640 0.73330 0.10160 0.03900
H 	H 	0.29930 0.67800 0.05290 0.14300
H 	H 	0.31150 0.74440 0.74870 0.02700
H 	H 	0.54210 0.18510 0.77480 0.06600
H 	H 	0.22650 0.69430 0.34220 0.02100
H 	H 	0.71600 0.67040 0.21610 -0.03100
H 	H 	0.55390 0.39990 0.74650 -0.02700
H 	H 	0.56800 0.76760 0.01880 0.13900
H 	H 	0.29810 0.93230 0.06800 0.07600
H 	H 	0.85590 0.91170 0.97210 0.04900
H 	H 	0.73670 0.73400 0.03370 0.02600
H 	H 	0.82410 0.00780 0.30250 0.01300
H 	H 	0.44410 0.12350 0.31990 0.13400
H 	H 	0.44610 0.89990 0.75350 -0.02700
H 	H 	0.96010 0.08340 0.85150 0.04000
H 	H 	0.72750 0.30890 0.08110 0.03200
H 	H 	0.70190 0.06770 0.93200 0.07600
H 	H 	0.77350 0.19430 0.15780 0.02200
H 	H 	0.28400 0.17040 0.28390 -0.03100
H 	H 	0.56800 0.73240 0.51880 0.13900
H 	H 	0.22870 0.56870 0.10050 0.02600
H 	H 	0.55390 0.10010 0.24650 -0.02700
H 	H 	0.14410 0.08830 0.02790 0.04900
H 	H 	0.14410 0.41170 0.52790 0.05000
H 	H 	0.70190 0.43230 0.43200 0.07500
H 	H 	0.17590 0.99220 0.69750 0.01300
H 	H 	0.26330 0.23400 0.46630 0.02600
H 	H 	0.71600 0.82960 0.71610 -0.03100
H 	H 	0.09360 0.23330 0.39840 0.03800
H 	H 	0.70070 0.32200 0.94710 0.14300
H 	H 	0.77130 0.06870 0.39950 0.02700
H 	H 	0.44610 0.60010 0.25350 -0.02700
H 	H 	0.27250 0.69110 0.91890 0.03200
H 	H 	0.31150 0.75560 0.24870 0.02700
H 	H 	0.77130 0.43130 0.89950 0.02600
H 	H 	0.90640 0.76670 0.60160 0.03800
H 	H 	0.45790 0.81490 0.22520 0.06600
H 	H 	0.85060 0.15170 0.01380 0.05300
H 	H 	0.17590 0.50780 0.19750 0.01100
C 	C 	0.30110 0.74360 0.92180 0.01000
C 	C 	0.84610 0.77910 0.61690 -0.01800
C 	C 	0.60650 0.37900 0.35560 -0.02500
C 	C 	0.39350 0.87900 0.14440 -0.02400
C 	C 	0.00140 0.12460 0.03340 -0.09200
C 	C 	0.26640 0.93300 0.64330 0.01700
C 	C 	0.02970 0.59420 0.60290 -0.01100
C 	C 	0.87500 0.25930 0.31210 0.34300
C 	C 	0.50830 0.08130 0.86660 0.29400
C 	C 	0.25710 0.31240 0.82110 0.11900
C 	C 	0.21570 0.80580 0.17120 -0.10700
C 	C 	0.99860 0.62460 0.46660 -0.08800
C 	C 	0.60310 0.14920 0.04480 0.10200
C 	C 	0.60390 0.17370 0.80190 -0.06300
C 	C 	0.42180 0.19590 0.39760 0.23500
C 	C 	0.58130 0.35620 0.87800 0.23500
C 	C 	0.36940 0.68250 0.06570 -0.28900
C 	C 	0.06550 0.08220 0.93430 -0.09200
C 	C 	0.01970 0.35170 0.60550 0.33600
C 	C 	0.47650 0.35020 0.85830 -0.28700
C 	C 	0.30870 0.79040 0.21190 0.02100
C 	C 	0.47650 0.14980 0.35830 -0.28700
C 	C 	0.41870 0.64380 0.12200 0.23500
C 	C 	0.97030 0.40580 0.39710 -0.01100
C 	C 	0.58130 0.14380 0.37800 0.23500
C 	C 	0.78430 0.30580 0.32880 -0.10600
C 	C 	0.42760 0.72860 0.02840 0.23200
C 	C 	0.60390 0.32630 0.30190 -0.06200
C 	C 	0.84690 0.55490 0.59840 0.30800
C 	C 	0.38520 0.58350 0.22770 0.11200
C 	C 	0.60650 0.12100 0.85560 -0.02400
C 	C 	0.49170 0.58130 0.63340 0.29500
C 	C 	0.88950 0.37830 0.42600 -0.01100
C 	C 	0.69130 0.20960 0.78810 0.02100
C 	C 	0.15310 0.05490 0.90160 0.31000
C 	C 	0.97030 0.09420 0.89710 -0.00200
C 	C 	0.01970 0.14830 0.10550 0.33400
C 	C 	0.57240 0.27140 0.97160 0.23200
C 	C 	0.69960 0.10380 0.89610 -0.08000
C 	C 	0.21150 0.85990 0.11700 0.06200
C 	C 	0.90500 0.13520 0.99360 -0.00900
C 	C 	0.91980 0.90300 0.99750 0.02800
C 	C 	0.39690 0.64920 0.45520 0.10200
C 	C 	0.88950 0.12170 0.92600 -0.01400
C 	C 	0.72300 0.19310 0.12020 0.00700
C 	C 	0.61480 0.08350 0.27230 0.11200
C 	C 	0.63060 0.18250 0.43430 -0.28900
C 	C 	0.30040 0.89620 0.10390 -0.08000
C 	C 	0.78430 0.19420 0.82880 -0.10700
C 	C 	0.99860 0.87540 0.96660 -0.09200
C 	C 	0.53090 0.73650 0.04480 -0.28700
C 	C 	0.74290 0.81240 0.67890 0.11900
C 	C 	0.75220 0.72210 0.07910 0.01900
C 	C 	0.72300 0.30690 0.62020 0.00700
C 	C 	0.39350 0.62100 0.64440 -0.02500
C 	C 	0.09500 0.86480 0.00640 -0.00900
C 	C 	0.69890 0.25640 0.07820 0.01000
C 	C 	0.12500 0.74070 0.68790 0.34300
C 	C 	0.21150 0.64010 0.61700 0.06100
C 	C 	0.25710 0.18760 0.32110 0.11900
C 	C 	0.69130 0.29040 0.28810 0.02000
C 	C 	0.78850 0.14010 0.88300 0.06200
C 	C 	0.49170 0.91870 0.13340 0.29400
C 	C 	0.84610 0.72090 0.11690 -0.01800
C 	C 	0.98030 0.64830 0.39450 0.33600
C 	C 	0.93450 0.58220 0.56570 -0.08400
C 	C 	0.02970 0.90580 0.10290 -0.00200
C 	C 	0.78850 0.35990 0.38300 0.06100
C 	C 	0.98030 0.85170 0.89450 0.33400
C 	C 	0.76210 0.03380 0.30320 -0.00800
C 	C 	0.23790 0.53380 0.19680 -0.00800
C 	C 	0.15390 0.22090 0.38310 -0.01800
C 	C 	0.42760 0.77140 0.52840 0.23400
C 	C 	0.57820 0.80410 0.60240 0.23500
C 	C 	0.46910 0.23650 0.45520 -0.28800
C 	C 	0.00140 0.37540 0.53340 -0.08800
C 	C 	0.63060 0.31750 0.93430 -0.28900
C 	C 	0.36940 0.81750 0.56570 -0.28900
C 	C 	0.73360 0.43300 0.85670 0.01700
C 	C 	0.75220 0.77790 0.57910 0.01900
C 	C 	0.08020 0.40300 0.50250 0.02300
C 	C 	0.57820 0.69590 0.10240 0.23400
C 	C 	0.74290 0.68760 0.17890 0.11900
C 	C 	0.39610 0.82630 0.19810 -0.06300
C 	C 	0.76210 0.46620 0.80320 -0.00800
C 	C 	0.52350 0.64980 0.14170 -0.28700
C 	C 	0.06550 0.41780 0.43430 -0.08400
C 	C 	0.57240 0.22860 0.47160 0.23400
C 	C 	0.69960 0.39620 0.39610 -0.07900
C 	C 	0.24780 0.27790 0.92090 0.01900
C 	C 	0.23790 0.96620 0.69680 -0.00800
C 	C 	0.11050 0.87830 0.07400 -0.01400
C 	C 	0.12500 0.75930 0.18790 0.34400
C 	C 	0.91980 0.59700 0.49750 0.02300
C 	C 	0.84690 0.94510 0.09840 0.31000
C 	C 	0.52350 0.85020 0.64170 -0.28700
C 	C 	0.87500 0.24070 0.81210 0.34400
C 	C 	0.15390 0.27910 0.88310 -0.01800
C 	C 	0.73360 0.06700 0.35670 0.01700
C 	C 	0.39610 0.67370 0.69810 -0.06200
C 	C 	0.26640 0.56700 0.14330 0.01700
C 	C 	0.69890 0.24360 0.57820 0.01000
C 	C 	0.24780 0.22210 0.42090 0.01900
C 	C 	0.50830 0.41870 0.36660 0.29500
C 	C 	0.60310 0.35080 0.54480 0.10200
C 	C 	0.39690 0.85080 0.95520 0.10200
C 	C 	0.30040 0.60380 0.60390 -0.07900
C 	C 	0.53090 0.76350 0.54480 -0.28800
C 	C 	0.15310 0.44510 0.40160 0.30800
C 	C 	0.09500 0.63520 0.50640 -0.01100
C 	C 	0.27700 0.80690 0.87980 0.00700
C 	C 	0.42180 0.30410 0.89760 0.23400
C 	C 	0.61480 0.41650 0.77230 0.11200
C 	C 	0.08020 0.09700 0.00250 0.02800
C 	C 	0.90500 0.36480 0.49360 -0.01100
C 	C 	0.46910 0.26350 0.95520 -0.28700
C 	C 	0.27700 0.69310 0.37980 0.00700
C 	C 	0.93450 0.91780 0.06570 -0.09200
C 	C 	0.41870 0.85620 0.62200 0.23500
C 	C 	0.30110 0.75640 0.42180 0.01000
C 	C 	0.11050 0.62170 0.57400 -0.01100
C 	C 	0.30870 0.70960 0.71190 0.02000
C 	C 	0.38520 0.91650 0.72770 0.11200
C 	C 	0.21570 0.69420 0.67120 -0.10600
N 	N 	0.31380 0.54310 0.25170 -0.24300
N 	N 	0.68520 0.70250 0.12040 -0.17000
N 	N 	0.83900 0.80110 0.68030 -0.26200
N 	N 	0.83900 0.69890 0.18030 -0.26200
N 	N 	0.63910 0.40180 0.83720 -0.16600
N 	N 	0.33680 0.62660 0.39990 -0.24000
N 	N 	0.31380 0.95690 0.75170 -0.24200
N 	N 	0.36090 0.90180 0.66280 -0.16600
N 	N 	0.66320 0.37340 0.60010 -0.24000
N 	N 	0.63910 0.09820 0.33720 -0.16600
N 	N 	0.36090 0.59820 0.16280 -0.16600
N 	N 	0.68620 0.45690 0.74830 -0.24300
N 	N 	0.31480 0.20250 0.37960 -0.17000
N 	N 	0.37740 0.72690 0.47030 -0.15900
N 	N 	0.33680 0.87340 0.89990 -0.23900
N 	N 	0.16100 0.19890 0.31970 -0.26200
N 	N 	0.68520 0.79750 0.62040 -0.17000
N 	N 	0.66320 0.12660 0.10010 -0.23900
N 	N 	0.68620 0.04310 0.24830 -0.24200
N 	N 	0.37740 0.77310 0.97030 -0.15900
N 	N 	0.31480 0.29750 0.87960 -0.17000
N 	N 	0.62260 0.22690 0.02970 -0.15900
N 	N 	0.16100 0.30110 0.81970 -0.26200
N 	N 	0.62260 0.27310 0.52970 -0.15900
O 	O 	0.89570 0.26860 0.25550 -0.43900
O 	O 	0.10430 0.73140 0.74450 -0.43900
O 	O 	0.89900 0.86410 0.85900 -0.39500
O 	O 	0.04910 0.81300 0.87260 -0.41000
O 	O 	0.75890 0.94790 0.06180 -0.39200
O 	O 	0.95090 0.31300 0.62740 -0.41300
O 	O 	0.49100 0.97520 0.09170 -0.35200
O 	O 	0.89900 0.63590 0.35900 -0.39500
O 	O 	0.75890 0.55210 0.56180 -0.39000
O 	O 	0.89570 0.23140 0.75550 -0.43900
O 	O 	0.10100 0.36410 0.64100 -0.39500
O 	O 	0.50900 0.47520 0.40830 -0.35100
O 	O 	0.49100 0.52480 0.59170 -0.35100
O 	O 	0.92340 0.21460 0.35640 -0.32200
O 	O 	0.57320 0.89370 0.16680 -0.39500
O 	O 	0.50900 0.02480 0.90830 -0.35200
O 	O 	0.85740 0.53620 0.65810 -0.39600
O 	O 	0.24110 0.05210 0.93820 -0.39200
O 	O 	0.10100 0.13590 0.14100 -0.39500
O 	O 	0.42680 0.39370 0.33320 -0.39500
O 	O 	0.14260 0.03620 0.84190 -0.39900
O 	O 	0.95090 0.18700 0.12740 -0.41000
O 	O 	0.92340 0.28540 0.85640 -0.32300
O 	O 	0.57320 0.60630 0.66680 -0.39500
O 	O 	0.07660 0.78540 0.64360 -0.32200
O 	O 	0.42680 0.10630 0.83320 -0.39500
O 	O 	0.24110 0.44790 0.43820 -0.39000
O 	O 	0.07660 0.71460 0.14360 -0.32300
O 	O 	0.85740 0.96380 0.15810 -0.39900
O 	O 	0.14260 0.46380 0.34190 -0.39600
O 	O 	0.04910 0.68700 0.37260 -0.41300
O 	O 	0.10430 0.76860 0.24450 -0.43900
