data_crystal

_cell_length_a 11.12800
_cell_length_b 14.05500
_cell_length_c 22.97900
_cell_angle_alpha 90.00000
_cell_angle_beta  103.99200
_cell_angle_gamma 90.00000

_symmetry_space_group_name_	'P 1'
_symmetry_space_group_name_H-M	'P 1'

loop_
_symmetry_equiv_pos_as_xyz
  x,y,z

loop_
_atom_site_label
_atom_site_type_symbol
_atom_site_fract_x
_atom_site_fract_y
_atom_site_fract_z
_atom_site_charge
Cd	Cd	0.06686 0.67120 0.19286 1.19700
Cd	Cd	0.69861 0.52606 0.19775 1.23000
Cd	Cd	0.30139 0.47394 0.80225 1.23000
Cd	Cd	0.80139 0.02606 0.30225 1.22800
Cd	Cd	0.43314 0.17120 0.30714 1.19800
Cd	Cd	0.19861 0.97394 0.69775 1.22800
Cd	Cd	0.93314 0.32880 0.80714 1.19700
Cd	Cd	0.56686 0.82880 0.69286 1.19800
H 	H 	0.77410 0.27090 0.57810 0.04000
H 	H 	0.26610 0.13280 0.97000 0.06500
H 	H 	0.49230 0.93790 0.81380 -0.00900
H 	H 	0.88820 0.59270 0.56810 0.07000
H 	H 	0.26290 0.31640 0.49210 0.05600
H 	H 	0.27410 0.22910 0.07810 0.03900
H 	H 	0.93810 0.84070 0.49160 0.07700
H 	H 	0.03040 0.94140 0.79490 -0.01500
H 	H 	0.43810 0.65930 0.99160 0.07300
H 	H 	0.88630 0.95680 0.09150 0.05100
H 	H 	0.19710 0.96650 0.42410 0.07500
H 	H 	0.30290 0.46650 0.07590 0.07700
H 	H 	0.76610 0.36720 0.47000 0.06600
H 	H 	0.96960 0.05860 0.20510 -0.01500
H 	H 	0.50770 0.06210 0.18620 -0.00900
H 	H 	0.19500 0.27580 0.71860 0.00900
H 	H 	0.75380 0.76100 0.37630 0.05300
H 	H 	0.56010 0.70350 0.42480 0.07400
H 	H 	0.59830 0.35470 0.91540 0.05900
H 	H 	0.23710 0.81640 0.00790 0.05800
H 	H 	0.21220 0.69940 0.62730 0.04400
H 	H 	0.99090 0.88860 0.89530 0.07300
H 	H 	0.01860 0.45050 0.57910 0.08000
H 	H 	0.11370 0.04320 0.90850 0.05100
H 	H 	0.80500 0.72420 0.28140 0.00900
H 	H 	0.40170 0.64530 0.08460 0.05900
H 	H 	0.55080 0.16460 0.78230 0.04800
H 	H 	0.73790 0.73780 0.81940 0.02500
H 	H 	0.00770 0.43790 0.68620 -0.00600
H 	H 	0.23790 0.76220 0.31940 0.02400
H 	H 	0.99230 0.56210 0.31380 -0.00600
H 	H 	0.98140 0.54950 0.42090 0.08000
H 	H 	0.93990 0.20350 0.07520 0.07500
H 	H 	0.06010 0.79650 0.92480 0.07500
H 	H 	0.22590 0.72910 0.42190 0.04000
H 	H 	0.38630 0.54320 0.59150 0.05000
H 	H 	0.49090 0.61140 0.39530 0.07000
H 	H 	0.71220 0.80060 0.12730 0.04500
H 	H 	0.76210 0.23780 0.68060 0.02400
H 	H 	0.73710 0.68360 0.50790 0.05600
H 	H 	0.15550 0.42690 0.99080 0.02600
H 	H 	0.28780 0.19940 0.87270 0.04500
H 	H 	0.84450 0.57310 0.00920 0.02600
H 	H 	0.65550 0.07310 0.49080 0.02700
H 	H 	0.34450 0.92690 0.50920 0.02700
H 	H 	0.73390 0.86720 0.03000 0.06500
H 	H 	0.61370 0.45680 0.40850 0.05000
H 	H 	0.78780 0.30060 0.37270 0.04400
H 	H 	0.09830 0.14530 0.41540 0.05700
H 	H 	0.24620 0.23900 0.62370 0.05300
H 	H 	0.48140 0.95050 0.92090 0.07700
H 	H 	0.74620 0.26100 0.12370 0.05300
H 	H 	0.72590 0.77090 0.92190 0.03900
H 	H 	0.90170 0.85470 0.58460 0.05700
H 	H 	0.23390 0.63280 0.53000 0.06600
H 	H 	0.26210 0.26220 0.18060 0.02500
H 	H 	0.61180 0.09270 0.93190 0.06700
H 	H 	0.38820 0.90730 0.06810 0.06700
H 	H 	0.56190 0.34070 0.00840 0.07300
H 	H 	0.80290 0.03350 0.57590 0.07500
H 	H 	0.53120 0.86090 0.96000 0.07800
H 	H 	0.06190 0.15930 0.50840 0.07700
H 	H 	0.00910 0.11140 0.10470 0.07300
H 	H 	0.30500 0.77580 0.78140 0.00900
H 	H 	0.46960 0.44140 0.70510 -0.01400
H 	H 	0.43990 0.29650 0.57520 0.07400
H 	H 	0.44920 0.83540 0.21770 0.04800
H 	H 	0.25380 0.73900 0.87630 0.05300
H 	H 	0.50910 0.38860 0.60470 0.07000
H 	H 	0.05080 0.33540 0.28230 0.04700
H 	H 	0.69710 0.53350 0.92410 0.07700
H 	H 	0.11180 0.40730 0.43190 0.07000
H 	H 	0.46880 0.13910 0.04000 0.07800
H 	H 	0.51860 0.04950 0.07910 0.07700
H 	H 	0.53040 0.55860 0.29490 -0.01400
H 	H 	0.03120 0.63910 0.46000 0.08000
H 	H 	0.76290 0.18360 0.99210 0.05800
H 	H 	0.96880 0.36090 0.54000 0.08000
H 	H 	0.69500 0.22420 0.21860 0.00900
H 	H 	0.94920 0.66460 0.71770 0.04700
C 	C 	0.05180 0.60850 0.32770 0.08300
C 	C 	0.33320 0.85220 0.60917 0.36000
C 	C 	0.76150 0.43190 0.47750 -0.09000
C 	C 	0.90730 0.76430 0.65283 -0.08400
C 	C 	0.43490 0.28540 0.90252 -0.03900
C 	C 	0.06510 0.78540 0.59748 -0.04400
C 	C 	0.05120 0.90940 0.44954 -0.01900
C 	C 	0.86440 0.28380 0.36625 -0.02100
C 	C 	0.33010 0.51440 0.55980 -0.05600
C 	C 	0.09470 0.67190 0.67916 -0.09000
C 	C 	0.98020 0.14030 0.50407 -0.09000
C 	C 	0.76210 0.58890 0.00633 0.04100
C 	C 	0.66610 0.06440 0.96440 -0.08400
C 	C 	0.54510 0.43950 0.10428 0.28000
C 	C 	0.65430 0.97100 0.97470 0.07400
C 	C 	0.93490 0.21460 0.40252 -0.04400
C 	C 	0.32590 0.43420 0.04490 -0.08100
C 	C 	0.55180 0.89150 0.82770 0.08600
C 	C 	0.07070 0.85700 0.90640 -0.13000
C 	C 	0.26210 0.91110 0.50633 0.03800
C 	C 	0.26150 0.06810 0.97750 -0.08300
C 	C 	0.81360 0.28240 0.66910 -0.00600
C 	C 	0.04970 0.19150 0.39188 -0.02900
C 	C 	0.82590 0.06580 0.54490 -0.07700
C 	C 	0.97860 0.69540 0.68805 0.01400
C 	C 	0.21370 0.20820 0.33467 0.31700
C 	C 	0.16610 0.43560 0.46440 -0.09200
C 	C 	0.04510 0.06050 0.60428 0.28300
C 	C 	0.73850 0.93190 0.02250 -0.08300
C 	C 	0.92930 0.14300 0.09360 -0.13000
C 	C 	0.67490 0.89760 0.22034 0.31600
C 	C 	0.09270 0.23570 0.34717 -0.08400
C 	C 	0.34570 0.02900 0.02530 0.07400
C 	C 	0.55120 0.59060 0.94954 -0.01500
C 	C 	0.59270 0.26430 0.84717 -0.08100
C 	C 	0.17410 0.93420 0.45510 -0.07700
C 	C 	0.32510 0.10240 0.77966 0.31600
C 	C 	0.83770 0.08180 0.04970 0.05500
C 	C 	0.67410 0.56580 0.95510 -0.08100
C 	C 	0.16230 0.91820 0.95030 0.05500
C 	C 	0.23850 0.56810 0.52250 -0.09000
C 	C 	0.59210 0.60470 0.30299 0.09300
C 	C 	0.31360 0.21760 0.16910 -0.00600
C 	C 	0.55400 0.91130 0.93600 -0.13800
C 	C 	0.66230 0.58180 0.45030 0.05600
C 	C 	0.54970 0.30850 0.89188 -0.03400
C 	C 	0.24310 0.88050 0.99900 -0.06800
C 	C 	0.05400 0.58870 0.43600 -0.14400
C 	C 	0.01980 0.85970 0.49593 -0.09000
C 	C 	0.94600 0.41130 0.56400 -0.14400
C 	C 	0.67970 0.80030 0.88740 -0.00300
C 	C 	0.84570 0.47100 0.52530 0.08300
C 	C 	0.40530 0.17190 0.82084 -0.08600
C 	C 	0.26960 0.36460 0.94601 -0.14100
C 	C 	0.33390 0.93560 0.03560 -0.08400
C 	C 	0.47860 0.80460 0.18805 0.01000
C 	C 	0.74290 0.69550 0.29597 0.01600
C 	C 	0.16990 0.01440 0.94020 -0.05300
C 	C 	0.18640 0.71760 0.33090 -0.00600
C 	C 	0.90530 0.32810 0.32084 -0.09000
C 	C 	0.15430 0.52900 0.47470 0.08300
C 	C 	0.40730 0.73570 0.15283 -0.08100
C 	C 	0.44600 0.08870 0.06400 -0.13800
C 	C 	0.83390 0.56440 0.53560 -0.09200
C 	C 	0.36440 0.21620 0.86625 -0.02500
C 	C 	0.71470 0.71620 0.34830 -0.01800
C 	C 	0.94820 0.39150 0.67230 0.08300
C 	C 	0.28630 0.70820 0.16533 0.31600
C 	C 	0.95490 0.93950 0.39572 0.28300
C 	C 	0.25690 0.38050 0.50100 -0.06100
C 	C 	0.52140 0.19540 0.81195 0.01000
C 	C 	0.45490 0.56050 0.89572 0.28000
C 	C 	0.48020 0.35970 0.00407 -0.08700
C 	C 	0.66680 0.14780 0.39083 0.36000
C 	C 	0.44880 0.40940 0.05046 -0.01500
C 	C 	0.23040 0.86460 0.55399 -0.14200
C 	C 	0.63560 0.78380 0.13375 -0.02500
C 	C 	0.25710 0.30450 0.70403 0.01600
C 	C 	0.17970 0.69970 0.38740 -0.00400
C 	C 	0.78530 0.21620 0.15170 -0.01900
C 	C 	0.51980 0.64030 0.99593 -0.08700
C 	C 	0.60720 0.66280 0.04902 0.05900
C 	C 	0.13560 0.71620 0.63375 -0.02100
C 	C 	0.68640 0.78240 0.83090 -0.00600
C 	C 	0.89280 0.16280 0.45098 0.06100
C 	C 	0.28530 0.28380 0.65170 -0.01800
C 	C 	0.42930 0.35700 0.59360 -0.12500
C 	C 	0.57070 0.64300 0.40640 -0.12500
C 	C 	0.95030 0.80850 0.60812 -0.02900
C 	C 	0.23790 0.41110 0.99367 0.04100
C 	C 	0.82030 0.30030 0.61260 -0.00400
C 	C 	0.73040 0.63540 0.05399 -0.14100
C 	C 	0.45030 0.69150 0.10812 -0.03400
C 	C 	0.10720 0.83720 0.54902 0.06100
C 	C 	0.40790 0.39530 0.69701 0.09300
C 	C 	0.78630 0.79180 0.66533 0.31700
C 	C 	0.24290 0.80450 0.79597 0.01600
C 	C 	0.02140 0.30460 0.31195 0.01400
C 	C 	0.73790 0.08890 0.49367 0.03800
C 	C 	0.66990 0.48560 0.44020 -0.05600
C 	C 	0.17490 0.60240 0.72034 0.31700
C 	C 	0.76960 0.13540 0.44601 -0.14200
C 	C 	0.82510 0.39760 0.27966 0.31700
C 	C 	0.32030 0.19970 0.11260 -0.00300
C 	C 	0.74310 0.61950 0.49900 -0.06100
C 	C 	0.33770 0.41820 0.54970 0.05600
C 	C 	0.09210 0.89530 0.80299 0.09200
C 	C 	0.39280 0.33720 0.95098 0.05900
C 	C 	0.44820 0.10850 0.17230 0.08600
C 	C 	0.83010 0.98560 0.05980 -0.05300
C 	C 	0.71370 0.29180 0.83467 0.31600
C 	C 	0.83320 0.64780 0.10917 0.35900
C 	C 	0.59470 0.82810 0.17916 -0.08600
C 	C 	0.90790 0.10470 0.19701 0.09200
C 	C 	0.56510 0.71460 0.09748 -0.03900
C 	C 	0.16680 0.35220 0.89083 0.35900
C 	C 	0.75710 0.19550 0.20403 0.01600
C 	C 	0.94880 0.09060 0.55046 -0.01900
C 	C 	0.21470 0.78380 0.84830 -0.01900
C 	C 	0.75690 0.11950 0.00100 -0.06800
N 	N 	0.61800 0.65890 0.35244 -0.10400
N 	N 	0.83530 0.12480 0.23257 -0.23900
N 	N 	0.09340 0.63090 0.38503 -0.10400
N 	N 	0.33530 0.37520 0.73257 -0.23800
N 	N 	0.39580 0.15910 0.20696 -0.25000
N 	N 	0.59340 0.86910 0.88503 -0.10500
N 	N 	0.11800 0.84110 0.85244 -0.10300
N 	N 	0.60420 0.84090 0.79304 -0.25000
N 	N 	0.16470 0.87520 0.76743 -0.23900
N 	N 	0.66470 0.62480 0.26743 -0.23800
N 	N 	0.10420 0.65910 0.29304 -0.25000
N 	N 	0.89580 0.34090 0.70696 -0.25000
N 	N 	0.40660 0.13090 0.11497 -0.10500
N 	N 	0.90660 0.36910 0.61497 -0.10400
N 	N 	0.88200 0.15890 0.14756 -0.10300
N 	N 	0.38200 0.34110 0.64756 -0.10400
O 	O 	0.17960 0.37453 0.83930 -0.50300
O 	O 	0.27600 0.14300 0.36450 -0.37000
O 	O 	0.21220 0.09855 0.77700 -0.37100
O 	O 	0.71220 0.40145 0.27700 -0.37300
O 	O 	0.37410 0.04941 0.74744 -0.40900
O 	O 	0.28780 0.59855 0.72300 -0.37300
O 	O 	0.22400 0.64300 0.13550 -0.37100
O 	O 	0.43370 0.82130 0.60165 -0.42400
O 	O 	0.50970 0.48326 0.14539 -0.39400
O 	O 	0.99030 0.98326 0.35461 -0.39200
O 	O 	0.15700 0.07440 0.60679 -0.35200
O 	O 	0.62590 0.95059 0.25256 -0.40900
O 	O 	0.49030 0.51674 0.85461 -0.39400
O 	O 	0.87410 0.45059 0.24744 -0.41100
O 	O 	0.32040 0.87453 0.66070 -0.50400
O 	O 	0.12590 0.54941 0.75256 -0.41100
O 	O 	0.25120 0.75120 0.20543 -0.41200
O 	O 	0.84300 0.92560 0.39321 -0.35200
O 	O 	0.34300 0.57440 0.89321 -0.35200
O 	O 	0.82040 0.62547 0.16070 -0.50300
O 	O 	0.24880 0.25120 0.29457 -0.41200
O 	O 	0.93370 0.67870 0.10165 -0.42300
O 	O 	0.77600 0.35700 0.86450 -0.37100
O 	O 	0.65700 0.42560 0.10679 -0.35200
O 	O 	0.74880 0.24880 0.79457 -0.41200
O 	O 	0.00970 0.01674 0.64539 -0.39200
O 	O 	0.75120 0.74880 0.70543 -0.41200
O 	O 	0.56630 0.17870 0.39835 -0.42400
O 	O 	0.67960 0.12547 0.33930 -0.50400
O 	O 	0.06630 0.32130 0.89835 -0.42300
O 	O 	0.72400 0.85700 0.63550 -0.37000
O 	O 	0.78780 0.90145 0.22300 -0.37100
