data_crystal

_cell_length_a 13.86370
_cell_length_b 18.94110
_cell_length_c 19.00790
_cell_angle_alpha 90.00000
_cell_angle_beta  90.00000
_cell_angle_gamma 90.00000

_symmetry_space_group_name_	'P 1'
_symmetry_space_group_name_H-M	'P 1'

loop_
_symmetry_equiv_pos_as_xyz
  x,y,z

loop_
_atom_site_label
_atom_site_type_symbol
_atom_site_fract_x
_atom_site_fract_y
_atom_site_fract_z
_atom_site_charge
Zn	Zn	0.36485 0.89688 0.56850 1.23900
Zn	Zn	0.63516 0.39688 0.93150 1.23900
Zn	Zn	0.63516 0.10312 0.43150 1.23900
Zn	Zn	0.36485 0.60312 0.06850 1.23900
Co	Co	0.40355 0.48311 0.95656 1.17800
Co	Co	0.59645 0.98311 0.54344 1.17900
Co	Co	0.59645 0.51689 0.04344 1.17800
Co	Co	0.40355 0.01689 0.45656 1.17900
H 	H 	0.41310 0.71820 0.70140 0.07000
H 	H 	0.42020 0.63500 0.78950 0.04700
H 	H 	0.37770 0.78590 0.93290 0.05000
H 	H 	0.37490 0.86920 0.84420 0.06000
H 	H 	0.11210 0.06670 0.44180 0.04600
H 	H 	0.04890 0.91080 0.57380 0.05100
H 	H 	0.38350 0.36660 0.07910 -0.01000
H 	H 	0.35700 0.24760 0.09020 0.08500
H 	H 	0.34870 0.17800 0.99090 0.04600
H 	H 	0.34670 0.34990 0.68260 0.03800
H 	H 	0.35480 0.47080 0.68860 0.07900
H 	H 	0.37610 0.52410 0.79660 0.01400
H 	H 	0.43620 0.00240 0.58560 0.56700
H 	H 	0.58690 0.21820 0.79860 0.06900
H 	H 	0.57980 0.13500 0.71050 0.04600
H 	H 	0.62230 0.28590 0.56710 0.05000
H 	H 	0.62510 0.36920 0.65580 0.06000
H 	H 	0.88790 0.56670 0.05820 0.04900
H 	H 	0.95110 0.41080 0.92620 0.04900
H 	H 	0.61650 0.86660 0.42090 -0.01000
H 	H 	0.64300 0.74760 0.40980 0.08600
H 	H 	0.65130 0.67800 0.50910 0.04600
H 	H 	0.65330 0.84990 0.81740 0.03700
H 	H 	0.64520 0.97080 0.81140 0.08100
H 	H 	0.62390 0.02410 0.70340 0.01100
H 	H 	0.56380 0.50240 0.91440 0.56600
H 	H 	0.58690 0.28180 0.29860 0.06900
H 	H 	0.57980 0.36500 0.21050 0.04600
H 	H 	0.62230 0.21410 0.06710 0.05000
H 	H 	0.62510 0.13080 0.15580 0.06000
H 	H 	0.88790 0.93330 0.55820 0.04600
H 	H 	0.95110 0.08920 0.42620 0.05100
H 	H 	0.61650 0.63340 0.92090 -0.01000
H 	H 	0.64300 0.75240 0.90980 0.08500
H 	H 	0.65130 0.82200 0.00910 0.04600
H 	H 	0.65330 0.65010 0.31740 0.03800
H 	H 	0.64520 0.52920 0.31140 0.07900
H 	H 	0.62390 0.47590 0.20340 0.01400
H 	H 	0.56380 0.99760 0.41440 0.56700
H 	H 	0.41310 0.78180 0.20140 0.06900
H 	H 	0.42020 0.86500 0.28950 0.04600
H 	H 	0.37770 0.71410 0.43290 0.05000
H 	H 	0.37490 0.63080 0.34420 0.06000
H 	H 	0.11210 0.43330 0.94180 0.04900
H 	H 	0.04890 0.58920 0.07380 0.04900
H 	H 	0.38350 0.13340 0.57910 -0.01000
H 	H 	0.35700 0.25240 0.59020 0.08600
H 	H 	0.34870 0.32200 0.49090 0.04600
H 	H 	0.34670 0.15010 0.18260 0.03700
H 	H 	0.35480 0.02920 0.18860 0.08100
H 	H 	0.37610 0.97590 0.29660 0.01100
H 	H 	0.43620 0.49760 0.08560 0.56600
C 	C 	0.38653 0.85637 0.70651 0.33400
C 	C 	0.39237 0.80174 0.76367 -0.04600
C 	C 	0.40610 0.73210 0.74803 -0.03000
C 	C 	0.40950 0.68213 0.80080 0.01100
C 	C 	0.39716 0.70143 0.87028 -0.08700
C 	C 	0.38470 0.77186 0.88625 0.00100
C 	C 	0.38280 0.82178 0.83307 -0.03700
C 	C 	0.39561 0.64619 0.92726 0.38700
C 	C 	0.20347 0.97237 0.51675 0.37900
C 	C 	0.09798 0.98630 0.50909 -0.08400
C 	C 	0.06690 0.03934 0.46555 0.00600
C 	C 	0.02968 0.94699 0.54376 -0.02100
C 	C 	0.37810 0.33925 0.03870 0.07700
C 	C 	0.36310 0.26767 0.04580 -0.11000
C 	C 	0.35720 0.22655 0.98690 0.01300
C 	C 	0.36400 0.25758 0.92127 -0.03900
C 	C 	0.35640 0.21607 0.85600 0.11000
C 	C 	0.35460 0.25502 0.78530 0.12100
C 	C 	0.36215 0.33292 0.78681 -0.04800
C 	C 	0.35490 0.37230 0.72574 0.02100
C 	C 	0.35980 0.44350 0.72913 -0.10400
C 	C 	0.37250 0.47514 0.79445 0.07300
C 	C 	0.37405 0.36825 0.85036 0.04100
C 	C 	0.37620 0.33096 0.91823 0.03400
C 	C 	0.61347 0.35637 0.79349 0.33400
C 	C 	0.60763 0.30174 0.73633 -0.04600
C 	C 	0.59390 0.23210 0.75197 -0.03000
C 	C 	0.59050 0.18213 0.69920 0.01100
C 	C 	0.60284 0.20143 0.62972 -0.08700
C 	C 	0.61530 0.27186 0.61375 0.00100
C 	C 	0.61720 0.32178 0.66693 -0.03800
C 	C 	0.60439 0.14619 0.57274 0.38700
C 	C 	0.79653 0.47237 0.98325 0.38000
C 	C 	0.90202 0.48630 0.99091 -0.08000
C 	C 	0.93310 0.53934 0.03445 -0.00500
C 	C 	0.97032 0.44699 0.95624 -0.01500
C 	C 	0.62190 0.83925 0.46130 0.07800
C 	C 	0.63690 0.76767 0.45420 -0.11100
C 	C 	0.64280 0.72655 0.51310 0.01400
C 	C 	0.63600 0.75758 0.57873 -0.03900
C 	C 	0.64360 0.71607 0.64400 0.11000
C 	C 	0.64540 0.75502 0.71470 0.12100
C 	C 	0.63785 0.83292 0.71319 -0.04900
C 	C 	0.64510 0.87230 0.77426 0.02300
C 	C 	0.64020 0.94350 0.77087 -0.10800
C 	C 	0.62750 0.97514 0.70555 0.07800
C 	C 	0.62595 0.86825 0.64964 0.04200
C 	C 	0.62380 0.83096 0.58177 0.03400
C 	C 	0.61347 0.14363 0.29349 0.33400
C 	C 	0.60763 0.19826 0.23633 -0.04600
C 	C 	0.59390 0.26790 0.25197 -0.03000
C 	C 	0.59050 0.31787 0.19920 0.01100
C 	C 	0.60284 0.29857 0.12972 -0.08700
C 	C 	0.61530 0.22814 0.11375 0.00100
C 	C 	0.61720 0.17822 0.16693 -0.03700
C 	C 	0.60439 0.35381 0.07274 0.38700
C 	C 	0.79653 0.02763 0.48325 0.37900
C 	C 	0.90202 0.01370 0.49091 -0.08400
C 	C 	0.93310 0.96066 0.53445 0.00600
C 	C 	0.97032 0.05301 0.45624 -0.02100
C 	C 	0.62190 0.66075 0.96130 0.07700
C 	C 	0.63690 0.73233 0.95420 -0.11000
C 	C 	0.64280 0.77345 0.01310 0.01300
C 	C 	0.63600 0.74242 0.07873 -0.03900
C 	C 	0.64360 0.78393 0.14400 0.11000
C 	C 	0.64540 0.74498 0.21470 0.12100
C 	C 	0.63785 0.66708 0.21319 -0.04800
C 	C 	0.64510 0.62770 0.27426 0.02100
C 	C 	0.64020 0.55650 0.27087 -0.10400
C 	C 	0.62750 0.52486 0.20555 0.07300
C 	C 	0.62595 0.63175 0.14964 0.04100
C 	C 	0.62380 0.66904 0.08177 0.03400
C 	C 	0.38653 0.64363 0.20651 0.33400
C 	C 	0.39237 0.69826 0.26367 -0.04600
C 	C 	0.40610 0.76790 0.24803 -0.03000
C 	C 	0.40950 0.81787 0.30080 0.01100
C 	C 	0.39716 0.79857 0.37028 -0.08700
C 	C 	0.38470 0.72814 0.38625 0.00100
C 	C 	0.38280 0.67822 0.33307 -0.03800
C 	C 	0.39561 0.85381 0.42726 0.38700
C 	C 	0.20347 0.52763 0.01675 0.38000
C 	C 	0.09798 0.51370 0.00909 -0.08000
C 	C 	0.06690 0.46066 0.96555 -0.00500
C 	C 	0.02968 0.55301 0.04376 -0.01500
C 	C 	0.37810 0.16075 0.53870 0.07800
C 	C 	0.36310 0.23233 0.54580 -0.11100
C 	C 	0.35720 0.27345 0.48690 0.01400
C 	C 	0.36400 0.24242 0.42127 -0.03900
C 	C 	0.35640 0.28393 0.35600 0.11000
C 	C 	0.35460 0.24498 0.28530 0.12100
C 	C 	0.36215 0.16708 0.28681 -0.04900
C 	C 	0.35490 0.12770 0.22574 0.02300
C 	C 	0.35980 0.05650 0.22913 -0.10800
C 	C 	0.37250 0.02486 0.29445 0.07800
C 	C 	0.37405 0.13175 0.35036 0.04200
C 	C 	0.37620 0.16904 0.41823 0.03400
N 	N 	0.38539 0.37097 0.97605 -0.22500
N 	N 	0.37978 0.43882 0.85398 -0.22000
N 	N 	0.61461 0.87097 0.52395 -0.22400
N 	N 	0.62022 0.93882 0.64602 -0.22000
N 	N 	0.61461 0.62903 0.02395 -0.22500
N 	N 	0.62022 0.56118 0.14602 -0.22000
N 	N 	0.38539 0.12903 0.47605 -0.22400
N 	N 	0.37978 0.06118 0.35398 -0.22000
O 	O 	0.38730 0.83215 0.64420 -0.45000
O 	O 	0.38091 0.91885 0.72132 -0.31200
O 	O 	0.40877 0.58352 0.91003 -0.45500
O 	O 	0.38126 0.66794 0.98908 -0.46000
O 	O 	0.25929 0.00745 0.47929 -0.45000
O 	O 	0.22851 0.92591 0.56115 -0.47100
O 	O 	0.35160 0.15199 0.85640 -0.18100
O 	O 	0.34660 0.22156 0.73167 -0.19200
O 	O 	0.44545 0.98064 0.55666 -1.14300
O 	O 	0.61270 0.33215 0.85580 -0.45100
O 	O 	0.61909 0.41885 0.77868 -0.31200
O 	O 	0.59123 0.08352 0.58997 -0.45500
O 	O 	0.61874 0.16794 0.51092 -0.46100
O 	O 	0.74071 0.50745 0.02071 -0.45300
O 	O 	0.77149 0.42591 0.93885 -0.47100
O 	O 	0.64840 0.65199 0.64360 -0.18100
O 	O 	0.65340 0.72156 0.76833 -0.19300
O 	O 	0.55455 0.48064 0.94334 -1.14200
O 	O 	0.61270 0.16785 0.35580 -0.45000
O 	O 	0.61909 0.08115 0.27868 -0.31200
O 	O 	0.59123 0.41648 0.08997 -0.45500
O 	O 	0.61874 0.33206 0.01092 -0.46000
O 	O 	0.74071 0.99255 0.52071 -0.45000
O 	O 	0.77149 0.07409 0.43885 -0.47100
O 	O 	0.64840 0.84801 0.14360 -0.18100
O 	O 	0.65340 0.77844 0.26833 -0.19200
O 	O 	0.55455 0.01936 0.44334 -1.14300
O 	O 	0.38730 0.66785 0.14420 -0.45100
O 	O 	0.38091 0.58115 0.22132 -0.31200
O 	O 	0.40877 0.91648 0.41003 -0.45500
O 	O 	0.38126 0.83206 0.48908 -0.46100
O 	O 	0.25929 0.49255 0.97929 -0.45300
O 	O 	0.22851 0.57409 0.06115 -0.47100
O 	O 	0.35160 0.34801 0.35640 -0.18100
O 	O 	0.34660 0.27844 0.23167 -0.19300
O 	O 	0.44545 0.51936 0.05666 -1.14200
Zn	Zn	0.13516 0.10312 0.06850 1.23800
Zn	Zn	0.86485 0.60312 0.43150 1.23800
Zn	Zn	0.86485 0.89688 0.93150 1.23800
Zn	Zn	0.13516 0.39688 0.56850 1.23800
Co	Co	0.09645 0.51689 0.45656 1.17700
Co	Co	0.90355 0.01689 0.04344 1.17500
Co	Co	0.90355 0.48311 0.54344 1.17700
Co	Co	0.09645 0.98311 0.95656 1.17500
H 	H 	0.08690 0.28180 0.20140 0.06900
H 	H 	0.07980 0.36500 0.28950 0.04600
H 	H 	0.12230 0.21410 0.43290 0.05100
H 	H 	0.12510 0.13080 0.34420 0.06100
H 	H 	0.38790 0.93330 0.94180 0.05000
H 	H 	0.45110 0.08920 0.07380 0.04900
H 	H 	0.11650 0.63340 0.57910 -0.01000
H 	H 	0.14300 0.75240 0.59020 0.08500
H 	H 	0.15130 0.82200 0.49090 0.04600
H 	H 	0.15330 0.65010 0.18260 0.03800
H 	H 	0.14520 0.52920 0.18860 0.07900
H 	H 	0.12390 0.47590 0.29660 0.01400
H 	H 	0.06380 0.99760 0.08560 0.55300
H 	H 	0.91310 0.78180 0.29860 0.07000
H 	H 	0.92020 0.86500 0.21050 0.04700
H 	H 	0.87770 0.71410 0.06710 0.05100
H 	H 	0.87490 0.63080 0.15580 0.06000
H 	H 	0.61210 0.43330 0.55820 0.05000
H 	H 	0.54890 0.58920 0.42620 0.04900
H 	H 	0.88350 0.13340 0.92090 -0.01100
H 	H 	0.85700 0.25240 0.90980 0.08600
H 	H 	0.84870 0.32200 0.00910 0.04500
H 	H 	0.84670 0.15010 0.31740 0.03900
H 	H 	0.85480 0.02920 0.31140 0.07700
H 	H 	0.87610 0.97590 0.20340 0.02000
H 	H 	0.93620 0.49760 0.41440 0.56500
H 	H 	0.91310 0.71820 0.79860 0.06900
H 	H 	0.92020 0.63500 0.71050 0.04600
H 	H 	0.87770 0.78590 0.56710 0.05100
H 	H 	0.87490 0.86920 0.65580 0.06100
H 	H 	0.61210 0.06670 0.05820 0.05000
H 	H 	0.54890 0.91080 0.92620 0.04900
H 	H 	0.88350 0.36660 0.42090 -0.01000
H 	H 	0.85700 0.24760 0.40980 0.08500
H 	H 	0.84870 0.17800 0.50910 0.04600
H 	H 	0.84670 0.34990 0.81740 0.03800
H 	H 	0.85480 0.47080 0.81140 0.07900
H 	H 	0.87610 0.52410 0.70340 0.01400
H 	H 	0.93620 0.00240 0.91440 0.55300
H 	H 	0.08690 0.21820 0.70140 0.07000
H 	H 	0.07980 0.13500 0.78950 0.04700
H 	H 	0.12230 0.28590 0.93290 0.05100
H 	H 	0.12510 0.36920 0.84420 0.06000
H 	H 	0.38790 0.56670 0.44180 0.05000
H 	H 	0.45110 0.41080 0.57380 0.04900
H 	H 	0.11650 0.86660 0.07910 -0.01100
H 	H 	0.14300 0.74760 0.09020 0.08600
H 	H 	0.15130 0.67800 0.99090 0.04500
H 	H 	0.15330 0.84990 0.68260 0.03900
H 	H 	0.14520 0.97080 0.68860 0.07700
H 	H 	0.12390 0.02410 0.79660 0.02000
H 	H 	0.06380 0.50240 0.58560 0.56500
C 	C 	0.11347 0.14363 0.20651 0.33300
C 	C 	0.10763 0.19826 0.26367 -0.04500
C 	C 	0.09390 0.26790 0.24803 -0.03000
C 	C 	0.09050 0.31787 0.30080 0.01200
C 	C 	0.10284 0.29857 0.37028 -0.08700
C 	C 	0.11530 0.22814 0.38625 0.00200
C 	C 	0.11720 0.17822 0.33307 -0.03800
C 	C 	0.10439 0.35381 0.42726 0.38700
C 	C 	0.29653 0.02763 0.01675 0.38400
C 	C 	0.40202 0.01370 0.00909 -0.07900
C 	C 	0.43310 0.96066 0.96555 -0.00900
C 	C 	0.47032 0.05301 0.04376 -0.01200
C 	C 	0.12190 0.66075 0.53870 0.07700
C 	C 	0.13690 0.73233 0.54580 -0.11100
C 	C 	0.14280 0.77345 0.48690 0.01300
C 	C 	0.13600 0.74242 0.42127 -0.04000
C 	C 	0.14360 0.78393 0.35600 0.11000
C 	C 	0.14540 0.74498 0.28530 0.12000
C 	C 	0.13785 0.66708 0.28681 -0.04800
C 	C 	0.14510 0.62770 0.22574 0.02100
C 	C 	0.14020 0.55650 0.22913 -0.10500
C 	C 	0.12750 0.52486 0.29445 0.07300
C 	C 	0.12595 0.63175 0.35036 0.04100
C 	C 	0.12380 0.66904 0.41823 0.03400
C 	C 	0.88653 0.64363 0.29349 0.33400
C 	C 	0.89237 0.69826 0.23633 -0.04600
C 	C 	0.90610 0.76790 0.25197 -0.02900
C 	C 	0.90950 0.81787 0.19920 0.01100
C 	C 	0.89716 0.79857 0.12972 -0.08600
C 	C 	0.88470 0.72814 0.11375 0.00100
C 	C 	0.88280 0.67822 0.16693 -0.03700
C 	C 	0.89561 0.85381 0.07274 0.38700
C 	C 	0.70347 0.52763 0.48325 0.38100
C 	C 	0.59798 0.51370 0.49091 -0.08000
C 	C 	0.56690 0.46066 0.53445 -0.00900
C 	C 	0.52968 0.55301 0.45624 -0.01200
C 	C 	0.87810 0.16075 0.96130 0.07600
C 	C 	0.86310 0.23233 0.95420 -0.11300
C 	C 	0.85720 0.27345 0.01310 0.01600
C 	C 	0.86400 0.24242 0.07873 -0.04100
C 	C 	0.85640 0.28393 0.14400 0.11000
C 	C 	0.85460 0.24498 0.21470 0.12000
C 	C 	0.86215 0.16708 0.21319 -0.04600
C 	C 	0.85490 0.12770 0.27426 0.01700
C 	C 	0.85980 0.05650 0.27087 -0.09900
C 	C 	0.87250 0.02486 0.20555 0.06400
C 	C 	0.87405 0.13175 0.14964 0.04000
C 	C 	0.87620 0.16904 0.08177 0.03400
C 	C 	0.88653 0.85637 0.79349 0.33300
C 	C 	0.89237 0.80174 0.73633 -0.04500
C 	C 	0.90610 0.73210 0.75197 -0.03000
C 	C 	0.90950 0.68213 0.69920 0.01200
C 	C 	0.89716 0.70143 0.62972 -0.08700
C 	C 	0.88470 0.77186 0.61375 0.00200
C 	C 	0.88280 0.82178 0.66693 -0.03800
C 	C 	0.89561 0.64619 0.57274 0.38700
C 	C 	0.70347 0.97237 0.98325 0.38400
C 	C 	0.59798 0.98630 0.99091 -0.07900
C 	C 	0.56690 0.03934 0.03445 -0.00900
C 	C 	0.52968 0.94699 0.95624 -0.01200
C 	C 	0.87810 0.33925 0.46130 0.07700
C 	C 	0.86310 0.26767 0.45420 -0.11100
C 	C 	0.85720 0.22655 0.51310 0.01300
C 	C 	0.86400 0.25758 0.57873 -0.04000
C 	C 	0.85640 0.21607 0.64400 0.11000
C 	C 	0.85460 0.25502 0.71470 0.12000
C 	C 	0.86215 0.33292 0.71319 -0.04800
C 	C 	0.85490 0.37230 0.77426 0.02100
C 	C 	0.85980 0.44350 0.77087 -0.10500
C 	C 	0.87250 0.47514 0.70555 0.07300
C 	C 	0.87405 0.36825 0.64964 0.04100
C 	C 	0.87620 0.33096 0.58177 0.03400
C 	C 	0.11347 0.35637 0.70651 0.33400
C 	C 	0.10763 0.30174 0.76367 -0.04600
C 	C 	0.09390 0.23210 0.74803 -0.02900
C 	C 	0.09050 0.18213 0.80080 0.01100
C 	C 	0.10284 0.20143 0.87028 -0.08600
C 	C 	0.11530 0.27186 0.88625 0.00100
C 	C 	0.11720 0.32178 0.83307 -0.03700
C 	C 	0.10439 0.14619 0.92726 0.38700
C 	C 	0.29653 0.47237 0.51675 0.38100
C 	C 	0.40202 0.48630 0.50909 -0.08000
C 	C 	0.43310 0.53934 0.46555 -0.00900
C 	C 	0.47032 0.44699 0.54376 -0.01200
C 	C 	0.12190 0.83925 0.03870 0.07600
C 	C 	0.13690 0.76767 0.04580 -0.11300
C 	C 	0.14280 0.72655 0.98690 0.01600
C 	C 	0.13600 0.75758 0.92127 -0.04100
C 	C 	0.14360 0.71607 0.85600 0.11000
C 	C 	0.14540 0.75502 0.78530 0.12000
C 	C 	0.13785 0.83292 0.78681 -0.04600
C 	C 	0.14510 0.87230 0.72574 0.01700
C 	C 	0.14020 0.94350 0.72913 -0.09900
C 	C 	0.12750 0.97514 0.79445 0.06400
C 	C 	0.12595 0.86825 0.85036 0.04000
C 	C 	0.12380 0.83096 0.91823 0.03400
N 	N 	0.11461 0.62903 0.47605 -0.22500
N 	N 	0.12022 0.56118 0.35398 -0.22000
N 	N 	0.88539 0.12903 0.02395 -0.22500
N 	N 	0.87978 0.06118 0.14602 -0.21800
N 	N 	0.88539 0.37097 0.52395 -0.22500
N 	N 	0.87978 0.43882 0.64602 -0.22000
N 	N 	0.11461 0.87097 0.97605 -0.22500
N 	N 	0.12022 0.93882 0.85398 -0.21800
O 	O 	0.11270 0.16785 0.14420 -0.45000
O 	O 	0.11909 0.08115 0.22132 -0.31000
O 	O 	0.09123 0.41648 0.41003 -0.45500
O 	O 	0.11874 0.33206 0.48908 -0.46000
O 	O 	0.24071 0.99255 0.97929 -0.45500
O 	O 	0.27149 0.07409 0.06115 -0.47100
O 	O 	0.14840 0.84801 0.35640 -0.18200
O 	O 	0.15340 0.77844 0.23167 -0.19300
O 	O 	0.05455 0.01936 0.05666 -1.12700
O 	O 	0.88730 0.66785 0.35580 -0.45000
O 	O 	0.88091 0.58115 0.27868 -0.31200
O 	O 	0.90877 0.91648 0.08997 -0.45300
O 	O 	0.88126 0.83206 0.01092 -0.46000
O 	O 	0.75929 0.49255 0.52071 -0.45300
O 	O 	0.72851 0.57409 0.43885 -0.47100
O 	O 	0.85160 0.34801 0.14360 -0.18100
O 	O 	0.84660 0.27844 0.26833 -0.19200
O 	O 	0.94545 0.51936 0.44334 -1.14200
O 	O 	0.88730 0.83215 0.85580 -0.45000
O 	O 	0.88091 0.91885 0.77868 -0.31000
O 	O 	0.90877 0.58352 0.58997 -0.45500
O 	O 	0.88126 0.66794 0.51092 -0.46000
O 	O 	0.75929 0.00745 0.02071 -0.45500
O 	O 	0.72851 0.92591 0.93885 -0.47100
O 	O 	0.85160 0.15199 0.64360 -0.18200
O 	O 	0.84660 0.22156 0.76833 -0.19300
O 	O 	0.94545 0.98064 0.94334 -1.12700
O 	O 	0.11270 0.33215 0.64420 -0.45000
O 	O 	0.11909 0.41885 0.72132 -0.31200
O 	O 	0.09123 0.08352 0.91003 -0.45300
O 	O 	0.11874 0.16794 0.98908 -0.46000
O 	O 	0.24071 0.50745 0.47929 -0.45300
O 	O 	0.27149 0.42591 0.56115 -0.47100
O 	O 	0.14840 0.65199 0.85640 -0.18100
O 	O 	0.15340 0.72156 0.73167 -0.19200
O 	O 	0.05455 0.48064 0.55666 -1.14200
