data_crystal

_cell_length_a 15.16440
_cell_length_b 15.16440
_cell_length_c 19.04300
_cell_angle_alpha 90.00000
_cell_angle_beta  90.00000
_cell_angle_gamma 90.00000

_symmetry_space_group_name_	'P 1'
_symmetry_space_group_name_H-M	'P 1'

loop_
_symmetry_equiv_pos_as_xyz
  x,y,z

loop_
_atom_site_label
_atom_site_type_symbol
_atom_site_fract_x
_atom_site_fract_y
_atom_site_fract_z
_atom_site_charge
C 	C 	0.25980 0.17590 0.43734 -0.01200
H 	H 	0.23960 0.15320 0.39490 0.04100
O 	O 	0.11800 0.06060 0.44161 -0.47700
C 	C 	0.92570 0.05800 0.29150 0.11700
C 	C 	0.96300 0.08720 0.28990 0.09000
C 	C 	0.01200 0.09220 0.29140 0.01600
C 	C 	0.75980 0.67590 0.93734 0.05000
H 	H 	0.73960 0.65320 0.89490 0.04900
O 	O 	0.61800 0.56060 0.94161 -0.39200
C 	C 	0.42570 0.55800 0.79150 0.01100
C 	C 	0.46300 0.58720 0.78990 0.00900
C 	C 	0.51200 0.59220 0.79140 -0.00100
C 	C 	0.74020 0.82410 0.43734 -0.02200
H 	H 	0.76040 0.84680 0.39490 0.06900
O 	O 	0.88200 0.93940 0.44161 -0.36900
C 	C 	0.07430 0.94200 0.29150 -0.05000
C 	C 	0.03700 0.91280 0.28990 -0.04900
C 	C 	0.98800 0.90780 0.29140 -0.02300
C 	C 	0.24020 0.32410 0.93734 0.02200
H 	H 	0.26040 0.34680 0.89490 0.04300
O 	O 	0.38200 0.43940 0.94161 -0.39800
C 	C 	0.57430 0.44200 0.79150 0.01300
C 	C 	0.53700 0.41280 0.78990 0.00600
C 	C 	0.48800 0.40780 0.79140 -0.00600
C 	C 	0.82410 0.25980 0.43734 -0.02100
H 	H 	0.84680 0.23960 0.39490 0.06100
O 	O 	0.93940 0.11800 0.44161 -0.40800
C 	C 	0.94200 0.92570 0.29150 0.36600
C 	C 	0.91280 0.96300 0.28990 -0.17100
C 	C 	0.90780 0.01200 0.29140 -0.10700
C 	C 	0.32410 0.75980 0.93734 0.04100
H 	H 	0.34680 0.73960 0.89490 0.04700
O 	O 	0.43940 0.61800 0.94161 -0.39400
C 	C 	0.44200 0.42570 0.79150 0.01100
C 	C 	0.41280 0.46300 0.78990 0.00600
C 	C 	0.40780 0.51200 0.79140 -0.00600
C 	C 	0.17590 0.74020 0.43734 -0.01500
H 	H 	0.15320 0.76040 0.39490 0.05100
O 	O 	0.06060 0.88200 0.44161 -0.42800
C 	C 	0.05800 0.07430 0.29150 -0.33500
C 	C 	0.08720 0.03700 0.28990 0.23000
C 	C 	0.09220 0.98800 0.29140 0.09100
C 	C 	0.67590 0.24020 0.93734 0.03300
H 	H 	0.65320 0.26040 0.89490 0.04400
O 	O 	0.56060 0.38200 0.94161 -0.39600
C 	C 	0.55800 0.57430 0.79150 0.01300
C 	C 	0.58720 0.53700 0.78990 0.00900
C 	C 	0.59220 0.48800 0.79140 -0.00200
C 	C 	0.74020 0.17590 0.06266 -0.01300
H 	H 	0.76040 0.15320 0.10510 0.04900
O 	O 	0.88200 0.06060 0.05839 -0.42300
C 	C 	0.07430 0.05800 0.20850 -0.33400
C 	C 	0.03700 0.08720 0.21010 0.22900
C 	C 	0.98800 0.09220 0.20860 0.09000
C 	C 	0.24020 0.67590 0.56266 -0.01600
H 	H 	0.26040 0.65320 0.60510 0.05400
O 	O 	0.38200 0.56060 0.55839 -0.44200
C 	C 	0.57430 0.55800 0.70850 0.01300
C 	C 	0.53700 0.58720 0.71010 0.00800
C 	C 	0.48800 0.59220 0.70860 -0.00100
C 	C 	0.25980 0.82410 0.06266 -0.01800
H 	H 	0.23960 0.84680 0.10510 0.05900
O 	O 	0.11800 0.93940 0.05839 -0.40300
C 	C 	0.92570 0.94200 0.20850 0.36400
C 	C 	0.96300 0.91280 0.21010 -0.17200
C 	C 	0.01200 0.90780 0.20860 -0.10700
C 	C 	0.75980 0.32410 0.56266 -0.00900
H 	H 	0.73960 0.34680 0.60510 0.05700
O 	O 	0.61800 0.43940 0.55839 -0.44000
C 	C 	0.42570 0.44200 0.70850 0.01100
C 	C 	0.46300 0.41280 0.71010 0.00500
C 	C 	0.51200 0.40780 0.70860 -0.00600
C 	C 	0.17590 0.25980 0.06266 -0.01100
H 	H 	0.15320 0.23960 0.10510 0.03900
O 	O 	0.06060 0.11800 0.05839 -0.47200
C 	C 	0.05800 0.92570 0.20850 0.11700
C 	C 	0.08720 0.96300 0.21010 0.08800
C 	C 	0.09220 0.01200 0.20860 0.01600
C 	C 	0.67590 0.75980 0.56266 0.00100
H 	H 	0.65320 0.73960 0.60510 0.05900
O 	O 	0.56060 0.61800 0.55839 -0.43800
C 	C 	0.55800 0.42570 0.70850 0.01100
C 	C 	0.58720 0.46300 0.71010 0.00800
C 	C 	0.59220 0.51200 0.70860 -0.00100
C 	C 	0.82410 0.74020 0.06266 -0.01900
H 	H 	0.84680 0.76040 0.10510 0.06700
O 	O 	0.93940 0.88200 0.05839 -0.36400
C 	C 	0.94200 0.07430 0.20850 -0.05100
C 	C 	0.91280 0.03700 0.21010 -0.04900
C 	C 	0.90780 0.98800 0.20860 -0.02300
C 	C 	0.32410 0.24020 0.56266 -0.02700
H 	H 	0.34680 0.26040 0.60510 0.05300
O 	O 	0.43940 0.38200 0.55839 -0.44400
C 	C 	0.44200 0.57430 0.70850 0.01300
C 	C 	0.41280 0.53700 0.71010 0.00500
C 	C 	0.40780 0.48800 0.70860 -0.00600
C 	C 	0.74020 0.82410 0.56266 -0.02100
H 	H 	0.76040 0.84680 0.60510 0.07100
O 	O 	0.88200 0.93940 0.55839 -0.36800
C 	C 	0.07430 0.94200 0.70850 -0.05000
C 	C 	0.03700 0.91280 0.71010 -0.04900
C 	C 	0.98800 0.90780 0.70860 -0.02200
C 	C 	0.24020 0.32410 0.06266 -0.02500
H 	H 	0.26040 0.34680 0.10510 0.04900
O 	O 	0.38200 0.43940 0.05839 -0.43900
C 	C 	0.57430 0.44200 0.20850 0.01200
C 	C 	0.53700 0.41280 0.21010 0.00400
C 	C 	0.48800 0.40780 0.20860 -0.00700
C 	C 	0.25980 0.17590 0.56266 -0.01300
H 	H 	0.23960 0.15320 0.60510 0.04200
O 	O 	0.11800 0.06060 0.55839 -0.47700
C 	C 	0.92570 0.05800 0.70850 0.11700
C 	C 	0.96300 0.08720 0.71010 0.09000
C 	C 	0.01200 0.09220 0.70860 0.01700
C 	C 	0.75980 0.67590 0.06266 0.00300
H 	H 	0.73960 0.65320 0.10510 0.05500
O 	O 	0.61800 0.56060 0.05839 -0.43300
C 	C 	0.42570 0.55800 0.20850 0.01000
C 	C 	0.46300 0.58720 0.21010 0.00700
C 	C 	0.51200 0.59220 0.20860 -0.00200
C 	C 	0.17590 0.74020 0.56266 -0.01500
H 	H 	0.15320 0.76040 0.60510 0.05200
O 	O 	0.06060 0.88200 0.55839 -0.42800
C 	C 	0.05800 0.07430 0.70850 -0.33500
C 	C 	0.08720 0.03700 0.71010 0.23000
C 	C 	0.09220 0.98800 0.70860 0.09200
C 	C 	0.67590 0.24020 0.06266 -0.01400
H 	H 	0.65320 0.26040 0.10510 0.05100
O 	O 	0.56060 0.38200 0.05839 -0.43700
C 	C 	0.55800 0.57430 0.20850 0.01200
C 	C 	0.58720 0.53700 0.21010 0.00700
C 	C 	0.59220 0.48800 0.20860 -0.00200
C 	C 	0.82410 0.25980 0.56266 -0.02100
H 	H 	0.84680 0.23960 0.60510 0.06300
O 	O 	0.93940 0.11800 0.55839 -0.40800
C 	C 	0.94200 0.92570 0.70850 0.36600
C 	C 	0.91280 0.96300 0.71010 -0.17100
C 	C 	0.90780 0.01200 0.70860 -0.10600
C 	C 	0.32410 0.75980 0.06266 -0.00600
H 	H 	0.34680 0.73960 0.10510 0.05300
O 	O 	0.43940 0.61800 0.05839 -0.43500
C 	C 	0.44200 0.42570 0.20850 0.01000
C 	C 	0.41280 0.46300 0.21010 0.00400
C 	C 	0.40780 0.51200 0.20860 -0.00600
C 	C 	0.25980 0.82410 0.93734 0.02800
H 	H 	0.23960 0.84680 0.89490 0.05300
O 	O 	0.11800 0.93940 0.94161 -0.36300
C 	C 	0.92570 0.94200 0.79150 0.36500
C 	C 	0.96300 0.91280 0.78990 -0.17000
C 	C 	0.01200 0.90780 0.79140 -0.10500
C 	C 	0.75980 0.32410 0.43734 -0.00900
H 	H 	0.73960 0.34680 0.39490 0.05500
O 	O 	0.61800 0.43940 0.44161 -0.44100
C 	C 	0.42570 0.44200 0.29150 0.01000
C 	C 	0.46300 0.41280 0.28990 0.00500
C 	C 	0.51200 0.40780 0.29140 -0.00600
C 	C 	0.74020 0.17590 0.93734 0.03300
H 	H 	0.76040 0.15320 0.89490 0.04200
O 	O 	0.88200 0.06060 0.94161 -0.38300
C 	C 	0.07430 0.05800 0.79150 -0.33300
C 	C 	0.03700 0.08720 0.78990 0.23100
C 	C 	0.98800 0.09220 0.79140 0.09200
C 	C 	0.24020 0.67590 0.43734 -0.01700
H 	H 	0.26040 0.65320 0.39490 0.05300
O 	O 	0.38200 0.56060 0.44161 -0.44200
C 	C 	0.57430 0.55800 0.29150 0.01300
C 	C 	0.53700 0.58720 0.28990 0.00800
C 	C 	0.48800 0.59220 0.29140 -0.00200
C 	C 	0.82410 0.74020 0.93734 0.02700
H 	H 	0.84680 0.76040 0.89490 0.06100
O 	O 	0.93940 0.88200 0.94161 -0.32400
C 	C 	0.94200 0.07430 0.79150 -0.05000
C 	C 	0.91280 0.03700 0.78990 -0.04800
C 	C 	0.90780 0.98800 0.79140 -0.02200
C 	C 	0.32410 0.24020 0.43734 -0.02800
H 	H 	0.34680 0.26040 0.39490 0.05100
O 	O 	0.43940 0.38200 0.44161 -0.44400
C 	C 	0.44200 0.57430 0.29150 0.01200
C 	C 	0.41280 0.53700 0.28990 0.00500
C 	C 	0.40780 0.48800 0.29140 -0.00700
C 	C 	0.17590 0.25980 0.93734 0.03500
H 	H 	0.15320 0.23960 0.89490 0.03200
O 	O 	0.06060 0.11800 0.94161 -0.43200
C 	C 	0.05800 0.92570 0.79150 0.11700
C 	C 	0.08720 0.96300 0.78990 0.09000
C 	C 	0.09220 0.01200 0.79140 0.01700
C 	C 	0.67590 0.75980 0.43734 0.00000
H 	H 	0.65320 0.73960 0.39490 0.05700
O 	O 	0.56060 0.61800 0.44161 -0.43800
C 	C 	0.55800 0.42570 0.29150 0.01000
C 	C 	0.58720 0.46300 0.28990 0.00800
C 	C 	0.59220 0.51200 0.29140 -0.00200
Co	Co	0.00000 0.00000 0.42791 1.07900
N 	N 	0.00000 0.00000 0.31760 -0.30500
Co	Co	0.50000 0.50000 0.92791 1.15500
N 	N 	0.50000 0.50000 0.81760 -0.19800
Co	Co	-0.00000 -0.00000 0.07209 1.07200
N 	N 	0.00000 0.00000 0.18240 -0.30500
Co	Co	0.50000 0.50000 0.57209 1.15100
N 	N 	0.50000 0.50000 0.68240 -0.19700
Co	Co	0.00000 0.00000 0.57209 1.07900
N 	N 	0.00000 0.00000 0.68240 -0.30600
Co	Co	0.50000 0.50000 0.07209 1.14300
N 	N 	0.50000 0.50000 0.18240 -0.19600
Co	Co	0.00000 0.00000 0.92791 1.08300
N 	N 	0.00000 0.00000 0.81760 -0.30700
Co	Co	0.50000 0.50000 0.42791 1.15100
N 	N 	0.50000 0.50000 0.31760 -0.19600
C 	C 	0.14860 0.08320 0.50000 0.36600
C 	C 	0.22500 0.14470 0.50000 -0.09400
C 	C 	0.64860 0.58320 -0.00000 0.32300
C 	C 	0.72500 0.64470 -0.00000 -0.11900
C 	C 	0.85140 0.91680 0.50000 0.35500
C 	C 	0.77500 0.85530 0.50000 -0.04500
C 	C 	0.35140 0.41680 -0.00000 0.31500
C 	C 	0.27500 0.35530 -0.00000 -0.11800
C 	C 	0.91680 0.14860 0.50000 0.35700
C 	C 	0.85530 0.22500 0.50000 -0.06100
C 	C 	0.41680 0.64860 -0.00000 0.32000
C 	C 	0.35530 0.72500 -0.00000 -0.11900
C 	C 	0.08320 0.85140 0.50000 0.36300
C 	C 	0.14470 0.77500 0.50000 -0.07500
C 	C 	0.58320 0.35140 -0.00000 0.31800
C 	C 	0.64470 0.27500 -0.00000 -0.11800
C 	C 	0.85140 0.08320 -0.00000 0.31400
C 	C 	0.77500 0.14470 -0.00000 -0.11800
C 	C 	0.35140 0.58320 0.50000 0.36900
C 	C 	0.27500 0.64470 0.50000 -0.07500
C 	C 	0.14860 0.91680 -0.00000 0.30700
C 	C 	0.22500 0.85530 -0.00000 -0.10500
C 	C 	0.64860 0.41680 0.50000 0.37100
C 	C 	0.72500 0.35530 0.50000 -0.07500
C 	C 	0.08320 0.14860 -0.00000 0.31800
C 	C 	0.14470 0.22500 -0.00000 -0.13700
C 	C 	0.58320 0.64860 0.50000 0.37400
C 	C 	0.64470 0.72500 0.50000 -0.07500
C 	C 	0.91680 0.85140 -0.00000 0.30500
C 	C 	0.85530 0.77500 -0.00000 -0.09000
C 	C 	0.41680 0.35140 0.50000 0.36500
C 	C 	0.35530 0.27500 0.50000 -0.07400
