data_crystal

_cell_length_a 17.91900
_cell_length_b 20.20970
_cell_length_c 11.12970
_cell_angle_alpha 90.00000
_cell_angle_beta  98.07700
_cell_angle_gamma 90.00000

_symmetry_space_group_name_	'P 1'
_symmetry_space_group_name_H-M	'P 1'

loop_
_symmetry_equiv_pos_as_xyz
  x,y,z

loop_
_atom_site_label
_atom_site_type_symbol
_atom_site_fract_x
_atom_site_fract_y
_atom_site_fract_z
_atom_site_charge
O 	O 	0.03280 0.10020 0.09460 -0.25000
F 	F 	0.77070 0.92850 0.11530 -0.16900
F 	F 	0.75270 0.97040 0.10040 -0.30100
F 	F 	0.81240 0.96810 0.26190 -0.18000
F 	F 	0.07240 0.22690 0.01800 -0.24200
F 	F 	0.00280 0.22980 0.89760 -0.36600
F 	F 	0.09080 0.21140 0.97100 -0.09600
F 	F 	0.96500 0.23030 0.90730 -0.06400
C 	C 	0.10920 0.03450 0.30600 -0.06700
H 	H 	0.06610 0.05800 0.31730 0.03000
C 	C 	0.17730 0.06820 0.28910 0.07400
C 	C 	0.18540 0.13480 0.24140 -0.22500
H 	H 	0.14740 0.16590 0.24420 0.19200
C 	C 	0.25010 0.15180 0.19140 -0.10500
C 	C 	0.31100 0.10380 0.18590 0.04100
C 	C 	0.30440 0.04520 0.24680 0.05400
C 	C 	0.23800 0.02790 0.29620 -0.01000
C 	C 	0.39880 0.04010 0.07100 0.37600
H 	H 	0.42830 0.03530 0.00950 -0.04500
C 	C 	0.36620 0.10420 0.10110 -0.15000
H 	H 	0.38030 0.14350 0.06700 -0.11500
Br	Br	0.24900 0.22670 0.07060 0.61500
C 	C 	0.10110 0.03420 0.32000 -0.07700
H 	H 	0.05690 0.05560 0.33250 0.06300
C 	C 	0.16450 0.07460 0.30160 0.07000
C 	C 	0.16570 0.14320 0.25980 0.00800
H 	H 	0.12520 0.17090 0.26810 -0.01100
C 	C 	0.22670 0.16780 0.20760 0.22400
H 	H 	0.22520 0.21130 0.18010 0.33900
C 	C 	0.29340 0.12670 0.19480 -0.01500
C 	C 	0.29530 0.06670 0.25290 0.07100
C 	C 	0.23080 0.04270 0.30260 -0.06900
C 	C 	0.33560 0.02380 0.22000 -0.16800
C 	C 	0.38250 0.03050 0.13200 -0.48300
C 	C 	0.39190 0.07480 0.08090 -0.00200
H 	H 	0.42410 0.07590 0.02220 0.17500
C 	C 	0.34880 0.13330 0.11310 0.29600
H 	H 	0.35750 0.17450 0.08040 0.03100
Br	Br	0.21100 0.24800 0.09900 -0.95300
Br	Br	0.38020 0.17300 0.01420 0.45400
H 	H 	0.25470 0.19430 0.16120 -0.17200
Br	Br	0.35140 0.20030 0.01620 -0.23300
Br	Br	0.43600 0.06600 0.95000 -0.11600
Br	Br	0.44100 0.10300 0.97900 -0.11600
O 	O 	0.53280 0.60020 0.09460 -0.25200
F 	F 	0.27070 0.42850 0.11530 -0.20700
F 	F 	0.25270 0.47040 0.10040 -0.38300
F 	F 	0.31240 0.46810 0.26190 0.38600
F 	F 	0.57240 0.72690 0.01800 -0.28900
F 	F 	0.50280 0.72980 0.89760 -0.28200
F 	F 	0.59080 0.71140 0.97100 -0.07600
F 	F 	0.46500 0.73030 0.90730 -0.16600
C 	C 	0.60920 0.53450 0.30600 -0.03000
H 	H 	0.56610 0.55800 0.31730 0.04800
C 	C 	0.67730 0.56820 0.28910 0.07400
C 	C 	0.68540 0.63480 0.24140 -0.23700
H 	H 	0.64740 0.66590 0.24420 0.20900
C 	C 	0.75010 0.65180 0.19140 -0.14500
C 	C 	0.81100 0.60380 0.18590 0.11300
C 	C 	0.80440 0.54520 0.24680 0.06800
C 	C 	0.73800 0.52790 0.29620 0.01200
C 	C 	0.89880 0.54010 0.07100 0.35400
H 	H 	0.92830 0.53530 0.00950 -0.03400
C 	C 	0.86620 0.60420 0.10110 -0.22400
H 	H 	0.88030 0.64350 0.06700 -0.08000
Br	Br	0.74900 0.72670 0.07060 0.90500
C 	C 	0.60110 0.53420 0.32000 -0.04600
H 	H 	0.55690 0.55560 0.33250 0.03900
C 	C 	0.66450 0.57460 0.30160 0.04500
C 	C 	0.66570 0.64320 0.25980 -0.02300
H 	H 	0.62520 0.67090 0.26810 -0.00700
C 	C 	0.72670 0.66780 0.20760 0.33300
H 	H 	0.72520 0.71130 0.18010 0.40700
C 	C 	0.79340 0.62670 0.19480 -0.07600
C 	C 	0.79530 0.56670 0.25290 -0.06700
C 	C 	0.73080 0.54270 0.30260 0.00900
C 	C 	0.83560 0.52380 0.22000 0.06700
C 	C 	0.88250 0.53050 0.13200 -0.15600
C 	C 	0.89190 0.57480 0.08090 -0.19700
H 	H 	0.92410 0.57590 0.02220 0.26100
C 	C 	0.84880 0.63330 0.11310 0.42900
H 	H 	0.85750 0.67450 0.08040 -0.05900
Br	Br	0.71100 0.74800 0.09900 -1.24800
Br	Br	0.88020 0.67300 0.01420 0.44100
H 	H 	0.75470 0.69430 0.16120 -0.27100
Br	Br	0.85140 0.70030 0.01620 -0.16900
Br	Br	0.93600 0.56600 0.95000 -0.09300
Br	Br	0.94100 0.60300 0.97900 -0.13200
O 	O 	0.96720 0.10020 0.90540 -0.18700
F 	F 	0.22930 0.92850 0.88470 -0.15800
F 	F 	0.24730 0.97040 0.89960 -0.28900
F 	F 	0.18760 0.96810 0.73810 -0.14000
F 	F 	0.92760 0.22690 0.98200 -0.16700
F 	F 	0.99720 0.22980 0.10240 -0.21800
F 	F 	0.90920 0.21140 0.02900 -0.16700
F 	F 	0.03500 0.23030 0.09270 -0.21600
C 	C 	0.89080 0.03450 0.69400 -0.06800
H 	H 	0.93390 0.05800 0.68270 0.04900
C 	C 	0.82270 0.06820 0.71090 0.10500
C 	C 	0.81460 0.13480 0.75860 -0.32600
H 	H 	0.85260 0.16590 0.75580 0.33600
C 	C 	0.74990 0.15180 0.80860 -0.09600
C 	C 	0.68900 0.10380 0.81410 -0.01300
C 	C 	0.69560 0.04520 0.75320 0.08200
C 	C 	0.76200 0.02790 0.70380 -0.02300
C 	C 	0.60120 0.04010 0.92900 0.49600
H 	H 	0.57170 0.03530 0.99050 -0.03600
C 	C 	0.63380 0.10420 0.89890 -0.24300
H 	H 	0.61970 0.14350 0.93300 0.02000
Br	Br	0.75100 0.22670 0.92940 1.24900
C 	C 	0.89890 0.03420 0.68000 -0.08800
H 	H 	0.94310 0.05560 0.66750 0.06800
C 	C 	0.83550 0.07460 0.69840 0.09100
C 	C 	0.83430 0.14320 0.74020 -0.04600
H 	H 	0.87480 0.17090 0.73190 -0.08700
C 	C 	0.77330 0.16780 0.79240 0.33400
H 	H 	0.77480 0.21130 0.81990 0.47400
C 	C 	0.70660 0.12670 0.80520 0.00600
C 	C 	0.70470 0.06670 0.74710 0.07000
C 	C 	0.76920 0.04270 0.69740 -0.07000
C 	C 	0.66440 0.02380 0.78000 -0.16800
C 	C 	0.61750 0.03050 0.86800 -0.54800
C 	C 	0.60810 0.07480 0.91910 -0.10800
H 	H 	0.57590 0.07590 0.97780 0.31600
C 	C 	0.65120 0.13330 0.88690 0.43000
H 	H 	0.64250 0.17450 0.91960 -0.09100
Br	Br	0.78900 0.24800 0.90100 -1.40600
Br	Br	0.61980 0.17300 0.98580 0.21800
H 	H 	0.74530 0.19430 0.83880 -0.41000
Br	Br	0.64860 0.20030 0.98380 -0.02200
Br	Br	0.56400 0.06600 0.05000 -0.28600
Br	Br	0.55900 0.10300 0.02100 -0.18200
O 	O 	0.46720 0.60020 0.90540 -0.22700
F 	F 	0.72930 0.42850 0.88470 -0.19000
F 	F 	0.74730 0.47040 0.89960 -0.37300
F 	F 	0.68760 0.46810 0.73810 0.38300
F 	F 	0.42760 0.72690 0.98200 -0.14300
F 	F 	0.49720 0.72980 0.10240 -0.32800
F 	F 	0.40920 0.71140 0.02900 -0.18800
F 	F 	0.53500 0.73030 0.09270 -0.11700
C 	C 	0.39080 0.53450 0.69400 -0.03300
H 	H 	0.43390 0.55800 0.68270 0.04900
C 	C 	0.32270 0.56820 0.71090 0.10500
C 	C 	0.31460 0.63480 0.75860 -0.38200
H 	H 	0.35260 0.66590 0.75580 0.42300
C 	C 	0.24990 0.65180 0.80860 -0.10100
C 	C 	0.18900 0.60380 0.81410 0.01300
C 	C 	0.19560 0.54520 0.75320 0.11100
C 	C 	0.26200 0.52790 0.70380 -0.00600
C 	C 	0.10120 0.54010 0.92900 0.48700
H 	H 	0.07170 0.53530 0.99050 -0.01700
C 	C 	0.13380 0.60420 0.89890 -0.33700
H 	H 	0.11970 0.64350 0.93300 0.04500
Br	Br	0.25100 0.72670 0.92940 1.38300
C 	C 	0.39890 0.53420 0.68000 -0.05800
H 	H 	0.44310 0.55560 0.66750 0.04600
C 	C 	0.33550 0.57460 0.69840 0.07600
C 	C 	0.33430 0.64320 0.74020 -0.07400
H 	H 	0.37480 0.67090 0.73190 -0.14600
C 	C 	0.27330 0.66780 0.79240 0.41900
H 	H 	0.27480 0.71130 0.81990 0.49000
C 	C 	0.20660 0.62670 0.80520 -0.04900
C 	C 	0.20470 0.56670 0.74710 -0.06500
C 	C 	0.26920 0.54270 0.69740 0.00500
C 	C 	0.16440 0.52380 0.78000 0.06300
C 	C 	0.11750 0.53050 0.86800 -0.23400
C 	C 	0.10810 0.57480 0.91910 -0.34200
H 	H 	0.07590 0.57590 0.97780 0.44400
C 	C 	0.15120 0.63330 0.88690 0.62800
H 	H 	0.14250 0.67450 0.91960 -0.19300
Br	Br	0.28900 0.74800 0.90100 -1.52400
Br	Br	0.11980 0.67300 0.98580 0.19000
H 	H 	0.24530 0.69430 0.83880 -0.46800
Br	Br	0.14860 0.70030 0.98380 0.04300
Br	Br	0.06400 0.56600 0.05000 -0.36500
Br	Br	0.05900 0.60300 0.02100 -0.20100
O 	O 	0.96720 0.89980 0.90540 -0.15800
F 	F 	0.22930 0.07150 0.88470 -0.14200
F 	F 	0.24730 0.02960 0.89960 -0.38100
F 	F 	0.18760 0.03190 0.73810 -0.21800
F 	F 	0.92760 0.77310 0.98200 -0.17000
F 	F 	0.99720 0.77020 0.10240 -0.22100
F 	F 	0.90920 0.78860 0.02900 -0.15800
F 	F 	0.03500 0.76970 0.09270 -0.21200
C 	C 	0.89080 0.96550 0.69400 0.00800
H 	H 	0.93390 0.94200 0.68270 0.08900
C 	C 	0.82270 0.93180 0.71090 0.10100
C 	C 	0.81460 0.86520 0.75860 -0.33800
H 	H 	0.85260 0.83410 0.75580 0.36200
C 	C 	0.74990 0.84820 0.80860 -0.14400
C 	C 	0.68900 0.89620 0.81410 0.05400
C 	C 	0.69560 0.95480 0.75320 0.10300
C 	C 	0.76200 0.97210 0.70380 0.00500
C 	C 	0.60120 0.95990 0.92900 0.51200
H 	H 	0.57170 0.96470 0.99050 -0.00900
C 	C 	0.63380 0.89580 0.89890 -0.39100
H 	H 	0.61970 0.85650 0.93300 0.08300
Br	Br	0.75100 0.77330 0.92940 1.60500
C 	C 	0.89890 0.96580 0.68000 -0.02100
H 	H 	0.94310 0.94440 0.66750 0.01700
C 	C 	0.83550 0.92540 0.69840 0.05000
C 	C 	0.83430 0.85680 0.74020 -0.08700
H 	H 	0.87480 0.82910 0.73190 -0.08700
C 	C 	0.77330 0.83220 0.79240 0.48300
H 	H 	0.77480 0.78870 0.81990 0.53500
C 	C 	0.70660 0.87330 0.80520 -0.08500
C 	C 	0.70470 0.93330 0.74710 -0.08800
C 	C 	0.76920 0.95730 0.69740 0.07600
C 	C 	0.66440 0.97620 0.78000 0.09300
C 	C 	0.61750 0.96950 0.86800 -0.08500
C 	C 	0.60810 0.92520 0.91910 -0.45400
H 	H 	0.57590 0.92410 0.97780 0.46200
C 	C 	0.65120 0.86670 0.88690 0.71600
H 	H 	0.64250 0.82550 0.91960 -0.24500
Br	Br	0.78900 0.75200 0.90100 -1.72700
Br	Br	0.61980 0.82700 0.98580 0.13900
H 	H 	0.74530 0.80570 0.83880 -0.53300
Br	Br	0.64860 0.79970 0.98380 0.08700
Br	Br	0.56400 0.93400 0.05000 -0.34400
Br	Br	0.55900 0.89700 0.02100 -0.16100
O 	O 	0.46720 0.39980 0.90540 -0.22700
F 	F 	0.72930 0.57150 0.88470 -0.18700
F 	F 	0.74730 0.52960 0.89960 -0.37300
F 	F 	0.68760 0.53190 0.73810 0.38400
F 	F 	0.42760 0.27310 0.98200 -0.14400
F 	F 	0.49720 0.27020 0.10240 -0.33100
F 	F 	0.40920 0.28860 0.02900 -0.18100
F 	F 	0.53500 0.26970 0.09270 -0.11600
C 	C 	0.39080 0.46550 0.69400 -0.03700
H 	H 	0.43390 0.44200 0.68270 0.04800
C 	C 	0.32270 0.43180 0.71090 0.11600
C 	C 	0.31460 0.36520 0.75860 -0.43100
H 	H 	0.35260 0.33410 0.75580 0.49600
C 	C 	0.24990 0.34820 0.80860 -0.07800
C 	C 	0.18900 0.39620 0.81410 -0.03400
C 	C 	0.19560 0.45480 0.75320 0.11300
C 	C 	0.26200 0.47210 0.70380 -0.02000
C 	C 	0.10120 0.45990 0.92900 0.52000
H 	H 	0.07170 0.46470 0.99050 -0.05300
C 	C 	0.13380 0.39580 0.89890 -0.37200
H 	H 	0.11970 0.35650 0.93300 0.11500
Br	Br	0.25100 0.27330 0.92940 1.50100
C 	C 	0.39890 0.46580 0.68000 -0.06500
H 	H 	0.44310 0.44440 0.66750 0.05000
C 	C 	0.33550 0.42540 0.69840 0.09100
C 	C 	0.33430 0.35680 0.74020 -0.08600
H 	H 	0.37480 0.32910 0.73190 -0.19700
C 	C 	0.27330 0.33220 0.79240 0.42400
H 	H 	0.27480 0.28870 0.81990 0.50700
C 	C 	0.20660 0.37330 0.80520 -0.02800
C 	C 	0.20470 0.43330 0.74710 -0.01300
C 	C 	0.26920 0.45730 0.69740 -0.00900
C 	C 	0.16440 0.47620 0.78000 -0.00400
C 	C 	0.11750 0.46950 0.86800 -0.21500
C 	C 	0.10810 0.42520 0.91910 -0.35100
H 	H 	0.07590 0.42410 0.97780 0.44100
C 	C 	0.15120 0.36670 0.88690 0.64100
H 	H 	0.14250 0.32550 0.91960 -0.19300
Br	Br	0.28900 0.25200 0.90100 -1.57000
Br	Br	0.11980 0.32700 0.98580 0.05100
H 	H 	0.24530 0.30570 0.83880 -0.51900
Br	Br	0.14860 0.29970 0.98380 0.07400
Br	Br	0.06400 0.43400 0.05000 -0.29800
Br	Br	0.05900 0.39700 0.02100 -0.23100
O 	O 	0.03280 0.89980 0.09460 -0.22300
F 	F 	0.77070 0.07150 0.11530 -0.15300
F 	F 	0.75270 0.02960 0.10040 -0.39400
F 	F 	0.81240 0.03190 0.26190 -0.25900
F 	F 	0.07240 0.77310 0.01800 -0.24600
F 	F 	0.00280 0.77020 0.89760 -0.36900
F 	F 	0.09080 0.78860 0.97100 -0.08700
F 	F 	0.96500 0.76970 0.90730 -0.05900
C 	C 	0.10920 0.96550 0.30600 0.00800
H 	H 	0.06610 0.94200 0.31730 0.06900
C 	C 	0.17730 0.93180 0.28910 0.07100
C 	C 	0.18540 0.86520 0.24140 -0.23700
H 	H 	0.14740 0.83410 0.24420 0.21900
C 	C 	0.25010 0.84820 0.19140 -0.15300
C 	C 	0.31100 0.89620 0.18590 0.10700
C 	C 	0.30440 0.95480 0.24680 0.07500
C 	C 	0.23800 0.97210 0.29620 0.01800
C 	C 	0.39880 0.95990 0.07100 0.39200
H 	H 	0.42830 0.96470 0.00950 -0.01700
C 	C 	0.36620 0.89580 0.10110 -0.29600
H 	H 	0.38030 0.85650 0.06700 -0.05300
Br	Br	0.24900 0.77330 0.07060 0.96700
C 	C 	0.10110 0.96580 0.32000 -0.01100
H 	H 	0.05690 0.94440 0.33250 0.01300
C 	C 	0.16450 0.92540 0.30160 0.02900
C 	C 	0.16570 0.85680 0.25980 -0.03300
H 	H 	0.12520 0.82910 0.26810 -0.01200
C 	C 	0.22670 0.83220 0.20760 0.37100
H 	H 	0.22520 0.78870 0.18010 0.40000
C 	C 	0.29340 0.87330 0.19480 -0.10700
C 	C 	0.29530 0.93330 0.25290 -0.08500
C 	C 	0.23080 0.95730 0.30260 0.07600
C 	C 	0.33560 0.97620 0.22000 0.08900
C 	C 	0.38250 0.96950 0.13200 -0.02200
C 	C 	0.39190 0.92520 0.08090 -0.34700
H 	H 	0.42410 0.92410 0.02220 0.31900
C 	C 	0.34880 0.86670 0.11310 0.58000
H 	H 	0.35750 0.82550 0.08040 -0.12200
Br	Br	0.21100 0.75200 0.09900 -1.27100
Br	Br	0.38020 0.82700 0.01420 0.37700
H 	H 	0.25470 0.80570 0.16120 -0.29400
Br	Br	0.35140 0.79970 0.01620 -0.12600
Br	Br	0.43600 0.93400 0.95000 -0.17400
Br	Br	0.44100 0.89700 0.97900 -0.09400
O 	O 	0.53280 0.39980 0.09460 -0.25200
F 	F 	0.27070 0.57150 0.11530 -0.20400
F 	F 	0.25270 0.52960 0.10040 -0.38400
F 	F 	0.31240 0.53190 0.26190 0.38700
F 	F 	0.57240 0.27310 0.01800 -0.29000
F 	F 	0.50280 0.27020 0.89760 -0.28500
F 	F 	0.59080 0.28860 0.97100 -0.07000
F 	F 	0.46500 0.26970 0.90730 -0.16500
C 	C 	0.60920 0.46550 0.30600 -0.03500
H 	H 	0.56610 0.44200 0.31730 0.04800
C 	C 	0.67730 0.43180 0.28910 0.08500
C 	C 	0.68540 0.36520 0.24140 -0.28600
H 	H 	0.64740 0.33410 0.24420 0.28300
C 	C 	0.75010 0.34820 0.19140 -0.12200
C 	C 	0.81100 0.39620 0.18590 0.06600
C 	C 	0.80440 0.45480 0.24680 0.07000
C 	C 	0.73800 0.47210 0.29620 -0.00200
C 	C 	0.89880 0.45990 0.07100 0.38800
H 	H 	0.92830 0.46470 0.00950 -0.07000
C 	C 	0.86620 0.39580 0.10110 -0.26000
H 	H 	0.88030 0.35650 0.06700 -0.01000
Br	Br	0.74900 0.27330 0.07060 1.02700
C 	C 	0.60110 0.46580 0.32000 -0.05300
H 	H 	0.55690 0.44440 0.33250 0.04300
C 	C 	0.66450 0.42540 0.30160 0.06000
C 	C 	0.66570 0.35680 0.25980 -0.03600
H 	H 	0.62520 0.32910 0.26810 -0.05900
C 	C 	0.72670 0.33220 0.20760 0.33800
H 	H 	0.72520 0.28870 0.18010 0.42500
C 	C 	0.79340 0.37330 0.19480 -0.05500
C 	C 	0.79530 0.43330 0.25290 -0.01500
C 	C 	0.73080 0.45730 0.30260 -0.00500
C 	C 	0.83560 0.47620 0.22000 -0.00000
C 	C 	0.88250 0.46950 0.13200 -0.13700
C 	C 	0.89190 0.42520 0.08090 -0.20600
H 	H 	0.92410 0.42410 0.02220 0.25900
C 	C 	0.84880 0.36670 0.11310 0.44200
H 	H 	0.85750 0.32550 0.08040 -0.05900
Br	Br	0.71100 0.25200 0.09900 -1.29600
Br	Br	0.88020 0.32700 0.01420 0.30100
H 	H 	0.75470 0.30570 0.16120 -0.32400
Br	Br	0.85140 0.29970 0.01620 -0.13700
Br	Br	0.93600 0.43400 0.95000 -0.02500
Br	Br	0.94100 0.39700 0.97900 -0.16200
Rh	Rh	0.03542 -0.00000 0.10107 0.82500
O 	O 	0.93520 -0.00000 0.16550 -0.23900
O 	O 	0.86970 -0.00000 0.97750 -0.24500
C 	C 	0.80400 -0.00000 0.14640 1.00100
F 	F 	0.81120 0.00000 0.26250 -0.11300
C 	C 	0.87680 0.00000 0.09100 0.05700
C 	C 	0.34120 0.00000 0.21700 0.14400
C 	C 	0.38560 0.00000 0.12610 0.16900
Rh	Rh	0.53542 0.50000 0.10107 0.86200
O 	O 	0.43520 0.50000 0.16550 -0.24500
O 	O 	0.36970 0.50000 0.97750 -0.21000
C 	C 	0.30400 0.50000 0.14640 1.12900
F 	F 	0.31120 0.50000 0.26250 -1.14100
C 	C 	0.37680 0.50000 0.09100 0.00300
C 	C 	0.84120 0.50000 0.21700 0.02100
C 	C 	0.88560 0.50000 0.12610 0.05800
Rh	Rh	0.96458 0.00000 0.89893 0.87000
O 	O 	0.06480 -0.00000 0.83450 -0.30000
O 	O 	0.13030 0.00000 0.02250 -0.31600
C 	C 	0.19600 -0.00000 0.85360 0.97300
F 	F 	0.18880 0.00000 0.73750 -0.18400
C 	C 	0.12320 0.00000 0.90900 0.14400
C 	C 	0.65880 -0.00000 0.78300 0.15100
C 	C 	0.61440 -0.00000 0.87390 0.21200
Rh	Rh	0.46458 0.50000 0.89893 0.87700
O 	O 	0.56480 0.50000 0.83450 -0.26100
O 	O 	0.63030 0.50000 0.02250 -0.27900
C 	C 	0.69600 0.50000 0.85360 1.10200
F 	F 	0.68880 0.50000 0.73750 -1.12900
C 	C 	0.62320 0.50000 0.90900 0.08800
C 	C 	0.15880 0.50000 0.78300 0.02200
C 	C 	0.11440 0.50000 0.87390 0.11900
C 	C 	-0.00000 0.20250 -0.00000 0.93200
C 	C 	-0.00000 0.12740 -0.00000 0.04300
C 	C 	0.50000 0.70250 -0.00000 0.97600
C 	C 	0.50000 0.62740 -0.00000 0.08000
C 	C 	-0.00000 0.79750 -0.00000 0.93300
C 	C 	-0.00000 0.87260 -0.00000 0.04000
C 	C 	0.50000 0.29750 -0.00000 0.97600
C 	C 	0.50000 0.37260 -0.00000 0.08000
