data_crystal

_cell_length_a 7.30960
_cell_length_b 12.26700
_cell_length_c 13.89100
_cell_angle_alpha 82.96000
_cell_angle_beta  80.95100
_cell_angle_gamma 72.89700

_symmetry_space_group_name_	'P 1'
_symmetry_space_group_name_H-M	'P 1'

loop_
_symmetry_equiv_pos_as_xyz
  x,y,z

loop_
_atom_site_label
_atom_site_type_symbol
_atom_site_fract_x
_atom_site_fract_y
_atom_site_fract_z
_atom_site_charge
Ni	Ni	0.58402 0.56311 0.25100 1.07100
Ni	Ni	0.04793 0.71244 0.03946 1.07200
Ni	Ni	0.41598 0.43689 0.74900 1.07100
Ni	Ni	0.95207 0.28756 0.96054 1.07200
H 	H 	0.20880 0.89930 0.32600 0.04700
H 	H 	0.96690 0.04740 0.39170 0.07500
H 	H 	0.57360 0.92320 0.30250 0.06100
H 	H 	0.24700 0.19180 0.48890 0.07700
H 	H 	0.96130 0.28190 0.42300 0.04600
H 	H 	0.51340 0.13150 0.21620 0.06400
H 	H 	0.57230 0.36010 0.39720 0.03100
H 	H 	0.50060 0.31980 0.56040 0.05500
H 	H 	0.29140 0.87910 0.01970 0.03600
H 	H 	0.25770 0.07160 0.98170 0.03700
H 	H 	0.79120 0.10070 0.67400 0.04600
H 	H 	0.03310 0.95260 0.60830 0.07400
H 	H 	0.42640 0.07680 0.69750 0.06000
H 	H 	0.75300 0.80820 0.51110 0.07600
H 	H 	0.03870 0.71810 0.57700 0.04500
H 	H 	0.48660 0.86850 0.78380 0.06300
H 	H 	0.42770 0.63990 0.60280 0.03100
H 	H 	0.49940 0.68020 0.43960 0.05500
H 	H 	0.70860 0.12090 0.98030 0.03600
H 	H 	0.74230 0.92840 0.01830 0.03700
C 	C 	0.04270 0.82480 0.26980 -0.10600
C 	C 	0.08130 0.90530 0.31960 0.02000
C 	C 	0.93740 0.99350 0.35990 -0.06200
C 	C 	0.74530 0.00100 0.35220 0.00700
C 	C 	0.70150 0.91920 0.30590 -0.04100
C 	C 	0.85260 0.83010 0.26420 -0.03900
C 	C 	0.59320 0.09400 0.40100 0.12900
C 	C 	0.40800 0.14980 0.35850 0.00500
C 	C 	0.24390 0.19720 0.42180 -0.06400
C 	C 	0.07360 0.25340 0.38110 -0.00500
C 	C 	0.06570 0.26760 0.28510 -0.04900
C 	C 	0.23260 0.22310 0.21800 -0.05700
C 	C 	0.40230 0.16310 0.25780 -0.04000
C 	C 	0.20800 0.73340 0.22730 0.40700
C 	C 	0.79230 0.74150 0.22110 0.34300
C 	C 	0.23580 0.24050 0.11120 0.33000
C 	C 	0.87470 0.33140 0.25050 0.32700
C 	C 	0.54180 0.41850 0.43890 0.00600
C 	C 	0.50080 0.39390 0.53640 0.01000
C 	C 	0.17000 0.92810 0.01100 0.00100
C 	C 	0.15000 0.04410 0.98960 0.02400
C 	C 	0.95730 0.17520 0.73020 -0.10600
C 	C 	0.91870 0.09470 0.68040 0.02000
C 	C 	0.06260 0.00650 0.64010 -0.06200
C 	C 	0.25470 0.99900 0.64780 0.00700
C 	C 	0.29850 0.08080 0.69410 -0.04100
C 	C 	0.14740 0.16990 0.73580 -0.03900
C 	C 	0.40680 0.90600 0.59900 0.12900
C 	C 	0.59200 0.85020 0.64150 0.00500
C 	C 	0.75610 0.80280 0.57820 -0.06400
C 	C 	0.92640 0.74660 0.61890 -0.00500
C 	C 	0.93430 0.73240 0.71490 -0.04900
C 	C 	0.76740 0.77690 0.78200 -0.05700
C 	C 	0.59770 0.83690 0.74220 -0.04000
C 	C 	0.79200 0.26660 0.77270 0.40700
C 	C 	0.20770 0.25850 0.77890 0.34300
C 	C 	0.76420 0.75950 0.88880 0.33000
C 	C 	0.12530 0.66860 0.74950 0.32700
C 	C 	0.45820 0.58150 0.56110 0.00600
C 	C 	0.49920 0.60610 0.46360 0.01000
C 	C 	0.83000 0.07190 0.98900 0.00100
C 	C 	0.85000 0.95590 0.01040 0.02400
N 	N 	0.53960 0.52380 0.40140 -0.19700
N 	N 	0.02130 0.88480 0.01960 -0.20800
N 	N 	0.46040 0.47620 0.59860 -0.19700
N 	N 	0.97870 0.11520 0.98040 -0.20800
O 	O 	0.35210 0.70120 0.27270 -0.43000
O 	O 	0.20390 0.69370 0.15060 -0.50300
O 	O 	0.80050 0.74170 0.13140 -0.44200
O 	O 	0.73050 0.67180 0.28240 -0.38800
O 	O 	0.61670 0.12250 0.47740 -0.20500
O 	O 	0.39010 0.21050 0.05730 -0.29100
O 	O 	0.06970 0.28570 0.08240 -0.43100
O 	O 	0.75440 0.28120 0.24630 -0.30000
O 	O 	0.84390 0.44060 0.24010 -0.42000
O 	O 	0.64790 0.29880 0.72730 -0.43000
O 	O 	0.79610 0.30630 0.84940 -0.50300
O 	O 	0.19950 0.25830 0.86860 -0.44200
O 	O 	0.26950 0.32820 0.71760 -0.38800
O 	O 	0.38330 0.87750 0.52260 -0.20500
O 	O 	0.60990 0.78950 0.94270 -0.29100
O 	O 	0.93030 0.71430 0.91760 -0.43100
O 	O 	0.24560 0.71880 0.75370 -0.30000
O 	O 	0.15610 0.55940 0.75990 -0.42000
