data_crystal

_cell_length_a 10.73800
_cell_length_b 10.76190
_cell_length_c 18.54700
_cell_angle_alpha 105.92800
_cell_angle_beta  90.00000
_cell_angle_gamma 119.92700

_symmetry_space_group_name_	'P 1'
_symmetry_space_group_name_H-M	'P 1'

loop_
_symmetry_equiv_pos_as_xyz
  x,y,z

loop_
_atom_site_label
_atom_site_type_symbol
_atom_site_fract_x
_atom_site_fract_y
_atom_site_fract_z
_atom_site_charge
Er	Er	0.07696 0.00278 0.89720 1.85300
Er	Er	0.07418 0.99722 0.60281 1.86200
Er	Er	0.92304 0.99722 0.10281 1.85200
Er	Er	0.92582 0.00278 0.39720 1.86200
H 	H 	0.35750 0.38560 0.21890 0.04900
H 	H 	0.57660 0.61080 0.27360 0.03700
H 	H 	0.48680 0.36120 0.01660 0.03400
H 	H 	0.69950 0.58940 0.06860 0.02300
H 	H 	0.96580 0.66300 0.09700 0.04800
H 	H 	0.06570 0.55800 0.88960 0.04100
H 	H 	0.97190 0.61440 0.28110 0.03900
H 	H 	0.96580 0.38920 0.22640 0.04300
H 	H 	0.12560 0.63880 0.48340 0.02900
H 	H 	0.11010 0.41060 0.43140 0.02700
H 	H 	0.30280 0.33700 0.40300 0.04800
H 	H 	0.50770 0.44200 0.61040 0.04100
H 	H 	0.64250 0.61440 0.78110 0.04900
H 	H 	0.42340 0.38920 0.72640 0.03700
H 	H 	0.51320 0.63880 0.98340 0.03400
H 	H 	0.30050 0.41060 0.93140 0.02300
H 	H 	0.03420 0.33700 0.90300 0.04800
H 	H 	0.93430 0.44200 0.11040 0.04100
H 	H 	0.02810 0.38560 0.71890 0.03900
H 	H 	0.03420 0.61080 0.77360 0.04300
H 	H 	0.87440 0.36120 0.51660 0.02900
H 	H 	0.88990 0.58940 0.56860 0.02700
H 	H 	0.69720 0.66300 0.59700 0.04800
H 	H 	0.49230 0.55800 0.38960 0.04100
C 	C 	0.42710 0.42660 0.18900 -0.01900
C 	C 	0.55720 0.56240 0.22140 0.00700
C 	C 	0.03900 0.77620 0.98250 0.46000
C 	C 	0.50370 0.41280 0.06820 -0.01300
C 	C 	0.65780 0.62560 0.17620 -0.14900
C 	C 	0.63120 0.54880 0.09910 0.00300
C 	C 	0.97990 0.59780 0.05800 -0.01500
C 	C 	0.40180 0.35200 0.11150 -0.11600
C 	C 	0.03960 0.53500 0.93420 -0.00700
C 	C 	0.79540 0.77740 0.21050 0.49400
C 	C 	0.25830 0.20720 0.07580 0.48100
C 	C 	0.02080 0.63380 0.99210 -0.11800
C 	C 	0.00050 0.57340 0.31100 0.00300
C 	C 	0.99480 0.43760 0.27860 -0.01500
C 	C 	0.26280 0.22380 0.51750 0.46800
C 	C 	0.09090 0.58720 0.43180 -0.00000
C 	C 	0.03220 0.37440 0.32380 -0.13600
C 	C 	0.08240 0.45120 0.40090 -0.00900
C 	C 	0.38210 0.40220 0.44200 -0.01200
C 	C 	0.04980 0.64800 0.38850 -0.13000
C 	C 	0.50460 0.46500 0.56580 -0.00600
C 	C 	0.01800 0.22260 0.28950 0.49500
C 	C 	0.05110 0.79280 0.42420 0.48700
C 	C 	0.38700 0.36620 0.50790 -0.11800
C 	C 	0.57290 0.57340 0.81100 -0.01900
C 	C 	0.44280 0.43760 0.77860 0.00700
C 	C 	0.96100 0.22380 0.01750 0.46000
C 	C 	0.49630 0.58720 0.93180 -0.01300
C 	C 	0.34220 0.37440 0.82380 -0.14900
C 	C 	0.36880 0.45120 0.90090 0.00300
C 	C 	0.02010 0.40220 0.94200 -0.01500
C 	C 	0.59820 0.64800 0.88850 -0.11600
C 	C 	0.96040 0.46500 0.06580 -0.00700
C 	C 	0.20460 0.22260 0.78950 0.49400
C 	C 	0.74170 0.79280 0.92420 0.48100
C 	C 	0.97920 0.36620 0.00790 -0.11800
C 	C 	0.99950 0.42660 0.68900 0.00300
C 	C 	0.00520 0.56240 0.72140 -0.01500
C 	C 	0.73720 0.77620 0.48250 0.46800
C 	C 	0.90910 0.41280 0.56820 -0.00000
C 	C 	0.96780 0.62560 0.67620 -0.13600
C 	C 	0.91760 0.54880 0.59910 -0.00900
C 	C 	0.61790 0.59780 0.55800 -0.01200
C 	C 	0.95020 0.35200 0.61150 -0.13000
C 	C 	0.49540 0.53500 0.43420 -0.00600
C 	C 	0.98200 0.77740 0.71050 0.49500
C 	C 	0.94890 0.20720 0.57580 0.48700
C 	C 	0.61300 0.63380 0.49210 -0.11800
O 	O 	0.24460 0.14600 0.00600 -0.52400
O 	O 	0.08850 0.81060 0.92500 -0.48600
O 	O 	0.00190 0.85060 0.03050 -0.52300
O 	O 	0.81610 0.83700 0.28070 -0.52700
O 	O 	0.16700 0.15940 0.11740 -0.49900
O 	O 	0.87720 0.83260 0.16610 -0.53500
O 	O 	0.09860 0.85400 0.49400 -0.53100
O 	O 	0.27790 0.18940 0.57500 -0.48700
O 	O 	0.15130 0.14940 0.46950 -0.52900
O 	O 	0.97910 0.16300 0.21930 -0.52900
O 	O 	0.00760 0.84060 0.38260 -0.50500
O 	O 	0.04460 0.16740 0.33390 -0.53300
O 	O 	0.75540 0.85400 0.99400 -0.52400
O 	O 	0.91150 0.18940 0.07500 -0.48600
O 	O 	0.99810 0.14940 0.96950 -0.52300
O 	O 	0.18390 0.16300 0.71930 -0.52700
O 	O 	0.83300 0.84060 0.88260 -0.49900
O 	O 	0.12280 0.16740 0.83390 -0.53500
O 	O 	0.90140 0.14600 0.50600 -0.53100
O 	O 	0.72210 0.81060 0.42500 -0.48800
O 	O 	0.84870 0.85060 0.53050 -0.52900
O 	O 	0.02090 0.83700 0.78070 -0.52900
O 	O 	0.99240 0.15940 0.61740 -0.50500
O 	O 	0.95540 0.83260 0.66610 -0.53300
