data_crystal

_cell_length_a 23.95320
_cell_length_b 25.72500
_cell_length_c 14.81410
_cell_angle_alpha 90.00000
_cell_angle_beta  90.00000
_cell_angle_gamma 90.00000

_symmetry_space_group_name_	'P 1'
_symmetry_space_group_name_H-M	'P 1'

loop_
_symmetry_equiv_pos_as_xyz
  x,y,z

loop_
_atom_site_label
_atom_site_type_symbol
_atom_site_fract_x
_atom_site_fract_y
_atom_site_fract_z
_atom_site_charge
Cl	Cl	0.33050 0.31590 0.92870 -0.30900
O 	O 	0.05870 0.48240 0.88790 -0.52500
O 	O 	0.05810 0.42860 0.00530 -0.52400
C 	C 	0.19910 0.35060 0.80610 0.19200
C 	C 	0.18150 0.39470 0.76520 -0.31100
H 	H 	0.19700 0.40500 0.71050 0.10700
C 	C 	0.14050 0.42410 0.80560 0.19500
H 	H 	0.12750 0.45400 0.77710 -0.03900
C 	C 	0.11890 0.41010 0.88620 -0.26200
C 	C 	0.13720 0.36450 0.92730 0.18400
H 	H 	0.12200 0.35410 0.98220 -0.03800
C 	C 	0.17720 0.33550 0.88720 -0.30300
H 	H 	0.18980 0.30520 0.91480 0.06400
C 	C 	0.07450 0.44230 0.92970 0.46200
C 	C 	0.28790 0.27600 0.83980 2.62900
C 	C 	0.31880 0.30340 0.90140 -1.17800
H 	H 	0.32070 0.33950 0.89870 0.54200
C 	C 	0.34690 0.27640 0.96700 0.43100
H 	H 	0.36600 0.29440 0.01180 -0.11100
Cl	Cl	0.83050 0.81590 0.42870 -0.31700
O 	O 	0.55870 0.98240 0.38790 -0.50100
O 	O 	0.55810 0.92860 0.50530 -0.49900
C 	C 	0.69910 0.85060 0.30610 0.19000
C 	C 	0.68150 0.89470 0.26520 -0.29900
H 	H 	0.69700 0.90500 0.21050 0.10800
C 	C 	0.64050 0.92410 0.30560 0.18800
H 	H 	0.62750 0.95400 0.27710 -0.02800
C 	C 	0.61890 0.91010 0.38620 -0.24600
C 	C 	0.63720 0.86450 0.42730 0.17800
H 	H 	0.62200 0.85410 0.48220 -0.02600
C 	C 	0.67720 0.83550 0.38720 -0.29100
H 	H 	0.68980 0.80520 0.41480 0.06400
C 	C 	0.57450 0.94230 0.42970 0.46000
C 	C 	0.78790 0.77600 0.33980 2.63200
C 	C 	0.81880 0.80340 0.40140 -1.16600
H 	H 	0.82070 0.83950 0.39870 0.54800
C 	C 	0.84690 0.77640 0.46700 0.43600
H 	H 	0.86600 0.79440 0.51180 -0.09900
Cl	Cl	0.66950 0.18410 0.92870 -0.30900
O 	O 	0.94130 0.01760 0.88790 -0.46400
O 	O 	0.94190 0.07140 0.00530 -0.46300
C 	C 	0.80090 0.14940 0.80610 0.18500
C 	C 	0.81850 0.10530 0.76520 -0.28800
H 	H 	0.80300 0.09500 0.71050 0.10700
C 	C 	0.85950 0.07590 0.80560 0.17900
H 	H 	0.87250 0.04600 0.77710 -0.01700
C 	C 	0.88110 0.08990 0.88620 -0.22700
C 	C 	0.86280 0.13550 0.92730 0.16900
H 	H 	0.87800 0.14590 0.98220 -0.01400
C 	C 	0.82280 0.16450 0.88720 -0.27900
H 	H 	0.81020 0.19480 0.91480 0.06300
C 	C 	0.92550 0.05770 0.92970 0.45200
C 	C 	0.71210 0.22400 0.83980 2.62900
C 	C 	0.68120 0.19660 0.90140 -1.17600
H 	H 	0.67930 0.16050 0.89870 0.54200
C 	C 	0.65310 0.22360 0.96700 0.43200
H 	H 	0.63400 0.20560 0.01180 -0.11000
Cl	Cl	0.16950 0.68410 0.42870 -0.30200
O 	O 	0.44130 0.51760 0.38790 -0.50100
O 	O 	0.44190 0.57140 0.50530 -0.50000
C 	C 	0.30090 0.64940 0.30610 0.19100
C 	C 	0.31850 0.60530 0.26520 -0.30100
H 	H 	0.30300 0.59500 0.21050 0.10800
C 	C 	0.35950 0.57590 0.30560 0.18900
H 	H 	0.37250 0.54600 0.27710 -0.03000
C 	C 	0.38110 0.58990 0.38620 -0.24800
C 	C 	0.36280 0.63550 0.42730 0.17900
H 	H 	0.37800 0.64590 0.48220 -0.02800
C 	C 	0.32280 0.66450 0.38720 -0.29300
H 	H 	0.31020 0.69480 0.41480 0.06400
C 	C 	0.42550 0.55770 0.42970 0.46000
C 	C 	0.21210 0.72400 0.33980 2.62600
C 	C 	0.18120 0.69660 0.40140 -1.18700
H 	H 	0.17930 0.66050 0.39870 0.53700
C 	C 	0.15310 0.72360 0.46700 0.42700
H 	H 	0.13400 0.70560 0.51180 -0.12100
Cl	Cl	0.66950 0.81590 0.07130 -0.30900
O 	O 	0.94130 0.98240 0.11210 -0.46400
O 	O 	0.94190 0.92860 0.99470 -0.46300
C 	C 	0.80090 0.85060 0.19390 0.18500
C 	C 	0.81850 0.89470 0.23480 -0.28800
H 	H 	0.80300 0.90500 0.28950 0.10700
C 	C 	0.85950 0.92410 0.19440 0.17900
H 	H 	0.87250 0.95400 0.22290 -0.01700
C 	C 	0.88110 0.91010 0.11380 -0.22700
C 	C 	0.86280 0.86450 0.07270 0.16900
H 	H 	0.87800 0.85410 0.01780 -0.01400
C 	C 	0.82280 0.83550 0.11280 -0.27900
H 	H 	0.81020 0.80520 0.08520 0.06300
C 	C 	0.92550 0.94230 0.07030 0.45200
C 	C 	0.71210 0.77600 0.16020 2.62900
C 	C 	0.68120 0.80340 0.09860 -1.17600
H 	H 	0.67930 0.83950 0.10130 0.54200
C 	C 	0.65310 0.77640 0.03300 0.43200
H 	H 	0.63400 0.79440 0.98820 -0.11000
Cl	Cl	0.16950 0.31590 0.57130 -0.30200
O 	O 	0.44130 0.48240 0.61210 -0.50100
O 	O 	0.44190 0.42860 0.49470 -0.50000
C 	C 	0.30090 0.35060 0.69390 0.19100
C 	C 	0.31850 0.39470 0.73480 -0.30100
H 	H 	0.30300 0.40500 0.78950 0.10800
C 	C 	0.35950 0.42410 0.69440 0.18900
H 	H 	0.37250 0.45400 0.72290 -0.03000
C 	C 	0.38110 0.41010 0.61380 -0.24800
C 	C 	0.36280 0.36450 0.57270 0.17900
H 	H 	0.37800 0.35410 0.51780 -0.02800
C 	C 	0.32280 0.33550 0.61280 -0.29300
H 	H 	0.31020 0.30520 0.58520 0.06400
C 	C 	0.42550 0.44230 0.57030 0.46000
C 	C 	0.21210 0.27600 0.66020 2.62600
C 	C 	0.18120 0.30340 0.59860 -1.18700
H 	H 	0.17930 0.33950 0.60130 0.53700
C 	C 	0.15310 0.27640 0.53300 0.42700
H 	H 	0.13400 0.29440 0.48820 -0.12100
Cl	Cl	0.33050 0.68410 0.07130 -0.30800
O 	O 	0.05870 0.51760 0.11210 -0.52400
O 	O 	0.05810 0.57140 0.99470 -0.52300
C 	C 	0.19910 0.64940 0.19390 0.19300
C 	C 	0.18150 0.60530 0.23480 -0.31000
H 	H 	0.19700 0.59500 0.28950 0.10800
C 	C 	0.14050 0.57590 0.19440 0.19500
H 	H 	0.12750 0.54600 0.22290 -0.03900
C 	C 	0.11890 0.58990 0.11380 -0.26200
C 	C 	0.13720 0.63550 0.07270 0.18400
H 	H 	0.12200 0.64590 0.01780 -0.03800
C 	C 	0.17720 0.66450 0.11280 -0.30300
H 	H 	0.18980 0.69480 0.08520 0.06400
C 	C 	0.07450 0.55770 0.07030 0.46200
C 	C 	0.28790 0.72400 0.16020 2.62900
C 	C 	0.31880 0.69660 0.09860 -1.17800
H 	H 	0.32070 0.66050 0.10130 0.54200
C 	C 	0.34690 0.72360 0.03300 0.43100
H 	H 	0.36600 0.70560 0.98820 -0.11100
Cl	Cl	0.83050 0.18410 0.57130 -0.31700
O 	O 	0.55870 0.01760 0.61210 -0.50100
O 	O 	0.55810 0.07140 0.49470 -0.49900
C 	C 	0.69910 0.14940 0.69390 0.19000
C 	C 	0.68150 0.10530 0.73480 -0.29900
H 	H 	0.69700 0.09500 0.78950 0.10800
C 	C 	0.64050 0.07590 0.69440 0.18800
H 	H 	0.62750 0.04600 0.72290 -0.02800
C 	C 	0.61890 0.08990 0.61380 -0.24600
C 	C 	0.63720 0.13550 0.57270 0.17800
H 	H 	0.62200 0.14590 0.51780 -0.02600
C 	C 	0.67720 0.16450 0.61280 -0.29100
H 	H 	0.68980 0.19480 0.58520 0.06400
C 	C 	0.57450 0.05770 0.57030 0.46000
C 	C 	0.78790 0.22400 0.66020 2.63200
C 	C 	0.81880 0.19660 0.59860 -1.16600
H 	H 	0.82070 0.16050 0.60130 0.54800
C 	C 	0.84690 0.22360 0.53300 0.43600
H 	H 	0.86600 0.20560 0.48820 -0.09900
Cl	Cl	0.66950 0.68410 0.07130 -0.30900
O 	O 	0.94130 0.51760 0.11210 -0.46400
O 	O 	0.94190 0.57140 0.99470 -0.46300
C 	C 	0.80090 0.64940 0.19390 0.18500
C 	C 	0.81850 0.60530 0.23480 -0.28700
H 	H 	0.80300 0.59500 0.28950 0.10700
C 	C 	0.85950 0.57590 0.19440 0.17900
H 	H 	0.87250 0.54600 0.22290 -0.01600
C 	C 	0.88110 0.58990 0.11380 -0.22700
C 	C 	0.86280 0.63550 0.07270 0.16900
H 	H 	0.87800 0.64590 0.01780 -0.01400
C 	C 	0.82280 0.66450 0.11280 -0.27900
H 	H 	0.81020 0.69480 0.08520 0.06300
C 	C 	0.92550 0.55770 0.07030 0.45200
C 	C 	0.71210 0.72400 0.16020 2.62900
C 	C 	0.68120 0.69660 0.09860 -1.17600
H 	H 	0.67930 0.66050 0.10130 0.54200
C 	C 	0.65310 0.72360 0.03300 0.43200
H 	H 	0.63400 0.70560 0.98820 -0.11000
Cl	Cl	0.16950 0.18410 0.57130 -0.30200
O 	O 	0.44130 0.01760 0.61210 -0.50100
O 	O 	0.44190 0.07140 0.49470 -0.50000
C 	C 	0.30090 0.14940 0.69390 0.19100
C 	C 	0.31850 0.10530 0.73480 -0.30100
H 	H 	0.30300 0.09500 0.78950 0.10800
C 	C 	0.35950 0.07590 0.69440 0.18900
H 	H 	0.37250 0.04600 0.72290 -0.03000
C 	C 	0.38110 0.08990 0.61380 -0.24800
C 	C 	0.36280 0.13550 0.57270 0.17900
H 	H 	0.37800 0.14590 0.51780 -0.02800
C 	C 	0.32280 0.16450 0.61280 -0.29300
H 	H 	0.31020 0.19480 0.58520 0.06400
C 	C 	0.42550 0.05770 0.57030 0.46000
C 	C 	0.21210 0.22400 0.66020 2.62600
C 	C 	0.18120 0.19660 0.59860 -1.18600
H 	H 	0.17930 0.16050 0.60130 0.53700
C 	C 	0.15310 0.22360 0.53300 0.42700
H 	H 	0.13400 0.20560 0.48820 -0.12100
Cl	Cl	0.33050 0.81590 0.07130 -0.30800
O 	O 	0.05870 0.98240 0.11210 -0.52400
O 	O 	0.05810 0.92860 0.99470 -0.52300
C 	C 	0.19910 0.85060 0.19390 0.19300
C 	C 	0.18150 0.89470 0.23480 -0.31000
H 	H 	0.19700 0.90500 0.28950 0.10800
C 	C 	0.14050 0.92410 0.19440 0.19500
H 	H 	0.12750 0.95400 0.22290 -0.03900
C 	C 	0.11890 0.91010 0.11380 -0.26200
C 	C 	0.13720 0.86450 0.07270 0.18400
H 	H 	0.12200 0.85410 0.01780 -0.03800
C 	C 	0.17720 0.83550 0.11280 -0.30300
H 	H 	0.18980 0.80520 0.08520 0.06400
C 	C 	0.07450 0.94230 0.07030 0.46200
C 	C 	0.28790 0.77600 0.16020 2.62900
C 	C 	0.31880 0.80340 0.09860 -1.17800
H 	H 	0.32070 0.83950 0.10130 0.54200
C 	C 	0.34690 0.77640 0.03300 0.43100
H 	H 	0.36600 0.79440 0.98820 -0.11100
Cl	Cl	0.83050 0.31590 0.57130 -0.31700
O 	O 	0.55870 0.48240 0.61210 -0.50100
O 	O 	0.55810 0.42860 0.49470 -0.49900
C 	C 	0.69910 0.35060 0.69390 0.19000
C 	C 	0.68150 0.39470 0.73480 -0.29900
H 	H 	0.69700 0.40500 0.78950 0.10800
C 	C 	0.64050 0.42410 0.69440 0.18800
H 	H 	0.62750 0.45400 0.72290 -0.02800
C 	C 	0.61890 0.41010 0.61380 -0.24600
C 	C 	0.63720 0.36450 0.57270 0.17800
H 	H 	0.62200 0.35410 0.51780 -0.02600
C 	C 	0.67720 0.33550 0.61280 -0.29100
H 	H 	0.68980 0.30520 0.58520 0.06400
C 	C 	0.57450 0.44230 0.57030 0.46000
C 	C 	0.78790 0.27600 0.66020 2.63200
C 	C 	0.81880 0.30340 0.59860 -1.16600
H 	H 	0.82070 0.33950 0.60130 0.54800
C 	C 	0.84690 0.27640 0.53300 0.43600
H 	H 	0.86600 0.29440 0.48820 -0.09900
Cl	Cl	0.33050 0.18410 0.92870 -0.30800
O 	O 	0.05870 0.01760 0.88790 -0.52400
O 	O 	0.05810 0.07140 0.00530 -0.52300
C 	C 	0.19910 0.14940 0.80610 0.19300
C 	C 	0.18150 0.10530 0.76520 -0.31000
H 	H 	0.19700 0.09500 0.71050 0.10800
C 	C 	0.14050 0.07590 0.80560 0.19500
H 	H 	0.12750 0.04600 0.77710 -0.03900
C 	C 	0.11890 0.08990 0.88620 -0.26200
C 	C 	0.13720 0.13550 0.92730 0.18400
H 	H 	0.12200 0.14590 0.98220 -0.03800
C 	C 	0.17720 0.16450 0.88720 -0.30300
H 	H 	0.18980 0.19480 0.91480 0.06400
C 	C 	0.07450 0.05770 0.92970 0.46200
C 	C 	0.28790 0.22400 0.83980 2.62900
C 	C 	0.31880 0.19660 0.90140 -1.17800
H 	H 	0.32070 0.16050 0.89870 0.54200
C 	C 	0.34690 0.22360 0.96700 0.43100
H 	H 	0.36600 0.20560 0.01180 -0.11100
Cl	Cl	0.83050 0.68410 0.42870 -0.31700
O 	O 	0.55870 0.51760 0.38790 -0.50100
O 	O 	0.55810 0.57140 0.50530 -0.49900
C 	C 	0.69910 0.64940 0.30610 0.19000
C 	C 	0.68150 0.60530 0.26520 -0.29900
H 	H 	0.69700 0.59500 0.21050 0.10800
C 	C 	0.64050 0.57590 0.30560 0.18800
H 	H 	0.62750 0.54600 0.27710 -0.02800
C 	C 	0.61890 0.58990 0.38620 -0.24600
C 	C 	0.63720 0.63550 0.42730 0.17800
H 	H 	0.62200 0.64590 0.48220 -0.02600
C 	C 	0.67720 0.66450 0.38720 -0.29100
H 	H 	0.68980 0.69480 0.41480 0.06400
C 	C 	0.57450 0.55770 0.42970 0.46000
C 	C 	0.78790 0.72400 0.33980 2.63200
C 	C 	0.81880 0.69660 0.40140 -1.16600
H 	H 	0.82070 0.66050 0.39870 0.54800
C 	C 	0.84690 0.72360 0.46700 0.43600
H 	H 	0.86600 0.70560 0.51180 -0.09900
Cl	Cl	0.66950 0.31590 0.92870 -0.30900
O 	O 	0.94130 0.48240 0.88790 -0.46400
O 	O 	0.94190 0.42860 0.00530 -0.46300
C 	C 	0.80090 0.35060 0.80610 0.18500
C 	C 	0.81850 0.39470 0.76520 -0.28700
H 	H 	0.80300 0.40500 0.71050 0.10700
C 	C 	0.85950 0.42410 0.80560 0.17900
H 	H 	0.87250 0.45400 0.77710 -0.01600
C 	C 	0.88110 0.41010 0.88620 -0.22700
C 	C 	0.86280 0.36450 0.92730 0.16900
H 	H 	0.87800 0.35410 0.98220 -0.01400
C 	C 	0.82280 0.33550 0.88720 -0.27900
H 	H 	0.81020 0.30520 0.91480 0.06300
C 	C 	0.92550 0.44230 0.92970 0.45200
C 	C 	0.71210 0.27600 0.83980 2.62900
C 	C 	0.68120 0.30340 0.90140 -1.17600
H 	H 	0.67930 0.33950 0.89870 0.54200
C 	C 	0.65310 0.27640 0.96700 0.43200
H 	H 	0.63400 0.29440 0.01180 -0.11000
Cl	Cl	0.16950 0.81590 0.42870 -0.30200
O 	O 	0.44130 0.98240 0.38790 -0.50100
O 	O 	0.44190 0.92860 0.50530 -0.50000
C 	C 	0.30090 0.85060 0.30610 0.19100
C 	C 	0.31850 0.89470 0.26520 -0.30100
H 	H 	0.30300 0.90500 0.21050 0.10800
C 	C 	0.35950 0.92410 0.30560 0.18900
H 	H 	0.37250 0.95400 0.27710 -0.03000
C 	C 	0.38110 0.91010 0.38620 -0.24800
C 	C 	0.36280 0.86450 0.42730 0.17900
H 	H 	0.37800 0.85410 0.48220 -0.02800
C 	C 	0.32280 0.83550 0.38720 -0.29300
H 	H 	0.31020 0.80520 0.41480 0.06400
C 	C 	0.42550 0.94230 0.42970 0.46000
C 	C 	0.21210 0.77600 0.33980 2.62600
C 	C 	0.18120 0.80340 0.40140 -1.18600
H 	H 	0.17930 0.83950 0.39870 0.53700
C 	C 	0.15310 0.77640 0.46700 0.42700
H 	H 	0.13400 0.79440 0.51180 -0.12100
Pd	Pd	0.20980 0.25000 0.65958 -2.88500
Pd	Pd	0.70980 0.75000 0.15958 -2.88900
Pd	Pd	0.79020 0.25000 0.65958 -2.89300
Pd	Pd	0.29020 0.75000 0.15958 -2.88900
Pd	Pd	0.79020 0.75000 0.34042 -2.89300
Pd	Pd	0.29020 0.25000 0.84042 -2.88900
Pd	Pd	0.20980 0.75000 0.34042 -2.88500
Pd	Pd	0.70980 0.25000 0.84042 -2.88900
P 	P 	0.25000 0.30839 0.75000 -0.91600
P 	P 	0.75000 0.19161 0.75000 -0.91300
P 	P 	0.75000 0.80839 0.25000 -0.91300
P 	P 	0.25000 0.69161 0.25000 -0.91600
P 	P 	0.75000 0.69161 0.25000 -0.91300
P 	P 	0.25000 0.80839 0.25000 -0.91600
P 	P 	0.25000 0.19161 0.75000 -0.91600
P 	P 	0.75000 0.30839 0.75000 -0.91300
Zn	Zn	0.00000 0.53522 0.91921 1.17800
Zn	Zn	0.50000 0.03522 0.41921 1.20400
Zn	Zn	0.00000 0.96478 0.91921 1.17800
Zn	Zn	0.50000 0.46478 0.41921 1.20400
Zn	Zn	0.00000 0.03522 0.08079 1.17800
Zn	Zn	0.50000 0.53522 0.58079 1.20400
Zn	Zn	-0.00000 0.46478 0.08079 1.17800
Zn	Zn	0.50000 0.96478 0.58079 1.20400
