data_crystal

_cell_length_a 24.57400
_cell_length_b 26.50700
_cell_length_c 15.15200
_cell_angle_alpha 90.00000
_cell_angle_beta  90.00000
_cell_angle_gamma 90.00000

_symmetry_space_group_name_	'P 1'
_symmetry_space_group_name_H-M	'P 1'

loop_
_symmetry_equiv_pos_as_xyz
  x,y,z

loop_
_atom_site_label
_atom_site_type_symbol
_atom_site_fract_x
_atom_site_fract_y
_atom_site_fract_z
_atom_site_charge
Cl	Cl	0.33100 0.31400 0.43100 2.25200
O 	O 	0.44100 0.42800 0.99400 -0.46300
O 	O 	0.44100 0.48100 0.11300 -0.48000
C 	C 	0.29900 0.35000 0.19500 0.07300
C 	C 	0.32200 0.33500 0.11100 -0.12900
H 	H 	0.31000 0.30590 0.08320 0.07200
C 	C 	0.36300 0.36500 0.07100 0.03000
H 	H 	0.37760 0.35610 0.01730 0.01900
C 	C 	0.38100 0.41000 0.11300 -0.11400
C 	C 	0.35900 0.42500 0.19600 0.02200
H 	H 	0.37140 0.45410 0.22320 0.01300
C 	C 	0.31800 0.39500 0.23800 -0.12200
H 	H 	0.30380 0.40440 0.29210 0.06200
C 	C 	0.42500 0.44300 0.07100 0.36400
C 	C 	0.28600 0.27700 0.33400 0.65700
C 	C 	0.34500 0.27700 0.46600 -0.24300
C 	C 	0.31600 0.30400 0.40000 -2.34300
H 	H 	0.31570 0.33890 0.40010 -0.01000
H 	H 	0.36410 0.29460 0.50960 -0.11300
Cl	Cl	0.83100 0.81400 0.93100 2.23800
O 	O 	0.94100 0.92800 0.49400 -0.42900
O 	O 	0.94100 0.98100 0.61300 -0.44600
C 	C 	0.79900 0.85000 0.69500 0.07300
C 	C 	0.82200 0.83500 0.61100 -0.12100
H 	H 	0.81000 0.80590 0.58320 0.07400
C 	C 	0.86300 0.86500 0.57100 0.02900
H 	H 	0.87760 0.85610 0.51730 0.03000
C 	C 	0.88100 0.91000 0.61300 -0.09900
C 	C 	0.85900 0.92500 0.69600 0.02000
H 	H 	0.87140 0.95410 0.72320 0.02400
C 	C 	0.81800 0.89500 0.73800 -0.11400
H 	H 	0.80380 0.90440 0.79210 0.06500
C 	C 	0.92500 0.94300 0.57100 0.36200
C 	C 	0.78600 0.77700 0.83400 0.65900
C 	C 	0.84500 0.77700 0.96600 -0.23600
C 	C 	0.81600 0.80400 0.90000 -2.32500
H 	H 	0.81570 0.83890 0.90010 -0.00500
H 	H 	0.86410 0.79460 0.00960 -0.10200
Cl	Cl	0.66900 0.18600 0.43100 2.25200
O 	O 	0.55900 0.07200 0.99400 -0.46100
O 	O 	0.55900 0.01900 0.11300 -0.47800
C 	C 	0.70100 0.15000 0.19500 0.07400
C 	C 	0.67800 0.16500 0.11100 -0.12700
H 	H 	0.69000 0.19410 0.08320 0.07300
C 	C 	0.63700 0.13500 0.07100 0.03200
H 	H 	0.62240 0.14390 0.01730 0.02100
C 	C 	0.61900 0.09000 0.11300 -0.11100
C 	C 	0.64100 0.07500 0.19600 0.02300
H 	H 	0.62860 0.04590 0.22320 0.01500
C 	C 	0.68200 0.10500 0.23800 -0.12000
H 	H 	0.69620 0.09560 0.29210 0.06400
C 	C 	0.57500 0.05700 0.07100 0.36600
C 	C 	0.71400 0.22300 0.33400 0.65700
C 	C 	0.65500 0.22300 0.46600 -0.24100
C 	C 	0.68400 0.19600 0.40000 -2.34100
H 	H 	0.68430 0.16110 0.40010 -0.00900
H 	H 	0.63590 0.20540 0.50960 -0.11100
Cl	Cl	0.16900 0.68600 0.93100 2.26600
O 	O 	0.05900 0.57200 0.49400 -0.48200
O 	O 	0.05900 0.51900 0.61300 -0.50000
C 	C 	0.20100 0.65000 0.69500 0.07400
C 	C 	0.17800 0.66500 0.61100 -0.13400
H 	H 	0.19000 0.69410 0.58320 0.07100
C 	C 	0.13700 0.63500 0.57100 0.03300
H 	H 	0.12240 0.64390 0.51730 0.01200
C 	C 	0.11900 0.59000 0.61300 -0.12200
C 	C 	0.14100 0.57500 0.69600 0.02400
H 	H 	0.12860 0.54590 0.72320 0.00700
C 	C 	0.18200 0.60500 0.73800 -0.12600
H 	H 	0.19620 0.59560 0.79210 0.06200
C 	C 	0.07500 0.55700 0.57100 0.36500
C 	C 	0.21400 0.72300 0.83400 0.65500
C 	C 	0.15500 0.72300 0.96600 -0.24800
C 	C 	0.18400 0.69600 0.90000 -2.35800
H 	H 	0.18430 0.66110 0.90010 -0.01400
H 	H 	0.13590 0.70540 0.00960 -0.12200
Cl	Cl	0.66900 0.81400 0.56900 2.25200
O 	O 	0.55900 0.92800 0.00600 -0.46100
O 	O 	0.55900 0.98100 0.88700 -0.47800
C 	C 	0.70100 0.85000 0.80500 0.07400
C 	C 	0.67800 0.83500 0.88900 -0.12700
H 	H 	0.69000 0.80590 0.91680 0.07300
C 	C 	0.63700 0.86500 0.92900 0.03200
H 	H 	0.62240 0.85610 0.98270 0.02100
C 	C 	0.61900 0.91000 0.88700 -0.11100
C 	C 	0.64100 0.92500 0.80400 0.02300
H 	H 	0.62860 0.95410 0.77680 0.01500
C 	C 	0.68200 0.89500 0.76200 -0.12000
H 	H 	0.69620 0.90440 0.70790 0.06400
C 	C 	0.57500 0.94300 0.92900 0.36600
C 	C 	0.71400 0.77700 0.66600 0.65700
C 	C 	0.65500 0.77700 0.53400 -0.24100
C 	C 	0.68400 0.80400 0.60000 -2.34100
H 	H 	0.68430 0.83890 0.59990 -0.00900
H 	H 	0.63590 0.79460 0.49040 -0.11100
Cl	Cl	0.16900 0.31400 0.06900 2.26600
O 	O 	0.05900 0.42800 0.50600 -0.48200
O 	O 	0.05900 0.48100 0.38700 -0.50000
C 	C 	0.20100 0.35000 0.30500 0.07400
C 	C 	0.17800 0.33500 0.38900 -0.13400
H 	H 	0.19000 0.30590 0.41680 0.07100
C 	C 	0.13700 0.36500 0.42900 0.03300
H 	H 	0.12240 0.35610 0.48270 0.01200
C 	C 	0.11900 0.41000 0.38700 -0.12200
C 	C 	0.14100 0.42500 0.30400 0.02400
H 	H 	0.12860 0.45410 0.27680 0.00700
C 	C 	0.18200 0.39500 0.26200 -0.12600
H 	H 	0.19620 0.40440 0.20790 0.06200
C 	C 	0.07500 0.44300 0.42900 0.36500
C 	C 	0.21400 0.27700 0.16600 0.65500
C 	C 	0.15500 0.27700 0.03400 -0.24800
C 	C 	0.18400 0.30400 0.10000 -2.35800
H 	H 	0.18430 0.33890 0.09990 -0.01400
H 	H 	0.13590 0.29460 0.99040 -0.12200
Cl	Cl	0.33100 0.68600 0.56900 2.25300
O 	O 	0.44100 0.57200 0.00600 -0.46200
O 	O 	0.44100 0.51900 0.88700 -0.47900
C 	C 	0.29900 0.65000 0.80500 0.07400
C 	C 	0.32200 0.66500 0.88900 -0.12800
H 	H 	0.31000 0.69410 0.91680 0.07300
C 	C 	0.36300 0.63500 0.92900 0.03100
H 	H 	0.37760 0.64390 0.98270 0.02000
C 	C 	0.38100 0.59000 0.88700 -0.11300
C 	C 	0.35900 0.57500 0.80400 0.02300
H 	H 	0.37140 0.54590 0.77680 0.01400
C 	C 	0.31800 0.60500 0.76200 -0.12100
H 	H 	0.30380 0.59560 0.70790 0.06300
C 	C 	0.42500 0.55700 0.92900 0.36500
C 	C 	0.28600 0.72300 0.66600 0.65700
C 	C 	0.34500 0.72300 0.53400 -0.24300
C 	C 	0.31600 0.69600 0.60000 -2.34300
H 	H 	0.31570 0.66110 0.59990 -0.01000
H 	H 	0.36410 0.70540 0.49040 -0.11300
Cl	Cl	0.83100 0.18600 0.06900 2.23800
O 	O 	0.94100 0.07200 0.50600 -0.42900
O 	O 	0.94100 0.01900 0.38700 -0.44600
C 	C 	0.79900 0.15000 0.30500 0.07300
C 	C 	0.82200 0.16500 0.38900 -0.12100
H 	H 	0.81000 0.19410 0.41680 0.07400
C 	C 	0.86300 0.13500 0.42900 0.02900
H 	H 	0.87760 0.14390 0.48270 0.03000
C 	C 	0.88100 0.09000 0.38700 -0.09900
C 	C 	0.85900 0.07500 0.30400 0.02000
H 	H 	0.87140 0.04590 0.27680 0.02400
C 	C 	0.81800 0.10500 0.26200 -0.11400
H 	H 	0.80380 0.09560 0.20790 0.06500
C 	C 	0.92500 0.05700 0.42900 0.36200
C 	C 	0.78600 0.22300 0.16600 0.65900
C 	C 	0.84500 0.22300 0.03400 -0.23600
C 	C 	0.81600 0.19600 0.10000 -2.32500
H 	H 	0.81570 0.16110 0.09990 -0.00500
H 	H 	0.86410 0.20540 0.99040 -0.10200
Cl	Cl	0.66900 0.68600 0.56900 2.25200
O 	O 	0.55900 0.57200 0.00600 -0.46100
O 	O 	0.55900 0.51900 0.88700 -0.47800
C 	C 	0.70100 0.65000 0.80500 0.07400
C 	C 	0.67800 0.66500 0.88900 -0.12700
H 	H 	0.69000 0.69410 0.91680 0.07300
C 	C 	0.63700 0.63500 0.92900 0.03200
H 	H 	0.62240 0.64390 0.98270 0.02100
C 	C 	0.61900 0.59000 0.88700 -0.11100
C 	C 	0.64100 0.57500 0.80400 0.02300
H 	H 	0.62860 0.54590 0.77680 0.01500
C 	C 	0.68200 0.60500 0.76200 -0.12000
H 	H 	0.69620 0.59560 0.70790 0.06400
C 	C 	0.57500 0.55700 0.92900 0.36600
C 	C 	0.71400 0.72300 0.66600 0.65700
C 	C 	0.65500 0.72300 0.53400 -0.24100
C 	C 	0.68400 0.69600 0.60000 -2.34100
H 	H 	0.68430 0.66110 0.59990 -0.00900
H 	H 	0.63590 0.70540 0.49040 -0.11100
Cl	Cl	0.16900 0.18600 0.06900 2.26600
O 	O 	0.05900 0.07200 0.50600 -0.48200
O 	O 	0.05900 0.01900 0.38700 -0.49900
C 	C 	0.20100 0.15000 0.30500 0.07400
C 	C 	0.17800 0.16500 0.38900 -0.13300
H 	H 	0.19000 0.19410 0.41680 0.07100
C 	C 	0.13700 0.13500 0.42900 0.03300
H 	H 	0.12240 0.14390 0.48270 0.01200
C 	C 	0.11900 0.09000 0.38700 -0.12200
C 	C 	0.14100 0.07500 0.30400 0.02400
H 	H 	0.12860 0.04590 0.27680 0.00700
C 	C 	0.18200 0.10500 0.26200 -0.12600
H 	H 	0.19620 0.09560 0.20790 0.06200
C 	C 	0.07500 0.05700 0.42900 0.36500
C 	C 	0.21400 0.22300 0.16600 0.65500
C 	C 	0.15500 0.22300 0.03400 -0.24800
C 	C 	0.18400 0.19600 0.10000 -2.35800
H 	H 	0.18430 0.16110 0.09990 -0.01400
H 	H 	0.13590 0.20540 0.99040 -0.12200
Cl	Cl	0.33100 0.81400 0.56900 2.25300
O 	O 	0.44100 0.92800 0.00600 -0.46200
O 	O 	0.44100 0.98100 0.88700 -0.47900
C 	C 	0.29900 0.85000 0.80500 0.07400
C 	C 	0.32200 0.83500 0.88900 -0.12800
H 	H 	0.31000 0.80590 0.91680 0.07300
C 	C 	0.36300 0.86500 0.92900 0.03100
H 	H 	0.37760 0.85610 0.98270 0.02000
C 	C 	0.38100 0.91000 0.88700 -0.11200
C 	C 	0.35900 0.92500 0.80400 0.02300
H 	H 	0.37140 0.95410 0.77680 0.01400
C 	C 	0.31800 0.89500 0.76200 -0.12100
H 	H 	0.30380 0.90440 0.70790 0.06300
C 	C 	0.42500 0.94300 0.92900 0.36500
C 	C 	0.28600 0.77700 0.66600 0.65700
C 	C 	0.34500 0.77700 0.53400 -0.24300
C 	C 	0.31600 0.80400 0.60000 -2.34300
H 	H 	0.31570 0.83890 0.59990 -0.01000
H 	H 	0.36410 0.79460 0.49040 -0.11300
Cl	Cl	0.83100 0.31400 0.06900 2.23800
O 	O 	0.94100 0.42800 0.50600 -0.42800
O 	O 	0.94100 0.48100 0.38700 -0.44600
C 	C 	0.79900 0.35000 0.30500 0.07300
C 	C 	0.82200 0.33500 0.38900 -0.12100
H 	H 	0.81000 0.30590 0.41680 0.07400
C 	C 	0.86300 0.36500 0.42900 0.02900
H 	H 	0.87760 0.35610 0.48270 0.03000
C 	C 	0.88100 0.41000 0.38700 -0.09900
C 	C 	0.85900 0.42500 0.30400 0.02000
H 	H 	0.87140 0.45410 0.27680 0.02400
C 	C 	0.81800 0.39500 0.26200 -0.11400
H 	H 	0.80380 0.40440 0.20790 0.06500
C 	C 	0.92500 0.44300 0.42900 0.36200
C 	C 	0.78600 0.27700 0.16600 0.65900
C 	C 	0.84500 0.27700 0.03400 -0.23600
C 	C 	0.81600 0.30400 0.10000 -2.32500
H 	H 	0.81570 0.33890 0.09990 -0.00500
H 	H 	0.86410 0.29460 0.99040 -0.10200
Cl	Cl	0.33100 0.18600 0.43100 2.25300
O 	O 	0.44100 0.07200 0.99400 -0.46200
O 	O 	0.44100 0.01900 0.11300 -0.47900
C 	C 	0.29900 0.15000 0.19500 0.07400
C 	C 	0.32200 0.16500 0.11100 -0.12800
H 	H 	0.31000 0.19410 0.08320 0.07300
C 	C 	0.36300 0.13500 0.07100 0.03100
H 	H 	0.37760 0.14390 0.01730 0.02000
C 	C 	0.38100 0.09000 0.11300 -0.11200
C 	C 	0.35900 0.07500 0.19600 0.02300
H 	H 	0.37140 0.04590 0.22320 0.01400
C 	C 	0.31800 0.10500 0.23800 -0.12100
H 	H 	0.30380 0.09560 0.29210 0.06300
C 	C 	0.42500 0.05700 0.07100 0.36500
C 	C 	0.28600 0.22300 0.33400 0.65700
C 	C 	0.34500 0.22300 0.46600 -0.24300
C 	C 	0.31600 0.19600 0.40000 -2.34300
H 	H 	0.31570 0.16110 0.40010 -0.01000
H 	H 	0.36410 0.20540 0.50960 -0.11300
Cl	Cl	0.83100 0.68600 0.93100 2.23800
O 	O 	0.94100 0.57200 0.49400 -0.42800
O 	O 	0.94100 0.51900 0.61300 -0.44600
C 	C 	0.79900 0.65000 0.69500 0.07300
C 	C 	0.82200 0.66500 0.61100 -0.12100
H 	H 	0.81000 0.69410 0.58320 0.07400
C 	C 	0.86300 0.63500 0.57100 0.02900
H 	H 	0.87760 0.64390 0.51730 0.03000
C 	C 	0.88100 0.59000 0.61300 -0.09900
C 	C 	0.85900 0.57500 0.69600 0.02000
H 	H 	0.87140 0.54590 0.72320 0.02400
C 	C 	0.81800 0.60500 0.73800 -0.11400
H 	H 	0.80380 0.59560 0.79210 0.06500
C 	C 	0.92500 0.55700 0.57100 0.36200
C 	C 	0.78600 0.72300 0.83400 0.65900
C 	C 	0.84500 0.72300 0.96600 -0.23600
C 	C 	0.81600 0.69600 0.90000 -2.32500
H 	H 	0.81570 0.66110 0.90010 -0.00500
H 	H 	0.86410 0.70540 0.00960 -0.10200
Cl	Cl	0.66900 0.31400 0.43100 2.25200
O 	O 	0.55900 0.42800 0.99400 -0.46100
O 	O 	0.55900 0.48100 0.11300 -0.47800
C 	C 	0.70100 0.35000 0.19500 0.07400
C 	C 	0.67800 0.33500 0.11100 -0.12700
H 	H 	0.69000 0.30590 0.08320 0.07300
C 	C 	0.63700 0.36500 0.07100 0.03200
H 	H 	0.62240 0.35610 0.01730 0.02100
C 	C 	0.61900 0.41000 0.11300 -0.11100
C 	C 	0.64100 0.42500 0.19600 0.02300
H 	H 	0.62860 0.45410 0.22320 0.01500
C 	C 	0.68200 0.39500 0.23800 -0.12000
H 	H 	0.69620 0.40440 0.29210 0.06400
C 	C 	0.57500 0.44300 0.07100 0.36600
C 	C 	0.71400 0.27700 0.33400 0.65700
C 	C 	0.65500 0.27700 0.46600 -0.24100
C 	C 	0.68400 0.30400 0.40000 -2.34100
H 	H 	0.68430 0.33890 0.40010 -0.00900
H 	H 	0.63590 0.29460 0.50960 -0.11100
Cl	Cl	0.16900 0.81400 0.93100 2.26600
O 	O 	0.05900 0.92800 0.49400 -0.48200
O 	O 	0.05900 0.98100 0.61300 -0.49900
C 	C 	0.20100 0.85000 0.69500 0.07400
C 	C 	0.17800 0.83500 0.61100 -0.13300
H 	H 	0.19000 0.80590 0.58320 0.07100
C 	C 	0.13700 0.86500 0.57100 0.03300
H 	H 	0.12240 0.85610 0.51730 0.01200
C 	C 	0.11900 0.91000 0.61300 -0.12200
C 	C 	0.14100 0.92500 0.69600 0.02400
H 	H 	0.12860 0.95410 0.72320 0.00700
C 	C 	0.18200 0.89500 0.73800 -0.12600
H 	H 	0.19620 0.90440 0.79210 0.06200
C 	C 	0.07500 0.94300 0.57100 0.36500
C 	C 	0.21400 0.77700 0.83400 0.65500
C 	C 	0.15500 0.77700 0.96600 -0.24800
C 	C 	0.18400 0.80400 0.90000 -2.35800
H 	H 	0.18430 0.83890 0.90010 -0.01400
H 	H 	0.13590 0.79460 0.00960 -0.12200
Pt	Pt	0.20940 0.25000 0.15950 -0.16400
Pt	Pt	0.70940 0.75000 0.65950 -0.16900
Pt	Pt	0.79060 0.25000 0.15950 -0.17300
Pt	Pt	0.29060 0.75000 0.65950 -0.16800
Pt	Pt	0.79060 0.75000 0.84050 -0.17300
Pt	Pt	0.29060 0.25000 0.34050 -0.16800
Pt	Pt	0.20940 0.75000 0.84050 -0.16400
Pt	Pt	0.70940 0.25000 0.34050 -0.16900
Zn	Zn	0.50000 0.46510 0.91880 1.18100
Zn	Zn	0.00000 0.96510 0.41880 1.15700
Zn	Zn	0.50000 0.03490 0.91880 1.18100
Zn	Zn	0.00000 0.53490 0.41880 1.15600
Zn	Zn	0.50000 0.96510 0.08120 1.18100
Zn	Zn	0.00000 0.46510 0.58120 1.15600
Zn	Zn	0.50000 0.53490 0.08120 1.18100
Zn	Zn	0.00000 0.03490 0.58120 1.15700
P 	P 	0.25000 0.30860 0.25000 -0.15000
P 	P 	0.75000 0.19140 0.25000 -0.14800
P 	P 	0.75000 0.80860 0.75000 -0.14800
P 	P 	0.25000 0.69140 0.75000 -0.15000
P 	P 	0.75000 0.69140 0.75000 -0.14800
P 	P 	0.25000 0.19140 0.25000 -0.15000
P 	P 	0.25000 0.80860 0.75000 -0.15000
P 	P 	0.75000 0.30860 0.25000 -0.14800
