data_crystal

_cell_length_a 13.30200
_cell_length_b 13.35200
_cell_length_c 19.89400
_cell_angle_alpha 95.63000
_cell_angle_beta  104.80000
_cell_angle_gamma 117.75000

_symmetry_space_group_name_	'P 1'
_symmetry_space_group_name_H-M	'P 1'

loop_
_symmetry_equiv_pos_as_xyz
  x,y,z

loop_
_atom_site_label
_atom_site_type_symbol
_atom_site_fract_x
_atom_site_fract_y
_atom_site_fract_z
_atom_site_charge
Gd	Gd	0.66186 0.94605 0.59540 1.75300
Gd	Gd	0.81987 0.03774 0.90470 1.71700
Cu	Cu	0.77260 0.00226 0.24741 0.89000
Cu	Cu	0.74359 0.48346 0.75072 0.88800
Cl	Cl	0.93926 0.59707 0.74292 -0.47800
P 	P 	0.86940 0.07330 0.49879 0.45900
P 	P 	0.63815 0.19729 0.54283 0.50400
Cl	Cl	0.64510 0.80416 0.24565 -0.48800
P 	P 	0.87873 0.80311 0.94609 0.49000
P 	P 	0.46318 0.08922 0.25632 0.49900
P 	P 	0.05787 0.88314 0.24193 0.50800
P 	P 	0.61770 0.87050 0.99508 0.46600
P 	P 	0.61040 0.65315 0.57958 0.45600
P 	P 	0.89420 0.34176 0.93390 0.44700
O 	O 	0.00830 0.86690 0.99580 -0.42800
O 	O 	0.51420 0.17070 0.50050 -0.43200
O 	O 	0.15900 0.95140 0.31280 -0.44400
O 	O 	0.66130 0.77910 0.61330 -0.42700
O 	O 	0.43160 0.06070 0.32156 -0.43900
O 	O 	0.83830 0.87510 0.90570 -0.43100
O 	O 	0.08360 0.91960 0.17640 -0.44500
O 	O 	0.82340 0.21030 0.90840 -0.42000
O 	O 	0.71080 0.97480 0.97890 -0.41600
O 	O 	0.54326 0.22420 0.26940 -0.22300
O 	O 	0.60130 0.75390 0.96370 -0.21900
O 	O 	0.64480 0.10100 0.57420 -0.44800
O 	O 	0.77850 0.98140 0.52400 -0.41700
O 	O 	0.01270 0.74900 0.23010 -0.22900
O 	O 	0.36150 0.04349 0.18660 -0.43500
O 	O 	0.71940 0.23430 0.49490 -0.21700
O 	O 	0.64980 0.64430 0.51250 -0.21500
O 	O 	0.99370 0.08410 0.52500 -0.21200
O 	O 	0.79220 0.74060 0.98800 -0.21600
O 	O 	0.47540 0.57460 0.55880 -0.21800
O 	O 	0.86370 0.39130 0.99260 -0.22000
O 	O 	0.49780 0.86780 0.97200 -0.22700
N 	N 	0.64240 0.54500 0.69410 -0.13800
O 	O 	0.88680 0.19400 0.51850 -0.21600
N 	N 	0.63920 0.33440 0.66140 -0.13100
N 	N 	0.74470 0.57810 0.84410 -0.12400
N 	N 	0.75540 0.37230 0.81160 -0.14200
O 	O 	0.03210 0.38580 0.95860 -0.20700
C 	C 	0.67480 0.37180 0.85130 -0.11000
H 	H 	0.59350 0.33930 0.81770 0.06900
H 	H 	0.67200 0.32290 0.88460 0.08900
N 	N 	0.68080 0.09510 0.24860 -0.15700
C 	C 	0.87780 0.40890 0.85860 -0.22500
H 	H 	0.92020 0.49290 0.87820 0.11100
H 	H 	0.91930 0.39400 0.82880 0.12500
C 	C 	0.55690 0.02410 0.24670 -0.19500
H 	H 	0.51290 0.96490 0.20130 0.08400
H 	H 	0.55960 0.98330 0.28420 0.08100
C 	C 	0.52350 0.43370 0.66480 -0.13500
H 	H 	0.46280 0.44760 0.63580 0.11500
H 	H 	0.49850 0.40490 0.70410 0.07600
N 	N 	0.92900 0.00210 0.24540 -0.14400
C 	C 	0.92690 0.89090 0.24620 -0.24900
H 	H 	0.91320 0.87020 0.28970 0.12500
H 	H 	0.85740 0.83100 0.20600 0.12500
C 	C 	0.80800 0.01530 0.40120 -0.22500
H 	H 	0.80930 0.94340 0.39110 0.11900
H 	H 	0.72370 0.99390 0.38550 0.09800
C 	C 	0.86310 0.68860 0.87840 -0.23400
H 	H 	0.92210 0.66760 0.90040 0.10900
H 	H 	0.88610 0.72320 0.84020 0.09800
C 	C 	0.53390 0.34280 0.61910 -0.08500
H 	H 	0.54530 0.36520 0.57560 0.08300
H 	H 	0.46020 0.26730 0.60560 0.07500
C 	C 	0.71110 0.32830 0.61690 -0.24600
H 	H 	0.73550 0.39590 0.59700 0.11800
H 	H 	0.78420 0.33510 0.64840 0.11800
C 	C 	0.59940 0.23590 0.69580 -0.12100
H 	H 	0.53270 0.22820 0.71060 0.07700
H 	H 	0.57110 0.16370 0.66140 0.07600
C 	C 	0.70150 0.25540 0.76040 -0.08600
H 	H 	0.76340 0.25180 0.74480 0.06000
H 	H 	0.67150 0.19390 0.78480 0.06200
N 	N 	0.74410 0.00500 0.14200 -0.13800
C 	C 	0.64110 0.59470 0.81610 -0.12300
H 	H 	0.64650 0.65450 0.85110 0.10300
H 	H 	0.56640 0.52240 0.80800 0.07800
N 	N 	0.86480 0.08810 0.35470 -0.11300
C 	C 	0.72080 0.49600 0.89270 -0.12500
H 	H 	0.66120 0.49630 0.91220 0.09900
H 	H 	0.79480 0.52280 0.93260 0.10700
C 	C 	0.63990 0.63120 0.74550 -0.08900
H 	H 	0.56770 0.63520 0.72530 0.08500
H 	H 	0.70980 0.70820 0.75440 0.06100
C 	C 	0.68940 0.59690 0.63810 -0.22700
H 	H 	0.69260 0.53780 0.60770 0.10900
H 	H 	0.77210 0.66050 0.66230 0.10400
C 	C 	0.66280 0.88760 0.09200 -0.24000
H 	H 	0.58930 0.85200 0.10370 0.11100
H 	H 	0.70080 0.84160 0.10290 0.11700
C 	C 	0.02080 0.10050 0.29840 -0.02100
H 	H 	0.02900 0.17010 0.28350 0.03000
H 	H 	0.09670 0.10220 0.30630 0.04600
C 	C 	0.69100 0.14500 0.18770 -0.09400
H 	H 	0.76680 0.21900 0.20370 0.07800
H 	H 	0.62650 0.16200 0.17290 0.09200
C 	C 	0.99450 0.09910 0.36210 -0.18500
H 	H 	0.05780 0.17040 0.39820 0.11000
H 	H 	0.99560 0.03390 0.37920 0.10900
C 	C 	0.92820 0.02200 0.16480 -0.09700
H 	H 	0.89590 0.94700 0.13190 0.06700
H 	H 	0.01090 0.07180 0.16700 0.06100
C 	C 	0.86210 0.07120 0.13810 -0.08200
H 	H 	0.85650 0.07170 0.08860 0.07100
H 	H 	0.90110 0.15140 0.16590 0.05300
C 	C 	0.75890 0.18650 0.32460 0.09600
C 	C 	0.68700 0.07940 0.12850 -0.11500
H 	H 	0.72590 0.13200 0.10110 0.08900
H 	H 	0.60260 0.02810 0.09850 0.09300
C 	C 	0.86270 0.19350 0.35760 -0.24900
H 	H 	0.88990 0.23310 0.40780 0.14900
H 	H 	0.92150 0.24310 0.33750 0.12000
Gd	Gd	0.33814 0.05395 0.40460 1.75400
Gd	Gd	0.18013 0.96226 0.09530 1.71800
Cu	Cu	0.22740 0.99774 0.75259 0.89100
Cu	Cu	0.25641 0.51654 0.24928 0.88900
Cl	Cl	0.06074 0.40293 0.25708 -0.47700
P 	P 	0.13060 0.92670 0.50121 0.46000
P 	P 	0.36185 0.80271 0.45717 0.50500
Cl	Cl	0.35490 0.19584 0.75435 -0.48700
P 	P 	0.12127 0.19689 0.05391 0.49000
P 	P 	0.53682 0.91078 0.74368 0.49900
P 	P 	0.94213 0.11686 0.75807 0.50800
P 	P 	0.38230 0.12950 0.00492 0.46600
P 	P 	0.38960 0.34685 0.42042 0.45600
P 	P 	0.10580 0.65824 0.06610 0.44700
O 	O 	0.99170 0.13310 0.00420 -0.42800
O 	O 	0.48580 0.82930 0.49950 -0.43200
O 	O 	0.84100 0.04860 0.68720 -0.44400
O 	O 	0.33870 0.22090 0.38670 -0.42700
O 	O 	0.56840 0.93930 0.67844 -0.43900
O 	O 	0.16170 0.12490 0.09430 -0.43100
O 	O 	0.91640 0.08040 0.82360 -0.44500
O 	O 	0.17660 0.78970 0.09160 -0.42000
O 	O 	0.28920 0.02520 0.02110 -0.41600
O 	O 	0.45674 0.77580 0.73060 -0.22300
O 	O 	0.39870 0.24610 0.03630 -0.21900
O 	O 	0.35520 0.89900 0.42580 -0.44800
O 	O 	0.22150 0.01860 0.47600 -0.41700
O 	O 	0.98730 0.25100 0.76990 -0.22900
O 	O 	0.63850 0.95651 0.81340 -0.43500
O 	O 	0.28060 0.76570 0.50510 -0.21700
O 	O 	0.35020 0.35570 0.48750 -0.21500
O 	O 	0.00630 0.91590 0.47500 -0.21200
O 	O 	0.20780 0.25940 0.01200 -0.21600
O 	O 	0.52460 0.42540 0.44120 -0.21800
O 	O 	0.13630 0.60870 0.00740 -0.22000
O 	O 	0.50220 0.13220 0.02800 -0.22700
N 	N 	0.35760 0.45500 0.30590 -0.13800
O 	O 	0.11320 0.80600 0.48150 -0.21600
N 	N 	0.36080 0.66560 0.33860 -0.13100
N 	N 	0.25530 0.42190 0.15590 -0.12400
N 	N 	0.24460 0.62770 0.18840 -0.14200
O 	O 	0.96790 0.61420 0.04140 -0.20700
C 	C 	0.32520 0.62820 0.14870 -0.11000
H 	H 	0.40650 0.66070 0.18230 0.06900
H 	H 	0.32800 0.67710 0.11540 0.08900
N 	N 	0.31920 0.90490 0.75140 -0.15700
C 	C 	0.12220 0.59110 0.14140 -0.22500
H 	H 	0.07980 0.50710 0.12180 0.11100
H 	H 	0.08070 0.60600 0.17120 0.12500
C 	C 	0.44310 0.97590 0.75330 -0.19500
H 	H 	0.48710 0.03510 0.79870 0.08400
H 	H 	0.44040 0.01670 0.71580 0.08100
C 	C 	0.47650 0.56630 0.33520 -0.13500
H 	H 	0.53720 0.55240 0.36420 0.11500
H 	H 	0.50150 0.59510 0.29590 0.07600
N 	N 	0.07100 0.99790 0.75460 -0.14400
C 	C 	0.07310 0.10910 0.75380 -0.24900
H 	H 	0.08680 0.12980 0.71030 0.12500
H 	H 	0.14260 0.16900 0.79400 0.12500
C 	C 	0.19200 0.98470 0.59880 -0.22500
H 	H 	0.19070 0.05660 0.60890 0.11900
H 	H 	0.27630 0.00610 0.61450 0.09800
C 	C 	0.13690 0.31140 0.12160 -0.23400
H 	H 	0.07790 0.33240 0.09960 0.10900
H 	H 	0.11390 0.27680 0.15980 0.09800
C 	C 	0.46610 0.65720 0.38090 -0.08500
H 	H 	0.45470 0.63480 0.42440 0.08300
H 	H 	0.53980 0.73270 0.39440 0.07500
C 	C 	0.28890 0.67170 0.38310 -0.24600
H 	H 	0.26450 0.60410 0.40300 0.11800
H 	H 	0.21580 0.66490 0.35160 0.11800
C 	C 	0.40060 0.76410 0.30420 -0.12100
H 	H 	0.46730 0.77180 0.28940 0.07700
H 	H 	0.42890 0.83630 0.33860 0.07600
C 	C 	0.29850 0.74460 0.23960 -0.08600
H 	H 	0.23660 0.74820 0.25520 0.06000
H 	H 	0.32850 0.80610 0.21520 0.06200
N 	N 	0.25590 0.99500 0.85800 -0.13800
C 	C 	0.35890 0.40530 0.18390 -0.12300
H 	H 	0.35350 0.34550 0.14890 0.10300
H 	H 	0.43360 0.47760 0.19200 0.07800
N 	N 	0.13520 0.91190 0.64530 -0.11300
C 	C 	0.27920 0.50400 0.10730 -0.12500
H 	H 	0.33880 0.50370 0.08780 0.09900
H 	H 	0.20520 0.47720 0.06740 0.10700
C 	C 	0.36010 0.36880 0.25450 -0.08900
H 	H 	0.43230 0.36480 0.27470 0.08500
H 	H 	0.29020 0.29180 0.24560 0.06100
C 	C 	0.31060 0.40310 0.36190 -0.22700
H 	H 	0.30740 0.46220 0.39230 0.10900
H 	H 	0.22790 0.33950 0.33770 0.10400
C 	C 	0.33720 0.11240 0.90800 -0.24000
H 	H 	0.41070 0.14800 0.89630 0.11100
H 	H 	0.29920 0.15840 0.89710 0.11700
C 	C 	0.97920 0.89950 0.70160 -0.02100
H 	H 	0.97100 0.82990 0.71650 0.03000
H 	H 	0.90330 0.89780 0.69370 0.04600
C 	C 	0.30900 0.85500 0.81230 -0.09400
H 	H 	0.23320 0.78100 0.79630 0.07800
H 	H 	0.37350 0.83800 0.82710 0.09200
C 	C 	0.00550 0.90090 0.63790 -0.18500
H 	H 	0.94220 0.82960 0.60180 0.11000
H 	H 	0.00440 0.96610 0.62080 0.10900
C 	C 	0.07180 0.97800 0.83520 -0.09700
H 	H 	0.10410 0.05300 0.86810 0.06700
H 	H 	0.98910 0.92820 0.83300 0.06100
C 	C 	0.13790 0.92880 0.86190 -0.08200
H 	H 	0.14350 0.92830 0.91140 0.07100
H 	H 	0.09890 0.84860 0.83410 0.05300
C 	C 	0.24110 0.81350 0.67540 0.09600
C 	C 	0.31300 0.92060 0.87150 -0.11500
H 	H 	0.27410 0.86800 0.89890 0.08900
H 	H 	0.39740 0.97190 0.90150 0.09300
C 	C 	0.13730 0.80650 0.64240 -0.24900
H 	H 	0.11010 0.76690 0.59220 0.14900
H 	H 	0.07850 0.75690 0.66250 0.12000
