data_crystal

_cell_length_a 9.24100
_cell_length_b 9.55450
_cell_length_c 21.60260
_cell_angle_alpha 90.00000
_cell_angle_beta  90.00000
_cell_angle_gamma 116.15100

_symmetry_space_group_name_	'P 1'
_symmetry_space_group_name_H-M	'P 1'

loop_
_symmetry_equiv_pos_as_xyz
  x,y,z

loop_
_atom_site_label
_atom_site_type_symbol
_atom_site_fract_x
_atom_site_fract_y
_atom_site_fract_z
_atom_site_charge
Eu	Eu	0.12381 0.85880 0.49151 2.13200
Eu	Eu	0.37619 0.14120 0.99151 2.11200
Eu	Eu	0.87619 0.14120 0.50849 2.13100
Eu	Eu	0.62381 0.85880 0.00849 2.11100
Cu	Cu	0.04049 0.19135 0.85427 0.85100
Cu	Cu	0.45951 0.80865 0.35427 0.85200
Cu	Cu	0.95951 0.80865 0.14573 0.85100
Cu	Cu	0.54049 0.19135 0.64573 0.85200
H 	H 	0.99640 0.15410 0.72360 -0.02700
H 	H 	0.10540 0.81540 0.66640 -0.00900
H 	H 	0.14870 0.77250 0.76870 0.09400
H 	H 	0.12240 0.92560 0.84490 -0.01400
H 	H 	0.79310 0.29760 0.84380 -0.04200
H 	H 	0.74600 0.50290 0.87470 0.11600
H 	H 	0.93940 0.70300 0.93040 -0.01100
H 	H 	0.20770 0.47160 0.92970 -0.02400
H 	H 	0.50360 0.84590 0.22360 -0.02800
H 	H 	0.39460 0.18460 0.16640 -0.00700
H 	H 	0.35130 0.22750 0.26870 0.09200
H 	H 	0.37760 0.07440 0.34490 -0.01400
H 	H 	0.70690 0.70240 0.34380 -0.04300
H 	H 	0.75400 0.49710 0.37470 0.11700
H 	H 	0.56060 0.29700 0.43040 -0.01400
H 	H 	0.29230 0.52840 0.42970 -0.02500
H 	H 	0.00360 0.84590 0.27640 -0.02700
H 	H 	0.89460 0.18460 0.33360 -0.00900
H 	H 	0.85130 0.22750 0.23130 0.09400
H 	H 	0.87760 0.07440 0.15510 -0.01400
H 	H 	0.20690 0.70240 0.15620 -0.04200
H 	H 	0.25400 0.49710 0.12530 0.11600
H 	H 	0.06060 0.29700 0.06960 -0.01100
H 	H 	0.79230 0.52840 0.07030 -0.02400
H 	H 	0.49640 0.15410 0.77640 -0.02800
H 	H 	0.60540 0.81540 0.83360 -0.00700
H 	H 	0.64870 0.77250 0.73130 0.09200
H 	H 	0.62240 0.92560 0.65510 -0.01400
H 	H 	0.29310 0.29760 0.65620 -0.04300
H 	H 	0.24600 0.50290 0.62530 0.11700
H 	H 	0.43940 0.70300 0.56960 -0.01400
H 	H 	0.70770 0.47160 0.57030 -0.02500
C 	C 	0.02940 0.07750 0.73270 0.09800
C 	C 	0.04640 0.99200 0.68440 -0.20800
C 	C 	0.09270 0.87550 0.69780 0.10900
C 	C 	0.11930 0.85100 0.75850 -0.19100
C 	C 	0.10230 0.94280 0.80420 0.11600
C 	C 	0.01150 0.02620 0.61990 0.47900
C 	C 	0.87050 0.37610 0.86760 0.11500
C 	C 	0.84200 0.49980 0.88530 -0.20400
C 	C 	0.95590 0.61740 0.91860 0.14200
C 	C 	0.09650 0.60900 0.93490 -0.21600
C 	C 	0.11520 0.47950 0.91730 0.12700
C 	C 	0.22860 0.74130 0.97000 0.49600
C 	C 	0.98820 0.49190 0.46480 0.25900
C 	C 	0.99700 0.02310 0.96580 0.25000
C 	C 	0.47060 0.92250 0.23270 0.09700
C 	C 	0.45360 0.00800 0.18440 -0.20400
C 	C 	0.40730 0.12450 0.19780 0.10500
C 	C 	0.38070 0.14900 0.25850 -0.18700
C 	C 	0.39770 0.05720 0.30420 0.11100
C 	C 	0.48850 0.97380 0.11990 0.47200
C 	C 	0.62950 0.62390 0.36760 0.11900
C 	C 	0.65800 0.50020 0.38530 -0.20800
C 	C 	0.54410 0.38260 0.41860 0.14900
C 	C 	0.40350 0.39100 0.43490 -0.22200
C 	C 	0.38480 0.52050 0.41730 0.12900
C 	C 	0.27140 0.25870 0.47000 0.49900
C 	C 	0.51180 0.50810 0.96480 0.25900
C 	C 	0.50300 0.97690 0.46580 0.25600
C 	C 	0.97060 0.92250 0.26730 0.09800
C 	C 	0.95360 0.00800 0.31560 -0.20800
C 	C 	0.90730 0.12450 0.30220 0.10900
C 	C 	0.88070 0.14900 0.24150 -0.19100
C 	C 	0.89770 0.05720 0.19580 0.11600
C 	C 	0.98850 0.97380 0.38010 0.47900
C 	C 	0.12950 0.62390 0.13240 0.11500
C 	C 	0.15800 0.50020 0.11470 -0.20400
C 	C 	0.04410 0.38260 0.08140 0.14200
C 	C 	0.90350 0.39100 0.06510 -0.21600
C 	C 	0.88480 0.52050 0.08270 0.12700
C 	C 	0.77140 0.25870 0.03000 0.49600
C 	C 	0.01180 0.50810 0.53520 0.25900
C 	C 	0.00300 0.97690 0.03420 0.25000
C 	C 	0.52940 0.07750 0.76730 0.09700
C 	C 	0.54640 0.99200 0.81560 -0.20400
C 	C 	0.59270 0.87550 0.80220 0.10500
C 	C 	0.61930 0.85100 0.74150 -0.18700
C 	C 	0.60230 0.94280 0.69580 0.11100
C 	C 	0.51150 0.02620 0.88010 0.47200
C 	C 	0.37050 0.37610 0.63240 0.11900
C 	C 	0.34200 0.49980 0.61470 -0.20800
C 	C 	0.45590 0.61740 0.58140 0.14900
C 	C 	0.59650 0.60900 0.56510 -0.22200
C 	C 	0.61520 0.47950 0.58270 0.12900
C 	C 	0.72860 0.74130 0.53000 0.49900
C 	C 	0.48820 0.49190 0.03520 0.25900
C 	C 	0.49700 0.02310 0.53420 0.25600
N 	N 	0.05770 0.05680 0.79220 -0.27500
N 	N 	0.00490 0.36340 0.88290 -0.27700
N 	N 	0.44230 0.94320 0.29220 -0.27300
N 	N 	0.49510 0.63660 0.38290 -0.27800
N 	N 	0.94230 0.94320 0.20780 -0.27500
N 	N 	0.99510 0.63660 0.11710 -0.27700
N 	N 	0.55770 0.05680 0.70780 -0.27300
N 	N 	0.50490 0.36340 0.61710 -0.27800
O 	O 	0.05150 0.96640 0.57535 -0.57600
O 	O 	0.94400 0.11330 0.61333 -0.50300
O 	O 	0.33620 0.71290 0.99450 -0.50100
O 	O 	0.22090 0.86830 0.97040 -0.51300
O 	O 	0.05110 0.61620 0.43382 -0.41400
O 	O 	0.90880 0.35750 0.44344 -0.42600
O 	O 	0.12860 0.11790 0.94203 -0.50300
O 	O 	0.86280 0.96190 0.93900 -0.43400
O 	O 	0.44850 0.03360 0.07535 -0.56900
O 	O 	0.55600 0.88670 0.11333 -0.50200
O 	O 	0.16380 0.28710 0.49450 -0.50700
O 	O 	0.27910 0.13170 0.47040 -0.52100
O 	O 	0.44890 0.38380 0.93382 -0.41300
O 	O 	0.59120 0.64250 0.94344 -0.42300
O 	O 	0.37140 0.88210 0.44203 -0.50400
O 	O 	0.63720 0.03810 0.43900 -0.44200
O 	O 	0.94850 0.03360 0.42465 -0.57600
O 	O 	0.05600 0.88670 0.38667 -0.50300
O 	O 	0.66380 0.28710 0.00550 -0.50100
O 	O 	0.77910 0.13170 0.02960 -0.51300
O 	O 	0.94890 0.38380 0.56618 -0.41400
O 	O 	0.09120 0.64250 0.55656 -0.42600
O 	O 	0.87140 0.88210 0.05797 -0.50300
O 	O 	0.13720 0.03810 0.06100 -0.43400
O 	O 	0.55150 0.96640 0.92465 -0.56900
O 	O 	0.44400 0.11330 0.88667 -0.50200
O 	O 	0.83620 0.71290 0.50550 -0.50700
O 	O 	0.72090 0.86830 0.52960 -0.52100
O 	O 	0.55110 0.61620 0.06618 -0.41300
O 	O 	0.40880 0.35750 0.05656 -0.42300
O 	O 	0.62860 0.11790 0.55797 -0.50400
O 	O 	0.36280 0.96190 0.56100 -0.44200
