data_crystal

_cell_length_a 9.50510
_cell_length_b 14.62430
_cell_length_c 13.56030
_cell_angle_alpha 90.00000
_cell_angle_beta  90.00000
_cell_angle_gamma 90.00000

_symmetry_space_group_name_	'P 1'
_symmetry_space_group_name_H-M	'P 1'

loop_
_symmetry_equiv_pos_as_xyz
  x,y,z

loop_
_atom_site_label
_atom_site_type_symbol
_atom_site_fract_x
_atom_site_fract_y
_atom_site_fract_z
_atom_site_charge
O 	O 	0.08190 0.11096 0.55062 -0.56500
O 	O 	0.90769 0.11830 0.44381 -0.57300
C 	C 	0.03120 0.28949 0.61719 0.08900
O 	O 	0.20456 0.39117 0.74982 -0.38900
C 	C 	0.00660 0.37983 0.64350 -0.11600
C 	C 	0.08790 0.42415 0.72530 0.31300
C 	C 	0.90760 0.43011 0.59140 0.05200
C 	C 	0.98400 0.15192 0.50985 0.48100
C 	C 	0.95660 0.24909 0.54051 -0.19400
C 	C 	0.85720 0.30033 0.49019 0.09300
C 	C 	0.83460 0.39042 0.51460 -0.14000
O 	O 	0.03577 0.49361 0.76841 -0.36600
H 	H 	0.09600 0.25490 0.64960 0.02600
H 	H 	0.80400 0.27490 0.44200 0.01400
H 	H 	0.88100 0.48800 0.61700 0.03100
H 	H 	0.76900 0.42200 0.47800 0.08900
O 	O 	0.41810 0.88904 0.55062 -0.45600
O 	O 	0.59231 0.88170 0.44381 -0.43200
C 	C 	0.46880 0.71051 0.61719 0.06900
O 	O 	0.29544 0.60883 0.74982 -0.38500
C 	C 	0.49340 0.62017 0.64350 -0.10700
C 	C 	0.41210 0.57585 0.72530 0.31000
C 	C 	0.59240 0.56989 0.59140 0.04800
C 	C 	0.51600 0.84808 0.50985 0.46200
C 	C 	0.54340 0.75091 0.54051 -0.15400
C 	C 	0.64280 0.69967 0.49019 0.07800
C 	C 	0.66540 0.60958 0.51460 -0.12300
O 	O 	0.46423 0.50639 0.76841 -0.36900
H 	H 	0.40400 0.74510 0.64960 0.03600
H 	H 	0.69600 0.72510 0.44200 0.02800
H 	H 	0.61900 0.51200 0.61700 0.03300
H 	H 	0.73100 0.57800 0.47800 0.08400
O 	O 	0.41810 0.61096 0.94938 -0.52700
O 	O 	0.59231 0.61830 0.05619 -0.51500
C 	C 	0.46880 0.78949 0.88281 0.07000
O 	O 	0.29544 0.89117 0.75018 -0.32300
C 	C 	0.49340 0.87983 0.85650 -0.07800
C 	C 	0.41210 0.92415 0.77470 0.30100
C 	C 	0.59240 0.93011 0.90860 0.06900
C 	C 	0.51600 0.65192 0.99015 0.48100
C 	C 	0.54340 0.74909 0.95949 -0.16600
C 	C 	0.64280 0.80033 0.00981 0.09600
C 	C 	0.66540 0.89042 0.98540 -0.10700
O 	O 	0.46423 0.99361 0.73159 -0.24700
H 	H 	0.40400 0.75490 0.85040 0.03500
H 	H 	0.69600 0.77490 0.05800 0.02500
H 	H 	0.61900 0.98800 0.88300 0.10700
H 	H 	0.73100 0.92200 0.02200 0.13700
O 	O 	0.08190 0.38904 0.94938 -0.52500
O 	O 	0.90769 0.38170 0.05619 -0.52000
C 	C 	0.03120 0.21051 0.88281 0.10500
O 	O 	0.20456 0.10883 0.75018 -0.43600
C 	C 	0.00660 0.12017 0.85650 -0.15100
C 	C 	0.08790 0.07585 0.77470 0.32300
C 	C 	0.90760 0.06989 0.90860 0.04600
C 	C 	0.98400 0.34808 0.99015 0.47900
C 	C 	0.95660 0.25091 0.95949 -0.20800
C 	C 	0.85720 0.19967 0.00981 0.10700
C 	C 	0.83460 0.10958 0.98540 -0.18600
O 	O 	0.03577 0.00639 0.73159 -0.46700
H 	H 	0.09600 0.24510 0.85040 0.01900
H 	H 	0.80400 0.22510 0.05800 0.00500
H 	H 	0.88100 0.01200 0.88300 -0.04700
H 	H 	0.76900 0.07800 0.02200 0.04900
O 	O 	0.91810 0.88904 0.44938 -0.45600
O 	O 	0.09231 0.88170 0.55619 -0.43300
C 	C 	0.96880 0.71051 0.38281 0.06800
O 	O 	0.79544 0.60883 0.25018 -0.38500
C 	C 	0.99340 0.62017 0.35650 -0.11000
C 	C 	0.91210 0.57585 0.27470 0.31100
C 	C 	0.09240 0.56989 0.40860 0.05100
C 	C 	0.01600 0.84808 0.49015 0.46100
C 	C 	0.04340 0.75091 0.45949 -0.15400
C 	C 	0.14280 0.69967 0.50981 0.08000
C 	C 	0.16540 0.60958 0.48540 -0.12500
O 	O 	0.96423 0.50639 0.23159 -0.37000
H 	H 	0.90400 0.74510 0.35040 0.03600
H 	H 	0.19600 0.72510 0.55800 0.02700
H 	H 	0.11900 0.51200 0.38300 0.03300
H 	H 	0.23100 0.57800 0.52200 0.08500
O 	O 	0.58190 0.11096 0.44938 -0.57100
O 	O 	0.40769 0.11830 0.55619 -0.57400
C 	C 	0.53120 0.28949 0.38281 0.08400
O 	O 	0.70456 0.39117 0.25018 -0.39000
C 	C 	0.50660 0.37983 0.35650 -0.12000
C 	C 	0.58790 0.42415 0.27470 0.31400
C 	C 	0.40760 0.43011 0.40860 0.05800
C 	C 	0.48400 0.15192 0.49015 0.48700
C 	C 	0.45660 0.24909 0.45949 -0.19000
C 	C 	0.35720 0.30033 0.50981 0.09400
C 	C 	0.33460 0.39042 0.48540 -0.14200
O 	O 	0.53577 0.49361 0.23159 -0.36700
H 	H 	0.59600 0.25490 0.35040 0.02700
H 	H 	0.30400 0.27490 0.55800 0.01400
H 	H 	0.38100 0.48800 0.38300 0.03100
H 	H 	0.26900 0.42200 0.52200 0.09000
O 	O 	0.58190 0.38904 0.05062 -0.53100
O 	O 	0.40769 0.38170 0.94381 -0.52200
C 	C 	0.53120 0.21051 0.11719 0.09600
O 	O 	0.70456 0.10883 0.24982 -0.43700
C 	C 	0.50660 0.12017 0.14350 -0.15700
C 	C 	0.58790 0.07585 0.22530 0.32400
C 	C 	0.40760 0.06989 0.09140 0.05300
C 	C 	0.48400 0.34808 0.00985 0.48600
C 	C 	0.45660 0.25091 0.04051 -0.19800
C 	C 	0.35720 0.19967 0.99019 0.10000
C 	C 	0.33460 0.10958 0.01460 -0.18200
O 	O 	0.53577 0.00639 0.26841 -0.47100
H 	H 	0.59600 0.24510 0.14960 0.02100
H 	H 	0.30400 0.22510 0.94200 0.00800
H 	H 	0.38100 0.01200 0.11700 -0.04600
H 	H 	0.26900 0.07800 0.97800 0.04800
O 	O 	0.91810 0.61096 0.05062 -0.52700
O 	O 	0.09231 0.61830 0.94381 -0.51300
C 	C 	0.96880 0.78949 0.11719 0.07200
O 	O 	0.79544 0.89117 0.24982 -0.32200
C 	C 	0.99340 0.87983 0.14350 -0.08000
C 	C 	0.91210 0.92415 0.22530 0.30200
C 	C 	0.09240 0.93011 0.09140 0.06900
C 	C 	0.01600 0.65192 0.00985 0.47900
C 	C 	0.04340 0.74909 0.04051 -0.17000
C 	C 	0.14280 0.80033 0.99019 0.10200
C 	C 	0.16540 0.89042 0.01460 -0.11100
O 	O 	0.96423 0.99361 0.26841 -0.24700
H 	H 	0.90400 0.75490 0.14960 0.03400
H 	H 	0.19600 0.77490 0.94200 0.02300
H 	H 	0.11900 0.98800 0.11700 0.10600
H 	H 	0.23100 0.92200 0.97800 0.13800
Pr	Pr	0.25000 0.00000 0.60466 2.00000
Pr	Pr	0.25000 0.50000 0.89534 2.08600
Pr	Pr	0.75000 -0.00000 0.39534 1.99900
Pr	Pr	0.75000 0.50000 0.10466 2.08600
