data_crystal

_cell_length_a 9.51070
_cell_length_b 14.61280
_cell_length_c 13.53170
_cell_angle_alpha 90.00000
_cell_angle_beta  90.00000
_cell_angle_gamma 90.00000

_symmetry_space_group_name_	'P 1'
_symmetry_space_group_name_H-M	'P 1'

loop_
_symmetry_equiv_pos_as_xyz
  x,y,z

loop_
_atom_site_label
_atom_site_type_symbol
_atom_site_fract_x
_atom_site_fract_y
_atom_site_fract_z
_atom_site_charge
O 	O 	0.03630 0.49366 0.23100 -0.39200
O 	O 	0.20470 0.39144 0.24975 -0.42000
O 	O 	0.90770 0.11786 0.55546 -0.55900
O 	O 	0.08280 0.11130 0.44985 -0.55200
C 	C 	0.08850 0.42393 0.27421 0.33700
C 	C 	0.00720 0.37995 0.35580 -0.13800
C 	C 	0.90770 0.43010 0.40800 0.06600
H 	H 	0.89050 0.49080 0.39130 0.02000
C 	C 	0.83420 0.39000 0.48480 -0.15900
H 	H 	0.76880 0.42420 0.52020 0.09000
C 	C 	0.85720 0.29980 0.50930 0.11700
C 	C 	0.95670 0.24899 0.45907 -0.22100
C 	C 	0.03140 0.28945 0.38220 0.11000
H 	H 	0.09840 0.25550 0.34810 0.01600
C 	C 	0.98460 0.15170 0.49004 0.52300
H 	H 	0.80100 0.27600 0.55700 0.00300
O 	O 	0.46370 0.50634 0.23100 -0.39600
O 	O 	0.29530 0.60856 0.24975 -0.41600
O 	O 	0.59230 0.88214 0.55546 -0.42800
O 	O 	0.41720 0.88870 0.44985 -0.45200
C 	C 	0.41150 0.57607 0.27421 0.33300
C 	C 	0.49280 0.62005 0.35580 -0.13200
C 	C 	0.59230 0.56990 0.40800 0.06400
H 	H 	0.60950 0.50920 0.39130 0.02100
C 	C 	0.66580 0.61000 0.48480 -0.14500
H 	H 	0.73120 0.57580 0.52020 0.08600
C 	C 	0.64280 0.70020 0.50930 0.10400
C 	C 	0.54330 0.75101 0.45907 -0.18500
C 	C 	0.46860 0.71055 0.38220 0.09300
H 	H 	0.40160 0.74450 0.34810 0.02400
C 	C 	0.51540 0.84830 0.49004 0.50500
H 	H 	0.69900 0.72400 0.55700 0.01500
O 	O 	0.46370 0.99366 0.26900 -0.24000
O 	O 	0.29530 0.89144 0.25025 -0.31500
O 	O 	0.59230 0.61786 0.94454 -0.59500
O 	O 	0.41720 0.61130 0.05015 -0.60700
C 	C 	0.41150 0.92393 0.22579 0.32100
C 	C 	0.49280 0.87995 0.14420 -0.11500
C 	C 	0.59230 0.93010 0.09200 0.09500
H 	H 	0.60950 0.99080 0.10870 0.08800
C 	C 	0.66580 0.89000 0.01520 -0.15100
H 	H 	0.73120 0.92420 0.97980 0.14600
C 	C 	0.64280 0.79980 0.99070 0.15300
C 	C 	0.54330 0.74899 0.04093 -0.23700
C 	C 	0.46860 0.78945 0.11780 0.11900
H 	H 	0.40160 0.75550 0.15190 0.01200
C 	C 	0.51540 0.65170 0.00996 0.58800
H 	H 	0.69900 0.77600 0.94300 -0.00300
O 	O 	0.03630 0.00634 0.26900 -0.44300
O 	O 	0.20470 0.10856 0.25025 -0.42100
O 	O 	0.90770 0.38214 0.94454 -0.60000
O 	O 	0.08280 0.38870 0.05015 -0.60500
C 	C 	0.08850 0.07607 0.22579 0.34500
C 	C 	0.00720 0.12005 0.14420 -0.19100
C 	C 	0.90770 0.06990 0.09200 0.09000
H 	H 	0.89050 0.00920 0.10870 -0.06200
C 	C 	0.83420 0.11000 0.01520 -0.23200
H 	H 	0.76880 0.07580 0.97980 0.06300
C 	C 	0.85720 0.20020 0.99070 0.16800
C 	C 	0.95670 0.25101 0.04093 -0.27900
C 	C 	0.03140 0.21055 0.11780 0.15600
H 	H 	0.09840 0.24450 0.15190 -0.00400
C 	C 	0.98460 0.34830 0.00996 0.58600
H 	H 	0.80100 0.22400 0.94300 -0.02400
O 	O 	0.96370 0.50634 0.76900 -0.39700
O 	O 	0.79530 0.60856 0.75025 -0.41700
O 	O 	0.09230 0.88214 0.44454 -0.43000
O 	O 	0.91720 0.88870 0.55015 -0.45100
C 	C 	0.91150 0.57607 0.72579 0.33400
C 	C 	0.99280 0.62005 0.64420 -0.13400
C 	C 	0.09230 0.56990 0.59200 0.06700
H 	H 	0.10950 0.50920 0.60870 0.02100
C 	C 	0.16580 0.61000 0.51520 -0.14600
H 	H 	0.23120 0.57580 0.47980 0.08700
C 	C 	0.14280 0.70020 0.49070 0.10500
C 	C 	0.04330 0.75101 0.54093 -0.18500
C 	C 	0.96860 0.71055 0.61780 0.09300
H 	H 	0.90160 0.74450 0.65190 0.02500
C 	C 	0.01540 0.84830 0.50996 0.50400
H 	H 	0.19900 0.72400 0.44300 0.01400
O 	O 	0.53630 0.49366 0.76900 -0.39400
O 	O 	0.70470 0.39144 0.75025 -0.42100
O 	O 	0.40770 0.11786 0.44454 -0.56100
O 	O 	0.58280 0.11130 0.55015 -0.55800
C 	C 	0.58850 0.42393 0.72579 0.33700
C 	C 	0.50720 0.37995 0.64420 -0.14300
C 	C 	0.40770 0.43010 0.59200 0.07300
H 	H 	0.39050 0.49080 0.60870 0.01900
C 	C 	0.33420 0.39000 0.51520 -0.16000
H 	H 	0.26880 0.42420 0.47980 0.09100
C 	C 	0.35720 0.29980 0.49070 0.11800
C 	C 	0.45670 0.24899 0.54093 -0.21800
C 	C 	0.53140 0.28945 0.61780 0.10600
H 	H 	0.59840 0.25550 0.65190 0.01700
C 	C 	0.48460 0.15170 0.50996 0.52900
H 	H 	0.30100 0.27600 0.44300 0.00300
O 	O 	0.53630 0.00634 0.73100 -0.44700
O 	O 	0.70470 0.10856 0.74975 -0.42100
O 	O 	0.40770 0.38214 0.05546 -0.60300
O 	O 	0.58280 0.38870 0.94985 -0.61100
C 	C 	0.58850 0.07607 0.77421 0.34600
C 	C 	0.50720 0.12005 0.85580 -0.19700
C 	C 	0.40770 0.06990 0.90800 0.09700
H 	H 	0.39050 0.00920 0.89130 -0.06200
C 	C 	0.33420 0.11000 0.98480 -0.22800
H 	H 	0.26880 0.07580 0.02020 0.06200
C 	C 	0.35720 0.20020 0.00930 0.16000
C 	C 	0.45670 0.25101 0.95907 -0.27000
C 	C 	0.53140 0.21055 0.88220 0.14800
H 	H 	0.59840 0.24450 0.84810 -0.00200
C 	C 	0.48460 0.34830 0.99004 0.59400
H 	H 	0.30100 0.22400 0.05700 -0.02100
O 	O 	0.96370 0.99366 0.73100 -0.23900
O 	O 	0.79530 0.89144 0.74975 -0.31300
O 	O 	0.09230 0.61786 0.05546 -0.59300
O 	O 	0.91720 0.61130 0.94985 -0.60600
C 	C 	0.91150 0.92393 0.77421 0.32100
C 	C 	0.99280 0.87995 0.85580 -0.11500
C 	C 	0.09230 0.93010 0.90800 0.09500
H 	H 	0.10950 0.99080 0.89130 0.08700
C 	C 	0.16580 0.89000 0.98480 -0.15500
H 	H 	0.23120 0.92420 0.02020 0.14700
C 	C 	0.14280 0.79980 0.00930 0.15900
C 	C 	0.04330 0.74899 0.95907 -0.24100
C 	C 	0.96860 0.78945 0.88220 0.12100
H 	H 	0.90160 0.75550 0.84810 0.01100
C 	C 	0.01540 0.65170 0.99004 0.58600
H 	H 	0.19900 0.77600 0.05700 -0.00500
Nd	Nd	0.25000 0.50000 0.10438 2.41700
Nd	Nd	0.25000 0.00000 0.39563 1.85200
Nd	Nd	0.75000 0.50000 0.89563 2.41600
Nd	Nd	0.75000 0.00000 0.60438 1.84400
