data_crystal

_cell_length_a 18.70630
_cell_length_b 22.98300
_cell_length_c 17.71390
_cell_angle_alpha 90.00000
_cell_angle_beta  105.86600
_cell_angle_gamma 90.00000

_symmetry_space_group_name_	'P 1'
_symmetry_space_group_name_H-M	'P 1'

loop_
_symmetry_equiv_pos_as_xyz
  x,y,z

loop_
_atom_site_label
_atom_site_type_symbol
_atom_site_fract_x
_atom_site_fract_y
_atom_site_fract_z
_atom_site_charge
N 	N 	0.19760 0.18120 0.47930 -0.13000
N 	N 	0.04650 0.24510 0.66060 -0.19200
N 	N 	0.41140 0.05310 0.47270 -0.23600
O 	O 	0.04880 0.44690 0.08270 -0.44800
O 	O 	0.08380 0.38320 0.00830 -0.32100
O 	O 	0.09640 0.25090 0.82750 -0.51500
O 	O 	0.16190 0.32450 0.80000 -0.27300
C 	C 	0.07490 0.40030 0.07200 0.37800
C 	C 	0.09780 0.35840 0.14080 -0.15600
C 	C 	0.08450 0.37390 0.20850 0.06500
H 	H 	0.06330 0.41000 0.21210 0.00700
C 	C 	0.10140 0.33770 0.27340 -0.14100
H 	H 	0.09030 0.34940 0.31920 0.06900
C 	C 	0.13410 0.28500 0.27090 0.05600
C 	C 	0.14820 0.27020 0.20130 -0.13800
H 	H 	0.17020 0.23450 0.19710 0.07600
C 	C 	0.13040 0.30750 0.13680 0.06600
H 	H 	0.14140 0.29670 0.09060 0.01400
C 	C 	0.02010 0.27310 0.59380 -0.08300
H 	H 	0.98090 0.29890 0.58980 0.11300
C 	C 	0.04780 0.26600 0.52900 -0.04500
H 	H 	0.02690 0.28630 0.48280 0.03100
C 	C 	0.10700 0.22820 0.53410 0.02000
C 	C 	0.13480 0.20030 0.60420 -0.10900
H 	H 	0.17460 0.17480 0.61110 0.07700
C 	C 	0.10310 0.21040 0.66470 0.07000
H 	H 	0.12330 0.19110 0.71190 0.01200
C 	C 	0.38190 0.07260 0.40130 0.11600
H 	H 	0.40150 0.05980 0.36130 -0.02200
C 	C 	0.32410 0.11050 0.38300 -0.17700
H 	H 	0.30570 0.12280 0.33130 0.10000
C 	C 	0.29280 0.13080 0.43750 0.08900
C 	C 	0.32170 0.10900 0.51340 -0.16000
H 	H 	0.30050 0.11930 0.55320 0.09200
C 	C 	0.38130 0.07240 0.52830 0.09400
H 	H 	0.40200 0.06030 0.57980 -0.01700
C 	C 	0.14180 0.22070 0.46830 0.08100
C 	C 	0.11890 0.25270 0.40050 -0.13000
H 	H 	0.07960 0.27870 0.39420 0.06600
C 	C 	0.15370 0.24670 0.34150 0.04500
C 	C 	0.21150 0.20590 0.35330 -0.12100
H 	H 	0.23710 0.20080 0.31550 0.07700
C 	C 	0.23010 0.17360 0.42160 0.06200
C 	C 	0.15020 0.28340 0.84330 0.31200
C 	C 	0.20200 0.26600 0.92400 -0.02900
C 	C 	0.25900 0.30200 0.96300 0.07100
H 	H 	0.26880 0.33590 0.94020 0.00700
C 	C 	0.19800 0.21400 0.96200 -0.09300
H 	H 	0.16350 0.18720 0.93500 0.02100
O 	O 	0.09260 0.16680 0.85140 -0.29500
C 	C 	0.12250 0.21280 0.87400 0.34100
C 	C 	0.18700 0.23100 0.94100 0.03900
C 	C 	0.21500 0.19600 0.00500 0.02000
H 	H 	0.19310 0.16040 0.01110 0.00900
C 	C 	0.22100 0.28400 0.94000 -0.11800
H 	H 	0.19930 0.30950 0.89910 0.04900
N 	N 	0.69760 0.68120 0.47930 -0.12600
N 	N 	0.54650 0.74510 0.66060 -0.21600
N 	N 	0.91140 0.55310 0.47270 -0.21400
O 	O 	0.54880 0.94690 0.08270 -0.40900
O 	O 	0.58380 0.88320 0.00830 -0.29900
O 	O 	0.59640 0.75090 0.82750 -0.50200
O 	O 	0.66190 0.82450 0.80000 -0.26200
C 	C 	0.57490 0.90030 0.07200 0.37400
C 	C 	0.59780 0.85840 0.14080 -0.13200
C 	C 	0.58450 0.87390 0.20850 0.05900
H 	H 	0.56330 0.91000 0.21210 0.02900
C 	C 	0.60140 0.83770 0.27340 -0.12300
H 	H 	0.59030 0.84940 0.31920 0.07400
C 	C 	0.63410 0.78500 0.27090 0.05500
C 	C 	0.64820 0.77020 0.20130 -0.12400
H 	H 	0.67020 0.73450 0.19710 0.07900
C 	C 	0.63040 0.80750 0.13680 0.06100
H 	H 	0.64140 0.79670 0.09060 0.02300
C 	C 	0.52010 0.77310 0.59380 0.08800
H 	H 	0.48090 0.79890 0.58980 0.00900
C 	C 	0.54780 0.76600 0.52900 -0.13600
H 	H 	0.52690 0.78630 0.48280 0.08400
C 	C 	0.60700 0.72820 0.53410 0.07300
C 	C 	0.63480 0.70030 0.60420 -0.14400
H 	H 	0.67460 0.67480 0.61110 0.09400
C 	C 	0.60310 0.71040 0.66470 0.10100
H 	H 	0.62330 0.69110 0.71190 0.00900
C 	C 	0.88190 0.57260 0.40130 0.12000
H 	H 	0.90150 0.55980 0.36130 -0.00000
C 	C 	0.82410 0.61050 0.38300 -0.16900
H 	H 	0.80570 0.62280 0.33130 0.10400
C 	C 	0.79280 0.63080 0.43750 0.08900
C 	C 	0.82170 0.60900 0.51340 -0.15200
H 	H 	0.80050 0.61930 0.55320 0.09400
C 	C 	0.88130 0.57240 0.52830 0.09900
H 	H 	0.90200 0.56030 0.57980 0.00300
C 	C 	0.64180 0.72070 0.46830 0.07100
C 	C 	0.61890 0.75270 0.40050 -0.12100
H 	H 	0.57960 0.77870 0.39420 0.07300
C 	C 	0.65370 0.74670 0.34150 0.05200
C 	C 	0.71150 0.70590 0.35330 -0.12100
H 	H 	0.73710 0.70080 0.31550 0.07900
C 	C 	0.73010 0.67360 0.42160 0.06800
C 	C 	0.65020 0.78340 0.84330 0.30600
C 	C 	0.70200 0.76600 0.92400 -0.02100
C 	C 	0.75900 0.80200 0.96300 0.06200
H 	H 	0.76880 0.83590 0.94020 0.01600
C 	C 	0.69800 0.71400 0.96200 -0.09500
H 	H 	0.66350 0.68720 0.93500 0.02800
O 	O 	0.59260 0.66680 0.85140 -0.26800
C 	C 	0.62250 0.71280 0.87400 0.33600
C 	C 	0.68700 0.73100 0.94100 0.04000
C 	C 	0.71500 0.69600 0.00500 0.01700
H 	H 	0.69310 0.66040 0.01110 0.01800
C 	C 	0.72100 0.78400 0.94000 -0.11900
H 	H 	0.69930 0.80950 0.89910 0.05200
N 	N 	0.80240 0.18120 0.02070 -0.12900
N 	N 	0.95350 0.24510 0.83940 -0.22800
N 	N 	0.58860 0.05310 0.02730 -0.24800
O 	O 	0.95120 0.44690 0.41730 -0.39500
O 	O 	0.91620 0.38320 0.49170 -0.27900
O 	O 	0.90360 0.25090 0.67250 -0.48500
O 	O 	0.83810 0.32450 0.70000 -0.26000
C 	C 	0.92510 0.40030 0.42800 0.37400
C 	C 	0.90220 0.35840 0.35920 -0.12000
C 	C 	0.91550 0.37390 0.29150 0.05900
H 	H 	0.93670 0.41000 0.28790 0.03700
C 	C 	0.89860 0.33770 0.22660 -0.11600
H 	H 	0.90970 0.34940 0.18080 0.08000
C 	C 	0.86590 0.28500 0.22910 0.05800
C 	C 	0.85180 0.27020 0.29870 -0.11600
H 	H 	0.82980 0.23450 0.30290 0.08100
C 	C 	0.86960 0.30750 0.36320 0.06100
H 	H 	0.85860 0.29670 0.40940 0.03200
C 	C 	0.97990 0.27310 0.90620 0.23600
H 	H 	0.01910 0.29890 0.91020 -0.08000
C 	C 	0.95220 0.26600 0.97100 -0.17900
H 	H 	0.97310 0.28630 0.01720 0.10500
C 	C 	0.89300 0.22820 0.96590 0.13100
C 	C 	0.86520 0.20030 0.89580 -0.18000
H 	H 	0.82540 0.17480 0.88890 0.11100
C 	C 	0.89690 0.21040 0.83530 0.12900
H 	H 	0.87670 0.19110 0.78810 0.00400
C 	C 	0.61810 0.07260 0.09870 0.10400
H 	H 	0.59850 0.05980 0.13870 -0.01700
C 	C 	0.67590 0.11050 0.11700 -0.15900
H 	H 	0.69430 0.12280 0.16870 0.09800
C 	C 	0.70720 0.13080 0.06250 0.05700
C 	C 	0.67830 0.10900 0.98660 -0.12300
H 	H 	0.69950 0.11930 0.94680 0.08700
C 	C 	0.61870 0.07240 0.97170 0.10800
H 	H 	0.59800 0.06030 0.92020 -0.01600
C 	C 	0.85820 0.22070 0.03170 0.03700
C 	C 	0.88110 0.25270 0.09950 -0.10600
H 	H 	0.92040 0.27870 0.10580 0.07500
C 	C 	0.84630 0.24670 0.15850 0.05200
C 	C 	0.78850 0.20590 0.14670 -0.12200
H 	H 	0.76290 0.20080 0.18450 0.08100
C 	C 	0.76990 0.17360 0.07840 0.07400
C 	C 	0.84980 0.28340 0.65670 0.30300
C 	C 	0.79800 0.26600 0.57600 -0.00700
C 	C 	0.74100 0.30200 0.53700 0.03700
H 	H 	0.73120 0.33590 0.55980 0.01800
C 	C 	0.80200 0.21400 0.53800 -0.08500
H 	H 	0.83650 0.18720 0.56500 0.02900
O 	O 	0.90740 0.16680 0.64860 -0.25700
C 	C 	0.87750 0.21280 0.62600 0.34800
C 	C 	0.81300 0.23100 0.55900 -0.01600
C 	C 	0.78500 0.19600 0.49500 0.04200
H 	H 	0.80690 0.16040 0.48890 0.01900
C 	C 	0.77900 0.28400 0.56000 -0.08700
H 	H 	0.80070 0.30950 0.60090 0.03700
N 	N 	0.30240 0.68120 0.02070 -0.13200
N 	N 	0.45350 0.74510 0.83940 -0.21200
N 	N 	0.08860 0.55310 0.02730 -0.25000
O 	O 	0.45120 0.94690 0.41730 -0.40600
O 	O 	0.41620 0.88320 0.49170 -0.28800
O 	O 	0.40360 0.75090 0.67250 -0.50800
O 	O 	0.33810 0.82450 0.70000 -0.26600
C 	C 	0.42510 0.90030 0.42800 0.37000
C 	C 	0.40220 0.85840 0.35920 -0.12900
C 	C 	0.41550 0.87390 0.29150 0.05500
H 	H 	0.43670 0.91000 0.28790 0.02900
C 	C 	0.39860 0.83770 0.22660 -0.12200
H 	H 	0.40970 0.84940 0.18080 0.07300
C 	C 	0.36590 0.78500 0.22910 0.05300
C 	C 	0.35180 0.77020 0.29870 -0.12100
H 	H 	0.32980 0.73450 0.30290 0.07900
C 	C 	0.36960 0.80750 0.36320 0.05700
H 	H 	0.35860 0.79670 0.40940 0.02800
C 	C 	0.47990 0.77310 0.90620 0.06800
H 	H 	0.51910 0.79890 0.91020 0.02100
C 	C 	0.45220 0.76600 0.97100 -0.08900
H 	H 	0.47310 0.78630 0.01720 0.05400
C 	C 	0.39300 0.72820 0.96590 0.08100
C 	C 	0.36520 0.70030 0.89580 -0.14500
H 	H 	0.32540 0.67480 0.88890 0.09900
C 	C 	0.39690 0.71040 0.83530 0.10200
H 	H 	0.37670 0.69110 0.78810 0.00900
C 	C 	0.11810 0.57260 0.09870 0.10500
H 	H 	0.09850 0.55980 0.13870 -0.01700
C 	C 	0.17590 0.61050 0.11700 -0.16000
H 	H 	0.19430 0.62280 0.16870 0.09900
C 	C 	0.20720 0.63080 0.06250 0.05900
C 	C 	0.17830 0.60900 0.98660 -0.12500
H 	H 	0.19950 0.61930 0.94680 0.08900
C 	C 	0.11870 0.57240 0.97170 0.10600
H 	H 	0.09800 0.56030 0.92020 -0.02200
C 	C 	0.35820 0.72070 0.03170 0.05100
C 	C 	0.38110 0.75270 0.09950 -0.11600
H 	H 	0.42040 0.77870 0.10580 0.06900
C 	C 	0.34630 0.74670 0.15850 0.05100
C 	C 	0.28850 0.70590 0.14670 -0.12400
H 	H 	0.26290 0.70080 0.18450 0.08100
C 	C 	0.26990 0.67360 0.07840 0.07300
C 	C 	0.34980 0.78340 0.65670 0.30700
C 	C 	0.29800 0.76600 0.57600 -0.00500
C 	C 	0.24100 0.80200 0.53700 0.03500
H 	H 	0.23120 0.83590 0.55980 0.01900
C 	C 	0.30200 0.71400 0.53800 -0.09100
H 	H 	0.33650 0.68720 0.56500 0.02700
O 	O 	0.40740 0.66680 0.64860 -0.27600
C 	C 	0.37750 0.71280 0.62600 0.35100
C 	C 	0.31300 0.73100 0.55900 -0.01400
C 	C 	0.28500 0.69600 0.49500 0.03900
H 	H 	0.30690 0.66040 0.48890 0.01800
C 	C 	0.27900 0.78400 0.56000 -0.09100
H 	H 	0.30070 0.80950 0.60090 0.03700
N 	N 	0.80240 0.81880 0.52070 -0.12100
N 	N 	0.95350 0.75490 0.33940 -0.23300
N 	N 	0.58860 0.94690 0.52730 -0.22000
O 	O 	0.95120 0.55310 0.91730 -0.38700
O 	O 	0.91620 0.61680 0.99170 -0.26600
O 	O 	0.90360 0.74910 0.17250 -0.48600
O 	O 	0.83810 0.67550 0.20000 -0.26000
C 	C 	0.92510 0.59970 0.92800 0.37000
C 	C 	0.90220 0.64160 0.85920 -0.11400
C 	C 	0.91550 0.62610 0.79150 0.05500
H 	H 	0.93670 0.59000 0.78790 0.04000
C 	C 	0.89860 0.66230 0.72660 -0.11100
H 	H 	0.90970 0.65060 0.68080 0.07900
C 	C 	0.86590 0.71500 0.72910 0.05600
C 	C 	0.85180 0.72980 0.79870 -0.11100
H 	H 	0.82980 0.76550 0.80290 0.08300
C 	C 	0.86960 0.69250 0.86320 0.05700
H 	H 	0.85860 0.70330 0.90940 0.03800
C 	C 	0.97990 0.72690 0.40620 0.26100
H 	H 	0.01910 0.70110 0.41020 -0.09500
C 	C 	0.95220 0.73400 0.47100 -0.22700
H 	H 	0.97310 0.71370 0.51720 0.13700
C 	C 	0.89300 0.77180 0.46590 0.12600
C 	C 	0.86520 0.79970 0.39580 -0.17800
H 	H 	0.82540 0.82520 0.38890 0.11200
C 	C 	0.89690 0.78960 0.33530 0.13200
H 	H 	0.87670 0.80890 0.28810 0.00700
C 	C 	0.61810 0.92740 0.59870 0.12300
H 	H 	0.59850 0.94020 0.63870 -0.00000
C 	C 	0.67590 0.88950 0.61700 -0.16900
H 	H 	0.69430 0.87720 0.66870 0.11000
C 	C 	0.70720 0.86920 0.56250 0.09500
C 	C 	0.67830 0.89100 0.48660 -0.15200
H 	H 	0.69950 0.88070 0.44680 0.09800
C 	C 	0.61870 0.92760 0.47170 0.10200
H 	H 	0.59800 0.93970 0.42020 -0.00400
C 	C 	0.85820 0.77930 0.53170 0.06200
C 	C 	0.88110 0.74730 0.59950 -0.11100
H 	H 	0.92040 0.72130 0.60580 0.08000
C 	C 	0.84630 0.75330 0.65850 0.05800
C 	C 	0.78850 0.79410 0.64670 -0.11800
H 	H 	0.76290 0.79920 0.68450 0.08200
C 	C 	0.76990 0.82640 0.57840 0.07300
C 	C 	0.84980 0.71660 0.15670 0.29800
C 	C 	0.79800 0.73400 0.07600 0.02200
C 	C 	0.74100 0.69800 0.03700 -0.00400
H 	H 	0.73120 0.66410 0.05980 0.03200
C 	C 	0.80200 0.78600 0.03800 -0.09100
H 	H 	0.83650 0.81280 0.06500 0.03500
O 	O 	0.90740 0.83320 0.14860 -0.25200
C 	C 	0.87750 0.78720 0.12600 0.35500
C 	C 	0.81300 0.76900 0.05900 -0.06000
C 	C 	0.78500 0.80400 0.99500 0.05200
H 	H 	0.80690 0.83960 0.98890 0.02900
C 	C 	0.77900 0.71600 0.06000 -0.06800
H 	H 	0.80070 0.69050 0.10090 0.02600
N 	N 	0.30240 0.31880 0.52070 -0.12500
N 	N 	0.45350 0.25490 0.33940 -0.21700
N 	N 	0.08860 0.44690 0.52730 -0.24000
O 	O 	0.45120 0.05310 0.91730 -0.43000
O 	O 	0.41620 0.11680 0.99170 -0.29000
O 	O 	0.40360 0.24910 0.17250 -0.51200
O 	O 	0.33810 0.17550 0.20000 -0.27400
C 	C 	0.42510 0.09970 0.92800 0.37400
C 	C 	0.40220 0.14160 0.85920 -0.13900
C 	C 	0.41550 0.12610 0.79150 0.06200
H 	H 	0.43670 0.09000 0.78790 0.01700
C 	C 	0.39860 0.16230 0.72660 -0.13000
H 	H 	0.40970 0.15060 0.68080 0.07400
C 	C 	0.36590 0.21500 0.72910 0.05700
C 	C 	0.35180 0.22980 0.79870 -0.12600
H 	H 	0.32980 0.26550 0.80290 0.08100
C 	C 	0.36960 0.19250 0.86320 0.06200
H 	H 	0.35860 0.20330 0.90940 0.02900
C 	C 	0.47990 0.22690 0.40620 0.08900
H 	H 	0.51910 0.20110 0.41020 0.00700
C 	C 	0.45220 0.23400 0.47100 -0.13700
H 	H 	0.47310 0.21370 0.51720 0.08400
C 	C 	0.39300 0.27180 0.46590 0.07400
C 	C 	0.36520 0.29970 0.39580 -0.14400
H 	H 	0.32540 0.32520 0.38890 0.09500
C 	C 	0.39690 0.28960 0.33530 0.10100
H 	H 	0.37670 0.30890 0.28810 0.00800
C 	C 	0.11810 0.42740 0.59870 0.11900
H 	H 	0.09850 0.44020 0.63870 -0.02000
C 	C 	0.17590 0.38950 0.61700 -0.17700
H 	H 	0.19430 0.37720 0.66870 0.10600
C 	C 	0.20720 0.36920 0.56250 0.09400
C 	C 	0.17830 0.39100 0.48660 -0.16000
H 	H 	0.19950 0.38070 0.44680 0.09600
C 	C 	0.11870 0.42760 0.47170 0.09600
H 	H 	0.09800 0.43970 0.42020 -0.02300
C 	C 	0.35820 0.27930 0.53170 0.07100
C 	C 	0.38110 0.24730 0.59950 -0.12000
H 	H 	0.42040 0.22130 0.60580 0.07300
C 	C 	0.34630 0.25330 0.65850 0.05100
C 	C 	0.28850 0.29410 0.64670 -0.11800
H 	H 	0.26290 0.29920 0.68450 0.07900
C 	C 	0.26990 0.32640 0.57840 0.06700
C 	C 	0.34980 0.21660 0.15670 0.30400
C 	C 	0.29800 0.23400 0.07600 0.02300
C 	C 	0.24100 0.19800 0.03700 -0.00600
H 	H 	0.23120 0.16410 0.05980 0.02700
C 	C 	0.30200 0.28600 0.03800 -0.09700
H 	H 	0.33650 0.31280 0.06500 0.03000
O 	O 	0.40740 0.33320 0.14860 -0.28400
C 	C 	0.37750 0.28720 0.12600 0.36200
C 	C 	0.31300 0.26900 0.05900 -0.06200
C 	C 	0.28500 0.30400 0.99500 0.05100
H 	H 	0.30690 0.33960 0.98890 0.02200
C 	C 	0.27900 0.21600 0.06000 -0.07200
H 	H 	0.30070 0.19050 0.10090 0.02200
N 	N 	0.19760 0.81880 0.97930 -0.12200
N 	N 	0.04650 0.75490 0.16060 -0.19700
N 	N 	0.41140 0.94690 0.97270 -0.20800
O 	O 	0.04880 0.55310 0.58270 -0.44400
O 	O 	0.08380 0.61680 0.50830 -0.31000
O 	O 	0.09640 0.74910 0.32750 -0.51700
O 	O 	0.16190 0.67550 0.30000 -0.27400
C 	C 	0.07490 0.59970 0.57200 0.37400
C 	C 	0.09780 0.64160 0.64080 -0.15100
C 	C 	0.08450 0.62610 0.70850 0.06100
H 	H 	0.06330 0.59000 0.71210 0.00900
C 	C 	0.10140 0.66230 0.77340 -0.13700
H 	H 	0.09030 0.65060 0.81920 0.06800
C 	C 	0.13410 0.71500 0.77090 0.05500
C 	C 	0.14820 0.72980 0.70130 -0.13300
H 	H 	0.17020 0.76550 0.69710 0.07900
C 	C 	0.13040 0.69250 0.63680 0.06200
H 	H 	0.14140 0.70330 0.59060 0.02100
C 	C 	0.02010 0.72690 0.09380 -0.06000
H 	H 	0.98090 0.70110 0.08980 0.09900
C 	C 	0.04780 0.73400 0.02900 -0.09100
H 	H 	0.02690 0.71370 0.98280 0.06200
C 	C 	0.10700 0.77180 0.03410 0.01600
C 	C 	0.13480 0.79970 0.10420 -0.10800
H 	H 	0.17460 0.82520 0.11110 0.07800
C 	C 	0.10310 0.78960 0.16470 0.07300
H 	H 	0.12330 0.80890 0.21190 0.01500
C 	C 	0.38190 0.92740 0.90130 0.13300
H 	H 	0.40150 0.94020 0.86130 -0.00400
C 	C 	0.32410 0.88950 0.88300 -0.18600
H 	H 	0.30570 0.87720 0.83130 0.11100
C 	C 	0.29280 0.86920 0.93750 0.12400
C 	C 	0.32170 0.89100 0.01340 -0.18700
H 	H 	0.30050 0.88070 0.05320 0.10200
C 	C 	0.38130 0.92760 0.02830 0.08900
H 	H 	0.40200 0.93970 0.07980 -0.00400
C 	C 	0.14180 0.77930 0.96830 0.10400
C 	C 	0.11890 0.74730 0.90050 -0.13500
H 	H 	0.07960 0.72130 0.89420 0.07100
C 	C 	0.15370 0.75330 0.84150 0.05100
C 	C 	0.21150 0.79410 0.85330 -0.11700
H 	H 	0.23710 0.79920 0.81550 0.07800
C 	C 	0.23010 0.82640 0.92160 0.06200
C 	C 	0.15020 0.71660 0.34330 0.30700
C 	C 	0.20200 0.73400 0.42400 0.00200
C 	C 	0.25900 0.69800 0.46300 0.02700
H 	H 	0.26880 0.66410 0.44020 0.02100
C 	C 	0.19800 0.78600 0.46200 -0.10000
H 	H 	0.16350 0.81280 0.43500 0.02800
O 	O 	0.09260 0.83320 0.35140 -0.29100
C 	C 	0.12250 0.78720 0.37400 0.34800
C 	C 	0.18700 0.76900 0.44100 -0.00800
C 	C 	0.21500 0.80400 0.50500 0.03100
H 	H 	0.19310 0.83960 0.51110 0.01900
C 	C 	0.22100 0.71600 0.44000 -0.09800
H 	H 	0.19930 0.69050 0.39910 0.03700
N 	N 	0.69760 0.31880 0.97930 -0.11900
N 	N 	0.54650 0.25490 0.16060 -0.22100
N 	N 	0.91140 0.44690 0.97270 -0.20200
O 	O 	0.54880 0.05310 0.58270 -0.43800
O 	O 	0.58380 0.11680 0.50830 -0.30300
O 	O 	0.59640 0.24910 0.32750 -0.50600
O 	O 	0.66190 0.17550 0.30000 -0.27000
C 	C 	0.57490 0.09970 0.57200 0.38000
C 	C 	0.59780 0.14160 0.64080 -0.14300
C 	C 	0.58450 0.12610 0.70850 0.06700
H 	H 	0.56330 0.09000 0.71210 0.01700
C 	C 	0.60140 0.16230 0.77340 -0.13200
H 	H 	0.59030 0.15060 0.81920 0.07500
C 	C 	0.63410 0.21500 0.77090 0.06000
C 	C 	0.64820 0.22980 0.70130 -0.12900
H 	H 	0.67020 0.26550 0.69710 0.08200
C 	C 	0.63040 0.19250 0.63680 0.06700
H 	H 	0.64140 0.20330 0.59060 0.02400
C 	C 	0.52010 0.22690 0.09380 0.11000
H 	H 	0.48090 0.20110 0.08980 -0.00600
C 	C 	0.54780 0.23400 0.02900 -0.18700
H 	H 	0.52690 0.21370 0.98280 0.11600
C 	C 	0.60700 0.27180 0.03410 0.06500
C 	C 	0.63480 0.29970 0.10420 -0.14400
H 	H 	0.67460 0.32520 0.11110 0.09000
C 	C 	0.60310 0.28960 0.16470 0.10100
H 	H 	0.62330 0.30890 0.21190 0.00800
C 	C 	0.88190 0.42740 0.90130 0.13400
H 	H 	0.90150 0.44020 0.86130 -0.00300
C 	C 	0.82410 0.38950 0.88300 -0.18600
H 	H 	0.80570 0.37720 0.83130 0.11200
C 	C 	0.79280 0.36920 0.93750 0.12500
C 	C 	0.82170 0.39100 0.01340 -0.18800
H 	H 	0.80050 0.38070 0.05320 0.10100
C 	C 	0.88130 0.42760 0.02830 0.08900
H 	H 	0.90200 0.43970 0.07980 0.00300
C 	C 	0.64180 0.27930 0.96830 0.09200
C 	C 	0.61890 0.24730 0.90050 -0.12500
H 	H 	0.57960 0.22130 0.89420 0.07600
C 	C 	0.65370 0.25330 0.84150 0.05200
C 	C 	0.71150 0.29410 0.85330 -0.11500
H 	H 	0.73710 0.29920 0.81550 0.07700
C 	C 	0.73010 0.32640 0.92160 0.06200
C 	C 	0.65020 0.21660 0.34330 0.30300
C 	C 	0.70200 0.23400 0.42400 0.00600
C 	C 	0.75900 0.19800 0.46300 0.02300
H 	H 	0.76880 0.16410 0.44020 0.02300
C 	C 	0.69800 0.28600 0.46200 -0.10100
H 	H 	0.66350 0.31280 0.43500 0.03000
O 	O 	0.59260 0.33320 0.35140 -0.27600
C 	C 	0.62250 0.28720 0.37400 0.34700
C 	C 	0.68700 0.26900 0.44100 -0.00500
C 	C 	0.71500 0.30400 0.50500 0.02800
H 	H 	0.69310 0.33960 0.51110 0.02200
C 	C 	0.72100 0.21600 0.44000 -0.10000
H 	H 	0.69930 0.19050 0.39910 0.03800
Cu	Cu	-0.00000 0.25499 0.75000 0.89400
Cu	Cu	0.50000 0.75499 0.75000 0.92300
Cu	Cu	0.00000 0.74501 0.25000 0.89400
Cu	Cu	0.50000 0.24501 0.25000 0.92200
Cu	Cu	-0.00000 0.50000 -0.00000 0.86900
Cu	Cu	0.50000 0.00000 -0.00000 0.87800
Cu	Cu	0.00000 0.50000 0.50000 0.87800
Cu	Cu	0.50000 0.00000 0.50000 0.88900
