data_crystal

_cell_length_a 9.52770
_cell_length_b 14.69200
_cell_length_c 13.67720
_cell_angle_alpha 90.00000
_cell_angle_beta  90.00000
_cell_angle_gamma 90.00000

_symmetry_space_group_name_	'P 1'
_symmetry_space_group_name_H-M	'P 1'

loop_
_symmetry_equiv_pos_as_xyz
  x,y,z

loop_
_atom_site_label
_atom_site_type_symbol
_atom_site_fract_x
_atom_site_fract_y
_atom_site_fract_z
_atom_site_charge
H 	H 	0.76700 0.42300 0.97100 0.06600
H 	H 	0.88700 0.48610 0.11100 0.04200
H 	H 	0.80400 0.27600 0.94070 0.02800
H 	H 	0.09350 0.25680 0.15350 0.03200
O 	O 	0.07778 0.11186 0.05197 -0.45900
O 	O 	0.90947 0.12045 0.94283 -0.46200
O 	O 	0.03529 0.49398 0.26559 -0.32500
O 	O 	0.20195 0.39033 0.24799 -0.34500
C 	C 	0.02920 0.29035 0.11663 0.06400
C 	C 	0.00540 0.38018 0.14248 -0.09800
C 	C 	0.98290 0.15333 0.00999 0.42100
C 	C 	0.83400 0.39100 0.01430 -0.09100
C 	C 	0.95510 0.25015 0.04021 -0.15900
C 	C 	0.90670 0.43043 0.09050 0.01400
C 	C 	0.85700 0.30100 0.99036 0.05800
C 	C 	0.08650 0.42396 0.22350 0.30500
H 	H 	0.73300 0.57700 0.97100 0.06300
H 	H 	0.61300 0.51390 0.11100 0.04500
H 	H 	0.69600 0.72400 0.94070 0.04100
H 	H 	0.40650 0.74320 0.15350 0.04200
O 	O 	0.42222 0.88814 0.05197 -0.38000
O 	O 	0.59053 0.87955 0.94283 -0.35900
O 	O 	0.46471 0.50602 0.26559 -0.32700
O 	O 	0.29805 0.60967 0.24799 -0.34200
C 	C 	0.47080 0.70965 0.11663 0.04500
C 	C 	0.49460 0.61982 0.14248 -0.09100
C 	C 	0.51710 0.84667 0.00999 0.40900
C 	C 	0.66600 0.60900 0.01430 -0.07600
C 	C 	0.54490 0.74985 0.04021 -0.12400
C 	C 	0.59330 0.56957 0.09050 0.01100
C 	C 	0.64300 0.69900 0.99036 0.04000
C 	C 	0.41350 0.57604 0.22350 0.30200
H 	H 	0.73300 0.92300 0.52900 0.09500
H 	H 	0.61300 0.98610 0.38900 0.11000
H 	H 	0.69600 0.77600 0.55930 0.04400
H 	H 	0.40650 0.75680 0.34650 0.04400
O 	O 	0.42222 0.61186 0.44803 -0.45100
O 	O 	0.59053 0.62045 0.55717 -0.43800
O 	O 	0.46471 0.99398 0.23441 -0.22400
O 	O 	0.29805 0.89033 0.25201 -0.28500
C 	C 	0.47080 0.79035 0.38337 0.03600
C 	C 	0.49460 0.88018 0.35752 -0.05500
C 	C 	0.51710 0.65333 0.49001 0.43100
C 	C 	0.66600 0.89100 0.48570 -0.03400
C 	C 	0.54490 0.75015 0.45979 -0.12600
C 	C 	0.59330 0.93043 0.40950 0.00100
C 	C 	0.64300 0.80100 0.50964 0.03500
C 	C 	0.41350 0.92396 0.27650 0.29000
H 	H 	0.76700 0.07700 0.52900 0.03100
H 	H 	0.88700 0.01390 0.38900 -0.01700
H 	H 	0.80400 0.22400 0.55930 0.02400
H 	H 	0.09350 0.24320 0.34650 0.02900
O 	O 	0.07778 0.38814 0.44803 -0.45200
O 	O 	0.90947 0.37955 0.55717 -0.44500
O 	O 	0.03529 0.00602 0.23441 -0.39100
O 	O 	0.20195 0.10967 0.25201 -0.37000
C 	C 	0.02920 0.20965 0.38337 0.07200
C 	C 	0.00540 0.11982 0.35752 -0.12600
C 	C 	0.98290 0.34667 0.49001 0.43500
C 	C 	0.83400 0.10900 0.48570 -0.12000
C 	C 	0.95510 0.24985 0.45979 -0.16600
C 	C 	0.90670 0.06957 0.40950 0.01600
C 	C 	0.85700 0.19900 0.50964 0.05600
C 	C 	0.08650 0.07604 0.27650 0.31100
H 	H 	0.23300 0.57700 0.02900 0.06500
H 	H 	0.11300 0.51390 0.88900 0.04400
H 	H 	0.19600 0.72400 0.05930 0.03800
H 	H 	0.90650 0.74320 0.84650 0.04100
O 	O 	0.92222 0.88814 0.94803 -0.37800
O 	O 	0.09053 0.87955 0.05717 -0.35800
O 	O 	0.96471 0.50602 0.73441 -0.32800
O 	O 	0.79805 0.60967 0.75201 -0.34200
C 	C 	0.97080 0.70965 0.88337 0.04900
C 	C 	0.99460 0.61982 0.85752 -0.09500
C 	C 	0.01710 0.84667 0.99001 0.40500
C 	C 	0.16600 0.60900 0.98570 -0.08200
C 	C 	0.04490 0.74985 0.95979 -0.12800
C 	C 	0.09330 0.56957 0.90950 0.01600
C 	C 	0.14300 0.69900 0.00964 0.04700
C 	C 	0.91350 0.57604 0.77650 0.30400
H 	H 	0.26700 0.42300 0.02900 0.06600
H 	H 	0.38700 0.48610 0.88900 0.04400
H 	H 	0.30400 0.27600 0.05930 0.03200
H 	H 	0.59350 0.25680 0.84650 0.03600
O 	O 	0.57778 0.11186 0.94803 -0.46600
O 	O 	0.40947 0.12045 0.05717 -0.46500
O 	O 	0.53529 0.49398 0.73441 -0.32500
O 	O 	0.70195 0.39033 0.75201 -0.34500
C 	C 	0.52920 0.29035 0.88337 0.05400
C 	C 	0.50540 0.38018 0.85752 -0.09900
C 	C 	0.48290 0.15333 0.99001 0.42900
C 	C 	0.33400 0.39100 0.98570 -0.08600
C 	C 	0.45510 0.25015 0.95979 -0.14900
C 	C 	0.40670 0.43043 0.90950 0.01800
C 	C 	0.35700 0.30100 0.00964 0.05000
C 	C 	0.58650 0.42396 0.77650 0.30500
H 	H 	0.26700 0.07700 0.47100 0.03300
H 	H 	0.38700 0.01390 0.61100 -0.01900
H 	H 	0.30400 0.22400 0.44070 0.02400
H 	H 	0.59350 0.24320 0.65350 0.02900
O 	O 	0.57778 0.38814 0.55197 -0.45500
O 	O 	0.40947 0.37955 0.44283 -0.44500
O 	O 	0.53529 0.00602 0.76559 -0.39400
O 	O 	0.70195 0.10967 0.74799 -0.37000
C 	C 	0.52920 0.20965 0.61663 0.07000
C 	C 	0.50540 0.11982 0.64248 -0.13400
C 	C 	0.48290 0.34667 0.50999 0.43900
C 	C 	0.33400 0.10900 0.51430 -0.12400
C 	C 	0.45510 0.24985 0.54021 -0.16300
C 	C 	0.40670 0.06957 0.59050 0.02700
C 	C 	0.35700 0.19900 0.49036 0.05900
C 	C 	0.58650 0.07604 0.72350 0.31300
H 	H 	0.23300 0.92300 0.47100 0.09400
H 	H 	0.11300 0.98610 0.61100 0.11000
H 	H 	0.19600 0.77600 0.44070 0.04400
H 	H 	0.90650 0.75680 0.65350 0.04400
O 	O 	0.92222 0.61186 0.55197 -0.45300
O 	O 	0.09053 0.62045 0.44283 -0.43900
O 	O 	0.96471 0.99398 0.76559 -0.22400
O 	O 	0.79805 0.89033 0.74799 -0.28300
C 	C 	0.97080 0.79035 0.61663 0.03400
C 	C 	0.99460 0.88018 0.64248 -0.05600
C 	C 	0.01710 0.65333 0.50999 0.43200
C 	C 	0.16600 0.89100 0.51430 -0.03400
C 	C 	0.04490 0.75015 0.54021 -0.12500
C 	C 	0.09330 0.93043 0.59050 0.00000
C 	C 	0.14300 0.80100 0.49036 0.03400
C 	C 	0.91350 0.92396 0.72350 0.29000
La	La	0.25000 0.00000 0.10581 1.53600
La	La	0.25000 0.50000 0.39419 1.71400
La	La	0.75000 0.00000 0.89419 1.53200
La	La	0.75000 0.50000 0.60581 1.71300
