data_crystal

_cell_length_a 9.43000
_cell_length_b 14.48000
_cell_length_c 13.30600
_cell_angle_alpha 90.00000
_cell_angle_beta  90.00000
_cell_angle_gamma 90.00000

_symmetry_space_group_name_	'P 1'
_symmetry_space_group_name_H-M	'P 1'

loop_
_symmetry_equiv_pos_as_xyz
  x,y,z

loop_
_atom_site_label
_atom_site_type_symbol
_atom_site_fract_x
_atom_site_fract_y
_atom_site_fract_z
_atom_site_charge
O 	O 	0.20980 0.39321 0.24521 -0.38300
O 	O 	0.03610 0.49290 0.22546 -0.35400
O 	O 	0.08950 0.10897 0.45231 -0.50700
O 	O 	0.90400 0.11348 0.55316 -0.51300
C 	C 	0.09090 0.42442 0.27058 0.34200
C 	C 	0.01030 0.37931 0.35419 -0.17400
C 	C 	0.91050 0.43060 0.40710 0.13000
C 	C 	0.83480 0.38910 0.48460 -0.26500
C 	C 	0.85830 0.29850 0.50900 0.19000
C 	C 	0.95850 0.24652 0.45876 -0.24800
C 	C 	0.03470 0.28859 0.38119 0.15500
C 	C 	0.98630 0.14830 0.48971 0.51800
H 	H 	0.09300 0.25720 0.34850 -0.00300
H 	H 	0.86900 0.48400 0.37700 0.00300
H 	H 	0.81400 0.27200 0.56000 -0.01900
H 	H 	0.76800 0.41700 0.51600 0.14500
O 	O 	0.29020 0.60679 0.24521 -0.37800
O 	O 	0.46390 0.50710 0.22546 -0.35500
O 	O 	0.41050 0.89103 0.45231 -0.41800
O 	O 	0.59600 0.88652 0.55316 -0.39500
C 	C 	0.40910 0.57558 0.27058 0.33700
C 	C 	0.48970 0.62069 0.35419 -0.15900
C 	C 	0.58950 0.56940 0.40710 0.11700
C 	C 	0.66520 0.61090 0.48460 -0.23800
C 	C 	0.64170 0.70150 0.50900 0.16600
C 	C 	0.54150 0.75348 0.45876 -0.20700
C 	C 	0.46530 0.71141 0.38119 0.12600
C 	C 	0.51370 0.85170 0.48971 0.49900
H 	H 	0.40700 0.74280 0.34850 0.01000
H 	H 	0.63100 0.51600 0.37700 0.00800
H 	H 	0.68600 0.72800 0.56000 -0.00300
H 	H 	0.73200 0.58300 0.51600 0.13500
O 	O 	0.29020 0.89321 0.25479 -0.29600
O 	O 	0.46390 0.99290 0.27454 -0.22800
O 	O 	0.41050 0.60897 0.04769 -0.54300
O 	O 	0.59600 0.61348 0.94684 -0.53400
C 	C 	0.40910 0.92442 0.22942 0.33300
C 	C 	0.48970 0.87931 0.14581 -0.16400
C 	C 	0.58950 0.93060 0.09290 0.17200
C 	C 	0.66520 0.88910 0.01540 -0.27800
C 	C 	0.64170 0.79850 0.99100 0.23300
C 	C 	0.54150 0.74652 0.04124 -0.26700
C 	C 	0.46530 0.78859 0.11881 0.17200
C 	C 	0.51370 0.64830 0.01029 0.57200
H 	H 	0.40700 0.75720 0.15150 -0.01000
H 	H 	0.63100 0.98400 0.12300 0.05600
H 	H 	0.68600 0.77200 0.94000 -0.02800
H 	H 	0.73200 0.91700 0.98400 0.19600
O 	O 	0.20980 0.10679 0.25479 -0.38900
O 	O 	0.03610 0.00710 0.27454 -0.40500
O 	O 	0.08950 0.39103 0.04769 -0.54300
O 	O 	0.90400 0.38652 0.94684 -0.53800
C 	C 	0.09090 0.07558 0.22942 0.35200
C 	C 	0.01030 0.12069 0.14581 -0.22300
C 	C 	0.91050 0.06940 0.09290 0.14700
C 	C 	0.83480 0.11090 0.01540 -0.33800
C 	C 	0.85830 0.20150 0.99100 0.24400
C 	C 	0.95850 0.25348 0.04124 -0.30300
C 	C 	0.03470 0.21141 0.11881 0.20800
C 	C 	0.98630 0.35170 0.01029 0.57200
H 	H 	0.09300 0.24280 0.15150 -0.02700
H 	H 	0.86900 0.01600 0.12300 -0.06500
H 	H 	0.81400 0.22800 0.94000 -0.04500
H 	H 	0.76800 0.08300 0.98400 0.13100
O 	O 	0.79020 0.60679 0.75479 -0.37800
O 	O 	0.96390 0.50710 0.77454 -0.35600
O 	O 	0.91050 0.89103 0.54769 -0.41700
O 	O 	0.09600 0.88652 0.44684 -0.39800
C 	C 	0.90910 0.57558 0.72942 0.33700
C 	C 	0.98970 0.62069 0.64581 -0.16200
C 	C 	0.08950 0.56940 0.59290 0.12000
C 	C 	0.16520 0.61090 0.51540 -0.24000
C 	C 	0.14170 0.70150 0.49100 0.16700
C 	C 	0.04150 0.75348 0.54124 -0.20800
C 	C 	0.96530 0.71141 0.61881 0.12700
C 	C 	0.01370 0.85170 0.51029 0.49800
H 	H 	0.90700 0.74280 0.65150 0.01000
H 	H 	0.13100 0.51600 0.62300 0.00700
H 	H 	0.18600 0.72800 0.44000 -0.00400
H 	H 	0.23200 0.58300 0.48400 0.13600
O 	O 	0.70980 0.39321 0.75479 -0.38200
O 	O 	0.53610 0.49290 0.77454 -0.35400
O 	O 	0.58950 0.10897 0.54769 -0.51100
O 	O 	0.40400 0.11348 0.44684 -0.51500
C 	C 	0.59090 0.42442 0.72942 0.34300
C 	C 	0.51030 0.37931 0.64581 -0.17700
C 	C 	0.41050 0.43060 0.59290 0.13500
C 	C 	0.33480 0.38910 0.51540 -0.26700
C 	C 	0.35830 0.29850 0.49100 0.19100
C 	C 	0.45850 0.24652 0.54124 -0.24400
C 	C 	0.53470 0.28859 0.61881 0.15000
C 	C 	0.48630 0.14830 0.51029 0.52300
H 	H 	0.59300 0.25720 0.65150 -0.00100
H 	H 	0.36900 0.48400 0.62300 0.00300
H 	H 	0.31400 0.27200 0.44000 -0.01900
H 	H 	0.26800 0.41700 0.48400 0.14600
O 	O 	0.70980 0.10679 0.74521 -0.38900
O 	O 	0.53610 0.00710 0.72546 -0.40800
O 	O 	0.58950 0.39103 0.95231 -0.54700
O 	O 	0.40400 0.38652 0.05316 -0.53900
C 	C 	0.59090 0.07558 0.77058 0.35200
C 	C 	0.51030 0.12069 0.85419 -0.22800
C 	C 	0.41050 0.06940 0.90710 0.15200
C 	C 	0.33480 0.11090 0.98460 -0.33500
C 	C 	0.35830 0.20150 0.00900 0.23900
C 	C 	0.45850 0.25348 0.95876 -0.29500
C 	C 	0.53470 0.21141 0.88119 0.20000
C 	C 	0.48630 0.35170 0.98971 0.57700
H 	H 	0.59300 0.24280 0.84850 -0.02500
H 	H 	0.36900 0.01600 0.87700 -0.06400
H 	H 	0.31400 0.22800 0.06000 -0.04300
H 	H 	0.26800 0.08300 0.01600 0.13100
O 	O 	0.79020 0.89321 0.74521 -0.29400
O 	O 	0.96390 0.99290 0.72546 -0.22800
O 	O 	0.91050 0.60897 0.95231 -0.54400
O 	O 	0.09600 0.61348 0.05316 -0.53300
C 	C 	0.90910 0.92442 0.77058 0.33400
C 	C 	0.98970 0.87931 0.85419 -0.16400
C 	C 	0.08950 0.93060 0.90710 0.17200
C 	C 	0.16520 0.88910 0.98460 -0.28000
C 	C 	0.14170 0.79850 0.00900 0.23600
C 	C 	0.04150 0.74652 0.95876 -0.27000
C 	C 	0.96530 0.78859 0.88119 0.17300
C 	C 	0.01370 0.64830 0.98971 0.57100
H 	H 	0.90700 0.75720 0.84850 -0.01100
H 	H 	0.13100 0.98400 0.87700 0.05500
H 	H 	0.18600 0.77200 0.06000 -0.02900
H 	H 	0.23200 0.91700 0.01600 0.19600
Dy	Dy	0.25000 0.50000 0.10195 1.99900
Dy	Dy	0.25000 0.00000 0.39805 1.58100
Dy	Dy	0.75000 0.50000 0.89805 1.99800
Dy	Dy	0.75000 0.00000 0.60195 1.57400
