data_crystal

_cell_length_a 9.02100
_cell_length_b 13.84100
_cell_length_c 30.18300
_cell_angle_alpha 90.00000
_cell_angle_beta  90.00000
_cell_angle_gamma 90.00000

_symmetry_space_group_name_	'P 1'
_symmetry_space_group_name_H-M	'P 1'

loop_
_symmetry_equiv_pos_as_xyz
  x,y,z

loop_
_atom_site_label
_atom_site_type_symbol
_atom_site_fract_x
_atom_site_fract_y
_atom_site_fract_z
_atom_site_charge
C 	C 	0.13330 0.67390 0.18996 0.42200
C 	C 	0.19200 0.67880 0.14317 -0.24500
C 	C 	0.33370 0.65060 0.13248 0.20800
H 	H 	0.39850 0.63250 0.15500 -0.02800
C 	C 	0.38220 0.64850 0.08885 -0.33000
H 	H 	0.47850 0.62980 0.08200 0.16000
C 	C 	0.28430 0.67490 0.05567 0.33900
C 	C 	0.14520 0.70610 0.06554 -0.34100
H 	H 	0.08170 0.72580 0.04300 0.16300
C 	C 	0.09840 0.70850 0.10912 0.20700
H 	H 	0.00330 0.73010 0.11580 -0.03500
C 	C 	0.28880 0.58260 0.98968 0.32100
C 	C 	0.29100 0.58310 0.94419 -0.25400
H 	H 	0.31960 0.63850 0.92900 0.13600
C 	C 	0.34620 0.83070 0.28236 0.01500
H 	H 	0.33850 0.83910 0.25190 0.02900
C 	C 	0.39580 0.89820 0.31119 0.00200
H 	H 	0.43190 0.95920 0.30420 0.03300
C 	C 	0.33080 0.77000 0.34622 0.10600
H 	H 	0.31190 0.72720 0.36930 -0.00200
C 	C 	0.41660 0.90120 0.39473 0.13200
C 	C 	0.34730 0.86830 0.43191 -0.12800
H 	H 	0.27570 0.82030 0.42960 0.08200
C 	C 	0.38200 0.90550 0.47275 -0.00200
H 	H 	0.33600 0.88030 0.49780 0.03700
C 	C 	0.48400 0.97940 0.47761 -0.01000
C 	C 	0.54700 0.01230 0.43987 -0.00500
H 	H 	0.61560 0.06220 0.44180 0.03600
C 	C 	0.51420 0.97520 0.39836 -0.13000
H 	H 	0.55880 0.00080 0.37320 0.08300
Fe	Fe	0.19364 0.61714 0.28520 1.19700
N 	N 	0.30920 0.74890 0.30449 -0.20800
N 	N 	0.38260 0.85920 0.35236 -0.14400
O 	O 	0.28530 0.57742 0.85194 -0.40400
O 	O 	0.22370 0.65100 0.21960 -0.44300
O 	O 	0.99940 0.69220 0.19619 -0.43000
O 	O 	0.33010 0.66730 0.01138 -0.32600
O 	O 	0.10090 0.47534 0.27182 -0.54600
C 	C 	0.36670 0.32610 0.18996 0.43700
C 	C 	0.30800 0.32120 0.14317 -0.25000
C 	C 	0.16630 0.34940 0.13248 0.21100
H 	H 	0.10150 0.36750 0.15500 -0.03200
C 	C 	0.11780 0.35150 0.08885 -0.33400
H 	H 	0.02150 0.37020 0.08200 0.15700
C 	C 	0.21570 0.32510 0.05567 0.34000
C 	C 	0.35480 0.29390 0.06554 -0.34300
H 	H 	0.41830 0.27420 0.04300 0.16600
C 	C 	0.40160 0.29150 0.10912 0.21100
H 	H 	0.49670 0.26990 0.11580 -0.03200
C 	C 	0.21120 0.41740 0.98968 0.32000
C 	C 	0.20900 0.41690 0.94419 -0.25400
H 	H 	0.18040 0.36150 0.92900 0.13500
C 	C 	0.15380 0.16930 0.28236 0.01400
H 	H 	0.16150 0.16090 0.25190 0.02800
C 	C 	0.10420 0.10180 0.31119 0.00100
H 	H 	0.06810 0.04080 0.30420 0.03000
C 	C 	0.16920 0.23000 0.34622 0.10500
H 	H 	0.18810 0.27280 0.36930 -0.00300
C 	C 	0.08340 0.09880 0.39473 0.13200
C 	C 	0.15270 0.13170 0.43191 -0.14500
H 	H 	0.22430 0.17970 0.42960 0.08900
C 	C 	0.11800 0.09450 0.47275 0.02600
H 	H 	0.16400 0.11970 0.49780 0.02700
C 	C 	0.01600 0.02060 0.47761 -0.05900
C 	C 	0.95300 0.98770 0.43987 0.03400
H 	H 	0.88440 0.93780 0.44180 0.02300
C 	C 	0.98580 0.02480 0.39836 -0.13700
H 	H 	0.94120 0.99920 0.37320 0.08800
Fe	Fe	0.30636 0.38286 0.28520 1.19700
N 	N 	0.19080 0.25110 0.30449 -0.20800
N 	N 	0.11740 0.14080 0.35236 -0.14500
O 	O 	0.21470 0.42258 0.85194 -0.40500
O 	O 	0.27630 0.34900 0.21960 -0.44600
O 	O 	0.50060 0.30780 0.19619 -0.44300
O 	O 	0.16990 0.33270 0.01138 -0.32900
O 	O 	0.39910 0.52466 0.27182 -0.54800
C 	C 	0.86670 0.67390 0.31004 0.45200
C 	C 	0.80800 0.67880 0.35683 -0.25400
C 	C 	0.66630 0.65060 0.36752 0.21600
H 	H 	0.60150 0.63250 0.34500 -0.03100
C 	C 	0.61780 0.64850 0.41115 -0.33600
H 	H 	0.52150 0.62980 0.41800 0.16200
C 	C 	0.71570 0.67490 0.44433 0.34300
C 	C 	0.85480 0.70610 0.43446 -0.34600
H 	H 	0.91830 0.72580 0.45700 0.17000
C 	C 	0.90160 0.70850 0.39088 0.21600
H 	H 	0.99670 0.73010 0.38420 -0.02900
C 	C 	0.71120 0.58260 0.51032 0.32200
C 	C 	0.70900 0.58310 0.55581 -0.25300
H 	H 	0.68040 0.63850 0.57100 0.13700
C 	C 	0.65380 0.83070 0.21764 0.01600
H 	H 	0.66150 0.83910 0.24810 0.03000
C 	C 	0.60420 0.89820 0.18881 0.00300
H 	H 	0.56810 0.95920 0.19580 0.03300
C 	C 	0.66920 0.77000 0.15378 0.10800
H 	H 	0.68810 0.72720 0.13070 -0.00100
C 	C 	0.58340 0.90120 0.10527 0.13200
C 	C 	0.65270 0.86830 0.06809 -0.12700
H 	H 	0.72430 0.82030 0.07040 0.08500
C 	C 	0.61800 0.90550 0.02725 -0.00100
H 	H 	0.66400 0.88030 0.00220 0.03800
C 	C 	0.51600 0.97940 0.02239 -0.00900
C 	C 	0.45300 0.01230 0.06013 -0.00600
H 	H 	0.38440 0.06220 0.05820 0.03600
C 	C 	0.48580 0.97520 0.10164 -0.12900
H 	H 	0.44120 0.00080 0.12680 0.08200
Fe	Fe	0.80636 0.61714 0.21480 1.19800
N 	N 	0.69080 0.74890 0.19551 -0.20700
N 	N 	0.61740 0.85920 0.14764 -0.14400
O 	O 	0.71470 0.57742 0.64806 -0.40200
O 	O 	0.77630 0.65100 0.28040 -0.44800
O 	O 	0.00060 0.69220 0.30381 -0.45600
O 	O 	0.66990 0.66730 0.48862 -0.32600
O 	O 	0.89910 0.47534 0.22818 -0.53600
C 	C 	0.63330 0.32610 0.31004 0.43700
C 	C 	0.69200 0.32120 0.35683 -0.24800
C 	C 	0.83370 0.34940 0.36752 0.21200
H 	H 	0.89850 0.36750 0.34500 -0.02700
C 	C 	0.88220 0.35150 0.41115 -0.33200
H 	H 	0.97850 0.37020 0.41800 0.16500
C 	C 	0.78430 0.32510 0.44433 0.34200
C 	C 	0.64520 0.29390 0.43446 -0.34300
H 	H 	0.58170 0.27420 0.45700 0.16600
C 	C 	0.59840 0.29150 0.39088 0.21100
H 	H 	0.50330 0.26990 0.38420 -0.03200
C 	C 	0.78880 0.41740 0.51032 0.32200
C 	C 	0.79100 0.41690 0.55581 -0.25300
H 	H 	0.81960 0.36150 0.57100 0.13900
C 	C 	0.84620 0.16930 0.21764 0.01700
H 	H 	0.83850 0.16090 0.24810 0.03100
C 	C 	0.89580 0.10180 0.18881 0.00400
H 	H 	0.93190 0.04080 0.19580 0.03500
C 	C 	0.83080 0.23000 0.15378 0.10800
H 	H 	0.81190 0.27280 0.13070 -0.00100
C 	C 	0.91660 0.09880 0.10527 0.13100
C 	C 	0.84730 0.13170 0.06809 -0.11000
H 	H 	0.77570 0.17970 0.07040 0.07800
C 	C 	0.88200 0.09450 0.02725 -0.02900
H 	H 	0.83600 0.11970 0.00220 0.04900
C 	C 	0.98400 0.02060 0.02239 0.04000
C 	C 	0.04700 0.98770 0.06013 -0.04500
H 	H 	0.11560 0.93780 0.05820 0.04900
C 	C 	0.01420 0.02480 0.10164 -0.12200
H 	H 	0.05880 0.99920 0.12680 0.07700
Fe	Fe	0.69364 0.38286 0.21480 1.19800
N 	N 	0.80920 0.25110 0.19551 -0.20700
N 	N 	0.88260 0.14080 0.14764 -0.14200
O 	O 	0.78530 0.42258 0.64806 -0.40200
O 	O 	0.72370 0.34900 0.28040 -0.44400
O 	O 	0.49940 0.30780 0.30381 -0.44200
O 	O 	0.83010 0.33270 0.48862 -0.32300
O 	O 	0.60090 0.52466 0.22818 -0.54800
C 	C 	0.86670 0.32610 0.81004 0.45300
C 	C 	0.80800 0.32120 0.85683 -0.25400
C 	C 	0.66630 0.34940 0.86752 0.21600
H 	H 	0.60150 0.36750 0.84500 -0.03100
C 	C 	0.61780 0.35150 0.91115 -0.33500
H 	H 	0.52150 0.37020 0.91800 0.16200
C 	C 	0.71570 0.32510 0.94433 0.34300
C 	C 	0.85480 0.29390 0.93446 -0.34500
H 	H 	0.91830 0.27420 0.95700 0.17000
C 	C 	0.90160 0.29150 0.89088 0.21600
H 	H 	0.99670 0.26990 0.88420 -0.02900
C 	C 	0.71120 0.41740 0.01032 0.31900
C 	C 	0.70900 0.41690 0.05581 -0.25100
H 	H 	0.68040 0.36150 0.07100 0.13600
C 	C 	0.65380 0.16930 0.71764 0.01600
H 	H 	0.66150 0.16090 0.74810 0.03000
C 	C 	0.60420 0.10180 0.68881 0.00300
H 	H 	0.56810 0.04080 0.69580 0.03300
C 	C 	0.66920 0.23000 0.65378 0.10800
H 	H 	0.68810 0.27280 0.63070 -0.00100
C 	C 	0.58340 0.09880 0.60527 0.13200
C 	C 	0.65270 0.13170 0.56809 -0.12700
H 	H 	0.72430 0.17970 0.57040 0.08500
C 	C 	0.61800 0.09450 0.52725 -0.00200
H 	H 	0.66400 0.11970 0.50220 0.03900
C 	C 	0.51600 0.02060 0.52239 -0.00800
C 	C 	0.45300 0.98770 0.56013 -0.00700
H 	H 	0.38440 0.93780 0.55820 0.03600
C 	C 	0.48580 0.02480 0.60164 -0.12800
H 	H 	0.44120 0.99920 0.62680 0.08100
Fe	Fe	0.80636 0.38286 0.71480 1.19800
N 	N 	0.69080 0.25110 0.69551 -0.20700
N 	N 	0.61740 0.14080 0.64764 -0.14400
O 	O 	0.71470 0.42258 0.14806 -0.40300
O 	O 	0.77630 0.34900 0.78040 -0.44800
O 	O 	0.00060 0.30780 0.80381 -0.45600
O 	O 	0.66990 0.33270 0.98862 -0.32500
O 	O 	0.89910 0.52466 0.72818 -0.53600
C 	C 	0.63330 0.67390 0.81004 0.43700
C 	C 	0.69200 0.67880 0.85683 -0.24800
C 	C 	0.83370 0.65060 0.86752 0.21200
H 	H 	0.89850 0.63250 0.84500 -0.02600
C 	C 	0.88220 0.64850 0.91115 -0.33100
H 	H 	0.97850 0.62980 0.91800 0.16500
C 	C 	0.78430 0.67490 0.94433 0.34100
C 	C 	0.64520 0.70610 0.93446 -0.34200
H 	H 	0.58170 0.72580 0.95700 0.16600
C 	C 	0.59840 0.70850 0.89088 0.21100
H 	H 	0.50330 0.73010 0.88420 -0.03200
C 	C 	0.78880 0.58260 0.01032 0.31900
C 	C 	0.79100 0.58310 0.05581 -0.25100
H 	H 	0.81960 0.63850 0.07100 0.13800
C 	C 	0.84620 0.83070 0.71764 0.01700
H 	H 	0.83850 0.83910 0.74810 0.03100
C 	C 	0.89580 0.89820 0.68881 0.00400
H 	H 	0.93190 0.95920 0.69580 0.03600
C 	C 	0.83080 0.77000 0.65378 0.10800
H 	H 	0.81190 0.72720 0.63070 -0.00100
C 	C 	0.91660 0.90120 0.60527 0.13100
C 	C 	0.84730 0.86830 0.56809 -0.10900
H 	H 	0.77570 0.82030 0.57040 0.07700
C 	C 	0.88200 0.90550 0.52725 -0.03000
H 	H 	0.83600 0.88030 0.50220 0.04900
C 	C 	0.98400 0.97940 0.52239 0.04100
C 	C 	0.04700 0.01230 0.56013 -0.04600
H 	H 	0.11560 0.06220 0.55820 0.04900
C 	C 	0.01420 0.97520 0.60164 -0.12200
H 	H 	0.05880 0.00080 0.62680 0.07600
Fe	Fe	0.69364 0.61714 0.71480 1.19800
N 	N 	0.80920 0.74890 0.69551 -0.20700
N 	N 	0.88260 0.85920 0.64764 -0.14200
O 	O 	0.78530 0.57742 0.14806 -0.40200
O 	O 	0.72370 0.65100 0.78040 -0.44400
O 	O 	0.49940 0.69220 0.80381 -0.44200
O 	O 	0.83010 0.66730 0.98862 -0.32200
O 	O 	0.60090 0.47534 0.72818 -0.54800
C 	C 	0.13330 0.32610 0.68996 0.42200
C 	C 	0.19200 0.32120 0.64317 -0.24500
C 	C 	0.33370 0.34940 0.63248 0.20700
H 	H 	0.39850 0.36750 0.65500 -0.02800
C 	C 	0.38220 0.35150 0.58885 -0.33000
H 	H 	0.47850 0.37020 0.58200 0.16000
C 	C 	0.28430 0.32510 0.55567 0.33800
C 	C 	0.14520 0.29390 0.56554 -0.34100
H 	H 	0.08170 0.27420 0.54300 0.16300
C 	C 	0.09840 0.29150 0.60912 0.20600
H 	H 	0.00330 0.26990 0.61580 -0.03500
C 	C 	0.28880 0.41740 0.48968 0.31900
C 	C 	0.29100 0.41690 0.44419 -0.25300
H 	H 	0.31960 0.36150 0.42900 0.13600
C 	C 	0.34620 0.16930 0.78236 0.01500
H 	H 	0.33850 0.16090 0.75190 0.02900
C 	C 	0.39580 0.10180 0.81119 0.00200
H 	H 	0.43190 0.04080 0.80420 0.03300
C 	C 	0.33080 0.23000 0.84622 0.10600
H 	H 	0.31190 0.27280 0.86930 -0.00200
C 	C 	0.41660 0.09880 0.89473 0.13100
C 	C 	0.34730 0.13170 0.93191 -0.12700
H 	H 	0.27570 0.17970 0.92960 0.08100
C 	C 	0.38200 0.09450 0.97275 -0.00300
H 	H 	0.33600 0.11970 0.99780 0.03800
C 	C 	0.48400 0.02060 0.97761 -0.00800
C 	C 	0.54700 0.98770 0.93987 -0.00600
H 	H 	0.61560 0.93780 0.94180 0.03700
C 	C 	0.51420 0.02480 0.89836 -0.12900
H 	H 	0.55880 0.99920 0.87320 0.08200
Fe	Fe	0.19364 0.38286 0.78520 1.19700
N 	N 	0.30920 0.25110 0.80449 -0.20800
N 	N 	0.38260 0.14080 0.85236 -0.14400
O 	O 	0.28530 0.42258 0.35194 -0.40400
O 	O 	0.22370 0.34900 0.71960 -0.44300
O 	O 	0.99940 0.30780 0.69619 -0.42900
O 	O 	0.33010 0.33270 0.51138 -0.32500
O 	O 	0.10090 0.52466 0.77182 -0.54600
C 	C 	0.36670 0.67390 0.68996 0.43700
C 	C 	0.30800 0.67880 0.64317 -0.25000
C 	C 	0.16630 0.65060 0.63248 0.21000
H 	H 	0.10150 0.63250 0.65500 -0.03200
C 	C 	0.11780 0.64850 0.58885 -0.33300
H 	H 	0.02150 0.62980 0.58200 0.15700
C 	C 	0.21570 0.67490 0.55567 0.34000
C 	C 	0.35480 0.70610 0.56554 -0.34300
H 	H 	0.41830 0.72580 0.54300 0.16600
C 	C 	0.40160 0.70850 0.60912 0.21100
H 	H 	0.49670 0.73010 0.61580 -0.03200
C 	C 	0.21120 0.58260 0.48968 0.31900
C 	C 	0.20900 0.58310 0.44419 -0.25300
H 	H 	0.18040 0.63850 0.42900 0.13400
C 	C 	0.15380 0.83070 0.78236 0.01400
H 	H 	0.16150 0.83910 0.75190 0.02800
C 	C 	0.10420 0.89820 0.81119 0.00100
H 	H 	0.06810 0.95920 0.80420 0.03000
C 	C 	0.16920 0.77000 0.84622 0.10500
H 	H 	0.18810 0.72720 0.86930 -0.00300
C 	C 	0.08340 0.90120 0.89473 0.13200
C 	C 	0.15270 0.86830 0.93191 -0.14400
H 	H 	0.22430 0.82030 0.92960 0.08800
C 	C 	0.11800 0.90550 0.97275 0.02500
H 	H 	0.16400 0.88030 0.99780 0.02700
C 	C 	0.01600 0.97940 0.97761 -0.05800
C 	C 	0.95300 0.01230 0.93987 0.03300
H 	H 	0.88440 0.06220 0.94180 0.02400
C 	C 	0.98580 0.97520 0.89836 -0.13600
H 	H 	0.94120 0.00080 0.87320 0.08700
Fe	Fe	0.30636 0.61714 0.78520 1.19700
N 	N 	0.19080 0.74890 0.80449 -0.20800
N 	N 	0.11740 0.85920 0.85236 -0.14500
O 	O 	0.21470 0.57742 0.35194 -0.40500
O 	O 	0.27630 0.65100 0.71960 -0.44600
O 	O 	0.50060 0.69220 0.69619 -0.44300
O 	O 	0.16990 0.66730 0.51138 -0.32800
O 	O 	0.39910 0.47534 0.77182 -0.54800
C 	C 	-0.00000 0.43570 0.25000 0.52700
H 	H 	-0.00000 0.36850 0.25000 -0.15800
C 	C 	0.50000 0.56430 0.25000 0.54600
H 	H 	0.50000 0.63150 0.25000 -0.16000
C 	C 	-0.00000 0.56430 0.75000 0.52700
H 	H 	-0.00000 0.63150 0.75000 -0.15700
C 	C 	0.50000 0.43570 0.75000 0.54600
H 	H 	0.50000 0.36850 0.75000 -0.16000
C 	C 	0.25000 0.50000 0.01346 -0.36500
H 	H 	0.25000 0.50000 0.04430 0.17200
C 	C 	0.25000 0.50000 0.87091 0.30700
C 	C 	0.25000 0.50000 0.92078 0.07700
C 	C 	0.75000 0.50000 0.48654 -0.36300
H 	H 	0.75000 0.50000 0.45570 0.17300
C 	C 	0.75000 0.50000 0.62909 0.30800
C 	C 	0.75000 0.50000 0.57922 0.08000
C 	C 	0.75000 0.50000 0.98654 -0.36000
H 	H 	0.75000 0.50000 0.95570 0.17200
C 	C 	0.75000 0.50000 0.12909 0.30900
C 	C 	0.75000 0.50000 0.07922 0.07900
C 	C 	0.25000 0.50000 0.51346 -0.36400
H 	H 	0.25000 0.50000 0.54430 0.17200
C 	C 	0.25000 0.50000 0.37091 0.30700
C 	C 	0.25000 0.50000 0.42078 0.07700
